# Generated by pormake.
# Topology umf, (4)-cn, num edge types: 1
# Building blocks:
#     Node 0, Type 0, BuildingBlock: GALJAG_clean_sbu_0, # of connection points: 4
#     Node 1, Type 0, BuildingBlock: GALJAG_clean_sbu_0, # of connection points: 4
#     Node 2, Type 0, BuildingBlock: GALJAG_clean_sbu_0, # of connection points: 4
#     Node 3, Type 0, BuildingBlock: GALJAG_clean_sbu_0, # of connection points: 4
#     Node 4, Type 0, BuildingBlock: GALJAG_clean_sbu_0, # of connection points: 4
#     Node 5, Type 0, BuildingBlock: GALJAG_clean_sbu_0, # of connection points: 4
#     Node 6, Type 0, BuildingBlock: GALJAG_clean_sbu_0, # of connection points: 4
#     Node 7, Type 0, BuildingBlock: GALJAG_clean_sbu_0, # of connection points: 4
#     Edge 8, Type (0, 0), BuildingBlock: EYOCIG_clean_linker_4, # of connection points: 2
#     Edge 9, Type (0, 0), BuildingBlock: EYOCIG_clean_linker_4, # of connection points: 2
#     Edge 10, Type (0, 0), BuildingBlock: EYOCIG_clean_linker_4, # of connection points: 2
#     Edge 11, Type (0, 0), BuildingBlock: EYOCIG_clean_linker_4, # of connection points: 2
#     Edge 12, Type (0, 0), BuildingBlock: EYOCIG_clean_linker_4, # of connection points: 2
#     Edge 13, Type (0, 0), BuildingBlock: EYOCIG_clean_linker_4, # of connection points: 2
#     Edge 14, Type (0, 0), BuildingBlock: EYOCIG_clean_linker_4, # of connection points: 2
#     Edge 15, Type (0, 0), BuildingBlock: EYOCIG_clean_linker_4, # of connection points: 2
#     Edge 16, Type (0, 0), BuildingBlock: EYOCIG_clean_linker_4, # of connection points: 2
#     Edge 17, Type (0, 0), BuildingBlock: EYOCIG_clean_linker_4, # of connection points: 2
#     Edge 18, Type (0, 0), BuildingBlock: EYOCIG_clean_linker_4, # of connection points: 2
#     Edge 19, Type (0, 0), BuildingBlock: EYOCIG_clean_linker_4, # of connection points: 2
#     Edge 20, Type (0, 0), BuildingBlock: EYOCIG_clean_linker_4, # of connection points: 2
#     Edge 21, Type (0, 0), BuildingBlock: EYOCIG_clean_linker_4, # of connection points: 2
#     Edge 22, Type (0, 0), BuildingBlock: EYOCIG_clean_linker_4, # of connection points: 2
#     Edge 23, Type (0, 0), BuildingBlock: EYOCIG_clean_linker_4, # of connection points: 2
# Relax obj value: 0.108
# Max RMSD: 0.235
# Mean RMSD: 0.235
data_MOF--net-umf--node1-GALJAG_clean_sbu_0--edge1-EYOCIG_clean_linker_4
_symmetry_space_group_name_H-M    P1
_symmetry_Int_Tables_number       1
_symmetry_cell_setting            triclinic
loop_
_symmetry_equiv_pos_as_xyz
'x, y, z'
_cell_length_a     23.103666
_cell_length_b     23.113735
_cell_length_c     42.031233
_cell_angle_alpha  90.038966
_cell_angle_beta   89.919111
_cell_angle_gamma 90.147718
loop_
_atom_site_label
_atom_site_type_symbol
_atom_site_fract_x
_atom_site_fract_y
_atom_site_fract_z
_atom_type_partial_charge
In0 In 0.04653 0.23316 0.14529 0.0
O1 O 0.07821 0.23676 0.09362 0.0
O2 O -0.01317 0.23551 0.10319 0.0
C3 C 0.12583 0.22628 0.19125 0.0
C4 C 0.01507 0.3421 0.15654 0.0
C5 C 0.0131 0.12338 0.1517 0.0
O6 O 0.14089 0.22971 0.16222 0.0
O7 O 0.07208 0.22714 0.19662 0.0
O8 O 0.98177 0.16467 0.16163 0.0
O9 O 0.06027 0.13753 0.13858 0.0
C10 C 0.0269 0.23704 0.08277 0.0
O11 O -0.01724 0.29992 0.16427 0.0
O12 O 0.06266 0.32927 0.14352 0.0
In13 In 0.73107 0.04541 0.64532 0.0
O14 O 0.72804 0.07704 0.59368 0.0
O15 O 0.72801 -0.01429 0.60318 0.0
C16 C 0.73899 0.12492 0.69121 0.0
C17 C 0.62173 0.01469 0.65653 0.0
C18 C 0.84031 0.01083 0.65173 0.0
O19 O 0.73579 0.1398 0.66217 0.0
O20 O 0.73738 0.07125 0.69663 0.0
O21 O 0.7985 0.98002 0.66168 0.0
O22 O 0.82692 0.05808 0.63861 0.0
C23 C 0.7271 0.02574 0.58279 0.0
O24 O 0.66354 -0.01781 0.66429 0.0
O25 O 0.63511 0.06213 0.64352 0.0
In26 In 0.91955 0.73136 0.14556 0.0
O27 O 0.88711 0.72767 0.09408 0.0
O28 O 0.97861 0.72904 0.10308 0.0
C29 C 0.83998 0.73815 0.19154 0.0
C30 C 0.95175 0.6226 0.15673 0.0
C31 C 0.95338 0.84107 0.15194 0.0
O32 O 0.82511 0.73461 0.16251 0.0
O33 O 0.89369 0.73744 0.19691 0.0
O34 O -0.01539 0.79969 0.16176 0.0
O35 O 0.90609 0.82705 0.13898 0.0
C36 C 0.93825 0.72744 0.08291 0.0
O37 O -0.01618 0.66499 0.16437 0.0
O38 O 0.90403 0.63512 0.14386 0.0
In39 In 0.23221 0.91849 0.64508 0.0
O40 O 0.29845 -0.01692 0.66402 0.0
O41 O 0.32846 0.9035 0.6434 0.0
C42 C 0.12233 0.95111 0.65149 0.0
C43 C 0.23634 0.93783 0.58253 0.0
C44 C 0.22551 0.83921 0.6911 0.0
O45 O 0.16355 -0.01725 0.66136 0.0
O46 O 0.1366 0.90402 0.63843 0.0
O47 O 0.22912 0.82416 0.66208 0.0
O48 O 0.22612 0.89294 0.69643 0.0
C49 C 0.3409 0.95125 0.65636 0.0
O50 O 0.23623 0.88658 0.59348 0.0
O51 O 0.23449 0.97795 0.60287 0.0
In52 In 0.04487 0.73118 0.86877 0.0
O53 O 0.07621 0.72817 0.92045 0.0
O54 O -0.01511 0.72819 0.91085 0.0
C55 C 0.12458 0.73874 0.82292 0.0
C56 C 0.01409 0.62198 0.85748 0.0
C57 C 0.01075 0.84049 0.86231 0.0
O58 O 0.13937 0.73547 0.85197 0.0
O59 O 0.07088 0.73745 0.81748 0.0
O60 O 0.97975 0.79883 0.85238 0.0
O61 O 0.05796 0.82692 0.87542 0.0
C62 C 0.02483 0.7273 0.93128 0.0
O63 O 0.98165 0.66382 0.84969 0.0
O64 O 0.06145 0.63528 0.87061 0.0
In65 In 0.23313 0.04616 0.36882 0.0
O66 O 0.23663 0.07732 0.42056 0.0
O67 O 0.23561 -0.01394 0.41075 0.0
C68 C 0.22613 0.12566 0.32297 0.0
C69 C 0.34213 0.01495 0.35744 0.0
C70 C 0.12338 0.01262 0.36249 0.0
O71 O 0.22962 0.14057 0.35202 0.0
O72 O 0.22697 0.07197 0.31753 0.0
O73 O 0.16471 0.98144 0.35246 0.0
O74 O 0.13748 0.05974 0.37564 0.0
C75 C 0.23701 0.02591 0.43127 0.0
O76 O 0.29997 -0.01731 0.34964 0.0
O77 O 0.32926 0.06237 0.3706 0.0
In78 In 0.91965 0.23242 0.86892 0.0
O79 O 0.88806 0.23646 0.92059 0.0
O80 O 0.97942 0.23486 0.91099 0.0
C81 C 0.84037 0.22557 0.82293 0.0
C82 C 0.95197 0.34112 0.8575 0.0
C83 C 0.95212 0.12257 0.86258 0.0
O84 O 0.8253 0.22921 0.85195 0.0
O85 O 0.89414 0.22621 0.81758 0.0
O86 O -0.01618 0.16371 0.85264 0.0
O87 O 0.90505 0.13691 0.87568 0.0
C88 C 0.93939 0.23665 0.93142 0.0
O89 O -0.01604 0.29881 0.84983 0.0
O90 O 0.90429 0.32853 0.87055 0.0
In91 In 0.73121 0.91907 0.36878 0.0
O92 O 0.7271 0.88717 0.42037 0.0
O93 O 0.72876 0.97854 0.41104 0.0
C94 C 0.73831 0.83922 0.32302 0.0
C95 C 0.62259 0.95139 0.35733 0.0
C96 C 0.84103 0.95268 0.36249 0.0
O97 O 0.73449 0.82454 0.35207 0.0
O98 O 0.73769 0.89288 0.31752 0.0
O99 O 0.79973 -0.01615 0.3525 0.0
O100 O 0.82687 0.90555 0.37558 0.0
C101 C 0.72695 0.93841 0.43135 0.0
O102 O 0.66513 -0.01671 0.34966 0.0
O103 O 0.6349 0.90377 0.37036 0.0
C104 C -0.01124 0.45233 0.16342 0.0
C105 C -0.00155 0.40132 0.16091 0.0
C106 C 0.9786 0.51251 0.16347 0.0
C107 C 0.96874 0.56349 0.16104 0.0
C108 C 0.45098 0.97857 0.66327 0.0
C109 C 0.39999 0.96853 0.66078 0.0
C110 C 0.51122 -0.01121 0.66329 0.0
C111 C 0.56231 -0.00164 0.66082 0.0
C112 C 0.97869 0.45126 0.85048 0.0
C113 C 0.96897 0.40024 0.85301 0.0
C114 C -0.01147 0.51153 0.8505 0.0
C115 C -0.00213 0.56262 0.85304 0.0
C116 C 0.4524 -0.01126 0.35046 0.0
C117 C 0.40138 -0.00158 0.35302 0.0
C118 C 0.51258 0.97849 0.35042 0.0
C119 C 0.56354 0.96853 0.35291 0.0
C120 C 0.97109 0.23911 0.99165 0.0
C121 C 0.95286 0.23809 0.96476 0.0
C122 C -0.00474 0.23918 0.02253 0.0
C123 C 0.01347 0.23829 0.04942 0.0
C124 C 0.72481 -0.00596 0.52254 0.0
C125 C 0.72582 0.01228 0.54944 0.0
C126 C 0.72471 0.96985 0.49164 0.0
C127 C 0.72562 0.95169 0.46473 0.0
C128 C 0.96906 0.72529 0.02251 0.0
C129 C 0.95117 0.72618 0.04949 0.0
C130 C -0.00696 0.72529 0.99155 0.0
C131 C 0.01122 0.72617 0.96463 0.0
C132 C 0.23896 -0.00629 0.49143 0.0
C133 C 0.23814 0.01215 0.46458 0.0
C134 C 0.23882 0.96936 0.52228 0.0
C135 C 0.2378 0.95112 0.54916 0.0
C136 C 0.18977 0.20829 0.24194 0.0
C137 C 0.16572 0.21701 0.21693 0.0
C138 C 0.20819 0.18981 0.27235 0.0
C139 C 0.21689 0.16568 0.29734 0.0
C140 C 0.77634 0.2076 0.77223 0.0
C141 C 0.80044 0.21633 0.79724 0.0
C142 C 0.75773 0.18907 0.74183 0.0
C143 C 0.74875 0.1649 0.71685 0.0
C144 C 0.75675 0.77472 0.27252 0.0
C145 C 0.74778 0.79902 0.29747 0.0
C146 C 0.77556 0.75612 0.24216 0.0
C147 C 0.7999 0.7474 0.21719 0.0
C148 C 0.20754 0.77528 0.74185 0.0
C149 C 0.21629 0.79929 0.7168 0.0
C150 C 0.18895 0.75689 0.77229 0.0
C151 C 0.1647 0.74815 0.79729 0.0
C152 C -0.01213 0.01241 0.15639 0.0
C153 C -0.00302 0.06371 0.15496 0.0
C154 C 0.97896 0.95198 0.15646 0.0
C155 C 0.96975 0.90069 0.15511 0.0
C156 C 0.01133 0.97579 0.65621 0.0
C157 C 0.06262 0.96686 0.65473 0.0
C158 C 0.95093 -0.01529 0.6563 0.0
C159 C 0.89972 -0.00589 0.65496 0.0
C160 C 0.97646 0.01157 0.85784 0.0
C161 C 0.96771 0.06287 0.85931 0.0
C162 C -0.0149 0.95117 0.85774 0.0
C163 C -0.00573 0.89994 0.85908 0.0
C164 C 0.95199 0.97817 0.35796 0.0
C165 C 0.90069 0.96893 0.35932 0.0
C166 C 0.01242 -0.01282 0.35796 0.0
C167 C 0.06372 -0.0036 0.35932 0.0
loop_
_geom_bond_atom_site_label_1
_geom_bond_atom_site_label_2
_geom_bond_distance
_geom_bond_site_symmetry_2
_ccdc_geom_bond_type
In0 O1 2.294 . S
In0 O2 2.326 . S
In0 O6 2.266 . S
In0 O7 2.326 . S
In0 O8 2.266 1_455 S
In0 O9 2.326 . S
In0 O11 2.294 1_455 S
In0 O12 2.326 . S
O1 In0 2.294 . S
O1 C10 1.240 . S
O2 In0 2.326 . S
O2 C10 1.252 . S
C3 O6 1.252 . S
C3 O7 1.260 . S
C4 O11 1.240 1_455 S
C4 O12 1.252 . S
C5 O8 1.252 1_455 S
C5 O9 1.260 . S
O6 In0 2.266 . S
O6 C3 1.252 . S
O7 In0 2.326 . S
O7 C3 1.260 . S
O8 In0 2.266 1_655 S
O8 C5 1.252 1_655 S
O9 In0 2.326 . S
O9 C5 1.260 . S
C10 O1 1.240 . S
C10 O2 1.252 . S
O11 In0 2.294 1_655 S
O11 C4 1.240 1_655 S
O12 In0 2.326 . S
O12 C4 1.252 . S
In13 O14 2.294 . S
In13 O15 2.326 . S
In13 O19 2.266 . S
In13 O20 2.326 . S
In13 O21 2.266 1_545 S
In13 O22 2.326 . S
In13 O24 2.294 1_545 S
In13 O25 2.326 . S
O14 In13 2.294 . S
O14 C23 1.240 . S
O15 In13 2.326 . S
O15 C23 1.252 . S
C16 O19 1.252 . S
C16 O20 1.260 . S
C17 O24 1.240 1_545 S
C17 O25 1.252 . S
C18 O21 1.252 1_545 S
C18 O22 1.260 . S
O19 In13 2.266 . S
O19 C16 1.252 . S
O20 In13 2.326 . S
O20 C16 1.260 . S
O21 In13 2.266 1_565 S
O21 C18 1.252 1_565 S
O22 In13 2.326 . S
O22 C18 1.260 . S
C23 O14 1.240 . S
C23 O15 1.252 . S
O24 In13 2.294 1_565 S
O24 C17 1.240 1_565 S
O25 In13 2.326 . S
O25 C17 1.252 . S
In26 O27 2.294 . S
In26 O28 2.326 . S
In26 O32 2.266 . S
In26 O33 2.326 . S
In26 O34 2.266 1_655 S
In26 O35 2.326 . S
In26 O37 2.294 1_655 S
In26 O38 2.326 . S
O27 In26 2.294 . S
O27 C36 1.240 . S
O28 In26 2.326 . S
O28 C36 1.252 . S
C29 O32 1.252 . S
C29 O33 1.260 . S
C30 O37 1.240 1_655 S
C30 O38 1.252 . S
C31 O34 1.252 1_655 S
C31 O35 1.260 . S
O32 In26 2.266 . S
O32 C29 1.252 . S
O33 In26 2.326 . S
O33 C29 1.260 . S
O34 In26 2.266 1_455 S
O34 C31 1.252 1_455 S
O35 In26 2.326 . S
O35 C31 1.260 . S
C36 O27 1.240 . S
C36 O28 1.252 . S
O37 In26 2.294 1_455 S
O37 C30 1.240 1_455 S
O38 In26 2.326 . S
O38 C30 1.252 . S
In39 O40 2.294 1_565 S
In39 O41 2.326 . S
In39 O45 2.266 1_565 S
In39 O46 2.326 . S
In39 O47 2.266 . S
In39 O48 2.326 . S
In39 O50 2.294 . S
In39 O51 2.326 . S
O40 In39 2.294 1_545 S
O40 C49 1.240 1_545 S
O41 In39 2.326 . S
O41 C49 1.252 . S
C42 O45 1.252 1_565 S
C42 O46 1.260 . S
C43 O50 1.240 . S
C43 O51 1.252 . S
C44 O47 1.252 . S
C44 O48 1.260 . S
O45 In39 2.266 1_545 S
O45 C42 1.252 1_545 S
O46 In39 2.326 . S
O46 C42 1.260 . S
O47 In39 2.266 . S
O47 C44 1.252 . S
O48 In39 2.326 . S
O48 C44 1.260 . S
C49 O40 1.240 1_565 S
C49 O41 1.252 . S
O50 In39 2.294 . S
O50 C43 1.240 . S
O51 In39 2.326 . S
O51 C43 1.252 . S
In52 O53 2.294 . S
In52 O54 2.326 . S
In52 O58 2.266 . S
In52 O59 2.326 . S
In52 O60 2.266 1_455 S
In52 O61 2.326 . S
In52 O63 2.294 1_455 S
In52 O64 2.326 . S
O53 In52 2.294 . S
O53 C62 1.240 . S
O54 In52 2.326 . S
O54 C62 1.252 . S
C55 O58 1.252 . S
C55 O59 1.260 . S
C56 O63 1.240 1_455 S
C56 O64 1.252 . S
C57 O60 1.252 1_455 S
C57 O61 1.260 . S
O58 In52 2.266 . S
O58 C55 1.252 . S
O59 In52 2.326 . S
O59 C55 1.260 . S
O60 In52 2.266 1_655 S
O60 C57 1.252 1_655 S
O61 In52 2.326 . S
O61 C57 1.260 . S
C62 O53 1.240 . S
C62 O54 1.252 . S
O63 In52 2.294 1_655 S
O63 C56 1.240 1_655 S
O64 In52 2.326 . S
O64 C56 1.252 . S
In65 O66 2.294 . S
In65 O67 2.326 . S
In65 O71 2.266 . S
In65 O72 2.326 . S
In65 O73 2.266 1_545 S
In65 O74 2.326 . S
In65 O76 2.294 1_545 S
In65 O77 2.326 . S
O66 In65 2.294 . S
O66 C75 1.240 . S
O67 In65 2.326 . S
O67 C75 1.252 . S
C68 O71 1.252 . S
C68 O72 1.260 . S
C69 O76 1.240 1_545 S
C69 O77 1.252 . S
C70 O73 1.252 1_545 S
C70 O74 1.260 . S
O71 In65 2.266 . S
O71 C68 1.252 . S
O72 In65 2.326 . S
O72 C68 1.260 . S
O73 In65 2.266 1_565 S
O73 C70 1.252 1_565 S
O74 In65 2.326 . S
O74 C70 1.260 . S
C75 O66 1.240 . S
C75 O67 1.252 . S
O76 In65 2.294 1_565 S
O76 C69 1.240 1_565 S
O77 In65 2.326 . S
O77 C69 1.252 . S
In78 O79 2.294 . S
In78 O80 2.326 . S
In78 O84 2.266 . S
In78 O85 2.326 . S
In78 O86 2.266 1_655 S
In78 O87 2.326 . S
In78 O89 2.294 1_655 S
In78 O90 2.326 . S
O79 In78 2.294 . S
O79 C88 1.240 . S
O80 In78 2.326 . S
O80 C88 1.252 . S
C81 O84 1.252 . S
C81 O85 1.260 . S
C82 O89 1.240 1_655 S
C82 O90 1.252 . S
C83 O86 1.252 1_655 S
C83 O87 1.260 . S
O84 In78 2.266 . S
O84 C81 1.252 . S
O85 In78 2.326 . S
O85 C81 1.260 . S
O86 In78 2.266 1_455 S
O86 C83 1.252 1_455 S
O87 In78 2.326 . S
O87 C83 1.260 . S
C88 O79 1.240 . S
C88 O80 1.252 . S
O89 In78 2.294 1_455 S
O89 C82 1.240 1_455 S
O90 In78 2.326 . S
O90 C82 1.252 . S
In91 O92 2.294 . S
In91 O93 2.326 . S
In91 O97 2.266 . S
In91 O98 2.326 . S
In91 O99 2.266 1_565 S
In91 O100 2.326 . S
In91 O102 2.294 1_565 S
In91 O103 2.326 . S
O92 In91 2.294 . S
O92 C101 1.240 . S
O93 In91 2.326 . S
O93 C101 1.252 . S
C94 O97 1.252 . S
C94 O98 1.260 . S
C95 O102 1.240 1_565 S
C95 O103 1.252 . S
C96 O99 1.252 1_565 S
C96 O100 1.260 . S
O97 In91 2.266 . S
O97 C94 1.252 . S
O98 In91 2.326 . S
O98 C94 1.260 . S
O99 In91 2.266 1_545 S
O99 C96 1.252 1_545 S
O100 In91 2.326 . S
O100 C96 1.260 . S
C101 O92 1.240 . S
C101 O93 1.252 . S
O102 In91 2.294 1_545 S
O102 C95 1.240 1_545 S
O103 In91 2.326 . S
O103 C95 1.252 . S
C104 C105 1.170 . S
C104 C106 1.380 1_455 S
C105 C104 1.170 . S
C106 C104 1.380 1_655 S
C106 C107 1.171 . S
C107 C106 1.171 . S
C108 C109 1.171 . S
C108 C110 1.380 1_565 S
C109 C108 1.171 . S
C110 C108 1.380 1_545 S
C110 C111 1.170 . S
C111 C110 1.170 . S
C112 C113 1.170 . S
C112 C114 1.380 1_655 S
C113 C112 1.170 . S
C114 C112 1.380 1_455 S
C114 C115 1.170 . S
C115 C114 1.170 . S
C116 C117 1.170 . S
C116 C118 1.381 . S
C117 C116 1.170 . S
C118 C116 1.381 . S
C118 C119 1.170 1_545 S
C119 C118 1.170 1_565 S
C120 C121 1.170 . S
C120 C122 1.380 1_656 S
C121 C120 1.170 . S
C122 C120 1.380 1_454 S
C122 C123 1.170 . S
C123 C122 1.170 . S
C124 C125 1.170 . S
C124 C126 1.380 1_545 S
C125 C124 1.170 . S
C126 C124 1.380 1_565 S
C126 C127 1.170 . S
C127 C126 1.170 . S
C128 C129 1.170 . S
C128 C130 1.380 1_654 S
C129 C128 1.170 . S
C130 C128 1.380 1_456 S
C130 C131 1.170 . S
C131 C130 1.170 . S
C132 C133 1.170 . S
C132 C134 1.380 1_545 S
C133 C132 1.170 . S
C134 C132 1.380 1_565 S
C134 C135 1.170 . S
C135 C134 1.170 . S
C136 C137 1.170 . S
C136 C138 1.380 . S
C137 C136 1.170 . S
C138 C136 1.380 . S
C138 C139 1.170 . S
C139 C138 1.170 . S
C140 C141 1.170 . S
C140 C142 1.380 . S
C141 C140 1.170 . S
C142 C140 1.380 . S
C142 C143 1.170 . S
C143 C142 1.170 . S
C144 C145 1.170 . S
C144 C146 1.380 . S
C145 C144 1.170 . S
C146 C144 1.380 . S
C146 C147 1.170 . S
C147 C146 1.170 . S
C148 C149 1.170 . S
C148 C150 1.380 . S
C149 C148 1.170 . S
C150 C148 1.380 . S
C150 C151 1.170 . S
C151 C150 1.170 . S
C152 C153 1.170 . S
C152 C154 1.380 1_545 S
C153 C152 1.170 . S
C154 C152 1.380 1_565 S
C154 C155 1.170 1_455 S
C155 C154 1.170 1_655 S
C156 C157 1.170 . S
C156 C158 1.380 1_455 S
C157 C156 1.170 . S
C158 C156 1.380 1_655 S
C158 C159 1.170 1_565 S
C159 C158 1.170 1_545 S
C160 C161 1.170 . S
C160 C162 1.380 1_545 S
C161 C160 1.170 . S
C162 C160 1.380 1_565 S
C162 C163 1.170 1_655 S
C163 C162 1.170 1_455 S
C164 C165 1.168 1_545 S
C164 C166 1.382 1_655 S
C165 C164 1.168 1_565 S
C166 C164 1.382 1_455 S
C166 C167 1.170 . S
C167 C166 1.170 . S
C105 C4 1.365 . S
C107 C30 1.380 . S
C109 C49 1.376 . S
C111 C17 1.362 . S
C113 C82 1.379 . S
C115 C56 1.368 . S
C117 C69 1.363 . S
C119 C95 1.379 . S
C121 C88 1.632 . S
C123 C10 1.668 . S
C125 C23 1.658 . S
C127 C101 1.650 . S
C129 C36 1.666 . S
C131 C62 1.624 . S
C133 C75 1.622 . S
C135 C43 1.653 . S
C137 C3 1.458 . S
C139 C68 1.457 . S
C141 C81 1.434 . S
C143 C16 1.447 . S
C145 C94 1.465 . S
C147 C29 1.447 . S
C149 C44 1.462 . S
C151 C55 1.431 . S
C153 C5 1.243 . S
C155 C31 1.266 . S
C157 C42 1.238 . S
C159 C18 1.265 . S
C161 C83 1.240 . S
C163 C57 1.265 . S
C165 C96 1.247 . S
C167 C70 1.231 . S
