# Generated by pormake.
# Topology qzd, (4)-cn, num edge types: 1
# Building blocks:
#     Node 0, Type 0, BuildingBlock: NAWXER_clean_sbu_0, # of connection points: 4
#     Node 1, Type 0, BuildingBlock: NAWXER_clean_sbu_0, # of connection points: 4
#     Node 2, Type 0, BuildingBlock: NAWXER_clean_sbu_0, # of connection points: 4
#     Edge 3, Type (0, 0), BuildingBlock: EZIPEK_clean_linker_0, # of connection points: 2
#     Edge 4, Type (0, 0), BuildingBlock: EZIPEK_clean_linker_0, # of connection points: 2
#     Edge 5, Type (0, 0), BuildingBlock: EZIPEK_clean_linker_0, # of connection points: 2
#     Edge 6, Type (0, 0), BuildingBlock: EZIPEK_clean_linker_0, # of connection points: 2
#     Edge 7, Type (0, 0), BuildingBlock: EZIPEK_clean_linker_0, # of connection points: 2
#     Edge 8, Type (0, 0), BuildingBlock: EZIPEK_clean_linker_0, # of connection points: 2
# Relax obj value: 0.000
# Max RMSD: 0.038
# Mean RMSD: 0.038
data_MOF--net-qzd--node1-NAWXER_clean_sbu_0--edge1-EZIPEK_clean_linker_0
_symmetry_space_group_name_H-M    P1
_symmetry_Int_Tables_number       1
_symmetry_cell_setting            triclinic
loop_
_symmetry_equiv_pos_as_xyz
'x, y, z'
_cell_length_a     10.630966
_cell_length_b     10.645001
_cell_length_c     31.742117
_cell_angle_alpha  93.619983
_cell_angle_beta   94.362305
_cell_angle_gamma 119.98658
loop_
_atom_site_label
_atom_site_type_symbol
_atom_site_fract_x
_atom_site_fract_y
_atom_site_fract_z
_atom_type_partial_charge
C0 C 0.13816 0.77853 0.02544 0.0
C1 C 0.67414 0.76952 0.01926 0.0
O2 O 1.00976 0.66787 0.02098 0.0
Zn3 Zn 0.90546 0.77296 0.02214 0.0
O4 O 0.1566 0.90743 0.03051 0.0
Zn5 Zn 1.01949 1.00238 0.03475 0.0
O6 O 0.07415 0.09591 0.0923 0.0
O7 O 0.9402 0.85627 0.08852 0.0
O8 O 0.78483 0.89891 0.02817 0.0
O9 O 0.69324 0.66192 1.0118 0.0
O10 O 0.96713 0.89028 0.96688 0.0
O11 O 0.06599 0.12398 0.98917 0.0
C12 C 1.0069 0.98184 0.11077 0.0
C13 C 1.02541 0.02334 0.95871 0.0
C14 C 0.08266 0.10889 0.44834 0.0
C15 C 1.00401 0.06671 0.29354 0.0
O16 O 1.01433 0.17287 0.43537 0.0
Zn17 Zn 0.93354 0.20573 0.375 0.0
O18 O 0.12288 0.04593 0.42178 0.0
Zn19 Zn 0.04754 0.09057 0.37147 0.0
O20 O 0.18371 0.32218 0.37486 0.0
O21 O 0.04004 0.41622 0.37514 0.0
O22 O 0.07901 0.02896 0.31688 0.0
O23 O 0.94131 0.12849 0.31129 0.0
O24 O 0.72569 0.10719 0.37805 0.0
O25 O 0.81437 0.95852 0.37235 0.0
C26 C 0.16723 0.43342 0.37531 0.0
C27 C 0.706 0.97878 0.37547 0.0
C28 C 0.11756 0.1352 0.78321 0.0
C29 C 0.17197 0.14932 0.63151 0.0
O30 O 1.01626 0.09006 0.75228 0.0
Zn31 Zn 0.14114 0.14925 0.70758 0.0
O32 O 0.25172 0.20194 0.77602 0.0
Zn33 Zn 0.37239 0.26622 0.72203 0.0
O34 O 0.47375 0.47861 0.72842 0.0
O35 O 0.23456 0.37946 0.71575 0.0
O36 O 0.29506 0.20888 0.65518 0.0
O37 O 0.05469 0.10029 0.64879 0.0
O38 O 0.24452 0.01925 0.71278 0.0
O39 O 0.48391 0.16974 0.72858 0.0
C40 C 0.36233 0.49306 0.72264 0.0
C41 C 0.37423 0.0406 0.72122 0.0
C42 C 0.42661 0.70729 0.98396 0.0
C43 C 0.52591 0.74759 0.02148 0.0
C44 C 0.37012 0.80584 0.06172 0.0
C45 C 0.26756 0.76047 0.02457 0.0
N46 N 0.18692 0.64889 0.95161 0.0
N47 N 0.5769 0.80117 0.09775 0.0
C48 C 0.29181 0.70413 0.98617 0.0
C49 C 0.49281 0.78656 0.06089 0.0
N50 N 0.46492 0.68062 0.94576 0.0
N51 N 0.35229 0.8704 0.09759 0.0
H52 H 0.66507 0.78361 0.0983 0.0
H53 H 0.55102 0.81583 0.12797 0.0
H54 H 0.26173 0.88237 0.10013 0.0
H55 H 0.43219 0.92182 0.12381 0.0
H56 H 0.41078 0.67768 0.91665 0.0
H57 H 0.55697 0.67108 0.94315 0.0
H58 H 0.19079 0.59047 0.92463 0.0
H59 H 0.09113 0.65353 0.95069 0.0
C60 C 0.49965 0.74756 0.33697 0.0
C61 C 0.55776 0.84993 0.37394 0.0
C62 C 0.34522 0.69004 0.40915 0.0
C63 C 0.29701 0.57997 0.37409 0.0
N64 N 0.33874 0.49735 0.30651 0.0
N65 N 0.54612 0.91618 0.44695 0.0
C66 C 0.37705 0.60692 0.3385 0.0
C67 C 0.4824 0.82165 0.41038 0.0
N68 N 0.5597 0.78653 0.29993 0.0
N69 N 0.26177 0.66775 0.44168 0.0
H70 H 0.64595 1.01366 0.449 0.0
H71 H 0.50577 0.89383 0.47611 0.0
H72 H 0.16651 0.5692 0.44366 0.0
H73 H 0.28196 0.74974 0.4655 0.0
H74 H 0.51301 0.72252 0.27068 0.0
H75 H 0.64842 0.88974 0.2975 0.0
H76 H 0.40369 0.50573 0.28266 0.0
H77 H 0.24772 0.39345 0.30533 0.0
C78 C 0.3499 0.81758 0.68283 0.0
C79 C 0.39304 0.91218 0.72109 0.0
C80 C 0.43703 0.74166 0.75931 0.0
C81 C 0.37793 0.63963 0.72195 0.0
N82 N 0.25353 0.57167 0.64986 0.0
N83 N 0.46243 0.96083 0.79696 0.0
C84 C 0.32751 0.67505 0.68416 0.0
C85 C 0.43427 0.8743 0.75966 0.0
N86 N 0.33311 0.86543 0.64495 0.0
N87 N 0.49229 0.71044 0.7948 0.0
H88 H 0.46309 0.05929 0.79834 0.0
H89 H 0.47509 0.93111 0.8269 0.0
H90 H 0.4881 0.61119 0.797 0.0
H91 H 0.54914 0.78607 0.82146 0.0
H92 H 0.31696 0.80736 0.61545 0.0
H93 H 0.35021 0.97013 0.64279 0.0
H94 H 0.19955 0.58692 0.62366 0.0
H95 H 0.234 0.46562 0.64878 0.0
C96 C 0.98592 0.13912 0.21907 0.0
C97 C 0.98876 0.03817 0.24612 0.0
C98 C 1.00629 0.89959 0.18427 0.0
C99 C 0.99381 0.99495 0.15708 0.0
N100 N 0.91213 0.16781 0.14821 0.0
N101 N 0.94354 0.79294 0.24993 0.0
C102 C 0.96564 0.10343 0.17431 0.0
C103 C 0.98158 0.90944 0.2274 0.0
N104 N 1.00816 0.27173 0.23521 0.0
N105 N 0.04612 0.80252 0.16983 0.0
H106 H 0.9113 0.79003 0.28024 0.0
H107 H 0.92503 0.69246 0.23636 0.0
H108 H 0.06742 0.79152 0.13881 0.0
H109 H 0.07133 0.74238 0.18996 0.0
H110 H 1.02321 0.35301 0.21603 0.0
H111 H 1.0257 0.30783 0.26739 0.0
H112 H 0.87723 0.23765 0.15978 0.0
H113 H 0.88443 0.137 0.11548 0.0
C114 C 0.25658 0.25561 0.56244 0.0
C115 C 0.16557 0.13441 0.58418 0.0
C116 C 1.02622 0.99277 0.51588 0.0
C117 C 0.11742 0.11271 0.49448 0.0
N118 N 0.33806 0.3444 0.49531 0.0
N119 N 0.99813 0.87469 0.58005 0.0
C120 C 0.23857 0.23973 0.51717 0.0
C121 C 0.06031 0.99899 0.5604 0.0
N122 N 0.35571 0.38812 0.58454 0.0
N123 N 0.90451 0.87449 0.49391 0.0
H124 H 0.0272 0.87327 0.61209 0.0
H125 H 0.93091 0.77078 0.56368 0.0
H126 H 0.87799 0.86448 0.46106 0.0
H127 H 0.82446 0.79149 0.50866 0.0
H128 H 0.4069 0.48431 0.5704 0.0
H129 H 0.38265 0.40606 0.61732 0.0
H130 H 0.43799 0.43157 0.50963 0.0
H131 H 0.3268 0.33743 0.46216 0.0
C132 C 0.97206 0.97256 0.83735 0.0
C133 C 0.08376 0.11003 0.8277 0.0
C134 C 0.167 0.18687 0.90392 0.0
C135 C 0.04349 0.05756 0.91376 0.0
N136 N 0.80484 0.84933 0.88794 0.0
N137 N 0.258 0.36265 0.85324 0.0
C138 C 0.93859 0.9569 0.87987 0.0
C139 C 0.17187 0.22194 0.86145 0.0
N140 N 0.90228 0.85485 0.80682 0.0
N141 N 0.28432 0.27203 0.93398 0.0
H142 H 0.25703 0.39519 0.82296 0.0
H143 H 0.3163 0.44914 0.87727 0.0
H144 H 0.29382 0.24442 0.96447 0.0
H145 H 0.38088 0.36028 0.9268 0.0
H146 H 0.82971 0.74978 0.81364 0.0
H147 H 0.92893 0.85763 0.77587 0.0
H148 H 0.72384 0.77447 0.86426 0.0
H149 H 0.76831 0.84624 0.91758 0.0
loop_
_geom_bond_atom_site_label_1
_geom_bond_atom_site_label_2
_geom_bond_distance
_geom_bond_site_symmetry_2
_ccdc_geom_bond_type
C0 O2 1.249 . S
C0 O4 1.255 1_565 S
C1 O8 1.250 . S
C1 O9 1.253 1_545 S
O2 C0 1.249 . S
O2 Zn3 2.028 1_455 S
Zn3 O2 2.028 1_655 S
Zn3 O7 2.035 . S
Zn3 O9 2.035 . S
Zn3 O10 2.028 1_554 S
O4 C0 1.255 1_545 S
O4 Zn5 2.035 . S
Zn5 O4 2.035 . S
Zn5 O6 2.028 . S
Zn5 O8 2.028 1_455 S
Zn5 O11 2.035 1_554 S
O6 Zn5 2.028 . S
O6 C12 1.250 . S
O7 Zn3 2.035 . S
O7 C12 1.255 1_665 S
O8 C1 1.250 . S
O8 Zn5 2.028 1_655 S
O9 C1 1.253 1_565 S
O9 Zn3 2.035 . S
O10 Zn3 2.028 1_556 S
O10 C13 1.248 1_655 S
O11 Zn5 2.035 1_556 S
O11 C13 1.257 1_545 S
C12 O6 1.250 . S
C12 O7 1.255 1_445 S
C13 O10 1.248 1_455 S
C13 O11 1.257 1_565 S
C14 O16 1.247 1_455 S
C14 O18 1.258 . S
C15 O22 1.247 1_655 S
C15 O23 1.258 . S
O16 C14 1.247 1_655 S
O16 Zn17 2.028 . S
Zn17 O16 2.028 . S
Zn17 O21 2.035 1_655 S
Zn17 O23 2.035 . S
Zn17 O24 2.028 1_545 S
O18 C14 1.258 . S
O18 Zn19 2.035 . S
Zn19 O18 2.035 . S
Zn19 O20 2.028 . S
Zn19 O22 2.028 . S
Zn19 O25 2.035 1_445 S
O20 Zn19 2.028 . S
O20 C26 1.247 . S
O21 Zn17 2.035 1_455 S
O21 C26 1.258 . S
O22 C15 1.247 1_455 S
O22 Zn19 2.028 . S
O23 C15 1.258 . S
O23 Zn17 2.035 . S
O24 Zn17 2.028 1_565 S
O24 C27 1.247 . S
O25 Zn19 2.035 1_665 S
O25 C27 1.258 . S
C26 O20 1.247 . S
C26 O21 1.258 . S
C27 O24 1.247 . S
C27 O25 1.258 . S
C28 O30 1.247 1_455 S
C28 O32 1.258 . S
C29 O36 1.247 . S
C29 O37 1.258 1_455 S
O30 C28 1.247 1_655 S
O30 Zn31 2.028 . S
Zn31 O30 2.028 . S
Zn31 O35 2.035 . S
Zn31 O37 2.035 . S
Zn31 O38 2.028 1_545 S
O32 C28 1.258 . S
O32 Zn33 2.035 . S
Zn33 O32 2.035 . S
Zn33 O34 2.028 . S
Zn33 O36 2.028 . S
Zn33 O39 2.035 1_545 S
O34 Zn33 2.028 . S
O34 C40 1.247 . S
O35 Zn31 2.035 . S
O35 C40 1.258 1_655 S
O36 C29 1.247 . S
O36 Zn33 2.028 . S
O37 C29 1.258 1_655 S
O37 Zn31 2.035 . S
O38 Zn31 2.028 1_565 S
O38 C41 1.247 1_655 S
O39 Zn33 2.035 1_565 S
O39 C41 1.258 . S
C40 O34 1.247 . S
C40 O35 1.258 1_455 S
C41 O38 1.247 1_455 S
C41 O39 1.258 . S
C42 C43 1.361 1_566 S
C42 C48 1.379 . S
C42 N50 1.359 . S
C43 C42 1.361 1_544 S
C43 C49 1.363 . S
C44 C45 1.363 . S
C44 C49 1.379 . S
C44 N51 1.356 . S
C45 C44 1.363 . S
C45 C48 1.359 1_544 S
N46 C48 1.358 . S
N46 H58 0.984 . S
N46 H59 0.985 . S
N47 C49 1.356 . S
N47 H52 0.984 . S
N47 H53 0.985 . S
C48 C42 1.379 . S
C48 C45 1.359 1_566 S
C48 N46 1.358 . S
C49 C43 1.363 . S
C49 C44 1.379 . S
C49 N47 1.356 . S
N50 C42 1.359 . S
N50 H56 0.984 . S
N50 H57 0.984 . S
N51 C44 1.356 . S
N51 H54 0.984 . S
N51 H55 0.985 . S
H52 N47 0.984 . S
H53 N47 0.985 . S
H54 N51 0.984 . S
H55 N51 0.985 . S
H56 N50 0.984 . S
H57 N50 0.984 . S
H58 N46 0.984 . S
H59 N46 0.985 . S
C60 C61 1.363 . S
C60 C66 1.379 . S
C60 N68 1.356 . S
C61 C60 1.363 . S
C61 C67 1.363 . S
C62 C63 1.363 . S
C62 C67 1.379 . S
C62 N69 1.356 . S
C63 C62 1.363 . S
C63 C66 1.363 . S
N64 C66 1.356 . S
N64 H76 0.984 . S
N64 H77 0.985 . S
N65 C67 1.356 . S
N65 H70 0.984 . S
N65 H71 0.985 . S
C66 C60 1.379 . S
C66 C63 1.363 . S
C66 N64 1.356 . S
C67 C61 1.363 . S
C67 C62 1.379 . S
C67 N65 1.356 . S
N68 C60 1.356 . S
N68 H74 0.984 . S
N68 H75 0.984 . S
N69 C62 1.356 . S
N69 H72 0.984 . S
N69 H73 0.985 . S
H70 N65 0.984 . S
H71 N65 0.985 . S
H72 N69 0.984 . S
H73 N69 0.985 . S
H74 N68 0.984 . S
H75 N68 0.984 . S
H76 N64 0.984 . S
H77 N64 0.985 . S
C78 C79 1.363 1_655 S
C78 C84 1.379 . S
C78 N86 1.356 . S
C79 C78 1.363 1_455 S
C79 C85 1.363 . S
C80 C81 1.363 . S
C80 C85 1.379 . S
C80 N87 1.356 . S
C81 C80 1.363 . S
C81 C84 1.363 1_455 S
N82 C84 1.356 . S
N82 H94 0.984 . S
N82 H95 0.985 . S
N83 C85 1.356 . S
N83 H88 0.984 . S
N83 H89 0.985 . S
C84 C78 1.379 . S
C84 C81 1.363 1_655 S
C84 N82 1.356 . S
C85 C79 1.363 . S
C85 C80 1.379 . S
C85 N83 1.356 . S
N86 C78 1.356 . S
N86 H92 0.984 . S
N86 H93 0.984 . S
N87 C80 1.356 . S
N87 H90 0.984 . S
N87 H91 0.985 . S
H88 N83 0.984 . S
H89 N83 0.985 . S
H90 N87 0.984 . S
H91 N87 0.985 . S
H92 N86 0.984 . S
H93 N86 0.984 . S
H94 N82 0.984 . S
H95 N82 0.985 . S
C96 C97 1.363 . S
C96 C102 1.379 . S
C96 N104 1.356 . S
C97 C96 1.363 . S
C97 C103 1.363 1_645 S
C98 C99 1.363 1_465 S
C98 C103 1.379 . S
C98 N105 1.356 . S
C99 C98 1.363 1_645 S
C99 C102 1.363 . S
N100 C102 1.356 . S
N100 H112 0.984 . S
N100 H113 0.985 . S
N101 C103 1.356 . S
N101 H106 0.984 . S
N101 H107 0.985 . S
C102 C96 1.379 . S
C102 C99 1.363 . S
C102 N100 1.356 . S
C103 C97 1.363 1_465 S
C103 C98 1.379 . S
C103 N101 1.356 . S
N104 C96 1.356 . S
N104 H110 0.984 . S
N104 H111 0.984 . S
N105 C98 1.356 . S
N105 H108 0.984 . S
N105 H109 0.985 . S
H106 N101 0.984 . S
H107 N101 0.985 . S
H108 N105 0.984 . S
H109 N105 0.985 . S
H110 N104 0.984 . S
H111 N104 0.984 . S
H112 N100 0.984 . S
H113 N100 0.985 . S
C114 C115 1.363 . S
C114 C120 1.379 . S
C114 N122 1.356 . S
C115 C114 1.363 . S
C115 C121 1.363 . S
C116 C117 1.363 . S
C116 C121 1.379 . S
C116 N123 1.356 1_545 S
C117 C116 1.363 . S
C117 C120 1.363 . S
N118 C120 1.356 . S
N118 H130 0.984 . S
N118 H131 0.985 . S
N119 C121 1.356 1_565 S
N119 H124 0.984 . S
N119 H125 0.985 . S
C120 C114 1.379 . S
C120 C117 1.363 . S
C120 N118 1.356 . S
C121 C115 1.363 . S
C121 C116 1.379 . S
C121 N119 1.356 1_545 S
N122 C114 1.356 . S
N122 H128 0.984 . S
N122 H129 0.984 . S
N123 C116 1.356 1_565 S
N123 H126 0.984 . S
N123 H127 0.985 . S
H124 N119 0.984 . S
H125 N119 0.985 . S
H126 N123 0.984 . S
H127 N123 0.985 . S
H128 N122 0.984 . S
H129 N122 0.984 . S
H130 N118 0.984 . S
H131 N118 0.985 . S
C132 C133 1.363 1_665 S
C132 C138 1.379 . S
C132 N140 1.356 . S
C133 C132 1.363 1_445 S
C133 C139 1.363 . S
C134 C135 1.363 . S
C134 C139 1.379 . S
C134 N141 1.356 . S
C135 C134 1.363 . S
C135 C138 1.363 1_445 S
N136 C138 1.356 . S
N136 H148 0.984 . S
N136 H149 0.985 . S
N137 C139 1.356 . S
N137 H142 0.984 . S
N137 H143 0.985 . S
C138 C132 1.379 . S
C138 C135 1.363 1_665 S
C138 N136 1.356 . S
C139 C133 1.363 . S
C139 C134 1.379 . S
C139 N137 1.356 . S
N140 C132 1.356 . S
N140 H146 0.984 . S
N140 H147 0.984 . S
N141 C134 1.356 . S
N141 H144 0.984 . S
N141 H145 0.985 . S
H142 N137 0.984 . S
H143 N137 0.985 . S
H144 N141 0.984 . S
H145 N141 0.985 . S
H146 N140 0.984 . S
H147 N140 0.984 . S
H148 N136 0.984 . S
H149 N136 0.985 . S
C43 C1 1.501 . S
C45 C0 1.500 1_545 S
C61 C27 1.499 . S
C63 C26 1.499 . S
C79 C41 1.498 . S
C81 C40 1.498 . S
C97 C15 1.521 . S
C99 C12 1.525 1_655 S
C115 C29 1.525 . S
C117 C14 1.522 . S
C133 C28 1.525 . S
C135 C13 1.526 1_545 S
