# Generated by pormake.
# Topology hex, (8)-cn, num edge types: 1
# Building blocks:
#     Node 0, Type 0, BuildingBlock: AJUNOK_clean_sbu_0, # of connection points: 8
#     Edge 1, Type (0, 0), BuildingBlock: KIFKEQ_clean_linker_1, # of connection points: 2
#     Edge 2, Type (0, 0), BuildingBlock: KIFKEQ_clean_linker_1, # of connection points: 2
#     Edge 3, Type (0, 0), BuildingBlock: KIFKEQ_clean_linker_1, # of connection points: 2
#     Edge 4, Type (0, 0), BuildingBlock: KIFKEQ_clean_linker_1, # of connection points: 2
# Relax obj value: 0.045
# Max RMSD: 0.091
# Mean RMSD: 0.091
data_MOF--net-hex--node1-AJUNOK_clean_sbu_0--edge1-KIFKEQ_clean_linker_1
_symmetry_space_group_name_H-M    P1
_symmetry_Int_Tables_number       1
_symmetry_cell_setting            triclinic
loop_
_symmetry_equiv_pos_as_xyz
'x, y, z'
_cell_length_a     21.497666
_cell_length_b     21.354803
_cell_length_c     15.601098
_cell_angle_alpha  91.099626
_cell_angle_beta   90.202887
_cell_angle_gamma 125.22301
loop_
_atom_site_label
_atom_site_type_symbol
_atom_site_fract_x
_atom_site_fract_y
_atom_site_fract_z
_atom_type_partial_charge
Cd0 Cd 0.08905 0.05891 0.98255 0.0
Cd1 Cd 0.86953 0.84433 0.97818 0.0
C2 C -0.00362 0.11634 0.06889 0.0
N3 N 0.00467 0.09351 -0.00957 0.0
C4 C 0.95593 0.1563 0.92159 0.0
C5 C 0.95165 0.18506 0.00151 0.0
C6 C 0.96901 0.16161 0.07598 0.0
C7 C -0.0164 0.11097 0.91742 0.0
H8 H 0.01626 0.10423 0.12567 0.0
H9 H -0.00618 0.09484 0.85572 0.0
C10 C -0.01547 0.93749 0.80181 0.0
C11 C 0.94648 0.75387 0.92486 0.0
C12 C 0.95606 0.69443 0.9283 0.0
C13 C 0.92695 0.64439 -0.00231 0.0
C14 C 0.89179 0.65812 0.06396 0.0
C15 C 0.88389 0.71831 0.05816 0.0
N16 N 0.90979 0.76377 -0.01126 0.0
H17 H 0.96579 0.79007 0.86971 0.0
H18 H 0.85387 0.72667 0.10739 0.0
C19 C 0.81394 0.9432 0.90886 0.0
N20 N 0.84016 0.93334 0.9831 0.0
C21 C 0.78727 -0.01266 0.06466 0.0
C22 C 0.75432 -0.00715 -0.01037 0.0
C23 C 0.77103 -0.02666 0.91057 0.0
C24 C 0.82902 0.95596 0.06009 0.0
H25 H 0.82091 0.92175 0.84894 0.0
H26 H 0.84807 0.94503 0.1185 0.0
C27 C -0.00726 0.94383 0.15833 0.0
C28 C 0.21163 0.21562 0.97699 0.0
N29 N 0.17049 0.01943 0.97787 0.0
C30 C 0.18238 -0.01161 0.0459 0.0
C31 C 0.24312 -0.01874 0.04607 0.0
C32 C 0.29252 0.0073 0.97615 0.0
C33 C 0.27671 0.03596 0.90541 0.0
C34 C 0.21509 0.04144 0.90763 0.0
C35 C 0.71321 0.72148 0.97794 0.0
O36 O 0.03798 -0.00495 0.84447 0.0
O37 O 0.92551 0.88298 0.83791 0.0
O38 O 0.93379 0.89241 0.11605 0.0
O39 O 0.04881 0.00159 0.12217 0.0
O40 O 0.18143 0.17518 0.90903 0.0
O41 O 0.18524 0.18274 0.04772 0.0
O42 O 0.75097 0.75186 0.04711 0.0
O43 O 0.74851 0.74807 0.90843 0.0
H44 H 0.14731 -0.02746 0.10183 0.0
H45 H 0.20494 0.06673 0.85482 0.0
H46 H 0.94411 0.17373 0.86254 0.0
H47 H 0.96585 0.18188 0.13887 0.0
H48 H -0.01541 0.68687 0.87634 0.0
H49 H 0.86739 0.62069 0.11808 0.0
H50 H 0.77724 0.00289 0.12692 0.0
H51 H 0.74612 -0.02484 0.85109 0.0
H52 H 0.25363 -0.04065 0.1022 0.0
H53 H 0.31273 0.05572 0.84977 0.0
H54 H 0.03094 0.31552 0.10078 0.0
H55 H 0.84927 0.19753 0.91106 0.0
H56 H 0.02262 0.42397 0.10068 0.0
H57 H 0.83968 0.30628 0.91197 0.0
H58 H 0.9081 0.54987 0.86296 0.0
H59 H 0.9097 0.43684 0.86654 0.0
H60 H 0.9475 0.46773 0.14095 0.0
H61 H 0.95047 0.58312 0.13667 0.0
C62 C -0.01224 0.31188 0.06051 0.0
C63 C 0.94022 0.24741 0.00647 0.0
C64 C -0.01692 0.37438 0.06034 0.0
C65 C 0.93047 0.37417 0.00637 0.0
C66 C 0.88169 0.30897 0.95344 0.0
C67 C 0.88676 0.24641 0.95324 0.0
C68 C 0.91805 0.53336 0.9239 0.0
C69 C 0.92963 0.57617 -0.00055 0.0
C70 C 0.9176 0.46761 0.92616 0.0
C71 C 0.92844 0.44276 0.00407 0.0
C72 C 0.93979 0.48547 0.07959 0.0
C73 C 0.9407 0.55139 0.07727 0.0
H74 H 0.64677 0.94715 0.11303 0.0
H75 H 0.72411 0.06995 0.87607 0.0
H76 H 0.53993 0.95684 0.11304 0.0
H77 H 0.61412 0.07554 0.87357 0.0
H78 H 0.43627 0.12332 0.92949 0.0
H79 H 0.55203 0.12774 0.93765 0.0
H80 H 0.42245 0.89864 0.03675 0.0
H81 H 0.30717 0.89514 0.03017 0.0
C82 C 0.64198 -0.02255 0.0615 0.0
C83 C 0.69463 0.00783 -0.0055 0.0
C84 C 0.57953 -0.01835 0.06072 0.0
C85 C 0.56736 0.01571 -0.00744 0.0
C86 C 0.62161 0.04901 0.92731 0.0
C87 C 0.68451 0.04523 0.92835 0.0
C88 C 0.43248 0.07367 0.95238 0.0
C89 C 0.36247 0.00872 0.97896 0.0
C90 C 0.49891 0.07622 0.9571 0.0
C91 C 0.49692 0.01372 -0.01184 0.0
C92 C 0.42663 0.94856 0.0142 0.0
C93 C 0.36035 0.94626 0.01005 0.0
H94 H 0.26185 0.32528 0.10281 0.0
H95 H 0.30671 0.28754 0.84418 0.0
H96 H 0.3753 0.45687 0.10151 0.0
H97 H 0.42198 0.41732 0.84406 0.0
H98 H 0.61007 0.66526 0.84562 0.0
H99 H 0.47948 0.55052 0.8443 0.0
H100 H 0.50716 0.51428 0.10965 0.0
H101 H 0.63571 0.63054 0.11176 0.0
C102 C 0.29609 0.34533 0.04573 0.0
C103 C 0.27636 0.29639 0.97397 0.0
C104 C 0.3611 0.42047 0.045 0.0
C105 C 0.40823 0.44741 0.97307 0.0
C106 C 0.38653 0.39898 0.9001 0.0
C107 C 0.32082 0.32433 0.90034 0.0
C108 C 0.5876 0.63307 0.90379 0.0
C109 C 0.6329 0.65605 0.97853 0.0
C110 C 0.51304 0.5673 0.90302 0.0
C111 C 0.48304 0.5228 0.97662 0.0
C112 C 0.52784 0.5477 0.05218 0.0
C113 C 0.60184 0.61401 0.05327 0.0
H114 H 0.07915 0.0565 0.69827 0.0
H115 H 0.90339 0.81269 0.69337 0.0
H116 H 0.08366 0.05416 0.5427 0.0
H117 H 0.91012 0.80958 0.53767 0.0
H118 H 0.87291 0.85307 0.26234 0.0
H119 H 0.87448 0.84888 0.41774 0.0
H120 H 0.11923 0.01396 0.42159 0.0
H121 H 0.11708 0.0205 0.26596 0.0
C122 C 0.04225 0.00216 0.66393 0.0
C123 C -0.00956 0.93489 0.70788 0.0
C124 C 0.0452 0.00068 0.57469 0.0
C125 C -0.0029 0.93169 0.5275 0.0
C126 C 0.9469 0.86397 0.57186 0.0
C127 C 0.94325 0.86565 0.66109 0.0
C128 C 0.92712 0.88812 0.29634 0.0
C129 C -0.0052 0.93758 0.25208 0.0
C130 C 0.92812 0.88535 0.3855 0.0
C131 C -0.00302 0.93123 0.43235 0.0
C132 C 0.06501 -0.02103 0.38767 0.0
C133 C 0.06387 -0.01753 0.29848 0.0
loop_
_geom_bond_atom_site_label_1
_geom_bond_atom_site_label_2
_geom_bond_distance
_geom_bond_site_symmetry_2
_ccdc_geom_bond_type
Cd0 N3 2.334 . S
Cd0 N29 2.304 . S
Cd0 O36 2.268 1_554 S
Cd0 O39 2.273 . S
Cd0 O40 2.417 1_554 S
Cd0 O41 2.330 . S
Cd1 N16 2.304 . S
Cd1 N20 2.334 . S
Cd1 O37 2.273 . S
Cd1 O38 2.268 1_556 S
Cd1 O42 2.417 1_556 S
Cd1 O43 2.330 . S
C2 N3 1.332 . S
C2 C6 1.381 . S
C2 H8 0.931 . S
N3 Cd0 2.334 . S
N3 C2 1.332 . S
N3 C7 1.328 1_554 S
C4 C5 1.396 1_556 S
C4 C7 1.378 1_655 S
C4 H46 0.931 . S
C5 C4 1.396 1_554 S
C5 C6 1.382 1_655 S
C6 C2 1.381 . S
C6 C5 1.382 1_455 S
C6 H47 0.930 . S
C7 N3 1.328 1_556 S
C7 C4 1.378 1_455 S
C7 H9 0.930 . S
H8 C2 0.931 . S
H9 C7 0.930 . S
C10 O36 1.238 1_665 S
C10 O37 1.253 . S
C11 C12 1.379 . S
C11 N16 1.337 . S
C11 H17 0.929 . S
C12 C11 1.379 . S
C12 C13 1.380 1_655 S
C12 H48 0.929 . S
C13 C12 1.380 1_455 S
C13 C14 1.399 1_556 S
C14 C13 1.399 1_554 S
C14 C15 1.376 1_455 S
C14 H49 0.931 . S
C15 C14 1.376 1_655 S
C15 N16 1.338 1_554 S
C15 H18 0.930 . S
N16 Cd1 2.304 . S
N16 C11 1.337 . S
N16 C15 1.338 1_556 S
H17 C11 0.929 . S
H18 C15 0.930 . S
C19 N20 1.332 . S
C19 C23 1.381 . S
C19 H25 0.931 . S
N20 Cd1 2.334 . S
N20 C19 1.332 . S
N20 C24 1.328 1_556 S
C21 C22 1.396 1_554 S
C21 C24 1.378 1_545 S
C21 H50 0.931 . S
C22 C21 1.396 1_556 S
C22 C23 1.382 1_545 S
C23 C19 1.381 . S
C23 C22 1.382 1_565 S
C23 H51 0.930 . S
C24 N20 1.328 1_554 S
C24 C21 1.378 1_565 S
C24 H26 0.930 . S
H25 C19 0.931 . S
H26 C24 0.930 . S
C27 O38 1.238 1_445 S
C27 O39 1.253 . S
C28 O40 1.239 . S
C28 O41 1.230 1_556 S
N29 Cd0 2.304 . S
N29 C30 1.337 . S
N29 C34 1.338 1_554 S
C30 N29 1.337 . S
C30 C31 1.379 . S
C30 H44 0.929 . S
C31 C30 1.379 . S
C31 C32 1.380 1_545 S
C31 H52 0.929 . S
C32 C31 1.380 1_565 S
C32 C33 1.399 1_554 S
C33 C32 1.399 1_556 S
C33 C34 1.376 1_565 S
C33 H53 0.931 . S
C34 N29 1.338 1_556 S
C34 C33 1.376 1_545 S
C34 H45 0.930 . S
C35 O42 1.239 . S
C35 O43 1.230 1_554 S
O36 Cd0 2.268 1_556 S
O36 C10 1.238 1_445 S
O37 Cd1 2.273 . S
O37 C10 1.253 . S
O38 Cd1 2.268 1_554 S
O38 C27 1.238 1_665 S
O39 Cd0 2.273 . S
O39 C27 1.253 . S
O40 Cd0 2.417 1_556 S
O40 C28 1.239 . S
O41 Cd0 2.330 . S
O41 C28 1.230 1_554 S
O42 Cd1 2.417 1_554 S
O42 C35 1.239 . S
O43 Cd1 2.330 . S
O43 C35 1.230 1_556 S
H44 C30 0.929 . S
H45 C34 0.930 . S
H46 C4 0.931 . S
H47 C6 0.930 . S
H48 C12 0.929 . S
H49 C14 0.931 . S
H50 C21 0.931 . S
H51 C23 0.930 . S
H52 C31 0.929 . S
H53 C33 0.931 . S
H54 C62 0.950 . S
H55 C67 0.950 . S
H56 C64 0.950 . S
H57 C66 0.951 . S
H58 C68 0.950 . S
H59 C70 0.950 . S
H60 C72 0.950 . S
H61 C73 0.950 . S
C62 H54 0.950 . S
C62 C63 1.386 1_455 S
C62 C64 1.391 . S
C63 C62 1.386 1_655 S
C63 C67 1.393 . S
C64 H56 0.950 . S
C64 C62 1.391 . S
C64 C65 1.400 1_455 S
C65 C64 1.400 1_655 S
C65 C66 1.398 1_554 S
C65 C71 1.491 1_655 S
C66 H57 0.951 . S
C66 C65 1.398 1_556 S
C66 C67 1.390 1_556 S
C67 H55 0.950 . S
C67 C63 1.393 . S
C67 C66 1.390 1_554 S
C68 H58 0.950 . S
C68 C69 1.386 1_655 S
C68 C70 1.391 . S
C69 C68 1.386 1_455 S
C69 C73 1.393 . S
C70 H59 0.950 . S
C70 C68 1.391 . S
C70 C71 1.400 1_656 S
C71 C65 1.491 1_455 S
C71 C70 1.400 1_454 S
C71 C72 1.398 . S
C72 H60 0.950 . S
C72 C71 1.398 . S
C72 C73 1.390 1_554 S
C73 H61 0.950 . S
C73 C69 1.393 . S
C73 C72 1.390 1_556 S
H74 C82 0.950 . S
H75 C87 0.950 . S
H76 C84 0.949 . S
H77 C86 0.950 . S
H78 C88 0.950 . S
H79 C90 0.951 1_545 S
H80 C92 0.950 . S
H81 C93 0.950 . S
C82 H74 0.950 . S
C82 C83 1.386 1_554 S
C82 C84 1.391 . S
C83 C82 1.386 1_556 S
C83 C87 1.393 . S
C84 H76 0.949 . S
C84 C82 1.391 . S
C84 C85 1.400 1_554 S
C85 C84 1.400 1_556 S
C85 C86 1.398 . S
C85 C91 1.490 1_546 S
C86 H77 0.950 . S
C86 C85 1.398 . S
C86 C87 1.391 . S
C87 H75 0.950 . S
C87 C83 1.393 . S
C87 C86 1.391 . S
C88 H78 0.950 . S
C88 C89 1.386 1_556 S
C88 C90 1.391 . S
C89 C88 1.386 1_554 S
C89 C93 1.393 . S
C90 H79 0.951 1_565 S
C90 C88 1.391 . S
C90 C91 1.392 1_556 S
C91 C85 1.490 1_564 S
C91 C90 1.392 1_554 S
C91 C92 1.407 . S
C92 H80 0.950 . S
C92 C91 1.407 . S
C92 C93 1.391 . S
C93 H81 0.950 . S
C93 C89 1.393 . S
C93 C92 1.391 . S
H94 C102 0.950 . S
H95 C107 0.950 . S
H96 C104 0.950 . S
H97 C106 0.950 . S
H98 C108 0.950 . S
H99 C110 0.950 . S
H100 C112 0.950 . S
H101 C113 0.950 . S
C102 H94 0.950 . S
C102 C103 1.386 1_554 S
C102 C104 1.391 . S
C103 C102 1.386 1_556 S
C103 C107 1.393 . S
C104 H96 0.950 . S
C104 C102 1.391 . S
C104 C105 1.400 1_554 S
C105 C104 1.400 1_556 S
C105 C106 1.398 . S
C105 C111 1.491 1_556 S
C106 H97 0.950 . S
C106 C105 1.398 . S
C106 C107 1.391 . S
C107 H95 0.950 . S
C107 C103 1.393 . S
C107 C106 1.391 . S
C108 H98 0.950 . S
C108 C109 1.386 1_556 S
C108 C110 1.391 . S
C109 C108 1.386 1_554 S
C109 C113 1.393 . S
C110 H99 0.950 . S
C110 C108 1.391 . S
C110 C111 1.400 1_556 S
C111 C105 1.491 1_554 S
C111 C110 1.400 1_554 S
C111 C112 1.398 . S
C112 H100 0.950 . S
C112 C111 1.398 . S
C112 C113 1.391 . S
C113 H101 0.950 . S
C113 C109 1.393 . S
C113 C112 1.391 . S
H114 C122 0.950 . S
H115 C127 0.950 . S
H116 C124 0.950 . S
H117 C126 0.950 . S
H118 C128 0.950 . S
H119 C130 0.950 . S
H120 C132 0.950 . S
H121 C133 0.950 . S
C122 H114 0.950 . S
C122 C123 1.380 1_445 S
C122 C124 1.391 . S
C123 C122 1.380 1_665 S
C123 C127 1.399 . S
C124 H116 0.950 . S
C124 C122 1.391 . S
C124 C125 1.398 1_445 S
C125 C124 1.398 1_665 S
C125 C126 1.401 . S
C125 C131 1.491 1_665 S
C126 H117 0.950 . S
C126 C125 1.401 . S
C126 C127 1.391 . S
C127 H115 0.950 . S
C127 C123 1.399 . S
C127 C126 1.391 . S
C128 H118 0.950 . S
C128 C129 1.386 1_665 S
C128 C130 1.391 . S
C129 C128 1.386 1_445 S
C129 C133 1.393 . S
C130 H119 0.950 . S
C130 C128 1.391 . S
C130 C131 1.400 1_665 S
C131 C125 1.491 1_445 S
C131 C130 1.400 1_445 S
C131 C132 1.398 . S
C132 H120 0.950 . S
C132 C131 1.398 . S
C132 C133 1.391 . S
C133 H121 0.950 . S
C133 C129 1.393 . S
C133 C132 1.391 . S
C63 C5 1.890 . S
C69 C13 1.889 . S
C83 C22 1.901 . S
C89 C32 1.900 . S
C103 C28 0.492 . S
C109 C35 0.489 . S
C123 C10 1.474 . S
C129 C27 1.473 . S
