# Generated by pormake.
# Topology tfs, (6)-cn, num edge types: 1
# Building blocks:
#     Node 0, Type 0, BuildingBlock: JUFBIX_clean_sbu_0, # of connection points: 6
#     Node 1, Type 0, BuildingBlock: JUFBIX_clean_sbu_0, # of connection points: 6
#     Node 2, Type 0, BuildingBlock: JUFBIX_clean_sbu_0, # of connection points: 6
#     Node 3, Type 0, BuildingBlock: JUFBIX_clean_sbu_0, # of connection points: 6
#     Node 4, Type 0, BuildingBlock: JUFBIX_clean_sbu_0, # of connection points: 6
#     Node 5, Type 0, BuildingBlock: JUFBIX_clean_sbu_0, # of connection points: 6
#     Edge 6, Type (0, 0), None
#     Edge 7, Type (0, 0), None
#     Edge 8, Type (0, 0), None
#     Edge 9, Type (0, 0), None
#     Edge 10, Type (0, 0), None
#     Edge 11, Type (0, 0), None
#     Edge 12, Type (0, 0), None
#     Edge 13, Type (0, 0), None
#     Edge 14, Type (0, 0), None
#     Edge 15, Type (0, 0), None
#     Edge 16, Type (0, 0), None
#     Edge 17, Type (0, 0), None
#     Edge 18, Type (0, 0), None
#     Edge 19, Type (0, 0), None
#     Edge 20, Type (0, 0), None
#     Edge 21, Type (0, 0), None
#     Edge 22, Type (0, 0), None
#     Edge 23, Type (0, 0), None
# Relax obj value: 0.378
# Max RMSD: 0.287
# Mean RMSD: 0.205
data_MOF--net-tfs--node1-JUFBIX_clean_sbu_0--edge1-none
_symmetry_space_group_name_H-M    P1
_symmetry_Int_Tables_number       1
_symmetry_cell_setting            triclinic
loop_
_symmetry_equiv_pos_as_xyz
'x, y, z'
_cell_length_a     20.436124
_cell_length_b     24.409876
_cell_length_c     6.39769
_cell_angle_alpha  89.085403
_cell_angle_beta   93.642054
_cell_angle_gamma 107.8002
loop_
_atom_site_label
_atom_site_type_symbol
_atom_site_fract_x
_atom_site_fract_y
_atom_site_fract_z
_atom_type_partial_charge
Co0 Co 0.28667 0.4343 0.24215 0.0
C1 C 0.23645 0.40503 0.60803 0.0
Co2 Co 0.18533 0.37306 0.18125 0.0
C3 C 0.39706 0.5133 0.0897 0.0
C4 C 0.42785 0.48862 0.39294 0.0
N5 N 0.37473 0.47762 0.24699 0.0
N6 N 0.46172 0.5452 0.1272 0.0
C7 C 0.48183 0.53246 0.32028 0.0
H8 H 0.36506 0.51928 0.95621 0.0
H9 H 0.42641 0.46787 0.54397 0.0
C10 C 0.23317 0.40064 0.81355 0.0
N11 N 0.09364 0.3264 0.17677 0.0
C12 C 1.03518 0.34022 0.19919 0.0
C13 C 0.07223 0.26851 0.15412 0.0
N14 N 0.97889 0.2931 0.19305 0.0
C15 C 1.00217 0.24801 0.16582 0.0
C16 C 0.20629 0.49965 0.15461 0.0
O17 O 0.28211 0.43097 0.93431 0.0
O18 O 0.18137 0.3665 0.89144 0.0
O19 O 0.16002 0.44953 0.13121 0.0
O20 O 0.26403 0.50089 0.23481 0.0
O21 O 0.18585 0.37756 0.48573 0.0
H22 H 0.10487 0.24216 0.12855 0.0
H23 H 1.0339 0.38379 0.22037 0.0
O24 O 0.29052 0.43648 0.53233 0.0
O25 O 0.31534 0.37234 0.25259 0.0
O26 O 0.22053 0.30235 0.20939 0.0
C27 C 0.28619 0.31912 0.23534 0.0
H28 H 0.53117 0.55321 0.39985 0.0
H29 H 0.97061 0.20348 0.15072 0.0
Co30 Co 0.76986 0.23661 0.19541 0.0
C31 C 0.78732 0.28646 0.59338 0.0
Co32 Co 0.80122 0.3345 0.19729 0.0
C33 C 0.75048 0.11807 0.05617 0.0
C34 C 0.70924 0.12259 0.35248 0.0
N35 N 0.74509 0.15595 0.20151 0.0
N36 N 0.71918 0.06297 0.11179 0.0
C37 C 0.6934 0.06555 0.29811 0.0
H38 H 0.77474 0.13067 0.91009 0.0
H39 H 0.69324 0.13858 0.49088 0.0
C40 C 0.7841 0.28542 0.7996 0.0
N41 N 0.83506 0.41947 0.18816 0.0
C42 C 0.82367 0.45918 0.04902 0.0
C43 C 0.89317 0.45053 0.29872 0.0
N44 N 0.8722 0.51262 0.0678 0.0
C45 C 0.91603 0.50667 0.22551 0.0
C46 C 0.91186 0.2908 0.20201 0.0
O47 O 0.76737 0.2375 0.8962 0.0
O48 O 0.79805 0.33247 0.9002 0.0
O49 O 0.89522 0.3368 0.20411 0.0
O50 O 0.86492 0.24237 0.20069 0.0
O51 O 0.80365 0.33432 0.49629 0.0
H52 H 0.91942 0.43289 0.42185 0.0
H53 H 0.78105 0.44875 0.93179 0.0
O54 O 0.77372 0.23936 0.49325 0.0
O55 O 0.6749 0.22988 0.19215 0.0
O56 O 0.70104 0.32488 0.19523 0.0
C57 C 0.65562 0.27424 0.20227 0.0
H58 H 0.66428 1.02913 0.38688 0.0
H59 H 0.95983 0.54084 0.28959 0.0
Co60 Co 0.59159 0.74741 0.88888 0.0
C61 C 0.61721 0.79448 0.49733 0.0
Co62 Co 0.64387 0.83935 0.9002 0.0
C63 C 0.54773 0.63406 0.03844 0.0
C64 C 0.51355 0.64254 0.71793 0.0
N65 N 0.55699 0.67072 0.87673 0.0
N66 N 0.49803 0.58557 0.98741 0.0
C67 C 0.47632 0.59054 0.78751 0.0
H68 H 0.57019 0.6448 0.19577 0.0
H69 H 0.50197 0.66094 0.57079 0.0
C70 C 0.61932 0.79407 0.2915 0.0
N71 N 0.68107 0.91962 0.90165 0.0
C72 C 0.67353 0.95838 0.03943 0.0
C73 C 0.72597 0.95133 0.76681 0.0
N74 N 0.71201 1.01258 0.99513 0.0
C75 C 0.74487 1.00857 0.82331 0.0
C76 C 0.49188 0.79463 0.90201 0.0
O77 O 0.59206 0.74781 0.18885 0.0
O78 O 0.6484 0.83987 0.19596 0.0
O79 O 0.54315 0.84195 0.90557 0.0
O80 O 0.50415 0.7484 0.87721 0.0
O81 O 0.64032 0.84083 0.60035 0.0
H82 H 0.74502 0.93386 0.63766 0.0
H83 H 0.64131 0.94689 0.17093 0.0
O84 O 0.59218 0.7482 0.59313 0.0
O85 O 0.67539 0.7407 0.90359 0.0
O86 O 0.74075 0.82944 0.90126 0.0
C87 C 0.73503 0.77557 0.90304 0.0
H88 H 0.43217 0.56139 0.70462 0.0
H89 H 0.78098 0.04398 0.74724 0.0
Co90 Co 0.88808 0.68968 0.95034 0.0
C91 C 0.84024 0.6621 0.31807 0.0
Co92 Co 0.78674 0.62844 0.8895 0.0
C93 C 0.03823 0.72254 0.93239 0.0
C94 C 1.00117 0.79424 0.97749 0.0
N95 N 0.97977 0.73635 0.95483 0.0
N96 N 0.09452 0.76966 0.93852 0.0
C97 C 0.07124 0.81475 0.96578 0.0
H98 H 0.03952 0.67896 0.91119 0.0
H99 H 0.96853 0.82059 1.00308 0.0
C100 C 0.83697 0.65771 0.52359 0.0
N101 N 0.69868 0.58512 0.88463 0.0
C102 C 0.67635 0.54944 0.04191 0.0
C103 C 0.64557 0.57413 0.73868 0.0
N104 N 0.61169 0.51754 1.0044 0.0
C105 C 0.59158 0.53029 0.81133 0.0
C106 C 0.78721 0.74361 0.89636 0.0
O107 O 0.88757 0.68519 0.64587 0.0
O108 O 0.7829 0.62626 0.5993 0.0
O109 O 0.75806 0.69039 0.87909 0.0
O110 O 0.85288 0.76039 0.92219 0.0
O111 O 0.7913 0.63176 0.19732 0.0
H112 H 0.64701 0.59488 0.58766 0.0
H113 H 0.70834 0.54345 0.1754 0.0
O114 O 0.89203 0.69624 0.24016 0.0
O115 O 0.91341 0.61322 1.00035 0.0
O116 O 0.80939 0.56185 0.89682 0.0
C117 C 0.86714 0.5631 0.97697 0.0
H118 H 0.1028 0.85928 0.98088 0.0
H119 H 0.54223 0.50955 0.73176 0.0
Co120 Co 0.27218 0.72825 0.93425 0.0
C121 C 0.28931 0.77733 0.33194 0.0
Co122 Co 0.30355 0.82614 0.93613 0.0
C123 C 0.24979 0.60356 0.08232 0.0
C124 C 0.18016 0.61223 0.83304 0.0
N125 N 0.23834 0.64328 0.94337 0.0
N126 N 0.20128 0.55011 0.06351 0.0
C127 C 0.15733 0.55608 0.90619 0.0
H128 H 0.29246 0.61398 0.19941 0.0
H129 H 0.15384 0.62989 0.71014 0.0
C130 C 0.28608 0.77629 0.53817 0.0
N131 N 0.32833 0.9068 0.93004 0.0
C132 C 0.32292 0.94468 0.07537 0.0
C133 C 0.36417 0.94016 0.77908 0.0
N134 N 0.35423 0.99978 1.01977 0.0
C135 C 0.38002 0.9972 0.83346 0.0
C136 C 0.41779 0.7885 0.92927 0.0
O137 O 0.26975 0.72843 0.63526 0.0
O138 O 0.29969 0.82339 0.63829 0.0
O139 O 0.39851 0.83287 0.93939 0.0
O140 O 0.37236 0.73787 0.93631 0.0
O141 O 0.30603 0.82525 0.23534 0.0
H142 H 0.38018 0.92417 0.64068 0.0
H143 H 0.29866 0.93208 0.22145 0.0
O144 O 0.27535 0.73028 0.23135 0.0
O145 O 0.17819 0.72596 0.92746 0.0
O146 O 0.20849 0.82039 0.93086 0.0
C147 C 0.16155 0.77196 0.92955 0.0
H148 H 0.11347 0.52193 0.84235 0.0
H149 H 0.40914 0.03362 0.7447 0.0
Co150 Co 0.42954 0.22339 0.23138 0.0
C151 C 0.45409 0.26867 0.84008 0.0
Co152 Co 0.48181 0.31534 0.24269 0.0
C153 C 0.39988 0.10436 0.09214 0.0
C154 C 0.34744 0.11141 0.36476 0.0
N155 N 0.39233 0.14312 0.22993 0.0
N156 N 0.3614 0.05016 0.13644 0.0
C157 C 0.32854 0.05417 0.30825 0.0
H158 H 0.4321 0.11585 0.96065 0.0
H159 H 0.32838 0.12888 0.49392 0.0
C160 C 0.45619 0.26826 0.63425 0.0
N161 N 0.5164 0.39202 0.25485 0.0
C162 C 0.52568 0.42868 0.09315 0.0
C163 C 0.55984 0.4202 0.41366 0.0
N164 N 0.57537 0.47717 0.14419 0.0
C165 C 0.59707 0.47221 0.34409 0.0
C166 C 0.33837 0.28716 0.22858 0.0
O167 O 0.43309 0.22191 0.53123 0.0
O168 O 0.48122 0.31454 0.53845 0.0
O169 O 0.39801 0.32204 0.22799 0.0
O170 O 0.33265 0.2333 0.23034 0.0
O171 O 0.48134 0.31493 0.94273 0.0
H172 H 0.57142 0.4018 0.5608 0.0
H173 H 0.50322 0.41794 0.93581 0.0
O174 O 0.425 0.22287 0.93562 0.0
O175 O 0.53025 0.2208 0.226 0.0
O176 O 0.56925 0.31434 0.25436 0.0
C177 C 0.58153 0.26811 0.22955 0.0
H178 H 0.29243 1.01876 0.38432 0.0
H179 H 0.64122 0.50135 0.42698 0.0
loop_
_geom_bond_atom_site_label_1
_geom_bond_atom_site_label_2
_geom_bond_distance
_geom_bond_site_symmetry_2
_ccdc_geom_bond_type
Co0 N5 2.057 1_556 S
Co0 O17 2.021 . S
Co0 O20 2.062 . S
Co0 O24 2.117 1_556 S
Co0 O25 2.020 1_556 S
C1 O21 1.259 . S
C1 O24 1.258 . S
Co2 N11 2.057 1_554 S
Co2 O18 2.117 1_554 S
Co2 O19 2.020 . S
Co2 O21 2.021 . S
Co2 O26 2.062 . S
C3 N5 1.316 1_556 S
C3 N6 1.347 1_556 S
C3 H8 0.931 . S
C4 N5 1.375 . S
C4 C7 1.350 . S
C4 H9 0.930 . S
N5 Co0 2.057 1_554 S
N5 C3 1.316 1_554 S
N5 C4 1.375 . S
N6 C3 1.347 1_554 S
N6 C7 1.373 . S
C7 C4 1.350 . S
C7 N6 1.373 . S
C7 H28 0.931 . S
H8 C3 0.931 . S
H9 C4 0.930 . S
C10 O17 1.259 . S
C10 O18 1.258 . S
N11 Co2 2.057 1_556 S
N11 C12 1.316 1_556 S
N11 C13 1.375 . S
C12 N11 1.316 1_554 S
C12 N14 1.347 1_454 S
C12 H23 0.931 . S
C13 N11 1.375 . S
C13 C15 1.350 1_455 S
C13 H22 0.930 . S
N14 C12 1.347 1_656 S
N14 C15 1.373 . S
C15 C13 1.350 1_655 S
C15 N14 1.373 . S
C15 H29 0.931 . S
C16 O19 1.256 1_556 S
C16 O20 1.255 . S
O17 Co0 2.021 . S
O17 C10 1.259 . S
O18 Co2 2.117 1_556 S
O18 C10 1.258 . S
O19 Co2 2.020 . S
O19 C16 1.256 1_554 S
O20 Co0 2.062 . S
O20 C16 1.255 . S
O21 C1 1.259 . S
O21 Co2 2.021 . S
H22 C13 0.930 . S
H23 C12 0.931 . S
O24 Co0 2.117 1_554 S
O24 C1 1.258 . S
O25 Co0 2.020 1_554 S
O25 C27 1.256 . S
O26 Co2 2.062 . S
O26 C27 1.255 . S
C27 O25 1.256 . S
C27 O26 1.255 . S
H28 C7 0.931 . S
H29 C15 0.931 . S
Co30 N35 2.057 . S
Co30 O47 2.021 1_554 S
Co30 O50 2.062 . S
Co30 O54 2.117 . S
Co30 O55 2.020 . S
C31 O51 1.259 . S
C31 O54 1.258 . S
Co32 N41 2.057 . S
Co32 O48 2.117 1_554 S
Co32 O49 2.020 . S
Co32 O51 2.021 . S
Co32 O56 2.062 . S
C33 N35 1.316 1_556 S
C33 N36 1.347 1_556 S
C33 H38 0.931 . S
C34 N35 1.375 . S
C34 C37 1.350 . S
C34 H39 0.930 . S
N35 Co30 2.057 . S
N35 C33 1.316 1_554 S
N35 C34 1.375 . S
N36 C33 1.347 1_554 S
N36 C37 1.373 . S
C37 C34 1.350 . S
C37 N36 1.373 . S
C37 H58 0.931 . S
H38 C33 0.931 . S
H39 C34 0.930 . S
C40 O47 1.259 . S
C40 O48 1.258 . S
N41 Co32 2.057 . S
N41 C42 1.316 . S
N41 C43 1.375 1_554 S
C42 N41 1.316 . S
C42 N44 1.347 . S
C42 H53 0.931 . S
C43 N41 1.375 1_556 S
C43 C45 1.350 . S
C43 H52 0.930 . S
N44 C42 1.347 . S
N44 C45 1.373 1_554 S
C45 C43 1.350 . S
C45 N44 1.373 1_556 S
C45 H59 0.931 . S
C46 O49 1.256 . S
C46 O50 1.255 . S
O47 Co30 2.021 1_556 S
O47 C40 1.259 . S
O48 Co32 2.117 1_556 S
O48 C40 1.258 . S
O49 Co32 2.020 . S
O49 C46 1.256 . S
O50 Co30 2.062 . S
O50 C46 1.255 . S
O51 C31 1.259 . S
O51 Co32 2.021 . S
H52 C43 0.930 . S
H53 C42 0.931 . S
O54 Co30 2.117 . S
O54 C31 1.258 . S
O55 Co30 2.020 . S
O55 C57 1.256 . S
O56 Co32 2.062 . S
O56 C57 1.255 . S
C57 O55 1.256 . S
C57 O56 1.255 . S
H58 C37 0.931 . S
H59 C45 0.931 . S
Co60 N65 2.057 1_554 S
Co60 O77 2.021 . S
Co60 O80 2.062 . S
Co60 O84 2.117 1_554 S
Co60 O85 2.020 . S
C61 O81 1.259 . S
C61 O84 1.258 . S
Co62 N71 2.057 1_556 S
Co62 O78 2.117 1_556 S
Co62 O79 2.020 . S
Co62 O81 2.021 . S
Co62 O86 2.062 . S
C63 N65 1.316 1_554 S
C63 N66 1.347 1_554 S
C63 H68 0.931 . S
C64 N65 1.375 . S
C64 C67 1.350 . S
C64 H69 0.930 . S
N65 Co60 2.057 1_556 S
N65 C63 1.316 1_556 S
N65 C64 1.375 . S
N66 C63 1.347 1_556 S
N66 C67 1.373 . S
C67 C64 1.350 . S
C67 N66 1.373 . S
C67 H88 0.931 . S
H68 C63 0.931 . S
H69 C64 0.930 . S
C70 O77 1.259 . S
C70 O78 1.258 . S
N71 Co62 2.057 1_554 S
N71 C72 1.316 1_554 S
N71 C73 1.375 . S
C72 N71 1.316 1_556 S
C72 N74 1.347 1_556 S
C72 H83 0.931 . S
C73 N71 1.375 . S
C73 C75 1.350 . S
C73 H82 0.930 . S
N74 C72 1.347 1_554 S
N74 C75 1.373 . S
C75 C73 1.350 . S
C75 N74 1.373 . S
C75 H89 0.931 . S
C76 O79 1.256 1_554 S
C76 O80 1.255 . S
O77 Co60 2.021 . S
O77 C70 1.259 . S
O78 Co62 2.117 1_554 S
O78 C70 1.258 . S
O79 Co62 2.020 . S
O79 C76 1.256 1_556 S
O80 Co60 2.062 . S
O80 C76 1.255 . S
O81 C61 1.259 . S
O81 Co62 2.021 . S
H82 C73 0.930 . S
H83 C72 0.931 . S
O84 Co60 2.117 1_556 S
O84 C61 1.258 . S
O85 Co60 2.020 . S
O85 C87 1.256 1_554 S
O86 Co62 2.062 . S
O86 C87 1.255 . S
C87 O85 1.256 1_556 S
C87 O86 1.255 . S
H88 C67 0.931 . S
H89 C75 0.931 . S
Co90 N95 2.057 . S
Co90 O107 2.021 1_554 S
Co90 O110 2.062 . S
Co90 O114 2.117 . S
Co90 O115 2.020 . S
C91 O111 1.259 . S
C91 O114 1.258 . S
Co92 N101 2.057 . S
Co92 O108 2.117 1_554 S
Co92 O109 2.020 . S
Co92 O111 2.021 . S
Co92 O116 2.062 . S
C93 N95 1.316 . S
C93 N96 1.347 1_655 S
C93 H98 0.931 1_554 S
C94 N95 1.375 . S
C94 C97 1.350 1_655 S
C94 H99 0.930 . S
N95 Co90 2.057 . S
N95 C93 1.316 . S
N95 C94 1.375 . S
N96 C93 1.347 1_455 S
N96 C97 1.373 . S
C97 C94 1.350 1_455 S
C97 N96 1.373 . S
C97 H118 0.931 . S
H98 C93 0.931 1_556 S
H99 C94 0.930 . S
C100 O107 1.259 . S
C100 O108 1.258 . S
N101 Co92 2.057 . S
N101 C102 1.316 . S
N101 C103 1.375 1_554 S
C102 N101 1.316 . S
C102 N104 1.347 . S
C102 H113 0.931 . S
C103 N101 1.375 1_556 S
C103 C105 1.350 . S
C103 H112 0.930 . S
N104 C102 1.347 . S
N104 C105 1.373 1_554 S
C105 C103 1.350 . S
C105 N104 1.373 1_556 S
C105 H119 0.931 . S
C106 O109 1.256 . S
C106 O110 1.255 . S
O107 Co90 2.021 1_556 S
O107 C100 1.259 . S
O108 Co92 2.117 1_556 S
O108 C100 1.258 . S
O109 Co92 2.020 . S
O109 C106 1.256 . S
O110 Co90 2.062 . S
O110 C106 1.255 . S
O111 C91 1.259 . S
O111 Co92 2.021 . S
H112 C103 0.930 . S
H113 C102 0.931 . S
O114 Co90 2.117 . S
O114 C91 1.258 . S
O115 Co90 2.020 . S
O115 C117 1.256 . S
O116 Co92 2.062 . S
O116 C117 1.255 . S
C117 O115 1.256 . S
C117 O116 1.255 . S
H118 C97 0.931 . S
H119 C105 0.931 . S
Co120 N125 2.057 1_556 S
Co120 O137 2.021 . S
Co120 O140 2.062 . S
Co120 O144 2.117 1_556 S
Co120 O145 2.020 1_556 S
C121 O141 1.259 . S
C121 O144 1.258 . S
Co122 N131 2.057 1_554 S
Co122 O138 2.117 1_554 S
Co122 O139 2.020 . S
Co122 O141 2.021 . S
Co122 O146 2.062 . S
C123 N125 1.316 1_556 S
C123 N126 1.347 1_556 S
C123 H128 0.931 . S
C124 N125 1.375 . S
C124 C127 1.350 . S
C124 H129 0.930 . S
N125 Co120 2.057 1_554 S
N125 C123 1.316 1_554 S
N125 C124 1.375 . S
N126 C123 1.347 1_554 S
N126 C127 1.373 . S
C127 C124 1.350 . S
C127 N126 1.373 . S
C127 H148 0.931 . S
H128 C123 0.931 . S
H129 C124 0.930 . S
C130 O137 1.259 . S
C130 O138 1.258 . S
N131 Co122 2.057 1_556 S
N131 C132 1.316 1_556 S
N131 C133 1.375 . S
C132 N131 1.316 1_554 S
C132 N134 1.347 . S
C132 H143 0.931 . S
C133 N131 1.375 . S
C133 C135 1.350 . S
C133 H142 0.930 . S
N134 C132 1.347 . S
N134 C135 1.373 1_554 S
C135 C133 1.350 . S
C135 N134 1.373 1_556 S
C135 H149 0.931 . S
C136 O139 1.256 . S
C136 O140 1.255 1_554 S
O137 Co120 2.021 . S
O137 C130 1.259 . S
O138 Co122 2.117 1_556 S
O138 C130 1.258 . S
O139 Co122 2.020 . S
O139 C136 1.256 . S
O140 Co120 2.062 . S
O140 C136 1.255 1_556 S
O141 C121 1.259 . S
O141 Co122 2.021 . S
H142 C133 0.930 . S
H143 C132 0.931 . S
O144 Co120 2.117 1_554 S
O144 C121 1.258 . S
O145 Co120 2.020 1_554 S
O145 C147 1.256 . S
O146 Co122 2.062 . S
O146 C147 1.255 . S
C147 O145 1.256 . S
C147 O146 1.255 . S
H148 C127 0.931 . S
H149 C135 0.931 . S
Co150 N155 2.057 . S
Co150 O167 2.021 . S
Co150 O170 2.062 . S
Co150 O174 2.117 1_554 S
Co150 O175 2.020 . S
C151 O171 1.259 . S
C151 O174 1.258 . S
Co152 N161 2.057 . S
Co152 O168 2.117 . S
Co152 O169 2.020 . S
Co152 O171 2.021 1_554 S
Co152 O176 2.062 . S
C153 N155 1.316 . S
C153 N156 1.347 . S
C153 H158 0.931 . S
C154 N155 1.375 1_556 S
C154 C157 1.350 . S
C154 H159 0.930 . S
N155 Co150 2.057 . S
N155 C153 1.316 . S
N155 C154 1.375 1_554 S
N156 C153 1.347 . S
N156 C157 1.373 1_554 S
C157 C154 1.350 . S
C157 N156 1.373 1_556 S
C157 H178 0.931 . S
H158 C153 0.931 . S
H159 C154 0.930 . S
C160 O167 1.259 . S
C160 O168 1.258 . S
N161 Co152 2.057 . S
N161 C162 1.316 . S
N161 C163 1.375 . S
C162 N161 1.316 . S
C162 N164 1.347 . S
C162 H173 0.931 1_554 S
C163 N161 1.375 . S
C163 C165 1.350 . S
C163 H172 0.930 . S
N164 C162 1.347 . S
N164 C165 1.373 . S
C165 C163 1.350 . S
C165 N164 1.373 . S
C165 H179 0.931 . S
C166 O169 1.256 . S
C166 O170 1.255 . S
O167 Co150 2.021 . S
O167 C160 1.259 . S
O168 Co152 2.117 . S
O168 C160 1.258 . S
O169 Co152 2.020 . S
O169 C166 1.256 . S
O170 Co150 2.062 . S
O170 C166 1.255 . S
O171 C151 1.259 . S
O171 Co152 2.021 1_556 S
H172 C163 0.930 . S
H173 C162 0.931 1_556 S
O174 Co150 2.117 1_556 S
O174 C151 1.258 . S
O175 Co150 2.020 . S
O175 C177 1.256 . S
O176 Co152 2.062 . S
O176 C177 1.255 . S
C177 O175 1.256 . S
C177 O176 1.255 . S
H178 C157 0.931 . S
H179 C165 0.931 . S
C166 C27 0.730 . S
N14 C46 2.728 1_556 S
N36 N74 1.949 1_545 S
C106 C87 0.729 1_554 S
C147 N96 2.728 . S
N134 N156 1.949 1_565 S
N126 C16 1.792 1_554 S
C177 C57 2.575 . S
N66 N6 1.542 1_556 S
C117 N44 1.792 . S
C136 C76 2.575 . S
N104 N164 1.542 . S
C10 C1 1.487 . S
C40 C31 1.523 . S
C61 C70 1.507 . S
C100 C91 1.487 . S
C121 C130 1.523 . S
C151 C160 1.507 . S
