# Generated by pormake.
# Topology cds, (4)-cn, num edge types: 1
# Building blocks:
#     Node 0, Type 0, BuildingBlock: MUDLON_clean_sbu_0, # of connection points: 4
#     Node 1, Type 0, BuildingBlock: MUDLON_clean_sbu_0, # of connection points: 4
#     Edge 2, Type (0, 0), BuildingBlock: EYOCIG_clean_linker_4, # of connection points: 2
#     Edge 3, Type (0, 0), BuildingBlock: EYOCIG_clean_linker_4, # of connection points: 2
#     Edge 4, Type (0, 0), BuildingBlock: EYOCIG_clean_linker_4, # of connection points: 2
#     Edge 5, Type (0, 0), BuildingBlock: EYOCIG_clean_linker_4, # of connection points: 2
# Relax obj value: 0.001
# Max RMSD: 0.016
# Mean RMSD: 0.016
data_MOF--net-cds--node1-MUDLON_clean_sbu_0--edge1-EYOCIG_clean_linker_4
_symmetry_space_group_name_H-M    P1
_symmetry_Int_Tables_number       1
_symmetry_cell_setting            triclinic
loop_
_symmetry_equiv_pos_as_xyz
'x, y, z'
_cell_length_a     12.41659
_cell_length_b     12.486799
_cell_length_c     24.96737
_cell_angle_alpha  90.655819
_cell_angle_beta   91.563764
_cell_angle_gamma 89.950248
loop_
_atom_site_label
_atom_site_type_symbol
_atom_site_fract_x
_atom_site_fract_y
_atom_site_fract_z
_atom_type_partial_charge
Mg0 Mg 0.99766 0.03579 1.00099 0.0
C1 C 0.23155 0.02601 0.00374 0.0
O2 O 0.20173 0.92523 0.0051 0.0
C3 C 0.76453 0.02629 0.00314 0.0
O4 O 0.79486 0.92559 0.00482 0.0
C5 C 0.9957 0.96695 0.8829 0.0
O6 O 0.99801 0.86965 0.90207 0.0
O7 O 0.99485 0.04703 0.91443 0.0
O8 O 0.16022 0.09924 1.00202 0.0
O9 O 1.00187 0.04619 0.08767 0.0
C10 C 1.00202 0.96591 0.11816 0.0
O11 O 1.0001 0.86871 0.09774 0.0
O12 O 0.8354 0.0996 1.00123 0.0
Mg13 Mg 0.02082 0.00762 0.50104 0.0
C14 C 0.04544 0.24213 0.50436 0.0
O15 O 0.14581 0.20966 0.50866 0.0
C16 C 0.04576 0.77271 0.50489 0.0
O17 O 0.14593 0.80513 0.51071 0.0
C18 C 0.05228 0.02169 0.38401 0.0
O19 O 0.15025 0.04158 0.40248 0.0
O20 O 0.97751 0.0045 0.41646 0.0
O21 O 0.9701 0.17365 0.50036 0.0
O22 O 0.97286 0.00688 0.58375 0.0
C23 C 0.04682 0.02039 0.61925 0.0
O24 O 0.14644 0.03521 0.60477 0.0
O25 O 0.97072 0.84122 0.49972 0.0
C26 C 0.01055 0.995 0.22309 0.0
C27 C 0.00666 0.98206 0.17516 0.0
C28 C 0.01947 0.0068 0.27933 0.0
C29 C 0.03194 0.01307 0.3273 0.0
C30 C 1.00114 0.99623 0.77844 0.0
C31 C 0.99865 0.98348 0.82617 0.0
C32 C 0.01 0.00741 0.72254 0.0
C33 C 0.02361 0.01285 0.67504 0.0
C34 C 0.55491 0.06057 0.00344 0.0
C35 C 0.6516 0.05118 0.00318 0.0
C36 C 0.4411 0.06052 0.00362 0.0
C37 C 0.34442 0.05104 0.00358 0.0
C38 C 0.01314 0.56396 0.50378 0.0
C39 C 0.02271 0.66005 0.50396 0.0
C40 C 0.01306 0.45087 0.50372 0.0
C41 C 0.0225 0.35477 0.50377 0.0
loop_
_geom_bond_atom_site_label_1
_geom_bond_atom_site_label_2
_geom_bond_distance
_geom_bond_site_symmetry_2
_ccdc_geom_bond_type
Mg0 O7 2.145 . S
Mg0 O8 2.039 1_655 S
Mg0 O9 2.044 1_556 S
Mg0 O12 2.151 . S
C1 O2 1.313 1_545 S
C1 O8 1.195 1_554 S
O2 C1 1.313 1_565 S
C3 O4 1.245 1_545 S
C3 O12 1.289 1_554 S
O4 C3 1.245 1_565 S
C5 O6 1.245 1_545 S
C5 O7 1.289 1_455 S
O6 C5 1.245 1_565 S
O7 Mg0 2.145 . S
O7 C5 1.289 1_655 S
O8 Mg0 2.039 1_455 S
O8 C1 1.195 1_556 S
O9 Mg0 2.044 1_554 S
O9 C10 1.195 1_655 S
C10 O9 1.195 1_455 S
C10 O11 1.313 1_545 S
O11 C10 1.313 1_565 S
O12 Mg0 2.151 . S
O12 C3 1.289 1_556 S
Mg13 O20 2.142 . S
Mg13 O21 2.038 1_565 S
Mg13 O22 2.048 . S
Mg13 O25 2.151 . S
C14 O15 1.313 . S
C14 O21 1.195 1_455 S
O15 C14 1.313 . S
C16 O17 1.245 . S
C16 O25 1.289 1_455 S
O17 C16 1.245 . S
C18 O19 1.245 . S
C18 O20 1.289 1_445 S
O19 C18 1.245 . S
O20 Mg13 2.142 . S
O20 C18 1.289 1_665 S
O21 Mg13 2.038 1_545 S
O21 C14 1.195 1_655 S
O22 Mg13 2.048 . S
O22 C23 1.195 1_665 S
C23 O22 1.195 1_445 S
C23 O24 1.313 . S
O24 C23 1.313 . S
O25 Mg13 2.151 . S
O25 C16 1.289 1_655 S
C26 C27 1.170 . S
C26 C28 1.380 . S
C27 C26 1.170 . S
C28 C26 1.380 . S
C28 C29 1.170 . S
C29 C28 1.170 . S
C30 C31 1.170 . S
C30 C32 1.380 . S
C31 C30 1.170 . S
C32 C30 1.380 . S
C32 C33 1.170 . S
C33 C32 1.170 . S
C34 C35 1.170 . S
C34 C36 1.380 . S
C35 C34 1.170 . S
C36 C34 1.380 . S
C36 C37 1.170 . S
C37 C36 1.170 . S
C38 C39 1.170 . S
C38 C40 1.380 . S
C39 C38 1.170 . S
C40 C38 1.380 . S
C40 C41 1.170 . S
C41 C40 1.170 . S
C27 C10 1.498 . S
C29 C18 1.486 . S
C31 C5 1.493 . S
C33 C23 1.501 . S
C35 C3 1.478 . S
C37 C1 1.489 . S
C39 C16 1.480 . S
C41 C14 1.485 . S
