# Generated by pormake.
# Topology uov, (4)-cn, num edge types: 1
# Building blocks:
#     Node 0, Type 0, BuildingBlock: NAHDIM_clean_sbu_0, # of connection points: 4
#     Node 1, Type 0, BuildingBlock: NAHDIM_clean_sbu_0, # of connection points: 4
#     Node 2, Type 0, BuildingBlock: NAHDIM_clean_sbu_0, # of connection points: 4
#     Node 3, Type 0, BuildingBlock: NAHDIM_clean_sbu_0, # of connection points: 4
#     Node 4, Type 0, BuildingBlock: NAHDIM_clean_sbu_0, # of connection points: 4
#     Node 5, Type 0, BuildingBlock: NAHDIM_clean_sbu_0, # of connection points: 4
#     Node 6, Type 0, BuildingBlock: NAHDIM_clean_sbu_0, # of connection points: 4
#     Node 7, Type 0, BuildingBlock: NAHDIM_clean_sbu_0, # of connection points: 4
#     Edge 8, Type (0, 0), None
#     Edge 9, Type (0, 0), None
#     Edge 10, Type (0, 0), None
#     Edge 11, Type (0, 0), None
#     Edge 12, Type (0, 0), None
#     Edge 13, Type (0, 0), None
#     Edge 14, Type (0, 0), None
#     Edge 15, Type (0, 0), None
#     Edge 16, Type (0, 0), None
#     Edge 17, Type (0, 0), None
#     Edge 18, Type (0, 0), None
#     Edge 19, Type (0, 0), None
#     Edge 20, Type (0, 0), None
#     Edge 21, Type (0, 0), None
#     Edge 22, Type (0, 0), None
#     Edge 23, Type (0, 0), None
# Relax obj value: 0.254
# Max RMSD: 0.237
# Mean RMSD: 0.237
data_MOF--net-uov--node1-NAHDIM_clean_sbu_0--edge1-none
_symmetry_space_group_name_H-M    P1
_symmetry_Int_Tables_number       1
_symmetry_cell_setting            triclinic
loop_
_symmetry_equiv_pos_as_xyz
'x, y, z'
_cell_length_a     14.671235
_cell_length_b     14.671262
_cell_length_c     18.087692
_cell_angle_alpha  90.000212
_cell_angle_beta   89.999816
_cell_angle_gamma 89.999991
loop_
_atom_site_label
_atom_site_type_symbol
_atom_site_fract_x
_atom_site_fract_y
_atom_site_fract_z
_atom_type_partial_charge
C0 C 0.96529 0.42057 0.58957 0.0
O1 O 0.88384 0.38369 0.59248 0.0
O2 O 0.90011 0.19402 0.55747 0.0
Zn3 Zn 0.02344 0.23322 0.59421 0.0
O4 O 0.04765 0.19003 0.69911 0.0
C5 C 0.09509 0.16588 0.4565 0.0
O6 O 0.02558 0.2103 0.42839 0.0
O7 O 0.03551 0.36985 0.5891 0.0
C8 C 0.10362 0.12609 0.71345 0.0
O9 O 0.14583 0.08423 0.65925 0.0
C10 C 0.84642 0.13971 0.59039 0.0
O11 O 0.86659 0.11023 0.65695 0.0
O12 O 0.11161 0.1717 0.52533 0.0
C13 C 0.42059 -0.02482 0.41425 0.0
O14 O 0.38372 0.05663 0.41131 0.0
O15 O 0.19405 0.04036 0.44636 0.0
Zn16 Zn 0.23325 0.91703 0.40963 0.0
O17 O 0.19008 0.89281 0.30473 0.0
C18 C 0.1659 0.84539 0.54735 0.0
O19 O 0.21033 0.9149 0.57545 0.0
O20 O 0.36988 0.90496 0.41476 0.0
C21 C 0.1261 0.83687 0.29039 0.0
O22 O 0.0842 0.79472 0.3446 0.0
C23 C 0.13973 0.09404 0.41343 0.0
O24 O 0.11024 0.07388 0.34687 0.0
O25 O 0.17172 0.82887 0.47851 0.0
C26 C -0.0248 0.5199 0.58957 0.0
O27 O 0.05665 0.55677 0.59245 0.0
O28 O 0.04038 0.74644 0.55749 0.0
Zn29 Zn 0.91704 0.70724 0.59422 0.0
O30 O 0.89283 0.75044 0.69912 0.0
C31 C 0.8454 0.77456 0.4565 0.0
O32 O 0.91491 0.73013 0.42839 0.0
O33 O 0.90497 0.57061 0.58911 0.0
C34 C 0.83685 0.81438 0.71345 0.0
O35 O 0.79464 0.85623 0.65925 0.0
C36 C 0.09407 0.80075 0.59042 0.0
O37 O 0.07391 0.83025 0.65697 0.0
O38 O 0.82889 0.76876 0.52533 0.0
C39 C 0.51993 0.96527 0.41426 0.0
O40 O 0.5568 0.88382 0.41142 0.0
O41 O 0.74647 0.9001 0.44635 0.0
Zn42 Zn 0.70727 0.02343 0.4096 0.0
O43 O 0.75049 0.04763 0.30471 0.0
C44 C 0.77458 0.09507 0.54733 0.0
O45 O 0.73016 0.02556 0.57545 0.0
O46 O 0.57064 0.0355 0.4147 0.0
C47 C 0.81439 0.10365 0.29038 0.0
O48 O 0.85618 0.14592 0.34458 0.0
C49 C 0.80077 0.8464 0.41342 0.0
O50 O 0.83026 0.86653 0.34686 0.0
O51 O 0.76878 0.11159 0.47849 0.0
C52 C -0.02482 0.42059 0.08958 0.0
O53 O 0.05663 0.38372 0.09252 0.0
O54 O 0.04036 0.19404 0.05747 0.0
Zn55 Zn 0.91703 0.23325 0.0942 0.0
O56 O 0.89281 0.19008 0.1991 0.0
C57 C 0.84538 0.1659 0.95649 0.0
O58 O 0.91489 0.21033 0.92838 0.0
O59 O 0.90496 0.36988 0.08907 0.0
C60 C 0.83688 0.1261 0.21344 0.0
O61 O 0.79472 0.08419 0.15924 0.0
C62 C 0.09404 0.13973 0.0904 0.0
O63 O 0.07387 0.11025 0.15695 0.0
O64 O 0.82887 0.17172 0.02532 0.0
C65 C 0.42056 0.96529 0.91426 0.0
O66 O 0.38369 0.88384 0.91136 0.0
O67 O 0.19402 0.90011 0.94636 0.0
Zn68 Zn 0.23322 0.02344 0.90962 0.0
O69 O 0.19003 0.04765 0.80472 0.0
C70 C 0.16589 0.09509 0.04734 0.0
O71 O 0.2103 0.02558 0.07546 0.0
O72 O 0.36985 0.03551 0.91473 0.0
C73 C 0.12609 0.10363 0.79039 0.0
O74 O 0.08424 0.14585 0.84459 0.0
C75 C 0.13971 0.84642 0.91344 0.0
O76 O 0.11024 0.86658 0.84688 0.0
O77 O 0.1717 0.11161 0.9785 0.0
C78 C 0.96527 0.51993 0.08957 0.0
O79 O 0.88382 0.5568 0.09241 0.0
O80 O 0.9001 0.74647 0.05748 0.0
Zn81 Zn 0.02343 0.70727 0.09423 0.0
O82 O 0.04763 0.75049 0.19913 0.0
C83 C 0.09508 0.77458 0.9565 0.0
O84 O 0.02557 0.73016 0.92838 0.0
O85 O 0.0355 0.57064 0.08914 0.0
C86 C 0.10365 0.81439 0.21345 0.0
O87 O 0.14592 0.85618 0.15926 0.0
C88 C 0.8464 0.80077 0.0904 0.0
O89 O 0.86655 0.83024 0.15697 0.0
O90 O 0.11159 0.76878 0.02534 0.0
C91 C 0.5199 -0.02481 0.91426 0.0
O92 O 0.55677 0.05665 0.91137 0.0
O93 O 0.74644 0.04037 0.94635 0.0
Zn94 Zn 0.70724 0.91704 0.90961 0.0
O95 O 0.75044 0.89282 0.80472 0.0
C96 C 0.77455 0.8454 0.04734 0.0
O97 O 0.73013 0.9149 0.07546 0.0
O98 O 0.57061 0.90497 0.91472 0.0
C99 C 0.81438 0.83685 0.79039 0.0
O100 O 0.85623 0.79464 0.84459 0.0
C101 C 0.80075 0.09406 0.91342 0.0
O102 O 0.83024 0.07391 0.84686 0.0
O103 O 0.76876 0.82889 0.9785 0.0
loop_
_geom_bond_atom_site_label_1
_geom_bond_atom_site_label_2
_geom_bond_distance
_geom_bond_site_symmetry_2
_ccdc_geom_bond_type
C0 O1 1.160 1_455 S
C0 O7 1.185 . S
O1 C0 1.160 1_655 S
O2 Zn3 1.899 1_655 S
O2 C10 1.284 . S
Zn3 O2 1.899 1_455 S
Zn3 O4 2.032 . S
Zn3 O7 2.086 . S
Zn3 O12 1.977 . S
O4 Zn3 2.032 . S
O4 C8 1.278 . S
C5 O6 1.203 . S
C5 O12 1.267 . S
O6 C5 1.203 . S
O7 C0 1.185 . S
O7 Zn3 2.086 . S
C8 O4 1.278 . S
C8 O9 1.211 . S
O9 C8 1.211 . S
C10 O2 1.284 . S
C10 O11 1.273 . S
O11 C10 1.273 . S
O12 Zn3 1.977 . S
O12 C5 1.267 . S
C13 O14 1.160 1_565 S
C13 O20 1.185 . S
O14 C13 1.160 1_545 S
O15 Zn16 1.899 1_545 S
O15 C23 1.284 . S
Zn16 O15 1.899 1_565 S
Zn16 O17 2.032 . S
Zn16 O20 2.086 . S
Zn16 O25 1.977 . S
O17 Zn16 2.032 . S
O17 C21 1.278 . S
C18 O19 1.203 . S
C18 O25 1.267 . S
O19 C18 1.203 . S
O20 C13 1.185 . S
O20 Zn16 2.086 . S
C21 O17 1.278 . S
C21 O22 1.211 . S
O22 C21 1.211 . S
C23 O15 1.284 . S
C23 O24 1.273 . S
O24 C23 1.273 . S
O25 Zn16 1.977 . S
O25 C18 1.267 . S
C26 O27 1.160 1_655 S
C26 O33 1.185 . S
O27 C26 1.160 1_455 S
O28 Zn29 1.899 1_455 S
O28 C36 1.284 . S
Zn29 O28 1.899 1_655 S
Zn29 O30 2.032 . S
Zn29 O33 2.086 . S
Zn29 O38 1.977 . S
O30 Zn29 2.032 . S
O30 C34 1.278 . S
C31 O32 1.203 . S
C31 O38 1.267 . S
O32 C31 1.203 . S
O33 C26 1.185 . S
O33 Zn29 2.086 . S
C34 O30 1.278 . S
C34 O35 1.211 . S
O35 C34 1.211 . S
C36 O28 1.284 . S
C36 O37 1.273 . S
O37 C36 1.273 . S
O38 Zn29 1.977 . S
O38 C31 1.267 . S
C39 O40 1.160 1_545 S
C39 O46 1.185 . S
O40 C39 1.160 1_565 S
O41 Zn42 1.899 1_565 S
O41 C49 1.284 . S
Zn42 O41 1.899 1_545 S
Zn42 O43 2.032 . S
Zn42 O46 2.086 . S
Zn42 O51 1.977 . S
O43 Zn42 2.032 . S
O43 C47 1.278 . S
C44 O45 1.203 . S
C44 O51 1.267 . S
O45 C44 1.203 . S
O46 C39 1.185 . S
O46 Zn42 2.086 . S
C47 O43 1.278 . S
C47 O48 1.211 . S
O48 C47 1.211 . S
C49 O41 1.284 . S
C49 O50 1.273 . S
O50 C49 1.273 . S
O51 Zn42 1.977 . S
O51 C44 1.267 . S
C52 O53 1.160 1_655 S
C52 O59 1.185 . S
O53 C52 1.160 1_455 S
O54 Zn55 1.899 1_455 S
O54 C62 1.284 . S
Zn55 O54 1.899 1_655 S
Zn55 O56 2.032 . S
Zn55 O59 2.086 . S
Zn55 O64 1.977 . S
O56 Zn55 2.032 . S
O56 C60 1.278 . S
C57 O58 1.203 . S
C57 O64 1.267 . S
O58 C57 1.203 . S
O59 C52 1.185 . S
O59 Zn55 2.086 . S
C60 O56 1.278 . S
C60 O61 1.211 . S
O61 C60 1.211 . S
C62 O54 1.284 . S
C62 O63 1.273 . S
O63 C62 1.273 . S
O64 Zn55 1.977 . S
O64 C57 1.267 . S
C65 O66 1.160 1_545 S
C65 O72 1.185 . S
O66 C65 1.160 1_565 S
O67 Zn68 1.899 1_565 S
O67 C75 1.284 . S
Zn68 O67 1.899 1_545 S
Zn68 O69 2.032 . S
Zn68 O72 2.086 . S
Zn68 O77 1.977 . S
O69 Zn68 2.032 . S
O69 C73 1.278 . S
C70 O71 1.203 . S
C70 O77 1.267 . S
O71 C70 1.203 . S
O72 C65 1.185 . S
O72 Zn68 2.086 . S
C73 O69 1.278 . S
C73 O74 1.211 . S
O74 C73 1.211 . S
C75 O67 1.284 . S
C75 O76 1.273 . S
O76 C75 1.273 . S
O77 Zn68 1.977 . S
O77 C70 1.267 . S
C78 O79 1.160 1_455 S
C78 O85 1.185 . S
O79 C78 1.160 1_655 S
O80 Zn81 1.899 1_655 S
O80 C88 1.284 . S
Zn81 O80 1.899 1_455 S
Zn81 O82 2.032 . S
Zn81 O85 2.086 . S
Zn81 O90 1.977 . S
O82 Zn81 2.032 . S
O82 C86 1.278 . S
C83 O84 1.203 . S
C83 O90 1.267 . S
O84 C83 1.203 . S
O85 C78 1.185 . S
O85 Zn81 2.086 . S
C86 O82 1.278 . S
C86 O87 1.211 . S
O87 C86 1.211 . S
C88 O80 1.284 . S
C88 O89 1.273 . S
O89 C88 1.273 . S
O90 Zn81 1.977 . S
O90 C83 1.267 . S
C91 O92 1.160 1_565 S
C91 O98 1.185 . S
O92 C91 1.160 1_545 S
O93 Zn94 1.899 1_545 S
O93 C101 1.284 . S
Zn94 O93 1.899 1_565 S
Zn94 O95 2.032 . S
Zn94 O98 2.086 . S
Zn94 O103 1.977 . S
O95 Zn94 2.032 . S
O95 C99 1.278 . S
C96 O97 1.203 . S
C96 O103 1.267 . S
O97 C96 1.203 . S
O98 C91 1.185 . S
O98 Zn94 2.086 . S
C99 O95 1.278 . S
C99 O100 1.211 . S
O100 C99 1.211 . S
C101 O93 1.284 . S
C101 O102 1.273 . S
O102 C101 1.273 . S
O103 Zn94 1.977 . S
O103 C96 1.267 . S
C26 C0 1.210 1_655 S
C39 C13 1.210 1_545 S
C52 C78 1.210 1_655 S
C65 C91 1.210 1_545 S
C23 C5 1.303 . S
C18 C36 1.303 . S
C49 C31 1.303 . S
C44 C10 1.303 . S
C101 C57 1.303 1_556 S
C70 C62 1.303 1_556 S
C83 C75 1.303 1_554 S
C96 C88 1.303 1_556 S
C8 C73 1.646 . S
C86 C21 1.646 . S
C34 C99 1.646 . S
C47 C60 1.646 . S
