# Generated by pormake.
# Topology qtz-x, (6)-cn, num edge types: 1
# Building blocks:
#     Node 0, Type 0, BuildingBlock: BETDEL_clean_sbu_0, # of connection points: 6
#     Node 1, Type 0, BuildingBlock: BETDEL_clean_sbu_0, # of connection points: 6
#     Node 2, Type 0, BuildingBlock: BETDEL_clean_sbu_0, # of connection points: 6
#     Edge 3, Type (0, 0), BuildingBlock: KIFKEQ_clean_linker_1, # of connection points: 2
#     Edge 4, Type (0, 0), BuildingBlock: KIFKEQ_clean_linker_1, # of connection points: 2
#     Edge 5, Type (0, 0), BuildingBlock: KIFKEQ_clean_linker_1, # of connection points: 2
#     Edge 6, Type (0, 0), BuildingBlock: KIFKEQ_clean_linker_1, # of connection points: 2
#     Edge 7, Type (0, 0), BuildingBlock: KIFKEQ_clean_linker_1, # of connection points: 2
#     Edge 8, Type (0, 0), BuildingBlock: KIFKEQ_clean_linker_1, # of connection points: 2
#     Edge 9, Type (0, 0), BuildingBlock: KIFKEQ_clean_linker_1, # of connection points: 2
#     Edge 10, Type (0, 0), BuildingBlock: KIFKEQ_clean_linker_1, # of connection points: 2
#     Edge 11, Type (0, 0), BuildingBlock: KIFKEQ_clean_linker_1, # of connection points: 2
# Relax obj value: 0.133
# Max RMSD: 0.215
# Mean RMSD: 0.211
data_MOF--net-qtz-x--node1-BETDEL_clean_sbu_0--edge1-KIFKEQ_clean_linker_1
_symmetry_space_group_name_H-M    P1
_symmetry_Int_Tables_number       1
_symmetry_cell_setting            triclinic
loop_
_symmetry_equiv_pos_as_xyz
'x, y, z'
_cell_length_a     14.818553
_cell_length_b     14.837746
_cell_length_c     42.989771
_cell_angle_alpha  85.420072
_cell_angle_beta   96.989308
_cell_angle_gamma 120.36905
loop_
_atom_site_label
_atom_site_type_symbol
_atom_site_fract_x
_atom_site_fract_y
_atom_site_fract_z
_atom_type_partial_charge
Dy0 Dy 0.93738 0.46948 0.20657 0.0
C1 C 0.26431 0.70344 0.13017 0.0
C2 C 0.80486 0.35194 0.25137 0.0
Dy3 Dy 0.1308 0.59124 0.17518 0.0
O4 O 0.79286 0.41704 0.23175 0.0
O5 O 0.8853 0.34648 0.24505 0.0
O6 O 0.88485 0.58347 0.1909 0.0
O7 O 0.0463 0.63948 0.20187 0.0
C8 C 0.97822 0.6646 0.19135 0.0
C9 C 0.08713 0.39522 0.19092 0.0
O10 O 0.20642 0.65293 0.22261 0.0
O11 O 0.06777 0.51418 0.24553 0.0
O12 O 0.27186 0.6357 0.14969 0.0
O13 O 0.18835 0.71568 0.13705 0.0
O14 O 0.18105 0.47576 0.19259 0.0
O15 O 0.02115 0.42189 0.17957 0.0
O16 O 0.86217 0.4095 0.15849 0.0
O17 O 0.00382 0.54484 0.13567 0.0
C18 C 0.16516 0.59415 0.24748 0.0
C19 C 0.90667 0.46508 0.13342 0.0
Dy20 Dy 0.60836 0.14364 0.54127 0.0
C21 C 0.47105 0.79936 0.46588 0.0
C22 C 0.68147 0.29309 0.58577 0.0
Dy23 Dy 0.50914 0.94349 0.50893 0.0
O24 O 0.72682 0.24281 0.57933 0.0
O25 O 0.59606 0.26437 0.56697 0.0
O26 O 0.75829 0.18767 0.52164 0.0
O27 O 0.66064 0.03158 0.5358 0.0
C28 C 0.74515 0.09424 0.52388 0.0
C29 C 0.36688 -0.01258 0.52477 0.0
O30 O 0.5192 0.88011 0.55714 0.0
O31 O 0.53096 0.023 0.57898 0.0
O32 O 0.40363 0.79233 0.48399 0.0
O33 O 0.56098 0.88245 0.47265 0.0
O34 O 0.35239 0.89374 0.52394 0.0
O35 O 0.45424 0.05378 0.51476 0.0
O36 O 0.60814 0.21524 0.49347 0.0
O37 O 0.5516 0.05951 0.46882 0.0
C38 C 0.51438 0.92642 0.58143 0.0
C39 C 0.58578 0.16095 0.46783 0.0
Dy40 Dy 0.4866 0.61055 0.87044 0.0
C41 C 0.7277 0.5259 0.79971 0.0
C42 C 0.37484 0.63928 0.91109 0.0
Dy43 Dy 0.60745 0.5335 0.84177 0.0
O44 O 0.44849 0.71291 0.89565 0.0
O45 O 0.3584 0.54944 0.9029 0.0
O46 O 0.59777 0.77305 0.85436 0.0
O47 O 0.65537 0.67129 0.86875 0.0
C48 C 0.67912 0.76093 0.85741 0.0
C49 C 0.41605 0.38041 0.85445 0.0
O50 O 0.67372 0.52956 0.8908 0.0
O51 O 0.54252 0.54046 0.91146 0.0
O52 O 0.66733 0.44791 0.81732 0.0
O53 O 0.72728 0.60898 0.80681 0.0
O54 O 0.49729 0.36847 0.85529 0.0
O55 O 0.43839 0.47089 0.84405 0.0
O56 O 0.41854 0.61373 0.82103 0.0
O57 O 0.5442 0.59326 0.80052 0.0
C58 C 0.62184 0.52185 0.9148 0.0
C59 C 0.46613 0.6132 0.79689 0.0
H60 H 0.16501 0.85019 0.19126 0.0
H61 H 0.83014 0.72143 0.18943 0.0
H62 H 0.19063 0.02669 0.19064 0.0
H63 H 0.85516 0.89561 0.19065 0.0
H64 H 0.91829 0.22228 0.16391 0.0
H65 H 0.89486 0.04783 0.16236 0.0
H66 H 0.18778 0.14946 0.22061 0.0
H67 H 0.2132 0.32512 0.22048 0.0
C68 C 0.09709 0.85977 0.19089 0.0
C69 C -0.00425 0.77217 0.19035 0.0
C70 C 0.11155 0.96083 0.19082 0.0
C71 C 0.02498 0.97632 0.19067 0.0
C72 C 0.92376 0.88786 0.19012 0.0
C73 C 0.90937 0.78744 0.18966 0.0
C74 C 0.97719 0.20685 0.17649 0.0
C75 C 0.06755 0.28704 0.19228 0.0
C76 C 0.9638 0.10661 0.17575 0.0
C77 C 0.03955 0.08363 0.19132 0.0
C78 C 0.12881 0.16405 0.20773 0.0
C79 C 0.14295 0.26463 0.20798 0.0
H80 H 0.37027 0.17411 0.52536 0.0
H81 H 0.1618 0.83999 0.52623 0.0
H82 H 0.21938 0.19948 0.52554 0.0
H83 H 0.01174 0.86442 0.5246 0.0
H84 H 0.92146 0.2126 0.49409 0.0
H85 H 0.0724 0.18814 0.49451 0.0
H86 H 0.91968 0.91089 0.55318 0.0
H87 H 0.76696 0.93293 0.55115 0.0
C88 C 0.29222 0.10631 0.52547 0.0
C89 C 0.27784 0.00528 0.52582 0.0
C90 C 0.20551 0.12056 0.52528 0.0
C91 C 0.10262 0.03396 0.52502 0.0
C92 C 0.08927 0.93311 0.52544 0.0
C93 C 0.17566 0.91903 0.52614 0.0
C94 C 0.92009 0.14586 0.50677 0.0
C95 C 0.83259 0.07441 0.52248 0.0
C96 C 0.00713 0.13242 0.50734 0.0
C97 C 0.00928 0.04791 0.52406 0.0
C98 C 0.92073 0.976 0.53959 0.0
C99 C 0.83302 -0.01142 0.53855 0.0
H100 H 0.74052 0.94855 0.82764 0.0
H101 H 0.86161 0.77257 0.88416 0.0
H102 H 0.91775 0.09795 0.82676 0.0
H103 H 0.03848 0.92346 0.88497 0.0
H104 H 0.3559 0.17451 0.85661 0.0
H105 H 0.17945 0.02526 0.85607 0.0
H106 H 0.05519 0.23375 0.85612 0.0
H107 H 0.23285 0.38374 0.85477 0.0
C108 C 0.80537 0.94221 0.84 0.0
C109 C 0.78753 0.84907 0.8559 0.0
C110 C 0.90704 0.0283 0.83981 0.0
C111 C -0.00664 0.02393 0.85597 0.0
C112 C 0.97487 0.92989 0.87178 0.0
C113 C 0.8733 0.84321 0.87148 0.0
C114 C 0.29086 0.18852 0.8565 0.0
C115 C 0.30809 0.29083 0.85564 0.0
C116 C 0.18928 0.1026 0.85645 0.0
C117 C 0.102 0.11647 0.85613 0.0
C118 C 0.11978 0.21942 0.85577 0.0
C119 C 0.22167 0.30564 0.85528 0.0
H120 H 0.27031 0.49388 0.95547 0.0
H121 H 0.41146 0.82381 0.93312 0.0
H122 H 0.2531 0.52647 1.00861 0.0
H123 H 0.39253 0.85612 0.98643 0.0
H124 H 0.22249 0.81026 0.08104 0.0
H125 H 0.24404 0.80248 0.02579 0.0
H126 H 0.40509 0.62999 0.0527 0.0
H127 H 0.38528 0.63896 0.10767 0.0
C128 C 0.29511 0.573 0.96165 0.0
C129 C 0.34251 0.65635 0.94022 0.0
C130 C 0.28631 0.59177 0.99216 0.0
C131 C 0.32338 0.69405 1.00171 0.0
C132 C 0.36389 0.77668 0.97965 0.0
C133 C 0.3742 0.75807 0.94918 0.0
C134 C 0.26555 0.77379 0.0752 0.0
C135 C 0.30191 0.72489 0.09865 0.0
C136 C 0.27716 0.76874 0.0436 0.0
C137 C 0.32405 0.71359 0.03504 0.0
C138 C 0.36684 0.67127 0.05868 0.0
C139 C 0.35655 0.67749 0.09017 0.0
H140 H 0.45234 0.09883 0.41508 0.0
H141 H 0.76487 0.33131 0.45016 0.0
H142 H 0.49845 0.1503 0.36118 0.0
H143 H 0.81216 0.38113 0.3961 0.0
H144 H 0.87782 0.28386 0.30344 0.0
H145 H 0.81996 0.25508 0.35597 0.0
H146 H 0.57069 0.31678 0.32074 0.0
H147 H 0.6306 0.34877 0.26799 0.0
C148 C 0.52983 0.16344 0.41115 0.0
C149 C 0.60482 0.21214 0.43664 0.0
C150 C 0.55625 0.19245 0.38037 0.0
C151 C 0.659 0.2688 0.37458 0.0
C152 C 0.73244 0.32164 0.40004 0.0
C153 C 0.70519 0.29422 0.43088 0.0
C154 C 0.80978 0.28993 0.30676 0.0
C155 C 0.75819 0.31785 0.2816 0.0
C156 C 0.77768 0.27491 0.3369 0.0
C157 C 0.69209 0.28552 0.34243 0.0
C158 C 0.63745 0.309 0.31707 0.0
C159 C 0.67112 0.3264 0.28694 0.0
H160 H 0.49202 0.54674 0.74383 0.0
H161 H 0.37795 0.7354 0.77647 0.0
H162 H 0.48495 0.61328 0.69108 0.0
H163 H 0.3666 0.80022 0.72259 0.0
H164 H 0.53255 0.00879 0.63784 0.0
H165 H 0.49359 0.91941 0.68842 0.0
H166 H 0.39015 0.62598 0.64473 0.0
H167 H 0.43318 0.71667 0.5941 0.0
C168 C 0.46268 0.60077 0.73954 0.0
C169 C 0.43689 0.63702 0.76443 0.0
C170 C 0.45773 0.6384 0.70906 0.0
C171 C 0.42622 0.71314 0.70243 0.0
C172 C 0.39309 0.74404 0.72697 0.0
C173 C 0.39824 0.70611 0.75776 0.0
C174 C 0.50108 0.92505 0.63894 0.0
C175 C 0.48726 0.87003 0.61195 0.0
C176 C 0.47746 0.87347 0.668 0.0
C177 C 0.43853 0.76525 0.67083 0.0
C178 C 0.42151 0.70966 0.64358 0.0
C179 C 0.44622 0.76156 0.61452 0.0
H180 H 0.75584 0.4456 0.93082 0.0
H181 H 0.55536 0.5305 0.97046 0.0
H182 H 0.80881 0.40238 0.98319 0.0
H183 H 0.61103 0.49102 1.02277 0.0
H184 H 0.69382 0.37223 0.11512 0.0
H185 H 0.61243 0.3636 0.06125 0.0
H186 H 0.91806 0.50149 0.02663 0.0
H187 H -0.0029 0.5068 0.07942 0.0
C188 C 0.72327 0.4553 0.95069 0.0
C189 C 0.65251 0.49284 0.94644 0.0
C190 C 0.75354 0.43047 0.98075 0.0
C191 C 0.71474 0.44377 1.00733 0.0
C192 C 0.64142 0.47827 1.00291 0.0
C193 C 0.61043 0.50213 0.97285 0.0
C194 C 0.74254 0.39793 0.0958 0.0
C195 C 0.85173 0.44116 0.1015 0.0
C196 C 0.69639 0.39409 0.06501 0.0
C197 C 0.75878 0.43267 0.03953 0.0
C198 C 0.86701 0.46988 0.0454 0.0
C199 C 0.91265 0.47388 0.07588 0.0
H200 H 0.13027 0.45696 0.29633 0.0
H201 H 0.33802 0.77723 0.26875 0.0
H202 H 0.21775 0.49088 0.34909 0.0
H203 H 0.42405 0.81257 0.32225 0.0
H204 H 0.59314 0.84055 0.41813 0.0
H205 H 0.53142 0.78138 0.3642 0.0
H206 H 0.217 0.583 0.39173 0.0
H207 H 0.27927 0.64028 0.44541 0.0
C208 C 0.19495 0.53487 0.30155 0.0
C209 C 0.22633 0.61502 0.2785 0.0
C210 C 0.245 0.55428 0.33188 0.0
C211 C 0.32699 0.6547 0.3401 0.0
C212 C 0.36173 0.73396 0.31666 0.0
C213 C 0.31214 0.7141 0.28606 0.0
C214 C 0.51155 0.7818 0.41275 0.0
C215 C 0.44078 0.74509 0.43588 0.0
C216 C 0.47595 0.74897 0.3818 0.0
C217 C 0.36902 0.67856 0.3735 0.0
C218 C 0.30006 0.63658 0.39724 0.0
C219 C 0.33563 0.66939 0.42809 0.0
H220 H 0.77059 0.65816 0.74913 0.0
H221 H 0.74223 0.36242 0.78124 0.0
H222 H 0.77508 0.6188 0.69536 0.0
H223 H 0.74963 0.32444 0.7275 0.0
H224 H 0.84092 0.32653 0.63001 0.0
H225 H 0.87405 0.39862 0.6819 0.0
H226 H 0.6235 0.46798 0.65907 0.0
H227 H 0.58846 0.39341 0.607 0.0
C228 C 0.76886 0.5863 0.74486 0.0
C229 C 0.7564 0.51328 0.76935 0.0
C230 C 0.77035 0.56352 0.71405 0.0
C231 C 0.76197 0.46846 0.70733 0.0
C232 C 0.7567 0.39858 0.73212 0.0
C233 C 0.75287 0.42035 0.76284 0.0
C234 C 0.79396 0.35881 0.63579 0.0
C235 C 0.71163 0.35393 0.61454 0.0
C236 C 0.81285 0.39964 0.66555 0.0
C237 C 0.75101 0.43814 0.67449 0.0
C238 C 0.67269 0.43919 0.65261 0.0
C239 C 0.65258 0.39663 0.62289 0.0
loop_
_geom_bond_atom_site_label_1
_geom_bond_atom_site_label_2
_geom_bond_distance
_geom_bond_site_symmetry_2
_ccdc_geom_bond_type
Dy0 O4 2.398 . S
Dy0 O5 2.491 . S
Dy0 O6 2.403 . S
Dy0 O7 2.664 1_655 S
Dy0 O11 2.326 1_655 S
Dy0 O15 2.310 . S
Dy0 O16 2.351 . S
C1 O12 1.185 . S
C1 O13 1.355 . S
C2 O4 1.185 . S
C2 O5 1.355 . S
Dy3 O7 2.310 . S
Dy3 O10 2.351 . S
Dy3 O12 2.398 . S
Dy3 O13 2.491 . S
Dy3 O14 2.403 . S
Dy3 O15 2.664 1_455 S
Dy3 O17 2.326 1_455 S
O4 Dy0 2.398 . S
O4 C2 1.185 . S
O5 Dy0 2.491 . S
O5 C2 1.355 . S
O6 Dy0 2.403 . S
O6 C8 1.254 . S
O7 Dy0 2.664 1_455 S
O7 Dy3 2.310 . S
O7 C8 1.268 1_455 S
C8 O6 1.254 . S
C8 O7 1.268 1_655 S
C9 O14 1.254 . S
C9 O15 1.268 1_455 S
O10 Dy3 2.351 . S
O10 C18 1.249 . S
O11 Dy0 2.326 1_455 S
O11 C18 1.267 . S
O12 C1 1.185 . S
O12 Dy3 2.398 . S
O13 C1 1.355 . S
O13 Dy3 2.491 . S
O14 Dy3 2.403 . S
O14 C9 1.254 . S
O15 Dy0 2.310 . S
O15 Dy3 2.664 1_655 S
O15 C9 1.268 1_655 S
O16 Dy0 2.351 . S
O16 C19 1.249 . S
O17 Dy3 2.326 1_655 S
O17 C19 1.267 . S
C18 O10 1.249 . S
C18 O11 1.267 . S
C19 O16 1.249 . S
C19 O17 1.267 . S
Dy20 O24 2.398 . S
Dy20 O25 2.491 . S
Dy20 O26 2.403 . S
Dy20 O27 2.664 1_545 S
Dy20 O31 2.326 1_545 S
Dy20 O35 2.310 . S
Dy20 O36 2.351 . S
C21 O32 1.185 . S
C21 O33 1.355 . S
C22 O24 1.185 . S
C22 O25 1.355 . S
Dy23 O27 2.310 . S
Dy23 O30 2.351 . S
Dy23 O32 2.398 . S
Dy23 O33 2.491 . S
Dy23 O34 2.403 . S
Dy23 O35 2.664 1_565 S
Dy23 O37 2.326 1_565 S
O24 Dy20 2.398 . S
O24 C22 1.185 . S
O25 Dy20 2.491 . S
O25 C22 1.355 . S
O26 Dy20 2.403 . S
O26 C28 1.254 . S
O27 Dy20 2.664 1_565 S
O27 Dy23 2.310 . S
O27 C28 1.268 1_565 S
C28 O26 1.254 . S
C28 O27 1.268 1_545 S
C29 O34 1.254 . S
C29 O35 1.268 1_565 S
O30 Dy23 2.351 . S
O30 C38 1.249 . S
O31 Dy20 2.326 1_565 S
O31 C38 1.267 . S
O32 C21 1.185 . S
O32 Dy23 2.398 . S
O33 C21 1.355 . S
O33 Dy23 2.491 . S
O34 Dy23 2.403 . S
O34 C29 1.254 . S
O35 Dy20 2.310 . S
O35 Dy23 2.664 1_545 S
O35 C29 1.268 1_545 S
O36 Dy20 2.351 . S
O36 C39 1.249 . S
O37 Dy23 2.326 1_545 S
O37 C39 1.267 . S
C38 O30 1.249 . S
C38 O31 1.267 . S
C39 O36 1.249 . S
C39 O37 1.267 . S
Dy40 O44 2.398 . S
Dy40 O45 2.491 . S
Dy40 O46 2.403 . S
Dy40 O47 2.664 . S
Dy40 O51 2.326 . S
Dy40 O55 2.310 . S
Dy40 O56 2.351 . S
C41 O52 1.185 . S
C41 O53 1.355 . S
C42 O44 1.185 . S
C42 O45 1.355 . S
Dy43 O47 2.310 . S
Dy43 O50 2.351 . S
Dy43 O52 2.398 . S
Dy43 O53 2.491 . S
Dy43 O54 2.403 . S
Dy43 O55 2.664 . S
Dy43 O57 2.326 . S
O44 Dy40 2.398 . S
O44 C42 1.185 . S
O45 Dy40 2.491 . S
O45 C42 1.355 . S
O46 Dy40 2.403 . S
O46 C48 1.254 . S
O47 Dy40 2.664 . S
O47 Dy43 2.310 . S
O47 C48 1.268 . S
C48 O46 1.254 . S
C48 O47 1.268 . S
C49 O54 1.254 . S
C49 O55 1.268 . S
O50 Dy43 2.351 . S
O50 C58 1.249 . S
O51 Dy40 2.326 . S
O51 C58 1.267 . S
O52 C41 1.185 . S
O52 Dy43 2.398 . S
O53 C41 1.355 . S
O53 Dy43 2.491 . S
O54 Dy43 2.403 . S
O54 C49 1.254 . S
O55 Dy40 2.310 . S
O55 Dy43 2.664 . S
O55 C49 1.268 . S
O56 Dy40 2.351 . S
O56 C59 1.249 . S
O57 Dy43 2.326 . S
O57 C59 1.267 . S
C58 O50 1.249 . S
C58 O51 1.267 . S
C59 O56 1.249 . S
C59 O57 1.267 . S
H60 C68 0.950 . S
H61 C73 0.950 . S
H62 C70 0.950 . S
H63 C72 0.950 . S
H64 C74 0.950 . S
H65 C76 0.950 . S
H66 C78 0.950 . S
H67 C79 0.950 . S
C68 H60 0.950 . S
C68 C69 1.386 . S
C68 C70 1.391 . S
C69 C68 1.386 . S
C69 C73 1.393 1_455 S
C70 H62 0.950 . S
C70 C68 1.391 . S
C70 C71 1.400 . S
C71 C70 1.400 . S
C71 C72 1.398 1_455 S
C71 C77 1.491 1_465 S
C72 H63 0.950 . S
C72 C71 1.398 1_655 S
C72 C73 1.391 . S
C73 H61 0.950 . S
C73 C69 1.393 1_655 S
C73 C72 1.391 . S
C74 H64 0.950 . S
C74 C75 1.386 . S
C74 C76 1.391 . S
C75 C74 1.386 . S
C75 C79 1.393 1_655 S
C76 H65 0.950 . S
C76 C74 1.391 . S
C76 C77 1.400 . S
C77 C71 1.491 1_645 S
C77 C76 1.400 . S
C77 C78 1.398 1_655 S
C78 H66 0.950 . S
C78 C77 1.398 1_455 S
C78 C79 1.391 . S
C79 H67 0.950 . S
C79 C75 1.393 1_455 S
C79 C78 1.391 . S
H80 C88 0.950 . S
H81 C93 0.950 . S
H82 C90 0.950 . S
H83 C92 0.950 . S
H84 C94 0.950 . S
H85 C96 0.950 . S
H86 C98 0.950 1_455 S
H87 C99 0.950 . S
C88 H80 0.950 . S
C88 C89 1.386 . S
C88 C90 1.391 . S
C89 C88 1.386 . S
C89 C93 1.393 1_545 S
C90 H82 0.950 . S
C90 C88 1.391 . S
C90 C91 1.400 . S
C91 C90 1.400 . S
C91 C92 1.398 1_545 S
C91 C97 1.490 . S
C92 H83 0.950 . S
C92 C91 1.398 1_565 S
C92 C93 1.391 . S
C93 H81 0.950 . S
C93 C89 1.393 1_565 S
C93 C92 1.391 . S
C94 H84 0.950 . S
C94 C95 1.386 . S
C94 C96 1.391 . S
C95 C94 1.386 . S
C95 C99 1.393 1_565 S
C96 H85 0.950 . S
C96 C94 1.391 . S
C96 C97 1.400 1_665 S
C97 C91 1.490 . S
C97 C96 1.400 1_445 S
C97 C98 1.399 1_455 S
C98 H86 0.950 1_655 S
C98 C97 1.399 1_655 S
C98 C99 1.391 . S
C99 H87 0.950 . S
C99 C95 1.393 1_545 S
C99 C98 1.391 . S
H100 C108 0.950 . S
H101 C113 0.950 . S
H102 C110 0.950 . S
H103 C112 0.950 1_545 S
H104 C114 0.950 . S
H105 C116 0.950 . S
H106 C118 0.950 . S
H107 C119 0.950 . S
C108 H100 0.950 . S
C108 C109 1.386 . S
C108 C110 1.391 1_565 S
C109 C108 1.386 . S
C109 C113 1.393 . S
C110 H102 0.950 . S
C110 C108 1.391 1_545 S
C110 C111 1.400 1_655 S
C111 C110 1.400 1_455 S
C111 C112 1.398 1_545 S
C111 C117 1.491 . S
C112 H103 0.950 1_565 S
C112 C111 1.398 1_565 S
C112 C113 1.391 1_455 S
C113 H101 0.950 . S
C113 C109 1.393 . S
C113 C112 1.391 1_655 S
C114 H104 0.950 . S
C114 C115 1.386 . S
C114 C116 1.391 . S
C115 C114 1.386 . S
C115 C119 1.393 . S
C116 H105 0.950 . S
C116 C114 1.391 . S
C116 C117 1.400 . S
C117 C111 1.491 . S
C117 C116 1.400 . S
C117 C118 1.398 . S
C118 H106 0.950 . S
C118 C117 1.398 . S
C118 C119 1.391 . S
C119 H107 0.950 . S
C119 C115 1.393 . S
C119 C118 1.391 . S
H120 C128 0.950 . S
H121 C133 0.950 . S
H122 C130 0.950 . S
H123 C132 0.950 . S
H124 C134 0.950 . S
H125 C136 0.950 . S
H126 C138 0.950 . S
H127 C139 0.950 . S
C128 H120 0.950 . S
C128 C129 1.386 . S
C128 C130 1.391 . S
C129 C128 1.386 . S
C129 C133 1.393 . S
C130 H122 0.950 . S
C130 C128 1.391 . S
C130 C131 1.400 . S
C131 C130 1.400 . S
C131 C132 1.398 . S
C131 C137 1.491 1_556 S
C132 H123 0.950 . S
C132 C131 1.398 . S
C132 C133 1.391 . S
C133 H121 0.950 . S
C133 C129 1.393 . S
C133 C132 1.391 . S
C134 H124 0.950 . S
C134 C135 1.386 . S
C134 C136 1.391 . S
C135 C134 1.386 . S
C135 C139 1.393 . S
C136 H125 0.950 . S
C136 C134 1.391 . S
C136 C137 1.400 . S
C137 C131 1.491 1_554 S
C137 C136 1.400 . S
C137 C138 1.398 . S
C138 H126 0.950 . S
C138 C137 1.398 . S
C138 C139 1.391 . S
C139 H127 0.950 . S
C139 C135 1.393 . S
C139 C138 1.391 . S
H140 C148 0.950 . S
H141 C153 0.950 . S
H142 C150 0.950 . S
H143 C152 0.950 . S
H144 C154 0.950 . S
H145 C156 0.950 . S
H146 C158 0.950 . S
H147 C159 0.950 . S
C148 H140 0.950 . S
C148 C149 1.386 . S
C148 C150 1.391 . S
C149 C148 1.386 . S
C149 C153 1.393 . S
C150 H142 0.950 . S
C150 C148 1.391 . S
C150 C151 1.400 . S
C151 C150 1.400 . S
C151 C152 1.398 . S
C151 C157 1.491 . S
C152 H143 0.950 . S
C152 C151 1.398 . S
C152 C153 1.391 . S
C153 H141 0.950 . S
C153 C149 1.393 . S
C153 C152 1.391 . S
C154 H144 0.950 . S
C154 C155 1.386 . S
C154 C156 1.391 . S
C155 C154 1.386 . S
C155 C159 1.393 . S
C156 H145 0.950 . S
C156 C154 1.391 . S
C156 C157 1.400 . S
C157 C151 1.491 . S
C157 C156 1.400 . S
C157 C158 1.398 . S
C158 H146 0.950 . S
C158 C157 1.398 . S
C158 C159 1.391 . S
C159 H147 0.950 . S
C159 C155 1.393 . S
C159 C158 1.391 . S
H160 C168 0.950 . S
H161 C173 0.950 . S
H162 C170 0.950 . S
H163 C172 0.950 . S
H164 C174 0.950 . S
H165 C176 0.950 . S
H166 C178 0.950 . S
H167 C179 0.950 . S
C168 H160 0.950 . S
C168 C169 1.386 . S
C168 C170 1.391 . S
C169 C168 1.386 . S
C169 C173 1.393 . S
C170 H162 0.950 . S
C170 C168 1.391 . S
C170 C171 1.400 . S
C171 C170 1.400 . S
C171 C172 1.398 . S
C171 C177 1.491 . S
C172 H163 0.950 . S
C172 C171 1.398 . S
C172 C173 1.391 . S
C173 H161 0.950 . S
C173 C169 1.393 . S
C173 C172 1.391 . S
C174 H164 0.950 . S
C174 C175 1.386 . S
C174 C176 1.391 . S
C175 C174 1.386 . S
C175 C179 1.393 . S
C176 H165 0.950 . S
C176 C174 1.391 . S
C176 C177 1.400 . S
C177 C171 1.491 . S
C177 C176 1.400 . S
C177 C178 1.398 . S
C178 H166 0.950 . S
C178 C177 1.398 . S
C178 C179 1.391 . S
C179 H167 0.950 . S
C179 C175 1.393 . S
C179 C178 1.391 . S
H180 C188 0.950 . S
H181 C193 0.950 . S
H182 C190 0.950 . S
H183 C192 0.950 . S
H184 C194 0.950 . S
H185 C196 0.950 . S
H186 C198 0.950 . S
H187 C199 0.950 . S
C188 H180 0.950 . S
C188 C189 1.386 . S
C188 C190 1.391 . S
C189 C188 1.386 . S
C189 C193 1.393 . S
C190 H182 0.950 . S
C190 C188 1.391 . S
C190 C191 1.400 . S
C191 C190 1.400 . S
C191 C192 1.398 . S
C191 C197 1.491 1_556 S
C192 H183 0.950 . S
C192 C191 1.398 . S
C192 C193 1.391 . S
C193 H181 0.950 . S
C193 C189 1.393 . S
C193 C192 1.391 . S
C194 H184 0.950 . S
C194 C195 1.386 . S
C194 C196 1.391 . S
C195 C194 1.386 . S
C195 C199 1.393 . S
C196 H185 0.950 . S
C196 C194 1.391 . S
C196 C197 1.400 . S
C197 C191 1.491 1_554 S
C197 C196 1.400 . S
C197 C198 1.398 . S
C198 H186 0.950 . S
C198 C197 1.398 . S
C198 C199 1.391 . S
C199 H187 0.950 . S
C199 C195 1.393 . S
C199 C198 1.391 . S
H200 C208 0.950 . S
H201 C213 0.950 . S
H202 C210 0.950 . S
H203 C212 0.950 . S
H204 C214 0.950 . S
H205 C216 0.950 . S
H206 C218 0.950 . S
H207 C219 0.950 . S
C208 H200 0.950 . S
C208 C209 1.386 . S
C208 C210 1.391 . S
C209 C208 1.386 . S
C209 C213 1.393 . S
C210 H202 0.950 . S
C210 C208 1.391 . S
C210 C211 1.400 . S
C211 C210 1.400 . S
C211 C212 1.398 . S
C211 C217 1.491 . S
C212 H203 0.950 . S
C212 C211 1.398 . S
C212 C213 1.391 . S
C213 H201 0.950 . S
C213 C209 1.393 . S
C213 C212 1.391 . S
C214 H204 0.950 . S
C214 C215 1.386 . S
C214 C216 1.391 . S
C215 C214 1.386 . S
C215 C219 1.393 . S
C216 H205 0.950 . S
C216 C214 1.391 . S
C216 C217 1.400 . S
C217 C211 1.491 . S
C217 C216 1.400 . S
C217 C218 1.398 . S
C218 H206 0.950 . S
C218 C217 1.398 . S
C218 C219 1.391 . S
C219 H207 0.950 . S
C219 C215 1.393 . S
C219 C218 1.391 . S
H220 C228 0.950 . S
H221 C233 0.950 . S
H222 C230 0.950 . S
H223 C232 0.950 . S
H224 C234 0.950 . S
H225 C236 0.950 . S
H226 C238 0.950 . S
H227 C239 0.950 . S
C228 H220 0.950 . S
C228 C229 1.386 . S
C228 C230 1.391 . S
C229 C228 1.386 . S
C229 C233 1.393 . S
C230 H222 0.950 . S
C230 C228 1.391 . S
C230 C231 1.400 . S
C231 C230 1.400 . S
C231 C232 1.398 . S
C231 C237 1.491 . S
C232 H223 0.950 . S
C232 C231 1.398 . S
C232 C233 1.391 . S
C233 H221 0.950 . S
C233 C229 1.393 . S
C233 C232 1.391 . S
C234 H224 0.950 . S
C234 C235 1.386 . S
C234 C236 1.391 . S
C235 C234 1.386 . S
C235 C239 1.393 . S
C236 H225 0.950 . S
C236 C234 1.391 . S
C236 C237 1.400 . S
C237 C231 1.491 . S
C237 C236 1.400 . S
C237 C238 1.398 . S
C238 H226 0.950 . S
C238 C237 1.398 . S
C238 C239 1.391 . S
C239 H227 0.950 . S
C239 C235 1.393 . S
C239 C238 1.391 . S
C69 C8 1.204 1_455 S
C75 C9 1.204 1_655 S
C89 C29 1.221 1_545 S
C95 C28 1.221 1_565 S
C109 C48 1.186 . S
C115 C49 1.186 . S
C129 C42 1.241 . S
C135 C1 1.231 . S
C149 C39 1.539 . S
C155 C2 1.534 . S
C169 C59 1.587 . S
C175 C38 1.565 . S
C189 C58 1.560 . S
C195 C19 1.573 . S
C209 C18 1.299 . S
C215 C21 1.284 . S
C229 C41 1.227 . S
C235 C22 1.233 . S
