# Generated by pormake.
# Topology smu, (6)-cn, num edge types: 1
# Building blocks:
#     Node 0, Type 0, BuildingBlock: MIDCAF_clean_sbu_0, # of connection points: 6
#     Node 1, Type 0, BuildingBlock: MIDCAF_clean_sbu_0, # of connection points: 6
#     Node 2, Type 0, BuildingBlock: MIDCAF_clean_sbu_0, # of connection points: 6
#     Node 3, Type 0, BuildingBlock: MIDCAF_clean_sbu_0, # of connection points: 6
#     Node 4, Type 0, BuildingBlock: MIDCAF_clean_sbu_0, # of connection points: 6
#     Node 5, Type 0, BuildingBlock: MIDCAF_clean_sbu_0, # of connection points: 6
#     Edge 6, Type (0, 0), BuildingBlock: EYOCIG_clean_linker_4, # of connection points: 2
#     Edge 7, Type (0, 0), BuildingBlock: EYOCIG_clean_linker_4, # of connection points: 2
#     Edge 8, Type (0, 0), BuildingBlock: EYOCIG_clean_linker_4, # of connection points: 2
#     Edge 9, Type (0, 0), BuildingBlock: EYOCIG_clean_linker_4, # of connection points: 2
#     Edge 10, Type (0, 0), BuildingBlock: EYOCIG_clean_linker_4, # of connection points: 2
#     Edge 11, Type (0, 0), BuildingBlock: EYOCIG_clean_linker_4, # of connection points: 2
#     Edge 12, Type (0, 0), BuildingBlock: EYOCIG_clean_linker_4, # of connection points: 2
#     Edge 13, Type (0, 0), BuildingBlock: EYOCIG_clean_linker_4, # of connection points: 2
#     Edge 14, Type (0, 0), BuildingBlock: EYOCIG_clean_linker_4, # of connection points: 2
#     Edge 15, Type (0, 0), BuildingBlock: EYOCIG_clean_linker_4, # of connection points: 2
#     Edge 16, Type (0, 0), BuildingBlock: EYOCIG_clean_linker_4, # of connection points: 2
#     Edge 17, Type (0, 0), BuildingBlock: EYOCIG_clean_linker_4, # of connection points: 2
#     Edge 18, Type (0, 0), BuildingBlock: EYOCIG_clean_linker_4, # of connection points: 2
#     Edge 19, Type (0, 0), BuildingBlock: EYOCIG_clean_linker_4, # of connection points: 2
#     Edge 20, Type (0, 0), BuildingBlock: EYOCIG_clean_linker_4, # of connection points: 2
#     Edge 21, Type (0, 0), BuildingBlock: EYOCIG_clean_linker_4, # of connection points: 2
#     Edge 22, Type (0, 0), BuildingBlock: EYOCIG_clean_linker_4, # of connection points: 2
#     Edge 23, Type (0, 0), BuildingBlock: EYOCIG_clean_linker_4, # of connection points: 2
# Relax obj value: 0.355
# Max RMSD: 0.260
# Mean RMSD: 0.260
data_MOF--net-smu--node1-MIDCAF_clean_sbu_0--edge1-EYOCIG_clean_linker_4
_symmetry_space_group_name_H-M    P1
_symmetry_Int_Tables_number       1
_symmetry_cell_setting            triclinic
loop_
_symmetry_equiv_pos_as_xyz
'x, y, z'
_cell_length_a     23.250984
_cell_length_b     23.252866
_cell_length_c     24.010087
_cell_angle_alpha  89.998498
_cell_angle_beta   89.995696
_cell_angle_gamma 119.97864
loop_
_atom_site_label
_atom_site_type_symbol
_atom_site_fract_x
_atom_site_fract_y
_atom_site_fract_z
_atom_type_partial_charge
Zn0 Zn 0.20135 0.02942 0.18021 0.0
Zn1 Zn 0.38926 0.12595 0.31741 0.0
Zn2 Zn 0.29209 0.0616 0.25034 0.0
C3 C 0.42311 0.05605 0.2411 0.0
C4 C 0.28023 0.03559 0.38006 0.0
O5 O 0.25953 0.13621 0.24621 0.0
O6 O 0.16593 0.08971 0.19841 0.0
C7 C 0.30053 0.02559 0.12298 0.0
O8 O 0.37152 0.04867 0.21527 0.0
O9 O 0.43768 0.08211 0.28885 0.0
O10 O 0.33386 0.08989 0.38555 0.0
O11 O 0.25803 0.01141 0.33139 0.0
O12 O 0.25319 0.03585 0.11237 0.0
O13 O 0.32056 0.02851 0.17348 0.0
O14 O 0.21058 -0.02634 0.28919 0.0
O15 O 0.14968 0.93944 0.21262 0.0
C16 C 0.16052 0.92909 0.26203 0.0
O17 O 0.32735 0.16946 0.24697 0.0
O18 O 0.42314 0.21905 0.29177 0.0
C19 C 0.2061 0.13502 0.23032 0.0
C20 C 0.38148 0.22242 0.26044 0.0
Zn21 Zn 0.77342 0.73063 0.18014 0.0
Zn22 Zn 0.68261 0.54292 0.31731 0.0
Zn23 Zn 0.71508 0.63996 0.25027 0.0
C24 C 0.57857 0.50899 0.24135 0.0
C25 C 0.70141 0.65195 0.38001 0.0
O26 O 0.82224 0.67255 0.24604 0.0
O27 O 0.86914 0.7662 0.19832 0.0
C28 C 0.67046 0.63139 0.12299 0.0
O29 O 0.62266 0.5605 0.21538 0.0
O30 O 0.59024 0.49451 0.28907 0.0
O31 O 0.70224 0.59837 0.38545 0.0
O32 O 0.69914 0.67406 0.33137 0.0
O33 O 0.72804 0.6787 0.11235 0.0
O34 O 0.65338 0.61142 0.17351 0.0
O35 O 0.70866 0.72148 0.28916 0.0
O36 O 0.735 0.78224 0.21253 0.0
C37 C 0.71398 0.77147 0.26199 0.0
O38 O 0.78772 0.60474 0.24662 0.0
O39 O 0.74168 0.50893 0.29141 0.0
C40 C 0.87439 0.72605 0.23019 0.0
C41 C 0.78659 0.55059 0.26 0.0
Zn42 Zn 0.9029 0.1585 0.18003 0.0
Zn43 Zn 0.80593 0.24966 0.31696 0.0
Zn44 Zn 0.87046 0.21697 0.25001 0.0
C45 C 0.87598 0.35349 0.2408 0.0
C46 C 0.89613 0.23091 0.37977 0.0
O47 O 0.79593 0.10983 0.24587 0.0
O48 O 0.84273 0.06283 0.19833 0.0
C49 C 0.9066 0.26137 0.12269 0.0
O50 O 0.88339 0.30932 0.21493 0.0
O51 O 0.84986 0.34195 0.28853 0.0
O52 O 0.84176 0.23016 0.38518 0.0
O53 O 0.92047 0.23303 0.33114 0.0
O54 O 0.8964 0.20379 0.11214 0.0
O55 O 0.90362 0.27851 0.17316 0.0
O56 O 0.95839 0.22349 0.289 0.0
O57 O -0.00713 0.19696 0.21249 0.0
C58 C 0.00309 0.21811 0.26191 0.0
O59 O 0.76262 0.14436 0.24646 0.0
O60 O 0.7129 0.19056 0.29112 0.0
C61 C 0.79729 0.05764 0.23012 0.0
C62 C 0.70962 0.14555 0.25981 0.0
Zn63 Zn 0.01606 0.21486 0.82952 0.0
Zn64 Zn 0.11262 0.40277 0.69237 0.0
Zn65 Zn 0.04823 0.30557 0.7594 0.0
C66 C 0.04265 0.43656 0.76864 0.0
C67 C 0.02232 0.29377 0.62968 0.0
O68 O 0.12284 0.27301 0.7635 0.0
O69 O 0.07631 0.1794 0.81128 0.0
C70 C 0.0122 0.31398 0.88676 0.0
O71 O 0.03528 0.38498 0.79448 0.0
O72 O 0.06873 0.45115 0.7209 0.0
O73 O 0.07664 0.3474 0.62421 0.0
O74 O -0.00191 0.27157 0.67834 0.0
O75 O 0.0225 0.26667 0.89737 0.0
O76 O 0.0151 0.334 0.83626 0.0
O77 O -0.0397 0.22409 0.72053 0.0
O78 O 0.92607 0.16323 0.79713 0.0
C79 C 0.91572 0.17405 0.74771 0.0
O80 O 0.15609 0.34083 0.76284 0.0
O81 O 0.2057 0.43666 0.71809 0.0
C82 C 0.12162 0.21955 0.77936 0.0
C83 C 0.20905 0.39498 0.74942 0.0
Zn84 Zn 0.23626 0.81937 0.69285 0.0
Zn85 Zn 0.14502 0.91635 0.82974 0.0
Zn86 Zn 0.20348 0.88387 0.75977 0.0
C87 C 0.20459 0.01647 0.74779 0.0
C88 C 0.2479 0.92008 0.88708 0.0
O89 O 0.13089 0.77604 0.76333 0.0
O90 O 0.17717 0.72636 0.71873 0.0
C91 C 0.21741 0.90947 0.63 0.0
O92 O 0.20996 0.97176 0.72073 0.0
O93 O 0.18346 0.0063 0.79722 0.0
O94 O 0.19032 0.90991 0.89764 0.0
O95 O 0.26503 0.91707 0.8366 0.0
O96 O 0.21674 0.85514 0.62462 0.0
O97 O 0.2195 0.93382 0.67861 0.0
O98 O 0.29585 0.89688 0.79485 0.0
O99 O 0.32855 0.86336 0.72129 0.0
C100 C 0.34006 0.8895 0.76901 0.0
O101 O 0.09635 0.80931 0.76397 0.0
O102 O 0.04934 0.85615 0.81148 0.0
C103 C 0.13212 0.72306 0.75 0.0
C104 C 0.04415 0.81068 0.77973 0.0
Zn105 Zn 0.52949 0.69622 0.69273 0.0
Zn106 Zn 0.71724 0.787 0.82986 0.0
Zn107 Zn 0.62653 0.72867 0.75975 0.0
C108 C 0.758 0.72748 0.74802 0.0
C109 C 0.61793 0.68409 0.88705 0.0
O110 O 0.59135 0.80135 0.76336 0.0
O111 O 0.49552 0.7553 0.71862 0.0
C112 C 0.6385 0.71496 0.63001 0.0
O113 O 0.70801 0.72218 0.72085 0.0
O114 O 0.76879 0.74852 0.79747 0.0
O115 O 0.66528 0.74166 0.89767 0.0
O116 O 0.59795 0.66701 0.83654 0.0
O117 O 0.58493 0.71582 0.62458 0.0
O118 O 0.6606 0.71268 0.67865 0.0
O119 O 0.54705 0.63627 0.79467 0.0
O120 O 0.48106 0.60386 0.72098 0.0
C121 C 0.49554 0.59218 0.76871 0.0
O122 O 0.65916 0.83582 0.76393 0.0
O123 O 0.75283 0.88272 0.81162 0.0
C124 C 0.5372 0.80023 0.74999 0.0
C125 C 0.71268 0.88797 0.77975 0.0
C126 C 0.32014 0.96084 0.97736 0.0
C127 C 0.295 0.94242 0.93207 0.0
C128 C 0.33211 -0.01516 0.03273 0.0
C129 C 0.32533 0.00324 0.07802 0.0
C130 C 0.69012 0.71306 0.53332 0.0
C131 C 0.67202 0.71407 0.58018 0.0
C132 C 0.69956 0.7036 0.47669 0.0
C133 C 0.70055 0.68549 0.42984 0.0
C134 C 0.94737 0.33357 0.03238 0.0
C135 C 0.92895 0.30845 0.07768 0.0
C136 C -0.02861 0.34552 0.97701 0.0
C137 C -0.01019 0.33874 0.93173 0.0
C138 C 0.2286 -0.01812 0.47668 0.0
C139 C 0.24669 0.00108 0.42985 0.0
C140 C 0.2192 0.96293 0.5333 0.0
C141 C 0.21822 0.94381 0.58014 0.0
C142 C 0.58626 0.61181 0.97732 0.0
C143 C 0.59308 0.63697 0.93202 0.0
C144 C 0.59819 0.59982 0.03272 0.0
C145 C 0.62332 0.60658 0.07803 0.0
C146 C 0.94967 0.23278 0.47644 0.0
C147 C 0.93052 0.23177 0.4296 0.0
C148 C -0.03135 0.2422 0.53304 0.0
C149 C -0.01216 0.26027 0.57988 0.0
C150 C 0.52256 0.04359 0.21135 0.0
C151 C 0.47052 0.04259 0.21532 0.0
C152 C 0.59006 0.06552 0.22131 0.0
C153 C 0.64691 0.09832 0.23616 0.0
C154 C 0.46658 0.40951 0.21194 0.0
C155 C 0.51761 0.46154 0.21575 0.0
C156 C 0.42103 0.34203 0.22199 0.0
C157 C 0.397 0.28517 0.23683 0.0
C158 C 0.88848 0.46544 0.21122 0.0
C159 C 0.88948 0.41439 0.21509 0.0
C160 C 0.86656 0.51101 0.2213 0.0
C161 C 0.83377 0.53506 0.23624 0.0
C162 C 0.03016 0.53598 0.79841 0.0
C163 C 0.02918 0.48396 0.79443 0.0
C164 C 0.05208 0.60348 0.78848 0.0
C165 C 0.08488 0.66034 0.77364 0.0
C166 C 0.45205 0.90213 0.79865 0.0
C167 C 0.40098 0.90307 0.79474 0.0
C168 C 0.49765 0.88023 0.78863 0.0
C169 C 0.52171 0.84744 0.77372 0.0
C170 C 0.32863 0.43458 0.78799 0.0
C171 C 0.27178 0.41052 0.7731 0.0
C172 C 0.39609 0.48016 0.79809 0.0
C173 C 0.4481 0.53122 0.7943 0.0
C174 C 0.1619 0.2099 0.27258 0.0
C175 C 0.18726 0.17904 0.25566 0.0
C176 C 0.11538 0.22933 0.28722 0.0
C177 C 0.06399 0.23001 0.28658 0.0
C178 C -0.00653 0.77033 0.27245 0.0
C179 C 0.93726 0.74494 0.25552 0.0
C180 C 0.05936 0.81681 0.28716 0.0
C181 C 0.11145 0.86816 0.2866 0.0
C182 C 0.72245 0.93863 0.27244 0.0
C183 C 0.75329 -0.00519 0.25547 0.0
C184 C 0.70299 0.87272 0.28716 0.0
C185 C 0.70222 0.8206 0.28661 0.0
C186 C 0.19644 0.1753 0.73707 0.0
C187 C 0.16562 0.2007 0.754 0.0
C188 C 0.21583 0.12876 0.72243 0.0
C189 C 0.2165 0.07736 0.72308 0.0
C190 C 0.92511 0.73581 0.7375 0.0
C191 C -0.01869 0.76665 0.75442 0.0
C192 C 0.85919 0.71638 0.72282 0.0
C193 C 0.80709 0.71566 0.7234 0.0
C194 C 0.80344 0.07289 0.72264 0.0
C195 C 0.85479 0.12498 0.72315 0.0
C196 C 0.75698 0.00701 0.7374 0.0
C197 C 0.7316 0.95082 0.75439 0.0
loop_
_geom_bond_atom_site_label_1
_geom_bond_atom_site_label_2
_geom_bond_distance
_geom_bond_site_symmetry_2
_ccdc_geom_bond_type
Zn0 O6 1.920 . S
Zn0 O12 1.898 . S
Zn0 O15 1.905 1_545 S
Zn1 O9 1.905 . S
Zn1 O10 1.898 . S
Zn1 O18 1.920 . S
Zn2 O5 2.080 . S
Zn2 O8 2.114 . S
Zn2 O11 2.120 . S
Zn2 O13 2.120 . S
Zn2 O14 2.114 1_545 S
Zn2 O17 2.080 . S
C3 O8 1.166 . S
C3 O9 1.182 . S
C4 O10 1.167 . S
C4 O11 1.299 . S
O5 Zn2 2.080 . S
O5 C19 1.305 . S
O6 Zn0 1.920 . S
O6 C19 1.234 . S
C7 O12 1.167 . S
C7 O13 1.299 . S
O8 Zn2 2.114 . S
O8 C3 1.166 . S
O9 Zn1 1.905 . S
O9 C3 1.182 . S
O10 Zn1 1.898 . S
O10 C4 1.167 . S
O11 Zn2 2.120 . S
O11 C4 1.299 . S
O12 Zn0 1.898 . S
O12 C7 1.167 . S
O13 Zn2 2.120 . S
O13 C7 1.299 . S
O14 Zn2 2.114 1_565 S
O14 C16 1.166 . S
O15 Zn0 1.905 1_565 S
O15 C16 1.182 . S
C16 O14 1.166 . S
C16 O15 1.182 . S
O17 Zn2 2.080 . S
O17 C20 1.305 . S
O18 Zn1 1.920 . S
O18 C20 1.234 . S
C19 O5 1.305 . S
C19 O6 1.234 . S
C20 O17 1.305 . S
C20 O18 1.234 . S
Zn21 O27 1.920 . S
Zn21 O33 1.898 . S
Zn21 O36 1.905 . S
Zn22 O30 1.905 . S
Zn22 O31 1.898 . S
Zn22 O39 1.920 . S
Zn23 O26 2.080 . S
Zn23 O29 2.114 . S
Zn23 O32 2.120 . S
Zn23 O34 2.120 . S
Zn23 O35 2.114 . S
Zn23 O38 2.080 . S
C24 O29 1.166 . S
C24 O30 1.182 . S
C25 O31 1.167 . S
C25 O32 1.299 . S
O26 Zn23 2.080 . S
O26 C40 1.305 . S
O27 Zn21 1.920 . S
O27 C40 1.234 . S
C28 O33 1.167 . S
C28 O34 1.299 . S
O29 Zn23 2.114 . S
O29 C24 1.166 . S
O30 Zn22 1.905 . S
O30 C24 1.182 . S
O31 Zn22 1.898 . S
O31 C25 1.167 . S
O32 Zn23 2.120 . S
O32 C25 1.299 . S
O33 Zn21 1.898 . S
O33 C28 1.167 . S
O34 Zn23 2.120 . S
O34 C28 1.299 . S
O35 Zn23 2.114 . S
O35 C37 1.166 . S
O36 Zn21 1.905 . S
O36 C37 1.182 . S
C37 O35 1.166 . S
C37 O36 1.182 . S
O38 Zn23 2.080 . S
O38 C41 1.305 . S
O39 Zn22 1.920 . S
O39 C41 1.234 . S
C40 O26 1.305 . S
C40 O27 1.234 . S
C41 O38 1.305 . S
C41 O39 1.234 . S
Zn42 O48 1.920 . S
Zn42 O54 1.898 . S
Zn42 O57 1.905 1_655 S
Zn43 O51 1.905 . S
Zn43 O52 1.898 . S
Zn43 O60 1.920 . S
Zn44 O47 2.080 . S
Zn44 O50 2.114 . S
Zn44 O53 2.120 . S
Zn44 O55 2.120 . S
Zn44 O56 2.114 1_655 S
Zn44 O59 2.080 . S
C45 O50 1.166 . S
C45 O51 1.182 . S
C46 O52 1.167 . S
C46 O53 1.299 . S
O47 Zn44 2.080 . S
O47 C61 1.305 . S
O48 Zn42 1.920 . S
O48 C61 1.234 . S
C49 O54 1.167 . S
C49 O55 1.299 . S
O50 Zn44 2.114 . S
O50 C45 1.166 . S
O51 Zn43 1.905 . S
O51 C45 1.182 . S
O52 Zn43 1.898 . S
O52 C46 1.167 . S
O53 Zn44 2.120 . S
O53 C46 1.299 . S
O54 Zn42 1.898 . S
O54 C49 1.167 . S
O55 Zn44 2.120 . S
O55 C49 1.299 . S
O56 Zn44 2.114 1_455 S
O56 C58 1.166 . S
O57 Zn42 1.905 1_455 S
O57 C58 1.182 . S
C58 O56 1.166 . S
C58 O57 1.182 . S
O59 Zn44 2.080 . S
O59 C62 1.305 . S
O60 Zn43 1.920 . S
O60 C62 1.234 . S
C61 O47 1.305 . S
C61 O48 1.234 . S
C62 O59 1.305 . S
C62 O60 1.234 . S
Zn63 O69 1.920 . S
Zn63 O75 1.898 . S
Zn63 O78 1.905 1_455 S
Zn64 O72 1.905 . S
Zn64 O73 1.898 . S
Zn64 O81 1.920 . S
Zn65 O68 2.080 . S
Zn65 O71 2.114 . S
Zn65 O74 2.120 . S
Zn65 O76 2.120 . S
Zn65 O77 2.114 1_455 S
Zn65 O80 2.080 . S
C66 O71 1.166 . S
C66 O72 1.182 . S
C67 O73 1.167 . S
C67 O74 1.299 . S
O68 Zn65 2.080 . S
O68 C82 1.305 . S
O69 Zn63 1.920 . S
O69 C82 1.234 . S
C70 O75 1.167 . S
C70 O76 1.299 . S
O71 Zn65 2.114 . S
O71 C66 1.166 . S
O72 Zn64 1.905 . S
O72 C66 1.182 . S
O73 Zn64 1.898 . S
O73 C67 1.167 . S
O74 Zn65 2.120 . S
O74 C67 1.299 . S
O75 Zn63 1.898 . S
O75 C70 1.167 . S
O76 Zn65 2.120 . S
O76 C70 1.299 . S
O77 Zn65 2.114 1_655 S
O77 C79 1.166 . S
O78 Zn63 1.905 1_655 S
O78 C79 1.182 . S
C79 O77 1.166 . S
C79 O78 1.182 . S
O80 Zn65 2.080 . S
O80 C83 1.305 . S
O81 Zn64 1.920 . S
O81 C83 1.234 . S
C82 O68 1.305 . S
C82 O69 1.234 . S
C83 O80 1.305 . S
C83 O81 1.234 . S
Zn84 O90 1.920 . S
Zn84 O96 1.898 . S
Zn84 O99 1.905 . S
Zn85 O93 1.905 1_565 S
Zn85 O94 1.898 . S
Zn85 O102 1.920 . S
Zn86 O89 2.080 . S
Zn86 O92 2.114 1_565 S
Zn86 O95 2.120 . S
Zn86 O97 2.120 . S
Zn86 O98 2.114 . S
Zn86 O101 2.080 . S
C87 O92 1.166 . S
C87 O93 1.182 . S
C88 O94 1.167 . S
C88 O95 1.299 . S
O89 Zn86 2.080 . S
O89 C103 1.305 . S
O90 Zn84 1.920 . S
O90 C103 1.234 . S
C91 O96 1.167 . S
C91 O97 1.299 . S
O92 Zn86 2.114 1_545 S
O92 C87 1.166 . S
O93 Zn85 1.905 1_545 S
O93 C87 1.182 . S
O94 Zn85 1.898 . S
O94 C88 1.167 . S
O95 Zn86 2.120 . S
O95 C88 1.299 . S
O96 Zn84 1.898 . S
O96 C91 1.167 . S
O97 Zn86 2.120 . S
O97 C91 1.299 . S
O98 Zn86 2.114 . S
O98 C100 1.166 . S
O99 Zn84 1.905 . S
O99 C100 1.182 . S
C100 O98 1.166 . S
C100 O99 1.182 . S
O101 Zn86 2.080 . S
O101 C104 1.305 . S
O102 Zn85 1.920 . S
O102 C104 1.234 . S
C103 O89 1.305 . S
C103 O90 1.234 . S
C104 O101 1.305 . S
C104 O102 1.234 . S
Zn105 O111 1.920 . S
Zn105 O117 1.898 . S
Zn105 O120 1.905 . S
Zn106 O114 1.905 . S
Zn106 O115 1.898 . S
Zn106 O123 1.920 . S
Zn107 O110 2.080 . S
Zn107 O113 2.114 . S
Zn107 O116 2.120 . S
Zn107 O118 2.120 . S
Zn107 O119 2.114 . S
Zn107 O122 2.080 . S
C108 O113 1.166 . S
C108 O114 1.182 . S
C109 O115 1.167 . S
C109 O116 1.299 . S
O110 Zn107 2.080 . S
O110 C124 1.305 . S
O111 Zn105 1.920 . S
O111 C124 1.234 . S
C112 O117 1.167 . S
C112 O118 1.299 . S
O113 Zn107 2.114 . S
O113 C108 1.166 . S
O114 Zn106 1.905 . S
O114 C108 1.182 . S
O115 Zn106 1.898 . S
O115 C109 1.167 . S
O116 Zn107 2.120 . S
O116 C109 1.299 . S
O117 Zn105 1.898 . S
O117 C112 1.167 . S
O118 Zn107 2.120 . S
O118 C112 1.299 . S
O119 Zn107 2.114 . S
O119 C121 1.166 . S
O120 Zn105 1.905 . S
O120 C121 1.182 . S
C121 O119 1.166 . S
C121 O120 1.182 . S
O122 Zn107 2.080 . S
O122 C125 1.305 . S
O123 Zn106 1.920 . S
O123 C125 1.234 . S
C124 O110 1.305 . S
C124 O111 1.234 . S
C125 O122 1.305 . S
C125 O123 1.234 . S
C126 C127 1.170 . S
C126 C128 1.380 1_566 S
C127 C126 1.170 . S
C128 C126 1.380 1_544 S
C128 C129 1.170 . S
C129 C128 1.170 . S
C130 C131 1.170 . S
C130 C132 1.380 . S
C131 C130 1.170 . S
C132 C130 1.380 . S
C132 C133 1.170 . S
C133 C132 1.170 . S
C134 C135 1.170 . S
C134 C136 1.380 1_654 S
C135 C134 1.170 . S
C136 C134 1.380 1_456 S
C136 C137 1.170 . S
C137 C136 1.170 . S
C138 C139 1.170 . S
C138 C140 1.380 1_545 S
C139 C138 1.170 . S
C140 C138 1.380 1_565 S
C140 C141 1.170 . S
C141 C140 1.170 . S
C142 C143 1.170 . S
C142 C144 1.380 1_556 S
C143 C142 1.170 . S
C144 C142 1.380 1_554 S
C144 C145 1.170 . S
C145 C144 1.170 . S
C146 C147 1.170 . S
C146 C148 1.380 1_655 S
C147 C146 1.170 . S
C148 C146 1.380 1_455 S
C148 C149 1.170 . S
C149 C148 1.170 . S
C150 C151 1.170 . S
C150 C152 1.380 . S
C151 C150 1.170 . S
C152 C150 1.380 . S
C152 C153 1.170 . S
C153 C152 1.170 . S
C154 C155 1.170 . S
C154 C156 1.380 . S
C155 C154 1.170 . S
C156 C154 1.380 . S
C156 C157 1.170 . S
C157 C156 1.170 . S
C158 C159 1.170 . S
C158 C160 1.380 . S
C159 C158 1.170 . S
C160 C158 1.380 . S
C160 C161 1.170 . S
C161 C160 1.170 . S
C162 C163 1.170 . S
C162 C164 1.380 . S
C163 C162 1.170 . S
C164 C162 1.380 . S
C164 C165 1.170 . S
C165 C164 1.170 . S
C166 C167 1.170 . S
C166 C168 1.380 . S
C167 C166 1.170 . S
C168 C166 1.380 . S
C168 C169 1.170 . S
C169 C168 1.170 . S
C170 C171 1.170 . S
C170 C172 1.380 . S
C171 C170 1.170 . S
C172 C170 1.380 . S
C172 C173 1.170 . S
C173 C172 1.170 . S
C174 C175 1.170 . S
C174 C176 1.380 . S
C175 C174 1.170 . S
C176 C174 1.380 . S
C176 C177 1.170 . S
C177 C176 1.170 . S
C178 C179 1.170 1_455 S
C178 C180 1.380 . S
C179 C178 1.170 1_655 S
C180 C178 1.380 . S
C180 C181 1.170 . S
C181 C180 1.170 . S
C182 C183 1.170 1_565 S
C182 C184 1.380 . S
C183 C182 1.170 1_545 S
C184 C182 1.380 . S
C184 C185 1.170 . S
C185 C184 1.170 . S
C186 C187 1.170 . S
C186 C188 1.380 . S
C187 C186 1.170 . S
C188 C186 1.380 . S
C188 C189 1.170 . S
C189 C188 1.170 . S
C190 C191 1.170 1_655 S
C190 C192 1.380 . S
C191 C190 1.170 1_455 S
C192 C190 1.380 . S
C192 C193 1.170 . S
C193 C192 1.170 . S
C194 C195 1.170 . S
C194 C196 1.380 . S
C195 C194 1.170 . S
C196 C194 1.380 . S
C196 C197 1.170 1_545 S
C197 C196 1.170 1_565 S
C127 C88 1.387 . S
C129 C7 1.377 . S
C131 C112 1.491 . S
C133 C25 1.476 . S
C135 C49 1.437 . S
C137 C70 1.430 . S
C139 C4 1.510 . S
C141 C91 1.502 . S
C143 C109 1.440 . S
C145 C28 1.426 . S
C147 C46 1.482 . S
C149 C67 1.468 . S
C151 C3 1.063 . S
C153 C62 1.305 . S
C155 C24 0.987 . S
C157 C20 1.268 . S
C159 C45 0.962 . S
C161 C41 1.258 . S
C163 C66 1.063 . S
C165 C103 1.306 . S
C167 C100 1.056 . S
C169 C124 1.302 . S
C171 C83 1.294 . S
C173 C121 1.042 . S
C175 C19 1.120 . S
C177 C58 0.923 . S
C179 C40 1.123 . S
C181 C16 0.928 . S
C183 C61 1.111 . S
C185 C37 0.907 . S
C187 C82 1.116 . S
C189 C87 0.915 . S
C191 C104 1.116 . S
C193 C108 0.916 . S
C195 C79 0.949 . S
C197 C125 1.134 . S
