# Generated by pormake.
# Topology pcu, (6)-cn, num edge types: 1
# Building blocks:
#     Node 0, Type 0, BuildingBlock: JUFBIX_clean_sbu_0, # of connection points: 6
#     Edge 1, Type (0, 0), BuildingBlock: XIVTED_clean_linker_0, # of connection points: 2
#     Edge 2, Type (0, 0), BuildingBlock: XIVTED_clean_linker_0, # of connection points: 2
#     Edge 3, Type (0, 0), BuildingBlock: XIVTED_clean_linker_0, # of connection points: 2
# Relax obj value: 0.000
# Max RMSD: 0.000
# Mean RMSD: 0.000
data_MOF--net-pcu--node1-JUFBIX_clean_sbu_0--edge1-XIVTED_clean_linker_0
_symmetry_space_group_name_H-M    P1
_symmetry_Int_Tables_number       1
_symmetry_cell_setting            triclinic
loop_
_symmetry_equiv_pos_as_xyz
'x, y, z'
_cell_length_a     15.12247
_cell_length_b     19.883859
_cell_length_c     15.121544
_cell_angle_alpha  82.680927
_cell_angle_beta   92.509476
_cell_angle_gamma 101.53205
loop_
_atom_site_label
_atom_site_type_symbol
_atom_site_fract_x
_atom_site_fract_y
_atom_site_fract_z
_atom_type_partial_charge
Co0 Co 0.99206 0.97429 0.01168 0.0
C1 C 0.01091 0.03791 0.16898 0.0
Co2 Co 0.02069 0.08864 0.99209 0.0
C3 C 0.99232 0.82801 0.00503 0.0
C4 C 0.89494 0.84565 0.0935 0.0
N5 N 0.95976 0.87885 0.03613 0.0
N6 N 0.94984 0.76441 0.04066 0.0
C7 C 0.88864 0.77566 0.09637 0.0
H8 H 0.04563 0.83757 0.95687 0.0
H9 H 0.85517 0.87088 0.13163 0.0
C10 C 1.00185 1.02502 0.83479 0.0
N11 N 0.05299 0.18408 0.96764 0.0
C12 C 0.02044 0.23492 0.99874 0.0
C13 C 0.11781 0.21728 0.91027 0.0
N14 N 0.06291 0.29852 0.96311 0.0
C15 C 0.12411 0.28727 0.9074 0.0
C16 C 0.17342 1.02686 0.00708 0.0
O17 O 0.98834 0.9686 0.88691 0.0
O18 O 0.01649 0.082 0.8677 0.0
O19 O 0.14485 0.08328 0.99678 0.0
O20 O 0.11674 0.96993 0.01587 0.0
O21 O 0.02441 0.09432 0.11686 0.0
H22 H 0.15758 0.19205 0.87214 0.0
H23 H 0.96712 0.22536 0.0469 0.0
O24 O 0.99626 0.98092 0.13608 0.0
O25 O 0.8679 0.97965 0.00699 0.0
O26 O 0.89601 0.093 0.9879 0.0
C27 C 0.83933 0.03607 0.99669 0.0
H28 H 0.84373 0.73619 0.13795 0.0
H29 H 0.16902 0.32674 0.86582 0.0
H30 H 0.03784 0.14898 0.26489 0.0
H31 H 0.97491 0.91395 0.73888 0.0
H32 H 0.98327 0.92571 0.2964 0.0
H33 H 0.02948 0.13722 0.70737 0.0
H34 H 0.97749 0.91712 0.57667 0.0
H35 H 0.03527 0.14581 0.4271 0.0
C36 C 0.02547 0.09933 0.30585 0.0
C37 C 0.01085 0.03757 0.26692 0.0
C38 C 0.98882 0.96541 0.6053 0.0
C39 C 0.00761 0.03348 0.45257 0.0
C40 C 0.98728 0.96359 0.69793 0.0
C41 C 1.00191 1.02536 0.73685 0.0
C42 C 1.00515 1.02944 0.5512 0.0
C43 C 0.01776 0.08824 0.6804 0.0
C44 C 0.02393 0.09752 0.39847 0.0
C45 C 0.99499 0.97469 0.32337 0.0
N46 N 0.01897 0.08863 0.59058 0.0
N47 N 0.99378 0.9743 0.41319 0.0
H48 H 0.30982 0.14051 0.99005 0.0
H49 H 0.70293 0.92241 0.01372 0.0
H50 H 0.26119 0.91732 0.0231 0.0
H51 H 0.75156 0.14561 0.98068 0.0
H52 H 0.54124 0.91967 0.01691 0.0
H53 H 0.47151 0.14326 0.98686 0.0
C54 C 0.3331 0.09197 0.99684 0.0
C55 C 0.27168 1.0285 0.00695 0.0
C56 C 0.58714 0.96927 0.00887 0.0
C57 C 0.45734 0.03145 0.00305 0.0
C58 C 0.67965 0.97096 0.00693 0.0
C59 C 0.74108 0.03443 0.99682 0.0
C60 C 0.55541 0.03148 1.00072 0.0
C61 C 0.70674 0.09553 0.98848 0.0
C62 C 0.42561 0.09366 0.9949 0.0
C63 C 0.30602 0.9674 0.0153 0.0
N64 N 0.61618 0.09252 0.99067 0.0
N65 N 0.39657 0.97041 0.0131 0.0
H66 H 0.10653 0.73503 0.98871 0.0
H67 H 0.90623 0.3279 0.01506 0.0
H68 H 0.83181 0.64144 0.05831 0.0
H69 H 0.18095 0.42149 0.94546 0.0
H70 H 0.87799 0.44223 0.03317 0.0
H71 H 0.13476 0.62069 0.97059 0.0
C72 C 0.05197 0.69062 0.99952 0.0
C73 C 0.96681 0.69797 0.02556 0.0
C74 C 0.9445 0.4377 0.01397 0.0
C75 C 0.99883 0.56669 0.00601 0.0
C76 C 0.96079 0.3723 0.00425 0.0
C77 C 0.04595 0.36496 0.97821 0.0
C78 C 0.01392 0.49623 0.99776 0.0
C79 C 0.11383 0.42466 0.9641 0.0
C80 C 0.06825 0.62522 0.9898 0.0
C81 C 0.89893 0.63826 0.03967 0.0
N82 N 0.09632 0.48765 0.97392 0.0
N83 N 0.91643 0.57528 0.02985 0.0
loop_
_geom_bond_atom_site_label_1
_geom_bond_atom_site_label_2
_geom_bond_distance
_geom_bond_site_symmetry_2
_ccdc_geom_bond_type
Co0 N5 2.057 1_556 S
Co0 O17 2.021 . S
Co0 O20 2.062 1_655 S
Co0 O24 2.117 1_556 S
Co0 O25 2.020 . S
C1 O21 1.259 . S
C1 O24 1.258 1_445 S
Co2 N11 2.057 1_554 S
Co2 O18 2.117 1_554 S
Co2 O19 2.020 . S
Co2 O21 2.021 . S
Co2 O26 2.062 1_455 S
C3 N5 1.316 1_556 S
C3 N6 1.347 1_556 S
C3 H8 0.931 . S
C4 N5 1.375 . S
C4 C7 1.350 . S
C4 H9 0.930 . S
N5 Co0 2.057 1_554 S
N5 C3 1.316 1_554 S
N5 C4 1.375 . S
N6 C3 1.347 1_554 S
N6 C7 1.373 . S
C7 C4 1.350 . S
C7 N6 1.373 . S
C7 H28 0.931 . S
H8 C3 0.931 . S
H9 C4 0.930 . S
C10 O17 1.259 . S
C10 O18 1.258 1_665 S
N11 Co2 2.057 1_556 S
N11 C12 1.316 1_556 S
N11 C13 1.375 . S
C12 N11 1.316 1_554 S
C12 N14 1.347 1_554 S
C12 H23 0.931 . S
C13 N11 1.375 . S
C13 C15 1.350 . S
C13 H22 0.930 . S
N14 C12 1.347 1_556 S
N14 C15 1.373 . S
C15 C13 1.350 . S
C15 N14 1.373 . S
C15 H29 0.931 . S
C16 O19 1.264 1_556 S
C16 O20 1.248 1_545 S
O17 Co0 2.021 . S
O17 C10 1.259 . S
O18 Co2 2.117 1_556 S
O18 C10 1.258 1_445 S
O19 Co2 2.020 . S
O19 C16 1.264 1_554 S
O20 Co0 2.062 1_455 S
O20 C16 1.248 1_565 S
O21 C1 1.259 . S
O21 Co2 2.021 . S
H22 C13 0.930 . S
H23 C12 0.931 . S
O24 Co0 2.117 1_554 S
O24 C1 1.258 1_665 S
O25 Co0 2.020 . S
O25 C27 1.260 1_556 S
O26 Co2 2.062 1_655 S
O26 C27 1.251 1_545 S
C27 O25 1.260 1_554 S
C27 O26 1.251 1_565 S
H28 C7 0.931 . S
H29 C15 0.931 . S
H30 C36 0.930 . S
H31 C40 0.930 . S
H32 C45 0.929 . S
H33 C43 0.929 . S
H34 C38 0.929 . S
H35 C44 0.929 . S
C36 H30 0.930 . S
C36 C37 1.373 . S
C36 C44 1.378 . S
C37 C36 1.373 . S
C37 C45 1.427 1_645 S
C38 H34 0.929 . S
C38 C40 1.378 . S
C38 C42 1.350 . S
C39 C42 1.463 1_645 S
C39 C44 1.350 . S
C39 N47 1.427 1_645 S
C40 H31 0.930 . S
C40 C38 1.378 . S
C40 C41 1.380 . S
C41 C40 1.380 . S
C41 C43 1.420 1_465 S
C42 C38 1.350 . S
C42 C39 1.463 1_465 S
C42 N46 1.427 1_465 S
C43 H33 0.929 . S
C43 C41 1.420 1_645 S
C43 N46 1.384 . S
C44 H35 0.929 . S
C44 C36 1.378 . S
C44 C39 1.350 . S
C45 H32 0.929 . S
C45 C37 1.427 1_465 S
C45 N47 1.384 . S
N46 C42 1.427 1_645 S
N46 C43 1.384 . S
N47 C39 1.427 1_465 S
N47 C45 1.384 . S
H48 C54 0.930 . S
H49 C58 0.930 . S
H50 C63 0.929 . S
H51 C61 0.929 . S
H52 C56 0.929 . S
H53 C62 0.929 . S
C54 H48 0.930 . S
C54 C55 1.368 . S
C54 C62 1.378 . S
C55 C54 1.368 . S
C55 C63 1.432 1_544 S
C56 H52 0.929 . S
C56 C58 1.378 . S
C56 C60 1.351 . S
C57 C60 1.462 1_544 S
C57 C62 1.352 . S
C57 N65 1.426 1_544 S
C58 H49 0.930 . S
C58 C56 1.378 . S
C58 C59 1.367 . S
C59 C58 1.367 . S
C59 C61 1.433 1_566 S
C60 C56 1.351 . S
C60 C57 1.462 1_566 S
C60 N64 1.427 1_566 S
C61 H51 0.929 . S
C61 C59 1.433 1_544 S
C61 N64 1.384 . S
C62 H53 0.929 . S
C62 C54 1.378 . S
C62 C57 1.352 . S
C63 H50 0.929 . S
C63 C55 1.432 1_566 S
C63 N65 1.384 . S
N64 C60 1.427 1_544 S
N64 C61 1.384 . S
N65 C57 1.426 1_566 S
N65 C63 1.384 . S
H66 C72 0.930 . S
H67 C76 0.930 . S
H68 C81 0.929 . S
H69 C79 0.929 . S
H70 C74 0.929 . S
H71 C80 0.929 . S
C72 H66 0.930 . S
C72 C73 1.367 . S
C72 C80 1.378 . S
C73 C72 1.367 . S
C73 C81 1.433 1_456 S
C74 H70 0.929 . S
C74 C76 1.378 . S
C74 C78 1.350 . S
C75 C78 1.463 1_456 S
C75 C80 1.350 . S
C75 N83 1.427 1_456 S
C76 H67 0.930 . S
C76 C74 1.378 . S
C76 C77 1.374 . S
C77 C76 1.374 . S
C77 C79 1.428 1_654 S
C78 C74 1.350 . S
C78 C75 1.463 1_654 S
C78 N82 1.427 1_654 S
C79 H69 0.929 . S
C79 C77 1.428 1_456 S
C79 N82 1.384 . S
C80 H71 0.929 . S
C80 C72 1.378 . S
C80 C75 1.350 . S
C81 H68 0.929 . S
C81 C73 1.433 1_654 S
C81 N83 1.384 . S
N82 C78 1.427 1_456 S
N82 C79 1.384 . S
N83 C75 1.427 1_654 S
N83 C81 1.384 . S
C37 C1 1.493 1_655 S
C41 C10 1.495 1_455 S
C55 C16 1.499 1_554 S
C59 C27 1.499 1_556 S
C73 N6 1.471 1_456 S
C77 N14 1.467 1_654 S
