# Generated by pormake.
# Topology uog, (4)-cn, num edge types: 1
# Building blocks:
#     Node 0, Type 0, BuildingBlock: MUDLON_clean_sbu_0, # of connection points: 4
#     Node 1, Type 0, BuildingBlock: MUDLON_clean_sbu_0, # of connection points: 4
#     Node 2, Type 0, BuildingBlock: MUDLON_clean_sbu_0, # of connection points: 4
#     Node 3, Type 0, BuildingBlock: MUDLON_clean_sbu_0, # of connection points: 4
#     Node 4, Type 0, BuildingBlock: MUDLON_clean_sbu_0, # of connection points: 4
#     Node 5, Type 0, BuildingBlock: MUDLON_clean_sbu_0, # of connection points: 4
#     Edge 6, Type (0, 0), BuildingBlock: OJICUG_clean_linker_0, # of connection points: 2
#     Edge 7, Type (0, 0), BuildingBlock: OJICUG_clean_linker_0, # of connection points: 2
#     Edge 8, Type (0, 0), BuildingBlock: OJICUG_clean_linker_0, # of connection points: 2
#     Edge 9, Type (0, 0), BuildingBlock: OJICUG_clean_linker_0, # of connection points: 2
#     Edge 10, Type (0, 0), BuildingBlock: OJICUG_clean_linker_0, # of connection points: 2
#     Edge 11, Type (0, 0), BuildingBlock: OJICUG_clean_linker_0, # of connection points: 2
#     Edge 12, Type (0, 0), BuildingBlock: OJICUG_clean_linker_0, # of connection points: 2
#     Edge 13, Type (0, 0), BuildingBlock: OJICUG_clean_linker_0, # of connection points: 2
#     Edge 14, Type (0, 0), BuildingBlock: OJICUG_clean_linker_0, # of connection points: 2
#     Edge 15, Type (0, 0), BuildingBlock: OJICUG_clean_linker_0, # of connection points: 2
#     Edge 16, Type (0, 0), BuildingBlock: OJICUG_clean_linker_0, # of connection points: 2
#     Edge 17, Type (0, 0), BuildingBlock: OJICUG_clean_linker_0, # of connection points: 2
# Relax obj value: 0.035
# Max RMSD: 0.253
# Mean RMSD: 0.253
data_MOF--net-uog--node1-MUDLON_clean_sbu_0--edge1-OJICUG_clean_linker_0
_symmetry_space_group_name_H-M    P1
_symmetry_Int_Tables_number       1
_symmetry_cell_setting            triclinic
loop_
_symmetry_equiv_pos_as_xyz
'x, y, z'
_cell_length_a     22.135944
_cell_length_b     22.138872
_cell_length_c     32.739697
_cell_angle_alpha  89.77902
_cell_angle_beta   90.057167
_cell_angle_gamma 120.04817
loop_
_atom_site_label
_atom_site_type_symbol
_atom_site_fract_x
_atom_site_fract_y
_atom_site_fract_z
_atom_type_partial_charge
Mg0 Mg 0.59398 0.30299 0.19217 0.0
C1 C 0.62426 0.34201 0.10512 0.0
O2 O 0.56033 0.33061 0.10918 0.0
C3 C 0.6195 0.29238 0.27969 0.0
O4 O 0.55585 0.23986 0.27454 0.0
C5 C 0.57192 0.16116 0.18901 0.0
O6 O 0.64017 0.20111 0.18969 0.0
O7 O 0.53454 0.18997 0.1895 0.0
O8 O 0.6554 0.33682 0.13651 0.0
O9 O 0.53419 0.35617 0.19429 0.0
C10 C 0.57148 0.42234 0.19612 0.0
O11 O 0.63974 0.45073 0.19672 0.0
O12 O 0.65241 0.32944 0.24883 0.0
Mg13 Mg 0.29295 0.58873 0.52843 0.0
C14 C 0.29158 0.62586 0.44314 0.0
O15 O 0.23977 0.56132 0.44637 0.0
C16 C 0.37239 0.68303 0.60317 0.0
O17 O 0.42659 0.71751 0.57907 0.0
C18 C 0.41175 0.56612 0.51745 0.0
O19 O 0.43926 0.63365 0.51182 0.0
O20 O 0.34654 0.52953 0.52448 0.0
O21 O 0.32582 0.65645 0.47515 0.0
O22 O 0.17992 0.52902 0.52623 0.0
C23 C 0.15122 0.56631 0.52921 0.0
O24 O 0.19128 0.63415 0.53324 0.0
O25 O 0.31547 0.63437 0.58879 0.0
Mg26 Mg 0.72225 0.29913 0.85906 0.0
C27 C 0.69074 0.27249 0.77221 0.0
O28 O 0.70844 0.22653 0.78371 0.0
C29 C 0.72788 0.34261 0.94368 0.0
O30 O 0.77967 0.32993 0.94053 0.0
C31 C 0.86437 0.41983 0.85598 0.0
O32 O 0.82436 0.44798 0.85463 0.0
O33 O 0.83557 0.35365 0.85791 0.0
O34 O 0.6897 0.31363 0.79893 0.0
O35 O 0.66926 0.18703 0.86822 0.0
C36 C 0.6031 0.15866 0.86657 0.0
O37 O 0.57576 0.19865 0.86029 0.0
O38 O 0.69251 0.33739 0.91184 0.0
Mg39 Mg 0.42576 0.7188 0.1944 0.0
C40 C 0.39765 0.68055 0.10744 0.0
O41 O 0.46124 0.69135 0.11225 0.0
C42 C 0.39676 0.72788 0.28152 0.0
O43 O 0.46083 0.78018 0.27727 0.0
C44 C 0.4482 0.86067 0.19002 0.0
O45 O 0.37994 0.82073 0.1898 0.0
O46 O 0.48551 0.83182 0.19167 0.0
O47 O 0.36582 0.68597 0.13833 0.0
O48 O 0.48515 0.6652 0.19704 0.0
C49 C 0.44777 0.59895 0.19748 0.0
O50 O 0.37952 0.57057 0.19683 0.0
O51 O 0.36525 0.69159 0.2503 0.0
Mg52 Mg 0.70882 0.42255 0.52871 0.0
C53 C 0.71389 0.39066 0.44301 0.0
O54 O 0.76415 0.45569 0.44718 0.0
C55 C 0.67767 0.31825 0.59959 0.0
O56 O 0.69306 0.28357 0.5731 0.0
C57 C 0.59049 0.44512 0.52335 0.0
O58 O 0.56262 0.37718 0.52706 0.0
O59 O 0.65672 0.48284 0.5228 0.0
O60 O 0.67893 0.35783 0.47449 0.0
O61 O 0.82216 0.48101 0.52957 0.0
C62 C 0.85104 0.4441 0.52524 0.0
O63 O 0.81122 0.37648 0.52018 0.0
O64 O 0.67701 0.37269 0.58805 0.0
Mg65 Mg 0.30728 0.71734 0.85796 0.0
C66 C 0.37926 0.73954 0.77565 0.0
O67 O 0.41137 0.80487 0.78753 0.0
C68 C 0.29919 0.67909 0.9443 0.0
O69 O 0.24834 0.69289 0.93974 0.0
C70 C 0.16504 0.59732 0.85629 0.0
O71 O 0.20495 0.56902 0.85658 0.0
O72 O 0.19398 0.66358 0.85663 0.0
O73 O 0.33748 0.69211 0.80012 0.0
O74 O 0.35992 0.83019 0.86311 0.0
C75 C 0.42345 0.85897 0.87434 0.0
O76 O 0.45014 0.81909 0.88289 0.0
O77 O 0.33475 0.68195 0.91307 0.0
C78 C 0.58255 0.0537 0.18914 0.0
C79 C 0.54004 0.08427 0.18859 0.0
H80 H 0.58711 0.95931 0.19002 0.0
C81 C 0.46725 0.04067 0.18807 0.0
H82 H 0.63889 0.08578 0.18954 0.0
C83 C 0.43763 0.96813 0.18831 0.0
C84 C 0.48012 0.93756 0.18912 0.0
H85 H 0.43306 0.06251 0.18764 0.0
H86 H 0.38128 0.93605 0.18805 0.0
C87 C 0.55292 0.98115 0.18942 0.0
C88 C 0.42863 0.46249 0.52286 0.0
C89 C 0.45707 0.53466 0.51756 0.0
H90 H 0.44841 0.37773 0.52873 0.0
C91 C 0.52986 0.57718 0.51338 0.0
H92 H 0.37283 0.42832 0.52615 0.0
C93 C 0.57334 0.54827 0.51502 0.0
C94 C 0.54493 0.47618 0.52072 0.0
H95 H 0.55354 0.63306 0.50926 0.0
H96 H 0.62918 0.58248 0.51202 0.0
C97 C 0.47207 0.43356 0.52435 0.0
C98 C 0.98497 0.43598 0.85669 0.0
C99 C 0.94131 0.46503 0.85582 0.0
H100 H 0.08963 0.45488 0.85747 0.0
C101 C 0.97186 0.53815 0.85496 0.0
H102 H 0.96317 0.37993 0.85736 0.0
C103 C 0.04443 0.58124 0.85508 0.0
C104 C 0.08809 0.55218 0.85599 0.0
H105 H 0.93974 0.56231 0.8543 0.0
H106 H 0.06625 0.6373 0.85449 0.0
C107 C 0.05753 0.47907 0.85675 0.0
C108 C 0.044 0.57718 0.53196 0.0
C109 C 0.07442 0.53485 0.52804 0.0
H110 H 0.94976 0.58194 0.53414 0.0
C111 C 0.03078 0.46266 0.52301 0.0
H112 H 0.07614 0.63307 0.53586 0.0
C113 C 0.95831 0.43342 0.522 0.0
C114 C 0.92788 0.47572 0.52602 0.0
H115 H 0.05253 0.42864 0.51987 0.0
H116 H 0.92619 0.37752 0.51813 0.0
C117 C 0.97152 0.54793 0.53097 0.0
C118 C 0.54091 0.96631 0.88132 0.0
C119 C 0.46874 0.93582 0.8743 0.0
H120 H 0.64009 0.06046 0.88424 0.0
C121 C 0.44108 0.97937 0.86583 0.0
H122 H 0.56398 0.93424 0.8879 0.0
C123 C 0.48475 0.05173 0.86389 0.0
C124 C 0.55711 0.08214 0.87015 0.0
H125 H 0.38576 0.95759 0.86032 0.0
H126 H 0.46174 0.08374 0.85694 0.0
C127 C 0.58467 0.03868 0.87914 0.0
C128 C 0.55244 0.58324 0.1983 0.0
C129 C 0.47964 0.55396 0.19774 0.0
H130 H 0.6384 0.56469 0.19828 0.0
C131 C 0.43714 0.48085 0.19699 0.0
H132 H 0.58663 0.63931 0.19888 0.0
C133 C 0.46676 0.43797 0.19659 0.0
C134 C 0.53956 0.46726 0.19699 0.0
H135 H 0.3808 0.45653 0.19654 0.0
H136 H 0.43257 0.38191 0.19587 0.0
C137 C 0.58206 0.54036 0.19795 0.0
C138 C 0.64311 0.35288 0.98992 0.0
C139 C 0.70598 0.35275 0.98459 0.0
H140 H 0.56821 0.35007 0.03226 0.0
C141 C 0.74515 0.35622 1.01929 0.0
H142 H 0.61184 0.35048 0.96384 0.0
C143 C 0.72016 0.35586 0.05851 0.0
C144 C 0.65542 0.35201 0.0639 0.0
H145 H 0.79414 0.35675 1.01627 0.0
H146 H 0.75045 0.35603 0.08457 0.0
C147 C 0.61809 0.3525 0.02919 0.0
C148 C 0.40315 0.74457 0.35741 0.0
C149 C 0.36559 0.70697 0.32277 0.0
H150 H 0.40908 0.74884 0.42277 0.0
C151 C 0.30041 0.64653 0.32826 0.0
H152 H 0.45339 0.79167 0.35424 0.0
C153 C 0.27507 0.62214 0.36751 0.0
C154 C 0.31431 0.65765 0.40215 0.0
H155 H 0.26995 0.61661 0.30226 0.0
H156 H 0.22565 0.57406 0.37061 0.0
C157 C 0.37774 0.72017 0.39672 0.0
C158 C 0.68297 0.23464 0.69957 0.0
C159 C 0.67884 0.27951 0.72835 0.0
H160 H 0.68521 0.21116 0.63643 0.0
C161 C 0.66753 0.3331 0.71444 0.0
H162 H 0.69108 0.19239 0.70924 0.0
C163 C 0.66387 0.34364 0.67256 0.0
C164 C 0.67159 0.30091 0.64372 0.0
H165 H 0.66372 0.36828 0.7358 0.0
H166 H 0.65742 0.38689 0.66282 0.0
C167 C 0.67944 0.24524 0.65775 0.0
C168 C 0.38142 0.66775 0.99224 0.0
C169 C 0.3197 0.66971 0.98583 0.0
H170 H 0.4542 0.66914 0.03577 0.0
C171 C 0.28034 0.66839 1.0199 0.0
H172 H 0.41279 0.66846 0.96667 0.0
C173 C 0.30404 0.66884 0.05953 0.0
C174 C 0.36767 0.6707 0.06593 0.0
H175 H 0.23222 0.66934 1.01603 0.0
H176 H 0.2737 0.67025 0.08506 0.0
C177 C 0.40518 0.66827 0.03189 0.0
C178 C 0.73454 0.39789 0.36765 0.0
C179 C 0.69409 0.3603 0.40163 0.0
H180 H 0.74315 0.40577 0.30251 0.0
C181 C 0.63232 0.2967 0.39516 0.0
H182 H 0.78277 0.44685 0.37157 0.0
C183 C 0.6096 0.27316 0.35545 0.0
C184 C 0.64827 0.31267 0.32144 0.0
H185 H 0.60015 0.2664 0.42067 0.0
H186 H 0.5605 0.2251 0.35146 0.0
C187 C 0.71192 0.37432 0.328 0.0
C188 C 0.43277 0.77302 0.70574 0.0
C189 C 0.38243 0.72293 0.73225 0.0
H190 H 0.46954 0.79964 0.64399 0.0
C191 C 0.33103 0.65894 0.71612 0.0
H192 H 0.47306 0.82286 0.71729 0.0
C193 C 0.32829 0.64633 0.67426 0.0
C194 C 0.37752 0.69692 0.64756 0.0
H195 H 0.29131 0.61934 0.7356 0.0
H196 H 0.28714 0.59684 0.66281 0.0
C197 C 0.4307 0.75987 0.66379 0.0
loop_
_geom_bond_atom_site_label_1
_geom_bond_atom_site_label_2
_geom_bond_distance
_geom_bond_site_symmetry_2
_ccdc_geom_bond_type
Mg0 O7 2.141 . S
Mg0 O8 2.048 . S
Mg0 O9 2.048 . S
Mg0 O12 2.141 . S
C1 O2 1.313 . S
C1 O8 1.195 . S
O2 C1 1.313 . S
C3 O4 1.245 . S
C3 O12 1.289 . S
O4 C3 1.245 . S
C5 O6 1.245 . S
C5 O7 1.289 . S
O6 C5 1.245 . S
O7 Mg0 2.141 . S
O7 C5 1.289 . S
O8 Mg0 2.048 . S
O8 C1 1.195 . S
O9 Mg0 2.048 . S
O9 C10 1.195 . S
C10 O9 1.195 . S
C10 O11 1.313 . S
O11 C10 1.313 . S
O12 Mg0 2.141 . S
O12 C3 1.289 . S
Mg13 O20 2.141 . S
Mg13 O21 2.048 . S
Mg13 O22 2.048 . S
Mg13 O25 2.141 . S
C14 O15 1.313 . S
C14 O21 1.195 . S
O15 C14 1.313 . S
C16 O17 1.245 . S
C16 O25 1.289 . S
O17 C16 1.245 . S
C18 O19 1.245 . S
C18 O20 1.289 . S
O19 C18 1.245 . S
O20 Mg13 2.141 . S
O20 C18 1.289 . S
O21 Mg13 2.048 . S
O21 C14 1.195 . S
O22 Mg13 2.048 . S
O22 C23 1.195 . S
C23 O22 1.195 . S
C23 O24 1.313 . S
O24 C23 1.313 . S
O25 Mg13 2.141 . S
O25 C16 1.289 . S
Mg26 O33 2.141 . S
Mg26 O34 2.048 . S
Mg26 O35 2.048 . S
Mg26 O38 2.141 . S
C27 O28 1.313 . S
C27 O34 1.195 . S
O28 C27 1.313 . S
C29 O30 1.245 . S
C29 O38 1.289 . S
O30 C29 1.245 . S
C31 O32 1.245 . S
C31 O33 1.289 . S
O32 C31 1.245 . S
O33 Mg26 2.141 . S
O33 C31 1.289 . S
O34 Mg26 2.048 . S
O34 C27 1.195 . S
O35 Mg26 2.048 . S
O35 C36 1.195 . S
C36 O35 1.195 . S
C36 O37 1.313 . S
O37 C36 1.313 . S
O38 Mg26 2.141 . S
O38 C29 1.289 . S
Mg39 O46 2.141 . S
Mg39 O47 2.048 . S
Mg39 O48 2.048 . S
Mg39 O51 2.141 . S
C40 O41 1.313 . S
C40 O47 1.195 . S
O41 C40 1.313 . S
C42 O43 1.245 . S
C42 O51 1.289 . S
O43 C42 1.245 . S
C44 O45 1.245 . S
C44 O46 1.289 . S
O45 C44 1.245 . S
O46 Mg39 2.141 . S
O46 C44 1.289 . S
O47 Mg39 2.048 . S
O47 C40 1.195 . S
O48 Mg39 2.048 . S
O48 C49 1.195 . S
C49 O48 1.195 . S
C49 O50 1.313 . S
O50 C49 1.313 . S
O51 Mg39 2.141 . S
O51 C42 1.289 . S
Mg52 O59 2.141 . S
Mg52 O60 2.048 . S
Mg52 O61 2.048 . S
Mg52 O64 2.141 . S
C53 O54 1.313 . S
C53 O60 1.195 . S
O54 C53 1.313 . S
C55 O56 1.245 . S
C55 O64 1.289 . S
O56 C55 1.245 . S
C57 O58 1.245 . S
C57 O59 1.289 . S
O58 C57 1.245 . S
O59 Mg52 2.141 . S
O59 C57 1.289 . S
O60 Mg52 2.048 . S
O60 C53 1.195 . S
O61 Mg52 2.048 . S
O61 C62 1.195 . S
C62 O61 1.195 . S
C62 O63 1.313 . S
O63 C62 1.313 . S
O64 Mg52 2.141 . S
O64 C55 1.289 . S
Mg65 O72 2.141 . S
Mg65 O73 2.048 . S
Mg65 O74 2.048 . S
Mg65 O77 2.141 . S
C66 O67 1.313 . S
C66 O73 1.195 . S
O67 C66 1.313 . S
C68 O69 1.245 . S
C68 O77 1.289 . S
O69 C68 1.245 . S
C70 O71 1.245 . S
C70 O72 1.289 . S
O71 C70 1.245 . S
O72 Mg65 2.141 . S
O72 C70 1.289 . S
O73 Mg65 2.048 . S
O73 C66 1.195 . S
O74 Mg65 2.048 . S
O74 C75 1.195 . S
C75 O74 1.195 . S
C75 O76 1.313 . S
O76 C75 1.313 . S
O77 Mg65 2.141 . S
O77 C68 1.289 . S
C78 C79 1.387 . S
C78 H82 0.950 . S
C78 C87 1.390 1_545 S
C79 C78 1.387 . S
C79 C81 1.387 . S
H80 C87 0.950 . S
C81 C79 1.387 . S
C81 C83 1.390 1_545 S
C81 H85 0.950 . S
H82 C78 0.950 . S
C83 C81 1.390 1_565 S
C83 C84 1.387 . S
C83 H86 0.950 . S
C84 C83 1.387 . S
C84 C87 1.387 . S
H85 C81 0.950 . S
H86 C83 0.950 . S
C87 C78 1.390 1_565 S
C87 H80 0.950 . S
C87 C84 1.387 . S
C88 C89 1.387 . S
C88 H92 0.950 . S
C88 C97 1.390 . S
C89 C88 1.387 . S
C89 C91 1.387 . S
H90 C97 0.950 . S
C91 C89 1.387 . S
C91 C93 1.390 . S
C91 H95 0.950 . S
H92 C88 0.950 . S
C93 C91 1.390 . S
C93 C94 1.387 . S
C93 H96 0.950 . S
C94 C93 1.387 . S
C94 C97 1.387 . S
H95 C91 0.950 . S
H96 C93 0.950 . S
C97 C88 1.390 . S
C97 H90 0.950 . S
C97 C94 1.387 . S
C98 C99 1.387 . S
C98 H102 0.950 . S
C98 C107 1.390 1_655 S
C99 C98 1.387 . S
C99 C101 1.387 . S
H100 C107 0.950 . S
C101 C99 1.387 . S
C101 C103 1.390 1_655 S
C101 H105 0.950 . S
H102 C98 0.950 . S
C103 C101 1.390 1_455 S
C103 C104 1.387 . S
C103 H106 0.950 . S
C104 C103 1.387 . S
C104 C107 1.387 . S
H105 C101 0.950 . S
H106 C103 0.950 . S
C107 C98 1.390 1_455 S
C107 H100 0.950 . S
C107 C104 1.387 . S
C108 C109 1.387 . S
C108 H112 0.950 . S
C108 C117 1.390 1_455 S
C109 C108 1.387 . S
C109 C111 1.387 . S
H110 C117 0.950 . S
C111 C109 1.387 . S
C111 C113 1.390 1_455 S
C111 H115 0.950 . S
H112 C108 0.950 . S
C113 C111 1.390 1_655 S
C113 C114 1.387 . S
C113 H116 0.950 . S
C114 C113 1.387 . S
C114 C117 1.387 . S
H115 C111 0.950 . S
H116 C113 0.950 . S
C117 C108 1.390 1_655 S
C117 H110 0.950 . S
C117 C114 1.387 . S
C118 C119 1.387 . S
C118 H122 0.950 . S
C118 C127 1.390 1_565 S
C119 C118 1.387 . S
C119 C121 1.387 . S
H120 C127 0.950 . S
C121 C119 1.387 . S
C121 C123 1.390 1_565 S
C121 H125 0.950 . S
H122 C118 0.950 . S
C123 C121 1.390 1_545 S
C123 C124 1.387 . S
C123 H126 0.950 . S
C124 C123 1.387 . S
C124 C127 1.387 . S
H125 C121 0.950 . S
H126 C123 0.950 . S
C127 C118 1.390 1_545 S
C127 H120 0.950 . S
C127 C124 1.387 . S
C128 C129 1.387 . S
C128 H132 0.950 . S
C128 C137 1.390 . S
C129 C128 1.387 . S
C129 C131 1.387 . S
H130 C137 0.950 . S
C131 C129 1.387 . S
C131 C133 1.390 . S
C131 H135 0.950 . S
H132 C128 0.950 . S
C133 C131 1.390 . S
C133 C134 1.387 . S
C133 H136 0.950 . S
C134 C133 1.387 . S
C134 C137 1.387 . S
H135 C131 0.950 . S
H136 C133 0.950 . S
C137 C128 1.390 . S
C137 H130 0.950 . S
C137 C134 1.387 . S
C138 C139 1.387 . S
C138 H142 0.950 . S
C138 C147 1.390 1_556 S
C139 C138 1.387 . S
C139 C141 1.387 . S
H140 C147 0.950 . S
C141 C139 1.387 . S
C141 C143 1.390 1_556 S
C141 H145 0.950 . S
H142 C138 0.950 . S
C143 C141 1.390 1_554 S
C143 C144 1.387 . S
C143 H146 0.950 . S
C144 C143 1.387 . S
C144 C147 1.387 . S
H145 C141 0.950 . S
H146 C143 0.950 . S
C147 C138 1.390 1_554 S
C147 H140 0.950 . S
C147 C144 1.387 . S
C148 C149 1.387 . S
C148 H152 0.950 . S
C148 C157 1.390 . S
C149 C148 1.387 . S
C149 C151 1.387 . S
H150 C157 0.950 . S
C151 C149 1.387 . S
C151 C153 1.390 . S
C151 H155 0.950 . S
H152 C148 0.950 . S
C153 C151 1.390 . S
C153 C154 1.387 . S
C153 H156 0.950 . S
C154 C153 1.387 . S
C154 C157 1.387 . S
H155 C151 0.950 . S
H156 C153 0.950 . S
C157 C148 1.390 . S
C157 H150 0.950 . S
C157 C154 1.387 . S
C158 C159 1.387 . S
C158 H162 0.950 . S
C158 C167 1.390 . S
C159 C158 1.387 . S
C159 C161 1.387 . S
H160 C167 0.950 . S
C161 C159 1.387 . S
C161 C163 1.390 . S
C161 H165 0.950 . S
H162 C158 0.950 . S
C163 C161 1.390 . S
C163 C164 1.387 . S
C163 H166 0.950 . S
C164 C163 1.387 . S
C164 C167 1.387 . S
H165 C161 0.950 . S
H166 C163 0.950 . S
C167 C158 1.390 . S
C167 H160 0.950 . S
C167 C164 1.387 . S
C168 C169 1.387 . S
C168 H172 0.950 . S
C168 C177 1.390 1_556 S
C169 C168 1.387 . S
C169 C171 1.387 . S
H170 C177 0.950 . S
C171 C169 1.387 . S
C171 C173 1.390 1_556 S
C171 H175 0.950 . S
H172 C168 0.950 . S
C173 C171 1.390 1_554 S
C173 C174 1.387 . S
C173 H176 0.950 . S
C174 C173 1.387 . S
C174 C177 1.387 . S
H175 C171 0.950 . S
H176 C173 0.950 . S
C177 C168 1.390 1_554 S
C177 H170 0.950 . S
C177 C174 1.387 . S
C178 C179 1.387 . S
C178 H182 0.950 . S
C178 C187 1.390 . S
C179 C178 1.387 . S
C179 C181 1.387 . S
H180 C187 0.950 . S
C181 C179 1.387 . S
C181 C183 1.390 . S
C181 H185 0.950 . S
H182 C178 0.950 . S
C183 C181 1.390 . S
C183 C184 1.387 . S
C183 H186 0.950 . S
C184 C183 1.387 . S
C184 C187 1.387 . S
H185 C181 0.950 . S
H186 C183 0.950 . S
C187 C178 1.390 . S
C187 H180 0.950 . S
C187 C184 1.387 . S
C188 C189 1.387 . S
C188 H192 0.950 . S
C188 C197 1.390 . S
C189 C188 1.387 . S
C189 C191 1.387 . S
H190 C197 0.950 . S
C191 C189 1.387 . S
C191 C193 1.390 . S
C191 H195 0.950 . S
H192 C188 0.950 . S
C193 C191 1.390 . S
C193 C194 1.387 . S
C193 H196 0.950 . S
C194 C193 1.387 . S
C194 C197 1.387 . S
H195 C191 0.950 . S
H196 C193 0.950 . S
C197 C188 1.390 . S
C197 H190 0.950 . S
C197 C194 1.387 . S
C79 C5 1.982 . S
C84 C44 1.982 . S
C89 C18 1.980 . S
C94 C57 1.980 . S
C99 C31 1.982 . S
C104 C70 1.982 . S
C109 C23 2.036 . S
C114 C62 2.036 . S
C119 C75 2.036 . S
C124 C36 2.036 . S
C129 C49 2.039 . S
C134 C10 2.039 . S
C139 C29 1.614 . S
C144 C1 1.631 . S
C149 C42 1.611 . S
C154 C14 1.629 . S
C159 C27 1.631 . S
C164 C55 1.613 . S
C169 C68 1.614 . S
C174 C40 1.631 . S
C179 C53 1.631 . S
C184 C3 1.614 . S
C189 C66 1.631 . S
C194 C16 1.613 . S
