# Generated by pormake.
# Topology hex, (8)-cn, num edge types: 1
# Building blocks:
#     Node 0, Type 0, BuildingBlock: XADDAJ01_clean_sbu_3, # of connection points: 8
#     Edge 1, Type (0, 0), BuildingBlock: XIVTED_clean_linker_0, # of connection points: 2
#     Edge 2, Type (0, 0), BuildingBlock: XIVTED_clean_linker_0, # of connection points: 2
#     Edge 3, Type (0, 0), BuildingBlock: XIVTED_clean_linker_0, # of connection points: 2
#     Edge 4, Type (0, 0), BuildingBlock: XIVTED_clean_linker_0, # of connection points: 2
# Relax obj value: 0.035
# Max RMSD: 0.097
# Mean RMSD: 0.097
data_MOF--net-hex--node1-XADDAJ01_clean_sbu_3--edge1-XIVTED_clean_linker_0
_symmetry_space_group_name_H-M    P1
_symmetry_Int_Tables_number       1
_symmetry_cell_setting            triclinic
loop_
_symmetry_equiv_pos_as_xyz
'x, y, z'
_cell_length_a     21.433667
_cell_length_b     18.572178
_cell_length_c     15.097019
_cell_angle_alpha  109.6069
_cell_angle_beta   104.17734
_cell_angle_gamma 113.25497
loop_
_atom_site_label
_atom_site_type_symbol
_atom_site_fract_x
_atom_site_fract_y
_atom_site_fract_z
_atom_type_partial_charge
C0 C 0.80081 0.83636 0.93814 0.0
C1 C 0.77395 0.76418 0.959 0.0
C2 C 0.72051 0.751 -0.00041 0.0
C3 C 0.69513 0.81068 0.02072 0.0
C4 C 0.71876 0.88042 -0.00314 0.0
C5 C 0.77181 0.89333 0.95551 0.0
O6 O 0.04841 0.93109 0.09708 0.0
Tb7 Tb 0.98177 0.86576 0.92984 0.0
Tb8 Tb 0.0863 0.09194 0.04145 0.0
O9 O 0.97647 0.74233 0.91525 0.0
O10 O 0.04054 0.05649 0.14409 0.0
O11 O 0.86432 0.78297 0.84923 0.0
C12 C 0.21268 0.10726 0.07879 0.0
O13 O 0.91932 0.92826 0.94747 0.0
O14 O 1.01966 0.02662 0.87421 0.0
O15 O 1.02753 0.90121 0.82719 0.0
C16 C 0.85539 0.85044 0.8925 0.0
C17 C 1.02929 0.2151 0.01727 0.0
O18 O 0.96392 0.14075 0.97632 0.0
C19 C 0.04397 -0.00615 0.16362 0.0
C20 C 1.0241 0.96386 0.80767 0.0
O21 O 0.09161 0.21538 0.05604 0.0
C22 C 0.26727 0.12135 0.03316 0.0
C23 C 0.34934 0.07732 0.97449 0.0
C24 C 0.29628 0.06439 0.01581 0.0
C25 C 0.29412 0.19353 0.01229 0.0
C26 C 0.34756 0.20671 0.97171 0.0
C27 C 0.37296 0.14705 0.9506 0.0
C28 C 0.03879 0.74261 0.95402 0.0
O29 O 0.10415 0.81695 -0.00503 0.0
O30 O 0.20375 0.17474 0.12206 0.0
O31 O 0.14875 0.02944 0.02381 0.0
H32 H 0.79294 0.7172 0.94164 0.0
H33 H 0.65107 0.79771 0.04716 0.0
H34 H 0.78935 0.9464 0.93509 0.0
H35 H 0.27874 0.01132 0.03624 0.0
H36 H 0.27512 0.2405 0.02964 0.0
H37 H 0.41702 0.16002 0.92416 0.0
H38 H 0.15406 0.37526 0.07634 0.0
H39 H 0.91402 0.58245 0.89495 0.0
H40 H 0.91103 0.23695 0.94583 0.0
H41 H 0.15705 0.72076 0.02546 0.0
H42 H 0.91168 0.45497 0.91198 0.0
H43 H 0.1564 0.50274 0.0593 0.0
C44 C 0.10119 0.3718 0.04468 0.0
C45 C 1.03225 0.29506 0.01257 0.0
C46 C 0.96553 0.5131 0.93664 0.0
C47 C 0.03446 0.44095 -0.00779 0.0
C48 C 0.96688 0.58591 0.92661 0.0
C49 C 0.03582 0.66265 0.95872 0.0
C50 C 1.03361 0.51676 0.97908 0.0
C51 C 0.10252 0.6632 -0.00032 0.0
C52 C 0.10254 0.4446 0.03465 0.0
C53 C 0.96556 0.2945 0.9716 0.0
N54 N 0.09974 0.59162 0.00875 0.0
N55 N 0.96834 0.36608 0.96254 0.0
H56 H 0.6977 0.96579 0.16243 0.0
H57 H 0.3704 -0.00805 0.80891 0.0
H58 H 0.64216 0.89756 0.83978 0.0
H59 H 0.42593 0.06017 0.13155 0.0
H60 H 0.46675 0.95199 0.81678 0.0
H61 H 0.60134 0.00574 0.15456 0.0
C62 C 0.66644 0.96164 0.09074 0.0
C63 C 0.67788 0.9287 0.00169 0.0
C64 C 0.45728 0.97449 0.88555 0.0
C65 C 0.56596 0.97132 -0.00912 0.0
C66 C 0.40165 -0.00391 0.8806 0.0
C67 C 0.39022 0.02903 0.96965 0.0
C68 C 0.50213 -0.0136 0.98046 0.0
C69 C 0.43247 0.03403 0.06091 0.0
C70 C 0.61081 -0.01676 0.08579 0.0
C71 C 0.63562 0.92369 0.91043 0.0
N72 N 0.48724 0.01393 0.06435 0.0
N73 N 0.58085 0.94379 0.90699 0.0
H74 H 0.36934 0.22099 0.80651 0.0
H75 H 0.69874 0.73671 0.16479 0.0
H76 H 0.42243 0.37881 0.12819 0.0
H77 H 0.64563 0.57891 0.8431 0.0
H78 H 0.60086 0.60472 0.15508 0.0
H79 H 0.46721 0.35298 0.81621 0.0
C80 C 0.40028 0.28436 0.87825 0.0
C81 C 0.38791 0.28945 0.96662 0.0
C82 C 0.61125 0.59845 0.08697 0.0
C83 C 0.50153 0.43962 0.97967 0.0
C84 C 0.66779 0.67335 0.09304 0.0
C85 C 0.68016 0.66826 0.00467 0.0
C86 C 0.56653 0.51809 -0.00838 0.0
C87 C 0.63829 0.58517 0.91322 0.0
C88 C 0.45682 0.35926 0.88432 0.0
C89 C 0.42977 0.37255 0.05806 0.0
N90 N 0.58259 0.51344 0.90862 0.0
N91 N 0.48547 0.44427 0.06266 0.0
H92 H 1.03333 0.84736 0.64902 0.0
H93 H 0.03474 0.11034 0.32227 0.0
H94 H 1.019 0.08492 0.7467 0.0
H95 H 0.04907 0.87279 0.22459 0.0
H96 H 1.02925 0.10249 0.47896 0.0
H97 H 0.03881 0.85521 0.49232 0.0
C98 C 1.03111 0.90094 0.63743 0.0
C99 C 1.02554 0.96538 0.71098 0.0
C100 C 1.03371 0.05219 0.42321 0.0
C101 C 1.03212 0.9751 0.53235 0.0
C102 C 0.03696 0.05677 0.33386 0.0
C103 C 0.04253 -0.00768 0.26031 0.0
C104 C 0.03595 -0.0174 0.43893 0.0
C105 C 0.04496 0.92415 0.27923 0.0
C106 C 0.03436 0.90551 0.54807 0.0
C107 C 1.02311 0.03355 0.69206 0.0
N108 N 0.0416 0.92108 0.36656 0.0
N109 N 1.02647 0.03662 0.60473 0.0
loop_
_geom_bond_atom_site_label_1
_geom_bond_atom_site_label_2
_geom_bond_distance
_geom_bond_site_symmetry_2
_ccdc_geom_bond_type
C0 C1 1.386 . S
C0 C5 1.384 . S
C0 C16 1.497 . S
C1 C0 1.386 . S
C1 C2 1.393 1_556 S
C1 H32 0.932 . S
C2 C1 1.393 1_554 S
C2 C3 1.387 . S
C3 C2 1.387 . S
C3 C4 1.392 1_554 S
C3 H33 0.930 . S
C4 C3 1.392 1_556 S
C4 C5 1.402 . S
C5 C0 1.384 . S
C5 C4 1.402 . S
C5 H34 0.930 . S
O6 Tb7 2.288 1_554 S
O6 C19 1.257 1_665 S
Tb7 O6 2.288 1_556 S
Tb7 O9 2.303 . S
Tb7 O11 2.430 . S
Tb7 O13 2.459 . S
Tb7 O15 2.301 . S
Tb7 C16 2.808 . S
Tb8 O10 2.301 . S
Tb8 C12 2.808 . S
Tb8 O14 2.288 1_554 S
Tb8 O21 2.303 . S
Tb8 O30 2.430 . S
Tb8 O31 2.459 . S
O9 Tb7 2.303 . S
O9 C28 1.255 1_655 S
O10 Tb8 2.301 . S
O10 C19 1.237 . S
O11 Tb7 2.430 . S
O11 C16 1.248 . S
C12 Tb8 2.808 . S
C12 C22 1.497 . S
C12 O30 1.248 . S
C12 O31 1.260 . S
O13 Tb7 2.459 . S
O13 C16 1.260 . S
O14 Tb8 2.288 1_556 S
O14 C20 1.257 1_445 S
O15 Tb7 2.301 . S
O15 C20 1.237 . S
C16 C0 1.497 . S
C16 Tb7 2.808 . S
C16 O11 1.248 . S
C16 O13 1.260 . S
C17 O18 1.255 . S
C17 O21 1.255 1_655 S
O18 C17 1.255 . S
C19 O6 1.257 1_445 S
C19 O10 1.237 . S
C20 O14 1.257 1_665 S
C20 O15 1.237 . S
O21 Tb8 2.303 . S
O21 C17 1.255 1_455 S
C22 C12 1.497 . S
C22 C24 1.384 . S
C22 C25 1.386 . S
C23 C24 1.402 . S
C23 C27 1.392 1_554 S
C24 C22 1.384 . S
C24 C23 1.402 . S
C24 H35 0.930 . S
C25 C22 1.386 . S
C25 C26 1.393 1_554 S
C25 H36 0.932 . S
C26 C25 1.393 1_556 S
C26 C27 1.387 . S
C27 C23 1.392 1_556 S
C27 C26 1.387 . S
C27 H37 0.930 . S
C28 O9 1.255 1_455 S
C28 O29 1.255 . S
O29 C28 1.255 . S
O30 Tb8 2.430 . S
O30 C12 1.248 . S
O31 Tb8 2.459 . S
O31 C12 1.260 . S
H32 C1 0.932 . S
H33 C3 0.930 . S
H34 C5 0.930 . S
H35 C24 0.930 . S
H36 C25 0.932 . S
H37 C27 0.930 . S
H38 C44 0.930 . S
H39 C48 0.930 . S
H40 C53 0.929 . S
H41 C51 0.929 . S
H42 C46 0.929 . S
H43 C52 0.929 . S
C44 H38 0.930 . S
C44 C45 1.367 1_455 S
C44 C52 1.378 . S
C45 C44 1.367 1_655 S
C45 C53 1.433 1_554 S
C46 H42 0.929 . S
C46 C48 1.378 . S
C46 C50 1.352 . S
C47 C50 1.459 1_454 S
C47 C52 1.355 . S
C47 N55 1.424 1_454 S
C48 H39 0.930 . S
C48 C46 1.378 . S
C48 C49 1.367 1_655 S
C49 C48 1.367 1_455 S
C49 C51 1.433 1_556 S
C50 C46 1.352 . S
C50 C47 1.459 1_656 S
C50 N54 1.426 1_656 S
C51 H41 0.929 . S
C51 C49 1.433 1_554 S
C51 N54 1.384 . S
C52 H43 0.929 . S
C52 C44 1.378 . S
C52 C47 1.355 . S
C53 H40 0.929 . S
C53 C45 1.433 1_556 S
C53 N55 1.384 . S
N54 C50 1.426 1_454 S
N54 C51 1.384 . S
N55 C47 1.424 1_656 S
N55 C53 1.384 . S
H56 C62 0.930 . S
H57 C66 0.930 . S
H58 C71 0.929 . S
H59 C69 0.929 . S
H60 C64 0.929 . S
H61 C70 0.929 . S
C62 H56 0.930 . S
C62 C63 1.367 1_554 S
C62 C70 1.378 . S
C63 C62 1.367 1_556 S
C63 C71 1.433 1_565 S
C64 H60 0.929 . S
C64 C66 1.378 . S
C64 C68 1.350 1_556 S
C65 C68 1.463 1_566 S
C65 C70 1.350 1_556 S
C65 N73 1.427 1_565 S
C66 H57 0.930 . S
C66 C64 1.378 . S
C66 C67 1.367 1_556 S
C67 C66 1.367 1_554 S
C67 C69 1.433 1_545 S
C68 C64 1.350 1_554 S
C68 C65 1.463 1_544 S
C68 N72 1.427 1_545 S
C69 H59 0.929 . S
C69 C67 1.433 1_565 S
C69 N72 1.384 . S
C70 H61 0.929 . S
C70 C62 1.378 . S
C70 C65 1.350 1_554 S
C71 H58 0.929 . S
C71 C63 1.433 1_545 S
C71 N73 1.384 . S
N72 C68 1.427 1_565 S
N72 C69 1.384 . S
N73 C65 1.427 1_545 S
N73 C71 1.384 . S
H74 C80 0.930 . S
H75 C84 0.930 . S
H76 C89 0.929 . S
H77 C87 0.929 . S
H78 C82 0.929 . S
H79 C88 0.929 . S
C80 H74 0.930 . S
C80 C81 1.367 . S
C80 C88 1.378 . S
C81 C80 1.367 . S
C81 C89 1.433 1_556 S
C82 H78 0.929 . S
C82 C84 1.378 . S
C82 C86 1.350 . S
C83 C86 1.463 1_556 S
C83 C88 1.350 . S
C83 N91 1.427 1_556 S
C84 H75 0.930 . S
C84 C82 1.378 . S
C84 C85 1.367 . S
C85 C84 1.367 . S
C85 C87 1.433 1_554 S
C86 C82 1.350 . S
C86 C83 1.463 1_554 S
C86 N90 1.427 1_554 S
C87 H77 0.929 . S
C87 C85 1.433 1_556 S
C87 N90 1.384 . S
C88 H79 0.929 . S
C88 C80 1.378 . S
C88 C83 1.350 . S
C89 H76 0.929 . S
C89 C81 1.433 1_554 S
C89 N91 1.384 . S
N90 C86 1.427 1_556 S
N90 C87 1.384 . S
N91 C83 1.427 1_554 S
N91 C89 1.384 . S
H92 C98 0.930 . S
H93 C102 0.930 . S
H94 C107 0.929 . S
H95 C105 0.929 . S
H96 C100 0.929 . S
H97 C106 0.929 . S
C98 H92 0.930 . S
C98 C99 1.367 . S
C98 C106 1.378 . S
C99 C98 1.367 . S
C99 C107 1.433 1_665 S
C100 H96 0.929 . S
C100 C102 1.378 . S
C100 C104 1.350 . S
C101 C104 1.463 1_665 S
C101 C106 1.350 . S
C101 N109 1.427 1_665 S
C102 H93 0.930 . S
C102 C100 1.378 . S
C102 C103 1.367 . S
C103 C102 1.367 . S
C103 C105 1.433 1_445 S
C104 C100 1.350 . S
C104 C101 1.463 1_445 S
C104 N108 1.427 1_445 S
C105 H95 0.929 . S
C105 C103 1.433 1_665 S
C105 N108 1.384 . S
C106 H97 0.929 . S
C106 C98 1.378 . S
C106 C101 1.350 . S
C107 H94 0.929 . S
C107 C99 1.433 1_445 S
C107 N109 1.384 . S
N108 C104 1.427 1_665 S
N108 C105 1.384 . S
N109 C101 1.427 1_445 S
N109 C107 1.384 . S
C45 C17 0.425 . S
C49 C28 0.425 . S
C63 C4 2.070 . S
C67 C23 2.070 . S
C81 C26 1.844 . S
C85 C2 1.844 . S
C99 C20 1.487 . S
C103 C19 1.487 . S
