# Generated by pormake.
# Topology pcu, (6)-cn, num edge types: 1
# Building blocks:
#     Node 0, Type 0, BuildingBlock: FUNLAD_clean_sbu_0, # of connection points: 6
#     Edge 1, Type (0, 0), BuildingBlock: FUNLAD_clean_linker_1, # of connection points: 2
#     Edge 2, Type (0, 0), BuildingBlock: FUNLAD_clean_linker_1, # of connection points: 2
#     Edge 3, Type (0, 0), BuildingBlock: FUNLAD_clean_linker_1, # of connection points: 2
# Relax obj value: 0.000
# Max RMSD: 0.000
# Mean RMSD: 0.000
data_MOF--net-pcu--node1-FUNLAD_clean_sbu_0--edge1-FUNLAD_clean_linker_1
_symmetry_space_group_name_H-M    P1
_symmetry_Int_Tables_number       1
_symmetry_cell_setting            triclinic
loop_
_symmetry_equiv_pos_as_xyz
'x, y, z'
_cell_length_a     15.852004
_cell_length_b     15.847641
_cell_length_c     22.217462
_cell_angle_alpha  90.032246
_cell_angle_beta   92.055422
_cell_angle_gamma 94.343872
loop_
_atom_site_label
_atom_site_type_symbol
_atom_site_fract_x
_atom_site_fract_y
_atom_site_fract_z
_atom_type_partial_charge
C0 C 0.16785 -0.00174 1.00694 0.0
N1 N 0.97191 0.97604 0.87557 0.0
C2 C 0.02336 0.0301 0.84327 0.0
C3 C 0.01912 0.02813 0.78054 0.0
C4 C 0.96177 0.96922 0.75034 0.0
C5 C 0.90853 0.91495 0.78471 0.0
C6 C 0.91485 0.91914 0.84766 0.0
Zn7 Zn 0.98398 0.98431 0.96741 0.0
C8 C 0.99045 0.819 0.0273 0.0
N9 N 0.01732 0.00925 0.15856 0.0
C10 C 0.07438 0.06614 0.18647 0.0
C11 C 0.96588 0.95519 0.19086 0.0
C12 C 0.97011 0.95715 0.25359 0.0
C13 C 0.02746 0.01607 0.28379 0.0
C14 C 0.0807 0.07034 0.24942 0.0
Zn15 Zn 0.00525 0.00098 0.06671 0.0
O16 O 0.11729 0.98908 0.96143 0.0
C17 C -0.00122 0.16629 1.00683 0.0
O18 O 0.13871 0.00545 0.05915 0.0
H19 H 0.92142 0.9099 0.16791 0.0
H20 H 0.06781 0.07539 0.86622 0.0
H21 H 0.11495 0.10829 0.15993 0.0
O22 O 0.98761 0.11782 0.96131 0.0
O23 O 0.00862 0.13474 0.05901 0.0
H24 H 0.87428 0.877 0.8742 0.0
O25 O 0.87194 -0.00379 0.0727 0.0
O26 O 0.85052 0.97984 0.97498 0.0
O27 O 0.00162 0.86746 0.07282 0.0
O28 O 0.98061 0.85054 0.97512 0.0
C29 C 0.82138 0.98703 0.02719 0.0
H30 H 0.05952 0.07359 0.75651 0.0
H31 H 0.86287 0.86928 0.76309 0.0
H32 H 0.92972 0.9117 0.27762 0.0
H33 H 0.12636 0.116 0.27104 0.0
H34 H 0.09372 0.049 0.37117 0.0
C35 C 0.03504 0.02049 0.35063 0.0
H36 H 0.9122 0.96538 0.36809 0.0
H37 H 0.01612 0.83219 0.62604 0.0
H38 H 0.00429 0.70114 0.56899 0.0
H39 H 0.98282 0.70198 0.45848 0.0
H40 H 0.97359 0.83399 0.40432 0.0
C41 C 0.97234 -0.00729 0.38664 0.0
C42 C 0.98421 -0.00678 0.45332 0.0
C43 C 0.98778 0.91537 0.4844 0.0
C44 C -0.00103 0.91478 0.54819 0.0
C45 C 0.00551 0.83629 0.57781 0.0
C46 C -0.00065 0.76054 0.54556 0.0
C47 C 0.98735 0.76102 0.48334 0.0
C48 C 0.98192 0.83729 0.45284 0.0
H49 H 0.89552 0.93629 0.66296 0.0
C50 C 0.9542 0.9648 0.6835 0.0
H51 H 0.07704 0.01991 0.66604 0.0
H52 H 0.97312 0.1531 0.40809 0.0
H53 H 0.98494 0.28415 0.46514 0.0
H54 H 0.00641 0.2833 0.57565 0.0
H55 H 0.01564 0.1513 0.62981 0.0
C56 C 0.01689 -0.00742 0.64749 0.0
C57 C 0.00503 0.99206 0.5808 0.0
C58 C 0.00146 0.06992 0.54973 0.0
C59 C 0.99027 0.07051 0.48594 0.0
C60 C 0.98372 0.149 0.45632 0.0
C61 C 0.98988 0.22475 0.48857 0.0
C62 C 0.00188 0.22427 0.55079 0.0
C63 C 0.00731 0.14799 0.58129 0.0
H64 H 0.28029 -0.00214 0.95173 0.0
C65 C 0.25946 -0.00021 0.9978 0.0
H66 H 0.29797 -0.00025 0.08991 0.0
H67 H 0.63598 0.83039 0.02467 0.0
H68 H 0.55476 0.70971 0.06632 0.0
H69 H 0.40586 0.71945 0.09255 0.0
H70 H 0.33726 0.84996 0.07723 0.0
C71 C 0.31726 0.00136 0.04346 0.0
C72 C 0.4085 -0.00226 0.03116 0.0
C73 C 0.44805 0.92156 0.04155 0.0
C74 C 0.53412 0.91621 0.02701 0.0
C75 C 0.57132 0.83851 0.03608 0.0
C76 C 0.52526 0.76857 0.05965 0.0
C77 C 0.44141 0.77404 0.07436 0.0
C78 C 0.40284 0.84937 0.06539 0.0
H79 H 0.70894 0.98743 0.0824 0.0
C80 C 0.72977 0.98549 0.03633 0.0
H81 H 0.69126 0.98554 0.94422 0.0
H82 H 0.35325 0.1549 1.00946 0.0
H83 H 0.43447 0.27558 0.96781 0.0
H84 H 0.58338 0.26584 0.94158 0.0
H85 H 0.65197 0.13533 0.9569 0.0
C86 C 0.67198 0.98393 0.99067 0.0
C87 C 0.58073 0.98755 1.00297 0.0
C88 C 0.54118 0.06373 0.99258 0.0
C89 C 0.45511 0.06907 1.00712 0.0
C90 C 0.41792 0.14678 0.99805 0.0
C91 C 0.46397 0.21671 0.97448 0.0
C92 C 0.54782 0.21125 0.95977 0.0
C93 C 0.58639 0.13592 0.96874 0.0
H94 H 0.99434 0.70403 0.08244 0.0
C95 C 0.98958 0.72698 0.0364 0.0
H96 H 0.98355 0.69267 0.94427 0.0
H97 H 0.15555 0.35082 1.00773 0.0
H98 H 0.27349 0.43329 0.9645 0.0
H99 H 0.26255 0.5834 0.93817 0.0
H100 H 0.13359 0.65197 0.95498 0.0
C101 C 0.98493 0.67127 0.99073 0.0
C102 C 0.98894 0.57942 1.00295 0.0
C103 C 0.0641 0.53994 0.99167 0.0
C104 C 0.07008 0.4532 1.00624 0.0
C105 C 0.1469 0.41603 0.9963 0.0
C106 C 0.21529 0.46278 0.97183 0.0
C107 C 0.20916 0.54731 0.95707 0.0
C108 C 0.13472 0.58586 0.9669 0.0
H109 H -0.00511 0.28126 0.95169 0.0
C110 C -0.00034 0.25831 0.99773 0.0
H111 H 0.00568 0.29261 0.08986 0.0
H112 H 0.83369 0.63446 0.0264 0.0
H113 H 0.71574 0.552 0.06963 0.0
H114 H 0.72668 0.40189 0.09596 0.0
H115 H 0.85564 0.33332 0.07915 0.0
C116 C 0.0043 0.31402 0.0434 0.0
C117 C 0.00029 0.40587 0.03118 0.0
C118 C 0.92513 0.44535 0.04246 0.0
C119 C 0.91915 0.53209 0.02788 0.0
C120 C 0.84233 0.56926 0.03783 0.0
C121 C 0.77394 0.52251 0.0623 0.0
C122 C 0.78007 0.43798 0.07707 0.0
C123 C 0.85451 0.39943 0.06723 0.0
loop_
_geom_bond_atom_site_label_1
_geom_bond_atom_site_label_2
_geom_bond_distance
_geom_bond_site_symmetry_2
_ccdc_geom_bond_type
C0 O16 1.243 1_544 S
C0 O18 1.263 . S
N1 C2 1.333 1_665 S
N1 C6 1.307 . S
N1 Zn7 2.020 . S
C2 N1 1.333 1_445 S
C2 C3 1.379 . S
C2 H20 0.952 . S
C3 C2 1.379 . S
C3 C4 1.391 1_455 S
C3 H30 0.949 . S
C4 C3 1.391 1_655 S
C4 C5 1.355 1_545 S
C5 C4 1.355 1_565 S
C5 C6 1.370 . S
C5 H31 0.950 . S
C6 N1 1.307 . S
C6 C5 1.370 . S
C6 H24 0.948 . S
Zn7 N1 2.020 . S
Zn7 O16 2.039 1_655 S
Zn7 O22 2.034 1_665 S
Zn7 O26 2.025 . S
Zn7 O28 2.024 . S
C8 O27 1.246 1_556 S
C8 O28 1.249 . S
N9 C10 1.307 . S
N9 C11 1.333 1_445 S
N9 Zn15 2.020 . S
C10 N9 1.307 . S
C10 C14 1.370 . S
C10 H21 0.948 . S
C11 N9 1.333 1_665 S
C11 C12 1.379 . S
C11 H19 0.952 . S
C12 C11 1.379 . S
C12 C13 1.390 1_655 S
C12 H32 0.949 . S
C13 C12 1.390 1_455 S
C13 C14 1.356 1_565 S
C14 C10 1.370 . S
C14 C13 1.356 1_545 S
C14 H33 0.950 . S
Zn15 N9 2.020 . S
Zn15 O18 2.025 . S
Zn15 O23 2.024 . S
Zn15 O25 2.039 1_455 S
Zn15 O27 2.034 1_445 S
O16 C0 1.243 1_566 S
O16 Zn7 2.039 1_455 S
C17 O22 1.246 1_554 S
C17 O23 1.249 . S
O18 C0 1.263 . S
O18 Zn15 2.025 . S
H19 C11 0.952 . S
H20 C2 0.952 . S
H21 C10 0.948 . S
O22 Zn7 2.034 1_445 S
O22 C17 1.246 1_556 S
O23 Zn15 2.024 . S
O23 C17 1.249 . S
H24 C6 0.948 . S
O25 Zn15 2.039 1_655 S
O25 C29 1.246 1_544 S
O26 Zn7 2.025 . S
O26 C29 1.259 . S
O27 C8 1.246 1_554 S
O27 Zn15 2.034 1_665 S
O28 Zn7 2.024 . S
O28 C8 1.249 . S
C29 O25 1.246 1_566 S
C29 O26 1.259 . S
H30 C3 0.949 . S
H31 C5 0.950 . S
H32 C12 0.949 . S
H33 C14 0.950 . S
H34 C35 0.951 . S
C35 H34 0.951 . S
C35 C41 1.265 1_445 S
H36 C41 0.950 . S
H37 C45 0.949 . S
H38 C46 0.950 . S
H39 C47 0.951 . S
H40 C48 0.951 . S
C41 C35 1.265 1_665 S
C41 H36 0.950 . S
C41 C42 1.478 . S
C42 C41 1.478 . S
C42 C43 1.397 . S
C42 C59 1.394 1_665 S
C43 C42 1.397 . S
C43 C44 1.438 . S
C43 C48 1.429 . S
C44 C43 1.438 . S
C44 C45 1.428 . S
C44 C57 1.394 1_665 S
C45 H37 0.949 . S
C45 C44 1.428 . S
C45 C46 1.345 . S
C46 H38 0.950 . S
C46 C45 1.345 . S
C46 C47 1.424 . S
C47 H39 0.951 . S
C47 C46 1.424 . S
C47 C48 1.347 . S
C48 H40 0.951 . S
C48 C43 1.429 . S
C48 C47 1.347 . S
H49 C50 0.951 1_565 S
C50 H49 0.951 1_545 S
C50 C56 1.265 1_655 S
H51 C56 0.950 . S
H52 C60 0.949 . S
H53 C61 0.950 . S
H54 C62 0.951 . S
H55 C63 0.951 . S
C56 C50 1.265 1_455 S
C56 H51 0.950 . S
C56 C57 1.478 . S
C57 C44 1.394 1_445 S
C57 C56 1.478 . S
C57 C58 1.397 . S
C58 C57 1.397 . S
C58 C59 1.438 . S
C58 C63 1.429 . S
C59 C42 1.394 1_445 S
C59 C58 1.438 . S
C59 C60 1.428 . S
C60 H52 0.949 . S
C60 C59 1.428 . S
C60 C61 1.345 . S
C61 H53 0.950 . S
C61 C60 1.345 . S
C61 C62 1.424 . S
C62 H54 0.951 . S
C62 C61 1.424 . S
C62 C63 1.347 . S
C63 H55 0.951 . S
C63 C58 1.429 . S
C63 C62 1.347 . S
H64 C65 0.951 . S
C65 H64 0.951 . S
C65 C71 1.265 1_566 S
H66 C71 0.950 . S
H67 C75 0.949 . S
H68 C76 0.950 . S
H69 C77 0.951 . S
H70 C78 0.951 . S
C71 C65 1.265 1_544 S
C71 H66 0.950 . S
C71 C72 1.478 . S
C72 C71 1.478 . S
C72 C73 1.397 1_545 S
C72 C89 1.394 1_554 S
C73 C72 1.397 1_565 S
C73 C74 1.438 . S
C73 C78 1.429 . S
C74 C73 1.438 . S
C74 C75 1.428 . S
C74 C87 1.394 1_554 S
C75 H67 0.949 . S
C75 C74 1.428 . S
C75 C76 1.345 . S
C76 H68 0.950 . S
C76 C75 1.345 . S
C76 C77 1.424 . S
C77 H69 0.951 . S
C77 C76 1.424 . S
C77 C78 1.347 . S
C78 H70 0.951 . S
C78 C73 1.429 . S
C78 C77 1.347 . S
H79 C80 0.951 . S
C80 H79 0.951 . S
C80 C86 1.265 1_544 S
H81 C86 0.950 . S
H82 C90 0.949 . S
H83 C91 0.950 . S
H84 C92 0.951 . S
H85 C93 0.951 . S
C86 C80 1.265 1_566 S
C86 H81 0.950 . S
C86 C87 1.478 . S
C87 C74 1.394 1_556 S
C87 C86 1.478 . S
C87 C88 1.397 1_565 S
C88 C87 1.397 1_545 S
C88 C89 1.438 . S
C88 C93 1.429 . S
C89 C72 1.394 1_556 S
C89 C88 1.438 . S
C89 C90 1.428 . S
C90 H82 0.949 . S
C90 C89 1.428 . S
C90 C91 1.345 . S
C91 H83 0.950 . S
C91 C90 1.345 . S
C91 C92 1.424 . S
C92 H84 0.951 . S
C92 C91 1.424 . S
C92 C93 1.347 . S
C93 H85 0.951 . S
C93 C88 1.429 . S
C93 C92 1.347 . S
H94 C95 0.951 . S
C95 H94 0.951 . S
C95 C101 1.265 1_454 S
H96 C101 0.950 . S
H97 C105 0.949 . S
H98 C106 0.950 . S
H99 C107 0.951 . S
H100 C108 0.951 . S
C101 C95 1.265 1_656 S
C101 H96 0.950 . S
C101 C102 1.478 . S
C102 C101 1.478 . S
C102 C103 1.397 . S
C102 C119 1.394 1_656 S
C103 C102 1.397 . S
C103 C104 1.438 . S
C103 C108 1.429 . S
C104 C103 1.438 . S
C104 C105 1.428 . S
C104 C117 1.394 1_656 S
C105 H97 0.949 . S
C105 C104 1.428 . S
C105 C106 1.345 . S
C106 H98 0.950 . S
C106 C105 1.345 . S
C106 C107 1.424 . S
C107 H99 0.951 . S
C107 C106 1.424 . S
C107 C108 1.347 . S
C108 H100 0.951 . S
C108 C103 1.429 . S
C108 C107 1.347 . S
H109 C110 0.951 . S
C110 H109 0.951 . S
C110 C116 1.265 1_656 S
H111 C116 0.950 . S
H112 C120 0.949 . S
H113 C121 0.950 . S
H114 C122 0.951 . S
H115 C123 0.951 . S
C116 C110 1.265 1_454 S
C116 H111 0.950 . S
C116 C117 1.478 . S
C117 C104 1.394 1_454 S
C117 C116 1.478 . S
C117 C118 1.397 . S
C118 C117 1.397 . S
C118 C119 1.438 . S
C118 C123 1.429 . S
C119 C102 1.394 1_454 S
C119 C118 1.438 . S
C119 C120 1.428 . S
C120 H112 0.949 . S
C120 C119 1.428 . S
C120 C121 1.345 . S
C121 H113 0.950 . S
C121 C120 1.345 . S
C121 C122 1.424 . S
C122 H114 0.951 . S
C122 C121 1.424 . S
C122 C123 1.347 . S
C123 H115 0.951 . S
C123 C118 1.429 . S
C123 C122 1.347 . S
C35 C13 1.478 1_545 S
C50 C4 1.479 . S
C65 C0 1.490 1_566 S
C80 C29 1.491 1_544 S
C95 C8 1.497 1_454 S
C110 C17 1.497 1_656 S
