# Generated by pormake.
# Topology hcp, (12)-cn, num edge types: 1
# Building blocks:
#     Node 0, Type 0, BuildingBlock: QEWDON_clean_sbu_0, # of connection points: 12
#     Node 1, Type 0, BuildingBlock: QEWDON_clean_sbu_0, # of connection points: 12
#     Edge 2, Type (0, 0), None
#     Edge 3, Type (0, 0), None
#     Edge 4, Type (0, 0), None
#     Edge 5, Type (0, 0), None
#     Edge 6, Type (0, 0), None
#     Edge 7, Type (0, 0), None
#     Edge 8, Type (0, 0), None
#     Edge 9, Type (0, 0), None
#     Edge 10, Type (0, 0), None
#     Edge 11, Type (0, 0), None
#     Edge 12, Type (0, 0), None
#     Edge 13, Type (0, 0), None
# Relax obj value: 0.212
# Max RMSD: 0.277
# Mean RMSD: 0.277
data_MOF--net-hcp--node1-QEWDON_clean_sbu_0--edge1-none
_symmetry_space_group_name_H-M    P1
_symmetry_Int_Tables_number       1
_symmetry_cell_setting            triclinic
loop_
_symmetry_equiv_pos_as_xyz
'x, y, z'
_cell_length_a     11.831407
_cell_length_b     10.628109
_cell_length_c     17.585428
_cell_angle_alpha  81.910103
_cell_angle_beta   89.876435
_cell_angle_gamma 124.23733
loop_
_atom_site_label
_atom_site_type_symbol
_atom_site_fract_x
_atom_site_fract_y
_atom_site_fract_z
_atom_type_partial_charge
Zn0 Zn 0.8197 0.21677 0.37668 0.0
Zn1 Zn 0.9298 0.54755 0.19232 0.0
O2 O 0.80866 0.37951 0.29043 0.0
H3 H 0.71558 0.35295 0.2927 0.0
C4 C 0.59298 0.81636 0.32664 0.0
O5 O 0.67515 0.96209 0.33315 0.0
Zn6 Zn 0.43693 0.47813 0.25122 0.0
Zn7 Zn 0.18044 0.16089 0.34966 0.0
O8 O 0.35837 0.25364 0.27926 0.0
H9 H 0.4017 0.20226 0.26927 0.0
Zn10 Zn 0.477 0.92696 0.21144 0.0
O11 O 0.63816 0.15139 0.18999 0.0
Zn12 Zn 0.58538 0.23273 0.09637 0.0
H13 H 0.73045 0.18078 0.19709 0.0
Zn14 Zn 0.60914 0.35447 0.53092 0.0
O15 O 0.59979 0.37271 0.41597 0.0
H16 H 0.51767 0.32676 0.38953 0.0
Zn17 Zn 0.76839 0.58966 0.4041 0.0
C18 C 0.50433 0.52435 0.53647 0.0
O19 O 0.43521 0.4264 0.48949 0.0
O20 O 0.94763 0.41147 0.29623 0.0
O21 O 0.10467 0.56756 0.2009 0.0
O22 O 0.09965 0.28873 0.33056 0.0
O23 O 0.27779 0.49793 0.25699 0.0
O24 O 0.43359 0.85961 0.10747 0.0
O25 O 0.4335 0.06182 0.05377 0.0
C26 C 0.93345 0.76567 0.25346 0.0
O27 O 0.78233 0.36706 0.54922 0.0
O28 O 0.90725 0.59712 0.47327 0.0
O29 O 0.03567 0.93255 0.34386 0.0
C30 C 0.06917 0.47423 0.26392 0.0
O31 O 0.65469 0.11989 0.46325 0.0
C32 C 0.5478 0.49355 0.09792 0.0
O33 O 0.49887 0.775 0.28214 0.0
C34 C 0.15448 0.42012 0.28806 0.0
O35 O 0.59271 0.51602 0.57277 0.0
C36 C 0.84345 0.44137 0.03992 0.0
O37 O -0.02644 0.75847 0.1889 0.0
O38 O 0.85488 0.64014 0.29945 0.0
C39 C 0.41795 0.93432 0.0508 0.0
O40 O 0.51788 0.56215 0.13894 0.0
O41 O 0.5377 0.37236 0.13021 0.0
C42 C 0.62879 0.70907 0.3546 0.0
O43 O 0.74008 0.34299 1.0101 0.0
O44 O 0.82411 0.45012 0.10886 0.0
C45 C 0.8976 0.4872 0.51991 0.0
O46 O 0.71911 0.74222 0.40186 0.0
O47 O 0.57875 0.5857 0.32672 0.0
C48 C -0.00451 0.91555 0.27693 0.0
O49 O 0.04429 0.0386 0.22364 0.0
C50 C 0.52929 0.06327 0.45223 0.0
O51 O 0.4938 0.06544 0.38162 0.0
Zn52 Zn 0.60929 0.55558 0.84733 0.0
Zn53 Zn 0.61113 0.76108 0.69494 0.0
O54 O 0.50118 0.6358 0.7978 0.0
H55 H 0.44575 0.65595 0.82735 0.0
C56 C 0.3121 0.25491 0.68222 0.0
O57 O 0.37276 0.38434 0.70969 0.0
Zn58 Zn 0.18382 0.86752 0.61825 0.0
Zn59 Zn 0.92197 0.50472 0.78474 0.0
O60 O 0.09255 0.6394 0.69003 0.0
H61 H 0.0959 0.55597 0.67726 0.0
Zn62 Zn 0.17846 0.39554 0.63006 0.0
O63 O 0.2886 0.57409 0.69277 0.0
Zn64 Zn 0.30157 0.69277 0.58647 0.0
H65 H 0.26436 0.57853 0.74438 0.0
Zn66 Zn 0.20586 0.63918 0.88965 0.0
O67 O 0.22688 0.80104 0.80379 0.0
H68 H 0.15007 0.80998 0.80172 0.0
Zn69 Zn 0.4136 0.98611 0.80884 0.0
C70 C -0.0201 0.53401 0.99855 0.0
O71 O 0.07694 0.65918 0.02306 0.0
O72 O 0.78615 0.63779 0.77819 0.0
O73 O 0.75401 0.743 0.66909 0.0
O74 O 0.00491 0.68401 0.69758 0.0
O75 O 0.01515 0.86475 0.61475 0.0
O76 O 0.01886 0.38617 0.57425 0.0
O77 O 0.12717 0.64011 0.54316 0.0
C78 C 0.67782 0.04844 0.73282 0.0
O79 O 0.32813 0.74 0.97458 0.0
O80 O 0.42782 0.98574 0.91862 0.0
O81 O 0.74361 0.28772 0.77242 0.0
C82 C 0.82207 0.70515 0.7078 0.0
O83 O 0.58063 0.47047 0.96724 0.0
C84 C 0.4234 0.98271 0.51846 0.0
O85 O 0.21344 0.22069 0.64128 0.0
C86 C 0.95082 0.75298 0.67119 0.0
O87 O 0.00596 0.49419 0.93962 0.0
C88 C 0.46657 0.62854 0.55002 0.0
O89 O 0.72373 0.98567 0.6999 0.0
O90 O 0.55049 0.96762 0.75557 0.0
C91 C 0.02155 0.50444 0.54419 0.0
O92 O 0.30123 0.94508 0.51254 0.0
O93 O 0.44533 0.91986 0.57737 0.0
C94 C 0.34986 0.14767 0.70853 0.0
O95 O 0.37149 0.62133 0.51446 0.0
O96 O 0.50542 0.70653 0.60457 0.0
C97 C 0.39221 0.88297 0.97766 0.0
O98 O 0.42427 0.17458 0.76364 0.0
O99 O 0.30219 0.02101 0.68475 0.0
C100 C 0.77773 0.20677 0.74675 0.0
O101 O 0.90909 0.26527 0.7342 0.0
C102 C 0.58887 0.55479 1.01456 0.0
O103 O 0.61629 0.69176 0.98733 0.0
loop_
_geom_bond_atom_site_label_1
_geom_bond_atom_site_label_2
_geom_bond_distance
_geom_bond_site_symmetry_2
_ccdc_geom_bond_type
Zn0 O2 1.933 . S
Zn0 O20 1.985 1_655 S
Zn0 O31 1.955 . S
Zn1 O2 1.911 1_455 S
Zn1 O21 1.970 . S
Zn1 O37 1.945 . S
Zn1 O44 1.981 1_455 S
O2 Zn0 1.933 . S
O2 Zn1 1.911 1_655 S
O2 H3 0.841 . S
H3 O2 0.841 . S
C4 O5 1.246 1_565 S
C4 O33 1.276 . S
O5 C4 1.246 1_545 S
Zn6 O8 1.911 . S
Zn6 O23 1.970 . S
Zn6 O40 1.945 . S
Zn6 O47 1.981 . S
Zn7 O8 1.933 . S
Zn7 O22 1.985 . S
Zn7 O29 1.955 1_545 S
O8 Zn6 1.911 . S
O8 Zn7 1.933 . S
O8 H9 0.841 . S
H9 O8 0.841 . S
Zn10 O11 1.933 1_565 S
Zn10 O24 1.985 . S
Zn10 O33 1.955 . S
O11 Zn10 1.933 1_545 S
O11 Zn12 1.911 . S
O11 H13 0.841 . S
Zn12 O11 1.911 . S
Zn12 O25 1.970 1_554 S
Zn12 O41 1.981 . S
Zn12 O43 1.945 . S
H13 O11 0.841 . S
Zn14 O15 1.933 . S
Zn14 O27 1.985 . S
Zn14 O35 1.955 . S
O15 Zn14 1.933 . S
O15 H16 0.841 . S
O15 Zn17 1.911 . S
H16 O15 0.841 . S
Zn17 O15 1.911 . S
Zn17 O28 1.970 . S
Zn17 O38 1.981 1_655 S
Zn17 O46 1.945 . S
C18 O19 1.246 . S
C18 O35 1.276 . S
O19 C18 1.246 . S
O20 Zn0 1.985 1_455 S
O20 C30 1.245 . S
O21 Zn1 1.970 . S
O21 C30 1.263 . S
O22 Zn7 1.985 . S
O22 C34 1.245 . S
O23 Zn6 1.970 . S
O23 C34 1.263 . S
O24 Zn10 1.985 . S
O24 C39 1.245 1_554 S
O25 Zn12 1.970 1_556 S
O25 C39 1.263 1_545 S
C26 O37 1.262 . S
C26 O38 1.245 . S
O27 Zn14 1.985 . S
O27 C45 1.245 . S
O28 Zn17 1.970 . S
O28 C45 1.263 . S
O29 Zn7 1.955 1_565 S
O29 C48 1.276 . S
C30 O20 1.245 . S
C30 O21 1.263 . S
O31 Zn0 1.955 . S
O31 C50 1.276 . S
C32 O40 1.262 . S
C32 O41 1.245 . S
O33 C4 1.276 . S
O33 Zn10 1.955 . S
C34 O22 1.245 . S
C34 O23 1.263 . S
O35 Zn14 1.955 . S
O35 C18 1.276 . S
C36 O43 1.262 . S
C36 O44 1.245 . S
O37 Zn1 1.945 . S
O37 C26 1.262 . S
O38 Zn17 1.981 1_455 S
O38 C26 1.245 . S
C39 O24 1.245 1_556 S
C39 O25 1.263 1_565 S
O40 Zn6 1.945 . S
O40 C32 1.262 . S
O41 Zn12 1.981 . S
O41 C32 1.245 . S
C42 O46 1.262 . S
C42 O47 1.245 . S
O43 Zn12 1.945 . S
O43 C36 1.262 . S
O44 Zn1 1.981 1_655 S
O44 C36 1.245 . S
C45 O27 1.245 . S
C45 O28 1.263 . S
O46 Zn17 1.945 . S
O46 C42 1.262 . S
O47 Zn6 1.981 . S
O47 C42 1.245 . S
C48 O29 1.276 . S
C48 O49 1.246 . S
O49 C48 1.246 . S
C50 O31 1.276 . S
C50 O51 1.246 . S
O51 C50 1.246 . S
Zn52 O54 1.933 . S
Zn52 O72 1.985 . S
Zn52 O83 1.955 . S
Zn53 O54 1.911 . S
Zn53 O73 1.970 . S
Zn53 O89 1.943 1_565 S
Zn53 O96 1.981 . S
O54 Zn52 1.933 . S
O54 Zn53 1.911 . S
O54 H55 0.841 . S
H55 O54 0.841 . S
C56 O57 1.246 . S
C56 O85 1.276 . S
O57 C56 1.246 . S
Zn58 O60 1.911 . S
Zn58 O75 1.970 1_455 S
Zn58 O92 1.945 . S
Zn58 O99 1.981 1_565 S
Zn59 O60 1.933 1_655 S
Zn59 O74 1.985 . S
Zn59 O81 1.955 . S
O60 Zn58 1.911 . S
O60 Zn59 1.933 1_455 S
O60 H61 0.841 . S
H61 O60 0.841 . S
Zn62 O63 1.933 . S
Zn62 O76 1.985 . S
Zn62 O85 1.955 . S
O63 Zn62 1.933 . S
O63 Zn64 1.911 . S
O63 H65 0.841 . S
Zn64 O63 1.911 . S
Zn64 O77 1.970 . S
Zn64 O93 1.981 . S
Zn64 O95 1.945 . S
H65 O63 0.841 . S
Zn66 O67 1.933 . S
Zn66 O79 1.985 1_556 S
Zn66 O87 1.955 . S
O67 Zn66 1.933 . S
O67 H68 0.841 . S
O67 Zn69 1.911 1_565 S
H68 O67 0.841 . S
Zn69 O67 1.911 1_545 S
Zn69 O80 1.970 . S
Zn69 O90 1.981 . S
Zn69 O98 1.945 . S
C70 O71 1.246 . S
C70 O87 1.276 . S
O71 C70 1.246 . S
O72 Zn52 1.985 . S
O72 C82 1.245 . S
O73 Zn53 1.970 . S
O73 C82 1.263 . S
O74 Zn59 1.985 . S
O74 C86 1.245 . S
O75 Zn58 1.970 1_655 S
O75 C86 1.263 . S
O76 Zn62 1.985 . S
O76 C91 1.245 . S
O77 Zn64 1.970 . S
O77 C91 1.263 . S
C78 O89 1.264 . S
C78 O90 1.245 . S
O79 Zn66 1.985 1_554 S
O79 C97 1.243 1_564 S
O80 Zn69 1.970 . S
O80 C97 1.272 . S
O81 Zn59 1.955 . S
O81 C100 1.276 . S
C82 O72 1.245 . S
C82 O73 1.263 . S
O83 Zn52 1.955 . S
O83 C102 1.276 . S
C84 O92 1.262 . S
C84 O93 1.245 . S
O85 C56 1.276 . S
O85 Zn62 1.955 . S
C86 O74 1.245 . S
C86 O75 1.263 . S
O87 Zn66 1.955 . S
O87 C70 1.276 . S
C88 O95 1.262 . S
C88 O96 1.245 . S
O89 Zn53 1.943 1_545 S
O89 C78 1.264 . S
O90 Zn69 1.981 . S
O90 C78 1.245 . S
C91 O76 1.245 . S
C91 O77 1.263 . S
O92 Zn58 1.945 . S
O92 C84 1.262 . S
O93 Zn64 1.981 . S
O93 C84 1.245 . S
C94 O98 1.262 . S
C94 O99 1.245 . S
O95 Zn64 1.945 . S
O95 C88 1.262 . S
O96 Zn53 1.981 . S
O96 C88 1.245 . S
C97 O79 1.243 1_546 S
C97 O80 1.272 . S
O98 Zn69 1.945 . S
O98 C94 1.262 . S
O99 Zn58 1.981 1_545 S
O99 C94 1.245 . S
C100 O81 1.276 . S
C100 O101 1.246 1_655 S
O101 C100 1.246 1_455 S
C102 O83 1.276 . S
C102 O103 1.246 . S
O103 C102 1.246 . S
C97 C39 1.408 1_545 S
C88 C18 5.323 . S
C36 C70 1.870 1_654 S
C84 C50 5.038 1_565 S
C32 C102 2.127 1_554 S
C45 C91 5.243 1_655 S
C4 C42 1.825 . S
C86 C82 1.878 . S
C48 C26 1.533 . S
C56 C94 1.825 . S
C34 C30 1.874 . S
C100 C78 1.533 . S
