# Generated by pormake.
# Topology uoo, (4)-cn, num edge types: 1
# Building blocks:
#     Node 0, Type 0, BuildingBlock: GALJAG_clean_sbu_0, # of connection points: 4
#     Node 1, Type 0, BuildingBlock: GALJAG_clean_sbu_0, # of connection points: 4
#     Node 2, Type 0, BuildingBlock: GALJAG_clean_sbu_0, # of connection points: 4
#     Node 3, Type 0, BuildingBlock: GALJAG_clean_sbu_0, # of connection points: 4
#     Node 4, Type 0, BuildingBlock: GALJAG_clean_sbu_0, # of connection points: 4
#     Node 5, Type 0, BuildingBlock: GALJAG_clean_sbu_0, # of connection points: 4
#     Edge 6, Type (0, 0), BuildingBlock: OJICUG_clean_linker_0, # of connection points: 2
#     Edge 7, Type (0, 0), BuildingBlock: OJICUG_clean_linker_0, # of connection points: 2
#     Edge 8, Type (0, 0), BuildingBlock: OJICUG_clean_linker_0, # of connection points: 2
#     Edge 9, Type (0, 0), BuildingBlock: OJICUG_clean_linker_0, # of connection points: 2
#     Edge 10, Type (0, 0), BuildingBlock: OJICUG_clean_linker_0, # of connection points: 2
#     Edge 11, Type (0, 0), BuildingBlock: OJICUG_clean_linker_0, # of connection points: 2
#     Edge 12, Type (0, 0), BuildingBlock: OJICUG_clean_linker_0, # of connection points: 2
#     Edge 13, Type (0, 0), BuildingBlock: OJICUG_clean_linker_0, # of connection points: 2
#     Edge 14, Type (0, 0), BuildingBlock: OJICUG_clean_linker_0, # of connection points: 2
#     Edge 15, Type (0, 0), BuildingBlock: OJICUG_clean_linker_0, # of connection points: 2
#     Edge 16, Type (0, 0), BuildingBlock: OJICUG_clean_linker_0, # of connection points: 2
#     Edge 17, Type (0, 0), BuildingBlock: OJICUG_clean_linker_0, # of connection points: 2
# Relax obj value: 0.098
# Max RMSD: 0.113
# Mean RMSD: 0.113
data_MOF--net-uoo--node1-GALJAG_clean_sbu_0--edge1-OJICUG_clean_linker_0
_symmetry_space_group_name_H-M    P1
_symmetry_Int_Tables_number       1
_symmetry_cell_setting            triclinic
loop_
_symmetry_equiv_pos_as_xyz
'x, y, z'
_cell_length_a     18.574494
_cell_length_b     18.513289
_cell_length_c     28.394942
_cell_angle_alpha  89.963008
_cell_angle_beta   90.128506
_cell_angle_gamma 120.03988
loop_
_atom_site_label
_atom_site_type_symbol
_atom_site_fract_x
_atom_site_fract_y
_atom_site_fract_z
_atom_type_partial_charge
In0 In 0.15139 0.30928 0.01583 0.0
O1 O 0.05104 0.19887 0.05757 0.0
O2 O 0.1591 0.28733 0.09417 0.0
C3 C 0.12859 0.22552 0.93406 0.0
C4 C 0.07523 0.40116 0.01792 0.0
C5 C 0.31921 0.40236 0.01505 0.0
O6 O 0.13802 0.1984 0.97298 0.0
O7 O 0.12983 0.29406 0.93658 0.0
O8 O 0.27291 0.42954 0.00071 0.0
O9 O 0.28094 0.32779 0.02928 0.0
C10 C 0.0895 0.22137 0.09628 0.0
O11 O 0.14578 0.42559 0.03604 0.0
O12 O 0.04243 0.32979 -0.00078 0.0
In13 In 0.83522 0.14926 0.33952 0.0
O14 O 0.86962 0.07999 0.39513 0.0
O15 O 0.78301 0.11863 0.41289 0.0
C16 C 0.92142 0.1239 0.27144 0.0
C17 C 0.6731 0.07723 0.31603 0.0
C18 C 0.91097 0.3177 0.34197 0.0
O19 O 0.95552 0.16431 0.30853 0.0
O20 O 0.84352 0.0919 0.2704 0.0
O21 O 0.87458 0.27551 0.30585 0.0
O22 O 0.9085 0.27506 0.37722 0.0
C23 C 0.82114 0.08174 0.42569 0.0
O24 O 0.71853 0.15505 0.32165 0.0
O25 O 0.71008 0.03612 0.32111 0.0
In26 In 0.69331 0.8493 0.6926 0.0
O27 O 0.60741 0.72342 0.72674 0.0
O28 O 0.63975 0.72332 0.65509 0.0
C29 C 0.60343 0.92096 0.71733 0.0
C30 C 0.8078 0.87573 0.7594 0.0
C31 C 0.74277 0.91622 0.606 0.0
O32 O 0.57126 0.84311 0.71193 0.0
O33 O 0.68125 0.96222 0.71161 0.0
O34 O 0.79427 0.91756 0.63566 0.0
O35 O 0.66852 0.87987 0.61983 0.0
C36 C 0.60052 0.68098 0.69056 0.0
O37 O 0.79839 0.83275 0.723 0.0
O38 O 0.76339 0.90947 0.76034 0.0
In39 In 0.8455 0.69822 0.01762 0.0
O40 O 0.93838 0.80937 0.06176 0.0
O41 O 0.83021 0.71581 0.09584 0.0
C42 C 0.88083 0.7853 0.93608 0.0
C43 C 0.92104 0.60567 0.01521 0.0
C44 C 0.67747 0.60625 0.01985 0.0
O45 O 0.86397 0.80982 0.97371 0.0
O46 O 0.88178 0.71796 0.93989 0.0
O47 O 0.72373 0.57898 0.03411 0.0
O48 O 0.71586 0.68055 0.00524 0.0
C49 C 0.89801 0.78359 0.09963 0.0
O50 O 0.95484 0.67774 0.03304 0.0
O51 O 0.84988 0.58093 0.99787 0.0
In52 In 0.15538 0.84595 0.34114 0.0
O53 O 0.27122 0.83996 0.32147 0.0
O54 O 0.27973 0.95889 0.32149 0.0
C55 C 0.08074 0.67764 0.34282 0.0
C56 C 0.17351 0.91389 0.42757 0.0
C57 C 0.06557 0.87176 0.27523 0.0
O58 O 0.11478 0.72025 0.30649 0.0
O59 O 0.08499 0.71983 0.37867 0.0
O60 O 0.03302 0.82888 0.31176 0.0
O61 O 0.14364 0.90561 0.27365 0.0
C62 C 0.31652 0.91775 0.31582 0.0
O63 O 0.12274 0.91439 0.39805 0.0
O64 O 0.21157 0.87758 0.41377 0.0
In65 In 0.31652 0.15285 0.69252 0.0
O66 O 0.40277 0.27871 0.72662 0.0
O67 O 0.37126 0.27873 0.65472 0.0
C68 C 0.40606 0.08049 0.71696 0.0
C69 C 0.20406 0.1298 0.75946 0.0
C70 C 0.26294 0.08445 0.60648 0.0
O71 O 0.43853 0.15823 0.71102 0.0
O72 O 0.32806 0.03956 0.71183 0.0
O73 O 0.21288 0.08295 0.63706 0.0
O74 O 0.33798 0.12174 0.61912 0.0
C75 C 0.41024 0.32111 0.69032 0.0
O76 O 0.21248 0.17091 0.72237 0.0
O77 O 0.24837 0.09596 0.7611 0.0
C78 C 0.13679 0.19703 0.80317 0.0
C79 C 0.16189 0.13702 0.80171 0.0
H80 H 0.10628 0.2722 0.84666 0.0
C81 C 0.16096 0.09576 0.84348 0.0
H82 H 0.1365 0.22962 0.77153 0.0
C83 C 0.1436 0.12015 0.88657 0.0
C84 C 0.1273 0.18643 0.88852 0.0
H85 H 0.17939 0.04873 0.84335 0.0
H86 H 0.14862 0.09103 0.91855 0.0
C87 C 0.11992 0.22175 0.84626 0.0
C88 C 0.05502 0.18731 0.22704 0.0
C89 C 0.96922 0.13033 0.22861 0.0
H90 H 0.16082 0.26081 0.18344 0.0
C91 C 0.92717 0.09206 0.18662 0.0
H92 H 0.08921 0.21745 0.25885 0.0
C93 C 0.96818 0.11703 0.14337 0.0
C94 C 0.05177 0.18073 0.1415 0.0
H95 H 0.86113 0.04733 0.18679 0.0
H96 H 0.93287 0.0906 0.11133 0.0
C97 C 0.09594 0.21248 0.1838 0.0
C98 C 0.73013 0.02004 0.495 0.0
C99 C 0.80431 0.03961 0.4718 0.0
H100 H 0.6528 0.96511 0.55488 0.0
C101 C 0.85959 0.01818 0.493 0.0
H102 H 0.68603 0.03529 0.47948 0.0
C103 C 0.84094 0.97869 0.5372 0.0
C104 C 0.7659 0.95847 0.55987 0.0
H105 H 0.91726 0.03273 0.47576 0.0
H106 H 0.88437 0.96313 0.55328 0.0
C107 C 0.71084 0.97935 0.53818 0.0
C108 C 0.89311 0.7878 0.8484 0.0
C109 C 0.88514 0.82431 0.88999 0.0
H110 H 0.87653 0.77716 0.77361 0.0
C111 C 0.8692 0.89073 0.88669 0.0
H112 H 0.9064 0.73715 0.84983 0.0
C113 C 0.85215 0.9137 0.84301 0.0
C114 C 0.85097 0.87073 0.80196 0.0
H115 H 0.86379 0.92083 0.91811 0.0
H116 H 0.83367 0.96068 0.84192 0.0
C117 C 0.87634 0.81098 0.80468 0.0
C118 C 0.93138 0.80669 0.23091 0.0
C119 C 0.01628 0.86691 0.23323 0.0
H120 H 0.82669 0.73315 0.18627 0.0
C121 C 0.05677 0.91083 0.19219 0.0
H122 H 0.89838 0.77213 0.26201 0.0
C123 C 0.01568 0.88852 0.1488 0.0
C124 C 0.93358 0.82175 0.14577 0.0
H125 H 0.12201 0.95817 0.193 0.0
H126 H 0.05023 0.91946 0.1173 0.0
C127 C 0.89038 0.78413 0.18747 0.0
C128 C 0.29196 0.0218 0.53737 0.0
C129 C 0.23731 0.04132 0.56063 0.0
H130 H 0.31375 0.96552 0.47781 0.0
C131 C 0.15995 0.01847 0.53987 0.0
H132 H 0.35179 0.03812 0.55256 0.0
C133 C 0.13846 0.97758 0.49607 0.0
C134 C 0.19328 0.95735 0.47336 0.0
H135 H 0.11676 0.03291 0.55718 0.0
H136 H 0.07897 0.96096 0.48032 0.0
C137 C 0.26992 0.97969 0.49459 0.0
C138 C 0.45977 0.42156 0.0329 0.0
C139 C 0.41085 0.45439 0.01609 0.0
H140 H 0.58249 0.44401 0.04742 0.0
C141 C 0.45024 0.53779 0.0009 0.0
H142 H 0.43116 0.35753 0.04492 0.0
C143 C 0.53688 0.58736 0.00241 0.0
C144 C 0.5858 0.5545 0.01918 0.0
H145 H 0.41414 0.56487 0.98786 0.0
H146 H 0.56551 0.65135 0.99034 0.0
C147 C 0.5464 0.47113 0.03443 0.0
C148 C 0.97368 0.45434 0.29998 0.0
C149 C 0.95426 0.40973 0.3425 0.0
H150 H 0.03008 0.57423 0.26683 0.0
C151 C 0.97713 0.45383 0.38527 0.0
H152 H 0.9571 0.42193 0.26648 0.0
C153 C 0.01791 0.54108 0.38548 0.0
C154 C 0.03786 0.58563 0.34291 0.0
H155 H 0.96284 0.42092 0.41855 0.0
H156 H 0.0344 0.57364 0.41892 0.0
C157 C 0.01573 0.54147 0.30017 0.0
C158 C 0.41787 0.95238 0.72555 0.0
C159 C 0.45624 0.0398 0.72424 0.0
H160 H 0.4346 0.84603 0.7248 0.0
C161 C 0.54344 0.0877 0.7257 0.0
H162 H 0.35075 0.91384 0.72461 0.0
C163 C 0.59143 0.04888 0.72582 0.0
C164 C 0.55309 0.96146 0.72448 0.0
H165 H 0.57475 0.15522 0.72489 0.0
H166 H 0.65855 0.08745 0.72509 0.0
C167 C 0.46588 0.91354 0.72567 0.0
C168 C 0.4827 0.45745 0.73273 0.0
C169 C 0.45927 0.41311 0.69006 0.0
H170 H 0.54478 0.57712 0.76624 0.0
C171 C 0.48239 0.45747 0.64741 0.0
H172 H 0.4654 0.42484 0.76613 0.0
C173 C 0.52888 0.5447 0.64748 0.0
C174 C 0.55162 0.58898 0.69019 0.0
H175 H 0.46516 0.42476 0.61402 0.0
H176 H 0.54638 0.57747 0.61413 0.0
C177 C 0.52781 0.54457 0.7328 0.0
C178 C 0.92058 0.47386 0.99495 0.0
C179 C 0.96072 0.5536 0.01557 0.0
H180 H 0.92526 0.36299 0.97963 0.0
C181 C 0.03847 0.58253 0.03724 0.0
H182 H 0.86052 0.44983 0.97807 0.0
C183 C 0.0754 0.53274 0.03825 0.0
C184 C 0.03533 0.45305 0.01758 0.0
H185 H 0.07077 0.64361 0.05357 0.0
H186 H 0.13545 0.55679 0.05516 0.0
C187 C 0.95755 0.42408 0.99593 0.0
C188 C 0.5334 0.94925 0.30739 0.0
C189 C 0.58229 0.03667 0.30892 0.0
H190 H 0.41056 0.84291 0.30794 0.0
C191 C 0.5429 0.08459 0.30767 0.0
H192 H 0.56204 0.91069 0.30815 0.0
C193 C 0.45617 0.04578 0.30751 0.0
C194 C 0.40727 0.95835 0.30862 0.0
H195 H 0.579 0.15211 0.30864 0.0
H196 H 0.42753 0.08434 0.30841 0.0
C197 C 0.44665 0.91044 0.30724 0.0
loop_
_geom_bond_atom_site_label_1
_geom_bond_atom_site_label_2
_geom_bond_distance
_geom_bond_site_symmetry_2
_ccdc_geom_bond_type
In0 O1 2.294 . S
In0 O2 2.326 . S
In0 O6 2.266 1_554 S
In0 O7 2.326 1_554 S
In0 O8 2.266 . S
In0 O9 2.326 . S
In0 O11 2.294 . S
In0 O12 2.326 . S
O1 In0 2.294 . S
O1 C10 1.240 . S
O2 In0 2.326 . S
O2 C10 1.252 . S
C3 O6 1.252 . S
C3 O7 1.260 . S
C4 O11 1.240 . S
C4 O12 1.252 . S
C5 O8 1.252 . S
C5 O9 1.260 . S
O6 In0 2.266 1_556 S
O6 C3 1.252 . S
O7 In0 2.326 1_556 S
O7 C3 1.260 . S
O8 In0 2.266 . S
O8 C5 1.252 . S
O9 In0 2.326 . S
O9 C5 1.260 . S
C10 O1 1.240 . S
C10 O2 1.252 . S
O11 In0 2.294 . S
O11 C4 1.240 . S
O12 In0 2.326 . S
O12 C4 1.252 . S
In13 O14 2.294 . S
In13 O15 2.326 . S
In13 O19 2.266 . S
In13 O20 2.326 . S
In13 O21 2.266 . S
In13 O22 2.326 . S
In13 O24 2.294 . S
In13 O25 2.326 . S
O14 In13 2.294 . S
O14 C23 1.240 . S
O15 In13 2.326 . S
O15 C23 1.252 . S
C16 O19 1.252 . S
C16 O20 1.260 . S
C17 O24 1.240 . S
C17 O25 1.252 . S
C18 O21 1.252 . S
C18 O22 1.260 . S
O19 In13 2.266 . S
O19 C16 1.252 . S
O20 In13 2.326 . S
O20 C16 1.260 . S
O21 In13 2.266 . S
O21 C18 1.252 . S
O22 In13 2.326 . S
O22 C18 1.260 . S
C23 O14 1.240 . S
C23 O15 1.252 . S
O24 In13 2.294 . S
O24 C17 1.240 . S
O25 In13 2.326 . S
O25 C17 1.252 . S
In26 O27 2.294 . S
In26 O28 2.326 . S
In26 O32 2.266 . S
In26 O33 2.326 . S
In26 O34 2.266 . S
In26 O35 2.326 . S
In26 O37 2.294 . S
In26 O38 2.326 . S
O27 In26 2.294 . S
O27 C36 1.240 . S
O28 In26 2.326 . S
O28 C36 1.252 . S
C29 O32 1.252 . S
C29 O33 1.260 . S
C30 O37 1.240 . S
C30 O38 1.252 . S
C31 O34 1.252 . S
C31 O35 1.260 . S
O32 In26 2.266 . S
O32 C29 1.252 . S
O33 In26 2.326 . S
O33 C29 1.260 . S
O34 In26 2.266 . S
O34 C31 1.252 . S
O35 In26 2.326 . S
O35 C31 1.260 . S
C36 O27 1.240 . S
C36 O28 1.252 . S
O37 In26 2.294 . S
O37 C30 1.240 . S
O38 In26 2.326 . S
O38 C30 1.252 . S
In39 O40 2.294 . S
In39 O41 2.326 . S
In39 O45 2.266 1_554 S
In39 O46 2.326 1_554 S
In39 O47 2.266 . S
In39 O48 2.326 . S
In39 O50 2.294 . S
In39 O51 2.326 . S
O40 In39 2.294 . S
O40 C49 1.240 . S
O41 In39 2.326 . S
O41 C49 1.252 . S
C42 O45 1.252 . S
C42 O46 1.260 . S
C43 O50 1.240 . S
C43 O51 1.252 . S
C44 O47 1.252 . S
C44 O48 1.260 . S
O45 In39 2.266 1_556 S
O45 C42 1.252 . S
O46 In39 2.326 1_556 S
O46 C42 1.260 . S
O47 In39 2.266 . S
O47 C44 1.252 . S
O48 In39 2.326 . S
O48 C44 1.260 . S
C49 O40 1.240 . S
C49 O41 1.252 . S
O50 In39 2.294 . S
O50 C43 1.240 . S
O51 In39 2.326 . S
O51 C43 1.252 . S
In52 O53 2.294 . S
In52 O54 2.326 . S
In52 O58 2.266 . S
In52 O59 2.326 . S
In52 O60 2.266 . S
In52 O61 2.326 . S
In52 O63 2.294 . S
In52 O64 2.326 . S
O53 In52 2.294 . S
O53 C62 1.240 . S
O54 In52 2.326 . S
O54 C62 1.252 . S
C55 O58 1.252 . S
C55 O59 1.260 . S
C56 O63 1.240 . S
C56 O64 1.252 . S
C57 O60 1.252 . S
C57 O61 1.260 . S
O58 In52 2.266 . S
O58 C55 1.252 . S
O59 In52 2.326 . S
O59 C55 1.260 . S
O60 In52 2.266 . S
O60 C57 1.252 . S
O61 In52 2.326 . S
O61 C57 1.260 . S
C62 O53 1.240 . S
C62 O54 1.252 . S
O63 In52 2.294 . S
O63 C56 1.240 . S
O64 In52 2.326 . S
O64 C56 1.252 . S
In65 O66 2.294 . S
In65 O67 2.326 . S
In65 O71 2.266 . S
In65 O72 2.326 . S
In65 O73 2.266 . S
In65 O74 2.326 . S
In65 O76 2.294 . S
In65 O77 2.326 . S
O66 In65 2.294 . S
O66 C75 1.240 . S
O67 In65 2.326 . S
O67 C75 1.252 . S
C68 O71 1.252 . S
C68 O72 1.260 . S
C69 O76 1.240 . S
C69 O77 1.252 . S
C70 O73 1.252 . S
C70 O74 1.260 . S
O71 In65 2.266 . S
O71 C68 1.252 . S
O72 In65 2.326 . S
O72 C68 1.260 . S
O73 In65 2.266 . S
O73 C70 1.252 . S
O74 In65 2.326 . S
O74 C70 1.260 . S
C75 O66 1.240 . S
C75 O67 1.252 . S
O76 In65 2.294 . S
O76 C69 1.240 . S
O77 In65 2.326 . S
O77 C69 1.252 . S
C78 C79 1.387 . S
C78 H82 0.950 . S
C78 C87 1.390 . S
C79 C78 1.387 . S
C79 C81 1.387 . S
H80 C87 0.950 . S
C81 C79 1.387 . S
C81 C83 1.390 . S
C81 H85 0.950 . S
H82 C78 0.950 . S
C83 C81 1.390 . S
C83 C84 1.387 . S
C83 H86 0.950 . S
C84 C83 1.387 . S
C84 C87 1.387 . S
H85 C81 0.950 . S
H86 C83 0.950 . S
C87 C78 1.390 . S
C87 H80 0.950 . S
C87 C84 1.387 . S
C88 C89 1.387 1_455 S
C88 H92 0.950 . S
C88 C97 1.390 . S
C89 C88 1.387 1_655 S
C89 C91 1.387 . S
H90 C97 0.950 . S
C91 C89 1.387 . S
C91 C93 1.390 . S
C91 H95 0.950 . S
H92 C88 0.950 . S
C93 C91 1.390 . S
C93 C94 1.387 1_655 S
C93 H96 0.950 . S
C94 C93 1.387 1_455 S
C94 C97 1.387 . S
H95 C91 0.950 . S
H96 C93 0.950 . S
C97 C88 1.390 . S
C97 H90 0.950 . S
C97 C94 1.387 . S
C98 C99 1.387 . S
C98 H102 0.950 . S
C98 C107 1.390 1_545 S
C99 C98 1.387 . S
C99 C101 1.387 . S
H100 C107 0.950 . S
C101 C99 1.387 . S
C101 C103 1.390 1_545 S
C101 H105 0.950 . S
H102 C98 0.950 . S
C103 C101 1.390 1_565 S
C103 C104 1.387 . S
C103 H106 0.950 . S
C104 C103 1.387 . S
C104 C107 1.387 . S
H105 C101 0.950 . S
H106 C103 0.950 . S
C107 C98 1.390 1_565 S
C107 H100 0.950 . S
C107 C104 1.387 . S
C108 C109 1.387 . S
C108 H112 0.950 . S
C108 C117 1.390 . S
C109 C108 1.387 . S
C109 C111 1.387 . S
H110 C117 0.950 . S
C111 C109 1.387 . S
C111 C113 1.390 . S
C111 H115 0.950 . S
H112 C108 0.950 . S
C113 C111 1.390 . S
C113 C114 1.387 . S
C113 H116 0.950 . S
C114 C113 1.387 . S
C114 C117 1.387 . S
H115 C111 0.950 . S
H116 C113 0.950 . S
C117 C108 1.390 . S
C117 H110 0.950 . S
C117 C114 1.387 . S
C118 C119 1.387 1_655 S
C118 H122 0.950 . S
C118 C127 1.390 . S
C119 C118 1.387 1_455 S
C119 C121 1.387 . S
H120 C127 0.950 . S
C121 C119 1.387 . S
C121 C123 1.390 . S
C121 H125 0.950 . S
H122 C118 0.950 . S
C123 C121 1.390 . S
C123 C124 1.387 1_455 S
C123 H126 0.950 . S
C124 C123 1.387 1_655 S
C124 C127 1.387 . S
H125 C121 0.950 . S
H126 C123 0.950 . S
C127 C118 1.390 . S
C127 H120 0.950 . S
C127 C124 1.387 . S
C128 C129 1.387 . S
C128 H132 0.950 . S
C128 C137 1.390 1_545 S
C129 C128 1.387 . S
C129 C131 1.387 . S
H130 C137 0.950 . S
C131 C129 1.387 . S
C131 C133 1.390 1_545 S
C131 H135 0.950 . S
H132 C128 0.950 . S
C133 C131 1.390 1_565 S
C133 C134 1.387 . S
C133 H136 0.950 . S
C134 C133 1.387 . S
C134 C137 1.387 . S
H135 C131 0.950 . S
H136 C133 0.950 . S
C137 C128 1.390 1_565 S
C137 H130 0.950 . S
C137 C134 1.387 . S
C138 C139 1.387 1_556 S
C138 H142 0.950 . S
C138 C147 1.390 . S
C139 C138 1.387 1_554 S
C139 C141 1.387 . S
H140 C147 0.950 . S
C141 C139 1.387 . S
C141 C143 1.390 . S
C141 H145 0.950 . S
H142 C138 0.950 . S
C143 C141 1.390 . S
C143 C144 1.387 . S
C143 H146 0.950 . S
C144 C143 1.387 . S
C144 C147 1.387 1_554 S
H145 C141 0.950 . S
H146 C143 0.950 . S
C147 C138 1.390 . S
C147 H140 0.950 . S
C147 C144 1.387 1_556 S
C148 C149 1.387 . S
C148 H152 0.950 . S
C148 C157 1.390 1_655 S
C149 C148 1.387 . S
C149 C151 1.387 . S
H150 C157 0.950 . S
C151 C149 1.387 . S
C151 C153 1.390 1_655 S
C151 H155 0.950 . S
H152 C148 0.950 . S
C153 C151 1.390 1_455 S
C153 C154 1.387 . S
C153 H156 0.950 . S
C154 C153 1.387 . S
C154 C157 1.387 . S
H155 C151 0.950 . S
H156 C153 0.950 . S
C157 C148 1.390 1_455 S
C157 H150 0.950 . S
C157 C154 1.387 . S
C158 C159 1.387 . S
C158 H162 0.950 . S
C158 C167 1.390 1_545 S
C159 C158 1.387 . S
C159 C161 1.387 . S
H160 C167 0.950 . S
C161 C159 1.387 . S
C161 C163 1.390 1_545 S
C161 H165 0.950 . S
H162 C158 0.950 . S
C163 C161 1.390 1_565 S
C163 C164 1.387 . S
C163 H166 0.950 . S
C164 C163 1.387 . S
C164 C167 1.387 . S
H165 C161 0.950 . S
H166 C163 0.950 . S
C167 C158 1.390 1_565 S
C167 H160 0.950 . S
C167 C164 1.387 . S
C168 C169 1.387 . S
C168 H172 0.950 . S
C168 C177 1.390 . S
C169 C168 1.387 . S
C169 C171 1.387 . S
H170 C177 0.950 . S
C171 C169 1.387 . S
C171 C173 1.390 . S
C171 H175 0.950 . S
H172 C168 0.950 . S
C173 C171 1.390 . S
C173 C174 1.387 . S
C173 H176 0.950 . S
C174 C173 1.387 . S
C174 C177 1.387 . S
H175 C171 0.950 . S
H176 C173 0.950 . S
C177 C168 1.390 . S
C177 H170 0.950 . S
C177 C174 1.387 . S
C178 C179 1.387 1_556 S
C178 H182 0.950 . S
C178 C187 1.390 1_655 S
C179 C178 1.387 1_554 S
C179 C181 1.387 . S
H180 C187 0.950 . S
C181 C179 1.387 . S
C181 C183 1.390 1_655 S
C181 H185 0.950 . S
H182 C178 0.950 . S
C183 C181 1.390 1_455 S
C183 C184 1.387 . S
C183 H186 0.950 . S
C184 C183 1.387 . S
C184 C187 1.387 1_554 S
H185 C181 0.950 . S
H186 C183 0.950 . S
C187 C178 1.390 1_455 S
C187 H180 0.950 . S
C187 C184 1.387 1_556 S
C188 C189 1.387 . S
C188 H192 0.950 . S
C188 C197 1.390 1_545 S
C189 C188 1.387 . S
C189 C191 1.387 . S
H190 C197 0.950 . S
C191 C189 1.387 . S
C191 C193 1.390 1_545 S
C191 H195 0.950 . S
H192 C188 0.950 . S
C193 C191 1.390 1_565 S
C193 C194 1.387 . S
C193 H196 0.950 . S
C194 C193 1.387 . S
C194 C197 1.387 . S
H195 C191 0.950 . S
H196 C193 0.950 . S
C197 C188 1.390 1_565 S
C197 H190 0.950 . S
C197 C194 1.387 . S
C79 C69 1.386 . S
C84 C3 1.389 . S
C89 C16 1.389 . S
C94 C10 1.387 . S
C99 C23 1.386 . S
C104 C31 1.389 . S
C109 C42 1.390 . S
C114 C30 1.385 . S
C119 C57 1.389 . S
C124 C49 1.387 . S
C129 C70 1.389 . S
C134 C56 1.386 . S
C139 C5 1.513 . S
C144 C44 1.513 . S
C149 C18 1.513 . S
C154 C55 1.513 . S
C159 C68 1.511 . S
C164 C29 1.511 . S
C169 C75 1.491 . S
C174 C36 1.491 . S
C179 C43 1.489 . S
C184 C4 1.489 . S
C189 C17 1.489 . S
C194 C62 1.489 . S
