# Generated by pormake.
# Topology dmp, (4)-cn, num edge types: 1
# Building blocks:
#     Node 0, Type 0, BuildingBlock: CEKHIL_clean_sbu_0, # of connection points: 4
#     Node 1, Type 0, BuildingBlock: CEKHIL_clean_sbu_0, # of connection points: 4
#     Node 2, Type 0, BuildingBlock: CEKHIL_clean_sbu_0, # of connection points: 4
#     Node 3, Type 0, BuildingBlock: CEKHIL_clean_sbu_0, # of connection points: 4
#     Edge 4, Type (0, 0), BuildingBlock: EZIPEK_clean_linker_0, # of connection points: 2
#     Edge 5, Type (0, 0), BuildingBlock: EZIPEK_clean_linker_0, # of connection points: 2
#     Edge 6, Type (0, 0), BuildingBlock: EZIPEK_clean_linker_0, # of connection points: 2
#     Edge 7, Type (0, 0), BuildingBlock: EZIPEK_clean_linker_0, # of connection points: 2
#     Edge 8, Type (0, 0), BuildingBlock: EZIPEK_clean_linker_0, # of connection points: 2
#     Edge 9, Type (0, 0), BuildingBlock: EZIPEK_clean_linker_0, # of connection points: 2
#     Edge 10, Type (0, 0), BuildingBlock: EZIPEK_clean_linker_0, # of connection points: 2
#     Edge 11, Type (0, 0), BuildingBlock: EZIPEK_clean_linker_0, # of connection points: 2
# Relax obj value: 0.087
# Max RMSD: 0.195
# Mean RMSD: 0.195
data_MOF--net-dmp--node1-CEKHIL_clean_sbu_0--edge1-EZIPEK_clean_linker_0
_symmetry_space_group_name_H-M    P1
_symmetry_Int_Tables_number       1
_symmetry_cell_setting            triclinic
loop_
_symmetry_equiv_pos_as_xyz
'x, y, z'
_cell_length_a     28.472932
_cell_length_b     13.84163
_cell_length_c     10.554451
_cell_angle_alpha  90.015045
_cell_angle_beta   89.987066
_cell_angle_gamma 92.584927
loop_
_atom_site_label
_atom_site_type_symbol
_atom_site_fract_x
_atom_site_fract_y
_atom_site_fract_z
_atom_type_partial_charge
Co0 Co 0.10079 0.24482 0.28264 0.0
O1 O 0.05423 0.3412 0.27013 0.0
O2 O 0.09383 0.3082 0.44466 0.0
C3 C 0.05692 0.1304 0.17918 0.0
O4 O 0.15059 0.1506 0.33408 0.0
Co5 Co 0.14428 0.15561 0.04065 0.0
O6 O 0.17677 0.07265 0.16262 0.0
C7 C 0.17881 0.3478 0.13186 0.0
C8 C 0.06185 0.35752 0.38945 0.0
C9 C 0.17692 0.08902 0.28139 0.0
O10 O 0.15256 0.34076 0.23115 0.0
O11 O 0.17715 0.2869 0.04043 0.0
O12 O 0.0507 0.14396 0.29973 0.0
O13 O 0.08709 0.1886 0.12459 0.0
Co14 Co 0.40914 0.74758 0.2523 0.0
O15 O 0.4527 0.64566 0.23401 0.0
O16 O 0.41903 0.68683 0.41447 0.0
C17 C 0.45254 0.85645 0.13789 0.0
O18 O 0.36344 0.84798 0.31111 0.0
Co19 Co 0.361 0.83929 0.01833 0.0
O20 O 0.33417 0.92705 0.14467 0.0
C21 C 0.3246 0.65137 0.12042 0.0
C22 C 0.44829 0.63317 0.35535 0.0
C23 C 0.33704 0.9116 0.26329 0.0
O24 O 0.35411 0.65593 0.21297 0.0
O25 O 0.32421 0.71249 0.02943 0.0
O26 O 0.46196 0.84285 0.25684 0.0
O27 O 0.41947 0.80091 0.09075 0.0
Co28 Co 0.90903 0.74615 0.75183 0.0
O29 O 0.95328 0.64574 0.7711 0.0
O30 O 0.91846 0.68314 0.59079 0.0
C31 C 0.95245 0.85737 0.862 0.0
O32 O 0.86238 0.84477 0.69329 0.0
Co33 Co 0.8618 0.83819 0.98686 0.0
O34 O 0.83389 0.9244 0.86052 0.0
C35 C 0.82601 0.64862 0.88906 0.0
C36 C 0.94824 0.63101 0.65043 0.0
C37 C 0.83606 0.90826 0.74192 0.0
O38 O 0.85473 0.65374 0.79473 0.0
O39 O 0.82609 0.70995 0.97992 0.0
O40 O 0.96118 0.84275 0.74289 0.0
O41 O 0.92009 0.80146 0.91179 0.0
Co42 Co 0.60138 0.24784 0.72387 0.0
O43 O 0.55567 0.34614 0.73503 0.0
O44 O 0.5962 0.31286 0.56238 0.0
C45 C 0.55583 0.13369 0.82322 0.0
O46 O 0.65057 0.15177 0.6734 0.0
Co47 Co 0.6425 0.15448 0.96603 0.0
O48 O 0.6746 0.07053 0.84447 0.0
C49 C 0.6799 0.34574 0.87895 0.0
C50 C 0.56409 0.36281 0.61609 0.0
C51 C 0.67581 0.08822 0.72607 0.0
O52 O 0.65356 0.34155 0.77966 0.0
O53 O 0.67781 0.28322 0.96838 0.0
O54 O 0.55045 0.14921 0.70277 0.0
O55 O 0.58609 0.19034 0.88029 0.0
C56 C 0.26035 0.90209 0.37591 0.0
C57 C 0.30164 0.95775 0.34361 0.0
C58 C 0.25812 0.10502 0.36509 0.0
C59 C 0.21582 0.04795 0.35419 0.0
N60 N 0.17485 0.8943 0.37865 0.0
N61 N 0.34267 0.11261 0.33271 0.0
C62 C 0.2164 0.94689 0.37176 0.0
C63 C 0.30155 0.0598 0.34937 0.0
N64 N 0.26327 0.80687 0.40694 0.0
N65 N 0.25635 0.20194 0.3867 0.0
H66 H 0.37478 0.07952 0.32838 0.0
H67 H 0.34481 0.18739 0.32149 0.0
H68 H 0.22457 0.23547 0.39871 0.0
H69 H 0.28598 0.24697 0.40347 0.0
H70 H 0.23478 0.76351 0.43824 0.0
H71 H 0.2953 0.77351 0.41197 0.0
H72 H 0.17199 0.81909 0.37669 0.0
H73 H 0.143 0.92814 0.38601 0.0
C74 C 0.20346 0.52399 0.13016 0.0
C75 C 0.21588 0.42601 0.12697 0.0
C76 C 0.29934 0.47643 0.10661 0.0
C77 C 0.28727 0.57384 0.12151 0.0
N78 N 0.22892 0.69176 0.16045 0.0
N79 N 0.27581 0.30737 0.12979 0.0
C80 C 0.23958 0.5981 0.13664 0.0
C81 C 0.26388 0.40171 0.11964 0.0
N82 N 0.15722 0.54619 0.12165 0.0
N83 N 0.34439 0.45564 0.07505 0.0
H84 H 0.25125 0.24973 0.13899 0.0
H85 H 0.31026 0.28639 0.14 0.0
H86 H 0.37131 0.50868 0.06431 0.0
H87 H 0.35438 0.38702 0.0488 0.0
H88 H 0.14603 0.61617 0.1097 0.0
H89 H 0.12982 0.49379 0.1157 0.0
H90 H 0.19566 0.71242 0.18727 0.0
H91 H 0.25409 0.74878 0.16242 0.0
C92 C 0.75671 0.10063 0.63795 0.0
C93 C 0.71426 0.0446 0.65386 0.0
C94 C 0.75807 0.89726 0.63678 0.0
C95 C 0.79986 0.9531 0.66311 0.0
N96 N 0.84161 0.10735 0.66411 0.0
N97 N 0.67267 0.89067 0.641 0.0
C98 C 0.80011 0.05496 0.65282 0.0
C99 C 0.71439 0.94294 0.64162 0.0
N100 N 0.75522 0.19703 0.61235 0.0
N101 N 0.7603 0.80098 0.61096 0.0
H102 H 0.64086 0.9246 0.63432 0.0
H103 H 0.66964 0.81563 0.648 0.0
H104 H 0.79212 0.76678 0.60598 0.0
H105 H 0.73138 0.75716 0.58376 0.0
H106 H 0.78489 0.24102 0.59202 0.0
H107 H 0.72358 0.23105 0.60053 0.0
H108 H 0.84424 0.18238 0.67163 0.0
H109 H 0.87361 0.07372 0.66773 0.0
C110 C 0.80107 0.47291 0.89584 0.0
C111 C 0.78876 0.57082 0.8895 0.0
C112 C 0.70497 0.52098 0.89356 0.0
C113 C 0.71725 0.42318 0.8865 0.0
N114 N 0.77666 0.30448 0.86787 0.0
N115 N 0.72947 0.6892 0.86529 0.0
C116 C 0.76524 0.39859 0.88453 0.0
C117 C 0.74081 0.59528 0.88402 0.0
N118 N 0.84678 0.45111 0.9174 0.0
N119 N 0.65925 0.54267 0.91481 0.0
H120 H 0.75445 0.74637 0.85909 0.0
H121 H 0.69552 0.70974 0.84538 0.0
H122 H 0.63223 0.48976 0.92481 0.0
H123 H 0.64867 0.6122 0.93409 0.0
H124 H 0.85734 0.38168 0.93716 0.0
H125 H 0.87398 0.50372 0.92648 0.0
H126 H 0.81072 0.28345 0.85084 0.0
H127 H 0.75173 0.24725 0.86136 0.0
C128 C 0.03174 0.95914 0.12501 0.0
C129 C 0.02811 0.05966 0.10417 0.0
C130 C 0.97968 0.02734 0.91549 0.0
C131 C 0.98067 0.92685 0.94062 0.0
N132 N 0.0061 0.795 0.07 0.0
N133 N 0.99118 0.19019 0.99744 0.0
C134 C 0.00606 0.89218 0.04616 0.0
C135 C 1.00013 0.09401 0.00402 0.0
N136 N 0.06142 0.92793 0.21655 0.0
N137 N 0.95955 0.05926 0.80661 0.0
H138 H 1.00433 0.2409 0.06301 0.0
H139 H 0.96703 0.21852 0.93511 0.0
H140 H 0.9431 0.01297 0.74095 0.0
H141 H 0.96242 0.13079 0.776 0.0
H142 H 0.07051 0.85645 0.22737 0.0
H143 H 0.07921 0.97513 0.27863 0.0
H144 H 0.01826 0.76555 0.15388 0.0
H145 H 0.99254 0.74278 0.0071 0.0
C146 C 0.49946 0.0952 0.99885 0.0
C147 C 0.5263 0.0622 0.89552 0.0
C148 C 0.50316 0.89403 0.94808 0.0
C149 C 0.47954 0.92707 0.0577 0.0
N150 N 0.45974 0.05753 0.19673 0.0
N151 N 0.55601 0.93178 0.7727 0.0
C152 C 0.4792 0.02721 0.08609 0.0
C153 C 0.52831 0.96199 0.86936 0.0
N154 N 0.49136 0.19159 0.00968 0.0
N155 N 0.50206 0.79737 0.92018 0.0
H156 H 0.57281 0.97957 0.70953 0.0
H157 H 0.5643 0.86022 0.75791 0.0
H158 H 0.4891 0.74407 0.98233 0.0
H159 H 0.51265 0.76941 0.83377 0.0
H160 H 0.4681 0.21961 0.07475 0.0
H161 H 0.50421 0.24317 0.94487 0.0
H162 H 0.46301 0.12837 0.22954 0.0
H163 H 0.44299 0.01071 0.26117 0.0
C164 C 0.95617 0.47313 0.53734 0.0
C165 C 0.97728 0.5611 0.58318 0.0
C166 C 0.05389 0.51685 0.49867 0.0
C167 C 0.03336 0.42644 0.45998 0.0
N168 N 0.9673 0.31116 0.45796 0.0
N169 N 0.04668 0.66402 0.6205 0.0
C170 C 0.98506 0.40266 0.48312 0.0
C171 C 0.02635 0.58196 0.5681 0.0
N172 N 0.9085 0.45714 0.54538 0.0
N173 N 0.0991 0.54213 0.46401 0.0
H174 H 0.02748 0.71677 0.66478 0.0
H175 H 0.08285 0.6776 0.6267 0.0
H176 H 0.12046 0.49583 0.4145 0.0
H177 H 0.11454 0.61114 0.47583 0.0
H178 H 0.89019 0.39992 0.50077 0.0
H179 H 0.88651 0.50461 0.59055 0.0
H180 H 0.93389 0.28548 0.48511 0.0
H181 H 0.98739 0.25759 0.41866 0.0
C182 C 0.51182 0.59918 0.51211 0.0
C183 C 0.47752 0.5641 0.42364 0.0
C184 C 0.50455 0.39925 0.44895 0.0
C185 C 0.53636 0.43301 0.54468 0.0
N186 N 0.56832 0.56289 0.67543 0.0
N187 N 0.43597 0.43037 0.32114 0.0
C188 C 0.53922 0.53235 0.57899 0.0
C189 C 0.47268 0.46406 0.39491 0.0
N190 N 0.51989 0.6967 0.52743 0.0
N191 N 0.50455 0.30506 0.40987 0.0
H192 H 0.41144 0.47555 0.28217 0.0
H193 H 0.42715 0.35732 0.30738 0.0
H194 H 0.52465 0.25311 0.45262 0.0
H195 H 0.48691 0.27962 0.32938 0.0
H196 H 0.54786 0.72738 0.57924 0.0
H197 H 0.50079 0.74812 0.48013 0.0
H198 H 0.56759 0.63111 0.71674 0.0
H199 H 0.59201 0.51811 0.71874 0.0
loop_
_geom_bond_atom_site_label_1
_geom_bond_atom_site_label_2
_geom_bond_distance
_geom_bond_site_symmetry_2
_ccdc_geom_bond_type
Co0 O1 2.216 . S
Co0 O2 2.091 . S
Co0 O4 2.004 . S
Co0 O10 2.021 . S
Co0 O12 2.137 . S
Co0 O13 2.244 . S
O1 Co0 2.216 . S
O1 C8 1.247 . S
O2 Co0 2.091 . S
O2 C8 1.261 . S
C3 O12 1.247 . S
C3 O13 1.272 . S
O4 Co0 2.004 . S
O4 C9 1.259 . S
Co5 O6 2.061 . S
Co5 O11 2.052 . S
Co5 O13 2.135 . S
O6 Co5 2.061 . S
O6 C9 1.235 . S
C7 O10 1.238 . S
C7 O11 1.241 . S
C8 O1 1.247 . S
C8 O2 1.261 . S
C9 O4 1.259 . S
C9 O6 1.235 . S
O10 Co0 2.021 . S
O10 C7 1.238 . S
O11 Co5 2.052 . S
O11 C7 1.241 . S
O12 Co0 2.137 . S
O12 C3 1.247 . S
O13 Co0 2.244 . S
O13 C3 1.272 . S
O13 Co5 2.135 . S
Co14 O15 2.216 . S
Co14 O16 2.091 . S
Co14 O18 2.004 . S
Co14 O24 2.021 . S
Co14 O26 2.137 . S
Co14 O27 2.244 . S
O15 Co14 2.216 . S
O15 C22 1.247 . S
O16 Co14 2.091 . S
O16 C22 1.261 . S
C17 O26 1.247 . S
C17 O27 1.272 . S
O18 Co14 2.004 . S
O18 C23 1.259 . S
Co19 O20 2.061 . S
Co19 O25 2.052 . S
Co19 O27 2.135 . S
O20 Co19 2.061 . S
O20 C23 1.235 . S
C21 O24 1.238 . S
C21 O25 1.241 . S
C22 O15 1.247 . S
C22 O16 1.261 . S
C23 O18 1.259 . S
C23 O20 1.235 . S
O24 Co14 2.021 . S
O24 C21 1.238 . S
O25 Co19 2.052 . S
O25 C21 1.241 . S
O26 Co14 2.137 . S
O26 C17 1.247 . S
O27 Co14 2.244 . S
O27 C17 1.272 . S
O27 Co19 2.135 . S
Co28 O29 2.216 . S
Co28 O30 2.091 . S
Co28 O32 2.004 . S
Co28 O38 2.021 . S
Co28 O40 2.137 . S
Co28 O41 2.244 . S
O29 Co28 2.216 . S
O29 C36 1.247 . S
O30 Co28 2.091 . S
O30 C36 1.261 . S
C31 O40 1.247 . S
C31 O41 1.272 . S
O32 Co28 2.004 . S
O32 C37 1.259 . S
Co33 O34 2.061 . S
Co33 O39 2.052 . S
Co33 O41 2.135 . S
O34 Co33 2.061 . S
O34 C37 1.235 . S
C35 O38 1.238 . S
C35 O39 1.241 . S
C36 O29 1.247 . S
C36 O30 1.261 . S
C37 O32 1.259 . S
C37 O34 1.235 . S
O38 Co28 2.021 . S
O38 C35 1.238 . S
O39 Co33 2.052 . S
O39 C35 1.241 . S
O40 Co28 2.137 . S
O40 C31 1.247 . S
O41 Co28 2.244 . S
O41 C31 1.272 . S
O41 Co33 2.135 . S
Co42 O43 2.216 . S
Co42 O44 2.091 . S
Co42 O46 2.004 . S
Co42 O52 2.021 . S
Co42 O54 2.137 . S
Co42 O55 2.244 . S
O43 Co42 2.216 . S
O43 C50 1.247 . S
O44 Co42 2.091 . S
O44 C50 1.261 . S
C45 O54 1.247 . S
C45 O55 1.272 . S
O46 Co42 2.004 . S
O46 C51 1.259 . S
Co47 O48 2.061 . S
Co47 O53 2.052 . S
Co47 O55 2.135 . S
O48 Co47 2.061 . S
O48 C51 1.235 . S
C49 O52 1.238 . S
C49 O53 1.241 . S
C50 O43 1.247 . S
C50 O44 1.261 . S
C51 O46 1.259 . S
C51 O48 1.235 . S
O52 Co42 2.021 . S
O52 C49 1.238 . S
O53 Co47 2.052 . S
O53 C49 1.241 . S
O54 Co42 2.137 . S
O54 C45 1.247 . S
O55 Co42 2.244 . S
O55 C45 1.272 . S
O55 Co47 2.135 . S
C56 C57 1.363 . S
C56 C62 1.379 . S
C56 N64 1.356 . S
C57 C56 1.363 . S
C57 C63 1.363 1_565 S
C58 C59 1.363 . S
C58 C63 1.379 . S
C58 N65 1.356 . S
C59 C58 1.363 . S
C59 C62 1.363 1_545 S
N60 C62 1.356 . S
N60 H72 0.984 . S
N60 H73 0.985 1_565 S
N61 C63 1.356 . S
N61 H66 0.984 1_545 S
N61 H67 0.985 . S
C62 C56 1.379 . S
C62 C59 1.363 1_565 S
C62 N60 1.356 . S
C63 C57 1.363 1_545 S
C63 C58 1.379 . S
C63 N61 1.356 . S
N64 C56 1.356 . S
N64 H70 0.984 . S
N64 H71 0.984 . S
N65 C58 1.356 . S
N65 H68 0.984 . S
N65 H69 0.985 . S
H66 N61 0.984 1_565 S
H67 N61 0.985 . S
H68 N65 0.984 . S
H69 N65 0.985 . S
H70 N64 0.984 . S
H71 N64 0.984 . S
H72 N60 0.984 . S
H73 N60 0.985 1_545 S
C74 C75 1.363 . S
C74 C80 1.379 . S
C74 N82 1.356 . S
C75 C74 1.363 . S
C75 C81 1.363 . S
C76 C77 1.363 . S
C76 C81 1.379 . S
C76 N83 1.356 . S
C77 C76 1.363 . S
C77 C80 1.363 . S
N78 C80 1.356 . S
N78 H90 0.984 . S
N78 H91 0.985 . S
N79 C81 1.356 . S
N79 H84 0.984 . S
N79 H85 0.985 1_554 S
C80 C74 1.379 . S
C80 C77 1.363 . S
C80 N78 1.356 . S
C81 C75 1.363 . S
C81 C76 1.379 . S
C81 N79 1.356 . S
N82 C74 1.356 . S
N82 H88 0.984 . S
N82 H89 0.984 . S
N83 C76 1.356 . S
N83 H86 0.984 . S
N83 H87 0.985 1_554 S
H84 N79 0.984 . S
H85 N79 0.985 1_556 S
H86 N83 0.984 . S
H87 N83 0.985 1_556 S
H88 N82 0.984 . S
H89 N82 0.984 . S
H90 N78 0.984 . S
H91 N78 0.985 . S
C92 C93 1.363 . S
C92 C98 1.379 . S
C92 N100 1.356 . S
C93 C92 1.363 . S
C93 C99 1.363 1_545 S
C94 C95 1.363 . S
C94 C99 1.379 . S
C94 N101 1.356 . S
C95 C94 1.363 . S
C95 C98 1.363 1_565 S
N96 C98 1.356 . S
N96 H108 0.984 . S
N96 H109 0.985 1_545 S
N97 C99 1.356 . S
N97 H102 0.984 1_565 S
N97 H103 0.985 . S
C98 C92 1.379 . S
C98 C95 1.363 1_545 S
C98 N96 1.356 . S
C99 C93 1.363 1_565 S
C99 C94 1.379 . S
C99 N97 1.356 . S
N100 C92 1.356 . S
N100 H106 0.984 . S
N100 H107 0.984 . S
N101 C94 1.356 . S
N101 H104 0.984 . S
N101 H105 0.985 . S
H102 N97 0.984 1_545 S
H103 N97 0.985 . S
H104 N101 0.984 . S
H105 N101 0.985 . S
H106 N100 0.984 . S
H107 N100 0.984 . S
H108 N96 0.984 . S
H109 N96 0.985 1_565 S
C110 C111 1.363 . S
C110 C116 1.379 . S
C110 N118 1.356 . S
C111 C110 1.363 . S
C111 C117 1.363 . S
C112 C113 1.363 . S
C112 C117 1.379 . S
C112 N119 1.356 . S
C113 C112 1.363 . S
C113 C116 1.363 . S
N114 C116 1.356 . S
N114 H126 0.984 1_556 S
N114 H127 0.985 . S
N115 C117 1.356 . S
N115 H120 0.984 . S
N115 H121 0.985 . S
C116 C110 1.379 . S
C116 C113 1.363 . S
C116 N114 1.356 . S
C117 C111 1.363 . S
C117 C112 1.379 . S
C117 N115 1.356 . S
N118 C110 1.356 . S
N118 H124 0.984 1_556 S
N118 H125 0.984 . S
N119 C112 1.356 . S
N119 H122 0.984 . S
N119 H123 0.985 . S
H120 N115 0.984 . S
H121 N115 0.985 . S
H122 N119 0.984 . S
H123 N119 0.985 . S
H124 N118 0.984 1_554 S
H125 N118 0.984 . S
H126 N114 0.984 1_554 S
H127 N114 0.985 . S
C128 C129 1.363 1_565 S
C128 C134 1.392 . S
C128 N136 1.356 1_565 S
C129 C128 1.363 1_545 S
C129 C135 1.348 1_454 S
C130 C131 1.363 1_545 S
C130 C135 1.392 . S
C130 N137 1.356 1_545 S
C131 C130 1.363 1_565 S
C131 C134 1.348 1_656 S
N132 C134 1.353 1_655 S
N132 H144 0.984 1_655 S
N132 H145 0.985 . S
N133 C135 1.353 1_455 S
N133 H138 0.984 . S
N133 H139 0.985 1_455 S
C134 C128 1.392 . S
C134 C131 1.348 1_454 S
C134 N132 1.353 1_455 S
C135 C129 1.348 1_656 S
C135 C130 1.392 . S
C135 N133 1.353 1_655 S
N136 C128 1.356 1_545 S
N136 H142 0.984 1_545 S
N136 H143 0.984 . S
N137 C130 1.356 1_565 S
N137 H140 0.984 . S
N137 H141 0.985 1_565 S
H138 N133 0.984 . S
H139 N133 0.985 1_655 S
H140 N137 0.984 . S
H141 N137 0.985 1_545 S
H142 N136 0.984 1_565 S
H143 N136 0.984 . S
H144 N132 0.984 1_455 S
H145 N132 0.985 . S
C146 C147 1.363 1_554 S
C146 C152 1.379 1_545 S
C146 N154 1.356 . S
C147 C146 1.363 1_556 S
C147 C153 1.363 . S
C148 C149 1.363 1_556 S
C148 C153 1.379 1_565 S
C148 N155 1.356 . S
C149 C148 1.363 1_554 S
C149 C152 1.363 . S
N150 C152 1.356 . S
N150 H162 0.984 . S
N150 H163 0.985 . S
N151 C153 1.356 . S
N151 H156 0.984 . S
N151 H157 0.985 . S
C152 C146 1.379 1_565 S
C152 C149 1.363 . S
C152 N150 1.356 . S
C153 C147 1.363 . S
C153 C148 1.379 1_545 S
C153 N151 1.356 . S
N154 C146 1.356 . S
N154 H160 0.984 . S
N154 H161 0.984 . S
N155 C148 1.356 . S
N155 H158 0.984 . S
N155 H159 0.985 . S
H156 N151 0.984 . S
H157 N151 0.985 . S
H158 N155 0.984 . S
H159 N155 0.985 . S
H160 N154 0.984 . S
H161 N154 0.984 . S
H162 N150 0.984 . S
H163 N150 0.985 . S
C164 C165 1.363 . S
C164 C170 1.379 . S
C164 N172 1.356 . S
C165 C164 1.363 . S
C165 C171 1.363 1_655 S
C166 C167 1.363 . S
C166 C171 1.379 . S
C166 N173 1.356 . S
C167 C166 1.363 . S
C167 C170 1.363 1_455 S
N168 C170 1.355 1_455 S
N168 H180 0.979 1_455 S
N168 H181 0.991 . S
N169 C171 1.355 1_655 S
N169 H174 0.991 . S
N169 H175 0.979 1_655 S
C170 C164 1.379 . S
C170 C167 1.363 1_655 S
C170 N168 1.355 1_655 S
C171 C165 1.363 1_455 S
C171 C166 1.379 . S
C171 N169 1.355 1_455 S
N172 C164 1.356 . S
N172 H178 0.984 . S
N172 H179 0.984 . S
N173 C166 1.356 . S
N173 H176 0.984 . S
N173 H177 0.985 . S
H174 N169 0.991 . S
H175 N169 0.979 1_455 S
H176 N173 0.984 . S
H177 N173 0.985 . S
H178 N172 0.984 . S
H179 N172 0.984 . S
H180 N168 0.979 1_655 S
H181 N168 0.991 . S
C182 C183 1.363 . S
C182 C188 1.379 . S
C182 N190 1.356 . S
C183 C182 1.363 . S
C183 C189 1.363 . S
C184 C185 1.363 . S
C184 C189 1.379 . S
C184 N191 1.356 . S
C185 C184 1.363 . S
C185 C188 1.363 . S
N186 C188 1.356 . S
N186 H198 0.984 . S
N186 H199 0.985 . S
N187 C189 1.356 . S
N187 H192 0.984 . S
N187 H193 0.985 . S
C188 C182 1.379 . S
C188 C185 1.363 . S
C188 N186 1.356 . S
C189 C183 1.363 . S
C189 C184 1.379 . S
C189 N187 1.356 . S
N190 C182 1.356 . S
N190 H196 0.984 . S
N190 H197 0.984 . S
N191 C184 1.356 . S
N191 H194 0.984 . S
N191 H195 0.985 . S
H192 N187 0.984 . S
H193 N187 0.985 . S
H194 N191 0.984 . S
H195 N191 0.985 . S
H196 N190 0.984 . S
H197 N190 0.984 . S
H198 N186 0.984 . S
H199 N186 0.985 . S
C57 C23 1.204 . S
C59 C9 1.204 . S
C75 C7 1.137 . S
C77 C21 1.137 . S
C93 C51 1.204 . S
C95 C37 1.204 . S
C111 C35 1.137 . S
C113 C49 1.137 . S
C129 C3 1.550 . S
C131 C31 1.550 . S
C147 C45 1.549 . S
C149 C17 1.549 . S
C165 C36 1.571 . S
C167 C8 1.571 . S
C183 C22 1.571 . S
C185 C50 1.571 . S
