# Generated by pormake.
# Topology qtz-x, (6)-cn, num edge types: 1
# Building blocks:
#     Node 0, Type 0, BuildingBlock: BETFAJ_clean_sbu_0, # of connection points: 6
#     Node 1, Type 0, BuildingBlock: BETFAJ_clean_sbu_0, # of connection points: 6
#     Node 2, Type 0, BuildingBlock: BETFAJ_clean_sbu_0, # of connection points: 6
#     Edge 3, Type (0, 0), BuildingBlock: AJUNOK_clean_linker_0, # of connection points: 2
#     Edge 4, Type (0, 0), BuildingBlock: AJUNOK_clean_linker_0, # of connection points: 2
#     Edge 5, Type (0, 0), BuildingBlock: AJUNOK_clean_linker_0, # of connection points: 2
#     Edge 6, Type (0, 0), BuildingBlock: AJUNOK_clean_linker_0, # of connection points: 2
#     Edge 7, Type (0, 0), BuildingBlock: AJUNOK_clean_linker_0, # of connection points: 2
#     Edge 8, Type (0, 0), BuildingBlock: AJUNOK_clean_linker_0, # of connection points: 2
#     Edge 9, Type (0, 0), BuildingBlock: AJUNOK_clean_linker_0, # of connection points: 2
#     Edge 10, Type (0, 0), BuildingBlock: AJUNOK_clean_linker_0, # of connection points: 2
#     Edge 11, Type (0, 0), BuildingBlock: AJUNOK_clean_linker_0, # of connection points: 2
# Relax obj value: 0.341
# Max RMSD: 0.304
# Mean RMSD: 0.270
data_MOF--net-qtz-x--node1-BETFAJ_clean_sbu_0--edge1-AJUNOK_clean_linker_0
_symmetry_space_group_name_H-M    P1
_symmetry_Int_Tables_number       1
_symmetry_cell_setting            triclinic
loop_
_symmetry_equiv_pos_as_xyz
'x, y, z'
_cell_length_a     11.383434
_cell_length_b     11.181908
_cell_length_c     41.546978
_cell_angle_alpha  64.176047
_cell_angle_beta   117.66703
_cell_angle_gamma 122.56775
loop_
_atom_site_label
_atom_site_type_symbol
_atom_site_fract_x
_atom_site_fract_y
_atom_site_fract_z
_atom_type_partial_charge
Sm0 Sm 1.01428 0.66046 0.19075 0.0
Sm1 Sm 0.29636 0.81212 0.19029 0.0
C2 C 0.79058 0.48043 0.21809 0.0
C3 C 0.79526 0.43682 0.25791 0.0
C4 C 0.89516 0.37994 0.28669 0.0
C5 C 0.90706 0.34629 0.32426 0.0
C6 C 0.81487 0.3618 0.33434 0.0
C7 C 0.71846 0.42377 0.30585 0.0
C8 C 0.70923 0.46154 0.26796 0.0
C9 C 0.10944 0.95857 0.1831 0.0
C10 C 0.28883 0.69285 0.27072 0.0
C11 C 0.513 0.02924 0.16549 0.0
C12 C 0.54028 0.05031 0.13208 0.0
C13 C 0.55985 0.18306 0.10456 0.0
C14 C 0.57701 0.19923 0.0716 0.0
C15 C 0.57456 0.08235 0.06611 0.0
C16 C 0.5384 0.94538 0.09184 0.0
C17 C 0.52436 0.93012 0.12491 0.0
C18 C 0.2135 0.51501 0.20035 0.0
C19 C 1.05002 0.73793 0.10973 0.0
O20 O 0.85841 0.43466 0.21113 0.0
O21 O 0.81471 0.61662 0.20023 0.0
O22 O 0.17819 0.88006 0.20613 0.0
O23 O 0.99015 0.88129 0.16124 0.0
O24 O 0.1557 0.60774 0.25366 0.0
O25 O 0.37096 0.80641 0.25098 0.0
O26 O 0.39351 0.03972 0.15812 0.0
O27 O 0.52936 0.91778 0.19347 0.0
O28 O 0.1358 0.58563 0.17822 0.0
O29 O 0.34035 0.60244 0.21791 0.0
O30 O 0.18363 0.81788 0.12744 0.0
O31 O 0.95079 0.65622 0.12802 0.0
H32 H 0.96526 0.36119 0.28039 0.0
H33 H 0.98749 0.30547 0.34548 0.0
H34 H 0.64756 0.43938 0.31272 0.0
H35 H 0.63403 0.50874 0.24653 0.0
H36 H 0.56423 0.27445 0.10885 0.0
H37 H 0.60202 0.30557 0.05177 0.0
H38 H 0.5256 0.85075 0.08699 0.0
H39 H 0.49891 0.82336 0.14458 0.0
Sm40 Sm 0.99878 0.17934 0.57584 0.0
Sm41 Sm 0.79462 0.87181 0.56966 0.0
C42 C 0.13103 0.4405 0.58727 0.0
C43 C 0.15517 0.47573 0.62006 0.0
C44 C 1.05366 0.38529 0.64029 0.0
C45 C 1.08421 0.40628 0.67427 0.0
C46 C 0.2153 0.51957 0.68793 0.0
C47 C 0.31977 0.60581 0.66853 0.0
C48 C 0.29015 0.58277 0.63479 0.0
C49 C 0.17413 0.06764 0.57932 0.0
C50 C 0.92878 0.93663 0.65295 0.0
C51 C 0.68786 0.63134 0.54877 0.0
C52 C 0.61868 0.61145 0.50984 0.0
C53 C 0.69054 0.59082 0.4941 0.0
C54 C 0.6357 0.59139 0.45599 0.0
C55 C 0.50845 0.6143 0.43264 0.0
C56 C 0.43422 0.62991 0.44873 0.0
C57 C 0.48834 0.62856 0.48672 0.0
C58 C 0.61379 0.97292 0.56632 0.0
C59 C 0.83899 0.14429 0.49213 0.0
O60 O 0.99529 0.38913 0.56598 0.0
O61 O 0.20096 0.36539 0.59489 0.0
O62 O 1.03735 -0.00313 0.57583 0.0
O63 O 0.21856 0.19706 0.58164 0.0
O64 O 0.98456 0.07485 0.63538 0.0
O65 O 0.85967 0.83025 0.63533 0.0
O66 O 0.82749 0.71738 0.55773 0.0
O67 O 0.61633 0.65286 0.56134 0.0
O68 O 0.75162 0.0512 0.56997 0.0
O69 O 0.57129 0.84659 0.56196 0.0
O70 O 0.77976 0.00251 0.50758 0.0
O71 O 0.92377 0.24031 0.51235 0.0
H72 H 0.95101 0.29814 0.62994 0.0
H73 H 1.00382 0.33706 0.68934 0.0
H74 H 0.42145 0.69447 0.67858 0.0
H75 H 0.37193 0.64844 0.62018 0.0
H76 H 0.79223 0.57955 0.51096 0.0
H77 H 0.69747 0.58195 0.44445 0.0
H78 H 0.33501 0.64597 0.43169 0.0
H79 H 0.42991 0.64557 0.49759 0.0
Sm80 Sm 0.94075 0.00285 0.8638 0.0
Sm81 Sm 0.12915 0.82356 0.89609 0.0
C82 C 0.76717 0.09256 0.85888 0.0
C83 C 0.77565 0.11546 0.89236 0.0
C84 C 0.69139 -0.00083 0.91542 0.0
C85 C 0.68531 0.02136 0.94465 0.0
C86 C 0.77397 0.15633 0.9536 0.0
C87 C 0.87516 0.2671 0.93459 0.0
C88 C 0.87466 0.24771 0.90347 0.0
C89 C 0.23675 0.194 0.87967 0.0
C90 C 1.03956 0.8423 0.95665 0.0
C91 C 0.33791 0.76951 0.90619 0.0
C92 C 0.33455 0.73564 0.87534 0.0
C93 C 0.40242 0.85009 0.84848 0.0
C94 C 0.38083 0.8264 0.81578 0.0
C95 C 0.28187 0.69012 0.80823 0.0
C96 C 0.20672 0.57724 0.83347 0.0
C97 C 0.23578 0.59846 0.86737 0.0
C98 C 0.83736 0.62977 0.88516 0.0
C99 C 0.97985 0.92616 0.80215 0.0
O100 O 0.72065 0.95609 0.85945 0.0
O101 O 0.87732 0.18437 0.84529 0.0
O102 O 0.17961 0.05696 0.88447 0.0
O103 O 0.13297 0.23403 0.86638 0.0
O104 O 0.95211 0.89999 0.92746 0.0
O105 O 0.13616 0.82273 0.95248 0.0
O106 O 0.35709 0.9041 0.89902 0.0
O107 O 0.23568 0.67143 0.92241 0.0
O108 O 0.89102 0.76753 0.87845 0.0
O109 O 0.94132 0.59096 0.89614 0.0
O110 O 1.07399 0.87592 0.83106 0.0
O111 O 0.90495 0.97362 0.80687 0.0
H112 H 0.62866 0.89073 0.91079 0.0
H113 H 0.61082 0.93308 0.96039 0.0
H114 H 0.95163 0.3674 0.94359 0.0
H115 H 0.94778 0.33668 0.88758 0.0
H116 H 0.46955 0.95912 0.85224 0.0
H117 H 0.44014 0.9141 0.79634 0.0
H118 H 0.12793 0.47247 0.82706 0.0
H119 H 0.17822 0.5089 0.88683 0.0
C120 C 0.23669 0.15387 0.21979 0.0
C121 C 0.13842 0.10269 0.18704 0.0
C122 C 0.2605 0.28571 0.22411 0.0
C123 C 0.1863 0.37292 0.19607 0.0
H124 H 0.29534 0.09103 0.24251 0.0
H125 H 0.33713 0.31898 0.24983 0.0
S126 S 0.93506 0.30258 0.10294 0.0
N127 N 0.97904 0.16219 0.12478 0.0
N128 N 1.01956 0.40289 0.13319 0.0
C129 C 0.09035 0.32447 0.1631 0.0
C130 C 1.06769 0.19198 0.15856 0.0
C131 C 0.36611 -0.02186 0.54259 0.0
C132 C 0.50729 0.007 0.56925 0.0
C133 C 0.25463 -0.01207 0.54682 0.0
C134 C 0.27707 0.02313 0.57854 0.0
H135 H 0.34162 0.94835 0.5179 0.0
H136 H 0.15175 0.97215 0.52452 0.0
S137 S 0.61609 0.08345 0.65982 0.0
N138 N 0.655 0.05637 0.63055 0.0
N139 N 0.44823 0.0735 0.63878 0.0
C140 C 0.41542 0.046 0.60611 0.0
C141 C 0.52914 0.03776 0.60155 0.0
C142 C 0.45452 0.42405 0.89632 0.0
C143 C 0.3918 0.30057 0.88243 0.0
C144 C 0.59706 0.53413 0.89619 0.0
C145 C 0.68262 0.52264 0.88275 0.0
H146 H 0.39403 0.43392 0.90812 0.0
H147 H 0.64173 0.62573 0.90764 0.0
S148 S 0.55027 0.25414 0.83114 0.0
N149 N 0.41322 0.19692 0.84621 0.0
N150 N 0.68417 0.39394 0.84903 0.0
C151 C 0.61891 0.40281 0.86766 0.0
C152 C 0.47248 0.29474 0.86646 0.0
C153 C 0.65724 0.22785 0.97468 0.0
C154 C 0.75734 0.17394 0.9836 0.0
C155 C 0.59655 0.19798 1.00126 0.0
C156 C 0.63232 0.10903 1.03731 0.0
H157 H 0.61974 0.28521 0.94646 0.0
H158 H 0.51762 0.23981 0.99317 0.0
S159 S 0.89931 0.95257 0.07417 0.0
N160 N 0.90067 0.04166 1.03064 0.0
N161 N 0.77844 0.97136 0.08049 0.0
C162 C 0.73503 0.05673 1.04646 0.0
C163 C 0.80083 0.09375 1.01978 0.0
C164 C 0.82346 0.33486 0.43049 0.0
C165 C 0.82262 0.19573 0.45142 0.0
C166 C 0.81804 0.38769 0.39243 0.0
C167 C 0.81414 0.30419 0.3742 0.0
H168 H 0.82892 0.40355 0.44364 0.0
H169 H 0.82021 0.49569 0.37746 0.0
S170 S 0.8205 0.93833 0.41738 0.0
N171 N 0.82475 -0.02028 0.45157 0.0
N172 N 0.81069 0.07607 0.38036 0.0
C173 C 0.81324 0.16522 0.39501 0.0
C174 C 0.81841 0.11175 0.43348 0.0
C175 C 0.82865 0.86918 0.73722 0.0
C176 C 0.96476 0.93109 0.76337 0.0
C177 C 0.81768 0.8534 0.7037 0.0
C178 C 0.94244 0.91148 0.69293 0.0
H179 H 0.72935 0.83853 0.74148 0.0
H180 H 0.70999 0.80582 0.6847 0.0
S181 S 0.32023 0.13383 0.74403 0.0
N182 N 0.22432 0.07502 0.7721 0.0
N183 N 0.20394 0.06294 0.70763 0.0
C184 C 1.07809 -0.01318 0.71702 0.0
C185 C 0.08933 -0.00619 0.75219 0.0
C186 C 0.1542 0.80116 1.02675 0.0
C187 C 1.03005 0.7991 0.99552 0.0
C188 C 0.1524 0.77022 0.06318 0.0
C189 C 1.0281 0.73734 0.07087 0.0
H190 H 0.25552 0.83051 1.02307 0.0
H191 H 0.25135 0.77349 0.08589 0.0
S192 S 0.66048 0.66889 1.0007 0.0
N193 N 0.76848 0.72788 0.97577 0.0
N194 N 0.76659 0.66996 1.0445 0.0
C195 C 0.89816 0.71864 1.04052 0.0
C196 C 0.89953 0.75095 1.00291 0.0
C197 C 0.36167 0.76629 0.32779 0.0
C198 C 0.34318 0.66763 0.31177 0.0
C199 C 0.41663 0.74862 0.36674 0.0
C200 C 0.45703 0.63243 0.39119 0.0
H201 H 0.33259 0.85752 0.31005 0.0
H202 H 0.42858 0.82754 0.37779 0.0
S203 S 0.44498 0.35475 0.36196 0.0
N204 N 0.3793 0.45731 0.32217 0.0
N205 N 0.48375 0.42322 0.39563 0.0
C206 C 0.44449 0.53645 0.3751 0.0
C207 C 0.38681 0.55396 0.33532 0.0
C208 C 0.13734 0.62594 0.74744 0.0
C209 C 0.26948 0.65862 0.77632 0.0
C210 C 0.12022 0.57854 0.71902 0.0
C211 C 0.23383 0.55993 0.71949 0.0
H212 H 1.04746 0.63673 0.74698 0.0
H213 H 1.01815 0.55783 0.69638 0.0
S214 S 0.59775 0.63146 0.78985 0.0
N215 N 0.51551 0.67536 0.80384 0.0
N216 N 0.47989 0.57394 0.75167 0.0
C217 C 0.36569 0.59136 0.74858 0.0
C218 C 0.38441 0.64421 0.77673 0.0
loop_
_geom_bond_atom_site_label_1
_geom_bond_atom_site_label_2
_geom_bond_distance
_geom_bond_site_symmetry_2
_ccdc_geom_bond_type
Sm0 C2 2.846 . S
Sm0 O20 2.543 . S
Sm0 O21 2.450 . S
Sm0 O22 2.681 1_655 S
Sm0 O23 2.464 . S
Sm0 O24 2.396 1_655 S
Sm0 O28 2.386 . S
Sm0 O31 2.408 . S
Sm1 C11 2.846 . S
Sm1 O22 2.386 . S
Sm1 O25 2.408 . S
Sm1 O26 2.543 1_565 S
Sm1 O27 2.450 . S
Sm1 O28 2.681 1_455 S
Sm1 O29 2.464 . S
Sm1 O30 2.396 1_455 S
C2 Sm0 2.846 . S
C2 C3 1.506 . S
C2 O20 1.261 . S
C2 O21 1.242 . S
C3 C2 1.506 . S
C3 C4 1.358 . S
C3 C8 1.382 . S
C4 C3 1.358 . S
C4 C5 1.385 . S
C4 H32 0.930 . S
C5 C4 1.385 . S
C5 C6 1.395 . S
C5 H33 0.929 . S
C6 C5 1.395 . S
C6 C7 1.335 . S
C7 C6 1.335 . S
C7 C8 1.398 . S
C7 H34 0.930 . S
C8 C3 1.382 . S
C8 C7 1.398 . S
C8 H35 0.929 . S
C9 O22 1.271 1_655 S
C9 O23 1.251 . S
C10 O24 1.252 . S
C10 O25 1.272 . S
C11 Sm1 2.846 . S
C11 C12 1.506 1_565 S
C11 O26 1.261 1_565 S
C11 O27 1.242 . S
C12 C11 1.506 1_545 S
C12 C13 1.358 . S
C12 C17 1.382 1_545 S
C13 C12 1.358 . S
C13 C14 1.385 1_554 S
C13 H36 0.930 . S
C14 C13 1.385 1_556 S
C14 C15 1.395 . S
C14 H37 0.929 . S
C15 C14 1.395 . S
C15 C16 1.335 1_556 S
C16 C15 1.335 1_554 S
C16 C17 1.398 1_545 S
C16 H38 0.930 1_545 S
C17 C12 1.382 1_565 S
C17 C16 1.398 1_565 S
C17 H39 0.929 . S
C18 O28 1.271 1_455 S
C18 O29 1.251 . S
C19 O30 1.252 . S
C19 O31 1.272 . S
O20 Sm0 2.543 . S
O20 C2 1.261 . S
O21 Sm0 2.450 . S
O21 C2 1.242 . S
O22 Sm0 2.681 1_455 S
O22 Sm1 2.386 . S
O22 C9 1.271 1_455 S
O23 Sm0 2.464 . S
O23 C9 1.251 . S
O24 Sm0 2.396 1_455 S
O24 C10 1.252 . S
O25 Sm1 2.408 . S
O25 C10 1.272 . S
O26 Sm1 2.543 1_545 S
O26 C11 1.261 1_545 S
O27 Sm1 2.450 . S
O27 C11 1.242 . S
O28 Sm0 2.386 . S
O28 Sm1 2.681 1_655 S
O28 C18 1.271 1_655 S
O29 Sm1 2.464 . S
O29 C18 1.251 . S
O30 Sm1 2.396 1_655 S
O30 C19 1.252 . S
O31 Sm0 2.408 . S
O31 C19 1.272 . S
H32 C4 0.930 . S
H33 C5 0.929 . S
H34 C7 0.930 . S
H35 C8 0.929 . S
H36 C13 0.930 . S
H37 C14 0.929 . S
H38 C16 0.930 1_565 S
H39 C17 0.929 . S
Sm40 C42 2.846 1_655 S
Sm40 O60 2.543 . S
Sm40 O61 2.450 1_655 S
Sm40 O62 2.681 1_545 S
Sm40 O63 2.464 1_655 S
Sm40 O64 2.396 1_545 S
Sm40 O68 2.386 . S
Sm40 O71 2.408 . S
Sm41 C51 2.846 . S
Sm41 O62 2.386 . S
Sm41 O65 2.408 . S
Sm41 O66 2.543 . S
Sm41 O67 2.450 . S
Sm41 O68 2.681 1_565 S
Sm41 O69 2.464 . S
Sm41 O70 2.396 1_565 S
C42 Sm40 2.846 1_455 S
C42 C43 1.506 . S
C42 O60 1.261 1_455 S
C42 O61 1.242 . S
C43 C42 1.506 . S
C43 C44 1.358 1_455 S
C43 C48 1.382 . S
C44 C43 1.358 1_655 S
C44 C45 1.385 1_655 S
C44 H72 0.930 . S
C45 C44 1.385 1_455 S
C45 C46 1.395 . S
C45 H73 0.929 1_455 S
C46 C45 1.395 . S
C46 C47 1.335 . S
C47 C46 1.335 . S
C47 C48 1.398 . S
C47 H74 0.930 . S
C48 C43 1.382 . S
C48 C47 1.398 . S
C48 H75 0.929 . S
C49 O62 1.271 1_445 S
C49 O63 1.251 . S
C50 O64 1.252 . S
C50 O65 1.272 . S
C51 Sm41 2.846 . S
C51 C52 1.506 . S
C51 O66 1.261 . S
C51 O67 1.242 . S
C52 C51 1.506 . S
C52 C53 1.358 . S
C52 C57 1.382 . S
C53 C52 1.358 . S
C53 C54 1.385 . S
C53 H76 0.930 . S
C54 C53 1.385 . S
C54 C55 1.395 . S
C54 H77 0.929 . S
C55 C54 1.395 . S
C55 C56 1.335 . S
C56 C55 1.335 . S
C56 C57 1.398 . S
C56 H78 0.930 . S
C57 C52 1.382 . S
C57 C56 1.398 . S
C57 H79 0.929 . S
C58 O68 1.271 1_565 S
C58 O69 1.251 . S
C59 O70 1.252 . S
C59 O71 1.272 . S
O60 Sm40 2.543 . S
O60 C42 1.261 1_655 S
O61 Sm40 2.450 1_455 S
O61 C42 1.242 . S
O62 Sm40 2.681 1_565 S
O62 Sm41 2.386 . S
O62 C49 1.271 1_665 S
O63 Sm40 2.464 1_455 S
O63 C49 1.251 . S
O64 Sm40 2.396 1_565 S
O64 C50 1.252 . S
O65 Sm41 2.408 . S
O65 C50 1.272 . S
O66 Sm41 2.543 . S
O66 C51 1.261 . S
O67 Sm41 2.450 . S
O67 C51 1.242 . S
O68 Sm40 2.386 . S
O68 Sm41 2.681 1_545 S
O68 C58 1.271 1_545 S
O69 Sm41 2.464 . S
O69 C58 1.251 . S
O70 Sm41 2.396 1_545 S
O70 C59 1.252 . S
O71 Sm40 2.408 . S
O71 C59 1.272 . S
H72 C44 0.930 . S
H73 C45 0.929 1_655 S
H74 C47 0.930 . S
H75 C48 0.929 . S
H76 C53 0.930 . S
H77 C54 0.929 . S
H78 C56 0.930 . S
H79 C57 0.929 . S
Sm80 C82 2.846 . S
Sm80 O100 2.543 . S
Sm80 O101 2.450 . S
Sm80 O102 2.681 1_655 S
Sm80 O103 2.464 1_655 S
Sm80 O104 2.396 1_655 S
Sm80 O108 2.386 1_545 S
Sm80 O111 2.408 . S
Sm81 C91 2.846 . S
Sm81 O102 2.386 1_565 S
Sm81 O105 2.408 . S
Sm81 O106 2.543 . S
Sm81 O107 2.450 . S
Sm81 O108 2.681 1_455 S
Sm81 O109 2.464 1_455 S
Sm81 O110 2.396 1_455 S
C82 Sm80 2.846 . S
C82 C83 1.506 . S
C82 O100 1.261 . S
C82 O101 1.242 . S
C83 C82 1.506 . S
C83 C84 1.358 . S
C83 C88 1.382 . S
C84 C83 1.358 . S
C84 C85 1.385 . S
C84 H112 0.930 1_545 S
C85 C84 1.385 . S
C85 C86 1.395 . S
C85 H113 0.929 . S
C86 C85 1.395 . S
C86 C87 1.335 . S
C87 C86 1.335 . S
C87 C88 1.398 . S
C87 H114 0.930 . S
C88 C83 1.382 . S
C88 C87 1.398 . S
C88 H115 0.929 . S
C89 O102 1.271 . S
C89 O103 1.251 . S
C90 O104 1.252 1_565 S
C90 O105 1.272 . S
C91 Sm81 2.846 . S
C91 C92 1.506 . S
C91 O106 1.261 . S
C91 O107 1.242 . S
C92 C91 1.506 . S
C92 C93 1.358 . S
C92 C97 1.382 . S
C93 C92 1.358 . S
C93 C94 1.385 . S
C93 H116 0.930 1_565 S
C94 C93 1.385 . S
C94 C95 1.395 . S
C94 H117 0.929 . S
C95 C94 1.395 . S
C95 C96 1.335 . S
C96 C95 1.335 . S
C96 C97 1.398 . S
C96 H118 0.930 . S
C97 C92 1.382 . S
C97 C96 1.398 . S
C97 H119 0.929 . S
C98 O108 1.271 . S
C98 O109 1.251 . S
C99 O110 1.252 1_545 S
C99 O111 1.272 . S
O100 Sm80 2.543 . S
O100 C82 1.261 . S
O101 Sm80 2.450 . S
O101 C82 1.242 . S
O102 Sm80 2.681 1_455 S
O102 Sm81 2.386 1_545 S
O102 C89 1.271 . S
O103 Sm80 2.464 1_455 S
O103 C89 1.251 . S
O104 Sm80 2.396 1_455 S
O104 C90 1.252 1_545 S
O105 Sm81 2.408 . S
O105 C90 1.272 . S
O106 Sm81 2.543 . S
O106 C91 1.261 . S
O107 Sm81 2.450 . S
O107 C91 1.242 . S
O108 Sm80 2.386 1_565 S
O108 Sm81 2.681 1_655 S
O108 C98 1.271 . S
O109 Sm81 2.464 1_655 S
O109 C98 1.251 . S
O110 Sm81 2.396 1_655 S
O110 C99 1.252 1_565 S
O111 Sm80 2.408 . S
O111 C99 1.272 . S
H112 C84 0.930 1_565 S
H113 C85 0.929 . S
H114 C87 0.930 . S
H115 C88 0.929 . S
H116 C93 0.930 1_545 S
H117 C94 0.929 . S
H118 C96 0.930 . S
H119 C97 0.929 . S
C120 C121 1.369 . S
C120 C122 1.419 . S
C120 H124 0.930 . S
C121 C120 1.369 . S
C121 C130 1.429 1_455 S
C122 C120 1.419 . S
C122 C123 1.363 1_455 S
C122 H125 0.929 . S
C123 C122 1.363 1_655 S
C123 C129 1.428 . S
H124 C120 0.930 . S
H125 C122 0.929 . S
S126 N127 1.613 . S
S126 N128 1.610 . S
N127 S126 1.613 . S
N127 C130 1.350 . S
N128 S126 1.610 . S
N128 C129 1.351 . S
C129 C123 1.428 . S
C129 N128 1.351 . S
C129 C130 1.434 . S
C130 C121 1.429 1_655 S
C130 N127 1.350 . S
C130 C129 1.434 . S
C131 C132 1.371 . S
C131 C133 1.418 . S
C131 H135 0.932 . S
C132 C131 1.371 . S
C132 C141 1.429 . S
C133 C131 1.418 . S
C133 C134 1.357 1_565 S
C133 H136 0.928 . S
C134 C133 1.357 1_545 S
C134 C140 1.426 1_545 S
H135 C131 0.932 . S
H136 C133 0.928 . S
S137 N138 1.613 . S
S137 N139 1.610 . S
N138 S137 1.613 . S
N138 C141 1.350 . S
N139 S137 1.610 . S
N139 C140 1.351 . S
C140 C134 1.426 1_565 S
C140 N139 1.351 . S
C140 C141 1.434 . S
C141 C132 1.429 . S
C141 N138 1.350 . S
C141 C140 1.434 . S
C142 C143 1.369 . S
C142 C144 1.419 . S
C142 H146 0.930 . S
C143 C142 1.369 . S
C143 C152 1.429 . S
C144 C142 1.419 . S
C144 C145 1.363 . S
C144 H147 0.929 . S
C145 C144 1.363 . S
C145 C151 1.428 . S
H146 C142 0.930 . S
H147 C144 0.929 . S
S148 N149 1.613 . S
S148 N150 1.610 . S
N149 S148 1.613 . S
N149 C152 1.350 . S
N150 S148 1.610 . S
N150 C151 1.351 . S
C151 C145 1.428 . S
C151 N150 1.351 . S
C151 C152 1.434 . S
C152 C143 1.429 . S
C152 N149 1.350 . S
C152 C151 1.434 . S
C153 C154 1.369 . S
C153 C155 1.419 . S
C153 H157 0.930 . S
C154 C153 1.369 . S
C154 C163 1.429 . S
C155 C153 1.419 . S
C155 C156 1.363 . S
C155 H158 0.929 . S
C156 C155 1.363 . S
C156 C162 1.428 . S
H157 C153 0.930 . S
H158 C155 0.929 . S
S159 N160 1.613 1_564 S
S159 N161 1.610 . S
N160 S159 1.613 1_546 S
N160 C163 1.350 . S
N161 S159 1.610 . S
N161 C162 1.351 1_564 S
C162 C156 1.428 . S
C162 N161 1.351 1_546 S
C162 C163 1.434 . S
C163 C154 1.429 . S
C163 N160 1.350 . S
C163 C162 1.434 . S
C164 C165 1.369 . S
C164 C166 1.419 . S
C164 H168 0.930 . S
C165 C164 1.369 . S
C165 C174 1.429 . S
C166 C164 1.419 . S
C166 C167 1.363 . S
C166 H169 0.929 . S
C167 C166 1.363 . S
C167 C173 1.428 . S
H168 C164 0.930 . S
H169 C166 0.929 . S
S170 N171 1.613 1_565 S
S170 N172 1.610 1_565 S
N171 S170 1.613 1_545 S
N171 C174 1.350 . S
N172 S170 1.610 1_545 S
N172 C173 1.351 . S
C173 C167 1.428 . S
C173 N172 1.351 . S
C173 C174 1.434 . S
C174 C165 1.429 . S
C174 N171 1.350 . S
C174 C173 1.434 . S
C175 C176 1.369 1_565 S
C175 C177 1.419 . S
C175 H179 0.930 . S
C176 C175 1.369 1_545 S
C176 C185 1.429 . S
C177 C175 1.419 . S
C177 C178 1.363 . S
C177 H180 0.929 . S
C178 C177 1.363 . S
C178 C184 1.428 1_565 S
H179 C175 0.930 . S
H180 C177 0.929 . S
S181 N182 1.613 . S
S181 N183 1.610 . S
N182 S181 1.613 . S
N182 C185 1.350 1_455 S
N183 S181 1.610 . S
N183 C184 1.351 1_455 S
C184 C178 1.428 1_545 S
C184 N183 1.351 1_655 S
C184 C185 1.434 . S
C185 C176 1.429 . S
C185 N182 1.350 1_655 S
C185 C184 1.434 . S
C186 C187 1.369 . S
C186 C188 1.419 1_556 S
C186 H190 0.930 . S
C187 C186 1.369 . S
C187 C196 1.429 1_455 S
C188 C186 1.419 1_554 S
C188 C189 1.363 1_455 S
C188 H191 0.929 . S
C189 C188 1.363 1_655 S
C189 C195 1.428 1_554 S
H190 C186 0.930 . S
H191 C188 0.929 . S
S192 N193 1.613 . S
S192 N194 1.610 . S
N193 S192 1.613 . S
N193 C196 1.350 . S
N194 S192 1.610 . S
N194 C195 1.351 . S
C195 C189 1.428 1_556 S
C195 N194 1.351 . S
C195 C196 1.434 . S
C196 C187 1.429 1_655 S
C196 N193 1.350 . S
C196 C195 1.434 . S
C197 C198 1.369 . S
C197 C199 1.419 . S
C197 H201 0.930 . S
C198 C197 1.369 . S
C198 C207 1.429 . S
C199 C197 1.419 . S
C199 C200 1.363 . S
C199 H202 0.929 . S
C200 C199 1.363 . S
C200 C206 1.428 . S
H201 C197 0.930 . S
H202 C199 0.929 . S
S203 N204 1.613 . S
S203 N205 1.610 . S
N204 S203 1.613 . S
N204 C207 1.350 . S
N205 S203 1.610 . S
N205 C206 1.351 . S
C206 C200 1.428 . S
C206 N205 1.351 . S
C206 C207 1.434 . S
C207 C198 1.429 . S
C207 N204 1.350 . S
C207 C206 1.434 . S
C208 C209 1.369 . S
C208 C210 1.419 . S
C208 H212 0.930 . S
C209 C208 1.369 . S
C209 C218 1.429 . S
C210 C208 1.419 . S
C210 C211 1.363 . S
C210 H213 0.929 . S
C211 C210 1.363 . S
C211 C217 1.428 . S
H212 C208 0.930 . S
H213 C210 0.929 . S
S214 N215 1.613 . S
S214 N216 1.610 . S
N215 S214 1.613 . S
N215 C218 1.350 . S
N216 S214 1.610 . S
N216 C217 1.351 . S
C217 C211 1.428 . S
C217 N216 1.351 . S
C217 C218 1.434 . S
C218 C209 1.429 . S
C218 N215 1.350 . S
C218 C217 1.434 . S
C121 C9 1.940 1_445 S
C123 C18 1.934 1_655 S
C132 C58 1.998 . S
C134 C49 2.006 . S
C143 C89 1.614 . S
C145 C98 1.609 . S
C154 C86 0.998 . S
C156 C15 1.009 . S
C165 C59 2.212 . S
C167 C6 2.093 . S
C176 C99 2.761 . S
C178 C50 2.760 . S
C187 C90 2.725 . S
C189 C19 2.602 . S
C198 C10 2.133 . S
C200 C55 1.913 . S
C209 C95 1.000 . S
C211 C46 1.028 . S
