# Generated by pormake.
# Topology sma, (6)-cn, num edge types: 1
# Building blocks:
#     Node 0, Type 0, BuildingBlock: PAMTOO_clean_sbu_0, # of connection points: 6
#     Node 1, Type 0, BuildingBlock: PAMTOO_clean_sbu_0, # of connection points: 6
#     Node 2, Type 0, BuildingBlock: PAMTOO_clean_sbu_0, # of connection points: 6
#     Edge 3, Type (0, 0), None
#     Edge 4, Type (0, 0), None
#     Edge 5, Type (0, 0), None
#     Edge 6, Type (0, 0), None
#     Edge 7, Type (0, 0), None
#     Edge 8, Type (0, 0), None
#     Edge 9, Type (0, 0), None
#     Edge 10, Type (0, 0), None
#     Edge 11, Type (0, 0), None
# Relax obj value: 0.311
# Max RMSD: 0.299
# Mean RMSD: 0.239
data_MOF--net-sma--node1-PAMTOO_clean_sbu_0--edge1-none
_symmetry_space_group_name_H-M    P1
_symmetry_Int_Tables_number       1
_symmetry_cell_setting            triclinic
loop_
_symmetry_equiv_pos_as_xyz
'x, y, z'
_cell_length_a     14.003819
_cell_length_b     25.158248
_cell_length_c     6.8661741
_cell_angle_alpha  92.912336
_cell_angle_beta   99.475174
_cell_angle_gamma 78.638016
loop_
_atom_site_label
_atom_site_type_symbol
_atom_site_fract_x
_atom_site_fract_y
_atom_site_fract_z
_atom_type_partial_charge
Dy0 Dy 0.12238 0.61473 0.76386 0.0
Dy1 Dy 0.16764 0.47319 0.75236 0.0
C2 C 0.14396 0.54462 0.36304 0.0
O3 O 0.97619 0.58972 0.74135 0.0
O4 O 1.00711 0.49569 0.76451 0.0
O5 O 1.04645 0.69173 0.63619 0.0
O6 O 0.13565 0.68946 -0.07342 0.0
O7 O 0.14105 0.49737 0.05702 0.0
O8 O 0.15381 0.58817 0.07457 0.0
O9 O 0.31377 0.49816 0.7731 0.0
O10 O 0.28315 0.59229 0.75409 0.0
O11 O 0.244 0.39613 0.87897 0.0
O12 O 0.15368 0.39854 0.5897 0.0
C13 C 0.94772 0.54334 0.75409 0.0
O14 O 0.14986 0.59042 0.45983 0.0
O15 O 0.13534 0.4999 0.44178 0.0
C16 C 1.10775 0.77183 0.75452 0.0
C17 C 0.16192 0.87258 0.709 0.0
C18 C 0.1878 0.82824 0.58118 0.0
C19 C 0.16109 0.77821 0.60398 0.0
C20 C 1.08056 0.81612 0.8796 0.0
C21 C 1.1072 0.8659 0.8573 0.0
C22 C 1.0795 0.71995 0.7884 0.0
C23 C 0.14615 0.54328 0.15352 0.0
C24 C 0.34239 0.54459 0.76254 0.0
C25 C 0.18236 0.31608 0.76148 0.0
C26 C 0.12834 0.21532 0.80749 0.0
C27 C 1.10231 0.25971 -0.06499 0.0
C28 C 0.12894 0.30975 -0.08805 0.0
C29 C 0.20973 0.27173 0.63678 0.0
C30 C 0.18317 0.22195 0.65932 0.0
C31 C 0.21037 0.36799 0.72709 0.0
H32 H 0.23094 0.83176 0.46686 0.0
H33 H 0.183 0.7445 0.50599 0.0
H34 H 1.03897 0.81211 -0.00383 0.0
H35 H 1.08489 0.89919 -0.04336 0.0
H36 H 1.05909 0.25623 0.04921 0.0
H37 H 1.10689 0.34351 0.00963 0.0
H38 H 0.25138 0.27572 0.52025 0.0
H39 H 0.2056 0.18862 0.56023 0.0
Dy40 Dy 0.51973 0.05957 0.71632 0.0
Dy41 Dy 0.77047 0.02837 0.80031 0.0
C42 C 0.64483 0.04325 0.15257 0.0
O43 O 0.55331 0.14238 0.72989 0.0
O44 O 0.72353 0.11832 0.79874 0.0
O45 O 0.37836 0.07975 0.81856 0.0
O46 O 0.38509 0.05611 0.51392 0.0
O47 O 0.7238 1.01889 0.47643 0.0
O48 O 0.56764 0.07185 0.43207 0.0
O49 O 0.73689 0.94557 0.78678 0.0
O50 O 0.56667 0.96962 0.71797 0.0
O51 O 0.91185 1.00819 0.69809 0.0
O52 O 0.90512 0.03183 0.00273 0.0
C53 C 0.64143 0.15476 0.77096 0.0
O54 O 0.56641 0.06906 0.0402 0.0
O55 O 0.72256 1.01609 0.08455 0.0
C56 C 0.27527 1.01903 0.66964 0.0
C57 C 0.19567 0.92475 0.69446 0.0
C58 C 0.23148 0.9522 0.86649 0.0
C59 C 0.27074 0.99869 0.85434 0.0
C60 C 0.23457 0.99339 0.49771 0.0
C61 C 0.19568 0.94663 0.50988 0.0
C62 C 0.33143 0.06265 0.65457 0.0
C63 C 0.64537 0.04469 0.36406 0.0
C64 C 0.64878 0.93319 0.74577 0.0
C65 C 1.01496 0.0689 0.84703 0.0
C66 C 1.09459 0.16316 0.82213 0.0
C67 C 1.05887 0.13567 0.65012 0.0
C68 C 1.0196 0.08919 0.66231 0.0
C69 C 1.05557 0.09458 0.01895 0.0
C70 C 1.09447 0.14133 0.00674 0.0
C71 C 0.95879 0.02528 0.86209 0.0
H72 H 0.23299 0.93653 0.01122 0.0
H73 H 0.30077 1.01743 -0.00985 0.0
H74 H 0.23596 1.0084 0.35325 0.0
H75 H 0.16681 0.92721 0.37458 0.0
H76 H 1.05745 0.1513 0.50537 0.0
H77 H 0.98964 0.07041 0.52651 0.0
H78 H 1.0541 0.07961 0.16343 0.0
H79 H 0.12326 0.16079 0.14202 0.0
Dy80 Dy 0.62328 0.6129 0.76546 0.0
Dy81 Dy 0.66695 0.47505 0.75178 0.0
C82 C 0.6466 0.54316 0.15395 0.0
O83 O 0.78283 0.59249 0.74495 0.0
O84 O 0.81407 0.49903 0.77443 0.0
O85 O 0.64051 0.68678 -0.07386 0.0
O86 O 0.54131 0.68963 0.64542 0.0
O87 O 0.63105 0.50098 0.44106 0.0
O88 O 0.65231 0.58999 0.46134 0.0
O89 O 0.50714 0.49541 0.76988 0.0
O90 O 0.47619 0.58899 0.74446 0.0
O91 O 0.65038 0.40108 0.59113 0.0
O92 O 0.74861 0.39839 0.87301 0.0
C93 C 0.84264 0.5451 0.7577 0.0
O94 O 0.66003 0.58679 0.07598 0.0
O95 O 0.63707 0.49811 0.05526 0.0
C96 C 0.60568 0.76917 0.75121 0.0
C97 C 0.6378 0.87576 0.73452 0.0
C98 C 0.54475 0.86298 0.66212 0.0
C99 C 0.52899 0.81033 0.67088 0.0
C100 C 0.70036 0.78082 0.8138 0.0
C101 C 0.7164 0.83384 0.80483 0.0
C102 C 0.58049 0.71733 0.79271 0.0
C103 C 0.64354 0.54481 0.36291 0.0
C104 C 0.44748 0.54284 0.75902 0.0
C105 C 0.68468 0.31876 0.76636 0.0
C106 C 0.65244 0.21218 0.78243 0.0
C107 C 0.74546 0.22494 0.85528 0.0
C108 C 0.76128 0.27758 0.84683 0.0
C109 C 0.59002 0.30714 0.70327 0.0
C110 C 0.57391 0.25412 0.71193 0.0
C111 C 0.70999 0.37061 0.72532 0.0
H112 H 0.48259 0.89399 0.60427 0.0
H113 H 0.45535 0.80231 0.62295 0.0
H114 H 0.76083 0.74959 0.87677 0.0
H115 H 0.78898 0.84231 0.8604 0.0
H116 H 0.80756 0.19391 -0.08671 0.0
H117 H 0.83491 0.28558 0.89515 0.0
H118 H 0.52962 0.3384 0.64017 0.0
H119 H 0.50136 0.24567 0.656 0.0
loop_
_geom_bond_atom_site_label_1
_geom_bond_atom_site_label_2
_geom_bond_distance
_geom_bond_site_symmetry_2
_ccdc_geom_bond_type
Dy0 O3 2.307 1_455 S
Dy0 O5 2.395 1_554 S
Dy0 O6 2.379 . S
Dy0 O8 2.339 . S
Dy0 O10 2.298 . S
Dy0 O14 2.275 1_554 S
Dy0 C22 2.738 . S
Dy1 O4 2.298 1_454 S
Dy1 O7 2.275 . S
Dy1 O9 2.307 . S
Dy1 O11 2.395 1_455 S
Dy1 O12 2.379 1_454 S
Dy1 O15 2.339 1_554 S
Dy1 C31 2.738 1_455 S
C2 O14 1.254 . S
C2 O15 1.257 . S
O3 Dy0 2.307 1_655 S
O3 C13 1.266 . S
O4 Dy1 2.298 1_656 S
O4 C13 1.236 1_556 S
O5 Dy0 2.395 1_556 S
O5 C22 1.255 1_556 S
O6 Dy0 2.379 . S
O6 C22 1.249 . S
O7 Dy1 2.275 . S
O7 C23 1.254 . S
O8 Dy0 2.339 . S
O8 C23 1.257 . S
O9 Dy1 2.307 . S
O9 C24 1.266 . S
O10 Dy0 2.298 . S
O10 C24 1.236 . S
O11 Dy1 2.395 1_655 S
O11 C31 1.255 . S
O12 Dy1 2.379 1_656 S
O12 C31 1.249 1_556 S
C13 O3 1.266 . S
C13 O4 1.236 1_554 S
O14 Dy0 2.275 1_556 S
O14 C2 1.254 . S
O15 Dy1 2.339 1_556 S
O15 C2 1.257 . S
C16 C19 1.344 1_554 S
C16 C20 1.328 . S
C16 C22 1.516 . S
C17 C18 1.304 . S
C17 C21 1.323 1_556 S
C18 C17 1.304 . S
C18 C19 1.371 . S
C18 H32 0.930 . S
C19 C16 1.344 1_556 S
C19 C18 1.371 . S
C19 H33 0.931 . S
C20 C16 1.328 . S
C20 C21 1.433 . S
C20 H34 0.931 . S
C21 C17 1.323 1_554 S
C21 C20 1.433 . S
C21 H35 0.933 . S
C22 Dy0 2.738 . S
C22 O5 1.255 1_554 S
C22 O6 1.249 . S
C22 C16 1.516 . S
C23 O7 1.254 . S
C23 O8 1.257 . S
C24 O9 1.266 . S
C24 O10 1.236 . S
C25 C28 1.344 . S
C25 C29 1.328 1_554 S
C25 C31 1.516 . S
C26 C27 1.304 . S
C26 C30 1.323 1_554 S
C27 C26 1.304 . S
C27 C28 1.371 . S
C27 H36 0.930 . S
C28 C25 1.344 . S
C28 C27 1.371 . S
C28 H37 0.931 . S
C29 C25 1.328 1_556 S
C29 C30 1.433 . S
C29 H38 0.931 . S
C30 C26 1.323 1_556 S
C30 C29 1.433 . S
C30 H39 0.933 . S
C31 Dy1 2.738 1_655 S
C31 O11 1.255 . S
C31 O12 1.249 1_554 S
C31 C25 1.516 . S
H32 C18 0.930 . S
H33 C19 0.931 . S
H34 C20 0.931 . S
H35 C21 0.933 . S
H36 C27 0.930 . S
H37 C28 0.931 . S
H38 C29 0.931 . S
H39 C30 0.933 . S
Dy40 O43 2.307 . S
Dy40 O45 2.395 1_545 S
Dy40 O46 2.379 1_545 S
Dy40 O48 2.339 . S
Dy40 O50 2.298 1_545 S
Dy40 O54 2.275 . S
Dy40 C62 2.738 1_545 S
Dy41 O44 2.298 . S
Dy41 O47 2.275 . S
Dy41 O49 2.307 1_545 S
Dy41 O51 2.395 . S
Dy41 O52 2.379 . S
Dy41 O55 2.339 1_556 S
Dy41 C71 2.738 . S
C42 O54 1.254 1_554 S
C42 O55 1.257 . S
O43 Dy40 2.307 . S
O43 C53 1.266 . S
O44 Dy41 2.298 . S
O44 C53 1.236 . S
O45 Dy40 2.395 1_565 S
O45 C62 1.255 . S
O46 Dy40 2.379 1_565 S
O46 C62 1.249 . S
O47 Dy41 2.275 . S
O47 C63 1.254 . S
O48 Dy40 2.339 . S
O48 C63 1.257 . S
O49 Dy41 2.307 1_565 S
O49 C64 1.266 . S
O50 Dy40 2.298 1_565 S
O50 C64 1.236 . S
O51 Dy41 2.395 . S
O51 C71 1.255 . S
O52 Dy41 2.379 . S
O52 C71 1.249 . S
C53 O43 1.266 . S
C53 O44 1.236 . S
O54 Dy40 2.275 . S
O54 C42 1.254 1_556 S
O55 Dy41 2.339 1_554 S
O55 C42 1.257 . S
C56 C59 1.344 . S
C56 C60 1.328 . S
C56 C62 1.516 . S
C57 C58 1.304 . S
C57 C61 1.323 . S
C58 C57 1.304 . S
C58 C59 1.371 . S
C58 H72 0.930 . S
C59 C56 1.344 . S
C59 C58 1.371 . S
C59 H73 0.931 . S
C60 C56 1.328 . S
C60 C61 1.433 . S
C60 H74 0.931 . S
C61 C57 1.323 . S
C61 C60 1.433 . S
C61 H75 0.933 . S
C62 Dy40 2.738 1_565 S
C62 O45 1.255 . S
C62 O46 1.249 . S
C62 C56 1.516 . S
C63 O47 1.254 . S
C63 O48 1.257 . S
C64 O49 1.266 . S
C64 O50 1.236 . S
C65 C68 1.344 . S
C65 C69 1.328 . S
C65 C71 1.516 . S
C66 C67 1.304 . S
C66 C70 1.323 . S
C67 C66 1.304 . S
C67 C68 1.371 . S
C67 H76 0.930 . S
C68 C65 1.344 . S
C68 C67 1.371 . S
C68 H77 0.931 . S
C69 C65 1.328 . S
C69 C70 1.433 . S
C69 H78 0.931 1_556 S
C70 C66 1.323 . S
C70 C69 1.433 . S
C70 H79 0.933 1_556 S
C71 Dy41 2.738 . S
C71 O51 1.255 . S
C71 O52 1.249 . S
C71 C65 1.516 . S
H72 C58 0.930 . S
H73 C59 0.931 . S
H74 C60 0.931 . S
H75 C61 0.933 . S
H76 C67 0.930 . S
H77 C68 0.931 . S
H78 C69 0.931 1_554 S
H79 C70 0.933 1_554 S
Dy80 O83 2.307 . S
Dy80 O85 2.395 1_556 S
Dy80 O86 2.379 . S
Dy80 O88 2.339 . S
Dy80 O90 2.298 . S
Dy80 O94 2.275 1_556 S
Dy80 C102 2.738 . S
Dy81 O84 2.298 . S
Dy81 O87 2.275 . S
Dy81 O89 2.307 . S
Dy81 O91 2.395 . S
Dy81 O92 2.379 1_556 S
Dy81 O95 2.339 1_556 S
Dy81 C111 2.738 . S
C82 O94 1.254 . S
C82 O95 1.257 . S
O83 Dy80 2.307 . S
O83 C93 1.266 . S
O84 Dy81 2.298 . S
O84 C93 1.236 . S
O85 Dy80 2.395 1_554 S
O85 C102 1.255 1_554 S
O86 Dy80 2.379 . S
O86 C102 1.249 . S
O87 Dy81 2.275 . S
O87 C103 1.254 . S
O88 Dy80 2.339 . S
O88 C103 1.257 . S
O89 Dy81 2.307 . S
O89 C104 1.266 . S
O90 Dy80 2.298 . S
O90 C104 1.236 . S
O91 Dy81 2.395 . S
O91 C111 1.255 . S
O92 Dy81 2.379 1_554 S
O92 C111 1.249 1_554 S
C93 O83 1.266 . S
C93 O84 1.236 . S
O94 Dy80 2.275 1_554 S
O94 C82 1.254 . S
O95 Dy81 2.339 1_554 S
O95 C82 1.257 . S
C96 C99 1.344 1_556 S
C96 C100 1.328 . S
C96 C102 1.516 . S
C97 C98 1.304 1_556 S
C97 C101 1.323 . S
C98 C97 1.304 1_554 S
C98 C99 1.371 . S
C98 H112 0.930 . S
C99 C96 1.344 1_554 S
C99 C98 1.371 . S
C99 H113 0.931 . S
C100 C96 1.328 . S
C100 C101 1.433 . S
C100 H114 0.931 . S
C101 C97 1.323 . S
C101 C100 1.433 . S
C101 H115 0.933 . S
C102 Dy80 2.738 . S
C102 O85 1.255 1_556 S
C102 O86 1.249 . S
C102 C96 1.516 . S
C103 O87 1.254 . S
C103 O88 1.257 . S
C104 O89 1.266 . S
C104 O90 1.236 . S
C105 C108 1.344 . S
C105 C109 1.328 . S
C105 C111 1.516 . S
C106 C107 1.304 . S
C106 C110 1.323 . S
C107 C106 1.304 . S
C107 C108 1.371 . S
C107 H116 0.930 . S
C108 C105 1.344 . S
C108 C107 1.371 . S
C108 H117 0.931 . S
C109 C105 1.328 . S
C109 C110 1.433 . S
C109 H118 0.931 1_556 S
C110 C106 1.323 . S
C110 C109 1.433 . S
C110 H119 0.933 1_556 S
C111 Dy81 2.738 . S
C111 O91 1.255 . S
C111 O92 1.249 1_556 S
C111 C105 1.516 . S
H112 C98 0.930 . S
H113 C99 0.931 . S
H114 C100 0.931 . S
H115 C101 0.933 . S
H116 C107 0.930 . S
H117 C108 0.931 . S
H118 C109 0.931 1_554 S
H119 C110 0.933 1_554 S
C24 C104 4.382 1_554 S
C66 C26 3.130 1_556 S
C64 C97 5.263 . S
C93 C13 3.778 1_556 S
C57 C17 2.363 . S
C106 C53 4.016 . S
C2 C23 0.690 . S
C63 C42 0.745 . S
C103 C82 0.532 . S
