# Generated by pormake.
# Topology pcu, (6)-cn, num edge types: 1
# Building blocks:
#     Node 0, Type 0, BuildingBlock: KUMBUR_clean_sbu_0, # of connection points: 6
#     Edge 1, Type (0, 0), BuildingBlock: TEMPAE_clean_linker_10, # of connection points: 2
#     Edge 2, Type (0, 0), BuildingBlock: TEMPAE_clean_linker_10, # of connection points: 2
#     Edge 3, Type (0, 0), BuildingBlock: TEMPAE_clean_linker_10, # of connection points: 2
# Relax obj value: 0.000
# Max RMSD: 0.000
# Mean RMSD: 0.000
data_MOF--net-pcu--node1-KUMBUR_clean_sbu_0--edge1-TEMPAE_clean_linker_10
_symmetry_space_group_name_H-M    P1
_symmetry_Int_Tables_number       1
_symmetry_cell_setting            triclinic
loop_
_symmetry_equiv_pos_as_xyz
'x, y, z'
_cell_length_a     14.119784
_cell_length_b     24.556291
_cell_length_c     15.335464
_cell_angle_alpha  115.07171
_cell_angle_beta   74.135848
_cell_angle_gamma 116.92317
loop_
_atom_site_label
_atom_site_type_symbol
_atom_site_fract_x
_atom_site_fract_y
_atom_site_fract_z
_atom_type_partial_charge
Tb0 Tb 0.09587 0.09574 0.04323 0.0
C1 C 0.78148 0.8206 0.81647 0.0
C2 C 0.61148 0.81019 0.91289 0.0
C3 C 0.61686 0.74686 0.7408 0.0
C4 C 0.72405 0.83845 0.90429 0.0
C5 C 0.72895 0.77372 0.73376 0.0
C6 C 0.55815 0.76492 0.83037 0.0
C7 C 0.90133 0.77811 0.64665 0.0
N8 N 0.8892 0.84622 0.81369 0.0
C9 C 0.94928 0.82348 0.73131 0.0
C10 C 0.79063 0.75359 0.64755 0.0
Tb11 Tb 0.96235 0.91941 0.95536 0.0
N12 N 0.77895 0.88132 0.98225 0.0
C13 C 0.72485 0.8959 0.07244 0.0
C14 C 0.5561 0.82756 0.00427 0.0
C15 C 0.61315 0.87032 0.08447 0.0
H16 H 0.03478 0.84143 0.73013 0.0
H17 H 0.57114 0.88338 0.1558 0.0
H18 H 0.47171 0.74302 0.83533 0.0
H19 H 0.94973 0.76171 0.58103 0.0
H20 H 0.76677 0.92827 0.13579 0.0
H21 H 0.48581 0.17065 0.84751 0.0
H22 H 0.46961 0.80747 0.01389 0.0
H23 H 1.02041 0.1524 0.27816 0.0
H24 H 0.29018 0.117 0.86522 0.0
H25 H 0.10471 0.2133 0.43109 0.0
H26 H 0.5749 0.71101 0.67802 0.0
H27 H 0.58687 0.22312 0.98987 0.0
H28 H 0.58405 0.25712 0.16973 0.0
H29 H 0.75347 0.71783 0.58225 0.0
H30 H 0.47977 0.26848 0.32945 0.0
N31 N 0.27855 0.13891 0.01703 0.0
C32 C 0.33234 0.13999 0.92853 0.0
C33 C 0.50057 0.19984 -0.0016 0.0
C34 C 0.44501 0.20105 0.08944 0.0
C35 C 0.44377 0.17051 0.91798 0.0
C36 C 0.33263 0.17091 0.09659 0.0
H37 H 0.30059 0.25323 0.42787 0.0
N38 N 0.16673 0.15549 0.18916 0.0
C39 C 0.15342 0.204 0.36264 0.0
C40 C 0.27452 0.17932 0.18611 0.0
C41 C 0.10599 0.16976 0.2758 0.0
C42 C 0.26397 0.22618 0.36056 0.0
C43 C 0.32628 0.2153 0.27145 0.0
O44 O 0.04087 0.1721 0.10195 0.0
O45 O 0.94877 0.01241 0.0009 0.0
O46 O 0.96838 0.94932 0.838 0.0
O47 O 0.09901 0.05638 0.88357 0.0
O48 O 0.93814 0.08858 0.12132 0.0
O49 O 0.13605 0.15666 0.96411 0.0
O50 O 1.02625 0.84884 0.91891 0.0
O51 O 0.10887 1.00331 0.98856 0.0
O52 O 0.11092 0.05672 0.14062 0.0
O53 O 0.95572 0.96374 0.11473 0.0
O54 O 0.1216 0.92471 0.87876 0.0
O55 O 0.91426 0.86391 0.04467 0.0
C56 C 0.88212 0.03353 0.06281 0.0
C57 C 0.15066 0.26466 0.05745 0.0
C58 C 0.17346 0.37025 0.06035 0.0
C59 C 0.11538 0.30245 0.0363 0.0
C60 C 0.26724 0.3995 0.10603 0.0
C61 C 0.24409 0.29499 0.10333 0.0
C62 C 0.30203 0.36201 0.12734 0.0
C63 C 0.03673 1.00322 0.82013 0.0
C64 C 0.08938 0.19383 0.03078 0.0
C65 C 0.43832 0.24116 0.26479 0.0
C66 C 0.49767 0.23453 0.17385 0.0
C67 C 0.17743 0.98363 0.92803 0.0
C68 C 0.9127 0.75738 0.96443 0.0
C69 C 0.96011 0.72119 0.97476 0.0
C70 C 0.9079 0.65292 0.94912 0.0
C71 C 0.80784 0.62152 0.91298 0.0
C72 C 0.81212 0.72497 0.9296 0.0
C73 C 0.76033 0.65746 0.90365 0.0
C74 C 0.03392 0.00936 0.16864 0.0
C75 C 0.96914 0.82858 0.98965 0.0
H76 H 0.04351 0.27892 0.00019 0.0
H77 H 0.3129 0.45158 0.12664 0.0
H78 H 0.27231 0.26713 0.12073 0.0
H79 H 0.374 0.38503 0.16294 0.0
H80 H 0.03777 0.74603 0.00186 0.0
H81 H 0.76534 0.56923 0.89368 0.0
H82 H 0.77315 0.75164 0.92296 0.0
H83 H 0.68274 0.63295 0.87678 0.0
C84 C 0.13197 0.03968 0.30554 0.0
C85 C 0.03569 0.00805 0.26348 0.0
C86 C 0.13543 0.03972 0.39606 0.0
C87 C 0.04001 0.00798 0.44618 0.0
C88 C 0.94247 0.97605 0.40409 0.0
C89 C 0.94166 0.97596 0.31269 0.0
C90 C 0.24128 0.07344 0.43769 0.0
C91 C 0.83886 0.94247 0.45598 0.0
C92 C 0.0534 0.9549 0.64027 0.0
C93 C 0.04133 0.00544 0.72471 0.0
C94 C 0.05477 0.95558 0.54893 0.0
C95 C 0.04218 0.00772 0.54239 0.0
C96 C 1.0306 0.0592 0.62782 0.0
C97 C 1.03153 0.05777 0.71815 0.0
C98 C 0.06985 0.90058 0.45951 0.0
C99 C 1.01507 0.11502 0.62389 0.0
H100 H 0.20514 0.06394 0.26716 0.0
H101 H 0.86703 0.95171 0.28054 0.0
H102 H 0.23787 0.11288 0.50792 0.0
H103 H 0.25852 0.03827 0.45189 0.0
H104 H 0.3083 0.09492 0.38862 0.0
H105 H 0.76961 0.92111 0.41424 0.0
H106 H 0.84414 0.90299 0.46937 0.0
H107 H 0.8239 0.9777 0.52755 0.0
H108 H 0.06391 0.91548 0.64551 0.0
H109 H 1.02177 0.09672 0.78389 0.0
H110 H 0.1406 0.92038 0.4118 0.0
H111 H 0.99959 0.87499 0.41779 0.0
H112 H 0.08077 0.86444 0.47715 0.0
H113 H 0.08299 0.14002 0.57919 0.0
H114 H 1.00803 0.15142 0.69693 0.0
H115 H 0.94173 0.09603 0.58894 0.0
C116 C 0.37647 0.02007 0.89561 0.0
C117 C 0.2821 0.9973 0.95264 0.0
C118 C 0.47544 0.03047 0.91701 0.0
C119 C 0.47809 0.00796 0.98735 0.0
C120 C 0.38104 0.9802 0.04038 0.0
C121 C 0.28525 0.97772 0.02497 0.0
C122 C 0.57699 0.06865 0.86811 0.0
C123 C 0.37623 0.95248 0.11331 0.0
C124 C 0.73563 0.98291 0.9538 0.0
C125 C 0.77717 0.02438 0.04283 0.0
C126 C 0.63541 0.97399 0.93724 0.0
C127 C 0.58208 0.01435 0.00601 0.0
C128 C 0.62828 0.06032 0.093 0.0
C129 C 0.72236 0.0627 0.11181 0.0
C130 C 0.58406 0.91859 0.84913 0.0
C131 C 0.57984 0.10746 0.16746 0.0
H132 H 0.37328 0.03121 0.83555 0.0
H133 H 0.21147 0.95718 0.06639 0.0
H134 H 0.62383 0.11333 0.92407 0.0
H135 H 0.62854 0.04077 0.82912 0.0
H136 H 0.56087 0.08309 0.81587 0.0
H137 H 0.30063 0.90929 0.11244 0.0
H138 H 0.444 0.93779 0.10006 0.0
H139 H 0.37674 0.98956 0.1869 0.0
H140 H 0.78029 0.95638 0.89753 0.0
H141 H 0.75493 0.09653 0.18002 0.0
H142 H 0.55829 0.93504 0.80612 0.0
H143 H 0.51087 0.88243 0.8733 0.0
H144 H 0.63823 0.89381 0.8008 0.0
H145 H 0.5256 0.11488 0.13713 0.0
H146 H 0.64347 0.15563 0.19955 0.0
H147 H 0.53438 0.0888 0.22724 0.0
C148 C 0.95648 0.55574 0.88756 0.0
C149 C 0.95566 0.61405 0.9615 0.0
C150 C 0.99459 0.51607 0.90036 0.0
C151 C 1.03185 0.53483 0.98967 0.0
C152 C 1.0329 0.59423 0.06405 0.0
C153 C 0.99533 0.63333 0.04885 0.0
C154 C 0.99359 0.45364 0.81877 0.0
C155 C 0.0713 0.61571 0.16052 0.0
C156 C 1.02853 0.40238 0.05913 0.0
C157 C 0.13636 0.41085 0.03911 0.0
C158 C 0.99341 0.44229 0.04321 0.0
C159 C 0.06782 0.49168 0.00587 0.0
C160 C 0.1765 0.49985 0.98421 0.0
C161 C 0.20944 0.45945 0.00125 0.0
C162 C 0.87689 0.43216 0.06759 0.0
C163 C 0.25807 0.5514 0.94326 0.0
H164 H 0.92692 0.54104 0.81953 0.0
H165 H 0.99384 0.67803 0.1065 0.0
H166 H 0.07476 0.45292 0.80045 0.0
H167 H 0.9401 0.41128 0.84177 0.0
H168 H 0.96608 0.44736 0.75256 0.0
H169 H 0.06922 0.66387 0.21002 0.0
H170 H 1.02063 0.57914 0.1959 0.0
H171 H 0.15421 0.61871 0.14995 0.0
H172 H 0.97187 0.36543 0.08939 0.0
H173 H 0.29264 0.46568 0.98438 0.0
H174 H 0.84284 0.42199 0.00255 0.0
H175 H 0.86857 0.47727 0.12324 0.0
H176 H 0.82908 0.39122 0.09515 0.0
H177 H 0.23405 0.54404 0.87472 0.0
H178 H 0.33915 0.55079 0.92888 0.0
H179 H 0.2619 0.6004 0.99447 0.0
loop_
_geom_bond_atom_site_label_1
_geom_bond_atom_site_label_2
_geom_bond_distance
_geom_bond_site_symmetry_2
_ccdc_geom_bond_type
Tb0 N31 2.660 1_554 S
Tb0 N38 2.600 . S
Tb0 O44 2.546 . S
Tb0 O45 2.610 1_444 S
Tb0 O47 2.320 1_554 S
Tb0 O48 2.552 1_455 S
Tb0 O49 2.413 . S
Tb0 O51 2.362 . S
Tb0 O52 2.422 1_455 S
Tb0 C64 2.833 . S
C1 C4 1.432 . S
C1 C5 1.414 . S
C1 N8 1.359 . S
C2 C4 1.417 . S
C2 C6 1.432 . S
C2 C14 1.410 1_556 S
C3 C5 1.444 . S
C3 C6 1.317 . S
C3 H26 0.929 . S
C4 C1 1.432 . S
C4 C2 1.417 . S
C4 N12 1.360 1_556 S
C5 C1 1.414 . S
C5 C3 1.444 . S
C5 C10 1.385 . S
C6 C2 1.432 . S
C6 C3 1.317 . S
C6 H18 0.930 . S
C7 C9 1.392 . S
C7 C10 1.370 . S
C7 H19 0.931 . S
N8 C1 1.359 . S
N8 C9 1.327 . S
N8 Tb11 2.600 . S
C9 C7 1.392 . S
C9 N8 1.327 . S
C9 H16 0.930 . S
C10 C5 1.385 . S
C10 C7 1.370 . S
C10 H29 0.930 . S
Tb11 N8 2.600 . S
Tb11 N12 2.660 1_556 S
Tb11 O45 2.362 . S
Tb11 O46 2.421 1_655 S
Tb11 O50 2.546 . S
Tb11 O51 2.610 1_666 S
Tb11 O53 2.320 1_556 S
Tb11 O54 2.552 1_655 S
Tb11 O55 2.413 . S
Tb11 C75 2.833 . S
N12 C4 1.360 1_554 S
N12 Tb11 2.660 1_554 S
N12 C13 1.305 . S
C13 N12 1.305 . S
C13 C15 1.407 . S
C13 H20 0.930 . S
C14 C2 1.410 1_554 S
C14 C15 1.345 . S
C14 H22 0.930 . S
C15 C13 1.407 . S
C15 C14 1.345 . S
C15 H17 0.930 . S
H16 C9 0.930 . S
H17 C15 0.930 . S
H18 C6 0.930 . S
H19 C7 0.931 . S
H20 C13 0.930 . S
H21 C35 0.930 . S
H22 C14 0.930 . S
H23 C41 0.930 . S
H24 C32 0.930 . S
H25 C39 0.931 . S
H26 C3 0.929 . S
H27 C33 0.930 . S
H28 C66 0.930 . S
H29 C10 0.930 . S
H30 C65 0.929 . S
N31 Tb0 2.660 1_556 S
N31 C32 1.305 . S
N31 C36 1.360 1_556 S
C32 H24 0.930 . S
C32 N31 1.305 . S
C32 C35 1.407 . S
C33 H27 0.930 . S
C33 C34 1.410 1_556 S
C33 C35 1.345 . S
C34 C33 1.410 1_554 S
C34 C36 1.417 . S
C34 C66 1.432 . S
C35 H21 0.930 . S
C35 C32 1.407 . S
C35 C33 1.345 . S
C36 N31 1.360 1_554 S
C36 C34 1.417 . S
C36 C40 1.432 . S
H37 C42 0.930 . S
N38 Tb0 2.600 . S
N38 C40 1.359 . S
N38 C41 1.327 . S
C39 H25 0.931 . S
C39 C41 1.392 . S
C39 C42 1.370 . S
C40 C36 1.432 . S
C40 N38 1.359 . S
C40 C43 1.414 . S
C41 H23 0.930 . S
C41 N38 1.327 . S
C41 C39 1.392 . S
C42 H37 0.930 . S
C42 C39 1.370 . S
C42 C43 1.385 . S
C43 C40 1.414 . S
C43 C42 1.385 . S
C43 C65 1.444 . S
O44 Tb0 2.546 . S
O44 C64 1.251 . S
O45 Tb0 2.610 1_666 S
O45 Tb11 2.362 . S
O45 C56 1.283 1_566 S
O46 Tb11 2.421 1_455 S
O46 C63 1.262 . S
O47 Tb0 2.320 1_556 S
O47 C63 1.260 1_545 S
O48 Tb0 2.552 1_655 S
O48 C56 1.243 . S
O49 Tb0 2.413 . S
O49 C64 1.256 . S
O50 Tb11 2.546 . S
O50 C75 1.251 . S
O51 Tb0 2.362 . S
O51 Tb11 2.610 1_444 S
O51 C67 1.283 1_544 S
O52 Tb0 2.422 1_655 S
O52 C74 1.258 . S
O53 Tb11 2.320 1_554 S
O53 C74 1.260 1_565 S
O54 Tb11 2.552 1_455 S
O54 C67 1.243 . S
O55 Tb11 2.413 . S
O55 C75 1.256 . S
C56 O45 1.283 1_544 S
C56 O48 1.243 . S
C57 C59 1.382 . S
C57 C61 1.393 . S
C57 C64 1.500 . S
C58 C59 1.400 . S
C58 C60 1.384 . S
C59 C57 1.382 . S
C59 C58 1.400 . S
C59 H76 0.930 1_554 S
C60 C58 1.384 . S
C60 C62 1.392 . S
C60 H77 0.931 . S
C61 C57 1.393 . S
C61 C62 1.401 . S
C61 H78 0.930 . S
C62 C60 1.392 . S
C62 C61 1.401 . S
C62 H79 0.930 . S
C63 O46 1.262 . S
C63 O47 1.260 1_565 S
C64 Tb0 2.833 . S
C64 O44 1.251 . S
C64 O49 1.256 . S
C64 C57 1.500 . S
C65 H30 0.929 . S
C65 C43 1.444 . S
C65 C66 1.317 . S
C66 H28 0.930 . S
C66 C34 1.432 . S
C66 C65 1.317 . S
C67 O51 1.283 1_566 S
C67 O54 1.243 . S
C68 C69 1.382 . S
C68 C72 1.393 . S
C68 C75 1.500 . S
C69 C68 1.382 . S
C69 C70 1.400 . S
C69 H80 0.930 1_556 S
C70 C69 1.400 . S
C70 C71 1.384 . S
C71 C70 1.384 . S
C71 C73 1.392 . S
C71 H81 0.931 . S
C72 C68 1.393 . S
C72 C73 1.401 . S
C72 H82 0.930 . S
C73 C71 1.392 . S
C73 C72 1.401 . S
C73 H83 0.930 . S
C74 O52 1.258 . S
C74 O53 1.260 1_545 S
C75 Tb11 2.833 . S
C75 O50 1.251 . S
C75 O55 1.256 . S
C75 C68 1.500 . S
H76 C59 0.930 1_556 S
H77 C60 0.931 . S
H78 C61 0.930 . S
H79 C62 0.930 . S
H80 C69 0.930 1_554 S
H81 C71 0.931 . S
H82 C72 0.930 . S
H83 C73 0.930 . S
C84 C85 1.391 1_455 S
C84 C86 1.394 . S
C84 H100 0.931 . S
C85 C84 1.391 1_655 S
C85 C89 1.376 1_545 S
C86 C84 1.394 . S
C86 C87 1.369 1_455 S
C86 C90 1.531 . S
C87 C86 1.369 1_655 S
C87 C88 1.410 1_545 S
C87 C95 1.503 . S
C88 C87 1.410 1_565 S
C88 C89 1.392 . S
C88 C91 1.511 . S
C89 C85 1.376 1_565 S
C89 C88 1.392 . S
C89 H101 0.929 . S
C90 C86 1.531 . S
C90 H102 0.960 . S
C90 H103 0.962 . S
C90 H104 0.960 . S
C91 C88 1.511 . S
C91 H105 0.961 . S
C91 H106 0.961 . S
C91 H107 0.961 . S
C92 C93 1.370 1_465 S
C92 C94 1.363 . S
C92 H108 0.931 . S
C93 C92 1.370 1_645 S
C93 C97 1.408 . S
C94 C92 1.363 . S
C94 C95 1.370 1_465 S
C94 C98 1.524 . S
C95 C87 1.503 . S
C95 C94 1.370 1_645 S
C95 C96 1.403 . S
C96 C95 1.403 . S
C96 C97 1.404 . S
C96 C99 1.539 . S
C97 C93 1.408 . S
C97 C96 1.404 . S
C97 H109 0.930 . S
C98 C94 1.524 . S
C98 H110 0.956 . S
C98 H111 0.961 . S
C98 H112 0.961 . S
C99 C96 1.539 . S
C99 H113 0.958 . S
C99 H114 0.961 . S
C99 H115 0.960 . S
H100 C84 0.931 . S
H101 C89 0.929 . S
H102 C90 0.960 . S
H103 C90 0.962 . S
H104 C90 0.960 . S
H105 C91 0.961 . S
H106 C91 0.961 . S
H107 C91 0.961 . S
H108 C92 0.931 . S
H109 C97 0.930 . S
H110 C98 0.956 . S
H111 C98 0.961 . S
H112 C98 0.961 . S
H113 C99 0.958 . S
H114 C99 0.961 . S
H115 C99 0.960 . S
C116 C117 1.391 . S
C116 C118 1.394 . S
C116 H132 0.931 . S
C117 C116 1.391 . S
C117 C121 1.376 1_545 S
C118 C116 1.394 . S
C118 C119 1.369 . S
C118 C122 1.531 . S
C119 C118 1.369 . S
C119 C120 1.410 1_545 S
C119 C127 1.503 . S
C120 C119 1.410 1_565 S
C120 C121 1.392 . S
C120 C123 1.511 . S
C121 C117 1.376 1_565 S
C121 C120 1.392 . S
C121 H133 0.929 . S
C122 C118 1.531 . S
C122 H134 0.960 . S
C122 H135 0.962 1_554 S
C122 H136 0.960 . S
C123 C120 1.511 . S
C123 H137 0.961 1_554 S
C123 H138 0.961 1_554 S
C123 H139 0.961 . S
C124 C125 1.373 1_566 S
C124 C126 1.363 . S
C124 H140 0.931 . S
C125 C124 1.373 1_544 S
C125 C129 1.410 . S
C126 C124 1.363 . S
C126 C127 1.370 1_566 S
C126 C130 1.524 . S
C127 C119 1.503 . S
C127 C126 1.370 1_544 S
C127 C128 1.403 . S
C128 C127 1.403 . S
C128 C129 1.404 . S
C128 C131 1.539 . S
C129 C125 1.410 . S
C129 C128 1.404 . S
C129 H141 0.930 . S
C130 C126 1.524 . S
C130 H142 0.956 1_565 S
C130 H143 0.961 . S
C130 H144 0.961 . S
C131 C128 1.539 . S
C131 H145 0.958 . S
C131 H146 0.961 . S
C131 H147 0.960 . S
H132 C116 0.931 . S
H133 C121 0.929 . S
H134 C122 0.960 . S
H135 C122 0.962 1_556 S
H136 C122 0.960 . S
H137 C123 0.961 1_556 S
H138 C123 0.961 1_556 S
H139 C123 0.961 . S
H140 C124 0.931 . S
H141 C129 0.930 . S
H142 C130 0.956 1_545 S
H143 C130 0.961 . S
H144 C130 0.961 . S
H145 C131 0.958 . S
H146 C131 0.961 . S
H147 C131 0.960 . S
C148 C149 1.391 1_655 S
C148 C150 1.394 . S
C148 H164 0.931 . S
C149 C148 1.391 1_455 S
C149 C153 1.376 1_556 S
C150 C148 1.394 . S
C150 C151 1.369 1_655 S
C150 C154 1.531 . S
C151 C150 1.369 1_455 S
C151 C152 1.410 1_556 S
C151 C159 1.503 . S
C152 C151 1.410 1_554 S
C152 C153 1.392 . S
C152 C155 1.511 . S
C153 C149 1.376 1_554 S
C153 C152 1.392 . S
C153 H165 0.929 . S
C154 C150 1.531 . S
C154 H166 0.960 1_655 S
C154 H167 0.962 . S
C154 H168 0.960 . S
C155 C152 1.511 . S
C155 H169 0.961 . S
C155 H170 0.961 . S
C155 H171 0.961 . S
C156 C157 1.371 1_654 S
C156 C158 1.363 . S
C156 H172 0.931 . S
C157 C156 1.371 1_456 S
C157 C161 1.412 . S
C158 C156 1.363 . S
C158 C159 1.370 1_654 S
C158 C162 1.524 . S
C159 C151 1.503 . S
C159 C158 1.370 1_456 S
C159 C160 1.403 . S
C160 C159 1.403 . S
C160 C161 1.404 . S
C160 C163 1.539 . S
C161 C157 1.412 . S
C161 C160 1.404 . S
C161 H173 0.930 . S
C162 C158 1.524 . S
C162 H174 0.956 . S
C162 H175 0.961 . S
C162 H176 0.961 . S
C163 C160 1.539 . S
C163 H177 0.958 . S
C163 H178 0.961 . S
C163 H179 0.960 . S
H164 C148 0.931 . S
H165 C153 0.929 . S
H166 C154 0.960 1_455 S
H167 C154 0.962 . S
H168 C154 0.960 . S
H169 C155 0.961 . S
H170 C155 0.961 . S
H171 C155 0.961 . S
H172 C156 0.931 . S
H173 C161 0.930 . S
H174 C162 0.956 . S
H175 C162 0.961 . S
H176 C162 0.961 . S
H177 C163 0.958 . S
H178 C163 0.961 . S
H179 C163 0.960 . S
C85 C74 1.449 . S
C93 C63 1.480 1_645 S
C117 C67 1.448 1_544 S
C125 C56 1.428 . S
C149 C70 1.325 1_455 S
C157 C58 1.306 1_556 S
