# Generated by pormake.
# Topology uog, (4)-cn, num edge types: 1
# Building blocks:
#     Node 0, Type 0, BuildingBlock: KUFVIS_clean_sbu_0, # of connection points: 4
#     Node 1, Type 0, BuildingBlock: KUFVIS_clean_sbu_0, # of connection points: 4
#     Node 2, Type 0, BuildingBlock: KUFVIS_clean_sbu_0, # of connection points: 4
#     Node 3, Type 0, BuildingBlock: KUFVIS_clean_sbu_0, # of connection points: 4
#     Node 4, Type 0, BuildingBlock: KUFVIS_clean_sbu_0, # of connection points: 4
#     Node 5, Type 0, BuildingBlock: KUFVIS_clean_sbu_0, # of connection points: 4
#     Edge 6, Type (0, 0), None
#     Edge 7, Type (0, 0), None
#     Edge 8, Type (0, 0), None
#     Edge 9, Type (0, 0), None
#     Edge 10, Type (0, 0), None
#     Edge 11, Type (0, 0), None
#     Edge 12, Type (0, 0), None
#     Edge 13, Type (0, 0), None
#     Edge 14, Type (0, 0), None
#     Edge 15, Type (0, 0), None
#     Edge 16, Type (0, 0), None
#     Edge 17, Type (0, 0), None
# Relax obj value: 0.099
# Max RMSD: 0.197
# Mean RMSD: 0.194
data_MOF--net-uog--node1-KUFVIS_clean_sbu_0--edge1-none
_symmetry_space_group_name_H-M    P1
_symmetry_Int_Tables_number       1
_symmetry_cell_setting            triclinic
loop_
_symmetry_equiv_pos_as_xyz
'x, y, z'
_cell_length_a     13.591364
_cell_length_b     13.559157
_cell_length_c     16.953895
_cell_angle_alpha  89.999794
_cell_angle_beta   89.999457
_cell_angle_gamma 117.45357
loop_
_atom_site_label
_atom_site_type_symbol
_atom_site_fract_x
_atom_site_fract_y
_atom_site_fract_z
_atom_type_partial_charge
Mn0 Mn 0.53225 0.23416 0.17939 0.0
Mn1 Mn 0.74931 0.4888 0.15582 0.0
C2 C 0.6068 0.30422 0.05317 0.0
C3 C 0.49766 0.04325 0.19658 0.0
C4 C 0.51562 0.44759 0.20819 0.0
O5 O 0.59889 0.27748 0.29027 0.0
O6 O 0.76862 0.41093 0.25374 0.0
C7 C 0.00882 0.63459 0.23296 0.0
N8 N 0.93708 0.63962 0.18028 0.0
C9 C 0.08497 0.81168 0.12294 0.0
C10 C 0.15086 0.81204 0.1856 0.0
C11 C 0.11481 0.72338 0.23799 0.0
C12 C 0.97332 0.73396 0.12343 0.0
H13 H 0.98199 0.56614 0.27388 0.0
C14 C 0.70084 0.3425 0.30592 0.0
O15 O 0.42317 0.0749 0.21247 0.0
O16 O 0.59008 0.12124 0.17209 0.0
N17 N 0.71703 0.58949 0.03954 0.0
C18 C 0.67676 0.53218 0.95264 0.0
C19 C 0.82115 0.61843 0.85872 0.0
C20 C 0.94134 0.726 0.88327 0.0
C21 C 0.97551 0.77897 0.973 0.0
C22 C 0.89297 0.73165 0.05314 0.0
H23 H 0.67617 0.54797 1.01609 0.0
O24 O 0.51148 0.2178 0.05995 0.0
O25 O 0.64001 0.35157 0.11941 0.0
O26 O 0.4618 0.34283 0.19081 0.0
O27 O 0.62034 0.49497 0.22032 0.0
C28 C 0.08462 0.85809 0.98368 0.0
C29 C 0.13554 0.87642 0.05693 0.0
H30 H 0.23215 0.88115 0.19319 0.0
H31 H 0.16826 0.72775 0.28521 0.0
H32 H 0.81419 0.6011 0.79526 0.0
H33 H 0.00177 0.76294 0.83661 0.0
H34 H 0.13591 0.89634 0.93259 0.0
H35 H 0.22424 0.92576 0.05793 0.0
Mn36 Mn 0.28431 0.5432 0.51151 0.0
Mn37 Mn 0.20338 0.74946 0.51649 0.0
C38 C 0.24291 0.59634 0.3904 0.0
C39 C 0.4379 0.49588 0.51314 0.0
C40 C 0.0473 0.51787 0.55161 0.0
O41 O 0.32633 0.59991 0.62035 0.0
O42 O 0.2739 0.7347 0.61854 0.0
C43 C 0.37426 0.9684 0.55145 0.0
N44 N 0.31597 0.89534 0.4934 0.0
C45 C 0.34612 0.04937 0.40816 0.0
C46 C 0.43005 0.11919 0.45823 0.0
C47 C 0.4357 0.08168 0.53385 0.0
C48 C 0.28848 0.93627 0.42838 0.0
H49 H 0.37523 0.93986 0.6108 0.0
C50 C 0.31061 0.67377 0.65414 0.0
O51 O 0.33832 0.42645 0.53614 0.0
O52 O 0.44656 0.58815 0.48705 0.0
N53 N 0.12657 0.76914 0.42772 0.0
C54 C 0.01523 0.70983 0.41356 0.0
C55 C 0.96088 0.75423 0.36614 0.0
C56 C 0.02158 0.85824 0.33104 0.0
C57 C 0.13519 0.91885 0.34654 0.0
C58 C 0.18501 0.87176 0.39676 0.0
H59 H 0.96661 0.62942 0.43919 0.0
O60 O 0.23893 0.50095 0.40388 0.0
O61 O 0.27323 0.66712 0.45139 0.0
O62 O 0.11449 0.47486 0.54299 0.0
O63 O 0.07581 0.61852 0.54389 0.0
C64 C 0.19852 0.02745 0.31839 0.0
C65 C 0.30483 0.0928 0.3489 0.0
H66 H 0.48017 0.20425 0.44231 0.0
H67 H 0.48662 0.13913 0.57837 0.0
H68 H 0.87268 0.70723 0.35548 0.0
H69 H 0.98004 0.89118 0.29289 0.0
H70 H 0.16351 0.064 0.27744 0.0
H71 H 0.34909 0.17967 0.33228 0.0
Mn72 Mn 0.7157 0.21953 0.88528 0.0
Mn73 Mn 0.72205 0.46435 0.87277 0.0
C74 C 0.68664 0.295 0.99922 0.0
C75 C 0.54085 0.03787 0.86609 0.0
C76 C 0.92597 0.44118 0.85827 0.0
O77 O 0.7178 0.25067 0.77155 0.0
O78 O 0.63866 0.36354 0.78045 0.0
C79 C 0.60234 0.59312 0.7624 0.0
N80 N 0.65258 0.59552 0.83179 0.0
C81 C 0.65327 0.77149 0.86983 0.0
C82 C 0.59788 0.76506 0.79845 0.0
C83 C 0.57708 0.67951 0.74392 0.0
C84 C 0.69665 0.69809 0.88086 0.0
H85 H 0.58611 0.52734 0.72049 0.0
C86 C 0.66546 0.29716 0.74077 0.0
O87 O 0.63944 0.04796 0.86044 0.0
O88 O 0.54397 0.13009 0.88115 0.0
N89 N 0.84598 0.59228 0.97754 0.0
C90 C 0.84559 0.5515 0.06795 0.0
C91 C 0.77709 0.64057 0.15463 0.0
C92 C 0.7388 0.73417 0.12125 0.0
C93 C 0.74014 0.76899 0.02704 0.0
C94 C 0.78172 0.71644 0.95176 0.0
H95 H 0.87001 0.48742 0.08197 0.0
O96 O 0.69966 0.20676 1.00391 0.0
O97 O 0.71374 0.34264 0.93171 0.0
O98 O 0.88878 0.34022 0.88657 0.0
O99 O 0.86024 0.46784 0.82168 0.0
C100 C 0.68833 0.83233 1.00841 0.0
C101 C 0.65559 0.84082 0.93188 0.0
H102 H 0.5697 0.82578 0.78459 0.0
H103 H 0.53781 0.67833 0.68817 0.0
H104 H 0.78069 0.63984 0.21914 0.0
H105 H 0.71175 0.77508 0.16451 0.0
H106 H 0.6628 0.86758 0.05622 0.0
H107 H 0.61424 0.89043 0.92585 0.0
Mn108 Mn 0.4414 0.73324 0.17938 0.0
Mn109 Mn 0.22433 0.4786 0.15583 0.0
C110 C 0.36683 0.66317 0.05318 0.0
C111 C 0.47602 0.92415 0.19655 0.0
C112 C 0.45801 0.5198 0.2082 0.0
O113 O 0.37477 0.68994 0.29026 0.0
O114 O 0.20502 0.55646 0.25375 0.0
C115 C 0.9648 0.33282 0.23296 0.0
N116 N 0.03655 0.32777 0.18029 0.0
C117 C 0.88866 0.15572 0.12295 0.0
C118 C 0.82277 0.15536 0.18561 0.0
C119 C 0.85881 0.24403 0.23798 0.0
C120 C 0.00031 0.23344 0.12344 0.0
H121 H -0.00838 0.40127 0.27387 0.0
C122 C 0.2728 0.62497 0.30589 0.0
O123 O 0.5505 0.89249 0.21246 0.0
O124 O 0.38358 0.84617 0.17209 0.0
N125 N 0.2566 0.3779 0.03955 0.0
C126 C 0.29688 0.43522 0.95265 0.0
C127 C 0.15249 0.34897 0.85873 0.0
C128 C 0.0323 0.2414 0.88328 0.0
C129 C -0.00187 0.18843 0.97301 0.0
C130 C 0.08066 0.23574 0.05315 0.0
H131 H 0.29747 0.41942 1.01611 0.0
O132 O 0.46217 0.74958 0.05994 0.0
O133 O 0.33362 0.61583 0.11942 0.0
O134 O 0.51183 0.62455 0.19081 0.0
O135 O 0.35329 0.47242 0.22032 0.0
C136 C 0.88901 0.10931 0.98369 0.0
C137 C 0.83809 0.09098 0.05694 0.0
H138 H 0.74148 0.08624 0.1932 0.0
H139 H 0.80534 0.23967 0.2852 0.0
H140 H 0.15946 0.3663 0.79527 0.0
H141 H 0.97188 0.20447 0.83662 0.0
H142 H 0.83773 0.07106 0.9326 0.0
H143 H 0.7494 0.04164 0.05794 0.0
Mn144 Mn 0.68938 0.42423 0.51149 0.0
Mn145 Mn 0.77028 0.21793 0.51647 0.0
C146 C 0.73076 0.37115 0.39043 0.0
C147 C 0.53582 0.47159 0.51312 0.0
C148 C 0.92634 0.44949 0.55165 0.0
O149 O 0.64729 0.36745 0.62032 0.0
O150 O 0.69976 0.23269 0.61852 0.0
C151 C 0.59937 -0.00102 0.55141 0.0
N152 N 0.65769 0.07205 0.49336 0.0
C153 C 0.62754 0.91804 0.40812 0.0
C154 C 0.54359 0.84821 0.45817 0.0
C155 C 0.53791 0.88571 0.53379 0.0
C156 C 0.68519 0.03113 0.42834 0.0
H157 H 0.59838 0.02751 0.61076 0.0
C158 C 0.66298 0.29357 0.6541 0.0
O159 O 0.63539 0.54099 0.53615 0.0
O160 O 0.52715 0.37933 0.487 0.0
N161 N 0.8471 0.19826 0.4277 0.0
C162 C 0.95843 0.25758 0.41353 0.0
C163 C 0.01279 0.21319 0.36611 0.0
C164 C 0.9521 0.10917 0.33101 0.0
C165 C 0.83849 0.04856 0.34651 0.0
C166 C 0.78866 0.09564 0.39674 0.0
H167 H 0.00705 0.33799 0.43916 0.0
O168 O 0.73484 0.46658 0.40389 0.0
O169 O 0.70042 0.30028 0.45137 0.0
O170 O 0.85918 0.49253 0.54301 0.0
O171 O 0.89785 0.34886 0.54388 0.0
C172 C 0.77517 0.93996 0.31836 0.0
C173 C 0.66885 0.87461 0.34886 0.0
H174 H 0.49346 0.76316 0.44223 0.0
H175 H 0.48696 0.82825 0.5783 0.0
H176 H 0.10099 0.2602 0.35545 0.0
H177 H -0.00636 0.07625 0.29287 0.0
H178 H 0.81018 0.90342 0.27741 0.0
H179 H 0.62459 0.78774 0.33224 0.0
Mn180 Mn 0.25796 0.74788 0.8853 0.0
Mn181 Mn 0.2516 0.50305 0.87278 0.0
C182 C 0.287 0.67239 0.99923 0.0
C183 C 0.43278 0.92955 0.86615 0.0
C184 C 0.04769 0.52624 0.85827 0.0
O185 O 0.25588 0.71676 0.77157 0.0
O186 O 0.335 0.60385 0.78046 0.0
C187 C 0.37131 0.37428 0.76241 0.0
N188 N 0.32106 0.37188 0.8318 0.0
C189 C 0.32037 0.19591 0.86984 0.0
C190 C 0.37576 0.20234 0.79847 0.0
C191 C 0.39657 0.28789 0.74393 0.0
C192 C 0.27699 0.26931 0.88087 0.0
H193 H 0.38754 0.44006 0.7205 0.0
C194 C 0.30825 0.67028 0.7408 0.0
O195 O 0.33418 0.91944 0.86045 0.0
O196 O 0.42969 0.83734 0.88118 0.0
N197 N 0.12766 0.37512 0.97755 0.0
C198 C 0.12805 0.4159 0.06796 0.0
C199 C 0.19654 0.32682 0.15465 0.0
C200 C 0.23483 0.23322 0.12126 0.0
C201 C 0.23349 0.1984 0.02705 0.0
C202 C 0.19192 0.25095 0.95177 0.0
H203 H 0.10362 0.47998 0.08198 0.0
O204 O 0.27399 0.76063 1.00393 0.0
O205 O 0.25991 0.62476 0.93172 0.0
O206 O 0.08488 0.6272 0.88657 0.0
O207 O 0.11342 0.49957 0.82169 0.0
C208 C 0.28531 0.13507 1.00842 0.0
C209 C 0.31806 0.12658 0.9319 0.0
H210 H 0.40394 0.14162 0.7846 0.0
H211 H 0.43583 0.28907 0.68818 0.0
H212 H 0.19294 0.32755 0.21915 0.0
H213 H 0.26188 0.19231 0.16453 0.0
H214 H 0.31084 0.09982 0.05624 0.0
H215 H 0.35942 0.07699 0.92587 0.0
loop_
_geom_bond_atom_site_label_1
_geom_bond_atom_site_label_2
_geom_bond_distance
_geom_bond_site_symmetry_2
_ccdc_geom_bond_type
Mn0 O5 2.095 . S
Mn0 O15 2.162 . S
Mn0 O16 2.297 . S
Mn0 O24 2.385 . S
Mn0 O25 2.209 . S
Mn0 O26 2.094 . S
Mn1 O6 2.121 . S
Mn1 N8 2.257 . S
Mn1 N17 2.282 . S
Mn1 O25 2.215 . S
Mn1 O27 2.117 . S
C2 O24 1.234 . S
C2 O25 1.283 . S
C3 O15 1.281 . S
C3 O16 1.236 . S
C4 O26 1.240 . S
C4 O27 1.264 . S
O5 Mn0 2.095 . S
O5 C14 1.250 . S
O6 Mn1 2.121 . S
O6 C14 1.258 . S
C7 N8 1.326 1_455 S
C7 C11 1.460 . S
C7 H13 0.929 . S
N8 Mn1 2.257 . S
N8 C7 1.326 1_655 S
N8 C12 1.362 1_655 S
C9 C10 1.258 . S
C9 C12 1.431 . S
C9 C29 1.449 1_554 S
C10 C9 1.258 . S
C10 C11 1.477 . S
C10 H30 0.931 . S
C11 C7 1.460 . S
C11 C10 1.477 . S
C11 H31 0.930 . S
C12 N8 1.362 1_455 S
C12 C9 1.431 . S
C12 C22 1.476 1_455 S
H13 C7 0.929 . S
C14 O5 1.250 . S
C14 O6 1.258 . S
O15 Mn0 2.162 . S
O15 C3 1.281 . S
O16 Mn0 2.297 . S
O16 C3 1.236 . S
N17 Mn1 2.282 . S
N17 C18 1.328 1_554 S
N17 C22 1.318 . S
C18 N17 1.328 1_556 S
C18 C19 1.457 . S
C18 H23 0.929 1_556 S
C19 C18 1.457 . S
C19 C20 1.291 . S
C19 H32 0.931 . S
C20 C19 1.291 . S
C20 C21 1.373 . S
C20 H33 0.929 . S
C21 C20 1.373 . S
C21 C22 1.396 1_556 S
C21 C28 1.403 1_655 S
C22 C12 1.476 1_655 S
C22 N17 1.318 . S
C22 C21 1.396 1_554 S
H23 C18 0.929 1_554 S
O24 Mn0 2.385 . S
O24 C2 1.234 . S
O25 Mn0 2.209 . S
O25 Mn1 2.215 . S
O25 C2 1.283 . S
O26 Mn0 2.094 . S
O26 C4 1.240 . S
O27 Mn1 2.117 . S
O27 C4 1.264 . S
C28 C21 1.403 1_455 S
C28 C29 1.399 . S
C28 H34 0.929 . S
C29 C9 1.449 1_556 S
C29 C28 1.399 . S
C29 H35 0.930 . S
H30 C10 0.931 . S
H31 C11 0.930 . S
H32 C19 0.931 . S
H33 C20 0.929 . S
H34 C28 0.929 . S
H35 C29 0.930 . S
Mn36 O41 2.095 . S
Mn36 O51 2.162 . S
Mn36 O52 2.297 . S
Mn36 O60 2.385 . S
Mn36 O61 2.209 . S
Mn36 O62 2.094 . S
Mn37 O42 2.121 . S
Mn37 N44 2.257 . S
Mn37 N53 2.282 . S
Mn37 O61 2.215 . S
Mn37 O63 2.117 . S
C38 O60 1.234 . S
C38 O61 1.283 . S
C39 O51 1.281 . S
C39 O52 1.236 . S
C40 O62 1.240 . S
C40 O63 1.264 . S
O41 Mn36 2.095 . S
O41 C50 1.250 . S
O42 Mn37 2.121 . S
O42 C50 1.258 . S
C43 N44 1.326 1_545 S
C43 C47 1.460 . S
C43 H49 0.929 . S
N44 Mn37 2.257 . S
N44 C43 1.326 1_565 S
N44 C48 1.362 1_565 S
C45 C46 1.258 . S
C45 C48 1.431 . S
C45 C65 1.449 . S
C46 C45 1.258 . S
C46 C47 1.477 . S
C46 H66 0.931 . S
C47 C43 1.460 . S
C47 C46 1.477 . S
C47 H67 0.930 . S
C48 N44 1.362 1_545 S
C48 C45 1.431 . S
C48 C58 1.476 1_545 S
H49 C43 0.929 . S
C50 O41 1.250 . S
C50 O42 1.258 . S
O51 Mn36 2.162 . S
O51 C39 1.281 . S
O52 Mn36 2.297 . S
O52 C39 1.236 . S
N53 Mn37 2.282 . S
N53 C54 1.328 . S
N53 C58 1.318 . S
C54 N53 1.328 . S
C54 C55 1.457 . S
C54 H59 0.929 . S
C55 C54 1.457 . S
C55 C56 1.291 . S
C55 H68 0.931 . S
C56 C55 1.291 . S
C56 C57 1.373 . S
C56 H69 0.929 . S
C57 C56 1.373 . S
C57 C58 1.396 . S
C57 C64 1.403 1_565 S
C58 C48 1.476 1_565 S
C58 N53 1.318 . S
C58 C57 1.396 . S
H59 C54 0.929 . S
O60 Mn36 2.385 . S
O60 C38 1.234 . S
O61 Mn36 2.209 . S
O61 Mn37 2.215 . S
O61 C38 1.283 . S
O62 Mn36 2.094 . S
O62 C40 1.240 . S
O63 Mn37 2.117 . S
O63 C40 1.264 . S
C64 C57 1.403 1_545 S
C64 C65 1.399 . S
C64 H70 0.929 . S
C65 C45 1.449 . S
C65 C64 1.399 . S
C65 H71 0.930 . S
H66 C46 0.931 . S
H67 C47 0.930 . S
H68 C55 0.931 . S
H69 C56 0.929 . S
H70 C64 0.929 . S
H71 C65 0.930 . S
Mn72 O77 2.095 . S
Mn72 O87 2.162 . S
Mn72 O88 2.297 . S
Mn72 O96 2.385 . S
Mn72 O97 2.209 . S
Mn72 O98 2.094 . S
Mn73 O78 2.121 . S
Mn73 N80 2.257 . S
Mn73 N89 2.282 . S
Mn73 O97 2.215 . S
Mn73 O99 2.117 . S
C74 O96 1.234 . S
C74 O97 1.283 . S
C75 O87 1.281 . S
C75 O88 1.236 . S
C76 O98 1.240 . S
C76 O99 1.264 . S
O77 Mn72 2.095 . S
O77 C86 1.250 . S
O78 Mn73 2.121 . S
O78 C86 1.258 . S
C79 N80 1.326 . S
C79 C83 1.460 . S
C79 H85 0.929 . S
N80 Mn73 2.257 . S
N80 C79 1.326 . S
N80 C84 1.362 . S
C81 C82 1.258 . S
C81 C84 1.431 . S
C81 C101 1.449 1_556 S
C82 C81 1.258 . S
C82 C83 1.477 . S
C82 H102 0.931 . S
C83 C79 1.460 . S
C83 C82 1.477 . S
C83 H103 0.930 . S
C84 N80 1.362 . S
C84 C81 1.431 . S
C84 C94 1.476 . S
H85 C79 0.929 . S
C86 O77 1.250 . S
C86 O78 1.258 . S
O87 Mn72 2.162 . S
O87 C75 1.281 . S
O88 Mn72 2.297 . S
O88 C75 1.236 . S
N89 Mn73 2.282 . S
N89 C90 1.328 1_556 S
N89 C94 1.318 . S
C90 N89 1.328 1_554 S
C90 C91 1.457 . S
C90 H95 0.929 1_554 S
C91 C90 1.457 . S
C91 C92 1.291 . S
C91 H104 0.931 . S
C92 C91 1.291 . S
C92 C93 1.373 . S
C92 H105 0.929 . S
C93 C92 1.373 . S
C93 C94 1.396 1_554 S
C93 C100 1.403 . S
C94 C84 1.476 . S
C94 N89 1.318 . S
C94 C93 1.396 1_556 S
H95 C90 0.929 1_556 S
O96 Mn72 2.385 . S
O96 C74 1.234 . S
O97 Mn72 2.209 . S
O97 Mn73 2.215 . S
O97 C74 1.283 . S
O98 Mn72 2.094 . S
O98 C76 1.240 . S
O99 Mn73 2.117 . S
O99 C76 1.264 . S
C100 C93 1.403 . S
C100 C101 1.399 . S
C100 H106 0.929 . S
C101 C81 1.449 1_554 S
C101 C100 1.399 . S
C101 H107 0.930 . S
H102 C82 0.931 . S
H103 C83 0.930 . S
H104 C91 0.931 . S
H105 C92 0.929 . S
H106 C100 0.929 . S
H107 C101 0.930 . S
Mn108 O113 2.095 . S
Mn108 O123 2.162 . S
Mn108 O124 2.297 . S
Mn108 O132 2.385 . S
Mn108 O133 2.209 . S
Mn108 O134 2.094 . S
Mn109 O114 2.121 . S
Mn109 N116 2.257 . S
Mn109 N125 2.282 . S
Mn109 O133 2.215 . S
Mn109 O135 2.117 . S
C110 O132 1.234 . S
C110 O133 1.283 . S
C111 O123 1.281 . S
C111 O124 1.236 . S
C112 O134 1.240 . S
C112 O135 1.264 . S
O113 Mn108 2.095 . S
O113 C122 1.250 . S
O114 Mn109 2.121 . S
O114 C122 1.258 . S
C115 N116 1.326 1_655 S
C115 C119 1.460 . S
C115 H121 0.929 . S
N116 Mn109 2.257 . S
N116 C115 1.326 1_455 S
N116 C120 1.362 1_455 S
C117 C118 1.258 . S
C117 C120 1.431 . S
C117 C137 1.449 1_554 S
C118 C117 1.258 . S
C118 C119 1.477 . S
C118 H138 0.931 . S
C119 C115 1.460 . S
C119 C118 1.477 . S
C119 H139 0.930 . S
C120 N116 1.362 1_655 S
C120 C117 1.431 . S
C120 C130 1.476 1_655 S
H121 C115 0.929 . S
C122 O113 1.250 . S
C122 O114 1.258 . S
O123 Mn108 2.162 . S
O123 C111 1.281 . S
O124 Mn108 2.297 . S
O124 C111 1.236 . S
N125 Mn109 2.282 . S
N125 C126 1.328 1_554 S
N125 C130 1.318 . S
C126 N125 1.328 1_556 S
C126 C127 1.457 . S
C126 H131 0.929 1_556 S
C127 C126 1.457 . S
C127 C128 1.291 . S
C127 H140 0.931 . S
C128 C127 1.291 . S
C128 C129 1.373 . S
C128 H141 0.929 . S
C129 C128 1.373 . S
C129 C130 1.396 1_556 S
C129 C136 1.403 1_455 S
C130 C120 1.476 1_455 S
C130 N125 1.318 . S
C130 C129 1.396 1_554 S
H131 C126 0.929 1_554 S
O132 Mn108 2.385 . S
O132 C110 1.234 . S
O133 Mn108 2.209 . S
O133 Mn109 2.215 . S
O133 C110 1.283 . S
O134 Mn108 2.094 . S
O134 C112 1.240 . S
O135 Mn109 2.117 . S
O135 C112 1.264 . S
C136 C129 1.403 1_655 S
C136 C137 1.399 . S
C136 H142 0.929 . S
C137 C117 1.449 1_556 S
C137 C136 1.399 . S
C137 H143 0.930 . S
H138 C118 0.931 . S
H139 C119 0.930 . S
H140 C127 0.931 . S
H141 C128 0.929 . S
H142 C136 0.929 . S
H143 C137 0.930 . S
Mn144 O149 2.095 . S
Mn144 O159 2.162 . S
Mn144 O160 2.297 . S
Mn144 O168 2.385 . S
Mn144 O169 2.209 . S
Mn144 O170 2.094 . S
Mn145 O150 2.121 . S
Mn145 N152 2.257 . S
Mn145 N161 2.282 . S
Mn145 O169 2.215 . S
Mn145 O171 2.117 . S
C146 O168 1.234 . S
C146 O169 1.283 . S
C147 O159 1.281 . S
C147 O160 1.236 . S
C148 O170 1.240 . S
C148 O171 1.264 . S
O149 Mn144 2.095 . S
O149 C158 1.250 . S
O150 Mn145 2.121 . S
O150 C158 1.258 . S
C151 N152 1.326 1_565 S
C151 C155 1.460 . S
C151 H157 0.929 . S
N152 Mn145 2.257 . S
N152 C151 1.326 1_545 S
N152 C156 1.362 1_545 S
C153 C154 1.258 . S
C153 C156 1.431 . S
C153 C173 1.449 . S
C154 C153 1.258 . S
C154 C155 1.477 . S
C154 H174 0.931 . S
C155 C151 1.460 . S
C155 C154 1.477 . S
C155 H175 0.930 . S
C156 N152 1.362 1_565 S
C156 C153 1.431 . S
C156 C166 1.476 1_565 S
H157 C151 0.929 . S
C158 O149 1.250 . S
C158 O150 1.258 . S
O159 Mn144 2.162 . S
O159 C147 1.281 . S
O160 Mn144 2.297 . S
O160 C147 1.236 . S
N161 Mn145 2.282 . S
N161 C162 1.328 . S
N161 C166 1.318 . S
C162 N161 1.328 . S
C162 C163 1.457 . S
C162 H167 0.929 . S
C163 C162 1.457 . S
C163 C164 1.291 . S
C163 H176 0.931 . S
C164 C163 1.291 . S
C164 C165 1.373 . S
C164 H177 0.929 . S
C165 C164 1.373 . S
C165 C166 1.396 . S
C165 C172 1.403 1_545 S
C166 C156 1.476 1_545 S
C166 N161 1.318 . S
C166 C165 1.396 . S
H167 C162 0.929 . S
O168 Mn144 2.385 . S
O168 C146 1.234 . S
O169 Mn144 2.209 . S
O169 Mn145 2.215 . S
O169 C146 1.283 . S
O170 Mn144 2.094 . S
O170 C148 1.240 . S
O171 Mn145 2.117 . S
O171 C148 1.264 . S
C172 C165 1.403 1_565 S
C172 C173 1.399 . S
C172 H178 0.929 . S
C173 C153 1.449 . S
C173 C172 1.399 . S
C173 H179 0.930 . S
H174 C154 0.931 . S
H175 C155 0.930 . S
H176 C163 0.931 . S
H177 C164 0.929 . S
H178 C172 0.929 . S
H179 C173 0.930 . S
Mn180 O185 2.095 . S
Mn180 O195 2.162 . S
Mn180 O196 2.297 . S
Mn180 O204 2.385 . S
Mn180 O205 2.209 . S
Mn180 O206 2.094 . S
Mn181 O186 2.121 . S
Mn181 N188 2.257 . S
Mn181 N197 2.282 . S
Mn181 O205 2.215 . S
Mn181 O207 2.117 . S
C182 O204 1.234 . S
C182 O205 1.283 . S
C183 O195 1.281 . S
C183 O196 1.236 . S
C184 O206 1.240 . S
C184 O207 1.264 . S
O185 Mn180 2.095 . S
O185 C194 1.250 . S
O186 Mn181 2.121 . S
O186 C194 1.258 . S
C187 N188 1.326 . S
C187 C191 1.460 . S
C187 H193 0.929 . S
N188 Mn181 2.257 . S
N188 C187 1.326 . S
N188 C192 1.362 . S
C189 C190 1.258 . S
C189 C192 1.431 . S
C189 C209 1.449 1_556 S
C190 C189 1.258 . S
C190 C191 1.477 . S
C190 H210 0.931 . S
C191 C187 1.460 . S
C191 C190 1.477 . S
C191 H211 0.930 . S
C192 N188 1.362 . S
C192 C189 1.431 . S
C192 C202 1.476 . S
H193 C187 0.929 . S
C194 O185 1.250 . S
C194 O186 1.258 . S
O195 Mn180 2.162 . S
O195 C183 1.281 . S
O196 Mn180 2.297 . S
O196 C183 1.236 . S
N197 Mn181 2.282 . S
N197 C198 1.328 1_556 S
N197 C202 1.318 . S
C198 N197 1.328 1_554 S
C198 C199 1.457 . S
C198 H203 0.929 1_554 S
C199 C198 1.457 . S
C199 C200 1.291 . S
C199 H212 0.931 . S
C200 C199 1.291 . S
C200 C201 1.373 . S
C200 H213 0.929 . S
C201 C200 1.373 . S
C201 C202 1.396 1_554 S
C201 C208 1.403 . S
C202 C192 1.476 . S
C202 N197 1.318 . S
C202 C201 1.396 1_556 S
H203 C198 0.929 1_556 S
O204 Mn180 2.385 . S
O204 C182 1.234 . S
O205 Mn180 2.209 . S
O205 Mn181 2.215 . S
O205 C182 1.283 . S
O206 Mn180 2.094 . S
O206 C184 1.240 . S
O207 Mn181 2.117 . S
O207 C184 1.264 . S
C208 C201 1.403 . S
C208 C209 1.399 . S
C208 H214 0.929 . S
C209 C189 1.449 1_554 S
C209 C208 1.399 . S
C209 H215 0.930 . S
H210 C190 0.931 . S
H211 C191 0.930 . S
H212 C199 0.931 . S
H213 C200 0.929 . S
H214 C208 0.929 . S
H215 C209 0.930 . S
C3 C111 1.513 1_545 S
C39 C147 1.507 . S
C76 C184 1.411 1_655 S
C40 C148 1.397 1_455 S
C183 C75 1.503 1_565 S
C112 C4 1.412 . S
C74 C2 1.551 1_556 S
C122 C38 1.971 . S
C86 C158 2.425 . S
C182 C110 1.551 1_556 S
C146 C14 1.971 . S
C194 C50 2.425 . S
