# Generated by pormake.
# Topology qtz-x, (6)-cn, num edge types: 1
# Building blocks:
#     Node 0, Type 0, BuildingBlock: CUKXOW_clean_sbu_0, # of connection points: 6
#     Node 1, Type 0, BuildingBlock: CUKXOW_clean_sbu_0, # of connection points: 6
#     Node 2, Type 0, BuildingBlock: CUKXOW_clean_sbu_0, # of connection points: 6
#     Edge 3, Type (0, 0), None
#     Edge 4, Type (0, 0), None
#     Edge 5, Type (0, 0), None
#     Edge 6, Type (0, 0), None
#     Edge 7, Type (0, 0), None
#     Edge 8, Type (0, 0), None
#     Edge 9, Type (0, 0), None
#     Edge 10, Type (0, 0), None
#     Edge 11, Type (0, 0), None
# Relax obj value: 0.109
# Max RMSD: 0.215
# Mean RMSD: 0.215
data_MOF--net-qtz-x--node1-CUKXOW_clean_sbu_0--edge1-none
_symmetry_space_group_name_H-M    P1
_symmetry_Int_Tables_number       1
_symmetry_cell_setting            triclinic
loop_
_symmetry_equiv_pos_as_xyz
'x, y, z'
_cell_length_a     7.0465922
_cell_length_b     7.0479645
_cell_length_c     18.978174
_cell_angle_alpha  89.990918
_cell_angle_beta   90.012247
_cell_angle_gamma 120.00443
loop_
_atom_site_label
_atom_site_type_symbol
_atom_site_fract_x
_atom_site_fract_y
_atom_site_fract_z
_atom_type_partial_charge
Tb0 Tb 0.08985 0.58807 0.29811 0.0
C1 C 0.91768 0.89801 0.23527 0.0
Tb2 Tb 0.76475 0.42789 0.16818 0.0
O3 O 0.36741 0.66576 0.22722 0.0
O4 O 0.08802 0.66666 0.19183 0.0
O5 O -0.00055 0.84657 0.29085 0.0
C6 C 0.65793 0.34125 1.03203 0.0
O7 O 0.84059 0.77071 0.17817 0.0
C8 C 0.58898 0.36502 0.29232 0.0
C9 C 0.92691 0.11192 0.23451 0.0
O10 O 0.53472 0.35086 0.08123 0.0
O11 O 0.8381 0.37256 1.06061 0.0
O12 O 0.47817 0.34975 0.23549 0.0
O13 O 0.76226 0.36906 0.27503 0.0
O14 O 0.82054 0.14921 0.18314 0.0
O15 O 0.03712 0.25501 0.28566 0.0
C16 C 0.21053 0.67521 0.43257 0.0
O17 O 0.02928 0.51233 0.41029 0.0
O18 O 0.33067 0.78394 0.37899 0.0
C19 C 0.26591 0.68511 0.17259 0.0
Tb20 Tb 0.33415 0.92235 0.63146 0.0
C21 C 0.81626 0.09455 0.56859 0.0
Tb22 Tb 0.49916 0.24777 0.5015 0.0
O23 O 0.13446 0.64472 0.56056 0.0
O24 O 0.41436 0.92447 0.52518 0.0
O25 O 0.68306 0.0127 0.62417 0.0
C26 C 0.51974 0.35439 0.3654 0.0
O27 O 0.76605 0.17173 0.51151 0.0
C28 C 0.61209 0.42349 0.62567 0.0
C29 C 0.02095 0.08531 0.56783 0.0
O30 O 0.65244 0.47778 0.4146 0.0
O31 O 0.37049 0.17435 0.3939 0.0
O32 O 0.70746 0.53434 0.56884 0.0
O33 O 0.44296 0.25004 0.60837 0.0
O34 O 0.16456 0.1916 0.51645 0.0
O35 O 0.05389 -0.02477 0.619 0.0
C36 C 0.3008 0.80181 0.76593 0.0
O37 O 0.31952 -0.01681 0.74365 0.0
O38 O 0.28898 0.68152 0.71236 0.0
C39 C 0.2551 0.74644 0.50591 0.0
Tb40 Tb 0.42447 0.67807 0.96481 0.0
C41 C 0.11443 0.1961 0.90194 0.0
Tb42 Tb 0.58462 0.51334 0.83484 0.0
O43 O 0.34672 0.87793 0.89391 0.0
O44 O 0.346 0.59785 0.85853 0.0
O45 O 0.1659 0.32922 0.95752 0.0
C46 C 0.67069 0.49278 0.69875 0.0
O47 O 0.24171 0.2464 0.84483 0.0
C48 C 0.64772 0.4004 0.95898 0.0
C49 C 0.90051 -0.00858 0.90118 0.0
O50 O 0.66156 0.3602 0.74796 0.0
O51 O 0.63969 0.64188 0.72723 0.0
O52 O 0.66268 0.30483 0.90213 0.0
O53 O 0.64355 0.56959 0.94171 0.0
O54 O 0.86309 0.84788 0.84978 0.0
O55 O 0.75757 0.95838 0.95238 0.0
C56 C 0.33696 0.71126 0.09924 0.0
O57 O 0.49987 0.69286 0.07702 0.0
O58 O 0.22855 0.72313 1.04563 0.0
C59 C 0.32755 0.75725 0.83927 0.0
loop_
_geom_bond_atom_site_label_1
_geom_bond_atom_site_label_2
_geom_bond_distance
_geom_bond_site_symmetry_2
_ccdc_geom_bond_type
Tb0 O3 2.453 . S
Tb0 O4 2.596 . S
Tb0 O5 2.374 1_565 S
Tb0 O13 2.343 . S
Tb0 O15 2.353 . S
Tb0 O17 2.427 . S
Tb0 O18 2.513 . S
C1 O5 1.251 . S
C1 O7 1.263 1_445 S
Tb2 O4 2.343 1_655 S
Tb2 O7 2.353 . S
Tb2 O10 2.427 . S
Tb2 O11 2.513 . S
Tb2 O12 2.453 . S
Tb2 O13 2.596 1_655 S
Tb2 O14 2.374 . S
O3 Tb0 2.453 . S
O3 C19 1.245 . S
O4 Tb0 2.596 . S
O4 Tb2 2.343 1_455 S
O4 C19 1.259 . S
O5 Tb0 2.374 1_545 S
O5 C1 1.251 . S
C6 O10 1.275 1_556 S
C6 O11 1.246 1_556 S
O7 C1 1.263 1_665 S
O7 Tb2 2.353 . S
C8 O12 1.245 . S
C8 O13 1.259 1_655 S
C9 O14 1.250 1_455 S
C9 O15 1.263 . S
O10 Tb2 2.427 . S
O10 C6 1.275 1_554 S
O11 Tb2 2.513 . S
O11 C6 1.246 1_554 S
O12 Tb2 2.453 . S
O12 C8 1.245 . S
O13 Tb0 2.343 . S
O13 Tb2 2.596 1_455 S
O13 C8 1.259 1_455 S
O14 Tb2 2.374 . S
O14 C9 1.250 1_655 S
O15 Tb0 2.353 . S
O15 C9 1.263 . S
C16 O17 1.275 . S
C16 O18 1.246 . S
O17 Tb0 2.427 . S
O17 C16 1.275 . S
O18 Tb0 2.513 . S
O18 C16 1.246 . S
C19 O3 1.245 . S
C19 O4 1.259 . S
Tb20 O23 2.453 . S
Tb20 O24 2.596 . S
Tb20 O25 2.374 . S
Tb20 O33 2.343 1_565 S
Tb20 O35 2.353 . S
Tb20 O37 2.427 . S
Tb20 O38 2.513 . S
C21 O25 1.251 . S
C21 O27 1.263 1_565 S
Tb22 O24 2.343 1_545 S
Tb22 O27 2.353 . S
Tb22 O30 2.427 . S
Tb22 O31 2.513 . S
Tb22 O32 2.453 . S
Tb22 O33 2.596 . S
Tb22 O34 2.374 . S
O23 Tb20 2.453 . S
O23 C39 1.245 . S
O24 Tb20 2.596 . S
O24 Tb22 2.343 1_565 S
O24 C39 1.259 . S
O25 Tb20 2.374 . S
O25 C21 1.251 . S
C26 O30 1.275 . S
C26 O31 1.246 . S
O27 C21 1.263 1_545 S
O27 Tb22 2.353 . S
C28 O32 1.245 . S
C28 O33 1.259 . S
C29 O34 1.250 . S
C29 O35 1.263 1_545 S
O30 Tb22 2.427 . S
O30 C26 1.275 . S
O31 Tb22 2.513 . S
O31 C26 1.246 . S
O32 Tb22 2.453 . S
O32 C28 1.245 . S
O33 Tb20 2.343 1_545 S
O33 Tb22 2.596 . S
O33 C28 1.259 . S
O34 Tb22 2.374 . S
O34 C29 1.250 . S
O35 Tb20 2.353 . S
O35 C29 1.263 1_565 S
C36 O37 1.275 . S
C36 O38 1.246 . S
O37 Tb20 2.427 . S
O37 C36 1.275 . S
O38 Tb20 2.513 . S
O38 C36 1.246 . S
C39 O23 1.245 . S
C39 O24 1.259 . S
Tb40 O43 2.453 . S
Tb40 O44 2.596 . S
Tb40 O45 2.374 . S
Tb40 O53 2.343 . S
Tb40 O55 2.353 1_565 S
Tb40 O57 2.427 1_565 S
Tb40 O58 2.513 . S
C41 O45 1.251 . S
C41 O47 1.263 . S
Tb42 O44 2.343 . S
Tb42 O47 2.353 . S
Tb42 O50 2.427 . S
Tb42 O51 2.513 . S
Tb42 O52 2.453 . S
Tb42 O53 2.596 . S
Tb42 O54 2.374 . S
O43 Tb40 2.453 . S
O43 C59 1.245 . S
O44 Tb40 2.596 . S
O44 Tb42 2.343 . S
O44 C59 1.259 . S
O45 Tb40 2.374 . S
O45 C41 1.251 . S
C46 O50 1.275 . S
C46 O51 1.246 . S
O47 C41 1.263 . S
O47 Tb42 2.353 . S
C48 O52 1.245 . S
C48 O53 1.259 . S
C49 O54 1.250 1_545 S
C49 O55 1.263 . S
O50 Tb42 2.427 . S
O50 C46 1.275 . S
O51 Tb42 2.513 . S
O51 C46 1.246 . S
O52 Tb42 2.453 . S
O52 C48 1.245 . S
O53 Tb40 2.343 . S
O53 Tb42 2.596 . S
O53 C48 1.259 . S
O54 Tb42 2.374 . S
O54 C49 1.250 1_565 S
O55 Tb40 2.353 1_545 S
O55 C49 1.263 . S
C56 O57 1.275 1_564 S
C56 O58 1.246 1_554 S
O57 Tb40 2.427 1_545 S
O57 C56 1.275 1_546 S
O58 Tb40 2.513 . S
O58 C56 1.246 1_556 S
C59 O43 1.245 . S
C59 O44 1.259 . S
C1 C9 1.129 . S
C29 C21 1.129 1_445 S
C49 C41 1.129 1_655 S
C56 C19 1.630 . S
C26 C8 1.812 . S
C59 C36 1.630 . S
C48 C6 1.811 . S
C16 C39 1.630 . S
C46 C28 1.811 . S
