# Generated by pormake.
# Topology qtz, (4)-cn, num edge types: 1
# Building blocks:
#     Node 0, Type 0, BuildingBlock: NAHDIM_clean_sbu_0, # of connection points: 4
#     Node 1, Type 0, BuildingBlock: NAHDIM_clean_sbu_0, # of connection points: 4
#     Node 2, Type 0, BuildingBlock: NAHDIM_clean_sbu_0, # of connection points: 4
#     Edge 3, Type (0, 0), BuildingBlock: FUNLAD_clean_linker_0, # of connection points: 2
#     Edge 4, Type (0, 0), BuildingBlock: FUNLAD_clean_linker_0, # of connection points: 2
#     Edge 5, Type (0, 0), BuildingBlock: FUNLAD_clean_linker_0, # of connection points: 2
#     Edge 6, Type (0, 0), BuildingBlock: FUNLAD_clean_linker_0, # of connection points: 2
#     Edge 7, Type (0, 0), BuildingBlock: FUNLAD_clean_linker_0, # of connection points: 2
#     Edge 8, Type (0, 0), BuildingBlock: FUNLAD_clean_linker_0, # of connection points: 2
# Relax obj value: 0.104
# Max RMSD: 0.171
# Mean RMSD: 0.164
data_MOF--net-qtz--node1-NAHDIM_clean_sbu_0--edge1-FUNLAD_clean_linker_0
_symmetry_space_group_name_H-M    P1
_symmetry_Int_Tables_number       1
_symmetry_cell_setting            triclinic
loop_
_symmetry_equiv_pos_as_xyz
'x, y, z'
_cell_length_a     27.581174
_cell_length_b     28.091977
_cell_length_c     31.565094
_cell_angle_alpha  93.132397
_cell_angle_beta   90.007331
_cell_angle_gamma 120.69114
loop_
_atom_site_label
_atom_site_type_symbol
_atom_site_fract_x
_atom_site_fract_y
_atom_site_fract_z
_atom_type_partial_charge
C0 C 0.02942 0.4425 0.08532 0.0
O1 O 0.98425 0.43685 0.06629 0.0
O2 O 0.93533 0.48487 0.1242 0.0
Zn3 Zn 0.98843 0.47423 0.16068 0.0
O4 O 0.03956 0.54457 0.19547 0.0
C5 C 0.90504 0.3664 0.18823 0.0
O6 O 0.89455 0.3534 0.1473 0.0
O7 O 0.0379 0.456 0.12488 0.0
C8 C 0.02294 0.56029 0.22795 0.0
O9 O 0.97002 0.53056 0.23855 0.0
C10 C 0.95157 0.52978 0.10625 0.0
O11 O 0.00434 0.57014 0.11157 0.0
O12 O 0.94388 0.41492 0.20078 0.0
C13 C 0.47357 0.97016 0.58047 0.0
O14 O 0.42875 0.97516 0.58219 0.0
O15 O 0.46288 0.07519 0.53566 0.0
Zn16 Zn 0.48254 0.02289 0.50505 0.0
O17 O 0.41436 0.96209 0.47262 0.0
C18 C 0.53188 0.06607 0.42615 0.0
O19 O 0.47839 0.04411 0.41511 0.0
O20 O 0.50554 0.98838 0.54909 0.0
C21 C 0.41788 0.92189 0.45581 0.0
O22 O 0.46483 0.92136 0.46134 0.0
C23 C 0.46541 0.11727 0.52036 0.0
O24 O 0.48183 0.12906 0.48132 0.0
O25 O 0.545 0.06287 0.4641 0.0
C26 C 0.53651 0.67333 0.81816 0.0
O27 O 0.50486 0.65948 0.85158 0.0
O28 O 0.51661 0.51454 0.7769 0.0
Zn29 Zn 0.5312 0.56812 0.82692 0.0
O30 O 0.46096 0.54132 0.86112 0.0
C31 C 0.58537 0.52648 0.87538 0.0
O32 O 0.53761 0.4808 0.86444 0.0
O33 O 0.55384 0.64175 0.8036 0.0
C34 C 0.46424 0.55013 0.90124 0.0
O35 O 0.51419 0.57745 0.92049 0.0
C36 C 0.46986 0.47012 0.76825 0.0
O37 O 0.42711 0.45706 0.79301 0.0
O38 O 0.59366 0.57227 0.86292 0.0
C39 C 0.35913 0.50507 0.90535 0.0
C40 C 0.41261 0.53157 0.92587 0.0
C41 C 0.3106 0.48936 0.9286 0.0
C42 C 0.31455 0.49955 0.97304 0.0
C43 C 0.36806 0.52555 0.99341 0.0
C44 C 0.41648 0.54127 0.97019 0.0
C45 C 0.26498 0.48682 -0.0007 0.0
C46 C 0.21065 0.45361 0.98608 0.0
C47 C 0.16274 0.44587 0.01242 0.0
C48 C 0.11239 0.43481 0.99217 0.0
C49 C 0.06817 0.43184 0.01585 0.0
C50 C 0.0733 0.43942 0.06036 0.0
H51 H 0.20372 0.45656 0.07396 0.0
C52 C 0.12247 0.44742 0.08073 0.0
C53 C 0.16662 0.4504 0.05707 0.0
H54 H 0.12745 0.45253 0.11501 0.0
H55 H 0.35474 0.49719 0.87118 0.0
H56 H 0.27067 0.47067 0.91125 0.0
H57 H 0.37257 0.53421 0.02752 0.0
H58 H 0.457 0.56155 0.98704 0.0
H59 H 0.27424 0.50725 0.03093 0.0
H60 H 0.20036 0.43367 0.95434 0.0
H61 H 0.10798 0.43035 0.95784 0.0
H62 H 0.03068 0.42518 -0.00083 0.0
C63 C 0.82461 0.2737 0.20624 0.0
C64 C 0.86926 0.32677 0.21958 0.0
C65 C 0.78829 0.23797 0.23578 0.0
C66 C 0.79565 0.25485 0.27932 0.0
C67 C 0.84177 0.30692 0.29271 0.0
C68 C 0.87807 0.34258 0.26322 0.0
C69 C 0.75587 0.22008 0.31162 0.0
C70 C 0.70136 0.1818 0.30235 0.0
C71 C 0.65931 0.15122 0.33484 0.0
C72 C 0.60186 0.12742 0.32393 0.0
C73 C 0.56065 0.09966 0.35352 0.0
C74 C 0.5759 0.09475 0.39482 0.0
H75 H 0.71821 0.16131 0.38537 0.0
C76 C 0.6333 0.11747 0.40564 0.0
C77 C 0.67462 0.14523 0.37594 0.0
H78 H 0.64638 0.11381 0.43706 0.0
H79 H 0.81714 0.25996 0.1729 0.0
H80 H 0.7546 0.19736 0.22425 0.0
H81 H 0.8489 0.32078 0.32604 0.0
H82 H 0.91233 0.38303 0.27465 0.0
H83 H 0.771 0.23012 0.34447 0.0
H84 H 0.68534 0.17543 0.26986 0.0
H85 H 0.58871 0.13095 0.29247 0.0
H86 H 0.5168 0.08238 0.344 0.0
C87 C 0.53041 0.93258 0.61102 0.0
C88 C 0.48532 0.94229 0.61403 0.0
C89 C 0.53974 0.9041 0.642 0.0
C90 C 0.50421 0.88497 0.67688 0.0
C91 C 0.45975 0.89557 0.68001 0.0
C92 C 0.45041 0.92388 0.64907 0.0
C93 C 0.50935 0.85115 0.70938 0.0
C94 C 0.55346 0.84349 0.71391 0.0
C95 C 0.55332 0.80423 0.74367 0.0
C96 C 0.58221 0.7764 0.73291 0.0
C97 C 0.57843 0.73517 0.75792 0.0
C98 C 0.54615 0.72137 0.79455 0.0
H99 H 0.50271 0.81483 0.79188 0.0
C100 C 0.52006 0.7516 0.80675 0.0
C101 C 0.52366 0.79268 0.78163 0.0
H102 H 0.49551 0.74255 0.8351 0.0
H103 H 0.55797 0.9461 0.5843 0.0
H104 H 0.5739 0.8962 0.63755 0.0
H105 H 0.43154 0.88128 0.70633 0.0
H106 H 0.41533 0.93076 0.65246 0.0
H107 H 0.47355 0.82985 0.72961 0.0
H108 H 0.58915 0.86311 0.69347 0.0
H109 H 0.60598 0.78503 0.70416 0.0
H110 H 0.59954 0.71307 0.74783 0.0
C111 C 0.67988 0.57257 0.91354 0.0
C112 C 0.62833 0.52424 0.90188 0.0
C113 C 0.7203 0.56999 0.93854 0.0
C114 C 0.70978 0.51888 0.95259 0.0
C115 C 0.6584 0.47069 0.94052 0.0
C116 C 0.61812 0.47328 0.9156 0.0
C117 C 0.75096 0.51317 0.97911 0.0
C118 C 0.79559 0.55563 0.0008 0.0
C119 C 0.83487 0.54785 0.02783 0.0
C120 C 0.89056 0.59194 0.03489 0.0
C121 C 0.9286 0.58614 0.06024 0.0
C122 C 0.91148 0.53621 0.07947 0.0
H123 H 0.77446 0.46388 0.04437 0.0
C124 C 0.85546 0.4924 0.07302 0.0
C125 C 0.81752 0.49816 0.04764 0.0
H126 H 0.84071 0.45357 0.08772 0.0
H127 H 0.68919 0.61244 0.9032 0.0
H128 H 0.75972 0.60806 0.94601 0.0
H129 H 0.64913 0.4307 0.95061 0.0
H130 H 0.57893 0.43519 0.9071 0.0
H131 H 0.74339 0.47145 0.98107 0.0
H132 H 0.8047 0.59777 -0.00141 0.0
H133 H 0.90486 0.63087 0.02043 0.0
H134 H 0.97137 0.62083 0.06476 0.0
C135 C 0.32239 0.88023 0.42007 0.0
C136 C 0.37119 0.87795 0.4285 0.0
C137 C 0.2794 0.83985 0.39277 0.0
C138 C 0.28425 0.79611 0.37355 0.0
C139 C 0.33296 0.79388 0.38218 0.0
C140 C 0.37586 0.83418 0.40943 0.0
C141 C 0.24099 0.75338 0.34298 0.0
C142 C 0.18691 0.74089 0.3405 0.0
C143 C 0.14483 0.69688 0.31004 0.0
C144 C 0.08782 0.66756 0.32062 0.0
C145 C 0.04777 0.62389 0.29355 0.0
C146 C 0.06401 0.6091 0.25517 0.0
H147 H 0.20369 0.70677 0.26068 0.0
C148 C 0.12065 0.64013 0.24374 0.0
C149 C 0.16058 0.68365 0.27075 0.0
H150 H 0.13444 0.6304 0.21409 0.0
H151 H 0.31773 0.91372 0.43401 0.0
H152 H 0.24334 0.84405 0.38613 0.0
H153 H 0.33801 0.76088 0.36765 0.0
H154 H 0.41295 0.83125 0.41515 0.0
H155 H 0.25398 0.72946 0.32293 0.0
H156 H 0.17185 0.7606 0.36305 0.0
H157 H 0.07446 0.67747 0.35041 0.0
H158 H 0.00438 0.60107 0.30314 0.0
C159 C 0.41522 0.3808 0.72381 0.0
C160 C 0.46472 0.43261 0.73154 0.0
C161 C 0.41178 0.3443 0.69038 0.0
C162 C 0.45797 0.35893 0.66411 0.0
C163 C 0.50648 0.41154 0.67087 0.0
C164 C 0.51001 0.44789 0.70432 0.0
C165 C 0.45783 0.32029 0.63001 0.0
C166 C 0.4274 0.26473 0.63154 0.0
C167 C 0.43398 0.22636 0.60109 0.0
C168 C 0.42301 0.17522 0.6148 0.0
C169 C 0.43239 0.13947 0.58833 0.0
C170 C 0.45238 0.15384 0.54727 0.0
H171 H 0.45903 0.27813 0.54722 0.0
C172 C 0.4611 0.20398 0.53281 0.0
C173 C 0.45194 0.23991 0.55942 0.0
H174 H 0.47585 0.21594 0.50117 0.0
H175 H 0.37932 0.36806 0.74389 0.0
H176 H 0.37294 0.30484 0.6853 0.0
H177 H 0.54246 0.42409 0.65087 0.0
H178 H 0.5486 0.48771 0.70912 0.0
H179 H 0.48821 0.33845 0.60527 0.0
H180 H 0.40107 0.2467 0.65849 0.0
H181 H 0.40862 0.1635 0.64657 0.0
H182 H 0.42469 0.10089 0.60034 0.0
loop_
_geom_bond_atom_site_label_1
_geom_bond_atom_site_label_2
_geom_bond_distance
_geom_bond_site_symmetry_2
_ccdc_geom_bond_type
C0 O1 1.160 . S
C0 O7 1.185 . S
O1 C0 1.160 . S
O2 Zn3 1.907 . S
O2 C10 1.284 . S
Zn3 O2 1.907 . S
Zn3 O4 2.028 1_655 S
Zn3 O7 2.077 1_655 S
Zn3 O12 1.978 . S
O4 Zn3 2.028 1_455 S
O4 C8 1.278 . S
C5 O6 1.203 . S
C5 O12 1.267 . S
O6 C5 1.203 . S
O7 C0 1.185 . S
O7 Zn3 2.077 1_455 S
C8 O4 1.278 . S
C8 O9 1.211 . S
O9 C8 1.211 . S
C10 O2 1.284 . S
C10 O11 1.273 . S
O11 C10 1.273 . S
O12 Zn3 1.978 . S
O12 C5 1.267 . S
C13 O14 1.160 . S
C13 O20 1.185 . S
O14 C13 1.160 . S
O15 Zn16 1.899 . S
O15 C23 1.284 . S
Zn16 O15 1.899 . S
Zn16 O17 2.032 1_545 S
Zn16 O20 2.086 1_545 S
Zn16 O25 1.977 . S
O17 Zn16 2.032 1_565 S
O17 C21 1.278 . S
C18 O19 1.203 . S
C18 O25 1.267 . S
O19 C18 1.203 . S
O20 C13 1.185 . S
O20 Zn16 2.086 1_565 S
C21 O17 1.278 . S
C21 O22 1.211 1_565 S
O22 C21 1.211 1_545 S
C23 O15 1.284 . S
C23 O24 1.273 . S
O24 C23 1.273 . S
O25 Zn16 1.977 . S
O25 C18 1.267 . S
C26 O27 1.160 . S
C26 O33 1.185 . S
O27 C26 1.160 . S
O28 Zn29 1.899 . S
O28 C36 1.284 . S
Zn29 O28 1.899 . S
Zn29 O30 2.032 . S
Zn29 O33 2.086 . S
Zn29 O38 1.977 . S
O30 Zn29 2.032 . S
O30 C34 1.278 . S
C31 O32 1.203 . S
C31 O38 1.267 . S
O32 C31 1.203 . S
O33 C26 1.185 . S
O33 Zn29 2.086 . S
C34 O30 1.278 . S
C34 O35 1.211 . S
O35 C34 1.211 . S
C36 O28 1.284 . S
C36 O37 1.273 . S
O37 C36 1.273 . S
O38 Zn29 1.977 . S
O38 C31 1.267 . S
C39 C40 1.386 . S
C39 C41 1.383 . S
C39 H55 0.951 . S
C40 C39 1.386 . S
C40 C44 1.383 . S
C41 C39 1.383 . S
C41 C42 1.402 . S
C41 H56 0.951 . S
C42 C41 1.402 . S
C42 C43 1.375 . S
C42 C45 1.481 . S
C43 C42 1.375 . S
C43 C44 1.367 . S
C43 H57 0.951 . S
C44 C40 1.383 . S
C44 C43 1.367 . S
C44 H58 0.950 . S
C45 C42 1.481 . S
C45 C46 1.297 . S
C45 H59 0.950 . S
C46 C45 1.297 . S
C46 C47 1.479 1_556 S
C46 H60 0.950 . S
C47 C46 1.479 1_554 S
C47 C48 1.375 . S
C47 C53 1.404 . S
C48 C47 1.375 . S
C48 C49 1.369 . S
C48 H61 0.950 . S
C49 C48 1.369 . S
C49 C50 1.392 . S
C49 H62 0.951 . S
C50 C49 1.392 . S
C50 C52 1.384 . S
H51 C53 0.949 . S
C52 C50 1.384 . S
C52 C53 1.385 . S
C52 H54 0.950 . S
C53 C47 1.404 . S
C53 H51 0.949 . S
C53 C52 1.385 . S
H54 C52 0.950 . S
H55 C39 0.951 . S
H56 C41 0.951 . S
H57 C43 0.951 . S
H58 C44 0.950 . S
H59 C45 0.950 . S
H60 C46 0.950 . S
H61 C48 0.950 . S
H62 C49 0.951 . S
C63 C64 1.386 . S
C63 C65 1.383 . S
C63 H79 0.951 . S
C64 C63 1.386 . S
C64 C68 1.383 . S
C65 C63 1.383 . S
C65 C66 1.402 . S
C65 H80 0.951 . S
C66 C65 1.402 . S
C66 C67 1.375 . S
C66 C69 1.481 . S
C67 C66 1.375 . S
C67 C68 1.367 . S
C67 H81 0.951 . S
C68 C64 1.383 . S
C68 C67 1.367 . S
C68 H82 0.950 . S
C69 C66 1.481 . S
C69 C70 1.297 . S
C69 H83 0.950 . S
C70 C69 1.297 . S
C70 C71 1.479 . S
C70 H84 0.950 . S
C71 C70 1.479 . S
C71 C72 1.375 . S
C71 C77 1.404 . S
C72 C71 1.375 . S
C72 C73 1.369 . S
C72 H85 0.950 . S
C73 C72 1.369 . S
C73 C74 1.392 . S
C73 H86 0.951 . S
C74 C73 1.392 . S
C74 C76 1.384 . S
H75 C77 0.949 . S
C76 C74 1.384 . S
C76 C77 1.385 . S
C76 H78 0.950 . S
C77 C71 1.404 . S
C77 H75 0.949 . S
C77 C76 1.385 . S
H78 C76 0.950 . S
H79 C63 0.951 . S
H80 C65 0.951 . S
H81 C67 0.951 . S
H82 C68 0.950 . S
H83 C69 0.950 . S
H84 C70 0.950 . S
H85 C72 0.950 . S
H86 C73 0.951 . S
C87 C88 1.386 . S
C87 C89 1.383 . S
C87 H103 0.951 . S
C88 C87 1.386 . S
C88 C92 1.383 . S
C89 C87 1.383 . S
C89 C90 1.402 . S
C89 H104 0.951 . S
C90 C89 1.402 . S
C90 C91 1.375 . S
C90 C93 1.481 . S
C91 C90 1.375 . S
C91 C92 1.367 . S
C91 H105 0.951 . S
C92 C88 1.383 . S
C92 C91 1.367 . S
C92 H106 0.950 . S
C93 C90 1.481 . S
C93 C94 1.297 . S
C93 H107 0.950 . S
C94 C93 1.297 . S
C94 C95 1.479 . S
C94 H108 0.950 . S
C95 C94 1.479 . S
C95 C96 1.375 . S
C95 C101 1.404 . S
C96 C95 1.375 . S
C96 C97 1.369 . S
C96 H109 0.950 . S
C97 C96 1.369 . S
C97 C98 1.392 . S
C97 H110 0.951 . S
C98 C97 1.392 . S
C98 C100 1.384 . S
H99 C101 0.949 . S
C100 C98 1.384 . S
C100 C101 1.385 . S
C100 H102 0.950 . S
C101 C95 1.404 . S
C101 H99 0.949 . S
C101 C100 1.385 . S
H102 C100 0.950 . S
H103 C87 0.951 . S
H104 C89 0.951 . S
H105 C91 0.951 . S
H106 C92 0.950 . S
H107 C93 0.950 . S
H108 C94 0.950 . S
H109 C96 0.950 . S
H110 C97 0.951 . S
C111 C112 1.386 . S
C111 C113 1.383 . S
C111 H127 0.951 . S
C112 C111 1.386 . S
C112 C116 1.383 . S
C113 C111 1.383 . S
C113 C114 1.402 . S
C113 H128 0.951 . S
C114 C113 1.402 . S
C114 C115 1.375 . S
C114 C117 1.481 1_556 S
C115 C114 1.375 . S
C115 C116 1.367 . S
C115 H129 0.951 . S
C116 C112 1.383 . S
C116 C115 1.367 . S
C116 H130 0.950 . S
C117 C114 1.481 1_554 S
C117 C118 1.297 . S
C117 H131 0.950 . S
C118 C117 1.297 . S
C118 C119 1.479 . S
C118 H132 0.950 . S
C119 C118 1.479 . S
C119 C120 1.375 . S
C119 C125 1.404 . S
C120 C119 1.375 . S
C120 C121 1.369 . S
C120 H133 0.950 . S
C121 C120 1.369 . S
C121 C122 1.392 . S
C121 H134 0.951 . S
C122 C121 1.392 . S
C122 C124 1.384 . S
H123 C125 0.949 . S
C124 C122 1.384 . S
C124 C125 1.385 . S
C124 H126 0.950 . S
C125 C119 1.404 . S
C125 H123 0.949 . S
C125 C124 1.385 . S
H126 C124 0.950 . S
H127 C111 0.951 . S
H128 C113 0.951 . S
H129 C115 0.951 . S
H130 C116 0.950 . S
H131 C117 0.950 . S
H132 C118 0.950 . S
H133 C120 0.950 . S
H134 C121 0.951 . S
C135 C136 1.386 . S
C135 C137 1.383 . S
C135 H151 0.951 . S
C136 C135 1.386 . S
C136 C140 1.383 . S
C137 C135 1.383 . S
C137 C138 1.402 . S
C137 H152 0.951 . S
C138 C137 1.402 . S
C138 C139 1.375 . S
C138 C141 1.481 . S
C139 C138 1.375 . S
C139 C140 1.367 . S
C139 H153 0.951 . S
C140 C136 1.383 . S
C140 C139 1.367 . S
C140 H154 0.950 . S
C141 C138 1.481 . S
C141 C142 1.297 . S
C141 H155 0.950 . S
C142 C141 1.297 . S
C142 C143 1.479 . S
C142 H156 0.950 . S
C143 C142 1.479 . S
C143 C144 1.375 . S
C143 C149 1.404 . S
C144 C143 1.375 . S
C144 C145 1.369 . S
C144 H157 0.950 . S
C145 C144 1.369 . S
C145 C146 1.392 . S
C145 H158 0.951 . S
C146 C145 1.392 . S
C146 C148 1.384 . S
H147 C149 0.949 . S
C148 C146 1.384 . S
C148 C149 1.385 . S
C148 H150 0.950 . S
C149 C143 1.404 . S
C149 H147 0.949 . S
C149 C148 1.385 . S
H150 C148 0.950 . S
H151 C135 0.951 . S
H152 C137 0.951 . S
H153 C139 0.951 . S
H154 C140 0.950 . S
H155 C141 0.950 . S
H156 C142 0.950 . S
H157 C144 0.950 . S
H158 C145 0.951 . S
C159 C160 1.386 . S
C159 C161 1.383 . S
C159 H175 0.951 . S
C160 C159 1.386 . S
C160 C164 1.383 . S
C161 C159 1.383 . S
C161 C162 1.402 . S
C161 H176 0.951 . S
C162 C161 1.402 . S
C162 C163 1.375 . S
C162 C165 1.481 . S
C163 C162 1.375 . S
C163 C164 1.367 . S
C163 H177 0.951 . S
C164 C160 1.383 . S
C164 C163 1.367 . S
C164 H178 0.950 . S
C165 C162 1.481 . S
C165 C166 1.297 . S
C165 H179 0.950 . S
C166 C165 1.297 . S
C166 C167 1.479 . S
C166 H180 0.950 . S
C167 C166 1.479 . S
C167 C168 1.375 . S
C167 C173 1.404 . S
C168 C167 1.375 . S
C168 C169 1.369 . S
C168 H181 0.950 . S
C169 C168 1.369 . S
C169 C170 1.392 . S
C169 H182 0.951 . S
C170 C169 1.392 . S
C170 C172 1.384 . S
H171 C173 0.949 . S
C172 C170 1.384 . S
C172 C173 1.385 . S
C172 H174 0.950 . S
C173 C167 1.404 . S
C173 H171 0.949 . S
C173 C172 1.385 . S
H174 C172 0.950 . S
H175 C159 0.951 . S
H176 C161 0.951 . S
H177 C163 0.951 . S
H178 C164 0.950 . S
H179 C165 0.950 . S
H180 C166 0.950 . S
H181 C168 0.950 . S
H182 C169 0.951 . S
C40 C34 1.248 . S
C50 C0 1.171 . S
C64 C5 1.341 . S
C74 C18 1.359 . S
C88 C13 1.223 . S
C98 C26 1.291 . S
C112 C31 1.227 . S
C122 C10 1.284 . S
C136 C21 1.175 . S
C146 C8 1.234 . S
C160 C36 1.234 . S
C170 C23 1.219 . S
