# Generated by pormake.
# Topology npo, (4)-cn, num edge types: 1
# Building blocks:
#     Node 0, Type 0, BuildingBlock: QUQFOY_clean_sbu_3, # of connection points: 4
#     Node 1, Type 0, BuildingBlock: QUQFOY_clean_sbu_3, # of connection points: 4
#     Node 2, Type 0, BuildingBlock: QUQFOY_clean_sbu_3, # of connection points: 4
#     Node 3, Type 0, BuildingBlock: QUQFOY_clean_sbu_3, # of connection points: 4
#     Node 4, Type 0, BuildingBlock: QUQFOY_clean_sbu_3, # of connection points: 4
#     Node 5, Type 0, BuildingBlock: QUQFOY_clean_sbu_3, # of connection points: 4
#     Edge 6, Type (0, 0), BuildingBlock: OJICUG_clean_linker_0, # of connection points: 2
#     Edge 7, Type (0, 0), BuildingBlock: OJICUG_clean_linker_0, # of connection points: 2
#     Edge 8, Type (0, 0), BuildingBlock: OJICUG_clean_linker_0, # of connection points: 2
#     Edge 9, Type (0, 0), BuildingBlock: OJICUG_clean_linker_0, # of connection points: 2
#     Edge 10, Type (0, 0), BuildingBlock: OJICUG_clean_linker_0, # of connection points: 2
#     Edge 11, Type (0, 0), BuildingBlock: OJICUG_clean_linker_0, # of connection points: 2
#     Edge 12, Type (0, 0), BuildingBlock: OJICUG_clean_linker_0, # of connection points: 2
#     Edge 13, Type (0, 0), BuildingBlock: OJICUG_clean_linker_0, # of connection points: 2
#     Edge 14, Type (0, 0), BuildingBlock: OJICUG_clean_linker_0, # of connection points: 2
#     Edge 15, Type (0, 0), BuildingBlock: OJICUG_clean_linker_0, # of connection points: 2
#     Edge 16, Type (0, 0), BuildingBlock: OJICUG_clean_linker_0, # of connection points: 2
#     Edge 17, Type (0, 0), BuildingBlock: OJICUG_clean_linker_0, # of connection points: 2
# Relax obj value: 0.287
# Max RMSD: 0.251
# Mean RMSD: 0.241
data_MOF--net-npo--node1-QUQFOY_clean_sbu_3--edge1-OJICUG_clean_linker_0
_symmetry_space_group_name_H-M    P1
_symmetry_Int_Tables_number       1
_symmetry_cell_setting            triclinic
loop_
_symmetry_equiv_pos_as_xyz
'x, y, z'
_cell_length_a     34.676469
_cell_length_b     33.576117
_cell_length_c     18.750365
_cell_angle_alpha  92.54992
_cell_angle_beta   89.758741
_cell_angle_gamma 120.80865
loop_
_atom_site_label
_atom_site_type_symbol
_atom_site_fract_x
_atom_site_fract_y
_atom_site_fract_z
_atom_type_partial_charge
C0 C 0.48859 0.17198 0.15632 0.0
O1 O 0.499 0.16229 0.09575 0.0
Cd2 Cd 0.52481 0.11061 0.07545 0.0
O3 O 0.49048 0.15227 0.21203 0.0
Cd4 Cd 0.50965 0.0905 0.23024 0.0
C5 C 0.61493 0.16543 0.19282 0.0
O6 O 0.46623 0.04463 0.13189 0.0
O7 O 0.52702 0.04311 0.14285 0.0
O8 O 0.45375 0.05042 0.32239 0.0
C9 C 0.48989 0.02822 0.10993 0.0
O10 O 0.60133 0.15361 0.1281 0.0
C11 C 0.47853 0.03943 0.35568 0.0
O12 O 0.5873 0.14954 0.24321 0.0
O13 O 0.51772 0.05423 0.33235 0.0
C14 C 0.28971 0.48584 0.6885 0.0
O15 O 0.30477 0.49314 0.62561 0.0
Cd16 Cd 0.38177 0.52236 0.59941 0.0
O17 O 0.31561 0.49288 0.74169 0.0
Cd18 Cd 0.39547 0.51897 0.76436 0.0
C19 C 0.42555 0.62339 0.70129 0.0
O20 O 0.40176 0.47562 0.66582 0.0
O21 O 0.4653 0.52894 0.71103 0.0
O22 O 0.37785 0.46851 0.86487 0.0
C23 C 0.44392 0.4941 0.66785 0.0
O24 O 0.41834 0.60517 0.63807 0.0
C25 C 0.40555 0.50139 0.9073 0.0
O26 O 0.41767 0.59867 0.75476 0.0
O27 O 0.42745 0.54152 0.88275 0.0
C28 C 0.78208 0.47434 0.25274 0.0
O29 O 0.78954 0.46817 0.31637 0.0
Cd30 Cd 0.83639 0.43836 0.34611 0.0
O31 O 0.80092 0.4659 0.20051 0.0
Cd32 Cd 0.85465 0.43887 0.18133 0.0
C33 C 0.77989 0.33581 0.24768 0.0
O34 O 0.90334 0.48349 0.27966 0.0
O35 O 0.91437 0.42982 0.23664 0.0
O36 O 0.88721 0.48833 0.07988 0.0
C37 C 0.92715 0.46498 0.27906 0.0
O38 O 0.79028 0.35516 0.31023 0.0
C39 C 0.88369 0.45551 0.0386 0.0
O40 O 0.79725 0.35944 0.19328 0.0
O41 O 0.86638 0.41568 0.06405 0.0
C42 C 0.29555 0.78792 0.791 0.0
O43 O 0.31462 0.79749 0.85211 0.0
Cd44 Cd 0.39171 0.84812 0.87403 0.0
O45 O 0.31798 0.80737 0.73573 0.0
Cd46 Cd 0.39875 0.86848 0.71756 0.0
C47 C 0.42898 0.7933 0.75878 0.0
O48 O 0.40221 0.91485 0.81665 0.0
O49 O 0.46539 0.91953 0.79899 0.0
O50 O 0.38305 0.90899 0.62623 0.0
C51 C 0.44331 0.93455 0.83293 0.0
O52 O 0.4258 0.80463 0.82334 0.0
C53 C 0.41702 0.91698 0.58972 0.0
O54 O 0.41825 0.80964 0.70788 0.0
O55 O 0.44027 0.90032 0.61108 0.0
C56 C 0.62398 0.48035 0.19226 0.0
O57 O 0.61183 0.47799 0.12768 0.0
Cd58 Cd 0.53536 0.44865 0.09302 0.0
O59 O 0.59572 0.46937 0.24212 0.0
Cd60 Cd 0.51564 0.44284 0.25814 0.0
C61 C 0.49124 0.34342 0.1706 0.0
O62 O 0.50907 0.48825 0.16972 0.0
O63 O 0.44603 0.43045 0.20098 0.0
O64 O 0.53271 0.49165 0.36733 0.0
C65 C 0.46665 0.46683 0.16598 0.0
O66 O 0.49973 0.36516 0.11317 0.0
C67 C 0.50448 0.45848 0.40393 0.0
O68 O 0.49674 0.36451 0.23094 0.0
O69 O 0.48215 0.41871 0.37223 0.0
C70 C 0.12551 0.48065 0.74725 0.0
O71 O 0.11557 0.4825 0.81208 0.0
Cd72 Cd 0.06815 0.51126 0.8495 0.0
O73 O 0.10808 0.49183 0.69808 0.0
Cd74 Cd 0.05364 0.51786 0.68544 0.0
C75 C 0.12776 0.61704 0.77331 0.0
O76 O 0.00249 0.47117 0.77402 0.0
O77 O -0.00434 0.52858 0.74548 0.0
O78 O 0.02241 0.46964 0.57582 0.0
C79 C -0.01924 0.49193 0.77963 0.0
O80 O 0.1148 0.59488 0.8304 0.0
C81 C 0.02549 0.50256 0.54052 0.0
O82 O 0.11234 0.59635 0.7128 0.0
O83 O 0.04195 0.54206 0.57294 0.0
C84 C 0.47449 0.22899 0.09897 0.0
C85 C 0.47911 0.21012 0.16169 0.0
H86 H 0.47427 0.28583 0.05255 0.0
C87 C 0.48017 0.23172 0.22802 0.0
H88 H 0.47272 0.21269 0.04694 0.0
C89 C 0.48081 0.27371 0.23115 0.0
C90 C 0.48056 0.29478 0.16798 0.0
H91 H 0.48332 0.21781 0.27724 0.0
H92 H 0.48431 0.29096 0.28297 0.0
C93 C 0.47532 0.27095 0.10207 0.0
C94 C 0.21722 0.47622 0.64514 0.0
C95 C 0.24321 0.47463 0.70103 0.0
H96 H 0.15914 0.47887 0.61582 0.0
C97 C 0.22631 0.46752 0.77046 0.0
H98 H 0.22908 0.48123 0.59088 0.0
C99 C 0.18609 0.46603 0.78474 0.0
C100 C 0.16211 0.47178 0.72988 0.0
H101 H 0.24524 0.46553 0.81454 0.0
H102 H 0.17522 0.46304 0.83949 0.0
C103 C 0.17707 0.47487 0.65945 0.0
C104 C 0.69131 0.22478 0.1534 0.0
C105 C 0.66171 0.20284 0.20906 0.0
H106 H 0.75244 0.2838 0.12225 0.0
C107 C 0.67531 0.22101 0.27958 0.0
H108 H 0.68219 0.21137 0.09862 0.0
C109 C 0.71569 0.26276 0.29323 0.0
C110 C 0.74315 0.287 0.23659 0.0
H111 H 0.65352 0.20458 0.32387 0.0
H112 H 0.72386 0.27741 0.34751 0.0
C113 C 0.73163 0.26641 0.16704 0.0
C114 C 0.43722 0.73945 0.67199 0.0
C115 C 0.43897 0.75604 0.74289 0.0
H116 H 0.43206 0.6844 0.60282 0.0
C117 C 0.44443 0.7327 0.79865 0.0
H118 H 0.43367 0.75703 0.62765 0.0
C119 C 0.44365 0.69119 0.78433 0.0
C120 C 0.4373 0.67214 0.71398 0.0
H121 H 0.44651 0.74487 0.85378 0.0
H122 H 0.44527 0.67266 0.82898 0.0
C123 C 0.43637 0.69782 0.65765 0.0
C124 C 0.68222 0.48906 0.27975 0.0
C125 C 0.66944 0.48934 0.20885 0.0
H126 H 0.72829 0.48465 0.34942 0.0
C127 C 0.69807 0.49212 0.15352 0.0
H128 H 0.66118 0.48747 0.32372 0.0
C129 C 0.73656 0.49034 0.16826 0.0
C130 C 0.74718 0.48593 0.2386 0.0
H131 H 0.68942 0.49284 0.09834 0.0
H132 H 0.75658 0.4899 0.12407 0.0
C133 C 0.72076 0.48744 0.2945 0.0
C134 C 0.22872 0.7286 0.71779 0.0
C135 C 0.24815 0.75006 0.78452 0.0
H136 H 0.17474 0.66956 0.66178 0.0
C137 C 0.22375 0.73123 0.84663 0.0
H138 H 0.2465 0.74247 0.66899 0.0
C139 C 0.18284 0.68941 0.84268 0.0
C140 C 0.16538 0.66567 0.77648 0.0
H141 H 0.23738 0.74742 0.89893 0.0
H142 H 0.16619 0.67452 0.89183 0.0
C143 C 0.1876 0.68676 0.71379 0.0
C144 C 0.43179 0.97676 0.93315 0.0
C145 C 0.45924 0.96217 0.90067 0.0
H146 H 0.4191 0.00716 0.02477 0.0
C147 C 0.49785 0.96961 0.9373 0.0
H148 H 0.40187 0.97165 0.90626 0.0
C149 C 0.50809 -0.00943 0.00641 0.0
C150 C 0.47958 0.00386 0.03922 0.0
H151 H 0.51933 0.95825 0.91344 0.0
H152 H 0.53795 -0.00384 0.03408 0.0
C153 C 0.44155 -0.00313 0.0016 0.0
C154 C 0.45856 0.42991 0.51228 0.0
C155 C 0.49489 0.46616 0.47811 0.0
H156 H 0.41419 0.41071 0.60032 0.0
C157 C 0.51889 0.51036 0.51298 0.0
H158 H 0.4397 0.39534 0.48711 0.0
C159 C 0.50462 0.5189 0.5787 0.0
C160 C 0.46591 0.48344 0.60947 0.0
H161 H 0.54726 0.53882 0.48801 0.0
H162 H 0.52188 0.55385 0.60269 0.0
C163 C 0.444 0.43859 0.57713 0.0
C164 C 0.92694 0.43647 0.8639 0.0
C165 C 0.94893 0.4812 0.83784 0.0
H166 H 0.88836 0.39313 0.94734 0.0
C167 C 0.94479 0.51639 0.87375 0.0
H168 H 0.92945 0.40871 0.83682 0.0
C169 C 0.92173 0.50769 0.93791 0.0
C170 C 0.90212 0.46356 0.96625 0.0
H171 H -0.03837 0.55125 0.85473 0.0
H172 H 0.92089 0.53592 0.96666 0.0
C173 C 0.90349 0.42763 0.92724 0.0
C174 C 0.4202 -0.00536 0.44616 0.0
C175 C 0.4622 0.00857 0.41611 0.0
H176 H 0.37268 0.95442 0.52507 0.0
C177 C 0.48829 -0.0088 0.44239 0.0
H178 H 0.39929 0.00733 0.42666 0.0
C179 C 0.47288 0.96061 0.49749 0.0
C180 C 0.43117 0.94696 0.52823 0.0
H181 H 0.52064 0.00095 0.42003 0.0
H182 H 0.49407 0.94817 0.51661 0.0
C183 C 0.40489 0.96423 0.50213 0.0
C184 C 0.39275 0.44855 0.0065 0.0
C185 C 0.41514 0.49328 -0.02006 0.0
H186 H 0.39113 0.40506 0.08827 0.0
C187 C 0.45006 0.53005 0.02094 0.0
H188 H 0.36553 0.41965 -0.02383 0.0
C189 C 0.46479 0.52165 0.08431 0.0
C190 C 0.44448 0.47651 0.10845 0.0
H191 H 0.46768 0.56501 0.00232 0.0
H192 H 0.49346 0.55016 0.11282 0.0
C193 C 0.40718 0.44026 0.07075 0.0
C194 C -0.01097 0.45103 0.43112 0.0
C195 C 0.00723 0.49473 0.46721 0.0
H196 H 0.94976 0.4074 0.34123 0.0
C197 C 0.00427 0.53011 0.4352 0.0
H198 H -0.00884 0.42325 0.45443 0.0
C199 C -0.01958 0.52094 0.37118 0.0
C200 C -0.0403 0.47647 0.33751 0.0
H201 H 0.01831 0.56427 0.46138 0.0
H202 H -0.02349 0.5481 0.34959 0.0
C203 C -0.03438 0.44203 0.36627 0.0
loop_
_geom_bond_atom_site_label_1
_geom_bond_atom_site_label_2
_geom_bond_distance
_geom_bond_site_symmetry_2
_ccdc_geom_bond_type
C0 O1 1.306 . S
C0 O3 1.160 . S
O1 C0 1.306 . S
O1 Cd2 2.228 . S
Cd2 O1 2.228 . S
Cd2 O6 2.273 . S
Cd2 O10 2.277 . S
O3 C0 1.160 . S
O3 Cd4 2.203 . S
Cd4 O3 2.203 . S
Cd4 O6 2.411 . S
Cd4 O7 2.333 . S
Cd4 O8 2.352 . S
Cd4 O12 2.277 . S
Cd4 O13 2.356 . S
C5 O10 1.209 . S
C5 O12 1.226 . S
O6 Cd2 2.273 . S
O6 Cd4 2.411 . S
O6 C9 1.320 . S
O7 Cd4 2.333 . S
O7 C9 1.214 . S
O8 Cd4 2.352 . S
O8 C11 1.258 . S
C9 O6 1.320 . S
C9 O7 1.214 . S
O10 Cd2 2.277 . S
O10 C5 1.209 . S
C11 O8 1.258 . S
C11 O13 1.282 . S
O12 Cd4 2.277 . S
O12 C5 1.226 . S
O13 Cd4 2.356 . S
O13 C11 1.282 . S
C14 O15 1.306 . S
C14 O17 1.160 . S
O15 C14 1.306 . S
O15 Cd16 2.228 . S
Cd16 O15 2.228 . S
Cd16 O20 2.273 . S
Cd16 O24 2.277 . S
O17 C14 1.160 . S
O17 Cd18 2.203 . S
Cd18 O17 2.203 . S
Cd18 O20 2.411 . S
Cd18 O21 2.333 . S
Cd18 O22 2.352 . S
Cd18 O26 2.277 . S
Cd18 O27 2.356 . S
C19 O24 1.209 . S
C19 O26 1.226 . S
O20 Cd16 2.273 . S
O20 Cd18 2.411 . S
O20 C23 1.320 . S
O21 Cd18 2.333 . S
O21 C23 1.214 . S
O22 Cd18 2.352 . S
O22 C25 1.258 . S
C23 O20 1.320 . S
C23 O21 1.214 . S
O24 Cd16 2.277 . S
O24 C19 1.209 . S
C25 O22 1.258 . S
C25 O27 1.282 . S
O26 Cd18 2.277 . S
O26 C19 1.226 . S
O27 Cd18 2.356 . S
O27 C25 1.282 . S
C28 O29 1.306 . S
C28 O31 1.160 . S
O29 C28 1.306 . S
O29 Cd30 2.228 . S
Cd30 O29 2.228 . S
Cd30 O34 2.273 . S
Cd30 O38 2.277 . S
O31 C28 1.160 . S
O31 Cd32 2.203 . S
Cd32 O31 2.203 . S
Cd32 O34 2.411 . S
Cd32 O35 2.333 . S
Cd32 O36 2.352 . S
Cd32 O40 2.277 . S
Cd32 O41 2.356 . S
C33 O38 1.209 . S
C33 O40 1.226 . S
O34 Cd30 2.273 . S
O34 Cd32 2.411 . S
O34 C37 1.320 . S
O35 Cd32 2.333 . S
O35 C37 1.214 . S
O36 Cd32 2.352 . S
O36 C39 1.258 . S
C37 O34 1.320 . S
C37 O35 1.214 . S
O38 Cd30 2.277 . S
O38 C33 1.209 . S
C39 O36 1.258 . S
C39 O41 1.282 . S
O40 Cd32 2.277 . S
O40 C33 1.226 . S
O41 Cd32 2.356 . S
O41 C39 1.282 . S
C42 O43 1.306 . S
C42 O45 1.160 . S
O43 C42 1.306 . S
O43 Cd44 2.228 . S
Cd44 O43 2.228 . S
Cd44 O48 2.273 . S
Cd44 O52 2.277 . S
O45 C42 1.160 . S
O45 Cd46 2.203 . S
Cd46 O45 2.203 . S
Cd46 O48 2.411 . S
Cd46 O49 2.333 . S
Cd46 O50 2.352 . S
Cd46 O54 2.277 . S
Cd46 O55 2.356 . S
C47 O52 1.209 . S
C47 O54 1.226 . S
O48 Cd44 2.273 . S
O48 Cd46 2.411 . S
O48 C51 1.320 . S
O49 Cd46 2.333 . S
O49 C51 1.214 . S
O50 Cd46 2.352 . S
O50 C53 1.258 . S
C51 O48 1.320 . S
C51 O49 1.214 . S
O52 Cd44 2.277 . S
O52 C47 1.209 . S
C53 O50 1.258 . S
C53 O55 1.282 . S
O54 Cd46 2.277 . S
O54 C47 1.226 . S
O55 Cd46 2.356 . S
O55 C53 1.282 . S
C56 O57 1.306 . S
C56 O59 1.160 . S
O57 C56 1.306 . S
O57 Cd58 2.228 . S
Cd58 O57 2.228 . S
Cd58 O62 2.273 . S
Cd58 O66 2.277 . S
O59 C56 1.160 . S
O59 Cd60 2.203 . S
Cd60 O59 2.203 . S
Cd60 O62 2.411 . S
Cd60 O63 2.333 . S
Cd60 O64 2.352 . S
Cd60 O68 2.277 . S
Cd60 O69 2.356 . S
C61 O66 1.209 . S
C61 O68 1.226 . S
O62 Cd58 2.273 . S
O62 Cd60 2.411 . S
O62 C65 1.320 . S
O63 Cd60 2.333 . S
O63 C65 1.214 . S
O64 Cd60 2.352 . S
O64 C67 1.258 . S
C65 O62 1.320 . S
C65 O63 1.214 . S
O66 Cd58 2.277 . S
O66 C61 1.209 . S
C67 O64 1.258 . S
C67 O69 1.282 . S
O68 Cd60 2.277 . S
O68 C61 1.226 . S
O69 Cd60 2.356 . S
O69 C67 1.282 . S
C70 O71 1.306 . S
C70 O73 1.160 . S
O71 C70 1.306 . S
O71 Cd72 2.228 . S
Cd72 O71 2.228 . S
Cd72 O76 2.273 . S
Cd72 O80 2.277 . S
O73 C70 1.160 . S
O73 Cd74 2.203 . S
Cd74 O73 2.203 . S
Cd74 O76 2.411 . S
Cd74 O77 2.333 . S
Cd74 O78 2.352 . S
Cd74 O82 2.277 . S
Cd74 O83 2.356 . S
C75 O80 1.209 . S
C75 O82 1.226 . S
O76 Cd72 2.273 . S
O76 Cd74 2.411 . S
O76 C79 1.320 . S
O77 Cd74 2.333 . S
O77 C79 1.214 . S
O78 Cd74 2.352 . S
O78 C81 1.258 . S
C79 O76 1.320 . S
C79 O77 1.214 . S
O80 Cd72 2.277 . S
O80 C75 1.209 . S
C81 O78 1.258 . S
C81 O83 1.282 . S
O82 Cd74 2.277 . S
O82 C75 1.226 . S
O83 Cd74 2.356 . S
O83 C81 1.282 . S
C84 C85 1.387 . S
C84 H88 0.950 . S
C84 C93 1.390 . S
C85 C84 1.387 . S
C85 C87 1.387 . S
H86 C93 0.950 . S
C87 C85 1.387 . S
C87 C89 1.390 . S
C87 H91 0.950 . S
H88 C84 0.950 . S
C89 C87 1.390 . S
C89 C90 1.387 . S
C89 H92 0.950 . S
C90 C89 1.387 . S
C90 C93 1.387 . S
H91 C87 0.950 . S
H92 C89 0.950 . S
C93 C84 1.390 . S
C93 H86 0.950 . S
C93 C90 1.387 . S
C94 C95 1.387 . S
C94 H98 0.950 . S
C94 C103 1.390 . S
C95 C94 1.387 . S
C95 C97 1.387 . S
H96 C103 0.950 . S
C97 C95 1.387 . S
C97 C99 1.390 . S
C97 H101 0.950 . S
H98 C94 0.950 . S
C99 C97 1.390 . S
C99 C100 1.387 . S
C99 H102 0.950 . S
C100 C99 1.387 . S
C100 C103 1.387 . S
H101 C97 0.950 . S
H102 C99 0.950 . S
C103 C94 1.390 . S
C103 H96 0.950 . S
C103 C100 1.387 . S
C104 C105 1.387 . S
C104 H108 0.950 . S
C104 C113 1.390 . S
C105 C104 1.387 . S
C105 C107 1.387 . S
H106 C113 0.950 . S
C107 C105 1.387 . S
C107 C109 1.390 . S
C107 H111 0.950 . S
H108 C104 0.950 . S
C109 C107 1.390 . S
C109 C110 1.387 . S
C109 H112 0.950 . S
C110 C109 1.387 . S
C110 C113 1.387 . S
H111 C107 0.950 . S
H112 C109 0.950 . S
C113 C104 1.390 . S
C113 H106 0.950 . S
C113 C110 1.387 . S
C114 C115 1.387 . S
C114 H118 0.950 . S
C114 C123 1.390 . S
C115 C114 1.387 . S
C115 C117 1.387 . S
H116 C123 0.950 . S
C117 C115 1.387 . S
C117 C119 1.390 . S
C117 H121 0.950 . S
H118 C114 0.950 . S
C119 C117 1.390 . S
C119 C120 1.387 . S
C119 H122 0.950 . S
C120 C119 1.387 . S
C120 C123 1.387 . S
H121 C117 0.950 . S
H122 C119 0.950 . S
C123 C114 1.390 . S
C123 H116 0.950 . S
C123 C120 1.387 . S
C124 C125 1.387 . S
C124 H128 0.950 . S
C124 C133 1.390 . S
C125 C124 1.387 . S
C125 C127 1.387 . S
H126 C133 0.950 . S
C127 C125 1.387 . S
C127 C129 1.390 . S
C127 H131 0.950 . S
H128 C124 0.950 . S
C129 C127 1.390 . S
C129 C130 1.387 . S
C129 H132 0.950 . S
C130 C129 1.387 . S
C130 C133 1.387 . S
H131 C127 0.950 . S
H132 C129 0.950 . S
C133 C124 1.390 . S
C133 H126 0.950 . S
C133 C130 1.387 . S
C134 C135 1.387 . S
C134 H138 0.950 . S
C134 C143 1.390 . S
C135 C134 1.387 . S
C135 C137 1.387 . S
H136 C143 0.950 . S
C137 C135 1.387 . S
C137 C139 1.390 . S
C137 H141 0.950 . S
H138 C134 0.950 . S
C139 C137 1.390 . S
C139 C140 1.387 . S
C139 H142 0.950 . S
C140 C139 1.387 . S
C140 C143 1.387 . S
H141 C137 0.950 . S
H142 C139 0.950 . S
C143 C134 1.390 . S
C143 H136 0.950 . S
C143 C140 1.387 . S
C144 C145 1.387 . S
C144 H148 0.950 . S
C144 C153 1.390 1_566 S
C145 C144 1.387 . S
C145 C147 1.387 . S
H146 C153 0.950 . S
C147 C145 1.387 . S
C147 C149 1.390 1_566 S
C147 H151 0.950 . S
H148 C144 0.950 . S
C149 C147 1.390 1_544 S
C149 C150 1.387 . S
C149 H152 0.950 . S
C150 C149 1.387 . S
C150 C153 1.387 . S
H151 C147 0.950 . S
H152 C149 0.950 . S
C153 C144 1.390 1_544 S
C153 H146 0.950 . S
C153 C150 1.387 . S
C154 C155 1.387 . S
C154 H158 0.950 . S
C154 C163 1.390 . S
C155 C154 1.387 . S
C155 C157 1.387 . S
H156 C163 0.950 . S
C157 C155 1.387 . S
C157 C159 1.390 . S
C157 H161 0.950 . S
H158 C154 0.950 . S
C159 C157 1.390 . S
C159 C160 1.387 . S
C159 H162 0.950 . S
C160 C159 1.387 . S
C160 C163 1.387 . S
H161 C157 0.950 . S
H162 C159 0.950 . S
C163 C154 1.390 . S
C163 H156 0.950 . S
C163 C160 1.387 . S
C164 C165 1.387 1_655 S
C164 H168 0.950 . S
C164 C173 1.390 . S
C165 C164 1.387 1_455 S
C165 C167 1.387 . S
H166 C173 0.950 . S
C167 C165 1.387 . S
C167 C169 1.390 1_556 S
C167 H171 0.950 . S
H168 C164 0.950 . S
C169 C167 1.390 1_554 S
C169 C170 1.387 1_455 S
C169 H172 0.950 . S
C170 C169 1.387 1_655 S
C170 C173 1.387 1_554 S
H171 C167 0.950 . S
H172 C169 0.950 . S
C173 C164 1.390 . S
C173 H166 0.950 . S
C173 C170 1.387 1_556 S
C174 C175 1.387 . S
C174 H178 0.950 . S
C174 C183 1.390 1_545 S
C175 C174 1.387 . S
C175 C177 1.387 . S
H176 C183 0.950 . S
C177 C175 1.387 . S
C177 C179 1.390 1_545 S
C177 H181 0.950 . S
H178 C174 0.950 . S
C179 C177 1.390 1_565 S
C179 C180 1.387 . S
C179 H182 0.950 . S
C180 C179 1.387 . S
C180 C183 1.387 . S
H181 C177 0.950 . S
H182 C179 0.950 . S
C183 C174 1.390 1_565 S
C183 H176 0.950 . S
C183 C180 1.387 . S
C184 C185 1.387 . S
C184 H188 0.950 . S
C184 C193 1.390 1_556 S
C185 C184 1.387 . S
C185 C187 1.387 1_556 S
H186 C193 0.950 . S
C187 C185 1.387 1_554 S
C187 C189 1.390 . S
C187 H191 0.950 . S
H188 C184 0.950 . S
C189 C187 1.390 . S
C189 C190 1.387 . S
C189 H192 0.950 . S
C190 C189 1.387 . S
C190 C193 1.387 . S
H191 C187 0.950 . S
H192 C189 0.950 . S
C193 C184 1.390 1_554 S
C193 H186 0.950 . S
C193 C190 1.387 . S
C194 C195 1.387 1_655 S
C194 H198 0.950 . S
C194 C203 1.390 . S
C195 C194 1.387 1_455 S
C195 C197 1.387 . S
H196 C203 0.950 . S
C197 C195 1.387 . S
C197 C199 1.390 1_455 S
C197 H201 0.950 . S
H198 C194 0.950 . S
C199 C197 1.390 1_655 S
C199 C200 1.387 . S
C199 H202 0.950 . S
C200 C199 1.387 . S
C200 C203 1.387 . S
H201 C197 0.950 . S
H202 C199 0.950 . S
C203 C194 1.390 . S
C203 H196 0.950 . S
C203 C200 1.387 . S
C85 C0 1.229 . S
C90 C61 1.268 . S
C95 C14 1.243 . S
C100 C70 1.245 . S
C105 C5 1.266 . S
C110 C33 1.273 . S
C115 C47 1.262 . S
C120 C19 1.273 . S
C125 C56 1.245 . S
C130 C28 1.243 . S
C135 C42 1.232 . S
C140 C75 1.266 . S
C145 C51 1.414 . S
C150 C9 1.414 . S
C155 C67 1.437 . S
C160 C23 1.460 . S
C165 C79 1.443 . S
C170 C39 1.428 . S
C175 C11 1.438 . S
C180 C53 1.438 . S
C185 C25 1.429 . S
C190 C65 1.443 . S
C195 C81 1.436 . S
C200 C37 1.460 . S
