# Generated by pormake.
# Topology pcu, (6)-cn, num edge types: 1
# Building blocks:
#     Node 0, Type 0, BuildingBlock: HISSIN_clean_sbu_0, # of connection points: 6
#     Edge 1, Type (0, 0), BuildingBlock: EZIPEK_clean_linker_0, # of connection points: 2
#     Edge 2, Type (0, 0), BuildingBlock: EZIPEK_clean_linker_0, # of connection points: 2
#     Edge 3, Type (0, 0), BuildingBlock: EZIPEK_clean_linker_0, # of connection points: 2
# Relax obj value: 0.000
# Max RMSD: 0.000
# Mean RMSD: 0.000
data_MOF--net-pcu--node1-HISSIN_clean_sbu_0--edge1-EZIPEK_clean_linker_0
_symmetry_space_group_name_H-M    P1
_symmetry_Int_Tables_number       1
_symmetry_cell_setting            triclinic
loop_
_symmetry_equiv_pos_as_xyz
'x, y, z'
_cell_length_a     11.25018
_cell_length_b     21.212461
_cell_length_c     11.342835
_cell_angle_alpha  120.5415
_cell_angle_beta   92.446536
_cell_angle_gamma 96.663074
loop_
_atom_site_label
_atom_site_type_symbol
_atom_site_fract_x
_atom_site_fract_y
_atom_site_fract_z
_atom_type_partial_charge
Eu0 Eu 0.96828 0.94044 0.88802 0.0
Eu1 Eu 0.01196 0.12946 0.06263 0.0
C2 C 0.23426 0.03638 -0.01149 0.0
C3 C 0.95082 0.73995 0.79519 0.0
C4 C 0.05516 0.74747 0.87713 0.0
C5 C 0.86751 0.62979 0.79829 0.0
C6 C 0.0655 0.69642 0.91892 0.0
C7 C 0.85756 0.68044 0.75546 0.0
C8 C 0.97122 0.63775 0.88089 0.0
C9 C 0.93498 0.79545 0.7564 0.0
O10 O -0.00523 0.10033 0.84345 0.0
O11 O 0.97216 0.9717 0.72473 0.0
C12 C 0.98292 0.03547 0.72956 0.0
O13 O 0.78806 0.97495 0.9463 0.0
O14 O 0.13021 0.23523 0.14042 0.0
O15 O 0.94801 0.23421 0.19361 0.0
O16 O 0.81538 0.09276 -0.01893 0.0
C17 C 0.74598 1.03352 0.96214 0.0
O18 O 0.98544 0.96957 0.10721 0.0
O19 O 0.00808 0.0982 0.22592 0.0
O20 O 0.19217 0.09495 0.00433 0.0
O21 O 0.85004 0.83467 0.81023 0.0
O22 O 0.03224 0.83569 0.75704 0.0
O23 O 0.16485 0.97715 0.9696 0.0
C24 C 0.02942 0.32995 0.15546 0.0
C25 C 0.9251 0.32241 0.07346 0.0
C26 C 0.1127 0.44013 0.1524 0.0
C27 C 0.91476 0.37345 0.03167 0.0
C28 C 0.12265 0.38947 0.19524 0.0
C29 C 0.00902 0.43215 0.06975 0.0
C30 C 0.04526 0.27445 0.19424 0.0
C31 C -0.00269 1.03443 0.22109 0.0
H32 H 0.12802 0.79323 0.91039 0.0
H33 H 0.79406 0.58472 0.768 0.0
H34 H 0.14614 0.70324 -0.01735 0.0
H35 H 0.77619 0.67384 0.69296 0.0
H36 H 0.85227 0.27663 0.04017 0.0
H37 H 0.18614 0.48521 0.18273 0.0
H38 H 0.83414 0.36661 0.9679 0.0
H39 H 0.20401 0.39609 0.25778 0.0
C40 C 0.88048 1.02326 0.39376 0.0
C41 C -0.0061 0.03511 0.35166 0.0
C42 C 0.09973 0.04663 0.55688 0.0
C43 C 0.98632 1.03479 0.59899 0.0
N44 N 0.76962 1.0088 0.56052 0.0
N45 N 0.21059 0.06118 0.39021 0.0
C46 C 0.87674 1.02232 0.51819 0.0
C47 C 0.10347 0.0476 0.43248 0.0
N48 N 0.77683 1.01501 0.31604 0.0
N49 N 0.20339 0.05483 0.63453 0.0
H50 H 0.21605 0.05876 0.29652 0.0
H51 H 0.29431 0.07697 0.44796 0.0
H52 H 0.20369 0.05601 0.72755 0.0
H53 H 0.28956 0.05784 0.60632 0.0
H54 H 0.69063 1.0119 0.34415 0.0
H55 H 0.77654 1.01382 0.22302 0.0
H56 H 0.68587 0.99309 0.50287 0.0
H57 H 0.76417 1.01123 0.65423 0.0
C58 C 0.4065 0.98454 0.85685 0.0
C59 C 0.36522 0.03526 -0.01739 0.0
C60 C 0.57373 0.08536 0.0938 0.0
C61 C 0.61502 1.03463 0.96804 0.0
N62 N 0.5738 0.93006 0.73499 0.0
N63 N 0.40644 0.13984 0.21565 0.0
C64 C 0.53219 0.98247 0.85103 0.0
C65 C 0.44804 0.08743 0.09962 0.0
N66 N 0.32589 0.94181 0.74055 0.0
N67 N 0.65434 0.12808 0.2101 0.0
H68 H 0.31519 0.14056 0.2276 0.0
H69 H 0.46137 0.18543 0.29783 0.0
H70 H 0.74699 0.12792 0.21105 0.0
H71 H 0.62992 0.15963 0.30865 0.0
H72 H 0.35031 0.91025 0.64201 0.0
H73 H 0.23323 0.94196 0.7396 0.0
H74 H 0.51888 0.88448 0.65281 0.0
H75 H 0.66505 0.92935 0.72303 0.0
C76 C 0.01581 0.51524 0.83968 0.0
C77 C 0.9804 0.58487 0.9291 0.0
C78 C 0.96441 0.55465 0.11095 0.0
C79 C -0.00017 0.48502 0.02153 0.0
N80 N 0.0499 0.39494 0.799 0.0
N81 N 0.9304 0.67497 0.15165 0.0
C82 C 0.02309 0.46421 0.88526 0.0
C83 C 0.95716 0.60568 0.06537 0.0
N84 N 0.04721 0.49954 0.71332 0.0
N85 N 0.93297 0.57034 0.23729 0.0
H86 H 0.91811 0.71226 0.11978 0.0
H87 H 0.92539 0.69759 0.25653 0.0
H88 H 0.93824 0.53457 0.27432 0.0
H89 H 0.89542 0.6166 0.30358 0.0
H90 H 0.08471 0.45327 0.64699 0.0
H91 H 0.04192 0.5353 0.67628 0.0
H92 H 0.05496 0.37232 0.69414 0.0
H93 H 0.06221 0.35765 0.8309 0.0
loop_
_geom_bond_atom_site_label_1
_geom_bond_atom_site_label_2
_geom_bond_distance
_geom_bond_site_symmetry_2
_ccdc_geom_bond_type
Eu0 C9 2.828 . S
Eu0 O11 2.392 . S
Eu0 O13 2.418 . S
Eu0 O18 2.373 1_556 S
Eu0 O21 2.488 . S
Eu0 O22 2.471 1_655 S
Eu0 O23 2.349 1_655 S
Eu1 O10 2.373 1_554 S
Eu1 O14 2.488 . S
Eu1 O15 2.471 1_455 S
Eu1 O16 2.349 1_455 S
Eu1 O19 2.392 . S
Eu1 O20 2.418 . S
Eu1 C30 2.828 . S
C2 O20 1.244 . S
C2 O23 1.265 1_544 S
C3 C4 1.379 1_656 S
C3 C7 1.373 . S
C3 C9 1.505 . S
C4 C3 1.379 1_454 S
C4 C6 1.369 . S
C4 H32 0.930 . S
C5 C7 1.383 . S
C5 C8 1.382 . S
C5 H33 0.930 . S
C6 C4 1.369 . S
C6 C8 1.392 1_454 S
C6 H34 0.930 . S
C7 C3 1.373 . S
C7 C5 1.383 . S
C7 H35 0.931 . S
C8 C5 1.382 . S
C8 C6 1.392 1_656 S
C9 Eu0 2.828 . S
C9 C3 1.505 . S
C9 O21 1.249 . S
C9 O22 1.244 1_655 S
O10 Eu1 2.373 1_556 S
O10 C12 1.258 1_545 S
O11 Eu0 2.392 . S
O11 C12 1.242 1_655 S
C12 O10 1.258 1_565 S
C12 O11 1.242 1_455 S
O13 Eu0 2.418 . S
O13 C17 1.244 . S
O14 Eu1 2.488 . S
O14 C30 1.249 . S
O15 Eu1 2.471 1_655 S
O15 C30 1.244 1_655 S
O16 Eu1 2.349 1_655 S
O16 C17 1.265 1_544 S
C17 O13 1.244 . S
C17 O16 1.265 1_566 S
O18 Eu0 2.373 1_554 S
O18 C31 1.258 1_665 S
O19 Eu1 2.392 . S
O19 C31 1.242 . S
O20 Eu1 2.418 . S
O20 C2 1.244 . S
O21 Eu0 2.488 . S
O21 C9 1.249 . S
O22 Eu0 2.471 1_455 S
O22 C9 1.244 1_455 S
O23 Eu0 2.349 1_455 S
O23 C2 1.265 1_566 S
C24 C25 1.379 1_454 S
C24 C28 1.373 . S
C24 C30 1.505 . S
C25 C24 1.379 1_656 S
C25 C27 1.369 . S
C25 H36 0.930 . S
C26 C28 1.383 . S
C26 C29 1.382 . S
C26 H37 0.930 . S
C27 C25 1.369 . S
C27 C29 1.392 1_656 S
C27 H38 0.930 . S
C28 C24 1.373 . S
C28 C26 1.383 . S
C28 H39 0.931 . S
C29 C26 1.382 . S
C29 C27 1.392 1_454 S
C30 Eu1 2.828 . S
C30 O14 1.249 . S
C30 O15 1.244 1_455 S
C30 C24 1.505 . S
C31 O18 1.258 1_445 S
C31 O19 1.242 . S
H32 C4 0.930 . S
H33 C5 0.930 . S
H34 C6 0.930 . S
H35 C7 0.931 . S
H36 C25 0.930 . S
H37 C26 0.930 . S
H38 C27 0.930 . S
H39 C28 0.931 . S
C40 C41 1.363 1_665 S
C40 C46 1.379 . S
C40 N48 1.356 . S
C41 C40 1.363 1_445 S
C41 C47 1.363 . S
C42 C43 1.363 . S
C42 C47 1.379 . S
C42 N49 1.356 . S
C43 C42 1.363 . S
C43 C46 1.363 1_445 S
N44 C46 1.356 . S
N44 H56 0.984 . S
N44 H57 0.985 . S
N45 C47 1.356 . S
N45 H50 0.984 . S
N45 H51 0.985 . S
C46 C40 1.379 . S
C46 C43 1.363 1_665 S
C46 N44 1.356 . S
C47 C41 1.363 . S
C47 C42 1.379 . S
C47 N45 1.356 . S
N48 C40 1.356 . S
N48 H54 0.984 . S
N48 H55 0.984 . S
N49 C42 1.356 . S
N49 H52 0.984 . S
N49 H53 0.985 . S
H50 N45 0.984 . S
H51 N45 0.985 . S
H52 N49 0.984 . S
H53 N49 0.985 . S
H54 N48 0.984 . S
H55 N48 0.984 . S
H56 N44 0.984 . S
H57 N44 0.985 . S
C58 C59 1.363 1_566 S
C58 C64 1.379 . S
C58 N66 1.356 . S
C59 C58 1.363 1_544 S
C59 C65 1.363 . S
C60 C61 1.363 . S
C60 C65 1.379 . S
C60 N67 1.356 . S
C61 C60 1.363 . S
C61 C64 1.363 1_544 S
N62 C64 1.356 . S
N62 H74 0.984 . S
N62 H75 0.985 . S
N63 C65 1.356 . S
N63 H68 0.984 . S
N63 H69 0.985 . S
C64 C58 1.379 . S
C64 C61 1.363 1_566 S
C64 N62 1.356 . S
C65 C59 1.363 . S
C65 C60 1.379 . S
C65 N63 1.356 . S
N66 C58 1.356 . S
N66 H72 0.984 . S
N66 H73 0.984 . S
N67 C60 1.356 . S
N67 H70 0.984 . S
N67 H71 0.985 . S
H68 N63 0.984 . S
H69 N63 0.985 . S
H70 N67 0.984 . S
H71 N67 0.985 . S
H72 N66 0.984 . S
H73 N66 0.984 . S
H74 N62 0.984 . S
H75 N62 0.985 . S
C76 C77 1.363 1_556 S
C76 C82 1.379 . S
C76 N84 1.356 . S
C77 C76 1.363 1_554 S
C77 C83 1.363 1_455 S
C78 C79 1.363 1_655 S
C78 C83 1.379 . S
C78 N85 1.356 . S
C79 C78 1.363 1_455 S
C79 C82 1.363 1_554 S
N80 C82 1.356 . S
N80 H92 0.984 . S
N80 H93 0.985 . S
N81 C83 1.356 . S
N81 H86 0.984 . S
N81 H87 0.985 . S
C82 C76 1.379 . S
C82 C79 1.363 1_556 S
C82 N80 1.356 . S
C83 C77 1.363 1_655 S
C83 C78 1.379 . S
C83 N81 1.356 . S
N84 C76 1.356 . S
N84 H90 0.984 . S
N84 H91 0.984 . S
N85 C78 1.356 . S
N85 H88 0.984 . S
N85 H89 0.985 . S
H86 N81 0.984 . S
H87 N81 0.985 . S
H88 N85 0.984 . S
H89 N85 0.985 . S
H90 N84 0.984 . S
H91 N84 0.984 . S
H92 N80 0.984 . S
H93 N80 0.985 . S
C41 C31 1.500 . S
C43 C12 1.500 1_545 S
C59 C2 1.466 . S
C61 C17 1.466 1_544 S
C77 C8 1.493 1_454 S
C79 C29 1.493 . S
