# Generated by pormake.
# Topology mok, (4)-cn, num edge types: 1
# Building blocks:
#     Node 0, Type 0, BuildingBlock: AZAVOO_clean_sbu_0, # of connection points: 4
#     Node 1, Type 0, BuildingBlock: AZAVOO_clean_sbu_0, # of connection points: 4
#     Node 2, Type 0, BuildingBlock: AZAVOO_clean_sbu_0, # of connection points: 4
#     Node 3, Type 0, BuildingBlock: AZAVOO_clean_sbu_0, # of connection points: 4
#     Node 4, Type 0, BuildingBlock: AZAVOO_clean_sbu_0, # of connection points: 4
#     Node 5, Type 0, BuildingBlock: AZAVOO_clean_sbu_0, # of connection points: 4
#     Node 6, Type 0, BuildingBlock: AZAVOO_clean_sbu_0, # of connection points: 4
#     Node 7, Type 0, BuildingBlock: AZAVOO_clean_sbu_0, # of connection points: 4
#     Edge 8, Type (0, 0), None
#     Edge 9, Type (0, 0), None
#     Edge 10, Type (0, 0), None
#     Edge 11, Type (0, 0), None
#     Edge 12, Type (0, 0), None
#     Edge 13, Type (0, 0), None
#     Edge 14, Type (0, 0), None
#     Edge 15, Type (0, 0), None
#     Edge 16, Type (0, 0), None
#     Edge 17, Type (0, 0), None
#     Edge 18, Type (0, 0), None
#     Edge 19, Type (0, 0), None
#     Edge 20, Type (0, 0), None
#     Edge 21, Type (0, 0), None
#     Edge 22, Type (0, 0), None
#     Edge 23, Type (0, 0), None
# Relax obj value: 0.029
# Max RMSD: 0.045
# Mean RMSD: 0.045
data_MOF--net-mok--node1-AZAVOO_clean_sbu_0--edge1-none
_symmetry_space_group_name_H-M    P1
_symmetry_Int_Tables_number       1
_symmetry_cell_setting            triclinic
loop_
_symmetry_equiv_pos_as_xyz
'x, y, z'
_cell_length_a     20.077376
_cell_length_b     10.736994
_cell_length_c     12.289179
_cell_angle_alpha  89.999429
_cell_angle_beta   89.999927
_cell_angle_gamma 89.999079
loop_
_atom_site_label
_atom_site_type_symbol
_atom_site_fract_x
_atom_site_fract_y
_atom_site_fract_z
_atom_type_partial_charge
Mg0 Mg 0.53551 0.29061 0.02191 0.0
O1 O 0.64786 0.23892 0.03927 0.0
O2 O 0.6549 0.17581 0.21274 0.0
Mg3 Mg 0.55639 0.1595 0.2999 0.0
C4 C 0.68175 0.2039 0.12198 0.0
C5 C 0.55239 0.44205 0.80741 0.0
O6 O 0.55046 0.53327 0.87845 0.0
O7 O 0.49785 0.08476 0.99036 0.0
O8 O 0.50959 0.04589 0.16568 0.0
O9 O 0.5564 0.47694 0.10505 0.0
O10 O 0.52793 0.3087 0.19395 0.0
C11 C 0.48929 0.01305 0.07215 0.0
C12 C 0.546 0.42238 0.19709 0.0
O13 O 0.54857 0.32977 0.84017 0.0
Mg14 Mg 0.40102 0.62166 0.02191 0.0
O15 O 0.28866 0.67333 0.03927 0.0
O16 O 0.28163 0.73643 0.21274 0.0
Mg17 Mg 0.38013 0.75275 0.29991 0.0
C18 C 0.25478 0.70834 0.12199 0.0
C19 C 0.38414 0.47022 0.80741 0.0
O20 O 0.38608 0.379 0.87845 0.0
O21 O 0.43867 0.82752 0.99036 0.0
O22 O 0.42693 0.86639 0.16569 0.0
O23 O 0.38014 0.43532 0.10505 0.0
O24 O 0.4086 0.60357 0.19395 0.0
C25 C 0.44722 0.89922 0.07216 0.0
C26 C 0.39053 0.48989 0.19709 0.0
O27 O 0.38796 0.58249 0.84017 0.0
Mg28 Mg 0.53552 0.62166 0.47612 0.0
O29 O 0.64787 0.67335 0.45875 0.0
O30 O 0.65489 0.73644 0.28528 0.0
Mg31 Mg 0.55638 0.75275 0.19812 0.0
C32 C 0.68175 0.70836 0.37604 0.0
C33 C 0.55239 0.47022 0.69062 0.0
O34 O 0.55044 0.379 0.61959 0.0
O35 O 0.49786 0.82751 0.50767 0.0
O36 O 0.50959 0.86637 0.33235 0.0
O37 O 0.55641 0.43532 0.39299 0.0
O38 O 0.52793 0.60356 0.30409 0.0
C39 C 0.48929 0.89922 0.42588 0.0
C40 C 0.54599 0.48988 0.30096 0.0
O41 O 0.54859 0.5825 0.65786 0.0
Mg42 Mg 0.40101 0.29061 0.47612 0.0
O43 O 0.28866 0.23893 0.45875 0.0
O44 O 0.28163 0.17585 0.28528 0.0
Mg45 Mg 0.38014 0.15953 0.19812 0.0
C46 C 0.25478 0.20393 0.37604 0.0
C47 C 0.38414 0.44204 0.69062 0.0
O48 O 0.3861 0.53327 0.61959 0.0
O49 O 0.43866 0.08475 0.50767 0.0
O50 O 0.42693 0.04589 0.33234 0.0
O51 O 0.38013 0.47695 0.39299 0.0
O52 O 0.4086 0.3087 0.30409 0.0
C53 C 0.44722 0.01305 0.42587 0.0
C54 C 0.39055 0.42239 0.30096 0.0
O55 O 0.38795 0.32977 0.65786 0.0
Mg56 Mg 0.03552 0.79061 0.02191 0.0
O57 O 0.14787 0.73891 0.03928 0.0
O58 O 0.15489 0.67577 0.21274 0.0
Mg59 Mg 0.05639 0.6595 0.29991 0.0
C60 C 0.18174 0.70384 0.12198 0.0
C61 C 0.0524 0.94205 0.80741 0.0
O62 O 0.05046 0.03327 0.87845 0.0
O63 O -0.00215 0.58476 0.99036 0.0
O64 O 0.00959 0.54589 0.16568 0.0
O65 O 0.05641 -0.02306 0.10505 0.0
O66 O 0.02794 0.8087 0.19395 0.0
C67 C -0.01071 0.51305 0.07215 0.0
C68 C 0.04601 0.92238 0.19709 0.0
O69 O 0.04858 0.82977 0.84017 0.0
Mg70 Mg 0.90101 0.12166 0.02191 0.0
O71 O 0.78866 0.17334 0.03928 0.0
O72 O 0.78163 0.23647 0.21274 0.0
Mg73 Mg 0.88013 0.25275 0.29991 0.0
C74 C 0.75478 0.20839 0.12198 0.0
C75 C 0.88414 -0.02978 0.80741 0.0
O76 O 0.88608 0.879 0.87845 0.0
O77 O 0.93867 0.32751 0.99036 0.0
O78 O 0.92693 0.36639 0.16569 0.0
O79 O 0.88013 0.93532 0.10505 0.0
O80 O 0.90859 0.10357 0.19394 0.0
C81 C 0.94723 0.39922 0.07216 0.0
C82 C 0.89053 -0.01012 0.19708 0.0
O83 O 0.88795 0.08249 0.84017 0.0
Mg84 Mg 0.03552 0.12166 0.47612 0.0
O85 O 0.14787 0.17336 0.45875 0.0
O86 O 0.15489 0.23648 0.28528 0.0
Mg87 Mg 0.05638 0.25275 0.19812 0.0
C88 C 0.18174 0.20842 0.37604 0.0
C89 C 0.05239 -0.02978 0.69062 0.0
O90 O 0.05044 0.879 0.61959 0.0
O91 O -0.00214 0.32751 0.50767 0.0
O92 O 0.00959 0.36637 0.33235 0.0
O93 O 0.05641 0.93532 0.39299 0.0
O94 O 0.02793 0.10356 0.30409 0.0
C95 C -0.01071 0.39922 0.42588 0.0
C96 C 0.04599 -0.01013 0.30096 0.0
O97 O 0.04859 0.0825 0.65786 0.0
Mg98 Mg 0.90101 0.79061 0.47612 0.0
O99 O 0.78866 0.73892 0.45875 0.0
O100 O 0.78163 0.67581 0.28527 0.0
Mg101 Mg 0.88014 0.65953 0.19812 0.0
C102 C 0.75478 0.70387 0.37604 0.0
C103 C 0.88414 0.94204 0.69062 0.0
O104 O 0.8861 0.03327 0.61959 0.0
O105 O 0.93866 0.58475 0.50767 0.0
O106 O 0.92693 0.54588 0.33234 0.0
O107 O 0.88013 -0.02305 0.39299 0.0
O108 O 0.9086 0.8087 0.30409 0.0
C109 C 0.94723 0.51305 0.42587 0.0
C110 C 0.89054 0.92239 0.30096 0.0
O111 O 0.88794 0.82977 0.65786 0.0
loop_
_geom_bond_atom_site_label_1
_geom_bond_atom_site_label_2
_geom_bond_distance
_geom_bond_site_symmetry_2
_ccdc_geom_bond_type
Mg0 O1 2.028 1_554 S
Mg0 O7 1.986 1_554 S
Mg0 O9 2.114 . S
Mg0 O10 2.251 . S
Mg0 O13 2.010 1_554 S
O1 Mg0 2.028 1_556 S
O1 C4 1.250 1_556 S
O2 Mg3 2.028 . S
O2 C4 1.248 . S
Mg3 O2 2.028 . S
Mg3 O8 2.032 . S
Mg3 O10 2.079 . S
C4 O1 1.250 1_554 S
C4 O2 1.248 . S
C5 O6 1.264 . S
C5 O13 1.249 . S
O6 C5 1.264 . S
O7 Mg0 1.986 1_556 S
O7 C11 1.246 1_556 S
O8 Mg3 2.032 . S
O8 C11 1.259 . S
O9 Mg0 2.114 . S
O9 C12 1.252 . S
O10 Mg0 2.251 . S
O10 Mg3 2.079 . S
O10 C12 1.273 . S
C11 O7 1.246 1_554 S
C11 O8 1.259 . S
C12 O9 1.252 . S
C12 O10 1.273 . S
O13 Mg0 2.010 1_556 S
O13 C5 1.249 . S
Mg14 O15 2.028 1_554 S
Mg14 O21 1.986 1_554 S
Mg14 O23 2.114 . S
Mg14 O24 2.251 . S
Mg14 O27 2.010 1_554 S
O15 Mg14 2.028 1_556 S
O15 C18 1.250 1_556 S
O16 Mg17 2.028 . S
O16 C18 1.248 . S
Mg17 O16 2.028 . S
Mg17 O22 2.032 . S
Mg17 O24 2.079 . S
C18 O15 1.250 1_554 S
C18 O16 1.248 . S
C19 O20 1.264 . S
C19 O27 1.249 . S
O20 C19 1.264 . S
O21 Mg14 1.986 1_556 S
O21 C25 1.246 1_556 S
O22 Mg17 2.032 . S
O22 C25 1.259 . S
O23 Mg14 2.114 . S
O23 C26 1.252 . S
O24 Mg14 2.251 . S
O24 Mg17 2.079 . S
O24 C26 1.273 . S
C25 O21 1.246 1_554 S
C25 O22 1.259 . S
C26 O23 1.252 . S
C26 O24 1.273 . S
O27 Mg14 2.010 1_556 S
O27 C19 1.249 . S
Mg28 O29 2.028 . S
Mg28 O35 1.986 . S
Mg28 O37 2.114 . S
Mg28 O38 2.251 . S
Mg28 O41 2.010 . S
O29 Mg28 2.028 . S
O29 C32 1.250 . S
O30 Mg31 2.028 . S
O30 C32 1.248 . S
Mg31 O30 2.028 . S
Mg31 O36 2.032 . S
Mg31 O38 2.079 . S
C32 O29 1.250 . S
C32 O30 1.248 . S
C33 O34 1.264 . S
C33 O41 1.249 . S
O34 C33 1.264 . S
O35 Mg28 1.986 . S
O35 C39 1.246 . S
O36 Mg31 2.032 . S
O36 C39 1.259 . S
O37 Mg28 2.114 . S
O37 C40 1.252 . S
O38 Mg28 2.251 . S
O38 Mg31 2.079 . S
O38 C40 1.273 . S
C39 O35 1.246 . S
C39 O36 1.259 . S
C40 O37 1.252 . S
C40 O38 1.273 . S
O41 Mg28 2.010 . S
O41 C33 1.249 . S
Mg42 O43 2.028 . S
Mg42 O49 1.986 . S
Mg42 O51 2.114 . S
Mg42 O52 2.251 . S
Mg42 O55 2.010 . S
O43 Mg42 2.028 . S
O43 C46 1.250 . S
O44 Mg45 2.028 . S
O44 C46 1.248 . S
Mg45 O44 2.028 . S
Mg45 O50 2.032 . S
Mg45 O52 2.079 . S
C46 O43 1.250 . S
C46 O44 1.248 . S
C47 O48 1.264 . S
C47 O55 1.249 . S
O48 C47 1.264 . S
O49 Mg42 1.986 . S
O49 C53 1.246 . S
O50 Mg45 2.032 . S
O50 C53 1.259 . S
O51 Mg42 2.114 . S
O51 C54 1.252 . S
O52 Mg42 2.251 . S
O52 Mg45 2.079 . S
O52 C54 1.273 . S
C53 O49 1.246 . S
C53 O50 1.259 . S
C54 O51 1.252 . S
C54 O52 1.273 . S
O55 Mg42 2.010 . S
O55 C47 1.249 . S
Mg56 O57 2.028 1_554 S
Mg56 O63 1.986 1_554 S
Mg56 O65 2.114 1_565 S
Mg56 O66 2.251 . S
Mg56 O69 2.010 1_554 S
O57 Mg56 2.028 1_556 S
O57 C60 1.250 1_556 S
O58 Mg59 2.028 . S
O58 C60 1.248 . S
Mg59 O58 2.028 . S
Mg59 O64 2.032 . S
Mg59 O66 2.079 . S
C60 O57 1.250 1_554 S
C60 O58 1.248 . S
C61 O62 1.264 1_455 S
C61 O69 1.249 1_545 S
O62 C61 1.264 1_655 S
O63 Mg56 1.986 1_556 S
O63 C67 1.246 1_556 S
O64 Mg59 2.032 . S
O64 C67 1.259 . S
O65 Mg56 2.114 1_545 S
O65 C68 1.252 1_545 S
O66 Mg56 2.251 . S
O66 Mg59 2.079 . S
O66 C68 1.273 . S
C67 O63 1.246 1_554 S
C67 O64 1.259 . S
C68 O65 1.252 1_565 S
C68 O66 1.273 . S
O69 Mg56 2.010 1_556 S
O69 C61 1.249 1_565 S
Mg70 O71 2.028 1_554 S
Mg70 O77 1.986 1_554 S
Mg70 O79 2.114 1_545 S
Mg70 O80 2.251 . S
Mg70 O83 2.010 1_554 S
O71 Mg70 2.028 1_556 S
O71 C74 1.250 1_556 S
O72 Mg73 2.028 . S
O72 C74 1.248 . S
Mg73 O72 2.028 . S
Mg73 O78 2.032 . S
Mg73 O80 2.079 . S
C74 O71 1.250 1_554 S
C74 O72 1.248 . S
C75 O76 1.264 1_655 S
C75 O83 1.249 1_565 S
O76 C75 1.264 1_455 S
O77 Mg70 1.986 1_556 S
O77 C81 1.246 1_556 S
O78 Mg73 2.032 . S
O78 C81 1.259 . S
O79 Mg70 2.114 1_565 S
O79 C82 1.252 1_565 S
O80 Mg70 2.251 . S
O80 Mg73 2.079 . S
O80 C82 1.273 . S
C81 O77 1.246 1_554 S
C81 O78 1.259 . S
C82 O79 1.252 1_545 S
C82 O80 1.273 . S
O83 Mg70 2.010 1_556 S
O83 C75 1.249 1_545 S
Mg84 O85 2.028 . S
Mg84 O91 1.986 . S
Mg84 O93 2.114 1_545 S
Mg84 O94 2.251 . S
Mg84 O97 2.010 . S
O85 Mg84 2.028 . S
O85 C88 1.250 . S
O86 Mg87 2.028 . S
O86 C88 1.248 . S
Mg87 O86 2.028 . S
Mg87 O92 2.032 . S
Mg87 O94 2.079 . S
C88 O85 1.250 . S
C88 O86 1.248 . S
C89 O90 1.264 1_455 S
C89 O97 1.249 1_565 S
O90 C89 1.264 1_655 S
O91 Mg84 1.986 . S
O91 C95 1.246 . S
O92 Mg87 2.032 . S
O92 C95 1.259 . S
O93 Mg84 2.114 1_565 S
O93 C96 1.252 1_565 S
O94 Mg84 2.251 . S
O94 Mg87 2.079 . S
O94 C96 1.273 . S
C95 O91 1.246 . S
C95 O92 1.259 . S
C96 O93 1.252 1_545 S
C96 O94 1.273 . S
O97 Mg84 2.010 . S
O97 C89 1.249 1_545 S
Mg98 O99 2.028 . S
Mg98 O105 1.986 . S
Mg98 O107 2.114 1_565 S
Mg98 O108 2.251 . S
Mg98 O111 2.010 . S
O99 Mg98 2.028 . S
O99 C102 1.250 . S
O100 Mg101 2.028 . S
O100 C102 1.248 . S
Mg101 O100 2.028 . S
Mg101 O106 2.032 . S
Mg101 O108 2.079 . S
C102 O99 1.250 . S
C102 O100 1.248 . S
C103 O104 1.264 1_655 S
C103 O111 1.249 1_545 S
O104 C103 1.264 1_455 S
O105 Mg98 1.986 . S
O105 C109 1.246 . S
O106 Mg101 2.032 . S
O106 C109 1.259 . S
O107 Mg98 2.114 1_545 S
O107 C110 1.252 1_545 S
O108 Mg98 2.251 . S
O108 Mg101 2.079 . S
O108 C110 1.273 . S
C109 O105 1.246 . S
C109 O106 1.259 . S
C110 O107 1.252 1_565 S
C110 O108 1.273 . S
O111 Mg98 2.010 . S
O111 C103 1.249 1_565 S
C74 C4 1.494 . S
C60 C18 1.494 . S
C102 C32 1.494 . S
C88 C46 1.494 . S
C12 C40 1.431 . S
C26 C54 1.431 . S
C19 C47 1.046 . S
C5 C33 1.046 . S
C68 C96 1.431 1_565 S
C110 C82 1.431 1_565 S
C103 C75 1.046 1_545 S
C61 C89 1.046 1_545 S
C25 C11 1.437 1_565 S
C39 C53 1.437 1_565 S
C67 C81 1.437 1_455 S
C95 C109 1.437 1_455 S
