# Generated by pormake.
# Topology kag, (6)-cn, num edge types: 1
# Building blocks:
#     Node 0, Type 0, BuildingBlock: LEVNOQ01_clean_sbu_1, # of connection points: 6
#     Node 1, Type 0, BuildingBlock: LEVNOQ01_clean_sbu_1, # of connection points: 6
#     Node 2, Type 0, BuildingBlock: LEVNOQ01_clean_sbu_1, # of connection points: 6
#     Edge 3, Type (0, 0), None
#     Edge 4, Type (0, 0), None
#     Edge 5, Type (0, 0), None
#     Edge 6, Type (0, 0), None
#     Edge 7, Type (0, 0), None
#     Edge 8, Type (0, 0), None
#     Edge 9, Type (0, 0), None
#     Edge 10, Type (0, 0), None
#     Edge 11, Type (0, 0), None
# Relax obj value: 0.113
# Max RMSD: 0.157
# Mean RMSD: 0.150
data_MOF--net-kag--node1-LEVNOQ01_clean_sbu_1--edge1-none
_symmetry_space_group_name_H-M    P1
_symmetry_Int_Tables_number       1
_symmetry_cell_setting            triclinic
loop_
_symmetry_equiv_pos_as_xyz
'x, y, z'
_cell_length_a     15.783089
_cell_length_b     15.669207
_cell_length_c     7.5428748
_cell_angle_alpha  89.982039
_cell_angle_beta   99.745042
_cell_angle_gamma 119.76477
loop_
_atom_site_label
_atom_site_type_symbol
_atom_site_fract_x
_atom_site_fract_y
_atom_site_fract_z
_atom_type_partial_charge
O0 O 0.72611 0.24216 0.75977 0.0
Mg1 Mg 0.75954 0.37208 0.62307 0.0
O2 O 0.84277 0.30972 0.01033 0.0
Mg3 Mg -0.04177 0.47066 -0.02628 0.0
O4 O 0.90745 0.4456 0.67348 0.0
O5 O 0.82764 0.40571 0.39165 0.0
O6 O 0.07957 0.63201 0.93738 0.0
O7 O 0.07368 0.42524 0.9369 0.0
Mg8 Mg 0.15691 0.57041 0.32438 0.0
O9 O 0.009 0.49622 0.27396 0.0
O10 O 0.19254 0.70217 0.19247 0.0
O11 O 0.19019 0.47385 0.1876 0.0
O12 O 0.08881 0.53602 0.55579 0.0
C13 C 0.75854 0.50657 0.9184 0.0
C14 C 0.76434 0.23606 0.91882 0.0
C15 C 0.91107 0.44736 0.50478 0.0
C16 C 0.15803 0.70618 0.02927 0.0
C17 C 0.15203 0.42981 0.02836 0.0
C18 C 0.00538 0.49439 0.44266 0.0
O19 O 0.72408 0.46829 0.75508 0.0
O20 O 0.83691 0.51065 0.01023 0.0
O21 O 0.51207 0.83368 0.7772 0.0
Mg22 Mg 0.36602 0.80123 0.64476 0.0
O23 O 0.48863 0.85697 0.04187 0.0
Mg24 Mg 0.45196 -0.01463 -0.02365 0.0
O25 O 0.41203 0.94314 0.67263 0.0
O26 O 0.36636 0.86523 0.40069 0.0
O27 O 0.40982 0.1105 0.9407 0.0
O28 O 0.61002 0.09892 0.93247 0.0
Mg29 Mg 0.60804 0.17277 0.2995 0.0
O30 O 0.49267 0.03483 0.26737 0.0
O31 O 0.53763 0.23631 0.12808 0.0
O32 O 0.72004 0.16609 0.18717 0.0
O33 O 0.55155 0.11223 0.53828 0.0
C34 C 0.23057 0.77984 0.93125 0.0
C35 C 0.50923 0.80947 0.93618 0.0
C36 C 0.41311 0.94723 0.50262 0.0
C37 C 0.45756 0.20106 0.00936 0.0
C38 C 0.6997 0.15446 0.01553 0.0
C39 C 0.48599 0.03464 0.4337 0.0
O40 O 0.24629 0.74494 0.7953 0.0
O41 O 0.293 0.86635 0.01144 0.0
O42 O 0.1964 0.40465 0.75982 0.0
Mg43 Mg 0.30862 0.52331 0.64774 0.0
O44 O 0.30635 0.447 0.01453 0.0
Mg45 Mg 0.46445 0.49156 -0.02905 0.0
O46 O 0.4238 0.50041 0.6799 0.0
O47 O 0.36529 0.51956 0.40913 0.0
O48 O 0.62345 0.53157 0.93612 0.0
O49 O 0.42782 0.32648 0.90572 0.0
Mg50 Mg 0.55064 0.3935 0.30315 0.0
O51 O 0.50381 0.48875 0.27452 0.0
O52 O 0.67032 0.45704 0.1525 0.0
O53 O 0.40462 0.27977 0.17085 0.0
O54 O 0.55037 0.45754 0.54681 0.0
C55 C 0.45897 0.70176 0.93824 0.0
C56 C 0.2167 0.41305 0.93146 0.0
C57 C 0.43077 0.50738 0.51372 0.0
C58 C 0.68596 0.50759 0.0164 0.0
C59 C 0.4073 0.25848 0.01172 0.0
C60 C 0.50346 0.4926 0.44471 0.0
O61 O 0.37901 0.65712 0.81924 0.0
O62 O 0.50667 0.65887 0.0068 0.0
loop_
_geom_bond_atom_site_label_1
_geom_bond_atom_site_label_2
_geom_bond_distance
_geom_bond_site_symmetry_2
_ccdc_geom_bond_type
O0 Mg1 1.990 . S
O0 C14 1.253 . S
Mg1 O0 1.990 . S
Mg1 O4 2.180 . S
Mg1 O5 2.117 . S
Mg1 O19 2.030 . S
O2 Mg3 2.072 1_655 S
O2 C14 1.260 1_554 S
Mg3 O2 2.072 1_455 S
Mg3 O4 2.099 1_454 S
Mg3 O6 2.079 1_554 S
Mg3 O7 2.072 1_554 S
Mg3 O9 2.099 . S
Mg3 O20 2.079 1_455 S
O4 Mg1 2.180 . S
O4 Mg3 2.099 1_656 S
O4 C15 1.279 . S
O5 Mg1 2.117 . S
O5 C15 1.250 . S
O6 Mg3 2.079 1_556 S
O6 C16 1.264 1_556 S
O7 Mg3 2.072 1_556 S
O7 C17 1.260 1_556 S
Mg8 O9 2.180 . S
Mg8 O10 2.030 . S
Mg8 O11 1.990 . S
Mg8 O12 2.117 . S
O9 Mg3 2.099 . S
O9 Mg8 2.180 . S
O9 C18 1.279 . S
O10 Mg8 2.030 . S
O10 C16 1.248 . S
O11 Mg8 1.990 . S
O11 C17 1.253 . S
O12 Mg8 2.117 . S
O12 C18 1.250 . S
C13 O19 1.248 . S
C13 O20 1.264 1_556 S
C14 O0 1.253 . S
C14 O2 1.260 1_556 S
C15 O4 1.279 . S
C15 O5 1.250 . S
C16 O6 1.264 1_554 S
C16 O10 1.248 . S
C17 O7 1.260 1_554 S
C17 O11 1.253 . S
C18 O9 1.279 . S
C18 O12 1.250 . S
O19 Mg1 2.030 . S
O19 C13 1.248 . S
O20 Mg3 2.079 1_655 S
O20 C13 1.264 1_554 S
O21 Mg22 1.990 . S
O21 C35 1.253 1_556 S
Mg22 O21 1.990 . S
Mg22 O25 2.180 . S
Mg22 O26 2.117 . S
Mg22 O40 2.030 . S
O23 Mg24 2.072 1_565 S
O23 C35 1.260 . S
Mg24 O23 2.072 1_545 S
Mg24 O25 2.099 1_544 S
Mg24 O27 2.079 1_554 S
Mg24 O28 2.072 1_554 S
Mg24 O30 2.099 . S
Mg24 O41 2.079 1_545 S
O25 Mg22 2.180 . S
O25 Mg24 2.099 1_566 S
O25 C36 1.279 . S
O26 Mg22 2.117 . S
O26 C36 1.253 . S
O27 Mg24 2.079 1_556 S
O27 C37 1.264 1_556 S
O28 Mg24 2.072 1_556 S
O28 C38 1.260 1_556 S
Mg29 O30 2.180 . S
Mg29 O31 2.030 . S
Mg29 O32 1.990 . S
Mg29 O33 2.117 . S
O30 Mg24 2.099 . S
O30 Mg29 2.180 . S
O30 C39 1.279 . S
O31 Mg29 2.030 . S
O31 C37 1.248 . S
O32 Mg29 1.990 . S
O32 C38 1.253 . S
O33 Mg29 2.117 . S
O33 C39 1.250 . S
C34 O40 1.248 . S
C34 O41 1.264 1_556 S
C35 O21 1.253 1_554 S
C35 O23 1.260 . S
C36 O25 1.279 . S
C36 O26 1.253 . S
C37 O27 1.264 1_554 S
C37 O31 1.248 . S
C38 O28 1.260 1_554 S
C38 O32 1.253 . S
C39 O30 1.279 . S
C39 O33 1.250 . S
O40 Mg22 2.030 . S
O40 C34 1.248 . S
O41 Mg24 2.079 1_565 S
O41 C34 1.264 1_554 S
O42 Mg43 1.990 . S
O42 C56 1.253 . S
Mg43 O42 1.990 . S
Mg43 O46 2.180 . S
Mg43 O47 2.117 . S
Mg43 O61 2.030 . S
O44 Mg45 2.072 . S
O44 C56 1.260 1_554 S
Mg45 O44 2.072 . S
Mg45 O46 2.099 1_554 S
Mg45 O48 2.079 . S
Mg45 O49 2.072 1_554 S
Mg45 O51 2.099 . S
Mg45 O62 2.079 . S
O46 Mg43 2.180 . S
O46 Mg45 2.099 1_556 S
O46 C57 1.279 . S
O47 Mg43 2.117 . S
O47 C57 1.250 . S
O48 Mg45 2.079 . S
O48 C58 1.264 . S
O49 Mg45 2.072 1_556 S
O49 C59 1.260 1_556 S
Mg50 O51 2.180 . S
Mg50 O52 2.030 . S
Mg50 O53 1.990 . S
Mg50 O54 2.117 . S
O51 Mg45 2.099 . S
O51 Mg50 2.180 . S
O51 C60 1.279 . S
O52 Mg50 2.030 . S
O52 C58 1.248 . S
O53 Mg50 1.990 . S
O53 C59 1.253 . S
O54 Mg50 2.117 . S
O54 C60 1.250 . S
C55 O61 1.248 1_554 S
C55 O62 1.264 . S
C56 O42 1.253 . S
C56 O44 1.260 1_556 S
C57 O46 1.279 . S
C57 O47 1.250 . S
C58 O48 1.264 . S
C58 O52 1.248 . S
C59 O49 1.260 1_554 S
C59 O53 1.253 . S
C60 O51 1.279 . S
C60 O54 1.250 . S
O61 Mg43 2.030 . S
O61 C55 1.248 1_556 S
O62 Mg45 2.079 . S
O62 C55 1.264 . S
C15 C18 1.455 1_655 S
C39 C36 1.212 1_545 S
C57 C60 1.214 . S
C17 C56 1.297 1_554 S
C38 C14 1.297 1_554 S
C35 C55 1.008 . S
C13 C58 1.223 1_556 S
C16 C34 1.223 1_554 S
C59 C37 1.008 . S
