# Generated by pormake.
# Topology msw, (6)-cn, num edge types: 1
# Building blocks:
#     Node 0, Type 0, BuildingBlock: VOLQOD_clean_sbu_1, # of connection points: 6
#     Node 1, Type 0, BuildingBlock: VOLQOD_clean_sbu_1, # of connection points: 6
#     Edge 2, Type (0, 0), BuildingBlock: AJUNOK_clean_linker_0, # of connection points: 2
#     Edge 3, Type (0, 0), BuildingBlock: AJUNOK_clean_linker_0, # of connection points: 2
#     Edge 4, Type (0, 0), BuildingBlock: AJUNOK_clean_linker_0, # of connection points: 2
#     Edge 5, Type (0, 0), BuildingBlock: AJUNOK_clean_linker_0, # of connection points: 2
#     Edge 6, Type (0, 0), BuildingBlock: AJUNOK_clean_linker_0, # of connection points: 2
#     Edge 7, Type (0, 0), BuildingBlock: AJUNOK_clean_linker_0, # of connection points: 2
# Relax obj value: 0.247
# Max RMSD: 0.192
# Mean RMSD: 0.192
data_MOF--net-msw--node1-VOLQOD_clean_sbu_1--edge1-AJUNOK_clean_linker_0
_symmetry_space_group_name_H-M    P1
_symmetry_Int_Tables_number       1
_symmetry_cell_setting            triclinic
loop_
_symmetry_equiv_pos_as_xyz
'x, y, z'
_cell_length_a     15.274185
_cell_length_b     15.424902
_cell_length_c     12.445821
_cell_angle_alpha  90.958441
_cell_angle_beta   91.686589
_cell_angle_gamma 88.187614
loop_
_atom_site_label
_atom_site_type_symbol
_atom_site_fract_x
_atom_site_fract_y
_atom_site_fract_z
_atom_type_partial_charge
O0 O 0.83616 0.22713 0.40147 0.0
Zn1 Zn 0.89897 0.24461 0.26666 0.0
O2 O 0.8118 0.29763 0.18186 0.0
Zn3 Zn 0.76183 0.20751 0.10189 0.0
Zn4 Zn 0.71835 0.35201 0.25337 0.0
Zn5 Zn 0.86886 0.3795 0.10185 0.0
O6 O 0.74246 0.26391 -0.03931 0.0
O7 O 0.8787 0.31693 -0.03987 0.0
O8 O 0.96185 0.14909 0.17464 0.0
O9 O 0.85072 0.11663 0.06425 0.0
O10 O 0.66561 0.15384 0.19023 0.0
O11 O 0.62272 0.27095 0.282 0.0
O12 O 0.66922 0.45453 0.16045 0.0
O13 O 0.98324 0.33155 0.31743 0.0
O14 O 0.78494 0.47491 0.0609 0.0
O15 O 0.97264 0.432 0.19237 0.0
C16 C 0.80054 0.29233 0.45106 0.0
C17 C 0.80879 0.2908 0.91125 0.0
C18 C 0.61689 0.19058 0.26053 0.0
C19 C 0.93019 0.10586 0.09457 0.0
C20 C 0.70646 0.49403 0.08516 0.0
C21 C 1.00441 0.40439 0.28245 0.0
O22 O 0.7701 0.36033 0.40238 0.0
O23 O 0.39123 0.78913 0.44868 0.0
Zn24 Zn 0.37619 0.72791 0.58524 0.0
O25 O 0.32345 0.8147 0.66812 0.0
Zn26 Zn 0.41486 0.86395 0.74847 0.0
Zn27 Zn 0.26875 0.90781 0.59502 0.0
Zn28 Zn 0.24027 0.75945 0.74837 0.0
O29 O 0.35846 0.88389 0.88897 0.0
O30 O 0.30363 0.74971 0.89059 0.0
O31 O 0.47464 0.66612 0.67735 0.0
O32 O 0.50625 0.77543 0.78815 0.0
O33 O 0.46949 0.95854 0.65861 0.0
O34 O 0.3511 1.00157 0.56486 0.0
O35 O 0.16788 0.95795 0.68811 0.0
O36 O 0.28892 0.64308 0.53734 0.0
O37 O 0.14432 0.8432 0.78754 0.0
O38 O 0.18801 0.65524 0.66118 0.0
C39 C 0.32524 0.82525 0.39874 0.0
C40 C 0.33003 0.81879 -0.06097 0.0
C41 C 0.43234 1.00692 0.58715 0.0
C42 C 0.51837 0.69729 0.75763 0.0
C43 C 0.12774 0.92187 0.76371 0.0
C44 C 0.21603 0.62172 0.57316 0.0
O45 O 0.25776 0.85718 0.44673 0.0
C46 C 0.8727 0.25098 0.73729 0.0
C47 C 0.80468 0.29108 0.7947 0.0
C48 C 0.86958 0.24976 0.62524 0.0
C49 C 0.79962 0.2909 0.56819 0.0
H50 H 0.92805 0.21975 0.77923 0.0
H51 H 0.92339 0.2185 0.58314 0.0
S52 S 0.60571 0.40441 0.68356 0.0
N53 N 0.66516 0.37121 0.78889 0.0
N54 N 0.66037 0.37151 0.57702 0.0
C55 C 0.73127 0.33131 0.62515 0.0
C56 C 0.73353 0.33071 0.73913 0.0
C57 C 0.35491 0.75108 0.22628 0.0
C58 C 0.32567 0.82584 0.28198 0.0
C59 C 0.35539 0.74918 0.11439 0.0
C60 C 0.32862 0.82269 0.05576 0.0
H61 H 0.37629 0.69336 0.26942 0.0
H62 H 0.37788 0.69033 0.07358 0.0
S63 S 0.24758 1.03439 0.16473 0.0
N64 N 0.2693 0.97474 0.27184 0.0
N65 N 0.27215 0.97194 0.06006 0.0
C66 C 0.30006 0.89816 0.11047 0.0
C67 C 0.2979 0.89948 0.22437 0.0
C68 C 0.53266 0.56935 0.87892 0.0
C69 C 0.57122 0.64074 0.83187 0.0
C70 C 0.57391 0.52565 -0.03375 0.0
C71 C 0.65569 0.55121 0.00916 0.0
H72 H 0.46887 0.54873 0.85016 0.0
H73 H 0.54282 0.4698 -0.00188 0.0
S74 S 0.78353 0.73472 0.91543 0.0
N75 N 0.69458 0.73617 0.83662 0.0
N76 N 0.77353 0.65249 -0.00291 0.0
C77 C 0.69485 0.62227 -0.03771 0.0
C78 C 0.65226 0.66744 0.8749 0.0
C79 C 0.11985 0.5159 0.31802 0.0
C80 C 1.05736 0.46047 0.35665 0.0
C81 C 0.17114 0.56646 0.38926 0.0
C82 C 0.1607 0.5654 0.50201 0.0
H83 H 0.13027 0.51919 0.23249 0.0
H84 H 0.2188 0.60783 0.35514 0.0
S85 S 1.00139 0.43585 0.64365 0.0
N86 N 0.98542 0.41001 0.51541 0.0
N87 N 0.08034 0.50659 0.64762 0.0
C88 C 0.09682 0.51206 0.5413 0.0
C89 C 1.04575 0.45925 0.46916 0.0
C90 C 1.00357 0.93472 0.89091 0.0
C91 C 0.07373 0.97361 0.84091 0.0
C92 C 0.96019 0.97587 -0.02314 0.0
C93 C 0.98736 1.05603 0.01957 0.0
H94 H 0.98202 0.87167 0.86336 0.0
H95 H 0.9044 0.94496 0.00979 0.0
S96 S 0.16768 0.18529 0.9191 0.0
N97 N 0.16804 0.09761 0.84101 0.0
N98 N 0.08774 0.1738 0.00381 0.0
C99 C 1.05778 0.09536 -0.02883 0.0
C100 C 0.10054 1.05455 0.88167 0.0
C101 C 0.45031 0.13455 0.46824 0.0
C102 C 0.48462 1.05627 0.51122 0.0
C103 C 0.49129 0.1757 0.38397 0.0
C104 C 0.56646 0.1387 0.33605 0.0
H105 H 0.39105 0.16424 0.49998 0.0
H106 H 0.464 0.23734 0.3563 0.0
S107 S 0.6803 0.93237 0.41556 0.0
N108 N 0.5975 0.94238 0.49774 0.0
N109 N 0.67319 1.01839 0.33815 0.0
C110 C 0.60049 1.05956 0.37694 0.0
C111 C 0.56007 1.01884 0.46472 0.0
loop_
_geom_bond_atom_site_label_1
_geom_bond_atom_site_label_2
_geom_bond_distance
_geom_bond_site_symmetry_2
_ccdc_geom_bond_type
O0 Zn1 1.953 . S
O0 C16 1.225 . S
Zn1 O0 1.953 . S
Zn1 O2 1.949 . S
Zn1 O8 1.919 . S
Zn1 O13 1.924 . S
O2 Zn1 1.949 . S
O2 Zn3 1.923 . S
O2 Zn4 1.950 . S
O2 Zn5 1.945 . S
Zn3 O2 1.923 . S
Zn3 O6 1.933 1_554 S
Zn3 O9 1.941 . S
Zn3 O10 1.965 . S
Zn4 O2 1.950 . S
Zn4 O11 1.938 . S
Zn4 O12 1.906 . S
Zn4 O22 1.953 . S
Zn5 O2 1.945 . S
Zn5 O7 1.932 1_554 S
Zn5 O14 1.977 . S
Zn5 O15 1.910 . S
O6 Zn3 1.933 1_556 S
O6 C17 1.226 . S
O7 Zn5 1.932 1_556 S
O7 C17 1.307 . S
O8 Zn1 1.919 . S
O8 C19 1.253 . S
O9 Zn3 1.941 . S
O9 C19 1.283 . S
O10 Zn3 1.965 . S
O10 C18 1.303 . S
O11 Zn4 1.938 . S
O11 C18 1.247 . S
O12 Zn4 1.906 . S
O12 C20 1.304 . S
O13 Zn1 1.924 . S
O13 C21 1.311 . S
O14 Zn5 1.977 . S
O14 C20 1.272 . S
O15 Zn5 1.910 . S
O15 C21 1.231 . S
C16 O0 1.225 . S
C16 O22 1.298 . S
C17 O6 1.226 . S
C17 O7 1.307 . S
C18 O10 1.303 . S
C18 O11 1.247 . S
C19 O8 1.253 . S
C19 O9 1.283 . S
C20 O12 1.304 . S
C20 O14 1.272 . S
C21 O13 1.311 . S
C21 O15 1.231 . S
O22 Zn4 1.953 . S
O22 C16 1.298 . S
O23 Zn24 1.953 . S
O23 C39 1.225 . S
Zn24 O23 1.953 . S
Zn24 O25 1.949 . S
Zn24 O31 1.919 . S
Zn24 O36 1.924 . S
O25 Zn24 1.949 . S
O25 Zn26 1.923 . S
O25 Zn27 1.950 . S
O25 Zn28 1.945 . S
Zn26 O25 1.923 . S
Zn26 O29 1.933 1_556 S
Zn26 O32 1.941 . S
Zn26 O33 1.965 . S
Zn27 O25 1.950 . S
Zn27 O34 1.938 . S
Zn27 O35 1.906 . S
Zn27 O45 1.953 . S
Zn28 O25 1.945 . S
Zn28 O30 1.932 1_556 S
Zn28 O37 1.977 . S
Zn28 O38 1.910 . S
O29 Zn26 1.933 1_554 S
O29 C40 1.226 . S
O30 Zn28 1.932 1_554 S
O30 C40 1.307 . S
O31 Zn24 1.919 . S
O31 C42 1.253 . S
O32 Zn26 1.941 . S
O32 C42 1.283 . S
O33 Zn26 1.965 . S
O33 C41 1.303 . S
O34 Zn27 1.938 . S
O34 C41 1.247 . S
O35 Zn27 1.906 . S
O35 C43 1.304 . S
O36 Zn24 1.924 . S
O36 C44 1.311 . S
O37 Zn28 1.977 . S
O37 C43 1.272 . S
O38 Zn28 1.910 . S
O38 C44 1.231 . S
C39 O23 1.225 . S
C39 O45 1.298 . S
C40 O29 1.226 . S
C40 O30 1.307 . S
C41 O33 1.303 . S
C41 O34 1.247 . S
C42 O31 1.253 . S
C42 O32 1.283 . S
C43 O35 1.304 . S
C43 O37 1.272 . S
C44 O36 1.311 . S
C44 O38 1.231 . S
O45 Zn27 1.953 . S
O45 C39 1.298 . S
C46 C47 1.369 . S
C46 C48 1.419 . S
C46 H50 0.930 . S
C47 C46 1.369 . S
C47 C56 1.429 . S
C48 C46 1.419 . S
C48 C49 1.363 . S
C48 H51 0.929 . S
C49 C48 1.363 . S
C49 C55 1.428 . S
H50 C46 0.930 . S
H51 C48 0.929 . S
S52 N53 1.613 . S
S52 N54 1.610 . S
N53 S52 1.613 . S
N53 C56 1.350 . S
N54 S52 1.610 . S
N54 C55 1.351 . S
C55 C49 1.428 . S
C55 N54 1.351 . S
C55 C56 1.434 . S
C56 C47 1.429 . S
C56 N53 1.350 . S
C56 C55 1.434 . S
C57 C58 1.369 . S
C57 C59 1.419 . S
C57 H61 0.930 . S
C58 C57 1.369 . S
C58 C67 1.429 . S
C59 C57 1.419 . S
C59 C60 1.363 . S
C59 H62 0.929 . S
C60 C59 1.363 . S
C60 C66 1.428 . S
H61 C57 0.930 . S
H62 C59 0.929 . S
S63 N64 1.613 . S
S63 N65 1.610 . S
N64 S63 1.613 . S
N64 C67 1.350 . S
N65 S63 1.610 . S
N65 C66 1.351 . S
C66 C60 1.428 . S
C66 N65 1.351 . S
C66 C67 1.434 . S
C67 C58 1.429 . S
C67 N64 1.350 . S
C67 C66 1.434 . S
C68 C69 1.369 1_554 S
C68 C70 1.419 . S
C68 H72 0.930 . S
C69 C68 1.369 1_556 S
C69 C78 1.429 . S
C70 C68 1.419 . S
C70 C71 1.363 . S
C70 H73 0.929 . S
C71 C70 1.363 . S
C71 C77 1.428 1_554 S
H72 C68 0.930 . S
H73 C70 0.929 . S
S74 N75 1.613 . S
S74 N76 1.610 . S
N75 S74 1.613 . S
N75 C78 1.350 . S
N76 S74 1.610 . S
N76 C77 1.351 . S
C77 C71 1.428 1_556 S
C77 N76 1.351 . S
C77 C78 1.434 . S
C78 C69 1.429 . S
C78 N75 1.350 . S
C78 C77 1.434 . S
C79 C80 1.369 . S
C79 C81 1.419 1_655 S
C79 H83 0.930 . S
C80 C79 1.369 . S
C80 C89 1.429 . S
C81 C79 1.419 1_455 S
C81 C82 1.363 . S
C81 H84 0.929 . S
C82 C81 1.363 . S
C82 C88 1.428 . S
H83 C79 0.930 . S
H84 C81 0.929 . S
S85 N86 1.613 . S
S85 N87 1.610 1_655 S
N86 S85 1.613 . S
N86 C89 1.350 . S
N87 S85 1.610 1_455 S
N87 C88 1.351 . S
C88 C82 1.428 . S
C88 N87 1.351 . S
C88 C89 1.434 1_455 S
C89 C80 1.429 . S
C89 N86 1.350 . S
C89 C88 1.434 1_655 S
C90 C91 1.369 1_554 S
C90 C92 1.419 1_565 S
C90 H94 0.930 . S
C91 C90 1.369 1_556 S
C91 C100 1.429 1_455 S
C92 C90 1.419 1_545 S
C92 C93 1.363 1_455 S
C92 H95 0.929 . S
C93 C92 1.363 1_655 S
C93 C99 1.428 1_554 S
H94 C90 0.930 . S
H95 C92 0.929 . S
S96 N97 1.613 1_545 S
S96 N98 1.610 . S
N97 S96 1.613 1_565 S
N97 C100 1.350 . S
N98 S96 1.610 . S
N98 C99 1.351 . S
C99 C93 1.428 1_556 S
C99 N98 1.351 . S
C99 C100 1.434 1_545 S
C100 C91 1.429 1_655 S
C100 N97 1.350 . S
C100 C99 1.434 1_565 S
C101 C102 1.369 . S
C101 C103 1.419 1_565 S
C101 H105 0.930 . S
C102 C101 1.369 . S
C102 C111 1.429 . S
C103 C101 1.419 1_545 S
C103 C104 1.363 . S
C103 H106 0.929 . S
C104 C103 1.363 . S
C104 C110 1.428 . S
H105 C101 0.930 . S
H106 C103 0.929 . S
S107 N108 1.610 1_545 S
S107 N109 1.614 . S
N108 S107 1.610 1_565 S
N108 C111 1.350 . S
N109 S107 1.614 . S
N109 C110 1.351 . S
C110 C104 1.428 . S
C110 N109 1.351 . S
C110 C111 1.434 1_545 S
C111 C102 1.429 . S
C111 N108 1.350 . S
C111 C110 1.434 1_565 S
C47 C17 0.328 . S
C49 C16 0.329 . S
C58 C39 0.331 . S
C60 C40 0.327 . S
C69 C42 2.069 . S
C71 C20 2.045 . S
C80 C21 2.034 . S
C82 C44 2.037 . S
C91 C43 2.049 . S
C93 C19 2.066 . S
C102 C41 2.068 . S
C104 C18 2.065 . S
