# Generated by pormake.
# Topology cds, (4)-cn, num edge types: 1
# Building blocks:
#     Node 0, Type 0, BuildingBlock: MUDLON_clean_sbu_0, # of connection points: 4
#     Node 1, Type 0, BuildingBlock: MUDLON_clean_sbu_0, # of connection points: 4
#     Edge 2, Type (0, 0), BuildingBlock: UVAHIK_clean_linker_0, # of connection points: 2
#     Edge 3, Type (0, 0), BuildingBlock: UVAHIK_clean_linker_0, # of connection points: 2
#     Edge 4, Type (0, 0), BuildingBlock: UVAHIK_clean_linker_0, # of connection points: 2
#     Edge 5, Type (0, 0), BuildingBlock: UVAHIK_clean_linker_0, # of connection points: 2
# Relax obj value: 0.001
# Max RMSD: 0.016
# Mean RMSD: 0.016
data_MOF--net-cds--node1-MUDLON_clean_sbu_0--edge1-UVAHIK_clean_linker_0
_symmetry_space_group_name_H-M    P1
_symmetry_Int_Tables_number       1
_symmetry_cell_setting            triclinic
loop_
_symmetry_equiv_pos_as_xyz
'x, y, z'
_cell_length_a     19.583485
_cell_length_b     19.226675
_cell_length_c     38.438116
_cell_angle_alpha  92.074214
_cell_angle_beta   89.865845
_cell_angle_gamma 88.409679
loop_
_atom_site_label
_atom_site_type_symbol
_atom_site_fract_x
_atom_site_fract_y
_atom_site_fract_z
_atom_type_partial_charge
Mg0 Mg 0.09819 0.10709 0.02338 0.0
C1 C 0.2436 0.13379 0.03609 0.0
O2 O 0.23425 0.07246 0.04902 0.0
C3 C 0.95403 0.14076 0.04064 0.0
O4 O 0.96658 0.08117 0.05534 0.0
C5 C 0.14128 0.04009 0.95349 0.0
O6 O 0.1985 0.07059 0.96173 0.0
O7 O 0.09261 0.04212 0.97557 0.0
O8 O 0.19305 0.16516 0.02215 0.0
O9 O 0.10067 0.05394 0.07297 0.0
C10 C 0.10779 0.09602 0.09901 0.0
O11 O 0.11317 0.16258 0.09317 0.0
O12 O 1.00233 0.16888 0.02447 0.0
Mg13 Mg 0.93433 0.93114 0.52138 0.0
C14 C 0.85668 0.05905 0.4948 0.0
O15 O 0.86847 0.02722 0.46447 0.0
C16 C 0.86766 0.79901 0.49441 0.0
O17 O 0.88852 0.82254 0.46464 0.0
C18 C 0.02354 0.97939 0.46182 0.0
O19 O 0.02441 0.03682 0.4814 0.0
O20 O 0.99389 0.9267 0.47319 0.0
O21 O 0.87352 0.02831 0.52239 0.0
O22 O 0.99441 0.93189 0.56935 0.0
C23 C 0.99727 0.98771 0.58808 0.0
O24 O 0.97012 0.04536 0.57619 0.0
O25 O 0.87587 0.8361 0.52211 0.0
C26 C 0.12583 0.11981 0.16256 0.0
C27 C 0.10932 0.07242 0.13536 0.0
C28 C 0.12516 0.10004 0.19713 0.0
C29 C 0.04919 0.97564 0.25523 0.0
H30 H 0.18446 0.04604 0.32007 0.0
C31 C 0.03726 0.92149 0.40238 0.0
C32 C 0.04727 0.97939 0.42508 0.0
C33 C 0.05254 0.92449 0.36686 0.0
C34 C 0.14606 0.02623 0.30237 0.0
H35 H 0.07987 0.96646 0.12326 0.0
H36 H 0.07853 0.93168 0.18406 0.0
H37 H 0.19687 0.06539 0.25808 0.0
H38 H 0.08344 0.08501 0.42825 0.0
H39 H 0.10976 0.09033 0.36651 0.0
H40 H 0.99753 0.93789 0.29965 0.0
C41 C 0.09177 0.98442 0.17842 0.0
C42 C 0.15321 0.03727 0.26679 0.0
C43 C 0.09286 1.0042 0.1436 0.0
C44 C 0.07522 0.03938 0.4116 0.0
C45 C 0.09063 0.04231 0.37613 0.0
C46 C 0.04201 0.96462 0.29087 0.0
C47 C 0.10777 0.03229 0.2056 0.0
C48 C 0.10412 1.01342 0.24284 0.0
C49 C 0.07844 0.98534 0.35317 0.0
C50 C 0.08965 0.991 0.31498 0.0
H51 H 0.1388 0.1728 0.15725 0.0
H52 H 0.13667 0.13863 0.21734 0.0
H53 H 1.0101 0.95715 0.23758 0.0
H54 H 0.01589 0.87436 0.41185 0.0
H55 H 0.0434 0.87932 0.35003 0.0
C56 C 0.06428 0.99757 0.90543 0.0
C57 C 0.12997 1.01466 0.91704 0.0
C58 C 0.05186 0.98414 0.86999 0.0
C59 C 0.13497 0.94505 0.78404 0.0
H60 H 0.9763 0.04409 0.74845 0.0
C61 C 0.0449 0.92403 0.63929 0.0
C62 C 0.02205 0.98646 0.62458 0.0
C63 C 0.06107 0.92228 0.67479 0.0
C64 C 0.02097 1.01628 0.75792 0.0
H65 H 0.23492 0.02681 0.90062 0.0
H66 H 0.21322 1.00338 0.83898 0.0
H67 H 0.99761 0.04615 0.81084 0.0
H68 H 1.00108 0.09654 0.63552 0.0
H69 H 0.02939 0.0934 0.69704 0.0
H70 H 0.15882 0.91642 0.73079 0.0
C71 C 0.17127 1.00029 0.85722 0.0
C72 C 0.03271 1.0167 0.79378 0.0
C73 C 0.18363 1.01406 0.89262 0.0
C74 C 0.01808 0.04742 0.64592 0.0
C75 C 0.03385 0.04557 0.68132 0.0
C76 C 0.1229 0.94421 0.74808 0.0
C77 C 0.10488 0.98706 0.84534 0.0
C78 C 0.09021 0.98171 0.80731 0.0
C79 C 0.05431 0.98281 0.69636 0.0
C80 C 0.06623 0.98067 0.73458 0.0
H81 H 0.02178 0.99731 0.92351 0.0
H82 H 1.00031 0.97301 0.86177 0.0
H83 H 0.17951 0.9172 0.79362 0.0
H84 H 0.04852 0.8761 0.62363 0.0
H85 H 0.07656 0.87307 0.6856 0.0
C86 C 0.85827 0.21334 1.01532 0.0
C87 C 0.88341 0.17046 0.04154 0.0
C88 C 0.78856 0.23266 1.01435 0.0
C89 C 0.62979 0.2398 0.06808 0.0
H90 H 0.53629 0.19762 0.98137 0.0
C91 C 0.35833 0.14126 0.06322 0.0
C92 C 0.31265 0.16317 0.03747 0.0
C93 C 0.42579 0.16256 0.06344 0.0
C94 C 0.56161 0.2112 1.0056 0.0
H95 H 0.85618 0.11731 0.08818 0.0
H96 H 0.73606 0.15121 0.08672 0.0
H97 H 0.66115 0.19946 0.98234 0.0
H98 H 0.30142 0.22586 0.99202 0.0
H99 H 0.42095 0.26239 0.99195 0.0
H100 H 0.53066 0.248 0.0917 0.0
C101 C 0.76946 0.17015 0.06687 0.0
C102 C 0.63319 0.21229 1.00616 0.0
C103 C 0.83842 0.15022 0.06757 0.0
C104 C 0.33551 0.2085 1.01229 0.0
C105 C 0.40384 0.22903 1.01214 0.0
C106 C 0.55852 0.23856 0.06753 0.0
C107 C 0.74325 0.21046 0.03994 0.0
C108 C 0.66812 0.22387 0.03771 0.0
C109 C 0.44979 0.20574 0.03763 0.0
C110 C 0.52372 0.22156 0.03657 0.0
H111 H 0.89173 0.22943 0.99482 0.0
H112 H 0.76992 0.26396 0.99332 0.0
H113 H 0.65509 0.25031 0.09267 0.0
H114 H 0.34223 0.10648 0.08304 0.0
H115 H 0.45995 0.14286 0.08314 0.0
C116 C 0.8337 0.69611 0.52848 0.0
C117 C 0.84452 0.72627 0.4962 0.0
C118 C 0.82066 0.62506 0.5302 0.0
C119 C 0.77173 0.46817 0.4773 0.0
H120 H 0.87904 0.36902 0.54521 0.0
C121 C 0.82807 0.1713 0.46605 0.0
C122 C 0.83528 0.13385 0.49665 0.0
C123 C 0.81726 0.24361 0.46771 0.0
C124 C 0.84759 0.39577 0.52649 0.0
H125 H 0.84674 0.70581 0.44032 0.0
H126 H 0.8243 0.58226 0.44335 0.0
H127 H 0.88072 0.49541 0.54514 0.0
H128 H 0.83312 0.14292 0.55306 0.0
H129 H 0.813 0.26874 0.55595 0.0
H130 H 0.7396 0.36823 0.45826 0.0
C131 C 0.82553 0.61344 0.46736 0.0
C132 C 0.84862 0.46848 0.52645 0.0
C133 C 0.83877 0.68438 0.46564 0.0
C134 C 0.82816 0.17009 0.52896 0.0
C135 C 0.81716 0.24241 0.53062 0.0
C136 C 0.77055 0.39536 0.4774 0.0
C137 C 0.81784 0.58252 0.4997 0.0
C138 C 0.81151 0.5056 0.50155 0.0
C139 C 0.81317 0.28037 0.50002 0.0
C140 C 0.80929 0.3581 0.50168 0.0
H141 H 0.8375 0.72683 0.55254 0.0
H142 H 0.81395 0.60316 0.55551 0.0
H143 H 0.74177 0.49515 0.45806 0.0
H144 H 0.83343 0.14521 0.44071 0.0
H145 H 0.81516 0.27097 0.44359 0.0
loop_
_geom_bond_atom_site_label_1
_geom_bond_atom_site_label_2
_geom_bond_distance
_geom_bond_site_symmetry_2
_ccdc_geom_bond_type
Mg0 O7 2.142 . S
Mg0 O8 2.047 1_655 S
Mg0 O9 2.047 1_556 S
Mg0 O12 2.142 . S
C1 O2 1.313 1_545 S
C1 O8 1.195 1_554 S
O2 C1 1.313 1_565 S
C3 O4 1.247 1_545 S
C3 O12 1.287 1_554 S
O4 C3 1.247 1_565 S
C5 O6 1.245 1_545 S
C5 O7 1.289 1_455 S
O6 C5 1.245 1_565 S
O7 Mg0 2.142 . S
O7 C5 1.289 1_655 S
O8 Mg0 2.047 1_455 S
O8 C1 1.195 1_556 S
O9 Mg0 2.047 1_554 S
O9 C10 1.195 1_655 S
C10 O9 1.195 1_455 S
C10 O11 1.313 1_545 S
O11 C10 1.313 1_565 S
O12 Mg0 2.142 . S
O12 C3 1.287 1_556 S
Mg13 O20 2.141 . S
Mg13 O21 2.046 1_565 S
Mg13 O22 2.048 . S
Mg13 O25 2.143 . S
C14 O15 1.313 . S
C14 O21 1.195 1_455 S
O15 C14 1.313 . S
C16 O17 1.245 . S
C16 O25 1.289 1_455 S
O17 C16 1.245 . S
C18 O19 1.245 . S
C18 O20 1.289 1_445 S
O19 C18 1.245 . S
O20 Mg13 2.141 . S
O20 C18 1.289 1_665 S
O21 Mg13 2.046 1_545 S
O21 C14 1.195 1_655 S
O22 Mg13 2.048 . S
O22 C23 1.195 1_665 S
C23 O22 1.195 1_445 S
C23 O24 1.313 . S
O24 C23 1.313 . S
O25 Mg13 2.143 . S
O25 C16 1.289 1_655 S
C26 C27 1.349 1_565 S
C26 C28 1.327 . S
C26 H51 0.950 . S
C27 C26 1.349 1_545 S
C27 C43 1.349 1_455 S
C28 C26 1.327 . S
C28 C47 1.429 1_565 S
C28 H52 0.950 . S
C29 C46 1.574 . S
C29 C48 1.368 1_655 S
C29 H53 0.949 . S
H30 C34 0.949 . S
C31 C32 1.349 1_655 S
C31 C33 1.327 . S
C31 H54 0.950 . S
C32 C31 1.349 1_455 S
C32 C44 1.349 1_545 S
C33 C31 1.327 . S
C33 C49 1.429 1_655 S
C33 H55 0.950 . S
C34 H30 0.949 . S
C34 C42 1.574 . S
C34 C50 1.368 1_565 S
H35 C43 0.950 . S
H36 C41 0.950 . S
H37 C42 0.949 . S
H38 C44 0.950 . S
H39 C45 0.950 . S
H40 C46 0.949 . S
C41 H36 0.950 . S
C41 C43 1.327 . S
C41 C47 1.429 1_655 S
C42 C34 1.574 . S
C42 H37 0.949 . S
C42 C48 1.368 1_565 S
C43 C27 1.349 1_655 S
C43 H35 0.950 . S
C43 C41 1.327 . S
C44 C32 1.349 1_565 S
C44 H38 0.950 . S
C44 C45 1.327 . S
C45 H39 0.950 . S
C45 C44 1.327 . S
C45 C49 1.429 1_565 S
C46 C29 1.574 . S
C46 H40 0.949 . S
C46 C50 1.368 1_655 S
C47 C28 1.429 1_545 S
C47 C41 1.429 1_455 S
C47 C48 1.523 . S
C48 C29 1.368 1_455 S
C48 C42 1.368 1_545 S
C48 C47 1.523 . S
C49 C33 1.429 1_455 S
C49 C45 1.429 1_545 S
C49 C50 1.523 . S
C50 C34 1.368 1_545 S
C50 C46 1.368 1_455 S
C50 C49 1.523 . S
H51 C26 0.950 . S
H52 C28 0.950 . S
H53 C29 0.949 . S
H54 C31 0.950 . S
H55 C33 0.950 . S
C56 C57 1.349 . S
C56 C58 1.327 . S
C56 H81 0.950 . S
C57 C56 1.349 . S
C57 C73 1.349 1_445 S
C58 C56 1.327 . S
C58 C77 1.429 . S
C58 H82 0.950 . S
C59 C76 1.574 . S
C59 C78 1.368 1_665 S
C59 H83 0.949 . S
H60 C64 0.949 . S
C61 C62 1.349 1_665 S
C61 C63 1.327 . S
C61 H84 0.950 . S
C62 C61 1.349 1_445 S
C62 C74 1.349 . S
C63 C61 1.327 . S
C63 C79 1.429 1_665 S
C63 H85 0.950 . S
C64 H60 0.949 . S
C64 C72 1.574 . S
C64 C80 1.368 . S
H65 C73 0.950 . S
H66 C71 0.950 . S
H67 C72 0.949 . S
H68 C74 0.950 . S
H69 C75 0.950 . S
H70 C76 0.949 . S
C71 H66 0.950 . S
C71 C73 1.327 . S
C71 C77 1.429 1_665 S
C72 C64 1.574 . S
C72 H67 0.949 . S
C72 C78 1.368 . S
C73 C57 1.349 1_665 S
C73 H65 0.950 . S
C73 C71 1.327 . S
C74 C62 1.349 . S
C74 H68 0.950 . S
C74 C75 1.327 . S
C75 H69 0.950 . S
C75 C74 1.327 . S
C75 C79 1.429 . S
C76 C59 1.574 . S
C76 H70 0.949 . S
C76 C80 1.368 1_665 S
C77 C58 1.429 . S
C77 C71 1.429 1_445 S
C77 C78 1.523 . S
C78 C59 1.368 1_445 S
C78 C72 1.368 . S
C78 C77 1.523 . S
C79 C63 1.429 1_445 S
C79 C75 1.429 . S
C79 C80 1.523 . S
C80 C64 1.368 . S
C80 C76 1.368 1_445 S
C80 C79 1.523 . S
H81 C56 0.950 . S
H82 C58 0.950 . S
H83 C59 0.949 . S
H84 C61 0.950 . S
H85 C63 0.950 . S
C86 C87 1.349 1_556 S
C86 C88 1.327 . S
C86 H111 0.950 . S
C87 C86 1.349 1_554 S
C87 C103 1.349 1_545 S
C88 C86 1.327 . S
C88 C107 1.429 1_556 S
C88 H112 0.950 . S
C89 C106 1.574 . S
C89 C108 1.368 1_565 S
C89 H113 0.949 . S
H90 C94 0.949 . S
C91 C92 1.349 1_565 S
C91 C93 1.327 . S
C91 H114 0.950 . S
C92 C91 1.349 1_545 S
C92 C104 1.349 1_554 S
C93 C91 1.327 . S
C93 C109 1.429 1_565 S
C93 H115 0.950 . S
C94 H90 0.949 . S
C94 C102 1.574 . S
C94 C110 1.368 1_556 S
H95 C103 0.950 . S
H96 C101 0.950 . S
H97 C102 0.949 . S
H98 C104 0.950 . S
H99 C105 0.950 . S
H100 C106 0.949 . S
C101 H96 0.950 . S
C101 C103 1.327 . S
C101 C107 1.429 1_565 S
C102 C94 1.574 . S
C102 H97 0.949 . S
C102 C108 1.368 1_556 S
C103 C87 1.349 1_565 S
C103 H95 0.950 . S
C103 C101 1.327 . S
C104 C92 1.349 1_556 S
C104 H98 0.950 . S
C104 C105 1.327 . S
C105 H99 0.950 . S
C105 C104 1.327 . S
C105 C109 1.429 1_556 S
C106 C89 1.574 . S
C106 H100 0.949 . S
C106 C110 1.368 1_565 S
C107 C88 1.429 1_554 S
C107 C101 1.429 1_545 S
C107 C108 1.523 . S
C108 C89 1.368 1_545 S
C108 C102 1.368 1_554 S
C108 C107 1.523 . S
C109 C93 1.429 1_545 S
C109 C105 1.429 1_554 S
C109 C110 1.523 . S
C110 C94 1.368 1_554 S
C110 C106 1.368 1_545 S
C110 C109 1.523 . S
H111 C86 0.950 . S
H112 C88 0.950 . S
H113 C89 0.949 . S
H114 C91 0.950 . S
H115 C93 0.950 . S
C116 C117 1.349 1_655 S
C116 C118 1.327 . S
C116 H141 0.950 . S
C117 C116 1.349 1_455 S
C117 C133 1.349 . S
C118 C116 1.327 . S
C118 C137 1.429 1_655 S
C118 H142 0.950 . S
C119 C136 1.574 . S
C119 C138 1.368 . S
C119 H143 0.949 . S
H120 C124 0.949 . S
C121 C122 1.349 . S
C121 C123 1.327 . S
C121 H144 0.950 . S
C122 C121 1.349 . S
C122 C134 1.349 1_455 S
C123 C121 1.327 . S
C123 C139 1.429 . S
C123 H145 0.950 . S
C124 H120 0.949 . S
C124 C132 1.574 . S
C124 C140 1.368 1_655 S
H125 C133 0.950 . S
H126 C131 0.950 . S
H127 C132 0.949 . S
H128 C134 0.950 . S
H129 C135 0.950 . S
H130 C136 0.949 . S
C131 H126 0.950 . S
C131 C133 1.327 . S
C131 C137 1.429 . S
C132 C124 1.574 . S
C132 H127 0.949 . S
C132 C138 1.368 1_655 S
C133 C117 1.349 . S
C133 H125 0.950 . S
C133 C131 1.327 . S
C134 C122 1.349 1_655 S
C134 H128 0.950 . S
C134 C135 1.327 . S
C135 H129 0.950 . S
C135 C134 1.327 . S
C135 C139 1.429 1_655 S
C136 C119 1.574 . S
C136 H130 0.949 . S
C136 C140 1.368 . S
C137 C118 1.429 1_455 S
C137 C131 1.429 . S
C137 C138 1.523 . S
C138 C119 1.368 . S
C138 C132 1.368 1_455 S
C138 C137 1.523 . S
C139 C123 1.429 . S
C139 C135 1.429 1_455 S
C139 C140 1.523 . S
C140 C124 1.368 1_455 S
C140 C136 1.368 . S
C140 C139 1.523 . S
H141 C116 0.950 . S
H142 C118 0.950 . S
H143 C119 0.949 . S
H144 C121 0.950 . S
H145 C123 0.950 . S
C27 C10 1.493 . S
C32 C18 1.489 . S
C57 C5 1.489 . S
C62 C23 1.500 . S
C87 C3 1.490 . S
C92 C1 1.493 . S
C117 C16 1.489 . S
C122 C14 1.493 . S
