# Generated by pormake.
# Topology ukh, (4)-cn, num edge types: 1
# Building blocks:
#     Node 0, Type 0, BuildingBlock: QUQFOY_clean_sbu_3, # of connection points: 4
#     Node 1, Type 0, BuildingBlock: QUQFOY_clean_sbu_3, # of connection points: 4
#     Node 2, Type 0, BuildingBlock: QUQFOY_clean_sbu_3, # of connection points: 4
#     Node 3, Type 0, BuildingBlock: QUQFOY_clean_sbu_3, # of connection points: 4
#     Node 4, Type 0, BuildingBlock: QUQFOY_clean_sbu_3, # of connection points: 4
#     Node 5, Type 0, BuildingBlock: QUQFOY_clean_sbu_3, # of connection points: 4
#     Node 6, Type 0, BuildingBlock: QUQFOY_clean_sbu_3, # of connection points: 4
#     Node 7, Type 0, BuildingBlock: QUQFOY_clean_sbu_3, # of connection points: 4
#     Node 8, Type 0, BuildingBlock: QUQFOY_clean_sbu_3, # of connection points: 4
#     Node 9, Type 0, BuildingBlock: QUQFOY_clean_sbu_3, # of connection points: 4
#     Node 10, Type 0, BuildingBlock: QUQFOY_clean_sbu_3, # of connection points: 4
#     Node 11, Type 0, BuildingBlock: QUQFOY_clean_sbu_3, # of connection points: 4
#     Edge 12, Type (0, 0), None
#     Edge 13, Type (0, 0), None
#     Edge 14, Type (0, 0), None
#     Edge 15, Type (0, 0), None
#     Edge 16, Type (0, 0), None
#     Edge 17, Type (0, 0), None
#     Edge 18, Type (0, 0), None
#     Edge 19, Type (0, 0), None
#     Edge 20, Type (0, 0), None
#     Edge 21, Type (0, 0), None
#     Edge 22, Type (0, 0), None
#     Edge 23, Type (0, 0), None
#     Edge 24, Type (0, 0), None
#     Edge 25, Type (0, 0), None
#     Edge 26, Type (0, 0), None
#     Edge 27, Type (0, 0), None
#     Edge 28, Type (0, 0), None
#     Edge 29, Type (0, 0), None
#     Edge 30, Type (0, 0), None
#     Edge 31, Type (0, 0), None
#     Edge 32, Type (0, 0), None
#     Edge 33, Type (0, 0), None
#     Edge 34, Type (0, 0), None
#     Edge 35, Type (0, 0), None
# Relax obj value: 0.082
# Max RMSD: 0.108
# Mean RMSD: 0.099
data_MOF--net-ukh--node1-QUQFOY_clean_sbu_3--edge1-none
_symmetry_space_group_name_H-M    P1
_symmetry_Int_Tables_number       1
_symmetry_cell_setting            triclinic
loop_
_symmetry_equiv_pos_as_xyz
'x, y, z'
_cell_length_a     15.034076
_cell_length_b     15.639659
_cell_length_c     33.980842
_cell_angle_alpha  89.999932
_cell_angle_beta   90.000162
_cell_angle_gamma 118.71362
loop_
_atom_site_label
_atom_site_type_symbol
_atom_site_fract_x
_atom_site_fract_y
_atom_site_fract_z
_atom_type_partial_charge
C0 C 0.06668 0.12469 -0.05004 0.0
O1 O 0.04639 0.04488 -0.03339 0.0
Cd2 Cd 0.12636 0.00461 0.01932 0.0
O3 O 0.14813 0.20194 -0.04197 0.0
Cd4 Cd 0.29631 0.21488 -0.00466 0.0
C5 C 0.27542 0.00363 -0.04713 0.0
O6 O 0.21283 0.14599 0.05827 0.0
O7 O 0.37176 0.1865 0.05464 0.0
O8 O 0.32868 0.38294 -0.00465 0.0
C9 C 0.2916 0.15403 0.07511 0.0
O10 O 0.24001 0.96144 -0.01447 0.0
C11 C 0.42268 0.41999 -0.01205 0.0
O12 O 0.29787 0.09298 -0.05161 0.0
O13 O 0.45864 0.36173 -0.01678 0.0
C14 C 0.2241 0.29306 0.26961 0.0
O15 O 0.20455 0.33604 0.24205 0.0
Cd16 Cd 0.06519 0.36999 0.25055 0.0
O17 O 0.17607 0.27557 0.30188 0.0
Cd18 Cd 0.04459 0.30044 0.3347 0.0
C19 C 0.87717 0.13955 0.27077 0.0
O20 O 0.06029 0.45467 0.31026 0.0
O21 O 0.91398 0.35064 0.33455 0.0
O22 O 0.14288 0.37604 0.39389 0.0
C23 C -0.02816 0.43576 0.3216 0.0
O24 O 0.91877 0.20707 0.24533 0.0
C25 C 0.10178 0.29951 0.41476 0.0
O26 O 0.90807 0.15217 0.30627 0.0
O27 O 0.03034 0.22372 0.39924 0.0
C28 C 0.89789 0.23834 0.609 0.0
O29 O 0.83391 0.21719 0.58145 0.0
Cd30 Cd 0.6633 0.08477 0.59018 0.0
O31 O 0.87117 0.19315 0.64151 0.0
Cd32 Cd 0.71983 0.06522 0.67411 0.0
C33 C 0.71143 0.89704 0.61031 0.0
O34 O 0.57282 0.07707 0.65056 0.0
O35 O 0.54552 0.93671 0.67384 0.0
O36 O 0.72749 0.15691 0.73319 0.0
C37 C 0.51001 -0.00929 0.66149 0.0
O38 O 0.68209 0.93874 0.58528 0.0
C39 C 0.76996 0.12038 0.75442 0.0
O40 O 0.73476 0.92919 0.64537 0.0
O41 O 0.786 0.05499 0.739 0.0
C42 C 0.84398 0.82127 -0.05004 0.0
O43 O 0.86428 0.90108 -0.03339 0.0
Cd44 Cd 0.78431 0.94135 0.01932 0.0
O45 O 0.76253 0.74402 -0.04197 0.0
Cd46 Cd 0.61435 0.73108 -0.00466 0.0
C47 C 0.63525 0.94234 -0.04713 0.0
O48 O 0.69783 0.79996 0.05826 0.0
O49 O 0.5389 0.75946 0.05464 0.0
O50 O 0.58198 0.56302 -0.00465 0.0
C51 C 0.61906 0.79193 0.07511 0.0
O52 O 0.67066 -0.01548 -0.01446 0.0
C53 C 0.48798 0.52597 -0.01205 0.0
O54 O 0.6128 0.85298 -0.05161 0.0
O55 O 0.45202 0.58423 -0.01678 0.0
C56 C 0.68656 0.65289 0.26961 0.0
O57 O 0.7061 0.60991 0.24205 0.0
Cd58 Cd 0.84546 0.57596 0.25055 0.0
O59 O 0.73459 0.67038 0.30188 0.0
Cd60 Cd 0.86606 0.64551 0.33471 0.0
C61 C 0.03349 0.8064 0.27077 0.0
O62 O 0.85035 0.49128 0.31026 0.0
O63 O -0.00333 0.5953 0.33455 0.0
O64 O 0.76778 0.56991 0.39389 0.0
C65 C 0.9388 0.51018 0.3216 0.0
O66 O -0.00811 0.73888 0.24533 0.0
C67 C 0.80888 0.64645 0.41476 0.0
O68 O 0.00259 0.79378 0.30627 0.0
O69 O 0.88032 0.72223 0.39924 0.0
C70 C 0.01277 0.70763 0.609 0.0
O71 O 0.07676 0.72878 0.58145 0.0
Cd72 Cd 0.24737 0.8612 0.59018 0.0
O73 O 0.0395 0.75282 0.64151 0.0
Cd74 Cd 0.19083 0.88075 0.67411 0.0
C75 C 0.19924 0.04894 0.61031 0.0
O76 O 0.33784 0.86889 0.65056 0.0
O77 O 0.36515 0.00925 0.67384 0.0
O78 O 0.18318 0.78905 0.73319 0.0
C79 C 0.40065 0.95525 0.66149 0.0
O80 O 0.22858 0.00724 0.58528 0.0
C81 C 0.1407 0.82559 0.75442 0.0
O82 O 0.17591 0.01678 0.64537 0.0
O83 O 0.12466 0.89097 0.739 0.0
C84 C 0.904 0.65291 0.60039 0.0
O85 O 0.84149 0.6099 0.62795 0.0
Cd86 Cd 0.66817 0.57586 0.61939 0.0
O87 O 0.87348 0.67038 0.56811 0.0
Cd88 Cd 0.71714 0.64542 0.53525 0.0
C89 C 0.71053 0.8063 0.59916 0.0
O90 O 0.57857 0.4912 0.55968 0.0
O91 O 0.53635 0.59531 0.5354 0.0
O92 O 0.73995 0.56988 0.47606 0.0
C93 C 0.50906 0.51017 0.54834 0.0
O94 O 0.6846 0.73877 0.62459 0.0
C95 C 0.77533 0.64643 0.4552 0.0
O96 O 0.72884 0.79371 0.56366 0.0
O97 O 0.77959 0.72219 0.47072 0.0
C98 C 0.91554 0.82144 0.92036 0.0
O99 O -0.02408 0.90164 0.90417 0.0
Cd100 Cd 0.09598 0.94182 0.85136 0.0
O101 O 0.91893 0.74401 0.9118 0.0
Cd102 Cd 0.05445 0.73121 0.87464 0.0
C103 C 0.24496 0.94136 0.91757 0.0
O104 O 0.04039 0.8011 0.81185 0.0
O105 O 0.15833 0.75988 0.81536 0.0
O106 O 0.91876 0.56311 0.87444 0.0
C107 C 0.11091 0.79276 0.79496 0.0
O108 O 0.25282 -0.01641 0.88484 0.0
C109 C -0.02431 0.52598 0.88179 0.0
O110 O 0.17746 0.8522 0.92195 0.0
O111 O 0.06987 0.58418 0.88655 0.0
C112 C 0.27823 0.2384 0.26101 0.0
O113 O 0.321 0.21721 0.28858 0.0
Cd114 Cd 0.35916 0.08474 0.27984 0.0
O115 O 0.25979 0.19323 0.2285 0.0
Cd116 Cd 0.2832 0.06536 0.19587 0.0
C117 C 0.12332 0.89713 0.25964 0.0
O118 O 0.44194 0.07707 0.21945 0.0
O119 O 0.32895 0.93681 0.19608 0.0
O120 O 0.36746 0.15727 0.13686 0.0
C121 C 0.41839 -0.00927 0.20849 0.0
O122 O 0.19432 0.93877 0.28468 0.0
C123 C 0.28849 0.12097 0.11561 0.0
O124 O 0.1322 0.9293 0.22457 0.0
O125 O 0.20702 0.05558 0.13099 0.0
C126 C 0.00666 0.29306 0.60039 0.0
O127 O 0.06917 0.33607 0.62795 0.0
Cd128 Cd 0.2425 0.37011 0.6194 0.0
O129 O 0.03719 0.27559 0.56812 0.0
Cd130 Cd 0.19353 0.30055 0.53525 0.0
C131 C 0.20014 0.13967 0.59916 0.0
O132 O 0.33209 0.45477 0.55968 0.0
O133 O 0.37432 0.35067 0.5354 0.0
O134 O 0.17071 0.37608 0.47606 0.0
C135 C 0.4016 0.43581 0.54834 0.0
O136 O 0.22607 0.20721 0.6246 0.0
C137 C 0.13533 0.29953 0.4552 0.0
O138 O 0.18183 0.15227 0.56366 0.0
O139 O 0.13107 0.22378 0.47072 0.0
C140 C -0.00488 0.12452 0.92036 0.0
O141 O 0.93474 0.04432 0.90418 0.0
Cd142 Cd 0.81468 0.00415 0.85137 0.0
O143 O -0.00827 0.20196 0.9118 0.0
Cd144 Cd 0.85621 0.21476 0.87464 0.0
C145 C 0.66571 0.00461 0.91757 0.0
O146 O 0.87027 0.14487 0.81185 0.0
O147 O 0.75233 0.18608 0.81536 0.0
O148 O -0.0081 0.38285 0.87444 0.0
C149 C 0.79976 0.1532 0.79496 0.0
O150 O 0.65784 0.96237 0.88484 0.0
C151 C 0.93497 0.41998 0.88178 0.0
O152 O 0.73321 0.09376 0.92195 0.0
O153 O 0.84079 0.36178 0.88656 0.0
C154 C 0.63243 0.70755 0.26101 0.0
O155 O 0.58966 0.72874 0.28858 0.0
Cd156 Cd 0.55149 0.86121 0.27983 0.0
O157 O 0.65086 0.75272 0.2285 0.0
Cd158 Cd 0.62746 0.88059 0.19587 0.0
C159 C 0.78733 0.04882 0.25964 0.0
O160 O 0.46872 0.86888 0.21945 0.0
O161 O 0.58171 0.00914 0.19608 0.0
O162 O 0.5432 0.78868 0.13686 0.0
C163 C 0.49226 0.95521 0.20848 0.0
O164 O 0.71634 0.00718 0.28468 0.0
C165 C 0.62217 0.82499 0.11561 0.0
O166 O 0.77846 0.01665 0.22457 0.0
O167 O 0.70364 0.89037 0.13099 0.0
loop_
_geom_bond_atom_site_label_1
_geom_bond_atom_site_label_2
_geom_bond_distance
_geom_bond_site_symmetry_2
_ccdc_geom_bond_type
C0 O1 1.306 . S
C0 O3 1.160 1_554 S
O1 C0 1.306 . S
O1 Cd2 2.228 . S
Cd2 O1 2.228 . S
Cd2 O6 2.273 . S
Cd2 O10 2.277 . S
O3 C0 1.160 1_556 S
O3 Cd4 2.203 1_556 S
Cd4 O3 2.203 1_554 S
Cd4 O6 2.411 . S
Cd4 O7 2.333 . S
Cd4 O8 2.352 . S
Cd4 O12 2.277 1_554 S
Cd4 O13 2.356 . S
C5 O10 1.209 . S
C5 O12 1.226 1_554 S
O6 Cd2 2.273 . S
O6 Cd4 2.411 . S
O6 C9 1.320 . S
O7 Cd4 2.333 . S
O7 C9 1.214 . S
O8 Cd4 2.352 . S
O8 C11 1.258 . S
C9 O6 1.320 . S
C9 O7 1.214 . S
O10 Cd2 2.277 . S
O10 C5 1.209 . S
C11 O8 1.258 . S
C11 O13 1.282 . S
O12 Cd4 2.277 1_556 S
O12 C5 1.226 1_556 S
O13 Cd4 2.356 . S
O13 C11 1.282 . S
C14 O15 1.306 . S
C14 O17 1.160 . S
O15 C14 1.306 . S
O15 Cd16 2.228 . S
Cd16 O15 2.228 . S
Cd16 O20 2.273 . S
Cd16 O24 2.277 1_455 S
O17 C14 1.160 . S
O17 Cd18 2.203 . S
Cd18 O17 2.203 . S
Cd18 O20 2.411 . S
Cd18 O21 2.333 . S
Cd18 O22 2.352 . S
Cd18 O26 2.277 1_455 S
Cd18 O27 2.356 . S
C19 O24 1.209 . S
C19 O26 1.226 . S
O20 Cd16 2.273 . S
O20 Cd18 2.411 . S
O20 C23 1.320 . S
O21 Cd18 2.333 . S
O21 C23 1.214 . S
O22 Cd18 2.352 . S
O22 C25 1.258 . S
C23 O20 1.320 . S
C23 O21 1.214 . S
O24 Cd16 2.277 1_655 S
O24 C19 1.209 . S
C25 O22 1.258 . S
C25 O27 1.282 . S
O26 Cd18 2.277 1_655 S
O26 C19 1.226 . S
O27 Cd18 2.356 . S
O27 C25 1.282 . S
C28 O29 1.306 . S
C28 O31 1.160 . S
O29 C28 1.306 . S
O29 Cd30 2.228 . S
Cd30 O29 2.228 . S
Cd30 O34 2.273 . S
Cd30 O38 2.277 1_545 S
O31 C28 1.160 . S
O31 Cd32 2.203 . S
Cd32 O31 2.203 . S
Cd32 O34 2.411 . S
Cd32 O35 2.333 . S
Cd32 O36 2.352 . S
Cd32 O40 2.277 1_545 S
Cd32 O41 2.356 . S
C33 O38 1.209 . S
C33 O40 1.226 . S
O34 Cd30 2.273 . S
O34 Cd32 2.411 . S
O34 C37 1.320 . S
O35 Cd32 2.333 . S
O35 C37 1.214 . S
O36 Cd32 2.352 . S
O36 C39 1.258 . S
C37 O34 1.320 . S
C37 O35 1.214 . S
O38 Cd30 2.277 1_565 S
O38 C33 1.209 . S
C39 O36 1.258 . S
C39 O41 1.282 . S
O40 Cd32 2.277 1_565 S
O40 C33 1.226 . S
O41 Cd32 2.356 . S
O41 C39 1.282 . S
C42 O43 1.306 . S
C42 O45 1.160 1_554 S
O43 C42 1.306 . S
O43 Cd44 2.228 . S
Cd44 O43 2.228 . S
Cd44 O48 2.273 . S
Cd44 O52 2.277 . S
O45 C42 1.160 1_556 S
O45 Cd46 2.203 1_556 S
Cd46 O45 2.203 1_554 S
Cd46 O48 2.411 . S
Cd46 O49 2.333 . S
Cd46 O50 2.352 . S
Cd46 O54 2.277 1_554 S
Cd46 O55 2.356 . S
C47 O52 1.209 . S
C47 O54 1.226 1_554 S
O48 Cd44 2.273 . S
O48 Cd46 2.411 . S
O48 C51 1.320 . S
O49 Cd46 2.333 . S
O49 C51 1.214 . S
O50 Cd46 2.352 . S
O50 C53 1.258 . S
C51 O48 1.320 . S
C51 O49 1.214 . S
O52 Cd44 2.277 . S
O52 C47 1.209 . S
C53 O50 1.258 . S
C53 O55 1.282 . S
O54 Cd46 2.277 1_556 S
O54 C47 1.226 1_556 S
O55 Cd46 2.356 . S
O55 C53 1.282 . S
C56 O57 1.306 . S
C56 O59 1.160 . S
O57 C56 1.306 . S
O57 Cd58 2.228 . S
Cd58 O57 2.228 . S
Cd58 O62 2.273 . S
Cd58 O66 2.277 1_655 S
O59 C56 1.160 . S
O59 Cd60 2.203 . S
Cd60 O59 2.203 . S
Cd60 O62 2.411 . S
Cd60 O63 2.333 . S
Cd60 O64 2.352 . S
Cd60 O68 2.277 1_655 S
Cd60 O69 2.356 . S
C61 O66 1.209 . S
C61 O68 1.226 . S
O62 Cd58 2.273 . S
O62 Cd60 2.411 . S
O62 C65 1.320 . S
O63 Cd60 2.333 . S
O63 C65 1.214 . S
O64 Cd60 2.352 . S
O64 C67 1.258 . S
C65 O62 1.320 . S
C65 O63 1.214 . S
O66 Cd58 2.277 1_455 S
O66 C61 1.209 . S
C67 O64 1.258 . S
C67 O69 1.282 . S
O68 Cd60 2.277 1_455 S
O68 C61 1.226 . S
O69 Cd60 2.356 . S
O69 C67 1.282 . S
C70 O71 1.306 . S
C70 O73 1.160 . S
O71 C70 1.306 . S
O71 Cd72 2.228 . S
Cd72 O71 2.228 . S
Cd72 O76 2.273 . S
Cd72 O80 2.277 1_565 S
O73 C70 1.160 . S
O73 Cd74 2.203 . S
Cd74 O73 2.203 . S
Cd74 O76 2.411 . S
Cd74 O77 2.333 . S
Cd74 O78 2.352 . S
Cd74 O82 2.277 1_565 S
Cd74 O83 2.356 . S
C75 O80 1.209 . S
C75 O82 1.226 . S
O76 Cd72 2.273 . S
O76 Cd74 2.411 . S
O76 C79 1.320 . S
O77 Cd74 2.333 . S
O77 C79 1.214 . S
O78 Cd74 2.352 . S
O78 C81 1.258 . S
C79 O76 1.320 . S
C79 O77 1.214 . S
O80 Cd72 2.277 1_545 S
O80 C75 1.209 . S
C81 O78 1.258 . S
C81 O83 1.282 . S
O82 Cd74 2.277 1_545 S
O82 C75 1.226 . S
O83 Cd74 2.356 . S
O83 C81 1.282 . S
C84 O85 1.306 . S
C84 O87 1.160 . S
O85 C84 1.306 . S
O85 Cd86 2.228 . S
Cd86 O85 2.228 . S
Cd86 O90 2.273 . S
Cd86 O94 2.277 . S
O87 C84 1.160 . S
O87 Cd88 2.203 . S
Cd88 O87 2.203 . S
Cd88 O90 2.411 . S
Cd88 O91 2.333 . S
Cd88 O92 2.352 . S
Cd88 O96 2.277 . S
Cd88 O97 2.356 . S
C89 O94 1.209 . S
C89 O96 1.226 . S
O90 Cd86 2.273 . S
O90 Cd88 2.411 . S
O90 C93 1.320 . S
O91 Cd88 2.333 . S
O91 C93 1.214 . S
O92 Cd88 2.352 . S
O92 C95 1.258 . S
C93 O90 1.320 . S
C93 O91 1.214 . S
O94 Cd86 2.277 . S
O94 C89 1.209 . S
C95 O92 1.258 . S
C95 O97 1.282 . S
O96 Cd88 2.277 . S
O96 C89 1.226 . S
O97 Cd88 2.356 . S
O97 C95 1.282 . S
C98 O99 1.306 . S
C98 O101 1.160 1_556 S
O99 C98 1.306 . S
O99 Cd100 2.228 1_655 S
Cd100 O99 2.228 1_455 S
Cd100 O104 2.273 . S
Cd100 O108 2.277 . S
O101 C98 1.160 1_554 S
O101 Cd102 2.203 1_654 S
Cd102 O101 2.203 1_456 S
Cd102 O104 2.411 . S
Cd102 O105 2.333 . S
Cd102 O106 2.352 . S
Cd102 O110 2.277 1_556 S
Cd102 O111 2.356 . S
C103 O108 1.209 . S
C103 O110 1.226 1_556 S
O104 Cd100 2.273 . S
O104 Cd102 2.411 . S
O104 C107 1.320 . S
O105 Cd102 2.333 . S
O105 C107 1.214 . S
O106 Cd102 2.352 . S
O106 C109 1.258 . S
C107 O104 1.320 . S
C107 O105 1.214 . S
O108 Cd100 2.277 . S
O108 C103 1.209 . S
C109 O106 1.258 . S
C109 O111 1.282 . S
O110 Cd102 2.277 1_554 S
O110 C103 1.226 1_554 S
O111 Cd102 2.356 . S
O111 C109 1.282 . S
C112 O113 1.306 . S
C112 O115 1.160 . S
O113 C112 1.306 . S
O113 Cd114 2.228 . S
Cd114 O113 2.228 . S
Cd114 O118 2.273 . S
Cd114 O122 2.277 1_545 S
O115 C112 1.160 . S
O115 Cd116 2.203 . S
Cd116 O115 2.203 . S
Cd116 O118 2.411 . S
Cd116 O119 2.333 . S
Cd116 O120 2.352 . S
Cd116 O124 2.277 1_545 S
Cd116 O125 2.356 . S
C117 O122 1.209 . S
C117 O124 1.226 . S
O118 Cd114 2.273 . S
O118 Cd116 2.411 . S
O118 C121 1.320 . S
O119 Cd116 2.333 . S
O119 C121 1.214 . S
O120 Cd116 2.352 . S
O120 C123 1.258 . S
C121 O118 1.320 . S
C121 O119 1.214 . S
O122 Cd114 2.277 1_565 S
O122 C117 1.209 . S
C123 O120 1.258 . S
C123 O125 1.282 . S
O124 Cd116 2.277 1_565 S
O124 C117 1.226 . S
O125 Cd116 2.356 . S
O125 C123 1.282 . S
C126 O127 1.306 . S
C126 O129 1.160 . S
O127 C126 1.306 . S
O127 Cd128 2.228 . S
Cd128 O127 2.228 . S
Cd128 O132 2.273 . S
Cd128 O136 2.277 . S
O129 C126 1.160 . S
O129 Cd130 2.203 . S
Cd130 O129 2.203 . S
Cd130 O132 2.411 . S
Cd130 O133 2.333 . S
Cd130 O134 2.352 . S
Cd130 O138 2.277 . S
Cd130 O139 2.356 . S
C131 O136 1.209 . S
C131 O138 1.226 . S
O132 Cd128 2.273 . S
O132 Cd130 2.411 . S
O132 C135 1.320 . S
O133 Cd130 2.333 . S
O133 C135 1.214 . S
O134 Cd130 2.352 . S
O134 C137 1.258 . S
C135 O132 1.320 . S
C135 O133 1.214 . S
O136 Cd128 2.277 . S
O136 C131 1.209 . S
C137 O134 1.258 . S
C137 O139 1.282 . S
O138 Cd130 2.277 . S
O138 C131 1.226 . S
O139 Cd130 2.356 . S
O139 C137 1.282 . S
C140 O141 1.306 . S
C140 O143 1.160 1_556 S
O141 C140 1.306 . S
O141 Cd142 2.228 1_455 S
Cd142 O141 2.228 1_655 S
Cd142 O146 2.273 . S
Cd142 O150 2.277 . S
O143 C140 1.160 1_554 S
O143 Cd144 2.203 1_454 S
Cd144 O143 2.203 1_656 S
Cd144 O146 2.411 . S
Cd144 O147 2.333 . S
Cd144 O148 2.352 . S
Cd144 O152 2.277 1_556 S
Cd144 O153 2.356 . S
C145 O150 1.209 . S
C145 O152 1.226 1_556 S
O146 Cd142 2.273 . S
O146 Cd144 2.411 . S
O146 C149 1.320 . S
O147 Cd144 2.333 . S
O147 C149 1.214 . S
O148 Cd144 2.352 . S
O148 C151 1.258 . S
C149 O146 1.320 . S
C149 O147 1.214 . S
O150 Cd142 2.277 . S
O150 C145 1.209 . S
C151 O148 1.258 . S
C151 O153 1.282 . S
O152 Cd144 2.277 1_554 S
O152 C145 1.226 1_554 S
O153 Cd144 2.356 . S
O153 C151 1.282 . S
C154 O155 1.306 . S
C154 O157 1.160 . S
O155 C154 1.306 . S
O155 Cd156 2.228 . S
Cd156 O155 2.228 . S
Cd156 O160 2.273 . S
Cd156 O164 2.277 1_565 S
O157 C154 1.160 . S
O157 Cd158 2.203 . S
Cd158 O157 2.203 . S
Cd158 O160 2.411 . S
Cd158 O161 2.333 . S
Cd158 O162 2.352 . S
Cd158 O166 2.277 1_565 S
Cd158 O167 2.356 . S
C159 O164 1.209 . S
C159 O166 1.226 . S
O160 Cd156 2.273 . S
O160 Cd158 2.411 . S
O160 C163 1.320 . S
O161 Cd158 2.333 . S
O161 C163 1.214 . S
O162 Cd158 2.352 . S
O162 C165 1.258 . S
C163 O160 1.320 . S
C163 O161 1.214 . S
O164 Cd156 2.277 1_545 S
O164 C159 1.209 . S
C165 O162 1.258 . S
C165 O167 1.282 . S
O166 Cd158 2.277 1_545 S
O166 C159 1.226 . S
O167 Cd158 2.356 . S
O167 C165 1.282 . S
C53 C11 1.953 . S
C23 C65 1.755 1_455 S
C79 C37 1.632 1_565 S
C93 C135 1.755 . S
C151 C109 1.953 1_655 S
C121 C163 1.631 1_545 S
C123 C9 1.625 . S
C25 C137 1.645 . S
C39 C149 1.625 . S
C51 C165 1.625 . S
C95 C67 1.645 . S
C107 C81 1.625 . S
C103 C5 1.284 1_566 S
C14 C112 1.688 . S
C28 C126 1.688 1_655 S
C47 C145 1.284 1_564 S
C154 C56 1.688 . S
C70 C84 1.688 1_455 S
C140 C0 1.292 1_556 S
C159 C19 1.542 . S
C89 C33 1.542 . S
C42 C98 1.292 1_554 S
C61 C117 1.542 . S
C75 C131 1.542 . S
