# Generated by pormake.
# Topology sxa, (6)-cn, num edge types: 1
# Building blocks:
#     Node 0, Type 0, BuildingBlock: JUFBIX_clean_sbu_0, # of connection points: 6
#     Node 1, Type 0, BuildingBlock: JUFBIX_clean_sbu_0, # of connection points: 6
#     Node 2, Type 0, BuildingBlock: JUFBIX_clean_sbu_0, # of connection points: 6
#     Node 3, Type 0, BuildingBlock: JUFBIX_clean_sbu_0, # of connection points: 6
#     Edge 4, Type (0, 0), None
#     Edge 5, Type (0, 0), None
#     Edge 6, Type (0, 0), None
#     Edge 7, Type (0, 0), None
#     Edge 8, Type (0, 0), None
#     Edge 9, Type (0, 0), None
#     Edge 10, Type (0, 0), None
#     Edge 11, Type (0, 0), None
#     Edge 12, Type (0, 0), None
#     Edge 13, Type (0, 0), None
#     Edge 14, Type (0, 0), None
#     Edge 15, Type (0, 0), None
# Relax obj value: 0.649
# Max RMSD: 0.350
# Mean RMSD: 0.350
data_MOF--net-sxa--node1-JUFBIX_clean_sbu_0--edge1-none
_symmetry_space_group_name_H-M    P1
_symmetry_Int_Tables_number       1
_symmetry_cell_setting            triclinic
loop_
_symmetry_equiv_pos_as_xyz
'x, y, z'
_cell_length_a     14.589765
_cell_length_b     12.173249
_cell_length_c     8.0504934
_cell_angle_alpha  81.832116
_cell_angle_beta   62.819484
_cell_angle_gamma 79.572929
loop_
_atom_site_label
_atom_site_type_symbol
_atom_site_fract_x
_atom_site_fract_y
_atom_site_fract_z
_atom_type_partial_charge
Co0 Co 0.04643 0.76274 1.06627 0.0
C1 C 0.07139 0.9482 1.00671 0.0
Co2 Co 0.08514 0.71029 0.33087 0.0
C3 C 0.85517 0.71981 0.16804 0.0
C4 C 0.89419 0.85198 0.95358 0.0
N5 N 0.93465 0.75925 1.02264 0.0
N6 N 0.77224 0.79616 0.21839 0.0
C7 C 0.79734 0.88096 0.08326 0.0
H8 H 0.86107 0.64527 0.25325 0.0
H9 H 0.93545 0.90354 0.82872 0.0
C10 C 0.07009 0.58722 1.01837 0.0
N11 N 0.1409 0.76384 0.47188 0.0
C12 C 0.20138 0.83917 0.46775 0.0
C13 C 0.17994 0.66712 0.53446 0.0
N14 N 0.27357 0.79004 0.52956 0.0
C15 C 0.26338 0.68114 0.55917 0.0
C16 C 0.87725 0.80552 0.50494 0.0
O17 O 0.11647 0.66125 0.89569 0.0
O18 O 0.03902 0.60635 0.19341 0.0
O19 O 0.94437 0.73852 0.53552 0.0
O20 O 0.91278 0.84645 0.33044 0.0
O21 O 0.07293 0.90469 0.16946 0.0
H22 H 0.1597 0.58672 0.53203 0.0
H23 H 0.20288 0.9213 0.3972 0.0
O24 O 0.07356 0.88198 0.90078 0.0
O25 O 0.20298 0.77766 1.0309 0.0
O26 O 0.22773 0.64077 0.19067 0.0
C27 C 0.26423 0.72036 0.08789 0.0
H28 H 0.74788 0.95517 1.06918 0.0
H29 H 0.31247 0.61504 0.59645 0.0
Co30 Co 0.54643 0.26274 1.06627 0.0
C31 C 0.57139 0.4482 1.00671 0.0
Co32 Co 0.58514 0.21029 0.33087 0.0
C33 C 0.35517 0.21981 0.16804 0.0
C34 C 0.39419 0.35198 0.95358 0.0
N35 N 0.43465 0.25925 1.02264 0.0
N36 N 0.27224 0.29616 0.21839 0.0
C37 C 0.29734 0.38096 0.08326 0.0
H38 H 0.36107 0.14527 0.25325 0.0
H39 H 0.43545 0.40354 0.82872 0.0
C40 C 0.57009 0.08722 1.01837 0.0
N41 N 0.6409 0.26384 0.47188 0.0
C42 C 0.70138 0.33917 0.46775 0.0
C43 C 0.67994 0.16712 0.53446 0.0
N44 N 0.77357 0.29004 0.52956 0.0
C45 C 0.76338 0.18114 0.55917 0.0
C46 C 0.37725 0.30552 0.50494 0.0
O47 O 0.61647 0.16125 0.89569 0.0
O48 O 0.53902 0.10635 0.19341 0.0
O49 O 0.44437 0.23852 0.53552 0.0
O50 O 0.41278 0.34645 0.33044 0.0
O51 O 0.57293 0.40469 0.16946 0.0
H52 H 0.6597 0.08672 0.53203 0.0
H53 H 0.70288 0.4213 0.3972 0.0
O54 O 0.57356 0.38198 0.90078 0.0
O55 O 0.70298 0.27766 1.0309 0.0
O56 O 0.72773 0.14077 0.19067 0.0
C57 C 0.76423 0.22036 0.08789 0.0
H58 H 0.24788 0.45517 1.06918 0.0
H59 H 0.81247 0.11504 0.59645 0.0
Co60 Co 0.04132 0.31223 0.7961 0.0
C61 C 0.03629 0.49198 0.9625 0.0
Co62 Co 0.06429 0.26151 1.01091 0.0
C63 C 0.91523 0.27946 0.62192 0.0
C64 C 0.94621 0.44825 0.57393 0.0
N65 N 0.97863 0.345 0.63179 0.0
N66 N 0.85097 0.33536 0.54932 0.0
C67 C 0.86894 0.44212 0.52199 0.0
H68 H 0.91216 0.19356 0.67852 0.0
H69 H 0.97186 0.52446 0.58054 0.0
C70 C 0.08183 0.06898 0.9251 0.0
N71 N 0.06583 0.23842 0.23056 0.0
C72 C 0.1051 0.31479 0.26749 0.0
C73 C 0.0848 0.1434 0.3243 0.0
N74 N 0.17258 0.26931 0.32888 0.0
C75 C 0.15209 0.16306 0.38658 0.0
C76 C 0.86148 0.25831 1.06814 0.0
O77 O 0.03832 0.13019 0.82536 0.0
O78 O 0.1287 0.11936 0.97607 0.0
O79 O 0.92022 0.20814 0.14103 0.0
O80 O 0.89635 0.33741 0.95348 0.0
O81 O 1.00085 0.41363 0.08091 0.0
H82 H 0.06492 0.06302 0.32258 0.0
H83 H 0.10353 0.39957 0.21483 0.0
O84 O 0.05514 0.47427 0.79685 0.0
O85 O 0.18898 0.29902 0.60857 0.0
O86 O 0.22112 0.30696 0.84165 0.0
C87 C 0.25741 0.31023 0.65865 0.0
H88 H 0.82592 0.51104 0.47925 0.0
H89 H 0.1949 0.1007 0.44138 0.0
Co90 Co 0.54132 0.81223 0.7961 0.0
C91 C 0.53629 0.99198 0.9625 0.0
Co92 Co 0.56429 0.76151 1.01091 0.0
C93 C 0.41523 0.77946 0.62192 0.0
C94 C 0.44621 0.94825 0.57393 0.0
N95 N 0.47863 0.845 0.63179 0.0
N96 N 0.35097 0.83536 0.54932 0.0
C97 C 0.36894 0.94212 0.52199 0.0
H98 H 0.41216 0.69356 0.67852 0.0
H99 H 0.47186 1.02446 0.58054 0.0
C100 C 0.58183 0.56898 0.9251 0.0
N101 N 0.56583 0.73842 0.23056 0.0
C102 C 0.6051 0.81479 0.26749 0.0
C103 C 0.5848 0.6434 0.3243 0.0
N104 N 0.67258 0.76931 0.32888 0.0
C105 C 0.65209 0.66306 0.38658 0.0
C106 C 0.36148 0.75831 1.06814 0.0
O107 O 0.53832 0.63019 0.82536 0.0
O108 O 0.6287 0.61936 0.97607 0.0
O109 O 0.42022 0.70814 0.14103 0.0
O110 O 0.39635 0.83741 0.95348 0.0
O111 O 0.50085 0.91363 0.08091 0.0
H112 H 0.56492 0.56302 0.32258 0.0
H113 H 0.60353 0.89957 0.21483 0.0
O114 O 0.55514 0.97427 0.79685 0.0
O115 O 0.68898 0.79902 0.60857 0.0
O116 O 0.72112 0.80696 0.84165 0.0
C117 C 0.75741 0.81023 0.65865 0.0
H118 H 0.32592 1.01104 0.47925 0.0
H119 H 0.6949 0.6007 0.44138 0.0
loop_
_geom_bond_atom_site_label_1
_geom_bond_atom_site_label_2
_geom_bond_distance
_geom_bond_site_symmetry_2
_ccdc_geom_bond_type
Co0 N5 2.057 1_454 S
Co0 O17 2.021 . S
Co0 O20 2.062 1_455 S
Co0 O24 2.117 . S
Co0 O25 2.020 1_554 S
C1 O21 1.259 . S
C1 O24 1.258 . S
Co2 N11 2.057 . S
Co2 O18 2.117 . S
Co2 O19 2.020 1_455 S
Co2 O21 2.021 . S
Co2 O26 2.062 . S
C3 N5 1.316 . S
C3 N6 1.347 . S
C3 H8 0.931 . S
C4 N5 1.375 . S
C4 C7 1.350 . S
C4 H9 0.930 . S
N5 Co0 2.057 1_656 S
N5 C3 1.316 . S
N5 C4 1.375 . S
N6 C3 1.347 . S
N6 C7 1.373 . S
C7 C4 1.350 . S
C7 N6 1.373 . S
C7 H28 0.931 . S
H8 C3 0.931 . S
H9 C4 0.930 . S
C10 O17 1.259 . S
C10 O18 1.258 . S
N11 Co2 2.057 . S
N11 C12 1.316 . S
N11 C13 1.375 . S
C12 N11 1.316 . S
C12 N14 1.347 . S
C12 H23 0.931 . S
C13 N11 1.375 . S
C13 C15 1.350 . S
C13 H22 0.930 . S
N14 C12 1.347 . S
N14 C15 1.373 . S
C15 C13 1.350 . S
C15 N14 1.373 . S
C15 H29 0.931 . S
C16 O19 1.256 . S
C16 O20 1.255 . S
O17 Co0 2.021 . S
O17 C10 1.259 . S
O18 Co2 2.117 . S
O18 C10 1.258 . S
O19 Co2 2.020 1_655 S
O19 C16 1.256 . S
O20 Co0 2.062 1_655 S
O20 C16 1.255 . S
O21 C1 1.259 . S
O21 Co2 2.021 . S
H22 C13 0.930 . S
H23 C12 0.931 . S
O24 Co0 2.117 . S
O24 C1 1.258 . S
O25 Co0 2.020 1_556 S
O25 C27 1.256 . S
O26 Co2 2.062 . S
O26 C27 1.255 1_554 S
C27 O25 1.256 . S
C27 O26 1.255 1_556 S
H28 C7 0.931 . S
H29 C15 0.931 . S
Co30 N35 2.057 1_554 S
Co30 O47 2.021 . S
Co30 O50 2.062 . S
Co30 O54 2.117 . S
Co30 O55 2.020 1_554 S
C31 O51 1.259 . S
C31 O54 1.258 . S
Co32 N41 2.057 . S
Co32 O48 2.117 . S
Co32 O49 2.020 . S
Co32 O51 2.021 . S
Co32 O56 2.062 . S
C33 N35 1.316 . S
C33 N36 1.347 . S
C33 H38 0.931 . S
C34 N35 1.375 . S
C34 C37 1.350 . S
C34 H39 0.930 . S
N35 Co30 2.057 1_556 S
N35 C33 1.316 . S
N35 C34 1.375 . S
N36 C33 1.347 . S
N36 C37 1.373 . S
C37 C34 1.350 . S
C37 N36 1.373 . S
C37 H58 0.931 . S
H38 C33 0.931 . S
H39 C34 0.930 . S
C40 O47 1.259 . S
C40 O48 1.258 . S
N41 Co32 2.057 . S
N41 C42 1.316 . S
N41 C43 1.375 . S
C42 N41 1.316 . S
C42 N44 1.347 . S
C42 H53 0.931 . S
C43 N41 1.375 . S
C43 C45 1.350 . S
C43 H52 0.930 . S
N44 C42 1.347 . S
N44 C45 1.373 . S
C45 C43 1.350 . S
C45 N44 1.373 . S
C45 H59 0.931 . S
C46 O49 1.256 . S
C46 O50 1.255 . S
O47 Co30 2.021 . S
O47 C40 1.259 . S
O48 Co32 2.117 . S
O48 C40 1.258 . S
O49 Co32 2.020 . S
O49 C46 1.256 . S
O50 Co30 2.062 . S
O50 C46 1.255 . S
O51 C31 1.259 . S
O51 Co32 2.021 . S
H52 C43 0.930 . S
H53 C42 0.931 . S
O54 Co30 2.117 . S
O54 C31 1.258 . S
O55 Co30 2.020 1_556 S
O55 C57 1.256 . S
O56 Co32 2.062 . S
O56 C57 1.255 1_554 S
C57 O55 1.256 . S
C57 O56 1.255 1_556 S
H58 C37 0.931 . S
H59 C45 0.931 . S
Co60 N65 2.057 1_455 S
Co60 O77 2.021 . S
Co60 O80 2.062 1_455 S
Co60 O84 2.117 . S
Co60 O85 2.020 . S
C61 O81 1.259 . S
C61 O84 1.258 . S
Co62 N71 2.057 1_556 S
Co62 O78 2.117 . S
Co62 O79 2.020 1_456 S
Co62 O81 2.021 . S
Co62 O86 2.062 . S
C63 N65 1.316 . S
C63 N66 1.347 . S
C63 H68 0.931 . S
C64 N65 1.375 . S
C64 C67 1.350 . S
C64 H69 0.930 . S
N65 Co60 2.057 1_655 S
N65 C63 1.316 . S
N65 C64 1.375 . S
N66 C63 1.347 . S
N66 C67 1.373 . S
C67 C64 1.350 . S
C67 N66 1.373 . S
C67 H88 0.931 . S
H68 C63 0.931 . S
H69 C64 0.930 . S
C70 O77 1.259 . S
C70 O78 1.258 . S
N71 Co62 2.057 1_554 S
N71 C72 1.316 . S
N71 C73 1.375 . S
C72 N71 1.316 . S
C72 N74 1.347 . S
C72 H83 0.931 . S
C73 N71 1.375 . S
C73 C75 1.350 . S
C73 H82 0.930 . S
N74 C72 1.347 . S
N74 C75 1.373 . S
C75 C73 1.350 . S
C75 N74 1.373 . S
C75 H89 0.931 . S
C76 O79 1.256 . S
C76 O80 1.255 1_554 S
O77 Co60 2.021 . S
O77 C70 1.259 . S
O78 Co62 2.117 . S
O78 C70 1.258 . S
O79 Co62 2.020 1_654 S
O79 C76 1.256 . S
O80 Co60 2.062 1_655 S
O80 C76 1.255 1_556 S
O81 C61 1.259 . S
O81 Co62 2.021 . S
H82 C73 0.930 . S
H83 C72 0.931 . S
O84 Co60 2.117 . S
O84 C61 1.258 . S
O85 Co60 2.020 . S
O85 C87 1.256 . S
O86 Co62 2.062 . S
O86 C87 1.255 . S
C87 O85 1.256 . S
C87 O86 1.255 . S
H88 C67 0.931 . S
H89 C75 0.931 . S
Co90 N95 2.057 . S
Co90 O107 2.021 . S
Co90 O110 2.062 . S
Co90 O114 2.117 . S
Co90 O115 2.020 . S
C91 O111 1.259 . S
C91 O114 1.258 . S
Co92 N101 2.057 1_556 S
Co92 O108 2.117 . S
Co92 O109 2.020 1_556 S
Co92 O111 2.021 . S
Co92 O116 2.062 . S
C93 N95 1.316 . S
C93 N96 1.347 . S
C93 H98 0.931 . S
C94 N95 1.375 . S
C94 C97 1.350 . S
C94 H99 0.930 . S
N95 Co90 2.057 . S
N95 C93 1.316 . S
N95 C94 1.375 . S
N96 C93 1.347 . S
N96 C97 1.373 . S
C97 C94 1.350 . S
C97 N96 1.373 . S
C97 H118 0.931 . S
H98 C93 0.931 . S
H99 C94 0.930 . S
C100 O107 1.259 . S
C100 O108 1.258 . S
N101 Co92 2.057 1_554 S
N101 C102 1.316 . S
N101 C103 1.375 . S
C102 N101 1.316 . S
C102 N104 1.347 . S
C102 H113 0.931 . S
C103 N101 1.375 . S
C103 C105 1.350 . S
C103 H112 0.930 . S
N104 C102 1.347 . S
N104 C105 1.373 . S
C105 C103 1.350 . S
C105 N104 1.373 . S
C105 H119 0.931 . S
C106 O109 1.256 . S
C106 O110 1.255 1_554 S
O107 Co90 2.021 . S
O107 C100 1.259 . S
O108 Co92 2.117 . S
O108 C100 1.258 . S
O109 Co92 2.020 1_554 S
O109 C106 1.256 . S
O110 Co90 2.062 . S
O110 C106 1.255 1_556 S
O111 C91 1.259 . S
O111 Co92 2.021 . S
H112 C103 0.930 . S
H113 C102 0.931 . S
O114 Co90 2.117 . S
O114 C91 1.258 . S
O115 Co90 2.020 . S
O115 C117 1.256 . S
O116 Co92 2.062 . S
O116 C117 1.255 . S
C117 O115 1.256 . S
C117 O116 1.255 . S
H118 C97 0.931 . S
H119 C105 0.931 . S
C61 C10 3.539 1_556 S
C31 C100 3.939 1_554 S
C91 C40 3.539 1_566 S
C1 C70 3.938 1_564 S
N96 N14 2.107 . S
C87 C46 1.632 . S
N66 N44 2.107 . S
C16 C117 1.632 . S
C106 C27 2.597 1_554 S
N74 N36 3.291 1_554 S
C57 C76 2.597 1_556 S
N6 N104 3.291 1_556 S
