# Generated by pormake.
# Topology pcu, (6)-cn, num edge types: 1
# Building blocks:
#     Node 0, Type 0, BuildingBlock: CUKXOW_clean_sbu_0, # of connection points: 6
#     Edge 1, Type (0, 0), BuildingBlock: XIVTED_clean_linker_0, # of connection points: 2
#     Edge 2, Type (0, 0), BuildingBlock: XIVTED_clean_linker_0, # of connection points: 2
#     Edge 3, Type (0, 0), BuildingBlock: XIVTED_clean_linker_0, # of connection points: 2
# Relax obj value: 0.000
# Max RMSD: 0.000
# Mean RMSD: 0.000
data_MOF--net-pcu--node1-CUKXOW_clean_sbu_0--edge1-XIVTED_clean_linker_0
_symmetry_space_group_name_H-M    P1
_symmetry_Int_Tables_number       1
_symmetry_cell_setting            triclinic
loop_
_symmetry_equiv_pos_as_xyz
'x, y, z'
_cell_length_a     13.864551
_cell_length_b     18.324596
_cell_length_c     15.562571
_cell_angle_alpha  83.775823
_cell_angle_beta   104.96258
_cell_angle_gamma 123.87292
loop_
_atom_site_label
_atom_site_type_symbol
_atom_site_fract_x
_atom_site_fract_y
_atom_site_fract_z
_atom_type_partial_charge
Tb0 Tb 0.04961 0.08244 0.98246 0.0
C1 C 1.01411 -0.0109 0.81011 0.0
Tb2 Tb 0.99039 0.893 -0.0046 0.0
O3 O 0.22336 0.13028 0.95648 0.0
O4 O 0.14281 0.02113 0.03361 0.0
O5 O 1.01143 0.05211 0.84206 0.0
C6 C 0.99831 0.75071 -0.00377 0.0
O7 O 1.01739 0.92639 0.86005 0.0
C8 C 0.81074 0.90905 0.98044 0.0
C9 C 0.02598 0.98637 0.16777 0.0
O10 O 0.90496 0.75364 0.96041 0.0
O11 O 0.08622 0.82743 0.03174 0.0
O12 O 0.81665 0.84543 0.02147 0.0
O13 O 0.8974 0.95432 0.94432 0.0
O14 O 0.02865 0.92336 0.13581 0.0
O15 O 0.02265 0.04906 0.11782 0.0
C16 C 0.04154 0.22466 0.98169 0.0
O17 O 0.13488 0.22175 0.01758 0.0
O18 O 0.95371 0.14796 0.94608 0.0
C19 C 0.22944 0.06671 -0.00254 0.0
H20 H 0.03207 0.87052 0.29291 0.0
H21 H 1.00811 0.10498 0.68498 0.0
H22 H 1.0184 0.10197 0.25971 0.0
H23 H 0.0217 0.87349 0.71817 0.0
H24 H 1.0116 0.10477 0.52908 0.0
H25 H 0.02861 0.87074 0.44882 0.0
C26 C 0.02854 0.92154 0.31828 0.0
C27 C 0.02566 0.98642 0.26285 0.0
C28 C 1.0137 0.05397 0.57044 0.0
C29 C 0.02145 0.98684 0.44173 0.0
C30 C 1.01162 0.05396 0.65961 0.0
C31 C 1.01447 -0.01094 0.71503 0.0
C32 C 1.01872 -0.01135 0.53616 0.0
C33 C 1.0192 0.9248 0.67813 0.0
C34 C 0.02648 0.92153 0.40745 0.0
C35 C 0.02092 0.05068 0.29975 0.0
N36 N 0.0212 0.92626 0.59109 0.0
N37 N 1.01894 0.04922 0.3868 0.0
H38 H 0.37035 0.12139 0.87985 0.0
H39 H 0.67059 0.85511 0.09842 0.0
H40 H 0.29142 0.96783 0.112 0.0
H41 H 0.74865 0.0078 0.86566 0.0
H42 H 0.52967 0.89435 0.10381 0.0
H43 H 0.51154 0.08237 0.87452 0.0
C44 C 0.38305 0.07952 0.92976 0.0
C45 C 0.31817 0.04661 -0.00431 0.0
C46 C 0.57781 0.91956 0.05165 0.0
C47 C 0.4788 0.00137 -0.00996 0.0
C48 C 0.65777 0.89686 0.0484 0.0
C49 C 0.72232 0.92945 0.98227 0.0
C50 C 0.56197 0.97494 0.98798 0.0
C51 C 0.70245 0.98305 0.91891 0.0
C52 C 0.46316 0.05693 0.92653 0.0
C53 C 0.33789 -0.00715 0.0589 0.0
N54 N 0.62429 0.00437 0.92343 0.0
N55 N 0.41618 0.97166 0.05442 0.0
H56 H 0.19249 0.74136 0.06462 0.0
H57 H 0.8473 0.23396 0.91331 0.0
H58 H 0.82064 0.58547 0.9251 0.0
H59 H 0.21912 0.38987 0.05291 0.0
H60 H 0.83562 0.36192 0.91678 0.0
H61 H 0.20411 0.61338 0.06119 0.0
C62 C 0.11319 0.67995 0.03343 0.0
C63 C 1.00534 0.67358 -0.00479 0.0
C64 C 0.91987 0.36832 0.94659 0.0
C65 C 1.01786 0.52708 -0.00922 0.0
C66 C 0.92657 0.29537 0.94452 0.0
C67 C 0.03444 0.30175 0.98275 0.0
C68 C 0.02186 0.44822 0.98722 0.0
C69 C 0.13435 0.38247 0.02262 0.0
C70 C 0.11987 0.60698 0.03138 0.0
C71 C 0.9054 0.59286 0.95538 0.0
N72 N 0.12567 0.45266 0.02383 0.0
N73 N 0.91405 0.52265 0.95419 0.0
loop_
_geom_bond_atom_site_label_1
_geom_bond_atom_site_label_2
_geom_bond_distance
_geom_bond_site_symmetry_2
_ccdc_geom_bond_type
Tb0 O3 2.453 . S
Tb0 O4 2.596 1_545 S
Tb0 O5 2.374 1_554 S
Tb0 O13 2.343 1_454 S
Tb0 O15 2.353 . S
Tb0 O17 2.427 . S
Tb0 O18 2.513 1_554 S
C1 O5 1.251 1_655 S
C1 O7 1.263 1_545 S
Tb2 O4 2.343 1_656 S
Tb2 O7 2.353 . S
Tb2 O10 2.427 . S
Tb2 O11 2.513 1_556 S
Tb2 O12 2.453 . S
Tb2 O13 2.596 1_565 S
Tb2 O14 2.374 1_556 S
O3 Tb0 2.453 . S
O3 C19 1.245 . S
O4 Tb0 2.596 1_565 S
O4 Tb2 2.343 1_454 S
O4 C19 1.259 1_565 S
O5 Tb0 2.374 1_556 S
O5 C1 1.251 1_455 S
C6 O10 1.273 1_554 S
C6 O11 1.247 . S
O7 C1 1.263 1_565 S
O7 Tb2 2.353 . S
C8 O12 1.245 . S
C8 O13 1.259 1_565 S
C9 O14 1.250 1_455 S
C9 O15 1.263 1_565 S
O10 Tb2 2.427 . S
O10 C6 1.273 1_556 S
O11 Tb2 2.513 1_554 S
O11 C6 1.247 . S
O12 Tb2 2.453 . S
O12 C8 1.245 . S
O13 Tb0 2.343 1_656 S
O13 Tb2 2.596 1_545 S
O13 C8 1.259 1_545 S
O14 Tb2 2.374 1_554 S
O14 C9 1.250 1_655 S
O15 Tb0 2.353 . S
O15 C9 1.263 1_545 S
C16 O17 1.276 1_556 S
C16 O18 1.245 . S
O17 Tb0 2.427 . S
O17 C16 1.276 1_554 S
O18 Tb0 2.513 1_556 S
O18 C16 1.245 . S
C19 O3 1.245 . S
C19 O4 1.259 1_545 S
H20 C26 0.930 . S
H21 C30 0.930 . S
H22 C35 0.929 . S
H23 C33 0.929 . S
H24 C28 0.929 . S
H25 C34 0.929 . S
C26 H20 0.930 . S
C26 C27 1.373 . S
C26 C34 1.378 . S
C27 C26 1.373 . S
C27 C35 1.425 1_465 S
C28 H24 0.929 . S
C28 C30 1.378 . S
C28 C32 1.360 . S
C29 C32 1.458 1_465 S
C29 C34 1.350 . S
C29 N37 1.427 1_465 S
C30 H21 0.930 . S
C30 C28 1.378 . S
C30 C31 1.371 . S
C31 C30 1.371 . S
C31 C33 1.427 1_645 S
C32 C28 1.360 . S
C32 C29 1.458 1_645 S
C32 N36 1.420 1_645 S
C33 H23 0.929 . S
C33 C31 1.427 1_465 S
C33 N36 1.384 . S
C34 H25 0.929 . S
C34 C26 1.378 . S
C34 C29 1.350 . S
C35 H22 0.929 . S
C35 C27 1.425 1_645 S
C35 N37 1.384 . S
N36 C32 1.420 1_465 S
N36 C33 1.384 . S
N37 C29 1.427 1_645 S
N37 C35 1.384 . S
H38 C44 0.930 . S
H39 C48 0.930 . S
H40 C53 0.929 . S
H41 C51 0.929 . S
H42 C46 0.929 . S
H43 C52 0.929 . S
C44 H38 0.930 . S
C44 C45 1.367 1_565 S
C44 C52 1.378 . S
C45 C44 1.367 1_545 S
C45 C53 1.434 1_556 S
C46 H42 0.929 . S
C46 C48 1.378 . S
C46 C50 1.349 . S
C47 C50 1.465 1_556 S
C47 C52 1.349 1_545 S
C47 N55 1.427 1_556 S
C48 H39 0.930 . S
C48 C46 1.378 . S
C48 C49 1.367 . S
C49 C48 1.367 . S
C49 C51 1.434 1_544 S
C50 C46 1.349 . S
C50 C47 1.465 1_554 S
C50 N54 1.427 1_544 S
C51 H41 0.929 . S
C51 C49 1.434 1_566 S
C51 N54 1.384 . S
C52 H43 0.929 . S
C52 C44 1.378 . S
C52 C47 1.349 1_565 S
C53 H40 0.929 . S
C53 C45 1.434 1_554 S
C53 N55 1.384 . S
N54 C50 1.427 1_566 S
N54 C51 1.384 . S
N55 C47 1.427 1_554 S
N55 C53 1.384 . S
H56 C62 0.930 . S
H57 C66 0.930 . S
H58 C71 0.929 . S
H59 C69 0.929 . S
H60 C64 0.929 . S
H61 C70 0.929 . S
C62 H56 0.930 . S
C62 C63 1.368 . S
C62 C70 1.378 . S
C63 C62 1.368 . S
C63 C71 1.432 1_456 S
C64 H60 0.929 . S
C64 C66 1.378 . S
C64 C68 1.353 . S
C65 C68 1.464 1_456 S
C65 C70 1.352 . S
C65 N73 1.425 1_456 S
C66 H57 0.930 . S
C66 C64 1.378 . S
C66 C67 1.369 . S
C67 C66 1.369 . S
C67 C69 1.431 1_654 S
C68 C64 1.353 . S
C68 C65 1.464 1_654 S
C68 N72 1.423 1_654 S
C69 H59 0.929 . S
C69 C67 1.431 1_456 S
C69 N72 1.384 . S
C70 H61 0.929 . S
C70 C62 1.378 . S
C70 C65 1.352 . S
C71 H58 0.929 . S
C71 C63 1.432 1_654 S
C71 N73 1.384 . S
N72 C68 1.423 1_456 S
N72 C69 1.384 . S
N73 C65 1.425 1_654 S
N73 C71 1.384 . S
C27 C9 1.488 . S
C31 C1 1.487 . S
C45 C19 1.447 1_556 S
C49 C8 1.447 1_544 S
C63 C6 1.481 1_456 S
C67 C16 1.481 1_654 S
