# Generated by pormake.
# Topology zfs, (5)-cn, num edge types: 1
# Building blocks:
#     Node 0, Type 0, BuildingBlock: XOMCOT_clean_sbu_1, # of connection points: 5
#     Node 1, Type 0, BuildingBlock: XOMCOT_clean_sbu_1, # of connection points: 5
#     Node 2, Type 0, BuildingBlock: XOMCOT_clean_sbu_1, # of connection points: 5
#     Node 3, Type 0, BuildingBlock: XOMCOT_clean_sbu_1, # of connection points: 5
#     Node 4, Type 0, BuildingBlock: XOMCOT_clean_sbu_1, # of connection points: 5
#     Node 5, Type 0, BuildingBlock: XOMCOT_clean_sbu_1, # of connection points: 5
#     Node 6, Type 0, BuildingBlock: XOMCOT_clean_sbu_1, # of connection points: 5
#     Node 7, Type 0, BuildingBlock: XOMCOT_clean_sbu_1, # of connection points: 5
#     Edge 8, Type (0, 0), None
#     Edge 9, Type (0, 0), None
#     Edge 10, Type (0, 0), None
#     Edge 11, Type (0, 0), None
#     Edge 12, Type (0, 0), None
#     Edge 13, Type (0, 0), None
#     Edge 14, Type (0, 0), None
#     Edge 15, Type (0, 0), None
#     Edge 16, Type (0, 0), None
#     Edge 17, Type (0, 0), None
#     Edge 18, Type (0, 0), None
#     Edge 19, Type (0, 0), None
#     Edge 20, Type (0, 0), None
#     Edge 21, Type (0, 0), None
#     Edge 22, Type (0, 0), None
#     Edge 23, Type (0, 0), None
#     Edge 24, Type (0, 0), None
#     Edge 25, Type (0, 0), None
#     Edge 26, Type (0, 0), None
#     Edge 27, Type (0, 0), None
# Relax obj value: 0.236
# Max RMSD: 0.180
# Mean RMSD: 0.180
data_MOF--net-zfs--node1-XOMCOT_clean_sbu_1--edge1-none
_symmetry_space_group_name_H-M    P1
_symmetry_Int_Tables_number       1
_symmetry_cell_setting            triclinic
loop_
_symmetry_equiv_pos_as_xyz
'x, y, z'
_cell_length_a     16.715805
_cell_length_b     16.71672
_cell_length_c     20.506058
_cell_angle_alpha  90.000471
_cell_angle_beta   90.000698
_cell_angle_gamma 89.999337
loop_
_atom_site_label
_atom_site_type_symbol
_atom_site_fract_x
_atom_site_fract_y
_atom_site_fract_z
_atom_type_partial_charge
C0 C 0.30099 0.2414 0.26904 0.0
C1 C 0.31465 0.26824 0.33165 0.0
N2 N 0.2605 0.2328 0.37041 0.0
N3 N 0.23547 0.19376 0.2689 0.0
C4 C 0.21947 0.18214 0.33225 0.0
H5 H 0.32498 0.26979 0.22589 0.0
Co6 Co 0.152 0.22393 0.21423 0.0
C7 C 1.00676 0.22845 0.30925 0.0
O8 O 0.98891 0.29649 0.28066 0.0
N9 N 0.07438 0.25615 0.15832 0.0
C10 C 0.97202 0.25957 0.09042 0.0
C11 C 0.99717 0.23563 0.15109 0.0
C12 C 0.09491 0.29161 0.10214 0.0
N13 N 1.03483 0.29339 0.05977 0.0
O14 O 0.15667 0.11784 0.16351 0.0
H15 H 0.96453 0.1979 0.18417 0.0
H16 H 0.1554 0.30502 0.08804 0.0
O17 O 0.06528 0.18702 0.28489 0.0
C18 C 0.20597 0.13002 0.11564 0.0
O19 O 0.24788 0.19634 0.11845 0.0
N20 N 0.15761 0.33129 0.24942 0.0
C21 C 0.16556 0.49665 0.27144 0.0
C22 C 0.13858 0.44445 0.32057 0.0
C23 C 0.13649 0.3616 0.30901 0.0
C24 C 0.19446 0.38085 0.20573 0.0
C25 C 0.19638 0.46343 0.21441 0.0
H26 H 0.11735 0.32279 0.34794 0.0
H27 H 0.22425 0.35621 0.16384 0.0
H28 H 0.16971 0.14712 0.34928 0.0
H29 H 0.35323 0.31733 0.34553 0.0
H30 H 0.91597 0.24322 0.06766 0.0
H31 H 0.11812 0.46745 0.36704 0.0
H32 H 0.22338 0.50081 0.17728 0.0
C33 C 0.84018 0.30094 0.51904 0.0
C34 C 0.81334 0.31461 0.58165 0.0
N35 N 0.84878 0.26045 0.62041 0.0
N36 N 0.88782 0.23543 0.51891 0.0
C37 C 0.89944 0.21942 0.58226 0.0
H38 H 0.8118 0.32493 0.47588 0.0
Co39 Co 0.85766 0.15196 0.46423 0.0
C40 C 0.85313 1.00673 0.55924 0.0
O41 O 0.78509 0.98888 0.53064 0.0
N42 N 0.82545 0.07435 0.40832 0.0
C43 C 0.82203 0.97199 0.34042 0.0
C44 C 0.84597 0.99714 0.40109 0.0
C45 C 0.78999 0.09488 0.35214 0.0
N46 N 0.78821 1.0348 0.30976 0.0
O47 O 0.96376 0.15664 0.41351 0.0
H48 H 0.88371 0.9645 0.43416 0.0
H49 H 0.77658 0.15537 0.33803 0.0
O50 O 0.89458 0.06524 0.53489 0.0
C51 C 0.95159 0.20597 0.36566 0.0
O52 O 0.88525 0.24786 0.36847 0.0
N53 N 0.7503 0.15757 0.49942 0.0
C54 C 0.58493 0.16551 0.52143 0.0
C55 C 0.63713 0.13853 0.57056 0.0
C56 C 0.71999 0.13645 0.55901 0.0
C57 C 0.70073 0.19441 0.45573 0.0
C58 C 0.61814 0.19632 0.4644 0.0
H59 H 0.7588 0.11732 0.59794 0.0
H60 H 0.72537 0.2242 0.41383 0.0
H61 H 0.93446 0.16966 0.59929 0.0
H62 H 0.76424 0.35318 0.59552 0.0
H63 H 0.83838 0.91595 0.31766 0.0
H64 H 0.61413 0.11807 0.61704 0.0
H65 H 0.58076 0.22332 0.42727 0.0
C66 C 0.78063 0.84015 0.76903 0.0
C67 C 0.76696 0.81331 0.83164 0.0
N68 N 0.82111 0.84876 0.87041 0.0
N69 N 0.84614 0.88779 0.7689 0.0
C70 C 0.86214 0.89941 0.83224 0.0
H71 H 0.75663 0.81176 0.72588 0.0
Co72 Co 0.92961 0.85762 0.71422 0.0
C73 C 0.07484 0.85309 0.80925 0.0
O74 O 0.09269 0.78505 0.78066 0.0
N75 N 1.00722 0.82541 0.65831 0.0
C76 C 0.10959 0.82196 0.59042 0.0
C77 C 0.08445 0.84589 0.65109 0.0
C78 C 0.98668 0.78996 0.60213 0.0
N79 N 0.04677 0.78816 0.55976 0.0
O80 O 0.92494 0.96371 0.66351 0.0
H81 H 0.1171 0.8836 0.68417 0.0
H82 H 0.92619 0.77658 0.58802 0.0
O83 O 1.01633 0.89453 0.78488 0.0
C84 C 0.8756 0.95156 0.61566 0.0
O85 O 0.8337 0.88523 0.61847 0.0
N86 N 0.924 0.75026 0.74941 0.0
C87 C 0.91605 0.5849 0.77143 0.0
C88 C 0.94303 0.6371 0.82056 0.0
C89 C 0.94511 0.71996 0.809 0.0
C90 C 0.88716 0.70069 0.70572 0.0
C91 C 0.88525 0.61811 0.71439 0.0
H92 H 0.96424 0.75876 0.84793 0.0
H93 H 0.85738 0.72533 0.66382 0.0
H94 H 0.91191 0.93444 0.84928 0.0
H95 H 0.72839 0.76422 0.84552 0.0
H96 H 0.16564 0.83829 0.56766 0.0
H97 H 0.96348 0.61411 0.86704 0.0
H98 H 0.85825 0.58073 0.67726 0.0
C99 C 0.24142 0.78062 1.01904 0.0
C100 C 0.26827 0.76695 0.08165 0.0
N101 N 0.23284 0.82111 0.12041 0.0
N102 N 0.19379 0.84613 1.01891 0.0
C103 C 0.18218 0.86214 0.08226 0.0
H104 H 0.2698 0.75662 0.97588 0.0
Co105 Co 0.22394 0.92959 0.96422 0.0
C106 C 0.22846 0.07484 0.05923 0.0
O107 O 0.29651 0.09268 0.03065 0.0
N108 N 0.25616 1.0072 0.90832 0.0
C109 C 0.25959 0.10955 0.84041 0.0
C110 C 0.23565 0.08442 0.90108 0.0
C111 C 0.29162 0.98666 0.85213 0.0
N112 N 0.29341 0.04674 0.80976 0.0
O113 O 0.11785 0.92491 0.91351 0.0
H114 H 0.19792 0.11706 0.93416 0.0
H115 H 0.30502 0.92618 0.83803 0.0
O116 O 0.18703 1.01632 0.03488 0.0
C117 C 0.13001 0.87558 0.86566 0.0
O118 O 0.19635 0.83369 0.86847 0.0
N119 N 0.33131 0.92399 0.99942 0.0
C120 C 0.49668 0.91605 1.02143 0.0
C121 C 0.44448 0.94303 0.07056 0.0
C122 C 0.36162 0.94512 0.05901 0.0
C123 C 0.38088 0.88714 0.95573 0.0
C124 C 0.46346 0.88523 0.9644 0.0
H125 H 0.32281 0.96425 0.09793 0.0
H126 H 0.35623 0.85735 0.91384 0.0
H127 H 0.14716 0.9119 0.0993 0.0
H128 H 0.31736 0.72837 0.09552 0.0
H129 H 0.24325 0.1656 0.81765 0.0
H130 H 0.46748 0.96349 0.11704 0.0
H131 H 0.50085 0.85823 0.92727 0.0
C132 C 0.30096 0.84014 0.28273 0.0
C133 C 0.31449 0.81314 0.22014 0.0
N134 N 0.2602 0.84845 0.18143 0.0
N135 N 0.23545 0.8878 0.28289 0.0
C136 C 0.21933 0.89928 0.21954 0.0
H137 H 0.32505 0.81186 0.3259 0.0
Co138 Co 0.15202 0.85763 0.33763 0.0
C139 C 1.00671 0.85309 0.24266 0.0
O140 O 0.98883 0.78508 0.27129 0.0
N141 N 0.07447 0.82543 0.39359 0.0
C142 C 0.97215 0.82206 0.46157 0.0
C143 C 0.99724 0.84591 0.40086 0.0
C144 C 0.0951 0.79005 0.44978 0.0
N145 N 1.03506 0.78838 0.49219 0.0
O146 O 0.15672 0.96373 0.38835 0.0
H147 H 0.96453 0.88356 0.36777 0.0
H148 H 0.1556 0.77663 0.46385 0.0
O149 O 0.06524 0.89452 0.26699 0.0
C150 C 0.20606 0.95155 0.43619 0.0
O151 O 0.24804 0.88528 0.43331 0.0
N152 N 0.15761 0.75026 0.30246 0.0
C153 C 0.16555 0.58488 0.28049 0.0
C154 C 0.13847 0.63705 0.23137 0.0
C155 C 0.13638 0.71991 0.24291 0.0
C156 C 0.19451 0.70071 0.34613 0.0
C157 C 0.19642 0.61812 0.33748 0.0
H158 H 0.11718 0.75868 0.20398 0.0
H159 H 0.22434 0.72538 0.388 0.0
H160 H 0.16959 0.93434 0.2025 0.0
H161 H 0.35305 0.76402 0.20628 0.0
H162 H 0.9161 0.83833 0.48435 0.0
H163 H 0.11795 0.61403 0.18492 0.0
H164 H 0.22349 0.58076 0.3746 0.0
C165 C 0.24142 0.30091 0.53273 0.0
C166 C 0.26844 0.31444 0.47015 0.0
N167 N 0.23314 0.26015 0.43143 0.0
N168 N 0.19377 0.2354 0.53288 0.0
C169 C 0.1823 0.21928 0.46953 0.0
H170 H 0.26969 0.325 0.5759 0.0
Co171 Co 0.22393 0.15198 0.58763 0.0
C172 C 0.22847 1.00666 0.49268 0.0
O173 O 0.29648 0.98879 0.5213 0.0
N174 N 0.25614 0.07443 0.64359 0.0
C175 C 0.25949 0.97213 0.71159 0.0
C176 C 0.23563 0.99721 0.65087 0.0
C177 C 0.29153 0.09505 0.69978 0.0
N178 N 0.29319 1.03503 0.74219 0.0
O179 O 0.11784 0.15669 0.63835 0.0
H180 H 0.19796 0.96451 0.61779 0.0
H181 H 0.30498 0.15554 0.71384 0.0
O182 O 0.18704 0.0652 0.517 0.0
C183 C 0.13002 0.20602 0.6862 0.0
O184 O 0.19631 0.24798 0.68332 0.0
N185 N 0.33131 0.15755 0.55246 0.0
C186 C 0.4967 0.1655 0.53048 0.0
C187 C 0.44452 0.13841 0.48137 0.0
C188 C 0.36166 0.13632 0.49291 0.0
C189 C 0.38086 0.19447 0.59613 0.0
C190 C 0.46345 0.19638 0.58748 0.0
H191 H 0.32289 0.11711 0.45398 0.0
H192 H 0.35619 0.2243 0.63799 0.0
H193 H 0.14725 0.16953 0.45249 0.0
H194 H 0.31756 0.353 0.45629 0.0
H195 H 0.2432 0.91609 0.73437 0.0
H196 H 0.46755 0.11788 0.43493 0.0
H197 H 0.50081 0.22345 0.62459 0.0
C198 C 0.78066 0.2414 0.78273 0.0
C199 C 0.76713 0.26842 0.72014 0.0
N200 N 0.82142 0.23311 0.68143 0.0
N201 N 0.84617 0.19375 0.78288 0.0
C202 C 0.86229 0.18227 0.71954 0.0
H203 H 0.75657 0.26968 0.8259 0.0
Co204 Co 0.92959 0.22392 0.83763 0.0
C205 C 0.07491 0.22845 0.74267 0.0
O206 O 0.09279 0.29647 0.77129 0.0
N207 N 1.00714 0.25613 0.8936 0.0
C208 C 0.10945 0.25951 0.96159 0.0
C209 C 0.08438 0.23566 0.90087 0.0
C210 C 0.98651 0.2915 0.94979 0.0
N211 N 0.04654 0.29318 0.9922 0.0
O212 O 0.9249 0.11783 0.88835 0.0
H213 H 0.11709 0.19801 0.86778 0.0
H214 H 0.92601 0.30492 0.96385 0.0
O215 O 1.01638 0.18702 0.76701 0.0
C216 C 0.87555 0.13 0.9362 0.0
O217 O 0.83357 0.19627 0.93331 0.0
N218 N 0.92402 0.3313 0.80246 0.0
C219 C 0.91607 0.49667 0.78048 0.0
C220 C 0.94315 0.44449 0.73137 0.0
C221 C 0.94524 0.36164 0.74291 0.0
C222 C 0.8871 0.38085 0.84613 0.0
C223 C 0.88519 0.46343 0.83748 0.0
H224 H 0.96445 0.32287 0.70398 0.0
H225 H 0.85727 0.35618 0.888 0.0
H226 H 0.91204 0.14722 0.7025 0.0
H227 H 0.72857 0.31753 0.70628 0.0
H228 H 0.16551 0.24324 0.98437 0.0
H229 H 0.96368 0.46752 0.68492 0.0
H230 H 0.85813 0.50079 0.87459 0.0
C231 C 0.84019 0.78065 0.03272 0.0
C232 C 0.81317 0.76712 0.97014 0.0
N233 N 0.84847 0.82141 0.93142 0.0
N234 N 0.88784 0.84616 0.03287 0.0
C235 C 0.89931 0.86228 0.96952 0.0
H236 H 0.81192 0.75656 0.07589 0.0
Co237 Co 0.85768 0.92958 0.08763 0.0
C238 C 0.85314 0.07489 0.99267 0.0
O239 O 0.78512 0.09276 1.02129 0.0
N240 N 0.82548 1.00712 0.14359 0.0
C241 C 0.82209 0.10942 0.21159 0.0
C242 C 0.84595 0.08435 0.15087 0.0
C243 C 0.7901 0.98648 0.19979 0.0
N244 N 0.78842 0.04651 0.2422 0.0
O245 O 0.96378 0.92487 0.13835 0.0
H246 H 0.8836 0.11706 0.11778 0.0
H247 H 0.77669 0.92599 0.21385 0.0
O248 O 0.89457 1.01636 1.017 0.0
C249 C 0.95162 0.8755 0.18617 0.0
O250 O 0.88533 0.83354 0.18329 0.0
N251 N 0.7503 0.924 0.05246 0.0
C252 C 0.58491 0.91606 0.03048 0.0
C253 C 0.63709 0.94314 0.98137 0.0
C254 C 0.71995 0.94523 0.9929 0.0
C255 C 0.70075 0.88709 0.09613 0.0
C256 C 0.61816 0.88519 0.08748 0.0
H257 H 0.75872 0.96443 0.95398 0.0
H258 H 0.72542 0.85726 0.13799 0.0
H259 H 0.93435 0.91203 0.95249 0.0
H260 H 0.76406 0.72856 0.95628 0.0
H261 H 0.83836 0.16547 0.23437 0.0
H262 H 0.61406 0.96367 0.93492 0.0
H263 H 0.5808 0.85812 0.12459 0.0
loop_
_geom_bond_atom_site_label_1
_geom_bond_atom_site_label_2
_geom_bond_distance
_geom_bond_site_symmetry_2
_ccdc_geom_bond_type
C0 C1 1.351 . S
C0 N3 1.368 . S
C0 H5 0.931 . S
C1 C0 1.351 . S
C1 N2 1.373 . S
C1 H29 0.930 . S
N2 C1 1.373 . S
N2 C4 1.340 . S
N3 C0 1.368 . S
N3 C4 1.321 . S
N3 Co6 2.135 . S
C4 N2 1.340 . S
C4 N3 1.321 . S
C4 H28 0.930 . S
H5 C0 0.931 . S
Co6 N3 2.135 . S
Co6 N9 2.121 1_455 S
Co6 O14 2.055 . S
Co6 O17 2.039 1_455 S
Co6 N20 2.140 . S
C7 O8 1.227 . S
C7 O17 1.265 . S
O8 C7 1.227 . S
N9 Co6 2.121 1_655 S
N9 C11 1.375 . S
N9 C12 1.313 . S
C10 C11 1.338 . S
C10 N13 1.377 . S
C10 H30 0.930 . S
C11 N9 1.375 . S
C11 C10 1.338 . S
C11 H15 0.931 . S
C12 N9 1.313 . S
C12 N13 1.344 . S
C12 H16 0.930 1_655 S
N13 C10 1.377 . S
N13 C12 1.344 . S
O14 Co6 2.055 . S
O14 C18 1.253 . S
H15 C11 0.931 . S
H16 C12 0.930 1_455 S
O17 Co6 2.039 1_655 S
O17 C7 1.265 . S
C18 O14 1.253 . S
C18 O19 1.227 . S
O19 C18 1.227 . S
N20 Co6 2.140 . S
N20 C23 1.346 . S
N20 C24 1.345 . S
C21 C22 1.387 . S
C21 C25 1.391 . S
C22 C21 1.387 . S
C22 C23 1.369 . S
C22 H31 0.929 . S
C23 N20 1.346 . S
C23 C22 1.369 . S
C23 H26 0.928 . S
C24 N20 1.345 . S
C24 C25 1.371 . S
C24 H27 0.931 . S
C25 C21 1.391 . S
C25 C24 1.371 . S
C25 H32 0.930 . S
H26 C23 0.928 . S
H27 C24 0.931 . S
H28 C4 0.930 . S
H29 C1 0.930 . S
H30 C10 0.930 . S
H31 C22 0.929 . S
H32 C25 0.930 . S
C33 C34 1.351 . S
C33 N36 1.368 . S
C33 H38 0.931 . S
C34 C33 1.351 . S
C34 N35 1.373 . S
C34 H62 0.930 . S
N35 C34 1.373 . S
N35 C37 1.340 . S
N36 C33 1.368 . S
N36 C37 1.321 . S
N36 Co39 2.135 . S
C37 N35 1.340 . S
C37 N36 1.321 . S
C37 H61 0.930 . S
H38 C33 0.931 . S
Co39 N36 2.135 . S
Co39 N42 2.121 1_545 S
Co39 O47 2.055 . S
Co39 O50 2.039 1_545 S
Co39 N53 2.140 . S
C40 O41 1.227 . S
C40 O50 1.265 . S
O41 C40 1.227 . S
N42 Co39 2.121 1_565 S
N42 C44 1.375 . S
N42 C45 1.313 . S
C43 C44 1.338 . S
C43 N46 1.377 . S
C43 H63 0.930 . S
C44 N42 1.375 . S
C44 C43 1.338 . S
C44 H48 0.931 . S
C45 N42 1.313 . S
C45 N46 1.344 . S
C45 H49 0.930 1_565 S
N46 C43 1.377 . S
N46 C45 1.344 . S
O47 Co39 2.055 . S
O47 C51 1.253 . S
H48 C44 0.931 . S
H49 C45 0.930 1_545 S
O50 Co39 2.039 1_565 S
O50 C40 1.265 . S
C51 O47 1.253 . S
C51 O52 1.227 . S
O52 C51 1.227 . S
N53 Co39 2.140 . S
N53 C56 1.346 . S
N53 C57 1.345 . S
C54 C55 1.387 . S
C54 C58 1.391 . S
C55 C54 1.387 . S
C55 C56 1.369 . S
C55 H64 0.929 . S
C56 N53 1.346 . S
C56 C55 1.369 . S
C56 H59 0.928 . S
C57 N53 1.345 . S
C57 C58 1.371 . S
C57 H60 0.931 . S
C58 C54 1.391 . S
C58 C57 1.371 . S
C58 H65 0.930 . S
H59 C56 0.928 . S
H60 C57 0.931 . S
H61 C37 0.930 . S
H62 C34 0.930 . S
H63 C43 0.930 . S
H64 C55 0.929 . S
H65 C58 0.930 . S
C66 C67 1.351 . S
C66 N69 1.368 . S
C66 H71 0.931 . S
C67 C66 1.351 . S
C67 N68 1.373 . S
C67 H95 0.930 . S
N68 C67 1.373 . S
N68 C70 1.340 . S
N69 C66 1.368 . S
N69 C70 1.321 . S
N69 Co72 2.135 . S
C70 N68 1.340 . S
C70 N69 1.321 . S
C70 H94 0.930 . S
H71 C66 0.931 . S
Co72 N69 2.135 . S
Co72 N75 2.121 1_655 S
Co72 O80 2.055 . S
Co72 O83 2.039 1_655 S
Co72 N86 2.140 . S
C73 O74 1.227 . S
C73 O83 1.265 . S
O74 C73 1.227 . S
N75 Co72 2.121 1_455 S
N75 C77 1.375 . S
N75 C78 1.313 . S
C76 C77 1.338 . S
C76 N79 1.377 . S
C76 H96 0.930 . S
C77 N75 1.375 . S
C77 C76 1.338 . S
C77 H81 0.931 . S
C78 N75 1.313 . S
C78 N79 1.344 . S
C78 H82 0.930 1_455 S
N79 C76 1.377 . S
N79 C78 1.344 . S
O80 Co72 2.055 . S
O80 C84 1.253 . S
H81 C77 0.931 . S
H82 C78 0.930 1_655 S
O83 Co72 2.039 1_455 S
O83 C73 1.265 . S
C84 O80 1.253 . S
C84 O85 1.227 . S
O85 C84 1.227 . S
N86 Co72 2.140 . S
N86 C89 1.346 . S
N86 C90 1.345 . S
C87 C88 1.387 . S
C87 C91 1.391 . S
C88 C87 1.387 . S
C88 C89 1.369 . S
C88 H97 0.929 . S
C89 N86 1.346 . S
C89 C88 1.369 . S
C89 H92 0.928 . S
C90 N86 1.345 . S
C90 C91 1.371 . S
C90 H93 0.931 . S
C91 C87 1.391 . S
C91 C90 1.371 . S
C91 H98 0.930 . S
H92 C89 0.928 . S
H93 C90 0.931 . S
H94 C70 0.930 . S
H95 C67 0.930 . S
H96 C76 0.930 . S
H97 C88 0.929 . S
H98 C91 0.930 . S
C99 C100 1.351 . S
C99 N102 1.368 . S
C99 H104 0.931 1_554 S
C100 C99 1.351 . S
C100 N101 1.373 . S
C100 H128 0.930 . S
N101 C100 1.373 . S
N101 C103 1.340 . S
N102 C99 1.368 . S
N102 C103 1.321 . S
N102 Co105 2.135 1_554 S
C103 N101 1.340 . S
C103 N102 1.321 . S
C103 H127 0.930 . S
H104 C99 0.931 1_556 S
Co105 N102 2.135 1_556 S
Co105 N108 2.121 1_565 S
Co105 O113 2.055 . S
Co105 O116 2.039 1_565 S
Co105 N119 2.140 . S
C106 O107 1.227 . S
C106 O116 1.265 1_554 S
O107 C106 1.227 . S
N108 Co105 2.121 1_545 S
N108 C110 1.375 . S
N108 C111 1.313 . S
C109 C110 1.338 . S
C109 N112 1.377 . S
C109 H129 0.930 . S
C110 N108 1.375 . S
C110 C109 1.338 . S
C110 H114 0.931 . S
C111 N108 1.313 . S
C111 N112 1.344 . S
C111 H115 0.930 1_545 S
N112 C109 1.377 . S
N112 C111 1.344 . S
O113 Co105 2.055 . S
O113 C117 1.253 . S
H114 C110 0.931 . S
H115 C111 0.930 1_565 S
O116 Co105 2.039 1_545 S
O116 C106 1.265 1_556 S
C117 O113 1.253 . S
C117 O118 1.227 . S
O118 C117 1.227 . S
N119 Co105 2.140 . S
N119 C122 1.346 1_556 S
N119 C123 1.345 . S
C120 C121 1.387 1_556 S
C120 C124 1.391 . S
C121 C120 1.387 1_554 S
C121 C122 1.369 . S
C121 H130 0.929 . S
C122 N119 1.346 1_554 S
C122 C121 1.369 . S
C122 H125 0.928 . S
C123 N119 1.345 . S
C123 C124 1.371 . S
C123 H126 0.931 . S
C124 C120 1.391 . S
C124 C123 1.371 . S
C124 H131 0.930 . S
H125 C122 0.928 . S
H126 C123 0.931 . S
H127 C103 0.930 . S
H128 C100 0.930 . S
H129 C109 0.930 . S
H130 C121 0.929 . S
H131 C124 0.930 . S
C132 C133 1.351 . S
C132 N135 1.368 . S
C132 H137 0.931 . S
C133 C132 1.351 . S
C133 N134 1.373 . S
C133 H161 0.930 . S
N134 C133 1.373 . S
N134 C136 1.340 . S
N135 C132 1.368 . S
N135 C136 1.321 . S
N135 Co138 2.135 . S
C136 N134 1.340 . S
C136 N135 1.321 . S
C136 H160 0.930 . S
H137 C132 0.931 . S
Co138 N135 2.135 . S
Co138 N141 2.121 1_455 S
Co138 O146 2.055 . S
Co138 O149 2.039 1_455 S
Co138 N152 2.140 . S
C139 O140 1.227 . S
C139 O149 1.265 . S
O140 C139 1.227 . S
N141 Co138 2.121 1_655 S
N141 C143 1.375 . S
N141 C144 1.313 . S
C142 C143 1.338 . S
C142 N145 1.377 . S
C142 H162 0.930 . S
C143 N141 1.375 . S
C143 C142 1.338 . S
C143 H147 0.931 . S
C144 N141 1.313 . S
C144 N145 1.344 . S
C144 H148 0.930 1_655 S
N145 C142 1.377 . S
N145 C144 1.344 . S
O146 Co138 2.055 . S
O146 C150 1.253 . S
H147 C143 0.931 . S
H148 C144 0.930 1_455 S
O149 Co138 2.039 1_655 S
O149 C139 1.265 . S
C150 O146 1.253 . S
C150 O151 1.227 . S
O151 C150 1.227 . S
N152 Co138 2.140 . S
N152 C155 1.346 . S
N152 C156 1.345 . S
C153 C154 1.387 . S
C153 C157 1.391 . S
C154 C153 1.387 . S
C154 C155 1.369 . S
C154 H163 0.929 . S
C155 N152 1.346 . S
C155 C154 1.369 . S
C155 H158 0.928 . S
C156 N152 1.345 . S
C156 C157 1.371 . S
C156 H159 0.931 . S
C157 C153 1.391 . S
C157 C156 1.371 . S
C157 H164 0.930 . S
H158 C155 0.928 . S
H159 C156 0.931 . S
H160 C136 0.930 . S
H161 C133 0.930 . S
H162 C142 0.930 . S
H163 C154 0.929 . S
H164 C157 0.930 . S
C165 C166 1.351 . S
C165 N168 1.368 . S
C165 H170 0.931 . S
C166 C165 1.351 . S
C166 N167 1.373 . S
C166 H194 0.930 . S
N167 C166 1.373 . S
N167 C169 1.340 . S
N168 C165 1.368 . S
N168 C169 1.321 . S
N168 Co171 2.135 . S
C169 N167 1.340 . S
C169 N168 1.321 . S
C169 H193 0.930 . S
H170 C165 0.931 . S
Co171 N168 2.135 . S
Co171 N174 2.121 1_545 S
Co171 O179 2.055 . S
Co171 O182 2.039 1_545 S
Co171 N185 2.140 . S
C172 O173 1.227 . S
C172 O182 1.265 . S
O173 C172 1.227 . S
N174 Co171 2.121 1_565 S
N174 C176 1.375 . S
N174 C177 1.313 . S
C175 C176 1.338 . S
C175 N178 1.377 . S
C175 H195 0.930 . S
C176 N174 1.375 . S
C176 C175 1.338 . S
C176 H180 0.931 . S
C177 N174 1.313 . S
C177 N178 1.344 . S
C177 H181 0.930 1_565 S
N178 C175 1.377 . S
N178 C177 1.344 . S
O179 Co171 2.055 . S
O179 C183 1.253 . S
H180 C176 0.931 . S
H181 C177 0.930 1_545 S
O182 Co171 2.039 1_565 S
O182 C172 1.265 . S
C183 O179 1.253 . S
C183 O184 1.227 . S
O184 C183 1.227 . S
N185 Co171 2.140 . S
N185 C188 1.346 . S
N185 C189 1.345 . S
C186 C187 1.387 . S
C186 C190 1.391 . S
C187 C186 1.387 . S
C187 C188 1.369 . S
C187 H196 0.929 . S
C188 N185 1.346 . S
C188 C187 1.369 . S
C188 H191 0.928 . S
C189 N185 1.345 . S
C189 C190 1.371 . S
C189 H192 0.931 . S
C190 C186 1.391 . S
C190 C189 1.371 . S
C190 H197 0.930 . S
H191 C188 0.928 . S
H192 C189 0.931 . S
H193 C169 0.930 . S
H194 C166 0.930 . S
H195 C175 0.930 . S
H196 C187 0.929 . S
H197 C190 0.930 . S
C198 C199 1.351 . S
C198 N201 1.368 . S
C198 H203 0.931 . S
C199 C198 1.351 . S
C199 N200 1.373 . S
C199 H227 0.930 . S
N200 C199 1.373 . S
N200 C202 1.340 . S
N201 C198 1.368 . S
N201 C202 1.321 . S
N201 Co204 2.135 . S
C202 N200 1.340 . S
C202 N201 1.321 . S
C202 H226 0.930 . S
H203 C198 0.931 . S
Co204 N201 2.135 . S
Co204 N207 2.121 1_655 S
Co204 O212 2.055 . S
Co204 O215 2.039 1_655 S
Co204 N218 2.140 . S
C205 O206 1.227 . S
C205 O215 1.265 . S
O206 C205 1.227 . S
N207 Co204 2.121 1_455 S
N207 C209 1.375 . S
N207 C210 1.313 . S
C208 C209 1.338 . S
C208 N211 1.377 . S
C208 H228 0.930 . S
C209 N207 1.375 . S
C209 C208 1.338 . S
C209 H213 0.931 . S
C210 N207 1.313 . S
C210 N211 1.344 . S
C210 H214 0.930 1_455 S
N211 C208 1.377 . S
N211 C210 1.344 . S
O212 Co204 2.055 . S
O212 C216 1.253 . S
H213 C209 0.931 . S
H214 C210 0.930 1_655 S
O215 Co204 2.039 1_455 S
O215 C205 1.265 . S
C216 O212 1.253 . S
C216 O217 1.227 . S
O217 C216 1.227 . S
N218 Co204 2.140 . S
N218 C221 1.346 . S
N218 C222 1.345 . S
C219 C220 1.387 . S
C219 C223 1.391 . S
C220 C219 1.387 . S
C220 C221 1.369 . S
C220 H229 0.929 . S
C221 N218 1.346 . S
C221 C220 1.369 . S
C221 H224 0.928 . S
C222 N218 1.345 . S
C222 C223 1.371 . S
C222 H225 0.931 . S
C223 C219 1.391 . S
C223 C222 1.371 . S
C223 H230 0.930 . S
H224 C221 0.928 . S
H225 C222 0.931 . S
H226 C202 0.930 . S
H227 C199 0.930 . S
H228 C208 0.930 . S
H229 C220 0.929 . S
H230 C223 0.930 . S
C231 C232 1.351 . S
C231 N234 1.368 . S
C231 H236 0.931 1_556 S
C232 C231 1.351 . S
C232 N233 1.373 . S
C232 H260 0.930 . S
N233 C232 1.373 . S
N233 C235 1.340 . S
N234 C231 1.368 . S
N234 C235 1.321 . S
N234 Co237 2.135 1_556 S
C235 N233 1.340 . S
C235 N234 1.321 . S
C235 H259 0.930 . S
H236 C231 0.931 1_554 S
Co237 N234 2.135 1_554 S
Co237 N240 2.121 1_565 S
Co237 O245 2.055 . S
Co237 O248 2.039 1_565 S
Co237 N251 2.140 . S
C238 O239 1.227 . S
C238 O248 1.265 1_556 S
O239 C238 1.227 . S
N240 Co237 2.121 1_545 S
N240 C242 1.375 . S
N240 C243 1.313 . S
C241 C242 1.338 . S
C241 N244 1.377 . S
C241 H261 0.930 . S
C242 N240 1.375 . S
C242 C241 1.338 . S
C242 H246 0.931 . S
C243 N240 1.313 . S
C243 N244 1.344 . S
C243 H247 0.930 1_545 S
N244 C241 1.377 . S
N244 C243 1.344 . S
O245 Co237 2.055 . S
O245 C249 1.253 . S
H246 C242 0.931 . S
H247 C243 0.930 1_565 S
O248 Co237 2.039 1_545 S
O248 C238 1.265 1_554 S
C249 O245 1.253 . S
C249 O250 1.227 . S
O250 C249 1.227 . S
N251 Co237 2.140 . S
N251 C254 1.346 1_554 S
N251 C255 1.345 . S
C252 C253 1.387 1_554 S
C252 C256 1.391 . S
C253 C252 1.387 1_556 S
C253 C254 1.369 . S
C253 H262 0.929 . S
C254 N251 1.346 1_556 S
C254 C253 1.369 . S
C254 H257 0.928 . S
C255 N251 1.345 . S
C255 C256 1.371 . S
C255 H258 0.931 . S
C256 C252 1.391 . S
C256 C255 1.371 . S
C256 H263 0.930 . S
H257 C254 0.928 . S
H258 C255 0.931 . S
H259 C235 0.930 . S
H260 C232 0.930 . S
H261 C241 0.930 . S
H262 C253 0.929 . S
H263 C256 0.930 . S
C153 C21 1.524 . S
C54 C186 1.524 . S
C87 C219 1.524 . S
C120 C252 1.524 1_556 S
N167 N2 0.876 . S
N35 N200 0.876 . S
N233 N68 0.876 . S
N101 N134 0.876 . S
N13 N211 2.510 1_654 S
N244 N46 2.510 1_545 S
N79 N145 2.510 1_455 S
N178 N112 2.510 1_565 S
C18 C106 2.536 . S
C7 C51 2.536 . S
C40 C84 2.536 . S
C73 C117 2.536 . S
C150 C172 2.536 . S
C183 C205 2.536 . S
C216 C238 2.536 . S
C139 C249 2.536 . S
