# Generated by pormake.
# Topology sma, (6)-cn, num edge types: 1
# Building blocks:
#     Node 0, Type 0, BuildingBlock: BETGAK_clean_sbu_0, # of connection points: 6
#     Node 1, Type 0, BuildingBlock: BETGAK_clean_sbu_0, # of connection points: 6
#     Node 2, Type 0, BuildingBlock: BETGAK_clean_sbu_0, # of connection points: 6
#     Edge 3, Type (0, 0), BuildingBlock: OJICUG_clean_linker_0, # of connection points: 2
#     Edge 4, Type (0, 0), BuildingBlock: OJICUG_clean_linker_0, # of connection points: 2
#     Edge 5, Type (0, 0), BuildingBlock: OJICUG_clean_linker_0, # of connection points: 2
#     Edge 6, Type (0, 0), BuildingBlock: OJICUG_clean_linker_0, # of connection points: 2
#     Edge 7, Type (0, 0), BuildingBlock: OJICUG_clean_linker_0, # of connection points: 2
#     Edge 8, Type (0, 0), BuildingBlock: OJICUG_clean_linker_0, # of connection points: 2
#     Edge 9, Type (0, 0), BuildingBlock: OJICUG_clean_linker_0, # of connection points: 2
#     Edge 10, Type (0, 0), BuildingBlock: OJICUG_clean_linker_0, # of connection points: 2
#     Edge 11, Type (0, 0), BuildingBlock: OJICUG_clean_linker_0, # of connection points: 2
# Relax obj value: 0.161
# Max RMSD: 0.277
# Mean RMSD: 0.208
data_MOF--net-sma--node1-BETGAK_clean_sbu_0--edge1-OJICUG_clean_linker_0
_symmetry_space_group_name_H-M    P1
_symmetry_Int_Tables_number       1
_symmetry_cell_setting            triclinic
loop_
_symmetry_equiv_pos_as_xyz
'x, y, z'
_cell_length_a     32.180278
_cell_length_b     38.79458
_cell_length_c     10.237439
_cell_angle_alpha  92.48603
_cell_angle_beta   90.284747
_cell_angle_gamma 144.64467
loop_
_atom_site_label
_atom_site_type_symbol
_atom_site_fract_x
_atom_site_fract_y
_atom_site_fract_z
_atom_type_partial_charge
La0 La 0.21766 0.6795 0.16094 0.0
La1 La 1.12888 0.68378 0.19545 0.0
C2 C 0.30137 0.691 0.07227 0.0
C3 C 0.31534 0.66331 0.04606 0.0
C4 C 0.33899 0.65775 0.14737 0.0
C5 C 0.36756 0.64445 0.11821 0.0
C6 C 0.37362 0.63699 -0.0127 0.0
C7 C 0.34552 0.63863 0.8865 0.0
C8 C 0.31689 0.65177 0.91558 0.0
C9 C 0.18944 0.6752 0.40469 0.0
C10 C 0.29333 0.80529 0.1924 0.0
C11 C 1.04225 0.67326 0.24494 0.0
C12 C 1.02022 0.6907 0.18231 0.0
C13 C 1.01118 0.68601 0.0451 0.0
C14 C 0.98243 0.69599 -0.01284 0.0
C15 C 0.96297 0.71162 0.06499 0.0
C16 C 0.97561 0.71937 0.20197 0.0
C17 C 1.00367 0.70871 0.26006 0.0
C18 C 0.15937 0.68856 0.95226 0.0
C19 C 1.05757 0.56097 0.20822 0.0
O20 O 0.3056 0.70595 0.19395 0.0
O21 O 0.25025 0.67118 0.00043 0.0
O22 O 0.19792 0.64978 0.35668 0.0
O23 O 0.20234 0.70545 0.32026 0.0
O24 O 0.29608 0.77458 0.14844 0.0
O25 O 0.23341 0.77866 0.23156 0.0
O26 O 1.02407 0.63239 0.17836 0.0
O27 O 1.10785 0.7163 0.29932 0.0
O28 O 0.15267 0.71511 -0.00031 0.0
O29 O 1.14374 0.65732 0.03711 0.0
O30 O 1.05852 0.5945 0.24963 0.0
O31 O 1.11285 0.58386 0.15277 0.0
H32 H 0.33915 0.66686 0.24902 0.0
H33 H 0.38917 0.64391 0.19811 0.0
H34 H 0.34853 0.6323 0.78469 0.0
H35 H 0.29963 0.65621 0.83543 0.0
H36 H 1.02417 0.67275 -0.01742 0.0
H37 H 0.9738 0.69012 0.8814 0.0
H38 H 0.96049 0.73078 0.26456 0.0
H39 H 1.01027 0.71267 0.36595 0.0
La40 La 0.72388 0.18531 0.3144 0.0
La41 La 0.63293 0.18689 0.27811 0.0
C42 C 0.78235 0.17066 0.39939 0.0
C43 C 0.76665 0.1244 0.43653 0.0
C44 C 0.77333 0.10102 0.34588 0.0
C45 C 0.76922 1.06423 0.38498 0.0
C46 C 0.75891 1.05027 0.51604 0.0
C47 C 0.74983 1.07204 0.60579 0.0
C48 C 0.75385 0.1088 0.56662 0.0
C49 C 0.70843 0.19482 0.07161 0.0
C50 C 0.55395 1.06324 0.26044 0.0
C51 C 0.57452 0.20412 0.22247 0.0
C52 C 0.56759 0.23276 0.29637 0.0
C53 C 0.54756 0.22043 0.42647 0.0
C54 C 0.54069 0.24741 0.49518 0.0
C55 C 0.55439 0.28782 0.43602 0.0
C56 C 0.57522 0.30063 0.3063 0.0
C57 C 0.58149 0.27318 0.23708 0.0
C58 C 0.65404 0.18278 0.52321 0.0
C59 C 0.80492 0.3092 0.29157 0.0
O60 O 0.77378 0.17159 0.27514 0.0
O61 O 0.76162 0.18232 0.47499 0.0
O62 O 0.76555 0.21853 0.12173 0.0
O63 O 0.66065 0.16329 0.15277 0.0
O64 O 0.61319 1.0904 0.31882 0.0
O65 O 0.55418 1.09434 0.21137 0.0
O66 O 0.54013 0.15468 0.26484 0.0
O67 O 0.63923 0.23933 0.19125 0.0
O68 O 0.59709 0.1594 0.47614 0.0
O69 O 0.69908 0.212 0.4377 0.0
O70 O 0.74172 0.27999 0.25524 0.0
O71 O 0.81077 0.28167 0.3356 0.0
H72 H 0.78448 0.11293 0.24547 0.0
H73 H 0.7774 1.04896 0.3136 0.0
H74 H 0.74091 1.06155 0.70712 0.0
H75 H 0.7492 0.1265 0.63941 0.0
H76 H 0.53726 0.18997 0.47555 0.0
H77 H 0.52567 0.2373 0.59552 0.0
H78 H 0.58575 0.3313 0.25769 0.0
H79 H 0.59717 0.28349 0.13708 0.0
La80 La 0.72314 0.73739 0.87604 0.0
La81 La 0.6142 0.60684 0.88357 0.0
C82 C 0.81155 0.84083 0.80636 0.0
C83 C 0.80327 0.87018 0.75649 0.0
C84 C 0.86124 0.93258 0.77134 0.0
C85 C 0.85274 0.96077 0.73196 0.0
C86 C 0.78595 0.927 0.67691 0.0
C87 C 0.72813 0.86437 0.66098 0.0
C88 C 0.73666 0.83625 0.70086 0.0
C89 C 0.68444 0.69912 0.11173 0.0
C90 C 0.56353 0.65019 0.89506 0.0
C91 C 0.52261 0.49871 0.91022 0.0
C92 C 0.52357 0.46288 0.86198 0.0
C93 C 0.46149 0.40566 0.7985 0.0
C94 C 0.4649 0.37537 0.73451 0.0
C95 C 0.5307 0.40207 0.7319 0.0
C96 C 0.5922 0.45852 0.7994 0.0
C97 C 0.58868 0.48854 0.86364 0.0
C98 C 0.65578 0.64812 0.64983 0.0
C99 C 0.77648 0.69504 0.89417 0.0
O100 O 0.7955 0.82697 0.92768 0.0
O101 O 0.78503 0.79744 0.72929 0.0
O102 O 0.70212 0.74127 0.07465 0.0
O103 O 0.69359 0.68305 0.02134 0.0
O104 O 0.62412 0.69903 0.84328 0.0
O105 O 0.55228 0.61125 0.93655 0.0
O106 O 0.51603 0.51664 0.81811 0.0
O107 O 0.57212 0.54156 0.00244 0.0
O108 O 0.64221 0.60844 0.68745 0.0
O109 O 0.64314 0.66127 0.73971 0.0
O110 O 0.70968 0.64017 0.90822 0.0
O111 O 0.79397 0.73948 0.8765 0.0
H112 H 0.91294 0.9595 0.81474 0.0
H113 H 0.8986 1.00909 0.74415 0.0
H114 H 0.6758 0.83697 0.62047 0.0
H115 H 0.69091 0.78796 0.68995 0.0
H116 H 0.41093 0.38533 0.79436 0.0
H117 H 0.41665 0.33212 0.68267 0.0
H118 H 0.64344 0.47994 0.80117 0.0
H119 H 0.6376 0.53267 0.91125 0.0
C120 C 0.41098 0.60062 0.0249 0.0
C121 C 0.41663 0.63483 0.95595 0.0
H122 H 0.45225 0.57771 0.05829 0.0
C123 C 0.46784 0.67089 0.86174 0.0
H124 H 0.3719 0.57229 0.09783 0.0
C125 C 0.51377 0.67423 0.83976 0.0
C126 C 0.50948 0.64126 0.91066 0.0
H127 H 0.47449 0.69854 0.80828 0.0
H128 H 0.55373 0.70372 0.76867 0.0
C129 C 0.45665 0.60346 0.00173 0.0
C130 C 0.86649 0.40739 0.27087 0.0
C131 C 0.87067 0.37416 0.27642 0.0
H132 H 0.92221 0.4923 0.24598 0.0
C133 C 0.93719 0.40293 0.26015 0.0
H134 H 0.81603 0.38653 0.28296 0.0
C135 C 0.99798 0.46352 0.23633 0.0
C136 C 0.99364 0.49667 0.23097 0.0
H137 H 0.9419 0.37832 0.26277 0.0
H138 H 1.04842 0.48446 0.22318 0.0
C139 C 0.92739 0.46804 0.24969 0.0
C140 C 0.80002 1.03432 0.67918 0.0
C141 C 0.76221 1.01637 0.56018 0.0
H142 H 0.83672 1.02015 0.80949 0.0
C143 C 0.73066 0.9677 0.48136 0.0
H144 H 0.82573 1.07202 0.74167 0.0
C145 C 0.73762 0.93829 0.51974 0.0
C146 C 0.77661 0.95703 0.63757 0.0
H147 H 0.70068 0.95238 0.38965 0.0
H148 H 0.7137 0.90164 0.45568 0.0
C149 C 0.80719 1.00508 0.71727 0.0
C150 C 0.89509 0.75625 -0.00231 0.0
C151 C 0.83266 0.70665 0.91622 0.0
H152 H 0.98543 0.79657 0.11043 0.0
C153 C 0.81788 0.66231 0.87383 0.0
H154 H 0.90705 0.79056 0.03329 0.0
C155 C 0.8627 0.66594 0.91663 0.0
C156 C 0.92266 0.71346 0.0049 0.0
H157 H 0.76979 0.62339 0.81169 0.0
H158 H 0.84795 0.62964 0.88649 0.0
C159 C 0.93938 0.75932 0.04285 0.0
C160 C 0.42026 0.96776 0.22315 0.0
C161 C 0.48763 0.99727 0.24202 0.0
H162 H 0.30593 0.88384 0.194 0.0
C163 C 0.49078 0.96323 0.24189 0.0
H164 H 0.41618 0.99285 0.22313 0.0
C165 C 0.42771 0.90082 0.22233 0.0
C166 C 0.36024 0.8713 0.20567 0.0
H167 H 0.54199 0.9848 0.25556 0.0
H168 H 0.43168 0.87566 0.22301 0.0
C169 C 0.35715 0.90538 0.20667 0.0
C170 C 0.59456 0.40567 0.57764 0.0
C171 C 0.53611 0.37241 0.65536 0.0
H172 H 0.64617 0.40522 0.44789 0.0
C173 C 0.48313 0.31087 0.65874 0.0
H174 H 0.63586 0.45302 0.5715 0.0
C175 C 0.48896 0.28344 0.58744 0.0
C176 C 0.54756 0.31678 0.51013 0.0
H177 H 0.43764 0.28405 0.71802 0.0
H178 H 0.44724 0.23594 0.59206 0.0
C179 C 0.60009 0.37817 0.5056 0.0
C180 C 0.18128 0.72055 0.72659 0.0
C181 C 0.16682 0.68471 0.81234 0.0
H182 H 0.19912 0.74522 0.52957 0.0
C183 C 0.15802 0.64464 0.76239 0.0
H184 H 0.18785 0.75157 0.76246 0.0
C185 C 0.16497 0.64133 0.62935 0.0
C186 C 0.18001 0.67755 0.54395 0.0
H187 H 1.1453 0.61558 0.82572 0.0
H188 H 0.15841 0.61033 0.59329 0.0
C189 C 0.18756 0.71685 0.59342 0.0
C190 C 0.62709 0.15727 0.88262 0.0
C191 C 0.69554 0.19331 0.93203 0.0
H192 H 0.5604 0.12533 0.71359 0.0
C193 C 0.75093 0.22656 0.84632 0.0
H194 H 0.5835 0.13126 0.94667 0.0
C195 C 0.7378 0.22339 0.71281 0.0
C196 C 0.66899 0.18662 0.66324 0.0
H197 H 0.8043 0.2549 0.88236 0.0
H198 H 0.78145 0.24983 0.64877 0.0
C199 C 0.61389 0.15382 0.74931 0.0
C200 C 0.66497 0.69697 0.47585 0.0
C201 C 0.66439 0.66216 0.51281 0.0
H202 H 0.67134 0.73566 0.31875 0.0
C203 C 0.66938 0.63886 0.41676 0.0
H204 H 0.66046 0.71492 0.54791 0.0
C205 C 0.67483 0.65015 0.28573 0.0
C206 C 0.6757 0.68515 0.24883 0.0
H207 H 0.66882 0.61171 0.44278 0.0
H208 H 0.67906 0.63196 0.21362 0.0
C209 C 0.67074 0.70849 0.34484 0.0
loop_
_geom_bond_atom_site_label_1
_geom_bond_atom_site_label_2
_geom_bond_distance
_geom_bond_site_symmetry_2
_ccdc_geom_bond_type
La0 C2 2.928 . S
La0 O20 2.521 . S
La0 O21 2.628 . S
La0 O22 2.554 . S
La0 O23 2.757 . S
La0 O24 2.470 . S
La0 O29 2.482 1_554 S
La0 O31 2.503 1_455 S
La1 C11 2.928 . S
La1 O23 2.482 1_655 S
La1 O25 2.503 1_655 S
La1 O26 2.521 . S
La1 O27 2.628 . S
La1 O28 2.554 1_554 S
La1 O29 2.757 1_654 S
La1 O30 2.470 . S
C2 La0 2.928 . S
C2 C3 1.503 . S
C2 O20 1.261 . S
C2 O21 1.243 . S
C3 C2 1.503 . S
C3 C4 1.394 . S
C3 C8 1.373 . S
C4 C3 1.394 . S
C4 C5 1.380 . S
C4 H32 0.930 . S
C5 C4 1.380 . S
C5 C6 1.376 . S
C5 H33 0.930 . S
C6 C5 1.376 . S
C6 C7 1.370 . S
C7 C6 1.370 . S
C7 C8 1.396 . S
C7 H34 0.929 1_554 S
C8 C3 1.373 . S
C8 C7 1.396 . S
C8 H35 0.929 1_554 S
C9 O22 1.240 . S
C9 O23 1.289 . S
C10 O24 1.258 . S
C10 O25 1.256 . S
C11 La1 2.928 . S
C11 C12 1.503 . S
C11 O26 1.261 . S
C11 O27 1.243 . S
C12 C11 1.503 . S
C12 C13 1.394 . S
C12 C17 1.373 . S
C13 C12 1.394 . S
C13 C14 1.380 . S
C13 H36 0.930 1_554 S
C14 C13 1.380 . S
C14 C15 1.376 . S
C14 H37 0.930 . S
C15 C14 1.376 . S
C15 C16 1.370 . S
C16 C15 1.370 . S
C16 C17 1.396 . S
C16 H38 0.929 . S
C17 C12 1.373 . S
C17 C16 1.396 . S
C17 H39 0.929 . S
C18 O28 1.240 1_455 S
C18 O29 1.289 . S
C19 O30 1.258 . S
C19 O31 1.256 . S
O20 La0 2.521 . S
O20 C2 1.261 . S
O21 La0 2.628 . S
O21 C2 1.243 . S
O22 La0 2.554 . S
O22 C9 1.240 . S
O23 La0 2.757 . S
O23 La1 2.482 1_455 S
O23 C9 1.289 . S
O24 La0 2.470 . S
O24 C10 1.258 . S
O25 La1 2.503 1_455 S
O25 C10 1.256 . S
O26 La1 2.521 . S
O26 C11 1.261 . S
O27 La1 2.628 . S
O27 C11 1.243 . S
O28 La1 2.554 1_556 S
O28 C18 1.240 1_655 S
O29 La0 2.482 1_556 S
O29 La1 2.757 1_456 S
O29 C18 1.289 . S
O30 La1 2.470 . S
O30 C19 1.258 . S
O31 La0 2.503 1_655 S
O31 C19 1.256 . S
H32 C4 0.930 . S
H33 C5 0.930 . S
H34 C7 0.929 1_556 S
H35 C8 0.929 1_556 S
H36 C13 0.930 1_556 S
H37 C14 0.930 . S
H38 C16 0.929 . S
H39 C17 0.929 . S
La40 C42 2.928 1_545 S
La40 O60 2.521 . S
La40 O61 2.628 . S
La40 O62 2.554 . S
La40 O63 2.757 . S
La40 O64 2.470 1_545 S
La40 O69 2.482 . S
La40 O71 2.503 . S
La41 C51 2.928 . S
La41 O63 2.482 . S
La41 O65 2.503 1_545 S
La41 O66 2.521 . S
La41 O67 2.628 . S
La41 O68 2.554 . S
La41 O69 2.757 . S
La41 O70 2.470 . S
C42 La40 2.928 1_565 S
C42 C43 1.503 . S
C42 O60 1.261 1_565 S
C42 O61 1.243 1_565 S
C43 C42 1.503 . S
C43 C44 1.394 . S
C43 C48 1.373 . S
C44 C43 1.394 . S
C44 C45 1.380 . S
C44 H72 0.930 . S
C45 C44 1.380 . S
C45 C46 1.376 . S
C45 H73 0.930 . S
C46 C45 1.376 . S
C46 C47 1.370 . S
C47 C46 1.370 . S
C47 C48 1.396 . S
C47 H74 0.929 . S
C48 C43 1.373 . S
C48 C47 1.396 . S
C48 H75 0.929 . S
C49 O62 1.240 . S
C49 O63 1.289 . S
C50 O64 1.258 . S
C50 O65 1.256 . S
C51 La41 2.928 . S
C51 C52 1.503 . S
C51 O66 1.261 . S
C51 O67 1.243 . S
C52 C51 1.503 . S
C52 C53 1.394 . S
C52 C57 1.373 . S
C53 C52 1.394 . S
C53 C54 1.380 . S
C53 H76 0.930 . S
C54 C53 1.380 . S
C54 C55 1.376 . S
C54 H77 0.930 . S
C55 C54 1.376 . S
C55 C56 1.370 . S
C56 C55 1.370 . S
C56 C57 1.396 . S
C56 H78 0.929 . S
C57 C52 1.373 . S
C57 C56 1.396 . S
C57 H79 0.929 . S
C58 O68 1.240 . S
C58 O69 1.289 . S
C59 O70 1.258 . S
C59 O71 1.256 . S
O60 La40 2.521 . S
O60 C42 1.261 1_545 S
O61 La40 2.628 . S
O61 C42 1.243 1_545 S
O62 La40 2.554 . S
O62 C49 1.240 . S
O63 La40 2.757 . S
O63 La41 2.482 . S
O63 C49 1.289 . S
O64 La40 2.470 1_565 S
O64 C50 1.258 . S
O65 La41 2.503 1_565 S
O65 C50 1.256 . S
O66 La41 2.521 . S
O66 C51 1.261 . S
O67 La41 2.628 . S
O67 C51 1.243 . S
O68 La41 2.554 . S
O68 C58 1.240 . S
O69 La40 2.482 . S
O69 La41 2.757 . S
O69 C58 1.289 . S
O70 La41 2.470 . S
O70 C59 1.258 . S
O71 La40 2.503 . S
O71 C59 1.256 . S
H72 C44 0.930 . S
H73 C45 0.930 . S
H74 C47 0.929 . S
H75 C48 0.929 . S
H76 C53 0.930 . S
H77 C54 0.930 . S
H78 C56 0.929 . S
H79 C57 0.929 . S
La80 C82 2.928 . S
La80 O100 2.521 . S
La80 O101 2.628 . S
La80 O102 2.554 1_556 S
La80 O103 2.757 1_556 S
La80 O104 2.470 . S
La80 O109 2.482 . S
La80 O111 2.503 . S
La81 C91 2.928 . S
La81 O103 2.482 1_556 S
La81 O105 2.503 . S
La81 O106 2.521 . S
La81 O107 2.628 . S
La81 O108 2.554 . S
La81 O109 2.757 . S
La81 O110 2.470 . S
C82 La80 2.928 . S
C82 C83 1.503 . S
C82 O100 1.261 . S
C82 O101 1.243 . S
C83 C82 1.503 . S
C83 C84 1.394 . S
C83 C88 1.373 . S
C84 C83 1.394 . S
C84 C85 1.380 . S
C84 H112 0.930 1_556 S
C85 C84 1.380 . S
C85 C86 1.376 . S
C85 H113 0.930 1_556 S
C86 C85 1.376 . S
C86 C87 1.370 . S
C87 C86 1.370 . S
C87 C88 1.396 . S
C87 H114 0.929 . S
C88 C83 1.373 . S
C88 C87 1.396 . S
C88 H115 0.929 . S
C89 O102 1.240 . S
C89 O103 1.289 . S
C90 O104 1.258 . S
C90 O105 1.256 . S
C91 La81 2.928 . S
C91 C92 1.503 . S
C91 O106 1.261 . S
C91 O107 1.243 . S
C92 C91 1.503 . S
C92 C93 1.394 . S
C92 C97 1.373 . S
C93 C92 1.394 . S
C93 C94 1.380 . S
C93 H116 0.930 . S
C94 C93 1.380 . S
C94 C95 1.376 . S
C94 H117 0.930 . S
C95 C94 1.376 . S
C95 C96 1.370 . S
C96 C95 1.370 . S
C96 C97 1.396 . S
C96 H118 0.929 1_556 S
C97 C92 1.373 . S
C97 C96 1.396 . S
C97 H119 0.929 1_556 S
C98 O108 1.240 . S
C98 O109 1.289 . S
C99 O110 1.258 . S
C99 O111 1.256 . S
O100 La80 2.521 . S
O100 C82 1.261 . S
O101 La80 2.628 . S
O101 C82 1.243 . S
O102 La80 2.554 1_554 S
O102 C89 1.240 . S
O103 La80 2.757 1_554 S
O103 La81 2.482 1_554 S
O103 C89 1.289 . S
O104 La80 2.470 . S
O104 C90 1.258 . S
O105 La81 2.503 . S
O105 C90 1.256 . S
O106 La81 2.521 . S
O106 C91 1.261 . S
O107 La81 2.628 . S
O107 C91 1.243 . S
O108 La81 2.554 . S
O108 C98 1.240 . S
O109 La80 2.482 . S
O109 La81 2.757 . S
O109 C98 1.289 . S
O110 La81 2.470 . S
O110 C99 1.258 . S
O111 La80 2.503 . S
O111 C99 1.256 . S
H112 C84 0.930 1_554 S
H113 C85 0.930 1_554 S
H114 C87 0.929 . S
H115 C88 0.929 . S
H116 C93 0.930 . S
H117 C94 0.930 . S
H118 C96 0.929 1_554 S
H119 C97 0.929 1_554 S
C120 C121 1.387 . S
C120 H124 0.950 . S
C120 C129 1.390 . S
C121 C120 1.387 . S
C121 C123 1.387 1_554 S
H122 C129 0.950 . S
C123 C121 1.387 1_556 S
C123 C125 1.390 . S
C123 H127 0.950 . S
H124 C120 0.950 . S
C125 C123 1.390 . S
C125 C126 1.387 . S
C125 H128 0.950 . S
C126 C125 1.387 . S
C126 C129 1.387 1_556 S
H127 C123 0.950 . S
H128 C125 0.950 . S
C129 C120 1.390 . S
C129 H122 0.950 . S
C129 C126 1.387 1_554 S
C130 C131 1.387 . S
C130 H134 0.950 . S
C130 C139 1.390 . S
C131 C130 1.387 . S
C131 C133 1.387 . S
H132 C139 0.950 . S
C133 C131 1.387 . S
C133 C135 1.390 . S
C133 H137 0.950 . S
H134 C130 0.950 . S
C135 C133 1.390 . S
C135 C136 1.387 . S
C135 H138 0.950 . S
C136 C135 1.387 . S
C136 C139 1.387 . S
H137 C133 0.950 . S
H138 C135 0.950 . S
C139 C130 1.390 . S
C139 H132 0.950 . S
C139 C136 1.387 . S
C140 C141 1.387 . S
C140 H144 0.950 . S
C140 C149 1.390 . S
C141 C140 1.387 . S
C141 C143 1.387 . S
H142 C149 0.950 . S
C143 C141 1.387 . S
C143 C145 1.390 . S
C143 H147 0.950 . S
H144 C140 0.950 . S
C145 C143 1.390 . S
C145 C146 1.387 . S
C145 H148 0.950 . S
C146 C145 1.387 . S
C146 C149 1.387 . S
H147 C143 0.950 . S
H148 C145 0.950 . S
C149 C140 1.390 . S
C149 H142 0.950 . S
C149 C146 1.387 . S
C150 C151 1.387 1_554 S
C150 H154 0.950 . S
C150 C159 1.390 . S
C151 C150 1.387 1_556 S
C151 C153 1.387 . S
H152 C159 0.950 . S
C153 C151 1.387 . S
C153 C155 1.390 . S
C153 H157 0.950 . S
H154 C150 0.950 . S
C155 C153 1.390 . S
C155 C156 1.387 1_556 S
C155 H158 0.950 . S
C156 C155 1.387 1_554 S
C156 C159 1.387 . S
H157 C153 0.950 . S
H158 C155 0.950 . S
C159 C150 1.390 . S
C159 H152 0.950 . S
C159 C156 1.387 . S
C160 C161 1.387 . S
C160 H164 0.950 . S
C160 C169 1.390 . S
C161 C160 1.387 . S
C161 C163 1.387 . S
H162 C169 0.950 . S
C163 C161 1.387 . S
C163 C165 1.390 . S
C163 H167 0.950 . S
H164 C160 0.950 . S
C165 C163 1.390 . S
C165 C166 1.387 . S
C165 H168 0.950 . S
C166 C165 1.387 . S
C166 C169 1.387 . S
H167 C163 0.950 . S
H168 C165 0.950 . S
C169 C160 1.390 . S
C169 H162 0.950 . S
C169 C166 1.387 . S
C170 C171 1.387 . S
C170 H174 0.950 . S
C170 C179 1.390 . S
C171 C170 1.387 . S
C171 C173 1.387 . S
H172 C179 0.950 . S
C173 C171 1.387 . S
C173 C175 1.390 . S
C173 H177 0.950 . S
H174 C170 0.950 . S
C175 C173 1.390 . S
C175 C176 1.387 . S
C175 H178 0.950 . S
C176 C175 1.387 . S
C176 C179 1.387 . S
H177 C173 0.950 . S
H178 C175 0.950 . S
C179 C170 1.390 . S
C179 H172 0.950 . S
C179 C176 1.387 . S
C180 C181 1.387 . S
C180 H184 0.950 . S
C180 C189 1.390 . S
C181 C180 1.387 . S
C181 C183 1.387 1_455 S
H182 C189 0.950 . S
C183 C181 1.387 1_655 S
C183 C185 1.390 . S
C183 H187 0.950 . S
H184 C180 0.950 . S
C185 C183 1.390 . S
C185 C186 1.387 1_655 S
C185 H188 0.950 . S
C186 C185 1.387 1_455 S
C186 C189 1.387 . S
H187 C183 0.950 . S
H188 C185 0.950 . S
C189 C180 1.390 . S
C189 H182 0.950 . S
C189 C186 1.387 . S
C190 C191 1.387 1_556 S
C190 H194 0.950 1_556 S
C190 C199 1.390 . S
C191 C190 1.387 1_554 S
C191 C193 1.387 . S
H192 C199 0.950 . S
C193 C191 1.387 . S
C193 C195 1.390 1_554 S
C193 H197 0.950 . S
H194 C190 0.950 1_554 S
C195 C193 1.390 1_556 S
C195 C196 1.387 . S
C195 H198 0.950 . S
C196 C195 1.387 . S
C196 C199 1.387 . S
H197 C193 0.950 . S
H198 C195 0.950 . S
C199 C190 1.390 . S
C199 H192 0.950 . S
C199 C196 1.387 . S
C200 C201 1.387 . S
C200 H204 0.950 . S
C200 C209 1.390 . S
C201 C200 1.387 . S
C201 C203 1.387 . S
H202 C209 0.950 . S
C203 C201 1.387 . S
C203 C205 1.390 . S
C203 H207 0.950 . S
H204 C200 0.950 . S
C205 C203 1.390 . S
C205 C206 1.387 . S
C205 H208 0.950 . S
C206 C205 1.387 . S
C206 C209 1.387 . S
H207 C203 0.950 . S
H208 C205 0.950 . S
C209 C200 1.390 . S
C209 H202 0.950 . S
C209 C206 1.387 . S
C121 C6 2.330 . S
C126 C90 2.347 . S
C131 C59 2.981 . S
C136 C19 2.896 . S
C141 C46 1.678 . S
C146 C86 1.666 . S
C151 C99 2.813 . S
C156 C15 2.609 . S
C161 C50 2.675 . S
C166 C10 2.598 . S
C171 C95 1.714 . S
C176 C55 1.716 . S
C181 C18 0.767 . S
C186 C9 0.767 . S
C191 C49 0.760 . S
C196 C58 0.760 . S
C201 C98 0.767 . S
C206 C89 0.767 . S
