# Generated by pormake.
# Topology pcu, (6)-cn, num edge types: 1
# Building blocks:
#     Node 0, Type 0, BuildingBlock: KUMBOL_clean_sbu_0, # of connection points: 6
#     Edge 1, Type (0, 0), BuildingBlock: AJUNOK_clean_linker_0, # of connection points: 2
#     Edge 2, Type (0, 0), BuildingBlock: AJUNOK_clean_linker_0, # of connection points: 2
#     Edge 3, Type (0, 0), BuildingBlock: AJUNOK_clean_linker_0, # of connection points: 2
# Relax obj value: 0.000
# Max RMSD: 0.000
# Mean RMSD: 0.000
data_MOF--net-pcu--node1-KUMBOL_clean_sbu_0--edge1-AJUNOK_clean_linker_0
_symmetry_space_group_name_H-M    P1
_symmetry_Int_Tables_number       1
_symmetry_cell_setting            triclinic
loop_
_symmetry_equiv_pos_as_xyz
'x, y, z'
_cell_length_a     20.512435
_cell_length_b     9.9802845
_cell_length_c     11.233457
_cell_angle_alpha  77.456273
_cell_angle_beta   114.56029
_cell_angle_gamma 113.6325
loop_
_atom_site_label
_atom_site_type_symbol
_atom_site_fract_x
_atom_site_fract_y
_atom_site_fract_z
_atom_type_partial_charge
Gd0 Gd 0.1189 0.10379 0.04021 0.0
Gd1 Gd 0.90836 0.92134 0.92833 0.0
C2 C 0.79638 0.43915 0.83714 0.0
C3 C 0.72836 0.45298 0.60125 0.0
C4 C 0.8012 0.67532 0.7202 0.0
C5 C 0.82268 0.59326 0.83626 0.0
C6 C 0.752 0.60595 0.60195 0.0
C7 C 0.75086 0.36977 0.71857 0.0
C8 C 0.81461 0.3592 0.95761 0.0
C9 C 0.85545 0.43267 0.07341 0.0
N10 N 0.86618 0.66366 0.94918 0.0
C11 C 0.88029 0.58575 0.0675 0.0
H12 H 0.91257 0.64105 0.15774 0.0
C13 C 0.79706 0.90651 0.61619 0.0
N14 N 0.825 0.82274 0.72436 0.0
C15 C 0.74811 0.84275 0.4965 0.0
C16 C 0.72633 0.69207 0.48888 0.0
H17 H 0.81426 0.02315 0.62184 0.0
H18 H 0.73076 0.25156 0.71721 0.0
H19 H 0.10696 0.39545 0.82989 0.0
H20 H 0.79578 0.24085 0.96246 0.0
H21 H 0.86853 0.37161 0.16724 0.0
H22 H 0.69122 0.3977 0.51113 0.0
H23 H 0.22626 0.98491 0.32477 0.0
H24 H 0.24244 0.78307 0.04294 0.0
H25 H 0.15562 0.66479 0.83411 0.0
H26 H 0.37247 0.60087 0.46967 0.0
H27 H 0.72739 0.90979 0.41023 0.0
H28 H 0.68833 0.64292 0.39612 0.0
H29 H 0.32218 0.75827 0.28095 0.0
H30 H 0.33153 0.08616 0.52936 0.0
N31 N 0.16119 0.36101 0.03573 0.0
C32 C 0.22017 0.66484 0.04198 0.0
C33 C 0.17152 0.59843 0.92387 0.0
C34 C 0.24297 0.5781 0.15609 0.0
C35 C 0.21229 0.42438 0.14963 0.0
C36 C 0.14379 0.44565 0.92205 0.0
N37 N 0.21246 0.18952 0.24319 0.0
C38 C 0.23964 0.33593 0.25638 0.0
C39 C 0.3058 0.15746 0.45383 0.0
C40 C 0.33244 0.30713 0.47117 0.0
C41 C 0.24586 0.10034 0.3381 0.0
C42 C 0.29969 0.39865 0.37153 0.0
H43 H 0.37906 0.35119 0.56068 0.0
O44 O 0.19755 1.00388 0.04786 0.0
O45 O 1.01984 0.90097 0.9767 0.0
O46 O 0.96459 0.90747 0.15278 0.0
O47 O 0.08969 0.079 0.21755 0.0
O48 O 0.116 0.87502 0.1252 0.0
O49 O 0.19304 0.20433 0.92962 0.0
O50 O 0.82052 1.01255 0.88394 0.0
O51 O 1.00711 0.12568 -0.00369 0.0
O52 O 0.05735 0.12428 0.81799 0.0
O53 O 0.94466 0.923 0.76364 0.0
O54 O 0.91296 0.15011 0.83972 0.0
O55 O 0.83351 0.84123 0.03923 0.0
C56 C 0.04716 0.80661 0.0498 0.0
C57 C 0.32721 0.55092 0.38125 0.0
C58 C 0.29854 0.64049 0.27387 0.0
C59 C 0.22763 0.10916 0.97445 0.0
C60 C 0.3116 0.16817 0.02171 0.0
C61 C 0.35391 0.29282 0.09535 0.0
C62 C 0.35 0.0984 0.99252 0.0
C63 C 0.43032 0.15216 0.0368 0.0
C64 C 0.43369 0.34559 0.14111 0.0
C65 C 0.47186 0.27552 0.11263 0.0
C66 C 0.02801 0.9882 0.24246 0.0
C67 C 0.97963 0.21967 0.92109 0.0
C68 C 0.79377 0.9251 0.97048 0.0
C69 C 0.71013 0.8579 0.92659 0.0
C70 C 0.66922 0.73996 0.84506 0.0
C71 C 0.67037 0.91942 0.96112 0.0
C72 C 0.58998 0.86597 0.91286 0.0
C73 C 0.58923 0.68469 0.79847 0.0
C74 C 0.54965 0.74669 0.83258 0.0
C75 C 1.00316 0.02296 0.73551 0.0
H76 H 0.3255 0.34973 0.11702 0.0
H77 H 0.31732 1.00379 0.93344 0.0
H78 H 0.46602 0.44121 0.19861 0.0
H79 H 0.53383 0.31749 0.15015 0.0
H80 H 0.69886 0.69174 0.81661 0.0
H81 H 0.70208 1.01052 0.02433 0.0
H82 H 0.55767 0.59506 0.73403 0.0
H83 H 0.48766 0.70418 0.79349 0.0
C84 C 0.95975 0.90139 0.40219 0.0
C85 C 0.02591 0.9888 0.37403 0.0
C86 C 0.95265 0.91332 0.51837 0.0
C87 C 1.01044 0.01587 0.61032 0.0
H88 H 0.91237 0.82378 0.33348 0.0
H89 H 0.9011 0.84162 0.53543 0.0
S90 S 0.19714 0.26558 0.58874 0.0
N91 N 0.15298 0.17341 0.45533 0.0
N92 N 0.1367 0.2043 0.66535 0.0
C93 C 0.077 0.10259 0.58397 0.0
C94 C 0.08555 0.0865 0.46857 0.0
C95 C 0.45232 0.9273 0.02229 0.0
C96 C 0.47064 0.08032 0.0028 0.0
C97 C 0.49065 0.85796 0.99214 0.0
C98 C 0.54856 0.93944 0.94168 0.0
H99 H 0.40888 0.86102 0.06295 0.0
H100 H 0.47577 0.7403 0.01036 0.0
S101 S 0.61215 0.33974 0.85994 0.0
N102 N 0.5466 0.30918 0.92122 0.0
N103 N 0.61837 0.1788 0.86467 0.0
C104 C 0.56596 0.09165 0.91883 0.0
C105 C 0.52711 0.16212 0.94941 0.0
C106 C 0.99494 0.61772 0.88583 0.0
C107 C 0.02532 0.65548 0.01662 0.0
C108 C 0.97992 0.47595 0.85626 0.0
C109 C 0.99698 0.36868 0.95632 0.0
H110 H 0.98377 0.69814 0.80582 0.0
H111 H 0.95639 0.45101 0.75435 0.0
S112 S 0.06908 0.41151 0.3134 0.0
N113 N 0.0675 0.57443 0.24558 0.0
N114 N 0.03859 0.30803 0.19124 0.0
C115 C 0.02572 0.40519 0.08715 0.0
C116 C 0.04082 0.54905 0.11684 0.0
loop_
_geom_bond_atom_site_label_1
_geom_bond_atom_site_label_2
_geom_bond_distance
_geom_bond_site_symmetry_2
_ccdc_geom_bond_type
Gd0 N31 2.661 1_554 S
Gd0 N37 2.601 . S
Gd0 O44 2.545 . S
Gd0 O45 2.606 1_444 S
Gd0 O47 2.429 1_545 S
Gd0 O48 2.545 1_545 S
Gd0 O49 2.412 . S
Gd0 O51 2.362 . S
Gd0 O52 2.324 1_554 S
Gd0 C59 2.828 . S
Gd1 N10 2.661 1_556 S
Gd1 N14 2.601 . S
Gd1 O45 2.362 . S
Gd1 O46 2.324 1_556 S
Gd1 O50 2.545 . S
Gd1 O51 2.606 1_666 S
Gd1 O53 2.429 1_565 S
Gd1 O54 2.545 1_565 S
Gd1 O55 2.412 . S
Gd1 C68 2.828 . S
C2 C5 1.417 . S
C2 C7 1.431 . S
C2 C8 1.412 1_556 S
C3 C6 1.437 . S
C3 C7 1.317 . S
C3 H22 0.929 . S
C4 C5 1.426 . S
C4 C6 1.413 . S
C4 N14 1.359 . S
C5 C2 1.417 . S
C5 C4 1.426 . S
C5 N10 1.350 1_556 S
C6 C3 1.437 . S
C6 C4 1.413 . S
C6 C16 1.391 . S
C7 C2 1.431 . S
C7 C3 1.317 . S
C7 H18 0.930 . S
C8 C2 1.412 1_554 S
C8 C9 1.355 . S
C8 H20 0.930 . S
C9 C8 1.355 . S
C9 C11 1.402 . S
C9 H21 0.930 . S
N10 Gd1 2.661 1_554 S
N10 C5 1.350 1_554 S
N10 C11 1.307 . S
C11 C9 1.402 . S
C11 N10 1.307 . S
C11 H12 0.930 . S
H12 C11 0.930 . S
C13 N14 1.334 . S
C13 C15 1.394 . S
C13 H17 0.930 . S
N14 Gd1 2.601 . S
N14 C4 1.359 . S
N14 C13 1.334 . S
C15 C13 1.394 . S
C15 C16 1.359 . S
C15 H27 0.930 . S
C16 C6 1.391 . S
C16 C15 1.359 . S
C16 H28 0.929 . S
H17 C13 0.930 . S
H18 C7 0.930 . S
H19 C36 0.930 . S
H20 C8 0.930 . S
H21 C9 0.930 . S
H22 C3 0.929 . S
H23 C41 0.930 . S
H24 C32 0.930 . S
H25 C33 0.930 . S
H26 C57 0.929 . S
H27 C15 0.930 . S
H28 C16 0.929 . S
H29 C58 0.930 . S
H30 C39 0.930 . S
N31 Gd0 2.661 1_556 S
N31 C35 1.350 1_556 S
N31 C36 1.307 . S
C32 H24 0.930 . S
C32 C33 1.355 . S
C32 C34 1.412 1_556 S
C33 H25 0.930 . S
C33 C32 1.355 . S
C33 C36 1.402 . S
C34 C32 1.412 1_554 S
C34 C35 1.417 . S
C34 C58 1.431 . S
C35 N31 1.350 1_554 S
C35 C34 1.417 . S
C35 C38 1.426 . S
C36 H19 0.930 . S
C36 N31 1.307 . S
C36 C33 1.402 . S
N37 Gd0 2.601 . S
N37 C38 1.359 . S
N37 C41 1.334 . S
C38 C35 1.426 . S
C38 N37 1.359 . S
C38 C42 1.413 . S
C39 H30 0.930 . S
C39 C40 1.359 . S
C39 C41 1.394 . S
C40 C39 1.359 . S
C40 C42 1.391 . S
C40 H43 0.929 . S
C41 H23 0.930 . S
C41 N37 1.334 . S
C41 C39 1.394 . S
C42 C38 1.413 . S
C42 C40 1.391 . S
C42 C57 1.437 . S
H43 C40 0.929 . S
O44 Gd0 2.545 . S
O44 C59 1.258 . S
O45 Gd0 2.606 1_666 S
O45 Gd1 2.362 . S
O45 C56 1.284 1_656 S
O46 Gd1 2.324 1_554 S
O46 C66 1.254 1_655 S
O47 Gd0 2.429 1_565 S
O47 C66 1.268 . S
O48 Gd0 2.545 1_565 S
O48 C56 1.250 . S
O49 Gd0 2.412 . S
O49 C59 1.252 . S
O50 Gd1 2.545 . S
O50 C68 1.258 . S
O51 Gd0 2.362 . S
O51 Gd1 2.606 1_444 S
O51 C67 1.284 1_454 S
O52 Gd0 2.324 1_556 S
O52 C75 1.254 1_455 S
O53 Gd1 2.429 1_545 S
O53 C75 1.268 . S
O54 Gd1 2.545 1_545 S
O54 C67 1.250 . S
O55 Gd1 2.412 . S
O55 C68 1.252 . S
C56 O45 1.284 1_454 S
C56 O48 1.250 . S
C57 H26 0.929 . S
C57 C42 1.437 . S
C57 C58 1.317 . S
C58 H29 0.930 . S
C58 C34 1.431 . S
C58 C57 1.317 . S
C59 Gd0 2.828 . S
C59 O44 1.258 . S
C59 O49 1.252 . S
C59 C60 1.497 . S
C60 C59 1.497 . S
C60 C61 1.395 . S
C60 C62 1.380 . S
C61 C60 1.395 . S
C61 C64 1.398 . S
C61 H76 0.930 . S
C62 C60 1.380 . S
C62 C63 1.391 . S
C62 H77 0.930 1_554 S
C63 C62 1.391 . S
C63 C65 1.387 . S
C64 C61 1.398 . S
C64 C65 1.380 . S
C64 H78 0.930 . S
C65 C63 1.387 . S
C65 C64 1.380 . S
C65 H79 0.930 . S
C66 O46 1.254 1_455 S
C66 O47 1.268 . S
C67 O51 1.284 1_656 S
C67 O54 1.250 . S
C68 Gd1 2.828 . S
C68 O50 1.258 . S
C68 O55 1.252 . S
C68 C69 1.497 . S
C69 C68 1.497 . S
C69 C70 1.395 . S
C69 C71 1.380 . S
C70 C69 1.395 . S
C70 C73 1.398 . S
C70 H80 0.930 . S
C71 C69 1.380 . S
C71 C72 1.391 . S
C71 H81 0.930 1_556 S
C72 C71 1.391 . S
C72 C74 1.387 . S
C73 C70 1.398 . S
C73 C74 1.380 . S
C73 H82 0.930 . S
C74 C72 1.387 . S
C74 C73 1.380 . S
C74 H83 0.930 . S
C75 O52 1.254 1_655 S
C75 O53 1.268 . S
H76 C61 0.930 . S
H77 C62 0.930 1_556 S
H78 C64 0.930 . S
H79 C65 0.930 . S
H80 C70 0.930 . S
H81 C71 0.930 1_554 S
H82 C73 0.930 . S
H83 C74 0.930 . S
C84 C85 1.370 1_565 S
C84 C86 1.419 . S
C84 H88 0.930 . S
C85 C84 1.370 1_545 S
C85 C94 1.424 1_455 S
C86 C84 1.419 . S
C86 C87 1.366 1_565 S
C86 H89 0.929 . S
C87 C86 1.366 1_545 S
C87 C93 1.428 1_455 S
H88 C84 0.930 . S
H89 C86 0.929 . S
S90 N91 1.621 . S
S90 N92 1.608 1_455 S
N91 S90 1.621 . S
N91 C94 1.350 1_455 S
N92 S90 1.608 1_655 S
N92 C93 1.344 . S
C93 C87 1.428 1_655 S
C93 N92 1.344 . S
C93 C94 1.434 . S
C94 C85 1.424 1_655 S
C94 N91 1.350 1_655 S
C94 C93 1.434 . S
C95 C96 1.370 1_554 S
C95 C97 1.419 . S
C95 H99 0.930 . S
C96 C95 1.370 1_556 S
C96 C105 1.430 1_565 S
C97 C95 1.419 . S
C97 C98 1.363 1_554 S
C97 H100 0.929 . S
C98 C97 1.363 1_556 S
C98 C104 1.428 1_565 S
H99 C95 0.930 . S
H100 C97 0.929 . S
S101 N102 1.613 . S
S101 N103 1.610 . S
N102 S101 1.613 . S
N102 C105 1.350 . S
N103 S101 1.610 . S
N103 C104 1.351 . S
C104 C98 1.428 1_545 S
C104 N103 1.351 . S
C104 C105 1.434 . S
C105 C96 1.430 1_545 S
C105 N102 1.350 . S
C105 C104 1.434 . S
C106 C107 1.363 1_456 S
C106 C108 1.419 . S
C106 H110 0.930 . S
C107 C106 1.363 1_654 S
C107 C116 1.431 . S
C108 C106 1.419 . S
C108 C109 1.358 1_456 S
C108 H111 0.929 . S
C109 C108 1.358 1_654 S
C109 C115 1.439 . S
H110 C106 0.930 . S
H111 C108 0.929 . S
S112 N113 1.613 . S
S112 N114 1.610 . S
N113 S112 1.613 . S
N113 C116 1.350 . S
N114 S112 1.610 . S
N114 C115 1.351 . S
C115 C109 1.439 . S
C115 N114 1.351 . S
C115 C116 1.434 . S
C116 C107 1.431 . S
C116 N113 1.350 . S
C116 C115 1.434 . S
C85 C66 1.479 1_545 S
C87 C75 1.467 1_455 S
C96 C63 1.329 1_566 S
C98 C72 1.318 . S
C107 C56 1.438 1_655 S
C109 C67 1.429 1_554 S
