# Generated by pormake.
# Topology umw, (4)-cn, num edge types: 1
# Building blocks:
#     Node 0, Type 0, BuildingBlock: GALJAG_clean_sbu_0, # of connection points: 4
#     Node 1, Type 0, BuildingBlock: GALJAG_clean_sbu_0, # of connection points: 4
#     Node 2, Type 0, BuildingBlock: GALJAG_clean_sbu_0, # of connection points: 4
#     Node 3, Type 0, BuildingBlock: GALJAG_clean_sbu_0, # of connection points: 4
#     Node 4, Type 0, BuildingBlock: GALJAG_clean_sbu_0, # of connection points: 4
#     Node 5, Type 0, BuildingBlock: GALJAG_clean_sbu_0, # of connection points: 4
#     Node 6, Type 0, BuildingBlock: GALJAG_clean_sbu_0, # of connection points: 4
#     Node 7, Type 0, BuildingBlock: GALJAG_clean_sbu_0, # of connection points: 4
#     Edge 8, Type (0, 0), BuildingBlock: EYOCIG_clean_linker_4, # of connection points: 2
#     Edge 9, Type (0, 0), BuildingBlock: EYOCIG_clean_linker_4, # of connection points: 2
#     Edge 10, Type (0, 0), BuildingBlock: EYOCIG_clean_linker_4, # of connection points: 2
#     Edge 11, Type (0, 0), BuildingBlock: EYOCIG_clean_linker_4, # of connection points: 2
#     Edge 12, Type (0, 0), BuildingBlock: EYOCIG_clean_linker_4, # of connection points: 2
#     Edge 13, Type (0, 0), BuildingBlock: EYOCIG_clean_linker_4, # of connection points: 2
#     Edge 14, Type (0, 0), BuildingBlock: EYOCIG_clean_linker_4, # of connection points: 2
#     Edge 15, Type (0, 0), BuildingBlock: EYOCIG_clean_linker_4, # of connection points: 2
#     Edge 16, Type (0, 0), BuildingBlock: EYOCIG_clean_linker_4, # of connection points: 2
#     Edge 17, Type (0, 0), BuildingBlock: EYOCIG_clean_linker_4, # of connection points: 2
#     Edge 18, Type (0, 0), BuildingBlock: EYOCIG_clean_linker_4, # of connection points: 2
#     Edge 19, Type (0, 0), BuildingBlock: EYOCIG_clean_linker_4, # of connection points: 2
#     Edge 20, Type (0, 0), BuildingBlock: EYOCIG_clean_linker_4, # of connection points: 2
#     Edge 21, Type (0, 0), BuildingBlock: EYOCIG_clean_linker_4, # of connection points: 2
#     Edge 22, Type (0, 0), BuildingBlock: EYOCIG_clean_linker_4, # of connection points: 2
#     Edge 23, Type (0, 0), BuildingBlock: EYOCIG_clean_linker_4, # of connection points: 2
# Relax obj value: 0.088
# Max RMSD: 0.077
# Mean RMSD: 0.077
data_MOF--net-umw--node1-GALJAG_clean_sbu_0--edge1-EYOCIG_clean_linker_4
_symmetry_space_group_name_H-M    P1
_symmetry_Int_Tables_number       1
_symmetry_cell_setting            triclinic
loop_
_symmetry_equiv_pos_as_xyz
'x, y, z'
_cell_length_a     31.109601
_cell_length_b     31.144205
_cell_length_c     22.441755
_cell_angle_alpha  89.996263
_cell_angle_beta   90.010487
_cell_angle_gamma 90.042722
loop_
_atom_site_label
_atom_site_type_symbol
_atom_site_fract_x
_atom_site_fract_y
_atom_site_fract_z
_atom_type_partial_charge
In0 In 0.44334 0.19759 0.31954 0.0
O1 O 0.37536 0.21814 0.34794 0.0
O2 O 0.42357 0.26651 0.34298 0.0
C3 C 0.43952 0.11147 0.31723 0.0
C4 C 0.48372 0.20538 0.42249 0.0
C5 C 0.46993 0.21166 0.20656 0.0
O6 O 0.40619 0.1344 0.31205 0.0
O7 O 0.47438 0.13165 0.323 0.0
O8 O 0.49473 0.2153 0.25078 0.0
O9 O 0.43129 0.20309 0.21909 0.0
C10 C 0.38577 0.2567 0.35806 0.0
O11 O 0.50008 0.22049 0.3753 0.0
O12 O 0.44911 0.18487 0.41682 0.0
In13 In 0.81072 0.4426 0.56877 0.0
O14 O 0.78937 0.49938 0.6254 0.0
O15 O 0.82415 0.44739 0.66581 0.0
C16 C 0.79645 0.46822 0.45575 0.0
C17 C 0.75103 0.38518 0.60629 0.0
C18 C 0.89694 0.44038 0.5654 0.0
O19 O 0.79188 0.49313 0.49967 0.0
O20 O 0.80599 0.42993 0.46866 0.0
O21 O 0.87454 0.40656 0.56147 0.0
O22 O 0.87617 0.47488 0.57054 0.0
C23 C 0.80476 0.48252 0.67209 0.0
O24 O 0.78964 0.37467 0.59647 0.0
O25 O 0.74156 0.42316 0.59186 0.0
In26 In 0.56579 0.81048 0.81937 0.0
O27 O 0.63368 0.79004 0.8485 0.0
O28 O 0.58556 0.74158 0.84294 0.0
C29 C 0.56807 0.89664 0.8167 0.0
C30 C 0.52507 0.80292 0.92202 0.0
C31 C 0.54071 0.79642 0.70583 0.0
O32 O 0.6019 0.87432 0.81256 0.0
O33 O 0.53352 0.87584 0.82179 0.0
O34 O 0.5155 0.79206 0.74948 0.0
O35 O 0.57905 0.80562 0.71924 0.0
C36 C 0.62329 0.75143 0.85838 0.0
O37 O 0.50885 0.7877 0.87478 0.0
O38 O 0.55978 0.8233 0.91653 0.0
In39 In 0.19809 0.56549 0.06894 0.0
O40 O 0.22017 0.5098 0.12717 0.0
O41 O 0.18422 0.56163 0.16594 0.0
C42 C 0.21248 0.53858 0.95641 0.0
C43 C 0.25717 0.62369 0.10601 0.0
C44 C 0.11191 0.56753 0.06585 0.0
O45 O 0.21696 0.51415 0.00087 0.0
O46 O 0.203 0.57702 0.96853 0.0
O47 O 0.13425 0.60131 0.061 0.0
O48 O 0.13272 0.53309 0.07158 0.0
C49 C 0.20434 0.52703 0.17333 0.0
O50 O 0.21859 0.63388 0.0953 0.0
O51 O 0.26698 0.58563 0.09243 0.0
In52 In 0.44311 0.81071 0.30999 0.0
O53 O 0.37487 0.79037 0.2824 0.0
O54 O 0.42298 0.74189 0.28634 0.0
C55 C 0.43966 0.89673 0.31455 0.0
C56 C 0.48179 0.8039 0.20568 0.0
C57 C 0.47044 0.79631 0.42245 0.0
O58 O 0.40626 0.8738 0.31939 0.0
O59 O 0.47442 0.87658 0.30771 0.0
O60 O 0.49499 0.79277 0.37794 0.0
O61 O 0.43171 0.80474 0.4104 0.0
C62 C 0.38509 0.75183 0.27183 0.0
O63 O 0.49871 0.78799 0.25198 0.0
O64 O 0.44763 0.82484 0.21296 0.0
In65 In 0.19823 0.44254 0.5603 0.0
O66 O 0.22015 0.4994 0.50413 0.0
O67 O 0.18522 0.44771 0.46315 0.0
C68 C 0.2124 0.46804 0.67348 0.0
C69 C 0.25761 0.3848 0.52297 0.0
C70 C 0.11199 0.44038 0.56303 0.0
O71 O 0.21707 0.49298 0.62961 0.0
O72 O 0.20279 0.42978 0.66046 0.0
O73 O 0.1343 0.40655 0.56706 0.0
O74 O 0.13285 0.47487 0.55814 0.0
C75 C 0.20485 0.48278 0.45721 0.0
O76 O 0.21892 0.37448 0.53272 0.0
O77 O 0.26729 0.42275 0.53735 0.0
In78 In 0.56569 0.19757 0.80997 0.0
O79 O 0.50982 0.22032 0.75257 0.0
O80 O 0.56117 0.18421 0.7128 0.0
C81 C 0.5401 0.21192 0.92317 0.0
C82 C 0.62301 0.25694 0.77154 0.0
C83 C 0.56784 0.11146 0.81349 0.0
O84 O 0.51497 0.2158 0.87931 0.0
O85 O 0.57857 0.20306 0.91008 0.0
O86 O 0.60168 0.13383 0.81773 0.0
O87 O 0.53332 0.13221 0.80782 0.0
C88 C 0.52683 0.20495 0.70596 0.0
O89 O 0.63362 0.21842 0.7817 0.0
O90 O 0.58515 0.26655 0.78658 0.0
In91 In 0.81077 0.5654 0.06041 0.0
O92 O 0.78936 0.50943 0.00224 0.0
O93 O 0.82473 0.56171 0.96344 0.0
C94 C 0.79637 0.53865 0.17288 0.0
C95 C 0.7512 0.62307 0.02348 0.0
C96 C 0.89693 0.56768 0.06433 0.0
O97 O 0.79187 0.51414 0.1285 0.0
O98 O 0.80586 0.57709 0.1607 0.0
O99 O 0.87454 0.60144 0.06874 0.0
O100 O 0.87617 0.5332 0.05845 0.0
C101 C 0.80506 0.52681 0.95609 0.0
O102 O 0.78979 0.63354 0.03372 0.0
O103 O 0.74167 0.58497 0.03734 0.0
C104 C 0.50521 0.21804 0.5328 0.0
C105 C 0.49953 0.21477 0.48029 0.0
C106 C 0.50717 0.21791 0.59499 0.0
C107 C 0.51218 0.21445 0.64761 0.0
C108 C 0.7952 0.50442 0.78273 0.0
C109 C 0.79716 0.49866 0.73015 0.0
C110 C 0.7953 0.50634 0.84489 0.0
C111 C 0.79739 0.5116 0.89756 0.0
C112 C 0.50114 0.79138 0.09447 0.0
C113 C 0.4962 0.79465 0.14713 0.0
C114 C 0.50309 0.79108 0.03228 0.0
C115 C 0.50891 0.79395 0.97975 0.0
C116 C 0.21484 0.505 0.34676 0.0
C117 C 0.21272 0.49911 0.39931 0.0
C118 C 0.21471 0.50695 0.28459 0.0
C119 C 0.21239 0.51207 0.2319 0.0
C120 C 0.33684 0.30884 0.42314 0.0
C121 C 0.35929 0.28523 0.39345 0.0
C122 C 0.31041 0.33522 0.45988 0.0
C123 C 0.28648 0.35795 0.48865 0.0
C124 C 0.69806 0.33583 0.66962 0.0
C125 C 0.72203 0.35849 0.64073 0.0
C126 C 0.67169 0.30939 0.70643 0.0
C127 C 0.64935 0.28563 0.73612 0.0
C128 C 0.69848 0.67266 0.9602 0.0
C129 C 0.72237 0.64991 -0.01094 0.0
C130 C 0.67213 0.69911 0.92342 0.0
C131 C 0.64972 0.72281 0.89376 0.0
C132 C 0.30931 0.67363 0.16982 0.0
C133 C 0.28563 0.65078 0.14073 0.0
C134 C 0.33566 0.70001 0.20677 0.0
C135 C 0.35829 0.72352 0.23644 0.0
C136 C 0.43841 0.98143 0.31685 0.0
C137 C 0.43845 0.94275 0.31589 0.0
C138 C 0.43828 0.02674 0.3172 0.0
C139 C 0.43821 0.06543 0.31711 0.0
C140 C 0.98178 0.44046 0.56414 0.0
C141 C 0.94305 0.43996 0.56465 0.0
C142 C 0.02714 0.44047 0.56376 0.0
C143 C 0.06588 0.43998 0.56348 0.0
C144 C 0.568 0.9814 0.8157 0.0
C145 C 0.56851 0.9427 0.81609 0.0
C146 C 0.5679 0.02671 0.81516 0.0
C147 C 0.56828 0.06541 0.81446 0.0
C148 C 0.98174 0.56766 0.06561 0.0
C149 C 0.94302 0.56816 0.0651 0.0
C150 C 0.02709 0.56757 0.06572 0.0
C151 C 0.06582 0.56796 0.06571 0.0
C152 C 0.51288 0.21557 0.03515 0.0
C153 C 0.5252 0.21392 0.98403 0.0
C154 C 0.4981 0.21549 0.09504 0.0
C155 C 0.48536 0.21376 0.14596 0.0
C156 C 0.79269 0.51042 0.28423 0.0
C157 C 0.79432 0.52308 0.23332 0.0
C158 C 0.79272 0.49566 0.34403 0.0
C159 C 0.7944 0.48323 0.39504 0.0
C160 C 0.51374 0.79296 0.59372 0.0
C161 C 0.52598 0.79453 0.64488 0.0
C162 C 0.49902 0.79293 0.5338 0.0
C163 C 0.48622 0.79443 0.4829 0.0
C164 C 0.21618 0.51023 0.84508 0.0
C165 C 0.21454 0.52294 0.89598 0.0
C166 C 0.21614 0.49542 0.78527 0.0
C167 C 0.21445 0.483 0.73424 0.0
loop_
_geom_bond_atom_site_label_1
_geom_bond_atom_site_label_2
_geom_bond_distance
_geom_bond_site_symmetry_2
_ccdc_geom_bond_type
In0 O1 2.294 . S
In0 O2 2.326 . S
In0 O6 2.266 . S
In0 O7 2.326 . S
In0 O8 2.266 . S
In0 O9 2.326 . S
In0 O11 2.294 . S
In0 O12 2.326 . S
O1 In0 2.294 . S
O1 C10 1.240 . S
O2 In0 2.326 . S
O2 C10 1.252 . S
C3 O6 1.252 . S
C3 O7 1.260 . S
C4 O11 1.240 . S
C4 O12 1.252 . S
C5 O8 1.252 . S
C5 O9 1.260 . S
O6 In0 2.266 . S
O6 C3 1.252 . S
O7 In0 2.326 . S
O7 C3 1.260 . S
O8 In0 2.266 . S
O8 C5 1.252 . S
O9 In0 2.326 . S
O9 C5 1.260 . S
C10 O1 1.240 . S
C10 O2 1.252 . S
O11 In0 2.294 . S
O11 C4 1.240 . S
O12 In0 2.326 . S
O12 C4 1.252 . S
In13 O14 2.294 . S
In13 O15 2.326 . S
In13 O19 2.266 . S
In13 O20 2.326 . S
In13 O21 2.266 . S
In13 O22 2.326 . S
In13 O24 2.294 . S
In13 O25 2.326 . S
O14 In13 2.294 . S
O14 C23 1.240 . S
O15 In13 2.326 . S
O15 C23 1.252 . S
C16 O19 1.252 . S
C16 O20 1.260 . S
C17 O24 1.240 . S
C17 O25 1.252 . S
C18 O21 1.252 . S
C18 O22 1.260 . S
O19 In13 2.266 . S
O19 C16 1.252 . S
O20 In13 2.326 . S
O20 C16 1.260 . S
O21 In13 2.266 . S
O21 C18 1.252 . S
O22 In13 2.326 . S
O22 C18 1.260 . S
C23 O14 1.240 . S
C23 O15 1.252 . S
O24 In13 2.294 . S
O24 C17 1.240 . S
O25 In13 2.326 . S
O25 C17 1.252 . S
In26 O27 2.294 . S
In26 O28 2.326 . S
In26 O32 2.266 . S
In26 O33 2.326 . S
In26 O34 2.266 . S
In26 O35 2.326 . S
In26 O37 2.294 . S
In26 O38 2.326 . S
O27 In26 2.294 . S
O27 C36 1.240 . S
O28 In26 2.326 . S
O28 C36 1.252 . S
C29 O32 1.252 . S
C29 O33 1.260 . S
C30 O37 1.240 . S
C30 O38 1.252 . S
C31 O34 1.252 . S
C31 O35 1.260 . S
O32 In26 2.266 . S
O32 C29 1.252 . S
O33 In26 2.326 . S
O33 C29 1.260 . S
O34 In26 2.266 . S
O34 C31 1.252 . S
O35 In26 2.326 . S
O35 C31 1.260 . S
C36 O27 1.240 . S
C36 O28 1.252 . S
O37 In26 2.294 . S
O37 C30 1.240 . S
O38 In26 2.326 . S
O38 C30 1.252 . S
In39 O40 2.294 . S
In39 O41 2.326 . S
In39 O45 2.266 . S
In39 O46 2.326 1_554 S
In39 O47 2.266 . S
In39 O48 2.326 . S
In39 O50 2.294 . S
In39 O51 2.326 . S
O40 In39 2.294 . S
O40 C49 1.240 . S
O41 In39 2.326 . S
O41 C49 1.252 . S
C42 O45 1.252 1_556 S
C42 O46 1.260 . S
C43 O50 1.240 . S
C43 O51 1.252 . S
C44 O47 1.252 . S
C44 O48 1.260 . S
O45 In39 2.266 . S
O45 C42 1.252 1_554 S
O46 In39 2.326 1_556 S
O46 C42 1.260 . S
O47 In39 2.266 . S
O47 C44 1.252 . S
O48 In39 2.326 . S
O48 C44 1.260 . S
C49 O40 1.240 . S
C49 O41 1.252 . S
O50 In39 2.294 . S
O50 C43 1.240 . S
O51 In39 2.326 . S
O51 C43 1.252 . S
In52 O53 2.294 . S
In52 O54 2.326 . S
In52 O58 2.266 . S
In52 O59 2.326 . S
In52 O60 2.266 . S
In52 O61 2.326 . S
In52 O63 2.294 . S
In52 O64 2.326 . S
O53 In52 2.294 . S
O53 C62 1.240 . S
O54 In52 2.326 . S
O54 C62 1.252 . S
C55 O58 1.252 . S
C55 O59 1.260 . S
C56 O63 1.240 . S
C56 O64 1.252 . S
C57 O60 1.252 . S
C57 O61 1.260 . S
O58 In52 2.266 . S
O58 C55 1.252 . S
O59 In52 2.326 . S
O59 C55 1.260 . S
O60 In52 2.266 . S
O60 C57 1.252 . S
O61 In52 2.326 . S
O61 C57 1.260 . S
C62 O53 1.240 . S
C62 O54 1.252 . S
O63 In52 2.294 . S
O63 C56 1.240 . S
O64 In52 2.326 . S
O64 C56 1.252 . S
In65 O66 2.294 . S
In65 O67 2.326 . S
In65 O71 2.266 . S
In65 O72 2.326 . S
In65 O73 2.266 . S
In65 O74 2.326 . S
In65 O76 2.294 . S
In65 O77 2.326 . S
O66 In65 2.294 . S
O66 C75 1.240 . S
O67 In65 2.326 . S
O67 C75 1.252 . S
C68 O71 1.252 . S
C68 O72 1.260 . S
C69 O76 1.240 . S
C69 O77 1.252 . S
C70 O73 1.252 . S
C70 O74 1.260 . S
O71 In65 2.266 . S
O71 C68 1.252 . S
O72 In65 2.326 . S
O72 C68 1.260 . S
O73 In65 2.266 . S
O73 C70 1.252 . S
O74 In65 2.326 . S
O74 C70 1.260 . S
C75 O66 1.240 . S
C75 O67 1.252 . S
O76 In65 2.294 . S
O76 C69 1.240 . S
O77 In65 2.326 . S
O77 C69 1.252 . S
In78 O79 2.294 . S
In78 O80 2.326 . S
In78 O84 2.266 . S
In78 O85 2.326 . S
In78 O86 2.266 . S
In78 O87 2.326 . S
In78 O89 2.294 . S
In78 O90 2.326 . S
O79 In78 2.294 . S
O79 C88 1.240 . S
O80 In78 2.326 . S
O80 C88 1.252 . S
C81 O84 1.252 . S
C81 O85 1.260 . S
C82 O89 1.240 . S
C82 O90 1.252 . S
C83 O86 1.252 . S
C83 O87 1.260 . S
O84 In78 2.266 . S
O84 C81 1.252 . S
O85 In78 2.326 . S
O85 C81 1.260 . S
O86 In78 2.266 . S
O86 C83 1.252 . S
O87 In78 2.326 . S
O87 C83 1.260 . S
C88 O79 1.240 . S
C88 O80 1.252 . S
O89 In78 2.294 . S
O89 C82 1.240 . S
O90 In78 2.326 . S
O90 C82 1.252 . S
In91 O92 2.294 1_554 S
In91 O93 2.326 1_554 S
In91 O97 2.266 . S
In91 O98 2.326 . S
In91 O99 2.266 . S
In91 O100 2.326 . S
In91 O102 2.294 . S
In91 O103 2.326 . S
O92 In91 2.294 1_556 S
O92 C101 1.240 . S
O93 In91 2.326 1_556 S
O93 C101 1.252 . S
C94 O97 1.252 . S
C94 O98 1.260 . S
C95 O102 1.240 . S
C95 O103 1.252 . S
C96 O99 1.252 . S
C96 O100 1.260 . S
O97 In91 2.266 . S
O97 C94 1.252 . S
O98 In91 2.326 . S
O98 C94 1.260 . S
O99 In91 2.266 . S
O99 C96 1.252 . S
O100 In91 2.326 . S
O100 C96 1.260 . S
C101 O92 1.240 . S
C101 O93 1.252 . S
O102 In91 2.294 . S
O102 C95 1.240 . S
O103 In91 2.326 . S
O103 C95 1.252 . S
C104 C105 1.170 . S
C104 C106 1.380 . S
C105 C104 1.170 . S
C106 C104 1.380 . S
C106 C107 1.170 . S
C107 C106 1.170 . S
C108 C109 1.170 . S
C108 C110 1.380 . S
C109 C108 1.170 . S
C110 C108 1.380 . S
C110 C111 1.170 . S
C111 C110 1.170 . S
C112 C113 1.170 . S
C112 C114 1.380 . S
C113 C112 1.170 . S
C114 C112 1.380 . S
C114 C115 1.170 1_554 S
C115 C114 1.170 1_556 S
C116 C117 1.170 . S
C116 C118 1.380 . S
C117 C116 1.170 . S
C118 C116 1.380 . S
C118 C119 1.170 . S
C119 C118 1.170 . S
C120 C121 1.170 . S
C120 C122 1.380 . S
C121 C120 1.170 . S
C122 C120 1.380 . S
C122 C123 1.170 . S
C123 C122 1.170 . S
C124 C125 1.170 . S
C124 C126 1.380 . S
C125 C124 1.170 . S
C126 C124 1.380 . S
C126 C127 1.170 . S
C127 C126 1.170 . S
C128 C129 1.170 1_556 S
C128 C130 1.380 . S
C129 C128 1.170 1_554 S
C130 C128 1.380 . S
C130 C131 1.170 . S
C131 C130 1.170 . S
C132 C133 1.170 . S
C132 C134 1.380 . S
C133 C132 1.170 . S
C134 C132 1.380 . S
C134 C135 1.170 . S
C135 C134 1.170 . S
C136 C137 1.170 . S
C136 C138 1.380 1_565 S
C137 C136 1.170 . S
C138 C136 1.380 1_545 S
C138 C139 1.170 . S
C139 C138 1.170 . S
C140 C141 1.170 . S
C140 C142 1.380 1_655 S
C141 C140 1.170 . S
C142 C140 1.380 1_455 S
C142 C143 1.170 . S
C143 C142 1.170 . S
C144 C145 1.170 . S
C144 C146 1.380 1_565 S
C145 C144 1.170 . S
C146 C144 1.380 1_545 S
C146 C147 1.170 . S
C147 C146 1.170 . S
C148 C149 1.170 . S
C148 C150 1.380 1_655 S
C149 C148 1.170 . S
C150 C148 1.380 1_455 S
C150 C151 1.170 . S
C151 C150 1.170 . S
C152 C153 1.153 1_554 S
C152 C154 1.380 . S
C153 C152 1.153 1_556 S
C154 C152 1.380 . S
C154 C155 1.170 . S
C155 C154 1.170 . S
C156 C157 1.170 . S
C156 C158 1.380 . S
C157 C156 1.170 . S
C158 C156 1.380 . S
C158 C159 1.170 . S
C159 C158 1.170 . S
C160 C161 1.170 . S
C160 C162 1.380 . S
C161 C160 1.170 . S
C162 C160 1.380 . S
C162 C163 1.170 . S
C163 C162 1.170 . S
C164 C165 1.170 . S
C164 C166 1.380 . S
C165 C164 1.170 . S
C166 C164 1.380 . S
C166 C167 1.170 . S
C167 C166 1.170 . S
C105 C4 0.888 . S
C107 C88 0.864 . S
C109 C23 0.885 . S
C111 C101 0.866 . S
C113 C56 0.859 . S
C115 C30 0.893 . S
C117 C75 0.890 . S
C119 C49 0.861 . S
C121 C10 1.541 . S
C123 C69 1.569 . S
C125 C17 1.569 . S
C127 C82 1.546 . S
C129 C95 1.569 . S
C131 C36 1.542 . S
C133 C43 1.559 . S
C135 C62 1.542 . S
C137 C55 1.587 . S
C139 C3 1.575 . S
C141 C18 1.575 . S
C143 C70 1.572 . S
C145 C29 1.572 . S
C147 C83 1.576 . S
C149 C96 1.577 . S
C151 C44 1.571 . S
C153 C81 1.667 . S
C155 C5 1.648 . S
C157 C94 1.649 . S
C159 C16 1.650 . S
C161 C31 1.649 . S
C163 C57 1.646 . S
C165 C42 1.648 . S
C167 C68 1.650 . S
