# Generated by pormake.
# Topology pcu, (6)-cn, num edge types: 1
# Building blocks:
#     Node 0, Type 0, BuildingBlock: CUKXOW_clean_sbu_0, # of connection points: 6
#     Edge 1, Type (0, 0), BuildingBlock: CIFDUS_clean_linker_0, # of connection points: 2
#     Edge 2, Type (0, 0), BuildingBlock: CIFDUS_clean_linker_0, # of connection points: 2
#     Edge 3, Type (0, 0), BuildingBlock: CIFDUS_clean_linker_0, # of connection points: 2
# Relax obj value: 0.000
# Max RMSD: 0.000
# Mean RMSD: 0.000
data_MOF--net-pcu--node1-CUKXOW_clean_sbu_0--edge1-CIFDUS_clean_linker_0
_symmetry_space_group_name_H-M    P1
_symmetry_Int_Tables_number       1
_symmetry_cell_setting            triclinic
loop_
_symmetry_equiv_pos_as_xyz
'x, y, z'
_cell_length_a     11.81597
_cell_length_b     16.332037
_cell_length_c     13.444468
_cell_angle_alpha  91.477286
_cell_angle_beta   97.404238
_cell_angle_gamma 125.70168
loop_
_atom_site_label
_atom_site_type_symbol
_atom_site_fract_x
_atom_site_fract_y
_atom_site_fract_z
_atom_type_partial_charge
Tb0 Tb 0.09006 0.11241 0.98537 0.0
C1 C 0.04738 0.98945 0.78384 0.0
Tb2 Tb 0.99635 0.88819 -0.01159 0.0
O3 O 0.30267 0.16883 0.9584 0.0
O4 O 0.18421 0.03797 0.02708 0.0
O5 O 0.04615 0.06391 0.82454 0.0
C6 C 0.98566 0.71901 0.9806 0.0
O7 O 0.04745 0.92192 0.83712 0.0
C8 C 0.79326 0.91075 0.98608 0.0
C9 C 1.03889 0.01111 0.18992 0.0
O10 O 0.90737 0.73428 0.91886 0.0
O11 O 0.06858 0.79854 0.04763 0.0
O12 O 0.78364 0.83195 0.01535 0.0
O13 O 0.90249 0.96265 0.94684 0.0
O14 O 1.04008 0.93663 0.14923 0.0
O15 O 1.03891 0.07868 0.13665 0.0
C16 C 0.10074 0.28159 -0.00682 0.0
O17 O 0.17884 0.26624 0.05503 0.0
O18 O 1.018 0.20213 0.92604 0.0
C19 C 0.2933 0.09013 -0.0123 0.0
H20 H 1.04002 0.8902 0.32528 0.0
H21 H 1.03849 0.15297 0.30228 0.0
H22 H 1.0422 0.1697 0.48353 0.0
H23 H 0.04614 0.11032 0.64847 0.0
H24 H 0.04769 0.84756 0.67147 0.0
H25 H 0.04392 0.8308 0.49022 0.0
C26 C 1.04034 0.95116 0.35965 0.0
C27 C 1.03897 0.02013 0.29984 0.0
C28 C 1.04268 0.96061 0.46408 0.0
C29 C 1.03941 0.09859 0.34613 0.0
C30 C 1.04165 0.10839 0.44997 0.0
C31 C 0.04581 0.04936 0.6141 0.0
C32 C 0.04722 0.98041 0.67391 0.0
C33 C 0.04344 0.03991 0.50967 0.0
C34 C 0.04675 0.90193 0.62762 0.0
C35 C 0.04448 0.89213 0.52378 0.0
H36 H 0.25599 0.91109 0.95489 0.0
H37 H 0.57827 0.23361 0.0171 0.0
H38 H 0.76259 0.20672 0.02475 0.0
H39 H 0.83065 0.08989 0.01874 0.0
H40 H 0.50834 0.76739 0.95641 0.0
H41 H 0.32405 0.79429 0.94872 0.0
C42 C 0.36631 0.97481 0.973 0.0
C43 C 0.40362 0.07356 -0.01127 0.0
C44 C 0.47109 0.95849 0.97723 0.0
C45 C 0.54723 0.1567 0.00555 0.0
C46 C 0.65247 0.14135 0.01009 0.0
C47 C 0.72035 0.02619 0.00051 0.0
C48 C 0.68302 0.92744 0.98479 0.0
C49 C 0.61557 0.04253 -0.00379 0.0
C50 C 0.53939 0.84431 0.96791 0.0
C51 C 0.43416 0.85966 0.96335 0.0
H52 H 0.16446 0.68918 0.09347 0.0
H53 H 0.81036 0.54678 0.84675 0.0
H54 H 0.81546 0.39957 0.82765 0.0
H55 H 0.92203 0.31146 0.88024 0.0
H56 H 0.27604 0.45382 0.12703 0.0
H57 H 0.27099 0.60105 0.14609 0.0
C58 C 0.08814 0.62569 0.03581 0.0
C59 C 0.98691 0.62878 0.97175 0.0
C60 C 0.09259 0.54159 0.02469 0.0
C61 C 0.88921 0.54623 0.89705 0.0
C62 C 0.8923 0.46209 0.88595 0.0
C63 C 0.99834 0.37495 0.9379 0.0
C64 C 0.09953 0.37184 0.00199 0.0
C65 C 0.99388 0.45905 0.94902 0.0
C66 C 0.19721 0.45439 0.0767 0.0
C67 C 0.19415 0.53853 0.08778 0.0
loop_
_geom_bond_atom_site_label_1
_geom_bond_atom_site_label_2
_geom_bond_distance
_geom_bond_site_symmetry_2
_ccdc_geom_bond_type
Tb0 O3 2.453 . S
Tb0 O4 2.596 1_545 S
Tb0 O5 2.374 1_554 S
Tb0 O13 2.343 1_454 S
Tb0 O15 2.353 . S
Tb0 O17 2.427 . S
Tb0 O18 2.513 1_554 S
C1 O5 1.251 1_655 S
C1 O7 1.263 1_545 S
Tb2 O4 2.343 1_656 S
Tb2 O7 2.353 . S
Tb2 O10 2.427 . S
Tb2 O11 2.513 1_556 S
Tb2 O12 2.453 . S
Tb2 O13 2.596 1_565 S
Tb2 O14 2.374 1_556 S
O3 Tb0 2.453 . S
O3 C19 1.245 . S
O4 Tb0 2.596 1_565 S
O4 Tb2 2.343 1_454 S
O4 C19 1.259 1_565 S
O5 Tb0 2.374 1_556 S
O5 C1 1.251 1_455 S
C6 O10 1.273 1_554 S
C6 O11 1.247 . S
O7 C1 1.263 1_565 S
O7 Tb2 2.353 . S
C8 O12 1.245 . S
C8 O13 1.259 1_565 S
C9 O14 1.250 1_455 S
C9 O15 1.263 1_565 S
O10 Tb2 2.427 . S
O10 C6 1.273 1_556 S
O11 Tb2 2.513 1_554 S
O11 C6 1.247 . S
O12 Tb2 2.453 . S
O12 C8 1.245 . S
O13 Tb0 2.343 1_656 S
O13 Tb2 2.596 1_545 S
O13 C8 1.259 1_545 S
O14 Tb2 2.374 1_554 S
O14 C9 1.250 1_655 S
O15 Tb0 2.353 . S
O15 C9 1.263 1_545 S
C16 O17 1.276 1_556 S
C16 O18 1.245 . S
O17 Tb0 2.427 . S
O17 C16 1.276 1_554 S
O18 Tb0 2.513 1_556 S
O18 C16 1.245 . S
C19 O3 1.245 . S
C19 O4 1.259 1_545 S
H20 C26 0.930 . S
H21 C29 0.930 . S
H22 C30 0.930 . S
H23 C31 0.930 . S
H24 C34 0.930 . S
H25 C35 0.930 . S
C26 H20 0.930 . S
C26 C27 1.355 1_665 S
C26 C28 1.415 . S
C27 C26 1.355 1_445 S
C27 C29 1.419 . S
C28 C26 1.415 . S
C28 C33 1.425 1_665 S
C28 C35 1.409 . S
C29 H21 0.930 . S
C29 C27 1.419 . S
C29 C30 1.362 . S
C30 H22 0.930 . S
C30 C29 1.362 . S
C30 C33 1.409 . S
C31 H23 0.930 . S
C31 C32 1.355 1_445 S
C31 C33 1.415 . S
C32 C31 1.355 1_665 S
C32 C34 1.419 . S
C33 C28 1.425 1_445 S
C33 C30 1.409 . S
C33 C31 1.415 . S
C34 H24 0.930 . S
C34 C32 1.419 . S
C34 C35 1.362 . S
C35 H25 0.930 . S
C35 C28 1.409 . S
C35 C34 1.362 . S
H36 C42 0.930 . S
H37 C45 0.930 . S
H38 C46 0.930 . S
H39 C47 0.930 . S
H40 C50 0.930 . S
H41 C51 0.930 . S
C42 H36 0.930 . S
C42 C43 1.355 1_566 S
C42 C44 1.415 . S
C43 C42 1.355 1_544 S
C43 C45 1.419 . S
C44 C42 1.415 . S
C44 C49 1.425 1_566 S
C44 C51 1.409 . S
C45 H37 0.930 . S
C45 C43 1.419 . S
C45 C46 1.362 . S
C46 H38 0.930 . S
C46 C45 1.362 . S
C46 C49 1.409 . S
C47 H39 0.930 . S
C47 C48 1.355 1_544 S
C47 C49 1.415 . S
C48 C47 1.355 1_566 S
C48 C50 1.419 . S
C49 C44 1.425 1_544 S
C49 C46 1.409 . S
C49 C47 1.415 . S
C50 H40 0.930 . S
C50 C48 1.419 . S
C50 C51 1.362 . S
C51 H41 0.930 . S
C51 C44 1.409 . S
C51 C50 1.362 . S
H52 C58 0.930 . S
H53 C61 0.930 . S
H54 C62 0.930 . S
H55 C63 0.930 . S
H56 C66 0.930 . S
H57 C67 0.930 . S
C58 H52 0.930 . S
C58 C59 1.355 1_554 S
C58 C60 1.415 . S
C59 C58 1.355 1_556 S
C59 C61 1.419 1_455 S
C60 C58 1.415 . S
C60 C65 1.425 1_454 S
C60 C67 1.409 . S
C61 H53 0.930 . S
C61 C59 1.419 1_655 S
C61 C62 1.362 . S
C62 H54 0.930 . S
C62 C61 1.362 . S
C62 C65 1.409 . S
C63 H55 0.930 . S
C63 C64 1.355 1_556 S
C63 C65 1.415 . S
C64 C63 1.355 1_554 S
C64 C66 1.419 1_655 S
C65 C60 1.425 1_656 S
C65 C62 1.409 . S
C65 C63 1.415 . S
C66 H56 0.930 . S
C66 C64 1.419 1_455 S
C66 C67 1.362 . S
C67 H57 0.930 . S
C67 C60 1.409 . S
C67 C66 1.362 . S
C27 C9 1.482 1_545 S
C32 C1 1.482 1_565 S
C43 C19 1.404 . S
C48 C8 1.404 . S
C59 C6 1.479 1_456 S
C64 C16 1.480 1_654 S
