# Generated by pormake.
# Topology lon, (4)-cn, num edge types: 1
# Building blocks:
#     Node 0, Type 0, BuildingBlock: NAHDIM_clean_sbu_0, # of connection points: 4
#     Node 1, Type 0, BuildingBlock: NAHDIM_clean_sbu_0, # of connection points: 4
#     Node 2, Type 0, BuildingBlock: NAHDIM_clean_sbu_0, # of connection points: 4
#     Node 3, Type 0, BuildingBlock: NAHDIM_clean_sbu_0, # of connection points: 4
#     Edge 4, Type (0, 0), BuildingBlock: FUNLAD_clean_linker_0, # of connection points: 2
#     Edge 5, Type (0, 0), BuildingBlock: FUNLAD_clean_linker_0, # of connection points: 2
#     Edge 6, Type (0, 0), BuildingBlock: FUNLAD_clean_linker_0, # of connection points: 2
#     Edge 7, Type (0, 0), BuildingBlock: FUNLAD_clean_linker_0, # of connection points: 2
#     Edge 8, Type (0, 0), BuildingBlock: FUNLAD_clean_linker_0, # of connection points: 2
#     Edge 9, Type (0, 0), BuildingBlock: FUNLAD_clean_linker_0, # of connection points: 2
#     Edge 10, Type (0, 0), BuildingBlock: FUNLAD_clean_linker_0, # of connection points: 2
#     Edge 11, Type (0, 0), BuildingBlock: FUNLAD_clean_linker_0, # of connection points: 2
# Relax obj value: 0.020
# Max RMSD: 0.061
# Mean RMSD: 0.060
data_MOF--net-lon--node1-NAHDIM_clean_sbu_0--edge1-FUNLAD_clean_linker_0
_symmetry_space_group_name_H-M    P1
_symmetry_Int_Tables_number       1
_symmetry_cell_setting            triclinic
loop_
_symmetry_equiv_pos_as_xyz
'x, y, z'
_cell_length_a     28.912849
_cell_length_b     28.804717
_cell_length_c     47.785396
_cell_angle_alpha  88.259389
_cell_angle_beta   90.125464
_cell_angle_gamma 120.15245
loop_
_atom_site_label
_atom_site_type_symbol
_atom_site_fract_x
_atom_site_fract_y
_atom_site_fract_z
_atom_type_partial_charge
C0 C 0.35428 0.59214 0.02839 0.0
O1 O 0.31241 0.58922 0.01591 0.0
O2 O 0.37234 0.73292 0.05351 0.0
Zn3 Zn 0.3339 0.6553 0.0669 0.0
O4 O 0.25687 0.61771 0.05483 0.0
C5 C 0.33048 0.68529 0.1232 0.0
O6 O 0.32156 0.72065 0.11 0.0
O7 O 0.37088 0.61832 0.05068 0.0
C8 C 0.23102 0.64196 0.04988 0.0
O9 O 0.25458 0.694 0.05324 0.0
C10 C 0.37523 0.74678 0.02778 0.0
O11 O 0.35236 0.70945 0.00917 0.0
O12 O 0.33676 0.65217 0.10902 0.0
C13 C 0.76815 0.38988 0.52677 0.0
O14 O 0.72809 0.38022 0.51027 0.0
O15 O 0.64043 0.36173 0.55241 0.0
Zn16 Zn 0.68256 0.32725 0.56639 0.0
O17 O 0.65041 0.25226 0.55176 0.0
C18 C 0.64611 0.32232 0.62367 0.0
O19 O 0.60331 0.31761 0.61142 0.0
O20 O 0.75829 0.37109 0.55183 0.0
C21 C 0.62224 0.2099 0.56676 0.0
O22 O 0.61375 0.21419 0.5933 0.0
C23 C 0.5919 0.33377 0.54515 0.0
O24 O 0.5683 0.28114 0.54714 0.0
O25 O 0.68433 0.32639 0.60867 0.0
C26 C 0.37477 0.58232 0.4504 0.0
O27 O 0.32595 0.55276 0.44113 0.0
O28 O 0.27716 0.62397 0.45347 0.0
Zn29 Zn 0.35259 0.66764 0.43829 0.0
O30 O 0.38695 0.74212 0.45332 0.0
C31 C 0.34716 0.70721 0.38271 0.0
O32 O 0.3451 0.74467 0.39673 0.0
O33 O 0.3949 0.63293 0.45097 0.0
C34 C 0.43573 0.77597 0.44777 0.0
O35 O 0.46331 0.76187 0.43184 0.0
C36 C 0.24585 0.64295 0.45283 0.0
O37 O 0.26342 0.69172 0.44231 0.0
O38 O 0.351 0.67046 0.39606 0.0
C39 C 0.76148 0.36006 0.97524 0.0
O40 O 0.72321 0.32445 0.99192 0.0
O41 O 0.6354 0.25444 0.9528 0.0
Zn42 Zn 0.67281 0.33182 0.93856 0.0
O43 O 0.63692 0.37035 0.95414 0.0
C44 C 0.63324 0.29482 0.88341 0.0
O45 O 0.59647 0.25319 0.89799 0.0
O46 O 0.74961 0.3698 0.95097 0.0
C47 C 0.59152 0.36147 0.94574 0.0
O48 O 0.56716 0.32625 0.9263 0.0
C49 C 0.60362 0.23741 0.97384 0.0
O50 O 0.595 0.27133 0.98748 0.0
O51 O 0.67043 0.33378 0.89625 0.0
C52 C 0.33013 0.72336 0.16958 0.0
C53 C 0.33415 0.68478 0.15412 0.0
C54 C 0.33432 0.72356 0.19873 0.0
C55 C 0.34215 0.68472 0.21316 0.0
C56 C 0.34658 0.64647 0.19763 0.0
C57 C 0.34248 0.64634 0.16846 0.0
C58 C 0.34759 0.68362 0.24415 0.0
C59 C 0.32967 0.70696 0.26182 0.0
C60 C 0.33548 0.70631 0.29276 0.0
C61 C 0.33291 0.74587 0.30802 0.0
C62 C 0.33724 0.74648 0.33715 0.0
C63 C 0.34375 0.70713 0.35177 0.0
H64 H 0.34224 0.63445 0.29666 0.0
C65 C 0.34596 0.66723 0.33658 0.0
C66 C 0.34175 0.66669 0.30741 0.0
H67 H 0.35048 0.63604 0.34723 0.0
H68 H 0.32428 0.75391 0.15916 0.0
H69 H 0.33249 0.75496 0.2096 0.0
H70 H 0.35305 0.61635 0.2081 0.0
H71 H 0.34596 0.61616 0.15719 0.0
H72 H 0.3669 0.6623 0.2525 0.0
H73 H 0.31036 0.72831 0.25353 0.0
H74 H 0.32771 0.77664 0.29735 0.0
H75 H 0.33514 0.77767 0.34819 0.0
C76 C 0.60671 0.31599 0.67127 0.0
C77 C 0.64976 0.32272 0.65459 0.0
C78 C 0.61013 0.31645 0.70046 0.0
C79 C 0.65671 0.32342 0.71363 0.0
C80 C 0.69997 0.33094 0.69693 0.0
C81 C 0.69649 0.33029 0.66775 0.0
C82 C 0.66214 0.32457 0.74459 0.0
C83 C 0.62004 0.2991 0.76243 0.0
C84 C 0.62518 0.29899 0.79339 0.0
C85 C 0.58441 0.25662 0.80944 0.0
C86 C 0.58725 0.25515 0.83861 0.0
C87 C 0.63073 0.29644 0.85246 0.0
H88 H 0.70001 0.37483 0.79569 0.0
C89 C 0.67131 0.33929 0.83646 0.0
C90 C 0.66858 0.34063 0.80723 0.0
H91 H 0.70515 0.37196 0.84649 0.0
H92 H 0.57031 0.31056 0.66181 0.0
H93 H 0.57655 0.31227 0.71252 0.0
H94 H 0.7365 0.33689 0.70649 0.0
H95 H 0.73053 0.33589 0.65552 0.0
H96 H 0.70243 0.34458 0.75278 0.0
H97 H 0.58019 0.27476 0.75414 0.0
H98 H 0.5503 0.22428 0.79937 0.0
H99 H 0.55514 0.22168 0.85029 0.0
C100 C 0.42744 0.56938 0.02924 0.0
C101 C 0.38161 0.56515 0.01659 0.0
C102 C 0.4531 0.54376 0.01805 0.0
C103 C 0.43316 0.51292 0.99401 0.0
C104 C 0.38773 0.50934 0.98125 0.0
C105 C 0.36216 0.53499 0.99241 0.0
C106 C 0.45877 0.4848 0.98111 0.0
C107 C 0.49314 0.47331 0.99446 0.0
C108 C 0.51768 0.44452 0.98128 0.0
C109 C 0.5666 0.45231 0.99141 0.0
C110 C 0.59077 0.42563 0.9798 0.0
C111 C 0.56617 0.39002 0.95796 0.0
H112 H 0.45412 0.39973 0.95185 0.0
C113 C 0.51681 0.38158 0.94806 0.0
C114 C 0.49272 0.40839 0.95962 0.0
H115 H 0.49653 0.35403 0.93145 0.0
H116 H 0.44376 0.59276 0.04775 0.0
H117 H 0.48887 0.54917 0.02816 0.0
H118 H 0.37164 0.48627 0.96262 0.0
H119 H 0.32705 0.53103 0.98205 0.0
H120 H 0.44805 0.47261 0.95969 0.0
H121 H 0.50473 0.4858 0.01574 0.0
H122 H 0.58645 0.47946 0.00825 0.0
H123 H 0.62867 0.43282 0.98804 0.0
C124 C 0.15491 0.63055 0.46181 0.0
C125 C 0.19019 0.61042 0.46361 0.0
C126 C 0.10224 0.59979 0.4718 0.0
C127 C 0.08362 0.54802 0.48373 0.0
C128 C 0.11915 0.52831 0.48591 0.0
C129 C 0.17177 0.55898 0.47583 0.0
C130 C 0.02813 0.51427 0.49491 0.0
C131 C 0.98648 0.51876 0.48556 0.0
C132 C 0.93088 0.4848 0.49658 0.0
C133 C 0.88812 0.47696 0.47952 0.0
C134 C 0.83529 0.44589 0.48923 0.0
C135 C 0.82409 0.42245 0.51639 0.0
H136 H 0.95153 0.46819 0.53802 0.0
C137 C 0.8669 0.43081 0.53363 0.0
C138 C 0.91972 0.46172 0.52388 0.0
H139 H 0.85969 0.41369 0.55475 0.0
H140 H 0.16794 0.67021 0.45273 0.0
H141 H 0.0767 0.6172 0.47056 0.0
H142 H 0.10605 0.48881 0.49525 0.0
H143 H 0.19798 0.54235 0.47767 0.0
H144 H 0.02118 0.48291 0.51036 0.0
H145 H 0.99252 0.54653 0.46819 0.0
H146 H 0.89556 0.49469 0.45851 0.0
H147 H 0.80328 0.4405 0.47545 0.0
C148 C 0.58539 0.14347 0.96813 0.0
C149 C 0.57645 0.17993 0.98275 0.0
C150 C 0.55944 0.08912 0.97642 0.0
C151 C 0.52359 0.06993 -0.00056 0.0
C152 C 0.51532 0.10657 0.01425 0.0
C153 C 0.54124 0.1609 0.00596 0.0
C154 C 0.49544 0.01257 0.0092 0.0
C155 C 0.48603 0.97178 0.9926 0.0
C156 C 0.45748 0.9144 0.00233 0.0
C157 C 0.43318 0.87448 0.98243 0.0
C158 C 0.40637 0.82008 0.99065 0.0
C159 C 0.40363 0.80436 0.019 0.0
H160 H 0.47501 0.92789 0.04664 0.0
C161 C 0.42851 0.84424 0.03892 0.0
C162 C 0.45533 0.89862 0.0307 0.0
H163 H 0.42759 0.8335 0.06092 0.0
H164 H 0.61264 0.1569 0.9503 0.0
H165 H 0.56841 0.0627 0.96498 0.0
H166 H 0.48836 0.09306 0.03223 0.0
H167 H 0.5336 0.18793 0.01777 0.0
H168 H 0.47974 0.00379 0.03051 0.0
H169 H 0.49728 0.98011 0.97058 0.0
H170 H 0.43463 0.88541 0.96042 0.0
H171 H 0.38782 0.7904 0.97475 0.0
C172 C 0.58722 0.4164 0.5323 0.0
C173 C 0.56232 0.36011 0.5345 0.0
C174 C 0.5593 0.44116 0.52206 0.0
C175 C 0.5058 0.41006 0.5136 0.0
C176 C 0.48084 0.35386 0.5162 0.0
C177 C 0.50875 0.32912 0.52642 0.0
C178 C 0.47408 0.43428 0.50273 0.0
C179 C 0.49592 0.48469 0.4917 0.0
C180 C 0.46375 0.50843 0.48091 0.0
C181 C 0.48694 0.56454 0.47994 0.0
C182 C 0.45816 0.58858 0.47002 0.0
C183 C 0.40559 0.55696 0.46055 0.0
H184 H 0.39265 0.43355 0.47039 0.0
C185 C 0.38267 0.50084 0.46099 0.0
C186 C 0.41141 0.47679 0.47097 0.0
H187 H 0.34244 0.47533 0.45358 0.0
H188 H 0.62832 0.44146 0.53859 0.0
H189 H 0.5797 0.48456 0.52134 0.0
H190 H 0.43959 0.32886 0.5101 0.0
H191 H 0.48825 0.28566 0.52794 0.0
H192 H 0.43088 0.4089 0.50368 0.0
H193 H 0.53905 0.51041 0.49082 0.0
H194 H 0.52735 0.58993 0.48717 0.0
H195 H 0.47716 0.63196 0.46983 0.0
C196 C 0.14954 0.55593 0.03714 0.0
C197 C 0.17543 0.61194 0.03972 0.0
C198 C 0.09736 0.5276 0.02715 0.0
C199 C 0.0698 0.55469 0.01959 0.0
C200 C 0.09591 0.61069 0.02186 0.0
C201 C 0.14802 0.63901 0.03198 0.0
C202 C 0.01465 0.52612 0.0084 0.0
C203 C 0.97925 0.47416 0.0148 0.0
C204 C 0.92378 0.44578 0.00407 0.0
C205 C 0.8839 0.40213 0.01986 0.0
C206 C 0.83125 0.37435 0.0105 0.0
C207 C 0.81747 0.38914 0.98489 0.0
H208 H 0.94016 0.49257 0.96506 0.0
C209 C 0.85759 0.43216 0.96876 0.0
C210 C 0.91021 0.46022 0.97823 0.0
H211 H 0.84836 0.44434 0.94884 0.0
H212 H 0.16968 0.53387 0.04267 0.0
H213 H 0.07931 0.48471 0.02488 0.0
H214 H 0.07581 0.63262 0.01594 0.0
H215 H 0.16689 0.68218 0.03354 0.0
H216 H 0.00211 0.54964 0.9957 0.0
H217 H 0.99004 0.45212 0.02973 0.0
H218 H 0.89337 0.38981 0.03968 0.0
H219 H 0.8014 0.3412 0.02336 0.0
C220 C 0.60503 0.15174 0.52556 0.0
C221 C 0.59782 0.15642 0.55421 0.0
C222 C 0.58104 0.10132 0.51358 0.0
C223 C 0.54955 0.05432 0.53007 0.0
C224 C 0.54217 0.05913 0.55865 0.0
C225 C 0.56616 0.10954 0.57062 0.0
C226 C 0.52215 -0.00011 0.51815 0.0
C227 C 0.53809 0.9878 0.49432 0.0
C228 C 0.51067 0.93317 0.48267 0.0
C229 C 0.53958 0.91867 0.46488 0.0
C230 C 0.5153 0.86772 0.4535 0.0
C231 C 0.46129 0.83024 0.45947 0.0
H232 H 0.43203 0.90611 0.50103 0.0
C233 C 0.43199 0.84505 0.47683 0.0
C234 C 0.4563 0.89597 0.48825 0.0
H235 H 0.39014 0.81733 0.48162 0.0
H236 H 0.62876 0.1871 0.51225 0.0
H237 H 0.58643 0.09969 0.49131 0.0
H238 H 0.51779 0.02372 0.57182 0.0
H239 H 0.55958 0.11168 0.59274 0.0
H240 H 0.48904 0.9682 0.53029 0.0
H241 H 0.57421 0.01814 0.48354 0.0
H242 H 0.58133 0.94669 0.45997 0.0
H243 H 0.53896 0.85773 0.44008 0.0
loop_
_geom_bond_atom_site_label_1
_geom_bond_atom_site_label_2
_geom_bond_distance
_geom_bond_site_symmetry_2
_ccdc_geom_bond_type
C0 O1 1.160 . S
C0 O7 1.185 . S
O1 C0 1.160 . S
O2 Zn3 1.899 . S
O2 C10 1.284 . S
Zn3 O2 1.899 . S
Zn3 O4 2.032 . S
Zn3 O7 2.086 . S
Zn3 O12 1.977 . S
O4 Zn3 2.032 . S
O4 C8 1.278 . S
C5 O6 1.203 . S
C5 O12 1.267 . S
O6 C5 1.203 . S
O7 C0 1.185 . S
O7 Zn3 2.086 . S
C8 O4 1.278 . S
C8 O9 1.211 . S
O9 C8 1.211 . S
C10 O2 1.284 . S
C10 O11 1.273 . S
O11 C10 1.273 . S
O12 Zn3 1.977 . S
O12 C5 1.267 . S
C13 O14 1.160 . S
C13 O20 1.185 . S
O14 C13 1.160 . S
O15 Zn16 1.899 . S
O15 C23 1.284 . S
Zn16 O15 1.899 . S
Zn16 O17 2.032 . S
Zn16 O20 2.086 . S
Zn16 O25 1.977 . S
O17 Zn16 2.032 . S
O17 C21 1.278 . S
C18 O19 1.203 . S
C18 O25 1.267 . S
O19 C18 1.203 . S
O20 C13 1.185 . S
O20 Zn16 2.086 . S
C21 O17 1.278 . S
C21 O22 1.211 . S
O22 C21 1.211 . S
C23 O15 1.284 . S
C23 O24 1.273 . S
O24 C23 1.273 . S
O25 Zn16 1.977 . S
O25 C18 1.267 . S
C26 O27 1.160 . S
C26 O33 1.185 . S
O27 C26 1.160 . S
O28 Zn29 1.899 . S
O28 C36 1.284 . S
Zn29 O28 1.899 . S
Zn29 O30 2.032 . S
Zn29 O33 2.086 . S
Zn29 O38 1.977 . S
O30 Zn29 2.032 . S
O30 C34 1.278 . S
C31 O32 1.203 . S
C31 O38 1.267 . S
O32 C31 1.203 . S
O33 C26 1.185 . S
O33 Zn29 2.086 . S
C34 O30 1.278 . S
C34 O35 1.211 . S
O35 C34 1.211 . S
C36 O28 1.284 . S
C36 O37 1.273 . S
O37 C36 1.273 . S
O38 Zn29 1.977 . S
O38 C31 1.267 . S
C39 O40 1.160 . S
C39 O46 1.185 . S
O40 C39 1.160 . S
O41 Zn42 1.899 . S
O41 C49 1.284 . S
Zn42 O41 1.899 . S
Zn42 O43 2.032 . S
Zn42 O46 2.086 . S
Zn42 O51 1.977 . S
O43 Zn42 2.032 . S
O43 C47 1.278 . S
C44 O45 1.203 . S
C44 O51 1.267 . S
O45 C44 1.203 . S
O46 C39 1.185 . S
O46 Zn42 2.086 . S
C47 O43 1.278 . S
C47 O48 1.211 . S
O48 C47 1.211 . S
C49 O41 1.284 . S
C49 O50 1.273 . S
O50 C49 1.273 . S
O51 Zn42 1.977 . S
O51 C44 1.267 . S
C52 C53 1.386 . S
C52 C54 1.383 . S
C52 H68 0.951 . S
C53 C52 1.386 . S
C53 C57 1.383 . S
C54 C52 1.383 . S
C54 C55 1.402 . S
C54 H69 0.951 . S
C55 C54 1.402 . S
C55 C56 1.375 . S
C55 C58 1.481 . S
C56 C55 1.375 . S
C56 C57 1.367 . S
C56 H70 0.951 . S
C57 C53 1.383 . S
C57 C56 1.367 . S
C57 H71 0.950 . S
C58 C55 1.481 . S
C58 C59 1.297 . S
C58 H72 0.950 . S
C59 C58 1.297 . S
C59 C60 1.479 . S
C59 H73 0.950 . S
C60 C59 1.479 . S
C60 C61 1.375 . S
C60 C66 1.404 . S
C61 C60 1.375 . S
C61 C62 1.369 . S
C61 H74 0.950 . S
C62 C61 1.369 . S
C62 C63 1.392 . S
C62 H75 0.951 . S
C63 C62 1.392 . S
C63 C65 1.384 . S
H64 C66 0.949 . S
C65 C63 1.384 . S
C65 C66 1.385 . S
C65 H67 0.950 . S
C66 C60 1.404 . S
C66 H64 0.949 . S
C66 C65 1.385 . S
H67 C65 0.950 . S
H68 C52 0.951 . S
H69 C54 0.951 . S
H70 C56 0.951 . S
H71 C57 0.950 . S
H72 C58 0.950 . S
H73 C59 0.950 . S
H74 C61 0.950 . S
H75 C62 0.951 . S
C76 C77 1.386 . S
C76 C78 1.383 . S
C76 H92 0.951 . S
C77 C76 1.386 . S
C77 C81 1.383 . S
C78 C76 1.383 . S
C78 C79 1.402 . S
C78 H93 0.951 . S
C79 C78 1.402 . S
C79 C80 1.375 . S
C79 C82 1.481 . S
C80 C79 1.375 . S
C80 C81 1.367 . S
C80 H94 0.951 . S
C81 C77 1.383 . S
C81 C80 1.367 . S
C81 H95 0.950 . S
C82 C79 1.481 . S
C82 C83 1.297 . S
C82 H96 0.950 . S
C83 C82 1.297 . S
C83 C84 1.479 . S
C83 H97 0.950 . S
C84 C83 1.479 . S
C84 C85 1.375 . S
C84 C90 1.404 . S
C85 C84 1.375 . S
C85 C86 1.369 . S
C85 H98 0.950 . S
C86 C85 1.369 . S
C86 C87 1.392 . S
C86 H99 0.951 . S
C87 C86 1.392 . S
C87 C89 1.384 . S
H88 C90 0.949 . S
C89 C87 1.384 . S
C89 C90 1.385 . S
C89 H91 0.950 . S
C90 C84 1.404 . S
C90 H88 0.949 . S
C90 C89 1.385 . S
H91 C89 0.950 . S
H92 C76 0.951 . S
H93 C78 0.951 . S
H94 C80 0.951 . S
H95 C81 0.950 . S
H96 C82 0.950 . S
H97 C83 0.950 . S
H98 C85 0.950 . S
H99 C86 0.951 . S
C100 C101 1.386 . S
C100 C102 1.383 . S
C100 H116 0.951 . S
C101 C100 1.386 . S
C101 C105 1.383 . S
C102 C100 1.383 . S
C102 C103 1.402 . S
C102 H117 0.951 . S
C103 C102 1.402 . S
C103 C104 1.375 1_554 S
C103 C106 1.481 1_554 S
C104 C103 1.375 1_556 S
C104 C105 1.367 1_556 S
C104 H118 0.951 . S
C105 C101 1.383 . S
C105 C104 1.367 1_554 S
C105 H119 0.950 1_554 S
C106 C103 1.481 1_556 S
C106 C107 1.297 1_556 S
C106 H120 0.950 . S
C107 C106 1.297 1_554 S
C107 C108 1.479 1_554 S
C107 H121 0.950 . S
C108 C107 1.479 1_556 S
C108 C109 1.375 1_556 S
C108 C114 1.404 . S
C109 C108 1.375 1_554 S
C109 C110 1.369 1_554 S
C109 H122 0.950 . S
C110 C109 1.369 1_556 S
C110 C111 1.392 . S
C110 H123 0.946 1_556 S
C111 C110 1.392 . S
C111 C113 1.384 . S
H112 C114 0.949 . S
C113 C111 1.384 . S
C113 C114 1.385 . S
C113 H115 0.950 . S
C114 C108 1.404 . S
C114 H112 0.949 . S
C114 C113 1.385 . S
H115 C113 0.950 . S
H116 C100 0.951 . S
H117 C102 0.951 . S
H118 C104 0.951 . S
H119 C105 0.950 1_556 S
H120 C106 0.950 . S
H121 C107 0.950 . S
H122 C109 0.950 . S
H123 C110 0.946 1_554 S
C124 C125 1.386 . S
C124 C126 1.383 . S
C124 H140 0.951 . S
C125 C124 1.386 . S
C125 C129 1.383 . S
C126 C124 1.383 . S
C126 C127 1.402 . S
C126 H141 0.951 . S
C127 C126 1.402 . S
C127 C128 1.375 . S
C127 C130 1.481 . S
C128 C127 1.375 . S
C128 C129 1.367 . S
C128 H142 0.951 . S
C129 C125 1.383 . S
C129 C128 1.367 . S
C129 H143 0.950 . S
C130 C127 1.481 . S
C130 C131 1.297 1_455 S
C130 H144 0.950 . S
C131 C130 1.297 1_655 S
C131 C132 1.479 . S
C131 H145 0.950 . S
C132 C131 1.479 . S
C132 C133 1.375 . S
C132 C138 1.404 . S
C133 C132 1.375 . S
C133 C134 1.369 . S
C133 H146 0.950 . S
C134 C133 1.369 . S
C134 C135 1.392 . S
C134 H147 0.951 . S
C135 C134 1.392 . S
C135 C137 1.384 . S
H136 C138 0.949 . S
C137 C135 1.384 . S
C137 C138 1.385 . S
C137 H139 0.950 . S
C138 C132 1.404 . S
C138 H136 0.949 . S
C138 C137 1.385 . S
H139 C137 0.950 . S
H140 C124 0.951 . S
H141 C126 0.951 . S
H142 C128 0.951 . S
H143 C129 0.950 . S
H144 C130 0.950 . S
H145 C131 0.950 . S
H146 C133 0.950 . S
H147 C134 0.951 . S
C148 C149 1.386 . S
C148 C150 1.383 . S
C148 H164 0.951 . S
C149 C148 1.386 . S
C149 C153 1.383 . S
C150 C148 1.383 . S
C150 C151 1.402 . S
C150 H165 0.951 . S
C151 C150 1.402 . S
C151 C152 1.375 1_556 S
C151 C154 1.481 1_556 S
C152 C151 1.375 1_554 S
C152 C153 1.367 1_554 S
C152 H166 0.951 . S
C153 C149 1.383 . S
C153 C152 1.367 1_556 S
C153 H167 0.950 1_556 S
C154 C151 1.481 1_554 S
C154 C155 1.297 1_544 S
C154 H168 0.950 . S
C155 C154 1.297 1_566 S
C155 C156 1.479 1_556 S
C155 H169 0.950 . S
C156 C155 1.479 1_554 S
C156 C157 1.375 1_554 S
C156 C162 1.404 . S
C157 C156 1.375 1_556 S
C157 C158 1.369 1_556 S
C157 H170 0.950 . S
C158 C157 1.369 1_554 S
C158 C159 1.392 . S
C158 H171 0.951 1_554 S
C159 C158 1.392 . S
C159 C161 1.384 . S
H160 C162 0.949 . S
C161 C159 1.384 . S
C161 C162 1.385 . S
C161 H163 0.950 . S
C162 C156 1.404 . S
C162 H160 0.949 . S
C162 C161 1.385 . S
H163 C161 0.950 . S
H164 C148 0.951 . S
H165 C150 0.951 . S
H166 C152 0.951 . S
H167 C153 0.950 1_554 S
H168 C154 0.950 . S
H169 C155 0.950 . S
H170 C157 0.950 . S
H171 C158 0.951 1_556 S
C172 C173 1.386 . S
C172 C174 1.383 . S
C172 H188 0.951 . S
C173 C172 1.386 . S
C173 C177 1.383 . S
C174 C172 1.383 . S
C174 C175 1.402 . S
C174 H189 0.951 . S
C175 C174 1.402 . S
C175 C176 1.375 . S
C175 C178 1.481 . S
C176 C175 1.375 . S
C176 C177 1.367 . S
C176 H190 0.951 . S
C177 C173 1.383 . S
C177 C176 1.367 . S
C177 H191 0.950 . S
C178 C175 1.481 . S
C178 C179 1.297 . S
C178 H192 0.950 . S
C179 C178 1.297 . S
C179 C180 1.479 . S
C179 H193 0.950 . S
C180 C179 1.479 . S
C180 C181 1.375 . S
C180 C186 1.404 . S
C181 C180 1.375 . S
C181 C182 1.369 . S
C181 H194 0.950 . S
C182 C181 1.369 . S
C182 C183 1.392 . S
C182 H195 0.951 . S
C183 C182 1.392 . S
C183 C185 1.384 . S
H184 C186 0.949 . S
C185 C183 1.384 . S
C185 C186 1.385 . S
C185 H187 0.950 . S
C186 C180 1.404 . S
C186 H184 0.949 . S
C186 C185 1.385 . S
H187 C185 0.950 . S
H188 C172 0.951 . S
H189 C174 0.951 . S
H190 C176 0.951 . S
H191 C177 0.950 . S
H192 C178 0.950 . S
H193 C179 0.950 . S
H194 C181 0.950 . S
H195 C182 0.951 . S
C196 C197 1.386 . S
C196 C198 1.383 . S
C196 H212 0.951 . S
C197 C196 1.386 . S
C197 C201 1.383 . S
C198 C196 1.383 . S
C198 C199 1.402 . S
C198 H213 0.951 . S
C199 C198 1.402 . S
C199 C200 1.375 . S
C199 C202 1.481 . S
C200 C199 1.375 . S
C200 C201 1.367 . S
C200 H214 0.951 . S
C201 C197 1.383 . S
C201 C200 1.367 . S
C201 H215 0.950 . S
C202 C199 1.481 . S
C202 C203 1.297 1_455 S
C202 H216 0.950 . S
C203 C202 1.297 1_655 S
C203 C204 1.479 . S
C203 H217 0.950 . S
C204 C203 1.479 . S
C204 C205 1.382 . S
C204 C210 1.404 1_554 S
C205 C204 1.382 . S
C205 C206 1.349 1_554 S
C205 H218 0.965 . S
C206 C205 1.349 1_556 S
C206 C207 1.392 . S
C206 H219 0.951 . S
C207 C206 1.392 . S
C207 C209 1.384 . S
H208 C210 0.949 . S
C209 C207 1.384 . S
C209 C210 1.385 . S
C209 H211 0.950 . S
C210 C204 1.404 1_556 S
C210 H208 0.949 . S
C210 C209 1.385 . S
H211 C209 0.950 . S
H212 C196 0.951 . S
H213 C198 0.951 . S
H214 C200 0.951 . S
H215 C201 0.950 . S
H216 C202 0.950 . S
H217 C203 0.950 . S
H218 C205 0.965 . S
H219 C206 0.951 . S
C220 C221 1.386 . S
C220 C222 1.383 . S
C220 H236 0.951 . S
C221 C220 1.386 . S
C221 C225 1.383 . S
C222 C220 1.383 . S
C222 C223 1.402 . S
C222 H237 0.951 . S
C223 C222 1.402 . S
C223 C224 1.375 . S
C223 C226 1.481 . S
C224 C223 1.375 . S
C224 C225 1.367 . S
C224 H238 0.951 . S
C225 C221 1.383 . S
C225 C224 1.367 . S
C225 H239 0.950 . S
C226 C223 1.481 . S
C226 C227 1.297 1_545 S
C226 H240 0.950 1_545 S
C227 C226 1.297 1_565 S
C227 C228 1.479 . S
C227 H241 0.950 1_565 S
C228 C227 1.479 . S
C228 C229 1.375 . S
C228 C234 1.404 . S
C229 C228 1.375 . S
C229 C230 1.369 . S
C229 H242 0.950 . S
C230 C229 1.369 . S
C230 C231 1.392 . S
C230 H243 0.951 . S
C231 C230 1.392 . S
C231 C233 1.384 . S
H232 C234 0.949 . S
C233 C231 1.384 . S
C233 C234 1.385 . S
C233 H235 0.950 . S
C234 C228 1.404 . S
C234 H232 0.949 . S
C234 C233 1.385 . S
H235 C233 0.950 . S
H236 C220 0.951 . S
H237 C222 0.951 . S
H238 C224 0.951 . S
H239 C225 0.950 . S
H240 C226 0.950 1_565 S
H241 C227 0.950 1_545 S
H242 C229 0.950 . S
H243 C230 0.951 . S
C53 C5 1.510 . S
C63 C31 1.462 . S
C77 C18 1.506 . S
C87 C44 1.460 . S
C101 C0 1.537 . S
C111 C47 1.526 . S
C125 C36 1.455 . S
C135 C13 1.427 . S
C149 C49 1.386 . S
C159 C10 1.400 . S
C173 C23 1.430 . S
C183 C26 1.426 . S
C197 C8 1.507 . S
C207 C39 1.506 . S
C221 C21 1.554 . S
C231 C34 1.585 . S
