# Generated by pormake.
# Topology sxa, (6)-cn, num edge types: 1
# Building blocks:
#     Node 0, Type 0, BuildingBlock: BETDEL_clean_sbu_0, # of connection points: 6
#     Node 1, Type 0, BuildingBlock: BETDEL_clean_sbu_0, # of connection points: 6
#     Node 2, Type 0, BuildingBlock: BETDEL_clean_sbu_0, # of connection points: 6
#     Node 3, Type 0, BuildingBlock: BETDEL_clean_sbu_0, # of connection points: 6
#     Edge 4, Type (0, 0), None
#     Edge 5, Type (0, 0), None
#     Edge 6, Type (0, 0), None
#     Edge 7, Type (0, 0), None
#     Edge 8, Type (0, 0), None
#     Edge 9, Type (0, 0), None
#     Edge 10, Type (0, 0), None
#     Edge 11, Type (0, 0), None
#     Edge 12, Type (0, 0), None
#     Edge 13, Type (0, 0), None
#     Edge 14, Type (0, 0), None
#     Edge 15, Type (0, 0), None
# Relax obj value: 0.086
# Max RMSD: 0.240
# Mean RMSD: 0.240
data_MOF--net-sxa--node1-BETDEL_clean_sbu_0--edge1-none
_symmetry_space_group_name_H-M    P1
_symmetry_Int_Tables_number       1
_symmetry_cell_setting            triclinic
loop_
_symmetry_equiv_pos_as_xyz
'x, y, z'
_cell_length_a     13.084592
_cell_length_b     11.466148
_cell_length_c     7.8626661
_cell_angle_alpha  91.883555
_cell_angle_beta   87.605929
_cell_angle_gamma 90.631289
loop_
_atom_site_label
_atom_site_type_symbol
_atom_site_fract_x
_atom_site_fract_y
_atom_site_fract_z
_atom_type_partial_charge
Dy0 Dy 0.11074 0.7727 0.06336 0.0
C1 C 0.8875 0.78578 0.39348 0.0
C2 C 0.31439 0.75638 -0.0115 0.0
Dy3 Dy 1.06144 0.82784 0.15885 0.0
O4 O 0.24948 0.67095 -0.01342 0.0
O5 O 0.26614 0.85579 0.01023 0.0
O6 O 0.11177 0.6608 0.82774 0.0
O7 O 1.01781 0.63365 0.05188 0.0
C8 C 1.04017 0.598 0.89768 0.0
C9 C 0.09763 0.98443 0.88285 0.0
O10 O 0.20048 0.86828 0.31857 0.0
O11 O 0.18952 0.68753 0.28307 0.0
O12 O 0.95848 0.86748 0.40489 0.0
O13 O 0.91703 0.72139 0.26068 0.0
O14 O 0.10052 1.00957 0.04516 0.0
O15 O 0.07948 0.8788 0.86801 0.0
O16 O 0.94663 0.82066 -0.01926 0.0
O17 O 0.94151 0.96063 0.1779 0.0
C18 C 0.24269 0.77143 0.35139 0.0
C19 C 0.89609 0.90678 0.05646 0.0
Dy20 Dy 0.61074 0.2727 0.06336 0.0
C21 C 0.3875 0.28578 0.39348 0.0
C22 C 0.81439 0.25638 -0.0115 0.0
Dy23 Dy 0.56143 0.32784 0.15885 0.0
O24 O 0.74948 0.17096 -0.01343 0.0
O25 O 0.76614 0.35579 0.01023 0.0
O26 O 0.61177 0.16079 0.82773 0.0
O27 O 0.51781 0.13364 0.05188 0.0
C28 C 0.54016 0.098 0.89769 0.0
C29 C 0.59763 0.48443 0.88285 0.0
O30 O 0.70048 0.36828 0.31857 0.0
O31 O 0.68952 0.18753 0.28306 0.0
O32 O 0.45848 0.36747 0.40489 0.0
O33 O 0.41703 0.22139 0.26068 0.0
O34 O 0.60052 0.50957 0.04516 0.0
O35 O 0.57948 0.3788 0.86801 0.0
O36 O 0.44663 0.32066 -0.01926 0.0
O37 O 0.44151 0.46063 0.1779 0.0
C38 C 0.74269 0.27143 0.35139 0.0
C39 C 0.39609 0.40678 0.05646 0.0
Dy40 Dy 0.14647 0.30342 0.86029 0.0
C41 C 0.85394 0.26576 0.39427 0.0
C42 C 0.28912 0.40158 0.04753 0.0
Dy43 Dy 1.03606 0.25728 0.56096 0.0
O44 O 0.25236 0.4468 -0.08395 0.0
O45 O 0.24416 0.30153 0.07968 0.0
O46 O 1.03128 0.41572 -0.02437 0.0
O47 O 1.07133 0.42846 0.70857 0.0
C48 C 1.025 0.47702 0.84265 0.0
C49 C 0.08375 0.06527 0.74234 0.0
O50 O 0.19281 0.26967 0.41378 0.0
O51 O 0.28087 0.29626 0.66109 0.0
O52 O 0.91017 0.17276 0.40254 0.0
O53 O 0.90815 0.35556 0.44416 0.0
O54 O 1.0001 0.07589 0.66296 0.0
O55 O 0.13935 0.15078 0.70866 0.0
O56 O 0.99909 0.22883 -0.02044 0.0
O57 O 0.91314 0.28521 0.75017 0.0
C58 C 0.28217 0.28285 0.49218 0.0
C59 C 0.91216 0.24566 0.90204 0.0
Dy60 Dy 0.64647 0.80342 0.86029 0.0
C61 C 0.35394 0.76577 0.39428 0.0
C62 C 0.78912 0.90158 0.04753 0.0
Dy63 Dy 0.53606 0.75728 0.56096 0.0
O64 O 0.75236 0.9468 -0.08395 0.0
O65 O 0.74416 0.80153 0.07968 0.0
O66 O 0.53128 0.91572 -0.02436 0.0
O67 O 0.57133 0.92846 0.70857 0.0
C68 C 0.525 0.97701 0.84265 0.0
C69 C 0.58375 0.56526 0.74234 0.0
O70 O 0.69281 0.76967 0.41379 0.0
O71 O 0.78087 0.79626 0.66109 0.0
O72 O 0.41017 0.67276 0.40254 0.0
O73 O 0.40815 0.85556 0.44417 0.0
O74 O 0.5001 0.57588 0.66295 0.0
O75 O 0.63935 0.65078 0.70866 0.0
O76 O 0.49909 0.72882 -0.02043 0.0
O77 O 0.41314 0.78521 0.75017 0.0
C78 C 0.78218 0.78285 0.49219 0.0
C79 C 0.41216 0.74566 0.90204 0.0
loop_
_geom_bond_atom_site_label_1
_geom_bond_atom_site_label_2
_geom_bond_distance
_geom_bond_site_symmetry_2
_ccdc_geom_bond_type
Dy0 O4 2.398 . S
Dy0 O5 2.491 . S
Dy0 O6 2.403 . S
Dy0 O7 2.664 1_456 S
Dy0 O11 2.326 1_556 S
Dy0 O15 2.310 1_556 S
Dy0 O16 2.351 1_455 S
C1 O12 1.185 . S
C1 O13 1.355 . S
C2 O4 1.185 . S
C2 O5 1.355 . S
Dy3 O7 2.310 . S
Dy3 O10 2.351 1_655 S
Dy3 O12 2.398 . S
Dy3 O13 2.491 . S
Dy3 O14 2.403 . S
Dy3 O15 2.664 1_655 S
Dy3 O17 2.326 . S
O4 Dy0 2.398 . S
O4 C2 1.185 . S
O5 Dy0 2.491 . S
O5 C2 1.355 . S
O6 Dy0 2.403 . S
O6 C8 1.254 1_556 S
O7 Dy0 2.664 1_654 S
O7 Dy3 2.310 . S
O7 C8 1.268 1_655 S
C8 O6 1.254 1_554 S
C8 O7 1.268 1_455 S
C9 O14 1.262 . S
C9 O15 1.264 1_655 S
O10 Dy3 2.351 1_455 S
O10 C18 1.249 . S
O11 Dy0 2.326 1_554 S
O11 C18 1.267 . S
O12 C1 1.185 . S
O12 Dy3 2.398 . S
O13 C1 1.355 . S
O13 Dy3 2.491 . S
O14 Dy3 2.403 . S
O14 C9 1.262 . S
O15 Dy0 2.310 1_554 S
O15 Dy3 2.664 1_455 S
O15 C9 1.264 1_455 S
O16 Dy0 2.351 1_655 S
O16 C19 1.249 . S
O17 Dy3 2.326 . S
O17 C19 1.267 1_554 S
C18 O10 1.249 . S
C18 O11 1.267 . S
C19 O16 1.249 . S
C19 O17 1.267 1_556 S
Dy20 O24 2.398 . S
Dy20 O25 2.491 . S
Dy20 O26 2.403 . S
Dy20 O27 2.664 1_556 S
Dy20 O31 2.326 1_556 S
Dy20 O35 2.310 1_556 S
Dy20 O36 2.351 . S
C21 O32 1.185 . S
C21 O33 1.355 . S
C22 O24 1.185 . S
C22 O25 1.355 . S
Dy23 O27 2.310 . S
Dy23 O30 2.351 . S
Dy23 O32 2.398 . S
Dy23 O33 2.491 . S
Dy23 O34 2.403 . S
Dy23 O35 2.664 . S
Dy23 O37 2.326 . S
O24 Dy20 2.398 . S
O24 C22 1.185 . S
O25 Dy20 2.491 . S
O25 C22 1.355 . S
O26 Dy20 2.403 . S
O26 C28 1.254 1_556 S
O27 Dy20 2.664 1_554 S
O27 Dy23 2.310 . S
O27 C28 1.268 . S
C28 O26 1.254 1_554 S
C28 O27 1.268 . S
C29 O34 1.254 . S
C29 O35 1.268 . S
O30 Dy23 2.351 . S
O30 C38 1.249 . S
O31 Dy20 2.326 1_554 S
O31 C38 1.267 . S
O32 C21 1.185 . S
O32 Dy23 2.398 . S
O33 C21 1.355 . S
O33 Dy23 2.491 . S
O34 Dy23 2.403 . S
O34 C29 1.254 . S
O35 Dy20 2.310 1_554 S
O35 Dy23 2.664 . S
O35 C29 1.268 . S
O36 Dy20 2.351 . S
O36 C39 1.249 . S
O37 Dy23 2.326 . S
O37 C39 1.267 1_554 S
C38 O30 1.249 . S
C38 O31 1.267 . S
C39 O36 1.249 . S
C39 O37 1.267 1_556 S
Dy40 O44 2.398 . S
Dy40 O45 2.491 . S
Dy40 O46 2.403 . S
Dy40 O47 2.664 1_454 S
Dy40 O51 2.326 1_554 S
Dy40 O55 2.310 1_554 S
Dy40 O56 2.351 1_455 S
C41 O52 1.185 . S
C41 O53 1.355 . S
C42 O44 1.185 . S
C42 O45 1.355 . S
Dy43 O47 2.310 . S
Dy43 O50 2.351 1_655 S
Dy43 O52 2.398 . S
Dy43 O53 2.491 . S
Dy43 O54 2.403 . S
Dy43 O55 2.664 1_655 S
Dy43 O57 2.326 . S
O44 Dy40 2.398 . S
O44 C42 1.185 . S
O45 Dy40 2.491 . S
O45 C42 1.355 . S
O46 Dy40 2.403 . S
O46 C48 1.254 1_554 S
O47 Dy40 2.664 1_656 S
O47 Dy43 2.310 . S
O47 C48 1.268 1_655 S
C48 O46 1.254 1_556 S
C48 O47 1.268 1_455 S
C49 O54 1.262 . S
C49 O55 1.264 1_655 S
O50 Dy43 2.351 1_455 S
O50 C58 1.249 . S
O51 Dy40 2.326 1_556 S
O51 C58 1.267 . S
O52 C41 1.185 . S
O52 Dy43 2.398 . S
O53 C41 1.355 . S
O53 Dy43 2.491 . S
O54 Dy43 2.403 . S
O54 C49 1.262 . S
O55 Dy40 2.310 1_556 S
O55 Dy43 2.664 1_455 S
O55 C49 1.264 1_455 S
O56 Dy40 2.351 1_655 S
O56 C59 1.249 . S
O57 Dy43 2.326 . S
O57 C59 1.267 1_556 S
C58 O50 1.249 . S
C58 O51 1.267 . S
C59 O56 1.249 . S
C59 O57 1.267 1_554 S
Dy60 O64 2.398 . S
Dy60 O65 2.491 . S
Dy60 O66 2.403 . S
Dy60 O67 2.664 1_554 S
Dy60 O71 2.326 1_554 S
Dy60 O75 2.310 1_554 S
Dy60 O76 2.351 . S
C61 O72 1.185 . S
C61 O73 1.355 . S
C62 O64 1.185 . S
C62 O65 1.355 . S
Dy63 O67 2.310 . S
Dy63 O70 2.351 . S
Dy63 O72 2.398 . S
Dy63 O73 2.491 . S
Dy63 O74 2.403 . S
Dy63 O75 2.664 . S
Dy63 O77 2.326 . S
O64 Dy60 2.398 . S
O64 C62 1.185 . S
O65 Dy60 2.491 . S
O65 C62 1.355 . S
O66 Dy60 2.403 . S
O66 C68 1.254 1_554 S
O67 Dy60 2.664 1_556 S
O67 Dy63 2.310 . S
O67 C68 1.268 . S
C68 O66 1.254 1_556 S
C68 O67 1.268 . S
C69 O74 1.254 . S
C69 O75 1.268 . S
O70 Dy63 2.351 . S
O70 C78 1.249 . S
O71 Dy60 2.326 1_556 S
O71 C78 1.267 . S
O72 C61 1.185 . S
O72 Dy63 2.398 . S
O73 C61 1.355 . S
O73 Dy63 2.491 . S
O74 Dy63 2.403 . S
O74 C69 1.254 . S
O75 Dy60 2.310 1_556 S
O75 Dy63 2.664 . S
O75 C69 1.268 . S
O76 Dy60 2.351 . S
O76 C79 1.249 . S
O77 Dy63 2.326 . S
O77 C79 1.267 1_556 S
C78 O70 1.249 . S
C78 O71 1.267 . S
C79 O76 1.249 . S
C79 O77 1.267 1_554 S
C48 C8 2.029 1_556 S
C29 C69 3.161 1_554 S
C68 C28 2.029 1_566 S
C9 C49 3.161 1_564 S
C61 C18 1.539 . S
C58 C21 1.539 . S
C41 C38 1.539 . S
C1 C78 1.539 . S
C79 C2 2.132 1_554 S
C42 C39 2.132 1_554 S
C22 C59 2.132 1_556 S
C19 C62 2.132 1_556 S
