# Generated by pormake.
# Topology pcu, (6)-cn, num edge types: 1
# Building blocks:
#     Node 0, Type 0, BuildingBlock: BETDAH_clean_sbu_0, # of connection points: 6
#     Edge 1, Type (0, 0), BuildingBlock: EZIPEK_clean_linker_0, # of connection points: 2
#     Edge 2, Type (0, 0), BuildingBlock: EZIPEK_clean_linker_0, # of connection points: 2
#     Edge 3, Type (0, 0), BuildingBlock: EZIPEK_clean_linker_0, # of connection points: 2
# Relax obj value: 0.000
# Max RMSD: 0.000
# Mean RMSD: 0.000
data_MOF--net-pcu--node1-BETDAH_clean_sbu_0--edge1-EZIPEK_clean_linker_0
_symmetry_space_group_name_H-M    P1
_symmetry_Int_Tables_number       1
_symmetry_cell_setting            triclinic
loop_
_symmetry_equiv_pos_as_xyz
'x, y, z'
_cell_length_a     20.796204
_cell_length_b     11.403021
_cell_length_c     10.454923
_cell_angle_alpha  88.688589
_cell_angle_beta   94.916059
_cell_angle_gamma 122.0461
loop_
_atom_site_label
_atom_site_type_symbol
_atom_site_fract_x
_atom_site_fract_y
_atom_site_fract_z
_atom_type_partial_charge
Ho0 Ho 0.95613 0.88581 1.00766 0.0
Ho1 Ho 0.13027 0.04311 0.01865 0.0
C2 C 0.04412 0.21258 1.01028 0.0
C3 C 0.81285 0.74946 0.04349 0.0
C4 C 0.7537 0.78481 0.03171 0.0
C5 C 0.71102 0.76504 0.13615 0.0
C6 C 0.65853 0.80674 0.13029 0.0
C7 C 0.64747 0.86782 0.01936 0.0
C8 C 0.68909 0.88575 0.91407 0.0
C9 C 0.74205 0.8452 0.92027 0.0
C10 C 1.01579 -0.02884 0.77889 0.0
C11 C 1.04242 0.71648 0.01438 0.0
C12 C 0.27358 0.17967 0.98338 0.0
C13 C 0.33254 0.14371 0.9935 0.0
C14 C 0.37293 0.1592 0.88684 0.0
C15 C 0.42527 0.1172 0.89161 0.0
C16 C 0.4385 0.06014 1.0036 0.0
C17 C 0.39924 0.04656 0.11103 0.0
C18 C 0.34645 0.08745 0.106 0.0
C19 C 0.07005 0.95667 0.24719 0.0
O20 O 0.98024 0.0986 0.03497 0.0
O21 O 0.10663 0.21469 0.98935 0.0
O22 O 0.8391 0.74047 0.93716 0.0
O23 O 0.86678 0.81461 0.1361 0.0
O24 O 0.95487 -0.03507 0.80904 0.0
O25 O 1.03851 0.9224 0.86838 0.0
O26 O 0.10632 0.83074 0.99023 0.0
O27 O 0.97996 0.71426 0.03632 0.0
O28 O 0.24726 0.18688 0.09032 0.0
O29 O 0.21975 0.11673 0.89013 0.0
O30 O 0.1306 0.96166 0.21674 0.0
O31 O 0.048 0.00666 0.15787 0.0
H32 H 0.71933 0.71955 0.22322 0.0
H33 H 0.62701 0.79259 0.21254 0.0
H34 H 0.6814 0.93318 0.82795 0.0
H35 H 0.7746 0.86311 0.83861 0.0
H36 H 0.36297 0.20165 0.79899 0.0
H37 H 0.45501 0.12804 0.80774 0.0
H38 H 0.40867 0.00233 0.19804 0.0
H39 H 0.31583 0.07303 0.18953 0.0
C40 C 0.10414 0.08346 0.45903 0.0
C41 C 0.05562 0.96091 0.38293 0.0
C42 C 0.98289 0.84466 0.5676 0.0
C43 C 1.03059 -0.03241 0.64331 0.0
N44 N 0.14137 0.1982 0.66914 0.0
N45 N 0.94235 0.73317 0.35643 0.0
C46 C 0.09248 0.08564 0.59106 0.0
C47 C 0.99328 0.84369 0.43502 0.0
N48 N 0.15926 0.1995 0.40317 0.0
N49 N 0.92981 0.72679 0.6241 0.0
H50 H 0.94887 0.72807 0.25962 0.0
H51 H 0.89072 0.65125 0.38364 0.0
H52 H 0.91985 0.72307 0.72059 0.0
H53 H 0.8996 0.62949 0.57892 0.0
H54 H 0.19159 0.29673 0.44804 0.0
H55 H 0.16992 0.20193 0.30721 0.0
H56 H 0.19233 0.28257 0.64283 0.0
H57 H 0.13328 0.20414 0.76494 0.0
C58 C 0.57165 0.10754 0.02998 0.0
C59 C 0.49211 0.01084 1.00751 0.0
C60 C 0.51421 0.82024 0.99106 0.0
C61 C 0.59374 0.91693 0.0146 0.0
N62 N 0.69877 0.14789 0.0719 0.0
N63 N 0.38661 0.77937 0.95399 0.0
C64 C 0.62269 0.05961 0.03744 0.0
C65 C 0.46302 0.86795 0.98541 0.0
N66 N 0.59822 0.24567 0.0414 0.0
N67 N 0.48794 0.6825 0.97648 0.0
H68 H 0.34757 0.81058 0.94977 0.0
H69 H 0.36134 0.67626 0.92567 0.0
H70 H 0.52392 0.64496 0.9738 0.0
H71 H 0.43087 0.60354 0.97208 0.0
H72 H 0.65536 0.32401 0.04289 0.0
H73 H 0.56248 0.28386 0.04268 0.0
H74 H 0.72323 0.25005 0.10288 0.0
H75 H 0.73791 0.11687 0.07744 0.0
C76 C 0.04431 0.52408 0.13115 0.0
C77 C 1.041 0.58571 0.01327 0.0
C78 C 1.03876 0.40132 0.89289 0.0
C79 C 0.04584 0.34356 1.01088 0.0
N80 N 0.06309 0.35354 0.24204 0.0
N81 N 0.04333 0.59493 0.78278 0.0
C82 C 0.0504 0.40564 0.1301 0.0
C83 C 1.04078 0.52786 0.89429 0.0
N84 N 1.04173 0.57922 0.24397 0.0
N85 N 1.02704 0.33209 0.77976 0.0
H86 H 1.04048 0.68354 0.77884 0.0
H87 H 0.05258 0.56797 0.69484 0.0
H88 H 1.0264 0.24036 0.77506 0.0
H89 H 1.01278 0.35958 0.69115 0.0
H90 H 1.03471 0.53113 0.33189 0.0
H91 H 0.04315 0.67162 0.24917 0.0
H92 H 0.07506 0.4013 0.33196 0.0
H93 H 0.06652 0.26556 0.2447 0.0
loop_
_geom_bond_atom_site_label_1
_geom_bond_atom_site_label_2
_geom_bond_distance
_geom_bond_site_symmetry_2
_ccdc_geom_bond_type
Ho0 C3 2.811 . S
Ho0 O20 2.322 1_565 S
Ho0 O22 2.378 . S
Ho0 O23 2.524 1_556 S
Ho0 O24 2.381 . S
Ho0 O25 2.669 1_665 S
Ho0 O27 2.346 . S
Ho0 O31 2.305 1_556 S
Ho1 C12 2.811 . S
Ho1 O21 2.346 . S
Ho1 O25 2.305 1_554 S
Ho1 O26 2.322 1_545 S
Ho1 O28 2.378 . S
Ho1 O29 2.524 1_554 S
Ho1 O30 2.381 . S
Ho1 O31 2.669 1_445 S
C2 O20 1.259 1_455 S
C2 O21 1.268 1_556 S
C3 Ho0 2.811 . S
C3 C4 1.488 . S
C3 O22 1.215 . S
C3 O23 1.289 1_556 S
C4 C3 1.488 . S
C4 C5 1.348 1_566 S
C4 C9 1.413 . S
C5 C4 1.348 1_544 S
C5 C6 1.442 . S
C5 H32 0.930 . S
C6 C5 1.442 . S
C6 C7 1.381 1_544 S
C6 H33 0.931 . S
C7 C6 1.381 1_566 S
C7 C8 1.321 . S
C8 C7 1.321 . S
C8 C9 1.403 . S
C8 H34 0.934 . S
C9 C4 1.413 . S
C9 C8 1.403 . S
C9 H35 0.930 . S
C10 O24 1.275 . S
C10 O25 1.256 1_665 S
C11 O26 1.259 1_655 S
C11 O27 1.268 1_554 S
C12 Ho1 2.811 . S
C12 C13 1.488 . S
C12 O28 1.215 . S
C12 O29 1.289 1_554 S
C13 C12 1.488 . S
C13 C14 1.348 1_544 S
C13 C18 1.413 . S
C14 C13 1.348 1_566 S
C14 C15 1.442 . S
C14 H36 0.930 . S
C15 C14 1.442 . S
C15 C16 1.381 1_566 S
C15 H37 0.931 . S
C16 C15 1.381 1_544 S
C16 C17 1.321 . S
C17 C16 1.321 . S
C17 C18 1.403 . S
C17 H38 0.934 . S
C18 C13 1.413 . S
C18 C17 1.403 . S
C18 H39 0.930 . S
C19 O30 1.275 . S
C19 O31 1.256 1_445 S
O20 Ho0 2.322 1_545 S
O20 C2 1.259 1_655 S
O21 Ho1 2.346 . S
O21 C2 1.268 1_554 S
O22 Ho0 2.378 . S
O22 C3 1.215 . S
O23 Ho0 2.524 1_554 S
O23 C3 1.289 1_554 S
O24 Ho0 2.381 . S
O24 C10 1.275 . S
O25 Ho0 2.669 1_445 S
O25 Ho1 2.305 1_556 S
O25 C10 1.256 1_445 S
O26 Ho1 2.322 1_565 S
O26 C11 1.259 1_455 S
O27 Ho0 2.346 . S
O27 C11 1.268 1_556 S
O28 Ho1 2.378 . S
O28 C12 1.215 . S
O29 Ho1 2.524 1_556 S
O29 C12 1.289 1_556 S
O30 Ho1 2.381 . S
O30 C19 1.275 . S
O31 Ho0 2.305 1_554 S
O31 Ho1 2.669 1_665 S
O31 C19 1.256 1_665 S
H32 C5 0.930 . S
H33 C6 0.931 . S
H34 C8 0.934 . S
H35 C9 0.930 . S
H36 C14 0.930 . S
H37 C15 0.931 . S
H38 C17 0.934 . S
H39 C18 0.930 . S
C40 C41 1.363 . S
C40 C46 1.379 . S
C40 N48 1.356 . S
C41 C40 1.363 . S
C41 C47 1.363 1_445 S
C42 C43 1.363 1_665 S
C42 C47 1.379 . S
C42 N49 1.356 . S
C43 C42 1.363 1_445 S
C43 C46 1.363 . S
N44 C46 1.356 . S
N44 H56 0.984 . S
N44 H57 0.985 . S
N45 C47 1.356 . S
N45 H50 0.984 . S
N45 H51 0.985 . S
C46 C40 1.379 . S
C46 C43 1.363 . S
C46 N44 1.356 . S
C47 C41 1.363 1_665 S
C47 C42 1.379 . S
C47 N45 1.356 . S
N48 C40 1.356 . S
N48 H54 0.984 . S
N48 H55 0.984 . S
N49 C42 1.356 . S
N49 H52 0.984 . S
N49 H53 0.985 . S
H50 N45 0.984 . S
H51 N45 0.985 . S
H52 N49 0.984 . S
H53 N49 0.985 . S
H54 N48 0.984 . S
H55 N48 0.984 . S
H56 N44 0.984 . S
H57 N44 0.985 . S
C58 C59 1.363 . S
C58 C64 1.379 . S
C58 N66 1.356 . S
C59 C58 1.363 . S
C59 C65 1.363 1_544 S
C60 C61 1.363 1_566 S
C60 C65 1.379 . S
C60 N67 1.356 . S
C61 C60 1.363 1_544 S
C61 C64 1.363 . S
N62 C64 1.356 . S
N62 H74 0.984 . S
N62 H75 0.985 . S
N63 C65 1.356 . S
N63 H68 0.984 . S
N63 H69 0.985 . S
C64 C58 1.379 . S
C64 C61 1.363 . S
C64 N62 1.356 . S
C65 C59 1.363 1_566 S
C65 C60 1.379 . S
C65 N63 1.356 . S
N66 C58 1.356 . S
N66 H72 0.984 . S
N66 H73 0.984 . S
N67 C60 1.356 . S
N67 H70 0.984 . S
N67 H71 0.985 . S
H68 N63 0.984 . S
H69 N63 0.985 . S
H70 N67 0.984 . S
H71 N67 0.985 . S
H72 N66 0.984 . S
H73 N66 0.984 . S
H74 N62 0.984 . S
H75 N62 0.985 . S
C76 C77 1.363 . S
C76 C82 1.379 . S
C76 N84 1.356 . S
C77 C76 1.363 . S
C77 C83 1.363 1_454 S
C78 C79 1.363 1_656 S
C78 C83 1.379 . S
C78 N85 1.356 . S
C79 C78 1.363 1_454 S
C79 C82 1.363 . S
N80 C82 1.356 . S
N80 H92 0.984 . S
N80 H93 0.985 . S
N81 C83 1.356 . S
N81 H86 0.984 . S
N81 H87 0.985 . S
C82 C76 1.379 . S
C82 C79 1.363 . S
C82 N80 1.356 . S
C83 C77 1.363 1_656 S
C83 C78 1.379 . S
C83 N81 1.356 . S
N84 C76 1.356 . S
N84 H90 0.984 . S
N84 H91 0.984 . S
N85 C78 1.356 . S
N85 H88 0.984 . S
N85 H89 0.985 . S
H86 N81 0.984 . S
H87 N81 0.985 . S
H88 N85 0.984 . S
H89 N85 0.985 . S
H90 N84 0.984 . S
H91 N84 0.984 . S
H92 N80 0.984 . S
H93 N80 0.985 . S
C41 C19 1.461 . S
C43 C10 1.461 1_445 S
C59 C16 1.499 . S
C61 C7 1.499 1_544 S
C77 C11 1.491 1_455 S
C79 C2 1.491 1_554 S
