# Generated by pormake.
# Topology hex, (8)-cn, num edge types: 1
# Building blocks:
#     Node 0, Type 0, BuildingBlock: XADDAJ01_clean_sbu_3, # of connection points: 8
#     Edge 1, Type (0, 0), BuildingBlock: UKIBIB_clean_linker_0, # of connection points: 2
#     Edge 2, Type (0, 0), BuildingBlock: UKIBIB_clean_linker_0, # of connection points: 2
#     Edge 3, Type (0, 0), BuildingBlock: UKIBIB_clean_linker_0, # of connection points: 2
#     Edge 4, Type (0, 0), BuildingBlock: UKIBIB_clean_linker_0, # of connection points: 2
# Relax obj value: 0.038
# Max RMSD: 0.102
# Mean RMSD: 0.102
data_MOF--net-hex--node1-XADDAJ01_clean_sbu_3--edge1-UKIBIB_clean_linker_0
_symmetry_space_group_name_H-M    P1
_symmetry_Int_Tables_number       1
_symmetry_cell_setting            triclinic
loop_
_symmetry_equiv_pos_as_xyz
'x, y, z'
_cell_length_a     27.6398
_cell_length_b     22.662303
_cell_length_c     20.385092
_cell_angle_alpha  114.14557
_cell_angle_beta   97.318682
_cell_angle_gamma 112.06379
loop_
_atom_site_label
_atom_site_type_symbol
_atom_site_fract_x
_atom_site_fract_y
_atom_site_fract_z
_atom_type_partial_charge
C0 C 0.82093 0.86949 0.94619 0.0
C1 C 0.79512 0.80416 0.94977 0.0
C2 C 0.74588 0.78672 0.96794 0.0
C3 C 0.72352 0.83492 -0.01619 0.0
C4 C 0.74764 0.89835 0.97858 0.0
C5 C 0.79627 0.91571 0.95985 0.0
O6 O 1.00734 0.92899 0.05088 0.0
Tb7 Tb 0.96273 0.89351 0.93507 0.0
Tb8 Tb 0.06743 0.0752 0.03002 0.0
O9 O 0.95542 0.78808 0.91005 0.0
O10 O 0.02795 0.0498 0.10733 0.0
O11 O 0.87756 0.83141 0.87778 0.0
C12 C 0.16119 0.08238 0.0464 0.0
O13 O 0.91521 0.94797 0.96548 0.0
O14 O 0.02287 0.0397 0.91417 0.0
O15 O 1.00221 0.91887 0.85774 0.0
C16 C 0.86901 0.88653 0.91881 0.0
C17 C 0.03252 0.19279 0.06222 0.0
O18 O 0.98807 0.14279 0.06138 0.0
C19 C 0.01766 -0.01005 0.11095 0.0
C20 C 1.01258 0.97874 0.85413 0.0
O21 O 0.07483 0.18064 0.05503 0.0
C22 C 0.20921 0.09945 0.01896 0.0
C23 C 0.28234 0.0704 -0.01363 0.0
C24 C 0.23375 0.05311 0.00513 0.0
C25 C 0.23509 0.16483 0.01548 0.0
C26 C 0.2843 0.18217 -0.00278 0.0
C27 C 0.30655 0.13384 0.9812 0.0
C28 C 0.99777 0.77598 0.90287 0.0
O29 O 0.0422 0.82602 0.90373 0.0
O30 O 0.15258 0.13746 0.08739 0.0
O31 O 0.11502 0.02086 -0.00023 0.0
H32 H 0.81183 0.76602 0.93584 0.0
H33 H 0.6848 0.8205 -0.00425 0.0
H34 H 0.81377 0.96374 0.95332 0.0
H35 H 0.21619 0.00504 0.0116 0.0
H36 H 0.21846 0.20305 0.02954 0.0
H37 H 0.34526 0.14818 0.96923 0.0
C38 C 0.07236 0.29594 0.03616 0.0
C39 C 0.03168 0.25563 0.05779 0.0
C40 C 0.06833 0.34959 0.02252 0.0
C41 C 0.95801 0.67279 0.92892 0.0
C42 C 0.99867 0.71315 0.9073 0.0
C43 C 0.96208 0.61916 0.94256 0.0
H44 H 0.95621 0.24187 0.08519 0.0
H45 H 0.94981 0.33726 0.06201 0.0
H46 H 0.07415 0.727 0.87991 0.0
H47 H 0.08062 0.63163 0.90308 0.0
C48 C 0.98804 0.27201 0.06842 0.0
C49 C 0.98428 0.32622 0.05516 0.0
C50 C 0.04233 0.69683 0.89667 0.0
C51 C 0.04614 0.64264 0.90993 0.0
C52 C 0.02394 0.36404 0.0309 0.0
C53 C 0.01828 0.41548 0.01114 0.0
C54 C 0.01613 0.45918 -0.00642 0.0
C55 C 1.0065 0.60476 0.93418 0.0
C56 C 1.01219 0.55334 0.95393 0.0
C57 C 1.01436 0.50964 0.97149 0.0
H58 H 0.10629 0.28433 0.02697 0.0
H59 H 0.09916 0.37852 0.00361 0.0
H60 H 0.92406 0.68436 0.93811 0.0
H61 H 0.93127 0.5902 0.96146 0.0
C62 C 0.7099 0.97793 0.05176 0.0
C63 C 0.71597 0.93863 0.98224 0.0
C64 C 0.66666 -0.00421 0.05261 0.0
C65 C 0.31989 -0.00944 0.91321 0.0
C66 C 0.31389 0.03001 -0.01727 0.0
C67 C 0.36302 0.97251 0.91238 0.0
H68 H 0.68376 0.88961 0.85974 0.0
H69 H 0.60798 0.92123 0.86133 0.0
H70 H 0.34606 0.07904 0.10522 0.0
H71 H 0.42166 0.04711 0.10369 0.0
C72 C 0.68058 0.92163 0.91403 0.0
C73 C 0.63709 0.93896 0.91487 0.0
C74 C 0.3492 0.04694 0.05095 0.0
C75 C 0.39258 0.02941 0.05013 0.0
C76 C 0.62883 0.97357 -0.01609 0.0
C77 C 0.57843 0.97862 -0.01648 0.0
C78 C 0.53618 0.98273 -0.01708 0.0
C79 C 0.4008 -0.00533 0.98109 0.0
C80 C 0.45116 -0.01047 0.98151 0.0
C81 C 0.49338 -0.01467 0.98212 0.0
H82 H 0.73614 -0.00985 0.10473 0.0
H83 H 0.66073 0.02265 0.10639 0.0
H84 H 0.29368 0.97838 0.86023 0.0
H85 H 0.36893 0.94555 0.8586 0.0
C86 C 0.31153 0.26094 0.93735 0.0
C87 C 0.31809 0.25348 0.00254 0.0
C88 C 0.35401 0.31728 0.93422 0.0
C89 C 0.71877 0.7079 0.02778 0.0
C90 C 0.71217 0.71539 0.9626 0.0
C91 C 0.67635 0.65149 0.03088 0.0
H92 H 0.37318 0.29959 0.11591 0.0
H93 H 0.44699 0.39862 0.11081 0.0
H94 H 0.65708 0.66921 0.84921 0.0
H95 H 0.58336 0.57006 0.85427 0.0
C96 C 0.36647 0.30557 0.06594 0.0
C97 C 0.40889 0.36155 0.06269 0.0
C98 C 0.66381 0.66323 0.89918 0.0
C99 C 0.62145 0.60718 0.9024 0.0
C100 C 0.40365 0.36625 -0.00404 0.0
C101 C 0.45091 0.41686 -0.01113 0.0
C102 C 0.49119 0.45977 -0.01513 0.0
C103 C 0.62671 0.60248 0.96913 0.0
C104 C 0.57948 0.55184 0.97622 0.0
C105 C 0.5392 0.50891 0.98021 0.0
H106 H 0.27537 0.22024 0.88706 0.0
H107 H 0.34929 0.32003 0.88212 0.0
H108 H 0.75492 0.74863 0.07807 0.0
H109 H 0.68109 0.64872 0.08297 0.0
C110 C 0.0184 0.04013 0.77542 0.0
C111 C 1.01188 0.97788 0.78105 0.0
C112 C 0.01854 0.04022 0.70702 0.0
C113 C 1.01191 0.92857 0.18966 0.0
C114 C 0.01843 -0.00918 0.18404 0.0
C115 C 1.01179 0.92848 0.25806 0.0
H116 H 1.00014 0.86684 0.71897 0.0
H117 H 1.00061 0.8676 0.59909 0.0
H118 H 0.03024 0.10189 0.24616 0.0
H119 H 0.0298 0.10114 0.36604 0.0
C120 C 1.0052 0.91559 0.71654 0.0
C121 C 1.00548 0.91589 0.64809 0.0
C122 C 0.02516 0.05313 0.24858 0.0
C123 C 0.0249 0.05283 0.31703 0.0
C124 C 1.01229 0.97829 0.64333 0.0
C125 C 1.01334 0.9794 0.5735 0.0
C126 C 1.01442 0.98223 0.51596 0.0
C127 C 0.01807 -0.00958 0.32177 0.0
C128 C 0.01702 -0.01069 0.39159 0.0
C129 C 0.01594 -0.01353 0.44913 0.0
H130 H 0.02346 0.08896 0.82383 0.0
H131 H 0.02375 0.08879 0.704 0.0
H132 H 1.00682 0.87972 0.14123 0.0
H133 H 1.00657 0.8799 0.26107 0.0
loop_
_geom_bond_atom_site_label_1
_geom_bond_atom_site_label_2
_geom_bond_distance
_geom_bond_site_symmetry_2
_ccdc_geom_bond_type
C0 C1 1.386 . S
C0 C5 1.384 . S
C0 C16 1.497 . S
C1 C0 1.386 . S
C1 C2 1.393 1_556 S
C1 H32 0.932 . S
C2 C1 1.393 1_554 S
C2 C3 1.387 . S
C3 C2 1.387 . S
C3 C4 1.392 1_554 S
C3 H33 0.930 . S
C4 C3 1.392 1_556 S
C4 C5 1.402 . S
C5 C0 1.384 . S
C5 C4 1.402 . S
C5 H34 0.930 . S
O6 Tb7 2.288 1_554 S
O6 C19 1.257 1_665 S
Tb7 O6 2.288 1_556 S
Tb7 O9 2.303 . S
Tb7 O11 2.430 . S
Tb7 O13 2.459 . S
Tb7 O15 2.301 . S
Tb7 C16 2.808 . S
Tb8 O10 2.301 . S
Tb8 C12 2.808 . S
Tb8 O14 2.288 1_554 S
Tb8 O21 2.303 . S
Tb8 O30 2.430 . S
Tb8 O31 2.459 . S
O9 Tb7 2.303 . S
O9 C28 1.255 1_655 S
O10 Tb8 2.301 . S
O10 C19 1.237 . S
O11 Tb7 2.430 . S
O11 C16 1.248 . S
C12 Tb8 2.808 . S
C12 C22 1.497 . S
C12 O30 1.248 . S
C12 O31 1.260 . S
O13 Tb7 2.459 . S
O13 C16 1.260 . S
O14 Tb8 2.288 1_556 S
O14 C20 1.257 1_445 S
O15 Tb7 2.301 . S
O15 C20 1.237 . S
C16 C0 1.497 . S
C16 Tb7 2.808 . S
C16 O11 1.248 . S
C16 O13 1.260 . S
C17 O18 1.255 . S
C17 O21 1.255 1_655 S
O18 C17 1.255 . S
C19 O6 1.257 1_445 S
C19 O10 1.237 . S
C20 O14 1.257 1_665 S
C20 O15 1.237 . S
O21 Tb8 2.303 . S
O21 C17 1.255 1_455 S
C22 C12 1.497 . S
C22 C24 1.384 . S
C22 C25 1.386 . S
C23 C24 1.402 . S
C23 C27 1.392 1_554 S
C24 C22 1.384 . S
C24 C23 1.402 . S
C24 H35 0.930 . S
C25 C22 1.386 . S
C25 C26 1.393 1_554 S
C25 H36 0.932 . S
C26 C25 1.393 1_556 S
C26 C27 1.387 . S
C27 C23 1.392 1_556 S
C27 C26 1.387 . S
C27 H37 0.930 . S
C28 O9 1.255 1_455 S
C28 O29 1.255 . S
O29 C28 1.255 . S
O30 Tb8 2.430 . S
O30 C12 1.248 . S
O31 Tb8 2.459 . S
O31 C12 1.260 . S
H32 C1 0.932 . S
H33 C3 0.930 . S
H34 C5 0.930 . S
H35 C24 0.930 . S
H36 C25 0.932 . S
H37 C27 0.930 . S
C38 C39 1.332 1_456 S
C38 C40 1.345 . S
C38 H58 0.932 . S
C39 C38 1.332 1_654 S
C39 C48 1.332 . S
C40 C38 1.345 . S
C40 C52 1.334 1_456 S
C40 H59 0.928 . S
C41 C42 1.332 1_654 S
C41 C43 1.345 . S
C41 H60 0.932 . S
C42 C41 1.332 1_456 S
C42 C50 1.332 . S
C43 C41 1.345 . S
C43 C55 1.334 1_654 S
C43 H61 0.928 . S
H44 C48 0.932 . S
H45 C49 0.928 . S
H46 C50 0.932 . S
H47 C51 0.928 . S
C48 C39 1.332 . S
C48 H44 0.932 . S
C48 C49 1.345 . S
C49 H45 0.928 . S
C49 C48 1.345 . S
C49 C52 1.334 . S
C50 C42 1.332 . S
C50 H46 0.932 . S
C50 C51 1.345 . S
C51 H47 0.928 . S
C51 C50 1.345 . S
C51 C55 1.334 . S
C52 C40 1.334 1_654 S
C52 C49 1.334 . S
C52 C53 1.479 . S
C53 C52 1.479 . S
C53 C54 1.190 . S
C54 C53 1.190 . S
C54 C57 1.487 1_654 S
C55 C43 1.334 1_456 S
C55 C51 1.334 . S
C55 C56 1.487 . S
C56 C55 1.487 . S
C56 C57 1.181 . S
C57 C54 1.487 1_456 S
C57 C56 1.181 . S
H58 C38 0.932 . S
H59 C40 0.928 . S
H60 C41 0.932 . S
H61 C43 0.928 . S
C62 C63 1.332 1_544 S
C62 C64 1.345 . S
C62 H82 0.932 . S
C63 C62 1.332 1_566 S
C63 C72 1.332 . S
C64 C62 1.345 . S
C64 C76 1.334 1_544 S
C64 H83 0.928 . S
C65 C66 1.332 1_566 S
C65 C67 1.345 . S
C65 H84 0.932 . S
C66 C65 1.332 1_544 S
C66 C74 1.332 . S
C67 C65 1.345 . S
C67 C79 1.334 1_566 S
C67 H85 0.928 . S
H68 C72 0.932 . S
H69 C73 0.928 . S
H70 C74 0.932 . S
H71 C75 0.928 . S
C72 C63 1.332 . S
C72 H68 0.932 . S
C72 C73 1.345 . S
C73 H69 0.928 . S
C73 C72 1.345 . S
C73 C76 1.334 . S
C74 C66 1.332 . S
C74 H70 0.932 . S
C74 C75 1.345 . S
C75 H71 0.928 . S
C75 C74 1.345 . S
C75 C79 1.334 . S
C76 C64 1.334 1_566 S
C76 C73 1.334 . S
C76 C77 1.487 . S
C77 C76 1.487 . S
C77 C78 1.185 . S
C78 C77 1.185 . S
C78 C81 1.482 1_566 S
C79 C67 1.334 1_544 S
C79 C75 1.334 . S
C79 C80 1.487 . S
C80 C79 1.487 . S
C80 C81 1.185 . S
C81 C78 1.482 1_544 S
C81 C80 1.185 . S
H82 C62 0.932 . S
H83 C64 0.928 . S
H84 C65 0.932 . S
H85 C67 0.928 . S
C86 C87 1.332 . S
C86 C88 1.345 . S
C86 H106 0.932 . S
C87 C86 1.332 . S
C87 C96 1.332 1_556 S
C88 C86 1.345 . S
C88 C100 1.334 . S
C88 H107 0.928 . S
C89 C90 1.332 . S
C89 C91 1.345 . S
C89 H108 0.932 . S
C90 C89 1.332 . S
C90 C98 1.332 1_554 S
C91 C89 1.345 . S
C91 C103 1.334 . S
C91 H109 0.928 . S
H92 C96 0.932 . S
H93 C97 0.928 . S
H94 C98 0.932 . S
H95 C99 0.928 . S
C96 C87 1.332 1_554 S
C96 H92 0.932 . S
C96 C97 1.345 . S
C97 H93 0.928 . S
C97 C96 1.345 . S
C97 C100 1.334 1_554 S
C98 C90 1.332 1_556 S
C98 H94 0.932 . S
C98 C99 1.345 . S
C99 H95 0.928 . S
C99 C98 1.345 . S
C99 C103 1.334 1_556 S
C100 C88 1.334 . S
C100 C97 1.334 1_556 S
C100 C101 1.487 . S
C101 C100 1.487 . S
C101 C102 1.185 . S
C102 C101 1.185 . S
C102 C105 1.482 1_556 S
C103 C91 1.334 . S
C103 C99 1.334 1_554 S
C103 C104 1.487 . S
C104 C103 1.487 . S
C104 C105 1.185 . S
C105 C102 1.482 1_554 S
C105 C104 1.185 . S
H106 C86 0.932 . S
H107 C88 0.928 . S
H108 C89 0.932 . S
H109 C91 0.928 . S
C110 C111 1.334 1_655 S
C110 C112 1.345 . S
C110 H130 0.932 . S
C111 C110 1.334 1_455 S
C111 C120 1.329 1_545 S
C112 C110 1.345 . S
C112 C124 1.335 1_655 S
C112 H131 0.928 . S
C113 C114 1.334 1_565 S
C113 C115 1.345 . S
C113 H132 0.932 . S
C114 C113 1.334 1_545 S
C114 C122 1.329 1_455 S
C115 C113 1.345 . S
C115 C127 1.335 1_565 S
C115 H133 0.928 . S
H116 C120 0.932 . S
H117 C121 0.928 . S
H118 C122 0.932 . S
H119 C123 0.928 . S
C120 C111 1.329 1_565 S
C120 H116 0.932 . S
C120 C121 1.345 . S
C121 H117 0.928 . S
C121 C120 1.345 . S
C121 C124 1.332 1_565 S
C122 C114 1.329 1_655 S
C122 H118 0.932 . S
C122 C123 1.345 . S
C123 H119 0.928 . S
C123 C122 1.345 . S
C123 C127 1.332 1_655 S
C124 C112 1.335 1_455 S
C124 C121 1.332 1_545 S
C124 C125 1.487 . S
C125 C124 1.487 . S
C125 C126 1.185 . S
C126 C125 1.185 . S
C126 C129 1.482 . S
C127 C115 1.335 1_545 S
C127 C123 1.332 1_455 S
C127 C128 1.487 . S
C128 C127 1.487 . S
C128 C129 1.185 . S
C129 C126 1.482 . S
C129 C128 1.185 . S
H130 C110 0.932 . S
H131 C112 0.928 . S
H132 C113 0.932 . S
H133 C115 0.928 . S
C39 C17 0.448 . S
C42 C28 0.448 . S
C63 C4 2.178 . S
C66 C23 2.178 . S
C87 C26 1.917 . S
C90 C2 1.917 . S
C111 C20 1.490 1_445 S
C114 C19 1.490 . S
