# Generated by pormake.
# Topology bnn, (5)-cn, num edge types: 1
# Building blocks:
#     Node 0, Type 0, BuildingBlock: XOMCOT_clean_sbu_1, # of connection points: 5
#     Node 1, Type 0, BuildingBlock: XOMCOT_clean_sbu_1, # of connection points: 5
#     Edge 2, Type (0, 0), BuildingBlock: XIVTED_clean_linker_0, # of connection points: 2
#     Edge 3, Type (0, 0), BuildingBlock: XIVTED_clean_linker_0, # of connection points: 2
#     Edge 4, Type (0, 0), BuildingBlock: XIVTED_clean_linker_0, # of connection points: 2
#     Edge 5, Type (0, 0), BuildingBlock: XIVTED_clean_linker_0, # of connection points: 2
#     Edge 6, Type (0, 0), BuildingBlock: XIVTED_clean_linker_0, # of connection points: 2
# Relax obj value: 0.039
# Max RMSD: 0.098
# Mean RMSD: 0.098
data_MOF--net-bnn--node1-XOMCOT_clean_sbu_1--edge1-XIVTED_clean_linker_0
_symmetry_space_group_name_H-M    P1
_symmetry_Int_Tables_number       1
_symmetry_cell_setting            triclinic
loop_
_symmetry_equiv_pos_as_xyz
'x, y, z'
_cell_length_a     30.34958
_cell_length_b     27.343779
_cell_length_c     17.690759
_cell_angle_alpha  97.031406
_cell_angle_beta   91.097591
_cell_angle_gamma 124.09059
loop_
_atom_site_label
_atom_site_type_symbol
_atom_site_fract_x
_atom_site_fract_y
_atom_site_fract_z
_atom_type_partial_charge
C0 C 0.2927 0.61396 0.9648 0.0
C1 C 0.2897 0.60589 0.88613 0.0
N2 N 0.31083 0.65945 0.86329 0.0
N3 N 0.31587 0.67231 0.99174 0.0
C4 C 0.32612 0.69888 0.92873 0.0
H5 H 0.27954 0.57964 1.00035 0.0
Co6 Co 0.33009 0.70462 0.09488 0.0
C7 C 0.42346 0.83006 0.10269 0.0
O8 O 0.44671 0.82196 0.15861 0.0
N9 N 0.34294 0.73706 0.20045 0.0
C10 C 0.34752 0.79402 0.3061 0.0
C11 C 0.34376 0.78604 0.22751 0.0
C12 C 0.3448 0.71521 0.26432 0.0
N13 N 0.34786 0.74918 0.3292 0.0
O14 O 0.26872 0.70734 0.08596 0.0
H15 H 0.33963 0.81309 0.19209 0.0
H16 H 0.34208 0.67419 0.2641 0.0
O17 O 0.37708 0.78673 0.07064 0.0
C18 C 0.23076 0.66188 0.11143 0.0
O19 O 0.24148 0.62787 0.14237 0.0
N20 N 0.38528 0.69285 0.10155 0.0
C21 C 0.43962 0.63739 0.0815 0.0
C22 C 0.45679 0.68974 0.05087 0.0
C23 C 0.42837 0.71611 0.06014 0.0
C24 C 0.36828 0.64207 0.13127 0.0
C25 C 0.39532 0.61445 0.12347 0.0
H26 H 0.43852 0.75189 0.02867 0.0
H27 H 0.3302 0.61913 0.15441 0.0
H28 H 0.34419 0.74619 0.93086 0.0
H29 H 0.27411 0.56384 0.84903 0.0
H30 H 0.34704 0.82828 0.34309 0.0
H31 H 0.49016 0.70841 1.01665 0.0
H32 H 0.37882 0.57262 0.14485 0.0
C33 C 0.70322 0.45627 0.09566 0.0
C34 C 0.7093 0.46399 0.1744 0.0
N35 N 0.68497 0.40965 0.19608 0.0
N36 N 0.67531 0.39745 0.0677 0.0
C37 C 0.66469 0.37014 0.13006 0.0
H38 H 0.71783 0.49121 0.06078 0.0
Co39 Co 0.65683 0.36596 0.9643 0.0
C40 C 0.62314 0.24042 0.95468 0.0
O41 O 0.65376 0.24918 0.89919 0.0
N42 N 0.63681 0.33431 0.85845 0.0
C43 C 0.58294 0.27919 0.75124 0.0
C44 C 0.58697 0.28745 0.82979 0.0
C45 C 0.66205 0.35431 0.79554 0.0
N46 N 0.63019 0.32147 0.72957 0.0
O47 O 0.59234 0.36255 0.97039 0.0
H48 H 0.55478 0.26201 0.86404 0.0
H49 H 0.70242 0.39307 0.79734 0.0
O50 O 0.62108 0.2835 0.98731 0.0
C51 C 0.59868 0.40685 0.94287 0.0
O52 O 0.64248 0.44047 0.91054 0.0
N53 N 0.72412 0.37863 0.96077 0.0
C54 C 0.83484 0.4344 0.98348 0.0
C55 C 0.79937 0.38084 1.01147 0.0
C56 C 0.74411 0.3543 1.00099 0.0
C57 C 0.75812 0.43066 0.93382 0.0
C58 C 0.81325 0.45857 0.94306 0.0
H59 H 0.71832 0.3172 0.03024 0.0
H60 H 0.7426 0.45349 0.91046 0.0
H61 H 0.64292 0.32222 0.12719 0.0
H62 H 0.72915 0.50635 0.21253 0.0
H63 H 0.54708 0.24638 0.71325 0.0
H64 H 0.81422 0.3611 0.04434 0.0
H65 H 0.83878 0.50115 0.92353 0.0
H66 H 0.45785 0.57489 0.17356 0.0
H67 H 0.57777 0.46495 0.85091 0.0
H68 H 0.47269 0.61801 0.94462 0.0
H69 H 0.54221 0.39864 0.066 0.0
H70 H 0.53632 0.51842 0.8835 0.0
H71 H 0.48807 0.50995 0.13637 0.0
C72 C 0.4676 0.57091 0.11555 0.0
C73 C 0.46291 0.60238 0.06231 0.0
C74 C 0.53679 0.49161 0.92334 0.0
C75 C 0.49746 0.52789 0.01939 0.0
C76 C 0.56018 0.46076 0.90451 0.0
C77 C 0.56328 0.42733 0.95582 0.0
C78 C 0.51704 0.48995 0.99475 0.0
C79 C 0.5401 0.4235 0.02457 0.0
C80 C 0.48472 0.53368 0.09436 0.0
C81 C 0.47661 0.59576 0.98819 0.0
N82 N 0.51854 0.45522 0.04261 0.0
N83 N 0.4932 0.55934 0.96906 0.0
H84 H 0.88938 0.44916 0.11916 0.0
H85 H 0.1809 0.67709 0.9939 0.0
H86 H 0.91508 0.50026 0.89426 0.0
H87 H 0.15209 0.59744 0.19902 0.0
H88 H 0.08364 0.62406 0.96312 0.0
H89 H 0.9858 0.51169 0.15412 0.0
C90 C 0.91523 0.47279 0.07663 0.0
C91 C 0.89382 0.46886 1.00333 0.0
C92 C 0.09877 0.61886 1.01531 0.0
C93 C 1.00477 0.54227 0.04397 0.0
C94 C 0.15418 0.64965 0.03328 0.0
C95 C 0.17434 0.6414 0.09893 0.0
C96 C 0.06372 0.58014 0.06378 0.0
C97 C 0.13809 0.6047 0.14756 0.0
C98 C 0.97041 0.50916 0.097 0.0
C99 C 0.92964 0.50216 0.9516 0.0
N100 N 0.08465 0.57525 0.12884 0.0
N101 N 0.98331 0.53746 0.9729 0.0
H102 H 0.53088 0.91 0.10614 0.0
H103 H 0.52732 0.18518 1.01774 0.0
H104 H 0.38095 0.88573 0.04411 0.0
H105 H 0.64938 0.15994 0.94701 0.0
H106 H 0.47625 0.08353 0.05139 0.0
H107 H 0.57861 1.01018 0.07102 0.0
C108 C 0.508 0.9258 0.08503 0.0
C109 C 0.45188 0.88944 0.07767 0.0
C110 C 0.51424 0.10052 0.02848 0.0
C111 C 0.50637 1.00465 0.0391 0.0
C112 C 0.54352 0.15849 1.0099 0.0
C113 C 0.5926 0.18091 0.97946 0.0
C114 C 0.53503 0.06566 1.01847 0.0
C115 C 0.61162 0.14434 0.96993 0.0
C116 C 0.53527 0.98288 0.06493 0.0
C117 C 0.42426 0.91221 0.04995 0.0
N118 N 0.5831 0.08886 0.98997 0.0
N119 N 0.4518 0.96874 0.03241 0.0
H120 H 0.25788 0.58026 0.73132 0.0
H121 H 0.39206 0.82996 0.46 0.0
H122 H 0.37742 0.76722 0.81599 0.0
H123 H 0.29851 0.64048 0.37522 0.0
H124 H 0.38414 0.80839 0.59118 0.0
H125 H 0.26935 0.6019 0.60092 0.0
C126 C 0.28678 0.62582 0.72291 0.0
C127 C 0.31673 0.67187 0.78557 0.0
C128 C 0.36558 0.77153 0.54388 0.0
C129 C 0.32948 0.69708 0.63534 0.0
C130 C 0.36991 0.78382 0.46903 0.0
C131 C 0.34592 0.73698 0.40653 0.0
C132 C 0.33655 0.71187 0.5565 0.0
C133 C 0.31817 0.678 0.42154 0.0
C134 C 0.29315 0.63815 0.6481 0.0
C135 C 0.35284 0.73023 0.77015 0.0
N136 N 0.31396 0.66713 0.49495 0.0
N137 N 0.35808 0.74112 0.69675 0.0
H138 H 0.74855 0.48425 0.32583 0.0
H139 H 0.58228 0.24109 0.59829 0.0
H140 H 0.61091 0.30494 0.2442 0.0
H141 H 0.70464 0.42696 0.68316 0.0
H142 H 0.59779 0.26163 0.46758 0.0
H143 H 0.73819 0.46212 0.45636 0.0
C144 C 0.71605 0.44029 0.33508 0.0
C145 C 0.68041 0.39657 0.27339 0.0
C146 C 0.62138 0.29791 0.51481 0.0
C147 C 0.66879 0.37068 0.42323 0.0
C148 C 0.6124 0.28625 0.58961 0.0
C149 C 0.64184 0.33239 0.65223 0.0
C150 C 0.66021 0.35618 0.50212 0.0
C151 C 0.6812 0.38979 0.63707 0.0
C152 C 0.71035 0.4276 0.40979 0.0
C153 C 0.63973 0.34 0.28934 0.0
N154 N 0.68904 0.40008 0.56362 0.0
N155 N 0.635 0.3288 0.36257 0.0
loop_
_geom_bond_atom_site_label_1
_geom_bond_atom_site_label_2
_geom_bond_distance
_geom_bond_site_symmetry_2
_ccdc_geom_bond_type
C0 C1 1.351 . S
C0 N3 1.368 . S
C0 H5 0.931 . S
C1 C0 1.351 . S
C1 N2 1.373 . S
C1 H29 0.930 . S
N2 C1 1.373 . S
N2 C4 1.340 . S
N3 C0 1.368 . S
N3 C4 1.321 . S
N3 Co6 2.135 1_556 S
C4 N2 1.340 . S
C4 N3 1.321 . S
C4 H28 0.930 . S
H5 C0 0.931 . S
Co6 N3 2.135 1_554 S
Co6 N9 2.121 . S
Co6 O14 2.055 . S
Co6 O17 2.039 . S
Co6 N20 2.140 . S
C7 O8 1.227 1_554 S
C7 O17 1.265 . S
O8 C7 1.227 1_556 S
N9 Co6 2.121 . S
N9 C11 1.375 . S
N9 C12 1.313 . S
C10 C11 1.338 . S
C10 N13 1.377 . S
C10 H30 0.930 . S
C11 N9 1.375 . S
C11 C10 1.338 . S
C11 H15 0.931 . S
C12 N9 1.313 . S
C12 N13 1.344 . S
C12 H16 0.930 . S
N13 C10 1.377 . S
N13 C12 1.344 . S
O14 Co6 2.055 . S
O14 C18 1.253 . S
H15 C11 0.931 . S
H16 C12 0.930 . S
O17 Co6 2.039 . S
O17 C7 1.265 . S
C18 O14 1.253 . S
C18 O19 1.227 . S
O19 C18 1.227 . S
N20 Co6 2.140 . S
N20 C23 1.346 1_554 S
N20 C24 1.345 . S
C21 C22 1.387 . S
C21 C25 1.391 1_556 S
C22 C21 1.387 . S
C22 C23 1.369 . S
C22 H31 0.929 . S
C23 N20 1.346 1_556 S
C23 C22 1.369 . S
C23 H26 0.928 . S
C24 N20 1.345 . S
C24 C25 1.371 . S
C24 H27 0.931 . S
C25 C21 1.391 1_554 S
C25 C24 1.371 . S
C25 H32 0.930 . S
H26 C23 0.928 . S
H27 C24 0.931 . S
H28 C4 0.930 . S
H29 C1 0.930 . S
H30 C10 0.930 . S
H31 C22 0.929 . S
H32 C25 0.930 . S
C33 C34 1.351 . S
C33 N36 1.368 . S
C33 H38 0.931 . S
C34 C33 1.351 . S
C34 N35 1.373 . S
C34 H62 0.930 . S
N35 C34 1.373 . S
N35 C37 1.340 . S
N36 C33 1.368 . S
N36 C37 1.321 . S
N36 Co39 2.135 . S
C37 N35 1.340 . S
C37 N36 1.321 . S
C37 H61 0.930 . S
H38 C33 0.931 . S
Co39 N36 2.135 . S
Co39 N42 2.121 1_554 S
Co39 O47 2.055 . S
Co39 O50 2.039 . S
Co39 N53 2.140 . S
C40 O41 1.227 . S
C40 O50 1.265 . S
O41 C40 1.227 . S
N42 Co39 2.121 1_556 S
N42 C44 1.375 . S
N42 C45 1.313 . S
C43 C44 1.338 . S
C43 N46 1.377 . S
C43 H63 0.930 . S
C44 N42 1.375 . S
C44 C43 1.338 . S
C44 H48 0.931 . S
C45 N42 1.313 . S
C45 N46 1.344 . S
C45 H49 0.930 . S
N46 C43 1.377 . S
N46 C45 1.344 . S
O47 Co39 2.055 . S
O47 C51 1.253 . S
H48 C44 0.931 . S
H49 C45 0.930 . S
O50 Co39 2.039 . S
O50 C40 1.265 . S
C51 O47 1.253 . S
C51 O52 1.227 1_554 S
O52 C51 1.227 1_556 S
N53 Co39 2.140 . S
N53 C56 1.346 . S
N53 C57 1.345 1_554 S
C54 C55 1.387 . S
C54 C58 1.391 1_554 S
C55 C54 1.387 . S
C55 C56 1.369 . S
C55 H64 0.929 . S
C56 N53 1.346 . S
C56 C55 1.369 . S
C56 H59 0.928 . S
C57 N53 1.345 1_556 S
C57 C58 1.371 . S
C57 H60 0.931 . S
C58 C54 1.391 1_556 S
C58 C57 1.371 . S
C58 H65 0.930 . S
H59 C56 0.928 . S
H60 C57 0.931 . S
H61 C37 0.930 . S
H62 C34 0.930 . S
H63 C43 0.930 . S
H64 C55 0.929 . S
H65 C58 0.930 . S
H66 C72 0.930 . S
H67 C76 0.930 . S
H68 C81 0.929 . S
H69 C79 0.929 . S
H70 C74 0.929 . S
H71 C80 0.929 . S
C72 H66 0.930 . S
C72 C73 1.367 1_554 S
C72 C80 1.378 . S
C73 C72 1.367 1_556 S
C73 C81 1.433 . S
C74 H70 0.929 . S
C74 C76 1.378 . S
C74 C78 1.350 . S
C75 C78 1.462 . S
C75 C80 1.345 1_556 S
C75 N83 1.433 . S
C76 H67 0.930 . S
C76 C74 1.378 . S
C76 C77 1.367 . S
C77 C76 1.367 . S
C77 C79 1.433 1_556 S
C78 C74 1.350 . S
C78 C75 1.462 . S
C78 N82 1.427 1_556 S
C79 H69 0.929 . S
C79 C77 1.433 1_554 S
C79 N82 1.384 . S
C80 H71 0.929 . S
C80 C72 1.378 . S
C80 C75 1.345 1_554 S
C81 H68 0.929 . S
C81 C73 1.433 . S
C81 N83 1.384 . S
N82 C78 1.427 1_554 S
N82 C79 1.384 . S
N83 C75 1.433 . S
N83 C81 1.384 . S
H84 C90 0.930 . S
H85 C94 0.930 . S
H86 C99 0.929 . S
H87 C97 0.929 . S
H88 C92 0.929 . S
H89 C98 0.929 . S
C90 H84 0.930 . S
C90 C91 1.367 . S
C90 C98 1.378 . S
C91 C90 1.367 . S
C91 C99 1.433 1_554 S
C92 H88 0.929 . S
C92 C94 1.378 . S
C92 C96 1.350 1_556 S
C93 C96 1.463 1_655 S
C93 C98 1.350 . S
C93 N101 1.427 1_554 S
C94 H85 0.930 . S
C94 C92 1.378 . S
C94 C95 1.367 1_556 S
C95 C94 1.367 1_554 S
C95 C97 1.433 . S
C96 C92 1.350 1_554 S
C96 C93 1.463 1_455 S
C96 N100 1.427 . S
C97 H87 0.929 . S
C97 C95 1.433 . S
C97 N100 1.384 . S
C98 H89 0.929 . S
C98 C90 1.378 . S
C98 C93 1.350 . S
C99 H86 0.929 . S
C99 C91 1.433 1_556 S
C99 N101 1.384 . S
N100 C96 1.427 . S
N100 C97 1.384 . S
N101 C93 1.427 1_556 S
N101 C99 1.384 . S
H102 C108 0.930 . S
H103 C112 0.930 . S
H104 C117 0.929 . S
H105 C115 0.929 . S
H106 C110 0.929 . S
H107 C116 0.929 . S
C108 H102 0.930 . S
C108 C109 1.367 1_556 S
C108 C116 1.378 . S
C109 C108 1.367 1_554 S
C109 C117 1.433 . S
C110 H106 0.929 . S
C110 C112 1.378 . S
C110 C114 1.350 . S
C111 C114 1.463 1_565 S
C111 C116 1.350 1_554 S
C111 N119 1.427 . S
C112 H103 0.930 . S
C112 C110 1.378 . S
C112 C113 1.367 . S
C113 C112 1.367 . S
C113 C115 1.433 1_554 S
C114 C110 1.350 . S
C114 C111 1.463 1_545 S
C114 N118 1.427 1_554 S
C115 H105 0.929 . S
C115 C113 1.433 1_556 S
C115 N118 1.384 . S
C116 H107 0.929 . S
C116 C108 1.378 . S
C116 C111 1.350 1_556 S
C117 H104 0.929 . S
C117 C109 1.433 . S
C117 N119 1.384 . S
N118 C114 1.427 1_556 S
N118 C115 1.384 . S
N119 C111 1.427 . S
N119 C117 1.384 . S
H120 C126 0.930 . S
H121 C130 0.930 . S
H122 C135 0.929 . S
H123 C133 0.929 . S
H124 C128 0.929 . S
H125 C134 0.929 . S
C126 H120 0.930 . S
C126 C127 1.367 . S
C126 C134 1.378 . S
C127 C126 1.367 . S
C127 C135 1.433 . S
C128 H124 0.929 . S
C128 C130 1.378 . S
C128 C132 1.350 . S
C129 C132 1.463 . S
C129 C134 1.350 . S
C129 N137 1.427 . S
C130 H121 0.930 . S
C130 C128 1.378 . S
C130 C131 1.367 . S
C131 C130 1.367 . S
C131 C133 1.433 . S
C132 C128 1.350 . S
C132 C129 1.463 . S
C132 N136 1.427 . S
C133 H123 0.929 . S
C133 C131 1.433 . S
C133 N136 1.384 . S
C134 H125 0.929 . S
C134 C126 1.378 . S
C134 C129 1.350 . S
C135 H122 0.929 . S
C135 C127 1.433 . S
C135 N137 1.384 . S
N136 C132 1.427 . S
N136 C133 1.384 . S
N137 C129 1.427 . S
N137 C135 1.384 . S
H138 C144 0.930 . S
H139 C148 0.930 . S
H140 C153 0.929 . S
H141 C151 0.929 . S
H142 C146 0.929 . S
H143 C152 0.929 . S
C144 H138 0.930 . S
C144 C145 1.367 . S
C144 C152 1.378 . S
C145 C144 1.367 . S
C145 C153 1.433 . S
C146 H142 0.929 . S
C146 C148 1.378 . S
C146 C150 1.350 . S
C147 C150 1.463 . S
C147 C152 1.350 . S
C147 N155 1.427 . S
C148 H139 0.930 . S
C148 C146 1.378 . S
C148 C149 1.367 . S
C149 C148 1.367 . S
C149 C151 1.433 . S
C150 C146 1.350 . S
C150 C147 1.463 . S
C150 N154 1.427 . S
C151 H141 0.929 . S
C151 C149 1.433 . S
C151 N154 1.384 . S
C152 H143 0.929 . S
C152 C144 1.378 . S
C152 C147 1.350 . S
C153 H140 0.929 . S
C153 C145 1.433 . S
C153 N155 1.384 . S
N154 C150 1.427 . S
N154 C151 1.384 . S
N155 C147 1.427 . S
N155 C153 1.384 . S
C73 C21 1.506 . S
C77 C51 1.507 1_556 S
C91 C54 1.507 . S
C95 C18 1.507 . S
C109 C7 1.494 . S
C113 C40 1.494 . S
C127 N2 1.450 . S
C131 N13 1.453 . S
C145 N35 1.455 . S
C149 N46 1.458 . S
