# Generated by pormake.
# Topology qtz-x, (6)-cn, num edge types: 1
# Building blocks:
#     Node 0, Type 0, BuildingBlock: MIFKUJ_clean_sbu_0, # of connection points: 6
#     Node 1, Type 0, BuildingBlock: MIFKUJ_clean_sbu_0, # of connection points: 6
#     Node 2, Type 0, BuildingBlock: MIFKUJ_clean_sbu_0, # of connection points: 6
#     Edge 3, Type (0, 0), BuildingBlock: EZIPEK_clean_linker_0, # of connection points: 2
#     Edge 4, Type (0, 0), BuildingBlock: EZIPEK_clean_linker_0, # of connection points: 2
#     Edge 5, Type (0, 0), BuildingBlock: EZIPEK_clean_linker_0, # of connection points: 2
#     Edge 6, Type (0, 0), BuildingBlock: EZIPEK_clean_linker_0, # of connection points: 2
#     Edge 7, Type (0, 0), BuildingBlock: EZIPEK_clean_linker_0, # of connection points: 2
#     Edge 8, Type (0, 0), BuildingBlock: EZIPEK_clean_linker_0, # of connection points: 2
#     Edge 9, Type (0, 0), BuildingBlock: EZIPEK_clean_linker_0, # of connection points: 2
#     Edge 10, Type (0, 0), BuildingBlock: EZIPEK_clean_linker_0, # of connection points: 2
#     Edge 11, Type (0, 0), BuildingBlock: EZIPEK_clean_linker_0, # of connection points: 2
# Relax obj value: 0.186
# Max RMSD: 0.247
# Mean RMSD: 0.246
data_MOF--net-qtz-x--node1-MIFKUJ_clean_sbu_0--edge1-EZIPEK_clean_linker_0
_symmetry_space_group_name_H-M    P1
_symmetry_Int_Tables_number       1
_symmetry_cell_setting            triclinic
loop_
_symmetry_equiv_pos_as_xyz
'x, y, z'
_cell_length_a     10.538878
_cell_length_b     10.534735
_cell_length_c     35.62777
_cell_angle_alpha  96.070826
_cell_angle_beta   87.598793
_cell_angle_gamma 120.11033
loop_
_atom_site_label
_atom_site_type_symbol
_atom_site_fract_x
_atom_site_fract_y
_atom_site_fract_z
_atom_type_partial_charge
Zn0 Zn 0.12779 0.46712 0.21645 0.0
Zn1 Zn 0.9484 0.36141 0.13289 0.0
C2 C 0.92811 0.47521 0.27045 0.0
O3 O 0.04343 0.60771 0.27613 0.0
C4 C 0.14986 0.40668 0.07254 0.0
O5 O 0.08455 0.2621 0.07017 0.0
O6 O 0.26864 0.55181 0.26054 0.0
O7 O 0.14707 0.29899 0.19029 0.0
O8 O 0.95141 0.19008 0.15241 0.0
C9 C 0.28299 0.46765 0.28092 0.0
O10 O 0.23499 0.32922 0.26832 0.0
O11 O 0.93492 0.38764 0.24396 0.0
C12 C 0.72843 0.3469 0.08465 0.0
O13 O 0.744 0.45997 0.10763 0.0
O14 O 0.79077 0.27662 0.09272 0.0
O15 O 0.92383 0.51055 0.16815 0.0
O16 O 0.1535 0.63487 0.18813 0.0
O17 O 0.1231 0.47504 0.10042 0.0
C18 C 0.0495 0.18579 0.17089 0.0
C19 C 0.03869 0.63286 0.17752 0.0
Zn20 Zn 0.42754 0.95712 0.55141 0.0
Zn21 Zn 0.50311 0.06335 0.46609 0.0
C22 C 0.59257 0.19358 0.60887 0.0
O23 O 0.51843 0.18237 0.57901 0.0
C24 C 0.35483 0.80486 0.41689 0.0
O25 O 0.30666 0.88495 0.40372 0.0
O26 O 0.35365 0.83789 0.59606 0.0
O27 O 0.24829 0.90901 0.52146 0.0
O28 O 0.35541 0.10955 0.49181 0.0
C29 C 0.24144 0.82881 0.61323 0.0
O30 O 0.16443 0.87868 0.59867 0.0
O31 O 0.51822 0.17366 0.57913 0.0
C32 C 0.66722 0.26412 0.40834 0.0
O33 O 0.77051 0.33342 0.43438 0.0
O34 O 0.54555 0.15639 0.41675 0.0
O35 O 0.69138 0.12366 0.49323 0.0
O36 O 0.59291 0.9339 0.52776 0.0
O37 O 0.42496 0.84877 0.44804 0.0
C38 C 0.24362 0.0126 0.50755 0.0
C39 C 0.7021 0.02974 0.51062 0.0
Zn40 Zn 0.4732 0.43642 0.87264 0.0
Zn41 Zn 0.35147 0.53309 0.80891 0.0
C42 C 0.4407 0.61095 0.93656 0.0
O43 O 0.58387 0.67136 0.93719 0.0
C44 C 0.41299 0.40366 0.73892 0.0
O45 O 0.27516 0.35769 0.73114 0.0
O46 O 0.57572 0.37585 0.9076 0.0
O47 O 0.31681 0.25254 0.84317 0.0
O48 O 0.19475 0.36776 0.83646 0.0
C49 C 0.51059 0.32254 0.93771 0.0
O50 O 0.37163 0.28378 0.9415 0.0
O51 O 0.37097 0.51663 0.90889 0.0
C52 C 0.30621 0.68539 0.75468 0.0
O53 O 0.45024 0.75899 0.75663 0.0
O54 O 0.236 0.58748 0.77699 0.0
O55 O 0.50994 0.7154 0.83808 0.0
O56 O 0.6328 0.60059 0.84546 0.0
O57 O 0.46469 0.47006 0.77122 0.0
C58 C 0.19606 0.2497 0.83954 0.0
C59 C 0.63113 0.71832 0.8416 0.0
C60 C 0.14585 0.88135 0.15289 0.0
C61 C 0.03938 0.77345 0.17524 0.0
C62 C 0.93084 0.93114 0.19155 0.0
C63 C 0.04489 0.04335 0.17181 0.0
N64 N 0.26975 0.13395 0.13685 0.0
N65 N 0.8402 0.70136 0.21942 0.0
C66 C 0.15529 0.02112 0.15353 0.0
C67 C 0.93356 0.7993 0.19528 0.0
N68 N 0.23267 0.84741 0.12933 0.0
N69 N 0.81996 0.95085 0.20692 0.0
H70 H 0.83666 0.60281 0.22283 0.0
H71 H 0.77335 0.72206 0.23834 0.0
H72 H 0.8194 0.04972 0.2075 0.0
H73 H 0.72379 0.86687 0.21726 0.0
H74 H 0.29914 0.91401 0.10897 0.0
H75 H 0.22888 0.74632 0.12754 0.0
H76 H 0.36349 0.13149 0.1275 0.0
H77 H 0.27577 0.23466 0.13446 0.0
C78 C 0.10211 0.14202 0.52672 0.0
C79 C 0.10539 0.01745 0.50828 0.0
C80 C 0.84253 0.89743 0.49338 0.0
C81 C 0.84146 0.02651 0.50942 0.0
N82 N -0.02769 0.27754 0.53827 0.0
N83 N -0.01314 0.78621 0.46935 0.0
C84 C -0.02783 0.1509 0.52493 0.0
C85 C -0.02256 0.89714 0.4906 0.0
N86 N 0.22043 0.24786 0.54789 0.0
N87 N 0.71481 0.77524 0.4804 0.0
H88 H 0.08473 0.78504 0.46526 0.0
H89 H 0.90095 0.70058 0.45325 0.0
H90 H 0.61663 0.77471 0.4775 0.0
H91 H 0.70383 0.67137 0.47437 0.0
H92 H 0.2192 0.33231 0.56566 0.0
H93 H 0.31694 0.2447 0.55037 0.0
H94 H 0.06802 0.37802 0.54435 0.0
H95 H 0.87746 0.28511 0.54125 0.0
C96 C 0.86895 0.87301 0.80925 0.0
C97 C 0.77255 0.85761 0.83985 0.0
C98 C 0.9638 0.08829 0.87228 0.0
C99 C 0.05466 0.11036 0.84034 0.0
N100 N 0.085 0.03786 0.77574 0.0
N101 N 0.71822 0.96505 0.89716 0.0
C102 C 0.00505 0.00641 0.80807 0.0
C103 C 0.81668 0.96991 0.87031 0.0
N104 N 0.83128 0.7602 0.78136 0.0
N105 N 0.02008 0.17687 0.90511 0.0
H106 H 0.60931 0.88048 0.89684 0.0
H107 H 0.74088 0.05175 0.91781 0.0
H108 H 0.12796 0.2636 0.90768 0.0
H109 H 0.96503 0.15423 0.93063 0.0
H110 H 0.90441 0.75785 0.76108 0.0
H111 H 0.7294 0.66431 0.77975 0.0
H112 H 0.04615 0.97523 0.74986 0.0
H113 H 0.18646 0.13329 0.77414 0.0
C114 C 0.43755 0.66893 1.00726 0.0
C115 C 0.36046 0.61044 0.97235 0.0
C116 C 0.13684 0.44995 1.00508 0.0
C117 C 0.22125 0.48515 0.03877 0.0
N118 N 0.45093 0.63351 0.07287 0.0
N119 N 0.12678 0.51663 0.94245 0.0
C120 C 0.37077 0.59876 0.04041 0.0
C121 C 0.20618 0.52271 0.9726 0.0
N122 N 0.56974 0.79657 1.00891 0.0
N123 N -0.00836 0.34442 1.00373 0.0
H124 H 0.17717 0.57932 0.91986 0.0
H125 H 0.01278 0.46506 0.94176 0.0
H126 H 0.93374 0.29314 0.02715 0.0
H127 H 0.92829 0.30415 0.9791 0.0
H128 H 0.62739 0.85175 0.03395 0.0
H129 H 0.61129 0.85764 0.98569 0.0
H130 H 0.56419 0.70301 0.07451 0.0
H131 H 0.40562 0.58481 0.09769 0.0
C132 C 0.74514 0.46307 0.36506 0.0
C133 C 0.69276 0.31272 0.36952 0.0
C134 C 0.71688 0.26776 0.30135 0.0
C135 C 0.81038 0.42095 0.29972 0.0
N136 N 0.87018 0.66549 0.32573 0.0
N137 N 0.62074 0.06713 0.34049 0.0
C138 C 0.81041 0.51944 0.33031 0.0
C139 C 0.6731 0.21281 0.33713 0.0
N140 N 0.72793 0.54949 0.3938 0.0
N141 N 0.66504 0.1759 0.26883 0.0
H142 H 0.58502 0.021 0.36584 0.0
H143 H 0.62208 -0.00568 0.31848 0.0
H144 H 0.6819 0.21614 0.24246 0.0
H145 H 0.58834 0.0639 0.26841 0.0
H146 H 0.7613 0.66001 0.39291 0.0
H147 H 0.67035 0.50662 0.41815 0.0
H148 H 0.8936 0.74742 0.34777 0.0
H149 H 0.89294 0.70403 0.29909 0.0
C150 C 0.26811 0.85524 0.7193 0.0
C151 C 0.23144 0.70935 0.72407 0.0
C152 C 0.15945 0.63307 0.65759 0.0
C153 C 0.212 0.78232 0.65186 0.0
N154 N 0.26698 0.02511 0.67863 0.0
N155 N 0.07808 0.45174 0.70282 0.0
C156 C 0.24886 0.89001 0.68326 0.0
C157 C 0.15534 0.59509 0.69488 0.0
N158 N 0.32661 0.961 0.7491 0.0
N159 N 0.11709 0.52873 0.62735 0.0
H160 H 0.06437 0.42208 0.73028 0.0
H161 H 0.0127 0.3646 0.68301 0.0
H162 H 0.11111 0.55229 0.59998 0.0
H163 H 0.09471 0.42139 0.62918 0.0
H164 H 0.36963 0.07273 0.74697 0.0
H165 H 0.33246 0.93565 0.7763 0.0
H166 H 0.27326 0.09938 0.70115 0.0
H167 H 0.26287 0.05856 0.65246 0.0
C168 C 0.71332 0.45207 0.98703 0.0
C169 C 0.5912 0.31994 0.97064 0.0
C170 C 0.56702 0.19938 0.02802 0.0
C171 C 0.68367 0.3335 0.04493 0.0
N172 N 0.89816 0.56941 0.0366 0.0
N173 N 0.43286 0.05784 0.97047 0.0
C174 C 0.76539 0.45488 0.02335 0.0
C175 C 0.52782 0.19022 0.98966 0.0
N176 N 0.77754 0.57713 0.96879 0.0
N177 N 0.49072 0.08274 0.04899 0.0
H178 H 0.40624 0.04834 0.94202 0.0
H179 H 0.39226 0.95667 0.9813 0.0
H180 H 0.51907 0.08497 0.07684 0.0
H181 H 0.39466 -0.01288 0.0397 0.0
H182 H 0.84642 0.68164 0.98227 0.0
H183 H 0.76094 0.57881 0.94039 0.0
H184 H -0.02891 0.65217 0.02033 0.0
H185 H 0.94441 0.57353 0.06232 0.0
C186 C 0.45644 0.63186 0.33335 0.0
C187 C 0.31467 0.51673 0.32159 0.0
C188 C 0.21252 0.55797 0.38152 0.0
C189 C 0.35042 0.68189 0.39156 0.0
N190 N 0.61242 0.80847 0.38419 0.0
N191 N 0.06682 0.34145 0.33834 0.0
C192 C 0.47593 0.70816 0.36998 0.0
C193 C 0.196 0.46906 0.34717 0.0
N194 N 0.57017 0.67178 0.30874 0.0
N195 N 0.09534 0.53134 0.40388 0.0
H196 H 0.04709 0.27637 0.3128 0.0
H197 H -0.01738 0.29302 0.35752 0.0
H198 H 0.10658 0.58753 0.43058 0.0
H199 H -0.012 0.45857 0.39521 0.0
H200 H 0.67204 0.76675 0.31326 0.0
H201 H 0.55993 0.61123 0.28276 0.0
H202 H 0.70944 0.83149 0.37038 0.0
H203 H 0.6291 0.86384 0.41113 0.0
C204 C 0.5904 0.3229 0.71166 0.0
C205 C 0.50969 0.39587 0.70806 0.0
C206 C 0.56684 0.40589 0.64058 0.0
C207 C 0.60382 0.29506 0.64259 0.0
N208 N 0.67631 0.16453 0.68012 0.0
N209 N 0.44697 0.53412 0.67027 0.0
C210 C 0.62782 0.26218 0.67831 0.0
C211 C 0.50711 0.44693 0.67284 0.0
N212 N 0.6291 0.30946 0.7465 0.0
N213 N 0.59551 0.47588 0.60853 0.0
H214 H 0.41848 0.58027 0.69404 0.0
H215 H 0.42327 0.55815 0.64474 0.0
H216 H 0.65226 0.4562 0.58608 0.0
H217 H 0.58016 0.56488 0.60603 0.0
H218 H 0.6995 0.2695 0.75058 0.0
H219 H 0.60083 0.34917 0.77152 0.0
H220 H 0.67639 0.11928 0.70473 0.0
H221 H 0.71157 0.12437 0.65635 0.0
loop_
_geom_bond_atom_site_label_1
_geom_bond_atom_site_label_2
_geom_bond_distance
_geom_bond_site_symmetry_2
_ccdc_geom_bond_type
Zn0 O6 1.969 . S
Zn0 O7 1.965 . S
Zn0 O11 2.024 1_455 S
Zn0 O16 1.969 . S
Zn1 O8 1.969 . S
Zn1 O14 1.969 1_455 S
Zn1 O15 1.965 1_455 S
Zn1 O17 2.024 . S
C2 O3 1.229 . S
C2 O11 1.058 . S
O3 C2 1.229 . S
C4 O5 1.229 . S
C4 O17 1.058 . S
O5 C4 1.229 . S
O6 Zn0 1.969 . S
O6 C9 1.267 . S
O7 Zn0 1.965 . S
O7 C18 1.260 . S
O8 Zn1 1.969 . S
O8 C18 1.258 . S
C9 O6 1.267 . S
C9 O10 1.228 . S
O10 C9 1.228 . S
O11 Zn0 2.024 1_655 S
O11 C2 1.058 . S
C12 O13 1.228 . S
C12 O14 1.267 . S
O13 C12 1.228 . S
O14 Zn1 1.969 1_655 S
O14 C12 1.267 . S
O15 Zn1 1.965 1_655 S
O15 C19 1.260 1_655 S
O16 Zn0 1.969 . S
O16 C19 1.258 . S
O17 Zn1 2.024 . S
O17 C4 1.058 . S
C18 O7 1.260 . S
C18 O8 1.258 . S
C19 O15 1.260 1_455 S
C19 O16 1.258 . S
Zn20 O26 1.969 1_545 S
Zn20 O27 1.965 1_545 S
Zn20 O31 2.024 . S
Zn20 O36 1.969 . S
Zn21 O28 1.969 . S
Zn21 O34 1.969 . S
Zn21 O35 1.965 . S
Zn21 O37 2.024 1_545 S
C22 O23 1.229 . S
C22 O31 1.058 . S
O23 C22 1.229 . S
C24 O25 1.229 . S
C24 O37 1.058 . S
O25 C24 1.229 . S
O26 Zn20 1.969 1_565 S
O26 C29 1.267 . S
O27 Zn20 1.965 1_565 S
O27 C38 1.260 1_565 S
O28 Zn21 1.969 . S
O28 C38 1.258 . S
C29 O26 1.267 . S
C29 O30 1.228 . S
O30 C29 1.228 . S
O31 Zn20 2.024 . S
O31 C22 1.058 . S
C32 O33 1.228 . S
C32 O34 1.267 . S
O33 C32 1.228 . S
O34 Zn21 1.969 . S
O34 C32 1.267 . S
O35 Zn21 1.965 . S
O35 C39 1.260 . S
O36 Zn20 1.969 . S
O36 C39 1.258 . S
O37 Zn21 2.024 1_565 S
O37 C24 1.058 . S
C38 O27 1.260 1_545 S
C38 O28 1.258 . S
C39 O35 1.260 . S
C39 O36 1.258 . S
Zn40 O46 1.969 . S
Zn40 O47 1.965 . S
Zn40 O51 2.024 . S
Zn40 O56 1.969 . S
Zn41 O48 1.969 . S
Zn41 O54 1.969 . S
Zn41 O55 1.965 . S
Zn41 O57 2.024 . S
C42 O43 1.229 . S
C42 O51 1.058 . S
O43 C42 1.229 . S
C44 O45 1.229 . S
C44 O57 1.058 . S
O45 C44 1.229 . S
O46 Zn40 1.969 . S
O46 C49 1.267 . S
O47 Zn40 1.965 . S
O47 C58 1.260 . S
O48 Zn41 1.969 . S
O48 C58 1.258 . S
C49 O46 1.267 . S
C49 O50 1.228 . S
O50 C49 1.228 . S
O51 Zn40 2.024 . S
O51 C42 1.058 . S
C52 O53 1.228 . S
C52 O54 1.267 . S
O53 C52 1.228 . S
O54 Zn41 1.969 . S
O54 C52 1.267 . S
O55 Zn41 1.965 . S
O55 C59 1.260 . S
O56 Zn40 1.969 . S
O56 C59 1.258 . S
O57 Zn41 2.024 . S
O57 C44 1.058 . S
C58 O47 1.260 . S
C58 O48 1.258 . S
C59 O55 1.260 . S
C59 O56 1.258 . S
C60 C61 1.363 . S
C60 C66 1.379 1_565 S
C60 N68 1.356 . S
C61 C60 1.363 . S
C61 C67 1.363 1_455 S
C62 C63 1.363 1_655 S
C62 C67 1.379 1_545 S
C62 N69 1.356 . S
C63 C62 1.363 1_455 S
C63 C66 1.363 . S
N64 C66 1.356 . S
N64 H76 0.984 . S
N64 H77 0.985 . S
N65 C67 1.356 . S
N65 H70 0.984 . S
N65 H71 0.985 . S
C66 C60 1.379 1_545 S
C66 C63 1.363 . S
C66 N64 1.356 . S
C67 C61 1.363 1_655 S
C67 C62 1.379 1_565 S
C67 N65 1.356 . S
N68 C60 1.356 . S
N68 H74 0.984 . S
N68 H75 0.984 . S
N69 C62 1.356 . S
N69 H72 0.984 . S
N69 H73 0.985 . S
H70 N65 0.984 . S
H71 N65 0.985 . S
H72 N69 0.984 . S
H73 N69 0.985 . S
H74 N68 0.984 . S
H75 N68 0.984 . S
H76 N64 0.984 . S
H77 N64 0.985 . S
C78 C79 1.363 . S
C78 C84 1.379 . S
C78 N86 1.356 . S
C79 C78 1.363 . S
C79 C85 1.363 1_545 S
C80 C81 1.363 1_565 S
C80 C85 1.379 1_655 S
C80 N87 1.356 . S
C81 C80 1.363 1_545 S
C81 C84 1.363 1_655 S
N82 C84 1.356 1_655 S
N82 H94 0.984 1_655 S
N82 H95 0.985 . S
N83 C85 1.356 . S
N83 H88 0.984 . S
N83 H89 0.985 1_455 S
C84 C78 1.379 . S
C84 C81 1.363 1_455 S
C84 N82 1.356 1_455 S
C85 C79 1.363 1_565 S
C85 C80 1.379 1_455 S
C85 N83 1.356 . S
N86 C78 1.356 . S
N86 H92 0.984 . S
N86 H93 0.984 . S
N87 C80 1.356 . S
N87 H90 0.984 . S
N87 H91 0.985 . S
H88 N83 0.984 . S
H89 N83 0.985 1_655 S
H90 N87 0.984 . S
H91 N87 0.985 . S
H92 N86 0.984 . S
H93 N86 0.984 . S
H94 N82 0.984 1_455 S
H95 N82 0.985 . S
C96 C97 1.363 . S
C96 C102 1.379 1_665 S
C96 N104 1.356 . S
C97 C96 1.363 . S
C97 C103 1.363 . S
C98 C99 1.363 1_655 S
C98 C103 1.379 1_545 S
C98 N105 1.356 1_655 S
C99 C98 1.363 1_455 S
C99 C102 1.363 . S
N100 C102 1.356 . S
N100 H112 0.984 . S
N100 H113 0.985 . S
N101 C103 1.356 . S
N101 H106 0.984 . S
N101 H107 0.985 . S
C102 C96 1.379 1_445 S
C102 C99 1.363 . S
C102 N100 1.356 . S
C103 C97 1.363 . S
C103 C98 1.379 1_565 S
C103 N101 1.356 . S
N104 C96 1.356 . S
N104 H110 0.984 . S
N104 H111 0.984 . S
N105 C98 1.356 1_455 S
N105 H108 0.984 . S
N105 H109 0.985 . S
H106 N101 0.984 . S
H107 N101 0.985 . S
H108 N105 0.984 . S
H109 N105 0.985 . S
H110 N104 0.984 . S
H111 N104 0.984 . S
H112 N100 0.984 . S
H113 N100 0.985 . S
C114 C115 1.363 . S
C114 C120 1.379 1_556 S
C114 N122 1.356 . S
C115 C114 1.363 . S
C115 C121 1.363 . S
C116 C117 1.363 . S
C116 C121 1.379 1_554 S
C116 N123 1.356 . S
C117 C116 1.363 . S
C117 C120 1.363 . S
N118 C120 1.356 . S
N118 H130 0.984 . S
N118 H131 0.985 . S
N119 C121 1.356 . S
N119 H124 0.984 . S
N119 H125 0.982 1_455 S
C120 C114 1.379 1_554 S
C120 C117 1.363 . S
C120 N118 1.356 . S
C121 C115 1.363 . S
C121 C116 1.379 1_556 S
C121 N119 1.356 . S
N122 C114 1.356 . S
N122 H128 0.984 . S
N122 H129 0.984 . S
N123 C116 1.356 . S
N123 H126 0.984 . S
N123 H127 0.985 1_455 S
H124 N119 0.984 . S
H125 N119 0.982 1_655 S
H126 N123 0.984 . S
H127 N123 0.985 1_655 S
H128 N122 0.984 . S
H129 N122 0.984 . S
H130 N118 0.984 . S
H131 N118 0.985 . S
C132 C133 1.363 . S
C132 C138 1.379 . S
C132 N140 1.356 . S
C133 C132 1.363 . S
C133 C139 1.363 . S
C134 C135 1.363 . S
C134 C139 1.379 . S
C134 N141 1.356 . S
C135 C134 1.363 . S
C135 C138 1.363 . S
N136 C138 1.356 . S
N136 H148 0.984 . S
N136 H149 0.985 . S
N137 C139 1.356 . S
N137 H142 0.984 . S
N137 H143 0.985 . S
C138 C132 1.379 . S
C138 C135 1.363 . S
C138 N136 1.356 . S
C139 C133 1.363 . S
C139 C134 1.379 . S
C139 N137 1.356 . S
N140 C132 1.356 . S
N140 H146 0.984 . S
N140 H147 0.984 . S
N141 C134 1.356 . S
N141 H144 0.984 . S
N141 H145 0.985 . S
H142 N137 0.984 . S
H143 N137 0.985 . S
H144 N141 0.984 . S
H145 N141 0.985 . S
H146 N140 0.984 . S
H147 N140 0.984 . S
H148 N136 0.984 . S
H149 N136 0.985 . S
C150 C151 1.363 . S
C150 C156 1.379 . S
C150 N158 1.356 . S
C151 C150 1.363 . S
C151 C157 1.363 . S
C152 C153 1.363 . S
C152 C157 1.379 . S
C152 N159 1.356 . S
C153 C152 1.363 . S
C153 C156 1.363 . S
N154 C156 1.356 . S
N154 H166 0.984 1_565 S
N154 H167 0.985 . S
N155 C157 1.356 . S
N155 H160 0.984 . S
N155 H161 0.985 . S
C156 C150 1.379 . S
C156 C153 1.363 . S
C156 N154 1.356 . S
C157 C151 1.363 . S
C157 C152 1.379 . S
C157 N155 1.356 . S
N158 C150 1.356 . S
N158 H164 0.984 1_565 S
N158 H165 0.984 . S
N159 C152 1.356 . S
N159 H162 0.984 . S
N159 H163 0.985 . S
H160 N155 0.984 . S
H161 N155 0.985 . S
H162 N159 0.984 . S
H163 N159 0.985 . S
H164 N158 0.984 1_545 S
H165 N158 0.984 . S
H166 N154 0.984 1_545 S
H167 N154 0.985 . S
C168 C169 1.363 . S
C168 C174 1.379 1_556 S
C168 N176 1.356 . S
C169 C168 1.363 . S
C169 C175 1.363 . S
C170 C171 1.363 . S
C170 C175 1.379 1_554 S
C170 N177 1.356 . S
C171 C170 1.363 . S
C171 C174 1.363 . S
N172 C174 1.356 . S
N172 H184 0.984 . S
N172 H185 0.985 . S
N173 C175 1.356 . S
N173 H178 0.984 . S
N173 H179 0.985 . S
C174 C168 1.379 1_554 S
C174 C171 1.363 . S
C174 N172 1.356 . S
C175 C169 1.363 . S
C175 C170 1.379 1_556 S
C175 N173 1.356 . S
N176 C168 1.356 . S
N176 H182 0.984 . S
N176 H183 0.984 . S
N177 C170 1.356 . S
N177 H180 0.984 . S
N177 H181 0.985 . S
H178 N173 0.984 . S
H179 N173 0.985 . S
H180 N177 0.984 . S
H181 N177 0.985 . S
H182 N176 0.984 . S
H183 N176 0.984 . S
H184 N172 0.984 . S
H185 N172 0.985 . S
C186 C187 1.363 . S
C186 C192 1.379 . S
C186 N194 1.356 . S
C187 C186 1.363 . S
C187 C193 1.363 . S
C188 C189 1.363 . S
C188 C193 1.379 . S
C188 N195 1.356 . S
C189 C188 1.363 . S
C189 C192 1.363 . S
N190 C192 1.356 . S
N190 H202 0.984 . S
N190 H203 0.985 . S
N191 C193 1.356 . S
N191 H196 0.984 . S
N191 H197 0.985 . S
C192 C186 1.379 . S
C192 C189 1.363 . S
C192 N190 1.356 . S
C193 C187 1.363 . S
C193 C188 1.379 . S
C193 N191 1.356 . S
N194 C186 1.356 . S
N194 H200 0.984 . S
N194 H201 0.984 . S
N195 C188 1.356 . S
N195 H198 0.984 . S
N195 H199 0.985 . S
H196 N191 0.984 . S
H197 N191 0.985 . S
H198 N195 0.984 . S
H199 N195 0.985 . S
H200 N194 0.984 . S
H201 N194 0.984 . S
H202 N190 0.984 . S
H203 N190 0.985 . S
C204 C205 1.363 . S
C204 C210 1.379 . S
C204 N212 1.356 . S
C205 C204 1.363 . S
C205 C211 1.363 . S
C206 C207 1.363 . S
C206 C211 1.379 . S
C206 N213 1.356 . S
C207 C206 1.363 . S
C207 C210 1.363 . S
N208 C210 1.356 . S
N208 H220 0.984 . S
N208 H221 0.985 . S
N209 C211 1.356 . S
N209 H214 0.984 . S
N209 H215 0.985 . S
C210 C204 1.379 . S
C210 C207 1.363 . S
C210 N208 1.356 . S
C211 C205 1.363 . S
C211 C206 1.379 . S
C211 N209 1.356 . S
N212 C204 1.356 . S
N212 H218 0.984 . S
N212 H219 0.984 . S
N213 C206 1.356 . S
N213 H216 0.984 . S
N213 H217 0.985 . S
H214 N209 0.984 . S
H215 N209 0.985 . S
H216 N213 0.984 . S
H217 N213 0.985 . S
H218 N212 0.984 . S
H219 N212 0.984 . S
H220 N208 0.984 . S
H221 N208 0.985 . S
C61 C19 1.619 . S
C63 C18 1.619 . S
C79 C38 1.604 . S
C81 C39 1.604 . S
C97 C59 1.613 . S
C99 C58 1.613 . S
C115 C42 1.151 . S
C117 C4 1.220 . S
C133 C32 1.299 . S
C135 C2 1.217 . S
C151 C52 1.186 . S
C153 C29 1.184 . S
C169 C49 1.160 . S
C171 C12 1.186 . S
C187 C9 1.113 . S
C189 C24 1.134 . S
C205 C44 1.228 . S
C207 C22 1.134 . S
