# Generated by pormake.
# Topology pcu, (6)-cn, num edge types: 1
# Building blocks:
#     Node 0, Type 0, BuildingBlock: VOLQOD_clean_sbu_1, # of connection points: 6
#     Edge 1, Type (0, 0), BuildingBlock: UKIBUN_clean_linker_0, # of connection points: 2
#     Edge 2, Type (0, 0), BuildingBlock: UKIBUN_clean_linker_0, # of connection points: 2
#     Edge 3, Type (0, 0), BuildingBlock: UKIBUN_clean_linker_0, # of connection points: 2
# Relax obj value: 0.082
# Max RMSD: 0.143
# Mean RMSD: 0.143
data_MOF--net-pcu--node1-VOLQOD_clean_sbu_1--edge1-UKIBUN_clean_linker_0
_symmetry_space_group_name_H-M    P1
_symmetry_Int_Tables_number       1
_symmetry_cell_setting            triclinic
loop_
_symmetry_equiv_pos_as_xyz
'x, y, z'
_cell_length_a     26.719898
_cell_length_b     26.554633
_cell_length_c     26.732135
_cell_angle_alpha  90.187254
_cell_angle_beta   89.187955
_cell_angle_gamma 90.665074
loop_
_atom_site_label
_atom_site_type_symbol
_atom_site_fract_x
_atom_site_fract_y
_atom_site_fract_z
_atom_type_partial_charge
O0 O 0.02655 0.00591 0.10897 0.0
Zn1 Zn 0.03302 0.02685 0.03771 0.0
O2 O 0.98673 -0.00936 0.99551 0.0
Zn3 Zn 0.02391 0.94507 0.95223 0.0
Zn4 Zn 0.94103 0.95335 0.03948 0.0
Zn5 Zn 0.95019 0.03753 0.95436 0.0
O6 O 0.00764 0.95537 0.8799 0.0
O7 O 0.96825 0.0286 0.88146 0.0
O8 O 0.10376 0.01646 0.01577 0.0
O9 O 0.09824 0.95753 0.95677 0.0
O10 O 0.01128 0.87369 0.97323 0.0
O11 O 0.95669 0.87911 0.03648 0.0
O12 O 0.86974 0.96375 0.01853 0.0
O13 O 0.0194 0.10062 0.03661 0.0
O14 O 0.87612 0.02358 0.96072 0.0
O15 O 0.96451 0.10957 0.97543 0.0
C16 C -0.01147 -0.00984 0.13353 0.0
C17 C -0.01149 -0.00748 0.85734 0.0
C18 C 0.98512 0.85318 0.00795 0.0
C19 C 0.12387 0.9876 0.98351 0.0
C20 C 0.84976 -0.00702 0.98696 0.0
C21 C -0.008 0.128 0.00966 0.0
O22 O 0.94909 0.97438 0.11201 0.0
C23 C 0.02398 0.96062 0.2132 0.0
C24 C -0.00939 -0.00823 0.18813 0.0
C25 C 0.03009 0.9656 0.26478 0.0
C26 C 0.04946 0.98017 0.46751 0.0
C27 C 0.96866 0.03375 0.77582 0.0
C28 C -0.00767 -0.00492 0.80212 0.0
C29 C 0.97483 0.03784 0.72399 0.0
C30 C -0.00511 0.05236 0.52108 0.0
H31 H 0.04562 0.93286 0.19278 0.0
H32 H 0.05598 0.94126 0.2837 0.0
H33 H 0.07011 0.95162 0.44712 0.0
H34 H 0.94573 0.06114 0.79525 0.0
H35 H 0.95654 0.06804 0.70442 0.0
H36 H 0.97308 0.08002 0.54147 0.0
C37 C 0.96336 0.02796 0.21497 0.0
C38 C 0.96997 0.03338 0.2665 0.0
C39 C -0.00525 0.05247 0.46881 0.0
C40 C 0.02156 0.96012 0.77529 0.0
C41 C 0.02778 0.9644 0.72351 0.0
C42 C 0.0496 0.98006 0.51979 0.0
C43 C 0.00353 0.00236 0.29142 0.0
C44 C 0.01069 0.00809 0.34428 0.0
C45 C 0.01687 0.01269 0.38858 0.0
C46 C 0.02135 0.01586 0.44197 0.0
H47 H 0.93825 0.05296 0.19586 0.0
H48 H 0.94936 0.06206 0.28673 0.0
H49 H 0.97282 0.08019 0.44944 0.0
H50 H 0.04037 0.92994 0.79433 0.0
H51 H 0.05088 0.93745 0.7036 0.0
H52 H 0.07037 0.95145 0.53918 0.0
C53 C 0.00478 0.00348 0.69785 0.0
C54 C 0.0118 0.00827 0.6447 0.0
C55 C 0.01759 0.01241 0.60017 0.0
C56 C 0.02163 0.01564 0.54664 0.0
C57 C 0.20309 0.02009 0.94553 0.0
C58 C 0.17838 0.9877 0.97929 0.0
C59 C 0.25519 0.02532 0.94671 0.0
C60 C 0.46024 0.04724 0.95885 0.0
C61 C 0.76439 0.96336 0.01447 0.0
C62 C 0.79458 -0.00679 0.98249 0.0
C63 C 0.71234 0.96739 0.01392 0.0
C64 C 0.51186 0.98715 0.02627 0.0
H65 H 0.18202 0.04243 0.9195 0.0
H66 H 0.27387 0.05131 0.92124 0.0
H67 H 0.44059 0.07015 0.93218 0.0
H68 H 0.78091 0.93793 0.04101 0.0
H69 H 0.68983 0.94513 0.03986 0.0
H70 H 0.5315 0.96332 0.05214 0.0
C71 C 0.20603 0.95945 0.01312 0.0
C72 C 0.25804 0.96461 0.01423 0.0
C73 C 0.45956 0.98688 0.0268 0.0
C74 C 0.77138 0.02514 0.94805 0.0
C75 C 0.71926 0.02904 0.94753 0.0
C76 C 0.51254 0.04751 0.95831 0.0
C77 C 0.2826 -0.00174 0.98171 0.0
C78 C 0.3357 0.00596 0.98541 0.0
C79 C 0.38022 0.01173 0.98926 0.0
C80 C 0.43369 0.01616 0.9924 0.0
H81 H 0.18725 0.93458 0.0396 0.0
H82 H 0.27889 0.94333 0.0413 0.0
H83 H 0.43939 0.9628 0.05303 0.0
H84 H 0.79345 0.04809 0.92236 0.0
H85 H 0.70211 0.0548 0.92168 0.0
H86 H 0.5327 0.07066 0.93128 0.0
C87 C 0.68977 0.00106 0.9813 0.0
C88 C 0.63658 0.00817 0.98405 0.0
C89 C 0.59193 0.01308 0.98749 0.0
C90 C 0.53841 0.01668 0.99133 0.0
C91 C 0.02005 0.7694 0.98407 0.0
C92 C -0.00972 0.79849 0.01671 0.0
C93 C 0.02695 0.71826 0.993 0.0
C94 C 0.04705 0.51809 0.01152 0.0
C95 C 0.97483 0.20481 0.06029 0.0
C96 C -0.00528 0.1826 0.01677 0.0
C97 C 0.98018 0.2567 0.06812 0.0
C98 C -0.00345 0.46436 0.08714 0.0
H99 H 0.03824 0.78611 0.95157 0.0
H100 H 0.04987 0.69657 0.96723 0.0
H101 H 0.06605 0.53853 0.98165 0.0
H102 H 0.95523 0.18207 0.08806 0.0
H103 H 0.96428 0.27355 0.10164 0.0
H104 H 0.97628 0.44393 0.11618 0.0
C105 C 0.96757 0.77513 0.0586 0.0
C106 C 0.97461 0.72381 0.0675 0.0
C107 C -0.00343 0.51699 0.08767 0.0
C108 C 0.02038 0.21244 0.98147 0.0
C109 C 0.02629 0.26412 0.98961 0.0
C110 C 0.04704 0.46544 0.01099 0.0
C111 C 0.00431 0.69534 0.03466 0.0
C112 C 0.01046 0.64227 0.04241 0.0
C113 C 0.01678 0.59774 0.04719 0.0
C114 C 0.02121 0.54393 0.0495 0.0
H115 H 0.94473 0.79647 0.08469 0.0
H116 H 0.9568 0.70637 0.09985 0.0
H117 H 0.97627 0.53657 0.11708 0.0
H118 H 0.03669 0.19558 0.94816 0.0
H119 H 0.04663 0.28665 0.9622 0.0
H120 H 0.06607 0.44584 0.98075 0.0
C121 C 0.00617 0.28638 0.03287 0.0
C122 C 0.0117 0.33975 0.04042 0.0
C123 C 0.01716 0.38457 0.04531 0.0
C124 C 0.02118 0.4385 0.04843 0.0
loop_
_geom_bond_atom_site_label_1
_geom_bond_atom_site_label_2
_geom_bond_distance
_geom_bond_site_symmetry_2
_ccdc_geom_bond_type
O0 Zn1 1.953 . S
O0 C16 1.225 . S
Zn1 O0 1.953 . S
Zn1 O2 1.941 1_454 S
Zn1 O8 1.919 . S
Zn1 O13 1.924 . S
O2 Zn1 1.941 1_656 S
O2 Zn3 1.930 1_645 S
O2 Zn4 1.942 1_546 S
O2 Zn5 1.952 . S
Zn3 O2 1.930 1_465 S
Zn3 O6 1.933 . S
Zn3 O9 1.941 . S
Zn3 O10 1.965 . S
Zn4 O2 1.942 1_564 S
Zn4 O11 1.938 . S
Zn4 O12 1.906 . S
Zn4 O22 1.953 . S
Zn5 O2 1.952 . S
Zn5 O7 1.932 . S
Zn5 O14 1.977 . S
Zn5 O15 1.910 . S
O6 Zn3 1.933 . S
O6 C17 1.229 . S
O7 Zn5 1.932 . S
O7 C17 1.304 1_645 S
O8 Zn1 1.919 . S
O8 C19 1.253 1_544 S
O9 Zn3 1.941 . S
O9 C19 1.283 . S
O10 Zn3 1.965 . S
O10 C18 1.303 1_456 S
O11 Zn4 1.938 . S
O11 C18 1.247 . S
O12 Zn4 1.906 . S
O12 C20 1.304 1_564 S
O13 Zn1 1.924 . S
O13 C21 1.311 . S
O14 Zn5 1.977 . S
O14 C20 1.272 . S
O15 Zn5 1.910 . S
O15 C21 1.231 1_656 S
C16 O0 1.225 . S
C16 O22 1.298 1_445 S
C17 O6 1.229 . S
C17 O7 1.304 1_465 S
C18 O10 1.303 1_654 S
C18 O11 1.247 . S
C19 O8 1.253 1_566 S
C19 O9 1.283 . S
C20 O12 1.304 1_546 S
C20 O14 1.272 . S
C21 O13 1.311 . S
C21 O15 1.231 1_454 S
O22 Zn4 1.953 . S
O22 C16 1.298 1_665 S
C23 C24 1.420 1_565 S
C23 C25 1.385 . S
C23 H31 0.928 . S
C24 C23 1.420 1_545 S
C24 C37 1.420 1_455 S
C25 C23 1.385 . S
C25 H32 0.929 . S
C25 C43 1.407 1_565 S
C26 H33 0.928 . S
C26 C42 1.374 . S
C26 C46 1.388 1_565 S
C27 C28 1.420 1_655 S
C27 C29 1.385 . S
C27 H34 0.928 . S
C28 C27 1.420 1_455 S
C28 C40 1.420 1_545 S
C29 C27 1.385 . S
C29 H35 0.929 . S
C29 C53 1.407 1_655 S
C30 H36 0.928 1_455 S
C30 C39 1.374 . S
C30 C56 1.388 . S
H31 C23 0.928 . S
H32 C25 0.929 . S
H33 C26 0.928 . S
H34 C27 0.928 . S
H35 C29 0.929 . S
H36 C30 0.928 1_655 S
C37 C24 1.420 1_655 S
C37 C38 1.385 . S
C37 H47 0.928 . S
C38 C37 1.385 . S
C38 C43 1.407 1_655 S
C38 H48 0.929 . S
C39 C30 1.374 . S
C39 C46 1.388 . S
C39 H49 0.928 1_455 S
C40 C28 1.420 1_565 S
C40 C41 1.385 . S
C40 H50 0.928 . S
C41 C40 1.385 . S
C41 H51 0.929 . S
C41 C53 1.407 1_565 S
C42 C26 1.374 . S
C42 H52 0.928 . S
C42 C56 1.388 1_565 S
C43 C25 1.407 1_545 S
C43 C38 1.407 1_455 S
C43 C44 1.428 . S
C44 C43 1.428 . S
C44 C45 1.230 . S
C45 C44 1.230 . S
C45 C46 1.405 . S
C46 C26 1.388 1_545 S
C46 C39 1.388 . S
C46 C45 1.405 . S
H47 C37 0.928 . S
H48 C38 0.929 . S
H49 C39 0.928 1_655 S
H50 C40 0.928 . S
H51 C41 0.929 . S
H52 C42 0.928 . S
C53 C29 1.407 1_455 S
C53 C41 1.407 1_545 S
C53 C54 1.428 . S
C54 C53 1.428 . S
C54 C55 1.230 . S
C55 C54 1.230 . S
C55 C56 1.405 . S
C56 C30 1.388 . S
C56 C42 1.388 1_545 S
C56 C55 1.405 . S
C57 C58 1.420 1_545 S
C57 C59 1.385 . S
C57 H65 0.928 . S
C58 C57 1.420 1_565 S
C58 C71 1.420 1_556 S
C59 C57 1.385 . S
C59 H66 0.929 . S
C59 C77 1.407 . S
C60 H67 0.928 . S
C60 C76 1.374 . S
C60 C80 1.389 1_556 S
C61 C62 1.420 1_554 S
C61 C63 1.385 . S
C61 H68 0.928 . S
C62 C61 1.420 1_556 S
C62 C74 1.420 1_565 S
C63 C61 1.385 . S
C63 H69 0.929 . S
C63 C87 1.407 1_564 S
C64 H70 0.921 1_545 S
C64 C73 1.374 . S
C64 C90 1.394 1_554 S
H65 C57 0.928 . S
H66 C59 0.929 . S
H67 C60 0.928 . S
H68 C61 0.928 . S
H69 C63 0.929 . S
H70 C64 0.921 1_565 S
C71 C58 1.420 1_554 S
C71 C72 1.385 . S
C71 H81 0.928 . S
C72 C71 1.385 . S
C72 C77 1.407 1_564 S
C72 H82 0.929 . S
C73 C64 1.374 . S
C73 C80 1.393 . S
C73 H83 0.921 1_545 S
C74 C62 1.420 1_545 S
C74 C75 1.385 . S
C74 H84 0.928 . S
C75 C74 1.385 . S
C75 H85 0.929 . S
C75 C87 1.407 . S
C76 C60 1.374 . S
C76 H86 0.928 . S
C76 C90 1.388 . S
C77 C59 1.407 . S
C77 C72 1.407 1_546 S
C77 C78 1.428 . S
C78 C77 1.428 . S
C78 C79 1.230 . S
C79 C78 1.230 . S
C79 C80 1.405 1_556 S
C80 C60 1.389 1_554 S
C80 C73 1.393 . S
C80 C79 1.405 1_554 S
H81 C71 0.928 . S
H82 C72 0.929 . S
H83 C73 0.921 1_565 S
H84 C74 0.928 . S
H85 C75 0.929 . S
H86 C76 0.928 . S
C87 C63 1.407 1_546 S
C87 C75 1.407 . S
C87 C88 1.428 . S
C88 C87 1.428 . S
C88 C89 1.230 . S
C89 C88 1.230 . S
C89 C90 1.405 . S
C90 C64 1.394 1_556 S
C90 C76 1.388 . S
C90 C89 1.405 . S
C91 C92 1.420 1_556 S
C91 C93 1.385 . S
C91 H99 0.928 . S
C92 C91 1.420 1_554 S
C92 C105 1.420 1_455 S
C93 C91 1.385 . S
C93 H100 0.929 . S
C93 C111 1.407 1_556 S
C94 H101 0.928 1_554 S
C94 C110 1.374 . S
C94 C114 1.388 . S
C95 C96 1.420 1_655 S
C95 C97 1.385 . S
C95 H102 0.928 . S
C96 C95 1.420 1_455 S
C96 C108 1.420 1_554 S
C97 C95 1.385 . S
C97 H103 0.929 . S
C97 C121 1.407 1_655 S
C98 H104 0.928 1_455 S
C98 C107 1.374 . S
C98 C124 1.388 . S
H99 C91 0.928 . S
H100 C93 0.929 . S
H101 C94 0.928 1_556 S
H102 C95 0.928 . S
H103 C97 0.929 . S
H104 C98 0.928 1_655 S
C105 C92 1.420 1_655 S
C105 C106 1.385 . S
C105 H115 0.928 . S
C106 C105 1.385 . S
C106 C111 1.407 1_655 S
C106 H116 0.929 . S
C107 C98 1.374 . S
C107 C114 1.388 . S
C107 H117 0.928 1_455 S
C108 C96 1.420 1_556 S
C108 C109 1.385 . S
C108 H118 0.928 . S
C109 C108 1.385 . S
C109 H119 0.929 . S
C109 C121 1.407 1_556 S
C110 C94 1.374 . S
C110 H120 0.928 1_554 S
C110 C124 1.388 . S
C111 C93 1.407 1_554 S
C111 C106 1.407 1_455 S
C111 C112 1.428 . S
C112 C111 1.428 . S
C112 C113 1.230 . S
C113 C112 1.230 . S
C113 C114 1.405 . S
C114 C94 1.388 . S
C114 C107 1.388 . S
C114 C113 1.405 . S
H115 C105 0.928 . S
H116 C106 0.929 . S
H117 C107 0.928 1_655 S
H118 C108 0.928 . S
H119 C109 0.929 . S
H120 C110 0.928 1_556 S
C121 C97 1.407 1_455 S
C121 C109 1.407 1_554 S
C121 C122 1.428 . S
C122 C121 1.428 . S
C122 C123 1.230 . S
C123 C122 1.230 . S
C123 C124 1.405 . S
C124 C98 1.388 . S
C124 C110 1.388 . S
C124 C123 1.405 . S
C24 C16 1.497 . S
C28 C17 1.500 1_545 S
C58 C19 1.387 . S
C62 C20 1.391 1_565 S
C92 C18 1.398 1_455 S
C96 C21 1.395 . S
