# Generated by pormake.
# Topology pcu, (6)-cn, num edge types: 1
# Building blocks:
#     Node 0, Type 0, BuildingBlock: BETFAJ_clean_sbu_0, # of connection points: 6
#     Edge 1, Type (0, 0), BuildingBlock: TEMPAE_clean_linker_10, # of connection points: 2
#     Edge 2, Type (0, 0), BuildingBlock: TEMPAE_clean_linker_10, # of connection points: 2
#     Edge 3, Type (0, 0), BuildingBlock: TEMPAE_clean_linker_10, # of connection points: 2
# Relax obj value: 0.000
# Max RMSD: 0.000
# Mean RMSD: 0.000
data_MOF--net-pcu--node1-BETFAJ_clean_sbu_0--edge1-TEMPAE_clean_linker_10
_symmetry_space_group_name_H-M    P1
_symmetry_Int_Tables_number       1
_symmetry_cell_setting            triclinic
loop_
_symmetry_equiv_pos_as_xyz
'x, y, z'
_cell_length_a     25.754787
_cell_length_b     15.699793
_cell_length_c     14.791433
_cell_angle_alpha  87.662296
_cell_angle_beta   94.888187
_cell_angle_gamma 124.58408
loop_
_atom_site_label
_atom_site_type_symbol
_atom_site_fract_x
_atom_site_fract_y
_atom_site_fract_z
_atom_type_partial_charge
Sm0 Sm 0.95699 0.91461 0.01029 0.0
Sm1 Sm 0.09916 0.04435 0.99508 0.0
C2 C 0.84029 0.84108 0.05258 0.0
C3 C 0.79324 0.8678 0.04224 0.0
C4 C 0.80611 0.96041 0.07745 0.0
C5 C 0.75974 0.98145 0.0697 0.0
C6 C 0.69942 0.91058 0.02641 0.0
C7 C 0.68722 0.81879 0.99014 0.0
C8 C 0.73342 0.79763 0.99827 0.0
C9 C 0.99085 0.9368 0.83491 0.0
C10 C 0.03606 0.16795 0.99433 0.0
C11 C 0.21768 0.12162 0.9597 0.0
C12 C 0.26416 0.09358 0.96973 0.0
C13 C 0.25349 0.0069 0.92503 0.0
C14 C 0.29943 -0.01504 0.93223 0.0
C15 C 0.35697 0.04874 0.98464 0.0
C16 C 0.3671 0.13448 0.03023 0.0
C17 C 0.32139 0.15679 0.02253 0.0
C18 C 0.06265 0.02227 0.16862 0.0
C19 C 1.0209 0.7904 0.0119 0.0
O20 O 0.89065 0.89752 0.10801 0.0
O21 O 0.85257 0.81434 0.979 0.0
O22 O 1.01823 0.00796 0.89424 0.0
O23 O 0.94119 0.85441 0.86485 0.0
O24 O 0.98822 0.08276 0.02815 0.0
O25 O 0.08222 0.17007 0.95957 0.0
O26 O 0.16911 0.06945 0.90053 0.0
O27 O 0.20287 0.143 0.03389 0.0
O28 O 0.03817 0.95039 0.11034 0.0
O29 O 0.10884 0.10857 0.1371 0.0
O30 O 0.07091 0.87733 0.98415 0.0
O31 O 0.97165 0.78536 0.03852 0.0
H32 H 0.85176 0.01628 0.11178 0.0
H33 H 0.77083 0.05241 0.09935 0.0
H34 H 0.64193 0.76315 0.95488 0.0
H35 H 0.7222 0.72576 0.9704 0.0
H36 H 0.20985 0.95625 0.88395 0.0
H37 H 0.28974 0.91763 0.8971 0.0
H38 H 0.41107 0.18586 0.07037 0.0
H39 H 0.33113 0.22443 0.05722 0.0
C40 C 1.01976 0.91133 0.30536 0.0
C41 C 0.0474 0.00831 0.26433 0.0
C42 C 1.0098 0.89964 0.39835 0.0
C43 C 0.02613 -0.01355 0.45059 0.0
C44 C 0.05192 0.08373 0.40834 0.0
C45 C 0.06309 0.09376 0.31599 0.0
C46 C 0.98346 0.79513 0.4412 0.0
C47 C 0.06819 0.17744 0.46081 0.0
C48 C 0.95081 0.9323 0.67486 0.0
C49 C 1.00091 0.95415 0.7375 0.0
C50 C 0.95872 0.94472 0.58133 0.0
C51 C 1.01749 0.97608 0.54979 0.0
C52 C 0.06805 -0.00273 0.61317 0.0
C53 C 0.05934 -0.01254 0.70648 0.0
C54 C 0.90429 0.92452 0.51637 0.0
C55 C 0.1309 0.02814 0.58237 0.0
H56 H 1.00791 0.84533 0.26543 0.0
H57 H 0.08398 0.16865 0.28396 0.0
H58 H 1.01767 0.80114 0.49597 0.0
H59 H 0.93917 0.76868 0.47284 0.0
H60 H 0.97333 0.73557 0.39129 0.0
H61 H 0.08392 0.24566 0.4166 0.0
H62 H 0.02652 0.15983 0.4952 0.0
H63 H 0.10649 0.1981 0.51435 0.0
H64 H 0.90557 0.90651 0.69925 0.0
H65 H 0.09752 0.00228 0.75494 0.0
H66 H 0.88952 0.8595 0.46996 0.0
H67 H 0.91939 -0.00641 0.47376 0.0
H68 H 0.86272 0.90532 0.55214 0.0
H69 H 0.12382 0.96762 0.53645 0.0
H70 H 0.16486 0.03958 0.64016 0.0
H71 H 0.15223 0.10094 0.54328 0.0
C72 C 0.43962 0.03502 0.07419 0.0
C73 C 0.4067 0.02709 0.99075 0.0
C74 C 0.48721 0.01639 0.0807 0.0
C75 C 0.50282 -0.01023 1.00179 0.0
C76 C 0.46978 0.98166 0.91735 0.0
C77 C 0.42209 1e-05 0.91291 0.0
C78 C 0.52073 0.02495 0.17221 0.0
C79 C 0.48507 0.95412 0.83147 0.0
C80 C 0.66421 0.03148 1.00359 0.0
C81 C 0.64912 0.9313 0.01999 0.0
C82 C 0.61724 0.05161 0.99754 0.0
C83 C 0.55334 0.96967 0.00776 0.0
C84 C 0.53774 0.86844 0.02414 0.0
C85 C 0.58565 0.8506 0.03032 0.0
C86 C 0.63602 0.16069 0.97996 0.0
C87 C 0.47032 0.77879 0.03553 0.0
H88 H 0.42761 0.0547 0.13485 0.0
H89 H 0.39753 -0.00503 0.84797 0.0
H90 H 0.51424 0.9502 0.18955 0.0
H91 H 0.57227 0.08404 0.17 0.0
H92 H 0.50311 0.0463 0.22706 0.0
H93 H 0.45525 0.95116 0.77116 0.0
H94 H 0.53549 0.0118 0.81918 0.0
H95 H 0.4781 0.87772 0.83881 0.0
H96 H 0.71277 0.09428 0.99423 0.0
H97 H 0.57334 0.77323 0.04456 0.0
H98 H 0.62223 0.1873 0.03585 0.0
H99 H 0.61054 0.16276 0.91645 0.0
H100 H 0.68768 0.21591 0.97392 0.0
H101 H 0.45218 0.79388 0.09391 0.0
H102 H 0.4658 0.70453 0.04691 0.0
H103 H 0.43965 0.77035 0.9743 0.0
C104 C 0.96751 0.60106 0.99028 0.0
C105 C 1.02211 0.69813 0.01461 0.0
C106 C 0.97007 0.5145 0.98547 0.0
C107 C 0.02817 0.52556 0.00852 0.0
C108 C 0.08294 0.62311 0.03586 0.0
C109 C 0.07944 0.70871 0.03711 0.0
C110 C 0.91114 0.41195 0.95383 0.0
C111 C 0.14515 0.63705 0.06398 0.0
C112 C 1.01834 0.28233 0.07593 0.0
C113 C 0.03737 0.26213 0.99837 0.0
C114 C 1.01637 0.36918 0.08082 0.0
C115 C 0.03166 0.43491 1.00494 0.0
C116 C 0.05069 0.41447 0.92612 0.0
C117 C 0.05443 0.32884 0.92441 0.0
C118 C 0.99809 0.39062 0.16715 0.0
C119 C 0.06572 0.48165 0.84316 0.0
H120 H 0.92344 0.59368 0.97195 0.0
H121 H 0.12156 0.78409 0.05647 0.0
H122 H 0.92022 0.38392 0.89339 0.0
H123 H 0.89817 0.35315 0.00751 0.0
H124 H 0.87024 0.41718 0.93611 0.0
H125 H 0.18262 0.71749 0.08667 0.0
H126 H 0.13886 0.58356 0.12008 0.0
H127 H 0.16163 0.61745 1.00647 0.0
H128 H 1.00561 0.23053 0.13329 0.0
H129 H 0.06849 0.31196 0.86426 0.0
H130 H 0.95383 0.3869 0.15354 0.0
H131 H 0.03544 0.46989 0.19245 0.0
H132 H 0.99078 0.3346 0.22146 0.0
H133 H 1.02444 0.48391 0.81951 0.0
H134 H 0.07803 0.45336 0.78655 0.0
H135 H 0.10588 0.56221 0.86021 0.0
loop_
_geom_bond_atom_site_label_1
_geom_bond_atom_site_label_2
_geom_bond_distance
_geom_bond_site_symmetry_2
_ccdc_geom_bond_type
Sm0 C2 2.846 . S
Sm0 O20 2.543 1_556 S
Sm0 O21 2.450 . S
Sm0 O22 2.681 1_665 S
Sm0 O23 2.464 . S
Sm0 O24 2.396 1_565 S
Sm0 O28 2.386 1_566 S
Sm0 O31 2.408 . S
Sm1 C11 2.846 . S
Sm1 O22 2.386 1_554 S
Sm1 O25 2.408 . S
Sm1 O26 2.543 1_554 S
Sm1 O27 2.450 . S
Sm1 O28 2.681 1_455 S
Sm1 O29 2.464 . S
Sm1 O30 2.396 1_545 S
C2 Sm0 2.846 . S
C2 C3 1.506 . S
C2 O20 1.261 1_556 S
C2 O21 1.242 . S
C3 C2 1.506 . S
C3 C4 1.358 1_566 S
C3 C8 1.382 . S
C4 C3 1.358 1_544 S
C4 C5 1.385 . S
C4 H32 0.930 . S
C5 C4 1.385 . S
C5 C6 1.395 1_544 S
C5 H33 0.929 . S
C6 C5 1.395 1_566 S
C6 C7 1.335 . S
C7 C6 1.335 . S
C7 C8 1.398 . S
C7 H34 0.930 . S
C8 C3 1.382 . S
C8 C7 1.398 . S
C8 H35 0.929 . S
C9 O22 1.271 1_665 S
C9 O23 1.251 . S
C10 O24 1.252 1_455 S
C10 O25 1.272 1_556 S
C11 Sm1 2.846 . S
C11 C12 1.506 . S
C11 O26 1.261 1_554 S
C11 O27 1.242 . S
C12 C11 1.506 . S
C12 C13 1.358 1_544 S
C12 C17 1.382 . S
C13 C12 1.358 1_566 S
C13 C14 1.385 . S
C13 H36 0.930 . S
C14 C13 1.385 . S
C14 C15 1.395 1_566 S
C14 H37 0.929 . S
C15 C14 1.395 1_544 S
C15 C16 1.335 . S
C16 C15 1.335 . S
C16 C17 1.398 . S
C16 H38 0.930 . S
C17 C12 1.382 . S
C17 C16 1.398 . S
C17 H39 0.929 . S
C18 O28 1.271 1_455 S
C18 O29 1.251 . S
C19 O30 1.252 1_655 S
C19 O31 1.272 1_554 S
O20 Sm0 2.543 1_554 S
O20 C2 1.261 1_554 S
O21 Sm0 2.450 . S
O21 C2 1.242 . S
O22 Sm0 2.681 1_445 S
O22 Sm1 2.386 1_556 S
O22 C9 1.271 1_445 S
O23 Sm0 2.464 . S
O23 C9 1.251 . S
O24 Sm0 2.396 1_545 S
O24 C10 1.252 1_655 S
O25 Sm1 2.408 . S
O25 C10 1.272 1_554 S
O26 Sm1 2.543 1_556 S
O26 C11 1.261 1_556 S
O27 Sm1 2.450 . S
O27 C11 1.242 . S
O28 Sm0 2.386 1_544 S
O28 Sm1 2.681 1_655 S
O28 C18 1.271 1_655 S
O29 Sm1 2.464 . S
O29 C18 1.251 . S
O30 Sm1 2.396 1_565 S
O30 C19 1.252 1_455 S
O31 Sm0 2.408 . S
O31 C19 1.272 1_556 S
H32 C4 0.930 . S
H33 C5 0.929 . S
H34 C7 0.930 . S
H35 C8 0.929 . S
H36 C13 0.930 . S
H37 C14 0.929 . S
H38 C16 0.930 . S
H39 C17 0.929 . S
C40 C41 1.397 1_655 S
C40 C42 1.394 . S
C40 H56 0.931 . S
C41 C40 1.397 1_455 S
C41 C45 1.370 1_565 S
C42 C40 1.394 . S
C42 C43 1.369 1_655 S
C42 C46 1.531 . S
C43 C42 1.369 1_455 S
C43 C44 1.410 1_565 S
C43 C51 1.503 . S
C44 C43 1.410 1_545 S
C44 C45 1.392 . S
C44 C47 1.511 . S
C45 C41 1.370 1_545 S
C45 C44 1.392 . S
C45 H57 0.929 . S
C46 C42 1.531 . S
C46 H58 0.960 . S
C46 H59 0.962 . S
C46 H60 0.960 . S
C47 C44 1.511 . S
C47 H61 0.961 . S
C47 H62 0.961 . S
C47 H63 0.961 . S
C48 C49 1.372 1_655 S
C48 C50 1.363 . S
C48 H64 0.931 . S
C49 C48 1.372 1_455 S
C49 C53 1.405 1_545 S
C50 C48 1.363 . S
C50 C51 1.370 1_645 S
C50 C54 1.524 . S
C51 C43 1.503 . S
C51 C50 1.370 1_465 S
C51 C52 1.403 . S
C52 C51 1.403 . S
C52 C53 1.404 . S
C52 C55 1.539 . S
C53 C49 1.405 1_565 S
C53 C52 1.404 . S
C53 H65 0.930 . S
C54 C50 1.524 . S
C54 H66 0.956 1_545 S
C54 H67 0.961 . S
C54 H68 0.961 . S
C55 C52 1.539 . S
C55 H69 0.958 . S
C55 H70 0.961 1_565 S
C55 H71 0.960 1_565 S
H56 C40 0.931 . S
H57 C45 0.929 . S
H58 C46 0.960 . S
H59 C46 0.962 . S
H60 C46 0.960 . S
H61 C47 0.961 . S
H62 C47 0.961 . S
H63 C47 0.961 . S
H64 C48 0.931 . S
H65 C53 0.930 . S
H66 C54 0.956 1_565 S
H67 C54 0.961 . S
H68 C54 0.961 . S
H69 C55 0.958 . S
H70 C55 0.961 1_545 S
H71 C55 0.960 1_545 S
C72 C73 1.402 . S
C72 C74 1.394 . S
C72 H88 0.931 1_565 S
C73 C72 1.402 . S
C73 C77 1.364 1_554 S
C74 C72 1.394 . S
C74 C75 1.369 . S
C74 C78 1.531 . S
C75 C74 1.369 . S
C75 C76 1.410 1_554 S
C75 C83 1.503 . S
C76 C75 1.410 1_556 S
C76 C77 1.392 . S
C76 C79 1.511 . S
C77 C73 1.364 1_556 S
C77 C76 1.392 . S
C77 H89 0.929 . S
C78 C74 1.531 . S
C78 H90 0.960 . S
C78 H91 0.962 1_565 S
C78 H92 0.960 . S
C79 C76 1.511 . S
C79 H93 0.961 . S
C79 H94 0.961 . S
C79 H95 0.961 . S
C80 C81 1.370 1_545 S
C80 C82 1.363 . S
C80 H96 0.931 . S
C81 C80 1.370 1_565 S
C81 C85 1.408 1_556 S
C82 C80 1.363 . S
C82 C83 1.370 1_546 S
C82 C86 1.524 . S
C83 C75 1.503 . S
C83 C82 1.370 1_564 S
C83 C84 1.403 . S
C84 C83 1.403 . S
C84 C85 1.404 . S
C84 C87 1.539 . S
C85 C81 1.408 1_554 S
C85 C84 1.404 . S
C85 H97 0.930 . S
C86 C82 1.524 . S
C86 H98 0.956 1_556 S
C86 H99 0.961 . S
C86 H100 0.961 . S
C87 C84 1.539 . S
C87 H101 0.958 . S
C87 H102 0.961 1_554 S
C87 H103 0.960 1_554 S
H88 C72 0.931 1_545 S
H89 C77 0.929 . S
H90 C78 0.960 . S
H91 C78 0.962 1_545 S
H92 C78 0.960 . S
H93 C79 0.961 . S
H94 C79 0.961 . S
H95 C79 0.961 . S
H96 C80 0.931 . S
H97 C85 0.930 . S
H98 C86 0.956 1_554 S
H99 C86 0.961 . S
H100 C86 0.961 . S
H101 C87 0.958 . S
H102 C87 0.961 1_556 S
H103 C87 0.960 1_556 S
C104 C105 1.391 1_655 S
C104 C106 1.394 . S
C104 H120 0.931 . S
C105 C104 1.391 1_455 S
C105 C109 1.376 1_556 S
C106 C104 1.394 . S
C106 C107 1.369 1_655 S
C106 C110 1.531 . S
C107 C106 1.369 1_455 S
C107 C108 1.410 1_556 S
C107 C115 1.503 . S
C108 C107 1.410 1_554 S
C108 C109 1.392 . S
C108 C111 1.511 . S
C109 C105 1.376 1_554 S
C109 C108 1.392 . S
C109 H121 0.929 . S
C110 C106 1.531 . S
C110 H122 0.960 . S
C110 H123 0.962 . S
C110 H124 0.960 . S
C111 C108 1.511 . S
C111 H125 0.961 . S
C111 H126 0.961 . S
C111 H127 0.961 . S
C112 C113 1.370 1_654 S
C112 C114 1.363 . S
C112 H128 0.931 . S
C113 C112 1.370 1_456 S
C113 C117 1.408 . S
C114 C112 1.363 . S
C114 C115 1.370 1_654 S
C114 C118 1.524 . S
C115 C107 1.503 . S
C115 C114 1.370 1_456 S
C115 C116 1.403 . S
C116 C115 1.403 . S
C116 C117 1.404 . S
C116 C119 1.539 . S
C117 C113 1.408 . S
C117 C116 1.404 . S
C117 H129 0.930 . S
C118 C114 1.524 . S
C118 H130 0.956 . S
C118 H131 0.961 . S
C118 H132 0.961 . S
C119 C116 1.539 . S
C119 H133 0.958 . S
C119 H134 0.961 . S
C119 H135 0.960 . S
H120 C104 0.931 . S
H121 C109 0.929 . S
H122 C110 0.960 . S
H123 C110 0.962 . S
H124 C110 0.960 . S
H125 C111 0.961 . S
H126 C111 0.961 . S
H127 C111 0.961 . S
H128 C112 0.931 . S
H129 C117 0.930 . S
H130 C118 0.956 . S
H131 C118 0.961 . S
H132 C118 0.961 . S
H133 C119 0.958 . S
H134 C119 0.961 . S
H135 C119 0.960 . S
C41 C18 1.427 1_565 S
C49 C9 1.464 1_445 S
C73 C15 1.499 1_565 S
C81 C6 1.497 . S
C105 C19 1.499 1_456 S
C113 C10 1.483 . S
