# Generated by pormake.
# Topology bnn, (5)-cn, num edge types: 1
# Building blocks:
#     Node 0, Type 0, BuildingBlock: BEQFEK_clean_sbu_0, # of connection points: 5
#     Node 1, Type 0, BuildingBlock: BEQFEK_clean_sbu_0, # of connection points: 5
#     Edge 2, Type (0, 0), BuildingBlock: FUNLAD_clean_linker_1, # of connection points: 2
#     Edge 3, Type (0, 0), BuildingBlock: FUNLAD_clean_linker_1, # of connection points: 2
#     Edge 4, Type (0, 0), BuildingBlock: FUNLAD_clean_linker_1, # of connection points: 2
#     Edge 5, Type (0, 0), BuildingBlock: FUNLAD_clean_linker_1, # of connection points: 2
#     Edge 6, Type (0, 0), BuildingBlock: FUNLAD_clean_linker_1, # of connection points: 2
# Relax obj value: 0.104
# Max RMSD: 0.191
# Mean RMSD: 0.179
data_MOF--net-bnn--node1-BEQFEK_clean_sbu_0--edge1-FUNLAD_clean_linker_1
_symmetry_space_group_name_H-M    P1
_symmetry_Int_Tables_number       1
_symmetry_cell_setting            triclinic
loop_
_symmetry_equiv_pos_as_xyz
'x, y, z'
_cell_length_a     26.21574
_cell_length_b     27.619928
_cell_length_c     20.124943
_cell_angle_alpha  90.043506
_cell_angle_beta   86.624005
_cell_angle_gamma 111.12295
loop_
_atom_site_label
_atom_site_type_symbol
_atom_site_fract_x
_atom_site_fract_y
_atom_site_fract_z
_atom_type_partial_charge
Co0 Co 0.35466 0.69385 0.10398 0.0
Co1 Co 0.35906 0.68353 0.94862 0.0
C2 C 0.40967 0.78646 0.01518 0.0
O3 O 0.39466 0.76693 0.07368 0.0
O4 O 0.39895 0.75857 0.96374 0.0
C5 C 0.33831 0.72623 0.23954 0.0
O6 O 0.34476 0.77195 0.21389 0.0
C7 C 0.34442 0.7068 0.81015 0.0
C8 C 0.34872 0.63776 0.75839 0.0
C9 C 0.3428 0.68504 0.7479 0.0
N10 N 0.35107 0.67407 0.85534 0.0
N11 N 0.35351 0.63281 0.82405 0.0
C12 C 0.33956 0.75783 0.82668 0.0
H13 H 0.32503 0.75781 0.87959 0.0
H14 H 0.31087 0.76617 0.79412 0.0
H15 H 0.38041 0.78904 0.81841 0.0
C16 C 0.23547 0.64435 0.08608 0.0
N17 N 0.28791 0.66466 0.06151 0.0
N18 N 0.2895 0.65971 0.99644 0.0
C19 C 0.23806 0.63574 0.97754 0.0
C20 C 0.20211 0.62479 0.03394 0.0
C21 C 0.2183 0.64123 0.15869 0.0
H22 H 0.2399 0.62015 0.18575 0.0
H23 H 0.23059 0.68105 0.17846 0.0
H24 H 0.17345 0.62113 0.16812 0.0
O25 O 0.401 0.65173 0.08608 0.0
O26 O 0.40282 0.64238 0.97646 0.0
H27 H 0.24177 0.59806 0.88549 0.0
H28 H 0.17914 0.61088 0.9012 0.0
C29 C 0.22392 0.62601 0.90653 0.0
H30 H 0.24205 0.66284 0.87733 0.0
H31 H 0.35888 0.60142 0.84749 0.0
O32 O 0.3404 0.69001 0.20191 0.0
C33 C 0.41624 0.63355 0.03373 0.0
Co34 Co 0.69273 0.33626 0.07639 0.0
Co35 Co 0.69559 0.32332 0.92117 0.0
C36 C 0.63689 0.38694 0.98998 0.0
O37 O 0.64891 0.37729 0.04777 0.0
O38 O 0.65245 0.36872 0.93777 0.0
C39 C 0.65153 0.33224 0.21531 0.0
O40 O 0.60632 0.33419 0.19263 0.0
C41 C 0.65638 0.30434 0.78592 0.0
C42 C 0.72756 0.29562 0.73024 0.0
C43 C 0.67621 0.29779 0.72246 0.0
N44 N 0.69447 0.30664 0.82901 0.0
N45 N 0.7367 0.30088 0.79542 0.0
C46 C 0.60325 0.31076 0.80506 0.0
H47 H 0.59017 0.29804 0.85763 0.0
H48 H 0.57095 0.28807 0.77213 0.0
H49 H 0.60876 0.35238 0.79983 0.0
C50 C 0.64478 0.22102 0.07141 0.0
N51 N 0.66619 0.26825 0.04137 0.0
N52 N 0.66678 0.26263 0.9764 0.0
C53 C 0.64538 0.21163 0.963 0.0
C54 C 0.6302 0.18355 0.02296 0.0
C55 C 0.63666 0.21229 0.14528 0.0
H56 H 0.67595 0.23248 0.1684 0.0
H57 H 0.60651 0.22918 0.1651 0.0
H58 H 0.62145 0.17047 0.15938 0.0
O59 O 0.7708 0.37327 0.04728 0.0
O60 O 0.77335 0.36258 0.93798 0.0
H61 H 0.68338 0.20968 0.86655 0.0
H62 H 0.63357 0.14813 0.89464 0.0
C63 C 0.64322 0.19063 0.89419 0.0
H64 H 0.61183 0.19976 0.86748 0.0
H65 H 0.77241 0.30202 0.81675 0.0
O66 O 0.69076 0.33257 0.17496 0.0
C67 C 0.79716 0.38043 0.99076 0.0
H68 H 0.46105 0.59535 0.09061 0.0
C69 C 0.44901 0.60049 0.04108 0.0
H70 H 0.45215 0.5807 0.93979 0.0
H71 H 0.66393 0.52328 0.96869 0.0
H72 H 0.70217 0.60321 0.90318 0.0
H73 H 0.64615 0.6558 0.88088 0.0
H74 H 0.55158 0.62887 0.92441 0.0
C75 C 0.4627 0.57535 0.98997 0.0
C76 C 0.49501 0.54161 1.0001 0.0
C77 C 0.54979 0.55724 0.97294 0.0
C78 C 0.58177 0.52638 0.98475 0.0
C79 C 0.63716 0.54422 0.95952 0.0
C80 C 0.65982 0.59031 0.92224 0.0
C81 C 0.6283 0.61996 0.90977 0.0
C82 C 0.57402 0.60397 0.93496 0.0
H83 H 0.59354 0.42606 0.93212 0.0
C84 C 0.60489 0.42062 0.98192 0.0
H85 H 0.60053 0.43983 0.08327 0.0
H86 H 0.3895 0.49764 0.05381 0.0
H87 H 0.35118 0.41764 0.11919 0.0
H88 H 0.40715 0.36496 0.14136 0.0
H89 H 0.5017 0.39186 0.09787 0.0
C90 C 0.59073 0.4456 0.03286 0.0
C91 C 0.55839 0.47926 0.02239 0.0
C92 C 0.50358 0.4636 0.04947 0.0
C93 C 0.47162 0.49446 0.03769 0.0
C94 C 0.41623 0.47665 0.06293 0.0
C95 C 0.39354 0.43053 0.10013 0.0
C96 C 0.42502 0.40083 0.11253 0.0
C97 C 0.47931 0.41682 0.08737 0.0
H98 H 0.87833 0.41416 0.93687 0.0
C99 C 0.85648 0.411 0.98526 0.0
H100 H 0.86269 0.43266 0.08609 0.0
H101 H 0.11728 0.48294 0.08889 0.0
H102 H 0.08124 0.40575 0.16021 0.0
H103 H 0.98191 0.35557 0.17241 0.0
H104 H 0.91796 0.3823 0.11362 0.0
C105 C 0.88362 0.43618 0.03709 0.0
C106 C 0.94342 0.4672 0.0302 0.0
C107 C 0.98021 0.45086 0.06477 0.0
C108 C 0.03752 0.47947 0.05726 0.0
C109 C 0.07337 0.46241 0.09247 0.0
C110 C 0.05325 0.4182 0.13361 0.0
C111 C 0.99731 0.38998 0.14053 0.0
C112 C 0.96104 0.40584 0.10655 0.0
H113 H 0.11748 0.61144 0.07368 0.0
C114 C 0.14205 0.59728 0.0391 0.0
H115 H 0.14241 0.53616 0.97623 0.0
H116 H 0.88388 0.51354 0.96402 0.0
H117 H 0.92015 0.59036 0.8924 0.0
H118 H 0.01985 0.63742 0.87519 0.0
H119 H 0.08377 0.60828 0.93033 0.0
C120 C 0.11792 0.55331 0.0065 0.0
C121 C 0.05791 0.52439 0.01536 0.0
C122 C 0.02117 0.54126 0.98155 0.0
C123 C 0.96378 0.51309 0.98973 0.0
C124 C 0.92792 0.53217 0.95765 0.0
C125 C 0.94819 0.57652 0.91677 0.0
C126 C 0.0043 0.60309 0.90721 0.0
C127 C 0.04055 0.58594 0.93922 0.0
H128 H 0.45092 0.85787 0.9546 0.0
C129 C 0.44014 0.84269 0.00542 0.0
H130 H 0.44322 0.86132 0.10736 0.0
H131 H 0.63815 0.06354 0.95031 0.0
H132 H 0.68486 1.00362 0.92529 0.0
H133 H 0.64129 0.91075 0.95654 0.0
H134 H 0.55044 0.87714 0.01206 0.0
C135 C 0.45498 0.87539 0.05625 0.0
C136 C 0.48409 0.93218 0.04383 0.0
C137 C 0.53812 0.95149 0.01359 0.0
C138 C 0.56413 0.0054 0.99793 0.0
C139 C 0.61708 0.02326 0.96507 0.0
C140 C 0.6443 0.98924 0.95017 0.0
C141 C 0.61971 0.93693 0.96757 0.0
C142 C 0.56732 0.91808 0.99901 0.0
H143 H 0.61828 0.10952 0.07541 0.0
C144 C 0.60505 0.12673 0.0344 0.0
H145 H 0.54692 0.1138 0.96182 0.0
H146 H 0.38133 0.90834 0.10421 0.0
H147 H 0.33635 0.96894 0.13363 0.0
H148 H 0.38261 0.06273 0.10947 0.0
H149 H 0.47409 0.09649 0.0554 0.0
C150 C 0.56393 0.09663 0.99913 0.0
C151 C 0.53686 0.04013 0.01473 0.0
C152 C 0.48352 0.02105 0.0466 0.0
C153 C 0.45711 0.96703 0.06121 0.0
C154 C 0.40356 0.94903 0.09248 0.0
C155 C 0.37721 0.98339 0.10959 0.0
C156 C 0.40323 0.03619 0.09593 0.0
C157 C 0.45573 0.05503 0.06479 0.0
H158 H 0.33443 0.746 0.68235 0.0
C159 C 0.33776 0.70792 0.68331 0.0
H160 H 0.34017 0.64463 0.62598 0.0
H161 H 0.22897 0.68918 0.37778 0.0
H162 H 0.15281 0.61828 0.43089 0.0
H163 H 0.15844 0.5869 0.544 0.0
H164 H 0.24006 0.62643 0.60482 0.0
C165 C 0.33847 0.68336 0.62585 0.0
C166 C 0.33351 0.70601 0.5606 0.0
C167 C 0.28565 0.68231 0.52565 0.0
C168 C 0.28272 0.69982 0.4601 0.0
C169 C 0.23392 0.67628 0.42693 0.0
C170 C 0.18976 0.63587 0.45704 0.0
C171 C 0.19291 0.61824 0.52075 0.0
C172 C 0.2401 0.64114 0.55499 0.0
H173 H 0.32818 0.67804 0.32958 0.0
C174 C 0.33102 0.71621 0.31195 0.0
H175 H 0.33427 0.79092 0.34022 0.0
H176 H 0.4311 0.76116 0.61418 0.0
H177 H 0.5055 0.83381 0.56236 0.0
H178 H 0.49962 0.86497 0.44929 0.0
H179 H 0.41928 0.82338 0.38725 0.0
C180 C 0.32972 0.75201 0.35652 0.0
C181 C 0.32814 0.74027 0.42904 0.0
C182 C 0.37456 0.76624 0.46554 0.0
C183 C 0.37756 0.74874 0.5312 0.0
C184 C 0.42581 0.77354 0.56498 0.0
C185 C 0.46908 0.81517 0.53561 0.0
C186 C 0.4658 0.83267 0.47192 0.0
C187 C 0.41938 0.80845 0.43689 0.0
H188 H 0.69704 0.32897 0.30239 0.0
C189 C 0.65784 0.3288 0.28719 0.0
H190 H 0.57766 0.32295 0.3202 0.0
H191 H 0.59885 0.20979 0.58875 0.0
H192 H 0.52823 0.14043 0.53608 0.0
H193 H 0.50195 0.15279 0.42341 0.0
H194 H 0.54615 0.2346 0.36263 0.0
C195 C 0.61787 0.32515 0.33401 0.0
C196 C 0.6273 0.32057 0.40563 0.0
C197 C 0.60007 0.273 0.44105 0.0
C198 C 0.61506 0.26593 0.50617 0.0
C199 C 0.58864 0.21741 0.53951 0.0
C200 C 0.54813 0.17724 0.50979 0.0
C201 C 0.53335 0.18419 0.44632 0.0
C202 C 0.55902 0.23135 0.412 0.0
H203 H 0.61169 0.30346 0.65946 0.0
C204 C 0.65124 0.29901 0.65868 0.0
H205 H 0.71842 0.29561 0.59811 0.0
H206 H 0.67974 0.41973 0.35656 0.0
H207 H 0.74867 0.48986 0.4103 0.0
H208 H 0.77644 0.47694 0.52197 0.0
H209 H 0.73512 0.39396 0.58076 0.0
C210 C 0.67786 0.29792 0.59991 0.0
C211 C 0.65693 0.30664 0.53571 0.0
C212 C 0.68183 0.35521 0.50184 0.0
C213 C 0.66654 0.3624 0.43706 0.0
C214 C 0.69104 0.41173 0.40506 0.0
C215 C 0.73035 0.45243 0.43555 0.0
C216 C 0.74593 0.44517 0.49844 0.0
C217 C 0.72201 0.39728 0.53153 0.0
loop_
_geom_bond_atom_site_label_1
_geom_bond_atom_site_label_2
_geom_bond_distance
_geom_bond_site_symmetry_2
_ccdc_geom_bond_type
Co0 O3 1.970 . S
Co0 N17 1.989 . S
Co0 O25 1.967 . S
Co0 O32 1.920 . S
Co1 O4 1.966 . S
Co1 N10 2.022 . S
Co1 N18 1.993 . S
Co1 O26 1.941 . S
C2 O3 1.258 . S
C2 O4 1.263 1_554 S
O3 Co0 1.970 . S
O3 C2 1.258 . S
O4 Co1 1.966 . S
O4 C2 1.263 1_556 S
C5 O6 1.235 . S
C5 O32 1.289 . S
O6 C5 1.235 . S
C7 C9 1.400 . S
C7 N10 1.351 . S
C7 C12 1.501 . S
C8 C9 1.387 . S
C8 N11 1.341 . S
C9 C7 1.400 . S
C9 C8 1.387 . S
N10 Co1 2.022 . S
N10 C7 1.351 . S
N10 N11 1.365 . S
N11 C8 1.341 . S
N11 N10 1.365 . S
N11 H31 0.862 . S
C12 C7 1.501 . S
C12 H13 0.961 . S
C12 H14 0.961 . S
C12 H15 0.960 . S
H13 C12 0.961 . S
H14 C12 0.961 . S
H15 C12 0.960 . S
C16 N17 1.342 . S
C16 C20 1.401 . S
C16 C21 1.499 . S
N17 Co0 1.989 . S
N17 C16 1.342 . S
N17 N18 1.388 1_554 S
N18 Co1 1.993 . S
N18 N17 1.388 1_556 S
N18 C19 1.346 . S
C19 N18 1.346 . S
C19 C20 1.396 1_556 S
C19 C29 1.510 . S
C20 C16 1.401 . S
C20 C19 1.396 1_554 S
C21 C16 1.499 . S
C21 H22 0.959 . S
C21 H23 0.960 . S
C21 H24 0.961 . S
H22 C21 0.959 . S
H23 C21 0.960 . S
H24 C21 0.961 . S
O25 Co0 1.967 . S
O25 C33 1.258 . S
O26 Co1 1.941 . S
O26 C33 1.266 1_556 S
H27 C29 0.959 . S
H28 C29 0.961 . S
C29 C19 1.510 . S
C29 H27 0.959 . S
C29 H28 0.961 . S
C29 H30 0.960 . S
H30 C29 0.960 . S
H31 N11 0.862 . S
O32 Co0 1.920 . S
O32 C5 1.289 . S
C33 O25 1.258 . S
C33 O26 1.266 1_554 S
Co34 O37 1.970 . S
Co34 N51 1.989 . S
Co34 O59 1.967 . S
Co34 O66 1.920 . S
Co35 O38 1.966 . S
Co35 N44 2.022 . S
Co35 N52 1.993 . S
Co35 O60 1.941 . S
C36 O37 1.258 . S
C36 O38 1.263 1_554 S
O37 Co34 1.970 . S
O37 C36 1.258 . S
O38 Co35 1.966 . S
O38 C36 1.263 1_556 S
C39 O40 1.235 . S
C39 O66 1.289 . S
O40 C39 1.235 . S
C41 C43 1.400 . S
C41 N44 1.351 . S
C41 C46 1.501 . S
C42 C43 1.387 . S
C42 N45 1.341 . S
C43 C41 1.400 . S
C43 C42 1.387 . S
N44 Co35 2.022 . S
N44 C41 1.351 . S
N44 N45 1.365 . S
N45 C42 1.341 . S
N45 N44 1.365 . S
N45 H65 0.862 . S
C46 C41 1.501 . S
C46 H47 0.961 . S
C46 H48 0.961 . S
C46 H49 0.960 . S
H47 C46 0.961 . S
H48 C46 0.961 . S
H49 C46 0.960 . S
C50 N51 1.342 . S
C50 C54 1.401 . S
C50 C55 1.499 . S
N51 Co34 1.989 . S
N51 C50 1.342 . S
N51 N52 1.388 1_554 S
N52 Co35 1.993 . S
N52 N51 1.388 1_556 S
N52 C53 1.346 . S
C53 N52 1.346 . S
C53 C54 1.396 1_556 S
C53 C63 1.510 . S
C54 C50 1.401 . S
C54 C53 1.396 1_554 S
C55 C50 1.499 . S
C55 H56 0.959 . S
C55 H57 0.960 . S
C55 H58 0.961 . S
H56 C55 0.959 . S
H57 C55 0.960 . S
H58 C55 0.961 . S
O59 Co34 1.967 . S
O59 C67 1.258 . S
O60 Co35 1.941 . S
O60 C67 1.266 1_556 S
H61 C63 0.959 . S
H62 C63 0.961 . S
C63 C53 1.510 . S
C63 H61 0.959 . S
C63 H62 0.961 . S
C63 H64 0.960 . S
H64 C63 0.960 . S
H65 N45 0.862 . S
O66 Co34 1.920 . S
O66 C39 1.289 . S
C67 O59 1.258 . S
C67 O60 1.266 1_554 S
H68 C69 0.951 . S
C69 H68 0.951 . S
C69 C75 1.265 . S
H70 C75 0.950 . S
H71 C79 0.949 . S
H72 C80 0.950 . S
H73 C81 0.951 . S
H74 C82 0.951 . S
C75 C69 1.265 . S
C75 H70 0.950 . S
C75 C76 1.478 . S
C76 C75 1.478 . S
C76 C77 1.397 1_554 S
C76 C93 1.394 . S
C77 C76 1.397 1_556 S
C77 C78 1.438 . S
C77 C82 1.429 . S
C78 C77 1.438 . S
C78 C79 1.428 . S
C78 C91 1.394 1_556 S
C79 H71 0.949 . S
C79 C78 1.428 . S
C79 C80 1.345 . S
C80 H72 0.950 . S
C80 C79 1.345 . S
C80 C81 1.424 . S
C81 H73 0.951 . S
C81 C80 1.424 . S
C81 C82 1.347 . S
C82 H74 0.951 . S
C82 C77 1.429 . S
C82 C81 1.347 . S
H83 C84 0.951 . S
C84 H83 0.951 . S
C84 C90 1.265 . S
H85 C90 0.950 . S
H86 C94 0.949 . S
H87 C95 0.950 . S
H88 C96 0.951 . S
H89 C97 0.951 . S
C90 C84 1.265 . S
C90 H85 0.950 . S
C90 C91 1.478 . S
C91 C78 1.394 1_554 S
C91 C90 1.478 . S
C91 C92 1.397 . S
C92 C91 1.397 . S
C92 C93 1.438 . S
C92 C97 1.429 . S
C93 C76 1.394 . S
C93 C92 1.438 . S
C93 C94 1.428 . S
C94 H86 0.949 . S
C94 C93 1.428 . S
C94 C95 1.345 . S
C95 H87 0.950 . S
C95 C94 1.345 . S
C95 C96 1.424 . S
C96 H88 0.951 . S
C96 C95 1.424 . S
C96 C97 1.347 . S
C97 H89 0.951 . S
C97 C92 1.429 . S
C97 C96 1.347 . S
H98 C99 0.951 . S
C99 H98 0.951 . S
C99 C105 1.265 . S
H100 C105 0.950 . S
H101 C109 0.949 . S
H102 C110 0.950 . S
H103 C111 0.951 . S
H104 C112 0.951 . S
C105 C99 1.265 . S
C105 H100 0.950 . S
C105 C106 1.478 . S
C106 C105 1.478 . S
C106 C107 1.397 . S
C106 C123 1.394 1_554 S
C107 C106 1.397 . S
C107 C108 1.438 1_655 S
C107 C112 1.429 . S
C108 C107 1.438 1_455 S
C108 C109 1.428 . S
C108 C121 1.394 . S
C109 H101 0.949 . S
C109 C108 1.428 . S
C109 C110 1.345 . S
C110 H102 0.950 . S
C110 C109 1.345 . S
C110 C111 1.424 1_455 S
C111 H103 0.951 . S
C111 C110 1.424 1_655 S
C111 C112 1.347 . S
C112 H104 0.951 . S
C112 C107 1.429 . S
C112 C111 1.347 . S
H113 C114 0.951 . S
C114 H113 0.951 . S
C114 C120 1.265 . S
H115 C120 0.950 . S
H116 C124 0.949 . S
H117 C125 0.950 . S
H118 C126 0.951 . S
H119 C127 0.951 . S
C120 C114 1.265 . S
C120 H115 0.950 . S
C120 C121 1.478 . S
C121 C108 1.394 . S
C121 C120 1.478 . S
C121 C122 1.397 1_554 S
C122 C121 1.397 1_556 S
C122 C123 1.438 1_455 S
C122 C127 1.429 . S
C123 C106 1.394 1_556 S
C123 C122 1.438 1_655 S
C123 C124 1.428 . S
C124 H116 0.949 . S
C124 C123 1.428 . S
C124 C125 1.345 . S
C125 H117 0.950 . S
C125 C124 1.345 . S
C125 C126 1.424 1_655 S
C126 H118 0.951 . S
C126 C125 1.424 1_455 S
C126 C127 1.347 . S
C127 H119 0.951 . S
C127 C122 1.429 . S
C127 C126 1.347 . S
H128 C129 0.951 . S
C129 H128 0.951 . S
C129 C135 1.265 . S
H130 C135 0.950 . S
H131 C139 0.949 . S
H132 C140 0.950 . S
H133 C141 0.951 . S
H134 C142 0.951 . S
C135 C129 1.265 . S
C135 H130 0.950 . S
C135 C136 1.478 . S
C136 C135 1.478 . S
C136 C137 1.397 1_554 S
C136 C153 1.394 . S
C137 C136 1.397 1_556 S
C137 C138 1.438 1_565 S
C137 C142 1.429 . S
C138 C137 1.438 1_545 S
C138 C139 1.428 . S
C138 C151 1.394 1_556 S
C139 H131 0.949 . S
C139 C138 1.428 . S
C139 C140 1.345 . S
C140 H132 0.950 . S
C140 C139 1.345 . S
C140 C141 1.424 1_545 S
C141 H133 0.951 . S
C141 C140 1.424 1_565 S
C141 C142 1.347 . S
C142 H134 0.951 . S
C142 C137 1.429 . S
C142 C141 1.347 . S
H143 C144 0.951 . S
C144 H143 0.951 . S
C144 C150 1.265 . S
H145 C150 0.950 . S
H146 C154 0.949 . S
H147 C155 0.950 . S
H148 C156 0.951 . S
H149 C157 0.951 . S
C150 C144 1.265 . S
C150 H145 0.950 . S
C150 C151 1.478 . S
C151 C138 1.394 1_554 S
C151 C150 1.478 . S
C151 C152 1.397 . S
C152 C151 1.397 . S
C152 C153 1.438 1_545 S
C152 C157 1.429 . S
C153 C136 1.394 . S
C153 C152 1.438 1_565 S
C153 C154 1.428 . S
C154 H146 0.949 . S
C154 C153 1.428 . S
C154 C155 1.345 . S
C155 H147 0.950 . S
C155 C154 1.345 . S
C155 C156 1.424 1_565 S
C156 H148 0.951 . S
C156 C155 1.424 1_545 S
C156 C157 1.347 . S
C157 H149 0.951 . S
C157 C152 1.429 . S
C157 C156 1.347 . S
H158 C159 0.951 . S
C159 H158 0.951 . S
C159 C165 1.265 . S
H160 C165 0.950 . S
H161 C169 0.949 . S
H162 C170 0.950 . S
H163 C171 0.951 . S
H164 C172 0.951 . S
C165 C159 1.265 . S
C165 H160 0.950 . S
C165 C166 1.478 . S
C166 C165 1.478 . S
C166 C167 1.397 . S
C166 C183 1.394 . S
C167 C166 1.397 . S
C167 C168 1.438 . S
C167 C172 1.429 . S
C168 C167 1.438 . S
C168 C169 1.428 . S
C168 C181 1.394 . S
C169 H161 0.949 . S
C169 C168 1.428 . S
C169 C170 1.345 . S
C170 H162 0.950 . S
C170 C169 1.345 . S
C170 C171 1.424 . S
C171 H163 0.951 . S
C171 C170 1.424 . S
C171 C172 1.347 . S
C172 H164 0.951 . S
C172 C167 1.429 . S
C172 C171 1.347 . S
H173 C174 0.951 . S
C174 H173 0.951 . S
C174 C180 1.265 . S
H175 C180 0.950 . S
H176 C184 0.949 . S
H177 C185 0.950 . S
H178 C186 0.951 . S
H179 C187 0.951 . S
C180 C174 1.265 . S
C180 H175 0.950 . S
C180 C181 1.478 . S
C181 C168 1.394 . S
C181 C180 1.478 . S
C181 C182 1.397 . S
C182 C181 1.397 . S
C182 C183 1.438 . S
C182 C187 1.429 . S
C183 C166 1.394 . S
C183 C182 1.438 . S
C183 C184 1.428 . S
C184 H176 0.949 . S
C184 C183 1.428 . S
C184 C185 1.345 . S
C185 H177 0.950 . S
C185 C184 1.345 . S
C185 C186 1.424 . S
C186 H178 0.951 . S
C186 C185 1.424 . S
C186 C187 1.347 . S
C187 H179 0.951 . S
C187 C182 1.429 . S
C187 C186 1.347 . S
H188 C189 0.951 . S
C189 H188 0.951 . S
C189 C195 1.265 . S
H190 C195 0.950 . S
H191 C199 0.949 . S
H192 C200 0.950 . S
H193 C201 0.951 . S
H194 C202 0.951 . S
C195 C189 1.265 . S
C195 H190 0.950 . S
C195 C196 1.478 . S
C196 C195 1.478 . S
C196 C197 1.397 . S
C196 C213 1.394 . S
C197 C196 1.397 . S
C197 C198 1.438 . S
C197 C202 1.429 . S
C198 C197 1.438 . S
C198 C199 1.428 . S
C198 C211 1.394 . S
C199 H191 0.949 . S
C199 C198 1.428 . S
C199 C200 1.345 . S
C200 H192 0.950 . S
C200 C199 1.345 . S
C200 C201 1.424 . S
C201 H193 0.951 . S
C201 C200 1.424 . S
C201 C202 1.347 . S
C202 H194 0.951 . S
C202 C197 1.429 . S
C202 C201 1.347 . S
H203 C204 0.951 . S
C204 H203 0.951 . S
C204 C210 1.265 . S
H205 C210 0.950 . S
H206 C214 0.949 . S
H207 C215 0.950 . S
H208 C216 0.951 . S
H209 C217 0.951 . S
C210 C204 1.265 . S
C210 H205 0.950 . S
C210 C211 1.478 . S
C211 C198 1.394 . S
C211 C210 1.478 . S
C211 C212 1.397 . S
C212 C211 1.397 . S
C212 C213 1.438 . S
C212 C217 1.429 . S
C213 C196 1.394 . S
C213 C212 1.438 . S
C213 C214 1.428 . S
C214 H206 0.949 . S
C214 C213 1.428 . S
C214 C215 1.345 . S
C215 H207 0.950 . S
C215 C214 1.345 . S
C215 C216 1.424 . S
C216 H208 0.951 . S
C216 C215 1.424 . S
C216 C217 1.347 . S
C217 H209 0.951 . S
C217 C212 1.429 . S
C217 C216 1.347 . S
C69 C33 1.562 . S
C84 C36 1.531 . S
C99 C67 1.447 . S
C114 C20 1.437 . S
C129 C2 1.528 . S
C144 C54 1.547 . S
C159 C9 1.435 . S
C174 C5 1.489 . S
C189 C39 1.492 . S
C204 C43 1.456 . S
