# Generated by pormake.
# Topology sxb, (6)-cn, num edge types: 1
# Building blocks:
#     Node 0, Type 0, BuildingBlock: MIFKUJ_clean_sbu_0, # of connection points: 6
#     Node 1, Type 0, BuildingBlock: MIFKUJ_clean_sbu_0, # of connection points: 6
#     Node 2, Type 0, BuildingBlock: MIFKUJ_clean_sbu_0, # of connection points: 6
#     Node 3, Type 0, BuildingBlock: MIFKUJ_clean_sbu_0, # of connection points: 6
#     Edge 4, Type (0, 0), None
#     Edge 5, Type (0, 0), None
#     Edge 6, Type (0, 0), None
#     Edge 7, Type (0, 0), None
#     Edge 8, Type (0, 0), None
#     Edge 9, Type (0, 0), None
#     Edge 10, Type (0, 0), None
#     Edge 11, Type (0, 0), None
#     Edge 12, Type (0, 0), None
#     Edge 13, Type (0, 0), None
#     Edge 14, Type (0, 0), None
#     Edge 15, Type (0, 0), None
# Relax obj value: 0.035
# Max RMSD: 0.069
# Mean RMSD: 0.050
data_MOF--net-sxb--node1-MIFKUJ_clean_sbu_0--edge1-none
_symmetry_space_group_name_H-M    P1
_symmetry_Int_Tables_number       1
_symmetry_cell_setting            triclinic
loop_
_symmetry_equiv_pos_as_xyz
'x, y, z'
_cell_length_a     10.601266
_cell_length_b     16.485352
_cell_length_c     12.033673
_cell_angle_alpha  106.22998
_cell_angle_beta   92.928344
_cell_angle_gamma 79.177974
loop_
_atom_site_label
_atom_site_type_symbol
_atom_site_fract_x
_atom_site_fract_y
_atom_site_fract_z
_atom_type_partial_charge
Zn0 Zn 0.11158 0.99505 -0.00771 0.0
Zn1 Zn 0.7753 0.04127 0.95288 0.0
C2 C 0.19432 0.81461 -0.00959 0.0
O3 O 0.27774 0.84527 0.06772 0.0
C4 C 0.69256 0.22171 0.95476 0.0
O5 O 0.60914 0.19105 0.87745 0.0
O6 O 0.29504 1.01556 0.03022 0.0
O7 O 0.05454 0.0404 0.85469 0.0
O8 O 0.8755 0.98806 0.80366 0.0
C9 C 0.37847 1.00991 0.95464 0.0
O10 O 0.34817 0.98929 0.84437 0.0
O11 O 0.11525 0.86562 0.94668 0.0
C12 C 0.50841 0.02641 -0.00947 0.0
O13 O 0.53871 0.04703 0.1008 0.0
O14 O 0.59184 0.02076 0.91495 0.0
O15 O 0.83234 0.99593 0.09049 0.0
O16 O 0.01138 0.04826 0.14151 0.0
O17 O 0.77163 0.1707 -0.00151 0.0
C18 C -0.02778 1.0149 0.7785 0.0
C19 C 0.91465 0.02143 0.16668 0.0
Zn20 Zn 0.11126 0.07324 0.48579 0.0
Zn21 Zn 0.77559 0.96312 0.45939 0.0
C22 C 0.37774 0.03616 0.49205 0.0
O23 O 0.35474 0.09688 0.58983 0.0
C24 C 0.50912 1.00022 0.45313 0.0
O25 O 0.53212 0.9395 0.35535 0.0
O26 O 0.11538 0.19839 0.51805 0.0
O27 O -0.01799 0.03793 0.36256 0.0
O28 O 0.80694 0.98472 0.30771 0.0
C29 C 0.18532 0.22344 0.45655 0.0
O30 O 0.24529 0.16839 0.36562 0.0
O31 O 0.28498 1.0106 0.43001 0.0
C32 C 0.70149 0.81292 0.48864 0.0
O33 O 0.64151 0.86797 0.57957 0.0
O34 O 0.77144 0.83798 0.42714 0.0
O35 O 0.90485 0.99842 0.58263 0.0
O36 O 0.07993 0.05162 0.63747 0.0
O37 O 0.60188 0.02577 0.51518 0.0
C38 C 0.90016 1.01556 0.28472 0.0
C39 C -0.01329 0.02078 0.66046 0.0
Zn40 Zn 0.61158 0.49505 -0.00771 0.0
Zn41 Zn 0.2753 0.54127 0.95288 0.0
C42 C 0.69432 0.31461 -0.00959 0.0
O43 O 0.77774 0.34527 0.06772 0.0
C44 C 0.19256 0.72171 0.95476 0.0
O45 O 0.10914 0.69105 0.87745 0.0
O46 O 0.79504 0.51556 0.03022 0.0
O47 O 0.55454 0.5404 0.85469 0.0
O48 O 0.3755 0.48806 0.80366 0.0
C49 C 0.87847 0.50991 0.95464 0.0
O50 O 0.84817 0.48929 0.84437 0.0
O51 O 0.61525 0.36562 0.94668 0.0
C52 C 0.00841 0.52641 -0.00946 0.0
O53 O 0.03871 0.54703 0.1008 0.0
O54 O 0.09184 0.52076 0.91495 0.0
O55 O 0.33234 0.49593 0.09049 0.0
O56 O 0.51138 0.54826 0.14151 0.0
O57 O 0.27163 0.6707 -0.00151 0.0
C58 C 0.47222 0.5149 0.7785 0.0
C59 C 0.41466 0.52143 0.16668 0.0
Zn60 Zn 0.61126 0.57324 0.48579 0.0
Zn61 Zn 0.27559 0.46312 0.4594 0.0
C62 C 0.87774 0.53616 0.49205 0.0
O63 O 0.85474 0.59688 0.58983 0.0
C64 C 0.00912 0.50022 0.45313 0.0
O65 O 0.03212 0.4395 0.35535 0.0
O66 O 0.61538 0.69839 0.51805 0.0
O67 O 0.48201 0.53793 0.36256 0.0
O68 O 0.30694 0.48472 0.30771 0.0
C69 C 0.68532 0.72344 0.45654 0.0
O70 O 0.74529 0.66839 0.36561 0.0
O71 O 0.78498 0.5106 0.43001 0.0
C72 C 0.20149 0.31292 0.48864 0.0
O73 O 0.14151 0.36797 0.57957 0.0
O74 O 0.27144 0.33798 0.42714 0.0
O75 O 0.40485 0.49842 0.58263 0.0
O76 O 0.57993 0.55162 0.63747 0.0
O77 O 0.10188 0.52577 0.51518 0.0
C78 C 0.40016 0.51556 0.28472 0.0
C79 C 0.48671 0.52078 0.66046 0.0
loop_
_geom_bond_atom_site_label_1
_geom_bond_atom_site_label_2
_geom_bond_distance
_geom_bond_site_symmetry_2
_ccdc_geom_bond_type
Zn0 O6 1.969 1_565 S
Zn0 O7 1.965 1_564 S
Zn0 O11 2.024 1_554 S
Zn0 O16 1.969 . S
Zn1 O8 1.969 . S
Zn1 O14 1.969 1_545 S
Zn1 O15 1.965 1_546 S
Zn1 O17 2.024 1_556 S
C2 O3 1.229 . S
C2 O11 1.058 1_554 S
O3 C2 1.229 . S
C4 O5 1.229 . S
C4 O17 1.058 1_556 S
O5 C4 1.229 . S
O6 Zn0 1.969 1_545 S
O6 C9 1.267 1_544 S
O7 Zn0 1.965 1_546 S
O7 C18 1.260 1_455 S
O8 Zn1 1.969 . S
O8 C18 1.258 . S
C9 O6 1.267 1_566 S
C9 O10 1.228 . S
O10 C9 1.228 . S
O11 Zn0 2.024 1_556 S
O11 C2 1.058 1_556 S
C12 O13 1.228 . S
C12 O14 1.267 1_544 S
O13 C12 1.228 . S
O14 Zn1 1.969 1_565 S
O14 C12 1.267 1_566 S
O15 Zn1 1.965 1_564 S
O15 C19 1.260 1_655 S
O16 Zn0 1.969 . S
O16 C19 1.258 . S
O17 Zn1 2.024 1_554 S
O17 C4 1.058 1_554 S
C18 O7 1.260 1_655 S
C18 O8 1.258 . S
C19 O15 1.260 1_455 S
C19 O16 1.258 . S
Zn20 O26 1.969 . S
Zn20 O27 1.965 . S
Zn20 O31 2.024 1_545 S
Zn20 O36 1.969 . S
Zn21 O28 1.969 . S
Zn21 O34 1.969 . S
Zn21 O35 1.965 . S
Zn21 O37 2.024 1_565 S
C22 O23 1.229 . S
C22 O31 1.058 1_545 S
O23 C22 1.229 . S
C24 O25 1.229 . S
C24 O37 1.058 1_565 S
O25 C24 1.229 . S
O26 Zn20 1.969 . S
O26 C29 1.267 . S
O27 Zn20 1.965 . S
O27 C38 1.260 1_455 S
O28 Zn21 1.969 . S
O28 C38 1.258 1_565 S
C29 O26 1.267 . S
C29 O30 1.228 . S
O30 C29 1.228 . S
O31 Zn20 2.024 1_565 S
O31 C22 1.058 1_565 S
C32 O33 1.228 . S
C32 O34 1.267 . S
O33 C32 1.228 . S
O34 Zn21 1.969 . S
O34 C32 1.267 . S
O35 Zn21 1.965 . S
O35 C39 1.260 1_655 S
O36 Zn20 1.969 . S
O36 C39 1.258 1_545 S
O37 Zn21 2.024 1_545 S
O37 C24 1.058 1_545 S
C38 O27 1.260 1_655 S
C38 O28 1.258 1_545 S
C39 O35 1.260 1_455 S
C39 O36 1.258 1_565 S
Zn40 O46 1.969 . S
Zn40 O47 1.965 1_554 S
Zn40 O51 2.024 1_554 S
Zn40 O56 1.969 . S
Zn41 O48 1.969 . S
Zn41 O54 1.969 . S
Zn41 O55 1.965 1_556 S
Zn41 O57 2.024 1_556 S
C42 O43 1.229 . S
C42 O51 1.058 1_554 S
O43 C42 1.229 . S
C44 O45 1.229 . S
C44 O57 1.058 1_556 S
O45 C44 1.229 . S
O46 Zn40 1.969 . S
O46 C49 1.267 1_554 S
O47 Zn40 1.965 1_556 S
O47 C58 1.260 . S
O48 Zn41 1.969 . S
O48 C58 1.258 . S
C49 O46 1.267 1_556 S
C49 O50 1.228 . S
O50 C49 1.228 . S
O51 Zn40 2.024 1_556 S
O51 C42 1.058 1_556 S
C52 O53 1.228 . S
C52 O54 1.267 1_554 S
O53 C52 1.228 . S
O54 Zn41 1.969 . S
O54 C52 1.267 1_556 S
O55 Zn41 1.965 1_554 S
O55 C59 1.260 . S
O56 Zn40 1.969 . S
O56 C59 1.258 . S
O57 Zn41 2.024 1_554 S
O57 C44 1.058 1_554 S
C58 O47 1.260 . S
C58 O48 1.258 . S
C59 O55 1.260 . S
C59 O56 1.258 . S
Zn60 O66 1.969 . S
Zn60 O67 1.965 . S
Zn60 O71 2.024 . S
Zn60 O76 1.969 . S
Zn61 O68 1.969 . S
Zn61 O74 1.969 . S
Zn61 O75 1.965 . S
Zn61 O77 2.024 . S
C62 O63 1.229 . S
C62 O71 1.058 . S
O63 C62 1.229 . S
C64 O65 1.229 . S
C64 O77 1.058 . S
O65 C64 1.229 . S
O66 Zn60 1.969 . S
O66 C69 1.267 . S
O67 Zn60 1.965 . S
O67 C78 1.260 . S
O68 Zn61 1.969 . S
O68 C78 1.258 . S
C69 O66 1.267 . S
C69 O70 1.228 . S
O70 C69 1.228 . S
O71 Zn60 2.024 . S
O71 C62 1.058 . S
C72 O73 1.228 . S
C72 O74 1.267 . S
O73 C72 1.228 . S
O74 Zn61 1.969 . S
O74 C72 1.267 . S
O75 Zn61 1.965 . S
O75 C79 1.260 . S
O76 Zn60 1.969 . S
O76 C79 1.258 . S
O77 Zn61 2.024 . S
O77 C64 1.058 . S
C78 O67 1.260 . S
C78 O68 1.258 . S
C79 O75 1.260 . S
C79 O76 1.258 . S
C44 C2 1.674 1_556 S
C42 C4 1.674 1_554 S
C29 C72 1.163 . S
C32 C69 1.163 . S
C9 C12 0.932 1_566 S
C22 C24 1.718 1_545 S
C49 C52 0.932 1_656 S
C64 C62 1.718 1_455 S
C38 C19 1.499 1_645 S
C18 C39 1.501 1_645 S
C78 C59 1.499 . S
C79 C58 1.501 . S
