# Generated by pormake.
# Topology qtz-x, (6)-cn, num edge types: 1
# Building blocks:
#     Node 0, Type 0, BuildingBlock: JUFBIX_clean_sbu_0, # of connection points: 6
#     Node 1, Type 0, BuildingBlock: JUFBIX_clean_sbu_0, # of connection points: 6
#     Node 2, Type 0, BuildingBlock: JUFBIX_clean_sbu_0, # of connection points: 6
#     Edge 3, Type (0, 0), BuildingBlock: XIVTED_clean_linker_0, # of connection points: 2
#     Edge 4, Type (0, 0), BuildingBlock: XIVTED_clean_linker_0, # of connection points: 2
#     Edge 5, Type (0, 0), BuildingBlock: XIVTED_clean_linker_0, # of connection points: 2
#     Edge 6, Type (0, 0), BuildingBlock: XIVTED_clean_linker_0, # of connection points: 2
#     Edge 7, Type (0, 0), BuildingBlock: XIVTED_clean_linker_0, # of connection points: 2
#     Edge 8, Type (0, 0), BuildingBlock: XIVTED_clean_linker_0, # of connection points: 2
#     Edge 9, Type (0, 0), BuildingBlock: XIVTED_clean_linker_0, # of connection points: 2
#     Edge 10, Type (0, 0), BuildingBlock: XIVTED_clean_linker_0, # of connection points: 2
#     Edge 11, Type (0, 0), BuildingBlock: XIVTED_clean_linker_0, # of connection points: 2
# Relax obj value: 0.468
# Max RMSD: 0.292
# Mean RMSD: 0.292
data_MOF--net-qtz-x--node1-JUFBIX_clean_sbu_0--edge1-XIVTED_clean_linker_0
_symmetry_space_group_name_H-M    P1
_symmetry_Int_Tables_number       1
_symmetry_cell_setting            triclinic
loop_
_symmetry_equiv_pos_as_xyz
'x, y, z'
_cell_length_a     15.152072
_cell_length_b     15.152902
_cell_length_c     43.131806
_cell_angle_alpha  90.048881
_cell_angle_beta   89.979928
_cell_angle_gamma 119.99711
loop_
_atom_site_label
_atom_site_type_symbol
_atom_site_fract_x
_atom_site_fract_y
_atom_site_fract_z
_atom_type_partial_charge
Co0 Co 0.11634 0.50178 0.15389 0.0
C1 C 0.03075 0.62677 0.16152 0.0
Co2 Co 0.95553 0.42062 0.1691 0.0
C3 C 0.28014 0.54409 0.11274 0.0
C4 C 0.32153 0.66773 0.14431 0.0
N5 N 0.24744 0.57152 0.13809 0.0
N6 N 0.37 0.62 0.1023 0.0
C7 C 0.39669 0.69815 0.12208 0.0
H8 H 0.23428 0.47315 0.10043 0.0
H9 H 0.31742 0.71525 0.16233 0.0
C10 C 0.04054 0.29539 0.16153 0.0
N11 N 0.82314 0.35004 0.18423 0.0
C12 C 0.7914 0.35918 0.21265 0.0
C13 C 0.74216 0.26828 0.17155 0.0
N14 N 0.69526 0.28476 0.21873 0.0
C15 C 0.66356 0.22793 0.19269 0.0
C16 C 0.97074 0.42599 0.10603 0.0
O17 O 0.12005 0.37808 0.154 0.0
O18 O 0.96032 0.29736 0.16898 0.0
O19 O 0.90598 0.39466 0.12786 0.0
O20 O 0.06496 0.47458 0.11263 0.0
O21 O 0.95146 0.54407 0.16918 0.0
H22 H 0.74226 0.23594 0.14919 0.0
H23 H 0.84066 0.41465 0.22954 0.0
O24 O 0.11087 0.62483 0.15394 0.0
O25 O 0.167 0.5284 0.19529 0.0
O26 O 1.00737 0.4477 0.21023 0.0
C27 C 0.10151 0.496 0.21701 0.0
H28 H 0.46269 0.77344 0.11963 0.0
H29 H 0.59101 0.1588 0.18969 0.0
Co30 Co 0.4647 0.94247 0.48713 0.0
C31 C 0.67518 0.02562 0.49466 0.0
Co32 Co 0.54657 0.10331 0.50238 0.0
C33 C 0.34395 0.77913 0.44559 0.0
C34 C 0.42263 0.73629 0.47805 0.0
N35 N 0.40229 0.81127 0.47132 0.0
N36 N 0.32957 0.68878 0.43541 0.0
C37 C 0.37872 0.66117 0.45578 0.0
H38 H 0.32058 0.82562 0.43288 0.0
H39 H 0.47266 0.73975 0.49649 0.0
C40 C 0.33644 0.0207 0.4949 0.0
N41 N 0.60963 0.23578 0.51759 0.0
C42 C 0.64962 0.26701 0.54613 0.0
C43 C 0.61018 0.31733 0.50486 0.0
N44 N 0.67198 0.36336 0.55224 0.0
C45 C 0.64828 0.39573 0.5261 0.0
C46 C 0.53609 0.08807 0.43931 0.0
O47 O 0.33811 0.94043 0.48727 0.0
O48 O 0.41935 0.10014 0.50235 0.0
O49 O 0.57053 0.15289 0.46113 0.0
O50 O 0.48942 0.99387 0.44591 0.0
O51 O 0.67329 0.10571 0.50237 0.0
H52 H 0.5786 0.31777 0.48242 0.0
H53 H 0.65462 0.21729 0.56309 0.0
O54 O 0.59238 0.94625 0.48713 0.0
O55 O 0.44007 0.8918 0.52849 0.0
O56 O 0.5213 0.05138 0.54349 0.0
C57 C 0.47405 0.95723 0.55024 0.0
H58 H 0.38706 0.5945 0.45373 0.0
H59 H 0.65247 0.46862 0.52308 0.0
Co60 Co 0.55381 0.59369 0.82021 0.0
C61 C 0.42891 0.38319 0.82818 0.0
Co62 Co 0.6349 0.51443 0.83583 0.0
C63 C 0.50984 0.71305 0.77865 0.0
C64 C 0.38781 0.6328 0.81084 0.0
N65 N 0.48363 0.65433 0.80426 0.0
N66 N 0.43349 0.72663 0.76839 0.0
C67 C 0.35638 0.67645 0.78858 0.0
H68 H 0.5802 0.73746 0.76607 0.0
H69 H 0.34121 0.58231 0.82918 0.0
C70 C 0.76002 0.72459 0.82791 0.0
N71 N 0.70581 0.4532 0.85115 0.0
C72 C 0.69737 0.41333 0.87968 0.0
C73 C 0.78714 0.45331 0.83838 0.0
N74 N 0.77175 0.39147 0.8857 0.0
C75 C 0.82787 0.41559 0.85956 0.0
C76 C 0.62971 0.52314 0.77265 0.0
O77 O 0.67738 0.72124 0.82019 0.0
O78 O 0.75799 0.64258 0.8356 0.0
O79 O 0.66092 0.49011 0.79461 0.0
O80 O 0.581 0.56879 0.77906 0.0
O81 O 0.51156 0.38676 0.83602 0.0
H82 H 0.81888 0.48481 0.81591 0.0
H83 H 0.6424 0.40781 0.89666 0.0
O84 O 0.43091 0.46508 0.82038 0.0
O85 O 0.52726 0.61857 0.86147 0.0
O86 O 0.60777 0.54001 0.87692 0.0
C87 C 0.55956 0.5862 0.8834 0.0
H88 H 0.2811 0.66739 0.78643 0.0
H89 H 0.89671 0.41166 0.85647 0.0
H90 H 0.87361 0.65981 0.17661 0.0
H91 H 0.19755 0.2623 0.14637 0.0
H92 H 0.18746 0.81674 0.14658 0.0
H93 H 0.88382 0.10547 0.17652 0.0
H94 H 0.19535 0.09985 0.14631 0.0
H95 H 0.87579 0.82226 0.17667 0.0
C96 C 0.94298 0.72835 0.17001 0.0
C97 C 0.03046 0.72446 0.16156 0.0
C98 C 0.12698 0.10095 0.15296 0.0
C99 C 0.03353 0.911 0.16161 0.0
C100 C 0.12821 0.19378 0.15301 0.0
C101 C 0.04076 0.19769 0.16149 0.0
C102 C 0.03766 1.01115 0.16143 0.0
C103 C 0.95307 0.10625 0.16983 0.0
C104 C 0.94419 0.82117 0.17006 0.0
C105 C 0.11817 0.81593 0.15325 0.0
N106 N 0.95379 0.01688 0.16958 0.0
N107 N 0.11743 0.90529 0.15349 0.0
H108 H 0.30694 0.17961 0.51009 0.0
H109 H 0.70473 0.8667 0.47955 0.0
H110 H 0.14483 0.86585 0.47996 0.0
H111 H 0.86687 0.18064 0.50951 0.0
H112 H 0.86502 0.865 0.4796 0.0
H113 H 0.14666 0.18134 0.51005 0.0
C114 C 0.23764 0.11097 0.50348 0.0
C115 C 0.23947 0.02236 0.49504 0.0
C116 C 0.86565 0.93431 0.48615 0.0
C117 C 0.05529 0.02395 0.49493 0.0
C118 C 0.77404 0.93539 0.48613 0.0
C119 C 0.7722 0.02404 0.49453 0.0
C120 C 0.95642 0.02248 0.49463 0.0
C121 C 0.86456 0.11061 0.50285 0.0
C122 C 0.14605 0.11207 0.50346 0.0
C123 C 0.14714 0.93584 0.48667 0.0
N124 N 0.95281 0.10764 0.50269 0.0
N125 N 0.0589 0.93883 0.48683 0.0
H126 H 0.79342 0.91451 0.8124 0.0
H127 H 0.39556 0.19318 0.84361 0.0
H128 H 0.94973 0.7579 0.84327 0.0
H129 H 0.23915 0.34981 0.81287 0.0
H130 H 0.23303 0.03297 0.84359 0.0
H131 H 0.95595 0.0747 0.81242 0.0
C132 C 0.86184 0.91374 0.81921 0.0
C133 C 0.85776 0.82249 0.82788 0.0
C134 C 0.23426 0.10238 0.83684 0.0
C135 C 0.04438 1.00586 0.82791 0.0
C136 C 0.32712 0.19396 0.83684 0.0
C137 C 0.33118 0.28523 0.82821 0.0
C138 C 0.14457 0.10183 0.82816 0.0
C139 C 0.23984 0.28141 0.81968 0.0
C140 C 0.95471 1.00531 0.8192 0.0
C141 C 0.94907 0.8263 0.83643 0.0
N142 N 0.15044 0.19136 0.81987 0.0
N143 N 0.03848 0.91634 0.83623 0.0
H144 H 0.49835 0.71466 0.90781 0.0
H145 H 0.38964 0.4698 0.07574 0.0
H146 H 0.57552 0.48637 0.93375 0.0
H147 H 0.44477 0.77424 0.06062 0.0
H148 H 0.44433 0.46677 0.02242 0.0
H149 H 0.46347 0.73045 0.96254 0.0
C150 C 0.50806 0.66805 0.92497 0.0
C151 C 0.53976 0.59903 0.9162 0.0
C152 C 0.44565 0.53474 0.03087 0.0
C153 C 0.49933 0.61607 0.97853 0.0
C154 C 0.41454 0.53634 0.0612 0.0
C155 C 0.41352 0.62252 0.07248 0.0
C156 C 0.47362 0.6191 0.01148 0.0
C157 C 0.4459 0.70694 0.05282 0.0
C158 C 0.48871 0.67749 0.95616 0.0
C159 C 0.55148 0.54073 0.93942 0.0
N160 N 0.47346 0.7027 0.02308 0.0
N161 N 0.53038 0.5499 0.96944 0.0
H162 H 0.6335 0.2829 0.41622 0.0
H163 H 0.558 0.09599 0.24007 0.0
H164 H 0.46563 0.96745 0.38782 0.0
H165 H 0.72841 0.41242 0.26719 0.0
H166 H 0.50541 0.04984 0.29368 0.0
H167 H 0.65525 0.33365 0.36165 0.0
C168 C 0.60105 0.22436 0.39853 0.0
C169 C 0.54855 0.12078 0.40658 0.0
C170 C 0.55352 0.12955 0.28789 0.0
C171 C 0.57258 0.17824 0.34418 0.0
C172 C 0.58288 0.15616 0.25711 0.0
C173 C 0.64919 0.2583 0.24906 0.0
C174 C 0.59092 0.20544 0.31087 0.0
C175 C 0.67925 0.33254 0.27243 0.0
C176 C 0.6132 0.25337 0.3674 0.0
C177 C 0.50744 0.0482 0.38271 0.0
N178 N 0.65092 0.30456 0.30232 0.0
N179 N 0.52078 0.07833 0.35262 0.0
H180 H 0.27612 0.64748 0.72773 0.0
H181 H 0.57717 0.07447 0.60001 0.0
H182 H 0.58342 0.89414 0.74076 0.0
H183 H 0.3438 0.76938 0.57552 0.0
H184 H 0.56047 0.02277 0.65418 0.0
H185 H 0.27968 0.70564 0.67432 0.0
C186 C 0.3435 0.71503 0.71948 0.0
C187 C 0.42963 0.76657 0.73854 0.0
C188 C 0.51277 0.96723 0.63696 0.0
C189 C 0.43436 0.8328 0.67783 0.0
C190 C 0.52194 0.99664 0.60601 0.0
C191 C 0.46202 0.92595 0.58314 0.0
C192 C 0.44213 0.86674 0.64529 0.0
C193 C 0.39192 0.82608 0.59239 0.0
C194 C 0.34588 0.74741 0.68901 0.0
C195 C 0.51577 0.85251 0.72666 0.0
N196 N 0.38361 0.79939 0.62284 0.0
N197 N 0.51596 0.88315 0.69707 0.0
H198 H 0.96073 0.44269 0.90679 0.0
H199 H 0.77578 0.32788 0.08304 0.0
H200 H 0.64475 0.29753 0.93428 0.0
H201 H 0.09104 0.47747 0.05444 0.0
H202 H 0.72454 0.29994 0.02851 0.0
H203 H 1.00755 0.43551 0.96029 0.0
C204 C 0.90079 0.40746 0.9239 0.0
C205 C 0.79858 0.37199 0.91598 0.0
C206 C 0.80489 0.33838 0.03419 0.0
C207 C 0.85222 0.36568 0.97765 0.0
C208 C 0.83418 0.35461 0.06532 0.0
C209 C 0.93784 0.40597 0.0733 0.0
C210 C 0.87981 0.37381 0.01092 0.0
C211 C 1.01023 0.43828 0.04938 0.0
C212 C 0.92779 0.40428 0.9546 0.0
C213 C 0.72466 0.32791 0.93942 0.0
N214 N 0.97983 0.4221 0.0193 0.0
N215 N 0.75302 0.32706 0.96924 0.0
H216 H 0.9837 0.482 0.26659 0.0
H217 H 0.40897 0.60988 0.39506 0.0
H218 H 0.28953 0.55522 0.24253 0.0
H219 H 0.16323 0.67239 0.40727 0.0
H220 H 0.3517 0.55511 0.34157 0.0
H221 H 0.03504 0.5183 0.32079 0.0
C222 C 0.06162 0.50518 0.2727 0.0
C223 C 0.13262 0.51598 0.24993 0.0
C224 C 0.30995 0.58001 0.3561 0.0
C225 C 0.19139 0.55677 0.31211 0.0
C226 C 0.34181 0.61011 0.38661 0.0
C227 C 0.29023 0.64519 0.40547 0.0
C228 C 0.225 0.58346 0.34467 0.0
C229 C 0.20484 0.64593 0.39334 0.0
C230 C 0.09081 0.52618 0.30366 0.0
C231 C 0.23259 0.54657 0.25931 0.0
N232 N 0.17464 0.61529 0.36371 0.0
N233 N 0.25906 0.56561 0.28977 0.0
H234 H 0.72822 0.42619 0.74992 0.0
H235 H 0.6207 0.50114 0.57333 0.0
H236 H 0.57944 0.5922 0.72091 0.0
H237 H 0.76401 0.32885 0.60106 0.0
H238 H 0.62569 0.55352 0.62693 0.0
H239 H 0.75805 0.40389 0.69545 0.0
C240 C 0.70203 0.45811 0.73212 0.0
C241 C 0.6504 0.51027 0.73998 0.0
C242 C 0.65699 0.50502 0.62128 0.0
C243 C 0.6848 0.48562 0.67768 0.0
C244 C 0.6551 0.47579 0.59051 0.0
C245 C 0.69066 0.40909 0.58262 0.0
C246 C 0.69437 0.46713 0.64441 0.0
C247 C 0.7336 0.37839 0.60616 0.0
C248 C 0.71935 0.44562 0.70104 0.0
C249 C 0.61881 0.55067 0.71596 0.0
N250 N 0.73319 0.40666 0.63604 0.0
N251 N 0.63611 0.53708 0.68593 0.0
loop_
_geom_bond_atom_site_label_1
_geom_bond_atom_site_label_2
_geom_bond_distance
_geom_bond_site_symmetry_2
_ccdc_geom_bond_type
Co0 N5 2.057 . S
Co0 O17 2.021 . S
Co0 O20 2.062 1_455 S
Co0 O24 2.117 . S
Co0 O25 2.020 . S
C1 O21 1.259 . S
C1 O24 1.258 1_655 S
Co2 N11 2.057 . S
Co2 O18 2.117 . S
Co2 O19 2.020 . S
Co2 O21 2.021 . S
Co2 O26 2.062 1_655 S
C3 N5 1.316 . S
C3 N6 1.347 . S
C3 H8 0.931 . S
C4 N5 1.375 . S
C4 C7 1.350 . S
C4 H9 0.930 . S
N5 Co0 2.057 . S
N5 C3 1.316 . S
N5 C4 1.375 . S
N6 C3 1.347 . S
N6 C7 1.373 . S
C7 C4 1.350 . S
C7 N6 1.373 . S
C7 H28 0.931 . S
H8 C3 0.931 . S
H9 C4 0.930 . S
C10 O17 1.259 . S
C10 O18 1.258 1_455 S
N11 Co2 2.057 . S
N11 C12 1.316 . S
N11 C13 1.375 . S
C12 N11 1.316 . S
C12 N14 1.347 . S
C12 H23 0.931 . S
C13 N11 1.375 . S
C13 C15 1.350 . S
C13 H22 0.930 . S
N14 C12 1.347 . S
N14 C15 1.373 . S
C15 C13 1.350 . S
C15 N14 1.373 . S
C15 H29 0.931 . S
C16 O19 1.256 . S
C16 O20 1.255 . S
O17 Co0 2.021 . S
O17 C10 1.259 . S
O18 Co2 2.117 . S
O18 C10 1.258 1_655 S
O19 Co2 2.020 . S
O19 C16 1.256 . S
O20 Co0 2.062 1_655 S
O20 C16 1.255 . S
O21 C1 1.259 . S
O21 Co2 2.021 . S
H22 C13 0.930 . S
H23 C12 0.931 . S
O24 Co0 2.117 . S
O24 C1 1.258 1_455 S
O25 Co0 2.020 . S
O25 C27 1.256 . S
O26 Co2 2.062 1_455 S
O26 C27 1.255 . S
C27 O25 1.256 . S
C27 O26 1.255 . S
H28 C7 0.931 . S
H29 C15 0.931 . S
Co30 N35 2.057 . S
Co30 O47 2.021 . S
Co30 O50 2.062 1_565 S
Co30 O54 2.117 . S
Co30 O55 2.020 . S
C31 O51 1.259 . S
C31 O54 1.258 1_545 S
Co32 N41 2.057 . S
Co32 O48 2.117 . S
Co32 O49 2.020 . S
Co32 O51 2.021 . S
Co32 O56 2.062 1_545 S
C33 N35 1.316 . S
C33 N36 1.347 . S
C33 H38 0.931 . S
C34 N35 1.375 . S
C34 C37 1.350 . S
C34 H39 0.930 . S
N35 Co30 2.057 . S
N35 C33 1.316 . S
N35 C34 1.375 . S
N36 C33 1.347 . S
N36 C37 1.373 . S
C37 C34 1.350 . S
C37 N36 1.373 . S
C37 H58 0.931 . S
H38 C33 0.931 . S
H39 C34 0.930 . S
C40 O47 1.259 1_545 S
C40 O48 1.258 . S
N41 Co32 2.057 . S
N41 C42 1.316 . S
N41 C43 1.375 . S
C42 N41 1.316 . S
C42 N44 1.347 . S
C42 H53 0.931 . S
C43 N41 1.375 . S
C43 C45 1.350 . S
C43 H52 0.930 . S
N44 C42 1.347 . S
N44 C45 1.373 . S
C45 C43 1.350 . S
C45 N44 1.373 . S
C45 H59 0.931 . S
C46 O49 1.256 . S
C46 O50 1.255 . S
O47 Co30 2.021 . S
O47 C40 1.259 1_565 S
O48 Co32 2.117 . S
O48 C40 1.258 . S
O49 Co32 2.020 . S
O49 C46 1.256 . S
O50 Co30 2.062 1_545 S
O50 C46 1.255 . S
O51 C31 1.259 . S
O51 Co32 2.021 . S
H52 C43 0.930 . S
H53 C42 0.931 . S
O54 Co30 2.117 . S
O54 C31 1.258 1_565 S
O55 Co30 2.020 . S
O55 C57 1.256 . S
O56 Co32 2.062 1_565 S
O56 C57 1.255 . S
C57 O55 1.256 . S
C57 O56 1.255 . S
H58 C37 0.931 . S
H59 C45 0.931 . S
Co60 N65 2.057 . S
Co60 O77 2.021 . S
Co60 O80 2.062 . S
Co60 O84 2.117 . S
Co60 O85 2.020 . S
C61 O81 1.259 . S
C61 O84 1.258 . S
Co62 N71 2.057 . S
Co62 O78 2.117 . S
Co62 O79 2.020 . S
Co62 O81 2.021 . S
Co62 O86 2.062 . S
C63 N65 1.316 . S
C63 N66 1.347 . S
C63 H68 0.931 . S
C64 N65 1.375 . S
C64 C67 1.350 . S
C64 H69 0.930 . S
N65 Co60 2.057 . S
N65 C63 1.316 . S
N65 C64 1.375 . S
N66 C63 1.347 . S
N66 C67 1.373 . S
C67 C64 1.350 . S
C67 N66 1.373 . S
C67 H88 0.931 . S
H68 C63 0.931 . S
H69 C64 0.930 . S
C70 O77 1.259 . S
C70 O78 1.258 . S
N71 Co62 2.057 . S
N71 C72 1.316 . S
N71 C73 1.375 . S
C72 N71 1.316 . S
C72 N74 1.347 . S
C72 H83 0.931 . S
C73 N71 1.375 . S
C73 C75 1.350 . S
C73 H82 0.930 . S
N74 C72 1.347 . S
N74 C75 1.373 . S
C75 C73 1.350 . S
C75 N74 1.373 . S
C75 H89 0.931 . S
C76 O79 1.256 . S
C76 O80 1.255 . S
O77 Co60 2.021 . S
O77 C70 1.259 . S
O78 Co62 2.117 . S
O78 C70 1.258 . S
O79 Co62 2.020 . S
O79 C76 1.256 . S
O80 Co60 2.062 . S
O80 C76 1.255 . S
O81 C61 1.259 . S
O81 Co62 2.021 . S
H82 C73 0.930 . S
H83 C72 0.931 . S
O84 Co60 2.117 . S
O84 C61 1.258 . S
O85 Co60 2.020 . S
O85 C87 1.256 . S
O86 Co62 2.062 . S
O86 C87 1.255 . S
C87 O85 1.256 . S
C87 O86 1.255 . S
H88 C67 0.931 . S
H89 C75 0.931 . S
H90 C96 0.930 . S
H91 C100 0.930 . S
H92 C105 0.929 . S
H93 C103 0.929 . S
H94 C98 0.929 . S
H95 C104 0.929 . S
C96 H90 0.930 . S
C96 C97 1.367 . S
C96 C104 1.378 . S
C97 C96 1.367 . S
C97 C105 1.433 1_655 S
C98 H94 0.929 . S
C98 C100 1.378 . S
C98 C102 1.350 . S
C99 C102 1.463 1_665 S
C99 C104 1.350 . S
C99 N107 1.427 1_655 S
C100 H91 0.930 . S
C100 C98 1.378 . S
C100 C101 1.367 . S
C101 C100 1.367 . S
C101 C103 1.433 1_455 S
C102 C98 1.350 . S
C102 C99 1.463 1_445 S
C102 N106 1.427 1_455 S
C103 H93 0.929 . S
C103 C101 1.433 1_655 S
C103 N106 1.384 . S
C104 H95 0.929 . S
C104 C96 1.378 . S
C104 C99 1.350 . S
C105 H92 0.929 . S
C105 C97 1.433 1_455 S
C105 N107 1.384 . S
N106 C102 1.427 1_655 S
N106 C103 1.384 . S
N107 C99 1.427 1_455 S
N107 C105 1.384 . S
H108 C114 0.930 . S
H109 C118 0.930 . S
H110 C123 0.929 . S
H111 C121 0.929 . S
H112 C116 0.929 . S
H113 C122 0.929 . S
C114 H108 0.930 . S
C114 C115 1.367 . S
C114 C122 1.378 . S
C115 C114 1.367 . S
C115 C123 1.433 1_545 S
C116 H112 0.929 . S
C116 C118 1.378 . S
C116 C120 1.350 1_565 S
C117 C120 1.463 1_455 S
C117 C122 1.350 . S
C117 N125 1.427 1_545 S
C118 H109 0.930 . S
C118 C116 1.378 . S
C118 C119 1.367 1_565 S
C119 C118 1.367 1_545 S
C119 C121 1.433 . S
C120 C116 1.350 1_545 S
C120 C117 1.463 1_655 S
C120 N124 1.427 . S
C121 H111 0.929 . S
C121 C119 1.433 . S
C121 N124 1.384 . S
C122 H113 0.929 . S
C122 C114 1.378 . S
C122 C117 1.350 . S
C123 H110 0.929 . S
C123 C115 1.433 1_565 S
C123 N125 1.384 . S
N124 C120 1.427 . S
N124 C121 1.384 . S
N125 C117 1.427 1_565 S
N125 C123 1.384 . S
H126 C132 0.930 . S
H127 C136 0.930 . S
H128 C141 0.929 . S
H129 C139 0.929 . S
H130 C134 0.922 1_565 S
H131 C140 0.929 . S
C132 H126 0.930 . S
C132 C133 1.367 . S
C132 C140 1.378 . S
C133 C132 1.367 . S
C133 C141 1.433 . S
C134 H130 0.922 1_545 S
C134 C136 1.378 . S
C134 C138 1.350 . S
C135 C138 1.463 1_665 S
C135 C140 1.350 . S
C135 N143 1.427 . S
C136 H127 0.930 . S
C136 C134 1.378 . S
C136 C137 1.367 . S
C137 C136 1.367 . S
C137 C139 1.433 . S
C138 C134 1.350 . S
C138 C135 1.463 1_445 S
C138 N142 1.427 . S
C139 H129 0.929 . S
C139 C137 1.433 . S
C139 N142 1.384 . S
C140 H131 0.929 . S
C140 C132 1.378 . S
C140 C135 1.350 . S
C141 H128 0.929 . S
C141 C133 1.433 . S
C141 N143 1.384 . S
N142 C138 1.427 . S
N142 C139 1.384 . S
N143 C135 1.427 . S
N143 C141 1.384 . S
H144 C150 0.930 . S
H145 C154 0.930 . S
H146 C159 0.929 . S
H147 C157 0.929 . S
H148 C152 0.929 . S
H149 C158 0.929 . S
C150 H144 0.930 . S
C150 C151 1.367 . S
C150 C158 1.378 . S
C151 C150 1.367 . S
C151 C159 1.433 . S
C152 H148 0.929 . S
C152 C154 1.378 . S
C152 C156 1.350 1_554 S
C153 C156 1.463 . S
C153 C158 1.350 . S
C153 N161 1.427 . S
C154 H145 0.930 . S
C154 C152 1.378 . S
C154 C155 1.367 . S
C155 C154 1.367 . S
C155 C157 1.433 . S
C156 C152 1.350 1_556 S
C156 C153 1.463 . S
C156 N160 1.427 . S
C157 H147 0.929 . S
C157 C155 1.433 . S
C157 N160 1.384 1_554 S
C158 H149 0.929 . S
C158 C150 1.378 . S
C158 C153 1.350 . S
C159 H146 0.929 . S
C159 C151 1.433 . S
C159 N161 1.384 . S
N160 C156 1.427 . S
N160 C157 1.384 1_556 S
N161 C153 1.427 . S
N161 C159 1.384 . S
H162 C168 0.930 . S
H163 C172 0.930 . S
H164 C177 0.929 . S
H165 C175 0.929 . S
H166 C170 0.929 . S
H167 C176 0.929 . S
C168 H162 0.930 . S
C168 C169 1.367 . S
C168 C176 1.378 . S
C169 C168 1.367 . S
C169 C177 1.433 . S
C170 H166 0.929 . S
C170 C172 1.378 . S
C170 C174 1.350 . S
C171 C174 1.463 . S
C171 C176 1.350 . S
C171 N179 1.427 . S
C172 H163 0.930 . S
C172 C170 1.378 . S
C172 C173 1.367 . S
C173 C172 1.367 . S
C173 C175 1.433 . S
C174 C170 1.350 . S
C174 C171 1.463 . S
C174 N178 1.427 . S
C175 H165 0.929 . S
C175 C173 1.433 . S
C175 N178 1.384 . S
C176 H167 0.929 . S
C176 C168 1.378 . S
C176 C171 1.350 . S
C177 H164 0.929 . S
C177 C169 1.433 . S
C177 N179 1.384 . S
N178 C174 1.427 . S
N178 C175 1.384 . S
N179 C171 1.427 . S
N179 C177 1.384 . S
H180 C186 0.930 . S
H181 C190 0.930 . S
H182 C195 0.929 . S
H183 C193 0.929 . S
H184 C188 0.929 . S
H185 C194 0.929 . S
C186 H180 0.930 . S
C186 C187 1.367 . S
C186 C194 1.378 . S
C187 C186 1.367 . S
C187 C195 1.433 . S
C188 H184 0.929 . S
C188 C190 1.378 . S
C188 C192 1.350 . S
C189 C192 1.463 . S
C189 C194 1.350 . S
C189 N197 1.427 . S
C190 H181 0.930 . S
C190 C188 1.378 . S
C190 C191 1.367 . S
C191 C190 1.367 . S
C191 C193 1.433 . S
C192 C188 1.350 . S
C192 C189 1.463 . S
C192 N196 1.427 . S
C193 H183 0.929 . S
C193 C191 1.433 . S
C193 N196 1.384 . S
C194 H185 0.929 . S
C194 C186 1.378 . S
C194 C189 1.350 . S
C195 H182 0.929 . S
C195 C187 1.433 . S
C195 N197 1.384 . S
N196 C192 1.427 . S
N196 C193 1.384 . S
N197 C189 1.427 . S
N197 C195 1.384 . S
H198 C204 0.930 . S
H199 C208 0.930 . S
H200 C213 0.929 . S
H201 C211 0.929 . S
H202 C206 0.929 . S
H203 C212 0.929 . S
C204 H198 0.930 . S
C204 C205 1.367 . S
C204 C212 1.378 . S
C205 C204 1.367 . S
C205 C213 1.433 . S
C206 H202 0.929 . S
C206 C208 1.378 . S
C206 C210 1.350 . S
C207 C210 1.463 . S
C207 C212 1.350 1_554 S
C207 N215 1.427 . S
C208 H199 0.930 . S
C208 C206 1.378 . S
C208 C209 1.367 . S
C209 C208 1.367 . S
C209 C211 1.433 . S
C210 C206 1.350 . S
C210 C207 1.463 . S
C210 N214 1.427 . S
C211 H201 0.929 . S
C211 C209 1.433 . S
C211 N214 1.384 . S
C212 H203 0.929 . S
C212 C204 1.378 . S
C212 C207 1.350 1_556 S
C213 H200 0.929 . S
C213 C205 1.433 . S
C213 N215 1.384 1_556 S
N214 C210 1.427 . S
N214 C211 1.384 . S
N215 C207 1.427 . S
N215 C213 1.384 1_554 S
H216 C222 0.930 . S
H217 C226 0.930 . S
H218 C231 0.929 . S
H219 C229 0.929 . S
H220 C224 0.929 . S
H221 C230 0.929 . S
C222 H216 0.930 . S
C222 C223 1.367 . S
C222 C230 1.378 . S
C223 C222 1.367 . S
C223 C231 1.433 . S
C224 H220 0.929 . S
C224 C226 1.378 . S
C224 C228 1.350 . S
C225 C228 1.463 . S
C225 C230 1.350 . S
C225 N233 1.427 . S
C226 H217 0.930 . S
C226 C224 1.378 . S
C226 C227 1.367 . S
C227 C226 1.367 . S
C227 C229 1.433 . S
C228 C224 1.350 . S
C228 C225 1.463 . S
C228 N232 1.427 . S
C229 H219 0.929 . S
C229 C227 1.433 . S
C229 N232 1.384 . S
C230 H221 0.929 . S
C230 C222 1.378 . S
C230 C225 1.350 . S
C231 H218 0.929 . S
C231 C223 1.433 . S
C231 N233 1.384 . S
N232 C228 1.427 . S
N232 C229 1.384 . S
N233 C225 1.427 . S
N233 C231 1.384 . S
H234 C240 0.930 . S
H235 C244 0.930 . S
H236 C249 0.929 . S
H237 C247 0.929 . S
H238 C242 0.929 . S
H239 C248 0.929 . S
C240 H234 0.930 . S
C240 C241 1.367 . S
C240 C248 1.378 . S
C241 C240 1.367 . S
C241 C249 1.433 . S
C242 H238 0.929 . S
C242 C244 1.378 . S
C242 C246 1.350 . S
C243 C246 1.463 . S
C243 C248 1.350 . S
C243 N251 1.427 . S
C244 H235 0.930 . S
C244 C242 1.378 . S
C244 C245 1.367 . S
C245 C244 1.367 . S
C245 C247 1.433 . S
C246 C242 1.350 . S
C246 C243 1.463 . S
C246 N250 1.427 . S
C247 H237 0.929 . S
C247 C245 1.433 . S
C247 N250 1.384 . S
C248 H239 0.929 . S
C248 C240 1.378 . S
C248 C243 1.350 . S
C249 H236 0.929 . S
C249 C241 1.433 . S
C249 N251 1.384 . S
N250 C246 1.427 . S
N250 C247 1.384 . S
N251 C243 1.427 . S
N251 C249 1.384 . S
C97 C1 1.720 . S
C101 C10 1.720 . S
C115 C40 1.723 . S
C119 C31 1.723 . S
C133 C70 1.720 . S
C137 C61 1.720 . S
C151 C87 1.060 . S
C155 N6 1.061 . S
C169 C46 0.924 . S
C173 N14 0.885 . S
C187 N66 1.059 . S
C191 C57 1.049 . S
C205 N74 0.889 . S
C209 C16 0.924 . S
C223 C27 1.049 . S
C227 N36 1.059 . S
C241 C76 0.921 . S
C245 N44 0.896 . S
