# Generated by pormake.
# Topology fcu, (12)-cn, num edge types: 1
# Building blocks:
#     Node 0, Type 0, BuildingBlock: FANWIC_clean_sbu_0, # of connection points: 12
#     Node 1, Type 0, BuildingBlock: FANWIC_clean_sbu_0, # of connection points: 12
#     Node 2, Type 0, BuildingBlock: FANWIC_clean_sbu_0, # of connection points: 12
#     Node 3, Type 0, BuildingBlock: FANWIC_clean_sbu_0, # of connection points: 12
#     Edge 4, Type (0, 0), None
#     Edge 5, Type (0, 0), None
#     Edge 6, Type (0, 0), None
#     Edge 7, Type (0, 0), None
#     Edge 8, Type (0, 0), None
#     Edge 9, Type (0, 0), None
#     Edge 10, Type (0, 0), None
#     Edge 11, Type (0, 0), None
#     Edge 12, Type (0, 0), None
#     Edge 13, Type (0, 0), None
#     Edge 14, Type (0, 0), None
#     Edge 15, Type (0, 0), None
#     Edge 16, Type (0, 0), None
#     Edge 17, Type (0, 0), None
#     Edge 18, Type (0, 0), None
#     Edge 19, Type (0, 0), None
#     Edge 20, Type (0, 0), None
#     Edge 21, Type (0, 0), None
#     Edge 22, Type (0, 0), None
#     Edge 23, Type (0, 0), None
#     Edge 24, Type (0, 0), None
#     Edge 25, Type (0, 0), None
#     Edge 26, Type (0, 0), None
#     Edge 27, Type (0, 0), None
# Relax obj value: 0.222
# Max RMSD: 0.293
# Mean RMSD: 0.293
data_MOF--net-fcu--node1-FANWIC_clean_sbu_0--edge1-none
_symmetry_space_group_name_H-M    P1
_symmetry_Int_Tables_number       1
_symmetry_cell_setting            triclinic
loop_
_symmetry_equiv_pos_as_xyz
'x, y, z'
_cell_length_a     12.986328
_cell_length_b     14.024054
_cell_length_c     12.669444
_cell_angle_alpha  98.412457
_cell_angle_beta   94.728409
_cell_angle_gamma 90.845874
loop_
_atom_site_label
_atom_site_type_symbol
_atom_site_fract_x
_atom_site_fract_y
_atom_site_fract_z
_atom_type_partial_charge
Zn0 Zn 0.9183 -0.01593 0.87482 0.0
Zn1 Zn 0.8827 0.93075 0.12836 0.0
Zn2 Zn 0.9472 0.13357 0.0527 0.0
Zn3 Zn 0.73625 0.02115 0.03407 0.0
O4 O 0.88694 0.01389 1.02115 0.0
C5 C 0.06766 0.14765 0.26623 0.0
O6 O 0.14665 0.09057 0.25675 0.0
N7 N 0.03325 0.88561 0.88334 0.0
N8 N 0.11603 0.86546 0.94677 0.0
N9 N 0.07877 0.73773 0.82326 0.0
C10 C 0.01321 0.80953 0.80971 0.0
C11 C 0.14751 0.77528 0.9071 0.0
N12 N -0.0122 0.87318 0.18779 0.0
C13 C 0.11958 0.81532 0.25816 0.0
N14 N 0.03672 0.7667 0.29256 0.0
C15 C 0.95867 0.81778 0.25719 0.0
N16 N 0.08756 0.86942 0.1831 0.0
H17 H 0.84083 0.84314 0.36302 0.0
C18 C 0.84812 0.80542 0.28104 0.0
H19 H 0.79365 0.83759 0.22648 0.0
H20 H 0.82369 0.72894 0.2759 0.0
N21 N 0.08408 0.12453 0.98809 0.0
C22 C 0.15125 0.1982 1.00459 0.0
C23 C 0.2118 0.09037 0.88818 0.0
N24 N 0.12062 0.05805 0.91561 0.0
N25 N 0.23483 0.17895 0.94792 0.0
C26 C 0.12541 0.28987 0.07277 0.0
H27 H 0.17695 0.3534 0.0878 0.0
H28 H 0.05022 0.31415 0.03993 0.0
H29 H 0.12168 0.27221 0.15214 0.0
O30 O 0.66709 0.90935 0.92881 0.0
O31 O 0.77574 0.91302 0.80392 0.0
C32 C 0.69569 0.87561 0.83732 0.0
O33 O 0.82648 0.80907 0.03374 0.0
O34 O 0.68184 0.13179 0.97565 0.0
O35 O 0.82009 0.22946 0.99297 0.0
O36 O 0.95975 0.1263 0.8304 0.0
O37 O 0.69605 0.05036 0.19329 0.0
O38 O 0.83575 0.00669 0.27437 0.0
O39 O 0.98212 0.12375 0.21122 0.0
C40 C 0.82505 0.73028 0.96902 0.0
O41 O 0.91136 0.69266 0.93864 0.0
C42 C 0.72143 0.21227 0.96569 0.0
C43 C 0.01467 0.16864 0.76903 0.0
O44 O 0.0269 0.12355 0.67281 0.0
C45 C 0.75183 0.05044 0.2807 0.0
H46 H 0.91617 0.88401 0.70445 0.0
H47 H 0.85947 0.77168 0.74124 0.0
H48 H 0.94858 0.77032 0.64688 0.0
C49 C 0.92918 0.80969 0.72163 0.0
Zn50 Zn 0.91836 0.48399 0.37471 0.0
Zn51 Zn 0.88275 0.43089 0.62836 0.0
Zn52 Zn 0.94717 0.63358 0.55269 0.0
Zn53 Zn 0.7362 0.521 0.53395 0.0
O54 O 0.88695 0.51389 0.52105 0.0
C55 C 0.06763 0.64773 0.76621 0.0
O56 O 0.14664 0.59068 0.75666 0.0
N57 N 0.03331 0.38555 0.38331 0.0
N58 N 0.11608 0.3654 0.44675 0.0
N59 N 0.07877 0.23764 0.32331 0.0
C60 C 0.01327 0.30945 0.3097 0.0
C61 C 0.14754 0.27521 0.40712 0.0
N62 N -0.01224 0.37326 0.68782 0.0
C63 C 0.11951 0.3153 0.75828 0.0
N64 N 0.03652 0.26683 0.79258 0.0
C65 C 0.9585 0.31789 0.7572 0.0
N66 N 0.08755 0.36943 0.68322 0.0
H67 H 0.84064 0.34316 0.86298 0.0
C68 C 0.84793 0.30554 0.78096 0.0
H69 H 0.79351 0.33783 0.72646 0.0
H70 H 0.82348 0.22905 0.77567 0.0
N71 N 0.08404 0.62457 0.48812 0.0
C72 C 0.15112 0.6983 0.50455 0.0
C73 C 0.21181 0.59045 0.38827 0.0
N74 N 0.12067 0.55806 0.41574 0.0
N75 N 0.23473 0.67909 0.44791 0.0
C76 C 0.12519 0.78997 0.57268 0.0
H77 H 0.17669 0.85354 0.58776 0.0
H78 H 0.04998 0.81419 0.53982 0.0
H79 H 0.12146 0.77232 0.65205 0.0
O80 O 0.66715 0.40922 0.42856 0.0
O81 O 0.77583 0.41294 0.30371 0.0
C82 C 0.69578 0.37549 0.33708 0.0
O83 O 0.82633 0.30927 0.53384 0.0
O84 O 0.68179 0.63174 0.47567 0.0
O85 O 0.82004 0.72941 0.49295 0.0
O86 O 0.95999 0.6261 0.3302 0.0
O87 O 0.69581 0.54992 0.69318 0.0
O88 O 0.83585 0.50695 0.77429 0.0
O89 O 0.98208 0.62384 0.71121 0.0
C90 C 0.82501 0.23047 0.46914 0.0
O91 O 0.91139 0.19288 0.43889 0.0
C92 C 0.72138 0.71222 0.46569 0.0
C93 C 0.01471 0.66855 0.26875 0.0
O94 O 0.0268 0.62362 0.17242 0.0
C95 C 0.7517 0.55033 0.78059 0.0
H96 H 0.91632 0.38395 0.20438 0.0
H97 H 0.85956 0.2716 0.24112 0.0
H98 H 0.94876 0.27027 0.14685 0.0
C99 C 0.92929 0.30963 0.22157 0.0
Zn100 Zn 0.41839 -0.01595 0.37473 0.0
Zn101 Zn 0.38279 0.93088 0.62833 0.0
Zn102 Zn 0.44721 0.13357 0.55268 0.0
Zn103 Zn 0.23623 0.02116 0.53401 0.0
O104 O 0.38695 0.01393 0.52106 0.0
C105 C 0.56755 0.14765 0.76626 0.0
O106 O 0.64662 0.0907 0.75654 0.0
N107 N 0.53329 0.88556 0.38334 0.0
N108 N 0.61606 0.86538 0.44679 0.0
N109 N 0.57863 0.73759 0.32337 0.0
C110 C 0.51318 0.80945 0.30976 0.0
C111 C 0.64735 0.77511 0.40723 0.0
N112 N 0.48783 0.87317 0.68767 0.0
C113 C 0.61945 0.81537 0.75824 0.0
N114 N 0.53661 0.76679 0.79271 0.0
C115 C 0.45861 0.81782 0.75711 0.0
N116 N 0.58761 0.86947 0.68314 0.0
H117 H 0.34076 0.84322 0.8629 0.0
C118 C 0.34803 0.80554 0.78091 0.0
H119 H 0.29359 0.83777 0.72636 0.0
H120 H 0.32355 0.72907 0.77571 0.0
N121 N 0.58409 0.1245 0.48815 0.0
C122 C 0.65127 0.19816 0.50474 0.0
C123 C 0.71177 0.09043 0.3882 0.0
N124 N 0.62062 0.05804 0.41564 0.0
N125 N 0.7349 0.1789 0.44814 0.0
C126 C 0.62535 0.28986 0.57283 0.0
H127 H 0.67684 0.35342 0.58779 0.0
H128 H 0.55015 0.31407 0.53993 0.0
H129 H 0.62162 0.27228 0.65224 0.0
O130 O 0.16715 0.90942 0.42863 0.0
O131 O 0.27585 0.91303 0.30374 0.0
C132 C 0.1958 0.87564 0.33717 0.0
O133 O 0.32617 0.80937 0.53381 0.0
O134 O 0.18181 0.13188 0.47573 0.0
O135 O 0.32015 0.22943 0.4929 0.0
O136 O 0.45995 0.12622 0.33027 0.0
O137 O 0.19593 0.05015 0.69325 0.0
O138 O 0.33586 0.00687 0.77429 0.0
O139 O 0.48202 0.12381 0.7112 0.0
C140 C 0.32491 0.73055 0.46917 0.0
O141 O 0.41132 0.69285 0.43917 0.0
C142 C 0.22147 0.21231 0.46569 0.0
C143 C 0.5148 0.16857 0.26885 0.0
O144 O 0.5269 0.12352 0.17258 0.0
C145 C 0.25178 0.05037 0.78064 0.0
H146 H 0.41634 0.88402 0.2044 0.0
H147 H 0.35949 0.77167 0.24106 0.0
H148 H 0.44876 0.77033 0.14686 0.0
C149 C 0.42926 0.80969 0.22158 0.0
Zn150 Zn 0.4183 0.48404 0.87482 0.0
Zn151 Zn 0.38269 0.43082 0.12836 0.0
Zn152 Zn 0.44715 0.63358 0.0527 0.0
Zn153 Zn 0.23615 0.52126 0.03407 0.0
O154 O 0.38685 0.51394 1.02113 0.0
C155 C 0.56745 0.6476 0.26631 0.0
O156 O 0.64648 0.59059 0.25662 0.0
N157 N 0.53324 0.38556 0.8834 0.0
N158 N 0.61604 0.36541 0.94682 0.0
N159 N 0.57864 0.23762 0.8234 0.0
C160 C 0.51315 0.30945 0.80981 0.0
C161 C 0.64738 0.27516 0.90723 0.0
N162 N 0.48782 0.37327 0.18777 0.0
C163 C 0.61955 0.31525 0.25798 0.0
N164 N 0.53669 0.26675 0.29244 0.0
C165 C 0.45864 0.31784 0.25715 0.0
N166 N 0.5876 0.36947 0.18302 0.0
H167 H 0.34077 0.34312 0.36292 0.0
C168 C 0.34808 0.30543 0.28094 0.0
H169 H 0.29361 0.3376 0.22638 0.0
H170 H 0.32368 0.22894 0.27575 0.0
N171 N 0.58405 0.62446 0.98813 0.0
C172 C 0.65132 0.69805 1.00476 0.0
C173 C 0.71164 0.59036 0.88808 0.0
N174 N 0.62048 0.55802 0.91553 0.0
N175 N 0.7349 0.67876 0.94809 0.0
C176 C 0.62552 0.78976 0.0729 0.0
H177 H 0.6771 0.85327 0.08789 0.0
H178 H 0.55036 0.81407 0.04003 0.0
H179 H 0.62175 0.77214 0.15229 0.0
O180 O 0.16702 0.40947 0.92876 0.0
O181 O 0.27578 0.41296 0.80391 0.0
C182 C 0.19571 0.37562 0.83733 0.0
O183 O 0.32638 0.30919 0.03375 0.0
O184 O 0.18176 0.63194 0.97569 0.0
O185 O 0.32012 0.72947 0.99289 0.0
O186 O 0.45977 0.62624 0.83037 0.0
O187 O 0.19596 0.55046 0.19332 0.0
O188 O 0.33567 0.50671 0.27433 0.0
O189 O 0.48192 0.6238 0.21123 0.0
C190 C 0.32504 0.23037 0.96912 0.0
O191 O 0.41141 0.19262 0.93905 0.0
C192 C 0.22144 0.71236 0.96566 0.0
C193 C 0.51462 0.66864 0.76898 0.0
O194 O 0.52691 0.62362 0.67274 0.0
C195 C 0.25175 0.55046 0.28071 0.0
H196 H 0.41623 0.38399 0.70449 0.0
H197 H 0.35946 0.27163 0.74117 0.0
H198 H 0.44867 0.27032 0.64692 0.0
C199 C 0.4292 0.30967 0.72166 0.0
loop_
_geom_bond_atom_site_label_1
_geom_bond_atom_site_label_2
_geom_bond_distance
_geom_bond_site_symmetry_2
_ccdc_geom_bond_type
Zn0 O4 1.978 . S
Zn0 N7 2.004 1_545 S
Zn0 O31 2.064 1_545 S
Zn0 O36 1.963 . S
Zn1 O4 1.978 1_564 S
Zn1 N12 2.004 . S
Zn1 O33 1.963 1_554 S
Zn1 O38 2.064 . S
Zn2 O4 1.978 1_554 S
Zn2 N21 2.004 1_654 S
Zn2 O35 2.064 . S
Zn2 O39 1.963 . S
Zn3 O4 1.913 . S
Zn3 O30 1.941 . S
Zn3 O34 1.941 1_556 S
Zn3 O37 1.941 1_556 S
O4 Zn0 1.978 . S
O4 Zn1 1.978 1_546 S
O4 Zn2 1.978 1_556 S
O4 Zn3 1.913 . S
C5 O6 1.237 1_655 S
C5 O39 1.268 . S
O6 C5 1.237 1_455 S
N7 Zn0 2.004 1_565 S
N7 N8 1.383 1_655 S
N7 C10 1.306 1_655 S
N8 N7 1.383 1_455 S
N8 C11 1.302 . S
N9 C10 1.368 . S
N9 C11 1.379 . S
C10 N7 1.306 1_455 S
C10 N9 1.368 . S
C10 C49 1.481 1_455 S
C11 N8 1.302 . S
C11 N9 1.379 . S
N12 Zn1 2.004 . S
N12 C15 1.306 1_655 S
N12 N16 1.383 1_655 S
C13 N14 1.379 . S
C13 N16 1.302 . S
N14 C13 1.379 . S
N14 C15 1.368 . S
C15 N12 1.306 1_455 S
C15 N14 1.368 . S
C15 C18 1.481 1_455 S
N16 N12 1.383 1_455 S
N16 C13 1.302 . S
H17 C18 0.972 . S
C18 C15 1.481 1_655 S
C18 H17 0.972 . S
C18 H19 0.970 . S
C18 H20 0.971 . S
H19 C18 0.970 . S
H20 C18 0.971 . S
N21 Zn2 2.004 1_456 S
N21 C22 1.306 1_556 S
N21 N24 1.383 . S
C22 N21 1.306 1_554 S
C22 N25 1.368 1_554 S
C22 C26 1.481 . S
C23 N24 1.302 . S
C23 N25 1.379 . S
N24 N21 1.383 . S
N24 C23 1.302 . S
N25 C22 1.368 1_556 S
N25 C23 1.379 . S
C26 C22 1.481 . S
C26 H27 0.971 . S
C26 H28 0.970 . S
C26 H29 0.969 . S
H27 C26 0.971 . S
H28 C26 0.970 . S
H29 C26 0.969 . S
O30 Zn3 1.941 . S
O30 C32 1.277 1_545 S
O31 Zn0 2.064 1_565 S
O31 C32 1.233 . S
C32 O30 1.277 1_565 S
C32 O31 1.233 . S
O33 Zn1 1.963 1_556 S
O33 C40 1.268 . S
O34 Zn3 1.941 1_554 S
O34 C42 1.277 1_554 S
O35 Zn2 2.064 . S
O35 C42 1.233 1_554 S
O36 Zn0 1.963 . S
O36 C43 1.268 . S
O37 Zn3 1.941 1_554 S
O37 C45 1.272 1_545 S
O38 Zn1 2.064 . S
O38 C45 1.240 . S
O39 Zn2 1.963 . S
O39 C5 1.268 . S
C40 O33 1.268 . S
C40 O41 1.237 1_556 S
O41 C40 1.237 1_554 S
C42 O34 1.277 1_556 S
C42 O35 1.233 1_556 S
C43 O36 1.268 . S
C43 O44 1.237 . S
O44 C43 1.237 . S
C45 O37 1.272 1_565 S
C45 O38 1.240 . S
H46 C49 0.970 . S
H47 C49 0.971 . S
H48 C49 0.969 1_455 S
C49 C10 1.481 1_655 S
C49 H46 0.970 . S
C49 H47 0.971 . S
C49 H48 0.969 1_655 S
Zn50 O54 1.978 . S
Zn50 N57 2.004 . S
Zn50 O81 2.064 . S
Zn50 O86 1.963 . S
Zn51 O54 1.978 . S
Zn51 N62 2.004 . S
Zn51 O83 1.963 . S
Zn51 O88 2.064 . S
Zn52 O54 1.978 . S
Zn52 N71 2.004 1_655 S
Zn52 O85 2.064 . S
Zn52 O89 1.963 . S
Zn53 O54 1.913 . S
Zn53 O80 1.941 . S
Zn53 O84 1.941 . S
Zn53 O87 1.941 . S
O54 Zn50 1.978 . S
O54 Zn51 1.978 . S
O54 Zn52 1.978 . S
O54 Zn53 1.913 . S
C55 O56 1.237 1_655 S
C55 O89 1.268 . S
O56 C55 1.237 1_455 S
N57 Zn50 2.004 . S
N57 N58 1.383 1_655 S
N57 C60 1.306 1_655 S
N58 N57 1.383 1_455 S
N58 C61 1.302 . S
N59 C60 1.368 . S
N59 C61 1.379 . S
C60 N57 1.306 1_455 S
C60 N59 1.368 . S
C60 C99 1.481 1_455 S
C61 N58 1.302 . S
C61 N59 1.379 . S
N62 Zn51 2.004 . S
N62 C65 1.306 1_655 S
N62 N66 1.383 1_655 S
C63 N64 1.379 . S
C63 N66 1.302 . S
N64 C63 1.379 . S
N64 C65 1.368 . S
C65 N62 1.306 1_455 S
C65 N64 1.368 . S
C65 C68 1.481 1_455 S
N66 N62 1.383 1_455 S
N66 C63 1.302 . S
H67 C68 0.972 . S
C68 C65 1.481 1_655 S
C68 H67 0.972 . S
C68 H69 0.970 . S
C68 H70 0.971 . S
H69 C68 0.970 . S
H70 C68 0.971 . S
N71 Zn52 2.004 1_455 S
N71 C72 1.306 . S
N71 N74 1.383 . S
C72 N71 1.306 . S
C72 N75 1.368 . S
C72 C76 1.481 . S
C73 N74 1.302 . S
C73 N75 1.379 . S
N74 N71 1.383 . S
N74 C73 1.302 . S
N75 C72 1.368 . S
N75 C73 1.379 . S
C76 C72 1.481 . S
C76 H77 0.971 . S
C76 H78 0.970 . S
C76 H79 0.969 . S
H77 C76 0.971 . S
H78 C76 0.970 . S
H79 C76 0.969 . S
O80 Zn53 1.941 . S
O80 C82 1.277 . S
O81 Zn50 2.064 . S
O81 C82 1.233 . S
C82 O80 1.277 . S
C82 O81 1.233 . S
O83 Zn51 1.963 . S
O83 C90 1.268 . S
O84 Zn53 1.941 . S
O84 C92 1.277 . S
O85 Zn52 2.064 . S
O85 C92 1.233 . S
O86 Zn50 1.963 . S
O86 C93 1.268 . S
O87 Zn53 1.941 . S
O87 C95 1.277 . S
O88 Zn51 2.064 . S
O88 C95 1.233 . S
O89 Zn52 1.963 . S
O89 C55 1.268 . S
C90 O83 1.268 . S
C90 O91 1.237 . S
O91 C90 1.237 . S
C92 O84 1.277 . S
C92 O85 1.233 . S
C93 O86 1.268 . S
C93 O94 1.237 . S
O94 C93 1.237 . S
C95 O87 1.277 . S
C95 O88 1.233 . S
H96 C99 0.970 . S
H97 C99 0.971 . S
H98 C99 0.969 1_455 S
C99 C60 1.481 1_655 S
C99 H96 0.970 . S
C99 H97 0.971 . S
C99 H98 0.969 1_655 S
Zn100 O104 1.978 . S
Zn100 N107 2.004 1_545 S
Zn100 O131 2.064 1_545 S
Zn100 O136 1.963 . S
Zn101 O104 1.978 1_565 S
Zn101 N112 2.004 . S
Zn101 O133 1.963 . S
Zn101 O138 2.064 . S
Zn102 O104 1.978 . S
Zn102 N121 2.004 . S
Zn102 O135 2.064 . S
Zn102 O139 1.963 . S
Zn103 O104 1.913 . S
Zn103 O130 1.941 . S
Zn103 O134 1.941 . S
Zn103 O137 1.941 . S
O104 Zn100 1.978 . S
O104 Zn101 1.978 1_545 S
O104 Zn102 1.978 . S
O104 Zn103 1.913 . S
C105 O106 1.237 . S
C105 O139 1.268 . S
O106 C105 1.237 . S
N107 Zn100 2.004 1_565 S
N107 N108 1.383 . S
N107 C110 1.306 . S
N108 N107 1.383 . S
N108 C111 1.302 . S
N109 C110 1.368 . S
N109 C111 1.379 . S
C110 N107 1.306 . S
C110 N109 1.368 . S
C110 C149 1.481 . S
C111 N108 1.302 . S
C111 N109 1.379 . S
N112 Zn101 2.004 . S
N112 C115 1.306 . S
N112 N116 1.383 . S
C113 N114 1.379 . S
C113 N116 1.302 . S
N114 C113 1.379 . S
N114 C115 1.368 . S
C115 N112 1.306 . S
C115 N114 1.368 . S
C115 C118 1.481 . S
N116 N112 1.383 . S
N116 C113 1.302 . S
H117 C118 0.969 . S
C118 C115 1.481 . S
C118 H117 0.969 . S
C118 H119 0.970 . S
C118 H120 0.971 . S
H119 C118 0.970 . S
H120 C118 0.971 . S
N121 Zn102 2.004 . S
N121 C122 1.306 . S
N121 N124 1.383 . S
C122 N121 1.306 . S
C122 N125 1.368 . S
C122 C126 1.481 . S
C123 N124 1.302 . S
C123 N125 1.379 . S
N124 N121 1.383 . S
N124 C123 1.302 . S
N125 C122 1.368 . S
N125 C123 1.379 . S
C126 C122 1.481 . S
C126 H127 0.971 . S
C126 H128 0.970 . S
C126 H129 0.969 . S
H127 C126 0.971 . S
H128 C126 0.970 . S
H129 C126 0.969 . S
O130 Zn103 1.941 . S
O130 C132 1.277 1_545 S
O131 Zn100 2.064 1_565 S
O131 C132 1.233 . S
C132 O130 1.277 1_565 S
C132 O131 1.233 . S
O133 Zn101 1.963 . S
O133 C140 1.268 . S
O134 Zn103 1.941 . S
O134 C142 1.277 . S
O135 Zn102 2.064 . S
O135 C142 1.233 . S
O136 Zn100 1.963 . S
O136 C143 1.268 . S
O137 Zn103 1.941 . S
O137 C145 1.272 1_545 S
O138 Zn101 2.064 . S
O138 C145 1.240 . S
O139 Zn102 1.963 . S
O139 C105 1.268 . S
C140 O133 1.268 . S
C140 O141 1.237 . S
O141 C140 1.237 . S
C142 O134 1.277 . S
C142 O135 1.233 . S
C143 O136 1.268 . S
C143 O144 1.237 . S
O144 C143 1.237 . S
C145 O137 1.272 1_565 S
C145 O138 1.240 . S
H146 C149 0.970 . S
H147 C149 0.971 . S
H148 C149 0.969 . S
C149 C110 1.481 . S
C149 H146 0.970 . S
C149 H147 0.971 . S
C149 H148 0.969 . S
Zn150 O154 1.978 . S
Zn150 N157 2.004 . S
Zn150 O181 2.064 . S
Zn150 O186 1.963 . S
Zn151 O154 1.978 1_554 S
Zn151 N162 2.004 . S
Zn151 O183 1.963 1_554 S
Zn151 O188 2.064 . S
Zn152 O154 1.978 1_554 S
Zn152 N171 2.004 1_554 S
Zn152 O185 2.064 . S
Zn152 O189 1.963 . S
Zn153 O154 1.913 . S
Zn153 O180 1.941 . S
Zn153 O184 1.941 1_556 S
Zn153 O187 1.941 1_556 S
O154 Zn150 1.978 . S
O154 Zn151 1.978 1_556 S
O154 Zn152 1.978 1_556 S
O154 Zn153 1.913 . S
C155 O156 1.237 . S
C155 O189 1.268 . S
O156 C155 1.237 . S
N157 Zn150 2.004 . S
N157 N158 1.383 . S
N157 C160 1.306 . S
N158 N157 1.383 . S
N158 C161 1.302 . S
N159 C160 1.368 . S
N159 C161 1.379 . S
C160 N157 1.306 . S
C160 N159 1.368 . S
C160 C199 1.481 . S
C161 N158 1.302 . S
C161 N159 1.379 . S
N162 Zn151 2.004 . S
N162 C165 1.306 . S
N162 N166 1.383 . S
C163 N164 1.379 . S
C163 N166 1.302 . S
N164 C163 1.379 . S
N164 C165 1.368 . S
C165 N162 1.306 . S
C165 N164 1.368 . S
C165 C168 1.481 . S
N166 N162 1.383 . S
N166 C163 1.302 . S
H167 C168 0.969 . S
C168 C165 1.481 . S
C168 H167 0.969 . S
C168 H169 0.970 . S
C168 H170 0.971 . S
H169 C168 0.970 . S
H170 C168 0.971 . S
N171 Zn152 2.004 1_556 S
N171 C172 1.306 1_556 S
N171 N174 1.383 . S
C172 N171 1.306 1_554 S
C172 N175 1.368 1_554 S
C172 C176 1.481 . S
C173 N174 1.302 . S
C173 N175 1.379 . S
N174 N171 1.383 . S
N174 C173 1.302 . S
N175 C172 1.368 1_556 S
N175 C173 1.379 . S
C176 C172 1.481 . S
C176 H177 0.971 . S
C176 H178 0.970 . S
C176 H179 0.969 . S
H177 C176 0.971 . S
H178 C176 0.970 . S
H179 C176 0.969 . S
O180 Zn153 1.941 . S
O180 C182 1.277 . S
O181 Zn150 2.064 . S
O181 C182 1.233 . S
C182 O180 1.277 . S
C182 O181 1.233 . S
O183 Zn151 1.963 1_556 S
O183 C190 1.268 . S
O184 Zn153 1.941 1_554 S
O184 C192 1.277 1_554 S
O185 Zn152 2.064 . S
O185 C192 1.233 1_554 S
O186 Zn150 1.963 . S
O186 C193 1.268 . S
O187 Zn153 1.941 1_554 S
O187 C195 1.277 . S
O188 Zn151 2.064 . S
O188 C195 1.233 . S
O189 Zn152 1.963 . S
O189 C155 1.268 . S
C190 O183 1.268 . S
C190 O191 1.237 1_556 S
O191 C190 1.237 1_554 S
C192 O184 1.277 1_556 S
C192 O185 1.233 1_556 S
C193 O186 1.268 . S
C193 O194 1.237 . S
O194 C193 1.237 . S
C195 O187 1.277 . S
C195 O188 1.233 . S
H196 C199 0.970 . S
H197 C199 0.971 . S
H198 C199 0.969 . S
C199 C160 1.481 . S
C199 H196 0.970 . S
C199 H197 0.971 . S
C199 H198 0.969 . S
C5 N59 1.565 1_655 S
C45 C123 3.023 1_565 S
N14 C93 3.129 1_455 S
C132 C13 1.403 . S
N9 C55 1.567 1_455 S
C23 C145 3.025 1_545 S
N64 C43 3.127 1_455 S
C113 C32 1.406 . S
C190 N25 0.935 . S
C192 C11 3.227 . S
C161 C42 3.230 . S
C40 N175 0.937 . S
C173 C95 3.029 . S
C63 C182 1.405 . S
C73 C195 3.027 . S
C163 C82 1.403 . S
C140 N75 0.936 . S
C61 C142 3.227 . S
C92 C111 3.229 . S
N125 C90 0.935 . S
N159 C105 1.565 . S
N114 C193 3.129 . S
C155 N109 1.567 . S
C143 N164 3.127 . S
