# Generated by pormake.
# Topology cds, (4)-cn, num edge types: 1
# Building blocks:
#     Node 0, Type 0, BuildingBlock: NAWXER_clean_sbu_0, # of connection points: 4
#     Node 1, Type 0, BuildingBlock: NAWXER_clean_sbu_0, # of connection points: 4
#     Edge 2, Type (0, 0), BuildingBlock: XIVTED_clean_linker_0, # of connection points: 2
#     Edge 3, Type (0, 0), BuildingBlock: XIVTED_clean_linker_0, # of connection points: 2
#     Edge 4, Type (0, 0), BuildingBlock: XIVTED_clean_linker_0, # of connection points: 2
#     Edge 5, Type (0, 0), BuildingBlock: XIVTED_clean_linker_0, # of connection points: 2
# Relax obj value: 0.000
# Max RMSD: 0.000
# Mean RMSD: 0.000
data_MOF--net-cds--node1-NAWXER_clean_sbu_0--edge1-XIVTED_clean_linker_0
_symmetry_space_group_name_H-M    P1
_symmetry_Int_Tables_number       1
_symmetry_cell_setting            triclinic
loop_
_symmetry_equiv_pos_as_xyz
'x, y, z'
_cell_length_a     14.937212
_cell_length_b     14.934434
_cell_length_c     29.519718
_cell_angle_alpha  95.962688
_cell_angle_beta   96.042868
_cell_angle_gamma 89.035472
loop_
_atom_site_label
_atom_site_type_symbol
_atom_site_fract_x
_atom_site_fract_y
_atom_site_fract_z
_atom_type_partial_charge
C0 C 0.10599 0.86903 0.99246 0.0
C1 C 0.77723 0.8669 0.98812 0.0
O2 O 0.05606 0.79971 0.98601 0.0
Zn3 Zn 0.94176 0.86426 0.99006 0.0
O4 O 0.06999 0.94728 0.99846 0.0
Zn5 Zn 0.9402 0.00779 1.00104 0.0
O6 O 0.94622 0.06872 0.06188 0.0
O7 O 0.95375 0.92065 0.06091 0.0
O8 O 0.81175 0.94573 0.99415 0.0
O9 O 0.82846 0.79826 0.98407 0.0
O10 O 0.93043 0.93342 0.92885 0.0
O11 O 0.93351 0.07963 0.95042 0.0
C12 C 0.9538 0.99908 0.08333 0.0
C13 C 0.92887 0.01503 0.9187 0.0
C14 C 0.13517 0.23572 0.52128 0.0
C15 C 0.13813 0.90689 0.51697 0.0
O16 O 0.2046 0.18541 0.52481 0.0
Zn17 Zn 0.1403 0.07116 0.51897 0.0
O18 O 0.05685 0.20008 0.51549 0.0
Zn19 Zn 0.9968 0.07064 0.50848 0.0
O20 O 0.92565 0.07596 0.55924 0.0
O21 O 0.072 0.08103 0.58046 0.0
O22 O 0.05928 0.94171 0.51118 0.0
O23 O 0.2067 0.95784 0.5229 0.0
O24 O 0.08302 0.05871 0.44826 0.0
O25 O 0.93504 0.06405 0.44778 0.0
C26 C 0.9906 0.08132 0.59082 0.0
C27 C 0.00428 0.05763 0.42608 0.0
H28 H 0.03563 0.88234 0.13999 0.0
H29 H 0.8658 0.11766 0.36846 0.0
H30 H 0.89084 0.1349 0.1414 0.0
H31 H 0.12136 0.9785 0.36891 0.0
H32 H 0.85365 0.1049 0.28439 0.0
H33 H 0.04805 0.89683 0.22393 0.0
C34 C 0.00628 0.94068 0.158 0.0
C35 C 0.96235 0.00769 0.13385 0.0
C36 C 0.91227 0.07732 0.30306 0.0
C37 C 0.97498 0.02366 0.22941 0.0
C38 C 0.91903 0.08407 0.35085 0.0
C39 C 0.9948 0.04921 0.37554 0.0
C40 C 0.98061 0.03341 0.27995 0.0
C41 C 0.06211 0.00672 0.35112 0.0
C42 C 0.01373 0.94901 0.20575 0.0
C43 C 0.92577 0.08209 0.15881 0.0
N44 N 0.05308 0.99925 0.3046 0.0
N45 N 0.9321 0.08772 0.20532 0.0
H46 H 0.85721 0.90919 0.8431 0.0
H47 H 0.09664 0.15328 0.66633 0.0
H48 H 0.99541 0.16052 0.88437 0.0
H49 H 0.8464 0.01289 0.62535 0.0
H50 H 0.07249 0.14608 0.74676 0.0
H51 H 0.8633 0.93441 0.76273 0.0
C52 C 0.88834 0.9699 0.8352 0.0
C53 C 0.92598 0.03287 0.87032 0.0
C54 C 0.02253 0.11773 0.7201 0.0
C55 C 0.93456 0.06109 0.77882 0.0
C56 C 0.03639 0.12143 0.67431 0.0
C57 C 0.97342 0.08351 0.63925 0.0
C58 C 0.94644 0.07368 0.7308 0.0
C59 C 0.89636 0.04327 0.6514 0.0
C60 C 0.89142 0.98437 0.78944 0.0
C61 C 0.96528 0.11055 0.85826 0.0
N62 N 0.88564 0.03814 0.69624 0.0
N63 N 0.96982 0.12188 0.81344 0.0
H64 H 0.67245 0.71305 0.98041 0.0
H65 H 0.2247 0.00678 0.00786 0.0
H66 H 0.65578 1.00345 0.99332 0.0
H67 H 0.21386 0.71773 0.9773 0.0
H68 H 0.38573 1.00101 0.00617 0.0
H69 H 0.50768 0.70758 0.98146 0.0
C70 C 0.63442 0.7754 0.98331 0.0
C71 C 0.67825 0.85883 0.98696 0.0
C72 C 0.34877 0.93845 0.99973 0.0
C73 C 0.49108 0.85298 0.98838 0.0
C74 C 0.25617 0.94165 1.00077 0.0
C75 C 0.20513 0.86258 0.99252 0.0
C76 C 0.39208 0.8555 0.99037 0.0
C77 C 0.25062 0.78036 0.98377 0.0
C78 C 0.54061 0.77218 0.98393 0.0
C79 C 0.62565 0.93745 0.99062 0.0
N80 N 0.34186 0.77886 0.98286 0.0
N81 N 0.5355 0.93241 0.99133 0.0
H82 H 0.29172 0.80107 0.52951 0.0
H83 H 0.99719 0.35579 0.52114 0.0
H84 H 1.00174 0.78661 0.50588 0.0
H85 H 0.28699 0.34235 0.52541 0.0
H86 H 1.00318 0.51701 0.52082 0.0
H87 H 0.29701 0.63641 0.53202 0.0
C88 C 0.22944 0.76356 0.52476 0.0
C89 C 0.14617 0.80796 0.51757 0.0
C90 C 0.06587 0.47942 0.52178 0.0
C91 C 0.15178 0.62093 0.52066 0.0
C92 C 0.06251 0.38674 0.52203 0.0
C93 C 0.14173 0.33493 0.52301 0.0
C94 C 0.1491 0.52199 0.52247 0.0
C95 C 0.22423 0.37973 0.52451 0.0
C96 C 0.23254 0.66982 0.52622 0.0
C97 C 0.06762 0.75601 0.51162 0.0
N98 N 0.22588 0.47104 0.52408 0.0
N99 N 0.07253 0.66592 0.5134 0.0
loop_
_geom_bond_atom_site_label_1
_geom_bond_atom_site_label_2
_geom_bond_distance
_geom_bond_site_symmetry_2
_ccdc_geom_bond_type
C0 O2 1.251 1_554 S
C0 O4 1.257 1_565 S
C1 O8 1.251 1_556 S
C1 O9 1.254 1_545 S
O2 C0 1.251 1_556 S
O2 Zn3 2.025 . S
Zn3 O2 2.025 . S
Zn3 O7 2.035 1_556 S
Zn3 O9 2.036 1_455 S
Zn3 O10 2.028 1_455 S
O4 C0 1.257 1_545 S
O4 Zn5 2.036 . S
Zn5 O4 2.036 . S
Zn5 O6 2.028 . S
Zn5 O8 2.027 1_455 S
Zn5 O11 2.035 1_454 S
O6 Zn5 2.028 . S
O6 C12 1.251 . S
O7 Zn3 2.035 1_554 S
O7 C12 1.254 1_565 S
O8 C1 1.251 1_554 S
O8 Zn5 2.027 1_655 S
O9 C1 1.254 1_565 S
O9 Zn3 2.036 1_655 S
O10 Zn3 2.028 1_655 S
O10 C13 1.248 . S
O11 Zn5 2.035 1_656 S
O11 C13 1.257 1_545 S
C12 O6 1.251 . S
C12 O7 1.254 1_545 S
C13 O10 1.248 . S
C13 O11 1.257 1_565 S
C14 O16 1.251 . S
C14 O18 1.254 1_455 S
C15 O22 1.248 . S
C15 O23 1.256 1_655 S
O16 C14 1.251 . S
O16 Zn17 2.028 . S
Zn17 O16 2.028 . S
Zn17 O21 2.035 . S
Zn17 O23 2.035 1_545 S
Zn17 O24 2.028 1_545 S
O18 C14 1.254 1_655 S
O18 Zn19 2.023 1_545 S
Zn19 O18 2.023 1_565 S
Zn19 O20 2.029 1_565 S
Zn19 O22 2.040 . S
Zn19 O25 2.034 . S
O20 Zn19 2.029 1_545 S
O20 C26 1.248 . S
O21 Zn17 2.035 . S
O21 C26 1.256 1_455 S
O22 C15 1.248 . S
O22 Zn19 2.040 . S
O23 C15 1.256 1_455 S
O23 Zn17 2.035 1_565 S
O24 Zn17 2.028 1_565 S
O24 C27 1.251 . S
O25 Zn19 2.034 . S
O25 C27 1.254 1_655 S
C26 O20 1.248 . S
C26 O21 1.256 1_655 S
C27 O24 1.251 . S
C27 O25 1.254 1_455 S
H28 C34 0.930 . S
H29 C38 0.930 . S
H30 C43 0.929 . S
H31 C41 0.929 . S
H32 C36 0.929 . S
H33 C42 0.929 . S
C34 H28 0.930 . S
C34 C35 1.374 . S
C34 C42 1.378 . S
C35 C34 1.374 . S
C35 C43 1.428 1_465 S
C36 H32 0.929 . S
C36 C38 1.378 . S
C36 C40 1.350 . S
C37 C40 1.463 1_465 S
C37 C42 1.350 . S
C37 N45 1.427 1_465 S
C38 H29 0.930 . S
C38 C36 1.378 . S
C38 C39 1.367 . S
C39 C38 1.367 . S
C39 C41 1.433 1_645 S
C40 C36 1.350 . S
C40 C37 1.463 1_645 S
C40 N44 1.427 1_645 S
C41 H31 0.929 . S
C41 C39 1.433 1_465 S
C41 N44 1.384 . S
C42 H33 0.929 . S
C42 C34 1.378 . S
C42 C37 1.350 . S
C43 H30 0.929 . S
C43 C35 1.428 1_645 S
C43 N45 1.384 . S
N44 C40 1.427 1_465 S
N44 C41 1.384 . S
N45 C37 1.427 1_645 S
N45 C43 1.384 . S
H46 C52 0.930 . S
H47 C56 0.930 . S
H48 C61 0.929 . S
H49 C59 0.929 . S
H50 C54 0.929 . S
H51 C60 0.929 . S
C52 H46 0.930 . S
C52 C53 1.367 . S
C52 C60 1.378 . S
C53 C52 1.367 . S
C53 C61 1.433 1_665 S
C54 H50 0.929 . S
C54 C56 1.378 . S
C54 C58 1.350 . S
C55 C58 1.463 1_665 S
C55 C60 1.350 . S
C55 N63 1.427 1_665 S
C56 H47 0.930 . S
C56 C54 1.378 . S
C56 C57 1.367 . S
C57 C56 1.367 . S
C57 C59 1.433 1_445 S
C58 C54 1.350 . S
C58 C55 1.463 1_445 S
C58 N62 1.427 1_445 S
C59 H49 0.929 . S
C59 C57 1.433 1_665 S
C59 N62 1.384 . S
C60 H51 0.929 . S
C60 C52 1.378 . S
C60 C55 1.350 . S
C61 H48 0.929 . S
C61 C53 1.433 1_445 S
C61 N63 1.384 . S
N62 C58 1.427 1_665 S
N62 C59 1.384 . S
N63 C55 1.427 1_445 S
N63 C61 1.384 . S
H64 C70 0.930 . S
H65 C74 0.930 . S
H66 C79 0.929 . S
H67 C77 0.929 . S
H68 C72 0.929 . S
H69 C78 0.929 . S
C70 H64 0.930 . S
C70 C71 1.382 . S
C70 C78 1.378 . S
C71 C70 1.382 . S
C71 C79 1.420 1_564 S
C72 H68 0.929 . S
C72 C74 1.378 . S
C72 C76 1.365 . S
C73 C76 1.465 1_564 S
C73 C78 1.350 . S
C73 N81 1.427 1_564 S
C74 H65 0.930 . S
C74 C72 1.378 . S
C74 C75 1.378 . S
C75 C74 1.378 . S
C75 C77 1.424 1_546 S
C76 C72 1.365 . S
C76 C73 1.465 1_546 S
C76 N80 1.409 1_546 S
C77 H67 0.929 . S
C77 C75 1.424 1_564 S
C77 N80 1.384 . S
C78 H69 0.929 . S
C78 C70 1.378 . S
C78 C73 1.350 . S
C79 H66 0.929 . S
C79 C71 1.420 1_546 S
C79 N81 1.384 . S
N80 C76 1.409 1_564 S
N80 C77 1.384 . S
N81 C73 1.427 1_546 S
N81 C79 1.384 . S
H82 C88 0.930 . S
H83 C92 0.930 . S
H84 C97 0.929 . S
H85 C95 0.929 . S
H86 C90 0.929 . S
H87 C96 0.929 . S
C88 H82 0.930 . S
C88 C89 1.369 . S
C88 C96 1.378 . S
C89 C88 1.369 . S
C89 C97 1.431 1_455 S
C90 H86 0.929 . S
C90 C92 1.378 . S
C90 C94 1.353 . S
C91 C94 1.462 1_455 S
C91 C96 1.354 . S
C91 N99 1.424 1_455 S
C92 H83 0.930 . S
C92 C90 1.378 . S
C92 C93 1.368 . S
C93 C92 1.368 . S
C93 C95 1.432 1_655 S
C94 C90 1.353 . S
C94 C91 1.462 1_655 S
C94 N98 1.425 1_655 S
C95 H85 0.929 . S
C95 C93 1.432 1_455 S
C95 N98 1.384 . S
C96 H87 0.929 . S
C96 C88 1.378 . S
C96 C91 1.354 . S
C97 H84 0.929 . S
C97 C89 1.431 1_655 S
C97 N99 1.384 . S
N98 C94 1.425 1_455 S
N98 C95 1.384 . S
N99 C91 1.424 1_655 S
N99 C97 1.384 . S
C35 C12 1.495 1_565 S
C39 C27 1.497 1_645 S
C53 C13 1.497 . S
C57 C26 1.501 1_455 S
C71 C1 1.495 1_564 S
C75 C0 1.496 1_546 S
C89 C15 1.497 1_455 S
C93 C14 1.497 1_655 S
