# Generated by pormake.
# Topology cdl, (4)-cn, num edge types: 1
# Building blocks:
#     Node 0, Type 0, BuildingBlock: ESEHIV_clean_sbu_0, # of connection points: 4
#     Node 1, Type 0, BuildingBlock: ESEHIV_clean_sbu_0, # of connection points: 4
#     Node 2, Type 0, BuildingBlock: ESEHIV_clean_sbu_0, # of connection points: 4
#     Node 3, Type 0, BuildingBlock: ESEHIV_clean_sbu_0, # of connection points: 4
#     Edge 4, Type (0, 0), BuildingBlock: CIFDUS_clean_linker_0, # of connection points: 2
#     Edge 5, Type (0, 0), BuildingBlock: CIFDUS_clean_linker_0, # of connection points: 2
#     Edge 6, Type (0, 0), BuildingBlock: CIFDUS_clean_linker_0, # of connection points: 2
#     Edge 7, Type (0, 0), BuildingBlock: CIFDUS_clean_linker_0, # of connection points: 2
#     Edge 8, Type (0, 0), BuildingBlock: CIFDUS_clean_linker_0, # of connection points: 2
#     Edge 9, Type (0, 0), BuildingBlock: CIFDUS_clean_linker_0, # of connection points: 2
#     Edge 10, Type (0, 0), BuildingBlock: CIFDUS_clean_linker_0, # of connection points: 2
#     Edge 11, Type (0, 0), BuildingBlock: CIFDUS_clean_linker_0, # of connection points: 2
# Relax obj value: 0.000
# Max RMSD: 0.146
# Mean RMSD: 0.094
data_MOF--net-cdl--node1-ESEHIV_clean_sbu_0--edge1-CIFDUS_clean_linker_0
_symmetry_space_group_name_H-M    P1
_symmetry_Int_Tables_number       1
_symmetry_cell_setting            triclinic
loop_
_symmetry_equiv_pos_as_xyz
'x, y, z'
_cell_length_a     12.883753
_cell_length_b     15.180279
_cell_length_c     55.912708
_cell_angle_alpha  101.00445
_cell_angle_beta   100.24839
_cell_angle_gamma 88.063164
loop_
_atom_site_label
_atom_site_type_symbol
_atom_site_fract_x
_atom_site_fract_y
_atom_site_fract_z
_atom_type_partial_charge
Cu0 Cu 0.03748 0.14923 0.1275 0.0
N1 N 0.96029 0.04288 0.12139 0.0
N2 N 0.92054 0.89964 0.12038 0.0
C3 C 0.9843 0.96992 0.13176 0.0
C4 C 0.85436 0.93008 0.10213 0.0
C5 C 0.87957 1.01789 0.1027 0.0
O6 O 0.11857 0.16258 0.161 0.0
C7 C 0.15183 0.18725 0.08938 0.0
O8 O 0.1536 0.27296 0.09923 0.0
H9 H 0.04942 0.96789 0.14682 0.0
H10 H 0.84493 0.05935 0.08963 0.0
N11 N 0.94327 0.24589 0.12587 0.0
N12 N 0.8759 0.38351 0.12493 0.0
C13 C 0.96452 0.33294 0.12666 0.0
C14 C 0.83801 0.24183 0.1242 0.0
C15 C 0.79633 0.32608 0.12352 0.0
C16 C 0.0629 0.16499 0.17784 0.0
O17 O 0.95977 0.16097 0.1713 0.0
H18 H 0.04319 0.35858 0.12838 0.0
H19 H 0.79433 0.18189 0.12379 0.0
O20 O 0.11682 0.13089 0.10023 0.0
H21 H 0.79558 0.8905 0.08841 0.0
H22 H 0.71372 0.34355 0.12236 0.0
Cu23 Cu 0.28096 0.28764 0.66963 0.0
N24 N 0.31353 0.21708 0.69401 0.0
N25 N 0.30899 0.16977 0.72938 0.0
C26 C 0.26759 0.22608 0.71416 0.0
C27 C 0.38448 0.12344 0.71832 0.0
C28 C 0.38689 0.15263 0.69644 0.0
O29 O 0.15809 0.35791 0.67785 0.0
C30 C 0.48423 0.37238 0.68553 0.0
O31 O 0.48314 0.34918 0.70694 0.0
H32 H 0.20654 0.27489 0.71786 0.0
H33 H 0.43919 0.12944 0.6834 0.0
N34 N 0.25039 0.21591 0.63806 0.0
N35 N 0.23274 0.177 0.59687 0.0
C36 C 0.24848 0.24478 0.61664 0.0
C37 C 0.23618 0.12651 0.63168 0.0
C38 C 0.22536 0.10225 0.60623 0.0
C39 C 0.07384 0.36753 0.66275 0.0
O40 O 0.07156 0.3404 0.63893 0.0
H41 H 0.26095 0.31409 0.61567 0.0
H42 H 0.23566 0.082 0.64463 0.0
O43 O 0.40246 0.35901 0.66875 0.0
H44 H 0.43389 0.07182 0.72541 0.0
H45 H 0.21272 1.03504 0.59547 0.0
Cu46 Cu 0.03532 0.16528 0.89637 0.0
N47 N 0.94131 0.06799 0.88883 0.0
N48 N 0.87628 0.93048 0.8858 0.0
C49 C 0.96336 0.98301 0.89197 0.0
C50 C 0.79691 0.98465 0.87818 0.0
C51 C 0.83716 0.0691 0.88008 0.0
O52 O 0.12632 0.16505 0.92845 0.0
C53 C 0.04504 0.16873 0.84814 0.0
O54 O 0.94362 0.17725 0.84869 0.0
H55 H 0.04112 0.96141 0.89956 0.0
H56 H 0.79328 0.12754 0.87561 0.0
N57 N 0.96208 0.27412 0.90005 0.0
N58 N 0.92508 0.41934 0.9001 0.0
C59 C 0.99006 0.35027 0.89382 0.0
C60 C 0.87687 0.29542 0.91079 0.0
C61 C 0.85355 0.38479 0.91076 0.0
C62 C 0.08541 0.14005 0.94525 0.0
O63 O 0.98735 0.11188 0.94003 0.0
H64 H 0.05717 0.35458 0.8849 0.0
H65 H 0.83598 0.24964 0.91855 0.0
O66 O 0.10719 0.16058 0.86809 0.0
H67 H 0.71528 0.96501 0.87169 0.0
H68 H 0.79064 0.42186 0.91867 0.0
Cu69 Cu 0.23439 1.03402 0.38134 0.0
N70 N 0.24228 0.10633 0.35808 0.0
N71 N 0.21636 0.1511 0.32159 0.0
C72 C 0.1816 0.09865 0.33552 0.0
C73 C 0.3021 0.19375 0.336 0.0
C74 C 0.31777 0.1661 0.35853 0.0
O75 O 0.36345 0.96197 0.38421 0.0
C76 C 0.04478 0.94495 0.38491 0.0
O77 O 0.08488 0.95208 0.40847 0.0
H78 H 0.1165 0.05192 0.32902 0.0
H79 H 0.3821 0.18532 0.37379 0.0
N80 N 0.23283 0.10582 0.4125 0.0
N81 N 0.24022 0.14534 0.45358 0.0
C82 C 0.25442 0.07891 0.43449 0.0
C83 C 0.20559 0.19265 0.41772 0.0
C84 C 0.21015 0.21726 0.44295 0.0
C85 C 0.41762 0.94269 0.36689 0.0
O86 O 0.37681 0.95731 0.34473 0.0
H87 H 0.27648 1.01071 0.43614 0.0
H88 H 0.18249 0.2347 0.40408 0.0
O89 O 0.10041 0.9683 0.37041 0.0
H90 H 0.35078 0.24051 0.33054 0.0
H91 H 0.19185 0.28321 0.45253 0.0
H92 H 0.02696 0.51166 0.14182 0.0
H93 H 0.70374 0.46905 0.10476 0.0
H94 H 0.68772 0.62644 0.10152 0.0
H95 H 0.76592 0.77529 0.10797 0.0
H96 H 0.09165 0.81765 0.14292 0.0
H97 H 0.10553 0.66186 0.14836 0.0
C98 C 0.95319 0.53644 0.13289 0.0
C99 C 0.86678 0.47775 0.1236 0.0
C100 C 0.94466 0.62738 0.13074 0.0
C101 C 0.77131 0.51218 0.11245 0.0
C102 C 0.76212 0.6024 0.11041 0.0
C103 C 0.84031 0.75061 0.11662 0.0
C104 C 0.92759 0.80869 0.12485 0.0
C105 C 0.84842 0.66043 0.11932 0.0
C106 C 1.02259 0.77535 0.13657 0.0
C107 C 0.03094 0.68577 0.13954 0.0
H108 H 0.6778 0.3937 0.71525 0.0
H109 H 0.51913 0.40201 0.64087 0.0
H110 H 0.68853 0.41168 0.62788 0.0
H111 H 0.88161 0.39876 0.63632 0.0
H112 H 0.04059 0.38861 0.71054 0.0
H113 H 0.87164 0.39983 0.72484 0.0
C114 C 0.68004 0.39926 0.6963 0.0
C115 C 0.58552 0.39577 0.67903 0.0
C116 C 0.77811 0.40364 0.6888 0.0
C117 C 0.59033 0.40384 0.65459 0.0
C118 C 0.68741 0.40901 0.64707 0.0
C119 C 0.87958 0.40055 0.65572 0.0
C120 C 0.97387 0.3916 0.67221 0.0
C121 C 0.78184 0.40599 0.66382 0.0
C122 C 0.96951 0.39497 0.69735 0.0
C123 C 0.87266 0.40095 0.70556 0.0
H124 H 0.76833 0.54214 0.89781 0.0
H125 H 0.10004 0.50483 0.89524 0.0
H126 H 0.11368 0.6594 0.88997 0.0
H127 H 0.03208 0.80612 0.88645 0.0
H128 H 0.70187 0.84467 0.89069 0.0
H129 H 0.68747 0.68917 0.89493 0.0
C130 C 0.8439 0.56779 0.89633 0.0
C131 C 0.93284 0.51114 0.89692 0.0
C132 C 0.85161 0.65734 0.89353 0.0
C133 C 0.02968 0.54585 0.89452 0.0
C134 C 0.03784 0.63474 0.89166 0.0
C135 C 0.95711 0.78095 0.8885 0.0
C136 C 0.86827 0.83776 0.88816 0.0
C137 C 0.94939 0.69122 0.8912 0.0
C138 C 0.77143 0.80282 0.89048 0.0
C139 C 0.76314 0.71373 0.89308 0.0
H140 H 0.56295 0.9276 0.33626 0.0
H141 H 0.53112 0.91289 0.41097 0.0
H142 H 0.72254 0.90269 0.42239 0.0
H143 H 0.8993 0.91374 0.41235 0.0
H144 H 0.93117 0.9346 0.33806 0.0
H145 H 0.73978 0.92564 0.32533 0.0
C146 C 0.59752 0.92065 0.35496 0.0
C147 C 0.53211 0.92168 0.37275 0.0
C148 C 0.7081 0.91668 0.36157 0.0
C149 C 0.57902 0.91262 0.39688 0.0
C150 C 0.68877 0.90712 0.40347 0.0
C151 C 0.86475 0.91496 0.39326 0.0
C152 C 0.93017 0.92553 0.37627 0.0
C153 C 0.75421 0.91151 0.38614 0.0
C154 C 0.88329 0.9268 0.3516 0.0
C155 C 0.77355 0.922 0.34431 0.0
H156 H 0.09105 1.0239 0.97615 0.0
H157 H 0.19351 0.28771 0.97288 0.0
H158 H 0.23639 0.32371 0.01824 0.0
H159 H 0.21779 0.28686 0.05865 0.0
H160 H 0.11795 1.02018 0.06097 0.0
H161 H 0.1031 0.97827 1.01632 0.0
C162 C 0.12576 0.08832 0.98541 0.0
C163 C 0.13878 0.15324 0.97134 0.0
C164 C 0.14934 0.10844 1.01136 0.0
C165 C 0.18377 0.23645 0.98339 0.0
C166 C 0.20711 0.25729 1.00932 0.0
C167 C 0.19503 0.219 0.04946 0.0
C168 C 0.16684 0.15758 0.06325 0.0
C169 C 0.18623 0.19493 0.02353 0.0
C170 C 0.13893 0.0695 0.05097 0.0
C171 C 0.12996 0.04531 0.02533 0.0
H172 H 0.16974 0.26493 0.49006 0.0
H173 H 0.33144 1.01096 0.47636 0.0
H174 H 0.33972 0.99697 0.5192 0.0
H175 H 0.30227 0.0567 0.56103 0.0
H176 H 0.14874 0.3133 0.57507 0.0
H177 H 0.13782 0.32677 0.53182 0.0
C178 C 0.2079 0.20674 0.49627 0.0
C179 C 0.24904 0.13896 0.47947 0.0
C180 C 0.21414 0.19948 0.52122 0.0
C181 C 0.29721 0.06393 0.48837 0.0
C182 C 0.30262 0.05585 0.51307 0.0
C183 C 0.26588 0.1152 0.55454 0.0
C184 C 0.22615 0.18381 0.57124 0.0
C185 C 0.261 0.12298 0.52966 0.0
C186 C 0.18068 0.25996 0.56265 0.0
C187 C 0.1741 0.26751 0.53789 0.0
H188 H 0.32387 0.17694 0.28602 0.0
H189 H 1.01213 0.13539 0.29989 0.0
H190 H 0.93784 0.13784 0.25672 0.0
H191 H 0.961 0.14909 0.21511 0.0
H192 H 0.2718 0.18684 0.2 0.0
H193 H 0.34703 0.18914 0.24363 0.0
C194 C 0.23963 0.16935 0.2796 0.0
C195 C 0.17354 0.15593 0.29619 0.0
C196 C 0.19744 0.16991 0.25457 0.0
C197 C 0.0647 0.14485 0.28749 0.0
C198 C 1.02217 0.14657 0.26283 0.0
C199 C 0.0453 0.15819 0.22127 0.0
C200 C 0.11059 0.16796 0.20423 0.0
C201 C 0.08778 0.15849 0.24619 0.0
C202 C 0.21967 0.17912 0.21267 0.0
C203 C 0.26266 0.18047 0.23763 0.0
H204 H 0.1176 0.20381 0.74179 0.0
H205 H 0.43104 0.11804 0.76933 0.0
H206 H 0.37888 0.11004 0.80894 0.0
H207 H 0.24286 0.13006 0.83614 0.0
H208 H 0.93036 0.21589 0.8071 0.0
H209 H 0.98413 0.22251 0.76809 0.0
C210 C 0.17502 0.18417 0.75649 0.0
C211 C 0.2783 0.16227 0.75257 0.0
C212 C 0.14463 0.18 0.77914 0.0
C213 C 0.35075 0.13476 0.77173 0.0
C214 C 0.32109 0.13068 0.79447 0.0
C215 C 0.18684 0.15033 0.82127 0.0
C216 C 0.08264 0.17241 0.82471 0.0
C217 C 0.2181 0.15354 0.79846 0.0
C218 C 1.01095 0.19814 0.80513 0.0
C219 C 0.04152 0.20209 0.78269 0.0
loop_
_geom_bond_atom_site_label_1
_geom_bond_atom_site_label_2
_geom_bond_distance
_geom_bond_site_symmetry_2
_ccdc_geom_bond_type
Cu0 N1 1.999 1_545 S
Cu0 O6 1.974 . S
Cu0 N11 1.985 . S
Cu0 O20 1.959 . S
N1 Cu0 1.999 1_565 S
N1 C3 1.263 . S
N1 C5 1.389 . S
N2 C3 1.358 . S
N2 C4 1.400 . S
C3 N1 1.263 . S
C3 N2 1.358 . S
C3 H9 0.930 . S
C4 N2 1.400 . S
C4 C5 1.351 . S
C4 H21 0.930 . S
C5 N1 1.389 . S
C5 C4 1.351 . S
C5 H10 0.930 . S
O6 Cu0 1.974 . S
O6 C16 1.282 . S
C7 O8 1.261 . S
C7 O20 1.251 . S
O8 C7 1.261 . S
H9 C3 0.930 . S
H10 C5 0.930 . S
N11 Cu0 1.985 . S
N11 C13 1.335 . S
N11 C14 1.390 . S
N12 C13 1.345 . S
N12 C15 1.336 . S
C13 N11 1.335 . S
C13 N12 1.345 . S
C13 H18 0.930 . S
C14 N11 1.390 . S
C14 C15 1.346 . S
C14 H19 0.930 . S
C15 N12 1.336 . S
C15 C14 1.346 . S
C15 H22 0.929 . S
C16 O6 1.282 . S
C16 O17 1.216 . S
O17 C16 1.216 . S
H18 C13 0.930 . S
H19 C14 0.930 . S
O20 Cu0 1.959 . S
O20 C7 1.251 . S
H21 C4 0.930 . S
H22 C15 0.929 . S
Cu23 N24 1.999 . S
Cu23 O29 1.974 1_455 S
Cu23 N34 1.985 . S
Cu23 O43 1.959 . S
N24 Cu23 1.999 . S
N24 C26 1.263 . S
N24 C28 1.389 . S
N25 C26 1.358 . S
N25 C27 1.400 . S
C26 N24 1.263 . S
C26 N25 1.358 . S
C26 H32 0.930 1_455 S
C27 N25 1.400 . S
C27 C28 1.351 . S
C27 H44 0.930 . S
C28 N24 1.389 . S
C28 C27 1.351 . S
C28 H33 0.930 . S
O29 Cu23 1.974 1_655 S
O29 C39 1.282 . S
C30 O31 1.261 . S
C30 O43 1.251 . S
O31 C30 1.261 . S
H32 C26 0.930 1_655 S
H33 C28 0.930 . S
N34 Cu23 1.985 . S
N34 C36 1.335 . S
N34 C37 1.390 1_455 S
N35 C36 1.345 . S
N35 C38 1.336 1_455 S
C36 N34 1.335 . S
C36 N35 1.345 . S
C36 H41 0.930 . S
C37 N34 1.390 1_655 S
C37 C38 1.346 . S
C37 H42 0.930 . S
C38 N35 1.336 1_655 S
C38 C37 1.346 . S
C38 H45 0.929 . S
C39 O29 1.282 . S
C39 O40 1.216 . S
O40 C39 1.216 . S
H41 C36 0.930 . S
H42 C37 0.930 . S
O43 Cu23 1.959 . S
O43 C30 1.251 . S
H44 C27 0.930 . S
H45 C38 0.929 . S
Cu46 N47 1.999 . S
Cu46 O52 1.974 . S
Cu46 N57 1.985 . S
Cu46 O66 1.959 . S
N47 Cu46 1.999 . S
N47 C49 1.263 1_545 S
N47 C51 1.389 1_545 S
N48 C49 1.358 . S
N48 C50 1.400 . S
C49 N47 1.263 1_565 S
C49 N48 1.358 . S
C49 H55 0.930 1_455 S
C50 N48 1.400 . S
C50 C51 1.351 . S
C50 H67 0.930 . S
C51 N47 1.389 1_565 S
C51 C50 1.351 . S
C51 H56 0.930 . S
O52 Cu46 1.974 . S
O52 C62 1.282 1_455 S
C53 O54 1.261 . S
C53 O66 1.251 1_655 S
O54 C53 1.261 . S
H55 C49 0.930 1_655 S
H56 C51 0.930 . S
N57 Cu46 1.985 . S
N57 C59 1.335 . S
N57 C60 1.390 1_455 S
N58 C59 1.345 . S
N58 C61 1.336 1_455 S
C59 N57 1.335 . S
C59 N58 1.345 . S
C59 H64 0.930 . S
C60 N57 1.390 1_655 S
C60 C61 1.346 . S
C60 H65 0.930 . S
C61 N58 1.336 1_655 S
C61 C60 1.346 . S
C61 H68 0.929 . S
C62 O52 1.282 1_655 S
C62 O63 1.216 . S
O63 C62 1.216 . S
H64 C59 0.930 . S
H65 C60 0.930 . S
O66 Cu46 1.959 . S
O66 C53 1.251 1_455 S
H67 C50 0.930 . S
H68 C61 0.929 . S
Cu69 N70 1.999 . S
Cu69 O75 1.974 . S
Cu69 N80 1.985 . S
Cu69 O89 1.959 1_455 S
N70 Cu69 1.999 . S
N70 C72 1.263 . S
N70 C74 1.389 . S
N71 C72 1.358 . S
N71 C73 1.400 . S
C72 N70 1.263 . S
C72 N71 1.358 . S
C72 H78 0.930 . S
C73 N71 1.400 . S
C73 C74 1.351 . S
C73 H90 0.930 1_455 S
C74 N70 1.389 . S
C74 C73 1.351 . S
C74 H79 0.930 1_455 S
O75 Cu69 1.974 . S
O75 C85 1.282 . S
C76 O77 1.261 1_545 S
C76 O89 1.251 . S
O77 C76 1.261 1_565 S
H78 C72 0.930 . S
H79 C74 0.930 1_655 S
N80 Cu69 1.985 . S
N80 C82 1.335 . S
N80 C83 1.390 . S
N81 C82 1.345 . S
N81 C84 1.336 . S
C82 N80 1.335 . S
C82 N81 1.345 . S
C82 H87 0.930 . S
C83 N80 1.390 . S
C83 C84 1.346 . S
C83 H88 0.930 . S
C84 N81 1.336 . S
C84 C83 1.346 . S
C84 H91 0.929 . S
C85 O75 1.282 . S
C85 O86 1.216 1_545 S
O86 C85 1.216 1_565 S
H87 C82 0.930 . S
H88 C83 0.930 . S
O89 Cu69 1.959 1_655 S
O89 C76 1.251 . S
H90 C73 0.930 1_655 S
H91 C84 0.929 . S
H92 C98 0.930 . S
H93 C101 0.930 . S
H94 C102 0.930 . S
H95 C103 0.930 . S
H96 C106 0.930 . S
H97 C107 0.930 . S
C98 H92 0.930 . S
C98 C99 1.355 . S
C98 C100 1.415 . S
C99 C98 1.355 . S
C99 C101 1.419 . S
C100 C98 1.415 . S
C100 C105 1.425 . S
C100 C107 1.409 . S
C101 H93 0.930 . S
C101 C99 1.419 . S
C101 C102 1.362 . S
C102 H94 0.930 . S
C102 C101 1.362 . S
C102 C105 1.409 . S
C103 H95 0.930 . S
C103 C104 1.355 . S
C103 C105 1.415 . S
C104 C103 1.355 . S
C104 C106 1.419 . S
C105 C100 1.425 . S
C105 C102 1.409 . S
C105 C103 1.415 . S
C106 H96 0.930 . S
C106 C104 1.419 . S
C106 C107 1.362 . S
C107 H97 0.930 . S
C107 C100 1.409 . S
C107 C106 1.362 . S
H108 C114 0.930 . S
H109 C117 0.930 . S
H110 C118 0.930 . S
H111 C119 0.930 . S
H112 C122 0.930 . S
H113 C123 0.930 . S
C114 H108 0.930 . S
C114 C115 1.355 . S
C114 C116 1.415 . S
C115 C114 1.355 . S
C115 C117 1.419 . S
C116 C114 1.415 . S
C116 C121 1.425 . S
C116 C123 1.409 . S
C117 H109 0.930 . S
C117 C115 1.419 . S
C117 C118 1.362 . S
C118 H110 0.930 . S
C118 C117 1.362 . S
C118 C121 1.409 . S
C119 H111 0.930 . S
C119 C120 1.355 . S
C119 C121 1.415 . S
C120 C119 1.355 . S
C120 C122 1.419 . S
C121 C116 1.425 . S
C121 C118 1.409 . S
C121 C119 1.415 . S
C122 H112 0.930 . S
C122 C120 1.419 . S
C122 C123 1.362 . S
C123 H113 0.930 . S
C123 C116 1.409 . S
C123 C122 1.362 . S
H124 C130 0.930 . S
H125 C133 0.930 . S
H126 C134 0.930 . S
H127 C135 0.930 . S
H128 C138 0.930 . S
H129 C139 0.930 . S
C130 H124 0.930 . S
C130 C131 1.355 1_655 S
C130 C132 1.415 . S
C131 C130 1.355 1_455 S
C131 C133 1.419 . S
C132 C130 1.415 . S
C132 C137 1.425 1_655 S
C132 C139 1.409 . S
C133 H125 0.930 . S
C133 C131 1.419 . S
C133 C134 1.362 . S
C134 H126 0.930 . S
C134 C133 1.362 . S
C134 C137 1.409 . S
C135 H127 0.930 . S
C135 C136 1.355 . S
C135 C137 1.415 . S
C136 C135 1.355 . S
C136 C138 1.419 1_455 S
C137 C132 1.425 1_455 S
C137 C134 1.409 . S
C137 C135 1.415 . S
C138 H128 0.930 . S
C138 C136 1.419 1_655 S
C138 C139 1.362 . S
C139 H129 0.930 . S
C139 C132 1.409 . S
C139 C138 1.362 . S
H140 C146 0.930 1_565 S
H141 C149 0.930 . S
H142 C150 0.930 . S
H143 C151 0.930 . S
H144 C154 0.930 1_565 S
H145 C155 0.930 1_565 S
C146 H140 0.930 1_545 S
C146 C147 1.355 . S
C146 C148 1.415 . S
C147 C146 1.355 . S
C147 C149 1.419 . S
C148 C146 1.415 . S
C148 C153 1.425 . S
C148 C155 1.409 . S
C149 H141 0.930 . S
C149 C147 1.419 . S
C149 C150 1.362 . S
C150 H142 0.930 . S
C150 C149 1.362 . S
C150 C153 1.409 . S
C151 H143 0.930 . S
C151 C152 1.355 . S
C151 C153 1.415 . S
C152 C151 1.355 . S
C152 C154 1.419 . S
C153 C148 1.425 . S
C153 C150 1.409 . S
C153 C151 1.415 . S
C154 H144 0.930 1_545 S
C154 C152 1.419 . S
C154 C155 1.362 . S
C155 H145 0.930 1_545 S
C155 C148 1.409 . S
C155 C154 1.362 . S
H156 C162 0.930 . S
H157 C165 0.930 . S
H158 C166 0.930 1_554 S
H159 C167 0.930 . S
H160 C170 0.930 1_565 S
H161 C171 0.930 1_566 S
C162 H156 0.930 . S
C162 C163 1.355 1_655 S
C162 C164 1.415 1_655 S
C163 C162 1.355 1_455 S
C163 C165 1.419 . S
C164 C162 1.415 1_455 S
C164 C169 1.425 1_556 S
C164 C171 1.409 1_556 S
C165 H157 0.930 . S
C165 C163 1.419 . S
C165 C166 1.362 . S
C166 H158 0.930 1_556 S
C166 C165 1.362 . S
C166 C169 1.409 1_556 S
C167 H159 0.930 . S
C167 C168 1.355 . S
C167 C169 1.415 . S
C168 C167 1.355 . S
C168 C170 1.419 . S
C169 C164 1.425 1_554 S
C169 C166 1.409 1_554 S
C169 C167 1.415 . S
C170 H160 0.930 1_545 S
C170 C168 1.419 . S
C170 C171 1.362 . S
C171 H161 0.930 1_544 S
C171 C164 1.409 1_554 S
C171 C170 1.362 . S
H172 C178 0.930 . S
H173 C181 0.930 1_565 S
H174 C182 0.930 1_565 S
H175 C183 0.930 . S
H176 C186 0.930 1_655 S
H177 C187 0.930 1_655 S
C178 H172 0.930 . S
C178 C179 1.355 . S
C178 C180 1.415 . S
C179 C178 1.355 . S
C179 C181 1.419 . S
C180 C178 1.415 . S
C180 C185 1.425 . S
C180 C187 1.409 . S
C181 H173 0.930 1_545 S
C181 C179 1.419 . S
C181 C182 1.362 . S
C182 H174 0.930 1_545 S
C182 C181 1.362 . S
C182 C185 1.409 . S
C183 H175 0.930 . S
C183 C184 1.355 . S
C183 C185 1.415 . S
C184 C183 1.355 . S
C184 C186 1.419 . S
C185 C180 1.425 . S
C185 C182 1.409 . S
C185 C183 1.415 . S
C186 H176 0.930 1_455 S
C186 C184 1.419 . S
C186 C187 1.362 . S
C187 H177 0.930 1_455 S
C187 C180 1.409 . S
C187 C186 1.362 . S
H188 C194 0.930 . S
H189 C197 0.930 1_655 S
H190 C198 0.930 1_655 S
H191 C199 0.930 . S
H192 C202 0.930 . S
H193 C203 0.930 . S
C194 H188 0.930 . S
C194 C195 1.355 . S
C194 C196 1.415 . S
C195 C194 1.355 . S
C195 C197 1.419 . S
C196 C194 1.415 . S
C196 C201 1.425 . S
C196 C203 1.409 . S
C197 H189 0.930 1_455 S
C197 C195 1.419 . S
C197 C198 1.362 . S
C198 H190 0.930 1_455 S
C198 C197 1.362 . S
C198 C201 1.409 . S
C199 H191 0.930 . S
C199 C200 1.355 . S
C199 C201 1.415 . S
C200 C199 1.355 . S
C200 C202 1.419 . S
C201 C196 1.425 . S
C201 C198 1.409 . S
C201 C199 1.415 . S
C202 H192 0.930 . S
C202 C200 1.419 . S
C202 C203 1.362 . S
C203 H193 0.930 . S
C203 C196 1.409 . S
C203 C202 1.362 . S
H204 C210 0.930 . S
H205 C213 0.930 . S
H206 C214 0.930 . S
H207 C215 0.930 . S
H208 C218 0.930 . S
H209 C219 0.930 . S
C210 H204 0.930 . S
C210 C211 1.355 1_655 S
C210 C212 1.415 . S
C211 C210 1.355 1_455 S
C211 C213 1.419 . S
C212 C210 1.415 . S
C212 C217 1.425 1_655 S
C212 C219 1.409 . S
C213 H205 0.930 . S
C213 C211 1.419 . S
C213 C214 1.362 . S
C214 H206 0.930 . S
C214 C213 1.362 . S
C214 C217 1.409 . S
C215 H207 0.930 . S
C215 C216 1.355 1_455 S
C215 C217 1.415 . S
C216 C215 1.355 1_655 S
C216 C218 1.419 . S
C217 C212 1.425 1_455 S
C217 C214 1.409 . S
C217 C215 1.415 . S
C218 H208 0.930 . S
C218 C216 1.419 . S
C218 C219 1.362 . S
C219 H209 0.930 . S
C219 C212 1.409 . S
C219 C218 1.362 . S
C99 N12 1.449 . S
C104 N2 1.434 . S
C115 C30 1.491 . S
C120 C39 1.480 . S
C131 N58 1.455 . S
C136 N48 1.467 . S
C147 C85 1.471 . S
C152 C76 1.481 . S
C163 C62 1.549 1_455 S
C168 C7 1.543 . S
C179 N81 1.485 . S
C184 N35 1.477 . S
C195 N71 1.411 . S
C200 C16 1.497 . S
C211 N25 1.567 . S
C216 C53 1.599 . S
