# Generated by pormake.
# Topology uni, (4)-cn, num edge types: 1
# Building blocks:
#     Node 0, Type 0, BuildingBlock: TATPOV_clean_sbu_0, # of connection points: 4
#     Node 1, Type 0, BuildingBlock: TATPOV_clean_sbu_0, # of connection points: 4
#     Node 2, Type 0, BuildingBlock: TATPOV_clean_sbu_0, # of connection points: 4
#     Node 3, Type 0, BuildingBlock: TATPOV_clean_sbu_0, # of connection points: 4
#     Node 4, Type 0, BuildingBlock: TATPOV_clean_sbu_0, # of connection points: 4
#     Node 5, Type 0, BuildingBlock: TATPOV_clean_sbu_0, # of connection points: 4
#     Edge 6, Type (0, 0), BuildingBlock: EYOCIG_clean_linker_4, # of connection points: 2
#     Edge 7, Type (0, 0), BuildingBlock: EYOCIG_clean_linker_4, # of connection points: 2
#     Edge 8, Type (0, 0), BuildingBlock: EYOCIG_clean_linker_4, # of connection points: 2
#     Edge 9, Type (0, 0), BuildingBlock: EYOCIG_clean_linker_4, # of connection points: 2
#     Edge 10, Type (0, 0), BuildingBlock: EYOCIG_clean_linker_4, # of connection points: 2
#     Edge 11, Type (0, 0), BuildingBlock: EYOCIG_clean_linker_4, # of connection points: 2
#     Edge 12, Type (0, 0), BuildingBlock: EYOCIG_clean_linker_4, # of connection points: 2
#     Edge 13, Type (0, 0), BuildingBlock: EYOCIG_clean_linker_4, # of connection points: 2
#     Edge 14, Type (0, 0), BuildingBlock: EYOCIG_clean_linker_4, # of connection points: 2
#     Edge 15, Type (0, 0), BuildingBlock: EYOCIG_clean_linker_4, # of connection points: 2
#     Edge 16, Type (0, 0), BuildingBlock: EYOCIG_clean_linker_4, # of connection points: 2
#     Edge 17, Type (0, 0), BuildingBlock: EYOCIG_clean_linker_4, # of connection points: 2
# Relax obj value: 0.033
# Max RMSD: 0.066
# Mean RMSD: 0.066
data_MOF--net-uni--node1-TATPOV_clean_sbu_0--edge1-EYOCIG_clean_linker_4
_symmetry_space_group_name_H-M    P1
_symmetry_Int_Tables_number       1
_symmetry_cell_setting            triclinic
loop_
_symmetry_equiv_pos_as_xyz
'x, y, z'
_cell_length_a     31.311285
_cell_length_b     31.312683
_cell_length_c     18.656905
_cell_angle_alpha  90.007041
_cell_angle_beta   90.009919
_cell_angle_gamma 120.02093
loop_
_atom_site_label
_atom_site_type_symbol
_atom_site_fract_x
_atom_site_fract_y
_atom_site_fract_z
_atom_type_partial_charge
Zn0 Zn 0.55127 0.93733 0.06096 0.0
Zn1 Zn 0.63728 0.01795 0.02383 0.0
O2 O 0.65792 0.96741 0.05466 0.0
O3 O 0.5878 0.90166 0.08552 0.0
O4 O 0.70151 0.07642 -0.00796 0.0
O5 O 0.52359 0.93378 0.96214 0.0
O6 O 0.59295 0.0015 0.93437 0.0
C7 C 0.63409 0.92337 0.07808 0.0
C8 C 0.57459 0.02455 0.14369 0.0
O9 O 0.61369 0.04518 0.1059 0.0
O10 O 0.54295 0.97945 0.13535 0.0
C11 C 0.74116 0.09141 0.02736 0.0
O12 O 0.7411 0.06934 0.08716 0.0
C13 C 0.54951 0.9676 0.91807 0.0
Zn14 Zn 0.63861 0.56011 0.22907 0.0
Zn15 Zn 0.64549 0.64666 0.19119 0.0
O16 O 0.71634 0.66638 0.22272 0.0
O17 O 0.71076 0.59584 0.25423 0.0
O18 O 0.65225 0.71116 0.15864 0.0
O19 O 0.61467 0.53247 0.13017 0.0
O20 O 0.61757 0.60231 0.10177 0.0
C21 C 0.73593 0.64209 0.2466 0.0
C22 C 0.57523 0.5847 0.31066 0.0
O23 O 0.59433 0.62378 0.27279 0.0
O24 O 0.58814 0.55264 0.30279 0.0
C25 C 0.67708 0.7509 0.19372 0.0
O26 O 0.6987 0.75084 0.25393 0.0
C27 C 0.6075 0.55869 0.08572 0.0
Zn28 Zn 0.10603 0.64889 0.3961 0.0
Zn29 Zn 0.02615 0.65525 0.35743 0.0
O30 O 0.07678 0.72618 0.38941 0.0
O31 O 0.14188 0.721 0.42149 0.0
O32 O 0.96811 0.66141 0.32451 0.0
O33 O 0.11033 0.62529 0.29725 0.0
O34 O 0.04328 0.62781 0.26815 0.0
C35 C 0.12059 0.74595 0.4137 0.0
C36 C 0.01786 0.58504 0.47699 0.0
O37 O -0.00215 0.60398 0.43888 0.0
O38 O 0.06293 0.59818 0.46951 0.0
C39 C 0.95211 0.68483 0.36069 0.0
O40 O 0.9729 0.70533 0.4219 0.0
C41 C 0.0771 0.61807 0.25244 0.0
Zn42 Zn 0.48385 0.11634 0.56114 0.0
Zn43 Zn 0.39744 0.03607 0.52414 0.0
O44 O 0.37728 0.08692 0.55537 0.0
O45 O 0.44774 0.15241 0.58592 0.0
O46 O 0.33306 0.97777 0.49219 0.0
O47 O 0.51136 0.11972 0.4623 0.0
O48 O 0.44166 0.05234 0.43458 0.0
C49 C 0.40144 0.13097 0.57876 0.0
C50 C 0.46006 0.02896 0.64369 0.0
O51 O 0.42088 0.00854 0.60603 0.0
O52 O 0.4919 0.07398 0.63535 0.0
C53 C 0.2936 0.96215 0.52819 0.0
O54 O 0.2939 0.98349 0.58886 0.0
C55 C 0.48519 0.086 0.41822 0.0
Zn56 Zn 0.39347 0.49359 0.7284 0.0
Zn57 Zn 0.38799 0.40763 0.69039 0.0
O58 O 0.31685 0.38682 0.72169 0.0
O59 O 0.3213 0.45686 0.75324 0.0
O60 O 0.38228 0.34354 0.65789 0.0
O61 O 0.41727 0.52149 0.62962 0.0
O62 O 0.41555 0.45221 0.60112 0.0
C63 C 0.2967 0.41059 0.74555 0.0
C64 C 0.45755 0.47011 0.81027 0.0
O65 O 0.43899 0.43109 0.77227 0.0
O66 O 0.44409 0.50176 0.80236 0.0
C67 C 0.35861 0.30402 0.69382 0.0
O68 O 0.33767 0.30415 0.75465 0.0
C69 C 0.425 0.49565 0.58516 0.0
Zn70 Zn 0.92803 0.40477 0.89604 0.0
Zn71 Zn 0.00799 0.3986 0.85729 0.0
O72 O 0.95741 0.3277 0.88911 0.0
O73 O 0.89224 0.33266 0.9214 0.0
O74 O 0.0659 0.39223 0.82451 0.0
O75 O 0.92369 0.42835 0.79717 0.0
O76 O 0.99084 0.42604 0.76804 0.0
C77 C 0.91362 0.30782 0.91345 0.0
C78 C 0.01622 0.4687 0.97697 0.0
O79 O 0.03628 0.44984 0.93878 0.0
O80 O 0.97112 0.45547 0.96952 0.0
C81 C 0.08113 0.36793 0.86017 0.0
O82 O 0.05972 0.34682 0.92076 0.0
C83 C 0.95694 0.43568 0.75236 0.0
C84 C 0.54939 0.06788 0.24206 0.0
C85 C 0.56471 0.05204 0.19601 0.0
C86 C 0.52701 0.07835 0.29984 0.0
C87 C 0.50773 0.08167 0.35381 0.0
C88 C 0.50667 0.56025 0.40869 0.0
C89 C 0.53788 0.57539 0.36273 0.0
C90 C 0.47393 0.53789 0.46659 0.0
C91 C 0.45159 0.51852 0.5207 0.0
C92 C 0.96331 0.48406 0.63334 0.0
C93 C 0.96044 0.46197 0.68767 0.0
C94 C 0.97368 0.51658 0.57515 0.0
C95 C 0.98979 0.54772 0.52909 0.0
C96 C 0.50744 0.97495 0.79974 0.0
C97 C 0.52676 0.9717 0.85372 0.0
C98 C 0.48506 0.98542 0.74195 0.0
C99 C 0.46978 0.00133 0.69595 0.0
C100 C 0.55861 0.51707 0.96683 0.0
C101 C 0.58094 0.53619 0.02107 0.0
C102 C 0.52597 0.49493 0.90873 0.0
C103 C 0.49487 0.47978 0.86259 0.0
C104 C 0.06034 0.53714 0.07521 0.0
C105 C 0.04427 0.50602 0.02911 0.0
C106 C 0.07066 0.56966 0.1334 0.0
C107 C 0.07352 0.59177 0.18772 0.0
C108 C 0.67926 0.8312 0.14562 0.0
C109 C 0.6791 0.79529 0.1692 0.0
C110 C 0.67247 0.86953 0.11889 0.0
C111 C 0.65924 0.89759 0.0986 0.0
C112 C 0.87343 0.68629 0.31328 0.0
C113 C 0.90939 0.68631 0.33638 0.0
C114 C 0.82819 0.67955 0.28708 0.0
C115 C 0.78691 0.66664 0.26698 0.0
C116 C 0.17496 0.83815 0.45468 0.0
C117 C 0.14674 0.79689 0.43431 0.0
C118 C 0.21338 0.88339 0.48107 0.0
C119 C 0.2493 0.91941 0.50414 0.0
C120 C 0.35705 0.22389 0.64618 0.0
C121 C 0.35704 0.25979 0.66942 0.0
C122 C 0.36374 0.18542 0.6197 0.0
C123 C 0.37669 0.15713 0.5994 0.0
C124 C 0.15933 0.36566 0.81262 0.0
C125 C 0.12356 0.36593 0.83587 0.0
C126 C 0.20445 0.37229 0.78619 0.0
C127 C 0.24574 0.38543 0.76594 0.0
C128 C 0.85961 0.21557 0.95422 0.0
C129 C 0.88765 0.25688 0.93394 0.0
C130 C 0.82133 0.17024 0.98051 0.0
C131 C 0.78547 0.13417 0.0035 0.0
loop_
_geom_bond_atom_site_label_1
_geom_bond_atom_site_label_2
_geom_bond_distance
_geom_bond_site_symmetry_2
_ccdc_geom_bond_type
Zn0 O3 2.031 . S
Zn0 O5 2.049 1_554 S
Zn0 O10 2.067 1_565 S
Zn1 O2 1.962 1_545 S
Zn1 O4 1.986 1_554 S
Zn1 O6 1.996 1_554 S
Zn1 O9 1.943 . S
O2 Zn1 1.962 1_565 S
O2 C7 1.254 . S
O3 Zn0 2.031 . S
O3 C7 1.269 . S
O4 Zn1 1.986 1_556 S
O4 C11 1.262 1_556 S
O5 Zn0 2.049 1_556 S
O5 C13 1.260 1_565 S
O6 Zn1 1.996 1_556 S
O6 C13 1.257 . S
C7 O2 1.254 . S
C7 O3 1.269 . S
C8 O9 1.249 . S
C8 O10 1.270 . S
O9 Zn1 1.943 . S
O9 C8 1.249 . S
O10 Zn0 2.067 1_545 S
O10 C8 1.270 . S
C11 O4 1.262 1_554 S
C11 O12 1.232 . S
O12 C11 1.232 . S
C13 O5 1.260 1_545 S
C13 O6 1.257 . S
Zn14 O17 2.031 . S
Zn14 O19 2.049 . S
Zn14 O24 2.067 . S
Zn15 O16 1.962 . S
Zn15 O18 1.986 . S
Zn15 O20 1.996 . S
Zn15 O23 1.943 . S
O16 Zn15 1.962 . S
O16 C21 1.254 . S
O17 Zn14 2.031 . S
O17 C21 1.269 . S
O18 Zn15 1.986 . S
O18 C25 1.262 . S
O19 Zn14 2.049 . S
O19 C27 1.260 . S
O20 Zn15 1.996 . S
O20 C27 1.257 . S
C21 O16 1.254 . S
C21 O17 1.269 . S
C22 O23 1.249 . S
C22 O24 1.270 . S
O23 Zn15 1.943 . S
O23 C22 1.249 . S
O24 Zn14 2.067 . S
O24 C22 1.270 . S
C25 O18 1.262 . S
C25 O26 1.232 . S
O26 C25 1.232 . S
C27 O19 1.260 . S
C27 O20 1.257 . S
Zn28 O31 2.031 . S
Zn28 O33 2.049 . S
Zn28 O38 2.067 . S
Zn29 O30 1.962 . S
Zn29 O32 1.986 1_455 S
Zn29 O34 1.996 . S
Zn29 O37 1.943 1_455 S
O30 Zn29 1.962 . S
O30 C35 1.254 . S
O31 Zn28 2.031 . S
O31 C35 1.269 . S
O32 Zn29 1.986 1_655 S
O32 C39 1.262 . S
O33 Zn28 2.049 . S
O33 C41 1.260 . S
O34 Zn29 1.996 . S
O34 C41 1.257 . S
C35 O30 1.254 . S
C35 O31 1.269 . S
C36 O37 1.249 1_455 S
C36 O38 1.270 . S
O37 Zn29 1.943 1_655 S
O37 C36 1.249 1_655 S
O38 Zn28 2.067 . S
O38 C36 1.270 . S
C39 O32 1.262 . S
C39 O40 1.232 . S
O40 C39 1.232 . S
C41 O33 1.260 . S
C41 O34 1.257 . S
Zn42 O45 2.031 . S
Zn42 O47 2.049 . S
Zn42 O52 2.067 . S
Zn43 O44 1.962 . S
Zn43 O46 1.986 1_545 S
Zn43 O48 1.996 . S
Zn43 O51 1.943 . S
O44 Zn43 1.962 . S
O44 C49 1.254 . S
O45 Zn42 2.031 . S
O45 C49 1.269 . S
O46 Zn43 1.986 1_565 S
O46 C53 1.262 . S
O47 Zn42 2.049 . S
O47 C55 1.260 . S
O48 Zn43 1.996 . S
O48 C55 1.257 . S
C49 O44 1.254 . S
C49 O45 1.269 . S
C50 O51 1.249 . S
C50 O52 1.270 . S
O51 Zn43 1.943 . S
O51 C50 1.249 . S
O52 Zn42 2.067 . S
O52 C50 1.270 . S
C53 O46 1.262 . S
C53 O54 1.232 . S
O54 C53 1.232 . S
C55 O47 1.260 . S
C55 O48 1.257 . S
Zn56 O59 2.031 . S
Zn56 O61 2.049 . S
Zn56 O66 2.067 . S
Zn57 O58 1.962 . S
Zn57 O60 1.986 . S
Zn57 O62 1.996 . S
Zn57 O65 1.943 . S
O58 Zn57 1.962 . S
O58 C63 1.254 . S
O59 Zn56 2.031 . S
O59 C63 1.269 . S
O60 Zn57 1.986 . S
O60 C67 1.262 . S
O61 Zn56 2.049 . S
O61 C69 1.260 . S
O62 Zn57 1.996 . S
O62 C69 1.257 . S
C63 O58 1.254 . S
C63 O59 1.269 . S
C64 O65 1.249 . S
C64 O66 1.270 . S
O65 Zn57 1.943 . S
O65 C64 1.249 . S
O66 Zn56 2.067 . S
O66 C64 1.270 . S
C67 O60 1.262 . S
C67 O68 1.232 . S
O68 C67 1.232 . S
C69 O61 1.260 . S
C69 O62 1.257 . S
Zn70 O73 2.031 . S
Zn70 O75 2.049 . S
Zn70 O80 2.067 . S
Zn71 O72 1.962 1_455 S
Zn71 O74 1.986 . S
Zn71 O76 1.996 . S
Zn71 O79 1.943 . S
O72 Zn71 1.962 1_655 S
O72 C77 1.254 . S
O73 Zn70 2.031 . S
O73 C77 1.269 . S
O74 Zn71 1.986 . S
O74 C81 1.262 . S
O75 Zn70 2.049 . S
O75 C83 1.260 1_655 S
O76 Zn71 1.996 . S
O76 C83 1.257 . S
C77 O72 1.254 . S
C77 O73 1.269 . S
C78 O79 1.249 . S
C78 O80 1.270 1_455 S
O79 Zn71 1.943 . S
O79 C78 1.249 . S
O80 Zn70 2.067 . S
O80 C78 1.270 1_655 S
C81 O74 1.262 . S
C81 O82 1.232 . S
O82 C81 1.232 . S
C83 O75 1.260 1_455 S
C83 O76 1.257 . S
C84 C85 1.170 . S
C84 C86 1.380 . S
C85 C84 1.170 . S
C86 C84 1.380 . S
C86 C87 1.170 . S
C87 C86 1.170 . S
C88 C89 1.170 . S
C88 C90 1.380 . S
C89 C88 1.170 . S
C90 C88 1.380 . S
C90 C91 1.170 . S
C91 C90 1.170 . S
C92 C93 1.170 . S
C92 C94 1.380 . S
C93 C92 1.170 . S
C94 C92 1.380 . S
C94 C95 1.170 . S
C95 C94 1.170 . S
C96 C97 1.170 . S
C96 C98 1.380 . S
C97 C96 1.170 . S
C98 C96 1.380 . S
C98 C99 1.170 . S
C99 C98 1.170 . S
C100 C101 1.161 1_556 S
C100 C102 1.390 . S
C101 C100 1.161 1_554 S
C102 C100 1.390 . S
C102 C103 1.170 . S
C103 C102 1.170 . S
C104 C105 1.170 . S
C104 C106 1.380 . S
C105 C104 1.170 . S
C106 C104 1.380 . S
C106 C107 1.170 . S
C107 C106 1.170 . S
C108 C109 1.170 . S
C108 C110 1.380 . S
C109 C108 1.170 . S
C110 C108 1.380 . S
C110 C111 1.170 . S
C111 C110 1.170 . S
C112 C113 1.170 . S
C112 C114 1.380 . S
C113 C112 1.170 . S
C114 C112 1.380 . S
C114 C115 1.170 . S
C115 C114 1.170 . S
C116 C117 1.170 . S
C116 C118 1.380 . S
C117 C116 1.170 . S
C118 C116 1.380 . S
C118 C119 1.170 . S
C119 C118 1.170 . S
C120 C121 1.170 . S
C120 C122 1.380 . S
C121 C120 1.170 . S
C122 C120 1.380 . S
C122 C123 1.170 . S
C123 C122 1.170 . S
C124 C125 1.170 . S
C124 C126 1.380 . S
C125 C124 1.170 . S
C126 C124 1.380 . S
C126 C127 1.170 . S
C127 C126 1.170 . S
C128 C129 1.170 . S
C128 C130 1.380 . S
C129 C128 1.170 . S
C130 C128 1.380 . S
C130 C131 1.170 1_556 S
C131 C130 1.170 1_554 S
C85 C8 1.396 . S
C87 C55 1.392 . S
C89 C22 1.389 . S
C91 C69 1.348 . S
C93 C83 1.345 . S
C95 C36 1.392 . S
C97 C13 1.378 . S
C99 C50 1.377 . S
C101 C27 1.393 . S
C103 C64 1.391 . S
C105 C78 1.396 1_554 S
C107 C41 1.342 . S
C109 C25 1.441 . S
C111 C7 1.448 . S
C113 C39 1.454 . S
C115 C21 1.428 . S
C117 C35 1.431 . S
C119 C53 1.451 . S
C121 C67 1.454 . S
C123 C49 1.429 . S
C125 C81 1.449 . S
C127 C63 1.439 . S
C129 C77 1.449 . S
C131 C11 1.441 . S
