# Generated by pormake.
# Topology bcu, (8)-cn, num edge types: 1
# Building blocks:
#     Node 0, Type 0, BuildingBlock: TAGTUT_clean_sbu_3, # of connection points: 8
#     Node 1, Type 0, BuildingBlock: TAGTUT_clean_sbu_3, # of connection points: 8
#     Edge 2, Type (0, 0), BuildingBlock: EZIPEK_clean_linker_0, # of connection points: 2
#     Edge 3, Type (0, 0), BuildingBlock: EZIPEK_clean_linker_0, # of connection points: 2
#     Edge 4, Type (0, 0), BuildingBlock: EZIPEK_clean_linker_0, # of connection points: 2
#     Edge 5, Type (0, 0), BuildingBlock: EZIPEK_clean_linker_0, # of connection points: 2
#     Edge 6, Type (0, 0), BuildingBlock: EZIPEK_clean_linker_0, # of connection points: 2
#     Edge 7, Type (0, 0), BuildingBlock: EZIPEK_clean_linker_0, # of connection points: 2
#     Edge 8, Type (0, 0), BuildingBlock: EZIPEK_clean_linker_0, # of connection points: 2
#     Edge 9, Type (0, 0), BuildingBlock: EZIPEK_clean_linker_0, # of connection points: 2
# Relax obj value: 0.008
# Max RMSD: 0.054
# Mean RMSD: 0.054
data_MOF--net-bcu--node1-TAGTUT_clean_sbu_3--edge1-EZIPEK_clean_linker_0
_symmetry_space_group_name_H-M    P1
_symmetry_Int_Tables_number       1
_symmetry_cell_setting            triclinic
loop_
_symmetry_equiv_pos_as_xyz
'x, y, z'
_cell_length_a     15.18627
_cell_length_b     15.089811
_cell_length_c     16.452068
_cell_angle_alpha  90.981236
_cell_angle_beta   88.61131
_cell_angle_gamma 111.71795
loop_
_atom_site_label
_atom_site_type_symbol
_atom_site_fract_x
_atom_site_fract_y
_atom_site_fract_z
_atom_type_partial_charge
C0 C 0.16977 0.10823 0.08009 0.0
C1 C 0.14613 0.7698 0.09214 0.0
C2 C 0.06104 0.72972 0.84607 0.0
Mg3 Mg 0.05209 0.21183 -0.01981 0.0
Mg4 Mg 0.83445 0.09989 0.9184 0.0
O5 O 0.95418 0.09745 0.93048 0.0
Mg6 Mg 0.98881 0.99023 0.96973 0.0
O7 O 0.03749 0.89201 0.00621 0.0
Mg8 Mg 0.16686 0.93634 0.95519 0.0
Mg9 Mg 0.96773 0.76087 0.00157 0.0
C10 C 0.80217 0.89367 0.8539 0.0
O11 O 0.86882 0.92758 0.06732 0.0
O12 O 0.01209 0.30794 0.88623 0.0
O13 O 0.84332 0.76923 0.06102 0.0
O14 O 0.943 0.22899 0.07449 0.0
O15 O 0.87019 0.21657 0.83631 0.0
O16 O 0.79649 0.14426 0.03134 0.0
O17 O 0.11162 0.03214 0.87679 0.0
O18 O 0.15166 0.19039 0.88511 0.0
C19 C 0.1626 0.11663 0.85499 0.0
C20 C 0.94365 0.29343 0.83665 0.0
O21 O 0.88275 0.8946 0.87754 0.0
O22 O 0.19808 0.842 0.05015 0.0
O23 O 0.76867 0.95806 0.87218 0.0
O24 O 0.12666 0.80939 0.8635 0.0
O25 O 0.05747 0.72605 0.08081 0.0
O26 O 0.98315 0.69808 0.88655 0.0
O27 O 0.08626 0.10043 0.06001 0.0
O28 O 0.20988 0.05489 0.04874 0.0
C29 C 0.85258 0.20014 0.08237 0.0
C30 C 0.82459 0.84023 0.08955 0.0
C31 C 0.63143 0.64864 0.59207 0.0
C32 C 0.80932 0.42564 0.57824 0.0
C33 C 0.67904 0.34707 0.33403 0.0
Mg34 Mg 0.44548 0.65916 0.50652 0.0
Mg35 Mg 0.26687 0.4614 0.46184 0.0
O36 O 0.39695 0.52989 0.4551 0.0
Mg37 Mg 0.49622 0.47856 0.48037 0.0
O38 O 0.60547 0.44138 0.5092 0.0
Mg39 Mg 0.71438 0.54186 0.45338 0.0
Mg40 Mg 0.60824 0.31949 0.50997 0.0
C41 C 0.33757 0.31783 0.3668 0.0
O42 O 0.40746 0.36619 0.57315 0.0
O43 O 0.3445 0.69504 0.42054 0.0
O44 O 0.47343 0.25312 0.56952 0.0
O45 O 0.32686 0.61867 0.60654 0.0
O46 O 0.23664 0.55323 0.38044 0.0
O47 O 0.20852 0.4813 0.57886 0.0
O48 O 0.59868 0.57991 0.38737 0.0
O49 O 0.55625 0.70513 0.40542 0.0
C50 C 0.60645 0.66459 0.36953 0.0
C51 C 0.2757 0.64392 0.37555 0.0
O52 O 0.42615 0.36435 0.38114 0.0
O53 O 0.81824 0.49807 0.53398 0.0
O54 O 0.26932 0.33265 0.40479 0.0
O55 O 0.7175 0.4362 0.3508 0.0
O56 O 0.73431 0.35017 0.57894 0.0
O57 O 0.63035 0.28804 0.3874 0.0
O58 O 0.54572 0.59874 0.5748 0.0
O59 O 0.70222 0.63834 0.55554 0.0
C60 C 0.24551 0.55525 0.62357 0.0
C61 C 0.40953 0.2848 0.59331 0.0
C62 C 0.22414 0.11393 0.2227 0.0
C63 C 0.21432 0.16377 0.15285 0.0
C64 C 0.29666 0.31599 0.22124 0.0
C65 C 0.31086 0.26593 0.28919 0.0
N66 N 0.30634 0.12037 0.34888 0.0
N67 N 0.25752 0.31061 0.07882 0.0
C68 C 0.28057 0.16566 0.28791 0.0
C69 C 0.25542 0.26446 0.15002 0.0
N70 N 0.17608 0.01759 0.22804 0.0
N71 N 0.31901 0.41247 0.22607 0.0
H72 H 0.22735 0.27484 0.02568 0.0
H73 H 0.29569 0.38317 0.07062 0.0
H74 H 0.35163 0.45355 0.27629 0.0
H75 H 0.2997 0.45101 0.18267 0.0
H76 H 0.17305 0.97872 0.28041 0.0
H77 H 0.1318 0.97754 0.18249 0.0
H78 H 0.29377 0.04769 0.34806 0.0
H79 H 0.34877 0.15768 0.39663 0.0
C80 C 0.73764 0.17556 0.19727 0.0
C81 C 0.80903 0.23985 0.14701 0.0
C82 C 0.76637 0.37245 0.19867 0.0
C83 C 0.70379 0.30943 0.25574 0.0
N84 N 0.5916 0.14839 0.2721 0.0
N85 N 0.89222 0.40048 0.09773 0.0
C86 C 0.67773 0.20976 0.24439 0.0
C87 C 0.82384 0.33878 0.14699 0.0
N88 N 0.72904 0.08231 0.20199 0.0
N89 N 0.76287 0.46076 0.18807 0.0
H90 H 0.93119 0.37886 0.05425 0.0
H91 H 0.9146 0.47437 0.10292 0.0
H92 H 0.71074 0.48091 0.2162 0.0
H93 H 0.80155 0.5086 0.14369 0.0
H94 H 0.6841 0.0348 0.24386 0.0
H95 H 0.77368 0.05504 0.16987 0.0
H96 H 0.56608 0.07529 0.26009 0.0
H97 H 0.53991 0.17245 0.29562 0.0
C98 C 0.80207 0.8407 0.2404 0.0
C99 C 0.76145 0.8181 0.16208 0.0
C100 C 0.62466 0.68922 0.21966 0.0
C101 C 0.6635 0.71338 0.29827 0.0
N102 N 0.77918 0.82284 0.38647 0.0
N103 N 0.62523 0.74047 0.08052 0.0
C104 C 0.7488 0.79306 0.30962 0.0
C105 C 0.66948 0.74859 0.15309 0.0
N106 N 0.89377 0.90264 0.24827 0.0
N107 N 0.54601 0.60865 0.20834 0.0
H108 H 0.65649 0.78629 0.03229 0.0
H109 H 0.55496 0.69634 0.07115 0.0
H110 H 0.51046 0.56395 0.25584 0.0
H111 H 0.51997 0.58234 0.15128 0.0
H112 H 0.93127 0.91151 0.3019 0.0
H113 H 0.93483 0.94162 0.20006 0.0
H114 H 0.83441 0.88709 0.3989 0.0
H115 H 0.74533 0.78597 0.43842 0.0
C116 C 0.13336 0.73775 0.24048 0.0
C117 C 0.18501 0.74598 0.16591 0.0
C118 C 0.30803 0.71169 0.23637 0.0
C119 C 0.24841 0.68827 0.307 0.0
N120 N 0.0945 0.65848 0.36952 0.0
N121 N 0.31475 0.72658 0.08987 0.0
C122 C 0.15816 0.69527 0.30727 0.0
C123 C 0.27125 0.73018 0.16293 0.0
N124 N 0.06265 0.77317 0.24868 0.0
N125 N 0.39877 0.71421 0.23871 0.0
H126 H 0.28787 0.736 0.03434 0.0
H127 H 0.37237 0.70511 0.08371 0.0
H128 H 0.42716 0.69605 0.28994 0.0
H129 H 0.44816 0.7417 0.19171 0.0
H130 H 0.02952 0.77626 0.30433 0.0
H131 H 0.0446 0.80965 0.20271 0.0
H132 H 0.0243 0.6537 0.36786 0.0
H133 H 0.10859 0.6237 0.41868 0.0
C134 C 0.08547 0.68214 0.70419 0.0
C135 C 0.08578 0.66582 0.78813 0.0
C136 C 0.16925 0.55537 0.76172 0.0
C137 C 0.18256 0.58451 0.67961 0.0
N138 N 0.15903 0.68101 0.57275 0.0
N139 N 0.12545 0.58619 0.89942 0.0
C140 C 0.14099 0.64834 0.65061 0.0
C141 C 0.12574 0.60094 0.81764 0.0
N142 N 0.03155 0.72974 0.67589 0.0
N143 N 0.19874 0.48486 0.7859 0.0
H144 H 0.09096 0.61514 0.94158 0.0
H145 H 0.16227 0.54861 0.92612 0.0
H146 H 0.23164 0.45169 0.74597 0.0
H147 H 0.18459 0.45422 0.84326 0.0
H148 H 0.02026 0.73574 0.61439 0.0
H149 H 0.99016 0.7548 0.71453 0.0
H150 H 0.14063 0.73608 0.55093 0.0
H151 H 0.19879 0.65778 0.53129 0.0
C152 C 0.38323 0.23077 0.73592 0.0
C153 C 0.34545 0.23087 0.65781 0.0
C154 C 0.18739 0.13116 0.70613 0.0
C155 C 0.22553 0.13202 0.78409 0.0
N156 N 0.35909 0.15825 0.86906 0.0
N157 N 0.21882 0.16611 0.56267 0.0
C158 C 0.32369 0.17351 0.79732 0.0
C159 C 0.24958 0.17604 0.64089 0.0
N160 N 0.47441 0.28915 0.75247 0.0
N161 N 0.09149 0.09184 0.69582 0.0
H162 H 0.26311 0.19924 0.51388 0.0
H163 H 0.152 0.11971 0.54525 0.0
H164 H 0.04428 0.05469 0.74168 0.0
H165 H 0.05819 0.09949 0.64329 0.0
H166 H 0.50232 0.2996 0.81058 0.0
H167 H 0.52055 0.33355 0.70934 0.0
H168 H 0.43123 0.17977 0.88029 0.0
H169 H 0.31562 0.11527 0.91439 0.0
C170 C 0.97789 0.34647 0.69305 0.0
C171 C 0.94963 0.36359 0.77262 0.0
C172 C 0.8739 0.46687 0.71746 0.0
C173 C 0.88217 0.43079 0.63868 0.0
N174 N 0.95469 0.35129 0.54735 0.0
N175 N 0.88454 0.45046 0.86353 0.0
C176 C 0.94023 0.37691 0.62506 0.0
C177 C 0.90379 0.4291 0.78573 0.0
N178 N 0.03849 0.29887 0.68348 0.0
N179 N 0.83511 0.53503 0.72641 0.0
H180 H 0.9101 0.42668 0.91368 0.0
H181 H 0.84276 0.48977 0.87863 0.0
H182 H 0.81325 0.56327 0.67678 0.0
H183 H 0.83185 0.56927 0.78118 0.0
H184 H 0.06648 0.28738 0.62775 0.0
H185 H 0.06671 0.27716 0.73321 0.0
H186 H 0.98889 0.30477 0.53229 0.0
H187 H 0.93063 0.37683 0.49725 0.0
C188 C 0.66071 0.66801 0.73953 0.0
C189 C 0.6521 0.70879 0.66451 0.0
C190 C 0.74742 0.86726 0.71254 0.0
C191 C 0.75351 0.82781 0.78903 0.0
N192 N 0.70738 0.69463 0.88051 0.0
N193 N 0.66433 0.84529 0.58567 0.0
C194 C 0.70737 0.72915 0.8043 0.0
C195 C 0.68773 0.8081 0.65328 0.0
N196 N 0.6278 0.57098 0.74725 0.0
N197 N 0.80278 0.95986 0.69503 0.0
H198 H 0.61897 0.80227 0.54205 0.0
H199 H 0.6815 0.91807 0.57721 0.0
H200 H 0.85099 0.00516 0.7357 0.0
H201 H 0.80805 0.98913 0.63742 0.0
H202 H 0.64171 0.53638 0.79669 0.0
H203 H 0.58943 0.52436 0.70199 0.0
H204 H 0.66676 0.6252 0.89788 0.0
H205 H 0.74439 0.73758 0.92812 0.0
loop_
_geom_bond_atom_site_label_1
_geom_bond_atom_site_label_2
_geom_bond_distance
_geom_bond_site_symmetry_2
_ccdc_geom_bond_type
C0 O27 1.312 . S
C0 O28 1.208 . S
C1 O22 1.331 . S
C1 O25 1.244 . S
C2 O24 1.264 . S
C2 O26 1.273 . S
Mg3 O5 1.937 1_455 S
Mg3 O12 2.085 1_455 S
Mg3 O14 2.020 1_456 S
Mg3 O18 2.034 . S
Mg3 O27 2.288 1_556 S
Mg4 O5 1.963 . S
Mg4 O15 1.942 . S
Mg4 O16 1.955 1_556 S
Mg4 O23 1.986 1_545 S
O5 Mg3 1.937 1_655 S
O5 Mg4 1.963 . S
O5 Mg6 1.915 1_546 S
Mg6 O5 1.915 1_564 S
Mg6 O7 1.915 1_655 S
Mg6 O11 2.013 . S
Mg6 O17 2.114 1_664 S
Mg6 O21 2.013 1_554 S
Mg6 O27 2.114 1_665 S
O7 Mg6 1.915 1_455 S
O7 Mg8 1.937 1_565 S
O7 Mg9 1.963 . S
Mg8 O7 1.937 1_545 S
Mg8 O17 2.286 1_554 S
Mg8 O22 2.087 1_545 S
Mg8 O24 2.018 1_544 S
Mg8 O28 2.036 . S
Mg9 O7 1.963 . S
Mg9 O13 1.986 1_455 S
Mg9 O25 1.942 . S
Mg9 O26 1.955 1_554 S
C10 O21 1.191 . S
C10 O23 1.307 . S
O11 Mg6 2.013 . S
O11 C30 1.191 . S
O12 Mg3 2.085 1_655 S
O12 C20 1.331 . S
O13 Mg9 1.986 1_655 S
O13 C30 1.307 . S
O14 Mg3 2.020 1_654 S
O14 C29 1.264 . S
O15 Mg4 1.942 . S
O15 C20 1.244 . S
O16 Mg4 1.955 1_554 S
O16 C29 1.273 . S
O17 Mg6 2.114 1_446 S
O17 Mg8 2.286 1_556 S
O17 C19 1.312 . S
O18 Mg3 2.034 . S
O18 C19 1.208 . S
C19 O17 1.312 . S
C19 O18 1.208 . S
C20 O12 1.331 . S
C20 O15 1.244 . S
O21 Mg6 2.013 1_556 S
O21 C10 1.191 . S
O22 C1 1.331 . S
O22 Mg8 2.087 1_565 S
O23 Mg4 1.986 1_565 S
O23 C10 1.307 . S
O24 C2 1.264 . S
O24 Mg8 2.018 1_566 S
O25 C1 1.244 . S
O25 Mg9 1.942 . S
O26 C2 1.273 . S
O26 Mg9 1.955 1_556 S
O27 C0 1.312 . S
O27 Mg3 2.288 1_554 S
O27 Mg6 2.114 1_445 S
O28 C0 1.208 . S
O28 Mg8 2.036 . S
C29 O14 1.264 . S
C29 O16 1.273 . S
C30 O11 1.191 . S
C30 O13 1.307 . S
C31 O58 1.312 . S
C31 O59 1.208 . S
C32 O53 1.331 . S
C32 O56 1.244 . S
C33 O55 1.264 . S
C33 O57 1.273 . S
Mg34 O36 1.936 . S
Mg34 O43 2.081 . S
Mg34 O45 2.023 . S
Mg34 O49 2.031 . S
Mg34 O58 2.291 . S
Mg35 O36 1.963 . S
Mg35 O46 1.942 . S
Mg35 O47 1.955 . S
Mg35 O54 1.986 . S
O36 Mg34 1.936 . S
O36 Mg35 1.963 . S
O36 Mg37 1.915 . S
Mg37 O36 1.915 . S
Mg37 O38 1.915 . S
Mg37 O42 2.013 . S
Mg37 O48 2.114 . S
Mg37 O52 2.013 . S
Mg37 O58 2.114 . S
O38 Mg37 1.915 . S
O38 Mg39 1.936 . S
O38 Mg40 1.963 . S
Mg39 O38 1.936 . S
Mg39 O48 2.291 . S
Mg39 O53 2.081 . S
Mg39 O55 2.023 . S
Mg39 O59 2.031 . S
Mg40 O38 1.963 . S
Mg40 O44 1.986 . S
Mg40 O56 1.942 . S
Mg40 O57 1.955 . S
C41 O52 1.191 . S
C41 O54 1.307 . S
O42 Mg37 2.013 . S
O42 C61 1.191 . S
O43 Mg34 2.081 . S
O43 C51 1.331 . S
O44 Mg40 1.986 . S
O44 C61 1.307 . S
O45 Mg34 2.023 . S
O45 C60 1.264 . S
O46 Mg35 1.942 . S
O46 C51 1.244 . S
O47 Mg35 1.955 . S
O47 C60 1.273 . S
O48 Mg37 2.114 . S
O48 Mg39 2.291 . S
O48 C50 1.312 . S
O49 Mg34 2.031 . S
O49 C50 1.208 . S
C50 O48 1.312 . S
C50 O49 1.208 . S
C51 O43 1.331 . S
C51 O46 1.244 . S
O52 Mg37 2.013 . S
O52 C41 1.191 . S
O53 C32 1.331 . S
O53 Mg39 2.081 . S
O54 Mg35 1.986 . S
O54 C41 1.307 . S
O55 C33 1.264 . S
O55 Mg39 2.023 . S
O56 C32 1.244 . S
O56 Mg40 1.942 . S
O57 C33 1.273 . S
O57 Mg40 1.955 . S
O58 C31 1.312 . S
O58 Mg34 2.291 . S
O58 Mg37 2.114 . S
O59 C31 1.208 . S
O59 Mg39 2.031 . S
C60 O45 1.264 . S
C60 O47 1.273 . S
C61 O42 1.191 . S
C61 O44 1.307 . S
C62 C63 1.363 . S
C62 C68 1.379 . S
C62 N70 1.356 . S
C63 C62 1.363 . S
C63 C69 1.363 . S
C64 C65 1.363 . S
C64 C69 1.379 . S
C64 N71 1.356 . S
C65 C64 1.363 . S
C65 C68 1.363 . S
N66 C68 1.356 . S
N66 H78 0.984 . S
N66 H79 0.985 . S
N67 C69 1.356 . S
N67 H72 0.984 . S
N67 H73 0.985 . S
C68 C62 1.379 . S
C68 C65 1.363 . S
C68 N66 1.356 . S
C69 C63 1.363 . S
C69 C64 1.379 . S
C69 N67 1.356 . S
N70 C62 1.356 . S
N70 H76 0.984 . S
N70 H77 0.984 . S
N71 C64 1.356 . S
N71 H74 0.984 . S
N71 H75 0.985 . S
H72 N67 0.984 . S
H73 N67 0.985 . S
H74 N71 0.984 . S
H75 N71 0.985 . S
H76 N70 0.984 . S
H77 N70 0.984 . S
H78 N66 0.984 . S
H79 N66 0.985 . S
C80 C81 1.363 . S
C80 C86 1.379 . S
C80 N88 1.356 . S
C81 C80 1.363 . S
C81 C87 1.363 . S
C82 C83 1.363 . S
C82 C87 1.379 . S
C82 N89 1.356 . S
C83 C82 1.363 . S
C83 C86 1.363 . S
N84 C86 1.356 . S
N84 H96 0.984 . S
N84 H97 0.985 . S
N85 C87 1.356 . S
N85 H90 0.984 . S
N85 H91 0.985 . S
C86 C80 1.379 . S
C86 C83 1.363 . S
C86 N84 1.356 . S
C87 C81 1.363 . S
C87 C82 1.379 . S
C87 N85 1.356 . S
N88 C80 1.356 . S
N88 H94 0.984 . S
N88 H95 0.984 . S
N89 C82 1.356 . S
N89 H92 0.984 . S
N89 H93 0.985 . S
H90 N85 0.984 . S
H91 N85 0.985 . S
H92 N89 0.984 . S
H93 N89 0.985 . S
H94 N88 0.984 . S
H95 N88 0.984 . S
H96 N84 0.984 . S
H97 N84 0.985 . S
C98 C99 1.363 . S
C98 C104 1.379 . S
C98 N106 1.356 . S
C99 C98 1.363 . S
C99 C105 1.363 . S
C100 C101 1.363 . S
C100 C105 1.379 . S
C100 N107 1.356 . S
C101 C100 1.363 . S
C101 C104 1.363 . S
N102 C104 1.356 . S
N102 H114 0.984 . S
N102 H115 0.985 . S
N103 C105 1.356 . S
N103 H108 0.984 . S
N103 H109 0.985 . S
C104 C98 1.379 . S
C104 C101 1.363 . S
C104 N102 1.356 . S
C105 C99 1.363 . S
C105 C100 1.379 . S
C105 N103 1.356 . S
N106 C98 1.356 . S
N106 H112 0.984 . S
N106 H113 0.984 . S
N107 C100 1.356 . S
N107 H110 0.984 . S
N107 H111 0.985 . S
H108 N103 0.984 . S
H109 N103 0.985 . S
H110 N107 0.984 . S
H111 N107 0.985 . S
H112 N106 0.984 . S
H113 N106 0.984 . S
H114 N102 0.984 . S
H115 N102 0.985 . S
C116 C117 1.363 . S
C116 C122 1.379 . S
C116 N124 1.356 . S
C117 C116 1.363 . S
C117 C123 1.363 . S
C118 C119 1.363 . S
C118 C123 1.379 . S
C118 N125 1.356 . S
C119 C118 1.363 . S
C119 C122 1.363 . S
N120 C122 1.356 . S
N120 H132 0.984 . S
N120 H133 0.985 . S
N121 C123 1.356 . S
N121 H126 0.984 . S
N121 H127 0.985 . S
C122 C116 1.379 . S
C122 C119 1.363 . S
C122 N120 1.356 . S
C123 C117 1.363 . S
C123 C118 1.379 . S
C123 N121 1.356 . S
N124 C116 1.356 . S
N124 H130 0.984 . S
N124 H131 0.984 . S
N125 C118 1.356 . S
N125 H128 0.984 . S
N125 H129 0.985 . S
H126 N121 0.984 . S
H127 N121 0.985 . S
H128 N125 0.984 . S
H129 N125 0.985 . S
H130 N124 0.984 . S
H131 N124 0.984 . S
H132 N120 0.984 . S
H133 N120 0.985 . S
C134 C135 1.363 . S
C134 C140 1.379 . S
C134 N142 1.356 . S
C135 C134 1.363 . S
C135 C141 1.363 . S
C136 C137 1.363 . S
C136 C141 1.379 . S
C136 N143 1.356 . S
C137 C136 1.363 . S
C137 C140 1.363 . S
N138 C140 1.356 . S
N138 H150 0.984 . S
N138 H151 0.985 . S
N139 C141 1.356 . S
N139 H144 0.984 . S
N139 H145 0.985 . S
C140 C134 1.379 . S
C140 C137 1.363 . S
C140 N138 1.356 . S
C141 C135 1.363 . S
C141 C136 1.379 . S
C141 N139 1.356 . S
N142 C134 1.356 . S
N142 H148 0.984 . S
N142 H149 0.984 . S
N143 C136 1.356 . S
N143 H146 0.984 . S
N143 H147 0.985 . S
H144 N139 0.984 . S
H145 N139 0.985 . S
H146 N143 0.984 . S
H147 N143 0.985 . S
H148 N142 0.984 . S
H149 N142 0.984 . S
H150 N138 0.984 . S
H151 N138 0.985 . S
C152 C153 1.363 . S
C152 C158 1.379 . S
C152 N160 1.356 . S
C153 C152 1.363 . S
C153 C159 1.363 . S
C154 C155 1.363 . S
C154 C159 1.379 . S
C154 N161 1.356 . S
C155 C154 1.363 . S
C155 C158 1.363 . S
N156 C158 1.356 . S
N156 H168 0.984 . S
N156 H169 0.985 . S
N157 C159 1.356 . S
N157 H162 0.984 . S
N157 H163 0.985 . S
C158 C152 1.379 . S
C158 C155 1.363 . S
C158 N156 1.356 . S
C159 C153 1.363 . S
C159 C154 1.379 . S
C159 N157 1.356 . S
N160 C152 1.356 . S
N160 H166 0.984 . S
N160 H167 0.984 . S
N161 C154 1.356 . S
N161 H164 0.984 . S
N161 H165 0.985 . S
H162 N157 0.984 . S
H163 N157 0.985 . S
H164 N161 0.984 . S
H165 N161 0.985 . S
H166 N160 0.984 . S
H167 N160 0.984 . S
H168 N156 0.984 . S
H169 N156 0.985 . S
C170 C171 1.363 . S
C170 C176 1.379 . S
C170 N178 1.356 . S
C171 C170 1.363 . S
C171 C177 1.363 . S
C172 C173 1.363 . S
C172 C177 1.379 . S
C172 N179 1.356 . S
C173 C172 1.363 . S
C173 C176 1.363 . S
N174 C176 1.356 . S
N174 H186 0.984 . S
N174 H187 0.985 . S
N175 C177 1.356 . S
N175 H180 0.984 . S
N175 H181 0.985 . S
C176 C170 1.379 . S
C176 C173 1.363 . S
C176 N174 1.356 . S
C177 C171 1.363 . S
C177 C172 1.379 . S
C177 N175 1.356 . S
N178 C170 1.356 . S
N178 H184 0.984 . S
N178 H185 0.984 . S
N179 C172 1.356 . S
N179 H182 0.984 . S
N179 H183 0.985 . S
H180 N175 0.984 . S
H181 N175 0.985 . S
H182 N179 0.984 . S
H183 N179 0.985 . S
H184 N178 0.984 . S
H185 N178 0.984 . S
H186 N174 0.984 . S
H187 N174 0.985 . S
C188 C189 1.363 . S
C188 C194 1.379 . S
C188 N196 1.356 . S
C189 C188 1.363 . S
C189 C195 1.363 . S
C190 C191 1.363 . S
C190 C195 1.379 . S
C190 N197 1.356 . S
C191 C190 1.363 . S
C191 C194 1.363 . S
N192 C194 1.356 . S
N192 H204 0.984 . S
N192 H205 0.985 . S
N193 C195 1.356 . S
N193 H198 0.984 . S
N193 H199 0.985 . S
C194 C188 1.379 . S
C194 C191 1.363 . S
C194 N192 1.356 . S
C195 C189 1.363 . S
C195 C190 1.379 . S
C195 N193 1.356 . S
N196 C188 1.356 . S
N196 H202 0.984 . S
N196 H203 0.984 . S
N197 C190 1.356 . S
N197 H200 0.984 . S
N197 H201 0.985 . S
H198 N193 0.984 . S
H199 N193 0.985 . S
H200 N197 0.984 . S
H201 N197 0.985 . S
H202 N196 0.984 . S
H203 N196 0.984 . S
H204 N192 0.984 . S
H205 N192 0.985 . S
C63 C0 1.341 . S
C65 C41 1.359 . S
C81 C29 1.610 . S
C83 C33 1.609 . S
C99 C30 1.361 . S
C101 C50 1.341 . S
C117 C1 1.481 . S
C119 C51 1.480 . S
C135 C2 1.610 . S
C137 C60 1.611 . S
C153 C61 1.361 . S
C155 C19 1.341 . S
C171 C20 1.481 . S
C173 C32 1.482 . S
C189 C31 1.341 . S
C191 C10 1.364 . S
