# Generated by pormake.
# Topology pcb, (4)-cn, num edge types: 1
# Building blocks:
#     Node 0, Type 0, BuildingBlock: GALJAG_clean_sbu_0, # of connection points: 4
#     Node 1, Type 0, BuildingBlock: GALJAG_clean_sbu_0, # of connection points: 4
#     Node 2, Type 0, BuildingBlock: GALJAG_clean_sbu_0, # of connection points: 4
#     Node 3, Type 0, BuildingBlock: GALJAG_clean_sbu_0, # of connection points: 4
#     Node 4, Type 0, BuildingBlock: GALJAG_clean_sbu_0, # of connection points: 4
#     Node 5, Type 0, BuildingBlock: GALJAG_clean_sbu_0, # of connection points: 4
#     Node 6, Type 0, BuildingBlock: GALJAG_clean_sbu_0, # of connection points: 4
#     Node 7, Type 0, BuildingBlock: GALJAG_clean_sbu_0, # of connection points: 4
#     Node 8, Type 0, BuildingBlock: GALJAG_clean_sbu_0, # of connection points: 4
#     Node 9, Type 0, BuildingBlock: GALJAG_clean_sbu_0, # of connection points: 4
#     Node 10, Type 0, BuildingBlock: GALJAG_clean_sbu_0, # of connection points: 4
#     Node 11, Type 0, BuildingBlock: GALJAG_clean_sbu_0, # of connection points: 4
#     Node 12, Type 0, BuildingBlock: GALJAG_clean_sbu_0, # of connection points: 4
#     Node 13, Type 0, BuildingBlock: GALJAG_clean_sbu_0, # of connection points: 4
#     Node 14, Type 0, BuildingBlock: GALJAG_clean_sbu_0, # of connection points: 4
#     Node 15, Type 0, BuildingBlock: GALJAG_clean_sbu_0, # of connection points: 4
#     Edge 16, Type (0, 0), None
#     Edge 17, Type (0, 0), None
#     Edge 18, Type (0, 0), None
#     Edge 19, Type (0, 0), None
#     Edge 20, Type (0, 0), None
#     Edge 21, Type (0, 0), None
#     Edge 22, Type (0, 0), None
#     Edge 23, Type (0, 0), None
#     Edge 24, Type (0, 0), None
#     Edge 25, Type (0, 0), None
#     Edge 26, Type (0, 0), None
#     Edge 27, Type (0, 0), None
#     Edge 28, Type (0, 0), None
#     Edge 29, Type (0, 0), None
#     Edge 30, Type (0, 0), None
#     Edge 31, Type (0, 0), None
#     Edge 32, Type (0, 0), None
#     Edge 33, Type (0, 0), None
#     Edge 34, Type (0, 0), None
#     Edge 35, Type (0, 0), None
#     Edge 36, Type (0, 0), None
#     Edge 37, Type (0, 0), None
#     Edge 38, Type (0, 0), None
#     Edge 39, Type (0, 0), None
#     Edge 40, Type (0, 0), None
#     Edge 41, Type (0, 0), None
#     Edge 42, Type (0, 0), None
#     Edge 43, Type (0, 0), None
#     Edge 44, Type (0, 0), None
#     Edge 45, Type (0, 0), None
#     Edge 46, Type (0, 0), None
#     Edge 47, Type (0, 0), None
# Relax obj value: 0.356
# Max RMSD: 0.193
# Mean RMSD: 0.171
data_MOF--net-pcb--node1-GALJAG_clean_sbu_0--edge1-none
_symmetry_space_group_name_H-M    P1
_symmetry_Int_Tables_number       1
_symmetry_cell_setting            triclinic
loop_
_symmetry_equiv_pos_as_xyz
'x, y, z'
_cell_length_a     18.934941
_cell_length_b     22.132236
_cell_length_c     22.12486
_cell_angle_alpha  92.687915
_cell_angle_beta   93.409375
_cell_angle_gamma 93.355638
loop_
_atom_site_label
_atom_site_type_symbol
_atom_site_fract_x
_atom_site_fract_y
_atom_site_fract_z
_atom_type_partial_charge
In0 In 0.12042 0.1224 0.12316 0.0
O1 O 0.2171 0.17642 0.16835 0.0
O2 O 0.11489 0.20198 0.19041 0.0
C3 C 0.1613 0.01424 0.15943 0.0
C4 C -0.01909 0.13137 0.12854 0.0
C5 C 0.13242 0.12367 0.00244 0.0
O6 O 0.19232 0.04267 0.11958 0.0
O7 O 0.11274 0.04182 0.183 0.0
O8 O 0.09758 0.08272 0.02756 0.0
O9 O 0.16242 0.16491 0.03806 0.0
C10 C 0.18071 0.21126 0.1987 0.0
O11 O 0.01764 0.16441 0.09581 0.0
O12 O 0.01404 0.09311 0.15764 0.0
In13 In 0.76288 0.13178 0.1221 0.0
O14 O 0.77563 0.20049 0.20253 0.0
O15 O 0.67072 0.17195 0.16942 0.0
C16 C 0.90466 0.1349 0.13004 0.0
C17 C 0.74326 0.01007 0.12343 0.0
C18 C 0.72516 0.16674 0.01009 0.0
O19 O 0.86781 0.10246 0.16307 0.0
O20 O 0.87059 0.16793 0.09551 0.0
O21 O 0.69162 0.1239 0.03392 0.0
O22 O 0.77268 0.19462 0.04467 0.0
C23 C 0.71029 0.205 0.20702 0.0
O24 O 0.76571 0.03776 0.07932 0.0
O25 O 0.72648 0.0437 0.16737 0.0
In26 In 0.76697 0.82417 0.12307 0.0
O27 O 0.76763 0.77748 0.21307 0.0
O28 O 0.6768 0.76088 0.15229 0.0
C29 C 0.74713 0.94425 0.12472 0.0
C30 C 0.90812 0.8188 0.13549 0.0
C31 C 0.73005 0.79212 0.00659 0.0
O32 O 0.7799 0.91651 0.08547 0.0
O33 O 0.72349 0.91177 0.16545 0.0
O34 O 0.77863 0.7679 0.03655 0.0
O35 O 0.69483 0.82793 0.03713 0.0
C36 C 0.70828 0.74955 0.20192 0.0
O37 O 0.86957 0.78262 0.10032 0.0
O38 O 0.87572 0.85698 0.16561 0.0
In39 In 0.12622 0.83234 0.13099 0.0
O40 O 0.02374 0.85598 0.17225 0.0
O41 O 0.01749 0.78925 0.09913 0.0
C42 C 0.1638 0.94865 0.16283 0.0
C43 C 0.18469 0.75327 0.20557 0.0
C44 C 0.14533 0.83064 0.01078 0.0
O45 O 0.11564 0.91883 0.18762 0.0
O46 O 0.19836 0.91806 0.12654 0.0
O47 O 0.11116 0.86901 0.03839 0.0
O48 O 0.17072 0.79079 0.04345 0.0
C49 C -0.01485 0.82014 0.13676 0.0
O50 O 0.1255 0.74214 0.17732 0.0
O51 O 0.21612 0.80298 0.19456 0.0
In52 In 0.13008 0.83324 0.82313 0.0
O53 O 0.11726 0.75287 0.75437 0.0
O54 O 0.2222 0.78567 0.78319 0.0
C55 C -0.01166 0.82493 0.81961 0.0
C56 C 0.14908 0.83202 0.94494 0.0
C57 C 0.16805 0.94515 0.78822 0.0
O58 O 0.02525 0.79148 0.85161 0.0
O59 O 0.02236 0.86008 0.78719 0.0
O60 O 0.20126 0.92137 0.83132 0.0
O61 O 0.12077 0.91056 0.76006 0.0
C62 C 0.18261 0.74818 0.75005 0.0
O63 O 0.12511 0.87547 0.91714 0.0
O64 O 0.16775 0.78874 0.91141 0.0
In65 In 0.123 0.12271 0.81456 0.0
O66 O 0.00942 0.09842 0.7794 0.0
O67 O 0.02914 0.17516 0.84144 0.0
C68 C 0.16512 0.01094 0.78555 0.0
C69 C 0.17925 0.20521 0.74213 0.0
C70 C 0.13338 0.12372 0.93637 0.0
O71 O 0.11213 0.03294 0.75976 0.0
O72 O 0.20113 0.04727 0.82253 0.0
O73 O 0.16421 0.16511 0.90815 0.0
O74 O 0.09917 0.08273 0.90344 0.0
C75 C -0.01564 0.14084 0.8098 0.0
O76 O 0.211 0.19213 0.79116 0.0
O77 O 0.12104 0.17604 0.72923 0.0
In78 In 0.76989 0.14031 0.83242 0.0
O79 O 0.88348 0.17543 0.85657 0.0
O80 O 0.86366 0.11337 0.77985 0.0
C81 C 0.72804 0.16937 0.94428 0.0
C82 C 0.71366 0.21289 0.74997 0.0
C83 C 0.75944 0.01855 0.83145 0.0
O84 O 0.7811 0.19496 0.92228 0.0
O85 O 0.69183 0.13256 0.90792 0.0
O86 O 0.72853 0.04678 0.79007 0.0
O87 O 0.79379 0.05144 0.8724 0.0
C88 C 0.90847 0.14503 0.81412 0.0
O89 O 0.68194 0.16384 0.76288 0.0
O90 O 0.77181 0.22574 0.7793 0.0
In91 In 0.77267 0.83181 0.83259 0.0
O92 O 0.67584 0.78606 0.77921 0.0
O93 O 0.77795 0.76523 0.75241 0.0
C94 C 0.73261 0.7956 0.94099 0.0
C95 C 0.91209 0.82634 0.82322 0.0
C96 C 0.76042 0.95249 0.83148 0.0
O97 O 0.70084 0.83496 0.9124 0.0
O98 O 0.78154 0.77249 0.91351 0.0
O99 O 0.79538 0.92735 0.87239 0.0
O100 O 0.73038 0.91691 0.79022 0.0
C101 C 0.71212 0.75631 0.74378 0.0
O102 O 0.87534 0.85967 0.79081 0.0
O103 O 0.87901 0.79663 0.86103 0.0
In104 In 0.62029 0.62255 0.62331 0.0
O105 O 0.717 0.67644 0.66861 0.0
O106 O 0.61481 0.7022 0.69049 0.0
C107 C 0.66101 0.51431 0.65953 0.0
C108 C 0.48078 0.63157 0.62864 0.0
C109 C 0.63237 0.62382 0.5026 0.0
O110 O 0.69217 0.54279 0.61979 0.0
O111 O 0.61238 0.54188 0.68302 0.0
O112 O 0.59757 0.58284 0.52772 0.0
O113 O 0.66229 0.66509 0.53823 0.0
C114 C 0.68064 0.71136 0.69888 0.0
O115 O 0.51751 0.66445 0.59576 0.0
O116 O 0.51392 0.59346 0.65793 0.0
In117 In 0.26275 0.63172 0.62189 0.0
O118 O 0.27551 0.70039 0.70234 0.0
O119 O 0.17059 0.67187 0.66924 0.0
C120 C 0.40452 0.63507 0.63005 0.0
C121 C 0.24343 0.50999 0.62319 0.0
C122 C 0.22492 0.66662 0.50988 0.0
O123 O 0.36767 0.60274 0.6632 0.0
O124 O 0.37044 0.66787 0.59528 0.0
O125 O 0.19153 0.62369 0.5337 0.0
O126 O 0.27234 0.69462 0.54448 0.0
C127 C 0.21017 0.70491 0.70684 0.0
O128 O 0.26654 0.53771 0.57936 0.0
O129 O 0.22584 0.54358 0.66685 0.0
In130 In 0.26697 0.32407 0.62294 0.0
O131 O 0.36958 0.2825 0.60023 0.0
O132 O 0.37564 0.35666 0.66577 0.0
C133 C 0.23009 0.29213 0.50642 0.0
C134 C 0.20826 0.24944 0.70175 0.0
C135 C 0.24731 0.44417 0.62454 0.0
O136 O 0.27861 0.26783 0.53638 0.0
O137 O 0.19492 0.32798 0.53696 0.0
O138 O 0.28071 0.41649 0.58567 0.0
O139 O 0.22295 0.41162 0.66491 0.0
C140 C 0.40808 0.31855 0.63557 0.0
O141 O 0.26745 0.2776 0.71306 0.0
O142 O 0.17693 0.26056 0.65199 0.0
In143 In 0.62617 0.33235 0.63114 0.0
O144 O 0.62564 0.2421 0.67736 0.0
O145 O 0.71602 0.30315 0.69486 0.0
C146 C 0.64526 0.3307 0.51093 0.0
C147 C 0.48511 0.31992 0.63691 0.0
C148 C 0.66352 0.44873 0.66292 0.0
O149 O 0.61089 0.36894 0.53853 0.0
O150 O 0.67088 0.29097 0.54362 0.0
O151 O 0.61533 0.41887 0.68765 0.0
O152 O 0.6982 0.41815 0.62672 0.0
C153 C 0.68472 0.25336 0.70575 0.0
O154 O 0.52365 0.35574 0.67247 0.0
O155 O 0.51751 0.28915 0.59923 0.0
In156 In 0.63014 0.33334 0.32327 0.0
O157 O 0.62482 0.37546 0.41728 0.0
O158 O 0.66796 0.28893 0.41156 0.0
C159 C 0.6681 0.44527 0.2884 0.0
C160 C 0.68271 0.24829 0.2502 0.0
C161 C 0.4884 0.32493 0.3196 0.0
O162 O 0.70126 0.42149 0.33153 0.0
O163 O 0.62086 0.41066 0.26019 0.0
O164 O 0.52529 0.29147 0.3516 0.0
O165 O 0.52244 0.36014 0.28725 0.0
C166 C 0.64902 0.3321 0.44509 0.0
O167 O 0.61736 0.25294 0.25455 0.0
O168 O 0.72229 0.2858 0.28333 0.0
In169 In 0.623 0.62282 0.31472 0.0
O170 O 0.7111 0.69209 0.29122 0.0
O171 O 0.62091 0.67633 0.22951 0.0
C172 C 0.63334 0.62387 0.43653 0.0
C173 C 0.48433 0.64083 0.3099 0.0
C174 C 0.66515 0.51106 0.28573 0.0
O175 O 0.66409 0.6653 0.40831 0.0
O176 O 0.59924 0.58283 0.4036 0.0
O177 O 0.61217 0.53305 0.2599 0.0
O178 O 0.70112 0.54738 0.32273 0.0
C179 C 0.67926 0.70533 0.2423 0.0
O180 O 0.50946 0.59845 0.27948 0.0
O181 O 0.52904 0.67516 0.34159 0.0
In182 In 0.26979 0.64022 0.33225 0.0
O183 O 0.38334 0.67535 0.35657 0.0
O184 O 0.36366 0.61331 0.2798 0.0
C185 C 0.22781 0.66926 0.44407 0.0
C186 C 0.21361 0.71279 0.24978 0.0
C187 C 0.25937 0.51846 0.33122 0.0
O188 O 0.28084 0.69492 0.42209 0.0
O189 O 0.1917 0.63238 0.40771 0.0
O190 O 0.22853 0.54669 0.28981 0.0
O191 O 0.29363 0.55134 0.37223 0.0
C192 C 0.40841 0.64497 0.31414 0.0
O193 O 0.1818 0.66382 0.26278 0.0
O194 O 0.27184 0.72555 0.279 0.0
In195 In 0.27269 0.33174 0.3324 0.0
O196 O 0.37542 0.35966 0.29074 0.0
O197 O 0.37901 0.29652 0.36086 0.0
C198 C 0.26038 0.45241 0.33125 0.0
C199 C 0.21217 0.25622 0.2436 0.0
C200 C 0.23265 0.29559 0.44082 0.0
O201 O 0.29532 0.42728 0.37219 0.0
O202 O 0.23038 0.41681 0.28998 0.0
O203 O 0.2009 0.33496 0.41222 0.0
O204 O 0.28154 0.27243 0.41333 0.0
C205 C 0.41214 0.32629 0.32313 0.0
O206 O 0.17588 0.28588 0.27909 0.0
O207 O 0.27799 0.26526 0.25214 0.0
loop_
_geom_bond_atom_site_label_1
_geom_bond_atom_site_label_2
_geom_bond_distance
_geom_bond_site_symmetry_2
_ccdc_geom_bond_type
In0 O1 2.294 . S
In0 O2 2.326 . S
In0 O6 2.266 . S
In0 O7 2.326 . S
In0 O8 2.266 . S
In0 O9 2.326 . S
In0 O11 2.294 . S
In0 O12 2.326 . S
O1 In0 2.294 . S
O1 C10 1.240 . S
O2 In0 2.326 . S
O2 C10 1.252 . S
C3 O6 1.252 . S
C3 O7 1.260 . S
C4 O11 1.240 . S
C4 O12 1.252 . S
C5 O8 1.252 . S
C5 O9 1.260 . S
O6 In0 2.266 . S
O6 C3 1.252 . S
O7 In0 2.326 . S
O7 C3 1.260 . S
O8 In0 2.266 . S
O8 C5 1.252 . S
O9 In0 2.326 . S
O9 C5 1.260 . S
C10 O1 1.240 . S
C10 O2 1.252 . S
O11 In0 2.294 . S
O11 C4 1.240 . S
O12 In0 2.326 . S
O12 C4 1.252 . S
In13 O14 2.294 . S
In13 O15 2.326 . S
In13 O19 2.266 . S
In13 O20 2.326 . S
In13 O21 2.266 . S
In13 O22 2.326 . S
In13 O24 2.294 . S
In13 O25 2.326 . S
O14 In13 2.294 . S
O14 C23 1.240 . S
O15 In13 2.326 . S
O15 C23 1.252 . S
C16 O19 1.252 1_455 S
C16 O20 1.260 1_455 S
C17 O24 1.240 . S
C17 O25 1.252 . S
C18 O21 1.252 . S
C18 O22 1.260 . S
O19 In13 2.266 . S
O19 C16 1.252 1_655 S
O20 In13 2.326 . S
O20 C16 1.260 1_655 S
O21 In13 2.266 . S
O21 C18 1.252 . S
O22 In13 2.326 . S
O22 C18 1.260 . S
C23 O14 1.240 . S
C23 O15 1.252 . S
O24 In13 2.294 . S
O24 C17 1.240 . S
O25 In13 2.326 . S
O25 C17 1.252 . S
In26 O27 2.294 . S
In26 O28 2.326 . S
In26 O32 2.266 . S
In26 O33 2.326 . S
In26 O34 2.266 . S
In26 O35 2.326 . S
In26 O37 2.294 . S
In26 O38 2.326 . S
O27 In26 2.294 . S
O27 C36 1.240 . S
O28 In26 2.326 . S
O28 C36 1.252 . S
C29 O32 1.252 . S
C29 O33 1.260 . S
C30 O37 1.240 . S
C30 O38 1.252 . S
C31 O34 1.252 . S
C31 O35 1.260 . S
O32 In26 2.266 . S
O32 C29 1.252 . S
O33 In26 2.326 . S
O33 C29 1.260 . S
O34 In26 2.266 . S
O34 C31 1.252 . S
O35 In26 2.326 . S
O35 C31 1.260 . S
C36 O27 1.240 . S
C36 O28 1.252 . S
O37 In26 2.294 . S
O37 C30 1.240 . S
O38 In26 2.326 . S
O38 C30 1.252 . S
In39 O40 2.294 . S
In39 O41 2.326 . S
In39 O45 2.266 . S
In39 O46 2.326 . S
In39 O47 2.266 . S
In39 O48 2.326 . S
In39 O50 2.294 . S
In39 O51 2.326 . S
O40 In39 2.294 . S
O40 C49 1.240 . S
O41 In39 2.326 . S
O41 C49 1.252 . S
C42 O45 1.252 . S
C42 O46 1.260 . S
C43 O50 1.240 . S
C43 O51 1.252 . S
C44 O47 1.252 . S
C44 O48 1.260 . S
O45 In39 2.266 . S
O45 C42 1.252 . S
O46 In39 2.326 . S
O46 C42 1.260 . S
O47 In39 2.266 . S
O47 C44 1.252 . S
O48 In39 2.326 . S
O48 C44 1.260 . S
C49 O40 1.240 . S
C49 O41 1.252 . S
O50 In39 2.294 . S
O50 C43 1.240 . S
O51 In39 2.326 . S
O51 C43 1.252 . S
In52 O53 2.294 . S
In52 O54 2.326 . S
In52 O58 2.266 . S
In52 O59 2.326 . S
In52 O60 2.266 . S
In52 O61 2.326 . S
In52 O63 2.294 . S
In52 O64 2.326 . S
O53 In52 2.294 . S
O53 C62 1.240 . S
O54 In52 2.326 . S
O54 C62 1.252 . S
C55 O58 1.252 1_655 S
C55 O59 1.260 1_655 S
C56 O63 1.240 . S
C56 O64 1.252 . S
C57 O60 1.252 . S
C57 O61 1.260 . S
O58 In52 2.266 . S
O58 C55 1.252 1_455 S
O59 In52 2.326 . S
O59 C55 1.260 1_455 S
O60 In52 2.266 . S
O60 C57 1.252 . S
O61 In52 2.326 . S
O61 C57 1.260 . S
C62 O53 1.240 . S
C62 O54 1.252 . S
O63 In52 2.294 . S
O63 C56 1.240 . S
O64 In52 2.326 . S
O64 C56 1.252 . S
In65 O66 2.294 . S
In65 O67 2.326 . S
In65 O71 2.266 . S
In65 O72 2.326 . S
In65 O73 2.266 . S
In65 O74 2.326 . S
In65 O76 2.294 . S
In65 O77 2.326 . S
O66 In65 2.294 . S
O66 C75 1.240 . S
O67 In65 2.326 . S
O67 C75 1.252 . S
C68 O71 1.252 . S
C68 O72 1.260 . S
C69 O76 1.240 . S
C69 O77 1.252 . S
C70 O73 1.252 . S
C70 O74 1.260 . S
O71 In65 2.266 . S
O71 C68 1.252 . S
O72 In65 2.326 . S
O72 C68 1.260 . S
O73 In65 2.266 . S
O73 C70 1.252 . S
O74 In65 2.326 . S
O74 C70 1.260 . S
C75 O66 1.240 . S
C75 O67 1.252 . S
O76 In65 2.294 . S
O76 C69 1.240 . S
O77 In65 2.326 . S
O77 C69 1.252 . S
In78 O79 2.294 . S
In78 O80 2.326 . S
In78 O84 2.266 . S
In78 O85 2.326 . S
In78 O86 2.266 . S
In78 O87 2.326 . S
In78 O89 2.294 . S
In78 O90 2.326 . S
O79 In78 2.294 . S
O79 C88 1.240 . S
O80 In78 2.326 . S
O80 C88 1.252 . S
C81 O84 1.252 . S
C81 O85 1.260 . S
C82 O89 1.240 . S
C82 O90 1.252 . S
C83 O86 1.252 . S
C83 O87 1.260 . S
O84 In78 2.266 . S
O84 C81 1.252 . S
O85 In78 2.326 . S
O85 C81 1.260 . S
O86 In78 2.266 . S
O86 C83 1.252 . S
O87 In78 2.326 . S
O87 C83 1.260 . S
C88 O79 1.240 . S
C88 O80 1.252 . S
O89 In78 2.294 . S
O89 C82 1.240 . S
O90 In78 2.326 . S
O90 C82 1.252 . S
In91 O92 2.294 . S
In91 O93 2.326 . S
In91 O97 2.266 . S
In91 O98 2.326 . S
In91 O99 2.266 . S
In91 O100 2.326 . S
In91 O102 2.294 . S
In91 O103 2.326 . S
O92 In91 2.294 . S
O92 C101 1.240 . S
O93 In91 2.326 . S
O93 C101 1.252 . S
C94 O97 1.252 . S
C94 O98 1.260 . S
C95 O102 1.240 . S
C95 O103 1.252 . S
C96 O99 1.252 . S
C96 O100 1.260 . S
O97 In91 2.266 . S
O97 C94 1.252 . S
O98 In91 2.326 . S
O98 C94 1.260 . S
O99 In91 2.266 . S
O99 C96 1.252 . S
O100 In91 2.326 . S
O100 C96 1.260 . S
C101 O92 1.240 . S
C101 O93 1.252 . S
O102 In91 2.294 . S
O102 C95 1.240 . S
O103 In91 2.326 . S
O103 C95 1.252 . S
In104 O105 2.294 . S
In104 O106 2.326 . S
In104 O110 2.266 . S
In104 O111 2.326 . S
In104 O112 2.266 . S
In104 O113 2.326 . S
In104 O115 2.294 . S
In104 O116 2.326 . S
O105 In104 2.294 . S
O105 C114 1.240 . S
O106 In104 2.326 . S
O106 C114 1.252 . S
C107 O110 1.252 . S
C107 O111 1.260 . S
C108 O115 1.240 . S
C108 O116 1.252 . S
C109 O112 1.252 . S
C109 O113 1.260 . S
O110 In104 2.266 . S
O110 C107 1.252 . S
O111 In104 2.326 . S
O111 C107 1.260 . S
O112 In104 2.266 . S
O112 C109 1.252 . S
O113 In104 2.326 . S
O113 C109 1.260 . S
C114 O105 1.240 . S
C114 O106 1.252 . S
O115 In104 2.294 . S
O115 C108 1.240 . S
O116 In104 2.326 . S
O116 C108 1.252 . S
In117 O118 2.294 . S
In117 O119 2.326 . S
In117 O123 2.266 . S
In117 O124 2.326 . S
In117 O125 2.266 . S
In117 O126 2.326 . S
In117 O128 2.294 . S
In117 O129 2.326 . S
O118 In117 2.294 . S
O118 C127 1.240 . S
O119 In117 2.326 . S
O119 C127 1.252 . S
C120 O123 1.252 . S
C120 O124 1.260 . S
C121 O128 1.240 . S
C121 O129 1.252 . S
C122 O125 1.252 . S
C122 O126 1.260 . S
O123 In117 2.266 . S
O123 C120 1.252 . S
O124 In117 2.326 . S
O124 C120 1.260 . S
O125 In117 2.266 . S
O125 C122 1.252 . S
O126 In117 2.326 . S
O126 C122 1.260 . S
C127 O118 1.240 . S
C127 O119 1.252 . S
O128 In117 2.294 . S
O128 C121 1.240 . S
O129 In117 2.326 . S
O129 C121 1.252 . S
In130 O131 2.294 . S
In130 O132 2.326 . S
In130 O136 2.266 . S
In130 O137 2.326 . S
In130 O138 2.266 . S
In130 O139 2.326 . S
In130 O141 2.294 . S
In130 O142 2.326 . S
O131 In130 2.294 . S
O131 C140 1.240 . S
O132 In130 2.326 . S
O132 C140 1.252 . S
C133 O136 1.252 . S
C133 O137 1.260 . S
C134 O141 1.240 . S
C134 O142 1.252 . S
C135 O138 1.252 . S
C135 O139 1.260 . S
O136 In130 2.266 . S
O136 C133 1.252 . S
O137 In130 2.326 . S
O137 C133 1.260 . S
O138 In130 2.266 . S
O138 C135 1.252 . S
O139 In130 2.326 . S
O139 C135 1.260 . S
C140 O131 1.240 . S
C140 O132 1.252 . S
O141 In130 2.294 . S
O141 C134 1.240 . S
O142 In130 2.326 . S
O142 C134 1.252 . S
In143 O144 2.294 . S
In143 O145 2.326 . S
In143 O149 2.266 . S
In143 O150 2.326 . S
In143 O151 2.266 . S
In143 O152 2.326 . S
In143 O154 2.294 . S
In143 O155 2.326 . S
O144 In143 2.294 . S
O144 C153 1.240 . S
O145 In143 2.326 . S
O145 C153 1.252 . S
C146 O149 1.252 . S
C146 O150 1.260 . S
C147 O154 1.240 . S
C147 O155 1.252 . S
C148 O151 1.252 . S
C148 O152 1.260 . S
O149 In143 2.266 . S
O149 C146 1.252 . S
O150 In143 2.326 . S
O150 C146 1.260 . S
O151 In143 2.266 . S
O151 C148 1.252 . S
O152 In143 2.326 . S
O152 C148 1.260 . S
C153 O144 1.240 . S
C153 O145 1.252 . S
O154 In143 2.294 . S
O154 C147 1.240 . S
O155 In143 2.326 . S
O155 C147 1.252 . S
In156 O157 2.294 . S
In156 O158 2.326 . S
In156 O162 2.266 . S
In156 O163 2.326 . S
In156 O164 2.266 . S
In156 O165 2.326 . S
In156 O167 2.294 . S
In156 O168 2.326 . S
O157 In156 2.294 . S
O157 C166 1.240 . S
O158 In156 2.326 . S
O158 C166 1.252 . S
C159 O162 1.252 . S
C159 O163 1.260 . S
C160 O167 1.240 . S
C160 O168 1.252 . S
C161 O164 1.252 . S
C161 O165 1.260 . S
O162 In156 2.266 . S
O162 C159 1.252 . S
O163 In156 2.326 . S
O163 C159 1.260 . S
O164 In156 2.266 . S
O164 C161 1.252 . S
O165 In156 2.326 . S
O165 C161 1.260 . S
C166 O157 1.240 . S
C166 O158 1.252 . S
O167 In156 2.294 . S
O167 C160 1.240 . S
O168 In156 2.326 . S
O168 C160 1.252 . S
In169 O170 2.294 . S
In169 O171 2.326 . S
In169 O175 2.266 . S
In169 O176 2.326 . S
In169 O177 2.266 . S
In169 O178 2.326 . S
In169 O180 2.294 . S
In169 O181 2.326 . S
O170 In169 2.294 . S
O170 C179 1.240 . S
O171 In169 2.326 . S
O171 C179 1.252 . S
C172 O175 1.252 . S
C172 O176 1.260 . S
C173 O180 1.240 . S
C173 O181 1.252 . S
C174 O177 1.252 . S
C174 O178 1.260 . S
O175 In169 2.266 . S
O175 C172 1.252 . S
O176 In169 2.326 . S
O176 C172 1.260 . S
O177 In169 2.266 . S
O177 C174 1.252 . S
O178 In169 2.326 . S
O178 C174 1.260 . S
C179 O170 1.240 . S
C179 O171 1.252 . S
O180 In169 2.294 . S
O180 C173 1.240 . S
O181 In169 2.326 . S
O181 C173 1.252 . S
In182 O183 2.294 . S
In182 O184 2.326 . S
In182 O188 2.266 . S
In182 O189 2.326 . S
In182 O190 2.266 . S
In182 O191 2.326 . S
In182 O193 2.294 . S
In182 O194 2.326 . S
O183 In182 2.294 . S
O183 C192 1.240 . S
O184 In182 2.326 . S
O184 C192 1.252 . S
C185 O188 1.252 . S
C185 O189 1.260 . S
C186 O193 1.240 . S
C186 O194 1.252 . S
C187 O190 1.252 . S
C187 O191 1.260 . S
O188 In182 2.266 . S
O188 C185 1.252 . S
O189 In182 2.326 . S
O189 C185 1.260 . S
O190 In182 2.266 . S
O190 C187 1.252 . S
O191 In182 2.326 . S
O191 C187 1.260 . S
C192 O183 1.240 . S
C192 O184 1.252 . S
O193 In182 2.294 . S
O193 C186 1.240 . S
O194 In182 2.326 . S
O194 C186 1.252 . S
In195 O196 2.294 . S
In195 O197 2.326 . S
In195 O201 2.266 . S
In195 O202 2.326 . S
In195 O203 2.266 . S
In195 O204 2.326 . S
In195 O206 2.294 . S
In195 O207 2.326 . S
O196 In195 2.294 . S
O196 C205 1.240 . S
O197 In195 2.326 . S
O197 C205 1.252 . S
C198 O201 1.252 . S
C198 O202 1.260 . S
C199 O206 1.240 . S
C199 O207 1.252 . S
C200 O203 1.252 . S
C200 O204 1.260 . S
O201 In195 2.266 . S
O201 C198 1.252 . S
O202 In195 2.326 . S
O202 C198 1.260 . S
O203 In195 2.266 . S
O203 C200 1.252 . S
O204 In195 2.326 . S
O204 C200 1.260 . S
C205 O196 1.240 . S
C205 O197 1.252 . S
O206 In195 2.294 . S
O206 C199 1.240 . S
O207 In195 2.326 . S
O207 C199 1.252 . S
C199 C10 2.426 . S
C160 C23 1.002 . S
C36 C179 1.501 . S
C186 C43 1.501 . S
C127 C62 1.002 . S
C69 C134 1.501 . S
C82 C153 1.501 . S
C101 C114 2.426 . S
C70 C5 2.117 1_556 S
C81 C18 1.973 1_556 S
C94 C31 1.998 1_556 S
C44 C56 1.580 1_554 S
C4 C16 1.569 . S
C29 C17 1.580 1_565 S
C30 C49 2.271 1_655 S
C3 C42 1.998 1_545 S
C95 C55 1.569 . S
C57 C68 1.973 1_565 S
C75 C88 1.754 1_455 S
C96 C83 2.116 1_565 S
C172 C109 2.117 . S
C122 C185 1.973 . S
C200 C133 1.998 . S
C166 C146 1.580 . S
C108 C120 1.569 . S
C121 C135 1.580 . S
C147 C140 2.271 . S
C107 C148 1.998 . S
C205 C161 1.569 . S
C159 C174 1.973 . S
C173 C192 1.754 . S
C198 C187 2.116 . S
