# Generated by pormake.
# Topology sma, (6)-cn, num edge types: 1
# Building blocks:
#     Node 0, Type 0, BuildingBlock: UKALOJ_clean_sbu_0, # of connection points: 6
#     Node 1, Type 0, BuildingBlock: UKALOJ_clean_sbu_0, # of connection points: 6
#     Node 2, Type 0, BuildingBlock: UKALOJ_clean_sbu_0, # of connection points: 6
#     Edge 3, Type (0, 0), BuildingBlock: EZIPEK_clean_linker_0, # of connection points: 2
#     Edge 4, Type (0, 0), BuildingBlock: EZIPEK_clean_linker_0, # of connection points: 2
#     Edge 5, Type (0, 0), BuildingBlock: EZIPEK_clean_linker_0, # of connection points: 2
#     Edge 6, Type (0, 0), BuildingBlock: EZIPEK_clean_linker_0, # of connection points: 2
#     Edge 7, Type (0, 0), BuildingBlock: EZIPEK_clean_linker_0, # of connection points: 2
#     Edge 8, Type (0, 0), BuildingBlock: EZIPEK_clean_linker_0, # of connection points: 2
#     Edge 9, Type (0, 0), BuildingBlock: EZIPEK_clean_linker_0, # of connection points: 2
#     Edge 10, Type (0, 0), BuildingBlock: EZIPEK_clean_linker_0, # of connection points: 2
#     Edge 11, Type (0, 0), BuildingBlock: EZIPEK_clean_linker_0, # of connection points: 2
# Relax obj value: 0.670
# Max RMSD: 0.379
# Mean RMSD: 0.379
data_MOF--net-sma--node1-UKALOJ_clean_sbu_0--edge1-EZIPEK_clean_linker_0
_symmetry_space_group_name_H-M    P1
_symmetry_Int_Tables_number       1
_symmetry_cell_setting            triclinic
loop_
_symmetry_equiv_pos_as_xyz
'x, y, z'
_cell_length_a     18.616213
_cell_length_b     19.389493
_cell_length_c     14.779964
_cell_angle_alpha  88.196998
_cell_angle_beta   88.695689
_cell_angle_gamma 121.80024
loop_
_atom_site_label
_atom_site_type_symbol
_atom_site_fract_x
_atom_site_fract_y
_atom_site_fract_z
_atom_type_partial_charge
Zn0 Zn 1.04516 0.55049 0.1018 0.0
O1 O 0.16906 0.67562 0.09464 0.0
C2 C 0.17001 0.50788 0.07881 0.0
Zn3 Zn 0.06549 0.52883 0.22326 0.0
C4 C 0.17838 0.69903 0.17669 0.0
O5 O 0.1283 0.64932 0.23707 0.0
C6 C 0.93436 0.37575 0.2126 0.0
O7 O 0.93362 0.52878 0.24343 0.0
O8 O 0.99849 0.61837 0.13589 0.0
N9 N 0.09622 0.52627 0.34903 0.0
C10 C 1.05005 0.51263 0.42523 0.0
C11 C 0.17562 0.55131 0.46234 0.0
N12 N 0.1742 0.54964 0.37131 0.0
N13 N 0.09814 0.52811 0.49652 0.0
C14 C 1.03145 0.5757 0.90036 0.0
C15 C 0.89973 0.49179 0.88565 0.0
N16 N 0.99597 0.54782 0.98341 0.0
N17 N 0.91385 0.49694 0.97471 0.0
N18 N 0.97314 0.54032 0.8382 0.0
H19 H 0.15772 0.66521 0.93474 0.0
H20 H 0.13722 0.66717 0.817 0.0
H21 H 0.14759 0.5865 0.8628 0.0
C22 C 0.12427 0.62707 0.87824 0.0
C23 C 0.96004 0.49077 0.43016 0.0
H24 H 0.92496 0.44876 0.37714 0.0
H25 H 0.95828 0.54675 0.41948 0.0
H26 H 0.92867 0.46142 0.49709 0.0
O27 O 1.00972 0.40751 0.23175 0.0
O28 O 0.91976 0.41799 0.15437 0.0
C29 C 0.934 0.58073 0.18584 0.0
O30 O 0.10218 0.49345 0.04501 0.0
O31 O 0.18314 0.53253 0.16057 0.0
Zn32 Zn 0.5344 1.00983 0.56788 0.0
O33 O 0.67513 0.13759 0.56838 0.0
C34 C 0.52269 0.13999 0.53766 0.0
Zn35 Zn 0.58765 1.0257 0.44801 0.0
C36 C 0.73284 0.14395 0.51358 0.0
O37 O 0.71386 0.07931 0.47859 0.0
C38 C 0.40663 0.91032 0.43649 0.0
O39 O 0.58584 0.90453 0.45909 0.0
O40 O 0.58945 0.94587 0.59341 0.0
N41 N 0.63416 0.05775 0.32232 0.0
C42 C 0.60891 1.01534 0.24798 0.0
C43 C 0.70425 0.13713 0.20615 0.0
N44 N 0.69446 0.13282 0.29681 0.0
N45 N 0.65047 0.06394 0.17482 0.0
C46 C 0.54503 0.98877 0.76869 0.0
C47 C 0.41717 0.93466 0.81907 0.0
N48 N 0.49772 0.97887 0.69776 0.0
N49 N 0.4179 0.94344 0.72821 0.0
N50 N 0.49655 0.96357 0.84512 0.0
H51 H 0.66868 0.05635 0.69747 0.0
H52 H 0.6551 0.98051 0.77944 0.0
H53 H 0.66884 0.07392 0.81617 0.0
C54 C 0.63973 0.02759 0.76454 0.0
C55 C 0.53873 0.92829 0.2451 0.0
H56 H 0.52684 0.8965 0.31183 0.0
H57 H 0.55468 0.89649 0.195 0.0
H58 H 0.48068 0.92569 0.22356 0.0
O59 O 0.46847 0.9714 0.39609 0.0
O60 O 0.41288 0.89867 0.52144 0.0
C61 C 0.59316 0.89673 0.54463 0.0
O62 O 0.47147 0.06968 0.5692 0.0
O63 O 0.57771 0.14681 0.47592 0.0
Zn64 Zn 0.52694 0.50047 0.8929 0.0
O65 O 0.51757 0.38106 0.86966 0.0
C66 C 0.70823 0.5605 0.91306 0.0
Zn67 Zn 0.59036 0.55175 0.77715 0.0
C68 C 0.51747 0.37482 0.78255 0.0
O69 O 0.53646 0.43689 0.73398 0.0
C70 C 0.60434 0.68721 0.82904 0.0
O71 O 0.45376 0.5444 0.76512 0.0
O72 O 0.40952 0.43784 0.85023 0.0
N73 N 0.63386 0.58783 0.64723 0.0
C74 C 0.58898 0.57694 0.57348 0.0
C75 C 0.71461 0.61561 0.52742 0.0
N76 N 0.71228 0.6127 0.61888 0.0
N77 N 0.6378 0.59348 0.49789 0.0
C78 C 0.50061 0.46544 0.09718 0.0
C79 C 0.4265 0.51578 0.13107 0.0
N80 N 0.4727 0.47838 0.01953 0.0
N81 N 0.42516 0.5082 0.04079 0.0
N82 N 0.47518 0.49085 0.16761 0.0
H83 H 0.56558 0.41259 0.03813 0.0
H84 H 0.53678 0.3869 0.15704 0.0
H85 H 0.62204 0.48693 0.12338 0.0
C86 C 0.56001 0.43613 0.1034 0.0
C87 C 0.49616 0.54553 0.57502 0.0
H88 H 0.46097 0.48811 0.61715 0.0
H89 H 0.47092 0.53443 0.50627 0.0
H90 H 0.48544 0.59153 0.60423 0.0
O91 O 0.65625 0.66914 0.80443 0.0
O92 O 0.54084 0.6313 0.87888 0.0
C93 C 0.3916 0.48437 0.81252 0.0
O94 O 0.64365 0.55373 0.95137 0.0
O95 O 0.70766 0.55291 0.82642 0.0
C96 C 0.22696 0.42828 0.00504 0.0
C97 C 0.23239 0.50344 0.01447 0.0
C98 C 0.30684 0.54862 0.86188 0.0
C99 C 0.31629 0.48169 0.86111 0.0
N100 N 0.24474 0.33948 0.90637 0.0
N101 N 0.28377 0.63809 0.95109 0.0
C102 C 0.26387 0.41567 0.92546 0.0
C103 C 0.27377 0.56403 0.94214 0.0
N104 N 0.18825 0.36956 0.07334 0.0
N105 N 0.31717 0.59011 0.78205 0.0
H106 H 0.26531 0.65295 0.01019 0.0
H107 H 0.31301 0.68526 0.90186 0.0
H108 H 0.33805 0.57706 0.72249 0.0
H109 H 0.29428 0.62866 0.77417 0.0
H110 H 0.18904 0.31626 0.07597 0.0
H111 H 0.16135 0.37762 0.13168 0.0
H112 H 0.20235 0.2872 0.94541 0.0
H113 H 0.2638 0.32782 0.84468 0.0
C114 C 0.7751 0.27328 0.41608 0.0
C115 C 0.79804 0.22046 0.4564 0.0
C116 C 0.90072 0.25837 0.32484 0.0
C117 C 0.87283 0.30682 0.28164 0.0
N118 N 0.7552 0.32315 0.273 0.0
N119 N 0.90031 0.18142 0.45942 0.0
C120 C 0.80316 0.30546 0.32434 0.0
C121 C 0.86665 0.21924 0.41341 0.0
N122 N 0.72861 0.29528 0.46573 0.0
N123 N 0.95561 0.24485 0.27731 0.0
H124 H 0.8776 0.15489 0.52457 0.0
H125 H 0.95479 0.18302 0.43791 0.0
H126 H 0.9756 0.26681 0.2103 0.0
H127 H 0.97421 0.20541 0.29961 0.0
H128 H 0.71431 0.33746 0.44093 0.0
H129 H 0.71383 0.2785 0.53457 0.0
H130 H 0.69752 0.31376 0.29748 0.0
H131 H 0.76686 0.33298 0.20296 0.0
C132 C 0.52061 0.78274 0.66326 0.0
C133 C 0.5906 0.82781 0.59926 0.0
C134 C 0.67623 0.8009 0.70363 0.0
C135 C 0.60383 0.75023 0.76384 0.0
N136 N 0.47129 0.72758 0.81692 0.0
N137 N 0.73318 0.8717 0.55535 0.0
C138 C 0.52941 0.7496 0.74743 0.0
C139 C 0.66769 0.83385 0.61864 0.0
N140 N 0.44445 0.77221 0.64351 0.0
N141 N 0.75478 0.82396 0.73216 0.0
H142 H 0.72744 0.8958 0.49367 0.0
H143 H 0.78916 0.87218 0.55989 0.0
H144 H 0.76417 0.80986 0.79787 0.0
H145 H 0.81086 0.86531 0.69608 0.0
H146 H 0.38872 0.7354 0.68207 0.0
H147 H 0.43595 0.79574 0.58386 0.0
H148 H 0.42617 0.74357 0.815 0.0
H149 H 0.47845 0.70962 0.88157 0.0
C150 C 0.75715 0.49991 0.03131 0.0
C151 C 0.77524 0.56966 0.97703 0.0
C152 C 0.879 0.65302 0.09064 0.0
C153 C 0.8603 0.58157 0.14333 0.0
N154 N 0.74576 0.44952 0.18607 0.0
N155 N 0.84324 0.71501 0.96709 0.0
C156 C 0.78925 0.50818 0.11994 0.0
C157 C 0.83323 0.64713 0.01065 0.0
N158 N 0.70865 0.42482 0.99845 0.0
N159 N 0.9426 0.72665 0.11678 0.0
H160 H 0.81461 0.71262 0.90636 0.0
H161 H 0.8767 0.77267 0.99256 0.0
H162 H 0.97149 0.73245 0.17824 0.0
H163 H 0.96786 0.78056 0.07744 0.0
H164 H 0.69711 0.37217 0.03367 0.0
H165 H 0.68747 0.41757 0.93272 0.0
H166 H 0.68701 0.39763 0.17575 0.0
H167 H 0.76447 0.45962 0.25295 0.0
C168 C 0.34849 0.78947 0.33821 0.0
C169 C 0.33933 0.85141 0.37545 0.0
C170 C 0.2396 0.83026 0.25479 0.0
C171 C 0.25272 0.7715 0.21549 0.0
N172 N 0.3368 0.71162 0.20795 0.0
N173 N 0.28511 0.93948 0.35877 0.0
C174 C 0.31309 0.75703 0.25359 0.0
C175 C 0.28759 0.87444 0.3302 0.0
N176 N 0.39206 0.76162 0.38331 0.0
N177 N 0.17816 0.84118 0.22193 0.0
H178 H 0.31472 0.96951 0.41668 0.0
H179 H 0.25712 0.96571 0.32301 0.0
H180 H 0.14602 0.81294 0.16426 0.0
H181 H 0.15706 0.87504 0.25341 0.0
H182 H 0.39241 0.71005 0.36644 0.0
H183 H 0.4235 0.78734 0.44144 0.0
H184 H 0.38625 0.7044 0.22623 0.0
H185 H 0.31252 0.68862 0.14579 0.0
C186 C 0.46439 0.28678 0.64475 0.0
C187 C 0.50545 0.30346 0.72976 0.0
C188 C 0.56102 0.21902 0.68577 0.0
C189 C 0.52801 0.20745 0.59603 0.0
N190 N 0.43203 0.21889 0.50081 0.0
N191 N 0.58884 0.27797 0.83128 0.0
C192 C 0.47565 0.2391 0.57854 0.0
C193 C 0.55293 0.26819 0.74923 0.0
N194 N 0.41395 0.31693 0.62764 0.0
N195 N 0.59404 0.17686 0.7191 0.0
H196 H 0.57391 0.30093 0.88617 0.0
H197 H 0.62992 0.25832 0.84657 0.0
H198 H 0.59204 0.12996 0.68643 0.0
H199 H 0.59204 0.12996 0.68643 0.0
H200 H 0.3913 0.31865 0.56448 0.0
H201 H 0.39494 0.34124 0.67811 0.0
H202 H 0.38429 0.2298 0.48703 0.0
H203 H 0.44208 0.18818 0.45014 0.0
C204 C 1.01641 0.59362 0.68336 0.0
C205 C 0.99309 0.52987 0.74836 0.0
C206 C 1.04388 0.46617 0.64738 0.0
C207 C 0.07426 0.53387 0.5863 0.0
N208 N 0.10093 0.6668 0.54703 0.0
N209 N 0.99676 0.41228 0.80083 0.0
C210 C 0.06416 0.59942 0.60485 0.0
C211 C 1.00949 0.46741 0.73269 0.0
N212 N 0.99337 0.64864 0.69844 0.0
N213 N 1.04557 0.39985 0.62215 0.0
H214 H 0.971 0.41032 0.86479 0.0
H215 H 1.01746 0.37194 0.79598 0.0
H216 H 0.07295 0.39865 0.56027 0.0
H217 H 1.01504 0.34459 0.65969 0.0
H218 H 1.00302 0.69388 0.65099 0.0
H219 H 0.95837 0.64462 0.75678 0.0
H220 H 0.10136 0.71952 0.55963 0.0
H221 H 0.13702 0.6721 0.48915 0.0
C222 C 0.56354 0.07232 0.05913 0.0
C223 C 0.61942 0.04775 0.0868 0.0
C224 C 0.57686 0.95416 0.96695 0.0
C225 C 0.52829 0.98491 0.93296 0.0
N226 N 0.4933 0.08871 0.93327 0.0
N227 N 0.69038 0.97634 0.06215 0.0
C228 C 0.5263 0.04837 0.97517 0.0
C229 C 0.63003 0.99244 0.03835 0.0
N230 N 0.54298 0.11506 0.11455 0.0
N231 N 0.57175 0.88854 0.92978 0.0
H232 H 0.72976 1.00439 0.11561 0.0
H233 H 0.70572 0.94074 0.02496 0.0
H234 H 0.53457 0.86251 0.87492 0.0
H235 H 0.5994 0.85795 0.95612 0.0
H236 H 0.49527 0.12629 0.10083 0.0
H237 H 0.56768 0.13303 0.17799 0.0
H238 H 0.4981 0.14051 0.95848 0.0
H239 H 0.46871 0.07591 0.86919 0.0
C240 C 0.56018 0.48573 0.3928 0.0
C241 C 0.60808 0.5695 0.40909 0.0
C242 C 0.5783 0.60195 0.25964 0.0
C243 C 0.51898 0.51785 0.25 0.0
N244 N 0.4466 0.38 0.31037 0.0
N245 N 0.65689 0.70783 0.36418 0.0
C246 C 0.50832 0.45967 0.31738 0.0
C247 C 0.61581 0.62797 0.34402 0.0
N248 N 0.56488 0.43157 0.44957 0.0
N249 N 0.60172 0.65619 0.18727 0.0
H250 H 0.68643 0.7282 0.42527 0.0
H251 H 0.65654 0.75237 0.3232 0.0
H252 H 0.57939 0.63889 0.12278 0.0
H253 H 0.65003 0.71702 0.18895 0.0
H254 H 0.53929 0.37106 0.43491 0.0
H255 H 0.6019 0.44926 0.50621 0.0
H256 H 0.43048 0.33555 0.36167 0.0
H257 H 0.40713 0.35989 0.25569 0.0
loop_
_geom_bond_atom_site_label_1
_geom_bond_atom_site_label_2
_geom_bond_distance
_geom_bond_site_symmetry_2
_ccdc_geom_bond_type
Zn0 O1 2.055 1_655 S
Zn0 O8 2.046 . S
Zn0 N16 2.036 1_554 S
Zn0 O28 2.053 . S
Zn0 O30 2.066 1_655 S
O1 Zn0 2.055 1_455 S
O1 C4 1.259 . S
C2 O30 1.256 . S
C2 O31 1.244 . S
Zn3 O5 2.046 . S
Zn3 O7 2.055 1_455 S
Zn3 N9 2.036 . S
Zn3 O27 2.066 1_455 S
Zn3 O31 2.053 . S
C4 O1 1.259 . S
C4 O5 1.254 . S
O5 Zn3 2.046 . S
O5 C4 1.254 . S
C6 O27 1.256 . S
C6 O28 1.244 . S
O7 Zn3 2.055 1_655 S
O7 C29 1.259 . S
O8 Zn0 2.046 . S
O8 C29 1.254 . S
N9 Zn3 2.036 . S
N9 C10 1.298 1_455 S
N9 N12 1.398 . S
C10 N9 1.298 1_655 S
C10 N13 1.367 . S
C10 C23 1.481 . S
C11 N12 1.299 . S
C11 N13 1.379 1_455 S
N12 N9 1.398 . S
N12 C11 1.299 . S
N13 C10 1.367 . S
N13 C11 1.379 1_655 S
C14 N16 1.298 1_455 S
C14 N18 1.367 . S
C14 C22 1.481 . S
C15 N17 1.299 . S
C15 N18 1.379 1_655 S
N16 Zn0 2.036 1_556 S
N16 C14 1.298 1_655 S
N16 N17 1.398 . S
N17 C15 1.299 . S
N17 N16 1.398 . S
N18 C14 1.367 . S
N18 C15 1.379 1_455 S
H19 C22 0.980 . S
H20 C22 0.981 . S
H21 C22 0.981 . S
C22 C14 1.481 . S
C22 H19 0.980 . S
C22 H20 0.981 . S
C22 H21 0.981 . S
C23 C10 1.481 . S
C23 H24 0.980 . S
C23 H25 0.981 . S
C23 H26 0.981 . S
H24 C23 0.980 . S
H25 C23 0.981 . S
H26 C23 0.981 . S
O27 Zn3 2.066 1_655 S
O27 C6 1.256 . S
O28 Zn0 2.053 . S
O28 C6 1.244 . S
C29 O7 1.259 . S
C29 O8 1.254 . S
O30 Zn0 2.066 1_455 S
O30 C2 1.256 . S
O31 C2 1.244 . S
O31 Zn3 2.053 . S
Zn32 O33 2.055 1_565 S
Zn32 O40 2.046 . S
Zn32 N48 2.036 . S
Zn32 O60 2.053 . S
Zn32 O62 2.066 1_565 S
O33 Zn32 2.055 1_545 S
O33 C36 1.259 . S
C34 O62 1.256 . S
C34 O63 1.244 . S
Zn35 O37 2.046 . S
Zn35 O39 2.055 1_545 S
Zn35 N41 2.036 . S
Zn35 O59 2.066 1_545 S
Zn35 O63 2.053 . S
C36 O33 1.259 . S
C36 O37 1.254 . S
O37 Zn35 2.046 . S
O37 C36 1.254 . S
C38 O59 1.256 . S
C38 O60 1.244 . S
O39 Zn35 2.055 1_565 S
O39 C61 1.259 . S
O40 Zn32 2.046 . S
O40 C61 1.254 . S
N41 Zn35 2.036 . S
N41 C42 1.298 1_545 S
N41 N44 1.398 . S
C42 N41 1.298 1_565 S
C42 N45 1.367 . S
C42 C55 1.481 . S
C43 N44 1.299 . S
C43 N45 1.379 1_545 S
N44 N41 1.398 . S
N44 C43 1.299 . S
N45 C42 1.367 . S
N45 C43 1.379 1_565 S
C46 N48 1.298 1_545 S
C46 N50 1.367 . S
C46 C54 1.481 . S
C47 N49 1.299 . S
C47 N50 1.379 1_565 S
N48 Zn32 2.036 . S
N48 C46 1.298 1_565 S
N48 N49 1.398 . S
N49 C47 1.299 . S
N49 N48 1.398 . S
N50 C46 1.367 . S
N50 C47 1.379 1_545 S
H51 C54 0.980 . S
H52 C54 0.981 . S
H53 C54 0.981 . S
C54 C46 1.481 . S
C54 H51 0.980 . S
C54 H52 0.981 . S
C54 H53 0.981 . S
C55 C42 1.481 . S
C55 H56 0.980 . S
C55 H57 0.981 . S
C55 H58 0.981 . S
H56 C55 0.980 . S
H57 C55 0.981 . S
H58 C55 0.981 . S
O59 Zn35 2.066 1_565 S
O59 C38 1.256 . S
O60 Zn32 2.053 . S
O60 C38 1.244 . S
C61 O39 1.259 . S
C61 O40 1.254 . S
O62 Zn32 2.066 1_545 S
O62 C34 1.256 . S
O63 C34 1.244 . S
O63 Zn35 2.053 . S
Zn64 O65 2.055 . S
Zn64 O72 2.046 . S
Zn64 N80 2.036 1_556 S
Zn64 O92 2.053 . S
Zn64 O94 2.066 . S
O65 Zn64 2.055 . S
O65 C68 1.259 . S
C66 O94 1.256 . S
C66 O95 1.244 . S
Zn67 O69 2.046 . S
Zn67 O71 2.055 . S
Zn67 N73 2.036 . S
Zn67 O91 2.066 . S
Zn67 O95 2.053 . S
C68 O65 1.259 . S
C68 O69 1.254 . S
O69 Zn67 2.046 . S
O69 C68 1.254 . S
C70 O91 1.256 . S
C70 O92 1.244 . S
O71 Zn67 2.055 . S
O71 C93 1.259 . S
O72 Zn64 2.046 . S
O72 C93 1.254 . S
N73 Zn67 2.036 . S
N73 C74 1.298 . S
N73 N76 1.398 . S
C74 N73 1.298 . S
C74 N77 1.367 . S
C74 C87 1.481 . S
C75 N76 1.299 . S
C75 N77 1.379 . S
N76 N73 1.398 . S
N76 C75 1.299 . S
N77 C74 1.367 . S
N77 C75 1.379 . S
C78 N80 1.298 . S
C78 N82 1.367 . S
C78 C86 1.481 . S
C79 N81 1.299 . S
C79 N82 1.379 . S
N80 Zn64 2.036 1_554 S
N80 C78 1.298 . S
N80 N81 1.398 . S
N81 C79 1.299 . S
N81 N80 1.398 . S
N82 C78 1.367 . S
N82 C79 1.379 . S
H83 C86 0.980 . S
H84 C86 0.981 . S
H85 C86 0.981 . S
C86 C78 1.481 . S
C86 H83 0.980 . S
C86 H84 0.981 . S
C86 H85 0.981 . S
C87 C74 1.481 . S
C87 H88 0.980 . S
C87 H89 0.981 . S
C87 H90 0.981 . S
H88 C87 0.980 . S
H89 C87 0.981 . S
H90 C87 0.981 . S
O91 Zn67 2.066 . S
O91 C70 1.256 . S
O92 Zn64 2.053 . S
O92 C70 1.244 . S
C93 O71 1.259 . S
C93 O72 1.254 . S
O94 Zn64 2.066 . S
O94 C66 1.256 . S
O95 C66 1.244 . S
O95 Zn67 2.053 . S
C96 C97 1.363 . S
C96 C102 1.379 1_554 S
C96 N104 1.356 . S
C97 C96 1.363 . S
C97 C103 1.363 1_554 S
C98 C99 1.363 . S
C98 C103 1.379 . S
C98 N105 1.356 . S
C99 C98 1.363 . S
C99 C102 1.363 . S
N100 C102 1.356 . S
N100 H112 0.984 . S
N100 H113 0.985 . S
N101 C103 1.356 1_554 S
N101 H106 0.984 . S
N101 H107 0.980 1_554 S
C102 C96 1.379 1_556 S
C102 C99 1.363 . S
C102 N100 1.356 . S
C103 C97 1.363 1_556 S
C103 C98 1.379 . S
C103 N101 1.356 1_556 S
N104 C96 1.356 . S
N104 H110 0.984 . S
N104 H111 0.984 . S
N105 C98 1.356 . S
N105 H108 0.984 . S
N105 H109 0.985 . S
H106 N101 0.984 . S
H107 N101 0.980 1_556 S
H108 N105 0.984 . S
H109 N105 0.985 . S
H110 N104 0.984 . S
H111 N104 0.984 . S
H112 N100 0.984 . S
H113 N100 0.985 . S
C114 C115 1.363 . S
C114 C120 1.379 . S
C114 N122 1.356 . S
C115 C114 1.363 . S
C115 C121 1.363 . S
C116 C117 1.363 . S
C116 C121 1.379 . S
C116 N123 1.356 . S
C117 C116 1.363 . S
C117 C120 1.363 . S
N118 C120 1.356 . S
N118 H130 0.984 . S
N118 H131 0.985 . S
N119 C121 1.356 . S
N119 H124 0.984 . S
N119 H125 0.985 . S
C120 C114 1.379 . S
C120 C117 1.363 . S
C120 N118 1.356 . S
C121 C115 1.363 . S
C121 C116 1.379 . S
C121 N119 1.356 . S
N122 C114 1.356 . S
N122 H128 0.984 . S
N122 H129 0.984 . S
N123 C116 1.356 . S
N123 H126 0.984 . S
N123 H127 0.985 . S
H124 N119 0.984 . S
H125 N119 0.985 . S
H126 N123 0.984 . S
H127 N123 0.985 . S
H128 N122 0.984 . S
H129 N122 0.984 . S
H130 N118 0.984 . S
H131 N118 0.985 . S
C132 C133 1.363 . S
C132 C138 1.379 . S
C132 N140 1.356 . S
C133 C132 1.363 . S
C133 C139 1.363 . S
C134 C135 1.363 . S
C134 C139 1.379 . S
C134 N141 1.356 . S
C135 C134 1.363 . S
C135 C138 1.363 . S
N136 C138 1.356 . S
N136 H148 0.984 . S
N136 H149 0.985 . S
N137 C139 1.356 . S
N137 H142 0.984 . S
N137 H143 0.985 . S
C138 C132 1.379 . S
C138 C135 1.363 . S
C138 N136 1.356 . S
C139 C133 1.363 . S
C139 C134 1.379 . S
C139 N137 1.356 . S
N140 C132 1.356 . S
N140 H146 0.984 . S
N140 H147 0.984 . S
N141 C134 1.356 . S
N141 H144 0.984 . S
N141 H145 0.985 . S
H142 N137 0.984 . S
H143 N137 0.985 . S
H144 N141 0.984 . S
H145 N141 0.985 . S
H146 N140 0.984 . S
H147 N140 0.984 . S
H148 N136 0.984 . S
H149 N136 0.985 . S
C150 C151 1.363 1_554 S
C150 C156 1.379 . S
C150 N158 1.356 1_554 S
C151 C150 1.363 1_556 S
C151 C157 1.363 . S
C152 C153 1.363 . S
C152 C157 1.379 1_554 S
C152 N159 1.356 . S
C153 C152 1.363 . S
C153 C156 1.363 . S
N154 C156 1.356 . S
N154 H166 0.984 . S
N154 H167 0.985 . S
N155 C157 1.356 . S
N155 H160 0.984 . S
N155 H161 0.985 . S
C156 C150 1.379 . S
C156 C153 1.363 . S
C156 N154 1.356 . S
C157 C151 1.363 . S
C157 C152 1.379 1_556 S
C157 N155 1.356 . S
N158 C150 1.356 1_556 S
N158 H164 0.984 1_556 S
N158 H165 0.984 . S
N159 C152 1.356 . S
N159 H162 0.984 . S
N159 H163 0.985 . S
H160 N155 0.984 . S
H161 N155 0.985 . S
H162 N159 0.984 . S
H163 N159 0.985 . S
H164 N158 0.984 1_554 S
H165 N158 0.984 . S
H166 N154 0.984 . S
H167 N154 0.985 . S
C168 C169 1.363 . S
C168 C174 1.379 . S
C168 N176 1.356 . S
C169 C168 1.363 . S
C169 C175 1.363 . S
C170 C171 1.363 . S
C170 C175 1.379 . S
C170 N177 1.356 . S
C171 C170 1.363 . S
C171 C174 1.363 . S
N172 C174 1.356 . S
N172 H184 0.984 . S
N172 H185 0.985 . S
N173 C175 1.356 . S
N173 H178 0.984 . S
N173 H179 0.985 . S
C174 C168 1.379 . S
C174 C171 1.363 . S
C174 N172 1.356 . S
C175 C169 1.363 . S
C175 C170 1.379 . S
C175 N173 1.356 . S
N176 C168 1.356 . S
N176 H182 0.984 . S
N176 H183 0.984 . S
N177 C170 1.356 . S
N177 H180 0.984 . S
N177 H181 0.985 . S
H178 N173 0.984 . S
H179 N173 0.985 . S
H180 N177 0.984 . S
H181 N177 0.985 . S
H182 N176 0.984 . S
H183 N176 0.984 . S
H184 N172 0.984 . S
H185 N172 0.985 . S
C186 C187 1.363 . S
C186 C192 1.379 . S
C186 N194 1.356 . S
C187 C186 1.363 . S
C187 C193 1.363 . S
C188 C189 1.363 . S
C188 C193 1.379 . S
C188 N195 1.356 . S
C189 C188 1.363 . S
C189 C192 1.363 . S
N190 C192 1.356 . S
N190 H202 0.984 . S
N190 H203 0.985 . S
N191 C193 1.356 . S
N191 H196 0.984 . S
N191 H197 0.985 . S
C192 C186 1.379 . S
C192 C189 1.363 . S
C192 N190 1.356 . S
C193 C187 1.363 . S
C193 C188 1.379 . S
C193 N191 1.356 . S
N194 C186 1.356 . S
N194 H200 0.984 . S
N194 H201 0.984 . S
N195 C188 1.356 . S
N195 H198 0.984 . S
N195 H199 0.985 . S
H196 N191 0.984 . S
H197 N191 0.985 . S
H198 N195 0.984 . S
H199 N195 0.985 . S
H200 N194 0.984 . S
H201 N194 0.984 . S
H202 N190 0.984 . S
H203 N190 0.985 . S
C204 C205 1.363 . S
C204 C210 1.379 1_455 S
C204 N212 1.356 . S
C205 C204 1.363 . S
C205 C211 1.363 . S
C206 C207 1.363 . S
C206 C211 1.379 1_655 S
C206 N213 1.356 . S
C207 C206 1.363 . S
C207 C210 1.363 . S
N208 C210 1.356 . S
N208 H220 0.984 . S
N208 H221 0.985 . S
N209 C211 1.356 . S
N209 H214 0.984 . S
N209 H215 0.985 . S
C210 C204 1.379 1_655 S
C210 C207 1.363 . S
C210 N208 1.356 . S
C211 C205 1.363 . S
C211 C206 1.379 1_455 S
C211 N209 1.356 . S
N212 C204 1.356 . S
N212 H218 0.984 . S
N212 H219 0.984 . S
N213 C206 1.356 . S
N213 H216 0.984 . S
N213 H217 0.985 . S
H214 N209 0.984 . S
H215 N209 0.985 . S
H216 N213 0.984 . S
H217 N213 0.985 . S
H218 N212 0.984 . S
H219 N212 0.984 . S
H220 N208 0.984 . S
H221 N208 0.985 . S
C222 C223 1.363 1_545 S
C222 C228 1.379 1_554 S
C222 N230 1.356 . S
C223 C222 1.363 1_565 S
C223 C229 1.363 . S
C224 C225 1.363 1_565 S
C224 C229 1.379 1_556 S
C224 N231 1.356 . S
C225 C224 1.363 1_545 S
C225 C228 1.363 . S
N226 C228 1.356 . S
N226 H238 0.984 . S
N226 H239 0.985 . S
N227 C229 1.356 . S
N227 H232 0.984 . S
N227 H233 0.985 . S
C228 C222 1.379 1_556 S
C228 C225 1.363 . S
C228 N226 1.356 . S
C229 C223 1.363 . S
C229 C224 1.379 1_554 S
C229 N227 1.356 . S
N230 C222 1.356 . S
N230 H236 0.984 . S
N230 H237 0.984 . S
N231 C224 1.356 . S
N231 H234 0.984 . S
N231 H235 0.985 . S
H232 N227 0.984 . S
H233 N227 0.985 . S
H234 N231 0.984 . S
H235 N231 0.985 . S
H236 N230 0.984 . S
H237 N230 0.984 . S
H238 N226 0.984 . S
H239 N226 0.985 . S
C240 C241 1.363 . S
C240 C246 1.379 . S
C240 N248 1.356 . S
C241 C240 1.363 . S
C241 C247 1.363 . S
C242 C243 1.363 . S
C242 C247 1.379 . S
C242 N249 1.356 . S
C243 C242 1.363 . S
C243 C246 1.363 . S
N244 C246 1.356 . S
N244 H256 0.984 . S
N244 H257 0.985 . S
N245 C247 1.356 . S
N245 H250 0.984 . S
N245 H251 0.985 . S
C246 C240 1.379 . S
C246 C243 1.363 . S
C246 N244 1.356 . S
C247 C241 1.363 . S
C247 C242 1.379 . S
C247 N245 1.356 . S
N248 C240 1.356 . S
N248 H254 0.984 . S
N248 H255 0.984 . S
N249 C242 1.356 . S
N249 H252 0.984 . S
N249 H253 0.985 . S
H250 N245 0.984 . S
H251 N245 0.985 . S
H252 N249 0.984 . S
H253 N249 0.985 . S
H254 N248 0.984 . S
H255 N248 0.984 . S
H256 N244 0.984 . S
H257 N244 0.985 . S
C97 C2 2.099 . S
C99 C93 2.064 . S
C115 C36 2.064 . S
C117 C6 2.099 . S
C133 C61 2.064 . S
C135 C70 2.099 . S
C151 C66 2.099 . S
C153 C29 2.064 . S
C169 C38 2.099 . S
C171 C4 2.064 . S
C187 C68 2.064 . S
C189 C34 2.099 . S
C205 N18 0.672 . S
C207 N13 0.672 . S
C223 N45 0.672 . S
C225 N50 0.672 . S
C241 N77 0.672 . S
C243 N82 0.672 . S
