# Generated by pormake.
# Topology umc, (4)-cn, num edge types: 1
# Building blocks:
#     Node 0, Type 0, BuildingBlock: NAWXER_clean_sbu_0, # of connection points: 4
#     Node 1, Type 0, BuildingBlock: NAWXER_clean_sbu_0, # of connection points: 4
#     Node 2, Type 0, BuildingBlock: NAWXER_clean_sbu_0, # of connection points: 4
#     Node 3, Type 0, BuildingBlock: NAWXER_clean_sbu_0, # of connection points: 4
#     Node 4, Type 0, BuildingBlock: NAWXER_clean_sbu_0, # of connection points: 4
#     Node 5, Type 0, BuildingBlock: NAWXER_clean_sbu_0, # of connection points: 4
#     Node 6, Type 0, BuildingBlock: NAWXER_clean_sbu_0, # of connection points: 4
#     Node 7, Type 0, BuildingBlock: NAWXER_clean_sbu_0, # of connection points: 4
#     Node 8, Type 0, BuildingBlock: NAWXER_clean_sbu_0, # of connection points: 4
#     Node 9, Type 0, BuildingBlock: NAWXER_clean_sbu_0, # of connection points: 4
#     Node 10, Type 0, BuildingBlock: NAWXER_clean_sbu_0, # of connection points: 4
#     Node 11, Type 0, BuildingBlock: NAWXER_clean_sbu_0, # of connection points: 4
#     Node 12, Type 0, BuildingBlock: NAWXER_clean_sbu_0, # of connection points: 4
#     Node 13, Type 0, BuildingBlock: NAWXER_clean_sbu_0, # of connection points: 4
#     Node 14, Type 0, BuildingBlock: NAWXER_clean_sbu_0, # of connection points: 4
#     Node 15, Type 0, BuildingBlock: NAWXER_clean_sbu_0, # of connection points: 4
#     Edge 16, Type (0, 0), None
#     Edge 17, Type (0, 0), None
#     Edge 18, Type (0, 0), None
#     Edge 19, Type (0, 0), None
#     Edge 20, Type (0, 0), None
#     Edge 21, Type (0, 0), None
#     Edge 22, Type (0, 0), None
#     Edge 23, Type (0, 0), None
#     Edge 24, Type (0, 0), None
#     Edge 25, Type (0, 0), None
#     Edge 26, Type (0, 0), None
#     Edge 27, Type (0, 0), None
#     Edge 28, Type (0, 0), None
#     Edge 29, Type (0, 0), None
#     Edge 30, Type (0, 0), None
#     Edge 31, Type (0, 0), None
#     Edge 32, Type (0, 0), None
#     Edge 33, Type (0, 0), None
#     Edge 34, Type (0, 0), None
#     Edge 35, Type (0, 0), None
#     Edge 36, Type (0, 0), None
#     Edge 37, Type (0, 0), None
#     Edge 38, Type (0, 0), None
#     Edge 39, Type (0, 0), None
#     Edge 40, Type (0, 0), None
#     Edge 41, Type (0, 0), None
#     Edge 42, Type (0, 0), None
#     Edge 43, Type (0, 0), None
#     Edge 44, Type (0, 0), None
#     Edge 45, Type (0, 0), None
#     Edge 46, Type (0, 0), None
#     Edge 47, Type (0, 0), None
# Relax obj value: 0.015
# Max RMSD: 0.104
# Mean RMSD: 0.104
data_MOF--net-umc--node1-NAWXER_clean_sbu_0--edge1-none
_symmetry_space_group_name_H-M    P1
_symmetry_Int_Tables_number       1
_symmetry_cell_setting            triclinic
loop_
_symmetry_equiv_pos_as_xyz
'x, y, z'
_cell_length_a     21.954801
_cell_length_b     12.70391
_cell_length_c     25.496654
_cell_angle_alpha  89.999882
_cell_angle_beta   90.000077
_cell_angle_gamma 89.998148
loop_
_atom_site_label
_atom_site_type_symbol
_atom_site_fract_x
_atom_site_fract_y
_atom_site_fract_z
_atom_type_partial_charge
C0 C 0.39143 0.85932 0.48076 0.0
C1 C 0.38194 -0.11642 0.28817 0.0
O2 O 0.41691 -0.06132 0.45913 0.0
Zn3 Zn 0.43535 0.00681 0.3857 0.0
O4 O 0.36648 0.78867 0.45248 0.0
Zn5 Zn 0.38673 0.85885 0.38479 0.0
O6 O 0.48405 0.84365 0.38264 0.0
O7 O 0.52338 0.00364 0.38297 0.0
O8 O 0.36395 0.80579 0.31569 0.0
O9 O 0.40925 -0.0395 0.30995 0.0
O10 O 0.39151 0.13678 0.3918 0.0
O11 O 0.33092 -0.00263 0.3896 0.0
C12 C 0.53064 -0.09566 0.3821 0.0
C13 C 0.33821 0.0973 0.39206 0.0
C14 C 0.7846 0.66554 0.39206 0.0
C15 C 0.59217 0.85849 0.3821 0.0
O16 O 0.79189 0.76547 0.3896 0.0
Zn17 Zn 0.73608 -0.09601 0.38479 0.0
O18 O 0.73129 0.62605 0.39179 0.0
Zn19 Zn 0.68746 0.75602 0.3857 0.0
O20 O 0.71356 0.80234 0.30995 0.0
O21 O 0.75886 -0.04295 0.31569 0.0
O22 O 0.59942 0.75919 0.38297 0.0
O23 O 0.63876 -0.08081 0.38264 0.0
O24 O 0.75632 -0.02583 0.45248 0.0
O25 O 0.7059 0.82415 0.45913 0.0
C26 C 0.74088 0.87926 0.28817 0.0
C27 C 0.73138 -0.0965 0.48076 0.0
C28 C 0.39142 -0.09647 0.03839 0.0
C29 C 0.38193 0.87928 0.23098 0.0
O30 O 0.4169 0.82418 0.06002 0.0
Zn31 Zn 0.43534 0.75604 0.13345 0.0
O32 O 0.36648 -0.0258 0.06668 0.0
Zn33 Zn 0.38673 -0.09599 0.13436 0.0
O34 O 0.48405 -0.0808 0.13652 0.0
O35 O 0.52338 0.7592 0.13618 0.0
O36 O 0.36395 -0.04293 0.20346 0.0
O37 O 0.40925 0.80235 0.2092 0.0
O38 O 0.39151 0.62608 0.12736 0.0
O39 O 0.33091 0.7655 0.12955 0.0
C40 C 0.53064 0.8585 0.13705 0.0
C41 C 0.3382 0.66557 0.12709 0.0
C42 C 0.74088 -0.11644 0.23098 0.0
C43 C 0.73139 0.85931 0.0384 0.0
O44 O 0.71356 -0.03952 0.20921 0.0
Zn45 Zn 0.68747 0.0068 0.13345 0.0
O46 O 0.75886 0.80576 0.20346 0.0
Zn47 Zn 0.73608 0.85883 0.13436 0.0
O48 O 0.7919 -0.00267 0.12955 0.0
O49 O 0.7313 0.13676 0.12736 0.0
O50 O 0.75633 0.78864 0.06668 0.0
O51 O 0.7059 -0.06133 0.06002 0.0
O52 O 0.59943 0.00364 0.13618 0.0
O53 O 0.63876 0.84364 0.13652 0.0
C54 C 0.78461 0.09727 0.12709 0.0
C55 C 0.59217 -0.09566 0.13705 0.0
C56 C 0.73138 -0.0965 0.5384 0.0
C57 C 0.74088 0.87926 0.73098 0.0
O58 O 0.75632 -0.02583 0.56668 0.0
Zn59 Zn 0.73608 -0.09602 0.63436 0.0
O60 O 0.7059 0.82415 0.56002 0.0
Zn61 Zn 0.68746 0.75602 0.63345 0.0
O62 O 0.59943 0.75919 0.63618 0.0
O63 O 0.63875 -0.08082 0.63652 0.0
O64 O 0.71356 0.80234 0.70921 0.0
O65 O 0.75886 -0.04295 0.70346 0.0
O66 O 0.79189 0.76547 0.62955 0.0
O67 O 0.7313 0.62605 0.62736 0.0
C68 C 0.59217 0.85849 0.63706 0.0
C69 C 0.7846 0.66554 0.62709 0.0
C70 C 0.39142 0.85933 0.5384 0.0
C71 C 0.38192 -0.11642 0.73098 0.0
O72 O 0.36648 0.78866 0.56668 0.0
Zn73 Zn 0.38673 0.85885 0.63436 0.0
O74 O 0.41691 -0.06132 0.56002 0.0
Zn75 Zn 0.43534 0.00681 0.63345 0.0
O76 O 0.52338 0.00364 0.63618 0.0
O77 O 0.48405 0.84364 0.63652 0.0
O78 O 0.40924 -0.03951 0.70921 0.0
O79 O 0.36394 0.80579 0.70346 0.0
O80 O 0.33092 -0.00263 0.62955 0.0
O81 O 0.39152 0.13678 0.62736 0.0
C82 C 0.53064 -0.09567 0.63706 0.0
C83 C 0.33821 0.0973 0.62709 0.0
C84 C 0.73139 0.85931 0.98076 0.0
C85 C 0.74088 -0.11644 0.78818 0.0
O86 O 0.75633 0.78864 0.95248 0.0
Zn87 Zn 0.73608 0.85883 0.88479 0.0
O88 O 0.7059 -0.06133 0.95913 0.0
Zn89 Zn 0.68747 0.0068 0.8857 0.0
O90 O 0.59943 0.00364 0.88297 0.0
O91 O 0.63875 0.84364 0.88264 0.0
O92 O 0.71356 -0.03952 0.80995 0.0
O93 O 0.75886 0.80576 0.81569 0.0
O94 O 0.7919 -0.00267 0.8896 0.0
O95 O 0.7313 0.13676 0.89179 0.0
C96 C 0.59217 -0.09566 0.8821 0.0
C97 C 0.78461 0.09727 0.89206 0.0
C98 C 0.39142 -0.09647 0.98076 0.0
C99 C 0.38192 0.87928 0.78818 0.0
O100 O 0.36648 -0.0258 0.95248 0.0
Zn101 Zn 0.38672 -0.09599 0.88479 0.0
O102 O 0.4169 0.82417 0.95913 0.0
Zn103 Zn 0.43534 0.75604 0.8857 0.0
O104 O 0.52338 0.7592 0.88297 0.0
O105 O 0.48405 -0.0808 0.88264 0.0
O106 O 0.40924 0.80236 0.80995 0.0
O107 O 0.36394 -0.04292 0.81569 0.0
O108 O 0.33091 0.7655 0.8896 0.0
O109 O 0.39151 0.62608 0.89179 0.0
C110 C 0.53064 0.8585 0.8821 0.0
C111 C 0.3382 0.66557 0.89206 0.0
C112 C 0.89143 0.35931 0.48076 0.0
C113 C 0.88194 0.38356 0.28817 0.0
O114 O 0.91691 0.43867 0.45913 0.0
Zn115 Zn 0.93534 0.5068 0.3857 0.0
O116 O 0.86649 0.28865 0.45248 0.0
Zn117 Zn 0.88673 0.35883 0.38479 0.0
O118 O 0.98406 0.34365 0.38264 0.0
O119 O 1.02338 0.50365 0.38297 0.0
O120 O 0.86396 0.30577 0.31569 0.0
O121 O 0.90925 0.46048 0.30995 0.0
O122 O 0.89151 0.63676 0.39179 0.0
O123 O 0.83092 0.49734 0.3896 0.0
C124 C 1.03064 0.40435 0.3821 0.0
C125 C 0.8382 0.59727 0.39206 0.0
C126 C 0.23139 0.40354 0.48076 0.0
C127 C 0.24087 0.37928 0.28817 0.0
O128 O 0.20591 0.32418 0.45913 0.0
Zn129 Zn 0.18747 0.25605 0.3857 0.0
O130 O 0.25633 0.4742 0.45248 0.0
Zn131 Zn 0.23608 0.40401 0.38479 0.0
O132 O 0.13876 0.41921 0.38264 0.0
O133 O 0.09943 0.25921 0.38298 0.0
O134 O 0.25886 0.45707 0.31569 0.0
O135 O 0.21356 0.30236 0.30995 0.0
O136 O 0.2313 0.12608 0.3918 0.0
O137 O 0.2919 0.2655 0.3896 0.0
C138 C 0.09217 0.35851 0.3821 0.0
C139 C 0.28461 0.16557 0.39206 0.0
C140 C 0.89143 0.4035 0.03839 0.0
C141 C 0.88194 0.37925 0.23098 0.0
O142 O 0.91691 0.32414 0.06002 0.0
Zn143 Zn 0.93535 0.25601 0.13345 0.0
O144 O 0.86648 0.47416 0.06668 0.0
Zn145 Zn 0.88673 0.40398 0.13436 0.0
O146 O 0.98405 0.41917 0.13651 0.0
O147 O 1.02339 0.25918 0.13618 0.0
O148 O 0.86395 0.45704 0.20346 0.0
O149 O 0.90926 0.30233 0.2092 0.0
O150 O 0.89152 0.12604 0.12736 0.0
O151 O 0.83092 0.26546 0.12955 0.0
C152 C 1.03064 0.35848 0.13705 0.0
C153 C 0.83821 0.16553 0.12709 0.0
C154 C 0.09217 0.40434 0.13705 0.0
C155 C 0.2846 0.5973 0.12709 0.0
O156 O 0.13876 0.34365 0.13652 0.0
Zn157 Zn 0.23608 0.35885 0.13436 0.0
O158 O 0.09942 0.50364 0.13618 0.0
Zn159 Zn 0.18746 0.50682 0.13345 0.0
O160 O 0.2059 0.43868 0.06002 0.0
O161 O 0.25634 0.28867 0.06668 0.0
O162 O 0.23129 0.63679 0.12736 0.0
O163 O 0.29189 0.49737 0.12955 0.0
O164 O 0.25887 0.30579 0.20346 0.0
O165 O 0.21356 0.46051 0.2092 0.0
C166 C 0.23139 0.35933 0.0384 0.0
C167 C 0.24088 0.38359 0.23098 0.0
C168 C 0.23139 0.40354 0.5384 0.0
C169 C 0.24089 0.37928 0.73098 0.0
O170 O 0.25633 0.4742 0.56668 0.0
Zn171 Zn 0.23608 0.40401 0.63436 0.0
O172 O 0.20591 0.32418 0.56002 0.0
Zn173 Zn 0.18747 0.25605 0.63345 0.0
O174 O 0.09944 0.25921 0.63618 0.0
O175 O 0.13876 0.41921 0.63652 0.0
O176 O 0.21357 0.30237 0.70921 0.0
O177 O 0.25887 0.45708 0.70346 0.0
O178 O 0.2919 0.2655 0.62955 0.0
O179 O 0.2313 0.12608 0.62736 0.0
C180 C 0.09217 0.35851 0.63706 0.0
C181 C 0.28461 0.16557 0.62709 0.0
C182 C 0.8382 0.59727 0.62709 0.0
C183 C 1.03065 0.40435 0.63706 0.0
O184 O 0.89151 0.63676 0.62736 0.0
Zn185 Zn 0.93535 0.5068 0.63345 0.0
O186 O 0.83092 0.49734 0.62955 0.0
Zn187 Zn 0.88674 0.35883 0.63436 0.0
O188 O 0.86396 0.30576 0.70346 0.0
O189 O 0.90925 0.46048 0.70921 0.0
O190 O 0.98406 0.34365 0.63652 0.0
O191 O 1.02338 0.50365 0.63618 0.0
O192 O 0.91691 0.43867 0.56002 0.0
O193 O 0.86649 0.28865 0.56668 0.0
C194 C 0.88194 0.38355 0.73098 0.0
C195 C 0.89143 0.35931 0.5384 0.0
C196 C 0.23139 0.35933 0.98076 0.0
C197 C 0.24089 0.38358 0.78818 0.0
O198 O 0.25634 0.28867 0.95248 0.0
Zn199 Zn 0.23609 0.35885 0.88479 0.0
O200 O 0.20591 0.43868 0.95913 0.0
Zn201 Zn 0.18746 0.50681 0.8857 0.0
O202 O 0.09943 0.50363 0.88297 0.0
O203 O 0.13876 0.34364 0.88264 0.0
O204 O 0.21357 0.4605 0.80995 0.0
O205 O 0.25888 0.30578 0.81569 0.0
O206 O 0.29189 0.49737 0.8896 0.0
O207 O 0.23129 0.63678 0.89179 0.0
C208 C 0.09217 0.40433 0.8821 0.0
C209 C 0.2846 0.5973 0.89206 0.0
C210 C 0.89142 0.40349 0.98076 0.0
C211 C 0.88193 0.37924 0.78818 0.0
O212 O 0.86648 0.47416 0.95248 0.0
Zn213 Zn 0.88673 0.40398 0.88479 0.0
O214 O 0.91691 0.32414 0.95913 0.0
Zn215 Zn 0.93535 0.25601 0.8857 0.0
O216 O 1.02339 0.25918 0.88297 0.0
O217 O 0.98405 0.41917 0.88264 0.0
O218 O 0.90925 0.30233 0.80995 0.0
O219 O 0.86395 0.45704 0.81569 0.0
O220 O 0.83092 0.26546 0.8896 0.0
O221 O 0.89152 0.12604 0.89179 0.0
C222 C 1.03065 0.35848 0.8821 0.0
C223 C 0.83821 0.16553 0.89206 0.0
loop_
_geom_bond_atom_site_label_1
_geom_bond_atom_site_label_2
_geom_bond_distance
_geom_bond_site_symmetry_2
_ccdc_geom_bond_type
C0 O2 1.247 . S
C0 O4 1.258 . S
C1 O8 1.247 1_545 S
C1 O9 1.258 . S
O2 C0 1.247 . S
O2 Zn3 2.028 . S
Zn3 O2 2.028 . S
Zn3 O7 2.035 . S
Zn3 O9 2.035 . S
Zn3 O10 2.028 . S
O4 C0 1.258 . S
O4 Zn5 2.035 1_545 S
Zn5 O4 2.035 1_565 S
Zn5 O6 2.028 . S
Zn5 O8 2.028 . S
Zn5 O11 2.035 1_565 S
O6 Zn5 2.028 . S
O6 C12 1.247 1_565 S
O7 Zn3 2.035 . S
O7 C12 1.258 . S
O8 C1 1.247 1_565 S
O8 Zn5 2.028 . S
O9 C1 1.258 . S
O9 Zn3 2.035 . S
O10 Zn3 2.028 . S
O10 C13 1.247 . S
O11 Zn5 2.035 1_545 S
O11 C13 1.258 . S
C12 O6 1.247 1_545 S
C12 O7 1.258 . S
C13 O10 1.247 . S
C13 O11 1.258 . S
C14 O16 1.247 . S
C14 O18 1.258 . S
C15 O22 1.247 . S
C15 O23 1.258 1_565 S
O16 C14 1.247 . S
O16 Zn17 2.028 1_565 S
Zn17 O16 2.028 1_545 S
Zn17 O21 2.035 . S
Zn17 O23 2.035 . S
Zn17 O24 2.028 1_545 S
O18 C14 1.258 . S
O18 Zn19 2.035 . S
Zn19 O18 2.035 . S
Zn19 O20 2.028 . S
Zn19 O22 2.028 . S
Zn19 O25 2.035 . S
O20 Zn19 2.028 . S
O20 C26 1.247 . S
O21 Zn17 2.035 . S
O21 C26 1.258 1_545 S
O22 C15 1.247 . S
O22 Zn19 2.028 . S
O23 C15 1.258 1_545 S
O23 Zn17 2.035 . S
O24 Zn17 2.028 1_565 S
O24 C27 1.247 . S
O25 Zn19 2.035 . S
O25 C27 1.258 . S
C26 O20 1.247 . S
C26 O21 1.258 1_565 S
C27 O24 1.247 . S
C27 O25 1.258 . S
C28 O30 1.247 . S
C28 O32 1.258 . S
C29 O36 1.247 1_565 S
C29 O37 1.258 . S
O30 C28 1.247 . S
O30 Zn31 2.028 . S
Zn31 O30 2.028 . S
Zn31 O35 2.035 . S
Zn31 O37 2.035 . S
Zn31 O38 2.028 . S
O32 C28 1.258 . S
O32 Zn33 2.035 1_565 S
Zn33 O32 2.035 1_545 S
Zn33 O34 2.028 . S
Zn33 O36 2.028 . S
Zn33 O39 2.035 1_545 S
O34 Zn33 2.028 . S
O34 C40 1.247 1_545 S
O35 Zn31 2.035 . S
O35 C40 1.258 . S
O36 C29 1.247 1_545 S
O36 Zn33 2.028 . S
O37 C29 1.258 . S
O37 Zn31 2.035 . S
O38 Zn31 2.028 . S
O38 C41 1.247 . S
O39 Zn33 2.035 1_565 S
O39 C41 1.258 . S
C40 O34 1.247 1_565 S
C40 O35 1.258 . S
C41 O38 1.247 . S
C41 O39 1.258 . S
C42 O44 1.247 . S
C42 O46 1.258 1_545 S
C43 O50 1.247 . S
C43 O51 1.258 . S
O44 C42 1.247 . S
O44 Zn45 2.028 . S
Zn45 O44 2.028 . S
Zn45 O49 2.035 . S
Zn45 O51 2.035 . S
Zn45 O52 2.028 . S
O46 C42 1.258 1_565 S
O46 Zn47 2.035 . S
Zn47 O46 2.035 . S
Zn47 O48 2.028 1_565 S
Zn47 O50 2.028 1_565 S
Zn47 O53 2.035 . S
O48 Zn47 2.028 1_545 S
O48 C54 1.247 . S
O49 Zn45 2.035 . S
O49 C54 1.258 . S
O50 C43 1.247 . S
O50 Zn47 2.028 1_545 S
O51 C43 1.258 . S
O51 Zn45 2.035 . S
O52 Zn45 2.028 . S
O52 C55 1.247 . S
O53 Zn47 2.035 . S
O53 C55 1.258 1_565 S
C54 O48 1.247 . S
C54 O49 1.258 . S
C55 O52 1.247 . S
C55 O53 1.258 1_545 S
C56 O58 1.247 . S
C56 O60 1.258 . S
C57 O64 1.247 . S
C57 O65 1.258 1_565 S
O58 C56 1.247 . S
O58 Zn59 2.028 1_565 S
Zn59 O58 2.028 1_545 S
Zn59 O63 2.035 . S
Zn59 O65 2.035 . S
Zn59 O66 2.028 1_545 S
O60 C56 1.258 . S
O60 Zn61 2.035 . S
Zn61 O60 2.035 . S
Zn61 O62 2.028 . S
Zn61 O64 2.028 . S
Zn61 O67 2.035 . S
O62 Zn61 2.028 . S
O62 C68 1.247 . S
O63 Zn59 2.035 . S
O63 C68 1.258 1_545 S
O64 C57 1.247 . S
O64 Zn61 2.028 . S
O65 C57 1.258 1_545 S
O65 Zn59 2.035 . S
O66 Zn59 2.028 1_565 S
O66 C69 1.247 . S
O67 Zn61 2.035 . S
O67 C69 1.258 . S
C68 O62 1.247 . S
C68 O63 1.258 1_565 S
C69 O66 1.247 . S
C69 O67 1.258 . S
C70 O72 1.247 . S
C70 O74 1.258 . S
C71 O78 1.247 . S
C71 O79 1.258 1_545 S
O72 C70 1.247 . S
O72 Zn73 2.028 1_545 S
Zn73 O72 2.028 1_565 S
Zn73 O77 2.035 . S
Zn73 O79 2.035 . S
Zn73 O80 2.028 1_565 S
O74 C70 1.258 . S
O74 Zn75 2.035 . S
Zn75 O74 2.035 . S
Zn75 O76 2.028 . S
Zn75 O78 2.028 . S
Zn75 O81 2.035 . S
O76 Zn75 2.028 . S
O76 C82 1.247 . S
O77 Zn73 2.035 . S
O77 C82 1.258 1_565 S
O78 C71 1.247 . S
O78 Zn75 2.028 . S
O79 C71 1.258 1_565 S
O79 Zn73 2.035 . S
O80 Zn73 2.028 1_545 S
O80 C83 1.247 . S
O81 Zn75 2.035 . S
O81 C83 1.258 . S
C82 O76 1.247 . S
C82 O77 1.258 1_545 S
C83 O80 1.247 . S
C83 O81 1.258 . S
C84 O86 1.247 . S
C84 O88 1.258 . S
C85 O92 1.247 . S
C85 O93 1.258 1_545 S
O86 C84 1.247 . S
O86 Zn87 2.028 1_545 S
Zn87 O86 2.028 1_565 S
Zn87 O91 2.035 . S
Zn87 O93 2.035 . S
Zn87 O94 2.028 1_565 S
O88 C84 1.258 . S
O88 Zn89 2.035 . S
Zn89 O88 2.035 . S
Zn89 O90 2.028 . S
Zn89 O92 2.028 . S
Zn89 O95 2.035 . S
O90 Zn89 2.028 . S
O90 C96 1.247 . S
O91 Zn87 2.035 . S
O91 C96 1.258 1_565 S
O92 C85 1.247 . S
O92 Zn89 2.028 . S
O93 C85 1.258 1_565 S
O93 Zn87 2.035 . S
O94 Zn87 2.028 1_545 S
O94 C97 1.247 . S
O95 Zn89 2.035 . S
O95 C97 1.258 . S
C96 O90 1.247 . S
C96 O91 1.258 1_545 S
C97 O94 1.247 . S
C97 O95 1.258 . S
C98 O100 1.247 . S
C98 O102 1.258 . S
C99 O106 1.247 . S
C99 O107 1.258 1_565 S
O100 C98 1.247 . S
O100 Zn101 2.028 1_565 S
Zn101 O100 2.028 1_545 S
Zn101 O105 2.035 . S
Zn101 O107 2.035 . S
Zn101 O108 2.028 1_545 S
O102 C98 1.258 . S
O102 Zn103 2.035 . S
Zn103 O102 2.035 . S
Zn103 O104 2.028 . S
Zn103 O106 2.028 . S
Zn103 O109 2.035 . S
O104 Zn103 2.028 . S
O104 C110 1.247 . S
O105 Zn101 2.035 . S
O105 C110 1.258 1_545 S
O106 C99 1.247 . S
O106 Zn103 2.028 . S
O107 C99 1.258 1_545 S
O107 Zn101 2.035 . S
O108 Zn101 2.028 1_565 S
O108 C111 1.247 . S
O109 Zn103 2.035 . S
O109 C111 1.258 . S
C110 O104 1.247 . S
C110 O105 1.258 1_565 S
C111 O108 1.247 . S
C111 O109 1.258 . S
C112 O114 1.247 . S
C112 O116 1.258 . S
C113 O120 1.247 . S
C113 O121 1.258 . S
O114 C112 1.247 . S
O114 Zn115 2.028 . S
Zn115 O114 2.028 . S
Zn115 O119 2.035 . S
Zn115 O121 2.035 . S
Zn115 O122 2.028 . S
O116 C112 1.258 . S
O116 Zn117 2.035 . S
Zn117 O116 2.035 . S
Zn117 O118 2.028 . S
Zn117 O120 2.028 . S
Zn117 O123 2.035 . S
O118 Zn117 2.028 . S
O118 C124 1.247 . S
O119 Zn115 2.035 . S
O119 C124 1.258 . S
O120 C113 1.247 . S
O120 Zn117 2.028 . S
O121 C113 1.258 . S
O121 Zn115 2.035 . S
O122 Zn115 2.028 . S
O122 C125 1.247 . S
O123 Zn117 2.035 . S
O123 C125 1.258 . S
C124 O118 1.247 . S
C124 O119 1.258 . S
C125 O122 1.247 . S
C125 O123 1.258 . S
C126 O128 1.247 . S
C126 O130 1.258 . S
C127 O134 1.247 . S
C127 O135 1.258 . S
O128 C126 1.247 . S
O128 Zn129 2.028 . S
Zn129 O128 2.028 . S
Zn129 O133 2.035 . S
Zn129 O135 2.035 . S
Zn129 O136 2.028 . S
O130 C126 1.258 . S
O130 Zn131 2.035 . S
Zn131 O130 2.035 . S
Zn131 O132 2.028 . S
Zn131 O134 2.028 . S
Zn131 O137 2.035 . S
O132 Zn131 2.028 . S
O132 C138 1.247 . S
O133 Zn129 2.035 . S
O133 C138 1.258 . S
O134 C127 1.247 . S
O134 Zn131 2.028 . S
O135 C127 1.258 . S
O135 Zn129 2.035 . S
O136 Zn129 2.028 . S
O136 C139 1.247 . S
O137 Zn131 2.035 . S
O137 C139 1.258 . S
C138 O132 1.247 . S
C138 O133 1.258 . S
C139 O136 1.247 . S
C139 O137 1.258 . S
C140 O142 1.247 . S
C140 O144 1.258 . S
C141 O148 1.247 . S
C141 O149 1.258 . S
O142 C140 1.247 . S
O142 Zn143 2.028 . S
Zn143 O142 2.028 . S
Zn143 O147 2.035 . S
Zn143 O149 2.035 . S
Zn143 O150 2.028 . S
O144 C140 1.258 . S
O144 Zn145 2.035 . S
Zn145 O144 2.035 . S
Zn145 O146 2.028 . S
Zn145 O148 2.028 . S
Zn145 O151 2.035 . S
O146 Zn145 2.028 . S
O146 C152 1.247 . S
O147 Zn143 2.035 . S
O147 C152 1.258 . S
O148 C141 1.247 . S
O148 Zn145 2.028 . S
O149 C141 1.258 . S
O149 Zn143 2.035 . S
O150 Zn143 2.028 . S
O150 C153 1.247 . S
O151 Zn145 2.035 . S
O151 C153 1.258 . S
C152 O146 1.247 . S
C152 O147 1.258 . S
C153 O150 1.247 . S
C153 O151 1.258 . S
C154 O156 1.247 . S
C154 O158 1.258 . S
C155 O162 1.247 . S
C155 O163 1.258 . S
O156 C154 1.247 . S
O156 Zn157 2.028 . S
Zn157 O156 2.028 . S
Zn157 O161 2.035 . S
Zn157 O163 2.035 . S
Zn157 O164 2.028 . S
O158 C154 1.258 . S
O158 Zn159 2.035 . S
Zn159 O158 2.035 . S
Zn159 O160 2.028 . S
Zn159 O162 2.028 . S
Zn159 O165 2.035 . S
O160 Zn159 2.028 . S
O160 C166 1.247 . S
O161 Zn157 2.035 . S
O161 C166 1.258 . S
O162 C155 1.247 . S
O162 Zn159 2.028 . S
O163 C155 1.258 . S
O163 Zn157 2.035 . S
O164 Zn157 2.028 . S
O164 C167 1.247 . S
O165 Zn159 2.035 . S
O165 C167 1.258 . S
C166 O160 1.247 . S
C166 O161 1.258 . S
C167 O164 1.247 . S
C167 O165 1.258 . S
C168 O170 1.247 . S
C168 O172 1.258 . S
C169 O176 1.247 . S
C169 O177 1.258 . S
O170 C168 1.247 . S
O170 Zn171 2.028 . S
Zn171 O170 2.028 . S
Zn171 O175 2.035 . S
Zn171 O177 2.035 . S
Zn171 O178 2.028 . S
O172 C168 1.258 . S
O172 Zn173 2.035 . S
Zn173 O172 2.035 . S
Zn173 O174 2.028 . S
Zn173 O176 2.028 . S
Zn173 O179 2.035 . S
O174 Zn173 2.028 . S
O174 C180 1.247 . S
O175 Zn171 2.035 . S
O175 C180 1.258 . S
O176 C169 1.247 . S
O176 Zn173 2.028 . S
O177 C169 1.258 . S
O177 Zn171 2.035 . S
O178 Zn171 2.028 . S
O178 C181 1.247 . S
O179 Zn173 2.035 . S
O179 C181 1.258 . S
C180 O174 1.247 . S
C180 O175 1.258 . S
C181 O178 1.247 . S
C181 O179 1.258 . S
C182 O184 1.247 . S
C182 O186 1.258 . S
C183 O190 1.247 . S
C183 O191 1.258 . S
O184 C182 1.247 . S
O184 Zn185 2.028 . S
Zn185 O184 2.028 . S
Zn185 O189 2.035 . S
Zn185 O191 2.035 . S
Zn185 O192 2.028 . S
O186 C182 1.258 . S
O186 Zn187 2.035 . S
Zn187 O186 2.035 . S
Zn187 O188 2.028 . S
Zn187 O190 2.028 . S
Zn187 O193 2.035 . S
O188 Zn187 2.028 . S
O188 C194 1.247 . S
O189 Zn185 2.035 . S
O189 C194 1.258 . S
O190 C183 1.247 . S
O190 Zn187 2.028 . S
O191 C183 1.258 . S
O191 Zn185 2.035 . S
O192 Zn185 2.028 . S
O192 C195 1.247 . S
O193 Zn187 2.035 . S
O193 C195 1.258 . S
C194 O188 1.247 . S
C194 O189 1.258 . S
C195 O192 1.247 . S
C195 O193 1.258 . S
C196 O198 1.247 . S
C196 O200 1.258 . S
C197 O204 1.247 . S
C197 O205 1.258 . S
O198 C196 1.247 . S
O198 Zn199 2.028 . S
Zn199 O198 2.028 . S
Zn199 O203 2.035 . S
Zn199 O205 2.035 . S
Zn199 O206 2.028 . S
O200 C196 1.258 . S
O200 Zn201 2.035 . S
Zn201 O200 2.035 . S
Zn201 O202 2.028 . S
Zn201 O204 2.028 . S
Zn201 O207 2.035 . S
O202 Zn201 2.028 . S
O202 C208 1.247 . S
O203 Zn199 2.035 . S
O203 C208 1.258 . S
O204 C197 1.247 . S
O204 Zn201 2.028 . S
O205 C197 1.258 . S
O205 Zn199 2.035 . S
O206 Zn199 2.028 . S
O206 C209 1.247 . S
O207 Zn201 2.035 . S
O207 C209 1.258 . S
C208 O202 1.247 . S
C208 O203 1.258 . S
C209 O206 1.247 . S
C209 O207 1.258 . S
C210 O212 1.247 . S
C210 O214 1.258 . S
C211 O218 1.247 . S
C211 O219 1.258 . S
O212 C210 1.247 . S
O212 Zn213 2.028 . S
Zn213 O212 2.028 . S
Zn213 O217 2.035 . S
Zn213 O219 2.035 . S
Zn213 O220 2.028 . S
O214 C210 1.258 . S
O214 Zn215 2.035 . S
Zn215 O214 2.035 . S
Zn215 O216 2.028 . S
Zn215 O218 2.028 . S
Zn215 O221 2.035 . S
O216 Zn215 2.028 . S
O216 C222 1.247 . S
O217 Zn213 2.035 . S
O217 C222 1.258 . S
O218 C211 1.247 . S
O218 Zn215 2.028 . S
O219 C211 1.258 . S
O219 Zn213 2.035 . S
O220 Zn213 2.028 . S
O220 C223 1.247 . S
O221 Zn215 2.035 . S
O221 C223 1.258 . S
C222 O216 1.247 . S
C222 O217 1.258 . S
C223 O220 1.247 . S
C223 O221 1.258 . S
C0 C70 1.629 . S
C56 C27 1.628 . S
C28 C98 1.629 1_554 S
C84 C43 1.628 1_556 S
C195 C112 1.631 . S
C168 C126 1.629 . S
C210 C140 1.629 1_556 S
C166 C196 1.629 1_554 S
C15 C12 1.505 1_565 S
C40 C55 1.505 1_565 S
C68 C82 1.504 1_565 S
C96 C110 1.504 1_545 S
C124 C138 1.506 1_655 S
C154 C152 1.506 1_455 S
C183 C180 1.505 1_655 S
C208 C222 1.504 1_455 S
C139 C13 1.506 . S
C14 C125 1.507 . S
C155 C41 1.506 . S
C54 C153 1.507 . S
C69 C182 1.507 . S
C181 C83 1.509 . S
C97 C223 1.508 . S
C209 C111 1.509 . S
C1 C29 1.833 1_545 S
C42 C26 1.845 1_545 S
C85 C57 1.845 1_545 S
C99 C71 1.844 1_565 S
C141 C113 1.834 . S
C127 C167 1.833 . S
C197 C169 1.844 . S
C194 C211 1.840 . S
