# Generated by pormake.
# Topology pcu, (6)-cn, num edge types: 1
# Building blocks:
#     Node 0, Type 0, BuildingBlock: BETFAJ_clean_sbu_0, # of connection points: 6
#     Edge 1, Type (0, 0), BuildingBlock: ZUJKAS_clean_linker_0, # of connection points: 2
#     Edge 2, Type (0, 0), BuildingBlock: ZUJKAS_clean_linker_0, # of connection points: 2
#     Edge 3, Type (0, 0), BuildingBlock: ZUJKAS_clean_linker_0, # of connection points: 2
# Relax obj value: 0.000
# Max RMSD: 0.000
# Mean RMSD: 0.000
data_MOF--net-pcu--node1-BETFAJ_clean_sbu_0--edge1-ZUJKAS_clean_linker_0
_symmetry_space_group_name_H-M    P1
_symmetry_Int_Tables_number       1
_symmetry_cell_setting            triclinic
loop_
_symmetry_equiv_pos_as_xyz
'x, y, z'
_cell_length_a     30.319732
_cell_length_b     19.83618
_cell_length_c     19.151901
_cell_angle_alpha  86.658476
_cell_angle_beta   95.291639
_cell_angle_gamma 124.77227
loop_
_atom_site_label
_atom_site_type_symbol
_atom_site_fract_x
_atom_site_fract_y
_atom_site_fract_z
_atom_type_partial_charge
Sm0 Sm 0.95835 0.94039 0.01464 0.0
Sm1 Sm 0.07864 0.04127 0.99767 0.0
C2 C 0.85945 0.88525 0.04782 0.0
C3 C 0.81873 0.90545 0.03858 0.0
C4 C 0.8268 0.97418 0.0706 0.0
C5 C 0.78633 0.98874 0.06482 0.0
C6 C 0.73669 0.93512 0.02681 0.0
C7 C 0.72911 0.86708 0.99412 0.0
C8 C 0.76943 0.85238 1.00014 0.0
C9 C 0.98467 0.95438 0.87791 0.0
C10 C 0.02675 0.14086 0.99578 0.0
C11 C 0.17768 0.09661 0.96497 0.0
C12 C 0.21835 0.07633 0.97415 0.0
C13 C 0.21024 0.00758 0.9421 0.0
C14 C 0.25068 -0.00705 0.94784 0.0
C15 C 0.30033 0.04652 0.98585 0.0
C16 C 0.30795 0.11457 0.01858 0.0
C17 C 0.26766 0.12933 0.01259 0.0
C18 C 0.05196 0.02712 0.13434 0.0
C19 C 1.01021 0.8408 0.01609 0.0
O20 O 0.90288 0.93168 0.08896 0.0
O21 O 0.86912 0.86117 0.99259 0.0
O22 O 1.00841 0.0122 0.92177 0.0
O23 O 0.94464 0.88819 0.90475 0.0
O24 O 0.98656 0.07388 0.02399 0.0
O25 O 0.06563 0.14199 0.96891 0.0
O26 O 0.13439 0.05055 0.92351 0.0
O27 O 0.16782 0.12022 0.02033 0.0
O28 O 0.02861 0.96936 0.09047 0.0
O29 O 0.09189 0.09349 0.10753 0.0
O30 O 0.05039 0.90782 0.98793 0.0
O31 O 0.97137 0.83963 0.04313 0.0
H32 H 0.86418 0.01643 0.10077 0.0
H33 H 0.79406 0.04232 0.09004 0.0
H34 H 0.69134 0.82369 0.96523 0.0
H35 H 0.76165 0.79843 0.97551 0.0
H36 H 0.17285 0.96537 0.91193 0.0
H37 H 0.24291 0.93936 0.9226 0.0
H38 H 0.34573 0.15791 0.04747 0.0
H39 H 0.27548 0.18329 0.03726 0.0
H40 H 0.10643 0.14457 0.23446 0.0
H41 H 0.09456 0.13038 0.36015 0.0
H42 H 0.96398 0.87575 0.33153 0.0
H43 H 0.97636 0.88936 0.20521 0.0
H44 H 1.00754 0.08752 0.43152 0.0
H45 H 0.0602 0.86272 0.48693 0.0
H46 H 0.07301 0.91896 0.40524 0.0
H47 H 1.00638 0.83125 0.42037 0.0
C48 C 0.0752 0.08542 0.25485 0.0
C49 C 0.04261 0.01785 0.21 0.0
C50 C 0.06843 0.07746 0.3268 0.0
C51 C 0.02901 0.00171 0.35572 0.0
C52 C 0.99551 0.93439 0.31079 0.0
H53 H 0.92991 0.83687 0.77786 0.0
H54 H 0.94169 0.85087 0.65213 0.0
C55 C 1.00234 0.94231 0.23856 0.0
C56 C 0.02303 -0.00582 0.43274 0.0
H57 H 0.02882 0.89353 0.58068 0.0
C58 C 1.01234 0.04525 0.46417 0.0
C59 C 0.02945 0.93922 0.47548 0.0
C60 C 0.04338 0.88538 0.44558 0.0
C61 C 1.00693 0.04184 0.53672 0.0
C62 C 1.01335 0.98688 0.57946 0.0
C63 C 0.02402 0.9358 0.54803 0.0
C64 C 1.00743 0.97943 0.65648 0.0
C65 C 0.99303 0.09571 0.56664 0.0
C66 C 0.04107 0.04675 0.70137 0.0
C67 C 0.0343 0.03894 0.77361 0.0
C68 C 0.99395 0.96351 0.80222 0.0
C69 C 0.96121 0.89594 0.75742 0.0
C70 C 0.96793 0.90379 0.68546 0.0
H71 H 0.97626 0.11845 0.5253 0.0
H72 H 0.96337 0.06212 0.60695 0.0
H73 H 0.03003 0.14978 0.5919 0.0
H74 H 0.07265 0.10531 0.68057 0.0
H75 H 0.06039 0.09189 0.80692 0.0
H76 H 0.36991 0.06803 0.09936 0.0
H77 H 0.44383 0.0505 0.10506 0.0
H78 H 0.40415 0.97413 0.88919 0.0
H79 H 0.33105 -0.0065 0.88245 0.0
H80 H 0.44302 0.91207 0.0837 0.0
H81 H 0.56493 0.15479 0.88996 0.0
H82 H 0.50962 0.14593 0.9283 0.0
H83 H 0.49686 0.07956 0.85786 0.0
C84 C 0.37713 0.04826 0.05277 0.0
C85 C 0.34441 0.03278 0.99026 0.0
C86 C 0.41934 0.03776 0.05628 0.0
C87 C 0.4304 0.01226 0.99727 0.0
C88 C 0.3973 -0.00462 0.93515 0.0
H89 H 0.6671 0.91349 0.91328 0.0
H90 H 0.59314 0.93096 0.90754 0.0
C91 C 0.35494 0.00556 0.93164 0.0
C92 C 0.47603 0.00237 1.0011 0.0
H93 H 0.59392 0.06937 0.92886 0.0
C94 C 0.47612 0.94679 0.05004 0.0
C95 C 0.51939 0.04747 0.95721 0.0
C96 C 0.52319 0.11086 0.90578 0.0
C97 C 0.51754 0.93397 0.05535 0.0
C98 C 0.56091 0.97907 0.01146 0.0
C99 C 0.56082 0.03465 0.96251 0.0
C100 C 0.60655 0.96922 0.01531 0.0
C101 C 0.51374 0.87058 0.10678 0.0
C102 C 0.63964 0.98613 0.07744 0.0
C103 C 0.68202 0.97599 0.08098 0.0
C104 C 0.69258 0.94878 0.02237 0.0
C105 C 0.65986 0.93325 0.95986 0.0
C106 C 0.61763 0.94372 0.95632 0.0
H107 H 0.472 0.82664 0.12258 0.0
H108 H 0.52732 0.83553 0.08426 0.0
H109 H 0.54006 0.90188 0.1547 0.0
H110 H 0.63277 0.00737 0.12339 0.0
H111 H 0.70591 0.98808 0.13018 0.0
H112 H 0.93953 0.69049 0.07527 0.0
H113 H 0.9425 0.56928 0.07464 0.0
H114 H 0.08356 0.70475 0.95639 0.0
H115 H 0.08155 0.82496 0.957 0.0
H116 H 0.94126 0.49115 0.94989 0.0
H117 H 0.12682 0.61047 0.12606 0.0
H118 H 0.08795 0.65376 0.12262 0.0
H119 H 0.13321 0.67901 0.05592 0.0
C120 C 0.97121 0.69426 0.04949 0.0
C121 C 1.01042 0.76714 0.01665 0.0
C122 C 0.97287 0.6254 0.04926 0.0
C123 C 1.01386 0.62947 0.01659 0.0
C124 C 0.05245 0.7016 0.98315 0.0
H125 H 0.09749 0.29108 0.93653 0.0
H126 H 0.09448 0.41226 0.93673 0.0
C127 C 0.05093 0.77 0.98338 0.0
C128 C 1.01572 0.55767 0.01429 0.0
H129 H 0.09561 0.4905 0.06106 0.0
C130 C 0.97463 0.49036 0.97463 0.0
C131 C 0.05991 0.55837 0.04601 0.0
C132 C 0.1043 0.62898 0.09057 0.0
C133 C 0.97697 0.42328 0.96493 0.0
C134 C 0.02114 0.42396 0.99667 0.0
C135 C 0.06224 0.49129 0.03631 0.0
C136 C 0.02297 0.35211 0.99448 0.0
C137 C 0.93258 0.35268 0.92035 0.0
C138 C 0.98431 0.28001 0.02788 0.0
C139 C 0.98585 0.21162 0.0279 0.0
C140 C 0.02647 0.21448 0.99492 0.0
C141 C 0.06574 0.28732 0.96209 0.0
C142 C 0.06405 0.35616 0.96208 0.0
H143 H 0.91015 0.37127 0.88474 0.0
H144 H 0.94891 0.32779 0.88841 0.0
H145 H 0.90359 0.30273 0.95498 0.0
H146 H 0.95313 0.27688 0.05447 0.0
H147 H 0.95519 0.15669 0.05426 0.0
loop_
_geom_bond_atom_site_label_1
_geom_bond_atom_site_label_2
_geom_bond_distance
_geom_bond_site_symmetry_2
_ccdc_geom_bond_type
Sm0 C2 2.846 . S
Sm0 O20 2.543 1_556 S
Sm0 O21 2.450 . S
Sm0 O22 2.681 1_665 S
Sm0 O23 2.464 . S
Sm0 O24 2.396 1_565 S
Sm0 O28 2.386 1_566 S
Sm0 O31 2.408 . S
Sm1 C11 2.846 . S
Sm1 O22 2.386 1_554 S
Sm1 O25 2.408 . S
Sm1 O26 2.543 1_554 S
Sm1 O27 2.450 . S
Sm1 O28 2.681 1_455 S
Sm1 O29 2.464 . S
Sm1 O30 2.396 1_545 S
C2 Sm0 2.846 . S
C2 C3 1.506 . S
C2 O20 1.261 1_556 S
C2 O21 1.242 . S
C3 C2 1.506 . S
C3 C4 1.358 1_566 S
C3 C8 1.382 . S
C4 C3 1.358 1_544 S
C4 C5 1.385 . S
C4 H32 0.930 . S
C5 C4 1.385 . S
C5 C6 1.395 1_544 S
C5 H33 0.929 . S
C6 C5 1.395 1_566 S
C6 C7 1.335 . S
C7 C6 1.335 . S
C7 C8 1.398 . S
C7 H34 0.930 . S
C8 C3 1.382 . S
C8 C7 1.398 . S
C8 H35 0.929 . S
C9 O22 1.271 1_665 S
C9 O23 1.251 . S
C10 O24 1.252 1_455 S
C10 O25 1.272 1_556 S
C11 Sm1 2.846 . S
C11 C12 1.506 . S
C11 O26 1.261 1_554 S
C11 O27 1.242 . S
C12 C11 1.506 . S
C12 C13 1.358 1_544 S
C12 C17 1.382 . S
C13 C12 1.358 1_566 S
C13 C14 1.385 . S
C13 H36 0.930 . S
C14 C13 1.385 . S
C14 C15 1.395 1_566 S
C14 H37 0.929 . S
C15 C14 1.395 1_544 S
C15 C16 1.335 . S
C16 C15 1.335 . S
C16 C17 1.398 . S
C16 H38 0.930 . S
C17 C12 1.382 . S
C17 C16 1.398 . S
C17 H39 0.929 . S
C18 O28 1.271 1_455 S
C18 O29 1.251 . S
C19 O30 1.252 1_655 S
C19 O31 1.272 1_554 S
O20 Sm0 2.543 1_554 S
O20 C2 1.261 1_554 S
O21 Sm0 2.450 . S
O21 C2 1.242 . S
O22 Sm0 2.681 1_445 S
O22 Sm1 2.386 1_556 S
O22 C9 1.271 1_445 S
O23 Sm0 2.464 . S
O23 C9 1.251 . S
O24 Sm0 2.396 1_545 S
O24 C10 1.252 1_655 S
O25 Sm1 2.408 . S
O25 C10 1.272 1_554 S
O26 Sm1 2.543 1_556 S
O26 C11 1.261 1_556 S
O27 Sm1 2.450 . S
O27 C11 1.242 . S
O28 Sm0 2.386 1_544 S
O28 Sm1 2.681 1_655 S
O28 C18 1.271 1_655 S
O29 Sm1 2.464 . S
O29 C18 1.251 . S
O30 Sm1 2.396 1_565 S
O30 C19 1.252 1_455 S
O31 Sm0 2.408 . S
O31 C19 1.272 1_556 S
H32 C4 0.930 . S
H33 C5 0.929 . S
H34 C7 0.930 . S
H35 C8 0.929 . S
H36 C13 0.930 . S
H37 C14 0.929 . S
H38 C16 0.930 . S
H39 C17 0.929 . S
H40 C48 0.929 . S
H41 C50 0.930 . S
H42 C52 0.930 . S
H43 C55 0.929 . S
H44 C58 0.930 . S
H45 C60 0.960 . S
H46 C60 0.960 1_455 S
H47 C60 0.960 . S
C48 H40 0.929 . S
C48 C49 1.388 1_545 S
C48 C50 1.384 . S
C49 C48 1.388 1_565 S
C49 C55 1.377 1_455 S
C50 H41 0.930 . S
C50 C48 1.384 . S
C50 C51 1.372 . S
C51 C50 1.372 . S
C51 C52 1.400 1_445 S
C51 C56 1.490 . S
C52 H42 0.930 . S
C52 C51 1.400 1_665 S
C52 C55 1.386 . S
H53 C69 0.930 . S
H54 C70 0.931 . S
C55 H43 0.929 . S
C55 C49 1.377 1_655 S
C55 C52 1.386 . S
C56 C51 1.490 . S
C56 C58 1.395 . S
C56 C59 1.403 1_445 S
H57 C63 0.930 . S
C58 H44 0.930 . S
C58 C56 1.395 . S
C58 C61 1.403 . S
C59 C56 1.403 1_665 S
C59 C60 1.524 . S
C59 C63 1.400 . S
C60 H45 0.960 . S
C60 H46 0.960 1_655 S
C60 H47 0.960 . S
C60 C59 1.524 . S
C61 C58 1.403 . S
C61 C62 1.392 . S
C61 C65 1.495 . S
C62 C61 1.392 . S
C62 C63 1.385 1_445 S
C62 C64 1.478 . S
C63 H57 0.930 . S
C63 C59 1.400 . S
C63 C62 1.385 1_665 S
C64 C62 1.478 . S
C64 C66 1.381 . S
C64 C70 1.383 1_445 S
C65 C61 1.495 . S
C65 H71 0.959 . S
C65 H72 0.961 . S
C65 H73 0.960 . S
C66 C64 1.381 . S
C66 C67 1.394 . S
C66 H74 0.930 . S
C67 C66 1.394 . S
C67 C68 1.383 . S
C67 H75 0.929 . S
C68 C67 1.383 . S
C68 C69 1.377 1_445 S
C69 H53 0.930 . S
C69 C68 1.377 1_665 S
C69 C70 1.379 . S
C70 H54 0.931 . S
C70 C64 1.383 1_665 S
C70 C69 1.379 . S
H71 C65 0.959 . S
H72 C65 0.961 . S
H73 C65 0.960 . S
H74 C66 0.930 . S
H75 C67 0.929 . S
H76 C84 0.929 . S
H77 C86 0.930 . S
H78 C88 0.930 . S
H79 C91 0.929 . S
H80 C94 0.930 . S
H81 C96 0.960 . S
H82 C96 0.960 . S
H83 C96 0.960 . S
C84 H76 0.929 . S
C84 C85 1.385 . S
C84 C86 1.384 . S
C85 C84 1.385 . S
C85 C91 1.381 1_544 S
C86 H77 0.930 . S
C86 C84 1.384 . S
C86 C87 1.372 . S
C87 C86 1.372 . S
C87 C88 1.400 1_544 S
C87 C92 1.484 1_545 S
C88 H78 0.930 . S
C88 C87 1.400 1_566 S
C88 C91 1.386 . S
H89 C105 0.930 . S
H90 C106 0.931 . S
C91 H79 0.929 . S
C91 C85 1.381 1_566 S
C91 C88 1.386 . S
C92 C87 1.484 1_565 S
C92 C94 1.403 . S
C92 C95 1.401 1_564 S
H93 C99 0.930 . S
C94 H80 0.930 . S
C94 C92 1.403 . S
C94 C97 1.403 . S
C95 C92 1.401 1_546 S
C95 C96 1.524 . S
C95 C99 1.400 . S
C96 H81 0.960 . S
C96 H82 0.960 . S
C96 H83 0.960 . S
C96 C95 1.524 . S
C97 C94 1.403 . S
C97 C98 1.392 . S
C97 C101 1.495 . S
C98 C97 1.392 . S
C98 C99 1.385 1_564 S
C98 C100 1.478 . S
C99 H93 0.930 . S
C99 C95 1.400 . S
C99 C98 1.385 1_546 S
C100 C98 1.478 . S
C100 C102 1.381 1_565 S
C100 C106 1.383 1_554 S
C101 C97 1.495 . S
C101 H107 0.959 . S
C101 H108 0.961 . S
C101 H109 0.960 . S
C102 C100 1.381 1_545 S
C102 C103 1.394 . S
C102 H110 0.930 . S
C103 C102 1.394 . S
C103 C104 1.383 1_545 S
C103 H111 0.929 . S
C104 C103 1.383 1_565 S
C104 C105 1.377 1_554 S
C105 H89 0.930 . S
C105 C104 1.377 1_556 S
C105 C106 1.379 . S
C106 H90 0.931 . S
C106 C100 1.383 1_556 S
C106 C105 1.379 . S
H107 C101 0.959 . S
H108 C101 0.961 . S
H109 C101 0.960 . S
H110 C102 0.930 . S
H111 C103 0.929 . S
H112 C120 0.929 . S
H113 C122 0.930 . S
H114 C124 0.930 . S
H115 C127 0.929 . S
H116 C130 0.930 . S
H117 C132 0.960 . S
H118 C132 0.960 . S
H119 C132 0.960 . S
C120 H112 0.929 . S
C120 C121 1.376 . S
C120 C122 1.384 . S
C121 C120 1.376 . S
C121 C127 1.393 1_654 S
C122 H113 0.930 . S
C122 C120 1.384 . S
C122 C123 1.372 . S
C123 C122 1.372 . S
C123 C124 1.400 1_654 S
C123 C128 1.491 . S
C124 H114 0.930 . S
C124 C123 1.400 1_456 S
C124 C127 1.386 . S
H125 C141 0.930 . S
H126 C142 0.931 . S
C127 H115 0.929 . S
C127 C121 1.393 1_456 S
C127 C124 1.386 . S
C128 C123 1.491 . S
C128 C130 1.386 1_554 S
C128 C131 1.410 1_655 S
H129 C135 0.930 . S
C130 H116 0.930 . S
C130 C128 1.386 1_556 S
C130 C133 1.403 . S
C131 C128 1.410 1_455 S
C131 C132 1.524 . S
C131 C135 1.400 . S
C132 H117 0.960 . S
C132 H118 0.960 . S
C132 H119 0.960 . S
C132 C131 1.524 . S
C133 C130 1.403 . S
C133 C134 1.392 . S
C133 C137 1.495 . S
C134 C133 1.392 . S
C134 C135 1.385 1_656 S
C134 C136 1.478 . S
C135 H129 0.930 . S
C135 C131 1.400 . S
C135 C134 1.385 1_454 S
C136 C134 1.478 . S
C136 C138 1.381 1_556 S
C136 C142 1.383 1_655 S
C137 C133 1.495 . S
C137 H143 0.959 . S
C137 H144 0.961 . S
C137 H145 0.960 . S
C138 C136 1.381 1_554 S
C138 C139 1.394 . S
C138 H146 0.930 . S
C139 C138 1.394 . S
C139 C140 1.383 1_554 S
C139 H147 0.929 . S
C140 C139 1.383 1_556 S
C140 C141 1.377 1_655 S
C141 H125 0.930 . S
C141 C140 1.377 1_455 S
C141 C142 1.379 . S
C142 H126 0.931 . S
C142 C136 1.383 1_455 S
C142 C141 1.379 . S
H143 C137 0.959 . S
H144 C137 0.961 . S
H145 C137 0.960 . S
H146 C138 0.930 . S
H147 C139 0.929 . S
C49 C18 1.455 1_565 S
C68 C9 1.456 1_445 S
C85 C15 1.499 . S
C104 C6 1.494 1_554 S
C121 C19 1.485 . S
C140 C10 1.483 1_655 S
