# Generated by pormake.
# Topology pcu, (6)-cn, num edge types: 1
# Building blocks:
#     Node 0, Type 0, BuildingBlock: MIDCAF_clean_sbu_0, # of connection points: 6
#     Edge 1, Type (0, 0), BuildingBlock: UKIBUN_clean_linker_0, # of connection points: 2
#     Edge 2, Type (0, 0), BuildingBlock: UKIBUN_clean_linker_0, # of connection points: 2
#     Edge 3, Type (0, 0), BuildingBlock: UKIBUN_clean_linker_0, # of connection points: 2
# Relax obj value: 0.148
# Max RMSD: 0.201
# Mean RMSD: 0.201
data_MOF--net-pcu--node1-MIDCAF_clean_sbu_0--edge1-UKIBUN_clean_linker_0
_symmetry_space_group_name_H-M    P1
_symmetry_Int_Tables_number       1
_symmetry_cell_setting            triclinic
loop_
_symmetry_equiv_pos_as_xyz
'x, y, z'
_cell_length_a     25.110209
_cell_length_b     24.904292
_cell_length_c     25.090321
_cell_angle_alpha  94.958536
_cell_angle_beta   95.967028
_cell_angle_gamma 95.462193
loop_
_atom_site_label
_atom_site_type_symbol
_atom_site_fract_x
_atom_site_fract_y
_atom_site_fract_z
_atom_type_partial_charge
Zn0 Zn 0.91169 0.92225 0.92065 0.0
Zn1 Zn 0.07038 0.07594 0.07836 0.0
Zn2 Zn 0.99109 0.00223 -0.00095 0.0
C3 C 0.11423 0.02439 0.99108 0.0
C4 C 0.0204 0.98898 0.12193 0.0
O5 O 0.90718 0.0037 0.00532 0.0
O6 O 0.87424 0.98861 0.91984 0.0
C7 C 0.00019 0.96648 0.87724 0.0
O8 O 0.07267 0.98925 0.98519 0.0
O9 O 0.11532 0.06941 0.01892 0.0
O10 O 0.06606 0.01558 0.12405 0.0
O11 O 0.98562 0.98663 0.08063 0.0
O12 O 0.97393 0.92099 0.8794 0.0
O13 O 0.00391 0.00412 0.91587 0.0
O14 O 0.00262 0.91897 0.0044 0.0
O15 O 0.91675 0.88602 0.98792 0.0
C16 C 0.96463 0.88152 0.00682 0.0
O17 O 0.98696 0.08459 0.98855 0.0
O18 O 0.00988 0.12156 0.07223 0.0
C19 C 0.87023 0.00748 0.96739 0.0
C20 C 0.9869 0.12324 0.02524 0.0
C21 C 0.97287 0.00711 0.20091 0.0
C22 C 0.00443 0.97355 0.17281 0.0
C23 C 0.96724 0.0012 0.25481 0.0
C24 C 0.94932 0.98689 0.46663 0.0
C25 C 0.03909 0.93867 0.79532 0.0
C26 C 0.01364 0.97763 0.82413 0.0
C27 C 0.03278 0.93396 0.73935 0.0
C28 C 0.00238 0.91061 0.52166 0.0
H29 H 0.95487 0.03958 0.18196 0.0
H30 H 0.94383 0.02825 0.27653 0.0
H31 H 0.92933 0.01702 0.44575 0.0
H32 H 0.05991 0.90896 0.81607 0.0
H33 H 0.0503 0.90186 0.71749 0.0
H34 H 0.02391 0.88168 0.54287 0.0
C35 C 0.03008 0.93384 0.19868 0.0
C36 C 0.0238 0.92739 0.25245 0.0
C37 C 0.00315 0.91085 0.46622 0.0
C38 C 0.98534 0.01477 0.79665 0.0
C39 C 0.97889 0.00991 0.74051 0.0
C40 C 0.94857 0.98665 0.52212 0.0
C41 C -0.00729 0.96139 0.28062 0.0
C42 C 0.98728 0.95608 0.33618 0.0
C43 C 0.98205 0.95251 0.3828 0.0
C44 C 0.97737 0.94952 0.43884 0.0
H45 H 0.05613 0.90908 0.1778 0.0
H46 H 0.04408 0.89681 0.2723 0.0
H47 H 0.02501 0.88188 0.44503 0.0
H48 H 0.96395 0.04391 0.81823 0.0
H49 H 0.95443 0.03672 0.71941 0.0
H50 H 0.92829 0.01678 0.5437 0.0
C51 C 0.00115 0.96838 0.71208 0.0
C52 C 0.9904 0.96018 0.65495 0.0
C53 C 0.98131 0.95338 0.60695 0.0
C54 C 0.97581 0.94902 0.54962 0.0
C55 C 0.18998 0.96765 0.9863 0.0
C56 C 0.16485 0.01275 0.97099 0.0
C57 C 0.24397 0.964 0.97871 0.0
C58 C 0.45761 0.95497 0.95672 0.0
C59 C 0.79168 0.05798 0.95525 0.0
C60 C 0.8163 0.01638 0.97888 0.0
C61 C 0.73579 0.05584 0.94812 0.0
C62 C 0.51603 0.041 0.91649 0.0
H63 H 0.16891 0.937 0.00678 0.0
H64 H 0.26349 0.92975 0.99202 0.0
H65 H 0.43547 0.92188 0.97304 0.0
H66 H 0.81554 0.08994 0.939 0.0
H67 H 0.71698 0.0871 0.92791 0.0
H68 H 0.53856 0.07492 0.90183 0.0
C69 C 0.19385 0.05349 0.94713 0.0
C70 C 0.2475 0.04962 0.93921 0.0
C71 C 0.46054 0.04077 0.91735 0.0
C72 C 0.78501 0.97413 -0.00191 0.0
C73 C 0.72907 0.97168 0.99038 0.0
C74 C 0.51306 0.95519 0.95584 0.0
C75 C 0.27282 0.00516 0.95547 0.0
C76 C 0.32857 0.00225 0.94891 0.0
C77 C 0.37531 9e-05 0.9433 0.0
C78 C 0.43145 -0.00181 0.93829 0.0
H79 H 0.17547 0.08933 0.9365 0.0
H80 H 0.2695 0.08189 0.92157 0.0
H81 H 0.44066 0.0744 0.90303 0.0
H82 H 0.8036 0.94077 0.01473 0.0
H83 H 0.70503 0.93741 0.00273 0.0
H84 H 0.5333 0.92245 0.97176 0.0
C85 C 0.70463 0.01178 0.96408 0.0
C86 C 0.64759 0.00694 0.95213 0.0
C87 C 0.59962 0.00228 0.94238 0.0
C88 C 0.54229 -0.00138 0.93654 0.0
C89 C 0.94535 0.80038 0.05235 0.0
C90 C 0.97567 0.82707 0.01681 0.0
C91 C 0.93769 0.74409 0.04779 0.0
C92 C 0.90667 0.5246 0.02704 0.0
C93 C 0.9886 0.20073 0.97066 0.0
C94 C 0.96801 0.17423 0.01228 0.0
C95 C 0.97985 0.25449 0.96549 0.0
C96 C 0.96048 0.4671 0.95206 0.0
H97 H 0.9243 0.82311 0.0808 0.0
H98 H 0.91237 0.72381 0.074 0.0
H99 H 0.88674 0.54682 0.05685 0.0
H100 H 0.0139 0.18097 0.94427 0.0
H101 H -0.00241 0.27547 0.93448 0.0
H102 H 0.98206 0.4452 0.92348 0.0
C103 C 0.00094 0.79718 0.97866 0.0
C104 C -0.00713 0.74079 0.97382 0.0
C105 C 0.96029 0.52296 0.95176 0.0
C106 C 0.9369 0.20083 0.04736 0.0
C107 C 0.92756 0.25432 0.0417 0.0
C108 C 0.90684 0.46876 0.02733 0.0
C109 C 0.96013 0.71455 0.00749 0.0
C110 C 0.94879 0.65728 0.00013 0.0
C111 C 0.93945 0.60912 0.99368 0.0
C112 C 0.93391 0.5516 0.98966 0.0
H113 H 0.02265 0.81729 0.94956 0.0
H114 H 0.0102 0.71786 0.94246 0.0
H115 H 0.98195 0.54391 0.92315 0.0
H116 H 0.92143 0.18077 0.08008 0.0
H117 H 0.90438 0.27497 0.06965 0.0
H118 H 0.88678 0.44814 0.05719 0.0
C119 C 0.94977 0.28131 0.00128 0.0
C120 C 0.94311 0.33704 -0.00261 0.0
C121 C 0.93799 0.38385 0.99342 0.0
C122 C 0.93428 0.44021 0.99027 0.0
loop_
_geom_bond_atom_site_label_1
_geom_bond_atom_site_label_2
_geom_bond_distance
_geom_bond_site_symmetry_2
_ccdc_geom_bond_type
Zn0 O6 1.920 . S
Zn0 O12 1.898 . S
Zn0 O15 1.905 . S
Zn1 O9 1.905 . S
Zn1 O10 1.898 . S
Zn1 O18 1.920 . S
Zn2 O5 2.075 1_455 S
Zn2 O8 2.120 . S
Zn2 O11 2.120 1_465 S
Zn2 O13 2.120 1_464 S
Zn2 O14 2.115 1_554 S
Zn2 O17 2.080 1_564 S
C3 O8 1.166 1_545 S
C3 O9 1.182 . S
C4 O10 1.175 . S
C4 O11 1.300 1_455 S
O5 Zn2 2.075 1_655 S
O5 C19 1.305 1_554 S
O6 Zn0 1.920 . S
O6 C19 1.234 . S
C7 O12 1.172 . S
C7 O13 1.299 1_565 S
O8 Zn2 2.120 . S
O8 C3 1.166 1_565 S
O9 Zn1 1.905 . S
O9 C3 1.182 . S
O10 Zn1 1.898 . S
O10 C4 1.175 . S
O11 Zn2 2.120 1_645 S
O11 C4 1.300 1_655 S
O12 Zn0 1.898 . S
O12 C7 1.172 . S
O13 Zn2 2.120 1_646 S
O13 C7 1.299 1_545 S
O14 Zn2 2.115 1_556 S
O14 C16 1.166 1_455 S
O15 Zn0 1.905 . S
O15 C16 1.182 . S
C16 O14 1.166 1_655 S
C16 O15 1.182 . S
O17 Zn2 2.080 1_546 S
O17 C20 1.305 1_556 S
O18 Zn1 1.920 . S
O18 C20 1.234 . S
C19 O5 1.305 1_556 S
C19 O6 1.234 . S
C20 O17 1.305 1_554 S
C20 O18 1.234 . S
C21 C22 1.420 1_645 S
C21 C23 1.385 . S
C21 H29 0.928 . S
C22 C21 1.420 1_465 S
C22 C35 1.420 . S
C23 C21 1.385 . S
C23 H30 0.929 . S
C23 C41 1.407 1_645 S
C24 H31 0.928 1_565 S
C24 C40 1.374 . S
C24 C44 1.388 . S
C25 C26 1.420 . S
C25 C27 1.385 . S
C25 H32 0.928 . S
C26 C25 1.420 . S
C26 C38 1.420 1_465 S
C27 C25 1.385 . S
C27 H33 0.929 . S
C27 C51 1.407 . S
C28 H34 0.928 . S
C28 C37 1.374 . S
C28 C54 1.388 1_455 S
H29 C21 0.928 . S
H30 C23 0.929 . S
H31 C24 0.928 1_545 S
H32 C25 0.928 . S
H33 C27 0.929 . S
H34 C28 0.928 . S
C35 C22 1.420 . S
C35 C36 1.385 . S
C35 H45 0.928 . S
C36 C35 1.385 . S
C36 C41 1.407 . S
C36 H46 0.929 . S
C37 C28 1.374 . S
C37 C44 1.388 1_455 S
C37 H47 0.928 . S
C38 C26 1.420 1_645 S
C38 C39 1.385 . S
C38 H48 0.928 . S
C39 C38 1.385 . S
C39 H49 0.929 . S
C39 C51 1.407 1_645 S
C40 C24 1.374 . S
C40 H50 0.928 1_565 S
C40 C54 1.388 . S
C41 C23 1.407 1_465 S
C41 C36 1.407 . S
C41 C42 1.428 1_455 S
C42 C41 1.428 1_655 S
C42 C43 1.230 . S
C43 C42 1.230 . S
C43 C44 1.405 . S
C44 C24 1.388 . S
C44 C37 1.388 1_655 S
C44 C43 1.405 . S
H45 C35 0.928 . S
H46 C36 0.929 . S
H47 C37 0.928 . S
H48 C38 0.928 . S
H49 C39 0.929 . S
H50 C40 0.928 1_545 S
C51 C27 1.407 . S
C51 C39 1.407 1_465 S
C51 C52 1.428 1_455 S
C52 C51 1.428 1_655 S
C52 C53 1.230 . S
C53 C52 1.230 . S
C53 C54 1.405 . S
C54 C28 1.388 1_655 S
C54 C40 1.388 . S
C54 C53 1.405 . S
C55 C56 1.420 1_565 S
C55 C57 1.385 . S
C55 H63 0.928 1_556 S
C56 C55 1.420 1_545 S
C56 C69 1.420 . S
C57 C55 1.385 . S
C57 H64 0.929 . S
C57 C75 1.407 1_565 S
C58 H65 0.928 . S
C58 C74 1.374 . S
C58 C78 1.372 1_565 S
C59 C60 1.420 . S
C59 C61 1.385 . S
C59 H66 0.928 . S
C60 C59 1.420 . S
C60 C72 1.420 1_545 S
C61 C59 1.385 . S
C61 H67 0.929 . S
C61 C85 1.407 . S
C62 H68 0.928 . S
C62 C71 1.374 . S
C62 C88 1.405 . S
H63 C55 0.928 1_554 S
H64 C57 0.929 . S
H65 C58 0.928 . S
H66 C59 0.928 . S
H67 C61 0.929 . S
H68 C62 0.928 . S
C69 C56 1.420 . S
C69 C70 1.385 . S
C69 H79 0.928 . S
C70 C69 1.385 . S
C70 C75 1.407 . S
C70 H80 0.929 . S
C71 C62 1.374 . S
C71 C78 1.403 . S
C71 H81 0.928 . S
C72 C60 1.420 1_565 S
C72 C73 1.385 . S
C72 H82 0.928 1_556 S
C73 C72 1.385 . S
C73 H83 0.929 . S
C73 C85 1.407 1_565 S
C74 C58 1.374 . S
C74 H84 0.928 . S
C74 C88 1.371 1_565 S
C75 C57 1.407 1_545 S
C75 C70 1.407 . S
C75 C76 1.428 . S
C76 C75 1.428 . S
C76 C77 1.230 . S
C77 C76 1.230 . S
C77 C78 1.407 . S
C78 C58 1.372 1_545 S
C78 C71 1.403 . S
C78 C77 1.407 . S
H79 C69 0.928 . S
H80 C70 0.929 . S
H81 C71 0.928 . S
H82 C72 0.928 1_554 S
H83 C73 0.929 . S
H84 C74 0.928 . S
C85 C61 1.407 . S
C85 C73 1.407 1_545 S
C85 C86 1.428 . S
C86 C85 1.428 . S
C86 C87 1.230 . S
C87 C86 1.230 . S
C87 C88 1.405 . S
C88 C62 1.405 . S
C88 C74 1.371 1_545 S
C88 C87 1.405 . S
C89 C90 1.420 . S
C89 C91 1.385 . S
C89 H97 0.928 . S
C90 C89 1.420 . S
C90 C103 1.420 1_654 S
C91 C89 1.385 . S
C91 H98 0.929 . S
C91 C109 1.407 . S
C92 H99 0.928 . S
C92 C108 1.374 . S
C92 C112 1.388 1_554 S
C93 C94 1.420 1_456 S
C93 C95 1.385 1_455 S
C93 H100 0.928 . S
C94 C93 1.420 1_654 S
C94 C106 1.420 . S
C95 C93 1.385 1_655 S
C95 H101 0.929 1_655 S
C95 C119 1.407 1_556 S
C96 H102 0.928 . S
C96 C105 1.374 . S
C96 C122 1.388 . S
H97 C89 0.928 . S
H98 C91 0.929 . S
H99 C92 0.928 . S
H100 C93 0.928 . S
H101 C95 0.929 1_455 S
H102 C96 0.928 . S
C103 C90 1.420 1_456 S
C103 C104 1.385 1_455 S
C103 H113 0.928 . S
C104 C103 1.385 1_655 S
C104 C109 1.407 1_556 S
C104 H114 0.929 1_655 S
C105 C96 1.374 . S
C105 C112 1.388 . S
C105 H115 0.928 . S
C106 C94 1.420 . S
C106 C107 1.385 . S
C106 H116 0.928 . S
C107 C106 1.385 . S
C107 H117 0.929 . S
C107 C119 1.407 . S
C108 C92 1.374 . S
C108 H118 0.928 . S
C108 C122 1.388 1_554 S
C109 C91 1.407 . S
C109 C104 1.407 1_554 S
C109 C110 1.428 . S
C110 C109 1.428 . S
C110 C111 1.230 1_554 S
C111 C110 1.230 1_556 S
C111 C112 1.405 . S
C112 C92 1.388 1_556 S
C112 C105 1.388 . S
C112 C111 1.405 . S
H113 C103 0.928 . S
H114 C104 0.929 1_455 S
H115 C105 0.928 . S
H116 C106 0.928 . S
H117 C107 0.929 . S
H118 C108 0.928 . S
C119 C95 1.407 1_554 S
C119 C107 1.407 . S
C119 C120 1.428 . S
C120 C119 1.428 . S
C120 C121 1.230 1_554 S
C121 C120 1.230 1_556 S
C121 C122 1.405 . S
C122 C96 1.388 . S
C122 C108 1.388 1_556 S
C122 C121 1.405 . S
C22 C4 1.266 1_565 S
C26 C7 1.224 1_455 S
C56 C3 1.300 1_556 S
C60 C19 1.257 1_545 S
C90 C16 1.257 1_554 S
C94 C20 1.297 1_655 S
