# Generated by pormake.
# Topology umg, (4)-cn, num edge types: 1
# Building blocks:
#     Node 0, Type 0, BuildingBlock: NAWXER_clean_sbu_0, # of connection points: 4
#     Node 1, Type 0, BuildingBlock: NAWXER_clean_sbu_0, # of connection points: 4
#     Node 2, Type 0, BuildingBlock: NAWXER_clean_sbu_0, # of connection points: 4
#     Node 3, Type 0, BuildingBlock: NAWXER_clean_sbu_0, # of connection points: 4
#     Node 4, Type 0, BuildingBlock: NAWXER_clean_sbu_0, # of connection points: 4
#     Node 5, Type 0, BuildingBlock: NAWXER_clean_sbu_0, # of connection points: 4
#     Node 6, Type 0, BuildingBlock: NAWXER_clean_sbu_0, # of connection points: 4
#     Node 7, Type 0, BuildingBlock: NAWXER_clean_sbu_0, # of connection points: 4
#     Node 8, Type 0, BuildingBlock: NAWXER_clean_sbu_0, # of connection points: 4
#     Node 9, Type 0, BuildingBlock: NAWXER_clean_sbu_0, # of connection points: 4
#     Node 10, Type 0, BuildingBlock: NAWXER_clean_sbu_0, # of connection points: 4
#     Node 11, Type 0, BuildingBlock: NAWXER_clean_sbu_0, # of connection points: 4
#     Edge 12, Type (0, 0), None
#     Edge 13, Type (0, 0), None
#     Edge 14, Type (0, 0), None
#     Edge 15, Type (0, 0), None
#     Edge 16, Type (0, 0), None
#     Edge 17, Type (0, 0), None
#     Edge 18, Type (0, 0), None
#     Edge 19, Type (0, 0), None
#     Edge 20, Type (0, 0), None
#     Edge 21, Type (0, 0), None
#     Edge 22, Type (0, 0), None
#     Edge 23, Type (0, 0), None
#     Edge 24, Type (0, 0), None
#     Edge 25, Type (0, 0), None
#     Edge 26, Type (0, 0), None
#     Edge 27, Type (0, 0), None
#     Edge 28, Type (0, 0), None
#     Edge 29, Type (0, 0), None
#     Edge 30, Type (0, 0), None
#     Edge 31, Type (0, 0), None
#     Edge 32, Type (0, 0), None
#     Edge 33, Type (0, 0), None
#     Edge 34, Type (0, 0), None
#     Edge 35, Type (0, 0), None
# Relax obj value: 0.016
# Max RMSD: 0.161
# Mean RMSD: 0.161
data_MOF--net-umg--node1-NAWXER_clean_sbu_0--edge1-none
_symmetry_space_group_name_H-M    P1
_symmetry_Int_Tables_number       1
_symmetry_cell_setting            triclinic
loop_
_symmetry_equiv_pos_as_xyz
'x, y, z'
_cell_length_a     12.746332
_cell_length_b     12.74662
_cell_length_c     38.282839
_cell_angle_alpha  90.001088
_cell_angle_beta   90.001095
_cell_angle_gamma 120.0021
loop_
_atom_site_label
_atom_site_type_symbol
_atom_site_fract_x
_atom_site_fract_y
_atom_site_fract_z
_atom_type_partial_charge
C0 C 0.08415 0.52283 0.09241 0.0
C1 C 0.46914 0.52213 0.08797 0.0
O2 O 0.09862 0.43106 0.09208 0.0
Zn3 Zn 0.27466 0.51473 0.09108 0.0
O4 O 0.17716 0.62951 0.09227 0.0
Zn5 Zn 0.37108 0.71058 0.09167 0.0
O6 O 0.41475 0.80054 0.04653 0.0
O7 O 0.31527 0.60087 0.04212 0.0
O8 O 0.48287 0.62867 0.08935 0.0
O9 O 0.36322 0.42939 0.0879 0.0
O10 O 0.32443 0.58682 0.1416 0.0
O11 O 0.41449 0.78606 0.13774 0.0
C12 C 0.36741 0.70528 0.02769 0.0
C13 C 0.37816 0.69064 0.15611 0.0
C14 C 0.70273 0.37056 0.48944 0.0
C15 C 0.67735 0.35981 0.36102 0.0
O16 O 0.64365 0.4069 0.47107 0.0
Zn17 Zn 0.67573 0.36349 0.425 0.0
O18 O 0.75284 0.31684 0.47494 0.0
Zn19 Zn 0.77517 0.26708 0.42442 0.0
O20 O 0.94907 0.35565 0.42124 0.0
O21 O 0.86943 0.47529 0.42268 0.0
O22 O 0.72963 0.30768 0.37545 0.0
O23 O 0.62943 0.40714 0.37986 0.0
O24 O 0.56288 0.16957 0.4256 0.0
O25 O 0.68281 0.09105 0.42542 0.0
C26 C 0.96225 0.46156 0.4213 0.0
C27 C 0.57656 0.07658 0.42574 0.0
C28 C 0.34737 0.69512 0.82278 0.0
C29 C 0.33274 0.66976 0.69436 0.0
O30 O 0.25196 0.63605 0.8044 0.0
Zn31 Zn 0.32743 0.66813 0.75833 0.0
O32 O 0.4512 0.74524 0.80827 0.0
Zn33 Zn 0.5233 0.76757 0.75775 0.0
O34 O 0.60862 0.94147 0.75457 0.0
O35 O 0.40934 0.86183 0.75601 0.0
O36 O 0.43716 0.72204 0.70879 0.0
O37 O 0.23749 0.62184 0.71319 0.0
O38 O 0.40851 0.55528 0.75893 0.0
O39 O 0.60696 0.67521 0.75875 0.0
C40 C 0.51589 0.95465 0.75464 0.0
C41 C 0.51518 0.56896 0.75907 0.0
C42 C 0.66746 0.33974 0.15611 0.0
C43 C 0.67819 0.32512 0.02769 0.0
O44 O 0.63112 0.24433 0.13773 0.0
Zn45 Zn 0.67452 0.31981 0.09167 0.0
O46 O 0.72118 0.44357 0.1416 0.0
Zn47 Zn 0.77094 0.51567 0.09109 0.0
O48 O 0.68238 0.601 0.0879 0.0
O49 O 0.56273 0.40172 0.08935 0.0
O50 O 0.73033 0.42953 0.04212 0.0
O51 O 0.63085 0.22987 0.04653 0.0
O52 O 0.86844 0.40089 0.09227 0.0
O53 O 0.94698 0.59934 0.09209 0.0
C54 C 0.57646 0.50827 0.08797 0.0
C55 C 0.96145 0.50756 0.09241 0.0
C56 C 0.34296 0.6599 0.48944 0.0
C57 C 0.36831 0.67061 0.36102 0.0
O58 O 0.40203 0.62356 0.47107 0.0
Zn59 Zn 0.36996 0.66695 0.425 0.0
O60 O 0.29285 0.71361 0.47493 0.0
Zn61 Zn 0.27051 0.76336 0.42442 0.0
O62 O 0.09662 0.6748 0.42123 0.0
O63 O 0.17625 0.55516 0.42268 0.0
O64 O 0.31604 0.72274 0.37545 0.0
O65 O 0.41623 0.62328 0.37986 0.0
O66 O 0.4828 0.86087 0.4256 0.0
O67 O 0.36288 0.93939 0.42542 0.0
C68 C 0.08343 0.56888 0.4213 0.0
C69 C 0.46912 0.95387 0.42574 0.0
C70 C 0.52974 0.07583 0.75464 0.0
C71 C 0.53045 0.46152 0.75907 0.0
O72 O 0.43701 0.08901 0.75456 0.0
Zn73 Zn 0.52234 0.26291 0.75775 0.0
O74 O 0.63629 0.16865 0.75601 0.0
Zn75 Zn 0.7182 0.36236 0.75833 0.0
O76 O 0.79366 0.39443 0.80441 0.0
O77 O 0.59441 0.28524 0.80827 0.0
O78 O 0.63713 0.4752 0.75893 0.0
O79 O 0.43867 0.35528 0.75874 0.0
O80 O 0.60849 0.30844 0.70878 0.0
O81 O 0.80816 0.40864 0.7132 0.0
C82 C 0.69824 0.33535 0.82278 0.0
C83 C 0.71291 0.36072 0.69436 0.0
C84 C 0.51521 0.95388 0.59124 0.0
C85 C 0.51591 0.5689 0.59568 0.0
O86 O 0.60699 0.93942 0.59157 0.0
Zn87 Zn 0.52332 0.76338 0.59257 0.0
O88 O 0.40853 0.86088 0.59138 0.0
Zn89 Zn 0.32746 0.66696 0.59198 0.0
O90 O 0.2375 0.62329 0.63712 0.0
O91 O 0.43717 0.72277 0.64153 0.0
O92 O 0.40937 0.55517 0.5943 0.0
O93 O 0.60865 0.67481 0.59575 0.0
O94 O 0.45123 0.71362 0.54205 0.0
O95 O 0.25198 0.62355 0.54591 0.0
C96 C 0.33275 0.67063 0.65596 0.0
C97 C 0.3474 0.65988 0.52754 0.0
C98 C 0.70269 0.3398 0.86087 0.0
C99 C 0.67731 0.32513 0.98929 0.0
O100 O 0.6436 0.24437 0.87924 0.0
Zn101 Zn 0.67568 0.31984 0.92531 0.0
O102 O 0.7528 0.44363 0.87538 0.0
Zn103 Zn 0.77513 0.5157 0.9259 0.0
O104 O 0.94903 0.60103 0.92909 0.0
O105 O 0.86939 0.40175 0.92764 0.0
O106 O 0.72959 0.42955 0.97486 0.0
O107 O 0.62939 0.22988 0.97045 0.0
O108 O 0.56283 0.40091 0.92472 0.0
O109 O 0.68276 0.59936 0.9249 0.0
C110 C 0.96221 0.5083 0.92901 0.0
C111 C 0.57651 0.50759 0.92457 0.0
C112 C 0.36743 0.66973 0.32263 0.0
C113 C 0.37816 0.6951 0.19421 0.0
O114 O 0.41476 0.62181 0.30379 0.0
Zn115 Zn 0.37109 0.66808 0.25865 0.0
O116 O 0.31529 0.72199 0.3082 0.0
Zn117 Zn 0.27467 0.76751 0.25923 0.0
O118 O 0.09863 0.67515 0.25823 0.0
O119 O 0.17716 0.55523 0.25805 0.0
O120 O 0.32443 0.74519 0.20871 0.0
O121 O 0.41449 0.63601 0.21258 0.0
O122 O 0.48288 0.86179 0.26097 0.0
O123 O 0.36323 0.94141 0.26242 0.0
C124 C 0.08416 0.5689 0.2579 0.0
C125 C 0.46915 0.9546 0.26235 0.0
C126 C 0.71291 0.35985 0.65596 0.0
C127 C 0.69828 0.37058 0.52754 0.0
O128 O 0.80817 0.40718 0.63712 0.0
Zn129 Zn 0.71822 0.36351 0.59198 0.0
O130 O 0.6085 0.30771 0.64153 0.0
Zn131 Zn 0.52236 0.26709 0.59256 0.0
O132 O 0.43869 0.09105 0.59156 0.0
O133 O 0.63715 0.16959 0.59138 0.0
O134 O 0.59445 0.31685 0.54205 0.0
O135 O 0.7937 0.40691 0.54591 0.0
O136 O 0.63631 0.4753 0.5943 0.0
O137 O 0.43703 0.35566 0.59575 0.0
C138 C 0.53047 0.07659 0.59124 0.0
C139 C 0.52977 0.46157 0.59568 0.0
C140 C 0.34291 0.69066 0.86088 0.0
C141 C 0.36828 0.70529 0.98929 0.0
O142 O 0.40199 0.78608 0.87925 0.0
Zn143 Zn 0.36992 0.7106 0.92532 0.0
O144 O 0.2928 0.58683 0.87538 0.0
Zn145 Zn 0.27046 0.51474 0.9259 0.0
O146 O 0.09656 0.42942 0.92908 0.0
O147 O 0.17621 0.62869 0.92764 0.0
O148 O 0.316 0.60088 0.97486 0.0
O149 O 0.4162 0.80055 0.97046 0.0
O150 O 0.48275 0.62953 0.92472 0.0
O151 O 0.36283 0.43107 0.9249 0.0
C152 C 0.08339 0.52215 0.92901 0.0
C153 C 0.46907 0.52285 0.92457 0.0
C154 C 0.67821 0.36067 0.32263 0.0
C155 C 0.66745 0.33528 0.19421 0.0
O156 O 0.63088 0.40859 0.30379 0.0
Zn157 Zn 0.67453 0.3623 0.25865 0.0
O158 O 0.73035 0.3084 0.3082 0.0
Zn159 Zn 0.77095 0.26286 0.25923 0.0
O160 O 0.94699 0.35522 0.25823 0.0
O161 O 0.86846 0.47514 0.25805 0.0
O162 O 0.72118 0.28518 0.20871 0.0
O163 O 0.63112 0.39436 0.21258 0.0
O164 O 0.56274 0.16859 0.26097 0.0
O165 O 0.68239 0.08897 0.26241 0.0
C166 C 0.96146 0.46147 0.2579 0.0
C167 C 0.57647 0.07578 0.26235 0.0
loop_
_geom_bond_atom_site_label_1
_geom_bond_atom_site_label_2
_geom_bond_distance
_geom_bond_site_symmetry_2
_ccdc_geom_bond_type
C0 O2 1.247 . S
C0 O4 1.258 . S
C1 O8 1.247 . S
C1 O9 1.258 . S
O2 C0 1.247 . S
O2 Zn3 2.028 . S
Zn3 O2 2.028 . S
Zn3 O7 2.035 . S
Zn3 O9 2.035 . S
Zn3 O10 2.028 . S
O4 C0 1.258 . S
O4 Zn5 2.035 . S
Zn5 O4 2.035 . S
Zn5 O6 2.028 . S
Zn5 O8 2.028 . S
Zn5 O11 2.035 . S
O6 Zn5 2.028 . S
O6 C12 1.247 . S
O7 Zn3 2.035 . S
O7 C12 1.258 . S
O8 C1 1.247 . S
O8 Zn5 2.028 . S
O9 C1 1.258 . S
O9 Zn3 2.035 . S
O10 Zn3 2.028 . S
O10 C13 1.247 . S
O11 Zn5 2.035 . S
O11 C13 1.258 . S
C12 O6 1.247 . S
C12 O7 1.258 . S
C13 O10 1.247 . S
C13 O11 1.258 . S
C14 O16 1.247 . S
C14 O18 1.258 . S
C15 O22 1.247 . S
C15 O23 1.258 . S
O16 C14 1.247 . S
O16 Zn17 2.028 . S
Zn17 O16 2.028 . S
Zn17 O21 2.035 . S
Zn17 O23 2.035 . S
Zn17 O24 2.028 . S
O18 C14 1.258 . S
O18 Zn19 2.035 . S
Zn19 O18 2.035 . S
Zn19 O20 2.028 . S
Zn19 O22 2.028 . S
Zn19 O25 2.035 . S
O20 Zn19 2.028 . S
O20 C26 1.247 . S
O21 Zn17 2.035 . S
O21 C26 1.258 . S
O22 C15 1.247 . S
O22 Zn19 2.028 . S
O23 C15 1.258 . S
O23 Zn17 2.035 . S
O24 Zn17 2.028 . S
O24 C27 1.247 . S
O25 Zn19 2.035 . S
O25 C27 1.258 . S
C26 O20 1.247 . S
C26 O21 1.258 . S
C27 O24 1.247 . S
C27 O25 1.258 . S
C28 O30 1.247 . S
C28 O32 1.258 . S
C29 O36 1.247 . S
C29 O37 1.258 . S
O30 C28 1.247 . S
O30 Zn31 2.028 . S
Zn31 O30 2.028 . S
Zn31 O35 2.035 . S
Zn31 O37 2.035 . S
Zn31 O38 2.028 . S
O32 C28 1.258 . S
O32 Zn33 2.035 . S
Zn33 O32 2.035 . S
Zn33 O34 2.028 . S
Zn33 O36 2.028 . S
Zn33 O39 2.035 . S
O34 Zn33 2.028 . S
O34 C40 1.247 . S
O35 Zn31 2.035 . S
O35 C40 1.258 . S
O36 C29 1.247 . S
O36 Zn33 2.028 . S
O37 C29 1.258 . S
O37 Zn31 2.035 . S
O38 Zn31 2.028 . S
O38 C41 1.247 . S
O39 Zn33 2.035 . S
O39 C41 1.258 . S
C40 O34 1.247 . S
C40 O35 1.258 . S
C41 O38 1.247 . S
C41 O39 1.258 . S
C42 O44 1.247 . S
C42 O46 1.258 . S
C43 O50 1.247 . S
C43 O51 1.258 . S
O44 C42 1.247 . S
O44 Zn45 2.028 . S
Zn45 O44 2.028 . S
Zn45 O49 2.035 . S
Zn45 O51 2.035 . S
Zn45 O52 2.028 . S
O46 C42 1.258 . S
O46 Zn47 2.035 . S
Zn47 O46 2.035 . S
Zn47 O48 2.028 . S
Zn47 O50 2.028 . S
Zn47 O53 2.035 . S
O48 Zn47 2.028 . S
O48 C54 1.247 . S
O49 Zn45 2.035 . S
O49 C54 1.258 . S
O50 C43 1.247 . S
O50 Zn47 2.028 . S
O51 C43 1.258 . S
O51 Zn45 2.035 . S
O52 Zn45 2.028 . S
O52 C55 1.247 . S
O53 Zn47 2.035 . S
O53 C55 1.258 . S
C54 O48 1.247 . S
C54 O49 1.258 . S
C55 O52 1.247 . S
C55 O53 1.258 . S
C56 O58 1.247 . S
C56 O60 1.258 . S
C57 O64 1.247 . S
C57 O65 1.258 . S
O58 C56 1.247 . S
O58 Zn59 2.028 . S
Zn59 O58 2.028 . S
Zn59 O63 2.035 . S
Zn59 O65 2.035 . S
Zn59 O66 2.028 . S
O60 C56 1.258 . S
O60 Zn61 2.035 . S
Zn61 O60 2.035 . S
Zn61 O62 2.028 . S
Zn61 O64 2.028 . S
Zn61 O67 2.035 . S
O62 Zn61 2.028 . S
O62 C68 1.247 . S
O63 Zn59 2.035 . S
O63 C68 1.258 . S
O64 C57 1.247 . S
O64 Zn61 2.028 . S
O65 C57 1.258 . S
O65 Zn59 2.035 . S
O66 Zn59 2.028 . S
O66 C69 1.247 . S
O67 Zn61 2.035 . S
O67 C69 1.258 . S
C68 O62 1.247 . S
C68 O63 1.258 . S
C69 O66 1.247 . S
C69 O67 1.258 . S
C70 O72 1.247 . S
C70 O74 1.258 . S
C71 O78 1.247 . S
C71 O79 1.258 . S
O72 C70 1.247 . S
O72 Zn73 2.028 . S
Zn73 O72 2.028 . S
Zn73 O77 2.035 . S
Zn73 O79 2.035 . S
Zn73 O80 2.028 . S
O74 C70 1.258 . S
O74 Zn75 2.035 . S
Zn75 O74 2.035 . S
Zn75 O76 2.028 . S
Zn75 O78 2.028 . S
Zn75 O81 2.035 . S
O76 Zn75 2.028 . S
O76 C82 1.247 . S
O77 Zn73 2.035 . S
O77 C82 1.258 . S
O78 C71 1.247 . S
O78 Zn75 2.028 . S
O79 C71 1.258 . S
O79 Zn73 2.035 . S
O80 Zn73 2.028 . S
O80 C83 1.247 . S
O81 Zn75 2.035 . S
O81 C83 1.258 . S
C82 O76 1.247 . S
C82 O77 1.258 . S
C83 O80 1.247 . S
C83 O81 1.258 . S
C84 O86 1.247 . S
C84 O88 1.258 . S
C85 O92 1.247 . S
C85 O93 1.258 . S
O86 C84 1.247 . S
O86 Zn87 2.028 . S
Zn87 O86 2.028 . S
Zn87 O91 2.035 . S
Zn87 O93 2.035 . S
Zn87 O94 2.028 . S
O88 C84 1.258 . S
O88 Zn89 2.035 . S
Zn89 O88 2.035 . S
Zn89 O90 2.028 . S
Zn89 O92 2.028 . S
Zn89 O95 2.035 . S
O90 Zn89 2.028 . S
O90 C96 1.247 . S
O91 Zn87 2.035 . S
O91 C96 1.258 . S
O92 C85 1.247 . S
O92 Zn89 2.028 . S
O93 C85 1.258 . S
O93 Zn87 2.035 . S
O94 Zn87 2.028 . S
O94 C97 1.247 . S
O95 Zn89 2.035 . S
O95 C97 1.258 . S
C96 O90 1.247 . S
C96 O91 1.258 . S
C97 O94 1.247 . S
C97 O95 1.258 . S
C98 O100 1.247 . S
C98 O102 1.258 . S
C99 O106 1.247 . S
C99 O107 1.258 . S
O100 C98 1.247 . S
O100 Zn101 2.028 . S
Zn101 O100 2.028 . S
Zn101 O105 2.035 . S
Zn101 O107 2.035 . S
Zn101 O108 2.028 . S
O102 C98 1.258 . S
O102 Zn103 2.035 . S
Zn103 O102 2.035 . S
Zn103 O104 2.028 . S
Zn103 O106 2.028 . S
Zn103 O109 2.035 . S
O104 Zn103 2.028 . S
O104 C110 1.247 . S
O105 Zn101 2.035 . S
O105 C110 1.258 . S
O106 C99 1.247 . S
O106 Zn103 2.028 . S
O107 C99 1.258 . S
O107 Zn101 2.035 . S
O108 Zn101 2.028 . S
O108 C111 1.247 . S
O109 Zn103 2.035 . S
O109 C111 1.258 . S
C110 O104 1.247 . S
C110 O105 1.258 . S
C111 O108 1.247 . S
C111 O109 1.258 . S
C112 O114 1.247 . S
C112 O116 1.258 . S
C113 O120 1.247 . S
C113 O121 1.258 . S
O114 C112 1.247 . S
O114 Zn115 2.028 . S
Zn115 O114 2.028 . S
Zn115 O119 2.035 . S
Zn115 O121 2.035 . S
Zn115 O122 2.028 . S
O116 C112 1.258 . S
O116 Zn117 2.035 . S
Zn117 O116 2.035 . S
Zn117 O118 2.028 . S
Zn117 O120 2.028 . S
Zn117 O123 2.035 . S
O118 Zn117 2.028 . S
O118 C124 1.247 . S
O119 Zn115 2.035 . S
O119 C124 1.258 . S
O120 C113 1.247 . S
O120 Zn117 2.028 . S
O121 C113 1.258 . S
O121 Zn115 2.035 . S
O122 Zn115 2.028 . S
O122 C125 1.247 . S
O123 Zn117 2.035 . S
O123 C125 1.258 . S
C124 O118 1.247 . S
C124 O119 1.258 . S
C125 O122 1.247 . S
C125 O123 1.258 . S
C126 O128 1.247 . S
C126 O130 1.258 . S
C127 O134 1.247 . S
C127 O135 1.258 . S
O128 C126 1.247 . S
O128 Zn129 2.028 . S
Zn129 O128 2.028 . S
Zn129 O133 2.035 . S
Zn129 O135 2.035 . S
Zn129 O136 2.028 . S
O130 C126 1.258 . S
O130 Zn131 2.035 . S
Zn131 O130 2.035 . S
Zn131 O132 2.028 . S
Zn131 O134 2.028 . S
Zn131 O137 2.035 . S
O132 Zn131 2.028 . S
O132 C138 1.247 . S
O133 Zn129 2.035 . S
O133 C138 1.258 . S
O134 C127 1.247 . S
O134 Zn131 2.028 . S
O135 C127 1.258 . S
O135 Zn129 2.035 . S
O136 Zn129 2.028 . S
O136 C139 1.247 . S
O137 Zn131 2.035 . S
O137 C139 1.258 . S
C138 O132 1.247 . S
C138 O133 1.258 . S
C139 O136 1.247 . S
C139 O137 1.258 . S
C140 O142 1.247 . S
C140 O144 1.258 . S
C141 O148 1.247 . S
C141 O149 1.258 . S
O142 C140 1.247 . S
O142 Zn143 2.028 . S
Zn143 O142 2.028 . S
Zn143 O147 2.035 . S
Zn143 O149 2.035 . S
Zn143 O150 2.028 . S
O144 C140 1.258 . S
O144 Zn145 2.035 . S
Zn145 O144 2.035 . S
Zn145 O146 2.028 . S
Zn145 O148 2.028 . S
Zn145 O151 2.035 . S
O146 Zn145 2.028 . S
O146 C152 1.247 . S
O147 Zn143 2.035 . S
O147 C152 1.258 . S
O148 C141 1.247 . S
O148 Zn145 2.028 . S
O149 C141 1.258 . S
O149 Zn143 2.035 . S
O150 Zn143 2.028 . S
O150 C153 1.247 . S
O151 Zn145 2.035 . S
O151 C153 1.258 . S
C152 O146 1.247 . S
C152 O147 1.258 . S
C153 O150 1.247 . S
C153 O151 1.258 . S
C154 O156 1.247 . S
C154 O158 1.258 . S
C155 O162 1.247 . S
C155 O163 1.258 . S
O156 C154 1.247 . S
O156 Zn157 2.028 . S
Zn157 O156 2.028 . S
Zn157 O161 2.035 . S
Zn157 O163 2.035 . S
Zn157 O164 2.028 . S
O158 C154 1.258 . S
O158 Zn159 2.035 . S
Zn159 O158 2.035 . S
Zn159 O160 2.028 . S
Zn159 O162 2.028 . S
Zn159 O165 2.035 . S
O160 Zn159 2.028 . S
O160 C166 1.247 . S
O161 Zn157 2.035 . S
O161 C166 1.258 . S
O162 C155 1.247 . S
O162 Zn159 2.028 . S
O163 C155 1.258 . S
O163 Zn157 2.035 . S
O164 Zn157 2.028 . S
O164 C167 1.247 . S
O165 Zn159 2.035 . S
O165 C167 1.258 . S
C166 O160 1.247 . S
C166 O161 1.258 . S
C167 O164 1.247 . S
C167 O165 1.258 . S
C141 C12 1.643 1_556 S
C15 C154 1.642 . S
C29 C96 1.642 . S
C43 C99 1.644 1_554 S
C112 C57 1.642 . S
C83 C126 1.643 . S
C113 C13 1.849 . S
C14 C127 1.843 . S
C28 C140 1.838 . S
C42 C155 1.843 . S
C97 C56 1.844 . S
C98 C82 1.838 . S
C55 C0 1.638 1_655 S
C27 C69 1.645 1_545 S
C71 C41 1.644 . S
C138 C84 1.632 1_545 S
C153 C111 1.644 . S
C124 C166 1.632 1_455 S
C54 C1 1.991 . S
C26 C68 1.985 1_655 S
C70 C40 1.986 1_545 S
C85 C139 1.997 . S
C152 C110 1.986 1_455 S
C125 C167 1.997 1_565 S
