# Generated by pormake.
# Topology kag, (6)-cn, num edge types: 1
# Building blocks:
#     Node 0, Type 0, BuildingBlock: CIFDUS_clean_sbu_1, # of connection points: 6
#     Node 1, Type 0, BuildingBlock: CIFDUS_clean_sbu_1, # of connection points: 6
#     Node 2, Type 0, BuildingBlock: CIFDUS_clean_sbu_1, # of connection points: 6
#     Edge 3, Type (0, 0), BuildingBlock: EYOCIG_clean_linker_4, # of connection points: 2
#     Edge 4, Type (0, 0), BuildingBlock: EYOCIG_clean_linker_4, # of connection points: 2
#     Edge 5, Type (0, 0), BuildingBlock: EYOCIG_clean_linker_4, # of connection points: 2
#     Edge 6, Type (0, 0), BuildingBlock: EYOCIG_clean_linker_4, # of connection points: 2
#     Edge 7, Type (0, 0), BuildingBlock: EYOCIG_clean_linker_4, # of connection points: 2
#     Edge 8, Type (0, 0), BuildingBlock: EYOCIG_clean_linker_4, # of connection points: 2
#     Edge 9, Type (0, 0), BuildingBlock: EYOCIG_clean_linker_4, # of connection points: 2
#     Edge 10, Type (0, 0), BuildingBlock: EYOCIG_clean_linker_4, # of connection points: 2
#     Edge 11, Type (0, 0), BuildingBlock: EYOCIG_clean_linker_4, # of connection points: 2
# Relax obj value: 0.122
# Max RMSD: 0.164
# Mean RMSD: 0.158
data_MOF--net-kag--node1-CIFDUS_clean_sbu_1--edge1-EYOCIG_clean_linker_4
_symmetry_space_group_name_H-M    P1
_symmetry_Int_Tables_number       1
_symmetry_cell_setting            triclinic
loop_
_symmetry_equiv_pos_as_xyz
'x, y, z'
_cell_length_a     24.729685
_cell_length_b     24.311993
_cell_length_c     12.308054
_cell_angle_alpha  89.822672
_cell_angle_beta   102.67653
_cell_angle_gamma 119.5203
loop_
_atom_site_label
_atom_site_type_symbol
_atom_site_fract_x
_atom_site_fract_y
_atom_site_fract_z
_atom_type_partial_charge
O0 O 0.11065 0.47606 0.99971 0.0
Mn1 Mn 0.04832 0.50766 0.02882 0.0
O2 O 0.19597 0.51734 0.14853 0.0
Mn3 Mn 0.1741 0.57038 0.20838 0.0
O4 O 0.98597 0.53926 0.05793 0.0
O5 O 0.00617 0.48677 0.85777 0.0
Mn6 Mn 0.92254 0.44491 0.84926 0.0
O7 O 0.98618 0.41344 0.0578 0.0
O8 O 0.90062 0.49789 0.90916 0.0
O9 O 0.11047 0.60189 0.99985 0.0
O10 O 0.196 0.64549 0.14835 0.0
O11 O 0.92527 0.44647 0.70418 0.0
O12 O 0.90068 0.36979 0.90924 0.0
C13 C 0.11002 0.53826 0.30988 0.0
C14 C 0.16402 0.48174 0.05618 0.0
C15 C 0.93258 0.53352 1.00148 0.0
C16 C 0.98661 0.47709 0.74776 0.0
C17 C 0.93276 0.36586 1.00137 0.0
C18 C 0.16391 0.64944 0.05624 0.0
O19 O 0.09046 0.52856 0.19988 0.0
O20 O 0.17137 0.56885 0.35346 0.0
O21 O 0.6446 0.06899 0.02059 0.0
Mn22 Mn 0.54842 0.00755 0.02881 0.0
O23 O 0.68527 0.15475 0.14721 0.0
Mn24 Mn 0.60833 0.13242 0.17865 0.0
O25 O 0.45224 0.94613 0.03703 0.0
O26 O 0.53006 0.96562 0.86855 0.0
Mn27 Mn 0.48846 0.88268 0.87895 0.0
O28 O 0.57784 0.94452 0.10602 0.0
O29 O 0.41152 0.86039 0.91033 0.0
O30 O 0.51899 0.07058 0.9516 0.0
O31 O 0.55632 0.15408 0.08093 0.0
O32 O 0.49245 0.88537 0.73445 0.0
O33 O 0.54043 0.86098 0.97671 0.0
C34 C 0.57509 0.06886 0.29407 0.0
C35 C 0.69129 0.12274 0.07452 0.0
C36 C 0.40553 0.8924 0.98306 0.0
C37 C 0.52177 0.94624 0.76356 0.0
C38 C 0.57284 0.89144 0.07314 0.0
C39 C 0.52394 0.12363 0.98449 0.0
O40 O 0.56678 0.04948 0.18908 0.0
O41 O 0.60438 0.12973 0.32318 0.0
O42 O 0.51864 0.41506 0.95191 0.0
Mn43 Mn 0.54821 0.50745 0.02883 0.0
O44 O 0.55534 0.36835 0.08176 0.0
Mn45 Mn 0.60745 0.44186 0.17944 0.0
O46 O 0.5778 0.59984 0.10575 0.0
O47 O 0.53021 0.53138 0.86836 0.0
Mn48 Mn 0.48902 0.57308 0.87824 0.0
O49 O 0.45199 0.47289 0.03647 0.0
O50 O 0.54118 0.6466 0.97588 0.0
O51 O 0.64444 0.54202 0.02118 0.0
O52 O 0.68457 0.49639 0.14821 0.0
O53 O 0.49316 0.57452 0.73379 0.0
O54 O 0.4119 0.5186 0.90953 0.0
C55 C 0.57432 0.47225 0.29439 0.0
C56 C 0.5233 0.36676 0.98504 0.0
C57 C 0.57319 0.64817 0.07261 0.0
C58 C 0.52209 0.54263 0.76326 0.0
C59 C 0.40556 0.48033 0.98232 0.0
C60 C 0.6909 0.53463 0.07538 0.0
O61 O 0.56622 0.48351 0.1893 0.0
O62 O 0.60328 0.44039 0.32386 0.0
C63 C 0.04314 0.50518 0.58361 0.0
C64 C 0.02735 0.49736 0.67133 0.0
C65 C 0.05349 0.51023 0.47403 0.0
C66 C 0.06929 0.51803 0.38631 0.0
C67 C 0.55019 0.01279 0.4725 0.0
C68 C 0.55676 0.02855 0.38068 0.0
C69 C 0.54672 1.00231 0.58515 0.0
C70 C 0.54013 0.98656 0.67696 0.0
C71 C 0.54652 0.51102 0.58512 0.0
C72 C 0.54009 0.52036 0.67685 0.0
C73 C 0.54984 0.50381 0.47252 0.0
C74 C 0.55629 0.49448 0.38079 0.0
C75 C 0.23225 0.43556 1.00529 0.0
C76 C 0.19356 0.45095 0.01394 0.0
C77 C 0.28945 0.43467 1.00772 0.0
C78 C 0.34378 0.44915 1.00768 0.0
C79 C 0.80743 0.19285 0.04913 0.0
C80 C 0.75302 0.15307 0.04908 0.0
C81 C 0.8647 0.25102 0.05181 0.0
C82 C 0.90335 0.30525 0.0434 0.0
C83 C 0.61314 0.81909 0.1746 0.0
C84 C 0.6009 0.86043 0.14613 0.0
C85 C 0.61319 0.76044 0.17444 0.0
C86 C 0.60101 0.70697 0.14577 0.0
C87 C 0.86427 0.57959 0.05241 0.0
C88 C 0.903 0.56426 0.04376 0.0
C89 C 0.80703 0.58039 0.04999 0.0
C90 C 0.75267 0.56585 0.05004 0.0
C91 C 0.23205 0.76425 1.00577 0.0
C92 C 0.19336 0.71004 0.01419 0.0
C93 C 0.28937 0.82237 1.00844 0.0
C94 C 0.34379 0.86211 1.00848 0.0
C95 C 0.48341 0.25452 0.8832 0.0
C96 C 0.49552 0.30797 0.91187 0.0
C97 C 0.48353 0.19591 0.88304 0.0
C98 C 0.49583 0.15461 0.91151 0.0
loop_
_geom_bond_atom_site_label_1
_geom_bond_atom_site_label_2
_geom_bond_distance
_geom_bond_site_symmetry_2
_ccdc_geom_bond_type
O0 Mn1 2.163 1_556 S
O0 C14 1.244 1_556 S
Mn1 O0 2.163 1_554 S
Mn1 O4 2.160 1_455 S
Mn1 O5 2.221 1_554 S
Mn1 O7 2.163 1_455 S
Mn1 O9 2.160 . S
Mn1 O19 2.221 . S
O2 Mn3 2.087 . S
O2 C14 1.256 . S
Mn3 O2 2.087 . S
Mn3 O10 2.089 . S
Mn3 O19 2.290 . S
Mn3 O20 2.251 . S
O4 Mn1 2.160 1_655 S
O4 C15 1.239 1_554 S
O5 Mn1 2.221 1_556 S
O5 Mn6 2.290 1_455 S
O5 C16 1.278 . S
Mn6 O5 2.290 1_655 S
Mn6 O8 2.089 . S
Mn6 O11 2.251 . S
Mn6 O12 2.087 . S
O7 Mn1 2.163 1_655 S
O7 C17 1.244 1_554 S
O8 Mn6 2.089 . S
O8 C15 1.256 . S
O9 Mn1 2.160 . S
O9 C18 1.239 . S
O10 Mn3 2.089 . S
O10 C18 1.256 . S
O11 Mn6 2.251 . S
O11 C16 1.241 1_655 S
O12 Mn6 2.087 . S
O12 C17 1.256 . S
C13 O19 1.278 . S
C13 O20 1.241 . S
C14 O0 1.244 1_554 S
C14 O2 1.256 . S
C15 O4 1.239 1_556 S
C15 O8 1.256 . S
C16 O5 1.278 . S
C16 O11 1.241 1_455 S
C17 O7 1.244 1_556 S
C17 O12 1.256 . S
C18 O9 1.239 . S
C18 O10 1.256 . S
O19 Mn1 2.221 . S
O19 Mn3 2.290 . S
O19 C13 1.278 . S
O20 Mn3 2.251 . S
O20 C13 1.241 . S
O21 Mn22 2.163 1_556 S
O21 C35 1.244 1_556 S
Mn22 O21 2.163 1_554 S
Mn22 O25 2.160 1_545 S
Mn22 O26 2.221 1_544 S
Mn22 O28 2.163 1_545 S
Mn22 O30 2.160 1_554 S
Mn22 O40 2.221 . S
O23 Mn24 2.087 . S
O23 C35 1.256 . S
Mn24 O23 2.087 . S
Mn24 O31 2.089 . S
Mn24 O40 2.290 . S
Mn24 O41 2.251 . S
O25 Mn22 2.160 1_565 S
O25 C36 1.239 1_554 S
O26 Mn22 2.221 1_566 S
O26 Mn27 2.290 . S
O26 C37 1.278 . S
Mn27 O26 2.290 . S
Mn27 O29 2.089 . S
Mn27 O32 2.251 . S
Mn27 O33 2.087 . S
O28 Mn22 2.163 1_565 S
O28 C38 1.244 . S
O29 Mn27 2.089 . S
O29 C36 1.256 . S
O30 Mn22 2.160 1_556 S
O30 C39 1.239 1_556 S
O31 Mn24 2.089 . S
O31 C39 1.256 . S
O32 Mn27 2.251 . S
O32 C37 1.241 . S
O33 Mn27 2.087 . S
O33 C38 1.256 1_556 S
C34 O40 1.278 . S
C34 O41 1.241 . S
C35 O21 1.244 1_554 S
C35 O23 1.256 . S
C36 O25 1.239 1_556 S
C36 O29 1.256 . S
C37 O26 1.278 . S
C37 O32 1.241 . S
C38 O28 1.244 . S
C38 O33 1.256 1_554 S
C39 O30 1.239 1_554 S
C39 O31 1.256 . S
O40 Mn22 2.221 . S
O40 Mn24 2.290 . S
O40 C34 1.278 . S
O41 Mn24 2.251 . S
O41 C34 1.241 . S
O42 Mn43 2.163 1_556 S
O42 C56 1.244 1_556 S
Mn43 O42 2.163 1_554 S
Mn43 O46 2.160 . S
Mn43 O47 2.221 1_554 S
Mn43 O49 2.163 . S
Mn43 O51 2.160 . S
Mn43 O61 2.221 . S
O44 Mn45 2.087 . S
O44 C56 1.256 . S
Mn45 O44 2.087 . S
Mn45 O52 2.089 . S
Mn45 O61 2.290 . S
Mn45 O62 2.251 . S
O46 Mn43 2.160 . S
O46 C57 1.239 . S
O47 Mn43 2.221 1_556 S
O47 Mn48 2.290 . S
O47 C58 1.278 . S
Mn48 O47 2.290 . S
Mn48 O50 2.089 . S
Mn48 O53 2.251 . S
Mn48 O54 2.087 . S
O49 Mn43 2.163 . S
O49 C59 1.244 1_554 S
O50 Mn48 2.089 . S
O50 C57 1.256 1_556 S
O51 Mn43 2.160 . S
O51 C60 1.239 . S
O52 Mn45 2.089 . S
O52 C60 1.256 . S
O53 Mn48 2.251 . S
O53 C58 1.241 . S
O54 Mn48 2.087 . S
O54 C59 1.256 . S
C55 O61 1.278 . S
C55 O62 1.241 . S
C56 O42 1.244 1_554 S
C56 O44 1.256 . S
C57 O46 1.239 . S
C57 O50 1.256 1_554 S
C58 O47 1.278 . S
C58 O53 1.241 . S
C59 O49 1.244 1_556 S
C59 O54 1.256 . S
C60 O51 1.239 . S
C60 O52 1.256 . S
O61 Mn43 2.221 . S
O61 Mn45 2.290 . S
O61 C55 1.278 . S
O62 Mn45 2.251 . S
O62 C55 1.241 . S
C63 C64 1.170 . S
C63 C65 1.380 . S
C64 C63 1.170 . S
C65 C63 1.380 . S
C65 C66 1.170 . S
C66 C65 1.170 . S
C67 C68 1.170 . S
C67 C69 1.380 . S
C68 C67 1.170 . S
C69 C67 1.380 . S
C69 C70 1.170 . S
C70 C69 1.170 . S
C71 C72 1.170 . S
C71 C73 1.380 . S
C72 C71 1.170 . S
C73 C71 1.380 . S
C73 C74 1.170 . S
C74 C73 1.170 . S
C75 C76 1.170 . S
C75 C77 1.380 . S
C76 C75 1.170 . S
C77 C75 1.380 . S
C77 C78 1.170 . S
C78 C77 1.170 . S
C79 C80 1.170 . S
C79 C81 1.380 . S
C80 C79 1.170 . S
C81 C79 1.380 . S
C81 C82 1.170 . S
C82 C81 1.170 . S
C83 C84 1.170 . S
C83 C85 1.380 . S
C84 C83 1.170 . S
C85 C83 1.380 . S
C85 C86 1.170 . S
C86 C85 1.170 . S
C87 C88 1.170 . S
C87 C89 1.380 . S
C88 C87 1.170 . S
C89 C87 1.380 . S
C89 C90 1.170 . S
C90 C89 1.170 . S
C91 C92 1.170 . S
C91 C93 1.380 . S
C92 C91 1.170 . S
C93 C91 1.380 . S
C93 C94 1.170 . S
C94 C93 1.170 . S
C95 C96 1.170 . S
C95 C97 1.380 . S
C96 C95 1.170 . S
C97 C95 1.380 . S
C97 C98 1.170 . S
C98 C97 1.170 . S
C64 C16 1.292 . S
C66 C13 1.321 . S
C68 C34 1.240 . S
C70 C37 1.285 1_545 S
C72 C58 1.310 . S
C74 C55 1.233 . S
C76 C14 1.208 . S
C78 C59 1.233 1_554 S
C80 C35 1.250 . S
C82 C17 1.218 1_554 S
C84 C38 1.231 . S
C86 C57 1.229 . S
C88 C15 1.217 1_554 S
C90 C60 1.209 . S
C92 C18 1.197 . S
C94 C36 1.224 1_554 S
C96 C56 1.231 1_556 S
C98 C39 1.230 1_556 S
