# Generated by pormake.
# Topology hex, (8)-cn, num edge types: 1
# Building blocks:
#     Node 0, Type 0, BuildingBlock: TAGTUT_clean_sbu_3, # of connection points: 8
#     Edge 1, Type (0, 0), BuildingBlock: CIFDUS_clean_linker_0, # of connection points: 2
#     Edge 2, Type (0, 0), BuildingBlock: CIFDUS_clean_linker_0, # of connection points: 2
#     Edge 3, Type (0, 0), BuildingBlock: CIFDUS_clean_linker_0, # of connection points: 2
#     Edge 4, Type (0, 0), BuildingBlock: CIFDUS_clean_linker_0, # of connection points: 2
# Relax obj value: 0.102
# Max RMSD: 0.227
# Mean RMSD: 0.227
data_MOF--net-hex--node1-TAGTUT_clean_sbu_3--edge1-CIFDUS_clean_linker_0
_symmetry_space_group_name_H-M    P1
_symmetry_Int_Tables_number       1
_symmetry_cell_setting            triclinic
loop_
_symmetry_equiv_pos_as_xyz
'x, y, z'
_cell_length_a     17.859088
_cell_length_b     16.74143
_cell_length_c     14.287107
_cell_angle_alpha  99.4181
_cell_angle_beta   94.566171
_cell_angle_gamma 133.67916
loop_
_atom_site_label
_atom_site_type_symbol
_atom_site_fract_x
_atom_site_fract_y
_atom_site_fract_z
_atom_type_partial_charge
C0 C 0.93335 0.94448 0.75623 0.0
C1 C 0.17679 0.90768 0.88383 0.0
C2 C 0.0155 0.77713 0.08917 0.0
Mg3 Mg 0.81743 0.99778 0.86567 0.0
Mg4 Mg 0.90279 0.1371 0.10122 0.0
O5 O 0.86494 0.01722 0.00638 0.0
Mg6 Mg 0.96492 1.00067 -0.00772 0.0
O7 O 0.04953 0.96843 0.96541 0.0
Mg8 Mg 0.93618 0.80235 0.88334 0.0
Mg9 Mg 0.15804 0.01849 0.06452 0.0
C10 C -0.02847 0.05046 0.23092 0.0
O11 O 0.12843 0.19595 0.03752 0.0
O12 O 0.69256 0.98871 0.90381 0.0
O13 O 0.24811 0.20066 0.11251 0.0
O14 O 0.93153 0.20175 0.90178 0.0
O15 O 0.75465 0.09213 0.06298 0.0
O16 O 0.0247 0.28437 0.05978 0.0
O17 O 0.81656 0.80501 0.93913 0.0
O18 O 0.70378 0.80223 0.85432 0.0
C19 C 0.72129 0.75069 0.89331 0.0
C20 C 0.68338 0.0304 0.97957 0.0
O21 O -0.01905 0.00539 0.15672 0.0
O22 O 0.07476 0.8269 0.84301 0.0
O23 O 0.94762 0.10658 0.22453 0.0
O24 O 0.95161 0.74108 0.00771 0.0
O25 O 0.22002 0.9877 0.964 0.0
O26 O 0.09886 0.88505 0.13267 0.0
O27 O 0.94472 0.00406 0.8353 0.0
O28 O 0.92875 0.86518 0.75715 0.0
C29 C 0.00331 0.29247 0.97701 0.0
C30 C 0.22575 0.2504 0.0781 0.0
H31 H 0.88259 0.31482 0.04051 0.0
H32 H 0.17121 0.50011 0.94474 0.0
H33 H 0.21091 0.67683 -0.00899 0.0
H34 H 0.15823 0.77453 0.05379 0.0
H35 H 0.86458 0.58378 0.14259 0.0
H36 H 0.83357 0.41342 0.10865 0.0
C37 C 0.95261 0.39336 0.02751 0.0
C38 C 0.02159 0.39393 -0.01436 0.0
C39 C -0.02444 0.49385 0.0567 0.0
C40 C 0.11514 0.49701 0.97338 0.0
C41 C 0.13838 0.59801 0.00132 0.0
C42 C 0.08982 0.69688 0.06951 0.0
C43 C 0.01569 0.69261 0.10449 0.0
C44 C 0.0693 0.59739 0.04354 0.0
C45 C 0.92443 0.59007 0.11954 0.0
C46 C 0.90563 0.49211 0.09778 0.0
H47 H 0.47273 0.83675 0.89024 0.0
H48 H 0.70148 0.20586 0.02618 0.0
H49 H 0.56543 0.20115 0.97169 0.0
H50 H 0.38112 0.09193 0.89761 0.0
H51 H 0.13944 0.71848 0.80182 0.0
H52 H 0.281 0.7238 0.81935 0.0
C53 C 0.49153 0.91539 0.90889 0.0
C54 C 0.59599 0.02158 0.963 0.0
C55 C 0.41145 0.91096 0.88073 0.0
C56 C 0.62099 0.12344 -0.01366 0.0
C57 C 0.54381 0.12087 0.95381 0.0
C58 C 0.35945 0.01149 0.87839 0.0
C59 C 0.25067 0.90515 0.84982 0.0
C60 C 0.439 0.01518 0.90172 0.0
C61 C 0.22292 0.80145 0.82324 0.0
C62 C 0.30369 0.80465 0.83604 0.0
H63 H 0.41871 0.33423 0.06652 0.0
H64 H 0.23143 0.4083 0.03279 0.0
H65 H 0.36338 0.56309 0.9639 0.0
H66 H 0.53014 0.67397 0.90911 0.0
H67 H 0.71253 0.59355 0.94002 0.0
H68 H 0.58202 0.44191 0.01119 0.0
C69 C 0.40735 0.38559 0.04636 0.0
C70 C 0.31532 0.36015 0.05672 0.0
C71 C 0.48117 0.47108 0.00322 0.0
C72 C 0.30172 0.42649 0.02722 0.0
C73 C 0.37666 0.51419 -0.01341 0.0
C74 C 0.54017 0.62159 0.92931 0.0
C75 C 0.63076 0.64445 0.9177 0.0
C76 C 0.46574 0.53584 0.97254 0.0
C77 C 0.6433 0.57723 0.94685 0.0
C78 C 0.56924 0.49129 -0.01133 0.0
H79 H 0.96033 0.87255 0.59044 0.0
H80 H 0.916 0.08614 0.71586 0.0
H81 H 0.93111 0.14327 0.56617 0.0
H82 H 0.95498 0.13094 0.40045 0.0
H83 H -0.00067 0.91735 0.27449 0.0
H84 H -0.01165 0.8637 0.42559 0.0
C85 C 0.95306 0.93091 0.58494 0.0
C86 C 0.93601 0.9742 0.66395 0.0
C87 C 0.96325 0.9645 0.4994 0.0
C88 C 0.92848 0.05108 0.65599 0.0
C89 C 0.93756 0.08412 0.57062 0.0
C90 C 0.96307 0.07322 0.40585 0.0
C91 C -0.02231 0.02803 0.32579 0.0
C92 C 0.95509 0.04145 0.49209 0.0
C93 C -0.01166 0.95374 0.33483 0.0
C94 C -0.01866 0.92238 0.42099 0.0
loop_
_geom_bond_atom_site_label_1
_geom_bond_atom_site_label_2
_geom_bond_distance
_geom_bond_site_symmetry_2
_ccdc_geom_bond_type
C0 O27 1.312 1_565 S
C0 O28 1.208 . S
C1 O22 1.331 . S
C1 O25 1.244 . S
C2 O24 1.264 1_454 S
C2 O26 1.273 . S
Mg3 O5 1.936 1_566 S
Mg3 O12 2.081 . S
Mg3 O14 2.023 1_565 S
Mg3 O18 2.031 . S
Mg3 O27 2.291 1_565 S
Mg4 O5 1.963 . S
Mg4 O15 1.942 . S
Mg4 O16 1.955 1_655 S
Mg4 O23 1.986 1_655 S
O5 Mg3 1.936 1_544 S
O5 Mg4 1.963 . S
O5 Mg6 1.915 1_655 S
Mg6 O5 1.915 1_455 S
Mg6 O7 1.915 1_544 S
Mg6 O11 2.013 . S
Mg6 O17 2.114 1_444 S
Mg6 O21 2.013 1_545 S
Mg6 O27 2.114 1_454 S
O7 Mg6 1.915 1_566 S
O7 Mg8 1.936 1_455 S
O7 Mg9 1.963 1_566 S
Mg8 O7 1.936 1_655 S
Mg8 O17 2.291 . S
Mg8 O22 2.081 1_655 S
Mg8 O24 2.023 . S
Mg8 O28 2.031 . S
Mg9 O7 1.963 1_544 S
Mg9 O13 1.986 . S
Mg9 O25 1.942 1_544 S
Mg9 O26 1.955 1_545 S
C10 O21 1.191 1_545 S
C10 O23 1.307 . S
O11 Mg6 2.013 . S
O11 C30 1.191 . S
O12 Mg3 2.081 . S
O12 C20 1.331 1_566 S
O13 Mg9 1.986 . S
O13 C30 1.307 . S
O14 Mg3 2.023 1_545 S
O14 C29 1.264 . S
O15 Mg4 1.942 . S
O15 C20 1.244 . S
O16 Mg4 1.955 1_455 S
O16 C29 1.273 1_454 S
O17 Mg6 2.114 1_666 S
O17 Mg8 2.291 . S
O17 C19 1.312 . S
O18 Mg3 2.031 . S
O18 C19 1.208 . S
C19 O17 1.312 . S
C19 O18 1.208 . S
C20 O12 1.331 1_544 S
C20 O15 1.244 . S
O21 Mg6 2.013 1_565 S
O21 C10 1.191 1_565 S
O22 C1 1.331 . S
O22 Mg8 2.081 1_455 S
O23 Mg4 1.986 1_455 S
O23 C10 1.307 . S
O24 C2 1.264 1_656 S
O24 Mg8 2.023 . S
O25 C1 1.244 . S
O25 Mg9 1.942 1_566 S
O26 C2 1.273 . S
O26 Mg9 1.955 1_565 S
O27 C0 1.312 1_545 S
O27 Mg3 2.291 1_545 S
O27 Mg6 2.114 1_656 S
O28 C0 1.208 . S
O28 Mg8 2.031 . S
C29 O14 1.264 . S
C29 O16 1.273 1_656 S
C30 O11 1.191 . S
C30 O13 1.307 . S
H31 C37 0.930 . S
H32 C40 0.930 . S
H33 C41 0.930 . S
H34 C42 0.930 1_556 S
H35 C45 0.937 . S
H36 C46 0.930 . S
C37 H31 0.930 . S
C37 C38 1.355 1_654 S
C37 C39 1.415 1_655 S
C38 C37 1.355 1_456 S
C38 C40 1.419 . S
C39 C37 1.415 1_455 S
C39 C44 1.425 1_554 S
C39 C46 1.409 1_455 S
C40 H32 0.930 . S
C40 C38 1.419 . S
C40 C41 1.362 . S
C41 H33 0.930 . S
C41 C40 1.362 . S
C41 C44 1.409 . S
C42 H34 0.930 1_554 S
C42 C43 1.355 . S
C42 C44 1.415 1_554 S
C43 C42 1.355 . S
C43 C45 1.420 1_455 S
C44 C39 1.425 1_556 S
C44 C41 1.409 . S
C44 C42 1.415 1_556 S
C45 H35 0.937 . S
C45 C43 1.420 1_655 S
C45 C46 1.354 . S
C46 H36 0.930 . S
C46 C39 1.409 1_655 S
C46 C45 1.354 . S
H47 C53 0.930 . S
H48 C56 0.930 . S
H49 C57 0.930 . S
H50 C58 0.930 1_554 S
H51 C61 0.930 . S
H52 C62 0.930 . S
C53 H47 0.930 . S
C53 C54 1.355 1_566 S
C53 C55 1.415 . S
C54 C53 1.355 1_544 S
C54 C56 1.419 . S
C55 C53 1.415 . S
C55 C60 1.425 1_566 S
C55 C62 1.409 . S
C56 H48 0.930 . S
C56 C54 1.419 . S
C56 C57 1.362 . S
C57 H49 0.930 . S
C57 C56 1.362 . S
C57 C60 1.409 . S
C58 H50 0.930 1_556 S
C58 C59 1.355 1_545 S
C58 C60 1.415 1_556 S
C59 C58 1.355 1_565 S
C59 C61 1.419 . S
C60 C55 1.425 1_544 S
C60 C57 1.409 . S
C60 C58 1.415 1_554 S
C61 H51 0.930 . S
C61 C59 1.419 . S
C61 C62 1.362 . S
C62 H52 0.930 . S
C62 C55 1.409 . S
C62 C61 1.362 . S
H63 C69 0.930 . S
H64 C72 0.930 . S
H65 C73 0.930 . S
H66 C74 0.930 . S
H67 C77 0.930 . S
H68 C78 0.930 . S
C69 H63 0.930 . S
C69 C70 1.355 . S
C69 C71 1.415 . S
C70 C69 1.355 . S
C70 C72 1.419 1_554 S
C71 C69 1.415 . S
C71 C76 1.425 1_554 S
C71 C78 1.409 . S
C72 H64 0.930 . S
C72 C70 1.419 1_556 S
C72 C73 1.362 . S
C73 H65 0.930 . S
C73 C72 1.362 . S
C73 C76 1.409 . S
C74 H66 0.930 . S
C74 C75 1.355 . S
C74 C76 1.415 . S
C75 C74 1.355 . S
C75 C77 1.419 1_556 S
C76 C71 1.425 1_556 S
C76 C73 1.409 . S
C76 C74 1.415 . S
C77 H67 0.930 . S
C77 C75 1.419 1_554 S
C77 C78 1.362 . S
C78 H68 0.930 . S
C78 C71 1.409 . S
C78 C77 1.362 . S
H79 C85 0.930 . S
H80 C88 0.930 . S
H81 C89 0.930 . S
H82 C90 0.930 . S
H83 C93 0.930 . S
H84 C94 0.930 . S
C85 H79 0.930 . S
C85 C86 1.348 1_465 S
C85 C87 1.415 . S
C86 C85 1.348 1_645 S
C86 C88 1.430 . S
C87 C85 1.415 . S
C87 C92 1.425 1_465 S
C87 C94 1.409 . S
C88 H80 0.930 . S
C88 C86 1.430 . S
C88 C89 1.362 . S
C89 H81 0.930 . S
C89 C88 1.362 . S
C89 C92 1.409 . S
C90 H82 0.930 . S
C90 C91 1.355 1_655 S
C90 C92 1.415 . S
C91 C90 1.355 1_455 S
C91 C93 1.419 1_545 S
C92 C87 1.425 1_645 S
C92 C89 1.409 . S
C92 C90 1.415 . S
C93 H83 0.930 . S
C93 C91 1.419 1_565 S
C93 C94 1.362 . S
C94 H84 0.930 . S
C94 C87 1.409 . S
C94 C93 1.362 . S
C38 C29 1.581 1_455 S
C43 C2 1.560 . S
C54 C20 1.401 . S
C59 C1 1.350 . S
C70 C30 1.743 . S
C75 C19 1.758 . S
C86 C0 1.480 1_545 S
C91 C10 1.498 . S
