# Generated by pormake.
# Topology qtz-x, (6)-cn, num edge types: 1
# Building blocks:
#     Node 0, Type 0, BuildingBlock: BETDEL_clean_sbu_0, # of connection points: 6
#     Node 1, Type 0, BuildingBlock: BETDEL_clean_sbu_0, # of connection points: 6
#     Node 2, Type 0, BuildingBlock: BETDEL_clean_sbu_0, # of connection points: 6
#     Edge 3, Type (0, 0), BuildingBlock: CIFDUS_clean_linker_0, # of connection points: 2
#     Edge 4, Type (0, 0), BuildingBlock: CIFDUS_clean_linker_0, # of connection points: 2
#     Edge 5, Type (0, 0), BuildingBlock: CIFDUS_clean_linker_0, # of connection points: 2
#     Edge 6, Type (0, 0), BuildingBlock: CIFDUS_clean_linker_0, # of connection points: 2
#     Edge 7, Type (0, 0), BuildingBlock: CIFDUS_clean_linker_0, # of connection points: 2
#     Edge 8, Type (0, 0), BuildingBlock: CIFDUS_clean_linker_0, # of connection points: 2
#     Edge 9, Type (0, 0), BuildingBlock: CIFDUS_clean_linker_0, # of connection points: 2
#     Edge 10, Type (0, 0), BuildingBlock: CIFDUS_clean_linker_0, # of connection points: 2
#     Edge 11, Type (0, 0), BuildingBlock: CIFDUS_clean_linker_0, # of connection points: 2
# Relax obj value: 0.139
# Max RMSD: 0.218
# Mean RMSD: 0.213
data_MOF--net-qtz-x--node1-BETDEL_clean_sbu_0--edge1-CIFDUS_clean_linker_0
_symmetry_space_group_name_H-M    P1
_symmetry_Int_Tables_number       1
_symmetry_cell_setting            triclinic
loop_
_symmetry_equiv_pos_as_xyz
'x, y, z'
_cell_length_a     12.645501
_cell_length_b     12.554602
_cell_length_c     38.041761
_cell_angle_alpha  83.422618
_cell_angle_beta   99.744788
_cell_angle_gamma 119.40019
loop_
_atom_site_label
_atom_site_type_symbol
_atom_site_fract_x
_atom_site_fract_y
_atom_site_fract_z
_atom_type_partial_charge
Dy0 Dy 0.92736 0.45708 0.20415 0.0
C1 C 0.31596 0.73524 0.12376 0.0
C2 C 0.77275 0.34838 0.255 0.0
Dy3 Dy 0.15633 0.5981 0.17257 0.0
O4 O 0.83714 0.4647 0.24883 0.0
O5 O 0.7882 0.2892 0.23205 0.0
O6 O 0.86242 0.58564 0.17746 0.0
O7 O 0.04922 0.65514 0.19713 0.0
C8 C 0.96924 0.68224 0.18072 0.0
C9 C 0.11595 0.37243 0.1941 0.0
O10 O 0.23167 0.66219 0.22878 0.0
O11 O 0.07534 0.48408 0.24896 0.0
O12 O 0.31703 0.64554 0.14415 0.0
O13 O 0.23112 0.75434 0.13187 0.0
O14 O 0.22329 0.46873 0.19661 0.0
O15 O 0.03481 0.39999 0.1789 0.0
O16 O 0.83563 0.39114 0.15 0.0
O17 O 0.0093 0.53264 0.12506 0.0
C18 C 0.18003 0.58521 0.25533 0.0
C19 C 0.89237 0.44759 0.12189 0.0
Dy20 Dy 0.64502 0.16378 0.53944 0.0
C21 C 0.49112 0.75736 0.45511 0.0
C22 C 0.68788 0.33904 0.58464 0.0
Dy23 Dy 0.53001 0.91908 0.50453 0.0
O24 O 0.76372 0.29985 0.58188 0.0
O25 O 0.59139 0.28663 0.56131 0.0
O26 O 0.82889 0.20721 0.52692 0.0
O27 O 0.70041 0.02435 0.53857 0.0
C28 C 0.8044 0.09341 0.52864 0.0
C29 C 0.36953 0.98974 0.51437 0.0
O30 O 0.53715 0.8488 0.56092 0.0
O31 O 0.55567 0.02295 0.58277 0.0
O32 O 0.4097 0.74866 0.47375 0.0
O33 O 0.59652 0.84825 0.46624 0.0
O34 O 0.3435 0.87584 0.5149 0.0
O35 O 0.47473 0.0581 0.5053 0.0
O36 O 0.64968 0.23982 0.48296 0.0
O37 O 0.59846 0.05561 0.45948 0.0
C38 C 0.533 0.90753 0.58712 0.0
C39 C 0.63366 0.17387 0.45568 0.0
Dy40 Dy 0.53122 0.66794 0.87517 0.0
C41 C 0.72562 0.50238 0.7823 0.0
C42 C 0.41458 0.69355 0.92568 0.0
Dy43 Dy 0.64187 0.55872 0.83521 0.0
O44 O 0.51945 0.77634 0.91644 0.0
O45 O 0.3707 0.59952 0.90586 0.0
O46 O 0.66984 0.85732 0.86051 0.0
O47 O 0.71824 0.71683 0.8686 0.0
C48 C 0.7541 0.82776 0.8589 0.0
C49 C 0.41927 0.40163 0.85286 0.0
O50 O 0.72793 0.53222 0.88884 0.0
O51 O 0.59562 0.5614 0.91721 0.0
O52 O 0.61715 0.44055 0.79178 0.0
O53 O 0.79293 0.59372 0.80325 0.0
O54 O 0.50477 0.3725 0.85312 0.0
O55 O 0.45505 0.51119 0.84175 0.0
O56 O 0.45726 0.70363 0.81951 0.0
O57 O 0.59613 0.67617 0.79404 0.0
C58 C 0.68015 0.52714 0.9178 0.0
C59 C 0.51041 0.7088 0.79157 0.0
H60 H 0.1606 0.88986 0.20956 0.0
H61 H 0.80495 0.75154 0.14673 0.0
H62 H 0.81496 0.95096 0.14661 0.0
H63 H 0.9241 0.165 0.16498 0.0
H64 H 0.2798 0.30285 0.22778 0.0
H65 H 0.26973 0.10357 0.22782 0.0
C66 C 0.08594 0.9039 0.19559 0.0
C67 C 0.98236 0.80639 0.17814 0.0
C68 C 0.09154 0.01843 0.19604 0.0
C69 C 0.88579 0.82545 0.16035 0.0
C70 C 0.89114 0.93927 0.1604 0.0
C71 C 0.99869 0.15081 0.17893 0.0
C72 C 0.10233 0.24817 0.19642 0.0
C73 C 0.99308 0.03623 0.17842 0.0
C74 C 0.19893 0.22905 0.21414 0.0
C75 C 0.19354 0.1153 0.21405 0.0
H76 H 0.13506 0.84729 0.52736 0.0
H77 H 0.40005 0.22155 0.50532 0.0
H78 H 0.24793 0.28663 0.50748 0.0
H79 H 0.03892 0.23652 0.51532 0.0
H80 H 0.77356 0.8618 0.53678 0.0
H81 H 0.92591 0.797 0.53477 0.0
C82 C 0.15948 0.94315 0.52307 0.0
C83 C 0.27867 0.0297 0.51634 0.0
C84 C 0.07119 0.97946 0.52404 0.0
C85 C 0.30916 0.15348 0.51078 0.0
C86 C 0.22202 0.19053 0.51188 0.0
C87 C 0.01448 0.14062 0.51949 0.0
C88 C 0.89534 0.05396 0.52625 0.0
C89 C 0.10274 0.10431 0.51841 0.0
C90 C 0.8647 0.93009 0.53156 0.0
C91 C 0.95187 0.89314 0.53046 0.0
H92 H 0.84813 0.07298 0.84948 0.0
H93 H 0.94981 0.78765 0.86477 0.0
H94 H 0.16573 0.94113 0.86547 0.0
H95 H 0.3252 0.15636 0.8623 0.0
H96 H 0.22332 0.44154 0.84644 0.0
H97 H 0.00748 0.28811 0.84594 0.0
C98 C 0.91758 0.04444 0.85282 0.0
C99 C 0.88343 0.91939 0.85711 0.0
C100 C 0.04125 0.1331 0.85345 0.0
C101 C 0.97409 0.88349 0.86139 0.0
C102 C 0.09743 0.97116 0.86192 0.0
C103 C 0.25573 0.18489 0.8589 0.0
C104 C 0.28986 0.30995 0.85453 0.0
C105 C 0.13204 0.09619 0.85818 0.0
C106 C 0.19911 0.34576 0.85001 0.0
C107 C 0.07581 0.2581 0.84956 0.0
H108 H 0.50403 0.8782 0.97239 0.0
H109 H 0.22849 0.50213 0.95551 0.0
H110 H 0.17723 0.48297 1.01567 0.0
H111 H 0.21568 0.56902 0.07391 0.0
H112 H 0.48316 0.94581 0.09167 0.0
H113 H 0.53218 0.96997 0.03025 0.0
C114 C 0.43097 0.79302 0.98168 0.0
C115 C 0.3701 0.69161 0.95948 0.0
C116 C 0.40113 0.78278 1.01646 0.0
C117 C 0.27615 0.58165 0.9719 0.0
C118 C 0.24714 0.5704 1.0064 0.0
C119 C 0.28462 0.65647 0.06421 0.0
C120 C 0.34729 0.7551 0.08712 0.0
C121 C 0.31005 0.66957 0.02902 0.0
C122 C 0.43493 0.86857 0.07441 0.0
C123 C 0.46247 0.88215 0.03935 0.0
H124 H 0.57487 0.05242 0.39496 0.0
H125 H 0.73674 0.41748 0.43364 0.0
H126 H 0.78212 0.50279 0.37331 0.0
H127 H 0.78942 0.4728 0.31099 0.0
H128 H 0.63662 0.10722 0.27405 0.0
H129 H 0.57234 0.0222 0.33272 0.0
C130 C 0.61979 0.15095 0.39045 0.0
C131 C 0.65368 0.22867 0.41907 0.0
C132 C 0.64678 0.19878 0.35604 0.0
C133 C 0.71014 0.35569 0.41225 0.0
C134 C 0.7362 0.40432 0.37777 0.0
C135 C 0.74016 0.37442 0.3156 0.0
C136 C 0.71741 0.296 0.28825 0.0
C137 C 0.70672 0.32667 0.34964 0.0
C138 C 0.65465 0.16904 0.29465 0.0
C139 C 0.61861 0.12068 0.32821 0.0
H140 H 0.46988 0.59641 0.73163 0.0
H141 H 0.48252 0.9122 0.77036 0.0
H142 H 0.48228 -0.00063 0.70898 0.0
H143 H 0.50444 -0.0049 0.64566 0.0
H144 H 0.49925 0.67909 0.60884 0.0
H145 H 0.47056 0.58286 0.66836 0.0
C146 C 0.46961 0.68316 0.72651 0.0
C147 C 0.47622 0.74808 0.75533 0.0
C148 C 0.47334 0.73351 0.69163 0.0
C149 C 0.4758 0.86004 0.74851 0.0
C150 C 0.47745 0.91037 0.7135 0.0
C151 C 0.49621 0.90469 0.65051 0.0
C152 C 0.50586 0.84531 0.62271 0.0
C153 C 0.4806 0.84965 0.68504 0.0
C154 C 0.49339 0.72764 0.62957 0.0
C155 C 0.47695 0.6723 0.66364 0.0
H156 H 0.56654 0.44111 0.97741 0.0
H157 H 0.90025 0.53199 0.93638 0.0
H158 H 0.99025 0.50079 0.99596 0.0
H159 H 0.98278 0.47059 0.06046 0.0
H160 H 0.64992 0.3783 0.10198 0.0
H161 H 0.54995 0.38459 0.04129 0.0
C162 C 0.65851 0.45264 0.98146 0.0
C163 C 0.72738 0.49068 0.95263 0.0
C164 C 0.70985 0.4344 1.01583 0.0
C165 C 0.84548 0.50315 0.95812 0.0
C166 C 0.89727 0.48576 0.99222 0.0
C167 C 0.88768 0.44988 0.05616 0.0
C168 C 0.82412 0.42555 0.08559 0.0
C169 C 0.83158 0.45475 0.02138 0.0
C170 C 0.70055 0.39703 0.0797 0.0
C171 C 0.64381 0.40169 0.04505 0.0
H172 H 0.42037 0.70309 0.28849 0.0
H173 H 0.04299 0.52224 0.30815 0.0
H174 H 0.10604 0.54264 0.37173 0.0
H175 H 0.26528 0.61609 0.42208 0.0
H176 H 0.64456 0.8068 0.40528 0.0
H177 H 0.58457 0.77474 0.34095 0.0
C178 C 0.35267 0.66921 0.30679 0.0
C179 C 0.22725 0.61085 0.29347 0.0
C180 C 0.38962 0.68057 0.34405 0.0
C181 C 0.14024 0.56655 0.31757 0.0
C182 C 0.17593 0.57775 0.3541 0.0
C183 C 0.33508 0.64835 0.4045 0.0
C184 C 0.45891 0.71279 0.41845 0.0
C185 C 0.29998 0.63404 0.36766 0.0
C186 C 0.54827 0.75531 0.3952 0.0
C187 C 0.51396 0.73851 0.35834 0.0
H188 H 0.56605 0.45129 0.72332 0.0
H189 H 0.93891 0.53636 0.76124 0.0
H190 H 0.96613 0.50646 0.70111 0.0
H191 H 0.87488 0.43797 0.63905 0.0
H192 H 0.50326 0.36297 0.60256 0.0
H193 H 0.48397 0.40633 0.66105 0.0
C194 C 0.65349 0.4634 0.71843 0.0
C195 C 0.74961 0.49287 0.74658 0.0
C196 C 0.66848 0.44864 0.68408 0.0
C197 C 0.86346 0.51211 0.73986 0.0
C198 C 0.87875 0.49519 0.70557 0.0
C199 C 0.7912 0.43504 0.64371 0.0
C200 C 0.6903 0.39669 0.61661 0.0
C201 C 0.78099 0.46146 0.67758 0.0
C202 C 0.58229 0.39282 0.62288 0.0
C203 C 0.57099 0.41725 0.65641 0.0
loop_
_geom_bond_atom_site_label_1
_geom_bond_atom_site_label_2
_geom_bond_distance
_geom_bond_site_symmetry_2
_ccdc_geom_bond_type
Dy0 O4 2.398 . S
Dy0 O5 2.491 . S
Dy0 O6 2.403 . S
Dy0 O7 2.664 1_655 S
Dy0 O11 2.326 1_655 S
Dy0 O15 2.310 . S
Dy0 O16 2.351 . S
C1 O12 1.185 . S
C1 O13 1.355 . S
C2 O4 1.185 . S
C2 O5 1.355 . S
Dy3 O7 2.310 . S
Dy3 O10 2.351 . S
Dy3 O12 2.398 . S
Dy3 O13 2.491 . S
Dy3 O14 2.403 . S
Dy3 O15 2.664 1_455 S
Dy3 O17 2.326 1_455 S
O4 Dy0 2.398 . S
O4 C2 1.185 . S
O5 Dy0 2.491 . S
O5 C2 1.355 . S
O6 Dy0 2.403 . S
O6 C8 1.254 . S
O7 Dy0 2.664 1_455 S
O7 Dy3 2.310 . S
O7 C8 1.268 1_455 S
C8 O6 1.254 . S
C8 O7 1.268 1_655 S
C9 O14 1.254 . S
C9 O15 1.268 1_455 S
O10 Dy3 2.351 . S
O10 C18 1.249 . S
O11 Dy0 2.326 1_455 S
O11 C18 1.267 . S
O12 C1 1.185 . S
O12 Dy3 2.398 . S
O13 C1 1.355 . S
O13 Dy3 2.491 . S
O14 Dy3 2.403 . S
O14 C9 1.254 . S
O15 Dy0 2.310 . S
O15 Dy3 2.664 1_655 S
O15 C9 1.268 1_655 S
O16 Dy0 2.351 . S
O16 C19 1.249 . S
O17 Dy3 2.326 1_655 S
O17 C19 1.267 . S
C18 O10 1.249 . S
C18 O11 1.267 . S
C19 O16 1.249 . S
C19 O17 1.267 . S
Dy20 O24 2.398 . S
Dy20 O25 2.491 . S
Dy20 O26 2.403 . S
Dy20 O27 2.664 1_545 S
Dy20 O31 2.326 1_545 S
Dy20 O35 2.310 . S
Dy20 O36 2.351 . S
C21 O32 1.185 . S
C21 O33 1.355 . S
C22 O24 1.185 . S
C22 O25 1.355 . S
Dy23 O27 2.310 . S
Dy23 O30 2.351 . S
Dy23 O32 2.398 . S
Dy23 O33 2.491 . S
Dy23 O34 2.403 . S
Dy23 O35 2.664 1_565 S
Dy23 O37 2.326 1_565 S
O24 Dy20 2.398 . S
O24 C22 1.185 . S
O25 Dy20 2.491 . S
O25 C22 1.355 . S
O26 Dy20 2.403 . S
O26 C28 1.254 . S
O27 Dy20 2.664 1_565 S
O27 Dy23 2.310 . S
O27 C28 1.268 1_565 S
C28 O26 1.254 . S
C28 O27 1.268 1_545 S
C29 O34 1.254 . S
C29 O35 1.268 1_565 S
O30 Dy23 2.351 . S
O30 C38 1.249 . S
O31 Dy20 2.326 1_565 S
O31 C38 1.267 . S
O32 C21 1.185 . S
O32 Dy23 2.398 . S
O33 C21 1.355 . S
O33 Dy23 2.491 . S
O34 Dy23 2.403 . S
O34 C29 1.254 . S
O35 Dy20 2.310 . S
O35 Dy23 2.664 1_545 S
O35 C29 1.268 1_545 S
O36 Dy20 2.351 . S
O36 C39 1.249 . S
O37 Dy23 2.326 1_545 S
O37 C39 1.267 . S
C38 O30 1.249 . S
C38 O31 1.267 . S
C39 O36 1.249 . S
C39 O37 1.267 . S
Dy40 O44 2.398 . S
Dy40 O45 2.491 . S
Dy40 O46 2.403 . S
Dy40 O47 2.664 . S
Dy40 O51 2.326 . S
Dy40 O55 2.310 . S
Dy40 O56 2.351 . S
C41 O52 1.185 . S
C41 O53 1.355 . S
C42 O44 1.185 . S
C42 O45 1.355 . S
Dy43 O47 2.310 . S
Dy43 O50 2.351 . S
Dy43 O52 2.398 . S
Dy43 O53 2.491 . S
Dy43 O54 2.403 . S
Dy43 O55 2.664 . S
Dy43 O57 2.326 . S
O44 Dy40 2.398 . S
O44 C42 1.185 . S
O45 Dy40 2.491 . S
O45 C42 1.355 . S
O46 Dy40 2.403 . S
O46 C48 1.254 . S
O47 Dy40 2.664 . S
O47 Dy43 2.310 . S
O47 C48 1.268 . S
C48 O46 1.254 . S
C48 O47 1.268 . S
C49 O54 1.254 . S
C49 O55 1.268 . S
O50 Dy43 2.351 . S
O50 C58 1.249 . S
O51 Dy40 2.326 . S
O51 C58 1.267 . S
O52 C41 1.185 . S
O52 Dy43 2.398 . S
O53 C41 1.355 . S
O53 Dy43 2.491 . S
O54 Dy43 2.403 . S
O54 C49 1.254 . S
O55 Dy40 2.310 . S
O55 Dy43 2.664 . S
O55 C49 1.268 . S
O56 Dy40 2.351 . S
O56 C59 1.249 . S
O57 Dy43 2.326 . S
O57 C59 1.267 . S
C58 O50 1.249 . S
C58 O51 1.267 . S
C59 O56 1.249 . S
C59 O57 1.267 . S
H60 C66 0.930 . S
H61 C69 0.930 . S
H62 C70 0.930 1_545 S
H63 C71 0.930 . S
H64 C74 0.930 . S
H65 C75 0.930 . S
C66 H60 0.930 . S
C66 C67 1.355 1_455 S
C66 C68 1.415 1_565 S
C67 C66 1.355 1_655 S
C67 C69 1.419 . S
C68 C66 1.415 1_545 S
C68 C73 1.425 1_455 S
C68 C75 1.409 . S
C69 H61 0.930 . S
C69 C67 1.419 . S
C69 C70 1.362 . S
C70 H62 0.930 1_565 S
C70 C69 1.362 . S
C70 C73 1.409 1_565 S
C71 H63 0.930 . S
C71 C72 1.355 1_655 S
C71 C73 1.415 . S
C72 C71 1.355 1_455 S
C72 C74 1.419 . S
C73 C68 1.425 1_655 S
C73 C70 1.409 1_545 S
C73 C71 1.415 . S
C74 H64 0.930 . S
C74 C72 1.419 . S
C74 C75 1.362 . S
C75 H65 0.930 . S
C75 C68 1.409 . S
C75 C74 1.362 . S
H76 C82 0.930 . S
H77 C85 0.930 . S
H78 C86 0.930 . S
H79 C87 0.930 . S
H80 C90 0.930 . S
H81 C91 0.930 . S
C82 H76 0.930 . S
C82 C83 1.355 1_545 S
C82 C84 1.415 . S
C83 C82 1.355 1_565 S
C83 C85 1.419 . S
C84 C82 1.415 . S
C84 C89 1.425 1_545 S
C84 C91 1.409 . S
C85 H77 0.930 . S
C85 C83 1.419 . S
C85 C86 1.362 . S
C86 H78 0.930 . S
C86 C85 1.362 . S
C86 C89 1.409 . S
C87 H79 0.930 . S
C87 C88 1.355 1_565 S
C87 C89 1.415 1_655 S
C88 C87 1.355 1_545 S
C88 C90 1.419 . S
C89 C84 1.425 1_565 S
C89 C86 1.409 . S
C89 C87 1.415 1_455 S
C90 H80 0.930 . S
C90 C88 1.419 . S
C90 C91 1.362 1_655 S
C91 H81 0.930 . S
C91 C84 1.409 . S
C91 C90 1.362 1_455 S
H92 C98 0.930 . S
H93 C101 0.930 . S
H94 C102 0.930 . S
H95 C103 0.930 . S
H96 C106 0.930 . S
H97 C107 0.930 . S
C98 H92 0.930 . S
C98 C99 1.355 1_545 S
C98 C100 1.415 1_655 S
C99 C98 1.355 1_565 S
C99 C101 1.419 . S
C100 C98 1.415 1_455 S
C100 C105 1.425 . S
C100 C107 1.409 . S
C101 H93 0.930 . S
C101 C99 1.419 . S
C101 C102 1.362 1_665 S
C102 H94 0.930 . S
C102 C101 1.362 1_445 S
C102 C105 1.409 . S
C103 H95 0.930 . S
C103 C104 1.355 . S
C103 C105 1.415 . S
C104 C103 1.355 . S
C104 C106 1.419 . S
C105 C100 1.425 . S
C105 C102 1.409 . S
C105 C103 1.415 . S
C106 H96 0.930 . S
C106 C104 1.419 . S
C106 C107 1.362 . S
C107 H97 0.930 . S
C107 C100 1.409 . S
C107 C106 1.362 . S
H108 C114 0.930 . S
H109 C117 0.930 . S
H110 C118 0.930 . S
H111 C119 0.930 . S
H112 C122 0.930 . S
H113 C123 0.930 . S
C114 H108 0.930 . S
C114 C115 1.355 . S
C114 C116 1.415 . S
C115 C114 1.355 . S
C115 C117 1.419 . S
C116 C114 1.415 . S
C116 C121 1.425 1_556 S
C116 C123 1.409 . S
C117 H109 0.930 . S
C117 C115 1.419 . S
C117 C118 1.362 1_556 S
C118 H110 0.930 . S
C118 C117 1.362 1_554 S
C118 C121 1.409 . S
C119 H111 0.930 . S
C119 C120 1.355 . S
C119 C121 1.415 . S
C120 C119 1.355 . S
C120 C122 1.419 . S
C121 C116 1.425 1_554 S
C121 C118 1.409 . S
C121 C119 1.415 . S
C122 H112 0.930 . S
C122 C120 1.419 . S
C122 C123 1.362 1_554 S
C123 H113 0.930 . S
C123 C116 1.409 . S
C123 C122 1.362 1_556 S
H124 C130 0.930 . S
H125 C133 0.930 . S
H126 C134 0.930 . S
H127 C135 0.930 . S
H128 C138 0.930 . S
H129 C139 0.930 . S
C130 H124 0.930 . S
C130 C131 1.355 . S
C130 C132 1.415 . S
C131 C130 1.355 . S
C131 C133 1.419 . S
C132 C130 1.415 . S
C132 C137 1.425 . S
C132 C139 1.409 . S
C133 H125 0.930 . S
C133 C131 1.419 . S
C133 C134 1.362 . S
C134 H126 0.930 . S
C134 C133 1.362 . S
C134 C137 1.409 . S
C135 H127 0.930 . S
C135 C136 1.355 . S
C135 C137 1.415 . S
C136 C135 1.355 . S
C136 C138 1.419 . S
C137 C132 1.425 . S
C137 C134 1.409 . S
C137 C135 1.415 . S
C138 H128 0.930 . S
C138 C136 1.419 . S
C138 C139 1.362 . S
C139 H129 0.930 . S
C139 C132 1.409 . S
C139 C138 1.362 . S
H140 C146 0.930 . S
H141 C149 0.930 . S
H142 C150 0.930 . S
H143 C151 0.930 . S
H144 C154 0.930 1_545 S
H145 C155 0.930 1_545 S
C146 H140 0.930 . S
C146 C147 1.355 . S
C146 C148 1.415 . S
C147 C146 1.355 . S
C147 C149 1.419 . S
C148 C146 1.415 . S
C148 C153 1.425 . S
C148 C155 1.409 . S
C149 H141 0.930 . S
C149 C147 1.419 . S
C149 C150 1.362 . S
C150 H142 0.930 . S
C150 C149 1.362 . S
C150 C153 1.409 . S
C151 H143 0.930 . S
C151 C152 1.355 . S
C151 C153 1.415 . S
C152 C151 1.355 . S
C152 C154 1.419 . S
C153 C148 1.425 . S
C153 C150 1.409 . S
C153 C151 1.415 . S
C154 H144 0.930 1_565 S
C154 C152 1.419 . S
C154 C155 1.362 . S
C155 H145 0.930 1_565 S
C155 C148 1.409 . S
C155 C154 1.362 . S
H156 C162 0.930 . S
H157 C165 0.930 . S
H158 C166 0.930 . S
H159 C167 0.930 . S
H160 C170 0.930 . S
H161 C171 0.930 . S
C162 H156 0.930 . S
C162 C163 1.355 . S
C162 C164 1.415 . S
C163 C162 1.355 . S
C163 C165 1.419 . S
C164 C162 1.415 . S
C164 C169 1.425 1_556 S
C164 C171 1.409 1_556 S
C165 H157 0.930 . S
C165 C163 1.419 . S
C165 C166 1.362 . S
C166 H158 0.930 . S
C166 C165 1.362 . S
C166 C169 1.409 1_556 S
C167 H159 0.930 . S
C167 C168 1.355 . S
C167 C169 1.415 . S
C168 C167 1.355 . S
C168 C170 1.419 . S
C169 C164 1.425 1_554 S
C169 C166 1.409 1_554 S
C169 C167 1.415 . S
C170 H160 0.930 . S
C170 C168 1.419 . S
C170 C171 1.362 . S
C171 H161 0.930 . S
C171 C164 1.409 1_554 S
C171 C170 1.362 . S
H172 C178 0.930 . S
H173 C181 0.930 . S
H174 C182 0.930 . S
H175 C183 0.930 . S
H176 C186 0.930 . S
H177 C187 0.930 . S
C178 H172 0.930 . S
C178 C179 1.355 . S
C178 C180 1.415 . S
C179 C178 1.355 . S
C179 C181 1.419 . S
C180 C178 1.415 . S
C180 C185 1.425 . S
C180 C187 1.409 . S
C181 H173 0.930 . S
C181 C179 1.419 . S
C181 C182 1.362 . S
C182 H174 0.930 . S
C182 C181 1.362 . S
C182 C185 1.409 . S
C183 H175 0.930 . S
C183 C184 1.355 . S
C183 C185 1.415 . S
C184 C183 1.355 . S
C184 C186 1.419 . S
C185 C180 1.425 . S
C185 C182 1.409 . S
C185 C183 1.415 . S
C186 H176 0.930 . S
C186 C184 1.419 . S
C186 C187 1.362 . S
C187 H177 0.930 . S
C187 C180 1.409 . S
C187 C186 1.362 . S
H188 C194 0.930 . S
H189 C197 0.930 . S
H190 C198 0.930 . S
H191 C199 0.930 . S
H192 C202 0.930 . S
H193 C203 0.930 . S
C194 H188 0.930 . S
C194 C195 1.355 . S
C194 C196 1.415 . S
C195 C194 1.355 . S
C195 C197 1.419 . S
C196 C194 1.415 . S
C196 C201 1.425 . S
C196 C203 1.409 . S
C197 H189 0.930 . S
C197 C195 1.419 . S
C197 C198 1.362 . S
C198 H190 0.930 . S
C198 C197 1.362 . S
C198 C201 1.409 . S
C199 H191 0.930 . S
C199 C200 1.355 . S
C199 C201 1.415 . S
C200 C199 1.355 . S
C200 C202 1.419 . S
C201 C196 1.425 . S
C201 C198 1.409 . S
C201 C199 1.415 . S
C202 H192 0.930 . S
C202 C200 1.419 . S
C202 C203 1.362 . S
C203 H193 0.930 . S
C203 C196 1.409 . S
C203 C202 1.362 . S
C67 C8 1.243 . S
C72 C9 1.243 . S
C83 C29 1.244 . S
C88 C28 1.244 . S
C99 C48 1.262 . S
C104 C49 1.262 . S
C115 C42 1.272 . S
C120 C1 1.273 . S
C131 C39 1.548 . S
C136 C2 1.540 . S
C147 C59 1.599 . S
C152 C38 1.567 . S
C163 C58 1.594 . S
C168 C19 1.579 . S
C179 C18 1.349 . S
C184 C21 1.349 . S
C195 C41 1.247 . S
C200 C22 1.239 . S
