# Generated by pormake.
# Topology sxa, (6)-cn, num edge types: 1
# Building blocks:
#     Node 0, Type 0, BuildingBlock: MIFKUJ_clean_sbu_0, # of connection points: 6
#     Node 1, Type 0, BuildingBlock: MIFKUJ_clean_sbu_0, # of connection points: 6
#     Node 2, Type 0, BuildingBlock: MIFKUJ_clean_sbu_0, # of connection points: 6
#     Node 3, Type 0, BuildingBlock: MIFKUJ_clean_sbu_0, # of connection points: 6
#     Edge 4, Type (0, 0), None
#     Edge 5, Type (0, 0), None
#     Edge 6, Type (0, 0), None
#     Edge 7, Type (0, 0), None
#     Edge 8, Type (0, 0), None
#     Edge 9, Type (0, 0), None
#     Edge 10, Type (0, 0), None
#     Edge 11, Type (0, 0), None
#     Edge 12, Type (0, 0), None
#     Edge 13, Type (0, 0), None
#     Edge 14, Type (0, 0), None
#     Edge 15, Type (0, 0), None
# Relax obj value: 0.144
# Max RMSD: 0.307
# Mean RMSD: 0.307
data_MOF--net-sxa--node1-MIFKUJ_clean_sbu_0--edge1-none
_symmetry_space_group_name_H-M    P1
_symmetry_Int_Tables_number       1
_symmetry_cell_setting            triclinic
loop_
_symmetry_equiv_pos_as_xyz
'x, y, z'
_cell_length_a     18.983105
_cell_length_b     10.958858
_cell_length_c     7.2559855
_cell_angle_alpha  100.14515
_cell_angle_beta   89.990895
_cell_angle_gamma 89.932557
loop_
_atom_site_label
_atom_site_type_symbol
_atom_site_fract_x
_atom_site_fract_y
_atom_site_fract_z
_atom_type_partial_charge
Zn0 Zn 0.83462 0.70892 0.18412 0.0
Zn1 Zn 0.03315 0.74221 0.2813 0.0
C2 C 0.68896 0.71413 0.37395 0.0
O3 O 0.67205 0.6211 0.24177 0.0
C4 C 0.16858 0.75372 0.20673 0.0
O5 O 0.15851 0.8645 0.30695 0.0
O6 O 0.78059 0.67999 0.96301 0.0
O7 O 0.89336 0.85515 0.11577 0.0
O8 O 0.00657 0.89707 0.16824 0.0
C9 C 0.73686 0.76534 0.96252 0.0
O10 O 0.74567 0.87263 0.07362 0.0
O11 O 0.75266 0.75564 0.38451 0.0
C12 C 0.13118 0.70584 0.59079 0.0
O13 O 0.14544 0.6002 0.48084 0.0
O14 O 0.07744 0.76953 0.55419 0.0
O15 O -0.02115 0.59453 0.15973 0.0
O16 O 0.87072 0.5328 0.1213 0.0
O17 O 0.11708 0.68528 0.15157 0.0
C18 C -0.0528 0.92288 0.10137 0.0
C19 C 0.93534 0.51065 0.09453 0.0
Zn20 Zn 0.33559 0.24124 0.1762 0.0
Zn21 Zn 0.54943 0.2552 0.27912 0.0
C22 C 0.19207 0.22879 0.36349 0.0
O23 O 0.18133 0.12932 0.23712 0.0
C24 C 0.68995 0.33287 0.27347 0.0
O25 O 0.67327 0.41877 0.41661 0.0
O26 O 0.29152 0.13162 0.97215 0.0
O27 O 0.37645 0.39726 0.09307 0.0
O28 O 0.49299 0.39186 0.15251 0.0
C29 C 0.26221 0.18003 0.84867 0.0
O30 O 0.2774 0.29541 0.83827 0.0
O31 O 0.25279 0.28231 0.37321 0.0
C32 C 0.63682 0.20254 0.58213 0.0
O33 O 0.65098 0.10627 0.45212 0.0
O34 O 0.58418 0.27245 0.55741 0.0
O35 O 0.52535 0.07775 0.16065 0.0
O36 O 0.42258 0.15495 0.2244 0.0
O37 O 0.64342 0.26525 0.18103 0.0
C38 C 0.43878 0.44208 0.08693 0.0
C39 C 0.45997 0.06801 0.13288 0.0
Zn40 Zn 0.83553 0.23512 0.91516 0.0
Zn41 Zn 0.04967 0.215 0.80716 0.0
C42 C 0.69192 0.24507 0.72568 0.0
O43 O 0.68051 0.34529 0.85022 0.0
C44 C 0.19103 0.14065 0.8124 0.0
O45 O 0.17545 0.05398 0.6694 0.0
O46 O 0.79184 0.34631 0.11984 0.0
O47 O 0.87739 0.07991 0.99961 0.0
O48 O -0.00608 0.08007 0.93701 0.0
C49 C 0.76164 0.29525 0.23926 0.0
O50 O 0.77707 0.17942 0.24633 0.0
O51 O 0.75281 0.19203 0.7184 0.0
C52 C 0.13634 0.26984 0.5059 0.0
O53 O 0.14946 0.3662 0.63655 0.0
O54 O 0.08432 0.19848 0.52938 0.0
O55 O 0.0258 0.39134 0.92485 0.0
O56 O 0.92188 0.31962 0.86092 0.0
O57 O 0.14371 0.20631 0.90508 0.0
C58 C -0.06072 0.03293 1.00509 0.0
C59 C -0.03941 0.40369 0.9538 0.0
Zn60 Zn 0.33233 0.7678 0.9147 0.0
Zn61 Zn 0.53523 0.73383 0.81885 0.0
C62 C 0.18563 0.76082 0.72853 0.0
O63 O 0.1688 0.85488 0.8593 0.0
C64 C 0.66796 0.72669 0.90137 0.0
O65 O 0.65754 0.61542 0.80303 0.0
O66 O 0.28106 0.79849 0.14098 0.0
O67 O 0.39453 0.62243 0.97763 0.0
O68 O 0.50781 0.57796 0.92838 0.0
C69 C 0.23729 0.71385 0.14442 0.0
O70 O 0.2454 0.60619 1.03364 0.0
O71 O 0.24934 0.71916 0.71818 0.0
C72 C 0.63436 0.76906 0.51135 0.0
O73 O 0.64823 0.87499 0.62083 0.0
O74 O 0.58045 0.70564 0.54694 0.0
O75 O 0.47282 0.87353 0.92587 0.0
O76 O 0.36751 0.94469 0.96909 0.0
O77 O 0.61666 0.79638 0.95494 0.0
C78 C 0.44779 0.55292 0.9926 0.0
C79 C 0.43249 0.96211 0.99338 0.0
loop_
_geom_bond_atom_site_label_1
_geom_bond_atom_site_label_2
_geom_bond_distance
_geom_bond_site_symmetry_2
_ccdc_geom_bond_type
Zn0 O6 1.969 1_554 S
Zn0 O7 1.965 . S
Zn0 O11 2.024 . S
Zn0 O16 1.969 . S
Zn1 O8 1.969 . S
Zn1 O14 1.969 . S
Zn1 O15 1.965 . S
Zn1 O17 2.024 1_554 S
C2 O3 1.229 . S
C2 O11 1.058 . S
O3 C2 1.229 . S
C4 O5 1.229 1_556 S
C4 O17 1.058 . S
O5 C4 1.229 1_554 S
O6 Zn0 1.969 1_556 S
O6 C9 1.267 . S
O7 Zn0 1.965 . S
O7 C18 1.260 1_655 S
O8 Zn1 1.969 . S
O8 C18 1.258 . S
C9 O6 1.267 . S
C9 O10 1.228 1_556 S
O10 C9 1.228 1_554 S
O11 Zn0 2.024 . S
O11 C2 1.058 . S
C12 O13 1.228 . S
C12 O14 1.267 . S
O13 C12 1.228 . S
O14 Zn1 1.969 . S
O14 C12 1.267 . S
O15 Zn1 1.965 . S
O15 C19 1.260 1_455 S
O16 Zn0 1.969 . S
O16 C19 1.258 . S
O17 Zn1 2.024 1_556 S
O17 C4 1.058 . S
C18 O7 1.260 1_455 S
C18 O8 1.258 . S
C19 O15 1.260 1_655 S
C19 O16 1.258 . S
Zn20 O26 1.969 1_554 S
Zn20 O27 1.965 . S
Zn20 O31 2.024 . S
Zn20 O36 1.969 . S
Zn21 O28 1.969 . S
Zn21 O34 1.969 . S
Zn21 O35 1.965 . S
Zn21 O37 2.024 1_554 S
C22 O23 1.229 . S
C22 O31 1.058 . S
O23 C22 1.229 . S
C24 O25 1.229 1_556 S
C24 O37 1.058 . S
O25 C24 1.229 1_554 S
O26 Zn20 1.969 1_556 S
O26 C29 1.267 . S
O27 Zn20 1.965 . S
O27 C38 1.260 . S
O28 Zn21 1.969 . S
O28 C38 1.258 . S
C29 O26 1.267 . S
C29 O30 1.228 1_556 S
O30 C29 1.228 1_554 S
O31 Zn20 2.024 . S
O31 C22 1.058 . S
C32 O33 1.228 . S
C32 O34 1.267 . S
O33 C32 1.228 . S
O34 Zn21 1.969 . S
O34 C32 1.267 . S
O35 Zn21 1.965 . S
O35 C39 1.260 . S
O36 Zn20 1.969 . S
O36 C39 1.258 . S
O37 Zn21 2.024 1_556 S
O37 C24 1.058 . S
C38 O27 1.260 . S
C38 O28 1.258 . S
C39 O35 1.260 . S
C39 O36 1.258 . S
Zn40 O46 1.969 1_556 S
Zn40 O47 1.965 . S
Zn40 O51 2.024 . S
Zn40 O56 1.969 . S
Zn41 O48 1.969 . S
Zn41 O54 1.969 . S
Zn41 O55 1.965 . S
Zn41 O57 2.024 1_556 S
C42 O43 1.229 . S
C42 O51 1.058 . S
O43 C42 1.229 . S
C44 O45 1.229 1_554 S
C44 O57 1.058 . S
O45 C44 1.229 1_556 S
O46 Zn40 1.969 1_554 S
O46 C49 1.267 . S
O47 Zn40 1.965 . S
O47 C58 1.260 1_655 S
O48 Zn41 1.969 . S
O48 C58 1.258 . S
C49 O46 1.267 . S
C49 O50 1.228 1_554 S
O50 C49 1.228 1_556 S
O51 Zn40 2.024 . S
O51 C42 1.058 . S
C52 O53 1.228 . S
C52 O54 1.267 . S
O53 C52 1.228 . S
O54 Zn41 1.969 . S
O54 C52 1.267 . S
O55 Zn41 1.965 . S
O55 C59 1.260 1_455 S
O56 Zn40 1.969 . S
O56 C59 1.258 . S
O57 Zn41 2.024 1_554 S
O57 C44 1.058 . S
C58 O47 1.260 1_455 S
C58 O48 1.258 . S
C59 O55 1.260 1_655 S
C59 O56 1.258 . S
Zn60 O66 1.969 1_556 S
Zn60 O67 1.965 . S
Zn60 O71 2.024 . S
Zn60 O76 1.969 . S
Zn61 O68 1.969 . S
Zn61 O74 1.969 . S
Zn61 O75 1.965 . S
Zn61 O77 2.024 1_556 S
C62 O63 1.229 . S
C62 O71 1.058 . S
O63 C62 1.229 . S
C64 O65 1.229 1_554 S
C64 O77 1.058 . S
O65 C64 1.229 1_556 S
O66 Zn60 1.969 1_554 S
O66 C69 1.267 . S
O67 Zn60 1.965 . S
O67 C78 1.260 . S
O68 Zn61 1.969 . S
O68 C78 1.258 . S
C69 O66 1.267 . S
C69 O70 1.228 1_554 S
O70 C69 1.228 1_556 S
O71 Zn60 2.024 . S
O71 C62 1.058 . S
C72 O73 1.228 . S
C72 O74 1.267 . S
O73 C72 1.228 . S
O74 Zn61 1.969 . S
O74 C72 1.267 . S
O75 Zn61 1.965 . S
O75 C79 1.260 . S
O76 Zn60 1.969 . S
O76 C79 1.258 . S
O77 Zn61 2.024 1_554 S
O77 C64 1.058 . S
C78 O67 1.260 . S
C78 O68 1.258 . S
C79 O75 1.260 . S
C79 O76 1.258 . S
C59 C19 3.114 1_556 S
C38 C78 2.948 1_554 S
C79 C39 3.114 1_566 S
C18 C58 2.948 1_564 S
C62 C12 1.466 . S
C52 C22 1.466 . S
C42 C32 1.466 . S
C2 C72 1.466 . S
C69 C4 1.456 1_554 S
C44 C29 1.456 1_554 S
C24 C49 1.456 1_556 S
C9 C64 1.456 1_556 S
