# Generated by pormake.
# Topology sxc, (6)-cn, num edge types: 1
# Building blocks:
#     Node 0, Type 0, BuildingBlock: NUHQIS_clean_sbu_0, # of connection points: 6
#     Node 1, Type 0, BuildingBlock: NUHQIS_clean_sbu_0, # of connection points: 6
#     Node 2, Type 0, BuildingBlock: NUHQIS_clean_sbu_0, # of connection points: 6
#     Edge 3, Type (0, 0), None
#     Edge 4, Type (0, 0), None
#     Edge 5, Type (0, 0), None
#     Edge 6, Type (0, 0), None
#     Edge 7, Type (0, 0), None
#     Edge 8, Type (0, 0), None
#     Edge 9, Type (0, 0), None
#     Edge 10, Type (0, 0), None
#     Edge 11, Type (0, 0), None
# Relax obj value: 0.958
# Max RMSD: 0.235
# Mean RMSD: 0.137
data_MOF--net-sxc--node1-NUHQIS_clean_sbu_0--edge1-none
_symmetry_space_group_name_H-M    P1
_symmetry_Int_Tables_number       1
_symmetry_cell_setting            triclinic
loop_
_symmetry_equiv_pos_as_xyz
'x, y, z'
_cell_length_a     17.376473
_cell_length_b     6.9230075
_cell_length_c     20.294551
_cell_angle_alpha  83.073062
_cell_angle_beta   102.27274
_cell_angle_gamma 115.6346
loop_
_atom_site_label
_atom_site_type_symbol
_atom_site_fract_x
_atom_site_fract_y
_atom_site_fract_z
_atom_type_partial_charge
Tb0 Tb 0.13034 0.30458 0.0263 0.0
Eu1 Eu 0.92029 1.10813 0.97627 0.0
C2 C 1.00469 1.11954 0.12756 0.0
C3 C 0.0304 0.81544 -0.00412 0.0
C4 C 0.35154 0.69947 0.08698 0.0
C5 C 0.50652 0.90279 0.10659 0.0
C6 C 0.4329 0.73882 0.12619 0.0
C7 C 0.3424 0.8441 0.03463 0.0
C8 C 0.41612 1.00683 0.01451 0.0
C9 C 0.49849 1.02149 0.04619 0.0
C10 C 0.28088 0.48905 0.09196 0.0
O11 O 0.12741 0.32696 0.91854 0.0
O12 O 0.97912 0.21131 0.8826 0.0
O13 O 0.95457 0.44058 0.00207 0.0
O14 O 0.09907 0.58061 -0.00382 0.0
C15 C 0.05843 0.28481 0.87083 0.0
O16 O 0.7888 0.87078 0.9803 0.0
O17 O 0.81244 1.12469 0.90244 0.0
O18 O 0.94371 1.16026 0.08744 0.0
O19 O 0.06249 1.09411 0.10263 0.0
O20 O 0.10575 0.98256 0.00403 0.0
O21 O 0.95556 0.82639 0.99015 0.0
C22 C 0.0284 0.60273 -0.0019 0.0
O23 O 0.21228 0.48717 0.10904 0.0
O24 O 0.26152 0.36625 0.04126 0.0
C25 C 0.69229 1.03173 0.95256 0.0
C26 C 0.56634 1.08079 0.00533 0.0
C27 C 0.54377 0.97273 0.9448 0.0
C28 C 0.60651 0.94699 0.91883 0.0
C29 C 0.71693 1.16103 0.00833 0.0
C30 C 0.65402 0.18527 0.03479 0.0
C31 C 0.75488 0.97232 0.93324 0.0
H32 H 0.56932 0.91197 0.13243 0.0
H33 H 0.44028 0.62855 0.16708 0.0
H34 H 0.27927 0.8163 0.00456 0.0
H35 H 0.40865 1.09871 0.96836 0.0
H36 H 0.47647 0.8865 0.92188 0.0
H37 H 0.58709 0.84829 0.87548 0.0
H38 H 0.78376 0.23004 0.03419 0.0
H39 H 0.6727 0.26779 0.08162 0.0
Tb40 Tb 0.92334 0.98246 0.32739 0.0
Eu41 Eu 0.14569 0.20493 0.34105 0.0
C42 C 1.01118 1.10096 0.20079 0.0
C43 C 0.03268 0.69607 0.33682 0.0
C44 C 0.6955 0.90592 0.32014 0.0
C45 C 0.54553 0.86063 0.29995 0.0
C46 C 0.60694 0.78205 0.29775 0.0
C47 C 0.72202 1.1114 0.34384 0.0
C48 C 0.66075 0.19095 0.34551 0.0
C49 C 0.57145 1.06647 0.32374 0.0
C50 C 0.75948 0.82124 0.31709 0.0
O51 O 0.97891 1.07531 0.43139 0.0
O52 O 0.1237 1.13667 0.44784 0.0
O53 O 0.10566 0.4765 0.33688 0.0
O54 O 0.95603 0.31895 0.33301 0.0
C55 C 0.05457 1.11122 0.47028 0.0
O56 O 0.2777 0.29524 0.39718 0.0
O57 O 0.25764 0.37924 0.29072 0.0
O58 O 0.08028 1.08415 0.2369 0.0
O59 O 0.95154 1.11144 0.22813 0.0
O60 O 0.95837 0.71373 0.32704 0.0
O61 O 0.1094 0.85597 0.34627 0.0
C62 C 0.0311 0.48529 0.33553 0.0
O63 O 0.79985 0.88981 0.26608 0.0
O64 O 0.81282 0.82047 0.37287 0.0
C65 C 0.37956 0.29766 0.33597 0.0
C66 C 0.50567 1.14906 0.327 0.0
C67 C 0.51691 0.27445 0.38095 0.0
C68 C 0.45472 0.34747 0.38536 0.0
C69 C 0.36814 0.17484 0.28138 0.0
C70 C 0.43054 1.10154 0.27693 0.0
C71 C 0.31364 0.37084 0.34399 0.0
H72 H 0.47754 0.75844 0.28398 0.0
H73 H 0.58516 0.62392 0.27866 0.0
H74 H 0.79016 0.21077 0.36084 0.0
H75 H 0.68362 0.35102 0.36334 0.0
H76 H 0.57326 0.31426 0.42051 0.0
H77 H 0.46512 0.44199 0.42792 0.0
H78 H 0.31079 1.13394 0.24242 0.0
H79 H 0.42004 1.00865 0.23399 0.0
Tb80 Tb 0.16504 1.11775 0.7045 0.0
Eu81 Eu 0.9636 0.35206 0.63398 0.0
C82 C 0.06676 0.2905 0.80044 0.0
C83 C 0.02373 1.10723 0.67434 0.0
C84 C 0.35372 1.01395 0.71461 0.0
C85 C 0.4984 1.03439 0.72902 0.0
C86 C 0.42165 0.97147 0.75341 0.0
C87 C 0.36027 1.10653 0.64954 0.0
C88 C 0.43692 1.1698 0.62514 0.0
C89 C 0.50768 1.1413 0.66576 0.0
C90 C 0.28281 0.99625 0.74555 0.0
O91 O 0.12343 1.11112 0.58843 0.0
O92 O 1.00655 0.23584 0.54861 0.0
O93 O 0.08894 0.53095 0.63626 0.0
O94 O 0.18559 0.41031 0.6747 0.0
C95 C 0.06267 1.15377 0.5409 0.0
O96 O 0.84496 0.3037 0.56378 0.0
O97 O 0.90911 0.58477 0.62775 0.0
O98 O 1.00754 0.34148 0.75404 0.0
O99 O 0.12399 0.2133 0.79093 0.0
O100 O 0.04164 0.94617 0.70027 0.0
O101 O 0.93962 1.05068 0.66412 0.0
C102 C 0.1027 0.36358 0.66323 0.0
O103 O 0.28848 0.1826 0.7599 0.0
O104 O 0.20466 0.86856 0.71608 0.0
C105 C 0.75512 0.4112 0.60495 0.0
C106 C 0.59264 0.23631 0.64432 0.0
C107 C 0.59872 0.22074 0.57749 0.0
C108 C 0.67953 0.30789 0.55801 0.0
C109 C 0.74902 0.43304 0.67123 0.0
C110 C 0.66824 0.34676 0.69068 0.0
C111 C 0.83904 0.46577 0.58628 0.0
H112 H 0.55156 1.00649 0.7605 0.0
H113 H 0.41683 0.89962 0.80363 0.0
H114 H 0.30808 1.14158 0.61936 0.0
H115 H 0.44246 0.25224 0.5763 0.0
H116 H 0.5414 1.1356 0.54092 0.0
H117 H 0.68359 0.2863 0.50707 0.0
H118 H 0.80652 0.51042 0.70861 0.0
H119 H 0.66501 0.36505 0.74217 0.0
loop_
_geom_bond_atom_site_label_1
_geom_bond_atom_site_label_2
_geom_bond_distance
_geom_bond_site_symmetry_2
_ccdc_geom_bond_type
Tb0 C10 2.825 . S
Tb0 O11 2.347 1_554 S
Tb0 O14 2.366 . S
Tb0 O19 2.418 . S
Tb0 O20 2.384 1_545 S
Tb0 O23 2.479 . S
Tb0 O24 2.471 1_554 S
Eu1 O12 2.418 . S
Eu1 O13 2.384 1_665 S
Eu1 O16 2.479 . S
Eu1 O17 2.471 1_556 S
Eu1 O18 2.347 1_666 S
Eu1 O21 2.366 . S
Eu1 C31 2.825 . S
C2 O18 1.259 . S
C2 O19 1.265 . S
C3 O20 1.255 1_655 S
C3 O21 1.265 1_554 S
C4 C6 1.380 . S
C4 C7 1.374 1_554 S
C4 C10 1.507 . S
C5 C6 1.384 . S
C5 C9 1.387 . S
C5 H32 0.930 . S
C6 C4 1.380 . S
C6 C5 1.384 . S
C6 H33 0.931 . S
C7 C4 1.374 1_556 S
C7 C8 1.390 . S
C7 H34 0.930 . S
C8 C7 1.390 . S
C8 C9 1.391 1_556 S
C8 H35 0.930 . S
C9 C5 1.387 . S
C9 C8 1.391 1_554 S
C10 Tb0 2.825 . S
C10 C4 1.507 . S
C10 O23 1.238 . S
C10 O24 1.247 1_554 S
O11 Tb0 2.347 1_556 S
O11 C15 1.259 . S
O12 Eu1 2.418 . S
O12 C15 1.265 1_665 S
O13 Eu1 2.384 1_445 S
O13 C22 1.255 1_556 S
O14 Tb0 2.366 . S
O14 C22 1.265 . S
C15 O11 1.259 . S
C15 O12 1.265 1_445 S
O16 Eu1 2.479 . S
O16 C31 1.238 . S
O17 Eu1 2.471 1_554 S
O17 C31 1.247 1_554 S
O18 Eu1 2.347 1_444 S
O18 C2 1.259 . S
O19 Tb0 2.418 . S
O19 C2 1.265 . S
O20 Tb0 2.384 1_565 S
O20 C3 1.255 1_455 S
O21 Eu1 2.366 . S
O21 C3 1.265 1_556 S
C22 O13 1.255 1_554 S
C22 O14 1.265 . S
O23 Tb0 2.479 . S
O23 C10 1.238 . S
O24 Tb0 2.471 1_556 S
O24 C10 1.247 1_556 S
C25 C28 1.380 . S
C25 C29 1.374 1_556 S
C25 C31 1.507 . S
C26 C27 1.387 1_554 S
C26 C30 1.391 . S
C27 C26 1.387 1_556 S
C27 C28 1.384 . S
C27 H36 0.930 . S
C28 C25 1.380 . S
C28 C27 1.384 . S
C28 H37 0.931 . S
C29 C25 1.374 1_554 S
C29 C30 1.390 . S
C29 H38 0.930 . S
C30 C26 1.391 . S
C30 C29 1.390 . S
C30 H39 0.930 . S
C31 Eu1 2.825 . S
C31 O16 1.238 . S
C31 O17 1.247 1_556 S
C31 C25 1.507 . S
H32 C5 0.930 . S
H33 C6 0.931 . S
H34 C7 0.930 . S
H35 C8 0.930 . S
H36 C27 0.930 . S
H37 C28 0.931 . S
H38 C29 0.930 . S
H39 C30 0.930 . S
Tb40 C50 2.825 . S
Tb40 O51 2.347 . S
Tb40 O54 2.366 1_565 S
Tb40 O59 2.418 . S
Tb40 O60 2.384 . S
Tb40 O63 2.479 . S
Tb40 O64 2.471 . S
Eu41 O52 2.418 . S
Eu41 O53 2.384 . S
Eu41 O56 2.479 . S
Eu41 O57 2.471 . S
Eu41 O58 2.347 . S
Eu41 O61 2.366 1_545 S
Eu41 C71 2.825 . S
C42 O58 1.259 1_665 S
C42 O59 1.265 . S
C43 O60 1.255 1_455 S
C43 O61 1.265 . S
C44 C46 1.380 . S
C44 C47 1.374 1_565 S
C44 C50 1.507 . S
C45 C46 1.384 . S
C45 C49 1.387 . S
C45 H72 0.930 . S
C46 C44 1.380 . S
C46 C45 1.384 . S
C46 H73 0.931 . S
C47 C44 1.374 1_545 S
C47 C48 1.390 . S
C47 H74 0.930 . S
C48 C47 1.390 . S
C48 C49 1.391 1_545 S
C48 H75 0.930 . S
C49 C45 1.387 . S
C49 C48 1.391 1_565 S
C50 Tb40 2.825 . S
C50 C44 1.507 . S
C50 O63 1.238 . S
C50 O64 1.247 . S
O51 Tb40 2.347 . S
O51 C55 1.259 1_665 S
O52 Eu41 2.418 . S
O52 C55 1.265 . S
O53 Eu41 2.384 . S
O53 C62 1.255 . S
O54 Tb40 2.366 1_545 S
O54 C62 1.265 1_655 S
C55 O51 1.259 1_445 S
C55 O52 1.265 . S
O56 Eu41 2.479 . S
O56 C71 1.238 . S
O57 Eu41 2.471 . S
O57 C71 1.247 . S
O58 Eu41 2.347 . S
O58 C42 1.259 1_445 S
O59 Tb40 2.418 . S
O59 C42 1.265 . S
O60 Tb40 2.384 . S
O60 C43 1.255 1_655 S
O61 Eu41 2.366 1_565 S
O61 C43 1.265 . S
C62 O53 1.255 . S
C62 O54 1.265 1_455 S
O63 Tb40 2.479 . S
O63 C50 1.238 . S
O64 Tb40 2.471 . S
O64 C50 1.247 . S
C65 C68 1.380 . S
C65 C69 1.374 1_545 S
C65 C71 1.507 . S
C66 C67 1.387 . S
C66 C70 1.391 1_545 S
C67 C66 1.387 . S
C67 C68 1.384 . S
C67 H76 0.930 . S
C68 C65 1.380 . S
C68 C67 1.384 . S
C68 H77 0.931 . S
C69 C65 1.374 1_565 S
C69 C70 1.390 . S
C69 H78 0.930 . S
C70 C66 1.391 1_565 S
C70 C69 1.390 . S
C70 H79 0.930 . S
C71 Eu41 2.825 . S
C71 O56 1.238 . S
C71 O57 1.247 . S
C71 C65 1.507 . S
H72 C45 0.930 . S
H73 C46 0.931 . S
H74 C47 0.930 . S
H75 C48 0.930 . S
H76 C67 0.930 . S
H77 C68 0.931 . S
H78 C69 0.930 . S
H79 C70 0.930 . S
Tb80 C90 2.825 . S
Tb80 O91 2.347 1_565 S
Tb80 O94 2.366 1_565 S
Tb80 O99 2.418 . S
Tb80 O100 2.384 1_455 S
Tb80 O103 2.479 . S
Tb80 O104 2.471 . S
Eu81 O92 2.418 1_455 S
Eu81 O93 2.384 . S
Eu81 O96 2.479 1_455 S
Eu81 O97 2.471 1_455 S
Eu81 O98 2.347 . S
Eu81 O101 2.366 1_445 S
Eu81 C111 2.825 1_455 S
C82 O98 1.259 . S
C82 O99 1.265 1_545 S
C83 O100 1.255 . S
C83 O101 1.265 . S
C84 C86 1.380 . S
C84 C87 1.374 . S
C84 C90 1.507 . S
C85 C86 1.384 . S
C85 C89 1.387 . S
C85 H112 0.930 . S
C86 C84 1.380 . S
C86 C85 1.384 . S
C86 H113 0.931 . S
C87 C84 1.374 . S
C87 C88 1.390 . S
C87 H114 0.930 . S
C88 C87 1.390 . S
C88 C89 1.391 . S
C88 H115 0.930 . S
C89 C85 1.387 . S
C89 C88 1.391 . S
C90 Tb80 2.825 . S
C90 C84 1.507 . S
C90 O103 1.238 . S
C90 O104 1.247 . S
O91 Tb80 2.347 1_545 S
O91 C95 1.259 . S
O92 Eu81 2.418 1_655 S
O92 C95 1.265 1_655 S
O93 Eu81 2.384 . S
O93 C102 1.255 . S
O94 Tb80 2.366 1_545 S
O94 C102 1.265 . S
C95 O91 1.259 . S
C95 O92 1.265 1_455 S
O96 Eu81 2.479 1_655 S
O96 C111 1.238 . S
O97 Eu81 2.471 1_655 S
O97 C111 1.247 . S
O98 Eu81 2.347 . S
O98 C82 1.259 . S
O99 Tb80 2.418 . S
O99 C82 1.265 1_565 S
O100 Tb80 2.384 1_655 S
O100 C83 1.255 . S
O101 Eu81 2.366 1_665 S
O101 C83 1.265 . S
C102 O93 1.255 . S
C102 O94 1.265 . S
O103 Tb80 2.479 . S
O103 C90 1.238 . S
O104 Tb80 2.471 . S
O104 C90 1.247 . S
C105 C108 1.380 . S
C105 C109 1.374 . S
C105 C111 1.507 . S
C106 C107 1.387 . S
C106 C110 1.391 . S
C107 C106 1.387 . S
C107 C108 1.384 . S
C107 H116 0.930 . S
C108 C105 1.380 . S
C108 C107 1.384 . S
C108 H117 0.931 . S
C109 C105 1.374 . S
C109 C110 1.390 . S
C109 H118 0.930 . S
C110 C106 1.391 . S
C110 C109 1.390 . S
C110 H119 0.930 . S
C111 Eu81 2.825 1_655 S
C111 O96 1.238 . S
C111 O97 1.247 . S
C111 C105 1.507 . S
H112 C85 0.930 . S
H113 C86 0.931 . S
H114 C87 0.930 . S
H115 C88 0.930 . S
H116 C107 0.930 . S
H117 C108 0.931 . S
H118 C109 0.930 . S
H119 C110 0.930 . S
C22 C3 5.072 1_455 S
C66 C49 0.448 1_545 S
C83 C102 5.500 1_665 S
C106 C89 2.900 1_545 S
C26 C9 5.432 . S
C62 C43 4.646 . S
C42 C2 1.622 1_665 S
C55 C95 1.503 . S
C82 C15 1.450 . S
