# Generated by pormake.
# Topology pcl, (4)-cn, num edge types: 1
# Building blocks:
#     Node 0, Type 0, BuildingBlock: NAHDIM_clean_sbu_0, # of connection points: 4
#     Node 1, Type 0, BuildingBlock: NAHDIM_clean_sbu_0, # of connection points: 4
#     Node 2, Type 0, BuildingBlock: NAHDIM_clean_sbu_0, # of connection points: 4
#     Node 3, Type 0, BuildingBlock: NAHDIM_clean_sbu_0, # of connection points: 4
#     Node 4, Type 0, BuildingBlock: NAHDIM_clean_sbu_0, # of connection points: 4
#     Node 5, Type 0, BuildingBlock: NAHDIM_clean_sbu_0, # of connection points: 4
#     Node 6, Type 0, BuildingBlock: NAHDIM_clean_sbu_0, # of connection points: 4
#     Node 7, Type 0, BuildingBlock: NAHDIM_clean_sbu_0, # of connection points: 4
#     Node 8, Type 0, BuildingBlock: NAHDIM_clean_sbu_0, # of connection points: 4
#     Node 9, Type 0, BuildingBlock: NAHDIM_clean_sbu_0, # of connection points: 4
#     Node 10, Type 0, BuildingBlock: NAHDIM_clean_sbu_0, # of connection points: 4
#     Node 11, Type 0, BuildingBlock: NAHDIM_clean_sbu_0, # of connection points: 4
#     Node 12, Type 0, BuildingBlock: NAHDIM_clean_sbu_0, # of connection points: 4
#     Node 13, Type 0, BuildingBlock: NAHDIM_clean_sbu_0, # of connection points: 4
#     Node 14, Type 0, BuildingBlock: NAHDIM_clean_sbu_0, # of connection points: 4
#     Node 15, Type 0, BuildingBlock: NAHDIM_clean_sbu_0, # of connection points: 4
#     Edge 16, Type (0, 0), None
#     Edge 17, Type (0, 0), None
#     Edge 18, Type (0, 0), None
#     Edge 19, Type (0, 0), None
#     Edge 20, Type (0, 0), None
#     Edge 21, Type (0, 0), None
#     Edge 22, Type (0, 0), None
#     Edge 23, Type (0, 0), None
#     Edge 24, Type (0, 0), None
#     Edge 25, Type (0, 0), None
#     Edge 26, Type (0, 0), None
#     Edge 27, Type (0, 0), None
#     Edge 28, Type (0, 0), None
#     Edge 29, Type (0, 0), None
#     Edge 30, Type (0, 0), None
#     Edge 31, Type (0, 0), None
#     Edge 32, Type (0, 0), None
#     Edge 33, Type (0, 0), None
#     Edge 34, Type (0, 0), None
#     Edge 35, Type (0, 0), None
#     Edge 36, Type (0, 0), None
#     Edge 37, Type (0, 0), None
#     Edge 38, Type (0, 0), None
#     Edge 39, Type (0, 0), None
#     Edge 40, Type (0, 0), None
#     Edge 41, Type (0, 0), None
#     Edge 42, Type (0, 0), None
#     Edge 43, Type (0, 0), None
#     Edge 44, Type (0, 0), None
#     Edge 45, Type (0, 0), None
#     Edge 46, Type (0, 0), None
#     Edge 47, Type (0, 0), None
# Relax obj value: 0.086
# Max RMSD: 0.101
# Mean RMSD: 0.091
data_MOF--net-pcl--node1-NAHDIM_clean_sbu_0--edge1-none
_symmetry_space_group_name_H-M    P1
_symmetry_Int_Tables_number       1
_symmetry_cell_setting            triclinic
loop_
_symmetry_equiv_pos_as_xyz
'x, y, z'
_cell_length_a     22.645968
_cell_length_b     22.638872
_cell_length_c     18.118658
_cell_angle_alpha  89.998879
_cell_angle_beta   89.999822
_cell_angle_gamma 90.001018
loop_
_atom_site_label
_atom_site_type_symbol
_atom_site_fract_x
_atom_site_fract_y
_atom_site_fract_z
_atom_type_partial_charge
C0 C 0.21528 0.2428 0.03916 0.0
O1 O 0.25063 0.27498 0.08015 0.0
O2 O 0.15666 0.33453 0.19018 0.0
Zn3 Zn 0.13055 0.33018 0.08337 0.0
O4 O 0.15258 0.40151 0.02251 0.0
C5 C 0.0154 0.36326 0.12826 0.0
O6 O 0.04665 0.39826 0.1708 0.0
O7 O 0.16133 0.25715 0.03304 0.0
C8 C 0.15612 0.45364 0.048 0.0
O9 O 0.1498 0.46279 0.11909 0.0
C10 C 0.20182 0.35815 0.21964 0.0
O11 O 0.24207 0.38364 0.17836 0.0
O12 O 0.04158 0.32786 0.08474 0.0
C13 C 0.76203 0.71466 0.53916 0.0
O14 O 0.72667 0.68248 0.58016 0.0
O15 O 0.82064 0.62294 0.69018 0.0
Zn16 Zn 0.84675 0.62729 0.58337 0.0
O17 O 0.82472 0.55595 0.52251 0.0
C18 C 0.9619 0.59421 0.62826 0.0
O19 O 0.93065 0.5592 0.6708 0.0
O20 O 0.81597 0.70032 0.53304 0.0
C21 C 0.82118 0.50383 0.548 0.0
O22 O 0.8275 0.49468 0.61909 0.0
C23 C 0.77549 0.59932 0.71964 0.0
O24 O 0.73523 0.57383 0.67836 0.0
O25 O 0.93572 0.62961 0.58474 0.0
C26 C 0.21528 0.71467 1.00578 0.0
O27 O 0.25063 0.68249 0.96478 0.0
O28 O 0.15666 0.62294 0.85476 0.0
Zn29 Zn 0.13055 0.62729 0.96157 0.0
O30 O 0.15257 0.55596 1.02243 0.0
C31 C 0.0154 0.59421 0.91669 0.0
O32 O 0.04665 0.5592 0.87417 0.0
O33 O 0.16133 0.70032 1.0119 0.0
C34 C 0.15612 0.50384 0.99694 0.0
O35 O 0.14982 0.49468 0.92584 0.0
C36 C 0.20182 0.59933 0.8253 0.0
O37 O 0.24208 0.57385 0.86659 0.0
O38 O 0.04158 0.62962 0.9602 0.0
C39 C 0.76202 0.2428 0.50578 0.0
O40 O 0.72668 0.27497 0.46478 0.0
O41 O 0.82064 0.33453 0.35476 0.0
Zn42 Zn 0.84675 0.33018 0.46157 0.0
O43 O 0.82473 0.40151 0.52243 0.0
C44 C 0.9619 0.36326 0.41669 0.0
O45 O 0.93066 0.39827 0.37417 0.0
O46 O 0.81597 0.25715 0.5119 0.0
C47 C 0.82118 0.45363 0.49694 0.0
O48 O 0.82748 0.46279 0.42584 0.0
C49 C 0.77549 0.35814 0.32531 0.0
O50 O 0.73523 0.38362 0.36659 0.0
O51 O 0.93573 0.32785 0.4602 0.0
C52 C 0.73872 0.69232 0.99794 0.0
O53 O 0.70498 0.66338 0.95142 0.0
O54 O 0.81462 0.53235 0.9899 0.0
Zn55 Zn 0.83166 0.61301 0.94736 0.0
O56 O 0.814 0.61837 0.8382 0.0
C57 C 0.95088 0.59101 0.91447 0.0
O58 O 0.925 0.55303 0.87024 0.0
O59 O 0.79263 0.67813 1.00502 0.0
C60 C 0.77258 0.59553 0.80044 0.0
O61 O 0.73129 0.56426 0.83294 0.0
C62 C 0.76558 0.50845 1.00632 0.0
O63 O 0.71586 0.53681 0.99493 0.0
O64 O 0.91951 0.62376 0.9557 0.0
C65 C 0.23859 0.26515 0.49794 0.0
O66 O 0.27232 0.29409 0.45141 0.0
O67 O 0.16268 0.42512 0.4899 0.0
Zn68 Zn 0.14565 0.34446 0.44736 0.0
O69 O 0.16331 0.3391 0.3382 0.0
C70 C 0.02643 0.36646 0.41447 0.0
O71 O 0.05231 0.40444 0.37024 0.0
O72 O 0.18467 0.27934 0.50502 0.0
C73 C 0.20472 0.36194 0.30044 0.0
O74 O 0.24602 0.39321 0.33294 0.0
C75 C 0.21173 0.44902 0.50632 0.0
O76 O 0.26144 0.42066 0.49493 0.0
O77 O 0.0578 0.33371 0.4557 0.0
C78 C 0.73872 0.26516 0.047 0.0
O79 O 0.70498 0.29409 0.09353 0.0
O80 O 0.81462 0.42512 0.05505 0.0
Zn81 Zn 0.83166 0.34446 0.09759 0.0
O82 O 0.814 0.3391 0.20674 0.0
C83 C 0.95088 0.36646 0.13048 0.0
O84 O 0.925 0.40443 0.17472 0.0
O85 O 0.79264 0.27934 0.03992 0.0
C86 C 0.77258 0.36193 0.24451 0.0
O87 O 0.73129 0.3932 0.21201 0.0
C88 C 0.76558 0.44902 0.03863 0.0
O89 O 0.71587 0.42066 0.05002 0.0
O90 O 0.91951 0.33372 0.08924 0.0
C91 C 0.23858 0.69231 0.547 0.0
O92 O 0.27232 0.66338 0.59353 0.0
O93 O 0.16268 0.53234 0.55505 0.0
Zn94 Zn 0.14564 0.613 0.59759 0.0
O95 O 0.1633 0.61836 0.70674 0.0
C96 C 0.02642 0.591 0.63048 0.0
O97 O 0.0523 0.55304 0.67472 0.0
O98 O 0.18467 0.67812 0.53992 0.0
C99 C 0.20472 0.59554 0.74451 0.0
O100 O 0.24602 0.56427 0.71201 0.0
C101 C 0.21173 0.50844 0.53863 0.0
O102 O 0.26144 0.53681 0.55002 0.0
O103 O 0.0578 0.62375 0.58924 0.0
C104 C 0.71528 0.7428 0.03916 0.0
O105 O 0.75063 0.77498 0.08015 0.0
O106 O 0.65666 0.83453 0.19018 0.0
Zn107 Zn 0.63055 0.83018 0.08337 0.0
O108 O 0.65258 0.90151 0.02251 0.0
C109 C 0.5154 0.86326 0.12826 0.0
O110 O 0.54665 0.89826 0.1708 0.0
O111 O 0.66133 0.75715 0.03304 0.0
C112 C 0.65612 0.95364 0.048 0.0
O113 O 0.6498 0.96279 0.11909 0.0
C114 C 0.70182 0.85815 0.21964 0.0
O115 O 0.74207 0.88364 0.17836 0.0
O116 O 0.54158 0.82786 0.08474 0.0
C117 C 0.26202 0.21466 0.53916 0.0
O118 O 0.22667 0.18248 0.58016 0.0
O119 O 0.32064 0.12294 0.69018 0.0
Zn120 Zn 0.34675 0.12729 0.58337 0.0
O121 O 0.32472 0.05595 0.52251 0.0
C122 C 0.4619 0.09421 0.62826 0.0
O123 O 0.43065 0.0592 0.6708 0.0
O124 O 0.31597 0.20032 0.53304 0.0
C125 C 0.32119 0.00383 0.548 0.0
O126 O 0.3275 -0.00532 0.61909 0.0
C127 C 0.27549 0.09932 0.71964 0.0
O128 O 0.23523 0.07383 0.67836 0.0
O129 O 0.43572 0.12961 0.58474 0.0
C130 C 0.71528 0.21467 1.00578 0.0
O131 O 0.75063 0.18249 0.96478 0.0
O132 O 0.65666 0.12294 0.85476 0.0
Zn133 Zn 0.63055 0.12729 0.96157 0.0
O134 O 0.65257 0.05596 1.02243 0.0
C135 C 0.5154 0.09421 0.91669 0.0
O136 O 0.54665 0.0592 0.87417 0.0
O137 O 0.66133 0.20032 1.0119 0.0
C138 C 0.65612 0.00384 0.99694 0.0
O139 O 0.64982 -0.00532 0.92584 0.0
C140 C 0.70182 0.09933 0.8253 0.0
O141 O 0.74208 0.07385 0.86659 0.0
O142 O 0.54158 0.12962 0.9602 0.0
C143 C 0.26202 0.7428 0.50578 0.0
O144 O 0.22667 0.77497 0.46478 0.0
O145 O 0.32064 0.83453 0.35476 0.0
Zn146 Zn 0.34675 0.83018 0.46157 0.0
O147 O 0.32473 0.90151 0.52243 0.0
C148 C 0.4619 0.86326 0.41669 0.0
O149 O 0.43066 0.89827 0.37417 0.0
O150 O 0.31597 0.75715 0.5119 0.0
C151 C 0.32118 0.95363 0.49694 0.0
O152 O 0.32748 0.96279 0.42584 0.0
C153 C 0.27549 0.85814 0.32531 0.0
O154 O 0.23523 0.88362 0.36659 0.0
O155 O 0.43573 0.82785 0.4602 0.0
C156 C 0.23872 0.19232 0.99794 0.0
O157 O 0.20498 0.16338 0.95142 0.0
O158 O 0.31462 0.03235 0.9899 0.0
Zn159 Zn 0.33166 0.11301 0.94736 0.0
O160 O 0.314 0.11837 0.8382 0.0
C161 C 0.45088 0.09101 0.91447 0.0
O162 O 0.425 0.05303 0.87024 0.0
O163 O 0.29263 0.17813 1.00502 0.0
C164 C 0.27258 0.09553 0.80044 0.0
O165 O 0.23129 0.06426 0.83294 0.0
C166 C 0.26558 0.00845 1.00632 0.0
O167 O 0.21586 0.03681 0.99493 0.0
O168 O 0.41951 0.12376 0.9557 0.0
C169 C 0.73859 0.76515 0.49794 0.0
O170 O 0.77232 0.79409 0.45141 0.0
O171 O 0.66268 0.92512 0.4899 0.0
Zn172 Zn 0.64565 0.84446 0.44736 0.0
O173 O 0.66331 0.8391 0.3382 0.0
C174 C 0.52643 0.86646 0.41447 0.0
O175 O 0.55231 0.90444 0.37024 0.0
O176 O 0.68467 0.77934 0.50502 0.0
C177 C 0.70472 0.86194 0.30044 0.0
O178 O 0.74602 0.89321 0.33294 0.0
C179 C 0.71173 0.94902 0.50632 0.0
O180 O 0.76144 0.92066 0.49493 0.0
O181 O 0.5578 0.83371 0.4557 0.0
C182 C 0.23872 0.76516 0.047 0.0
O183 O 0.20498 0.79409 0.09353 0.0
O184 O 0.31462 0.92512 0.05505 0.0
Zn185 Zn 0.33166 0.84446 0.09759 0.0
O186 O 0.314 0.8391 0.20674 0.0
C187 C 0.45088 0.86646 0.13048 0.0
O188 O 0.425 0.90443 0.17472 0.0
O189 O 0.29264 0.77934 0.03992 0.0
C190 C 0.27258 0.86193 0.24451 0.0
O191 O 0.23129 0.8932 0.21201 0.0
C192 C 0.26558 0.94902 0.03863 0.0
O193 O 0.21587 0.92066 0.05002 0.0
O194 O 0.41951 0.83372 0.08924 0.0
C195 C 0.73858 0.19231 0.547 0.0
O196 O 0.77232 0.16338 0.59353 0.0
O197 O 0.66268 0.03234 0.55505 0.0
Zn198 Zn 0.64564 0.113 0.59759 0.0
O199 O 0.6633 0.11836 0.70674 0.0
C200 C 0.52642 0.091 0.63048 0.0
O201 O 0.5523 0.05304 0.67472 0.0
O202 O 0.68467 0.17812 0.53992 0.0
C203 C 0.70472 0.09554 0.74451 0.0
O204 O 0.74602 0.06427 0.71201 0.0
C205 C 0.71173 0.00844 0.53863 0.0
O206 O 0.76144 0.03681 0.55002 0.0
O207 O 0.5578 0.12375 0.58924 0.0
loop_
_geom_bond_atom_site_label_1
_geom_bond_atom_site_label_2
_geom_bond_distance
_geom_bond_site_symmetry_2
_ccdc_geom_bond_type
C0 O1 1.160 . S
C0 O7 1.185 . S
O1 C0 1.160 . S
O2 Zn3 1.899 . S
O2 C10 1.284 . S
Zn3 O2 1.899 . S
Zn3 O4 2.032 . S
Zn3 O7 2.086 . S
Zn3 O12 1.977 . S
O4 Zn3 2.032 . S
O4 C8 1.278 . S
C5 O6 1.203 . S
C5 O12 1.267 . S
O6 C5 1.203 . S
O7 C0 1.185 . S
O7 Zn3 2.086 . S
C8 O4 1.278 . S
C8 O9 1.211 . S
O9 C8 1.211 . S
C10 O2 1.284 . S
C10 O11 1.273 . S
O11 C10 1.273 . S
O12 Zn3 1.977 . S
O12 C5 1.267 . S
C13 O14 1.160 . S
C13 O20 1.185 . S
O14 C13 1.160 . S
O15 Zn16 1.899 . S
O15 C23 1.284 . S
Zn16 O15 1.899 . S
Zn16 O17 2.032 . S
Zn16 O20 2.086 . S
Zn16 O25 1.977 . S
O17 Zn16 2.032 . S
O17 C21 1.278 . S
C18 O19 1.203 . S
C18 O25 1.267 . S
O19 C18 1.203 . S
O20 C13 1.185 . S
O20 Zn16 2.086 . S
C21 O17 1.278 . S
C21 O22 1.211 . S
O22 C21 1.211 . S
C23 O15 1.284 . S
C23 O24 1.273 . S
O24 C23 1.273 . S
O25 Zn16 1.977 . S
O25 C18 1.267 . S
C26 O27 1.160 . S
C26 O33 1.185 . S
O27 C26 1.160 . S
O28 Zn29 1.899 . S
O28 C36 1.284 . S
Zn29 O28 1.899 . S
Zn29 O30 2.032 . S
Zn29 O33 2.086 . S
Zn29 O38 1.977 . S
O30 Zn29 2.032 . S
O30 C34 1.278 . S
C31 O32 1.203 . S
C31 O38 1.267 . S
O32 C31 1.203 . S
O33 C26 1.185 . S
O33 Zn29 2.086 . S
C34 O30 1.278 . S
C34 O35 1.211 . S
O35 C34 1.211 . S
C36 O28 1.284 . S
C36 O37 1.273 . S
O37 C36 1.273 . S
O38 Zn29 1.977 . S
O38 C31 1.267 . S
C39 O40 1.160 . S
C39 O46 1.185 . S
O40 C39 1.160 . S
O41 Zn42 1.899 . S
O41 C49 1.284 . S
Zn42 O41 1.899 . S
Zn42 O43 2.032 . S
Zn42 O46 2.086 . S
Zn42 O51 1.977 . S
O43 Zn42 2.032 . S
O43 C47 1.278 . S
C44 O45 1.203 . S
C44 O51 1.267 . S
O45 C44 1.203 . S
O46 C39 1.185 . S
O46 Zn42 2.086 . S
C47 O43 1.278 . S
C47 O48 1.211 . S
O48 C47 1.211 . S
C49 O41 1.284 . S
C49 O50 1.273 . S
O50 C49 1.273 . S
O51 Zn42 1.977 . S
O51 C44 1.267 . S
C52 O53 1.160 . S
C52 O59 1.185 . S
O53 C52 1.160 . S
O54 Zn55 1.899 . S
O54 C62 1.284 . S
Zn55 O54 1.899 . S
Zn55 O56 2.032 . S
Zn55 O59 2.086 . S
Zn55 O64 1.977 . S
O56 Zn55 2.032 . S
O56 C60 1.278 . S
C57 O58 1.203 . S
C57 O64 1.267 . S
O58 C57 1.203 . S
O59 C52 1.185 . S
O59 Zn55 2.086 . S
C60 O56 1.278 . S
C60 O61 1.211 . S
O61 C60 1.211 . S
C62 O54 1.284 . S
C62 O63 1.273 . S
O63 C62 1.273 . S
O64 Zn55 1.977 . S
O64 C57 1.267 . S
C65 O66 1.160 . S
C65 O72 1.185 . S
O66 C65 1.160 . S
O67 Zn68 1.899 . S
O67 C75 1.284 . S
Zn68 O67 1.899 . S
Zn68 O69 2.032 . S
Zn68 O72 2.086 . S
Zn68 O77 1.977 . S
O69 Zn68 2.032 . S
O69 C73 1.278 . S
C70 O71 1.203 . S
C70 O77 1.267 . S
O71 C70 1.203 . S
O72 C65 1.185 . S
O72 Zn68 2.086 . S
C73 O69 1.278 . S
C73 O74 1.211 . S
O74 C73 1.211 . S
C75 O67 1.284 . S
C75 O76 1.273 . S
O76 C75 1.273 . S
O77 Zn68 1.977 . S
O77 C70 1.267 . S
C78 O79 1.160 . S
C78 O85 1.185 . S
O79 C78 1.160 . S
O80 Zn81 1.899 . S
O80 C88 1.284 . S
Zn81 O80 1.899 . S
Zn81 O82 2.032 . S
Zn81 O85 2.086 . S
Zn81 O90 1.977 . S
O82 Zn81 2.032 . S
O82 C86 1.278 . S
C83 O84 1.203 . S
C83 O90 1.267 . S
O84 C83 1.203 . S
O85 C78 1.185 . S
O85 Zn81 2.086 . S
C86 O82 1.278 . S
C86 O87 1.211 . S
O87 C86 1.211 . S
C88 O80 1.284 . S
C88 O89 1.273 . S
O89 C88 1.273 . S
O90 Zn81 1.977 . S
O90 C83 1.267 . S
C91 O92 1.160 . S
C91 O98 1.185 . S
O92 C91 1.160 . S
O93 Zn94 1.899 . S
O93 C101 1.284 . S
Zn94 O93 1.899 . S
Zn94 O95 2.032 . S
Zn94 O98 2.086 . S
Zn94 O103 1.977 . S
O95 Zn94 2.032 . S
O95 C99 1.278 . S
C96 O97 1.203 . S
C96 O103 1.267 . S
O97 C96 1.203 . S
O98 C91 1.185 . S
O98 Zn94 2.086 . S
C99 O95 1.278 . S
C99 O100 1.211 . S
O100 C99 1.211 . S
C101 O93 1.284 . S
C101 O102 1.273 . S
O102 C101 1.273 . S
O103 Zn94 1.977 . S
O103 C96 1.267 . S
C104 O105 1.160 . S
C104 O111 1.185 . S
O105 C104 1.160 . S
O106 Zn107 1.899 . S
O106 C114 1.284 . S
Zn107 O106 1.899 . S
Zn107 O108 2.032 . S
Zn107 O111 2.086 . S
Zn107 O116 1.977 . S
O108 Zn107 2.032 . S
O108 C112 1.278 . S
C109 O110 1.203 . S
C109 O116 1.267 . S
O110 C109 1.203 . S
O111 C104 1.185 . S
O111 Zn107 2.086 . S
C112 O108 1.278 . S
C112 O113 1.211 . S
O113 C112 1.211 . S
C114 O106 1.284 . S
C114 O115 1.273 . S
O115 C114 1.273 . S
O116 Zn107 1.977 . S
O116 C109 1.267 . S
C117 O118 1.160 . S
C117 O124 1.185 . S
O118 C117 1.160 . S
O119 Zn120 1.899 . S
O119 C127 1.284 . S
Zn120 O119 1.899 . S
Zn120 O121 2.032 . S
Zn120 O124 2.086 . S
Zn120 O129 1.977 . S
O121 Zn120 2.032 . S
O121 C125 1.278 . S
C122 O123 1.203 . S
C122 O129 1.267 . S
O123 C122 1.203 . S
O124 C117 1.185 . S
O124 Zn120 2.086 . S
C125 O121 1.278 . S
C125 O126 1.211 . S
O126 C125 1.211 . S
C127 O119 1.284 . S
C127 O128 1.273 . S
O128 C127 1.273 . S
O129 Zn120 1.977 . S
O129 C122 1.267 . S
C130 O131 1.160 . S
C130 O137 1.185 . S
O131 C130 1.160 . S
O132 Zn133 1.899 . S
O132 C140 1.284 . S
Zn133 O132 1.899 . S
Zn133 O134 2.032 . S
Zn133 O137 2.086 . S
Zn133 O142 1.977 . S
O134 Zn133 2.032 . S
O134 C138 1.278 . S
C135 O136 1.203 . S
C135 O142 1.267 . S
O136 C135 1.203 . S
O137 C130 1.185 . S
O137 Zn133 2.086 . S
C138 O134 1.278 . S
C138 O139 1.211 . S
O139 C138 1.211 . S
C140 O132 1.284 . S
C140 O141 1.273 . S
O141 C140 1.273 . S
O142 Zn133 1.977 . S
O142 C135 1.267 . S
C143 O144 1.160 . S
C143 O150 1.185 . S
O144 C143 1.160 . S
O145 Zn146 1.899 . S
O145 C153 1.284 . S
Zn146 O145 1.899 . S
Zn146 O147 2.032 . S
Zn146 O150 2.086 . S
Zn146 O155 1.977 . S
O147 Zn146 2.032 . S
O147 C151 1.278 . S
C148 O149 1.203 . S
C148 O155 1.267 . S
O149 C148 1.203 . S
O150 C143 1.185 . S
O150 Zn146 2.086 . S
C151 O147 1.278 . S
C151 O152 1.211 . S
O152 C151 1.211 . S
C153 O145 1.284 . S
C153 O154 1.273 . S
O154 C153 1.273 . S
O155 Zn146 1.977 . S
O155 C148 1.267 . S
C156 O157 1.160 . S
C156 O163 1.185 . S
O157 C156 1.160 . S
O158 Zn159 1.899 . S
O158 C166 1.284 . S
Zn159 O158 1.899 . S
Zn159 O160 2.032 . S
Zn159 O163 2.086 . S
Zn159 O168 1.977 . S
O160 Zn159 2.032 . S
O160 C164 1.278 . S
C161 O162 1.203 . S
C161 O168 1.267 . S
O162 C161 1.203 . S
O163 C156 1.185 . S
O163 Zn159 2.086 . S
C164 O160 1.278 . S
C164 O165 1.211 . S
O165 C164 1.211 . S
C166 O158 1.284 . S
C166 O167 1.273 . S
O167 C166 1.273 . S
O168 Zn159 1.977 . S
O168 C161 1.267 . S
C169 O170 1.160 . S
C169 O176 1.185 . S
O170 C169 1.160 . S
O171 Zn172 1.899 . S
O171 C179 1.284 . S
Zn172 O171 1.899 . S
Zn172 O173 2.032 . S
Zn172 O176 2.086 . S
Zn172 O181 1.977 . S
O173 Zn172 2.032 . S
O173 C177 1.278 . S
C174 O175 1.203 . S
C174 O181 1.267 . S
O175 C174 1.203 . S
O176 C169 1.185 . S
O176 Zn172 2.086 . S
C177 O173 1.278 . S
C177 O178 1.211 . S
O178 C177 1.211 . S
C179 O171 1.284 . S
C179 O180 1.273 . S
O180 C179 1.273 . S
O181 Zn172 1.977 . S
O181 C174 1.267 . S
C182 O183 1.160 . S
C182 O189 1.185 . S
O183 C182 1.160 . S
O184 Zn185 1.899 . S
O184 C192 1.284 . S
Zn185 O184 1.899 . S
Zn185 O186 2.032 . S
Zn185 O189 2.086 . S
Zn185 O194 1.977 . S
O186 Zn185 2.032 . S
O186 C190 1.278 . S
C187 O188 1.203 . S
C187 O194 1.267 . S
O188 C187 1.203 . S
O189 C182 1.185 . S
O189 Zn185 2.086 . S
C190 O186 1.278 . S
C190 O191 1.211 . S
O191 C190 1.211 . S
C192 O184 1.284 . S
C192 O193 1.273 . S
O193 C192 1.273 . S
O194 Zn185 1.977 . S
O194 C187 1.267 . S
C195 O196 1.160 . S
C195 O202 1.185 . S
O196 C195 1.160 . S
O197 Zn198 1.899 . S
O197 C205 1.284 . S
Zn198 O197 1.899 . S
Zn198 O199 2.032 . S
Zn198 O202 2.086 . S
Zn198 O207 1.977 . S
O199 Zn198 2.032 . S
O199 C203 1.278 . S
C200 O201 1.203 . S
C200 O207 1.267 . S
O201 C200 1.203 . S
O202 C195 1.185 . S
O202 Zn198 2.086 . S
C203 O199 1.278 . S
C203 O204 1.211 . S
O204 C203 1.211 . S
C205 O197 1.284 . S
C205 O206 1.273 . S
O206 C205 1.273 . S
O207 Zn198 1.977 . S
O207 C200 1.267 . S
C5 C83 1.345 1_455 S
C18 C96 1.345 1_655 S
C57 C31 1.345 1_655 S
C70 C44 1.345 1_455 S
C187 C109 1.345 . S
C200 C122 1.345 . S
C135 C161 1.345 . S
C148 C174 1.345 . S
C10 C73 1.432 . S
C23 C60 1.432 . S
C36 C99 1.432 . S
C86 C49 1.432 . S
C177 C114 1.432 . S
C164 C127 1.432 . S
C140 C203 1.432 . S
C190 C153 1.432 . S
C156 C0 1.336 1_556 S
C13 C169 1.336 . S
C182 C26 1.336 1_554 S
C195 C39 1.336 . S
C104 C52 1.336 1_554 S
C117 C65 1.336 . S
C78 C130 1.336 1_554 S
C91 C143 1.336 . S
C34 C8 1.265 1_556 S
C21 C47 1.265 . S
C88 C62 1.492 1_554 S
C75 C101 1.492 . S
C138 C112 1.265 1_546 S
C151 C125 1.265 1_565 S
C192 C166 1.492 1_564 S
C205 C179 1.492 1_545 S
