# Generated by pormake.
# Topology bnn, (5)-cn, num edge types: 1
# Building blocks:
#     Node 0, Type 0, BuildingBlock: XOMCOT_clean_sbu_0, # of connection points: 5
#     Node 1, Type 0, BuildingBlock: XOMCOT_clean_sbu_0, # of connection points: 5
#     Edge 2, Type (0, 0), BuildingBlock: XUDNAN_clean_linker_2, # of connection points: 2
#     Edge 3, Type (0, 0), BuildingBlock: XUDNAN_clean_linker_2, # of connection points: 2
#     Edge 4, Type (0, 0), BuildingBlock: XUDNAN_clean_linker_2, # of connection points: 2
#     Edge 5, Type (0, 0), BuildingBlock: XUDNAN_clean_linker_2, # of connection points: 2
#     Edge 6, Type (0, 0), BuildingBlock: XUDNAN_clean_linker_2, # of connection points: 2
# Relax obj value: 0.023
# Max RMSD: 0.078
# Mean RMSD: 0.078
data_MOF--net-bnn--node1-XOMCOT_clean_sbu_0--edge1-XUDNAN_clean_linker_2
_symmetry_space_group_name_H-M    P1
_symmetry_Int_Tables_number       1
_symmetry_cell_setting            triclinic
loop_
_symmetry_equiv_pos_as_xyz
'x, y, z'
_cell_length_a     29.602545
_cell_length_b     27.286038
_cell_length_c     17.600137
_cell_angle_alpha  100.07208
_cell_angle_beta   89.693691
_cell_angle_gamma 122.74973
loop_
_atom_site_label
_atom_site_type_symbol
_atom_site_fract_x
_atom_site_fract_y
_atom_site_fract_z
_atom_type_partial_charge
Co0 Co 0.33238 0.69666 0.04115 0.0
C1 C 0.3337 0.69994 0.21016 0.0
C2 C 0.32567 0.76832 0.18182 0.0
C3 C 0.3286 0.774 0.26157 0.0
N4 N 0.32915 0.72198 0.14985 0.0
N5 N 0.33417 0.73122 0.27901 0.0
H6 H 0.33732 0.66222 0.20441 0.0
H7 H 0.32286 0.79704 0.14959 0.0
C8 C 0.43066 0.80906 1.00034 0.0
O9 O 0.44243 0.7789 0.94672 0.0
N10 N 0.33458 0.67037 0.93178 0.0
C11 C 0.32989 0.61886 0.90028 0.0
C12 C 0.33345 0.61539 0.82215 0.0
C13 C 0.33807 0.69616 0.87086 0.0
N14 N 0.33914 0.66413 0.80365 0.0
C15 C 0.3601 0.61669 0.07589 0.0
C16 C 0.47072 0.69478 0.10012 0.0
C17 C 0.44866 0.63444 0.10057 0.0
C18 C 0.3923 0.59589 0.09083 0.0
C19 C 0.43675 0.71414 0.08678 0.0
N20 N 0.38212 0.67466 0.07059 0.0
H21 H 0.31699 0.58523 0.06764 0.0
H22 H 0.45513 0.76092 0.09008 0.0
H23 H 0.32365 0.58521 0.93103 0.0
H24 H 0.34206 0.73848 0.87603 0.0
O25 O 0.26431 0.62166 0.03871 0.0
O26 O 0.27266 0.70248 1.01242 0.0
O27 O 0.39188 0.78229 0.04124 0.0
C28 C 0.24121 0.64715 1.01838 0.0
H29 H 0.32907 0.80845 0.30351 0.0
H30 H 0.33227 0.57977 0.7818 0.0
H31 H 0.51393 0.72696 0.10856 0.0
H32 H 0.37271 0.54958 0.09441 0.0
Co33 Co 0.66874 0.366 0.0471 0.0
C34 C 0.66707 0.34932 0.87322 0.0
C35 C 0.5879 0.31287 0.90937 0.0
C36 C 0.5837 0.3037 0.82933 0.0
N37 N 0.6404 0.34202 0.93733 0.0
N38 N 0.63365 0.32654 0.80675 0.0
H39 H 0.70995 0.36999 0.87394 0.0
H40 H 0.55458 0.29857 0.94448 0.0
C41 C 0.63665 0.23834 0.9998 0.0
O42 O 0.65512 0.24807 0.93239 0.0
N43 N 0.69612 0.38955 0.15562 0.0
C44 C 0.74334 0.43952 0.18829 0.0
C45 C 0.7504 0.43897 0.2652 0.0
C46 C 0.67438 0.35972 0.21345 0.0
N47 N 0.70707 0.38902 0.28087 0.0
C48 C 0.77095 0.43758 0.99427 0.0
C49 C 0.81631 0.37597 0.0227 0.0
C50 C 0.84707 0.42743 0.99173 0.0
C51 C 0.82369 0.45852 0.97879 0.0
C52 C 0.76288 0.35618 0.03746 0.0
N53 N 0.7402 0.38592 0.02061 0.0
H54 H 0.75435 0.46259 0.98265 0.0
H55 H 0.74059 0.31804 0.06416 0.0
H56 H 0.77123 0.47358 0.15797 0.0
H57 H 0.63648 0.31687 0.20594 0.0
O58 O 0.68026 0.44322 0.05221 0.0
O59 O 0.60452 0.36482 0.0761 0.0
O60 O 0.64148 0.28084 0.05105 0.0
C61 C 0.6318 0.42086 0.07218 0.0
H62 H 0.54665 0.281 0.79089 0.0
H63 H 0.78489 0.47244 0.30652 0.0
H64 H 0.8333 0.35137 0.03541 0.0
H65 H 0.84625 0.49961 0.95771 0.0
H66 H 0.42823 0.52329 0.03735 0.0
H67 H 0.54875 0.69257 0.18537 0.0
H68 H 0.6071 0.65497 0.19656 0.0
H69 H 0.44633 0.43186 0.14638 0.0
H70 H 0.43506 0.37808 0.06049 0.0
H71 H 0.40284 0.41851 0.06339 0.0
H72 H 0.44463 0.45497 0.93903 0.0
H73 H 0.47707 0.41483 0.9358 0.0
H74 H 0.51679 0.49358 0.93713 0.0
H75 H 0.65489 0.60137 0.1845 0.0
H76 H 0.68628 0.53315 0.15691 0.0
H77 H 0.53099 0.39523 0.02923 0.0
C78 C 0.46631 0.5524 0.07359 0.0
C79 C 0.4836 0.61134 0.11016 0.0
C80 C 0.53465 0.64783 0.15524 0.0
C81 C 0.568 0.62664 0.16265 0.0
C82 C 0.54951 0.56849 0.1258 0.0
C83 C 0.49959 0.53162 0.08294 0.0
C84 C 0.48916 0.47082 0.0493 0.0
C85 C 0.44046 0.42193 0.08186 0.0
C86 C 0.48148 0.45782 0.96003 0.0
C87 C 0.54143 0.47948 0.07906 0.0
C88 C 0.57585 0.53637 0.12258 0.0
C89 C 0.62796 0.55645 0.15172 0.0
C90 C 0.64545 0.51752 0.13567 0.0
C91 C 0.61065 0.45893 0.09217 0.0
C92 C 0.55778 0.43941 0.06428 0.0
H93 H 0.92992 0.43715 0.07958 0.0
H94 H 0.89273 0.47235 0.86503 0.0
H95 H 0.9893 0.52914 0.84667 0.0
H96 H 0.04797 0.57464 0.14617 0.0
H97 H 0.08533 0.54793 0.18405 0.0
H98 H 1.0127 0.50473 0.17786 0.0
H99 H 1.0087 0.41375 0.09541 0.0
H100 H 0.08147 0.45636 0.10242 0.0
H101 H 0.04249 0.42177 1.00853 0.0
H102 H 0.08951 0.59484 0.86167 0.0
H103 H 0.18825 0.65239 0.89815 0.0
H104 H 0.16212 0.56778 0.09518 0.0
C105 C 0.94195 0.45521 0.02757 0.0
C106 C 0.90375 0.45105 0.9744 0.0
C107 C 0.92132 0.47599 0.90745 0.0
C108 C 0.97609 0.50816 0.89626 0.0
C109 C 1.01295 0.51393 0.9515 0.0
C110 C 0.99672 0.48689 1.01475 0.0
C111 C 0.0452 0.50152 0.06615 0.0
C112 C 0.04793 0.53414 0.14841 0.0
C113 C 0.04441 0.44498 0.06822 0.0
C114 C 0.09098 0.54242 0.02311 0.0
C115 C 0.07133 0.54926 0.95744 0.0
C116 C 0.1055 0.5888 0.91185 0.0
C117 C 0.16135 0.62161 0.93327 0.0
C118 C 0.18236 0.61384 0.99875 0.0
C119 C 0.1468 0.57355 0.04399 0.0
H120 H 0.4959 0.88391 0.90477 0.0
H121 H 0.43902 0.88382 0.13266 0.0
H122 H 0.48951 0.99337 0.1592 0.0
H123 H 0.63068 1.02076 0.96001 0.0
H124 H 0.63106 0.04535 0.87125 0.0
H125 H 0.59363 0.96692 0.87176 0.0
H126 H 0.50675 0.95478 0.81506 0.0
H127 H 0.54386 0.0331 0.81447 0.0
H128 H 0.48426 1.00019 0.86475 0.0
H129 H 0.54312 0.10234 0.16005 0.0
H130 H 0.59406 0.20364 0.13362 0.0
H131 H 0.61511 0.13466 0.90378 0.0
C132 C 0.49478 0.90705 0.96067 0.0
C133 C 0.46373 0.87517 1.01683 0.0
C134 C 0.46247 0.90711 0.0887 0.0
C135 C 0.49118 0.96944 0.10447 0.0
C136 C 0.52086 0.99948 0.04771 0.0
C137 C 0.52283 0.9695 0.97714 0.0
C138 C 0.55557 1.01262 0.92481 0.0
C139 C 0.60571 1.01133 0.90586 0.0
C140 C 0.52051 0.99937 0.85038 0.0
C141 C 0.57121 0.07134 0.97678 0.0
C142 C 0.55111 0.06264 0.04763 0.0
C143 C 0.55925 0.10975 0.10488 0.0
C144 C 0.5883 0.16726 0.08921 0.0
C145 C 0.60877 0.17746 1.0166 0.0
C146 C 0.6003 0.12861 0.95999 0.0
H147 H 0.29857 0.71329 0.72645 0.0
H148 H 0.40541 0.65005 0.71145 0.0
H149 H 0.41941 0.66639 0.57782 0.0
H150 H 0.23385 0.64486 0.53571 0.0
H151 H 0.2287 0.70475 0.51751 0.0
H152 H 0.23082 0.69419 0.61528 0.0
H153 H 0.31324 0.80272 0.65741 0.0
H154 H 0.31117 0.81377 0.55977 0.0
H155 H 0.37238 0.82787 0.60615 0.0
H156 H 0.41636 0.68065 0.44431 0.0
H157 H 0.39895 0.69591 0.31671 0.0
H158 H 0.2941 0.75071 0.41313 0.0
C159 C 0.32575 0.70427 0.69527 0.0
C160 C 0.35085 0.68024 0.72897 0.0
C161 C 0.38547 0.66791 0.68627 0.0
C162 C 0.39387 0.67731 0.61053 0.0
C163 C 0.36748 0.69934 0.57798 0.0
C164 C 0.33442 0.71317 0.61875 0.0
C165 C 0.30887 0.73328 0.5676 0.0
C166 C 0.24689 0.69178 0.5585 0.0
C167 C 0.32754 0.79828 0.59965 0.0
C168 C 0.33188 0.72719 0.49166 0.0
C169 C 0.36581 0.70784 0.49956 0.0
C170 C 0.39021 0.69626 0.43739 0.0
C171 C 0.37968 0.70453 0.36493 0.0
C172 C 0.34498 0.72419 0.35481 0.0
C173 C 0.32121 0.73623 0.41941 0.0
H174 H 0.62085 0.35482 0.36409 0.0
H175 H 0.77972 0.38371 0.36315 0.0
H176 H 0.77403 0.36149 0.49451 0.0
H177 H 0.63981 0.42729 0.55823 0.0
H178 H 0.57178 0.37778 0.57968 0.0
H179 H 0.5847 0.38768 0.48167 0.0
H180 H 0.53845 0.27393 0.43473 0.0
H181 H 0.52522 0.26364 0.53273 0.0
H182 H 0.56158 0.23563 0.47952 0.0
H183 H 0.75414 0.34273 0.62752 0.0
H184 H 0.72349 0.33279 0.75716 0.0
H185 H 0.57906 0.32189 0.67765 0.0
C186 C 0.65359 0.3548 0.39117 0.0
C187 C 0.70048 0.37006 0.35364 0.0
C188 C 0.74348 0.37165 0.39121 0.0
C189 C 0.74047 0.35895 0.46551 0.0
C190 C 0.69427 0.34522 0.50186 0.0
C191 C 0.65157 0.34318 0.46627 0.0
C192 C 0.60883 0.33244 0.52129 0.0
C193 C 0.60084 0.3844 0.53609 0.0
C194 C 0.55535 0.27286 0.4902 0.0
C195 C 0.63478 0.33004 0.59362 0.0
C196 C 0.68362 0.3366 0.58046 0.0
C197 C 0.71592 0.33753 0.63857 0.0
C198 C 0.6983 0.33241 0.7125 0.0
C199 C 0.64904 0.32724 0.72853 0.0
C200 C 0.6166 0.32518 0.66751 0.0
loop_
_geom_bond_atom_site_label_1
_geom_bond_atom_site_label_2
_geom_bond_distance
_geom_bond_site_symmetry_2
_ccdc_geom_bond_type
Co0 N4 2.148 . S
Co0 N10 2.128 1_554 S
Co0 N20 2.194 . S
Co0 O25 2.351 . S
Co0 O26 2.155 . S
Co0 O27 2.096 . S
C1 N4 1.301 . S
C1 N5 1.328 . S
C1 H6 0.930 . S
C2 C3 1.333 . S
C2 N4 1.317 . S
C2 H7 0.930 . S
C3 C2 1.333 . S
C3 N5 1.350 . S
C3 H29 0.931 . S
N4 Co0 2.148 . S
N4 C1 1.301 . S
N4 C2 1.317 . S
N5 C1 1.328 . S
N5 C3 1.350 . S
H6 C1 0.930 . S
H7 C2 0.930 . S
C8 O9 1.224 . S
C8 O27 1.247 . S
O9 C8 1.224 . S
N10 Co0 2.128 1_556 S
N10 C11 1.355 . S
N10 C13 1.311 . S
C11 N10 1.355 . S
C11 C12 1.363 . S
C11 H23 0.929 . S
C12 C11 1.363 . S
C12 N14 1.375 . S
C12 H30 0.931 . S
C13 N10 1.311 . S
C13 N14 1.347 . S
C13 H24 0.929 . S
N14 C12 1.375 . S
N14 C13 1.347 . S
C15 C18 1.365 . S
C15 N20 1.328 . S
C15 H21 0.929 . S
C16 C17 1.362 . S
C16 C19 1.378 . S
C16 H31 0.929 . S
C17 C16 1.362 . S
C17 C18 1.366 . S
C18 C15 1.365 . S
C18 C17 1.366 . S
C18 H32 0.930 . S
C19 C16 1.378 . S
C19 N20 1.315 . S
C19 H22 0.930 . S
N20 Co0 2.194 . S
N20 C15 1.328 . S
N20 C19 1.315 . S
H21 C15 0.929 . S
H22 C19 0.930 . S
H23 C11 0.929 . S
H24 C13 0.929 . S
O25 Co0 2.351 . S
O25 C28 1.244 . S
O26 Co0 2.155 . S
O26 C28 1.240 . S
O27 Co0 2.096 . S
O27 C8 1.247 . S
C28 O25 1.244 . S
C28 O26 1.240 . S
H29 C3 0.931 . S
H30 C12 0.931 . S
H31 C16 0.929 . S
H32 C18 0.930 . S
Co33 N37 2.148 1_554 S
Co33 N43 2.128 . S
Co33 N53 2.194 . S
Co33 O58 2.351 . S
Co33 O59 2.155 . S
Co33 O60 2.096 . S
C34 N37 1.301 . S
C34 N38 1.328 . S
C34 H39 0.930 . S
C35 C36 1.333 . S
C35 N37 1.317 . S
C35 H40 0.930 . S
C36 C35 1.333 . S
C36 N38 1.350 . S
C36 H62 0.931 . S
N37 Co33 2.148 1_556 S
N37 C34 1.301 . S
N37 C35 1.317 . S
N38 C34 1.328 . S
N38 C36 1.350 . S
H39 C34 0.930 . S
H40 C35 0.930 . S
C41 O42 1.224 . S
C41 O60 1.247 . S
O42 C41 1.224 . S
N43 Co33 2.128 . S
N43 C44 1.355 . S
N43 C46 1.311 . S
C44 N43 1.355 . S
C44 C45 1.363 . S
C44 H56 0.929 . S
C45 C44 1.363 . S
C45 N47 1.375 . S
C45 H63 0.931 . S
C46 N43 1.311 . S
C46 N47 1.347 . S
C46 H57 0.929 . S
N47 C45 1.375 . S
N47 C46 1.347 . S
C48 C51 1.365 . S
C48 N53 1.328 . S
C48 H54 0.929 1_554 S
C49 C50 1.362 . S
C49 C52 1.378 . S
C49 H64 0.929 . S
C50 C49 1.362 . S
C50 C51 1.366 . S
C51 C48 1.365 . S
C51 C50 1.366 . S
C51 H65 0.930 . S
C52 C49 1.378 . S
C52 N53 1.315 . S
C52 H55 0.930 . S
N53 Co33 2.194 . S
N53 C48 1.328 . S
N53 C52 1.315 . S
H54 C48 0.929 1_556 S
H55 C52 0.930 . S
H56 C44 0.929 . S
H57 C46 0.929 . S
O58 Co33 2.351 . S
O58 C61 1.244 . S
O59 Co33 2.155 . S
O59 C61 1.240 . S
O60 Co33 2.096 . S
O60 C41 1.247 . S
C61 O58 1.244 . S
C61 O59 1.240 . S
H62 C36 0.931 . S
H63 C45 0.931 . S
H64 C49 0.929 . S
H65 C51 0.930 . S
H66 C78 0.930 . S
H67 C80 0.930 . S
H68 C81 0.930 . S
H69 C85 0.959 . S
H70 C85 0.959 . S
H71 C85 0.961 . S
H72 C86 0.960 . S
H73 C86 0.961 . S
H74 C86 0.959 . S
H75 C89 0.929 . S
H76 C90 0.931 . S
H77 C92 0.930 . S
C78 H66 0.930 . S
C78 C79 1.399 1_556 S
C78 C83 1.399 . S
C79 C78 1.399 1_554 S
C79 C80 1.376 . S
C80 H67 0.930 . S
C80 C79 1.376 . S
C80 C81 1.388 . S
C81 H68 0.930 . S
C81 C80 1.388 . S
C81 C82 1.390 . S
C82 C81 1.390 . S
C82 C83 1.394 1_554 S
C82 C88 1.465 . S
C83 C78 1.399 . S
C83 C82 1.394 1_556 S
C83 C84 1.516 . S
C84 C83 1.516 . S
C84 C85 1.502 . S
C84 C86 1.561 . S
C84 C87 1.526 . S
C85 H69 0.959 . S
C85 H70 0.959 . S
C85 H71 0.961 . S
C85 C84 1.502 . S
C86 H72 0.960 . S
C86 H73 0.961 . S
C86 H74 0.959 . S
C86 C84 1.561 . S
C87 C84 1.526 . S
C87 C88 1.396 1_556 S
C87 C92 1.390 . S
C88 C82 1.465 . S
C88 C87 1.396 1_554 S
C88 C89 1.399 . S
C89 H75 0.929 . S
C89 C88 1.399 . S
C89 C90 1.385 . S
C90 H76 0.931 . S
C90 C89 1.385 . S
C90 C91 1.389 . S
C91 C90 1.389 . S
C91 C92 1.387 1_554 S
C92 H77 0.930 . S
C92 C87 1.390 . S
C92 C91 1.387 1_556 S
H93 C105 0.930 . S
H94 C107 0.930 . S
H95 C108 0.930 . S
H96 C112 0.959 . S
H97 C112 0.959 . S
H98 C112 0.961 . S
H99 C113 0.957 1_655 S
H100 C113 0.961 . S
H101 C113 0.959 . S
H102 C116 0.929 . S
H103 C117 0.931 . S
H104 C119 0.930 . S
C105 H93 0.930 . S
C105 C106 1.399 . S
C105 C110 1.399 . S
C106 C105 1.399 . S
C106 C107 1.376 1_554 S
C107 H94 0.930 . S
C107 C106 1.376 1_556 S
C107 C108 1.388 . S
C108 H95 0.930 . S
C108 C107 1.388 . S
C108 C109 1.390 . S
C109 C108 1.390 . S
C109 C110 1.394 1_556 S
C109 C115 1.465 1_655 S
C110 C105 1.399 . S
C110 C109 1.394 1_554 S
C110 C111 1.516 1_655 S
C111 C110 1.516 1_455 S
C111 C112 1.502 . S
C111 C113 1.561 . S
C111 C114 1.526 . S
C112 H96 0.959 . S
C112 H97 0.959 . S
C112 H98 0.961 . S
C112 C111 1.502 . S
C113 H99 0.957 1_455 S
C113 H100 0.961 . S
C113 H101 0.959 . S
C113 C111 1.561 . S
C114 C111 1.526 . S
C114 C115 1.396 1_554 S
C114 C119 1.390 . S
C115 C109 1.465 1_455 S
C115 C114 1.396 1_556 S
C115 C116 1.399 . S
C116 H102 0.929 . S
C116 C115 1.399 . S
C116 C117 1.385 . S
C117 H103 0.931 . S
C117 C116 1.385 . S
C117 C118 1.389 1_556 S
C118 C117 1.389 1_554 S
C118 C119 1.387 . S
C119 H104 0.930 . S
C119 C114 1.390 . S
C119 C118 1.387 . S
H120 C132 0.930 . S
H121 C134 0.930 . S
H122 C135 0.930 . S
H123 C139 0.959 . S
H124 C139 0.959 1_545 S
H125 C139 0.961 . S
H126 C140 0.960 . S
H127 C140 0.961 1_545 S
H128 C140 0.959 . S
H129 C143 0.929 . S
H130 C144 0.931 . S
H131 C146 0.930 . S
C132 H120 0.930 . S
C132 C133 1.399 1_556 S
C132 C137 1.399 . S
C133 C132 1.399 1_554 S
C133 C134 1.376 . S
C134 H121 0.930 . S
C134 C133 1.376 . S
C134 C135 1.388 . S
C135 H122 0.930 . S
C135 C134 1.388 . S
C135 C136 1.390 . S
C136 C135 1.390 . S
C136 C137 1.394 1_554 S
C136 C142 1.465 1_565 S
C137 C132 1.399 . S
C137 C136 1.394 1_556 S
C137 C138 1.516 . S
C138 C137 1.516 . S
C138 C139 1.502 . S
C138 C140 1.561 . S
C138 C141 1.526 1_565 S
C139 H123 0.959 . S
C139 H124 0.959 1_565 S
C139 H125 0.961 . S
C139 C138 1.502 . S
C140 H126 0.960 . S
C140 H127 0.961 1_565 S
C140 H128 0.959 . S
C140 C138 1.561 . S
C141 C138 1.526 1_545 S
C141 C142 1.396 1_556 S
C141 C146 1.390 . S
C142 C136 1.465 1_545 S
C142 C141 1.396 1_554 S
C142 C143 1.399 . S
C143 H129 0.929 . S
C143 C142 1.399 . S
C143 C144 1.385 . S
C144 H130 0.931 . S
C144 C143 1.385 . S
C144 C145 1.389 . S
C145 C144 1.389 . S
C145 C146 1.387 1_554 S
C146 H131 0.930 . S
C146 C141 1.390 . S
C146 C145 1.387 1_556 S
H147 C159 0.930 . S
H148 C161 0.930 . S
H149 C162 0.930 . S
H150 C166 0.959 . S
H151 C166 0.959 . S
H152 C166 0.961 . S
H153 C167 0.960 . S
H154 C167 0.961 . S
H155 C167 0.959 . S
H156 C170 0.929 . S
H157 C171 0.931 . S
H158 C173 0.930 . S
C159 H147 0.930 . S
C159 C160 1.399 . S
C159 C164 1.399 . S
C160 C159 1.399 . S
C160 C161 1.376 . S
C161 H148 0.930 . S
C161 C160 1.376 . S
C161 C162 1.388 . S
C162 H149 0.930 . S
C162 C161 1.388 . S
C162 C163 1.390 . S
C163 C162 1.390 . S
C163 C164 1.394 . S
C163 C169 1.465 . S
C164 C159 1.399 . S
C164 C163 1.394 . S
C164 C165 1.516 . S
C165 C164 1.516 . S
C165 C166 1.502 . S
C165 C167 1.561 . S
C165 C168 1.526 . S
C166 H150 0.959 . S
C166 H151 0.959 . S
C166 H152 0.961 . S
C166 C165 1.502 . S
C167 H153 0.960 . S
C167 H154 0.961 . S
C167 H155 0.959 . S
C167 C165 1.561 . S
C168 C165 1.526 . S
C168 C169 1.396 . S
C168 C173 1.390 . S
C169 C163 1.465 . S
C169 C168 1.396 . S
C169 C170 1.399 . S
C170 H156 0.929 . S
C170 C169 1.399 . S
C170 C171 1.385 . S
C171 H157 0.931 . S
C171 C170 1.385 . S
C171 C172 1.389 . S
C172 C171 1.389 . S
C172 C173 1.387 . S
C173 H158 0.930 . S
C173 C168 1.390 . S
C173 C172 1.387 . S
H174 C186 0.930 . S
H175 C188 0.930 . S
H176 C189 0.930 . S
H177 C193 0.959 . S
H178 C193 0.959 . S
H179 C193 0.961 . S
H180 C194 0.960 . S
H181 C194 0.961 . S
H182 C194 0.959 . S
H183 C197 0.929 . S
H184 C198 0.931 . S
H185 C200 0.930 . S
C186 H174 0.930 . S
C186 C187 1.399 . S
C186 C191 1.399 . S
C187 C186 1.399 . S
C187 C188 1.376 . S
C188 H175 0.930 . S
C188 C187 1.376 . S
C188 C189 1.388 . S
C189 H176 0.930 . S
C189 C188 1.388 . S
C189 C190 1.390 . S
C190 C189 1.390 . S
C190 C191 1.394 . S
C190 C196 1.465 . S
C191 C186 1.399 . S
C191 C190 1.394 . S
C191 C192 1.516 . S
C192 C191 1.516 . S
C192 C193 1.502 . S
C192 C194 1.561 . S
C192 C195 1.526 . S
C193 H177 0.959 . S
C193 H178 0.959 . S
C193 H179 0.961 . S
C193 C192 1.502 . S
C194 H180 0.960 . S
C194 H181 0.961 . S
C194 H182 0.959 . S
C194 C192 1.561 . S
C195 C192 1.526 . S
C195 C196 1.396 . S
C195 C200 1.390 . S
C196 C190 1.465 . S
C196 C195 1.396 . S
C196 C197 1.399 . S
C197 H183 0.929 . S
C197 C196 1.399 . S
C197 C198 1.385 . S
C198 H184 0.931 . S
C198 C197 1.385 . S
C198 C199 1.389 . S
C199 C198 1.389 . S
C199 C200 1.387 . S
C200 H185 0.930 . S
C200 C195 1.390 . S
C200 C199 1.387 . S
C79 C17 1.483 . S
C91 C61 1.489 . S
C106 C50 1.481 . S
C118 C28 1.487 . S
C133 C8 1.497 . S
C145 C41 1.492 . S
C160 N14 1.445 . S
C172 N5 1.481 . S
C187 N47 1.451 . S
C199 N38 1.477 . S
