# Generated by pormake.
# Topology qdl, (4)-cn, num edge types: 1
# Building blocks:
#     Node 0, Type 0, BuildingBlock: MUDLON_clean_sbu_0, # of connection points: 4
#     Node 1, Type 0, BuildingBlock: MUDLON_clean_sbu_0, # of connection points: 4
#     Node 2, Type 0, BuildingBlock: MUDLON_clean_sbu_0, # of connection points: 4
#     Node 3, Type 0, BuildingBlock: MUDLON_clean_sbu_0, # of connection points: 4
#     Node 4, Type 0, BuildingBlock: MUDLON_clean_sbu_0, # of connection points: 4
#     Node 5, Type 0, BuildingBlock: MUDLON_clean_sbu_0, # of connection points: 4
#     Edge 6, Type (0, 0), BuildingBlock: EYOCIG_clean_linker_4, # of connection points: 2
#     Edge 7, Type (0, 0), BuildingBlock: EYOCIG_clean_linker_4, # of connection points: 2
#     Edge 8, Type (0, 0), BuildingBlock: EYOCIG_clean_linker_4, # of connection points: 2
#     Edge 9, Type (0, 0), BuildingBlock: EYOCIG_clean_linker_4, # of connection points: 2
#     Edge 10, Type (0, 0), BuildingBlock: EYOCIG_clean_linker_4, # of connection points: 2
#     Edge 11, Type (0, 0), BuildingBlock: EYOCIG_clean_linker_4, # of connection points: 2
#     Edge 12, Type (0, 0), BuildingBlock: EYOCIG_clean_linker_4, # of connection points: 2
#     Edge 13, Type (0, 0), BuildingBlock: EYOCIG_clean_linker_4, # of connection points: 2
#     Edge 14, Type (0, 0), BuildingBlock: EYOCIG_clean_linker_4, # of connection points: 2
#     Edge 15, Type (0, 0), BuildingBlock: EYOCIG_clean_linker_4, # of connection points: 2
#     Edge 16, Type (0, 0), BuildingBlock: EYOCIG_clean_linker_4, # of connection points: 2
#     Edge 17, Type (0, 0), BuildingBlock: EYOCIG_clean_linker_4, # of connection points: 2
# Relax obj value: 0.001
# Max RMSD: 0.013
# Mean RMSD: 0.012
data_MOF--net-qdl--node1-MUDLON_clean_sbu_0--edge1-EYOCIG_clean_linker_4
_symmetry_space_group_name_H-M    P1
_symmetry_Int_Tables_number       1
_symmetry_cell_setting            triclinic
loop_
_symmetry_equiv_pos_as_xyz
'x, y, z'
_cell_length_a     12.47597
_cell_length_b     12.483108
_cell_length_c     74.913607
_cell_angle_alpha  90.444014
_cell_angle_beta   90.840234
_cell_angle_gamma 119.96991
loop_
_atom_site_label
_atom_site_type_symbol
_atom_site_fract_x
_atom_site_fract_y
_atom_site_fract_z
_atom_type_partial_charge
Mg0 Mg 0.01842 0.04604 0.08531 0.0
C1 C 0.04734 0.82559 0.08331 0.0
O2 O 0.16231 0.91544 0.0821 0.0
C3 C 0.04733 0.29501 0.08372 0.0
O4 O 0.16179 0.31936 0.08194 0.0
C5 C 0.05345 0.05187 0.12446 0.0
O6 O 0.16788 0.10119 0.11909 0.0
O7 O 0.96588 0.01788 0.11304 0.0
O8 O 0.96121 0.85105 0.08473 0.0
O9 O 0.96568 0.02137 0.05727 0.0
C10 C 0.05338 0.06307 0.04628 0.0
O11 O 0.16834 0.11665 0.05223 0.0
O12 O 0.96144 0.18396 0.08549 0.0
Mg13 Mg 0.06553 0.04899 0.41861 0.0
C14 C 0.82381 0.03487 0.41741 0.0
O15 O 0.79501 0.91839 0.4166 0.0
C16 C 0.29282 0.03489 0.41752 0.0
O17 O 0.20493 0.91845 0.41668 0.0
C18 C 0.02693 0.99455 0.45793 0.0
O19 O 0.9573 0.88131 0.45173 0.0
O20 O 0.08369 0.08255 0.44722 0.0
O21 O 0.93711 0.11907 0.41833 0.0
O22 O 0.07317 0.06932 0.38989 0.0
C23 C 0.01191 0.97789 0.37936 0.0
O24 O 0.94254 0.86704 0.38576 0.0
O25 O 0.26397 0.11916 0.41844 0.0
Mg26 Mg 0.04173 0.04245 0.75192 0.0
C27 C 0.82445 0.79 0.75037 0.0
O28 O 0.91559 0.76631 0.74961 0.0
C29 C 0.29368 0.25932 0.75079 0.0
O30 O 0.31679 0.16804 0.74927 0.0
C31 C 0.04356 0.02002 0.79098 0.0
O32 O 0.09146 0.95262 0.78577 0.0
O33 O 0.01142 0.07304 0.77944 0.0
O34 O 0.84805 0.90123 0.75132 0.0
O35 O 0.01511 0.06897 0.72401 0.0
C36 C 0.05599 0.02154 0.71289 0.0
O37 O 0.10902 0.95997 0.71868 0.0
O38 O 0.18291 0.23595 0.75224 0.0
Mg39 Mg 0.02735 0.03053 0.58532 0.0
C40 C 0.24085 0.98846 0.58737 0.0
O41 O 0.14863 0.87485 0.58873 0.0
C42 C 0.7723 0.98859 0.58697 0.0
O43 O 0.7516 0.87541 0.58879 0.0
C44 C 0.02361 0.00586 0.54641 0.0
O45 O 0.97293 0.89091 0.55163 0.0
O46 O 0.05895 0.09247 0.55797 0.0
O47 O 0.2191 0.07692 0.58582 0.0
O48 O 0.05671 0.08921 0.61313 0.0
C49 C 0.01664 1.00199 0.62425 0.0
O50 O 0.96332 0.88694 0.61845 0.0
O51 O 0.88199 0.07684 0.58514 0.0
Mg52 Mg 0.9992 0.0349 0.91848 0.0
C53 C 0.24531 0.25876 0.92 0.0
O54 O 0.2722 0.16997 0.92127 0.0
C55 C 0.77596 0.78938 0.91957 0.0
O56 O 0.86532 0.76333 0.92118 0.0
C57 C 0.03183 0.01842 0.87945 0.0
O58 O 0.09781 0.97132 0.88573 0.0
O59 O 0.97756 0.05396 0.89014 0.0
O60 O 0.13281 0.23161 0.91871 0.0
O61 O 0.97807 0.05794 0.94665 0.0
C62 C 0.02819 0.01909 0.95771 0.0
O63 O 0.09105 0.96787 0.9519 0.0
O64 O 0.80253 0.90128 0.91808 0.0
Mg65 Mg 0.0304 0.01532 0.25191 0.0
C66 C 0.05762 0.26365 0.25341 0.0
O67 O 0.17311 0.28923 0.25456 0.0
C68 C 0.05739 0.79413 0.2532 0.0
O69 O 0.1728 0.884 0.25451 0.0
C70 C 0.05995 0.04169 0.21284 0.0
O71 O 0.17497 0.10896 0.21857 0.0
O72 O 0.97428 0.98789 0.22399 0.0
O73 O 0.97131 0.15175 0.25217 0.0
O74 O 0.98646 0.99373 0.27996 0.0
C75 C 0.07536 0.04944 0.29115 0.0
O76 O 0.1886 0.11748 0.28549 0.0
O77 O 0.97112 0.81976 0.25187 0.0
C78 C 0.01002 0.59821 0.08346 0.0
C79 C 0.02103 0.6998 0.08346 0.0
C80 C 0.01006 0.48516 0.0836 0.0
C81 C 0.0211 0.39459 0.08376 0.0
C82 C 0.52194 0.07557 0.41749 0.0
C83 C 0.41999 0.0643 0.41756 0.0
C84 C 0.63543 0.07561 0.41745 0.0
C85 C 0.72614 0.06438 0.41749 0.0
C86 C 0.59781 0.59887 0.75053 0.0
C87 C 0.69919 0.68963 0.7505 0.0
C88 C 0.48485 0.48588 0.75068 0.0
C89 C 0.39411 0.38453 0.75081 0.0
C90 C 0.46654 0.02144 0.58725 0.0
C91 C 0.36535 0.01127 0.58724 0.0
C92 C 0.57951 0.02146 0.58712 0.0
C93 C 0.67055 0.01136 0.58696 0.0
C94 C 0.43464 0.48676 0.91966 0.0
C95 C 0.34399 0.38509 0.91974 0.0
C96 C 0.54788 0.59993 0.91953 0.0
C97 C 0.64957 0.69057 0.91945 0.0
C98 C 0.0198 0.45348 0.25328 0.0
C99 C 0.03086 0.36289 0.25327 0.0
C100 C 0.01971 0.56656 0.25322 0.0
C101 C 0.03065 0.66814 0.25313 0.0
C102 C 0.02036 0.02639 0.17801 0.0
C103 C 0.03258 0.02986 0.19402 0.0
C104 C 0.01901 0.02928 0.15918 0.0
C105 C 0.02889 0.03716 0.1432 0.0
C106 C 0.04357 0.03861 0.51165 0.0
C107 C 0.03774 0.03127 0.52768 0.0
C108 C 0.04333 0.03298 0.49282 0.0
C109 C 0.03795 0.01879 0.47683 0.0
C110 C 0.02127 0.03731 0.82567 0.0
C111 C 0.02889 0.0332 0.80969 0.0
C112 C 0.01875 0.03565 0.8445 0.0
C113 C 0.02195 0.02969 0.86053 0.0
C114 C 0.01644 0.04459 0.01138 0.0
C115 C 0.02818 0.05065 0.02741 0.0
C116 C 0.01289 0.0381 0.99255 0.0
C117 C 0.01734 0.03142 0.97655 0.0
C118 C 0.03958 0.02402 0.32585 0.0
C119 C 0.05354 0.03418 0.30995 0.0
C120 C 0.02794 0.00988 0.34451 0.0
C121 C 0.02083 0.99559 0.36043 0.0
C122 C 0.03477 0.03781 0.65917 0.0
C123 C 0.02916 0.02729 0.64312 0.0
C124 C 0.0396 0.03978 0.67801 0.0
C125 C 0.04473 0.03421 0.69404 0.0
loop_
_geom_bond_atom_site_label_1
_geom_bond_atom_site_label_2
_geom_bond_distance
_geom_bond_site_symmetry_2
_ccdc_geom_bond_type
Mg0 O7 2.141 . S
Mg0 O8 2.048 1_545 S
Mg0 O9 2.048 . S
Mg0 O12 2.141 . S
C1 O2 1.313 . S
C1 O8 1.195 1_455 S
O2 C1 1.313 . S
C3 O4 1.245 . S
C3 O12 1.289 1_455 S
O4 C3 1.245 . S
C5 O6 1.245 . S
C5 O7 1.289 1_455 S
O6 C5 1.245 . S
O7 Mg0 2.141 . S
O7 C5 1.289 1_655 S
O8 Mg0 2.048 1_565 S
O8 C1 1.195 1_655 S
O9 Mg0 2.048 . S
O9 C10 1.195 1_655 S
C10 O9 1.195 1_455 S
C10 O11 1.313 . S
O11 C10 1.313 . S
O12 Mg0 2.141 . S
O12 C3 1.289 1_655 S
Mg13 O20 2.141 . S
Mg13 O21 2.048 1_455 S
Mg13 O22 2.048 . S
Mg13 O25 2.141 . S
C14 O15 1.313 1_545 S
C14 O21 1.195 . S
O15 C14 1.313 1_565 S
C16 O17 1.245 1_545 S
C16 O25 1.289 . S
O17 C16 1.245 1_565 S
C18 O19 1.245 1_445 S
C18 O20 1.289 . S
O19 C18 1.245 1_665 S
O20 Mg13 2.141 . S
O20 C18 1.289 . S
O21 Mg13 2.048 1_655 S
O21 C14 1.195 . S
O22 Mg13 2.048 . S
O22 C23 1.195 . S
C23 O22 1.195 . S
C23 O24 1.313 1_445 S
O24 C23 1.313 1_665 S
O25 Mg13 2.141 . S
O25 C16 1.289 . S
Mg26 O33 2.141 . S
Mg26 O34 2.048 1_445 S
Mg26 O35 2.048 . S
Mg26 O38 2.141 . S
C27 O28 1.313 . S
C27 O34 1.195 . S
O28 C27 1.313 . S
C29 O30 1.245 . S
C29 O38 1.289 . S
O30 C29 1.245 . S
C31 O32 1.245 1_545 S
C31 O33 1.289 . S
O32 C31 1.245 1_565 S
O33 Mg26 2.141 . S
O33 C31 1.289 . S
O34 Mg26 2.048 1_665 S
O34 C27 1.195 . S
O35 Mg26 2.048 . S
O35 C36 1.195 . S
C36 O35 1.195 . S
C36 O37 1.313 1_545 S
O37 C36 1.313 1_565 S
O38 Mg26 2.141 . S
O38 C29 1.289 . S
Mg39 O46 2.141 . S
Mg39 O47 2.048 . S
Mg39 O48 2.048 . S
Mg39 O51 2.141 1_455 S
C40 O41 1.307 1_545 S
C40 O47 1.203 . S
O41 C40 1.307 1_565 S
C42 O43 1.245 . S
C42 O51 1.289 1_565 S
O43 C42 1.245 . S
C44 O45 1.245 1_455 S
C44 O46 1.289 1_565 S
O45 C44 1.245 1_655 S
O46 Mg39 2.141 . S
O46 C44 1.289 1_545 S
O47 Mg39 2.048 . S
O47 C40 1.203 . S
O48 Mg39 2.048 . S
O48 C49 1.200 . S
C49 O48 1.200 . S
C49 O50 1.307 1_445 S
O50 C49 1.307 1_665 S
O51 Mg39 2.141 1_655 S
O51 C42 1.289 1_545 S
Mg52 O59 2.141 . S
Mg52 O60 2.048 1_655 S
Mg52 O61 2.048 . S
Mg52 O64 2.141 1_545 S
C53 O54 1.313 . S
C53 O60 1.195 . S
O54 C53 1.313 . S
C55 O56 1.245 . S
C55 O64 1.289 . S
O56 C55 1.245 . S
C57 O58 1.245 1_545 S
C57 O59 1.289 1_455 S
O58 C57 1.245 1_565 S
O59 Mg52 2.141 . S
O59 C57 1.289 1_655 S
O60 Mg52 2.048 1_455 S
O60 C53 1.195 . S
O61 Mg52 2.048 . S
O61 C62 1.195 1_655 S
C62 O61 1.195 1_455 S
C62 O63 1.313 . S
O63 C62 1.313 . S
O64 Mg52 2.141 1_565 S
O64 C55 1.289 . S
Mg65 O72 2.141 . S
Mg65 O73 2.048 1_565 S
Mg65 O74 2.048 . S
Mg65 O77 2.141 . S
C66 O67 1.313 . S
C66 O73 1.195 1_455 S
O67 C66 1.313 . S
C68 O69 1.245 . S
C68 O77 1.289 1_455 S
O69 C68 1.245 . S
C70 O71 1.245 . S
C70 O72 1.289 1_445 S
O71 C70 1.245 . S
O72 Mg65 2.141 . S
O72 C70 1.289 1_665 S
O73 Mg65 2.048 1_545 S
O73 C66 1.195 1_655 S
O74 Mg65 2.048 . S
O74 C75 1.195 1_665 S
C75 O74 1.195 1_445 S
C75 O76 1.313 . S
O76 C75 1.313 . S
O77 Mg65 2.141 . S
O77 C68 1.289 1_655 S
C78 C79 1.170 . S
C78 C80 1.380 . S
C79 C78 1.170 . S
C80 C78 1.380 . S
C80 C81 1.170 . S
C81 C80 1.170 . S
C82 C83 1.170 . S
C82 C84 1.380 . S
C83 C82 1.170 . S
C84 C82 1.380 . S
C84 C85 1.170 . S
C85 C84 1.170 . S
C86 C87 1.170 . S
C86 C88 1.380 . S
C87 C86 1.170 . S
C88 C86 1.380 . S
C88 C89 1.170 . S
C89 C88 1.170 . S
C90 C91 1.170 . S
C90 C92 1.380 . S
C91 C90 1.170 . S
C92 C90 1.380 . S
C92 C93 1.170 . S
C93 C92 1.170 . S
C94 C95 1.170 . S
C94 C96 1.380 . S
C95 C94 1.170 . S
C96 C94 1.380 . S
C96 C97 1.170 . S
C97 C96 1.170 . S
C98 C99 1.170 . S
C98 C100 1.380 . S
C99 C98 1.170 . S
C100 C98 1.380 . S
C100 C101 1.170 . S
C101 C100 1.170 . S
C102 C103 1.170 . S
C102 C104 1.380 . S
C103 C102 1.170 . S
C104 C102 1.380 . S
C104 C105 1.170 . S
C105 C104 1.170 . S
C106 C107 1.170 . S
C106 C108 1.380 . S
C107 C106 1.170 . S
C108 C106 1.380 . S
C108 C109 1.170 . S
C109 C108 1.170 . S
C110 C111 1.170 . S
C110 C112 1.380 . S
C111 C110 1.170 . S
C112 C110 1.380 . S
C112 C113 1.170 . S
C113 C112 1.170 . S
C114 C115 1.170 . S
C114 C116 1.380 1_554 S
C115 C114 1.170 . S
C116 C114 1.380 1_556 S
C116 C117 1.170 . S
C117 C116 1.170 . S
C118 C119 1.170 . S
C118 C120 1.380 . S
C119 C118 1.170 . S
C120 C118 1.380 . S
C120 C121 1.170 . S
C121 C120 1.170 . S
C122 C123 1.170 . S
C122 C124 1.380 . S
C123 C122 1.170 . S
C124 C122 1.380 . S
C124 C125 1.170 . S
C125 C124 1.170 . S
C79 C1 1.494 . S
C81 C3 1.496 . S
C83 C16 1.485 . S
C85 C14 1.497 . S
C87 C27 1.492 . S
C89 C29 1.480 . S
C91 C40 1.484 . S
C93 C42 1.492 1_545 S
C95 C53 1.497 . S
C97 C55 1.485 . S
C99 C66 1.491 . S
C101 C68 1.478 . S
C103 C70 1.488 . S
C105 C5 1.493 . S
C107 C44 1.497 1_545 S
C109 C18 1.490 . S
C111 C31 1.487 . S
C113 C57 1.482 . S
C115 C10 1.497 . S
C117 C62 1.499 . S
C119 C75 1.498 . S
C121 C23 1.485 . S
C123 C49 1.498 . S
C125 C36 1.493 . S
