# Generated by pormake.
# Topology dmp, (4)-cn, num edge types: 1
# Building blocks:
#     Node 0, Type 0, BuildingBlock: NAHDIM_clean_sbu_0, # of connection points: 4
#     Node 1, Type 0, BuildingBlock: NAHDIM_clean_sbu_0, # of connection points: 4
#     Node 2, Type 0, BuildingBlock: NAHDIM_clean_sbu_0, # of connection points: 4
#     Node 3, Type 0, BuildingBlock: NAHDIM_clean_sbu_0, # of connection points: 4
#     Edge 4, Type (0, 0), None
#     Edge 5, Type (0, 0), None
#     Edge 6, Type (0, 0), None
#     Edge 7, Type (0, 0), None
#     Edge 8, Type (0, 0), None
#     Edge 9, Type (0, 0), None
#     Edge 10, Type (0, 0), None
#     Edge 11, Type (0, 0), None
# Relax obj value: 0.232
# Max RMSD: 0.265
# Mean RMSD: 0.265
data_MOF--net-dmp--node1-NAHDIM_clean_sbu_0--edge1-none
_symmetry_space_group_name_H-M    P1
_symmetry_Int_Tables_number       1
_symmetry_cell_setting            triclinic
loop_
_symmetry_equiv_pos_as_xyz
'x, y, z'
_cell_length_a     17.977764
_cell_length_b     8.3142424
_cell_length_c     8.1099633
_cell_angle_alpha  90.011507
_cell_angle_beta   90.001001
_cell_angle_gamma 96.108119
loop_
_atom_site_label
_atom_site_type_symbol
_atom_site_fract_x
_atom_site_fract_y
_atom_site_fract_z
_atom_type_partial_charge
C0 C -0.0112 0.433 0.4821 0.0
O1 O 0.0162 0.53035 0.36451 0.0
O2 O 0.03045 0.01828 0.19441 0.0
Zn3 Zn 0.07919 0.20621 0.32681 0.0
O4 O 0.1225 0.38895 0.1818 0.0
C5 C 0.17546 -0.01254 0.47333 0.0
O6 O 0.11702 0.8799 0.45511 0.0
O7 O 0.00708 0.28941 0.49012 0.0
C8 C 0.18841 0.3849 0.12637 0.0
O9 O 0.21855 0.24783 0.13088 0.0
C10 C -0.02049 0.03272 0.08884 0.0
O11 O 0.95651 0.17521 0.06237 0.0
O12 O 0.16912 0.13493 0.44279 0.0
C13 C 0.43716 0.48974 0.48225 0.0
O14 O 0.40893 0.39116 0.36644 0.0
O15 O 0.39509 0.90405 0.19284 0.0
Zn16 Zn 0.34686 0.71607 0.32585 0.0
O17 O 0.30358 0.5329 0.1813 0.0
C18 C 0.25066 0.93442 0.47323 0.0
O19 O 0.30907 0.04205 0.45517 0.0
O20 O 0.41938 0.63379 0.48882 0.0
C21 C 0.23764 0.53682 0.12601 0.0
O22 O 0.20745 0.67385 0.13028 0.0
C23 C 0.44684 0.89042 0.08907 0.0
O24 O 0.47106 0.74873 0.06485 0.0
O25 O 0.25697 0.78701 0.44226 0.0
C26 C 0.93734 0.49016 0.60385 0.0
O27 O 0.90995 0.39281 0.72144 0.0
O28 O 0.8957 0.90488 0.89154 0.0
Zn29 Zn 0.84695 0.71695 0.75914 0.0
O30 O 0.80364 0.53421 0.90415 0.0
C31 C 0.75069 0.9357 0.61262 0.0
O32 O 0.80913 0.04326 0.63084 0.0
O33 O 0.91906 0.63375 0.59583 0.0
C34 C 0.73773 0.53826 0.95958 0.0
O35 O 0.7076 0.67533 0.95507 0.0
C36 C 0.94663 0.89044 0.9971 0.0
O37 O -0.03037 0.74795 1.02358 0.0
O38 O 0.75702 0.78823 0.64316 0.0
C39 C 0.48898 0.43342 0.60369 0.0
O40 O 0.51721 0.532 0.71951 0.0
O41 O 0.53106 0.01911 0.89311 0.0
Zn42 Zn 0.57928 0.20709 0.7601 0.0
O43 O 0.62257 0.39026 0.90465 0.0
C44 C 0.67549 -0.01126 0.61272 0.0
O45 O 0.61707 0.88111 0.63078 0.0
O46 O 0.50677 0.28937 0.59713 0.0
C47 C 0.68851 0.38634 0.95994 0.0
O48 O 0.71869 0.24931 0.95567 0.0
C49 C 0.47931 0.03274 0.99688 0.0
O50 O 0.45509 0.17443 1.0211 0.0
O51 O 0.66918 0.13615 0.64368 0.0
loop_
_geom_bond_atom_site_label_1
_geom_bond_atom_site_label_2
_geom_bond_distance
_geom_bond_site_symmetry_2
_ccdc_geom_bond_type
C0 O1 1.167 . S
C0 O7 1.172 1_655 S
O1 C0 1.167 . S
O2 Zn3 1.899 . S
O2 C10 1.284 1_554 S
Zn3 O2 1.899 . S
Zn3 O4 2.032 . S
Zn3 O7 2.086 . S
Zn3 O12 1.977 . S
O4 Zn3 2.032 . S
O4 C8 1.278 . S
C5 O6 1.203 . S
C5 O12 1.267 1_565 S
O6 C5 1.203 . S
O7 C0 1.172 1_455 S
O7 Zn3 2.086 . S
C8 O4 1.278 . S
C8 O9 1.211 . S
O9 C8 1.211 . S
C10 O2 1.284 1_556 S
C10 O11 1.273 . S
O11 C10 1.273 . S
O12 Zn3 1.977 . S
O12 C5 1.267 1_545 S
C13 O14 1.160 . S
C13 O20 1.185 . S
O14 C13 1.160 . S
O15 Zn16 1.899 . S
O15 C23 1.284 1_554 S
Zn16 O15 1.899 . S
Zn16 O17 2.032 . S
Zn16 O20 2.086 . S
Zn16 O25 1.977 . S
O17 Zn16 2.032 . S
O17 C21 1.278 . S
C18 O19 1.203 . S
C18 O25 1.267 1_545 S
O19 C18 1.203 . S
O20 C13 1.185 . S
O20 Zn16 2.086 . S
C21 O17 1.278 . S
C21 O22 1.211 . S
O22 C21 1.211 . S
C23 O15 1.284 1_556 S
C23 O24 1.273 . S
O24 C23 1.273 . S
O25 Zn16 1.977 . S
O25 C18 1.267 1_565 S
C26 O27 1.167 . S
C26 O33 1.172 1_455 S
O27 C26 1.167 . S
O28 Zn29 1.899 . S
O28 C36 1.284 1_556 S
Zn29 O28 1.899 . S
Zn29 O30 2.032 . S
Zn29 O33 2.086 . S
Zn29 O38 1.977 . S
O30 Zn29 2.032 . S
O30 C34 1.278 . S
C31 O32 1.203 . S
C31 O38 1.267 1_545 S
O32 C31 1.203 . S
O33 C26 1.172 1_655 S
O33 Zn29 2.086 . S
C34 O30 1.278 . S
C34 O35 1.211 . S
O35 C34 1.211 . S
C36 O28 1.284 1_554 S
C36 O37 1.273 . S
O37 C36 1.273 . S
O38 Zn29 1.977 . S
O38 C31 1.267 1_565 S
C39 O40 1.160 . S
C39 O46 1.185 . S
O40 C39 1.160 . S
O41 Zn42 1.899 . S
O41 C49 1.284 1_556 S
Zn42 O41 1.899 . S
Zn42 O43 2.032 . S
Zn42 O46 2.086 . S
Zn42 O51 1.977 . S
O43 Zn42 2.032 . S
O43 C47 1.278 . S
C44 O45 1.203 . S
C44 O51 1.267 1_565 S
O45 C44 1.203 . S
O46 C39 1.185 . S
O46 Zn42 2.086 . S
C47 O43 1.278 . S
C47 O48 1.211 . S
O48 C47 1.211 . S
C49 O41 1.284 1_554 S
C49 O50 1.273 . S
O50 C49 1.273 . S
O51 Zn42 1.977 . S
O51 C44 1.267 1_545 S
C18 C5 1.488 1_545 S
C8 C21 0.813 . S
C44 C31 1.489 1_565 S
C34 C47 0.813 . S
C10 C36 2.270 1_446 S
C49 C23 2.270 1_544 S
C26 C0 1.981 1_455 S
C13 C39 1.977 . S
