# Generated by pormake.
# Topology unc, (4)-cn, num edge types: 1
# Building blocks:
#     Node 0, Type 0, BuildingBlock: CEKHIL_clean_sbu_0, # of connection points: 4
#     Node 1, Type 0, BuildingBlock: CEKHIL_clean_sbu_0, # of connection points: 4
#     Node 2, Type 0, BuildingBlock: CEKHIL_clean_sbu_0, # of connection points: 4
#     Node 3, Type 0, BuildingBlock: CEKHIL_clean_sbu_0, # of connection points: 4
#     Edge 4, Type (0, 0), BuildingBlock: KIFKEQ_clean_linker_1, # of connection points: 2
#     Edge 5, Type (0, 0), BuildingBlock: KIFKEQ_clean_linker_1, # of connection points: 2
#     Edge 6, Type (0, 0), BuildingBlock: KIFKEQ_clean_linker_1, # of connection points: 2
#     Edge 7, Type (0, 0), BuildingBlock: KIFKEQ_clean_linker_1, # of connection points: 2
#     Edge 8, Type (0, 0), BuildingBlock: KIFKEQ_clean_linker_1, # of connection points: 2
#     Edge 9, Type (0, 0), BuildingBlock: KIFKEQ_clean_linker_1, # of connection points: 2
#     Edge 10, Type (0, 0), BuildingBlock: KIFKEQ_clean_linker_1, # of connection points: 2
#     Edge 11, Type (0, 0), BuildingBlock: KIFKEQ_clean_linker_1, # of connection points: 2
# Relax obj value: 0.004
# Max RMSD: 0.040
# Mean RMSD: 0.040
data_MOF--net-unc--node1-CEKHIL_clean_sbu_0--edge1-KIFKEQ_clean_linker_1
_symmetry_space_group_name_H-M    P1
_symmetry_Int_Tables_number       1
_symmetry_cell_setting            triclinic
loop_
_symmetry_equiv_pos_as_xyz
'x, y, z'
_cell_length_a     30.104178
_cell_length_b     30.102612
_cell_length_c     22.244092
_cell_angle_alpha  90.006176
_cell_angle_beta   89.932396
_cell_angle_gamma 93.228386
loop_
_atom_site_label
_atom_site_type_symbol
_atom_site_fract_x
_atom_site_fract_y
_atom_site_fract_z
_atom_type_partial_charge
Co0 Co 0.01676 0.69215 0.96255 0.0
O1 O 0.00536 0.74031 0.90829 0.0
O2 O 0.9717 0.72887 0.99563 0.0
C3 C 0.01339 0.6387 0.89032 0.0
O4 O 0.01747 0.64522 0.02938 0.0
Co5 Co 0.09936 0.63673 0.95045 0.0
O6 O 0.06566 0.59411 1.00379 0.0
C7 C 0.10851 0.72589 1.00766 0.0
C8 C 0.9753 0.75186 0.94616 0.0
C9 C 0.03465 0.60736 0.03714 0.0
O10 O 0.06609 0.72944 1.00387 0.0
O11 O 0.12812 0.69283 0.98564 0.0
O12 O 0.9775 0.6523 0.91495 0.0
O13 O 0.05003 0.6597 0.90688 0.0
Co14 Co 0.34583 0.02103 0.30666 0.0
O15 O 0.29798 0.0329 0.36132 0.0
O16 O 0.3092 0.06616 0.27369 0.0
C17 C 0.39963 0.02439 0.37835 0.0
O18 O 0.39245 0.01982 0.23941 0.0
Co19 Co 0.40087 0.93814 0.31874 0.0
O20 O 0.44339 0.97142 0.26477 0.0
C21 C 0.31134 0.92919 0.26273 0.0
C22 C 0.2864 0.06286 0.32338 0.0
C23 C 0.43017 1.00239 0.23141 0.0
O24 O 0.30813 0.97169 0.26596 0.0
O25 O 0.34433 0.9095 0.28472 0.0
O26 O 0.38611 0.06028 0.35371 0.0
O27 O 0.37834 0.98781 0.36215 0.0
Co28 Co 0.02097 0.34732 0.46009 0.0
O29 O 0.03704 0.30238 0.40372 0.0
O30 O 0.0718 0.31636 0.48957 0.0
C31 C 0.01438 0.40171 0.39048 0.0
O32 O 0.01457 0.39247 0.5282 0.0
Co33 Co 0.9279 0.385 0.45065 0.0
O34 O 0.94879 0.42391 0.51806 0.0
C35 C 0.9359 0.29619 0.50237 0.0
C36 C 0.06882 0.29321 0.44008 0.0
C37 C 0.98569 0.42002 0.54508 0.0
O38 O 0.97854 0.3029 0.5025 0.0
O39 O 0.90982 0.32294 0.47771 0.0
O40 O 0.05295 0.39349 0.41261 0.0
O41 O 0.98189 0.37446 0.4068 0.0
Co42 Co 0.69072 0.01658 0.80853 0.0
O43 O 0.7355 1.00073 0.86517 0.0
O44 O 0.72206 0.96592 0.77919 0.0
C45 C 0.63598 0.02292 0.87781 0.0
O46 O 0.64584 0.02274 0.74013 0.0
Co47 Co 0.65256 0.10944 0.81776 0.0
O48 O 0.61416 0.08845 0.74992 0.0
C49 C 0.74164 0.10186 0.76658 0.0
C50 C 0.74498 0.96901 0.82882 0.0
C51 C 0.61831 0.05153 0.72299 0.0
O52 O 0.73513 0.0592 0.76643 0.0
O53 O 0.71465 0.12782 0.79106 0.0
O54 O 0.64449 0.98439 0.85568 0.0
O55 O 0.66315 0.05554 0.86168 0.0
H56 H 0.01429 0.6345 0.1508 0.0
H57 H 0.02643 0.51701 0.04211 0.0
H58 H 1.00341 0.58746 0.24058 0.0
H59 H 0.01399 0.4702 0.13124 0.0
H60 H 0.95051 0.40414 0.30355 0.0
H61 H 0.94817 0.45622 0.21886 0.0
H62 H 0.06442 0.52939 0.28787 0.0
H63 H 0.06777 0.47656 0.37139 0.0
C64 C 0.01347 0.59866 0.14589 0.0
C65 C 0.02121 0.57936 0.08955 0.0
C66 C 0.00749 0.57185 0.19719 0.0
C67 C 0.00782 0.5253 0.19262 0.0
C68 C 0.01329 0.50599 0.13584 0.0
C69 C 0.0205 0.53275 0.08496 0.0
C70 C 0.97516 0.43172 0.30109 0.0
C71 C 0.00945 0.43623 0.34389 0.0
C72 C 0.97385 0.46137 0.25263 0.0
C73 C 0.00604 0.49678 0.24708 0.0
C74 C 0.03902 0.50255 0.29145 0.0
C75 C 0.04102 0.47225 0.33901 0.0
H76 H 0.43012 0.09652 0.44225 0.0
H77 H 0.44753 0.95608 0.4215 0.0
H78 H 0.48408 0.10015 0.52287 0.0
H79 H 0.5042 0.95992 0.50045 0.0
H80 H 0.57014 0.97533 0.68867 0.0
H81 H 0.51885 0.96685 0.60338 0.0
H82 H 0.5577 0.10091 0.54641 0.0
H83 H 0.60587 0.10987 0.63341 0.0
C84 C 0.44618 0.06647 0.45428 0.0
C85 C 0.43462 0.02607 0.42533 0.0
C86 C 0.47762 0.06854 0.50047 0.0
C87 C 0.49939 0.03045 0.51834 0.0
C88 C 0.488 0.98993 0.48878 0.0
C89 C 0.45573 0.98772 0.44312 0.0
C90 C 0.56766 1.0027 0.65747 0.0
C91 C 0.59143 0.04343 0.66797 0.0
C92 C 0.53841 0.99791 0.60834 0.0
C93 C 0.53312 0.03349 0.56805 0.0
C94 C 0.55923 0.07323 0.57723 0.0
C95 C 0.58734 0.07831 0.6269 0.0
H96 H 0.94162 0.61021 0.82445 0.0
H97 H 0.08115 0.58953 0.8481 0.0
H98 H 0.93781 0.55654 0.74338 0.0
H99 H 0.07704 0.5331 0.76871 0.0
H100 H 0.06241 0.46684 0.58056 0.0
H101 H 0.07102 0.51836 0.66568 0.0
H102 H 0.93556 0.48288 0.71995 0.0
H103 H 0.92657 0.4345 0.63316 0.0
C104 C 0.97142 0.59348 0.81294 0.0
C105 C 0.01162 0.60401 0.84288 0.0
C106 C 0.96923 0.56222 0.7665 0.0
C107 C 0.00697 0.53956 0.74937 0.0
C108 C 0.04731 0.54998 0.77981 0.0
C109 C 0.04967 0.58212 0.82571 0.0
C110 C 0.03474 0.47014 0.61111 0.0
C111 C 0.99366 0.44724 0.59989 0.0
C112 C 0.03961 0.49952 0.66014 0.0
C113 C 1.00372 0.5058 0.69964 0.0
C114 C 0.96354 0.4806 0.68973 0.0
C115 C 0.95841 0.45236 0.64016 0.0
H116 H 0.52048 0.01108 0.22622 0.0
H117 H 0.40287 0.02181 0.11758 0.0
H118 H 0.56723 0.02343 0.13696 0.0
H119 H 0.44986 0.03257 0.02766 0.0
H120 H 0.56166 0.96879 0.89717 0.0
H121 H 0.5087 0.97188 0.98068 0.0
H122 H 0.5805 0.08919 0.04897 0.0
H123 H 0.6327 0.0871 0.96433 0.0
C124 C 0.50469 0.01666 0.18334 0.0
C125 C 0.45808 0.01562 0.17881 0.0
C126 C 0.53142 0.02382 0.13239 0.0
C127 C 0.51208 0.02889 0.07558 0.0
C128 C 0.4655 0.02881 0.07106 0.0
C129 C 0.43872 0.0229 0.12243 0.0
C130 C 0.56563 0.99571 0.92939 0.0
C131 C 0.60133 0.02766 0.92433 0.0
C132 C 0.53526 0.99755 0.97694 0.0
C133 C 0.54061 0.03076 0.02111 0.0
C134 C 0.57567 0.06332 0.01537 0.0
C135 C 0.6054 0.06215 0.96692 0.0
H136 H 0.2405 0.95635 0.19551 0.0
H137 H 0.30426 0.83855 0.25335 0.0
H138 H 0.18945 0.90995 0.1329 0.0
H139 H 0.25344 0.79283 0.19181 0.0
H140 H 0.19882 0.73049 0.02184 0.0
H141 H 0.24418 0.78127 0.08383 0.0
H142 H 0.1276 0.84961 0.13462 0.0
H143 H 0.08155 0.79856 0.07154 0.0
C144 C 0.24339 0.92066 0.19553 0.0
C145 C 0.27699 0.90142 0.22918 0.0
C146 C 0.21404 0.89406 0.15969 0.0
C147 C 0.2178 0.84771 0.15652 0.0
C148 C 0.25022 0.82849 0.192 0.0
C149 C 0.27931 0.85485 0.2277 0.0
C150 C 0.18256 0.75638 0.04578 0.0
C151 C 0.13623 0.75995 0.04183 0.0
C152 C 0.20871 0.78544 0.08178 0.0
C153 C 0.18951 0.81913 0.11508 0.0
C154 C 0.14346 0.82403 0.10955 0.0
C155 C 0.11707 0.79467 0.07346 0.0
H156 H 0.24131 0.06898 0.42948 0.0
H157 H 0.254 0.12864 0.25331 0.0
H158 H 0.1888 0.12405 0.45843 0.0
H159 H 0.20162 0.18397 0.28245 0.0
H160 H 0.07194 0.24646 0.33556 0.0
H161 H 0.12286 0.19005 0.30738 0.0
H162 H 0.18798 0.20475 0.47966 0.0
H163 H 0.13646 0.26136 0.50827 0.0
C164 C 0.23266 0.09365 0.39672 0.0
C165 C 0.25179 0.09427 0.33893 0.0
C166 C 0.20285 0.12551 0.41358 0.0
C167 C 0.19111 0.15864 0.37296 0.0
C168 C 0.20962 0.15873 0.31475 0.0
C169 C 0.2397 0.12703 0.29801 0.0
C170 C 0.09705 0.23772 0.36763 0.0
C171 C 0.10009 0.25852 0.42427 0.0
C172 C 0.12647 0.20549 0.35121 0.0
C173 C 0.15966 0.19289 0.39107 0.0
C174 C 0.16254 0.21339 0.44803 0.0
C175 C 0.13318 0.24598 0.46437 0.0
H176 H 0.77828 0.07161 0.66297 0.0
H177 H 0.78902 0.17975 0.79059 0.0
H178 H 0.8317 0.1123 0.59686 0.0
H179 H 0.8434 0.21957 0.7254 0.0
H180 H 0.96586 0.26058 0.6067 0.0
H181 H 0.92525 0.20724 0.673 0.0
H182 H 0.81887 0.19363 0.54346 0.0
H183 H 0.85859 0.24793 0.47808 0.0
C184 C 0.79299 0.10344 0.67767 0.0
C185 C 0.77943 0.12257 0.7319 0.0
C186 C 0.82333 0.12673 0.63973 0.0
C187 C 0.8416 0.16896 0.65618 0.0
C188 C 0.83004 0.1869 0.71195 0.0
C189 C 0.79886 0.16419 0.7491 0.0
C190 C 0.93426 0.24547 0.59184 0.0
C191 C 0.91533 0.25846 0.53726 0.0
C192 C 0.911 0.21517 0.62988 0.0
C193 C 0.86904 0.19639 0.61319 0.0
C194 C 0.85133 0.20739 0.55711 0.0
C195 C 0.87398 0.23853 0.51984 0.0
H196 H 0.77766 0.90177 0.76055 0.0
H197 H 0.79109 0.96588 0.93379 0.0
H198 H 0.83438 0.8505 0.78941 0.0
H199 H 0.84761 0.91521 0.96223 0.0
H200 H 0.96995 0.79754 0.84051 0.0
H201 H 0.91497 0.85006 0.81146 0.0
H202 H 0.85387 0.83637 0.98669 0.0
H203 H 0.9091 0.78397 0.01594 0.0
C204 C 0.79275 0.90501 0.80462 0.0
C205 C 0.77976 0.93791 0.8448 0.0
C206 C 0.82541 0.8758 0.8211 0.0
C207 C 0.84552 0.87864 0.87827 0.0
C208 C 0.83248 0.91164 0.91821 0.0
C209 C 0.80018 0.94092 0.90166 0.0
C210 C 0.94504 0.80601 0.8731 0.0
C211 C 0.94404 0.7866 0.93069 0.0
C212 C 0.91324 0.83583 0.85618 0.0
C213 C 0.8798 0.8473 0.89654 0.0
C214 C 0.87936 0.82857 0.95459 0.0
C215 C 0.911 0.79848 0.97139 0.0
loop_
_geom_bond_atom_site_label_1
_geom_bond_atom_site_label_2
_geom_bond_distance
_geom_bond_site_symmetry_2
_ccdc_geom_bond_type
Co0 O1 2.216 1_554 S
Co0 O2 2.091 . S
Co0 O4 2.004 . S
Co0 O10 2.021 1_655 S
Co0 O12 2.137 1_554 S
Co0 O13 2.244 1_654 S
O1 Co0 2.216 1_556 S
O1 C8 1.247 . S
O2 Co0 2.091 . S
O2 C8 1.261 1_554 S
C3 O12 1.247 1_455 S
C3 O13 1.272 . S
O4 Co0 2.004 . S
O4 C9 1.259 1_655 S
Co5 O6 2.061 . S
Co5 O11 2.052 . S
Co5 O13 2.135 1_554 S
O6 Co5 2.061 . S
O6 C9 1.235 . S
C7 O10 1.238 . S
C7 O11 1.241 . S
C8 O1 1.247 . S
C8 O2 1.261 1_556 S
C9 O4 1.259 1_455 S
C9 O6 1.235 . S
O10 Co0 2.021 1_455 S
O10 C7 1.238 . S
O11 Co5 2.052 . S
O11 C7 1.241 . S
O12 Co0 2.137 1_556 S
O12 C3 1.247 1_655 S
O13 Co0 2.244 1_456 S
O13 C3 1.272 . S
O13 Co5 2.135 1_556 S
Co14 O15 2.216 . S
Co14 O16 2.091 . S
Co14 O18 2.004 . S
Co14 O24 2.021 1_545 S
Co14 O26 2.137 . S
Co14 O27 2.244 1_545 S
O15 Co14 2.216 . S
O15 C22 1.247 . S
O16 Co14 2.091 . S
O16 C22 1.261 . S
C17 O26 1.247 . S
C17 O27 1.272 1_545 S
O18 Co14 2.004 . S
O18 C23 1.259 . S
Co19 O20 2.061 . S
Co19 O25 2.052 . S
Co19 O27 2.135 . S
O20 Co19 2.061 . S
O20 C23 1.235 1_565 S
C21 O24 1.238 . S
C21 O25 1.241 . S
C22 O15 1.247 . S
C22 O16 1.261 . S
C23 O18 1.259 . S
C23 O20 1.235 1_545 S
O24 Co14 2.021 1_565 S
O24 C21 1.238 . S
O25 Co19 2.052 . S
O25 C21 1.241 . S
O26 Co14 2.137 . S
O26 C17 1.247 . S
O27 Co14 2.244 1_565 S
O27 C17 1.272 1_565 S
O27 Co19 2.135 . S
Co28 O29 2.216 . S
Co28 O30 2.091 . S
Co28 O32 2.004 . S
Co28 O38 2.021 1_455 S
Co28 O40 2.137 . S
Co28 O41 2.244 1_455 S
O29 Co28 2.216 . S
O29 C36 1.247 . S
O30 Co28 2.091 . S
O30 C36 1.261 . S
C31 O40 1.247 . S
C31 O41 1.272 1_455 S
O32 Co28 2.004 . S
O32 C37 1.259 . S
Co33 O34 2.061 . S
Co33 O39 2.052 . S
Co33 O41 2.135 . S
O34 Co33 2.061 . S
O34 C37 1.235 1_655 S
C35 O38 1.238 . S
C35 O39 1.241 . S
C36 O29 1.247 . S
C36 O30 1.261 . S
C37 O32 1.259 . S
C37 O34 1.235 1_455 S
O38 Co28 2.021 1_655 S
O38 C35 1.238 . S
O39 Co33 2.052 . S
O39 C35 1.241 . S
O40 Co28 2.137 . S
O40 C31 1.247 . S
O41 Co28 2.244 1_655 S
O41 C31 1.272 1_655 S
O41 Co33 2.135 . S
Co42 O43 2.216 . S
Co42 O44 2.091 . S
Co42 O46 2.004 . S
Co42 O52 2.021 1_565 S
Co42 O54 2.137 . S
Co42 O55 2.244 1_565 S
O43 Co42 2.216 . S
O43 C50 1.247 . S
O44 Co42 2.091 . S
O44 C50 1.261 . S
C45 O54 1.247 1_545 S
C45 O55 1.272 . S
O46 Co42 2.004 . S
O46 C51 1.259 1_565 S
Co47 O48 2.061 . S
Co47 O53 2.052 . S
Co47 O55 2.135 . S
O48 Co47 2.061 . S
O48 C51 1.235 . S
C49 O52 1.238 . S
C49 O53 1.241 . S
C50 O43 1.247 . S
C50 O44 1.261 . S
C51 O46 1.259 1_545 S
C51 O48 1.235 . S
O52 Co42 2.021 1_545 S
O52 C49 1.238 . S
O53 Co47 2.052 . S
O53 C49 1.241 . S
O54 Co42 2.137 . S
O54 C45 1.247 1_565 S
O55 Co42 2.244 1_545 S
O55 C45 1.272 . S
O55 Co47 2.135 . S
H56 C64 0.950 . S
H57 C69 0.950 . S
H58 C66 0.950 . S
H59 C68 0.950 . S
H60 C70 0.950 . S
H61 C72 0.950 . S
H62 C74 0.950 . S
H63 C75 0.950 . S
C64 H56 0.950 . S
C64 C65 1.386 . S
C64 C66 1.391 . S
C65 C64 1.386 . S
C65 C69 1.393 1_455 S
C66 H58 0.950 . S
C66 C64 1.391 . S
C66 C67 1.400 . S
C67 C66 1.400 . S
C67 C68 1.398 1_455 S
C67 C73 1.491 . S
C68 H59 0.950 . S
C68 C67 1.398 1_655 S
C68 C69 1.391 . S
C69 H57 0.950 . S
C69 C65 1.393 1_655 S
C69 C68 1.391 . S
C70 H60 0.950 . S
C70 C71 1.386 1_655 S
C70 C72 1.391 . S
C71 C70 1.386 1_455 S
C71 C75 1.393 . S
C72 H61 0.950 . S
C72 C70 1.391 . S
C72 C73 1.400 1_655 S
C73 C67 1.491 . S
C73 C72 1.400 1_455 S
C73 C74 1.398 . S
C74 H62 0.950 . S
C74 C73 1.398 . S
C74 C75 1.391 . S
C75 H63 0.950 . S
C75 C71 1.393 . S
C75 C74 1.391 . S
H76 C84 0.950 . S
H77 C89 0.950 . S
H78 C86 0.950 . S
H79 C88 0.950 . S
H80 C90 0.950 . S
H81 C92 0.950 . S
H82 C94 0.950 . S
H83 C95 0.950 . S
C84 H76 0.950 . S
C84 C85 1.386 . S
C84 C86 1.391 . S
C85 C84 1.386 . S
C85 C89 1.393 1_545 S
C86 H78 0.950 . S
C86 C84 1.391 . S
C86 C87 1.400 . S
C87 C86 1.400 . S
C87 C88 1.398 1_545 S
C87 C93 1.491 . S
C88 H79 0.950 . S
C88 C87 1.398 1_565 S
C88 C89 1.391 . S
C89 H77 0.950 . S
C89 C85 1.393 1_565 S
C89 C88 1.391 . S
C90 H80 0.950 . S
C90 C91 1.386 1_565 S
C90 C92 1.391 . S
C91 C90 1.386 1_545 S
C91 C95 1.393 . S
C92 H81 0.950 . S
C92 C90 1.391 . S
C92 C93 1.400 1_565 S
C93 C87 1.491 . S
C93 C92 1.400 1_545 S
C93 C94 1.398 . S
C94 H82 0.950 . S
C94 C93 1.398 . S
C94 C95 1.391 . S
C95 H83 0.950 . S
C95 C91 1.393 . S
C95 C94 1.391 . S
H96 C104 0.950 . S
H97 C109 0.950 . S
H98 C106 0.950 . S
H99 C108 0.950 . S
H100 C110 0.950 . S
H101 C112 0.950 . S
H102 C114 0.950 . S
H103 C115 0.950 . S
C104 H96 0.950 . S
C104 C105 1.386 1_655 S
C104 C106 1.391 . S
C105 C104 1.386 1_455 S
C105 C109 1.393 . S
C106 H98 0.950 . S
C106 C104 1.391 . S
C106 C107 1.400 1_655 S
C107 C106 1.400 1_455 S
C107 C108 1.398 . S
C107 C113 1.491 . S
C108 H99 0.950 . S
C108 C107 1.398 . S
C108 C109 1.391 . S
C109 H97 0.950 . S
C109 C105 1.393 . S
C109 C108 1.391 . S
C110 H100 0.950 . S
C110 C111 1.386 . S
C110 C112 1.391 . S
C111 C110 1.386 . S
C111 C115 1.393 1_455 S
C112 H101 0.950 . S
C112 C110 1.391 . S
C112 C113 1.400 . S
C113 C107 1.491 . S
C113 C112 1.400 . S
C113 C114 1.398 1_455 S
C114 H102 0.950 . S
C114 C113 1.398 1_655 S
C114 C115 1.391 . S
C115 H103 0.950 . S
C115 C111 1.393 1_655 S
C115 C114 1.391 . S
H116 C124 0.950 . S
H117 C129 0.950 . S
H118 C126 0.950 . S
H119 C128 0.950 . S
H120 C130 0.950 . S
H121 C132 0.950 . S
H122 C134 0.950 . S
H123 C135 0.950 . S
C124 H116 0.950 . S
C124 C125 1.386 . S
C124 C126 1.391 . S
C125 C124 1.386 . S
C125 C129 1.393 1_545 S
C126 H118 0.950 . S
C126 C124 1.391 . S
C126 C127 1.400 . S
C127 C126 1.400 . S
C127 C128 1.398 1_545 S
C127 C133 1.491 1_554 S
C128 H119 0.950 . S
C128 C127 1.398 1_565 S
C128 C129 1.391 . S
C129 H117 0.950 . S
C129 C125 1.393 1_565 S
C129 C128 1.391 . S
C130 H120 0.950 . S
C130 C131 1.386 1_565 S
C130 C132 1.391 . S
C131 C130 1.386 1_545 S
C131 C135 1.393 . S
C132 H121 0.950 . S
C132 C130 1.391 . S
C132 C133 1.400 1_565 S
C133 C127 1.491 1_556 S
C133 C132 1.400 1_545 S
C133 C134 1.398 . S
C134 H122 0.950 . S
C134 C133 1.398 . S
C134 C135 1.391 . S
C135 H123 0.950 . S
C135 C131 1.393 . S
C135 C134 1.391 . S
H136 C144 0.950 . S
H137 C149 0.950 . S
H138 C146 0.950 . S
H139 C148 0.950 . S
H140 C150 0.950 . S
H141 C152 0.950 . S
H142 C154 0.950 . S
H143 C155 0.950 . S
C144 H136 0.950 . S
C144 C145 1.386 . S
C144 C146 1.391 . S
C145 C144 1.386 . S
C145 C149 1.393 . S
C146 H138 0.950 . S
C146 C144 1.391 . S
C146 C147 1.400 . S
C147 C146 1.400 . S
C147 C148 1.398 . S
C147 C153 1.491 . S
C148 H139 0.950 . S
C148 C147 1.398 . S
C148 C149 1.391 . S
C149 H137 0.950 . S
C149 C145 1.393 . S
C149 C148 1.391 . S
C150 H140 0.950 . S
C150 C151 1.386 . S
C150 C152 1.391 . S
C151 C150 1.386 . S
C151 C155 1.393 . S
C152 H141 0.950 . S
C152 C150 1.391 . S
C152 C153 1.400 . S
C153 C147 1.491 . S
C153 C152 1.400 . S
C153 C154 1.398 . S
C154 H142 0.950 . S
C154 C153 1.398 . S
C154 C155 1.391 . S
C155 H143 0.950 . S
C155 C151 1.393 . S
C155 C154 1.391 . S
H156 C164 0.950 . S
H157 C169 0.950 . S
H158 C166 0.950 . S
H159 C168 0.950 . S
H160 C170 0.950 . S
H161 C172 0.950 . S
H162 C174 0.950 . S
H163 C175 0.950 . S
C164 H156 0.950 . S
C164 C165 1.386 . S
C164 C166 1.391 . S
C165 C164 1.386 . S
C165 C169 1.393 . S
C166 H158 0.950 . S
C166 C164 1.391 . S
C166 C167 1.400 . S
C167 C166 1.400 . S
C167 C168 1.398 . S
C167 C173 1.491 . S
C168 H159 0.950 . S
C168 C167 1.398 . S
C168 C169 1.391 . S
C169 H157 0.950 . S
C169 C165 1.393 . S
C169 C168 1.391 . S
C170 H160 0.950 . S
C170 C171 1.386 . S
C170 C172 1.391 . S
C171 C170 1.386 . S
C171 C175 1.393 . S
C172 H161 0.950 . S
C172 C170 1.391 . S
C172 C173 1.400 . S
C173 C167 1.491 . S
C173 C172 1.400 . S
C173 C174 1.398 . S
C174 H162 0.950 . S
C174 C173 1.398 . S
C174 C175 1.391 . S
C175 H163 0.950 . S
C175 C171 1.393 . S
C175 C174 1.391 . S
H176 C184 0.950 . S
H177 C189 0.950 . S
H178 C186 0.950 . S
H179 C188 0.950 . S
H180 C190 0.950 . S
H181 C192 0.950 . S
H182 C194 0.950 . S
H183 C195 0.950 . S
C184 H176 0.950 . S
C184 C185 1.386 . S
C184 C186 1.391 . S
C185 C184 1.386 . S
C185 C189 1.393 . S
C186 H178 0.950 . S
C186 C184 1.391 . S
C186 C187 1.400 . S
C187 C186 1.400 . S
C187 C188 1.398 . S
C187 C193 1.491 . S
C188 H179 0.950 . S
C188 C187 1.398 . S
C188 C189 1.391 . S
C189 H177 0.950 . S
C189 C185 1.393 . S
C189 C188 1.391 . S
C190 H180 0.950 . S
C190 C191 1.386 . S
C190 C192 1.391 . S
C191 C190 1.386 . S
C191 C195 1.393 . S
C192 H181 0.950 . S
C192 C190 1.391 . S
C192 C193 1.400 . S
C193 C187 1.491 . S
C193 C192 1.400 . S
C193 C194 1.398 . S
C194 H182 0.950 . S
C194 C193 1.398 . S
C194 C195 1.391 . S
C195 H183 0.950 . S
C195 C191 1.393 . S
C195 C194 1.391 . S
H196 C204 0.950 . S
H197 C209 0.950 . S
H198 C206 0.950 . S
H199 C208 0.950 . S
H200 C210 0.950 . S
H201 C212 0.950 . S
H202 C214 0.950 . S
H203 C215 0.950 . S
C204 H196 0.950 . S
C204 C205 1.386 . S
C204 C206 1.391 . S
C205 C204 1.386 . S
C205 C209 1.393 . S
C206 H198 0.950 . S
C206 C204 1.391 . S
C206 C207 1.400 . S
C207 C206 1.400 . S
C207 C208 1.398 . S
C207 C213 1.491 . S
C208 H199 0.950 . S
C208 C207 1.398 . S
C208 C209 1.391 . S
C209 H197 0.950 . S
C209 C205 1.393 . S
C209 C208 1.391 . S
C210 H200 0.950 . S
C210 C211 1.386 . S
C210 C212 1.391 . S
C211 C210 1.386 . S
C211 C215 1.393 . S
C212 H201 0.950 . S
C212 C210 1.391 . S
C212 C213 1.400 . S
C213 C207 1.491 . S
C213 C212 1.400 . S
C213 C214 1.398 . S
C214 H202 0.950 . S
C214 C213 1.398 . S
C214 C215 1.391 . S
C215 H203 0.950 . S
C215 C211 1.393 . S
C215 C214 1.391 . S
C65 C9 1.406 . S
C71 C31 1.416 . S
C85 C17 1.416 . S
C91 C51 1.407 . S
C105 C3 1.417 . S
C111 C37 1.406 . S
C125 C23 1.395 . S
C131 C45 1.416 . S
C145 C21 1.457 . S
C151 C7 1.471 . S
C165 C22 1.486 . S
C171 C36 1.488 . S
C185 C49 1.457 . S
C191 C35 1.470 . S
C205 C50 1.489 . S
C211 C8 1.488 . S
