# Generated by pormake.
# Topology pcu, (6)-cn, num edge types: 1
# Building blocks:
#     Node 0, Type 0, BuildingBlock: GEDQOX_clean_sbu_0, # of connection points: 6
#     Edge 1, Type (0, 0), BuildingBlock: OJICUG_clean_linker_0, # of connection points: 2
#     Edge 2, Type (0, 0), BuildingBlock: OJICUG_clean_linker_0, # of connection points: 2
#     Edge 3, Type (0, 0), BuildingBlock: OJICUG_clean_linker_0, # of connection points: 2
# Relax obj value: 0.000
# Max RMSD: 0.000
# Mean RMSD: 0.000
data_MOF--net-pcu--node1-GEDQOX_clean_sbu_0--edge1-OJICUG_clean_linker_0
_symmetry_space_group_name_H-M    P1
_symmetry_Int_Tables_number       1
_symmetry_cell_setting            triclinic
loop_
_symmetry_equiv_pos_as_xyz
'x, y, z'
_cell_length_a     11.536777
_cell_length_b     21.08867
_cell_length_c     10.381898
_cell_angle_alpha  81.935694
_cell_angle_beta   93.578124
_cell_angle_gamma 122.4241
loop_
_atom_site_label
_atom_site_type_symbol
_atom_site_fract_x
_atom_site_fract_y
_atom_site_fract_z
_atom_type_partial_charge
Nd0 Nd 0.09448 0.10312 0.02724 0.0
Nd1 Nd 0.92017 0.933 1.01782 0.0
C2 C 0.20389 0.24374 0.07848 0.0
C3 C 0.16323 0.29958 0.07119 0.0
C4 C 0.03096 0.27806 0.1091 0.0
C5 C 0.99315 0.33146 0.09807 0.0
C6 C 0.08692 0.4075 0.0489 0.0
C7 C 0.21966 0.42884 1.01187 0.0
C8 C 0.25729 0.37535 0.02294 0.0
C9 C 0.05463 0.06113 0.78201 0.0
C10 C 0.75574 1.01592 1.01651 0.0
C11 C 0.81045 0.79221 0.96734 0.0
C12 C 0.85113 0.73638 0.97451 0.0
C13 C 0.98339 0.75792 0.93654 0.0
C14 C 0.02124 0.70454 0.94752 0.0
C15 C 0.9275 0.62849 0.9967 0.0
C16 C 0.79477 0.60714 0.03377 0.0
C17 C 0.7571 0.66061 0.02274 0.0
C18 C 0.96013 0.97542 0.26289 0.0
C19 C 0.2589 0.02022 0.02809 0.0
O20 O 0.14132 0.18426 0.16621 0.0
O21 O 0.22132 0.22726 0.96737 0.0
O22 O 0.16971 0.1168 0.81934 0.0
O23 O 0.96395 0.03203 0.87062 0.0
O24 O 0.87265 0.07408 0.05202 0.0
O25 O 0.75004 0.95714 0.97876 0.0
O26 O 0.87252 0.85152 0.87923 0.0
O27 O 0.79373 0.80892 0.07849 0.0
O28 O 0.84486 0.91987 0.22558 0.0
O29 O 0.05074 1.00401 0.17435 0.0
O30 O 0.14197 0.96206 0.99262 0.0
O31 O 0.26462 0.07897 0.066 0.0
H32 H 0.95659 0.21992 0.14662 0.0
H33 H 0.88967 0.31288 0.12606 0.0
H34 H 0.295 0.48706 0.97534 0.0
H35 H 0.35998 0.39315 0.99342 0.0
H36 H 0.05773 0.81607 0.89902 0.0
H37 H 0.12472 0.72314 0.91949 0.0
H38 H 0.71945 0.54891 0.0703 0.0
H39 H 0.65442 0.64279 0.05232 0.0
C40 C 0.11486 0.05556 0.43041 0.0
C41 C 0.98458 0.99756 0.39546 0.0
H42 H 0.23904 0.12102 0.58062 0.0
C43 C 0.8774 0.96053 0.48857 0.0
H44 H 0.19934 0.085 0.36061 0.0
C45 C 0.90006 0.98106 0.61441 0.0
C46 C 0.03032 0.03907 0.64938 0.0
H47 H 0.77587 0.91562 0.46424 0.0
H48 H 0.81556 0.9516 0.68421 0.0
C49 C 0.13751 0.07612 0.55626 0.0
C50 C 0.51254 0.08082 0.05911 0.0
C51 C 0.38592 0.01899 0.02577 0.0
H52 H 0.72807 0.1285 0.08184 0.0
C53 C 0.38216 0.95627 0.98885 0.0
H54 H 0.51942 0.13017 0.08775 0.0
C55 C 0.50212 0.95534 0.98534 0.0
C56 C 0.62873 1.01716 1.01871 0.0
H57 H 0.28658 0.90766 0.9626 0.0
H58 H 0.49524 0.90599 0.95671 0.0
C59 C 0.6325 0.07989 0.0556 0.0
C60 C 0.04803 0.57203 0.91268 0.0
C61 C 0.96823 0.57181 1.00996 0.0
H62 H 0.14613 0.51992 0.84761 0.0
C63 C 0.92794 0.51712 0.12025 0.0
H64 H 0.07906 0.6126 0.82557 0.0
C65 C 0.96645 0.46398 0.13293 0.0
C66 C 0.04624 0.4642 0.03565 0.0
H67 H 0.86835 0.51609 0.198 0.0
H68 H 0.93542 0.42341 0.22004 0.0
C69 C 0.08654 0.51889 0.92536 0.0
loop_
_geom_bond_atom_site_label_1
_geom_bond_atom_site_label_2
_geom_bond_distance
_geom_bond_site_symmetry_2
_ccdc_geom_bond_type
Nd0 C2 2.836 . S
Nd0 O20 2.500 1_556 S
Nd0 O21 2.492 . S
Nd0 O22 2.487 . S
Nd0 O23 2.682 1_445 S
Nd0 O24 2.410 1_455 S
Nd0 O29 2.414 1_556 S
Nd0 O31 2.424 . S
Nd1 C11 2.836 . S
Nd1 O23 2.414 1_554 S
Nd1 O25 2.424 . S
Nd1 O26 2.500 1_554 S
Nd1 O27 2.492 . S
Nd1 O28 2.487 . S
Nd1 O29 2.682 1_665 S
Nd1 O30 2.410 1_655 S
C2 Nd0 2.836 . S
C2 C3 1.498 . S
C2 O20 1.258 1_556 S
C2 O21 1.239 . S
C3 C2 1.498 . S
C3 C4 1.366 1_456 S
C3 C8 1.407 . S
C4 C3 1.366 1_654 S
C4 C5 1.392 . S
C4 H32 0.930 . S
C5 C4 1.392 . S
C5 C6 1.398 1_654 S
C5 H33 0.929 . S
C6 C5 1.398 1_456 S
C6 C7 1.352 . S
C7 C6 1.352 . S
C7 C8 1.384 . S
C7 H34 0.930 . S
C8 C3 1.407 . S
C8 C7 1.384 . S
C8 H35 0.929 . S
C9 O22 1.241 . S
C9 O23 1.273 1_445 S
C10 O24 1.251 1_565 S
C10 O25 1.268 1_556 S
C11 Nd1 2.836 . S
C11 C12 1.498 . S
C11 O26 1.258 1_554 S
C11 O27 1.239 . S
C12 C11 1.498 . S
C12 C13 1.366 1_654 S
C12 C17 1.407 . S
C13 C12 1.366 1_456 S
C13 C14 1.392 . S
C13 H36 0.930 . S
C14 C13 1.392 . S
C14 C15 1.398 1_456 S
C14 H37 0.929 . S
C15 C14 1.398 1_654 S
C15 C16 1.352 . S
C16 C15 1.352 . S
C16 C17 1.384 . S
C16 H38 0.930 . S
C17 C12 1.407 . S
C17 C16 1.384 . S
C17 H39 0.929 . S
C18 O28 1.241 . S
C18 O29 1.273 1_665 S
C19 O30 1.251 1_545 S
C19 O31 1.268 1_554 S
O20 Nd0 2.500 1_554 S
O20 C2 1.258 1_554 S
O21 Nd0 2.492 . S
O21 C2 1.239 . S
O22 Nd0 2.487 . S
O22 C9 1.241 . S
O23 Nd0 2.682 1_665 S
O23 Nd1 2.414 1_556 S
O23 C9 1.273 1_665 S
O24 Nd0 2.410 1_655 S
O24 C10 1.251 1_545 S
O25 Nd1 2.424 . S
O25 C10 1.268 1_554 S
O26 Nd1 2.500 1_556 S
O26 C11 1.258 1_556 S
O27 Nd1 2.492 . S
O27 C11 1.239 . S
O28 Nd1 2.487 . S
O28 C18 1.241 . S
O29 Nd0 2.414 1_554 S
O29 Nd1 2.682 1_445 S
O29 C18 1.273 1_445 S
O30 Nd1 2.410 1_455 S
O30 C19 1.251 1_565 S
O31 Nd0 2.424 . S
O31 C19 1.268 1_556 S
H32 C4 0.930 . S
H33 C5 0.929 . S
H34 C7 0.930 . S
H35 C8 0.929 . S
H36 C13 0.930 . S
H37 C14 0.929 . S
H38 C16 0.930 . S
H39 C17 0.929 . S
C40 C41 1.387 . S
C40 H44 0.950 . S
C40 C49 1.390 . S
C41 C40 1.387 . S
C41 C43 1.387 1_445 S
H42 C49 0.950 . S
C43 C41 1.387 1_665 S
C43 C45 1.390 . S
C43 H47 0.950 . S
H44 C40 0.950 . S
C45 C43 1.390 . S
C45 C46 1.387 1_565 S
C45 H48 0.950 . S
C46 C45 1.387 1_545 S
C46 C49 1.388 1_655 S
H47 C43 0.950 . S
H48 C45 0.950 . S
C49 C40 1.390 . S
C49 H42 0.950 . S
C49 C46 1.388 1_455 S
C50 C51 1.385 1_565 S
C50 H54 0.950 . S
C50 C59 1.390 . S
C51 C50 1.385 1_545 S
C51 C53 1.385 1_554 S
H52 C59 0.950 . S
C53 C51 1.385 1_556 S
C53 C55 1.390 . S
C53 H57 0.950 . S
H54 C50 0.950 . S
C55 C53 1.390 . S
C55 C56 1.387 1_546 S
C55 H58 0.950 . S
C56 C55 1.387 1_564 S
C56 C59 1.386 . S
H57 C53 0.950 . S
H58 C55 0.950 . S
C59 C50 1.390 . S
C59 H52 0.950 . S
C59 C56 1.386 . S
C60 C61 1.386 1_556 S
C60 H64 0.950 . S
C60 C69 1.390 . S
C61 C60 1.386 1_554 S
C61 C63 1.386 1_655 S
H62 C69 0.950 . S
C63 C61 1.386 1_455 S
C63 C65 1.390 . S
C63 H67 0.950 . S
H64 C60 0.950 . S
C65 C63 1.390 . S
C65 C66 1.385 . S
C65 H68 0.950 . S
C66 C65 1.385 . S
C66 C69 1.385 1_454 S
H67 C63 0.950 . S
H68 C65 0.950 . S
C69 C60 1.390 . S
C69 H62 0.950 . S
C69 C66 1.385 1_656 S
C41 C18 1.453 1_445 S
C46 C9 1.453 1_655 S
C51 C19 1.496 . S
C56 C10 1.493 1_554 S
C61 C15 1.501 . S
C66 C6 1.503 1_554 S
