# Generated by pormake.
# Topology lcy, (6)-cn, num edge types: 1
# Building blocks:
#     Node 0, Type 0, BuildingBlock: MIDCAF_clean_sbu_0, # of connection points: 6
#     Node 1, Type 0, BuildingBlock: MIDCAF_clean_sbu_0, # of connection points: 6
#     Node 2, Type 0, BuildingBlock: MIDCAF_clean_sbu_0, # of connection points: 6
#     Node 3, Type 0, BuildingBlock: MIDCAF_clean_sbu_0, # of connection points: 6
#     Edge 4, Type (0, 0), None
#     Edge 5, Type (0, 0), None
#     Edge 6, Type (0, 0), None
#     Edge 7, Type (0, 0), None
#     Edge 8, Type (0, 0), None
#     Edge 9, Type (0, 0), None
#     Edge 10, Type (0, 0), None
#     Edge 11, Type (0, 0), None
#     Edge 12, Type (0, 0), None
#     Edge 13, Type (0, 0), None
#     Edge 14, Type (0, 0), None
#     Edge 15, Type (0, 0), None
# Relax obj value: 0.077
# Max RMSD: 0.123
# Mean RMSD: 0.122
data_MOF--net-lcy--node1-MIDCAF_clean_sbu_0--edge1-none
_symmetry_space_group_name_H-M    P1
_symmetry_Int_Tables_number       1
_symmetry_cell_setting            triclinic
loop_
_symmetry_equiv_pos_as_xyz
'x, y, z'
_cell_length_a     11.451159
_cell_length_b     11.454028
_cell_length_c     13.1045
_cell_angle_alpha  90.117443
_cell_angle_beta   90.124793
_cell_angle_gamma 88.631446
loop_
_atom_site_label
_atom_site_type_symbol
_atom_site_fract_x
_atom_site_fract_y
_atom_site_fract_z
_atom_type_partial_charge
Zn0 Zn 0.24053 0.26998 0.22689 0.0
Zn1 Zn 0.50029 0.52906 0.40631 0.0
Zn2 Zn 0.36779 0.40233 0.31658 0.0
C3 C 0.31433 0.49107 0.53309 0.0
C4 C 0.44901 0.66731 0.25508 0.0
O5 O 0.46441 0.24039 0.27116 0.0
O6 O 0.32492 0.11623 0.24229 0.0
C7 C 0.10266 0.32149 0.3784 0.0
O8 O 0.27146 0.44808 0.45158 0.0
O9 O 0.42199 0.51086 0.53855 0.0
O10 O 0.47932 0.68753 0.3456 0.0
O11 O 0.40932 0.56586 0.2325 0.0
O12 O 0.08228 0.29073 0.28803 0.0
O13 O 0.20416 0.36127 0.40071 0.0
O14 O 0.32237 0.49879 0.18159 0.0
O15 O 0.25804 0.34878 0.09485 0.0
C16 C 0.2787 0.45623 0.10023 0.0
O17 O 0.52964 0.30554 0.36223 0.0
O18 O 0.65412 0.44488 0.39041 0.0
C19 C 0.43241 0.13748 0.24488 0.0
C20 C 0.63267 0.33745 0.38828 0.0
Zn21 Zn 0.78529 0.26904 0.65444 0.0
Zn22 Zn 0.02401 0.03238 0.47995 0.0
Zn23 Zn 0.86368 0.10964 0.56697 0.0
C24 C 0.04418 0.25485 0.45666 0.0
C25 C 0.86129 0.9705 0.3583 0.0
O26 O 0.72597 0.0686 0.68264 0.0
O27 O 0.77099 0.20216 0.79518 0.0
C28 C 0.00794 0.29085 0.67809 0.0
O29 O 0.9323 0.24126 0.45757 0.0
O30 O 0.10936 0.17982 0.50093 0.0
O31 O 0.95691 0.01717 0.33903 0.0
O32 O 0.82372 0.97135 0.45102 0.0
O33 O 0.93203 0.35547 0.63428 0.0
O34 O 0.99513 0.17891 0.67686 0.0
O35 O 0.80707 0.24187 0.45494 0.0
O36 O 0.65247 0.25938 0.55004 0.0
C37 C 0.69747 0.26563 0.4625 0.0
O38 O 0.99564 0.054 0.67978 0.0
O39 O 0.01538 0.89979 0.58399 0.0
C40 C 0.72504 0.10619 0.7755 0.0
C41 C 0.02041 0.94464 0.67185 0.0
Zn42 Zn 0.28172 0.74713 0.72744 0.0
Zn43 Zn 0.0234 0.48952 0.90571 0.0
Zn44 Zn 0.15575 0.61498 0.81658 0.0
C45 C 0.20795 0.52915 0.0338 0.0
C46 C 0.07591 0.34991 0.75555 0.0
O47 O 0.0593 0.7769 0.77149 0.0
O48 O 0.19895 0.90144 0.74573 0.0
C49 C 0.42094 0.69454 0.878 0.0
O50 O 0.25179 0.56948 -0.04805 0.0
O51 O 0.09983 0.51175 0.03889 0.0
O52 O 0.04669 0.33022 0.84627 0.0
O53 O 0.11466 0.45139 0.73246 0.0
O54 O 0.4408 0.724 0.78737 0.0
O55 O 0.3194 0.65569 0.90075 0.0
O56 O 0.20093 0.51882 0.68122 0.0
O57 O 0.26015 0.67028 0.59442 0.0
C58 C 0.24191 0.56235 0.5995 0.0
O59 O 0.99392 0.71156 0.86191 0.0
O60 O 0.86905 0.57214 0.88693 0.0
C61 C 0.09147 0.88005 0.74672 0.0
C62 C 0.89064 0.67956 0.88651 0.0
Zn63 Zn 0.73865 0.7465 0.15365 0.0
Zn64 Zn 0.50133 0.98464 -0.02087 0.0
Zn65 Zn 0.66089 0.90668 0.06681 0.0
C66 C 0.5045 0.07267 0.1709 0.0
C67 C 0.47992 0.76214 -0.04426 0.0
O68 O 0.71668 0.77507 -0.04623 0.0
O69 O 0.8711 0.75523 0.04942 0.0
C70 C 0.8003 0.90933 0.27531 0.0
O71 O 0.52832 0.96311 0.1786 0.0
O72 O 0.51093 0.11757 0.08334 0.0
O73 O 0.41514 0.83784 -0.00037 0.0
O74 O 0.59184 0.77516 -0.04308 0.0
O75 O 0.75396 0.81357 0.29457 0.0
O76 O 0.79925 0.94694 0.1826 0.0
O77 O 0.52936 0.83781 0.1762 0.0
O78 O 0.59129 0.66089 0.133 0.0
C79 C 0.51603 0.72592 0.17714 0.0
O80 O 0.70165 0.04431 -0.04903 0.0
O81 O 0.56823 0.99884 0.83839 0.0
C82 C 0.82609 0.75034 -0.03839 0.0
C83 C 0.66408 0.04509 0.8581 0.0
loop_
_geom_bond_atom_site_label_1
_geom_bond_atom_site_label_2
_geom_bond_distance
_geom_bond_site_symmetry_2
_ccdc_geom_bond_type
Zn0 O6 1.920 . S
Zn0 O12 1.898 . S
Zn0 O15 1.905 . S
Zn1 O9 1.905 . S
Zn1 O10 1.898 . S
Zn1 O18 1.920 . S
Zn2 O5 2.080 . S
Zn2 O8 2.114 . S
Zn2 O11 2.120 . S
Zn2 O13 2.120 . S
Zn2 O14 2.114 . S
Zn2 O17 2.080 . S
C3 O8 1.166 . S
C3 O9 1.182 . S
C4 O10 1.167 . S
C4 O11 1.299 . S
O5 Zn2 2.080 . S
O5 C19 1.305 . S
O6 Zn0 1.920 . S
O6 C19 1.234 . S
C7 O12 1.167 . S
C7 O13 1.299 . S
O8 Zn2 2.114 . S
O8 C3 1.166 . S
O9 Zn1 1.905 . S
O9 C3 1.182 . S
O10 Zn1 1.898 . S
O10 C4 1.167 . S
O11 Zn2 2.120 . S
O11 C4 1.299 . S
O12 Zn0 1.898 . S
O12 C7 1.167 . S
O13 Zn2 2.120 . S
O13 C7 1.299 . S
O14 Zn2 2.114 . S
O14 C16 1.166 . S
O15 Zn0 1.905 . S
O15 C16 1.182 . S
C16 O14 1.166 . S
C16 O15 1.182 . S
O17 Zn2 2.080 . S
O17 C20 1.305 . S
O18 Zn1 1.920 . S
O18 C20 1.234 . S
C19 O5 1.305 . S
C19 O6 1.234 . S
C20 O17 1.305 . S
C20 O18 1.234 . S
Zn21 O27 1.920 . S
Zn21 O33 1.898 . S
Zn21 O36 1.905 . S
Zn22 O30 1.905 1_565 S
Zn22 O31 1.898 1_455 S
Zn22 O39 1.920 . S
Zn23 O26 2.080 . S
Zn23 O29 2.114 . S
Zn23 O32 2.114 1_545 S
Zn23 O34 2.120 . S
Zn23 O35 2.114 . S
Zn23 O38 2.080 1_655 S
C24 O29 1.166 1_455 S
C24 O30 1.182 . S
C25 O31 1.167 . S
C25 O32 1.301 . S
O26 Zn23 2.080 . S
O26 C40 1.305 . S
O27 Zn21 1.920 . S
O27 C40 1.234 . S
C28 O33 1.167 . S
C28 O34 1.299 . S
O29 Zn23 2.114 . S
O29 C24 1.166 1_655 S
O30 Zn22 1.905 1_545 S
O30 C24 1.182 . S
O31 Zn22 1.898 1_655 S
O31 C25 1.167 . S
O32 Zn23 2.114 1_565 S
O32 C25 1.301 . S
O33 Zn21 1.898 . S
O33 C28 1.167 . S
O34 Zn23 2.120 . S
O34 C28 1.299 . S
O35 Zn23 2.114 . S
O35 C37 1.166 . S
O36 Zn21 1.905 . S
O36 C37 1.182 . S
C37 O35 1.166 . S
C37 O36 1.182 . S
O38 Zn23 2.080 1_455 S
O38 C41 1.305 1_545 S
O39 Zn22 1.920 . S
O39 C41 1.234 . S
C40 O26 1.305 . S
C40 O27 1.234 . S
C41 O38 1.305 1_565 S
C41 O39 1.234 . S
Zn42 O48 1.920 . S
Zn42 O54 1.898 . S
Zn42 O57 1.905 . S
Zn43 O51 1.905 1_655 S
Zn43 O52 1.898 1_554 S
Zn43 O60 1.920 . S
Zn44 O47 2.080 . S
Zn44 O50 2.114 . S
Zn44 O53 2.120 . S
Zn44 O55 2.120 . S
Zn44 O56 2.114 . S
Zn44 O59 2.080 1_556 S
C45 O50 1.166 1_554 S
C45 O51 1.182 . S
C46 O52 1.167 . S
C46 O53 1.299 1_655 S
O47 Zn44 2.080 . S
O47 C61 1.305 . S
O48 Zn42 1.920 . S
O48 C61 1.234 . S
C49 O54 1.167 . S
C49 O55 1.299 . S
O50 Zn44 2.114 . S
O50 C45 1.166 1_556 S
O51 Zn43 1.905 1_455 S
O51 C45 1.182 . S
O52 Zn43 1.898 1_556 S
O52 C46 1.167 . S
O53 Zn44 2.120 . S
O53 C46 1.299 1_455 S
O54 Zn42 1.898 . S
O54 C49 1.167 . S
O55 Zn44 2.120 . S
O55 C49 1.299 . S
O56 Zn44 2.114 . S
O56 C58 1.166 . S
O57 Zn42 1.905 . S
O57 C58 1.182 . S
C58 O56 1.166 . S
C58 O57 1.182 . S
O59 Zn44 2.080 1_554 S
O59 C62 1.305 1_455 S
O60 Zn43 1.920 . S
O60 C62 1.234 . S
C61 O47 1.305 . S
C61 O48 1.234 . S
C62 O59 1.305 1_655 S
C62 O60 1.234 . S
Zn63 O69 1.920 . S
Zn63 O75 1.898 . S
Zn63 O78 1.905 . S
Zn64 O72 1.905 1_556 S
Zn64 O73 1.898 1_545 S
Zn64 O81 1.920 . S
Zn65 O68 2.080 . S
Zn65 O71 2.114 . S
Zn65 O74 2.120 1_554 S
Zn65 O76 2.120 . S
Zn65 O77 2.114 . S
Zn65 O80 2.080 1_565 S
C66 O71 1.166 1_545 S
C66 O72 1.182 . S
C67 O73 1.167 . S
C67 O74 1.299 . S
O68 Zn65 2.080 . S
O68 C82 1.305 . S
O69 Zn63 1.920 . S
O69 C82 1.234 . S
C70 O75 1.167 . S
C70 O76 1.299 . S
O71 Zn65 2.114 . S
O71 C66 1.166 1_565 S
O72 Zn64 1.905 1_554 S
O72 C66 1.182 . S
O73 Zn64 1.898 1_565 S
O73 C67 1.167 . S
O74 Zn65 2.120 1_556 S
O74 C67 1.299 . S
O75 Zn63 1.898 . S
O75 C70 1.167 . S
O76 Zn65 2.120 . S
O76 C70 1.299 . S
O77 Zn65 2.114 . S
O77 C79 1.166 . S
O78 Zn63 1.905 . S
O78 C79 1.182 . S
C79 O77 1.166 . S
C79 O78 1.182 . S
O80 Zn65 2.080 1_545 S
O80 C83 1.305 1_554 S
O81 Zn64 1.920 . S
O81 C83 1.234 . S
C82 O68 1.305 . S
C82 O69 1.234 . S
C83 O80 1.305 1_556 S
C83 O81 1.234 . S
C45 C16 1.163 . S
C70 C25 0.990 . S
C58 C3 1.163 . S
C83 C40 1.001 . S
C24 C7 1.095 . S
C61 C41 1.032 . S
C49 C67 1.002 . S
C19 C66 1.105 . S
C37 C20 1.105 . S
C46 C28 1.002 . S
C62 C82 1.032 . S
C79 C4 1.095 . S
