# Generated by pormake.
# Topology pcu, (6)-cn, num edge types: 1
# Building blocks:
#     Node 0, Type 0, BuildingBlock: BETGAK_clean_sbu_0, # of connection points: 6
#     Edge 1, Type (0, 0), BuildingBlock: FUNLAD_clean_linker_1, # of connection points: 2
#     Edge 2, Type (0, 0), BuildingBlock: FUNLAD_clean_linker_1, # of connection points: 2
#     Edge 3, Type (0, 0), BuildingBlock: FUNLAD_clean_linker_1, # of connection points: 2
# Relax obj value: 0.000
# Max RMSD: 0.000
# Mean RMSD: 0.000
data_MOF--net-pcu--node1-BETGAK_clean_sbu_0--edge1-FUNLAD_clean_linker_1
_symmetry_space_group_name_H-M    P1
_symmetry_Int_Tables_number       1
_symmetry_cell_setting            triclinic
loop_
_symmetry_equiv_pos_as_xyz
'x, y, z'
_cell_length_a     15.859598
_cell_length_b     26.01996
_cell_length_c     15.09878
_cell_angle_alpha  94.307814
_cell_angle_beta   86.878957
_cell_angle_gamma 123.4898
loop_
_atom_site_label
_atom_site_type_symbol
_atom_site_fract_x
_atom_site_fract_y
_atom_site_fract_z
_atom_type_partial_charge
La0 La 0.08599 0.09865 1.01497 0.0
La1 La 0.97935 0.96028 0.01975 0.0
C2 C 0.14965 0.20667 0.97367 0.0
C3 C 0.11829 0.25072 0.98202 0.0
C4 C 0.18958 0.31232 1.00889 0.0
C5 C 0.16344 0.35573 1.01625 0.0
C6 C 0.0651 0.33845 0.99595 0.0
C7 C 0.99328 0.27633 0.97058 0.0
C8 C 1.01956 0.23286 0.96339 0.0
C9 C 0.05307 0.05651 0.17513 0.0
C10 C 0.84401 1.01262 0.01869 0.0
C11 C 0.91555 0.85214 0.06052 0.0
C12 C 0.94699 0.80813 0.0522 0.0
C13 C 0.87582 0.74655 0.02514 0.0
C14 C 0.90203 0.70317 0.01781 0.0
C15 C 1.00032 0.72046 0.03833 0.0
C16 C 0.07204 0.78257 0.06387 0.0
C17 C 0.04568 0.82601 0.07104 0.0
C18 C 1.01244 1.00278 0.85968 0.0
C19 C 0.22132 0.04631 1.0163 0.0
O20 O 0.17202 0.19399 0.04764 0.0
O21 O 0.09815 0.15756 0.92013 0.0
O22 O 0.12916 0.11022 0.15404 0.0
O23 O 0.99456 0.03134 0.1104 0.0
O24 O 0.92658 0.06673 1.00023 0.0
O25 O 0.84821 0.96602 0.04133 0.0
O26 O 0.89363 0.86502 0.98649 0.0
O27 O 0.9667 0.90111 0.11438 0.0
O28 O 0.93617 0.94907 0.88061 0.0
O29 O 0.07078 1.02755 0.92453 0.0
O30 O 0.13873 0.99221 0.03475 0.0
O31 O 0.21713 0.0929 0.99354 0.0
H32 H 0.26593 0.32694 0.02437 0.0
H33 H 0.22049 0.40236 0.03894 0.0
H34 H 0.91674 0.26144 0.9554 0.0
H35 H 0.96294 0.18552 0.94287 0.0
H36 H 0.79951 0.73192 1.00949 0.0
H37 H 0.84508 0.65656 0.99497 0.0
H38 H 0.14854 0.79746 0.07922 0.0
H39 H 0.10221 0.87333 0.09171 0.0
H40 H 0.95744 0.99006 0.27649 0.0
C41 C 1.02662 0.03473 0.26608 0.0
H42 H 0.15428 0.11372 0.32526 0.0
H43 H 0.83875 1.00388 0.67159 0.0
H44 H 0.73497 1.02755 0.59457 0.0
H45 H 0.77861 0.06292 0.44184 0.0
H46 H 0.92566 0.07436 0.36504 0.0
C47 C 0.08387 0.06967 0.33578 0.0
C48 C 0.05681 0.04872 0.42839 0.0
C49 C 0.97097 0.04299 0.4728 0.0
C50 C 0.9467 1.02357 0.56153 0.0
C51 C 0.86057 1.01823 0.60419 0.0
C52 C 0.80046 0.03189 0.56087 0.0
C53 C 0.82497 0.05173 0.47486 0.0
C54 C 0.90935 0.05764 0.43124 0.0
H55 H 0.10849 0.06941 0.75863 0.0
C56 C 0.03918 1.02476 0.76885 0.0
H57 H 0.91151 0.94595 0.70938 0.0
H58 H 0.22737 0.056 0.36332 0.0
H59 H 0.33116 0.03233 0.44032 0.0
H60 H 0.28748 0.99691 0.59303 0.0
H61 H 0.1404 0.98544 0.66982 0.0
C62 C 0.98202 0.98998 0.69902 0.0
C63 C 1.00924 1.01109 0.60649 0.0
C64 C 0.0951 1.01683 0.56208 0.0
C65 C 0.11938 0.03626 0.47336 0.0
C66 C 0.20554 0.04163 0.43071 0.0
C67 C 0.26565 1.02798 0.47402 0.0
C68 C 0.24112 1.00811 0.56001 0.0
C69 C 0.15672 1.00218 0.60364 0.0
H70 H 0.38744 0.10022 1.00337 0.0
C71 C 0.32106 0.05467 1.0157 0.0
H72 H 0.2672 0.96192 0.03733 0.0
H73 H 0.6638 0.99322 0.85489 0.0
H74 H 0.54296 0.93496 0.73728 0.0
H75 H 0.3708 0.91372 0.74969 0.0
H76 H 0.3187 0.95098 0.87959 0.0
C77 C 0.33249 1.00837 0.02845 0.0
C78 C 0.43441 1.01847 0.02374 0.0
C79 C 0.46274 0.99512 0.94835 0.0
C80 C 0.56147 1.00661 0.94177 0.0
C81 C 0.58904 0.98464 0.86427 0.0
C82 C 0.52056 0.95141 0.79602 0.0
C83 C 0.42369 0.93952 0.80295 0.0
C84 C 0.39475 0.96113 0.87793 0.0
H85 H 0.67789 0.9587 0.0317 0.0
C86 C 0.74426 1.00426 0.01939 0.0
H87 H 0.7981 0.09702 0.99787 0.0
H88 H 0.40149 0.06571 0.18029 0.0
H89 H 0.52233 0.12396 0.2979 0.0
H90 H 0.69448 0.14519 0.28551 0.0
H91 H 0.74658 0.10793 0.15562 0.0
C92 C 0.73281 0.05057 1.00672 0.0
C93 C 0.63088 0.04046 1.01145 0.0
C94 C 0.60254 0.06379 0.08684 0.0
C95 C 0.50382 0.05231 0.09342 0.0
C96 C 0.47625 0.07428 0.17091 0.0
C97 C 0.54472 0.10751 0.23917 0.0
C98 C 0.64159 0.11939 0.23224 0.0
C99 C 0.67054 0.09779 0.15726 0.0
H100 H 0.11193 0.69414 0.03079 0.0
C101 C 1.0314 0.67566 0.03239 0.0
H102 H 0.88487 0.59307 0.03487 0.0
H103 H 1.0281 0.42768 0.84538 0.0
H104 H 0.94628 0.43762 0.72286 0.0
H105 H 0.88815 0.50844 0.73692 0.0
H106 H 0.91209 0.57007 0.87353 0.0
C107 C 0.96586 0.61395 0.03207 0.0
C108 C 1.00114 0.57126 0.02453 0.0
C109 C 0.98484 0.53464 0.94487 0.0
C110 C 1.01721 0.49319 0.93715 0.0
C111 C 1.00304 0.45884 0.85568 0.0
C112 C 0.95663 0.46434 0.78458 0.0
C113 C 0.92397 0.50425 0.79247 0.0
C114 C 0.93798 0.53925 0.87136 0.0
H115 H 0.95356 0.36483 1.00357 0.0
C116 C 0.03408 0.38329 1.00191 0.0
H117 H 0.18063 0.46586 0.99935 0.0
H118 H 0.03742 0.63127 0.18889 0.0
H119 H 0.11925 0.62133 0.31141 0.0
H120 H 0.17739 0.55052 0.29734 0.0
H121 H 0.15345 0.48888 0.16073 0.0
C122 C 0.09965 0.44499 1.0022 0.0
C123 C 0.06438 0.48769 1.00974 0.0
C124 C 0.08069 0.52431 0.08939 0.0
C125 C 0.04832 0.56576 0.09711 0.0
C126 C 0.06248 0.60011 0.17859 0.0
C127 C 0.1089 0.59461 0.24969 0.0
C128 C 0.14156 0.5547 0.2418 0.0
C129 C 0.12756 0.51971 0.1629 0.0
loop_
_geom_bond_atom_site_label_1
_geom_bond_atom_site_label_2
_geom_bond_distance
_geom_bond_site_symmetry_2
_ccdc_geom_bond_type
La0 C2 2.928 . S
La0 O20 2.521 . S
La0 O21 2.628 1_554 S
La0 O22 2.554 . S
La0 O23 2.757 1_545 S
La0 O24 2.470 1_455 S
La0 O29 2.482 1_454 S
La0 O31 2.503 . S
La1 C11 2.928 . S
La1 O23 2.482 1_656 S
La1 O25 2.503 . S
La1 O26 2.521 . S
La1 O27 2.628 1_556 S
La1 O28 2.554 . S
La1 O29 2.757 1_565 S
La1 O30 2.470 1_655 S
C2 La0 2.928 . S
C2 C3 1.503 . S
C2 O20 1.261 . S
C2 O21 1.243 1_554 S
C3 C2 1.503 . S
C3 C4 1.394 . S
C3 C8 1.373 1_454 S
C4 C3 1.394 . S
C4 C5 1.380 . S
C4 H32 0.930 . S
C5 C4 1.380 . S
C5 C6 1.387 . S
C5 H33 0.930 . S
C6 C5 1.387 . S
C6 C7 1.361 1_454 S
C7 C6 1.361 1_656 S
C7 C8 1.396 . S
C7 H34 0.929 . S
C8 C3 1.373 1_656 S
C8 C7 1.396 . S
C8 H35 0.929 . S
C9 O22 1.240 . S
C9 O23 1.289 1_545 S
C10 O24 1.258 1_565 S
C10 O25 1.255 1_554 S
C11 La1 2.928 . S
C11 C12 1.503 . S
C11 O26 1.261 . S
C11 O27 1.243 1_556 S
C12 C11 1.503 . S
C12 C13 1.394 . S
C12 C17 1.373 1_656 S
C13 C12 1.394 . S
C13 C14 1.380 . S
C13 H36 0.930 . S
C14 C13 1.380 . S
C14 C15 1.384 . S
C14 H37 0.930 . S
C15 C14 1.384 . S
C15 C16 1.363 1_656 S
C16 C15 1.363 1_454 S
C16 C17 1.396 . S
C16 H38 0.929 . S
C17 C12 1.373 1_454 S
C17 C16 1.396 . S
C17 H39 0.929 . S
C18 O28 1.240 . S
C18 O29 1.289 1_565 S
C19 O30 1.258 1_545 S
C19 O31 1.255 1_556 S
O20 La0 2.521 . S
O20 C2 1.261 . S
O21 La0 2.628 1_556 S
O21 C2 1.243 1_556 S
O22 La0 2.554 . S
O22 C9 1.240 . S
O23 La0 2.757 1_565 S
O23 La1 2.482 1_454 S
O23 C9 1.289 1_565 S
O24 La0 2.470 1_655 S
O24 C10 1.258 1_545 S
O25 La1 2.503 . S
O25 C10 1.255 1_556 S
O26 La1 2.521 . S
O26 C11 1.261 . S
O27 La1 2.628 1_554 S
O27 C11 1.243 1_554 S
O28 La1 2.554 . S
O28 C18 1.240 . S
O29 La0 2.482 1_656 S
O29 La1 2.757 1_545 S
O29 C18 1.289 1_545 S
O30 La1 2.470 1_455 S
O30 C19 1.258 1_565 S
O31 La0 2.503 . S
O31 C19 1.255 1_554 S
H32 C4 0.930 . S
H33 C5 0.930 . S
H34 C7 0.929 . S
H35 C8 0.929 . S
H36 C13 0.930 . S
H37 C14 0.930 . S
H38 C16 0.929 . S
H39 C17 0.929 . S
H40 C41 0.951 . S
C41 H40 0.951 . S
C41 C47 1.265 1_445 S
H42 C47 0.950 . S
H43 C51 0.949 . S
H44 C52 0.950 . S
H45 C53 0.951 . S
H46 C54 0.951 . S
C47 C41 1.265 1_665 S
C47 H42 0.950 . S
C47 C48 1.478 . S
C48 C47 1.478 . S
C48 C49 1.397 . S
C48 C65 1.394 1_665 S
C49 C48 1.397 . S
C49 C50 1.438 . S
C49 C54 1.429 . S
C50 C49 1.438 . S
C50 C51 1.428 . S
C50 C63 1.394 1_665 S
C51 H43 0.949 . S
C51 C50 1.428 . S
C51 C52 1.345 . S
C52 H44 0.950 . S
C52 C51 1.345 . S
C52 C53 1.424 . S
C53 H45 0.951 . S
C53 C52 1.424 . S
C53 C54 1.347 . S
C54 H46 0.951 . S
C54 C49 1.429 . S
C54 C53 1.347 . S
H55 C56 0.951 . S
C56 H55 0.951 . S
C56 C62 1.265 1_665 S
H57 C62 0.950 . S
H58 C66 0.949 . S
H59 C67 0.950 . S
H60 C68 0.951 . S
H61 C69 0.951 . S
C62 C56 1.265 1_445 S
C62 H57 0.950 . S
C62 C63 1.478 . S
C63 C50 1.394 1_445 S
C63 C62 1.478 . S
C63 C64 1.397 . S
C64 C63 1.397 . S
C64 C65 1.438 . S
C64 C69 1.429 . S
C65 C48 1.394 1_445 S
C65 C64 1.438 . S
C65 C66 1.428 . S
C66 H58 0.949 . S
C66 C65 1.428 . S
C66 C67 1.345 . S
C67 H59 0.950 . S
C67 C66 1.345 . S
C67 C68 1.424 . S
C68 H60 0.951 . S
C68 C67 1.424 . S
C68 C69 1.347 . S
C69 H61 0.951 . S
C69 C64 1.429 . S
C69 C68 1.347 . S
H70 C71 0.951 . S
C71 H70 0.951 . S
C71 C77 1.265 1_544 S
H72 C77 0.950 . S
H73 C81 0.949 . S
H74 C82 0.950 . S
H75 C83 0.951 . S
H76 C84 0.951 . S
C77 C71 1.265 1_566 S
C77 H72 0.950 . S
C77 C78 1.478 . S
C78 C77 1.478 . S
C78 C79 1.397 . S
C78 C95 1.394 1_566 S
C79 C78 1.397 . S
C79 C80 1.438 . S
C79 C84 1.429 . S
C80 C79 1.438 . S
C80 C81 1.428 . S
C80 C93 1.394 1_566 S
C81 H73 0.949 . S
C81 C80 1.428 . S
C81 C82 1.345 . S
C82 H74 0.950 . S
C82 C81 1.345 . S
C82 C83 1.424 . S
C83 H75 0.951 . S
C83 C82 1.424 . S
C83 C84 1.347 . S
C84 H76 0.951 . S
C84 C79 1.429 . S
C84 C83 1.347 . S
H85 C86 0.951 . S
C86 H85 0.951 . S
C86 C92 1.265 1_566 S
H87 C92 0.950 . S
H88 C96 0.949 . S
H89 C97 0.950 . S
H90 C98 0.951 . S
H91 C99 0.951 . S
C92 C86 1.265 1_544 S
C92 H87 0.950 . S
C92 C93 1.478 . S
C93 C80 1.394 1_544 S
C93 C92 1.478 . S
C93 C94 1.397 . S
C94 C93 1.397 . S
C94 C95 1.438 . S
C94 C99 1.429 . S
C95 C78 1.394 1_544 S
C95 C94 1.438 . S
C95 C96 1.428 . S
C96 H88 0.949 . S
C96 C95 1.428 . S
C96 C97 1.345 . S
C97 H89 0.950 . S
C97 C96 1.345 . S
C97 C98 1.424 . S
C98 H90 0.951 . S
C98 C97 1.424 . S
C98 C99 1.347 . S
C99 H91 0.951 . S
C99 C94 1.429 . S
C99 C98 1.347 . S
H100 C101 0.951 1_554 S
C101 H100 0.951 1_556 S
C101 C107 1.265 1_455 S
H102 C107 0.950 . S
H103 C111 0.949 . S
H104 C112 0.950 . S
H105 C113 0.951 . S
H106 C114 0.951 . S
C107 C101 1.265 1_655 S
C107 H102 0.950 . S
C107 C108 1.480 . S
C108 C107 1.480 . S
C108 C109 1.406 . S
C108 C125 1.384 1_656 S
C109 C108 1.406 . S
C109 C110 1.438 . S
C109 C114 1.429 . S
C110 C109 1.438 . S
C110 C111 1.428 . S
C110 C123 1.394 1_656 S
C111 H103 0.949 . S
C111 C110 1.428 . S
C111 C112 1.345 . S
C112 H104 0.950 . S
C112 C111 1.345 . S
C112 C113 1.424 . S
C113 H105 0.951 . S
C113 C112 1.424 . S
C113 C114 1.347 . S
C114 H106 0.951 . S
C114 C109 1.429 . S
C114 C113 1.347 . S
H115 C116 0.951 1_556 S
C116 H115 0.951 1_554 S
C116 C122 1.265 1_655 S
H117 C122 0.950 . S
H118 C126 0.949 . S
H119 C127 0.950 . S
H120 C128 0.951 . S
H121 C129 0.951 . S
C122 C116 1.265 1_455 S
C122 H117 0.950 . S
C122 C123 1.478 . S
C123 C110 1.394 1_454 S
C123 C122 1.478 . S
C123 C124 1.397 . S
C124 C123 1.397 . S
C124 C125 1.438 . S
C124 C129 1.429 . S
C125 C108 1.384 1_454 S
C125 C124 1.438 . S
C125 C126 1.428 . S
C126 H118 0.949 . S
C126 C125 1.428 . S
C126 C127 1.345 . S
C127 H119 0.950 . S
C127 C126 1.345 . S
C127 C128 1.424 . S
C128 H120 0.951 . S
C128 C127 1.424 . S
C128 C129 1.347 . S
C129 H121 0.951 . S
C129 C124 1.429 . S
C129 C128 1.347 . S
C41 C9 1.420 . S
C56 C18 1.420 . S
C71 C19 1.466 1_554 S
C86 C10 1.466 1_556 S
C101 C15 1.493 1_455 S
C116 C6 1.493 1_655 S
