# Generated by pormake.
# Topology uoc, (4)-cn, num edge types: 1
# Building blocks:
#     Node 0, Type 0, BuildingBlock: NAHDIM_clean_sbu_0, # of connection points: 4
#     Node 1, Type 0, BuildingBlock: NAHDIM_clean_sbu_0, # of connection points: 4
#     Node 2, Type 0, BuildingBlock: NAHDIM_clean_sbu_0, # of connection points: 4
#     Node 3, Type 0, BuildingBlock: NAHDIM_clean_sbu_0, # of connection points: 4
#     Node 4, Type 0, BuildingBlock: NAHDIM_clean_sbu_0, # of connection points: 4
#     Node 5, Type 0, BuildingBlock: NAHDIM_clean_sbu_0, # of connection points: 4
#     Node 6, Type 0, BuildingBlock: NAHDIM_clean_sbu_0, # of connection points: 4
#     Node 7, Type 0, BuildingBlock: NAHDIM_clean_sbu_0, # of connection points: 4
#     Edge 8, Type (0, 0), None
#     Edge 9, Type (0, 0), None
#     Edge 10, Type (0, 0), None
#     Edge 11, Type (0, 0), None
#     Edge 12, Type (0, 0), None
#     Edge 13, Type (0, 0), None
#     Edge 14, Type (0, 0), None
#     Edge 15, Type (0, 0), None
#     Edge 16, Type (0, 0), None
#     Edge 17, Type (0, 0), None
#     Edge 18, Type (0, 0), None
#     Edge 19, Type (0, 0), None
#     Edge 20, Type (0, 0), None
#     Edge 21, Type (0, 0), None
#     Edge 22, Type (0, 0), None
#     Edge 23, Type (0, 0), None
# Relax obj value: 0.185
# Max RMSD: 0.187
# Mean RMSD: 0.187
data_MOF--net-uoc--node1-NAHDIM_clean_sbu_0--edge1-none
_symmetry_space_group_name_H-M    P1
_symmetry_Int_Tables_number       1
_symmetry_cell_setting            triclinic
loop_
_symmetry_equiv_pos_as_xyz
'x, y, z'
_cell_length_a     13.524971
_cell_length_b     13.52502
_cell_length_c     22.27523
_cell_angle_alpha  89.999999
_cell_angle_beta   90.000001
_cell_angle_gamma 95.759995
loop_
_atom_site_label
_atom_site_type_symbol
_atom_site_fract_x
_atom_site_fract_y
_atom_site_fract_z
_atom_type_partial_charge
C0 C -0.02354 0.36927 0.13763 0.0
O1 O 0.07399 0.38115 0.13575 0.0
O2 O 0.09583 0.18402 0.06911 0.0
Zn3 Zn 0.02205 0.17365 0.1472 0.0
O4 O 0.10455 0.19993 0.2214 0.0
C5 C -0.01221 0.96158 0.14079 0.0
O6 O 0.08241 -0.02985 0.1265 0.0
O7 O 0.93199 0.28242 0.1435 0.0
C8 C 0.08441 0.15181 0.2697 0.0
O9 O 0.01882 0.07344 0.2691 0.0
C10 C 0.18324 0.16528 0.05615 0.0
O11 O 0.24189 0.13607 0.09818 0.0
O12 O 0.94464 0.03893 0.15165 0.0
C13 C 0.86563 0.48011 0.37237 0.0
O14 O 0.87751 0.57763 0.37426 0.0
O15 O 0.68038 0.59948 0.44089 0.0
Zn16 Zn 0.67001 0.52569 0.3628 0.0
O17 O 0.69628 0.60819 0.2886 0.0
C18 C 0.45793 0.49143 0.36921 0.0
O19 O 0.4665 0.58605 0.3835 0.0
O20 O 0.77878 0.43563 0.3665 0.0
C21 C 0.64817 0.58806 0.2403 0.0
O22 O 0.5698 0.52247 0.2409 0.0
C23 C 0.66163 0.68689 0.45385 0.0
O24 O 0.63242 0.74553 0.41182 0.0
O25 O 0.53528 0.44829 0.35834 0.0
C26 C 0.44441 0.05889 0.63763 0.0
O27 O 0.34688 0.04701 0.63575 0.0
O28 O 0.32504 0.24413 0.56911 0.0
Zn29 Zn 0.39883 0.2545 0.6472 0.0
O30 O 0.31632 0.22823 0.7214 0.0
C31 C 0.43308 0.46658 0.64079 0.0
O32 O 0.33846 0.45801 0.6265 0.0
O33 O 0.48888 0.14574 0.6435 0.0
C34 C 0.33646 0.27634 0.7697 0.0
O35 O 0.40205 0.35472 0.7691 0.0
C36 C 0.23763 0.26288 0.55615 0.0
O37 O 0.17898 0.29209 0.59818 0.0
O38 O 0.47623 0.38923 0.65165 0.0
C39 C 0.55524 0.94805 0.87237 0.0
O40 O 0.54336 0.85052 0.87426 0.0
O41 O 0.74049 0.82868 0.94089 0.0
Zn42 Zn 0.75086 0.90247 0.8628 0.0
O43 O 0.72459 0.81996 0.7886 0.0
C44 C -0.03706 0.93673 0.86921 0.0
O45 O 0.95437 0.84211 0.8835 0.0
O46 O 0.64209 -0.00747 0.8665 0.0
C47 C 0.7727 0.8401 0.7403 0.0
O48 O 0.85107 0.90569 0.7409 0.0
C49 C 0.75924 0.74127 0.95385 0.0
O50 O 0.78845 0.68263 0.91182 0.0
O51 O 0.88559 -0.02013 0.85834 0.0
C52 C 0.5008 -0.02735 0.63154 0.0
O53 O 0.59833 -0.01557 0.63177 0.0
O54 O 0.59634 0.77729 0.53276 0.0
Zn55 Zn 0.5369 0.77098 0.61575 0.0
O56 O 0.63384 0.7791 0.68394 0.0
C57 C 0.48973 0.56449 0.64206 0.0
O58 O 0.58221 0.57314 0.66077 0.0
O59 O 0.45559 0.88628 0.6249 0.0
C60 C 0.72497 0.81183 0.68306 0.0
O61 O 0.76739 0.84102 0.63218 0.0
C62 C 0.65158 0.71131 0.51741 0.0
O63 O 0.6798 0.64993 0.55815 0.0
O64 O 0.45158 0.64036 0.62236 0.0
C65 C 0.46901 0.00444 0.87846 0.0
O66 O 0.48079 0.10197 0.87823 0.0
O67 O 0.27364 0.09998 0.97724 0.0
Zn68 Zn 0.26734 0.04054 0.89425 0.0
O69 O 0.27546 0.13749 0.82606 0.0
C70 C 0.06085 -0.00663 0.86794 0.0
O71 O 0.0695 0.08585 0.84923 0.0
O72 O 0.38264 0.95924 0.8851 0.0
C73 C 0.30819 0.22861 0.82694 0.0
O74 O 0.33738 0.27104 0.87781 0.0
C75 C 0.20767 0.15522 0.99259 0.0
O76 O 0.14629 0.18345 0.95185 0.0
O77 O 0.13672 0.95522 0.88764 0.0
C78 C 0.92007 0.45551 0.13154 0.0
O79 O 0.82254 0.44373 0.13177 0.0
O80 O 0.82454 0.65087 0.03276 0.0
Zn81 Zn 0.88397 0.65717 0.11575 0.0
O82 O 0.78703 0.64906 0.18394 0.0
C83 C 0.93114 0.86366 0.14206 0.0
O84 O 0.83866 0.85502 0.16077 0.0
O85 O -0.03472 0.54188 0.1249 0.0
C86 C 0.6959 0.61632 0.18306 0.0
O87 O 0.65348 0.58713 0.13218 0.0
C88 C 0.76929 0.71685 0.01741 0.0
O89 O 0.74107 0.77822 0.05815 0.0
O90 O -0.03071 0.78779 0.12236 0.0
C91 C 0.95186 0.42371 0.37846 0.0
O92 O 0.94008 0.32618 0.37823 0.0
O93 O 0.14723 0.32818 0.47724 0.0
Zn94 Zn 0.15353 0.38761 0.39425 0.0
O95 O 0.14541 0.29067 0.32606 0.0
C96 C 0.36002 0.43478 0.36794 0.0
O97 O 0.35137 0.3423 0.34923 0.0
O98 O 0.03823 0.46892 0.3851 0.0
C99 C 0.11268 0.19954 0.32694 0.0
O100 O 0.08349 0.15712 0.37781 0.0
C101 C 0.2132 0.27293 0.49259 0.0
O102 O 0.27458 0.24471 0.45185 0.0
O103 O 0.28415 0.47293 0.38764 0.0
loop_
_geom_bond_atom_site_label_1
_geom_bond_atom_site_label_2
_geom_bond_distance
_geom_bond_site_symmetry_2
_ccdc_geom_bond_type
C0 O1 1.160 . S
C0 O7 1.185 . S
O1 C0 1.160 . S
O2 Zn3 1.899 . S
O2 C10 1.284 . S
Zn3 O2 1.899 . S
Zn3 O4 2.032 . S
Zn3 O7 2.086 . S
Zn3 O12 1.977 . S
O4 Zn3 2.032 . S
O4 C8 1.278 . S
C5 O6 1.203 . S
C5 O12 1.267 . S
O6 C5 1.203 . S
O7 C0 1.185 . S
O7 Zn3 2.086 . S
C8 O4 1.278 . S
C8 O9 1.211 . S
O9 C8 1.211 . S
C10 O2 1.284 . S
C10 O11 1.273 . S
O11 C10 1.273 . S
O12 Zn3 1.977 . S
O12 C5 1.267 . S
C13 O14 1.160 . S
C13 O20 1.185 . S
O14 C13 1.160 . S
O15 Zn16 1.899 . S
O15 C23 1.284 . S
Zn16 O15 1.899 . S
Zn16 O17 2.032 . S
Zn16 O20 2.086 . S
Zn16 O25 1.977 . S
O17 Zn16 2.032 . S
O17 C21 1.278 . S
C18 O19 1.203 . S
C18 O25 1.267 . S
O19 C18 1.203 . S
O20 C13 1.185 . S
O20 Zn16 2.086 . S
C21 O17 1.278 . S
C21 O22 1.211 . S
O22 C21 1.211 . S
C23 O15 1.284 . S
C23 O24 1.273 . S
O24 C23 1.273 . S
O25 Zn16 1.977 . S
O25 C18 1.267 . S
C26 O27 1.160 . S
C26 O33 1.185 . S
O27 C26 1.160 . S
O28 Zn29 1.899 . S
O28 C36 1.284 . S
Zn29 O28 1.899 . S
Zn29 O30 2.032 . S
Zn29 O33 2.086 . S
Zn29 O38 1.977 . S
O30 Zn29 2.032 . S
O30 C34 1.278 . S
C31 O32 1.203 . S
C31 O38 1.267 . S
O32 C31 1.203 . S
O33 C26 1.185 . S
O33 Zn29 2.086 . S
C34 O30 1.278 . S
C34 O35 1.211 . S
O35 C34 1.211 . S
C36 O28 1.284 . S
C36 O37 1.273 . S
O37 C36 1.273 . S
O38 Zn29 1.977 . S
O38 C31 1.267 . S
C39 O40 1.160 . S
C39 O46 1.185 . S
O40 C39 1.160 . S
O41 Zn42 1.899 . S
O41 C49 1.284 . S
Zn42 O41 1.899 . S
Zn42 O43 2.032 . S
Zn42 O46 2.086 . S
Zn42 O51 1.977 . S
O43 Zn42 2.032 . S
O43 C47 1.278 . S
C44 O45 1.203 . S
C44 O51 1.267 . S
O45 C44 1.203 . S
O46 C39 1.185 . S
O46 Zn42 2.086 . S
C47 O43 1.278 . S
C47 O48 1.211 . S
O48 C47 1.211 . S
C49 O41 1.284 . S
C49 O50 1.273 . S
O50 C49 1.273 . S
O51 Zn42 1.977 . S
O51 C44 1.267 . S
C52 O53 1.160 . S
C52 O59 1.185 . S
O53 C52 1.160 . S
O54 Zn55 1.899 . S
O54 C62 1.284 . S
Zn55 O54 1.899 . S
Zn55 O56 2.032 . S
Zn55 O59 2.086 . S
Zn55 O64 1.977 . S
O56 Zn55 2.032 . S
O56 C60 1.278 . S
C57 O58 1.203 . S
C57 O64 1.267 . S
O58 C57 1.203 . S
O59 C52 1.185 . S
O59 Zn55 2.086 . S
C60 O56 1.278 . S
C60 O61 1.211 . S
O61 C60 1.211 . S
C62 O54 1.284 . S
C62 O63 1.273 . S
O63 C62 1.273 . S
O64 Zn55 1.977 . S
O64 C57 1.267 . S
C65 O66 1.160 . S
C65 O72 1.185 . S
O66 C65 1.160 . S
O67 Zn68 1.899 . S
O67 C75 1.284 . S
Zn68 O67 1.899 . S
Zn68 O69 2.032 . S
Zn68 O72 2.086 . S
Zn68 O77 1.977 . S
O69 Zn68 2.032 . S
O69 C73 1.278 . S
C70 O71 1.203 . S
C70 O77 1.267 . S
O71 C70 1.203 . S
O72 C65 1.185 . S
O72 Zn68 2.086 . S
C73 O69 1.278 . S
C73 O74 1.211 . S
O74 C73 1.211 . S
C75 O67 1.284 . S
C75 O76 1.273 . S
O76 C75 1.273 . S
O77 Zn68 1.977 . S
O77 C70 1.267 . S
C78 O79 1.160 . S
C78 O85 1.185 . S
O79 C78 1.160 . S
O80 Zn81 1.899 . S
O80 C88 1.284 . S
Zn81 O80 1.899 . S
Zn81 O82 2.032 . S
Zn81 O85 2.086 . S
Zn81 O90 1.977 . S
O82 Zn81 2.032 . S
O82 C86 1.278 . S
C83 O84 1.203 . S
C83 O90 1.267 . S
O84 C83 1.203 . S
O85 C78 1.185 . S
O85 Zn81 2.086 . S
C86 O82 1.278 . S
C86 O87 1.211 . S
O87 C86 1.211 . S
C88 O80 1.284 . S
C88 O89 1.273 . S
O89 C88 1.273 . S
O90 Zn81 1.977 . S
O90 C83 1.267 . S
C91 O92 1.160 . S
C91 O98 1.185 . S
O92 C91 1.160 . S
O93 Zn94 1.899 . S
O93 C101 1.284 . S
Zn94 O93 1.899 . S
Zn94 O95 2.032 . S
Zn94 O98 2.086 . S
Zn94 O103 1.977 . S
O95 Zn94 2.032 . S
O95 C99 1.278 . S
C96 O97 1.203 . S
C96 O103 1.267 . S
O97 C96 1.203 . S
O98 C91 1.185 . S
O98 Zn94 2.086 . S
C99 O95 1.278 . S
C99 O100 1.211 . S
O100 C99 1.211 . S
C101 O93 1.284 . S
C101 O102 1.273 . S
O102 C101 1.273 . S
O103 Zn94 1.977 . S
O103 C96 1.267 . S
C10 C75 1.890 1_554 S
C21 C86 1.292 . S
C36 C101 1.890 . S
C47 C60 1.292 . S
C99 C8 1.292 . S
C62 C23 1.890 . S
C34 C73 1.292 . S
C88 C49 1.890 1_554 S
C5 C83 1.514 1_445 S
C91 C13 1.494 1_455 S
C31 C57 1.514 . S
C39 C65 1.494 1_565 S
C78 C0 1.494 1_655 S
C96 C18 1.514 . S
C26 C52 1.494 1_545 S
C44 C70 1.514 1_665 S
