# Generated by pormake.
# Topology msw, (6)-cn, num edge types: 1
# Building blocks:
#     Node 0, Type 0, BuildingBlock: VOLQOD_clean_sbu_1, # of connection points: 6
#     Node 1, Type 0, BuildingBlock: VOLQOD_clean_sbu_1, # of connection points: 6
#     Edge 2, Type (0, 0), BuildingBlock: EZIPEK_clean_linker_0, # of connection points: 2
#     Edge 3, Type (0, 0), BuildingBlock: EZIPEK_clean_linker_0, # of connection points: 2
#     Edge 4, Type (0, 0), BuildingBlock: EZIPEK_clean_linker_0, # of connection points: 2
#     Edge 5, Type (0, 0), BuildingBlock: EZIPEK_clean_linker_0, # of connection points: 2
#     Edge 6, Type (0, 0), BuildingBlock: EZIPEK_clean_linker_0, # of connection points: 2
#     Edge 7, Type (0, 0), BuildingBlock: EZIPEK_clean_linker_0, # of connection points: 2
# Relax obj value: 0.247
# Max RMSD: 0.192
# Mean RMSD: 0.192
data_MOF--net-msw--node1-VOLQOD_clean_sbu_1--edge1-EZIPEK_clean_linker_0
_symmetry_space_group_name_H-M    P1
_symmetry_Int_Tables_number       1
_symmetry_cell_setting            triclinic
loop_
_symmetry_equiv_pos_as_xyz
'x, y, z'
_cell_length_a     15.712634
_cell_length_b     16.174789
_cell_length_c     11.917848
_cell_angle_alpha  89.820022
_cell_angle_beta   86.719315
_cell_angle_gamma 88.679165
loop_
_atom_site_label
_atom_site_type_symbol
_atom_site_fract_x
_atom_site_fract_y
_atom_site_fract_z
_atom_type_partial_charge
O0 O 0.83208 0.24287 0.4251 0.0
Zn1 Zn 0.88894 0.24613 0.27551 0.0
O2 O 0.79512 0.2913 0.20529 0.0
Zn3 Zn 0.75226 0.21111 0.11541 0.0
Zn4 Zn 0.69719 0.33235 0.28407 0.0
Zn5 Zn 0.83919 0.38757 0.14097 0.0
O6 O 0.75223 0.2784 -0.02268 0.0
O7 O 0.87806 0.34166 -0.00364 0.0
O8 O 0.94008 0.1423 0.19243 0.0
O9 O 0.83935 0.12533 0.07259 0.0
O10 O 0.65 0.15086 0.19764 0.0
O11 O 0.62145 0.24191 0.33322 0.0
O12 O 0.63463 0.42042 0.19019 0.0
O13 O 0.98479 0.32441 0.30076 0.0
O14 O 0.74816 0.46635 0.09343 0.0
O15 O 0.92415 0.44032 0.2444 0.0
C16 C 0.79152 0.30398 0.47382 0.0
C17 C 0.82008 0.31342 0.93687 0.0
C18 C 0.61086 0.17142 0.29105 0.0
C19 C 0.91191 0.10604 0.10722 0.0
C20 C 0.66798 0.46721 0.11372 0.0
C21 C 0.98023 0.40293 0.30089 0.0
O22 O 0.74658 0.35799 0.4235 0.0
O23 O 0.38227 0.75073 0.47475 0.0
Zn24 Zn 0.34883 0.68962 0.61118 0.0
O25 O 0.29707 0.77756 0.69142 0.0
Zn26 Zn 0.38342 0.8195 0.77208 0.0
Zn27 Zn 0.25642 0.8681 0.61251 0.0
Zn28 Zn 0.19899 0.7367 0.76668 0.0
O29 O 0.31378 0.838 0.90902 0.0
O30 O 0.24532 0.71612 0.91053 0.0
O31 O 0.44147 0.62938 0.70181 0.0
O32 O 0.46323 0.73033 0.8207 0.0
O33 O 0.4475 0.91436 0.68553 0.0
O34 O 0.34442 0.95033 0.57544 0.0
O35 O 0.15368 0.92717 0.69638 0.0
O36 O 0.25902 0.61226 0.56165 0.0
O37 O 0.11501 0.82587 0.8119 0.0
O38 O 0.14626 0.6443 0.67552 0.0
C39 C 0.32065 0.78129 0.42135 0.0
C40 C 0.28066 0.77545 -0.04017 0.0
C41 C 0.41969 0.95854 0.60547 0.0
C42 C 0.47729 0.65637 0.78792 0.0
C43 C 0.10791 0.90051 0.78037 0.0
C44 C 0.18095 0.60327 0.59269 0.0
O45 O 0.25267 0.81389 0.46884 0.0
C46 C 0.82568 0.39106 0.75844 0.0
C47 C 0.8328 0.31544 0.81695 0.0
C48 C 0.79699 0.2375 0.65663 0.0
C49 C 0.79848 0.31129 0.59306 0.0
N50 N 0.83745 0.45593 0.57656 0.0
N51 N 0.85971 0.1686 0.81104 0.0
C52 C 0.8191 0.38804 0.64144 0.0
C53 C 0.83012 0.23901 0.76213 0.0
N54 N 0.82299 0.46487 0.81401 0.0
N55 N 0.76159 0.16727 0.6183 0.0
H56 H 0.8919 0.17122 0.88484 0.0
H57 H 0.86292 0.11139 0.77065 0.0
H58 H 0.7298 0.16563 0.5438 0.0
H59 H 0.75515 0.11395 0.66722 0.0
H60 H 0.807 0.52073 0.77577 0.0
H61 H 0.83224 0.46966 0.89954 0.0
H62 H 0.86059 0.51014 0.60931 0.0
H63 H 0.83956 0.45563 0.4891 0.0
C64 C 0.33501 0.7019 0.24444 0.0
C65 C 0.32563 0.77866 0.30114 0.0
C66 C 0.26878 0.84463 0.14016 0.0
C67 C 0.28782 0.77158 0.0788 0.0
N68 N 0.35904 0.63672 0.06455 0.0
N69 N 0.31157 0.92751 0.29258 0.0
C70 C 0.32666 0.70152 0.12809 0.0
C71 C 0.30184 0.85179 0.24533 0.0
N72 N 0.34798 0.62932 0.30068 0.0
N73 N 0.21769 0.90582 0.09916 0.0
H74 H 0.3412 0.93424 0.36787 0.0
H75 H 0.29996 0.98286 0.25039 0.0
H76 H 0.18767 0.8996 0.02392 0.0
H77 H 0.19768 0.95782 0.14592 0.0
H78 H 0.34358 0.57164 0.26288 0.0
H79 H 0.35722 0.62558 0.38616 0.0
H80 H 0.39604 0.58913 0.09737 0.0
H81 H 0.35629 0.63396 -0.02227 0.0
C82 C 0.50223 0.52224 0.89786 0.0
C83 C 0.53035 0.60144 0.86034 0.0
C84 C 0.63675 0.59733 0.00464 0.0
C85 C 0.61459 0.51518 0.03431 0.0
N86 N 0.54173 0.39182 -0.01756 0.0
N87 N 0.64138 0.70208 0.85905 0.0
C88 C 0.55179 0.47532 -0.02664 0.0
C89 C 0.60284 0.63516 0.90817 0.0
N90 N 0.42599 0.49286 0.86762 0.0
N91 N 0.68856 0.64044 0.07042 0.0
H92 H 0.62138 0.72858 0.78477 0.0
H93 H 0.69879 0.7248 0.8843 0.0
H94 H 0.71209 0.61597 0.14392 0.0
H95 H 0.70043 0.70309 0.05866 0.0
H96 H 0.39903 0.44001 0.9035 0.0
H97 H 0.38504 0.52495 0.81657 0.0
H98 H 0.50345 0.35904 0.93041 0.0
H99 H 0.57803 0.35378 0.03277 0.0
C100 C 1.05033 0.42473 0.48799 0.0
C101 C 1.03638 0.45086 0.375 0.0
C102 C 0.10891 0.58037 0.41222 0.0
C103 C 0.12818 0.55157 0.5209 0.0
N104 N 0.13201 0.4398 0.65376 0.0
N105 N 0.07557 0.54398 0.22305 0.0
C106 C 0.10341 0.47172 0.55606 0.0
C107 C 0.0723 0.52606 0.33534 0.0
N108 N 1.00984 0.35767 0.53375 0.0
N109 N 0.12323 0.6608 0.38324 0.0
H110 H 0.05417 0.50373 0.16313 0.0
H111 H 0.10864 0.5938 0.18805 0.0
H112 H 0.14686 0.70296 0.43876 0.0
H113 H 0.10336 0.68764 0.30929 0.0
H114 H 1.00992 0.34246 0.61872 0.0
H115 H 0.9687 0.32142 0.49144 0.0
H116 H 0.12566 0.37805 0.67715 0.0
H117 H 0.16857 0.4734 0.70718 0.0
C118 C 0.97364 0.93476 0.89848 0.0
C119 C 0.05619 0.95815 0.85685 0.0
C120 C 1.04501 0.07982 -0.01897 0.0
C121 C 0.96753 0.05048 0.03275 0.0
N122 N 0.86582 0.94151 0.05251 0.0
N123 N 0.17893 0.04302 0.88269 0.0
C124 C 0.93426 0.97526 -0.00518 0.0
C125 C 0.09429 1.02804 0.90448 0.0
N126 N 0.93163 0.87534 0.84375 0.0
N127 N 0.07 0.1588 -0.00055 0.0
H128 H 0.21967 1.00559 0.83188 0.0
H129 H 0.21099 0.08776 0.92556 0.0
H130 H 1.03565 0.20057 0.05179 0.0
H131 H 0.12068 0.18558 -0.04657 0.0
H132 H 0.86824 0.86098 0.86356 0.0
H133 H 0.95737 0.84657 0.77083 0.0
H134 H 0.84341 0.88302 0.03547 0.0
H135 H 0.83694 0.96852 0.12492 0.0
C136 C 0.44346 0.09432 0.50699 0.0
C137 C 0.47555 1.01431 0.53414 0.0
C138 C 0.59805 0.0358 0.39912 0.0
C139 C 0.56019 0.11132 0.36233 0.0
N140 N 0.43742 0.20349 0.36758 0.0
N141 N 0.57452 0.90167 0.48439 0.0
C142 C 0.47999 0.13778 0.41243 0.0
C143 C 0.55048 0.98296 0.4744 0.0
N144 N 0.37909 0.12985 0.57361 0.0
N145 N 0.68091 1.0158 0.36741 0.0
H146 H 0.5417 0.85989 0.53645 0.0
H147 H 0.62274 0.87392 0.43277 0.0
H148 H 0.71937 0.05251 0.31462 0.0
H149 H 0.71399 0.96634 0.40231 0.0
H150 H 0.35826 0.19098 0.56451 0.0
H151 H 0.35281 0.10093 0.64552 0.0
H152 H 0.37519 0.22097 0.39357 0.0
H153 H 0.46101 0.23498 0.29625 0.0
loop_
_geom_bond_atom_site_label_1
_geom_bond_atom_site_label_2
_geom_bond_distance
_geom_bond_site_symmetry_2
_ccdc_geom_bond_type
O0 Zn1 1.953 . S
O0 C16 1.225 . S
Zn1 O0 1.953 . S
Zn1 O2 1.949 . S
Zn1 O8 1.919 . S
Zn1 O13 1.924 . S
O2 Zn1 1.949 . S
O2 Zn3 1.923 . S
O2 Zn4 1.950 . S
O2 Zn5 1.945 . S
Zn3 O2 1.923 . S
Zn3 O6 1.933 1_554 S
Zn3 O9 1.941 . S
Zn3 O10 1.965 . S
Zn4 O2 1.950 . S
Zn4 O11 1.938 . S
Zn4 O12 1.906 . S
Zn4 O22 1.953 . S
Zn5 O2 1.945 . S
Zn5 O7 1.932 1_554 S
Zn5 O14 1.977 . S
Zn5 O15 1.910 . S
O6 Zn3 1.933 1_556 S
O6 C17 1.226 . S
O7 Zn5 1.932 1_556 S
O7 C17 1.307 . S
O8 Zn1 1.919 . S
O8 C19 1.253 . S
O9 Zn3 1.941 . S
O9 C19 1.283 . S
O10 Zn3 1.965 . S
O10 C18 1.303 . S
O11 Zn4 1.938 . S
O11 C18 1.247 . S
O12 Zn4 1.906 . S
O12 C20 1.304 . S
O13 Zn1 1.924 . S
O13 C21 1.311 . S
O14 Zn5 1.977 . S
O14 C20 1.272 . S
O15 Zn5 1.910 . S
O15 C21 1.231 . S
C16 O0 1.225 . S
C16 O22 1.298 . S
C17 O6 1.226 . S
C17 O7 1.307 . S
C18 O10 1.303 . S
C18 O11 1.247 . S
C19 O8 1.253 . S
C19 O9 1.283 . S
C20 O12 1.304 . S
C20 O14 1.272 . S
C21 O13 1.311 . S
C21 O15 1.231 . S
O22 Zn4 1.953 . S
O22 C16 1.298 . S
O23 Zn24 1.953 . S
O23 C39 1.225 . S
Zn24 O23 1.953 . S
Zn24 O25 1.949 . S
Zn24 O31 1.919 . S
Zn24 O36 1.924 . S
O25 Zn24 1.949 . S
O25 Zn26 1.923 . S
O25 Zn27 1.950 . S
O25 Zn28 1.945 . S
Zn26 O25 1.923 . S
Zn26 O29 1.933 1_556 S
Zn26 O32 1.941 . S
Zn26 O33 1.965 . S
Zn27 O25 1.950 . S
Zn27 O34 1.938 . S
Zn27 O35 1.906 . S
Zn27 O45 1.953 . S
Zn28 O25 1.945 . S
Zn28 O30 1.932 1_556 S
Zn28 O37 1.977 . S
Zn28 O38 1.910 . S
O29 Zn26 1.933 1_554 S
O29 C40 1.226 . S
O30 Zn28 1.932 1_554 S
O30 C40 1.307 . S
O31 Zn24 1.919 . S
O31 C42 1.253 . S
O32 Zn26 1.941 . S
O32 C42 1.283 . S
O33 Zn26 1.965 . S
O33 C41 1.303 . S
O34 Zn27 1.938 . S
O34 C41 1.247 . S
O35 Zn27 1.906 . S
O35 C43 1.304 . S
O36 Zn24 1.924 . S
O36 C44 1.311 . S
O37 Zn28 1.977 . S
O37 C43 1.272 . S
O38 Zn28 1.910 . S
O38 C44 1.231 . S
C39 O23 1.225 . S
C39 O45 1.298 . S
C40 O29 1.226 . S
C40 O30 1.307 . S
C41 O33 1.303 . S
C41 O34 1.247 . S
C42 O31 1.253 . S
C42 O32 1.283 . S
C43 O35 1.304 . S
C43 O37 1.272 . S
C44 O36 1.311 . S
C44 O38 1.231 . S
O45 Zn27 1.953 . S
O45 C39 1.298 . S
C46 C47 1.363 . S
C46 C52 1.379 . S
C46 N54 1.356 . S
C47 C46 1.363 . S
C47 C53 1.363 . S
C48 C49 1.363 . S
C48 C53 1.379 . S
C48 N55 1.356 . S
C49 C48 1.363 . S
C49 C52 1.363 . S
N50 C52 1.356 . S
N50 H62 0.984 . S
N50 H63 0.985 . S
N51 C53 1.356 . S
N51 H56 0.984 . S
N51 H57 0.985 . S
C52 C46 1.379 . S
C52 C49 1.363 . S
C52 N50 1.356 . S
C53 C47 1.363 . S
C53 C48 1.379 . S
C53 N51 1.356 . S
N54 C46 1.356 . S
N54 H60 0.984 . S
N54 H61 0.984 . S
N55 C48 1.356 . S
N55 H58 0.984 . S
N55 H59 0.985 . S
H56 N51 0.984 . S
H57 N51 0.985 . S
H58 N55 0.984 . S
H59 N55 0.985 . S
H60 N54 0.984 . S
H61 N54 0.984 . S
H62 N50 0.984 . S
H63 N50 0.985 . S
C64 C65 1.363 . S
C64 C70 1.379 . S
C64 N72 1.356 . S
C65 C64 1.363 . S
C65 C71 1.363 . S
C66 C67 1.363 . S
C66 C71 1.379 . S
C66 N73 1.356 . S
C67 C66 1.363 . S
C67 C70 1.363 . S
N68 C70 1.356 . S
N68 H80 0.984 . S
N68 H81 0.985 . S
N69 C71 1.356 . S
N69 H74 0.984 . S
N69 H75 0.985 . S
C70 C64 1.379 . S
C70 C67 1.363 . S
C70 N68 1.356 . S
C71 C65 1.363 . S
C71 C66 1.379 . S
C71 N69 1.356 . S
N72 C64 1.356 . S
N72 H78 0.984 . S
N72 H79 0.984 . S
N73 C66 1.356 . S
N73 H76 0.982 1_554 S
N73 H77 0.985 . S
H74 N69 0.984 . S
H75 N69 0.985 . S
H76 N73 0.982 1_556 S
H77 N73 0.985 . S
H78 N72 0.984 . S
H79 N72 0.984 . S
H80 N68 0.984 . S
H81 N68 0.985 . S
C82 C83 1.363 . S
C82 C88 1.379 1_556 S
C82 N90 1.356 . S
C83 C82 1.363 . S
C83 C89 1.363 . S
C84 C85 1.363 . S
C84 C89 1.379 1_554 S
C84 N91 1.356 . S
C85 C84 1.363 . S
C85 C88 1.363 . S
N86 C88 1.356 . S
N86 H98 0.984 . S
N86 H99 0.985 . S
N87 C89 1.356 . S
N87 H92 0.984 . S
N87 H93 0.985 . S
C88 C82 1.379 1_554 S
C88 C85 1.363 . S
C88 N86 1.356 . S
C89 C83 1.363 . S
C89 C84 1.379 1_556 S
C89 N87 1.356 . S
N90 C82 1.356 . S
N90 H96 0.984 . S
N90 H97 0.984 . S
N91 C84 1.356 . S
N91 H94 0.984 . S
N91 H95 0.985 . S
H92 N87 0.984 . S
H93 N87 0.985 . S
H94 N91 0.984 . S
H95 N91 0.985 . S
H96 N90 0.984 . S
H97 N90 0.984 . S
H98 N86 0.984 . S
H99 N86 0.985 . S
C100 C101 1.363 . S
C100 C106 1.379 . S
C100 N108 1.356 . S
C101 C100 1.363 . S
C101 C107 1.363 1_655 S
C102 C103 1.363 . S
C102 C107 1.379 . S
C102 N109 1.356 . S
C103 C102 1.363 . S
C103 C106 1.363 1_455 S
N104 C106 1.356 . S
N104 H116 0.984 . S
N104 H117 0.985 1_655 S
N105 C107 1.356 . S
N105 H110 0.984 1_455 S
N105 H111 0.985 . S
C106 C100 1.379 . S
C106 C103 1.363 1_655 S
C106 N104 1.356 . S
C107 C101 1.363 1_455 S
C107 C102 1.379 . S
C107 N105 1.356 . S
N108 C100 1.356 . S
N108 H114 0.984 . S
N108 H115 0.984 . S
N109 C102 1.356 . S
N109 H112 0.984 . S
N109 H113 0.985 . S
H110 N105 0.984 1_655 S
H111 N105 0.985 . S
H112 N109 0.984 . S
H113 N109 0.985 . S
H114 N108 0.984 . S
H115 N108 0.984 . S
H116 N104 0.984 . S
H117 N104 0.985 1_455 S
C118 C119 1.363 1_655 S
C118 C124 1.379 1_556 S
C118 N126 1.356 . S
C119 C118 1.363 1_455 S
C119 C125 1.363 1_565 S
C120 C121 1.363 1_455 S
C120 C125 1.379 1_554 S
C120 N127 1.356 . S
C121 C120 1.363 1_655 S
C121 C124 1.363 1_545 S
N122 C124 1.356 . S
N122 H134 0.984 . S
N122 H135 0.990 . S
N123 C125 1.356 . S
N123 H128 0.986 . S
N123 H129 0.985 . S
C124 C118 1.379 1_554 S
C124 C121 1.363 1_565 S
C124 N122 1.356 . S
C125 C119 1.363 1_545 S
C125 C120 1.379 1_556 S
C125 N123 1.356 . S
N126 C118 1.356 . S
N126 H132 0.984 . S
N126 H133 0.984 1_655 S
N127 C120 1.356 . S
N127 H130 0.984 1_455 S
N127 H131 0.985 . S
H128 N123 0.986 . S
H129 N123 0.985 . S
H130 N127 0.984 1_655 S
H131 N127 0.985 . S
H132 N126 0.984 . S
H133 N126 0.984 1_455 S
H134 N122 0.984 . S
H135 N122 0.990 . S
C136 C137 1.363 1_545 S
C136 C142 1.379 . S
C136 N144 1.356 . S
C137 C136 1.363 1_565 S
C137 C143 1.363 . S
C138 C139 1.363 1_565 S
C138 C143 1.379 . S
C138 N145 1.356 . S
C139 C138 1.363 1_545 S
C139 C142 1.363 . S
N140 C142 1.356 . S
N140 H152 0.984 . S
N140 H153 0.985 . S
N141 C143 1.356 . S
N141 H146 0.984 . S
N141 H147 0.985 . S
C142 C136 1.379 . S
C142 C139 1.363 . S
C142 N140 1.356 . S
C143 C137 1.363 . S
C143 C138 1.379 . S
C143 N141 1.356 . S
N144 C136 1.356 . S
N144 H150 0.984 . S
N144 H151 0.984 1_545 S
N145 C138 1.356 . S
N145 H148 0.984 1_565 S
N145 H149 0.985 . S
H146 N141 0.984 . S
H147 N141 0.985 . S
H148 N145 0.984 1_545 S
H149 N145 0.985 . S
H150 N144 0.984 . S
H151 N144 0.984 1_565 S
H152 N140 0.984 . S
H153 N140 0.985 . S
C47 C17 0.339 . S
C49 C16 0.336 . S
C65 C39 0.336 . S
C67 C40 0.339 . S
C83 C42 2.068 . S
C85 C20 2.046 . S
C101 C21 2.036 . S
C103 C44 2.036 . S
C119 C43 2.046 . S
C121 C19 2.068 . S
C137 C41 2.066 . S
C139 C18 2.066 . S
