# Generated by pormake.
# Topology hex, (8)-cn, num edge types: 1
# Building blocks:
#     Node 0, Type 0, BuildingBlock: EBIMEJ_clean_sbu_0, # of connection points: 8
#     Edge 1, Type (0, 0), BuildingBlock: EYOCIG_clean_linker_4, # of connection points: 2
#     Edge 2, Type (0, 0), BuildingBlock: EYOCIG_clean_linker_4, # of connection points: 2
#     Edge 3, Type (0, 0), BuildingBlock: EYOCIG_clean_linker_4, # of connection points: 2
#     Edge 4, Type (0, 0), BuildingBlock: EYOCIG_clean_linker_4, # of connection points: 2
# Relax obj value: 0.010
# Max RMSD: 0.048
# Mean RMSD: 0.048
data_MOF--net-hex--node1-EBIMEJ_clean_sbu_0--edge1-EYOCIG_clean_linker_4
_symmetry_space_group_name_H-M    P1
_symmetry_Int_Tables_number       1
_symmetry_cell_setting            triclinic
loop_
_symmetry_equiv_pos_as_xyz
'x, y, z'
_cell_length_a     14.51258
_cell_length_b     17.195909
_cell_length_c     13.069573
_cell_angle_alpha  74.777217
_cell_angle_beta   113.25358
_cell_angle_gamma 126.6198
loop_
_atom_site_label
_atom_site_type_symbol
_atom_site_fract_x
_atom_site_fract_y
_atom_site_fract_z
_atom_type_partial_charge
Co0 Co 0.98579 0.86009 0.9534 0.0
Co1 Co 0.87214 0.95897 0.00273 0.0
Co2 Co 0.12629 0.08463 0.99141 0.0
H3 H 0.04265 0.96992 0.99507 0.0
O4 O 0.0104 0.94819 0.04762 0.0
H5 H 0.95586 0.07369 -0.0008 0.0
O6 O 0.98808 0.09543 0.94663 0.0
Co7 Co 0.01293 0.18355 0.04101 0.0
O8 O 0.83964 0.12031 0.035 0.0
O9 O 0.73707 0.97562 0.96146 0.0
O10 O 0.18676 0.28786 0.04309 0.0
O11 O 0.23779 0.22509 0.96081 0.0
O12 O 0.96496 0.75487 0.88285 0.0
O13 O 0.00858 0.75511 0.05534 0.0
O14 O 0.05289 0.13517 0.19776 0.0
O15 O 0.91123 0.97854 0.16422 0.0
C16 C 0.257 1.00183 -0.00038 0.0
C17 C 0.74218 0.74735 0.99586 0.0
C18 C 0.01169 0.3299 0.01985 0.0
C19 C 0.00969 0.9949 0.76353 0.0
C20 C 0.74136 0.04209 0.99344 0.0
C21 C 0.25679 0.29606 -0.00068 0.0
C22 C 0.98783 0.71406 0.97503 0.0
C23 C 0.98827 0.04855 0.23067 0.0
O24 O 0.15869 0.9237 0.95789 0.0
O25 O 0.26133 0.06798 0.03238 0.0
O26 O 0.7606 0.81851 0.03336 0.0
O27 O 0.81249 0.75538 0.95262 0.0
O28 O 0.03579 0.28957 0.11201 0.0
O29 O 0.98927 0.28819 0.93929 0.0
O30 O 0.94528 0.90831 0.79663 0.0
O31 O 0.08688 0.06499 0.82986 0.0
C32 C 0.00257 0.48176 0.00122 0.0
C33 C 0.00634 0.41242 0.00824 0.0
C34 C 0.99734 0.56234 0.99409 0.0
C35 C 0.99339 0.63161 0.98695 0.0
C36 C 0.54701 0.02308 0.99246 0.0
C37 C 0.63192 0.02697 0.99033 0.0
C38 C 0.45123 1.02123 -0.00041 0.0
C39 C 0.36638 1.01716 0.0022 0.0
C40 C 0.4497 0.47307 0.99642 0.0
C41 C 0.36326 0.39084 0.99552 0.0
C42 C 0.54967 0.57024 -0.00046 0.0
C43 C 0.6359 0.65253 5e-05 0.0
C44 C 0.00152 1.01876 0.55297 0.0
C45 C 0.00804 1.01109 0.64957 0.0
C46 C 0.99599 0.02451 0.44112 0.0
C47 C 0.98965 0.03223 0.34456 0.0
loop_
_geom_bond_atom_site_label_1
_geom_bond_atom_site_label_2
_geom_bond_distance
_geom_bond_site_symmetry_2
_ccdc_geom_bond_type
Co0 H3 2.400 1_556 S
Co0 O4 2.009 1_556 S
Co0 O12 2.115 1_455 S
Co0 O13 2.315 1_556 S
Co0 O24 2.053 . S
Co0 O27 2.094 1_455 S
Co0 O30 2.122 1_455 S
Co1 O4 2.126 1_655 S
Co1 H5 2.388 1_564 S
Co1 O6 2.053 1_564 S
Co1 O9 2.047 1_554 S
Co1 O15 2.113 . S
Co1 O26 2.063 . S
Co2 H3 2.388 1_546 S
Co2 O4 2.053 1_546 S
Co2 O6 2.126 1_455 S
Co2 O11 2.063 . S
Co2 O25 2.047 1_556 S
Co2 O31 2.113 . S
H3 Co0 2.400 1_554 S
H3 Co2 2.388 1_564 S
H3 O4 0.760 . S
O4 Co0 2.009 1_554 S
O4 Co1 2.126 1_455 S
O4 Co2 2.053 1_564 S
O4 H3 0.760 . S
H5 Co1 2.388 1_546 S
H5 O6 0.760 . S
H5 Co7 2.400 1_556 S
O6 Co1 2.053 1_546 S
O6 Co2 2.126 1_655 S
O6 H5 0.760 . S
O6 Co7 2.009 1_556 S
Co7 H5 2.400 1_554 S
Co7 O6 2.009 1_554 S
Co7 O8 2.053 . S
Co7 O10 2.094 1_655 S
Co7 O14 2.122 1_655 S
Co7 O28 2.115 1_655 S
Co7 O29 2.315 1_554 S
O8 Co7 2.053 . S
O8 C20 1.259 . S
O9 Co1 2.047 1_556 S
O9 C20 1.257 1_566 S
O10 Co7 2.094 1_455 S
O10 C21 1.253 . S
O11 Co2 2.063 . S
O11 C21 1.268 1_556 S
O12 Co0 2.115 1_655 S
O12 C22 1.281 1_556 S
O13 Co0 2.315 1_554 S
O13 C22 1.252 1_455 S
O14 Co7 2.122 1_455 S
O14 C23 1.272 1_455 S
O15 Co1 2.113 . S
O15 C23 1.245 1_565 S
C16 O24 1.259 . S
C16 O25 1.257 1_566 S
C17 O26 1.268 1_556 S
C17 O27 1.253 . S
C18 O28 1.281 1_556 S
C18 O29 1.252 1_455 S
C19 O30 1.272 1_455 S
C19 O31 1.245 1_565 S
C20 O8 1.259 . S
C20 O9 1.257 1_544 S
C21 O10 1.253 . S
C21 O11 1.268 1_554 S
C22 O12 1.281 1_554 S
C22 O13 1.252 1_655 S
C23 O14 1.272 1_655 S
C23 O15 1.245 1_545 S
O24 Co0 2.053 . S
O24 C16 1.259 . S
O25 Co2 2.047 1_554 S
O25 C16 1.257 1_544 S
O26 Co1 2.063 . S
O26 C17 1.268 1_554 S
O27 Co0 2.094 1_655 S
O27 C17 1.253 . S
O28 Co7 2.115 1_455 S
O28 C18 1.281 1_554 S
O29 Co7 2.315 1_556 S
O29 C18 1.252 1_655 S
O30 Co0 2.122 1_655 S
O30 C19 1.272 1_655 S
O31 Co2 2.113 . S
O31 C19 1.245 1_545 S
C32 C33 1.170 1_655 S
C32 C34 1.380 1_556 S
C33 C32 1.170 1_455 S
C34 C32 1.380 1_554 S
C34 C35 1.170 . S
C35 C34 1.170 . S
C36 C37 1.170 1_556 S
C36 C38 1.374 1_565 S
C37 C36 1.170 1_554 S
C38 C36 1.374 1_545 S
C38 C39 1.177 . S
C39 C38 1.177 . S
C40 C41 1.170 . S
C40 C42 1.380 . S
C41 C40 1.170 . S
C42 C40 1.380 . S
C42 C43 1.170 1_554 S
C43 C42 1.170 1_556 S
C44 C45 1.175 1_655 S
C44 C46 1.380 . S
C45 C44 1.175 1_455 S
C46 C44 1.380 . S
C46 C47 1.170 . S
C47 C46 1.170 . S
C33 C18 1.592 . S
C35 C22 1.620 . S
C37 C20 1.133 1_565 S
C39 C16 1.139 1_545 S
C41 C21 1.705 . S
C43 C17 1.705 . S
C45 C19 1.475 1_545 S
C47 C23 1.447 . S
