# Generated by pormake.
# Topology vme, (6)-cn, num edge types: 1
# Building blocks:
#     Node 0, Type 0, BuildingBlock: MIDCAF_clean_sbu_0, # of connection points: 6
#     Node 1, Type 0, BuildingBlock: MIDCAF_clean_sbu_0, # of connection points: 6
#     Node 2, Type 0, BuildingBlock: MIDCAF_clean_sbu_0, # of connection points: 6
#     Node 3, Type 0, BuildingBlock: MIDCAF_clean_sbu_0, # of connection points: 6
#     Edge 4, Type (0, 0), BuildingBlock: OJICUG_clean_linker_0, # of connection points: 2
#     Edge 5, Type (0, 0), BuildingBlock: OJICUG_clean_linker_0, # of connection points: 2
#     Edge 6, Type (0, 0), BuildingBlock: OJICUG_clean_linker_0, # of connection points: 2
#     Edge 7, Type (0, 0), BuildingBlock: OJICUG_clean_linker_0, # of connection points: 2
#     Edge 8, Type (0, 0), BuildingBlock: OJICUG_clean_linker_0, # of connection points: 2
#     Edge 9, Type (0, 0), BuildingBlock: OJICUG_clean_linker_0, # of connection points: 2
#     Edge 10, Type (0, 0), BuildingBlock: OJICUG_clean_linker_0, # of connection points: 2
#     Edge 11, Type (0, 0), BuildingBlock: OJICUG_clean_linker_0, # of connection points: 2
#     Edge 12, Type (0, 0), BuildingBlock: OJICUG_clean_linker_0, # of connection points: 2
#     Edge 13, Type (0, 0), BuildingBlock: OJICUG_clean_linker_0, # of connection points: 2
#     Edge 14, Type (0, 0), BuildingBlock: OJICUG_clean_linker_0, # of connection points: 2
#     Edge 15, Type (0, 0), BuildingBlock: OJICUG_clean_linker_0, # of connection points: 2
# Relax obj value: 0.250
# Max RMSD: 0.207
# Mean RMSD: 0.207
data_MOF--net-vme--node1-MIDCAF_clean_sbu_0--edge1-OJICUG_clean_linker_0
_symmetry_space_group_name_H-M    P1
_symmetry_Int_Tables_number       1
_symmetry_cell_setting            triclinic
loop_
_symmetry_equiv_pos_as_xyz
'x, y, z'
_cell_length_a     16.811913
_cell_length_b     18.303377
_cell_length_c     20.263078
_cell_angle_alpha  91.473657
_cell_angle_beta   98.783467
_cell_angle_gamma 89.356855
loop_
_atom_site_label
_atom_site_type_symbol
_atom_site_fract_x
_atom_site_fract_y
_atom_site_fract_z
_atom_type_partial_charge
Zn0 Zn 0.25371 0.50997 0.23448 0.0
Zn1 Zn 0.16794 0.18534 0.38692 0.0
Zn2 Zn 0.19979 0.39884 0.30504 0.0
C3 C 0.28328 0.30522 0.41681 0.0
C4 C 0.16983 0.24217 0.25336 0.0
O5 O 0.1068 0.4811 0.29812 0.0
O6 O 0.15272 0.56912 0.24238 0.0
C7 C 0.36271 0.48511 0.35698 0.0
O8 O 0.27257 0.37258 0.4012 0.0
O9 O 0.26196 0.25698 0.37109 0.0
O10 O 0.21479 0.22909 0.3082 0.0
O11 O 0.17047 0.30775 0.23277 0.0
O12 O 0.34935 0.52461 0.30602 0.0
O13 O 0.3134 0.43406 0.3651 0.0
O14 O 0.23393 0.35698 0.21084 0.0
O15 O 0.27023 0.44777 0.15259 0.0
C16 C 0.26064 0.37997 0.15904 0.0
O17 O 0.13082 0.33116 0.35991 0.0
O18 O 0.07667 0.25156 0.41807 0.0
C19 C 0.09903 0.54443 0.27321 0.0
C20 C 0.08154 0.31742 0.39973 0.0
Zn21 Zn 0.90423 0.82255 0.07865 0.0
Zn22 Zn 0.74036 1.00555 0.19001 0.0
Zn23 Zn 0.80958 0.90322 0.12552 0.0
C24 C 0.73441 0.87212 0.25776 0.0
C25 C 0.65048 0.98661 0.0609 0.0
O26 O 0.91558 0.95939 0.09885 0.0
O27 O 1.00405 0.87606 0.077 0.0
C28 C 0.87692 0.74348 0.18082 0.0
O29 O 0.77972 0.84955 0.21528 0.0
O30 O 0.70808 0.93713 0.25591 0.0
O31 O 0.66027 0.029 0.1116 0.0
O32 O 0.69754 0.93077 0.05777 0.0
O33 O 0.9088 0.73445 0.12896 0.0
O34 O 0.83866 0.80366 0.19036 0.0
O35 O 0.7434 0.8767 0.0239 0.0
O36 O 0.84373 0.81535 -0.01074 0.0
C37 C 0.77412 0.84245 -0.02267 0.0
O38 O 0.88934 0.99897 0.15424 0.0
O39 O 0.8297 0.07632 0.21664 0.0
C40 C 0.98197 0.94209 0.07758 0.0
C41 C 0.89043 0.05828 0.19006 0.0
Zn42 Zn 0.73594 0.54581 0.68191 0.0
Zn43 Zn 0.89216 0.68665 0.56037 0.0
Zn44 Zn 0.80722 0.62342 0.61212 0.0
C45 C 0.7498 0.72148 0.49559 0.0
C46 C 0.93072 0.74043 0.67978 0.0
O47 O 0.88602 0.52628 0.63884 0.0
O48 O 0.83147 0.48596 0.72311 0.0
C49 C 0.64461 0.54816 0.55334 0.0
O50 O 0.73959 0.65676 0.51581 0.0
O51 O 0.80821 0.75866 0.52458 0.0
O52 O 0.97192 0.71523 0.63741 0.0
O53 O 0.85627 0.72135 0.67534 0.0
O54 O 0.65804 0.50824 0.60398 0.0
O55 O 0.69128 0.60242 0.54838 0.0
O56 O 0.78799 0.69269 0.70039 0.0
O57 O 0.69647 0.62606 0.7374 0.0
C58 C 0.73479 0.68523 0.73942 0.0
O59 O 0.89898 0.54908 0.57879 0.0
O60 O 0.92787 0.61538 0.49636 0.0
C61 C 0.88865 0.48436 0.68926 0.0
C62 C 0.93062 0.55494 0.52502 0.0
Zn63 Zn 0.12625 0.20713 0.9453 0.0
Zn64 Zn 0.27805 0.03341 0.73734 0.0
Zn65 Zn 0.21773 0.13102 0.80321 0.0
C66 C 0.2576 0.17013 0.66533 0.0
C67 C 0.39012 0.05725 0.85024 0.0
O68 O 0.11325 0.08056 0.8303 0.0
O69 O 0.05196 0.17803 0.86232 0.0
C70 C 0.12949 0.2767 0.79481 0.0
O71 O 0.22128 0.19458 0.71292 0.0
O72 O 0.28482 0.10535 0.66694 0.0
O73 O 0.37614 0.01345 0.80088 0.0
O74 O 0.33985 0.10926 0.85752 0.0
O75 O 0.11759 0.26281 0.85411 0.0
O76 O 0.17066 0.23268 0.76239 0.0
O77 O 0.29345 0.16671 0.89726 0.0
O78 O 0.21059 0.12701 0.96062 0.0
C79 C 0.27368 0.16129 0.95578 0.0
O80 O 0.14047 0.03028 0.78829 0.0
O81 O 0.19811 0.95353 0.7241 0.0
C82 C 0.05869 0.10912 0.86097 0.0
C83 C 0.14153 0.96837 0.75662 0.0
C84 C 0.04016 0.07451 0.21142 0.0
C85 C 0.96249 0.10536 0.2008 0.0
H86 H 0.16699 0.09417 0.23781 0.0
C87 C 0.95394 0.18178 0.20384 0.0
H88 H 0.04836 0.01574 0.2099 0.0
C89 C 0.02169 0.22652 0.21784 0.0
C90 C 0.09914 0.19556 0.23105 0.0
H91 H 0.89472 0.20693 0.19575 0.0
H92 H 0.01325 0.28521 0.22098 0.0
C93 C 0.10784 0.11922 0.22752 0.0
C94 C 0.9521 0.56535 0.23936 0.0
C95 C 0.02562 0.58874 0.27545 0.0
H96 H 0.84064 0.59936 0.18209 0.0
C97 C 0.03267 0.66138 0.29949 0.0
H98 H 0.94542 0.50959 0.22018 0.0
C99 C 0.97117 0.71215 0.28007 0.0
C100 C 0.9038 0.69144 0.23388 0.0
H101 H 0.0889 0.68048 0.32766 0.0
H102 H 0.98268 0.76946 0.2922 0.0
C103 C 0.89154 0.61663 0.21836 0.0
C104 C 0.1015 0.84138 0.77408 0.0
C105 C 0.07844 0.91343 0.75829 0.0
H106 H 0.06861 0.7287 0.76512 0.0
C107 C 0.99756 0.92872 0.73328 0.0
H108 H 0.16354 0.82848 0.79373 0.0
C109 C 0.94303 0.87119 0.71619 0.0
C110 C 0.96873 0.79825 0.72544 0.0
H111 H 0.97872 0.98403 0.72048 0.0
H112 H 0.88406 0.8833 0.68881 0.0
C113 C 0.04689 0.78441 0.75849 0.0
C114 C 0.98852 0.38543 0.66905 0.0
C115 C 0.96015 0.43839 0.71142 0.0
H116 H 0.06552 0.29177 0.66201 0.0
C117 C 0.99685 0.44394 0.77819 0.0
H118 H 0.95998 0.3791 0.61787 0.0
C119 C 0.05779 0.39524 0.8032 0.0
C120 C 0.0827 0.33875 0.76236 0.0
H121 H 0.97647 0.48464 0.81177 0.0
H122 H 0.08228 0.39927 0.85583 0.0
C123 C 0.04928 0.33568 0.69434 0.0
C124 C 0.93531 0.42328 0.49088 0.0
C125 C 0.97037 0.49277 0.49644 0.0
H126 H 0.94327 0.31236 0.45521 0.0
C127 C 0.04142 0.50416 0.47012 0.0
H128 H 0.87951 0.41397 0.50987 0.0
C129 C 0.07749 0.44674 0.43916 0.0
C130 C 0.04204 0.37737 0.43231 0.0
H131 H 0.06947 0.55745 0.47399 0.0
H132 H 0.13408 0.45644 0.42175 0.0
C133 C 0.97126 0.36563 0.45931 0.0
C134 C 0.07118 0.96642 -0.00586 0.0
C135 C 0.01558 0.99316 0.03406 0.0
H136 H 0.12506 0.97902 0.90715 0.0
C137 C 0.97762 0.06097 0.01898 0.0
H138 H 0.10151 0.91441 0.00401 0.0
C139 C 0.99098 0.09855 0.9625 0.0
C140 C 0.04217 0.06889 0.9199 0.0
H141 H 0.9339 0.08303 0.04835 0.0
H142 H 0.95977 0.1499 0.95132 0.0
C143 C 0.08329 1.00303 0.93732 0.0
C144 C 0.28876 0.29318 -0.00882 0.0
C145 C 0.29552 0.21889 0.00738 0.0
H146 H 0.27141 0.40306 0.02668 0.0
C147 C 0.30072 0.19967 0.07446 0.0
H148 H 0.2827 0.3093 0.93957 0.0
C149 C 0.29317 0.25269 0.12381 0.0
C150 C 0.27941 0.32632 0.10724 0.0
H151 H 0.30515 0.14272 0.0881 0.0
H152 H 0.29524 0.23537 0.1747 0.0
C153 C 0.28097 0.34663 0.04089 0.0
C154 C 0.68739 0.85854 0.36789 0.0
C155 C 0.71734 0.82572 0.31295 0.0
H156 H 0.67094 0.84871 0.46989 0.0
C157 C 0.73514 0.75051 0.31431 0.0
H158 H 0.67135 0.91601 0.36832 0.0
C159 C 0.73271 0.71135 0.37257 0.0
C160 C 0.71254 0.74711 0.43003 0.0
H161 H 0.75497 0.72287 0.27191 0.0
H162 H 0.75508 0.65557 0.37492 0.0
C163 C 0.68551 0.81972 0.42591 0.0
C164 C 0.67953 0.76839 0.89948 0.0
C165 C 0.73162 0.82813 0.90955 0.0
H166 H 0.6399 0.67571 0.83739 0.0
C167 C 0.77009 0.85004 0.8564 0.0
H168 H 0.65035 0.74962 0.94001 0.0
C169 C 0.766 0.80678 0.79807 0.0
C170 C 0.72327 0.741 0.79191 0.0
H171 H 0.81154 0.89552 0.86333 0.0
H172 H 0.80127 0.82191 0.76038 0.0
C173 C 0.67527 0.72514 0.84106 0.0
C174 C 0.32039 0.18349 0.5631 0.0
C175 C 0.2709 0.21394 0.6071 0.0
H176 H 0.36337 0.18955 0.4697 0.0
C177 C 0.23466 0.28249 0.59236 0.0
H178 H 0.35131 0.13176 0.57295 0.0
C179 C 0.24349 0.31679 0.53235 0.0
C180 C 0.28817 0.28246 0.48665 0.0
H181 H 0.19755 0.30814 0.62564 0.0
H182 H 0.2118 0.36759 0.52007 0.0
C183 C 0.32834 0.21692 0.50382 0.0
C184 C 0.48729 0.55792 0.39759 0.0
C185 C 0.43561 0.50003 0.40683 0.0
H186 H 0.59333 0.61869 0.43598 0.0
C187 C 0.45432 0.4578 0.46399 0.0
H188 H 0.47496 0.59176 0.35409 0.0
C189 C 0.52249 0.47331 0.51083 0.0
C190 C 0.57376 0.53158 0.50192 0.0
H191 H 0.41632 0.4129 0.47291 0.0
H192 H 0.53457 0.43964 0.55446 0.0
C193 C 0.55543 0.57355 0.44456 0.0
C194 C 0.50439 0.9765 0.89859 0.0
C195 C 0.46033 0.04225 0.90193 0.0
H196 H 0.59732 0.90643 0.94638 0.0
C197 C 0.48091 0.08988 0.95692 0.0
H198 H 0.48996 0.93809 0.85703 0.0
C199 C 0.54289 0.07153 0.008 0.0
C200 C 0.58583 1.00505 0.0054 0.0
H201 H 0.44887 0.14101 0.961 0.0
H202 H 0.55672 0.10965 0.04985 0.0
C203 C 0.56618 0.95802 0.94984 0.0
loop_
_geom_bond_atom_site_label_1
_geom_bond_atom_site_label_2
_geom_bond_distance
_geom_bond_site_symmetry_2
_ccdc_geom_bond_type
Zn0 O6 1.920 . S
Zn0 O12 1.898 . S
Zn0 O15 1.905 . S
Zn1 O9 1.905 . S
Zn1 O10 1.898 . S
Zn1 O18 1.920 . S
Zn2 O5 2.080 . S
Zn2 O8 2.114 . S
Zn2 O11 2.120 . S
Zn2 O13 2.120 . S
Zn2 O14 2.114 . S
Zn2 O17 2.080 . S
C3 O8 1.166 . S
C3 O9 1.182 . S
C4 O10 1.167 . S
C4 O11 1.299 . S
O5 Zn2 2.080 . S
O5 C19 1.305 . S
O6 Zn0 1.920 . S
O6 C19 1.234 . S
C7 O12 1.167 . S
C7 O13 1.299 . S
O8 Zn2 2.114 . S
O8 C3 1.166 . S
O9 Zn1 1.905 . S
O9 C3 1.182 . S
O10 Zn1 1.898 . S
O10 C4 1.167 . S
O11 Zn2 2.120 . S
O11 C4 1.299 . S
O12 Zn0 1.898 . S
O12 C7 1.167 . S
O13 Zn2 2.120 . S
O13 C7 1.299 . S
O14 Zn2 2.114 . S
O14 C16 1.166 . S
O15 Zn0 1.905 . S
O15 C16 1.182 . S
C16 O14 1.166 . S
C16 O15 1.182 . S
O17 Zn2 2.080 . S
O17 C20 1.305 . S
O18 Zn1 1.920 . S
O18 C20 1.234 . S
C19 O5 1.305 . S
C19 O6 1.234 . S
C20 O17 1.305 . S
C20 O18 1.234 . S
Zn21 O27 1.920 . S
Zn21 O33 1.898 . S
Zn21 O36 1.905 1_554 S
Zn22 O30 1.905 . S
Zn22 O31 1.898 . S
Zn22 O39 1.920 1_565 S
Zn23 O26 2.080 . S
Zn23 O29 2.114 . S
Zn23 O32 2.120 . S
Zn23 O34 2.120 . S
Zn23 O35 2.114 . S
Zn23 O38 2.080 . S
C24 O29 1.166 . S
C24 O30 1.182 . S
C25 O31 1.167 . S
C25 O32 1.299 . S
O26 Zn23 2.080 . S
O26 C40 1.305 . S
O27 Zn21 1.920 . S
O27 C40 1.234 . S
C28 O33 1.167 . S
C28 O34 1.299 . S
O29 Zn23 2.114 . S
O29 C24 1.166 . S
O30 Zn22 1.905 . S
O30 C24 1.182 . S
O31 Zn22 1.898 . S
O31 C25 1.167 . S
O32 Zn23 2.120 . S
O32 C25 1.299 . S
O33 Zn21 1.898 . S
O33 C28 1.167 . S
O34 Zn23 2.120 . S
O34 C28 1.299 . S
O35 Zn23 2.114 . S
O35 C37 1.166 1_554 S
O36 Zn21 1.905 1_556 S
O36 C37 1.182 . S
C37 O35 1.166 1_556 S
C37 O36 1.182 . S
O38 Zn23 2.080 . S
O38 C41 1.305 1_565 S
O39 Zn22 1.920 1_545 S
O39 C41 1.234 . S
C40 O26 1.305 . S
C40 O27 1.234 . S
C41 O38 1.305 1_545 S
C41 O39 1.234 . S
Zn42 O48 1.920 . S
Zn42 O54 1.898 . S
Zn42 O57 1.905 . S
Zn43 O51 1.905 . S
Zn43 O52 1.898 . S
Zn43 O60 1.920 . S
Zn44 O47 2.080 . S
Zn44 O50 2.114 . S
Zn44 O53 2.120 . S
Zn44 O55 2.120 . S
Zn44 O56 2.114 . S
Zn44 O59 2.080 . S
C45 O50 1.166 . S
C45 O51 1.182 . S
C46 O52 1.167 . S
C46 O53 1.299 . S
O47 Zn44 2.080 . S
O47 C61 1.305 . S
O48 Zn42 1.920 . S
O48 C61 1.234 . S
C49 O54 1.167 . S
C49 O55 1.299 . S
O50 Zn44 2.114 . S
O50 C45 1.166 . S
O51 Zn43 1.905 . S
O51 C45 1.182 . S
O52 Zn43 1.898 . S
O52 C46 1.167 . S
O53 Zn44 2.120 . S
O53 C46 1.299 . S
O54 Zn42 1.898 . S
O54 C49 1.167 . S
O55 Zn44 2.120 . S
O55 C49 1.299 . S
O56 Zn44 2.114 . S
O56 C58 1.166 . S
O57 Zn42 1.905 . S
O57 C58 1.182 . S
C58 O56 1.166 . S
C58 O57 1.182 . S
O59 Zn44 2.080 . S
O59 C62 1.305 . S
O60 Zn43 1.920 . S
O60 C62 1.234 . S
C61 O47 1.305 . S
C61 O48 1.234 . S
C62 O59 1.305 . S
C62 O60 1.234 . S
Zn63 O69 1.920 . S
Zn63 O75 1.898 . S
Zn63 O78 1.905 1_556 S
Zn64 O72 1.905 . S
Zn64 O73 1.898 . S
Zn64 O81 1.920 1_545 S
Zn65 O68 2.080 . S
Zn65 O71 2.114 . S
Zn65 O74 2.120 . S
Zn65 O76 2.120 . S
Zn65 O77 2.114 . S
Zn65 O80 2.080 . S
C66 O71 1.166 . S
C66 O72 1.182 . S
C67 O73 1.167 . S
C67 O74 1.299 . S
O68 Zn65 2.080 . S
O68 C82 1.305 . S
O69 Zn63 1.920 . S
O69 C82 1.234 . S
C70 O75 1.167 . S
C70 O76 1.299 . S
O71 Zn65 2.114 . S
O71 C66 1.166 . S
O72 Zn64 1.905 . S
O72 C66 1.182 . S
O73 Zn64 1.898 . S
O73 C67 1.167 . S
O74 Zn65 2.120 . S
O74 C67 1.299 . S
O75 Zn63 1.898 . S
O75 C70 1.167 . S
O76 Zn65 2.120 . S
O76 C70 1.299 . S
O77 Zn65 2.114 . S
O77 C79 1.166 1_556 S
O78 Zn63 1.905 1_554 S
O78 C79 1.182 . S
C79 O77 1.166 1_554 S
C79 O78 1.182 . S
O80 Zn65 2.080 . S
O80 C83 1.305 1_545 S
O81 Zn64 1.920 1_565 S
O81 C83 1.234 . S
C82 O68 1.305 . S
C82 O69 1.234 . S
C83 O80 1.305 1_565 S
C83 O81 1.234 . S
C84 C85 1.387 . S
C84 H88 0.950 . S
C84 C93 1.390 . S
C85 C84 1.387 . S
C85 C87 1.387 . S
H86 C93 0.950 . S
C87 C85 1.387 . S
C87 C89 1.390 . S
C87 H91 0.950 . S
H88 C84 0.950 . S
C89 C87 1.390 . S
C89 C90 1.387 1_655 S
C89 H92 0.950 1_655 S
C90 C89 1.387 1_455 S
C90 C93 1.387 1_455 S
H91 C87 0.950 . S
H92 C89 0.950 1_455 S
C93 C84 1.390 . S
C93 H86 0.950 . S
C93 C90 1.387 1_655 S
C94 C95 1.387 . S
C94 H98 0.950 1_455 S
C94 C103 1.390 1_455 S
C95 C94 1.387 . S
C95 C97 1.387 . S
H96 C103 0.950 . S
C97 C95 1.387 . S
C97 C99 1.390 . S
C97 H101 0.950 . S
H98 C94 0.950 1_655 S
C99 C97 1.390 . S
C99 C100 1.387 1_455 S
C99 H102 0.950 . S
C100 C99 1.387 1_655 S
C100 C103 1.387 . S
H101 C97 0.950 . S
H102 C99 0.950 . S
C103 C94 1.390 1_655 S
C103 H96 0.950 . S
C103 C100 1.387 . S
C104 C105 1.387 . S
C104 H108 0.950 . S
C104 C113 1.390 . S
C105 C104 1.387 . S
C105 C107 1.387 . S
H106 C113 0.950 . S
C107 C105 1.387 . S
C107 C109 1.390 1_455 S
C107 H111 0.950 1_455 S
H108 C104 0.950 . S
C109 C107 1.390 1_655 S
C109 C110 1.387 . S
C109 H112 0.950 . S
C110 C109 1.387 . S
C110 C113 1.387 1_655 S
H111 C107 0.950 1_655 S
H112 C109 0.950 . S
C113 C104 1.390 . S
C113 H106 0.950 . S
C113 C110 1.387 1_455 S
C114 C115 1.387 . S
C114 H118 0.950 . S
C114 C123 1.390 . S
C115 C114 1.387 . S
C115 C117 1.387 . S
H116 C123 0.950 . S
C117 C115 1.387 . S
C117 C119 1.390 1_655 S
C117 H121 0.950 . S
H118 C114 0.950 . S
C119 C117 1.390 1_455 S
C119 C120 1.387 . S
C119 H122 0.950 . S
C120 C119 1.387 . S
C120 C123 1.387 1_455 S
H121 C117 0.950 . S
H122 C119 0.950 . S
C123 C114 1.390 . S
C123 H116 0.950 . S
C123 C120 1.387 1_655 S
C124 C125 1.387 . S
C124 H128 0.950 . S
C124 C133 1.390 . S
C125 C124 1.387 . S
C125 C127 1.387 1_655 S
H126 C133 0.950 . S
C127 C125 1.387 1_455 S
C127 C129 1.390 . S
C127 H131 0.950 . S
H128 C124 0.950 . S
C129 C127 1.390 . S
C129 C130 1.387 . S
C129 H132 0.950 . S
C130 C129 1.387 . S
C130 C133 1.387 1_455 S
H131 C127 0.950 . S
H132 C129 0.950 . S
C133 C124 1.390 . S
C133 H126 0.950 . S
C133 C130 1.387 1_655 S
C134 C135 1.398 . S
C134 H138 0.951 . S
C134 C143 1.379 1_654 S
C135 C134 1.398 . S
C135 C137 1.387 1_565 S
H136 C143 0.950 . S
C137 C135 1.387 1_545 S
C137 C139 1.379 1_654 S
C137 H141 0.950 . S
H138 C134 0.951 . S
C139 C137 1.379 1_456 S
C139 C140 1.398 . S
C139 H142 0.951 . S
C140 C139 1.398 . S
C140 C143 1.387 1_545 S
H141 C137 0.950 . S
H142 C139 0.951 . S
C143 C134 1.379 1_456 S
C143 H136 0.950 . S
C143 C140 1.387 1_565 S
C144 C145 1.387 . S
C144 H148 0.950 . S
C144 C153 1.390 . S
C145 C144 1.387 . S
C145 C147 1.387 . S
H146 C153 0.950 . S
C147 C145 1.387 . S
C147 C149 1.390 . S
C147 H151 0.950 . S
H148 C144 0.950 . S
C149 C147 1.390 . S
C149 C150 1.387 . S
C149 H152 0.950 . S
C150 C149 1.387 . S
C150 C153 1.387 . S
H151 C147 0.950 . S
H152 C149 0.950 . S
C153 C144 1.390 . S
C153 H146 0.950 . S
C153 C150 1.387 . S
C154 C155 1.387 . S
C154 H158 0.950 . S
C154 C163 1.390 . S
C155 C154 1.387 . S
C155 C157 1.387 . S
H156 C163 0.950 . S
C157 C155 1.387 . S
C157 C159 1.390 . S
C157 H161 0.950 . S
H158 C154 0.950 . S
C159 C157 1.390 . S
C159 C160 1.387 . S
C159 H162 0.950 . S
C160 C159 1.387 . S
C160 C163 1.387 . S
H161 C157 0.950 . S
H162 C159 0.950 . S
C163 C154 1.390 . S
C163 H156 0.950 . S
C163 C160 1.387 . S
C164 C165 1.387 . S
C164 H168 0.950 . S
C164 C173 1.390 . S
C165 C164 1.387 . S
C165 C167 1.387 . S
H166 C173 0.950 . S
C167 C165 1.387 . S
C167 C169 1.390 . S
C167 H171 0.950 . S
H168 C164 0.950 . S
C169 C167 1.390 . S
C169 C170 1.387 . S
C169 H172 0.950 . S
C170 C169 1.387 . S
C170 C173 1.387 . S
H171 C167 0.950 . S
H172 C169 0.950 . S
C173 C164 1.390 . S
C173 H166 0.950 . S
C173 C170 1.387 . S
C174 C175 1.387 . S
C174 H178 0.950 . S
C174 C183 1.390 . S
C175 C174 1.387 . S
C175 C177 1.387 . S
H176 C183 0.950 . S
C177 C175 1.387 . S
C177 C179 1.390 . S
C177 H181 0.950 . S
H178 C174 0.950 . S
C179 C177 1.390 . S
C179 C180 1.387 . S
C179 H182 0.950 . S
C180 C179 1.387 . S
C180 C183 1.387 . S
H181 C177 0.950 . S
H182 C179 0.950 . S
C183 C174 1.390 . S
C183 H176 0.950 . S
C183 C180 1.387 . S
C184 C185 1.387 . S
C184 H188 0.950 . S
C184 C193 1.390 . S
C185 C184 1.387 . S
C185 C187 1.387 . S
H186 C193 0.950 . S
C187 C185 1.387 . S
C187 C189 1.390 . S
C187 H191 0.950 . S
H188 C184 0.950 . S
C189 C187 1.390 . S
C189 C190 1.387 . S
C189 H192 0.950 . S
C190 C189 1.387 . S
C190 C193 1.387 . S
H191 C187 0.950 . S
H192 C189 0.950 . S
C193 C184 1.390 . S
C193 H186 0.950 . S
C193 C190 1.387 . S
C194 C195 1.387 1_565 S
C194 H198 0.950 . S
C194 C203 1.390 . S
C195 C194 1.387 1_545 S
C195 C197 1.387 1_556 S
H196 C203 0.950 . S
C197 C195 1.387 1_554 S
C197 C199 1.390 . S
C197 H201 0.950 . S
H198 C194 0.950 . S
C199 C197 1.390 . S
C199 C200 1.387 1_545 S
C199 H202 0.950 . S
C200 C199 1.387 1_565 S
C200 C203 1.387 1_554 S
H201 C197 0.950 . S
H202 C199 0.950 . S
C203 C194 1.390 . S
C203 H196 0.950 . S
C203 C200 1.387 1_556 S
C85 C41 1.674 . S
C90 C4 1.543 . S
C95 C19 1.674 . S
C100 C28 1.545 . S
C105 C83 1.674 . S
C110 C46 1.545 . S
C115 C61 1.674 . S
C120 C70 1.544 . S
C125 C62 0.785 . S
C130 C20 0.785 . S
C135 C40 0.781 . S
C140 C82 0.781 . S
C145 C79 1.244 . S
C150 C16 1.470 . S
C155 C24 1.465 . S
C160 C45 1.243 . S
C165 C37 1.244 . S
C170 C58 1.470 . S
C175 C66 1.469 . S
C180 C3 1.243 . S
C185 C7 1.289 . S
C190 C49 1.289 . S
C195 C67 1.289 . S
C200 C25 1.289 . S
