# Generated by pormake.
# Topology bcu, (8)-cn, num edge types: 1
# Building blocks:
#     Node 0, Type 0, BuildingBlock: VETTIZ_charged_sbu_0, # of connection points: 8
#     Node 1, Type 0, BuildingBlock: VETTIZ_charged_sbu_0, # of connection points: 8
#     Edge 2, Type (0, 0), BuildingBlock: CIFDUS_clean_linker_0, # of connection points: 2
#     Edge 3, Type (0, 0), BuildingBlock: CIFDUS_clean_linker_0, # of connection points: 2
#     Edge 4, Type (0, 0), BuildingBlock: CIFDUS_clean_linker_0, # of connection points: 2
#     Edge 5, Type (0, 0), BuildingBlock: CIFDUS_clean_linker_0, # of connection points: 2
#     Edge 6, Type (0, 0), BuildingBlock: CIFDUS_clean_linker_0, # of connection points: 2
#     Edge 7, Type (0, 0), BuildingBlock: CIFDUS_clean_linker_0, # of connection points: 2
#     Edge 8, Type (0, 0), BuildingBlock: CIFDUS_clean_linker_0, # of connection points: 2
#     Edge 9, Type (0, 0), BuildingBlock: CIFDUS_clean_linker_0, # of connection points: 2
# Relax obj value: 0.000
# Max RMSD: 0.009
# Mean RMSD: 0.009
data_MOF--net-bcu--node1-VETTIZ_charged_sbu_0--edge1-CIFDUS_clean_linker_0
_symmetry_space_group_name_H-M    P1
_symmetry_Int_Tables_number       1
_symmetry_cell_setting            triclinic
loop_
_symmetry_equiv_pos_as_xyz
'x, y, z'
_cell_length_a     17.131457
_cell_length_b     18.446122
_cell_length_c     16.872429
_cell_angle_alpha  90.279472
_cell_angle_beta   90.857057
_cell_angle_gamma 90.06973
loop_
_atom_site_label
_atom_site_type_symbol
_atom_site_fract_x
_atom_site_fract_y
_atom_site_fract_z
_atom_type_partial_charge
Fe0 Fe 1.01862 0.90842 1.02705 0.0
O1 O 0.97386 0.98853 0.09205 0.0
Fe2 Fe 0.0761 -0.00345 0.8557 0.0
Fe3 Fe 0.97268 0.98743 0.20848 0.0
O4 O 0.07307 0.98853 0.97102 0.0
O5 O 0.07492 -0.00457 0.97212 0.0
O6 O 0.97572 -0.00457 0.09316 0.0
Fe7 Fe 0.03021 0.07555 0.03714 0.0
C8 C 0.90277 0.8455 0.15022 0.0
O9 O 0.11292 0.89979 0.10216 0.0
O10 O 0.05446 0.90524 0.21934 0.0
O11 O 0.09335 0.14951 0.96778 0.0
O12 O 0.15734 0.07736 0.8772 0.0
O13 O 0.14782 0.90693 0.86852 0.0
O14 O 0.07478 0.83484 0.9514 0.0
O15 O 0.06196 0.06034 0.22791 0.0
O16 O 0.12495 0.07114 0.11371 0.0
C17 C 0.13029 0.84504 0.90053 0.0
O18 O 0.9359 0.08423 0.96206 0.0
O19 O 0.99431 0.07872 0.84485 0.0
O20 O 0.9555 0.83445 0.09644 0.0
O21 O 0.89144 0.90661 0.18696 0.0
C22 C 0.11199 0.88767 0.17617 0.0
C23 C 0.12299 0.07526 0.18903 0.0
C24 C 0.9186 0.13895 0.16369 0.0
O25 O 0.90098 0.07707 0.19565 0.0
O26 O 0.97412 0.14912 0.11283 0.0
C27 C 0.14605 0.13845 0.91398 0.0
O28 O 0.98683 0.92362 0.83627 0.0
O29 O 0.92388 0.91276 0.95048 0.0
C30 C 0.9368 0.09631 0.88804 0.0
C31 C 0.92582 0.90866 0.87515 0.0
Fe32 Fe 0.52165 0.57582 0.53964 0.0
O33 O 0.45903 0.49676 0.48824 0.0
Fe34 Fe 0.70351 0.49452 0.56714 0.0
Fe35 Fe 0.3453 0.48942 0.49708 0.0
O36 O 0.58952 0.49439 0.57667 0.0
O37 O 0.58979 0.48717 0.57593 0.0
O38 O 0.4593 0.48953 0.48749 0.0
Fe39 Fe 0.52718 0.40811 0.52451 0.0
C40 C 0.38559 0.57944 0.64624 0.0
O41 O 0.44125 0.65087 0.49167 0.0
O42 O 0.35059 0.57911 0.42499 0.0
O43 O 0.59013 0.41465 0.42241 0.0
O44 O 0.71024 0.42156 0.47425 0.0
O45 O 0.70574 0.57774 0.48548 0.0
O46 O 0.58406 0.58721 0.43773 0.0
O47 O 0.35549 0.41036 0.41096 0.0
O48 O 0.45196 0.33601 0.46293 0.0
C49 C 0.65707 0.59771 0.43208 0.0
O50 O 0.60758 0.33306 0.57247 0.0
O51 O 0.69821 0.40482 0.6392 0.0
O52 O 0.45873 0.56929 0.64174 0.0
O53 O 0.3386 0.56241 0.58995 0.0
C54 C 0.38479 0.64071 0.43998 0.0
C55 C 0.39512 0.3504 0.41314 0.0
C56 C 0.39177 0.38621 0.63211 0.0
O57 O 0.34308 0.40621 0.57875 0.0
O58 O 0.46478 0.39669 0.62643 0.0
C59 C 0.66328 0.40456 0.41792 0.0
O60 O 0.69329 0.57356 0.65326 0.0
O61 O 0.59687 0.64792 0.60123 0.0
C62 C 0.66402 0.34321 0.62418 0.0
C63 C 0.65368 0.63353 0.65105 0.0
H64 H 0.22224 0.1811 0.14192 0.0
H65 H 0.17161 0.03997 0.33752 0.0
H66 H 0.26489 0.10574 0.42198 0.0
H67 H 0.3448 0.21503 0.4459 0.0
H68 H 0.38398 0.36325 0.25416 0.0
H69 H 0.31304 0.28305 0.16225 0.0
C70 C 0.23328 0.16375 0.2024 0.0
C71 C 0.1899 0.10628 0.23374 0.0
C72 C 0.28466 0.2037 0.25158 0.0
C73 C 0.20398 0.08462 0.31244 0.0
C74 C 0.25717 0.12226 0.3608 0.0
C75 C 0.33973 0.22826 0.38345 0.0
C76 C 0.36954 0.29429 0.3563 0.0
C77 C 0.2956 0.18359 0.33194 0.0
C78 C 0.36147 0.31223 0.27582 0.0
C79 C 0.32055 0.26669 0.2235 0.0
H80 H 0.76472 0.15032 0.19538 0.0
H81 H 0.98066 0.27057 0.20097 0.0
H82 H 0.91786 0.36888 0.27412 0.0
H83 H 0.80584 0.41275 0.35085 0.0
H84 H 0.58838 0.29469 0.3401 0.0
H85 H 0.64688 0.20401 0.25338 0.0
C86 C 0.79744 0.19873 0.21148 0.0
C87 C 0.87721 0.2031 0.19399 0.0
C88 C 0.76082 0.2551 0.25287 0.0
C89 C 0.91907 0.26625 0.21392 0.0
C90 C 0.88335 0.32217 0.25614 0.0
C91 C 0.77099 0.36789 0.3281 0.0
C92 C 0.6934 0.35977 0.35251 0.0
C93 C 0.80492 0.31609 0.27806 0.0
C94 C 0.64829 0.30209 0.32201 0.0
C95 C 0.68186 0.2499 0.27295 0.0
H96 H 0.75139 0.84091 0.19294 0.0
H97 H 0.95971 0.71081 0.18083 0.0
H98 H 0.89953 0.61839 0.26389 0.0
H99 H 0.79394 0.58312 0.35436 0.0
H100 H 0.58371 0.71129 0.36145 0.0
H101 H 0.63794 0.79573 0.26557 0.0
C102 C 0.7827 0.79138 0.20692 0.0
C103 C 0.85987 0.7827 0.18147 0.0
C104 C 0.74785 0.73881 0.25479 0.0
C105 C 0.89996 0.71831 0.19934 0.0
C106 C 0.8659 0.66591 0.24758 0.0
C107 C 0.75982 0.6291 0.33397 0.0
C108 C 0.68566 0.64188 0.3658 0.0
C109 C 0.79097 0.67691 0.27799 0.0
C110 C 0.64113 0.70064 0.33798 0.0
C111 C 0.67218 0.74904 0.28339 0.0
H112 H 0.17304 0.89697 0.32569 0.0
H113 H 0.19407 0.78119 0.10419 0.0
H114 H 0.28867 0.6988 0.16476 0.0
H115 H 0.35376 0.6516 0.28416 0.0
H116 H 0.33841 0.76878 0.50479 0.0
H117 H 0.25463 0.85996 0.44094 0.0
C118 C 0.19915 0.85415 0.29072 0.0
C119 C 0.17584 0.84427 0.21113 0.0
C120 C 0.25448 0.80752 0.32567 0.0
C121 C 0.21094 0.78958 0.16572 0.0
C122 C 0.26486 0.74236 0.20031 0.0
C123 C 0.33343 0.69814 0.31758 0.0
C124 C 0.35137 0.7037 0.39877 0.0
C125 C 0.28547 0.74973 0.28063 0.0
C126 C 0.32547 0.76404 0.44192 0.0
C127 C 0.27699 0.81556 0.40565 0.0
H128 H 0.28392 0.8345 0.86744 0.0
H129 H 0.06902 0.71263 0.86504 0.0
H130 H 0.132 0.61426 0.79215 0.0
H131 H 0.24367 0.57068 0.71462 0.0
H132 H 0.46012 0.69044 0.72229 0.0
H133 H 0.40161 0.78133 0.80872 0.0
C134 C 0.25146 0.78575 0.85208 0.0
C135 C 0.1719 0.78095 0.87038 0.0
C136 C 0.28817 0.72937 0.81082 0.0
C137 C 0.13043 0.71733 0.85143 0.0
C138 C 0.16625 0.66136 0.80936 0.0
C139 C 0.27831 0.61596 0.73666 0.0
C140 C 0.3556 0.62447 0.71148 0.0
C141 C 0.24439 0.66787 0.78659 0.0
C142 C 0.40046 0.68272 0.74103 0.0
C143 C 0.36688 0.73502 0.78992 0.0
H144 H 0.25506 0.40094 0.71008 0.0
H145 H 0.46502 0.27243 0.70244 0.0
H146 H 0.41079 0.18796 0.79829 0.0
H147 H 0.29738 0.14288 0.87104 0.0
H148 H 0.08932 0.27329 0.88369 0.0
H149 H 0.14955 0.36574 0.80068 0.0
C150 C 0.28913 0.35488 0.73035 0.0
C151 C 0.36321 0.34201 0.69838 0.0
C152 C 0.25797 0.30705 0.78631 0.0
C153 C 0.40767 0.28315 0.72604 0.0
C154 C 0.37661 0.23474 0.7806 0.0
C155 C 0.26614 0.19247 0.85719 0.0
C156 C 0.18902 0.20124 0.88277 0.0
C157 C 0.30101 0.24505 0.80934 0.0
C158 C 0.14903 0.26572 0.86507 0.0
C159 C 0.18311 0.31814 0.81686 0.0
H160 H 0.87585 0.08703 0.73847 0.0
H161 H 0.85453 0.20266 0.96004 0.0
H162 H 0.75989 0.285 0.89946 0.0
H163 H 0.69488 0.33224 0.78003 0.0
H164 H 0.71054 0.21521 0.55932 0.0
H165 H 0.79432 0.12405 0.62319 0.0
C166 C 0.84967 0.12981 0.77345 0.0
C167 C 0.87291 0.13967 0.85307 0.0
C168 C 0.79432 0.17642 0.7385 0.0
C169 C 0.83772 0.19429 0.89849 0.0
C170 C 0.78377 0.24149 0.8639 0.0
C171 C 0.71528 0.28573 0.74659 0.0
C172 C 0.69743 0.28021 0.66538 0.0
C173 C 0.76324 0.23415 0.78355 0.0
C174 C 0.72341 0.21992 0.62221 0.0
C175 C 0.7719 0.1684 0.65849 0.0
H176 H 0.70395 0.76892 0.61831 0.0
H177 H 0.66484 0.62066 0.81003 0.0
H178 H 0.73579 0.70084 0.90194 0.0
H179 H 0.82659 0.80279 0.92227 0.0
H180 H 0.87715 0.94398 0.72669 0.0
H181 H 0.78385 0.87821 0.64224 0.0
C182 C 0.70904 0.75568 0.68076 0.0
C183 C 0.67925 0.68963 0.7079 0.0
C184 C 0.75318 0.80034 0.73227 0.0
C185 C 0.68734 0.67168 0.78837 0.0
C186 C 0.72826 0.71722 0.84069 0.0
C187 C 0.81554 0.82016 0.86179 0.0
C188 C 0.8589 0.87764 0.83045 0.0
C189 C 0.76415 0.78021 0.81262 0.0
C190 C 0.8448 0.89932 0.75176 0.0
C191 C 0.7916 0.86168 0.70341 0.0
loop_
_geom_bond_atom_site_label_1
_geom_bond_atom_site_label_2
_geom_bond_distance
_geom_bond_site_symmetry_2
_ccdc_geom_bond_type
Fe0 O1 1.886 . S
Fe0 O4 1.715 1_554 S
Fe0 O9 2.077 . S
Fe0 O14 1.935 1_554 S
Fe0 O20 2.077 1_455 S
Fe0 O29 1.935 1_454 S
O1 Fe0 1.886 . S
O1 Fe3 1.715 1_565 S
Fe2 O4 1.886 . S
Fe2 O5 1.715 1_565 S
Fe2 O12 1.935 1_565 S
Fe2 O13 2.077 . S
Fe2 O19 1.935 1_465 S
Fe2 O28 2.077 1_455 S
Fe3 O1 1.715 1_545 S
Fe3 O6 1.886 . S
Fe3 O10 1.935 1_545 S
Fe3 O15 2.077 . S
Fe3 O21 1.935 1_445 S
Fe3 O25 2.077 1_455 S
O4 Fe0 1.715 1_556 S
O4 Fe2 1.886 . S
O5 Fe2 1.715 1_545 S
O5 Fe7 1.886 . S
O6 Fe3 1.886 . S
O6 Fe7 1.715 1_554 S
Fe7 O5 1.886 . S
Fe7 O6 1.715 1_556 S
Fe7 O11 2.077 . S
Fe7 O16 1.935 1_556 S
Fe7 O18 2.077 1_455 S
Fe7 O26 1.935 1_456 S
C8 O20 1.381 . S
C8 O21 1.421 . S
O9 Fe0 2.077 . S
O9 C22 1.381 . S
O10 Fe3 1.935 1_565 S
O10 C22 1.421 . S
O11 Fe7 2.077 . S
O11 C27 1.381 . S
O12 Fe2 1.935 1_545 S
O12 C27 1.421 . S
O13 Fe2 2.077 . S
O13 C17 1.381 . S
O14 Fe0 1.935 1_556 S
O14 C17 1.421 . S
O15 Fe3 2.077 . S
O15 C23 1.381 . S
O16 Fe7 1.935 1_554 S
O16 C23 1.421 . S
C17 O13 1.381 . S
C17 O14 1.421 . S
O18 Fe7 2.077 1_655 S
O18 C30 1.381 . S
O19 Fe2 1.935 1_645 S
O19 C30 1.421 . S
O20 Fe0 2.077 1_655 S
O20 C8 1.381 . S
O21 Fe3 1.935 1_665 S
O21 C8 1.421 . S
C22 O9 1.381 . S
C22 O10 1.421 . S
C23 O15 1.381 . S
C23 O16 1.421 . S
C24 O25 1.381 . S
C24 O26 1.421 . S
O25 Fe3 2.077 1_655 S
O25 C24 1.381 . S
O26 Fe7 1.935 1_654 S
O26 C24 1.421 . S
C27 O11 1.381 . S
C27 O12 1.421 . S
O28 Fe2 2.077 1_655 S
O28 C31 1.381 . S
O29 Fe0 1.935 1_656 S
O29 C31 1.421 . S
C30 O18 1.381 . S
C30 O19 1.421 . S
C31 O28 1.381 . S
C31 O29 1.421 . S
Fe32 O33 1.886 . S
Fe32 O36 1.715 . S
Fe32 O41 2.077 . S
Fe32 O46 1.935 . S
Fe32 O52 2.077 . S
Fe32 O61 1.935 . S
O33 Fe32 1.886 . S
O33 Fe35 1.715 . S
Fe34 O36 1.886 . S
Fe34 O37 1.715 . S
Fe34 O44 1.935 . S
Fe34 O45 2.077 . S
Fe34 O51 1.935 . S
Fe34 O60 2.077 . S
Fe35 O33 1.715 . S
Fe35 O38 1.886 . S
Fe35 O42 1.935 . S
Fe35 O47 2.077 . S
Fe35 O53 1.935 . S
Fe35 O57 2.077 . S
O36 Fe32 1.715 . S
O36 Fe34 1.886 . S
O37 Fe34 1.715 . S
O37 Fe39 1.886 . S
O38 Fe35 1.886 . S
O38 Fe39 1.715 . S
Fe39 O37 1.886 . S
Fe39 O38 1.715 . S
Fe39 O43 2.077 . S
Fe39 O48 1.935 . S
Fe39 O50 2.077 . S
Fe39 O58 1.935 . S
C40 O52 1.381 . S
C40 O53 1.421 . S
O41 Fe32 2.077 . S
O41 C54 1.381 . S
O42 Fe35 1.935 . S
O42 C54 1.421 . S
O43 Fe39 2.077 . S
O43 C59 1.381 . S
O44 Fe34 1.935 . S
O44 C59 1.421 . S
O45 Fe34 2.077 . S
O45 C49 1.381 . S
O46 Fe32 1.935 . S
O46 C49 1.421 . S
O47 Fe35 2.077 . S
O47 C55 1.381 . S
O48 Fe39 1.935 . S
O48 C55 1.421 . S
C49 O45 1.381 . S
C49 O46 1.421 . S
O50 Fe39 2.077 . S
O50 C62 1.381 . S
O51 Fe34 1.935 . S
O51 C62 1.421 . S
O52 Fe32 2.077 . S
O52 C40 1.381 . S
O53 Fe35 1.935 . S
O53 C40 1.421 . S
C54 O41 1.381 . S
C54 O42 1.421 . S
C55 O47 1.381 . S
C55 O48 1.421 . S
C56 O57 1.381 . S
C56 O58 1.421 . S
O57 Fe35 2.077 . S
O57 C56 1.381 . S
O58 Fe39 1.935 . S
O58 C56 1.421 . S
C59 O43 1.381 . S
C59 O44 1.421 . S
O60 Fe34 2.077 . S
O60 C63 1.381 . S
O61 Fe32 1.935 . S
O61 C63 1.421 . S
C62 O50 1.381 . S
C62 O51 1.421 . S
C63 O60 1.381 . S
C63 O61 1.421 . S
H64 C70 0.930 . S
H65 C73 0.930 . S
H66 C74 0.930 . S
H67 C75 0.930 . S
H68 C78 0.930 . S
H69 C79 0.930 . S
C70 H64 0.930 . S
C70 C71 1.355 . S
C70 C72 1.415 . S
C71 C70 1.355 . S
C71 C73 1.419 . S
C72 C70 1.415 . S
C72 C77 1.425 . S
C72 C79 1.409 . S
C73 H65 0.930 . S
C73 C71 1.419 . S
C73 C74 1.362 . S
C74 H66 0.930 . S
C74 C73 1.362 . S
C74 C77 1.409 . S
C75 H67 0.930 . S
C75 C76 1.355 . S
C75 C77 1.415 . S
C76 C75 1.355 . S
C76 C78 1.419 . S
C77 C72 1.425 . S
C77 C74 1.409 . S
C77 C75 1.415 . S
C78 H68 0.930 . S
C78 C76 1.419 . S
C78 C79 1.362 . S
C79 H69 0.930 . S
C79 C72 1.409 . S
C79 C78 1.362 . S
H80 C86 0.930 . S
H81 C89 0.930 . S
H82 C90 0.930 . S
H83 C91 0.930 . S
H84 C94 0.930 . S
H85 C95 0.930 . S
C86 H80 0.930 . S
C86 C87 1.355 . S
C86 C88 1.415 . S
C87 C86 1.355 . S
C87 C89 1.419 . S
C88 C86 1.415 . S
C88 C93 1.425 . S
C88 C95 1.409 . S
C89 H81 0.930 . S
C89 C87 1.419 . S
C89 C90 1.362 . S
C90 H82 0.930 . S
C90 C89 1.362 . S
C90 C93 1.409 . S
C91 H83 0.930 . S
C91 C92 1.355 . S
C91 C93 1.415 . S
C92 C91 1.355 . S
C92 C94 1.419 . S
C93 C88 1.425 . S
C93 C90 1.409 . S
C93 C91 1.415 . S
C94 H84 0.930 . S
C94 C92 1.419 . S
C94 C95 1.362 . S
C95 H85 0.930 . S
C95 C88 1.409 . S
C95 C94 1.362 . S
H96 C102 0.930 . S
H97 C105 0.930 . S
H98 C106 0.930 . S
H99 C107 0.930 . S
H100 C110 0.930 . S
H101 C111 0.930 . S
C102 H96 0.930 . S
C102 C103 1.355 . S
C102 C104 1.415 . S
C103 C102 1.355 . S
C103 C105 1.419 . S
C104 C102 1.415 . S
C104 C109 1.425 . S
C104 C111 1.409 . S
C105 H97 0.930 . S
C105 C103 1.419 . S
C105 C106 1.362 . S
C106 H98 0.930 . S
C106 C105 1.362 . S
C106 C109 1.409 . S
C107 H99 0.930 . S
C107 C108 1.355 . S
C107 C109 1.415 . S
C108 C107 1.355 . S
C108 C110 1.419 . S
C109 C104 1.425 . S
C109 C106 1.409 . S
C109 C107 1.415 . S
C110 H100 0.930 . S
C110 C108 1.419 . S
C110 C111 1.362 . S
C111 H101 0.930 . S
C111 C104 1.409 . S
C111 C110 1.362 . S
H112 C118 0.930 . S
H113 C121 0.930 . S
H114 C122 0.930 . S
H115 C123 0.930 . S
H116 C126 0.930 . S
H117 C127 0.930 . S
C118 H112 0.930 . S
C118 C119 1.355 . S
C118 C120 1.415 . S
C119 C118 1.355 . S
C119 C121 1.419 . S
C120 C118 1.415 . S
C120 C125 1.425 . S
C120 C127 1.409 . S
C121 H113 0.930 . S
C121 C119 1.419 . S
C121 C122 1.362 . S
C122 H114 0.930 . S
C122 C121 1.362 . S
C122 C125 1.409 . S
C123 H115 0.930 . S
C123 C124 1.355 . S
C123 C125 1.415 . S
C124 C123 1.355 . S
C124 C126 1.419 . S
C125 C120 1.425 . S
C125 C122 1.409 . S
C125 C123 1.415 . S
C126 H116 0.930 . S
C126 C124 1.419 . S
C126 C127 1.362 . S
C127 H117 0.930 . S
C127 C120 1.409 . S
C127 C126 1.362 . S
H128 C134 0.930 . S
H129 C137 0.930 . S
H130 C138 0.930 . S
H131 C139 0.930 . S
H132 C142 0.930 . S
H133 C143 0.930 . S
C134 H128 0.930 . S
C134 C135 1.355 . S
C134 C136 1.415 . S
C135 C134 1.355 . S
C135 C137 1.419 . S
C136 C134 1.415 . S
C136 C141 1.425 . S
C136 C143 1.409 . S
C137 H129 0.930 . S
C137 C135 1.419 . S
C137 C138 1.362 . S
C138 H130 0.930 . S
C138 C137 1.362 . S
C138 C141 1.409 . S
C139 H131 0.930 . S
C139 C140 1.355 . S
C139 C141 1.415 . S
C140 C139 1.355 . S
C140 C142 1.419 . S
C141 C136 1.425 . S
C141 C138 1.409 . S
C141 C139 1.415 . S
C142 H132 0.930 . S
C142 C140 1.419 . S
C142 C143 1.362 . S
C143 H133 0.930 . S
C143 C136 1.409 . S
C143 C142 1.362 . S
H144 C150 0.930 . S
H145 C153 0.930 . S
H146 C154 0.930 . S
H147 C155 0.930 . S
H148 C158 0.930 . S
H149 C159 0.930 . S
C150 H144 0.930 . S
C150 C151 1.355 . S
C150 C152 1.415 . S
C151 C150 1.355 . S
C151 C153 1.419 . S
C152 C150 1.415 . S
C152 C157 1.425 . S
C152 C159 1.409 . S
C153 H145 0.930 . S
C153 C151 1.419 . S
C153 C154 1.362 . S
C154 H146 0.930 . S
C154 C153 1.362 . S
C154 C157 1.409 . S
C155 H147 0.930 . S
C155 C156 1.355 . S
C155 C157 1.415 . S
C156 C155 1.355 . S
C156 C158 1.419 . S
C157 C152 1.425 . S
C157 C154 1.409 . S
C157 C155 1.415 . S
C158 H148 0.930 . S
C158 C156 1.419 . S
C158 C159 1.362 . S
C159 H149 0.930 . S
C159 C152 1.409 . S
C159 C158 1.362 . S
H160 C166 0.930 . S
H161 C169 0.930 . S
H162 C170 0.930 . S
H163 C171 0.930 . S
H164 C174 0.930 . S
H165 C175 0.930 . S
C166 H160 0.930 . S
C166 C167 1.355 . S
C166 C168 1.415 . S
C167 C166 1.355 . S
C167 C169 1.419 . S
C168 C166 1.415 . S
C168 C173 1.425 . S
C168 C175 1.409 . S
C169 H161 0.930 . S
C169 C167 1.419 . S
C169 C170 1.362 . S
C170 H162 0.930 . S
C170 C169 1.362 . S
C170 C173 1.409 . S
C171 H163 0.930 . S
C171 C172 1.355 . S
C171 C173 1.415 . S
C172 C171 1.355 . S
C172 C174 1.419 . S
C173 C168 1.425 . S
C173 C170 1.409 . S
C173 C171 1.415 . S
C174 H164 0.930 . S
C174 C172 1.419 . S
C174 C175 1.362 . S
C175 H165 0.930 . S
C175 C168 1.409 . S
C175 C174 1.362 . S
H176 C182 0.930 . S
H177 C185 0.930 . S
H178 C186 0.930 . S
H179 C187 0.930 . S
H180 C190 0.930 . S
H181 C191 0.930 . S
C182 H176 0.930 . S
C182 C183 1.355 . S
C182 C184 1.415 . S
C183 C182 1.355 . S
C183 C185 1.419 . S
C184 C182 1.415 . S
C184 C189 1.425 . S
C184 C191 1.409 . S
C185 H177 0.930 . S
C185 C183 1.419 . S
C185 C186 1.362 . S
C186 H178 0.930 . S
C186 C185 1.362 . S
C186 C189 1.409 . S
C187 H179 0.930 . S
C187 C188 1.355 . S
C187 C189 1.415 . S
C188 C187 1.355 . S
C188 C190 1.419 . S
C189 C184 1.425 . S
C189 C186 1.409 . S
C189 C187 1.415 . S
C190 H180 0.930 . S
C190 C188 1.419 . S
C190 C191 1.362 . S
C191 H181 0.930 . S
C191 C184 1.409 . S
C191 C190 1.362 . S
C71 C23 1.440 . S
C76 C55 1.477 . S
C87 C24 1.423 . S
C92 C59 1.478 . S
C103 C8 1.435 . S
C108 C49 1.424 . S
C119 C22 1.442 . S
C124 C54 1.427 . S
C135 C17 1.445 . S
C140 C40 1.418 . S
C151 C56 1.419 . S
C156 C27 1.439 . S
C167 C30 1.445 . S
C172 C62 1.427 . S
C183 C63 1.474 . S
C188 C31 1.465 . S
