# Generated by pormake.
# Topology can, (4)-cn, num edge types: 1
# Building blocks:
#     Node 0, Type 0, BuildingBlock: CEKHIL_clean_sbu_0, # of connection points: 4
#     Node 1, Type 0, BuildingBlock: CEKHIL_clean_sbu_0, # of connection points: 4
#     Node 2, Type 0, BuildingBlock: CEKHIL_clean_sbu_0, # of connection points: 4
#     Node 3, Type 0, BuildingBlock: CEKHIL_clean_sbu_0, # of connection points: 4
#     Node 4, Type 0, BuildingBlock: CEKHIL_clean_sbu_0, # of connection points: 4
#     Node 5, Type 0, BuildingBlock: CEKHIL_clean_sbu_0, # of connection points: 4
#     Node 6, Type 0, BuildingBlock: CEKHIL_clean_sbu_0, # of connection points: 4
#     Node 7, Type 0, BuildingBlock: CEKHIL_clean_sbu_0, # of connection points: 4
#     Node 8, Type 0, BuildingBlock: CEKHIL_clean_sbu_0, # of connection points: 4
#     Node 9, Type 0, BuildingBlock: CEKHIL_clean_sbu_0, # of connection points: 4
#     Node 10, Type 0, BuildingBlock: CEKHIL_clean_sbu_0, # of connection points: 4
#     Node 11, Type 0, BuildingBlock: CEKHIL_clean_sbu_0, # of connection points: 4
#     Edge 12, Type (0, 0), None
#     Edge 13, Type (0, 0), None
#     Edge 14, Type (0, 0), None
#     Edge 15, Type (0, 0), None
#     Edge 16, Type (0, 0), None
#     Edge 17, Type (0, 0), None
#     Edge 18, Type (0, 0), None
#     Edge 19, Type (0, 0), None
#     Edge 20, Type (0, 0), None
#     Edge 21, Type (0, 0), None
#     Edge 22, Type (0, 0), None
#     Edge 23, Type (0, 0), None
#     Edge 24, Type (0, 0), None
#     Edge 25, Type (0, 0), None
#     Edge 26, Type (0, 0), None
#     Edge 27, Type (0, 0), None
#     Edge 28, Type (0, 0), None
#     Edge 29, Type (0, 0), None
#     Edge 30, Type (0, 0), None
#     Edge 31, Type (0, 0), None
#     Edge 32, Type (0, 0), None
#     Edge 33, Type (0, 0), None
#     Edge 34, Type (0, 0), None
#     Edge 35, Type (0, 0), None
# Relax obj value: 0.059
# Max RMSD: 0.043
# Mean RMSD: 0.043
data_MOF--net-can--node1-CEKHIL_clean_sbu_0--edge1-none
_symmetry_space_group_name_H-M    P1
_symmetry_Int_Tables_number       1
_symmetry_cell_setting            triclinic
loop_
_symmetry_equiv_pos_as_xyz
'x, y, z'
_cell_length_a     24.005152
_cell_length_b     24.00774
_cell_length_c     11.764056
_cell_angle_alpha  89.999999
_cell_angle_beta   89.999999
_cell_angle_gamma 120.01016
loop_
_atom_site_label
_atom_site_type_symbol
_atom_site_fract_x
_atom_site_fract_y
_atom_site_fract_z
_atom_type_partial_charge
Co0 Co 0.10099 0.41537 0.28784 0.0
O1 O 0.14382 0.36517 0.29333 0.0
O2 O 0.19167 0.46859 0.25009 0.0
C3 C 0.0466 0.3806 0.45438 0.0
O4 O 0.07355 0.48352 0.27257 0.0
Co5 Co 0.95041 0.34433 0.27393 0.0
O6 O 0.9651 0.43321 0.27062 0.0
C7 C 1.02556 0.35698 0.06845 0.0
C8 C 0.19612 0.41729 0.26466 0.0
C9 C 1.02016 0.48403 0.26473 0.0
O10 O 0.07839 0.39181 0.12307 0.0
O11 O 0.96992 0.32947 0.11496 0.0
O12 O 0.10669 0.42552 0.45405 0.0
O13 O 1.02386 0.35396 0.3574 0.0
Co14 Co 0.70354 0.09201 0.78784 0.0
O15 O 0.79659 0.13486 0.79332 0.0
O16 O 0.74098 0.18267 0.75011 0.0
C17 C 0.68393 0.03762 0.95438 0.0
O18 O 0.60794 0.06456 0.77259 0.0
Co19 Co 0.62397 0.94145 0.77393 0.0
O20 O 0.54976 0.95612 0.7706 0.0
C21 C 0.68652 1.01659 0.56846 0.0
C22 C 0.79676 0.18714 0.76467 0.0
C23 C 0.55402 1.01118 0.76473 0.0
O24 O 0.7045 0.06941 0.62308 0.0
O25 O 0.65838 0.96096 0.61497 0.0
O26 O 0.6991 0.09769 0.95406 0.0
O27 O 0.68782 1.01489 0.85739 0.0
Co28 Co 0.62949 0.6946 0.28784 0.0
O29 O 0.67968 0.78765 0.29333 0.0
O30 O 0.57625 0.73202 0.25009 0.0
C31 C 0.66426 0.67499 0.45439 0.0
O32 O 0.56134 0.59899 0.27257 0.0
Co33 Co 0.70053 0.61509 0.27394 0.0
O34 O 0.61164 0.54087 0.27062 0.0
C35 C 0.68788 0.67757 0.06845 0.0
C36 C 0.62755 0.7878 0.26467 0.0
C37 C 0.56082 0.5451 0.26473 0.0
O38 O 0.65305 0.69557 0.12307 0.0
O39 O 0.71538 0.64945 0.11496 0.0
O40 O 0.61934 0.69015 0.45405 0.0
O41 O 0.6909 0.67891 0.3574 0.0
Co42 Co 0.95281 0.6205 0.78784 0.0
O43 O 0.90998 0.6707 0.79333 0.0
O44 O 0.86214 0.56727 0.75009 0.0
C45 C 1.0072 0.65526 0.95438 0.0
O46 O 0.98025 0.55235 0.77257 0.0
Co47 Co 0.10339 0.69153 0.77393 0.0
O48 O 0.0887 0.60265 0.77062 0.0
C49 C 0.02824 0.67889 0.56845 0.0
C50 C 0.85768 0.61858 0.76466 0.0
C51 C 0.03364 0.55183 0.76473 0.0
O52 O 0.97541 0.64406 0.62307 0.0
O53 O 0.08388 0.70639 0.61496 0.0
O54 O 0.94711 0.61035 0.95405 0.0
O55 O 0.02994 0.6819 0.8574 0.0
Co56 Co 0.35026 0.94386 0.28784 0.0
O57 O 0.25721 0.901 0.29332 0.0
O58 O 0.31282 0.8532 0.25011 0.0
C59 C 0.36987 0.99825 0.45438 0.0
O60 O 0.44587 0.97131 0.27259 0.0
Co61 Co 0.42983 0.09442 0.27393 0.0
O62 O 0.50404 0.07974 0.2706 0.0
C63 C 0.36729 0.01928 0.06846 0.0
C64 C 0.25705 0.84872 0.26467 0.0
C65 C 0.49978 0.02468 0.26473 0.0
O66 O 0.3493 0.96645 0.12308 0.0
O67 O 0.39542 0.0749 0.11497 0.0
O68 O 0.35471 0.93817 0.45406 0.0
O69 O 0.36598 0.02098 0.35739 0.0
Co70 Co 0.42431 0.34127 0.78784 0.0
O71 O 0.37412 0.24822 0.79333 0.0
O72 O 0.47755 0.30385 0.75009 0.0
C73 C 0.38954 0.36087 0.95439 0.0
O74 O 0.49246 0.43687 0.77257 0.0
Co75 Co 0.35327 0.42078 0.77394 0.0
O76 O 0.44216 0.495 0.77062 0.0
C77 C 0.36592 0.35829 0.56845 0.0
C78 C 0.42625 0.24807 0.76467 0.0
C79 C 0.49298 0.49077 0.76473 0.0
O80 O 0.40075 0.3403 0.62307 0.0
O81 O 0.33842 0.38641 0.61496 0.0
O82 O 0.43446 0.34572 0.95405 0.0
O83 O 0.3629 0.35696 0.8574 0.0
Co84 Co 0.62948 0.94384 0.22466 0.0
O85 O 0.67968 0.90101 0.21916 0.0
O86 O 0.57624 0.85318 0.2624 0.0
C87 C 0.66425 0.99823 0.05811 0.0
O88 O 0.56133 0.97129 0.23992 0.0
Co89 Co 0.70054 0.09441 0.23856 0.0
O90 O 0.61165 0.07973 0.24187 0.0
C91 C 0.6879 0.01927 0.44404 0.0
C92 C 0.62755 0.84871 0.24783 0.0
C93 C 0.56082 0.02467 0.24777 0.0
O94 O 0.65305 0.96644 0.38942 0.0
O95 O 0.71539 0.0749 0.39754 0.0
O96 O 0.61933 0.93815 0.05844 0.0
O97 O 0.69089 0.02096 0.15509 0.0
Co98 Co 0.70356 0.62051 0.72465 0.0
O99 O 0.79661 0.67071 0.71916 0.0
O100 O 0.74098 0.56728 0.76238 0.0
C101 C 0.68395 0.65529 0.55811 0.0
O102 O 0.60794 0.55236 0.7399 0.0
Co103 Co 0.62401 0.69152 0.73856 0.0
O104 O 0.54979 0.60263 0.74189 0.0
C105 C 0.68656 0.67893 0.94402 0.0
C106 C 0.79676 0.61858 0.74782 0.0
C107 C 0.55404 0.55182 0.74776 0.0
O108 O 0.70452 0.64407 0.88941 0.0
O109 O 0.65841 0.70641 0.89753 0.0
O110 O 0.69911 0.61038 0.55843 0.0
O111 O 0.68785 0.68192 0.6551 0.0
Co112 Co 0.10099 0.69458 0.22465 0.0
O113 O 0.14383 0.78762 0.21917 0.0
O114 O 0.19166 0.73203 0.26239 0.0
C115 C 0.04659 0.67495 0.05811 0.0
O116 O 0.07354 0.59898 0.23991 0.0
Co117 Co 0.95041 0.615 0.23857 0.0
O118 O 0.96509 0.54081 0.24189 0.0
C119 C 1.02556 0.67756 0.44402 0.0
C120 C 0.19612 0.78779 0.24783 0.0
C121 C 1.02016 0.54507 0.24777 0.0
O122 O 0.07839 0.69553 0.38941 0.0
O123 O 0.96992 0.64941 0.39753 0.0
O124 O 0.10668 0.69013 0.05843 0.0
O125 O 1.02386 0.67885 0.1551 0.0
Co126 Co 0.42432 0.09202 0.72466 0.0
O127 O 0.37412 0.13486 0.71916 0.0
O128 O 0.47756 0.18269 0.7624 0.0
C129 C 0.38955 0.03764 0.55811 0.0
O130 O 0.49247 0.06457 0.73992 0.0
Co131 Co 0.35326 0.94145 0.73856 0.0
O132 O 0.44215 0.95613 0.74187 0.0
C133 C 0.3659 1.0166 0.94404 0.0
C134 C 0.42625 0.18715 0.74783 0.0
C135 C 0.49298 1.01119 0.74777 0.0
O136 O 0.40076 0.06942 0.88942 0.0
O137 O 0.33841 0.96096 0.89754 0.0
O138 O 0.43447 0.09772 0.55844 0.0
O139 O 0.36291 1.0149 0.65509 0.0
Co140 Co 0.35025 0.41535 0.22465 0.0
O141 O 0.25719 0.36516 0.21916 0.0
O142 O 0.31283 0.46858 0.26238 0.0
C143 C 0.36985 0.38057 0.05811 0.0
O144 O 0.44586 0.48351 0.2399 0.0
Co145 Co 0.42979 0.34435 0.23856 0.0
O146 O 0.50401 0.43323 0.24189 0.0
C147 C 0.36724 0.35694 0.44402 0.0
C148 C 0.25704 0.41728 0.24782 0.0
C149 C 0.49976 0.48404 0.24776 0.0
O150 O 0.34928 0.39179 0.38941 0.0
O151 O 0.39539 0.32946 0.39753 0.0
O152 O 0.3547 0.42549 0.05843 0.0
O153 O 0.36595 0.35394 0.1551 0.0
Co154 Co 0.95282 0.34129 0.72465 0.0
O155 O 0.90998 0.24825 0.71917 0.0
O156 O 0.86214 0.30384 0.76239 0.0
C157 C 1.00721 0.36091 0.55811 0.0
O158 O 0.98026 0.43689 0.73991 0.0
Co159 Co 0.10339 0.42086 0.73857 0.0
O160 O 0.08871 0.49505 0.74189 0.0
C161 C 0.02824 0.3583 0.94402 0.0
C162 C 0.85768 0.24807 0.74783 0.0
C163 C 0.03364 0.49079 0.74777 0.0
O164 O 0.97541 0.34033 0.88941 0.0
O165 O 0.08388 0.38646 0.89753 0.0
O166 O 0.94712 0.34574 0.55843 0.0
O167 O 0.02994 0.35702 0.6551 0.0
loop_
_geom_bond_atom_site_label_1
_geom_bond_atom_site_label_2
_geom_bond_distance
_geom_bond_site_symmetry_2
_ccdc_geom_bond_type
Co0 O1 2.216 . S
Co0 O2 2.091 . S
Co0 O4 2.004 . S
Co0 O10 2.021 . S
Co0 O12 2.137 . S
Co0 O13 2.244 1_455 S
O1 Co0 2.216 . S
O1 C8 1.247 . S
O2 Co0 2.091 . S
O2 C8 1.261 . S
C3 O12 1.247 . S
C3 O13 1.272 1_455 S
O4 Co0 2.004 . S
O4 C9 1.259 . S
Co5 O6 2.061 . S
Co5 O11 2.052 . S
Co5 O13 2.135 . S
O6 Co5 2.061 . S
O6 C9 1.235 1_655 S
C7 O10 1.238 1_655 S
C7 O11 1.241 . S
C8 O1 1.247 . S
C8 O2 1.261 . S
C9 O4 1.259 . S
C9 O6 1.235 1_455 S
O10 Co0 2.021 . S
O10 C7 1.238 1_455 S
O11 Co5 2.052 . S
O11 C7 1.241 . S
O12 Co0 2.137 . S
O12 C3 1.247 . S
O13 Co0 2.244 1_655 S
O13 C3 1.272 1_655 S
O13 Co5 2.135 . S
Co14 O15 2.216 . S
Co14 O16 2.091 . S
Co14 O18 2.004 . S
Co14 O24 2.021 . S
Co14 O26 2.137 . S
Co14 O27 2.244 1_545 S
O15 Co14 2.216 . S
O15 C22 1.247 . S
O16 Co14 2.091 . S
O16 C22 1.261 . S
C17 O26 1.247 . S
C17 O27 1.272 1_545 S
O18 Co14 2.004 . S
O18 C23 1.259 . S
Co19 O20 2.061 . S
Co19 O25 2.052 . S
Co19 O27 2.135 . S
O20 Co19 2.061 . S
O20 C23 1.235 1_565 S
C21 O24 1.238 1_565 S
C21 O25 1.241 . S
C22 O15 1.247 . S
C22 O16 1.261 . S
C23 O18 1.259 . S
C23 O20 1.235 1_545 S
O24 Co14 2.021 . S
O24 C21 1.238 1_545 S
O25 Co19 2.052 . S
O25 C21 1.241 . S
O26 Co14 2.137 . S
O26 C17 1.247 . S
O27 Co14 2.244 1_565 S
O27 C17 1.272 1_565 S
O27 Co19 2.135 . S
Co28 O29 2.216 . S
Co28 O30 2.091 . S
Co28 O32 2.004 . S
Co28 O38 2.021 . S
Co28 O40 2.137 . S
Co28 O41 2.244 . S
O29 Co28 2.216 . S
O29 C36 1.247 . S
O30 Co28 2.091 . S
O30 C36 1.261 . S
C31 O40 1.247 . S
C31 O41 1.272 . S
O32 Co28 2.004 . S
O32 C37 1.259 . S
Co33 O34 2.061 . S
Co33 O39 2.052 . S
Co33 O41 2.135 . S
O34 Co33 2.061 . S
O34 C37 1.235 . S
C35 O38 1.238 . S
C35 O39 1.241 . S
C36 O29 1.247 . S
C36 O30 1.261 . S
C37 O32 1.259 . S
C37 O34 1.235 . S
O38 Co28 2.021 . S
O38 C35 1.238 . S
O39 Co33 2.052 . S
O39 C35 1.241 . S
O40 Co28 2.137 . S
O40 C31 1.247 . S
O41 Co28 2.244 . S
O41 C31 1.272 . S
O41 Co33 2.135 . S
Co42 O43 2.216 . S
Co42 O44 2.091 . S
Co42 O46 2.004 . S
Co42 O52 2.021 . S
Co42 O54 2.137 . S
Co42 O55 2.244 1_655 S
O43 Co42 2.216 . S
O43 C50 1.247 . S
O44 Co42 2.091 . S
O44 C50 1.261 . S
C45 O54 1.247 . S
C45 O55 1.272 1_655 S
O46 Co42 2.004 . S
O46 C51 1.259 . S
Co47 O48 2.061 . S
Co47 O53 2.052 . S
Co47 O55 2.135 . S
O48 Co47 2.061 . S
O48 C51 1.235 1_455 S
C49 O52 1.238 1_455 S
C49 O53 1.241 . S
C50 O43 1.247 . S
C50 O44 1.261 . S
C51 O46 1.259 . S
C51 O48 1.235 1_655 S
O52 Co42 2.021 . S
O52 C49 1.238 1_655 S
O53 Co47 2.052 . S
O53 C49 1.241 . S
O54 Co42 2.137 . S
O54 C45 1.247 . S
O55 Co42 2.244 1_455 S
O55 C45 1.272 1_455 S
O55 Co47 2.135 . S
Co56 O57 2.216 . S
Co56 O58 2.091 . S
Co56 O60 2.004 . S
Co56 O66 2.021 . S
Co56 O68 2.137 . S
Co56 O69 2.244 1_565 S
O57 Co56 2.216 . S
O57 C64 1.247 . S
O58 Co56 2.091 . S
O58 C64 1.261 . S
C59 O68 1.247 . S
C59 O69 1.272 1_565 S
O60 Co56 2.004 . S
O60 C65 1.259 . S
Co61 O62 2.061 . S
Co61 O67 2.052 . S
Co61 O69 2.135 . S
O62 Co61 2.061 . S
O62 C65 1.235 1_545 S
C63 O66 1.238 1_545 S
C63 O67 1.241 . S
C64 O57 1.247 . S
C64 O58 1.261 . S
C65 O60 1.259 . S
C65 O62 1.235 1_565 S
O66 Co56 2.021 . S
O66 C63 1.238 1_565 S
O67 Co61 2.052 . S
O67 C63 1.241 . S
O68 Co56 2.137 . S
O68 C59 1.247 . S
O69 Co56 2.244 1_545 S
O69 C59 1.272 1_545 S
O69 Co61 2.135 . S
Co70 O71 2.216 . S
Co70 O72 2.091 . S
Co70 O74 2.004 . S
Co70 O80 2.021 . S
Co70 O82 2.137 . S
Co70 O83 2.244 . S
O71 Co70 2.216 . S
O71 C78 1.247 . S
O72 Co70 2.091 . S
O72 C78 1.261 . S
C73 O82 1.247 . S
C73 O83 1.272 . S
O74 Co70 2.004 . S
O74 C79 1.259 . S
Co75 O76 2.061 . S
Co75 O81 2.052 . S
Co75 O83 2.135 . S
O76 Co75 2.061 . S
O76 C79 1.235 . S
C77 O80 1.238 . S
C77 O81 1.241 . S
C78 O71 1.247 . S
C78 O72 1.261 . S
C79 O74 1.259 . S
C79 O76 1.235 . S
O80 Co70 2.021 . S
O80 C77 1.238 . S
O81 Co75 2.052 . S
O81 C77 1.241 . S
O82 Co70 2.137 . S
O82 C73 1.247 . S
O83 Co70 2.244 . S
O83 C73 1.272 . S
O83 Co75 2.135 . S
Co84 O85 2.216 . S
Co84 O86 2.091 . S
Co84 O88 2.004 . S
Co84 O94 2.021 . S
Co84 O96 2.137 . S
Co84 O97 2.244 1_565 S
O85 Co84 2.216 . S
O85 C92 1.247 . S
O86 Co84 2.091 . S
O86 C92 1.261 . S
C87 O96 1.247 . S
C87 O97 1.272 1_565 S
O88 Co84 2.004 . S
O88 C93 1.259 . S
Co89 O90 2.061 . S
Co89 O95 2.052 . S
Co89 O97 2.135 . S
O90 Co89 2.061 . S
O90 C93 1.235 1_545 S
C91 O94 1.238 1_545 S
C91 O95 1.241 . S
C92 O85 1.247 . S
C92 O86 1.261 . S
C93 O88 1.259 . S
C93 O90 1.235 1_565 S
O94 Co84 2.021 . S
O94 C91 1.238 1_565 S
O95 Co89 2.052 . S
O95 C91 1.241 . S
O96 Co84 2.137 . S
O96 C87 1.247 . S
O97 Co84 2.244 1_545 S
O97 C87 1.272 1_545 S
O97 Co89 2.135 . S
Co98 O99 2.216 . S
Co98 O100 2.091 . S
Co98 O102 2.004 . S
Co98 O108 2.021 . S
Co98 O110 2.137 . S
Co98 O111 2.244 . S
O99 Co98 2.216 . S
O99 C106 1.247 . S
O100 Co98 2.091 . S
O100 C106 1.261 . S
C101 O110 1.247 . S
C101 O111 1.272 . S
O102 Co98 2.004 . S
O102 C107 1.259 . S
Co103 O104 2.061 . S
Co103 O109 2.052 . S
Co103 O111 2.135 . S
O104 Co103 2.061 . S
O104 C107 1.235 . S
C105 O108 1.238 . S
C105 O109 1.241 . S
C106 O99 1.247 . S
C106 O100 1.261 . S
C107 O102 1.259 . S
C107 O104 1.235 . S
O108 Co98 2.021 . S
O108 C105 1.238 . S
O109 Co103 2.052 . S
O109 C105 1.241 . S
O110 Co98 2.137 . S
O110 C101 1.247 . S
O111 Co98 2.244 . S
O111 C101 1.272 . S
O111 Co103 2.135 . S
Co112 O113 2.216 . S
Co112 O114 2.091 . S
Co112 O116 2.004 . S
Co112 O122 2.021 . S
Co112 O124 2.137 . S
Co112 O125 2.244 1_455 S
O113 Co112 2.216 . S
O113 C120 1.247 . S
O114 Co112 2.091 . S
O114 C120 1.261 . S
C115 O124 1.247 . S
C115 O125 1.272 1_455 S
O116 Co112 2.004 . S
O116 C121 1.259 . S
Co117 O118 2.061 . S
Co117 O123 2.052 . S
Co117 O125 2.135 . S
O118 Co117 2.061 . S
O118 C121 1.235 1_655 S
C119 O122 1.238 1_655 S
C119 O123 1.241 . S
C120 O113 1.247 . S
C120 O114 1.261 . S
C121 O116 1.259 . S
C121 O118 1.235 1_455 S
O122 Co112 2.021 . S
O122 C119 1.238 1_455 S
O123 Co117 2.052 . S
O123 C119 1.241 . S
O124 Co112 2.137 . S
O124 C115 1.247 . S
O125 Co112 2.244 1_655 S
O125 C115 1.272 1_655 S
O125 Co117 2.135 . S
Co126 O127 2.216 . S
Co126 O128 2.091 . S
Co126 O130 2.004 . S
Co126 O136 2.021 . S
Co126 O138 2.137 . S
Co126 O139 2.244 1_545 S
O127 Co126 2.216 . S
O127 C134 1.247 . S
O128 Co126 2.091 . S
O128 C134 1.261 . S
C129 O138 1.247 . S
C129 O139 1.272 1_545 S
O130 Co126 2.004 . S
O130 C135 1.259 . S
Co131 O132 2.061 . S
Co131 O137 2.052 . S
Co131 O139 2.135 . S
O132 Co131 2.061 . S
O132 C135 1.235 1_565 S
C133 O136 1.238 1_565 S
C133 O137 1.241 . S
C134 O127 1.247 . S
C134 O128 1.261 . S
C135 O130 1.259 . S
C135 O132 1.235 1_545 S
O136 Co126 2.021 . S
O136 C133 1.238 1_545 S
O137 Co131 2.052 . S
O137 C133 1.241 . S
O138 Co126 2.137 . S
O138 C129 1.247 . S
O139 Co126 2.244 1_565 S
O139 C129 1.272 1_565 S
O139 Co131 2.135 . S
Co140 O141 2.216 . S
Co140 O142 2.091 . S
Co140 O144 2.004 . S
Co140 O150 2.021 . S
Co140 O152 2.137 . S
Co140 O153 2.244 . S
O141 Co140 2.216 . S
O141 C148 1.247 . S
O142 Co140 2.091 . S
O142 C148 1.261 . S
C143 O152 1.247 . S
C143 O153 1.272 . S
O144 Co140 2.004 . S
O144 C149 1.259 . S
Co145 O146 2.061 . S
Co145 O151 2.052 . S
Co145 O153 2.135 . S
O146 Co145 2.061 . S
O146 C149 1.235 . S
C147 O150 1.238 . S
C147 O151 1.241 . S
C148 O141 1.247 . S
C148 O142 1.261 . S
C149 O144 1.259 . S
C149 O146 1.235 . S
O150 Co140 2.021 . S
O150 C147 1.238 . S
O151 Co145 2.052 . S
O151 C147 1.241 . S
O152 Co140 2.137 . S
O152 C143 1.247 . S
O153 Co140 2.244 . S
O153 C143 1.272 . S
O153 Co145 2.135 . S
Co154 O155 2.216 . S
Co154 O156 2.091 . S
Co154 O158 2.004 . S
Co154 O164 2.021 . S
Co154 O166 2.137 . S
Co154 O167 2.244 1_655 S
O155 Co154 2.216 . S
O155 C162 1.247 . S
O156 Co154 2.091 . S
O156 C162 1.261 . S
C157 O166 1.247 . S
C157 O167 1.272 1_655 S
O158 Co154 2.004 . S
O158 C163 1.259 . S
Co159 O160 2.061 . S
Co159 O165 2.052 . S
Co159 O167 2.135 . S
O160 Co159 2.061 . S
O160 C163 1.235 1_455 S
C161 O164 1.238 1_455 S
C161 O165 1.241 . S
C162 O155 1.247 . S
C162 O156 1.261 . S
C163 O158 1.259 . S
C163 O160 1.235 1_655 S
O164 Co154 2.021 . S
O164 C161 1.238 1_655 S
O165 Co159 2.052 . S
O165 C161 1.241 . S
O166 Co154 2.137 . S
O166 C157 1.247 . S
O167 Co154 2.244 1_455 S
O167 C157 1.272 1_455 S
O167 Co159 2.135 . S
C7 C161 1.610 1_654 S
C91 C21 1.610 1_545 S
C35 C105 1.610 1_554 S
C119 C49 1.610 1_655 S
C133 C63 1.610 1_566 S
C147 C77 1.610 . S
C45 C115 1.382 1_656 S
C59 C129 1.382 1_565 S
C73 C143 1.382 1_556 S
C157 C3 1.382 1_655 S
C17 C87 1.382 1_546 S
C31 C101 1.382 . S
C121 C9 1.641 . S
C135 C23 1.641 . S
C37 C149 1.641 . S
C51 C163 1.641 . S
C65 C93 1.641 . S
C107 C79 1.641 . S
C8 C148 1.642 . S
C162 C22 1.642 . S
C36 C92 1.642 . S
C50 C106 1.642 . S
C64 C120 1.642 . S
C78 C134 1.642 . S
