# Generated by pormake.
# Topology pcu, (6)-cn, num edge types: 1
# Building blocks:
#     Node 0, Type 0, BuildingBlock: BETDIP_clean_sbu_0, # of connection points: 6
#     Edge 1, Type (0, 0), BuildingBlock: OJICUG_clean_linker_0, # of connection points: 2
#     Edge 2, Type (0, 0), BuildingBlock: OJICUG_clean_linker_0, # of connection points: 2
#     Edge 3, Type (0, 0), BuildingBlock: OJICUG_clean_linker_0, # of connection points: 2
# Relax obj value: 0.000
# Max RMSD: 0.000
# Mean RMSD: 0.000
data_MOF--net-pcu--node1-BETDIP_clean_sbu_0--edge1-OJICUG_clean_linker_0
_symmetry_space_group_name_H-M    P1
_symmetry_Int_Tables_number       1
_symmetry_cell_setting            triclinic
loop_
_symmetry_equiv_pos_as_xyz
'x, y, z'
_cell_length_a     20.961969
_cell_length_b     11.335395
_cell_length_c     10.181005
_cell_angle_alpha  89.54436
_cell_angle_beta   98.816799
_cell_angle_gamma 122.60726
loop_
_atom_site_label
_atom_site_type_symbol
_atom_site_fract_x
_atom_site_fract_y
_atom_site_fract_z
_atom_type_partial_charge
Tb0 Tb 0.95489 0.8833 1.02194 0.0
Tb1 Tb 0.12578 0.05934 0.03008 0.0
C2 C 0.82139 0.78391 0.06908 0.0
C3 C 0.76569 0.82747 0.05855 0.0
C4 C 0.76146 0.89389 0.16993 0.0
C5 C 0.70717 0.9306 0.16176 0.0
C6 C 0.65551 0.90109 0.0422 0.0
C7 C 0.6598 0.83478 0.9308 0.0
C8 C 0.71403 0.79796 0.93897 0.0
C9 C 0.99813 0.91879 0.78743 0.0
C10 C 0.04365 0.21943 1.02558 0.0
C11 C 0.25944 0.15898 0.98368 0.0
C12 C 0.31507 0.11526 0.99404 0.0
C13 C 0.31917 0.04866 0.88264 0.0
C14 C 0.37341 0.01183 0.89073 0.0
C15 C 0.42514 0.04137 1.0102 0.0
C16 C 0.42097 0.10787 0.12161 0.0
C17 C 0.3668 0.14483 0.11352 0.0
C18 C 0.08214 0.02372 0.26442 0.0
C19 C 1.03701 0.72323 0.02611 0.0
O20 O 0.88383 0.85503 0.15954 0.0
O21 O 0.83563 0.75456 0.95724 0.0
O22 O 1.02818 0.00937 0.88583 0.0
O23 O 0.93772 0.80588 0.81493 0.0
O24 O 0.98248 0.09946 0.04894 0.0
O25 O 0.10438 0.225 0.99572 0.0
O26 O 0.19716 0.08851 0.89279 0.0
O27 O 0.24498 0.1876 0.09561 0.0
O28 O 0.05254 0.93333 0.16599 0.0
O29 O 0.14251 0.13682 0.23703 0.0
O30 O 0.09815 0.8432 1.00267 0.0
O31 O 0.97632 0.71768 0.05617 0.0
H32 H 0.79989 0.91696 0.26392 0.0
H33 H 0.70597 -0.01714 0.24906 0.0
H34 H 0.62013 0.80858 0.8378 0.0
H35 H 0.71486 0.74507 0.85173 0.0
H36 H 0.28068 0.02554 0.78872 0.0
H37 H 0.37453 0.95944 0.80342 0.0
H38 H 0.46069 0.1341 0.21455 0.0
H39 H 0.36608 0.19787 0.20076 0.0
C40 C 0.09932 0.10487 0.50221 0.0
C41 C 0.06015 -0.00313 0.39776 0.0
H42 H 0.11031 0.16484 0.70769 0.0
C43 C 1.00076 0.86287 0.42257 0.0
H44 H 0.14535 0.20917 0.48581 0.0
C45 C 0.98085 0.83744 0.54956 0.0
C46 C 1.02003 0.94545 0.654 0.0
H47 H 0.9699 0.77748 0.34405 0.0
H48 H 0.93481 0.73316 0.56598 0.0
C49 C 0.07942 0.07943 0.62918 0.0
C50 C 0.52388 0.02631 0.91221 0.0
C51 C 0.48392 0.00482 1.01818 0.0
H52 H 0.61005 0.01288 0.8375 0.0
C53 C 0.50101 0.94924 0.13222 0.0
H54 H 0.51305 0.07109 0.82384 0.0
C55 C 0.55669 0.91599 0.14011 0.0
C56 C 0.59667 0.93751 0.03415 0.0
H57 H 0.47053 0.92944 0.21482 0.0
H58 H 0.56751 0.87121 0.22848 0.0
C59 C 0.57956 -0.00693 0.9201 0.0
C60 C 0.10271 0.5975 0.99527 0.0
C61 C 1.03861 0.59427 1.02571 0.0
H62 H 0.15467 0.48221 0.97141 0.0
C63 C 0.97624 0.46671 0.05617 0.0
H64 H 0.15177 0.69394 0.97123 0.0
C65 C 0.97793 0.34515 0.0563 0.0
C66 C 0.04203 0.34838 1.02588 0.0
H67 H 0.92597 0.46044 0.08017 0.0
H68 H 0.92888 0.24872 0.08035 0.0
C69 C 0.1044 0.47593 0.9954 0.0
loop_
_geom_bond_atom_site_label_1
_geom_bond_atom_site_label_2
_geom_bond_distance
_geom_bond_site_symmetry_2
_ccdc_geom_bond_type
Tb0 C2 2.809 . S
Tb0 O20 2.484 1_556 S
Tb0 O21 2.440 . S
Tb0 O22 2.658 1_655 S
Tb0 O23 2.409 . S
Tb0 O24 2.378 1_565 S
Tb0 O28 2.325 1_566 S
Tb0 O31 2.341 . S
Tb1 C11 2.809 . S
Tb1 O22 2.325 1_544 S
Tb1 O25 2.341 . S
Tb1 O26 2.484 1_554 S
Tb1 O27 2.440 . S
Tb1 O28 2.658 1_455 S
Tb1 O29 2.409 . S
Tb1 O30 2.378 1_545 S
C2 Tb0 2.809 . S
C2 C3 1.514 . S
C2 O20 1.248 1_556 S
C2 O21 1.266 . S
C3 C2 1.514 . S
C3 C4 1.355 1_566 S
C3 C8 1.348 . S
C4 C3 1.355 1_544 S
C4 C5 1.386 . S
C4 H32 0.927 . S
C5 C4 1.386 . S
C5 C6 1.347 1_544 S
C5 H33 0.931 . S
C6 C5 1.347 1_566 S
C6 C7 1.369 . S
C7 C6 1.369 . S
C7 C8 1.408 . S
C7 H34 0.930 . S
C8 C3 1.348 . S
C8 C7 1.408 . S
C8 H35 0.930 . S
C9 O22 1.281 1_655 S
C9 O23 1.254 . S
C10 O24 1.236 1_455 S
C10 O25 1.266 1_556 S
C11 Tb1 2.809 . S
C11 C12 1.514 . S
C11 O26 1.248 1_554 S
C11 O27 1.266 . S
C12 C11 1.514 . S
C12 C13 1.356 1_544 S
C12 C17 1.348 . S
C13 C12 1.356 1_566 S
C13 C14 1.385 . S
C13 H36 0.927 . S
C14 C13 1.385 . S
C14 C15 1.347 1_566 S
C14 H37 0.931 . S
C15 C14 1.347 1_544 S
C15 C16 1.369 . S
C16 C15 1.369 . S
C16 C17 1.408 . S
C16 H38 0.930 . S
C17 C12 1.348 . S
C17 C16 1.408 . S
C17 H39 0.930 . S
C18 O28 1.281 1_455 S
C18 O29 1.254 . S
C19 O30 1.236 1_655 S
C19 O31 1.266 1_554 S
O20 Tb0 2.484 1_554 S
O20 C2 1.248 1_554 S
O21 Tb0 2.440 . S
O21 C2 1.266 . S
O22 Tb0 2.658 1_455 S
O22 Tb1 2.325 1_566 S
O22 C9 1.281 1_455 S
O23 Tb0 2.409 . S
O23 C9 1.254 . S
O24 Tb0 2.378 1_545 S
O24 C10 1.236 1_655 S
O25 Tb1 2.341 . S
O25 C10 1.266 1_554 S
O26 Tb1 2.484 1_556 S
O26 C11 1.248 1_556 S
O27 Tb1 2.440 . S
O27 C11 1.266 . S
O28 Tb0 2.325 1_544 S
O28 Tb1 2.658 1_655 S
O28 C18 1.281 1_655 S
O29 Tb1 2.409 . S
O29 C18 1.254 . S
O30 Tb1 2.378 1_565 S
O30 C19 1.236 1_455 S
O31 Tb0 2.341 . S
O31 C19 1.266 1_556 S
H32 C4 0.927 . S
H33 C5 0.931 . S
H34 C7 0.930 . S
H35 C8 0.930 . S
H36 C13 0.927 . S
H37 C14 0.931 . S
H38 C16 0.930 . S
H39 C17 0.930 . S
C40 C41 1.387 . S
C40 H44 0.950 . S
C40 C49 1.390 . S
C41 C40 1.387 . S
C41 C43 1.387 1_445 S
H42 C49 0.950 . S
C43 C41 1.387 1_665 S
C43 C45 1.390 . S
C43 H47 0.950 . S
H44 C40 0.950 . S
C45 C43 1.390 . S
C45 C46 1.386 . S
C45 H48 0.950 . S
C46 C45 1.386 . S
C46 C49 1.388 1_665 S
H47 C43 0.950 . S
H48 C45 0.950 . S
C49 C40 1.390 . S
C49 H42 0.950 . S
C49 C46 1.388 1_445 S
C50 C51 1.388 1_545 S
C50 H54 0.950 . S
C50 C59 1.390 . S
C51 C50 1.388 1_565 S
C51 C53 1.390 1_556 S
H52 C59 0.950 . S
C53 C51 1.390 1_554 S
C53 C55 1.390 . S
C53 H57 0.950 . S
H54 C50 0.950 . S
C55 C53 1.390 . S
C55 C56 1.390 1_565 S
C55 H58 0.950 . S
C56 C55 1.390 1_545 S
C56 C59 1.390 1_554 S
H57 C53 0.950 . S
H58 C55 0.950 . S
C59 C50 1.390 . S
C59 H52 0.950 . S
C59 C56 1.390 1_556 S
C60 C61 1.387 1_556 S
C60 H64 0.950 . S
C60 C69 1.390 . S
C61 C60 1.387 1_554 S
C61 C63 1.387 1_655 S
H62 C69 0.950 . S
C63 C61 1.387 1_455 S
C63 C65 1.390 . S
C63 H67 0.950 . S
H64 C60 0.950 . S
C65 C63 1.390 . S
C65 C66 1.385 . S
C65 H68 0.950 . S
C66 C65 1.385 . S
C66 C69 1.385 1_454 S
H67 C63 0.950 . S
H68 C65 0.950 . S
C69 C60 1.390 . S
C69 H62 0.950 . S
C69 C66 1.385 1_656 S
C41 C18 1.452 . S
C46 C9 1.451 . S
C51 C15 1.496 1_566 S
C56 C6 1.495 1_544 S
C61 C19 1.491 . S
C66 C10 1.494 1_554 S
