# Generated by pormake.
# Topology umx, (4)-cn, num edge types: 1
# Building blocks:
#     Node 0, Type 0, BuildingBlock: QUQFOY_clean_sbu_3, # of connection points: 4
#     Node 1, Type 0, BuildingBlock: QUQFOY_clean_sbu_3, # of connection points: 4
#     Node 2, Type 0, BuildingBlock: QUQFOY_clean_sbu_3, # of connection points: 4
#     Node 3, Type 0, BuildingBlock: QUQFOY_clean_sbu_3, # of connection points: 4
#     Node 4, Type 0, BuildingBlock: QUQFOY_clean_sbu_3, # of connection points: 4
#     Node 5, Type 0, BuildingBlock: QUQFOY_clean_sbu_3, # of connection points: 4
#     Node 6, Type 0, BuildingBlock: QUQFOY_clean_sbu_3, # of connection points: 4
#     Node 7, Type 0, BuildingBlock: QUQFOY_clean_sbu_3, # of connection points: 4
#     Edge 8, Type (0, 0), None
#     Edge 9, Type (0, 0), None
#     Edge 10, Type (0, 0), None
#     Edge 11, Type (0, 0), None
#     Edge 12, Type (0, 0), None
#     Edge 13, Type (0, 0), None
#     Edge 14, Type (0, 0), None
#     Edge 15, Type (0, 0), None
#     Edge 16, Type (0, 0), None
#     Edge 17, Type (0, 0), None
#     Edge 18, Type (0, 0), None
#     Edge 19, Type (0, 0), None
#     Edge 20, Type (0, 0), None
#     Edge 21, Type (0, 0), None
#     Edge 22, Type (0, 0), None
#     Edge 23, Type (0, 0), None
# Relax obj value: 0.075
# Max RMSD: 0.190
# Mean RMSD: 0.190
data_MOF--net-umx--node1-QUQFOY_clean_sbu_3--edge1-none
_symmetry_space_group_name_H-M    P1
_symmetry_Int_Tables_number       1
_symmetry_cell_setting            triclinic
loop_
_symmetry_equiv_pos_as_xyz
'x, y, z'
_cell_length_a     21.019101
_cell_length_b     21.019507
_cell_length_c     13.136887
_cell_angle_alpha  90.000389
_cell_angle_beta   89.999307
_cell_angle_gamma 90.042769
loop_
_atom_site_label
_atom_site_type_symbol
_atom_site_fract_x
_atom_site_fract_y
_atom_site_fract_z
_atom_type_partial_charge
C0 C 0.13151 0.44102 0.78965 0.0
O1 O 0.1334 0.49548 0.83198 0.0
Cd2 Cd 0.1165 0.51768 0.01139 0.0
O3 O 0.1246 0.3905 0.84158 0.0
Cd4 Cd 0.11633 0.35159 0.01644 0.0
C5 C -0.02616 0.43725 0.02082 0.0
O6 O 0.16772 0.43536 0.1016 0.0
O7 O 0.12835 0.36302 0.20047 0.0
O8 O 0.2131 0.3025 -0.02209 0.0
C9 C 0.15552 0.41669 0.19138 0.0
O10 O 0.00503 0.48922 0.02395 0.0
C11 C 0.19588 0.24505 -0.01179 0.0
O12 O 0.00149 0.38285 0.01499 0.0
O13 O 0.13762 0.23425 0.01026 0.0
C14 C 0.43625 0.13156 0.28988 0.0
O15 O 0.3818 0.13318 0.33223 0.0
Cd16 Cd 0.35972 0.11619 0.51167 0.0
O17 O 0.4868 0.12491 0.3418 0.0
Cd18 Cd 0.52581 0.11678 0.51661 0.0
C19 C 0.44062 -0.02609 0.52109 0.0
O20 O 0.44191 0.16781 0.6018 0.0
O21 O 0.51439 0.12878 0.70065 0.0
O22 O 0.57487 0.21367 0.47812 0.0
C23 C 0.46063 0.1557 0.69157 0.0
O24 O 0.38854 0.00486 0.52424 0.0
C25 C 0.63233 0.19651 0.48829 0.0
O26 O 0.49493 0.00181 0.51522 0.0
O27 O 0.64313 0.13827 0.5103 0.0
C28 C 0.74641 0.43701 0.78966 0.0
O29 O 0.74452 0.38256 0.83199 0.0
Cd30 Cd 0.76142 0.36036 0.0114 0.0
O31 O 0.75332 0.48753 0.84159 0.0
Cd32 Cd 0.76158 0.52645 0.01645 0.0
C33 C 0.90408 0.44079 0.02082 0.0
O34 O 0.7102 0.44268 0.10161 0.0
O35 O 0.74957 0.51502 0.20048 0.0
O36 O 0.66482 0.57554 -0.02208 0.0
C37 C 0.7224 0.46135 0.19139 0.0
O38 O 0.87289 0.38882 0.02396 0.0
C39 C 0.68204 0.63299 -0.01179 0.0
O40 O 0.87643 0.49519 0.01499 0.0
O41 O 0.7403 0.64379 0.01027 0.0
C42 C 0.44166 0.74649 0.28988 0.0
O43 O 0.49612 0.74487 0.33222 0.0
Cd44 Cd 0.5182 0.76186 0.51166 0.0
O45 O 0.39111 0.75314 0.3418 0.0
Cd46 Cd 0.35211 0.76127 0.51661 0.0
C47 C 0.43729 0.90414 0.52109 0.0
O48 O 0.43601 0.71024 0.60179 0.0
O49 O 0.36353 0.74926 0.70064 0.0
O50 O 0.30305 0.66437 0.47811 0.0
C51 C 0.41729 0.72235 0.69156 0.0
O52 O 0.48937 0.87319 0.52423 0.0
C53 C 0.2456 0.68153 0.48829 0.0
O54 O 0.38299 0.87624 0.51522 0.0
O55 O 0.23479 0.73977 0.5103 0.0
C56 C 0.13151 0.43634 0.67837 0.0
O57 O 0.13312 0.38189 0.63603 0.0
Cd58 Cd 0.11613 0.35979 0.4566 0.0
O59 O 0.12485 0.48689 0.62644 0.0
Cd60 Cd 0.11672 0.52587 0.45161 0.0
C61 C -0.02615 0.44068 0.44716 0.0
O62 O 0.16776 0.44195 0.36645 0.0
O63 O 0.1287 0.51442 0.26757 0.0
O64 O 0.21363 0.57493 0.49003 0.0
C65 C 0.15561 0.46066 0.27668 0.0
O66 O 0.0048 0.3886 0.44402 0.0
C67 C 0.19646 0.63239 0.47986 0.0
O68 O 0.00175 0.49499 0.45301 0.0
O69 O 0.13821 0.64318 0.4579 0.0
C70 C 0.44093 0.13157 0.1786 0.0
O71 O 0.49539 0.13346 0.13628 0.0
Cd72 Cd 0.51761 0.11656 0.95688 0.0
O73 O 0.39041 0.12466 0.12667 0.0
Cd74 Cd 0.35153 0.11639 0.95178 0.0
C75 C 0.43719 -0.0261 0.94743 0.0
O76 O 0.43532 0.16779 0.86665 0.0
O77 O 0.36299 0.12838 0.76775 0.0
O78 O 0.30244 0.21317 -0.00977 0.0
C79 C 0.41665 0.15555 0.77688 0.0
O80 O 0.48917 0.00509 0.9443 0.0
C81 C 0.24499 0.19594 -0.02006 0.0
O82 O 0.38279 0.00155 0.95325 0.0
O83 O 0.23419 0.13768 0.95794 0.0
C84 C 0.74642 0.44169 0.67838 0.0
O85 O 0.74481 0.49615 0.63605 0.0
Cd86 Cd 0.7618 0.51825 0.45662 0.0
O87 O 0.75307 0.39115 0.62645 0.0
Cd88 Cd 0.7612 0.35217 0.45162 0.0
C89 C 0.90408 0.43735 0.44716 0.0
O90 O 0.71016 0.43608 0.36646 0.0
O91 O 0.74923 0.36362 0.26758 0.0
O92 O 0.6643 0.30311 0.49003 0.0
C93 C 0.72231 0.41738 0.2767 0.0
O94 O 0.87313 0.48944 0.44402 0.0
C95 C 0.68146 0.24565 0.47987 0.0
O96 O 0.87618 0.38305 0.45301 0.0
O97 O 0.73972 0.23486 0.4579 0.0
C98 C 0.43698 0.74647 0.1786 0.0
O99 O 0.38253 0.74458 0.13628 0.0
Cd100 Cd 0.36031 0.76149 0.95688 0.0
O101 O 0.4875 0.75338 0.12666 0.0
Cd102 Cd 0.52639 0.76165 0.95178 0.0
C103 C 0.44073 0.90414 0.94742 0.0
O104 O 0.4426 0.71026 0.86664 0.0
O105 O 0.51494 0.74967 0.76774 0.0
O106 O 0.57548 0.66487 -0.00977 0.0
C107 C 0.46127 0.7225 0.77687 0.0
O108 O 0.38876 0.87295 0.9443 0.0
C109 C 0.63293 0.6821 -0.02006 0.0
O110 O 0.49514 0.87649 0.95325 0.0
O111 O 0.64373 0.74036 0.95794 0.0
loop_
_geom_bond_atom_site_label_1
_geom_bond_atom_site_label_2
_geom_bond_distance
_geom_bond_site_symmetry_2
_ccdc_geom_bond_type
C0 O1 1.306 . S
C0 O3 1.160 . S
O1 C0 1.306 . S
O1 Cd2 2.228 1_556 S
Cd2 O1 2.228 1_554 S
Cd2 O6 2.273 . S
Cd2 O10 2.277 . S
O3 C0 1.160 . S
O3 Cd4 2.203 1_556 S
Cd4 O3 2.203 1_554 S
Cd4 O6 2.411 . S
Cd4 O7 2.333 . S
Cd4 O8 2.352 . S
Cd4 O12 2.277 . S
Cd4 O13 2.356 . S
C5 O10 1.209 . S
C5 O12 1.226 . S
O6 Cd2 2.273 . S
O6 Cd4 2.411 . S
O6 C9 1.320 . S
O7 Cd4 2.333 . S
O7 C9 1.214 . S
O8 Cd4 2.352 . S
O8 C11 1.258 . S
C9 O6 1.320 . S
C9 O7 1.214 . S
O10 Cd2 2.277 . S
O10 C5 1.209 . S
C11 O8 1.258 . S
C11 O13 1.282 . S
O12 Cd4 2.277 . S
O12 C5 1.226 . S
O13 Cd4 2.356 . S
O13 C11 1.282 . S
C14 O15 1.306 . S
C14 O17 1.160 . S
O15 C14 1.306 . S
O15 Cd16 2.228 . S
Cd16 O15 2.228 . S
Cd16 O20 2.273 . S
Cd16 O24 2.277 . S
O17 C14 1.160 . S
O17 Cd18 2.203 . S
Cd18 O17 2.203 . S
Cd18 O20 2.411 . S
Cd18 O21 2.333 . S
Cd18 O22 2.352 . S
Cd18 O26 2.277 . S
Cd18 O27 2.356 . S
C19 O24 1.209 . S
C19 O26 1.226 . S
O20 Cd16 2.273 . S
O20 Cd18 2.411 . S
O20 C23 1.320 . S
O21 Cd18 2.333 . S
O21 C23 1.214 . S
O22 Cd18 2.352 . S
O22 C25 1.258 . S
C23 O20 1.320 . S
C23 O21 1.214 . S
O24 Cd16 2.277 . S
O24 C19 1.209 . S
C25 O22 1.258 . S
C25 O27 1.282 . S
O26 Cd18 2.277 . S
O26 C19 1.226 . S
O27 Cd18 2.356 . S
O27 C25 1.282 . S
C28 O29 1.306 . S
C28 O31 1.160 . S
O29 C28 1.306 . S
O29 Cd30 2.228 1_556 S
Cd30 O29 2.228 1_554 S
Cd30 O34 2.273 . S
Cd30 O38 2.277 . S
O31 C28 1.160 . S
O31 Cd32 2.203 1_556 S
Cd32 O31 2.203 1_554 S
Cd32 O34 2.411 . S
Cd32 O35 2.333 . S
Cd32 O36 2.352 . S
Cd32 O40 2.277 . S
Cd32 O41 2.356 . S
C33 O38 1.209 . S
C33 O40 1.226 . S
O34 Cd30 2.273 . S
O34 Cd32 2.411 . S
O34 C37 1.320 . S
O35 Cd32 2.333 . S
O35 C37 1.214 . S
O36 Cd32 2.352 . S
O36 C39 1.258 . S
C37 O34 1.320 . S
C37 O35 1.214 . S
O38 Cd30 2.277 . S
O38 C33 1.209 . S
C39 O36 1.258 . S
C39 O41 1.282 . S
O40 Cd32 2.277 . S
O40 C33 1.226 . S
O41 Cd32 2.356 . S
O41 C39 1.282 . S
C42 O43 1.306 . S
C42 O45 1.160 . S
O43 C42 1.306 . S
O43 Cd44 2.228 . S
Cd44 O43 2.228 . S
Cd44 O48 2.273 . S
Cd44 O52 2.277 . S
O45 C42 1.160 . S
O45 Cd46 2.203 . S
Cd46 O45 2.203 . S
Cd46 O48 2.411 . S
Cd46 O49 2.333 . S
Cd46 O50 2.352 . S
Cd46 O54 2.277 . S
Cd46 O55 2.356 . S
C47 O52 1.209 . S
C47 O54 1.226 . S
O48 Cd44 2.273 . S
O48 Cd46 2.411 . S
O48 C51 1.320 . S
O49 Cd46 2.333 . S
O49 C51 1.214 . S
O50 Cd46 2.352 . S
O50 C53 1.258 . S
C51 O48 1.320 . S
C51 O49 1.214 . S
O52 Cd44 2.277 . S
O52 C47 1.209 . S
C53 O50 1.258 . S
C53 O55 1.282 . S
O54 Cd46 2.277 . S
O54 C47 1.226 . S
O55 Cd46 2.356 . S
O55 C53 1.282 . S
C56 O57 1.306 . S
C56 O59 1.160 . S
O57 C56 1.306 . S
O57 Cd58 2.228 . S
Cd58 O57 2.228 . S
Cd58 O62 2.273 . S
Cd58 O66 2.277 . S
O59 C56 1.160 . S
O59 Cd60 2.203 . S
Cd60 O59 2.203 . S
Cd60 O62 2.411 . S
Cd60 O63 2.333 . S
Cd60 O64 2.352 . S
Cd60 O68 2.277 . S
Cd60 O69 2.356 . S
C61 O66 1.209 . S
C61 O68 1.226 . S
O62 Cd58 2.273 . S
O62 Cd60 2.411 . S
O62 C65 1.320 . S
O63 Cd60 2.333 . S
O63 C65 1.214 . S
O64 Cd60 2.352 . S
O64 C67 1.258 . S
C65 O62 1.320 . S
C65 O63 1.214 . S
O66 Cd58 2.277 . S
O66 C61 1.209 . S
C67 O64 1.258 . S
C67 O69 1.282 . S
O68 Cd60 2.277 . S
O68 C61 1.226 . S
O69 Cd60 2.356 . S
O69 C67 1.282 . S
C70 O71 1.306 . S
C70 O73 1.160 . S
O71 C70 1.306 . S
O71 Cd72 2.228 1_554 S
Cd72 O71 2.228 1_556 S
Cd72 O76 2.273 . S
Cd72 O80 2.277 . S
O73 C70 1.160 . S
O73 Cd74 2.203 . S
Cd74 O73 2.203 . S
Cd74 O76 2.411 1_554 S
Cd74 O77 2.333 1_554 S
Cd74 O78 2.352 . S
Cd74 O82 2.277 . S
Cd74 O83 2.356 1_554 S
C75 O80 1.209 1_554 S
C75 O82 1.226 . S
O76 Cd72 2.273 . S
O76 Cd74 2.411 1_556 S
O76 C79 1.320 . S
O77 Cd74 2.333 1_556 S
O77 C79 1.214 . S
O78 Cd74 2.352 . S
O78 C81 1.258 1_554 S
C79 O76 1.320 . S
C79 O77 1.214 . S
O80 Cd72 2.277 . S
O80 C75 1.209 1_556 S
C81 O78 1.258 1_556 S
C81 O83 1.282 . S
O82 Cd74 2.277 . S
O82 C75 1.226 . S
O83 Cd74 2.356 1_556 S
O83 C81 1.282 . S
C84 O85 1.306 . S
C84 O87 1.160 . S
O85 C84 1.306 . S
O85 Cd86 2.228 . S
Cd86 O85 2.228 . S
Cd86 O90 2.273 . S
Cd86 O94 2.277 . S
O87 C84 1.160 . S
O87 Cd88 2.203 . S
Cd88 O87 2.203 . S
Cd88 O90 2.411 . S
Cd88 O91 2.333 . S
Cd88 O92 2.352 . S
Cd88 O96 2.277 . S
Cd88 O97 2.356 . S
C89 O94 1.209 . S
C89 O96 1.226 . S
O90 Cd86 2.273 . S
O90 Cd88 2.411 . S
O90 C93 1.320 . S
O91 Cd88 2.333 . S
O91 C93 1.214 . S
O92 Cd88 2.352 . S
O92 C95 1.258 . S
C93 O90 1.320 . S
C93 O91 1.214 . S
O94 Cd86 2.277 . S
O94 C89 1.209 . S
C95 O92 1.258 . S
C95 O97 1.282 . S
O96 Cd88 2.277 . S
O96 C89 1.226 . S
O97 Cd88 2.356 . S
O97 C95 1.282 . S
C98 O99 1.306 . S
C98 O101 1.160 . S
O99 C98 1.306 . S
O99 Cd100 2.228 1_554 S
Cd100 O99 2.228 1_556 S
Cd100 O104 2.273 . S
Cd100 O108 2.277 . S
O101 C98 1.160 . S
O101 Cd102 2.203 . S
Cd102 O101 2.203 . S
Cd102 O104 2.411 1_554 S
Cd102 O105 2.333 1_554 S
Cd102 O106 2.352 . S
Cd102 O110 2.277 . S
Cd102 O111 2.356 1_554 S
C103 O108 1.209 1_554 S
C103 O110 1.226 . S
O104 Cd100 2.273 . S
O104 Cd102 2.411 1_556 S
O104 C107 1.320 . S
O105 Cd102 2.333 1_556 S
O105 C107 1.214 . S
O106 Cd102 2.352 . S
O106 C109 1.258 1_554 S
C107 O104 1.320 . S
C107 O105 1.214 . S
O108 Cd100 2.277 . S
O108 C103 1.209 1_556 S
C109 O106 1.258 1_556 S
C109 O111 1.282 . S
O110 Cd102 2.277 . S
O110 C103 1.226 . S
O111 Cd102 2.356 1_556 S
O111 C109 1.282 . S
C9 C65 1.514 . S
C23 C79 1.514 . S
C93 C37 1.514 . S
C107 C51 1.514 . S
C84 C28 1.792 . S
C98 C42 1.792 . S
C0 C56 1.792 . S
C14 C70 1.792 . S
C33 C5 1.588 1_655 S
C47 C19 1.587 1_565 S
C61 C89 1.587 1_455 S
C103 C75 1.588 1_565 S
C11 C81 1.405 1_554 S
C95 C25 1.405 . S
C39 C109 1.405 1_554 S
C53 C67 1.405 . S
