# Generated by pormake.
# Topology umg, (4)-cn, num edge types: 1
# Building blocks:
#     Node 0, Type 0, BuildingBlock: MUDLON_clean_sbu_0, # of connection points: 4
#     Node 1, Type 0, BuildingBlock: MUDLON_clean_sbu_0, # of connection points: 4
#     Node 2, Type 0, BuildingBlock: MUDLON_clean_sbu_0, # of connection points: 4
#     Node 3, Type 0, BuildingBlock: MUDLON_clean_sbu_0, # of connection points: 4
#     Node 4, Type 0, BuildingBlock: MUDLON_clean_sbu_0, # of connection points: 4
#     Node 5, Type 0, BuildingBlock: MUDLON_clean_sbu_0, # of connection points: 4
#     Node 6, Type 0, BuildingBlock: MUDLON_clean_sbu_0, # of connection points: 4
#     Node 7, Type 0, BuildingBlock: MUDLON_clean_sbu_0, # of connection points: 4
#     Node 8, Type 0, BuildingBlock: MUDLON_clean_sbu_0, # of connection points: 4
#     Node 9, Type 0, BuildingBlock: MUDLON_clean_sbu_0, # of connection points: 4
#     Node 10, Type 0, BuildingBlock: MUDLON_clean_sbu_0, # of connection points: 4
#     Node 11, Type 0, BuildingBlock: MUDLON_clean_sbu_0, # of connection points: 4
#     Edge 12, Type (0, 0), BuildingBlock: EYOCIG_clean_linker_4, # of connection points: 2
#     Edge 13, Type (0, 0), BuildingBlock: EYOCIG_clean_linker_4, # of connection points: 2
#     Edge 14, Type (0, 0), BuildingBlock: EYOCIG_clean_linker_4, # of connection points: 2
#     Edge 15, Type (0, 0), BuildingBlock: EYOCIG_clean_linker_4, # of connection points: 2
#     Edge 16, Type (0, 0), BuildingBlock: EYOCIG_clean_linker_4, # of connection points: 2
#     Edge 17, Type (0, 0), BuildingBlock: EYOCIG_clean_linker_4, # of connection points: 2
#     Edge 18, Type (0, 0), BuildingBlock: EYOCIG_clean_linker_4, # of connection points: 2
#     Edge 19, Type (0, 0), BuildingBlock: EYOCIG_clean_linker_4, # of connection points: 2
#     Edge 20, Type (0, 0), BuildingBlock: EYOCIG_clean_linker_4, # of connection points: 2
#     Edge 21, Type (0, 0), BuildingBlock: EYOCIG_clean_linker_4, # of connection points: 2
#     Edge 22, Type (0, 0), BuildingBlock: EYOCIG_clean_linker_4, # of connection points: 2
#     Edge 23, Type (0, 0), BuildingBlock: EYOCIG_clean_linker_4, # of connection points: 2
#     Edge 24, Type (0, 0), BuildingBlock: EYOCIG_clean_linker_4, # of connection points: 2
#     Edge 25, Type (0, 0), BuildingBlock: EYOCIG_clean_linker_4, # of connection points: 2
#     Edge 26, Type (0, 0), BuildingBlock: EYOCIG_clean_linker_4, # of connection points: 2
#     Edge 27, Type (0, 0), BuildingBlock: EYOCIG_clean_linker_4, # of connection points: 2
#     Edge 28, Type (0, 0), BuildingBlock: EYOCIG_clean_linker_4, # of connection points: 2
#     Edge 29, Type (0, 0), BuildingBlock: EYOCIG_clean_linker_4, # of connection points: 2
#     Edge 30, Type (0, 0), BuildingBlock: EYOCIG_clean_linker_4, # of connection points: 2
#     Edge 31, Type (0, 0), BuildingBlock: EYOCIG_clean_linker_4, # of connection points: 2
#     Edge 32, Type (0, 0), BuildingBlock: EYOCIG_clean_linker_4, # of connection points: 2
#     Edge 33, Type (0, 0), BuildingBlock: EYOCIG_clean_linker_4, # of connection points: 2
#     Edge 34, Type (0, 0), BuildingBlock: EYOCIG_clean_linker_4, # of connection points: 2
#     Edge 35, Type (0, 0), BuildingBlock: EYOCIG_clean_linker_4, # of connection points: 2
# Relax obj value: 0.016
# Max RMSD: 0.185
# Mean RMSD: 0.185
data_MOF--net-umg--node1-MUDLON_clean_sbu_0--edge1-EYOCIG_clean_linker_4
_symmetry_space_group_name_H-M    P1
_symmetry_Int_Tables_number       1
_symmetry_cell_setting            triclinic
loop_
_symmetry_equiv_pos_as_xyz
'x, y, z'
_cell_length_a     24.357451
_cell_length_b     24.363415
_cell_length_c     73.486308
_cell_angle_alpha  89.988824
_cell_angle_beta   90.004766
_cell_angle_gamma 120.01812
loop_
_atom_site_label
_atom_site_type_symbol
_atom_site_fract_x
_atom_site_fract_y
_atom_site_fract_z
_atom_type_partial_charge
Mg0 Mg 0.29062 0.56952 0.09097 0.0
C1 C 0.29169 0.58186 0.0502 0.0
O2 O 0.3098 0.64067 0.05457 0.0
C3 C 0.30199 0.62022 0.12843 0.0
O4 O 0.32761 0.67251 0.11882 0.0
C5 C 0.41198 0.56617 0.08996 0.0
O6 O 0.43467 0.62663 0.0865 0.0
O7 O 0.35297 0.53012 0.09286 0.0
O8 O 0.28015 0.54143 0.0626 0.0
O9 O 0.18844 0.52966 0.0908 0.0
C10 C 0.16527 0.56517 0.08731 0.0
O11 O 0.20289 0.62546 0.08359 0.0
O12 O 0.28285 0.56758 0.12049 0.0
Mg13 Mg 0.72585 0.28713 0.42422 0.0
C14 C 0.715 0.28618 0.38342 0.0
O15 O 0.67566 0.30626 0.38754 0.0
C16 C 0.68473 0.29824 0.46144 0.0
O17 O 0.6604 0.32592 0.45172 0.0
C18 C 0.85134 0.40803 0.42361 0.0
O19 O 0.81425 0.43139 0.42002 0.0
O20 O 0.82767 0.3489 0.42644 0.0
O21 O 0.74308 0.27431 0.39599 0.0
O22 O 0.66336 0.18512 0.42418 0.0
C23 C 0.60472 0.16218 0.42069 0.0
O24 O 0.5823 0.19994 0.41691 0.0
O25 O 0.71759 0.27802 0.45368 0.0
Mg26 Mg 0.44339 0.72299 0.7576 0.0
C27 C 0.43157 0.71099 0.71693 0.0
O28 O 0.37249 0.67151 0.7214 0.0
C29 C 0.39438 0.68423 0.79512 0.0
O30 O 0.34183 0.6585 0.78562 0.0
C31 C 0.44597 0.84748 0.75676 0.0
O32 O 0.3854 0.80952 0.75348 0.0
O33 O 0.4823 0.82474 0.75945 0.0
O34 O 0.47232 0.73979 0.72927 0.0
O35 O 0.48206 0.6597 0.75735 0.0
C36 C 0.44605 0.60122 0.75372 0.0
O37 O 0.38592 0.57929 0.74994 0.0
O38 O 0.44695 0.71715 0.78708 0.0
Mg39 Mg 0.72591 0.44079 0.09088 0.0
C40 C 0.72657 0.43212 0.05012 0.0
O41 O 0.70718 0.3728 0.05419 0.0
C42 C 0.71621 0.39165 0.12839 0.0
O43 O 0.68896 0.33913 0.11889 0.0
C44 C 0.60416 0.44374 0.08999 0.0
O45 O 0.58147 0.38334 0.08646 0.0
O46 O 0.66315 0.47974 0.09291 0.0
O47 O 0.73849 0.47194 0.06273 0.0
O48 O 0.82791 0.47947 0.09068 0.0
C49 C 0.85058 0.44356 0.08719 0.0
O50 O 0.81255 0.38338 0.08345 0.0
O51 O 0.73578 0.44425 0.12037 0.0
Mg52 Mg 0.29032 0.72273 0.42427 0.0
C53 C 0.29967 0.72269 0.38351 0.0
O54 O 0.34033 0.70432 0.38766 0.0
C55 C 0.32911 0.71242 0.4618 0.0
O56 O 0.35536 0.6862 0.45227 0.0
C57 C 0.16603 0.60066 0.4236 0.0
O58 O 0.20403 0.57825 0.42015 0.0
O59 O 0.18871 0.65967 0.42636 0.0
O60 O 0.27131 0.73425 0.39607 0.0
O61 O 0.35321 0.82477 0.42411 0.0
C62 C 0.41185 0.84765 0.42062 0.0
O63 O 0.43422 0.80983 0.41687 0.0
O64 O 0.29587 0.73171 0.45378 0.0
Mg65 Mg 0.57188 0.28741 0.75759 0.0
C66 C 0.58416 0.30015 0.71681 0.0
O67 O 0.6434 0.33947 0.72115 0.0
C68 C 0.62583 0.32812 0.79474 0.0
O69 O 0.67749 0.35392 0.78485 0.0
C70 C 0.56732 0.16198 0.75677 0.0
O71 O 0.62795 0.19917 0.7534 0.0
O72 O 0.53171 0.18555 0.75951 0.0
O73 O 0.54374 0.27139 0.72922 0.0
O74 O 0.53173 0.34937 0.7576 0.0
C75 C 0.56713 0.4079 0.75391 0.0
O76 O 0.62728 0.43044 0.75002 0.0
O77 O 0.57257 0.29484 0.7871 0.0
Mg78 Mg 0.44381 0.72331 0.58691 0.0
C79 C 0.43165 0.72208 0.62761 0.0
O80 O 0.37286 0.70385 0.62317 0.0
C81 C 0.39141 0.71213 0.54976 0.0
O82 O 0.33958 0.68463 0.55957 0.0
C83 C 0.44625 0.60147 0.58721 0.0
O84 O 0.38585 0.57902 0.59073 0.0
O85 O 0.48266 0.66057 0.58456 0.0
O86 O 0.47224 0.7337 0.61525 0.0
O87 O 0.48262 0.82531 0.58737 0.0
C88 C 0.44637 0.84756 0.59095 0.0
O89 O 0.38614 0.80913 0.59456 0.0
O90 O 0.44465 0.73249 0.55745 0.0
Mg91 Mg 0.72615 0.44104 0.92027 0.0
C92 C 0.71503 0.43155 0.96104 0.0
O93 O 0.67568 0.37213 0.95692 0.0
C94 C 0.68694 0.38951 0.88292 0.0
O95 O 0.66024 0.33754 0.89268 0.0
C96 C 0.85081 0.44403 0.92126 0.0
O97 O 0.81292 0.38348 0.92458 0.0
O98 O 0.82796 0.4802 0.91848 0.0
O99 O 0.74328 0.47149 0.94848 0.0
O100 O 0.66345 0.48037 0.92007 0.0
C101 C 0.60487 0.44483 0.92369 0.0
O102 O 0.58248 0.38479 0.92767 0.0
O103 O 0.72044 0.44241 0.89073 0.0
Mg104 Mg 0.29054 0.72365 0.25358 0.0
C105 C 0.2893 0.71141 0.29435 0.0
O106 O 0.30896 0.67186 0.29008 0.0
C107 C 0.30228 0.68205 0.21648 0.0
O108 O 0.32922 0.6573 0.22634 0.0
C109 C 0.41241 0.84824 0.25381 0.0
O110 O 0.43521 0.81056 0.25724 0.0
O111 O 0.3532 0.82528 0.25129 0.0
O112 O 0.27801 0.74029 0.28189 0.0
O113 O 0.1884 0.66184 0.2536 0.0
C114 C 0.16526 0.60326 0.25721 0.0
O115 O 0.20289 0.5807 0.26103 0.0
O116 O 0.28212 0.71515 0.22412 0.0
Mg117 Mg 0.572 0.28736 0.58685 0.0
C118 C 0.58343 0.28879 0.62767 0.0
O119 O 0.64227 0.3065 0.62344 0.0
C120 C 0.62239 0.29786 0.54937 0.0
O121 O 0.67494 0.32507 0.55886 0.0
C122 C 0.56747 0.40829 0.58725 0.0
O123 O 0.62796 0.43179 0.59085 0.0
O124 O 0.532 0.3491 0.58453 0.0
O125 O 0.54336 0.27745 0.61518 0.0
O126 O 0.53195 0.18522 0.58733 0.0
C127 C 0.56739 0.16206 0.59091 0.0
O128 O 0.62777 0.19968 0.59452 0.0
O129 O 0.56977 0.27806 0.55738 0.0
Mg130 Mg 0.29035 0.56949 0.92024 0.0
C131 C 0.30322 0.58223 0.96095 0.0
O132 O 0.3423 0.6414 0.9565 0.0
C133 C 0.33167 0.62227 0.88307 0.0
O134 O 0.35635 0.67413 0.89286 0.0
C135 C 0.16556 0.56603 0.92119 0.0
O136 O 0.2034 0.62648 0.92464 0.0
O137 O 0.1885 0.52996 0.9183 0.0
O138 O 0.27457 0.54146 0.94862 0.0
O139 O 0.35299 0.53011 0.92031 0.0
C140 C 0.41164 0.56601 0.92379 0.0
O141 O 0.43389 0.6262 0.92753 0.0
O142 O 0.29853 0.5691 0.89077 0.0
Mg143 Mg 0.72648 0.2881 0.25358 0.0
C144 C 0.72663 0.29732 0.29437 0.0
O145 O 0.70739 0.33738 0.29031 0.0
C146 C 0.71619 0.32873 0.21624 0.0
O147 O 0.68791 0.35269 0.22585 0.0
C148 C 0.60563 0.16273 0.25378 0.0
O149 O 0.58227 0.19981 0.25741 0.0
O150 O 0.66483 0.18639 0.25109 0.0
O151 O 0.73845 0.26937 0.28176 0.0
O152 O 0.82837 0.35158 0.2539 0.0
C153 C 0.85074 0.4101 0.25743 0.0
O154 O 0.81246 0.43197 0.26113 0.0
O155 O 0.73665 0.29625 0.22413 0.0
C156 C 0.28645 0.55621 0.996 0.0
C157 C 0.29174 0.56454 0.97978 0.0
C158 C 0.28458 0.55607 0.01518 0.0
C159 C 0.28671 0.56421 0.0314 0.0
C160 C 0.73302 0.27651 0.34849 0.0
C161 C 0.72732 0.27966 0.36469 0.0
C162 C 0.73492 0.2782 0.3293 0.0
C163 C 0.73241 0.28426 0.3131 0.0
C164 C 0.45715 0.72778 0.68186 0.0
C165 C 0.44909 0.72255 0.69809 0.0
C166 C 0.45716 0.72947 0.66267 0.0
C167 C 0.44912 0.72721 0.64644 0.0
C168 C 0.73472 0.45939 0.01518 0.0
C169 C 0.73229 0.4509 0.03139 0.0
C170 C 0.73284 0.45916 0.99598 0.0
C171 C 0.72725 0.45036 0.97979 0.0
C172 C 0.27904 0.72825 0.32934 0.0
C173 C 0.28254 0.72303 0.31313 0.0
C174 C 0.28045 0.73005 0.34853 0.0
C175 C 0.28651 0.72792 0.36475 0.0
C176 C 0.55724 0.28339 0.68182 0.0
C177 C 0.56596 0.28864 0.69802 0.0
C178 C 0.55696 0.28159 0.66264 0.0
C179 C 0.56527 0.28374 0.64643 0.0
C180 C 0.28949 0.65311 0.18162 0.0
C181 C 0.29341 0.66859 0.19735 0.0
C182 C 0.28943 0.63443 0.16343 0.0
C183 C 0.2932 0.62342 0.14763 0.0
C184 C 0.65518 0.28415 0.49626 0.0
C185 C 0.67098 0.28856 0.48054 0.0
C186 C 0.63633 0.28403 0.51444 0.0
C187 C 0.62539 0.28825 0.53021 0.0
C188 C 0.38023 0.65684 0.83008 0.0
C189 C 0.39137 0.67191 0.8143 0.0
C190 C 0.36121 0.63808 0.84824 0.0
C191 C 0.34541 0.62658 0.86396 0.0
C192 C 0.73051 0.37736 0.16327 0.0
C193 C 0.72612 0.38857 0.14753 0.0
C194 C 0.73053 0.35829 0.18142 0.0
C195 C 0.72613 0.34243 0.19714 0.0
C196 C 0.3752 0.72541 0.51493 0.0
C197 C 0.3869 0.72135 0.53065 0.0
C198 C 0.35633 0.72548 0.49677 0.0
C199 C 0.3413 0.72158 0.48098 0.0
C200 C 0.66029 0.37432 0.84791 0.0
C201 C 0.67494 0.38564 0.86371 0.0
C202 C 0.64183 0.35577 0.8297 0.0
C203 C 0.63036 0.34083 0.81392 0.0
C204 C 0.97463 0.49083 0.08745 0.0
C205 C 0.91795 0.46888 0.0873 0.0
C206 C 0.0411 0.51714 0.08749 0.0
C207 C 0.09782 0.5393 0.08739 0.0
C208 C 0.52839 0.03813 0.42093 0.0
C209 C 0.56295 0.09481 0.4208 0.0
C210 C 0.48833 0.97169 0.42092 0.0
C211 C 0.45372 0.91501 0.42076 0.0
C212 C 0.51911 0.48396 0.75388 0.0
C213 C 0.54127 0.44944 0.75388 0.0
C214 C 0.49292 0.52418 0.75383 0.0
C215 C 0.47115 0.55903 0.75375 0.0
C216 C 0.51907 0.03789 0.59096 0.0
C217 C 0.5414 0.09461 0.59096 0.0
C218 C 0.49286 0.97146 0.59097 0.0
C219 C 0.47124 0.91484 0.59099 0.0
C220 C 0.4884 0.51881 0.9235 0.0
C221 C 0.45365 0.5407 0.92366 0.0
C222 C 0.52857 0.49258 0.92346 0.0
C223 C 0.56317 0.47051 0.92359 0.0
C224 C 0.04114 0.52724 0.25717 0.0
C225 C 0.09784 0.56171 0.25721 0.0
C226 C 0.97469 0.48716 0.25723 0.0
C227 C 0.91803 0.45238 0.25736 0.0
C228 C 0.52811 0.49179 0.08984 0.0
C229 C 0.56257 0.46957 0.08989 0.0
C230 C 0.48814 0.51826 0.08983 0.0
C231 C 0.45362 0.54043 0.08987 0.0
C232 C 0.97555 0.48374 0.42369 0.0
C233 C 0.91886 0.44911 0.42366 0.0
C234 C 0.04197 0.52404 0.42366 0.0
C235 C 0.09865 0.55874 0.42362 0.0
C236 C 0.51932 0.03789 0.75677 0.0
C237 C 0.54101 0.09451 0.75678 0.0
C238 C 0.4935 0.97152 0.75675 0.0
C239 C 0.47153 0.91486 0.75674 0.0
C240 C 0.49337 0.52464 0.58698 0.0
C241 C 0.47162 0.55951 0.5871 0.0
C242 C 0.51918 0.4841 0.58696 0.0
C243 C 0.54104 0.44933 0.58708 0.0
C244 C 0.04141 0.51815 0.92134 0.0
C245 C 0.09813 0.54029 0.92129 0.0
C246 C 0.97494 0.49177 0.92136 0.0
C247 C 0.91823 0.46969 0.92133 0.0
C248 C 0.48951 0.97217 0.25342 0.0
C249 C 0.45427 0.9156 0.25359 0.0
C250 C 0.53009 0.03853 0.25343 0.0
C251 C 0.56454 0.09523 0.25359 0.0
loop_
_geom_bond_atom_site_label_1
_geom_bond_atom_site_label_2
_geom_bond_distance
_geom_bond_site_symmetry_2
_ccdc_geom_bond_type
Mg0 O7 2.141 . S
Mg0 O8 2.048 . S
Mg0 O9 2.048 . S
Mg0 O12 2.141 . S
C1 O2 1.313 . S
C1 O8 1.195 . S
O2 C1 1.313 . S
C3 O4 1.245 . S
C3 O12 1.289 . S
O4 C3 1.245 . S
C5 O6 1.245 . S
C5 O7 1.289 . S
O6 C5 1.245 . S
O7 Mg0 2.141 . S
O7 C5 1.289 . S
O8 Mg0 2.048 . S
O8 C1 1.195 . S
O9 Mg0 2.048 . S
O9 C10 1.195 . S
C10 O9 1.195 . S
C10 O11 1.313 . S
O11 C10 1.313 . S
O12 Mg0 2.141 . S
O12 C3 1.289 . S
Mg13 O20 2.141 . S
Mg13 O21 2.048 . S
Mg13 O22 2.048 . S
Mg13 O25 2.141 . S
C14 O15 1.313 . S
C14 O21 1.195 . S
O15 C14 1.313 . S
C16 O17 1.245 . S
C16 O25 1.289 . S
O17 C16 1.245 . S
C18 O19 1.245 . S
C18 O20 1.289 . S
O19 C18 1.245 . S
O20 Mg13 2.141 . S
O20 C18 1.289 . S
O21 Mg13 2.048 . S
O21 C14 1.195 . S
O22 Mg13 2.048 . S
O22 C23 1.195 . S
C23 O22 1.195 . S
C23 O24 1.313 . S
O24 C23 1.313 . S
O25 Mg13 2.141 . S
O25 C16 1.289 . S
Mg26 O33 2.141 . S
Mg26 O34 2.048 . S
Mg26 O35 2.048 . S
Mg26 O38 2.141 . S
C27 O28 1.313 . S
C27 O34 1.195 . S
O28 C27 1.313 . S
C29 O30 1.245 . S
C29 O38 1.289 . S
O30 C29 1.245 . S
C31 O32 1.245 . S
C31 O33 1.289 . S
O32 C31 1.245 . S
O33 Mg26 2.141 . S
O33 C31 1.289 . S
O34 Mg26 2.048 . S
O34 C27 1.195 . S
O35 Mg26 2.048 . S
O35 C36 1.195 . S
C36 O35 1.195 . S
C36 O37 1.313 . S
O37 C36 1.313 . S
O38 Mg26 2.141 . S
O38 C29 1.289 . S
Mg39 O46 2.141 . S
Mg39 O47 2.048 . S
Mg39 O48 2.048 . S
Mg39 O51 2.141 . S
C40 O41 1.313 . S
C40 O47 1.195 . S
O41 C40 1.313 . S
C42 O43 1.245 . S
C42 O51 1.289 . S
O43 C42 1.245 . S
C44 O45 1.245 . S
C44 O46 1.289 . S
O45 C44 1.245 . S
O46 Mg39 2.141 . S
O46 C44 1.289 . S
O47 Mg39 2.048 . S
O47 C40 1.195 . S
O48 Mg39 2.048 . S
O48 C49 1.195 . S
C49 O48 1.195 . S
C49 O50 1.313 . S
O50 C49 1.313 . S
O51 Mg39 2.141 . S
O51 C42 1.289 . S
Mg52 O59 2.141 . S
Mg52 O60 2.048 . S
Mg52 O61 2.048 . S
Mg52 O64 2.141 . S
C53 O54 1.313 . S
C53 O60 1.195 . S
O54 C53 1.313 . S
C55 O56 1.245 . S
C55 O64 1.289 . S
O56 C55 1.245 . S
C57 O58 1.245 . S
C57 O59 1.289 . S
O58 C57 1.245 . S
O59 Mg52 2.141 . S
O59 C57 1.289 . S
O60 Mg52 2.048 . S
O60 C53 1.195 . S
O61 Mg52 2.048 . S
O61 C62 1.195 . S
C62 O61 1.195 . S
C62 O63 1.313 . S
O63 C62 1.313 . S
O64 Mg52 2.141 . S
O64 C55 1.289 . S
Mg65 O72 2.141 . S
Mg65 O73 2.048 . S
Mg65 O74 2.048 . S
Mg65 O77 2.141 . S
C66 O67 1.313 . S
C66 O73 1.195 . S
O67 C66 1.313 . S
C68 O69 1.245 . S
C68 O77 1.289 . S
O69 C68 1.245 . S
C70 O71 1.245 . S
C70 O72 1.289 . S
O71 C70 1.245 . S
O72 Mg65 2.141 . S
O72 C70 1.289 . S
O73 Mg65 2.048 . S
O73 C66 1.195 . S
O74 Mg65 2.048 . S
O74 C75 1.195 . S
C75 O74 1.195 . S
C75 O76 1.313 . S
O76 C75 1.313 . S
O77 Mg65 2.141 . S
O77 C68 1.289 . S
Mg78 O85 2.141 . S
Mg78 O86 2.048 . S
Mg78 O87 2.048 . S
Mg78 O90 2.141 . S
C79 O80 1.313 . S
C79 O86 1.195 . S
O80 C79 1.313 . S
C81 O82 1.245 . S
C81 O90 1.289 . S
O82 C81 1.245 . S
C83 O84 1.245 . S
C83 O85 1.289 . S
O84 C83 1.245 . S
O85 Mg78 2.141 . S
O85 C83 1.289 . S
O86 Mg78 2.048 . S
O86 C79 1.195 . S
O87 Mg78 2.048 . S
O87 C88 1.195 . S
C88 O87 1.195 . S
C88 O89 1.313 . S
O89 C88 1.313 . S
O90 Mg78 2.141 . S
O90 C81 1.289 . S
Mg91 O98 2.141 . S
Mg91 O99 2.048 . S
Mg91 O100 2.048 . S
Mg91 O103 2.141 . S
C92 O93 1.313 . S
C92 O99 1.195 . S
O93 C92 1.313 . S
C94 O95 1.245 . S
C94 O103 1.289 . S
O95 C94 1.245 . S
C96 O97 1.245 . S
C96 O98 1.289 . S
O97 C96 1.245 . S
O98 Mg91 2.141 . S
O98 C96 1.289 . S
O99 Mg91 2.048 . S
O99 C92 1.195 . S
O100 Mg91 2.048 . S
O100 C101 1.195 . S
C101 O100 1.195 . S
C101 O102 1.313 . S
O102 C101 1.313 . S
O103 Mg91 2.141 . S
O103 C94 1.289 . S
Mg104 O111 2.141 . S
Mg104 O112 2.048 . S
Mg104 O113 2.048 . S
Mg104 O116 2.141 . S
C105 O106 1.313 . S
C105 O112 1.195 . S
O106 C105 1.313 . S
C107 O108 1.245 . S
C107 O116 1.289 . S
O108 C107 1.245 . S
C109 O110 1.245 . S
C109 O111 1.289 . S
O110 C109 1.245 . S
O111 Mg104 2.141 . S
O111 C109 1.289 . S
O112 Mg104 2.048 . S
O112 C105 1.195 . S
O113 Mg104 2.048 . S
O113 C114 1.195 . S
C114 O113 1.195 . S
C114 O115 1.313 . S
O115 C114 1.313 . S
O116 Mg104 2.141 . S
O116 C107 1.289 . S
Mg117 O124 2.141 . S
Mg117 O125 2.048 . S
Mg117 O126 2.048 . S
Mg117 O129 2.141 . S
C118 O119 1.313 . S
C118 O125 1.195 . S
O119 C118 1.313 . S
C120 O121 1.245 . S
C120 O129 1.289 . S
O121 C120 1.245 . S
C122 O123 1.245 . S
C122 O124 1.289 . S
O123 C122 1.245 . S
O124 Mg117 2.141 . S
O124 C122 1.289 . S
O125 Mg117 2.048 . S
O125 C118 1.195 . S
O126 Mg117 2.048 . S
O126 C127 1.195 . S
C127 O126 1.195 . S
C127 O128 1.313 . S
O128 C127 1.313 . S
O129 Mg117 2.141 . S
O129 C120 1.289 . S
Mg130 O137 2.141 . S
Mg130 O138 2.048 . S
Mg130 O139 2.048 . S
Mg130 O142 2.141 . S
C131 O132 1.313 . S
C131 O138 1.195 . S
O132 C131 1.313 . S
C133 O134 1.245 . S
C133 O142 1.289 . S
O134 C133 1.245 . S
C135 O136 1.245 . S
C135 O137 1.289 . S
O136 C135 1.245 . S
O137 Mg130 2.141 . S
O137 C135 1.289 . S
O138 Mg130 2.048 . S
O138 C131 1.195 . S
O139 Mg130 2.048 . S
O139 C140 1.195 . S
C140 O139 1.195 . S
C140 O141 1.313 . S
O141 C140 1.313 . S
O142 Mg130 2.141 . S
O142 C133 1.289 . S
Mg143 O150 2.141 . S
Mg143 O151 2.048 . S
Mg143 O152 2.048 . S
Mg143 O155 2.141 . S
C144 O145 1.313 . S
C144 O151 1.195 . S
O145 C144 1.313 . S
C146 O147 1.245 . S
C146 O155 1.289 . S
O147 C146 1.245 . S
C148 O149 1.245 . S
C148 O150 1.289 . S
O149 C148 1.245 . S
O150 Mg143 2.141 . S
O150 C148 1.289 . S
O151 Mg143 2.048 . S
O151 C144 1.195 . S
O152 Mg143 2.048 . S
O152 C153 1.195 . S
C153 O152 1.195 . S
C153 O154 1.313 . S
O154 C153 1.313 . S
O155 Mg143 2.141 . S
O155 C146 1.289 . S
C156 C157 1.170 . S
C156 C158 1.380 1_556 S
C157 C156 1.170 . S
C158 C156 1.380 1_554 S
C158 C159 1.170 . S
C159 C158 1.170 . S
C160 C161 1.170 . S
C160 C162 1.380 . S
C161 C160 1.170 . S
C162 C160 1.380 . S
C162 C163 1.170 . S
C163 C162 1.170 . S
C164 C165 1.170 . S
C164 C166 1.380 . S
C165 C164 1.170 . S
C166 C164 1.380 . S
C166 C167 1.170 . S
C167 C166 1.170 . S
C168 C169 1.170 . S
C168 C170 1.380 1_554 S
C169 C168 1.170 . S
C170 C168 1.380 1_556 S
C170 C171 1.170 . S
C171 C170 1.170 . S
C172 C173 1.170 . S
C172 C174 1.380 . S
C173 C172 1.170 . S
C174 C172 1.380 . S
C174 C175 1.170 . S
C175 C174 1.170 . S
C176 C177 1.170 . S
C176 C178 1.380 . S
C177 C176 1.170 . S
C178 C176 1.380 . S
C178 C179 1.170 . S
C179 C178 1.170 . S
C180 C181 1.170 . S
C180 C182 1.380 . S
C181 C180 1.170 . S
C182 C180 1.380 . S
C182 C183 1.170 . S
C183 C182 1.170 . S
C184 C185 1.170 . S
C184 C186 1.380 . S
C185 C184 1.170 . S
C186 C184 1.380 . S
C186 C187 1.170 . S
C187 C186 1.170 . S
C188 C189 1.170 . S
C188 C190 1.380 . S
C189 C188 1.170 . S
C190 C188 1.380 . S
C190 C191 1.170 . S
C191 C190 1.170 . S
C192 C193 1.170 . S
C192 C194 1.380 . S
C193 C192 1.170 . S
C194 C192 1.380 . S
C194 C195 1.170 . S
C195 C194 1.170 . S
C196 C197 1.170 . S
C196 C198 1.380 . S
C197 C196 1.170 . S
C198 C196 1.380 . S
C198 C199 1.170 . S
C199 C198 1.170 . S
C200 C201 1.170 . S
C200 C202 1.380 . S
C201 C200 1.170 . S
C202 C200 1.380 . S
C202 C203 1.170 . S
C203 C202 1.170 . S
C204 C205 1.170 . S
C204 C206 1.380 1_655 S
C205 C204 1.170 . S
C206 C204 1.380 1_455 S
C206 C207 1.170 . S
C207 C206 1.170 . S
C208 C209 1.170 . S
C208 C210 1.380 1_545 S
C209 C208 1.170 . S
C210 C208 1.380 1_565 S
C210 C211 1.170 . S
C211 C210 1.170 . S
C212 C213 1.170 . S
C212 C214 1.380 . S
C213 C212 1.170 . S
C214 C212 1.380 . S
C214 C215 1.170 . S
C215 C214 1.170 . S
C216 C217 1.170 . S
C216 C218 1.380 1_545 S
C217 C216 1.170 . S
C218 C216 1.380 1_565 S
C218 C219 1.170 . S
C219 C218 1.170 . S
C220 C221 1.170 . S
C220 C222 1.380 . S
C221 C220 1.170 . S
C222 C220 1.380 . S
C222 C223 1.170 . S
C223 C222 1.170 . S
C224 C225 1.170 . S
C224 C226 1.380 1_455 S
C225 C224 1.170 . S
C226 C224 1.380 1_655 S
C226 C227 1.170 . S
C227 C226 1.170 . S
C228 C229 1.170 . S
C228 C230 1.380 . S
C229 C228 1.170 . S
C230 C228 1.380 . S
C230 C231 1.170 . S
C231 C230 1.170 . S
C232 C233 1.170 . S
C232 C234 1.380 1_655 S
C233 C232 1.170 . S
C234 C232 1.380 1_455 S
C234 C235 1.170 . S
C235 C234 1.170 . S
C236 C237 1.170 . S
C236 C238 1.380 1_545 S
C237 C236 1.170 . S
C238 C236 1.380 1_565 S
C238 C239 1.170 . S
C239 C238 1.170 . S
C240 C241 1.170 . S
C240 C242 1.380 . S
C241 C240 1.170 . S
C242 C240 1.380 . S
C242 C243 1.170 . S
C243 C242 1.170 . S
C244 C245 1.170 . S
C244 C246 1.380 1_455 S
C245 C244 1.170 . S
C246 C244 1.380 1_655 S
C246 C247 1.170 . S
C247 C246 1.170 . S
C248 C249 1.170 . S
C248 C250 1.380 1_565 S
C249 C248 1.170 . S
C250 C248 1.380 1_545 S
C250 C251 1.170 . S
C251 C250 1.170 . S
C157 C131 1.526 . S
C159 C1 1.537 . S
C161 C14 1.542 . S
C163 C144 1.549 . S
C165 C27 1.526 . S
C167 C79 1.533 . S
C169 C40 1.549 . S
C171 C92 1.541 . S
C173 C105 1.533 . S
C175 C53 1.547 . S
C177 C66 1.531 . S
C179 C118 1.545 . S
C181 C107 1.537 . S
C183 C3 1.566 . S
C185 C16 1.548 . S
C187 C120 1.572 . S
C189 C29 1.572 . S
C191 C133 1.543 . S
C193 C42 1.570 . S
C195 C146 1.557 . S
C197 C81 1.540 . S
C199 C55 1.570 . S
C201 C94 1.552 . S
C203 C68 1.538 . S
C205 C49 1.794 . S
C207 C10 1.781 . S
C209 C23 1.785 . S
C211 C62 1.792 . S
C213 C75 1.776 . S
C215 C36 1.796 . S
C217 C127 1.773 . S
C219 C88 1.795 . S
C221 C140 1.791 . S
C223 C101 1.788 . S
C225 C114 1.777 . S
C227 C153 1.796 . S
C229 C44 1.856 . S
C231 C5 1.853 . S
C233 C18 1.844 . S
C235 C57 1.862 . S
C237 C70 1.846 . S
C239 C31 1.862 . S
C241 C83 1.860 . S
C243 C122 1.842 . S
C245 C135 1.853 . S
C247 C96 1.857 . S
C249 C109 1.857 . S
C251 C148 1.843 . S
