# Generated by pormake.
# Topology sxa, (6)-cn, num edge types: 1
# Building blocks:
#     Node 0, Type 0, BuildingBlock: UKALOJ_clean_sbu_0, # of connection points: 6
#     Node 1, Type 0, BuildingBlock: UKALOJ_clean_sbu_0, # of connection points: 6
#     Node 2, Type 0, BuildingBlock: UKALOJ_clean_sbu_0, # of connection points: 6
#     Node 3, Type 0, BuildingBlock: UKALOJ_clean_sbu_0, # of connection points: 6
#     Edge 4, Type (0, 0), BuildingBlock: EYOCIG_clean_linker_4, # of connection points: 2
#     Edge 5, Type (0, 0), BuildingBlock: EYOCIG_clean_linker_4, # of connection points: 2
#     Edge 6, Type (0, 0), BuildingBlock: EYOCIG_clean_linker_4, # of connection points: 2
#     Edge 7, Type (0, 0), BuildingBlock: EYOCIG_clean_linker_4, # of connection points: 2
#     Edge 8, Type (0, 0), BuildingBlock: EYOCIG_clean_linker_4, # of connection points: 2
#     Edge 9, Type (0, 0), BuildingBlock: EYOCIG_clean_linker_4, # of connection points: 2
#     Edge 10, Type (0, 0), BuildingBlock: EYOCIG_clean_linker_4, # of connection points: 2
#     Edge 11, Type (0, 0), BuildingBlock: EYOCIG_clean_linker_4, # of connection points: 2
#     Edge 12, Type (0, 0), BuildingBlock: EYOCIG_clean_linker_4, # of connection points: 2
#     Edge 13, Type (0, 0), BuildingBlock: EYOCIG_clean_linker_4, # of connection points: 2
#     Edge 14, Type (0, 0), BuildingBlock: EYOCIG_clean_linker_4, # of connection points: 2
#     Edge 15, Type (0, 0), BuildingBlock: EYOCIG_clean_linker_4, # of connection points: 2
# Relax obj value: 0.120
# Max RMSD: 0.187
# Mean RMSD: 0.187
data_MOF--net-sxa--node1-UKALOJ_clean_sbu_0--edge1-EYOCIG_clean_linker_4
_symmetry_space_group_name_H-M    P1
_symmetry_Int_Tables_number       1
_symmetry_cell_setting            triclinic
loop_
_symmetry_equiv_pos_as_xyz
'x, y, z'
_cell_length_a     19.12434
_cell_length_b     29.595042
_cell_length_c     14.794365
_cell_angle_alpha  89.992411
_cell_angle_beta   90.004747
_cell_angle_gamma 89.997082
loop_
_atom_site_label
_atom_site_type_symbol
_atom_site_fract_x
_atom_site_fract_y
_atom_site_fract_z
_atom_type_partial_charge
Zn0 Zn 0.97598 0.88418 0.16273 0.0
O1 O 0.05711 0.88792 0.26104 0.0
C2 C 0.08291 0.84998 0.03685 0.0
Zn3 Zn -0.01615 0.80783 0.16316 0.0
C4 C 0.08445 0.85167 0.29144 0.0
O5 O 0.06177 0.81322 0.26582 0.0
C6 C 0.87775 0.84168 0.03575 0.0
O7 O 0.9021 0.80441 0.26069 0.0
O8 O 0.89746 0.87912 0.26462 0.0
N9 N -0.00385 0.73801 0.15408 0.0
C10 C 0.96245 0.70703 0.10253 0.0
C11 C 0.06324 0.68014 0.13142 0.0
N12 N 0.05838 0.72063 0.17291 0.0
N13 N 0.00395 0.67118 0.08611 0.0
C14 C -0.00266 0.9848 0.10058 0.0
C15 C 0.89654 1.01175 0.1291 0.0
N16 N 0.96367 0.95397 0.15255 0.0
N17 N 0.90141 0.97139 0.17111 0.0
N18 N 0.95582 1.02059 0.08369 0.0
H19 H 0.10257 0.95908 0.10878 0.0
H20 H 0.09427 1.0135 0.05451 0.0
H21 H 0.06683 0.96391 -0.00486 0.0
C22 C 0.06965 0.9798 0.06298 0.0
C23 C 0.89014 0.71194 0.06486 0.0
H24 H 0.85734 0.733 0.11014 0.0
H25 H 0.86539 0.67823 0.05726 0.0
H26 H 0.89299 0.72739 -0.00339 0.0
O27 O 0.90818 0.80607 0.0615 0.0
O28 O 0.8965 0.87964 0.06623 0.0
C29 C 0.87462 0.84075 0.29045 0.0
O30 O 0.05228 0.88563 0.06195 0.0
O31 O 0.06398 0.81207 0.06743 0.0
Zn32 Zn 0.48364 0.30834 0.16292 0.0
O33 O 0.403 0.30476 0.26189 0.0
C34 C 0.37616 0.34239 0.03765 0.0
Zn35 Zn 0.47586 0.3847 0.16291 0.0
C36 C 0.37579 0.34107 0.29218 0.0
O37 O 0.39837 0.37947 0.26612 0.0
C38 C 0.58132 0.35063 0.0349 0.0
O39 O 0.55802 0.38825 0.25989 0.0
O40 O 0.56266 0.31354 0.26416 0.0
N41 N 0.46357 0.45451 0.15347 0.0
C42 C 0.49713 0.48542 0.1016 0.0
C43 C 0.3965 0.5124 0.13097 0.0
N44 N 0.40143 0.47194 0.17259 0.0
N45 N 0.45563 0.52129 0.08528 0.0
C46 C 0.46259 0.20762 0.10103 0.0
C47 C 0.56331 0.18075 0.1304 0.0
N48 N 0.496 0.23852 0.15312 0.0
N49 N 0.5582 0.22115 0.17221 0.0
N50 N 0.50423 0.17184 0.0846 0.0
H51 H 0.35717 0.23304 0.10859 0.0
H52 H 0.36606 0.17882 0.05379 0.0
H53 H 0.39352 0.22865 -0.00479 0.0
C54 C 0.39045 0.21255 0.06284 0.0
C55 C 0.56929 0.48042 0.06351 0.0
H56 H 0.60223 0.45939 0.10869 0.0
H57 H 0.59407 0.51411 0.05559 0.0
H58 H 0.56615 0.4649 -0.00464 0.0
O59 O 0.55109 0.3863 0.06072 0.0
O60 O 0.56263 0.31272 0.06575 0.0
C61 C 0.58561 0.35194 0.28964 0.0
O62 O 0.40681 0.30676 0.06283 0.0
O63 O 0.39534 0.38034 0.06776 0.0
Zn64 Zn -0.01639 0.38423 0.67434 0.0
O65 O 0.90296 0.38788 0.5754 0.0
C66 C 0.87614 0.34996 0.7994 0.0
Zn67 Zn 0.9759 0.30787 0.67396 0.0
C68 C 0.87579 0.3516 0.54489 0.0
O69 O 0.89841 0.31317 0.57074 0.0
C70 C 0.08132 0.34183 0.80217 0.0
O71 O 0.05807 0.3045 0.57703 0.0
O72 O 0.06263 0.37921 0.57307 0.0
N73 N 0.96377 0.23804 0.68306 0.0
C74 C -0.00253 0.20709 0.73473 0.0
C75 C 0.89686 0.18006 0.70543 0.0
N76 N 0.90165 0.22057 0.66397 0.0
N77 N 0.95607 0.17118 0.75097 0.0
C78 C 0.96229 0.48486 0.73667 0.0
C79 C 0.06296 0.51186 0.70756 0.0
N80 N -0.00418 0.45405 0.68451 0.0
N81 N 0.05798 0.4715 0.66559 0.0
N82 N 0.00382 0.52066 0.75331 0.0
H83 H 0.85695 0.45933 0.72886 0.0
H84 H 0.86564 0.51352 0.78385 0.0
H85 H 0.89318 0.46367 0.84231 0.0
C86 C 0.89013 0.47982 0.77473 0.0
C87 C 0.06966 0.21211 0.7727 0.0
H88 H 0.10248 0.23327 0.7276 0.0
H89 H 0.09455 0.17844 0.78032 0.0
H90 H 0.06658 0.22751 0.84097 0.0
O91 O 0.0511 0.30619 0.7762 0.0
O92 O 0.06262 0.37977 0.77149 0.0
C93 C 0.08563 0.34084 0.54743 0.0
O94 O 0.90679 0.38563 0.77444 0.0
O95 O 0.89534 0.31205 0.76909 0.0
Zn96 Zn 0.48387 0.88468 0.6742 0.0
O97 O 0.40215 0.8883 0.57663 0.0
C98 C 0.37775 0.85068 0.80136 0.0
Zn99 Zn 0.47597 0.80833 0.67414 0.0
C100 C 0.37463 0.85201 0.54667 0.0
O101 O 0.39744 0.81359 0.57229 0.0
C102 C 0.5829 0.84227 0.80027 0.0
O103 O 0.55707 0.80469 0.57581 0.0
O104 O 0.56181 0.8794 0.57155 0.0
N105 N 0.46351 0.73853 0.68388 0.0
C106 C 0.49706 0.70761 0.73578 0.0
C107 C 0.3962 0.68081 0.70701 0.0
N108 N 0.40123 0.7212 0.66516 0.0
N109 N 0.45543 0.67186 0.75247 0.0
C110 C 0.46276 0.98543 0.73549 0.0
C111 C 0.56351 1.01228 0.70636 0.0
N112 N 0.4963 0.95448 0.6837 0.0
N113 N 0.55852 0.97184 0.66474 0.0
N114 N 0.50433 1.02124 0.75191 0.0
H115 H 0.35756 0.9596 0.72805 0.0
H116 H 0.36588 1.01423 0.78143 0.0
H117 H 0.39352 0.96488 0.84148 0.0
C118 C 0.39053 0.98051 0.77341 0.0
C119 C 0.56935 0.71249 0.77352 0.0
H120 H 0.60237 0.73321 0.72785 0.0
H121 H 0.59386 0.67875 0.7819 0.0
H122 H 0.56652 0.72831 0.84142 0.0
O123 O 0.55228 0.80667 0.7749 0.0
O124 O 0.56397 0.88024 0.76995 0.0
C125 C 0.58444 0.84099 0.54567 0.0
O126 O 0.40817 0.88633 0.77582 0.0
O127 O 0.39651 0.81277 0.77067 0.0
C128 C -0.00774 0.58024 0.88341 0.0
C129 C -0.00302 0.55255 0.82347 0.0
C130 C -0.00774 0.61141 -0.04362 0.0
C131 C -0.00298 0.6392 0.01615 0.0
C132 C 0.46709 0.58101 -0.04458 0.0
C133 C 0.46242 0.55325 0.01524 0.0
C134 C 0.46703 0.6122 0.88244 0.0
C135 C 0.46229 0.63993 0.82256 0.0
C136 C 0.49285 1.08098 0.88171 0.0
C137 C 0.49754 1.05321 0.82191 0.0
C138 C 0.49286 0.11217 -0.04534 0.0
C139 C 0.49753 0.1399 0.01453 0.0
C140 C 0.96766 1.08018 -0.04636 0.0
C141 C 0.96284 1.05248 0.01355 0.0
C142 C 0.96771 0.11138 0.88069 0.0
C143 C 0.96297 0.13918 0.82093 0.0
C144 C 0.26064 0.85512 0.44508 0.0
C145 C 0.31268 0.85428 0.49145 0.0
C146 C 0.19813 0.85501 0.39358 0.0
C147 C 0.14623 0.85401 0.34696 0.0
C148 C 0.19985 0.33786 0.44628 0.0
C149 C 0.14771 0.33869 0.49245 0.0
C150 C 0.26235 0.33792 0.39477 0.0
C151 C 0.31414 0.33883 0.34795 0.0
C152 C 0.76235 0.35488 0.4423 0.0
C153 C 0.81414 0.3539 0.48913 0.0
C154 C 0.69984 0.35499 0.39079 0.0
C155 C 0.64769 0.35416 0.34463 0.0
C156 C 0.76063 0.83773 0.39203 0.0
C157 C 0.81267 0.83857 0.34567 0.0
C158 C 0.69812 0.83779 0.44353 0.0
C159 C 0.64622 0.83871 0.49015 0.0
C160 C 0.26253 0.85484 0.89661 0.0
C161 C 0.31534 0.8538 0.85316 0.0
C162 C 0.19857 0.85455 -0.05746 0.0
C163 C 0.14558 0.85314 -0.01441 0.0
C164 C 0.19622 0.33759 0.89805 0.0
C165 C 0.14355 0.33868 0.8543 0.0
C166 C 0.26019 0.33781 -0.05601 0.0
C167 C 0.31332 0.33921 -0.01326 0.0
C168 C 0.69621 0.35474 -0.06099 0.0
C169 C 0.64355 0.35371 -0.01725 0.0
C170 C 0.76017 0.35446 0.89306 0.0
C171 C 0.8133 0.35307 0.85031 0.0
C172 C 0.76252 0.83736 -0.05948 0.0
C173 C 0.81534 0.83848 -0.01603 0.0
C174 C 0.69855 0.8376 0.89459 0.0
C175 C 0.64556 0.83902 0.85154 0.0
loop_
_geom_bond_atom_site_label_1
_geom_bond_atom_site_label_2
_geom_bond_distance
_geom_bond_site_symmetry_2
_ccdc_geom_bond_type
Zn0 O1 2.055 1_655 S
Zn0 O8 2.046 . S
Zn0 N16 2.036 . S
Zn0 O28 2.053 . S
Zn0 O30 2.066 1_655 S
O1 Zn0 2.055 1_455 S
O1 C4 1.259 . S
C2 O30 1.256 . S
C2 O31 1.244 . S
Zn3 O5 2.046 . S
Zn3 O7 2.055 1_455 S
Zn3 N9 2.036 . S
Zn3 O27 2.066 1_455 S
Zn3 O31 2.053 . S
C4 O1 1.259 . S
C4 O5 1.254 . S
O5 Zn3 2.046 . S
O5 C4 1.254 . S
C6 O27 1.256 . S
C6 O28 1.244 . S
O7 Zn3 2.055 1_655 S
O7 C29 1.259 . S
O8 Zn0 2.046 . S
O8 C29 1.254 . S
N9 Zn3 2.036 . S
N9 C10 1.298 1_455 S
N9 N12 1.398 . S
C10 N9 1.298 1_655 S
C10 N13 1.367 . S
C10 C23 1.481 . S
C11 N12 1.299 . S
C11 N13 1.379 1_455 S
N12 N9 1.398 . S
N12 C11 1.299 . S
N13 C10 1.367 . S
N13 C11 1.379 1_655 S
C14 N16 1.298 1_455 S
C14 N18 1.367 . S
C14 C22 1.481 . S
C15 N17 1.299 . S
C15 N18 1.379 1_655 S
N16 Zn0 2.036 . S
N16 C14 1.298 1_655 S
N16 N17 1.398 . S
N17 C15 1.299 . S
N17 N16 1.398 . S
N18 C14 1.367 . S
N18 C15 1.379 1_455 S
H19 C22 0.980 . S
H20 C22 0.981 . S
H21 C22 0.981 . S
C22 C14 1.481 . S
C22 H19 0.980 . S
C22 H20 0.981 . S
C22 H21 0.981 . S
C23 C10 1.481 . S
C23 H24 0.980 . S
C23 H25 0.981 . S
C23 H26 0.981 . S
H24 C23 0.980 . S
H25 C23 0.981 . S
H26 C23 0.981 . S
O27 Zn3 2.066 1_655 S
O27 C6 1.256 . S
O28 Zn0 2.053 . S
O28 C6 1.244 . S
C29 O7 1.259 . S
C29 O8 1.254 . S
O30 Zn0 2.066 1_455 S
O30 C2 1.256 . S
O31 C2 1.244 . S
O31 Zn3 2.053 . S
Zn32 O33 2.055 . S
Zn32 O40 2.046 . S
Zn32 N48 2.036 . S
Zn32 O60 2.053 . S
Zn32 O62 2.066 . S
O33 Zn32 2.055 . S
O33 C36 1.259 . S
C34 O62 1.256 . S
C34 O63 1.244 . S
Zn35 O37 2.046 . S
Zn35 O39 2.055 . S
Zn35 N41 2.036 . S
Zn35 O59 2.066 . S
Zn35 O63 2.053 . S
C36 O33 1.259 . S
C36 O37 1.254 . S
O37 Zn35 2.046 . S
O37 C36 1.254 . S
C38 O59 1.256 . S
C38 O60 1.244 . S
O39 Zn35 2.055 . S
O39 C61 1.259 . S
O40 Zn32 2.046 . S
O40 C61 1.254 . S
N41 Zn35 2.036 . S
N41 C42 1.298 . S
N41 N44 1.398 . S
C42 N41 1.298 . S
C42 N45 1.367 . S
C42 C55 1.481 . S
C43 N44 1.299 . S
C43 N45 1.379 . S
N44 N41 1.398 . S
N44 C43 1.299 . S
N45 C42 1.367 . S
N45 C43 1.379 . S
C46 N48 1.298 . S
C46 N50 1.367 . S
C46 C54 1.481 . S
C47 N49 1.299 . S
C47 N50 1.379 . S
N48 Zn32 2.036 . S
N48 C46 1.298 . S
N48 N49 1.398 . S
N49 C47 1.299 . S
N49 N48 1.398 . S
N50 C46 1.367 . S
N50 C47 1.379 . S
H51 C54 0.980 . S
H52 C54 0.981 . S
H53 C54 0.981 . S
C54 C46 1.481 . S
C54 H51 0.980 . S
C54 H52 0.981 . S
C54 H53 0.981 . S
C55 C42 1.481 . S
C55 H56 0.980 . S
C55 H57 0.981 . S
C55 H58 0.981 . S
H56 C55 0.980 . S
H57 C55 0.981 . S
H58 C55 0.981 . S
O59 Zn35 2.066 . S
O59 C38 1.256 . S
O60 Zn32 2.053 . S
O60 C38 1.244 . S
C61 O39 1.259 . S
C61 O40 1.254 . S
O62 Zn32 2.066 . S
O62 C34 1.256 . S
O63 C34 1.244 . S
O63 Zn35 2.053 . S
Zn64 O65 2.055 1_455 S
Zn64 O72 2.046 . S
Zn64 N80 2.036 . S
Zn64 O92 2.053 . S
Zn64 O94 2.066 1_455 S
O65 Zn64 2.055 1_655 S
O65 C68 1.259 . S
C66 O94 1.256 . S
C66 O95 1.244 . S
Zn67 O69 2.046 . S
Zn67 O71 2.055 1_655 S
Zn67 N73 2.036 . S
Zn67 O91 2.066 1_655 S
Zn67 O95 2.053 . S
C68 O65 1.259 . S
C68 O69 1.254 . S
O69 Zn67 2.046 . S
O69 C68 1.254 . S
C70 O91 1.256 . S
C70 O92 1.244 . S
O71 Zn67 2.055 1_455 S
O71 C93 1.259 . S
O72 Zn64 2.046 . S
O72 C93 1.254 . S
N73 Zn67 2.036 . S
N73 C74 1.298 1_655 S
N73 N76 1.398 . S
C74 N73 1.298 1_455 S
C74 N77 1.367 . S
C74 C87 1.481 . S
C75 N76 1.299 . S
C75 N77 1.379 1_655 S
N76 N73 1.398 . S
N76 C75 1.299 . S
N77 C74 1.367 . S
N77 C75 1.379 1_455 S
C78 N80 1.298 1_655 S
C78 N82 1.367 . S
C78 C86 1.481 . S
C79 N81 1.299 . S
C79 N82 1.379 1_455 S
N80 Zn64 2.036 . S
N80 C78 1.298 1_455 S
N80 N81 1.398 . S
N81 C79 1.299 . S
N81 N80 1.398 . S
N82 C78 1.367 . S
N82 C79 1.379 1_655 S
H83 C86 0.980 . S
H84 C86 0.981 . S
H85 C86 0.981 . S
C86 C78 1.481 . S
C86 H83 0.980 . S
C86 H84 0.981 . S
C86 H85 0.981 . S
C87 C74 1.481 . S
C87 H88 0.980 . S
C87 H89 0.981 . S
C87 H90 0.981 . S
H88 C87 0.980 . S
H89 C87 0.981 . S
H90 C87 0.981 . S
O91 Zn67 2.066 1_455 S
O91 C70 1.256 . S
O92 Zn64 2.053 . S
O92 C70 1.244 . S
C93 O71 1.259 . S
C93 O72 1.254 . S
O94 Zn64 2.066 1_655 S
O94 C66 1.256 . S
O95 C66 1.244 . S
O95 Zn67 2.053 . S
Zn96 O97 2.055 . S
Zn96 O104 2.046 . S
Zn96 N112 2.036 . S
Zn96 O124 2.053 . S
Zn96 O126 2.066 . S
O97 Zn96 2.055 . S
O97 C100 1.259 . S
C98 O126 1.256 . S
C98 O127 1.244 . S
Zn99 O101 2.046 . S
Zn99 O103 2.055 . S
Zn99 N105 2.036 . S
Zn99 O123 2.066 . S
Zn99 O127 2.053 . S
C100 O97 1.259 . S
C100 O101 1.254 . S
O101 Zn99 2.046 . S
O101 C100 1.254 . S
C102 O123 1.256 . S
C102 O124 1.244 . S
O103 Zn99 2.055 . S
O103 C125 1.259 . S
O104 Zn96 2.046 . S
O104 C125 1.254 . S
N105 Zn99 2.036 . S
N105 C106 1.298 . S
N105 N108 1.398 . S
C106 N105 1.298 . S
C106 N109 1.367 . S
C106 C119 1.481 . S
C107 N108 1.299 . S
C107 N109 1.379 . S
N108 N105 1.398 . S
N108 C107 1.299 . S
N109 C106 1.367 . S
N109 C107 1.379 . S
C110 N112 1.298 . S
C110 N114 1.367 . S
C110 C118 1.481 . S
C111 N113 1.299 . S
C111 N114 1.379 . S
N112 Zn96 2.036 . S
N112 C110 1.298 . S
N112 N113 1.398 . S
N113 C111 1.299 . S
N113 N112 1.398 . S
N114 C110 1.367 . S
N114 C111 1.379 . S
H115 C118 0.980 . S
H116 C118 0.981 . S
H117 C118 0.981 . S
C118 C110 1.481 . S
C118 H115 0.980 . S
C118 H116 0.981 . S
C118 H117 0.981 . S
C119 C106 1.481 . S
C119 H120 0.980 . S
C119 H121 0.981 . S
C119 H122 0.981 . S
H120 C119 0.980 . S
H121 C119 0.981 . S
H122 C119 0.981 . S
O123 Zn99 2.066 . S
O123 C102 1.256 . S
O124 Zn96 2.053 . S
O124 C102 1.244 . S
C125 O103 1.259 . S
C125 O104 1.254 . S
O126 Zn96 2.066 . S
O126 C98 1.256 . S
O127 C98 1.244 . S
O127 Zn99 2.053 . S
C128 C129 1.170 . S
C128 C130 1.380 1_556 S
C129 C128 1.170 . S
C130 C128 1.380 1_554 S
C130 C131 1.170 . S
C131 C130 1.170 . S
C132 C133 1.170 . S
C132 C134 1.380 1_554 S
C133 C132 1.170 . S
C134 C132 1.380 1_556 S
C134 C135 1.170 . S
C135 C134 1.170 . S
C136 C137 1.170 . S
C136 C138 1.380 1_566 S
C137 C136 1.170 . S
C138 C136 1.380 1_544 S
C138 C139 1.170 . S
C139 C138 1.170 . S
C140 C141 1.170 . S
C140 C142 1.380 1_564 S
C141 C140 1.170 . S
C142 C140 1.380 1_546 S
C142 C143 1.170 . S
C143 C142 1.170 . S
C144 C145 1.170 . S
C144 C146 1.380 . S
C145 C144 1.170 . S
C146 C144 1.380 . S
C146 C147 1.170 . S
C147 C146 1.170 . S
C148 C149 1.170 . S
C148 C150 1.380 . S
C149 C148 1.170 . S
C150 C148 1.380 . S
C150 C151 1.170 . S
C151 C150 1.170 . S
C152 C153 1.170 . S
C152 C154 1.380 . S
C153 C152 1.170 . S
C154 C152 1.380 . S
C154 C155 1.170 . S
C155 C154 1.170 . S
C156 C157 1.170 . S
C156 C158 1.380 . S
C157 C156 1.170 . S
C158 C156 1.380 . S
C158 C159 1.170 . S
C159 C158 1.170 . S
C160 C161 1.170 . S
C160 C162 1.380 1_556 S
C161 C160 1.170 . S
C162 C160 1.380 1_554 S
C162 C163 1.170 . S
C163 C162 1.170 . S
C164 C165 1.170 . S
C164 C166 1.380 1_556 S
C165 C164 1.170 . S
C166 C164 1.380 1_554 S
C166 C167 1.170 . S
C167 C166 1.170 . S
C168 C169 1.170 1_556 S
C168 C170 1.380 . S
C169 C168 1.170 1_554 S
C170 C168 1.380 . S
C170 C171 1.170 . S
C171 C170 1.170 . S
C172 C173 1.170 . S
C172 C174 1.380 1_554 S
C173 C172 1.170 . S
C174 C172 1.380 1_556 S
C174 C175 1.170 . S
C175 C174 1.170 . S
C129 N82 1.867 . S
C131 N13 1.879 . S
C133 N45 1.871 . S
C135 N109 1.843 . S
C137 N114 1.867 . S
C139 N50 1.843 . S
C141 N18 1.865 . S
C143 N77 1.881 . S
C145 C100 1.532 . S
C147 C4 1.532 . S
C149 C93 1.528 . S
C151 C36 1.535 . S
C153 C68 1.533 . S
C155 C61 1.533 . S
C157 C29 1.533 . S
C159 C125 1.532 . S
C161 C98 1.015 . S
C163 C2 0.993 . S
C165 C70 1.026 . S
C167 C34 1.012 . S
C169 C38 1.028 . S
C171 C66 0.987 . S
C173 C6 0.998 . S
C175 C102 1.013 . S
