# Generated by pormake.
# Topology unc, (4)-cn, num edge types: 1
# Building blocks:
#     Node 0, Type 0, BuildingBlock: NAHDIM_clean_sbu_0, # of connection points: 4
#     Node 1, Type 0, BuildingBlock: NAHDIM_clean_sbu_0, # of connection points: 4
#     Node 2, Type 0, BuildingBlock: NAHDIM_clean_sbu_0, # of connection points: 4
#     Node 3, Type 0, BuildingBlock: NAHDIM_clean_sbu_0, # of connection points: 4
#     Edge 4, Type (0, 0), BuildingBlock: EZIPEK_clean_linker_0, # of connection points: 2
#     Edge 5, Type (0, 0), BuildingBlock: EZIPEK_clean_linker_0, # of connection points: 2
#     Edge 6, Type (0, 0), BuildingBlock: EZIPEK_clean_linker_0, # of connection points: 2
#     Edge 7, Type (0, 0), BuildingBlock: EZIPEK_clean_linker_0, # of connection points: 2
#     Edge 8, Type (0, 0), BuildingBlock: EZIPEK_clean_linker_0, # of connection points: 2
#     Edge 9, Type (0, 0), BuildingBlock: EZIPEK_clean_linker_0, # of connection points: 2
#     Edge 10, Type (0, 0), BuildingBlock: EZIPEK_clean_linker_0, # of connection points: 2
#     Edge 11, Type (0, 0), BuildingBlock: EZIPEK_clean_linker_0, # of connection points: 2
# Relax obj value: 0.112
# Max RMSD: 0.174
# Mean RMSD: 0.174
data_MOF--net-unc--node1-NAHDIM_clean_sbu_0--edge1-EZIPEK_clean_linker_0
_symmetry_space_group_name_H-M    P1
_symmetry_Int_Tables_number       1
_symmetry_cell_setting            triclinic
loop_
_symmetry_equiv_pos_as_xyz
'x, y, z'
_cell_length_a     21.959181
_cell_length_b     22.244265
_cell_length_c     16.225866
_cell_angle_alpha  89.371919
_cell_angle_beta   89.361935
_cell_angle_gamma 96.845514
loop_
_atom_site_label
_atom_site_type_symbol
_atom_site_fract_x
_atom_site_fract_y
_atom_site_fract_z
_atom_type_partial_charge
C0 C 0.93062 0.74883 0.89008 0.0
O1 O 0.97936 0.74208 0.845 0.0
O2 O 0.01203 0.61913 0.91356 0.0
Zn3 Zn 0.99285 0.67903 -0.00096 0.0
O4 O 0.06538 0.74294 0.01179 0.0
C5 C 0.00507 0.59671 0.12961 0.0
O6 O 0.05698 0.59356 0.09004 0.0
O7 O 0.92387 0.7232 0.96043 0.0
C8 C 0.09529 0.75368 0.07755 0.0
O9 O 0.08132 0.72059 0.14393 0.0
C10 C 0.06642 0.61076 0.89338 0.0
O11 O 0.11345 0.64233 0.928 0.0
O12 O 0.96862 0.63281 0.10408 0.0
C13 C 0.32065 0.15541 0.27818 0.0
O14 O 0.37764 0.16361 0.30331 0.0
O15 O 0.40016 0.02878 0.3167 0.0
Zn16 Zn 0.35533 0.04376 0.21276 0.0
O17 O 0.29906 0.96907 0.1843 0.0
C18 C 0.44655 0.02526 0.09253 0.0
O19 O 0.43061 0.96895 0.11612 0.0
O20 O 0.30218 0.10927 0.23581 0.0
C21 C 0.28144 0.95767 0.11125 0.0
O22 O 0.30225 -0.00601 0.05029 0.0
C23 C 0.42285 0.97984 0.33097 0.0
O24 O 0.41405 0.93504 0.27882 0.0
O25 O 0.41912 0.06712 0.12333 0.0
C26 C 0.13741 0.3017 0.39407 0.0
O27 O 0.10424 0.3263 0.33912 0.0
O28 O 0.04068 0.41213 0.41888 0.0
Zn29 Zn 0.05677 0.35245 0.50888 0.0
O30 O 0.983 0.29024 0.53277 0.0
C31 C 0.05402 0.44364 0.63003 0.0
O32 O 0.00812 0.45634 0.58477 0.0
O33 O 0.1261 0.30726 0.47048 0.0
C34 C 0.94001 0.29798 0.5833 0.0
O35 O 0.94083 0.34914 0.62278 0.0
C36 C 0.989 0.42877 0.40111 0.0
O37 O 0.93945 0.40656 0.44227 0.0
O38 O 0.08273 0.39929 0.61138 0.0
C39 C 0.76714 0.92194 0.79505 0.0
O40 O 0.77136 0.97278 0.83615 0.0
O41 O 0.63437 0.00595 0.8011 0.0
Zn42 Zn 0.68863 0.98751 0.70598 0.0
O43 O 0.75415 0.05611 0.67939 0.0
C44 C 0.57784 0.96203 0.61372 0.0
O45 O 0.5526 0.95367 0.68731 0.0
O46 O 0.73157 0.91524 0.73378 0.0
C47 C 0.74405 0.1109 0.67215 0.0
O48 O 0.6884 0.12541 0.68399 0.0
C49 C 0.64575 0.04401 0.85822 0.0
O50 O 0.69909 0.07747 0.8611 0.0
O51 O 0.63575 0.97375 0.60628 0.0
C52 C 0.96934 0.49373 0.18708 0.0
C53 C 0.98873 0.5559 0.20066 0.0
C54 C 0.00529 0.53535 0.34613 0.0
C55 C 0.98515 0.4731 0.33345 0.0
N56 N 0.93774 0.39404 0.24648 0.0
N57 N 0.00761 0.63838 0.29519 0.0
C58 C 0.96351 0.45264 0.25533 0.0
C59 C 0.00095 0.57753 0.28101 0.0
N60 N 0.95801 0.47397 0.10861 0.0
N61 N 0.03067 0.55403 0.41934 0.0
H62 H 0.00271 0.67019 0.24888 0.0
H63 H 0.01114 0.65689 0.35386 0.0
H64 H 0.03414 0.52477 0.46887 0.0
H65 H 0.05274 0.59746 0.42877 0.0
H66 H 0.95126 0.42849 0.09265 0.0
H67 H 0.95781 0.50352 0.05824 0.0
H68 H 0.91552 0.37783 0.19343 0.0
H69 H 0.93484 0.36215 0.29441 0.0
C70 C 0.51175 0.02088 0.41777 0.0
C71 C 0.46245 0.97494 0.40337 0.0
C72 C 0.4938 0.91691 0.52162 0.0
C73 C 0.53852 0.96592 0.54098 0.0
N74 N 0.57935 0.07076 0.51885 0.0
N75 N 0.39887 0.88501 0.45159 0.0
C76 C 0.54461 0.01969 0.49224 0.0
C77 C 0.45133 0.92438 0.45797 0.0
N78 N 0.52901 0.06448 0.35924 0.0
N79 N 0.49302 0.86265 0.56219 0.0
H80 H 0.36546 0.89002 0.40771 0.0
H81 H 0.38553 0.85098 0.49498 0.0
H82 H 0.52398 0.8552 0.60844 0.0
H83 H 0.46555 0.82354 0.5447 0.0
H84 H 0.56888 0.09475 0.3634 0.0
H85 H 0.50739 0.06681 0.3027 0.0
H86 H 0.58008 0.11278 0.48958 0.0
H87 H 0.60211 0.07295 0.57494 0.0
C88 C 0.09473 0.58632 0.74888 0.0
C89 C 0.07606 0.56614 0.82944 0.0
C90 C 0.05462 0.46178 0.78184 0.0
C91 C 0.07175 0.48228 0.70098 0.0
N92 N 0.12335 0.55884 0.61059 0.0
N93 N 0.05407 0.4843 0.9277 0.0
C94 C 0.09695 0.54302 0.68563 0.0
C95 C 0.06109 0.50358 0.84756 0.0
N96 N 0.10715 0.64693 0.73194 0.0
N97 N 0.02946 0.40321 0.79503 0.0
H98 H 0.05974 0.514 0.97696 0.0
H99 H 0.04838 0.43892 0.94579 0.0
H100 H 0.0266 0.37081 0.74888 0.0
H101 H 0.00872 0.38736 0.85037 0.0
H102 H 0.11387 0.66485 0.67256 0.0
H103 H 0.10706 0.67997 0.77704 0.0
H104 H 0.14734 0.60113 0.59735 0.0
H105 H 0.12629 0.52748 0.56374 0.0
C106 C 0.49226 0.06337 0.95629 0.0
C107 C 0.49997 0.03938 0.03636 0.0
C108 C 0.60603 0.024 0.0022 0.0
C109 C 0.59856 0.04861 0.92254 0.0
N110 N 0.54059 0.1033 0.82854 0.0
N111 N 0.56714 0.00993 0.14225 0.0
C112 C 0.54347 0.07205 0.90118 0.0
C113 C 0.5579 0.02382 0.06139 0.0
N114 N 0.43542 0.07478 0.93143 0.0
N115 N 0.65776 -0.00211 0.01992 0.0
H116 H 0.5328 0.00897 0.18727 0.0
H117 H 0.60998 0.00462 0.16623 0.0
H118 H 0.69457 -0.002 0.97875 0.0
H119 H 0.66261 0.97245 0.07317 0.0
H120 H 0.42525 0.08534 0.87086 0.0
H121 H 0.39701 0.06979 0.97031 0.0
H122 H 0.50403 0.12672 0.8127 0.0
H123 H 0.57739 0.11029 0.78691 0.0
C124 C 0.25007 0.84559 0.10998 0.0
C125 C 0.23505 0.90522 0.09624 0.0
C126 C 0.12802 0.86537 0.07056 0.0
C127 C 0.14373 0.80568 0.08072 0.0
N128 N 0.22061 0.73764 0.09482 0.0
N129 N 0.16245 0.97238 0.05283 0.0
C130 C 0.20504 0.79538 0.09636 0.0
C131 C 0.17496 0.91519 0.0725 0.0
N132 N 0.30729 0.83698 0.13664 0.0
N133 N 0.06773 0.87468 0.06409 0.0
H134 H 0.19388 0.0109 0.05962 0.0
H135 H 0.12207 0.98151 0.02484 0.0
H136 H 0.03175 0.83958 0.0635 0.0
H137 H 0.05247 0.91718 0.06597 0.0
H138 H 0.31877 0.79553 0.15797 0.0
H139 H 0.34289 0.87212 0.14174 0.0
H140 H 0.26557 0.72735 0.09701 0.0
H141 H 0.18888 0.69984 0.0842 0.0
C142 C 0.27862 0.25548 0.28475 0.0
C143 C 0.2755 0.19398 0.31006 0.0
C144 C 0.18032 0.20241 0.38706 0.0
C145 C 0.1857 0.26503 0.3667 0.0
N146 N 0.24501 0.35393 0.30844 0.0
N147 N 0.23146 0.11222 0.39923 0.0
C148 C 0.23629 0.29241 0.31885 0.0
C149 C 0.22866 0.16837 0.36528 0.0
N150 N 0.32068 0.278 0.2261 0.0
N151 N 0.12784 0.17474 0.42384 0.0
H152 H 0.26657 0.08601 0.38578 0.0
H153 H 0.20235 0.09403 0.44665 0.0
H154 H 0.09082 0.19774 0.43985 0.0
H155 H 0.11858 0.12799 0.43161 0.0
H156 H 0.32082 0.32041 0.19825 0.0
H157 H 0.35277 0.25239 0.20048 0.0
H158 H 0.28434 0.37721 0.28159 0.0
H159 H 0.21527 0.38246 0.33312 0.0
C160 C 0.84482 0.17135 0.70297 0.0
C161 C 0.79496 0.15786 0.64851 0.0
C162 C 0.84456 0.23084 0.5465 0.0
C163 C 0.89181 0.24762 0.60364 0.0
N164 N 0.93738 0.23687 0.73668 0.0
N165 N 0.74499 0.17485 0.52004 0.0
C166 C 0.89211 0.21858 0.68195 0.0
C167 C 0.79415 0.1877 0.57067 0.0
N168 N 0.8473 0.13849 0.77441 0.0
N169 N 0.84854 0.25555 0.46874 0.0
H170 H 0.70951 0.14035 0.5324 0.0
H171 H 0.73752 0.19981 0.4673 0.0
H172 H 0.88377 0.28856 0.44979 0.0
H173 H 0.81945 0.24102 0.42093 0.0
H174 H 0.88569 0.14044 0.8117 0.0
H175 H 0.8119 0.1063 0.79498 0.0
H176 H 0.9363 0.2238 0.79849 0.0
H177 H 0.97552 0.26762 0.72128 0.0
C178 C 0.87266 0.89369 0.81543 0.0
C179 C 0.80842 0.87609 0.81519 0.0
C180 C 0.82491 0.77253 0.85433 0.0
C181 C 0.88832 0.79218 0.86382 0.0
N182 N 0.97043 0.87458 0.87039 0.0
N183 N 0.72204 0.80126 0.84593 0.0
C184 C 0.91172 0.85361 0.8489 0.0
C185 C 0.78404 0.81606 0.83746 0.0
N186 N 0.8967 0.94786 0.78095 0.0
N187 N 0.80405 0.71217 0.85894 0.0
H188 H 0.69064 0.83197 0.83475 0.0
H189 H 0.70197 0.76014 0.87072 0.0
H190 H 0.83272 0.67899 0.87074 0.0
H191 H 0.75952 0.69457 0.84398 0.0
H192 H 0.94361 0.9601 0.77198 0.0
H193 H 0.86983 0.97789 0.75333 0.0
H194 H 0.98747 0.92035 0.86908 0.0
H195 H 0.00026 0.84732 0.89761 0.0
loop_
_geom_bond_atom_site_label_1
_geom_bond_atom_site_label_2
_geom_bond_distance
_geom_bond_site_symmetry_2
_ccdc_geom_bond_type
C0 O1 1.160 . S
C0 O7 1.185 1_556 S
O1 C0 1.160 . S
O2 Zn3 1.899 1_656 S
O2 C10 1.286 1_655 S
Zn3 O2 1.899 1_454 S
Zn3 O4 2.032 . S
Zn3 O7 2.086 1_455 S
Zn3 O12 1.977 1_455 S
O4 Zn3 2.032 . S
O4 C8 1.278 . S
C5 O6 1.203 . S
C5 O12 1.267 1_455 S
O6 C5 1.203 . S
O7 C0 1.185 1_554 S
O7 Zn3 2.086 1_655 S
C8 O4 1.278 . S
C8 O9 1.211 . S
O9 C8 1.211 . S
C10 O2 1.286 1_455 S
C10 O11 1.273 . S
O11 C10 1.273 . S
O12 Zn3 1.977 1_655 S
O12 C5 1.267 1_655 S
C13 O14 1.160 . S
C13 O20 1.185 . S
O14 C13 1.160 . S
O15 Zn16 1.899 . S
O15 C23 1.284 . S
Zn16 O15 1.899 . S
Zn16 O17 2.032 1_545 S
Zn16 O20 2.086 . S
Zn16 O25 1.977 . S
O17 Zn16 2.032 1_565 S
O17 C21 1.278 . S
C18 O19 1.203 . S
C18 O25 1.267 . S
O19 C18 1.203 . S
O20 C13 1.185 . S
O20 Zn16 2.086 . S
C21 O17 1.278 . S
C21 O22 1.211 . S
O22 C21 1.211 . S
C23 O15 1.284 . S
C23 O24 1.273 1_545 S
O24 C23 1.273 1_565 S
O25 Zn16 1.977 . S
O25 C18 1.267 . S
C26 O27 1.160 . S
C26 O33 1.185 . S
O27 C26 1.160 . S
O28 Zn29 1.899 . S
O28 C36 1.284 . S
Zn29 O28 1.899 . S
Zn29 O30 2.032 1_455 S
Zn29 O33 2.086 . S
Zn29 O38 1.977 . S
O30 Zn29 2.032 1_655 S
O30 C34 1.278 . S
C31 O32 1.203 . S
C31 O38 1.267 . S
O32 C31 1.203 . S
O33 C26 1.185 . S
O33 Zn29 2.086 . S
C34 O30 1.278 . S
C34 O35 1.211 . S
O35 C34 1.211 . S
C36 O28 1.284 . S
C36 O37 1.273 1_455 S
O37 C36 1.273 1_655 S
O38 Zn29 1.977 . S
O38 C31 1.267 . S
C39 O40 1.160 . S
C39 O46 1.185 . S
O40 C39 1.160 . S
O41 Zn42 1.899 1_565 S
O41 C49 1.286 1_565 S
Zn42 O41 1.899 1_545 S
Zn42 O43 2.032 . S
Zn42 O46 2.086 1_545 S
Zn42 O51 1.977 1_545 S
O43 Zn42 2.032 . S
O43 C47 1.278 . S
C44 O45 1.203 . S
C44 O51 1.267 1_545 S
O45 C44 1.203 . S
O46 C39 1.185 . S
O46 Zn42 2.086 1_565 S
C47 O43 1.278 . S
C47 O48 1.211 . S
O48 C47 1.211 . S
C49 O41 1.286 1_545 S
C49 O50 1.273 . S
O50 C49 1.273 . S
O51 Zn42 1.977 1_565 S
O51 C44 1.267 1_565 S
C52 C53 1.369 . S
C52 C58 1.379 . S
C52 N60 1.356 . S
C53 C52 1.369 . S
C53 C59 1.355 1_655 S
C54 C55 1.363 . S
C54 C59 1.379 . S
C54 N61 1.356 . S
C55 C54 1.363 . S
C55 C58 1.363 1_455 S
N56 C58 1.356 . S
N56 H68 0.984 . S
N56 H69 0.985 . S
N57 C59 1.356 . S
N57 H62 0.984 . S
N57 H63 0.985 . S
C58 C52 1.379 . S
C58 C55 1.363 1_655 S
C58 N56 1.356 . S
C59 C53 1.355 1_455 S
C59 C54 1.379 . S
C59 N57 1.356 . S
N60 C52 1.356 . S
N60 H66 0.984 . S
N60 H67 0.984 . S
N61 C54 1.356 . S
N61 H64 0.984 . S
N61 H65 0.985 . S
H62 N57 0.984 . S
H63 N57 0.985 . S
H64 N61 0.984 . S
H65 N61 0.985 . S
H66 N60 0.984 . S
H67 N60 0.984 . S
H68 N56 0.984 . S
H69 N56 0.985 . S
C70 C71 1.363 . S
C70 C76 1.379 . S
C70 N78 1.356 . S
C71 C70 1.363 . S
C71 C77 1.363 1_545 S
C72 C73 1.371 . S
C72 C77 1.379 . S
C72 N79 1.356 . S
C73 C72 1.371 . S
C73 C76 1.353 1_565 S
N74 C76 1.356 . S
N74 H86 0.984 . S
N74 H87 0.985 . S
N75 C77 1.356 . S
N75 H80 0.984 . S
N75 H81 0.985 . S
C76 C70 1.379 . S
C76 C73 1.353 1_545 S
C76 N74 1.356 . S
C77 C71 1.363 1_565 S
C77 C72 1.379 . S
C77 N75 1.356 . S
N78 C70 1.356 . S
N78 H84 0.984 . S
N78 H85 0.984 . S
N79 C72 1.356 . S
N79 H82 0.984 . S
N79 H83 0.985 . S
H80 N75 0.984 . S
H81 N75 0.985 . S
H82 N79 0.984 . S
H83 N79 0.985 . S
H84 N78 0.984 . S
H85 N78 0.984 . S
H86 N74 0.984 . S
H87 N74 0.985 . S
C88 C89 1.363 . S
C88 C94 1.379 . S
C88 N96 1.356 . S
C89 C88 1.363 . S
C89 C95 1.363 . S
C90 C91 1.363 . S
C90 C95 1.379 . S
C90 N97 1.356 1_455 S
C91 C90 1.363 . S
C91 C94 1.363 . S
N92 C94 1.356 . S
N92 H104 0.984 . S
N92 H105 0.985 . S
N93 C95 1.356 1_655 S
N93 H98 0.984 . S
N93 H99 0.985 . S
C94 C88 1.379 . S
C94 C91 1.363 . S
C94 N92 1.356 . S
C95 C89 1.363 . S
C95 C90 1.379 . S
C95 N93 1.356 1_455 S
N96 C88 1.356 . S
N96 H102 0.984 . S
N96 H103 0.984 . S
N97 C90 1.356 1_655 S
N97 H100 0.984 1_655 S
N97 H101 0.985 . S
H98 N93 0.984 . S
H99 N93 0.985 . S
H100 N97 0.984 1_455 S
H101 N97 0.985 . S
H102 N96 0.984 . S
H103 N96 0.984 . S
H104 N92 0.984 . S
H105 N92 0.985 . S
C106 C107 1.363 1_556 S
C106 C112 1.379 . S
C106 N114 1.356 . S
C107 C106 1.363 1_554 S
C107 C113 1.363 . S
C108 C109 1.363 1_554 S
C108 C113 1.379 . S
C108 N115 1.356 1_544 S
C109 C108 1.363 1_556 S
C109 C112 1.363 . S
N110 C112 1.356 . S
N110 H122 0.984 . S
N110 H123 0.985 . S
N111 C113 1.353 1_565 S
N111 H116 0.982 1_565 S
N111 H117 0.990 . S
C112 C106 1.379 . S
C112 C109 1.363 . S
C112 N110 1.356 . S
C113 C107 1.363 . S
C113 C108 1.379 . S
C113 N111 1.353 1_545 S
N114 C106 1.356 . S
N114 H120 0.984 . S
N114 H121 0.984 1_556 S
N115 C108 1.356 1_566 S
N115 H118 0.984 . S
N115 H119 0.985 1_556 S
H116 N111 0.982 1_545 S
H117 N111 0.990 . S
H118 N115 0.984 . S
H119 N115 0.985 1_554 S
H120 N114 0.984 . S
H121 N114 0.984 1_554 S
H122 N110 0.984 . S
H123 N110 0.985 . S
C124 C125 1.363 . S
C124 C130 1.379 . S
C124 N132 1.356 . S
C125 C124 1.363 . S
C125 C131 1.363 . S
C126 C127 1.363 . S
C126 C131 1.379 . S
C126 N133 1.356 . S
C127 C126 1.363 . S
C127 C130 1.363 . S
N128 C130 1.356 . S
N128 H140 0.984 . S
N128 H141 0.985 . S
N129 C131 1.356 . S
N129 H134 0.984 . S
N129 H135 0.985 . S
C130 C124 1.379 . S
C130 C127 1.363 . S
C130 N128 1.356 . S
C131 C125 1.363 . S
C131 C126 1.379 . S
C131 N129 1.356 . S
N132 C124 1.356 . S
N132 H138 0.984 . S
N132 H139 0.984 . S
N133 C126 1.356 . S
N133 H136 0.984 . S
N133 H137 0.985 . S
H134 N129 0.984 . S
H135 N129 0.985 . S
H136 N133 0.984 . S
H137 N133 0.985 . S
H138 N132 0.984 . S
H139 N132 0.984 . S
H140 N128 0.984 . S
H141 N128 0.985 . S
C142 C143 1.363 . S
C142 C148 1.379 . S
C142 N150 1.356 . S
C143 C142 1.363 . S
C143 C149 1.363 . S
C144 C145 1.363 . S
C144 C149 1.379 . S
C144 N151 1.356 . S
C145 C144 1.363 . S
C145 C148 1.363 . S
N146 C148 1.356 . S
N146 H158 0.984 . S
N146 H159 0.985 . S
N147 C149 1.356 . S
N147 H152 0.984 . S
N147 H153 0.985 . S
C148 C142 1.379 . S
C148 C145 1.363 . S
C148 N146 1.356 . S
C149 C143 1.363 . S
C149 C144 1.379 . S
C149 N147 1.356 . S
N150 C142 1.356 . S
N150 H156 0.984 . S
N150 H157 0.984 . S
N151 C144 1.356 . S
N151 H154 0.984 . S
N151 H155 0.985 . S
H152 N147 0.984 . S
H153 N147 0.985 . S
H154 N151 0.984 . S
H155 N151 0.985 . S
H156 N150 0.984 . S
H157 N150 0.984 . S
H158 N146 0.984 . S
H159 N146 0.985 . S
C160 C161 1.363 . S
C160 C166 1.379 . S
C160 N168 1.356 . S
C161 C160 1.363 . S
C161 C167 1.363 . S
C162 C163 1.363 . S
C162 C167 1.379 . S
C162 N169 1.356 . S
C163 C162 1.363 . S
C163 C166 1.363 . S
N164 C166 1.356 . S
N164 H176 0.991 . S
N164 H177 0.985 . S
N165 C167 1.356 . S
N165 H170 0.984 . S
N165 H171 0.985 . S
C166 C160 1.379 . S
C166 C163 1.363 . S
C166 N164 1.356 . S
C167 C161 1.363 . S
C167 C162 1.379 . S
C167 N165 1.356 . S
N168 C160 1.356 . S
N168 H174 0.984 . S
N168 H175 0.984 . S
N169 C162 1.356 . S
N169 H172 0.984 . S
N169 H173 0.985 . S
H170 N165 0.984 . S
H171 N165 0.985 . S
H172 N169 0.984 . S
H173 N169 0.985 . S
H174 N168 0.984 . S
H175 N168 0.984 . S
H176 N164 0.991 . S
H177 N164 0.985 . S
C178 C179 1.363 . S
C178 C184 1.379 . S
C178 N186 1.356 . S
C179 C178 1.363 . S
C179 C185 1.363 . S
C180 C181 1.363 . S
C180 C185 1.379 . S
C180 N187 1.356 . S
C181 C180 1.363 . S
C181 C184 1.363 . S
N182 C184 1.356 . S
N182 H194 0.984 . S
N182 H195 0.985 . S
N183 C185 1.356 . S
N183 H188 0.984 . S
N183 H189 0.985 . S
C184 C178 1.379 . S
C184 C181 1.363 . S
C184 N182 1.356 . S
C185 C179 1.363 . S
C185 C180 1.379 . S
C185 N183 1.356 . S
N186 C178 1.356 . S
N186 H192 0.984 . S
N186 H193 0.984 . S
N187 C180 1.356 . S
N187 H190 0.984 1_556 S
N187 H191 0.985 1_556 S
H188 N183 0.984 . S
H189 N183 0.985 . S
H190 N187 0.984 1_554 S
H191 N187 0.985 1_554 S
H192 N186 0.984 . S
H193 N186 0.984 . S
H194 N182 0.984 . S
H195 N182 0.985 . S
C53 C5 1.191 1_655 S
C55 C36 1.247 . S
C71 C23 1.247 . S
C73 C44 1.191 1_565 S
C89 C10 1.247 . S
C91 C31 1.192 . S
C107 C18 1.192 . S
C109 C49 1.247 . S
C125 C21 1.463 . S
C127 C8 1.463 . S
C143 C13 1.457 . S
C145 C26 1.457 . S
C161 C47 1.463 . S
C163 C34 1.463 . S
C179 C39 1.456 . S
C181 C0 1.456 . S
