# Generated by pormake.
# Topology swe, (7)-cn, num edge types: 1
# Building blocks:
#     Node 0, Type 0, BuildingBlock: HICVOG_clean_sbu_0, # of connection points: 7
#     Node 1, Type 0, BuildingBlock: HICVOG_clean_sbu_0, # of connection points: 7
#     Node 2, Type 0, BuildingBlock: HICVOG_clean_sbu_0, # of connection points: 7
#     Node 3, Type 0, BuildingBlock: HICVOG_clean_sbu_0, # of connection points: 7
#     Node 4, Type 0, BuildingBlock: HICVOG_clean_sbu_0, # of connection points: 7
#     Node 5, Type 0, BuildingBlock: HICVOG_clean_sbu_0, # of connection points: 7
#     Edge 6, Type (0, 0), None
#     Edge 7, Type (0, 0), None
#     Edge 8, Type (0, 0), None
#     Edge 9, Type (0, 0), None
#     Edge 10, Type (0, 0), None
#     Edge 11, Type (0, 0), None
#     Edge 12, Type (0, 0), None
#     Edge 13, Type (0, 0), None
#     Edge 14, Type (0, 0), None
#     Edge 15, Type (0, 0), None
#     Edge 16, Type (0, 0), None
#     Edge 17, Type (0, 0), None
#     Edge 18, Type (0, 0), None
#     Edge 19, Type (0, 0), None
#     Edge 20, Type (0, 0), None
#     Edge 21, Type (0, 0), None
#     Edge 22, Type (0, 0), None
#     Edge 23, Type (0, 0), None
#     Edge 24, Type (0, 0), None
#     Edge 25, Type (0, 0), None
#     Edge 26, Type (0, 0), None
# Relax obj value: 0.378
# Max RMSD: 0.302
# Mean RMSD: 0.302
data_MOF--net-swe--node1-HICVOG_clean_sbu_0--edge1-none
_symmetry_space_group_name_H-M    P1
_symmetry_Int_Tables_number       1
_symmetry_cell_setting            triclinic
loop_
_symmetry_equiv_pos_as_xyz
'x, y, z'
_cell_length_a     17.021044
_cell_length_b     17.02111
_cell_length_c     10.631875
_cell_angle_alpha  90.000082
_cell_angle_beta   90.00028
_cell_angle_gamma 119.99909
loop_
_atom_site_label
_atom_site_type_symbol
_atom_site_fract_x
_atom_site_fract_y
_atom_site_fract_z
_atom_type_partial_charge
Zn0 Zn 0.23742 0.74533 0.85335 0.0
C1 C 0.39786 0.73363 0.11635 0.0
N2 N 0.43208 0.70659 1.01801 0.0
C3 C 0.38736 0.71128 0.91312 0.0
N4 N 0.32982 0.74054 0.94771 0.0
N5 N 0.33556 0.75523 0.07137 0.0
C6 C 0.33084 0.99069 0.28863 0.0
O7 O 0.24724 0.96511 0.32242 0.0
O8 O 0.1747 0.65134 0.71332 0.0
Zn9 Zn 0.26528 0.80928 0.15488 0.0
N10 N 0.27612 0.86699 0.79356 0.0
C11 C 0.16564 0.91044 0.75578 0.0
C12 C 0.23337 0.91221 0.83194 0.0
C13 C 0.2701 0.84018 0.67339 0.0
N14 N 0.1448 0.86357 0.64577 0.0
C15 C 0.19534 0.82725 0.60422 0.0
O16 O 0.16052 0.81666 0.06541 0.0
C17 C 0.10466 0.75102 0.99827 0.0
O18 O 0.12761 0.69629 0.95912 0.0
H19 H 0.24721 0.94357 0.92351 0.0
H20 H 0.30684 0.80646 0.64511 0.0
C21 C 0.23082 0.78338 0.40242 0.0
C22 C 0.16786 0.76736 0.49586 0.0
C23 C 1.05728 0.64042 0.38287 0.0
C24 C 0.11731 0.6645 0.28184 0.0
N25 N 0.20229 0.73687 0.29396 0.0
N26 N 0.08275 0.69457 0.48639 0.0
H27 H 0.29936 0.83951 0.40986 0.0
C28 C 0.13008 0.57588 0.76874 0.0
O29 O 0.16588 0.56808 0.87362 0.0
O30 O 0.34775 0.93878 0.22058 0.0
H31 H 0.09457 0.63 0.19273 0.0
H32 H 0.12687 0.94141 0.78683 0.0
H33 H 0.98952 0.58257 0.37613 0.0
Zn34 Zn 0.50936 0.23868 0.48815 0.0
C35 C 0.72935 0.36069 0.24621 0.0
N36 N 0.77879 0.40543 0.35107 0.0
C37 C 0.71756 0.37128 0.44944 0.0
N38 N 0.63364 0.309 0.40449 0.0
N39 N 0.64254 0.30321 0.28083 0.0
C40 C 0.60742 0.10323 0.10192 0.0
O41 O 0.65111 0.13908 0.20673 0.0
O42 O 0.46225 0.32106 0.55388 0.0
Zn43 Zn 0.54531 0.21062 0.18662 0.0
N44 N 0.51883 0.17577 0.62732 0.0
C45 C 0.4706 1.03078 0.71605 0.0
C46 C 0.50645 0.09089 0.61509 0.0
C47 C 0.50085 0.20419 0.73589 0.0
N48 N 0.44186 0.0561 0.81965 0.0
C49 C 0.45403 0.14115 0.82927 0.0
O50 O 0.48475 0.10092 0.29265 0.0
C51 C 0.40704 0.07801 0.33167 0.0
O52 O 0.39725 0.13394 0.39865 0.0
H53 H 0.51829 0.06826 0.52593 0.0
H54 H 0.5131 0.27268 0.74341 0.0
C55 C 0.48311 0.24306 1.00716 0.0
C56 C 0.42142 0.16841 0.93765 0.0
C57 C 0.30817 0.13855 0.08863 0.0
C58 C 0.37392 0.20624 0.16506 0.0
N59 N 0.46203 0.24908 0.1272 0.0
N60 N 0.33446 0.11784 0.97876 0.0
H61 H 0.5536 0.27986 0.97905 0.0
C62 C 0.39345 0.30413 0.62199 0.0
O63 O 0.33551 0.22053 0.65589 0.0
O64 O 0.57654 0.14784 0.04658 0.0
H65 H 0.35611 0.21999 0.2565 0.0
H66 H 0.46082 0.96307 0.7092 0.0
H67 H 0.23836 0.09975 0.11934 0.0
Zn68 Zn 0.38798 0.51878 0.52001 0.0
C69 C 0.3996 0.6909 0.78301 0.0
N70 N 0.42666 0.75216 0.68467 0.0
C71 C 0.42201 0.70276 0.57979 0.0
N72 N 0.39279 0.61598 0.61439 0.0
N73 N 0.37808 0.60702 0.73804 0.0
C74 C 0.14265 0.36685 0.95536 0.0
O75 O 0.16824 0.30885 0.98915 0.0
O76 O 0.48198 0.55005 0.37999 0.0
Zn77 Zn 0.32404 0.48269 0.82156 0.0
N78 N 0.26633 0.43585 0.46021 0.0
C79 C 0.22288 0.28191 0.42243 0.0
C80 C 0.22111 0.34787 0.49858 0.0
C81 C 0.29315 0.45664 0.34004 0.0
N82 N 0.26976 0.30794 0.31244 0.0
C83 C 0.30609 0.3948 0.27088 0.0
O84 O 0.31663 0.37054 0.73208 0.0
C85 C 0.38227 0.38031 0.66491 0.0
O86 O 0.43701 0.45799 0.62578 0.0
H87 H 0.18973 0.33036 0.59015 0.0
H88 H 0.32686 0.52709 0.31176 0.0
C89 C 0.34997 0.47415 0.06909 0.0
C90 C 0.36598 0.42721 0.16252 0.0
C91 C 0.49289 0.4435 0.04951 0.0
C92 C 0.46882 0.47947 0.94848 0.0
N93 N 0.39647 0.49211 0.96061 0.0
N94 N 0.43875 0.41486 0.15304 0.0
H95 H 0.29386 0.48659 0.07654 0.0
C96 C 0.55743 0.58086 0.43544 0.0
O97 O 0.56523 0.62445 0.54033 0.0
O98 O 0.19455 0.43567 0.8873 0.0
H99 H 0.5033 0.4912 0.85936 0.0
H100 H 0.19191 0.21218 0.45348 0.0
H101 H 0.55073 0.43358 0.04276 0.0
Zn102 Zn 0.89462 0.29734 0.15484 0.0
C103 C 0.77261 0.39532 0.91289 0.0
N104 N 0.72785 0.39999 1.01773 0.0
C105 C 0.76198 0.37288 0.1161 0.0
N106 N 0.82431 0.3513 0.07117 0.0
N107 N 0.8301 0.366 0.94751 0.0
C108 C 1.02997 0.53081 0.76861 0.0
O109 O 0.99423 0.53872 0.87348 0.0
O110 O 0.81223 0.16784 0.22051 0.0
Zn111 Zn 0.92269 0.36134 0.85331 0.0
N112 N 0.9575 0.36969 0.29404 0.0
C113 C 0.10248 0.46646 0.38279 0.0
C114 C 1.04238 0.44221 0.28182 0.0
C115 C 0.92909 0.32327 0.4026 0.0
N116 N 1.07717 0.41239 0.48638 0.0
C117 C 0.99213 0.3395 0.49599 0.0
O118 O 1.0324 0.41052 0.95933 0.0
C119 C 1.05532 0.35573 0.99838 0.0
O120 O 0.99939 0.29001 0.06536 0.0
H121 H 1.06499 0.47668 0.19268 0.0
H122 H 0.86061 0.26702 0.41011 0.0
C123 C 0.89024 0.26667 0.67388 0.0
C124 C 0.96488 0.27964 0.60437 0.0
C125 C 0.99478 0.19628 0.75538 0.0
C126 C 0.92709 0.19434 0.83181 0.0
N127 N 0.88423 0.2396 0.79394 0.0
N128 N 1.01547 0.24327 0.6455 0.0
H129 H 0.85342 0.30034 0.64576 0.0
C130 C 0.82917 0.11596 0.2886 0.0
O131 O 0.91276 0.14162 0.32251 0.0
O132 O 0.98544 0.45533 0.71323 0.0
H133 H 0.91335 0.1628 0.92326 0.0
H134 H 0.17019 0.5244 0.37594 0.0
H135 H 1.03359 0.16529 0.7861 0.0
Zn136 Zn 0.61449 0.89583 0.18663 0.0
C137 C 0.44238 0.73538 0.44968 0.0
N138 N 0.38111 0.70118 0.35135 0.0
C139 C 0.43051 0.7459 0.24646 0.0
N140 N 0.5173 0.80345 0.28103 0.0
N141 N 0.52627 0.79771 0.40468 0.0
C142 C 0.76645 0.80244 0.62197 0.0
O143 O 0.82446 0.88604 0.65577 0.0
O144 O 0.58319 0.95853 0.04662 0.0
Zn145 Zn 0.65061 0.868 0.48817 0.0
N146 N 0.69741 0.85711 0.12681 0.0
C147 C 0.85136 0.96759 0.08907 0.0
C148 C 0.78538 0.89984 0.1652 0.0
C149 C 0.67664 0.86315 1.00664 0.0
N150 N 0.82534 0.98846 0.97907 0.0
C151 C 0.73848 0.93793 0.9375 0.0
O152 O 0.76275 0.97273 0.39868 0.0
C153 C 0.75298 1.02859 0.3315 0.0
O154 O 0.6753 1.00566 0.29235 0.0
H155 H 0.80289 0.88597 0.25677 0.0
H156 H 0.60618 0.82642 0.97835 0.0
C157 C 0.65915 0.90248 0.7357 0.0
C158 C 0.70609 0.96542 0.82914 0.0
C159 C 0.6898 0.07604 0.71613 0.0
C160 C 0.65384 1.01601 0.61509 0.0
N161 N 0.6412 0.93102 0.62722 0.0
N162 N 0.71844 1.05055 0.81966 0.0
H163 H 0.64671 0.83392 0.74314 0.0
C164 C 0.55235 1.00312 0.10214 0.0
O165 O 0.50882 0.96744 0.20712 0.0
O166 O 0.69764 0.78553 0.55391 0.0
H167 H 0.64211 1.03876 0.52597 0.0
H168 H 0.92109 1.00634 0.12013 0.0
H169 H 0.69972 0.1438 0.70938 0.0
Zn170 Zn 0.83594 0.62393 0.82147 0.0
C171 C 0.73799 0.40393 0.57955 0.0
N172 N 0.73331 0.3545 0.68441 0.0
C173 C 0.76042 0.41575 0.78277 0.0
N174 N 0.782 0.49965 0.73782 0.0
N175 N 0.76729 0.49073 0.61416 0.0
C176 C 0.60248 0.5258 0.4353 0.0
O177 O 0.59458 0.48216 0.54019 0.0
O178 O 0.96544 0.67105 0.8872 0.0
Zn179 Zn 0.77194 0.58797 0.51994 0.0
N180 N 0.76357 0.61445 0.96065 0.0
C181 C 0.6668 0.66266 0.04939 0.0
C182 C 0.69106 0.62683 0.94842 0.0
C183 C 0.80997 0.63243 0.06922 0.0
N184 N 0.72085 0.69139 0.15299 0.0
C185 C 0.79374 0.67924 0.16262 0.0
O186 O 0.7228 0.64854 0.62594 0.0
C187 C 0.77758 0.72624 0.66498 0.0
O188 O 0.8433 0.73603 0.73198 0.0
H189 H 0.65661 0.615 0.85926 0.0
H190 H 0.86621 0.62019 0.07674 0.0
C191 C 0.86659 0.65017 0.34049 0.0
C192 C 0.8536 0.71184 0.27099 0.0
C193 C 0.93697 0.8251 0.42199 0.0
C194 C 0.93894 0.75935 0.4984 0.0
N195 N 0.89368 0.67124 0.46053 0.0
N196 N 0.88997 0.7988 0.31212 0.0
H197 H 0.83293 0.57968 0.31236 0.0
C198 C 1.0173 0.73985 0.95531 0.0
O199 O 0.99164 0.79778 0.98922 0.0
O200 O 0.67794 0.55671 0.37988 0.0
H201 H 0.97049 0.77716 0.58985 0.0
H202 H 0.60887 0.67244 0.04254 0.0
H203 H 0.96797 0.8949 0.45272 0.0
loop_
_geom_bond_atom_site_label_1
_geom_bond_atom_site_label_2
_geom_bond_distance
_geom_bond_site_symmetry_2
_ccdc_geom_bond_type
Zn0 N4 2.020 . S
Zn0 O8 2.019 . S
Zn0 N10 2.119 . S
Zn0 O18 1.975 . S
C1 N2 1.334 . S
C1 N5 1.336 . S
N2 C1 1.334 . S
N2 C3 1.334 1_554 S
C3 N2 1.334 1_556 S
C3 N4 1.336 . S
N4 Zn0 2.020 . S
N4 C3 1.336 . S
N4 N5 1.354 1_556 S
N5 C1 1.336 . S
N5 N4 1.354 1_554 S
N5 Zn9 2.020 . S
C6 O7 1.244 . S
C6 O30 1.257 . S
O7 C6 1.244 . S
O8 Zn0 2.019 . S
O8 C28 1.257 . S
Zn9 N5 2.020 . S
Zn9 O16 1.975 . S
Zn9 N25 2.119 . S
Zn9 O30 2.019 . S
N10 Zn0 2.119 . S
N10 C12 1.334 . S
N10 C13 1.328 . S
C11 C12 1.391 . S
C11 N14 1.329 . S
C11 H32 0.930 . S
C12 N10 1.334 . S
C12 C11 1.391 . S
C12 H19 0.930 . S
C13 N10 1.328 . S
C13 C15 1.392 . S
C13 H20 0.930 . S
N14 C11 1.329 . S
N14 C15 1.331 . S
C15 C13 1.392 . S
C15 N14 1.331 . S
O16 Zn9 1.975 . S
O16 C17 1.252 1_554 S
C17 O16 1.252 1_556 S
C17 O18 1.252 . S
O18 Zn0 1.975 . S
O18 C17 1.252 . S
H19 C12 0.930 . S
H20 C13 0.930 . S
C21 C22 1.392 . S
C21 N25 1.328 . S
C21 H27 0.930 . S
C22 C21 1.392 . S
C22 N26 1.331 . S
C23 C24 1.391 . S
C23 N26 1.329 . S
C23 H33 0.930 . S
C24 C23 1.391 . S
C24 N25 1.334 . S
C24 H31 0.930 . S
N25 Zn9 2.119 . S
N25 C21 1.328 . S
N25 C24 1.334 . S
N26 C22 1.331 . S
N26 C23 1.329 . S
H27 C21 0.930 . S
C28 O8 1.257 . S
C28 O29 1.244 . S
O29 C28 1.244 . S
O30 C6 1.257 . S
O30 Zn9 2.019 . S
H31 C24 0.930 . S
H32 C11 0.930 . S
H33 C23 0.930 . S
Zn34 N38 2.020 . S
Zn34 O42 2.019 . S
Zn34 N44 2.119 . S
Zn34 O52 1.975 . S
C35 N36 1.334 . S
C35 N39 1.336 . S
N36 C35 1.334 . S
N36 C37 1.334 . S
C37 N36 1.334 . S
C37 N38 1.336 . S
N38 Zn34 2.020 . S
N38 C37 1.336 . S
N38 N39 1.354 . S
N39 C35 1.336 . S
N39 N38 1.354 . S
N39 Zn43 2.020 . S
C40 O41 1.244 . S
C40 O64 1.257 . S
O41 C40 1.244 . S
O42 Zn34 2.019 . S
O42 C62 1.257 . S
Zn43 N39 2.020 . S
Zn43 O50 1.975 . S
Zn43 N59 2.119 . S
Zn43 O64 2.019 . S
N44 Zn34 2.119 . S
N44 C46 1.334 . S
N44 C47 1.328 . S
C45 C46 1.391 . S
C45 N48 1.329 . S
C45 H66 0.930 . S
C46 N44 1.334 . S
C46 C45 1.391 . S
C46 H53 0.930 . S
C47 N44 1.328 . S
C47 C49 1.392 . S
C47 H54 0.930 . S
N48 C45 1.329 . S
N48 C49 1.331 . S
C49 C47 1.392 . S
C49 N48 1.331 . S
O50 Zn43 1.975 . S
O50 C51 1.252 . S
C51 O50 1.252 . S
C51 O52 1.252 . S
O52 Zn34 1.975 . S
O52 C51 1.252 . S
H53 C46 0.930 . S
H54 C47 0.930 . S
C55 C56 1.392 . S
C55 N59 1.328 1_556 S
C55 H61 0.930 . S
C56 C55 1.392 . S
C56 N60 1.331 . S
C57 C58 1.391 1_556 S
C57 N60 1.329 . S
C57 H67 0.930 . S
C58 C57 1.391 1_554 S
C58 N59 1.334 . S
C58 H65 0.930 . S
N59 Zn43 2.119 . S
N59 C55 1.328 1_554 S
N59 C58 1.334 . S
N60 C56 1.331 . S
N60 C57 1.329 . S
H61 C55 0.930 . S
C62 O42 1.257 . S
C62 O63 1.244 . S
O63 C62 1.244 . S
O64 C40 1.257 . S
O64 Zn43 2.019 . S
H65 C58 0.930 . S
H66 C45 0.930 . S
H67 C57 0.930 . S
Zn68 N72 2.020 . S
Zn68 O76 2.019 . S
Zn68 N78 2.119 . S
Zn68 O86 1.975 . S
C69 N70 1.334 . S
C69 N73 1.336 . S
N70 C69 1.334 . S
N70 C71 1.334 . S
C71 N70 1.334 . S
C71 N72 1.336 . S
N72 Zn68 2.020 . S
N72 C71 1.336 . S
N72 N73 1.354 . S
N73 C69 1.336 . S
N73 N72 1.354 . S
N73 Zn77 2.020 . S
C74 O75 1.244 . S
C74 O98 1.257 . S
O75 C74 1.244 . S
O76 Zn68 2.019 . S
O76 C96 1.257 . S
Zn77 N73 2.020 . S
Zn77 O84 1.975 . S
Zn77 N93 2.119 . S
Zn77 O98 2.019 . S
N78 Zn68 2.119 . S
N78 C80 1.334 . S
N78 C81 1.328 . S
C79 C80 1.391 . S
C79 N82 1.329 . S
C79 H100 0.930 . S
C80 N78 1.334 . S
C80 C79 1.391 . S
C80 H87 0.930 . S
C81 N78 1.328 . S
C81 C83 1.392 . S
C81 H88 0.930 . S
N82 C79 1.329 . S
N82 C83 1.331 . S
C83 C81 1.392 . S
C83 N82 1.331 . S
O84 Zn77 1.975 . S
O84 C85 1.252 . S
C85 O84 1.252 . S
C85 O86 1.252 . S
O86 Zn68 1.975 . S
O86 C85 1.252 . S
H87 C80 0.930 . S
H88 C81 0.930 . S
C89 C90 1.392 . S
C89 N93 1.328 1_554 S
C89 H95 0.930 . S
C90 C89 1.392 . S
C90 N94 1.331 . S
C91 C92 1.391 1_554 S
C91 N94 1.329 . S
C91 H101 0.930 . S
C92 C91 1.391 1_556 S
C92 N93 1.334 . S
C92 H99 0.930 . S
N93 Zn77 2.119 . S
N93 C89 1.328 1_556 S
N93 C92 1.334 . S
N94 C90 1.331 . S
N94 C91 1.329 . S
H95 C89 0.930 . S
C96 O76 1.257 . S
C96 O97 1.244 . S
O97 C96 1.244 . S
O98 C74 1.257 . S
O98 Zn77 2.019 . S
H99 C92 0.930 . S
H100 C79 0.930 . S
H101 C91 0.930 . S
Zn102 N106 2.020 . S
Zn102 O110 2.019 . S
Zn102 N112 2.119 . S
Zn102 O120 1.975 . S
C103 N104 1.334 1_556 S
C103 N107 1.336 . S
N104 C103 1.334 1_554 S
N104 C105 1.334 . S
C105 N104 1.334 . S
C105 N106 1.336 . S
N106 Zn102 2.020 . S
N106 C105 1.336 . S
N106 N107 1.354 1_554 S
N107 C103 1.336 . S
N107 N106 1.354 1_556 S
N107 Zn111 2.020 . S
C108 O109 1.244 . S
C108 O132 1.257 . S
O109 C108 1.244 . S
O110 Zn102 2.019 . S
O110 C130 1.257 . S
Zn111 N107 2.020 . S
Zn111 O118 1.975 . S
Zn111 N127 2.119 . S
Zn111 O132 2.019 . S
N112 Zn102 2.119 . S
N112 C114 1.334 . S
N112 C115 1.328 . S
C113 C114 1.391 . S
C113 N116 1.329 . S
C113 H134 0.930 . S
C114 N112 1.334 . S
C114 C113 1.391 . S
C114 H121 0.930 . S
C115 N112 1.328 . S
C115 C117 1.392 . S
C115 H122 0.930 . S
N116 C113 1.329 . S
N116 C117 1.331 . S
C117 C115 1.392 . S
C117 N116 1.331 . S
O118 Zn111 1.975 . S
O118 C119 1.252 . S
C119 O118 1.252 . S
C119 O120 1.252 1_556 S
O120 Zn102 1.975 . S
O120 C119 1.252 1_554 S
H121 C114 0.930 . S
H122 C115 0.930 . S
C123 C124 1.392 . S
C123 N127 1.328 . S
C123 H129 0.930 . S
C124 C123 1.392 . S
C124 N128 1.331 . S
C125 C126 1.391 . S
C125 N128 1.329 . S
C125 H135 0.930 . S
C126 C125 1.391 . S
C126 N127 1.334 . S
C126 H133 0.930 . S
N127 Zn111 2.119 . S
N127 C123 1.328 . S
N127 C126 1.334 . S
N128 C124 1.331 . S
N128 C125 1.329 . S
H129 C123 0.930 . S
C130 O110 1.257 . S
C130 O131 1.244 . S
O131 C130 1.244 . S
O132 C108 1.257 . S
O132 Zn111 2.019 . S
H133 C126 0.930 . S
H134 C113 0.930 . S
H135 C125 0.930 . S
Zn136 N140 2.020 . S
Zn136 O144 2.019 . S
Zn136 N146 2.119 . S
Zn136 O154 1.975 . S
C137 N138 1.334 . S
C137 N141 1.336 . S
N138 C137 1.334 . S
N138 C139 1.334 . S
C139 N138 1.334 . S
C139 N140 1.336 . S
N140 Zn136 2.020 . S
N140 C139 1.336 . S
N140 N141 1.354 . S
N141 C137 1.336 . S
N141 N140 1.354 . S
N141 Zn145 2.020 . S
C142 O143 1.244 . S
C142 O166 1.257 . S
O143 C142 1.244 . S
O144 Zn136 2.019 . S
O144 C164 1.257 . S
Zn145 N141 2.020 . S
Zn145 O152 1.975 . S
Zn145 N161 2.119 . S
Zn145 O166 2.019 . S
N146 Zn136 2.119 . S
N146 C148 1.334 . S
N146 C149 1.328 1_554 S
C147 C148 1.391 1_556 S
C147 N150 1.329 . S
C147 H168 0.930 . S
C148 N146 1.334 . S
C148 C147 1.391 1_554 S
C148 H155 0.930 . S
C149 N146 1.328 1_556 S
C149 C151 1.392 . S
C149 H156 0.930 . S
N150 C147 1.329 . S
N150 C151 1.331 . S
C151 C149 1.392 . S
C151 N150 1.331 . S
O152 Zn145 1.975 . S
O152 C153 1.252 . S
C153 O152 1.252 . S
C153 O154 1.252 . S
O154 Zn136 1.975 . S
O154 C153 1.252 . S
H155 C148 0.930 . S
H156 C149 0.930 . S
C157 C158 1.392 . S
C157 N161 1.328 . S
C157 H163 0.930 . S
C158 C157 1.392 . S
C158 N162 1.331 . S
C159 C160 1.391 . S
C159 N162 1.329 . S
C159 H169 0.930 . S
C160 C159 1.391 . S
C160 N161 1.334 . S
C160 H167 0.930 . S
N161 Zn145 2.119 . S
N161 C157 1.328 . S
N161 C160 1.334 . S
N162 C158 1.331 . S
N162 C159 1.329 . S
H163 C157 0.930 . S
C164 O144 1.257 . S
C164 O165 1.244 . S
O165 C164 1.244 . S
O166 C142 1.257 . S
O166 Zn145 2.019 . S
H167 C160 0.930 . S
H168 C147 0.930 . S
H169 C159 0.930 . S
Zn170 N174 2.020 . S
Zn170 O178 2.019 . S
Zn170 N180 2.119 . S
Zn170 O188 1.975 . S
C171 N172 1.334 . S
C171 N175 1.336 . S
N172 C171 1.334 . S
N172 C173 1.334 . S
C173 N172 1.334 . S
C173 N174 1.336 . S
N174 Zn170 2.020 . S
N174 C173 1.336 . S
N174 N175 1.354 . S
N175 C171 1.336 . S
N175 N174 1.354 . S
N175 Zn179 2.020 . S
C176 O177 1.244 . S
C176 O200 1.257 . S
O177 C176 1.244 . S
O178 Zn170 2.019 . S
O178 C198 1.257 . S
Zn179 N175 2.020 . S
Zn179 O186 1.975 . S
Zn179 N195 2.119 . S
Zn179 O200 2.019 . S
N180 Zn170 2.119 . S
N180 C182 1.334 . S
N180 C183 1.328 1_556 S
C181 C182 1.391 1_554 S
C181 N184 1.329 . S
C181 H202 0.930 . S
C182 N180 1.334 . S
C182 C181 1.391 1_556 S
C182 H189 0.930 . S
C183 N180 1.328 1_554 S
C183 C185 1.392 . S
C183 H190 0.930 . S
N184 C181 1.329 . S
N184 C185 1.331 . S
C185 C183 1.392 . S
C185 N184 1.331 . S
O186 Zn179 1.975 . S
O186 C187 1.252 . S
C187 O186 1.252 . S
C187 O188 1.252 . S
O188 Zn170 1.975 . S
O188 C187 1.252 . S
H189 C182 0.930 . S
H190 C183 0.930 . S
C191 C192 1.392 . S
C191 N195 1.328 . S
C191 H197 0.930 . S
C192 C191 1.392 . S
C192 N196 1.331 . S
C193 C194 1.391 . S
C193 N196 1.329 . S
C193 H203 0.930 . S
C194 C193 1.391 . S
C194 N195 1.334 . S
C194 H201 0.930 . S
N195 Zn179 2.119 . S
N195 C191 1.328 . S
N195 C194 1.334 . S
N196 C192 1.331 . S
N196 C193 1.329 . S
H197 C191 0.930 . S
C198 O178 1.257 . S
C198 O199 1.244 . S
O199 C198 1.244 . S
O200 C176 1.257 . S
O200 Zn179 2.019 . S
H201 C194 0.930 . S
H202 C181 0.930 . S
H203 C193 0.930 . S
C15 C22 0.884 . S
C49 C56 0.884 . S
C83 C90 0.884 . S
C117 C124 0.884 . S
C151 C158 0.884 . S
C192 C185 0.884 . S
C28 C108 0.320 1_455 S
C40 C164 0.320 1_545 S
C176 C96 0.320 . S
C3 C69 3.056 . S
C35 C105 3.056 . S
C71 C137 3.056 . S
C103 C173 3.056 . S
C1 C139 3.056 . S
C171 C37 3.056 . S
C6 C51 2.548 1_565 S
C62 C85 2.548 . S
C74 C119 2.548 1_455 S
C153 C130 2.548 1_565 S
C142 C187 2.548 . S
C198 C17 2.548 1_655 S
