# Generated by pormake.
# Topology uoc, (4)-cn, num edge types: 1
# Building blocks:
#     Node 0, Type 0, BuildingBlock: QUQFOY_clean_sbu_3, # of connection points: 4
#     Node 1, Type 0, BuildingBlock: QUQFOY_clean_sbu_3, # of connection points: 4
#     Node 2, Type 0, BuildingBlock: QUQFOY_clean_sbu_3, # of connection points: 4
#     Node 3, Type 0, BuildingBlock: QUQFOY_clean_sbu_3, # of connection points: 4
#     Node 4, Type 0, BuildingBlock: QUQFOY_clean_sbu_3, # of connection points: 4
#     Node 5, Type 0, BuildingBlock: QUQFOY_clean_sbu_3, # of connection points: 4
#     Node 6, Type 0, BuildingBlock: QUQFOY_clean_sbu_3, # of connection points: 4
#     Node 7, Type 0, BuildingBlock: QUQFOY_clean_sbu_3, # of connection points: 4
#     Edge 8, Type (0, 0), None
#     Edge 9, Type (0, 0), None
#     Edge 10, Type (0, 0), None
#     Edge 11, Type (0, 0), None
#     Edge 12, Type (0, 0), None
#     Edge 13, Type (0, 0), None
#     Edge 14, Type (0, 0), None
#     Edge 15, Type (0, 0), None
#     Edge 16, Type (0, 0), None
#     Edge 17, Type (0, 0), None
#     Edge 18, Type (0, 0), None
#     Edge 19, Type (0, 0), None
#     Edge 20, Type (0, 0), None
#     Edge 21, Type (0, 0), None
#     Edge 22, Type (0, 0), None
#     Edge 23, Type (0, 0), None
# Relax obj value: 0.101
# Max RMSD: 0.110
# Mean RMSD: 0.110
data_MOF--net-uoc--node1-QUQFOY_clean_sbu_3--edge1-none
_symmetry_space_group_name_H-M    P1
_symmetry_Int_Tables_number       1
_symmetry_cell_setting            triclinic
loop_
_symmetry_equiv_pos_as_xyz
'x, y, z'
_cell_length_a     13.842104
_cell_length_b     13.842093
_cell_length_c     27.468254
_cell_angle_alpha  90.0
_cell_angle_beta   90.0
_cell_angle_gamma 96.040623
loop_
_atom_site_label
_atom_site_type_symbol
_atom_site_fract_x
_atom_site_fract_y
_atom_site_fract_z
_atom_type_partial_charge
C0 C 0.18972 0.19212 -0.02767 0.0
O1 O 0.24735 0.14229 -0.00532 0.0
Cd2 Cd 0.2203 0.10644 0.07967 0.0
O3 O 0.12246 0.22818 -0.00469 0.0
Cd4 Cd 0.06467 0.23398 0.08018 0.0
C5 C -0.01187 -0.0021 0.07586 0.0
O6 O 0.20654 0.24359 0.13364 0.0
O7 O 0.06942 0.18315 0.16483 0.0
O8 O 0.06589 0.4103 0.0787 0.0
C9 C 0.1565 0.21899 0.17133 0.0
O10 O 0.07743 -0.01371 0.08147 0.0
C11 C -0.02537 0.41002 0.08243 0.0
O12 O -0.03921 0.08239 0.07156 0.0
O13 O 0.92444 0.32793 0.0853 0.0
C14 C 0.68859 0.69326 0.41892 0.0
O15 O 0.63875 0.75089 0.39656 0.0
Cd16 Cd 0.6029 0.72384 0.31158 0.0
O17 O 0.72464 0.62599 0.39593 0.0
Cd18 Cd 0.73044 0.56821 0.31107 0.0
C19 C 0.49437 0.49167 0.31539 0.0
O20 O 0.74005 0.71007 0.25761 0.0
O21 O 0.67961 0.57296 0.22641 0.0
O22 O 0.90676 0.56943 0.31255 0.0
C23 C 0.71545 0.66003 0.21991 0.0
O24 O 0.48276 0.58097 0.30978 0.0
C25 C 0.90648 0.47816 0.30882 0.0
O26 O 0.57885 0.46433 0.31968 0.0
O27 O 0.82439 0.42797 0.30595 0.0
C28 C 0.21405 0.21872 0.47233 0.0
O29 O 0.15642 0.26856 0.49468 0.0
Cd30 Cd 0.18347 0.30441 0.57967 0.0
O31 O 0.28132 0.18267 0.49531 0.0
Cd32 Cd 0.3391 0.17687 0.58018 0.0
C33 C 0.41564 0.41294 0.57586 0.0
O34 O 0.19724 0.16726 0.63364 0.0
O35 O 0.33435 0.2277 0.66483 0.0
O36 O 0.33788 0.00055 0.5787 0.0
C37 C 0.24728 0.19186 0.67133 0.0
O38 O 0.32634 0.42455 0.58147 0.0
C39 C 0.42915 0.00083 0.58243 0.0
O40 O 0.44298 0.32846 0.57156 0.0
O41 O 0.47934 0.08292 0.5853 0.0
C42 C 0.71519 0.71759 0.91892 0.0
O43 O 0.76502 0.65996 0.89656 0.0
Cd44 Cd 0.80087 0.68701 0.81158 0.0
O45 O 0.67913 0.78486 0.89593 0.0
Cd46 Cd 0.67333 0.84264 0.81107 0.0
C47 C 0.90941 0.91918 0.81539 0.0
O48 O 0.66373 0.70077 0.75761 0.0
O49 O 0.72416 0.83789 0.72641 0.0
O50 O 0.49701 0.84142 0.81255 0.0
C51 C 0.68832 0.75081 0.71991 0.0
O52 O 0.92102 0.82988 0.80978 0.0
C53 C 0.49729 0.93268 0.80882 0.0
O54 O 0.82493 0.94652 0.81968 0.0
O55 O 0.57938 -0.01713 0.80595 0.0
C56 C 0.68971 0.69215 0.47232 0.0
O57 O 0.74735 0.64231 0.49467 0.0
Cd58 Cd 0.72032 0.60646 0.57966 0.0
O59 O 0.62245 0.72821 0.49531 0.0
Cd60 Cd 0.56468 0.73402 0.58017 0.0
C61 C 0.48815 0.49793 0.57586 0.0
O62 O 0.70657 0.74363 0.63362 0.0
O63 O 0.56944 0.6832 0.66483 0.0
O64 O 0.5659 0.91033 0.57869 0.0
C65 C 0.65652 0.71907 0.67132 0.0
O66 O 0.57745 0.48632 0.58147 0.0
C67 C 0.47464 0.91005 0.58243 0.0
O68 O 0.4608 0.58242 0.57156 0.0
O69 O 0.42445 0.82796 0.5853 0.0
C70 C 0.18861 0.19325 0.91893 0.0
O71 O 0.13877 0.25088 0.89657 0.0
Cd72 Cd 0.10293 0.22386 0.81159 0.0
O73 O 0.22467 0.12599 0.89594 0.0
Cd74 Cd 0.23048 0.06822 0.81107 0.0
C75 C -0.0056 -0.00832 0.81539 0.0
O76 O 0.24009 0.2101 0.75763 0.0
O77 O 0.17966 0.07298 0.72642 0.0
O78 O 0.40679 0.06944 0.81256 0.0
C79 C 0.21553 0.16005 0.71993 0.0
O80 O -0.01721 0.08099 0.80978 0.0
C81 C 0.40651 -0.02183 0.80882 0.0
O82 O 0.07888 -0.03566 0.81968 0.0
O83 O 0.32442 0.92798 0.80595 0.0
C84 C 0.71406 0.7187 -0.02768 0.0
O85 O 0.65643 0.76854 -0.00533 0.0
Cd86 Cd 0.68345 0.80438 0.07966 0.0
O87 O 0.78132 0.68264 -0.00469 0.0
Cd88 Cd 0.83909 0.67683 0.08017 0.0
C89 C 0.91563 0.91291 0.07586 0.0
O90 O 0.69721 0.66722 0.13362 0.0
O91 O 0.83433 0.72765 0.16483 0.0
O92 O 0.83787 0.50052 0.07869 0.0
C93 C 0.74726 0.69178 0.17132 0.0
O94 O 0.82632 0.92453 0.08147 0.0
C95 C 0.92914 0.5008 0.08243 0.0
O96 O 0.94297 0.82843 0.07156 0.0
O97 O -0.02067 0.58289 0.0853 0.0
C98 C 0.21516 0.2176 0.41893 0.0
O99 O 0.265 0.15996 0.39657 0.0
Cd100 Cd 0.30085 0.18699 0.31159 0.0
O101 O 0.1791 0.28486 0.39594 0.0
Cd102 Cd 0.17329 0.34263 0.31107 0.0
C103 C 0.40938 0.41916 0.31539 0.0
O104 O 0.16368 0.20074 0.25763 0.0
O105 O 0.22411 0.33787 0.22642 0.0
O106 O -0.00302 0.34141 0.31256 0.0
C107 C 0.18824 0.25079 0.21993 0.0
O108 O 0.42099 0.32986 0.30978 0.0
C109 C -0.00274 0.43267 0.30882 0.0
O110 O 0.3249 0.44651 0.31968 0.0
O111 O 0.07935 0.48286 0.30595 0.0
loop_
_geom_bond_atom_site_label_1
_geom_bond_atom_site_label_2
_geom_bond_distance
_geom_bond_site_symmetry_2
_ccdc_geom_bond_type
C0 O1 1.306 . S
C0 O3 1.160 . S
O1 C0 1.306 . S
O1 Cd2 2.228 . S
Cd2 O1 2.228 . S
Cd2 O6 2.273 . S
Cd2 O10 2.277 . S
O3 C0 1.160 . S
O3 Cd4 2.203 . S
Cd4 O3 2.203 . S
Cd4 O6 2.411 . S
Cd4 O7 2.333 . S
Cd4 O8 2.352 . S
Cd4 O12 2.277 1_455 S
Cd4 O13 2.356 1_455 S
C5 O10 1.209 . S
C5 O12 1.226 1_455 S
O6 Cd2 2.273 . S
O6 Cd4 2.411 . S
O6 C9 1.320 . S
O7 Cd4 2.333 . S
O7 C9 1.214 . S
O8 Cd4 2.352 . S
O8 C11 1.258 . S
C9 O6 1.320 . S
C9 O7 1.214 . S
O10 Cd2 2.277 . S
O10 C5 1.209 . S
C11 O8 1.258 . S
C11 O13 1.282 1_455 S
O12 Cd4 2.277 1_655 S
O12 C5 1.226 1_655 S
O13 Cd4 2.356 1_655 S
O13 C11 1.282 1_655 S
C14 O15 1.306 . S
C14 O17 1.160 . S
O15 C14 1.306 . S
O15 Cd16 2.228 . S
Cd16 O15 2.228 . S
Cd16 O20 2.273 . S
Cd16 O24 2.277 . S
O17 C14 1.160 . S
O17 Cd18 2.203 . S
Cd18 O17 2.203 . S
Cd18 O20 2.411 . S
Cd18 O21 2.333 . S
Cd18 O22 2.352 . S
Cd18 O26 2.277 . S
Cd18 O27 2.356 . S
C19 O24 1.209 . S
C19 O26 1.226 . S
O20 Cd16 2.273 . S
O20 Cd18 2.411 . S
O20 C23 1.320 . S
O21 Cd18 2.333 . S
O21 C23 1.214 . S
O22 Cd18 2.352 . S
O22 C25 1.258 . S
C23 O20 1.320 . S
C23 O21 1.214 . S
O24 Cd16 2.277 . S
O24 C19 1.209 . S
C25 O22 1.258 . S
C25 O27 1.282 . S
O26 Cd18 2.277 . S
O26 C19 1.226 . S
O27 Cd18 2.356 . S
O27 C25 1.282 . S
C28 O29 1.306 . S
C28 O31 1.160 . S
O29 C28 1.306 . S
O29 Cd30 2.228 . S
Cd30 O29 2.228 . S
Cd30 O34 2.273 . S
Cd30 O38 2.277 . S
O31 C28 1.160 . S
O31 Cd32 2.203 . S
Cd32 O31 2.203 . S
Cd32 O34 2.411 . S
Cd32 O35 2.333 . S
Cd32 O36 2.352 . S
Cd32 O40 2.277 . S
Cd32 O41 2.356 . S
C33 O38 1.209 . S
C33 O40 1.226 . S
O34 Cd30 2.273 . S
O34 Cd32 2.411 . S
O34 C37 1.320 . S
O35 Cd32 2.333 . S
O35 C37 1.214 . S
O36 Cd32 2.352 . S
O36 C39 1.258 . S
C37 O34 1.320 . S
C37 O35 1.214 . S
O38 Cd30 2.277 . S
O38 C33 1.209 . S
C39 O36 1.258 . S
C39 O41 1.282 . S
O40 Cd32 2.277 . S
O40 C33 1.226 . S
O41 Cd32 2.356 . S
O41 C39 1.282 . S
C42 O43 1.306 . S
C42 O45 1.160 . S
O43 C42 1.306 . S
O43 Cd44 2.228 . S
Cd44 O43 2.228 . S
Cd44 O48 2.273 . S
Cd44 O52 2.277 . S
O45 C42 1.160 . S
O45 Cd46 2.203 . S
Cd46 O45 2.203 . S
Cd46 O48 2.411 . S
Cd46 O49 2.333 . S
Cd46 O50 2.352 . S
Cd46 O54 2.277 1_565 S
Cd46 O55 2.356 1_565 S
C47 O52 1.209 . S
C47 O54 1.226 1_565 S
O48 Cd44 2.273 . S
O48 Cd46 2.411 . S
O48 C51 1.320 . S
O49 Cd46 2.333 . S
O49 C51 1.214 . S
O50 Cd46 2.352 . S
O50 C53 1.258 . S
C51 O48 1.320 . S
C51 O49 1.214 . S
O52 Cd44 2.277 . S
O52 C47 1.209 . S
C53 O50 1.258 . S
C53 O55 1.282 1_565 S
O54 Cd46 2.277 1_545 S
O54 C47 1.226 1_545 S
O55 Cd46 2.356 1_545 S
O55 C53 1.282 1_545 S
C56 O57 1.306 . S
C56 O59 1.160 . S
O57 C56 1.306 . S
O57 Cd58 2.228 . S
Cd58 O57 2.228 . S
Cd58 O62 2.273 . S
Cd58 O66 2.277 . S
O59 C56 1.160 . S
O59 Cd60 2.203 . S
Cd60 O59 2.203 . S
Cd60 O62 2.411 . S
Cd60 O63 2.333 . S
Cd60 O64 2.352 . S
Cd60 O68 2.277 . S
Cd60 O69 2.356 . S
C61 O66 1.209 . S
C61 O68 1.226 . S
O62 Cd58 2.273 . S
O62 Cd60 2.411 . S
O62 C65 1.320 . S
O63 Cd60 2.333 . S
O63 C65 1.214 . S
O64 Cd60 2.352 . S
O64 C67 1.258 . S
C65 O62 1.320 . S
C65 O63 1.214 . S
O66 Cd58 2.277 . S
O66 C61 1.209 . S
C67 O64 1.258 . S
C67 O69 1.282 . S
O68 Cd60 2.277 . S
O68 C61 1.226 . S
O69 Cd60 2.356 . S
O69 C67 1.282 . S
C70 O71 1.306 . S
C70 O73 1.160 . S
O71 C70 1.306 . S
O71 Cd72 2.228 . S
Cd72 O71 2.228 . S
Cd72 O76 2.273 . S
Cd72 O80 2.277 . S
O73 C70 1.160 . S
O73 Cd74 2.203 . S
Cd74 O73 2.203 . S
Cd74 O76 2.411 . S
Cd74 O77 2.333 . S
Cd74 O78 2.352 . S
Cd74 O82 2.277 1_545 S
Cd74 O83 2.356 1_545 S
C75 O80 1.209 . S
C75 O82 1.226 1_545 S
O76 Cd72 2.273 . S
O76 Cd74 2.411 . S
O76 C79 1.320 . S
O77 Cd74 2.333 . S
O77 C79 1.214 . S
O78 Cd74 2.352 . S
O78 C81 1.258 . S
C79 O76 1.320 . S
C79 O77 1.214 . S
O80 Cd72 2.277 . S
O80 C75 1.209 . S
C81 O78 1.258 . S
C81 O83 1.282 1_545 S
O82 Cd74 2.277 1_565 S
O82 C75 1.226 1_565 S
O83 Cd74 2.356 1_565 S
O83 C81 1.282 1_565 S
C84 O85 1.306 . S
C84 O87 1.160 . S
O85 C84 1.306 . S
O85 Cd86 2.228 . S
Cd86 O85 2.228 . S
Cd86 O90 2.273 . S
Cd86 O94 2.277 . S
O87 C84 1.160 . S
O87 Cd88 2.203 . S
Cd88 O87 2.203 . S
Cd88 O90 2.411 . S
Cd88 O91 2.333 . S
Cd88 O92 2.352 . S
Cd88 O96 2.277 1_655 S
Cd88 O97 2.356 1_655 S
C89 O94 1.209 . S
C89 O96 1.226 1_655 S
O90 Cd86 2.273 . S
O90 Cd88 2.411 . S
O90 C93 1.320 . S
O91 Cd88 2.333 . S
O91 C93 1.214 . S
O92 Cd88 2.352 . S
O92 C95 1.258 . S
C93 O90 1.320 . S
C93 O91 1.214 . S
O94 Cd86 2.277 . S
O94 C89 1.209 . S
C95 O92 1.258 . S
C95 O97 1.282 1_655 S
O96 Cd88 2.277 1_455 S
O96 C89 1.226 1_455 S
O97 Cd88 2.356 1_455 S
O97 C95 1.282 1_455 S
C98 O99 1.306 . S
C98 O101 1.160 . S
O99 C98 1.306 . S
O99 Cd100 2.228 . S
Cd100 O99 2.228 . S
Cd100 O104 2.273 . S
Cd100 O108 2.277 . S
O101 C98 1.160 . S
O101 Cd102 2.203 . S
Cd102 O101 2.203 . S
Cd102 O104 2.411 . S
Cd102 O105 2.333 . S
Cd102 O106 2.352 . S
Cd102 O110 2.277 . S
Cd102 O111 2.356 . S
C103 O108 1.209 . S
C103 O110 1.226 . S
O104 Cd100 2.273 . S
O104 Cd102 2.411 . S
O104 C107 1.320 . S
O105 Cd102 2.333 . S
O105 C107 1.214 . S
O106 Cd102 2.352 . S
O106 C109 1.258 . S
C107 O104 1.320 . S
C107 O105 1.214 . S
O108 Cd100 2.277 . S
O108 C103 1.209 . S
C109 O106 1.258 . S
C109 O111 1.282 . S
O110 Cd102 2.277 . S
O110 C103 1.226 . S
O111 Cd102 2.356 . S
O111 C109 1.282 . S
C0 C70 1.513 1_554 S
C23 C93 1.348 . S
C28 C98 1.513 . S
C51 C65 1.348 . S
C107 C9 1.348 . S
C56 C14 1.513 . S
C37 C79 1.348 . S
C84 C42 1.513 1_554 S
C5 C89 1.705 1_445 S
C109 C25 1.618 1_455 S
C33 C61 1.705 . S
C53 C81 1.618 1_565 S
C95 C11 1.618 1_655 S
C103 C19 1.705 . S
C39 C67 1.618 1_545 S
C47 C75 1.705 1_665 S
