# Generated by pormake.
# Topology nbo, (4)-cn, num edge types: 1
# Building blocks:
#     Node 0, Type 0, BuildingBlock: ESEHIV_clean_sbu_0, # of connection points: 4
#     Node 1, Type 0, BuildingBlock: ESEHIV_clean_sbu_0, # of connection points: 4
#     Node 2, Type 0, BuildingBlock: ESEHIV_clean_sbu_0, # of connection points: 4
#     Node 3, Type 0, BuildingBlock: ESEHIV_clean_sbu_0, # of connection points: 4
#     Node 4, Type 0, BuildingBlock: ESEHIV_clean_sbu_0, # of connection points: 4
#     Node 5, Type 0, BuildingBlock: ESEHIV_clean_sbu_0, # of connection points: 4
#     Edge 6, Type (0, 0), None
#     Edge 7, Type (0, 0), None
#     Edge 8, Type (0, 0), None
#     Edge 9, Type (0, 0), None
#     Edge 10, Type (0, 0), None
#     Edge 11, Type (0, 0), None
#     Edge 12, Type (0, 0), None
#     Edge 13, Type (0, 0), None
#     Edge 14, Type (0, 0), None
#     Edge 15, Type (0, 0), None
#     Edge 16, Type (0, 0), None
#     Edge 17, Type (0, 0), None
# Relax obj value: 0.001
# Max RMSD: 0.097
# Mean RMSD: 0.094
data_MOF--net-nbo--node1-ESEHIV_clean_sbu_0--edge1-none
_symmetry_space_group_name_H-M    P1
_symmetry_Int_Tables_number       1
_symmetry_cell_setting            triclinic
loop_
_symmetry_equiv_pos_as_xyz
'x, y, z'
_cell_length_a     12.807492
_cell_length_b     17.191671
_cell_length_c     14.7729
_cell_angle_alpha  102.97268
_cell_angle_beta   101.83188
_cell_angle_gamma 107.58418
loop_
_atom_site_label
_atom_site_type_symbol
_atom_site_fract_x
_atom_site_fract_y
_atom_site_fract_z
_atom_type_partial_charge
Cu0 Cu 0.10271 0.1336 0.56862 0.0
N1 N 0.13004 0.20184 0.48796 0.0
N2 N 0.1966 0.31955 0.44526 0.0
C3 C 0.20231 0.28402 0.51778 0.0
C4 C 0.11716 0.25754 0.36676 0.0
C5 C 0.07597 0.18497 0.39349 0.0
O6 O 0.94441 0.1112 0.57625 0.0
C7 C 0.32877 0.2297 0.71593 0.0
O8 O 0.3887 0.2799 0.80442 0.0
H9 H 0.25062 0.31899 0.59282 0.0
H10 H 1.0064 0.12608 0.34882 0.0
N11 N 0.11249 1.02703 0.51322 0.0
N12 N 0.13533 0.90123 0.49317 0.0
C13 C 0.13577 0.97103 0.55764 0.0
C14 C 0.09685 0.99056 0.41805 0.0
C15 C 0.11068 0.91287 0.40541 0.0
C16 C 0.90649 0.16208 0.62491 0.0
O17 O 0.97787 0.23805 0.68194 0.0
H18 H 0.15218 0.98121 0.635 0.0
H19 H 0.07738 1.01842 0.36125 0.0
O20 O 0.21902 0.20008 0.69488 0.0
H21 H 0.08517 0.26587 0.29727 0.0
H22 H 0.10454 0.86906 0.33757 0.0
Cu23 Cu 0.58238 0.16611 0.1757 0.0
N24 N 0.68284 0.10868 0.20323 0.0
N25 N 0.71646 0.98647 0.17583 0.0
C26 C 0.682 1.04102 0.13588 0.0
C27 C 0.74146 1.02045 0.27254 0.0
C28 C 0.72112 0.09649 0.28935 0.0
O29 O 0.48208 0.1364 0.25479 0.0
C30 C 0.58025 0.14103 0.98349 0.0
O31 O 0.68692 0.19322 1.02789 0.0
H32 H 0.64198 1.0257 0.05905 0.0
H33 H 0.72051 0.13419 0.35842 0.0
N34 N 0.65287 0.28696 0.21971 0.0
N35 N 0.68856 0.42688 0.23954 0.0
C36 C 0.63502 0.34598 0.17721 0.0
C37 C 0.71778 0.33242 0.31149 0.0
C38 C 0.74019 0.41842 0.32387 0.0
C39 C 0.44337 1.06045 0.25994 0.0
O40 O 0.43271 0.99563 0.18709 0.0
H41 H 0.58131 0.32977 0.10377 0.0
H42 H 0.74189 0.30418 0.36701 0.0
O43 O 0.5126 0.12293 1.0347 0.0
H44 H 0.76445 0.9899 0.32603 0.0
H45 H 0.78673 0.47028 0.39061 0.0
Cu46 Cu 1.01422 0.55339 0.90536 0.0
N47 N 0.95651 0.48389 0.77757 0.0
N48 N 0.93592 0.45364 0.61904 0.0
C49 C 0.9697 0.51592 0.7042 0.0
C50 C 0.89612 0.3792 0.63879 0.0
C51 C 0.90879 0.39819 0.73758 0.0
O52 O 0.17558 0.61746 0.9334 0.0
C53 C 0.82621 0.59722 0.90095 0.0
O54 O 0.77276 0.51781 0.84396 0.0
H55 H 1.01221 0.58359 0.71486 0.0
H56 H 0.88977 0.35305 0.77792 0.0
N57 N 0.99478 0.4986 0.99897 0.0
N58 N 1.01479 0.51279 0.15602 0.0
C59 C 1.06546 0.53613 0.09007 0.0
C60 C 0.89623 0.44779 1.00735 0.0
C61 C 0.90869 0.4561 0.10469 0.0
C62 C 0.24468 0.57827 0.94378 0.0
O63 O 0.20457 0.49548 0.93135 0.0
H64 H 0.1474 0.58765 0.10847 0.0
H65 H 0.81741 0.41428 0.94858 0.0
O66 O 0.93464 0.62998 0.92526 0.0
H67 H 0.86493 0.31608 0.58636 0.0
H68 H 0.84325 0.42674 0.1354 0.0
Cu69 Cu 0.60087 0.64076 0.04936 0.0
N70 N 0.65203 0.76066 0.07208 0.0
N71 N 0.70492 0.90336 0.1233 0.0
C72 C 0.67484 0.83026 0.14855 0.0
C73 C 0.70046 0.87929 1.02909 0.0
C74 C 0.66762 0.792 0.99796 0.0
O75 O 0.43561 0.58769 1.00098 0.0
C76 C 0.76774 0.63656 0.96066 0.0
O77 O 0.82896 0.7022 1.03861 0.0
H78 H 0.66455 0.82716 0.2187 0.0
H79 H 0.65282 0.75311 0.92468 0.0
N80 N 0.65301 0.59978 0.15072 0.0
N81 N 0.68801 0.50503 0.22308 0.0
C82 C 0.63169 0.51585 0.14178 0.0
C83 C 0.726 0.64322 0.24036 0.0
C84 C 0.74759 0.58491 0.28538 0.0
C85 C 0.36843 0.62572 0.97676 0.0
O86 O 0.40934 0.70767 0.98533 0.0
H87 H 0.57808 0.46422 0.07621 0.0
H88 H 0.7633 0.71237 0.26987 0.0
O89 O 0.66205 0.59822 0.94905 0.0
H90 H 0.71571 0.92162 0.98499 0.0
H91 H 0.8046 0.60043 0.35731 0.0
Cu92 Cu 0.08688 0.57583 0.44742 0.0
N93 N 0.19816 0.52761 0.46143 0.0
N94 N 0.23452 0.40836 0.45764 0.0
C95 C 0.17248 0.44566 0.4105 0.0
C96 C 0.30633 0.47065 0.5396 0.0
C97 C 0.28328 0.54439 0.54189 0.0
O98 O 0.99929 0.54117 0.53228 0.0
C99 C 1.06039 0.54712 0.25389 0.0
O100 O 0.16869 0.59796 0.29119 0.0
H101 H 0.096 0.41041 0.34966 0.0
H102 H 0.31444 0.60147 0.6038 0.0
N103 N 0.14722 0.69534 0.4934 0.0
N104 N 0.15626 0.82979 0.51271 0.0
C105 C 0.12198 0.75064 0.44902 0.0
C106 C 0.19855 0.74133 0.58779 0.0
C107 C 0.20394 0.82447 0.60012 0.0
C108 C 0.95939 0.46527 0.53665 0.0
O109 O 0.95678 0.40048 0.46814 0.0
H110 H 0.07186 0.73179 0.37384 0.0
H111 H 0.22219 0.71455 0.64492 0.0
O112 O 1.00067 0.53113 0.31108 0.0
H113 H 0.36075 0.4609 0.59906 0.0
H114 H 0.23476 0.87526 0.66836 0.0
Cu115 Cu 0.5701 0.14352 0.63855 0.0
N116 N 0.49172 0.07736 0.50897 0.0
N117 N 0.43897 1.04878 0.34748 0.0
C118 C 0.48655 0.11041 0.43446 0.0
C119 C 0.41062 0.97382 0.36817 0.0
C120 C 0.44275 0.99173 0.46816 0.0
O121 O 0.7368 0.18626 0.65297 0.0
C122 C 0.39028 0.20166 0.64839 0.0
O123 O 0.33329 0.13385 0.57273 0.0
H124 H 0.52564 0.17823 0.44409 0.0
H125 H 0.43644 0.94564 0.50797 0.0
N126 N 0.54537 0.08675 0.73005 0.0
N127 N 0.54573 0.105 0.88515 0.0
C128 C 0.60704 0.12586 0.82409 0.0
C129 C 0.44199 1.03788 0.73195 0.0
C130 C 0.4421 1.04832 0.82766 0.0
C131 C 0.78209 0.13438 0.61661 0.0
O132 O 0.71626 1.05418 0.56929 0.0
H133 H 0.68975 0.17744 0.84686 0.0
H134 H 0.3677 1.00665 0.66895 0.0
O135 O 0.49985 0.22741 0.67643 0.0
H136 H 0.37526 0.9107 0.3151 0.0
H137 H 0.36927 1.02176 0.85257 0.0
loop_
_geom_bond_atom_site_label_1
_geom_bond_atom_site_label_2
_geom_bond_distance
_geom_bond_site_symmetry_2
_ccdc_geom_bond_type
Cu0 N1 1.999 1_655 S
Cu0 O6 1.974 . S
Cu0 N11 1.985 1_545 S
Cu0 O20 1.959 1_655 S
N1 Cu0 1.999 1_455 S
N1 C3 1.263 1_455 S
N1 C5 1.389 . S
N2 C3 1.358 1_455 S
N2 C4 1.400 . S
C3 N1 1.263 1_655 S
C3 N2 1.358 1_655 S
C3 H9 0.930 . S
C4 N2 1.400 . S
C4 C5 1.351 . S
C4 H21 0.930 . S
C5 N1 1.389 . S
C5 C4 1.351 . S
C5 H10 0.930 . S
O6 Cu0 1.974 . S
O6 C16 1.282 . S
C7 O8 1.261 . S
C7 O20 1.251 . S
O8 C7 1.261 . S
H9 C3 0.930 . S
H10 C5 0.930 . S
N11 Cu0 1.985 1_565 S
N11 C13 1.335 1_655 S
N11 C14 1.390 . S
N12 C13 1.345 1_655 S
N12 C15 1.336 . S
C13 N11 1.335 1_455 S
C13 N12 1.345 1_455 S
C13 H18 0.930 . S
C14 N11 1.390 . S
C14 C15 1.346 . S
C14 H19 0.930 . S
C15 N12 1.336 . S
C15 C14 1.346 . S
C15 H22 0.929 . S
C16 O6 1.282 . S
C16 O17 1.216 . S
O17 C16 1.216 . S
H18 C13 0.930 . S
H19 C14 0.930 . S
O20 Cu0 1.959 1_455 S
O20 C7 1.251 . S
H21 C4 0.930 . S
H22 C15 0.929 . S
Cu23 N24 1.999 1_545 S
Cu23 O29 1.974 . S
Cu23 N34 1.985 . S
Cu23 O43 1.959 1_554 S
N24 Cu23 1.999 1_565 S
N24 C26 1.263 . S
N24 C28 1.389 1_554 S
N25 C26 1.358 . S
N25 C27 1.400 1_554 S
C26 N24 1.263 . S
C26 N25 1.358 . S
C26 H32 0.930 . S
C27 N25 1.400 1_556 S
C27 C28 1.351 . S
C27 H44 0.930 . S
C28 N24 1.389 1_556 S
C28 C27 1.351 . S
C28 H33 0.930 . S
O29 Cu23 1.974 . S
O29 C39 1.282 . S
C30 O31 1.261 1_545 S
C30 O43 1.251 . S
O31 C30 1.261 1_565 S
H32 C26 0.930 . S
H33 C28 0.930 . S
N34 Cu23 1.985 . S
N34 C36 1.335 . S
N34 C37 1.390 . S
N35 C36 1.345 . S
N35 C38 1.336 . S
C36 N34 1.335 . S
C36 N35 1.345 . S
C36 H41 0.930 1_554 S
C37 N34 1.390 . S
C37 C38 1.346 . S
C37 H42 0.930 . S
C38 N35 1.336 . S
C38 C37 1.346 . S
C38 H45 0.929 . S
C39 O29 1.282 . S
C39 O40 1.216 1_545 S
O40 C39 1.216 1_565 S
H41 C36 0.930 1_556 S
H42 C37 0.930 . S
O43 Cu23 1.959 1_556 S
O43 C30 1.251 . S
H44 C27 0.930 . S
H45 C38 0.929 . S
Cu46 N47 1.999 1_554 S
Cu46 O52 1.974 . S
Cu46 N57 1.985 . S
Cu46 O66 1.959 1_455 S
N47 Cu46 1.999 1_556 S
N47 C49 1.263 . S
N47 C51 1.389 1_455 S
N48 C49 1.358 . S
N48 C50 1.400 1_455 S
C49 N47 1.263 . S
C49 N48 1.358 . S
C49 H55 0.930 . S
C50 N48 1.400 1_655 S
C50 C51 1.351 . S
C50 H67 0.930 . S
C51 N47 1.389 1_655 S
C51 C50 1.351 . S
C51 H56 0.930 . S
O52 Cu46 1.974 . S
O52 C62 1.282 . S
C53 O54 1.260 1_554 S
C53 O66 1.251 . S
O54 C53 1.260 1_556 S
H55 C49 0.930 . S
H56 C51 0.930 . S
N57 Cu46 1.985 . S
N57 C59 1.335 . S
N57 C60 1.390 . S
N58 C59 1.345 . S
N58 C61 1.336 . S
C59 N57 1.335 . S
C59 N58 1.345 . S
C59 H64 0.930 1_455 S
C60 N57 1.390 . S
C60 C61 1.346 . S
C60 H65 0.930 . S
C61 N58 1.336 . S
C61 C60 1.346 . S
C61 H68 0.929 . S
C62 O52 1.282 . S
C62 O63 1.216 1_554 S
O63 C62 1.216 1_556 S
H64 C59 0.930 1_655 S
H65 C60 0.930 . S
O66 Cu46 1.959 1_655 S
O66 C53 1.251 . S
H67 C50 0.930 . S
H68 C61 0.929 . S
Cu69 N70 1.999 . S
Cu69 O75 1.974 . S
Cu69 N80 1.985 . S
Cu69 O89 1.959 . S
N70 Cu69 1.999 . S
N70 C72 1.263 . S
N70 C74 1.389 . S
N71 C72 1.358 . S
N71 C73 1.400 . S
C72 N70 1.263 . S
C72 N71 1.358 . S
C72 H78 0.930 1_556 S
C73 N71 1.400 . S
C73 C74 1.351 . S
C73 H90 0.930 . S
C74 N70 1.389 . S
C74 C73 1.351 . S
C74 H79 0.930 . S
O75 Cu69 1.974 . S
O75 C85 1.282 1_556 S
C76 O77 1.261 . S
C76 O89 1.251 1_554 S
O77 C76 1.261 . S
H78 C72 0.930 1_554 S
H79 C74 0.930 . S
N80 Cu69 1.985 . S
N80 C82 1.335 . S
N80 C83 1.390 1_556 S
N81 C82 1.345 . S
N81 C84 1.336 1_556 S
C82 N80 1.335 . S
C82 N81 1.345 . S
C82 H87 0.930 . S
C83 N80 1.390 1_554 S
C83 C84 1.346 . S
C83 H88 0.930 . S
C84 N81 1.336 1_554 S
C84 C83 1.346 . S
C84 H91 0.929 . S
C85 O75 1.282 1_554 S
C85 O86 1.216 . S
O86 C85 1.216 . S
H87 C82 0.930 . S
H88 C83 0.930 . S
O89 Cu69 1.959 . S
O89 C76 1.251 1_556 S
H90 C73 0.930 . S
H91 C84 0.929 . S
Cu92 N93 1.999 . S
Cu92 O98 1.974 . S
Cu92 N103 1.985 . S
Cu92 O112 1.959 . S
N93 Cu92 1.999 . S
N93 C95 1.263 . S
N93 C97 1.389 . S
N94 C95 1.358 . S
N94 C96 1.400 . S
C95 N93 1.263 . S
C95 N94 1.358 . S
C95 H101 0.930 1_455 S
C96 N94 1.400 . S
C96 C97 1.351 . S
C96 H113 0.930 . S
C97 N93 1.389 . S
C97 C96 1.351 . S
C97 H102 0.930 . S
O98 Cu92 1.974 . S
O98 C108 1.282 1_455 S
C99 O100 1.261 . S
C99 O112 1.251 1_655 S
O100 C99 1.261 . S
H101 C95 0.930 1_655 S
H102 C97 0.930 . S
N103 Cu92 1.985 . S
N103 C105 1.335 . S
N103 C106 1.390 . S
N104 C105 1.345 . S
N104 C107 1.336 1_455 S
C105 N103 1.335 . S
C105 N104 1.345 . S
C105 H110 0.930 . S
C106 N103 1.390 . S
C106 C107 1.346 1_455 S
C106 H111 0.930 1_455 S
C107 N104 1.336 1_655 S
C107 C106 1.346 1_655 S
C107 H114 0.929 . S
C108 O98 1.282 1_655 S
C108 O109 1.216 . S
O109 C108 1.216 . S
H110 C105 0.930 . S
H111 C106 0.930 1_655 S
O112 Cu92 1.959 . S
O112 C99 1.251 1_455 S
H113 C96 0.930 . S
H114 C107 0.929 . S
Cu115 N116 1.999 . S
Cu115 O121 1.974 . S
Cu115 N126 1.985 . S
Cu115 O135 1.959 . S
N116 Cu115 1.999 . S
N116 C118 1.263 . S
N116 C120 1.389 . S
N117 C118 1.358 . S
N117 C119 1.400 . S
C118 N116 1.263 . S
C118 N117 1.358 . S
C118 H124 0.930 . S
C119 N117 1.400 . S
C119 C120 1.351 . S
C119 H136 0.930 . S
C120 N116 1.389 . S
C120 C119 1.351 . S
C120 H125 0.930 . S
O121 Cu115 1.974 . S
O121 C131 1.270 1_545 S
C122 O123 1.261 1_545 S
C122 O135 1.251 . S
O123 C122 1.261 1_565 S
H124 C118 0.930 . S
H125 C120 0.930 . S
N126 Cu115 1.985 . S
N126 C128 1.335 . S
N126 C129 1.390 . S
N127 C128 1.345 . S
N127 C130 1.336 . S
C128 N126 1.335 . S
C128 N127 1.345 . S
C128 H133 0.930 . S
C129 N126 1.390 . S
C129 C130 1.346 . S
C129 H134 0.930 . S
C130 N127 1.336 . S
C130 C129 1.346 . S
C130 H137 0.929 1_545 S
C131 O121 1.270 1_565 S
C131 O132 1.226 . S
O132 C131 1.226 . S
H133 C128 0.930 . S
H134 C129 0.930 . S
O135 Cu115 1.959 . S
O135 C122 1.251 . S
H136 C119 0.930 . S
H137 C130 0.929 1_565 S
N2 N94 1.559 . S
C16 C131 1.627 1_545 S
N104 N12 1.552 1_455 S
C122 C7 1.670 . S
N117 C39 1.608 . S
N58 C99 1.603 1_455 S
N127 C30 1.603 . S
C108 N48 1.608 1_655 S
C62 C85 1.627 . S
N81 N35 1.552 1_556 S
C53 C76 1.672 . S
N71 N25 1.559 1_556 S
