# Generated by pormake.
# Topology sxa, (6)-cn, num edge types: 1
# Building blocks:
#     Node 0, Type 0, BuildingBlock: MIFKUJ_clean_sbu_0, # of connection points: 6
#     Node 1, Type 0, BuildingBlock: MIFKUJ_clean_sbu_0, # of connection points: 6
#     Node 2, Type 0, BuildingBlock: MIFKUJ_clean_sbu_0, # of connection points: 6
#     Node 3, Type 0, BuildingBlock: MIFKUJ_clean_sbu_0, # of connection points: 6
#     Edge 4, Type (0, 0), BuildingBlock: EYOCIG_clean_linker_4, # of connection points: 2
#     Edge 5, Type (0, 0), BuildingBlock: EYOCIG_clean_linker_4, # of connection points: 2
#     Edge 6, Type (0, 0), BuildingBlock: EYOCIG_clean_linker_4, # of connection points: 2
#     Edge 7, Type (0, 0), BuildingBlock: EYOCIG_clean_linker_4, # of connection points: 2
#     Edge 8, Type (0, 0), BuildingBlock: EYOCIG_clean_linker_4, # of connection points: 2
#     Edge 9, Type (0, 0), BuildingBlock: EYOCIG_clean_linker_4, # of connection points: 2
#     Edge 10, Type (0, 0), BuildingBlock: EYOCIG_clean_linker_4, # of connection points: 2
#     Edge 11, Type (0, 0), BuildingBlock: EYOCIG_clean_linker_4, # of connection points: 2
#     Edge 12, Type (0, 0), BuildingBlock: EYOCIG_clean_linker_4, # of connection points: 2
#     Edge 13, Type (0, 0), BuildingBlock: EYOCIG_clean_linker_4, # of connection points: 2
#     Edge 14, Type (0, 0), BuildingBlock: EYOCIG_clean_linker_4, # of connection points: 2
#     Edge 15, Type (0, 0), BuildingBlock: EYOCIG_clean_linker_4, # of connection points: 2
# Relax obj value: 0.130
# Max RMSD: 0.263
# Mean RMSD: 0.263
data_MOF--net-sxa--node1-MIFKUJ_clean_sbu_0--edge1-EYOCIG_clean_linker_4
_symmetry_space_group_name_H-M    P1
_symmetry_Int_Tables_number       1
_symmetry_cell_setting            triclinic
loop_
_symmetry_equiv_pos_as_xyz
'x, y, z'
_cell_length_a     28.038972
_cell_length_b     20.852321
_cell_length_c     10.729442
_cell_angle_alpha  97.449213
_cell_angle_beta   90.04863
_cell_angle_gamma 90.099197
loop_
_atom_site_label
_atom_site_type_symbol
_atom_site_fract_x
_atom_site_fract_y
_atom_site_fract_z
_atom_type_partial_charge
Zn0 Zn 0.89056 0.75923 0.21105 0.0
Zn1 Zn 0.02214 0.76285 0.29216 0.0
C2 C 0.81229 0.7395 0.37668 0.0
O3 O 0.80389 0.69287 0.28498 0.0
C4 C 0.08645 0.77741 0.11133 0.0
O5 O 0.0847 0.836 0.17262 0.0
O6 O 0.83881 0.74822 0.08591 0.0
O7 O 0.92495 0.83809 0.1715 0.0
O8 O -0.00509 0.85197 0.26971 0.0
C9 C 0.81254 0.79767 0.09062 0.0
O10 O 0.82813 0.85333 0.14675 0.0
O11 O 0.8506 0.7728 0.37507 0.0
C12 C 0.11325 0.73251 0.40445 0.0
O13 O 0.10945 0.68055 0.32186 0.0
O14 O 0.07946 0.77391 0.41538 0.0
O15 O -0.01596 0.68196 0.31538 0.0
O16 O 0.92682 0.67738 0.17272 0.0
O17 O 0.05462 0.73692 0.13077 0.0
C18 C -0.03824 0.87155 0.203 0.0
C19 C -0.03901 0.6513 0.2241 0.0
Zn20 Zn 0.39075 0.25836 0.20927 0.0
Zn21 Zn 0.52189 0.26361 0.29295 0.0
C22 C 0.3118 0.2372 0.37205 0.0
O23 O 0.30411 0.19057 0.27985 0.0
C24 C 0.58609 0.2818 0.11411 0.0
O25 O 0.58331 0.33978 0.17762 0.0
O26 O 0.33973 0.24753 0.08238 0.0
O27 O 0.42505 0.3373 0.17007 0.0
O28 O 0.49384 0.35276 0.27326 0.0
C29 C 0.31347 0.297 0.08731 0.0
O30 O 0.32859 0.35227 0.14625 0.0
O31 O 0.34986 0.27112 0.37181 0.0
C32 C 0.61286 0.23305 0.4052 0.0
O33 O 0.60929 0.18168 0.32105 0.0
O34 O 0.57896 0.2743 0.41704 0.0
O35 O 0.48468 0.18156 0.31364 0.0
O36 O 0.42719 0.17673 0.17153 0.0
O37 O 0.55507 0.23988 0.13173 0.0
C38 C 0.46132 0.37145 0.20345 0.0
C39 C 0.46149 0.15083 0.22274 0.0
Zn40 Zn 0.89113 0.25229 0.91944 0.0
Zn41 Zn 0.02149 0.24736 0.83373 0.0
C42 C 0.81217 0.27332 0.75647 0.0
O43 O 0.80472 0.32006 0.8485 0.0
C44 C 0.08563 0.22842 1.01268 0.0
O45 O 0.08237 0.17033 0.94977 0.0
O46 O 0.8401 0.26299 1.04619 0.0
O47 O 0.92552 0.17357 0.95863 0.0
O48 O -0.00698 0.15796 0.85011 0.0
C49 C 0.81356 0.21362 1.04027 0.0
O50 O 0.82864 0.15831 0.98184 0.0
O51 O 0.85011 0.23931 0.75686 0.0
C52 C 0.11272 0.27802 0.72272 0.0
O53 O 0.10935 0.32926 0.80719 0.0
O54 O 0.07862 0.23691 0.71027 0.0
O55 O -0.01527 0.32978 0.81371 0.0
O56 O 0.92758 0.33415 0.9565 0.0
O57 O 0.05463 0.27033 0.99555 0.0
C58 C -0.03865 0.13935 0.92246 0.0
C59 C -0.03844 0.36041 0.90454 0.0
Zn60 Zn 0.39095 0.7516 0.91899 0.0
Zn61 Zn 0.52167 0.74723 0.83461 0.0
C62 C 0.31239 0.77331 0.75595 0.0
O63 O 0.30453 0.81915 0.8494 0.0
C64 C 0.58514 0.72802 1.01465 0.0
O65 O 0.58266 0.67049 0.94914 0.0
O66 O 0.33931 0.75995 1.04448 0.0
O67 O 0.42586 0.6729 0.95646 0.0
O68 O 0.49347 0.65736 0.84846 0.0
C69 C 0.3137 0.70958 1.03634 0.0
O70 O 0.32972 0.65535 0.97554 0.0
O71 O 0.3505 0.73961 0.7556 0.0
C72 C 0.61327 0.77975 0.72689 0.0
O73 O 0.60932 0.83061 0.81205 0.0
O74 O 0.57944 0.73825 0.71282 0.0
O75 O 0.48403 0.82888 0.8142 0.0
O76 O 0.42715 0.83363 0.9579 0.0
O77 O 0.55402 0.76983 0.99777 0.0
C78 C 0.46171 0.63868 0.92052 0.0
C79 C 0.46119 0.85963 0.90555 0.0
C80 C -0.01974 0.47653 1.02257 0.0
C81 C -0.02444 0.42435 0.95982 0.0
C82 C -0.0198 0.53584 0.10416 0.0
C83 C -0.02471 0.58775 0.16768 0.0
C84 C 0.46938 0.47778 0.09482 0.0
C85 C 0.46786 0.43004 0.14765 0.0
C86 C 0.46962 0.53174 1.02702 0.0
C87 C 0.46837 0.57964 0.97463 0.0
C88 C 0.4804 0.97573 1.02269 0.0
C89 C 0.47545 0.92351 0.96033 0.0
C90 C 0.48049 0.03515 0.10379 0.0
C91 C 0.47567 0.08719 0.16683 0.0
C92 C -0.03029 0.9783 0.0959 0.0
C93 C -0.03177 0.93028 0.14783 0.0
C94 C -0.03029 0.03246 1.02879 0.0
C95 C -0.03184 0.08039 0.9766 0.0
C96 C 0.23888 0.75168 0.59991 0.0
C97 C 0.27447 0.75746 0.66512 0.0
C98 C 0.1947 0.74744 0.53304 0.0
C99 C 0.15692 0.74299 0.47694 0.0
C100 C 0.19399 0.26363 0.59376 0.0
C101 C 0.15628 0.26789 0.64997 0.0
C102 C 0.23816 0.25941 0.52704 0.0
C103 C 0.27379 0.25343 0.4622 0.0
C104 C 0.73837 0.25128 0.60143 0.0
C105 C 0.77406 0.25715 0.66629 0.0
C106 C 0.69416 0.24724 0.53463 0.0
C107 C 0.65643 0.24313 0.47824 0.0
C108 C 0.73921 0.76262 0.53309 0.0
C109 C 0.77474 0.75641 0.46786 0.0
C110 C 0.695 0.76667 0.59958 0.0
C111 C 0.65713 0.77047 0.65514 0.0
C112 C 0.22147 0.72516 1.05156 0.0
C113 C 0.26367 0.71808 1.04462 0.0
C114 C 0.17263 0.73744 1.0558 0.0
C115 C 0.13218 0.75215 0.07869 0.0
C116 C 0.17276 0.26545 0.06667 0.0
C117 C 0.13206 0.25171 1.04424 0.0
C118 C 0.22157 0.27809 0.07092 0.0
C119 C 0.26363 0.28665 0.07837 0.0
C120 C 0.67285 0.24516 1.0565 0.0
C121 C 0.63225 0.25855 0.08038 0.0
C122 C 0.72166 0.23276 1.05259 0.0
C123 C 0.76373 0.22418 1.04706 0.0
C124 C 0.72059 0.77791 0.07914 0.0
C125 C 0.76262 0.7873 0.08459 0.0
C126 C 0.67181 0.76486 0.07462 0.0
C127 C 0.6312 0.75149 1.04991 0.0
loop_
_geom_bond_atom_site_label_1
_geom_bond_atom_site_label_2
_geom_bond_distance
_geom_bond_site_symmetry_2
_ccdc_geom_bond_type
Zn0 O6 1.969 . S
Zn0 O7 1.965 . S
Zn0 O11 2.024 . S
Zn0 O16 1.969 . S
Zn1 O8 1.969 . S
Zn1 O14 1.969 . S
Zn1 O15 1.965 . S
Zn1 O17 2.024 . S
C2 O3 1.229 . S
C2 O11 1.058 . S
O3 C2 1.229 . S
C4 O5 1.229 . S
C4 O17 1.058 . S
O5 C4 1.229 . S
O6 Zn0 1.969 . S
O6 C9 1.267 . S
O7 Zn0 1.965 . S
O7 C18 1.260 1_655 S
O8 Zn1 1.969 . S
O8 C18 1.258 . S
C9 O6 1.267 . S
C9 O10 1.228 . S
O10 C9 1.228 . S
O11 Zn0 2.024 . S
O11 C2 1.058 . S
C12 O13 1.228 . S
C12 O14 1.267 . S
O13 C12 1.228 . S
O14 Zn1 1.969 . S
O14 C12 1.267 . S
O15 Zn1 1.965 . S
O15 C19 1.260 1_455 S
O16 Zn0 1.969 . S
O16 C19 1.258 . S
O17 Zn1 2.024 . S
O17 C4 1.058 . S
C18 O7 1.260 1_455 S
C18 O8 1.258 . S
C19 O15 1.260 1_655 S
C19 O16 1.258 . S
Zn20 O26 1.969 . S
Zn20 O27 1.965 . S
Zn20 O31 2.024 . S
Zn20 O36 1.969 . S
Zn21 O28 1.969 . S
Zn21 O34 1.969 . S
Zn21 O35 1.965 . S
Zn21 O37 2.024 . S
C22 O23 1.229 . S
C22 O31 1.058 . S
O23 C22 1.229 . S
C24 O25 1.229 . S
C24 O37 1.058 . S
O25 C24 1.229 . S
O26 Zn20 1.969 . S
O26 C29 1.267 . S
O27 Zn20 1.965 . S
O27 C38 1.260 . S
O28 Zn21 1.969 . S
O28 C38 1.258 . S
C29 O26 1.267 . S
C29 O30 1.228 . S
O30 C29 1.228 . S
O31 Zn20 2.024 . S
O31 C22 1.058 . S
C32 O33 1.228 . S
C32 O34 1.267 . S
O33 C32 1.228 . S
O34 Zn21 1.969 . S
O34 C32 1.267 . S
O35 Zn21 1.965 . S
O35 C39 1.260 . S
O36 Zn20 1.969 . S
O36 C39 1.258 . S
O37 Zn21 2.024 . S
O37 C24 1.058 . S
C38 O27 1.260 . S
C38 O28 1.258 . S
C39 O35 1.260 . S
C39 O36 1.258 . S
Zn40 O46 1.969 . S
Zn40 O47 1.965 . S
Zn40 O51 2.024 . S
Zn40 O56 1.969 . S
Zn41 O48 1.969 . S
Zn41 O54 1.969 . S
Zn41 O55 1.965 . S
Zn41 O57 2.024 . S
C42 O43 1.229 . S
C42 O51 1.058 . S
O43 C42 1.229 . S
C44 O45 1.229 . S
C44 O57 1.058 . S
O45 C44 1.229 . S
O46 Zn40 1.969 . S
O46 C49 1.267 . S
O47 Zn40 1.965 . S
O47 C58 1.260 1_655 S
O48 Zn41 1.969 . S
O48 C58 1.258 . S
C49 O46 1.267 . S
C49 O50 1.228 . S
O50 C49 1.228 . S
O51 Zn40 2.024 . S
O51 C42 1.058 . S
C52 O53 1.228 . S
C52 O54 1.267 . S
O53 C52 1.228 . S
O54 Zn41 1.969 . S
O54 C52 1.267 . S
O55 Zn41 1.965 . S
O55 C59 1.260 1_455 S
O56 Zn40 1.969 . S
O56 C59 1.258 . S
O57 Zn41 2.024 . S
O57 C44 1.058 . S
C58 O47 1.260 1_455 S
C58 O48 1.258 . S
C59 O55 1.260 1_655 S
C59 O56 1.258 . S
Zn60 O66 1.969 . S
Zn60 O67 1.965 . S
Zn60 O71 2.024 . S
Zn60 O76 1.969 . S
Zn61 O68 1.969 . S
Zn61 O74 1.969 . S
Zn61 O75 1.965 . S
Zn61 O77 2.024 . S
C62 O63 1.229 . S
C62 O71 1.058 . S
O63 C62 1.229 . S
C64 O65 1.229 . S
C64 O77 1.058 . S
O65 C64 1.229 . S
O66 Zn60 1.969 . S
O66 C69 1.267 . S
O67 Zn60 1.965 . S
O67 C78 1.260 . S
O68 Zn61 1.969 . S
O68 C78 1.258 . S
C69 O66 1.267 . S
C69 O70 1.228 . S
O70 C69 1.228 . S
O71 Zn60 2.024 . S
O71 C62 1.058 . S
C72 O73 1.228 . S
C72 O74 1.267 . S
O73 C72 1.228 . S
O74 Zn61 1.969 . S
O74 C72 1.267 . S
O75 Zn61 1.965 . S
O75 C79 1.260 . S
O76 Zn60 1.969 . S
O76 C79 1.258 . S
O77 Zn61 2.024 . S
O77 C64 1.058 . S
C78 O67 1.260 . S
C78 O68 1.258 . S
C79 O75 1.260 . S
C79 O76 1.258 . S
C80 C81 1.170 . S
C80 C82 1.380 1_556 S
C81 C80 1.170 . S
C82 C80 1.380 1_554 S
C82 C83 1.170 . S
C83 C82 1.170 . S
C84 C85 1.170 . S
C84 C86 1.380 1_554 S
C85 C84 1.170 . S
C86 C84 1.380 1_556 S
C86 C87 1.170 . S
C87 C86 1.170 . S
C88 C89 1.170 . S
C88 C90 1.380 1_566 S
C89 C88 1.170 . S
C90 C88 1.380 1_544 S
C90 C91 1.170 . S
C91 C90 1.170 . S
C92 C93 1.170 1_455 S
C92 C94 1.380 1_564 S
C93 C92 1.170 1_655 S
C94 C92 1.380 1_546 S
C94 C95 1.170 1_455 S
C95 C94 1.170 1_655 S
C96 C97 1.170 . S
C96 C98 1.380 . S
C97 C96 1.170 . S
C98 C96 1.380 . S
C98 C99 1.170 . S
C99 C98 1.170 . S
C100 C101 1.170 . S
C100 C102 1.380 . S
C101 C100 1.170 . S
C102 C100 1.380 . S
C102 C103 1.170 . S
C103 C102 1.170 . S
C104 C105 1.170 . S
C104 C106 1.380 . S
C105 C104 1.170 . S
C106 C104 1.380 . S
C106 C107 1.170 . S
C107 C106 1.170 . S
C108 C109 1.170 . S
C108 C110 1.380 . S
C109 C108 1.170 . S
C110 C108 1.380 . S
C110 C111 1.170 . S
C111 C110 1.170 . S
C112 C113 1.170 . S
C112 C114 1.380 1_554 S
C113 C112 1.170 . S
C114 C112 1.380 1_556 S
C114 C115 1.170 . S
C115 C114 1.170 . S
C116 C117 1.170 1_556 S
C116 C118 1.380 . S
C117 C116 1.170 1_554 S
C118 C116 1.380 . S
C118 C119 1.170 . S
C119 C118 1.170 . S
C120 C121 1.170 1_554 S
C120 C122 1.380 . S
C121 C120 1.170 1_556 S
C122 C120 1.380 . S
C122 C123 1.170 . S
C123 C122 1.170 . S
C124 C125 1.170 . S
C124 C126 1.380 1_556 S
C125 C124 1.170 . S
C126 C124 1.380 1_554 S
C126 C127 1.170 . S
C127 C126 1.170 . S
C81 C59 1.897 1_455 S
C83 C19 1.879 1_455 S
C85 C38 2.112 . S
C87 C78 2.143 . S
C89 C79 1.897 . S
C91 C39 1.880 . S
C93 C18 2.111 1_655 S
C95 C58 2.117 1_655 S
C97 C62 1.427 . S
C99 C12 1.506 . S
C101 C52 1.508 . S
C103 C22 1.418 . S
C105 C42 1.422 . S
C107 C32 1.508 . S
C109 C2 1.453 . S
C111 C72 1.472 . S
C113 C69 1.032 1_554 S
C115 C4 0.998 1_556 S
C117 C44 0.913 1_554 S
C119 C29 1.050 1_556 S
C121 C24 0.934 1_556 S
C123 C49 1.027 1_554 S
C125 C9 1.011 1_556 S
C127 C64 0.954 1_554 S
