# Generated by pormake.
# Topology wjh, (4)-cn, num edge types: 1
# Building blocks:
#     Node 0, Type 0, BuildingBlock: AZAVOO_clean_sbu_0, # of connection points: 4
#     Node 1, Type 0, BuildingBlock: AZAVOO_clean_sbu_0, # of connection points: 4
#     Node 2, Type 0, BuildingBlock: AZAVOO_clean_sbu_0, # of connection points: 4
#     Node 3, Type 0, BuildingBlock: AZAVOO_clean_sbu_0, # of connection points: 4
#     Node 4, Type 0, BuildingBlock: AZAVOO_clean_sbu_0, # of connection points: 4
#     Node 5, Type 0, BuildingBlock: AZAVOO_clean_sbu_0, # of connection points: 4
#     Node 6, Type 0, BuildingBlock: AZAVOO_clean_sbu_0, # of connection points: 4
#     Node 7, Type 0, BuildingBlock: AZAVOO_clean_sbu_0, # of connection points: 4
#     Node 8, Type 0, BuildingBlock: AZAVOO_clean_sbu_0, # of connection points: 4
#     Node 9, Type 0, BuildingBlock: AZAVOO_clean_sbu_0, # of connection points: 4
#     Node 10, Type 0, BuildingBlock: AZAVOO_clean_sbu_0, # of connection points: 4
#     Node 11, Type 0, BuildingBlock: AZAVOO_clean_sbu_0, # of connection points: 4
#     Edge 12, Type (0, 0), None
#     Edge 13, Type (0, 0), None
#     Edge 14, Type (0, 0), None
#     Edge 15, Type (0, 0), None
#     Edge 16, Type (0, 0), None
#     Edge 17, Type (0, 0), None
#     Edge 18, Type (0, 0), None
#     Edge 19, Type (0, 0), None
#     Edge 20, Type (0, 0), None
#     Edge 21, Type (0, 0), None
#     Edge 22, Type (0, 0), None
#     Edge 23, Type (0, 0), None
#     Edge 24, Type (0, 0), None
#     Edge 25, Type (0, 0), None
#     Edge 26, Type (0, 0), None
#     Edge 27, Type (0, 0), None
#     Edge 28, Type (0, 0), None
#     Edge 29, Type (0, 0), None
#     Edge 30, Type (0, 0), None
#     Edge 31, Type (0, 0), None
#     Edge 32, Type (0, 0), None
#     Edge 33, Type (0, 0), None
#     Edge 34, Type (0, 0), None
#     Edge 35, Type (0, 0), None
# Relax obj value: 0.184
# Max RMSD: 0.158
# Mean RMSD: 0.158
data_MOF--net-wjh--node1-AZAVOO_clean_sbu_0--edge1-none
_symmetry_space_group_name_H-M    P1
_symmetry_Int_Tables_number       1
_symmetry_cell_setting            triclinic
loop_
_symmetry_equiv_pos_as_xyz
'x, y, z'
_cell_length_a     28.295722
_cell_length_b     28.296348
_cell_length_c     10.732582
_cell_angle_alpha  89.995112
_cell_angle_beta   90.008934
_cell_angle_gamma 120.00192
loop_
_atom_site_label
_atom_site_type_symbol
_atom_site_fract_x
_atom_site_fract_y
_atom_site_fract_z
_atom_type_partial_charge
Mg0 Mg 0.52091 0.14911 0.05444 0.0
O1 O 0.56614 0.14254 0.22512 0.0
O2 O 0.58543 0.07616 0.19197 0.0
Mg3 Mg 0.54761 0.03631 0.00523 0.0
C4 C 0.58759 0.11431 0.25911 0.0
C5 C 0.51664 0.25817 0.14512 0.0
O6 O 0.5425 0.31008 0.17369 0.0
O7 O 0.59544 0.18445 0.92781 0.0
O8 O 0.60489 0.11203 0.89027 0.0
O9 O 0.44149 0.08943 0.14377 0.0
O10 O 0.48782 0.06517 0.01918 0.0
C11 C 0.61863 0.16182 0.8717 0.0
C12 C 0.44641 0.05116 0.09038 0.0
O13 O 0.54465 0.23599 0.11562 0.0
Mg14 Mg 0.38159 0.516 0.22122 0.0
O15 O 0.43337 0.56122 0.39191 0.0
O16 O 0.51906 0.58055 0.35877 0.0
Mg17 Mg 0.5211 0.54273 0.17206 0.0
C18 C 0.48306 0.5827 0.4259 0.0
C19 C 0.26824 0.51173 0.31186 0.0
O20 O 0.24219 0.53759 0.34041 0.0
O21 O 0.42077 0.59054 0.09459 0.0
O22 O 0.50265 0.6 0.05706 0.0
O23 O 0.36185 0.43658 0.31054 0.0
O24 O 0.43245 0.48293 0.18599 0.0
C25 C 0.46659 0.61374 0.03848 0.0
C26 C 0.40505 0.44151 0.25718 0.0
O27 O 0.31842 0.53972 0.28236 0.0
Mg28 Mg 0.87537 0.37678 0.38798 0.0
O29 O 0.88193 0.42853 0.55871 0.0
O30 O 0.94829 0.51422 0.52557 0.0
Mg31 Mg 0.98817 0.51628 0.33888 0.0
C32 C 0.91015 0.47822 0.5927 0.0
C33 C 0.76631 0.26341 0.47848 0.0
O34 O 0.71439 0.23733 0.50701 0.0
O35 O 0.84003 0.41599 0.2614 0.0
O36 O 0.91245 0.49786 0.22387 0.0
O37 O 0.93504 0.35701 0.47727 0.0
O38 O 0.95931 0.42764 0.35277 0.0
C39 C 0.86265 0.46181 0.20529 0.0
C40 C 0.97331 0.40021 0.42393 0.0
O41 O 0.78848 0.3136 0.44908 0.0
Mg42 Mg 0.50847 0.87052 0.5545 0.0
O43 O 0.46325 0.87709 0.72514 0.0
O44 O 0.44394 0.94346 0.69194 0.0
Mg45 Mg 0.48178 0.98332 0.50523 0.0
C46 C 0.44178 0.90531 0.7591 0.0
C47 C 0.51273 0.76145 0.64517 0.0
O48 O 0.48687 0.70954 0.67375 0.0
O49 O 0.43394 0.83518 0.42782 0.0
O50 O 0.4245 0.9076 0.39024 0.0
O51 O 0.58789 0.9302 0.64386 0.0
O52 O 0.54157 0.95446 0.51923 0.0
C53 C 0.41075 0.8578 0.37168 0.0
C54 C 0.58298 0.96847 0.59046 0.0
O55 O 0.48473 0.78363 0.61568 0.0
Mg56 Mg 0.64775 0.50361 0.72124 0.0
O57 O 0.59595 0.45836 0.89187 0.0
O58 O 0.51027 0.43905 0.85866 0.0
Mg59 Mg 0.50825 0.47689 0.67192 0.0
C60 C 0.54626 0.4369 0.92582 0.0
C61 C 0.76109 0.5079 0.81193 0.0
O62 O 0.78716 0.48206 0.84055 0.0
O63 O 0.60859 0.42909 0.59456 0.0
O64 O 0.52672 0.41962 0.55696 0.0
O65 O 0.66748 0.58301 0.81063 0.0
O66 O 0.5969 0.53669 0.68596 0.0
C67 C 0.56278 0.40589 0.53841 0.0
C68 C 0.62429 0.57809 0.75722 0.0
O69 O 0.71091 0.47989 0.78246 0.0
Mg70 Mg 0.15396 0.64288 0.8879 0.0
O71 O 0.1474 0.59108 0.05854 0.0
O72 O 0.081 0.5054 0.02535 0.0
Mg73 Mg 0.04115 0.5034 0.83862 0.0
C74 C 0.11916 0.54139 0.09251 0.0
C75 C 0.26304 0.75622 0.97845 0.0
O76 O 0.31496 0.78228 0.007 0.0
O77 O 0.18929 0.60371 0.76123 0.0
O78 O 0.11687 0.52184 0.72365 0.0
O79 O 0.0943 0.66263 0.97729 0.0
O80 O 0.07001 0.59204 0.85264 0.0
C81 C 0.16667 0.55789 0.7051 0.0
C82 C 0.05602 0.61944 0.9239 0.0
O83 O 0.24085 0.70602 0.94905 0.0
Mg84 Mg 0.89679 0.57045 0.94382 0.0
O85 O 0.89091 0.5199 0.76348 0.0
O86 O 0.93628 0.47466 0.79598 0.0
Mg87 Mg 0.94693 0.4757 0.00327 0.0
C88 C 0.91075 0.49046 0.72512 0.0
C89 C 0.79012 0.56781 0.8116 0.0
O90 O 0.76663 0.59334 0.7627 0.0
O91 O 0.83027 0.5043 0.07136 0.0
O92 O 0.85824 0.45315 -0.00645 0.0
O93 O 0.98002 0.63145 0.87862 0.0
O94 O 0.96528 0.56283 0.00263 0.0
C95 C 0.83885 0.46484 0.08672 0.0
C96 C 0.99882 0.60443 0.9375 0.0
O97 O 0.83829 0.59594 0.85549 0.0
Mg98 Mg 0.3362 0.89191 0.11026 0.0
O99 O 0.38087 0.88606 0.9299 0.0
O100 O 0.47149 0.93146 0.96236 0.0
Mg101 Mg 0.48111 0.9421 0.16964 0.0
C102 C 0.43015 0.90592 0.89151 0.0
C103 C 0.23215 0.78524 0.9781 0.0
O104 O 0.18313 0.76176 0.92921 0.0
O105 O 0.33587 0.8254 0.23776 0.0
O106 O 0.415 0.8534 0.15993 0.0
O107 O 0.3584 0.97514 0.04512 0.0
O108 O 0.41231 0.96041 0.16906 0.0
C109 C 0.38392 0.834 0.25312 0.0
C110 C 0.40423 0.99395 0.10398 0.0
O111 O 0.25221 0.83341 0.02197 0.0
Mg112 Mg 0.45411 0.33132 0.27705 0.0
O113 O 0.50461 0.37599 0.09665 0.0
O114 O 0.54981 0.4666 0.12906 0.0
Mg115 Mg 0.54882 0.47624 0.33635 0.0
C116 C 0.53402 0.42526 0.05823 0.0
C117 C 0.45673 0.22727 0.14487 0.0
O118 O 0.43118 0.17826 0.09601 0.0
O119 O 0.52032 0.33101 0.4045 0.0
O120 O 0.57143 0.41015 0.32666 0.0
O121 O 0.39306 0.3535 0.21194 0.0
O122 O 0.46171 0.40742 0.33582 0.0
C123 C 0.55976 0.37907 0.41985 0.0
C124 C 0.42008 0.39933 0.27077 0.0
O125 O 0.42862 0.24733 0.18879 0.0
Mg126 Mg 0.13256 0.44923 0.44379 0.0
O127 O 0.13841 0.49973 0.26336 0.0
O128 O 0.09301 0.54495 0.29574 0.0
Mg129 Mg 0.08239 0.54397 0.50303 0.0
C130 C 0.11854 0.52914 0.22493 0.0
C131 C 0.23921 0.45181 0.31166 0.0
O132 O 0.26268 0.42625 0.26285 0.0
O133 O 0.19909 0.51543 0.57122 0.0
O134 O 0.17108 0.56655 0.49335 0.0
O135 O 0.04931 0.38819 0.37871 0.0
O136 O 0.06407 0.45686 0.50254 0.0
C137 C 0.19048 0.55487 0.58655 0.0
C138 C 0.03052 0.41522 0.43752 0.0
O139 O 0.19105 0.42371 0.35558 0.0
Mg140 Mg 0.69319 0.12772 0.61034 0.0
O141 O 0.64851 0.13356 0.42995 0.0
O142 O 0.55789 0.08815 0.46236 0.0
Mg143 Mg 0.54827 0.07752 0.66964 0.0
C144 C 0.59923 0.1137 0.39153 0.0
C145 C 0.79721 0.2344 0.47817 0.0
O146 O 0.84622 0.25789 0.42928 0.0
O147 O 0.69351 0.19423 0.73781 0.0
O148 O 0.61438 0.16622 0.65994 0.0
O149 O 0.67099 0.04449 0.54522 0.0
O150 O 0.61708 0.05921 0.66912 0.0
C151 C 0.64546 0.18563 0.75314 0.0
C152 C 0.62516 0.02568 0.60406 0.0
O153 O 0.77717 0.18623 0.52206 0.0
Mg154 Mg 0.57525 0.68829 0.77711 0.0
O155 O 0.52472 0.64362 0.59672 0.0
O156 O 0.47951 0.553 0.62916 0.0
Mg157 Mg 0.48053 0.54338 0.83645 0.0
C158 C 0.49531 0.59434 0.55832 0.0
C159 C 0.57264 0.79234 0.64492 0.0
O160 O 0.59819 0.84136 0.59605 0.0
O161 O 0.50907 0.68862 0.90457 0.0
O162 O 0.45794 0.60948 0.82672 0.0
O163 O 0.63628 0.66609 0.71198 0.0
O164 O 0.56765 0.61218 0.8359 0.0
C165 C 0.46962 0.64057 0.91991 0.0
C166 C 0.60926 0.62027 0.77082 0.0
O167 O 0.60075 0.77228 0.68884 0.0
loop_
_geom_bond_atom_site_label_1
_geom_bond_atom_site_label_2
_geom_bond_distance
_geom_bond_site_symmetry_2
_ccdc_geom_bond_type
Mg0 O1 2.028 . S
Mg0 O7 1.986 1_554 S
Mg0 O9 2.114 . S
Mg0 O10 2.251 . S
Mg0 O13 2.010 . S
O1 Mg0 2.028 . S
O1 C4 1.250 . S
O2 Mg3 2.028 . S
O2 C4 1.248 . S
Mg3 O2 2.028 . S
Mg3 O8 2.032 1_554 S
Mg3 O10 2.079 . S
C4 O1 1.250 . S
C4 O2 1.248 . S
C5 O6 1.264 . S
C5 O13 1.249 . S
O6 C5 1.264 . S
O7 Mg0 1.986 1_556 S
O7 C11 1.246 . S
O8 Mg3 2.032 1_556 S
O8 C11 1.259 . S
O9 Mg0 2.114 . S
O9 C12 1.252 . S
O10 Mg0 2.251 . S
O10 Mg3 2.079 . S
O10 C12 1.273 . S
C11 O7 1.246 . S
C11 O8 1.259 . S
C12 O9 1.252 . S
C12 O10 1.273 . S
O13 Mg0 2.010 . S
O13 C5 1.249 . S
Mg14 O15 2.028 . S
Mg14 O21 1.986 . S
Mg14 O23 2.114 . S
Mg14 O24 2.251 . S
Mg14 O27 2.010 . S
O15 Mg14 2.028 . S
O15 C18 1.250 . S
O16 Mg17 2.028 . S
O16 C18 1.248 . S
Mg17 O16 2.028 . S
Mg17 O22 2.032 . S
Mg17 O24 2.079 . S
C18 O15 1.250 . S
C18 O16 1.248 . S
C19 O20 1.264 . S
C19 O27 1.249 . S
O20 C19 1.264 . S
O21 Mg14 1.986 . S
O21 C25 1.246 . S
O22 Mg17 2.032 . S
O22 C25 1.259 . S
O23 Mg14 2.114 . S
O23 C26 1.252 . S
O24 Mg14 2.251 . S
O24 Mg17 2.079 . S
O24 C26 1.273 . S
C25 O21 1.246 . S
C25 O22 1.259 . S
C26 O23 1.252 . S
C26 O24 1.273 . S
O27 Mg14 2.010 . S
O27 C19 1.249 . S
Mg28 O29 2.028 . S
Mg28 O35 1.986 . S
Mg28 O37 2.114 . S
Mg28 O38 2.251 . S
Mg28 O41 2.010 . S
O29 Mg28 2.028 . S
O29 C32 1.250 . S
O30 Mg31 2.028 . S
O30 C32 1.248 . S
Mg31 O30 2.028 . S
Mg31 O36 2.032 . S
Mg31 O38 2.079 . S
C32 O29 1.250 . S
C32 O30 1.248 . S
C33 O34 1.264 . S
C33 O41 1.249 . S
O34 C33 1.264 . S
O35 Mg28 1.986 . S
O35 C39 1.246 . S
O36 Mg31 2.032 . S
O36 C39 1.259 . S
O37 Mg28 2.114 . S
O37 C40 1.252 . S
O38 Mg28 2.251 . S
O38 Mg31 2.079 . S
O38 C40 1.273 . S
C39 O35 1.246 . S
C39 O36 1.259 . S
C40 O37 1.252 . S
C40 O38 1.273 . S
O41 Mg28 2.010 . S
O41 C33 1.249 . S
Mg42 O43 2.028 . S
Mg42 O49 1.986 . S
Mg42 O51 2.114 . S
Mg42 O52 2.251 . S
Mg42 O55 2.010 . S
O43 Mg42 2.028 . S
O43 C46 1.250 . S
O44 Mg45 2.028 . S
O44 C46 1.248 . S
Mg45 O44 2.028 . S
Mg45 O50 2.032 . S
Mg45 O52 2.079 . S
C46 O43 1.250 . S
C46 O44 1.248 . S
C47 O48 1.264 . S
C47 O55 1.249 . S
O48 C47 1.264 . S
O49 Mg42 1.986 . S
O49 C53 1.246 . S
O50 Mg45 2.032 . S
O50 C53 1.259 . S
O51 Mg42 2.114 . S
O51 C54 1.252 . S
O52 Mg42 2.251 . S
O52 Mg45 2.079 . S
O52 C54 1.273 . S
C53 O49 1.246 . S
C53 O50 1.259 . S
C54 O51 1.252 . S
C54 O52 1.273 . S
O55 Mg42 2.010 . S
O55 C47 1.249 . S
Mg56 O57 2.028 . S
Mg56 O63 1.986 . S
Mg56 O65 2.114 . S
Mg56 O66 2.251 . S
Mg56 O69 2.010 . S
O57 Mg56 2.028 . S
O57 C60 1.250 . S
O58 Mg59 2.028 . S
O58 C60 1.248 . S
Mg59 O58 2.028 . S
Mg59 O64 2.032 . S
Mg59 O66 2.079 . S
C60 O57 1.250 . S
C60 O58 1.248 . S
C61 O62 1.264 . S
C61 O69 1.249 . S
O62 C61 1.264 . S
O63 Mg56 1.986 . S
O63 C67 1.246 . S
O64 Mg59 2.032 . S
O64 C67 1.259 . S
O65 Mg56 2.114 . S
O65 C68 1.252 . S
O66 Mg56 2.251 . S
O66 Mg59 2.079 . S
O66 C68 1.273 . S
C67 O63 1.246 . S
C67 O64 1.259 . S
C68 O65 1.252 . S
C68 O66 1.273 . S
O69 Mg56 2.010 . S
O69 C61 1.249 . S
Mg70 O71 2.028 1_556 S
Mg70 O77 1.986 . S
Mg70 O79 2.114 . S
Mg70 O80 2.251 . S
Mg70 O83 2.010 . S
O71 Mg70 2.028 1_554 S
O71 C74 1.250 . S
O72 Mg73 2.028 1_554 S
O72 C74 1.248 . S
Mg73 O72 2.028 1_556 S
Mg73 O78 2.032 . S
Mg73 O80 2.079 . S
C74 O71 1.250 . S
C74 O72 1.248 . S
C75 O76 1.264 . S
C75 O83 1.249 . S
O76 C75 1.264 . S
O77 Mg70 1.986 . S
O77 C81 1.246 . S
O78 Mg73 2.032 . S
O78 C81 1.259 . S
O79 Mg70 2.114 . S
O79 C82 1.252 . S
O80 Mg70 2.251 . S
O80 Mg73 2.079 . S
O80 C82 1.273 . S
C81 O77 1.246 . S
C81 O78 1.259 . S
C82 O79 1.252 . S
C82 O80 1.273 . S
O83 Mg70 2.010 . S
O83 C75 1.249 . S
Mg84 O85 2.028 . S
Mg84 O91 1.986 1_556 S
Mg84 O93 2.114 . S
Mg84 O94 2.251 . S
Mg84 O97 2.010 . S
O85 Mg84 2.028 . S
O85 C88 1.250 . S
O86 Mg87 2.028 . S
O86 C88 1.248 . S
Mg87 O86 2.028 . S
Mg87 O92 2.032 1_556 S
Mg87 O94 2.079 . S
C88 O85 1.250 . S
C88 O86 1.248 . S
C89 O90 1.264 . S
C89 O97 1.249 . S
O90 C89 1.264 . S
O91 Mg84 1.986 1_554 S
O91 C95 1.246 . S
O92 Mg87 2.032 1_554 S
O92 C95 1.259 . S
O93 Mg84 2.114 . S
O93 C96 1.252 . S
O94 Mg84 2.251 . S
O94 Mg87 2.079 . S
O94 C96 1.273 . S
C95 O91 1.246 . S
C95 O92 1.259 . S
C96 O93 1.252 . S
C96 O94 1.273 . S
O97 Mg84 2.010 . S
O97 C89 1.249 . S
Mg98 O99 2.028 1_554 S
Mg98 O105 1.986 . S
Mg98 O107 2.114 . S
Mg98 O108 2.251 . S
Mg98 O111 2.010 . S
O99 Mg98 2.028 1_556 S
O99 C102 1.250 . S
O100 Mg101 2.028 1_556 S
O100 C102 1.248 . S
Mg101 O100 2.028 1_554 S
Mg101 O106 2.032 . S
Mg101 O108 2.079 . S
C102 O99 1.250 . S
C102 O100 1.248 . S
C103 O104 1.264 . S
C103 O111 1.249 . S
O104 C103 1.264 . S
O105 Mg98 1.986 . S
O105 C109 1.246 . S
O106 Mg101 2.032 . S
O106 C109 1.259 . S
O107 Mg98 2.114 . S
O107 C110 1.252 . S
O108 Mg98 2.251 . S
O108 Mg101 2.079 . S
O108 C110 1.273 . S
C109 O105 1.246 . S
C109 O106 1.259 . S
C110 O107 1.252 . S
C110 O108 1.273 . S
O111 Mg98 2.010 . S
O111 C103 1.249 . S
Mg112 O113 2.028 . S
Mg112 O119 1.986 . S
Mg112 O121 2.114 . S
Mg112 O122 2.251 . S
Mg112 O125 2.010 . S
O113 Mg112 2.028 . S
O113 C116 1.250 . S
O114 Mg115 2.028 . S
O114 C116 1.248 . S
Mg115 O114 2.028 . S
Mg115 O120 2.032 . S
Mg115 O122 2.079 . S
C116 O113 1.250 . S
C116 O114 1.248 . S
C117 O118 1.264 . S
C117 O125 1.249 . S
O118 C117 1.264 . S
O119 Mg112 1.986 . S
O119 C123 1.246 . S
O120 Mg115 2.032 . S
O120 C123 1.259 . S
O121 Mg112 2.114 . S
O121 C124 1.252 . S
O122 Mg112 2.251 . S
O122 Mg115 2.079 . S
O122 C124 1.273 . S
C123 O119 1.246 . S
C123 O120 1.259 . S
C124 O121 1.252 . S
C124 O122 1.273 . S
O125 Mg112 2.010 . S
O125 C117 1.249 . S
Mg126 O127 2.028 . S
Mg126 O133 1.986 . S
Mg126 O135 2.114 . S
Mg126 O136 2.251 . S
Mg126 O139 2.010 . S
O127 Mg126 2.028 . S
O127 C130 1.250 . S
O128 Mg129 2.028 . S
O128 C130 1.248 . S
Mg129 O128 2.028 . S
Mg129 O134 2.032 . S
Mg129 O136 2.079 . S
C130 O127 1.250 . S
C130 O128 1.248 . S
C131 O132 1.264 . S
C131 O139 1.249 . S
O132 C131 1.264 . S
O133 Mg126 1.986 . S
O133 C137 1.246 . S
O134 Mg129 2.032 . S
O134 C137 1.259 . S
O135 Mg126 2.114 . S
O135 C138 1.252 . S
O136 Mg126 2.251 . S
O136 Mg129 2.079 . S
O136 C138 1.273 . S
C137 O133 1.246 . S
C137 O134 1.259 . S
C138 O135 1.252 . S
C138 O136 1.273 . S
O139 Mg126 2.010 . S
O139 C131 1.249 . S
Mg140 O141 2.028 . S
Mg140 O147 1.986 . S
Mg140 O149 2.114 . S
Mg140 O150 2.251 . S
Mg140 O153 2.010 . S
O141 Mg140 2.028 . S
O141 C144 1.250 . S
O142 Mg143 2.028 . S
O142 C144 1.248 . S
Mg143 O142 2.028 . S
Mg143 O148 2.032 . S
Mg143 O150 2.079 . S
C144 O141 1.250 . S
C144 O142 1.248 . S
C145 O146 1.264 . S
C145 O153 1.249 . S
O146 C145 1.264 . S
O147 Mg140 1.986 . S
O147 C151 1.246 . S
O148 Mg143 2.032 . S
O148 C151 1.259 . S
O149 Mg140 2.114 . S
O149 C152 1.252 . S
O150 Mg140 2.251 . S
O150 Mg143 2.079 . S
O150 C152 1.273 . S
C151 O147 1.246 . S
C151 O148 1.259 . S
C152 O149 1.252 . S
C152 O150 1.273 . S
O153 Mg140 2.010 . S
O153 C145 1.249 . S
Mg154 O155 2.028 . S
Mg154 O161 1.986 . S
Mg154 O163 2.114 . S
Mg154 O164 2.251 . S
Mg154 O167 2.010 . S
O155 Mg154 2.028 . S
O155 C158 1.250 . S
O156 Mg157 2.028 . S
O156 C158 1.248 . S
Mg157 O156 2.028 . S
Mg157 O162 2.032 . S
Mg157 O164 2.079 . S
C158 O155 1.250 . S
C158 O156 1.248 . S
C159 O160 1.264 . S
C159 O167 1.249 . S
O160 C159 1.264 . S
O161 Mg154 1.986 . S
O161 C165 1.246 . S
O162 Mg157 2.032 . S
O162 C165 1.259 . S
O163 Mg154 2.114 . S
O163 C166 1.252 . S
O164 Mg154 2.251 . S
O164 Mg157 2.079 . S
O164 C166 1.273 . S
C165 O161 1.246 . S
C165 O162 1.259 . S
C166 O163 1.252 . S
C166 O164 1.273 . S
O167 Mg154 2.010 . S
O167 C159 1.249 . S
C4 C144 1.706 . S
C18 C158 1.706 . S
C88 C32 1.706 . S
C46 C102 1.706 . S
C116 C60 1.706 1_554 S
C130 C74 1.706 . S
C117 C5 1.431 . S
C19 C131 1.431 . S
C145 C33 1.431 . S
C47 C159 1.430 . S
C61 C89 1.430 . S
C75 C103 1.431 1_556 S
C151 C11 1.166 . S
C165 C25 1.166 1_556 S
C95 C39 1.166 . S
C53 C109 1.166 . S
C67 C123 1.166 . S
C137 C81 1.166 . S
C12 C110 1.321 1_545 S
C124 C26 1.321 . S
C138 C40 1.321 1_455 S
C54 C152 1.321 1_565 S
C68 C166 1.321 . S
C82 C96 1.321 1_455 S
