# Generated by pormake.
# Topology pcu, (6)-cn, num edge types: 1
# Building blocks:
#     Node 0, Type 0, BuildingBlock: UKALOJ_clean_sbu_0, # of connection points: 6
#     Edge 1, Type (0, 0), None
#     Edge 2, Type (0, 0), None
#     Edge 3, Type (0, 0), None
# Relax obj value: 0.009
# Max RMSD: 0.054
# Mean RMSD: 0.054
data_MOF--net-pcu--node1-UKALOJ_clean_sbu_0--edge1-none
_symmetry_space_group_name_H-M    P1
_symmetry_Int_Tables_number       1
_symmetry_cell_setting            triclinic
loop_
_symmetry_equiv_pos_as_xyz
'x, y, z'
_cell_length_a     6.8168239
_cell_length_b     6.9517374
_cell_length_c     12.019503
_cell_angle_alpha  95.411614
_cell_angle_beta   85.061078
_cell_angle_gamma 89.913612
loop_
_atom_site_label
_atom_site_type_symbol
_atom_site_fract_x
_atom_site_fract_y
_atom_site_fract_z
_atom_type_partial_charge
Zn0 Zn 0.94207 0.9637 0.1153 0.0
O1 O 0.94008 0.6587 0.1132 0.0
C2 C 0.3601 0.94818 1.02122 0.0
Zn3 Zn 0.9717 0.9318 0.92745 0.0
C4 C 0.95639 0.55226 1.0211 0.0
O5 O 0.97197 0.62749 0.92858 0.0
C6 C 0.95738 0.34324 1.02166 0.0
O7 O 0.66073 0.92991 0.92936 0.0
O8 O 0.63191 0.96396 0.11398 0.0
N9 N 0.00064 0.902 0.75564 0.0
C10 C 0.91124 -0.00928 0.67818 0.0
C11 C 0.11815 0.7877 0.59009 0.0
N12 N 0.12882 0.77618 0.70064 0.0
N13 N -0.01708 0.92118 0.57364 0.0
C14 C 0.00253 0.90478 0.36457 0.0
C15 C 0.79562 0.10781 0.45266 0.0
N16 N 0.91313 -0.00649 0.28711 0.0
N17 N 0.78496 0.11932 0.34211 0.0
N18 N 0.93084 -0.02568 0.46912 0.0
H19 H 0.19399 0.71844 0.24652 0.0
H20 H 0.10834 0.6166 0.37365 0.0
H21 H 0.29511 0.7991 0.37583 0.0
C22 C 0.15871 0.75116 0.33766 0.0
C23 C 0.75506 0.14434 0.70509 0.0
H24 H 0.61865 0.0964 0.66692 0.0
H25 H 0.80542 0.2789 0.66911 0.0
H26 H 0.71978 0.17706 0.79623 0.0
O27 O 0.9737 0.23681 0.92956 0.0
O28 O 0.94181 0.26801 0.11418 0.0
C29 C 0.55368 0.94733 1.02153 0.0
O30 O 0.25305 0.9656 0.1134 0.0
O31 O 0.28186 0.93154 0.92878 0.0
loop_
_geom_bond_atom_site_label_1
_geom_bond_atom_site_label_2
_geom_bond_distance
_geom_bond_site_symmetry_2
_ccdc_geom_bond_type
Zn0 O1 2.055 . S
Zn0 O8 2.046 . S
Zn0 N16 2.036 1_565 S
Zn0 O28 2.053 1_565 S
Zn0 O30 2.066 1_665 S
O1 Zn0 2.055 . S
O1 C4 1.259 1_554 S
C2 O30 1.256 1_565 S
C2 O31 1.244 1_554 S
Zn3 O5 2.046 . S
Zn3 O7 2.055 . S
Zn3 N9 2.036 1_655 S
Zn3 O27 2.066 1_665 S
Zn3 O31 2.053 1_655 S
C4 O1 1.259 1_556 S
C4 O5 1.254 . S
O5 Zn3 2.046 . S
O5 C4 1.254 . S
C6 O27 1.256 1_655 S
C6 O28 1.244 1_556 S
O7 Zn3 2.055 . S
O7 C29 1.259 1_556 S
O8 Zn0 2.046 . S
O8 C29 1.254 . S
N9 Zn3 2.036 1_455 S
N9 C10 1.298 1_465 S
N9 N12 1.398 . S
C10 N9 1.298 1_645 S
C10 N13 1.367 1_655 S
C10 C23 1.481 . S
C11 N12 1.299 . S
C11 N13 1.379 1_565 S
N12 N9 1.398 . S
N12 C11 1.299 . S
N13 C10 1.367 1_455 S
N13 C11 1.379 1_545 S
C14 N16 1.298 1_465 S
C14 N18 1.367 1_565 S
C14 C22 1.481 . S
C15 N17 1.299 . S
C15 N18 1.379 1_655 S
N16 Zn0 2.036 1_545 S
N16 C14 1.298 1_645 S
N16 N17 1.398 . S
N17 C15 1.299 . S
N17 N16 1.398 . S
N18 C14 1.367 1_545 S
N18 C15 1.379 1_455 S
H19 C22 0.980 . S
H20 C22 0.981 . S
H21 C22 0.981 . S
C22 C14 1.481 . S
C22 H19 0.980 . S
C22 H20 0.981 . S
C22 H21 0.981 . S
C23 C10 1.481 . S
C23 H24 0.980 . S
C23 H25 0.981 . S
C23 H26 0.981 . S
H24 C23 0.980 . S
H25 C23 0.981 . S
H26 C23 0.981 . S
O27 Zn3 2.066 1_445 S
O27 C6 1.256 1_455 S
O28 Zn0 2.053 1_545 S
O28 C6 1.244 1_554 S
C29 O7 1.259 1_554 S
C29 O8 1.254 . S
O30 Zn0 2.066 1_445 S
O30 C2 1.256 1_545 S
O31 C2 1.244 1_556 S
O31 Zn3 2.053 1_455 S
N18 N13 1.500 . S
C2 C29 1.502 . S
C4 C6 1.502 . S
