# Generated by pormake.
# Topology bcu, (8)-cn, num edge types: 1
# Building blocks:
#     Node 0, Type 0, BuildingBlock: TAGTUT_clean_sbu_1, # of connection points: 8
#     Node 1, Type 0, BuildingBlock: TAGTUT_clean_sbu_1, # of connection points: 8
#     Edge 2, Type (0, 0), BuildingBlock: EZIPEK_clean_linker_0, # of connection points: 2
#     Edge 3, Type (0, 0), BuildingBlock: EZIPEK_clean_linker_0, # of connection points: 2
#     Edge 4, Type (0, 0), BuildingBlock: EZIPEK_clean_linker_0, # of connection points: 2
#     Edge 5, Type (0, 0), BuildingBlock: EZIPEK_clean_linker_0, # of connection points: 2
#     Edge 6, Type (0, 0), BuildingBlock: EZIPEK_clean_linker_0, # of connection points: 2
#     Edge 7, Type (0, 0), BuildingBlock: EZIPEK_clean_linker_0, # of connection points: 2
#     Edge 8, Type (0, 0), BuildingBlock: EZIPEK_clean_linker_0, # of connection points: 2
#     Edge 9, Type (0, 0), BuildingBlock: EZIPEK_clean_linker_0, # of connection points: 2
# Relax obj value: 0.013
# Max RMSD: 0.070
# Mean RMSD: 0.070
data_MOF--net-bcu--node1-TAGTUT_clean_sbu_1--edge1-EZIPEK_clean_linker_0
_symmetry_space_group_name_H-M    P1
_symmetry_Int_Tables_number       1
_symmetry_cell_setting            triclinic
loop_
_symmetry_equiv_pos_as_xyz
'x, y, z'
_cell_length_a     15.182219
_cell_length_b     14.305436
_cell_length_c     16.33624
_cell_angle_alpha  89.559224
_cell_angle_beta   93.245742
_cell_angle_gamma 111.9486
loop_
_atom_site_label
_atom_site_type_symbol
_atom_site_fract_x
_atom_site_fract_y
_atom_site_fract_z
_atom_type_partial_charge
C0 C 0.72378 0.04385 0.09839 0.0
C1 C 0.76661 0.08644 0.84443 0.0
C2 C 0.91295 0.77881 0.8867 0.0
Mg3 Mg 0.9008 0.1519 -0.00074 0.0
O4 O 0.90393 0.02426 0.01235 0.0
Mg5 Mg 0.79318 0.90553 0.96875 0.0
Mg6 Mg 1.01453 -0.00439 -0.0203 0.0
O7 O 0.12497 0.96679 0.94701 0.0
Mg8 Mg 0.12795 0.839 0.95988 0.0
Mg9 Mg 0.2358 0.08536 -0.0095 0.0
C10 C 0.11588 0.21228 0.07262 0.0
C11 C 0.12778 0.16626 0.84891 0.0
O12 O 0.70536 0.96018 0.059 0.0
O13 O 0.79523 0.12438 0.08564 0.0
O14 O 0.74998 0.9953 0.86536 0.0
O15 O 0.83021 0.16107 0.88273 0.0
O16 O 0.04625 0.23735 0.04647 0.0
O17 O 0.11826 0.12432 0.0604 0.0
C18 C 0.90128 0.82486 0.11046 0.0
O19 O 0.98392 0.88383 0.08996 0.0
O20 O 0.82552 0.82099 0.07119 0.0
O21 O 0.32338 0.03058 0.90008 0.0
O22 O 0.23333 0.86646 0.87337 0.0
O23 O 0.27893 -0.0045 0.09381 0.0
C24 C 0.30482 0.94694 0.86061 0.0
O25 O 0.19873 0.82973 0.0763 0.0
O26 O 0.98248 0.75349 0.91267 0.0
C27 C 0.2623 0.90433 0.11466 0.0
O28 O 0.911 0.8669 0.89913 0.0
O29 O 0.04511 0.10738 0.86944 0.0
O30 O 0.20351 0.17001 0.88814 0.0
C31 C 0.4239 0.78677 0.59249 0.0
C32 C 0.48152 0.7683 0.34298 0.0
C33 C 0.3273 0.36899 0.36794 0.0
Mg34 Mg 0.57813 0.7395 0.50421 0.0
O35 O 0.48575 0.61075 0.52035 0.0
Mg36 Mg 0.3565 0.58188 0.46706 0.0
Mg37 Mg 0.51454 0.49541 0.47963 0.0
O38 O 0.54312 0.38 0.43885 0.0
Mg39 Mg 0.45053 0.25127 0.45492 0.0
Mg40 Mg 0.67232 0.4087 0.49204 0.0
C41 C 0.70148 0.62184 0.59136 0.0
C42 C 0.69839 0.58754 0.36391 0.0
O43 O 0.35682 0.71121 0.55643 0.0
O44 O 0.5119 0.81048 0.57992 0.0
O45 O 0.40943 0.69821 0.36911 0.0
O46 O 0.56344 0.79478 0.38077 0.0
O47 O 0.69209 0.70407 0.56828 0.0
O48 O 0.64363 0.53417 0.56727 0.0
C49 C 0.33065 0.40324 0.59533 0.0
O50 O 0.40964 0.39761 0.57621 0.0
O51 O 0.29982 0.46699 0.56291 0.0
O52 O 0.67173 0.27938 0.40255 0.0
O53 O 0.5166 0.1802 0.37911 0.0
O54 O 0.61934 0.29234 0.58994 0.0
C55 C 0.60459 0.20387 0.3665 0.0
O56 O 0.4653 0.19586 0.57834 0.0
O57 O 0.33639 0.28659 0.39094 0.0
C58 C 0.54724 0.22229 0.61609 0.0
O59 O 0.38549 0.45645 0.39211 0.0
O60 O 0.61943 0.59324 0.38306 0.0
O61 O 0.72912 0.52369 0.39626 0.0
C62 C 0.1222 0.25146 0.22105 0.0
C63 C 0.16875 0.26818 0.14592 0.0
C64 C 0.31711 0.37759 0.21556 0.0
C65 C 0.27047 0.36019 0.29081 0.0
N66 N 0.12671 0.30527 0.36233 0.0
N67 N 0.30081 0.3642 0.06694 0.0
C68 C 0.17184 0.30586 0.29217 0.0
C69 C 0.26308 0.33743 0.14155 0.0
N70 N 0.0326 0.17966 0.22541 0.0
N71 N 0.41379 0.4254 0.21533 0.0
H72 H 0.26314 0.33349 0.01188 0.0
H73 H 0.36598 0.42241 0.05926 0.0
H74 H 0.45694 0.45848 0.26721 0.0
H75 H 0.45244 0.42756 0.1642 0.0
H76 H 0.9997 0.15663 0.28026 0.0
H77 H 0.99322 0.13678 0.17509 0.0
H78 H 0.05314 0.27402 0.36584 0.0
H79 H 0.16304 0.34517 0.4151 0.0
C80 C 0.59872 0.08976 0.15624 0.0
C81 C 0.66916 0.0486 0.16893 0.0
C82 C 0.68322 0.09041 0.31566 0.0
C83 C 0.62625 0.14831 0.29953 0.0
N84 N 0.53538 0.21076 0.2022 0.0
N85 N 0.77662 0.00334 0.25945 0.0
C86 C 0.58392 0.14866 0.21944 0.0
C87 C 0.70944 0.04522 0.2488 0.0
N88 N 0.54764 0.07361 0.08284 0.0
N89 N 0.71109 0.07779 0.39459 0.0
H90 H 0.79286 0.96477 0.21223 0.0
H91 H 0.81836 0.01016 0.3135 0.0
H92 H 0.69564 0.11284 0.44447 0.0
H93 H 0.74366 0.02748 0.41121 0.0
H94 H 0.48897 0.09374 0.07112 0.0
H95 H 0.5589 0.02994 0.03683 0.0
H96 H 0.51095 0.22097 0.14325 0.0
H97 H 0.52706 0.25988 0.2452 0.0
C98 C 0.83482 0.65785 0.17116 0.0
C99 C 0.88557 0.76212 0.18435 0.0
C100 C 0.81601 0.7533 0.3175 0.0
C101 C 0.75651 0.65117 0.29965 0.0
N102 N 0.70465 0.50633 0.20852 0.0
N103 N 0.94509 0.90498 0.27542 0.0
C104 C 0.76567 0.60297 0.22659 0.0
C105 C 0.88312 0.80832 0.25992 0.0
N106 N 0.8532 0.61279 0.10429 0.0
N107 N 0.80624 0.7977 0.38836 0.0
H108 H 0.99543 0.94438 0.23408 0.0
H109 H 0.95176 0.94416 0.33018 0.0
H110 H 0.75637 0.75963 0.4302 0.0
H111 H 0.84376 0.87275 0.40481 0.0
H112 H 0.82428 0.53562 0.09216 0.0
H113 H 0.9049 0.65335 0.06428 0.0
H114 H 0.70186 0.46909 0.15344 0.0
H115 H 0.65101 0.465 0.24649 0.0
C116 C 0.3505 0.92158 0.25348 0.0
C117 C 0.33365 0.88452 0.17145 0.0
C118 C 0.44695 0.79974 0.19662 0.0
C119 C 0.45942 0.83184 0.27934 0.0
N120 N 0.4446 0.94221 0.38271 0.0
N121 N 0.38976 0.81794 0.05836 0.0
C122 C 0.41906 0.90047 0.3059 0.0
C123 C 0.38941 0.8327 0.1409 0.0
N124 N 0.29783 0.97248 0.28207 0.0
N125 N 0.48682 0.73396 0.17249 0.0
H126 H 0.35057 0.84296 0.01525 0.0
H127 H 0.43585 0.78979 0.03203 0.0
H128 H 0.5335 0.71365 0.21144 0.0
H129 H 0.47079 0.69677 0.11582 0.0
H130 H 0.30035 0.99463 0.34291 0.0
H131 H 0.2465 0.9879 0.24545 0.0
H132 H 0.42055 0.99471 0.40682 0.0
H133 H 0.49597 0.92878 0.42085 0.0
C134 C 0.31883 0.94526 0.71018 0.0
C135 C 0.35934 0.94215 0.79001 0.0
C136 C 0.44467 0.84218 0.7395 0.0
C137 C 0.40218 0.84231 0.65944 0.0
N138 N 0.31697 0.91245 0.5644 0.0
N139 N 0.48117 0.91757 0.87598 0.0
C140 C 0.34503 0.90002 0.64332 0.0
C141 C 0.42992 0.90118 0.80265 0.0
N142 N 0.2515 0.98693 0.69956 0.0
N143 N 0.49332 0.78019 0.75678 0.0
H144 H 0.46994 0.96131 0.92195 0.0
H145 H 0.53994 0.8976 0.88765 0.0
H146 H 0.50156 0.73097 0.71384 0.0
H147 H 0.51789 0.77017 0.81572 0.0
H148 H 0.20961 0.97991 0.64557 0.0
H149 H 0.23528 0.02554 0.74677 0.0
H150 H 0.28424 0.96261 0.54778 0.0
H151 H 0.33241 0.87738 0.51453 0.0
C152 C 0.21298 0.23764 0.64189 0.0
C153 C 0.27262 0.33973 0.65968 0.0
C154 C 0.19456 0.33328 0.78827 0.0
C155 C 0.14353 0.22905 0.77506 0.0
N156 N 0.08349 0.08631 0.68388 0.0
N157 N 0.32479 0.48466 0.75072 0.0
C158 C 0.14578 0.18282 0.69945 0.0
C159 C 0.26365 0.38804 0.73275 0.0
N160 N 0.22275 0.19307 0.57112 0.0
N161 N 0.1765 0.37841 0.85526 0.0
H162 H 0.37841 0.52586 0.71269 0.0
H163 H 0.3277 0.52203 0.80576 0.0
H164 H 0.12482 0.33793 0.89532 0.0
H165 H 0.20566 0.45555 0.86748 0.0
H166 H 0.18523 0.11797 0.5548 0.0
H167 H 0.2727 0.23099 0.52929 0.0
H168 H 0.0766 0.04721 0.62905 0.0
H169 H 0.03307 0.04707 0.72521 0.0
C170 C 0.63961 0.15823 0.81818 0.0
C171 C 0.69522 0.10622 0.78765 0.0
C172 C 0.60958 0.09007 0.65328 0.0
C173 C 0.56933 0.15882 0.6798 0.0
N174 N 0.54238 0.25716 0.78654 0.0
N175 N 0.73067 0.01785 0.67712 0.0
C176 C 0.58204 0.19116 0.76247 0.0
C177 C 0.67817 0.06896 0.70567 0.0
N178 N 0.63943 0.17322 0.90071 0.0
N179 N 0.58393 0.04824 0.57651 0.0
H180 H 0.78203 0.00246 0.71372 0.0
H181 H 0.72798 -0.00454 0.61632 0.0
H182 H 0.53249 0.0616 0.53842 0.0
H183 H 0.60799 -0.00424 0.55236 0.0
H184 H 0.59345 0.20152 0.92703 0.0
H185 H 0.67863 0.14822 0.94383 0.0
H186 H 0.55863 0.29453 0.84313 0.0
H187 H 0.49569 0.27746 0.74761 0.0
C188 C 0.8571 0.68712 0.6667 0.0
C189 C 0.75879 0.63104 0.66829 0.0
C190 C 0.76652 0.65249 0.81771 0.0
C191 C 0.86016 0.72333 0.81323 0.0
N192 N 0.9955 0.81434 0.73367 0.0
N193 N 0.61605 0.56257 0.74429 0.0
C194 C 0.90643 0.74148 0.73795 0.0
C195 C 0.7125 0.6121 0.74374 0.0
N196 N 0.90222 0.68931 0.59623 0.0
N197 N 0.72941 0.62441 0.89239 0.0
H198 H 0.57289 0.52927 0.69249 0.0
H199 H 0.57746 0.55915 0.79569 0.0
H200 H 0.76695 0.65535 0.94744 0.0
H201 H 0.665 0.56503 0.90007 0.0
H202 H 0.97569 0.72196 0.59245 0.0
H203 H 0.86614 0.64939 0.54339 0.0
H204 H 0.02808 0.83839 0.67883 0.0
H205 H 0.03475 0.8569 0.78418 0.0
loop_
_geom_bond_atom_site_label_1
_geom_bond_atom_site_label_2
_geom_bond_distance
_geom_bond_site_symmetry_2
_ccdc_geom_bond_type
C0 O12 1.241 . S
C0 O13 1.280 . S
C1 O14 1.277 . S
C1 O15 1.245 . S
C2 O26 1.247 . S
C2 O28 1.289 . S
Mg3 O4 1.926 . S
Mg3 O13 1.984 . S
Mg3 O15 1.988 1_554 S
Mg3 O16 2.061 1_655 S
O4 Mg3 1.926 . S
O4 Mg5 1.986 1_544 S
O4 Mg6 1.917 1_655 S
Mg5 O4 1.986 1_566 S
Mg5 O12 2.042 1_566 S
Mg5 O14 2.041 1_565 S
Mg5 O20 2.038 1_556 S
Mg5 O28 2.238 . S
Mg6 O4 1.917 1_455 S
Mg6 O7 1.917 1_544 S
Mg6 O17 2.106 . S
Mg6 O19 2.079 1_445 S
Mg6 O28 2.106 1_444 S
Mg6 O29 2.079 1_554 S
O7 Mg6 1.917 1_566 S
O7 Mg8 1.926 . S
O7 Mg9 1.986 1_566 S
Mg8 O7 1.926 . S
Mg8 O22 1.984 . S
Mg8 O25 1.988 1_556 S
Mg8 O26 2.061 1_455 S
Mg9 O7 1.986 1_544 S
Mg9 O17 2.238 . S
Mg9 O21 2.042 1_544 S
Mg9 O23 2.041 1_545 S
Mg9 O30 2.038 1_554 S
C10 O16 1.247 . S
C10 O17 1.289 . S
C11 O29 1.245 . S
C11 O30 1.274 . S
O12 C0 1.241 . S
O12 Mg5 2.042 1_544 S
O13 C0 1.280 . S
O13 Mg3 1.984 . S
O14 C1 1.277 . S
O14 Mg5 2.041 1_545 S
O15 C1 1.245 . S
O15 Mg3 1.988 1_556 S
O16 Mg3 2.061 1_455 S
O16 C10 1.247 . S
O17 Mg6 2.106 . S
O17 Mg9 2.238 . S
O17 C10 1.289 . S
C18 O19 1.245 . S
C18 O20 1.274 . S
O19 Mg6 2.079 1_665 S
O19 C18 1.245 . S
O20 Mg5 2.038 1_554 S
O20 C18 1.274 . S
O21 Mg9 2.042 1_566 S
O21 C24 1.241 . S
O22 Mg8 1.984 . S
O22 C24 1.280 . S
O23 Mg9 2.041 1_565 S
O23 C27 1.277 . S
C24 O21 1.241 . S
C24 O22 1.280 . S
O25 Mg8 1.988 1_554 S
O25 C27 1.245 . S
O26 C2 1.247 . S
O26 Mg8 2.061 1_655 S
C27 O23 1.277 . S
C27 O25 1.245 . S
O28 C2 1.289 . S
O28 Mg5 2.238 . S
O28 Mg6 2.106 1_666 S
O29 Mg6 2.079 1_556 S
O29 C11 1.245 . S
O30 Mg9 2.038 1_556 S
O30 C11 1.274 . S
C31 O43 1.241 . S
C31 O44 1.280 . S
C32 O45 1.277 . S
C32 O46 1.245 . S
C33 O57 1.247 . S
C33 O59 1.289 . S
Mg34 O35 1.926 . S
Mg34 O44 1.984 . S
Mg34 O46 1.988 . S
Mg34 O47 2.061 . S
O35 Mg34 1.926 . S
O35 Mg36 1.986 . S
O35 Mg37 1.917 . S
Mg36 O35 1.986 . S
Mg36 O43 2.042 . S
Mg36 O45 2.041 . S
Mg36 O51 2.038 . S
Mg36 O59 2.238 . S
Mg37 O35 1.917 . S
Mg37 O38 1.917 . S
Mg37 O48 2.106 . S
Mg37 O50 2.079 . S
Mg37 O59 2.106 . S
Mg37 O60 2.079 . S
O38 Mg37 1.917 . S
O38 Mg39 1.926 . S
O38 Mg40 1.986 . S
Mg39 O38 1.926 . S
Mg39 O53 1.984 . S
Mg39 O56 1.988 . S
Mg39 O57 2.061 . S
Mg40 O38 1.986 . S
Mg40 O48 2.238 . S
Mg40 O52 2.042 . S
Mg40 O54 2.041 . S
Mg40 O61 2.038 . S
C41 O47 1.247 . S
C41 O48 1.289 . S
C42 O60 1.245 . S
C42 O61 1.274 . S
O43 C31 1.241 . S
O43 Mg36 2.042 . S
O44 C31 1.280 . S
O44 Mg34 1.984 . S
O45 C32 1.277 . S
O45 Mg36 2.041 . S
O46 C32 1.245 . S
O46 Mg34 1.988 . S
O47 Mg34 2.061 . S
O47 C41 1.247 . S
O48 Mg37 2.106 . S
O48 Mg40 2.238 . S
O48 C41 1.289 . S
C49 O50 1.245 . S
C49 O51 1.274 . S
O50 Mg37 2.079 . S
O50 C49 1.245 . S
O51 Mg36 2.038 . S
O51 C49 1.274 . S
O52 Mg40 2.042 . S
O52 C55 1.241 . S
O53 Mg39 1.984 . S
O53 C55 1.280 . S
O54 Mg40 2.041 . S
O54 C58 1.277 . S
C55 O52 1.241 . S
C55 O53 1.280 . S
O56 Mg39 1.988 . S
O56 C58 1.245 . S
O57 C33 1.247 . S
O57 Mg39 2.061 . S
C58 O54 1.277 . S
C58 O56 1.245 . S
O59 C33 1.289 . S
O59 Mg36 2.238 . S
O59 Mg37 2.106 . S
O60 Mg37 2.079 . S
O60 C42 1.245 . S
O61 Mg40 2.038 . S
O61 C42 1.274 . S
C62 C63 1.363 . S
C62 C68 1.379 . S
C62 N70 1.356 . S
C63 C62 1.363 . S
C63 C69 1.363 . S
C64 C65 1.363 . S
C64 C69 1.379 . S
C64 N71 1.356 . S
C65 C64 1.363 . S
C65 C68 1.363 . S
N66 C68 1.356 . S
N66 H78 0.984 . S
N66 H79 0.985 . S
N67 C69 1.356 . S
N67 H72 0.984 . S
N67 H73 0.985 . S
C68 C62 1.379 . S
C68 C65 1.363 . S
C68 N66 1.356 . S
C69 C63 1.363 . S
C69 C64 1.379 . S
C69 N67 1.356 . S
N70 C62 1.356 . S
N70 H76 0.984 . S
N70 H77 0.984 . S
N71 C64 1.356 . S
N71 H74 0.984 . S
N71 H75 0.985 . S
H72 N67 0.984 . S
H73 N67 0.985 . S
H74 N71 0.984 . S
H75 N71 0.985 . S
H76 N70 0.984 . S
H77 N70 0.984 . S
H78 N66 0.984 . S
H79 N66 0.985 . S
C80 C81 1.363 . S
C80 C86 1.379 . S
C80 N88 1.356 . S
C81 C80 1.363 . S
C81 C87 1.363 . S
C82 C83 1.363 . S
C82 C87 1.379 . S
C82 N89 1.356 . S
C83 C82 1.363 . S
C83 C86 1.363 . S
N84 C86 1.356 . S
N84 H96 0.984 . S
N84 H97 0.985 . S
N85 C87 1.356 . S
N85 H90 0.984 . S
N85 H91 0.985 1_545 S
C86 C80 1.379 . S
C86 C83 1.363 . S
C86 N84 1.356 . S
C87 C81 1.363 . S
C87 C82 1.379 . S
C87 N85 1.356 . S
N88 C80 1.356 . S
N88 H94 0.984 . S
N88 H95 0.984 . S
N89 C82 1.356 . S
N89 H92 0.984 . S
N89 H93 0.985 . S
H90 N85 0.984 . S
H91 N85 0.985 1_565 S
H92 N89 0.984 . S
H93 N89 0.985 . S
H94 N88 0.984 . S
H95 N88 0.984 . S
H96 N84 0.984 . S
H97 N84 0.985 . S
C98 C99 1.363 . S
C98 C104 1.379 . S
C98 N106 1.356 . S
C99 C98 1.363 . S
C99 C105 1.363 . S
C100 C101 1.363 . S
C100 C105 1.379 . S
C100 N107 1.356 . S
C101 C100 1.363 . S
C101 C104 1.363 . S
N102 C104 1.356 . S
N102 H114 0.984 . S
N102 H115 0.985 . S
N103 C105 1.356 . S
N103 H108 0.984 . S
N103 H109 0.985 . S
C104 C98 1.379 . S
C104 C101 1.363 . S
C104 N102 1.356 . S
C105 C99 1.363 . S
C105 C100 1.379 . S
C105 N103 1.356 . S
N106 C98 1.356 . S
N106 H112 0.984 . S
N106 H113 0.984 . S
N107 C100 1.356 . S
N107 H110 0.984 . S
N107 H111 0.985 . S
H108 N103 0.984 . S
H109 N103 0.985 . S
H110 N107 0.984 . S
H111 N107 0.985 . S
H112 N106 0.984 . S
H113 N106 0.984 . S
H114 N102 0.984 . S
H115 N102 0.985 . S
C116 C117 1.363 . S
C116 C122 1.379 . S
C116 N124 1.356 . S
C117 C116 1.363 . S
C117 C123 1.363 . S
C118 C119 1.363 . S
C118 C123 1.379 . S
C118 N125 1.356 . S
C119 C118 1.363 . S
C119 C122 1.363 . S
N120 C122 1.356 . S
N120 H132 0.984 . S
N120 H133 0.985 . S
N121 C123 1.356 . S
N121 H126 0.984 . S
N121 H127 0.985 . S
C122 C116 1.379 . S
C122 C119 1.363 . S
C122 N120 1.356 . S
C123 C117 1.363 . S
C123 C118 1.379 . S
C123 N121 1.356 . S
N124 C116 1.356 . S
N124 H130 0.984 . S
N124 H131 0.984 . S
N125 C118 1.356 . S
N125 H128 0.984 . S
N125 H129 0.985 . S
H126 N121 0.984 . S
H127 N121 0.985 . S
H128 N125 0.984 . S
H129 N125 0.985 . S
H130 N124 0.984 . S
H131 N124 0.984 . S
H132 N120 0.984 . S
H133 N120 0.985 . S
C134 C135 1.363 . S
C134 C140 1.379 . S
C134 N142 1.356 . S
C135 C134 1.363 . S
C135 C141 1.363 . S
C136 C137 1.363 . S
C136 C141 1.379 . S
C136 N143 1.356 . S
C137 C136 1.363 . S
C137 C140 1.363 . S
N138 C140 1.356 . S
N138 H150 0.984 . S
N138 H151 0.985 . S
N139 C141 1.356 . S
N139 H144 0.984 . S
N139 H145 0.985 . S
C140 C134 1.379 . S
C140 C137 1.363 . S
C140 N138 1.356 . S
C141 C135 1.363 . S
C141 C136 1.379 . S
C141 N139 1.356 . S
N142 C134 1.356 . S
N142 H148 0.984 . S
N142 H149 0.984 . S
N143 C136 1.356 . S
N143 H146 0.984 . S
N143 H147 0.985 . S
H144 N139 0.984 . S
H145 N139 0.985 . S
H146 N143 0.984 . S
H147 N143 0.985 . S
H148 N142 0.984 . S
H149 N142 0.984 . S
H150 N138 0.984 . S
H151 N138 0.985 . S
C152 C153 1.363 . S
C152 C158 1.379 . S
C152 N160 1.356 . S
C153 C152 1.363 . S
C153 C159 1.363 . S
C154 C155 1.363 . S
C154 C159 1.379 . S
C154 N161 1.356 . S
C155 C154 1.363 . S
C155 C158 1.363 . S
N156 C158 1.356 . S
N156 H168 0.984 . S
N156 H169 0.985 . S
N157 C159 1.356 . S
N157 H162 0.984 . S
N157 H163 0.985 . S
C158 C152 1.379 . S
C158 C155 1.363 . S
C158 N156 1.356 . S
C159 C153 1.363 . S
C159 C154 1.379 . S
C159 N157 1.356 . S
N160 C152 1.356 . S
N160 H166 0.984 . S
N160 H167 0.984 . S
N161 C154 1.356 . S
N161 H164 0.984 . S
N161 H165 0.985 . S
H162 N157 0.984 . S
H163 N157 0.985 . S
H164 N161 0.984 . S
H165 N161 0.985 . S
H166 N160 0.984 . S
H167 N160 0.984 . S
H168 N156 0.984 . S
H169 N156 0.985 . S
C170 C171 1.363 . S
C170 C176 1.379 . S
C170 N178 1.356 . S
C171 C170 1.363 . S
C171 C177 1.363 . S
C172 C173 1.363 . S
C172 C177 1.379 . S
C172 N179 1.356 . S
C173 C172 1.363 . S
C173 C176 1.363 . S
N174 C176 1.356 . S
N174 H186 0.984 . S
N174 H187 0.985 . S
N175 C177 1.356 . S
N175 H180 0.984 . S
N175 H181 0.985 . S
C176 C170 1.379 . S
C176 C173 1.363 . S
C176 N174 1.356 . S
C177 C171 1.363 . S
C177 C172 1.379 . S
C177 N175 1.356 . S
N178 C170 1.356 . S
N178 H184 0.984 . S
N178 H185 0.984 . S
N179 C172 1.356 . S
N179 H182 0.984 . S
N179 H183 0.985 . S
H180 N175 0.984 . S
H181 N175 0.985 . S
H182 N179 0.984 . S
H183 N179 0.985 . S
H184 N178 0.984 . S
H185 N178 0.984 . S
H186 N174 0.984 . S
H187 N174 0.985 . S
C188 C189 1.363 . S
C188 C194 1.379 . S
C188 N196 1.356 . S
C189 C188 1.363 . S
C189 C195 1.363 . S
C190 C191 1.363 . S
C190 C195 1.379 . S
C190 N197 1.356 . S
C191 C190 1.363 . S
C191 C194 1.363 . S
N192 C194 1.356 . S
N192 H204 0.984 . S
N192 H205 0.985 . S
N193 C195 1.356 . S
N193 H198 0.984 . S
N193 H199 0.985 . S
C194 C188 1.379 . S
C194 C191 1.363 . S
C194 N192 1.356 . S
C195 C189 1.363 . S
C195 C190 1.379 . S
C195 N193 1.356 . S
N196 C188 1.356 . S
N196 H202 0.984 . S
N196 H203 0.984 . S
N197 C190 1.356 . S
N197 H200 0.984 . S
N197 H201 0.985 . S
H198 N193 0.984 . S
H199 N193 0.985 . S
H200 N197 0.984 . S
H201 N197 0.985 . S
H202 N196 0.984 . S
H203 N196 0.984 . S
H204 N192 0.984 . S
H205 N192 0.985 . S
C63 C10 1.084 . S
C65 C33 1.082 . S
C81 C0 1.498 . S
C83 C55 1.497 . S
C99 C18 1.583 . S
C101 C42 1.583 . S
C117 C27 1.641 . S
C119 C32 1.640 . S
C135 C24 1.498 . S
C137 C31 1.499 . S
C153 C49 1.583 . S
C155 C11 1.583 . S
C171 C1 1.641 . S
C173 C58 1.642 . S
C189 C41 1.084 . S
C191 C2 1.086 . S
