# Generated by pormake.
# Topology sma, (6)-cn, num edge types: 1
# Building blocks:
#     Node 0, Type 0, BuildingBlock: NUHQIS_clean_sbu_0, # of connection points: 6
#     Node 1, Type 0, BuildingBlock: NUHQIS_clean_sbu_0, # of connection points: 6
#     Node 2, Type 0, BuildingBlock: NUHQIS_clean_sbu_0, # of connection points: 6
#     Edge 3, Type (0, 0), None
#     Edge 4, Type (0, 0), None
#     Edge 5, Type (0, 0), None
#     Edge 6, Type (0, 0), None
#     Edge 7, Type (0, 0), None
#     Edge 8, Type (0, 0), None
#     Edge 9, Type (0, 0), None
#     Edge 10, Type (0, 0), None
#     Edge 11, Type (0, 0), None
# Relax obj value: 0.031
# Max RMSD: 0.140
# Mean RMSD: 0.134
data_MOF--net-sma--node1-NUHQIS_clean_sbu_0--edge1-none
_symmetry_space_group_name_H-M    P1
_symmetry_Int_Tables_number       1
_symmetry_cell_setting            triclinic
loop_
_symmetry_equiv_pos_as_xyz
'x, y, z'
_cell_length_a     24.58059
_cell_length_b     24.587703
_cell_length_c     6.1822161
_cell_angle_alpha  90.77662
_cell_angle_beta   92.553527
_cell_angle_gamma 120.22863
loop_
_atom_site_label
_atom_site_type_symbol
_atom_site_fract_x
_atom_site_fract_y
_atom_site_fract_z
_atom_type_partial_charge
Tb0 Tb 0.10122 0.51913 0.21413 0.0
Eu1 Eu 0.99105 0.57225 0.19083 0.0
C2 C 0.04376 0.54193 0.60812 0.0
C3 C 0.94663 0.4242 0.24505 0.0
C4 C 0.23858 0.49254 0.11411 0.0
C5 C 0.31065 0.45632 0.01696 0.0
C6 C 0.25174 0.44379 0.08325 0.0
C7 C 0.2854 0.55442 0.07234 0.0
C8 C 0.34471 0.56713 0.00559 0.0
C9 C 0.35853 0.51825 -0.02072 0.0
C10 C 0.17647 0.47695 0.19579 0.0
O11 O 0.09547 0.55423 0.91316 0.0
O12 O 0.99083 0.52531 0.89313 0.0
O13 O 0.09048 0.65591 0.25228 0.0
O14 O 0.16232 0.621 0.21997 0.0
C15 C 1.0429 0.5389 0.80857 0.0
O16 O 0.95233 0.61966 -0.00508 0.0
O17 O 0.9232 0.5948 0.32267 0.0
O18 O 0.99443 0.53845 0.50958 0.0
O19 O 0.0952 0.55165 0.52417 0.0
O20 O 1.0062 0.43676 0.25919 0.0
O21 O 0.93029 0.46687 0.203 0.0
C22 C 0.14875 0.66607 0.25031 0.0
O23 O 0.17626 0.51146 0.35788 0.0
O24 O 0.13037 0.46303 0.05163 0.0
C25 C 0.85279 0.6071 0.07653 0.0
C26 C 0.73042 0.5857 0.95647 0.0
C27 C 0.77934 0.64598 0.02824 0.0
C28 C 0.83973 0.65645 0.08737 0.0
C29 C 0.8047 0.54708 0.0017 0.0
C30 C 0.74419 0.53648 0.94214 0.0
C31 C 0.91677 0.61993 0.14546 0.0
H32 H 0.31887 0.4172 -0.00073 0.0
H33 H 0.21654 0.39568 0.11406 0.0
H34 H 0.27646 0.59296 0.09432 0.0
H35 H 0.38009 0.61545 -0.02106 0.0
H36 H 0.77088 0.68503 0.04215 0.0
H37 H 0.87628 0.70326 0.14403 0.0
H38 H 0.81376 0.50834 -0.0086 0.0
H39 H 0.70796 0.48929 0.88829 0.0
Tb40 Tb 0.6352 0.10765 0.56116 0.0
Eu41 Eu 0.47156 0.99733 0.53433 0.0
C42 C 0.55847 0.04966 0.95506 0.0
C43 C 0.57513 0.95294 0.57858 0.0
C44 C 0.80044 0.24154 0.44575 0.0
C45 C 0.91 0.31368 0.36581 0.0
C46 C 0.86317 0.25551 0.43739 0.0
C47 C 0.78499 0.2865 0.37602 0.0
C48 C 0.8319 0.34489 0.30413 0.0
C49 C 0.89541 0.35974 0.30033 0.0
C50 C 0.75312 0.18039 0.53187 0.0
O51 O 0.58823 0.10238 0.26327 0.0
O52 O 0.51211 0.9982 0.23221 0.0
O53 O 0.48738 0.09591 0.594 0.0
O54 O 0.59487 0.16904 0.58133 0.0
C55 C 0.55516 0.04954 0.15533 0.0
O56 O 0.38094 0.95952 0.34988 0.0
O57 O 0.38486 0.92564 0.66993 0.0
O58 O 0.51454 0.99956 0.8509 0.0
O59 O 0.60272 0.10041 0.8747 0.0
O60 O 0.62213 1.01231 0.61138 0.0
O61 O 0.51652 0.93753 0.5225 0.0
C62 C 0.53569 0.15446 0.60331 0.0
O63 O 0.72188 0.18188 0.69509 0.0
O64 O 0.71689 0.13492 0.39078 0.0
C65 C 0.30026 0.85554 0.42149 0.0
C66 C 0.20184 0.73187 0.29736 0.0
C67 C 0.18963 0.78172 0.32065 0.0
C68 C 0.23823 0.84268 0.38176 0.0
C69 C 0.31339 0.80658 0.39382 0.0
C70 C 0.26464 0.7453 0.33202 0.0
C71 C 0.34934 0.91991 0.49737 0.0
H72 H 0.95798 0.32291 0.3664 0.0
H73 H 0.87629 0.22157 0.4898 0.0
H74 H 0.73691 0.27683 0.38005 0.0
H75 H 0.81846 0.37887 0.25571 0.0
H76 H 0.1422 0.77363 0.29511 0.0
H77 H 0.22709 0.8798 0.40155 0.0
H78 H 0.36104 0.81551 0.42308 0.0
H79 H 0.27603 0.70828 0.3162 0.0
Tb80 Tb 0.56964 0.63165 0.88207 0.0
Eu81 Eu 0.51623 0.46779 0.87683 0.0
C82 C 0.55106 0.55559 0.28642 0.0
C83 C 0.66468 0.57305 0.91018 0.0
C84 C 0.60541 0.80004 0.76602 0.0
C85 C 0.64569 0.91238 0.72072 0.0
C86 C 0.65471 0.86302 0.78796 0.0
C87 C 0.54698 0.78706 0.67087 0.0
C88 C 0.53782 0.83649 0.60345 0.0
C89 C 0.58689 0.90008 0.62961 0.0
C90 C 0.6168 0.74978 0.84681 0.0
O91 O 0.52594 0.58363 0.58434 0.0
O92 O 0.55209 0.50654 0.57021 0.0
O93 O 0.43338 0.48319 0.92824 0.0
O94 O 0.4675 0.59032 0.89639 0.0
C95 C 0.54535 0.55052 0.48582 0.0
O96 O 0.46058 0.37523 0.70915 0.0
O97 O 0.50865 0.38393 0.02251 0.0
O98 O 0.55982 0.51362 0.19094 0.0
O99 O 0.54526 0.6 0.19707 0.0
O100 O 0.65245 0.61937 0.94259 0.0
O101 O 0.62088 0.51455 0.85573 0.0
C102 C 0.42314 0.53137 0.92759 0.0
O103 O 0.58622 0.71878 0.01219 0.0
O104 O 0.62097 0.7128 0.70328 0.0
C105 C 0.49306 0.30012 0.77871 0.0
C106 C 0.52185 0.20606 0.65207 0.0
C107 C 0.4589 0.19219 0.65917 0.0
C108 C 0.44484 0.23852 0.72139 0.0
C109 C 0.55614 0.31504 0.76724 0.0
C110 C 0.57039 0.2685 0.70426 0.0
C111 C 0.47566 0.34655 0.85609 0.0
H112 H 0.68456 0.96031 0.74494 0.0
H113 H 0.70031 0.87422 0.86047 0.0
H114 H 0.50828 0.7389 0.65137 0.0
H115 H 0.49174 0.82474 0.53442 0.0
H116 H 0.42003 0.14503 0.61979 0.0
H117 H 0.39587 0.22582 0.72831 0.0
H118 H 0.59432 0.36234 0.80999 0.0
H119 H 0.6194 0.28117 0.70138 0.0
loop_
_geom_bond_atom_site_label_1
_geom_bond_atom_site_label_2
_geom_bond_distance
_geom_bond_site_symmetry_2
_ccdc_geom_bond_type
Tb0 C10 2.825 . S
Tb0 O11 2.347 1_554 S
Tb0 O14 2.366 . S
Tb0 O19 2.418 . S
Tb0 O20 2.384 1_455 S
Tb0 O23 2.479 . S
Tb0 O24 2.471 1_554 S
Eu1 O12 2.418 1_554 S
Eu1 O13 2.384 1_655 S
Eu1 O16 2.479 1_554 S
Eu1 O17 2.471 . S
Eu1 O18 2.347 . S
Eu1 O21 2.366 . S
Eu1 C31 2.825 . S
C2 O18 1.259 1_455 S
C2 O19 1.265 . S
C3 O20 1.255 . S
C3 O21 1.265 . S
C4 C6 1.380 . S
C4 C7 1.374 1_554 S
C4 C10 1.507 . S
C5 C6 1.384 . S
C5 C9 1.387 . S
C5 H32 0.930 . S
C6 C4 1.380 . S
C6 C5 1.384 . S
C6 H33 0.931 . S
C7 C4 1.374 1_556 S
C7 C8 1.390 . S
C7 H34 0.930 . S
C8 C7 1.390 . S
C8 C9 1.391 1_556 S
C8 H35 0.930 . S
C9 C5 1.387 . S
C9 C8 1.391 1_554 S
C10 Tb0 2.825 . S
C10 C4 1.507 . S
C10 O23 1.238 . S
C10 O24 1.247 1_554 S
O11 Tb0 2.347 1_556 S
O11 C15 1.259 1_455 S
O12 Eu1 2.418 1_556 S
O12 C15 1.265 . S
O13 Eu1 2.384 1_455 S
O13 C22 1.255 . S
O14 Tb0 2.366 . S
O14 C22 1.265 . S
C15 O11 1.259 1_655 S
C15 O12 1.265 . S
O16 Eu1 2.479 1_556 S
O16 C31 1.238 1_556 S
O17 Eu1 2.471 . S
O17 C31 1.247 . S
O18 Eu1 2.347 . S
O18 C2 1.259 1_655 S
O19 Tb0 2.418 . S
O19 C2 1.265 . S
O20 Tb0 2.384 1_655 S
O20 C3 1.255 . S
O21 Eu1 2.366 . S
O21 C3 1.265 . S
C22 O13 1.255 . S
C22 O14 1.265 . S
O23 Tb0 2.479 . S
O23 C10 1.238 . S
O24 Tb0 2.471 1_556 S
O24 C10 1.247 1_556 S
C25 C28 1.380 . S
C25 C29 1.374 . S
C25 C31 1.507 . S
C26 C27 1.387 . S
C26 C30 1.391 . S
C27 C26 1.387 . S
C27 C28 1.384 . S
C27 H36 0.930 1_554 S
C28 C25 1.380 . S
C28 C27 1.384 . S
C28 H37 0.931 1_554 S
C29 C25 1.374 . S
C29 C30 1.390 . S
C29 H38 0.930 . S
C30 C26 1.391 . S
C30 C29 1.390 . S
C30 H39 0.930 . S
C31 Eu1 2.825 . S
C31 O16 1.238 1_554 S
C31 O17 1.247 . S
C31 C25 1.507 . S
H32 C5 0.930 . S
H33 C6 0.931 . S
H34 C7 0.930 . S
H35 C8 0.930 . S
H36 C27 0.930 1_556 S
H37 C28 0.931 1_556 S
H38 C29 0.930 . S
H39 C30 0.930 . S
Tb40 C50 2.825 . S
Tb40 O51 2.347 . S
Tb40 O54 2.366 . S
Tb40 O59 2.418 . S
Tb40 O60 2.384 1_545 S
Tb40 O63 2.479 . S
Tb40 O64 2.471 . S
Eu41 O52 2.418 . S
Eu41 O53 2.384 1_565 S
Eu41 O56 2.479 . S
Eu41 O57 2.471 . S
Eu41 O58 2.347 1_565 S
Eu41 O61 2.366 . S
Eu41 C71 2.825 . S
C42 O58 1.259 . S
C42 O59 1.265 . S
C43 O60 1.255 . S
C43 O61 1.265 . S
C44 C46 1.380 . S
C44 C47 1.374 . S
C44 C50 1.507 . S
C45 C46 1.384 . S
C45 C49 1.387 . S
C45 H72 0.930 . S
C46 C44 1.380 . S
C46 C45 1.384 . S
C46 H73 0.931 . S
C47 C44 1.374 . S
C47 C48 1.390 . S
C47 H74 0.930 . S
C48 C47 1.390 . S
C48 C49 1.391 . S
C48 H75 0.930 . S
C49 C45 1.387 . S
C49 C48 1.391 . S
C50 Tb40 2.825 . S
C50 C44 1.507 . S
C50 O63 1.238 . S
C50 O64 1.247 . S
O51 Tb40 2.347 . S
O51 C55 1.259 . S
O52 Eu41 2.418 . S
O52 C55 1.265 1_565 S
O53 Eu41 2.384 1_545 S
O53 C62 1.255 . S
O54 Tb40 2.366 . S
O54 C62 1.265 . S
C55 O51 1.259 . S
C55 O52 1.265 1_545 S
O56 Eu41 2.479 . S
O56 C71 1.238 . S
O57 Eu41 2.471 . S
O57 C71 1.247 . S
O58 Eu41 2.347 1_545 S
O58 C42 1.259 . S
O59 Tb40 2.418 . S
O59 C42 1.265 . S
O60 Tb40 2.384 1_565 S
O60 C43 1.255 . S
O61 Eu41 2.366 . S
O61 C43 1.265 . S
C62 O53 1.255 . S
C62 O54 1.265 . S
O63 Tb40 2.479 . S
O63 C50 1.238 . S
O64 Tb40 2.471 . S
O64 C50 1.247 . S
C65 C68 1.380 . S
C65 C69 1.374 . S
C65 C71 1.507 . S
C66 C67 1.387 . S
C66 C70 1.391 . S
C67 C66 1.387 . S
C67 C68 1.384 . S
C67 H76 0.930 . S
C68 C65 1.380 . S
C68 C67 1.384 . S
C68 H77 0.931 . S
C69 C65 1.374 . S
C69 C70 1.390 . S
C69 H78 0.930 . S
C70 C66 1.391 . S
C70 C69 1.390 . S
C70 H79 0.930 . S
C71 Eu41 2.825 . S
C71 O56 1.238 . S
C71 O57 1.247 . S
C71 C65 1.507 . S
H72 C45 0.930 . S
H73 C46 0.931 . S
H74 C47 0.930 . S
H75 C48 0.930 . S
H76 C67 0.930 . S
H77 C68 0.931 . S
H78 C69 0.930 . S
H79 C70 0.930 . S
Tb80 C90 2.825 . S
Tb80 O91 2.347 . S
Tb80 O94 2.366 . S
Tb80 O99 2.418 1_556 S
Tb80 O100 2.384 . S
Tb80 O103 2.479 1_556 S
Tb80 O104 2.471 . S
Eu81 O92 2.418 . S
Eu81 O93 2.384 . S
Eu81 O96 2.479 . S
Eu81 O97 2.471 1_556 S
Eu81 O98 2.347 1_556 S
Eu81 O101 2.366 . S
Eu81 C111 2.825 . S
C82 O98 1.259 . S
C82 O99 1.265 . S
C83 O100 1.255 . S
C83 O101 1.265 . S
C84 C86 1.380 . S
C84 C87 1.374 . S
C84 C90 1.507 . S
C85 C86 1.384 . S
C85 C89 1.387 . S
C85 H112 0.930 1_556 S
C86 C84 1.380 . S
C86 C85 1.384 . S
C86 H113 0.931 1_556 S
C87 C84 1.374 . S
C87 C88 1.390 . S
C87 H114 0.930 . S
C88 C87 1.390 . S
C88 C89 1.391 . S
C88 H115 0.930 . S
C89 C85 1.387 . S
C89 C88 1.391 . S
C90 Tb80 2.825 . S
C90 C84 1.507 . S
C90 O103 1.238 1_556 S
C90 O104 1.247 . S
O91 Tb80 2.347 . S
O91 C95 1.259 . S
O92 Eu81 2.418 . S
O92 C95 1.265 . S
O93 Eu81 2.384 . S
O93 C102 1.255 . S
O94 Tb80 2.366 . S
O94 C102 1.265 . S
C95 O91 1.259 . S
C95 O92 1.265 . S
O96 Eu81 2.479 . S
O96 C111 1.238 . S
O97 Eu81 2.471 1_554 S
O97 C111 1.247 1_554 S
O98 Eu81 2.347 1_554 S
O98 C82 1.259 . S
O99 Tb80 2.418 1_554 S
O99 C82 1.265 . S
O100 Tb80 2.384 . S
O100 C83 1.255 . S
O101 Eu81 2.366 . S
O101 C83 1.265 . S
C102 O93 1.255 . S
C102 O94 1.265 . S
O103 Tb80 2.479 1_554 S
O103 C90 1.238 1_554 S
O104 Tb80 2.471 . S
O104 C90 1.247 . S
C105 C108 1.380 . S
C105 C109 1.374 1_556 S
C105 C111 1.507 . S
C106 C107 1.387 . S
C106 C110 1.391 1_556 S
C107 C106 1.387 . S
C107 C108 1.384 . S
C107 H116 0.930 . S
C108 C105 1.380 . S
C108 C107 1.384 . S
C108 H117 0.931 . S
C109 C105 1.374 1_554 S
C109 C110 1.390 . S
C109 H118 0.930 . S
C110 C106 1.391 1_554 S
C110 C109 1.390 . S
C110 H119 0.930 . S
C111 Eu81 2.825 . S
C111 O96 1.238 . S
C111 O97 1.247 1_556 S
C111 C105 1.507 . S
H112 C85 0.930 1_554 S
H113 C86 0.931 1_554 S
H114 C87 0.930 . S
H115 C88 0.930 . S
H116 C107 0.930 . S
H117 C108 0.931 . S
H118 C109 0.930 . S
H119 C110 0.930 . S
C9 C102 2.158 1_554 S
C49 C3 2.462 . S
C43 C89 2.288 . S
C83 C26 2.884 1_556 S
C66 C22 2.527 . S
C106 C62 2.721 . S
C15 C2 0.586 1_655 S
C55 C42 0.621 1_554 S
C95 C82 0.573 . S
