# Generated by pormake.
# Topology sxb, (6)-cn, num edge types: 1
# Building blocks:
#     Node 0, Type 0, BuildingBlock: JUFBIX_clean_sbu_0, # of connection points: 6
#     Node 1, Type 0, BuildingBlock: JUFBIX_clean_sbu_0, # of connection points: 6
#     Node 2, Type 0, BuildingBlock: JUFBIX_clean_sbu_0, # of connection points: 6
#     Node 3, Type 0, BuildingBlock: JUFBIX_clean_sbu_0, # of connection points: 6
#     Edge 4, Type (0, 0), None
#     Edge 5, Type (0, 0), None
#     Edge 6, Type (0, 0), None
#     Edge 7, Type (0, 0), None
#     Edge 8, Type (0, 0), None
#     Edge 9, Type (0, 0), None
#     Edge 10, Type (0, 0), None
#     Edge 11, Type (0, 0), None
#     Edge 12, Type (0, 0), None
#     Edge 13, Type (0, 0), None
#     Edge 14, Type (0, 0), None
#     Edge 15, Type (0, 0), None
# Relax obj value: 0.017
# Max RMSD: 0.045
# Mean RMSD: 0.045
data_MOF--net-sxb--node1-JUFBIX_clean_sbu_0--edge1-none
_symmetry_space_group_name_H-M    P1
_symmetry_Int_Tables_number       1
_symmetry_cell_setting            triclinic
loop_
_symmetry_equiv_pos_as_xyz
'x, y, z'
_cell_length_a     6.4857755
_cell_length_b     21.847533
_cell_length_c     13.05999
_cell_angle_alpha  90.0
_cell_angle_beta   90.353562
_cell_angle_gamma 90.0
loop_
_atom_site_label
_atom_site_type_symbol
_atom_site_fract_x
_atom_site_fract_y
_atom_site_fract_z
_atom_type_partial_charge
Co0 Co 0.98425 1.00585 0.01213 0.0
C1 C -0.01373 0.06071 0.20491 0.0
Co2 Co -0.01191 0.10777 1.00973 0.0
C3 C 0.16045 0.88691 0.98156 0.0
C4 C 0.89567 0.88175 0.07847 0.0
N5 N 0.00309 0.92076 0.01891 0.0
N6 N 0.15865 0.8292 0.01768 0.0
C7 C -0.00874 0.82522 0.07795 0.0
H8 H 0.28101 0.90528 0.93369 0.0
H9 H 0.7645 0.89459 0.12452 0.0
C10 C 0.98607 1.0529 0.81695 0.0
N11 N 0.96925 0.19285 1.00294 0.0
C12 C 0.81188 0.2267 0.04029 0.0
C13 C 0.07667 0.23186 0.94339 0.0
N14 N 0.81368 0.28441 1.00417 0.0
C15 C 0.98108 0.2884 0.9439 0.0
C16 C 0.37472 0.05835 0.01139 0.0
O17 O 0.98418 1.00287 0.86668 0.0
O18 O -0.01227 0.1036 0.8647 0.0
O19 O 0.2816 0.10963 1.01025 0.0
O20 O 0.27363 1.00909 0.01316 0.0
O21 O -0.01185 0.11074 0.15517 0.0
H22 H 0.20783 0.21903 0.89734 0.0
H23 H 0.69133 0.20833 0.08816 0.0
O24 O 0.9846 1.01001 0.15715 0.0
O25 O 0.69074 1.00398 0.01161 0.0
O26 O 0.69871 0.10453 1.0087 0.0
C27 C 0.59762 1.05526 1.01047 0.0
H28 H 0.9463 0.78555 0.12207 0.0
H29 H 0.02603 0.32806 0.89979 0.0
Co30 Co -0.01191 1.00585 0.50973 0.0
C31 C 0.98607 0.06071 0.31695 0.0
Co32 Co 0.98425 0.10777 0.51213 0.0
C33 C 0.81188 0.88691 0.54029 0.0
C34 C 0.07667 0.88175 0.44339 0.0
N35 N 0.96925 0.92076 0.50294 0.0
N36 N 0.81368 0.8292 0.50417 0.0
C37 C 0.98108 0.82522 0.4439 0.0
H38 H 0.69133 0.90528 0.58816 0.0
H39 H 0.20783 0.89459 0.39734 0.0
C40 C -0.01373 1.0529 0.70491 0.0
N41 N 0.00309 0.19285 0.51891 0.0
C42 C 0.16045 0.2267 0.48156 0.0
C43 C 0.89567 0.23186 0.57847 0.0
N44 N 0.15865 0.28441 0.51768 0.0
C45 C -0.00874 0.2884 0.57795 0.0
C46 C 0.59762 0.05835 0.51047 0.0
O47 O -0.01185 1.00287 0.65517 0.0
O48 O 0.9846 0.1036 0.65715 0.0
O49 O 0.69074 0.10963 0.51161 0.0
O50 O 0.69871 1.00909 0.5087 0.0
O51 O 0.98418 0.11074 0.36668 0.0
H52 H 0.7645 0.21903 0.62452 0.0
H53 H 0.28101 0.20833 0.43369 0.0
O54 O -0.01227 1.01001 0.3647 0.0
O55 O 0.2816 1.00398 0.51025 0.0
O56 O 0.27363 0.10453 0.51316 0.0
C57 C 0.37472 1.05526 0.51139 0.0
H58 H 0.02603 0.78555 0.39979 0.0
H59 H 0.9463 0.32806 0.62207 0.0
Co60 Co 0.48423 0.50585 0.01213 0.0
C61 C 0.48626 0.56072 0.20491 0.0
Co62 Co 0.48811 0.60777 1.00972 0.0
C63 C 0.6606 0.38693 0.98168 0.0
C64 C 0.39564 0.38174 0.07846 0.0
N65 N 0.50311 0.42075 0.01894 0.0
N66 N 0.65889 0.32923 0.01788 0.0
C67 C 0.49134 0.32522 0.07803 0.0
H68 H 0.78118 0.4053 0.93383 0.0
H69 H 0.26436 0.39456 0.12444 0.0
C70 C 0.48607 0.55289 0.81695 0.0
N71 N 0.46922 0.69286 1.00292 0.0
C72 C 0.31174 0.72669 0.04018 0.0
C73 C 0.57669 0.73187 0.94339 0.0
N74 N 0.31344 0.78438 1.00398 0.0
C75 C 0.481 0.78839 0.94383 0.0
C76 C 0.87472 0.55836 0.01139 0.0
O77 O 0.48417 0.50286 0.86669 0.0
O78 O 0.48775 0.60359 0.8647 0.0
O79 O 0.78162 0.60964 1.01025 0.0
O80 O 0.77361 0.50909 0.01316 0.0
O81 O 0.48816 0.61075 0.15517 0.0
H82 H 0.70798 0.71905 0.89742 0.0
H83 H 0.19115 0.70832 0.08803 0.0
O84 O 0.48459 0.51002 0.15716 0.0
O85 O 0.19072 0.50397 0.01161 0.0
O86 O 0.19873 0.60452 1.0087 0.0
C87 C 0.09762 0.55526 1.01047 0.0
H88 H 0.44634 0.28555 0.12213 0.0
H89 H 0.52599 0.82806 0.89973 0.0
Co90 Co 0.48811 0.50585 0.50972 0.0
C91 C 0.48607 0.56072 0.31695 0.0
Co92 Co 0.48423 0.60777 0.51213 0.0
C93 C 0.31174 0.38693 0.54018 0.0
C94 C 0.57669 0.38174 0.44339 0.0
N95 N 0.46922 0.42075 0.50292 0.0
N96 N 0.31344 0.32923 0.50398 0.0
C97 C 0.481 0.32522 0.44383 0.0
H98 H 0.19115 0.4053 0.58803 0.0
H99 H 0.70798 0.39456 0.39742 0.0
C100 C 0.48626 0.55289 0.70491 0.0
N101 N 0.50311 0.69286 0.51894 0.0
C102 C 0.6606 0.72669 0.48168 0.0
C103 C 0.39564 0.73187 0.57846 0.0
N104 N 0.65889 0.78438 0.51788 0.0
C105 C 0.49134 0.78839 0.57803 0.0
C106 C 0.09762 0.55836 0.51047 0.0
O107 O 0.48816 0.50286 0.65517 0.0
O108 O 0.48459 0.60359 0.65716 0.0
O109 O 0.19072 0.60964 0.51161 0.0
O110 O 0.19873 0.50909 0.5087 0.0
O111 O 0.48417 0.61075 0.36669 0.0
H112 H 0.26436 0.71905 0.62444 0.0
H113 H 0.78118 0.70832 0.43383 0.0
O114 O 0.48775 0.51002 0.3647 0.0
O115 O 0.78162 0.50397 0.51025 0.0
O116 O 0.77361 0.60452 0.51316 0.0
C117 C 0.87472 0.55526 0.51139 0.0
H118 H 0.52599 0.28555 0.39973 0.0
H119 H 0.44634 0.82806 0.62213 0.0
loop_
_geom_bond_atom_site_label_1
_geom_bond_atom_site_label_2
_geom_bond_distance
_geom_bond_site_symmetry_2
_ccdc_geom_bond_type
Co0 N5 2.057 1_556 S
Co0 O17 2.021 1_455 S
Co0 O20 2.062 . S
Co0 O24 2.117 1_556 S
Co0 O25 2.020 1_455 S
C1 O21 1.260 . S
C1 O24 1.258 1_545 S
Co2 N11 2.057 1_554 S
Co2 O18 2.117 1_554 S
Co2 O19 2.020 1_655 S
Co2 O21 2.021 1_655 S
Co2 O26 2.062 . S
C3 N5 1.316 1_556 S
C3 N6 1.347 1_556 S
C3 H8 0.931 . S
C4 N5 1.375 . S
C4 C7 1.350 . S
C4 H9 0.930 . S
N5 Co0 2.057 1_554 S
N5 C3 1.316 1_554 S
N5 C4 1.375 . S
N6 C3 1.347 1_554 S
N6 C7 1.373 . S
C7 C4 1.350 . S
C7 N6 1.373 . S
C7 H28 0.931 . S
H8 C3 0.931 . S
H9 C4 0.930 . S
C10 O17 1.259 . S
C10 O18 1.258 1_565 S
N11 Co2 2.057 1_556 S
N11 C12 1.316 1_556 S
N11 C13 1.375 . S
C12 N11 1.316 1_554 S
C12 N14 1.347 1_554 S
C12 H23 0.931 . S
C13 N11 1.375 . S
C13 C15 1.350 . S
C13 H22 0.930 . S
N14 C12 1.347 1_556 S
N14 C15 1.373 . S
C15 C13 1.350 . S
C15 N14 1.373 . S
C15 H29 0.931 . S
C16 O19 1.256 . S
C16 O20 1.255 1_544 S
O17 Co0 2.021 1_655 S
O17 C10 1.259 . S
O18 Co2 2.117 1_556 S
O18 C10 1.258 1_545 S
O19 Co2 2.020 1_455 S
O19 C16 1.256 . S
O20 Co0 2.062 . S
O20 C16 1.255 1_566 S
O21 C1 1.260 . S
O21 Co2 2.021 1_455 S
H22 C13 0.930 . S
H23 C12 0.931 . S
O24 Co0 2.117 1_554 S
O24 C1 1.258 1_565 S
O25 Co0 2.020 1_655 S
O25 C27 1.256 . S
O26 Co2 2.062 . S
O26 C27 1.255 1_544 S
C27 O25 1.256 . S
C27 O26 1.255 1_566 S
H28 C7 0.931 . S
H29 C15 0.931 . S
Co30 N35 2.057 . S
Co30 O47 2.021 1_655 S
Co30 O50 2.062 . S
Co30 O54 2.117 . S
Co30 O55 2.020 1_655 S
C31 O51 1.259 . S
C31 O54 1.258 1_545 S
Co32 N41 2.057 . S
Co32 O48 2.117 . S
Co32 O49 2.020 1_455 S
Co32 O51 2.021 1_455 S
Co32 O56 2.062 . S
C33 N35 1.316 . S
C33 N36 1.347 . S
C33 H38 0.931 . S
C34 N35 1.375 . S
C34 C37 1.350 . S
C34 H39 0.930 . S
N35 Co30 2.057 . S
N35 C33 1.316 . S
N35 C34 1.375 . S
N36 C33 1.347 . S
N36 C37 1.373 . S
C37 C34 1.350 . S
C37 N36 1.373 . S
C37 H58 0.931 . S
H38 C33 0.931 . S
H39 C34 0.930 . S
C40 O47 1.260 . S
C40 O48 1.258 1_565 S
N41 Co32 2.057 . S
N41 C42 1.316 . S
N41 C43 1.375 . S
C42 N41 1.316 . S
C42 N44 1.347 . S
C42 H53 0.931 . S
C43 N41 1.375 . S
C43 C45 1.350 . S
C43 H52 0.930 . S
N44 C42 1.347 . S
N44 C45 1.373 . S
C45 C43 1.350 . S
C45 N44 1.373 . S
C45 H59 0.931 . S
C46 O49 1.256 . S
C46 O50 1.255 1_545 S
O47 Co30 2.021 1_455 S
O47 C40 1.260 . S
O48 Co32 2.117 . S
O48 C40 1.258 1_545 S
O49 Co32 2.020 1_655 S
O49 C46 1.256 . S
O50 Co30 2.062 . S
O50 C46 1.255 1_565 S
O51 C31 1.259 . S
O51 Co32 2.021 1_655 S
H52 C43 0.930 . S
H53 C42 0.931 . S
O54 Co30 2.117 . S
O54 C31 1.258 1_565 S
O55 Co30 2.020 1_455 S
O55 C57 1.256 . S
O56 Co32 2.062 . S
O56 C57 1.255 1_545 S
C57 O55 1.256 . S
C57 O56 1.255 1_565 S
H58 C37 0.931 . S
H59 C45 0.931 . S
Co60 N65 2.057 1_556 S
Co60 O77 2.021 . S
Co60 O80 2.062 . S
Co60 O84 2.117 1_556 S
Co60 O85 2.020 . S
C61 O81 1.259 . S
C61 O84 1.258 . S
Co62 N71 2.057 1_554 S
Co62 O78 2.117 1_554 S
Co62 O79 2.020 . S
Co62 O81 2.021 . S
Co62 O86 2.062 . S
C63 N65 1.316 1_556 S
C63 N66 1.347 1_556 S
C63 H68 0.931 . S
C64 N65 1.375 . S
C64 C67 1.350 . S
C64 H69 0.930 . S
N65 Co60 2.057 1_554 S
N65 C63 1.316 1_554 S
N65 C64 1.375 . S
N66 C63 1.347 1_554 S
N66 C67 1.373 . S
C67 C64 1.350 . S
C67 N66 1.373 . S
C67 H88 0.931 . S
H68 C63 0.931 . S
H69 C64 0.930 . S
C70 O77 1.259 . S
C70 O78 1.258 . S
N71 Co62 2.057 1_556 S
N71 C72 1.316 1_556 S
N71 C73 1.375 . S
C72 N71 1.316 1_554 S
C72 N74 1.347 1_554 S
C72 H83 0.931 . S
C73 N71 1.375 . S
C73 C75 1.350 . S
C73 H82 0.930 . S
N74 C72 1.347 1_556 S
N74 C75 1.373 . S
C75 C73 1.350 . S
C75 N74 1.373 . S
C75 H89 0.931 . S
C76 O79 1.256 . S
C76 O80 1.255 1_554 S
O77 Co60 2.021 . S
O77 C70 1.259 . S
O78 Co62 2.117 1_556 S
O78 C70 1.258 . S
O79 Co62 2.020 . S
O79 C76 1.256 . S
O80 Co60 2.062 . S
O80 C76 1.255 1_556 S
O81 C61 1.259 . S
O81 Co62 2.021 . S
H82 C73 0.930 . S
H83 C72 0.931 . S
O84 Co60 2.117 1_554 S
O84 C61 1.258 . S
O85 Co60 2.020 . S
O85 C87 1.256 . S
O86 Co62 2.062 . S
O86 C87 1.255 1_554 S
C87 O85 1.256 . S
C87 O86 1.255 1_556 S
H88 C67 0.931 . S
H89 C75 0.931 . S
Co90 N95 2.057 . S
Co90 O107 2.021 . S
Co90 O110 2.062 . S
Co90 O114 2.117 . S
Co90 O115 2.020 . S
C91 O111 1.259 . S
C91 O114 1.258 . S
Co92 N101 2.057 . S
Co92 O108 2.117 . S
Co92 O109 2.020 . S
Co92 O111 2.021 . S
Co92 O116 2.062 . S
C93 N95 1.316 . S
C93 N96 1.347 . S
C93 H98 0.931 . S
C94 N95 1.375 . S
C94 C97 1.350 . S
C94 H99 0.930 . S
N95 Co90 2.057 . S
N95 C93 1.316 . S
N95 C94 1.375 . S
N96 C93 1.347 . S
N96 C97 1.373 . S
C97 C94 1.350 . S
C97 N96 1.373 . S
C97 H118 0.931 . S
H98 C93 0.931 . S
H99 C94 0.930 . S
C100 O107 1.259 . S
C100 O108 1.258 . S
N101 Co92 2.057 . S
N101 C102 1.316 . S
N101 C103 1.375 . S
C102 N101 1.316 . S
C102 N104 1.347 . S
C102 H113 0.931 . S
C103 N101 1.375 . S
C103 C105 1.350 . S
C103 H112 0.930 . S
N104 C102 1.347 . S
N104 C105 1.373 . S
C105 C103 1.350 . S
C105 N104 1.373 . S
C105 H119 0.931 . S
C106 O109 1.256 . S
C106 O110 1.255 . S
O107 Co90 2.021 . S
O107 C100 1.259 . S
O108 Co92 2.117 . S
O108 C100 1.258 . S
O109 Co92 2.020 . S
O109 C106 1.256 . S
O110 Co90 2.062 . S
O110 C106 1.255 . S
O111 C91 1.259 . S
O111 Co92 2.021 . S
H112 C103 0.930 . S
H113 C102 0.931 . S
O114 Co90 2.117 . S
O114 C91 1.258 . S
O115 Co90 2.020 . S
O115 C117 1.256 . S
O116 Co92 2.062 . S
O116 C117 1.255 . S
C117 O115 1.256 . S
C117 O116 1.255 . S
H118 C97 0.931 . S
H119 C105 0.931 . S
N74 N6 1.686 1_556 S
N66 N14 1.685 1_554 S
N44 N96 1.684 . S
N36 N104 1.687 . S
C16 C27 1.175 1_544 S
C57 C46 1.175 1_565 S
C76 C87 1.175 1_654 S
C106 C117 1.175 1_455 S
C31 C1 1.494 1_655 S
C10 C40 1.496 1_655 S
C91 C61 1.494 . S
C100 C70 1.496 . S
