# Generated by pormake.
# Topology hex, (8)-cn, num edge types: 1
# Building blocks:
#     Node 0, Type 0, BuildingBlock: AJUNOK_clean_sbu_0, # of connection points: 8
#     Edge 1, Type (0, 0), BuildingBlock: XIVTED_clean_linker_0, # of connection points: 2
#     Edge 2, Type (0, 0), BuildingBlock: XIVTED_clean_linker_0, # of connection points: 2
#     Edge 3, Type (0, 0), BuildingBlock: XIVTED_clean_linker_0, # of connection points: 2
#     Edge 4, Type (0, 0), BuildingBlock: XIVTED_clean_linker_0, # of connection points: 2
# Relax obj value: 0.045
# Max RMSD: 0.091
# Mean RMSD: 0.091
data_MOF--net-hex--node1-AJUNOK_clean_sbu_0--edge1-XIVTED_clean_linker_0
_symmetry_space_group_name_H-M    P1
_symmetry_Int_Tables_number       1
_symmetry_cell_setting            triclinic
loop_
_symmetry_equiv_pos_as_xyz
'x, y, z'
_cell_length_a     21.292173
_cell_length_b     21.407626
_cell_length_c     15.468306
_cell_angle_alpha  90.967716
_cell_angle_beta   91.946423
_cell_angle_gamma 124.84019
loop_
_atom_site_label
_atom_site_type_symbol
_atom_site_fract_x
_atom_site_fract_y
_atom_site_fract_z
_atom_type_partial_charge
Cd0 Cd 0.08377 0.05639 -0.00359 0.0
Cd1 Cd 0.86524 0.83565 -0.0129 0.0
C2 C -0.01855 0.11173 0.06046 0.0
N3 N -0.00411 0.08768 -0.0133 0.0
C4 C 0.94719 0.14378 0.89993 0.0
C5 C 0.93715 0.17461 0.9749 0.0
C6 C 0.95141 0.15509 0.05605 0.0
C7 C -0.02208 0.10128 0.90733 0.0
H8 H -0.00091 0.10262 0.12265 0.0
H9 H -0.00765 0.0838 0.84969 0.0
C10 C -0.01939 0.92958 0.81383 0.0
C11 C 0.89582 0.71831 0.90334 0.0
C12 C 0.90405 0.65817 0.89887 0.0
C13 C 0.92225 0.6352 0.9747 0.0
C14 C 0.93529 0.67624 0.05295 0.0
C15 C 0.92683 0.73638 0.05441 0.0
N16 N 0.90647 0.75547 0.98041 0.0
H17 H 0.87682 0.73257 0.84603 0.0
H18 H 0.93283 0.76526 0.11533 0.0
C19 C 0.81478 0.9367 0.90088 0.0
N20 N 0.83284 0.92224 0.97968 0.0
C21 C 0.76909 -0.03038 0.0505 0.0
C22 C 0.74505 -0.01954 0.96971 0.0
C23 C 0.77178 -0.03288 0.89448 0.0
C24 C 0.81281 0.93985 0.05395 0.0
H25 H 0.82914 0.91987 0.84267 0.0
H26 H 0.82539 0.925 0.1155 0.0
C27 C -0.01037 0.94198 0.17067 0.0
C28 C 0.2082 0.21186 0.00092 0.0
N29 N 0.16472 0.01597 -0.01124 0.0
C30 C 0.18887 -0.00039 0.06198 0.0
C31 C 0.2495 -0.00849 0.06021 0.0
C32 C 0.28574 0.00076 0.98248 0.0
C33 C 0.25755 0.01485 0.90734 0.0
C34 C 0.19712 0.02286 0.91211 0.0
C35 C 0.70953 0.71176 -0.00845 0.0
O36 O 0.03321 -0.01169 0.85772 0.0
O37 O 0.92215 0.87531 0.84881 0.0
O38 O 0.93184 0.88787 0.12667 0.0
O39 O 0.04312 0.00075 0.13531 0.0
O40 O 0.17546 0.17459 0.93008 0.0
O41 O 0.18298 0.17643 0.07003 0.0
O42 O 0.75154 0.74231 0.06045 0.0
O43 O 0.74036 0.7389 0.92062 0.0
H44 H 0.16369 -0.00352 0.12265 0.0
H45 H 0.17885 0.03866 0.85554 0.0
H46 H 0.93579 0.15616 0.83603 0.0
H47 H 0.94568 0.17826 0.11564 0.0
H48 H 0.89222 0.62742 0.83744 0.0
H49 H 0.94996 0.66078 0.1128 0.0
H50 H 0.74917 -0.0221 0.11022 0.0
H51 H 0.75589 -0.02419 0.83089 0.0
H52 H 0.26905 -0.01995 0.1195 0.0
H53 H 0.2845 0.02366 0.84639 0.0
H54 H 0.85121 0.2019 0.07829 0.0
H55 H -0.01854 0.5905 0.85304 0.0
H56 H -0.00588 0.28794 0.85912 0.0
H57 H 0.863 0.52154 0.09079 0.0
H58 H -0.02305 0.47389 0.84783 0.0
H59 H 0.84427 0.31221 0.07685 0.0
C60 C 0.88053 0.24343 0.02942 0.0
C61 C 0.92325 0.23521 0.96873 0.0
C62 C 0.95199 0.48424 0.90125 0.0
C63 C 0.91568 0.36176 0.96686 0.0
C64 C 0.95443 0.55079 0.90413 0.0
C65 C 0.92291 0.5661 0.97266 0.0
C66 C 0.91746 0.43216 0.96716 0.0
C67 C 0.88915 0.51274 0.03747 0.0
C68 C 0.87657 0.30643 0.02867 0.0
C69 C 0.95938 0.2907 0.90639 0.0
N70 N 0.88722 0.44814 0.03308 0.0
N71 N 0.95508 0.35158 0.90743 0.0
H72 H 0.62514 0.92024 0.84888 0.0
H73 H 0.4076 0.066 0.10164 0.0
H74 H 0.72308 0.06953 0.07832 0.0
H75 H 0.32339 0.93632 0.858 0.0
H76 H 0.52364 0.06858 0.09468 0.0
H77 H 0.51689 0.92981 0.84904 0.0
C78 C 0.62496 -0.04355 0.89843 0.0
C79 C 0.68396 -0.00569 0.96368 0.0
C80 C 0.47983 0.03965 0.0427 0.0
C81 C 0.55775 0.00339 0.96565 0.0
C82 C 0.41317 0.03746 0.04703 0.0
C83 C 0.35535 0.00046 0.9805 0.0
C84 C 0.48874 0.00428 0.97152 0.0
C85 C 0.36657 -0.03409 0.91046 0.0
C86 C 0.56232 -0.03888 0.89897 0.0
C87 C 0.67872 0.0386 0.0273 0.0
N88 N 0.43174 -0.03154 0.90798 0.0
N89 N 0.61648 0.04147 0.02704 0.0
H90 H 0.29344 0.30435 0.14215 0.0
H91 H 0.60607 0.63666 0.85468 0.0
H92 H 0.2735 0.30109 0.86309 0.0
H93 H 0.63085 0.63712 0.13298 0.0
H94 H 0.47661 0.52103 0.85828 0.0
H95 H 0.40975 0.43364 0.14183 0.0
C96 C 0.31325 0.33109 0.08088 0.0
C97 C 0.2745 0.2918 0.00245 0.0
C98 C 0.51013 0.5467 0.91865 0.0
C99 C 0.40723 0.43919 0.00156 0.0
C100 C 0.58402 0.61265 0.91661 0.0
C101 C 0.6294 0.6458 -0.00644 0.0
C102 C 0.48171 0.5136 -0.00183 0.0
C103 C 0.5979 0.61287 0.07207 0.0
C104 C 0.37958 0.40484 0.08073 0.0
C105 C 0.30217 0.32916 0.92498 0.0
N106 N 0.52608 0.54808 0.0723 0.0
N107 N 0.36729 0.40065 0.92645 0.0
H108 H 0.87968 0.81387 0.69762 0.0
H109 H 0.10352 0.04613 0.28721 0.0
H110 H 0.09442 0.03661 0.71513 0.0
H111 H 0.88579 0.82607 0.26963 0.0
H112 H 0.10634 0.03891 0.44427 0.0
H113 H 0.88636 0.81259 0.54063 0.0
C114 C 0.92844 0.86236 0.66854 0.0
C115 C -0.01377 0.92577 0.71951 0.0
C116 C 0.05811 -0.00792 0.406 0.0
C117 C -0.00592 0.92468 0.53999 0.0
C118 C 0.05641 -0.00383 0.31631 0.0
C119 C -0.00605 0.93693 0.26528 0.0
C120 C -0.00313 0.92838 0.44488 0.0
C121 C 0.93482 0.87335 0.30647 0.0
C122 C 0.9322 0.86156 0.57889 0.0
C123 C 0.04829 -0.01328 0.67835 0.0
N124 N 0.93756 0.87097 0.39397 0.0
N125 N 0.05032 -0.01516 0.59088 0.0
loop_
_geom_bond_atom_site_label_1
_geom_bond_atom_site_label_2
_geom_bond_distance
_geom_bond_site_symmetry_2
_ccdc_geom_bond_type
Cd0 N3 2.334 . S
Cd0 N29 2.304 . S
Cd0 O36 2.268 1_554 S
Cd0 O39 2.273 . S
Cd0 O40 2.417 1_554 S
Cd0 O41 2.330 . S
Cd1 N16 2.304 . S
Cd1 N20 2.334 . S
Cd1 O37 2.273 . S
Cd1 O38 2.268 1_556 S
Cd1 O42 2.417 1_556 S
Cd1 O43 2.330 . S
C2 N3 1.332 . S
C2 C6 1.381 . S
C2 H8 0.931 . S
N3 Cd0 2.334 . S
N3 C2 1.332 . S
N3 C7 1.328 1_554 S
C4 C5 1.396 1_556 S
C4 C7 1.378 1_655 S
C4 H46 0.931 . S
C5 C4 1.396 1_554 S
C5 C6 1.382 1_655 S
C6 C2 1.381 . S
C6 C5 1.382 1_455 S
C6 H47 0.930 . S
C7 N3 1.328 1_556 S
C7 C4 1.378 1_455 S
C7 H9 0.930 . S
H8 C2 0.931 . S
H9 C7 0.930 . S
C10 O36 1.238 1_665 S
C10 O37 1.253 . S
C11 C12 1.379 . S
C11 N16 1.337 . S
C11 H17 0.929 . S
C12 C11 1.379 . S
C12 C13 1.380 1_655 S
C12 H48 0.929 . S
C13 C12 1.380 1_455 S
C13 C14 1.399 1_556 S
C14 C13 1.399 1_554 S
C14 C15 1.376 1_455 S
C14 H49 0.931 . S
C15 C14 1.376 1_655 S
C15 N16 1.338 1_554 S
C15 H18 0.930 . S
N16 Cd1 2.304 . S
N16 C11 1.337 . S
N16 C15 1.338 1_556 S
H17 C11 0.929 . S
H18 C15 0.930 . S
C19 N20 1.332 . S
C19 C23 1.381 . S
C19 H25 0.931 . S
N20 Cd1 2.334 . S
N20 C19 1.332 . S
N20 C24 1.328 1_556 S
C21 C22 1.396 1_554 S
C21 C24 1.378 1_545 S
C21 H50 0.931 . S
C22 C21 1.396 1_556 S
C22 C23 1.382 1_545 S
C23 C19 1.381 . S
C23 C22 1.382 1_565 S
C23 H51 0.930 . S
C24 N20 1.328 1_554 S
C24 C21 1.378 1_565 S
C24 H26 0.930 . S
H25 C19 0.931 . S
H26 C24 0.930 . S
C27 O38 1.238 1_445 S
C27 O39 1.253 . S
C28 O40 1.239 . S
C28 O41 1.230 1_556 S
N29 Cd0 2.304 . S
N29 C30 1.337 . S
N29 C34 1.338 1_554 S
C30 N29 1.337 . S
C30 C31 1.379 . S
C30 H44 0.929 . S
C31 C30 1.379 . S
C31 C32 1.380 1_545 S
C31 H52 0.929 . S
C32 C31 1.380 1_565 S
C32 C33 1.399 1_554 S
C33 C32 1.399 1_556 S
C33 C34 1.376 1_565 S
C33 H53 0.931 . S
C34 N29 1.338 1_556 S
C34 C33 1.376 1_545 S
C34 H45 0.930 . S
C35 O42 1.239 . S
C35 O43 1.230 1_554 S
O36 Cd0 2.268 1_556 S
O36 C10 1.238 1_445 S
O37 Cd1 2.273 . S
O37 C10 1.253 . S
O38 Cd1 2.268 1_554 S
O38 C27 1.238 1_665 S
O39 Cd0 2.273 . S
O39 C27 1.253 . S
O40 Cd0 2.417 1_556 S
O40 C28 1.239 . S
O41 Cd0 2.330 . S
O41 C28 1.230 1_554 S
O42 Cd1 2.417 1_554 S
O42 C35 1.239 . S
O43 Cd1 2.330 . S
O43 C35 1.230 1_556 S
H44 C30 0.929 . S
H45 C34 0.930 . S
H46 C4 0.931 . S
H47 C6 0.930 . S
H48 C12 0.929 . S
H49 C14 0.931 . S
H50 C21 0.931 . S
H51 C23 0.930 . S
H52 C31 0.929 . S
H53 C33 0.931 . S
H54 C60 0.930 . S
H55 C64 0.930 . S
H56 C69 0.929 . S
H57 C67 0.929 . S
H58 C62 0.929 1_655 S
H59 C68 0.929 1_455 S
C60 H54 0.930 . S
C60 C61 1.367 . S
C60 C68 1.378 . S
C61 C60 1.367 . S
C61 C69 1.433 1_554 S
C62 H58 0.929 1_455 S
C62 C64 1.378 . S
C62 C66 1.350 . S
C63 C66 1.463 1_654 S
C63 C68 1.350 . S
C63 N71 1.427 1_554 S
C64 H55 0.930 . S
C64 C62 1.378 . S
C64 C65 1.367 . S
C65 C64 1.367 . S
C65 C67 1.433 1_556 S
C66 C62 1.350 . S
C66 C63 1.463 1_456 S
C66 N70 1.427 1_556 S
C67 H57 0.929 . S
C67 C65 1.433 1_554 S
C67 N70 1.384 . S
C68 H59 0.929 1_655 S
C68 C60 1.378 . S
C68 C63 1.350 . S
C69 H56 0.929 . S
C69 C61 1.433 1_556 S
C69 N71 1.384 . S
N70 C66 1.427 1_554 S
N70 C67 1.384 . S
N71 C63 1.427 1_556 S
N71 C69 1.384 . S
H72 C78 0.930 . S
H73 C82 0.930 . S
H74 C87 0.929 . S
H75 C85 0.929 . S
H76 C80 0.929 . S
H77 C86 0.929 . S
C78 H72 0.930 . S
C78 C79 1.367 1_565 S
C78 C86 1.378 . S
C79 C78 1.367 1_545 S
C79 C87 1.433 1_556 S
C80 H76 0.929 . S
C80 C82 1.378 . S
C80 C84 1.350 1_545 S
C81 C84 1.463 1_546 S
C81 C86 1.350 1_545 S
C81 N89 1.427 1_556 S
C82 H73 0.930 . S
C82 C80 1.378 . S
C82 C83 1.367 1_545 S
C83 C82 1.367 1_565 S
C83 C85 1.433 1_554 S
C84 C80 1.350 1_565 S
C84 C81 1.463 1_564 S
C84 N88 1.427 1_554 S
C85 H75 0.929 . S
C85 C83 1.433 1_556 S
C85 N88 1.384 . S
C86 H77 0.929 . S
C86 C78 1.378 . S
C86 C81 1.350 1_565 S
C87 H74 0.929 . S
C87 C79 1.433 1_554 S
C87 N89 1.384 . S
N88 C84 1.427 1_556 S
N88 C85 1.384 . S
N89 C81 1.427 1_554 S
N89 C87 1.384 . S
H90 C96 0.930 . S
H91 C100 0.930 . S
H92 C105 0.929 . S
H93 C103 0.929 . S
H94 C98 0.929 . S
H95 C104 0.929 . S
C96 H90 0.930 . S
C96 C97 1.367 1_554 S
C96 C104 1.378 . S
C97 C96 1.367 1_556 S
C97 C105 1.433 . S
C98 H94 0.929 . S
C98 C100 1.378 . S
C98 C102 1.344 1_556 S
C99 C102 1.463 1_556 S
C99 C104 1.346 1_556 S
C99 N107 1.431 . S
C100 H91 0.930 . S
C100 C98 1.378 . S
C100 C101 1.367 1_556 S
C101 C100 1.367 1_554 S
C101 C103 1.433 . S
C102 C98 1.344 1_554 S
C102 C99 1.463 1_554 S
C102 N106 1.434 . S
C103 H93 0.929 . S
C103 C101 1.433 . S
C103 N106 1.384 . S
C104 H95 0.929 . S
C104 C96 1.378 . S
C104 C99 1.346 1_554 S
C105 H92 0.929 . S
C105 C97 1.433 . S
C105 N107 1.384 . S
N106 C102 1.434 . S
N106 C103 1.384 . S
N107 C99 1.431 . S
N107 C105 1.384 . S
H108 C114 0.930 . S
H109 C118 0.930 . S
H110 C123 0.929 . S
H111 C121 0.929 . S
H112 C116 0.929 . S
H113 C122 0.929 . S
C114 H108 0.930 . S
C114 C115 1.367 . S
C114 C122 1.378 . S
C115 C114 1.367 . S
C115 C123 1.433 1_665 S
C116 H112 0.929 . S
C116 C118 1.378 . S
C116 C120 1.350 . S
C117 C120 1.463 1_665 S
C117 C122 1.350 . S
C117 N125 1.427 1_665 S
C118 H109 0.930 . S
C118 C116 1.378 . S
C118 C119 1.376 . S
C119 C118 1.376 . S
C119 C121 1.423 1_445 S
C120 C116 1.350 . S
C120 C117 1.463 1_445 S
C120 N124 1.427 1_445 S
C121 H111 0.929 . S
C121 C119 1.423 1_665 S
C121 N124 1.384 . S
C122 H113 0.929 . S
C122 C114 1.378 . S
C122 C117 1.350 . S
C123 H110 0.929 . S
C123 C115 1.433 1_445 S
C123 N125 1.384 . S
N124 C120 1.427 1_665 S
N124 C121 1.384 . S
N125 C117 1.427 1_445 S
N125 C123 1.384 . S
C61 C5 1.886 . S
C65 C13 1.885 . S
C79 C22 1.882 . S
C83 C32 1.880 . S
C97 C28 0.498 . S
C101 C35 0.498 . S
C115 C10 1.476 . S
C119 C27 1.478 . S
