# Generated by pormake.
# Topology vme, (6)-cn, num edge types: 1
# Building blocks:
#     Node 0, Type 0, BuildingBlock: IZENUY_clean_sbu_0, # of connection points: 6
#     Node 1, Type 0, BuildingBlock: IZENUY_clean_sbu_0, # of connection points: 6
#     Node 2, Type 0, BuildingBlock: IZENUY_clean_sbu_0, # of connection points: 6
#     Node 3, Type 0, BuildingBlock: IZENUY_clean_sbu_0, # of connection points: 6
#     Edge 4, Type (0, 0), BuildingBlock: AJUNOK_clean_linker_0, # of connection points: 2
#     Edge 5, Type (0, 0), BuildingBlock: AJUNOK_clean_linker_0, # of connection points: 2
#     Edge 6, Type (0, 0), BuildingBlock: AJUNOK_clean_linker_0, # of connection points: 2
#     Edge 7, Type (0, 0), BuildingBlock: AJUNOK_clean_linker_0, # of connection points: 2
#     Edge 8, Type (0, 0), BuildingBlock: AJUNOK_clean_linker_0, # of connection points: 2
#     Edge 9, Type (0, 0), BuildingBlock: AJUNOK_clean_linker_0, # of connection points: 2
#     Edge 10, Type (0, 0), BuildingBlock: AJUNOK_clean_linker_0, # of connection points: 2
#     Edge 11, Type (0, 0), BuildingBlock: AJUNOK_clean_linker_0, # of connection points: 2
#     Edge 12, Type (0, 0), BuildingBlock: AJUNOK_clean_linker_0, # of connection points: 2
#     Edge 13, Type (0, 0), BuildingBlock: AJUNOK_clean_linker_0, # of connection points: 2
#     Edge 14, Type (0, 0), BuildingBlock: AJUNOK_clean_linker_0, # of connection points: 2
#     Edge 15, Type (0, 0), BuildingBlock: AJUNOK_clean_linker_0, # of connection points: 2
# Relax obj value: 0.239
# Max RMSD: 0.244
# Mean RMSD: 0.244
data_MOF--net-vme--node1-IZENUY_clean_sbu_0--edge1-AJUNOK_clean_linker_0
_symmetry_space_group_name_H-M    P1
_symmetry_Int_Tables_number       1
_symmetry_cell_setting            triclinic
loop_
_symmetry_equiv_pos_as_xyz
'x, y, z'
_cell_length_a     19.12575
_cell_length_b     19.002024
_cell_length_c     20.586561
_cell_angle_alpha  89.80821
_cell_angle_beta   117.52029
_cell_angle_gamma 90.194555
loop_
_atom_site_label
_atom_site_type_symbol
_atom_site_fract_x
_atom_site_fract_y
_atom_site_fract_z
_atom_type_partial_charge
Fe0 Fe 0.13053 0.3927 0.34367 0.0
Fe1 Fe 0.28979 0.32055 0.42862 0.0
O2 O 0.2234 0.38778 0.42055 0.0
Fe3 Fe 0.24843 0.44934 0.49107 0.0
O4 O 0.17016 0.41762 0.5072 0.0
O5 O 0.07983 0.43217 0.39482 0.0
O6 O 0.10295 0.3082 0.36325 0.0
C7 C 0.13822 0.25294 0.36235 0.0
C8 C 0.15904 0.52951 0.35943 0.0
O9 O 0.21043 0.25485 0.37566 0.0
C10 C 0.38574 0.44424 0.48477 0.0
O11 O 0.16544 0.35438 0.28032 0.0
O12 O 0.29418 0.35035 0.34744 0.0
O13 O 0.18767 0.52205 0.42873 0.0
O14 O 0.15491 0.47725 0.32092 0.0
C15 C 0.29933 0.32176 0.56458 0.0
O16 O 0.37945 0.37689 0.48205 0.0
O17 O 0.32877 0.48161 0.478 0.0
C18 C 0.23443 0.34976 0.28563 0.0
O19 O 0.28605 0.28639 0.50874 0.0
O20 O 0.31097 0.38763 0.56491 0.0
C21 C 0.10021 0.43026 0.46334 0.0
Fe22 Fe 0.78586 0.82031 0.14733 0.0
Fe23 Fe 0.8238 0.94979 0.08285 0.0
O24 O 0.84965 0.89004 0.15529 0.0
Fe25 Fe 0.94051 0.90014 0.23409 0.0
O26 O 0.97454 0.81691 0.22054 0.0
O27 O 0.86768 0.75775 0.20264 0.0
O28 O 0.79311 0.78589 0.06962 0.0
C29 C 0.77982 0.82023 1.01318 0.0
C30 C 0.83528 0.84981 0.28873 0.0
O31 O 0.76507 0.88555 1.01039 0.0
C32 C 0.90641 0.03542 0.21124 0.0
O33 O 0.69433 0.87324 0.09119 0.0
O34 O 0.74083 0.97977 0.09252 0.0
O35 O 0.90481 0.86096 0.29697 0.0
O36 O 0.7775 0.85 0.22587 0.0
C37 C 0.97396 0.93453 0.11551 0.0
O38 O 0.88062 0.02507 0.14275 0.0
O39 O 0.90976 0.98421 0.25114 0.0
C40 C 0.68507 0.9403 0.08578 0.0
O41 O 0.90481 0.91987 0.07078 0.0
O42 O 0.99204 0.94 0.1834 0.0
C43 C 0.94113 0.75987 0.22004 0.0
Fe44 Fe 0.82669 0.58313 0.5857 0.0
Fe45 Fe 0.94404 0.63589 0.73523 0.0
O46 O 0.85245 0.64377 0.65703 0.0
Fe47 Fe 0.78779 0.71251 0.64867 0.0
O48 O 0.79379 0.74692 0.57026 0.0
O49 O 0.7669 0.64656 0.51238 0.0
O50 O 0.90652 0.61362 0.57178 0.0
C51 C 0.97632 0.60129 0.61632 0.0
C52 C 0.688 0.59141 0.58857 0.0
O53 O 0.99531 0.59638 0.68448 0.0
C54 C 0.83881 0.68394 0.79047 0.0
O55 O 0.88514 0.50893 0.64697 0.0
O56 O 0.91587 0.55154 0.75499 0.0
O57 O 0.69689 0.65851 0.59321 0.0
O58 O 0.74436 0.55233 0.59674 0.0
C59 C 0.9419 0.77593 0.71932 0.0
O60 O 0.90846 0.6748 0.79822 0.0
O61 O 0.7807 0.68221 0.72782 0.0
C62 C 0.91141 0.49967 0.7158 0.0
O63 O 0.97558 0.71962 0.71876 0.0
O64 O 0.86879 0.77651 0.70321 0.0
C65 C 0.78067 0.71219 0.51421 0.0
Fe66 Fe 0.29303 0.21405 0.93222 0.0
Fe67 Fe 0.24641 0.08713 0.99379 0.0
O68 O 0.22442 0.14823 0.92325 0.0
Fe69 Fe 0.13165 0.14493 0.84551 0.0
O70 O 0.10661 0.22965 0.86613 0.0
O71 O 0.21566 0.28138 0.87958 0.0
O72 O 0.29091 0.249 1.01245 0.0
C73 C 0.30147 0.21415 0.06805 0.0
C74 C 0.23809 0.18858 0.78922 0.0
O75 O 0.30934 0.1478 0.06807 0.0
C76 C 0.15799 1.00723 0.86181 0.0
O77 O 0.38066 0.15603 0.98559 0.0
O78 O 0.32716 0.05269 0.98309 0.0
O79 O 0.16843 0.18317 0.78271 0.0
O80 O 0.29674 0.18369 0.85142 0.0
C81 C 0.09789 0.10857 0.96336 0.0
O82 O 0.18525 1.01534 0.93089 0.0
O83 O 0.15288 0.05944 0.82221 0.0
C84 C 0.38513 0.08865 0.98947 0.0
O85 O 0.16768 0.12106 1.00783 0.0
O86 O 0.07884 0.10616 0.89521 0.0
C87 C 0.14385 0.28446 0.86733 0.0
C88 C 1.00794 0.09353 0.32542 0.0
C89 C 0.96148 0.09489 0.24829 0.0
C90 C 0.06916 0.14194 0.36195 0.0
C91 C 0.08655 0.19361 0.32304 0.0
H92 H 0.99793 0.05403 0.35828 0.0
H93 H 0.10203 0.13977 0.42112 0.0
S94 S 0.98118 0.22441 0.12235 0.0
N95 N 0.93628 0.15542 0.13524 0.0
N96 N 0.05102 0.24645 0.20432 0.0
C97 C 0.04027 0.19678 0.2465 0.0
C98 C 0.97775 0.14763 0.20909 0.0
C99 C 0.1199 0.65615 0.3517 0.0
C100 C 0.10428 0.58834 0.32174 0.0
C101 C 0.06614 0.71102 0.31823 0.0
C102 C 0.99372 0.6996 0.25492 0.0
H103 H 0.17406 0.66693 0.40102 0.0
H104 H 0.08098 0.76285 0.34274 0.0
S105 S 0.92222 0.53127 0.15675 0.0
N106 N 1.00955 0.51251 0.22513 0.0
N107 N 0.90837 0.61586 0.16461 0.0
C108 C 0.9765 0.63207 0.22519 0.0
C109 C 1.0319 0.57644 0.25791 0.0
C110 C 0.03987 0.95516 0.75582 0.0
C111 C 0.1066 0.94597 0.82498 0.0
C112 C 0.98445 0.90112 0.72279 0.0
C113 C 0.99463 0.8355 0.75695 0.0
H114 H 1.02892 1.00522 0.72753 0.0
H115 H 0.93434 0.9103 0.66978 0.0
S116 S 0.15734 0.78394 0.93789 0.0
N117 N 0.17783 0.86617 0.92655 0.0
N118 N 0.07533 0.76381 0.86364 0.0
C119 C 0.06112 0.82522 0.82558 0.0
C120 C 0.11664 0.88059 0.85981 0.0
C121 C 0.99811 0.39978 0.71744 0.0
C122 C 0.96551 0.44013 0.75401 0.0
C123 C 0.06155 0.35389 0.75602 0.0
C124 C 0.09394 0.34581 0.83241 0.0
H125 H 0.97583 0.40482 0.6588 0.0
H126 H 0.08368 0.32265 0.72554 0.0
S127 S 1.0251 0.43175 0.95347 0.0
N128 N 0.96792 0.46445 0.87136 0.0
N129 N 0.08523 0.3765 0.94246 0.0
C130 C 0.06029 0.38332 0.8693 0.0
C131 C 0.99644 0.4306 0.83049 0.0
C132 C 0.06292 0.5048 0.61387 0.0
C133 C 1.01967 0.56583 0.58211 0.0
C134 C 0.08132 0.45739 0.57206 0.0
C135 C 0.05892 0.46985 0.49713 0.0
H136 H 0.07999 0.49214 0.6705 0.0
H137 H 0.11567 0.41123 0.59935 0.0
S138 S 0.94778 0.62456 0.38923 0.0
N139 N 0.95761 0.63827 0.47209 0.0
N140 N 0.99197 0.54886 0.3938 0.0
C141 C 1.01661 0.53131 0.46507 0.0
C142 C 0.99836 0.57982 0.50773 0.0
C143 C 0.0562 0.03507 0.1121 0.0
C144 C 1.01626 0.97223 0.08135 0.0
C145 C 0.07522 0.08246 0.07033 0.0
C146 C 0.05546 0.06891 0.99626 0.0
H147 H 0.07011 0.04914 0.16771 0.0
H148 H 0.1077 0.12962 0.09694 0.0
S149 S 0.94874 0.91198 0.88989 0.0
N150 N 0.95777 0.89832 0.97253 0.0
N151 N 0.99168 0.98852 0.89394 0.0
C152 C 1.01489 1.00653 0.96479 0.0
C153 C 0.99685 0.95763 1.00759 0.0
C154 C 0.26623 0.21075 0.17127 0.0
C155 C 0.28991 0.24994 0.12663 0.0
C156 C 0.24427 0.24414 0.21981 0.0
C157 C 0.24561 0.31789 0.22598 0.0
H158 H 0.26287 0.15388 0.16765 0.0
H159 H 0.22734 0.21186 0.25374 0.0
S160 S 0.305 0.44511 0.12421 0.0
N161 N 0.31398 0.36744 0.09304 0.0
N162 N 0.27442 0.42917 0.18588 0.0
C163 C 0.27 0.3578 0.18288 0.0
C164 C 0.29166 0.32409 0.13281 0.0
C165 C 0.75802 0.77046 0.3292 0.0
C166 C 0.82229 0.81724 0.34793 0.0
C167 C 0.74528 0.73537 0.38284 0.0
C168 C 0.79514 0.74699 0.45724 0.0
H169 H 0.71768 0.75961 0.27236 0.0
H170 H 0.69549 0.69987 0.36599 0.0
S171 S 0.97374 0.86078 0.53598 0.0
N172 N 0.93806 0.87031 0.44652 0.0
N173 N 0.9133 0.80594 0.54765 0.0
C174 C 0.85992 0.79304 0.47697 0.0
C175 C 0.87375 0.82769 0.42229 0.0
C176 C 0.74407 0.79402 0.88256 0.0
C177 C 0.79569 0.78585 0.95711 0.0
C178 C 0.758 0.75923 0.82974 0.0
C179 C 0.82521 0.71624 0.84931 0.0
H180 H 0.69199 0.82651 0.86501 0.0
H181 H 0.71605 0.76733 0.77276 0.0
S182 S 0.98183 0.68292 0.03807 0.0
N183 N 0.91838 0.73436 0.04862 0.0
N184 N 0.94549 0.67064 0.94892 0.0
C185 C 0.87838 0.70933 0.92383 0.0
C186 C 0.86333 0.74363 0.97777 0.0
C187 C 0.3262 0.25141 0.74747 0.0
C188 C 0.25247 0.21936 0.7296 0.0
C189 C 0.3409 0.28593 0.69456 0.0
C190 C 0.2832 0.28841 0.62132 0.0
H191 H 0.373 0.25125 0.80335 0.0
H192 H 0.39807 0.3099 0.71087 0.0
S193 S 0.08035 0.21538 0.5448 0.0
N194 N 0.12065 0.19494 0.63271 0.0
N195 N 0.14924 0.25752 0.5329 0.0
C196 C 0.20955 0.2566 0.60223 0.0
C197 C 0.19393 0.22271 0.65635 0.0
C198 C 0.53438 0.44639 0.54611 0.0
C199 C 0.46235 0.48153 0.50732 0.0
C200 C 0.60637 0.48302 0.57339 0.0
C201 C 0.60971 0.55645 0.5631 0.0
H202 H 0.53529 0.39046 0.55684 0.0
H203 H 0.66014 0.4532 0.60318 0.0
S204 S 0.43789 0.67268 0.46105 0.0
N205 N 0.399 0.59411 0.45691 0.0
N206 N 0.53414 0.66213 0.5088 0.0
C207 C 0.5382 0.59211 0.52377 0.0
C208 C 0.4648 0.55488 0.4956 0.0
C209 C 0.53307 0.08579 0.04366 0.0
C210 C 0.46069 0.05008 1.01137 0.0
C211 C 0.60456 0.04922 0.06873 0.0
C212 C 0.60723 0.97517 0.06242 0.0
H213 H 0.53479 0.14234 0.05072 0.0
H214 H 0.65852 0.07977 0.09346 0.0
S215 S 0.43391 0.85659 0.97915 0.0
N216 N 0.3959 0.93578 0.97241 0.0
N217 N 0.53042 0.8679 1.0199 0.0
C218 C 0.53532 0.93873 1.02998 0.0
C219 C 0.46224 0.97592 1.00422 0.0
loop_
_geom_bond_atom_site_label_1
_geom_bond_atom_site_label_2
_geom_bond_distance
_geom_bond_site_symmetry_2
_ccdc_geom_bond_type
Fe0 O2 1.918 . S
Fe0 O5 1.997 . S
Fe0 O6 2.002 . S
Fe0 O11 1.976 . S
Fe0 O14 1.996 . S
Fe1 O2 1.918 . S
Fe1 O9 1.997 . S
Fe1 O12 1.996 . S
Fe1 O16 1.976 . S
Fe1 O19 2.002 . S
O2 Fe0 1.918 . S
O2 Fe1 1.918 . S
O2 Fe3 1.918 . S
Fe3 O2 1.918 . S
Fe3 O4 2.002 . S
Fe3 O13 1.976 . S
Fe3 O17 1.996 . S
Fe3 O20 1.997 . S
O4 Fe3 2.002 . S
O4 C21 1.295 . S
O5 Fe0 1.997 . S
O5 C21 1.235 . S
O6 Fe0 2.002 . S
O6 C7 1.295 . S
C7 O6 1.295 . S
C7 O9 1.235 . S
C8 O13 1.287 . S
C8 O14 1.255 . S
O9 Fe1 1.997 . S
O9 C7 1.235 . S
C10 O16 1.287 . S
C10 O17 1.255 . S
O11 Fe0 1.976 . S
O11 C18 1.287 . S
O12 Fe1 1.996 . S
O12 C18 1.255 . S
O13 Fe3 1.976 . S
O13 C8 1.287 . S
O14 Fe0 1.996 . S
O14 C8 1.255 . S
C15 O19 1.295 . S
C15 O20 1.235 . S
O16 Fe1 1.976 . S
O16 C10 1.287 . S
O17 Fe3 1.996 . S
O17 C10 1.255 . S
C18 O11 1.287 . S
C18 O12 1.255 . S
O19 Fe1 2.002 . S
O19 C15 1.295 . S
O20 Fe3 1.997 . S
O20 C15 1.235 . S
C21 O4 1.295 . S
C21 O5 1.235 . S
Fe22 O24 1.918 . S
Fe22 O27 1.997 . S
Fe22 O28 2.002 . S
Fe22 O33 1.976 . S
Fe22 O36 1.996 . S
Fe23 O24 1.918 . S
Fe23 O31 1.997 1_554 S
Fe23 O34 1.996 . S
Fe23 O38 1.976 1_565 S
Fe23 O41 2.002 . S
O24 Fe22 1.918 . S
O24 Fe23 1.918 . S
O24 Fe25 1.918 . S
Fe25 O24 1.918 . S
Fe25 O26 2.002 . S
Fe25 O35 1.976 . S
Fe25 O39 1.996 . S
Fe25 O42 1.997 . S
O26 Fe25 2.002 . S
O26 C43 1.295 . S
O27 Fe22 1.997 . S
O27 C43 1.235 . S
O28 Fe22 2.002 . S
O28 C29 1.295 1_554 S
C29 O28 1.295 1_556 S
C29 O31 1.235 . S
C30 O35 1.287 . S
C30 O36 1.255 . S
O31 Fe23 1.997 1_556 S
O31 C29 1.235 . S
C32 O38 1.287 . S
C32 O39 1.255 1_545 S
O33 Fe22 1.976 . S
O33 C40 1.287 . S
O34 Fe23 1.996 . S
O34 C40 1.255 . S
O35 Fe25 1.976 . S
O35 C30 1.287 . S
O36 Fe22 1.996 . S
O36 C30 1.255 . S
C37 O41 1.295 . S
C37 O42 1.235 . S
O38 Fe23 1.976 1_545 S
O38 C32 1.287 . S
O39 Fe25 1.996 . S
O39 C32 1.255 1_565 S
C40 O33 1.287 . S
C40 O34 1.255 . S
O41 Fe23 2.002 . S
O41 C37 1.295 . S
O42 Fe25 1.997 . S
O42 C37 1.235 . S
C43 O26 1.295 . S
C43 O27 1.235 . S
Fe44 O46 1.918 . S
Fe44 O49 1.997 . S
Fe44 O50 2.002 . S
Fe44 O55 1.976 . S
Fe44 O58 1.996 . S
Fe45 O46 1.918 . S
Fe45 O53 1.997 . S
Fe45 O56 1.996 . S
Fe45 O60 1.976 . S
Fe45 O63 2.002 . S
O46 Fe44 1.918 . S
O46 Fe45 1.918 . S
O46 Fe47 1.918 . S
Fe47 O46 1.918 . S
Fe47 O48 2.002 . S
Fe47 O57 1.976 . S
Fe47 O61 1.996 . S
Fe47 O64 1.997 . S
O48 Fe47 2.002 . S
O48 C65 1.295 . S
O49 Fe44 1.997 . S
O49 C65 1.235 . S
O50 Fe44 2.002 . S
O50 C51 1.295 . S
C51 O50 1.295 . S
C51 O53 1.235 . S
C52 O57 1.287 . S
C52 O58 1.255 . S
O53 Fe45 1.997 . S
O53 C51 1.235 . S
C54 O60 1.287 . S
C54 O61 1.255 . S
O55 Fe44 1.976 . S
O55 C62 1.287 . S
O56 Fe45 1.996 . S
O56 C62 1.255 . S
O57 Fe47 1.976 . S
O57 C52 1.287 . S
O58 Fe44 1.996 . S
O58 C52 1.255 . S
C59 O63 1.295 . S
C59 O64 1.235 . S
O60 Fe45 1.976 . S
O60 C54 1.287 . S
O61 Fe47 1.996 . S
O61 C54 1.255 . S
C62 O55 1.287 . S
C62 O56 1.255 . S
O63 Fe45 2.002 . S
O63 C59 1.295 . S
O64 Fe47 1.997 . S
O64 C59 1.235 . S
C65 O48 1.295 . S
C65 O49 1.235 . S
Fe66 O68 1.918 . S
Fe66 O71 1.997 . S
Fe66 O72 2.002 . S
Fe66 O77 1.976 . S
Fe66 O80 1.996 . S
Fe67 O68 1.918 . S
Fe67 O75 1.997 1_556 S
Fe67 O78 1.996 . S
Fe67 O82 1.976 1_545 S
Fe67 O85 2.002 . S
O68 Fe66 1.918 . S
O68 Fe67 1.918 . S
O68 Fe69 1.918 . S
Fe69 O68 1.918 . S
Fe69 O70 2.002 . S
Fe69 O79 1.976 . S
Fe69 O83 1.996 . S
Fe69 O86 1.997 . S
O70 Fe69 2.002 . S
O70 C87 1.295 . S
O71 Fe66 1.997 . S
O71 C87 1.235 . S
O72 Fe66 2.002 . S
O72 C73 1.295 1_556 S
C73 O72 1.295 1_554 S
C73 O75 1.235 . S
C74 O79 1.287 . S
C74 O80 1.255 . S
O75 Fe67 1.997 1_554 S
O75 C73 1.235 . S
C76 O82 1.287 . S
C76 O83 1.255 1_565 S
O77 Fe66 1.976 . S
O77 C84 1.287 . S
O78 Fe67 1.996 . S
O78 C84 1.255 . S
O79 Fe69 1.976 . S
O79 C74 1.287 . S
O80 Fe66 1.996 . S
O80 C74 1.255 . S
C81 O85 1.295 . S
C81 O86 1.235 . S
O82 Fe67 1.976 1_565 S
O82 C76 1.287 . S
O83 Fe69 1.996 . S
O83 C76 1.255 1_545 S
C84 O77 1.287 . S
C84 O78 1.255 . S
O85 Fe67 2.002 . S
O85 C81 1.295 . S
O86 Fe69 1.997 . S
O86 C81 1.235 . S
C87 O70 1.295 . S
C87 O71 1.235 . S
C88 C89 1.369 . S
C88 C90 1.419 1_655 S
C88 H92 0.930 . S
C89 C88 1.369 . S
C89 C98 1.429 . S
C90 C88 1.419 1_455 S
C90 C91 1.363 . S
C90 H93 0.929 . S
C91 C90 1.363 . S
C91 C97 1.428 1_455 S
H92 C88 0.930 . S
H93 C90 0.929 . S
S94 N95 1.613 . S
S94 N96 1.610 . S
N95 S94 1.613 . S
N95 C98 1.350 . S
N96 S94 1.610 . S
N96 C97 1.351 . S
C97 C91 1.428 1_655 S
C97 N96 1.351 . S
C97 C98 1.434 . S
C98 C89 1.429 . S
C98 N95 1.350 . S
C98 C97 1.434 . S
C99 C100 1.369 . S
C99 C101 1.419 . S
C99 H103 0.930 . S
C100 C99 1.369 . S
C100 C109 1.429 . S
C101 C99 1.419 . S
C101 C102 1.363 1_455 S
C101 H104 0.929 . S
C102 C101 1.363 1_655 S
C102 C108 1.428 . S
H103 C99 0.930 . S
H104 C101 0.929 . S
S105 N106 1.613 1_655 S
S105 N107 1.610 . S
N106 S105 1.613 1_455 S
N106 C109 1.350 . S
N107 S105 1.610 . S
N107 C108 1.351 . S
C108 C102 1.428 . S
C108 N107 1.351 . S
C108 C109 1.434 1_655 S
C109 C100 1.429 . S
C109 N106 1.350 . S
C109 C108 1.434 1_455 S
C110 C111 1.369 . S
C110 C112 1.419 1_455 S
C110 H114 0.930 . S
C111 C110 1.369 . S
C111 C120 1.429 . S
C112 C110 1.419 1_655 S
C112 C113 1.363 . S
C112 H115 0.929 . S
C113 C112 1.363 . S
C113 C119 1.428 1_655 S
H114 C110 0.930 . S
H115 C112 0.929 . S
S116 N117 1.613 . S
S116 N118 1.610 . S
N117 S116 1.613 . S
N117 C120 1.350 . S
N118 S116 1.610 . S
N118 C119 1.351 . S
C119 C113 1.428 1_455 S
C119 N118 1.351 . S
C119 C120 1.434 . S
C120 C111 1.429 . S
C120 N117 1.350 . S
C120 C119 1.434 . S
C121 C122 1.369 . S
C121 C123 1.419 1_655 S
C121 H125 0.930 . S
C122 C121 1.369 . S
C122 C131 1.429 . S
C123 C121 1.419 1_455 S
C123 C124 1.363 . S
C123 H126 0.929 . S
C124 C123 1.363 . S
C124 C130 1.422 1_455 S
H125 C121 0.930 . S
H126 C123 0.929 . S
S127 N128 1.613 . S
S127 N129 1.610 1_655 S
N128 S127 1.613 . S
N128 C131 1.350 . S
N129 S127 1.610 1_455 S
N129 C130 1.352 1_455 S
C130 C124 1.422 1_655 S
C130 N129 1.352 1_655 S
C130 C131 1.440 . S
C131 C122 1.429 . S
C131 N128 1.350 . S
C131 C130 1.440 . S
C132 C133 1.369 . S
C132 C134 1.419 . S
C132 H136 0.930 . S
C133 C132 1.369 . S
C133 C142 1.429 1_655 S
C134 C132 1.419 . S
C134 C135 1.363 1_655 S
C134 H137 0.929 . S
C135 C134 1.363 1_455 S
C135 C141 1.428 . S
H136 C132 0.930 . S
H137 C134 0.929 . S
S138 N139 1.613 . S
S138 N140 1.610 . S
N139 S138 1.613 . S
N139 C142 1.350 . S
N140 S138 1.610 . S
N140 C141 1.351 . S
C141 C135 1.428 . S
C141 N140 1.351 . S
C141 C142 1.434 . S
C142 C133 1.429 1_455 S
C142 N139 1.350 . S
C142 C141 1.434 . S
C143 C144 1.369 1_545 S
C143 C145 1.419 1_554 S
C143 H147 0.930 . S
C144 C143 1.369 1_565 S
C144 C153 1.429 1_655 S
C145 C143 1.419 1_556 S
C145 C146 1.363 1_655 S
C145 H148 0.929 . S
C146 C145 1.363 1_455 S
C146 C152 1.428 1_545 S
H147 C143 0.930 . S
H148 C145 0.929 . S
S149 N150 1.613 1_556 S
S149 N151 1.610 . S
N150 S149 1.613 1_554 S
N150 C153 1.350 . S
N151 S149 1.610 . S
N151 C152 1.351 . S
C152 C146 1.428 1_565 S
C152 N151 1.351 . S
C152 C153 1.434 1_556 S
C153 C144 1.429 1_455 S
C153 N150 1.350 . S
C153 C152 1.434 1_554 S
C154 C155 1.369 . S
C154 C156 1.419 . S
C154 H158 0.930 . S
C155 C154 1.369 . S
C155 C164 1.429 . S
C156 C154 1.419 . S
C156 C157 1.363 . S
C156 H159 0.929 . S
C157 C156 1.363 . S
C157 C163 1.428 . S
H158 C154 0.930 . S
H159 C156 0.929 . S
S160 N161 1.613 . S
S160 N162 1.610 . S
N161 S160 1.613 . S
N161 C164 1.350 . S
N162 S160 1.610 . S
N162 C163 1.351 . S
C163 C157 1.428 . S
C163 N162 1.351 . S
C163 C164 1.434 . S
C164 C155 1.429 . S
C164 N161 1.350 . S
C164 C163 1.434 . S
C165 C166 1.369 . S
C165 C167 1.419 . S
C165 H169 0.930 . S
C166 C165 1.369 . S
C166 C175 1.429 . S
C167 C165 1.419 . S
C167 C168 1.363 . S
C167 H170 0.929 . S
C168 C167 1.363 . S
C168 C174 1.428 . S
H169 C165 0.930 . S
H170 C167 0.929 . S
S171 N172 1.613 . S
S171 N173 1.610 . S
N172 S171 1.613 . S
N172 C175 1.350 . S
N173 S171 1.610 . S
N173 C174 1.351 . S
C174 C168 1.428 . S
C174 N173 1.351 . S
C174 C175 1.434 . S
C175 C166 1.429 . S
C175 N172 1.350 . S
C175 C174 1.434 . S
C176 C177 1.369 . S
C176 C178 1.419 . S
C176 H180 0.930 . S
C177 C176 1.369 . S
C177 C186 1.429 . S
C178 C176 1.419 . S
C178 C179 1.363 . S
C178 H181 0.929 . S
C179 C178 1.363 . S
C179 C185 1.428 . S
H180 C176 0.930 . S
H181 C178 0.929 . S
S182 N183 1.613 . S
S182 N184 1.610 . S
N183 S182 1.613 . S
N183 C186 1.350 . S
N184 S182 1.610 . S
N184 C185 1.351 . S
C185 C179 1.428 . S
C185 N184 1.351 . S
C185 C186 1.434 . S
C186 C177 1.429 . S
C186 N183 1.350 . S
C186 C185 1.434 . S
C187 C188 1.369 . S
C187 C189 1.419 . S
C187 H191 0.930 . S
C188 C187 1.369 . S
C188 C197 1.429 . S
C189 C187 1.419 . S
C189 C190 1.363 . S
C189 H192 0.929 . S
C190 C189 1.363 . S
C190 C196 1.428 . S
H191 C187 0.930 . S
H192 C189 0.929 . S
S193 N194 1.613 . S
S193 N195 1.610 . S
N194 S193 1.613 . S
N194 C197 1.350 . S
N195 S193 1.610 . S
N195 C196 1.351 . S
C196 C190 1.428 . S
C196 N195 1.351 . S
C196 C197 1.434 . S
C197 C188 1.429 . S
C197 N194 1.350 . S
C197 C196 1.434 . S
C198 C199 1.369 . S
C198 C200 1.419 . S
C198 H202 0.930 . S
C199 C198 1.369 . S
C199 C208 1.429 . S
C200 C198 1.419 . S
C200 C201 1.363 . S
C200 H203 0.929 . S
C201 C200 1.363 . S
C201 C207 1.428 . S
H202 C198 0.930 . S
H203 C200 0.929 . S
S204 N205 1.613 . S
S204 N206 1.610 . S
N205 S204 1.613 . S
N205 C208 1.350 . S
N206 S204 1.610 . S
N206 C207 1.351 . S
C207 C201 1.428 . S
C207 N206 1.351 . S
C207 C208 1.434 . S
C208 C199 1.429 . S
C208 N205 1.350 . S
C208 C207 1.434 . S
C209 C210 1.369 1_554 S
C209 C211 1.419 1_545 S
C209 H213 0.930 . S
C210 C209 1.369 1_556 S
C210 C219 1.429 . S
C211 C209 1.419 1_565 S
C211 C212 1.363 . S
C211 H214 0.929 . S
C212 C211 1.363 . S
C212 C218 1.428 1_554 S
H213 C209 0.930 . S
H214 C211 0.929 . S
S215 N216 1.613 1_565 S
S215 N217 1.610 . S
N216 S215 1.613 1_545 S
N216 C219 1.350 . S
N217 S215 1.610 . S
N217 C218 1.351 . S
C218 C212 1.428 1_556 S
C218 N217 1.351 . S
C218 C219 1.434 1_565 S
C219 C210 1.429 . S
C219 N216 1.350 . S
C219 C218 1.434 1_545 S
C89 C32 1.542 . S
C91 C7 1.582 . S
C100 C8 1.533 . S
C102 C43 1.584 . S
C111 C76 1.543 . S
C113 C59 1.580 . S
C122 C62 1.535 . S
C124 C87 1.585 . S
C133 C51 1.229 . S
C135 C21 1.215 . S
C144 C37 1.229 . S
C146 C81 1.215 . S
C155 C73 1.637 . S
C157 C18 1.623 . S
C166 C30 1.626 . S
C168 C65 1.634 . S
C177 C29 1.631 . S
C179 C54 1.626 . S
C188 C74 1.626 . S
C190 C15 1.631 . S
C199 C10 1.564 . S
C201 C52 1.568 . S
C210 C84 1.565 . S
C212 C40 1.567 . S
