# Generated by pormake.
# Topology uof, (4)-cn, num edge types: 1
# Building blocks:
#     Node 0, Type 0, BuildingBlock: GALJAG_clean_sbu_0, # of connection points: 4
#     Node 1, Type 0, BuildingBlock: GALJAG_clean_sbu_0, # of connection points: 4
#     Node 2, Type 0, BuildingBlock: GALJAG_clean_sbu_0, # of connection points: 4
#     Node 3, Type 0, BuildingBlock: GALJAG_clean_sbu_0, # of connection points: 4
#     Node 4, Type 0, BuildingBlock: GALJAG_clean_sbu_0, # of connection points: 4
#     Node 5, Type 0, BuildingBlock: GALJAG_clean_sbu_0, # of connection points: 4
#     Node 6, Type 0, BuildingBlock: GALJAG_clean_sbu_0, # of connection points: 4
#     Node 7, Type 0, BuildingBlock: GALJAG_clean_sbu_0, # of connection points: 4
#     Node 8, Type 0, BuildingBlock: GALJAG_clean_sbu_0, # of connection points: 4
#     Node 9, Type 0, BuildingBlock: GALJAG_clean_sbu_0, # of connection points: 4
#     Node 10, Type 0, BuildingBlock: GALJAG_clean_sbu_0, # of connection points: 4
#     Node 11, Type 0, BuildingBlock: GALJAG_clean_sbu_0, # of connection points: 4
#     Edge 12, Type (0, 0), None
#     Edge 13, Type (0, 0), None
#     Edge 14, Type (0, 0), None
#     Edge 15, Type (0, 0), None
#     Edge 16, Type (0, 0), None
#     Edge 17, Type (0, 0), None
#     Edge 18, Type (0, 0), None
#     Edge 19, Type (0, 0), None
#     Edge 20, Type (0, 0), None
#     Edge 21, Type (0, 0), None
#     Edge 22, Type (0, 0), None
#     Edge 23, Type (0, 0), None
#     Edge 24, Type (0, 0), None
#     Edge 25, Type (0, 0), None
#     Edge 26, Type (0, 0), None
#     Edge 27, Type (0, 0), None
#     Edge 28, Type (0, 0), None
#     Edge 29, Type (0, 0), None
#     Edge 30, Type (0, 0), None
#     Edge 31, Type (0, 0), None
#     Edge 32, Type (0, 0), None
#     Edge 33, Type (0, 0), None
#     Edge 34, Type (0, 0), None
#     Edge 35, Type (0, 0), None
# Relax obj value: 0.136
# Max RMSD: 0.110
# Mean RMSD: 0.110
data_MOF--net-uof--node1-GALJAG_clean_sbu_0--edge1-none
_symmetry_space_group_name_H-M    P1
_symmetry_Int_Tables_number       1
_symmetry_cell_setting            triclinic
loop_
_symmetry_equiv_pos_as_xyz
'x, y, z'
_cell_length_a     14.071731
_cell_length_b     14.072362
_cell_length_c     30.006901
_cell_angle_alpha  89.999927
_cell_angle_beta   90.000036
_cell_angle_gamma 120.00205
loop_
_atom_site_label
_atom_site_type_symbol
_atom_site_fract_x
_atom_site_fract_y
_atom_site_fract_z
_atom_type_partial_charge
In0 In 0.23249 0.31338 0.23976 0.0
O1 O 0.37577 0.4926 0.23962 0.0
O2 O 0.41052 0.3649 0.22539 0.0
C3 C 0.05738 0.31077 0.19691 0.0
C4 C 0.24561 0.26351 0.32603 0.0
C5 C 0.18857 0.13974 0.19377 0.0
O6 O 0.15208 0.35208 0.18023 0.0
O7 O 0.05439 0.28526 0.23765 0.0
O8 O 0.16086 0.13226 0.23411 0.0
O9 O 0.23955 0.23445 0.17717 0.0
C10 C 0.44767 0.46563 0.23125 0.0
O11 O 0.26684 0.22051 0.29363 0.0
O12 O 0.21201 0.3294 0.3154 0.0
In13 In 0.92381 0.23016 0.57309 0.0
O14 O 0.88787 0.37342 0.57294 0.0
O15 O 0.05033 0.40818 0.55872 0.0
C16 C 0.75131 0.05504 0.53025 0.0
C17 C 0.9868 0.24327 0.65936 0.0
C18 C 0.05354 0.18623 0.52711 0.0
O19 O 0.80471 0.14973 0.51356 0.0
O20 O 0.77382 0.05205 0.57098 0.0
O21 O 0.03331 0.15853 0.56744 0.0
O22 O 0.00981 0.2372 0.5105 0.0
C23 C 0.98675 0.44533 0.56458 0.0
O24 O 0.05104 0.26451 0.62696 0.0
O25 O 0.88731 0.20968 0.64873 0.0
In26 In 0.69836 0.92146 0.90642 0.0
O27 O 0.79126 0.04867 0.9603 0.0
O28 O 0.68233 0.88495 0.98206 0.0
C29 C 0.87201 0.05119 0.86044 0.0
C30 C 0.54613 0.9844 0.89791 0.0
C31 C 0.70098 0.74897 0.86358 0.0
O32 O 0.87949 0.03096 0.90077 0.0
O33 O 0.77731 0.00745 0.84383 0.0
O34 O 0.65968 0.80235 0.84689 0.0
O35 O 0.72649 0.77148 0.90431 0.0
C36 C 0.74824 0.98444 0.99269 0.0
O37 O 0.51914 0.88552 0.90627 0.0
O38 O 0.64686 0.04797 0.89206 0.0
In39 In 0.78162 0.69603 0.23976 0.0
O40 O 0.74728 0.78891 0.29363 0.0
O41 O 0.80209 0.68001 0.3154 0.0
C42 C 0.82554 0.86968 0.19377 0.0
C43 C 0.56643 0.5438 0.23126 0.0
C44 C 0.95672 0.69864 0.19692 0.0
O45 O 0.85325 0.87716 0.23411 0.0
O46 O 0.77456 0.77497 0.17717 0.0
O47 O 0.86202 0.65734 0.18023 0.0
O48 O 0.95972 0.72415 0.23765 0.0
C49 C 0.7685 0.7459 0.32603 0.0
O50 O 0.63834 0.51682 0.23962 0.0
O51 O 0.60359 0.64453 0.2254 0.0
In52 In 0.0903 0.77926 0.57309 0.0
O53 O 0.12623 0.63599 0.57294 0.0
O54 O 0.96378 0.60124 0.55872 0.0
C55 C 0.2628 0.95438 0.53024 0.0
C56 C 0.02732 0.76614 0.65936 0.0
C57 C 0.96057 0.82318 0.52711 0.0
O58 O 0.2094 0.85968 0.51356 0.0
O59 O 0.24029 0.95736 0.57098 0.0
O60 O 0.9808 0.85089 0.56744 0.0
O61 O 1.0043 0.77221 0.5105 0.0
C62 C 0.02735 0.56408 0.56459 0.0
O63 O 0.96308 0.74492 0.62696 0.0
O64 O 0.1268 0.79973 0.64873 0.0
In65 In 0.31574 0.08796 0.90642 0.0
O66 O 0.49496 0.12389 0.90628 0.0
O67 O 0.36723 0.96144 0.89206 0.0
C68 C 0.31313 0.26045 0.86358 0.0
C69 C 0.26587 0.02498 0.99269 0.0
C70 C 0.1421 0.95822 0.86044 0.0
O71 O 0.35444 0.20707 0.84689 0.0
O72 O 0.28762 0.23794 0.90431 0.0
O73 O 0.13462 0.97845 0.90077 0.0
O74 O 0.2368 1.00197 0.84383 0.0
C75 C 0.46797 0.025 0.89792 0.0
O76 O 0.22284 0.96075 0.9603 0.0
O77 O 0.33179 0.12446 0.98206 0.0
In78 In 0.69839 0.77926 0.45871 0.0
O79 O 0.51916 0.63599 0.45885 0.0
O80 O 0.64687 0.60124 0.47307 0.0
C81 C 0.70107 0.95432 0.50157 0.0
C82 C 0.74824 0.76612 0.37244 0.0
C83 C 0.87204 0.82315 0.50467 0.0
O84 O 0.6597 0.85963 0.51826 0.0
O85 O 0.72651 0.95736 0.46083 0.0
O86 O 0.87953 0.85093 0.46434 0.0
O87 O 0.77735 0.77216 0.52129 0.0
C88 C 0.54613 0.56409 0.46721 0.0
O89 O 0.79125 0.74489 0.40484 0.0
O90 O 0.68238 0.79975 0.38307 0.0
In91 In 0.92384 0.69604 0.79204 0.0
O92 O 0.88788 0.51682 0.79218 0.0
O93 O 0.05034 0.64451 0.8064 0.0
C94 C 0.75145 0.69872 0.83491 0.0
C95 C 0.98684 0.74589 0.70577 0.0
C96 C 0.05361 0.86969 0.838 0.0
O97 O 0.80479 0.65736 0.85159 0.0
O98 O 0.77385 0.72416 0.79416 0.0
O99 O 0.03331 0.87717 0.79767 0.0
O100 O 0.00991 0.77501 0.85462 0.0
C101 C 0.98675 0.54378 0.80054 0.0
O102 O 0.05108 0.78888 0.73817 0.0
O103 O 0.88734 0.68003 0.7164 0.0
In104 In 0.2325 0.92151 0.12537 0.0
O105 O 0.37576 0.88554 0.12551 0.0
O106 O 0.41053 0.048 0.13973 0.0
C107 C 0.05744 0.74912 0.16824 0.0
C108 C 0.24565 0.98451 0.03911 0.0
C109 C 0.18862 0.05126 0.17133 0.0
O110 O 0.15214 0.80246 0.18492 0.0
O111 O 0.05439 0.77151 0.12749 0.0
O112 O 0.16082 0.03095 0.13101 0.0
O113 O 0.23961 0.00757 0.18795 0.0
C114 C 0.44767 0.98441 0.13387 0.0
O115 O 0.26691 0.04874 0.0715 0.0
O116 O 0.212 0.88501 0.04973 0.0
In117 In 0.31572 0.23016 0.45871 0.0
O118 O 0.22285 0.26451 0.40484 0.0
O119 O 0.33174 0.20967 0.38307 0.0
C120 C 0.14207 0.18627 0.50467 0.0
C121 C 0.46796 0.44533 0.4672 0.0
C122 C 0.31304 0.05509 0.50157 0.0
O123 O 0.13458 0.15848 0.46434 0.0
O124 O 0.23676 0.23725 0.52129 0.0
O125 O 0.35441 0.14979 0.51826 0.0
O126 O 0.28759 0.05205 0.46083 0.0
C127 C 0.26586 0.24329 0.37244 0.0
O128 O 0.49494 0.37343 0.45885 0.0
O129 O 0.36723 0.40817 0.47307 0.0
In130 In 0.09027 0.31338 0.79204 0.0
O131 O 0.96303 0.22053 0.73817 0.0
O132 O 0.12677 0.32939 0.7164 0.0
C133 C 0.9605 0.13972 0.838 0.0
C134 C 0.02734 0.46562 0.80054 0.0
C135 C 0.26266 0.3107 0.83491 0.0
O136 O 0.9808 0.13224 0.79767 0.0
O137 O 1.0042 0.23441 0.85462 0.0
O138 O 0.20932 0.35206 0.85159 0.0
O139 O 0.24026 0.28526 0.79416 0.0
C140 C 0.02727 0.26353 0.70577 0.0
O141 O 0.12622 0.49259 0.79218 0.0
O142 O 0.96376 0.36489 0.8064 0.0
In143 In 0.78161 0.08791 0.12537 0.0
O144 O 0.74721 0.96068 0.0715 0.0
O145 O 0.8021 0.12441 0.04973 0.0
C146 C 0.8255 0.95816 0.17133 0.0
C147 C 0.56643 0.02499 0.13386 0.0
C148 C 0.95667 0.2603 0.16824 0.0
O149 O 0.85329 0.97846 0.13101 0.0
O150 O 0.7745 1.00185 0.18795 0.0
O151 O 0.86196 0.20696 0.18492 0.0
O152 O 0.95972 0.2379 0.12749 0.0
C153 C 0.76846 0.02491 0.0391 0.0
O154 O 0.63835 0.12387 0.12551 0.0
O155 O 0.60358 0.96141 0.13973 0.0
loop_
_geom_bond_atom_site_label_1
_geom_bond_atom_site_label_2
_geom_bond_distance
_geom_bond_site_symmetry_2
_ccdc_geom_bond_type
In0 O1 2.294 . S
In0 O2 2.326 . S
In0 O6 2.266 . S
In0 O7 2.326 . S
In0 O8 2.266 . S
In0 O9 2.326 . S
In0 O11 2.294 . S
In0 O12 2.326 . S
O1 In0 2.294 . S
O1 C10 1.240 . S
O2 In0 2.326 . S
O2 C10 1.252 . S
C3 O6 1.252 . S
C3 O7 1.260 . S
C4 O11 1.240 . S
C4 O12 1.252 . S
C5 O8 1.252 . S
C5 O9 1.260 . S
O6 In0 2.266 . S
O6 C3 1.252 . S
O7 In0 2.326 . S
O7 C3 1.260 . S
O8 In0 2.266 . S
O8 C5 1.252 . S
O9 In0 2.326 . S
O9 C5 1.260 . S
C10 O1 1.240 . S
C10 O2 1.252 . S
O11 In0 2.294 . S
O11 C4 1.240 . S
O12 In0 2.326 . S
O12 C4 1.252 . S
In13 O14 2.294 . S
In13 O15 2.326 1_655 S
In13 O19 2.266 . S
In13 O20 2.326 . S
In13 O21 2.266 1_655 S
In13 O22 2.326 1_655 S
In13 O24 2.294 1_655 S
In13 O25 2.326 . S
O14 In13 2.294 . S
O14 C23 1.240 . S
O15 In13 2.326 1_455 S
O15 C23 1.252 1_455 S
C16 O19 1.252 . S
C16 O20 1.260 . S
C17 O24 1.240 1_655 S
C17 O25 1.252 . S
C18 O21 1.252 . S
C18 O22 1.260 . S
O19 In13 2.266 . S
O19 C16 1.252 . S
O20 In13 2.326 . S
O20 C16 1.260 . S
O21 In13 2.266 1_455 S
O21 C18 1.252 . S
O22 In13 2.326 1_455 S
O22 C18 1.260 . S
C23 O14 1.240 . S
C23 O15 1.252 1_655 S
O24 In13 2.294 1_455 S
O24 C17 1.240 1_455 S
O25 In13 2.326 . S
O25 C17 1.252 . S
In26 O27 2.294 1_565 S
In26 O28 2.326 . S
In26 O32 2.266 1_565 S
In26 O33 2.326 1_565 S
In26 O34 2.266 . S
In26 O35 2.326 . S
In26 O37 2.294 . S
In26 O38 2.326 1_565 S
O27 In26 2.294 1_545 S
O27 C36 1.240 1_545 S
O28 In26 2.326 . S
O28 C36 1.252 . S
C29 O32 1.252 . S
C29 O33 1.260 . S
C30 O37 1.240 . S
C30 O38 1.252 1_565 S
C31 O34 1.252 . S
C31 O35 1.260 . S
O32 In26 2.266 1_545 S
O32 C29 1.252 . S
O33 In26 2.326 1_545 S
O33 C29 1.260 . S
O34 In26 2.266 . S
O34 C31 1.252 . S
O35 In26 2.326 . S
O35 C31 1.260 . S
C36 O27 1.240 1_565 S
C36 O28 1.252 . S
O37 In26 2.294 . S
O37 C30 1.240 . S
O38 In26 2.326 1_545 S
O38 C30 1.252 1_545 S
In39 O40 2.294 . S
In39 O41 2.326 . S
In39 O45 2.266 . S
In39 O46 2.326 . S
In39 O47 2.266 . S
In39 O48 2.326 . S
In39 O50 2.294 . S
In39 O51 2.326 . S
O40 In39 2.294 . S
O40 C49 1.240 . S
O41 In39 2.326 . S
O41 C49 1.252 . S
C42 O45 1.252 . S
C42 O46 1.260 . S
C43 O50 1.240 . S
C43 O51 1.252 . S
C44 O47 1.252 . S
C44 O48 1.260 . S
O45 In39 2.266 . S
O45 C42 1.252 . S
O46 In39 2.326 . S
O46 C42 1.260 . S
O47 In39 2.266 . S
O47 C44 1.252 . S
O48 In39 2.326 . S
O48 C44 1.260 . S
C49 O40 1.240 . S
C49 O41 1.252 . S
O50 In39 2.294 . S
O50 C43 1.240 . S
O51 In39 2.326 . S
O51 C43 1.252 . S
In52 O53 2.294 . S
In52 O54 2.326 1_455 S
In52 O58 2.266 . S
In52 O59 2.326 . S
In52 O60 2.266 1_455 S
In52 O61 2.326 1_455 S
In52 O63 2.294 1_455 S
In52 O64 2.326 . S
O53 In52 2.294 . S
O53 C62 1.240 . S
O54 In52 2.326 1_655 S
O54 C62 1.252 1_655 S
C55 O58 1.252 . S
C55 O59 1.260 . S
C56 O63 1.240 1_455 S
C56 O64 1.252 . S
C57 O60 1.252 . S
C57 O61 1.260 . S
O58 In52 2.266 . S
O58 C55 1.252 . S
O59 In52 2.326 . S
O59 C55 1.260 . S
O60 In52 2.266 1_655 S
O60 C57 1.252 . S
O61 In52 2.326 1_655 S
O61 C57 1.260 . S
C62 O53 1.240 . S
C62 O54 1.252 1_455 S
O63 In52 2.294 1_655 S
O63 C56 1.240 1_655 S
O64 In52 2.326 . S
O64 C56 1.252 . S
In65 O66 2.294 . S
In65 O67 2.326 1_545 S
In65 O71 2.266 . S
In65 O72 2.326 . S
In65 O73 2.266 1_545 S
In65 O74 2.326 1_545 S
In65 O76 2.294 1_545 S
In65 O77 2.326 . S
O66 In65 2.294 . S
O66 C75 1.240 . S
O67 In65 2.326 1_565 S
O67 C75 1.252 1_565 S
C68 O71 1.252 . S
C68 O72 1.260 . S
C69 O76 1.240 1_545 S
C69 O77 1.252 . S
C70 O73 1.252 . S
C70 O74 1.260 . S
O71 In65 2.266 . S
O71 C68 1.252 . S
O72 In65 2.326 . S
O72 C68 1.260 . S
O73 In65 2.266 1_565 S
O73 C70 1.252 . S
O74 In65 2.326 1_565 S
O74 C70 1.260 . S
C75 O66 1.240 . S
C75 O67 1.252 1_545 S
O76 In65 2.294 1_565 S
O76 C69 1.240 1_565 S
O77 In65 2.326 . S
O77 C69 1.252 . S
In78 O79 2.294 . S
In78 O80 2.326 . S
In78 O84 2.266 . S
In78 O85 2.326 . S
In78 O86 2.266 . S
In78 O87 2.326 . S
In78 O89 2.294 . S
In78 O90 2.326 . S
O79 In78 2.294 . S
O79 C88 1.240 . S
O80 In78 2.326 . S
O80 C88 1.252 . S
C81 O84 1.252 . S
C81 O85 1.260 . S
C82 O89 1.240 . S
C82 O90 1.252 . S
C83 O86 1.252 . S
C83 O87 1.260 . S
O84 In78 2.266 . S
O84 C81 1.252 . S
O85 In78 2.326 . S
O85 C81 1.260 . S
O86 In78 2.266 . S
O86 C83 1.252 . S
O87 In78 2.326 . S
O87 C83 1.260 . S
C88 O79 1.240 . S
C88 O80 1.252 . S
O89 In78 2.294 . S
O89 C82 1.240 . S
O90 In78 2.326 . S
O90 C82 1.252 . S
In91 O92 2.294 . S
In91 O93 2.326 1_655 S
In91 O97 2.266 . S
In91 O98 2.326 . S
In91 O99 2.266 1_655 S
In91 O100 2.326 1_655 S
In91 O102 2.294 1_655 S
In91 O103 2.326 . S
O92 In91 2.294 . S
O92 C101 1.240 . S
O93 In91 2.326 1_455 S
O93 C101 1.252 1_455 S
C94 O97 1.252 . S
C94 O98 1.260 . S
C95 O102 1.240 1_655 S
C95 O103 1.252 . S
C96 O99 1.252 . S
C96 O100 1.260 . S
O97 In91 2.266 . S
O97 C94 1.252 . S
O98 In91 2.326 . S
O98 C94 1.260 . S
O99 In91 2.266 1_455 S
O99 C96 1.252 . S
O100 In91 2.326 1_455 S
O100 C96 1.260 . S
C101 O92 1.240 . S
C101 O93 1.252 1_655 S
O102 In91 2.294 1_455 S
O102 C95 1.240 1_455 S
O103 In91 2.326 . S
O103 C95 1.252 . S
In104 O105 2.294 . S
In104 O106 2.326 1_565 S
In104 O110 2.266 . S
In104 O111 2.326 . S
In104 O112 2.266 1_565 S
In104 O113 2.326 1_565 S
In104 O115 2.294 1_565 S
In104 O116 2.326 . S
O105 In104 2.294 . S
O105 C114 1.240 . S
O106 In104 2.326 1_545 S
O106 C114 1.252 1_545 S
C107 O110 1.252 . S
C107 O111 1.260 . S
C108 O115 1.240 1_565 S
C108 O116 1.252 . S
C109 O112 1.252 . S
C109 O113 1.260 . S
O110 In104 2.266 . S
O110 C107 1.252 . S
O111 In104 2.326 . S
O111 C107 1.260 . S
O112 In104 2.266 1_545 S
O112 C109 1.252 . S
O113 In104 2.326 1_545 S
O113 C109 1.260 . S
C114 O105 1.240 . S
C114 O106 1.252 1_565 S
O115 In104 2.294 1_545 S
O115 C108 1.240 1_545 S
O116 In104 2.326 . S
O116 C108 1.252 . S
In117 O118 2.294 . S
In117 O119 2.326 . S
In117 O123 2.266 . S
In117 O124 2.326 . S
In117 O125 2.266 . S
In117 O126 2.326 . S
In117 O128 2.294 . S
In117 O129 2.326 . S
O118 In117 2.294 . S
O118 C127 1.240 . S
O119 In117 2.326 . S
O119 C127 1.252 . S
C120 O123 1.252 . S
C120 O124 1.260 . S
C121 O128 1.240 . S
C121 O129 1.252 . S
C122 O125 1.252 . S
C122 O126 1.260 . S
O123 In117 2.266 . S
O123 C120 1.252 . S
O124 In117 2.326 . S
O124 C120 1.260 . S
O125 In117 2.266 . S
O125 C122 1.252 . S
O126 In117 2.326 . S
O126 C122 1.260 . S
C127 O118 1.240 . S
C127 O119 1.252 . S
O128 In117 2.294 . S
O128 C121 1.240 . S
O129 In117 2.326 . S
O129 C121 1.252 . S
In130 O131 2.294 1_455 S
In130 O132 2.326 . S
In130 O136 2.266 1_455 S
In130 O137 2.326 1_455 S
In130 O138 2.266 . S
In130 O139 2.326 . S
In130 O141 2.294 . S
In130 O142 2.326 1_455 S
O131 In130 2.294 1_655 S
O131 C140 1.240 1_655 S
O132 In130 2.326 . S
O132 C140 1.252 . S
C133 O136 1.252 . S
C133 O137 1.260 . S
C134 O141 1.240 . S
C134 O142 1.252 1_455 S
C135 O138 1.252 . S
C135 O139 1.260 . S
O136 In130 2.266 1_655 S
O136 C133 1.252 . S
O137 In130 2.326 1_655 S
O137 C133 1.260 . S
O138 In130 2.266 . S
O138 C135 1.252 . S
O139 In130 2.326 . S
O139 C135 1.260 . S
C140 O131 1.240 1_455 S
C140 O132 1.252 . S
O141 In130 2.294 . S
O141 C134 1.240 . S
O142 In130 2.326 1_655 S
O142 C134 1.252 1_655 S
In143 O144 2.294 1_545 S
In143 O145 2.326 . S
In143 O149 2.266 1_545 S
In143 O150 2.326 1_545 S
In143 O151 2.266 . S
In143 O152 2.326 . S
In143 O154 2.294 . S
In143 O155 2.326 1_545 S
O144 In143 2.294 1_565 S
O144 C153 1.240 1_565 S
O145 In143 2.326 . S
O145 C153 1.252 . S
C146 O149 1.252 . S
C146 O150 1.260 . S
C147 O154 1.240 . S
C147 O155 1.252 1_545 S
C148 O151 1.252 . S
C148 O152 1.260 . S
O149 In143 2.266 1_565 S
O149 C146 1.252 . S
O150 In143 2.326 1_565 S
O150 C146 1.260 . S
O151 In143 2.266 . S
O151 C148 1.252 . S
O152 In143 2.326 . S
O152 C148 1.260 . S
C153 O144 1.240 1_545 S
C153 O145 1.252 . S
O154 In143 2.294 . S
O154 C147 1.240 . S
O155 In143 2.326 1_565 S
O155 C147 1.252 1_565 S
C148 C3 2.028 1_655 S
C16 C81 2.028 1_545 S
C31 C94 2.027 . S
C44 C107 2.028 1_655 S
C122 C55 2.028 1_545 S
C68 C135 2.027 . S
C43 C10 1.613 . S
C62 C23 1.613 1_455 S
C75 C30 1.613 1_545 S
C88 C121 1.613 . S
C101 C134 1.613 1_655 S
C114 C147 1.613 1_565 S
C109 C5 0.855 . S
C18 C120 0.855 . S
C133 C29 0.855 . S
C146 C42 0.855 . S
C83 C57 0.855 . S
C70 C96 0.855 . S
C127 C4 2.028 . S
C17 C140 2.028 1_655 S
C153 C36 2.028 1_544 S
C49 C82 2.028 . S
C56 C95 2.028 1_455 S
C108 C69 2.028 1_564 S
