# Generated by pormake.
# Topology npo, (4)-cn, num edge types: 1
# Building blocks:
#     Node 0, Type 0, BuildingBlock: CEKHIL_clean_sbu_0, # of connection points: 4
#     Node 1, Type 0, BuildingBlock: CEKHIL_clean_sbu_0, # of connection points: 4
#     Node 2, Type 0, BuildingBlock: CEKHIL_clean_sbu_0, # of connection points: 4
#     Node 3, Type 0, BuildingBlock: CEKHIL_clean_sbu_0, # of connection points: 4
#     Node 4, Type 0, BuildingBlock: CEKHIL_clean_sbu_0, # of connection points: 4
#     Node 5, Type 0, BuildingBlock: CEKHIL_clean_sbu_0, # of connection points: 4
#     Edge 6, Type (0, 0), BuildingBlock: EYOCIG_clean_linker_4, # of connection points: 2
#     Edge 7, Type (0, 0), BuildingBlock: EYOCIG_clean_linker_4, # of connection points: 2
#     Edge 8, Type (0, 0), BuildingBlock: EYOCIG_clean_linker_4, # of connection points: 2
#     Edge 9, Type (0, 0), BuildingBlock: EYOCIG_clean_linker_4, # of connection points: 2
#     Edge 10, Type (0, 0), BuildingBlock: EYOCIG_clean_linker_4, # of connection points: 2
#     Edge 11, Type (0, 0), BuildingBlock: EYOCIG_clean_linker_4, # of connection points: 2
#     Edge 12, Type (0, 0), BuildingBlock: EYOCIG_clean_linker_4, # of connection points: 2
#     Edge 13, Type (0, 0), BuildingBlock: EYOCIG_clean_linker_4, # of connection points: 2
#     Edge 14, Type (0, 0), BuildingBlock: EYOCIG_clean_linker_4, # of connection points: 2
#     Edge 15, Type (0, 0), BuildingBlock: EYOCIG_clean_linker_4, # of connection points: 2
#     Edge 16, Type (0, 0), BuildingBlock: EYOCIG_clean_linker_4, # of connection points: 2
#     Edge 17, Type (0, 0), BuildingBlock: EYOCIG_clean_linker_4, # of connection points: 2
# Relax obj value: 0.295
# Max RMSD: 0.247
# Mean RMSD: 0.243
data_MOF--net-npo--node1-CEKHIL_clean_sbu_0--edge1-EYOCIG_clean_linker_4
_symmetry_space_group_name_H-M    P1
_symmetry_Int_Tables_number       1
_symmetry_cell_setting            triclinic
loop_
_symmetry_equiv_pos_as_xyz
'x, y, z'
_cell_length_a     38.296525
_cell_length_b     37.572318
_cell_length_c     15.952663
_cell_angle_alpha  89.990136
_cell_angle_beta   90.006917
_cell_angle_gamma 120.65888
loop_
_atom_site_label
_atom_site_type_symbol
_atom_site_fract_x
_atom_site_fract_y
_atom_site_fract_z
_atom_type_partial_charge
Co0 Co 0.49293 0.08223 0.35066 0.0
O1 O 0.44148 0.03797 0.39153 0.0
O2 O 0.50204 0.05295 0.43901 0.0
C3 C 0.47668 0.13171 0.34787 0.0
O4 O 0.55206 0.12606 0.32973 0.0
Co5 Co 0.50184 0.12511 0.1788 0.0
O6 O 0.55583 0.16715 0.22313 0.0
C7 C 0.4865 0.04007 0.18492 0.0
C8 C 0.46282 0.02987 0.44293 0.0
C9 C 0.57153 0.15887 0.28486 0.0
O10 O 0.49393 0.0436 0.26402 0.0
O11 O 0.48484 0.06757 0.14079 0.0
O12 O 0.48741 0.12246 0.41802 0.0
O13 O 0.47237 0.10856 0.28433 0.0
Co14 Co 0.37574 0.52072 0.79875 0.0
O15 O 0.4265 0.52965 0.75436 0.0
O16 O 0.36524 0.48092 0.71173 0.0
C17 C 0.39133 0.5869 0.7996 0.0
O18 O 0.31691 0.50333 0.82445 0.0
Co19 Co 0.37072 0.55637 0.9714 0.0
O20 O 0.3164 0.5428 0.93014 0.0
C21 C 0.38537 0.48692 0.96441 0.0
C22 C 0.4044 0.49862 0.70516 0.0
C23 C 0.29898 0.51737 0.87031 0.0
O24 O 0.3765 0.48205 0.88593 0.0
O25 O 0.38794 0.51658 1.00843 0.0
O26 O 0.37971 0.56575 0.73039 0.0
O27 O 0.3973 0.56916 0.86271 0.0
Co28 Co 0.80715 0.38374 0.36413 0.0
O29 O 0.84889 0.3748 0.40892 0.0
O30 O 0.83638 0.42358 0.45111 0.0
C31 C 0.7565 0.31757 0.36332 0.0
O32 O 0.76576 0.40113 0.33794 0.0
Co33 Co 0.76662 0.34797 0.19138 0.0
O34 O 0.72587 0.36161 0.23217 0.0
C35 C 0.85077 0.41739 0.19862 0.0
C36 C 0.85781 0.40587 0.45797 0.0
C37 C 0.73384 0.38708 0.29189 0.0
O38 O 0.84668 0.42233 0.27703 0.0
O39 O 0.82371 0.3877 0.15458 0.0
O40 O 0.76598 0.33877 0.43246 0.0
O41 O 0.78028 0.33525 0.30029 0.0
Co42 Co 0.36307 0.82219 0.81218 0.0
O43 O 0.35585 0.86642 0.77136 0.0
O44 O 0.40146 0.85152 0.72384 0.0
C45 C 0.29734 0.77268 0.81495 0.0
O46 O 0.37842 0.7784 0.83306 0.0
Co47 Co 0.32911 0.77926 0.98401 0.0
O48 O 0.34111 0.73727 0.93964 0.0
C49 C 0.39878 0.86436 0.97793 0.0
C50 C 0.38529 0.87457 0.71994 0.0
C51 C 0.36509 0.74558 0.87791 0.0
O52 O 0.4027 0.86084 0.89885 0.0
O53 O 0.36961 0.83683 1.02203 0.0
O54 O 0.31733 0.78195 0.74479 0.0
O55 O 0.31618 0.79582 0.8785 0.0
Co56 Co 0.48274 0.37 0.29745 0.0
O57 O 0.43104 0.35859 0.25339 0.0
O58 O 0.4913 0.40938 0.21086 0.0
C59 C 0.47001 0.30479 0.29752 0.0
O60 O 0.54224 0.39025 0.32272 0.0
Co61 Co 0.49019 0.33533 0.46931 0.0
O62 O 0.54566 0.35267 0.42897 0.0
C63 C 0.47144 0.40202 0.46371 0.0
C64 C 0.45205 0.39006 0.20441 0.0
C65 C 0.56186 0.37835 0.36906 0.0
O66 O 0.48001 0.40732 0.38511 0.0
O67 O 0.47052 0.37301 0.50731 0.0
O68 O 0.48097 0.32616 0.22855 0.0
O69 O 0.46318 0.32161 0.36106 0.0
Co70 Co 0.06504 0.53441 0.86548 0.0
O71 O 0.0248 0.54576 0.90991 0.0
O72 O 0.03432 0.49496 0.95204 0.0
C73 C 0.11753 0.59963 0.86544 0.0
O74 O 0.10428 0.51422 0.83973 0.0
Co75 Co 0.10697 0.56923 0.6935 0.0
O76 O 0.14515 0.55188 0.73338 0.0
C77 C 0.02152 0.50251 0.69937 0.0
C78 C 0.01439 0.51427 0.95876 0.0
C79 C 0.13575 0.52616 0.79319 0.0
O80 O 0.02488 0.49714 0.77789 0.0
O81 O 0.04955 0.53157 0.65574 0.0
O82 O 0.10719 0.5782 0.93435 0.0
O83 O 0.0938 0.58284 0.80197 0.0
C84 C 0.47187 0.19883 0.32863 0.0
C85 C 0.47421 0.16833 0.33871 0.0
C86 C 0.47046 0.23522 0.31569 0.0
C87 C 0.47043 0.26702 0.30601 0.0
C88 C 0.22504 0.50187 0.83751 0.0
C89 C 0.25855 0.50726 0.84861 0.0
C90 C 0.18968 0.504 0.82436 0.0
C91 C 0.16375 0.51273 0.81355 0.0
C92 C 0.64683 0.21528 0.32376 0.0
C93 C 0.61243 0.18881 0.30789 0.0
C94 C 0.68583 0.24921 0.34105 0.0
C95 C 0.71792 0.28045 0.35274 0.0
C96 C 0.38399 0.6892 0.83901 0.0
C97 C 0.37606 0.71567 0.85485 0.0
C98 C 0.38904 0.65527 0.82178 0.0
C99 C 0.38989 0.62403 0.81012 0.0
C100 C 0.63792 0.40052 0.33742 0.0
C101 C 0.60328 0.39181 0.34839 0.0
C102 C 0.6754 0.40262 0.32425 0.0
C103 C 0.7035 0.39719 0.31331 0.0
C104 C 0.22539 0.70557 0.83417 0.0
C105 C 0.25824 0.73606 0.82408 0.0
C106 C 0.18756 0.66918 0.84716 0.0
C107 C 0.15574 0.63739 0.85688 0.0
C108 C 0.44761 0.93384 1.05763 0.0
C109 C 0.42634 0.90283 1.01803 0.0
C110 C 0.46597 -0.02938 0.10526 0.0
C111 C 0.47566 0.00162 0.14484 0.0
C112 C 0.45074 0.44931 0.54611 0.0
C113 C 0.4605 0.42888 0.50493 0.0
C114 C 0.43646 0.46918 0.5993 0.0
C115 C 0.42251 0.48316 0.64808 0.0
C116 C -0.04717 0.48639 1.06422 0.0
C117 C -0.01924 0.49993 1.01546 0.0
C118 C 0.91866 0.46639 0.11736 0.0
C119 C 0.88855 0.44532 0.15834 0.0
C120 C 0.42898 -0.03149 0.55196 0.0
C121 C 0.44385 -0.00363 0.50175 0.0
C122 C 0.41271 0.93592 0.61092 0.0
C123 C 0.39977 0.90806 0.66111 0.0
C124 C 0.40411 0.43787 1.0459 0.0
C125 C 0.39514 0.45897 1.00482 0.0
C126 C 0.41825 0.41786 0.09909 0.0
C127 C 0.43267 0.40433 0.14781 0.0
C128 C -0.04657 0.45522 0.61718 0.0
C129 C -0.01634 0.47564 0.65827 0.0
C130 C 0.91927 0.43536 0.564 0.0
C131 C 0.89135 0.42137 0.51517 0.0
loop_
_geom_bond_atom_site_label_1
_geom_bond_atom_site_label_2
_geom_bond_distance
_geom_bond_site_symmetry_2
_ccdc_geom_bond_type
Co0 O1 2.216 . S
Co0 O2 2.091 . S
Co0 O4 2.004 . S
Co0 O10 2.021 . S
Co0 O12 2.137 . S
Co0 O13 2.244 . S
O1 Co0 2.216 . S
O1 C8 1.247 . S
O2 Co0 2.091 . S
O2 C8 1.261 . S
C3 O12 1.247 . S
C3 O13 1.272 . S
O4 Co0 2.004 . S
O4 C9 1.259 . S
Co5 O6 2.061 . S
Co5 O11 2.052 . S
Co5 O13 2.135 . S
O6 Co5 2.061 . S
O6 C9 1.235 . S
C7 O10 1.238 . S
C7 O11 1.241 . S
C8 O1 1.247 . S
C8 O2 1.261 . S
C9 O4 1.259 . S
C9 O6 1.235 . S
O10 Co0 2.021 . S
O10 C7 1.238 . S
O11 Co5 2.052 . S
O11 C7 1.241 . S
O12 Co0 2.137 . S
O12 C3 1.247 . S
O13 Co0 2.244 . S
O13 C3 1.272 . S
O13 Co5 2.135 . S
Co14 O15 2.216 . S
Co14 O16 2.091 . S
Co14 O18 2.004 . S
Co14 O24 2.021 . S
Co14 O26 2.137 . S
Co14 O27 2.244 . S
O15 Co14 2.216 . S
O15 C22 1.247 . S
O16 Co14 2.091 . S
O16 C22 1.261 . S
C17 O26 1.247 . S
C17 O27 1.272 . S
O18 Co14 2.004 . S
O18 C23 1.259 . S
Co19 O20 2.061 . S
Co19 O25 2.052 . S
Co19 O27 2.135 . S
O20 Co19 2.061 . S
O20 C23 1.235 . S
C21 O24 1.238 . S
C21 O25 1.241 . S
C22 O15 1.247 . S
C22 O16 1.261 . S
C23 O18 1.259 . S
C23 O20 1.235 . S
O24 Co14 2.021 . S
O24 C21 1.238 . S
O25 Co19 2.052 . S
O25 C21 1.241 . S
O26 Co14 2.137 . S
O26 C17 1.247 . S
O27 Co14 2.244 . S
O27 C17 1.272 . S
O27 Co19 2.135 . S
Co28 O29 2.216 . S
Co28 O30 2.091 . S
Co28 O32 2.004 . S
Co28 O38 2.021 . S
Co28 O40 2.137 . S
Co28 O41 2.244 . S
O29 Co28 2.216 . S
O29 C36 1.247 . S
O30 Co28 2.091 . S
O30 C36 1.261 . S
C31 O40 1.247 . S
C31 O41 1.272 . S
O32 Co28 2.004 . S
O32 C37 1.259 . S
Co33 O34 2.061 . S
Co33 O39 2.052 . S
Co33 O41 2.135 . S
O34 Co33 2.061 . S
O34 C37 1.235 . S
C35 O38 1.238 . S
C35 O39 1.241 . S
C36 O29 1.247 . S
C36 O30 1.261 . S
C37 O32 1.259 . S
C37 O34 1.235 . S
O38 Co28 2.021 . S
O38 C35 1.238 . S
O39 Co33 2.052 . S
O39 C35 1.241 . S
O40 Co28 2.137 . S
O40 C31 1.247 . S
O41 Co28 2.244 . S
O41 C31 1.272 . S
O41 Co33 2.135 . S
Co42 O43 2.216 . S
Co42 O44 2.091 . S
Co42 O46 2.004 . S
Co42 O52 2.021 . S
Co42 O54 2.137 . S
Co42 O55 2.244 . S
O43 Co42 2.216 . S
O43 C50 1.247 . S
O44 Co42 2.091 . S
O44 C50 1.261 . S
C45 O54 1.247 . S
C45 O55 1.272 . S
O46 Co42 2.004 . S
O46 C51 1.259 . S
Co47 O48 2.061 . S
Co47 O53 2.052 . S
Co47 O55 2.135 . S
O48 Co47 2.061 . S
O48 C51 1.235 . S
C49 O52 1.238 . S
C49 O53 1.241 . S
C50 O43 1.247 . S
C50 O44 1.261 . S
C51 O46 1.259 . S
C51 O48 1.235 . S
O52 Co42 2.021 . S
O52 C49 1.238 . S
O53 Co47 2.052 . S
O53 C49 1.241 . S
O54 Co42 2.137 . S
O54 C45 1.247 . S
O55 Co42 2.244 . S
O55 C45 1.272 . S
O55 Co47 2.135 . S
Co56 O57 2.216 . S
Co56 O58 2.091 . S
Co56 O60 2.004 . S
Co56 O66 2.021 . S
Co56 O68 2.137 . S
Co56 O69 2.244 . S
O57 Co56 2.216 . S
O57 C64 1.247 . S
O58 Co56 2.091 . S
O58 C64 1.261 . S
C59 O68 1.247 . S
C59 O69 1.272 . S
O60 Co56 2.004 . S
O60 C65 1.259 . S
Co61 O62 2.061 . S
Co61 O67 2.052 . S
Co61 O69 2.135 . S
O62 Co61 2.061 . S
O62 C65 1.235 . S
C63 O66 1.238 . S
C63 O67 1.241 . S
C64 O57 1.247 . S
C64 O58 1.261 . S
C65 O60 1.259 . S
C65 O62 1.235 . S
O66 Co56 2.021 . S
O66 C63 1.238 . S
O67 Co61 2.052 . S
O67 C63 1.241 . S
O68 Co56 2.137 . S
O68 C59 1.247 . S
O69 Co56 2.244 . S
O69 C59 1.272 . S
O69 Co61 2.135 . S
Co70 O71 2.216 . S
Co70 O72 2.091 . S
Co70 O74 2.004 . S
Co70 O80 2.021 . S
Co70 O82 2.137 . S
Co70 O83 2.244 . S
O71 Co70 2.216 . S
O71 C78 1.247 . S
O72 Co70 2.091 . S
O72 C78 1.261 . S
C73 O82 1.247 . S
C73 O83 1.272 . S
O74 Co70 2.004 . S
O74 C79 1.259 . S
Co75 O76 2.061 . S
Co75 O81 2.052 . S
Co75 O83 2.135 . S
O76 Co75 2.061 . S
O76 C79 1.235 . S
C77 O80 1.238 . S
C77 O81 1.241 . S
C78 O71 1.247 . S
C78 O72 1.261 . S
C79 O74 1.259 . S
C79 O76 1.235 . S
O80 Co70 2.021 . S
O80 C77 1.238 . S
O81 Co75 2.052 . S
O81 C77 1.241 . S
O82 Co70 2.137 . S
O82 C73 1.247 . S
O83 Co70 2.244 . S
O83 C73 1.272 . S
O83 Co75 2.135 . S
C84 C85 1.170 . S
C84 C86 1.380 . S
C85 C84 1.170 . S
C86 C84 1.380 . S
C86 C87 1.170 . S
C87 C86 1.170 . S
C88 C89 1.170 . S
C88 C90 1.380 . S
C89 C88 1.170 . S
C90 C88 1.380 . S
C90 C91 1.170 . S
C91 C90 1.170 . S
C92 C93 1.170 . S
C92 C94 1.380 . S
C93 C92 1.170 . S
C94 C92 1.380 . S
C94 C95 1.170 . S
C95 C94 1.170 . S
C96 C97 1.170 . S
C96 C98 1.380 . S
C97 C96 1.170 . S
C98 C96 1.380 . S
C98 C99 1.170 . S
C99 C98 1.170 . S
C100 C101 1.170 . S
C100 C102 1.380 . S
C101 C100 1.170 . S
C102 C100 1.380 . S
C102 C103 1.170 . S
C103 C102 1.170 . S
C104 C105 1.170 . S
C104 C106 1.380 . S
C105 C104 1.170 . S
C106 C104 1.380 . S
C106 C107 1.170 . S
C107 C106 1.170 . S
C108 C109 1.170 . S
C108 C110 1.380 1_566 S
C109 C108 1.170 . S
C110 C108 1.380 1_544 S
C110 C111 1.170 . S
C111 C110 1.170 . S
C112 C113 1.170 . S
C112 C114 1.380 . S
C113 C112 1.170 . S
C114 C112 1.380 . S
C114 C115 1.170 . S
C115 C114 1.170 . S
C116 C117 1.170 . S
C116 C118 1.380 1_456 S
C117 C116 1.170 . S
C118 C116 1.380 1_654 S
C118 C119 1.170 . S
C119 C118 1.170 . S
C120 C121 1.170 . S
C120 C122 1.380 1_545 S
C121 C120 1.170 . S
C122 C120 1.380 1_565 S
C122 C123 1.170 . S
C123 C122 1.170 . S
C124 C125 1.170 . S
C124 C126 1.380 1_556 S
C125 C124 1.170 . S
C126 C124 1.380 1_554 S
C126 C127 1.170 . S
C127 C126 1.170 . S
C128 C129 1.170 . S
C128 C130 1.380 1_455 S
C129 C128 1.170 . S
C130 C128 1.380 1_655 S
C130 C131 1.170 . S
C131 C130 1.170 . S
C85 C3 1.232 . S
C87 C59 1.239 . S
C89 C23 1.216 . S
C91 C79 1.229 . S
C93 C9 1.216 . S
C95 C31 1.226 . S
C97 C51 1.250 . S
C99 C17 1.258 . S
C101 C65 1.233 . S
C103 C37 1.224 . S
C105 C45 1.236 . S
C107 C73 1.247 . S
C109 C49 1.373 . S
C111 C7 1.402 . S
C113 C63 1.391 . S
C115 C22 1.424 . S
C117 C78 1.412 . S
C119 C35 1.397 . S
C121 C8 1.456 . S
C123 C50 1.444 . S
C125 C21 1.392 . S
C127 C64 1.427 . S
C129 C77 1.384 . S
C131 C36 1.409 . S
