# Generated by pormake.
# Topology vme, (6)-cn, num edge types: 1
# Building blocks:
#     Node 0, Type 0, BuildingBlock: VOLQOD_clean_sbu_1, # of connection points: 6
#     Node 1, Type 0, BuildingBlock: VOLQOD_clean_sbu_1, # of connection points: 6
#     Node 2, Type 0, BuildingBlock: VOLQOD_clean_sbu_1, # of connection points: 6
#     Node 3, Type 0, BuildingBlock: VOLQOD_clean_sbu_1, # of connection points: 6
#     Edge 4, Type (0, 0), None
#     Edge 5, Type (0, 0), None
#     Edge 6, Type (0, 0), None
#     Edge 7, Type (0, 0), None
#     Edge 8, Type (0, 0), None
#     Edge 9, Type (0, 0), None
#     Edge 10, Type (0, 0), None
#     Edge 11, Type (0, 0), None
#     Edge 12, Type (0, 0), None
#     Edge 13, Type (0, 0), None
#     Edge 14, Type (0, 0), None
#     Edge 15, Type (0, 0), None
# Relax obj value: 0.303
# Max RMSD: 0.247
# Mean RMSD: 0.247
data_MOF--net-vme--node1-VOLQOD_clean_sbu_1--edge1-none
_symmetry_space_group_name_H-M    P1
_symmetry_Int_Tables_number       1
_symmetry_cell_setting            triclinic
loop_
_symmetry_equiv_pos_as_xyz
'x, y, z'
_cell_length_a     13.615799
_cell_length_b     14.035911
_cell_length_c     14.520087
_cell_angle_alpha  90.000014
_cell_angle_beta   113.35871
_cell_angle_gamma 90.000388
loop_
_atom_site_label
_atom_site_type_symbol
_atom_site_fract_x
_atom_site_fract_y
_atom_site_fract_z
_atom_type_partial_charge
O0 O 0.00524 0.38395 0.43885 0.0
Zn1 Zn 0.0423 0.35097 0.32575 0.0
O2 O 0.19362 0.35078 0.37679 0.0
Zn3 Zn 0.24894 0.2271 0.39114 0.0
Zn4 Zn 0.24354 0.41681 0.49973 0.0
Zn5 Zn 0.24351 0.43453 0.30314 0.0
O6 O 0.31932 0.22485 0.28606 0.0
O7 O 0.25658 0.35757 0.19464 0.0
O8 O 0.97696 0.21753 0.2807 0.0
O9 O 0.12666 0.13188 0.34021 0.0
O10 O 0.3159 0.19645 0.54622 0.0
O11 O 0.26512 0.32599 0.60472 0.0
O12 O 0.39061 0.4698 0.53697 0.0
O13 O 0.98671 0.46951 0.23788 0.0
O14 O 0.39572 0.46869 0.38672 0.0
O15 O 0.13862 0.54722 0.26254 0.0
C16 C 0.03555 0.46202 0.48554 0.0
C17 C 0.30228 0.27637 0.20714 0.0
C18 C 0.30207 0.24225 0.6172 0.0
C19 C 0.02485 0.13682 0.30006 0.0
C20 C 0.44232 0.47705 0.48127 0.0
C21 C 0.03697 0.54645 0.23626 0.0
O22 O 0.12604 0.49952 0.50046 0.0
O23 O 0.99498 0.88395 0.06929 0.0
Zn24 Zn 0.95792 0.85097 0.18238 0.0
O25 O 0.8066 0.85078 0.13135 0.0
Zn26 Zn 0.75128 0.72709 0.11699 0.0
Zn27 Zn 0.75668 0.91681 0.0084 0.0
Zn28 Zn 0.75671 0.93452 0.20499 0.0
O29 O 0.6809 0.72485 0.22208 0.0
O30 O 0.74364 0.85756 0.31349 0.0
O31 O 0.02327 0.71753 0.22744 0.0
O32 O 0.87356 0.63188 0.16792 0.0
O33 O 0.68433 0.69644 0.96192 0.0
O34 O 0.7351 0.82599 0.90341 0.0
O35 O 0.60961 0.9698 0.97116 0.0
O36 O 0.01351 0.96951 0.27025 0.0
O37 O 0.6045 0.96869 0.12141 0.0
O38 O 0.8616 0.04722 0.2456 0.0
C39 C 0.96467 0.96201 0.02259 0.0
C40 C 0.69794 0.77637 0.30099 0.0
C41 C 0.69815 0.74225 0.89094 0.0
C42 C 0.97537 0.63682 0.20807 0.0
C43 C 0.5579 0.97705 0.02687 0.0
C44 C 0.96325 0.04645 0.27188 0.0
O45 O 0.87418 -0.00048 0.00767 0.0
O46 O 0.99495 0.58686 0.56927 0.0
Zn47 Zn 0.95791 0.61983 0.68237 0.0
O48 O 0.80658 0.62002 0.63135 0.0
Zn49 Zn 0.75127 0.74372 0.617 0.0
Zn50 Zn 0.75665 0.55398 0.50841 0.0
Zn51 Zn 0.7567 0.53627 0.705 0.0
O52 O 0.68088 0.74596 0.72208 0.0
O53 O 0.74364 0.61322 0.8135 0.0
O54 O 0.02326 0.75327 0.72743 0.0
O55 O 0.87356 0.83893 0.66794 0.0
O56 O 0.68435 0.77438 0.46192 0.0
O57 O 0.73505 0.64479 0.40341 0.0
O58 O 0.60959 0.50097 0.47118 0.0
O59 O 0.0135 0.5013 0.77024 0.0
O60 O 0.60449 0.5021 0.62143 0.0
O61 O 0.8616 0.42358 0.7456 0.0
C62 C 0.96464 0.50879 0.52258 0.0
C63 C 0.69788 0.6944 0.80096 0.0
C64 C 0.69812 0.72853 0.39094 0.0
C65 C 0.97537 0.83398 0.70808 0.0
C66 C 0.55789 0.49373 0.52689 0.0
C67 C 0.96325 0.42435 0.77187 0.0
O68 O 0.87416 0.47127 0.50768 0.0
O69 O 0.00527 0.08685 0.93887 0.0
Zn70 Zn 0.04232 0.11983 0.82576 0.0
O71 O 0.19364 0.12003 0.87678 0.0
Zn72 Zn 0.24895 0.24372 0.89113 0.0
Zn73 Zn 0.24357 0.05398 0.99972 0.0
Zn74 Zn 0.24352 0.03627 0.80314 0.0
O75 O 0.31934 0.24596 0.78605 0.0
O76 O 0.25659 0.11323 0.69464 0.0
O77 O 0.97696 0.25327 0.7807 0.0
O78 O 0.12666 0.33893 0.84019 0.0
O79 O 0.31587 0.27438 0.04621 0.0
O80 O 0.26517 0.14479 0.10472 0.0
O81 O 0.39063 0.00098 0.03695 0.0
O82 O 0.98672 0.0013 0.7379 0.0
O83 O 0.39574 0.0021 0.8867 0.0
O84 O 0.13862 0.92358 0.76253 0.0
C85 C 0.03558 0.00879 0.98555 0.0
C86 C 0.30235 0.1944 0.70718 0.0
C87 C 0.3021 0.22853 0.11719 0.0
C88 C 0.02485 0.33398 0.80005 0.0
C89 C 0.44234 -0.00627 0.98124 0.0
C90 C 0.03698 0.92435 0.73626 0.0
O91 O 0.12606 0.97128 1.00045 0.0
loop_
_geom_bond_atom_site_label_1
_geom_bond_atom_site_label_2
_geom_bond_distance
_geom_bond_site_symmetry_2
_ccdc_geom_bond_type
O0 Zn1 1.957 . S
O0 C16 1.227 . S
Zn1 O0 1.957 . S
Zn1 O2 1.949 . S
Zn1 O8 1.919 1_455 S
Zn1 O13 1.924 1_455 S
O2 Zn1 1.949 . S
O2 Zn3 1.923 . S
O2 Zn4 1.950 . S
O2 Zn5 1.945 . S
Zn3 O2 1.923 . S
Zn3 O6 1.933 . S
Zn3 O9 1.941 . S
Zn3 O10 1.965 . S
Zn4 O2 1.950 . S
Zn4 O11 1.938 . S
Zn4 O12 1.906 . S
Zn4 O22 1.953 . S
Zn5 O2 1.945 . S
Zn5 O7 1.932 . S
Zn5 O14 1.977 . S
Zn5 O15 1.910 . S
O6 Zn3 1.933 . S
O6 C17 1.226 . S
O7 Zn5 1.932 . S
O7 C17 1.307 . S
O8 Zn1 1.919 1_655 S
O8 C19 1.253 . S
O9 Zn3 1.941 . S
O9 C19 1.283 1_455 S
O10 Zn3 1.965 . S
O10 C18 1.303 . S
O11 Zn4 1.938 . S
O11 C18 1.247 . S
O12 Zn4 1.906 . S
O12 C20 1.304 . S
O13 Zn1 1.924 1_655 S
O13 C21 1.311 1_655 S
O14 Zn5 1.977 . S
O14 C20 1.272 . S
O15 Zn5 1.910 . S
O15 C21 1.231 . S
C16 O0 1.227 . S
C16 O22 1.298 . S
C17 O6 1.226 . S
C17 O7 1.307 . S
C18 O10 1.303 . S
C18 O11 1.247 . S
C19 O8 1.253 . S
C19 O9 1.283 1_655 S
C20 O12 1.304 . S
C20 O14 1.272 . S
C21 O13 1.311 1_455 S
C21 O15 1.231 . S
O22 Zn4 1.953 . S
O22 C16 1.298 . S
O23 Zn24 1.957 . S
O23 C39 1.225 1_564 S
Zn24 O23 1.957 . S
Zn24 O25 1.949 . S
Zn24 O31 1.919 1_655 S
Zn24 O36 1.924 1_665 S
O25 Zn24 1.949 . S
O25 Zn26 1.923 . S
O25 Zn27 1.950 1_554 S
O25 Zn28 1.945 . S
Zn26 O25 1.923 . S
Zn26 O29 1.933 . S
Zn26 O32 1.941 . S
Zn26 O33 1.965 1_554 S
Zn27 O25 1.950 1_556 S
Zn27 O34 1.938 . S
Zn27 O35 1.906 . S
Zn27 O45 1.953 1_565 S
Zn28 O25 1.945 . S
Zn28 O30 1.932 . S
Zn28 O37 1.977 1_565 S
Zn28 O38 1.910 1_565 S
O29 Zn26 1.933 . S
O29 C40 1.226 . S
O30 Zn28 1.932 . S
O30 C40 1.307 . S
O31 Zn24 1.919 1_455 S
O31 C42 1.253 . S
O32 Zn26 1.941 . S
O32 C42 1.283 1_655 S
O33 Zn26 1.965 1_556 S
O33 C41 1.303 . S
O34 Zn27 1.938 . S
O34 C41 1.247 . S
O35 Zn27 1.906 . S
O35 C43 1.304 1_566 S
O36 Zn24 1.924 1_445 S
O36 C44 1.311 1_455 S
O37 Zn28 1.977 1_545 S
O37 C43 1.272 . S
O38 Zn28 1.910 1_545 S
O38 C44 1.231 . S
C39 O23 1.225 1_546 S
C39 O45 1.298 . S
C40 O29 1.226 . S
C40 O30 1.307 . S
C41 O33 1.303 . S
C41 O34 1.247 . S
C42 O31 1.253 . S
C42 O32 1.283 1_455 S
C43 O35 1.304 1_544 S
C43 O37 1.272 . S
C44 O36 1.311 1_655 S
C44 O38 1.231 . S
O45 Zn27 1.953 1_545 S
O45 C39 1.298 . S
O46 Zn47 1.957 . S
O46 C62 1.227 . S
Zn47 O46 1.957 . S
Zn47 O48 1.949 . S
Zn47 O54 1.919 1_655 S
Zn47 O59 1.924 1_655 S
O48 Zn47 1.949 . S
O48 Zn49 1.923 . S
O48 Zn50 1.950 . S
O48 Zn51 1.945 . S
Zn49 O48 1.923 . S
Zn49 O52 1.933 . S
Zn49 O55 1.941 . S
Zn49 O56 1.965 . S
Zn50 O48 1.950 . S
Zn50 O57 1.938 . S
Zn50 O58 1.906 . S
Zn50 O68 1.953 . S
Zn51 O48 1.945 . S
Zn51 O53 1.932 . S
Zn51 O60 1.977 . S
Zn51 O61 1.910 . S
O52 Zn49 1.933 . S
O52 C63 1.226 . S
O53 Zn51 1.932 . S
O53 C63 1.307 . S
O54 Zn47 1.919 1_455 S
O54 C65 1.253 . S
O55 Zn49 1.941 . S
O55 C65 1.283 1_655 S
O56 Zn49 1.965 . S
O56 C64 1.303 . S
O57 Zn50 1.938 . S
O57 C64 1.247 . S
O58 Zn50 1.906 . S
O58 C66 1.304 . S
O59 Zn47 1.924 1_455 S
O59 C67 1.311 1_455 S
O60 Zn51 1.977 . S
O60 C66 1.272 . S
O61 Zn51 1.910 . S
O61 C67 1.231 . S
C62 O46 1.227 . S
C62 O68 1.298 . S
C63 O52 1.226 . S
C63 O53 1.307 . S
C64 O56 1.303 . S
C64 O57 1.247 . S
C65 O54 1.253 . S
C65 O55 1.283 1_455 S
C66 O58 1.304 . S
C66 O60 1.272 . S
C67 O59 1.311 1_655 S
C67 O61 1.231 . S
O68 Zn50 1.953 . S
O68 C62 1.298 . S
O69 Zn70 1.957 . S
O69 C85 1.225 1_546 S
Zn70 O69 1.957 . S
Zn70 O71 1.949 . S
Zn70 O77 1.919 1_455 S
Zn70 O82 1.924 1_445 S
O71 Zn70 1.949 . S
O71 Zn72 1.923 . S
O71 Zn73 1.950 1_556 S
O71 Zn74 1.945 . S
Zn72 O71 1.923 . S
Zn72 O75 1.933 . S
Zn72 O78 1.941 . S
Zn72 O79 1.965 1_556 S
Zn73 O71 1.950 1_554 S
Zn73 O80 1.938 . S
Zn73 O81 1.906 . S
Zn73 O91 1.953 1_545 S
Zn74 O71 1.945 . S
Zn74 O76 1.932 . S
Zn74 O83 1.977 1_545 S
Zn74 O84 1.910 1_545 S
O75 Zn72 1.933 . S
O75 C86 1.226 . S
O76 Zn74 1.932 . S
O76 C86 1.307 . S
O77 Zn70 1.919 1_655 S
O77 C88 1.253 . S
O78 Zn72 1.941 . S
O78 C88 1.283 1_455 S
O79 Zn72 1.965 1_554 S
O79 C87 1.303 . S
O80 Zn73 1.938 . S
O80 C87 1.247 . S
O81 Zn73 1.906 . S
O81 C89 1.304 1_544 S
O82 Zn70 1.924 1_665 S
O82 C90 1.311 1_655 S
O83 Zn74 1.977 1_565 S
O83 C89 1.272 . S
O84 Zn74 1.910 1_565 S
O84 C90 1.231 . S
C85 O69 1.225 1_564 S
C85 O91 1.298 . S
C86 O75 1.226 . S
C86 O76 1.307 . S
C87 O79 1.303 . S
C87 O80 1.247 . S
C88 O77 1.253 . S
C88 O78 1.283 1_655 S
C89 O81 1.304 1_566 S
C89 O83 1.272 . S
C90 O82 1.311 1_455 S
C90 O84 1.231 . S
O91 Zn73 1.953 1_565 S
O91 C85 1.298 . S
C44 C19 2.029 . S
C21 C42 2.029 . S
C90 C65 2.029 . S
C67 C88 2.029 . S
C62 C16 1.509 1_655 S
C39 C85 1.509 1_646 S
C87 C17 2.087 . S
C40 C64 2.087 . S
C41 C63 2.087 . S
C86 C18 2.087 . S
C20 C66 1.735 . S
C89 C43 1.735 1_566 S
