# Generated by pormake.
# Topology kag, (6)-cn, num edge types: 1
# Building blocks:
#     Node 0, Type 0, BuildingBlock: LEVNOQ01_clean_sbu_1, # of connection points: 6
#     Node 1, Type 0, BuildingBlock: LEVNOQ01_clean_sbu_1, # of connection points: 6
#     Node 2, Type 0, BuildingBlock: LEVNOQ01_clean_sbu_1, # of connection points: 6
#     Edge 3, Type (0, 0), BuildingBlock: AJUNOK_clean_linker_0, # of connection points: 2
#     Edge 4, Type (0, 0), BuildingBlock: AJUNOK_clean_linker_0, # of connection points: 2
#     Edge 5, Type (0, 0), BuildingBlock: AJUNOK_clean_linker_0, # of connection points: 2
#     Edge 6, Type (0, 0), BuildingBlock: AJUNOK_clean_linker_0, # of connection points: 2
#     Edge 7, Type (0, 0), BuildingBlock: AJUNOK_clean_linker_0, # of connection points: 2
#     Edge 8, Type (0, 0), BuildingBlock: AJUNOK_clean_linker_0, # of connection points: 2
#     Edge 9, Type (0, 0), BuildingBlock: AJUNOK_clean_linker_0, # of connection points: 2
#     Edge 10, Type (0, 0), BuildingBlock: AJUNOK_clean_linker_0, # of connection points: 2
#     Edge 11, Type (0, 0), BuildingBlock: AJUNOK_clean_linker_0, # of connection points: 2
# Relax obj value: 0.110
# Max RMSD: 0.157
# Mean RMSD: 0.150
data_MOF--net-kag--node1-LEVNOQ01_clean_sbu_1--edge1-AJUNOK_clean_linker_0
_symmetry_space_group_name_H-M    P1
_symmetry_Int_Tables_number       1
_symmetry_cell_setting            triclinic
loop_
_symmetry_equiv_pos_as_xyz
'x, y, z'
_cell_length_a     23.726787
_cell_length_b     23.231043
_cell_length_c     11.956006
_cell_angle_alpha  88.260612
_cell_angle_beta   106.14987
_cell_angle_gamma 120.4724
loop_
_atom_site_label
_atom_site_type_symbol
_atom_site_fract_x
_atom_site_fract_y
_atom_site_fract_z
_atom_type_partial_charge
O0 O 0.85861 0.36569 0.85664 0.0
Mg1 Mg 0.90434 0.46443 0.81147 0.0
O2 O 0.95544 0.38514 0.98571 0.0
Mg3 Mg 0.0274 0.50049 -0.00282 0.0
O4 O -0.00286 0.49685 0.78993 0.0
O5 O 0.90008 0.46689 0.64244 0.0
O6 O 0.10023 0.61589 0.01134 0.0
O7 O 0.10914 0.48149 0.95439 0.0
Mg8 Mg 0.14341 0.52619 0.17295 0.0
O9 O 0.0562 0.50401 0.20569 0.0
O10 O 0.19535 0.62452 0.12802 0.0
O11 O 0.14774 0.44589 0.11049 0.0
O12 O 0.15501 0.52974 0.34516 0.0
C13 C 0.90436 0.53858 0.9844 0.0
C14 C 0.8925 0.34479 0.92859 0.0
C15 C 0.96495 0.48858 0.6781 0.0
C16 C 0.16426 0.65129 0.06645 0.0
C17 C 0.14171 0.45297 0.00397 0.0
C18 C 0.09164 0.51336 0.31596 0.0
O19 O 0.88955 0.53682 0.87454 0.0
O20 O 0.94559 0.51964 0.03765 0.0
O21 O 0.47102 0.83594 0.98424 0.0
Mg22 Mg 0.4368 0.88881 0.86136 0.0
O23 O 0.56511 0.92838 0.08703 0.0
Mg24 Mg 0.53294 0.00576 0.02575 0.0
O25 O 0.51149 0.97516 0.82612 0.0
O26 O 0.44243 0.88051 0.69723 0.0
O27 O 0.49955 0.08221 0.96262 0.0
O28 O 0.64305 0.0773 0.00349 0.0
Mg29 Mg 0.62796 0.12193 0.18105 0.0
O30 O 0.55588 0.03743 0.22762 0.0
O31 O 0.5941 0.17546 0.06002 0.0
O32 O 0.71448 0.11944 0.17981 0.0
O33 O 0.62694 0.13648 0.34564 0.0
C34 C 0.36095 0.90208 0.97329 0.0
C35 C 0.52846 0.86436 0.06442 0.0
C36 C 0.48959 0.94361 0.72089 0.0
C37 C 0.53594 0.14627 0.98201 0.0
C38 C 0.7048 0.10902 0.07164 0.0
C39 C 0.58031 0.07338 0.32992 0.0
O40 O 0.35357 0.8969 0.86504 0.0
O41 O 0.42198 0.93205 0.04448 0.0
O42 O 0.42449 0.56311 0.90296 0.0
Mg43 Mg 0.5249 0.60301 0.88503 0.0
O44 O 0.41535 0.46764 0.95644 0.0
Mg45 Mg 0.52982 0.50369 0.00786 0.0
O46 O 0.53371 0.53071 0.81709 0.0
O47 O 0.52656 0.61201 0.71838 0.0
O48 O 0.64417 0.53874 0.05893 0.0
O49 O 0.50557 0.40184 0.91221 0.0
Mg50 Mg 0.52904 0.40403 0.12305 0.0
O51 O 0.52646 0.47783 0.20054 0.0
O52 O 0.62817 0.43966 0.10338 0.0
O53 O 0.43501 0.33196 -0.00061 0.0
O54 O 0.52905 0.39181 0.28931 0.0
C55 C 0.59601 0.66672 0.09541 0.0
C56 C 0.38855 0.50348 0.92491 0.0
C57 C 0.53273 0.55984 0.72232 0.0
C58 C 0.66728 0.49951 0.08618 0.0
C59 C 0.46153 0.3412 0.91802 0.0
C60 C 0.52763 0.4465 0.29274 0.0
O61 O 0.61732 0.67752 0.00739 0.0
O62 O 0.55419 0.60564 0.10334 0.0
C63 C 0.96015 0.45861 0.47688 0.0
C64 C -0.00052 0.49687 0.58872 0.0
C65 C -0.00972 0.46444 0.3888 0.0
C66 C 0.06088 0.50854 0.40963 0.0
H67 H 0.90562 0.42293 0.45759 0.0
H68 H 0.95829 0.43334 0.30462 0.0
S69 S 0.18577 0.62375 0.6845 0.0
N70 N 0.112 0.58249 0.71396 0.0
N71 N 0.16927 0.5938 0.54826 0.0
C72 C 0.10094 0.54762 0.52083 0.0
C73 C 0.07009 0.54164 0.61058 0.0
C74 C 0.52892 0.97223 0.43124 0.0
C75 C 0.55724 0.04191 0.43056 0.0
C76 C 0.50927 0.9415 0.52735 0.0
C77 C 0.51654 0.97906 0.62609 0.0
H78 H 0.52267 0.94116 0.35765 0.0
H79 H 0.48809 0.88766 0.52409 0.0
S80 S 0.58655 0.16315 0.66728 0.0
N81 N 0.59148 0.14796 0.53735 0.0
N82 N 0.55336 0.08964 0.71704 0.0
C83 C 0.54519 0.0489 0.62716 0.0
C84 C 0.56564 0.08041 0.52948 0.0
C85 C 0.51128 0.54947 0.50612 0.0
C86 C 0.53405 0.5313 0.61545 0.0
C87 C 0.50944 0.52184 0.40217 0.0
C88 C 0.53014 0.47489 0.40367 0.0
H89 H 0.49371 0.58467 0.50015 0.0
H90 H 0.49089 0.53686 0.32004 0.0
S91 S 0.6003 0.41544 0.66806 0.0
N92 N 0.58188 0.4668 0.71988 0.0
N93 N 0.57836 0.41448 0.52419 0.0
C94 C 0.55438 0.45721 0.51261 0.0
C95 C 0.55635 0.48552 0.61863 0.0
C96 C 0.22283 0.49973 0.88597 0.0
C97 C 0.19125 0.45042 0.95509 0.0
C98 C 0.28474 0.51376 0.87052 0.0
C99 C 0.31691 0.4784 0.92251 0.0
H100 H 0.20297 0.53174 0.85214 0.0
H101 H 0.30931 0.55514 0.82274 0.0
S102 S 0.24702 0.33483 0.09129 0.0
N103 N 0.19074 0.35933 0.06103 0.0
N104 N 0.30671 0.3848 0.03088 0.0
C105 C 0.28196 0.42411 0.98131 0.0
C106 C 0.21917 0.41031 -0.00219 0.0
C107 C 0.74578 0.16789 0.90822 0.0
C108 C 0.76168 0.15383 0.02415 0.0
C109 C 0.79156 0.22769 0.87432 0.0
C110 C 0.85529 0.27482 0.95447 0.0
H111 H 0.69518 0.13613 0.84651 0.0
H112 H 0.77468 0.23924 0.78733 0.0
S113 S 0.92935 0.25173 0.25689 0.0
N114 N 0.85147 0.18417 0.21057 0.0
N115 N 0.93778 0.29662 0.14639 0.0
C116 C 0.87589 0.25655 0.06471 0.0
C117 C 0.829 0.19576 0.09955 0.0
C118 C 0.50833 0.75561 0.13409 0.0
C119 C 0.55505 0.82161 0.11935 0.0
C120 C 0.52626 0.70635 0.14761 0.0
C121 C 0.59094 0.72124 0.14339 0.0
H122 H 0.45572 0.74047 0.12495 0.0
H123 H 0.48628 0.65479 0.14615 0.0
S124 S 0.73667 0.89011 0.13627 0.0
N125 N 0.67284 0.90251 0.12605 0.0
N126 N 0.70599 0.80926 0.14777 0.0
C127 C 0.64092 0.78904 0.1455 0.0
C128 C 0.623 0.83951 0.13385 0.0
C129 C 0.82934 0.58196 -0.00309 0.0
C130 C 0.85826 0.54272 0.04056 0.0
C131 C 0.7703 0.57147 0.02003 0.0
C132 C 0.73749 0.52052 0.08596 0.0
H133 H 0.84982 0.61791 0.93792 0.0
H134 H 0.74752 0.60006 0.97861 0.0
S135 S 0.79765 0.40968 0.23199 0.0
N136 N 0.85388 0.45591 0.16282 0.0
N137 N 0.74285 0.43587 0.20606 0.0
C138 C 0.7692 0.48482 0.13815 0.0
C139 C 0.82976 0.49611 0.11572 0.0
C140 C 0.1901 0.7469 0.94806 0.0
C141 C 0.20474 0.72338 0.0553 0.0
C142 C 0.23804 0.81029 0.92704 0.0
C143 C 0.30225 0.85183 0.01238 0.0
H144 H 0.14426 0.71413 0.87668 0.0
H145 H 0.22722 0.82388 0.83949 0.0
S146 S 0.35451 0.82035 0.31926 0.0
N147 N 0.27971 0.75164 0.25627 0.0
N148 N 0.37006 0.87074 0.21706 0.0
C149 C 0.31268 0.83252 0.12535 0.0
C150 C 0.26397 0.76797 0.14647 0.0
C151 C 0.53651 0.30213 0.88698 0.0
C152 C 0.4702 0.28636 0.88261 0.0
C153 C 0.55575 0.25405 0.9083 0.0
C154 C 0.5091 0.18823 0.92369 0.0
H155 H 0.57633 0.35366 0.88837 0.0
H156 H 0.60905 0.27005 0.92213 0.0
S157 S 0.32496 0.11724 0.89034 0.0
N158 N 0.35462 0.19738 0.87341 0.0
N159 N 0.39054 0.10631 0.91097 0.0
C160 C 0.44028 0.16927 0.90281 0.0
C161 C 0.42085 0.21858 0.88256 0.0
loop_
_geom_bond_atom_site_label_1
_geom_bond_atom_site_label_2
_geom_bond_distance
_geom_bond_site_symmetry_2
_ccdc_geom_bond_type
O0 Mg1 1.990 . S
O0 C14 1.253 . S
Mg1 O0 1.990 . S
Mg1 O4 2.180 1_655 S
Mg1 O5 2.117 . S
Mg1 O19 2.030 . S
O2 Mg3 2.072 1_655 S
O2 C14 1.260 1_554 S
Mg3 O2 2.072 1_455 S
Mg3 O4 2.099 1_554 S
Mg3 O6 2.079 . S
Mg3 O7 2.072 1_554 S
Mg3 O9 2.099 . S
Mg3 O20 2.079 1_455 S
O4 Mg1 2.180 1_455 S
O4 Mg3 2.099 1_556 S
O4 C15 1.279 . S
O5 Mg1 2.117 . S
O5 C15 1.250 1_655 S
O6 Mg3 2.079 . S
O6 C16 1.264 . S
O7 Mg3 2.072 1_556 S
O7 C17 1.260 1_556 S
Mg8 O9 2.180 . S
Mg8 O10 2.030 . S
Mg8 O11 1.990 . S
Mg8 O12 2.117 . S
O9 Mg3 2.099 . S
O9 Mg8 2.180 . S
O9 C18 1.279 . S
O10 Mg8 2.030 . S
O10 C16 1.248 . S
O11 Mg8 1.990 . S
O11 C17 1.253 . S
O12 Mg8 2.117 . S
O12 C18 1.250 . S
C13 O19 1.248 . S
C13 O20 1.264 1_556 S
C14 O0 1.253 . S
C14 O2 1.260 1_556 S
C15 O4 1.279 . S
C15 O5 1.250 1_455 S
C16 O6 1.264 . S
C16 O10 1.248 . S
C17 O7 1.260 1_554 S
C17 O11 1.253 . S
C18 O9 1.279 . S
C18 O12 1.250 . S
O19 Mg1 2.030 . S
O19 C13 1.248 . S
O20 Mg3 2.079 1_655 S
O20 C13 1.264 1_554 S
O21 Mg22 1.990 . S
O21 C35 1.253 1_556 S
Mg22 O21 1.990 . S
Mg22 O25 2.180 . S
Mg22 O26 2.117 . S
Mg22 O40 2.030 . S
O23 Mg24 2.072 1_565 S
O23 C35 1.260 . S
Mg24 O23 2.072 1_545 S
Mg24 O25 2.099 1_544 S
Mg24 O27 2.079 1_554 S
Mg24 O28 2.072 1_554 S
Mg24 O30 2.099 . S
Mg24 O41 2.079 1_545 S
O25 Mg22 2.180 . S
O25 Mg24 2.099 1_566 S
O25 C36 1.279 . S
O26 Mg22 2.117 . S
O26 C36 1.250 . S
O27 Mg24 2.079 1_556 S
O27 C37 1.264 1_556 S
O28 Mg24 2.072 1_556 S
O28 C38 1.260 1_556 S
Mg29 O30 2.180 . S
Mg29 O31 2.030 . S
Mg29 O32 1.990 . S
Mg29 O33 2.117 . S
O30 Mg24 2.099 . S
O30 Mg29 2.180 . S
O30 C39 1.279 . S
O31 Mg29 2.030 . S
O31 C37 1.248 . S
O32 Mg29 1.990 . S
O32 C38 1.253 . S
O33 Mg29 2.117 . S
O33 C39 1.250 . S
C34 O40 1.248 . S
C34 O41 1.264 1_556 S
C35 O21 1.253 1_554 S
C35 O23 1.260 . S
C36 O25 1.279 . S
C36 O26 1.250 . S
C37 O27 1.264 1_554 S
C37 O31 1.248 . S
C38 O28 1.260 1_554 S
C38 O32 1.253 . S
C39 O30 1.279 . S
C39 O33 1.250 . S
O40 Mg22 2.030 . S
O40 C34 1.248 . S
O41 Mg24 2.079 1_565 S
O41 C34 1.264 1_554 S
O42 Mg43 1.990 . S
O42 C56 1.253 . S
Mg43 O42 1.990 . S
Mg43 O46 2.180 . S
Mg43 O47 2.117 . S
Mg43 O61 2.030 . S
O44 Mg45 2.072 . S
O44 C56 1.260 1_554 S
Mg45 O44 2.072 . S
Mg45 O46 2.099 1_554 S
Mg45 O48 2.079 . S
Mg45 O49 2.072 1_554 S
Mg45 O51 2.099 . S
Mg45 O62 2.079 . S
O46 Mg43 2.180 . S
O46 Mg45 2.099 1_556 S
O46 C57 1.279 . S
O47 Mg43 2.117 . S
O47 C57 1.250 . S
O48 Mg45 2.079 . S
O48 C58 1.264 . S
O49 Mg45 2.072 1_556 S
O49 C59 1.260 1_556 S
Mg50 O51 2.180 . S
Mg50 O52 2.030 . S
Mg50 O53 1.990 . S
Mg50 O54 2.117 . S
O51 Mg45 2.099 . S
O51 Mg50 2.180 . S
O51 C60 1.279 . S
O52 Mg50 2.030 . S
O52 C58 1.248 . S
O53 Mg50 1.990 . S
O53 C59 1.253 . S
O54 Mg50 2.117 . S
O54 C60 1.250 . S
C55 O61 1.248 1_554 S
C55 O62 1.264 . S
C56 O42 1.253 . S
C56 O44 1.260 1_556 S
C57 O46 1.279 . S
C57 O47 1.250 . S
C58 O48 1.264 . S
C58 O52 1.248 . S
C59 O49 1.260 1_554 S
C59 O53 1.253 . S
C60 O51 1.279 . S
C60 O54 1.250 . S
O61 Mg43 2.030 . S
O61 C55 1.248 1_556 S
O62 Mg45 2.079 . S
O62 C55 1.264 . S
C63 C64 1.369 1_655 S
C63 C65 1.419 . S
C63 H67 0.930 . S
C64 C63 1.369 1_455 S
C64 C73 1.429 . S
C65 C63 1.419 . S
C65 C66 1.363 1_655 S
C65 H68 0.929 . S
C66 C65 1.363 1_455 S
C66 C72 1.428 . S
H67 C63 0.930 . S
H68 C65 0.929 . S
S69 N70 1.613 . S
S69 N71 1.610 . S
N70 S69 1.613 . S
N70 C73 1.350 . S
N71 S69 1.610 . S
N71 C72 1.351 . S
C72 C66 1.428 . S
C72 N71 1.351 . S
C72 C73 1.434 . S
C73 C64 1.429 . S
C73 N70 1.350 . S
C73 C72 1.434 . S
C74 C75 1.369 1_565 S
C74 C76 1.419 . S
C74 H78 0.930 . S
C75 C74 1.369 1_545 S
C75 C84 1.429 . S
C76 C74 1.419 . S
C76 C77 1.363 1_565 S
C76 H79 0.929 . S
C77 C76 1.363 1_545 S
C77 C83 1.428 . S
H78 C74 0.930 . S
H79 C76 0.929 . S
S80 N81 1.613 . S
S80 N82 1.610 . S
N81 S80 1.613 . S
N81 C84 1.350 . S
N82 S80 1.610 . S
N82 C83 1.351 . S
C83 C77 1.428 . S
C83 N82 1.351 . S
C83 C84 1.434 . S
C84 C75 1.429 . S
C84 N81 1.350 . S
C84 C83 1.434 . S
C85 C86 1.369 . S
C85 C87 1.419 . S
C85 H89 0.930 . S
C86 C85 1.369 . S
C86 C95 1.429 . S
C87 C85 1.419 . S
C87 C88 1.363 . S
C87 H90 0.929 . S
C88 C87 1.363 . S
C88 C94 1.428 . S
H89 C85 0.930 . S
H90 C87 0.929 . S
S91 N92 1.613 . S
S91 N93 1.610 . S
N92 S91 1.613 . S
N92 C95 1.350 . S
N93 S91 1.610 . S
N93 C94 1.351 . S
C94 C88 1.428 . S
C94 N93 1.351 . S
C94 C95 1.434 . S
C95 C86 1.429 . S
C95 N92 1.350 . S
C95 C94 1.434 . S
C96 C97 1.369 1_556 S
C96 C98 1.419 . S
C96 H100 0.930 . S
C97 C96 1.369 1_554 S
C97 C106 1.429 . S
C98 C96 1.419 . S
C98 C99 1.363 1_556 S
C98 H101 0.929 . S
C99 C98 1.363 1_554 S
C99 C105 1.428 . S
H100 C96 0.930 . S
H101 C98 0.929 . S
S102 N103 1.613 . S
S102 N104 1.610 . S
N103 S102 1.613 . S
N103 C106 1.350 . S
N104 S102 1.610 . S
N104 C105 1.351 . S
C105 C99 1.428 . S
C105 N104 1.351 . S
C105 C106 1.434 . S
C106 C97 1.429 . S
C106 N103 1.350 . S
C106 C105 1.434 . S
C107 C108 1.369 1_556 S
C107 C109 1.419 . S
C107 H111 0.930 . S
C108 C107 1.369 1_554 S
C108 C117 1.429 . S
C109 C107 1.419 . S
C109 C110 1.363 1_556 S
C109 H112 0.929 . S
C110 C109 1.363 1_554 S
C110 C116 1.428 . S
H111 C107 0.930 . S
H112 C109 0.929 . S
S113 N114 1.613 . S
S113 N115 1.610 . S
N114 S113 1.613 . S
N114 C117 1.350 . S
N115 S113 1.610 . S
N115 C116 1.351 . S
C116 C110 1.428 . S
C116 N115 1.351 . S
C116 C117 1.434 . S
C117 C108 1.429 . S
C117 N114 1.350 . S
C117 C116 1.434 . S
C118 C119 1.369 1_556 S
C118 C120 1.419 . S
C118 H122 0.930 . S
C119 C118 1.369 1_554 S
C119 C128 1.429 . S
C120 C118 1.419 . S
C120 C121 1.363 1_556 S
C120 H123 0.929 . S
C121 C120 1.363 1_554 S
C121 C127 1.428 . S
H122 C118 0.930 . S
H123 C120 0.929 . S
S124 N125 1.613 . S
S124 N126 1.610 . S
N125 S124 1.613 . S
N125 C128 1.350 . S
N126 S124 1.610 . S
N126 C127 1.351 . S
C127 C121 1.428 . S
C127 N126 1.351 . S
C127 C128 1.434 . S
C128 C119 1.429 . S
C128 N125 1.350 . S
C128 C127 1.434 . S
C129 C130 1.369 1_556 S
C129 C131 1.419 . S
C129 H133 0.930 . S
C130 C129 1.369 1_554 S
C130 C139 1.429 . S
C131 C129 1.419 . S
C131 C132 1.363 1_556 S
C131 H134 0.929 . S
C132 C131 1.363 1_554 S
C132 C138 1.428 . S
H133 C129 0.930 . S
H134 C131 0.929 . S
S135 N136 1.613 . S
S135 N137 1.610 . S
N136 S135 1.613 . S
N136 C139 1.350 . S
N137 S135 1.610 . S
N137 C138 1.351 . S
C138 C132 1.428 . S
C138 N137 1.351 . S
C138 C139 1.434 . S
C139 C130 1.429 . S
C139 N136 1.350 . S
C139 C138 1.434 . S
C140 C141 1.369 . S
C140 C142 1.419 . S
C140 H144 0.929 . S
C141 C140 1.369 . S
C141 C150 1.429 . S
C142 C140 1.419 . S
C142 C143 1.363 . S
C142 H145 0.929 1_554 S
C143 C142 1.363 . S
C143 C149 1.428 . S
H144 C140 0.929 . S
H145 C142 0.929 1_556 S
S146 N147 1.613 . S
S146 N148 1.610 . S
N147 S146 1.613 . S
N147 C150 1.350 . S
N148 S146 1.610 . S
N148 C149 1.351 . S
C149 C143 1.428 . S
C149 N148 1.351 . S
C149 C150 1.434 . S
C150 C141 1.429 . S
C150 N147 1.350 . S
C150 C149 1.434 . S
C151 C152 1.369 1_554 S
C151 C153 1.419 . S
C151 H155 0.930 . S
C152 C151 1.369 1_556 S
C152 C161 1.429 . S
C153 C151 1.419 . S
C153 C154 1.363 1_554 S
C153 H156 0.929 . S
C154 C153 1.363 1_556 S
C154 C160 1.428 . S
H155 C151 0.930 . S
H156 C153 0.929 . S
S157 N158 1.613 . S
S157 N159 1.610 . S
N158 S157 1.613 . S
N158 C161 1.350 . S
N159 S157 1.610 . S
N159 C160 1.351 . S
C160 C154 1.428 . S
C160 N159 1.351 . S
C160 C161 1.434 . S
C161 C152 1.429 . S
C161 N158 1.350 . S
C161 C160 1.434 . S
C64 C15 1.304 . S
C66 C18 1.292 . S
C75 C39 1.266 . S
C77 C36 1.271 1_545 S
C86 C57 1.265 . S
C88 C60 1.271 . S
C97 C17 1.255 . S
C99 C56 1.265 1_554 S
C108 C38 1.258 . S
C110 C14 1.264 1_554 S
C119 C35 1.232 . S
C121 C55 1.248 . S
C130 C13 1.225 1_554 S
C132 C58 1.216 . S
C141 C16 1.219 . S
C143 C34 1.218 1_554 S
C152 C59 1.231 1_556 S
C154 C37 1.247 1_556 S
