# Generated by pormake.
# Topology unc, (4)-cn, num edge types: 1
# Building blocks:
#     Node 0, Type 0, BuildingBlock: AZAVOO_clean_sbu_0, # of connection points: 4
#     Node 1, Type 0, BuildingBlock: AZAVOO_clean_sbu_0, # of connection points: 4
#     Node 2, Type 0, BuildingBlock: AZAVOO_clean_sbu_0, # of connection points: 4
#     Node 3, Type 0, BuildingBlock: AZAVOO_clean_sbu_0, # of connection points: 4
#     Edge 4, Type (0, 0), BuildingBlock: EZIPEK_clean_linker_0, # of connection points: 2
#     Edge 5, Type (0, 0), BuildingBlock: EZIPEK_clean_linker_0, # of connection points: 2
#     Edge 6, Type (0, 0), BuildingBlock: EZIPEK_clean_linker_0, # of connection points: 2
#     Edge 7, Type (0, 0), BuildingBlock: EZIPEK_clean_linker_0, # of connection points: 2
#     Edge 8, Type (0, 0), BuildingBlock: EZIPEK_clean_linker_0, # of connection points: 2
#     Edge 9, Type (0, 0), BuildingBlock: EZIPEK_clean_linker_0, # of connection points: 2
#     Edge 10, Type (0, 0), BuildingBlock: EZIPEK_clean_linker_0, # of connection points: 2
#     Edge 11, Type (0, 0), BuildingBlock: EZIPEK_clean_linker_0, # of connection points: 2
# Relax obj value: 0.169
# Max RMSD: 0.210
# Mean RMSD: 0.210
data_MOF--net-unc--node1-AZAVOO_clean_sbu_0--edge1-EZIPEK_clean_linker_0
_symmetry_space_group_name_H-M    P1
_symmetry_Int_Tables_number       1
_symmetry_cell_setting            triclinic
loop_
_symmetry_equiv_pos_as_xyz
'x, y, z'
_cell_length_a     19.808773
_cell_length_b     19.845015
_cell_length_c     18.144164
_cell_angle_alpha  89.973085
_cell_angle_beta   89.968026
_cell_angle_gamma 99.666871
loop_
_atom_site_label
_atom_site_type_symbol
_atom_site_fract_x
_atom_site_fract_y
_atom_site_fract_z
_atom_type_partial_charge
Mg0 Mg 1.02375 0.68656 0.00726 0.0
O1 O 0.12717 0.75516 0.03183 0.0
O2 O 0.18844 0.69486 0.10151 0.0
Mg3 Mg 0.12974 0.58563 0.11284 0.0
C4 C 0.1811 0.75012 0.06863 0.0
C5 C 0.93215 0.77097 0.92644 0.0
O6 O 0.89066 0.73427 -0.02671 0.0
O7 O 0.07639 0.63209 0.91981 0.0
O8 O 0.13696 0.56852 -0.0123 0.0
O9 O 0.98041 0.71269 0.11608 0.0
O10 O 1.03473 0.6255 0.09696 0.0
C11 C 0.11645 0.58819 0.92577 0.0
C12 C 1.00579 0.66147 0.14193 0.0
O13 O 0.99509 0.76509 0.92593 0.0
Mg14 Mg 0.47219 0.13499 0.14774 0.0
O15 O 0.40365 0.03167 0.12303 0.0
O16 O 0.46427 0.9707 0.05336 0.0
Mg17 Mg 0.57363 0.02948 0.04217 0.0
C18 C 0.40885 0.97789 0.0862 0.0
C19 C 0.38861 0.22658 0.22952 0.0
O20 O 0.42658 0.26821 0.18382 0.0
O21 O 0.52677 0.0825 0.23521 0.0
O22 O 0.59066 1.02224 0.16732 0.0
O23 O 0.44604 0.1783 0.03895 0.0
O24 O 0.53346 0.12418 0.0581 0.0
C25 C 0.57084 0.04261 0.22925 0.0
C26 C 0.4974 0.15304 0.01311 0.0
O27 O 0.39338 0.16347 0.22898 0.0
Mg28 Mg 0.14799 0.45977 0.50729 0.0
O29 O 0.04457 0.39117 0.53203 0.0
O30 O 0.98325 0.45145 0.60168 0.0
Mg31 Mg 0.04193 0.56068 0.61284 0.0
C32 C 0.99061 0.3962 0.56885 0.0
C33 C 0.23954 0.37508 0.42671 0.0
O34 O 0.28097 0.41149 0.47374 0.0
O35 O 0.09537 0.51423 0.41982 0.0
O36 O 1.03475 0.57777 0.48769 0.0
O37 O 0.19134 0.43369 0.61611 0.0
O38 O 0.13695 0.52083 0.59691 0.0
C39 C 0.05528 0.55811 0.42577 0.0
C40 C 0.16592 0.4849 0.64191 0.0
O41 O 0.17668 0.38124 0.42601 0.0
Mg42 Mg 0.69947 1.01118 0.64768 0.0
O43 O 0.76804 0.11451 0.62296 0.0
O44 O 0.70751 0.17558 0.55332 0.0
Mg45 Mg 0.59816 0.11682 0.54213 0.0
C46 C 0.76288 0.16835 0.58616 0.0
C47 C 0.78321 0.91957 0.72923 0.0
O48 O 0.74553 0.878 0.68333 0.0
O49 O 0.64485 0.06364 0.73516 0.0
O50 O 0.58106 0.124 0.66729 0.0
O51 O 0.72569 0.96796 0.53888 0.0
O52 O 0.63827 1.02209 0.55806 0.0
C53 C 0.60082 0.10357 0.72921 0.0
C54 C 0.67434 0.99324 0.51307 0.0
O55 O 0.7782 0.98262 0.7289 0.0
C56 C 0.96621 0.58266 0.24562 0.0
C57 C 1.00584 0.64492 0.22112 0.0
C58 C 0.07306 0.65391 0.33481 0.0
C59 C 1.03477 0.59057 0.35825 0.0
N60 N 0.93668 0.50159 0.34568 0.0
N61 N 0.08588 0.74745 0.24676 0.0
C62 C 0.97848 0.55718 0.31669 0.0
C63 C 0.05542 0.68331 0.26755 0.0
N64 N 0.91842 0.54701 0.19958 0.0
N65 N 0.12813 0.68419 0.37532 0.0
H66 H 0.07409 0.76981 0.19752 0.0
H67 H 0.11833 0.7808 0.28043 0.0
H68 H 0.14148 0.66499 0.42582 0.0
H69 H 0.16309 0.72608 0.35743 0.0
H70 H 0.89359 0.49738 0.20969 0.0
H71 H 0.90515 0.56659 0.14921 0.0
H72 H 0.89097 0.47851 0.32157 0.0
H73 H 0.94524 0.48118 0.39718 0.0
C74 C 0.66691 0.06016 0.31999 0.0
C75 C 0.60333 1.02211 0.29676 0.0
C76 C 0.59522 0.95386 0.40962 0.0
C77 C 0.65772 0.99326 0.4339 0.0
N78 N 0.76064 0.07281 0.40788 0.0
N79 N 0.51391 0.92447 0.30975 0.0
C80 C 0.69631 0.04256 0.38727 0.0
C81 C 0.56972 0.96608 0.33855 0.0
N82 N 0.69739 0.11499 0.27928 0.0
N83 N 0.55938 0.90632 0.45584 0.0
H84 H 0.49351 0.93299 0.25823 0.0
H85 H 0.49064 0.87895 0.33404 0.0
H86 H 0.57897 0.89307 0.50622 0.0
H87 H 0.50959 0.8817 0.44588 0.0
H88 H 0.73947 0.14978 0.297 0.0
H89 H 0.67818 0.12832 0.22878 0.0
H90 H 0.79413 0.10502 0.37405 0.0
H91 H 0.78301 0.06111 0.45716 0.0
C92 C 0.19292 0.58962 0.81627 0.0
C93 C 0.13706 0.5558 0.85826 0.0
C94 C 0.11691 0.46284 0.76789 0.0
C95 C 0.16597 0.50158 0.72107 0.0
N96 N 0.25248 0.60016 0.69879 0.0
N97 N 0.04459 0.46143 0.87613 0.0
C98 C 0.20515 0.56418 0.74518 0.0
C99 C 0.09927 0.49213 0.83521 0.0
N100 N 0.23437 0.64557 0.84489 0.0
N101 N 0.08691 0.39848 0.74742 0.0
H102 H 1.03123 0.48057 0.92665 0.0
H103 H 1.00993 0.41921 0.85858 0.0
H104 H 0.09861 0.3762 0.69811 0.0
H105 H 0.05494 0.36491 0.78139 0.0
H106 H 0.2798 0.66904 0.82043 0.0
H107 H 0.22585 0.66592 0.89643 0.0
H108 H 0.27687 0.64998 0.70862 0.0
H109 H 0.2658 0.58064 0.64841 0.0
C110 C 0.4753 0.10399 0.88728 0.0
C111 C 0.51407 0.15306 0.93393 0.0
C112 C 0.6022 0.17998 0.83855 0.0
C113 C 0.56838 0.12413 0.79675 0.0
N114 N 0.47398 0.03165 0.77925 0.0
N115 N 0.61271 0.23958 -0.04414 0.0
C116 C 0.50466 0.08633 0.81998 0.0
C117 C 0.57672 0.19224 0.90963 0.0
N118 N 0.41085 0.07399 0.90789 0.0
N119 N 0.65819 0.2214 0.80975 0.0
H120 H 0.59315 0.25289 0.00624 0.0
H121 H 0.66259 0.26399 -0.0541 0.0
H122 H 0.67859 0.21286 0.75821 0.0
H123 H 0.68164 0.26681 0.83405 0.0
H124 H 0.37726 0.04199 0.87404 0.0
H125 H 0.38851 0.08573 -0.04283 0.0
H126 H 0.43175 0.99701 0.79698 0.0
H127 H 0.49317 1.01828 0.72875 0.0
C128 C 0.28124 0.93303 0.07438 0.0
C129 C 0.34948 0.92049 0.08299 0.0
C130 C 0.30733 0.79808 0.06804 0.0
C131 C 0.23849 0.80949 0.07178 0.0
N132 N 0.16177 0.88989 0.09732 0.0
N133 N 0.4221 0.83701 0.11131 0.0
C134 C 0.22577 0.87756 0.08034 0.0
C135 C 0.36107 0.85182 0.08672 0.0
N136 N 0.26877 0.99686 0.05736 0.0
N137 N 0.3223 0.73721 0.04346 0.0
H138 H 0.46114 0.87396 0.13197 0.0
H139 H 0.43015 0.78701 0.12006 0.0
H140 H 0.28535 0.69818 0.0228 0.0
H141 H 0.37242 0.72928 0.03471 0.0
H142 H 0.22011 1.00641 0.0438 0.0
H143 H 0.30733 0.03857 0.04838 0.0
H144 H 0.15209 0.93843 0.11084 0.0
H145 H 0.12003 0.85134 0.10628 0.0
C146 C 0.34747 0.24771 0.35785 0.0
C147 C 0.34119 0.25423 0.28032 0.0
C148 C 0.26245 0.33603 0.29807 0.0
C149 C 0.26721 0.32802 0.37557 0.0
N150 N 0.29825 0.26213 0.47797 0.0
N151 N 0.27816 0.28878 0.17733 0.0
C152 C 0.30463 0.27922 0.40502 0.0
C153 C 0.2939 0.29336 0.25069 0.0
N154 N 0.39701 0.21517 0.38682 0.0
N155 N 0.23172 0.38697 0.26944 0.0
H156 H 0.29916 0.25679 0.14143 0.0
H157 H 0.23918 0.31093 0.15385 0.0
H158 H 0.20888 0.42024 0.30177 0.0
H159 H 0.23395 0.40001 0.21377 0.0
H160 H 0.40893 0.21596 0.44275 0.0
H161 H 0.43032 0.19216 0.35467 0.0
H162 H 0.31902 0.22214 0.50113 0.0
H163 H 0.2661 0.2832 0.51368 0.0
C164 C 0.8905 0.21328 0.57449 0.0
C165 C 0.82224 0.22578 0.58303 0.0
C166 C 0.86437 0.34823 0.56826 0.0
C167 C 0.93321 0.33683 0.57203 0.0
N168 N 1.00991 0.25645 0.59766 0.0
N169 N 0.74953 0.30916 0.61142 0.0
C170 C 0.94594 0.26876 0.58058 0.0
C171 C 0.81061 0.29443 0.58685 0.0
N172 N 0.90304 0.1495 0.55742 0.0
N173 N 0.84941 0.40914 0.54375 0.0
H174 H 0.71046 0.27215 0.63202 0.0
H175 H 0.74144 0.35913 0.62024 0.0
H176 H 0.88638 0.44823 0.52316 0.0
H177 H 0.79929 0.41705 0.53496 0.0
H178 H 0.95175 0.13999 0.54394 0.0
H179 H 0.86452 0.1078 0.54834 0.0
H180 H 1.01959 0.20789 0.61113 0.0
H181 H 0.05158 0.29502 0.60677 0.0
C182 C 0.8239 0.89807 0.85762 0.0
C183 C 0.83055 0.89189 0.78008 0.0
C184 C 0.90959 0.81039 0.79783 0.0
C185 C 0.90448 0.81807 0.87535 0.0
N186 N 0.87273 0.8834 -0.02216 0.0
N187 N 0.89416 0.858 0.67718 0.0
C188 C 0.86671 0.86657 0.90482 0.0
C189 C 0.87813 0.85309 0.75049 0.0
N190 N 0.77408 0.93026 0.88653 0.0
N191 N 0.94067 0.75972 0.76916 0.0
H192 H 0.87316 0.89002 0.6413 0.0
H193 H 0.93335 0.83611 0.65375 0.0
H194 H 0.96354 0.72645 0.80147 0.0
H195 H 0.93873 0.7469 0.71344 0.0
H196 H 0.76192 0.92919 0.94243 0.0
H197 H 0.74077 0.95323 0.85435 0.0
H198 H 0.85168 0.92319 0.00104 0.0
H199 H 0.90485 0.86235 0.01358 0.0
loop_
_geom_bond_atom_site_label_1
_geom_bond_atom_site_label_2
_geom_bond_distance
_geom_bond_site_symmetry_2
_ccdc_geom_bond_type
Mg0 O1 2.029 . S
Mg0 O7 1.981 1_554 S
Mg0 O9 2.119 1_455 S
Mg0 O10 2.254 . S
Mg0 O13 2.008 1_454 S
O1 Mg0 2.029 . S
O1 C4 1.250 . S
O2 Mg3 2.028 . S
O2 C4 1.248 . S
Mg3 O2 2.028 . S
Mg3 O8 2.032 1_554 S
Mg3 O10 2.079 . S
C4 O1 1.250 . S
C4 O2 1.248 . S
C5 O6 1.264 . S
C5 O13 1.249 . S
O6 C5 1.264 . S
O7 Mg0 1.981 1_556 S
O7 C11 1.246 . S
O8 Mg3 2.032 1_556 S
O8 C11 1.259 . S
O9 Mg0 2.119 1_655 S
O9 C12 1.252 1_655 S
O10 Mg0 2.254 . S
O10 Mg3 2.079 . S
O10 C12 1.273 . S
C11 O7 1.246 . S
C11 O8 1.259 . S
C12 O9 1.252 1_455 S
C12 O10 1.273 . S
O13 Mg0 2.008 1_656 S
O13 C5 1.249 . S
Mg14 O15 2.028 . S
Mg14 O21 1.986 . S
Mg14 O23 2.114 . S
Mg14 O24 2.251 . S
Mg14 O27 2.010 . S
O15 Mg14 2.028 . S
O15 C18 1.250 1_545 S
O16 Mg17 2.028 . S
O16 C18 1.248 . S
Mg17 O16 2.028 . S
Mg17 O22 2.032 . S
Mg17 O24 2.079 1_565 S
C18 O15 1.250 1_565 S
C18 O16 1.248 . S
C19 O20 1.264 . S
C19 O27 1.249 . S
O20 C19 1.264 . S
O21 Mg14 1.986 . S
O21 C25 1.246 . S
O22 Mg17 2.032 . S
O22 C25 1.259 1_565 S
O23 Mg14 2.114 . S
O23 C26 1.252 . S
O24 Mg14 2.251 . S
O24 Mg17 2.079 1_545 S
O24 C26 1.273 . S
C25 O21 1.246 . S
C25 O22 1.259 1_545 S
C26 O23 1.252 . S
C26 O24 1.273 . S
O27 Mg14 2.010 . S
O27 C19 1.249 . S
Mg28 O29 2.028 . S
Mg28 O35 1.986 . S
Mg28 O37 2.114 . S
Mg28 O38 2.251 . S
Mg28 O41 2.010 . S
O29 Mg28 2.028 . S
O29 C32 1.250 1_455 S
O30 Mg31 2.028 . S
O30 C32 1.248 . S
Mg31 O30 2.028 . S
Mg31 O36 2.032 . S
Mg31 O38 2.079 1_655 S
C32 O29 1.250 1_655 S
C32 O30 1.248 . S
C33 O34 1.264 . S
C33 O41 1.249 . S
O34 C33 1.264 . S
O35 Mg28 1.986 . S
O35 C39 1.246 . S
O36 Mg31 2.032 . S
O36 C39 1.259 1_655 S
O37 Mg28 2.114 . S
O37 C40 1.252 . S
O38 Mg28 2.251 . S
O38 Mg31 2.079 1_455 S
O38 C40 1.273 . S
C39 O35 1.246 . S
C39 O36 1.259 1_455 S
C40 O37 1.252 . S
C40 O38 1.273 . S
O41 Mg28 2.010 . S
O41 C33 1.249 . S
Mg42 O43 2.028 . S
Mg42 O49 1.986 . S
Mg42 O51 2.114 1_545 S
Mg42 O52 2.251 . S
Mg42 O55 2.010 1_545 S
O43 Mg42 2.028 . S
O43 C46 1.250 . S
O44 Mg45 2.028 . S
O44 C46 1.248 . S
Mg45 O44 2.028 . S
Mg45 O50 2.032 . S
Mg45 O52 2.079 . S
C46 O43 1.250 . S
C46 O44 1.248 . S
C47 O48 1.264 . S
C47 O55 1.249 . S
O48 C47 1.264 . S
O49 Mg42 1.986 . S
O49 C53 1.246 . S
O50 Mg45 2.032 . S
O50 C53 1.259 . S
O51 Mg42 2.114 1_565 S
O51 C54 1.252 1_565 S
O52 Mg42 2.251 . S
O52 Mg45 2.079 . S
O52 C54 1.273 . S
C53 O49 1.246 . S
C53 O50 1.259 . S
C54 O51 1.252 1_545 S
C54 O52 1.273 . S
O55 Mg42 2.010 1_565 S
O55 C47 1.249 . S
C56 C57 1.363 1_655 S
C56 C62 1.379 . S
C56 N64 1.356 . S
C57 C56 1.363 1_455 S
C57 C63 1.363 . S
C58 C59 1.363 . S
C58 C63 1.379 . S
C58 N65 1.356 . S
C59 C58 1.363 . S
C59 C62 1.363 1_455 S
N60 C62 1.356 . S
N60 H72 0.984 . S
N60 H73 0.985 . S
N61 C63 1.356 . S
N61 H66 0.984 . S
N61 H67 0.985 . S
C62 C56 1.379 . S
C62 C59 1.363 1_655 S
C62 N60 1.356 . S
C63 C57 1.363 . S
C63 C58 1.379 . S
C63 N61 1.356 . S
N64 C56 1.356 . S
N64 H70 0.984 . S
N64 H71 0.984 . S
N65 C58 1.356 . S
N65 H68 0.984 . S
N65 H69 0.985 . S
H66 N61 0.984 . S
H67 N61 0.985 . S
H68 N65 0.984 . S
H69 N65 0.985 . S
H70 N64 0.984 . S
H71 N64 0.984 . S
H72 N60 0.984 . S
H73 N60 0.985 . S
C74 C75 1.363 . S
C74 C80 1.379 . S
C74 N82 1.356 . S
C75 C74 1.363 . S
C75 C81 1.363 1_545 S
C76 C77 1.363 1_565 S
C76 C81 1.379 . S
C76 N83 1.356 . S
C77 C76 1.363 1_545 S
C77 C80 1.363 . S
N78 C80 1.356 . S
N78 H90 0.984 . S
N78 H91 0.985 . S
N79 C81 1.356 . S
N79 H84 0.984 . S
N79 H85 0.985 . S
C80 C74 1.379 . S
C80 C77 1.363 . S
C80 N78 1.356 . S
C81 C75 1.363 1_565 S
C81 C76 1.379 . S
C81 N79 1.356 . S
N82 C74 1.356 . S
N82 H88 0.984 . S
N82 H89 0.984 . S
N83 C76 1.356 . S
N83 H86 0.984 . S
N83 H87 0.985 . S
H84 N79 0.984 . S
H85 N79 0.985 . S
H86 N83 0.984 . S
H87 N83 0.985 . S
H88 N82 0.984 . S
H89 N82 0.984 . S
H90 N78 0.984 . S
H91 N78 0.985 . S
C92 C93 1.363 . S
C92 C98 1.379 . S
C92 N100 1.356 . S
C93 C92 1.363 . S
C93 C99 1.363 . S
C94 C95 1.363 . S
C94 C99 1.379 . S
C94 N101 1.356 . S
C95 C94 1.363 . S
C95 C98 1.363 . S
N96 C98 1.356 . S
N96 H108 0.984 . S
N96 H109 0.985 . S
N97 C99 1.356 . S
N97 H102 0.984 . S
N97 H103 0.985 . S
C98 C92 1.379 . S
C98 C95 1.363 . S
C98 N96 1.356 . S
C99 C93 1.363 . S
C99 C94 1.379 . S
C99 N97 1.356 . S
N100 C92 1.356 . S
N100 H106 0.984 1_455 S
N100 H107 0.984 . S
N101 C94 1.356 . S
N101 H104 0.984 . S
N101 H105 0.985 . S
H102 N97 0.984 . S
H103 N97 0.985 . S
H104 N101 0.984 . S
H105 N101 0.985 . S
H106 N100 0.984 1_655 S
H107 N100 0.984 . S
H108 N96 0.984 . S
H109 N96 0.985 . S
C110 C111 1.363 1_556 S
C110 C116 1.379 . S
C110 N118 1.356 . S
C111 C110 1.363 1_554 S
C111 C117 1.363 . S
C112 C113 1.363 1_554 S
C112 C117 1.379 . S
C112 N119 1.356 . S
C113 C112 1.363 1_556 S
C113 C116 1.363 . S
N114 C116 1.356 . S
N114 H126 0.984 . S
N114 H127 0.985 . S
N115 C117 1.356 . S
N115 H120 0.984 . S
N115 H121 0.985 . S
C116 C110 1.379 . S
C116 C113 1.363 . S
C116 N114 1.356 . S
C117 C111 1.363 . S
C117 C112 1.379 . S
C117 N115 1.356 . S
N118 C110 1.356 . S
N118 H124 0.984 . S
N118 H125 0.984 1_556 S
N119 C112 1.356 . S
N119 H122 0.984 1_554 S
N119 H123 0.985 . S
H120 N115 0.984 . S
H121 N115 0.985 . S
H122 N119 0.984 1_556 S
H123 N119 0.985 . S
H124 N118 0.984 . S
H125 N118 0.984 1_554 S
H126 N114 0.984 . S
H127 N114 0.985 . S
C128 C129 1.363 . S
C128 C134 1.379 . S
C128 N136 1.356 . S
C129 C128 1.363 . S
C129 C135 1.363 . S
C130 C131 1.363 . S
C130 C135 1.379 . S
C130 N137 1.356 . S
C131 C130 1.363 . S
C131 C134 1.363 . S
N132 C134 1.356 . S
N132 H144 0.984 . S
N132 H145 0.985 . S
N133 C135 1.356 . S
N133 H138 0.984 . S
N133 H139 0.985 . S
C134 C128 1.379 . S
C134 C131 1.363 . S
C134 N132 1.356 . S
C135 C129 1.363 . S
C135 C130 1.379 . S
C135 N133 1.356 . S
N136 C128 1.356 . S
N136 H142 0.985 1_565 S
N136 H143 0.984 . S
N137 C130 1.356 . S
N137 H140 0.984 . S
N137 H141 0.985 . S
H138 N133 0.984 . S
H139 N133 0.985 . S
H140 N137 0.984 . S
H141 N137 0.985 . S
H142 N136 0.985 1_545 S
H143 N136 0.984 . S
H144 N132 0.984 . S
H145 N132 0.985 . S
C146 C147 1.363 . S
C146 C152 1.379 . S
C146 N154 1.356 . S
C147 C146 1.363 . S
C147 C153 1.363 . S
C148 C149 1.363 . S
C148 C153 1.379 . S
C148 N155 1.356 . S
C149 C148 1.363 . S
C149 C152 1.363 . S
N150 C152 1.356 . S
N150 H162 0.984 . S
N150 H163 0.985 . S
N151 C153 1.356 . S
N151 H156 0.984 . S
N151 H157 0.985 . S
C152 C146 1.379 . S
C152 C149 1.363 . S
C152 N150 1.356 . S
C153 C147 1.363 . S
C153 C148 1.379 . S
C153 N151 1.356 . S
N154 C146 1.356 . S
N154 H160 0.984 . S
N154 H161 0.984 . S
N155 C148 1.356 . S
N155 H158 0.984 . S
N155 H159 0.985 . S
H156 N151 0.984 . S
H157 N151 0.985 . S
H158 N155 0.984 . S
H159 N155 0.985 . S
H160 N154 0.984 . S
H161 N154 0.984 . S
H162 N150 0.984 . S
H163 N150 0.985 . S
C164 C165 1.363 . S
C164 C170 1.379 . S
C164 N172 1.356 . S
C165 C164 1.363 . S
C165 C171 1.363 . S
C166 C167 1.363 . S
C166 C171 1.379 . S
C166 N173 1.356 . S
C167 C166 1.363 . S
C167 C170 1.363 . S
N168 C170 1.356 . S
N168 H180 0.984 1_655 S
N168 H181 0.982 1_655 S
N169 C171 1.356 . S
N169 H174 0.984 . S
N169 H175 0.985 . S
C170 C164 1.379 . S
C170 C167 1.363 . S
C170 N168 1.356 . S
C171 C165 1.363 . S
C171 C166 1.379 . S
C171 N169 1.356 . S
N172 C164 1.356 . S
N172 H178 0.984 . S
N172 H179 0.984 . S
N173 C166 1.356 . S
N173 H176 0.984 . S
N173 H177 0.985 . S
H174 N169 0.984 . S
H175 N169 0.985 . S
H176 N173 0.984 . S
H177 N173 0.985 . S
H178 N172 0.984 . S
H179 N172 0.984 . S
H180 N168 0.984 1_455 S
H181 N168 0.982 1_455 S
C182 C183 1.363 . S
C182 C188 1.379 . S
C182 N190 1.356 . S
C183 C182 1.363 . S
C183 C189 1.363 . S
C184 C185 1.363 . S
C184 C189 1.379 . S
C184 N191 1.356 . S
C185 C184 1.363 . S
C185 C188 1.363 . S
N186 C188 1.356 1_554 S
N186 H198 0.984 . S
N186 H199 0.985 . S
N187 C189 1.356 . S
N187 H192 0.984 . S
N187 H193 0.985 . S
C188 C182 1.379 . S
C188 C185 1.363 . S
C188 N186 1.356 1_556 S
C189 C183 1.363 . S
C189 C184 1.379 . S
C189 N187 1.356 . S
N190 C182 1.356 . S
N190 H196 0.984 . S
N190 H197 0.984 . S
N191 C184 1.356 . S
N191 H194 0.984 . S
N191 H195 0.985 . S
H192 N187 0.984 . S
H193 N187 0.985 . S
H194 N191 0.984 . S
H195 N191 0.985 . S
H196 N190 0.984 . S
H197 N190 0.984 . S
H198 N186 0.984 . S
H199 N186 0.985 . S
C57 C12 1.199 . S
C59 C39 1.182 . S
C75 C25 1.182 . S
C77 C54 1.199 . S
C93 C11 1.182 . S
C95 C40 1.199 . S
C111 C26 1.199 . S
C113 C53 1.183 . S
C129 C18 1.511 . S
C131 C4 1.511 . S
C147 C19 1.339 . S
C149 C33 1.339 . S
C165 C46 1.511 . S
C167 C32 1.511 . S
C183 C47 1.339 . S
C185 C5 1.339 . S
