# Generated by pormake.
# Topology rob, (6)-cn, num edge types: 1
# Building blocks:
#     Node 0, Type 0, BuildingBlock: MIFKUJ_clean_sbu_0, # of connection points: 6
#     Node 1, Type 0, BuildingBlock: MIFKUJ_clean_sbu_0, # of connection points: 6
#     Node 2, Type 0, BuildingBlock: MIFKUJ_clean_sbu_0, # of connection points: 6
#     Node 3, Type 0, BuildingBlock: MIFKUJ_clean_sbu_0, # of connection points: 6
#     Edge 4, Type (0, 0), BuildingBlock: AJUNOK_clean_linker_0, # of connection points: 2
#     Edge 5, Type (0, 0), BuildingBlock: AJUNOK_clean_linker_0, # of connection points: 2
#     Edge 6, Type (0, 0), BuildingBlock: AJUNOK_clean_linker_0, # of connection points: 2
#     Edge 7, Type (0, 0), BuildingBlock: AJUNOK_clean_linker_0, # of connection points: 2
#     Edge 8, Type (0, 0), BuildingBlock: AJUNOK_clean_linker_0, # of connection points: 2
#     Edge 9, Type (0, 0), BuildingBlock: AJUNOK_clean_linker_0, # of connection points: 2
#     Edge 10, Type (0, 0), BuildingBlock: AJUNOK_clean_linker_0, # of connection points: 2
#     Edge 11, Type (0, 0), BuildingBlock: AJUNOK_clean_linker_0, # of connection points: 2
#     Edge 12, Type (0, 0), BuildingBlock: AJUNOK_clean_linker_0, # of connection points: 2
#     Edge 13, Type (0, 0), BuildingBlock: AJUNOK_clean_linker_0, # of connection points: 2
#     Edge 14, Type (0, 0), BuildingBlock: AJUNOK_clean_linker_0, # of connection points: 2
#     Edge 15, Type (0, 0), BuildingBlock: AJUNOK_clean_linker_0, # of connection points: 2
# Relax obj value: 0.078
# Max RMSD: 0.183
# Mean RMSD: 0.183
data_MOF--net-rob--node1-MIFKUJ_clean_sbu_0--edge1-AJUNOK_clean_linker_0
_symmetry_space_group_name_H-M    P1
_symmetry_Int_Tables_number       1
_symmetry_cell_setting            triclinic
loop_
_symmetry_equiv_pos_as_xyz
'x, y, z'
_cell_length_a     12.677762
_cell_length_b     15.914333
_cell_length_c     23.725462
_cell_angle_alpha  90.221446
_cell_angle_beta   82.007628
_cell_angle_gamma 90.292051
loop_
_atom_site_label
_atom_site_type_symbol
_atom_site_fract_x
_atom_site_fract_y
_atom_site_fract_z
_atom_type_partial_charge
Zn0 Zn 0.1761 0.26792 0.97434 0.0
Zn1 Zn 0.19868 0.21342 0.12085 0.0
C2 C 0.32301 0.30494 0.88221 0.0
O3 O 0.27747 0.37667 0.89825 0.0
C4 C 0.00298 0.29887 0.16222 0.0
O5 O 0.95804 0.23248 0.14242 0.0
O6 O 0.07551 0.32323 0.92594 0.0
O7 O 0.10213 0.1619 1.00413 0.0
O8 O 0.1202 0.11672 0.09045 0.0
C9 C 0.06357 0.27032 0.88688 0.0
O10 O 0.09825 0.19333 0.89152 0.0
O11 O 0.30039 0.24067 0.91338 0.0
C12 C 0.32572 0.13877 0.20334 0.0
O13 O 0.38991 0.11053 0.15917 0.0
O14 O 0.24262 0.17848 0.19525 0.0
O15 O 0.3306 0.25611 0.07236 0.0
O16 O 0.2358 0.34481 0.03007 0.0
O17 O 0.10233 0.30987 0.14806 0.0
C18 C 0.08286 0.1084 0.04374 0.0
C19 C 0.32557 0.32197 0.04291 0.0
Zn20 Zn 0.72995 0.72129 0.92548 0.0
Zn21 Zn 0.8019 0.64479 0.04622 0.0
C22 C 0.89689 0.77736 0.85186 0.0
O23 O 0.83669 0.8428 0.86699 0.0
C24 C 0.62951 0.61191 0.12334 0.0
O25 O 0.68626 0.5428 0.11751 0.0
O26 O 0.63873 0.75892 0.86711 0.0
O27 O 0.66306 0.61338 0.95641 0.0
O28 O 0.77262 0.54104 1.00193 0.0
C29 C 0.64359 0.70565 0.82672 0.0
O30 O 0.69515 0.63517 0.83148 0.0
O31 O 0.87153 0.70704 0.87547 0.0
C32 C 0.87873 0.69227 0.14171 0.0
O33 O 0.82042 0.75396 0.12658 0.0
O34 O 0.88773 0.62577 0.11125 0.0
O35 O 0.88088 0.74166 1.00457 0.0
O36 O 0.7473 0.81443 0.98145 0.0
O37 O 0.65881 0.67371 0.09081 0.0
C38 C 0.6874 0.5454 0.97935 0.0
C39 C 0.83616 0.81203 1.0003 0.0
Zn40 Zn 0.32361 0.80094 0.54522 0.0
Zn41 Zn 0.21232 0.71784 0.42448 0.0
C42 C 0.18855 0.81936 0.64241 0.0
O43 O 0.2434 0.88942 0.63333 0.0
C44 C 0.34721 0.64847 0.33646 0.0
O45 O 0.28452 0.58644 0.35666 0.0
O46 O 0.43985 0.81887 0.59482 0.0
O47 O 0.37787 0.71536 0.48599 0.0
O48 O 0.24553 0.62947 0.47956 0.0
C49 C 0.45135 0.75058 0.62111 0.0
O50 O 0.39835 0.68378 0.60825 0.0
O51 O 0.20308 0.76172 0.6047 0.0
C52 C 0.09477 0.73827 0.33968 0.0
O53 O 0.16029 0.80271 0.33815 0.0
O54 O 0.09474 0.68476 0.3794 0.0
O55 O 0.17769 0.83498 0.45491 0.0
O56 O 0.2668 0.90542 0.51372 0.0
O57 O 0.33824 0.71892 0.36221 0.0
C58 C 0.33817 0.64222 0.49235 0.0
C59 C 0.1932 0.9017 0.48235 0.0
Zn60 Zn 0.7844 0.30467 0.59098 0.0
Zn61 Zn 0.66884 0.23405 0.46697 0.0
C62 C 0.61778 0.31554 0.67484 0.0
O63 O 0.65018 0.39299 0.66356 0.0
C64 C 0.81013 0.34318 0.39072 0.0
O65 O 0.87519 0.33683 0.42901 0.0
O66 O 0.87453 0.35678 0.64599 0.0
O67 O 0.8746 0.21605 0.54695 0.0
O68 O 0.79398 0.16262 0.47781 0.0
C69 C 0.91668 0.29874 0.67183 0.0
O70 O 0.9043 0.22034 0.6565 0.0
O71 O 0.66479 0.25552 0.6462 0.0
C72 C 0.48869 0.2014 0.4146 0.0
O73 O 0.47255 0.28 0.43046 0.0
O74 O 0.56499 0.16204 0.43179 0.0
O75 O 0.59578 0.29725 0.53441 0.0
O76 O 0.71786 0.39158 0.54555 0.0
O77 O 0.71723 0.31207 0.40179 0.0
C78 C 0.87075 0.16337 0.50698 0.0
C79 C 0.62422 0.37363 0.53569 0.0
C80 C 0.50189 0.49686 0.97446 0.0
C81 C 0.60287 0.47988 0.99018 0.0
C82 C 0.41402 0.44541 0.99166 0.0
C83 C 0.42281 0.37281 0.02407 0.0
H84 H 0.48862 0.55266 0.95045 0.0
H85 H 0.33783 0.46436 0.98037 0.0
S86 S 0.67106 0.29508 0.07281 0.0
N87 N 0.70791 0.38236 0.03793 0.0
N88 N 0.54264 0.28367 0.06907 0.0
C89 C 0.52423 0.35251 0.03821 0.0
C90 C 0.61418 0.40613 0.02131 0.0
C91 C 0.51851 0.5851 0.49895 0.0
C92 C 0.40758 0.5718 0.50407 0.0
C93 C 0.58759 0.52089 0.5097 0.0
C94 C 0.54873 0.44063 0.52591 0.0
H95 H 0.55295 0.64568 0.48614 0.0
H96 H 0.67229 0.53417 0.50455 0.0
S97 S 0.26442 0.37457 0.54998 0.0
N98 N 0.26154 0.47334 0.52919 0.0
N99 N 0.39147 0.35224 0.54999 0.0
C100 C 0.43779 0.42656 0.53231 0.0
C101 C 0.36723 0.49218 0.52117 0.0
C102 C 0.03732 0.95629 0.05649 0.0
C103 C 0.01544 0.03501 0.03453 0.0
C104 C 0.97856 0.88497 0.0451 0.0
C105 C 0.89353 0.88996 0.01273 0.0
H106 H 0.10228 0.94919 0.08132 0.0
H107 H 0.00051 0.82528 0.06178 0.0
S108 S 0.80057 0.08345 0.94828 0.0
N109 N 0.90155 0.11506 0.9802 0.0
N110 N 0.78872 0.98147 0.96034 0.0
C111 C 0.8689 0.96905 0.99187 0.0
C112 C 0.93044 0.0414 1.0024 0.0
C113 C 0.05021 0.10778 0.52087 0.0
C114 C 0.95654 0.09984 0.49545 0.0
C115 C 0.12887 0.04549 0.51417 0.0
C116 C 0.11707 0.9725 0.48189 0.0
H117 H 0.06228 0.16184 0.54716 0.0
H118 H 0.19786 0.05364 0.53596 0.0
S119 S 0.88825 0.92295 0.40435 0.0
N120 N 0.85862 0.01477 0.43467 0.0
N121 N 0.00508 0.89782 0.42232 0.0
C122 C 0.02535 0.96533 0.45449 0.0
C123 C 0.94555 0.02886 0.46121 0.0
C124 C 0.34171 0.20538 0.35531 0.0
C125 C 0.43694 0.16857 0.36671 0.0
C126 C 0.30266 0.19059 0.30383 0.0
C127 C 0.35815 0.13928 0.26116 0.0
H128 H 0.29945 0.24927 0.38529 0.0
H129 H 0.23144 0.22369 0.29639 0.0
S130 S 0.604 0.01878 0.2731 0.0
N131 N 0.57991 0.07101 0.33375 0.0
N132 N 0.50702 0.04394 0.23658 0.0
C133 C 0.44937 0.09714 0.27368 0.0
C134 C 0.48859 0.11151 0.32657 0.0
C135 C 0.52578 0.70085 0.19858 0.0
C136 C 0.54834 0.62125 0.174 0.0
C137 C 0.46177 0.70919 0.25152 0.0
C138 C 0.41764 0.63827 0.28158 0.0
H139 H 0.56067 0.75692 0.1778 0.0
H140 H 0.447 0.77171 0.26897 0.0
S141 S 0.44904 0.41577 0.23393 0.0
N142 N 0.51795 0.47045 0.18233 0.0
N143 N 0.39951 0.48572 0.28182 0.0
C144 C 0.43794 0.55842 0.25671 0.0
C145 C 0.50267 0.55004 0.2029 0.0
C146 C 0.59001 0.65512 0.7356 0.0
C147 C 0.59738 0.722 0.77383 0.0
C148 C 0.54728 0.66665 0.68509 0.0
C149 C 0.51074 0.74567 0.67024 0.0
H150 H 0.61576 0.59253 0.74502 0.0
H151 H 0.541 0.61245 0.6579 0.0
S152 S 0.51565 0.94251 0.75405 0.0
N153 N 0.56765 0.87125 0.7924 0.0
N154 N 0.48671 0.89273 0.69687 0.0
C155 C 0.52007 0.81393 0.70704 0.0
C156 C 0.56317 0.80207 0.75907 0.0
C157 C 0.54287 0.24104 0.76434 0.0
C158 C 0.53224 0.30135 0.72234 0.0
C159 C 0.47239 0.23998 0.81569 0.0
C160 C 0.39003 0.29938 0.8262 0.0
H161 H 0.60928 0.19782 0.75889 0.0
H162 H 0.48543 0.19512 0.84822 0.0
S163 S 0.31834 0.45948 0.7245 0.0
N164 N 0.42626 0.41414 0.69118 0.0
N165 N 0.29351 0.41206 0.78673 0.0
C166 C 0.37467 0.35579 0.78251 0.0
C167 C 0.446 0.35679 0.73074 0.0
C168 C 0.95899 0.63376 0.22446 0.0
C169 C 0.93233 0.70318 0.19276 0.0
C170 C 0.00702 0.64521 0.27396 0.0
C171 C 0.03169 0.72625 0.29245 0.0
H172 H 0.94203 0.57044 0.21123 0.0
H173 H 0.02781 0.5904 0.29685 0.0
S174 S 0.97671 0.92848 0.22495 0.0
N175 N 0.9321 0.85577 0.18444 0.0
N176 N 0.02404 0.87663 0.27592 0.0
C177 C 0.00448 0.79584 0.26134 0.0
C178 C 0.95445 0.78445 0.21184 0.0
C179 C 0.79164 0.3383 0.28712 0.0
C180 C 0.85278 0.36068 0.33026 0.0
C181 C 0.83918 0.3274 0.23064 0.0
C182 C 0.94926 0.33951 0.21497 0.0
H183 H 0.70824 0.32169 0.2976 0.0
H184 H 0.79077 0.30275 0.2001 0.0
S185 S 0.13837 0.42151 0.30869 0.0
N186 N 0.02436 0.41154 0.35115 0.0
N187 N 0.11362 0.39252 0.24495 0.0
C188 C 0.00804 0.37374 0.256 0.0
C189 C 0.95974 0.38392 0.31373 0.0
C190 C 0.05878 0.26819 0.72915 0.0
C191 C 0.96739 0.31445 0.72292 0.0
C192 C 0.09253 0.25944 0.78226 0.0
C193 C 0.03579 0.2962 0.83127 0.0
H194 H 0.10076 0.23407 0.69329 0.0
H195 H 0.16101 0.22005 0.78532 0.0
S196 S 0.79711 0.43068 0.8367 0.0
N197 N 0.82521 0.40353 0.76894 0.0
N198 N 0.88962 0.38707 0.86963 0.0
C199 C 0.9492 0.34833 0.82511 0.0
C200 C 0.9146 0.35742 0.77055 0.0
C201 C 0.07219 0.72873 0.71259 0.0
C202 C 0.11759 0.80778 0.69714 0.0
C203 C 0.00519 0.7175 0.76447 0.0
C204 C -0.019 0.78509 0.80241 0.0
H205 H 0.08766 0.67532 0.68426 0.0
H206 H 0.96897 0.65642 0.77386 0.0
S207 S 0.08454 0.00329 0.78443 0.0
N208 N 0.13677 0.95385 0.72599 0.0
N209 N 0.01219 0.93214 0.82286 0.0
C210 C 0.02849 0.86353 0.78837 0.0
C211 C 0.09635 0.87508 0.7359 0.0
loop_
_geom_bond_atom_site_label_1
_geom_bond_atom_site_label_2
_geom_bond_distance
_geom_bond_site_symmetry_2
_ccdc_geom_bond_type
Zn0 O6 1.969 . S
Zn0 O7 1.965 . S
Zn0 O11 2.024 . S
Zn0 O16 1.969 . S
Zn1 O8 1.969 . S
Zn1 O14 1.969 . S
Zn1 O15 1.965 . S
Zn1 O17 2.024 . S
C2 O3 1.229 . S
C2 O11 1.058 . S
O3 C2 1.229 . S
C4 O5 1.229 . S
C4 O17 1.058 . S
O5 C4 1.229 . S
O6 Zn0 1.969 . S
O6 C9 1.267 . S
O7 Zn0 1.965 . S
O7 C18 1.260 1_556 S
O8 Zn1 1.969 . S
O8 C18 1.258 . S
C9 O6 1.267 . S
C9 O10 1.228 . S
O10 C9 1.228 . S
O11 Zn0 2.024 . S
O11 C2 1.058 . S
C12 O13 1.228 . S
C12 O14 1.267 . S
O13 C12 1.228 . S
O14 Zn1 1.969 . S
O14 C12 1.267 . S
O15 Zn1 1.965 . S
O15 C19 1.260 1_554 S
O16 Zn0 1.969 . S
O16 C19 1.258 . S
O17 Zn1 2.024 . S
O17 C4 1.058 . S
C18 O7 1.260 1_554 S
C18 O8 1.258 . S
C19 O15 1.260 1_556 S
C19 O16 1.258 . S
Zn20 O26 1.969 . S
Zn20 O27 1.965 . S
Zn20 O31 2.024 . S
Zn20 O36 1.969 . S
Zn21 O28 1.969 . S
Zn21 O34 1.969 . S
Zn21 O35 1.965 . S
Zn21 O37 2.024 . S
C22 O23 1.229 . S
C22 O31 1.058 . S
O23 C22 1.229 . S
C24 O25 1.229 . S
C24 O37 1.058 . S
O25 C24 1.229 . S
O26 Zn20 1.969 . S
O26 C29 1.267 . S
O27 Zn20 1.965 . S
O27 C38 1.260 1_556 S
O28 Zn21 1.969 . S
O28 C38 1.258 . S
C29 O26 1.267 . S
C29 O30 1.228 . S
O30 C29 1.228 . S
O31 Zn20 2.024 . S
O31 C22 1.058 . S
C32 O33 1.228 . S
C32 O34 1.267 . S
O33 C32 1.228 . S
O34 Zn21 1.969 . S
O34 C32 1.267 . S
O35 Zn21 1.965 . S
O35 C39 1.260 1_554 S
O36 Zn20 1.969 . S
O36 C39 1.258 . S
O37 Zn21 2.024 . S
O37 C24 1.058 . S
C38 O27 1.260 1_554 S
C38 O28 1.258 . S
C39 O35 1.260 1_556 S
C39 O36 1.258 . S
Zn40 O46 1.969 . S
Zn40 O47 1.965 . S
Zn40 O51 2.024 . S
Zn40 O56 1.969 . S
Zn41 O48 1.969 . S
Zn41 O54 1.969 . S
Zn41 O55 1.965 . S
Zn41 O57 2.024 . S
C42 O43 1.229 . S
C42 O51 1.058 . S
O43 C42 1.229 . S
C44 O45 1.229 . S
C44 O57 1.058 . S
O45 C44 1.229 . S
O46 Zn40 1.969 . S
O46 C49 1.267 . S
O47 Zn40 1.965 . S
O47 C58 1.260 . S
O48 Zn41 1.969 . S
O48 C58 1.258 . S
C49 O46 1.267 . S
C49 O50 1.228 . S
O50 C49 1.228 . S
O51 Zn40 2.024 . S
O51 C42 1.058 . S
C52 O53 1.228 . S
C52 O54 1.267 . S
O53 C52 1.228 . S
O54 Zn41 1.969 . S
O54 C52 1.267 . S
O55 Zn41 1.965 . S
O55 C59 1.260 . S
O56 Zn40 1.969 . S
O56 C59 1.258 . S
O57 Zn41 2.024 . S
O57 C44 1.058 . S
C58 O47 1.260 . S
C58 O48 1.258 . S
C59 O55 1.260 . S
C59 O56 1.258 . S
Zn60 O66 1.969 . S
Zn60 O67 1.965 . S
Zn60 O71 2.024 . S
Zn60 O76 1.969 . S
Zn61 O68 1.969 . S
Zn61 O74 1.969 . S
Zn61 O75 1.965 . S
Zn61 O77 2.024 . S
C62 O63 1.229 . S
C62 O71 1.058 . S
O63 C62 1.229 . S
C64 O65 1.229 . S
C64 O77 1.058 . S
O65 C64 1.229 . S
O66 Zn60 1.969 . S
O66 C69 1.267 . S
O67 Zn60 1.965 . S
O67 C78 1.260 . S
O68 Zn61 1.969 . S
O68 C78 1.258 . S
C69 O66 1.267 . S
C69 O70 1.228 . S
O70 C69 1.228 . S
O71 Zn60 2.024 . S
O71 C62 1.058 . S
C72 O73 1.228 . S
C72 O74 1.267 . S
O73 C72 1.228 . S
O74 Zn61 1.969 . S
O74 C72 1.267 . S
O75 Zn61 1.965 . S
O75 C79 1.260 . S
O76 Zn60 1.969 . S
O76 C79 1.258 . S
O77 Zn61 2.024 . S
O77 C64 1.058 . S
C78 O67 1.260 . S
C78 O68 1.258 . S
C79 O75 1.260 . S
C79 O76 1.258 . S
C80 C81 1.369 . S
C80 C82 1.419 . S
C80 H84 0.930 . S
C81 C80 1.369 . S
C81 C90 1.429 1_556 S
C82 C80 1.419 . S
C82 C83 1.363 1_556 S
C82 H85 0.929 . S
C83 C82 1.363 1_554 S
C83 C89 1.428 . S
H84 C80 0.930 . S
H85 C82 0.929 . S
S86 N87 1.613 . S
S86 N88 1.610 . S
N87 S86 1.613 . S
N87 C90 1.350 . S
N88 S86 1.610 . S
N88 C89 1.351 . S
C89 C83 1.428 . S
C89 N88 1.351 . S
C89 C90 1.434 . S
C90 C81 1.429 1_554 S
C90 N87 1.350 . S
C90 C89 1.434 . S
C91 C92 1.369 . S
C91 C93 1.419 . S
C91 H95 0.930 . S
C92 C91 1.369 . S
C92 C101 1.429 . S
C93 C91 1.419 . S
C93 C94 1.363 . S
C93 H96 0.929 . S
C94 C93 1.363 . S
C94 C100 1.428 . S
H95 C91 0.930 . S
H96 C93 0.929 . S
S97 N98 1.613 . S
S97 N99 1.610 . S
N98 S97 1.613 . S
N98 C101 1.350 . S
N99 S97 1.610 . S
N99 C100 1.351 . S
C100 C94 1.428 . S
C100 N99 1.351 . S
C100 C101 1.434 . S
C101 C92 1.429 . S
C101 N98 1.350 . S
C101 C100 1.434 . S
C102 C103 1.369 1_554 S
C102 C104 1.419 1_445 S
C102 H106 0.930 . S
C103 C102 1.369 1_556 S
C103 C112 1.429 . S
C104 C102 1.419 1_665 S
C104 C105 1.363 . S
C104 H107 0.929 . S
C105 C104 1.363 . S
C105 C111 1.428 1_554 S
H106 C102 0.930 . S
H107 C104 0.929 . S
S108 N109 1.613 1_655 S
S108 N110 1.610 1_545 S
N109 S108 1.613 1_455 S
N109 C112 1.350 . S
N110 S108 1.610 1_565 S
N110 C111 1.351 . S
C111 C105 1.428 1_556 S
C111 N110 1.351 . S
C111 C112 1.434 1_665 S
C112 C103 1.429 . S
C112 N109 1.350 . S
C112 C111 1.434 1_445 S
C113 C114 1.369 1_455 S
C113 C115 1.419 . S
C113 H117 0.930 . S
C114 C113 1.369 1_655 S
C114 C123 1.429 1_545 S
C115 C113 1.419 . S
C115 C116 1.363 1_545 S
C115 H118 0.929 . S
C116 C115 1.363 1_565 S
C116 C122 1.428 1_455 S
H117 C113 0.930 . S
H118 C115 0.929 . S
S119 N120 1.613 . S
S119 N121 1.610 . S
N120 S119 1.613 . S
N120 C123 1.350 . S
N121 S119 1.610 . S
N121 C122 1.351 . S
C122 C116 1.428 1_655 S
C122 N121 1.351 . S
C122 C123 1.434 . S
C123 C114 1.429 1_565 S
C123 N120 1.350 . S
C123 C122 1.434 . S
C124 C125 1.369 . S
C124 C126 1.419 . S
C124 H128 0.930 . S
C125 C124 1.369 . S
C125 C134 1.429 . S
C126 C124 1.419 . S
C126 C127 1.363 . S
C126 H129 0.929 . S
C127 C126 1.363 . S
C127 C133 1.428 . S
H128 C124 0.930 . S
H129 C126 0.929 . S
S130 N131 1.613 . S
S130 N132 1.610 . S
N131 S130 1.613 . S
N131 C134 1.350 . S
N132 S130 1.610 . S
N132 C133 1.351 . S
C133 C127 1.428 . S
C133 N132 1.351 . S
C133 C134 1.434 . S
C134 C125 1.429 . S
C134 N131 1.350 . S
C134 C133 1.434 . S
C135 C136 1.369 . S
C135 C137 1.419 . S
C135 H139 0.930 . S
C136 C135 1.369 . S
C136 C145 1.429 . S
C137 C135 1.419 . S
C137 C138 1.363 . S
C137 H140 0.929 . S
C138 C137 1.363 . S
C138 C144 1.428 . S
H139 C135 0.930 . S
H140 C137 0.929 . S
S141 N142 1.613 . S
S141 N143 1.610 . S
N142 S141 1.613 . S
N142 C145 1.350 . S
N143 S141 1.610 . S
N143 C144 1.351 . S
C144 C138 1.428 . S
C144 N143 1.351 . S
C144 C145 1.434 . S
C145 C136 1.429 . S
C145 N142 1.350 . S
C145 C144 1.434 . S
C146 C147 1.369 . S
C146 C148 1.419 . S
C146 H150 0.930 . S
C147 C146 1.369 . S
C147 C156 1.429 . S
C148 C146 1.419 . S
C148 C149 1.363 . S
C148 H151 0.929 . S
C149 C148 1.363 . S
C149 C155 1.428 . S
H150 C146 0.930 . S
H151 C148 0.929 . S
S152 N153 1.613 . S
S152 N154 1.610 . S
N153 S152 1.613 . S
N153 C156 1.350 . S
N154 S152 1.610 . S
N154 C155 1.351 . S
C155 C149 1.428 . S
C155 N154 1.351 . S
C155 C156 1.434 . S
C156 C147 1.429 . S
C156 N153 1.350 . S
C156 C155 1.434 . S
C157 C158 1.369 . S
C157 C159 1.419 . S
C157 H161 0.930 . S
C158 C157 1.369 . S
C158 C167 1.429 . S
C159 C157 1.419 . S
C159 C160 1.363 . S
C159 H162 0.929 . S
C160 C159 1.363 . S
C160 C166 1.428 . S
H161 C157 0.930 . S
H162 C159 0.929 . S
S163 N164 1.613 . S
S163 N165 1.610 . S
N164 S163 1.613 . S
N164 C167 1.350 . S
N165 S163 1.610 . S
N165 C166 1.351 . S
C166 C160 1.428 . S
C166 N165 1.351 . S
C166 C167 1.434 . S
C167 C158 1.429 . S
C167 N164 1.350 . S
C167 C166 1.434 . S
C168 C169 1.369 . S
C168 C170 1.419 . S
C168 H172 0.930 . S
C169 C168 1.369 . S
C169 C178 1.429 1_655 S
C170 C168 1.419 . S
C170 C171 1.363 1_655 S
C170 H173 0.929 . S
C171 C170 1.363 1_455 S
C171 C177 1.428 . S
H172 C168 0.930 . S
H173 C170 0.929 . S
S174 N175 1.613 . S
S174 N176 1.610 . S
N175 S174 1.613 . S
N175 C178 1.350 . S
N176 S174 1.610 . S
N176 C177 1.351 . S
C177 C171 1.428 . S
C177 N176 1.351 . S
C177 C178 1.434 . S
C178 C169 1.429 1_455 S
C178 N175 1.350 . S
C178 C177 1.434 . S
C179 C180 1.369 . S
C179 C181 1.419 . S
C179 H183 0.930 . S
C180 C179 1.369 . S
C180 C189 1.429 1_655 S
C181 C179 1.419 . S
C181 C182 1.363 1_655 S
C181 H184 0.929 . S
C182 C181 1.363 1_455 S
C182 C188 1.428 . S
H183 C179 0.930 . S
H184 C181 0.929 . S
S185 N186 1.613 . S
S185 N187 1.610 . S
N186 S185 1.613 . S
N186 C189 1.350 . S
N187 S185 1.610 . S
N187 C188 1.351 . S
C188 C182 1.428 . S
C188 N187 1.351 . S
C188 C189 1.434 . S
C189 C180 1.429 1_455 S
C189 N186 1.350 . S
C189 C188 1.434 . S
C190 C191 1.369 1_455 S
C190 C192 1.419 . S
C190 H194 0.930 . S
C191 C190 1.369 1_655 S
C191 C200 1.429 . S
C192 C190 1.419 . S
C192 C193 1.363 . S
C192 H195 0.929 . S
C193 C192 1.363 . S
C193 C199 1.428 1_455 S
H194 C190 0.930 . S
H195 C192 0.929 . S
S196 N197 1.613 . S
S196 N198 1.610 . S
N197 S196 1.613 . S
N197 C200 1.350 . S
N198 S196 1.610 . S
N198 C199 1.351 . S
C199 C193 1.428 1_655 S
C199 N198 1.351 . S
C199 C200 1.434 . S
C200 C191 1.429 . S
C200 N197 1.350 . S
C200 C199 1.434 . S
C201 C202 1.369 . S
C201 C203 1.419 . S
C201 H205 0.930 . S
C202 C201 1.369 . S
C202 C211 1.429 1_455 S
C203 C201 1.419 . S
C203 C204 1.363 1_455 S
C203 H206 0.929 . S
C204 C203 1.363 1_655 S
C204 C210 1.428 . S
H205 C201 0.930 . S
H206 C203 0.929 . S
S207 N208 1.613 . S
S207 N209 1.610 . S
N208 S207 1.613 . S
N208 C211 1.350 . S
N209 S207 1.610 . S
N209 C210 1.351 . S
C210 C204 1.428 . S
C210 N209 1.351 . S
C210 C211 1.434 . S
C211 C202 1.429 1_655 S
C211 N208 1.350 . S
C211 C210 1.434 . S
C81 C38 1.506 1_556 S
C83 C19 1.499 1_554 S
C92 C58 1.506 . S
C94 C79 1.499 . S
C103 C18 1.501 1_556 S
C105 C39 1.502 1_554 S
C114 C78 1.507 . S
C116 C59 1.498 . S
C125 C72 1.281 . S
C127 C12 1.292 . S
C136 C24 1.110 . S
C138 C44 1.115 . S
C147 C29 1.289 . S
C149 C49 1.292 . S
C158 C62 1.112 . S
C160 C2 1.113 . S
C169 C32 1.290 . S
C171 C52 1.282 . S
C180 C64 1.127 . S
C182 C4 1.116 . S
C191 C69 1.289 . S
C193 C9 1.292 . S
C202 C42 1.111 . S
C204 C22 1.113 . S
