# Generated by pormake.
# Topology qtz-x, (6)-cn, num edge types: 1
# Building blocks:
#     Node 0, Type 0, BuildingBlock: BETDEL_clean_sbu_0, # of connection points: 6
#     Node 1, Type 0, BuildingBlock: BETDEL_clean_sbu_0, # of connection points: 6
#     Node 2, Type 0, BuildingBlock: BETDEL_clean_sbu_0, # of connection points: 6
#     Edge 3, Type (0, 0), BuildingBlock: AJUNOK_clean_linker_0, # of connection points: 2
#     Edge 4, Type (0, 0), BuildingBlock: AJUNOK_clean_linker_0, # of connection points: 2
#     Edge 5, Type (0, 0), BuildingBlock: AJUNOK_clean_linker_0, # of connection points: 2
#     Edge 6, Type (0, 0), BuildingBlock: AJUNOK_clean_linker_0, # of connection points: 2
#     Edge 7, Type (0, 0), BuildingBlock: AJUNOK_clean_linker_0, # of connection points: 2
#     Edge 8, Type (0, 0), BuildingBlock: AJUNOK_clean_linker_0, # of connection points: 2
#     Edge 9, Type (0, 0), BuildingBlock: AJUNOK_clean_linker_0, # of connection points: 2
#     Edge 10, Type (0, 0), BuildingBlock: AJUNOK_clean_linker_0, # of connection points: 2
#     Edge 11, Type (0, 0), BuildingBlock: AJUNOK_clean_linker_0, # of connection points: 2
# Relax obj value: 0.148
# Max RMSD: 0.222
# Mean RMSD: 0.216
data_MOF--net-qtz-x--node1-BETDEL_clean_sbu_0--edge1-AJUNOK_clean_linker_0
_symmetry_space_group_name_H-M    P1
_symmetry_Int_Tables_number       1
_symmetry_cell_setting            triclinic
loop_
_symmetry_equiv_pos_as_xyz
'x, y, z'
_cell_length_a     10.60502
_cell_length_b     10.672434
_cell_length_c     32.08107
_cell_angle_alpha  82.812724
_cell_angle_beta   99.728711
_cell_angle_gamma 119.98816
loop_
_atom_site_label
_atom_site_type_symbol
_atom_site_fract_x
_atom_site_fract_y
_atom_site_fract_z
_atom_type_partial_charge
Dy0 Dy 0.95226 0.49653 0.21899 0.0
C1 C 0.38521 0.79061 0.11252 0.0
C2 C 0.78007 0.37792 0.2834 0.0
Dy3 Dy 0.21501 0.64301 0.17669 0.0
O4 O 0.83275 0.51018 0.26848 0.0
O5 O 0.81251 0.30702 0.26084 0.0
O6 O 0.89522 0.66741 0.19221 0.0
O7 O 0.11698 0.72736 0.21218 0.0
C8 C 0.02896 0.7735 0.19613 0.0
C9 C 0.14087 0.36617 0.19801 0.0
O10 O 0.3288 0.7147 0.24118 0.0
O11 O 0.1361 0.51607 0.26912 0.0
O12 O 0.3966 0.69284 0.13878 0.0
O13 O 0.28828 0.81483 0.12407 0.0
O14 O 0.27453 0.47195 0.19908 0.0
O15 O 0.05075 0.41115 0.18334 0.0
O16 O 0.8264 0.42798 0.15497 0.0
O17 O 0.03275 0.5962 0.12443 0.0
C18 C 0.27277 0.62321 0.27338 0.0
C19 C 0.89108 0.50354 0.12152 0.0
Dy20 Dy 0.63422 0.16599 0.55228 0.0
C21 C 0.46976 0.71615 0.44939 0.0
C22 C 0.72297 0.35515 0.61525 0.0
Dy23 Dy 0.496 0.89184 0.50958 0.0
O24 O 0.79724 0.30028 0.60497 0.0
O25 O 0.60318 0.31415 0.58885 0.0
O26 O 0.8496 0.22457 0.53309 0.0
O27 O 0.70645 0.00587 0.5491 0.0
C28 C 0.82944 0.09381 0.53597 0.0
C29 C 0.29734 0.96309 0.52325 0.0
O30 O 0.4983 0.79705 0.57514 0.0
O31 O 0.51073 -0.00474 0.60101 0.0
O32 O 0.36324 0.69965 0.46854 0.0
O33 O 0.59075 0.82239 0.46574 0.0
O34 O 0.27162 0.83062 0.52294 0.0
O35 O 0.4237 0.0513 0.51232 0.0
O36 O 0.65097 0.27466 0.4871 0.0
O37 O 0.57599 0.05815 0.45725 0.0
C38 C 0.48464 0.86004 0.60577 0.0
C39 C 0.63122 0.19971 0.45428 0.0
Dy40 Dy 0.52173 0.65873 0.87854 0.0
C41 C 0.7905 0.45419 0.79296 0.0
C42 C 0.43814 0.75691 0.93793 0.0
Dy43 Dy 0.6607 0.51554 0.84879 0.0
O44 O 0.56276 0.82406 0.92311 0.0
O45 O 0.35154 0.64057 0.91685 0.0
O46 O 0.68184 0.86761 0.84922 0.0
O47 O 0.75333 0.7219 0.8783 0.0
C48 C 0.79218 0.84394 0.8586 0.0
C49 C 0.38885 0.32748 0.86651 0.0
O50 O 0.75486 0.51855 0.91625 0.0
O51 O 0.56099 0.5296 0.9351 0.0
O52 O 0.6954 0.36059 0.81727 0.0
O53 O 0.82689 0.58241 0.80355 0.0
O54 O 0.49746 0.30076 0.87356 0.0
O55 O 0.42799 0.45173 0.84833 0.0
O56 O 0.42762 0.66982 0.81089 0.0
O57 O 0.58814 0.61009 0.79014 0.0
C58 C 0.67352 0.50629 0.94511 0.0
C59 C 0.48943 0.65332 0.78079 0.0
C60 C 0.95881 0.96685 0.17494 0.0
C61 C 0.06114 0.92577 0.1964 0.0
C62 C 0.98197 0.10816 0.17648 0.0
C63 C 0.10846 0.21345 0.19959 0.0
H64 H 0.86009 0.88926 0.15661 0.0
H65 H 0.90195 0.13571 0.15879 0.0
S66 S 0.40267 0.15756 0.26443 0.0
N67 N 0.28907 1e-05 0.24334 0.0
N68 N 0.33257 0.26446 0.24647 0.0
C69 C 0.20981 0.17278 0.22186 0.0
C70 C 0.18647 0.02944 0.22015 0.0
C71 C 0.03681 0.88803 0.53213 0.0
C72 C 0.18068 -0.00041 0.5267 0.0
C73 C 0.92371 0.91839 0.53519 0.0
C74 C 0.94964 0.06165 0.53297 0.0
H75 H 0.01084 0.7758 0.53392 0.0
H76 H 0.81512 0.82887 0.53917 0.0
S77 S 0.30906 0.39342 0.52159 0.0
N78 N 0.34314 0.25896 0.52079 0.0
N79 N 0.13294 0.31686 0.52657 0.0
C80 C 0.09362 0.17424 0.528 0.0
C81 C 0.20835 0.14307 0.52491 0.0
C82 C 0.97928 0.09077 0.83392 0.0
C83 C 0.94543 0.96496 0.86041 0.0
C84 C 0.12197 0.21061 0.83665 0.0
C85 C 0.23533 0.20881 0.86621 0.0
H86 H 0.89499 0.09641 0.81072 0.0
H87 H 0.14412 0.30367 0.81499 0.0
S88 S 0.19919 0.91571 0.9465 0.0
N89 N 0.03501 0.85165 0.91908 0.0
N90 N 0.30131 0.07738 0.9249 0.0
C91 C 0.20168 0.08596 0.89365 0.0
C92 C 0.05737 0.96379 0.89056 0.0
C93 C 0.29205 0.68416 0.99887 0.0
C94 C 0.42094 0.78049 0.9808 0.0
C95 C 0.28086 0.69295 0.04123 0.0
C96 C 0.39947 0.79541 0.06742 0.0
H97 H 0.19984 0.60011 0.98036 0.0
H98 H 0.17986 0.61591 0.054 0.0
S99 S 0.76183 0.07023 0.03647 0.0
N100 N 0.66941 0.98421 0.99274 0.0
N101 N 0.64923 -0.00662 0.07304 0.0
C102 C 0.5285 0.89235 0.05009 0.0
C103 C 0.53903 0.88656 1.00658 0.0
C104 C 0.64918 0.3636 0.38864 0.0
C105 C 0.68817 0.26737 0.41357 0.0
C106 C 0.67716 0.39816 0.34601 0.0
C107 C 0.74061 0.33398 0.32699 0.0
H108 H 0.59294 0.40816 0.40158 0.0
H109 H 0.64624 0.47302 0.32757 0.0
S110 S 0.876 0.0876 0.38061 0.0
N111 N 0.80923 0.12278 0.41766 0.0
N112 N 0.85038 0.17813 0.3375 0.0
C113 C 0.78349 0.24135 0.35216 0.0
C114 C 0.76084 0.21126 0.39551 0.0
C115 C 0.5248 0.65493 0.706 0.0
C116 C 0.46046 0.68845 0.73502 0.0
C117 C 0.52136 0.7011 0.66348 0.0
C118 C 0.45677 0.78669 0.64801 0.0
H119 H 0.5857 0.59819 0.71634 0.0
H120 H 0.57881 0.67767 0.64336 0.0
S121 S 0.25121 0.88618 0.70777 0.0
N122 N 0.31275 0.79701 0.74332 0.0
N123 N 0.31042 0.88953 0.66295 0.0
C124 C 0.38375 0.8145 0.67553 0.0
C125 C 0.38458 0.7641 0.7191 0.0
C126 C 0.67589 0.3693 1.01461 0.0
C127 C 0.72413 0.50085 0.99033 0.0
C128 C 0.71916 0.36847 0.05868 0.0
C129 C 0.81074 0.49903 0.07908 0.0
H130 H 0.6061 0.26736 0.99944 0.0
H131 H 0.68645 0.26625 0.07649 0.0
S132 S 0.9465 0.87048 0.02991 0.0
N133 N 0.8523 0.76285 0.99029 0.0
N134 N 0.93446 0.76225 0.07235 0.0
C135 C 0.85086 0.63038 0.05518 0.0
C136 C 0.80746 0.631 1.01091 0.0
C137 C 0.4383 0.78482 0.33122 0.0
C138 C 0.35399 0.64463 0.31632 0.0
C139 C 0.48293 0.80578 0.37458 0.0
C140 C 0.44667 0.6878 0.40431 0.0
H141 H 0.4599 0.87842 0.30982 0.0
H142 H 0.53687 0.91499 0.38512 0.0
S143 S 0.25512 0.30091 0.38049 0.0
N144 N 0.25481 0.38631 0.33382 0.0
N145 N 0.33918 0.42766 0.41558 0.0
C146 C 0.37272 0.54783 0.38959 0.0
C147 C 0.32702 0.52591 0.34542 0.0
C148 C 0.89866 0.47684 0.72662 0.0
C149 C 0.77555 0.42661 0.74796 0.0
C150 C 0.8818 0.45992 0.68283 0.0
C151 C 0.74193 0.39882 0.65881 0.0
H152 H 0.00789 0.52706 0.74392 0.0
H153 H 0.97859 0.49315 0.66775 0.0
S154 S 0.38682 0.26642 0.69941 0.0
N155 N 0.51015 0.31946 0.74169 0.0
N156 N 0.47979 0.29724 0.65943 0.0
C157 C 0.61911 0.35503 0.67963 0.0
C158 C 0.63561 0.36615 0.72424 0.0
loop_
_geom_bond_atom_site_label_1
_geom_bond_atom_site_label_2
_geom_bond_distance
_geom_bond_site_symmetry_2
_ccdc_geom_bond_type
Dy0 O4 2.398 . S
Dy0 O5 2.491 . S
Dy0 O6 2.403 . S
Dy0 O7 2.664 1_655 S
Dy0 O11 2.326 1_655 S
Dy0 O15 2.310 . S
Dy0 O16 2.351 . S
C1 O12 1.185 . S
C1 O13 1.355 . S
C2 O4 1.185 . S
C2 O5 1.355 . S
Dy3 O7 2.310 . S
Dy3 O10 2.351 . S
Dy3 O12 2.398 . S
Dy3 O13 2.491 . S
Dy3 O14 2.403 . S
Dy3 O15 2.664 1_455 S
Dy3 O17 2.326 1_455 S
O4 Dy0 2.398 . S
O4 C2 1.185 . S
O5 Dy0 2.491 . S
O5 C2 1.355 . S
O6 Dy0 2.403 . S
O6 C8 1.254 . S
O7 Dy0 2.664 1_455 S
O7 Dy3 2.310 . S
O7 C8 1.268 1_455 S
C8 O6 1.254 . S
C8 O7 1.268 1_655 S
C9 O14 1.254 . S
C9 O15 1.268 1_455 S
O10 Dy3 2.351 . S
O10 C18 1.249 . S
O11 Dy0 2.326 1_455 S
O11 C18 1.267 . S
O12 C1 1.185 . S
O12 Dy3 2.398 . S
O13 C1 1.355 . S
O13 Dy3 2.491 . S
O14 Dy3 2.403 . S
O14 C9 1.254 . S
O15 Dy0 2.310 . S
O15 Dy3 2.664 1_655 S
O15 C9 1.268 1_655 S
O16 Dy0 2.351 . S
O16 C19 1.249 . S
O17 Dy3 2.326 1_655 S
O17 C19 1.267 . S
C18 O10 1.249 . S
C18 O11 1.267 . S
C19 O16 1.249 . S
C19 O17 1.267 . S
Dy20 O24 2.398 . S
Dy20 O25 2.491 . S
Dy20 O26 2.403 . S
Dy20 O27 2.664 1_545 S
Dy20 O31 2.326 1_545 S
Dy20 O35 2.310 . S
Dy20 O36 2.351 . S
C21 O32 1.185 . S
C21 O33 1.355 . S
C22 O24 1.185 . S
C22 O25 1.355 . S
Dy23 O27 2.310 . S
Dy23 O30 2.351 . S
Dy23 O32 2.398 . S
Dy23 O33 2.491 . S
Dy23 O34 2.403 . S
Dy23 O35 2.664 1_565 S
Dy23 O37 2.326 1_565 S
O24 Dy20 2.398 . S
O24 C22 1.185 . S
O25 Dy20 2.491 . S
O25 C22 1.355 . S
O26 Dy20 2.403 . S
O26 C28 1.254 . S
O27 Dy20 2.664 1_565 S
O27 Dy23 2.310 . S
O27 C28 1.268 1_565 S
C28 O26 1.254 . S
C28 O27 1.268 1_545 S
C29 O34 1.254 . S
C29 O35 1.268 1_565 S
O30 Dy23 2.351 . S
O30 C38 1.249 . S
O31 Dy20 2.326 1_565 S
O31 C38 1.267 . S
O32 C21 1.185 . S
O32 Dy23 2.398 . S
O33 C21 1.355 . S
O33 Dy23 2.491 . S
O34 Dy23 2.403 . S
O34 C29 1.254 . S
O35 Dy20 2.310 . S
O35 Dy23 2.664 1_545 S
O35 C29 1.268 1_545 S
O36 Dy20 2.351 . S
O36 C39 1.249 . S
O37 Dy23 2.326 1_545 S
O37 C39 1.267 . S
C38 O30 1.249 . S
C38 O31 1.267 . S
C39 O36 1.249 . S
C39 O37 1.267 . S
Dy40 O44 2.398 . S
Dy40 O45 2.491 . S
Dy40 O46 2.403 . S
Dy40 O47 2.664 . S
Dy40 O51 2.326 . S
Dy40 O55 2.310 . S
Dy40 O56 2.351 . S
C41 O52 1.185 . S
C41 O53 1.355 . S
C42 O44 1.185 . S
C42 O45 1.355 . S
Dy43 O47 2.310 . S
Dy43 O50 2.351 . S
Dy43 O52 2.398 . S
Dy43 O53 2.491 . S
Dy43 O54 2.403 . S
Dy43 O55 2.664 . S
Dy43 O57 2.326 . S
O44 Dy40 2.398 . S
O44 C42 1.185 . S
O45 Dy40 2.491 . S
O45 C42 1.355 . S
O46 Dy40 2.403 . S
O46 C48 1.254 . S
O47 Dy40 2.664 . S
O47 Dy43 2.310 . S
O47 C48 1.268 . S
C48 O46 1.254 . S
C48 O47 1.268 . S
C49 O54 1.254 . S
C49 O55 1.268 . S
O50 Dy43 2.351 . S
O50 C58 1.249 . S
O51 Dy40 2.326 . S
O51 C58 1.267 . S
O52 C41 1.185 . S
O52 Dy43 2.398 . S
O53 C41 1.355 . S
O53 Dy43 2.491 . S
O54 Dy43 2.403 . S
O54 C49 1.254 . S
O55 Dy40 2.310 . S
O55 Dy43 2.664 . S
O55 C49 1.268 . S
O56 Dy40 2.351 . S
O56 C59 1.249 . S
O57 Dy43 2.326 . S
O57 C59 1.267 . S
C58 O50 1.249 . S
C58 O51 1.267 . S
C59 O56 1.249 . S
C59 O57 1.267 . S
C60 C61 1.367 1_545 S
C60 C62 1.416 1_455 S
C60 H64 0.930 . S
C61 C60 1.367 1_565 S
C61 C70 1.426 1_455 S
C62 C60 1.416 1_655 S
C62 C63 1.365 . S
C62 H65 0.930 . S
C63 C62 1.365 . S
C63 C69 1.428 . S
H64 C60 0.930 . S
H65 C62 0.930 . S
S66 N67 1.613 . S
S66 N68 1.610 1_565 S
N67 S66 1.613 . S
N67 C70 1.350 . S
N68 S66 1.610 1_545 S
N68 C69 1.351 . S
C69 C63 1.428 . S
C69 N68 1.351 . S
C69 C70 1.434 1_545 S
C70 C61 1.426 1_655 S
C70 N67 1.350 . S
C70 C69 1.434 1_565 S
C71 C72 1.369 1_565 S
C71 C73 1.419 1_455 S
C71 H75 0.930 . S
C72 C71 1.369 1_545 S
C72 C81 1.429 . S
C73 C71 1.419 1_655 S
C73 C74 1.363 1_565 S
C73 H76 0.929 . S
C74 C73 1.363 1_545 S
C74 C80 1.428 1_655 S
H75 C71 0.930 . S
H76 C73 0.929 . S
S77 N78 1.613 . S
S77 N79 1.610 . S
N78 S77 1.613 . S
N78 C81 1.350 . S
N79 S77 1.610 . S
N79 C80 1.351 . S
C80 C74 1.428 1_455 S
C80 N79 1.351 . S
C80 C81 1.434 . S
C81 C72 1.429 . S
C81 N78 1.350 . S
C81 C80 1.434 . S
C82 C83 1.369 . S
C82 C84 1.419 . S
C82 H86 0.930 1_455 S
C83 C82 1.369 . S
C83 C92 1.429 . S
C84 C82 1.419 . S
C84 C85 1.363 . S
C84 H87 0.929 . S
C85 C84 1.363 . S
C85 C91 1.428 . S
H86 C82 0.930 1_655 S
H87 C84 0.929 . S
S88 N89 1.613 . S
S88 N90 1.610 . S
N89 S88 1.613 . S
N89 C92 1.350 . S
N90 S88 1.610 . S
N90 C91 1.351 . S
C91 C85 1.428 . S
C91 N90 1.351 . S
C91 C92 1.434 . S
C92 C83 1.429 . S
C92 N89 1.350 . S
C92 C91 1.434 . S
C93 C94 1.369 . S
C93 C95 1.419 . S
C93 H97 0.930 . S
C94 C93 1.369 . S
C94 C103 1.429 . S
C95 C93 1.419 . S
C95 C96 1.363 1_556 S
C95 H98 0.929 . S
C96 C95 1.363 1_554 S
C96 C102 1.428 . S
H97 C93 0.930 . S
H98 C95 0.929 . S
S99 N100 1.613 1_545 S
S99 N101 1.610 1_545 S
N100 S99 1.613 1_565 S
N100 C103 1.350 1_554 S
N101 S99 1.610 1_565 S
N101 C102 1.351 . S
C102 C96 1.428 . S
C102 N101 1.351 . S
C102 C103 1.434 1_554 S
C103 C94 1.429 . S
C103 N100 1.350 1_556 S
C103 C102 1.434 1_556 S
C104 C105 1.369 . S
C104 C106 1.419 . S
C104 H108 0.930 . S
C105 C104 1.369 . S
C105 C114 1.429 . S
C106 C104 1.419 . S
C106 C107 1.363 . S
C106 H109 0.929 . S
C107 C106 1.363 . S
C107 C113 1.428 . S
H108 C104 0.930 . S
H109 C106 0.929 . S
S110 N111 1.613 . S
S110 N112 1.610 . S
N111 S110 1.613 . S
N111 C114 1.350 . S
N112 S110 1.610 . S
N112 C113 1.351 . S
C113 C107 1.428 . S
C113 N112 1.351 . S
C113 C114 1.434 . S
C114 C105 1.429 . S
C114 N111 1.350 . S
C114 C113 1.434 . S
C115 C116 1.369 . S
C115 C117 1.419 . S
C115 H119 0.930 . S
C116 C115 1.369 . S
C116 C125 1.429 . S
C117 C115 1.419 . S
C117 C118 1.363 . S
C117 H120 0.929 . S
C118 C117 1.363 . S
C118 C124 1.428 . S
H119 C115 0.930 . S
H120 C117 0.929 . S
S121 N122 1.613 . S
S121 N123 1.610 . S
N122 S121 1.613 . S
N122 C125 1.350 . S
N123 S121 1.610 . S
N123 C124 1.351 . S
C124 C118 1.428 . S
C124 N123 1.351 . S
C124 C125 1.434 . S
C125 C116 1.429 . S
C125 N122 1.350 . S
C125 C124 1.434 . S
C126 C127 1.369 . S
C126 C128 1.419 1_556 S
C126 H130 0.930 . S
C127 C126 1.369 . S
C127 C136 1.429 . S
C128 C126 1.419 1_554 S
C128 C129 1.363 . S
C128 H131 0.929 . S
C129 C128 1.363 . S
C129 C135 1.428 . S
H130 C126 0.930 . S
H131 C128 0.929 . S
S132 N133 1.613 1_454 S
S132 N134 1.610 1_455 S
N133 S132 1.613 1_656 S
N133 C136 1.350 . S
N134 S132 1.610 1_655 S
N134 C135 1.351 . S
C135 C129 1.428 . S
C135 N134 1.351 . S
C135 C136 1.434 1_554 S
C136 C127 1.429 . S
C136 N133 1.350 . S
C136 C135 1.434 1_556 S
C137 C138 1.369 . S
C137 C139 1.419 . S
C137 H141 0.930 . S
C138 C137 1.369 . S
C138 C147 1.429 . S
C139 C137 1.419 . S
C139 C140 1.363 . S
C139 H142 0.929 . S
C140 C139 1.363 . S
C140 C146 1.428 . S
H141 C137 0.930 . S
H142 C139 0.929 . S
S143 N144 1.613 . S
S143 N145 1.610 . S
N144 S143 1.613 . S
N144 C147 1.350 . S
N145 S143 1.610 . S
N145 C146 1.351 . S
C146 C140 1.428 . S
C146 N145 1.351 . S
C146 C147 1.434 . S
C147 C138 1.429 . S
C147 N144 1.350 . S
C147 C146 1.434 . S
C148 C149 1.369 . S
C148 C150 1.419 . S
C148 H152 0.930 1_655 S
C149 C148 1.369 . S
C149 C158 1.429 . S
C150 C148 1.419 . S
C150 C151 1.363 . S
C150 H153 0.929 . S
C151 C150 1.363 . S
C151 C157 1.428 . S
H152 C148 0.930 1_455 S
H153 C150 0.929 . S
S154 N155 1.613 . S
S154 N156 1.610 . S
N155 S154 1.613 . S
N155 C158 1.350 . S
N156 S154 1.610 . S
N156 C157 1.351 . S
C157 C151 1.428 . S
C157 N156 1.351 . S
C157 C158 1.434 . S
C158 C149 1.429 . S
C158 N155 1.350 . S
C158 C157 1.434 . S
C61 C8 1.312 1_455 S
C63 C9 1.319 1_655 S
C72 C29 1.349 1_545 S
C74 C28 1.341 . S
C83 C48 1.293 1_445 S
C85 C49 1.297 . S
C94 C42 1.296 . S
C96 C1 1.276 . S
C105 C39 1.568 . S
C107 C2 1.566 . S
C116 C59 1.640 . S
C118 C38 1.634 . S
C127 C58 1.618 . S
C129 C19 1.610 . S
C138 C18 1.426 . S
C140 C21 1.388 . S
C149 C41 1.259 . S
C151 C22 1.285 . S
