# Generated by pormake.
# Topology pcu, (6)-cn, num edge types: 1
# Building blocks:
#     Node 0, Type 0, BuildingBlock: KUMJIN_clean_sbu_0, # of connection points: 6
#     Edge 1, Type (0, 0), BuildingBlock: EYOCIG_clean_linker_4, # of connection points: 2
#     Edge 2, Type (0, 0), BuildingBlock: EYOCIG_clean_linker_4, # of connection points: 2
#     Edge 3, Type (0, 0), BuildingBlock: EYOCIG_clean_linker_4, # of connection points: 2
# Relax obj value: 0.000
# Max RMSD: 0.000
# Mean RMSD: 0.000
data_MOF--net-pcu--node1-KUMJIN_clean_sbu_0--edge1-EYOCIG_clean_linker_4
_symmetry_space_group_name_H-M    P1
_symmetry_Int_Tables_number       1
_symmetry_cell_setting            triclinic
loop_
_symmetry_equiv_pos_as_xyz
'x, y, z'
_cell_length_a     10.751337
_cell_length_b     21.454516
_cell_length_c     12.165722
_cell_angle_alpha  115.63342
_cell_angle_beta   75.495207
_cell_angle_gamma 114.02749
loop_
_atom_site_label
_atom_site_type_symbol
_atom_site_fract_x
_atom_site_fract_y
_atom_site_fract_z
_atom_type_partial_charge
Eu0 Eu 0.12074 0.09547 0.05202 0.0
C1 C 0.7003 0.79021 0.77435 0.0
C2 C 0.49256 0.79007 0.91046 0.0
C3 C 0.47859 0.71989 0.69209 0.0
C4 C 0.63668 0.81379 0.89119 0.0
C5 C 0.62185 0.74134 0.67398 0.0
C6 C 0.41408 0.74439 0.81005 0.0
C7 C 0.83157 0.73243 0.54743 0.0
N8 N 0.83868 0.811 0.75991 0.0
C9 C 0.90481 0.78068 0.6498 0.0
C10 C 0.68956 0.7134 0.55919 0.0
Eu11 Eu 0.9556 0.89114 0.93722 0.0
N12 N 0.71524 0.85648 0.98669 0.0
C13 C 0.6557 0.87438 0.10431 0.0
C14 C 0.43141 0.8111 0.03041 0.0
C15 C 0.51343 0.85279 0.12777 0.0
H16 H 1.01469 0.79523 0.64106 0.0
H17 H 0.46717 0.86827 0.22107 0.0
H18 H 0.30336 0.7261 0.8231 0.0
H19 H 0.88451 0.70969 0.45976 0.0
H20 H 0.71667 0.90661 0.18108 0.0
H21 H 0.60959 0.11872 0.7688 0.0
H22 H 0.32114 0.79409 0.04894 0.0
H23 H 0.06102 0.19115 0.34815 0.0
H24 H 0.36004 0.08014 0.80847 0.0
H25 H 0.19084 0.27678 0.52965 0.0
H26 H 0.41664 0.68291 0.61594 0.0
H27 H 0.75531 0.19306 0.94115 0.0
H28 H 0.77269 0.2611 0.16703 0.0
H29 H 0.63289 0.67556 0.47994 0.0
H30 H 0.65902 0.30414 0.37406 0.0
N31 N 0.36116 0.13032 0.00288 0.0
C32 C 0.42088 0.11244 0.88532 0.0
C33 C 0.64502 0.17595 0.95953 0.0
C34 C 0.58367 0.19693 0.07941 0.0
C35 C 0.56318 0.13417 0.86205 0.0
C36 C 0.43953 0.17308 0.09849 0.0
H37 H 0.4425 0.31121 0.50979 0.0
N38 N 0.2373 0.17563 0.22951 0.0
C39 C 0.24396 0.25413 0.44204 0.0
C40 C 0.3757 0.19658 0.21526 0.0
C41 C 0.17093 0.20583 0.33955 0.0
C42 C 0.386 0.27334 0.43045 0.0
C43 C 0.45394 0.24551 0.31574 0.0
O44 O 1.03208 0.18183 0.11832 0.0
O45 O 0.93246 -0.00079 -0.00521 0.0
O46 O 0.95956 0.92562 0.7846 0.0
O47 O 0.11951 0.04568 0.84323 0.0
O48 O 0.90594 0.08805 0.14537 0.0
O49 O 0.1755 0.16993 0.95586 0.0
O50 O 0.04383 0.80458 0.87061 0.0
O51 O 0.14367 0.98738 0.99418 0.0
O52 O 0.11732 0.06095 0.20443 0.0
O53 O 0.95714 0.94095 0.14599 0.0
O54 O 0.17062 0.8985 0.84422 0.0
O55 O 0.90105 0.81676 0.03351 0.0
C56 C 0.84352 0.02361 0.06968 0.0
C57 C 0.16142 0.28835 0.07485 0.0
C58 C 0.16219 0.40293 0.08019 0.0
C59 C 0.1083 0.32605 0.03957 0.0
C60 C 0.26884 0.4423 0.15675 0.0
C61 C 0.26878 0.32803 0.15107 0.0
C62 C 0.32194 0.40481 0.19202 0.0
C63 C 0.04147 0.98551 0.76303 0.0
C64 C 0.10034 0.20806 0.03384 0.0
C65 C 0.59723 0.26711 0.29782 0.0
C66 C 0.66195 0.24269 0.17993 0.0
C67 C 0.23289 0.96306 0.91971 0.0
C68 C 0.91441 0.6982 0.91449 0.0
C69 C 0.96748 0.66044 0.94966 0.0
C70 C 0.91324 0.58357 0.90928 0.0
C71 C 0.80627 0.54427 0.83307 0.0
C72 C 0.80674 0.6586 0.83862 0.0
C73 C 0.75322 0.58183 0.7979 0.0
C74 C 1.0354 0.00108 0.22608 0.0
C75 C 0.97583 0.77848 0.95529 0.0
H76 H 1.02493 0.29561 0.98101 0.0
H77 H 0.31096 0.50183 0.18901 0.0
H78 H 0.31106 0.29995 0.17914 0.0
H79 H 0.40434 0.4353 0.25122 0.0
H80 H 0.05109 0.69082 0.00797 0.0
H81 H 0.76387 0.48476 0.80099 0.0
H82 H 0.76448 0.68673 0.81064 0.0
H83 H 0.67058 0.5514 0.73897 0.0
C84 C 0.03767 -0.00426 0.43861 0.0
C85 C 0.03755 -0.00113 0.34194 0.0
C86 C 0.03947 0.99085 0.55043 0.0
C87 C 0.03947 0.98773 0.64713 0.0
C88 C 0.47485 0.98906 0.97969 0.0
C89 C 0.36424 0.97879 0.95493 0.0
C90 C 0.60148 -0.00211 0.01021 0.0
C91 C 0.71211 0.00811 0.03483 0.0
C92 C 1.01185 0.51241 0.97678 0.0
C93 C 0.96716 0.54504 0.9462 0.0
C94 C 0.0635 0.474 0.01255 0.0
C95 C 0.10821 0.4414 0.04318 0.0
loop_
_geom_bond_atom_site_label_1
_geom_bond_atom_site_label_2
_geom_bond_distance
_geom_bond_site_symmetry_2
_ccdc_geom_bond_type
Eu0 N31 2.657 1_554 S
Eu0 N38 2.609 . S
Eu0 O44 2.558 . S
Eu0 O45 2.612 1_444 S
Eu0 O47 2.339 1_554 S
Eu0 O48 2.563 1_455 S
Eu0 O49 2.419 . S
Eu0 O51 2.380 . S
Eu0 O52 2.432 1_455 S
Eu0 C64 2.848 . S
C1 C4 1.429 . S
C1 C5 1.411 . S
C1 N8 1.377 . S
C2 C4 1.420 . S
C2 C6 1.423 . S
C2 C14 1.392 1_556 S
C3 C5 1.420 . S
C3 C6 1.351 . S
C3 H26 0.931 . S
C4 C1 1.429 . S
C4 C2 1.420 . S
C4 N12 1.362 1_556 S
C5 C1 1.411 . S
C5 C3 1.420 . S
C5 C10 1.395 . S
C6 C2 1.423 . S
C6 C3 1.351 . S
C6 H18 0.930 . S
C7 C9 1.400 . S
C7 C10 1.386 . S
C7 H19 0.930 . S
N8 C1 1.377 . S
N8 C9 1.321 . S
N8 Eu11 2.609 . S
C9 C7 1.400 . S
C9 N8 1.321 . S
C9 H16 0.930 . S
C10 C5 1.395 . S
C10 C7 1.386 . S
C10 H29 0.930 . S
Eu11 N8 2.609 . S
Eu11 N12 2.657 1_556 S
Eu11 O45 2.380 . S
Eu11 O46 2.432 1_655 S
Eu11 O50 2.558 . S
Eu11 O51 2.612 1_666 S
Eu11 O53 2.339 1_556 S
Eu11 O54 2.563 1_655 S
Eu11 O55 2.419 . S
Eu11 C75 2.848 . S
N12 C4 1.362 1_554 S
N12 Eu11 2.657 1_554 S
N12 C13 1.334 . S
C13 N12 1.334 . S
C13 C15 1.413 . S
C13 H20 0.929 . S
C14 C2 1.392 1_554 S
C14 C15 1.367 . S
C14 H22 0.930 . S
C15 C13 1.413 . S
C15 C14 1.367 . S
C15 H17 0.930 . S
H16 C9 0.930 . S
H17 C15 0.930 . S
H18 C6 0.930 . S
H19 C7 0.930 . S
H20 C13 0.929 . S
H21 C35 0.930 . S
H22 C14 0.930 . S
H23 C41 0.930 . S
H24 C32 0.929 . S
H25 C39 0.930 . S
H26 C3 0.931 . S
H27 C33 0.930 . S
H28 C66 0.930 . S
H29 C10 0.930 . S
H30 C65 0.931 . S
N31 Eu0 2.657 1_556 S
N31 C32 1.334 . S
N31 C36 1.362 1_556 S
C32 H24 0.929 . S
C32 N31 1.334 . S
C32 C35 1.413 . S
C33 H27 0.930 . S
C33 C34 1.392 1_556 S
C33 C35 1.367 . S
C34 C33 1.392 1_554 S
C34 C36 1.420 . S
C34 C66 1.423 . S
C35 H21 0.930 . S
C35 C32 1.413 . S
C35 C33 1.367 . S
C36 N31 1.362 1_554 S
C36 C34 1.420 . S
C36 C40 1.429 . S
H37 C42 0.930 . S
N38 Eu0 2.609 . S
N38 C40 1.377 . S
N38 C41 1.321 . S
C39 H25 0.930 . S
C39 C41 1.400 . S
C39 C42 1.386 . S
C40 C36 1.429 . S
C40 N38 1.377 . S
C40 C43 1.411 . S
C41 H23 0.930 . S
C41 N38 1.321 . S
C41 C39 1.400 . S
C42 H37 0.930 . S
C42 C39 1.386 . S
C42 C43 1.395 . S
C43 C40 1.411 . S
C43 C42 1.395 . S
C43 C65 1.420 . S
O44 Eu0 2.558 . S
O44 C64 1.257 . S
O45 Eu0 2.612 1_666 S
O45 Eu11 2.380 . S
O45 C56 1.276 1_566 S
O46 Eu11 2.432 1_455 S
O46 C63 1.264 . S
O47 Eu0 2.339 1_556 S
O47 C63 1.254 1_545 S
O48 Eu0 2.563 1_655 S
O48 C56 1.235 . S
O49 Eu0 2.419 . S
O49 C64 1.249 . S
O50 Eu11 2.558 . S
O50 C75 1.257 . S
O51 Eu0 2.380 . S
O51 Eu11 2.612 1_444 S
O51 C67 1.276 1_544 S
O52 Eu0 2.432 1_655 S
O52 C74 1.264 . S
O53 Eu11 2.339 1_554 S
O53 C74 1.254 1_565 S
O54 Eu11 2.563 1_455 S
O54 C67 1.235 . S
O55 Eu11 2.419 . S
O55 C75 1.249 . S
C56 O45 1.276 1_544 S
C56 O48 1.235 . S
C57 C59 1.393 . S
C57 C61 1.395 . S
C57 C64 1.492 . S
C58 C59 1.392 . S
C58 C60 1.386 . S
C59 C57 1.393 . S
C59 C58 1.392 . S
C59 H76 0.930 1_554 S
C60 C58 1.386 . S
C60 C62 1.395 . S
C60 H77 0.930 . S
C61 C57 1.395 . S
C61 C62 1.379 . S
C61 H78 0.930 . S
C62 C60 1.395 . S
C62 C61 1.379 . S
C62 H79 0.930 . S
C63 O46 1.264 . S
C63 O47 1.254 1_565 S
C64 Eu0 2.848 . S
C64 O44 1.257 . S
C64 O49 1.249 . S
C64 C57 1.492 . S
C65 H30 0.931 . S
C65 C43 1.420 . S
C65 C66 1.351 . S
C66 H28 0.930 . S
C66 C34 1.423 . S
C66 C65 1.351 . S
C67 O51 1.276 1_566 S
C67 O54 1.235 . S
C68 C69 1.393 . S
C68 C72 1.395 . S
C68 C75 1.492 . S
C69 C68 1.393 . S
C69 C70 1.392 . S
C69 H80 0.930 1_556 S
C70 C69 1.392 . S
C70 C71 1.386 . S
C71 C70 1.386 . S
C71 C73 1.395 . S
C71 H81 0.930 . S
C72 C68 1.395 . S
C72 C73 1.379 . S
C72 H82 0.930 . S
C73 C71 1.395 . S
C73 C72 1.379 . S
C73 H83 0.930 . S
C74 O52 1.264 . S
C74 O53 1.254 1_545 S
C75 Eu11 2.848 . S
C75 O50 1.257 . S
C75 O55 1.249 . S
C75 C68 1.492 . S
H76 C59 0.930 1_556 S
H77 C60 0.930 . S
H78 C61 0.930 . S
H79 C62 0.930 . S
H80 C69 0.930 1_554 S
H81 C71 0.930 . S
H82 C72 0.930 . S
H83 C73 0.930 . S
C84 C85 1.170 . S
C84 C86 1.380 . S
C85 C84 1.170 . S
C86 C84 1.380 . S
C86 C87 1.173 . S
C87 C86 1.173 . S
C88 C89 1.170 . S
C88 C90 1.380 . S
C89 C88 1.170 . S
C90 C88 1.380 . S
C90 C91 1.170 . S
C91 C90 1.170 . S
C92 C93 1.170 . S
C92 C94 1.380 . S
C93 C92 1.170 . S
C94 C92 1.380 . S
C94 C95 1.170 . S
C95 C94 1.170 . S
C85 C74 1.480 1_455 S
C87 C63 1.453 1_545 S
C89 C67 1.456 1_544 S
C91 C56 1.415 . S
C93 C70 1.358 1_454 S
C95 C58 1.296 . S
