# Generated by pormake.
# Topology bnn, (5)-cn, num edge types: 1
# Building blocks:
#     Node 0, Type 0, BuildingBlock: XOMCOT_clean_sbu_0, # of connection points: 5
#     Node 1, Type 0, BuildingBlock: XOMCOT_clean_sbu_0, # of connection points: 5
#     Edge 2, Type (0, 0), None
#     Edge 3, Type (0, 0), None
#     Edge 4, Type (0, 0), None
#     Edge 5, Type (0, 0), None
#     Edge 6, Type (0, 0), None
# Relax obj value: 0.024
# Max RMSD: 0.076
# Mean RMSD: 0.076
data_MOF--net-bnn--node1-XOMCOT_clean_sbu_0--edge1-none
_symmetry_space_group_name_H-M    P1
_symmetry_Int_Tables_number       1
_symmetry_cell_setting            triclinic
loop_
_symmetry_equiv_pos_as_xyz
'x, y, z'
_cell_length_a     15.472905
_cell_length_b     13.026483
_cell_length_c     9.5111154
_cell_angle_alpha  99.312606
_cell_angle_beta   90.000687
_cell_angle_gamma 126.44755
loop_
_atom_site_label
_atom_site_type_symbol
_atom_site_fract_x
_atom_site_fract_y
_atom_site_fract_z
_atom_type_partial_charge
Co0 Co 0.32514 0.72176 0.05803 0.0
C1 C 0.30788 0.67847 0.35755 0.0
C2 C 0.3186 0.8476 0.33874 0.0
C3 C 0.31439 0.83763 0.48121 0.0
N4 N 0.31507 0.74826 0.2617 0.0
N5 N 0.30786 0.73142 0.49156 0.0
H6 H 0.30438 0.59234 0.33152 0.0
H7 H 0.32664 0.92407 0.29475 0.0
C8 C 0.51734 0.98892 1.01341 0.0
O9 O 0.50801 0.94892 0.87498 0.0
N10 N 0.33284 0.69388 0.85219 0.0
C11 C 0.35969 0.62114 0.77676 0.0
C12 C 0.35033 0.62203 0.6334 0.0
C13 C 0.30474 0.73536 0.75209 0.0
N14 N 0.31651 0.6943 0.61894 0.0
C15 C 0.35541 0.52953 0.08764 0.0
C16 C 0.5781 0.68581 0.09749 0.0
C17 C 0.52199 0.5519 0.08996 0.0
C18 C 0.40956 0.47416 0.08891 0.0
C19 C 0.52088 0.73783 0.09705 0.0
N20 N 0.41033 0.65937 0.0884 0.0
H21 H 0.26839 0.46626 0.08157 0.0
H22 H 0.56661 0.84027 0.09841 0.0
H23 H 0.38522 0.57062 0.8206 0.0
H24 H 0.27957 0.79733 0.77648 0.0
O25 O 0.18089 0.55822 0.02633 0.0
O26 O 0.21855 0.75077 0.02612 0.0
O27 O 0.45711 0.91039 0.09434 0.0
C28 C 0.14576 0.62595 1.01431 0.0
H29 H 0.32044 0.90574 0.57023 0.0
H30 H 0.36992 0.57637 0.54747 0.0
H31 H 0.66525 0.74953 0.09927 0.0
H32 H 0.36294 0.37026 0.08385 0.0
Co33 Co 0.66223 0.39605 0.02981 0.0
C34 C 0.68826 0.43932 0.73028 0.0
C35 C 0.52982 0.27013 0.74909 0.0
C36 C 0.5356 0.28009 0.60661 0.0
N37 N 0.62566 0.36952 0.82613 0.0
N38 N 0.63529 0.38634 0.59627 0.0
H39 H 0.7709 0.52549 0.75632 0.0
H40 H 0.46139 0.19364 0.79307 0.0
C41 C 0.58736 0.12893 0.07445 0.0
O42 O 0.61814 0.16895 0.21285 0.0
N43 N 0.69782 0.42394 0.23564 0.0
C44 C 0.79743 0.49679 0.3111 0.0
C45 C 0.78718 0.49588 0.45446 0.0
C46 C 0.62822 0.38237 0.33573 0.0
N47 N 0.68106 0.42348 0.46889 0.0
C48 C 0.8848 0.58828 1.00019 0.0
C49 C 0.95115 0.432 0.99033 0.0
C50 C 1.029 0.56591 0.99786 0.0
C51 C 0.99433 0.64365 0.99891 0.0
C52 C 0.8419 0.37998 0.99078 0.0
N53 N 0.80983 0.45844 0.99944 0.0
H54 H 0.86106 0.65154 1.00626 0.0
H55 H 0.78517 0.27754 0.9894 0.0
H56 H 0.8735 0.54741 0.26728 0.0
H57 H 0.54106 0.3203 0.31131 0.0
O58 O 0.68158 0.55959 0.06147 0.0
O59 O 0.52663 0.36704 0.06171 0.0
O60 O 0.60553 0.20742 0.99354 0.0
C61 C 0.57869 0.49186 0.07349 0.0
H62 H 0.47352 0.21195 0.51759 0.0
H63 H 0.85245 0.54163 0.5404 0.0
H64 H 0.97457 0.36828 0.98853 0.0
H65 H 0.05164 0.74755 1.00396 0.0
loop_
_geom_bond_atom_site_label_1
_geom_bond_atom_site_label_2
_geom_bond_distance
_geom_bond_site_symmetry_2
_ccdc_geom_bond_type
Co0 N4 2.148 . S
Co0 N10 2.128 1_554 S
Co0 N20 2.194 . S
Co0 O25 2.351 . S
Co0 O26 2.155 . S
Co0 O27 2.096 . S
C1 N4 1.301 . S
C1 N5 1.328 . S
C1 H6 0.930 . S
C2 C3 1.333 . S
C2 N4 1.317 . S
C2 H7 0.930 . S
C3 C2 1.333 . S
C3 N5 1.350 . S
C3 H29 0.931 . S
N4 Co0 2.148 . S
N4 C1 1.301 . S
N4 C2 1.317 . S
N5 C1 1.328 . S
N5 C3 1.350 . S
H6 C1 0.930 . S
H7 C2 0.930 . S
C8 O9 1.224 . S
C8 O27 1.247 . S
O9 C8 1.224 . S
N10 Co0 2.128 1_556 S
N10 C11 1.355 . S
N10 C13 1.311 . S
C11 N10 1.355 . S
C11 C12 1.363 . S
C11 H23 0.929 . S
C12 C11 1.363 . S
C12 N14 1.375 . S
C12 H30 0.931 . S
C13 N10 1.311 . S
C13 N14 1.347 . S
C13 H24 0.929 . S
N14 C12 1.375 . S
N14 C13 1.347 . S
C15 C18 1.365 . S
C15 N20 1.328 . S
C15 H21 0.929 . S
C16 C17 1.362 . S
C16 C19 1.378 . S
C16 H31 0.929 . S
C17 C16 1.362 . S
C17 C18 1.366 . S
C18 C15 1.365 . S
C18 C17 1.366 . S
C18 H32 0.930 . S
C19 C16 1.378 . S
C19 N20 1.315 . S
C19 H22 0.930 . S
N20 Co0 2.194 . S
N20 C15 1.328 . S
N20 C19 1.315 . S
H21 C15 0.929 . S
H22 C19 0.930 . S
H23 C11 0.929 . S
H24 C13 0.929 . S
O25 Co0 2.351 . S
O25 C28 1.244 . S
O26 Co0 2.155 . S
O26 C28 1.240 . S
O27 Co0 2.096 . S
O27 C8 1.247 . S
C28 O25 1.244 . S
C28 O26 1.240 . S
H29 C3 0.931 . S
H30 C12 0.931 . S
H31 C16 0.929 . S
H32 C18 0.930 . S
Co33 N37 2.148 1_554 S
Co33 N43 2.128 . S
Co33 N53 2.194 . S
Co33 O58 2.351 . S
Co33 O59 2.155 . S
Co33 O60 2.096 . S
C34 N37 1.301 . S
C34 N38 1.328 . S
C34 H39 0.930 . S
C35 C36 1.333 . S
C35 N37 1.317 . S
C35 H40 0.930 . S
C36 C35 1.333 . S
C36 N38 1.350 . S
C36 H62 0.931 . S
N37 Co33 2.148 1_556 S
N37 C34 1.301 . S
N37 C35 1.317 . S
N38 C34 1.328 . S
N38 C36 1.350 . S
H39 C34 0.930 . S
H40 C35 0.930 . S
C41 O42 1.224 . S
C41 O60 1.247 . S
O42 C41 1.224 . S
N43 Co33 2.128 . S
N43 C44 1.355 . S
N43 C46 1.311 . S
C44 N43 1.355 . S
C44 C45 1.363 . S
C44 H56 0.929 . S
C45 C44 1.363 . S
C45 N47 1.375 . S
C45 H63 0.931 . S
C46 N43 1.311 . S
C46 N47 1.347 . S
C46 H57 0.929 . S
N47 C45 1.375 . S
N47 C46 1.347 . S
C48 C51 1.366 1_556 S
C48 N53 1.326 1_556 S
C48 H54 0.932 . S
C49 C50 1.362 . S
C49 C52 1.378 . S
C49 H64 0.929 . S
C50 C49 1.362 . S
C50 C51 1.366 . S
C51 C48 1.366 1_554 S
C51 C50 1.366 . S
C51 H65 0.930 . S
C52 C49 1.378 . S
C52 N53 1.315 . S
C52 H55 0.930 . S
N53 Co33 2.194 . S
N53 C48 1.326 1_554 S
N53 C52 1.315 . S
H54 C48 0.932 . S
H55 C52 0.930 . S
H56 C44 0.929 . S
H57 C46 0.929 . S
O58 Co33 2.351 . S
O58 C61 1.244 . S
O59 Co33 2.155 . S
O59 C61 1.240 . S
O60 Co33 2.096 . S
O60 C41 1.247 . S
C61 O58 1.244 . S
C61 O59 1.240 . S
H62 C36 0.931 . S
H63 C45 0.931 . S
H64 C49 0.929 . S
H65 C51 0.930 . S
C17 C61 1.493 . S
C50 C28 1.493 1_655 S
C8 C41 1.502 1_565 S
N14 N5 1.552 . S
N47 N38 1.552 . S
