# Generated by pormake.
# Topology hex, (8)-cn, num edge types: 1
# Building blocks:
#     Node 0, Type 0, BuildingBlock: TAGTUT_clean_sbu_1, # of connection points: 8
#     Edge 1, Type (0, 0), BuildingBlock: XIVTED_clean_linker_0, # of connection points: 2
#     Edge 2, Type (0, 0), BuildingBlock: XIVTED_clean_linker_0, # of connection points: 2
#     Edge 3, Type (0, 0), BuildingBlock: XIVTED_clean_linker_0, # of connection points: 2
#     Edge 4, Type (0, 0), BuildingBlock: XIVTED_clean_linker_0, # of connection points: 2
# Relax obj value: 0.054
# Max RMSD: 0.157
# Mean RMSD: 0.157
data_MOF--net-hex--node1-TAGTUT_clean_sbu_1--edge1-XIVTED_clean_linker_0
_symmetry_space_group_name_H-M    P1
_symmetry_Int_Tables_number       1
_symmetry_cell_setting            triclinic
loop_
_symmetry_equiv_pos_as_xyz
'x, y, z'
_cell_length_a     18.634639
_cell_length_b     20.381492
_cell_length_c     16.09292
_cell_angle_alpha  85.589276
_cell_angle_beta   101.82706
_cell_angle_gamma 132.14991
loop_
_atom_site_label
_atom_site_type_symbol
_atom_site_fract_x
_atom_site_fract_y
_atom_site_fract_z
_atom_type_partial_charge
C0 C 0.91986 0.22236 0.98325 0.0
C1 C 0.70821 0.95725 0.01902 0.0
C2 C 0.018 0.98963 0.19291 0.0
Mg3 Mg 0.8426 0.05069 0.89324 0.0
O4 O 0.94691 0.07746 0.97415 0.0
Mg5 Mg 0.95748 0.10002 0.09662 0.0
Mg6 Mg -0.03071 -0.00514 -0.01485 0.0
O7 O -0.0084 0.91224 -0.00379 0.0
Mg8 Mg 0.09533 0.9383 0.07742 0.0
Mg9 Mg -0.01901 0.88952 0.87386 0.0
C10 C 0.92006 -0.00044 0.77752 0.0
C11 C 0.76517 0.79285 0.91359 0.0
O12 O 0.94955 0.20452 0.0528 0.0
O13 O 0.87892 0.17368 0.91313 0.0
O14 O 0.7852 0.00364 0.07972 0.0
O15 O 0.7146 0.95063 0.94323 0.0
O16 O 0.86873 0.01946 0.78323 0.0
O17 O 0.96778 -0.0053 0.84381 0.0
C18 C 0.17332 0.19692 0.05667 0.0
O19 O 0.13381 0.12599 0.01246 0.0
O20 O 0.12342 0.19956 0.09828 0.0
O21 O -0.01165 0.78466 0.9177 0.0
O22 O 0.05838 0.81505 0.05748 0.0
O23 O 0.15331 0.98567 0.89104 0.0
C24 C 0.01756 0.7665 -0.01271 0.0
O25 O 0.22367 0.03809 0.02773 0.0
O26 O 0.06904 0.96937 0.18742 0.0
C27 C 0.23019 0.03176 0.9519 0.0
O28 O -0.02891 -0.00486 0.12645 0.0
O29 O 0.80477 0.86377 0.95787 0.0
O30 O 0.81502 0.79018 0.87196 0.0
H31 H 0.0026 0.34112 0.11926 0.0
H32 H 0.93437 0.64756 0.85129 0.0
H33 H 0.86968 0.28595 0.85071 0.0
H34 H 0.06724 0.70259 0.11985 0.0
H35 H 0.91004 0.51461 0.84999 0.0
H36 H 0.02649 0.47381 0.12059 0.0
C37 C -0.02161 0.35684 0.06049 0.0
C38 C 0.93413 0.30241 0.98464 0.0
C39 C 0.94449 0.55577 0.90919 0.0
C40 C 0.96138 0.45421 -0.01406 0.0
C41 C 0.95847 0.63175 0.91007 0.0
C42 C 0.00288 0.68623 -0.01409 0.0
C43 C -0.02487 0.53418 0.98463 0.0
C44 C 0.03265 0.66246 0.05998 0.0
C45 C -0.00789 0.43268 0.06138 0.0
C46 C 0.90418 0.32606 0.91058 0.0
N47 N 0.01816 0.58798 0.05746 0.0
N48 N 0.91845 0.40044 0.9131 0.0
H49 H 0.52431 0.85068 0.91417 0.0
H50 H 0.41408 0.13838 0.05675 0.0
H51 H 0.69689 0.04051 0.13461 0.0
H52 H 0.2416 0.94865 0.83622 0.0
H53 H 0.52397 0.10929 0.08174 0.0
H54 H 0.41448 0.87984 0.88912 0.0
C55 C 0.53726 0.89624 0.95909 0.0
C56 C 0.62114 0.94406 0.02592 0.0
C57 C 0.46292 0.07496 0.02713 0.0
C58 C 0.49758 0.98032 -0.00439 0.0
C59 C 0.40118 0.09287 0.01179 0.0
C60 C 0.3173 0.04505 0.94495 0.0
C61 C 0.44092 0.00886 0.97521 0.0
C62 C 0.3048 0.987 0.88881 0.0
C63 C 0.47555 0.91419 0.94372 0.0
C64 C 0.63369 0.00216 0.08202 0.0
N65 N 0.36466 0.96928 0.90617 0.0
N66 N 0.57385 0.01991 0.06464 0.0
H67 H 0.28971 0.22992 0.94842 0.0
H68 H 0.64884 0.75989 0.02189 0.0
H69 H 0.27761 0.36141 0.1357 0.0
H70 H 0.66075 0.62838 0.83447 0.0
H71 H 0.5096 0.61451 0.06152 0.0
H72 H 0.42891 0.37531 0.90877 0.0
C73 C 0.31735 0.28912 0.98249 0.0
C74 C 0.27105 0.28282 0.04541 0.0
C75 C 0.54219 0.61749 0.01121 0.0
C76 C 0.4294 0.45011 -0.00141 0.0
C77 C 0.62114 0.70069 -0.01222 0.0
C78 C 0.66741 0.70698 0.92483 0.0
C79 C 0.50902 0.53969 0.97163 0.0
C80 C 0.62806 0.62734 0.88352 0.0
C81 C 0.39629 0.37232 0.95905 0.0
C82 C 0.31033 0.36245 0.08668 0.0
N83 N 0.55201 0.54738 0.90808 0.0
N84 N 0.38637 0.44242 0.06211 0.0
H85 H 0.04723 0.98872 0.73465 0.0
H86 H 0.89044 0.00017 0.23546 0.0
H87 H 0.81475 0.98794 0.62475 0.0
H88 H 0.12347 0.00179 0.34576 0.0
H89 H 0.86357 -0.00129 0.37824 0.0
H90 H 0.07399 0.99026 0.59186 0.0
C91 C 0.00099 0.9877 0.68054 0.0
C92 C 0.92902 0.98863 0.69176 0.0
C93 C 0.92091 -0.00017 0.3711 0.0
C94 C 0.96023 0.9919 0.52855 0.0
C95 C 0.93678 0.00141 0.28965 0.0
C96 C 0.00893 0.00068 0.27857 0.0
C97 C -0.02239 -0.00253 0.4417 0.0
C98 C 0.06646 0.00173 0.35114 0.0
C99 C 0.0168 0.98932 0.59907 0.0
C100 C 0.87161 0.98783 0.61926 0.0
N101 N 0.0492 -0.00039 0.42952 0.0
N102 N 0.88881 0.98997 0.54083 0.0
loop_
_geom_bond_atom_site_label_1
_geom_bond_atom_site_label_2
_geom_bond_distance
_geom_bond_site_symmetry_2
_ccdc_geom_bond_type
C0 O12 1.241 1_556 S
C0 O13 1.280 . S
C1 O14 1.277 . S
C1 O15 1.245 1_544 S
C2 O26 1.247 . S
C2 O28 1.292 . S
Mg3 O4 1.926 . S
Mg3 O13 1.984 . S
Mg3 O15 1.988 1_545 S
Mg3 O16 2.062 . S
O4 Mg3 1.926 . S
O4 Mg5 1.986 1_556 S
O4 Mg6 1.917 1_656 S
Mg5 O4 1.986 1_554 S
Mg5 O12 2.042 . S
Mg5 O14 2.041 . S
Mg5 O20 2.038 1_655 S
Mg5 O28 2.234 1_655 S
Mg6 O4 1.917 1_454 S
Mg6 O7 1.917 1_545 S
Mg6 O17 2.108 1_444 S
Mg6 O19 2.079 . S
Mg6 O28 2.109 . S
Mg6 O29 2.079 1_444 S
O7 Mg6 1.917 1_565 S
O7 Mg8 1.926 . S
O7 Mg9 1.986 1_554 S
Mg8 O7 1.926 . S
Mg8 O22 1.984 . S
Mg8 O25 1.988 1_565 S
Mg8 O26 2.062 1_565 S
Mg9 O7 1.986 1_556 S
Mg9 O17 2.236 1_455 S
Mg9 O21 2.042 . S
Mg9 O23 2.041 . S
Mg9 O30 2.038 1_455 S
C10 O16 1.247 1_565 S
C10 O17 1.290 . S
C11 O29 1.245 . S
C11 O30 1.274 . S
O12 C0 1.241 1_554 S
O12 Mg5 2.042 . S
O13 C0 1.280 . S
O13 Mg3 1.984 . S
O14 C1 1.277 . S
O14 Mg5 2.041 . S
O15 C1 1.245 1_566 S
O15 Mg3 1.988 1_565 S
O16 Mg3 2.062 . S
O16 C10 1.247 1_545 S
O17 Mg6 2.108 1_666 S
O17 Mg9 2.236 1_655 S
O17 C10 1.290 . S
C18 O19 1.245 . S
C18 O20 1.274 . S
O19 Mg6 2.079 . S
O19 C18 1.245 . S
O20 Mg5 2.038 1_455 S
O20 C18 1.274 . S
O21 Mg9 2.042 . S
O21 C24 1.241 1_556 S
O22 Mg8 1.984 . S
O22 C24 1.280 . S
O23 Mg9 2.041 . S
O23 C27 1.277 . S
C24 O21 1.241 1_554 S
C24 O22 1.280 . S
O25 Mg8 1.988 1_545 S
O25 C27 1.245 1_544 S
O26 C2 1.247 . S
O26 Mg8 2.062 1_545 S
C27 O23 1.277 . S
C27 O25 1.245 1_566 S
O28 C2 1.292 . S
O28 Mg5 2.234 1_455 S
O28 Mg6 2.109 . S
O29 Mg6 2.079 1_666 S
O29 C11 1.245 . S
O30 Mg9 2.038 1_655 S
O30 C11 1.274 . S
H31 C37 0.930 . S
H32 C41 0.930 . S
H33 C46 0.929 . S
H34 C44 0.929 . S
H35 C39 0.929 . S
H36 C45 0.929 . S
C37 H31 0.930 . S
C37 C38 1.371 . S
C37 C45 1.378 . S
C38 C37 1.371 . S
C38 C46 1.432 1_655 S
C39 H35 0.929 . S
C39 C41 1.378 . S
C39 C43 1.350 . S
C40 C43 1.463 1_656 S
C40 C45 1.350 . S
C40 N48 1.427 1_655 S
C41 H32 0.930 . S
C41 C39 1.378 . S
C41 C42 1.375 . S
C42 C41 1.375 . S
C42 C44 1.430 1_455 S
C43 C39 1.350 . S
C43 C40 1.463 1_454 S
C43 N47 1.427 1_455 S
C44 H34 0.929 . S
C44 C42 1.430 1_655 S
C44 N47 1.384 . S
C45 H36 0.929 . S
C45 C37 1.378 . S
C45 C40 1.350 . S
C46 H33 0.929 . S
C46 C38 1.432 1_455 S
C46 N48 1.384 . S
N47 C43 1.427 1_655 S
N47 C44 1.384 . S
N48 C40 1.427 1_455 S
N48 C46 1.384 . S
H49 C55 0.930 . S
H50 C59 0.930 . S
H51 C64 0.929 . S
H52 C62 0.929 . S
H53 C57 0.929 . S
H54 C63 0.929 . S
C55 H49 0.930 . S
C55 C56 1.367 1_556 S
C55 C63 1.378 . S
C56 C55 1.367 1_554 S
C56 C64 1.433 1_565 S
C57 H53 0.929 . S
C57 C59 1.378 . S
C57 C61 1.350 1_554 S
C58 C61 1.463 1_564 S
C58 C63 1.350 1_554 S
C58 N66 1.427 1_565 S
C59 H50 0.930 . S
C59 C57 1.378 . S
C59 C60 1.367 1_554 S
C60 C59 1.367 1_556 S
C60 C62 1.433 1_545 S
C61 C57 1.350 1_556 S
C61 C58 1.463 1_546 S
C61 N65 1.427 1_545 S
C62 H52 0.929 . S
C62 C60 1.433 1_565 S
C62 N65 1.384 . S
C63 H54 0.929 . S
C63 C55 1.378 . S
C63 C58 1.350 1_556 S
C64 H51 0.929 . S
C64 C56 1.433 1_545 S
C64 N66 1.384 . S
N65 C61 1.427 1_565 S
N65 C62 1.384 . S
N66 C58 1.427 1_545 S
N66 C64 1.384 . S
H67 C73 0.930 . S
H68 C77 0.930 . S
H69 C82 0.929 . S
H70 C80 0.929 . S
H71 C75 0.929 . S
H72 C81 0.929 . S
C73 H67 0.930 . S
C73 C74 1.367 1_556 S
C73 C81 1.378 . S
C74 C73 1.367 1_554 S
C74 C82 1.433 . S
C75 H71 0.929 . S
C75 C77 1.378 . S
C75 C79 1.350 1_554 S
C76 C79 1.463 1_554 S
C76 C81 1.350 1_554 S
C76 N84 1.427 . S
C77 H68 0.930 . S
C77 C75 1.378 . S
C77 C78 1.367 1_554 S
C78 C77 1.367 1_556 S
C78 C80 1.433 . S
C79 C75 1.350 1_556 S
C79 C76 1.463 1_556 S
C79 N83 1.427 . S
C80 H70 0.929 . S
C80 C78 1.433 . S
C80 N83 1.384 . S
C81 H72 0.929 . S
C81 C73 1.378 . S
C81 C76 1.350 1_556 S
C82 H69 0.929 . S
C82 C74 1.433 . S
C82 N84 1.384 . S
N83 C79 1.427 . S
N83 C80 1.384 . S
N84 C76 1.427 . S
N84 C82 1.384 . S
H85 C91 0.930 . S
H86 C95 0.930 . S
H87 C100 0.929 . S
H88 C98 0.929 . S
H89 C93 0.929 . S
H90 C99 0.929 . S
C91 H85 0.930 . S
C91 C92 1.367 1_445 S
C91 C99 1.378 . S
C92 C91 1.367 1_665 S
C92 C100 1.433 . S
C93 H89 0.929 . S
C93 C95 1.378 . S
C93 C97 1.350 . S
C94 C97 1.463 1_445 S
C94 C99 1.350 . S
C94 N102 1.427 1_445 S
C95 H86 0.930 . S
C95 C93 1.378 . S
C95 C96 1.367 1_665 S
C96 C95 1.367 1_445 S
C96 C98 1.433 . S
C97 C93 1.350 . S
C97 C94 1.463 1_665 S
C97 N101 1.427 1_665 S
C98 H88 0.929 . S
C98 C96 1.433 . S
C98 N101 1.384 . S
C99 H90 0.929 . S
C99 C91 1.378 . S
C99 C94 1.350 . S
C100 H87 0.929 . S
C100 C92 1.433 . S
C100 N102 1.384 . S
N101 C97 1.427 1_445 S
N101 C98 1.384 . S
N102 C94 1.427 1_665 S
N102 C100 1.384 . S
C38 C0 1.288 . S
C42 C24 1.287 . S
C56 C1 1.279 1_565 S
C60 C27 1.279 1_545 S
C74 C18 1.864 . S
C78 C11 1.864 . S
C92 C10 1.465 . S
C96 C2 1.465 . S
