# Generated by pormake.
# Topology hex, (8)-cn, num edge types: 1
# Building blocks:
#     Node 0, Type 0, BuildingBlock: XADDAJ01_clean_sbu_3, # of connection points: 8
#     Edge 1, Type (0, 0), BuildingBlock: MIFKUJ_clean_linker_0, # of connection points: 2
#     Edge 2, Type (0, 0), BuildingBlock: MIFKUJ_clean_linker_0, # of connection points: 2
#     Edge 3, Type (0, 0), BuildingBlock: MIFKUJ_clean_linker_0, # of connection points: 2
#     Edge 4, Type (0, 0), BuildingBlock: MIFKUJ_clean_linker_0, # of connection points: 2
# Relax obj value: 0.037
# Max RMSD: 0.102
# Mean RMSD: 0.102
data_MOF--net-hex--node1-XADDAJ01_clean_sbu_3--edge1-MIFKUJ_clean_linker_0
_symmetry_space_group_name_H-M    P1
_symmetry_Int_Tables_number       1
_symmetry_cell_setting            triclinic
loop_
_symmetry_equiv_pos_as_xyz
'x, y, z'
_cell_length_a     27.624462
_cell_length_b     21.362925
_cell_length_c     19.030533
_cell_angle_alpha  113.88821
_cell_angle_beta   99.320947
_cell_angle_gamma 110.86702
loop_
_atom_site_label
_atom_site_type_symbol
_atom_site_fract_x
_atom_site_fract_y
_atom_site_fract_z
_atom_type_partial_charge
C0 C 0.78903 0.85523 0.9435 0.0
C1 C 0.76142 0.79372 0.95724 0.0
C2 C 0.71753 0.79013 0.98668 0.0
C3 C 0.70149 0.84802 0.00219 0.0
C4 C 0.72614 0.90688 0.9849 0.0
C5 C 0.76978 0.91041 0.95527 0.0
O6 O 0.9686 0.01005 0.09137 0.0
Tb7 Tb 0.93823 0.91217 0.96833 0.0
Tb8 Tb 0.08232 0.09279 0.05682 0.0
O9 O 0.95751 0.83362 0.9975 0.0
O10 O 0.06259 0.05856 0.14555 0.0
O11 O 0.85917 0.81786 0.91895 0.0
C12 C 0.17129 0.09367 0.04411 0.0
O13 O 0.87055 0.92726 0.92611 0.0
O14 O 0.02119 0.04767 0.93852 0.0
O15 O 0.97598 0.91546 0.87723 0.0
C16 C 0.83493 0.85884 0.91123 0.0
C17 C 0.04015 0.21082 0.08154 0.0
O18 O 0.99267 0.14851 0.05296 0.0
C19 C 0.01308 0.0299 0.14946 0.0
C20 C 1.00351 0.97876 0.87516 0.0
O21 O 0.08643 0.20563 0.09465 0.0
C22 C 0.20992 0.10475 0.99975 0.0
C23 C 0.27512 0.067 0.94489 0.0
C24 C 0.23433 0.05532 0.98013 0.0
C25 C 0.22782 0.16782 0.98553 0.0
C26 C 0.26853 0.17932 0.94948 0.0
C27 C 0.29065 0.12751 0.92781 0.0
C28 C 0.00829 0.84354 0.02196 0.0
O29 O 0.05007 0.9046 0.03202 0.0
O30 O 0.1685 0.15506 0.09514 0.0
O31 O 0.12293 0.03066 0.00302 0.0
H32 H 0.77335 0.74822 0.94412 0.0
H33 H 0.66618 0.84369 0.02163 0.0
H34 H 0.78792 0.95519 0.94024 0.0
H35 H 0.22326 0.00967 0.99547 0.0
H36 H 0.2116 0.20883 0.00452 0.0
H37 H 0.3244 0.13892 0.90473 0.0
H38 H 0.12918 0.35553 0.15565 0.0
H39 H 0.13033 0.47033 0.15395 0.0
H40 H 0.95425 0.34138 0.01628 0.0
H41 H 0.95251 0.22722 0.01864 0.0
H42 H 0.01629 0.41797 0.94648 0.0
H43 H 0.99598 0.47028 0.20753 0.0
H44 H 0.02088 0.49054 0.34816 0.0
H45 H 0.17791 0.68381 0.42117 0.0
H46 H 0.15426 0.66395 0.28048 0.0
H47 H 0.93048 0.69776 0.9726 0.0
H48 H 0.94485 0.59698 0.9877 0.0
H49 H 0.12033 0.7522 0.11363 0.0
H50 H 0.10648 0.85375 0.09754 0.0
H51 H 0.06894 0.66893 0.19181 0.0
H52 H 0.08573 0.62169 0.93182 0.0
H53 H 0.05931 0.60143 0.79133 0.0
H54 H 0.90834 0.39801 0.71592 0.0
H55 H 0.9334 0.41778 0.85643 0.0
C56 C 0.09062 0.352 0.12594 0.0
C57 C 0.04074 0.28235 0.08744 0.0
C58 C 0.09135 0.41758 0.12509 0.0
C59 C 0.04236 0.41419 0.08496 0.0
C60 C 0.99249 0.34509 0.04751 0.0
C61 C 0.99157 0.28002 0.04933 0.0
C62 C 0.04308 0.4814 0.07868 0.0
C63 C 0.02741 0.47266 6e-05 0.0
C64 C 0.05914 0.55335 0.14883 0.0
C65 C 0.07369 0.56491 0.23317 0.0
C66 C 0.03611 0.51651 0.25329 0.0
C67 C 0.04992 0.52807 0.33308 0.0
C68 C 0.10104 0.58823 0.39349 0.0
C69 C 0.1384 0.63709 0.37425 0.0
C70 C 0.1248 0.62573 0.2945 0.0
C71 C 0.9722 0.71074 0.00359 0.0
C72 C 0.0174 0.78374 0.03373 0.0
C73 C 0.98033 0.65288 0.01177 0.0
C74 C 0.03366 0.66708 0.05126 0.0
C75 C 0.07888 0.74021 0.08277 0.0
C76 C 0.07089 0.79798 0.07342 0.0
C77 C 0.0414 0.60497 0.05953 0.0
C78 C 0.05857 0.61457 0.13836 0.0
C79 C 0.02668 0.53364 0.98954 0.0
C80 C 0.0112 0.52174 0.905 0.0
C81 C 0.0466 0.57311 0.88556 0.0
C82 C 0.03193 0.56161 0.80585 0.0
C83 C 0.9821 0.4986 0.7448 0.0
C84 C 0.94689 0.44687 0.76332 0.0
C85 C 0.96132 0.45818 0.84299 0.0
H86 H 0.97085 0.48975 0.68309 0.0
H87 H 0.11163 0.59714 0.45526 0.0
H88 H 0.71172 1.00231 0.1167 0.0
H89 H 0.63677 0.03769 0.10903 0.0
H90 H 0.59983 0.94904 0.84841 0.0
H91 H 0.67531 0.91438 0.85624 0.0
H92 H 0.57734 0.07461 0.9246 0.0
H93 H 0.53883 0.82813 0.90904 0.0
H94 H 0.55616 0.74576 0.95997 0.0
H95 H 0.53183 0.86871 0.18231 0.0
H96 H 0.51498 0.95235 0.13315 0.0
H97 H 0.29928 0.99254 0.81176 0.0
H98 H 0.37757 0.96367 0.81524 0.0
H99 H 0.41042 0.02959 0.0711 0.0
H100 H 0.33143 0.05666 0.06713 0.0
H101 H 0.43555 0.91581 0.99591 0.0
H102 H 0.47182 0.1601 0.0133 0.0
H103 H 0.45359 0.24339 0.96489 0.0
H104 H 0.48441 0.13058 0.74548 0.0
H105 H 0.50144 0.04521 0.79154 0.0
C106 C 0.68938 0.99407 0.05871 0.0
C107 C 0.69897 0.95554 0.98699 0.0
C108 C 0.64625 0.01348 0.05417 0.0
C109 C 0.6119 0.99391 0.97773 0.0
C110 C 0.6257 0.96408 0.90785 0.0
C111 C 0.6691 0.94492 0.91246 0.0
C112 C 0.55761 0.99384 0.96868 0.0
C113 C 0.54609 0.03942 0.93938 0.0
C114 C 0.51719 0.94849 0.98907 0.0
C115 C 0.5262 0.89703 0.01777 0.0
C116 C 0.53745 0.83784 0.96896 0.0
C117 C 0.54711 0.79086 0.99745 0.0
C118 C 0.54536 0.8023 0.07449 0.0
C119 C 0.53336 0.86013 0.12279 0.0
C120 C 0.52367 0.90724 0.09459 0.0
C121 C 0.32204 0.998 0.86775 0.0
C122 C 0.30961 0.02704 0.93926 0.0
C123 C 0.36701 0.9823 0.86997 0.0
C124 C 0.40081 0.99682 0.94414 0.0
C125 C 0.38518 0.01863 0.01341 0.0
C126 C 0.3398 0.03354 0.01096 0.0
C127 C 0.4551 0.99674 0.9519 0.0
C128 C 0.46667 0.95103 0.98098 0.0
C129 C 0.49566 0.04245 0.93188 0.0
C130 C 0.48724 0.09555 0.90542 0.0
C131 C 0.4744 0.15272 0.95449 0.0
C132 C 0.46424 0.20028 0.92745 0.0
C133 C 0.46757 0.19195 0.85196 0.0
C134 C 0.48161 0.13666 0.80376 0.0
C135 C 0.49147 0.08863 0.83027 0.0
H136 H 0.45919 0.22821 0.83066 0.0
H137 H 0.55329 0.76645 0.09687 0.0
H138 H 0.31799 0.32892 0.07512 0.0
H139 H 0.39186 0.43898 0.08065 0.0
H140 H 0.35988 0.2992 0.82302 0.0
H141 H 0.28571 0.18975 0.81708 0.0
H142 H 0.46682 0.35421 0.92437 0.0
H143 H 0.33959 0.4525 0.88578 0.0
H144 H 0.2712 0.49846 0.91555 0.0
H145 H 0.39086 0.6826 0.15424 0.0
H146 H 0.45972 0.6369 0.12659 0.0
H147 H 0.66456 0.63795 0.8668 0.0
H148 H 0.5862 0.53371 0.86229 0.0
H149 H 0.61035 0.68671 0.11253 0.0
H150 H 0.68821 0.79096 0.11674 0.0
H151 H 0.50668 0.62557 0.01568 0.0
H152 H 0.6323 0.52721 0.06038 0.0
H153 H 0.70126 0.48075 0.0367 0.0
H154 H 0.58634 0.29805 0.79429 0.0
H155 H 0.51716 0.34453 0.81581 0.0
C156 C 0.32483 0.32302 0.0188 0.0
C157 C 0.29626 0.25085 0.94571 0.0
C158 C 0.36743 0.38569 0.02217 0.0
C159 C 0.38184 0.37686 0.95247 0.0
C160 C 0.34969 0.30707 0.87762 0.0
C161 C 0.307 0.24484 0.8741 0.0
C162 C 0.43452 0.43568 0.95984 0.0
C163 C 0.47527 0.41331 0.94302 0.0
C164 C 0.44626 0.51347 0.98746 0.0
C165 C 0.40462 0.54051 0.00451 0.0
C166 C 0.35114 0.50216 0.94507 0.0
C167 C 0.31231 0.52833 0.96147 0.0
C168 C 0.32659 0.59322 0.03686 0.0
C169 C 0.37979 0.6322 0.09595 0.0
C170 C 0.41874 0.60617 0.07994 0.0
C171 C 0.6545 0.64825 0.92182 0.0
C172 C 0.68251 0.72236 0.99218 0.0
C173 C 0.60944 0.58884 0.91908 0.0
C174 C 0.59205 0.60249 0.98693 0.0
C175 C 0.62266 0.67494 0.05923 0.0
C176 C 0.66747 0.73422 0.06188 0.0
C177 C 0.53918 0.54416 0.98017 0.0
C178 C 0.49839 0.56656 0.99711 0.0
C179 C 0.52755 0.46649 0.95346 0.0
C180 C 0.5697 0.4398 0.93947 0.0
C181 C 0.62198 0.47772 0.00164 0.0
C182 C 0.66108 0.4513 0.98865 0.0
C183 C 0.64825 0.38662 0.91396 0.0
C184 C 0.5963 0.34827 0.85205 0.0
C185 C 0.55714 0.37467 0.86459 0.0
H186 H 0.67853 0.36611 0.90413 0.0
H187 H 0.29649 0.61344 0.04939 0.0
H188 H 0.08252 0.07834 0.85115 0.0
H189 H 0.08018 0.07974 0.72301 0.0
H190 H 0.92256 0.87181 0.59321 0.0
H191 H 0.92609 0.86838 0.72115 0.0
H192 H 0.98162 0.8661 0.49944 0.0
H193 H 0.93265 0.05596 0.65873 0.0
H194 H 0.94303 0.16806 0.7824 0.0
H195 H 0.09546 0.31364 0.77767 0.0
H196 H 0.08649 0.20214 0.65472 0.0
H197 H 0.92152 0.93591 0.16233 0.0
H198 H 0.91536 0.91986 0.28176 0.0
H199 H 0.08698 0.09146 0.41948 0.0
H200 H 0.09378 0.107 0.3005 0.0
H201 H 0.01159 0.11127 0.50415 0.0
H202 H 0.06109 0.91479 0.34892 0.0
H203 H 0.04967 0.79962 0.22807 0.0
H204 H 0.88956 0.66498 0.22318 0.0
H205 H 0.89996 0.77963 0.34404 0.0
C206 C 0.04767 0.03252 0.79501 0.0
C207 C 1.00422 0.9737 0.79591 0.0
C208 C 0.04616 0.03361 0.72198 0.0
C209 C 1.00035 0.97722 0.64895 0.0
C210 C 0.95807 0.9163 0.64897 0.0
C211 C 0.96013 0.91429 0.72193 0.0
C212 C 0.99626 0.98322 0.57341 0.0
C213 C 0.98719 0.9193 0.50019 0.0
C214 C 1.00392 0.05287 0.57441 0.0
C215 C 0.00907 0.12046 0.64776 0.0
C216 C 0.96855 0.11177 0.6843 0.0
C217 C 0.97417 0.17522 0.75428 0.0
C218 C 0.01992 0.24789 0.78795 0.0
C219 C 0.06006 0.2573 0.75155 0.0
C220 C 0.0547 0.194 0.68165 0.0
C221 C 0.95778 0.97057 0.21831 0.0
C222 C 0.0081 0.02289 0.22229 0.0
C223 C 0.95427 0.961 0.28613 0.0
C224 C 1.0008 0.00433 0.35906 0.0
C225 C 0.05068 0.05755 0.36361 0.0
C226 C 0.05448 0.06623 0.29559 0.0
C227 C 0.99787 0.9947 0.43115 0.0
C228 C 1.00544 0.05794 0.50353 0.0
C229 C 0.98803 0.92422 0.42903 0.0
C230 C 0.98103 0.85599 0.35489 0.0
C231 C 0.02315 0.86088 0.32145 0.0
C232 C 0.01693 0.7956 0.25308 0.0
C233 C 0.96882 0.72506 0.21773 0.0
C234 C 0.92677 0.71969 0.25056 0.0
C235 C 0.93284 0.78475 0.31906 0.0
H236 H 0.96422 0.6744 0.16528 0.0
H237 H 0.02423 0.2969 0.84218 0.0
loop_
_geom_bond_atom_site_label_1
_geom_bond_atom_site_label_2
_geom_bond_distance
_geom_bond_site_symmetry_2
_ccdc_geom_bond_type
C0 C1 1.386 . S
C0 C5 1.384 . S
C0 C16 1.497 . S
C1 C0 1.386 . S
C1 C2 1.393 1_556 S
C1 H32 0.932 . S
C2 C1 1.393 1_554 S
C2 C3 1.387 . S
C3 C2 1.387 . S
C3 C4 1.392 1_554 S
C3 H33 0.930 . S
C4 C3 1.392 1_556 S
C4 C5 1.402 . S
C5 C0 1.384 . S
C5 C4 1.402 . S
C5 H34 0.930 . S
O6 Tb7 2.288 1_554 S
O6 C19 1.257 1_665 S
Tb7 O6 2.288 1_556 S
Tb7 O9 2.303 . S
Tb7 O11 2.430 . S
Tb7 O13 2.459 . S
Tb7 O15 2.301 . S
Tb7 C16 2.808 . S
Tb8 O10 2.301 . S
Tb8 C12 2.808 . S
Tb8 O14 2.288 1_554 S
Tb8 O21 2.303 . S
Tb8 O30 2.430 . S
Tb8 O31 2.459 . S
O9 Tb7 2.303 . S
O9 C28 1.255 1_655 S
O10 Tb8 2.301 . S
O10 C19 1.237 . S
O11 Tb7 2.430 . S
O11 C16 1.248 . S
C12 Tb8 2.808 . S
C12 C22 1.497 . S
C12 O30 1.248 . S
C12 O31 1.260 . S
O13 Tb7 2.459 . S
O13 C16 1.260 . S
O14 Tb8 2.288 1_556 S
O14 C20 1.257 1_445 S
O15 Tb7 2.301 . S
O15 C20 1.237 . S
C16 C0 1.497 . S
C16 Tb7 2.808 . S
C16 O11 1.248 . S
C16 O13 1.260 . S
C17 O18 1.255 . S
C17 O21 1.255 1_655 S
O18 C17 1.255 . S
C19 O6 1.257 1_445 S
C19 O10 1.237 . S
C20 O14 1.257 1_665 S
C20 O15 1.237 . S
O21 Tb8 2.303 . S
O21 C17 1.255 1_455 S
C22 C12 1.497 . S
C22 C24 1.384 . S
C22 C25 1.386 . S
C23 C24 1.402 . S
C23 C27 1.392 1_554 S
C24 C22 1.384 . S
C24 C23 1.402 . S
C24 H35 0.930 . S
C25 C22 1.386 . S
C25 C26 1.393 1_554 S
C25 H36 0.932 . S
C26 C25 1.393 1_556 S
C26 C27 1.387 . S
C27 C23 1.392 1_556 S
C27 C26 1.387 . S
C27 H37 0.930 . S
C28 O9 1.255 1_455 S
C28 O29 1.255 . S
O29 C28 1.255 . S
O30 Tb8 2.430 . S
O30 C12 1.248 . S
O31 Tb8 2.459 . S
O31 C12 1.260 . S
H32 C1 0.932 . S
H33 C3 0.930 . S
H34 C5 0.930 . S
H35 C24 0.930 . S
H36 C25 0.932 . S
H37 C27 0.930 . S
H38 C56 0.951 . S
H39 C58 0.951 . S
H40 C60 0.950 . S
H41 C61 0.950 . S
H42 C63 0.950 . S
H43 C66 0.950 . S
H44 C67 0.950 . S
H45 C69 0.950 1_455 S
H46 C70 0.950 . S
H47 C71 0.951 . S
H48 C73 0.951 . S
H49 C75 0.950 . S
H50 C76 0.950 . S
H51 C78 0.950 . S
H52 C81 0.950 . S
H53 C82 0.950 . S
H54 C84 0.950 1_655 S
H55 C85 0.950 . S
C56 H38 0.951 . S
C56 C57 1.366 1_455 S
C56 C58 1.388 . S
C57 C56 1.366 1_655 S
C57 C61 1.385 1_554 S
C58 H39 0.951 . S
C58 C56 1.388 . S
C58 C59 1.366 1_455 S
C59 C58 1.366 1_655 S
C59 C60 1.414 1_554 S
C59 C62 1.499 . S
C60 H40 0.950 . S
C60 C59 1.414 1_556 S
C60 C61 1.374 . S
C61 H41 0.950 . S
C61 C57 1.385 1_556 S
C61 C60 1.374 . S
C62 C59 1.499 . S
C62 C63 1.373 1_654 S
C62 C64 1.389 . S
C63 H42 0.950 . S
C63 C62 1.373 1_456 S
C63 C79 1.377 . S
C64 C62 1.389 . S
C64 C65 1.524 . S
C64 C78 1.377 . S
C65 C64 1.524 . S
C65 C66 1.397 . S
C65 C70 1.363 1_655 S
C66 H43 0.950 . S
C66 C65 1.397 . S
C66 C67 1.334 . S
C67 H44 0.950 . S
C67 C66 1.334 . S
C67 C68 1.287 . S
C68 C67 1.287 . S
C68 C69 1.524 . S
C68 H87 0.913 . S
C69 H45 0.950 1_655 S
C69 C68 1.524 . S
C69 C70 1.415 1_655 S
C70 H46 0.950 . S
C70 C65 1.363 1_455 S
C70 C69 1.415 1_455 S
C71 H47 0.951 . S
C71 C72 1.366 1_655 S
C71 C73 1.388 . S
C72 C71 1.366 1_455 S
C72 C76 1.385 1_556 S
C73 H48 0.951 . S
C73 C71 1.388 . S
C73 C74 1.366 1_655 S
C74 C73 1.366 1_455 S
C74 C75 1.414 1_556 S
C74 C77 1.499 . S
C75 H49 0.950 . S
C75 C74 1.414 1_554 S
C75 C76 1.374 . S
C76 H50 0.950 . S
C76 C72 1.385 1_554 S
C76 C75 1.374 . S
C77 C74 1.499 . S
C77 C78 1.373 1_456 S
C77 C79 1.389 . S
C78 H51 0.950 . S
C78 C64 1.377 . S
C78 C77 1.373 1_654 S
C79 C63 1.377 . S
C79 C77 1.389 . S
C79 C80 1.524 . S
C80 C79 1.524 . S
C80 C81 1.397 . S
C80 C85 1.363 1_455 S
C81 H52 0.950 . S
C81 C80 1.397 . S
C81 C82 1.334 . S
C82 H53 0.950 . S
C82 C81 1.334 . S
C82 C83 1.287 . S
C83 C82 1.287 . S
C83 C84 1.524 . S
C83 H86 0.999 . S
C84 H54 0.950 1_455 S
C84 C83 1.524 . S
C84 C85 1.415 1_455 S
C85 H55 0.950 . S
C85 C80 1.363 1_655 S
C85 C84 1.415 1_655 S
H86 C83 0.999 . S
H87 C68 0.913 . S
H88 C106 0.951 . S
H89 C108 0.951 . S
H90 C110 0.950 . S
H91 C111 0.950 . S
H92 C113 0.950 . S
H93 C116 0.950 . S
H94 C117 0.950 . S
H95 C119 0.950 . S
H96 C120 0.950 . S
H97 C121 0.951 . S
H98 C123 0.951 . S
H99 C125 0.950 . S
H100 C126 0.950 . S
H101 C128 0.950 . S
H102 C131 0.950 . S
H103 C132 0.950 . S
H104 C134 0.950 . S
H105 C135 0.950 . S
C106 H88 0.951 . S
C106 C107 1.366 1_544 S
C106 C108 1.388 . S
C107 C106 1.366 1_566 S
C107 C111 1.385 . S
C108 H89 0.951 . S
C108 C106 1.388 . S
C108 C109 1.366 1_544 S
C109 C108 1.366 1_566 S
C109 C110 1.414 . S
C109 C112 1.499 . S
C110 H90 0.950 . S
C110 C109 1.414 . S
C110 C111 1.374 . S
C111 H91 0.950 . S
C111 C107 1.385 . S
C111 C110 1.374 . S
C112 C109 1.499 . S
C112 C113 1.373 . S
C112 C114 1.389 1_566 S
C113 H92 0.950 . S
C113 C112 1.373 . S
C113 C129 1.377 . S
C114 C112 1.389 1_544 S
C114 C115 1.524 . S
C114 C128 1.377 . S
C115 C114 1.524 . S
C115 C116 1.397 1_545 S
C115 C120 1.363 . S
C116 H93 0.950 . S
C116 C115 1.397 1_565 S
C116 C117 1.334 . S
C117 H94 0.950 . S
C117 C116 1.334 . S
C117 C118 1.287 1_565 S
C118 C117 1.287 1_545 S
C118 C119 1.524 . S
C118 H137 0.913 . S
C119 H95 0.950 . S
C119 C118 1.524 . S
C119 C120 1.415 . S
C120 H96 0.950 . S
C120 C115 1.363 . S
C120 C119 1.415 . S
C121 H97 0.951 . S
C121 C122 1.366 1_566 S
C121 C123 1.388 . S
C122 C121 1.366 1_544 S
C122 C126 1.385 . S
C123 H98 0.951 . S
C123 C121 1.388 . S
C123 C124 1.366 1_566 S
C124 C123 1.366 1_544 S
C124 C125 1.414 . S
C124 C127 1.499 . S
C125 H99 0.950 . S
C125 C124 1.414 . S
C125 C126 1.374 . S
C126 H100 0.950 . S
C126 C122 1.385 . S
C126 C125 1.374 . S
C127 C124 1.499 . S
C127 C128 1.373 . S
C127 C129 1.389 1_544 S
C128 H101 0.950 . S
C128 C114 1.377 . S
C128 C127 1.373 . S
C129 C113 1.377 . S
C129 C127 1.389 1_566 S
C129 C130 1.524 . S
C130 C129 1.524 . S
C130 C131 1.397 1_565 S
C130 C135 1.363 . S
C131 H102 0.950 . S
C131 C130 1.397 1_545 S
C131 C132 1.334 . S
C132 H103 0.950 . S
C132 C131 1.334 . S
C132 C133 1.287 1_545 S
C133 C132 1.287 1_565 S
C133 C134 1.524 . S
C133 H136 0.999 . S
C134 H104 0.950 . S
C134 C133 1.524 . S
C134 C135 1.415 . S
C135 H105 0.950 . S
C135 C130 1.363 . S
C135 C134 1.415 . S
H136 C133 0.999 . S
H137 C118 0.913 . S
H138 C156 0.951 . S
H139 C158 0.951 . S
H140 C160 0.950 . S
H141 C161 0.950 . S
H142 C163 0.950 . S
H143 C166 0.950 . S
H144 C167 0.950 . S
H145 C169 0.950 . S
H146 C170 0.950 . S
H147 C171 0.951 . S
H148 C173 0.951 . S
H149 C175 0.950 . S
H150 C176 0.950 . S
H151 C178 0.950 . S
H152 C181 0.950 . S
H153 C182 0.950 . S
H154 C184 0.950 . S
H155 C185 0.950 . S
C156 H138 0.951 . S
C156 C157 1.366 1_554 S
C156 C158 1.388 . S
C157 C156 1.366 1_556 S
C157 C161 1.385 . S
C158 H139 0.951 . S
C158 C156 1.388 . S
C158 C159 1.366 1_554 S
C159 C158 1.366 1_556 S
C159 C160 1.414 . S
C159 C162 1.499 . S
C160 H140 0.950 . S
C160 C159 1.414 . S
C160 C161 1.374 . S
C161 H141 0.950 . S
C161 C157 1.385 . S
C161 C160 1.374 . S
C162 C159 1.499 . S
C162 C163 1.373 . S
C162 C164 1.389 . S
C163 H142 0.950 . S
C163 C162 1.373 . S
C163 C179 1.377 1_556 S
C164 C162 1.389 . S
C164 C165 1.524 . S
C164 C178 1.377 1_556 S
C165 C164 1.524 . S
C165 C166 1.397 . S
C165 C170 1.363 1_556 S
C166 H143 0.950 . S
C166 C165 1.397 . S
C166 C167 1.334 . S
C167 H144 0.950 . S
C167 C166 1.334 . S
C167 C168 1.287 . S
C168 C167 1.287 . S
C168 C169 1.524 1_556 S
C168 H187 0.913 . S
C169 H145 0.950 . S
C169 C168 1.524 1_554 S
C169 C170 1.415 . S
C170 H146 0.950 . S
C170 C165 1.363 1_554 S
C170 C169 1.415 . S
C171 H147 0.951 . S
C171 C172 1.366 1_556 S
C171 C173 1.388 . S
C172 C171 1.366 1_554 S
C172 C176 1.385 . S
C173 H148 0.951 . S
C173 C171 1.388 . S
C173 C174 1.366 1_556 S
C174 C173 1.366 1_554 S
C174 C175 1.414 . S
C174 C177 1.499 . S
C175 H149 0.950 . S
C175 C174 1.414 . S
C175 C176 1.374 . S
C176 H150 0.950 . S
C176 C172 1.385 . S
C176 C175 1.374 . S
C177 C174 1.499 . S
C177 C178 1.373 . S
C177 C179 1.389 . S
C178 H151 0.950 . S
C178 C164 1.377 1_554 S
C178 C177 1.373 . S
C179 C163 1.377 1_554 S
C179 C177 1.389 . S
C179 C180 1.524 . S
C180 C179 1.524 . S
C180 C181 1.397 . S
C180 C185 1.363 1_554 S
C181 H152 0.950 . S
C181 C180 1.397 . S
C181 C182 1.334 . S
C182 H153 0.950 . S
C182 C181 1.334 . S
C182 C183 1.287 . S
C183 C182 1.287 . S
C183 C184 1.524 1_554 S
C183 H186 0.999 . S
C184 H154 0.950 . S
C184 C183 1.524 1_556 S
C184 C185 1.415 . S
C185 H155 0.950 . S
C185 C180 1.363 1_556 S
C185 C184 1.415 . S
H186 C183 0.999 . S
H187 C168 0.913 . S
H188 C206 0.951 . S
H189 C208 0.951 . S
H190 C210 0.950 . S
H191 C211 0.950 . S
H192 C213 0.950 . S
H193 C216 0.950 . S
H194 C217 0.950 . S
H195 C219 0.950 . S
H196 C220 0.950 . S
H197 C221 0.951 . S
H198 C223 0.951 . S
H199 C225 0.950 . S
H200 C226 0.950 . S
H201 C228 0.950 . S
H202 C231 0.950 . S
H203 C232 0.950 . S
H204 C234 0.950 . S
H205 C235 0.950 . S
C206 H188 0.951 . S
C206 C207 1.365 . S
C206 C208 1.388 . S
C207 C206 1.365 . S
C207 C211 1.385 1_445 S
C208 H189 0.951 . S
C208 C206 1.388 . S
C208 C209 1.366 1_455 S
C209 C208 1.366 1_655 S
C209 C210 1.414 1_545 S
C209 C212 1.493 . S
C210 H190 0.950 . S
C210 C209 1.414 1_565 S
C210 C211 1.374 . S
C211 H191 0.950 . S
C211 C207 1.385 1_665 S
C211 C210 1.374 . S
C212 C209 1.493 . S
C212 C213 1.366 1_545 S
C212 C214 1.402 1_655 S
C213 H192 0.950 . S
C213 C212 1.366 1_565 S
C213 C229 1.377 . S
C214 C212 1.402 1_455 S
C214 C215 1.524 . S
C214 C228 1.377 . S
C215 C214 1.524 . S
C215 C216 1.397 1_455 S
C215 C220 1.363 . S
C216 H193 0.950 . S
C216 C215 1.397 1_655 S
C216 C217 1.334 . S
C217 H194 0.950 . S
C217 C216 1.334 . S
C217 C218 1.287 1_655 S
C218 C217 1.287 1_455 S
C218 C219 1.524 . S
C218 H237 0.913 . S
C219 H195 0.950 . S
C219 C218 1.524 . S
C219 C220 1.415 . S
C220 H196 0.950 . S
C220 C215 1.363 . S
C220 C219 1.415 . S
C221 H197 0.951 . S
C221 C222 1.365 1_665 S
C221 C223 1.388 . S
C222 C221 1.365 1_445 S
C222 C226 1.385 . S
C223 H198 0.951 . S
C223 C221 1.388 . S
C223 C224 1.366 1_655 S
C224 C223 1.366 1_455 S
C224 C225 1.414 1_565 S
C224 C227 1.495 . S
C225 H199 0.950 . S
C225 C224 1.414 1_545 S
C225 C226 1.374 . S
C226 H200 0.950 . S
C226 C222 1.385 . S
C226 C225 1.374 . S
C227 C224 1.495 . S
C227 C228 1.368 1_565 S
C227 C229 1.398 1_455 S
C228 H201 0.950 . S
C228 C214 1.377 . S
C228 C227 1.368 1_545 S
C229 C213 1.377 . S
C229 C227 1.398 1_655 S
C229 C230 1.524 . S
C230 C229 1.524 . S
C230 C231 1.397 1_655 S
C230 C235 1.363 . S
C231 H202 0.950 . S
C231 C230 1.397 1_455 S
C231 C232 1.334 . S
C232 H203 0.950 . S
C232 C231 1.334 . S
C232 C233 1.287 1_455 S
C233 C232 1.287 1_655 S
C233 C234 1.524 . S
C233 H236 0.999 . S
C234 H204 0.950 . S
C234 C233 1.524 . S
C234 C235 1.415 . S
C235 H205 0.950 . S
C235 C230 1.363 . S
C235 C234 1.415 . S
H236 C233 0.999 . S
H237 C218 0.913 . S
C57 C17 0.427 . S
C72 C28 0.427 . S
C107 C4 2.162 . S
C122 C23 2.162 . S
C157 C26 1.903 . S
C172 C2 1.903 . S
C207 C20 1.491 1_445 S
C222 C19 1.491 . S
