# Generated by pormake.
# Topology uon, (4)-cn, num edge types: 1
# Building blocks:
#     Node 0, Type 0, BuildingBlock: GALJAG_clean_sbu_0, # of connection points: 4
#     Node 1, Type 0, BuildingBlock: GALJAG_clean_sbu_0, # of connection points: 4
#     Node 2, Type 0, BuildingBlock: GALJAG_clean_sbu_0, # of connection points: 4
#     Node 3, Type 0, BuildingBlock: GALJAG_clean_sbu_0, # of connection points: 4
#     Node 4, Type 0, BuildingBlock: GALJAG_clean_sbu_0, # of connection points: 4
#     Node 5, Type 0, BuildingBlock: GALJAG_clean_sbu_0, # of connection points: 4
#     Edge 6, Type (0, 0), None
#     Edge 7, Type (0, 0), None
#     Edge 8, Type (0, 0), None
#     Edge 9, Type (0, 0), None
#     Edge 10, Type (0, 0), None
#     Edge 11, Type (0, 0), None
#     Edge 12, Type (0, 0), None
#     Edge 13, Type (0, 0), None
#     Edge 14, Type (0, 0), None
#     Edge 15, Type (0, 0), None
#     Edge 16, Type (0, 0), None
#     Edge 17, Type (0, 0), None
# Relax obj value: 0.155
# Max RMSD: 0.288
# Mean RMSD: 0.287
data_MOF--net-uon--node1-GALJAG_clean_sbu_0--edge1-none
_symmetry_space_group_name_H-M    P1
_symmetry_Int_Tables_number       1
_symmetry_cell_setting            triclinic
loop_
_symmetry_equiv_pos_as_xyz
'x, y, z'
_cell_length_a     15.794404
_cell_length_b     15.793476
_cell_length_c     9.5572702
_cell_angle_alpha  89.999154
_cell_angle_beta   90.0
_cell_angle_gamma 120.00049
loop_
_atom_site_label
_atom_site_type_symbol
_atom_site_fract_x
_atom_site_fract_y
_atom_site_fract_z
_atom_type_partial_charge
In0 In 0.15032 0.37902 0.12738 0.0
O1 O 0.21776 0.28321 0.12645 0.0
O2 O 0.13904 0.28662 0.94262 0.0
C3 C 0.14222 0.52 0.25945 0.0
C4 C 0.29944 0.52083 0.99653 0.0
C5 C -0.01416 0.25513 0.25213 0.0
O6 O 0.18435 0.47676 0.31329 0.0
O7 O 0.10383 0.49143 0.13883 0.0
O8 O -0.01286 0.28312 0.12649 0.0
O9 O 0.06833 0.28539 0.31078 0.0
C10 C 0.19123 0.25602 1.00049 0.0
O11 O 0.21412 0.47767 0.94256 0.0
O12 O 0.30925 0.4918 0.11681 0.0
In13 In 0.73095 0.16936 0.45809 0.0
O14 O 0.89414 0.23664 0.45894 0.0
O15 O 0.81291 0.15769 0.27466 0.0
C16 C 0.58184 0.16204 0.58894 0.0
C17 C 0.73906 0.31844 0.32601 0.0
C18 C 0.69004 0.00545 0.58499 0.0
O19 O 0.66715 0.2042 0.64291 0.0
O20 O 0.57202 0.12319 0.46866 0.0
O21 O 0.66351 0.0061 0.45903 0.0
O22 O 0.74224 0.08824 0.64286 0.0
C23 C 0.8954 0.20995 0.3333 0.0
O24 O 0.69692 0.23307 0.27218 0.0
O25 O 0.77745 0.32827 0.44662 0.0
In26 In 0.52203 0.75154 0.79402 0.0
O27 O 0.42338 0.71669 0.60921 0.0
O28 O 0.40928 0.79772 0.78346 0.0
C29 C 0.64594 0.71097 0.91879 0.0
C30 C 0.64499 0.91541 0.66708 0.0
C31 C 0.38106 0.60245 0.92609 0.0
O32 O 0.61794 0.68426 0.79316 0.0
O33 O 0.61567 0.7632 0.97743 0.0
O34 O 0.4243 0.68782 0.97993 0.0
O35 O 0.40963 0.59263 0.80548 0.0
C36 C 0.38024 0.75886 0.66319 0.0
O37 O 0.61784 0.91479 0.79305 0.0
O38 O 0.61442 0.83262 0.60922 0.0
In39 In 0.73175 0.54188 0.12475 0.0
O40 O 0.66445 0.63778 0.12561 0.0
O41 O 0.7434 0.63551 0.94133 0.0
C42 C 0.73905 0.40007 0.25557 0.0
C43 C 0.58267 0.40091 0.99268 0.0
C44 C 0.89564 0.66488 0.25164 0.0
O45 O 0.6969 0.44322 0.30956 0.0
O46 O 0.77791 0.42911 0.1353 0.0
O47 O 0.89499 0.6377 0.12569 0.0
O48 O 0.81286 0.63428 0.30952 0.0
C49 C 0.69114 0.66574 0.99996 0.0
O50 O 0.66804 0.44414 0.93884 0.0
O51 O 0.57285 0.42947 0.11329 0.0
In52 In 0.14955 0.75077 0.46067 0.0
O53 O -0.0137 0.68334 0.4597 0.0
O54 O 0.06847 0.76207 0.27587 0.0
C55 C 0.29862 0.75887 0.59275 0.0
C56 C 0.14223 0.60164 0.32988 0.0
C57 C 0.19013 0.91525 0.58545 0.0
O58 O 0.21325 0.71675 0.64659 0.0
O59 O 0.30845 0.79727 0.47213 0.0
O60 O 0.21684 0.91397 0.45982 0.0
O61 O 0.13789 0.83275 0.64409 0.0
C62 C -0.01431 0.70986 0.33373 0.0
O63 O 0.1844 0.68695 0.27589 0.0
O64 O 0.10337 0.59183 0.45014 0.0
In65 In 0.35924 0.17014 0.79145 0.0
O66 O 0.26334 0.00694 0.79228 0.0
O67 O 0.26562 0.08819 0.60801 0.0
C68 C 0.50105 0.31927 0.92225 0.0
C69 C 0.50022 0.16204 0.65938 0.0
C70 C 0.23629 0.21104 0.9184 0.0
O71 O 0.45791 0.23396 0.97623 0.0
O72 O 0.472 0.32908 0.80198 0.0
O73 O 0.26343 0.23757 0.79243 0.0
O74 O 0.26686 0.15883 0.97625 0.0
C75 C 0.23538 0.00568 0.66663 0.0
O76 O 0.45698 0.20417 0.60555 0.0
O77 O 0.47164 0.12363 0.77999 0.0
loop_
_geom_bond_atom_site_label_1
_geom_bond_atom_site_label_2
_geom_bond_distance
_geom_bond_site_symmetry_2
_ccdc_geom_bond_type
In0 O1 2.294 . S
In0 O2 2.326 . S
In0 O6 2.266 . S
In0 O7 2.326 . S
In0 O8 2.266 . S
In0 O9 2.326 . S
In0 O11 2.294 . S
In0 O12 2.326 . S
O1 In0 2.294 . S
O1 C10 1.240 . S
O2 In0 2.326 . S
O2 C10 1.252 . S
C3 O6 1.252 . S
C3 O7 1.260 . S
C4 O11 1.240 . S
C4 O12 1.252 . S
C5 O8 1.252 . S
C5 O9 1.260 . S
O6 In0 2.266 . S
O6 C3 1.252 . S
O7 In0 2.326 . S
O7 C3 1.260 . S
O8 In0 2.266 . S
O8 C5 1.252 . S
O9 In0 2.326 . S
O9 C5 1.260 . S
C10 O1 1.240 . S
C10 O2 1.252 . S
O11 In0 2.294 . S
O11 C4 1.240 . S
O12 In0 2.326 . S
O12 C4 1.252 . S
In13 O14 2.294 . S
In13 O15 2.326 . S
In13 O19 2.266 . S
In13 O20 2.326 . S
In13 O21 2.266 1_545 S
In13 O22 2.326 . S
In13 O24 2.294 . S
In13 O25 2.326 . S
O14 In13 2.294 . S
O14 C23 1.240 . S
O15 In13 2.326 . S
O15 C23 1.252 . S
C16 O19 1.252 . S
C16 O20 1.260 . S
C17 O24 1.240 . S
C17 O25 1.252 . S
C18 O21 1.252 . S
C18 O22 1.260 1_565 S
O19 In13 2.266 . S
O19 C16 1.252 . S
O20 In13 2.326 . S
O20 C16 1.260 . S
O21 In13 2.266 1_565 S
O21 C18 1.252 . S
O22 In13 2.326 . S
O22 C18 1.260 1_545 S
C23 O14 1.240 . S
C23 O15 1.252 . S
O24 In13 2.294 . S
O24 C17 1.240 . S
O25 In13 2.326 . S
O25 C17 1.252 . S
In26 O27 2.294 . S
In26 O28 2.326 . S
In26 O32 2.266 . S
In26 O33 2.326 . S
In26 O34 2.266 1_556 S
In26 O35 2.326 1_556 S
In26 O37 2.294 1_565 S
In26 O38 2.326 . S
O27 In26 2.294 . S
O27 C36 1.240 . S
O28 In26 2.326 . S
O28 C36 1.252 . S
C29 O32 1.252 . S
C29 O33 1.260 . S
C30 O37 1.240 . S
C30 O38 1.252 1_545 S
C31 O34 1.252 . S
C31 O35 1.260 . S
O32 In26 2.266 . S
O32 C29 1.252 . S
O33 In26 2.326 . S
O33 C29 1.260 . S
O34 In26 2.266 1_554 S
O34 C31 1.252 . S
O35 In26 2.326 1_554 S
O35 C31 1.260 . S
C36 O27 1.240 . S
C36 O28 1.252 . S
O37 In26 2.294 1_545 S
O37 C30 1.240 . S
O38 In26 2.326 . S
O38 C30 1.252 1_565 S
In39 O40 2.294 . S
In39 O41 2.326 1_554 S
In39 O45 2.266 . S
In39 O46 2.326 . S
In39 O47 2.266 1_654 S
In39 O48 2.326 . S
In39 O50 2.294 1_554 S
In39 O51 2.326 1_554 S
O40 In39 2.294 . S
O40 C49 1.240 1_554 S
O41 In39 2.326 1_556 S
O41 C49 1.252 . S
C42 O45 1.252 . S
C42 O46 1.260 . S
C43 O50 1.240 . S
C43 O51 1.252 . S
C44 O47 1.252 1_554 S
C44 O48 1.260 1_455 S
O45 In39 2.266 . S
O45 C42 1.252 . S
O46 In39 2.326 . S
O46 C42 1.260 . S
O47 In39 2.266 1_456 S
O47 C44 1.252 1_556 S
O48 In39 2.326 . S
O48 C44 1.260 1_655 S
C49 O40 1.240 1_556 S
C49 O41 1.252 . S
O50 In39 2.294 1_556 S
O50 C43 1.240 . S
O51 In39 2.326 1_556 S
O51 C43 1.252 . S
In52 O53 2.294 1_455 S
In52 O54 2.326 . S
In52 O58 2.266 . S
In52 O59 2.326 . S
In52 O60 2.266 . S
In52 O61 2.326 . S
In52 O63 2.294 . S
In52 O64 2.326 . S
O53 In52 2.294 1_655 S
O53 C62 1.240 . S
O54 In52 2.326 . S
O54 C62 1.252 1_455 S
C55 O58 1.252 . S
C55 O59 1.260 . S
C56 O63 1.240 . S
C56 O64 1.252 . S
C57 O60 1.252 . S
C57 O61 1.260 . S
O58 In52 2.266 . S
O58 C55 1.252 . S
O59 In52 2.326 . S
O59 C55 1.260 . S
O60 In52 2.266 . S
O60 C57 1.252 . S
O61 In52 2.326 . S
O61 C57 1.260 . S
C62 O53 1.240 . S
C62 O54 1.252 1_655 S
O63 In52 2.294 . S
O63 C56 1.240 . S
O64 In52 2.326 . S
O64 C56 1.252 . S
In65 O66 2.294 . S
In65 O67 2.326 . S
In65 O71 2.266 . S
In65 O72 2.326 . S
In65 O73 2.266 . S
In65 O74 2.326 . S
In65 O76 2.294 . S
In65 O77 2.326 . S
O66 In65 2.294 . S
O66 C75 1.240 . S
O67 In65 2.326 . S
O67 C75 1.252 . S
C68 O71 1.252 . S
C68 O72 1.260 . S
C69 O76 1.240 . S
C69 O77 1.252 . S
C70 O73 1.252 . S
C70 O74 1.260 . S
O71 In65 2.266 . S
O71 C68 1.252 . S
O72 In65 2.326 . S
O72 C68 1.260 . S
O73 In65 2.266 . S
O73 C70 1.252 . S
O74 In65 2.326 . S
O74 C70 1.260 . S
C75 O66 1.240 . S
C75 O67 1.252 . S
O76 In65 2.294 . S
O76 C69 1.240 . S
O77 In65 2.326 . S
O77 C69 1.252 . S
C10 C70 3.374 1_554 S
C23 C5 1.431 1_655 S
C18 C30 3.374 1_565 S
C49 C29 1.431 . S
C44 C62 3.374 1_455 S
C75 C57 1.431 1_545 S
C56 C3 2.373 . S
C69 C16 2.376 . S
C31 C4 2.374 . S
C42 C17 2.376 . S
C55 C36 2.373 . S
C68 C43 2.376 . S
