# Generated by pormake.
# Topology bsn, (6)-cn, num edge types: 1
# Building blocks:
#     Node 0, Type 0, BuildingBlock: JUFBIX_clean_sbu_0, # of connection points: 6
#     Node 1, Type 0, BuildingBlock: JUFBIX_clean_sbu_0, # of connection points: 6
#     Node 2, Type 0, BuildingBlock: JUFBIX_clean_sbu_0, # of connection points: 6
#     Node 3, Type 0, BuildingBlock: JUFBIX_clean_sbu_0, # of connection points: 6
#     Edge 4, Type (0, 0), BuildingBlock: OJICUG_clean_linker_0, # of connection points: 2
#     Edge 5, Type (0, 0), BuildingBlock: OJICUG_clean_linker_0, # of connection points: 2
#     Edge 6, Type (0, 0), BuildingBlock: OJICUG_clean_linker_0, # of connection points: 2
#     Edge 7, Type (0, 0), BuildingBlock: OJICUG_clean_linker_0, # of connection points: 2
#     Edge 8, Type (0, 0), BuildingBlock: OJICUG_clean_linker_0, # of connection points: 2
#     Edge 9, Type (0, 0), BuildingBlock: OJICUG_clean_linker_0, # of connection points: 2
#     Edge 10, Type (0, 0), BuildingBlock: OJICUG_clean_linker_0, # of connection points: 2
#     Edge 11, Type (0, 0), BuildingBlock: OJICUG_clean_linker_0, # of connection points: 2
#     Edge 12, Type (0, 0), BuildingBlock: OJICUG_clean_linker_0, # of connection points: 2
#     Edge 13, Type (0, 0), BuildingBlock: OJICUG_clean_linker_0, # of connection points: 2
#     Edge 14, Type (0, 0), BuildingBlock: OJICUG_clean_linker_0, # of connection points: 2
#     Edge 15, Type (0, 0), BuildingBlock: OJICUG_clean_linker_0, # of connection points: 2
# Relax obj value: 0.081
# Max RMSD: 0.157
# Mean RMSD: 0.157
data_MOF--net-bsn--node1-JUFBIX_clean_sbu_0--edge1-OJICUG_clean_linker_0
_symmetry_space_group_name_H-M    P1
_symmetry_Int_Tables_number       1
_symmetry_cell_setting            triclinic
loop_
_symmetry_equiv_pos_as_xyz
'x, y, z'
_cell_length_a     21.072938
_cell_length_b     30.696275
_cell_length_c     10.863279
_cell_angle_alpha  88.608257
_cell_angle_beta   91.483827
_cell_angle_gamma 97.439495
loop_
_atom_site_label
_atom_site_type_symbol
_atom_site_fract_x
_atom_site_fract_y
_atom_site_fract_z
_atom_type_partial_charge
Co0 Co 0.02522 0.2601 0.29849 0.0
C1 C 0.03281 0.29609 0.52997 0.0
Co2 Co 0.03825 0.33347 0.29381 0.0
C3 C 0.03274 0.16803 0.37452 0.0
C4 C 0.96955 0.17491 0.22007 0.0
N5 N 1.01015 0.19851 0.29871 0.0
N6 N 1.00747 0.12641 0.34631 0.0
C7 C 0.96786 0.13093 0.24871 0.0
H8 H 0.06595 0.17636 0.45054 0.0
H9 H 0.94221 0.18886 0.14692 0.0
C10 C 0.0307 0.29752 0.06203 0.0
N11 N 0.05245 0.39524 0.29312 0.0
C12 C 0.02955 0.42396 0.36822 0.0
C13 C 0.0915 0.42079 0.21677 0.0
N14 N 0.05277 0.46641 0.34153 0.0
C15 C 0.09174 0.46421 0.24591 0.0
C16 C 0.15073 0.29509 0.2912 0.0
O17 O 0.0249 0.26151 0.12353 0.0
O18 O 0.03683 0.33365 0.11876 0.0
O19 O 0.12743 0.33129 0.29363 0.0
O20 O 0.11386 0.25896 0.299 0.0
O21 O 0.03938 0.33214 0.46851 0.0
H22 H 0.11903 0.40855 0.14554 0.0
H23 H 0.99648 0.41378 0.44113 0.0
O24 O 0.0259 0.25991 0.47328 0.0
O25 O 0.93673 0.26209 0.29434 0.0
O26 O 0.94899 0.33432 0.28986 0.0
C27 C 0.91262 0.29788 0.28656 0.0
H28 H 0.93978 0.10437 0.20037 0.0
H29 H 0.12 0.49189 0.20174 0.0
Co30 Co 0.02294 0.75649 0.63515 0.0
C31 C 0.03048 0.79244 0.86693 0.0
Co32 Co 0.03597 0.82986 0.63047 0.0
C33 C 0.03163 0.666 0.56073 0.0
C34 C 0.96969 0.66917 0.71218 0.0
N35 N 1.00873 0.69472 0.63583 0.0
N36 N 1.00841 0.62355 0.58743 0.0
C37 C 0.96944 0.62575 0.68305 0.0
H38 H 0.0647 0.67618 0.48783 0.0
H39 H 0.94216 0.68141 0.78342 0.0
C40 C 0.02838 0.79386 0.39899 0.0
N41 N 0.05103 0.89145 0.63024 0.0
C42 C 0.02844 0.92193 0.55444 0.0
C43 C 0.09164 0.91505 0.70889 0.0
N44 N 0.05372 0.96355 0.58264 0.0
C45 C 0.09332 0.95903 0.68024 0.0
C46 C 0.14856 0.79207 0.64239 0.0
O47 O 1.0218 0.75782 0.46045 0.0
O48 O 0.03528 0.83004 0.45567 0.0
O49 O 0.12445 0.82786 0.63462 0.0
O50 O 0.1122 0.75564 0.6391 0.0
O51 O 0.03628 0.82845 0.80543 0.0
H52 H 0.11898 0.9011 0.78203 0.0
H53 H 0.99523 0.9136 0.47842 0.0
O54 O 0.02435 0.75631 0.81019 0.0
O55 O 0.93375 0.75867 0.63532 0.0
O56 O 0.94732 0.83099 0.62996 0.0
C57 C 0.91046 0.79486 0.63775 0.0
H58 H 0.94119 0.59807 0.72722 0.0
H59 H 0.1214 0.98559 0.72859 0.0
Co60 Co 0.52608 0.76021 0.79848 0.0
C61 C 0.53364 0.79618 0.02996 0.0
Co62 Co 0.53912 0.83359 0.79379 0.0
C63 C 0.53332 0.66808 0.87455 0.0
C64 C 0.47055 0.67507 0.71952 0.0
N65 N 0.51099 0.69862 0.79855 0.0
N66 N 0.50803 0.62649 0.84608 0.0
C67 C 0.4687 0.63108 0.74811 0.0
H68 H 0.56633 0.67636 0.95091 0.0
H69 H 0.44341 0.68907 0.64615 0.0
C70 C 0.53163 0.79768 0.56202 0.0
N71 N 0.55328 0.89535 0.79326 0.0
C72 C 0.53013 0.92402 0.86816 0.0
C73 C 0.5925 0.92095 0.71732 0.0
N74 N 0.55335 0.96649 0.84174 0.0
C75 C 0.59259 0.96436 0.74651 0.0
C76 C 0.6516 0.79521 0.79129 0.0
O77 O 0.52582 0.76167 0.62352 0.0
O78 O 0.53775 0.83381 0.61874 0.0
O79 O 0.62831 0.83141 0.79369 0.0
O80 O 0.61474 0.75908 0.79906 0.0
O81 O 0.54021 0.83222 -0.03152 0.0
H82 H 0.62023 0.90876 0.64632 0.0
H83 H 0.49687 0.91379 0.94071 0.0
O84 O 0.52673 0.75999 -0.02672 0.0
O85 O 0.4376 0.76221 0.79426 0.0
O86 O 0.44985 0.83443 0.78977 0.0
C87 C 0.41349 0.79799 0.78645 0.0
H88 H 0.44069 0.60456 0.69949 0.0
H89 H 0.62091 0.99207 0.70263 0.0
Co90 Co 0.52207 0.25637 0.13516 0.0
C91 C 0.52955 0.29228 0.36694 0.0
Co92 Co 0.5351 0.32975 0.13048 0.0
C93 C 0.53105 0.16594 0.06079 0.0
C94 C 0.46869 0.16901 0.21163 0.0
N95 N 0.5079 0.1946 0.13569 0.0
N96 N 0.50783 0.12347 0.08722 0.0
C97 C 0.46859 0.1256 0.18244 0.0
H98 H 0.56432 0.17617 -0.01175 0.0
H99 H 0.44096 0.1812 0.28263 0.0
C100 C 0.52755 0.29378 0.899 0.0
N101 N 0.55019 0.39134 0.1304 0.0
C102 C 0.52787 0.42187 0.0544 0.0
C103 C 0.59064 0.41489 0.20944 0.0
N104 N 0.55315 0.46347 0.08287 0.0
C105 C 0.59249 0.45887 0.18084 0.0
C106 C 0.64769 0.29197 0.14251 0.0
O107 O 0.52097 0.25774 0.96047 0.0
O108 O 0.53445 0.32997 0.95567 0.0
O109 O 0.62358 0.32775 0.1347 0.0
O110 O 0.61133 0.25553 0.13919 0.0
O111 O 0.53536 0.32829 0.30543 0.0
H112 H 0.61778 0.40089 0.2828 0.0
H113 H 0.49485 0.4136 -0.02195 0.0
O114 O 0.52343 0.25615 0.31021 0.0
O115 O 0.43288 0.25855 0.13527 0.0
O116 O 0.44645 0.33088 0.12989 0.0
C117 C 0.40959 0.29475 0.13767 0.0
H118 H 0.44027 0.09789 0.22632 0.0
H119 H 0.6205 0.4854 0.22947 0.0
C120 C 0.05106 0.54741 0.34315 0.0
C121 C 0.04084 0.50593 0.40334 0.0
H122 H 0.04852 0.61681 0.35292 0.0
C123 C 1.02013 0.50414 0.52564 0.0
H124 H 0.06606 0.55031 0.24852 0.0
C125 C 1.01013 0.54255 0.58581 0.0
C126 C 1.02034 0.58403 0.52561 0.0
H127 H 1.01266 0.47315 0.57604 0.0
H128 H 0.99513 0.53965 0.68044 0.0
C129 C 0.04105 0.58581 0.40332 0.0
C130 C 0.74316 0.75528 0.74154 0.0
C131 C 0.71901 0.79517 0.75932 0.0
H132 H 0.82211 0.72387 0.68583 0.0
C133 C 0.75751 0.83492 0.73204 0.0
H134 H 0.71437 0.72408 0.76037 0.0
C135 C 0.81891 0.83479 0.68755 0.0
C136 C 0.84305 0.79491 0.66975 0.0
H137 H 0.73996 0.8662 0.74326 0.0
H138 H 0.8477 0.86599 0.66872 0.0
C139 C 0.80455 0.75515 0.69705 0.0
C140 C 0.58732 0.5423 0.03155 0.0
C141 C 0.54188 0.50445 0.02206 0.0
H142 H 0.61264 0.61031 -0.017 0.0
C143 C 0.48504 0.50773 0.95395 0.0
H144 H 0.63218 0.54107 0.08134 0.0
C145 C 0.47387 0.54766 0.89741 0.0
C146 C 0.51931 0.58551 0.90689 0.0
H147 H 0.44854 0.47965 0.94596 0.0
H148 H 0.429 0.54889 0.84762 0.0
C149 C 0.57615 0.58223 -0.02499 0.0
C150 C 0.81805 0.33555 0.22827 0.0
C151 C 0.84407 0.2966 0.25625 0.0
H152 H 0.73579 0.36456 0.1671 0.0
C153 C 0.80559 0.25596 0.24231 0.0
H154 H 0.84676 0.36731 0.23671 0.0
C155 C 0.74226 0.2543 0.20085 0.0
C156 C 0.71624 0.29325 0.17287 0.0
H157 H 0.82452 0.2253 0.26203 0.0
H158 H 0.71355 0.22254 0.19241 0.0
C159 C 0.75472 0.3339 0.18681 0.0
C160 C 0.31803 0.33467 0.18742 0.0
C161 C 0.34217 0.29479 0.16963 0.0
H162 H 0.23908 0.36609 0.24313 0.0
C163 C 0.30367 0.25504 0.19692 0.0
H164 H 0.34682 0.36588 0.16859 0.0
C165 C 0.24228 0.25517 0.24141 0.0
C166 C 0.21813 0.29505 0.2592 0.0
H167 H 0.32123 0.22376 0.1857 0.0
H168 H 0.21348 0.22397 0.26024 0.0
C169 C 0.25663 0.3348 0.23191 0.0
C170 C 0.31892 0.83566 0.7281 0.0
C171 C 0.34495 0.79671 0.75609 0.0
H172 H 0.23667 0.86466 0.66693 0.0
C173 C 0.30646 0.75606 0.74214 0.0
H174 H 0.34763 0.86742 0.73655 0.0
C175 C 0.24314 0.75441 0.70068 0.0
C176 C 0.21711 0.79336 0.67271 0.0
H177 H 0.3254 0.7254 0.76186 0.0
H178 H 0.21443 0.72265 0.69224 0.0
C179 C 0.2556 0.834 0.68664 0.0
C180 C 0.55149 0.04748 0.84344 0.0
C181 C 0.54114 1.00597 0.90345 0.0
H182 H 0.54879 0.11686 0.85324 0.0
C183 C 0.51999 1.00412 0.02545 0.0
H184 H 0.56683 0.05044 0.74903 0.0
C185 C 0.50969 1.04248 0.08552 0.0
C186 C 0.52004 0.08398 0.02551 0.0
H187 H 0.5124 0.9731 0.07572 0.0
H188 H 0.49435 1.03952 0.17993 0.0
C189 C 0.54119 0.08584 0.90351 0.0
C190 C 0.08753 1.04239 0.53091 0.0
C191 C 0.04216 1.00449 0.52195 0.0
H192 H 0.11255 0.1104 0.48205 0.0
C193 C 0.98509 1.00768 0.45447 0.0
H194 H 0.13256 1.04123 0.58021 0.0
C195 C 0.97365 0.04757 0.39804 0.0
C196 C 1.01903 0.08547 0.40701 0.0
H197 H 0.94864 0.97956 0.44691 0.0
H198 H 0.92863 0.04873 0.34875 0.0
C199 C 0.07609 0.08228 0.47449 0.0
C200 C 0.03837 0.33681 0.85706 0.0
C201 C 0.03099 0.29721 0.92593 0.0
H202 H 0.04479 0.36753 0.67818 0.0
C203 C 0.02437 0.25722 0.86351 0.0
H204 H 0.04366 0.36817 0.90233 0.0
C205 C 0.02514 0.25683 0.73499 0.0
C206 C 0.03251 0.29642 0.66609 0.0
H207 H 1.01862 0.22612 0.91385 0.0
H208 H 1.01989 0.22546 0.68974 0.0
C209 C 0.03911 0.33642 0.72852 0.0
C210 C 0.03682 0.83274 0.06545 0.0
C211 C 0.03019 0.79274 0.00302 0.0
H212 H 0.04129 0.8645 0.23921 0.0
C213 C 1.02281 0.75315 0.0719 0.0
H214 H 0.04256 0.86384 0.0151 0.0
C215 C 1.02208 0.75354 0.20044 0.0
C216 C 0.02867 0.79354 0.26287 0.0
H217 H 1.01752 0.72179 0.02663 0.0
H218 H 1.0164 0.72243 0.25077 0.0
C219 C 0.03605 0.83313 0.19397 0.0
C220 C 0.52596 0.75694 0.23502 0.0
C221 C 0.53337 0.79652 0.16608 0.0
H222 H 0.51945 0.72625 0.41391 0.0
C223 C 0.54004 0.83653 0.22847 0.0
H224 H 0.52067 0.72556 0.1898 0.0
C225 C 0.53934 0.83694 0.357 0.0
C226 C 0.53192 0.79736 0.42592 0.0
H227 H 0.54575 0.86763 0.1781 0.0
H228 H 0.54468 0.86831 0.40224 0.0
C229 C 0.52523 0.75735 0.36354 0.0
C230 C 0.53595 0.33261 0.56542 0.0
C231 C 0.52927 0.2926 0.50303 0.0
H232 H 0.54051 0.3644 0.73915 0.0
C233 C 0.52185 0.25302 0.57195 0.0
H234 H 0.54173 0.3637 0.51504 0.0
C235 C 0.52115 0.25343 0.70049 0.0
C236 C 0.52781 0.29344 0.76288 0.0
H237 H 0.51651 0.22165 0.52672 0.0
H238 H 0.51543 0.22233 0.75086 0.0
C239 C 0.53522 0.33302 0.69394 0.0
loop_
_geom_bond_atom_site_label_1
_geom_bond_atom_site_label_2
_geom_bond_distance
_geom_bond_site_symmetry_2
_ccdc_geom_bond_type
Co0 N5 2.057 . S
Co0 O17 2.021 . S
Co0 O20 2.062 1_655 S
Co0 O24 2.117 1_655 S
Co0 O25 2.020 . S
C1 O21 1.259 . S
C1 O24 1.258 . S
Co2 N11 2.057 . S
Co2 O18 2.117 . S
Co2 O19 2.020 . S
Co2 O21 2.021 . S
Co2 O26 2.062 1_455 S
C3 N5 1.320 . S
C3 N6 1.344 1_655 S
C3 H8 0.929 1_655 S
C4 N5 1.375 . S
C4 C7 1.350 . S
C4 H9 0.930 . S
N5 Co0 2.057 . S
N5 C3 1.320 . S
N5 C4 1.375 . S
N6 C3 1.344 1_455 S
N6 C7 1.373 1_455 S
C7 C4 1.350 . S
C7 N6 1.373 1_655 S
C7 H28 0.931 . S
H8 C3 0.929 1_455 S
H9 C4 0.930 . S
C10 O17 1.259 1_455 S
C10 O18 1.258 . S
N11 Co2 2.057 . S
N11 C12 1.316 . S
N11 C13 1.375 . S
C12 N11 1.316 . S
C12 N14 1.347 . S
C12 H23 0.931 . S
C13 N11 1.375 . S
C13 C15 1.350 . S
C13 H22 0.930 . S
N14 C12 1.347 . S
N14 C15 1.373 . S
C15 C13 1.350 . S
C15 N14 1.373 . S
C15 H29 0.931 . S
C16 O19 1.256 . S
C16 O20 1.255 . S
O17 Co0 2.021 . S
O17 C10 1.259 1_655 S
O18 Co2 2.117 . S
O18 C10 1.258 . S
O19 Co2 2.020 . S
O19 C16 1.256 . S
O20 Co0 2.062 1_455 S
O20 C16 1.255 . S
O21 C1 1.259 . S
O21 Co2 2.021 . S
H22 C13 0.930 . S
H23 C12 0.931 . S
O24 Co0 2.117 1_455 S
O24 C1 1.258 . S
O25 Co0 2.020 . S
O25 C27 1.256 . S
O26 Co2 2.062 1_655 S
O26 C27 1.255 . S
C27 O25 1.256 . S
C27 O26 1.255 . S
H28 C7 0.931 . S
H29 C15 0.931 . S
Co30 N35 2.057 . S
Co30 O47 2.021 . S
Co30 O50 2.062 1_655 S
Co30 O54 2.117 1_655 S
Co30 O55 2.020 . S
C31 O51 1.259 . S
C31 O54 1.258 . S
Co32 N41 2.057 . S
Co32 O48 2.117 . S
Co32 O49 2.020 . S
Co32 O51 2.021 . S
Co32 O56 2.062 1_455 S
C33 N35 1.316 . S
C33 N36 1.350 . S
C33 H38 0.930 1_655 S
C34 N35 1.375 . S
C34 C37 1.350 . S
C34 H39 0.930 . S
N35 Co30 2.057 . S
N35 C33 1.316 . S
N35 C34 1.375 . S
N36 C33 1.350 . S
N36 C37 1.377 . S
C37 C34 1.350 . S
C37 N36 1.377 . S
C37 H58 0.931 . S
H38 C33 0.930 1_455 S
H39 C34 0.930 . S
C40 O47 1.259 1_455 S
C40 O48 1.258 . S
N41 Co32 2.057 . S
N41 C42 1.316 . S
N41 C43 1.375 . S
C42 N41 1.316 . S
C42 N44 1.347 . S
C42 H53 0.931 . S
C43 N41 1.375 . S
C43 C45 1.350 . S
C43 H52 0.930 . S
N44 C42 1.347 . S
N44 C45 1.373 . S
C45 C43 1.350 . S
C45 N44 1.373 . S
C45 H59 0.931 . S
C46 O49 1.256 . S
C46 O50 1.255 . S
O47 Co30 2.021 . S
O47 C40 1.259 1_655 S
O48 Co32 2.117 . S
O48 C40 1.258 . S
O49 Co32 2.020 . S
O49 C46 1.256 . S
O50 Co30 2.062 1_455 S
O50 C46 1.255 . S
O51 C31 1.259 . S
O51 Co32 2.021 . S
H52 C43 0.930 . S
H53 C42 0.931 . S
O54 Co30 2.117 1_455 S
O54 C31 1.258 . S
O55 Co30 2.020 . S
O55 C57 1.256 . S
O56 Co32 2.062 1_655 S
O56 C57 1.255 . S
C57 O55 1.256 . S
C57 O56 1.255 . S
H58 C37 0.931 . S
H59 C45 0.931 . S
Co60 N65 2.057 . S
Co60 O77 2.021 . S
Co60 O80 2.062 . S
Co60 O84 2.117 1_556 S
Co60 O85 2.020 . S
C61 O81 1.259 . S
C61 O84 1.258 . S
Co62 N71 2.057 . S
Co62 O78 2.117 . S
Co62 O79 2.020 . S
Co62 O81 2.021 1_556 S
Co62 O86 2.062 . S
C63 N65 1.316 . S
C63 N66 1.347 . S
C63 H68 0.931 . S
C64 N65 1.375 1_554 S
C64 C67 1.350 . S
C64 H69 0.930 . S
N65 Co60 2.057 . S
N65 C63 1.316 . S
N65 C64 1.375 1_556 S
N66 C63 1.347 . S
N66 C67 1.373 1_556 S
C67 C64 1.350 . S
C67 N66 1.373 1_554 S
C67 H88 0.931 . S
H68 C63 0.931 . S
H69 C64 0.930 . S
C70 O77 1.259 . S
C70 O78 1.258 . S
N71 Co62 2.057 . S
N71 C72 1.316 . S
N71 C73 1.375 . S
C72 N71 1.316 . S
C72 N74 1.347 . S
C72 H83 0.931 1_556 S
C73 N71 1.375 . S
C73 C75 1.350 . S
C73 H82 0.930 . S
N74 C72 1.347 . S
N74 C75 1.373 . S
C75 C73 1.350 . S
C75 N74 1.373 . S
C75 H89 0.931 . S
C76 O79 1.256 . S
C76 O80 1.255 . S
O77 Co60 2.021 . S
O77 C70 1.259 . S
O78 Co62 2.117 . S
O78 C70 1.258 . S
O79 Co62 2.020 . S
O79 C76 1.256 . S
O80 Co60 2.062 . S
O80 C76 1.255 . S
O81 C61 1.259 . S
O81 Co62 2.021 1_554 S
H82 C73 0.930 . S
H83 C72 0.931 1_554 S
O84 Co60 2.117 1_554 S
O84 C61 1.258 . S
O85 Co60 2.020 . S
O85 C87 1.256 . S
O86 Co62 2.062 . S
O86 C87 1.255 . S
C87 O85 1.256 . S
C87 O86 1.255 . S
H88 C67 0.931 . S
H89 C75 0.931 . S
Co90 N95 2.057 . S
Co90 O107 2.021 1_554 S
Co90 O110 2.062 . S
Co90 O114 2.117 . S
Co90 O115 2.020 . S
C91 O111 1.259 . S
C91 O114 1.258 . S
Co92 N101 2.057 . S
Co92 O108 2.117 1_554 S
Co92 O109 2.020 . S
Co92 O111 2.021 . S
Co92 O116 2.062 . S
C93 N95 1.316 . S
C93 N96 1.347 . S
C93 H98 0.931 1_554 S
C94 N95 1.375 . S
C94 C97 1.350 . S
C94 H99 0.930 . S
N95 Co90 2.057 . S
N95 C93 1.316 . S
N95 C94 1.375 . S
N96 C93 1.347 . S
N96 C97 1.373 . S
C97 C94 1.350 . S
C97 N96 1.373 . S
C97 H118 0.931 . S
H98 C93 0.931 1_556 S
H99 C94 0.930 . S
C100 O107 1.259 . S
C100 O108 1.258 . S
N101 Co92 2.057 . S
N101 C102 1.316 . S
N101 C103 1.375 1_554 S
C102 N101 1.316 . S
C102 N104 1.347 . S
C102 H113 0.931 . S
C103 N101 1.375 1_556 S
C103 C105 1.350 . S
C103 H112 0.930 . S
N104 C102 1.347 . S
N104 C105 1.373 1_554 S
C105 C103 1.350 . S
C105 N104 1.373 1_556 S
C105 H119 0.931 . S
C106 O109 1.256 . S
C106 O110 1.255 . S
O107 Co90 2.021 1_556 S
O107 C100 1.259 . S
O108 Co92 2.117 1_556 S
O108 C100 1.258 . S
O109 Co92 2.020 . S
O109 C106 1.256 . S
O110 Co90 2.062 . S
O110 C106 1.255 . S
O111 C91 1.259 . S
O111 Co92 2.021 . S
H112 C103 0.930 . S
H113 C102 0.931 . S
O114 Co90 2.117 . S
O114 C91 1.258 . S
O115 Co90 2.020 . S
O115 C117 1.256 . S
O116 Co92 2.062 . S
O116 C117 1.255 . S
C117 O115 1.256 . S
C117 O116 1.255 . S
H118 C97 0.931 . S
H119 C105 0.931 . S
C120 C121 1.387 . S
C120 H124 0.950 . S
C120 C129 1.390 . S
C121 C120 1.387 . S
C121 C123 1.387 1_455 S
H122 C129 0.950 . S
C123 C121 1.387 1_655 S
C123 C125 1.390 . S
C123 H127 0.950 . S
H124 C120 0.950 . S
C125 C123 1.390 . S
C125 C126 1.387 1_655 S
C125 H128 0.950 . S
C126 C125 1.387 1_455 S
C126 C129 1.387 . S
H127 C123 0.950 . S
H128 C125 0.950 . S
C129 C120 1.390 . S
C129 H122 0.950 . S
C129 C126 1.387 . S
C130 C131 1.387 . S
C130 H134 0.950 . S
C130 C139 1.390 . S
C131 C130 1.387 . S
C131 C133 1.387 . S
H132 C139 0.950 . S
C133 C131 1.387 . S
C133 C135 1.390 . S
C133 H137 0.950 . S
H134 C130 0.950 . S
C135 C133 1.390 . S
C135 C136 1.387 . S
C135 H138 0.950 . S
C136 C135 1.387 . S
C136 C139 1.387 . S
H137 C133 0.950 . S
H138 C135 0.950 . S
C139 C130 1.390 . S
C139 H132 0.950 . S
C139 C136 1.387 . S
C140 C141 1.387 . S
C140 H144 0.950 . S
C140 C149 1.390 1_554 S
C141 C140 1.387 . S
C141 C143 1.387 . S
H142 C149 0.950 . S
C143 C141 1.387 . S
C143 C145 1.390 1_554 S
C143 H147 0.950 . S
H144 C140 0.950 . S
C145 C143 1.390 1_556 S
C145 C146 1.387 . S
C145 H148 0.950 . S
C146 C145 1.387 . S
C146 C149 1.387 . S
H147 C143 0.950 . S
H148 C145 0.950 . S
C149 C140 1.390 1_556 S
C149 H142 0.950 . S
C149 C146 1.387 . S
C150 C151 1.387 . S
C150 H154 0.950 . S
C150 C159 1.390 . S
C151 C150 1.387 . S
C151 C153 1.387 . S
H152 C159 0.950 . S
C153 C151 1.387 . S
C153 C155 1.390 . S
C153 H157 0.950 . S
H154 C150 0.950 . S
C155 C153 1.390 . S
C155 C156 1.387 . S
C155 H158 0.950 . S
C156 C155 1.387 . S
C156 C159 1.387 . S
H157 C153 0.950 . S
H158 C155 0.950 . S
C159 C150 1.390 . S
C159 H152 0.950 . S
C159 C156 1.387 . S
C160 C161 1.387 . S
C160 H164 0.950 . S
C160 C169 1.390 . S
C161 C160 1.387 . S
C161 C163 1.387 . S
H162 C169 0.950 . S
C163 C161 1.387 . S
C163 C165 1.390 . S
C163 H167 0.950 . S
H164 C160 0.950 . S
C165 C163 1.390 . S
C165 C166 1.387 . S
C165 H168 0.950 . S
C166 C165 1.387 . S
C166 C169 1.387 . S
H167 C163 0.950 . S
H168 C165 0.950 . S
C169 C160 1.390 . S
C169 H162 0.950 . S
C169 C166 1.387 . S
C170 C171 1.387 . S
C170 H174 0.950 . S
C170 C179 1.390 . S
C171 C170 1.387 . S
C171 C173 1.387 . S
H172 C179 0.950 . S
C173 C171 1.387 . S
C173 C175 1.390 . S
C173 H177 0.950 . S
H174 C170 0.950 . S
C175 C173 1.390 . S
C175 C176 1.387 . S
C175 H178 0.950 . S
C176 C175 1.387 . S
C176 C179 1.387 . S
H177 C173 0.950 . S
H178 C175 0.950 . S
C179 C170 1.390 . S
C179 H172 0.950 . S
C179 C176 1.387 . S
C180 C181 1.387 . S
C180 H184 0.950 . S
C180 C189 1.390 1_566 S
C181 C180 1.387 . S
C181 C183 1.387 . S
H182 C189 0.950 . S
C183 C181 1.387 . S
C183 C185 1.390 1_566 S
C183 H187 0.950 . S
H184 C180 0.950 . S
C185 C183 1.390 1_544 S
C185 C186 1.387 . S
C185 H188 0.950 . S
C186 C185 1.387 . S
C186 C189 1.387 . S
H187 C183 0.950 . S
H188 C185 0.950 . S
C189 C180 1.390 1_544 S
C189 H182 0.950 . S
C189 C186 1.387 . S
C190 C191 1.387 . S
C190 H194 0.950 . S
C190 C199 1.390 1_565 S
C191 C190 1.387 . S
C191 C193 1.387 1_455 S
H192 C199 0.950 . S
C193 C191 1.387 1_655 S
C193 C195 1.390 1_565 S
C193 H197 0.950 . S
H194 C190 0.950 . S
C195 C193 1.390 1_545 S
C195 C196 1.387 1_655 S
C195 H198 0.950 . S
C196 C195 1.387 1_455 S
C196 C199 1.387 . S
H197 C193 0.950 . S
H198 C195 0.950 . S
C199 C190 1.390 1_545 S
C199 H192 0.950 . S
C199 C196 1.387 . S
C200 C201 1.387 1_556 S
C200 H204 0.950 . S
C200 C209 1.390 . S
C201 C200 1.387 1_554 S
C201 C203 1.387 1_554 S
H202 C209 0.950 . S
C203 C201 1.387 1_556 S
C203 C205 1.390 . S
C203 H207 0.950 . S
H204 C200 0.950 . S
C205 C203 1.390 . S
C205 C206 1.387 . S
C205 H208 0.950 . S
C206 C205 1.387 . S
C206 C209 1.387 . S
H207 C203 0.950 . S
H208 C205 0.950 . S
C209 C200 1.390 . S
C209 H202 0.950 . S
C209 C206 1.387 . S
C210 C211 1.387 1_654 S
C210 H214 0.950 1_554 S
C210 C219 1.390 . S
C211 C210 1.387 1_456 S
C211 C213 1.387 1_556 S
H212 C219 0.950 . S
C213 C211 1.387 1_554 S
C213 C215 1.390 . S
C213 H217 0.950 . S
H214 C210 0.950 1_556 S
C215 C213 1.390 . S
C215 C216 1.387 . S
C215 H218 0.950 . S
C216 C215 1.387 . S
C216 C219 1.387 1_455 S
H217 C213 0.950 . S
H218 C215 0.950 . S
C219 C210 1.390 . S
C219 H212 0.950 . S
C219 C216 1.387 1_655 S
C220 C221 1.387 . S
C220 H224 0.950 . S
C220 C229 1.390 . S
C221 C220 1.387 . S
C221 C223 1.387 . S
H222 C229 0.950 . S
C223 C221 1.387 . S
C223 C225 1.390 . S
C223 H227 0.950 . S
H224 C220 0.950 . S
C225 C223 1.390 . S
C225 C226 1.387 . S
C225 H228 0.950 . S
C226 C225 1.387 . S
C226 C229 1.387 . S
H227 C223 0.950 . S
H228 C225 0.950 . S
C229 C220 1.390 . S
C229 H222 0.950 . S
C229 C226 1.387 . S
C230 C231 1.387 . S
C230 H234 0.950 . S
C230 C239 1.390 . S
C231 C230 1.387 . S
C231 C233 1.387 . S
H232 C239 0.950 . S
C233 C231 1.387 . S
C233 C235 1.390 . S
C233 H237 0.950 . S
H234 C230 0.950 . S
C235 C233 1.390 . S
C235 C236 1.387 . S
C235 H238 0.950 . S
C236 C235 1.387 . S
C236 C239 1.387 . S
H237 C233 0.950 . S
H238 C235 0.950 . S
C239 C230 1.390 . S
C239 H232 0.950 . S
C239 C236 1.387 . S
C121 N14 1.834 . S
C126 N36 1.829 1_455 S
C131 C76 1.770 . S
C136 C57 1.770 . S
C141 N104 1.597 . S
C146 N66 1.597 . S
C151 C27 1.711 . S
C156 C106 1.711 . S
C161 C117 1.767 . S
C166 C16 1.767 . S
C171 C87 1.711 . S
C176 C46 1.711 . S
C181 N74 1.834 . S
C186 N96 1.834 . S
C191 N44 1.597 . S
C196 N6 1.597 . S
C201 C10 1.064 . S
C206 C1 1.064 . S
C211 C31 1.064 . S
C216 C40 1.064 . S
C221 C61 1.065 . S
C226 C70 1.065 . S
C231 C91 1.064 . S
C236 C100 1.064 . S
