# Generated by pormake.
# Topology pcu, (6)-cn, num edge types: 1
# Building blocks:
#     Node 0, Type 0, BuildingBlock: KUMBOL_clean_sbu_0, # of connection points: 6
#     Edge 1, Type (0, 0), BuildingBlock: KIFKEQ_clean_linker_1, # of connection points: 2
#     Edge 2, Type (0, 0), BuildingBlock: KIFKEQ_clean_linker_1, # of connection points: 2
#     Edge 3, Type (0, 0), BuildingBlock: KIFKEQ_clean_linker_1, # of connection points: 2
# Relax obj value: 0.000
# Max RMSD: 0.000
# Mean RMSD: 0.000
data_MOF--net-pcu--node1-KUMBOL_clean_sbu_0--edge1-KIFKEQ_clean_linker_1
_symmetry_space_group_name_H-M    P1
_symmetry_Int_Tables_number       1
_symmetry_cell_setting            triclinic
loop_
_symmetry_equiv_pos_as_xyz
'x, y, z'
_cell_length_a     24.649746
_cell_length_b     14.271689
_cell_length_c     15.513
_cell_angle_alpha  75.184947
_cell_angle_beta   115.24621
_cell_angle_gamma 115.81412
loop_
_atom_site_label
_atom_site_type_symbol
_atom_site_fract_x
_atom_site_fract_y
_atom_site_fract_z
_atom_type_partial_charge
Gd0 Gd 0.10986 0.07898 0.04037 0.0
Gd1 Gd 0.93268 0.93627 0.96068 0.0
C2 C 0.84603 0.59136 0.90991 0.0
C3 C 0.7931 0.59621 0.73683 0.0
C4 C 0.84855 0.75649 0.81643 0.0
C5 C 0.86617 0.70089 0.90404 0.0
C6 C 0.81057 0.70464 0.73201 0.0
C7 C 0.81084 0.53966 0.82565 0.0
C8 C 0.86013 0.53683 0.0004 0.0
C9 C 0.89149 0.59124 0.08204 0.0
N10 N 0.89985 0.75327 0.98398 0.0
C11 C 0.91067 0.70002 0.0725 0.0
H12 H 0.93552 0.74123 0.13616 0.0
C13 C 0.84288 0.91733 0.73157 0.0
N14 N 0.86593 0.86098 0.81448 0.0
C15 C 0.80544 0.86953 0.64578 0.0
C16 C 0.78991 0.76296 0.64576 0.0
H17 H 0.85531 0.99992 0.73134 0.0
H18 H 0.79563 0.45569 0.82862 0.0
H19 H 0.09779 0.27426 0.86599 0.0
H20 H 0.8456 0.45266 0.00801 0.0
H21 H 0.90151 0.54961 0.15238 0.0
H22 H 0.76451 0.55502 0.67263 0.0
H23 H 0.1929 0.01395 0.26483 0.0
H24 H 0.20407 0.56424 0.99398 0.0
H25 H 0.13458 0.46575 0.85046 0.0
H26 H 0.30399 0.46268 0.32442 0.0
H27 H 0.78866 0.91488 0.57978 0.0
H28 H 0.76071 0.72605 0.57926 0.0
H29 H 0.26672 0.56227 0.17117 0.0
H30 H 0.27083 0.0993 0.41349 0.0
N31 N 0.14407 0.26259 0.01764 0.0
C32 C 0.18793 0.47981 0.00139 0.0
C33 C 0.14882 0.42451 0.92023 0.0
C34 C 0.2071 0.42564 0.09084 0.0
C35 C 0.18438 0.31568 0.09656 0.0
C36 C 0.12804 0.31552 0.92949 0.0
N37 N 0.18393 0.15481 0.18415 0.0
C38 C 0.20503 0.25993 0.18261 0.0
C39 C 0.25248 0.14539 0.34917 0.0
C40 C 0.27241 0.25311 0.3499 0.0
C41 C 0.20846 0.09734 0.2649 0.0
C42 C 0.24934 0.31206 0.26564 0.0
H43 H 0.30656 0.2902 0.41521 0.0
O44 O 0.18838 0.02684 0.07587 0.0
O45 O 0.02832 0.92799 0.00347 0.0
O46 O 0.97997 0.93299 0.12347 0.0
O47 O 0.08 0.07277 0.16094 0.0
O48 O 0.10921 0.91959 0.11633 0.0
O49 O 0.16342 0.12658 0.94611 0.0
O50 O 0.85541 0.99219 0.92062 0.0
O51 O 1.01411 0.08745 0.00185 0.0
O52 O 0.06026 0.08691 0.87769 0.0
O53 O 0.96607 0.93786 0.84616 0.0
O54 O 0.934 0.09525 0.88533 0.0
O55 O 0.86902 0.87695 0.04144 0.0
C56 C 0.05198 0.86471 0.06329 0.0
C57 C 0.27037 0.42122 0.26125 0.0
C58 C 0.24919 0.47792 0.17399 0.0
C59 C 0.20342 0.08044 0.00216 0.0
C60 C 0.27257 0.14169 0.02029 0.0
C61 C 0.3006 0.24567 0.04255 0.0
C62 C 0.31076 0.09597 0.01351 0.0
C63 C 0.37666 0.15412 0.02712 0.0
C64 C 0.36572 0.30367 0.05676 0.0
C65 C 0.40343 0.2588 0.04859 0.0
C66 C 0.03001 1.0015 0.183 0.0
C67 C 0.98984 0.15034 0.94191 0.0
C68 C 0.83328 0.93048 0.98598 0.0
C69 C 0.76278 0.87434 0.95392 0.0
C70 C 0.73279 0.78557 0.90332 0.0
C71 C 0.72469 0.91294 0.97037 0.0
C72 C 0.65679 0.86438 0.93484 0.0
C73 C 0.66552 0.73671 0.86842 0.0
C74 C 0.62762 0.77608 0.88344 0.0
C75 C 1.01314 0.01353 0.82094 0.0
H76 H 0.2721 0.28235 0.04798 0.0
H77 H 0.28893 0.01498 -0.00205 0.0
H78 H 0.38691 0.38422 0.07313 0.0
H79 H 0.45331 0.30705 0.05745 0.0
H80 H 0.76124 0.75454 0.89024 0.0
H81 H 0.74779 0.98217 0.00872 0.0
H82 H 0.64265 0.6684 0.82914 0.0
H83 H 0.57551 0.73694 0.8557 0.0
H84 H 0.93057 0.88546 0.24824 0.0
H85 H 0.12419 0.11944 0.33119 0.0
H86 H 0.92478 0.8922 0.39853 0.0
H87 H 0.12054 0.12037 0.48462 0.0
H88 H 0.07587 0.17672 0.71676 0.0
H89 H 0.07855 0.17445 0.56215 0.0
H90 H 0.95869 0.84507 0.56057 0.0
H91 H 0.95311 0.84948 0.71168 0.0
C92 C 0.97252 0.93697 0.29922 0.0
C93 C 0.02825 1.00092 0.27762 0.0
C94 C 0.96936 0.94038 0.38618 0.0
C95 C 0.02228 1.00649 0.45486 0.0
C96 C 0.07828 0.06962 0.43344 0.0
C97 C 0.08089 0.06776 0.34564 0.0
C98 C 0.04981 0.10414 0.68283 0.0
C99 C 1.01409 0.01352 0.72626 0.0
C100 C 0.05175 0.1024 0.59441 0.0
C101 C 1.01906 0.0094 0.54817 0.0
C102 C 0.98345 0.91879 0.59231 0.0
C103 C 0.98052 0.9211 0.67964 0.0
H104 H 0.50561 0.18955 0.12855 0.0
H105 H 0.3401 0.01167 0.90289 0.0
H106 H 0.57301 0.12248 0.10525 0.0
H107 H 0.40634 0.93766 0.88522 0.0
H108 H 0.55313 0.90832 0.8012 0.0
H109 H 0.48615 0.97705 0.82482 0.0
H110 H 0.60024 0.97886 0.12774 0.0
H111 H 0.6689 0.9148 0.10236 0.0
C112 C 0.48334 0.13582 0.07409 0.0
C113 C 0.41716 0.1071 0.01714 0.0
C114 C 0.52201 0.09576 0.06178 0.0
C115 C 0.49555 0.02442 0.9931 0.0
C116 C 0.42903 0.99381 0.93766 0.0
C117 C 0.39055 0.03505 0.94903 0.0
C118 C 0.56371 0.92347 0.87276 0.0
C119 C 0.6162 0.90631 0.94992 0.0
C120 C 0.52505 0.96227 0.88663 0.0
C121 C 0.53719 0.98335 0.97843 0.0
C122 C 0.5898 0.96557 0.0557 0.0
C123 C 0.62911 0.92836 0.04143 0.0
H124 H 1.01415 0.79238 0.8919 0.0
H125 H 0.06222 0.69897 0.19348 0.0
H126 H 1.00271 0.62478 0.86319 0.0
H127 H 0.04512 0.52641 0.16551 0.0
H128 H 0.06116 0.24725 0.10994 0.0
H129 H 0.07786 0.41903 0.13741 0.0
H130 H 0.94979 0.45587 0.84556 0.0
H131 H 0.94099 0.29018 0.81628 0.0
C132 C 1.02018 0.73428 0.95183 0.0
C133 C 0.03755 0.75793 0.04464 0.0
C134 C 1.01341 0.63694 0.93558 0.0
C135 C 0.0225 0.55903 0.01159 0.0
C136 C 0.03912 0.58335 0.10459 0.0
C137 C 0.04803 0.68217 0.12098 0.0
C138 C 0.03865 0.29394 0.05087 0.0
C139 C 1.00209 0.25668 0.95983 0.0
C140 C 0.0467 0.39228 0.06711 0.0
C141 C 1.01542 0.45426 0.99398 0.0
C142 C 0.9769 0.41429 0.90362 0.0
C143 C 0.97109 0.31793 0.88668 0.0
loop_
_geom_bond_atom_site_label_1
_geom_bond_atom_site_label_2
_geom_bond_distance
_geom_bond_site_symmetry_2
_ccdc_geom_bond_type
Gd0 N31 2.661 1_554 S
Gd0 N37 2.601 . S
Gd0 O44 2.545 . S
Gd0 O45 2.606 1_444 S
Gd0 O47 2.429 1_545 S
Gd0 O48 2.545 1_545 S
Gd0 O49 2.412 . S
Gd0 O51 2.362 . S
Gd0 O52 2.324 1_554 S
Gd0 C59 2.828 . S
Gd1 N10 2.661 1_556 S
Gd1 N14 2.601 . S
Gd1 O45 2.362 . S
Gd1 O46 2.324 1_556 S
Gd1 O50 2.545 . S
Gd1 O51 2.606 1_666 S
Gd1 O53 2.429 1_565 S
Gd1 O54 2.545 1_565 S
Gd1 O55 2.412 . S
Gd1 C68 2.828 . S
C2 C5 1.417 . S
C2 C7 1.431 . S
C2 C8 1.412 1_556 S
C3 C6 1.437 . S
C3 C7 1.317 . S
C3 H22 0.929 . S
C4 C5 1.426 . S
C4 C6 1.413 . S
C4 N14 1.359 . S
C5 C2 1.417 . S
C5 C4 1.426 . S
C5 N10 1.350 1_556 S
C6 C3 1.437 . S
C6 C4 1.413 . S
C6 C16 1.391 . S
C7 C2 1.431 . S
C7 C3 1.317 . S
C7 H18 0.930 . S
C8 C2 1.412 1_554 S
C8 C9 1.355 . S
C8 H20 0.930 . S
C9 C8 1.355 . S
C9 C11 1.402 . S
C9 H21 0.930 . S
N10 Gd1 2.661 1_554 S
N10 C5 1.350 1_554 S
N10 C11 1.307 . S
C11 C9 1.402 . S
C11 N10 1.307 . S
C11 H12 0.930 . S
H12 C11 0.930 . S
C13 N14 1.334 . S
C13 C15 1.394 . S
C13 H17 0.930 . S
N14 Gd1 2.601 . S
N14 C4 1.359 . S
N14 C13 1.334 . S
C15 C13 1.394 . S
C15 C16 1.359 . S
C15 H27 0.930 . S
C16 C6 1.391 . S
C16 C15 1.359 . S
C16 H28 0.929 . S
H17 C13 0.930 . S
H18 C7 0.930 . S
H19 C36 0.930 . S
H20 C8 0.930 . S
H21 C9 0.930 . S
H22 C3 0.929 . S
H23 C41 0.930 . S
H24 C32 0.930 . S
H25 C33 0.930 . S
H26 C57 0.929 . S
H27 C15 0.930 . S
H28 C16 0.929 . S
H29 C58 0.930 . S
H30 C39 0.930 . S
N31 Gd0 2.661 1_556 S
N31 C35 1.350 1_556 S
N31 C36 1.307 . S
C32 H24 0.930 . S
C32 C33 1.355 . S
C32 C34 1.412 1_556 S
C33 H25 0.930 . S
C33 C32 1.355 . S
C33 C36 1.402 . S
C34 C32 1.412 1_554 S
C34 C35 1.417 . S
C34 C58 1.431 . S
C35 N31 1.350 1_554 S
C35 C34 1.417 . S
C35 C38 1.426 . S
C36 H19 0.930 . S
C36 N31 1.307 . S
C36 C33 1.402 . S
N37 Gd0 2.601 . S
N37 C38 1.359 . S
N37 C41 1.334 . S
C38 C35 1.426 . S
C38 N37 1.359 . S
C38 C42 1.413 . S
C39 H30 0.930 . S
C39 C40 1.359 . S
C39 C41 1.394 . S
C40 C39 1.359 . S
C40 C42 1.391 . S
C40 H43 0.929 . S
C41 H23 0.930 . S
C41 N37 1.334 . S
C41 C39 1.394 . S
C42 C38 1.413 . S
C42 C40 1.391 . S
C42 C57 1.437 . S
H43 C40 0.929 . S
O44 Gd0 2.545 . S
O44 C59 1.258 . S
O45 Gd0 2.606 1_666 S
O45 Gd1 2.362 . S
O45 C56 1.284 1_656 S
O46 Gd1 2.324 1_554 S
O46 C66 1.254 1_655 S
O47 Gd0 2.429 1_565 S
O47 C66 1.268 . S
O48 Gd0 2.545 1_565 S
O48 C56 1.250 . S
O49 Gd0 2.412 . S
O49 C59 1.252 . S
O50 Gd1 2.545 . S
O50 C68 1.258 . S
O51 Gd0 2.362 . S
O51 Gd1 2.606 1_444 S
O51 C67 1.284 1_454 S
O52 Gd0 2.324 1_556 S
O52 C75 1.254 1_455 S
O53 Gd1 2.429 1_545 S
O53 C75 1.268 . S
O54 Gd1 2.545 1_545 S
O54 C67 1.250 . S
O55 Gd1 2.412 . S
O55 C68 1.252 . S
C56 O45 1.284 1_454 S
C56 O48 1.250 . S
C57 H26 0.929 . S
C57 C42 1.437 . S
C57 C58 1.317 . S
C58 H29 0.930 . S
C58 C34 1.431 . S
C58 C57 1.317 . S
C59 Gd0 2.828 . S
C59 O44 1.258 . S
C59 O49 1.252 . S
C59 C60 1.497 . S
C60 C59 1.497 . S
C60 C61 1.395 . S
C60 C62 1.380 . S
C61 C60 1.395 . S
C61 C64 1.398 . S
C61 H76 0.930 . S
C62 C60 1.380 . S
C62 C63 1.391 . S
C62 H77 0.930 1_554 S
C63 C62 1.391 . S
C63 C65 1.387 . S
C64 C61 1.398 . S
C64 C65 1.380 . S
C64 H78 0.930 . S
C65 C63 1.387 . S
C65 C64 1.380 . S
C65 H79 0.930 . S
C66 O46 1.254 1_455 S
C66 O47 1.268 . S
C67 O51 1.284 1_656 S
C67 O54 1.250 . S
C68 Gd1 2.828 . S
C68 O50 1.258 . S
C68 O55 1.252 . S
C68 C69 1.497 . S
C69 C68 1.497 . S
C69 C70 1.395 . S
C69 C71 1.380 . S
C70 C69 1.395 . S
C70 C73 1.398 . S
C70 H80 0.930 . S
C71 C69 1.380 . S
C71 C72 1.391 . S
C71 H81 0.930 1_556 S
C72 C71 1.391 . S
C72 C74 1.387 . S
C73 C70 1.398 . S
C73 C74 1.380 . S
C73 H82 0.930 . S
C74 C72 1.387 . S
C74 C73 1.380 . S
C74 H83 0.930 . S
C75 O52 1.254 1_655 S
C75 O53 1.268 . S
H76 C61 0.930 . S
H77 C62 0.930 1_556 S
H78 C64 0.930 . S
H79 C65 0.930 . S
H80 C70 0.930 . S
H81 C71 0.930 1_554 S
H82 C73 0.930 . S
H83 C74 0.930 . S
H84 C92 0.950 . S
H85 C97 0.950 . S
H86 C94 0.950 . S
H87 C96 0.950 . S
H88 C98 0.950 . S
H89 C100 0.950 . S
H90 C102 0.950 . S
H91 C103 0.950 . S
C92 H84 0.950 . S
C92 C93 1.386 1_545 S
C92 C94 1.391 . S
C93 C92 1.386 1_565 S
C93 C97 1.393 1_655 S
C94 H86 0.950 . S
C94 C92 1.391 . S
C94 C95 1.400 1_545 S
C95 C94 1.400 1_565 S
C95 C96 1.398 1_655 S
C95 C101 1.491 1_665 S
C96 H87 0.950 . S
C96 C95 1.398 1_455 S
C96 C97 1.391 . S
C97 H85 0.950 . S
C97 C93 1.393 1_455 S
C97 C96 1.391 . S
C98 H88 0.950 . S
C98 C99 1.386 1_565 S
C98 C100 1.391 . S
C99 C98 1.386 1_545 S
C99 C103 1.393 1_455 S
C100 H89 0.950 . S
C100 C98 1.391 . S
C100 C101 1.400 1_565 S
C101 C95 1.491 1_445 S
C101 C100 1.400 1_545 S
C101 C102 1.398 1_455 S
C102 H90 0.950 . S
C102 C101 1.398 1_655 S
C102 C103 1.391 . S
C103 H91 0.950 . S
C103 C99 1.393 1_655 S
C103 C102 1.391 . S
H104 C112 0.950 . S
H105 C117 0.950 . S
H106 C114 0.950 . S
H107 C116 0.950 . S
H108 C118 0.950 . S
H109 C120 0.950 . S
H110 C122 0.950 . S
H111 C123 0.950 . S
C112 H104 0.950 . S
C112 C113 1.388 1_545 S
C112 C114 1.391 . S
C113 C112 1.388 1_565 S
C113 C117 1.389 1_554 S
C114 H106 0.950 . S
C114 C112 1.391 . S
C114 C115 1.403 1_545 S
C115 C114 1.403 1_565 S
C115 C116 1.397 1_554 S
C115 C121 1.489 1_564 S
C116 H107 0.950 . S
C116 C115 1.397 1_556 S
C116 C117 1.391 . S
C117 H105 0.950 . S
C117 C113 1.389 1_556 S
C117 C116 1.391 . S
C118 H108 0.950 . S
C118 C119 1.386 1_565 S
C118 C120 1.391 . S
C119 C118 1.386 1_545 S
C119 C123 1.392 1_556 S
C120 H109 0.950 . S
C120 C118 1.391 . S
C120 C121 1.400 1_565 S
C121 C115 1.489 1_546 S
C121 C120 1.400 1_545 S
C121 C122 1.398 1_556 S
C122 H110 0.950 . S
C122 C121 1.398 1_554 S
C122 C123 1.391 . S
C123 H111 0.950 . S
C123 C119 1.392 1_554 S
C123 C122 1.391 . S
H124 C132 0.950 . S
H125 C137 0.955 1_556 S
H126 C134 0.950 . S
H127 C136 0.950 . S
H128 C138 0.950 . S
H129 C140 0.950 . S
H130 C142 0.950 . S
H131 C143 0.953 1_554 S
C132 H124 0.950 . S
C132 C133 1.397 . S
C132 C134 1.391 . S
C133 C132 1.397 . S
C133 C137 1.386 1_455 S
C134 H126 0.950 . S
C134 C132 1.391 . S
C134 C135 1.403 . S
C135 C134 1.403 . S
C135 C136 1.392 1_455 S
C135 C141 1.495 1_454 S
C136 H127 0.950 . S
C136 C135 1.392 1_655 S
C136 C137 1.387 . S
C137 H125 0.955 1_554 S
C137 C133 1.386 1_655 S
C137 C136 1.387 . S
C138 H128 0.950 . S
C138 C139 1.392 . S
C138 C140 1.391 . S
C139 C138 1.392 . S
C139 C143 1.389 1_655 S
C140 H129 0.950 . S
C140 C138 1.391 . S
C140 C141 1.401 . S
C141 C135 1.495 1_656 S
C141 C140 1.401 . S
C141 C142 1.397 1_655 S
C142 H130 0.950 . S
C142 C141 1.397 1_455 S
C142 C143 1.388 . S
C143 H131 0.953 1_556 S
C143 C139 1.389 1_455 S
C143 C142 1.388 . S
C93 C66 1.469 1_655 S
C99 C75 1.469 1_455 S
C113 C63 1.336 1_565 S
C119 C72 1.334 1_545 S
C133 C56 1.426 . S
C139 C67 1.427 . S
