# Generated by pormake.
# Topology cdl, (4)-cn, num edge types: 1
# Building blocks:
#     Node 0, Type 0, BuildingBlock: NAWXER_clean_sbu_0, # of connection points: 4
#     Node 1, Type 0, BuildingBlock: NAWXER_clean_sbu_0, # of connection points: 4
#     Node 2, Type 0, BuildingBlock: NAWXER_clean_sbu_0, # of connection points: 4
#     Node 3, Type 0, BuildingBlock: NAWXER_clean_sbu_0, # of connection points: 4
#     Edge 4, Type (0, 0), None
#     Edge 5, Type (0, 0), None
#     Edge 6, Type (0, 0), None
#     Edge 7, Type (0, 0), None
#     Edge 8, Type (0, 0), None
#     Edge 9, Type (0, 0), None
#     Edge 10, Type (0, 0), None
#     Edge 11, Type (0, 0), None
# Relax obj value: 0.000
# Max RMSD: 0.003
# Mean RMSD: 0.003
data_MOF--net-cdl--node1-NAWXER_clean_sbu_0--edge1-none
_symmetry_space_group_name_H-M    P1
_symmetry_Int_Tables_number       1
_symmetry_cell_setting            triclinic
loop_
_symmetry_equiv_pos_as_xyz
'x, y, z'
_cell_length_a     6.2098673
_cell_length_b     6.2098626
_cell_length_c     25.180137
_cell_angle_alpha  92.116059
_cell_angle_beta   92.122247
_cell_angle_gamma 89.672767
loop_
_atom_site_label
_atom_site_type_symbol
_atom_site_fract_x
_atom_site_fract_y
_atom_site_fract_z
_atom_type_partial_charge
C0 C 0.44494 0.50127 0.14632 0.0
C1 C 0.44524 0.7137 0.14559 0.0
O2 O 0.61533 0.38663 0.148 0.0
Zn3 Zn 0.46255 0.10686 0.14602 0.0
O4 O 0.25967 0.41333 0.14508 0.0
Zn5 Zn 0.11334 0.1098 0.14343 0.0
O6 O 0.956 0.11398 0.20774 0.0
O7 O 0.31013 0.10575 0.22207 0.0
O8 O 0.26003 0.80369 0.14401 0.0
O9 O 0.61607 0.82639 0.14648 0.0
O10 O 0.30867 0.10038 0.0674 0.0
O11 O 0.95548 0.10392 0.07667 0.0
C12 C 0.11867 0.10819 0.23967 0.0
C13 C 0.11621 0.10072 0.04689 0.0
C14 C 0.50129 0.44499 0.6463 0.0
C15 C 0.71372 0.44529 0.64557 0.0
O16 O 0.41335 0.25972 0.64507 0.0
Zn17 Zn 0.10982 0.11339 0.64343 0.0
O18 O 0.38665 0.61538 0.64798 0.0
Zn19 Zn 0.10688 0.4626 0.64601 0.0
O20 O 0.10579 0.3102 0.72206 0.0
O21 O 0.11402 0.95606 0.70775 0.0
O22 O 0.8264 0.61611 0.64646 0.0
O23 O 0.80371 0.26008 0.644 0.0
O24 O 0.10391 0.95552 0.57668 0.0
O25 O 0.10037 0.30869 0.56739 0.0
C26 C 0.10824 0.11874 0.73967 0.0
C27 C 0.10071 0.11623 0.54689 0.0
C28 C 0.75335 0.48492 0.89028 0.0
C29 C 0.75364 0.69735 0.88955 0.0
O30 O 0.93855 0.39493 0.89186 0.0
Zn31 Zn 0.08524 0.08882 0.89243 0.0
O32 O 0.58252 0.37224 0.88939 0.0
Zn33 Zn 0.73603 0.09176 0.88984 0.0
O34 O 0.88992 0.09824 0.96846 0.0
O35 O 0.24311 0.09471 0.95919 0.0
O36 O 0.58325 0.81199 0.88786 0.0
O37 O 0.93891 0.7853 0.89078 0.0
O38 O 0.24259 0.08464 0.82812 0.0
O39 O 0.88845 0.09287 0.81379 0.0
C40 C 0.08238 0.0979 0.98897 0.0
C41 C 0.0799 0.09042 0.79619 0.0
C42 C 0.48487 0.75334 0.39029 0.0
C43 C 0.6973 0.75363 0.38956 0.0
O44 O 0.37218 0.58251 0.38941 0.0
Zn45 Zn 0.09171 0.73602 0.38985 0.0
O46 O 0.39487 0.93854 0.39186 0.0
Zn47 Zn 0.08876 0.08523 0.39243 0.0
O48 O 0.09467 0.24311 0.45919 0.0
O49 O 0.09821 0.88993 0.46847 0.0
O50 O 0.78524 0.9389 0.39079 0.0
O51 O 0.81193 0.58324 0.38788 0.0
O52 O 0.09279 0.88842 0.3138 0.0
O53 O 0.08456 0.24256 0.32811 0.0
C54 C 0.09788 0.08239 0.48898 0.0
C55 C 0.09033 0.07987 0.29619 0.0
loop_
_geom_bond_atom_site_label_1
_geom_bond_atom_site_label_2
_geom_bond_distance
_geom_bond_site_symmetry_2
_ccdc_geom_bond_type
C0 O2 1.247 . S
C0 O4 1.258 1_455 S
C1 O8 1.247 1_455 S
C1 O9 1.258 . S
O2 C0 1.247 . S
O2 Zn3 2.028 . S
Zn3 O2 2.028 . S
Zn3 O7 2.035 . S
Zn3 O9 2.035 1_545 S
Zn3 O10 2.028 . S
O4 C0 1.258 1_655 S
O4 Zn5 2.035 . S
Zn5 O4 2.035 . S
Zn5 O6 2.028 . S
Zn5 O8 2.028 1_545 S
Zn5 O11 2.035 . S
O6 Zn5 2.028 . S
O6 C12 1.247 1_655 S
O7 Zn3 2.035 . S
O7 C12 1.258 . S
O8 C1 1.247 1_655 S
O8 Zn5 2.028 1_565 S
O9 C1 1.258 . S
O9 Zn3 2.035 1_565 S
O10 Zn3 2.028 . S
O10 C13 1.247 . S
O11 Zn5 2.035 . S
O11 C13 1.258 1_655 S
C12 O6 1.247 1_455 S
C12 O7 1.258 . S
C13 O10 1.247 . S
C13 O11 1.258 1_455 S
C14 O16 1.247 1_545 S
C14 O18 1.258 . S
C15 O22 1.247 . S
C15 O23 1.258 1_545 S
O16 C14 1.247 1_565 S
O16 Zn17 2.028 . S
Zn17 O16 2.028 . S
Zn17 O21 2.035 . S
Zn17 O23 2.035 1_455 S
Zn17 O24 2.028 . S
O18 C14 1.258 . S
O18 Zn19 2.035 . S
Zn19 O18 2.035 . S
Zn19 O20 2.028 . S
Zn19 O22 2.028 1_455 S
Zn19 O25 2.035 . S
O20 Zn19 2.028 . S
O20 C26 1.247 . S
O21 Zn17 2.035 . S
O21 C26 1.258 1_565 S
O22 C15 1.247 . S
O22 Zn19 2.028 1_655 S
O23 C15 1.258 1_565 S
O23 Zn17 2.035 1_655 S
O24 Zn17 2.028 . S
O24 C27 1.247 1_565 S
O25 Zn19 2.035 . S
O25 C27 1.258 . S
C26 O20 1.247 . S
C26 O21 1.258 1_545 S
C27 O24 1.247 1_545 S
C27 O25 1.258 . S
C28 O30 1.247 . S
C28 O32 1.258 1_455 S
C29 O36 1.247 1_455 S
C29 O37 1.258 . S
O30 C28 1.247 . S
O30 Zn31 2.028 . S
Zn31 O30 2.028 . S
Zn31 O35 2.035 . S
Zn31 O37 2.035 1_545 S
Zn31 O38 2.028 . S
O32 C28 1.258 1_655 S
O32 Zn33 2.035 . S
Zn33 O32 2.035 . S
Zn33 O34 2.028 . S
Zn33 O36 2.028 1_545 S
Zn33 O39 2.035 . S
O34 Zn33 2.028 . S
O34 C40 1.247 1_655 S
O35 Zn31 2.035 . S
O35 C40 1.258 . S
O36 C29 1.247 1_655 S
O36 Zn33 2.028 1_565 S
O37 C29 1.258 . S
O37 Zn31 2.035 1_565 S
O38 Zn31 2.028 . S
O38 C41 1.247 . S
O39 Zn33 2.035 . S
O39 C41 1.258 1_655 S
C40 O34 1.247 1_455 S
C40 O35 1.258 . S
C41 O38 1.247 . S
C41 O39 1.258 1_455 S
C42 O44 1.247 1_545 S
C42 O46 1.258 . S
C43 O50 1.247 . S
C43 O51 1.258 1_545 S
O44 C42 1.247 1_565 S
O44 Zn45 2.028 . S
Zn45 O44 2.028 . S
Zn45 O49 2.035 . S
Zn45 O51 2.035 1_455 S
Zn45 O52 2.028 . S
O46 C42 1.258 . S
O46 Zn47 2.035 . S
Zn47 O46 2.035 . S
Zn47 O48 2.028 . S
Zn47 O50 2.028 1_455 S
Zn47 O53 2.035 . S
O48 Zn47 2.028 . S
O48 C54 1.247 . S
O49 Zn45 2.035 . S
O49 C54 1.258 1_565 S
O50 C43 1.247 . S
O50 Zn47 2.028 1_655 S
O51 C43 1.258 1_565 S
O51 Zn45 2.035 1_655 S
O52 Zn45 2.028 . S
O52 C55 1.247 1_565 S
O53 Zn47 2.035 . S
O53 C55 1.258 . S
C54 O48 1.247 . S
C54 O49 1.258 1_545 S
C55 O52 1.247 1_545 S
C55 O53 1.258 . S
C0 C1 1.500 . S
C14 C15 1.500 . S
C28 C29 1.500 . S
C42 C43 1.500 . S
C40 C13 1.501 1_556 S
C54 C27 1.500 . S
C55 C12 1.499 . S
C26 C41 1.498 . S
