# Generated by pormake.
# Topology pcu, (6)-cn, num edge types: 1
# Building blocks:
#     Node 0, Type 0, BuildingBlock: INOVEN_clean_sbu_0, # of connection points: 6
#     Edge 1, Type (0, 0), BuildingBlock: OJICUG_clean_linker_0, # of connection points: 2
#     Edge 2, Type (0, 0), BuildingBlock: OJICUG_clean_linker_0, # of connection points: 2
#     Edge 3, Type (0, 0), BuildingBlock: OJICUG_clean_linker_0, # of connection points: 2
# Relax obj value: 0.000
# Max RMSD: 0.000
# Mean RMSD: 0.000
data_MOF--net-pcu--node1-INOVEN_clean_sbu_0--edge1-OJICUG_clean_linker_0
_symmetry_space_group_name_H-M    P1
_symmetry_Int_Tables_number       1
_symmetry_cell_setting            triclinic
loop_
_symmetry_equiv_pos_as_xyz
'x, y, z'
_cell_length_a     21.112328
_cell_length_b     11.456522
_cell_length_c     10.260907
_cell_angle_alpha  86.872204
_cell_angle_beta   99.213778
_cell_angle_gamma 121.8882
loop_
_atom_site_label
_atom_site_type_symbol
_atom_site_fract_x
_atom_site_fract_y
_atom_site_fract_z
_atom_type_partial_charge
Gd0 Gd 0.95246 0.88038 0.02659 0.0
Gd1 Gd 0.12112 0.05162 1.0229 0.0
C2 C 0.03918 0.21596 1.01974 0.0
C3 C 0.81698 0.77961 0.0768 0.0
C4 C 0.76089 0.82164 0.06503 0.0
C5 C 0.70519 0.7816 0.95261 0.0
C6 C 0.76077 0.89811 0.16756 0.0
C7 C 0.65099 0.89475 0.04478 0.0
C8 C 0.70654 0.93443 0.15742 0.0
C9 C 0.6511 0.81822 0.94237 0.0
C10 C 0.9929 0.91882 0.78414 0.0
C11 C 1.03438 0.71606 0.02935 0.0
C12 C 0.25677 0.15266 0.97348 0.0
C13 C 0.31279 0.11048 0.98509 0.0
C14 C 0.36857 0.15058 0.09739 0.0
C15 C 0.31277 0.03379 0.88259 0.0
C16 C 0.42257 0.0371 1.00518 0.0
C17 C 0.36696 -0.00264 0.89265 0.0
C18 C 0.42261 0.11384 0.10756 0.0
C19 C 0.08025 0.01308 0.26518 0.0
O20 O 0.98081 0.09927 0.0516 0.0
O21 O 0.09776 0.22024 0.98416 0.0
O22 O 0.8315 0.75294 0.96665 0.0
O23 O 0.87752 0.84615 0.16543 0.0
O24 O 0.93603 0.80575 0.81782 0.0
O25 O 1.02264 0.00823 0.87693 0.0
O26 O 0.09273 0.83276 0.99744 0.0
O27 O 0.97585 0.71178 0.06512 0.0
O28 O 0.24202 0.17854 0.08376 0.0
O29 O 0.1964 0.0868 0.88439 0.0
O30 O 0.13704 0.12635 0.23156 0.0
O31 O 0.051 0.92378 0.17241 0.0
H32 H 0.70297 0.72098 0.87264 0.0
H33 H 0.80244 0.92972 0.25607 0.0
H34 H 0.70848 -0.00544 0.23753 0.0
H35 H 0.60844 0.78426 0.85515 0.0
H36 H 0.3709 0.21137 0.17732 0.0
H37 H 0.27104 0.00211 0.79417 0.0
H38 H 0.36492 0.93709 0.81257 0.0
H39 H 0.46533 0.14784 0.19469 0.0
C40 C 0.99915 0.8589 0.42853 0.0
C41 C 0.0577 -0.01127 0.39769 0.0
H42 H 0.93284 0.73511 0.57561 0.0
C43 C 0.09489 0.09546 0.49486 0.0
H44 H 0.96968 0.77473 0.35554 0.0
C45 C 0.07391 0.07281 0.6207 0.0
C46 C 1.01536 0.943 0.65155 0.0
H47 H 0.1402 0.19661 0.47365 0.0
H48 H 0.10341 0.157 0.69367 0.0
C49 C 0.97815 0.83626 0.55438 0.0
C50 C 0.51527 0.0093 0.90533 0.0
C51 C 0.48089 9e-05 1.0152 0.0
H52 H 0.59664 -0.01436 0.82903 0.0
C53 C 0.50302 0.95622 0.13492 0.0
H54 H 0.5004 0.04485 0.81227 0.0
C55 C 0.55822 0.92239 0.14456 0.0
C56 C 0.59262 0.93162 0.03471 0.0
H57 H 0.47686 0.94607 0.22087 0.0
H58 H 0.57308 0.88683 0.23763 0.0
C59 C 0.57048 -0.02453 0.91497 0.0
C60 C 0.09781 0.59033 0.99132 0.0
C61 C 1.03569 0.58819 0.02737 0.0
H62 H 0.14769 0.47505 0.96046 0.0
C63 C 0.97466 0.46246 0.06045 0.0
H64 H 0.14581 0.68534 0.96512 0.0
C65 C 0.97573 0.34168 0.05763 0.0
C66 C 0.03785 0.34383 1.0216 0.0
H67 H 0.92585 0.45697 0.0885 0.0
H68 H 0.92774 0.24669 0.08384 0.0
C69 C 0.09888 0.46955 0.98849 0.0
loop_
_geom_bond_atom_site_label_1
_geom_bond_atom_site_label_2
_geom_bond_distance
_geom_bond_site_symmetry_2
_ccdc_geom_bond_type
Gd0 C3 2.818 . S
Gd0 O20 2.377 1_565 S
Gd0 O22 2.448 . S
Gd0 O23 2.506 1_556 S
Gd0 O24 2.435 . S
Gd0 O25 2.717 1_665 S
Gd0 O27 2.395 . S
Gd0 O31 2.327 1_556 S
Gd1 C12 2.818 . S
Gd1 O21 2.395 . S
Gd1 O25 2.327 1_554 S
Gd1 O26 2.377 1_545 S
Gd1 O28 2.448 . S
Gd1 O29 2.506 1_554 S
Gd1 O30 2.435 . S
Gd1 O31 2.717 1_445 S
C2 O20 1.240 1_455 S
C2 O21 1.240 1_556 S
C3 Gd0 2.818 . S
C3 C4 1.510 . S
C3 O22 1.249 . S
C3 O23 1.252 1_556 S
C4 C3 1.510 . S
C4 C5 1.404 . S
C4 C6 1.352 1_566 S
C5 C4 1.404 . S
C5 C9 1.389 . S
C5 H32 0.930 . S
C6 C4 1.352 1_544 S
C6 C8 1.374 . S
C6 H33 0.931 . S
C7 C8 1.359 1_565 S
C7 C9 1.364 1_554 S
C8 C6 1.374 . S
C8 C7 1.359 1_545 S
C8 H34 0.931 . S
C9 C5 1.389 . S
C9 C7 1.364 1_556 S
C9 H35 0.931 . S
C10 O24 1.256 . S
C10 O25 1.257 1_665 S
C11 O26 1.240 1_655 S
C11 O27 1.240 1_554 S
C12 Gd1 2.818 . S
C12 C13 1.510 . S
C12 O28 1.249 . S
C12 O29 1.252 1_554 S
C13 C12 1.510 . S
C13 C14 1.404 . S
C13 C15 1.352 1_544 S
C14 C13 1.404 . S
C14 C18 1.389 . S
C14 H36 0.930 . S
C15 C13 1.352 1_566 S
C15 C17 1.374 . S
C15 H37 0.931 . S
C16 C17 1.359 1_545 S
C16 C18 1.364 1_556 S
C17 C15 1.374 . S
C17 C16 1.359 1_565 S
C17 H38 0.931 . S
C18 C14 1.389 . S
C18 C16 1.364 1_554 S
C18 H39 0.931 . S
C19 O30 1.256 . S
C19 O31 1.257 1_445 S
O20 Gd0 2.377 1_545 S
O20 C2 1.240 1_655 S
O21 Gd1 2.395 . S
O21 C2 1.240 1_554 S
O22 Gd0 2.448 . S
O22 C3 1.249 . S
O23 Gd0 2.506 1_554 S
O23 C3 1.252 1_554 S
O24 Gd0 2.435 . S
O24 C10 1.256 . S
O25 Gd0 2.717 1_445 S
O25 Gd1 2.327 1_556 S
O25 C10 1.257 1_445 S
O26 Gd1 2.377 1_565 S
O26 C11 1.240 1_455 S
O27 Gd0 2.395 . S
O27 C11 1.240 1_556 S
O28 Gd1 2.448 . S
O28 C12 1.249 . S
O29 Gd1 2.506 1_556 S
O29 C12 1.252 1_556 S
O30 Gd1 2.435 . S
O30 C19 1.256 . S
O31 Gd0 2.327 1_554 S
O31 Gd1 2.717 1_665 S
O31 C19 1.257 1_665 S
H32 C5 0.930 . S
H33 C6 0.931 . S
H34 C8 0.931 . S
H35 C9 0.931 . S
H36 C14 0.930 . S
H37 C15 0.931 . S
H38 C17 0.931 . S
H39 C18 0.931 . S
C40 C41 1.388 1_565 S
C40 H44 0.950 . S
C40 C49 1.390 . S
C41 C40 1.388 1_545 S
C41 C43 1.387 1_655 S
H42 C49 0.950 . S
C43 C41 1.387 1_455 S
C43 C45 1.390 . S
C43 H47 0.950 . S
H44 C40 0.950 . S
C45 C43 1.390 . S
C45 C46 1.388 . S
C45 H48 0.950 . S
C46 C45 1.388 . S
C46 C49 1.388 1_445 S
H47 C43 0.950 . S
H48 C45 0.950 . S
C49 C40 1.390 . S
C49 H42 0.950 . S
C49 C46 1.388 1_665 S
C50 C51 1.388 1_545 S
C50 H54 0.950 . S
C50 C59 1.390 . S
C51 C50 1.388 1_565 S
C51 C53 1.390 1_556 S
H52 C59 0.950 . S
C53 C51 1.390 1_554 S
C53 C55 1.390 . S
C53 H57 0.950 . S
H54 C50 0.950 . S
C55 C53 1.390 . S
C55 C56 1.390 1_565 S
C55 H58 0.950 . S
C56 C55 1.390 1_545 S
C56 C59 1.390 1_554 S
H57 C53 0.950 . S
H58 C55 0.950 . S
C59 C50 1.390 . S
C59 H52 0.950 . S
C59 C56 1.390 1_556 S
C60 C61 1.387 1_556 S
C60 H64 0.950 . S
C60 C69 1.390 . S
C61 C60 1.387 1_554 S
C61 C63 1.387 1_655 S
H62 C69 0.950 . S
C63 C61 1.387 1_455 S
C63 C65 1.390 . S
C63 H67 0.950 . S
H64 C60 0.950 . S
C65 C63 1.390 . S
C65 C66 1.385 . S
C65 H68 0.950 . S
C66 C65 1.385 . S
C66 C69 1.385 1_454 S
H67 C63 0.950 . S
H68 C65 0.950 . S
C69 C60 1.390 . S
C69 H62 0.950 . S
C69 C66 1.385 1_656 S
C41 C19 1.460 1_655 S
C46 C10 1.458 1_445 S
C51 C16 1.496 1_565 S
C56 C7 1.495 1_545 S
C61 C11 1.497 . S
C66 C2 1.500 1_554 S
