# Generated by pormake.
# Topology reo, (8)-cn, num edge types: 1
# Building blocks:
#     Node 0, Type 0, BuildingBlock: GIZVER_clean_sbu_0, # of connection points: 8
#     Node 1, Type 0, BuildingBlock: GIZVER_clean_sbu_0, # of connection points: 8
#     Node 2, Type 0, BuildingBlock: GIZVER_clean_sbu_0, # of connection points: 8
#     Edge 3, Type (0, 0), BuildingBlock: AJUNOK_clean_linker_0, # of connection points: 2
#     Edge 4, Type (0, 0), BuildingBlock: AJUNOK_clean_linker_0, # of connection points: 2
#     Edge 5, Type (0, 0), BuildingBlock: AJUNOK_clean_linker_0, # of connection points: 2
#     Edge 6, Type (0, 0), BuildingBlock: AJUNOK_clean_linker_0, # of connection points: 2
#     Edge 7, Type (0, 0), BuildingBlock: AJUNOK_clean_linker_0, # of connection points: 2
#     Edge 8, Type (0, 0), BuildingBlock: AJUNOK_clean_linker_0, # of connection points: 2
#     Edge 9, Type (0, 0), BuildingBlock: AJUNOK_clean_linker_0, # of connection points: 2
#     Edge 10, Type (0, 0), BuildingBlock: AJUNOK_clean_linker_0, # of connection points: 2
#     Edge 11, Type (0, 0), BuildingBlock: AJUNOK_clean_linker_0, # of connection points: 2
#     Edge 12, Type (0, 0), BuildingBlock: AJUNOK_clean_linker_0, # of connection points: 2
#     Edge 13, Type (0, 0), BuildingBlock: AJUNOK_clean_linker_0, # of connection points: 2
#     Edge 14, Type (0, 0), BuildingBlock: AJUNOK_clean_linker_0, # of connection points: 2
# Relax obj value: 0.102
# Max RMSD: 0.210
# Mean RMSD: 0.145
data_MOF--net-reo--node1-GIZVER_clean_sbu_0--edge1-AJUNOK_clean_linker_0
_symmetry_space_group_name_H-M    P1
_symmetry_Int_Tables_number       1
_symmetry_cell_setting            triclinic
loop_
_symmetry_equiv_pos_as_xyz
'x, y, z'
_cell_length_a     18.794651
_cell_length_b     19.501389
_cell_length_c     19.718313
_cell_angle_alpha  109.4495
_cell_angle_beta   93.967135
_cell_angle_gamma 72.624984
loop_
_atom_site_label
_atom_site_type_symbol
_atom_site_fract_x
_atom_site_fract_y
_atom_site_fract_z
_atom_type_partial_charge
Co0 Co 0.07608 0.97382 0.64135 0.0
Co1 Co 0.16395 1.0339 0.60516 0.0
Co2 Co 0.01864 0.05768 0.51303 0.0
O3 O 0.09698 0.98731 0.55312 0.0
H4 H 0.12265 0.94032 0.51675 0.0
O5 O 0.94011 0.12885 0.47447 0.0
Co6 Co 0.95467 0.13653 0.38245 0.0
Co7 Co 0.86999 0.08074 0.43259 0.0
H8 H 0.91703 0.17725 0.51042 0.0
O9 O 0.25886 0.97799 0.60902 0.0
O10 O 0.16287 1.01072 0.68879 0.0
O11 O 0.14022 0.14229 0.63155 0.0
O12 O 0.02666 0.15542 0.58817 0.0
O13 O 0.09623 0.05782 0.4477 0.0
O14 O 0.96674 0.14876 0.30053 0.0
O15 O 0.89746 0.23587 0.3969 0.0
O16 O 0.02232 1.03826 0.35632 0.0
O17 O 1.01053 0.95981 0.43823 0.0
O18 O 0.89283 0.97176 0.40864 0.0
O19 O 0.86575 0.09917 0.34657 0.0
O20 O 0.7745 0.13688 0.43324 0.0
C21 C 0.10055 0.88681 0.68386 0.0
C22 C 0.94374 0.07708 0.64391 0.0
C23 C 0.07499 0.18357 0.62695 0.0
C24 C 0.23446 0.98279 0.67106 0.0
C25 C 0.92788 0.21823 0.33314 0.0
C26 C 0.08708 1.03986 0.37969 0.0
C27 C 0.9598 0.9309 0.40594 0.0
C28 C 0.7955 0.12905 0.36898 0.0
O29 O 0.05832 0.95432 0.71837 0.0
O30 O 0.13359 0.87449 0.62278 0.0
O31 O 0.93934 0.05768 0.57571 0.0
O32 O 1.00775 0.07315 0.67136 0.0
Co33 Co 0.64979 0.057 0.88876 0.0
Co34 Co 0.62865 0.12764 1.00688 0.0
Co35 Co 0.50859 0.06669 0.01359 0.0
O36 O 0.55652 0.10249 0.94793 0.0
H37 H 0.52355 0.14663 0.93838 0.0
O38 O 0.46237 1.03188 0.07836 0.0
Co39 Co 0.35848 0.05968 0.10125 0.0
Co40 Co 0.45474 0.93773 0.0245 0.0
H41 H 0.49251 1.02736 0.11926 0.0
O42 O 0.61206 0.22597 0.03835 0.0
O43 O 0.70026 0.12954 0.95805 0.0
O44 O 0.6699 0.07883 0.07365 0.0
O45 O 0.55228 0.12164 0.10673 0.0
O46 O 0.42015 0.1598 0.02975 0.0
O47 O 0.26367 0.08213 0.12977 0.0
O48 O 0.36724 1.02992 0.18069 0.0
O49 O 0.33473 0.0994 0.02248 0.0
O50 O 0.45929 1.01813 0.92391 0.0
O51 O 0.46545 0.90238 0.92124 0.0
O52 O 0.35528 0.956 0.04032 0.0
O53 O 0.45456 0.86984 0.06737 0.0
C54 C 0.70257 0.07508 0.81055 0.0
C55 C 0.66128 0.94892 0.97106 0.0
C56 C 0.62085 0.10631 0.12279 0.0
C57 C 0.67179 0.20137 0.99726 0.0
C58 C 0.29451 1.05426 0.17984 0.0
C59 C 0.35276 0.15713 0.02065 0.0
C60 C 0.45053 0.95296 0.89147 0.0
C61 C 0.38427 0.89216 0.0538 0.0
O62 O 0.73113 1.01823 0.83364 0.0
O63 O 0.63492 0.11964 0.83294 0.0
O64 O 0.59533 0.96999 0.99872 0.0
O65 O 0.68089 0.98438 0.93559 0.0
Co66 Co 0.96498 0.43573 0.07419 0.0
Co67 Co 0.8727 0.49441 0.98979 0.0
Co68 Co 1.00848 0.56088 0.013 0.0
O69 O 0.93587 0.53178 0.05838 0.0
H70 H 0.90776 0.57304 0.09856 0.0
O71 O 0.08104 0.58873 0.96653 0.0
Co72 Co 0.05593 0.68193 0.94653 0.0
Co73 Co 0.14318 0.6265 0.03301 0.0
H74 H 0.11004 0.5463 0.92774 0.0
O75 O 0.78145 0.49453 0.01644 0.0
O76 O 0.89095 0.40255 1.00554 0.0
O77 O 0.89732 0.46895 0.88909 0.0
O78 O 1.00949 0.48363 0.91445 0.0
O79 O 0.92194 0.63881 0.98901 0.0
O80 O 0.03633 0.76387 0.92008 0.0
O81 O 0.12174 0.65051 0.87035 0.0
O82 O 0.98071 0.72636 0.02049 0.0
O83 O 1.00744 0.63895 0.11192 0.0
O84 O 0.12155 0.64959 0.13342 0.0
O85 O 0.13124 0.7163 0.0154 0.0
O86 O 0.23545 0.61711 1.00528 0.0
C87 C 0.9395 0.39227 0.14827 0.0
C88 C 0.09763 0.41209 0.0123 0.0
C89 C 0.96417 0.45679 0.86996 0.0
C90 C 0.81875 0.42601 0.01438 0.0
C91 C 0.08581 0.71884 0.86942 0.0
C92 C 0.92006 0.70865 1.00665 0.0
C93 C 0.05545 0.66276 0.15506 0.0
C94 C 0.20381 0.68739 1.00892 0.0
O95 O 0.98811 0.35126 0.09578 0.0
O96 O 0.90149 0.46159 0.15152 0.0
O97 O 0.0956 0.48222 0.03626 0.0
O98 O 0.03684 0.39533 0.99859 0.0
C99 C 0.99687 0.30754 0.21918 0.0
C100 C 0.93246 0.35873 0.2042 0.0
C101 C 0.99408 0.26675 0.26464 0.0
C102 C 0.92675 0.27482 0.29765 0.0
H103 H 0.05027 0.29729 0.19408 0.0
H104 H 0.04532 0.2263 0.27217 0.0
S105 S 0.74193 0.40358 0.27892 0.0
N106 N 0.79905 0.41777 0.22826 0.0
N107 N 0.7939 0.3404 0.31474 0.0
C108 C 0.862 0.32835 0.28624 0.0
C109 C 0.86484 0.37045 0.23924 0.0
C110 C 0.75283 0.16723 0.26208 0.0
C111 C 0.73798 0.14186 0.31658 0.0
C112 C 0.70718 0.16512 0.20326 0.0
C113 C 0.64658 0.13495 0.19569 0.0
H114 H 0.80236 0.18471 0.26264 0.0
H115 H 0.72344 0.18095 0.1602 0.0
S116 S 0.57815 0.0707 0.32815 0.0
N117 N 0.65267 0.09509 0.36444 0.0
N118 N 0.56851 0.0878 0.25087 0.0
C119 C 0.62682 0.11596 0.25263 0.0
C120 C 0.67256 0.11978 0.31383 0.0
C121 C 0.93092 0.82745 0.30169 0.0
C122 C 0.98228 0.85253 0.35226 0.0
C123 C 0.95422 0.76239 0.24069 0.0
C124 C 0.02992 0.71968 0.22746 0.0
H125 H 0.87281 0.86078 0.30663 0.0
H126 H 0.91308 0.74862 0.20135 0.0
S127 S 0.18452 0.75163 0.35011 0.0
N128 N 0.11078 0.82209 0.39013 0.0
N129 N 0.15432 0.70059 0.27549 0.0
C130 C 0.08072 0.74007 0.28071 0.0
C131 C 0.05698 0.80613 0.34303 0.0
C132 C 0.17577 1.03664 0.21016 0.0
C133 C 0.24604 1.04628 0.23173 0.0
C134 C 0.12694 1.03116 0.25739 0.0
C135 C 0.14472 1.03766 0.32952 0.0
H136 H 0.1581 1.03305 0.15593 0.0
H137 H 0.07397 1.0232 0.23706 0.0
S138 S 0.32383 0.05961 0.41223 0.0
N139 N 0.33315 0.0578 0.32889 0.0
N140 N 0.24016 1.05064 0.41897 0.0
C141 C 0.21579 1.04548 0.35147 0.0
C142 C 0.26654 1.04919 0.30243 0.0
C143 C 0.16832 0.79157 0.74507 0.0
C144 C 0.10367 0.8257 0.71376 0.0
C145 C 0.16421 0.75177 0.79234 0.0
C146 C 0.09533 0.74536 0.80929 0.0
H147 H 0.22103 0.80021 0.73714 0.0
H148 H 0.21393 0.73048 0.81925 0.0
S149 S 0.91273 0.81555 0.73338 0.0
N150 N 0.97112 0.84336 0.69728 0.0
N151 N 0.96342 0.76916 0.785 0.0
C152 C 0.03194 0.77451 0.77406 0.0
C153 C 0.03614 0.81442 0.72644 0.0
C154 C 0.41819 0.95639 0.76752 0.0
C155 C 0.39973 0.94698 0.83079 0.0
C156 C 0.36503 0.96452 0.71494 0.0
C157 C 0.29055 0.9666 0.725 0.0
H158 H 0.47352 0.9593 0.75943 0.0
H159 H 0.38195 0.97252 0.66739 0.0
S160 S 0.21402 0.94724 0.88394 0.0
N161 N 0.30281 0.93928 0.90082 0.0
N162 N 0.2018 0.95941 0.80455 0.0
C163 C 0.27175 0.95702 0.7883 0.0
C164 C 0.3266 0.94607 0.84054 0.0
C165 C 0.94549 0.36664 0.74976 0.0
C166 C 0.99418 0.39794 0.79948 0.0
C167 C 0.97255 0.30063 0.69057 0.0
C168 C 0.04954 0.26255 0.67874 0.0
H169 H 0.88565 0.39095 0.7585 0.0
H170 H 0.9322 0.27684 0.65652 0.0
S171 S 0.20154 0.32719 0.78671 0.0
N172 N 0.12411 0.39051 0.82766 0.0
N173 N 0.17455 0.26652 0.7171 0.0
C174 C 0.09915 0.29662 0.72471 0.0
C175 C 0.07163 0.36419 0.78478 0.0
C176 C 0.74735 0.08941 0.69934 0.0
C177 C 0.75512 0.09417 0.77198 0.0
C178 C 0.80748 0.0876 0.65882 0.0
C179 C 0.87731 0.09066 0.68964 0.0
H180 H 0.69646 0.08227 0.6726 0.0
H181 H 0.8001 0.08043 0.60216 0.0
S182 S 0.92317 0.10942 0.87994 0.0
N183 N 0.83654 0.10506 0.87363 0.0
N184 N 0.94704 0.10558 0.7996 0.0
C185 C 0.88348 0.10038 0.76352 0.0
C186 C 0.82315 0.10093 0.80398 0.0
C187 C 0.22995 0.36018 0.04748 0.0
C188 C 0.16809 0.3488 1.00549 0.0
C189 C 0.29161 0.29816 0.04942 0.0
C190 C 0.29332 0.22261 1.00987 0.0
H191 H 0.22931 0.41688 0.08161 0.0
H192 H 0.33647 0.30922 0.0849 0.0
S193 S 0.15234 0.16316 0.88107 0.0
N194 N 0.11798 0.25645 0.91543 0.0
N195 N 0.23235 0.14106 0.9205 0.0
C196 C 0.23417 0.21106 0.96423 0.0
C197 C 0.17207 0.27381 0.96163 0.0
C198 C 0.2179 0.81569 0.02738 0.0
C199 C 0.25107 0.73764 0.01604 0.0
C200 C 0.26127 0.86562 0.04068 0.0
C201 C 0.33929 0.83943 0.0436 0.0
H202 H 0.15789 0.83882 0.02682 0.0
H203 H 0.23336 0.92517 0.04889 0.0
S204 S 0.45422 0.63934 0.0123 0.0
N205 N 0.36736 0.63587 1.00473 0.0
N206 N 0.44849 0.72966 0.03028 0.0
C207 C 0.37335 0.76129 0.03104 0.0
C208 C 0.32936 0.71039 0.01691 0.0
C209 C 0.78495 0.24409 0.01254 0.0
C210 C 0.70896 0.25738 0.99869 0.0
C211 C 0.81982 0.29972 0.01871 0.0
C212 C 0.77922 0.37083 0.0126 0.0
H213 H 0.81728 0.19094 0.01974 0.0
H214 H 0.879 0.28661 0.02827 0.0
S215 S 0.57699 0.43296 0.97883 0.0
N216 N 0.59317 0.34553 0.98032 0.0
N217 N 0.65794 0.45142 0.99328 0.0
C218 C 0.70239 0.38507 1.0003 0.0
C219 C 0.66736 0.32798 0.9932 0.0
C220 C 0.85516 0.84169 1.00917 0.0
C221 C 0.85001 0.76943 1.00366 0.0
C222 C 0.79314 0.89908 1.00084 0.0
C223 C 0.72214 0.88807 0.98769 0.0
H224 H 0.9082 0.854 0.01809 0.0
H225 H 0.80136 0.95268 1.00375 0.0
S226 S 0.6755 0.71226 0.97397 0.0
N227 N 0.76611 0.69151 0.98769 0.0
N228 N 0.64883 0.8009 0.97344 0.0
C229 C 0.71468 0.81766 0.98528 0.0
C230 C 0.77867 0.75807 0.99274 0.0
loop_
_geom_bond_atom_site_label_1
_geom_bond_atom_site_label_2
_geom_bond_distance
_geom_bond_site_symmetry_2
_ccdc_geom_bond_type
Co0 O3 2.042 . S
Co0 O10 2.264 . S
Co0 O29 2.286 . S
Co0 O30 2.069 . S
Co0 O32 2.015 1_455 S
Co1 O3 2.122 1_545 S
Co1 O9 2.073 1_545 S
Co1 O10 2.327 1_545 S
Co1 O11 1.976 . S
Co2 O3 2.086 1_545 S
Co2 O5 2.087 1_455 S
Co2 O12 2.112 . S
Co2 O13 2.144 1_545 S
Co2 O17 2.111 1_445 S
Co2 O31 2.143 1_455 S
O3 Co0 2.042 . S
O3 Co1 2.122 1_565 S
O3 Co2 2.086 1_565 S
O3 H4 0.980 . S
H4 O3 0.980 . S
O5 Co2 2.087 1_655 S
O5 Co6 2.042 . S
O5 Co7 2.122 1_545 S
O5 H8 0.980 . S
Co6 O5 2.042 . S
Co6 O14 2.286 . S
Co6 O15 2.069 . S
Co6 O16 2.015 1_655 S
Co6 O19 2.264 . S
Co7 O5 2.122 1_565 S
Co7 O18 1.976 . S
Co7 O19 2.327 1_565 S
Co7 O20 2.073 1_565 S
H8 O5 0.980 . S
O9 Co1 2.073 1_565 S
O9 C24 1.245 . S
O10 Co0 2.264 . S
O10 Co1 2.327 1_565 S
O10 C24 1.257 . S
O11 Co1 1.976 . S
O11 C23 1.251 . S
O12 Co2 2.112 . S
O12 C23 1.274 . S
O13 Co2 2.144 1_565 S
O13 C26 1.246 . S
O14 Co6 2.286 . S
O14 C25 1.259 . S
O15 Co6 2.069 . S
O15 C25 1.289 . S
O16 Co6 2.015 1_455 S
O16 C26 1.257 1_545 S
O17 Co2 2.111 1_665 S
O17 C27 1.274 . S
O18 Co7 1.976 . S
O18 C27 1.251 . S
O19 Co6 2.264 . S
O19 Co7 2.327 1_545 S
O19 C28 1.257 . S
O20 Co7 2.073 1_545 S
O20 C28 1.245 . S
C21 O29 1.259 . S
C21 O30 1.289 . S
C22 O31 1.246 . S
C22 O32 1.257 1_545 S
C23 O11 1.251 . S
C23 O12 1.274 . S
C24 O9 1.245 . S
C24 O10 1.257 . S
C25 O14 1.259 . S
C25 O15 1.289 . S
C26 O13 1.246 . S
C26 O16 1.257 1_565 S
C27 O17 1.274 . S
C27 O18 1.251 . S
C28 O19 1.257 . S
C28 O20 1.245 . S
O29 Co0 2.286 . S
O29 C21 1.259 . S
O30 Co0 2.069 . S
O30 C21 1.289 . S
O31 Co2 2.143 1_655 S
O31 C22 1.246 . S
O32 Co0 2.015 1_655 S
O32 C22 1.257 1_565 S
Co33 O36 2.042 1_565 S
Co33 O43 2.264 1_565 S
Co33 O62 2.286 . S
Co33 O63 2.069 1_565 S
Co33 O65 2.015 . S
Co34 O36 2.122 1_554 S
Co34 O42 2.073 . S
Co34 O43 2.327 1_554 S
Co34 O44 1.976 . S
Co35 O36 2.087 1_554 S
Co35 O38 2.087 1_545 S
Co35 O45 2.112 . S
Co35 O46 2.144 . S
Co35 O50 2.111 1_544 S
Co35 O64 2.143 1_544 S
O36 Co33 2.042 1_545 S
O36 Co34 2.122 1_556 S
O36 Co35 2.087 1_556 S
O36 H37 0.980 . S
H37 O36 0.980 . S
O38 Co35 2.087 1_565 S
O38 Co39 2.042 1_565 S
O38 Co40 2.122 1_554 S
O38 H41 0.980 . S
Co39 O38 2.042 1_545 S
Co39 O47 2.286 . S
Co39 O48 2.069 1_545 S
Co39 O49 2.015 . S
Co39 O52 2.264 1_545 S
Co40 O38 2.122 1_556 S
Co40 O51 1.976 . S
Co40 O52 2.327 1_556 S
Co40 O53 2.073 . S
H41 O38 0.980 . S
O42 Co34 2.073 . S
O42 C57 1.245 1_554 S
O43 Co33 2.264 1_545 S
O43 Co34 2.327 1_556 S
O43 C57 1.257 . S
O44 Co34 1.976 . S
O44 C56 1.251 . S
O45 Co35 2.112 . S
O45 C56 1.274 . S
O46 Co35 2.144 . S
O46 C59 1.246 . S
O47 Co39 2.286 . S
O47 C58 1.259 1_545 S
O48 Co39 2.069 1_565 S
O48 C58 1.289 . S
O49 Co39 2.015 . S
O49 C59 1.257 . S
O50 Co35 2.111 1_566 S
O50 C60 1.274 . S
O51 Co40 1.976 . S
O51 C60 1.251 . S
O52 Co39 2.264 1_565 S
O52 Co40 2.327 1_554 S
O52 C61 1.257 . S
O53 Co40 2.073 . S
O53 C61 1.245 1_556 S
C54 O62 1.259 1_545 S
C54 O63 1.289 . S
C55 O64 1.246 . S
C55 O65 1.257 . S
C56 O44 1.251 . S
C56 O45 1.274 . S
C57 O42 1.245 1_556 S
C57 O43 1.257 . S
C58 O47 1.259 1_565 S
C58 O48 1.289 . S
C59 O46 1.246 . S
C59 O49 1.257 . S
C60 O50 1.274 . S
C60 O51 1.251 . S
C61 O52 1.257 . S
C61 O53 1.245 1_554 S
O62 Co33 2.286 . S
O62 C54 1.259 1_565 S
O63 Co33 2.069 1_545 S
O63 C54 1.289 . S
O64 Co35 2.143 1_566 S
O64 C55 1.246 . S
O65 Co33 2.015 . S
O65 C55 1.257 . S
Co66 O69 2.042 . S
Co66 O76 2.259 1_554 S
Co66 O95 2.286 1_655 S
Co66 O96 2.069 . S
Co66 O98 2.015 1_655 S
Co67 O69 2.122 1_556 S
Co67 O75 2.073 1_556 S
Co67 O76 2.341 . S
Co67 O77 1.976 . S
Co68 O69 2.087 1_455 S
Co68 O71 2.086 1_554 S
Co68 O78 2.111 1_454 S
Co68 O79 2.143 1_454 S
Co68 O83 2.112 . S
Co68 O97 2.144 . S
O69 Co66 2.042 . S
O69 Co67 2.122 1_554 S
O69 Co68 2.087 1_655 S
O69 H70 0.980 . S
H70 O69 0.980 . S
O71 Co68 2.086 1_556 S
O71 Co72 2.042 . S
O71 Co73 2.122 1_556 S
O71 H74 0.980 . S
Co72 O71 2.042 . S
Co72 O80 2.286 1_455 S
Co72 O81 2.069 . S
Co72 O82 2.015 1_455 S
Co72 O85 2.264 1_556 S
Co73 O71 2.122 1_554 S
Co73 O84 1.976 . S
Co73 O85 2.327 . S
Co73 O86 2.073 1_554 S
H74 O71 0.980 . S
O75 Co67 2.073 1_554 S
O75 C90 1.245 . S
O76 Co66 2.259 1_556 S
O76 Co67 2.341 . S
O76 C90 1.252 1_556 S
O77 Co67 1.976 . S
O77 C89 1.251 . S
O78 Co68 2.111 1_656 S
O78 C89 1.274 . S
O79 Co68 2.143 1_656 S
O79 C92 1.246 1_556 S
O80 Co72 2.286 1_655 S
O80 C91 1.259 1_655 S
O81 Co72 2.069 . S
O81 C91 1.289 . S
O82 Co72 2.015 1_655 S
O82 C92 1.257 1_556 S
O83 Co68 2.112 . S
O83 C93 1.274 . S
O84 Co73 1.976 . S
O84 C93 1.251 . S
O85 Co72 2.264 1_554 S
O85 Co73 2.327 . S
O85 C94 1.257 1_554 S
O86 Co73 2.073 1_556 S
O86 C94 1.245 . S
C87 O95 1.259 1_655 S
C87 O96 1.289 . S
C88 O97 1.246 1_556 S
C88 O98 1.257 1_556 S
C89 O77 1.251 . S
C89 O78 1.274 . S
C90 O75 1.245 . S
C90 O76 1.252 1_554 S
C91 O80 1.259 1_455 S
C91 O81 1.289 . S
C92 O79 1.246 1_554 S
C92 O82 1.257 1_554 S
C93 O83 1.274 . S
C93 O84 1.251 . S
C94 O85 1.257 1_556 S
C94 O86 1.245 . S
O95 Co66 2.286 1_455 S
O95 C87 1.259 1_455 S
O96 Co66 2.069 . S
O96 C87 1.289 . S
O97 Co68 2.144 . S
O97 C88 1.246 1_554 S
O98 Co66 2.015 1_455 S
O98 C88 1.257 1_554 S
C99 C100 1.369 . S
C99 C101 1.419 . S
C99 H103 0.930 1_655 S
C100 C99 1.369 . S
C100 C109 1.429 . S
C101 C99 1.419 . S
C101 C102 1.363 . S
C101 H104 0.929 1_655 S
C102 C101 1.363 . S
C102 C108 1.428 . S
H103 C99 0.930 1_455 S
H104 C101 0.929 1_455 S
S105 N106 1.613 . S
S105 N107 1.610 . S
N106 S105 1.613 . S
N106 C109 1.350 . S
N107 S105 1.610 . S
N107 C108 1.351 . S
C108 C102 1.428 . S
C108 N107 1.351 . S
C108 C109 1.434 . S
C109 C100 1.429 . S
C109 N106 1.350 . S
C109 C108 1.434 . S
C110 C111 1.369 . S
C110 C112 1.419 . S
C110 H114 0.930 . S
C111 C110 1.369 . S
C111 C120 1.429 . S
C112 C110 1.419 . S
C112 C113 1.363 . S
C112 H115 0.929 . S
C113 C112 1.363 . S
C113 C119 1.428 1_545 S
H114 C110 0.930 . S
H115 C112 0.929 . S
S116 N117 1.613 . S
S116 N118 1.610 . S
N117 S116 1.613 . S
N117 C120 1.350 1_565 S
N118 S116 1.610 . S
N118 C119 1.351 . S
C119 C113 1.428 1_565 S
C119 N118 1.351 . S
C119 C120 1.434 1_565 S
C120 C111 1.429 . S
C120 N117 1.350 1_545 S
C120 C119 1.434 1_545 S
C121 C122 1.369 1_655 S
C121 C123 1.419 . S
C121 H125 0.930 . S
C122 C121 1.369 1_455 S
C122 C131 1.429 . S
C123 C121 1.419 . S
C123 C124 1.363 . S
C123 H126 0.929 . S
C124 C123 1.363 . S
C124 C130 1.428 1_655 S
H125 C121 0.930 . S
H126 C123 0.929 . S
S127 N128 1.613 . S
S127 N129 1.610 . S
N128 S127 1.613 . S
N128 C131 1.350 . S
N129 S127 1.610 . S
N129 C130 1.351 . S
C130 C124 1.428 1_455 S
C130 N129 1.351 . S
C130 C131 1.434 . S
C131 C122 1.429 . S
C131 N128 1.350 . S
C131 C130 1.434 . S
C132 C133 1.369 . S
C132 C134 1.419 . S
C132 H136 0.930 . S
C133 C132 1.369 . S
C133 C142 1.429 . S
C134 C132 1.419 . S
C134 C135 1.363 . S
C134 H137 0.929 . S
C135 C134 1.363 . S
C135 C141 1.428 . S
H136 C132 0.930 . S
H137 C134 0.929 . S
S138 N139 1.613 . S
S138 N140 1.610 . S
N139 S138 1.613 . S
N139 C142 1.350 . S
N140 S138 1.610 . S
N140 C141 1.351 . S
C141 C135 1.428 . S
C141 N140 1.351 . S
C141 C142 1.434 . S
C142 C133 1.429 . S
C142 N139 1.350 . S
C142 C141 1.434 . S
C143 C144 1.369 . S
C143 C145 1.419 . S
C143 H147 0.930 . S
C144 C143 1.369 . S
C144 C153 1.429 . S
C145 C143 1.419 . S
C145 C146 1.363 . S
C145 H148 0.929 . S
C146 C145 1.363 . S
C146 C152 1.428 1_455 S
H147 C143 0.930 . S
H148 C145 0.929 . S
S149 N150 1.613 . S
S149 N151 1.610 . S
N150 S149 1.613 . S
N150 C153 1.350 1_655 S
N151 S149 1.610 . S
N151 C152 1.351 . S
C152 C146 1.428 1_655 S
C152 N151 1.351 . S
C152 C153 1.434 1_655 S
C153 C144 1.429 . S
C153 N150 1.350 1_455 S
C153 C152 1.434 1_455 S
C154 C155 1.369 1_545 S
C154 C156 1.419 1_545 S
C154 H158 0.930 . S
C155 C154 1.369 1_565 S
C155 C164 1.429 . S
C156 C154 1.419 1_565 S
C156 C157 1.363 . S
C156 H159 0.929 1_565 S
C157 C156 1.363 . S
C157 C163 1.428 . S
H158 C154 0.930 . S
H159 C156 0.929 1_545 S
S160 N161 1.613 . S
S160 N162 1.610 . S
N161 S160 1.613 . S
N161 C164 1.350 . S
N162 S160 1.610 . S
N162 C163 1.351 . S
C163 C157 1.428 . S
C163 N162 1.351 . S
C163 C164 1.434 . S
C164 C155 1.429 . S
C164 N161 1.350 . S
C164 C163 1.434 . S
C165 C166 1.369 1_655 S
C165 C167 1.419 . S
C165 H169 0.930 . S
C166 C165 1.369 1_455 S
C166 C175 1.429 . S
C167 C165 1.419 . S
C167 C168 1.363 . S
C167 H170 0.929 . S
C168 C167 1.363 . S
C168 C174 1.428 1_655 S
H169 C165 0.930 . S
H170 C167 0.929 . S
S171 N172 1.613 . S
S171 N173 1.610 . S
N172 S171 1.613 . S
N172 C175 1.350 . S
N173 S171 1.610 . S
N173 C174 1.351 . S
C174 C168 1.428 1_455 S
C174 N173 1.351 . S
C174 C175 1.434 . S
C175 C166 1.429 . S
C175 N172 1.350 . S
C175 C174 1.434 . S
C176 C177 1.369 . S
C176 C178 1.419 . S
C176 H180 0.930 1_545 S
C177 C176 1.369 . S
C177 C186 1.429 . S
C178 C176 1.419 . S
C178 C179 1.363 . S
C178 H181 0.929 . S
C179 C178 1.363 . S
C179 C185 1.428 . S
H180 C176 0.930 1_565 S
H181 C178 0.929 . S
S182 N183 1.613 . S
S182 N184 1.610 . S
N183 S182 1.613 . S
N183 C186 1.350 . S
N184 S182 1.610 . S
N184 C185 1.351 . S
C185 C179 1.428 . S
C185 N184 1.351 . S
C185 C186 1.434 . S
C186 C177 1.429 . S
C186 N183 1.350 . S
C186 C185 1.434 . S
C187 C188 1.369 1_554 S
C187 C189 1.419 . S
C187 H191 0.930 . S
C188 C187 1.369 1_556 S
C188 C197 1.429 . S
C189 C187 1.419 . S
C189 C190 1.363 . S
C189 H192 0.929 . S
C190 C189 1.363 . S
C190 C196 1.428 1_554 S
H191 C187 0.930 . S
H192 C189 0.929 . S
S193 N194 1.613 . S
S193 N195 1.610 . S
N194 S193 1.613 . S
N194 C197 1.350 . S
N195 S193 1.610 . S
N195 C196 1.351 . S
C196 C190 1.428 1_556 S
C196 N195 1.351 . S
C196 C197 1.434 . S
C197 C188 1.429 . S
C197 N194 1.350 . S
C197 C196 1.434 . S
C198 C199 1.369 . S
C198 C200 1.419 1_556 S
C198 H202 0.930 . S
C199 C198 1.369 . S
C199 C208 1.429 . S
C200 C198 1.419 1_554 S
C200 C201 1.363 . S
C200 H203 0.929 . S
C201 C200 1.363 . S
C201 C207 1.428 . S
H202 C198 0.930 . S
H203 C200 0.929 . S
S204 N205 1.613 1_554 S
S204 N206 1.610 . S
N205 S204 1.613 1_556 S
N205 C208 1.350 . S
N206 S204 1.610 . S
N206 C207 1.351 . S
C207 C201 1.428 . S
C207 N206 1.351 . S
C207 C208 1.434 1_554 S
C208 C199 1.429 . S
C208 N205 1.350 . S
C208 C207 1.434 1_556 S
C209 C210 1.369 . S
C209 C211 1.419 . S
C209 H213 0.930 . S
C210 C209 1.369 . S
C210 C219 1.429 1_556 S
C211 C209 1.419 . S
C211 C212 1.363 1_556 S
C211 H214 0.929 . S
C212 C211 1.363 1_554 S
C212 C218 1.428 . S
H213 C209 0.930 . S
H214 C211 0.929 . S
S215 N216 1.613 . S
S215 N217 1.610 . S
N216 S215 1.613 . S
N216 C219 1.350 . S
N217 S215 1.610 . S
N217 C218 1.351 . S
C218 C212 1.428 . S
C218 N217 1.351 . S
C218 C219 1.434 . S
C219 C210 1.429 1_554 S
C219 N216 1.350 . S
C219 C218 1.434 . S
C220 C221 1.369 . S
C220 C222 1.419 . S
C220 H224 0.930 . S
C221 C220 1.369 . S
C221 C230 1.429 1_554 S
C222 C220 1.419 . S
C222 C223 1.363 1_554 S
C222 H225 0.929 . S
C223 C222 1.363 1_556 S
C223 C229 1.428 . S
H224 C220 0.930 . S
H225 C222 0.929 . S
S226 N227 1.613 . S
S226 N228 1.610 . S
N227 S226 1.613 . S
N227 C230 1.350 . S
N228 S226 1.610 . S
N228 C229 1.351 . S
C229 C223 1.428 . S
C229 N228 1.351 . S
C229 C230 1.434 . S
C230 C221 1.429 1_556 S
C230 N227 1.350 . S
C230 C229 1.434 . S
C100 C87 1.637 . S
C102 C25 1.556 . S
C111 C28 1.265 . S
C113 C56 1.269 . S
C122 C27 1.229 1_455 S
C124 C93 1.232 1_655 S
C133 C58 1.919 . S
C135 C26 1.742 . S
C144 C21 1.546 . S
C146 C91 1.635 . S
C155 C60 1.253 . S
C157 C24 1.280 . S
C166 C89 1.240 1_455 S
C168 C23 1.225 1_655 S
C177 C54 1.918 . S
C179 C22 1.738 . S
C188 C88 2.034 . S
C190 C59 2.147 . S
C199 C94 1.158 . S
C201 C61 1.175 . S
C210 C57 1.173 . S
C212 C90 1.164 . S
C221 C92 2.035 . S
C223 C55 2.150 . S
