# Generated by pormake.
# Topology pcu, (6)-cn, num edge types: 1
# Building blocks:
#     Node 0, Type 0, BuildingBlock: CUWYAW_clean_sbu_0, # of connection points: 6
#     Edge 1, Type (0, 0), BuildingBlock: ZUJKAS_clean_linker_0, # of connection points: 2
#     Edge 2, Type (0, 0), BuildingBlock: ZUJKAS_clean_linker_0, # of connection points: 2
#     Edge 3, Type (0, 0), BuildingBlock: ZUJKAS_clean_linker_0, # of connection points: 2
# Relax obj value: 0.000
# Max RMSD: 0.000
# Mean RMSD: 0.000
data_MOF--net-pcu--node1-CUWYAW_clean_sbu_0--edge1-ZUJKAS_clean_linker_0
_symmetry_space_group_name_H-M    P1
_symmetry_Int_Tables_number       1
_symmetry_cell_setting            triclinic
loop_
_symmetry_equiv_pos_as_xyz
'x, y, z'
_cell_length_a     30.06729
_cell_length_b     19.972027
_cell_length_c     18.826392
_cell_angle_alpha  91.325596
_cell_angle_beta   98.512988
_cell_angle_gamma 122.47018
loop_
_atom_site_label
_atom_site_type_symbol
_atom_site_fract_x
_atom_site_fract_y
_atom_site_fract_z
_atom_type_partial_charge
C0 C 0.17774 0.09021 0.96902 0.0
Eu1 Eu 0.08521 0.03964 1.00578 0.0
C2 C 0.21917 0.07072 0.97516 0.0
C3 C 0.24218 0.06223 0.0422 0.0
C4 C 0.2835 0.0484 0.04689 0.0
C5 C 0.3027 0.04252 0.98467 0.0
C6 C 0.27868 0.04941 0.91751 0.0
C7 C 0.23756 0.06353 0.91293 0.0
C8 C 0.06634 0.0304 0.14296 0.0
C9 C 1.01917 0.84627 1.00963 0.0
C10 C 0.8741 0.89605 0.05325 0.0
Eu11 Eu 0.96682 0.94681 0.01699 0.0
C12 C 0.83274 0.91567 0.04718 0.0
C13 C 0.80971 0.92418 0.98016 0.0
C14 C 0.76843 0.93809 0.97553 0.0
C15 C 0.74929 0.94403 0.03778 0.0
C16 C 0.77331 0.93712 0.10492 0.0
C17 C 0.8144 0.92292 0.10945 0.0
C18 C 0.98606 0.95622 0.87987 0.0
C19 C 0.03288 0.1402 0.01343 0.0
O20 O 0.1316 0.03993 0.92645 0.0
O21 O 0.17243 0.11863 0.02827 0.0
O22 O 0.10675 0.09207 0.12319 0.0
O23 O 0.0402 0.97474 0.09132 0.0
O24 O 0.0591 0.9098 0.98808 0.0
O25 O 0.98164 0.84919 0.03537 0.0
O26 O 0.92015 0.94598 0.09616 0.0
O27 O 0.87958 0.86804 0.9939 0.0
O28 O 0.94569 0.89435 0.89952 0.0
O29 O 1.01179 0.01175 0.93161 0.0
O30 O 0.99296 0.07664 0.03496 0.0
O31 O 0.07038 0.13728 0.98757 0.0
H32 H 0.22884 0.06741 0.09122 0.0
H33 H 0.30128 0.04429 0.09964 0.0
H34 H 0.2916 0.04379 0.86824 0.0
H35 H 0.2204 0.06964 0.86059 0.0
H36 H 0.823 0.91895 0.93111 0.0
H37 H 0.75064 0.94221 0.9228 0.0
H38 H 0.76044 0.94277 0.15422 0.0
H39 H 0.83157 0.91679 0.16176 0.0
H40 H 0.12429 0.14243 0.26098 0.0
H41 H 0.11067 0.12874 0.38626 0.0
H42 H 0.97336 0.88803 0.31978 0.0
H43 H 0.98731 0.90101 0.19448 0.0
H44 H 1.02207 0.09596 0.44437 0.0
H45 H 0.06377 0.859 0.48545 0.0
H46 H 0.0805 0.91668 0.41008 0.0
H47 H 1.01253 0.8353 0.40841 0.0
C48 C 0.09128 0.08653 0.27314 0.0
C49 C 0.05709 0.02257 0.21815 0.0
C50 C 0.08351 0.07882 0.34469 0.0
C51 C 0.04156 0.00693 0.36264 0.0
C52 C 1.00671 0.94344 0.30749 0.0
H53 H 0.92854 0.84435 0.76172 0.0
H54 H 0.94243 0.85839 0.63657 0.0
C55 C 1.01451 0.95108 0.23588 0.0
C56 C 0.03399 -0.00097 0.43894 0.0
H57 H 0.03102 0.89148 0.57878 0.0
C58 C 0.02424 0.05149 0.4739 0.0
C59 C 0.03683 0.94095 0.47737 0.0
C60 C 0.04945 0.88518 0.44378 0.0
C61 C 1.01626 0.0465 0.54578 0.0
C62 C 1.01908 0.98839 0.58421 0.0
C63 C 0.02886 0.93597 0.54926 0.0
C64 C 1.01136 0.98033 0.66045 0.0
C65 C 1.00359 0.10224 0.57934 0.0
C66 C 0.04602 0.04378 0.71571 0.0
C67 C 0.03805 0.03595 0.78725 0.0
C68 C 0.9955 0.9643 0.80479 0.0
C69 C 0.96152 0.90038 0.7497 0.0
C70 C 0.96944 0.90828 0.67823 0.0
H71 H 0.98928 0.1284 0.53765 0.0
H72 H 0.97253 0.07071 0.61302 0.0
H73 H 0.0405 0.15213 0.61473 0.0
H74 H 0.07934 0.09931 0.70356 0.0
H75 H 0.06509 0.086 0.82874 0.0
H76 H 0.38615 0.11047 0.91069 0.0
H77 H 0.46038 0.0913 0.91876 0.0
H78 H 0.39882 0.933 0.08097 0.0
H79 H 0.32315 0.94915 0.07115 0.0
H80 H 0.53904 0.1259 0.0355 0.0
H81 H 0.42034 0.80113 0.9394 0.0
H82 H 0.39205 0.86119 0.92923 0.0
H83 H 0.3998 0.82671 0.01477 0.0
C84 C 0.38774 0.07041 0.94724 0.0
C85 C 0.34818 0.03086 0.98983 0.0
C86 C 0.43057 0.06007 0.95221 0.0
C87 C 0.43486 0.00976 0.99965 0.0
C88 C 0.39586 0.97085 0.04285 0.0
H89 H 0.66587 0.87616 0.11184 0.0
H90 H 0.59167 0.89537 0.10382 0.0
C91 C 0.3529 0.98099 0.03781 0.0
C92 C 0.48092 -0.00017 1.00511 0.0
H93 H 0.51299 0.86075 0.98708 0.0
C94 C 0.53335 0.06797 0.02459 0.0
C95 C 0.47355 0.92421 0.99097 0.0
C96 C 0.41845 0.84919 0.96677 0.0
C97 C 0.57848 0.06244 0.0316 0.0
C98 C 0.57112 0.98682 0.01747 0.0
C99 C 0.51868 0.91869 0.99799 0.0
C100 C 0.61717 0.97689 0.02292 0.0
C101 C 0.63359 0.13747 0.05581 0.0
C102 C 0.65616 0.01579 0.97969 0.0
C103 C 0.6991 0.00562 0.9847 0.0
C104 C 0.70383 0.95574 0.03268 0.0
C105 C 0.66428 0.91622 0.0753 0.0
C106 C 0.62147 0.92658 0.07035 0.0
H107 H 0.63169 0.18553 0.08318 0.0
H108 H 0.65998 0.12546 0.09334 0.0
H109 H 0.65223 0.15994 1.0078 0.0
H110 H 0.6532 0.05363 0.94158 0.0
H111 H 0.72884 0.03744 0.95135 0.0
H112 H 0.08556 0.81626 0.95167 0.0
H113 H 0.08644 0.69485 0.95151 0.0
H114 H 0.954 0.58772 0.06522 0.0
H115 H 0.95214 0.70867 0.06476 0.0
H116 H 0.10248 0.62631 0.07159 0.0
H117 H 0.90403 0.41706 0.89453 0.0
H118 H 0.93681 0.52431 0.90102 0.0
H119 H 0.90214 0.47062 0.97076 0.0
C120 C 0.05634 0.76678 0.97632 0.0
C121 C 1.01864 0.77198 1.00811 0.0
C122 C 0.05697 0.69753 0.97616 0.0
C123 C 1.0199 0.63223 1.00755 0.0
C124 C 0.98224 0.63706 0.03945 0.0
H125 H 0.96652 0.17015 0.07153 0.0
H126 H 0.96565 0.29157 0.07185 0.0
C127 C 0.98141 0.7063 0.03942 0.0
C128 C 1.02204 0.56018 1.00895 0.0
H129 H 0.94958 0.36017 0.95181 0.0
C130 C 0.06918 0.56809 0.04522 0.0
C131 C 0.97843 0.4846 0.97446 0.0
C132 C 0.92763 0.47343 0.93241 0.0
C133 C 0.07363 0.50188 0.04895 0.0
C134 C 0.03003 0.4263 0.01446 0.0
C135 C 0.98288 0.41838 0.97819 0.0
C136 C 0.03218 0.35426 0.0158 0.0
C137 C 0.12444 0.51305 0.09099 0.0
C138 C 0.06983 0.34947 0.98386 0.0
C139 C 0.07066 0.28022 0.9838 0.0
C140 C 0.03343 0.2145 0.01507 0.0
C141 C 0.99574 0.21966 0.04691 0.0
C142 C 0.99511 0.28893 0.04716 0.0
H143 H 0.14803 0.5694 0.12889 0.0
H144 H 0.11526 0.46215 0.12236 0.0
H145 H 0.14993 0.51589 0.05264 0.0
H146 H 0.09807 0.39883 0.95811 0.0
H147 H 0.09993 0.27788 0.95841 0.0
loop_
_geom_bond_atom_site_label_1
_geom_bond_atom_site_label_2
_geom_bond_distance
_geom_bond_site_symmetry_2
_ccdc_geom_bond_type
C0 Eu1 2.835 . S
C0 C2 1.500 . S
C0 O20 1.257 1_554 S
C0 O21 1.260 . S
Eu1 C0 2.835 . S
Eu1 O20 2.473 1_554 S
Eu1 O21 2.480 . S
Eu1 O22 2.430 . S
Eu1 O23 2.670 1_455 S
Eu1 O24 2.394 1_545 S
Eu1 O29 2.355 1_544 S
Eu1 O31 2.374 . S
C2 C0 1.500 . S
C2 C3 1.377 . S
C2 C7 1.377 1_544 S
C3 C2 1.377 . S
C3 C4 1.395 . S
C3 H32 0.931 . S
C4 C3 1.395 . S
C4 C5 1.388 . S
C4 H33 0.931 . S
C5 C4 1.388 . S
C5 C6 1.396 1_544 S
C6 C5 1.396 1_566 S
C6 C7 1.378 . S
C6 H34 0.931 . S
C7 C2 1.377 1_566 S
C7 C6 1.378 . S
C7 H35 0.931 . S
C8 O22 1.259 . S
C8 O23 1.270 1_455 S
C9 O24 1.251 1_655 S
C9 O25 1.251 1_554 S
C10 Eu11 2.835 . S
C10 C12 1.500 . S
C10 O26 1.257 1_556 S
C10 O27 1.260 . S
Eu11 C10 2.835 . S
Eu11 O23 2.355 1_566 S
Eu11 O25 2.374 . S
Eu11 O26 2.473 1_556 S
Eu11 O27 2.480 . S
Eu11 O28 2.430 . S
Eu11 O29 2.670 1_655 S
Eu11 O30 2.394 1_565 S
C12 C10 1.500 . S
C12 C13 1.377 . S
C12 C17 1.377 1_566 S
C13 C12 1.377 . S
C13 C14 1.395 . S
C13 H36 0.931 . S
C14 C13 1.395 . S
C14 C15 1.386 . S
C14 H37 0.931 . S
C15 C14 1.386 . S
C15 C16 1.395 1_566 S
C16 C15 1.395 1_544 S
C16 C17 1.378 . S
C16 H38 0.931 . S
C17 C12 1.377 1_544 S
C17 C16 1.378 . S
C17 H39 0.931 . S
C18 O28 1.259 . S
C18 O29 1.270 1_655 S
C19 O30 1.251 1_455 S
C19 O31 1.251 1_556 S
O20 C0 1.257 1_556 S
O20 Eu1 2.473 1_556 S
O21 C0 1.260 . S
O21 Eu1 2.480 . S
O22 Eu1 2.430 . S
O22 C8 1.259 . S
O23 Eu1 2.670 1_655 S
O23 C8 1.270 1_655 S
O23 Eu11 2.355 1_544 S
O24 Eu1 2.394 1_565 S
O24 C9 1.251 1_455 S
O25 C9 1.251 1_556 S
O25 Eu11 2.374 . S
O26 C10 1.257 1_554 S
O26 Eu11 2.473 1_554 S
O27 C10 1.260 . S
O27 Eu11 2.480 . S
O28 Eu11 2.430 . S
O28 C18 1.259 . S
O29 Eu1 2.355 1_566 S
O29 Eu11 2.670 1_455 S
O29 C18 1.270 1_455 S
O30 Eu11 2.394 1_545 S
O30 C19 1.251 1_655 S
O31 Eu1 2.374 . S
O31 C19 1.251 1_554 S
H32 C3 0.931 . S
H33 C4 0.931 . S
H34 C6 0.931 . S
H35 C7 0.931 . S
H36 C13 0.931 . S
H37 C14 0.931 . S
H38 C16 0.931 . S
H39 C17 0.931 . S
H40 C48 0.929 . S
H41 C50 0.930 . S
H42 C52 0.930 . S
H43 C55 0.929 . S
H44 C58 0.930 . S
H45 C60 0.960 . S
H46 C60 0.960 . S
H47 C60 0.960 . S
C48 H40 0.929 . S
C48 C49 1.387 1_545 S
C48 C50 1.384 . S
C49 C48 1.387 1_565 S
C49 C55 1.379 1_455 S
C50 H41 0.930 . S
C50 C48 1.384 . S
C50 C51 1.369 . S
C51 C50 1.369 . S
C51 C52 1.402 1_445 S
C51 C56 1.490 . S
C52 H42 0.930 . S
C52 C51 1.402 1_665 S
C52 C55 1.386 . S
H53 C69 0.930 . S
H54 C70 0.932 1_565 S
C55 H43 0.929 . S
C55 C49 1.379 1_655 S
C55 C52 1.386 . S
C56 C51 1.490 . S
C56 C58 1.395 . S
C56 C59 1.403 1_445 S
H57 C63 0.930 . S
C58 H44 0.930 . S
C58 C56 1.395 . S
C58 C61 1.403 . S
C59 C56 1.403 1_665 S
C59 C60 1.524 . S
C59 C63 1.400 . S
C60 H45 0.960 . S
C60 H46 0.960 . S
C60 H47 0.960 . S
C60 C59 1.524 . S
C61 C58 1.403 . S
C61 C62 1.392 . S
C61 C65 1.495 . S
C62 C61 1.392 . S
C62 C63 1.385 1_445 S
C62 C64 1.478 . S
C63 H57 0.930 . S
C63 C59 1.400 . S
C63 C62 1.385 1_665 S
C64 C62 1.478 . S
C64 C66 1.381 . S
C64 C70 1.382 1_455 S
C65 C61 1.495 . S
C65 H71 0.959 . S
C65 H72 0.961 . S
C65 H73 0.960 . S
C66 C64 1.381 . S
C66 C67 1.394 . S
C66 H74 0.930 . S
C67 C66 1.394 . S
C67 C68 1.383 . S
C67 H75 0.929 . S
C68 C67 1.383 . S
C68 C69 1.377 1_445 S
C69 H53 0.930 . S
C69 C68 1.377 1_665 S
C69 C70 1.379 1_565 S
C70 H54 0.932 1_545 S
C70 C64 1.382 1_655 S
C70 C69 1.379 1_545 S
H71 C65 0.959 . S
H72 C65 0.961 . S
H73 C65 0.960 . S
H74 C66 0.930 . S
H75 C67 0.929 . S
H76 C84 0.929 . S
H77 C86 0.930 . S
H78 C88 0.930 . S
H79 C91 0.929 . S
H80 C94 0.930 . S
H81 C96 0.960 . S
H82 C96 0.960 . S
H83 C96 0.960 . S
C84 H76 0.929 . S
C84 C85 1.378 1_545 S
C84 C86 1.384 . S
C85 C84 1.378 1_565 S
C85 C91 1.389 1_556 S
C86 H77 0.930 . S
C86 C84 1.384 . S
C86 C87 1.372 . S
C87 C86 1.372 . S
C87 C88 1.400 1_546 S
C87 C92 1.490 . S
C88 H78 0.930 . S
C88 C87 1.400 1_564 S
C88 C91 1.386 . S
H89 C105 0.930 . S
H90 C106 0.931 . S
C91 H79 0.929 . S
C91 C85 1.389 1_554 S
C91 C88 1.386 . S
C92 C87 1.490 . S
C92 C94 1.395 1_556 S
C92 C95 1.403 1_545 S
H93 C99 0.930 . S
C94 H80 0.930 . S
C94 C92 1.395 1_554 S
C94 C97 1.403 . S
C95 C92 1.403 1_565 S
C95 C96 1.524 . S
C95 C99 1.400 . S
C96 H81 0.960 . S
C96 H82 0.960 . S
C96 H83 0.960 . S
C96 C95 1.524 . S
C97 C94 1.403 . S
C97 C98 1.392 . S
C97 C101 1.495 . S
C98 C97 1.392 . S
C98 C99 1.385 1_544 S
C98 C100 1.478 . S
C99 H93 0.930 . S
C99 C95 1.400 . S
C99 C98 1.385 1_566 S
C100 C98 1.478 . S
C100 C102 1.381 1_554 S
C100 C106 1.383 1_545 S
C101 C97 1.495 . S
C101 H107 0.959 . S
C101 H108 0.961 . S
C101 H109 0.960 . S
C102 C100 1.381 1_556 S
C102 C103 1.394 . S
C102 H110 0.930 . S
C103 C102 1.394 . S
C103 C104 1.383 1_556 S
C103 H111 0.929 . S
C104 C103 1.383 1_554 S
C104 C105 1.377 1_545 S
C105 H89 0.930 . S
C105 C104 1.377 1_565 S
C105 C106 1.379 . S
C106 H90 0.931 . S
C106 C100 1.383 1_565 S
C106 C105 1.379 . S
H107 C101 0.959 . S
H108 C101 0.961 . S
H109 C101 0.960 . S
H110 C102 0.930 . S
H111 C103 0.929 . S
H112 C120 0.929 . S
H113 C122 0.930 . S
H114 C124 0.930 . S
H115 C127 0.929 . S
H116 C130 0.930 . S
H117 C132 0.960 . S
H118 C132 0.960 . S
H119 C132 0.960 . S
C120 H112 0.929 . S
C120 C121 1.380 . S
C120 C122 1.384 . S
C121 C120 1.380 . S
C121 C127 1.377 1_656 S
C122 H113 0.930 . S
C122 C120 1.384 . S
C122 C123 1.372 . S
C123 C122 1.372 . S
C123 C124 1.400 1_656 S
C123 C128 1.485 1_655 S
C124 H114 0.930 . S
C124 C123 1.400 1_454 S
C124 C127 1.386 . S
H125 C141 0.930 . S
H126 C142 0.931 . S
C127 H115 0.929 . S
C127 C121 1.377 1_454 S
C127 C124 1.386 . S
C128 C123 1.485 1_455 S
C128 C130 1.402 . S
C128 C131 1.400 1_456 S
H129 C135 0.930 . S
C130 H116 0.930 . S
C130 C128 1.402 . S
C130 C133 1.403 . S
C131 C128 1.400 1_654 S
C131 C132 1.524 . S
C131 C135 1.400 . S
C132 H117 0.960 . S
C132 H118 0.960 . S
C132 H119 0.960 . S
C132 C131 1.524 . S
C133 C130 1.403 . S
C133 C134 1.392 . S
C133 C137 1.495 . S
C134 C133 1.392 . S
C134 C135 1.385 1_456 S
C134 C136 1.478 . S
C135 H129 0.930 . S
C135 C131 1.400 . S
C135 C134 1.385 1_654 S
C136 C134 1.478 . S
C136 C138 1.381 1_455 S
C136 C142 1.383 1_556 S
C137 C133 1.495 . S
C137 H143 0.959 . S
C137 H144 0.961 . S
C137 H145 0.960 . S
C138 C136 1.381 1_655 S
C138 C139 1.394 . S
C138 H146 0.930 . S
C139 C138 1.394 . S
C139 C140 1.383 1_655 S
C139 H147 0.929 . S
C140 C139 1.383 1_455 S
C140 C141 1.377 1_556 S
C141 H125 0.930 . S
C141 C140 1.377 1_554 S
C141 C142 1.379 . S
C142 H126 0.931 . S
C142 C136 1.383 1_554 S
C142 C141 1.379 . S
H143 C137 0.959 . S
H144 C137 0.961 . S
H145 C137 0.960 . S
H146 C138 0.930 . S
H147 C139 0.929 . S
C49 C8 1.453 1_565 S
C68 C18 1.469 1_445 S
C85 C5 1.494 1_566 S
C104 C15 1.493 1_544 S
C121 C9 1.498 1_556 S
C140 C19 1.475 . S
