# Generated by pormake.
# Topology irl, (4)-cn, num edge types: 1
# Building blocks:
#     Node 0, Type 0, BuildingBlock: GALJAG_clean_sbu_0, # of connection points: 4
#     Node 1, Type 0, BuildingBlock: GALJAG_clean_sbu_0, # of connection points: 4
#     Node 2, Type 0, BuildingBlock: GALJAG_clean_sbu_0, # of connection points: 4
#     Node 3, Type 0, BuildingBlock: GALJAG_clean_sbu_0, # of connection points: 4
#     Node 4, Type 0, BuildingBlock: GALJAG_clean_sbu_0, # of connection points: 4
#     Node 5, Type 0, BuildingBlock: GALJAG_clean_sbu_0, # of connection points: 4
#     Node 6, Type 0, BuildingBlock: GALJAG_clean_sbu_0, # of connection points: 4
#     Node 7, Type 0, BuildingBlock: GALJAG_clean_sbu_0, # of connection points: 4
#     Edge 8, Type (0, 0), BuildingBlock: EYOCIG_clean_linker_4, # of connection points: 2
#     Edge 9, Type (0, 0), BuildingBlock: EYOCIG_clean_linker_4, # of connection points: 2
#     Edge 10, Type (0, 0), BuildingBlock: EYOCIG_clean_linker_4, # of connection points: 2
#     Edge 11, Type (0, 0), BuildingBlock: EYOCIG_clean_linker_4, # of connection points: 2
#     Edge 12, Type (0, 0), BuildingBlock: EYOCIG_clean_linker_4, # of connection points: 2
#     Edge 13, Type (0, 0), BuildingBlock: EYOCIG_clean_linker_4, # of connection points: 2
#     Edge 14, Type (0, 0), BuildingBlock: EYOCIG_clean_linker_4, # of connection points: 2
#     Edge 15, Type (0, 0), BuildingBlock: EYOCIG_clean_linker_4, # of connection points: 2
#     Edge 16, Type (0, 0), BuildingBlock: EYOCIG_clean_linker_4, # of connection points: 2
#     Edge 17, Type (0, 0), BuildingBlock: EYOCIG_clean_linker_4, # of connection points: 2
#     Edge 18, Type (0, 0), BuildingBlock: EYOCIG_clean_linker_4, # of connection points: 2
#     Edge 19, Type (0, 0), BuildingBlock: EYOCIG_clean_linker_4, # of connection points: 2
#     Edge 20, Type (0, 0), BuildingBlock: EYOCIG_clean_linker_4, # of connection points: 2
#     Edge 21, Type (0, 0), BuildingBlock: EYOCIG_clean_linker_4, # of connection points: 2
#     Edge 22, Type (0, 0), BuildingBlock: EYOCIG_clean_linker_4, # of connection points: 2
#     Edge 23, Type (0, 0), BuildingBlock: EYOCIG_clean_linker_4, # of connection points: 2
# Relax obj value: 0.098
# Max RMSD: 0.151
# Mean RMSD: 0.151
data_MOF--net-irl--node1-GALJAG_clean_sbu_0--edge1-EYOCIG_clean_linker_4
_symmetry_space_group_name_H-M    P1
_symmetry_Int_Tables_number       1
_symmetry_cell_setting            triclinic
loop_
_symmetry_equiv_pos_as_xyz
'x, y, z'
_cell_length_a     23.53347
_cell_length_b     37.985674
_cell_length_c     23.1419
_cell_angle_alpha  89.986013
_cell_angle_beta   89.99015
_cell_angle_gamma 90.00362
loop_
_atom_site_label
_atom_site_type_symbol
_atom_site_fract_x
_atom_site_fract_y
_atom_site_fract_z
_atom_type_partial_charge
In0 In 0.04384 0.1548 0.02223 0.0
O1 O 0.9841 0.18181 0.08707 0.0
O2 O 0.05208 0.14951 0.11842 0.0
C3 C 0.01049 0.16581 0.91357 0.0
C4 C 0.13616 0.19607 0.02666 0.0
C5 C 0.02658 0.08521 0.01804 0.0
O6 O 0.97865 0.17448 0.95543 0.0
O7 O 0.05797 0.15294 0.92682 0.0
O8 O 0.07594 0.09829 0.01558 0.0
O9 O 0.98645 0.1069 0.02417 0.0
C10 C 0.01106 0.16959 0.13006 0.0
O11 O 0.13954 0.16287 0.02876 0.0
O12 O 0.08671 0.20849 0.02097 0.0
In13 In 0.95542 0.84315 0.02225 0.0
O14 O 0.86001 0.83388 0.02729 0.0
O15 O 0.91445 0.78895 0.01967 0.0
C16 C 0.9714 0.91285 0.01834 0.0
C17 C 0.98592 0.82812 0.13068 0.0
C18 C 0.98937 0.83283 0.91371 0.0
O19 O 0.92229 0.89942 0.01581 0.0
O20 O 0.01195 0.89144 0.02452 0.0
O21 O 0.02146 0.82448 0.95556 0.0
O22 O 0.94146 0.8451 0.92693 0.0
C23 C 0.86453 0.80074 0.02477 0.0
O24 O 0.0139 0.81608 0.08822 0.0
O25 O 0.94529 0.84834 0.11827 0.0
In26 In 0.04393 0.84344 0.52045 0.0
O27 O 0.98378 0.81639 0.456 0.0
O28 O 0.05197 0.84832 0.42406 0.0
C29 C 0.01297 0.83285 0.62974 0.0
C30 C 0.13547 0.80159 0.51726 0.0
C31 C 0.02671 0.91296 0.5264 0.0
O32 O 0.98003 0.82417 0.58875 0.0
O33 O 0.06022 0.84557 0.61528 0.0
O34 O 0.07613 0.89991 0.52707 0.0
O35 O 0.98645 0.89132 0.5205 0.0
C36 C 0.0108 0.82826 0.41277 0.0
O37 O 0.13938 0.83472 0.51355 0.0
O38 O 0.08582 0.78953 0.52338 0.0
In39 In 0.95453 0.15448 0.52057 0.0
O40 O 0.01364 0.18148 0.45498 0.0
O41 O 0.94585 0.1487 0.42453 0.0
C42 C 0.98605 0.16574 0.62963 0.0
C43 C 0.86296 0.19615 0.51534 0.0
C44 C 0.97151 0.08499 0.52697 0.0
O45 O 0.01885 0.17411 0.58832 0.0
O46 O 0.93867 0.15305 0.61558 0.0
O47 O 0.9222 0.09817 0.52849 0.0
O48 O 0.01183 0.10651 0.52018 0.0
C49 C 0.98632 0.16909 0.41234 0.0
O50 O 0.85907 0.16298 0.5128 0.0
O51 O 0.91249 0.20828 0.52195 0.0
In52 In 0.54385 0.65471 0.02264 0.0
O53 O 0.63941 0.66299 0.02933 0.0
O54 O 0.58638 0.7084 0.01924 0.0
C55 C 0.52607 0.58521 0.01713 0.0
C56 C 0.51194 0.67065 0.13049 0.0
C57 C 0.51234 0.66482 0.91336 0.0
O58 O 0.57558 0.59815 0.01605 0.0
O59 O 0.48601 0.60697 0.02333 0.0
O60 O 0.47939 0.67342 0.95441 0.0
O61 O 0.55995 0.65262 0.92776 0.0
C62 C 0.63587 0.69614 0.02557 0.0
O63 O 0.48497 0.68269 0.08737 0.0
O64 O 0.55221 0.64994 0.11903 0.0
In65 In 0.45483 0.34345 0.02225 0.0
O66 O 0.51432 0.31715 0.08809 0.0
O67 O 0.44535 0.34914 0.1182 0.0
C68 C 0.4863 0.33248 0.91318 0.0
C69 C 0.36451 0.30072 0.0269 0.0
C70 C 0.47086 0.41308 0.01621 0.0
O71 O 0.51925 0.3242 0.95441 0.0
O72 O 0.43885 0.34506 0.92732 0.0
O73 O 0.4217 0.39965 0.01479 0.0
O74 O 0.51147 0.39173 0.02266 0.0
C75 C 0.48639 0.32923 0.13058 0.0
O76 O 0.35969 0.33385 0.02923 0.0
O77 O 0.41444 0.28909 0.02089 0.0
In78 In 0.54386 0.34325 0.52061 0.0
O79 O 0.63953 0.33491 0.51331 0.0
O80 O 0.58635 0.28948 0.52166 0.0
C81 C 0.52636 0.41281 0.52512 0.0
C82 C 0.51104 0.32863 0.41282 0.0
C83 C 0.51072 0.33209 0.62927 0.0
O84 O 0.57576 0.3998 0.52768 0.0
O85 O 0.48633 0.39107 0.51872 0.0
O86 O 0.47883 0.32346 0.58744 0.0
O87 O 0.55817 0.34502 0.61599 0.0
C88 C 0.63584 0.30172 0.51542 0.0
O89 O 0.48408 0.31635 0.45578 0.0
O90 O 0.55204 0.34872 0.42448 0.0
In91 In 0.4556 0.65493 0.5202 0.0
O92 O 0.36013 0.66385 0.51455 0.0
O93 O 0.41397 0.70894 0.52369 0.0
C94 C 0.4712 0.58516 0.524 0.0
C95 C 0.48755 0.6708 0.41234 0.0
C96 C 0.48878 0.6646 0.62917 0.0
O97 O 0.42213 0.59868 0.52592 0.0
O98 O 0.5119 0.6065 0.51825 0.0
O99 O 0.52131 0.67302 0.58769 0.0
O100 O 0.44081 0.6527 0.61538 0.0
C101 C 0.36422 0.69697 0.518 0.0
O102 O 0.51485 0.6826 0.45543 0.0
O103 O 0.44687 0.65042 0.42384 0.0
C104 C 0.99164 0.98101 0.01134 0.0
C105 C 0.98101 0.95005 0.01439 0.0
C106 C 0.00528 0.01717 0.01126 0.0
C107 C 0.01628 0.04809 0.01422 0.0
C108 C 0.00563 0.98086 0.53656 0.0
C109 C 0.01648 0.95 0.53202 0.0
C110 C 0.99214 0.01702 0.53672 0.0
C111 C 0.98148 0.04792 0.53239 0.0
C112 C 0.50456 0.51733 0.0071 0.0
C113 C 0.51556 0.54818 0.01157 0.0
C114 C 0.491 0.48116 0.00687 0.0
C115 C 0.48043 0.45022 0.011 0.0
C116 C 0.50478 0.48083 0.53202 0.0
C117 C 0.5159 0.44992 0.52901 0.0
C118 C 0.49112 0.51698 0.53172 0.0
C119 C 0.4806 0.54796 0.52833 0.0
C120 C 0.99677 0.18234 0.24061 0.0
C121 C 0.99884 0.17864 0.18892 0.0
C122 C 0.99859 0.18226 0.30161 0.0
C123 C 0.99734 0.17837 0.3533 0.0
C124 C 0.99625 0.8148 0.30242 0.0
C125 C 0.99845 0.81885 0.35405 0.0
C126 C 0.99788 0.81477 0.24141 0.0
C127 C 0.9967 0.81881 0.18974 0.0
C128 C -0.00017 0.82801 0.74159 0.0
C129 C -0.00019 0.82867 0.68963 0.0
C130 C 0.00494 0.82804 0.80223 0.0
C131 C 0.00411 0.82869 0.85419 0.0
C132 C 0.99487 0.17093 0.80208 0.0
C133 C 0.99586 0.17018 0.85405 0.0
C134 C -0.00024 0.17092 0.7414 0.0
C135 C 0.99957 0.1701 0.68942 0.0
C136 C 0.499 0.68482 0.24088 0.0
C137 C 0.50056 0.68051 0.18926 0.0
C138 C 0.50072 0.68484 0.30194 0.0
C139 C 0.49911 0.68056 0.35357 0.0
C140 C 0.49684 0.31596 0.30228 0.0
C141 C 0.49886 0.31961 0.35397 0.0
C142 C 0.49868 0.31613 0.24131 0.0
C143 C 0.49742 0.32007 0.18964 0.0
C144 C 0.49986 0.32708 0.80142 0.0
C145 C 0.49968 0.32803 0.85338 0.0
C146 C 0.49505 0.32694 0.74074 0.0
C147 C 0.4961 0.3277 0.68879 0.0
C148 C 0.49855 0.66863 0.80149 0.0
C149 C 0.49872 0.66839 0.85347 0.0
C150 C 0.50374 0.66854 0.74085 0.0
C151 C 0.50315 0.66821 0.68888 0.0
C152 C 0.27541 0.25866 0.03371 0.0
C153 C 0.31628 0.2777 0.03057 0.0
C154 C 0.22685 0.23682 0.03365 0.0
C155 C 0.18539 0.21827 0.03045 0.0
C156 C 0.72645 0.73709 0.03045 0.0
C157 C 0.685 0.71848 0.0282 0.0
C158 C 0.77503 0.75892 0.03025 0.0
C159 C 0.81604 0.77788 0.02773 0.0
C160 C 0.22564 0.76025 0.51307 0.0
C161 C 0.18437 0.77904 0.515 0.0
C162 C 0.27421 0.73842 0.51329 0.0
C163 C 0.31544 0.71961 0.51546 0.0
C164 C 0.72515 0.25987 0.50758 0.0
C165 C 0.68466 0.2792 0.51112 0.0
C166 C 0.77307 0.23749 0.50761 0.0
C167 C 0.81415 0.21865 0.51115 0.0
loop_
_geom_bond_atom_site_label_1
_geom_bond_atom_site_label_2
_geom_bond_distance
_geom_bond_site_symmetry_2
_ccdc_geom_bond_type
In0 O1 2.294 1_455 S
In0 O2 2.326 . S
In0 O6 2.266 1_454 S
In0 O7 2.326 1_554 S
In0 O8 2.266 . S
In0 O9 2.326 1_455 S
In0 O11 2.294 . S
In0 O12 2.326 . S
O1 In0 2.294 1_655 S
O1 C10 1.240 1_655 S
O2 In0 2.326 . S
O2 C10 1.252 . S
C3 O6 1.252 1_455 S
C3 O7 1.260 . S
C4 O11 1.240 . S
C4 O12 1.252 . S
C5 O8 1.252 . S
C5 O9 1.260 1_455 S
O6 In0 2.266 1_656 S
O6 C3 1.252 1_655 S
O7 In0 2.326 1_556 S
O7 C3 1.260 . S
O8 In0 2.266 . S
O8 C5 1.252 . S
O9 In0 2.326 1_655 S
O9 C5 1.260 1_655 S
C10 O1 1.240 1_455 S
C10 O2 1.252 . S
O11 In0 2.294 . S
O11 C4 1.240 . S
O12 In0 2.326 . S
O12 C4 1.252 . S
In13 O14 2.294 . S
In13 O15 2.326 . S
In13 O19 2.266 . S
In13 O20 2.326 1_655 S
In13 O21 2.266 1_654 S
In13 O22 2.326 1_554 S
In13 O24 2.294 1_655 S
In13 O25 2.326 . S
O14 In13 2.294 . S
O14 C23 1.240 . S
O15 In13 2.326 . S
O15 C23 1.252 . S
C16 O19 1.252 . S
C16 O20 1.260 1_655 S
C17 O24 1.240 1_655 S
C17 O25 1.252 . S
C18 O21 1.252 1_655 S
C18 O22 1.260 . S
O19 In13 2.266 . S
O19 C16 1.252 . S
O20 In13 2.326 1_455 S
O20 C16 1.260 1_455 S
O21 In13 2.266 1_456 S
O21 C18 1.252 1_455 S
O22 In13 2.326 1_556 S
O22 C18 1.260 . S
C23 O14 1.240 . S
C23 O15 1.252 . S
O24 In13 2.294 1_455 S
O24 C17 1.240 1_455 S
O25 In13 2.326 . S
O25 C17 1.252 . S
In26 O27 2.294 1_455 S
In26 O28 2.326 . S
In26 O32 2.266 1_455 S
In26 O33 2.326 . S
In26 O34 2.266 . S
In26 O35 2.326 1_455 S
In26 O37 2.294 . S
In26 O38 2.326 . S
O27 In26 2.294 1_655 S
O27 C36 1.240 1_655 S
O28 In26 2.326 . S
O28 C36 1.252 . S
C29 O32 1.252 1_455 S
C29 O33 1.260 . S
C30 O37 1.240 . S
C30 O38 1.252 . S
C31 O34 1.252 . S
C31 O35 1.260 1_455 S
O32 In26 2.266 1_655 S
O32 C29 1.252 1_655 S
O33 In26 2.326 . S
O33 C29 1.260 . S
O34 In26 2.266 . S
O34 C31 1.252 . S
O35 In26 2.326 1_655 S
O35 C31 1.260 1_655 S
C36 O27 1.240 1_455 S
C36 O28 1.252 . S
O37 In26 2.294 . S
O37 C30 1.240 . S
O38 In26 2.326 . S
O38 C30 1.252 . S
In39 O40 2.294 1_655 S
In39 O41 2.326 . S
In39 O45 2.266 1_655 S
In39 O46 2.326 . S
In39 O47 2.266 . S
In39 O48 2.326 1_655 S
In39 O50 2.294 . S
In39 O51 2.326 . S
O40 In39 2.294 1_455 S
O40 C49 1.240 1_455 S
O41 In39 2.326 . S
O41 C49 1.252 . S
C42 O45 1.252 1_655 S
C42 O46 1.260 . S
C43 O50 1.240 . S
C43 O51 1.252 . S
C44 O47 1.252 . S
C44 O48 1.260 1_655 S
O45 In39 2.266 1_455 S
O45 C42 1.252 1_455 S
O46 In39 2.326 . S
O46 C42 1.260 . S
O47 In39 2.266 . S
O47 C44 1.252 . S
O48 In39 2.326 1_455 S
O48 C44 1.260 1_455 S
C49 O40 1.240 1_655 S
C49 O41 1.252 . S
O50 In39 2.294 . S
O50 C43 1.240 . S
O51 In39 2.326 . S
O51 C43 1.252 . S
In52 O53 2.294 . S
In52 O54 2.326 . S
In52 O58 2.266 . S
In52 O59 2.326 . S
In52 O60 2.266 1_554 S
In52 O61 2.326 1_554 S
In52 O63 2.294 . S
In52 O64 2.326 . S
O53 In52 2.294 . S
O53 C62 1.240 . S
O54 In52 2.326 . S
O54 C62 1.252 . S
C55 O58 1.252 . S
C55 O59 1.260 . S
C56 O63 1.240 . S
C56 O64 1.252 . S
C57 O60 1.252 . S
C57 O61 1.260 . S
O58 In52 2.266 . S
O58 C55 1.252 . S
O59 In52 2.326 . S
O59 C55 1.260 . S
O60 In52 2.266 1_556 S
O60 C57 1.252 . S
O61 In52 2.326 1_556 S
O61 C57 1.260 . S
C62 O53 1.240 . S
C62 O54 1.252 . S
O63 In52 2.294 . S
O63 C56 1.240 . S
O64 In52 2.326 . S
O64 C56 1.252 . S
In65 O66 2.294 . S
In65 O67 2.326 . S
In65 O71 2.266 1_554 S
In65 O72 2.326 1_554 S
In65 O73 2.266 . S
In65 O74 2.326 . S
In65 O76 2.294 . S
In65 O77 2.326 . S
O66 In65 2.294 . S
O66 C75 1.240 . S
O67 In65 2.326 . S
O67 C75 1.252 . S
C68 O71 1.252 . S
C68 O72 1.260 . S
C69 O76 1.240 . S
C69 O77 1.252 . S
C70 O73 1.252 . S
C70 O74 1.260 . S
O71 In65 2.266 1_556 S
O71 C68 1.252 . S
O72 In65 2.326 1_556 S
O72 C68 1.260 . S
O73 In65 2.266 . S
O73 C70 1.252 . S
O74 In65 2.326 . S
O74 C70 1.260 . S
C75 O66 1.240 . S
C75 O67 1.252 . S
O76 In65 2.294 . S
O76 C69 1.240 . S
O77 In65 2.326 . S
O77 C69 1.252 . S
In78 O79 2.294 . S
In78 O80 2.326 . S
In78 O84 2.266 . S
In78 O85 2.326 . S
In78 O86 2.266 . S
In78 O87 2.326 . S
In78 O89 2.294 . S
In78 O90 2.326 . S
O79 In78 2.294 . S
O79 C88 1.240 . S
O80 In78 2.326 . S
O80 C88 1.252 . S
C81 O84 1.252 . S
C81 O85 1.260 . S
C82 O89 1.240 . S
C82 O90 1.252 . S
C83 O86 1.252 . S
C83 O87 1.260 . S
O84 In78 2.266 . S
O84 C81 1.252 . S
O85 In78 2.326 . S
O85 C81 1.260 . S
O86 In78 2.266 . S
O86 C83 1.252 . S
O87 In78 2.326 . S
O87 C83 1.260 . S
C88 O79 1.240 . S
C88 O80 1.252 . S
O89 In78 2.294 . S
O89 C82 1.240 . S
O90 In78 2.326 . S
O90 C82 1.252 . S
In91 O92 2.294 . S
In91 O93 2.326 . S
In91 O97 2.266 . S
In91 O98 2.326 . S
In91 O99 2.266 . S
In91 O100 2.326 . S
In91 O102 2.294 . S
In91 O103 2.326 . S
O92 In91 2.294 . S
O92 C101 1.240 . S
O93 In91 2.326 . S
O93 C101 1.252 . S
C94 O97 1.252 . S
C94 O98 1.260 . S
C95 O102 1.240 . S
C95 O103 1.252 . S
C96 O99 1.252 . S
C96 O100 1.260 . S
O97 In91 2.266 . S
O97 C94 1.252 . S
O98 In91 2.326 . S
O98 C94 1.260 . S
O99 In91 2.266 . S
O99 C96 1.252 . S
O100 In91 2.326 . S
O100 C96 1.260 . S
C101 O92 1.240 . S
C101 O93 1.252 . S
O102 In91 2.294 . S
O102 C95 1.240 . S
O103 In91 2.326 . S
O103 C95 1.252 . S
C104 C105 1.170 . S
C104 C106 1.380 1_665 S
C105 C104 1.170 . S
C106 C104 1.380 1_445 S
C106 C107 1.170 . S
C107 C106 1.170 . S
C108 C109 1.170 . S
C108 C110 1.380 1_465 S
C109 C108 1.170 . S
C110 C108 1.380 1_645 S
C110 C111 1.170 . S
C111 C110 1.170 . S
C112 C113 1.170 . S
C112 C114 1.380 . S
C113 C112 1.170 . S
C114 C112 1.380 . S
C114 C115 1.170 . S
C115 C114 1.170 . S
C116 C117 1.170 . S
C116 C118 1.380 . S
C117 C116 1.170 . S
C118 C116 1.380 . S
C118 C119 1.170 . S
C119 C118 1.170 . S
C120 C121 1.170 1_655 S
C120 C122 1.380 . S
C121 C120 1.170 1_455 S
C122 C120 1.380 . S
C122 C123 1.170 . S
C123 C122 1.170 . S
C124 C125 1.172 . S
C124 C126 1.380 . S
C125 C124 1.172 . S
C126 C124 1.380 . S
C126 C127 1.170 . S
C127 C126 1.170 . S
C128 C129 1.170 1_455 S
C128 C130 1.380 . S
C129 C128 1.170 1_655 S
C130 C128 1.380 . S
C130 C131 1.170 . S
C131 C130 1.170 . S
C132 C133 1.170 . S
C132 C134 1.380 . S
C133 C132 1.170 . S
C134 C132 1.380 . S
C134 C135 1.170 1_655 S
C135 C134 1.170 1_455 S
C136 C137 1.170 . S
C136 C138 1.380 . S
C137 C136 1.170 . S
C138 C136 1.380 . S
C138 C139 1.170 . S
C139 C138 1.170 . S
C140 C141 1.170 . S
C140 C142 1.380 . S
C141 C140 1.170 . S
C142 C140 1.380 . S
C142 C143 1.170 . S
C143 C142 1.170 . S
C144 C145 1.170 . S
C144 C146 1.380 . S
C145 C144 1.170 . S
C146 C144 1.380 . S
C146 C147 1.170 . S
C147 C146 1.170 . S
C148 C149 1.170 . S
C148 C150 1.380 . S
C149 C148 1.170 . S
C150 C148 1.380 . S
C150 C151 1.170 . S
C151 C150 1.170 . S
C152 C153 1.170 . S
C152 C154 1.380 . S
C153 C152 1.170 . S
C154 C152 1.380 . S
C154 C155 1.170 . S
C155 C154 1.170 . S
C156 C157 1.170 . S
C156 C158 1.380 . S
C157 C156 1.170 . S
C158 C156 1.380 . S
C158 C159 1.170 . S
C159 C158 1.170 . S
C160 C161 1.170 . S
C160 C162 1.380 . S
C161 C160 1.170 . S
C162 C160 1.380 . S
C162 C163 1.170 . S
C163 C162 1.170 . S
C164 C165 1.170 . S
C164 C166 1.380 . S
C165 C164 1.170 . S
C166 C164 1.380 . S
C166 C167 1.170 . S
C167 C166 1.170 . S
C105 C16 1.514 . S
C107 C5 1.511 . S
C109 C31 1.518 . S
C111 C44 1.521 . S
C113 C55 1.517 . S
C115 C70 1.521 . S
C117 C81 1.511 . S
C119 C94 1.515 . S
C121 C10 1.421 . S
C123 C49 1.406 . S
C125 C36 1.425 1_655 S
C127 C17 1.413 . S
C129 C29 1.387 1_655 S
C131 C18 1.427 1_455 S
C133 C3 1.427 1_655 S
C135 C42 1.388 1_455 S
C137 C56 1.432 . S
C139 C95 1.433 . S
C141 C82 1.418 . S
C143 C75 1.406 . S
C145 C68 1.388 . S
C147 C83 1.426 . S
C149 C57 1.397 . S
C151 C96 1.419 . S
C153 C69 1.521 . S
C155 C4 1.518 . S
C157 C62 1.517 . S
C159 C23 1.520 . S
C161 C30 1.518 . S
C163 C101 1.519 . S
C165 C88 1.520 . S
C167 C43 1.519 . S
