# Generated by pormake.
# Topology acs, (6)-cn, num edge types: 1
# Building blocks:
#     Node 0, Type 0, BuildingBlock: IZENUY_clean_sbu_0, # of connection points: 6
#     Node 1, Type 0, BuildingBlock: IZENUY_clean_sbu_0, # of connection points: 6
#     Edge 2, Type (0, 0), BuildingBlock: FUNLAD_clean_linker_0, # of connection points: 2
#     Edge 3, Type (0, 0), BuildingBlock: FUNLAD_clean_linker_0, # of connection points: 2
#     Edge 4, Type (0, 0), BuildingBlock: FUNLAD_clean_linker_0, # of connection points: 2
#     Edge 5, Type (0, 0), BuildingBlock: FUNLAD_clean_linker_0, # of connection points: 2
#     Edge 6, Type (0, 0), BuildingBlock: FUNLAD_clean_linker_0, # of connection points: 2
#     Edge 7, Type (0, 0), BuildingBlock: FUNLAD_clean_linker_0, # of connection points: 2
# Relax obj value: 0.000
# Max RMSD: 0.012
# Mean RMSD: 0.012
data_MOF--net-acs--node1-IZENUY_clean_sbu_0--edge1-FUNLAD_clean_linker_0
_symmetry_space_group_name_H-M    P1
_symmetry_Int_Tables_number       1
_symmetry_cell_setting            triclinic
loop_
_symmetry_equiv_pos_as_xyz
'x, y, z'
_cell_length_a     24.243245
_cell_length_b     23.501145
_cell_length_c     24.299754
_cell_angle_alpha  90.107679
_cell_angle_beta   89.791741
_cell_angle_gamma 121.0545
loop_
_atom_site_label
_atom_site_type_symbol
_atom_site_fract_x
_atom_site_fract_y
_atom_site_fract_z
_atom_type_partial_charge
Fe0 Fe 0.63704 0.34942 0.21783 0.0
Fe1 Fe 0.76353 0.34943 0.22298 0.0
O2 O 0.72227 0.39339 0.22041 0.0
Fe3 Fe 0.76623 0.48131 0.22043 0.0
O4 O 0.70533 0.48925 0.25871 0.0
O5 O 0.63236 0.38704 0.28172 0.0
O6 O 0.62622 0.27913 0.25919 0.0
C7 C 0.66327 0.27469 0.29322 0.0
C8 C 0.6734 0.45784 0.14541 0.0
O9 O 0.72363 0.30881 0.28698 0.0
C10 C 0.83954 0.44885 0.15069 0.0
O11 O 0.63634 0.30884 0.15382 0.0
O12 O 0.70406 0.27915 0.18161 0.0
O13 O 0.73278 0.48441 0.15473 0.0
O14 O 0.6323 0.41191 0.17616 0.0
C15 C 0.83558 0.45782 0.29544 0.0
O16 O 0.80584 0.38707 0.15911 0.0
O17 O 0.83508 0.48928 0.18214 0.0
C18 C 0.66257 0.27472 0.14757 0.0
O19 O 0.83075 0.41191 0.26467 0.0
O20 O 0.80277 0.48439 0.28612 0.0
C21 C 0.66045 0.44881 0.29016 0.0
Fe22 Fe 0.46611 0.75424 0.72185 0.0
Fe23 Fe 0.33931 0.75423 0.71898 0.0
O24 O 0.38088 0.71058 0.72041 0.0
Fe25 Fe 0.33697 0.62275 0.72042 0.0
O26 O 0.39606 0.61432 0.76096 0.0
O27 O 0.46654 0.71605 0.78652 0.0
O28 O 0.47445 0.82465 0.76249 0.0
C29 C 0.43446 0.83019 0.79243 0.0
C30 C 0.43311 0.64661 0.64891 0.0
O31 O 0.37488 0.79529 0.78334 0.0
C32 C 0.26613 0.6542 0.64708 0.0
O33 O 0.4716 0.79529 0.65748 0.0
O34 O 0.40138 0.82463 0.67832 0.0
O35 O 0.37335 0.62027 0.65626 0.0
O36 O 0.47291 0.69168 0.68111 0.0
C37 C 0.26468 0.64661 0.79193 0.0
O38 O 0.30068 0.71603 0.65431 0.0
O39 O 0.26943 0.61431 0.67988 0.0
C40 C 0.44691 0.83018 0.64839 0.0
O41 O 0.26995 0.69168 0.75972 0.0
O42 O 0.2981 0.62028 0.78458 0.0
C43 C 0.43926 0.65422 0.79375 0.0
C44 C 0.52393 0.92926 0.84107 0.0
C45 C 0.45781 0.88299 0.83494 0.0
C46 C 0.54548 0.98063 0.87967 0.0
C47 C 0.50131 0.98649 0.9135 0.0
C48 C 0.43534 0.94023 0.90727 0.0
C49 C 0.41381 0.88902 0.86867 0.0
C50 C 0.52161 1.0408 0.95465 0.0
C51 C 0.58115 0.07489 -0.02357 0.0
C52 C 0.60064 0.12698 0.01946 0.0
C53 C 0.65292 0.14122 0.05338 0.0
C54 C 0.67285 0.18916 0.09468 0.0
C55 C 0.64132 0.2247 0.10287 0.0
H56 H 0.53046 0.15543 0.00044 0.0
C57 C 0.5898 0.21165 0.06815 0.0
C58 C 0.56965 0.16333 0.02682 0.0
H59 H 0.56489 0.2386 0.07295 0.0
H60 H 0.55912 0.92653 0.81541 0.0
H61 H 0.59659 1.01622 0.8818 0.0
H62 H 0.40015 0.94359 0.93246 0.0
H63 H 0.3625 0.85438 0.86509 0.0
H64 H 0.48478 1.05018 0.96963 0.0
H65 H 0.61637 0.06153 0.96514 0.0
H66 H 0.67816 0.1146 0.04835 0.0
H67 H 0.71312 0.19825 0.12023 0.0
C68 C 0.52179 0.63959 0.6019 0.0
C69 C 0.45621 0.6188 0.60611 0.0
C70 C 0.54289 0.61127 0.56274 0.0
C71 C 0.49882 0.56197 0.52649 0.0
C72 C 0.43337 0.54122 0.53088 0.0
C73 C 0.41228 0.5694 0.57003 0.0
C74 C 0.5187 0.52988 0.48449 0.0
C75 C 0.57883 0.55854 0.46388 0.0
C76 C 0.59806 0.52816 0.41986 0.0
C77 C 0.65158 0.57008 0.38709 0.0
C78 C 0.67144 0.54417 0.34503 0.0
C79 C 0.63852 0.4754 0.33494 0.0
H80 H 0.52531 0.42489 0.43598 0.0
C81 C 0.58557 0.43306 0.36837 0.0
C82 C 0.56553 0.45912 0.41049 0.0
H83 H 0.55965 0.3798 0.36212 0.0
H84 H 0.5568 0.67704 0.62941 0.0
H85 H 0.59347 0.62731 0.56198 0.0
H86 H 0.39831 0.50315 0.50377 0.0
H87 H 0.36136 0.55209 0.57212 0.0
H88 H 0.48128 0.48278 0.46775 0.0
H89 H 0.61482 0.60832 0.47692 0.0
H90 H 0.67791 0.62332 0.3937 0.0
H91 H 0.71284 0.5783 0.32048 0.0
C92 C 0.89865 0.43312 0.07246 0.0
C93 C 0.88807 0.47545 0.10592 0.0
C94 C 0.94475 0.45919 0.03034 0.0
C95 C 0.98133 0.52824 0.02102 0.0
C96 C 0.96977 0.57016 0.05383 0.0
C97 C 0.92399 0.54424 0.09589 0.0
C98 C 1.03094 0.55862 -0.02298 0.0
C99 C 0.06237 0.52994 0.95637 0.0
C100 C 0.11435 0.56202 0.91437 0.0
C101 C 0.15901 0.54122 0.90994 0.0
C102 C 0.20827 0.56938 0.87079 0.0
C103 C 0.21378 0.61882 0.83473 0.0
H104 H 0.08511 0.62744 0.87894 0.0
C105 C 0.16904 0.63966 0.83899 0.0
C106 C 0.11963 0.61136 0.87815 0.0
H107 H 0.1715 0.67714 0.81149 0.0
H108 H 0.87125 0.37985 0.07866 0.0
H109 H 0.95071 0.42496 0.00481 0.0
H110 H 0.99673 0.6234 0.04727 0.0
H111 H 0.91676 0.57836 0.12047 0.0
H112 H 1.04479 0.60843 0.96401 0.0
H113 H 1.05265 0.48281 -0.02692 0.0
H114 H 0.15596 0.50311 0.93703 0.0
H115 H 0.24184 0.55202 0.86867 0.0
C116 C 0.45647 0.92919 0.5997 0.0
C117 C 0.47636 0.88297 0.60587 0.0
C118 C 0.48628 0.98055 0.56108 0.0
C119 C 0.53634 0.98644 0.52728 0.0
C120 C 0.55609 0.94022 0.53355 0.0
C121 C 0.52641 0.88902 0.57216 0.0
C122 C 0.57034 1.04074 0.48613 0.0
C123 C 0.54485 0.07478 0.4643 0.0
C124 C 0.57745 0.12688 0.42129 0.0
C125 C 0.5394 0.14108 0.38734 0.0
C126 C 0.56742 0.18904 0.34606 0.0
C127 C 0.6345 0.22464 0.3379 0.0
H128 H 0.67609 0.15542 0.44037 0.0
C129 C 0.67298 0.21163 0.37264 0.0
C130 C 0.64481 0.16329 0.41396 0.0
H131 H 0.72484 0.23862 0.36788 0.0
H132 H 0.41852 0.92643 0.62534 0.0
H133 H 0.47071 1.0161 0.55893 0.0
H134 H 0.59467 0.94361 0.50838 0.0
H135 H 0.54312 0.85441 0.57576 0.0
H136 H 0.61657 1.05017 0.47118 0.0
H137 H 0.49625 0.06137 0.47557 0.0
H138 H 0.48754 0.11441 0.39233 0.0
H139 H 0.53623 0.19809 0.32048 0.0
C140 C 0.51525 0.66976 0.8704 0.0
C141 C 0.46208 0.6274 0.83738 0.0
C142 C 0.53737 0.64361 0.91046 0.0
C143 C 0.50677 0.57442 0.91816 0.0
C144 C 0.45291 0.53242 0.88593 0.0
C145 C 0.43096 0.55845 0.84591 0.0
C146 C 0.52791 0.54393 0.96026 0.0
C147 C 0.58795 0.57385 -0.01894 0.0
C148 C 0.60846 0.54208 0.02263 0.0
C149 C 0.67423 0.56444 0.0279 0.0
C150 C 0.69544 0.53656 0.06714 0.0
C151 C 0.6512 0.48585 0.10226 0.0
H152 H 0.51342 0.47436 0.05688 0.0
C153 C 0.58538 0.46357 0.09707 0.0
C154 C 0.56426 0.49159 0.05806 0.0
H155 H 0.55001 0.42514 0.12385 0.0
H156 H 0.53995 0.72315 0.86525 0.0
H157 H 0.57774 0.67785 0.93565 0.0
H158 H 0.42794 0.47903 0.89136 0.0
H159 H 0.38955 0.52431 0.82155 0.0
H160 H 0.49312 0.49322 -0.02783 0.0
H161 H 0.62454 0.62209 0.96541 0.0
H162 H 0.70941 0.60358 0.00149 0.0
H163 H 0.74653 0.55504 0.07011 0.0
C164 C 0.20566 0.66973 0.57045 0.0
C165 C 0.21648 0.62737 0.60346 0.0
C166 C 0.15738 0.64357 0.53039 0.0
C167 C 0.11881 0.57439 0.52268 0.0
C168 C 0.13068 0.53239 0.55489 0.0
C169 C 0.17867 0.55843 0.59492 0.0
C170 C 0.06716 0.54389 0.48059 0.0
C171 C 1.03703 0.5738 0.45981 0.0
C172 C 0.98475 0.54203 0.41823 0.0
C173 C 0.94131 0.56437 0.41299 0.0
C174 C 0.89223 0.53649 0.37374 0.0
C175 C 0.88578 0.48582 0.33859 0.0
H176 H 1.0121 0.47436 0.38395 0.0
C177 C 0.92933 0.46356 0.34376 0.0
C178 C 0.97847 0.49157 0.38278 0.0
H179 H 0.92629 0.42515 0.31697 0.0
H180 H 0.23434 0.72312 0.57561 0.0
H181 H 0.15124 0.67781 0.50522 0.0
H182 H 0.10227 0.479 0.54945 0.0
H183 H 0.18595 0.52429 0.61926 0.0
H184 H 1.05126 0.49319 0.46866 0.0
H185 H 1.04866 0.62202 0.47548 0.0
H186 H 0.94527 0.60349 0.43941 0.0
H187 H 0.85961 0.55496 0.37079 0.0
loop_
_geom_bond_atom_site_label_1
_geom_bond_atom_site_label_2
_geom_bond_distance
_geom_bond_site_symmetry_2
_ccdc_geom_bond_type
Fe0 O2 1.918 . S
Fe0 O5 1.997 . S
Fe0 O6 2.002 . S
Fe0 O11 1.976 . S
Fe0 O14 1.996 . S
Fe1 O2 1.918 . S
Fe1 O9 1.997 . S
Fe1 O12 1.996 . S
Fe1 O16 1.976 . S
Fe1 O19 2.002 . S
O2 Fe0 1.918 . S
O2 Fe1 1.918 . S
O2 Fe3 1.918 . S
Fe3 O2 1.918 . S
Fe3 O4 2.002 . S
Fe3 O13 1.976 . S
Fe3 O17 1.996 . S
Fe3 O20 1.997 . S
O4 Fe3 2.002 . S
O4 C21 1.295 . S
O5 Fe0 1.997 . S
O5 C21 1.235 . S
O6 Fe0 2.002 . S
O6 C7 1.295 . S
C7 O6 1.295 . S
C7 O9 1.235 . S
C8 O13 1.287 . S
C8 O14 1.255 . S
O9 Fe1 1.997 . S
O9 C7 1.235 . S
C10 O16 1.287 . S
C10 O17 1.255 . S
O11 Fe0 1.976 . S
O11 C18 1.287 . S
O12 Fe1 1.996 . S
O12 C18 1.255 . S
O13 Fe3 1.976 . S
O13 C8 1.287 . S
O14 Fe0 1.996 . S
O14 C8 1.255 . S
C15 O19 1.295 . S
C15 O20 1.235 . S
O16 Fe1 1.976 . S
O16 C10 1.287 . S
O17 Fe3 1.996 . S
O17 C10 1.255 . S
C18 O11 1.287 . S
C18 O12 1.255 . S
O19 Fe1 2.002 . S
O19 C15 1.295 . S
O20 Fe3 1.997 . S
O20 C15 1.235 . S
C21 O4 1.295 . S
C21 O5 1.235 . S
Fe22 O24 1.918 . S
Fe22 O27 1.997 . S
Fe22 O28 2.002 . S
Fe22 O33 1.976 . S
Fe22 O36 1.996 . S
Fe23 O24 1.918 . S
Fe23 O31 1.997 . S
Fe23 O34 1.996 . S
Fe23 O38 1.976 . S
Fe23 O41 2.002 . S
O24 Fe22 1.918 . S
O24 Fe23 1.918 . S
O24 Fe25 1.918 . S
Fe25 O24 1.918 . S
Fe25 O26 2.002 . S
Fe25 O35 1.976 . S
Fe25 O39 1.996 . S
Fe25 O42 1.997 . S
O26 Fe25 2.002 . S
O26 C43 1.295 . S
O27 Fe22 1.997 . S
O27 C43 1.235 . S
O28 Fe22 2.002 . S
O28 C29 1.295 . S
C29 O28 1.295 . S
C29 O31 1.235 . S
C30 O35 1.287 . S
C30 O36 1.255 . S
O31 Fe23 1.997 . S
O31 C29 1.235 . S
C32 O38 1.287 . S
C32 O39 1.255 . S
O33 Fe22 1.976 . S
O33 C40 1.287 . S
O34 Fe23 1.996 . S
O34 C40 1.255 . S
O35 Fe25 1.976 . S
O35 C30 1.287 . S
O36 Fe22 1.996 . S
O36 C30 1.255 . S
C37 O41 1.295 . S
C37 O42 1.235 . S
O38 Fe23 1.976 . S
O38 C32 1.287 . S
O39 Fe25 1.996 . S
O39 C32 1.255 . S
C40 O33 1.287 . S
C40 O34 1.255 . S
O41 Fe23 2.002 . S
O41 C37 1.295 . S
O42 Fe25 1.997 . S
O42 C37 1.235 . S
C43 O26 1.295 . S
C43 O27 1.235 . S
C44 C45 1.386 . S
C44 C46 1.383 . S
C44 H60 0.951 . S
C45 C44 1.386 . S
C45 C49 1.383 . S
C46 C44 1.383 . S
C46 C47 1.402 . S
C46 H61 0.951 . S
C47 C46 1.402 . S
C47 C48 1.375 . S
C47 C50 1.481 . S
C48 C47 1.375 . S
C48 C49 1.367 . S
C48 H62 0.951 . S
C49 C45 1.383 . S
C49 C48 1.367 . S
C49 H63 0.950 . S
C50 C47 1.481 . S
C50 C51 1.297 1_565 S
C50 H64 0.950 1_556 S
C51 C50 1.297 1_545 S
C51 C52 1.479 1_556 S
C51 H65 0.950 . S
C52 C51 1.479 1_554 S
C52 C53 1.375 . S
C52 C58 1.404 . S
C53 C52 1.375 . S
C53 C54 1.369 . S
C53 H66 0.950 1_554 S
C54 C53 1.369 . S
C54 C55 1.392 . S
C54 H67 0.951 . S
C55 C54 1.392 . S
C55 C57 1.384 . S
H56 C58 0.949 . S
C57 C55 1.384 . S
C57 C58 1.385 . S
C57 H59 0.950 . S
C58 C52 1.404 . S
C58 H56 0.949 . S
C58 C57 1.385 . S
H59 C57 0.950 . S
H60 C44 0.951 . S
H61 C46 0.951 . S
H62 C48 0.951 . S
H63 C49 0.950 . S
H64 C50 0.950 1_554 S
H65 C51 0.950 . S
H66 C53 0.950 1_556 S
H67 C54 0.951 . S
C68 C69 1.386 . S
C68 C70 1.383 . S
C68 H84 0.951 . S
C69 C68 1.386 . S
C69 C73 1.383 . S
C70 C68 1.383 . S
C70 C71 1.402 . S
C70 H85 0.951 . S
C71 C70 1.402 . S
C71 C72 1.375 . S
C71 C74 1.481 . S
C72 C71 1.375 . S
C72 C73 1.367 . S
C72 H86 0.951 . S
C73 C69 1.383 . S
C73 C72 1.367 . S
C73 H87 0.950 . S
C74 C71 1.481 . S
C74 C75 1.297 . S
C74 H88 0.950 . S
C75 C74 1.297 . S
C75 C76 1.479 . S
C75 H89 0.950 . S
C76 C75 1.479 . S
C76 C77 1.375 . S
C76 C82 1.404 . S
C77 C76 1.375 . S
C77 C78 1.369 . S
C77 H90 0.950 . S
C78 C77 1.369 . S
C78 C79 1.392 . S
C78 H91 0.951 . S
C79 C78 1.392 . S
C79 C81 1.384 . S
H80 C82 0.949 . S
C81 C79 1.384 . S
C81 C82 1.385 . S
C81 H83 0.950 . S
C82 C76 1.404 . S
C82 H80 0.949 . S
C82 C81 1.385 . S
H83 C81 0.950 . S
H84 C68 0.951 . S
H85 C70 0.951 . S
H86 C72 0.951 . S
H87 C73 0.950 . S
H88 C74 0.950 . S
H89 C75 0.950 . S
H90 C77 0.950 . S
H91 C78 0.951 . S
C92 C93 1.386 . S
C92 C94 1.383 . S
C92 H108 0.951 . S
C93 C92 1.386 . S
C93 C97 1.383 . S
C94 C92 1.383 . S
C94 C95 1.402 . S
C94 H109 0.951 . S
C95 C94 1.402 . S
C95 C96 1.375 . S
C95 C98 1.481 1_554 S
C96 C95 1.375 . S
C96 C97 1.367 . S
C96 H110 0.951 . S
C97 C93 1.383 . S
C97 C96 1.367 . S
C97 H111 0.950 . S
C98 C95 1.481 1_556 S
C98 C99 1.297 1_655 S
C98 H112 0.950 . S
C99 C98 1.297 1_455 S
C99 C100 1.479 . S
C99 H113 0.946 . S
C100 C99 1.479 . S
C100 C101 1.375 . S
C100 C106 1.404 . S
C101 C100 1.375 . S
C101 C102 1.369 . S
C101 H114 0.950 . S
C102 C101 1.369 . S
C102 C103 1.392 . S
C102 H115 0.951 . S
C103 C102 1.392 . S
C103 C105 1.384 . S
H104 C106 0.949 . S
C105 C103 1.384 . S
C105 C106 1.385 . S
C105 H107 0.950 . S
C106 C100 1.404 . S
C106 H104 0.949 . S
C106 C105 1.385 . S
H107 C105 0.950 . S
H108 C92 0.951 . S
H109 C94 0.951 . S
H110 C96 0.951 . S
H111 C97 0.950 . S
H112 C98 0.950 . S
H113 C99 0.946 . S
H114 C101 0.950 . S
H115 C102 0.951 . S
C116 C117 1.386 . S
C116 C118 1.383 . S
C116 H132 0.951 . S
C117 C116 1.386 . S
C117 C121 1.383 . S
C118 C116 1.383 . S
C118 C119 1.402 . S
C118 H133 0.951 . S
C119 C118 1.402 . S
C119 C120 1.375 . S
C119 C122 1.481 1_565 S
C120 C119 1.375 . S
C120 C121 1.367 . S
C120 H134 0.951 . S
C121 C117 1.383 . S
C121 C120 1.367 . S
C121 H135 0.950 . S
C122 C119 1.481 1_545 S
C122 C123 1.297 . S
C122 H136 0.950 . S
C123 C122 1.297 . S
C123 C124 1.479 . S
C123 H137 0.950 1_545 S
C124 C123 1.479 . S
C124 C125 1.375 . S
C124 C130 1.404 . S
C125 C124 1.375 . S
C125 C126 1.369 . S
C125 H138 0.950 . S
C126 C125 1.369 . S
C126 C127 1.392 . S
C126 H139 0.951 . S
C127 C126 1.392 . S
C127 C129 1.384 . S
H128 C130 0.949 . S
C129 C127 1.384 . S
C129 C130 1.385 . S
C129 H131 0.950 . S
C130 C124 1.404 . S
C130 H128 0.949 . S
C130 C129 1.385 . S
H131 C129 0.950 . S
H132 C116 0.951 . S
H133 C118 0.951 . S
H134 C120 0.951 . S
H135 C121 0.950 . S
H136 C122 0.950 . S
H137 C123 0.950 1_565 S
H138 C125 0.950 . S
H139 C126 0.951 . S
C140 C141 1.386 . S
C140 C142 1.383 . S
C140 H156 0.951 . S
C141 C140 1.386 . S
C141 C145 1.383 . S
C142 C140 1.383 . S
C142 C143 1.402 . S
C142 H157 0.951 . S
C143 C142 1.402 . S
C143 C144 1.375 . S
C143 C146 1.481 . S
C144 C143 1.375 . S
C144 C145 1.367 . S
C144 H158 0.951 . S
C145 C141 1.383 . S
C145 C144 1.367 . S
C145 H159 0.950 . S
C146 C143 1.481 . S
C146 C147 1.297 1_556 S
C146 H160 0.950 . S
C147 C146 1.297 1_554 S
C147 C148 1.479 . S
C147 H161 0.950 . S
C148 C147 1.479 . S
C148 C149 1.375 . S
C148 C154 1.404 . S
C149 C148 1.375 . S
C149 C150 1.369 . S
C149 H162 0.950 . S
C150 C149 1.369 . S
C150 C151 1.392 . S
C150 H163 0.951 . S
C151 C150 1.392 . S
C151 C153 1.384 . S
H152 C154 0.949 . S
C153 C151 1.384 . S
C153 C154 1.385 . S
C153 H155 0.950 . S
C154 C148 1.404 . S
C154 H152 0.949 . S
C154 C153 1.385 . S
H155 C153 0.950 . S
H156 C140 0.951 . S
H157 C142 0.951 . S
H158 C144 0.951 . S
H159 C145 0.950 . S
H160 C146 0.950 . S
H161 C147 0.950 . S
H162 C149 0.950 . S
H163 C150 0.951 . S
C164 C165 1.386 . S
C164 C166 1.383 . S
C164 H180 0.951 . S
C165 C164 1.386 . S
C165 C169 1.383 . S
C166 C164 1.383 . S
C166 C167 1.402 . S
C166 H181 0.951 . S
C167 C166 1.402 . S
C167 C168 1.375 . S
C167 C170 1.481 . S
C168 C167 1.375 . S
C168 C169 1.367 . S
C168 H182 0.951 . S
C169 C165 1.383 . S
C169 C168 1.367 . S
C169 H183 0.950 . S
C170 C167 1.481 . S
C170 C171 1.297 1_455 S
C170 H184 0.950 . S
C171 C170 1.297 1_655 S
C171 C172 1.479 . S
C171 H185 0.950 . S
C172 C171 1.479 . S
C172 C173 1.375 . S
C172 C178 1.404 . S
C173 C172 1.375 . S
C173 C174 1.369 . S
C173 H186 0.950 . S
C174 C173 1.369 . S
C174 C175 1.392 . S
C174 H187 0.951 . S
C175 C174 1.392 . S
C175 C177 1.384 . S
H176 C178 0.949 . S
C177 C175 1.384 . S
C177 C178 1.385 . S
C177 H179 0.950 . S
C178 C172 1.404 . S
C178 H176 0.949 . S
C178 C177 1.385 . S
H179 C177 0.950 . S
H180 C164 0.951 . S
H181 C166 0.951 . S
H182 C168 0.951 . S
H183 C169 0.950 . S
H184 C170 0.950 . S
H185 C171 0.950 . S
H186 C173 0.950 . S
H187 C174 0.951 . S
C45 C29 1.488 . S
C55 C18 1.495 . S
C69 C30 1.493 . S
C79 C21 1.500 . S
C93 C10 1.498 . S
C103 C37 1.457 . S
C117 C40 1.489 . S
C127 C7 1.488 . S
C141 C43 1.489 . S
C151 C8 1.477 . S
C165 C32 1.499 . S
C175 C15 1.466 . S
