# Generated by pormake.
# Topology bcu, (8)-cn, num edge types: 1
# Building blocks:
#     Node 0, Type 0, BuildingBlock: AJUNOK_clean_sbu_0, # of connection points: 8
#     Node 1, Type 0, BuildingBlock: AJUNOK_clean_sbu_0, # of connection points: 8
#     Edge 2, Type (0, 0), BuildingBlock: CIFDUS_clean_linker_0, # of connection points: 2
#     Edge 3, Type (0, 0), BuildingBlock: CIFDUS_clean_linker_0, # of connection points: 2
#     Edge 4, Type (0, 0), BuildingBlock: CIFDUS_clean_linker_0, # of connection points: 2
#     Edge 5, Type (0, 0), BuildingBlock: CIFDUS_clean_linker_0, # of connection points: 2
#     Edge 6, Type (0, 0), BuildingBlock: CIFDUS_clean_linker_0, # of connection points: 2
#     Edge 7, Type (0, 0), BuildingBlock: CIFDUS_clean_linker_0, # of connection points: 2
#     Edge 8, Type (0, 0), BuildingBlock: CIFDUS_clean_linker_0, # of connection points: 2
#     Edge 9, Type (0, 0), BuildingBlock: CIFDUS_clean_linker_0, # of connection points: 2
# Relax obj value: 0.057
# Max RMSD: 0.168
# Mean RMSD: 0.168
data_MOF--net-bcu--node1-AJUNOK_clean_sbu_0--edge1-CIFDUS_clean_linker_0
_symmetry_space_group_name_H-M    P1
_symmetry_Int_Tables_number       1
_symmetry_cell_setting            triclinic
loop_
_symmetry_equiv_pos_as_xyz
'x, y, z'
_cell_length_a     21.553164
_cell_length_b     22.171822
_cell_length_c     15.874082
_cell_angle_alpha  106.89702
_cell_angle_beta   104.97414
_cell_angle_gamma 106.18743
loop_
_atom_site_label
_atom_site_type_symbol
_atom_site_fract_x
_atom_site_fract_y
_atom_site_fract_z
_atom_type_partial_charge
Cd0 Cd 0.93622 0.91093 0.10323 0.0
Cd1 Cd 0.03101 0.01003 0.91624 0.0
C2 C 0.06906 0.89851 0.22976 0.0
N3 N 0.02562 0.87244 0.13768 0.0
C4 C 0.08011 0.79426 0.09491 0.0
C5 C 0.12534 0.82005 0.18981 0.0
C6 C 0.12001 0.87347 0.25731 0.0
C7 C 0.03031 0.82158 0.07014 0.0
H8 H 0.06274 0.93738 0.28256 0.0
H9 H -0.00563 0.80126 0.99765 0.0
C10 C 0.90309 0.87704 0.854 0.0
C11 C 0.90352 0.03473 0.79818 0.0
C12 C 0.85555 0.06439 0.77727 0.0
C13 C 0.85125 0.11467 0.85084 0.0
C14 C 0.89447 0.13246 0.94463 0.0
C15 C 0.94166 0.1012 0.96236 0.0
N16 N 0.94528 0.05356 0.88935 0.0
H17 H 0.90864 -0.00223 0.74136 0.0
H18 H 0.9765 0.11597 0.03404 0.0
C19 C 0.0776 0.90069 0.8025 0.0
N20 N 0.08165 0.93065 0.89252 0.0
C21 C 0.15131 0.87286 0.94738 0.0
C22 C 0.14909 0.842 0.85504 0.0
C23 C 0.11112 0.85612 0.78207 0.0
C24 C 0.11714 0.91759 0.96473 0.0
H25 H 0.04944 0.9127 0.74683 0.0
H26 H 0.11981 0.94269 0.03582 0.0
C27 C 0.05955 0.04698 0.1637 0.0
C28 C 0.84244 0.81794 0.14732 0.0
N29 N 0.88489 -0.01063 0.12888 0.0
C30 C 0.88591 0.0169 0.21782 0.0
C31 C 0.8519 0.06111 0.23753 0.0
C32 C 0.81656 0.07726 0.16493 0.0
C33 C 0.81693 0.04832 0.07366 0.0
C34 C 0.85146 0.00394 0.05701 0.0
C35 C 0.12314 0.10343 0.87092 0.0
O36 O 0.93192 0.90375 0.9437 0.0
O37 O 0.93058 0.90614 0.80725 0.0
O38 O 0.03364 0.01655 0.07421 0.0
O39 O 0.03114 0.01985 0.21137 0.0
O40 O 0.83089 0.81207 0.06202 0.0
O41 O 0.89742 0.86626 0.21034 0.0
O42 O 0.07259 0.05043 0.80774 0.0
O43 O 0.13103 0.11364 0.95681 0.0
H44 H 0.91221 0.00344 0.27309 0.0
H45 H 0.85089 -0.01958 0.98666 0.0
H46 H 0.08286 0.75311 0.04086 0.0
H47 H 0.15301 0.89379 0.33142 0.0
H48 H 0.82275 0.04867 0.70412 0.0
H49 H 0.89332 0.17151 1.00331 0.0
H50 H 0.17943 0.86292 1.00556 0.0
H51 H 0.109 0.83466 0.71029 0.0
H52 H 0.85176 0.08087 0.30837 0.0
H53 H 0.79071 0.05962 0.01573 0.0
Cd54 Cd 0.43529 0.40983 0.60119 0.0
Cd55 Cd 0.52958 0.50955 0.41444 0.0
C56 C 0.56328 0.3858 0.71933 0.0
N57 N 0.52143 0.3668 0.62814 0.0
C58 C 0.57259 0.2882 0.57298 0.0
C59 C 0.61588 0.30615 0.66679 0.0
C60 C 0.61146 0.35638 0.74029 0.0
C61 C 0.52518 0.31923 0.55518 0.0
H62 H 0.55805 0.42269 0.77611 0.0
H63 H 0.49027 0.30433 0.4835 0.0
C64 C 0.40678 0.37316 0.35388 0.0
C65 C 0.39625 0.52148 0.2882 0.0
C66 C 0.34516 0.5464 0.2608 0.0
C67 C 0.33985 0.5998 0.32837 0.0
C68 C 0.38522 0.62565 0.42321 0.0
C69 C 0.43516 0.59846 0.44783 0.0
N70 N 0.43985 0.54765 0.38021 0.0
H71 H 0.40255 0.48266 0.23532 0.0
H72 H 0.47123 0.61886 0.52026 0.0
C73 C 0.58054 0.40419 0.30002 0.0
N74 N 0.58143 0.43154 0.38892 0.0
C75 C 0.64973 0.37286 0.44414 0.0
C76 C 0.65019 0.34407 0.35289 0.0
C77 C 0.61477 0.36019 0.28032 0.0
C78 C 0.61498 0.41703 0.46078 0.0
H79 H 0.55415 0.41761 0.24476 0.0
H80 H 0.61544 0.44041 0.5311 0.0
C81 C 0.56275 0.5433 0.66371 0.0
C82 C 0.34352 0.316 0.64636 0.0
N83 N 0.3841 0.48875 0.62488 0.0
C84 C 0.38801 0.51851 0.71487 0.0
C85 C 0.35427 0.56286 0.73533 0.0
C86 C 0.31623 0.57698 0.66241 0.0
C87 C 0.31411 0.54629 0.57008 0.0
C88 C 0.34851 0.50178 0.55271 0.0
C89 C 0.62298 0.60292 0.37037 0.0
O90 O 0.43272 0.40361 0.44336 0.0
O91 O 0.43502 0.40039 0.30616 0.0
O92 O 0.53402 0.51664 0.57399 0.0
O93 O 0.53533 0.514 0.71033 0.0
O94 O 0.39397 0.36907 0.70956 0.0
O95 O 0.33558 0.30589 0.56048 0.0
O96 O 0.63462 0.6087 0.45565 0.0
O97 O 0.56805 0.55451 0.30735 0.0
H98 H 0.41625 0.50652 0.7705 0.0
H99 H 0.34597 0.47685 0.48163 0.0
H100 H 0.57382 0.24919 0.51434 0.0
H101 H 0.64431 0.37221 0.81346 0.0
H102 H 0.31205 0.52604 0.18673 0.0
H103 H 0.3825 0.66678 0.47731 0.0
H104 H 0.67601 0.36157 0.50204 0.0
H105 H 0.61497 0.34054 0.2095 0.0
H106 H 0.3563 0.58418 0.80708 0.0
H107 H 0.28594 0.55624 0.51194 0.0
H108 H 0.16414 0.08661 0.10424 0.0
H109 H 0.09188 0.1496 0.33137 0.0
H110 H 0.19381 0.25695 0.41082 0.0
H111 H 0.30231 0.33343 0.41344 0.0
H112 H 0.37456 0.27048 0.18629 0.0
H113 H 0.27268 0.16308 0.1069 0.0
C114 C 0.17025 0.12466 0.17005 0.0
C115 C 0.12037 0.11145 0.21106 0.0
C116 C 0.22881 0.18583 0.21505 0.0
C117 C 0.12979 0.15927 0.29848 0.0
C118 C 0.18785 0.22049 0.34373 0.0
C119 C 0.29621 0.29538 0.34765 0.0
C120 C 0.34606 0.30861 0.3066 0.0
C121 C 0.23767 0.2342 0.30266 0.0
C122 C 0.33666 0.26079 0.2192 0.0
C123 C 0.27863 0.19954 0.17398 0.0
H124 H 0.8553 0.19099 0.32283 0.0
H125 H 0.69021 0.06425 0.05057 0.0
H126 H 0.62414 0.13507 0.08542 0.0
H127 H 0.61156 0.23044 0.19493 0.0
H128 H 0.77662 0.35718 0.46721 0.0
H129 H 0.84273 0.28641 0.43233 0.0
C130 C 0.80456 0.17837 0.27138 0.0
C131 C 0.77779 0.12219 0.18431 0.0
C132 C 0.76627 0.21849 0.29249 0.0
C133 C 0.71261 0.10765 0.11766 0.0
C134 C 0.67443 0.14772 0.13787 0.0
C135 C 0.6623 0.24308 0.24637 0.0
C136 C 0.68904 0.29923 0.33346 0.0
C137 C 0.70061 0.20298 0.22525 0.0
C138 C 0.75424 0.3138 0.4001 0.0
C139 C 0.79244 0.27375 0.37987 0.0
H140 H 0.85766 0.81918 0.3227 0.0
H141 H 0.71827 0.71312 0.02998 0.0
H142 H 0.63809 0.63738 0.07371 0.0
H143 H 0.6076 0.60184 0.19502 0.0
H144 H 0.74704 0.70787 0.48772 0.0
H145 H 0.82715 0.78369 0.44401 0.0
C146 C 0.80977 0.77946 0.26836 0.0
C147 C 0.79407 0.77158 0.17313 0.0
C148 C 0.76387 0.73643 0.29408 0.0
C149 C 0.73177 0.71996 0.10366 0.0
C150 C 0.68583 0.67678 0.12867 0.0
C151 C 0.65548 0.64158 0.24936 0.0
C152 C 0.67122 0.64942 0.34458 0.0
C153 C 0.70136 0.68464 0.22364 0.0
C154 C 0.7335 0.70106 0.41405 0.0
C155 C 0.77941 0.74428 0.38905 0.0
H156 H 0.09942 0.68556 0.14539 0.0
H157 H 0.26221 0.8856 0.30474 0.0
H158 H 0.34223 0.83527 0.36526 0.0
H159 H 0.36571 0.73428 0.37289 0.0
H160 H 0.20293 0.53423 0.21355 0.0
H161 H 0.12289 0.58456 0.15308 0.0
C162 C 0.1527 0.71795 0.19238 0.0
C163 C 0.17509 0.78906 0.22034 0.0
C164 C 0.19808 0.68872 0.22756 0.0
C165 C 0.24384 0.83068 0.28259 0.0
C166 C 0.28951 0.80197 0.31724 0.0
C167 C 0.31243 0.70189 0.32593 0.0
C168 C 0.29006 0.63077 0.29795 0.0
C169 C 0.26704 0.73111 0.29077 0.0
C170 C 0.22129 0.58915 0.23572 0.0
C171 C 0.17561 0.61786 0.20109 0.0
H172 H 0.10782 0.72532 0.70022 0.0
H173 H 0.27898 0.85938 0.96399 0.0
H174 H 0.34603 0.79004 0.92668 0.0
H175 H 0.35739 0.69353 0.81732 0.0
H176 H 0.18626 0.55949 0.55352 0.0
H177 H 0.11916 0.62877 0.59087 0.0
C178 C 0.16 0.73974 0.74931 0.0
C179 C 0.18825 0.79758 0.83476 0.0
C180 C 0.19874 0.70039 0.72672 0.0
C181 C 0.25546 0.81463 0.89835 0.0
C182 C 0.29416 0.7754 0.87665 0.0
C183 C 0.3052 0.6791 0.76823 0.0
C184 C 0.27697 0.62129 0.68276 0.0
C185 C 0.26645 0.71843 0.79084 0.0
C186 C 0.20976 0.60422 0.61918 0.0
C187 C 0.17103 0.64342 0.6409 0.0
H188 H 0.34841 0.32887 0.82317 0.0
H189 H 0.23254 0.19727 0.52802 0.0
H190 H 0.15391 0.12018 0.57199 0.0
H191 H 0.11841 0.09038 0.69409 0.0
H192 H 0.23425 0.22203 0.98922 0.0
H193 H 0.31296 0.29904 0.94526 0.0
C194 C 0.306 0.28328 0.76837 0.0
C195 C 0.29624 0.26884 0.67243 0.0
C196 C 0.26115 0.23929 0.79416 0.0
C197 C 0.24105 0.20962 0.60234 0.0
C198 C 0.19613 0.16551 0.62744 0.0
C199 C 0.16084 0.13595 0.74888 0.0
C200 C 0.17056 0.15044 0.84482 0.0
C201 C 0.20572 0.17992 0.72309 0.0
C202 C 0.22577 0.20964 0.91491 0.0
C203 C 0.27074 0.2537 0.88981 0.0
H204 H 0.82846 0.16021 0.7088 0.0
H205 H 0.7682 0.14926 0.94472 0.0
H206 H 0.6907 0.2081 0.90884 0.0
H207 H 0.63881 0.26076 0.80894 0.0
H208 H 0.69904 0.27171 0.573 0.0
H209 H 0.77661 0.21293 0.60894 0.0
C210 C 0.79779 0.16999 0.75176 0.0
C211 C 0.80386 0.15008 0.82906 0.0
C212 C 0.75318 0.20348 0.73045 0.0
C213 C 0.7649 0.1645 0.88529 0.0
C214 C 0.72034 0.19784 0.86453 0.0
C215 C 0.6695 0.251 0.766 0.0
C216 C 0.66339 0.27087 0.68866 0.0
C217 C 0.71413 0.21754 0.78733 0.0
C218 C 0.70237 0.25649 0.63246 0.0
C219 C 0.74696 0.22318 0.65324 0.0
H220 H 0.60769 0.64439 0.60578 0.0
H221 H 0.66387 0.57597 0.83166 0.0
H222 H 0.77558 0.67293 0.90992 0.0
H223 H 0.85802 0.7761 0.9121 0.0
H224 H 0.80185 0.84452 0.68622 0.0
H225 H 0.69008 0.74763 0.60805 0.0
C226 C 0.64503 0.65042 0.67131 0.0
C227 C 0.62856 0.60298 0.71219 0.0
C228 C 0.70894 0.70605 0.71557 0.0
C229 C 0.67577 0.61217 0.79901 0.0
C230 C 0.73961 0.66733 0.84354 0.0
C231 C 0.82066 0.7701 0.8466 0.0
C232 C 0.83716 0.8175 0.80567 0.0
C233 C 0.75672 0.71451 0.80238 0.0
C234 C 0.78993 0.80834 0.7189 0.0
C235 C 0.72606 0.75322 0.67442 0.0
loop_
_geom_bond_atom_site_label_1
_geom_bond_atom_site_label_2
_geom_bond_distance
_geom_bond_site_symmetry_2
_ccdc_geom_bond_type
Cd0 N3 2.334 1_655 S
Cd0 N29 2.304 1_565 S
Cd0 O36 2.268 1_554 S
Cd0 O39 2.273 1_665 S
Cd0 O40 2.417 . S
Cd0 O41 2.330 . S
Cd1 N16 2.304 1_455 S
Cd1 N20 2.334 1_545 S
Cd1 O37 2.273 1_445 S
Cd1 O38 2.268 1_556 S
Cd1 O42 2.417 . S
Cd1 O43 2.330 . S
C2 N3 1.332 . S
C2 C6 1.381 . S
C2 H8 0.931 . S
N3 Cd0 2.334 1_455 S
N3 C2 1.332 . S
N3 C7 1.328 . S
C4 C5 1.396 . S
C4 C7 1.378 . S
C4 H46 0.931 1_554 S
C5 C4 1.396 . S
C5 C6 1.382 . S
C6 C2 1.381 . S
C6 C5 1.382 . S
C6 H47 0.930 . S
C7 N3 1.328 . S
C7 C4 1.378 . S
C7 H9 0.930 1_454 S
H8 C2 0.931 . S
H9 C7 0.930 1_656 S
C10 O36 1.238 . S
C10 O37 1.253 . S
C11 C12 1.379 . S
C11 N16 1.337 . S
C11 H17 0.929 . S
C12 C11 1.379 . S
C12 C13 1.380 . S
C12 H48 0.929 . S
C13 C12 1.380 . S
C13 C14 1.399 . S
C14 C13 1.399 . S
C14 C15 1.376 . S
C14 H49 0.931 1_556 S
C15 C14 1.376 . S
C15 N16 1.338 . S
C15 H18 0.930 1_656 S
N16 Cd1 2.304 1_655 S
N16 C11 1.337 . S
N16 C15 1.338 . S
H17 C11 0.929 . S
H18 C15 0.930 1_454 S
C19 N20 1.332 . S
C19 C23 1.381 . S
C19 H25 0.931 . S
N20 Cd1 2.334 1_565 S
N20 C19 1.332 . S
N20 C24 1.328 . S
C21 C22 1.396 . S
C21 C24 1.378 . S
C21 H50 0.931 1_556 S
C22 C21 1.396 . S
C22 C23 1.382 . S
C23 C19 1.381 . S
C23 C22 1.382 . S
C23 H51 0.930 . S
C24 N20 1.328 . S
C24 C21 1.378 . S
C24 H26 0.930 1_566 S
H25 C19 0.931 . S
H26 C24 0.930 1_544 S
C27 O38 1.238 . S
C27 O39 1.253 . S
C28 O40 1.239 . S
C28 O41 1.230 . S
N29 Cd0 2.304 1_545 S
N29 C30 1.337 . S
N29 C34 1.338 . S
C30 N29 1.337 . S
C30 C31 1.379 . S
C30 H44 0.929 . S
C31 C30 1.379 . S
C31 C32 1.380 . S
C31 H52 0.929 . S
C32 C31 1.380 . S
C32 C33 1.399 . S
C33 C32 1.399 . S
C33 C34 1.376 . S
C33 H53 0.931 1_554 S
C34 N29 1.338 . S
C34 C33 1.376 . S
C34 H45 0.930 1_544 S
C35 O42 1.239 . S
C35 O43 1.230 . S
O36 Cd0 2.268 1_556 S
O36 C10 1.238 . S
O37 Cd1 2.273 1_665 S
O37 C10 1.253 . S
O38 Cd1 2.268 1_554 S
O38 C27 1.238 . S
O39 Cd0 2.273 1_445 S
O39 C27 1.253 . S
O40 Cd0 2.417 . S
O40 C28 1.239 . S
O41 Cd0 2.330 . S
O41 C28 1.230 . S
O42 Cd1 2.417 . S
O42 C35 1.239 . S
O43 Cd1 2.330 . S
O43 C35 1.230 . S
H44 C30 0.929 . S
H45 C34 0.930 1_566 S
H46 C4 0.931 1_556 S
H47 C6 0.930 . S
H48 C12 0.929 . S
H49 C14 0.931 1_554 S
H50 C21 0.931 1_554 S
H51 C23 0.930 . S
H52 C31 0.929 . S
H53 C33 0.931 1_556 S
Cd54 N57 2.334 . S
Cd54 N83 2.304 . S
Cd54 O90 2.268 . S
Cd54 O93 2.273 . S
Cd54 O94 2.417 . S
Cd54 O95 2.330 . S
Cd55 N70 2.304 . S
Cd55 N74 2.334 . S
Cd55 O91 2.273 . S
Cd55 O92 2.268 . S
Cd55 O96 2.417 . S
Cd55 O97 2.330 . S
C56 N57 1.332 . S
C56 C60 1.381 . S
C56 H62 0.931 . S
N57 Cd54 2.334 . S
N57 C56 1.332 . S
N57 C61 1.328 . S
C58 C59 1.396 . S
C58 C61 1.378 . S
C58 H100 0.931 . S
C59 C58 1.396 . S
C59 C60 1.382 . S
C60 C56 1.381 . S
C60 C59 1.382 . S
C60 H101 0.930 . S
C61 N57 1.328 . S
C61 C58 1.378 . S
C61 H63 0.930 . S
H62 C56 0.931 . S
H63 C61 0.930 . S
C64 O90 1.238 . S
C64 O91 1.253 . S
C65 C66 1.379 . S
C65 N70 1.337 . S
C65 H71 0.929 . S
C66 C65 1.379 . S
C66 C67 1.380 . S
C66 H102 0.929 . S
C67 C66 1.380 . S
C67 C68 1.399 . S
C68 C67 1.399 . S
C68 C69 1.376 . S
C68 H103 0.931 . S
C69 C68 1.376 . S
C69 N70 1.338 . S
C69 H72 0.930 . S
N70 Cd55 2.304 . S
N70 C65 1.337 . S
N70 C69 1.338 . S
H71 C65 0.929 . S
H72 C69 0.930 . S
C73 N74 1.332 . S
C73 C77 1.381 . S
C73 H79 0.931 . S
N74 Cd55 2.334 . S
N74 C73 1.332 . S
N74 C78 1.328 . S
C75 C76 1.396 . S
C75 C78 1.378 . S
C75 H104 0.931 . S
C76 C75 1.396 . S
C76 C77 1.382 . S
C77 C73 1.381 . S
C77 C76 1.382 . S
C77 H105 0.930 . S
C78 N74 1.328 . S
C78 C75 1.378 . S
C78 H80 0.930 . S
H79 C73 0.931 . S
H80 C78 0.930 . S
C81 O92 1.238 . S
C81 O93 1.253 . S
C82 O94 1.239 . S
C82 O95 1.230 . S
N83 Cd54 2.304 . S
N83 C84 1.337 . S
N83 C88 1.338 . S
C84 N83 1.337 . S
C84 C85 1.379 . S
C84 H98 0.929 . S
C85 C84 1.379 . S
C85 C86 1.380 . S
C85 H106 0.929 . S
C86 C85 1.380 . S
C86 C87 1.399 . S
C87 C86 1.399 . S
C87 C88 1.376 . S
C87 H107 0.931 . S
C88 N83 1.338 . S
C88 C87 1.376 . S
C88 H99 0.930 . S
C89 O96 1.239 . S
C89 O97 1.230 . S
O90 Cd54 2.268 . S
O90 C64 1.238 . S
O91 Cd55 2.273 . S
O91 C64 1.253 . S
O92 Cd55 2.268 . S
O92 C81 1.238 . S
O93 Cd54 2.273 . S
O93 C81 1.253 . S
O94 Cd54 2.417 . S
O94 C82 1.239 . S
O95 Cd54 2.330 . S
O95 C82 1.230 . S
O96 Cd55 2.417 . S
O96 C89 1.239 . S
O97 Cd55 2.330 . S
O97 C89 1.230 . S
H98 C84 0.929 . S
H99 C88 0.930 . S
H100 C58 0.931 . S
H101 C60 0.930 . S
H102 C66 0.929 . S
H103 C68 0.931 . S
H104 C75 0.931 . S
H105 C77 0.930 . S
H106 C85 0.929 . S
H107 C87 0.931 . S
H108 C114 0.930 . S
H109 C117 0.930 . S
H110 C118 0.930 . S
H111 C119 0.930 . S
H112 C122 0.930 . S
H113 C123 0.930 . S
C114 H108 0.930 . S
C114 C115 1.355 . S
C114 C116 1.415 . S
C115 C114 1.355 . S
C115 C117 1.419 . S
C116 C114 1.415 . S
C116 C121 1.425 . S
C116 C123 1.409 . S
C117 H109 0.930 . S
C117 C115 1.419 . S
C117 C118 1.362 . S
C118 H110 0.930 . S
C118 C117 1.362 . S
C118 C121 1.409 . S
C119 H111 0.930 . S
C119 C120 1.355 . S
C119 C121 1.415 . S
C120 C119 1.355 . S
C120 C122 1.419 . S
C121 C116 1.425 . S
C121 C118 1.409 . S
C121 C119 1.415 . S
C122 H112 0.930 . S
C122 C120 1.419 . S
C122 C123 1.362 . S
C123 H113 0.930 . S
C123 C116 1.409 . S
C123 C122 1.362 . S
H124 C130 0.930 . S
H125 C133 0.930 . S
H126 C134 0.930 . S
H127 C135 0.930 . S
H128 C138 0.930 . S
H129 C139 0.930 . S
C130 H124 0.930 . S
C130 C131 1.355 . S
C130 C132 1.415 . S
C131 C130 1.355 . S
C131 C133 1.419 . S
C132 C130 1.415 . S
C132 C137 1.425 . S
C132 C139 1.409 . S
C133 H125 0.930 . S
C133 C131 1.419 . S
C133 C134 1.362 . S
C134 H126 0.930 . S
C134 C133 1.362 . S
C134 C137 1.409 . S
C135 H127 0.930 . S
C135 C136 1.355 . S
C135 C137 1.415 . S
C136 C135 1.355 . S
C136 C138 1.419 . S
C137 C132 1.425 . S
C137 C134 1.409 . S
C137 C135 1.415 . S
C138 H128 0.930 . S
C138 C136 1.419 . S
C138 C139 1.362 . S
C139 H129 0.930 . S
C139 C132 1.409 . S
C139 C138 1.362 . S
H140 C146 0.930 . S
H141 C149 0.930 . S
H142 C150 0.930 . S
H143 C151 0.930 . S
H144 C154 0.930 . S
H145 C155 0.930 . S
C146 H140 0.930 . S
C146 C147 1.355 . S
C146 C148 1.415 . S
C147 C146 1.355 . S
C147 C149 1.419 . S
C148 C146 1.415 . S
C148 C153 1.425 . S
C148 C155 1.409 . S
C149 H141 0.930 . S
C149 C147 1.419 . S
C149 C150 1.362 . S
C150 H142 0.930 . S
C150 C149 1.362 . S
C150 C153 1.409 . S
C151 H143 0.930 . S
C151 C152 1.355 . S
C151 C153 1.415 . S
C152 C151 1.355 . S
C152 C154 1.419 . S
C153 C148 1.425 . S
C153 C150 1.409 . S
C153 C151 1.415 . S
C154 H144 0.930 . S
C154 C152 1.419 . S
C154 C155 1.362 . S
C155 H145 0.930 . S
C155 C148 1.409 . S
C155 C154 1.362 . S
H156 C162 0.930 . S
H157 C165 0.930 . S
H158 C166 0.930 . S
H159 C167 0.930 . S
H160 C170 0.930 . S
H161 C171 0.930 . S
C162 H156 0.930 . S
C162 C163 1.355 . S
C162 C164 1.415 . S
C163 C162 1.355 . S
C163 C165 1.419 . S
C164 C162 1.415 . S
C164 C169 1.425 . S
C164 C171 1.409 . S
C165 H157 0.930 . S
C165 C163 1.419 . S
C165 C166 1.362 . S
C166 H158 0.930 . S
C166 C165 1.362 . S
C166 C169 1.409 . S
C167 H159 0.930 . S
C167 C168 1.355 . S
C167 C169 1.415 . S
C168 C167 1.355 . S
C168 C170 1.419 . S
C169 C164 1.425 . S
C169 C166 1.409 . S
C169 C167 1.415 . S
C170 H160 0.930 . S
C170 C168 1.419 . S
C170 C171 1.362 . S
C171 H161 0.930 . S
C171 C164 1.409 . S
C171 C170 1.362 . S
H172 C178 0.930 . S
H173 C181 0.930 . S
H174 C182 0.930 . S
H175 C183 0.930 . S
H176 C186 0.930 . S
H177 C187 0.930 . S
C178 H172 0.930 . S
C178 C179 1.355 . S
C178 C180 1.415 . S
C179 C178 1.355 . S
C179 C181 1.419 . S
C180 C178 1.415 . S
C180 C185 1.425 . S
C180 C187 1.409 . S
C181 H173 0.930 . S
C181 C179 1.419 . S
C181 C182 1.362 . S
C182 H174 0.930 . S
C182 C181 1.362 . S
C182 C185 1.409 . S
C183 H175 0.930 . S
C183 C184 1.355 . S
C183 C185 1.415 . S
C184 C183 1.355 . S
C184 C186 1.419 . S
C185 C180 1.425 . S
C185 C182 1.409 . S
C185 C183 1.415 . S
C186 H176 0.930 . S
C186 C184 1.419 . S
C186 C187 1.362 . S
C187 H177 0.930 . S
C187 C180 1.409 . S
C187 C186 1.362 . S
H188 C194 0.930 . S
H189 C197 0.930 . S
H190 C198 0.930 . S
H191 C199 0.930 . S
H192 C202 0.930 . S
H193 C203 0.930 . S
C194 H188 0.930 . S
C194 C195 1.355 . S
C194 C196 1.415 . S
C195 C194 1.355 . S
C195 C197 1.419 . S
C196 C194 1.415 . S
C196 C201 1.425 . S
C196 C203 1.409 . S
C197 H189 0.930 . S
C197 C195 1.419 . S
C197 C198 1.362 . S
C198 H190 0.930 . S
C198 C197 1.362 . S
C198 C201 1.409 . S
C199 H191 0.930 . S
C199 C200 1.355 . S
C199 C201 1.415 . S
C200 C199 1.355 . S
C200 C202 1.419 . S
C201 C196 1.425 . S
C201 C198 1.409 . S
C201 C199 1.415 . S
C202 H192 0.930 . S
C202 C200 1.419 . S
C202 C203 1.362 . S
C203 H193 0.930 . S
C203 C196 1.409 . S
C203 C202 1.362 . S
H204 C210 0.930 . S
H205 C213 0.930 . S
H206 C214 0.930 . S
H207 C215 0.930 . S
H208 C218 0.930 . S
H209 C219 0.930 . S
C210 H204 0.930 . S
C210 C211 1.355 . S
C210 C212 1.415 . S
C211 C210 1.355 . S
C211 C213 1.419 . S
C212 C210 1.415 . S
C212 C217 1.425 . S
C212 C219 1.409 . S
C213 H205 0.930 . S
C213 C211 1.419 . S
C213 C214 1.362 . S
C214 H206 0.930 . S
C214 C213 1.362 . S
C214 C217 1.409 . S
C215 H207 0.930 . S
C215 C216 1.355 . S
C215 C217 1.415 . S
C216 C215 1.355 . S
C216 C218 1.419 . S
C217 C212 1.425 . S
C217 C214 1.409 . S
C217 C215 1.415 . S
C218 H208 0.930 . S
C218 C216 1.419 . S
C218 C219 1.362 . S
C219 H209 0.930 . S
C219 C212 1.409 . S
C219 C218 1.362 . S
H220 C226 0.930 . S
H221 C229 0.930 . S
H222 C230 0.930 . S
H223 C231 0.930 . S
H224 C234 0.930 . S
H225 C235 0.930 . S
C226 H220 0.930 . S
C226 C227 1.355 . S
C226 C228 1.415 . S
C227 C226 1.355 . S
C227 C229 1.419 . S
C228 C226 1.415 . S
C228 C233 1.425 . S
C228 C235 1.409 . S
C229 H221 0.930 . S
C229 C227 1.419 . S
C229 C230 1.362 . S
C230 H222 0.930 . S
C230 C229 1.362 . S
C230 C233 1.409 . S
C231 H223 0.930 . S
C231 C232 1.355 . S
C231 C233 1.415 . S
C232 C231 1.355 . S
C232 C234 1.419 . S
C233 C228 1.425 . S
C233 C230 1.409 . S
C233 C231 1.415 . S
C234 H224 0.930 . S
C234 C232 1.419 . S
C234 C235 1.362 . S
C235 H225 0.930 . S
C235 C228 1.409 . S
C235 C234 1.362 . S
C115 C27 0.602 . S
C120 C64 0.600 . S
C131 C32 1.922 . S
C136 C76 1.919 . S
C147 C28 1.316 . S
C152 C89 1.315 . S
C163 C5 1.924 . S
C168 C67 1.928 . S
C179 C22 1.948 . S
C184 C86 1.952 . S
C195 C82 1.313 . S
C200 C35 1.310 . S
C211 C13 1.957 . S
C216 C59 1.954 . S
C227 C81 0.601 . S
C232 C10 0.604 . S
