# Generated by pormake.
# Topology pcu, (6)-cn, num edge types: 1
# Building blocks:
#     Node 0, Type 0, BuildingBlock: INOVEN_clean_sbu_0, # of connection points: 6
#     Edge 1, Type (0, 0), BuildingBlock: TEMPAE_clean_linker_10, # of connection points: 2
#     Edge 2, Type (0, 0), BuildingBlock: TEMPAE_clean_linker_10, # of connection points: 2
#     Edge 3, Type (0, 0), BuildingBlock: TEMPAE_clean_linker_10, # of connection points: 2
# Relax obj value: 0.000
# Max RMSD: 0.000
# Mean RMSD: 0.000
data_MOF--net-pcu--node1-INOVEN_clean_sbu_0--edge1-TEMPAE_clean_linker_10
_symmetry_space_group_name_H-M    P1
_symmetry_Int_Tables_number       1
_symmetry_cell_setting            triclinic
loop_
_symmetry_equiv_pos_as_xyz
'x, y, z'
_cell_length_a     25.479133
_cell_length_b     15.65429
_cell_length_c     14.655726
_cell_angle_alpha  85.80182
_cell_angle_beta   98.057732
_cell_angle_gamma 124.35598
loop_
_atom_site_label
_atom_site_type_symbol
_atom_site_fract_x
_atom_site_fract_y
_atom_site_fract_z
_atom_type_partial_charge
Gd0 Gd 0.9548 0.90768 1.0069 0.0
Gd1 Gd 0.0978 0.03952 0.99637 0.0
C2 C 0.03143 0.15717 0.99701 0.0
C3 C 0.8377 0.82923 0.03638 0.0
C4 C 0.79503 0.86388 0.04299 0.0
C5 C 0.79764 0.94189 0.98565 0.0
C6 C 0.74815 0.81357 0.10346 0.0
C7 C 0.70395 0.91342 0.04481 0.0
C8 C 0.70323 0.83815 0.10462 0.0
C9 C 0.75251 0.96617 0.98637 0.0
C10 C 0.99004 0.92995 0.83667 0.0
C11 C 1.02144 0.78765 0.01712 0.0
C12 C 0.21054 0.11498 0.94939 0.0
C13 C 0.25895 0.08999 0.96181 0.0
C14 C 0.25954 0.02563 0.03336 0.0
C15 C 0.30538 0.13133 0.90085 0.0
C16 C 0.3536 0.04611 0.9835 0.0
C17 C 0.35217 0.10962 0.91145 0.0
C18 C 0.3066 0.00419 0.04432 0.0
C19 C 0.06608 0.01985 0.16848 0.0
O20 O 0.98416 0.07072 0.02985 0.0
O21 O 0.07762 0.1607 0.96216 0.0
O22 O 0.85482 0.83458 0.9551 0.0
O23 O 0.88446 0.85685 0.10281 0.0
O24 O 0.94386 0.84377 0.86751 0.0
O25 O 1.01463 0.0009 0.89616 0.0
O26 O 0.07325 0.87647 0.99622 0.0
O27 O 0.96966 0.7803 0.03489 0.0
O28 O 0.20097 0.14467 0.02295 0.0
O29 O 0.15735 0.05156 0.89705 0.0
O30 O 0.1169 0.10082 0.13984 0.0
O31 O 0.03826 0.94876 0.10832 0.0
H32 H 0.83353 -0.01777 0.9385 0.0
H33 H 0.74543 0.75354 0.14862 0.0
H34 H 0.66753 0.79741 0.15195 0.0
H35 H 0.75446 0.02392 0.9388 0.0
H36 H 0.22373 -0.00786 0.08073 0.0
H37 H 0.30566 0.18102 0.84513 0.0
H38 H 0.38793 0.14403 0.86398 0.0
H39 H 0.3058 0.95394 0.09979 0.0
C40 C 0.99748 0.97827 0.29241 0.0
C41 C 0.05531 0.00346 0.26625 0.0
C42 C 0.98797 0.9678 0.38587 0.0
C43 C 0.03728 0.98141 0.45453 0.0
C44 C 0.09571 0.00608 0.42795 0.0
C45 C 0.10432 0.01824 0.33407 0.0
C46 C 0.92554 0.94379 0.41118 0.0
C47 C 0.14897 0.01916 0.49861 0.0
C48 C 0.03619 0.04317 0.70092 0.0
C49 C 1.00533 0.94475 0.74075 0.0
C50 C 0.04678 0.05633 0.60772 0.0
C51 C 1.02757 0.96931 0.554 0.0
C52 C 0.99819 0.87026 0.59507 0.0
C53 C 0.98669 0.85903 0.68759 0.0
C54 C 0.07713 0.1629 0.56619 0.0
C55 C 0.9785 0.77597 0.5411 0.0
H56 H 0.9605 0.97012 0.23998 0.0
H57 H 0.14923 0.03835 0.31345 0.0
H58 H 0.90134 0.87029 0.45004 0.0
H59 H 0.93495 0.00565 0.45687 0.0
H60 H 0.89241 0.93683 0.34965 0.0
H61 H 0.19074 0.03562 0.46646 0.0
H62 H 0.1653 0.08348 0.54658 0.0
H63 H 0.13114 0.94792 0.5404 0.0
H64 H 0.05037 0.10949 0.74188 0.0
H65 H 0.96321 0.78293 0.71856 0.0
H66 H 0.04406 0.16221 0.50778 0.0
H67 H 0.12157 0.18575 0.5382 0.0
H68 H 0.08907 0.22239 0.61708 0.0
H69 H 0.94132 0.76147 0.48314 0.0
H70 H 0.95923 0.7055 0.58441 0.0
H71 H 1.02011 0.78939 0.51085 0.0
C72 C 0.43598 0.02825 0.08272 0.0
C73 C 0.40429 0.02462 0.99513 0.0
C74 C 0.48511 0.01109 0.09409 0.0
C75 C 0.50289 -0.01087 0.0161 0.0
C76 C 0.47068 -0.01556 0.92763 0.0
C77 C 0.42198 0.00237 0.91824 0.0
C78 C 0.51833 0.01718 0.18953 0.0
C79 C 0.48769 0.96044 0.84274 0.0
C80 C 0.66745 0.03452 0.02807 0.0
C81 C 0.65293 0.93384 0.04087 0.0
C82 C 0.61932 0.05376 0.02075 0.0
C83 C 0.55493 0.97052 0.02681 0.0
C84 C 0.54004 0.86902 0.04101 0.0
C85 C 0.58901 0.85191 0.04751 0.0
C86 C 0.63731 0.16317 1.00563 0.0
C87 C 0.4721 0.77804 0.0479 0.0
H88 H 0.42318 0.04655 0.14238 0.0
H89 H 0.39722 -0.00197 0.85047 0.0
H90 H 0.51329 0.94285 0.20663 0.0
H91 H 0.5703 0.07817 0.192 0.0
H92 H 0.49876 0.0346 0.24312 0.0
H93 H 0.45808 0.95946 0.77896 0.0
H94 H 0.53888 0.01889 0.83493 0.0
H95 H 0.48103 0.88395 0.84999 0.0
H96 H 0.71664 0.09869 0.02411 0.0
H97 H 0.57682 0.77357 0.05577 0.0
H98 H 0.62225 0.1863 0.06126 0.0
H99 H 0.61179 0.16772 0.93957 0.0
H100 H 0.68962 0.21958 1.00391 0.0
H101 H 0.45229 0.79188 0.10353 0.0
H102 H 0.4687 0.70449 0.06215 0.0
H103 H 0.44148 0.76898 0.98258 0.0
C104 C 0.96694 0.59911 0.98935 0.0
C105 C 1.02229 0.69439 0.01971 0.0
C106 C 0.96867 0.51158 0.98443 0.0
C107 C 1.02666 0.51936 0.01341 0.0
C108 C 0.08223 0.61498 0.04661 0.0
C109 C 0.07961 0.70189 0.0479 0.0
C110 C 0.90892 0.41152 0.94631 0.0
C111 C 0.14436 0.62546 0.08096 0.0
C112 C 1.0121 0.2687 0.07798 0.0
C113 C 0.03225 0.25132 1.00141 0.0
C114 C 1.01143 0.35696 0.08368 0.0
C115 C 0.02913 0.42729 1.00942 0.0
C116 C 0.04896 0.40944 0.9314 0.0
C117 C 0.0514 0.32227 0.92909 0.0
C118 C 0.99209 0.37515 0.16929 0.0
C119 C 0.06635 0.48123 0.84978 0.0
H120 H 0.92287 0.59393 0.96642 0.0
H121 H 0.12235 0.77574 0.07176 0.0
H122 H 0.91874 0.38566 0.88617 0.0
H123 H 0.89429 0.34988 0.99889 0.0
H124 H 0.86824 0.41924 0.92443 0.0
H125 H 0.18249 0.70448 0.10763 0.0
H126 H 0.13656 0.56897 0.13677 0.0
H127 H 0.16156 0.60753 0.02451 0.0
H128 H 0.99781 0.21387 0.13422 0.0
H129 H 0.0664 0.30788 0.8696 0.0
H130 H 0.94812 0.37453 0.15152 0.0
H131 H 0.03031 0.45245 0.19912 0.0
H132 H 0.98288 0.31561 0.22271 0.0
H133 H 1.02556 0.48692 0.82232 0.0
H134 H 0.07901 0.45469 0.79345 0.0
H135 H 0.10753 0.56019 0.87139 0.0
loop_
_geom_bond_atom_site_label_1
_geom_bond_atom_site_label_2
_geom_bond_distance
_geom_bond_site_symmetry_2
_ccdc_geom_bond_type
Gd0 C3 2.818 . S
Gd0 O20 2.377 1_565 S
Gd0 O22 2.448 . S
Gd0 O23 2.506 1_556 S
Gd0 O24 2.435 . S
Gd0 O25 2.717 1_665 S
Gd0 O27 2.395 . S
Gd0 O31 2.327 1_556 S
Gd1 C12 2.818 . S
Gd1 O21 2.395 . S
Gd1 O25 2.327 1_554 S
Gd1 O26 2.377 1_545 S
Gd1 O28 2.448 . S
Gd1 O29 2.506 1_554 S
Gd1 O30 2.435 . S
Gd1 O31 2.717 1_445 S
C2 O20 1.240 1_455 S
C2 O21 1.240 1_556 S
C3 Gd0 2.818 . S
C3 C4 1.510 . S
C3 O22 1.249 . S
C3 O23 1.252 1_556 S
C4 C3 1.510 . S
C4 C5 1.404 . S
C4 C6 1.352 1_566 S
C5 C4 1.404 . S
C5 C9 1.389 . S
C5 H32 0.930 . S
C6 C4 1.352 1_544 S
C6 C8 1.374 . S
C6 H33 0.931 . S
C7 C8 1.359 1_565 S
C7 C9 1.364 1_554 S
C8 C6 1.374 . S
C8 C7 1.359 1_545 S
C8 H34 0.931 . S
C9 C5 1.389 . S
C9 C7 1.364 1_556 S
C9 H35 0.931 . S
C10 O24 1.256 . S
C10 O25 1.257 1_665 S
C11 O26 1.240 1_655 S
C11 O27 1.240 1_554 S
C12 Gd1 2.818 . S
C12 C13 1.510 . S
C12 O28 1.249 . S
C12 O29 1.252 1_554 S
C13 C12 1.510 . S
C13 C14 1.404 . S
C13 C15 1.352 1_544 S
C14 C13 1.404 . S
C14 C18 1.389 . S
C14 H36 0.930 . S
C15 C13 1.352 1_566 S
C15 C17 1.374 . S
C15 H37 0.931 . S
C16 C17 1.359 1_545 S
C16 C18 1.364 1_556 S
C17 C15 1.374 . S
C17 C16 1.359 1_565 S
C17 H38 0.931 . S
C18 C14 1.389 . S
C18 C16 1.364 1_554 S
C18 H39 0.931 . S
C19 O30 1.256 . S
C19 O31 1.257 1_445 S
O20 Gd0 2.377 1_545 S
O20 C2 1.240 1_655 S
O21 Gd1 2.395 . S
O21 C2 1.240 1_554 S
O22 Gd0 2.448 . S
O22 C3 1.249 . S
O23 Gd0 2.506 1_554 S
O23 C3 1.252 1_554 S
O24 Gd0 2.435 . S
O24 C10 1.256 . S
O25 Gd0 2.717 1_445 S
O25 Gd1 2.327 1_556 S
O25 C10 1.257 1_445 S
O26 Gd1 2.377 1_565 S
O26 C11 1.240 1_455 S
O27 Gd0 2.395 . S
O27 C11 1.240 1_556 S
O28 Gd1 2.448 . S
O28 C12 1.249 . S
O29 Gd1 2.506 1_556 S
O29 C12 1.252 1_556 S
O30 Gd1 2.435 . S
O30 C19 1.256 . S
O31 Gd0 2.327 1_554 S
O31 Gd1 2.717 1_665 S
O31 C19 1.257 1_665 S
H32 C5 0.930 . S
H33 C6 0.931 . S
H34 C8 0.931 . S
H35 C9 0.931 . S
H36 C14 0.930 . S
H37 C15 0.931 . S
H38 C17 0.931 . S
H39 C18 0.931 . S
C40 C41 1.404 . S
C40 C42 1.394 . S
C40 H56 0.931 . S
C41 C40 1.404 . S
C41 C45 1.364 1_665 S
C42 C40 1.394 . S
C42 C43 1.369 . S
C42 C46 1.531 . S
C43 C42 1.369 . S
C43 C44 1.410 1_665 S
C43 C51 1.503 . S
C44 C43 1.410 1_445 S
C44 C45 1.392 . S
C44 C47 1.511 . S
C45 C41 1.364 1_445 S
C45 C44 1.392 . S
C45 H57 0.929 . S
C46 C42 1.531 . S
C46 H58 0.960 . S
C46 H59 0.962 . S
C46 H60 0.960 . S
C47 C44 1.511 . S
C47 H61 0.961 . S
C47 H62 0.961 . S
C47 H63 0.961 . S
C48 C49 1.370 1_545 S
C48 C50 1.363 . S
C48 H64 0.931 . S
C49 C48 1.370 1_565 S
C49 C53 1.409 1_455 S
C50 C48 1.363 . S
C50 C51 1.370 1_445 S
C50 C54 1.524 . S
C51 C43 1.503 . S
C51 C50 1.370 1_665 S
C51 C52 1.403 . S
C52 C51 1.403 . S
C52 C53 1.404 . S
C52 C55 1.539 . S
C53 C49 1.409 1_655 S
C53 C52 1.404 . S
C53 H65 0.930 . S
C54 C50 1.524 . S
C54 H66 0.956 1_455 S
C54 H67 0.961 . S
C54 H68 0.961 . S
C55 C52 1.539 . S
C55 H69 0.958 . S
C55 H70 0.961 1_655 S
C55 H71 0.960 1_655 S
H56 C40 0.931 . S
H57 C45 0.929 . S
H58 C46 0.960 . S
H59 C46 0.962 . S
H60 C46 0.960 . S
H61 C47 0.961 . S
H62 C47 0.961 . S
H63 C47 0.961 . S
H64 C48 0.931 . S
H65 C53 0.930 . S
H66 C54 0.956 1_655 S
H67 C54 0.961 . S
H68 C54 0.961 . S
H69 C55 0.958 . S
H70 C55 0.961 1_455 S
H71 C55 0.960 1_455 S
C72 C73 1.391 1_545 S
C72 C74 1.394 . S
C72 H88 0.931 . S
C73 C72 1.391 1_565 S
C73 C77 1.376 1_554 S
C74 C72 1.394 . S
C74 C75 1.369 1_545 S
C74 C78 1.531 . S
C75 C74 1.369 1_565 S
C75 C76 1.410 1_554 S
C75 C83 1.503 . S
C76 C75 1.410 1_556 S
C76 C77 1.392 . S
C76 C79 1.511 . S
C77 C73 1.376 1_556 S
C77 C76 1.392 . S
C77 H89 0.929 . S
C78 C74 1.531 . S
C78 H90 0.960 . S
C78 H91 0.962 . S
C78 H92 0.960 . S
C79 C76 1.511 . S
C79 H93 0.961 . S
C79 H94 0.961 . S
C79 H95 0.961 . S
C80 C81 1.370 1_546 S
C80 C82 1.363 . S
C80 H96 0.931 . S
C81 C80 1.370 1_564 S
C81 C85 1.408 . S
C82 C80 1.363 . S
C82 C83 1.370 1_546 S
C82 C86 1.524 . S
C83 C75 1.503 . S
C83 C82 1.370 1_564 S
C83 C84 1.403 . S
C84 C83 1.403 . S
C84 C85 1.404 . S
C84 C87 1.539 . S
C85 C81 1.408 . S
C85 C84 1.404 . S
C85 H97 0.930 . S
C86 C82 1.524 . S
C86 H98 0.956 . S
C86 H99 0.961 . S
C86 H100 0.961 . S
C87 C84 1.539 . S
C87 H101 0.958 . S
C87 H102 0.961 . S
C87 H103 0.960 . S
H88 C72 0.931 . S
H89 C77 0.929 . S
H90 C78 0.960 . S
H91 C78 0.962 . S
H92 C78 0.960 . S
H93 C79 0.961 . S
H94 C79 0.961 . S
H95 C79 0.961 . S
H96 C80 0.931 . S
H97 C85 0.930 . S
H98 C86 0.956 . S
H99 C86 0.961 . S
H100 C86 0.961 . S
H101 C87 0.958 . S
H102 C87 0.961 . S
H103 C87 0.960 . S
C104 C105 1.391 1_655 S
C104 C106 1.394 . S
C104 H120 0.931 . S
C105 C104 1.391 1_455 S
C105 C109 1.376 1_556 S
C106 C104 1.394 . S
C106 C107 1.369 1_655 S
C106 C110 1.531 . S
C107 C106 1.369 1_455 S
C107 C108 1.410 1_556 S
C107 C115 1.503 . S
C108 C107 1.410 1_554 S
C108 C109 1.392 . S
C108 C111 1.511 . S
C109 C105 1.376 1_554 S
C109 C108 1.392 . S
C109 H121 0.929 . S
C110 C106 1.531 . S
C110 H122 0.960 . S
C110 H123 0.962 . S
C110 H124 0.960 . S
C111 C108 1.511 . S
C111 H125 0.961 . S
C111 H126 0.961 . S
C111 H127 0.961 . S
C112 C113 1.370 1_654 S
C112 C114 1.363 . S
C112 H128 0.931 . S
C113 C112 1.370 1_456 S
C113 C117 1.408 . S
C114 C112 1.363 . S
C114 C115 1.370 1_654 S
C114 C118 1.524 . S
C115 C107 1.503 . S
C115 C114 1.370 1_456 S
C115 C116 1.403 . S
C116 C115 1.403 . S
C116 C117 1.404 . S
C116 C119 1.539 . S
C117 C113 1.408 . S
C117 C116 1.404 . S
C117 H129 0.930 . S
C118 C114 1.524 . S
C118 H130 0.956 . S
C118 H131 0.961 . S
C118 H132 0.961 . S
C119 C116 1.539 . S
C119 H133 0.958 . S
C119 H134 0.961 . S
C119 H135 0.960 . S
H120 C104 0.931 . S
H121 C109 0.929 . S
H122 C110 0.960 . S
H123 C110 0.962 . S
H124 C110 0.960 . S
H125 C111 0.961 . S
H126 C111 0.961 . S
H127 C111 0.961 . S
H128 C112 0.931 . S
H129 C117 0.930 . S
H130 C118 0.956 . S
H131 C118 0.961 . S
H132 C118 0.961 . S
H133 C119 0.958 . S
H134 C119 0.961 . S
H135 C119 0.960 . S
C41 C19 1.451 1_665 S
C49 C10 1.459 1_455 S
C73 C16 1.499 1_564 S
C81 C7 1.496 . S
C105 C11 1.500 1_456 S
C113 C2 1.491 . S
