# Generated by pormake.
# Topology uki, (4)-cn, num edge types: 1
# Building blocks:
#     Node 0, Type 0, BuildingBlock: QUQFOY_clean_sbu_1, # of connection points: 4
#     Node 1, Type 0, BuildingBlock: QUQFOY_clean_sbu_1, # of connection points: 4
#     Node 2, Type 0, BuildingBlock: QUQFOY_clean_sbu_1, # of connection points: 4
#     Node 3, Type 0, BuildingBlock: QUQFOY_clean_sbu_1, # of connection points: 4
#     Node 4, Type 0, BuildingBlock: QUQFOY_clean_sbu_1, # of connection points: 4
#     Node 5, Type 0, BuildingBlock: QUQFOY_clean_sbu_1, # of connection points: 4
#     Node 6, Type 0, BuildingBlock: QUQFOY_clean_sbu_1, # of connection points: 4
#     Node 7, Type 0, BuildingBlock: QUQFOY_clean_sbu_1, # of connection points: 4
#     Node 8, Type 0, BuildingBlock: QUQFOY_clean_sbu_1, # of connection points: 4
#     Node 9, Type 0, BuildingBlock: QUQFOY_clean_sbu_1, # of connection points: 4
#     Node 10, Type 0, BuildingBlock: QUQFOY_clean_sbu_1, # of connection points: 4
#     Node 11, Type 0, BuildingBlock: QUQFOY_clean_sbu_1, # of connection points: 4
#     Node 12, Type 0, BuildingBlock: QUQFOY_clean_sbu_1, # of connection points: 4
#     Node 13, Type 0, BuildingBlock: QUQFOY_clean_sbu_1, # of connection points: 4
#     Node 14, Type 0, BuildingBlock: QUQFOY_clean_sbu_1, # of connection points: 4
#     Node 15, Type 0, BuildingBlock: QUQFOY_clean_sbu_1, # of connection points: 4
#     Edge 16, Type (0, 0), None
#     Edge 17, Type (0, 0), None
#     Edge 18, Type (0, 0), None
#     Edge 19, Type (0, 0), None
#     Edge 20, Type (0, 0), None
#     Edge 21, Type (0, 0), None
#     Edge 22, Type (0, 0), None
#     Edge 23, Type (0, 0), None
#     Edge 24, Type (0, 0), None
#     Edge 25, Type (0, 0), None
#     Edge 26, Type (0, 0), None
#     Edge 27, Type (0, 0), None
#     Edge 28, Type (0, 0), None
#     Edge 29, Type (0, 0), None
#     Edge 30, Type (0, 0), None
#     Edge 31, Type (0, 0), None
#     Edge 32, Type (0, 0), None
#     Edge 33, Type (0, 0), None
#     Edge 34, Type (0, 0), None
#     Edge 35, Type (0, 0), None
#     Edge 36, Type (0, 0), None
#     Edge 37, Type (0, 0), None
#     Edge 38, Type (0, 0), None
#     Edge 39, Type (0, 0), None
#     Edge 40, Type (0, 0), None
#     Edge 41, Type (0, 0), None
#     Edge 42, Type (0, 0), None
#     Edge 43, Type (0, 0), None
#     Edge 44, Type (0, 0), None
#     Edge 45, Type (0, 0), None
#     Edge 46, Type (0, 0), None
#     Edge 47, Type (0, 0), None
# Relax obj value: 0.041
# Max RMSD: 0.117
# Mean RMSD: 0.117
data_MOF--net-uki--node1-QUQFOY_clean_sbu_1--edge1-none
_symmetry_space_group_name_H-M    P1
_symmetry_Int_Tables_number       1
_symmetry_cell_setting            triclinic
loop_
_symmetry_equiv_pos_as_xyz
'x, y, z'
_cell_length_a     14.778153
_cell_length_b     14.776839
_cell_length_c     31.646142
_cell_angle_alpha  90.000899
_cell_angle_beta   90.000474
_cell_angle_gamma 90.036509
loop_
_atom_site_label
_atom_site_type_symbol
_atom_site_fract_x
_atom_site_fract_y
_atom_site_fract_z
_atom_type_partial_charge
O0 O 0.1806 0.32564 0.33473 0.0
Cd1 Cd 0.12208 0.24837 0.38023 0.0
Cd2 Cd 0.07673 0.21578 0.2876 0.0
O3 O 0.17567 0.30582 0.26621 0.0
O4 O 0.18791 0.308 0.42842 0.0
O5 O 0.20712 0.16384 0.41351 0.0
C6 C 0.23206 0.23422 0.43468 0.0
C7 C 0.04214 0.06716 0.27832 0.0
C8 C 0.20342 0.35037 0.29792 0.0
C9 C 0.93696 0.29246 0.35197 0.0
O10 O 0.97039 0.27724 0.31561 0.0
O11 O 0.98214 0.277 0.38573 0.0
O12 O 0.0264 0.12374 0.24798 0.0
O13 O 0.08864 0.09334 0.31084 0.0
O14 O 0.32413 0.86305 0.81404 0.0
Cd15 Cd 0.24809 0.92121 0.76803 0.0
Cd16 Cd 0.21537 0.9667 0.86123 0.0
O17 O 0.30522 0.8677 0.8826 0.0
O18 O 0.30806 0.85468 0.72018 0.0
O19 O 0.16354 0.83638 0.7346 0.0
C20 C 0.23407 0.81093 0.7137 0.0
C21 C 0.067 1.00164 0.87076 0.0
C22 C 0.34926 0.83994 0.85074 0.0
C23 C 0.29274 0.10606 0.79643 0.0
O24 O 0.27691 0.07257 0.83272 0.0
O25 O 0.27749 0.06105 0.76258 0.0
O26 O 0.12395 1.01777 0.90091 0.0
O27 O 0.09268 0.95462 0.83833 0.0
O28 O 0.86333 0.71836 0.33474 0.0
Cd29 Cd 0.92185 0.79564 0.38024 0.0
Cd30 Cd 0.96719 0.82822 0.2876 0.0
O31 O 0.86826 0.73818 0.26621 0.0
O32 O 0.85603 0.73602 0.42842 0.0
O33 O 0.83682 0.88017 0.41351 0.0
C34 C 0.81188 0.80979 0.43468 0.0
C35 C 1.00179 0.97684 0.27833 0.0
C36 C 0.8405 0.69364 0.29793 0.0
C37 C 0.10697 0.75155 0.35197 0.0
O38 O 0.07354 0.76676 0.31561 0.0
O39 O 0.06179 0.76701 0.38573 0.0
O40 O 1.01753 0.92026 0.24798 0.0
O41 O 0.95529 0.95066 0.31084 0.0
O42 O 0.71979 0.18095 0.81404 0.0
Cd43 Cd 0.79583 0.12279 0.76803 0.0
Cd44 Cd 0.82856 0.07731 0.86123 0.0
O45 O 0.73872 0.17631 0.8826 0.0
O46 O 0.73586 0.18932 0.72018 0.0
O47 O 0.88038 0.20762 0.7346 0.0
C48 C 0.80985 0.23307 0.7137 0.0
C49 C 0.97693 0.04236 0.87076 0.0
C50 C 0.69467 0.20406 0.85074 0.0
C51 C 0.75118 0.93795 0.79643 0.0
O52 O 0.76702 0.97144 0.83272 0.0
O53 O 0.76643 0.98296 0.76258 0.0
O54 O 0.91998 0.02623 0.90091 0.0
O55 O 0.95125 0.08938 0.83833 0.0
O56 O 0.18092 0.21981 1.06404 0.0
Cd57 Cd 0.12276 0.29585 1.01803 0.0
Cd58 Cd 0.07729 0.32858 0.11123 0.0
O59 O 0.17629 0.23872 0.13259 0.0
O60 O 0.18929 0.23588 0.97018 0.0
O61 O 0.20759 0.38042 0.9846 0.0
C62 C 0.23303 0.30988 0.96371 0.0
C63 C 0.04235 0.47697 0.12076 0.0
C64 C 0.20404 0.19468 0.10074 0.0
C65 C 0.93793 0.25122 1.04643 0.0
O66 O 0.97143 0.26705 0.08272 0.0
O67 O 0.98293 0.26646 1.01258 0.0
O68 O 0.02622 0.42001 0.15092 0.0
O69 O 0.08936 0.45129 0.08833 0.0
O70 O 0.2181 0.86337 0.08492 0.0
Cd71 Cd 0.29577 0.92194 0.13026 0.0
Cd72 Cd 0.32815 0.96734 1.03778 0.0
O73 O 0.23808 0.86843 1.01639 0.0
O74 O 0.23637 0.85616 0.17852 0.0
O75 O 0.3804 0.8368 0.16344 0.0
C76 C 0.31012 0.81192 0.18469 0.0
C77 C 0.4768 1.00186 1.02856 0.0
C78 C 0.19344 0.84066 1.04808 0.0
C79 C 0.25163 0.10716 0.10208 0.0
O80 O 0.26669 0.07378 1.0657 0.0
O81 O 0.26719 0.0619 0.13581 0.0
O82 O 0.42029 1.01753 0.99817 0.0
O83 O 0.45054 0.95546 1.06109 0.0
O84 O 0.86302 0.82419 1.06404 0.0
Cd85 Cd 0.92118 0.74816 1.01802 0.0
Cd86 Cd 0.96667 0.71544 0.11123 0.0
O87 O 0.86767 0.80529 0.1326 0.0
O88 O 0.85465 0.80813 0.97018 0.0
O89 O 0.83636 0.66359 0.9846 0.0
C90 C 0.8109 0.73413 0.9637 0.0
C91 C 1.00162 0.56705 0.12076 0.0
C92 C 0.83991 0.84933 0.10074 0.0
C93 C 0.10603 0.79278 1.04643 0.0
O94 O 0.07254 0.77696 0.08272 0.0
O95 O 0.06101 0.77754 1.01258 0.0
O96 O 1.01774 0.62401 0.15092 0.0
O97 O 0.9546 0.59273 0.08833 0.0
O98 O 0.82587 0.18064 0.08493 0.0
Cd99 Cd 0.74817 0.12206 0.13026 0.0
Cd100 Cd 0.7158 0.07667 1.03779 0.0
O101 O 0.80586 0.17558 1.01641 0.0
O102 O 0.80755 0.18783 0.17853 0.0
O103 O 0.66352 0.2072 0.16344 0.0
C104 C 0.7338 0.23208 0.18469 0.0
C105 C 0.56715 0.04214 1.02856 0.0
C106 C 0.85052 0.20333 1.04809 0.0
C107 C 0.79232 0.93685 0.10208 0.0
O108 O 0.77726 0.97023 1.0657 0.0
O109 O 0.77675 0.9821 0.13581 0.0
O110 O 0.62366 0.02648 0.99818 0.0
O111 O 0.5934 0.08854 1.06109 0.0
O112 O 0.68055 0.8259 0.83492 0.0
Cd113 Cd 0.62199 0.74832 0.8803 0.0
Cd114 Cd 0.5766 0.71584 0.78779 0.0
O115 O 0.67551 0.8059 0.7664 0.0
O116 O 0.68773 0.8078 0.92854 0.0
O117 O 0.70711 0.66374 0.91351 0.0
C118 C 0.73197 0.73406 0.93474 0.0
C119 C 0.5421 0.56718 0.77856 0.0
C120 C 0.70327 0.85055 0.79809 0.0
C121 C 0.43678 0.79237 0.85209 0.0
O122 O 0.47017 0.7773 0.81571 0.0
O123 O 0.48203 0.77685 0.88583 0.0
O124 O 0.52642 0.62369 0.74818 0.0
O125 O 0.5885 0.59344 0.8111 0.0
O126 O 0.82443 0.36306 0.31382 0.0
Cd127 Cd 0.74799 0.4213 0.26798 0.0
Cd128 Cd 0.7154 0.46675 0.361 0.0
O129 O 0.80527 0.36777 0.38237 0.0
O130 O 0.80779 0.35493 0.22003 0.0
O131 O 0.66338 0.33638 0.23461 0.0
C132 C 0.73385 0.31105 0.21364 0.0
C133 C 0.56701 0.50166 0.37048 0.0
C134 C 0.84945 0.34005 0.35055 0.0
C135 C 0.79263 0.60622 0.29633 0.0
O136 O 0.77697 0.57273 0.33264 0.0
O137 O 0.77727 0.56117 0.2625 0.0
O138 O 0.62388 0.51766 0.40068 0.0
O139 O 0.59277 0.45476 0.33802 0.0
O140 O 0.36338 0.21811 0.83492 0.0
Cd141 Cd 0.42194 0.29569 0.8803 0.0
Cd142 Cd 0.46733 0.32816 0.78779 0.0
O143 O 0.36842 0.2381 0.7664 0.0
O144 O 0.35621 0.23621 0.92855 0.0
O145 O 0.33683 0.38027 0.91351 0.0
C146 C 0.31196 0.30995 0.93474 0.0
C147 C 0.50183 0.47682 0.77856 0.0
C148 C 0.34066 0.19346 0.79809 0.0
C149 C 0.60715 0.25163 0.85209 0.0
O150 O 0.57376 0.26671 0.81571 0.0
O151 O 0.5619 0.26716 0.88583 0.0
O152 O 0.51751 0.4203 0.74818 0.0
O153 O 0.45543 0.45056 0.8111 0.0
O154 O 0.21949 0.68094 0.31382 0.0
Cd155 Cd 0.29593 0.6227 0.26797 0.0
Cd156 Cd 0.32852 0.57726 0.361 0.0
O157 O 0.23866 0.67623 0.38237 0.0
O158 O 0.23613 0.68907 0.22003 0.0
O159 O 0.38054 0.70762 0.23461 0.0
C160 C 0.31007 0.73295 0.21364 0.0
C161 C 0.47691 0.54234 0.37047 0.0
C162 C 0.19448 0.70395 0.35055 0.0
C163 C 0.2513 0.43779 0.29633 0.0
O164 O 0.26696 0.47127 0.33264 0.0
O165 O 0.26665 0.48283 0.2625 0.0
O166 O 0.42005 0.52635 0.40068 0.0
O167 O 0.45116 0.58924 0.33802 0.0
O168 O 0.68088 0.71984 0.56405 0.0
Cd169 Cd 0.62273 0.79578 0.518 0.0
Cd170 Cd 0.57724 0.82858 0.61123 0.0
O171 O 0.67624 0.73874 0.6326 0.0
O172 O 0.68925 0.73574 0.47016 0.0
O173 O 0.70754 0.8803 0.48455 0.0
C174 C 0.73299 0.80973 0.46367 0.0
C175 C 0.54233 0.97696 0.62076 0.0
C176 C 0.70401 0.69471 0.60075 0.0
C177 C 0.4379 0.75119 0.54641 0.0
O178 O 0.47139 0.76705 0.58271 0.0
O179 O 0.4829 0.7664 0.51256 0.0
O180 O 0.52617 0.92 0.65091 0.0
O181 O 0.58935 0.95128 0.58834 0.0
O182 O 0.7181 0.36342 0.58491 0.0
Cd183 Cd 0.79567 0.42198 0.63029 0.0
Cd184 Cd 0.82814 0.46739 0.53778 0.0
O185 O 0.73808 0.36849 0.51638 0.0
O186 O 0.73618 0.35623 0.67853 0.0
O187 O 0.88024 0.33686 0.66351 0.0
C188 C 0.80992 0.31199 0.68473 0.0
C189 C 0.97679 0.50187 0.52856 0.0
C190 C 0.69345 0.3407 0.54807 0.0
C191 C 0.7516 0.6072 0.60209 0.0
O192 O 0.76669 0.57383 0.56571 0.0
O193 O 0.76712 0.56194 0.63583 0.0
O194 O 0.92029 0.51757 0.49818 0.0
O195 O 0.95052 0.45547 0.56109 0.0
O196 O 0.36307 0.32415 0.56405 0.0
Cd197 Cd 0.42121 0.24823 0.51799 0.0
Cd198 Cd 0.46672 0.21544 0.61123 0.0
O199 O 0.36772 0.30527 0.63261 0.0
O200 O 0.35468 0.30828 0.47016 0.0
O201 O 0.3364 0.16371 0.48454 0.0
C202 C 0.31095 0.23428 0.46367 0.0
C203 C 0.50163 0.06705 0.62076 0.0
C204 C 0.33994 0.34929 0.60075 0.0
C205 C 0.60606 0.2928 0.54641 0.0
O206 O 0.57257 0.27695 0.5827 0.0
O207 O 0.56104 0.27761 0.51256 0.0
O208 O 0.51779 0.12401 0.65092 0.0
O209 O 0.4546 0.09273 0.58834 0.0
O210 O 0.32586 0.68059 0.58492 0.0
Cd211 Cd 0.24826 0.62202 0.63029 0.0
Cd212 Cd 0.2158 0.57661 0.53779 0.0
O213 O 0.30586 0.67552 0.5164 0.0
O214 O 0.30774 0.68776 0.67854 0.0
O215 O 0.16369 0.70714 0.6635 0.0
C216 C 0.234 0.73201 0.68473 0.0
C217 C 0.06715 0.54212 0.52856 0.0
C218 C 0.3505 0.70329 0.54808 0.0
C219 C 0.29234 0.4368 0.60209 0.0
O220 O 0.27726 0.47017 0.56571 0.0
O221 O 0.27682 0.48206 0.63583 0.0
O222 O 0.12366 0.52643 0.49818 0.0
O223 O 0.09342 0.58852 0.56109 0.0
loop_
_geom_bond_atom_site_label_1
_geom_bond_atom_site_label_2
_geom_bond_distance
_geom_bond_site_symmetry_2
_ccdc_geom_bond_type
O0 Cd1 2.223 . S
O0 C8 1.315 . S
Cd1 O0 2.223 . S
Cd1 O4 2.297 . S
Cd1 O5 2.439 . S
Cd1 O11 2.240 1_455 S
Cd2 O3 2.240 . S
Cd2 O10 2.223 1_455 S
Cd2 O12 2.297 . S
Cd2 O13 2.439 . S
O3 Cd2 2.240 . S
O3 C8 1.279 . S
O4 Cd1 2.297 . S
O4 C6 1.247 . S
O5 Cd1 2.439 . S
O5 C6 1.208 . S
C6 O4 1.247 . S
C6 O5 1.208 . S
C7 O12 1.247 . S
C7 O13 1.208 . S
C8 O0 1.315 . S
C8 O3 1.279 . S
C9 O10 1.315 . S
C9 O11 1.279 . S
O10 Cd2 2.223 1_655 S
O10 C9 1.315 . S
O11 Cd1 2.240 1_655 S
O11 C9 1.279 . S
O12 Cd2 2.297 . S
O12 C7 1.247 . S
O13 Cd2 2.439 . S
O13 C7 1.208 . S
O14 Cd15 2.223 . S
O14 C22 1.315 . S
Cd15 O14 2.223 . S
Cd15 O18 2.297 . S
Cd15 O19 2.439 . S
Cd15 O25 2.240 1_565 S
Cd16 O17 2.240 . S
Cd16 O24 2.223 1_565 S
Cd16 O26 2.297 . S
Cd16 O27 2.439 . S
O17 Cd16 2.240 . S
O17 C22 1.279 . S
O18 Cd15 2.297 . S
O18 C20 1.247 . S
O19 Cd15 2.439 . S
O19 C20 1.208 . S
C20 O18 1.247 . S
C20 O19 1.208 . S
C21 O26 1.247 . S
C21 O27 1.208 . S
C22 O14 1.315 . S
C22 O17 1.279 . S
C23 O24 1.315 . S
C23 O25 1.279 . S
O24 Cd16 2.223 1_545 S
O24 C23 1.315 . S
O25 Cd15 2.240 1_545 S
O25 C23 1.279 . S
O26 Cd16 2.297 . S
O26 C21 1.247 . S
O27 Cd16 2.439 . S
O27 C21 1.208 . S
O28 Cd29 2.223 . S
O28 C36 1.315 . S
Cd29 O28 2.223 . S
Cd29 O32 2.297 . S
Cd29 O33 2.439 . S
Cd29 O39 2.240 1_655 S
Cd30 O31 2.240 . S
Cd30 O38 2.223 1_655 S
Cd30 O40 2.297 . S
Cd30 O41 2.439 . S
O31 Cd30 2.240 . S
O31 C36 1.279 . S
O32 Cd29 2.297 . S
O32 C34 1.247 . S
O33 Cd29 2.439 . S
O33 C34 1.208 . S
C34 O32 1.247 . S
C34 O33 1.208 . S
C35 O40 1.247 . S
C35 O41 1.208 . S
C36 O28 1.315 . S
C36 O31 1.279 . S
C37 O38 1.315 . S
C37 O39 1.279 . S
O38 Cd30 2.223 1_455 S
O38 C37 1.315 . S
O39 Cd29 2.240 1_455 S
O39 C37 1.279 . S
O40 Cd30 2.297 . S
O40 C35 1.247 . S
O41 Cd30 2.439 . S
O41 C35 1.208 . S
O42 Cd43 2.223 . S
O42 C50 1.315 . S
Cd43 O42 2.223 . S
Cd43 O46 2.297 . S
Cd43 O47 2.439 . S
Cd43 O53 2.240 1_545 S
Cd44 O45 2.240 . S
Cd44 O52 2.223 1_545 S
Cd44 O54 2.297 . S
Cd44 O55 2.439 . S
O45 Cd44 2.240 . S
O45 C50 1.279 . S
O46 Cd43 2.297 . S
O46 C48 1.247 . S
O47 Cd43 2.439 . S
O47 C48 1.208 . S
C48 O46 1.247 . S
C48 O47 1.208 . S
C49 O54 1.247 . S
C49 O55 1.208 . S
C50 O42 1.315 . S
C50 O45 1.279 . S
C51 O52 1.315 . S
C51 O53 1.279 . S
O52 Cd44 2.223 1_565 S
O52 C51 1.315 . S
O53 Cd43 2.240 1_565 S
O53 C51 1.279 . S
O54 Cd44 2.297 . S
O54 C49 1.247 . S
O55 Cd44 2.439 . S
O55 C49 1.208 . S
O56 Cd57 2.223 . S
O56 C64 1.315 . S
Cd57 O56 2.223 . S
Cd57 O60 2.297 . S
Cd57 O61 2.439 . S
Cd57 O67 2.240 1_455 S
Cd58 O59 2.240 1_554 S
Cd58 O66 2.223 1_455 S
Cd58 O68 2.297 . S
Cd58 O69 2.439 1_554 S
O59 Cd58 2.240 1_556 S
O59 C64 1.279 . S
O60 Cd57 2.297 . S
O60 C62 1.247 . S
O61 Cd57 2.439 . S
O61 C62 1.208 . S
C62 O60 1.247 . S
C62 O61 1.208 . S
C63 O68 1.247 1_556 S
C63 O69 1.208 . S
C64 O56 1.315 . S
C64 O59 1.279 . S
C65 O66 1.315 1_556 S
C65 O67 1.279 . S
O66 Cd58 2.223 1_655 S
O66 C65 1.315 1_554 S
O67 Cd57 2.240 1_655 S
O67 C65 1.279 . S
O68 Cd58 2.297 . S
O68 C63 1.247 1_554 S
O69 Cd58 2.439 1_556 S
O69 C63 1.208 . S
O70 Cd71 2.223 . S
O70 C78 1.315 . S
Cd71 O70 2.223 . S
Cd71 O74 2.297 . S
Cd71 O75 2.439 . S
Cd71 O81 2.240 1_565 S
Cd72 O73 2.240 1_556 S
Cd72 O80 2.223 1_565 S
Cd72 O82 2.297 . S
Cd72 O83 2.439 1_556 S
O73 Cd72 2.240 1_554 S
O73 C78 1.279 . S
O74 Cd71 2.297 . S
O74 C76 1.247 . S
O75 Cd71 2.439 . S
O75 C76 1.208 . S
C76 O74 1.247 . S
C76 O75 1.208 . S
C77 O82 1.247 1_554 S
C77 O83 1.208 . S
C78 O70 1.315 . S
C78 O73 1.279 . S
C79 O80 1.315 1_554 S
C79 O81 1.279 . S
O80 Cd72 2.223 1_545 S
O80 C79 1.315 1_556 S
O81 Cd71 2.240 1_545 S
O81 C79 1.279 . S
O82 Cd72 2.297 . S
O82 C77 1.247 1_556 S
O83 Cd72 2.439 1_554 S
O83 C77 1.208 . S
O84 Cd85 2.223 . S
O84 C92 1.315 . S
Cd85 O84 2.223 . S
Cd85 O88 2.297 . S
Cd85 O89 2.439 . S
Cd85 O95 2.240 1_655 S
Cd86 O87 2.240 1_554 S
Cd86 O94 2.223 1_655 S
Cd86 O96 2.297 . S
Cd86 O97 2.439 1_554 S
O87 Cd86 2.240 1_556 S
O87 C92 1.279 . S
O88 Cd85 2.297 . S
O88 C90 1.247 . S
O89 Cd85 2.439 . S
O89 C90 1.208 . S
C90 O88 1.247 . S
C90 O89 1.208 . S
C91 O96 1.247 1_556 S
C91 O97 1.208 . S
C92 O84 1.315 . S
C92 O87 1.279 . S
C93 O94 1.315 1_556 S
C93 O95 1.279 . S
O94 Cd86 2.223 1_455 S
O94 C93 1.315 1_554 S
O95 Cd85 2.240 1_455 S
O95 C93 1.279 . S
O96 Cd86 2.297 . S
O96 C91 1.247 1_554 S
O97 Cd86 2.439 1_556 S
O97 C91 1.208 . S
O98 Cd99 2.223 . S
O98 C106 1.315 . S
Cd99 O98 2.223 . S
Cd99 O102 2.297 . S
Cd99 O103 2.439 . S
Cd99 O109 2.240 1_545 S
Cd100 O101 2.240 1_556 S
Cd100 O108 2.223 1_545 S
Cd100 O110 2.297 . S
Cd100 O111 2.439 1_556 S
O101 Cd100 2.240 1_554 S
O101 C106 1.279 . S
O102 Cd99 2.297 . S
O102 C104 1.247 . S
O103 Cd99 2.439 . S
O103 C104 1.208 . S
C104 O102 1.247 . S
C104 O103 1.208 . S
C105 O110 1.247 1_554 S
C105 O111 1.208 . S
C106 O98 1.315 . S
C106 O101 1.279 . S
C107 O108 1.315 1_554 S
C107 O109 1.279 . S
O108 Cd100 2.223 1_565 S
O108 C107 1.315 1_556 S
O109 Cd99 2.240 1_565 S
O109 C107 1.279 . S
O110 Cd100 2.297 . S
O110 C105 1.247 1_556 S
O111 Cd100 2.439 1_554 S
O111 C105 1.208 . S
O112 Cd113 2.223 . S
O112 C120 1.315 . S
Cd113 O112 2.223 . S
Cd113 O116 2.297 . S
Cd113 O117 2.439 . S
Cd113 O123 2.240 . S
Cd114 O115 2.240 . S
Cd114 O122 2.223 . S
Cd114 O124 2.297 . S
Cd114 O125 2.439 . S
O115 Cd114 2.240 . S
O115 C120 1.279 . S
O116 Cd113 2.297 . S
O116 C118 1.247 . S
O117 Cd113 2.439 . S
O117 C118 1.208 . S
C118 O116 1.247 . S
C118 O117 1.208 . S
C119 O124 1.247 . S
C119 O125 1.208 . S
C120 O112 1.315 . S
C120 O115 1.279 . S
C121 O122 1.315 . S
C121 O123 1.279 . S
O122 Cd114 2.223 . S
O122 C121 1.315 . S
O123 Cd113 2.240 . S
O123 C121 1.279 . S
O124 Cd114 2.297 . S
O124 C119 1.247 . S
O125 Cd114 2.439 . S
O125 C119 1.208 . S
O126 Cd127 2.223 . S
O126 C134 1.315 . S
Cd127 O126 2.223 . S
Cd127 O130 2.297 . S
Cd127 O131 2.439 . S
Cd127 O137 2.240 . S
Cd128 O129 2.240 . S
Cd128 O136 2.223 . S
Cd128 O138 2.297 . S
Cd128 O139 2.439 . S
O129 Cd128 2.240 . S
O129 C134 1.279 . S
O130 Cd127 2.297 . S
O130 C132 1.247 . S
O131 Cd127 2.439 . S
O131 C132 1.208 . S
C132 O130 1.247 . S
C132 O131 1.208 . S
C133 O138 1.247 . S
C133 O139 1.208 . S
C134 O126 1.315 . S
C134 O129 1.279 . S
C135 O136 1.315 . S
C135 O137 1.279 . S
O136 Cd128 2.223 . S
O136 C135 1.315 . S
O137 Cd127 2.240 . S
O137 C135 1.279 . S
O138 Cd128 2.297 . S
O138 C133 1.247 . S
O139 Cd128 2.439 . S
O139 C133 1.208 . S
O140 Cd141 2.223 . S
O140 C148 1.315 . S
Cd141 O140 2.223 . S
Cd141 O144 2.297 . S
Cd141 O145 2.439 . S
Cd141 O151 2.240 . S
Cd142 O143 2.240 . S
Cd142 O150 2.223 . S
Cd142 O152 2.297 . S
Cd142 O153 2.439 . S
O143 Cd142 2.240 . S
O143 C148 1.279 . S
O144 Cd141 2.297 . S
O144 C146 1.247 . S
O145 Cd141 2.439 . S
O145 C146 1.208 . S
C146 O144 1.247 . S
C146 O145 1.208 . S
C147 O152 1.247 . S
C147 O153 1.208 . S
C148 O140 1.315 . S
C148 O143 1.279 . S
C149 O150 1.315 . S
C149 O151 1.279 . S
O150 Cd142 2.223 . S
O150 C149 1.315 . S
O151 Cd141 2.240 . S
O151 C149 1.279 . S
O152 Cd142 2.297 . S
O152 C147 1.247 . S
O153 Cd142 2.439 . S
O153 C147 1.208 . S
O154 Cd155 2.223 . S
O154 C162 1.315 . S
Cd155 O154 2.223 . S
Cd155 O158 2.297 . S
Cd155 O159 2.439 . S
Cd155 O165 2.240 . S
Cd156 O157 2.240 . S
Cd156 O164 2.223 . S
Cd156 O166 2.297 . S
Cd156 O167 2.439 . S
O157 Cd156 2.240 . S
O157 C162 1.279 . S
O158 Cd155 2.297 . S
O158 C160 1.247 . S
O159 Cd155 2.439 . S
O159 C160 1.208 . S
C160 O158 1.247 . S
C160 O159 1.208 . S
C161 O166 1.247 . S
C161 O167 1.208 . S
C162 O154 1.315 . S
C162 O157 1.279 . S
C163 O164 1.315 . S
C163 O165 1.279 . S
O164 Cd156 2.223 . S
O164 C163 1.315 . S
O165 Cd155 2.240 . S
O165 C163 1.279 . S
O166 Cd156 2.297 . S
O166 C161 1.247 . S
O167 Cd156 2.439 . S
O167 C161 1.208 . S
O168 Cd169 2.223 . S
O168 C176 1.315 . S
Cd169 O168 2.223 . S
Cd169 O172 2.297 . S
Cd169 O173 2.439 . S
Cd169 O179 2.240 . S
Cd170 O171 2.240 . S
Cd170 O178 2.223 . S
Cd170 O180 2.297 . S
Cd170 O181 2.439 . S
O171 Cd170 2.240 . S
O171 C176 1.279 . S
O172 Cd169 2.297 . S
O172 C174 1.247 . S
O173 Cd169 2.439 . S
O173 C174 1.208 . S
C174 O172 1.247 . S
C174 O173 1.208 . S
C175 O180 1.247 . S
C175 O181 1.208 . S
C176 O168 1.315 . S
C176 O171 1.279 . S
C177 O178 1.315 . S
C177 O179 1.279 . S
O178 Cd170 2.223 . S
O178 C177 1.315 . S
O179 Cd169 2.240 . S
O179 C177 1.279 . S
O180 Cd170 2.297 . S
O180 C175 1.247 . S
O181 Cd170 2.439 . S
O181 C175 1.208 . S
O182 Cd183 2.223 . S
O182 C190 1.315 . S
Cd183 O182 2.223 . S
Cd183 O186 2.297 . S
Cd183 O187 2.439 . S
Cd183 O193 2.240 . S
Cd184 O185 2.240 . S
Cd184 O192 2.223 . S
Cd184 O194 2.297 . S
Cd184 O195 2.439 . S
O185 Cd184 2.240 . S
O185 C190 1.279 . S
O186 Cd183 2.297 . S
O186 C188 1.247 . S
O187 Cd183 2.439 . S
O187 C188 1.208 . S
C188 O186 1.247 . S
C188 O187 1.208 . S
C189 O194 1.247 . S
C189 O195 1.208 . S
C190 O182 1.315 . S
C190 O185 1.279 . S
C191 O192 1.315 . S
C191 O193 1.279 . S
O192 Cd184 2.223 . S
O192 C191 1.315 . S
O193 Cd183 2.240 . S
O193 C191 1.279 . S
O194 Cd184 2.297 . S
O194 C189 1.247 . S
O195 Cd184 2.439 . S
O195 C189 1.208 . S
O196 Cd197 2.223 . S
O196 C204 1.315 . S
Cd197 O196 2.223 . S
Cd197 O200 2.297 . S
Cd197 O201 2.439 . S
Cd197 O207 2.240 . S
Cd198 O199 2.240 . S
Cd198 O206 2.223 . S
Cd198 O208 2.297 . S
Cd198 O209 2.439 . S
O199 Cd198 2.240 . S
O199 C204 1.279 . S
O200 Cd197 2.297 . S
O200 C202 1.247 . S
O201 Cd197 2.439 . S
O201 C202 1.208 . S
C202 O200 1.247 . S
C202 O201 1.208 . S
C203 O208 1.247 . S
C203 O209 1.208 . S
C204 O196 1.315 . S
C204 O199 1.279 . S
C205 O206 1.315 . S
C205 O207 1.279 . S
O206 Cd198 2.223 . S
O206 C205 1.315 . S
O207 Cd197 2.240 . S
O207 C205 1.279 . S
O208 Cd198 2.297 . S
O208 C203 1.247 . S
O209 Cd198 2.439 . S
O209 C203 1.208 . S
O210 Cd211 2.223 . S
O210 C218 1.315 . S
Cd211 O210 2.223 . S
Cd211 O214 2.297 . S
Cd211 O215 2.439 . S
Cd211 O221 2.240 . S
Cd212 O213 2.240 . S
Cd212 O220 2.223 . S
Cd212 O222 2.297 . S
Cd212 O223 2.439 . S
O213 Cd212 2.240 . S
O213 C218 1.279 . S
O214 Cd211 2.297 . S
O214 C216 1.247 . S
O215 Cd211 2.439 . S
O215 C216 1.208 . S
C216 O214 1.247 . S
C216 O215 1.208 . S
C217 O222 1.247 . S
C217 O223 1.208 . S
C218 O210 1.315 . S
C218 O213 1.279 . S
C219 O220 1.315 . S
C219 O221 1.279 . S
O220 Cd212 2.223 . S
O220 C219 1.315 . S
O221 Cd211 2.240 . S
O221 C219 1.279 . S
O222 Cd212 2.297 . S
O222 C217 1.247 . S
O223 Cd212 2.439 . S
O223 C217 1.208 . S
C8 C163 1.269 . S
C121 C22 1.269 . S
C135 C36 1.269 . S
C149 C50 1.269 . S
C79 C64 1.269 1_554 S
C78 C93 1.269 1_554 S
C92 C107 1.269 1_556 S
C106 C65 1.269 1_554 S
C120 C51 1.269 . S
C9 C134 1.269 . S
C23 C148 1.269 . S
C37 C162 1.269 . S
C191 C176 1.269 . S
C190 C205 1.269 . S
C219 C204 1.269 . S
C177 C218 1.269 . S
C202 C6 1.472 . S
C216 C20 1.472 . S
C174 C34 1.471 . S
C48 C188 1.471 . S
C62 C146 1.472 . S
C160 C76 1.472 . S
C90 C118 1.472 . S
C104 C132 1.472 . S
C35 C7 1.578 1_665 S
C49 C21 1.578 1_645 S
C63 C91 1.578 1_455 S
C77 C105 1.578 1_565 S
C147 C119 1.578 . S
C133 C161 1.578 . S
C203 C175 1.578 1_545 S
C189 C217 1.578 1_655 S
