# Generated by pormake.
# Topology qtz, (4)-cn, num edge types: 1
# Building blocks:
#     Node 0, Type 0, BuildingBlock: CEKHIL_clean_sbu_0, # of connection points: 4
#     Node 1, Type 0, BuildingBlock: CEKHIL_clean_sbu_0, # of connection points: 4
#     Node 2, Type 0, BuildingBlock: CEKHIL_clean_sbu_0, # of connection points: 4
#     Edge 3, Type (0, 0), BuildingBlock: TEMPAE_clean_linker_10, # of connection points: 2
#     Edge 4, Type (0, 0), BuildingBlock: TEMPAE_clean_linker_10, # of connection points: 2
#     Edge 5, Type (0, 0), BuildingBlock: TEMPAE_clean_linker_10, # of connection points: 2
#     Edge 6, Type (0, 0), BuildingBlock: TEMPAE_clean_linker_10, # of connection points: 2
#     Edge 7, Type (0, 0), BuildingBlock: TEMPAE_clean_linker_10, # of connection points: 2
#     Edge 8, Type (0, 0), BuildingBlock: TEMPAE_clean_linker_10, # of connection points: 2
# Relax obj value: 0.004
# Max RMSD: 0.040
# Mean RMSD: 0.037
data_MOF--net-qtz--node1-CEKHIL_clean_sbu_0--edge1-TEMPAE_clean_linker_10
_symmetry_space_group_name_H-M    P1
_symmetry_Int_Tables_number       1
_symmetry_cell_setting            triclinic
loop_
_symmetry_equiv_pos_as_xyz
'x, y, z'
_cell_length_a     23.323658
_cell_length_b     23.473657
_cell_length_c     28.877138
_cell_angle_alpha  91.847372
_cell_angle_beta   90.169626
_cell_angle_gamma 120.51409
loop_
_atom_site_label
_atom_site_type_symbol
_atom_site_fract_x
_atom_site_fract_y
_atom_site_fract_z
_atom_type_partial_charge
Co0 Co 0.00676 0.51573 0.15339 0.0
O1 O 0.06872 0.559 0.1048 0.0
O2 O 0.06041 0.475 0.14293 0.0
C3 C 0.91877 0.50769 0.11411 0.0
O4 O 0.94712 0.45604 0.20404 0.0
Co5 Co 0.9346 0.58045 0.20123 0.0
O6 O 0.8873 0.49789 0.23521 0.0
C7 C 0.07218 0.62195 0.2307 0.0
C8 C 0.0884 0.51695 0.11029 0.0
C9 C 0.90351 0.45368 0.23242 0.0
O10 O 0.07329 0.57973 0.20169 0.0
O11 O 0.0231 0.63167 0.23405 0.0
O12 O 0.93635 0.46383 0.10729 0.0
O13 O 0.95681 0.55714 0.14184 0.0
Co14 Co 0.52777 0.01959 0.52275 0.0
O15 O 0.48319 0.95448 0.56832 0.0
O16 O 0.567 0.96371 0.52716 0.0
C17 C 0.53934 0.10463 0.56864 0.0
O18 O 0.58665 0.08345 0.47338 0.0
Co19 Co 0.45955 0.09562 0.48761 0.0
O20 O 0.54495 0.14866 0.45643 0.0
C21 C 0.41448 0.95998 0.45052 0.0
C22 C 0.5246 0.93435 0.55986 0.0
C23 C 0.58872 0.13179 0.45173 0.0
O24 O 0.46138 0.9585 0.47321 0.0
O25 O 0.40309 0.00782 0.45451 0.0
O26 O 0.58184 0.08471 0.57171 0.0
O27 O 0.48907 0.06965 0.54095 0.0
Co28 Co 0.50821 0.51997 0.82013 0.0
O29 O 0.46772 0.54109 0.7709 0.0
O30 O 0.54902 0.61564 0.81687 0.0
C31 C 0.52161 0.44622 0.77662 0.0
O32 O 0.56384 0.51466 0.87289 0.0
Co33 Co 0.43821 0.37636 0.85442 0.0
O34 O 0.52827 0.40658 0.88085 0.0
C35 C 0.38985 0.46581 0.88446 0.0
C36 C 0.51 0.60282 0.78081 0.0
C37 C 0.57036 0.46767 0.88915 0.0
O38 O 0.43975 0.51469 0.86541 0.0
O39 O 0.37749 0.40606 0.88064 0.0
O40 O 0.56467 0.50901 0.77552 0.0
O41 O 0.4696 0.4306 0.80097 0.0
C42 C 0.27886 0.43154 0.91787 0.0
C43 C 0.3466 0.479 0.91485 0.0
C44 C 0.23812 0.44046 0.9494 0.0
C45 C 0.26625 0.49728 0.97967 0.0
C46 C 0.3346 0.54566 0.97653 0.0
C47 C 0.37379 0.53639 0.94365 0.0
C48 C 0.16507 0.38872 0.95059 0.0
C49 C 0.36675 0.60618 0.00883 0.0
C50 C 0.14876 0.54521 0.03575 0.0
C51 C 0.13702 0.51477 0.0785 0.0
C52 C 0.19117 0.54046 1.00348 0.0
C53 C 0.2239 0.50568 0.01461 0.0
C54 C 0.21388 0.47656 0.05833 0.0
C55 C 0.16986 0.48075 0.08957 0.0
C56 C 0.19924 0.57093 0.95692 0.0
C57 C 0.24903 0.44028 0.07186 0.0
H58 H 0.2577 0.38724 0.89551 0.0
H59 H 0.42636 0.57274 0.9418 0.0
H60 H 0.15324 0.36542 0.98472 0.0
H61 H 0.13444 0.41215 0.94625 0.0
H62 H 0.15029 0.34928 0.92306 0.0
H63 H 0.42035 0.63932 1.00175 0.0
H64 H 0.34093 0.63465 0.00564 0.0
H65 H 0.36196 0.59086 0.04524 0.0
H66 H 0.12316 0.57121 0.02681 0.0
H67 H 0.16118 0.45744 0.12265 0.0
H68 H 0.18122 0.5317 0.929 0.0
H69 H 0.25259 0.60619 0.95076 0.0
H70 H 0.17136 0.59751 0.95403 0.0
H71 H 0.23208 0.39573 0.04872 0.0
H72 H 0.23959 0.42453 0.10827 0.0
H73 H 0.3035 0.47232 0.06757 0.0
C74 C 0.84521 0.33337 0.25087 0.0
C75 C 0.87256 0.39982 0.2654 0.0
C76 C 0.80627 0.28233 0.28106 0.0
C77 C 0.79585 0.29858 0.32683 0.0
C78 C 0.82861 0.36574 0.34258 0.0
C79 C 0.86578 0.41543 0.31152 0.0
C80 C 0.77203 0.21146 0.26282 0.0
C81 C 0.82006 0.38554 0.3912 0.0
C82 C 0.62852 0.20087 0.38251 0.0
C83 C 0.64132 0.16848 0.4176 0.0
C84 C 0.67746 0.24018 0.35136 0.0
C85 C 0.74157 0.24804 0.3552 0.0
C86 C 0.75431 0.21315 0.38909 0.0
C87 C 0.70378 0.17338 0.4199 0.0
C88 C 0.66115 0.27584 0.31561 0.0
C89 C 0.822 0.22018 0.39417 0.0
H90 H 0.85066 0.32133 0.2152 0.0
H91 H 0.88798 0.46694 0.32298 0.0
H92 H 0.77419 0.17893 0.28894 0.0
H93 H 0.71873 0.1939 0.25554 0.0
H94 H 0.79448 0.20611 0.2303 0.0
H95 H 0.85661 0.43834 0.40014 0.0
H96 H 0.76922 0.37783 0.39444 0.0
H97 H 0.82564 0.35439 0.41684 0.0
H98 H 0.57999 0.19631 0.37968 0.0
H99 H 0.71391 0.14817 0.44669 0.0
H100 H 0.67511 0.26687 0.28061 0.0
H101 H 0.69027 0.32996 0.32354 0.0
H102 H 0.60746 0.26007 0.31468 0.0
H103 H 0.84082 0.21561 0.35983 0.0
H104 H 0.82116 0.18259 0.41702 0.0
H105 H 0.85775 0.27007 0.40929 0.0
C106 C 0.47317 0.84993 0.61992 0.0
C107 C 0.52546 0.8842 0.58933 0.0
C108 C 0.47459 0.80661 0.65154 0.0
C109 C 0.52973 0.79701 0.65282 0.0
C110 C 0.5825 0.83081 0.6217 0.0
C111 C 0.5797 0.87401 0.59019 0.0
C112 C 0.4169 0.7711 0.68366 0.0
C113 C 0.64195 0.82153 0.62189 0.0
C114 C 0.55008 0.72137 0.7623 0.0
C115 C 0.5171 0.65407 0.74884 0.0
C116 C 0.55609 0.769 0.73108 0.0
C117 C 0.52974 0.74878 0.68522 0.0
C118 C 0.49834 0.6811 0.67123 0.0
C119 C 0.49186 0.6347 0.70324 0.0
C120 C 0.58907 0.84064 0.74745 0.0
C121 C 0.47033 0.65738 0.6226 0.0
H122 H 0.43096 0.8574 0.6195 0.0
H123 H 0.62052 0.90078 0.56696 0.0
H124 H 0.39283 0.71682 0.6772 0.0
H125 H 0.43508 0.78197 0.72024 0.0
H126 H 0.37866 0.78548 0.67918 0.0
H127 H 0.67914 0.85185 0.59589 0.0
H128 H 0.66648 0.83517 0.65672 0.0
H129 H 0.62557 0.76869 0.61451 0.0
H130 H 0.56999 0.7366 0.79737 0.0
H131 H 0.46731 0.58288 0.69224 0.0
H132 H 0.55222 0.85724 0.74668 0.0
H133 H 0.62952 0.87211 0.72381 0.0
H134 H 0.61017 0.84889 0.78322 0.0
H135 H 0.42851 0.66616 0.61645 0.0
H136 H 0.45186 0.60383 0.61624 0.0
H137 H 0.50888 0.68566 0.59687 0.0
C138 C 0.64314 0.52808 0.95843 0.0
C139 C 0.62705 0.48361 0.92043 0.0
C140 C 0.691 0.53617 0.99187 0.0
C141 C 0.72474 0.50047 0.98614 0.0
C142 C 0.71061 0.45787 0.94654 0.0
C143 C 0.66108 0.44909 0.91463 0.0
C144 C 0.70339 0.58064 0.03422 0.0
C145 C 0.7469 0.42054 0.93826 0.0
C146 C 0.88785 0.5571 0.05133 0.0
C147 C 0.86813 0.50863 0.08436 0.0
C148 C 0.84153 0.55575 0.01949 0.0
C149 C 0.77363 0.50592 0.02192 0.0
C150 C 0.75324 0.45846 0.05671 0.0
C151 C 0.80113 0.4596 0.08701 0.0
C152 C 0.86573 0.60576 0.98202 0.0
C153 C 0.68109 0.40573 0.06133 0.0
H154 H 0.61602 0.55401 0.96317 0.0
H155 H 0.64855 0.41476 0.8851 0.0
H156 H 0.68939 0.55085 0.06568 0.0
H157 H 0.75705 0.61831 0.03799 0.0
H158 H 0.67452 0.60637 0.03284 0.0
H159 H 0.73388 0.39375 0.90394 0.0
H160 H 0.80151 0.45516 0.94035 0.0
H161 H 0.7344 0.38405 0.96553 0.0
H162 H 0.94007 0.59454 0.04924 0.0
H163 H 0.78631 0.42229 0.11277 0.0
H164 H 0.83763 0.63224 0.98229 0.0
H165 H 0.85665 0.57986 0.94759 0.0
H166 H 0.91969 0.64276 0.986 0.0
H167 H 0.64939 0.42846 0.06234 0.0
H168 H 0.67259 0.37713 0.09305 0.0
H169 H 0.66461 0.37084 0.03075 0.0
C170 C 0.33662 0.91576 0.38217 0.0
C171 C 0.3723 0.90525 0.41675 0.0
C172 C 0.29413 0.86487 0.35073 0.0
C173 C 0.28634 0.80133 0.354 0.0
C174 C 0.3238 0.79065 0.38774 0.0
C175 C 0.36673 0.84297 0.41867 0.0
C176 C 0.2556 0.87868 0.31505 0.0
C177 C 0.31649 0.72345 0.39238 0.0
C178 C 0.11561 0.67149 0.30919 0.0
C179 C 0.1286 0.65989 0.2636 0.0
C180 C 0.16737 0.71323 0.34025 0.0
C181 C 0.2338 0.74549 0.325 0.0
C182 C 0.2476 0.73105 0.27973 0.0
C183 C 0.19461 0.68764 0.24957 0.0
C184 C 0.15041 0.72609 0.38845 0.0
C185 C 0.3177 0.76489 0.2621 0.0
H186 H 0.34143 0.96399 0.37978 0.0
H187 H 0.39437 0.83454 0.44514 0.0
H188 H 0.26186 0.86221 0.27996 0.0
H189 H 0.20173 0.85039 0.32265 0.0
H190 H 0.27157 0.93202 0.31455 0.0
H191 H 0.35468 0.72514 0.41639 0.0
H192 H 0.2665 0.6887 0.40576 0.0
H193 H 0.32026 0.70308 0.35807 0.0
H194 H 0.0645 0.64892 0.32032 0.0
H195 H 0.20458 0.6784 0.21432 0.0
H196 H 0.15834 0.77687 0.39134 0.0
H197 H 0.18343 0.72296 0.41469 0.0
H198 H 0.09785 0.69052 0.39687 0.0
H199 H 0.33429 0.81735 0.25571 0.0
H200 H 0.32132 0.74103 0.22926 0.0
H201 H 0.35248 0.7647 0.28829 0.0
C202 C 0.48069 0.32949 0.74955 0.0
C203 C 0.52971 0.39664 0.74932 0.0
C204 C 0.48547 0.28265 0.72101 0.0
C205 C 0.54049 0.30366 0.69152 0.0
C206 C 0.591 0.37116 0.69207 0.0
C207 C 0.58506 0.41686 0.72108 0.0
C208 C 0.4309 0.21092 0.7216 0.0
C209 C 0.65032 0.39537 0.66105 0.0
C210 C 0.57714 0.17426 0.6416 0.0
C211 C 0.54416 0.15904 0.5984 0.0
C212 C 0.57661 0.22149 0.67233 0.0
C213 C 0.54381 0.25533 0.65886 0.0
C214 C 0.51257 0.24182 0.61449 0.0
C215 C 0.51234 0.19307 0.585 0.0
C216 C 0.60927 0.23367 0.7197 0.0
C217 C 0.4785 0.27809 0.59848 0.0
H218 H 0.4379 0.31363 0.77142 0.0
H219 H 0.62319 0.46875 0.72086 0.0
H220 H 0.40512 0.19496 0.68723 0.0
H221 H 0.45242 0.17923 0.72829 0.0
H222 H 0.39342 0.20217 0.74834 0.0
H223 H 0.68652 0.44904 0.66697 0.0
H224 H 0.6763 0.36756 0.66689 0.0
H225 H 0.63332 0.38626 0.62421 0.0
H226 H 0.60121 0.1474 0.65212 0.0
H227 H 0.48715 0.18147 0.55145 0.0
H228 H 0.57136 0.22053 0.74679 0.0
H229 H 0.64681 0.2869 0.72541 0.0
H230 H 0.63401 0.20435 0.72439 0.0
H231 H 0.43585 0.26685 0.621 0.0
H232 H 0.45986 0.26436 0.56203 0.0
H233 H 0.51347 0.33233 0.60146 0.0
loop_
_geom_bond_atom_site_label_1
_geom_bond_atom_site_label_2
_geom_bond_distance
_geom_bond_site_symmetry_2
_ccdc_geom_bond_type
Co0 O1 2.216 . S
Co0 O2 2.091 . S
Co0 O4 2.004 1_455 S
Co0 O10 2.021 . S
Co0 O12 2.137 1_455 S
Co0 O13 2.244 1_455 S
O1 Co0 2.216 . S
O1 C8 1.247 . S
O2 Co0 2.091 . S
O2 C8 1.261 . S
C3 O12 1.247 . S
C3 O13 1.272 . S
O4 Co0 2.004 1_655 S
O4 C9 1.259 . S
Co5 O6 2.061 . S
Co5 O11 2.052 1_655 S
Co5 O13 2.135 . S
O6 Co5 2.061 . S
O6 C9 1.235 . S
C7 O10 1.238 . S
C7 O11 1.241 . S
C8 O1 1.247 . S
C8 O2 1.261 . S
C9 O4 1.259 . S
C9 O6 1.235 . S
O10 Co0 2.021 . S
O10 C7 1.238 . S
O11 Co5 2.052 1_455 S
O11 C7 1.241 . S
O12 Co0 2.137 1_655 S
O12 C3 1.247 . S
O13 Co0 2.244 1_655 S
O13 C3 1.272 . S
O13 Co5 2.135 . S
Co14 O15 2.216 1_545 S
Co14 O16 2.091 1_545 S
Co14 O18 2.004 . S
Co14 O24 2.021 1_545 S
Co14 O26 2.137 . S
Co14 O27 2.244 . S
O15 Co14 2.216 1_565 S
O15 C22 1.247 . S
O16 Co14 2.091 1_565 S
O16 C22 1.261 . S
C17 O26 1.247 . S
C17 O27 1.272 . S
O18 Co14 2.004 . S
O18 C23 1.259 . S
Co19 O20 2.061 . S
Co19 O25 2.052 1_545 S
Co19 O27 2.135 . S
O20 Co19 2.061 . S
O20 C23 1.235 . S
C21 O24 1.238 . S
C21 O25 1.241 . S
C22 O15 1.247 . S
C22 O16 1.261 . S
C23 O18 1.259 . S
C23 O20 1.235 . S
O24 Co14 2.021 1_565 S
O24 C21 1.238 . S
O25 Co19 2.052 1_565 S
O25 C21 1.241 . S
O26 Co14 2.137 . S
O26 C17 1.247 . S
O27 Co14 2.244 . S
O27 C17 1.272 . S
O27 Co19 2.135 . S
Co28 O29 2.216 . S
Co28 O30 2.091 . S
Co28 O32 2.004 . S
Co28 O38 2.021 . S
Co28 O40 2.137 . S
Co28 O41 2.244 . S
O29 Co28 2.216 . S
O29 C36 1.247 . S
O30 Co28 2.091 . S
O30 C36 1.261 . S
C31 O40 1.247 . S
C31 O41 1.272 . S
O32 Co28 2.004 . S
O32 C37 1.259 . S
Co33 O34 2.061 . S
Co33 O39 2.052 . S
Co33 O41 2.135 . S
O34 Co33 2.061 . S
O34 C37 1.235 . S
C35 O38 1.238 . S
C35 O39 1.241 . S
C36 O29 1.247 . S
C36 O30 1.261 . S
C37 O32 1.259 . S
C37 O34 1.235 . S
O38 Co28 2.021 . S
O38 C35 1.238 . S
O39 Co33 2.052 . S
O39 C35 1.241 . S
O40 Co28 2.137 . S
O40 C31 1.247 . S
O41 Co28 2.244 . S
O41 C31 1.272 . S
O41 Co33 2.135 . S
C42 C43 1.391 . S
C42 C44 1.394 . S
C42 H58 0.931 . S
C43 C42 1.391 . S
C43 C47 1.376 . S
C44 C42 1.394 . S
C44 C45 1.369 . S
C44 C48 1.531 . S
C45 C44 1.369 . S
C45 C46 1.410 . S
C45 C53 1.503 1_556 S
C46 C45 1.410 . S
C46 C47 1.392 . S
C46 C49 1.511 1_556 S
C47 C43 1.376 . S
C47 C46 1.392 . S
C47 H59 0.929 . S
C48 C44 1.531 . S
C48 H60 0.960 . S
C48 H61 0.962 . S
C48 H62 0.960 . S
C49 C46 1.511 1_554 S
C49 H63 0.961 . S
C49 H64 0.961 . S
C49 H65 0.961 . S
C50 C51 1.370 . S
C50 C52 1.363 . S
C50 H66 0.931 . S
C51 C50 1.370 . S
C51 C55 1.408 . S
C52 C50 1.363 . S
C52 C53 1.370 . S
C52 C56 1.524 1_554 S
C53 C45 1.503 1_554 S
C53 C52 1.370 . S
C53 C54 1.403 . S
C54 C53 1.403 . S
C54 C55 1.404 . S
C54 C57 1.539 . S
C55 C51 1.408 . S
C55 C54 1.404 . S
C55 H67 0.930 . S
C56 C52 1.524 1_556 S
C56 H68 0.956 . S
C56 H69 0.961 . S
C56 H70 0.961 . S
C57 C54 1.539 . S
C57 H71 0.958 . S
C57 H72 0.961 . S
C57 H73 0.960 . S
H58 C42 0.931 . S
H59 C47 0.929 . S
H60 C48 0.960 . S
H61 C48 0.962 . S
H62 C48 0.960 . S
H63 C49 0.961 . S
H64 C49 0.961 . S
H65 C49 0.961 . S
H66 C50 0.931 . S
H67 C55 0.930 . S
H68 C56 0.956 . S
H69 C56 0.961 . S
H70 C56 0.961 . S
H71 C57 0.958 . S
H72 C57 0.961 . S
H73 C57 0.960 . S
C74 C75 1.391 . S
C74 C76 1.394 . S
C74 H90 0.931 . S
C75 C74 1.391 . S
C75 C79 1.376 . S
C76 C74 1.394 . S
C76 C77 1.369 . S
C76 C80 1.531 . S
C77 C76 1.369 . S
C77 C78 1.410 . S
C77 C85 1.503 . S
C78 C77 1.410 . S
C78 C79 1.392 . S
C78 C81 1.511 . S
C79 C75 1.376 . S
C79 C78 1.392 . S
C79 H91 0.929 . S
C80 C76 1.531 . S
C80 H92 0.960 . S
C80 H93 0.962 . S
C80 H94 0.960 . S
C81 C78 1.511 . S
C81 H95 0.961 . S
C81 H96 0.961 . S
C81 H97 0.961 . S
C82 C83 1.370 . S
C82 C84 1.363 . S
C82 H98 0.931 . S
C83 C82 1.370 . S
C83 C87 1.408 . S
C84 C82 1.363 . S
C84 C85 1.370 . S
C84 C88 1.524 . S
C85 C77 1.503 . S
C85 C84 1.370 . S
C85 C86 1.403 . S
C86 C85 1.403 . S
C86 C87 1.404 . S
C86 C89 1.539 . S
C87 C83 1.408 . S
C87 C86 1.404 . S
C87 H99 0.930 . S
C88 C84 1.524 . S
C88 H100 0.956 . S
C88 H101 0.961 . S
C88 H102 0.961 . S
C89 C86 1.539 . S
C89 H103 0.958 . S
C89 H104 0.961 . S
C89 H105 0.960 . S
H90 C74 0.931 . S
H91 C79 0.929 . S
H92 C80 0.960 . S
H93 C80 0.962 . S
H94 C80 0.960 . S
H95 C81 0.961 . S
H96 C81 0.961 . S
H97 C81 0.961 . S
H98 C82 0.931 . S
H99 C87 0.930 . S
H100 C88 0.956 . S
H101 C88 0.961 . S
H102 C88 0.961 . S
H103 C89 0.958 . S
H104 C89 0.961 . S
H105 C89 0.960 . S
C106 C107 1.391 . S
C106 C108 1.394 . S
C106 H122 0.931 . S
C107 C106 1.391 . S
C107 C111 1.376 . S
C108 C106 1.394 . S
C108 C109 1.369 . S
C108 C112 1.531 . S
C109 C108 1.369 . S
C109 C110 1.410 . S
C109 C117 1.503 . S
C110 C109 1.410 . S
C110 C111 1.392 . S
C110 C113 1.511 . S
C111 C107 1.376 . S
C111 C110 1.392 . S
C111 H123 0.929 . S
C112 C108 1.531 . S
C112 H124 0.960 . S
C112 H125 0.962 . S
C112 H126 0.960 . S
C113 C110 1.511 . S
C113 H127 0.961 . S
C113 H128 0.961 . S
C113 H129 0.961 . S
C114 C115 1.370 . S
C114 C116 1.363 . S
C114 H130 0.931 . S
C115 C114 1.370 . S
C115 C119 1.408 . S
C116 C114 1.363 . S
C116 C117 1.370 . S
C116 C120 1.524 . S
C117 C109 1.503 . S
C117 C116 1.370 . S
C117 C118 1.403 . S
C118 C117 1.403 . S
C118 C119 1.404 . S
C118 C121 1.539 . S
C119 C115 1.408 . S
C119 C118 1.404 . S
C119 H131 0.930 . S
C120 C116 1.524 . S
C120 H132 0.956 . S
C120 H133 0.961 . S
C120 H134 0.961 . S
C121 C118 1.539 . S
C121 H135 0.958 . S
C121 H136 0.961 . S
C121 H137 0.960 . S
H122 C106 0.931 . S
H123 C111 0.929 . S
H124 C112 0.960 . S
H125 C112 0.962 . S
H126 C112 0.960 . S
H127 C113 0.961 . S
H128 C113 0.961 . S
H129 C113 0.961 . S
H130 C114 0.931 . S
H131 C119 0.930 . S
H132 C120 0.956 . S
H133 C120 0.961 . S
H134 C120 0.961 . S
H135 C121 0.958 . S
H136 C121 0.961 . S
H137 C121 0.960 . S
C138 C139 1.391 . S
C138 C140 1.393 1_556 S
C138 H154 0.931 . S
C139 C138 1.391 . S
C139 C143 1.376 . S
C140 C138 1.393 1_554 S
C140 C141 1.369 1_554 S
C140 C144 1.531 . S
C141 C140 1.369 1_556 S
C141 C142 1.410 . S
C141 C149 1.503 1_556 S
C142 C141 1.410 . S
C142 C143 1.392 . S
C142 C145 1.511 . S
C143 C139 1.376 . S
C143 C142 1.392 . S
C143 H155 0.929 . S
C144 C140 1.531 . S
C144 H156 0.960 . S
C144 H157 0.962 . S
C144 H158 0.960 . S
C145 C142 1.511 . S
C145 H159 0.961 . S
C145 H160 0.961 . S
C145 H161 0.961 . S
C146 C147 1.370 . S
C146 C148 1.363 . S
C146 H162 0.931 . S
C147 C146 1.370 . S
C147 C151 1.408 . S
C148 C146 1.363 . S
C148 C149 1.370 . S
C148 C152 1.524 1_554 S
C149 C141 1.503 1_554 S
C149 C148 1.370 . S
C149 C150 1.403 . S
C150 C149 1.403 . S
C150 C151 1.404 . S
C150 C153 1.539 . S
C151 C147 1.408 . S
C151 C150 1.404 . S
C151 H163 0.930 . S
C152 C148 1.524 1_556 S
C152 H164 0.956 . S
C152 H165 0.961 . S
C152 H166 0.961 . S
C153 C150 1.539 . S
C153 H167 0.958 . S
C153 H168 0.961 . S
C153 H169 0.960 . S
H154 C138 0.931 . S
H155 C143 0.929 . S
H156 C144 0.960 . S
H157 C144 0.962 . S
H158 C144 0.960 . S
H159 C145 0.961 . S
H160 C145 0.961 . S
H161 C145 0.961 . S
H162 C146 0.931 . S
H163 C151 0.930 . S
H164 C152 0.956 . S
H165 C152 0.961 . S
H166 C152 0.961 . S
H167 C153 0.958 . S
H168 C153 0.961 . S
H169 C153 0.960 . S
C170 C171 1.391 . S
C170 C172 1.394 . S
C170 H186 0.931 . S
C171 C170 1.391 . S
C171 C175 1.376 . S
C172 C170 1.394 . S
C172 C173 1.369 . S
C172 C176 1.531 . S
C173 C172 1.369 . S
C173 C174 1.410 . S
C173 C181 1.503 . S
C174 C173 1.410 . S
C174 C175 1.392 . S
C174 C177 1.511 . S
C175 C171 1.376 . S
C175 C174 1.392 . S
C175 H187 0.929 . S
C176 C172 1.531 . S
C176 H188 0.960 . S
C176 H189 0.962 . S
C176 H190 0.960 . S
C177 C174 1.511 . S
C177 H191 0.961 . S
C177 H192 0.961 . S
C177 H193 0.961 . S
C178 C179 1.370 . S
C178 C180 1.363 . S
C178 H194 0.931 . S
C179 C178 1.370 . S
C179 C183 1.408 . S
C180 C178 1.363 . S
C180 C181 1.370 . S
C180 C184 1.524 . S
C181 C173 1.503 . S
C181 C180 1.370 . S
C181 C182 1.403 . S
C182 C181 1.403 . S
C182 C183 1.404 . S
C182 C185 1.539 . S
C183 C179 1.408 . S
C183 C182 1.404 . S
C183 H195 0.930 . S
C184 C180 1.524 . S
C184 H196 0.956 . S
C184 H197 0.961 . S
C184 H198 0.961 . S
C185 C182 1.539 . S
C185 H199 0.958 . S
C185 H200 0.961 . S
C185 H201 0.960 . S
H186 C170 0.931 . S
H187 C175 0.929 . S
H188 C176 0.960 . S
H189 C176 0.962 . S
H190 C176 0.960 . S
H191 C177 0.961 . S
H192 C177 0.961 . S
H193 C177 0.961 . S
H194 C178 0.931 . S
H195 C183 0.930 . S
H196 C184 0.956 . S
H197 C184 0.961 . S
H198 C184 0.961 . S
H199 C185 0.958 . S
H200 C185 0.961 . S
H201 C185 0.960 . S
C202 C203 1.391 . S
C202 C204 1.394 . S
C202 H218 0.931 . S
C203 C202 1.391 . S
C203 C207 1.376 . S
C204 C202 1.394 . S
C204 C205 1.369 . S
C204 C208 1.531 . S
C205 C204 1.369 . S
C205 C206 1.410 . S
C205 C213 1.503 . S
C206 C205 1.410 . S
C206 C207 1.392 . S
C206 C209 1.511 . S
C207 C203 1.376 . S
C207 C206 1.392 . S
C207 H219 0.929 . S
C208 C204 1.531 . S
C208 H220 0.960 . S
C208 H221 0.962 . S
C208 H222 0.960 . S
C209 C206 1.511 . S
C209 H223 0.961 . S
C209 H224 0.961 . S
C209 H225 0.961 . S
C210 C211 1.370 . S
C210 C212 1.363 . S
C210 H226 0.931 . S
C211 C210 1.370 . S
C211 C215 1.408 . S
C212 C210 1.363 . S
C212 C213 1.370 . S
C212 C216 1.524 . S
C213 C205 1.503 . S
C213 C212 1.370 . S
C213 C214 1.403 . S
C214 C213 1.403 . S
C214 C215 1.404 . S
C214 C217 1.539 . S
C215 C211 1.408 . S
C215 C214 1.404 . S
C215 H227 0.930 . S
C216 C212 1.524 . S
C216 H228 0.956 . S
C216 H229 0.961 . S
C216 H230 0.961 . S
C217 C214 1.539 . S
C217 H231 0.958 . S
C217 H232 0.961 . S
C217 H233 0.960 . S
H218 C202 0.931 . S
H219 C207 0.929 . S
H220 C208 0.960 . S
H221 C208 0.962 . S
H222 C208 0.960 . S
H223 C209 0.961 . S
H224 C209 0.961 . S
H225 C209 0.961 . S
H226 C210 0.931 . S
H227 C215 0.930 . S
H228 C216 0.956 . S
H229 C216 0.961 . S
H230 C216 0.961 . S
H231 C217 0.958 . S
H232 C217 0.961 . S
H233 C217 0.960 . S
C43 C35 1.401 . S
C51 C8 1.446 . S
C75 C9 1.501 . S
C83 C23 1.496 . S
C107 C22 1.455 . S
C115 C36 1.458 . S
C139 C37 1.435 . S
C147 C3 1.467 . S
C171 C21 1.399 . S
C179 C7 1.420 . S
C203 C31 1.422 . S
C211 C17 1.434 . S
