# Generated by pormake.
# Topology uoq, (4)-cn, num edge types: 1
# Building blocks:
#     Node 0, Type 0, BuildingBlock: GALJAG_clean_sbu_0, # of connection points: 4
#     Node 1, Type 0, BuildingBlock: GALJAG_clean_sbu_0, # of connection points: 4
#     Node 2, Type 0, BuildingBlock: GALJAG_clean_sbu_0, # of connection points: 4
#     Node 3, Type 0, BuildingBlock: GALJAG_clean_sbu_0, # of connection points: 4
#     Node 4, Type 0, BuildingBlock: GALJAG_clean_sbu_0, # of connection points: 4
#     Node 5, Type 0, BuildingBlock: GALJAG_clean_sbu_0, # of connection points: 4
#     Node 6, Type 0, BuildingBlock: GALJAG_clean_sbu_0, # of connection points: 4
#     Node 7, Type 0, BuildingBlock: GALJAG_clean_sbu_0, # of connection points: 4
#     Node 8, Type 0, BuildingBlock: GALJAG_clean_sbu_0, # of connection points: 4
#     Node 9, Type 0, BuildingBlock: GALJAG_clean_sbu_0, # of connection points: 4
#     Node 10, Type 0, BuildingBlock: GALJAG_clean_sbu_0, # of connection points: 4
#     Node 11, Type 0, BuildingBlock: GALJAG_clean_sbu_0, # of connection points: 4
#     Edge 12, Type (0, 0), None
#     Edge 13, Type (0, 0), None
#     Edge 14, Type (0, 0), None
#     Edge 15, Type (0, 0), None
#     Edge 16, Type (0, 0), None
#     Edge 17, Type (0, 0), None
#     Edge 18, Type (0, 0), None
#     Edge 19, Type (0, 0), None
#     Edge 20, Type (0, 0), None
#     Edge 21, Type (0, 0), None
#     Edge 22, Type (0, 0), None
#     Edge 23, Type (0, 0), None
#     Edge 24, Type (0, 0), None
#     Edge 25, Type (0, 0), None
#     Edge 26, Type (0, 0), None
#     Edge 27, Type (0, 0), None
#     Edge 28, Type (0, 0), None
#     Edge 29, Type (0, 0), None
#     Edge 30, Type (0, 0), None
#     Edge 31, Type (0, 0), None
#     Edge 32, Type (0, 0), None
#     Edge 33, Type (0, 0), None
#     Edge 34, Type (0, 0), None
#     Edge 35, Type (0, 0), None
# Relax obj value: 0.135
# Max RMSD: 0.151
# Mean RMSD: 0.151
data_MOF--net-uoq--node1-GALJAG_clean_sbu_0--edge1-none
_symmetry_space_group_name_H-M    P1
_symmetry_Int_Tables_number       1
_symmetry_cell_setting            triclinic
loop_
_symmetry_equiv_pos_as_xyz
'x, y, z'
_cell_length_a     27.652879
_cell_length_b     27.653168
_cell_length_c     9.7818863
_cell_angle_alpha  89.998347
_cell_angle_beta   90.003294
_cell_angle_gamma 120.00276
loop_
_atom_site_label
_atom_site_type_symbol
_atom_site_fract_x
_atom_site_fract_y
_atom_site_fract_z
_atom_type_partial_charge
In0 In 0.32045 0.45506 0.22491 0.0
O1 O 0.24629 0.40633 0.36208 0.0
O2 O 0.28933 0.49603 0.36446 0.0
C3 C 0.35631 0.38232 0.27749 0.0
C4 C 0.25316 0.45177 0.01391 0.0
C5 C 0.41832 0.54824 0.27962 0.0
O6 O 0.33483 0.39838 0.36671 0.0
O7 O 0.35714 0.4003 0.15766 0.0
O8 O 0.4046 0.52961 0.15882 0.0
O9 O 0.38304 0.52044 0.37023 0.0
C10 C 0.25072 0.45061 0.4108 0.0
O11 O 0.29408 0.49631 0.05816 0.0
O12 O 0.24912 0.40801 0.06561 0.0
In13 In 0.87268 0.3168 0.55825 0.0
O14 O 0.84724 0.24264 0.69542 0.0
O15 O 0.80057 0.28567 0.69779 0.0
C16 C 0.98128 0.35266 0.61082 0.0
C17 C 0.80867 0.2495 0.34725 0.0
C18 C 0.87736 0.41466 0.61295 0.0
O19 O 0.94374 0.33118 0.70005 0.0
O20 O 0.96413 0.35349 0.49099 0.0
O21 O 0.88228 0.40095 0.49215 0.0
O22 O 0.86989 0.37939 0.70356 0.0
C23 C 0.8074 0.24706 0.74413 0.0
O24 O 0.80506 0.29042 0.39148 0.0
O25 O 0.8484 0.24547 0.39895 0.0
In26 In 0.56318 0.86902 0.89157 0.0
O27 O 0.61192 0.84359 0.02876 0.0
O28 O 0.52222 0.79692 0.03113 0.0
C29 C 0.63592 0.97762 0.94415 0.0
C30 C 0.56648 0.80502 0.68059 0.0
C31 C 0.47001 0.8737 0.94627 0.0
O32 O 0.61987 0.94008 0.03337 0.0
O33 O 0.61794 0.96047 0.82432 0.0
O34 O 0.48864 0.87862 0.82548 0.0
O35 O 0.49781 0.86623 0.03689 0.0
C36 C 0.56764 0.80375 0.07748 0.0
O37 O 0.52194 0.8014 0.72483 0.0
O38 O 0.61024 0.84475 0.73228 0.0
In39 In 0.70146 0.55953 0.22489 0.0
O40 O 0.77562 0.60826 0.36207 0.0
O41 O 0.73258 0.51856 0.36445 0.0
C42 C 0.6656 0.63227 0.27748 0.0
C43 C 0.76875 0.56282 0.01391 0.0
C44 C 0.60359 0.46635 0.2796 0.0
O45 O 0.68709 0.61621 0.3667 0.0
O46 O 0.66476 0.61429 0.15765 0.0
O47 O 0.6173 0.48499 0.1588 0.0
O48 O 0.63887 0.49415 0.37021 0.0
C49 C 0.77119 0.56399 0.41079 0.0
O50 O 0.72783 0.51829 0.05815 0.0
O51 O 0.77278 0.60658 0.0656 0.0
In52 In 0.14923 0.69779 0.55824 0.0
O53 O 0.21686 0.72418 0.39152 0.0
O54 O 0.1735 0.76911 0.39892 0.0
C55 C 0.14454 0.59993 0.61293 0.0
C56 C 0.21451 0.76753 0.74413 0.0
C57 C 0.04063 0.66193 0.61082 0.0
O58 O 0.13962 0.61365 0.49214 0.0
O59 O 0.15202 0.63521 0.70354 0.0
O60 O 0.07818 0.68342 0.70004 0.0
O61 O 0.05777 0.6611 0.49099 0.0
C62 C 0.21324 0.76509 0.34725 0.0
O63 O 0.17467 0.77196 0.6954 0.0
O64 O 0.22133 0.72892 0.6978 0.0
In65 In 0.45872 0.14557 0.89158 0.0
O66 O 0.40999 0.171 0.02875 0.0
O67 O 0.49969 0.21766 0.03115 0.0
C68 C 0.38598 0.03697 0.94416 0.0
C69 C 0.45543 0.20957 0.6806 0.0
C70 C 0.5519 0.14088 0.94627 0.0
O71 O 0.40204 0.07451 0.03338 0.0
O72 O 0.40396 0.05412 0.82433 0.0
O73 O 0.53326 0.13596 0.82548 0.0
O74 O 0.5241 0.14836 0.03689 0.0
C75 C 0.45426 0.21084 0.07748 0.0
O76 O 0.49997 0.2132 0.72487 0.0
O77 O 0.41167 0.16983 0.73225 0.0
In78 In 0.56318 0.6978 0.36747 0.0
O79 O 0.61192 0.77197 0.23031 0.0
O80 O 0.52222 0.72892 0.22788 0.0
C81 C 0.6359 0.66192 0.31485 0.0
C82 C 0.56648 0.7651 0.57844 0.0
C83 C 0.47 0.59994 0.31279 0.0
O84 O 0.61987 0.68344 0.22564 0.0
O85 O 0.61794 0.6611 0.4347 0.0
O86 O 0.48865 0.61365 0.43358 0.0
O87 O 0.4978 0.6352 0.22217 0.0
C88 C 0.56764 0.76753 0.18156 0.0
O89 O 0.52194 0.7242 0.53414 0.0
O90 O 0.61024 0.7691 0.52682 0.0
In91 In 0.87267 0.55952 0.70079 0.0
O92 O 0.84725 0.60826 0.56362 0.0
O93 O 0.80058 0.51856 0.56121 0.0
C94 C 0.98127 0.63224 0.64819 0.0
C95 C 0.80867 0.56282 0.91176 0.0
C96 C 0.87735 0.46634 0.64612 0.0
O97 O 0.94372 0.6162 0.55898 0.0
O98 O 0.96413 0.61427 0.76803 0.0
O99 O 0.88228 0.48498 0.76691 0.0
O100 O 0.86988 0.49414 0.5555 0.0
C101 C 0.80741 0.56398 0.51488 0.0
O102 O 0.80502 0.51828 0.86746 0.0
O103 O 0.84843 0.60657 0.86014 0.0
In104 In 0.32046 0.86901 0.03413 0.0
O105 O 0.29406 0.80137 0.20083 0.0
O106 O 0.24915 0.84476 0.19345 0.0
C107 C 0.41832 0.87369 -0.02055 0.0
C108 C 0.25072 0.80374 0.84822 0.0
C109 C 0.35633 0.97761 -0.01848 0.0
O110 O 0.40461 0.87862 0.10024 0.0
O111 O 0.38305 0.86623 0.88883 0.0
O112 O 0.33482 0.94006 0.89231 0.0
O113 O 0.35716 0.96047 0.10137 0.0
C114 C 0.25315 0.805 0.24509 0.0
O115 O 0.24629 0.84358 0.89695 0.0
O116 O 0.28933 0.79692 0.89456 0.0
In117 In 0.45873 0.31679 0.36745 0.0
O118 O 0.49997 0.2904 0.53417 0.0
O119 O 0.41167 0.24548 0.52678 0.0
C120 C 0.55191 0.41466 0.31277 0.0
C121 C 0.45427 0.24706 0.18156 0.0
C122 C 0.38601 0.35267 0.31485 0.0
O123 O 0.53327 0.40094 0.43356 0.0
O124 O 0.5241 0.37939 0.22215 0.0
O125 O 0.40204 0.33116 0.22564 0.0
O126 O 0.40398 0.35349 0.43469 0.0
C127 C 0.45543 0.24949 0.57843 0.0
O128 O 0.40999 0.24263 0.23028 0.0
O129 O 0.4997 0.28567 0.22789 0.0
In130 In 0.14924 0.45507 0.70077 0.0
O131 O 0.21689 0.49632 0.86745 0.0
O132 O 0.17348 0.40802 0.86013 0.0
C133 C 0.14456 0.54825 0.6461 0.0
C134 C 0.2145 0.45061 0.51487 0.0
C135 C 0.04064 0.38236 0.64818 0.0
O136 O 0.13963 0.52961 0.76689 0.0
O137 O 0.15202 0.52045 0.55548 0.0
O138 O 0.07818 0.39839 0.55896 0.0
O139 O 0.05778 0.40032 0.76802 0.0
C140 C 0.21325 0.45178 0.91175 0.0
O141 O 0.17466 0.40634 0.56361 0.0
O142 O 0.22133 0.49604 0.56119 0.0
In143 In 0.70145 0.14558 0.03412 0.0
O144 O 0.72786 0.21323 0.20078 0.0
O145 O 0.77275 0.16983 0.19348 0.0
C146 C 0.60359 0.14089 -0.02056 0.0
C147 C 0.77118 0.21085 0.84821 0.0
C148 C 0.66557 0.03698 -0.01849 0.0
O149 O 0.6173 0.13596 0.10023 0.0
O150 O 0.63885 0.14836 0.88882 0.0
O151 O 0.68708 0.07453 0.8923 0.0
O152 O 0.66475 0.05412 0.10135 0.0
C153 C 0.76876 0.20959 0.24509 0.0
O154 O 0.77562 0.17101 0.89696 0.0
O155 O 0.73257 0.21766 0.89453 0.0
loop_
_geom_bond_atom_site_label_1
_geom_bond_atom_site_label_2
_geom_bond_distance
_geom_bond_site_symmetry_2
_ccdc_geom_bond_type
In0 O1 2.294 . S
In0 O2 2.326 . S
In0 O6 2.266 . S
In0 O7 2.326 . S
In0 O8 2.266 . S
In0 O9 2.326 . S
In0 O11 2.294 . S
In0 O12 2.326 . S
O1 In0 2.294 . S
O1 C10 1.240 . S
O2 In0 2.326 . S
O2 C10 1.252 . S
C3 O6 1.252 . S
C3 O7 1.260 . S
C4 O11 1.240 . S
C4 O12 1.252 . S
C5 O8 1.252 . S
C5 O9 1.260 . S
O6 In0 2.266 . S
O6 C3 1.252 . S
O7 In0 2.326 . S
O7 C3 1.260 . S
O8 In0 2.266 . S
O8 C5 1.252 . S
O9 In0 2.326 . S
O9 C5 1.260 . S
C10 O1 1.240 . S
C10 O2 1.252 . S
O11 In0 2.294 . S
O11 C4 1.240 . S
O12 In0 2.326 . S
O12 C4 1.252 . S
In13 O14 2.294 . S
In13 O15 2.326 . S
In13 O19 2.266 . S
In13 O20 2.326 . S
In13 O21 2.266 . S
In13 O22 2.326 . S
In13 O24 2.294 . S
In13 O25 2.326 . S
O14 In13 2.294 . S
O14 C23 1.240 . S
O15 In13 2.326 . S
O15 C23 1.252 . S
C16 O19 1.252 . S
C16 O20 1.260 . S
C17 O24 1.240 . S
C17 O25 1.252 . S
C18 O21 1.252 . S
C18 O22 1.260 . S
O19 In13 2.266 . S
O19 C16 1.252 . S
O20 In13 2.326 . S
O20 C16 1.260 . S
O21 In13 2.266 . S
O21 C18 1.252 . S
O22 In13 2.326 . S
O22 C18 1.260 . S
C23 O14 1.240 . S
C23 O15 1.252 . S
O24 In13 2.294 . S
O24 C17 1.240 . S
O25 In13 2.326 . S
O25 C17 1.252 . S
In26 O27 2.294 1_556 S
In26 O28 2.326 1_556 S
In26 O32 2.266 1_556 S
In26 O33 2.326 . S
In26 O34 2.266 . S
In26 O35 2.326 1_556 S
In26 O37 2.294 . S
In26 O38 2.326 . S
O27 In26 2.294 1_554 S
O27 C36 1.240 . S
O28 In26 2.326 1_554 S
O28 C36 1.252 . S
C29 O32 1.252 1_556 S
C29 O33 1.260 . S
C30 O37 1.240 . S
C30 O38 1.252 . S
C31 O34 1.252 1_554 S
C31 O35 1.260 . S
O32 In26 2.266 1_554 S
O32 C29 1.252 1_554 S
O33 In26 2.326 . S
O33 C29 1.260 . S
O34 In26 2.266 . S
O34 C31 1.252 1_556 S
O35 In26 2.326 1_554 S
O35 C31 1.260 . S
C36 O27 1.240 . S
C36 O28 1.252 . S
O37 In26 2.294 . S
O37 C30 1.240 . S
O38 In26 2.326 . S
O38 C30 1.252 . S
In39 O40 2.294 . S
In39 O41 2.326 . S
In39 O45 2.266 . S
In39 O46 2.326 . S
In39 O47 2.266 . S
In39 O48 2.326 . S
In39 O50 2.294 . S
In39 O51 2.326 . S
O40 In39 2.294 . S
O40 C49 1.240 . S
O41 In39 2.326 . S
O41 C49 1.252 . S
C42 O45 1.252 . S
C42 O46 1.260 . S
C43 O50 1.240 . S
C43 O51 1.252 . S
C44 O47 1.252 . S
C44 O48 1.260 . S
O45 In39 2.266 . S
O45 C42 1.252 . S
O46 In39 2.326 . S
O46 C42 1.260 . S
O47 In39 2.266 . S
O47 C44 1.252 . S
O48 In39 2.326 . S
O48 C44 1.260 . S
C49 O40 1.240 . S
C49 O41 1.252 . S
O50 In39 2.294 . S
O50 C43 1.240 . S
O51 In39 2.326 . S
O51 C43 1.252 . S
In52 O53 2.294 . S
In52 O54 2.326 . S
In52 O58 2.266 . S
In52 O59 2.326 . S
In52 O60 2.266 . S
In52 O61 2.326 . S
In52 O63 2.294 . S
In52 O64 2.326 . S
O53 In52 2.294 . S
O53 C62 1.240 . S
O54 In52 2.326 . S
O54 C62 1.252 . S
C55 O58 1.252 . S
C55 O59 1.260 . S
C56 O63 1.240 . S
C56 O64 1.252 . S
C57 O60 1.252 . S
C57 O61 1.260 . S
O58 In52 2.266 . S
O58 C55 1.252 . S
O59 In52 2.326 . S
O59 C55 1.260 . S
O60 In52 2.266 . S
O60 C57 1.252 . S
O61 In52 2.326 . S
O61 C57 1.260 . S
C62 O53 1.240 . S
C62 O54 1.252 . S
O63 In52 2.294 . S
O63 C56 1.240 . S
O64 In52 2.326 . S
O64 C56 1.252 . S
In65 O66 2.294 1_556 S
In65 O67 2.326 1_556 S
In65 O71 2.266 1_556 S
In65 O72 2.326 . S
In65 O73 2.266 . S
In65 O74 2.326 1_556 S
In65 O76 2.294 . S
In65 O77 2.326 . S
O66 In65 2.294 1_554 S
O66 C75 1.240 . S
O67 In65 2.326 1_554 S
O67 C75 1.252 . S
C68 O71 1.252 1_556 S
C68 O72 1.260 . S
C69 O76 1.240 . S
C69 O77 1.252 . S
C70 O73 1.252 1_554 S
C70 O74 1.260 . S
O71 In65 2.266 1_554 S
O71 C68 1.252 1_554 S
O72 In65 2.326 . S
O72 C68 1.260 . S
O73 In65 2.266 . S
O73 C70 1.252 1_556 S
O74 In65 2.326 1_554 S
O74 C70 1.260 . S
C75 O66 1.240 . S
C75 O67 1.252 . S
O76 In65 2.294 . S
O76 C69 1.240 . S
O77 In65 2.326 . S
O77 C69 1.252 . S
In78 O79 2.294 . S
In78 O80 2.326 . S
In78 O84 2.266 . S
In78 O85 2.326 . S
In78 O86 2.266 . S
In78 O87 2.326 . S
In78 O89 2.294 . S
In78 O90 2.326 . S
O79 In78 2.294 . S
O79 C88 1.240 . S
O80 In78 2.326 . S
O80 C88 1.252 . S
C81 O84 1.252 . S
C81 O85 1.260 . S
C82 O89 1.240 . S
C82 O90 1.252 . S
C83 O86 1.252 . S
C83 O87 1.260 . S
O84 In78 2.266 . S
O84 C81 1.252 . S
O85 In78 2.326 . S
O85 C81 1.260 . S
O86 In78 2.266 . S
O86 C83 1.252 . S
O87 In78 2.326 . S
O87 C83 1.260 . S
C88 O79 1.240 . S
C88 O80 1.252 . S
O89 In78 2.294 . S
O89 C82 1.240 . S
O90 In78 2.326 . S
O90 C82 1.252 . S
In91 O92 2.294 . S
In91 O93 2.326 . S
In91 O97 2.266 . S
In91 O98 2.326 . S
In91 O99 2.266 . S
In91 O100 2.326 . S
In91 O102 2.294 . S
In91 O103 2.326 . S
O92 In91 2.294 . S
O92 C101 1.240 . S
O93 In91 2.326 . S
O93 C101 1.252 . S
C94 O97 1.252 . S
C94 O98 1.260 . S
C95 O102 1.240 . S
C95 O103 1.252 . S
C96 O99 1.252 . S
C96 O100 1.260 . S
O97 In91 2.266 . S
O97 C94 1.252 . S
O98 In91 2.326 . S
O98 C94 1.260 . S
O99 In91 2.266 . S
O99 C96 1.252 . S
O100 In91 2.326 . S
O100 C96 1.260 . S
C101 O92 1.240 . S
C101 O93 1.252 . S
O102 In91 2.294 . S
O102 C95 1.240 . S
O103 In91 2.326 . S
O103 C95 1.252 . S
In104 O105 2.294 . S
In104 O106 2.326 . S
In104 O110 2.266 . S
In104 O111 2.326 1_554 S
In104 O112 2.266 1_554 S
In104 O113 2.326 . S
In104 O115 2.294 1_554 S
In104 O116 2.326 1_554 S
O105 In104 2.294 . S
O105 C114 1.240 . S
O106 In104 2.326 . S
O106 C114 1.252 . S
C107 O110 1.252 1_556 S
C107 O111 1.260 . S
C108 O115 1.240 . S
C108 O116 1.252 . S
C109 O112 1.252 1_554 S
C109 O113 1.260 . S
O110 In104 2.266 . S
O110 C107 1.252 1_554 S
O111 In104 2.326 1_556 S
O111 C107 1.260 . S
O112 In104 2.266 1_556 S
O112 C109 1.252 1_556 S
O113 In104 2.326 . S
O113 C109 1.260 . S
C114 O105 1.240 . S
C114 O106 1.252 . S
O115 In104 2.294 1_556 S
O115 C108 1.240 . S
O116 In104 2.326 1_556 S
O116 C108 1.252 . S
In117 O118 2.294 . S
In117 O119 2.326 . S
In117 O123 2.266 . S
In117 O124 2.326 . S
In117 O125 2.266 . S
In117 O126 2.326 . S
In117 O128 2.294 . S
In117 O129 2.326 . S
O118 In117 2.294 . S
O118 C127 1.240 . S
O119 In117 2.326 . S
O119 C127 1.252 . S
C120 O123 1.252 . S
C120 O124 1.260 . S
C121 O128 1.240 . S
C121 O129 1.252 . S
C122 O125 1.252 . S
C122 O126 1.260 . S
O123 In117 2.266 . S
O123 C120 1.252 . S
O124 In117 2.326 . S
O124 C120 1.260 . S
O125 In117 2.266 . S
O125 C122 1.252 . S
O126 In117 2.326 . S
O126 C122 1.260 . S
C127 O118 1.240 . S
C127 O119 1.252 . S
O128 In117 2.294 . S
O128 C121 1.240 . S
O129 In117 2.326 . S
O129 C121 1.252 . S
In130 O131 2.294 . S
In130 O132 2.326 . S
In130 O136 2.266 . S
In130 O137 2.326 . S
In130 O138 2.266 . S
In130 O139 2.326 . S
In130 O141 2.294 . S
In130 O142 2.326 . S
O131 In130 2.294 . S
O131 C140 1.240 . S
O132 In130 2.326 . S
O132 C140 1.252 . S
C133 O136 1.252 . S
C133 O137 1.260 . S
C134 O141 1.240 . S
C134 O142 1.252 . S
C135 O138 1.252 . S
C135 O139 1.260 . S
O136 In130 2.266 . S
O136 C133 1.252 . S
O137 In130 2.326 . S
O137 C133 1.260 . S
O138 In130 2.266 . S
O138 C135 1.252 . S
O139 In130 2.326 . S
O139 C135 1.260 . S
C140 O131 1.240 . S
C140 O132 1.252 . S
O141 In130 2.294 . S
O141 C134 1.240 . S
O142 In130 2.326 . S
O142 C134 1.252 . S
In143 O144 2.294 . S
In143 O145 2.326 . S
In143 O149 2.266 . S
In143 O150 2.326 1_554 S
In143 O151 2.266 1_554 S
In143 O152 2.326 . S
In143 O154 2.294 1_554 S
In143 O155 2.326 1_554 S
O144 In143 2.294 . S
O144 C153 1.240 . S
O145 In143 2.326 . S
O145 C153 1.252 . S
C146 O149 1.252 1_556 S
C146 O150 1.260 . S
C147 O154 1.240 . S
C147 O155 1.252 . S
C148 O151 1.252 1_554 S
C148 O152 1.260 . S
O149 In143 2.266 . S
O149 C146 1.252 1_554 S
O150 In143 2.326 1_556 S
O150 C146 1.260 . S
O151 In143 2.266 1_556 S
O151 C148 1.252 1_556 S
O152 In143 2.326 . S
O152 C148 1.260 . S
C153 O144 1.240 . S
C153 O145 1.252 . S
O154 In143 2.294 1_556 S
O154 C147 1.240 . S
O155 In143 2.326 1_556 S
O155 C147 1.252 . S
C3 C122 1.871 . S
C16 C135 1.871 1_655 S
C29 C148 1.871 1_566 S
C42 C81 1.871 . S
C94 C57 1.870 1_655 S
C109 C68 1.870 1_564 S
C140 C4 1.953 1_556 S
C17 C153 1.953 . S
C30 C82 1.953 . S
C43 C95 1.953 1_554 S
C62 C114 1.953 . S
C69 C127 1.953 . S
C134 C10 1.090 . S
C23 C147 1.090 . S
C36 C88 1.090 . S
C49 C101 1.090 . S
C56 C108 1.090 . S
C75 C121 1.090 . S
C5 C83 1.798 . S
C96 C18 1.798 . S
C31 C107 1.798 1_554 S
C44 C120 1.798 . S
C55 C133 1.798 . S
C146 C70 1.798 1_556 S
