# Generated by pormake.
# Topology qdl, (4)-cn, num edge types: 1
# Building blocks:
#     Node 0, Type 0, BuildingBlock: MUDLON_clean_sbu_0, # of connection points: 4
#     Node 1, Type 0, BuildingBlock: MUDLON_clean_sbu_0, # of connection points: 4
#     Node 2, Type 0, BuildingBlock: MUDLON_clean_sbu_0, # of connection points: 4
#     Node 3, Type 0, BuildingBlock: MUDLON_clean_sbu_0, # of connection points: 4
#     Node 4, Type 0, BuildingBlock: MUDLON_clean_sbu_0, # of connection points: 4
#     Node 5, Type 0, BuildingBlock: MUDLON_clean_sbu_0, # of connection points: 4
#     Edge 6, Type (0, 0), None
#     Edge 7, Type (0, 0), None
#     Edge 8, Type (0, 0), None
#     Edge 9, Type (0, 0), None
#     Edge 10, Type (0, 0), None
#     Edge 11, Type (0, 0), None
#     Edge 12, Type (0, 0), None
#     Edge 13, Type (0, 0), None
#     Edge 14, Type (0, 0), None
#     Edge 15, Type (0, 0), None
#     Edge 16, Type (0, 0), None
#     Edge 17, Type (0, 0), None
# Relax obj value: 0.001
# Max RMSD: 0.012
# Mean RMSD: 0.010
data_MOF--net-qdl--node1-MUDLON_clean_sbu_0--edge1-none
_symmetry_space_group_name_H-M    P1
_symmetry_Int_Tables_number       1
_symmetry_cell_setting            triclinic
loop_
_symmetry_equiv_pos_as_xyz
'x, y, z'
_cell_length_a     6.5977335
_cell_length_b     6.8586041
_cell_length_c     39.194798
_cell_angle_alpha  90.58581
_cell_angle_beta   90.231133
_cell_angle_gamma 119.28855
loop_
_atom_site_label
_atom_site_type_symbol
_atom_site_fract_x
_atom_site_fract_y
_atom_site_fract_z
_atom_type_partial_charge
Mg0 Mg 0.69211 0.99601 0.14123 0.0
C1 C 0.70939 0.60948 0.14359 0.0
O2 O 0.9073 0.78488 0.15212 0.0
C3 C 0.71287 0.40037 0.1393 0.0
O4 O 0.9188 0.41627 0.13817 0.0
C5 C 0.08666 0.20598 0.19237 0.0
O6 O 0.19767 0.26618 0.16356 0.0
O7 O 0.86754 0.08735 0.1915 0.0
O8 O 0.53594 0.636 0.13683 0.0
O9 O 0.8966 0.11097 0.09428 0.0
C10 C 1.05494 0.08813 0.07939 0.0
O11 O 0.14308 0.97288 0.09339 0.0
O12 O 0.53409 0.20712 0.13977 0.0
Mg13 Mg 0.07862 0.92594 0.46976 0.0
C14 C 0.52633 0.6025 0.4715 0.0
O15 O 0.55342 0.45274 0.48846 0.0
C16 C 0.30151 0.59845 0.47137 0.0
O17 O 0.12322 0.44249 0.48761 0.0
C18 C 1.04634 0.85505 0.54164 0.0
O19 O 0.95215 0.66052 0.52593 0.0
O20 O 0.13165 1.03041 0.52371 0.0
O21 O 0.702 0.77807 0.46082 0.0
O22 O 0.2329 0.18787 0.43208 0.0
C23 C 0.13212 0.15097 0.40315 0.0
O24 O 0.93035 0.97017 0.39872 0.0
O25 O 0.30039 0.77389 0.46155 0.0
Mg26 Mg 0.31874 0.04838 0.82579 0.0
C27 C 1.06366 0.54958 0.80436 0.0
O28 O 0.15445 0.63472 0.77474 0.0
C29 C 0.84696 0.32958 0.80476 0.0
O30 O 0.77841 0.20804 0.77663 0.0
C31 C 0.20699 0.07626 0.89722 0.0
O32 O 0.30681 0.95112 0.89811 0.0
O33 O 0.18375 0.1505 0.86874 0.0
O34 O 0.12976 0.67714 0.83077 0.0
O35 O 0.16516 0.07754 0.7782 0.0
C36 C 0.25314 0.19659 0.752 0.0
O37 O 0.47166 0.35419 0.75229 0.0
O38 O 0.70207 0.28468 0.82885 0.0
Mg39 Mg 1.07476 0.92459 0.65064 0.0
C40 C 0.29321 0.58912 0.64825 0.0
O41 O 0.11027 0.42592 0.63307 0.0
C42 C 0.51859 0.59383 0.64826 0.0
O43 O 0.54245 0.43536 0.63293 0.0
C44 C 1.04463 0.85622 0.57907 0.0
O45 O 0.94692 0.6625 0.5943 0.0
O46 O 0.13153 1.0329 0.59745 0.0
O47 O 0.2945 0.76853 0.65708 0.0
O48 O 0.22991 0.17445 0.69134 0.0
C49 C 0.12485 0.11324 0.71962 0.0
O50 O 0.9204 0.93212 0.72014 0.0
O51 O 0.69635 0.77546 0.65759 0.0
Mg52 Mg 0.91976 0.32507 0.97841 0.0
C53 C 0.32647 0.70207 0.98226 0.0
O54 O 0.34708 0.52145 0.98382 0.0
C55 C 0.54071 0.91443 0.98181 0.0
O56 O 0.7339 0.90601 0.98503 0.0
C57 C 0.12552 0.12733 0.92905 0.0
O58 O 0.15011 0.04574 0.95763 0.0
O59 O 1.03294 0.25069 0.92972 0.0
O60 O 0.12456 0.68166 0.98066 0.0
O61 O 0.98443 0.23249 1.02939 0.0
C62 C 0.11095 0.16543 1.04411 0.0
O63 O 0.26725 0.14037 1.02706 0.0
O64 O 0.55179 0.10261 0.97709 0.0
Mg65 Mg 0.36035 0.33776 0.29603 0.0
C66 C 0.62994 0.86001 0.31162 0.0
O67 O 0.72458 0.80854 0.33689 0.0
C68 C 0.62489 0.07431 0.3131 0.0
O69 O 0.67147 0.1843 0.34226 0.0
C70 C 0.21801 0.2726 0.22461 0.0
O71 O 0.44561 0.39306 0.22389 0.0
O72 O 0.11766 0.21574 0.25328 0.0
O73 O 0.49862 0.70648 0.29061 0.0
O74 O 0.16924 0.22081 0.34373 0.0
C75 C 0.25827 0.28294 0.37345 0.0
O76 O 0.47598 0.43933 0.37691 0.0
O77 O 0.52929 0.12622 0.28915 0.0
loop_
_geom_bond_atom_site_label_1
_geom_bond_atom_site_label_2
_geom_bond_distance
_geom_bond_site_symmetry_2
_ccdc_geom_bond_type
Mg0 O7 2.141 . S
Mg0 O8 2.048 . S
Mg0 O9 2.048 . S
Mg0 O12 2.141 1_565 S
C1 O2 1.313 . S
C1 O8 1.195 1_455 S
O2 C1 1.313 . S
C3 O4 1.245 . S
C3 O12 1.289 1_455 S
O4 C3 1.245 . S
C5 O6 1.245 . S
C5 O7 1.289 1_445 S
O6 C5 1.245 . S
O7 Mg0 2.141 . S
O7 C5 1.289 1_665 S
O8 Mg0 2.048 . S
O8 C1 1.195 1_655 S
O9 Mg0 2.048 . S
O9 C10 1.195 1_665 S
C10 O9 1.195 1_445 S
C10 O11 1.313 . S
O11 C10 1.313 . S
O12 Mg0 2.141 1_545 S
O12 C3 1.289 1_655 S
Mg13 O20 2.141 . S
Mg13 O21 2.048 1_455 S
Mg13 O22 2.048 . S
Mg13 O25 2.141 . S
C14 O15 1.313 1_545 S
C14 O21 1.195 . S
O15 C14 1.313 1_565 S
C16 O17 1.245 . S
C16 O25 1.289 1_565 S
O17 C16 1.245 . S
C18 O19 1.245 1_455 S
C18 O20 1.289 1_565 S
O19 C18 1.245 1_655 S
O20 Mg13 2.141 . S
O20 C18 1.289 1_545 S
O21 Mg13 2.048 1_655 S
O21 C14 1.195 . S
O22 Mg13 2.048 . S
O22 C23 1.195 . S
C23 O22 1.195 . S
C23 O24 1.313 1_445 S
O24 C23 1.313 1_665 S
O25 Mg13 2.141 . S
O25 C16 1.289 1_545 S
Mg26 O33 2.141 . S
Mg26 O34 2.048 1_545 S
Mg26 O35 2.048 . S
Mg26 O38 2.141 1_655 S
C27 O28 1.313 . S
C27 O34 1.195 . S
O28 C27 1.313 . S
C29 O30 1.245 . S
C29 O38 1.289 . S
O30 C29 1.245 . S
C31 O32 1.245 1_545 S
C31 O33 1.289 1_455 S
O32 C31 1.245 1_565 S
O33 Mg26 2.141 . S
O33 C31 1.289 1_655 S
O34 Mg26 2.048 1_565 S
O34 C27 1.195 . S
O35 Mg26 2.048 . S
O35 C36 1.195 1_655 S
C36 O35 1.195 1_455 S
C36 O37 1.313 1_545 S
O37 C36 1.313 1_565 S
O38 Mg26 2.141 1_455 S
O38 C29 1.289 . S
Mg39 O46 2.141 . S
Mg39 O47 2.048 . S
Mg39 O48 2.048 . S
Mg39 O51 2.141 1_455 S
C40 O41 1.313 . S
C40 O47 1.195 1_565 S
O41 C40 1.313 . S
C42 O43 1.245 . S
C42 O51 1.289 1_565 S
O43 C42 1.245 . S
C44 O45 1.245 1_455 S
C44 O46 1.289 1_565 S
O45 C44 1.245 1_655 S
O46 Mg39 2.141 . S
O46 C44 1.289 1_545 S
O47 Mg39 2.048 . S
O47 C40 1.195 1_545 S
O48 Mg39 2.048 . S
O48 C49 1.195 1_545 S
C49 O48 1.195 1_565 S
C49 O50 1.313 1_455 S
O50 C49 1.313 1_655 S
O51 Mg39 2.141 1_655 S
O51 C42 1.289 1_545 S
Mg52 O59 2.141 . S
Mg52 O60 2.048 1_655 S
Mg52 O61 2.048 . S
Mg52 O64 2.141 1_545 S
C53 O54 1.313 . S
C53 O60 1.195 . S
O54 C53 1.313 . S
C55 O56 1.245 . S
C55 O64 1.289 . S
O56 C55 1.245 . S
C57 O58 1.245 1_545 S
C57 O59 1.289 1_455 S
O58 C57 1.245 1_565 S
O59 Mg52 2.141 . S
O59 C57 1.289 1_655 S
O60 Mg52 2.048 1_455 S
O60 C53 1.195 . S
O61 Mg52 2.048 . S
O61 C62 1.195 1_655 S
C62 O61 1.195 1_455 S
C62 O63 1.313 1_545 S
O63 C62 1.313 1_565 S
O64 Mg52 2.141 1_565 S
O64 C55 1.289 . S
Mg65 O72 2.141 . S
Mg65 O73 2.048 1_565 S
Mg65 O74 2.048 . S
Mg65 O77 2.141 . S
C66 O67 1.313 . S
C66 O73 1.195 1_455 S
O67 C66 1.313 . S
C68 O69 1.245 . S
C68 O77 1.289 1_455 S
O69 C68 1.245 . S
C70 O71 1.245 . S
C70 O72 1.289 1_445 S
O71 C70 1.245 . S
O72 Mg65 2.141 . S
O72 C70 1.289 1_665 S
O73 Mg65 2.048 1_545 S
O73 C66 1.195 1_655 S
O74 Mg65 2.048 . S
O74 C75 1.195 1_665 S
C75 O74 1.195 1_445 S
C75 O76 1.313 . S
O76 C75 1.313 . S
O77 Mg65 2.141 . S
O77 C68 1.289 1_655 S
C1 C3 1.468 . S
C16 C14 1.468 1_565 S
C27 C29 1.468 . S
C40 C42 1.468 . S
C53 C55 1.468 . S
C66 C68 1.468 . S
C70 C5 1.458 . S
C44 C18 1.460 . S
C31 C57 1.462 . S
C10 C62 1.472 1_554 S
C75 C23 1.494 . S
C49 C36 1.478 1_565 S
