# Generated by pormake.
# Topology pcu, (6)-cn, num edge types: 1
# Building blocks:
#     Node 0, Type 0, BuildingBlock: PAMTOO_clean_sbu_0, # of connection points: 6
#     Edge 1, Type (0, 0), BuildingBlock: FUNLAD_clean_linker_1, # of connection points: 2
#     Edge 2, Type (0, 0), BuildingBlock: FUNLAD_clean_linker_1, # of connection points: 2
#     Edge 3, Type (0, 0), BuildingBlock: FUNLAD_clean_linker_1, # of connection points: 2
# Relax obj value: 0.000
# Max RMSD: 0.000
# Mean RMSD: 0.000
data_MOF--net-pcu--node1-PAMTOO_clean_sbu_0--edge1-FUNLAD_clean_linker_1
_symmetry_space_group_name_H-M    P1
_symmetry_Int_Tables_number       1
_symmetry_cell_setting            triclinic
loop_
_symmetry_equiv_pos_as_xyz
'x, y, z'
_cell_length_a     25.713876
_cell_length_b     15.752658
_cell_length_c     15.744922
_cell_angle_alpha  81.705111
_cell_angle_beta   98.832896
_cell_angle_gamma 115.50595
loop_
_atom_site_label
_atom_site_type_symbol
_atom_site_fract_x
_atom_site_fract_y
_atom_site_fract_z
_atom_type_partial_charge
Dy0 Dy 0.10842 0.0401 0.01868 0.0
Dy1 Dy 0.96523 0.92737 0.97222 0.0
C2 C 0.05286 -0.00602 0.82831 0.0
O3 O 0.07563 0.15136 0.97342 0.0
O4 O 0.9806 0.07014 0.00279 0.0
O5 O 0.19198 0.14138 0.9811 0.0
O6 O 0.18493 0.06621 0.1084 0.0
O7 O 0.98237 0.91367 0.11604 0.0
O8 O 0.06945 0.04297 0.13444 0.0
O9 O 1.0013 0.82423 0.96025 0.0
O10 O 0.08565 0.88621 0.05017 0.0
O11 O 0.88167 0.81566 -0.00054 0.0
O12 O 0.88908 0.91369 0.88573 0.0
C13 C 1.02557 0.14916 0.98578 0.0
O14 O 0.09435 -0.00767 0.88728 0.0
O15 O 1.00466 -0.0083 0.84871 0.0
C16 C 0.27029 0.10564 0.04468 0.0
C17 C 0.36829 0.07125 0.03536 0.0
C18 C 0.31197 0.00291 0.01277 0.0
C19 C 0.26344 0.02023 0.01725 0.0
C20 C 0.32602 0.17377 0.06685 0.0
C21 C 0.3745 0.15671 0.06232 0.0
C22 C 0.21983 0.12361 0.05291 0.0
C23 C 1.02286 0.97575 0.16482 0.0
C24 C 0.04602 0.81667 0.00789 0.0
C25 C 0.80251 0.85554 0.95106 0.0
C26 C 0.70192 0.87861 0.96976 0.0
C27 C 0.7574 0.95218 0.98571 0.0
C28 C 0.80719 0.94046 0.9767 0.0
C29 C 0.74764 0.78172 0.93665 0.0
C30 C 0.69787 0.79317 0.94587 0.0
C31 C 0.85401 0.84495 0.93406 0.0
H32 H 0.30466 0.9354 -0.00688 0.0
H33 H 0.22053 0.96657 0.00032 0.0
H34 H 0.33206 0.23998 0.08847 0.0
H35 H 0.4171 0.21051 0.08049 0.0
H36 H 0.76297 0.01982 0.00275 0.0
H37 H 0.8493 -0.0015 0.98775 0.0
H38 H 0.7432 0.71576 0.91657 0.0
H39 H 0.65593 0.73535 0.93294 0.0
H40 H 0.97368 0.91946 0.27868 0.0
C41 C 1.01496 0.96946 0.25665 0.0
H42 H 0.09859 0.07282 0.29199 0.0
H43 H 0.04045 0.17344 0.6274 0.0
H44 H 0.06221 0.31947 0.53532 0.0
H45 H 0.07752 0.32815 0.38294 0.0
H46 H 0.07056 0.19076 0.32123 0.0
C47 C 0.05745 0.02156 0.31349 0.0
C48 C 0.04874 0.01572 0.40586 0.0
C49 C 0.05192 0.09645 0.44027 0.0
C50 C 0.0427 0.09138 0.52798 0.0
C51 C 0.04667 0.17323 0.56101 0.0
C52 C 0.05916 0.25754 0.5089 0.0
C53 C 0.0677 0.26238 0.42305 0.0
C54 C 0.06386 0.18297 0.38861 0.0
H55 H 0.10052 -0.00337 0.72205 0.0
C56 C 0.06089 -0.0024 0.73701 0.0
H57 H 0.98181 0.00527 0.68599 0.0
H58 H 0.04865 0.8519 0.3649 0.0
H59 H 1.02535 0.70559 0.45657 0.0
H60 H 1.00172 0.69356 0.60514 0.0
H61 H 1.00298 0.82865 0.66364 0.0
C62 C 1.02087 0.00123 0.67263 0.0
C63 C 1.03028 0.00571 0.58102 0.0
C64 C 1.02718 0.92497 0.54686 0.0
C65 C 0.03782 0.93057 0.45976 0.0
C66 C 0.03813 0.85053 0.4291 0.0
C67 C 1.02533 0.76621 0.48136 0.0
C68 C 1.01233 0.75956 0.56513 0.0
C69 C 1.01335 0.83781 0.59796 0.0
H70 H 0.46209 0.10758 0.0639 0.0
C71 C 0.42164 0.05614 0.03471 0.0
H72 H 0.38542 0.93368 0.96593 0.0
H73 H 0.62549 0.00674 0.84294 0.0
H74 H 0.57488 0.0406 0.70874 0.0
H75 H 0.47996 0.04498 0.70666 0.0
H76 H 0.43524 0.0161 0.83898 0.0
C77 C 0.42349 0.98421 0.00021 0.0
C78 C 0.47932 0.97613 0.00158 0.0
C79 C 0.50429 -0.00892 0.92342 0.0
C80 C 0.55866 -0.01288 0.92446 0.0
C81 C 0.58361 0.00623 0.84578 0.0
C82 C 0.55519 0.02643 0.76824 0.0
C83 C 0.50179 0.02903 0.76709 0.0
C84 C 0.47655 0.01207 0.84356 0.0
H85 H 0.6071 0.83451 0.94602 0.0
C86 C 0.64723 0.8889 0.97268 0.0
H87 H 0.68189 0.01429 0.03709 0.0
H88 H 0.44084 0.93409 0.16197 0.0
H89 H 0.49148 0.90024 0.29619 0.0
H90 H 0.58668 0.89679 0.29834 0.0
H91 H 0.63159 0.92643 0.16603 0.0
C92 C 0.64407 0.96087 0.00515 0.0
C93 C 0.58747 0.96638 0.00358 0.0
C94 C 0.56239 0.95101 0.08166 0.0
C95 C 0.50796 0.95476 0.08061 0.0
C96 C 0.48286 0.93509 0.15921 0.0
C97 C 0.51128 0.91481 0.23673 0.0
C98 C 0.56483 0.91273 0.23792 0.0
C99 C 0.59018 0.93011 0.1615 0.0
H100 H 0.09016 0.72351 0.05517 0.0
C101 C 0.05383 0.72874 0.01286 0.0
H102 H 0.98385 0.66224 0.92034 0.0
H103 H 0.08728 0.39553 0.82205 0.0
H104 H 0.0989 0.50455 0.69336 0.0
H105 H 0.08011 0.64601 0.68952 0.0
H106 H 0.04863 0.67863 0.81384 0.0
C107 C 1.01886 0.65678 0.9658 0.0
C108 C 1.03018 0.57138 0.96882 0.0
C109 C 0.0488 0.55372 0.89566 0.0
C110 C 0.0606 0.47301 0.89836 0.0
C111 C 0.07833 0.45631 0.82392 0.0
C112 C 0.08512 0.51827 0.74954 0.0
C113 C 0.07442 0.59783 0.74732 0.0
C114 C 0.05639 0.61568 0.81921 0.0
H115 H 0.97601 0.23253 0.98921 0.0
C116 C 1.01879 0.23771 0.98253 0.0
H117 H 0.10598 0.3303 0.9664 0.0
H118 H 0.98951 0.57912 0.1174 0.0
H119 H 0.98169 0.47385 0.24801 0.0
H120 H 1.00939 0.34096 0.25647 0.0
H121 H 0.0448 0.31232 0.13442 0.0
C122 C 0.06313 0.32323 0.97501 0.0
C123 C 0.05394 0.41039 0.97431 0.0
C124 C 1.03666 0.42936 0.04827 0.0
C125 C 1.02327 0.50854 0.04473 0.0
C126 C 1.00253 0.52232 0.1176 0.0
C127 C 0.99748 0.46207 0.19289 0.0
C128 C 1.01298 0.38716 0.19763 0.0
C129 C 1.03264 0.37093 0.12661 0.0
loop_
_geom_bond_atom_site_label_1
_geom_bond_atom_site_label_2
_geom_bond_distance
_geom_bond_site_symmetry_2
_ccdc_geom_bond_type
Dy0 O3 2.307 . S
Dy0 O5 2.395 1_554 S
Dy0 O6 2.379 . S
Dy0 O8 2.339 . S
Dy0 O10 2.298 1_545 S
Dy0 O14 2.275 1_554 S
Dy0 C22 2.738 . S
Dy1 O4 2.298 1_565 S
Dy1 O7 2.275 1_556 S
Dy1 O9 2.307 . S
Dy1 O11 2.395 1_556 S
Dy1 O12 2.379 . S
Dy1 O15 2.339 . S
Dy1 C31 2.738 . S
C2 O14 1.254 1_665 S
C2 O15 1.257 . S
O3 Dy0 2.307 . S
O3 C13 1.275 1_554 S
O4 Dy1 2.298 1_545 S
O4 C13 1.232 1_655 S
O5 Dy0 2.395 1_556 S
O5 C22 1.255 1_556 S
O6 Dy0 2.379 . S
O6 C22 1.249 . S
O7 Dy1 2.275 1_554 S
O7 C23 1.254 1_665 S
O8 Dy0 2.339 . S
O8 C23 1.257 . S
O9 Dy1 2.307 . S
O9 C24 1.269 1_556 S
O10 Dy0 2.298 1_565 S
O10 C24 1.234 1_455 S
O11 Dy1 2.395 1_554 S
O11 C31 1.255 1_554 S
O12 Dy1 2.379 . S
O12 C31 1.249 . S
C13 O3 1.275 1_556 S
C13 O4 1.232 1_455 S
O14 Dy0 2.275 1_556 S
O14 C2 1.254 1_445 S
O15 Dy1 2.339 . S
O15 C2 1.257 . S
C16 C19 1.344 1_544 S
C16 C20 1.328 . S
C16 C22 1.516 . S
C17 C18 1.304 . S
C17 C21 1.323 1_566 S
C18 C17 1.304 . S
C18 C19 1.371 . S
C18 H32 0.930 . S
C19 C16 1.344 1_566 S
C19 C18 1.371 . S
C19 H33 0.931 . S
C20 C16 1.328 . S
C20 C21 1.433 . S
C20 H34 0.931 . S
C21 C17 1.323 1_544 S
C21 C20 1.433 . S
C21 H35 0.933 . S
C22 Dy0 2.738 . S
C22 O5 1.255 1_554 S
C22 O6 1.249 . S
C22 C16 1.516 . S
C23 O7 1.254 1_445 S
C23 O8 1.257 . S
C24 O9 1.269 1_554 S
C24 O10 1.234 1_655 S
C25 C28 1.344 1_566 S
C25 C29 1.328 . S
C25 C31 1.516 . S
C26 C27 1.304 . S
C26 C30 1.323 1_544 S
C27 C26 1.304 . S
C27 C28 1.371 . S
C27 H36 0.930 . S
C28 C25 1.344 1_544 S
C28 C27 1.371 . S
C28 H37 0.931 . S
C29 C25 1.328 . S
C29 C30 1.433 . S
C29 H38 0.931 . S
C30 C26 1.323 1_566 S
C30 C29 1.433 . S
C30 H39 0.933 . S
C31 Dy1 2.738 . S
C31 O11 1.255 1_556 S
C31 O12 1.249 . S
C31 C25 1.516 . S
H32 C18 0.930 . S
H33 C19 0.931 . S
H34 C20 0.931 . S
H35 C21 0.933 . S
H36 C27 0.930 . S
H37 C28 0.931 . S
H38 C29 0.931 . S
H39 C30 0.933 . S
H40 C41 0.951 . S
C41 H40 0.951 . S
C41 C47 1.265 1_665 S
H42 C47 0.950 . S
H43 C51 0.949 . S
H44 C52 0.950 . S
H45 C53 0.951 . S
H46 C54 0.951 . S
C47 C41 1.265 1_445 S
C47 H42 0.950 . S
C47 C48 1.478 . S
C48 C47 1.478 . S
C48 C49 1.397 . S
C48 C65 1.394 1_445 S
C49 C48 1.397 . S
C49 C50 1.438 . S
C49 C54 1.429 . S
C50 C49 1.438 . S
C50 C51 1.428 . S
C50 C63 1.394 1_445 S
C51 H43 0.949 . S
C51 C50 1.428 . S
C51 C52 1.345 . S
C52 H44 0.950 . S
C52 C51 1.345 . S
C52 C53 1.424 . S
C53 H45 0.951 . S
C53 C52 1.424 . S
C53 C54 1.347 . S
C54 H46 0.951 . S
C54 C49 1.429 . S
C54 C53 1.347 . S
H55 C56 0.951 . S
C56 H55 0.951 . S
C56 C62 1.265 1_445 S
H57 C62 0.950 . S
H58 C66 0.949 . S
H59 C67 0.950 . S
H60 C68 0.951 . S
H61 C69 0.951 . S
C62 C56 1.265 1_665 S
C62 H57 0.950 . S
C62 C63 1.478 . S
C63 C50 1.394 1_665 S
C63 C62 1.478 . S
C63 C64 1.397 . S
C64 C63 1.397 . S
C64 C65 1.438 . S
C64 C69 1.429 . S
C65 C48 1.394 1_665 S
C65 C64 1.438 . S
C65 C66 1.428 . S
C66 H58 0.949 . S
C66 C65 1.428 . S
C66 C67 1.345 . S
C67 H59 0.950 . S
C67 C66 1.345 . S
C67 C68 1.424 . S
C68 H60 0.951 . S
C68 C67 1.424 . S
C68 C69 1.347 . S
C69 H61 0.951 . S
C69 C64 1.429 . S
C69 C68 1.347 . S
H70 C71 0.951 . S
C71 H70 0.951 . S
C71 C77 1.265 1_544 S
H72 C77 0.950 . S
H73 C81 0.949 1_545 S
H74 C82 0.950 . S
H75 C83 0.951 . S
H76 C84 0.951 . S
C77 C71 1.265 1_566 S
C77 H72 0.950 . S
C77 C78 1.478 . S
C78 C77 1.478 . S
C78 C79 1.397 . S
C78 C95 1.394 1_566 S
C79 C78 1.397 . S
C79 C80 1.438 . S
C79 C84 1.429 . S
C80 C79 1.438 . S
C80 C81 1.428 . S
C80 C93 1.394 1_566 S
C81 H73 0.949 1_565 S
C81 C80 1.428 . S
C81 C82 1.345 . S
C82 H74 0.950 . S
C82 C81 1.345 . S
C82 C83 1.424 . S
C83 H75 0.951 . S
C83 C82 1.424 . S
C83 C84 1.347 . S
C84 H76 0.951 . S
C84 C79 1.429 . S
C84 C83 1.347 . S
H85 C86 0.951 . S
C86 H85 0.951 . S
C86 C92 1.265 1_566 S
H87 C92 0.950 . S
H88 C96 0.953 1_565 S
H89 C97 0.950 . S
H90 C98 0.951 . S
H91 C99 0.951 . S
C92 C86 1.265 1_544 S
C92 H87 0.950 . S
C92 C93 1.478 . S
C93 C80 1.394 1_544 S
C93 C92 1.478 . S
C93 C94 1.397 . S
C94 C93 1.397 . S
C94 C95 1.438 . S
C94 C99 1.429 . S
C95 C78 1.394 1_544 S
C95 C94 1.438 . S
C95 C96 1.428 . S
C96 H88 0.953 1_545 S
C96 C95 1.428 . S
C96 C97 1.345 . S
C97 H89 0.950 . S
C97 C96 1.345 . S
C97 C98 1.424 . S
C98 H90 0.951 . S
C98 C97 1.424 . S
C98 C99 1.347 . S
C99 H91 0.951 . S
C99 C94 1.429 . S
C99 C98 1.347 . S
H100 C101 0.950 . S
C101 H100 0.950 . S
C101 C107 1.265 1_454 S
H102 C107 0.950 . S
H103 C111 0.949 . S
H104 C112 0.950 . S
H105 C113 0.951 . S
H106 C114 0.951 . S
C107 C101 1.265 1_656 S
C107 H102 0.950 . S
C107 C108 1.478 . S
C108 C107 1.478 . S
C108 C109 1.397 . S
C108 C125 1.394 1_656 S
C109 C108 1.397 . S
C109 C110 1.438 . S
C109 C114 1.429 . S
C110 C109 1.438 . S
C110 C111 1.428 . S
C110 C123 1.394 1_656 S
C111 H103 0.949 . S
C111 C110 1.428 . S
C111 C112 1.345 . S
C112 H104 0.950 . S
C112 C111 1.345 . S
C112 C113 1.424 . S
C113 H105 0.951 . S
C113 C112 1.424 . S
C113 C114 1.347 . S
C114 H106 0.951 . S
C114 C109 1.429 . S
C114 C113 1.347 . S
H115 C116 0.951 . S
C116 H115 0.951 . S
C116 C122 1.265 1_656 S
H117 C122 0.950 . S
H118 C126 0.949 . S
H119 C127 0.950 . S
H120 C128 0.951 . S
H121 C129 0.951 . S
C122 C116 1.265 1_454 S
C122 H117 0.950 . S
C122 C123 1.478 . S
C123 C110 1.394 1_454 S
C123 C122 1.478 . S
C123 C124 1.397 . S
C124 C123 1.397 . S
C124 C125 1.438 . S
C124 C129 1.429 . S
C125 C108 1.394 1_454 S
C125 C124 1.438 . S
C125 C126 1.428 . S
C126 H118 0.949 . S
C126 C125 1.428 . S
C126 C127 1.345 . S
C127 H119 0.950 . S
C127 C126 1.345 . S
C127 C128 1.424 . S
C128 H120 0.951 . S
C128 C127 1.424 . S
C128 C129 1.347 . S
C129 H121 0.951 . S
C129 C124 1.429 . S
C129 C128 1.347 . S
C41 C23 1.494 1_665 S
C56 C2 1.494 1_445 S
C71 C17 1.493 1_544 S
C86 C26 1.493 1_566 S
C101 C24 1.488 1_455 S
C116 C13 1.484 1_655 S
