# Generated by pormake.
# Topology hex, (8)-cn, num edge types: 1
# Building blocks:
#     Node 0, Type 0, BuildingBlock: HISSIN_clean_sbu_1, # of connection points: 8
#     Edge 1, Type (0, 0), BuildingBlock: EYOCIG_clean_linker_4, # of connection points: 2
#     Edge 2, Type (0, 0), BuildingBlock: EYOCIG_clean_linker_4, # of connection points: 2
#     Edge 3, Type (0, 0), BuildingBlock: EYOCIG_clean_linker_4, # of connection points: 2
#     Edge 4, Type (0, 0), BuildingBlock: EYOCIG_clean_linker_4, # of connection points: 2
# Relax obj value: 0.034
# Max RMSD: 0.094
# Mean RMSD: 0.094
data_MOF--net-hex--node1-HISSIN_clean_sbu_1--edge1-EYOCIG_clean_linker_4
_symmetry_space_group_name_H-M    P1
_symmetry_Int_Tables_number       1
_symmetry_cell_setting            triclinic
loop_
_symmetry_equiv_pos_as_xyz
'x, y, z'
_cell_length_a     19.063995
_cell_length_b     15.061875
_cell_length_c     11.688532
_cell_angle_alpha  111.76695
_cell_angle_beta   102.56399
_cell_angle_gamma 109.63394
loop_
_atom_site_label
_atom_site_type_symbol
_atom_site_fract_x
_atom_site_fract_y
_atom_site_fract_z
_atom_type_partial_charge
Eu0 Eu 0.09933 0.13826 0.06453 0.0
C1 C 1.00771 0.96648 0.7588 0.0
O2 O 0.10427 0.28986 0.06541 0.0
C3 C 0.73676 0.82174 0.93095 0.0
C4 C 0.59854 0.77756 -0.00829 0.0
C5 C 0.70329 0.73065 0.94761 0.0
C6 C 0.63373 0.70866 0.97664 0.0
C7 C 0.70039 0.89042 0.94599 0.0
C8 C 0.63103 0.86759 0.97537 0.0
Eu9 Eu 0.94527 0.85089 0.919 0.0
O10 O 0.05449 0.11231 0.21883 0.0
O11 O 0.94251 0.69894 0.91358 0.0
O12 O 0.99334 0.87839 0.76835 0.0
O13 O 0.0267 0.93384 0.13677 0.0
C14 C 1.00421 0.67985 0.90761 0.0
O15 O 0.063 0.74391 0.89156 0.0
O16 O 0.87014 0.93155 0.95777 0.0
C17 C 0.80291 0.84016 0.88233 0.0
C18 C 0.0418 0.30844 0.06501 0.0
O19 O 0.98092 0.24396 0.07684 0.0
O20 O 0.8148 0.75694 0.82063 0.0
O21 O 1.0102 0.05088 0.85174 0.0
C22 C 0.23878 0.14112 0.08997 0.0
O23 O 0.16983 0.0527 0.0112 0.0
C24 C 0.30508 0.16021 0.0418 0.0
C25 C 0.44507 0.20725 0.98614 0.0
C26 C 0.33896 0.2522 0.02707 0.0
C27 C 0.40942 0.27561 0.00057 0.0
C28 C 0.34176 0.0919 0.02703 0.0
C29 C 0.41205 0.11622 0.00033 0.0
C30 C 0.03804 0.02495 0.23126 0.0
O31 O 0.23013 0.2254 0.15952 0.0
H32 H 0.54376 0.75887 0.01159 0.0
H33 H 0.72911 0.67522 0.93316 0.0
H34 H 0.72413 0.95894 0.92964 0.0
H35 H 0.50053 0.22704 0.96828 0.0
H36 H 0.3128 0.30726 0.04136 0.0
H37 H 0.31763 0.02267 0.04192 0.0
C38 C 0.02893 0.45629 0.00394 0.0
C39 C 0.03475 0.3888 0.03181 0.0
C40 C 1.02044 0.53275 0.96701 0.0
C41 C 1.01346 0.60005 0.93981 0.0
C42 C 0.54464 0.97275 0.98569 0.0
C43 C 0.58797 0.93006 0.97937 0.0
C44 C 0.49893 0.01174 -0.00896 0.0
C45 C 0.45535 0.05407 -0.00328 0.0
C46 C 0.49427 0.44959 -0.00721 0.0
C47 C 0.45074 0.37338 -0.00202 0.0
C48 C 0.54949 0.53592 0.98734 0.0
C49 C 0.59265 0.61156 0.98076 0.0
C50 C 0.02377 0.98864 0.55149 0.0
C51 C 1.01571 0.9709 0.64155 0.0
C52 C 0.03246 0.01402 0.44886 0.0
C53 C 0.03652 0.02791 0.35481 0.0
loop_
_geom_bond_atom_site_label_1
_geom_bond_atom_site_label_2
_geom_bond_distance
_geom_bond_site_symmetry_2
_ccdc_geom_bond_type
Eu0 O2 2.323 . S
Eu0 O10 2.328 . S
Eu0 O21 2.316 1_554 S
Eu0 C22 2.837 . S
Eu0 O23 2.488 . S
Eu0 O31 2.461 . S
C1 O12 1.251 . S
C1 O21 1.237 1_665 S
O2 Eu0 2.323 . S
O2 C18 1.279 1_455 S
C3 C5 1.383 . S
C3 C7 1.388 . S
C3 C17 1.491 . S
C4 C6 1.403 . S
C4 C8 1.385 1_554 S
C4 H32 0.931 . S
C5 C3 1.383 . S
C5 C6 1.393 1_556 S
C5 H33 0.930 . S
C6 C4 1.403 . S
C6 C5 1.393 1_554 S
C7 C3 1.388 . S
C7 C8 1.394 . S
C7 H34 0.930 . S
C8 C4 1.385 1_556 S
C8 C7 1.394 . S
Eu9 O11 2.323 . S
Eu9 O12 2.328 . S
Eu9 O13 2.316 1_556 S
Eu9 O16 2.488 . S
Eu9 C17 2.837 . S
Eu9 O20 2.461 . S
O10 Eu0 2.328 . S
O10 C30 1.251 . S
O11 Eu9 2.323 . S
O11 C14 1.279 1_655 S
O12 C1 1.251 . S
O12 Eu9 2.328 . S
O13 Eu9 2.316 1_554 S
O13 C30 1.237 1_665 S
C14 O11 1.279 1_455 S
C14 O15 1.244 . S
O15 C14 1.244 . S
O16 Eu9 2.488 . S
O16 C17 1.271 . S
C17 C3 1.491 . S
C17 Eu9 2.837 . S
C17 O16 1.271 . S
C17 O20 1.261 . S
C18 O2 1.279 1_655 S
C18 O19 1.244 . S
O19 C18 1.244 . S
O20 Eu9 2.461 . S
O20 C17 1.261 . S
O21 Eu0 2.316 1_556 S
O21 C1 1.237 1_445 S
C22 Eu0 2.837 . S
C22 O23 1.271 . S
C22 C24 1.491 . S
C22 O31 1.261 . S
O23 Eu0 2.488 . S
O23 C22 1.271 . S
C24 C22 1.491 . S
C24 C26 1.383 . S
C24 C28 1.388 . S
C25 C27 1.403 . S
C25 C29 1.385 1_556 S
C25 H35 0.931 . S
C26 C24 1.383 . S
C26 C27 1.393 1_554 S
C26 H36 0.930 . S
C27 C25 1.403 . S
C27 C26 1.393 1_556 S
C28 C24 1.388 . S
C28 C29 1.394 . S
C28 H37 0.930 . S
C29 C25 1.385 1_554 S
C29 C28 1.394 . S
C30 O10 1.251 . S
C30 O13 1.237 1_445 S
O31 Eu0 2.461 . S
O31 C22 1.261 . S
H32 C4 0.931 . S
H33 C5 0.930 . S
H34 C7 0.930 . S
H35 C25 0.931 . S
H36 C26 0.930 . S
H37 C28 0.930 . S
C38 C39 1.170 1_455 S
C38 C40 1.380 1_554 S
C39 C38 1.170 1_655 S
C40 C38 1.380 1_556 S
C40 C41 1.170 . S
C41 C40 1.170 . S
C42 C43 1.170 1_554 S
C42 C44 1.380 1_565 S
C43 C42 1.170 1_556 S
C44 C42 1.380 1_545 S
C44 C45 1.170 . S
C45 C44 1.170 . S
C46 C47 1.170 1_554 S
C46 C48 1.380 . S
C47 C46 1.170 1_556 S
C48 C46 1.380 . S
C48 C49 1.170 . S
C49 C48 1.170 . S
C50 C51 1.170 . S
C50 C52 1.380 . S
C51 C50 1.170 . S
C52 C50 1.380 . S
C52 C53 1.170 . S
C53 C52 1.170 . S
C39 C18 0.605 . S
C41 C14 0.571 . S
C43 C8 2.027 . S
C45 C29 2.058 . S
C47 C27 1.829 . S
C49 C6 1.842 . S
C51 C1 1.492 1_545 S
C53 C30 1.490 1_655 S
