# Generated by pormake.
# Topology rac, (4)-cn, num edge types: 1
# Building blocks:
#     Node 0, Type 0, BuildingBlock: GALJAG_clean_sbu_0, # of connection points: 4
#     Node 1, Type 0, BuildingBlock: GALJAG_clean_sbu_0, # of connection points: 4
#     Node 2, Type 0, BuildingBlock: GALJAG_clean_sbu_0, # of connection points: 4
#     Node 3, Type 0, BuildingBlock: GALJAG_clean_sbu_0, # of connection points: 4
#     Node 4, Type 0, BuildingBlock: GALJAG_clean_sbu_0, # of connection points: 4
#     Node 5, Type 0, BuildingBlock: GALJAG_clean_sbu_0, # of connection points: 4
#     Node 6, Type 0, BuildingBlock: GALJAG_clean_sbu_0, # of connection points: 4
#     Node 7, Type 0, BuildingBlock: GALJAG_clean_sbu_0, # of connection points: 4
#     Edge 8, Type (0, 0), BuildingBlock: EYOCIG_clean_linker_4, # of connection points: 2
#     Edge 9, Type (0, 0), BuildingBlock: EYOCIG_clean_linker_4, # of connection points: 2
#     Edge 10, Type (0, 0), BuildingBlock: EYOCIG_clean_linker_4, # of connection points: 2
#     Edge 11, Type (0, 0), BuildingBlock: EYOCIG_clean_linker_4, # of connection points: 2
#     Edge 12, Type (0, 0), BuildingBlock: EYOCIG_clean_linker_4, # of connection points: 2
#     Edge 13, Type (0, 0), BuildingBlock: EYOCIG_clean_linker_4, # of connection points: 2
#     Edge 14, Type (0, 0), BuildingBlock: EYOCIG_clean_linker_4, # of connection points: 2
#     Edge 15, Type (0, 0), BuildingBlock: EYOCIG_clean_linker_4, # of connection points: 2
#     Edge 16, Type (0, 0), BuildingBlock: EYOCIG_clean_linker_4, # of connection points: 2
#     Edge 17, Type (0, 0), BuildingBlock: EYOCIG_clean_linker_4, # of connection points: 2
#     Edge 18, Type (0, 0), BuildingBlock: EYOCIG_clean_linker_4, # of connection points: 2
#     Edge 19, Type (0, 0), BuildingBlock: EYOCIG_clean_linker_4, # of connection points: 2
#     Edge 20, Type (0, 0), BuildingBlock: EYOCIG_clean_linker_4, # of connection points: 2
#     Edge 21, Type (0, 0), BuildingBlock: EYOCIG_clean_linker_4, # of connection points: 2
#     Edge 22, Type (0, 0), BuildingBlock: EYOCIG_clean_linker_4, # of connection points: 2
#     Edge 23, Type (0, 0), BuildingBlock: EYOCIG_clean_linker_4, # of connection points: 2
# Relax obj value: 0.254
# Max RMSD: 0.115
# Mean RMSD: 0.115
data_MOF--net-rac--node1-GALJAG_clean_sbu_0--edge1-EYOCIG_clean_linker_4
_symmetry_space_group_name_H-M    P1
_symmetry_Int_Tables_number       1
_symmetry_cell_setting            triclinic
loop_
_symmetry_equiv_pos_as_xyz
'x, y, z'
_cell_length_a     29.262101
_cell_length_b     17.954802
_cell_length_c     31.225842
_cell_angle_alpha  89.992914
_cell_angle_beta   89.995442
_cell_angle_gamma 89.981322
loop_
_atom_site_label
_atom_site_type_symbol
_atom_site_fract_x
_atom_site_fract_y
_atom_site_fract_z
_atom_type_partial_charge
In0 In 0.35423 0.28657 0.05908 0.0
O1 O 0.33996 0.31158 0.12879 0.0
O2 O 0.39635 0.23966 0.11444 0.0
C3 C 0.29855 0.37322 0.01475 0.0
C4 C 0.3098 0.15811 0.04387 0.0
C5 C 0.42387 0.37312 0.03362 0.0
O6 O 0.29933 0.37358 0.05527 0.0
O7 O 0.32439 0.3269 0.99638 0.0
O8 O 0.42055 0.30625 0.02058 0.0
O9 O 0.39443 0.39318 0.06065 0.0
C10 C 0.37269 0.27254 0.14259 0.0
O11 O 0.35055 0.16769 0.03094 0.0
O12 O 0.29272 0.2116 0.06446 0.0
In13 In 0.12325 0.7407 0.05911 0.0
O14 O 0.12708 0.85956 0.03096 0.0
O15 O 0.18486 0.81546 0.06448 0.0
C16 C 0.05348 0.65441 0.03367 0.0
C17 C 0.10478 0.75481 0.14262 0.0
C18 C 0.17881 0.65384 0.01479 0.0
O19 O 0.05691 0.72126 0.02061 0.0
O20 O 0.08289 0.63424 0.0607 0.0
O21 O 0.17803 0.6535 0.05531 0.0
O22 O 0.15303 0.70024 0.99641 0.0
C23 C 0.16784 0.86901 0.04388 0.0
O24 O 0.13746 0.71564 0.12883 0.0
O25 O 0.08118 0.78776 0.11445 0.0
In26 In 0.35412 0.24095 0.43803 0.0
O27 O 0.35039 0.3598 0.46621 0.0
O28 O 0.2926 0.31595 0.43264 0.0
C29 C 0.42376 0.15441 0.4636 0.0
C30 C 0.37266 0.25502 0.35453 0.0
C31 C 0.29837 0.15428 0.48224 0.0
O32 O 0.42038 0.22128 0.47664 0.0
O33 O 0.39439 0.13435 0.43653 0.0
O34 O 0.29925 0.15395 0.44173 0.0
O35 O 0.32416 0.20057 0.50067 0.0
C36 C 0.30966 0.36941 0.45327 0.0
O37 O 0.33994 0.21597 0.36831 0.0
O38 O 0.39628 0.28788 0.38271 0.0
In39 In 0.12295 0.78679 0.43809 0.0
O40 O 0.1268 0.66791 0.46622 0.0
O41 O 0.1846 0.71204 0.43277 0.0
C42 C 0.05316 0.87299 0.46366 0.0
C43 C 0.10454 0.77266 0.35457 0.0
C44 C 0.17853 0.87375 0.48228 0.0
O45 O 0.05668 0.80615 0.47672 0.0
O46 O 0.08246 0.89317 0.43655 0.0
O47 O 0.17767 0.87405 0.44176 0.0
O48 O 0.15282 0.82733 0.50072 0.0
C49 C 0.16758 0.65847 0.45334 0.0
O50 O 0.13718 0.81184 0.36837 0.0
O51 O 0.08092 0.73972 0.38272 0.0
In52 In 0.62302 0.74113 0.93837 0.0
O53 O 0.63732 0.71614 0.86866 0.0
O54 O 0.58095 0.7881 0.883 0.0
C55 C 0.67863 0.65442 0.98274 0.0
C56 C 0.66747 0.86954 0.95364 0.0
C57 C 0.55333 0.65459 0.96376 0.0
O58 O 0.67789 0.65408 0.94222 0.0
O59 O 0.65278 0.70075 0.00109 0.0
O60 O 0.55666 0.72146 0.97682 0.0
O61 O 0.58279 0.63454 0.93675 0.0
C62 C 0.60461 0.75522 0.85485 0.0
O63 O 0.62671 0.85998 0.96654 0.0
O64 O 0.68455 0.81605 0.93304 0.0
In65 In 0.85392 0.28701 0.93845 0.0
O66 O 0.85016 0.16814 0.96662 0.0
O67 O 0.79234 0.21219 0.93314 0.0
C68 C 0.92368 0.37338 0.96383 0.0
C69 C 0.87228 0.27281 0.85493 0.0
C70 C 0.79834 0.37382 0.98279 0.0
O71 O 0.92028 0.30654 0.97691 0.0
O72 O 0.89425 0.3935 0.93681 0.0
O73 O 0.79911 0.37416 0.94227 0.0
O74 O 0.82415 0.32744 0.00116 0.0
C75 C 0.8094 0.15865 0.95373 0.0
O76 O 0.83962 0.31199 0.86874 0.0
O77 O 0.89593 0.23992 0.88308 0.0
In78 In 0.62286 0.78654 0.55935 0.0
O79 O 0.62652 0.66762 0.53126 0.0
O80 O 0.68438 0.71153 0.5647 0.0
C81 C 0.55318 0.87304 0.53384 0.0
C82 C 0.60448 0.77264 0.64289 0.0
C83 C 0.67854 0.87314 0.51501 0.0
O84 O 0.55654 0.80615 0.52082 0.0
O85 O 0.58259 0.89314 0.56086 0.0
O86 O 0.67772 0.87353 0.55552 0.0
O87 O 0.65272 0.82681 0.49664 0.0
C88 C 0.66728 0.65802 0.54415 0.0
O89 O 0.63718 0.81165 0.62904 0.0
O90 O 0.5808 0.73974 0.61477 0.0
In91 In 0.85379 0.2404 0.55946 0.0
O92 O 0.83954 0.21541 0.62919 0.0
O93 O 0.89583 0.28745 0.61481 0.0
C94 C 0.79824 0.15362 0.51514 0.0
C95 C 0.80922 0.36876 0.54421 0.0
C96 C 0.92354 0.15402 0.53399 0.0
O97 O 0.79902 0.15324 0.55565 0.0
O98 O 0.82401 0.20003 0.49676 0.0
O99 O 0.92012 0.22088 0.52094 0.0
O100 O 0.89416 0.1339 0.56105 0.0
C101 C 0.87221 0.25456 0.64298 0.0
O102 O 0.84999 0.35927 0.53132 0.0
O103 O 0.79218 0.31522 0.5648 0.0
C104 C 0.25587 0.04171 0.03256 0.0
C105 C 0.28326 0.09189 0.03586 0.0
C106 C 0.22187 0.9853 0.03257 0.0
C107 C 0.19445 0.93517 0.03588 0.0
C108 C 0.22164 0.54218 0.46464 0.0
C109 C 0.1942 0.59231 0.46133 0.0
C110 C 0.25567 0.48578 0.46463 0.0
C111 C 0.28308 0.43561 0.46131 0.0
C112 C 0.72142 0.98589 0.96501 0.0
C113 C 0.69402 0.93573 0.96168 0.0
C114 C 0.75542 0.04231 0.96503 0.0
C115 C 0.78282 0.09246 0.96173 0.0
C116 C 0.7212 0.54156 0.53287 0.0
C117 C 0.69381 0.59176 0.53616 0.0
C118 C 0.7552 0.48511 0.53289 0.0
C119 C 0.78262 0.43495 0.53621 0.0
C120 C 0.38581 0.2642 0.22597 0.0
C121 C 0.38162 0.26577 0.18759 0.0
C122 C 0.38581 0.26342 0.27116 0.0
C123 C 0.38161 0.26183 0.30954 0.0
C124 C 0.09154 0.76413 0.27118 0.0
C125 C 0.09567 0.76578 0.30956 0.0
C126 C 0.09161 0.76327 0.22599 0.0
C127 C 0.09584 0.76163 0.18761 0.0
C128 C 0.59149 0.76359 0.77147 0.0
C129 C 0.59569 0.762 0.80985 0.0
C130 C 0.59146 0.76436 0.72628 0.0
C131 C 0.5956 0.76591 0.6879 0.0
C132 C 0.88527 0.26319 0.72636 0.0
C133 C 0.88109 0.26147 0.68798 0.0
C134 C 0.88529 0.26416 0.77154 0.0
C135 C 0.88114 0.26589 0.80993 0.0
C136 C 0.47694 0.48085 0.00475 0.0
C137 C 0.45468 0.42736 0.01566 0.0
C138 C 0.50024 0.54687 0.9926 0.0
C139 C 0.52251 0.60036 0.9817 0.0
C140 C 0.00027 0.54688 0.0048 0.0
C141 C 0.02261 0.60029 0.01571 0.0
C142 C 0.97688 0.48096 0.99265 0.0
C143 C 0.95454 0.42754 0.98175 0.0
C144 C 0.5001 0.98072 0.50485 0.0
C145 C 0.52237 0.92724 0.51582 0.0
C146 C 0.4768 0.04671 0.49262 0.0
C147 C 0.45454 0.10018 0.48164 0.0
C148 C 0.97666 0.04642 0.505 0.0
C149 C 0.95436 0.09985 0.51598 0.0
C150 C 1e-05 0.98049 0.49274 0.0
C151 C 0.02233 0.92709 0.48174 0.0
C152 C 0.2257 0.54621 0.98051 0.0
C153 C 0.20316 0.59835 0.99167 0.0
C154 C 0.25155 0.48075 0.98049 0.0
C155 C 0.27414 0.42865 0.99163 0.0
C156 C 0.25131 0.04681 0.51644 0.0
C157 C 0.27392 0.09887 0.50531 0.0
C158 C 0.22545 0.98139 0.51645 0.0
C159 C 0.2029 0.92926 0.50534 0.0
C160 C 0.72557 0.54688 0.01705 0.0
C161 C 0.703 0.59898 0.00588 0.0
C162 C 0.75142 0.48142 0.01707 0.0
C163 C 0.77398 0.42929 0.00592 0.0
C164 C 0.72553 0.98063 0.48075 0.0
C165 C 0.70294 0.92854 0.49188 0.0
C166 C 0.75137 0.04606 0.48081 0.0
C167 C 0.7739 0.09817 0.492 0.0
loop_
_geom_bond_atom_site_label_1
_geom_bond_atom_site_label_2
_geom_bond_distance
_geom_bond_site_symmetry_2
_ccdc_geom_bond_type
In0 O1 2.294 . S
In0 O2 2.326 . S
In0 O6 2.266 . S
In0 O7 2.346 . S
In0 O8 2.266 . S
In0 O9 2.326 . S
In0 O11 2.294 . S
In0 O12 2.326 . S
O1 In0 2.294 . S
O1 C10 1.240 . S
O2 In0 2.326 . S
O2 C10 1.252 . S
C3 O6 1.252 . S
C3 O7 1.277 . S
C4 O11 1.240 . S
C4 O12 1.252 . S
C5 O8 1.252 . S
C5 O9 1.260 . S
O6 In0 2.266 . S
O6 C3 1.252 . S
O7 In0 2.346 . S
O7 C3 1.277 . S
O8 In0 2.266 . S
O8 C5 1.252 . S
O9 In0 2.326 . S
O9 C5 1.260 . S
C10 O1 1.240 . S
C10 O2 1.252 . S
O11 In0 2.294 . S
O11 C4 1.240 . S
O12 In0 2.326 . S
O12 C4 1.252 . S
In13 O14 2.294 . S
In13 O15 2.326 . S
In13 O19 2.266 . S
In13 O20 2.326 . S
In13 O21 2.266 . S
In13 O22 2.346 . S
In13 O24 2.294 . S
In13 O25 2.326 . S
O14 In13 2.294 . S
O14 C23 1.240 . S
O15 In13 2.326 . S
O15 C23 1.252 . S
C16 O19 1.252 . S
C16 O20 1.260 . S
C17 O24 1.240 . S
C17 O25 1.252 . S
C18 O21 1.252 . S
C18 O22 1.277 . S
O19 In13 2.266 . S
O19 C16 1.252 . S
O20 In13 2.326 . S
O20 C16 1.260 . S
O21 In13 2.266 . S
O21 C18 1.252 . S
O22 In13 2.346 . S
O22 C18 1.277 . S
C23 O14 1.240 . S
C23 O15 1.252 . S
O24 In13 2.294 . S
O24 C17 1.240 . S
O25 In13 2.326 . S
O25 C17 1.252 . S
In26 O27 2.294 . S
In26 O28 2.326 . S
In26 O32 2.266 . S
In26 O33 2.326 . S
In26 O34 2.266 . S
In26 O35 2.326 . S
In26 O37 2.294 . S
In26 O38 2.326 . S
O27 In26 2.294 . S
O27 C36 1.240 . S
O28 In26 2.326 . S
O28 C36 1.252 . S
C29 O32 1.252 . S
C29 O33 1.260 . S
C30 O37 1.240 . S
C30 O38 1.252 . S
C31 O34 1.252 . S
C31 O35 1.260 . S
O32 In26 2.266 . S
O32 C29 1.252 . S
O33 In26 2.326 . S
O33 C29 1.260 . S
O34 In26 2.266 . S
O34 C31 1.252 . S
O35 In26 2.326 . S
O35 C31 1.260 . S
C36 O27 1.240 . S
C36 O28 1.252 . S
O37 In26 2.294 . S
O37 C30 1.240 . S
O38 In26 2.326 . S
O38 C30 1.252 . S
In39 O40 2.294 . S
In39 O41 2.326 . S
In39 O45 2.266 . S
In39 O46 2.326 . S
In39 O47 2.266 . S
In39 O48 2.326 . S
In39 O50 2.294 . S
In39 O51 2.326 . S
O40 In39 2.294 . S
O40 C49 1.240 . S
O41 In39 2.326 . S
O41 C49 1.252 . S
C42 O45 1.252 . S
C42 O46 1.260 . S
C43 O50 1.240 . S
C43 O51 1.252 . S
C44 O47 1.252 . S
C44 O48 1.260 . S
O45 In39 2.266 . S
O45 C42 1.252 . S
O46 In39 2.326 . S
O46 C42 1.260 . S
O47 In39 2.266 . S
O47 C44 1.252 . S
O48 In39 2.326 . S
O48 C44 1.260 . S
C49 O40 1.240 . S
C49 O41 1.252 . S
O50 In39 2.294 . S
O50 C43 1.240 . S
O51 In39 2.326 . S
O51 C43 1.252 . S
In52 O53 2.294 . S
In52 O54 2.326 . S
In52 O58 2.266 . S
In52 O59 2.346 . S
In52 O60 2.266 . S
In52 O61 2.326 . S
In52 O63 2.294 . S
In52 O64 2.326 . S
O53 In52 2.294 . S
O53 C62 1.240 . S
O54 In52 2.326 . S
O54 C62 1.252 . S
C55 O58 1.252 . S
C55 O59 1.277 . S
C56 O63 1.240 . S
C56 O64 1.252 . S
C57 O60 1.252 . S
C57 O61 1.260 . S
O58 In52 2.266 . S
O58 C55 1.252 . S
O59 In52 2.346 . S
O59 C55 1.277 . S
O60 In52 2.266 . S
O60 C57 1.252 . S
O61 In52 2.326 . S
O61 C57 1.260 . S
C62 O53 1.240 . S
C62 O54 1.252 . S
O63 In52 2.294 . S
O63 C56 1.240 . S
O64 In52 2.326 . S
O64 C56 1.252 . S
In65 O66 2.294 . S
In65 O67 2.326 . S
In65 O71 2.266 . S
In65 O72 2.326 . S
In65 O73 2.266 . S
In65 O74 2.346 . S
In65 O76 2.294 . S
In65 O77 2.326 . S
O66 In65 2.294 . S
O66 C75 1.240 . S
O67 In65 2.326 . S
O67 C75 1.252 . S
C68 O71 1.252 . S
C68 O72 1.260 . S
C69 O76 1.240 . S
C69 O77 1.252 . S
C70 O73 1.252 . S
C70 O74 1.277 . S
O71 In65 2.266 . S
O71 C68 1.252 . S
O72 In65 2.326 . S
O72 C68 1.260 . S
O73 In65 2.266 . S
O73 C70 1.252 . S
O74 In65 2.346 . S
O74 C70 1.277 . S
C75 O66 1.240 . S
C75 O67 1.252 . S
O76 In65 2.294 . S
O76 C69 1.240 . S
O77 In65 2.326 . S
O77 C69 1.252 . S
In78 O79 2.294 . S
In78 O80 2.326 . S
In78 O84 2.266 . S
In78 O85 2.326 . S
In78 O86 2.266 . S
In78 O87 2.326 . S
In78 O89 2.294 . S
In78 O90 2.326 . S
O79 In78 2.294 . S
O79 C88 1.240 . S
O80 In78 2.326 . S
O80 C88 1.252 . S
C81 O84 1.252 . S
C81 O85 1.260 . S
C82 O89 1.240 . S
C82 O90 1.252 . S
C83 O86 1.252 . S
C83 O87 1.260 . S
O84 In78 2.266 . S
O84 C81 1.252 . S
O85 In78 2.326 . S
O85 C81 1.260 . S
O86 In78 2.266 . S
O86 C83 1.252 . S
O87 In78 2.326 . S
O87 C83 1.260 . S
C88 O79 1.240 . S
C88 O80 1.252 . S
O89 In78 2.294 . S
O89 C82 1.240 . S
O90 In78 2.326 . S
O90 C82 1.252 . S
In91 O92 2.294 . S
In91 O93 2.326 . S
In91 O97 2.266 . S
In91 O98 2.326 . S
In91 O99 2.266 . S
In91 O100 2.326 . S
In91 O102 2.294 . S
In91 O103 2.326 . S
O92 In91 2.294 . S
O92 C101 1.240 . S
O93 In91 2.326 . S
O93 C101 1.252 . S
C94 O97 1.252 . S
C94 O98 1.260 . S
C95 O102 1.240 . S
C95 O103 1.252 . S
C96 O99 1.252 . S
C96 O100 1.260 . S
O97 In91 2.266 . S
O97 C94 1.252 . S
O98 In91 2.326 . S
O98 C94 1.260 . S
O99 In91 2.266 . S
O99 C96 1.252 . S
O100 In91 2.326 . S
O100 C96 1.260 . S
C101 O92 1.240 . S
C101 O93 1.252 . S
O102 In91 2.294 . S
O102 C95 1.240 . S
O103 In91 2.326 . S
O103 C95 1.252 . S
C104 C105 1.170 . S
C104 C106 1.380 1_545 S
C105 C104 1.170 . S
C106 C104 1.380 1_565 S
C106 C107 1.170 . S
C107 C106 1.170 . S
C108 C109 1.170 . S
C108 C110 1.380 . S
C109 C108 1.170 . S
C110 C108 1.380 . S
C110 C111 1.170 . S
C111 C110 1.170 . S
C112 C113 1.170 . S
C112 C114 1.380 1_565 S
C113 C112 1.170 . S
C114 C112 1.380 1_545 S
C114 C115 1.170 . S
C115 C114 1.170 . S
C116 C117 1.170 . S
C116 C118 1.380 . S
C117 C116 1.170 . S
C118 C116 1.380 . S
C118 C119 1.170 . S
C119 C118 1.170 . S
C120 C121 1.170 . S
C120 C122 1.380 . S
C121 C120 1.170 . S
C122 C120 1.380 . S
C122 C123 1.170 . S
C123 C122 1.170 . S
C124 C125 1.170 . S
C124 C126 1.380 . S
C125 C124 1.170 . S
C126 C124 1.380 . S
C126 C127 1.170 . S
C127 C126 1.170 . S
C128 C129 1.170 . S
C128 C130 1.380 . S
C129 C128 1.170 . S
C130 C128 1.380 . S
C130 C131 1.170 . S
C131 C130 1.170 . S
C132 C133 1.170 . S
C132 C134 1.380 . S
C133 C132 1.170 . S
C134 C132 1.380 . S
C134 C135 1.170 . S
C135 C134 1.170 . S
C136 C137 1.170 . S
C136 C138 1.380 1_554 S
C137 C136 1.170 . S
C138 C136 1.380 1_556 S
C138 C139 1.170 . S
C139 C138 1.170 . S
C140 C141 1.170 . S
C140 C142 1.380 1_454 S
C141 C140 1.170 . S
C142 C140 1.380 1_656 S
C142 C143 1.170 . S
C143 C142 1.170 . S
C144 C145 1.170 . S
C144 C146 1.380 1_565 S
C145 C144 1.170 . S
C146 C144 1.380 1_545 S
C146 C147 1.170 . S
C147 C146 1.170 . S
C148 C149 1.170 . S
C148 C150 1.380 1_645 S
C149 C148 1.170 . S
C150 C148 1.380 1_465 S
C150 C151 1.170 . S
C151 C150 1.170 . S
C152 C153 1.170 . S
C152 C154 1.380 . S
C153 C152 1.170 . S
C154 C152 1.380 . S
C154 C155 1.170 . S
C155 C154 1.170 . S
C156 C157 1.170 . S
C156 C158 1.380 1_545 S
C157 C156 1.170 . S
C158 C156 1.380 1_565 S
C158 C159 1.170 . S
C159 C158 1.170 . S
C160 C161 1.170 . S
C160 C162 1.380 . S
C161 C160 1.170 . S
C162 C160 1.380 . S
C162 C163 1.170 . S
C163 C162 1.170 . S
C164 C165 1.170 . S
C164 C166 1.380 1_565 S
C165 C164 1.170 . S
C166 C164 1.380 1_545 S
C166 C167 1.170 . S
C167 C166 1.170 . S
C105 C4 1.761 . S
C107 C23 1.747 . S
C109 C49 1.744 . S
C111 C36 1.746 . S
C113 C56 1.764 . S
C115 C75 1.743 . S
C117 C88 1.765 . S
C119 C95 1.743 . S
C121 C10 1.772 . S
C123 C30 1.775 . S
C125 C43 1.764 . S
C127 C17 1.782 . S
C129 C62 1.775 . S
C131 C82 1.755 . S
C133 C101 1.785 . S
C135 C69 1.778 . S
C137 C5 1.480 . S
C139 C57 1.437 . S
C141 C16 1.481 . S
C143 C68 1.440 . S
C145 C81 1.458 . S
C147 C29 1.447 . S
C149 C96 1.439 . S
C151 C42 1.470 . S
C153 C18 1.094 . S
C155 C3 1.098 . S
C157 C31 1.069 . S
C159 C44 1.073 . S
C161 C55 1.067 . S
C163 C70 1.077 . S
C165 C83 1.074 . S
C167 C94 1.066 . S
