# Generated by pormake.
# Topology pcu, (6)-cn, num edge types: 1
# Building blocks:
#     Node 0, Type 0, BuildingBlock: BETGAK_clean_sbu_0, # of connection points: 6
#     Edge 1, Type (0, 0), BuildingBlock: TEMPAE_clean_linker_10, # of connection points: 2
#     Edge 2, Type (0, 0), BuildingBlock: TEMPAE_clean_linker_10, # of connection points: 2
#     Edge 3, Type (0, 0), BuildingBlock: TEMPAE_clean_linker_10, # of connection points: 2
# Relax obj value: 0.000
# Max RMSD: 0.000
# Mean RMSD: 0.000
data_MOF--net-pcu--node1-BETGAK_clean_sbu_0--edge1-TEMPAE_clean_linker_10
_symmetry_space_group_name_H-M    P1
_symmetry_Int_Tables_number       1
_symmetry_cell_setting            triclinic
loop_
_symmetry_equiv_pos_as_xyz
'x, y, z'
_cell_length_a     15.570948
_cell_length_b     25.361442
_cell_length_c     14.500816
_cell_angle_alpha  96.122393
_cell_angle_beta   87.545192
_cell_angle_gamma 122.83953
loop_
_atom_site_label
_atom_site_type_symbol
_atom_site_fract_x
_atom_site_fract_y
_atom_site_fract_z
_atom_type_partial_charge
La0 La 0.09576 0.10641 1.01414 0.0
La1 La 0.97018 0.96694 0.03105 0.0
C2 C 0.16598 0.21674 0.97176 0.0
C3 C 0.13231 0.26154 0.97564 0.0
C4 C 0.10679 0.28221 0.06006 0.0
C5 C 0.08281 0.32817 0.06348 0.0
C6 C 0.08328 0.35447 0.98258 0.0
C7 C 0.10633 0.33249 0.8978 0.0
C8 C 0.1308 0.28669 0.89449 0.0
C9 C 0.07733 0.07373 0.1842 0.0
C10 C 0.85308 0.03332 0.02947 0.0
C11 C 0.90253 0.85943 0.08306 0.0
C12 C 0.9276 0.81059 0.0688 0.0
C13 C 0.93987 0.78802 0.97954 0.0
C14 C 0.95922 0.73986 0.96786 0.0
C15 C 0.96763 0.71363 0.0451 0.0
C16 C 0.95725 0.73719 0.13434 0.0
C17 C 0.93711 0.78498 0.14596 0.0
C18 C 0.98629 0.99806 0.86051 0.0
C19 C 0.21395 0.03978 1.0095 0.0
O20 O 0.1841 0.20399 0.05093 0.0
O21 O 0.11821 0.16633 0.91269 0.0
O22 O 0.15833 0.12172 0.15364 0.0
O23 O 1.00829 0.04835 0.12237 0.0
O24 O 0.93797 0.08145 0.99889 0.0
O25 O 0.85187 0.98648 0.06304 0.0
O26 O 0.86615 0.86903 1.01137 0.0
O27 O 0.96898 0.91229 0.13132 0.0
O28 O 0.90957 0.94708 0.88957 0.0
O29 O 0.05563 1.02483 0.92222 0.0
O30 O 0.12744 0.98893 0.03227 0.0
O31 O 0.21804 0.09023 0.98694 0.0
H32 H 0.10721 0.26386 0.12403 0.0
H33 H 0.06674 0.34436 0.13018 0.0
H34 H 0.10583 0.35083 0.83387 0.0
H35 H 0.14998 0.27151 0.82852 0.0
H36 H 0.93382 0.8072 0.91866 0.0
H37 H 0.96813 0.72333 0.8983 0.0
H38 H 0.96243 0.71768 0.19522 0.0
H39 H 0.92789 0.80154 0.21541 0.0
C40 C 0.14854 0.08768 0.34197 0.0
C41 C 0.06351 0.05897 0.28173 0.0
C42 C 0.13732 0.07672 0.43595 0.0
C43 C 0.03843 0.03668 0.47087 0.0
C44 C 0.95228 1.00698 0.40994 0.0
C45 C 0.96595 1.01813 0.31582 0.0
C46 C 0.23126 0.10854 0.49809 0.0
C47 C 0.84553 0.96438 0.44454 0.0
C48 C 1.01404 0.96767 0.69857 0.0
C49 C 1.0028 1.00908 0.76195 0.0
C50 C 0.0261 0.97617 0.60357 0.0
C51 C 1.02531 1.02678 0.57144 0.0
C52 C 1.01305 0.06839 0.6357 0.0
C53 C 1.00195 0.05897 0.73036 0.0
C54 C 0.03989 0.93114 0.53767 0.0
C55 C 1.01068 0.12248 0.60437 0.0
H56 H 0.22416 0.11901 0.31561 0.0
H57 H 0.90006 0.99593 0.26936 0.0
H58 H 0.22678 0.14048 0.55382 0.0
H59 H 0.23519 0.07274 0.53218 0.0
H60 H 0.30293 0.13645 0.45948 0.0
H61 H 0.78678 0.94443 0.38819 0.0
H62 H 0.84021 0.92493 0.47661 0.0
H63 H 0.82771 0.99108 0.49904 0.0
H64 H 1.01368 0.92873 0.72352 0.0
H65 H 0.99027 0.08977 0.7794 0.0
H66 H 0.1133 0.95756 0.50103 0.0
H67 H 0.97794 0.9074 0.48411 0.0
H68 H 0.03946 0.89452 0.57382 0.0
H69 H 0.08278 0.15429 0.56901 0.0
H70 H 1.00059 0.15051 0.66305 0.0
H71 H 0.9472 0.10419 0.55336 0.0
C72 C 0.30434 0.98363 0.97852 0.0
C73 C 0.30795 0.03919 1.00825 0.0
C74 C 0.39268 0.98176 0.97981 0.0
C75 C 0.48566 0.03611 1.01507 0.0
C76 C 0.4892 0.09215 0.04625 0.0
C77 C 0.40048 0.09332 0.04084 0.0
C78 C 0.38665 0.92184 0.94291 0.0
C79 C 0.58609 0.15041 0.08701 0.0
C80 C 0.68815 1.01103 0.09793 0.0
C81 C 0.75846 0.03292 0.02612 0.0
C82 C 0.59953 1.01269 0.09602 0.0
C83 C 0.57946 0.03451 1.01874 0.0
C84 C 0.64937 0.05518 0.94501 0.0
C85 C 0.73906 0.05523 0.95046 0.0
C86 C 0.52841 0.99219 0.17728 0.0
C87 C 0.62908 0.07675 0.86004 0.0
H88 H 0.23256 0.94184 0.95302 0.0
H89 H 0.40262 0.13599 0.06501 0.0
H90 H 0.44346 0.93186 0.88748 0.0
H91 H 0.40584 0.90318 0.99892 0.0
H92 H 0.3095 0.88468 0.91433 0.0
H93 H 0.57496 0.18933 0.1113 0.0
H94 H 0.61359 0.13891 0.14644 0.0
H95 H 0.64713 0.16739 0.03464 0.0
H96 H 0.70389 0.99426 0.15671 0.0
H97 H 0.79329 0.07158 0.89451 0.0
H98 H 0.45163 0.95151 0.15411 0.0
H99 H 0.51906 0.03105 0.20633 0.0
H100 H 0.55684 0.9785 0.23331 0.0
H101 H 0.55365 0.0394 0.82858 0.0
H102 H 0.68867 0.08828 0.80683 0.0
H103 H 0.62605 0.11917 0.87975 0.0
C104 C 0.93017 0.6102 0.96502 0.0
C105 C 0.98537 0.66116 0.03275 0.0
C106 C 0.94415 0.55958 0.9542 0.0
C107 C 1.01554 0.55997 1.0121 0.0
C108 C 0.07222 0.61158 0.07999 0.0
C109 C 0.05624 0.66138 0.08967 0.0
C110 C 0.88177 0.50535 0.88137 0.0
C111 C 0.14965 0.61413 0.14263 0.0
C112 C 0.98811 0.40467 0.04644 0.0
C113 C 0.06298 0.40593 0.98739 0.0
C114 C 0.97143 0.45417 0.05465 0.0
C115 C 0.03055 0.50626 1.0022 0.0
C116 C 0.10507 0.50743 0.94138 0.0
C117 C 0.12056 0.45746 0.93491 0.0
C118 C 0.89108 0.45099 0.12018 0.0
C119 C 0.1696 0.56198 0.88409 0.0
H120 H 0.87439 0.60931 0.92154 0.0
H121 H 0.10001 0.70092 0.1414 0.0
H122 H 0.93316 0.49924 0.83241 0.0
H123 H 0.83477 0.46089 0.91467 0.0
H124 H 0.83022 0.51246 0.84128 0.0
H125 H 0.18828 0.65787 0.19119 0.0
H126 H 0.11163 0.57289 0.18372 0.0
H127 H 0.2086 0.61153 0.10038 0.0
H128 H 0.94208 0.36474 0.08625 0.0
H129 H 0.17961 0.45952 0.89012 0.0
H130 H 0.83399 0.45405 0.0819 0.0
H131 H 0.92702 0.49176 0.17411 0.0
H132 H 0.85056 0.40685 0.15505 0.0
H133 H 0.11979 0.56856 0.84063 0.0
H134 H 0.2222 0.55495 0.83809 0.0
H135 H 0.21566 0.60617 0.93044 0.0
loop_
_geom_bond_atom_site_label_1
_geom_bond_atom_site_label_2
_geom_bond_distance
_geom_bond_site_symmetry_2
_ccdc_geom_bond_type
La0 C2 2.928 . S
La0 O20 2.521 . S
La0 O21 2.628 1_554 S
La0 O22 2.554 . S
La0 O23 2.757 1_545 S
La0 O24 2.470 1_455 S
La0 O29 2.482 1_454 S
La0 O31 2.503 . S
La1 C11 2.928 . S
La1 O23 2.482 1_656 S
La1 O25 2.503 . S
La1 O26 2.521 . S
La1 O27 2.628 1_556 S
La1 O28 2.554 . S
La1 O29 2.757 1_565 S
La1 O30 2.470 1_655 S
C2 La0 2.928 . S
C2 C3 1.503 . S
C2 O20 1.261 . S
C2 O21 1.243 1_554 S
C3 C2 1.503 . S
C3 C4 1.394 . S
C3 C8 1.373 1_454 S
C4 C3 1.394 . S
C4 C5 1.380 . S
C4 H32 0.930 . S
C5 C4 1.380 . S
C5 C6 1.387 . S
C5 H33 0.930 . S
C6 C5 1.387 . S
C6 C7 1.361 1_454 S
C7 C6 1.361 1_656 S
C7 C8 1.396 . S
C7 H34 0.929 . S
C8 C3 1.373 1_656 S
C8 C7 1.396 . S
C8 H35 0.929 . S
C9 O22 1.240 . S
C9 O23 1.289 1_545 S
C10 O24 1.258 1_565 S
C10 O25 1.255 1_554 S
C11 La1 2.928 . S
C11 C12 1.503 . S
C11 O26 1.261 . S
C11 O27 1.243 1_556 S
C12 C11 1.503 . S
C12 C13 1.394 . S
C12 C17 1.373 1_656 S
C13 C12 1.394 . S
C13 C14 1.380 . S
C13 H36 0.930 . S
C14 C13 1.380 . S
C14 C15 1.384 . S
C14 H37 0.930 . S
C15 C14 1.384 . S
C15 C16 1.363 1_656 S
C16 C15 1.363 1_454 S
C16 C17 1.396 . S
C16 H38 0.929 . S
C17 C12 1.373 1_454 S
C17 C16 1.396 . S
C17 H39 0.929 . S
C18 O28 1.240 . S
C18 O29 1.289 1_565 S
C19 O30 1.258 1_545 S
C19 O31 1.255 1_556 S
O20 La0 2.521 . S
O20 C2 1.261 . S
O21 La0 2.628 1_556 S
O21 C2 1.243 1_556 S
O22 La0 2.554 . S
O22 C9 1.240 . S
O23 La0 2.757 1_565 S
O23 La1 2.482 1_454 S
O23 C9 1.289 1_565 S
O24 La0 2.470 1_655 S
O24 C10 1.258 1_545 S
O25 La1 2.503 . S
O25 C10 1.255 1_556 S
O26 La1 2.521 . S
O26 C11 1.261 . S
O27 La1 2.628 1_554 S
O27 C11 1.243 1_554 S
O28 La1 2.554 . S
O28 C18 1.240 . S
O29 La0 2.482 1_656 S
O29 La1 2.757 1_545 S
O29 C18 1.289 1_545 S
O30 La1 2.470 1_455 S
O30 C19 1.258 1_565 S
O31 La0 2.503 . S
O31 C19 1.255 1_554 S
H32 C4 0.930 . S
H33 C5 0.930 . S
H34 C7 0.929 . S
H35 C8 0.929 . S
H36 C13 0.930 . S
H37 C14 0.930 . S
H38 C16 0.929 . S
H39 C17 0.929 . S
C40 C41 1.383 1_455 S
C40 C42 1.394 . S
C40 H56 0.931 . S
C41 C40 1.383 1_655 S
C41 C45 1.384 1_545 S
C42 C40 1.394 . S
C42 C43 1.361 1_455 S
C42 C46 1.531 . S
C43 C42 1.361 1_655 S
C43 C44 1.417 1_545 S
C43 C51 1.504 . S
C44 C43 1.417 1_565 S
C44 C45 1.392 . S
C44 C47 1.511 . S
C45 C41 1.384 1_565 S
C45 C44 1.392 . S
C45 H57 0.929 . S
C46 C42 1.531 . S
C46 H58 0.960 . S
C46 H59 0.962 . S
C46 H60 0.960 . S
C47 C44 1.511 . S
C47 H61 0.961 . S
C47 H62 0.961 . S
C47 H63 0.961 . S
C48 C49 1.363 1_465 S
C48 C50 1.363 . S
C48 H64 0.931 . S
C49 C48 1.363 1_645 S
C49 C53 1.417 . S
C50 C48 1.363 . S
C50 C51 1.362 1_465 S
C50 C54 1.524 . S
C51 C43 1.504 . S
C51 C50 1.362 1_645 S
C51 C52 1.410 . S
C52 C51 1.410 . S
C52 C53 1.404 . S
C52 C55 1.539 . S
C53 C49 1.417 . S
C53 C52 1.404 . S
C53 H65 0.930 . S
C54 C50 1.524 . S
C54 H66 0.956 . S
C54 H67 0.961 1_455 S
C54 H68 0.961 . S
C55 C52 1.539 . S
C55 H69 0.958 1_655 S
C55 H70 0.961 . S
C55 H71 0.960 . S
H56 C40 0.931 . S
H57 C45 0.929 . S
H58 C46 0.960 . S
H59 C46 0.962 . S
H60 C46 0.960 . S
H61 C47 0.961 . S
H62 C47 0.961 . S
H63 C47 0.961 . S
H64 C48 0.931 . S
H65 C53 0.930 . S
H66 C54 0.956 . S
H67 C54 0.961 1_655 S
H68 C54 0.961 . S
H69 C55 0.958 1_455 S
H70 C55 0.961 . S
H71 C55 0.960 . S
C72 C73 1.391 1_565 S
C72 C74 1.394 . S
C72 H88 0.931 . S
C73 C72 1.391 1_545 S
C73 C77 1.376 1_556 S
C74 C72 1.394 . S
C74 C75 1.369 1_565 S
C74 C78 1.531 . S
C75 C74 1.369 1_545 S
C75 C76 1.410 1_556 S
C75 C83 1.503 . S
C76 C75 1.410 1_554 S
C76 C77 1.392 . S
C76 C79 1.511 . S
C77 C73 1.376 1_554 S
C77 C76 1.392 . S
C77 H89 0.929 . S
C78 C74 1.531 . S
C78 H90 0.960 . S
C78 H91 0.962 . S
C78 H92 0.960 . S
C79 C76 1.511 . S
C79 H93 0.961 . S
C79 H94 0.961 . S
C79 H95 0.961 . S
C80 C81 1.370 1_564 S
C80 C82 1.363 . S
C80 H96 0.931 . S
C81 C80 1.370 1_546 S
C81 C85 1.408 . S
C82 C80 1.363 . S
C82 C83 1.370 1_564 S
C82 C86 1.524 . S
C83 C75 1.503 . S
C83 C82 1.370 1_546 S
C83 C84 1.403 . S
C84 C83 1.403 . S
C84 C85 1.404 . S
C84 C87 1.539 . S
C85 C81 1.408 . S
C85 C84 1.404 . S
C85 H97 0.930 . S
C86 C82 1.524 . S
C86 H98 0.956 . S
C86 H99 0.961 . S
C86 H100 0.961 . S
C87 C84 1.539 . S
C87 H101 0.958 . S
C87 H102 0.961 . S
C87 H103 0.960 . S
H88 C72 0.931 . S
H89 C77 0.929 . S
H90 C78 0.960 . S
H91 C78 0.962 . S
H92 C78 0.960 . S
H93 C79 0.961 . S
H94 C79 0.961 . S
H95 C79 0.961 . S
H96 C80 0.931 . S
H97 C85 0.930 . S
H98 C86 0.956 . S
H99 C86 0.961 . S
H100 C86 0.961 . S
H101 C87 0.958 . S
H102 C87 0.961 . S
H103 C87 0.960 . S
C104 C105 1.391 1_655 S
C104 C106 1.394 . S
C104 H120 0.931 . S
C105 C104 1.391 1_455 S
C105 C109 1.376 1_556 S
C106 C104 1.394 . S
C106 C107 1.369 1_655 S
C106 C110 1.531 . S
C107 C106 1.369 1_455 S
C107 C108 1.410 1_556 S
C107 C115 1.503 . S
C108 C107 1.410 1_554 S
C108 C109 1.392 . S
C108 C111 1.511 . S
C109 C105 1.376 1_554 S
C109 C108 1.392 . S
C109 H121 0.929 . S
C110 C106 1.531 . S
C110 H122 0.960 . S
C110 H123 0.962 . S
C110 H124 0.960 . S
C111 C108 1.511 . S
C111 H125 0.961 . S
C111 H126 0.961 . S
C111 H127 0.961 . S
C112 C113 1.370 1_654 S
C112 C114 1.363 . S
C112 H128 0.931 . S
C113 C112 1.370 1_456 S
C113 C117 1.408 . S
C114 C112 1.363 . S
C114 C115 1.370 1_654 S
C114 C118 1.524 . S
C115 C107 1.503 . S
C115 C114 1.370 1_456 S
C115 C116 1.403 . S
C116 C115 1.403 . S
C116 C117 1.404 . S
C116 C119 1.539 . S
C117 C113 1.408 . S
C117 C116 1.404 . S
C117 H129 0.930 . S
C118 C114 1.524 . S
C118 H130 0.956 . S
C118 H131 0.961 . S
C118 H132 0.961 . S
C119 C116 1.539 . S
C119 H133 0.958 . S
C119 H134 0.961 . S
C119 H135 0.960 . S
H120 C104 0.931 . S
H121 C109 0.929 . S
H122 C110 0.960 . S
H123 C110 0.962 . S
H124 C110 0.960 . S
H125 C111 0.961 . S
H126 C111 0.961 . S
H127 C111 0.961 . S
H128 C112 0.931 . S
H129 C117 0.930 . S
H130 C118 0.956 . S
H131 C118 0.961 . S
H132 C118 0.961 . S
H133 C119 0.958 . S
H134 C119 0.961 . S
H135 C119 0.960 . S
C41 C9 1.423 1_655 S
C49 C18 1.456 1_545 S
C73 C19 1.462 . S
C81 C10 1.490 1_546 S
C105 C15 1.496 1_455 S
C113 C6 1.496 1_556 S
