# Generated by pormake.
# Topology sma, (6)-cn, num edge types: 1
# Building blocks:
#     Node 0, Type 0, BuildingBlock: GEDQOX_clean_sbu_0, # of connection points: 6
#     Node 1, Type 0, BuildingBlock: GEDQOX_clean_sbu_0, # of connection points: 6
#     Node 2, Type 0, BuildingBlock: GEDQOX_clean_sbu_0, # of connection points: 6
#     Edge 3, Type (0, 0), BuildingBlock: OJICUG_clean_linker_0, # of connection points: 2
#     Edge 4, Type (0, 0), BuildingBlock: OJICUG_clean_linker_0, # of connection points: 2
#     Edge 5, Type (0, 0), BuildingBlock: OJICUG_clean_linker_0, # of connection points: 2
#     Edge 6, Type (0, 0), BuildingBlock: OJICUG_clean_linker_0, # of connection points: 2
#     Edge 7, Type (0, 0), BuildingBlock: OJICUG_clean_linker_0, # of connection points: 2
#     Edge 8, Type (0, 0), BuildingBlock: OJICUG_clean_linker_0, # of connection points: 2
#     Edge 9, Type (0, 0), BuildingBlock: OJICUG_clean_linker_0, # of connection points: 2
#     Edge 10, Type (0, 0), BuildingBlock: OJICUG_clean_linker_0, # of connection points: 2
#     Edge 11, Type (0, 0), BuildingBlock: OJICUG_clean_linker_0, # of connection points: 2
# Relax obj value: 0.151
# Max RMSD: 0.283
# Mean RMSD: 0.208
data_MOF--net-sma--node1-GEDQOX_clean_sbu_0--edge1-OJICUG_clean_linker_0
_symmetry_space_group_name_H-M    P1
_symmetry_Int_Tables_number       1
_symmetry_cell_setting            triclinic
loop_
_symmetry_equiv_pos_as_xyz
'x, y, z'
_cell_length_a     33.237911
_cell_length_b     22.855741
_cell_length_c     10.045153
_cell_angle_alpha  97.506492
_cell_angle_beta   90.447811
_cell_angle_gamma 92.307937
loop_
_atom_site_label
_atom_site_type_symbol
_atom_site_fract_x
_atom_site_fract_y
_atom_site_fract_z
_atom_type_partial_charge
Nd0 Nd 0.05867 0.65811 -0.01131 0.0
Nd1 Nd 0.04632 0.52526 0.01663 0.0
C2 C 0.08599 0.76424 0.94842 0.0
C3 C 0.11824 0.80275 0.02089 0.0
C4 C 0.14999 0.82607 0.94997 0.0
C5 C 0.18274 0.85724 0.01885 0.0
C6 C 0.18443 0.86575 0.16037 0.0
C7 C 0.15206 0.84345 0.23079 0.0
C8 C 0.11954 0.81213 0.1621 0.0
C9 C 0.06185 0.63044 0.24505 0.0
C10 C 0.13529 0.5686 0.93933 0.0
C11 C 1.02264 0.42578 0.10754 0.0
C12 C 0.98488 0.39698 0.15063 0.0
C13 C 0.9805 0.38784 0.28548 0.0
C14 C 0.94575 0.35924 0.32788 0.0
C15 C 0.91444 0.33862 0.23629 0.0
C16 C 0.91871 0.34834 0.10137 0.0
C17 C 0.95346 0.37713 0.05905 0.0
C18 C 0.04666 0.55093 0.75986 0.0
C19 C 0.96744 0.6107 0.00426 0.0
O20 O 0.09783 0.71593 0.87783 0.0
O21 O 0.05319 0.75527 0.01552 0.0
O22 O 0.04578 0.67741 0.21391 0.0
O23 O 0.07704 0.60168 0.14441 0.0
O24 O 0.11785 0.61703 0.91392 0.0
O25 O 0.11568 0.52773 -0.00092 0.0
O26 O 0.03675 0.47265 0.18535 0.0
O27 O 1.02668 0.43048 -0.0203 0.0
O28 O 0.06093 0.50254 0.79301 0.0
O29 O 1.03034 0.58062 0.8575 0.0
O30 O 0.98323 0.56562 0.0545 0.0
O31 O 0.99062 0.64906 0.94886 0.0
H32 H 0.14996 0.81882 0.8412 0.0
H33 H 0.20727 0.87312 0.96105 0.0
H34 H 0.15186 0.84992 0.33951 0.0
H35 H 0.09578 0.79427 0.22011 0.0
H36 H 1.00416 0.40265 0.35844 0.0
H37 H 0.9434 0.35354 0.4329 0.0
H38 H 0.89557 0.33251 0.02742 0.0
H39 H 0.95579 0.38326 0.95426 0.0
Nd40 Nd 0.50419 1.07463 0.62115 0.0
Nd41 Nd 0.59948 0.08808 0.59117 0.0
C42 C 0.42595 1.07319 0.6665 0.0
C43 C 0.39068 1.04291 0.59292 0.0
C44 C 0.35718 1.02451 0.66313 0.0
C45 C 0.32372 0.99576 0.59354 0.0
C46 C 0.32309 0.98504 0.45216 0.0
C47 C 0.35687 1.00338 0.38236 0.0
C48 C 0.39032 1.03178 0.45192 0.0
C49 C 0.53235 1.05889 0.3671 0.0
C50 C 0.5554 0.95507 0.60978 0.0
C51 C 0.6753 0.09247 0.50963 0.0
C52 C 0.7076 0.13465 0.47431 0.0
C53 C 0.71184 0.14687 0.34124 0.0
C54 C 0.7442 0.18261 0.3055 0.0
C55 C 0.77341 0.20679 0.40158 0.0
C56 C 0.76879 0.19528 0.53507 0.0
C57 C 0.7364 0.15958 0.57085 0.0
C58 C 0.57131 0.10247 0.84464 0.0
C59 C 0.54959 0.20696 0.65553 0.0
O60 O 0.45055 1.03971 0.72171 0.0
O61 O 0.44484 0.11393 0.60756 0.0
O62 O 0.49984 1.03229 0.40233 0.0
O63 O 0.54591 0.09671 0.45996 0.0
O64 O 0.52091 0.9802 0.64077 0.0
O65 O 0.58813 0.9857 0.57805 0.0
O66 O 0.64423 0.08195 0.42826 0.0
O67 O 0.66532 0.09442 0.6359 0.0
O68 O 0.60455 0.12858 0.81181 0.0
O69 O 0.5576 1.06586 0.75019 0.0
O70 O 0.58178 0.1842 0.59516 0.0
O71 O 0.51924 0.17351 0.69275 0.0
H72 H 0.35685 1.03253 0.77183 0.0
H73 H 0.2981 0.98265 0.65041 0.0
H74 H 0.3577 0.99505 0.27379 0.0
H75 H 0.41593 1.04503 0.39521 0.0
H76 H 0.69062 0.12776 0.26365 0.0
H77 H 0.747 0.18973 0.20143 0.0
H78 H 0.79035 0.21368 0.61221 0.0
H79 H 0.73435 0.15075 0.67398 0.0
Nd80 Nd 0.50021 0.58439 0.71732 0.0
Nd81 Nd 0.59369 0.5918 0.78644 0.0
C82 C 0.42397 0.59065 0.64177 0.0
C83 C 0.38286 0.57412 0.68414 0.0
C84 C 0.35149 0.56591 0.58865 0.0
C85 C 0.31159 0.55726 0.62808 0.0
C86 C 0.30198 0.55676 0.76439 0.0
C87 C 0.33377 0.56213 0.85936 0.0
C88 C 0.37381 0.57085 0.81966 0.0
C89 C 0.5204 0.58923 -0.0179 0.0
C90 C 0.55504 0.70926 0.70312 0.0
C91 C 0.66514 0.58304 0.89992 0.0
C92 C 0.70831 0.60082 0.91938 0.0
C93 C 0.72585 0.60092 0.0469 0.0
C94 C 0.76764 0.60787 0.06535 0.0
C95 C 0.79295 0.61501 0.95649 0.0
C96 C 0.77513 0.61764 0.82972 0.0
C97 C 0.73322 0.61035 0.81119 0.0
C98 C 0.57496 0.58489 0.52132 0.0
C99 C 0.54223 0.46211 0.74442 0.0
O100 O 0.44695 0.54817 0.59175 0.0
O101 O 0.44372 0.63238 0.72066 0.0
O102 O 0.48918 0.55929 0.92824 0.0
O103 O 0.53797 0.61781 0.89956 0.0
O104 O 0.52324 0.67474 0.65927 0.0
O105 O 0.5851 0.68988 0.77077 0.0
O106 O 0.63775 0.6177 0.95534 0.0
O107 O 0.65367 0.5536 0.7844 0.0
O108 O 0.6075 0.6126 0.57373 0.0
O109 O 0.55617 0.5582 0.60511 0.0
O110 O 0.57284 0.49477 0.80395 0.0
O111 O 0.51179 0.48578 0.68847 0.0
H112 H 0.35771 0.56802 0.4836 0.0
H113 H 0.28805 0.5523 0.55178 0.0
H114 H 0.32757 0.56235 0.96509 0.0
H115 H 0.39752 0.57699 0.89541 0.0
H116 H 0.70729 0.59333 0.1317 0.0
H117 H 0.78021 0.60652 0.16465 0.0
H118 H 0.79368 0.62269 0.74348 0.0
H119 H 0.72049 0.61008 0.7115 0.0
C120 C 0.19163 0.59338 0.79091 0.0
C121 C 0.1775 0.56122 0.89268 0.0
H122 H 0.24112 0.6174 0.67239 0.0
C123 C 0.20444 0.52531 0.94988 0.0
H124 H 0.17183 0.62128 0.74354 0.0
C125 C 0.24487 0.52319 0.90842 0.0
C126 C 0.2589 0.55608 0.80728 0.0
H127 H 0.19458 0.50011 0.02863 0.0
H128 H 0.26512 0.49581 0.95532 0.0
C129 C 0.2315 0.59075 0.74883 0.0
C130 C 0.80561 0.28213 0.26772 0.0
C131 C 0.80924 0.24199 0.36176 0.0
H132 H 0.83538 0.34471 0.15654 0.0
C133 C 0.84768 0.23466 0.41535 0.0
H134 H 0.77645 0.28958 0.2256 0.0
C135 C 0.88153 0.26612 0.37538 0.0
C136 C 0.878 0.30603 0.28075 0.0
H137 H 0.85186 0.20343 0.4861 0.0
H138 H 0.91067 0.25806 0.41667 0.0
C139 C 0.83949 0.31375 0.22791 0.0
C140 C 0.59288 0.86575 0.65817 0.0
C141 C 0.55716 0.89094 0.62141 0.0
H142 H 0.62029 0.78888 0.71529 0.0
C143 C 0.52154 0.85525 0.60716 0.0
H144 H 0.62075 0.89219 0.67111 0.0
C145 C 0.52129 0.79638 0.6313 0.0
C146 C 0.55655 0.77147 0.67264 0.0
H147 H 0.49349 0.8731 0.57873 0.0
H148 H 0.49303 0.7708 0.62051 0.0
C149 C 0.5925 0.80673 0.68467 0.0
C150 C 0.85582 0.57692 0.05039 0.0
C151 C 0.83769 0.6163 -0.02619 0.0
H152 H 0.91056 0.54419 0.12008 0.0
C153 C 0.86273 0.65536 0.91123 0.0
H154 H 0.83756 0.54563 0.09852 0.0
C155 C 0.90476 0.65464 0.92391 0.0
C156 C 0.92285 0.61446 -0.00155 0.0
H157 H 0.84981 0.68657 0.85242 0.0
H158 H 0.92307 0.68493 0.87311 0.0
C159 C 0.89779 0.57588 0.06222 0.0
C160 C 0.26782 0.90561 0.42311 0.0
C161 C 0.28751 0.95469 0.37754 0.0
H162 H 0.22085 0.83842 0.38941 0.0
C163 C 0.27313 0.97421 0.25946 0.0
H164 H 0.27848 0.88875 0.51229 0.0
C165 C 0.23982 0.94555 0.1891 0.0
C166 C 0.22006 0.89645 0.23472 0.0
H167 H 0.28726 1.01233 0.22236 0.0
H168 H 0.22919 0.96251 0.10003 0.0
C169 C 0.23466 0.87679 0.3525 0.0
C170 C 0.50837 0.36081 0.71312 0.0
C171 C 0.54383 0.39679 0.73069 0.0
H172 H 0.48238 0.27259 0.67807 0.0
C173 C 0.58113 0.36971 0.72676 0.0
H174 H 0.47919 0.38036 0.71554 0.0
C175 C 0.58299 0.30813 0.70192 0.0
C176 C 0.54757 0.27215 0.68382 0.0
H177 H 0.60901 0.39618 0.73882 0.0
H178 H 0.61222 0.28867 0.69729 0.0
C179 C 0.51021 0.29912 0.69178 0.0
C180 C 0.03193 0.62187 0.60147 0.0
C181 C 0.05102 0.57095 0.6282 0.0
H182 H 1.02054 0.68059 0.45797 0.0
C183 C 0.07487 0.54057 0.52976 0.0
H184 H 1.01359 0.64625 0.67636 0.0
C185 C 0.07922 0.56068 0.40524 0.0
C186 C 0.05937 0.61087 0.37771 0.0
H187 H 0.09023 0.50158 0.54914 0.0
H188 H 0.09783 0.53678 0.33036 0.0
C189 C 0.03602 0.64163 0.47695 0.0
C190 C 0.58056 1.05894 0.18486 0.0
C191 C 0.54106 1.0645 0.22916 0.0
H192 H 0.62178 1.07022 0.02732 0.0
C193 C 0.51126 0.08309 0.14685 0.0
H194 H 0.60292 1.041 0.24428 0.0
C195 C 0.5215 0.09767 0.02119 0.0
C196 C 0.56162 0.09511 -0.01953 0.0
H197 H 0.48055 0.08761 0.18092 0.0
H198 H 0.49837 0.11112 0.95623 0.0
C199 C 0.59112 1.07532 0.06158 0.0
C200 C 0.52849 0.549 0.33153 0.0
C201 C 0.56099 0.58622 0.38377 0.0
H202 H 0.49022 0.5207 0.16129 0.0
C203 C 0.57953 0.62538 0.3046 0.0
H204 H 0.51366 0.51862 0.39149 0.0
C205 C 0.56583 0.62707 0.17394 0.0
C206 C 0.53386 0.58903 0.12072 0.0
H207 H 0.60432 0.65502 0.34392 0.0
H208 H 0.5801 0.65824 0.11493 0.0
C209 C 0.51507 0.55027 0.20042 0.0
loop_
_geom_bond_atom_site_label_1
_geom_bond_atom_site_label_2
_geom_bond_distance
_geom_bond_site_symmetry_2
_ccdc_geom_bond_type
Nd0 C2 2.836 . S
Nd0 O20 2.500 . S
Nd0 O21 2.492 . S
Nd0 O22 2.487 . S
Nd0 O23 2.682 . S
Nd0 O24 2.410 . S
Nd0 O29 2.414 1_554 S
Nd0 O31 2.424 1_455 S
Nd1 C11 2.836 1_455 S
Nd1 O23 2.414 . S
Nd1 O25 2.424 . S
Nd1 O26 2.500 1_455 S
Nd1 O27 2.492 1_454 S
Nd1 O28 2.487 1_554 S
Nd1 O29 2.682 1_554 S
Nd1 O30 2.410 1_455 S
C2 Nd0 2.836 . S
C2 C3 1.498 . S
C2 O20 1.258 . S
C2 O21 1.239 . S
C3 C2 1.498 . S
C3 C4 1.366 . S
C3 C8 1.407 . S
C4 C3 1.366 . S
C4 C5 1.392 . S
C4 H32 0.930 1_554 S
C5 C4 1.392 . S
C5 C6 1.398 . S
C5 H33 0.929 1_554 S
C6 C5 1.398 . S
C6 C7 1.352 . S
C7 C6 1.352 . S
C7 C8 1.384 . S
C7 H34 0.930 . S
C8 C3 1.407 . S
C8 C7 1.384 . S
C8 H35 0.929 . S
C9 O22 1.241 . S
C9 O23 1.273 . S
C10 O24 1.251 . S
C10 O25 1.268 . S
C11 Nd1 2.836 1_655 S
C11 C12 1.498 . S
C11 O26 1.258 . S
C11 O27 1.239 1_554 S
C12 C11 1.498 . S
C12 C13 1.366 . S
C12 C17 1.407 1_554 S
C13 C12 1.366 . S
C13 C14 1.392 . S
C13 H36 0.930 . S
C14 C13 1.392 . S
C14 C15 1.398 . S
C14 H37 0.929 . S
C15 C14 1.398 . S
C15 C16 1.352 1_554 S
C16 C15 1.352 1_556 S
C16 C17 1.384 . S
C16 H38 0.930 . S
C17 C12 1.407 1_556 S
C17 C16 1.384 . S
C17 H39 0.929 . S
C18 O28 1.241 . S
C18 O29 1.273 . S
C19 O30 1.251 . S
C19 O31 1.268 . S
O20 Nd0 2.500 . S
O20 C2 1.258 . S
O21 Nd0 2.492 . S
O21 C2 1.239 . S
O22 Nd0 2.487 . S
O22 C9 1.241 . S
O23 Nd0 2.682 . S
O23 Nd1 2.414 . S
O23 C9 1.273 . S
O24 Nd0 2.410 . S
O24 C10 1.251 . S
O25 Nd1 2.424 . S
O25 C10 1.268 . S
O26 Nd1 2.500 1_655 S
O26 C11 1.258 . S
O27 Nd1 2.492 1_656 S
O27 C11 1.239 1_556 S
O28 Nd1 2.487 1_556 S
O28 C18 1.241 . S
O29 Nd0 2.414 1_556 S
O29 Nd1 2.682 1_556 S
O29 C18 1.273 . S
O30 Nd1 2.410 1_655 S
O30 C19 1.251 . S
O31 Nd0 2.424 1_655 S
O31 C19 1.268 . S
H32 C4 0.930 1_556 S
H33 C5 0.929 1_556 S
H34 C7 0.930 . S
H35 C8 0.929 . S
H36 C13 0.930 . S
H37 C14 0.929 . S
H38 C16 0.930 . S
H39 C17 0.929 . S
Nd40 C42 2.836 1_545 S
Nd40 O60 2.500 1_545 S
Nd40 O61 2.492 1_545 S
Nd40 O62 2.487 1_545 S
Nd40 O63 2.682 . S
Nd40 O64 2.410 1_545 S
Nd40 O69 2.414 . S
Nd40 O71 2.424 . S
Nd41 C51 2.836 . S
Nd41 O63 2.414 . S
Nd41 O65 2.424 1_545 S
Nd41 O66 2.500 . S
Nd41 O67 2.492 . S
Nd41 O68 2.487 . S
Nd41 O69 2.682 . S
Nd41 O70 2.410 . S
C42 Nd40 2.836 1_565 S
C42 C43 1.498 . S
C42 O60 1.258 . S
C42 O61 1.239 . S
C43 C42 1.498 . S
C43 C44 1.366 . S
C43 C48 1.407 . S
C44 C43 1.366 . S
C44 C45 1.392 . S
C44 H72 0.930 . S
C45 C44 1.392 . S
C45 C46 1.398 . S
C45 H73 0.929 . S
C46 C45 1.398 . S
C46 C47 1.352 . S
C47 C46 1.352 . S
C47 C48 1.384 . S
C47 H74 0.930 . S
C48 C43 1.407 . S
C48 C47 1.384 . S
C48 H75 0.929 . S
C49 O62 1.241 1_545 S
C49 O63 1.273 . S
C50 O64 1.251 . S
C50 O65 1.268 . S
C51 Nd41 2.836 . S
C51 C52 1.498 . S
C51 O66 1.258 . S
C51 O67 1.239 . S
C52 C51 1.498 . S
C52 C53 1.366 . S
C52 C57 1.407 . S
C53 C52 1.366 . S
C53 C54 1.392 . S
C53 H76 0.930 . S
C54 C53 1.392 . S
C54 C55 1.398 . S
C54 H77 0.929 . S
C55 C54 1.398 . S
C55 C56 1.352 . S
C56 C55 1.352 . S
C56 C57 1.384 . S
C56 H78 0.930 . S
C57 C52 1.407 . S
C57 C56 1.384 . S
C57 H79 0.929 . S
C58 O68 1.241 . S
C58 O69 1.273 . S
C59 O70 1.251 . S
C59 O71 1.268 . S
O60 Nd40 2.500 1_565 S
O60 C42 1.258 . S
O61 Nd40 2.492 1_565 S
O61 C42 1.239 . S
O62 Nd40 2.487 1_565 S
O62 C49 1.241 1_565 S
O63 Nd40 2.682 . S
O63 Nd41 2.414 . S
O63 C49 1.273 . S
O64 Nd40 2.410 1_565 S
O64 C50 1.251 . S
O65 Nd41 2.424 1_565 S
O65 C50 1.268 . S
O66 Nd41 2.500 . S
O66 C51 1.258 . S
O67 Nd41 2.492 . S
O67 C51 1.239 . S
O68 Nd41 2.487 . S
O68 C58 1.241 . S
O69 Nd40 2.414 . S
O69 Nd41 2.682 . S
O69 C58 1.273 . S
O70 Nd41 2.410 . S
O70 C59 1.251 . S
O71 Nd40 2.424 . S
O71 C59 1.268 . S
H72 C44 0.930 . S
H73 C45 0.929 . S
H74 C47 0.930 . S
H75 C48 0.929 . S
H76 C53 0.930 . S
H77 C54 0.929 . S
H78 C56 0.930 . S
H79 C57 0.929 . S
Nd80 C82 2.836 . S
Nd80 O100 2.500 . S
Nd80 O101 2.492 . S
Nd80 O102 2.487 1_556 S
Nd80 O103 2.682 . S
Nd80 O104 2.410 . S
Nd80 O109 2.414 . S
Nd80 O111 2.424 . S
Nd81 C91 2.836 . S
Nd81 O103 2.414 . S
Nd81 O105 2.424 . S
Nd81 O106 2.500 . S
Nd81 O107 2.492 . S
Nd81 O108 2.487 . S
Nd81 O109 2.682 . S
Nd81 O110 2.410 . S
C82 Nd80 2.836 . S
C82 C83 1.498 . S
C82 O100 1.258 . S
C82 O101 1.239 . S
C83 C82 1.498 . S
C83 C84 1.366 . S
C83 C88 1.407 . S
C84 C83 1.366 . S
C84 C85 1.392 . S
C84 H112 0.930 . S
C85 C84 1.392 . S
C85 C86 1.398 . S
C85 H113 0.929 . S
C86 C85 1.398 . S
C86 C87 1.352 . S
C87 C86 1.352 . S
C87 C88 1.384 . S
C87 H114 0.930 . S
C88 C83 1.407 . S
C88 C87 1.384 . S
C88 H115 0.929 . S
C89 O102 1.241 . S
C89 O103 1.273 1_554 S
C90 O104 1.251 . S
C90 O105 1.268 . S
C91 Nd81 2.836 . S
C91 C92 1.498 . S
C91 O106 1.258 . S
C91 O107 1.239 . S
C92 C91 1.498 . S
C92 C93 1.366 . S
C92 C97 1.407 . S
C93 C92 1.366 . S
C93 C94 1.392 . S
C93 H116 0.930 1_556 S
C94 C93 1.392 . S
C94 C95 1.398 . S
C94 H117 0.929 1_556 S
C95 C94 1.398 . S
C95 C96 1.352 . S
C96 C95 1.352 . S
C96 C97 1.384 . S
C96 H118 0.930 . S
C97 C92 1.407 . S
C97 C96 1.384 . S
C97 H119 0.929 . S
C98 O108 1.241 . S
C98 O109 1.273 . S
C99 O110 1.251 . S
C99 O111 1.268 . S
O100 Nd80 2.500 . S
O100 C82 1.258 . S
O101 Nd80 2.492 . S
O101 C82 1.239 . S
O102 Nd80 2.487 1_554 S
O102 C89 1.241 . S
O103 Nd80 2.682 . S
O103 Nd81 2.414 . S
O103 C89 1.273 1_556 S
O104 Nd80 2.410 . S
O104 C90 1.251 . S
O105 Nd81 2.424 . S
O105 C90 1.268 . S
O106 Nd81 2.500 . S
O106 C91 1.258 . S
O107 Nd81 2.492 . S
O107 C91 1.239 . S
O108 Nd81 2.487 . S
O108 C98 1.241 . S
O109 Nd80 2.414 . S
O109 Nd81 2.682 . S
O109 C98 1.273 . S
O110 Nd81 2.410 . S
O110 C99 1.251 . S
O111 Nd80 2.424 . S
O111 C99 1.268 . S
H112 C84 0.930 . S
H113 C85 0.929 . S
H114 C87 0.930 . S
H115 C88 0.929 . S
H116 C93 0.930 1_554 S
H117 C94 0.929 1_554 S
H118 C96 0.930 . S
H119 C97 0.929 . S
C120 C121 1.387 1_556 S
C120 H124 0.950 . S
C120 C129 1.390 . S
C121 C120 1.387 1_554 S
C121 C123 1.387 . S
H122 C129 0.950 . S
C123 C121 1.387 . S
C123 C125 1.390 . S
C123 H127 0.950 . S
H124 C120 0.950 . S
C125 C123 1.390 . S
C125 C126 1.387 1_554 S
C125 H128 0.950 . S
C126 C125 1.387 1_556 S
C126 C129 1.387 . S
H127 C123 0.950 . S
H128 C125 0.950 . S
C129 C120 1.390 . S
C129 H122 0.950 . S
C129 C126 1.387 . S
C130 C131 1.387 . S
C130 H134 0.950 . S
C130 C139 1.390 . S
C131 C130 1.387 . S
C131 C133 1.387 . S
H132 C139 0.950 . S
C133 C131 1.387 . S
C133 C135 1.390 . S
C133 H137 0.950 . S
H134 C130 0.950 . S
C135 C133 1.390 . S
C135 C136 1.387 . S
C135 H138 0.950 . S
C136 C135 1.387 . S
C136 C139 1.387 . S
H137 C133 0.950 . S
H138 C135 0.950 . S
C139 C130 1.390 . S
C139 H132 0.950 . S
C139 C136 1.387 . S
C140 C141 1.387 . S
C140 H144 0.950 . S
C140 C149 1.390 . S
C141 C140 1.387 . S
C141 C143 1.387 . S
H142 C149 0.950 . S
C143 C141 1.387 . S
C143 C145 1.390 . S
C143 H147 0.950 . S
H144 C140 0.950 . S
C145 C143 1.390 . S
C145 C146 1.387 . S
C145 H148 0.950 . S
C146 C145 1.387 . S
C146 C149 1.387 . S
H147 C143 0.950 . S
H148 C145 0.950 . S
C149 C140 1.390 . S
C149 H142 0.950 . S
C149 C146 1.387 . S
C150 C151 1.387 1_554 S
C150 H154 0.950 . S
C150 C159 1.390 . S
C151 C150 1.387 1_556 S
C151 C153 1.387 . S
H152 C159 0.950 . S
C153 C151 1.387 . S
C153 C155 1.390 . S
C153 H157 0.950 . S
H154 C150 0.950 . S
C155 C153 1.390 . S
C155 C156 1.387 1_556 S
C155 H158 0.950 . S
C156 C155 1.387 1_554 S
C156 C159 1.387 . S
H157 C153 0.950 . S
H158 C155 0.950 . S
C159 C150 1.390 . S
C159 H152 0.950 . S
C159 C156 1.387 . S
C160 C161 1.387 . S
C160 H164 0.950 . S
C160 C169 1.390 . S
C161 C160 1.387 . S
C161 C163 1.387 . S
H162 C169 0.950 . S
C163 C161 1.387 . S
C163 C165 1.390 . S
C163 H167 0.950 . S
H164 C160 0.950 . S
C165 C163 1.390 . S
C165 C166 1.387 . S
C165 H168 0.950 . S
C166 C165 1.387 . S
C166 C169 1.387 . S
H167 C163 0.950 . S
H168 C165 0.950 . S
C169 C160 1.390 . S
C169 H162 0.950 . S
C169 C166 1.387 . S
C170 C171 1.387 . S
C170 H174 0.950 . S
C170 C179 1.390 . S
C171 C170 1.387 . S
C171 C173 1.387 . S
H172 C179 0.950 . S
C173 C171 1.387 . S
C173 C175 1.390 . S
C173 H177 0.950 . S
H174 C170 0.950 . S
C175 C173 1.390 . S
C175 C176 1.387 . S
C175 H178 0.950 . S
C176 C175 1.387 . S
C176 C179 1.387 . S
H177 C173 0.950 . S
H178 C175 0.950 . S
C179 C170 1.390 . S
C179 H172 0.950 . S
C179 C176 1.387 . S
C180 C181 1.387 . S
C180 H184 0.950 1_455 S
C180 C189 1.390 . S
C181 C180 1.387 . S
C181 C183 1.387 . S
H182 C189 0.949 1_655 S
C183 C181 1.387 . S
C183 C185 1.390 . S
C183 H187 0.950 . S
H184 C180 0.950 1_655 S
C185 C183 1.390 . S
C185 C186 1.387 . S
C185 H188 0.950 . S
C186 C185 1.387 . S
C186 C189 1.388 . S
H187 C183 0.950 . S
H188 C185 0.950 . S
C189 C180 1.390 . S
C189 H182 0.949 1_455 S
C189 C186 1.388 . S
C190 C191 1.387 1_565 S
C190 H194 0.950 . S
C190 C199 1.390 1_554 S
C191 C190 1.387 1_545 S
C191 C193 1.387 . S
H192 C199 0.950 . S
C193 C191 1.387 . S
C193 C195 1.390 1_554 S
C193 H197 0.950 . S
H194 C190 0.950 . S
C195 C193 1.390 1_556 S
C195 C196 1.387 . S
C195 H198 0.950 . S
C196 C195 1.387 . S
C196 C199 1.387 1_545 S
H197 C193 0.950 . S
H198 C195 0.950 . S
C199 C190 1.390 1_556 S
C199 H192 0.950 . S
C199 C196 1.387 1_565 S
C200 C201 1.387 . S
C200 H204 0.950 . S
C200 C209 1.390 . S
C201 C200 1.387 . S
C201 C203 1.387 . S
H202 C209 0.950 . S
C203 C201 1.387 . S
C203 C205 1.390 . S
C203 H207 0.950 . S
H204 C200 0.950 . S
C205 C203 1.390 . S
C205 C206 1.387 . S
C205 H208 0.950 . S
C206 C205 1.387 . S
C206 C209 1.387 . S
H207 C203 0.950 . S
H208 C205 0.950 . S
C209 C200 1.390 . S
C209 H202 0.950 . S
C209 C206 1.387 . S
C121 C10 2.811 . S
C126 C86 2.590 . S
C131 C55 1.778 . S
C136 C15 1.780 . S
C141 C50 2.961 . S
C146 C90 2.877 . S
C151 C95 2.325 . S
C156 C19 2.369 . S
C161 C46 1.596 . S
C166 C6 1.614 . S
C171 C99 2.615 . S
C176 C59 2.684 . S
C181 C18 0.776 . S
C186 C9 0.776 . S
C191 C49 0.766 . S
C196 C58 0.766 . S
C201 C98 0.768 . S
C206 C89 0.768 . S
