# Generated by pormake.
# Topology hex, (8)-cn, num edge types: 1
# Building blocks:
#     Node 0, Type 0, BuildingBlock: EBIMEJ_clean_sbu_0, # of connection points: 8
#     Edge 1, Type (0, 0), BuildingBlock: OJICUG_clean_linker_0, # of connection points: 2
#     Edge 2, Type (0, 0), BuildingBlock: OJICUG_clean_linker_0, # of connection points: 2
#     Edge 3, Type (0, 0), BuildingBlock: OJICUG_clean_linker_0, # of connection points: 2
#     Edge 4, Type (0, 0), BuildingBlock: OJICUG_clean_linker_0, # of connection points: 2
# Relax obj value: 0.009
# Max RMSD: 0.048
# Mean RMSD: 0.048
data_MOF--net-hex--node1-EBIMEJ_clean_sbu_0--edge1-OJICUG_clean_linker_0
_symmetry_space_group_name_H-M    P1
_symmetry_Int_Tables_number       1
_symmetry_cell_setting            triclinic
loop_
_symmetry_equiv_pos_as_xyz
'x, y, z'
_cell_length_a     13.64912
_cell_length_b     16.156947
_cell_length_c     12.180417
_cell_angle_alpha  75.398695
_cell_angle_beta   112.93855
_cell_angle_gamma 126.74122
loop_
_atom_site_label
_atom_site_type_symbol
_atom_site_fract_x
_atom_site_fract_y
_atom_site_fract_z
_atom_type_partial_charge
Co0 Co 0.98047 0.85285 0.93967 0.0
Co1 Co 0.86455 0.95594 0.00267 0.0
Co2 Co 0.13471 0.09035 0.98716 0.0
H3 H 0.04457 0.96888 0.98934 0.0
O4 O 0.01107 0.9449 0.04638 0.0
H5 H 0.95469 0.0774 0.00049 0.0
O6 O 0.98818 0.10138 0.94345 0.0
Co7 Co 0.01879 0.19344 0.05016 0.0
O8 O 0.8362 0.12836 0.04606 0.0
O9 O 0.72204 0.97458 0.96361 0.0
O10 O 0.20532 0.30274 0.05913 0.0
O11 O 0.25376 0.24091 0.95708 0.0
O12 O 0.00559 0.76191 0.87777 0.0
O13 O 0.96161 0.72248 0.03662 0.0
O14 O 0.07111 0.1409 0.21365 0.0
O15 O 0.90844 0.97698 0.17673 0.0
C16 C 0.27014 1.00005 0.98946 0.0
C17 C 0.72173 0.73108 0.98401 0.0
C18 C 0.01422 0.34789 0.02584 0.0
C19 C 0.00214 0.99579 0.74025 0.0
C20 C 0.72912 0.04624 0.00037 0.0
C21 C 0.27752 0.31521 0.00582 0.0
C22 C 0.98503 0.69839 0.96399 0.0
C23 C 0.99712 0.05049 0.24958 0.0
O24 O 0.16306 0.91793 0.94377 0.0
O25 O 0.27722 0.07171 0.02622 0.0
O26 O 0.7455 0.80538 0.03275 0.0
O27 O 0.79394 0.74354 0.9307 0.0
O28 O 0.99367 0.28437 0.11205 0.0
O29 O 0.03765 0.32381 0.95321 0.0
O30 O 0.92814 0.90538 0.77618 0.0
O31 O 0.09082 0.0693 0.8131 0.0
C32 C 0.03785 0.50818 0.91452 0.0
C33 C 0.00751 0.43784 0.01029 0.0
H34 H 0.05446 0.64632 0.82491 0.0
C35 C 0.96923 0.45342 0.09057 0.0
H36 H 0.06779 0.4979 0.8515 0.0
C37 C 0.96141 0.5381 0.07531 0.0
C38 C 0.99175 0.60845 0.97954 0.0
H39 H 0.9448 0.39997 0.16492 0.0
H40 H 0.93147 0.54839 0.13832 0.0
C41 C 0.03003 0.59286 0.89926 0.0
C42 C 0.49089 0.93973 0.96618 0.0
C43 C 0.61078 0.03428 -0.00491 0.0
H44 H 0.29036 0.85439 0.94354 0.0
C45 C 0.61811 0.11758 0.02375 0.0
H46 H 0.4818 0.87385 0.94474 0.0
C47 C 0.50837 0.10655 0.02365 0.0
C48 C 0.38848 1.01201 0.99473 0.0
H49 H 0.7089 0.19189 0.04629 0.0
H50 H 0.51746 0.17243 0.04509 0.0
C51 C 0.38115 0.9287 0.96608 0.0
C52 C 0.41413 0.50408 0.04838 0.0
C53 C 0.39177 0.4213 0.00034 0.0
H54 H 0.53478 0.66623 0.08093 0.0
C55 C 0.47858 0.44166 0.94675 0.0
H56 H 0.34907 0.49157 0.09013 0.0
C57 C 0.58513 0.54221 0.94144 0.0
C58 C 0.60749 0.62498 0.98948 0.0
H59 H 0.46448 0.38005 0.9089 0.0
H60 H 0.65019 0.55471 0.8997 0.0
C61 C 0.52068 0.60462 0.04308 0.0
C62 C 0.90717 0.92878 0.53425 0.0
C63 C 0.99735 1.01148 0.6133 0.0
H64 H 0.83775 0.87526 0.35889 0.0
C65 C 0.08978 0.10601 0.57239 0.0
H66 H 0.83512 0.85444 0.56277 0.0
C67 C 0.09209 0.11751 0.45558 0.0
C68 C 0.00191 0.0348 0.37653 0.0
H69 H 0.16151 0.17102 0.63093 0.0
H70 H 0.16414 0.19184 0.42705 0.0
C71 C 0.90948 0.94027 0.41744 0.0
loop_
_geom_bond_atom_site_label_1
_geom_bond_atom_site_label_2
_geom_bond_distance
_geom_bond_site_symmetry_2
_ccdc_geom_bond_type
Co0 H3 2.400 1_556 S
Co0 O4 2.009 1_556 S
Co0 O12 2.115 1_455 S
Co0 O13 2.315 1_556 S
Co0 O24 2.053 . S
Co0 O27 2.094 1_455 S
Co0 O30 2.122 1_455 S
Co1 O4 2.126 1_655 S
Co1 H5 2.388 1_564 S
Co1 O6 2.053 1_564 S
Co1 O9 2.047 1_554 S
Co1 O15 2.113 . S
Co1 O26 2.063 . S
Co2 H3 2.388 1_546 S
Co2 O4 2.053 1_546 S
Co2 O6 2.126 1_455 S
Co2 O11 2.063 . S
Co2 O25 2.047 1_556 S
Co2 O31 2.113 . S
H3 Co0 2.400 1_554 S
H3 Co2 2.388 1_564 S
H3 O4 0.760 . S
O4 Co0 2.009 1_554 S
O4 Co1 2.126 1_455 S
O4 Co2 2.053 1_564 S
O4 H3 0.760 . S
H5 Co1 2.388 1_546 S
H5 O6 0.760 . S
H5 Co7 2.400 1_556 S
O6 Co1 2.053 1_546 S
O6 Co2 2.126 1_655 S
O6 H5 0.760 . S
O6 Co7 2.009 1_556 S
Co7 H5 2.400 1_554 S
Co7 O6 2.009 1_554 S
Co7 O8 2.053 . S
Co7 O10 2.094 1_655 S
Co7 O14 2.122 1_655 S
Co7 O28 2.115 1_655 S
Co7 O29 2.315 1_554 S
O8 Co7 2.053 . S
O8 C20 1.259 . S
O9 Co1 2.047 1_556 S
O9 C20 1.257 1_566 S
O10 Co7 2.094 1_455 S
O10 C21 1.253 . S
O11 Co2 2.063 . S
O11 C21 1.268 1_556 S
O12 Co0 2.115 1_655 S
O12 C22 1.281 1_556 S
O13 Co0 2.315 1_554 S
O13 C22 1.252 1_455 S
O14 Co7 2.122 1_455 S
O14 C23 1.272 1_455 S
O15 Co1 2.113 . S
O15 C23 1.245 1_565 S
C16 O24 1.259 . S
C16 O25 1.257 1_566 S
C17 O26 1.268 1_556 S
C17 O27 1.253 . S
C18 O28 1.281 1_556 S
C18 O29 1.252 1_455 S
C19 O30 1.272 1_455 S
C19 O31 1.245 1_565 S
C20 O8 1.259 . S
C20 O9 1.257 1_544 S
C21 O10 1.253 . S
C21 O11 1.268 1_554 S
C22 O12 1.281 1_554 S
C22 O13 1.252 1_655 S
C23 O14 1.272 1_655 S
C23 O15 1.245 1_545 S
O24 Co0 2.053 . S
O24 C16 1.259 . S
O25 Co2 2.047 1_554 S
O25 C16 1.257 1_544 S
O26 Co1 2.063 . S
O26 C17 1.268 1_554 S
O27 Co0 2.094 1_655 S
O27 C17 1.253 . S
O28 Co7 2.115 1_455 S
O28 C18 1.281 1_554 S
O29 Co7 2.315 1_556 S
O29 C18 1.252 1_655 S
O30 Co0 2.122 1_655 S
O30 C19 1.272 1_655 S
O31 Co2 2.113 . S
O31 C19 1.245 1_545 S
C32 C33 1.387 . S
C32 H36 0.950 . S
C32 C41 1.390 . S
C33 C32 1.387 . S
C33 C35 1.387 1_456 S
H34 C41 0.950 . S
C35 C33 1.387 1_654 S
C35 C37 1.390 . S
C35 H39 0.950 . S
H36 C32 0.950 . S
C37 C35 1.390 . S
C37 C38 1.387 . S
C37 H40 0.950 . S
C38 C37 1.387 . S
C38 C41 1.387 1_654 S
H39 C35 0.950 . S
H40 C37 0.950 . S
C41 C32 1.390 . S
C41 H34 0.950 . S
C41 C38 1.387 1_456 S
C42 C43 1.387 . S
C42 H46 0.950 . S
C42 C51 1.390 . S
C43 C42 1.387 . S
C43 C45 1.387 1_564 S
H44 C51 0.950 . S
C45 C43 1.387 1_546 S
C45 C47 1.390 . S
C45 H49 0.950 . S
H46 C42 0.950 . S
C47 C45 1.390 . S
C47 C48 1.387 . S
C47 H50 0.950 . S
C48 C47 1.387 . S
C48 C51 1.387 1_546 S
H49 C45 0.950 . S
H50 C47 0.950 . S
C51 C42 1.390 . S
C51 H44 0.950 . S
C51 C48 1.387 1_564 S
C52 C53 1.387 . S
C52 H56 0.950 . S
C52 C61 1.390 . S
C53 C52 1.387 . S
C53 C55 1.387 1_554 S
H54 C61 0.950 . S
C55 C53 1.387 1_556 S
C55 C57 1.390 . S
C55 H59 0.950 . S
H56 C52 0.950 . S
C57 C55 1.390 . S
C57 C58 1.387 . S
C57 H60 0.950 . S
C58 C57 1.387 . S
C58 C61 1.387 1_556 S
H59 C55 0.950 . S
H60 C57 0.950 . S
C61 C52 1.390 . S
C61 H54 0.950 . S
C61 C58 1.387 1_554 S
C62 C63 1.399 1_655 S
C62 H66 0.950 . S
C62 C71 1.390 . S
C63 C62 1.399 1_455 S
C63 C65 1.380 1_565 S
H64 C71 0.950 . S
C65 C63 1.380 1_545 S
C65 C67 1.390 . S
C65 H69 0.950 . S
H66 C62 0.950 . S
C67 C65 1.390 . S
C67 C68 1.390 1_455 S
C67 H70 0.950 . S
C68 C67 1.390 1_655 S
C68 C71 1.390 1_545 S
H69 C65 0.950 . S
H70 C67 0.950 . S
C71 C62 1.390 . S
C71 H64 0.950 . S
C71 C68 1.390 1_565 S
C33 C18 1.578 . S
C38 C22 1.578 . S
C43 C20 1.170 1_565 S
C48 C16 1.170 1_545 S
C53 C21 1.715 . S
C58 C17 1.715 . S
C63 C19 1.463 . S
C68 C23 1.461 . S
