# Generated by pormake.
# Topology dmp, (4)-cn, num edge types: 1
# Building blocks:
#     Node 0, Type 0, BuildingBlock: GALJAG_clean_sbu_0, # of connection points: 4
#     Node 1, Type 0, BuildingBlock: GALJAG_clean_sbu_0, # of connection points: 4
#     Node 2, Type 0, BuildingBlock: GALJAG_clean_sbu_0, # of connection points: 4
#     Node 3, Type 0, BuildingBlock: GALJAG_clean_sbu_0, # of connection points: 4
#     Edge 4, Type (0, 0), BuildingBlock: EYOCIG_clean_linker_4, # of connection points: 2
#     Edge 5, Type (0, 0), BuildingBlock: EYOCIG_clean_linker_4, # of connection points: 2
#     Edge 6, Type (0, 0), BuildingBlock: EYOCIG_clean_linker_4, # of connection points: 2
#     Edge 7, Type (0, 0), BuildingBlock: EYOCIG_clean_linker_4, # of connection points: 2
#     Edge 8, Type (0, 0), BuildingBlock: EYOCIG_clean_linker_4, # of connection points: 2
#     Edge 9, Type (0, 0), BuildingBlock: EYOCIG_clean_linker_4, # of connection points: 2
#     Edge 10, Type (0, 0), BuildingBlock: EYOCIG_clean_linker_4, # of connection points: 2
#     Edge 11, Type (0, 0), BuildingBlock: EYOCIG_clean_linker_4, # of connection points: 2
# Relax obj value: 0.059
# Max RMSD: 0.179
# Mean RMSD: 0.179
data_MOF--net-dmp--node1-GALJAG_clean_sbu_0--edge1-EYOCIG_clean_linker_4
_symmetry_space_group_name_H-M    P1
_symmetry_Int_Tables_number       1
_symmetry_cell_setting            triclinic
loop_
_symmetry_equiv_pos_as_xyz
'x, y, z'
_cell_length_a     30.982153
_cell_length_b     15.846448
_cell_length_c     11.63395
_cell_angle_alpha  89.990525
_cell_angle_beta   90.241354
_cell_angle_gamma 89.993918
loop_
_atom_site_label
_atom_site_type_symbol
_atom_site_fract_x
_atom_site_fract_y
_atom_site_fract_z
_atom_type_partial_charge
In0 In 0.07784 0.28343 0.17566 0.0
O1 O 0.10899 0.36262 0.03322 0.0
O2 O 0.13267 0.37524 0.20501 0.0
C3 C 0.02462 0.17903 0.05994 0.0
C4 C 0.0253 0.38815 0.29196 0.0
C5 C 0.13539 0.16898 0.24993 0.0
O6 O 0.04727 0.23371 0.00938 0.0
O7 O 0.02775 0.17838 0.16793 0.0
O8 O 0.10922 0.20389 0.31802 0.0
O9 O 0.13214 0.19061 0.14611 0.0
C10 C 0.13562 0.39693 0.10122 0.0
O11 O 0.04812 0.33333 0.3422 0.0
O12 O 0.02796 0.38891 0.18393 0.0
In13 In 0.35149 0.78327 0.17631 0.0
O14 O 0.32008 0.86202 0.31878 0.0
O15 O 0.29675 0.87529 0.14674 0.0
C16 C 0.40483 0.67898 0.29193 0.0
C17 C 0.40408 0.88799 0.06018 0.0
C18 C 0.29388 0.66902 0.10195 0.0
O19 O 0.38229 0.73383 0.34249 0.0
O20 O 0.40152 0.67807 0.18398 0.0
O21 O 0.31993 0.70422 0.0338 0.0
O22 O 0.29731 0.69021 0.20589 0.0
C23 C 0.29359 0.8966 0.25061 0.0
O24 O 0.38147 0.83286 0.00992 0.0
O25 O 0.40118 0.88908 0.16815 0.0
In26 In 0.8519 0.78148 0.6773 0.0
O27 O 0.88252 0.73131 0.51211 0.0
O28 O 0.90191 0.67622 0.67146 0.0
C29 C 0.79398 0.89548 0.60398 0.0
C30 C 0.79396 0.66784 0.75033 0.0
C31 C 0.90505 0.88691 0.79125 0.0
O32 O 0.81978 0.86017 0.53519 0.0
O33 O 0.79781 0.87445 0.70791 0.0
O34 O 0.8828 0.83196 0.84265 0.0
O35 O 0.90155 0.88729 0.68332 0.0
C36 C 0.90516 0.67675 0.56354 0.0
O37 O 0.82011 0.70272 0.81914 0.0
O38 O 0.7975 0.68897 0.64645 0.0
In39 In 0.57751 0.28192 0.67611 0.0
O40 O 0.60938 0.20292 0.53469 0.0
O41 O 0.63189 0.18942 0.70752 0.0
C42 C 0.52456 0.38734 0.5614 0.0
C43 C 0.52418 0.17701 0.78934 0.0
C44 C 0.6353 0.3959 0.75012 0.0
O45 O 0.54704 0.33262 0.51029 0.0
O46 O 0.52773 0.3875 0.6694 0.0
O47 O 0.60927 0.36083 0.81853 0.0
O48 O 0.63177 0.37462 0.64623 0.0
C49 C 0.63547 0.16808 0.60374 0.0
O50 O 0.54677 0.23151 0.84101 0.0
O51 O 0.52748 0.17669 0.68143 0.0
C52 C 0.23178 1.0037 0.30203 0.0
C53 C 0.26092 0.95462 0.28718 0.0
C54 C 0.19691 0.06095 0.30179 0.0
C55 C 0.16793 0.11045 0.28663 0.0
C56 C 0.19734 0.50418 0.04968 0.0
C57 C 0.16822 0.45506 0.06456 0.0
C58 C 0.23223 0.56135 0.04996 0.0
C59 C 0.26126 0.61072 0.06518 0.0
C60 C 0.69734 0.06063 0.55367 0.0
C61 C 0.66823 0.10989 0.56818 0.0
C62 C 0.73219 1.00333 0.55357 0.0
C63 C 0.76125 0.95387 0.56805 0.0
C64 C 0.73198 0.56078 0.80093 0.0
C65 C 0.76114 0.60986 0.78624 0.0
C66 C 0.69706 0.50364 0.80106 0.0
C67 C 0.66798 0.45425 0.78644 0.0
C68 C -0.02268 0.06509 -0.0483 0.0
C69 C -0.00086 0.11778 -0.00096 0.0
C70 C 0.95234 1.00159 0.89807 0.0
C71 C 0.93055 0.9486 0.85123 0.0
C72 C 0.47642 0.06364 0.89634 0.0
C73 C 0.4984 0.11592 0.8491 0.0
C74 C 0.45132 1.00098 -0.04914 0.0
C75 C 0.42954 0.94877 -0.00111 0.0
C76 C 0.95296 0.56368 0.45608 0.0
C77 C 0.93096 0.61583 0.5035 0.0
C78 C -0.02191 0.50113 0.40141 0.0
C79 C -0.00015 0.44894 0.35328 0.0
C80 C 0.45233 0.56532 0.40021 0.0
C81 C 0.43042 0.61789 0.35282 0.0
C82 C 0.47735 0.50193 0.45401 0.0
C83 C 0.49911 0.44899 0.50109 0.0
loop_
_geom_bond_atom_site_label_1
_geom_bond_atom_site_label_2
_geom_bond_distance
_geom_bond_site_symmetry_2
_ccdc_geom_bond_type
In0 O1 2.294 . S
In0 O2 2.326 . S
In0 O6 2.266 . S
In0 O7 2.326 . S
In0 O8 2.266 . S
In0 O9 2.326 . S
In0 O11 2.294 . S
In0 O12 2.326 . S
O1 In0 2.294 . S
O1 C10 1.240 . S
O2 In0 2.326 . S
O2 C10 1.252 . S
C3 O6 1.252 . S
C3 O7 1.260 . S
C4 O11 1.240 . S
C4 O12 1.252 . S
C5 O8 1.252 . S
C5 O9 1.260 . S
O6 In0 2.266 . S
O6 C3 1.252 . S
O7 In0 2.326 . S
O7 C3 1.260 . S
O8 In0 2.266 . S
O8 C5 1.252 . S
O9 In0 2.326 . S
O9 C5 1.260 . S
C10 O1 1.240 . S
C10 O2 1.252 . S
O11 In0 2.294 . S
O11 C4 1.240 . S
O12 In0 2.326 . S
O12 C4 1.252 . S
In13 O14 2.294 . S
In13 O15 2.326 . S
In13 O19 2.266 . S
In13 O20 2.326 . S
In13 O21 2.266 . S
In13 O22 2.326 . S
In13 O24 2.294 . S
In13 O25 2.326 . S
O14 In13 2.294 . S
O14 C23 1.240 . S
O15 In13 2.326 . S
O15 C23 1.252 . S
C16 O19 1.252 . S
C16 O20 1.260 . S
C17 O24 1.240 . S
C17 O25 1.252 . S
C18 O21 1.252 . S
C18 O22 1.260 . S
O19 In13 2.266 . S
O19 C16 1.252 . S
O20 In13 2.326 . S
O20 C16 1.260 . S
O21 In13 2.266 . S
O21 C18 1.252 . S
O22 In13 2.326 . S
O22 C18 1.260 . S
C23 O14 1.240 . S
C23 O15 1.252 . S
O24 In13 2.294 . S
O24 C17 1.240 . S
O25 In13 2.326 . S
O25 C17 1.252 . S
In26 O27 2.294 . S
In26 O28 2.326 . S
In26 O32 2.266 . S
In26 O33 2.326 . S
In26 O34 2.266 . S
In26 O35 2.326 . S
In26 O37 2.294 . S
In26 O38 2.326 . S
O27 In26 2.294 . S
O27 C36 1.240 . S
O28 In26 2.326 . S
O28 C36 1.252 . S
C29 O32 1.252 . S
C29 O33 1.260 . S
C30 O37 1.240 . S
C30 O38 1.252 . S
C31 O34 1.252 . S
C31 O35 1.260 . S
O32 In26 2.266 . S
O32 C29 1.252 . S
O33 In26 2.326 . S
O33 C29 1.260 . S
O34 In26 2.266 . S
O34 C31 1.252 . S
O35 In26 2.326 . S
O35 C31 1.260 . S
C36 O27 1.240 . S
C36 O28 1.252 . S
O37 In26 2.294 . S
O37 C30 1.240 . S
O38 In26 2.326 . S
O38 C30 1.252 . S
In39 O40 2.294 . S
In39 O41 2.326 . S
In39 O45 2.266 . S
In39 O46 2.326 . S
In39 O47 2.266 . S
In39 O48 2.326 . S
In39 O50 2.294 . S
In39 O51 2.326 . S
O40 In39 2.294 . S
O40 C49 1.240 . S
O41 In39 2.326 . S
O41 C49 1.252 . S
C42 O45 1.252 . S
C42 O46 1.260 . S
C43 O50 1.240 . S
C43 O51 1.252 . S
C44 O47 1.252 . S
C44 O48 1.260 . S
O45 In39 2.266 . S
O45 C42 1.252 . S
O46 In39 2.326 . S
O46 C42 1.260 . S
O47 In39 2.266 . S
O47 C44 1.252 . S
O48 In39 2.326 . S
O48 C44 1.260 . S
C49 O40 1.240 . S
C49 O41 1.252 . S
O50 In39 2.294 . S
O50 C43 1.240 . S
O51 In39 2.326 . S
O51 C43 1.252 . S
C52 C53 1.170 . S
C52 C54 1.380 1_565 S
C53 C52 1.170 . S
C54 C52 1.380 1_545 S
C54 C55 1.170 . S
C55 C54 1.170 . S
C56 C57 1.170 . S
C56 C58 1.380 . S
C57 C56 1.170 . S
C58 C56 1.380 . S
C58 C59 1.170 . S
C59 C58 1.170 . S
C60 C61 1.170 . S
C60 C62 1.380 1_545 S
C61 C60 1.170 . S
C62 C60 1.380 1_565 S
C62 C63 1.170 . S
C63 C62 1.170 . S
C64 C65 1.170 . S
C64 C66 1.380 . S
C65 C64 1.170 . S
C66 C64 1.380 . S
C66 C67 1.170 . S
C67 C66 1.170 . S
C68 C69 1.170 . S
C68 C70 1.380 1_444 S
C69 C68 1.170 . S
C70 C68 1.380 1_666 S
C70 C71 1.170 . S
C71 C70 1.170 . S
C72 C73 1.170 . S
C72 C74 1.380 1_546 S
C73 C72 1.170 . S
C74 C72 1.380 1_564 S
C74 C75 1.170 . S
C75 C74 1.170 . S
C76 C77 1.170 . S
C76 C78 1.380 1_655 S
C77 C76 1.170 . S
C78 C76 1.380 1_455 S
C78 C79 1.170 . S
C79 C78 1.170 . S
C80 C81 1.170 . S
C80 C82 1.380 . S
C81 C80 1.170 . S
C82 C80 1.380 . S
C82 C83 1.170 . S
C83 C82 1.170 . S
C53 C23 1.203 . S
C55 C5 1.211 . S
C57 C10 1.210 . S
C59 C18 1.213 . S
C61 C49 1.189 . S
C63 C29 1.204 . S
C65 C30 1.190 . S
C67 C44 1.209 . S
C69 C3 1.561 . S
C71 C31 1.533 . S
C73 C43 1.533 . S
C75 C17 1.555 . S
C77 C36 1.538 . S
C79 C4 1.547 . S
C81 C16 1.563 . S
C83 C42 1.537 . S
