# Generated by pormake.
# Topology uog, (4)-cn, num edge types: 1
# Building blocks:
#     Node 0, Type 0, BuildingBlock: NAWXER_clean_sbu_0, # of connection points: 4
#     Node 1, Type 0, BuildingBlock: NAWXER_clean_sbu_0, # of connection points: 4
#     Node 2, Type 0, BuildingBlock: NAWXER_clean_sbu_0, # of connection points: 4
#     Node 3, Type 0, BuildingBlock: NAWXER_clean_sbu_0, # of connection points: 4
#     Node 4, Type 0, BuildingBlock: NAWXER_clean_sbu_0, # of connection points: 4
#     Node 5, Type 0, BuildingBlock: NAWXER_clean_sbu_0, # of connection points: 4
#     Edge 6, Type (0, 0), BuildingBlock: AJUNOK_clean_linker_0, # of connection points: 2
#     Edge 7, Type (0, 0), BuildingBlock: AJUNOK_clean_linker_0, # of connection points: 2
#     Edge 8, Type (0, 0), BuildingBlock: AJUNOK_clean_linker_0, # of connection points: 2
#     Edge 9, Type (0, 0), BuildingBlock: AJUNOK_clean_linker_0, # of connection points: 2
#     Edge 10, Type (0, 0), BuildingBlock: AJUNOK_clean_linker_0, # of connection points: 2
#     Edge 11, Type (0, 0), BuildingBlock: AJUNOK_clean_linker_0, # of connection points: 2
#     Edge 12, Type (0, 0), BuildingBlock: AJUNOK_clean_linker_0, # of connection points: 2
#     Edge 13, Type (0, 0), BuildingBlock: AJUNOK_clean_linker_0, # of connection points: 2
#     Edge 14, Type (0, 0), BuildingBlock: AJUNOK_clean_linker_0, # of connection points: 2
#     Edge 15, Type (0, 0), BuildingBlock: AJUNOK_clean_linker_0, # of connection points: 2
#     Edge 16, Type (0, 0), BuildingBlock: AJUNOK_clean_linker_0, # of connection points: 2
#     Edge 17, Type (0, 0), BuildingBlock: AJUNOK_clean_linker_0, # of connection points: 2
# Relax obj value: 0.013
# Max RMSD: 0.240
# Mean RMSD: 0.240
data_MOF--net-uog--node1-NAWXER_clean_sbu_0--edge1-AJUNOK_clean_linker_0
_symmetry_space_group_name_H-M    P1
_symmetry_Int_Tables_number       1
_symmetry_cell_setting            triclinic
loop_
_symmetry_equiv_pos_as_xyz
'x, y, z'
_cell_length_a     21.319736
_cell_length_b     21.315952
_cell_length_c     31.787748
_cell_angle_alpha  89.968534
_cell_angle_beta   90.009527
_cell_angle_gamma 119.9741
loop_
_atom_site_label
_atom_site_type_symbol
_atom_site_fract_x
_atom_site_fract_y
_atom_site_fract_z
_atom_type_partial_charge
C0 C 0.54185 0.38537 0.17309 0.0
C1 C 0.53473 0.15313 0.17841 0.0
O2 O 0.48717 0.32197 0.17428 0.0
Zn3 Zn 0.53904 0.26966 0.17596 0.0
O4 O 0.60554 0.39308 0.17336 0.0
Zn5 Zn 0.65236 0.32347 0.17582 0.0
O6 O 0.70681 0.34568 0.12477 0.0
O7 O 0.5888 0.29029 0.11431 0.0
O8 O 0.59995 0.20658 0.17803 0.0
O9 O 0.48259 0.16586 0.17764 0.0
O10 O 0.58911 0.29659 0.23751 0.0
O11 O 0.7071 0.35335 0.22685 0.0
C12 C 0.65347 0.31928 0.09963 0.0
C13 C 0.65395 0.32919 0.25208 0.0
C14 C 0.32795 0.64806 0.58299 0.0
C15 C 0.33487 0.64292 0.43031 0.0
O16 O 0.3541 0.701 0.55749 0.0
Zn17 Zn 0.33011 0.64545 0.5065 0.0
O18 O 0.298 0.5831 0.56873 0.0
Zn19 Zn 0.27489 0.53107 0.50791 0.0
O20 O 0.32648 0.47848 0.51066 0.0
O21 O 0.39817 0.59697 0.50881 0.0
O22 O 0.30455 0.57897 0.44604 0.0
O23 O 0.35649 0.69761 0.45416 0.0
O24 O 0.21481 0.59491 0.50551 0.0
O25 O 0.16976 0.47695 0.50637 0.0
C26 C 0.39007 0.53313 0.51023 0.0
C27 C 0.15975 0.53091 0.50558 0.0
C28 C 0.69047 0.31711 0.91865 0.0
C29 C 0.69501 0.32827 0.76614 0.0
O30 O 0.6627 0.34413 0.89451 0.0
Zn31 Zn 0.69212 0.32151 0.84238 0.0
O32 O 0.7237 0.28642 0.90279 0.0
Zn33 Zn 0.74923 0.26442 0.84067 0.0
O34 O 0.85398 0.31544 0.84132 0.0
O35 O 0.80822 0.38785 0.84389 0.0
O36 O 0.72561 0.29355 0.77994 0.0
O37 O 0.66808 0.35383 0.7919 0.0
O38 O 0.62544 0.20559 0.8395 0.0
O39 O 0.69787 0.15979 0.83873 0.0
C40 C 0.86359 0.37922 0.84319 0.0
C41 C 0.63407 0.15023 0.8384 0.0
C42 C 0.37802 0.68199 0.25057 0.0
C43 C 0.37812 0.6894 0.09781 0.0
O44 O 0.32413 0.65894 0.22595 0.0
Zn45 Zn 0.37843 0.68768 0.17435 0.0
O46 O 0.44257 0.71429 0.23569 0.0
Zn47 Zn 0.49218 0.7457 0.17433 0.0
O48 O 0.54391 0.85019 0.17626 0.0
O49 O 0.42574 0.80338 0.17616 0.0
O50 O 0.44257 0.72128 0.11287 0.0
O51 O 0.32432 0.66271 0.12267 0.0
O52 O 0.43075 0.62219 0.17285 0.0
O53 O 0.5484 0.69854 0.17254 0.0
C54 C 0.48936 0.85915 0.17685 0.0
C55 C 0.49601 0.63376 0.17222 0.0
C56 C 0.63887 0.48811 0.51023 0.0
C57 C 0.86616 0.48648 0.50728 0.0
O58 O 0.70339 0.54068 0.50937 0.0
Zn59 Zn 0.75171 0.48562 0.50893 0.0
O60 O 0.62788 0.4231 0.51041 0.0
Zn61 Zn 0.69444 0.37232 0.50917 0.0
O62 O 0.66971 0.31842 0.56093 0.0
O63 O 0.72834 0.43666 0.57044 0.0
O64 O 0.81178 0.42168 0.50746 0.0
O65 O 0.8548 0.53948 0.50809 0.0
O66 O 0.72597 0.43581 0.44768 0.0
O67 O 0.66412 0.31762 0.45771 0.0
C68 C 0.69677 0.37234 0.58569 0.0
C69 C 0.69228 0.37131 0.43276 0.0
C70 C 0.38548 0.85639 0.83977 0.0
C71 C 0.15757 0.62793 0.84391 0.0
O72 O 0.32111 0.84477 0.84179 0.0
Zn73 Zn 0.27259 0.74143 0.84228 0.0
O74 O 0.39619 0.80217 0.83915 0.0
Zn75 Zn 0.32895 0.68471 0.84058 0.0
O76 O 0.35238 0.65577 0.78836 0.0
O77 O 0.29512 0.7171 0.78003 0.0
O78 O 0.21177 0.61724 0.8429 0.0
O79 O 0.16927 0.6924 0.84394 0.0
O80 O 0.30099 0.71784 0.90315 0.0
O81 O 0.36061 0.65982 0.89127 0.0
C82 C 0.32599 0.68409 0.76416 0.0
C83 C 0.3352 0.68682 0.91708 0.0
C84 C 0.57986 0.06477 0.17776 0.0
C85 C 0.5211 0.07751 0.17894 0.0
C86 C 0.56906 0.99427 0.1773 0.0
C87 C 0.499 0.93328 0.178 0.0
H88 H 0.63498 0.10962 0.17692 0.0
H89 H 0.61627 0.98777 0.17617 0.0
S90 S 0.32637 0.93656 0.18208 0.0
N91 N 0.38994 0.0227 0.18146 0.0
N92 N 0.36961 0.89047 0.18062 0.0
C93 C 0.43962 0.94512 0.17954 0.0
C94 C 0.45065 0.01703 0.18001 0.0
C95 C 0.44554 0.45338 0.51244 0.0
C96 C 0.4545 0.52341 0.51078 0.0
C97 C 0.50529 0.44262 0.5124 0.0
C98 C 0.57668 0.5014 0.51071 0.0
H99 H 0.39186 0.40617 0.51366 0.0
H100 H 0.49519 0.38754 0.51362 0.0
S101 S 0.63016 0.69611 0.50607 0.0
N102 N 0.5409 0.65279 0.50748 0.0
N103 N 0.65281 0.6326 0.50745 0.0
C104 C 0.58652 0.57184 0.50919 0.0
C105 C 0.52564 0.58281 0.50921 0.0
C106 C 0.99894 0.43433 0.84362 0.0
C107 C 0.93791 0.44343 0.84411 0.0
C108 C 0.0695 0.49409 0.84382 0.0
C109 C 0.08214 0.56558 0.8445 0.0
H110 H 0.99237 0.38057 0.84293 0.0
H111 H 0.11445 0.48393 0.84325 0.0
S112 S 0.94102 0.6194 0.84641 0.0
N113 N 0.89509 0.53011 0.84564 0.0
N114 N 0.02712 0.64187 0.84602 0.0
C115 C 0.02157 0.5755 0.84525 0.0
C116 C 0.94975 0.51468 0.84505 0.0
C117 C 0.02435 0.4508 0.50484 0.0
C118 C 0.08544 0.52083 0.50539 0.0
C119 C 0.95385 0.44023 0.50529 0.0
C120 C 0.94142 0.49922 0.50635 0.0
H121 H 0.03084 0.40355 0.50417 0.0
H122 H 0.90879 0.38519 0.50493 0.0
S123 S 0.08281 0.69397 0.50798 0.0
N124 N 0.12854 0.6504 0.5069 0.0
N125 N 0.99668 0.63052 0.50775 0.0
C126 C 1.00207 0.5696 0.50674 0.0
C127 C 0.07378 0.58038 0.50626 0.0
C128 C 0.51919 0.94442 0.84084 0.0
C129 C 0.4478 0.93174 0.83843 0.0
C130 C 0.57894 0.01496 0.84043 0.0
C131 C 0.56991 0.07591 0.83755 0.0
H132 H 0.52926 0.89954 0.84345 0.0
H133 H 0.63261 0.0216 0.84276 0.0
S134 S 0.39432 0.07248 0.82861 0.0
N135 N 0.37171 0.98646 0.83176 0.0
N136 N 0.48352 0.11854 0.83096 0.0
C137 C 0.49879 0.06399 0.83452 0.0
C138 C 0.43797 0.99217 0.83497 0.0
C139 C 0.45108 0.50033 0.17403 0.0
C140 C 0.50964 0.57176 0.17163 0.0
C141 C 0.46204 0.44072 0.1742 0.0
C142 C 0.53208 0.44979 0.17201 0.0
H143 H 0.39603 0.49008 0.17604 0.0
H144 H 0.41498 0.38705 0.17634 0.0
S145 S 0.70414 0.6255 0.16428 0.0
N146 N 0.64058 0.64803 0.1663 0.0
N147 N 0.66114 0.53626 0.16665 0.0
C148 C 0.59123 0.52092 0.16926 0.0
C149 C 0.58005 0.58172 0.16908 0.0
C150 C 0.62328 0.32079 0.98212 0.0
C151 C 0.68345 0.31976 0.96479 0.0
C152 C 0.61397 0.32048 0.02579 0.0
C153 C 0.66532 0.3208 0.05371 0.0
H154 H 0.58224 0.32035 0.96182 0.0
H155 H 0.56635 0.32044 0.03774 0.0
S156 S 0.83366 0.32058 0.02424 0.0
N157 N 0.79574 0.32007 0.97886 0.0
N158 N 0.77906 0.32106 0.0609 0.0
C159 C 0.72644 0.32113 0.03679 0.0
C160 C 0.73524 0.32011 0.99234 0.0
C161 C 0.32591 0.69596 0.31776 0.0
C162 C 0.36682 0.67105 0.29621 0.0
C163 C 0.31679 0.68794 0.36155 0.0
C164 C 0.34628 0.65263 0.38466 0.0
H165 H 0.30202 0.72294 0.30077 0.0
H166 H 0.2856 0.7084 0.37733 0.0
S167 S 0.45615 0.57633 0.3427 0.0
N168 N 0.4373 0.61033 0.30103 0.0
N169 N 0.41707 0.59204 0.38305 0.0
C170 C 0.38622 0.62651 0.36336 0.0
C171 C 0.39735 0.63662 0.31911 0.0
C172 C 0.68676 0.28649 0.69196 0.0
C173 C 0.69282 0.33965 0.72047 0.0
C174 C 0.68632 0.29677 0.64842 0.0
C175 C 0.69367 0.36134 0.63181 0.0
H176 H 0.68196 0.23637 0.70339 0.0
H177 H 0.68175 0.25442 0.62765 0.0
S178 S 0.71217 0.51773 0.69336 0.0
N179 N 0.70604 0.45891 0.72926 0.0
N180 N 0.70686 0.47912 0.64747 0.0
C181 C 0.69984 0.41496 0.66007 0.0
C182 C 0.69892 0.40386 0.70439 0.0
C183 C 0.29595 0.68561 0.99131 0.0
C184 C 0.34584 0.6841 0.96293 0.0
C185 C 0.30581 0.6854 0.03492 0.0
C186 C 0.36683 0.68544 0.05175 0.0
H187 H 0.24874 0.68681 0.97976 0.0
H188 H 0.26623 0.68705 0.05557 0.0
S189 S 0.51296 0.68049 0.99108 0.0
N190 N 0.45769 0.68094 0.95484 0.0
N191 N 0.47706 0.6823 0.03676 0.0
C192 C 0.41692 0.68351 0.02377 0.0
C193 C 0.40617 0.68229 0.97938 0.0
C194 C 0.62355 0.29993 0.36976 0.0
C195 C 0.68517 0.36002 0.38675 0.0
C196 C 0.61388 0.29036 0.32612 0.0
C197 C 0.66631 0.33961 0.29795 0.0
H198 H 0.58162 0.26091 0.3903 0.0
H199 H 0.56508 0.24387 0.31439 0.0
S200 S 0.83875 0.5043 0.32661 0.0
N201 N 0.80008 0.46873 0.37215 0.0
N202 N 0.78274 0.44992 0.29021 0.0
C203 C 0.72896 0.39904 0.31458 0.0
C204 C 0.73814 0.4095 0.35896 0.0
C205 C 0.33063 0.61788 0.70045 0.0
C206 C 0.32937 0.67781 0.71796 0.0
C207 C 0.33041 0.60892 0.65676 0.0
C208 C 0.3306 0.66038 0.62893 0.0
H209 H 0.3301 0.57664 0.72063 0.0
H210 H 0.33027 0.56132 0.6447 0.0
S211 S 0.33041 0.82854 0.65887 0.0
N212 N 0.32981 0.79027 0.70416 0.0
N213 N 0.33099 0.77422 0.62204 0.0
C214 C 0.33105 0.72144 0.64602 0.0
C215 C 0.32992 0.72989 0.69053 0.0
loop_
_geom_bond_atom_site_label_1
_geom_bond_atom_site_label_2
_geom_bond_distance
_geom_bond_site_symmetry_2
_ccdc_geom_bond_type
C0 O2 1.247 . S
C0 O4 1.258 . S
C1 O8 1.247 . S
C1 O9 1.258 . S
O2 C0 1.247 . S
O2 Zn3 2.028 . S
Zn3 O2 2.028 . S
Zn3 O7 2.035 . S
Zn3 O9 2.035 . S
Zn3 O10 2.028 . S
O4 C0 1.258 . S
O4 Zn5 2.035 . S
Zn5 O4 2.035 . S
Zn5 O6 2.028 . S
Zn5 O8 2.028 . S
Zn5 O11 2.035 . S
O6 Zn5 2.028 . S
O6 C12 1.247 . S
O7 Zn3 2.035 . S
O7 C12 1.258 . S
O8 C1 1.247 . S
O8 Zn5 2.028 . S
O9 C1 1.258 . S
O9 Zn3 2.035 . S
O10 Zn3 2.028 . S
O10 C13 1.247 . S
O11 Zn5 2.035 . S
O11 C13 1.258 . S
C12 O6 1.247 . S
C12 O7 1.258 . S
C13 O10 1.247 . S
C13 O11 1.258 . S
C14 O16 1.247 . S
C14 O18 1.258 . S
C15 O22 1.247 . S
C15 O23 1.258 . S
O16 C14 1.247 . S
O16 Zn17 2.028 . S
Zn17 O16 2.028 . S
Zn17 O21 2.035 . S
Zn17 O23 2.035 . S
Zn17 O24 2.028 . S
O18 C14 1.258 . S
O18 Zn19 2.035 . S
Zn19 O18 2.035 . S
Zn19 O20 2.028 . S
Zn19 O22 2.028 . S
Zn19 O25 2.035 . S
O20 Zn19 2.028 . S
O20 C26 1.247 . S
O21 Zn17 2.035 . S
O21 C26 1.258 . S
O22 C15 1.247 . S
O22 Zn19 2.028 . S
O23 C15 1.258 . S
O23 Zn17 2.035 . S
O24 Zn17 2.028 . S
O24 C27 1.247 . S
O25 Zn19 2.035 . S
O25 C27 1.258 . S
C26 O20 1.247 . S
C26 O21 1.258 . S
C27 O24 1.247 . S
C27 O25 1.258 . S
C28 O30 1.247 . S
C28 O32 1.258 . S
C29 O36 1.247 . S
C29 O37 1.258 . S
O30 C28 1.247 . S
O30 Zn31 2.028 . S
Zn31 O30 2.028 . S
Zn31 O35 2.035 . S
Zn31 O37 2.035 . S
Zn31 O38 2.028 . S
O32 C28 1.258 . S
O32 Zn33 2.035 . S
Zn33 O32 2.035 . S
Zn33 O34 2.028 . S
Zn33 O36 2.028 . S
Zn33 O39 2.035 . S
O34 Zn33 2.028 . S
O34 C40 1.247 . S
O35 Zn31 2.035 . S
O35 C40 1.258 . S
O36 C29 1.247 . S
O36 Zn33 2.028 . S
O37 C29 1.258 . S
O37 Zn31 2.035 . S
O38 Zn31 2.028 . S
O38 C41 1.247 . S
O39 Zn33 2.035 . S
O39 C41 1.258 . S
C40 O34 1.247 . S
C40 O35 1.258 . S
C41 O38 1.247 . S
C41 O39 1.258 . S
C42 O44 1.247 . S
C42 O46 1.258 . S
C43 O50 1.247 . S
C43 O51 1.258 . S
O44 C42 1.247 . S
O44 Zn45 2.028 . S
Zn45 O44 2.028 . S
Zn45 O49 2.035 . S
Zn45 O51 2.035 . S
Zn45 O52 2.028 . S
O46 C42 1.258 . S
O46 Zn47 2.035 . S
Zn47 O46 2.035 . S
Zn47 O48 2.028 . S
Zn47 O50 2.028 . S
Zn47 O53 2.035 . S
O48 Zn47 2.028 . S
O48 C54 1.247 . S
O49 Zn45 2.035 . S
O49 C54 1.258 . S
O50 C43 1.247 . S
O50 Zn47 2.028 . S
O51 C43 1.258 . S
O51 Zn45 2.035 . S
O52 Zn45 2.028 . S
O52 C55 1.247 . S
O53 Zn47 2.035 . S
O53 C55 1.258 . S
C54 O48 1.247 . S
C54 O49 1.258 . S
C55 O52 1.247 . S
C55 O53 1.258 . S
C56 O58 1.247 . S
C56 O60 1.258 . S
C57 O64 1.247 . S
C57 O65 1.258 . S
O58 C56 1.247 . S
O58 Zn59 2.028 . S
Zn59 O58 2.028 . S
Zn59 O63 2.035 . S
Zn59 O65 2.035 . S
Zn59 O66 2.028 . S
O60 C56 1.258 . S
O60 Zn61 2.035 . S
Zn61 O60 2.035 . S
Zn61 O62 2.028 . S
Zn61 O64 2.028 . S
Zn61 O67 2.035 . S
O62 Zn61 2.028 . S
O62 C68 1.247 . S
O63 Zn59 2.035 . S
O63 C68 1.258 . S
O64 C57 1.247 . S
O64 Zn61 2.028 . S
O65 C57 1.258 . S
O65 Zn59 2.035 . S
O66 Zn59 2.028 . S
O66 C69 1.247 . S
O67 Zn61 2.035 . S
O67 C69 1.258 . S
C68 O62 1.247 . S
C68 O63 1.258 . S
C69 O66 1.247 . S
C69 O67 1.258 . S
C70 O72 1.247 . S
C70 O74 1.258 . S
C71 O78 1.247 . S
C71 O79 1.258 . S
O72 C70 1.247 . S
O72 Zn73 2.028 . S
Zn73 O72 2.028 . S
Zn73 O77 2.035 . S
Zn73 O79 2.035 . S
Zn73 O80 2.028 . S
O74 C70 1.258 . S
O74 Zn75 2.035 . S
Zn75 O74 2.035 . S
Zn75 O76 2.028 . S
Zn75 O78 2.028 . S
Zn75 O81 2.035 . S
O76 Zn75 2.028 . S
O76 C82 1.247 . S
O77 Zn73 2.035 . S
O77 C82 1.258 . S
O78 C71 1.247 . S
O78 Zn75 2.028 . S
O79 C71 1.258 . S
O79 Zn73 2.035 . S
O80 Zn73 2.028 . S
O80 C83 1.247 . S
O81 Zn75 2.035 . S
O81 C83 1.258 . S
C82 O76 1.247 . S
C82 O77 1.258 . S
C83 O80 1.247 . S
C83 O81 1.258 . S
C84 C85 1.369 . S
C84 C86 1.419 1_545 S
C84 H88 0.930 . S
C85 C84 1.369 . S
C85 C94 1.429 . S
C86 C84 1.419 1_565 S
C86 C87 1.363 . S
C86 H89 0.929 . S
C87 C86 1.363 . S
C87 C93 1.428 . S
H88 C84 0.930 . S
H89 C86 0.929 . S
S90 N91 1.613 . S
S90 N92 1.610 1_545 S
N91 S90 1.613 . S
N91 C94 1.350 . S
N92 S90 1.610 1_565 S
N92 C93 1.351 . S
C93 C87 1.428 . S
C93 N92 1.351 . S
C93 C94 1.434 1_565 S
C94 C85 1.429 . S
C94 N91 1.350 . S
C94 C93 1.434 1_545 S
C95 C96 1.369 . S
C95 C97 1.419 . S
C95 H99 0.930 . S
C96 C95 1.369 . S
C96 C105 1.429 . S
C97 C95 1.419 . S
C97 C98 1.363 . S
C97 H100 0.929 . S
C98 C97 1.363 . S
C98 C104 1.428 . S
H99 C95 0.930 . S
H100 C97 0.929 . S
S101 N102 1.613 . S
S101 N103 1.610 . S
N102 S101 1.613 . S
N102 C105 1.350 . S
N103 S101 1.610 . S
N103 C104 1.351 . S
C104 C98 1.428 . S
C104 N103 1.351 . S
C104 C105 1.434 . S
C105 C96 1.429 . S
C105 N102 1.350 . S
C105 C104 1.434 . S
C106 C107 1.369 . S
C106 C108 1.419 1_655 S
C106 H110 0.930 . S
C107 C106 1.369 . S
C107 C116 1.429 . S
C108 C106 1.419 1_455 S
C108 C109 1.363 . S
C108 H111 0.929 . S
C109 C108 1.363 . S
C109 C115 1.428 . S
H110 C106 0.930 . S
H111 C108 0.929 . S
S112 N113 1.613 1_455 S
S112 N114 1.610 . S
N113 S112 1.613 1_655 S
N113 C116 1.350 . S
N114 S112 1.610 . S
N114 C115 1.351 . S
C115 C109 1.428 . S
C115 N114 1.351 . S
C115 C116 1.434 1_455 S
C116 C107 1.429 . S
C116 N113 1.350 . S
C116 C115 1.434 1_655 S
C117 C118 1.369 . S
C117 C119 1.419 1_455 S
C117 H121 0.930 . S
C118 C117 1.369 . S
C118 C127 1.429 . S
C119 C117 1.419 1_655 S
C119 C120 1.363 . S
C119 H122 0.929 . S
C120 C119 1.363 . S
C120 C126 1.428 . S
H121 C117 0.930 . S
H122 C119 0.929 . S
S123 N124 1.613 1_655 S
S123 N125 1.610 . S
N124 S123 1.613 1_455 S
N124 C127 1.350 . S
N125 S123 1.610 . S
N125 C126 1.351 . S
C126 C120 1.428 . S
C126 N125 1.351 . S
C126 C127 1.434 1_655 S
C127 C118 1.429 . S
C127 N124 1.350 . S
C127 C126 1.434 1_455 S
C128 C129 1.369 . S
C128 C130 1.419 1_565 S
C128 H132 0.930 . S
C129 C128 1.369 . S
C129 C138 1.429 . S
C130 C128 1.419 1_545 S
C130 C131 1.363 . S
C130 H133 0.929 . S
C131 C130 1.363 . S
C131 C137 1.428 . S
H132 C128 0.930 . S
H133 C130 0.929 . S
S134 N135 1.613 . S
S134 N136 1.610 1_565 S
N135 S134 1.613 . S
N135 C138 1.350 . S
N136 S134 1.610 1_545 S
N136 C137 1.351 . S
C137 C131 1.428 . S
C137 N136 1.351 . S
C137 C138 1.434 1_545 S
C138 C129 1.429 . S
C138 N135 1.350 . S
C138 C137 1.434 1_565 S
C139 C140 1.369 . S
C139 C141 1.419 . S
C139 H143 0.930 . S
C140 C139 1.369 . S
C140 C149 1.429 . S
C141 C139 1.419 . S
C141 C142 1.363 . S
C141 H144 0.929 . S
C142 C141 1.363 . S
C142 C148 1.428 . S
H143 C139 0.930 . S
H144 C141 0.929 . S
S145 N146 1.613 . S
S145 N147 1.610 . S
N146 S145 1.613 . S
N146 C149 1.350 . S
N147 S145 1.610 . S
N147 C148 1.351 . S
C148 C142 1.428 . S
C148 N147 1.351 . S
C148 C149 1.434 . S
C149 C140 1.429 . S
C149 N146 1.350 . S
C149 C148 1.434 . S
C150 C151 1.369 . S
C150 C152 1.419 1_556 S
C150 H154 0.930 . S
C151 C150 1.369 . S
C151 C160 1.429 . S
C152 C150 1.419 1_554 S
C152 C153 1.363 . S
C152 H155 0.929 . S
C153 C152 1.363 . S
C153 C159 1.428 . S
H154 C150 0.930 . S
H155 C152 0.929 . S
S156 N157 1.613 1_554 S
S156 N158 1.610 . S
N157 S156 1.613 1_556 S
N157 C160 1.350 . S
N158 S156 1.610 . S
N158 C159 1.351 . S
C159 C153 1.428 . S
C159 N158 1.351 . S
C159 C160 1.434 1_554 S
C160 C151 1.429 . S
C160 N157 1.350 . S
C160 C159 1.434 1_556 S
C161 C162 1.369 . S
C161 C163 1.419 . S
C161 H165 0.930 . S
C162 C161 1.369 . S
C162 C171 1.429 . S
C163 C161 1.419 . S
C163 C164 1.363 . S
C163 H166 0.929 . S
C164 C163 1.363 . S
C164 C170 1.428 . S
H165 C161 0.930 . S
H166 C163 0.929 . S
S167 N168 1.613 . S
S167 N169 1.610 . S
N168 S167 1.613 . S
N168 C171 1.350 . S
N169 S167 1.610 . S
N169 C170 1.351 . S
C170 C164 1.428 . S
C170 N169 1.351 . S
C170 C171 1.434 . S
C171 C162 1.429 . S
C171 N168 1.350 . S
C171 C170 1.434 . S
C172 C173 1.369 . S
C172 C174 1.419 . S
C172 H176 0.930 . S
C173 C172 1.369 . S
C173 C182 1.429 . S
C174 C172 1.419 . S
C174 C175 1.363 . S
C174 H177 0.929 . S
C175 C174 1.363 . S
C175 C181 1.428 . S
H176 C172 0.930 . S
H177 C174 0.929 . S
S178 N179 1.613 . S
S178 N180 1.610 . S
N179 S178 1.613 . S
N179 C182 1.350 . S
N180 S178 1.610 . S
N180 C181 1.351 . S
C181 C175 1.428 . S
C181 N180 1.351 . S
C181 C182 1.434 . S
C182 C173 1.429 . S
C182 N179 1.350 . S
C182 C181 1.434 . S
C183 C184 1.381 . S
C183 C185 1.407 1_556 S
C183 H187 0.929 1_556 S
C184 C183 1.381 . S
C184 C193 1.429 . S
C185 C183 1.407 1_554 S
C185 C186 1.363 . S
C185 H188 0.929 . S
C186 C185 1.363 . S
C186 C192 1.411 1_554 S
H187 C183 0.929 1_554 S
H188 C185 0.929 . S
S189 N190 1.613 . S
S189 N191 1.610 . S
N190 S189 1.613 . S
N190 C193 1.350 . S
N191 S189 1.610 . S
N191 C192 1.354 . S
C192 C186 1.411 1_556 S
C192 N191 1.354 . S
C192 C193 1.451 . S
C193 C184 1.429 . S
C193 N190 1.350 . S
C193 C192 1.451 . S
C194 C195 1.369 . S
C194 C196 1.419 . S
C194 H198 0.930 . S
C195 C194 1.369 . S
C195 C204 1.429 . S
C196 C194 1.419 . S
C196 C197 1.363 . S
C196 H199 0.929 . S
C197 C196 1.363 . S
C197 C203 1.428 . S
H198 C194 0.930 . S
H199 C196 0.929 . S
S200 N201 1.613 . S
S200 N202 1.610 . S
N201 S200 1.613 . S
N201 C204 1.350 . S
N202 S200 1.610 . S
N202 C203 1.351 . S
C203 C197 1.428 . S
C203 N202 1.351 . S
C203 C204 1.434 . S
C204 C195 1.429 . S
C204 N201 1.350 . S
C204 C203 1.434 . S
C205 C206 1.369 . S
C205 C207 1.419 . S
C205 H209 0.930 . S
C206 C205 1.369 . S
C206 C215 1.429 . S
C207 C205 1.419 . S
C207 C208 1.363 . S
C207 H210 0.929 . S
C208 C207 1.363 . S
C208 C214 1.428 . S
H209 C205 0.930 . S
H210 C207 0.929 . S
S211 N212 1.613 . S
S211 N213 1.610 . S
N212 S211 1.613 . S
N212 C215 1.350 . S
N213 S211 1.610 . S
N213 C214 1.351 . S
C214 C208 1.428 . S
C214 N213 1.351 . S
C214 C215 1.434 . S
C215 C206 1.429 . S
C215 N212 1.350 . S
C215 C214 1.434 . S
C85 C1 1.707 . S
C87 C54 1.711 . S
C96 C26 1.711 . S
C98 C56 1.705 . S
C107 C40 1.711 . S
C109 C71 1.708 . S
C118 C27 1.713 . S
C120 C57 1.709 . S
C129 C70 1.705 . S
C131 C41 1.712 . S
C140 C55 1.710 . S
C142 C0 1.708 . S
C151 C28 1.765 . S
C153 C12 1.764 . S
C162 C42 1.764 . S
C164 C15 1.768 . S
C173 C29 1.765 . S
C175 C68 1.766 . S
C184 C83 1.763 . S
C186 C43 1.767 . S
C195 C69 1.770 . S
C197 C13 1.764 . S
C206 C82 1.767 . S
C208 C14 1.761 . S
