# Generated by pormake.
# Topology pcu, (6)-cn, num edge types: 1
# Building blocks:
#     Node 0, Type 0, BuildingBlock: FUNLAD_clean_sbu_0, # of connection points: 6
#     Edge 1, Type (0, 0), BuildingBlock: MIFKUJ_clean_linker_0, # of connection points: 2
#     Edge 2, Type (0, 0), BuildingBlock: MIFKUJ_clean_linker_0, # of connection points: 2
#     Edge 3, Type (0, 0), BuildingBlock: MIFKUJ_clean_linker_0, # of connection points: 2
# Relax obj value: 0.000
# Max RMSD: 0.000
# Mean RMSD: 0.000
data_MOF--net-pcu--node1-FUNLAD_clean_sbu_0--edge1-MIFKUJ_clean_linker_0
_symmetry_space_group_name_H-M    P1
_symmetry_Int_Tables_number       1
_symmetry_cell_setting            triclinic
loop_
_symmetry_equiv_pos_as_xyz
'x, y, z'
_cell_length_a     19.899063
_cell_length_b     19.86642
_cell_length_c     26.243592
_cell_angle_alpha  91.468793
_cell_angle_beta   93.307719
_cell_angle_gamma 95.481252
loop_
_atom_site_label
_atom_site_type_symbol
_atom_site_fract_x
_atom_site_fract_y
_atom_site_fract_z
_atom_type_partial_charge
C0 C 0.1296 -0.0037 0.01437 0.0
N1 N 0.9855 0.98885 0.89123 0.0
C2 C 0.03143 0.03147 0.86843 0.0
C3 C 0.03264 0.03163 0.81535 0.0
C4 C 0.98583 0.98783 0.78535 0.0
C5 C 0.93852 0.94482 0.80981 0.0
C6 C 0.93942 0.94597 0.8631 0.0
Zn7 Zn 0.98754 0.98949 0.96912 0.0
C8 C 0.98383 0.85166 1.00989 0.0
N9 N -0.00496 -0.00728 0.13197 0.0
C10 C 0.04112 0.0356 0.1601 0.0
C11 C 0.94911 0.9501 0.15477 0.0
C12 C 0.9479 0.94994 0.20784 0.0
C13 C -0.00529 -0.00626 0.23785 0.0
C14 C 0.04202 0.03675 0.21339 0.0
Zn15 Zn -0.007 -0.00792 0.05408 0.0
O16 O 0.09433 -0.00614 0.97233 0.0
C17 C -0.00329 0.12991 0.01331 0.0
O18 O 0.10011 -0.0036 0.05607 0.0
H19 H 0.91316 0.91614 0.13173 0.0
H20 H 0.06738 0.06542 0.89147 0.0
H21 H 0.07701 0.06922 0.14117 0.0
O22 O -0.00715 0.0962 0.97127 0.0
O23 O -0.00201 0.09891 0.05506 0.0
H24 H 0.90353 0.91234 0.88203 0.0
O25 O 0.88621 0.9877 0.05086 0.0
O26 O 0.88043 0.98516 0.96712 0.0
O27 O 0.98769 0.88537 0.05193 0.0
O28 O 0.98255 0.88266 0.96813 0.0
C29 C 0.85094 0.98526 1.00882 0.0
H30 H 0.06936 0.06621 0.79795 0.0
H31 H 0.90195 0.9099 0.78802 0.0
H32 H 0.91118 0.91535 0.22524 0.0
H33 H 0.07859 0.07167 0.23518 0.0
H34 H 0.10268 -0.00384 0.30744 0.0
H35 H 0.10075 -0.00481 0.40064 0.0
H36 H 0.88326 -0.00891 0.38885 0.0
H37 H 0.88491 -0.00698 0.2957 0.0
H38 H 0.94195 0.08208 0.46289 0.0
H39 H 0.95283 0.84964 0.41324 0.0
H40 H -0.00125 0.75396 0.36997 0.0
H41 H 0.18797 0.79797 0.45702 0.0
H42 H 0.14347 0.89461 0.50031 0.0
H43 H 0.87786 0.98541 0.71576 0.0
H44 H 0.87979 0.98638 0.62256 0.0
H45 H 0.09727 0.99047 0.63434 0.0
H46 H 0.09563 0.98854 0.72749 0.0
H47 H 0.03858 0.89948 0.5603 0.0
H48 H 0.02772 0.13193 0.60995 0.0
H49 H 0.9818 0.2276 0.65322 0.0
H50 H 0.79257 0.18361 0.56617 0.0
H51 H 0.83706 0.08696 0.52289 0.0
C52 C 0.05453 -0.0044 0.32476 0.0
C53 C -0.00608 -0.0056 0.29432 0.0
C54 C 0.05346 -0.00545 0.37792 0.0
C55 C -0.00821 -0.00758 0.40154 0.0
C56 C 0.93133 -0.00749 0.37132 0.0
C57 C 0.93233 -0.00688 0.31816 0.0
C58 C -0.0097 0.98987 0.45782 0.0
C59 C 0.96226 0.04171 0.48417 0.0
C60 C 0.01814 0.93791 0.48554 0.0
C61 C 0.04505 0.87981 0.45962 0.0
C62 C 0.00444 0.8393 0.42283 0.0
C63 C 0.03017 0.78482 0.39836 0.0
C64 C 0.0963 0.77002 0.41063 0.0
C65 C 0.13679 0.80957 0.4475 0.0
C66 C 0.11132 0.86418 0.47204 0.0
C67 C 0.92601 0.98597 0.69844 0.0
C68 C 0.98662 0.98716 0.72888 0.0
C69 C 0.92708 0.98702 0.64528 0.0
C70 C 0.98875 0.98914 0.62165 0.0
C71 C 0.04921 0.98906 0.65188 0.0
C72 C 0.04821 0.98845 0.70503 0.0
C73 C -0.00977 -0.0083 0.56537 0.0
C74 C 0.01828 0.93986 0.53902 0.0
C75 C 0.9624 0.04365 0.53765 0.0
C76 C 0.93549 0.10175 0.56358 0.0
C77 C 0.97611 0.14226 0.60036 0.0
C78 C 0.95038 0.19675 0.62483 0.0
C79 C 0.88424 0.21156 0.61256 0.0
C80 C 0.84376 0.172 0.5757 0.0
C81 C 0.86922 0.11739 0.55116 0.0
H82 H 0.86443 0.25379 0.63153 0.0
H83 H 0.11612 0.72779 0.39167 0.0
H84 H 0.20753 0.00287 0.93204 0.0
H85 H 0.32995 0.00127 0.93157 0.0
H86 H 0.34283 0.98991 0.09574 0.0
H87 H 0.22019 -0.00736 0.09668 0.0
H88 H 0.4415 0.07809 0.06349 0.0
H89 H 0.35194 0.84955 0.02003 0.0
H90 H 0.27936 0.75982 0.97124 0.0
H91 H 0.37363 0.81755 0.83374 0.0
H92 H 0.44615 0.9083 0.8816 0.0
H93 H 0.77301 0.9787 0.09116 0.0
H94 H 0.65059 0.98029 0.09163 0.0
H95 H 0.63771 -0.00834 0.92746 0.0
H96 H 0.76035 0.98893 0.92651 0.0
H97 H 0.53904 0.90348 0.9597 0.0
H98 H 0.6286 0.13201 1.00316 0.0
H99 H 0.70117 0.22175 0.05195 0.0
H100 H 0.60691 0.16403 0.18946 0.0
H101 H 0.5344 0.07327 0.1416 0.0
C102 C 0.23632 0.00015 0.96811 0.0
C103 C 0.20405 -0.00253 0.01441 0.0
C104 C 0.30631 -0.00102 0.96773 0.0
C105 C 0.34538 -0.00559 0.01354 0.0
C106 C 0.31356 -0.00679 0.05993 0.0
C107 C 0.24348 -0.00538 0.06038 0.0
C108 C 0.41941 -0.00934 0.01295 0.0
C109 C 0.46284 0.03936 0.04137 0.0
C110 C 0.44721 0.94103 0.98312 0.0
C111 C 0.40404 0.88613 0.95433 0.0
C112 C 0.35686 0.84343 0.97932 0.0
C113 C 0.31578 0.79233 0.95184 0.0
C114 C 0.32177 0.78309 0.8994 0.0
C115 C 0.369 0.82481 0.87435 0.0
C116 C 0.41014 0.87605 0.90164 0.0
C117 C 0.74422 0.98141 0.05508 0.0
C118 C 0.77649 0.9841 1.00879 0.0
C119 C 0.67423 0.98259 0.05547 0.0
C120 C 0.63516 0.98715 1.00965 0.0
C121 C 0.66698 0.98836 0.96327 0.0
C122 C 0.73706 0.98694 0.96281 0.0
C123 C 0.56113 -0.00909 1.01024 0.0
C124 C 0.5177 0.9422 0.98183 0.0
C125 C 0.53333 0.04053 0.04008 0.0
C126 C 0.5765 0.09544 0.06887 0.0
C127 C 0.62368 0.13814 0.04387 0.0
C128 C 0.66476 0.18924 0.07135 0.0
C129 C 0.65877 0.19848 0.12379 0.0
C130 C 0.61154 0.15676 0.14884 0.0
C131 C 0.5704 0.10552 0.12155 0.0
H132 H 0.69063 0.23806 0.145 0.0
H133 H 0.28991 0.74352 0.87819 0.0
H134 H -0.00533 0.76561 0.92845 0.0
H135 H -0.00317 0.64288 0.92922 0.0
H136 H 0.97146 0.6466 0.09144 0.0
H137 H 0.97093 0.76949 0.09124 0.0
H138 H 0.06701 0.56871 0.06888 0.0
H139 H 0.83978 0.59193 1.00391 0.0
H140 H 0.75205 0.63366 0.94596 0.0
H141 H 0.83323 0.53738 0.81797 0.0
H142 H 0.92203 0.49581 0.87509 0.0
H143 H 0.98587 0.21596 0.09474 0.0
H144 H 0.98371 0.33868 0.09398 0.0
H145 H 0.00908 0.33497 0.93176 0.0
H146 H 0.00961 0.21208 0.93196 0.0
H147 H 0.91353 0.41285 0.95432 0.0
H148 H 0.14076 0.38964 0.01928 0.0
H149 H 0.22849 0.34791 0.07723 0.0
H150 H 0.14732 0.44419 0.20522 0.0
H151 H 0.05852 0.48575 0.14811 0.0
C152 C 0.9892 0.74027 0.96425 0.0
C153 C 0.98252 0.77721 1.00978 0.0
C154 C -0.00977 0.6701 0.96459 0.0
C155 C 0.98355 0.63551 1.0103 0.0
C156 C 0.9767 0.67229 0.05575 0.0
C157 C 0.97622 0.74248 0.05553 0.0
C158 C 0.98508 0.56112 1.011 0.0
C159 C 0.03283 0.53454 0.04433 0.0
C160 C 0.94157 0.51672 0.97808 0.0
C161 C 0.88792 0.54129 0.94373 0.0
C162 C 0.83921 0.58006 0.96336 0.0
C163 C 0.78925 0.60362 0.93067 0.0
C164 C 0.78717 0.58832 0.8783 0.0
C165 C 0.83494 0.54926 0.85854 0.0
C166 C 0.88506 0.52562 0.89105 0.0
C167 C -0.00866 0.2413 0.05895 0.0
C168 C -0.00198 0.20436 0.01342 0.0
C169 C -0.00968 0.31147 0.0586 0.0
C170 C -0.00301 0.34605 0.01289 0.0
C171 C 0.00384 0.30928 0.96744 0.0
C172 C 0.00432 0.23909 0.96767 0.0
C173 C -0.00454 0.42045 0.01219 0.0
C174 C 0.94771 0.44702 0.97887 0.0
C175 C 0.03896 0.46485 0.04511 0.0
C176 C 0.09262 0.44028 0.07947 0.0
C177 C 0.14133 0.40151 0.05983 0.0
C178 C 0.1913 0.37795 0.09252 0.0
C179 C 0.19338 0.39325 0.14489 0.0
C180 C 0.1456 0.43231 0.16466 0.0
C181 C 0.09549 0.45594 0.13214 0.0
H182 H 0.23209 0.37494 0.17013 0.0
H183 H 0.74846 0.60663 0.85306 0.0
loop_
_geom_bond_atom_site_label_1
_geom_bond_atom_site_label_2
_geom_bond_distance
_geom_bond_site_symmetry_2
_ccdc_geom_bond_type
C0 O16 1.243 1_544 S
C0 O18 1.263 . S
N1 C2 1.333 1_665 S
N1 C6 1.307 . S
N1 Zn7 2.020 . S
C2 N1 1.333 1_445 S
C2 C3 1.379 . S
C2 H20 0.952 . S
C3 C2 1.379 . S
C3 C4 1.391 1_455 S
C3 H30 0.949 . S
C4 C3 1.391 1_655 S
C4 C5 1.355 1_545 S
C5 C4 1.355 1_565 S
C5 C6 1.370 . S
C5 H31 0.950 . S
C6 N1 1.307 . S
C6 C5 1.370 . S
C6 H24 0.948 . S
Zn7 N1 2.020 . S
Zn7 O16 2.039 1_655 S
Zn7 O22 2.034 1_665 S
Zn7 O26 2.025 . S
Zn7 O28 2.024 . S
C8 O27 1.246 1_556 S
C8 O28 1.249 . S
N9 C10 1.307 . S
N9 C11 1.333 1_445 S
N9 Zn15 2.020 . S
C10 N9 1.307 . S
C10 C14 1.370 . S
C10 H21 0.948 . S
C11 N9 1.333 1_665 S
C11 C12 1.379 . S
C11 H19 0.952 . S
C12 C11 1.379 . S
C12 C13 1.390 1_655 S
C12 H32 0.949 . S
C13 C12 1.390 1_455 S
C13 C14 1.356 1_565 S
C14 C10 1.370 . S
C14 C13 1.356 1_545 S
C14 H33 0.950 . S
Zn15 N9 2.020 . S
Zn15 O18 2.025 . S
Zn15 O23 2.024 . S
Zn15 O25 2.039 1_455 S
Zn15 O27 2.034 1_445 S
O16 C0 1.243 1_566 S
O16 Zn7 2.039 1_455 S
C17 O22 1.246 1_554 S
C17 O23 1.249 . S
O18 C0 1.263 . S
O18 Zn15 2.025 . S
H19 C11 0.952 . S
H20 C2 0.952 . S
H21 C10 0.948 . S
O22 Zn7 2.034 1_445 S
O22 C17 1.246 1_556 S
O23 Zn15 2.024 . S
O23 C17 1.249 . S
H24 C6 0.948 . S
O25 Zn15 2.039 1_655 S
O25 C29 1.248 1_544 S
O26 Zn7 2.025 . S
O26 C29 1.259 . S
O27 C8 1.246 1_554 S
O27 Zn15 2.034 1_665 S
O28 Zn7 2.024 . S
O28 C8 1.249 . S
C29 O25 1.248 1_566 S
C29 O26 1.259 . S
H30 C3 0.949 . S
H31 C5 0.950 . S
H32 C12 0.949 . S
H33 C14 0.950 . S
H34 C52 0.951 . S
H35 C54 0.951 . S
H36 C56 0.950 . S
H37 C57 0.950 . S
H38 C59 0.950 . S
H39 C62 0.950 . S
H40 C63 0.950 . S
H41 C65 0.950 1_455 S
H42 C66 0.950 . S
H43 C67 0.951 . S
H44 C69 0.951 . S
H45 C71 0.950 . S
H46 C72 0.950 . S
H47 C74 0.950 . S
H48 C77 0.950 . S
H49 C78 0.950 . S
H50 C80 0.950 1_655 S
H51 C81 0.950 . S
C52 H34 0.951 . S
C52 C53 1.365 1_565 S
C52 C54 1.388 . S
C53 C52 1.365 1_545 S
C53 C57 1.385 1_455 S
C54 H35 0.951 . S
C54 C52 1.388 . S
C54 C55 1.366 1_455 S
C55 C54 1.366 1_655 S
C55 C56 1.414 1_565 S
C55 C58 1.499 . S
C56 H36 0.950 . S
C56 C55 1.414 1_545 S
C56 C57 1.374 . S
C57 H37 0.950 . S
C57 C53 1.385 1_655 S
C57 C56 1.374 . S
C58 C55 1.499 . S
C58 C59 1.373 1_665 S
C58 C60 1.389 . S
C59 H38 0.950 . S
C59 C58 1.373 1_445 S
C59 C75 1.377 . S
C60 C58 1.389 . S
C60 C61 1.524 . S
C60 C74 1.377 . S
C61 C60 1.524 . S
C61 C62 1.397 . S
C61 C66 1.363 1_655 S
C62 H39 0.950 . S
C62 C61 1.397 . S
C62 C63 1.334 . S
C63 H40 0.950 . S
C63 C62 1.334 . S
C63 C64 1.287 . S
C64 C63 1.287 . S
C64 C65 1.524 . S
C64 H83 0.913 . S
C65 H41 0.950 1_655 S
C65 C64 1.524 . S
C65 C66 1.415 1_655 S
C66 H42 0.950 . S
C66 C61 1.363 1_455 S
C66 C65 1.415 1_455 S
C67 H43 0.951 . S
C67 C68 1.368 1_645 S
C67 C69 1.388 . S
C68 C67 1.368 1_465 S
C68 C72 1.383 . S
C69 H44 0.951 . S
C69 C67 1.388 . S
C69 C70 1.366 1_655 S
C70 C69 1.366 1_455 S
C70 C71 1.414 1_545 S
C70 C73 1.499 . S
C71 H45 0.950 . S
C71 C70 1.414 1_565 S
C71 C72 1.374 . S
C72 H46 0.950 . S
C72 C68 1.383 . S
C72 C71 1.374 . S
C73 C70 1.499 . S
C73 C74 1.373 1_445 S
C73 C75 1.389 . S
C74 H47 0.950 . S
C74 C60 1.377 . S
C74 C73 1.373 1_665 S
C75 C59 1.377 . S
C75 C73 1.389 . S
C75 C76 1.524 . S
C76 C75 1.524 . S
C76 C77 1.397 . S
C76 C81 1.363 1_455 S
C77 H48 0.950 . S
C77 C76 1.397 . S
C77 C78 1.334 . S
C78 H49 0.950 . S
C78 C77 1.334 . S
C78 C79 1.287 . S
C79 C78 1.287 . S
C79 C80 1.524 . S
C79 H82 0.999 . S
C80 H50 0.950 1_455 S
C80 C79 1.524 . S
C80 C81 1.415 1_455 S
C81 H51 0.950 . S
C81 C76 1.363 1_655 S
C81 C80 1.415 1_655 S
H82 C79 0.999 . S
H83 C64 0.913 . S
H84 C102 0.951 . S
H85 C104 0.951 . S
H86 C106 0.950 . S
H87 C107 0.950 . S
H88 C109 0.950 . S
H89 C112 0.950 . S
H90 C113 0.950 . S
H91 C115 0.950 . S
H92 C116 0.950 . S
H93 C117 0.951 . S
H94 C119 0.951 . S
H95 C121 0.950 . S
H96 C122 0.950 . S
H97 C124 0.950 . S
H98 C127 0.950 . S
H99 C128 0.950 . S
H100 C130 0.950 . S
H101 C131 0.950 . S
C102 H84 0.951 . S
C102 C103 1.365 1_556 S
C102 C104 1.388 . S
C103 C102 1.365 1_554 S
C103 C107 1.385 1_545 S
C104 H85 0.951 . S
C104 C102 1.388 . S
C104 C105 1.381 1_545 S
C105 C104 1.381 1_565 S
C105 C106 1.397 1_556 S
C105 C108 1.500 1_556 S
C106 H86 0.950 . S
C106 C105 1.397 1_554 S
C106 C107 1.374 . S
C107 H87 0.950 . S
C107 C103 1.385 1_565 S
C107 C106 1.374 . S
C108 C105 1.500 1_554 S
C108 C109 1.380 1_565 S
C108 C110 1.383 1_554 S
C109 H88 0.950 . S
C109 C108 1.380 1_545 S
C109 C125 1.377 . S
C110 C108 1.383 1_556 S
C110 C111 1.524 . S
C110 C124 1.377 . S
C111 C110 1.524 . S
C111 C112 1.397 . S
C111 C116 1.363 . S
C112 H89 0.950 . S
C112 C111 1.397 . S
C112 C113 1.334 . S
C113 H90 0.950 . S
C113 C112 1.334 . S
C113 C114 1.287 . S
C114 C113 1.287 . S
C114 C115 1.524 . S
C114 H133 0.913 . S
C115 H91 0.950 . S
C115 C114 1.524 . S
C115 C116 1.415 . S
C116 H92 0.950 . S
C116 C111 1.363 . S
C116 C115 1.415 . S
C117 H93 0.951 . S
C117 C118 1.365 1_565 S
C117 C119 1.388 . S
C118 C117 1.365 1_545 S
C118 C122 1.385 1_554 S
C119 H94 0.951 . S
C119 C117 1.388 . S
C119 C120 1.366 1_565 S
C120 C119 1.366 1_545 S
C120 C121 1.414 1_554 S
C120 C123 1.499 1_554 S
C121 H95 0.950 . S
C121 C120 1.414 1_556 S
C121 C122 1.374 . S
C122 H96 0.950 . S
C122 C118 1.385 1_556 S
C122 C121 1.374 . S
C123 C120 1.499 1_556 S
C123 C124 1.376 1_545 S
C123 C125 1.387 1_556 S
C124 H97 0.950 . S
C124 C110 1.377 . S
C124 C123 1.376 1_565 S
C125 C109 1.377 . S
C125 C123 1.387 1_554 S
C125 C126 1.524 . S
C126 C125 1.524 . S
C126 C127 1.397 . S
C126 C131 1.363 . S
C127 H98 0.950 . S
C127 C126 1.397 . S
C127 C128 1.334 . S
C128 H99 0.950 . S
C128 C127 1.334 . S
C128 C129 1.287 . S
C129 C128 1.287 . S
C129 C130 1.524 . S
C129 H132 0.999 . S
C130 H100 0.950 . S
C130 C129 1.524 . S
C130 C131 1.415 . S
C131 H101 0.950 . S
C131 C126 1.363 . S
C131 C130 1.415 . S
H132 C129 0.999 . S
H133 C114 0.913 . S
H134 C152 0.951 . S
H135 C154 0.951 . S
H136 C156 0.950 . S
H137 C157 0.950 . S
H138 C159 0.950 . S
H139 C162 0.950 . S
H140 C163 0.950 . S
H141 C165 0.950 . S
H142 C166 0.950 . S
H143 C167 0.951 . S
H144 C169 0.951 . S
H145 C171 0.950 . S
H146 C172 0.950 . S
H147 C174 0.950 . S
H148 C177 0.950 . S
H149 C178 0.950 . S
H150 C180 0.950 . S
H151 C181 0.950 . S
C152 H134 0.951 . S
C152 C153 1.365 1_556 S
C152 C154 1.388 . S
C153 C152 1.365 1_554 S
C153 C157 1.385 1_455 S
C154 H135 0.951 . S
C154 C152 1.388 . S
C154 C155 1.366 1_455 S
C155 C154 1.366 1_655 S
C155 C156 1.414 1_556 S
C155 C158 1.499 . S
C156 H136 0.950 . S
C156 C155 1.414 1_554 S
C156 C157 1.374 . S
C157 H137 0.950 . S
C157 C153 1.385 1_655 S
C157 C156 1.374 . S
C158 C155 1.499 . S
C158 C159 1.373 1_656 S
C158 C160 1.389 . S
C159 H138 0.950 . S
C159 C158 1.373 1_454 S
C159 C175 1.377 . S
C160 C158 1.389 . S
C160 C161 1.524 . S
C160 C174 1.377 . S
C161 C160 1.524 . S
C161 C162 1.397 . S
C161 C166 1.363 1_655 S
C162 H139 0.950 . S
C162 C161 1.397 . S
C162 C163 1.334 . S
C163 H140 0.950 . S
C163 C162 1.334 . S
C163 C164 1.287 . S
C164 C163 1.287 . S
C164 C165 1.524 1_655 S
C164 H183 0.913 . S
C165 H141 0.950 . S
C165 C164 1.524 1_455 S
C165 C166 1.415 . S
C166 H142 0.950 . S
C166 C161 1.363 1_455 S
C166 C165 1.415 . S
C167 H143 0.951 . S
C167 C168 1.365 1_655 S
C167 C169 1.388 . S
C168 C167 1.365 1_455 S
C168 C172 1.385 1_554 S
C169 H144 0.951 . S
C169 C167 1.388 . S
C169 C170 1.366 1_655 S
C170 C169 1.366 1_455 S
C170 C171 1.414 1_554 S
C170 C173 1.499 . S
C171 H145 0.950 . S
C171 C170 1.414 1_556 S
C171 C172 1.374 . S
C172 H146 0.950 . S
C172 C168 1.385 1_556 S
C172 C171 1.374 . S
C173 C170 1.499 . S
C173 C174 1.373 1_454 S
C173 C175 1.389 . S
C174 H147 0.950 . S
C174 C160 1.377 . S
C174 C173 1.373 1_656 S
C175 C159 1.377 . S
C175 C173 1.389 . S
C175 C176 1.524 . S
C176 C175 1.524 . S
C176 C177 1.397 . S
C176 C181 1.363 1_455 S
C177 H148 0.950 . S
C177 C176 1.397 . S
C177 C178 1.334 . S
C178 H149 0.950 . S
C178 C177 1.334 . S
C178 C179 1.287 . S
C179 C178 1.287 . S
C179 C180 1.524 1_455 S
C179 H182 0.999 . S
C180 H150 0.950 . S
C180 C179 1.524 1_655 S
C180 C181 1.415 . S
C181 H151 0.950 . S
C181 C176 1.363 1_655 S
C181 C180 1.415 . S
H182 C179 0.999 . S
H183 C164 0.913 . S
C53 C13 1.498 1_545 S
C68 C4 1.498 1_465 S
C103 C0 1.499 . S
C118 C29 1.498 1_544 S
C153 C8 1.497 1_454 S
C168 C17 1.497 . S
