# Generated by pormake.
# Topology snp, (6)-cn, num edge types: 1
# Building blocks:
#     Node 0, Type 0, BuildingBlock: LEVNOQ01_clean_sbu_1, # of connection points: 6
#     Node 1, Type 0, BuildingBlock: LEVNOQ01_clean_sbu_1, # of connection points: 6
#     Node 2, Type 0, BuildingBlock: LEVNOQ01_clean_sbu_1, # of connection points: 6
#     Node 3, Type 0, BuildingBlock: LEVNOQ01_clean_sbu_1, # of connection points: 6
#     Edge 4, Type (0, 0), BuildingBlock: EYOCIG_clean_linker_4, # of connection points: 2
#     Edge 5, Type (0, 0), BuildingBlock: EYOCIG_clean_linker_4, # of connection points: 2
#     Edge 6, Type (0, 0), BuildingBlock: EYOCIG_clean_linker_4, # of connection points: 2
#     Edge 7, Type (0, 0), BuildingBlock: EYOCIG_clean_linker_4, # of connection points: 2
#     Edge 8, Type (0, 0), BuildingBlock: EYOCIG_clean_linker_4, # of connection points: 2
#     Edge 9, Type (0, 0), BuildingBlock: EYOCIG_clean_linker_4, # of connection points: 2
#     Edge 10, Type (0, 0), BuildingBlock: EYOCIG_clean_linker_4, # of connection points: 2
#     Edge 11, Type (0, 0), BuildingBlock: EYOCIG_clean_linker_4, # of connection points: 2
#     Edge 12, Type (0, 0), BuildingBlock: EYOCIG_clean_linker_4, # of connection points: 2
#     Edge 13, Type (0, 0), BuildingBlock: EYOCIG_clean_linker_4, # of connection points: 2
#     Edge 14, Type (0, 0), BuildingBlock: EYOCIG_clean_linker_4, # of connection points: 2
#     Edge 15, Type (0, 0), BuildingBlock: EYOCIG_clean_linker_4, # of connection points: 2
# Relax obj value: 0.507
# Max RMSD: 0.250
# Mean RMSD: 0.247
data_MOF--net-snp--node1-LEVNOQ01_clean_sbu_1--edge1-EYOCIG_clean_linker_4
_symmetry_space_group_name_H-M    P1
_symmetry_Int_Tables_number       1
_symmetry_cell_setting            triclinic
loop_
_symmetry_equiv_pos_as_xyz
'x, y, z'
_cell_length_a     23.109386
_cell_length_b     23.146312
_cell_length_c     15.830824
_cell_angle_alpha  102.05142
_cell_angle_beta   102.14665
_cell_angle_gamma 94.490892
loop_
_atom_site_label
_atom_site_type_symbol
_atom_site_fract_x
_atom_site_fract_y
_atom_site_fract_z
_atom_type_partial_charge
O0 O 0.20689 0.03332 0.9852 0.0
Mg1 Mg 0.15554 0.95799 0.99259 0.0
O2 O 0.27134 0.05254 1.11767 0.0
Mg3 Mg 0.2359 -0.00939 0.20426 0.0
O4 O 0.14351 -0.02174 1.11724 0.0
O5 O 0.06707 0.96132 1.00155 0.0
O6 O 0.19752 0.93335 0.29182 0.0
O7 O 0.21603 0.0801 0.29127 0.0
Mg8 Mg 0.31677 0.02176 0.418 0.0
O9 O 0.32719 0.00072 0.29202 0.0
O10 O 0.25671 0.94933 0.42791 0.0
O11 O 0.27942 0.10339 0.42506 0.0
O12 O 0.40552 0.01418 0.40328 0.0
C13 C 0.23486 0.86537 1.04271 0.0
C14 C 0.25194 0.06365 1.04119 0.0
C15 C 0.08687 -0.02727 1.08613 0.0
C16 C 0.21054 0.92271 0.36942 0.0
C17 C 0.23781 0.11559 0.3675 0.0
C18 C 0.3837 0.00189 0.31894 0.0
O19 O 0.19419 0.87883 0.98551 0.0
O20 O 0.25649 0.8998 1.11971 0.0
O21 O 0.95559 0.25063 0.92644 0.0
Mg22 Mg 0.02798 0.31087 0.91687 0.0
O23 O 0.93875 0.19208 0.78989 0.0
Mg24 Mg -0.00383 0.23103 0.70261 0.0
O25 O 0.00647 0.32181 0.7912 0.0
O26 O 0.02016 0.39963 0.90289 0.0
O27 O 0.05887 0.26723 0.61742 0.0
O28 O 0.90508 0.25227 0.61865 0.0
Mg29 Mg -0.03617 0.15396 0.49102 0.0
O30 O -0.0162 0.13892 0.6143 0.0
O31 O 0.03915 0.20492 0.4835 0.0
O32 O 0.88422 0.1917 0.48341 0.0
O33 O -0.03287 0.06515 0.49494 0.0
C34 C 0.12145 0.23189 0.86537 0.0
C35 C 0.92856 0.20479 0.86781 0.0
C36 C 0.00753 0.37815 0.81848 0.0
C37 C 0.07002 0.24894 0.54078 0.0
C38 C 0.87059 0.2315 0.54139 0.0
C39 C -0.02181 0.08275 0.57985 0.0
O40 O 0.10964 0.27346 0.92318 0.0
O41 O 0.08564 0.21047 0.78925 0.0
O42 O 0.70047 -0.00369 0.94832 0.0
Mg43 Mg 0.63992 0.92403 0.95739 0.0
O44 O 0.7591 0.01269 1.08495 0.0
Mg45 Mg 0.71979 0.95529 0.17195 0.0
O46 O 0.62899 0.94524 1.08297 0.0
O47 O 0.55099 0.93188 0.97127 0.0
O48 O 0.68323 0.8927 0.25691 0.0
O49 O 0.69864 0.04617 0.25584 0.0
Mg50 Mg 0.79702 -0.01276 0.38394 0.0
O51 O 0.8119 -0.03267 0.26067 0.0
O52 O 0.7456 0.91208 0.39099 0.0
O53 O 0.75933 0.0668 0.39119 0.0
O54 O 0.88598 -0.01636 0.37982 0.0
C55 C 0.71877 0.83041 1.00915 0.0
C56 C 0.74644 0.02308 1.00711 0.0
C57 C 0.57254 0.94423 1.05568 0.0
C58 C 0.70144 0.88144 0.33357 0.0
C59 C 0.71949 0.08051 0.33312 0.0
C60 C 0.86819 -0.02728 0.29493 0.0
O61 O 0.67729 0.84245 0.9512 0.0
O62 O 0.74022 0.86598 1.08539 0.0
O63 O 0.84602 0.67129 0.4494 0.0
Mg64 Mg 0.92774 0.63391 0.45661 0.0
O65 O 0.86981 0.73478 0.58288 0.0
Mg66 Mg 0.95947 0.7148 0.67001 0.0
O67 O 0.94908 0.62351 0.58269 0.0
O68 O 0.93533 0.54534 0.47148 0.0
O69 O 0.05046 0.69415 0.75469 0.0
O70 O 0.89744 0.67977 0.75687 0.0
Mg71 Mg -0.00753 0.79518 0.88126 0.0
O72 O -0.02785 0.80719 0.75652 0.0
O73 O 0.07166 0.75645 0.88869 0.0
O74 O 0.91695 0.74427 0.88907 0.0
O75 O -0.01065 0.88346 0.87218 0.0
C76 C 0.02716 0.73969 0.50443 0.0
C77 C 0.83406 0.71302 0.50679 0.0
C78 C 0.9479 0.5671 0.55581 0.0
C79 C 0.08504 0.71576 0.83165 0.0
C80 C 0.88641 0.69933 0.83328 0.0
C81 C -0.02222 0.86373 0.78761 0.0
O82 O 0.00027 0.69365 0.44611 0.0
O83 O 0.01673 0.75278 0.58211 0.0
C84 C 0.95322 -0.0285 0.2096 0.0
C85 C 0.91119 -0.02886 0.24265 0.0
C86 C 0.00438 -0.02584 0.17591 0.0
C87 C 0.04569 -0.02544 1.14135 0.0
C88 C -0.02364 0.94626 0.698 0.0
C89 C -0.02408 0.90488 0.73236 0.0
C90 C -0.02084 -0.00247 0.6647 0.0
C91 C -0.02034 0.03966 0.63196 0.0
C92 C 0.49921 -0.03269 0.16142 0.0
C93 C 0.5344 0.95709 1.11573 0.0
C94 C 0.45674 -0.021 0.21271 0.0
C95 C 0.42163 -0.01087 0.25855 0.0
C96 C -0.01629 0.45151 0.71293 0.0
C97 C -0.00575 0.41626 0.75845 0.0
C98 C -0.02841 0.49407 0.6619 0.0
C99 C -0.03888 0.52923 0.61622 0.0
C100 C 0.16327 0.253 0.48064 0.0
C101 C 0.12648 0.26581 0.52307 0.0
C102 C 0.19305 0.21308 0.42933 0.0
C103 C 0.21072 0.16821 0.39505 0.0
C104 C 0.8546 0.13363 0.92023 0.0
C105 C 0.8878 0.16461 0.89311 0.0
C106 C 0.81788 0.09696 0.95502 0.0
C107 C 0.78679 0.06379 0.98206 0.0
C108 C 0.73668 0.75819 0.44481 0.0
C109 C 0.78152 0.74031 0.4791 0.0
C110 C 0.6969 0.78821 0.39352 0.0
C111 C 0.6843 0.82508 0.35116 0.0
C112 C 0.19435 0.71449 0.90332 0.0
C113 C 0.14522 0.7021 0.85419 0.0
C114 C 0.23607 0.75622 0.97131 0.0
C115 C 0.24844 0.80526 1.02031 0.0
C116 C 0.76418 0.73339 0.94754 0.0
C117 C 0.74626 0.77805 0.98192 0.0
C118 C 0.79414 0.69402 0.89575 0.0
C119 C 0.83067 0.68182 0.85263 0.0
C120 C 0.13902 0.84815 0.42018 0.0
C121 C 0.17037 0.88174 0.39427 0.0
C122 C 0.10176 0.81094 0.45329 0.0
C123 C 0.06815 0.77967 0.4793 0.0
C124 C 0.21839 0.18609 0.92715 0.0
C125 C 0.17376 0.2042 0.89274 0.0
C126 C 0.25763 0.15593 0.97894 0.0
C127 C 0.26965 0.11932 1.022 0.0
C128 C 0.71901 0.19003 0.40341 0.0
C129 C 0.70644 0.14086 0.35477 0.0
C130 C 0.76089 0.23194 0.47094 0.0
C131 C 0.81014 0.24459 0.51969 0.0
loop_
_geom_bond_atom_site_label_1
_geom_bond_atom_site_label_2
_geom_bond_distance
_geom_bond_site_symmetry_2
_ccdc_geom_bond_type
O0 Mg1 1.990 . S
O0 C14 1.253 . S
Mg1 O0 1.990 . S
Mg1 O4 2.180 1_556 S
Mg1 O5 2.117 . S
Mg1 O19 2.030 1_545 S
O2 Mg3 2.072 . S
O2 C14 1.260 1_554 S
Mg3 O2 2.072 . S
Mg3 O4 2.099 . S
Mg3 O6 2.079 1_545 S
Mg3 O7 2.072 . S
Mg3 O9 2.099 . S
Mg3 O20 2.079 1_544 S
O4 Mg1 2.180 1_554 S
O4 Mg3 2.099 . S
O4 C15 1.279 . S
O5 Mg1 2.117 . S
O5 C15 1.250 1_556 S
O6 Mg3 2.079 1_565 S
O6 C16 1.264 . S
O7 Mg3 2.072 . S
O7 C17 1.260 . S
Mg8 O9 2.180 . S
Mg8 O10 2.030 1_545 S
Mg8 O11 1.990 . S
Mg8 O12 2.117 . S
O9 Mg3 2.099 . S
O9 Mg8 2.180 . S
O9 C18 1.279 . S
O10 Mg8 2.030 1_565 S
O10 C16 1.248 . S
O11 Mg8 1.990 . S
O11 C17 1.253 . S
O12 Mg8 2.117 . S
O12 C18 1.250 . S
C13 O19 1.248 . S
C13 O20 1.264 . S
C14 O0 1.253 . S
C14 O2 1.260 1_556 S
C15 O4 1.279 . S
C15 O5 1.250 1_554 S
C16 O6 1.264 . S
C16 O10 1.248 . S
C17 O7 1.260 . S
C17 O11 1.253 . S
C18 O9 1.279 . S
C18 O12 1.250 . S
O19 Mg1 2.030 1_565 S
O19 C13 1.248 . S
O20 Mg3 2.079 1_566 S
O20 C13 1.264 . S
O21 Mg22 1.990 1_655 S
O21 C35 1.253 . S
Mg22 O21 1.990 1_455 S
Mg22 O25 2.180 . S
Mg22 O26 2.117 1_455 S
Mg22 O40 2.030 . S
O23 Mg24 2.072 1_655 S
O23 C35 1.260 . S
Mg24 O23 2.072 1_455 S
Mg24 O25 2.099 . S
Mg24 O27 2.079 . S
Mg24 O28 2.072 1_455 S
Mg24 O30 2.099 . S
Mg24 O41 2.079 . S
O25 Mg22 2.180 . S
O25 Mg24 2.099 . S
O25 C36 1.279 . S
O26 Mg22 2.117 1_655 S
O26 C36 1.250 1_655 S
O27 Mg24 2.079 . S
O27 C37 1.264 . S
O28 Mg24 2.072 1_655 S
O28 C38 1.260 . S
Mg29 O30 2.180 . S
Mg29 O31 2.030 . S
Mg29 O32 1.990 1_455 S
Mg29 O33 2.117 1_455 S
O30 Mg24 2.099 . S
O30 Mg29 2.180 . S
O30 C39 1.279 . S
O31 Mg29 2.030 . S
O31 C37 1.248 . S
O32 Mg29 1.990 1_655 S
O32 C38 1.253 . S
O33 Mg29 2.117 1_655 S
O33 C39 1.250 1_655 S
C34 O40 1.248 . S
C34 O41 1.264 . S
C35 O21 1.253 . S
C35 O23 1.260 . S
C36 O25 1.279 . S
C36 O26 1.250 1_455 S
C37 O27 1.264 . S
C37 O31 1.248 . S
C38 O28 1.260 . S
C38 O32 1.253 . S
C39 O30 1.279 . S
C39 O33 1.250 1_455 S
O40 Mg22 2.030 . S
O40 C34 1.248 . S
O41 Mg24 2.079 . S
O41 C34 1.264 . S
O42 Mg43 1.990 1_545 S
O42 C56 1.253 . S
Mg43 O42 1.990 1_565 S
Mg43 O46 2.180 . S
Mg43 O47 2.117 1_565 S
Mg43 O61 2.030 . S
O44 Mg45 2.072 1_546 S
O44 C56 1.260 . S
Mg45 O44 2.072 1_564 S
Mg45 O46 2.099 1_554 S
Mg45 O48 2.079 . S
Mg45 O49 2.072 1_565 S
Mg45 O51 2.099 . S
Mg45 O62 2.079 1_554 S
O46 Mg43 2.180 . S
O46 Mg45 2.099 1_556 S
O46 C57 1.279 1_565 S
O47 Mg43 2.117 1_545 S
O47 C57 1.250 . S
O48 Mg45 2.079 . S
O48 C58 1.264 . S
O49 Mg45 2.072 1_545 S
O49 C59 1.260 . S
Mg50 O51 2.181 1_545 S
Mg50 O52 2.020 1_545 S
Mg50 O53 2.003 . S
Mg50 O54 2.124 . S
O51 Mg45 2.099 . S
O51 Mg50 2.181 1_565 S
O51 C60 1.279 1_565 S
O52 Mg50 2.020 1_565 S
O52 C58 1.248 . S
O53 Mg50 2.003 . S
O53 C59 1.253 . S
O54 Mg50 2.124 . S
O54 C60 1.250 . S
C55 O61 1.248 . S
C55 O62 1.264 . S
C56 O42 1.253 . S
C56 O44 1.260 . S
C57 O46 1.279 1_545 S
C57 O47 1.250 . S
C58 O48 1.264 . S
C58 O52 1.248 . S
C59 O49 1.260 . S
C59 O53 1.253 . S
C60 O51 1.279 1_545 S
C60 O54 1.250 . S
O61 Mg43 2.030 . S
O61 C55 1.248 . S
O62 Mg45 2.079 1_556 S
O62 C55 1.264 . S
O63 Mg64 1.990 1_655 S
O63 C77 1.253 . S
Mg64 O63 1.990 1_455 S
Mg64 O67 2.180 . S
Mg64 O68 2.117 1_455 S
Mg64 O82 2.030 . S
O65 Mg66 2.072 1_655 S
O65 C77 1.260 . S
Mg66 O65 2.072 1_455 S
Mg66 O67 2.099 . S
Mg66 O69 2.079 . S
Mg66 O70 2.072 1_455 S
Mg66 O72 2.099 . S
Mg66 O83 2.079 . S
O67 Mg64 2.180 . S
O67 Mg66 2.099 . S
O67 C78 1.279 1_455 S
O68 Mg64 2.117 1_655 S
O68 C78 1.250 . S
O69 Mg66 2.079 . S
O69 C79 1.264 . S
O70 Mg66 2.072 1_655 S
O70 C80 1.260 . S
Mg71 O72 2.180 . S
Mg71 O73 2.030 . S
Mg71 O74 1.990 1_455 S
Mg71 O75 2.117 1_455 S
O72 Mg66 2.099 . S
O72 Mg71 2.180 . S
O72 C81 1.279 1_455 S
O73 Mg71 2.030 . S
O73 C79 1.248 . S
O74 Mg71 1.990 1_655 S
O74 C80 1.253 . S
O75 Mg71 2.117 1_655 S
O75 C81 1.250 . S
C76 O82 1.248 . S
C76 O83 1.264 . S
C77 O63 1.253 . S
C77 O65 1.260 . S
C78 O67 1.279 1_655 S
C78 O68 1.250 . S
C79 O69 1.264 . S
C79 O73 1.248 . S
C80 O70 1.260 . S
C80 O74 1.253 . S
C81 O72 1.279 1_655 S
C81 O75 1.250 . S
O82 Mg64 2.030 . S
O82 C76 1.248 . S
O83 Mg66 2.079 . S
O83 C76 1.264 . S
C84 C85 1.170 1_554 S
C84 C86 1.380 1_655 S
C85 C84 1.170 1_556 S
C86 C84 1.380 1_455 S
C86 C87 1.170 . S
C87 C86 1.170 . S
C88 C89 1.170 . S
C88 C90 1.380 1_665 S
C89 C88 1.170 . S
C90 C88 1.380 1_445 S
C90 C91 1.170 . S
C91 C90 1.170 . S
C92 C93 1.170 . S
C92 C94 1.380 . S
C93 C92 1.170 . S
C94 C92 1.380 . S
C94 C95 1.170 . S
C95 C94 1.170 . S
C96 C97 1.170 1_655 S
C96 C98 1.380 . S
C97 C96 1.170 1_455 S
C98 C96 1.380 . S
C98 C99 1.170 . S
C99 C98 1.170 . S
C100 C101 1.170 . S
C100 C102 1.380 . S
C101 C100 1.170 . S
C102 C100 1.380 . S
C102 C103 1.170 . S
C103 C102 1.170 . S
C104 C105 1.170 . S
C104 C106 1.380 . S
C105 C104 1.170 . S
C106 C104 1.380 . S
C106 C107 1.170 . S
C107 C106 1.170 . S
C108 C109 1.170 . S
C108 C110 1.380 . S
C109 C108 1.170 . S
C110 C108 1.380 . S
C110 C111 1.170 . S
C111 C110 1.170 . S
C112 C113 1.170 . S
C112 C114 1.380 . S
C113 C112 1.170 . S
C114 C112 1.380 . S
C114 C115 1.170 . S
C115 C114 1.170 . S
C116 C117 1.170 . S
C116 C118 1.380 . S
C117 C116 1.170 . S
C118 C116 1.380 . S
C118 C119 1.170 . S
C119 C118 1.170 . S
C120 C121 1.170 . S
C120 C122 1.380 . S
C121 C120 1.170 . S
C122 C120 1.380 . S
C122 C123 1.170 . S
C123 C122 1.170 . S
C124 C125 1.170 . S
C124 C126 1.380 . S
C125 C124 1.170 . S
C126 C124 1.380 . S
C126 C127 1.170 . S
C127 C126 1.170 . S
C128 C129 1.170 . S
C128 C130 1.380 . S
C129 C128 1.170 . S
C130 C128 1.380 . S
C130 C131 1.170 . S
C131 C130 1.170 . S
C85 C60 0.988 1_556 S
C87 C15 0.874 . S
C89 C81 0.987 . S
C91 C39 0.871 . S
C93 C57 0.900 1_554 S
C95 C18 0.986 . S
C97 C36 0.925 . S
C99 C78 0.941 . S
C101 C37 1.320 . S
C103 C17 1.516 . S
C105 C35 1.787 . S
C107 C56 1.792 . S
C109 C77 1.538 . S
C111 C58 1.381 . S
C113 C79 1.159 . S
C115 C13 1.124 . S
C117 C55 1.534 . S
C119 C80 1.371 . S
C121 C16 1.645 . S
C123 C76 1.658 . S
C125 C34 1.549 . S
C127 C14 1.347 . S
C129 C59 1.251 . S
C131 C38 1.255 . S
