# Generated by pormake.
# Topology pcu, (6)-cn, num edge types: 1
# Building blocks:
#     Node 0, Type 0, BuildingBlock: KUMBOL_clean_sbu_1, # of connection points: 6
#     Edge 1, Type (0, 0), BuildingBlock: UVAHIK_clean_linker_0, # of connection points: 2
#     Edge 2, Type (0, 0), BuildingBlock: UVAHIK_clean_linker_0, # of connection points: 2
#     Edge 3, Type (0, 0), BuildingBlock: UVAHIK_clean_linker_0, # of connection points: 2
# Relax obj value: 0.000
# Max RMSD: 0.000
# Mean RMSD: 0.000
data_MOF--net-pcu--node1-KUMBOL_clean_sbu_1--edge1-UVAHIK_clean_linker_0
_symmetry_space_group_name_H-M    P1
_symmetry_Int_Tables_number       1
_symmetry_cell_setting            triclinic
loop_
_symmetry_equiv_pos_as_xyz
'x, y, z'
_cell_length_a     19.410783
_cell_length_b     28.707578
_cell_length_c     19.513323
_cell_angle_alpha  114.40812
_cell_angle_beta   88.643403
_cell_angle_gamma 115.67985
loop_
_atom_site_label
_atom_site_type_symbol
_atom_site_fract_x
_atom_site_fract_y
_atom_site_fract_z
_atom_type_partial_charge
C0 C 0.248 0.16814 0.11747 0.0
C1 C 0.31563 0.18712 0.01848 0.0
C2 C 0.24558 0.16411 0.04394 0.0
C3 C 0.38735 0.21185 0.06642 0.0
C4 C 0.31988 0.19366 0.16616 0.0
C5 C 0.38947 0.2151 0.14002 0.0
N6 N 0.17971 0.14523 0.14041 0.0
C7 C 0.17891 0.14826 0.21204 0.0
C8 C 0.31958 0.19619 0.2394 0.0
C9 C 0.24878 0.17361 0.26252 0.0
Gd10 Gd 0.9625 0.92746 0.93672 0.0
Gd11 Gd 0.06558 0.10317 0.05201 0.0
N12 N 0.17512 0.13923 -0.00172 0.0
C13 C 0.31161 0.18591 0.94626 0.0
C14 C 0.17155 0.14303 0.93107 0.0
C15 C 0.23929 0.16481 0.90308 0.0
H16 H 0.11722 0.13141 0.89975 0.0
H17 H 0.23572 0.16646 0.84891 0.0
H18 H 0.91085 0.89923 0.08899 0.0
H19 H 0.12426 0.1313 0.2302 0.0
H20 H 0.79233 0.86418 0.13982 0.0
H21 H 0.36404 0.20321 0.92467 0.0
H22 H 0.44161 0.22929 0.04746 0.0
H23 H 0.90383 0.89933 0.75853 0.0
H24 H 0.37362 0.21545 0.27848 0.0
H25 H 0.24799 0.17567 0.31917 0.0
H26 H 0.58646 0.80135 0.94125 0.0
H27 H 0.44527 0.23451 0.17641 0.0
H28 H 0.65447 0.81518 0.71024 0.0
H29 H 0.78011 0.85496 0.66956 0.0
N30 N 0.84837 0.8854 0.84831 0.0
C31 C 0.78008 0.86249 0.87125 0.0
C32 C 0.84918 0.88237 0.77668 0.0
C33 C 0.70851 0.83444 0.74931 0.0
C34 C 0.77931 0.85702 0.7262 0.0
C35 C 0.7082 0.83697 0.82255 0.0
H36 H 0.58281 0.79612 0.8123 0.0
N37 N 0.85294 0.89139 0.99044 0.0
C38 C 0.78249 0.86651 0.94478 0.0
C39 C 0.71646 0.84473 0.04246 0.0
C40 C 0.71244 0.84351 0.97024 0.0
C41 C 0.85652 0.88761 0.05766 0.0
C42 C 0.78877 0.86583 0.08565 0.0
O43 O 0.13527 0.05725 0.0537 0.0
O44 O 0.08865 0.97906 0.93544 0.0
O45 O 0.98003 0.85992 0.94847 0.0
O46 O 0.95509 0.85411 0.83581 0.0
O47 O 1.01324 0.06073 0.92518 0.0
O48 O 0.02752 0.97765 0.8725 0.0
O49 O 0.8928 0.97338 0.93504 0.0
O50 O 0.93942 0.05157 0.0533 0.0
O51 O 0.04804 0.17071 0.04027 0.0
O52 O 0.07299 0.17653 0.15292 0.0
O53 O 0.01483 0.9699 0.06356 0.0
O54 O 1.00056 0.05299 0.11623 0.0
C55 C 0.14441 0.01756 -0.00464 0.0
C56 C 0.01836 0.01862 0.86612 0.0
C57 C 0.97286 0.77544 0.83489 0.0
C58 C 0.98963 0.69595 0.83624 0.0
C59 C 0.97179 0.69962 0.71595 0.0
C60 C 0.96671 0.7507 0.75483 0.0
C61 C 0.98327 0.67244 0.75615 0.0
C62 C 0.98384 0.74757 0.87552 0.0
C63 C 0.96935 0.83069 0.87437 0.0
C64 C 0.64072 0.81878 0.92229 0.0
C65 C 0.6386 0.81553 0.84869 0.0
H66 H 0.66403 0.82743 0.06405 0.0
C67 C 0.88366 1.01307 0.99338 0.0
C68 C 1.00971 1.01202 0.12262 0.0
C69 C 0.05523 0.2552 0.15385 0.0
C70 C 0.03846 0.33468 0.1525 0.0
C71 C 0.0563 0.33102 0.27279 0.0
C72 C 0.06138 0.27993 0.23391 0.0
C73 C 0.04482 0.3582 0.23259 0.0
C74 C 0.04424 0.28306 0.11323 0.0
C75 C 0.05873 0.19994 0.11437 0.0
H76 H 0.96685 0.68098 0.6543 0.0
H77 H 0.95831 0.77098 0.72193 0.0
H78 H 0.98617 0.63242 0.72427 0.0
H79 H 0.98907 0.76631 0.93726 0.0
H80 H 0.06125 0.34965 0.33444 0.0
H81 H 0.06978 0.25965 0.26681 0.0
H82 H 0.04192 0.39821 0.26447 0.0
H83 H 0.03901 0.26432 0.05148 0.0
C84 C 0.98557 0.04674 0.25697 0.0
C85 C 1.01107 1.01239 0.1988 0.0
C86 C 0.98638 0.04729 0.32885 0.0
C87 C 0.07625 1.01511 0.45686 0.0
H88 H 0.90241 1.01471 0.55926 0.0
C89 C 0.04251 0.98389 0.73177 0.0
C90 C 0.017 0.01824 0.78994 0.0
C91 C 0.0417 0.98335 0.65988 0.0
C92 C 0.95183 0.01552 0.53187 0.0
H93 H 0.05811 0.95203 0.17088 0.0
H94 H 0.05867 0.95245 0.29631 0.0
H95 H 0.90114 1.01282 0.4332 0.0
H96 H 0.96996 0.0786 0.81785 0.0
H97 H 0.9694 0.07818 0.69243 0.0
H98 H 0.12693 0.01781 0.55553 0.0
C99 C 0.03866 0.97937 0.28642 0.0
C100 C 0.95109 1.0144 0.45955 0.0
C101 C 0.03781 0.9788 0.21436 0.0
C102 C 0.99026 0.05183 0.77437 0.0
C103 C 0.98941 0.05126 0.70232 0.0
C104 C 0.07698 0.01624 0.52919 0.0
C105 C 1.01277 1.01355 0.34449 0.0
C106 C 1.01331 1.0142 0.42116 0.0
C107 C 0.0153 0.01708 0.64425 0.0
C108 C 0.01476 0.01643 0.56758 0.0
H109 H 0.96466 0.07322 0.24703 0.0
H110 H 0.96711 0.07474 0.37254 0.0
H111 H 0.12566 0.01592 0.42947 0.0
H112 H 0.06342 0.95741 0.74171 0.0
H113 H 0.06098 0.9559 0.6162 0.0
C114 C 0.27445 0.04668 0.06415 0.0
C115 C 0.2205 0.01749 -0.00451 0.0
C116 C 0.34644 0.04665 0.06394 0.0
C117 C 0.44612 0.96496 0.9494 0.0
H118 H 0.63401 0.1054 0.07374 0.0
C119 C 0.75362 0.98395 0.92459 0.0
C120 C 0.80758 1.01313 0.99325 0.0
C121 C 0.68163 0.98397 0.9248 0.0
C122 C 0.58196 0.06566 0.03935 0.0
H123 H 0.19945 0.96504 0.8727 0.0
H124 H 0.32485 0.96483 0.87233 0.0
H125 H 0.5092 0.10674 0.07446 0.0
H126 H 0.82862 0.06559 0.11604 0.0
H127 H 0.70322 0.06579 0.11642 0.0
H128 H 0.51887 0.92389 0.91428 0.0
C129 C 0.31145 0.98752 0.92646 0.0
C130 C 0.51046 0.06645 0.03977 0.0
C131 C 0.23966 0.98778 0.92667 0.0
C132 C 0.78841 0.04285 0.06207 0.0
C133 C 0.71662 0.04311 0.06228 0.0
C134 C 0.51762 0.96418 0.94897 0.0
C135 C 0.36567 0.01691 -0.00492 0.0
C136 C 0.44171 0.01611 -0.00522 0.0
C137 C 0.6624 1.01372 0.99366 0.0
C138 C 0.58636 1.01452 0.99396 0.0
H139 H 0.26062 0.06877 0.1183 0.0
H140 H 0.38642 0.06899 0.11795 0.0
H141 H 0.39406 0.92523 0.915 0.0
H142 H 0.76746 0.96186 0.87044 0.0
H143 H 0.64165 0.96163 0.87079 0.0
C144 C 0.95563 0.65433 0.93078 0.0
C145 C 1.00132 0.66536 0.87703 0.0
C146 C 0.96044 0.61931 0.96166 0.0
C147 C 0.01931 0.5047 0.91838 0.0
H148 H 1.00595 0.53568 0.1299 0.0
C149 C 0.07245 0.37631 0.05796 0.0
C150 C 0.02676 0.36527 0.11171 0.0
C151 C 0.06764 0.41132 0.02708 0.0
C152 C 1.00877 0.52594 0.07036 0.0
H153 H 0.0914 0.65144 0.8173 0.0
H154 H 0.10058 0.59128 0.8717 0.0
H155 H 1.00358 0.60231 0.08426 0.0
H156 H 0.93669 0.3792 0.17144 0.0
H157 H 0.92751 0.43936 0.11705 0.0
H158 H 0.0245 0.42832 0.90448 0.0
C159 C 0.05936 0.60812 0.88847 0.0
C160 C 1.00751 0.56427 0.04424 0.0
C161 C 0.05438 0.64286 0.85756 0.0
C162 C 0.9737 0.38778 0.13119 0.0
C163 C 0.96872 0.42252 0.10028 0.0
C164 C 0.02057 0.46636 0.9445 0.0
C165 C 1.0113 0.59481 0.93964 0.0
C166 C 1.01286 0.55421 0.96792 0.0
C167 C 0.01678 0.43582 0.0491 0.0
C168 C 0.01522 0.47642 0.02082 0.0
H169 H 0.91381 0.67069 0.94646 0.0
H170 H 0.92223 0.60973 0.00061 0.0
H171 H 0.02213 0.49496 0.85884 0.0
H172 H 0.11427 0.35994 0.04228 0.0
H173 H 0.10585 0.4209 0.98813 0.0
loop_
_geom_bond_atom_site_label_1
_geom_bond_atom_site_label_2
_geom_bond_distance
_geom_bond_site_symmetry_2
_ccdc_geom_bond_type
C0 C2 1.422 . S
C0 C4 1.415 . S
C0 N6 1.369 . S
C1 C2 1.421 . S
C1 C3 1.417 . S
C1 C13 1.422 . S
C2 C0 1.422 . S
C2 C1 1.421 . S
C2 N12 1.359 . S
C3 C1 1.417 . S
C3 C5 1.329 . S
C3 H22 0.930 . S
C4 C0 1.415 . S
C4 C5 1.437 . S
C4 C8 1.413 . S
C5 C3 1.329 . S
C5 C4 1.437 . S
C5 H27 0.929 . S
N6 C0 1.369 . S
N6 C7 1.338 . S
N6 Gd11 2.622 . S
C7 N6 1.338 . S
C7 C9 1.378 . S
C7 H19 0.929 . S
C8 C4 1.413 . S
C8 C9 1.348 . S
C8 H24 0.931 . S
C9 C7 1.378 . S
C9 C8 1.348 . S
C9 H25 0.930 . S
Gd10 N30 2.622 . S
Gd10 N37 2.570 . S
Gd10 O44 2.353 1_655 S
Gd10 O45 2.468 . S
Gd10 O46 2.427 . S
Gd10 O48 2.388 . S
Gd10 O49 2.386 . S
Gd10 O53 2.307 1_556 S
Gd10 C63 2.805 . S
Gd11 N6 2.622 . S
Gd11 N12 2.570 . S
Gd11 O43 2.386 . S
Gd11 O47 2.307 1_554 S
Gd11 O50 2.353 1_455 S
Gd11 O51 2.468 . S
Gd11 O52 2.427 . S
Gd11 O54 2.388 . S
Gd11 C75 2.805 . S
N12 C2 1.359 . S
N12 Gd11 2.570 . S
N12 C14 1.343 1_554 S
C13 C1 1.422 . S
C13 C15 1.321 1_554 S
C13 H21 0.931 1_554 S
C14 N12 1.343 1_556 S
C14 C15 1.390 . S
C14 H16 0.931 . S
C15 C13 1.321 1_556 S
C15 C14 1.390 . S
C15 H17 0.930 . S
H16 C14 0.931 . S
H17 C15 0.930 . S
H18 C41 0.931 . S
H19 C7 0.929 . S
H20 C42 0.930 . S
H21 C13 0.931 1_556 S
H22 C3 0.930 . S
H23 C32 0.929 . S
H24 C8 0.931 . S
H25 C9 0.930 . S
H26 C64 0.930 . S
H27 C5 0.929 . S
H28 C33 0.931 . S
H29 C34 0.930 . S
N30 Gd10 2.622 . S
N30 C31 1.369 . S
N30 C32 1.338 . S
C31 N30 1.369 . S
C31 C35 1.415 . S
C31 C38 1.422 . S
C32 H23 0.929 . S
C32 N30 1.338 . S
C32 C34 1.378 . S
C33 H28 0.931 . S
C33 C34 1.348 . S
C33 C35 1.413 . S
C34 H29 0.930 . S
C34 C32 1.378 . S
C34 C33 1.348 . S
C35 C31 1.415 . S
C35 C33 1.413 . S
C35 C65 1.437 . S
H36 C65 0.929 . S
N37 Gd10 2.570 . S
N37 C38 1.359 . S
N37 C41 1.343 1_556 S
C38 C31 1.422 . S
C38 N37 1.359 . S
C38 C40 1.421 . S
C39 C40 1.422 . S
C39 C42 1.321 1_556 S
C39 H66 0.931 1_556 S
C40 C38 1.421 . S
C40 C39 1.422 . S
C40 C64 1.417 . S
C41 H18 0.931 . S
C41 N37 1.343 1_554 S
C41 C42 1.390 . S
C42 H20 0.930 . S
C42 C39 1.321 1_554 S
C42 C41 1.390 . S
O43 Gd11 2.386 . S
O43 C55 1.264 1_545 S
O44 Gd10 2.353 1_455 S
O44 C55 1.243 1_556 S
O45 Gd10 2.468 . S
O45 C63 1.263 . S
O46 Gd10 2.427 . S
O46 C63 1.252 . S
O47 Gd11 2.307 1_556 S
O47 C56 1.261 1_545 S
O48 Gd10 2.388 . S
O48 C56 1.252 1_655 S
O49 Gd10 2.386 . S
O49 C67 1.259 1_565 S
O50 Gd11 2.353 1_655 S
O50 C67 1.245 1_554 S
O51 Gd11 2.468 . S
O51 C75 1.263 . S
O52 Gd11 2.427 . S
O52 C75 1.252 . S
O53 Gd10 2.307 1_554 S
O53 C68 1.261 1_565 S
O54 Gd11 2.388 . S
O54 C68 1.252 1_455 S
C55 O43 1.264 1_565 S
C55 O44 1.243 1_554 S
C56 O47 1.261 1_565 S
C56 O48 1.252 1_455 S
C57 C60 1.394 . S
C57 C62 1.370 . S
C57 C63 1.500 . S
C58 C61 1.383 . S
C58 C62 1.395 . S
C59 C60 1.396 . S
C59 C61 1.365 . S
C59 H76 0.929 . S
C60 C57 1.394 . S
C60 C59 1.396 . S
C60 H77 0.930 . S
C61 C58 1.383 . S
C61 C59 1.365 . S
C61 H78 0.931 . S
C62 C57 1.370 . S
C62 C58 1.395 . S
C62 H79 0.930 1_556 S
C63 Gd10 2.805 . S
C63 O45 1.263 . S
C63 O46 1.252 . S
C63 C57 1.500 . S
C64 H26 0.930 . S
C64 C40 1.417 . S
C64 C65 1.329 . S
C65 C35 1.437 . S
C65 H36 0.929 . S
C65 C64 1.329 . S
H66 C39 0.931 1_554 S
C67 O49 1.259 1_545 S
C67 O50 1.245 1_556 S
C68 O53 1.261 1_545 S
C68 O54 1.252 1_655 S
C69 C72 1.394 . S
C69 C74 1.370 . S
C69 C75 1.500 . S
C70 C73 1.383 . S
C70 C74 1.395 . S
C71 C72 1.396 . S
C71 C73 1.365 . S
C71 H80 0.929 . S
C72 C69 1.394 . S
C72 C71 1.396 . S
C72 H81 0.930 . S
C73 C70 1.383 . S
C73 C71 1.365 . S
C73 H82 0.931 . S
C74 C69 1.370 . S
C74 C70 1.395 . S
C74 H83 0.930 1_554 S
C75 Gd11 2.805 . S
C75 O51 1.263 . S
C75 O52 1.252 . S
C75 C69 1.500 . S
H76 C59 0.929 . S
H77 C60 0.930 . S
H78 C61 0.931 . S
H79 C62 0.930 1_554 S
H80 C71 0.929 . S
H81 C72 0.930 . S
H82 C73 0.931 . S
H83 C74 0.930 1_556 S
C84 C85 1.349 1_655 S
C84 C86 1.327 . S
C84 H109 0.950 . S
C85 C84 1.349 1_455 S
C85 C101 1.349 1_545 S
C86 C84 1.327 . S
C86 C105 1.429 1_655 S
C86 H110 0.950 . S
C87 C104 1.574 . S
C87 C106 1.368 1_565 S
C87 H111 0.949 . S
H88 C92 0.949 . S
C89 C90 1.349 1_565 S
C89 C91 1.327 . S
C89 H112 0.950 . S
C90 C89 1.349 1_545 S
C90 C102 1.349 1_455 S
C91 C89 1.327 . S
C91 C107 1.429 1_565 S
C91 H113 0.950 . S
C92 H88 0.949 . S
C92 C100 1.574 . S
C92 C108 1.368 1_655 S
H93 C101 0.950 . S
H94 C99 0.950 . S
H95 C100 0.949 . S
H96 C102 0.950 . S
H97 C103 0.950 . S
H98 C104 0.949 . S
C99 H94 0.950 . S
C99 C101 1.327 . S
C99 C105 1.429 1_565 S
C100 C92 1.574 . S
C100 H95 0.949 . S
C100 C106 1.368 1_655 S
C101 C85 1.349 1_565 S
C101 H93 0.950 . S
C101 C99 1.327 . S
C102 C90 1.349 1_655 S
C102 H96 0.950 . S
C102 C103 1.327 . S
C103 H97 0.950 . S
C103 C102 1.327 . S
C103 C107 1.429 1_655 S
C104 C87 1.574 . S
C104 H98 0.949 . S
C104 C108 1.368 1_565 S
C105 C86 1.429 1_455 S
C105 C99 1.429 1_545 S
C105 C106 1.523 . S
C106 C87 1.368 1_545 S
C106 C100 1.368 1_455 S
C106 C105 1.523 . S
C107 C91 1.429 1_545 S
C107 C103 1.429 1_455 S
C107 C108 1.523 . S
C108 C92 1.368 1_455 S
C108 C104 1.368 1_545 S
C108 C107 1.523 . S
H109 C84 0.950 . S
H110 C86 0.950 . S
H111 C87 0.949 . S
H112 C89 0.950 . S
H113 C91 0.950 . S
C114 C115 1.349 1_565 S
C114 C116 1.327 . S
C114 H139 0.950 . S
C115 C114 1.349 1_545 S
C115 C131 1.349 1_554 S
C116 C114 1.327 . S
C116 C135 1.429 1_565 S
C116 H140 0.950 . S
C117 C134 1.574 . S
C117 C136 1.368 1_556 S
C117 H141 0.949 . S
H118 C122 0.949 . S
C119 C120 1.349 1_556 S
C119 C121 1.327 . S
C119 H142 0.950 . S
C120 C119 1.349 1_554 S
C120 C132 1.349 1_545 S
C121 C119 1.327 . S
C121 C137 1.429 1_556 S
C121 H143 0.950 . S
C122 H118 0.949 . S
C122 C130 1.574 . S
C122 C138 1.368 1_565 S
H123 C131 0.950 . S
H124 C129 0.950 . S
H125 C130 0.949 . S
H126 C132 0.950 . S
H127 C133 0.950 . S
H128 C134 0.949 . S
C129 H124 0.950 . S
C129 C131 1.327 . S
C129 C135 1.429 1_556 S
C130 C122 1.574 . S
C130 H125 0.949 . S
C130 C136 1.368 1_565 S
C131 C115 1.349 1_556 S
C131 H123 0.950 . S
C131 C129 1.327 . S
C132 C120 1.349 1_565 S
C132 H126 0.950 . S
C132 C133 1.327 . S
C133 H127 0.950 . S
C133 C132 1.327 . S
C133 C137 1.429 1_565 S
C134 C117 1.574 . S
C134 H128 0.949 . S
C134 C138 1.368 1_556 S
C135 C116 1.429 1_545 S
C135 C129 1.429 1_554 S
C135 C136 1.523 . S
C136 C117 1.368 1_554 S
C136 C130 1.368 1_545 S
C136 C135 1.523 . S
C137 C121 1.429 1_554 S
C137 C133 1.429 1_545 S
C137 C138 1.523 . S
C138 C122 1.368 1_545 S
C138 C134 1.368 1_554 S
C138 C137 1.523 . S
H139 C114 0.950 . S
H140 C116 0.950 . S
H141 C117 0.949 . S
H142 C119 0.950 . S
H143 C121 0.950 . S
C144 C145 1.349 1_655 S
C144 C146 1.327 . S
C144 H169 0.950 . S
C145 C144 1.349 1_455 S
C145 C161 1.349 1_554 S
C146 C144 1.327 . S
C146 C165 1.429 1_655 S
C146 H170 0.950 . S
C147 C164 1.574 . S
C147 C166 1.368 1_556 S
C147 H171 0.949 . S
H148 C152 0.949 . S
C149 C150 1.349 1_556 S
C149 C151 1.327 . S
C149 H172 0.950 . S
C150 C149 1.349 1_554 S
C150 C162 1.349 1_455 S
C151 C149 1.327 . S
C151 C167 1.429 1_556 S
C151 H173 0.950 . S
C152 H148 0.949 . S
C152 C160 1.574 . S
C152 C168 1.368 1_655 S
H153 C161 0.950 . S
H154 C159 0.950 . S
H155 C160 0.949 . S
H156 C162 0.950 . S
H157 C163 0.950 . S
H158 C164 0.949 . S
C159 H154 0.950 . S
C159 C161 1.327 . S
C159 C165 1.429 1_556 S
C160 C152 1.574 . S
C160 H155 0.949 . S
C160 C166 1.368 1_655 S
C161 C145 1.349 1_556 S
C161 H153 0.950 . S
C161 C159 1.327 . S
C162 C150 1.349 1_655 S
C162 H156 0.950 . S
C162 C163 1.327 . S
C163 H157 0.950 . S
C163 C162 1.327 . S
C163 C167 1.429 1_655 S
C164 C147 1.574 . S
C164 H158 0.949 . S
C164 C168 1.368 1_556 S
C165 C146 1.429 1_455 S
C165 C159 1.429 1_554 S
C165 C166 1.523 . S
C166 C147 1.368 1_554 S
C166 C160 1.368 1_455 S
C166 C165 1.523 . S
C167 C151 1.429 1_554 S
C167 C163 1.429 1_455 S
C167 C168 1.523 . S
C168 C152 1.368 1_455 S
C168 C164 1.368 1_554 S
C168 C167 1.523 . S
H169 C144 0.950 . S
H170 C146 0.950 . S
H171 C147 0.949 . S
H172 C149 0.950 . S
H173 C151 0.950 . S
C85 C68 1.480 1_455 S
C90 C56 1.480 1_545 S
C115 C55 1.496 1_545 S
C120 C67 1.499 1_554 S
C145 C58 1.356 1_454 S
C150 C70 1.356 . S
