# Generated by pormake.
# Topology uob, (4)-cn, num edge types: 1
# Building blocks:
#     Node 0, Type 0, BuildingBlock: NAWXER_clean_sbu_0, # of connection points: 4
#     Node 1, Type 0, BuildingBlock: NAWXER_clean_sbu_0, # of connection points: 4
#     Node 2, Type 0, BuildingBlock: NAWXER_clean_sbu_0, # of connection points: 4
#     Node 3, Type 0, BuildingBlock: NAWXER_clean_sbu_0, # of connection points: 4
#     Node 4, Type 0, BuildingBlock: NAWXER_clean_sbu_0, # of connection points: 4
#     Node 5, Type 0, BuildingBlock: NAWXER_clean_sbu_0, # of connection points: 4
#     Node 6, Type 0, BuildingBlock: NAWXER_clean_sbu_0, # of connection points: 4
#     Node 7, Type 0, BuildingBlock: NAWXER_clean_sbu_0, # of connection points: 4
#     Node 8, Type 0, BuildingBlock: NAWXER_clean_sbu_0, # of connection points: 4
#     Node 9, Type 0, BuildingBlock: NAWXER_clean_sbu_0, # of connection points: 4
#     Node 10, Type 0, BuildingBlock: NAWXER_clean_sbu_0, # of connection points: 4
#     Node 11, Type 0, BuildingBlock: NAWXER_clean_sbu_0, # of connection points: 4
#     Node 12, Type 0, BuildingBlock: NAWXER_clean_sbu_0, # of connection points: 4
#     Node 13, Type 0, BuildingBlock: NAWXER_clean_sbu_0, # of connection points: 4
#     Node 14, Type 0, BuildingBlock: NAWXER_clean_sbu_0, # of connection points: 4
#     Node 15, Type 0, BuildingBlock: NAWXER_clean_sbu_0, # of connection points: 4
#     Edge 16, Type (0, 0), None
#     Edge 17, Type (0, 0), None
#     Edge 18, Type (0, 0), None
#     Edge 19, Type (0, 0), None
#     Edge 20, Type (0, 0), None
#     Edge 21, Type (0, 0), None
#     Edge 22, Type (0, 0), None
#     Edge 23, Type (0, 0), None
#     Edge 24, Type (0, 0), None
#     Edge 25, Type (0, 0), None
#     Edge 26, Type (0, 0), None
#     Edge 27, Type (0, 0), None
#     Edge 28, Type (0, 0), None
#     Edge 29, Type (0, 0), None
#     Edge 30, Type (0, 0), None
#     Edge 31, Type (0, 0), None
#     Edge 32, Type (0, 0), None
#     Edge 33, Type (0, 0), None
#     Edge 34, Type (0, 0), None
#     Edge 35, Type (0, 0), None
#     Edge 36, Type (0, 0), None
#     Edge 37, Type (0, 0), None
#     Edge 38, Type (0, 0), None
#     Edge 39, Type (0, 0), None
#     Edge 40, Type (0, 0), None
#     Edge 41, Type (0, 0), None
#     Edge 42, Type (0, 0), None
#     Edge 43, Type (0, 0), None
#     Edge 44, Type (0, 0), None
#     Edge 45, Type (0, 0), None
#     Edge 46, Type (0, 0), None
#     Edge 47, Type (0, 0), None
# Relax obj value: 0.120
# Max RMSD: 0.245
# Mean RMSD: 0.245
data_MOF--net-uob--node1-NAWXER_clean_sbu_0--edge1-none
_symmetry_space_group_name_H-M    P1
_symmetry_Int_Tables_number       1
_symmetry_cell_setting            triclinic
loop_
_symmetry_equiv_pos_as_xyz
'x, y, z'
_cell_length_a     23.639341
_cell_length_b     23.638683
_cell_length_c     12.276769
_cell_angle_alpha  89.999773
_cell_angle_beta   89.999948
_cell_angle_gamma 89.999995
loop_
_atom_site_label
_atom_site_type_symbol
_atom_site_fract_x
_atom_site_fract_y
_atom_site_fract_z
_atom_type_partial_charge
C0 C 0.09315 0.09142 0.49082 0.0
C1 C 0.12644 0.11447 0.1066 0.0
O2 O 0.1038 0.04419 0.44584 0.0
Zn3 Zn 0.12805 0.01584 0.28953 0.0
O4 O 0.09074 0.13723 0.43631 0.0
Zn5 Zn 0.11362 0.10371 0.30399 0.0
O6 O 0.03819 0.05541 0.27437 0.0
O7 O 0.06396 0.96586 0.26381 0.0
O8 O 0.11876 0.15253 0.17762 0.0
O9 O 0.13271 0.06272 0.13696 0.0
O10 O 0.20139 0.98627 0.34309 0.0
O11 O 0.1958 0.07862 0.36506 0.0
C12 C 0.02516 0.00329 0.26204 0.0
C13 C 0.22062 0.03158 0.38557 0.0
C14 C 0.89878 0.59314 0.74082 0.0
C15 C 0.87573 0.62643 0.35659 0.0
O16 O 0.94601 0.60379 0.69584 0.0
Zn17 Zn 0.97436 0.62805 0.53952 0.0
O18 O 0.85298 0.59073 0.68631 0.0
Zn19 Zn 0.8865 0.61362 0.55399 0.0
O20 O 0.9348 0.53818 0.52436 0.0
O21 O 0.02434 0.56396 0.5138 0.0
O22 O 0.83767 0.61875 0.42762 0.0
O23 O 0.92748 0.6327 0.38696 0.0
O24 O 0.00392 0.70139 0.59308 0.0
O25 O 0.91158 0.69579 0.61506 0.0
C26 C 0.98692 0.52516 0.51203 0.0
C27 C 0.95862 0.72061 0.63557 0.0
C28 C 0.39706 0.39878 0.99083 0.0
C29 C 0.36377 0.37573 0.60661 0.0
O30 O 0.38641 0.44601 0.94585 0.0
Zn31 Zn 0.36216 0.47436 0.78953 0.0
O32 O 0.39947 0.35298 0.93632 0.0
Zn33 Zn 0.37659 0.3865 0.804 0.0
O34 O 0.45203 0.4348 0.77438 0.0
O35 O 0.42625 0.52434 0.76381 0.0
O36 O 0.37146 0.33767 0.67763 0.0
O37 O 0.3575 0.42748 0.63697 0.0
O38 O 0.28882 0.50393 0.8431 0.0
O39 O 0.29442 0.41158 0.86507 0.0
C40 C 0.46505 0.48692 0.76205 0.0
C41 C 0.26959 0.45862 0.88558 0.0
C42 C 0.59143 0.89706 0.24081 0.0
C43 C 0.61448 0.86377 0.85659 0.0
O44 O 0.5442 0.88641 0.19583 0.0
Zn45 Zn 0.51585 0.86215 0.03952 0.0
O46 O 0.63724 0.89947 0.1863 0.0
Zn47 Zn 0.60372 0.87658 0.05399 0.0
O48 O 0.55541 0.95202 0.02436 0.0
O49 O 0.46587 0.92624 0.0138 0.0
O50 O 0.65254 0.87145 0.92761 0.0
O51 O 0.56273 0.8575 0.88695 0.0
O52 O 0.48629 0.78882 0.09309 0.0
O53 O 0.57864 0.79441 0.11506 0.0
C54 C 0.50329 0.96504 1.01203 0.0
C55 C 0.53159 0.76959 0.13557 0.0
C56 C 0.22062 0.45862 0.96204 0.0
C57 C 0.02516 0.48691 0.08555 0.0
O58 O 0.1958 0.41158 0.98254 0.0
Zn59 Zn 0.11363 0.38649 0.0436 0.0
O60 O 0.20139 0.50393 1.00452 0.0
Zn61 Zn 0.12805 0.47436 0.05808 0.0
O62 O 0.13271 0.42747 0.21064 0.0
O63 O 0.11876 0.33766 0.16996 0.0
O64 O 0.06396 0.52433 0.0838 0.0
O65 O 0.03819 0.43479 0.07322 0.0
O66 O 0.09074 0.35298 0.91127 0.0
O67 O 0.1038 0.44601 0.90176 0.0
C68 C 0.12644 0.37571 0.241 0.0
C69 C 0.09316 0.39878 0.85677 0.0
C70 C 0.59144 0.59314 0.1068 0.0
C71 C 0.61448 0.62643 0.49102 0.0
O72 O 0.5442 0.60379 0.15177 0.0
Zn73 Zn 0.51585 0.62805 0.30808 0.0
O74 O 0.63724 0.59073 0.16131 0.0
Zn75 Zn 0.60372 0.61362 0.29362 0.0
O76 O 0.55541 0.53818 0.32325 0.0
O77 O 0.46588 0.56395 0.33381 0.0
O78 O 0.65254 0.61875 0.41999 0.0
O79 O 0.56273 0.6327 0.46065 0.0
O80 O 0.48629 0.70138 0.25452 0.0
O81 O 0.57864 0.69579 0.23254 0.0
C82 C 0.50329 0.52515 0.33557 0.0
C83 C 0.53159 0.72061 0.21203 0.0
C84 C 0.39706 0.09142 0.35678 0.0
C85 C 0.36377 0.11447 0.741 0.0
O86 O 0.38641 0.04419 0.40175 0.0
Zn87 Zn 0.36216 0.01584 0.55807 0.0
O88 O 0.39947 0.13722 0.41128 0.0
Zn89 Zn 0.37659 0.1037 0.5436 0.0
O90 O 0.45202 0.0554 0.57323 0.0
O91 O 0.42625 0.96586 0.58379 0.0
O92 O 0.37146 0.15253 0.66997 0.0
O93 O 0.3575 0.06272 0.71064 0.0
O94 O 0.28882 0.98627 0.50451 0.0
O95 O 0.29441 0.07862 0.48253 0.0
C96 C 0.46505 0.00328 0.58556 0.0
C97 C 0.26959 0.03158 0.46203 0.0
C98 C 0.89878 0.89706 0.60679 0.0
C99 C 0.87573 0.86377 0.99101 0.0
O100 O 0.94601 0.88641 0.65177 0.0
Zn101 Zn 0.97436 0.86215 0.80808 0.0
O102 O 0.85298 0.89947 0.6613 0.0
Zn103 Zn 0.8865 0.87659 0.79361 0.0
O104 O 0.9348 0.95202 0.82324 0.0
O105 O 0.02434 0.92624 0.83381 0.0
O106 O 0.83767 0.87146 0.91999 0.0
O107 O 0.92748 0.8575 0.96065 0.0
O108 O 0.00392 0.78882 0.75452 0.0
O109 O 0.91158 0.79441 0.73254 0.0
C110 C 0.98692 0.96504 0.83557 0.0
C111 C 0.95862 0.76959 0.71203 0.0
C112 C 0.72062 0.53158 0.88556 0.0
C113 C 0.52516 0.50329 0.76205 0.0
O114 O 0.6958 0.57862 0.86506 0.0
Zn115 Zn 0.61363 0.60371 0.80399 0.0
O116 O 0.70139 0.48627 0.84309 0.0
Zn117 Zn 0.62806 0.51584 0.78953 0.0
O118 O 0.63271 0.56272 0.63696 0.0
O119 O 0.61876 0.65254 0.67763 0.0
O120 O 0.56396 0.46587 0.76381 0.0
O121 O 0.53819 0.55541 0.77437 0.0
O122 O 0.59074 0.63723 0.93631 0.0
O123 O 0.6038 0.54419 0.94584 0.0
C124 C 0.62645 0.61448 0.60661 0.0
C125 C 0.59314 0.59143 0.99081 0.0
C126 C 0.39878 0.09312 0.24079 0.0
C127 C 0.37573 0.12644 0.85659 0.0
O128 O 0.44601 0.10379 0.19583 0.0
Zn129 Zn 0.47436 0.12805 0.03952 0.0
O130 O 0.35297 0.09072 0.18628 0.0
Zn131 Zn 0.3865 0.11362 0.05398 0.0
O132 O 0.4348 0.03818 0.02435 0.0
O133 O 0.52434 0.06396 0.0138 0.0
O134 O 0.33767 0.11875 0.9276 0.0
O135 O 0.42749 0.13271 0.88695 0.0
O136 O 0.50392 0.20138 0.09309 0.0
O137 O 0.41158 0.19579 0.11506 0.0
C138 C 0.48692 0.02516 1.01203 0.0
C139 C 0.45862 0.22061 0.13557 0.0
C140 C 0.96505 0.98692 0.26204 0.0
C141 C 0.76959 0.95862 0.38558 0.0
O142 O 0.95202 0.9348 0.27436 0.0
Zn143 Zn 0.87658 0.88649 0.30399 0.0
O144 O 0.92625 0.02434 0.26381 0.0
Zn145 Zn 0.86215 0.97437 0.28953 0.0
O146 O 0.88642 0.94601 0.44584 0.0
O147 O 0.89947 0.85297 0.4363 0.0
O148 O 0.78882 0.00393 0.3431 0.0
O149 O 0.79441 0.91158 0.36507 0.0
O150 O 0.87145 0.83767 0.17762 0.0
O151 O 0.8575 0.92749 0.13696 0.0
C152 C 0.89708 0.89878 0.4908 0.0
C153 C 0.86376 0.87573 0.1066 0.0
C154 C 0.00329 0.46504 0.51203 0.0
C155 C 0.0316 0.26959 0.63557 0.0
O156 O 0.05541 0.45202 0.52434 0.0
Zn157 Zn 0.10372 0.37658 0.55397 0.0
O158 O 0.96587 0.42624 0.5138 0.0
Zn159 Zn 0.01585 0.36215 0.53952 0.0
O160 O 0.04421 0.38641 0.69583 0.0
O161 O 0.13724 0.39947 0.68628 0.0
O162 O 0.98629 0.28882 0.59309 0.0
O163 O 0.07864 0.29441 0.61506 0.0
O164 O 0.15254 0.37144 0.4276 0.0
O165 O 0.06272 0.35749 0.38695 0.0
C166 C 0.09144 0.39708 0.74078 0.0
C167 C 0.11448 0.36376 0.35659 0.0
C168 C 0.72062 0.95862 0.46204 0.0
C169 C 0.52516 0.98691 0.58555 0.0
O170 O 0.6958 0.91158 0.48254 0.0
Zn171 Zn 0.61363 0.88649 0.54361 0.0
O172 O 0.70139 0.00393 0.50452 0.0
Zn173 Zn 0.62805 0.97436 0.55808 0.0
O174 O 0.63271 0.92748 0.71064 0.0
O175 O 0.61876 0.83766 0.66998 0.0
O176 O 0.56396 0.02433 0.5838 0.0
O177 O 0.53819 0.93479 0.57324 0.0
O178 O 0.59074 0.85297 0.4113 0.0
O179 O 0.6038 0.94601 0.40176 0.0
C180 C 0.62645 0.87572 0.74099 0.0
C181 C 0.59314 0.89877 0.35679 0.0
C182 C 0.0316 0.22062 0.71204 0.0
C183 C 0.0033 0.02516 0.83557 0.0
O184 O 0.07864 0.19579 0.73254 0.0
Zn185 Zn 0.10372 0.11362 0.79362 0.0
O186 O 0.98629 0.20138 0.75452 0.0
Zn187 Zn 0.01585 0.12805 0.80809 0.0
O188 O 0.06273 0.1327 0.96065 0.0
O189 O 0.15255 0.11875 0.91999 0.0
O190 O 0.96588 0.06396 0.83381 0.0
O191 O 0.05542 0.03818 0.82325 0.0
O192 O 0.13724 0.09073 0.66131 0.0
O193 O 0.04421 0.10379 0.65177 0.0
C194 C 0.11449 0.12644 0.991 0.0
C195 C 0.09144 0.09313 0.6068 0.0
C196 C 0.96505 0.50328 0.08556 0.0
C197 C 0.7696 0.53158 0.96202 0.0
O198 O 0.95202 0.5554 0.07324 0.0
Zn199 Zn 0.87659 0.60371 0.04362 0.0
O200 O 0.92625 0.46586 0.0838 0.0
Zn201 Zn 0.86216 0.51583 0.05808 0.0
O202 O 0.88642 0.54419 0.90177 0.0
O203 O 0.89948 0.63723 0.91131 0.0
O204 O 0.78882 0.48627 1.00451 0.0
O205 O 0.79442 0.57862 0.98253 0.0
O206 O 0.87145 0.65253 0.16999 0.0
O207 O 0.8575 0.56271 0.21064 0.0
C208 C 0.89708 0.59142 0.8568 0.0
C209 C 0.86376 0.61447 0.241 0.0
C210 C 0.39878 0.39708 0.10682 0.0
C211 C 0.37573 0.36376 0.49101 0.0
O212 O 0.44601 0.38641 0.15178 0.0
Zn213 Zn 0.47436 0.36215 0.30809 0.0
O214 O 0.35297 0.39947 0.16132 0.0
Zn215 Zn 0.3865 0.37658 0.29363 0.0
O216 O 0.4348 0.45202 0.32326 0.0
O217 O 0.52434 0.42624 0.33381 0.0
O218 O 0.33767 0.37145 0.42 0.0
O219 O 0.42749 0.35749 0.46066 0.0
O220 O 0.50392 0.28881 0.25452 0.0
O221 O 0.41158 0.29441 0.23254 0.0
C222 C 0.48692 0.46504 0.33558 0.0
C223 C 0.45862 0.26959 0.21203 0.0
loop_
_geom_bond_atom_site_label_1
_geom_bond_atom_site_label_2
_geom_bond_distance
_geom_bond_site_symmetry_2
_ccdc_geom_bond_type
C0 O2 1.247 . S
C0 O4 1.258 . S
C1 O8 1.247 . S
C1 O9 1.258 . S
O2 C0 1.247 . S
O2 Zn3 2.028 . S
Zn3 O2 2.028 . S
Zn3 O7 2.035 . S
Zn3 O9 2.035 . S
Zn3 O10 2.028 . S
O4 C0 1.258 . S
O4 Zn5 2.035 . S
Zn5 O4 2.035 . S
Zn5 O6 2.028 . S
Zn5 O8 2.028 . S
Zn5 O11 2.035 . S
O6 Zn5 2.028 . S
O6 C12 1.247 . S
O7 Zn3 2.035 . S
O7 C12 1.258 . S
O8 C1 1.247 . S
O8 Zn5 2.028 . S
O9 C1 1.258 . S
O9 Zn3 2.035 . S
O10 Zn3 2.028 . S
O10 C13 1.247 . S
O11 Zn5 2.035 . S
O11 C13 1.258 . S
C12 O6 1.247 . S
C12 O7 1.258 . S
C13 O10 1.247 . S
C13 O11 1.258 . S
C14 O16 1.247 . S
C14 O18 1.258 . S
C15 O22 1.247 . S
C15 O23 1.258 . S
O16 C14 1.247 . S
O16 Zn17 2.028 . S
Zn17 O16 2.028 . S
Zn17 O21 2.035 . S
Zn17 O23 2.035 . S
Zn17 O24 2.028 . S
O18 C14 1.258 . S
O18 Zn19 2.035 . S
Zn19 O18 2.035 . S
Zn19 O20 2.028 . S
Zn19 O22 2.028 . S
Zn19 O25 2.035 . S
O20 Zn19 2.028 . S
O20 C26 1.247 . S
O21 Zn17 2.035 . S
O21 C26 1.258 . S
O22 C15 1.247 . S
O22 Zn19 2.028 . S
O23 C15 1.258 . S
O23 Zn17 2.035 . S
O24 Zn17 2.028 . S
O24 C27 1.247 . S
O25 Zn19 2.035 . S
O25 C27 1.258 . S
C26 O20 1.247 . S
C26 O21 1.258 . S
C27 O24 1.247 . S
C27 O25 1.258 . S
C28 O30 1.247 1_554 S
C28 O32 1.258 1_554 S
C29 O36 1.247 . S
C29 O37 1.258 . S
O30 C28 1.247 1_556 S
O30 Zn31 2.028 . S
Zn31 O30 2.028 . S
Zn31 O35 2.035 . S
Zn31 O37 2.035 . S
Zn31 O38 2.028 . S
O32 C28 1.258 1_556 S
O32 Zn33 2.035 . S
Zn33 O32 2.035 . S
Zn33 O34 2.028 . S
Zn33 O36 2.028 . S
Zn33 O39 2.035 . S
O34 Zn33 2.028 . S
O34 C40 1.247 . S
O35 Zn31 2.035 . S
O35 C40 1.258 . S
O36 C29 1.247 . S
O36 Zn33 2.028 . S
O37 C29 1.258 . S
O37 Zn31 2.035 . S
O38 Zn31 2.028 . S
O38 C41 1.247 . S
O39 Zn33 2.035 . S
O39 C41 1.258 . S
C40 O34 1.247 . S
C40 O35 1.258 . S
C41 O38 1.247 . S
C41 O39 1.258 . S
C42 O44 1.247 . S
C42 O46 1.258 . S
C43 O50 1.247 . S
C43 O51 1.258 . S
O44 C42 1.247 . S
O44 Zn45 2.028 . S
Zn45 O44 2.028 . S
Zn45 O49 2.035 . S
Zn45 O51 2.035 1_554 S
Zn45 O52 2.028 . S
O46 C42 1.258 . S
O46 Zn47 2.035 . S
Zn47 O46 2.035 . S
Zn47 O48 2.028 . S
Zn47 O50 2.028 1_554 S
Zn47 O53 2.035 . S
O48 Zn47 2.028 . S
O48 C54 1.247 . S
O49 Zn45 2.035 . S
O49 C54 1.258 . S
O50 C43 1.247 . S
O50 Zn47 2.028 1_556 S
O51 C43 1.258 . S
O51 Zn45 2.035 1_556 S
O52 Zn45 2.028 . S
O52 C55 1.247 . S
O53 Zn47 2.035 . S
O53 C55 1.258 . S
C54 O48 1.247 . S
C54 O49 1.258 . S
C55 O52 1.247 . S
C55 O53 1.258 . S
C56 O58 1.247 1_556 S
C56 O60 1.258 . S
C57 O64 1.247 . S
C57 O65 1.258 . S
O58 C56 1.247 1_554 S
O58 Zn59 2.028 . S
Zn59 O58 2.028 . S
Zn59 O63 2.035 . S
Zn59 O65 2.035 . S
Zn59 O66 2.028 1_554 S
O60 C56 1.258 . S
O60 Zn61 2.035 1_556 S
Zn61 O60 2.035 1_554 S
Zn61 O62 2.028 . S
Zn61 O64 2.028 . S
Zn61 O67 2.035 1_554 S
O62 Zn61 2.028 . S
O62 C68 1.247 . S
O63 Zn59 2.035 . S
O63 C68 1.258 . S
O64 C57 1.247 . S
O64 Zn61 2.028 . S
O65 C57 1.258 . S
O65 Zn59 2.035 . S
O66 Zn59 2.028 1_556 S
O66 C69 1.247 . S
O67 Zn61 2.035 1_556 S
O67 C69 1.258 . S
C68 O62 1.247 . S
C68 O63 1.258 . S
C69 O66 1.247 . S
C69 O67 1.258 . S
C70 O72 1.247 . S
C70 O74 1.258 . S
C71 O78 1.247 . S
C71 O79 1.258 . S
O72 C70 1.247 . S
O72 Zn73 2.028 . S
Zn73 O72 2.028 . S
Zn73 O77 2.035 . S
Zn73 O79 2.035 . S
Zn73 O80 2.028 . S
O74 C70 1.258 . S
O74 Zn75 2.035 . S
Zn75 O74 2.035 . S
Zn75 O76 2.028 . S
Zn75 O78 2.028 . S
Zn75 O81 2.035 . S
O76 Zn75 2.028 . S
O76 C82 1.247 . S
O77 Zn73 2.035 . S
O77 C82 1.258 . S
O78 C71 1.247 . S
O78 Zn75 2.028 . S
O79 C71 1.258 . S
O79 Zn73 2.035 . S
O80 Zn73 2.028 . S
O80 C83 1.247 . S
O81 Zn75 2.035 . S
O81 C83 1.258 . S
C82 O76 1.247 . S
C82 O77 1.258 . S
C83 O80 1.247 . S
C83 O81 1.258 . S
C84 O86 1.247 . S
C84 O88 1.258 . S
C85 O92 1.247 . S
C85 O93 1.258 . S
O86 C84 1.247 . S
O86 Zn87 2.028 . S
Zn87 O86 2.028 . S
Zn87 O91 2.035 . S
Zn87 O93 2.035 . S
Zn87 O94 2.028 . S
O88 C84 1.258 . S
O88 Zn89 2.035 . S
Zn89 O88 2.035 . S
Zn89 O90 2.028 . S
Zn89 O92 2.028 . S
Zn89 O95 2.035 . S
O90 Zn89 2.028 . S
O90 C96 1.247 . S
O91 Zn87 2.035 . S
O91 C96 1.258 . S
O92 C85 1.247 . S
O92 Zn89 2.028 . S
O93 C85 1.258 . S
O93 Zn87 2.035 . S
O94 Zn87 2.028 . S
O94 C97 1.247 . S
O95 Zn89 2.035 . S
O95 C97 1.258 . S
C96 O90 1.247 . S
C96 O91 1.258 . S
C97 O94 1.247 . S
C97 O95 1.258 . S
C98 O100 1.247 . S
C98 O102 1.258 . S
C99 O106 1.247 . S
C99 O107 1.258 . S
O100 C98 1.247 . S
O100 Zn101 2.028 . S
Zn101 O100 2.028 . S
Zn101 O105 2.035 . S
Zn101 O107 2.035 . S
Zn101 O108 2.028 . S
O102 C98 1.258 . S
O102 Zn103 2.035 . S
Zn103 O102 2.035 . S
Zn103 O104 2.028 . S
Zn103 O106 2.028 . S
Zn103 O109 2.035 . S
O104 Zn103 2.028 . S
O104 C110 1.247 . S
O105 Zn101 2.035 . S
O105 C110 1.258 . S
O106 C99 1.247 . S
O106 Zn103 2.028 . S
O107 C99 1.258 . S
O107 Zn101 2.035 . S
O108 Zn101 2.028 . S
O108 C111 1.247 . S
O109 Zn103 2.035 . S
O109 C111 1.258 . S
C110 O104 1.247 . S
C110 O105 1.258 . S
C111 O108 1.247 . S
C111 O109 1.258 . S
C112 O114 1.247 . S
C112 O116 1.258 . S
C113 O120 1.247 . S
C113 O121 1.258 . S
O114 C112 1.247 . S
O114 Zn115 2.028 . S
Zn115 O114 2.028 . S
Zn115 O119 2.035 . S
Zn115 O121 2.035 . S
Zn115 O122 2.028 . S
O116 C112 1.258 . S
O116 Zn117 2.035 . S
Zn117 O116 2.035 . S
Zn117 O118 2.028 . S
Zn117 O120 2.028 . S
Zn117 O123 2.035 . S
O118 Zn117 2.028 . S
O118 C124 1.247 . S
O119 Zn115 2.035 . S
O119 C124 1.258 . S
O120 C113 1.247 . S
O120 Zn117 2.028 . S
O121 C113 1.258 . S
O121 Zn115 2.035 . S
O122 Zn115 2.028 . S
O122 C125 1.247 1_556 S
O123 Zn117 2.035 . S
O123 C125 1.258 1_556 S
C124 O118 1.247 . S
C124 O119 1.258 . S
C125 O122 1.247 1_554 S
C125 O123 1.258 1_554 S
C126 O128 1.247 . S
C126 O130 1.258 . S
C127 O134 1.247 . S
C127 O135 1.258 . S
O128 C126 1.247 . S
O128 Zn129 2.028 . S
Zn129 O128 2.028 . S
Zn129 O133 2.035 . S
Zn129 O135 2.035 1_554 S
Zn129 O136 2.028 . S
O130 C126 1.258 . S
O130 Zn131 2.035 . S
Zn131 O130 2.035 . S
Zn131 O132 2.028 . S
Zn131 O134 2.028 1_554 S
Zn131 O137 2.035 . S
O132 Zn131 2.028 . S
O132 C138 1.247 . S
O133 Zn129 2.035 . S
O133 C138 1.258 . S
O134 C127 1.247 . S
O134 Zn131 2.028 1_556 S
O135 C127 1.258 . S
O135 Zn129 2.035 1_556 S
O136 Zn129 2.028 . S
O136 C139 1.247 . S
O137 Zn131 2.035 . S
O137 C139 1.258 . S
C138 O132 1.247 . S
C138 O133 1.258 . S
C139 O136 1.247 . S
C139 O137 1.258 . S
C140 O142 1.247 . S
C140 O144 1.258 . S
C141 O148 1.247 . S
C141 O149 1.258 . S
O142 C140 1.247 . S
O142 Zn143 2.028 . S
Zn143 O142 2.028 . S
Zn143 O147 2.035 . S
Zn143 O149 2.035 . S
Zn143 O150 2.028 . S
O144 C140 1.258 . S
O144 Zn145 2.035 . S
Zn145 O144 2.035 . S
Zn145 O146 2.028 . S
Zn145 O148 2.028 . S
Zn145 O151 2.035 . S
O146 Zn145 2.028 . S
O146 C152 1.247 . S
O147 Zn143 2.035 . S
O147 C152 1.258 . S
O148 C141 1.247 . S
O148 Zn145 2.028 . S
O149 C141 1.258 . S
O149 Zn143 2.035 . S
O150 Zn143 2.028 . S
O150 C153 1.247 . S
O151 Zn145 2.035 . S
O151 C153 1.258 . S
C152 O146 1.247 . S
C152 O147 1.258 . S
C153 O150 1.247 . S
C153 O151 1.258 . S
C154 O156 1.247 . S
C154 O158 1.258 . S
C155 O162 1.247 . S
C155 O163 1.258 . S
O156 C154 1.247 . S
O156 Zn157 2.028 . S
Zn157 O156 2.028 . S
Zn157 O161 2.035 . S
Zn157 O163 2.035 . S
Zn157 O164 2.028 . S
O158 C154 1.258 . S
O158 Zn159 2.035 . S
Zn159 O158 2.035 . S
Zn159 O160 2.028 . S
Zn159 O162 2.028 . S
Zn159 O165 2.035 . S
O160 Zn159 2.028 . S
O160 C166 1.247 . S
O161 Zn157 2.035 . S
O161 C166 1.258 . S
O162 C155 1.247 . S
O162 Zn159 2.028 . S
O163 C155 1.258 . S
O163 Zn157 2.035 . S
O164 Zn157 2.028 . S
O164 C167 1.247 . S
O165 Zn159 2.035 . S
O165 C167 1.258 . S
C166 O160 1.247 . S
C166 O161 1.258 . S
C167 O164 1.247 . S
C167 O165 1.258 . S
C168 O170 1.247 . S
C168 O172 1.258 . S
C169 O176 1.247 . S
C169 O177 1.258 . S
O170 C168 1.247 . S
O170 Zn171 2.028 . S
Zn171 O170 2.028 . S
Zn171 O175 2.035 . S
Zn171 O177 2.035 . S
Zn171 O178 2.028 . S
O172 C168 1.258 . S
O172 Zn173 2.035 . S
Zn173 O172 2.035 . S
Zn173 O174 2.028 . S
Zn173 O176 2.028 . S
Zn173 O179 2.035 . S
O174 Zn173 2.028 . S
O174 C180 1.247 . S
O175 Zn171 2.035 . S
O175 C180 1.258 . S
O176 C169 1.247 . S
O176 Zn173 2.028 . S
O177 C169 1.258 . S
O177 Zn171 2.035 . S
O178 Zn171 2.028 . S
O178 C181 1.247 . S
O179 Zn173 2.035 . S
O179 C181 1.258 . S
C180 O174 1.247 . S
C180 O175 1.258 . S
C181 O178 1.247 . S
C181 O179 1.258 . S
C182 O184 1.247 . S
C182 O186 1.258 . S
C183 O190 1.247 . S
C183 O191 1.258 . S
O184 C182 1.247 . S
O184 Zn185 2.028 . S
Zn185 O184 2.028 . S
Zn185 O189 2.035 . S
Zn185 O191 2.035 . S
Zn185 O192 2.028 . S
O186 C182 1.258 . S
O186 Zn187 2.035 . S
Zn187 O186 2.035 . S
Zn187 O188 2.028 . S
Zn187 O190 2.028 . S
Zn187 O193 2.035 . S
O188 Zn187 2.028 . S
O188 C194 1.247 . S
O189 Zn185 2.035 . S
O189 C194 1.258 . S
O190 C183 1.247 . S
O190 Zn187 2.028 . S
O191 C183 1.258 . S
O191 Zn185 2.035 . S
O192 Zn185 2.028 . S
O192 C195 1.247 . S
O193 Zn187 2.035 . S
O193 C195 1.258 . S
C194 O188 1.247 . S
C194 O189 1.258 . S
C195 O192 1.247 . S
C195 O193 1.258 . S
C196 O198 1.247 . S
C196 O200 1.258 . S
C197 O204 1.247 . S
C197 O205 1.258 1_556 S
O198 C196 1.247 . S
O198 Zn199 2.028 . S
Zn199 O198 2.028 . S
Zn199 O203 2.035 1_554 S
Zn199 O205 2.035 . S
Zn199 O206 2.028 . S
O200 C196 1.258 . S
O200 Zn201 2.035 . S
Zn201 O200 2.035 . S
Zn201 O202 2.028 1_554 S
Zn201 O204 2.028 1_554 S
Zn201 O207 2.035 . S
O202 Zn201 2.028 1_556 S
O202 C208 1.247 . S
O203 Zn199 2.035 1_556 S
O203 C208 1.258 . S
O204 C197 1.247 . S
O204 Zn201 2.028 1_556 S
O205 C197 1.258 1_554 S
O205 Zn199 2.035 . S
O206 Zn199 2.028 . S
O206 C209 1.247 . S
O207 Zn201 2.035 . S
O207 C209 1.258 . S
C208 O202 1.247 . S
C208 O203 1.258 . S
C209 O206 1.247 . S
C209 O207 1.258 . S
C210 O212 1.247 . S
C210 O214 1.258 . S
C211 O218 1.247 . S
C211 O219 1.258 . S
O212 C210 1.247 . S
O212 Zn213 2.028 . S
Zn213 O212 2.028 . S
Zn213 O217 2.035 . S
Zn213 O219 2.035 . S
Zn213 O220 2.028 . S
O214 C210 1.258 . S
O214 Zn215 2.035 . S
Zn215 O214 2.035 . S
Zn215 O216 2.028 . S
Zn215 O218 2.028 . S
Zn215 O221 2.035 . S
O216 Zn215 2.028 . S
O216 C222 1.247 . S
O217 Zn213 2.035 . S
O217 C222 1.258 . S
O218 C211 1.247 . S
O218 Zn215 2.028 . S
O219 C211 1.258 . S
O219 Zn213 2.035 . S
O220 Zn213 2.028 . S
O220 C223 1.247 . S
O221 Zn215 2.035 . S
O221 C223 1.258 . S
C222 O216 1.247 . S
C222 O217 1.258 . S
C223 O220 1.247 . S
C223 O221 1.258 . S
C97 C13 2.523 . S
C111 C27 2.523 . S
C41 C56 2.526 . S
C55 C83 2.523 . S
C112 C197 2.526 . S
C223 C139 2.523 . S
C141 C168 2.526 . S
C155 C182 2.525 . S
C12 C140 2.602 1_445 S
C26 C154 2.602 1_655 S
C40 C113 2.593 . S
C54 C138 2.602 1_565 S
C57 C196 2.594 1_455 S
C222 C82 2.602 . S
C96 C169 2.594 1_545 S
C183 C110 2.593 1_445 S
C195 C0 0.858 . S
C14 C208 0.863 . S
C210 C28 0.863 . S
C181 C42 0.858 . S
C166 C69 0.858 . S
C70 C125 0.858 . S
C84 C126 0.863 . S
C98 C152 0.863 . S
C194 C1 1.919 1_556 S
C15 C209 1.914 . S
C29 C211 1.914 . S
C180 C43 1.919 . S
C167 C68 1.919 . S
C124 C71 1.919 . S
C85 C127 1.914 . S
C153 C99 1.914 1_554 S
