# Generated by pormake.
# Topology bnn, (5)-cn, num edge types: 1
# Building blocks:
#     Node 0, Type 0, BuildingBlock: BEQFEK_clean_sbu_0, # of connection points: 5
#     Node 1, Type 0, BuildingBlock: BEQFEK_clean_sbu_0, # of connection points: 5
#     Edge 2, Type (0, 0), BuildingBlock: ZUJKAS_clean_linker_0, # of connection points: 2
#     Edge 3, Type (0, 0), BuildingBlock: ZUJKAS_clean_linker_0, # of connection points: 2
#     Edge 4, Type (0, 0), BuildingBlock: ZUJKAS_clean_linker_0, # of connection points: 2
#     Edge 5, Type (0, 0), BuildingBlock: ZUJKAS_clean_linker_0, # of connection points: 2
#     Edge 6, Type (0, 0), BuildingBlock: ZUJKAS_clean_linker_0, # of connection points: 2
# Relax obj value: 0.110
# Max RMSD: 0.191
# Mean RMSD: 0.179
data_MOF--net-bnn--node1-BEQFEK_clean_sbu_0--edge1-ZUJKAS_clean_linker_0
_symmetry_space_group_name_H-M    P1
_symmetry_Int_Tables_number       1
_symmetry_cell_setting            triclinic
loop_
_symmetry_equiv_pos_as_xyz
'x, y, z'
_cell_length_a     32.600911
_cell_length_b     34.498344
_cell_length_c     23.940002
_cell_angle_alpha  90.867677
_cell_angle_beta   86.065753
_cell_angle_gamma 111.35219
loop_
_atom_site_label
_atom_site_type_symbol
_atom_site_fract_x
_atom_site_fract_y
_atom_site_fract_z
_atom_type_partial_charge
Co0 Co 0.34457 0.68554 0.0828 0.0
Co1 Co 0.34386 0.68144 0.95162 0.0
C2 C 0.38581 0.76208 0.00866 0.0
O3 O 0.37596 0.74376 0.05624 0.0
O4 O 0.37522 0.74191 0.96351 0.0
C5 C 0.32692 0.71457 0.19207 0.0
O6 O 0.32074 0.74407 0.16372 0.0
C7 C 0.3323 0.69462 0.83235 0.0
C8 C 0.32324 0.63229 0.79854 0.0
C9 C 0.32508 0.67151 0.7834 0.0
N10 N 0.33463 0.67003 0.87419 0.0
N11 N 0.32936 0.63292 0.85355 0.0
C12 C 0.33388 0.7382 0.84051 0.0
H13 H 0.32132 0.74197 0.88373 0.0
H14 H 0.31407 0.74621 0.8099 0.0
H15 H 0.36865 0.76 0.83445 0.0
C16 C 0.24841 0.64163 0.07299 0.0
N17 N 0.28966 0.66168 0.05029 0.0
N18 N 0.28913 0.66097 0.99534 0.0
C19 C 0.24733 0.64094 0.98136 0.0
C20 C 0.22017 0.62774 0.03002 0.0
C21 C 0.23735 0.63247 0.13427 0.0
H22 H 0.26329 0.62376 0.15226 0.0
H23 H 0.2364 0.66093 0.15562 0.0
H24 H 0.20492 0.60692 0.14232 0.0
O25 O 0.38125 0.65181 0.06416 0.0
O26 O 0.3815 0.65035 0.97152 0.0
H27 H 0.24347 0.60968 0.90309 0.0
H28 H 0.19736 0.6257 0.92112 0.0
C29 C 0.23359 0.63463 0.92251 0.0
H30 H 0.25034 0.66371 0.89786 0.0
H31 H 0.32967 0.60788 0.87722 0.0
O32 O 0.33647 0.68638 0.16567 0.0
C33 C 0.39333 0.64041 0.01706 0.0
Co34 Co 0.67527 0.31847 0.08433 0.0
Co35 Co 0.6897 0.3223 0.95322 0.0
C36 C 0.6367 0.36649 0.01351 0.0
O37 O 0.64315 0.3539 0.06074 0.0
O38 O 0.65255 0.35642 0.96783 0.0
C39 C 0.63587 0.31729 0.19714 0.0
O40 O 0.61219 0.33599 0.17491 0.0
C41 C 0.67373 0.31609 0.83274 0.0
C42 C 0.73288 0.30493 0.79753 0.0
C43 C 0.69442 0.30933 0.78276 0.0
N44 N 0.69895 0.31567 0.87475 0.0
N45 N 0.7343 0.30918 0.85334 0.0
C46 C 0.62935 0.31964 0.8415 0.0
H47 H 0.61461 0.30873 0.88422 0.0
H48 H 0.60686 0.30117 0.81004 0.0
H49 H 0.63317 0.35277 0.83715 0.0
C50 C 0.63737 0.22814 0.0612 0.0
N51 N 0.65772 0.26801 0.04418 0.0
N52 N 0.66323 0.2694 0.98918 0.0
C53 C 0.64638 0.23035 0.96937 0.0
C54 C 0.62944 0.20287 0.01437 0.0
C55 C 0.62646 0.21479 0.1213 0.0
H56 H 0.65582 0.23004 0.14555 0.0
H57 H 0.5997 0.22508 0.1387 0.0
H58 H 0.61587 0.18055 0.12627 0.0
O59 O 0.73956 0.34958 0.07227 0.0
O60 O 0.74913 0.35294 0.97969 0.0
H61 H 0.67702 0.22758 0.88834 0.0
H62 H 0.62351 0.18687 0.90149 0.0
C63 C 0.64332 0.22009 0.90845 0.0
H64 H 0.62776 0.23938 0.88814 0.0
H65 H 0.75924 0.30729 0.87699 0.0
O66 O 0.6633 0.30697 0.16595 0.0
C67 C 0.76448 0.3615 0.0277 0.0
H68 H 0.42678 0.61167 0.92426 0.0
H69 H 0.46923 0.56605 0.92116 0.0
H70 H 0.46331 0.56302 0.10159 0.0
H71 H 0.42138 0.60919 0.1053 0.0
H72 H 0.54724 0.57564 0.05123 0.0
H73 H 0.41884 0.44131 0.95762 0.0
H74 H 0.43436 0.48927 0.9189 0.0
H75 H 0.40728 0.48483 0.98777 0.0
C76 C 0.43451 0.6014 0.96337 0.0
C77 C 0.42043 0.61395 0.01508 0.0
C78 C 0.45855 0.5751 0.96145 0.0
C79 C 0.46867 0.56058 0.01114 0.0
C80 C 0.45555 0.57371 0.06277 0.0
H81 H 0.60122 0.39723 0.10244 0.0
H82 H 0.56119 0.44468 0.10026 0.0
C83 C 0.43158 0.60009 0.06478 0.0
C84 C 0.49329 0.53195 0.00937 0.0
H85 H 0.48823 0.43544 0.96693 0.0
C86 C 0.53433 0.54495 0.03293 0.0
C87 C 0.47634 0.49199 0.98531 0.0
C88 C 0.43162 0.47575 0.96138 0.0
C89 C 0.55913 0.51916 0.03266 0.0
C90 C 0.54204 0.4791 0.00897 0.0
C91 C 0.5012 0.46622 0.98496 0.0
C92 C 0.56563 0.44974 0.00992 0.0
C93 C 0.60367 0.53518 0.05705 0.0
C94 C 0.58025 0.43592 0.95973 0.0
C95 C 0.60302 0.40856 0.96073 0.0
C96 C 0.61126 0.39433 0.01203 0.0
C97 C 0.59568 0.40766 0.06219 0.0
C98 C 0.57302 0.43501 0.06109 0.0
H99 H 0.61682 0.56966 0.06016 0.0
H100 H 0.60047 0.52204 0.09985 0.0
H101 H 0.62791 0.52551 0.03136 0.0
H102 H 0.57453 0.44674 0.9198 0.0
H103 H 0.61438 0.39882 0.92133 0.0
H104 H 0.80985 0.38534 0.12242 0.0
H105 H 0.88701 0.43112 0.12841 0.0
H106 H 0.90338 0.4418 0.94839 0.0
H107 H 0.8264 0.3963 0.94176 0.0
H108 H 0.96561 0.42182 0.07932 0.0
H109 H 0.94361 0.56382 0.00328 0.0
H110 H 0.89778 0.51808 0.028 0.0
H111 H 0.92336 0.5194 0.95878 0.0
C112 C 0.82984 0.39731 0.08404 0.0
C113 C 0.81179 0.38733 0.0316 0.0
C114 C 0.87391 0.42346 0.0876 0.0
C115 C 0.90057 0.44032 0.0389 0.0
C116 C 0.88305 0.42968 0.9865 0.0
H117 H 0.18206 0.5541 0.97789 0.0
H118 H 0.10403 0.50872 0.98427 0.0
C119 C 0.83908 0.40347 0.98284 0.0
C120 C 0.94682 0.46897 0.04267 0.0
H121 H 0.0175 0.56782 0.01022 0.0
C122 C 0.97697 0.45382 0.06458 0.0
C123 C 0.96129 0.51084 0.02413 0.0
C124 C 0.9298 0.52924 0.00268 0.0
C125 C 0.02166 0.47913 0.06672 0.0
C126 C 0.03648 0.52045 0.04591 0.0
C127 C 0.00605 0.53601 0.02573 0.0
C128 C 0.08369 0.54764 0.04304 0.0
C129 C 0.05267 0.4615 0.09122 0.0
C130 C 0.09788 0.58492 0.07313 0.0
C131 C 0.1424 0.61099 0.06921 0.0
C132 C 0.17313 0.60032 0.03464 0.0
C133 C 0.15884 0.56311 0.00445 0.0
C134 C 0.11445 0.53702 0.00851 0.0
H135 H 0.03456 0.43383 0.11826 0.0
H136 H 0.07119 0.45175 0.05671 0.0
H137 H 0.07694 0.48522 0.11626 0.0
H138 H 0.07452 0.59374 0.0997 0.0
H139 H 0.15276 0.63966 0.09266 0.0
H140 H 0.41537 0.81267 0.9155 0.0
H141 H 0.45861 0.88753 0.91249 0.0
H142 H 0.45528 0.88941 0.09284 0.0
H143 H 0.41264 0.81483 0.09645 0.0
H144 H 0.43778 0.95355 0.96013 0.0
H145 H 0.58735 0.94349 0.04607 0.0
H146 H 0.54424 0.89872 0.02001 0.0
H147 H 0.53754 0.91794 0.08895 0.0
C148 C 0.42388 0.82898 0.95454 0.0
C149 C 0.4108 0.80761 0.0062 0.0
C150 C 0.44857 0.87174 0.95271 0.0
C151 C 0.4608 0.8938 0.0024 0.0
C152 C 0.44703 0.87277 0.05396 0.0
H153 H 0.54797 0.15839 0.06246 0.0
H154 H 0.50744 0.08312 0.05744 0.0
C155 C 0.42242 0.83012 0.05589 0.0
C156 C 0.4874 0.93896 1.00066 0.0
H157 H 0.58372 0.01113 0.04129 0.0
C158 C 0.46982 0.96617 0.97751 0.0
C159 C 0.52945 0.95524 0.02268 0.0
C160 C 0.55103 0.92734 0.04535 0.0
C161 C 0.49264 0.00943 0.97729 0.0
C162 C 0.53377 0.0258 0.00163 0.0
C163 C 0.55194 -0.0015 0.02325 0.0
C164 C 0.55843 0.07119 0.00531 0.0
C165 C 0.47269 0.03719 0.95063 0.0
C166 C 0.60103 0.08918 0.97915 0.0
C167 C 0.62433 0.132 0.98255 0.0
C168 C 0.60546 0.15741 0.01238 0.0
C169 C 0.56318 0.13932 0.03935 0.0
C170 C 0.53989 0.09651 0.036 0.0
H171 H 0.44776 0.01978 0.92101 0.0
H172 H 0.45593 0.05003 0.98379 0.0
H173 H 0.49851 0.06365 0.92781 0.0
H174 H 0.61605 0.07012 0.95568 0.0
H175 H 0.65707 0.14533 0.96184 0.0
H176 H 0.36988 0.74639 0.72939 0.0
H177 H 0.36685 0.76342 0.63115 0.0
H178 H 0.27029 0.64071 0.60817 0.0
H179 H 0.27235 0.62389 0.7064 0.0
H180 H 0.38868 0.72183 0.54109 0.0
H181 H 0.2169 0.71494 0.53235 0.0
H182 H 0.24335 0.71971 0.59734 0.0
H183 H 0.22006 0.66971 0.56501 0.0
C184 C 0.34692 0.72356 0.70395 0.0
C185 C 0.32071 0.68405 0.72591 0.0
C186 C 0.34553 0.73319 0.64767 0.0
C187 C 0.31776 0.70359 0.6126 0.0
C188 C 0.29114 0.66439 0.63474 0.0
H189 H 0.34075 0.6596 0.26247 0.0
H190 H 0.33926 0.66125 0.36457 0.0
C191 C 0.29264 0.65471 0.69078 0.0
C192 C 0.31943 0.71191 0.55175 0.0
H193 H 0.25452 0.70902 0.44448 0.0
C194 C 0.3595 0.71965 0.52005 0.0
C195 C 0.28145 0.70945 0.52441 0.0
C196 C 0.2381 0.70342 0.55659 0.0
C197 C 0.36212 0.72304 0.46148 0.0
C198 C 0.32352 0.71801 0.43391 0.0
C199 C 0.28393 0.71231 0.46571 0.0
C200 C 0.32334 0.71684 0.37204 0.0
C201 C 0.40609 0.73154 0.42953 0.0
C202 C 0.3136 0.74688 0.3425 0.0
C203 C 0.3143 0.74599 0.28397 0.0
C204 C 0.32442 0.7148 0.25409 0.0
C205 C 0.33311 0.68421 0.28407 0.0
C206 C 0.33251 0.68521 0.34244 0.0
H207 H 0.43399 0.7458 0.4566 0.0
H208 H 0.4078 0.70174 0.41363 0.0
H209 H 0.4103 0.75252 0.39312 0.0
H210 H 0.3061 0.77136 0.36468 0.0
H211 H 0.30728 0.76992 0.26218 0.0
H212 H 0.67585 0.275 0.25516 0.0
H213 H 0.67746 0.27025 0.35658 0.0
H214 H 0.59353 0.342 0.37956 0.0
H215 H 0.59112 0.34639 0.27799 0.0
H216 H 0.71078 0.3378 0.42492 0.0
H217 H 0.53573 0.24639 0.49179 0.0
H218 H 0.55748 0.24856 0.41998 0.0
H219 H 0.54389 0.29114 0.44874 0.0
C220 C 0.65722 0.28933 0.28173 0.0
C221 C 0.63349 0.31123 0.25849 0.0
C222 C 0.65817 0.28655 0.33969 0.0
C223 C 0.63533 0.30546 0.3756 0.0
C224 C 0.6107 0.32649 0.35265 0.0
H225 H 0.6496 0.35281 0.73436 0.0
H226 H 0.63184 0.35091 0.63636 0.0
C227 C 0.60957 0.32916 0.29457 0.0
C228 C 0.64037 0.30589 0.43665 0.0
H229 H 0.58397 0.27593 0.56396 0.0
C230 C 0.68305 0.32416 0.45527 0.0
C231 C 0.60408 0.28835 0.47615 0.0
C232 C 0.55772 0.26717 0.4583 0.0
C233 C 0.69048 0.32529 0.51231 0.0
C234 C 0.65433 0.30733 0.5517 0.0
C235 C 0.61153 0.28964 0.53341 0.0
C236 C 0.66102 0.30557 0.61187 0.0
C237 C 0.73694 0.34582 0.5302 0.0
C238 C 0.68246 0.28007 0.63046 0.0
C239 C 0.69215 0.28069 0.68639 0.0
C240 C 0.68032 0.30663 0.72488 0.0
C241 C 0.65795 0.33153 0.70633 0.0
C242 C 0.64813 0.33079 0.65023 0.0
H243 H 0.75956 0.36553 0.49629 0.0
H244 H 0.73749 0.36538 0.56763 0.0
H245 H 0.74973 0.32146 0.54155 0.0
H246 H 0.69243 0.26026 0.60138 0.0
H247 H 0.70939 0.26115 0.69939 0.0
loop_
_geom_bond_atom_site_label_1
_geom_bond_atom_site_label_2
_geom_bond_distance
_geom_bond_site_symmetry_2
_ccdc_geom_bond_type
Co0 O3 1.970 . S
Co0 N17 1.989 . S
Co0 O25 1.967 . S
Co0 O32 1.920 . S
Co1 O4 1.966 . S
Co1 N10 2.022 . S
Co1 N18 1.993 . S
Co1 O26 1.941 . S
C2 O3 1.258 . S
C2 O4 1.263 1_554 S
O3 Co0 1.970 . S
O3 C2 1.258 . S
O4 Co1 1.966 . S
O4 C2 1.263 1_556 S
C5 O6 1.235 . S
C5 O32 1.289 . S
O6 C5 1.235 . S
C7 C9 1.400 . S
C7 N10 1.351 . S
C7 C12 1.501 . S
C8 C9 1.387 . S
C8 N11 1.341 . S
C9 C7 1.400 . S
C9 C8 1.387 . S
N10 Co1 2.022 . S
N10 C7 1.351 . S
N10 N11 1.365 . S
N11 C8 1.341 . S
N11 N10 1.365 . S
N11 H31 0.862 . S
C12 C7 1.501 . S
C12 H13 0.961 . S
C12 H14 0.961 . S
C12 H15 0.960 . S
H13 C12 0.961 . S
H14 C12 0.961 . S
H15 C12 0.960 . S
C16 N17 1.342 . S
C16 C20 1.401 . S
C16 C21 1.499 . S
N17 Co0 1.989 . S
N17 C16 1.342 . S
N17 N18 1.388 1_554 S
N18 Co1 1.993 . S
N18 N17 1.388 1_556 S
N18 C19 1.346 . S
C19 N18 1.346 . S
C19 C20 1.396 1_556 S
C19 C29 1.510 . S
C20 C16 1.401 . S
C20 C19 1.396 1_554 S
C21 C16 1.499 . S
C21 H22 0.959 . S
C21 H23 0.960 . S
C21 H24 0.961 . S
H22 C21 0.959 . S
H23 C21 0.960 . S
H24 C21 0.961 . S
O25 Co0 1.967 . S
O25 C33 1.258 . S
O26 Co1 1.941 . S
O26 C33 1.266 1_556 S
H27 C29 0.959 . S
H28 C29 0.961 . S
C29 C19 1.510 . S
C29 H27 0.959 . S
C29 H28 0.961 . S
C29 H30 0.960 . S
H30 C29 0.960 . S
H31 N11 0.862 . S
O32 Co0 1.920 . S
O32 C5 1.289 . S
C33 O25 1.258 . S
C33 O26 1.266 1_554 S
Co34 O37 1.970 . S
Co34 N51 1.989 . S
Co34 O59 1.967 . S
Co34 O66 1.920 . S
Co35 O38 1.966 . S
Co35 N44 2.022 . S
Co35 N52 1.993 . S
Co35 O60 1.941 . S
C36 O37 1.258 . S
C36 O38 1.263 1_554 S
O37 Co34 1.970 . S
O37 C36 1.258 . S
O38 Co35 1.966 . S
O38 C36 1.263 1_556 S
C39 O40 1.235 . S
C39 O66 1.289 . S
O40 C39 1.235 . S
C41 C43 1.400 . S
C41 N44 1.351 . S
C41 C46 1.501 . S
C42 C43 1.387 . S
C42 N45 1.341 . S
C43 C41 1.400 . S
C43 C42 1.387 . S
N44 Co35 2.022 . S
N44 C41 1.351 . S
N44 N45 1.365 . S
N45 C42 1.341 . S
N45 N44 1.365 . S
N45 H65 0.862 . S
C46 C41 1.501 . S
C46 H47 0.961 . S
C46 H48 0.961 . S
C46 H49 0.960 . S
H47 C46 0.961 . S
H48 C46 0.961 . S
H49 C46 0.960 . S
C50 N51 1.342 . S
C50 C54 1.401 . S
C50 C55 1.499 . S
N51 Co34 1.989 . S
N51 C50 1.342 . S
N51 N52 1.388 1_554 S
N52 Co35 1.993 . S
N52 N51 1.388 1_556 S
N52 C53 1.346 . S
C53 N52 1.346 . S
C53 C54 1.396 1_556 S
C53 C63 1.510 . S
C54 C50 1.401 . S
C54 C53 1.396 1_554 S
C55 C50 1.499 . S
C55 H56 0.959 . S
C55 H57 0.960 . S
C55 H58 0.961 . S
H56 C55 0.959 . S
H57 C55 0.960 . S
H58 C55 0.961 . S
O59 Co34 1.967 . S
O59 C67 1.258 . S
O60 Co35 1.941 . S
O60 C67 1.266 1_556 S
H61 C63 0.959 . S
H62 C63 0.961 . S
C63 C53 1.510 . S
C63 H61 0.959 . S
C63 H62 0.961 . S
C63 H64 0.960 . S
H64 C63 0.960 . S
H65 N45 0.862 . S
O66 Co34 1.920 . S
O66 C39 1.289 . S
C67 O59 1.258 . S
C67 O60 1.266 1_554 S
H68 C76 0.929 . S
H69 C78 0.930 . S
H70 C80 0.930 . S
H71 C83 0.929 . S
H72 C86 0.930 . S
H73 C88 0.960 . S
H74 C88 0.960 . S
H75 C88 0.960 . S
C76 H68 0.929 . S
C76 C77 1.377 . S
C76 C78 1.384 . S
C77 C76 1.377 . S
C77 C83 1.390 . S
C78 H69 0.930 . S
C78 C76 1.384 . S
C78 C79 1.372 . S
C79 C78 1.372 . S
C79 C80 1.400 . S
C79 C84 1.490 . S
C80 H70 0.930 . S
C80 C79 1.400 . S
C80 C83 1.386 . S
H81 C97 0.930 . S
H82 C98 0.931 . S
C83 H71 0.929 . S
C83 C77 1.390 . S
C83 C80 1.386 . S
C84 C79 1.490 . S
C84 C86 1.395 . S
C84 C87 1.403 1_554 S
H85 C91 0.930 . S
C86 H72 0.930 . S
C86 C84 1.395 . S
C86 C89 1.403 . S
C87 C84 1.403 1_556 S
C87 C88 1.524 . S
C87 C91 1.400 . S
C88 H73 0.960 . S
C88 H74 0.960 . S
C88 H75 0.960 . S
C88 C87 1.524 . S
C89 C86 1.403 . S
C89 C90 1.392 . S
C89 C93 1.495 . S
C90 C89 1.392 . S
C90 C91 1.385 1_554 S
C90 C92 1.478 . S
C91 H85 0.930 . S
C91 C87 1.400 . S
C91 C90 1.385 1_556 S
C92 C90 1.478 . S
C92 C94 1.381 . S
C92 C98 1.383 . S
C93 C89 1.495 . S
C93 H99 0.959 . S
C93 H100 0.961 . S
C93 H101 0.960 . S
C94 C92 1.381 . S
C94 C95 1.394 . S
C94 H102 0.930 . S
C95 C94 1.394 . S
C95 C96 1.383 . S
C95 H103 0.929 1_554 S
C96 C95 1.383 . S
C96 C97 1.377 . S
C97 H81 0.930 . S
C97 C96 1.377 . S
C97 C98 1.379 . S
C98 H82 0.931 . S
C98 C92 1.383 . S
C98 C97 1.379 . S
H99 C93 0.959 . S
H100 C93 0.961 . S
H101 C93 0.960 . S
H102 C94 0.930 . S
H103 C95 0.929 1_556 S
H104 C112 0.929 . S
H105 C114 0.930 . S
H106 C116 0.930 . S
H107 C119 0.929 . S
H108 C122 0.930 . S
H109 C124 0.960 . S
H110 C124 0.960 1_554 S
H111 C124 0.960 . S
C112 H104 0.929 . S
C112 C113 1.377 . S
C112 C114 1.384 . S
C113 C112 1.377 . S
C113 C119 1.390 1_554 S
C114 H105 0.930 . S
C114 C112 1.384 . S
C114 C115 1.372 . S
C115 C114 1.372 . S
C115 C116 1.400 1_554 S
C115 C120 1.490 . S
C116 H106 0.930 . S
C116 C115 1.400 1_556 S
C116 C119 1.386 . S
H117 C133 0.930 . S
H118 C134 0.931 . S
C119 H107 0.929 . S
C119 C113 1.390 1_556 S
C119 C116 1.386 . S
C120 C115 1.490 . S
C120 C122 1.395 . S
C120 C123 1.403 . S
H121 C127 0.930 . S
C122 H108 0.930 . S
C122 C120 1.395 . S
C122 C125 1.403 1_655 S
C123 C120 1.403 . S
C123 C124 1.524 1_554 S
C123 C127 1.400 1_655 S
C124 H109 0.960 . S
C124 H110 0.960 1_556 S
C124 H111 0.960 . S
C124 C123 1.524 1_556 S
C125 C122 1.403 1_455 S
C125 C126 1.392 . S
C125 C129 1.495 . S
C126 C125 1.392 . S
C126 C127 1.385 . S
C126 C128 1.478 . S
C127 H121 0.930 . S
C127 C123 1.400 1_455 S
C127 C126 1.385 . S
C128 C126 1.478 . S
C128 C130 1.381 . S
C128 C134 1.383 1_554 S
C129 C125 1.495 . S
C129 H135 0.959 . S
C129 H136 0.961 . S
C129 H137 0.960 . S
C130 C128 1.381 . S
C130 C131 1.394 . S
C130 H138 0.930 . S
C131 C130 1.394 . S
C131 C132 1.383 . S
C131 H139 0.929 . S
C132 C131 1.383 . S
C132 C133 1.377 1_554 S
C133 H117 0.930 . S
C133 C132 1.377 1_556 S
C133 C134 1.379 . S
C134 H118 0.931 . S
C134 C128 1.383 1_556 S
C134 C133 1.379 . S
H135 C129 0.959 . S
H136 C129 0.961 . S
H137 C129 0.960 . S
H138 C130 0.930 . S
H139 C131 0.929 . S
H140 C148 0.929 . S
H141 C150 0.930 . S
H142 C152 0.930 . S
H143 C155 0.929 . S
H144 C158 0.930 . S
H145 C160 0.960 . S
H146 C160 0.960 . S
H147 C160 0.960 . S
C148 H140 0.929 . S
C148 C149 1.377 1_556 S
C148 C150 1.384 . S
C149 C148 1.377 1_554 S
C149 C155 1.390 . S
C150 H141 0.930 . S
C150 C148 1.384 . S
C150 C151 1.372 1_556 S
C151 C150 1.372 1_554 S
C151 C152 1.400 . S
C151 C156 1.490 . S
C152 H142 0.930 . S
C152 C151 1.400 . S
C152 C155 1.386 . S
H153 C169 0.930 . S
H154 C170 0.931 . S
C155 H143 0.929 . S
C155 C149 1.390 . S
C155 C152 1.386 . S
C156 C151 1.490 . S
C156 C158 1.395 1_554 S
C156 C159 1.403 . S
H157 C163 0.930 . S
C158 H144 0.930 . S
C158 C156 1.395 1_556 S
C158 C161 1.403 1_565 S
C159 C156 1.403 . S
C159 C160 1.524 . S
C159 C163 1.400 1_565 S
C160 H145 0.960 . S
C160 H146 0.960 . S
C160 H147 0.960 . S
C160 C159 1.524 . S
C161 C158 1.403 1_545 S
C161 C162 1.392 1_556 S
C161 C165 1.495 . S
C162 C161 1.392 1_554 S
C162 C163 1.385 . S
C162 C164 1.478 . S
C163 H157 0.930 . S
C163 C159 1.400 1_545 S
C163 C162 1.385 . S
C164 C162 1.478 . S
C164 C166 1.381 1_554 S
C164 C170 1.383 . S
C165 C161 1.495 . S
C165 H171 0.959 . S
C165 H172 0.961 . S
C165 H173 0.960 . S
C166 C164 1.381 1_556 S
C166 C167 1.394 . S
C166 H174 0.930 . S
C167 C166 1.394 . S
C167 C168 1.383 1_556 S
C167 H175 0.929 . S
C168 C167 1.383 1_554 S
C168 C169 1.377 . S
C169 H153 0.930 . S
C169 C168 1.377 . S
C169 C170 1.379 . S
C170 H154 0.931 . S
C170 C164 1.383 . S
C170 C169 1.379 . S
H171 C165 0.959 . S
H172 C165 0.961 . S
H173 C165 0.960 . S
H174 C166 0.930 . S
H175 C167 0.929 . S
H176 C184 0.929 . S
H177 C186 0.930 . S
H178 C188 0.930 . S
H179 C191 0.929 . S
H180 C194 0.930 . S
H181 C196 0.960 . S
H182 C196 0.960 . S
H183 C196 0.960 . S
C184 H176 0.929 . S
C184 C185 1.377 . S
C184 C186 1.384 . S
C185 C184 1.377 . S
C185 C191 1.390 . S
C186 H177 0.930 . S
C186 C184 1.384 . S
C186 C187 1.372 . S
C187 C186 1.372 . S
C187 C188 1.400 . S
C187 C192 1.490 . S
C188 H178 0.930 . S
C188 C187 1.400 . S
C188 C191 1.386 . S
H189 C205 0.930 . S
H190 C206 0.931 . S
C191 H179 0.929 . S
C191 C185 1.390 . S
C191 C188 1.386 . S
C192 C187 1.490 . S
C192 C194 1.395 . S
C192 C195 1.403 . S
H193 C199 0.930 . S
C194 H180 0.930 . S
C194 C192 1.395 . S
C194 C197 1.403 . S
C195 C192 1.403 . S
C195 C196 1.524 . S
C195 C199 1.400 . S
C196 H181 0.960 . S
C196 H182 0.960 . S
C196 H183 0.960 . S
C196 C195 1.524 . S
C197 C194 1.403 . S
C197 C198 1.392 . S
C197 C201 1.495 . S
C198 C197 1.392 . S
C198 C199 1.385 . S
C198 C200 1.478 . S
C199 H193 0.930 . S
C199 C195 1.400 . S
C199 C198 1.385 . S
C200 C198 1.478 . S
C200 C202 1.381 . S
C200 C206 1.383 . S
C201 C197 1.495 . S
C201 H207 0.959 . S
C201 H208 0.961 . S
C201 H209 0.960 . S
C202 C200 1.381 . S
C202 C203 1.394 . S
C202 H210 0.930 . S
C203 C202 1.394 . S
C203 C204 1.383 . S
C203 H211 0.929 . S
C204 C203 1.383 . S
C204 C205 1.377 . S
C205 H189 0.930 . S
C205 C204 1.377 . S
C205 C206 1.379 . S
C206 H190 0.931 . S
C206 C200 1.383 . S
C206 C205 1.379 . S
H207 C201 0.959 . S
H208 C201 0.961 . S
H209 C201 0.960 . S
H210 C202 0.930 . S
H211 C203 0.929 . S
H212 C220 0.929 . S
H213 C222 0.930 . S
H214 C224 0.930 . S
H215 C227 0.929 . S
H216 C230 0.930 . S
H217 C232 0.960 . S
H218 C232 0.960 . S
H219 C232 0.960 . S
C220 H212 0.929 . S
C220 C221 1.377 . S
C220 C222 1.384 . S
C221 C220 1.377 . S
C221 C227 1.390 . S
C222 H213 0.930 . S
C222 C220 1.384 . S
C222 C223 1.372 . S
C223 C222 1.372 . S
C223 C224 1.400 . S
C223 C228 1.490 . S
C224 H214 0.930 . S
C224 C223 1.400 . S
C224 C227 1.386 . S
H225 C241 0.930 . S
H226 C242 0.931 . S
C227 H215 0.929 . S
C227 C221 1.390 . S
C227 C224 1.386 . S
C228 C223 1.490 . S
C228 C230 1.395 . S
C228 C231 1.403 . S
H229 C235 0.930 . S
C230 H216 0.930 . S
C230 C228 1.395 . S
C230 C233 1.403 . S
C231 C228 1.403 . S
C231 C232 1.524 . S
C231 C235 1.400 . S
C232 H217 0.960 . S
C232 H218 0.960 . S
C232 H219 0.960 . S
C232 C231 1.524 . S
C233 C230 1.403 . S
C233 C234 1.392 . S
C233 C237 1.495 . S
C234 C233 1.392 . S
C234 C235 1.385 . S
C234 C236 1.478 . S
C235 H229 0.930 . S
C235 C231 1.400 . S
C235 C234 1.385 . S
C236 C234 1.478 . S
C236 C238 1.381 . S
C236 C242 1.383 . S
C237 C233 1.495 . S
C237 H243 0.959 . S
C237 H244 0.961 . S
C237 H245 0.960 . S
C238 C236 1.381 . S
C238 C239 1.394 . S
C238 H246 0.930 . S
C239 C238 1.394 . S
C239 C240 1.383 . S
C239 H247 0.929 . S
C240 C239 1.383 . S
C240 C241 1.377 . S
C241 H225 0.930 . S
C241 C240 1.377 . S
C241 C242 1.379 . S
C242 H226 0.931 . S
C242 C236 1.383 . S
C242 C241 1.379 . S
H243 C237 0.959 . S
H244 C237 0.961 . S
H245 C237 0.960 . S
H246 C238 0.930 . S
H247 C239 0.929 . S
C77 C33 1.549 . S
C96 C36 1.549 . S
C113 C67 1.437 . S
C132 C20 1.439 . S
C149 C2 1.532 . S
C168 C54 1.498 . S
C185 C9 1.397 . S
C204 C5 1.479 . S
C221 C39 1.478 . S
C240 C43 1.363 . S
