# Generated by pormake.
# Topology unh, (4)-cn, num edge types: 1
# Building blocks:
#     Node 0, Type 0, BuildingBlock: QUQFOY_clean_sbu_1, # of connection points: 4
#     Node 1, Type 0, BuildingBlock: QUQFOY_clean_sbu_1, # of connection points: 4
#     Node 2, Type 0, BuildingBlock: QUQFOY_clean_sbu_1, # of connection points: 4
#     Node 3, Type 0, BuildingBlock: QUQFOY_clean_sbu_1, # of connection points: 4
#     Node 4, Type 0, BuildingBlock: QUQFOY_clean_sbu_1, # of connection points: 4
#     Node 5, Type 0, BuildingBlock: QUQFOY_clean_sbu_1, # of connection points: 4
#     Edge 6, Type (0, 0), None
#     Edge 7, Type (0, 0), None
#     Edge 8, Type (0, 0), None
#     Edge 9, Type (0, 0), None
#     Edge 10, Type (0, 0), None
#     Edge 11, Type (0, 0), None
#     Edge 12, Type (0, 0), None
#     Edge 13, Type (0, 0), None
#     Edge 14, Type (0, 0), None
#     Edge 15, Type (0, 0), None
#     Edge 16, Type (0, 0), None
#     Edge 17, Type (0, 0), None
# Relax obj value: 0.055
# Max RMSD: 0.146
# Mean RMSD: 0.146
data_MOF--net-unh--node1-QUQFOY_clean_sbu_1--edge1-none
_symmetry_space_group_name_H-M    P1
_symmetry_Int_Tables_number       1
_symmetry_cell_setting            triclinic
loop_
_symmetry_equiv_pos_as_xyz
'x, y, z'
_cell_length_a     20.567691
_cell_length_b     20.568231
_cell_length_c     10.009853
_cell_angle_alpha  89.997303
_cell_angle_beta   90.002734
_cell_angle_gamma 119.9988
loop_
_atom_site_label
_atom_site_type_symbol
_atom_site_fract_x
_atom_site_fract_y
_atom_site_fract_z
_atom_type_partial_charge
O0 O 0.02191 0.53241 0.97285 0.0
Cd1 Cd 0.08413 0.60964 0.11611 0.0
Cd2 Cd 0.16936 0.54317 0.08369 0.0
O3 O 0.07602 0.46256 0.98031 0.0
O4 O 0.01537 0.61607 0.25117 0.0
O5 O 0.08401 0.56169 0.28555 0.0
C6 C 0.03231 0.57519 0.3255 0.0
C7 C 0.24216 0.51808 0.23339 0.0
C8 C 0.02468 0.47453 0.93704 0.0
C9 C 0.22779 0.70335 0.98323 0.0
O10 O 0.23087 0.64317 0.98206 0.0
O11 O 0.1759 0.70716 0.04564 0.0
O12 O 0.24216 0.50578 0.10719 0.0
O13 O 0.19792 0.54071 0.27644 0.0
O14 O 0.4925 0.02044 0.13956 0.0
Cd15 Cd 0.47752 0.08268 0.28283 0.0
Cd16 Cd 0.6292 0.16788 0.25035 0.0
O17 O 0.61646 0.07452 0.14702 0.0
O18 O 0.40231 0.01393 0.41789 0.0
O19 O 0.52535 0.08254 0.45226 0.0
C20 C 0.46014 0.03085 0.49222 0.0
C21 C 0.72709 0.24068 0.40005 0.0
C22 C 0.55314 0.02319 0.10375 0.0
C23 C 0.52747 0.22633 0.14991 0.0
O24 O 0.59073 0.22939 0.14869 0.0
O25 O 0.47178 0.17446 0.21237 0.0
O26 O 0.73939 0.24066 0.27386 0.0
O27 O 0.66021 0.19645 0.4431 0.0
O28 O 0.47506 0.49102 0.30624 0.0
Cd29 Cd 0.39783 0.47603 0.4495 0.0
Cd30 Cd 0.4643 0.62772 0.41703 0.0
O31 O 0.54491 0.61499 0.31366 0.0
O32 O 0.39139 0.40083 0.58457 0.0
O33 O 0.44579 0.52386 0.61893 0.0
C34 C 0.43228 0.45866 0.6589 0.0
C35 C 0.48938 0.72561 0.56671 0.0
C36 C 0.53293 0.55167 0.2704 0.0
C37 C 0.30411 0.52596 0.31662 0.0
O38 O 0.36429 0.58923 0.31542 0.0
O39 O 0.3003 0.47027 0.37904 0.0
O40 O 0.50168 0.7379 0.44051 0.0
O41 O 0.46676 0.65874 0.60978 0.0
O42 O 0.98704 0.47359 0.47287 0.0
Cd43 Cd 0.92481 0.39635 0.61612 0.0
Cd44 Cd 0.83956 0.46281 0.58367 0.0
O45 O 0.9329 0.54342 0.48026 0.0
O46 O 0.99357 0.38992 0.75119 0.0
O47 O 0.92492 0.4443 0.78555 0.0
C48 C 0.97663 0.4308 0.8255 0.0
C49 C 0.76677 0.48792 0.73336 0.0
C50 C 0.98426 0.53146 0.43704 0.0
C51 C 0.78115 0.30262 0.48328 0.0
O52 O 0.77805 0.3628 0.4821 0.0
O53 O 0.83306 0.29883 0.54565 0.0
O54 O 0.76675 0.50019 0.60715 0.0
O55 O 0.81103 0.46531 0.77643 0.0
O56 O 0.51644 0.98555 0.63959 0.0
Cd57 Cd 0.53142 0.92331 0.78285 0.0
Cd58 Cd 0.37973 0.83809 0.75033 0.0
O59 O 0.39247 0.93145 0.64699 0.0
O60 O 0.60663 0.99206 0.91791 0.0
O61 O 0.48359 0.92343 0.95227 0.0
C62 C 0.5488 0.97513 0.99222 0.0
C63 C 0.28185 0.76528 0.89999 0.0
C64 C 0.4558 0.98279 0.60376 0.0
C65 C 0.48149 0.77966 0.64994 0.0
O66 O 0.41823 0.77659 0.64871 0.0
O67 O 0.53718 0.83154 0.7124 0.0
O68 O 0.26954 0.76529 0.7738 0.0
O69 O 0.34872 0.80952 0.94308 0.0
O70 O 0.53389 0.51497 0.80625 0.0
Cd71 Cd 0.61112 0.52996 0.94952 0.0
Cd72 Cd 0.54465 0.37827 0.91702 0.0
O73 O 0.46403 0.391 0.81368 0.0
O74 O 0.61756 0.60516 0.08457 0.0
O75 O 0.56316 0.48213 0.11894 0.0
C76 C 0.57666 0.54733 0.15888 0.0
C77 C 0.51959 0.28039 0.06668 0.0
C78 C 0.476 0.45433 0.77045 0.0
C79 C 0.70483 0.48003 0.8166 0.0
O80 O 0.64465 0.41677 0.81538 0.0
O81 O 0.70864 0.53572 0.87906 0.0
O82 O 0.50727 0.26809 0.94048 0.0
O83 O 0.54221 0.34725 0.10977 0.0
loop_
_geom_bond_atom_site_label_1
_geom_bond_atom_site_label_2
_geom_bond_distance
_geom_bond_site_symmetry_2
_ccdc_geom_bond_type
O0 Cd1 2.223 1_556 S
O0 C8 1.315 . S
Cd1 O0 2.223 1_554 S
Cd1 O4 2.297 1_455 S
Cd1 O5 2.439 . S
Cd1 O11 2.240 . S
Cd2 O3 2.240 . S
Cd2 O10 2.223 . S
Cd2 O12 2.297 1_556 S
Cd2 O13 2.439 1_556 S
O3 Cd2 2.240 . S
O3 C8 1.279 . S
O4 Cd1 2.297 1_655 S
O4 C6 1.247 . S
O5 Cd1 2.439 . S
O5 C6 1.208 1_455 S
C6 O4 1.247 . S
C6 O5 1.208 1_655 S
C7 O12 1.247 . S
C7 O13 1.208 . S
C8 O0 1.315 . S
C8 O3 1.279 . S
C9 O10 1.315 . S
C9 O11 1.279 1_556 S
O10 Cd2 2.223 . S
O10 C9 1.315 . S
O11 Cd1 2.240 . S
O11 C9 1.279 1_554 S
O12 Cd2 2.297 1_554 S
O12 C7 1.247 . S
O13 Cd2 2.439 1_554 S
O13 C7 1.208 . S
O14 Cd15 2.223 . S
O14 C22 1.315 . S
Cd15 O14 2.223 . S
Cd15 O18 2.297 1_545 S
Cd15 O19 2.439 . S
Cd15 O25 2.240 . S
Cd16 O17 2.240 . S
Cd16 O24 2.223 . S
Cd16 O26 2.297 . S
Cd16 O27 2.439 . S
O17 Cd16 2.240 . S
O17 C22 1.279 . S
O18 Cd15 2.297 1_565 S
O18 C20 1.247 . S
O19 Cd15 2.439 . S
O19 C20 1.208 1_545 S
C20 O18 1.247 . S
C20 O19 1.208 1_565 S
C21 O26 1.247 . S
C21 O27 1.208 . S
C22 O14 1.315 . S
C22 O17 1.279 . S
C23 O24 1.315 . S
C23 O25 1.279 . S
O24 Cd16 2.223 . S
O24 C23 1.315 . S
O25 Cd15 2.240 . S
O25 C23 1.279 . S
O26 Cd16 2.297 . S
O26 C21 1.247 . S
O27 Cd16 2.439 . S
O27 C21 1.208 . S
O28 Cd29 2.223 . S
O28 C36 1.315 . S
Cd29 O28 2.223 . S
Cd29 O32 2.297 . S
Cd29 O33 2.439 . S
Cd29 O39 2.240 . S
Cd30 O31 2.240 . S
Cd30 O38 2.223 . S
Cd30 O40 2.297 . S
Cd30 O41 2.439 . S
O31 Cd30 2.240 . S
O31 C36 1.279 . S
O32 Cd29 2.297 . S
O32 C34 1.247 . S
O33 Cd29 2.439 . S
O33 C34 1.208 . S
C34 O32 1.247 . S
C34 O33 1.208 . S
C35 O40 1.247 . S
C35 O41 1.208 . S
C36 O28 1.315 . S
C36 O31 1.279 . S
C37 O38 1.315 . S
C37 O39 1.279 . S
O38 Cd30 2.223 . S
O38 C37 1.315 . S
O39 Cd29 2.240 . S
O39 C37 1.279 . S
O40 Cd30 2.297 . S
O40 C35 1.247 . S
O41 Cd30 2.439 . S
O41 C35 1.208 . S
O42 Cd43 2.223 . S
O42 C50 1.315 . S
Cd43 O42 2.223 . S
Cd43 O46 2.297 1_655 S
Cd43 O47 2.439 . S
Cd43 O53 2.240 . S
Cd44 O45 2.240 . S
Cd44 O52 2.223 . S
Cd44 O54 2.297 . S
Cd44 O55 2.439 . S
O45 Cd44 2.240 . S
O45 C50 1.279 . S
O46 Cd43 2.297 1_455 S
O46 C48 1.247 . S
O47 Cd43 2.439 . S
O47 C48 1.208 1_655 S
C48 O46 1.247 . S
C48 O47 1.208 1_455 S
C49 O54 1.247 . S
C49 O55 1.208 . S
C50 O42 1.315 . S
C50 O45 1.279 . S
C51 O52 1.315 . S
C51 O53 1.279 . S
O52 Cd44 2.223 . S
O52 C51 1.315 . S
O53 Cd43 2.240 . S
O53 C51 1.279 . S
O54 Cd44 2.297 . S
O54 C49 1.247 . S
O55 Cd44 2.439 . S
O55 C49 1.208 . S
O56 Cd57 2.223 . S
O56 C64 1.315 . S
Cd57 O56 2.223 . S
Cd57 O60 2.297 1_565 S
Cd57 O61 2.439 . S
Cd57 O67 2.240 . S
Cd58 O59 2.240 . S
Cd58 O66 2.223 . S
Cd58 O68 2.297 . S
Cd58 O69 2.439 . S
O59 Cd58 2.240 . S
O59 C64 1.279 . S
O60 Cd57 2.297 1_545 S
O60 C62 1.247 . S
O61 Cd57 2.439 . S
O61 C62 1.208 1_565 S
C62 O60 1.247 . S
C62 O61 1.208 1_545 S
C63 O68 1.247 . S
C63 O69 1.208 . S
C64 O56 1.315 . S
C64 O59 1.279 . S
C65 O66 1.315 . S
C65 O67 1.279 . S
O66 Cd58 2.223 . S
O66 C65 1.315 . S
O67 Cd57 2.240 . S
O67 C65 1.279 . S
O68 Cd58 2.297 . S
O68 C63 1.247 . S
O69 Cd58 2.439 . S
O69 C63 1.208 . S
O70 Cd71 2.223 . S
O70 C78 1.315 . S
Cd71 O70 2.223 . S
Cd71 O74 2.297 1_556 S
Cd71 O75 2.439 1_556 S
Cd71 O81 2.240 . S
Cd72 O73 2.240 . S
Cd72 O80 2.223 . S
Cd72 O82 2.297 . S
Cd72 O83 2.439 1_556 S
O73 Cd72 2.240 . S
O73 C78 1.279 . S
O74 Cd71 2.297 1_554 S
O74 C76 1.247 . S
O75 Cd71 2.439 1_554 S
O75 C76 1.208 . S
C76 O74 1.247 . S
C76 O75 1.208 . S
C77 O82 1.247 1_554 S
C77 O83 1.208 . S
C78 O70 1.315 . S
C78 O73 1.279 . S
C79 O80 1.315 . S
C79 O81 1.279 . S
O80 Cd72 2.223 . S
O80 C79 1.315 . S
O81 Cd71 2.240 . S
O81 C79 1.279 . S
O82 Cd72 2.297 . S
O82 C77 1.247 1_556 S
O83 Cd72 2.439 1_554 S
O83 C77 1.208 . S
C8 C48 1.438 . S
C62 C22 1.438 1_556 S
C36 C76 1.438 . S
C50 C6 1.438 . S
C20 C64 1.438 . S
C78 C34 1.438 . S
C7 C37 1.815 . S
C21 C51 1.816 . S
C65 C35 1.815 . S
C79 C49 1.815 . S
C63 C9 1.816 . S
C77 C23 1.815 . S
