# Generated by pormake.
# Topology qtz, (4)-cn, num edge types: 1
# Building blocks:
#     Node 0, Type 0, BuildingBlock: NAHDIM_clean_sbu_0, # of connection points: 4
#     Node 1, Type 0, BuildingBlock: NAHDIM_clean_sbu_0, # of connection points: 4
#     Node 2, Type 0, BuildingBlock: NAHDIM_clean_sbu_0, # of connection points: 4
#     Edge 3, Type (0, 0), BuildingBlock: EZIPEK_clean_linker_0, # of connection points: 2
#     Edge 4, Type (0, 0), BuildingBlock: EZIPEK_clean_linker_0, # of connection points: 2
#     Edge 5, Type (0, 0), BuildingBlock: EZIPEK_clean_linker_0, # of connection points: 2
#     Edge 6, Type (0, 0), BuildingBlock: EZIPEK_clean_linker_0, # of connection points: 2
#     Edge 7, Type (0, 0), BuildingBlock: EZIPEK_clean_linker_0, # of connection points: 2
#     Edge 8, Type (0, 0), BuildingBlock: EZIPEK_clean_linker_0, # of connection points: 2
# Relax obj value: 0.103
# Max RMSD: 0.172
# Mean RMSD: 0.164
data_MOF--net-qtz--node1-NAHDIM_clean_sbu_0--edge1-EZIPEK_clean_linker_0
_symmetry_space_group_name_H-M    P1
_symmetry_Int_Tables_number       1
_symmetry_cell_setting            triclinic
loop_
_symmetry_equiv_pos_as_xyz
'x, y, z'
_cell_length_a     17.583667
_cell_length_b     17.733125
_cell_length_c     20.215
_cell_angle_alpha  94.003251
_cell_angle_beta   90.237198
_cell_angle_gamma 121.27263
loop_
_atom_site_label
_atom_site_type_symbol
_atom_site_fract_x
_atom_site_fract_y
_atom_site_fract_z
_atom_type_partial_charge
C0 C 0.10705 0.49189 0.06557 0.0
O1 O 0.10242 0.56092 0.05257 0.0
O2 O 0.89468 0.47642 0.08531 0.0
Zn3 Zn 0.97683 0.47476 0.15388 0.0
O4 O 0.05308 0.59477 0.20266 0.0
C5 C 0.8631 0.40651 0.26129 0.0
O6 O 0.86465 0.48116 0.25919 0.0
O7 O 0.05758 0.44143 0.10831 0.0
C8 C 0.11036 0.60283 0.24546 0.0
O9 O 0.11613 0.53391 0.25667 0.0
C10 C 0.90232 0.54787 0.06896 0.0
O11 O 0.96486 0.6242 0.09801 0.0
O12 O 0.90602 0.38758 0.21987 0.0
C13 C 0.51327 0.87908 0.57615 0.0
O14 O 0.42951 0.85697 0.57718 0.0
O15 O 0.48756 0.07517 0.57005 0.0
Zn16 Zn 0.51334 0.00495 0.50104 0.0
O17 O 0.40315 0.90899 0.44959 0.0
C18 C 0.66036 0.164 0.45663 0.0
O19 O 0.67659 0.18829 0.52048 0.0
O20 O 0.5679 0.94513 0.54563 0.0
C21 C 0.37143 0.92225 0.39819 0.0
O22 O 0.40686 0.00284 0.37949 0.0
C23 C 0.41894 0.08159 0.56823 0.0
O24 O 0.35736 0.03782 0.52044 0.0
O25 O 0.59563 0.08765 0.43675 0.0
C26 C 0.56611 0.63518 0.71153 0.0
O27 O 0.59153 0.58148 0.68729 0.0
O28 O 0.47355 0.41575 0.75439 0.0
Zn29 Zn 0.49904 0.51889 0.81844 0.0
O30 O 0.39155 0.49486 0.86888 0.0
C31 C 0.65918 0.52989 0.86631 0.0
O32 O 0.66176 0.50371 0.80441 0.0
O33 O 0.53026 0.62338 0.76724 0.0
C34 C 0.3764 0.4636 0.9252 0.0
O35 O 0.42871 0.43962 0.95064 0.0
C36 C 0.42009 0.33519 0.76428 0.0
O37 O 0.37477 0.31502 0.81836 0.0
O38 O 0.59764 0.54363 0.88325 0.0
C39 C 0.32842 0.51667 0.02557 0.0
C40 C 0.30554 0.46331 0.96449 0.0
C41 C 0.15086 0.4266 0.9705 0.0
C42 C 0.17307 0.47633 0.03297 0.0
N43 N 0.27691 0.55393 0.12657 0.0
N44 N 0.19305 0.35423 0.88485 0.0
C45 C 0.25995 0.51638 0.06271 0.0
C46 C 0.21604 0.41433 0.93866 0.0
N47 N 0.41591 0.57198 0.04608 0.0
N48 N 0.06815 0.39301 0.94096 0.0
H49 H 0.23902 0.34293 0.8608 0.0
H50 H 0.12755 0.31009 0.86756 0.0
H51 H 0.01776 0.39798 0.96402 0.0
H52 H 0.05109 0.36517 0.89213 0.0
H53 H 0.4369 0.61969 0.0861 0.0
H54 H 0.46867 0.57622 0.01979 0.0
H55 H 0.33638 0.57578 0.15348 0.0
H56 H 0.22861 0.55629 0.15483 0.0
C57 C 0.71804 0.30739 0.31213 0.0
C58 C 0.81155 0.34485 0.31163 0.0
C59 C 0.80508 0.25894 0.40367 0.0
C60 C 0.71297 0.22741 0.40768 0.0
N61 N 0.58497 0.23477 0.37486 0.0
N62 N 0.94702 0.36933 0.36408 0.0
C63 C 0.67022 0.25527 0.36443 0.0
C64 C 0.85601 0.3242 0.35936 0.0
N65 N 0.67431 0.31862 0.26123 0.0
N66 N 0.84325 0.22421 0.4404 0.0
H67 H 0.98677 0.418 0.33284 0.0
H68 H 0.98323 0.36424 0.40257 0.0
H69 H 0.80809 0.17626 0.47343 0.0
H70 H 0.90763 0.23728 0.43407 0.0
H71 H 0.60516 0.28491 0.2552 0.0
H72 H 0.70675 0.35538 0.22146 0.0
H73 H 0.55378 0.26123 0.34939 0.0
H74 H 0.54808 0.19793 0.41335 0.0
C75 C 0.50076 0.73273 0.5767 0.0
C76 C 0.54017 0.82133 0.60448 0.0
C77 C 0.6154 0.79159 0.69217 0.0
C78 C 0.56505 0.70025 0.67024 0.0
N79 N 0.45208 0.58133 0.59566 0.0
N80 N 0.63176 0.93598 0.69015 0.0
C81 C 0.50647 0.67008 0.61303 0.0
C82 C 0.5977 0.85153 0.66219 0.0
N83 N 0.45897 0.70892 0.51501 0.0
N84 N 0.6808 0.82084 0.74108 0.0
H85 H 0.62125 0.98202 0.66902 0.0
H86 H 0.66559 0.95888 0.73638 0.0
H87 H 0.69528 0.7783 0.7637 0.0
H88 H 0.72569 0.88752 0.75511 0.0
H89 H 0.4368 0.64764 0.48919 0.0
H90 H 0.45432 0.75357 0.48677 0.0
H91 H 0.40059 0.55544 0.55938 0.0
H92 H 0.45321 0.53265 0.62094 0.0
C93 C 0.68855 0.47933 0.97069 0.0
C94 C 0.72205 0.53457 0.91757 0.0
C95 C 0.87466 0.59209 0.96014 0.0
C96 C 0.84059 0.54468 0.01728 0.0
N97 N 0.71463 0.45723 0.08328 0.0
N98 N 0.846 0.65406 0.86686 0.0
C99 C 0.74732 0.49217 0.0244 0.0
C100 C 0.81492 0.59397 0.91364 0.0
N101 N 0.60141 0.41187 0.96849 0.0
N102 N 0.96338 0.63191 0.94859 0.0
H103 H 0.80424 0.65767 0.8321 0.0
H104 H 0.91225 0.70526 0.86626 0.0
H105 H 0.00914 0.63021 0.98045 0.0
H106 H -0.0098 0.65929 0.90433 0.0
H107 H 0.5758 0.36416 0.00269 0.0
H108 H 0.55694 0.39783 0.92862 0.0
H109 H 0.6473 0.42601 0.0932 0.0
H110 H 0.7554 0.46723 0.12467 0.0
C111 C 0.31606 0.82793 0.29009 0.0
C112 C 0.30014 0.84542 0.35665 0.0
C113 C 0.15704 0.70446 0.34931 0.0
C114 C 0.17144 0.68925 0.28203 0.0
N115 N 0.25447 0.74319 0.18399 0.0
N116 N 0.19899 0.80996 0.4456 0.0
C117 C 0.24749 0.75351 0.25092 0.0
C118 C 0.21864 0.78636 0.38516 0.0
N119 N 0.39859 0.87861 0.26563 0.0
N120 N 0.08511 0.64005 0.37913 0.0
H121 H 0.24206 0.86997 0.47281 0.0
H122 H 0.13715 0.77406 0.46622 0.0
H123 H 0.03576 0.58148 0.35335 0.0
H124 H 0.07667 0.6423 0.43003 0.0
H125 H 0.41695 0.86273 0.2203 0.0
H126 H 0.45191 0.93225 0.29298 0.0
H127 H 0.30357 0.79241 0.15733 0.0
H128 H 0.20674 0.68829 0.15393 0.0
C129 C 0.42837 0.19952 0.73485 0.0
C130 C 0.41131 0.26487 0.71512 0.0
C131 C 0.40159 0.2116 0.59847 0.0
C132 C 0.41112 0.14169 0.61858 0.0
N133 N 0.41294 0.05715 0.70644 0.0
N134 N 0.36092 0.31986 0.62984 0.0
C135 C 0.41816 0.13195 0.68701 0.0
C136 C 0.39149 0.26682 0.64738 0.0
N137 N 0.45926 0.20458 0.79818 0.0
N138 N 0.40723 0.22873 0.53318 0.0
H139 H 0.3505 0.35967 0.66447 0.0
H140 H 0.33727 0.31748 0.58193 0.0
H141 H 0.41757 0.19198 0.49572 0.0
H142 H 0.41048 0.28482 0.51704 0.0
H143 H 0.48193 0.16422 0.81295 0.0
H144 H 0.47057 0.25448 0.83447 0.0
H145 H 0.40876 0.04265 0.75584 0.0
H146 H 0.40362 0.00529 0.67287 0.0
loop_
_geom_bond_atom_site_label_1
_geom_bond_atom_site_label_2
_geom_bond_distance
_geom_bond_site_symmetry_2
_ccdc_geom_bond_type
C0 O1 1.160 . S
C0 O7 1.185 . S
O1 C0 1.160 . S
O2 Zn3 1.899 1_655 S
O2 C10 1.284 . S
Zn3 O2 1.899 1_455 S
Zn3 O4 2.032 . S
Zn3 O7 2.086 . S
Zn3 O12 1.977 1_455 S
O4 Zn3 2.032 . S
O4 C8 1.278 . S
C5 O6 1.203 . S
C5 O12 1.267 . S
O6 C5 1.203 . S
O7 C0 1.185 . S
O7 Zn3 2.086 . S
C8 O4 1.278 . S
C8 O9 1.211 . S
O9 C8 1.211 . S
C10 O2 1.284 . S
C10 O11 1.273 . S
O11 C10 1.273 . S
O12 Zn3 1.977 1_655 S
O12 C5 1.267 . S
C13 O14 1.160 . S
C13 O20 1.185 . S
O14 C13 1.160 . S
O15 Zn16 1.899 . S
O15 C23 1.284 . S
Zn16 O15 1.899 . S
Zn16 O17 2.032 1_545 S
Zn16 O20 2.086 1_545 S
Zn16 O25 1.977 . S
O17 Zn16 2.032 1_565 S
O17 C21 1.278 . S
C18 O19 1.203 . S
C18 O25 1.267 . S
O19 C18 1.203 . S
O20 C13 1.185 . S
O20 Zn16 2.086 1_565 S
C21 O17 1.278 . S
C21 O22 1.211 . S
O22 C21 1.211 . S
C23 O15 1.284 . S
C23 O24 1.273 . S
O24 C23 1.273 . S
O25 Zn16 1.977 . S
O25 C18 1.267 . S
C26 O27 1.160 . S
C26 O33 1.185 . S
O27 C26 1.160 . S
O28 Zn29 1.899 . S
O28 C36 1.284 . S
Zn29 O28 1.899 . S
Zn29 O30 2.032 . S
Zn29 O33 2.086 . S
Zn29 O38 1.977 . S
O30 Zn29 2.032 . S
O30 C34 1.278 . S
C31 O32 1.203 . S
C31 O38 1.267 . S
O32 C31 1.203 . S
O33 C26 1.185 . S
O33 Zn29 2.086 . S
C34 O30 1.278 . S
C34 O35 1.211 . S
O35 C34 1.211 . S
C36 O28 1.284 . S
C36 O37 1.273 . S
O37 C36 1.273 . S
O38 Zn29 1.977 . S
O38 C31 1.267 . S
C39 C40 1.375 . S
C39 C45 1.369 1_556 S
C39 N47 1.359 . S
C40 C39 1.375 . S
C40 C46 1.363 . S
C41 C42 1.363 1_556 S
C41 C46 1.379 . S
C41 N48 1.356 . S
C42 C41 1.363 1_554 S
C42 C45 1.363 . S
N43 C45 1.356 . S
N43 H55 0.984 . S
N43 H56 0.985 . S
N44 C46 1.356 . S
N44 H49 0.984 . S
N44 H50 0.985 . S
C45 C39 1.369 1_554 S
C45 C42 1.363 . S
C45 N43 1.356 . S
C46 C40 1.363 . S
C46 C41 1.379 . S
C46 N44 1.356 . S
N47 C39 1.359 . S
N47 H53 0.984 1_556 S
N47 H54 0.984 . S
N48 C41 1.356 . S
N48 H51 0.984 1_556 S
N48 H52 0.985 . S
H49 N44 0.984 . S
H50 N44 0.985 . S
H51 N48 0.984 1_554 S
H52 N48 0.985 . S
H53 N47 0.984 1_554 S
H54 N47 0.984 . S
H55 N43 0.984 . S
H56 N43 0.985 . S
C57 C58 1.363 . S
C57 C63 1.379 . S
C57 N65 1.356 . S
C58 C57 1.363 . S
C58 C64 1.363 . S
C59 C60 1.363 . S
C59 C64 1.379 . S
C59 N66 1.356 . S
C60 C59 1.363 . S
C60 C63 1.363 . S
N61 C63 1.356 . S
N61 H73 0.984 . S
N61 H74 0.985 . S
N62 C64 1.356 . S
N62 H67 0.984 . S
N62 H68 0.985 . S
C63 C57 1.379 . S
C63 C60 1.363 . S
C63 N61 1.356 . S
C64 C58 1.363 . S
C64 C59 1.379 . S
C64 N62 1.356 . S
N65 C57 1.356 . S
N65 H71 0.984 . S
N65 H72 0.984 . S
N66 C59 1.356 . S
N66 H69 0.984 . S
N66 H70 0.985 . S
H67 N62 0.984 . S
H68 N62 0.985 . S
H69 N66 0.984 . S
H70 N66 0.985 . S
H71 N65 0.984 . S
H72 N65 0.984 . S
H73 N61 0.984 . S
H74 N61 0.985 . S
C75 C76 1.363 . S
C75 C81 1.379 . S
C75 N83 1.356 . S
C76 C75 1.363 . S
C76 C82 1.363 . S
C77 C78 1.363 . S
C77 C82 1.379 . S
C77 N84 1.356 . S
C78 C77 1.363 . S
C78 C81 1.363 . S
N79 C81 1.356 . S
N79 H91 0.984 . S
N79 H92 0.985 . S
N80 C82 1.356 . S
N80 H85 0.984 . S
N80 H86 0.985 1_565 S
C81 C75 1.379 . S
C81 C78 1.363 . S
C81 N79 1.356 . S
C82 C76 1.363 . S
C82 C77 1.379 . S
C82 N80 1.356 . S
N83 C75 1.356 . S
N83 H89 0.984 . S
N83 H90 0.984 . S
N84 C77 1.356 . S
N84 H87 0.984 . S
N84 H88 0.985 . S
H85 N80 0.984 . S
H86 N80 0.985 1_545 S
H87 N84 0.984 . S
H88 N84 0.985 . S
H89 N83 0.984 . S
H90 N83 0.984 . S
H91 N79 0.984 . S
H92 N79 0.985 . S
C93 C94 1.363 1_554 S
C93 C99 1.379 . S
C93 N101 1.356 1_554 S
C94 C93 1.363 1_556 S
C94 C100 1.363 . S
C95 C96 1.363 . S
C95 C100 1.379 1_554 S
C95 N102 1.356 . S
C96 C95 1.363 . S
C96 C99 1.363 . S
N97 C99 1.356 . S
N97 H109 0.984 . S
N97 H110 0.985 . S
N98 C100 1.356 . S
N98 H103 0.984 . S
N98 H104 0.985 . S
C99 C93 1.379 . S
C99 C96 1.363 . S
C99 N97 1.356 . S
C100 C94 1.363 . S
C100 C95 1.379 1_556 S
C100 N98 1.356 . S
N101 C93 1.356 1_556 S
N101 H107 0.984 1_556 S
N101 H108 0.984 . S
N102 C95 1.356 . S
N102 H105 0.984 . S
N102 H106 0.985 1_655 S
H103 N98 0.984 . S
H104 N98 0.985 . S
H105 N102 0.984 . S
H106 N102 0.985 1_455 S
H107 N101 0.984 1_554 S
H108 N101 0.984 . S
H109 N97 0.984 . S
H110 N97 0.985 . S
C111 C112 1.363 . S
C111 C117 1.379 . S
C111 N119 1.356 . S
C112 C111 1.363 . S
C112 C118 1.363 . S
C113 C114 1.363 . S
C113 C118 1.379 . S
C113 N120 1.356 . S
C114 C113 1.363 . S
C114 C117 1.363 . S
N115 C117 1.356 . S
N115 H127 0.984 . S
N115 H128 0.985 . S
N116 C118 1.356 . S
N116 H121 0.984 . S
N116 H122 0.985 . S
C117 C111 1.379 . S
C117 C114 1.363 . S
C117 N115 1.356 . S
C118 C112 1.363 . S
C118 C113 1.379 . S
C118 N116 1.356 . S
N119 C111 1.356 . S
N119 H125 0.984 . S
N119 H126 0.984 . S
N120 C113 1.356 . S
N120 H123 0.984 . S
N120 H124 0.985 . S
H121 N116 0.984 . S
H122 N116 0.985 . S
H123 N120 0.984 . S
H124 N120 0.985 . S
H125 N119 0.984 . S
H126 N119 0.984 . S
H127 N115 0.984 . S
H128 N115 0.985 . S
C129 C130 1.363 . S
C129 C135 1.379 . S
C129 N137 1.356 . S
C130 C129 1.363 . S
C130 C136 1.363 . S
C131 C132 1.363 . S
C131 C136 1.379 . S
C131 N138 1.356 . S
C132 C131 1.363 . S
C132 C135 1.363 . S
N133 C135 1.356 . S
N133 H145 0.984 . S
N133 H146 0.985 . S
N134 C136 1.356 . S
N134 H139 0.984 . S
N134 H140 0.985 . S
C135 C129 1.379 . S
C135 C132 1.363 . S
C135 N133 1.356 . S
C136 C130 1.363 . S
C136 C131 1.379 . S
C136 N134 1.356 . S
N137 C129 1.356 . S
N137 H143 0.984 . S
N137 H144 0.984 . S
N138 C131 1.356 . S
N138 H141 0.984 . S
N138 H142 0.985 . S
H139 N134 0.984 . S
H140 N134 0.985 . S
H141 N138 0.984 . S
H142 N138 0.985 . S
H143 N137 0.984 . S
H144 N137 0.984 . S
H145 N133 0.984 . S
H146 N133 0.985 . S
C40 C34 1.330 . S
C42 C0 1.325 . S
C58 C5 1.385 . S
C60 C18 1.386 . S
C76 C13 1.337 . S
C78 C26 1.331 . S
C94 C31 1.341 . S
C96 C10 1.392 . S
C112 C21 1.321 . S
C114 C8 1.327 . S
C130 C36 1.358 . S
C132 C23 1.358 . S
