# Generated by pormake.
# Topology rac, (4)-cn, num edge types: 1
# Building blocks:
#     Node 0, Type 0, BuildingBlock: CEKHIL_clean_sbu_0, # of connection points: 4
#     Node 1, Type 0, BuildingBlock: CEKHIL_clean_sbu_0, # of connection points: 4
#     Node 2, Type 0, BuildingBlock: CEKHIL_clean_sbu_0, # of connection points: 4
#     Node 3, Type 0, BuildingBlock: CEKHIL_clean_sbu_0, # of connection points: 4
#     Node 4, Type 0, BuildingBlock: CEKHIL_clean_sbu_0, # of connection points: 4
#     Node 5, Type 0, BuildingBlock: CEKHIL_clean_sbu_0, # of connection points: 4
#     Node 6, Type 0, BuildingBlock: CEKHIL_clean_sbu_0, # of connection points: 4
#     Node 7, Type 0, BuildingBlock: CEKHIL_clean_sbu_0, # of connection points: 4
#     Edge 8, Type (0, 0), BuildingBlock: EYOCIG_clean_linker_4, # of connection points: 2
#     Edge 9, Type (0, 0), BuildingBlock: EYOCIG_clean_linker_4, # of connection points: 2
#     Edge 10, Type (0, 0), BuildingBlock: EYOCIG_clean_linker_4, # of connection points: 2
#     Edge 11, Type (0, 0), BuildingBlock: EYOCIG_clean_linker_4, # of connection points: 2
#     Edge 12, Type (0, 0), BuildingBlock: EYOCIG_clean_linker_4, # of connection points: 2
#     Edge 13, Type (0, 0), BuildingBlock: EYOCIG_clean_linker_4, # of connection points: 2
#     Edge 14, Type (0, 0), BuildingBlock: EYOCIG_clean_linker_4, # of connection points: 2
#     Edge 15, Type (0, 0), BuildingBlock: EYOCIG_clean_linker_4, # of connection points: 2
#     Edge 16, Type (0, 0), BuildingBlock: EYOCIG_clean_linker_4, # of connection points: 2
#     Edge 17, Type (0, 0), BuildingBlock: EYOCIG_clean_linker_4, # of connection points: 2
#     Edge 18, Type (0, 0), BuildingBlock: EYOCIG_clean_linker_4, # of connection points: 2
#     Edge 19, Type (0, 0), BuildingBlock: EYOCIG_clean_linker_4, # of connection points: 2
#     Edge 20, Type (0, 0), BuildingBlock: EYOCIG_clean_linker_4, # of connection points: 2
#     Edge 21, Type (0, 0), BuildingBlock: EYOCIG_clean_linker_4, # of connection points: 2
#     Edge 22, Type (0, 0), BuildingBlock: EYOCIG_clean_linker_4, # of connection points: 2
#     Edge 23, Type (0, 0), BuildingBlock: EYOCIG_clean_linker_4, # of connection points: 2
# Relax obj value: 0.222
# Max RMSD: 0.072
# Mean RMSD: 0.072
data_MOF--net-rac--node1-CEKHIL_clean_sbu_0--edge1-EYOCIG_clean_linker_4
_symmetry_space_group_name_H-M    P1
_symmetry_Int_Tables_number       1
_symmetry_cell_setting            triclinic
loop_
_symmetry_equiv_pos_as_xyz
'x, y, z'
_cell_length_a     32.57142
_cell_length_b     16.70571
_cell_length_c     28.04235
_cell_angle_alpha  90.00096
_cell_angle_beta   89.979042
_cell_angle_gamma 90.009602
loop_
_atom_site_label
_atom_site_type_symbol
_atom_site_fract_x
_atom_site_fract_y
_atom_site_fract_z
_atom_type_partial_charge
Co0 Co 0.38085 0.29786 0.05255 0.0
O1 O 0.41489 0.39105 0.05978 0.0
O2 O 0.42575 0.29823 0.00536 0.0
C3 C 0.37942 0.2721 0.1312 0.0
O4 O 0.34816 0.19369 0.03777 0.0
Co5 Co 0.29503 0.3109 0.10272 0.0
O6 O 0.28981 0.1987 0.08199 0.0
C7 C 0.30986 0.38782 0.00941 0.0
C8 C 0.43653 0.36647 0.02441 0.0
C9 C 0.31348 0.16378 0.0525 0.0
O10 O 0.34555 0.35677 0.00616 0.0
O11 O 0.28678 0.38261 0.0462 0.0
O12 O 0.40941 0.2453 0.10533 0.0
O13 O 0.35359 0.31789 0.10985 0.0
Co14 Co 0.13321 0.71317 0.05273 0.0
O15 O 0.09897 0.62029 0.06007 0.0
O16 O 0.08827 0.71316 0.00564 0.0
C17 C 0.13479 0.73899 0.13137 0.0
O18 O 0.16612 0.81705 0.03787 0.0
Co19 Co 0.21906 0.69938 0.10268 0.0
O20 O 0.22451 0.81155 0.08194 0.0
C21 C 0.20391 0.62241 0.00947 0.0
C22 C 0.07736 0.64502 0.02473 0.0
C23 C 0.20088 0.84668 0.05252 0.0
O24 O 0.16832 0.6539 0.00628 0.0
O25 O 0.22703 0.62741 0.04621 0.0
O26 O 0.10483 0.76603 0.10557 0.0
O27 O 0.1605 0.69295 0.10998 0.0
Co28 Co 0.38095 0.21288 0.44655 0.0
O29 O 0.41514 0.11993 0.43933 0.0
O30 O 0.42601 0.21315 0.4935 0.0
C31 C 0.37925 0.23813 0.36785 0.0
O32 O 0.3481 0.3169 0.46125 0.0
Co33 Co 0.29501 0.19881 0.3969 0.0
O34 O 0.28962 0.31113 0.41734 0.0
C35 C 0.31034 0.12237 0.49022 0.0
C36 C 0.43685 0.14488 0.47453 0.0
C37 C 0.31332 0.34646 0.44662 0.0
O38 O 0.34593 0.15393 0.49326 0.0
O39 O 0.28714 0.12713 0.45353 0.0
O40 O 0.40924 0.26535 0.39353 0.0
O41 O 0.35355 0.19225 0.38941 0.0
Co42 Co 0.13372 0.79842 0.44672 0.0
O43 O 0.09972 0.89167 0.4396 0.0
O44 O 0.08871 0.79851 0.49377 0.0
C45 C 0.13526 0.77319 0.36801 0.0
O46 O 0.16635 0.69412 0.46134 0.0
Co47 Co 0.21962 0.81171 0.39682 0.0
O48 O 0.22478 0.69936 0.41726 0.0
C49 C 0.20465 0.88809 0.49026 0.0
C50 C 0.07798 0.86686 0.47483 0.0
C51 C 0.20104 0.66426 0.44662 0.0
O52 O 0.16894 0.85703 0.49335 0.0
O53 O 0.22779 0.88309 0.45352 0.0
O54 O 0.10524 0.74621 0.39377 0.0
O55 O 0.16109 0.81883 0.38951 0.0
Co56 Co 0.63348 0.7129 0.94628 0.0
O57 O 0.59943 0.61974 0.93898 0.0
O58 O 0.58826 0.713 0.99305 0.0
C59 C 0.63546 0.73814 0.86758 0.0
O60 O 0.66612 0.81713 0.96104 0.0
Co61 Co 0.71963 0.69924 0.89696 0.0
O62 O 0.72474 0.81165 0.91733 0.0
C63 C 0.70409 0.62299 0.99031 0.0
C64 C 0.57756 0.64465 0.97408 0.0
C65 C 0.70089 0.84687 0.9465 0.0
O66 O 0.66842 0.65424 0.99316 0.0
O67 O 0.72741 0.62783 0.95372 0.0
O68 O 0.60531 0.76515 0.89311 0.0
O69 O 0.66112 0.6924 0.88926 0.0
Co70 Co 0.88026 0.29911 0.94648 0.0
O71 O 0.91434 0.39225 0.93924 0.0
O72 O 0.92537 0.299 0.99335 0.0
C73 C 0.87848 0.27384 0.86778 0.0
O74 O 0.84757 0.19491 0.96118 0.0
Co75 Co 0.79424 0.31277 0.89695 0.0
O76 O 0.78905 0.20038 0.91734 0.0
C77 C 0.80954 0.38903 0.99034 0.0
C78 C 0.93612 0.36734 0.9744 0.0
C79 C 0.81283 0.16516 0.94657 0.0
O80 O 0.84521 0.3578 0.99327 0.0
O81 O 0.7863 0.38416 0.95369 0.0
O82 O 0.90855 0.24681 0.8934 0.0
O83 O 0.85276 0.3196 0.88938 0.0
Co84 Co 0.63401 0.79895 0.55233 0.0
O85 O 0.59995 0.89207 0.55967 0.0
O86 O 0.58888 0.79897 0.50548 0.0
C87 C 0.63583 0.77348 0.631 0.0
O88 O 0.66669 0.69479 0.53751 0.0
Co89 Co 0.72006 0.81255 0.60182 0.0
O90 O 0.72522 0.70021 0.58134 0.0
C91 C 0.70472 0.889 0.5085 0.0
C92 C 0.57815 0.86726 0.52451 0.0
C93 C 0.70144 0.66504 0.55209 0.0
O94 O 0.66905 0.85776 0.50557 0.0
O95 O 0.72798 0.88406 0.54513 0.0
O96 O 0.60573 0.74652 0.60538 0.0
O97 O 0.66153 0.81931 0.60943 0.0
Co98 Co 0.88084 0.21308 0.55252 0.0
O99 O 0.91487 0.11994 0.55991 0.0
O100 O 0.92606 0.21307 0.50576 0.0
C101 C 0.87886 0.23851 0.6312 0.0
O102 O 0.8482 0.31726 0.53767 0.0
Co103 Co 0.79469 0.19952 0.60186 0.0
O104 O 0.78958 0.31187 0.58139 0.0
C105 C 0.81019 0.12312 0.50855 0.0
C106 C 0.93675 0.14476 0.52479 0.0
C107 C 0.81343 0.34703 0.55219 0.0
O108 O 0.84588 0.15431 0.50569 0.0
O109 O 0.78687 0.12806 0.54514 0.0
O110 O 0.90901 0.26547 0.60564 0.0
O111 O 0.8532 0.19271 0.60956 0.0
C112 C 0.273 0.03501 0.02679 0.0
C113 C 0.29681 0.08996 0.03354 0.0
C114 C 0.24151 0.97532 0.02681 0.0
C115 C 0.21766 0.92044 0.03359 0.0
C116 C 0.24141 0.53521 0.47209 0.0
C117 C 0.21765 0.59027 0.46542 0.0
C118 C 0.27282 0.4754 0.47207 0.0
C119 C 0.29662 0.42041 0.46538 0.0
C120 C 0.74114 0.97608 0.97198 0.0
C121 C 0.71743 0.92095 0.96527 0.0
C122 C 0.77251 0.036 0.972 0.0
C123 C 0.79624 0.09111 0.96532 0.0
C124 C 0.74177 0.53597 0.52658 0.0
C125 C 0.71802 0.59103 0.53329 0.0
C126 C 0.77316 0.47611 0.52661 0.0
C127 C 0.79689 0.42105 0.53335 0.0
C128 C 0.37759 0.25684 0.22448 0.0
C129 C 0.37889 0.2632 0.18183 0.0
C130 C 0.37749 0.25266 0.27453 0.0
C131 C 0.37867 0.24652 0.31719 0.0
C132 C 0.1369 0.75858 0.27469 0.0
C133 C 0.13578 0.76476 0.31735 0.0
C134 C 0.13675 0.75436 0.22464 0.0
C135 C 0.13541 0.74794 0.182 0.0
C136 C 0.63778 0.75345 0.77431 0.0
C137 C 0.63637 0.74692 0.81695 0.0
C138 C 0.63787 0.75806 0.72427 0.0
C139 C 0.63659 0.76465 0.68164 0.0
C140 C 0.87655 0.25396 0.72446 0.0
C141 C 0.87796 0.24738 0.68183 0.0
C142 C 0.87645 0.25857 0.7745 0.0
C143 C 0.87772 0.26508 0.81714 0.0
C144 C 0.49362 0.47189 0.0012 0.0
C145 C 0.46928 0.41767 0.00729 0.0
C146 C 0.52026 0.53952 0.99704 0.0
C147 C 0.54466 0.59365 0.99103 0.0
C148 C 0.02012 0.53992 0.00157 0.0
C149 C 0.04454 0.59402 0.00763 0.0
C150 C 0.99343 0.47239 0.99743 0.0
C151 C 0.969 0.41829 0.99139 0.0
C152 C 0.52086 0.97239 0.50162 0.0
C153 C 0.54527 0.91827 0.50758 0.0
C154 C 0.49418 0.03994 0.49755 0.0
C155 C 0.46975 0.09402 0.49156 0.0
C156 C 0.99408 0.03963 0.50196 0.0
C157 C 0.96966 0.09375 0.50791 0.0
C158 C 0.02075 0.97205 0.49789 0.0
C159 C 0.04514 0.91789 0.49187 0.0
C160 C 0.2411 0.53334 0.94839 0.0
C161 C 0.21878 0.5765 0.97041 0.0
C162 C 0.27239 0.4765 0.94837 0.0
C163 C 0.29483 0.43354 0.97036 0.0
C164 C 0.27328 0.03346 0.55149 0.0
C165 C 0.29557 0.07661 0.5294 0.0
C166 C 0.242 0.97656 0.5515 0.0
C167 C 0.2196 0.93365 0.52942 0.0
C168 C 0.7411 0.53441 0.05174 0.0
C169 C 0.7188 0.5774 0.02958 0.0
C170 C 0.77239 0.47755 0.05173 0.0
C171 C 0.79473 0.43459 0.02959 0.0
C172 C 0.74186 0.97763 0.44715 0.0
C173 C 0.71952 0.93463 0.46928 0.0
C174 C 0.77315 0.03451 0.44715 0.0
C175 C 0.79546 0.0775 0.4693 0.0
loop_
_geom_bond_atom_site_label_1
_geom_bond_atom_site_label_2
_geom_bond_distance
_geom_bond_site_symmetry_2
_ccdc_geom_bond_type
Co0 O1 2.216 . S
Co0 O2 2.091 1_554 S
Co0 O4 2.004 . S
Co0 O10 2.021 . S
Co0 O12 2.137 . S
Co0 O13 2.244 . S
O1 Co0 2.216 . S
O1 C8 1.247 . S
O2 Co0 2.091 1_556 S
O2 C8 1.261 1_556 S
C3 O12 1.247 . S
C3 O13 1.272 . S
O4 Co0 2.004 . S
O4 C9 1.259 . S
Co5 O6 2.061 . S
Co5 O11 2.052 . S
Co5 O13 2.135 . S
O6 Co5 2.061 . S
O6 C9 1.235 . S
C7 O10 1.238 . S
C7 O11 1.241 . S
C8 O1 1.247 . S
C8 O2 1.261 1_554 S
C9 O4 1.259 . S
C9 O6 1.235 . S
O10 Co0 2.021 . S
O10 C7 1.238 . S
O11 Co5 2.052 . S
O11 C7 1.241 . S
O12 Co0 2.137 . S
O12 C3 1.247 . S
O13 Co0 2.244 . S
O13 C3 1.272 . S
O13 Co5 2.135 . S
Co14 O15 2.216 . S
Co14 O16 2.091 1_554 S
Co14 O18 2.004 . S
Co14 O24 2.021 . S
Co14 O26 2.137 . S
Co14 O27 2.244 . S
O15 Co14 2.216 . S
O15 C22 1.247 . S
O16 Co14 2.091 1_556 S
O16 C22 1.261 1_556 S
C17 O26 1.247 . S
C17 O27 1.272 . S
O18 Co14 2.004 . S
O18 C23 1.259 . S
Co19 O20 2.061 . S
Co19 O25 2.052 . S
Co19 O27 2.135 . S
O20 Co19 2.061 . S
O20 C23 1.235 . S
C21 O24 1.238 . S
C21 O25 1.241 . S
C22 O15 1.247 . S
C22 O16 1.261 1_554 S
C23 O18 1.259 . S
C23 O20 1.235 . S
O24 Co14 2.021 . S
O24 C21 1.238 . S
O25 Co19 2.052 . S
O25 C21 1.241 . S
O26 Co14 2.137 . S
O26 C17 1.247 . S
O27 Co14 2.244 . S
O27 C17 1.272 . S
O27 Co19 2.135 . S
Co28 O29 2.216 . S
Co28 O30 2.091 . S
Co28 O32 2.004 . S
Co28 O38 2.021 . S
Co28 O40 2.137 . S
Co28 O41 2.244 . S
O29 Co28 2.216 . S
O29 C36 1.247 . S
O30 Co28 2.091 . S
O30 C36 1.261 . S
C31 O40 1.247 . S
C31 O41 1.272 . S
O32 Co28 2.004 . S
O32 C37 1.259 . S
Co33 O34 2.061 . S
Co33 O39 2.052 . S
Co33 O41 2.135 . S
O34 Co33 2.061 . S
O34 C37 1.235 . S
C35 O38 1.238 . S
C35 O39 1.241 . S
C36 O29 1.247 . S
C36 O30 1.261 . S
C37 O32 1.259 . S
C37 O34 1.235 . S
O38 Co28 2.021 . S
O38 C35 1.238 . S
O39 Co33 2.052 . S
O39 C35 1.241 . S
O40 Co28 2.137 . S
O40 C31 1.247 . S
O41 Co28 2.244 . S
O41 C31 1.272 . S
O41 Co33 2.135 . S
Co42 O43 2.216 . S
Co42 O44 2.091 . S
Co42 O46 2.004 . S
Co42 O52 2.021 . S
Co42 O54 2.137 . S
Co42 O55 2.244 . S
O43 Co42 2.216 . S
O43 C50 1.247 . S
O44 Co42 2.091 . S
O44 C50 1.261 . S
C45 O54 1.247 . S
C45 O55 1.272 . S
O46 Co42 2.004 . S
O46 C51 1.259 . S
Co47 O48 2.061 . S
Co47 O53 2.052 . S
Co47 O55 2.135 . S
O48 Co47 2.061 . S
O48 C51 1.235 . S
C49 O52 1.238 . S
C49 O53 1.241 . S
C50 O43 1.247 . S
C50 O44 1.261 . S
C51 O46 1.259 . S
C51 O48 1.235 . S
O52 Co42 2.021 . S
O52 C49 1.238 . S
O53 Co47 2.052 . S
O53 C49 1.241 . S
O54 Co42 2.137 . S
O54 C45 1.247 . S
O55 Co42 2.244 . S
O55 C45 1.272 . S
O55 Co47 2.135 . S
Co56 O57 2.216 . S
Co56 O58 2.091 1_556 S
Co56 O60 2.004 . S
Co56 O66 2.021 . S
Co56 O68 2.137 . S
Co56 O69 2.244 . S
O57 Co56 2.216 . S
O57 C64 1.247 . S
O58 Co56 2.091 1_554 S
O58 C64 1.261 1_554 S
C59 O68 1.247 . S
C59 O69 1.272 . S
O60 Co56 2.004 . S
O60 C65 1.259 . S
Co61 O62 2.061 . S
Co61 O67 2.052 . S
Co61 O69 2.135 . S
O62 Co61 2.061 . S
O62 C65 1.235 . S
C63 O66 1.238 . S
C63 O67 1.241 . S
C64 O57 1.247 . S
C64 O58 1.261 1_556 S
C65 O60 1.259 . S
C65 O62 1.235 . S
O66 Co56 2.021 . S
O66 C63 1.238 . S
O67 Co61 2.052 . S
O67 C63 1.241 . S
O68 Co56 2.137 . S
O68 C59 1.247 . S
O69 Co56 2.244 . S
O69 C59 1.272 . S
O69 Co61 2.135 . S
Co70 O71 2.216 . S
Co70 O72 2.091 1_556 S
Co70 O74 2.004 . S
Co70 O80 2.021 . S
Co70 O82 2.137 . S
Co70 O83 2.244 . S
O71 Co70 2.216 . S
O71 C78 1.247 . S
O72 Co70 2.091 1_554 S
O72 C78 1.261 1_554 S
C73 O82 1.247 . S
C73 O83 1.272 . S
O74 Co70 2.004 . S
O74 C79 1.259 . S
Co75 O76 2.061 . S
Co75 O81 2.052 . S
Co75 O83 2.135 . S
O76 Co75 2.061 . S
O76 C79 1.235 . S
C77 O80 1.238 . S
C77 O81 1.241 . S
C78 O71 1.247 . S
C78 O72 1.261 1_556 S
C79 O74 1.259 . S
C79 O76 1.235 . S
O80 Co70 2.021 . S
O80 C77 1.238 . S
O81 Co75 2.052 . S
O81 C77 1.241 . S
O82 Co70 2.137 . S
O82 C73 1.247 . S
O83 Co70 2.244 . S
O83 C73 1.272 . S
O83 Co75 2.135 . S
Co84 O85 2.216 . S
Co84 O86 2.091 . S
Co84 O88 2.004 . S
Co84 O94 2.021 . S
Co84 O96 2.137 . S
Co84 O97 2.244 . S
O85 Co84 2.216 . S
O85 C92 1.247 . S
O86 Co84 2.091 . S
O86 C92 1.261 . S
C87 O96 1.247 . S
C87 O97 1.272 . S
O88 Co84 2.004 . S
O88 C93 1.259 . S
Co89 O90 2.061 . S
Co89 O95 2.052 . S
Co89 O97 2.135 . S
O90 Co89 2.061 . S
O90 C93 1.235 . S
C91 O94 1.238 . S
C91 O95 1.241 . S
C92 O85 1.247 . S
C92 O86 1.261 . S
C93 O88 1.259 . S
C93 O90 1.235 . S
O94 Co84 2.021 . S
O94 C91 1.238 . S
O95 Co89 2.052 . S
O95 C91 1.241 . S
O96 Co84 2.137 . S
O96 C87 1.247 . S
O97 Co84 2.244 . S
O97 C87 1.272 . S
O97 Co89 2.135 . S
Co98 O99 2.216 . S
Co98 O100 2.091 . S
Co98 O102 2.004 . S
Co98 O108 2.021 . S
Co98 O110 2.137 . S
Co98 O111 2.244 . S
O99 Co98 2.216 . S
O99 C106 1.247 . S
O100 Co98 2.091 . S
O100 C106 1.261 . S
C101 O110 1.247 . S
C101 O111 1.272 . S
O102 Co98 2.004 . S
O102 C107 1.259 . S
Co103 O104 2.061 . S
Co103 O109 2.052 . S
Co103 O111 2.135 . S
O104 Co103 2.061 . S
O104 C107 1.235 . S
C105 O108 1.238 . S
C105 O109 1.241 . S
C106 O99 1.247 . S
C106 O100 1.261 . S
C107 O102 1.259 . S
C107 O104 1.235 . S
O108 Co98 2.021 . S
O108 C105 1.238 . S
O109 Co103 2.052 . S
O109 C105 1.241 . S
O110 Co98 2.137 . S
O110 C101 1.247 . S
O111 Co98 2.244 . S
O111 C101 1.272 . S
O111 Co103 2.135 . S
C112 C113 1.170 . S
C112 C114 1.380 1_545 S
C113 C112 1.170 . S
C114 C112 1.380 1_565 S
C114 C115 1.170 . S
C115 C114 1.170 . S
C116 C117 1.170 . S
C116 C118 1.380 . S
C117 C116 1.170 . S
C118 C116 1.380 . S
C118 C119 1.170 . S
C119 C118 1.170 . S
C120 C121 1.170 . S
C120 C122 1.380 1_565 S
C121 C120 1.170 . S
C122 C120 1.380 1_545 S
C122 C123 1.170 . S
C123 C122 1.170 . S
C124 C125 1.170 . S
C124 C126 1.380 . S
C125 C124 1.170 . S
C126 C124 1.380 . S
C126 C127 1.170 . S
C127 C126 1.170 . S
C128 C129 1.170 . S
C128 C130 1.380 . S
C129 C128 1.170 . S
C130 C128 1.380 . S
C130 C131 1.170 . S
C131 C130 1.170 . S
C132 C133 1.170 . S
C132 C134 1.380 . S
C133 C132 1.170 . S
C134 C132 1.380 . S
C134 C135 1.170 . S
C135 C134 1.170 . S
C136 C137 1.170 . S
C136 C138 1.380 . S
C137 C136 1.170 . S
C138 C136 1.380 . S
C138 C139 1.170 . S
C139 C138 1.170 . S
C140 C141 1.170 . S
C140 C142 1.380 . S
C141 C140 1.170 . S
C142 C140 1.380 . S
C142 C143 1.170 . S
C143 C142 1.170 . S
C144 C145 1.170 . S
C144 C146 1.380 . S
C145 C144 1.170 . S
C146 C144 1.380 . S
C146 C147 1.170 . S
C147 C146 1.170 . S
C148 C149 1.170 . S
C148 C150 1.381 1_455 S
C149 C148 1.170 . S
C150 C148 1.381 1_655 S
C150 C151 1.169 1_556 S
C151 C150 1.169 1_554 S
C152 C153 1.170 . S
C152 C154 1.380 1_565 S
C153 C152 1.170 . S
C154 C152 1.380 1_545 S
C154 C155 1.170 . S
C155 C154 1.170 . S
C156 C157 1.170 . S
C156 C158 1.380 1_645 S
C157 C156 1.170 . S
C158 C156 1.380 1_465 S
C158 C159 1.170 . S
C159 C158 1.170 . S
C160 C161 1.170 . S
C160 C162 1.380 . S
C161 C160 1.170 . S
C162 C160 1.380 . S
C162 C163 1.170 . S
C163 C162 1.170 . S
C164 C165 1.170 . S
C164 C166 1.380 1_545 S
C165 C164 1.170 . S
C166 C164 1.380 1_565 S
C166 C167 1.170 . S
C167 C166 1.170 . S
C168 C169 1.170 . S
C168 C170 1.380 . S
C169 C168 1.170 . S
C170 C168 1.380 . S
C170 C171 1.170 . S
C171 C170 1.170 . S
C172 C173 1.170 . S
C172 C174 1.380 1_565 S
C173 C172 1.170 . S
C174 C172 1.380 1_545 S
C174 C175 1.170 . S
C175 C174 1.170 . S
C113 C9 1.560 . S
C115 C23 1.539 . S
C117 C51 1.538 . S
C119 C37 1.518 . S
C121 C65 1.564 . S
C123 C79 1.522 . S
C125 C93 1.552 . S
C127 C107 1.549 . S
C129 C3 1.656 . S
C131 C31 1.673 . S
C133 C45 1.657 . S
C135 C17 1.673 . S
C137 C59 1.653 . S
C139 C87 1.668 . S
C141 C101 1.660 . S
C143 C73 1.652 . S
C145 C8 1.527 1_556 S
C147 C64 1.492 . S
C149 C22 1.529 1_556 S
C151 C78 1.495 1_554 S
C153 C92 1.500 . S
C155 C36 1.528 . S
C157 C106 1.498 . S
C159 C50 1.514 . S
C161 C21 1.108 . S
C163 C7 1.081 . S
C165 C35 1.138 . S
C167 C49 1.098 . S
C169 C63 1.088 . S
C171 C77 1.082 . S
C173 C91 1.134 . S
C175 C105 1.125 . S
