# Generated by pormake.
# Topology pcu, (6)-cn, num edge types: 1
# Building blocks:
#     Node 0, Type 0, BuildingBlock: KUMBOL_clean_sbu_0, # of connection points: 6
#     Edge 1, Type (0, 0), BuildingBlock: FUNLAD_clean_linker_0, # of connection points: 2
#     Edge 2, Type (0, 0), BuildingBlock: FUNLAD_clean_linker_0, # of connection points: 2
#     Edge 3, Type (0, 0), BuildingBlock: FUNLAD_clean_linker_0, # of connection points: 2
# Relax obj value: 0.000
# Max RMSD: 0.000
# Mean RMSD: 0.000
data_MOF--net-pcu--node1-KUMBOL_clean_sbu_0--edge1-FUNLAD_clean_linker_0
_symmetry_space_group_name_H-M    P1
_symmetry_Int_Tables_number       1
_symmetry_cell_setting            triclinic
loop_
_symmetry_equiv_pos_as_xyz
'x, y, z'
_cell_length_a     26.883828
_cell_length_b     16.418765
_cell_length_c     17.791978
_cell_angle_alpha  74.219701
_cell_angle_beta   115.79198
_cell_angle_gamma 116.48754
loop_
_atom_site_label
_atom_site_type_symbol
_atom_site_fract_x
_atom_site_fract_y
_atom_site_fract_z
_atom_type_partial_charge
Gd0 Gd 0.10263 0.07988 0.03839 0.0
Gd1 Gd 0.93926 0.94895 0.96112 0.0
C2 C 0.85568 0.6474 0.91633 0.0
C3 C 0.80636 0.65353 0.76465 0.0
C4 C 0.86015 0.79306 0.83444 0.0
C5 C 0.8757 0.74339 0.91115 0.0
C6 C 0.82429 0.74865 0.76038 0.0
C7 C 0.82205 0.60297 0.84252 0.0
C8 C 0.86868 0.59881 -0.00435 0.0
C9 C 0.8991 0.64576 0.06718 0.0
N10 N 0.90784 0.78851 0.98112 0.0
C11 C 0.91774 0.74099 0.05874 0.0
H12 H 0.94144 0.77626 0.11462 0.0
C13 C 0.85799 0.9353 0.75978 0.0
N14 N 0.87782 0.8846 0.83277 0.0
C15 C 0.82267 0.89451 0.68454 0.0
C16 C 0.8063 0.8009 0.68465 0.0
H17 H 0.87082 1.00779 0.75924 0.0
H18 H 0.80678 0.52938 0.84517 0.0
H19 H 0.10058 0.2526 0.88489 0.0
H20 H 0.85429 0.52506 0.00235 0.0
H21 H 0.90845 0.60871 0.12887 0.0
H22 H 0.77922 0.61819 0.70838 0.0
H23 H 0.17094 0.02101 0.24033 0.0
H24 H 0.18781 0.50381 -0.00286 0.0
H25 H 0.13366 0.42015 0.87063 0.0
H26 H 0.26269 0.41065 0.29114 0.0
H27 H 0.80818 0.93527 0.62656 0.0
H28 H 0.77877 0.76939 0.62634 0.0
H29 H 0.23525 0.49948 0.15433 0.0
H30 H 0.23355 0.09352 0.37301 0.0
N31 N 0.13413 0.24034 0.01838 0.0
C32 C 0.17338 0.43005 0.00386 0.0
C33 C 0.14297 0.3831 0.93233 0.0
C34 C 0.18633 0.38146 0.08317 0.0
C35 C 0.16626 0.28546 0.08836 0.0
C36 C 0.12428 0.28786 0.94076 0.0
N37 N 0.16403 0.14423 0.16675 0.0
C38 C 0.18175 0.23577 0.16508 0.0
C39 C 0.2191 0.1343 0.31501 0.0
C40 C 0.23552 0.22791 0.31489 0.0
C41 C 0.1838 0.0935 0.23977 0.0
C42 C 0.2176 0.28018 0.23914 0.0
H43 H 0.26303 0.25942 0.3732 0.0
O44 O 0.17514 0.03416 0.07552 0.0
O45 O 0.02916 0.94608 0.00377 0.0
O46 O 0.98158 0.9425 0.10393 0.0
O47 O 0.06868 0.0735 0.13606 0.0
O48 O 0.10296 0.94202 0.10798 0.0
O49 O 0.15865 0.12903 0.96449 0.0
O50 O 0.86671 0.99457 0.92403 0.0
O51 O 1.01272 0.08264 -0.00441 0.0
O52 O 0.06033 0.08638 0.89557 0.0
O53 O 0.97316 0.95548 0.86334 0.0
O54 O 0.9389 0.08692 0.89166 0.0
O55 O 0.88329 0.89977 0.03509 0.0
C56 C 0.05159 0.89267 0.0592 0.0
C57 C 0.23557 0.37532 0.23486 0.0
C58 C 0.21994 0.42588 0.15698 0.0
C59 C 0.19316 0.08529 0.01503 0.0
C60 C 0.25776 0.13663 0.03844 0.0
C61 C 0.28563 0.22035 0.07281 0.0
C62 C 0.29208 0.10038 0.02689 0.0
C63 C 0.35425 0.14721 0.04943 0.0
C64 C 0.34723 0.26739 0.09522 0.0
C65 C 0.38142 0.2313 0.08367 0.0
C66 C 0.02431 1.00529 0.15547 0.0
C67 C 0.99034 0.13619 0.94035 0.0
C68 C 0.84873 0.94343 0.98454 0.0
C69 C 0.78413 0.892 0.96117 0.0
C70 C 0.75633 0.80821 0.92695 0.0
C71 C 0.74977 0.92825 0.97259 0.0
C72 C 0.6876 0.88134 0.95008 0.0
C73 C 0.69473 0.76109 0.90456 0.0
C74 C 0.66049 0.79718 0.91598 0.0
C75 C 1.01755 0.02368 0.84396 0.0
H76 H 0.25989 0.2492 0.08228 0.0
H77 H 0.27009 0.03607 -0.00057 0.0
H78 H 0.3686 0.33191 0.12194 0.0
H79 H 0.42921 0.26859 0.10264 0.0
H80 H 0.7821 0.77935 0.91757 0.0
H81 H 0.77171 0.99262 -5e-05 0.0
H82 H 0.6734 0.69651 0.87795 0.0
H83 H 0.61271 0.75983 0.89703 0.0
C84 C 0.0607 0.07049 0.29043 0.0
C85 C 0.02233 0.99861 0.2389 0.0
C86 C 0.05811 0.06503 0.3685 0.0
C87 C 1.01656 0.98773 0.39654 0.0
C88 C 0.97889 0.91546 0.34552 0.0
C89 C 0.98145 0.92093 0.26744 0.0
C90 C 1.01196 0.97865 0.47905 0.0
C91 C 0.02987 0.05049 0.52033 0.0
C92 C 0.02527 0.0414 0.60284 0.0
C93 C 0.06298 0.11361 0.65392 0.0
C94 C 0.06043 0.1081 0.73201 0.0
C95 C 0.01952 0.03043 0.76052 0.0
H96 H 0.95242 0.90811 0.59255 0.0
C97 C 0.9811 0.95861 0.70892 0.0
C98 C 0.98368 0.96411 0.63083 0.0
H99 H 0.94917 0.89759 0.72893 0.0
H100 H 0.09261 0.13153 0.27038 0.0
H101 H 0.08935 0.12109 0.40674 0.0
H102 H 0.94683 0.85476 0.36576 0.0
H103 H 0.95133 0.8641 0.2296 0.0
H104 H 0.99217 0.90976 0.5056 0.0
H105 H 0.04967 0.11939 0.49379 0.0
H106 H 0.09506 0.1743 0.63371 0.0
H107 H 0.09058 0.16487 0.76991 0.0
C108 C 0.43689 0.16487 0.00735 0.0
C109 C 0.39056 0.10832 0.0374 0.0
C110 C 0.47073 0.12824 -0.00451 0.0
C111 C 0.45929 0.03395 0.01406 0.0
C112 C 0.41264 0.97751 0.04337 0.0
C113 C 0.37884 0.01413 0.05522 0.0
C114 C 0.49339 0.99112 0.00148 0.0
C115 C 0.54835 0.03744 -0.00229 0.0
C116 C 0.58246 0.9946 0.98517 0.0
C117 C 0.62908 0.05103 0.95581 0.0
C118 C 0.66291 0.0144 0.94404 0.0
C119 C 0.65125 0.92023 0.96199 0.0
H120 H 0.53705 0.85456 0.02932 0.0
C121 C 0.60493 0.86369 0.99207 0.0
C122 C 0.57105 0.90033 0.00385 0.0
H123 H 0.59556 0.79117 0.00818 0.0
H124 H 0.44629 0.23741 0.99134 0.0
H125 H 0.50475 0.17404 0.97004 0.0
H126 H 0.40251 0.90465 0.05781 0.0
H127 H 0.34391 0.96866 0.07927 0.0
H128 H 0.47204 0.91812 -0.00395 0.0
H129 H 0.56969 0.11044 0.00313 0.0
H130 H 0.63917 0.12387 0.94128 0.0
H131 H 0.69782 0.05986 0.91996 0.0
C132 C 1.01554 0.76658 0.97121 0.0
C133 C 0.0387 0.7975 0.05039 0.0
C134 C 1.00904 0.67899 0.96427 0.0
C135 C 0.02643 0.62094 0.03663 0.0
C136 C 0.04866 0.65188 0.11556 0.0
C137 C 0.05543 0.73945 0.12238 0.0
C138 C 0.02158 0.52765 0.03309 0.0
C139 C 0.02065 0.5013 0.96671 0.0
C140 C 1.01577 0.408 0.96314 0.0
C141 C 0.99357 0.37713 0.88417 0.0
C142 C 0.98674 0.28955 0.87731 0.0
C143 C 1.00338 0.2314 0.94926 0.0
H144 H 0.05201 0.37154 0.09755 0.0
C145 C 0.02649 0.26224 0.02847 0.0
C146 C 0.03306 0.34985 0.03546 0.0
H147 H 0.03867 0.21828 0.08506 0.0
H148 H 1.00327 0.81045 0.91459 0.0
H149 H 0.99005 0.65723 0.9022 0.0
H150 H 0.06203 0.60877 0.1724 0.0
H151 H 0.07403 0.76207 0.18415 0.0
H152 H 0.01996 0.47983 0.08854 0.0
H153 H 0.02228 0.54913 0.91127 0.0
H154 H 0.98027 0.42031 0.82736 0.0
H155 H 0.96815 0.26698 0.81552 0.0
loop_
_geom_bond_atom_site_label_1
_geom_bond_atom_site_label_2
_geom_bond_distance
_geom_bond_site_symmetry_2
_ccdc_geom_bond_type
Gd0 N31 2.661 1_554 S
Gd0 N37 2.601 . S
Gd0 O44 2.545 . S
Gd0 O45 2.606 1_444 S
Gd0 O47 2.430 1_545 S
Gd0 O48 2.545 1_545 S
Gd0 O49 2.412 . S
Gd0 O51 2.362 . S
Gd0 O52 2.324 1_554 S
Gd0 C59 2.828 . S
Gd1 N10 2.661 1_556 S
Gd1 N14 2.601 . S
Gd1 O45 2.362 . S
Gd1 O46 2.324 1_556 S
Gd1 O50 2.545 . S
Gd1 O51 2.606 1_666 S
Gd1 O53 2.429 1_565 S
Gd1 O54 2.545 1_565 S
Gd1 O55 2.412 . S
Gd1 C68 2.828 . S
C2 C5 1.417 . S
C2 C7 1.431 . S
C2 C8 1.412 1_556 S
C3 C6 1.437 . S
C3 C7 1.317 . S
C3 H22 0.929 . S
C4 C5 1.426 . S
C4 C6 1.413 . S
C4 N14 1.359 . S
C5 C2 1.417 . S
C5 C4 1.426 . S
C5 N10 1.350 1_556 S
C6 C3 1.437 . S
C6 C4 1.413 . S
C6 C16 1.391 . S
C7 C2 1.431 . S
C7 C3 1.317 . S
C7 H18 0.930 . S
C8 C2 1.412 1_554 S
C8 C9 1.355 . S
C8 H20 0.930 . S
C9 C8 1.355 . S
C9 C11 1.402 . S
C9 H21 0.930 . S
N10 Gd1 2.661 1_554 S
N10 C5 1.350 1_554 S
N10 C11 1.307 . S
C11 C9 1.402 . S
C11 N10 1.307 . S
C11 H12 0.930 . S
H12 C11 0.930 . S
C13 N14 1.334 . S
C13 C15 1.394 . S
C13 H17 0.930 . S
N14 Gd1 2.601 . S
N14 C4 1.359 . S
N14 C13 1.334 . S
C15 C13 1.394 . S
C15 C16 1.359 . S
C15 H27 0.930 . S
C16 C6 1.391 . S
C16 C15 1.359 . S
C16 H28 0.929 . S
H17 C13 0.930 . S
H18 C7 0.930 . S
H19 C36 0.930 . S
H20 C8 0.930 . S
H21 C9 0.930 . S
H22 C3 0.929 . S
H23 C41 0.930 . S
H24 C32 0.930 . S
H25 C33 0.930 . S
H26 C57 0.929 . S
H27 C15 0.930 . S
H28 C16 0.929 . S
H29 C58 0.930 . S
H30 C39 0.930 . S
N31 Gd0 2.661 1_556 S
N31 C35 1.350 1_556 S
N31 C36 1.307 . S
C32 H24 0.930 . S
C32 C33 1.355 . S
C32 C34 1.412 1_556 S
C33 H25 0.930 . S
C33 C32 1.355 . S
C33 C36 1.402 . S
C34 C32 1.412 1_554 S
C34 C35 1.417 . S
C34 C58 1.431 . S
C35 N31 1.350 1_554 S
C35 C34 1.417 . S
C35 C38 1.426 . S
C36 H19 0.930 . S
C36 N31 1.307 . S
C36 C33 1.402 . S
N37 Gd0 2.601 . S
N37 C38 1.359 . S
N37 C41 1.334 . S
C38 C35 1.426 . S
C38 N37 1.359 . S
C38 C42 1.413 . S
C39 H30 0.930 . S
C39 C40 1.359 . S
C39 C41 1.394 . S
C40 C39 1.359 . S
C40 C42 1.391 . S
C40 H43 0.929 . S
C41 H23 0.930 . S
C41 N37 1.334 . S
C41 C39 1.394 . S
C42 C38 1.413 . S
C42 C40 1.391 . S
C42 C57 1.437 . S
H43 C40 0.929 . S
O44 Gd0 2.545 . S
O44 C59 1.258 . S
O45 Gd0 2.606 1_666 S
O45 Gd1 2.362 . S
O45 C56 1.284 1_656 S
O46 Gd1 2.324 1_554 S
O46 C66 1.254 1_655 S
O47 Gd0 2.430 1_565 S
O47 C66 1.264 . S
O48 Gd0 2.545 1_565 S
O48 C56 1.250 . S
O49 Gd0 2.412 . S
O49 C59 1.252 . S
O50 Gd1 2.545 . S
O50 C68 1.258 . S
O51 Gd0 2.362 . S
O51 Gd1 2.606 1_444 S
O51 C67 1.284 1_454 S
O52 Gd0 2.324 1_556 S
O52 C75 1.254 1_455 S
O53 Gd1 2.429 1_545 S
O53 C75 1.268 . S
O54 Gd1 2.545 1_545 S
O54 C67 1.250 . S
O55 Gd1 2.412 . S
O55 C68 1.252 . S
C56 O45 1.284 1_454 S
C56 O48 1.250 . S
C57 H26 0.929 . S
C57 C42 1.437 . S
C57 C58 1.317 . S
C58 H29 0.930 . S
C58 C34 1.431 . S
C58 C57 1.317 . S
C59 Gd0 2.828 . S
C59 O44 1.258 . S
C59 O49 1.252 . S
C59 C60 1.497 . S
C60 C59 1.497 . S
C60 C61 1.395 . S
C60 C62 1.380 . S
C61 C60 1.395 . S
C61 C64 1.398 . S
C61 H76 0.930 . S
C62 C60 1.380 . S
C62 C63 1.391 . S
C62 H77 0.930 1_554 S
C63 C62 1.391 . S
C63 C65 1.387 . S
C64 C61 1.398 . S
C64 C65 1.380 . S
C64 H78 0.930 . S
C65 C63 1.387 . S
C65 C64 1.380 . S
C65 H79 0.930 . S
C66 O46 1.254 1_455 S
C66 O47 1.264 . S
C67 O51 1.284 1_656 S
C67 O54 1.250 . S
C68 Gd1 2.828 . S
C68 O50 1.258 . S
C68 O55 1.252 . S
C68 C69 1.497 . S
C69 C68 1.497 . S
C69 C70 1.395 . S
C69 C71 1.380 . S
C70 C69 1.395 . S
C70 C73 1.398 . S
C70 H80 0.930 . S
C71 C69 1.380 . S
C71 C72 1.391 . S
C71 H81 0.930 1_556 S
C72 C71 1.391 . S
C72 C74 1.387 . S
C73 C70 1.398 . S
C73 C74 1.380 . S
C73 H82 0.930 . S
C74 C72 1.387 . S
C74 C73 1.380 . S
C74 H83 0.930 . S
C75 O52 1.254 1_655 S
C75 O53 1.268 . S
H76 C61 0.930 . S
H77 C62 0.930 1_556 S
H78 C64 0.930 . S
H79 C65 0.930 . S
H80 C70 0.930 . S
H81 C71 0.930 1_554 S
H82 C73 0.930 . S
H83 C74 0.930 . S
C84 C85 1.386 1_455 S
C84 C86 1.383 . S
C84 H100 0.951 . S
C85 C84 1.386 1_655 S
C85 C89 1.383 1_545 S
C86 C84 1.383 . S
C86 C87 1.402 1_455 S
C86 H101 0.951 . S
C87 C86 1.402 1_655 S
C87 C88 1.375 1_545 S
C87 C90 1.481 . S
C88 C87 1.375 1_565 S
C88 C89 1.371 . S
C88 H102 0.947 . S
C89 C85 1.383 1_565 S
C89 C88 1.371 . S
C89 H103 0.950 . S
C90 C87 1.481 . S
C90 C91 1.297 1_655 S
C90 H104 0.950 . S
C91 C90 1.297 1_455 S
C91 C92 1.479 . S
C91 H105 0.950 . S
C92 C91 1.479 . S
C92 C93 1.375 . S
C92 C98 1.404 1_455 S
C93 C92 1.375 . S
C93 C94 1.369 . S
C93 H106 0.950 . S
C94 C93 1.369 . S
C94 C95 1.392 . S
C94 H107 0.951 . S
C95 C94 1.392 . S
C95 C97 1.384 1_455 S
H96 C98 0.949 . S
C97 C95 1.384 1_655 S
C97 C98 1.385 . S
C97 H99 0.950 . S
C98 C92 1.404 1_655 S
C98 H96 0.949 . S
C98 C97 1.385 . S
H99 C97 0.950 . S
H100 C84 0.951 . S
H101 C86 0.951 . S
H102 C88 0.947 . S
H103 C89 0.950 . S
H104 C90 0.950 . S
H105 C91 0.950 . S
H106 C93 0.950 . S
H107 C94 0.951 . S
C108 C109 1.386 1_556 S
C108 C110 1.383 . S
C108 H124 0.951 . S
C109 C108 1.386 1_554 S
C109 C113 1.383 1_545 S
C110 C108 1.383 . S
C110 C111 1.402 1_556 S
C110 H125 0.951 . S
C111 C110 1.402 1_554 S
C111 C112 1.375 1_545 S
C111 C114 1.481 . S
C112 C111 1.375 1_565 S
C112 C113 1.367 . S
C112 H126 0.951 . S
C113 C109 1.383 1_565 S
C113 C112 1.367 . S
C113 H127 0.950 . S
C114 C111 1.481 . S
C114 C115 1.297 1_554 S
C114 H128 0.950 1_545 S
C115 C114 1.297 1_556 S
C115 C116 1.479 1_556 S
C115 H129 0.950 . S
C116 C115 1.479 1_554 S
C116 C117 1.375 1_554 S
C116 C122 1.405 . S
C117 C116 1.375 1_556 S
C117 C118 1.369 . S
C117 H130 0.950 . S
C118 C117 1.369 . S
C118 C119 1.392 1_556 S
C118 H131 0.951 . S
C119 C118 1.392 1_554 S
C119 C121 1.384 1_545 S
H120 C122 0.949 1_565 S
C121 C119 1.384 1_565 S
C121 C122 1.384 1_565 S
C121 H123 0.950 . S
C122 C116 1.405 . S
C122 H120 0.949 1_545 S
C122 C121 1.384 1_545 S
H123 C121 0.950 . S
H124 C108 0.951 . S
H125 C110 0.951 . S
H126 C112 0.951 . S
H127 C113 0.950 . S
H128 C114 0.950 1_565 S
H129 C115 0.950 . S
H130 C117 0.950 . S
H131 C118 0.951 . S
C132 C133 1.369 1_456 S
C132 C134 1.383 . S
C132 H148 0.951 . S
C133 C132 1.369 1_654 S
C133 C137 1.392 . S
C134 C132 1.383 . S
C134 C135 1.402 1_456 S
C134 H149 0.951 . S
C135 C134 1.402 1_654 S
C135 C136 1.375 . S
C135 C138 1.481 . S
C136 C135 1.375 . S
C136 C137 1.367 . S
C136 H150 0.951 . S
C137 C133 1.392 . S
C137 C136 1.367 . S
C137 H151 0.950 . S
C138 C135 1.481 . S
C138 C139 1.297 1_655 S
C138 H152 0.950 . S
C139 C138 1.297 1_455 S
C139 C140 1.479 . S
C139 H153 0.950 . S
C140 C139 1.479 . S
C140 C141 1.375 1_554 S
C140 C146 1.404 1_455 S
C141 C140 1.375 1_556 S
C141 C142 1.369 . S
C141 H154 0.950 . S
C142 C141 1.369 . S
C142 C143 1.392 1_556 S
C142 H155 0.951 . S
C143 C142 1.392 1_554 S
C143 C145 1.384 1_455 S
H144 C146 0.949 . S
C145 C143 1.384 1_655 S
C145 C146 1.385 . S
C145 H147 0.950 . S
C146 C140 1.404 1_655 S
C146 H144 0.949 . S
C146 C145 1.385 . S
H147 C145 0.950 . S
H148 C132 0.951 . S
H149 C134 0.951 . S
H150 C136 0.951 . S
H151 C137 0.950 . S
H152 C138 0.950 . S
H153 C139 0.950 . S
H154 C141 0.950 . S
H155 C142 0.951 . S
C85 C66 1.487 1_645 S
C95 C75 1.430 1_455 S
C109 C63 1.270 . S
C119 C72 1.379 1_544 S
C133 C56 1.435 1_655 S
C143 C67 1.470 1_454 S
