# Generated by pormake.
# Topology pcu, (6)-cn, num edge types: 1
# Building blocks:
#     Node 0, Type 0, BuildingBlock: BETDEL_clean_sbu_0, # of connection points: 6
#     Edge 1, Type (0, 0), BuildingBlock: ZUJKAS_clean_linker_0, # of connection points: 2
#     Edge 2, Type (0, 0), BuildingBlock: ZUJKAS_clean_linker_0, # of connection points: 2
#     Edge 3, Type (0, 0), BuildingBlock: ZUJKAS_clean_linker_0, # of connection points: 2
# Relax obj value: 0.000
# Max RMSD: 0.000
# Mean RMSD: 0.000
data_MOF--net-pcu--node1-BETDEL_clean_sbu_0--edge1-ZUJKAS_clean_linker_0
_symmetry_space_group_name_H-M    P1
_symmetry_Int_Tables_number       1
_symmetry_cell_setting            triclinic
loop_
_symmetry_equiv_pos_as_xyz
'x, y, z'
_cell_length_a     19.721594
_cell_length_b     22.273867
_cell_length_c     18.712474
_cell_angle_alpha  98.19272
_cell_angle_beta   88.494146
_cell_angle_gamma 116.01799
loop_
_atom_site_label
_atom_site_type_symbol
_atom_site_fract_x
_atom_site_fract_y
_atom_site_fract_z
_atom_type_partial_charge
Dy0 Dy 0.03596 0.08131 1.01525 0.0
C1 C 0.94003 0.80185 0.03978 0.0
C2 C 0.06004 0.2076 0.99219 0.0
Dy3 Dy 0.96426 0.9283 1.01715 0.0
O4 O 0.02086 0.15203 0.94911 0.0
O5 O 0.08841 0.19422 0.04618 0.0
O6 O 0.09332 0.09889 0.12287 0.0
O7 O 0.98745 0.01596 0.09796 0.0
C8 C 0.04199 0.04441 0.14367 0.0
C9 C 0.9584 0.96564 0.88883 0.0
O10 O 0.86459 0.94475 0.05331 0.0
O11 O 0.91166 0.05136 0.01833 0.0
O12 O 0.97904 0.85729 0.08309 0.0
O13 O 0.91191 0.81543 0.98576 0.0
O14 O 0.90689 0.91117 0.9095 0.0
O15 O 0.01284 0.99361 0.93462 0.0
O16 O 0.13567 0.06484 0.97924 0.0
O17 O 0.08857 0.95826 1.0143 0.0
C18 C 0.85579 0.99772 0.03962 0.0
C19 C 0.14447 0.01189 0.99302 0.0
H20 H 0.14617 0.11381 0.25364 0.0
H21 H 0.13292 0.09857 0.38108 0.0
H22 H 0.91407 0.93003 0.32998 0.0
H23 H 0.92727 0.94457 0.20226 0.0
H24 H 0.01529 0.10686 0.46511 0.0
H25 H 0.02098 0.85884 0.45786 0.0
H26 H 0.05485 0.90905 0.38544 0.0
H27 H 0.95526 0.85986 0.39388 0.0
C28 C 0.09576 0.07289 0.26949 0.0
C29 C 0.03756 0.0305 0.21847 0.0
C30 C 0.08825 0.06437 0.34214 0.0
C31 C 0.02277 0.01302 0.36459 0.0
C32 C 0.9655 0.96932 0.31338 0.0
H33 H 0.85439 0.89675 0.77864 0.0
H34 H 0.86811 0.91221 0.65127 0.0
C35 C 0.97296 0.97783 0.24066 0.0
C36 C 0.01226 0.00812 0.44221 0.0
H37 H 0.98617 0.90376 0.56761 0.0
C38 C 0.00931 0.06266 0.48775 0.0
C39 C 0.00419 0.95022 0.47107 0.0
C40 C 0.00958 0.89131 0.42476 0.0
C41 C 0.99732 0.06041 0.56166 0.0
C42 C 0.98919 1.00249 0.5905 0.0
C43 C 0.99218 0.94797 0.54497 0.0
C44 C 0.97844 0.9975 0.66807 0.0
C45 C 0.99195 0.11932 0.60798 0.0
C46 C 0.03565 0.04099 0.71943 0.0
C47 C 0.02793 0.03234 0.79211 0.0
C48 C 0.96312 0.97975 0.8141 0.0
C49 C 0.90496 0.9376 0.76294 0.0
C50 C 0.91274 0.94625 0.69034 0.0
H51 H 0.98087 0.15198 0.57491 0.0
H52 H 0.94648 0.10156 0.6471 0.0
H53 H 0.04616 0.15059 0.63911 0.0
H54 H 0.08722 0.08021 0.70297 0.0
H55 H 0.07358 0.06542 0.83062 0.0
H56 H 0.17385 0.90307 0.9844 0.0
H57 H 0.29683 0.90297 0.99117 0.0
H58 H 0.40631 0.11885 0.99427 0.0
H59 H 0.28257 0.11978 0.98826 0.0
H60 H 0.42416 0.9518 0.90148 0.0
H61 H 0.48121 0.08488 0.18449 0.0
H62 H 0.38827 0.04633 0.14093 0.0
H63 H 0.45809 0.12559 0.11911 0.0
C64 C 0.22398 0.95061 0.98591 0.0
C65 C 0.21877 0.01168 0.9868 0.0
C66 C 0.29408 0.9503 0.98954 0.0
C67 C 0.36002 0.01096 0.99443 0.0
C68 C 0.3555 0.07171 0.99159 0.0
H69 H 0.82642 0.10657 0.04843 0.0
H70 H 0.70344 0.10669 0.04175 0.0
C71 C 0.28506 0.07209 0.98767 0.0
C72 C 0.433 0.01018 1.00589 0.0
H73 H 0.57611 0.05784 0.13139 0.0
C74 C 0.4576 0.97497 0.9516 0.0
C75 C 0.47544 0.03995 0.07181 0.0
C76 C 0.44942 0.07593 0.13283 0.0
C77 C 0.52483 0.9697 0.96106 0.0
C78 C 0.56727 0.99947 0.02698 0.0
C79 C 0.54267 0.03468 0.08127 0.0
C80 C 0.64025 0.99868 0.03844 0.0
C81 C 0.55085 0.93373 0.90004 0.0
C82 C 0.64476 0.93792 0.04123 0.0
C83 C 0.7152 0.93753 0.04509 0.0
C84 C 0.7815 0.99795 0.04595 0.0
C85 C 0.77629 0.05903 0.04692 0.0
C86 C 0.70619 0.05935 0.04335 0.0
H87 H 0.51907 0.9248 0.84837 0.0
H88 H 0.61201 0.96332 0.89195 0.0
H89 H 0.54216 0.88406 0.91373 0.0
H90 H 0.59396 0.89079 0.03854 0.0
H91 H 0.71769 0.88984 0.04444 0.0
H92 H 0.01875 0.77265 0.13611 0.0
H93 H 0.03882 0.67073 0.12721 0.0
H94 H 0.88718 0.58267 0.93927 0.0
H95 H 0.86781 0.68473 0.94727 0.0
H96 H 0.94038 0.53322 0.12556 0.0
H97 H 0.08323 0.57932 0.86551 0.0
H98 H 0.06471 0.64263 0.92237 0.0
H99 H 0.99034 0.57543 0.86532 0.0
C100 C 0.98879 0.73109 0.09362 0.0
C101 C 0.94206 0.73666 0.04212 0.0
C102 C 0.00051 0.67304 0.08842 0.0
C103 C 0.9659 0.61982 0.03156 0.0
C104 C 0.91588 0.62382 0.98252 0.0
H105 H 0.98103 0.23651 0.89585 0.0
H106 H 0.96087 0.33838 0.90459 0.0
C107 C 0.9043 0.68186 0.98757 0.0
C108 C 0.98372 0.56102 0.02242 0.0
H109 H 0.05944 0.47606 0.90602 0.0
C110 C 0.96665 0.52082 0.07773 0.0
C111 C 0.01813 0.54504 0.95993 0.0
C112 C 0.04088 0.58814 0.90011 0.0
C113 C 0.98169 0.46424 0.07165 0.0
C114 C 0.0161 0.44826 1.00916 0.0
C115 C 0.03316 0.48845 0.95385 0.0
C116 C 0.03399 0.38951 1.00007 0.0
C117 C 0.95897 0.42115 0.13149 0.0
C118 C 0.08415 0.38566 0.04906 0.0
C119 C 0.0958 0.32766 0.0441 0.0
C120 C 0.05794 0.27274 0.98969 0.0
C121 C 0.01106 0.27816 0.93824 0.0
C122 C 0.99929 0.33618 0.94334 0.0
H123 H 0.91666 0.42999 0.16612 0.0
H124 H 0.93512 0.36666 0.10923 0.0
H125 H 0.00954 0.43385 0.16623 0.0
H126 H 0.11291 0.42689 0.09222 0.0
H127 H 0.13241 0.32491 0.08437 0.0
loop_
_geom_bond_atom_site_label_1
_geom_bond_atom_site_label_2
_geom_bond_distance
_geom_bond_site_symmetry_2
_ccdc_geom_bond_type
Dy0 O4 2.398 . S
Dy0 O5 2.491 1_554 S
Dy0 O6 2.403 . S
Dy0 O7 2.663 1_545 S
Dy0 O11 2.326 1_455 S
Dy0 O15 2.309 1_454 S
Dy0 O16 2.351 . S
C1 O12 1.185 . S
C1 O13 1.355 1_556 S
C2 O4 1.185 . S
C2 O5 1.355 1_554 S
Dy3 O7 2.309 1_656 S
Dy3 O10 2.351 . S
Dy3 O12 2.398 . S
Dy3 O13 2.491 1_556 S
Dy3 O14 2.403 . S
Dy3 O15 2.663 1_565 S
Dy3 O17 2.326 1_655 S
O4 Dy0 2.398 . S
O4 C2 1.185 . S
O5 Dy0 2.491 1_556 S
O5 C2 1.355 1_556 S
O6 Dy0 2.403 . S
O6 C8 1.254 . S
O7 Dy0 2.663 1_565 S
O7 Dy3 2.309 1_454 S
O7 C8 1.267 1_565 S
C8 O6 1.254 . S
C8 O7 1.267 1_545 S
C9 O14 1.254 . S
C9 O15 1.267 1_565 S
O10 Dy3 2.351 . S
O10 C18 1.249 1_556 S
O11 Dy0 2.326 1_655 S
O11 C18 1.267 1_545 S
O12 C1 1.185 . S
O12 Dy3 2.398 . S
O13 C1 1.355 1_554 S
O13 Dy3 2.491 1_554 S
O14 Dy3 2.403 . S
O14 C9 1.254 . S
O15 Dy0 2.309 1_656 S
O15 Dy3 2.663 1_545 S
O15 C9 1.267 1_545 S
O16 Dy0 2.351 . S
O16 C19 1.249 1_554 S
O17 Dy3 2.326 1_455 S
O17 C19 1.267 1_565 S
C18 O10 1.249 1_554 S
C18 O11 1.267 1_565 S
C19 O16 1.249 1_556 S
C19 O17 1.267 1_545 S
H20 C28 0.929 . S
H21 C30 0.930 . S
H22 C32 0.930 . S
H23 C35 0.929 . S
H24 C38 0.930 . S
H25 C40 0.960 . S
H26 C40 0.960 . S
H27 C40 0.960 . S
C28 H20 0.929 . S
C28 C29 1.369 1_655 S
C28 C30 1.384 . S
C29 C28 1.369 1_455 S
C29 C35 1.399 1_545 S
C30 H21 0.930 . S
C30 C28 1.384 . S
C30 C31 1.379 . S
C31 C30 1.379 . S
C31 C32 1.393 1_645 S
C31 C36 1.490 . S
C32 H22 0.930 . S
C32 C31 1.393 1_465 S
C32 C35 1.386 . S
H33 C49 0.930 . S
H34 C50 0.931 . S
C35 H23 0.929 . S
C35 C29 1.399 1_565 S
C35 C32 1.386 . S
C36 C31 1.490 . S
C36 C38 1.395 1_545 S
C36 C39 1.403 1_655 S
H37 C43 0.930 . S
C38 H24 0.930 . S
C38 C36 1.395 1_565 S
C38 C41 1.403 . S
C39 C36 1.403 1_455 S
C39 C40 1.524 . S
C39 C43 1.400 . S
C40 H25 0.960 . S
C40 H26 0.960 . S
C40 H27 0.960 . S
C40 C39 1.524 . S
C41 C38 1.403 . S
C41 C42 1.392 . S
C41 C45 1.495 . S
C42 C41 1.392 . S
C42 C43 1.385 1_665 S
C42 C44 1.478 . S
C43 H37 0.930 . S
C43 C39 1.400 . S
C43 C42 1.385 1_445 S
C44 C42 1.478 . S
C44 C46 1.381 1_565 S
C44 C50 1.383 1_655 S
C45 C41 1.495 . S
C45 H51 0.959 . S
C45 H52 0.961 . S
C45 H53 0.960 . S
C46 C44 1.381 1_545 S
C46 C47 1.394 . S
C46 H54 0.930 . S
C47 C46 1.394 . S
C47 C48 1.383 1_545 S
C47 H55 0.929 . S
C48 C47 1.383 1_565 S
C48 C49 1.377 1_655 S
C49 H33 0.930 . S
C49 C48 1.377 1_455 S
C49 C50 1.379 . S
C50 H34 0.931 . S
C50 C44 1.383 1_455 S
C50 C49 1.379 . S
H51 C45 0.959 . S
H52 C45 0.961 . S
H53 C45 0.960 . S
H54 C46 0.930 . S
H55 C47 0.929 . S
H56 C64 0.929 . S
H57 C66 0.930 . S
H58 C68 0.930 . S
H59 C71 0.929 . S
H60 C74 0.930 . S
H61 C76 0.960 . S
H62 C76 0.960 . S
H63 C76 0.960 1_545 S
C64 H56 0.929 . S
C64 C65 1.391 1_556 S
C64 C66 1.384 . S
C65 C64 1.391 1_554 S
C65 C71 1.387 1_565 S
C66 H57 0.930 . S
C66 C64 1.384 . S
C66 C67 1.372 . S
C67 C66 1.372 . S
C67 C68 1.400 1_566 S
C67 C72 1.490 . S
C68 H58 0.930 . S
C68 C67 1.400 1_544 S
C68 C71 1.386 . S
H69 C85 0.930 . S
H70 C86 0.931 . S
C71 H59 0.929 . S
C71 C65 1.387 1_545 S
C71 C68 1.386 . S
C72 C67 1.490 . S
C72 C74 1.395 1_565 S
C72 C75 1.403 1_556 S
H73 C79 0.930 . S
C74 H60 0.930 . S
C74 C72 1.395 1_545 S
C74 C77 1.403 . S
C75 C72 1.403 1_554 S
C75 C76 1.524 . S
C75 C79 1.400 . S
C76 H61 0.960 . S
C76 H62 0.960 . S
C76 H63 0.960 1_565 S
C76 C75 1.524 . S
C77 C74 1.403 . S
C77 C78 1.387 1_545 S
C77 C81 1.495 . S
C78 C77 1.387 1_565 S
C78 C79 1.383 1_556 S
C78 C80 1.485 1_565 S
C79 H73 0.930 . S
C79 C75 1.400 . S
C79 C78 1.383 1_554 S
C80 C78 1.485 1_545 S
C80 C82 1.381 1_545 S
C80 C86 1.383 1_556 S
C81 C77 1.495 . S
C81 H87 0.959 . S
C81 H88 0.961 . S
C81 H89 0.960 1_545 S
C82 C80 1.381 1_565 S
C82 C83 1.394 . S
C82 H90 0.930 . S
C83 C82 1.394 . S
C83 C84 1.375 1_565 S
C83 H91 0.929 . S
C84 C83 1.375 1_545 S
C84 C85 1.395 1_556 S
C85 H69 0.930 . S
C85 C84 1.395 1_554 S
C85 C86 1.379 . S
C86 H70 0.931 . S
C86 C80 1.383 1_554 S
C86 C85 1.379 . S
H87 C81 0.959 . S
H88 C81 0.961 . S
H89 C81 0.960 1_565 S
H90 C82 0.930 . S
H91 C83 0.929 . S
H92 C100 0.929 . S
H93 C102 0.930 . S
H94 C104 0.930 . S
H95 C107 0.929 . S
H96 C110 0.930 . S
H97 C112 0.960 . S
H98 C112 0.960 . S
H99 C112 0.960 1_554 S
C100 H92 0.929 . S
C100 C101 1.386 1_455 S
C100 C102 1.384 . S
C101 C100 1.386 1_655 S
C101 C107 1.378 1_556 S
C102 H93 0.930 . S
C102 C100 1.384 . S
C102 C103 1.372 . S
C103 C102 1.372 . S
C103 C104 1.400 1_456 S
C103 C108 1.490 . S
C104 H94 0.930 . S
C104 C103 1.400 1_654 S
C104 C107 1.386 . S
H105 C121 0.930 . S
H106 C122 0.931 . S
C107 H95 0.929 . S
C107 C101 1.378 1_554 S
C107 C104 1.386 . S
C108 C103 1.490 . S
C108 C110 1.395 . S
C108 C111 1.403 1_455 S
H109 C115 0.930 . S
C110 H96 0.930 . S
C110 C108 1.395 . S
C110 C113 1.403 . S
C111 C108 1.403 1_655 S
C111 C112 1.524 . S
C111 C115 1.400 . S
C112 H97 0.960 . S
C112 H98 0.960 . S
C112 H99 0.960 1_556 S
C112 C111 1.524 . S
C113 C110 1.403 . S
C113 C114 1.392 . S
C113 C117 1.495 1_556 S
C114 C113 1.392 . S
C114 C115 1.385 1_455 S
C114 C116 1.477 1_556 S
C115 H109 0.930 . S
C115 C111 1.400 . S
C115 C114 1.385 1_655 S
C116 C114 1.477 1_554 S
C116 C118 1.381 1_554 S
C116 C122 1.383 1_455 S
C117 C113 1.495 1_554 S
C117 H123 0.959 . S
C117 H124 0.968 . S
C117 H125 0.954 1_554 S
C118 C116 1.381 1_556 S
C118 C119 1.394 . S
C118 H126 0.930 . S
C119 C118 1.394 . S
C119 C120 1.374 1_556 S
C119 H127 0.929 . S
C120 C119 1.374 1_554 S
C120 C121 1.385 1_455 S
C121 H105 0.930 . S
C121 C120 1.385 1_655 S
C121 C122 1.379 . S
C122 H106 0.931 . S
C122 C116 1.383 1_655 S
C122 C121 1.379 . S
H123 C117 0.959 . S
H124 C117 0.968 . S
H125 C117 0.954 1_556 S
H126 C118 0.930 . S
H127 C119 0.929 . S
C29 C8 1.452 . S
C48 C9 1.442 . S
C65 C19 1.481 1_564 S
C84 C18 1.487 1_546 S
C101 C1 1.485 . S
C120 C2 1.465 . S
