# Generated by pormake.
# Topology qtz, (4)-cn, num edge types: 1
# Building blocks:
#     Node 0, Type 0, BuildingBlock: CEKHIL_clean_sbu_0, # of connection points: 4
#     Node 1, Type 0, BuildingBlock: CEKHIL_clean_sbu_0, # of connection points: 4
#     Node 2, Type 0, BuildingBlock: CEKHIL_clean_sbu_0, # of connection points: 4
#     Edge 3, Type (0, 0), BuildingBlock: FUNLAD_clean_linker_0, # of connection points: 2
#     Edge 4, Type (0, 0), BuildingBlock: FUNLAD_clean_linker_0, # of connection points: 2
#     Edge 5, Type (0, 0), BuildingBlock: FUNLAD_clean_linker_0, # of connection points: 2
#     Edge 6, Type (0, 0), BuildingBlock: FUNLAD_clean_linker_0, # of connection points: 2
#     Edge 7, Type (0, 0), BuildingBlock: FUNLAD_clean_linker_0, # of connection points: 2
#     Edge 8, Type (0, 0), BuildingBlock: FUNLAD_clean_linker_0, # of connection points: 2
# Relax obj value: 0.004
# Max RMSD: 0.040
# Mean RMSD: 0.038
data_MOF--net-qtz--node1-CEKHIL_clean_sbu_0--edge1-FUNLAD_clean_linker_0
_symmetry_space_group_name_H-M    P1
_symmetry_Int_Tables_number       1
_symmetry_cell_setting            triclinic
loop_
_symmetry_equiv_pos_as_xyz
'x, y, z'
_cell_length_a     26.92496
_cell_length_b     27.029589
_cell_length_c     33.016294
_cell_angle_alpha  91.539755
_cell_angle_beta   89.9315
_cell_angle_gamma 120.46458
loop_
_atom_site_label
_atom_site_type_symbol
_atom_site_fract_x
_atom_site_fract_y
_atom_site_fract_z
_atom_type_partial_charge
Co0 Co 0.01051 0.51995 0.16246 0.0
O1 O 0.07284 0.55793 0.12528 0.0
O2 O 0.05665 0.48347 0.16133 0.0
C3 C 0.94214 0.51398 0.11954 0.0
O4 O 0.94921 0.468 0.20261 0.0
Co5 Co 0.94316 0.57781 0.19281 0.0
O6 O 0.88756 0.50011 0.21169 0.0
C7 C 0.05833 0.6152 0.22787 0.0
C8 C 0.08736 0.52051 0.13421 0.0
C9 C 0.90195 0.46241 0.21657 0.0
O10 O 0.05983 0.57455 0.20774 0.0
O11 O 0.01731 0.62582 0.22406 0.0
O12 O 0.9583 0.47617 0.11771 0.0
O13 O 0.97055 0.55642 0.14509 0.0
Co14 Co 0.52258 0.02563 0.5253 0.0
O15 O 0.47776 0.96957 0.56466 0.0
O16 O 0.54869 0.97076 0.53011 0.0
C17 C 0.53783 0.10131 0.56522 0.0
O18 O 0.58035 0.07937 0.48373 0.0
Co19 Co 0.48162 0.10602 0.49195 0.0
O20 O 0.56315 0.15184 0.47591 0.0
C21 C 0.42939 0.986 0.45974 0.0
C22 C 0.51065 0.94808 0.55854 0.0
C23 C 0.59456 0.12945 0.47074 0.0
O24 O 0.46484 0.97769 0.48069 0.0
O25 O 0.42744 0.03236 0.46237 0.0
O26 O 0.57006 0.07876 0.56923 0.0
O27 O 0.49557 0.07527 0.53963 0.0
Co28 Co 0.50721 0.52187 0.82597 0.0
O29 O 0.46949 0.53641 0.78258 0.0
O30 O 0.53935 0.60429 0.82086 0.0
C31 C 0.52158 0.4581 0.79018 0.0
O32 O 0.55775 0.52123 0.87216 0.0
Co33 Co 0.44889 0.39822 0.85904 0.0
O34 O 0.52487 0.42856 0.88593 0.0
C35 C 0.40662 0.47547 0.88507 0.0
C36 C 0.50429 0.59066 0.78992 0.0
C37 C 0.56192 0.48188 0.89057 0.0
O38 O 0.44773 0.51697 0.86585 0.0
O39 O 0.39746 0.42412 0.88355 0.0
O40 O 0.55674 0.51281 0.78705 0.0
O41 O 0.47632 0.44404 0.8115 0.0
C42 C 0.32858 0.44427 0.93657 0.0
C43 C 0.36996 0.48775 0.91234 0.0
C44 C 0.29644 0.456 0.9643 0.0
C45 C 0.30489 0.51164 0.96867 0.0
C46 C 0.34485 0.55471 0.94365 0.0
C47 C 0.37737 0.54308 0.91598 0.0
C48 C 0.27096 0.52532 0.99773 0.0
C49 C 0.2499 0.49715 0.03249 0.0
C50 C 0.21228 0.50701 0.06073 0.0
C51 C 0.18015 0.4651 0.08926 0.0
C52 C 0.14113 0.47037 0.11446 0.0
C53 C 0.13352 0.51783 0.11169 0.0
H54 H 0.23192 0.59054 0.03938 0.0
C55 C 0.16758 0.56112 0.08462 0.0
C56 C 0.20671 0.55601 0.05958 0.0
H57 H 0.16327 0.59866 0.08215 0.0
H58 H 0.32119 0.40099 0.93449 0.0
H59 H 0.26449 0.42105 0.98182 0.0
H60 H 0.35158 0.59776 0.94596 0.0
H61 H 0.40863 0.57758 0.89776 0.0
H62 H 0.26352 0.55968 0.98972 0.0
H63 H 0.25891 0.46365 0.04021 0.0
H64 H 0.18396 0.42721 0.09125 0.0
H65 H 0.1156 0.43635 0.13508 0.0
C66 C 0.88492 0.38138 0.26181 0.0
C67 C 0.86414 0.41293 0.24199 0.0
C68 C 0.8508 0.34033 0.29026 0.0
C69 C 0.79512 0.32993 0.29903 0.0
C70 C 0.77368 0.35942 0.27755 0.0
C71 C 0.80755 0.40023 0.24948 0.0
C72 C 0.75951 0.29342 0.33259 0.0
C73 C 0.76741 0.25466 0.35214 0.0
C74 C 0.72999 0.2234 0.38673 0.0
C75 C 0.7087 0.16438 0.39097 0.0
C76 C 0.66701 0.13358 0.42022 0.0
C77 C 0.64645 0.16167 0.44567 0.0
H78 H 0.73029 0.29786 0.41327 0.0
C79 C 0.67159 0.22151 0.44351 0.0
C80 C 0.71296 0.25198 0.41461 0.0
H81 H 0.65765 0.24467 0.46327 0.0
H82 H 0.92842 0.39029 0.25681 0.0
H83 H 0.86916 0.31897 0.30644 0.0
H84 H 0.73094 0.35224 0.28344 0.0
H85 H 0.78978 0.42312 0.23449 0.0
H86 H 0.72373 0.29891 0.34176 0.0
H87 H 0.799 0.24372 0.34177 0.0
H88 H 0.7219 0.14155 0.37027 0.0
H89 H 0.64856 0.08753 0.42127 0.0
C90 C 0.54259 0.87948 0.58008 0.0
C91 C 0.50933 0.90554 0.58665 0.0
C92 C 0.5448 0.84373 0.60924 0.0
C93 C 0.51436 0.83412 0.64571 0.0
C94 C 0.48112 0.86002 0.65203 0.0
C95 C 0.47806 0.8947 0.62274 0.0
C96 C 0.51721 0.7986 0.67828 0.0
C97 C 0.52081 0.75145 0.67054 0.0
C98 C 0.51629 0.71191 0.70266 0.0
C99 C 0.48742 0.65291 0.69332 0.0
C100 C 0.48226 0.61403 0.72229 0.0
C101 C 0.5072 0.63322 0.76116 0.0
H102 H 0.56414 0.77697 0.74958 0.0
C103 C 0.53671 0.69244 0.77062 0.0
C104 C 0.54076 0.73152 0.7417 0.0
H105 H 0.55675 0.7085 0.80018 0.0
H106 H 0.56762 0.88748 0.55281 0.0
H107 H 0.57164 0.82512 0.60373 0.0
H108 H 0.45734 0.85343 0.67981 0.0
H109 H 0.45241 0.91446 0.62906 0.0
H110 H 0.51076 0.80858 0.70927 0.0
H111 H 0.52127 0.73812 0.63925 0.0
H112 H 0.46835 0.6367 0.66351 0.0
H113 H 0.45973 0.56877 0.71375 0.0
C114 C 0.60887 0.45503 0.94388 0.0
C115 C 0.61052 0.49755 0.91928 0.0
C116 C 0.65414 0.46745 0.97037 0.0
C117 C 0.70319 0.5227 0.97277 0.0
C118 C 0.70436 0.56597 0.94931 0.0
C119 C 0.6585 0.55353 0.92268 0.0
C120 C 0.75268 0.53566 1.00008 0.0
C121 C 0.7656 0.49502 0.00924 0.0
C122 C 0.81224 0.50299 0.03759 0.0
C123 C 0.8276 0.46047 0.03722 0.0
C124 C 0.86929 0.46399 0.06407 0.0
C125 C 0.89671 0.51012 0.09221 0.0
H126 H 0.828 0.58219 0.06799 0.0
C127 C 0.88137 0.55271 0.09298 0.0
C128 C 0.83942 0.5492 0.06597 0.0
H129 H 0.90172 0.58873 0.11445 0.0
H130 H 0.57226 0.41165 0.94291 0.0
H131 H 0.65008 0.43348 0.98923 0.0
H132 H 0.74121 0.60918 0.95106 0.0
H133 H 0.66098 0.58742 0.90447 0.0
H134 H 0.77955 0.57949 0.0115 0.0
H135 H 0.74124 0.45297 0.99431 0.0
H136 H 0.80718 0.42413 0.016 0.0
H137 H 0.88011 0.43047 0.06263 0.0
C138 C 0.3757 0.88372 0.43134 0.0
C139 C 0.38891 0.94115 0.43023 0.0
C140 C 0.3346 0.84199 0.40427 0.0
C141 C 0.30653 0.85732 0.37541 0.0
C142 C 0.32119 0.91493 0.37385 0.0
C143 C 0.36163 0.95614 0.40072 0.0
C144 C 0.25944 0.81543 0.34774 0.0
C145 C 0.24543 0.76061 0.34004 0.0
C146 C 0.19643 0.72206 0.31234 0.0
C147 C 0.19863 0.67919 0.28881 0.0
C148 C 0.15389 0.64426 0.26137 0.0
C149 C 0.10573 0.65122 0.25723 0.0
H150 H 0.14288 0.75853 0.32793 0.0
C151 C 0.1029 0.69298 0.28181 0.0
C152 C 0.14738 0.72763 0.30914 0.0
H153 H 0.06616 0.69902 0.2801 0.0
H154 H 0.39592 0.87078 0.45373 0.0
H155 H 0.32406 0.79793 0.40687 0.0
H156 H 0.30059 0.92824 0.35199 0.0
H157 H 0.37108 -3e-05 0.39843 0.0
H158 H 0.23552 0.83167 0.33189 0.0
H159 H 0.27147 0.74431 0.35244 0.0
H160 H 0.23554 0.67347 0.29104 0.0
H161 H 0.15733 0.61219 0.24321 0.0
C162 C 0.57372 0.43231 0.73923 0.0
C163 C 0.53195 0.41523 0.7695 0.0
C164 C 0.58133 0.3916 0.71764 0.0
C165 C 0.54762 0.33306 0.72621 0.0
C166 C 0.50765 0.31626 0.75765 0.0
C167 C 0.49936 0.35693 0.77885 0.0
C168 C 0.55248 0.28872 0.70216 0.0
C169 C 0.56049 0.29241 0.66188 0.0
C170 C 0.55817 0.24518 0.63674 0.0
C171 C 0.53086 0.23222 0.59862 0.0
C172 C 0.52487 0.18577 0.57512 0.0
C173 C 0.54764 0.15252 0.58886 0.0
H174 H 0.60443 0.22262 0.67917 0.0
C175 C 0.57731 0.16702 0.62621 0.0
C176 C 0.58209 0.21272 0.65019 0.0
H177 H 0.59529 0.14203 0.63743 0.0
H178 H 0.59971 0.47704 0.73156 0.0
H179 H 0.61348 0.40596 0.6942 0.0
H180 H 0.48153 0.2714 0.76497 0.0
H181 H 0.4672 0.34269 0.80228 0.0
H182 H 0.54362 0.24978 0.71712 0.0
H183 H 0.56285 0.32843 0.64626 0.0
H184 H 0.51251 0.25699 0.58754 0.0
H185 H 0.50209 0.17571 0.54633 0.0
loop_
_geom_bond_atom_site_label_1
_geom_bond_atom_site_label_2
_geom_bond_distance
_geom_bond_site_symmetry_2
_ccdc_geom_bond_type
Co0 O1 2.216 . S
Co0 O2 2.091 . S
Co0 O4 2.004 1_455 S
Co0 O10 2.021 . S
Co0 O12 2.137 1_455 S
Co0 O13 2.244 1_455 S
O1 Co0 2.216 . S
O1 C8 1.247 . S
O2 Co0 2.091 . S
O2 C8 1.261 . S
C3 O12 1.247 . S
C3 O13 1.272 . S
O4 Co0 2.004 1_655 S
O4 C9 1.259 . S
Co5 O6 2.061 . S
Co5 O11 2.052 1_655 S
Co5 O13 2.135 . S
O6 Co5 2.061 . S
O6 C9 1.235 . S
C7 O10 1.238 . S
C7 O11 1.241 . S
C8 O1 1.247 . S
C8 O2 1.261 . S
C9 O4 1.259 . S
C9 O6 1.235 . S
O10 Co0 2.021 . S
O10 C7 1.238 . S
O11 Co5 2.052 1_455 S
O11 C7 1.241 . S
O12 Co0 2.137 1_655 S
O12 C3 1.247 . S
O13 Co0 2.244 1_655 S
O13 C3 1.272 . S
O13 Co5 2.135 . S
Co14 O15 2.216 1_545 S
Co14 O16 2.091 1_545 S
Co14 O18 2.004 . S
Co14 O24 2.021 1_545 S
Co14 O26 2.137 . S
Co14 O27 2.244 . S
O15 Co14 2.216 1_565 S
O15 C22 1.247 . S
O16 Co14 2.091 1_565 S
O16 C22 1.261 . S
C17 O26 1.247 . S
C17 O27 1.272 . S
O18 Co14 2.004 . S
O18 C23 1.259 . S
Co19 O20 2.061 . S
Co19 O25 2.052 1_545 S
Co19 O27 2.135 . S
O20 Co19 2.061 . S
O20 C23 1.235 . S
C21 O24 1.238 . S
C21 O25 1.241 . S
C22 O15 1.247 . S
C22 O16 1.261 . S
C23 O18 1.259 . S
C23 O20 1.235 . S
O24 Co14 2.021 1_565 S
O24 C21 1.238 . S
O25 Co19 2.052 1_565 S
O25 C21 1.241 . S
O26 Co14 2.137 . S
O26 C17 1.247 . S
O27 Co14 2.244 . S
O27 C17 1.272 . S
O27 Co19 2.135 . S
Co28 O29 2.216 . S
Co28 O30 2.091 . S
Co28 O32 2.004 . S
Co28 O38 2.021 . S
Co28 O40 2.137 . S
Co28 O41 2.244 . S
O29 Co28 2.216 . S
O29 C36 1.247 . S
O30 Co28 2.091 . S
O30 C36 1.261 . S
C31 O40 1.247 . S
C31 O41 1.272 . S
O32 Co28 2.004 . S
O32 C37 1.259 . S
Co33 O34 2.061 . S
Co33 O39 2.052 . S
Co33 O41 2.135 . S
O34 Co33 2.061 . S
O34 C37 1.235 . S
C35 O38 1.238 . S
C35 O39 1.241 . S
C36 O29 1.247 . S
C36 O30 1.261 . S
C37 O32 1.259 . S
C37 O34 1.235 . S
O38 Co28 2.021 . S
O38 C35 1.238 . S
O39 Co33 2.052 . S
O39 C35 1.241 . S
O40 Co28 2.137 . S
O40 C31 1.247 . S
O41 Co28 2.244 . S
O41 C31 1.272 . S
O41 Co33 2.135 . S
C42 C43 1.386 . S
C42 C44 1.383 . S
C42 H58 0.951 . S
C43 C42 1.386 . S
C43 C47 1.383 . S
C44 C42 1.383 . S
C44 C45 1.402 . S
C44 H59 0.951 . S
C45 C44 1.402 . S
C45 C46 1.375 . S
C45 C48 1.481 . S
C46 C45 1.375 . S
C46 C47 1.367 . S
C46 H60 0.951 . S
C47 C43 1.383 . S
C47 C46 1.367 . S
C47 H61 0.950 . S
C48 C45 1.481 . S
C48 C49 1.297 1_556 S
C48 H62 0.950 . S
C49 C48 1.297 1_554 S
C49 C50 1.479 . S
C49 H63 0.950 . S
C50 C49 1.479 . S
C50 C51 1.375 . S
C50 C56 1.404 . S
C51 C50 1.375 . S
C51 C52 1.369 . S
C51 H64 0.950 . S
C52 C51 1.369 . S
C52 C53 1.392 . S
C52 H65 0.951 . S
C53 C52 1.392 . S
C53 C55 1.384 . S
H54 C56 0.949 . S
C55 C53 1.384 . S
C55 C56 1.385 . S
C55 H57 0.950 . S
C56 C50 1.404 . S
C56 H54 0.949 . S
C56 C55 1.385 . S
H57 C55 0.950 . S
H58 C42 0.951 . S
H59 C44 0.951 . S
H60 C46 0.951 . S
H61 C47 0.950 . S
H62 C48 0.950 . S
H63 C49 0.950 . S
H64 C51 0.950 . S
H65 C52 0.951 . S
C66 C67 1.386 . S
C66 C68 1.383 . S
C66 H82 0.951 . S
C67 C66 1.386 . S
C67 C71 1.383 . S
C68 C66 1.383 . S
C68 C69 1.402 . S
C68 H83 0.951 . S
C69 C68 1.402 . S
C69 C70 1.375 . S
C69 C72 1.481 . S
C70 C69 1.375 . S
C70 C71 1.367 . S
C70 H84 0.951 . S
C71 C67 1.383 . S
C71 C70 1.367 . S
C71 H85 0.950 . S
C72 C69 1.481 . S
C72 C73 1.297 . S
C72 H86 0.950 . S
C73 C72 1.297 . S
C73 C74 1.479 . S
C73 H87 0.950 . S
C74 C73 1.479 . S
C74 C75 1.375 . S
C74 C80 1.404 . S
C75 C74 1.375 . S
C75 C76 1.369 . S
C75 H88 0.950 . S
C76 C75 1.369 . S
C76 C77 1.392 . S
C76 H89 0.951 . S
C77 C76 1.392 . S
C77 C79 1.384 . S
H78 C80 0.949 . S
C79 C77 1.384 . S
C79 C80 1.385 . S
C79 H81 0.950 . S
C80 C74 1.404 . S
C80 H78 0.949 . S
C80 C79 1.385 . S
H81 C79 0.950 . S
H82 C66 0.951 . S
H83 C68 0.951 . S
H84 C70 0.951 . S
H85 C71 0.950 . S
H86 C72 0.950 . S
H87 C73 0.950 . S
H88 C75 0.950 . S
H89 C76 0.951 . S
C90 C91 1.386 . S
C90 C92 1.383 . S
C90 H106 0.951 . S
C91 C90 1.386 . S
C91 C95 1.383 . S
C92 C90 1.383 . S
C92 C93 1.402 . S
C92 H107 0.951 . S
C93 C92 1.402 . S
C93 C94 1.375 . S
C93 C96 1.481 . S
C94 C93 1.375 . S
C94 C95 1.367 . S
C94 H108 0.951 . S
C95 C91 1.383 . S
C95 C94 1.367 . S
C95 H109 0.950 . S
C96 C93 1.481 . S
C96 C97 1.297 . S
C96 H110 0.950 . S
C97 C96 1.297 . S
C97 C98 1.479 . S
C97 H111 0.950 . S
C98 C97 1.479 . S
C98 C99 1.375 . S
C98 C104 1.404 . S
C99 C98 1.375 . S
C99 C100 1.369 . S
C99 H112 0.950 . S
C100 C99 1.369 . S
C100 C101 1.392 . S
C100 H113 0.951 . S
C101 C100 1.392 . S
C101 C103 1.384 . S
H102 C104 0.949 . S
C103 C101 1.384 . S
C103 C104 1.385 . S
C103 H105 0.950 . S
C104 C98 1.404 . S
C104 H102 0.949 . S
C104 C103 1.385 . S
H105 C103 0.950 . S
H106 C90 0.951 . S
H107 C92 0.951 . S
H108 C94 0.951 . S
H109 C95 0.950 . S
H110 C96 0.950 . S
H111 C97 0.950 . S
H112 C99 0.950 . S
H113 C100 0.951 . S
C114 C115 1.386 . S
C114 C116 1.383 . S
C114 H130 0.951 . S
C115 C114 1.386 . S
C115 C119 1.383 . S
C116 C114 1.383 . S
C116 C117 1.402 . S
C116 H131 0.951 . S
C117 C116 1.402 . S
C117 C118 1.375 . S
C117 C120 1.481 . S
C118 C117 1.375 . S
C118 C119 1.367 . S
C118 H132 0.951 . S
C119 C115 1.383 . S
C119 C118 1.367 . S
C119 H133 0.950 . S
C120 C117 1.481 . S
C120 C121 1.297 . S
C120 H134 0.950 1_556 S
C121 C120 1.297 . S
C121 C122 1.479 1_556 S
C121 H135 0.950 . S
C122 C121 1.479 1_554 S
C122 C123 1.375 . S
C122 C128 1.404 . S
C123 C122 1.375 . S
C123 C124 1.369 . S
C123 H136 0.950 . S
C124 C123 1.369 . S
C124 C125 1.392 . S
C124 H137 0.951 . S
C125 C124 1.392 . S
C125 C127 1.384 . S
H126 C128 0.949 . S
C127 C125 1.384 . S
C127 C128 1.385 . S
C127 H129 0.950 . S
C128 C122 1.404 . S
C128 H126 0.949 . S
C128 C127 1.385 . S
H129 C127 0.950 . S
H130 C114 0.951 . S
H131 C116 0.951 . S
H132 C118 0.951 . S
H133 C119 0.950 . S
H134 C120 0.950 1_554 S
H135 C121 0.950 . S
H136 C123 0.950 . S
H137 C124 0.951 . S
C138 C139 1.386 . S
C138 C140 1.383 . S
C138 H154 0.951 . S
C139 C138 1.386 . S
C139 C143 1.383 . S
C140 C138 1.383 . S
C140 C141 1.402 . S
C140 H155 0.951 . S
C141 C140 1.402 . S
C141 C142 1.375 . S
C141 C144 1.481 . S
C142 C141 1.375 . S
C142 C143 1.367 . S
C142 H156 0.951 . S
C143 C139 1.383 . S
C143 C142 1.367 . S
C143 H157 0.950 . S
C144 C141 1.481 . S
C144 C145 1.297 . S
C144 H158 0.950 . S
C145 C144 1.297 . S
C145 C146 1.479 . S
C145 H159 0.950 . S
C146 C145 1.479 . S
C146 C147 1.375 . S
C146 C152 1.404 . S
C147 C146 1.375 . S
C147 C148 1.369 . S
C147 H160 0.950 . S
C148 C147 1.369 . S
C148 C149 1.392 . S
C148 H161 0.951 . S
C149 C148 1.392 . S
C149 C151 1.384 . S
H150 C152 0.949 . S
C151 C149 1.384 . S
C151 C152 1.385 . S
C151 H153 0.950 . S
C152 C146 1.404 . S
C152 H150 0.949 . S
C152 C151 1.385 . S
H153 C151 0.950 . S
H154 C138 0.951 . S
H155 C140 0.951 . S
H156 C142 0.951 . S
H157 C143 0.950 . S
H158 C144 0.950 . S
H159 C145 0.950 . S
H160 C147 0.950 . S
H161 C148 0.951 . S
C162 C163 1.386 . S
C162 C164 1.383 . S
C162 H178 0.951 . S
C163 C162 1.386 . S
C163 C167 1.383 . S
C164 C162 1.383 . S
C164 C165 1.402 . S
C164 H179 0.951 . S
C165 C164 1.402 . S
C165 C166 1.375 . S
C165 C168 1.481 . S
C166 C165 1.375 . S
C166 C167 1.367 . S
C166 H180 0.951 . S
C167 C163 1.383 . S
C167 C166 1.367 . S
C167 H181 0.950 . S
C168 C165 1.481 . S
C168 C169 1.297 . S
C168 H182 0.950 . S
C169 C168 1.297 . S
C169 C170 1.479 . S
C169 H183 0.950 . S
C170 C169 1.479 . S
C170 C171 1.375 . S
C170 C176 1.404 . S
C171 C170 1.375 . S
C171 C172 1.369 . S
C171 H184 0.950 . S
C172 C171 1.369 . S
C172 C173 1.392 . S
C172 H185 0.951 . S
C173 C172 1.392 . S
C173 C175 1.384 . S
H174 C176 0.949 . S
C175 C173 1.384 . S
C175 C176 1.385 . S
C175 H177 0.950 . S
C176 C170 1.404 . S
C176 H174 0.949 . S
C176 C175 1.385 . S
H177 C175 0.950 . S
H178 C162 0.951 . S
H179 C164 0.951 . S
H180 C166 0.951 . S
H181 C167 0.950 . S
H182 C168 0.950 . S
H183 C169 0.950 . S
H184 C171 0.950 . S
H185 C172 0.951 . S
C43 C35 1.424 . S
C53 C8 1.432 . S
C67 C9 1.476 . S
C77 C23 1.498 . S
C91 C22 1.447 . S
C101 C36 1.438 . S
C115 C37 1.465 . S
C125 C3 1.451 . S
C139 C21 1.385 . S
C149 C7 1.361 . S
C163 C31 1.421 . S
C173 C17 1.404 . S
