# Generated by pormake.
# Topology qtz-x, (6)-cn, num edge types: 1
# Building blocks:
#     Node 0, Type 0, BuildingBlock: BETDIP_clean_sbu_0, # of connection points: 6
#     Node 1, Type 0, BuildingBlock: BETDIP_clean_sbu_0, # of connection points: 6
#     Node 2, Type 0, BuildingBlock: BETDIP_clean_sbu_0, # of connection points: 6
#     Edge 3, Type (0, 0), None
#     Edge 4, Type (0, 0), None
#     Edge 5, Type (0, 0), None
#     Edge 6, Type (0, 0), None
#     Edge 7, Type (0, 0), None
#     Edge 8, Type (0, 0), None
#     Edge 9, Type (0, 0), None
#     Edge 10, Type (0, 0), None
#     Edge 11, Type (0, 0), None
# Relax obj value: 0.688
# Max RMSD: 0.347
# Mean RMSD: 0.312
data_MOF--net-qtz-x--node1-BETDIP_clean_sbu_0--edge1-none
_symmetry_space_group_name_H-M    P1
_symmetry_Int_Tables_number       1
_symmetry_cell_setting            triclinic
loop_
_symmetry_equiv_pos_as_xyz
'x, y, z'
_cell_length_a     7.95263
_cell_length_b     8.1453376
_cell_length_c     33.694121
_cell_angle_alpha  53.154158
_cell_angle_beta   130.17663
_cell_angle_gamma 125.09127
loop_
_atom_site_label
_atom_site_type_symbol
_atom_site_fract_x
_atom_site_fract_y
_atom_site_fract_z
_atom_type_partial_charge
Tb0 Tb 0.17111 0.69138 0.17484 0.0
Tb1 Tb 0.33308 0.69573 0.18271 0.0
C2 C 0.93218 0.42495 0.23325 0.0
C3 C 0.95473 0.36955 0.29128 0.0
C4 C 0.95752 0.16268 0.33495 0.0
C5 C 0.95363 0.10095 0.38484 0.0
C6 C 0.93591 0.23504 0.39564 0.0
C7 C 0.94621 0.4466 0.35365 0.0
C8 C 0.96116 0.51121 0.3047 0.0
C9 C 0.23441 0.10259 0.17132 0.0
C10 C 0.52833 0.65791 0.29266 0.0
C11 C 0.66764 -0.01426 0.16628 0.0
C12 C 0.68635 0.03147 0.12155 0.0
C13 C 0.69461 0.23585 0.07977 0.0
C14 C 0.69522 0.27032 0.0347 0.0
C15 C 0.68507 0.0983 1.0323 0.0
C16 C 0.63 0.8879 0.06789 0.0
C17 C 0.62985 0.85626 0.11236 0.0
C18 C 0.26228 0.30083 0.17771 0.0
C19 C 0.1625 0.75106 0.05619 0.0
O20 O 1.05054 0.36925 0.23168 0.0
O21 O 0.9054 0.60463 0.19112 0.0
O22 O 0.36032 0.96811 0.20033 0.0
O23 O 1.07111 -0.0008 0.13559 0.0
O24 O 0.48736 0.8177 0.24572 0.0
O25 O 0.44587 0.50715 0.27682 0.0
O26 O 0.4872 0.02538 0.14733 0.0
O27 O 0.6798 0.79663 0.20542 0.0
O28 O 0.12929 0.42195 0.15402 0.0
O29 O 0.44391 0.41389 0.2099 0.0
O30 O 0.12982 0.79398 0.08403 0.0
O31 O 0.12103 0.8031 0.08196 0.0
H32 H 0.96015 0.04322 0.33051 0.0
H33 H 0.95813 0.93937 0.41518 0.0
H34 H 0.94881 0.56644 0.35901 0.0
H35 H 0.9919 0.67895 0.27867 0.0
H36 H 0.70532 0.36742 0.08267 0.0
H37 H 0.72357 0.43298 1.00468 0.0
H38 H 0.60998 0.75099 0.06524 0.0
H39 H 0.5735 0.69233 0.13788 0.0
Tb40 Tb 0.96143 0.00886 0.56761 0.0
Tb41 Tb 0.74321 0.76561 0.5416 0.0
C42 C 0.22519 0.30088 0.61551 0.0
C43 C 0.27415 0.43724 0.64366 0.0
C44 C 0.13885 0.35794 0.66759 0.0
C45 C 0.2069 0.4433 0.70395 0.0
C46 C 0.36536 0.64697 0.70881 0.0
C47 C 0.51383 0.72479 0.68796 0.0
C48 C 0.48062 0.61002 0.66198 0.0
C49 C 0.27814 0.95194 0.54575 0.0
C50 C 0.82683 0.51932 0.66702 0.0
C51 C 0.47007 0.57655 0.47195 0.0
C52 C 0.49316 0.59613 0.42727 0.0
C53 C 0.54167 0.43871 0.43346 0.0
C54 C 0.55068 0.45421 0.39043 0.0
C55 C 0.52582 0.63603 0.34049 0.0
C56 C 0.47853 0.795 0.33428 0.0
C57 C 0.4596 0.77448 0.37611 0.0
C58 C 0.4304 0.85349 0.55676 0.0
C59 C 0.90022 0.13816 0.44894 0.0
O60 O 0.14723 0.35016 0.56274 0.0
O61 O 0.1336 0.09521 0.63474 0.0
O62 O 0.1468 0.86247 0.57218 0.0
O63 O 0.15285 0.85887 0.57259 0.0
O64 O 0.92715 0.73786 0.65176 0.0
O65 O 0.73559 0.47398 0.6235 0.0
O66 O 0.59393 0.48101 0.52537 0.0
O67 O 0.46074 0.74896 0.46385 0.0
O68 O 0.57056 0.93845 0.5336 0.0
O69 O 0.56654 0.93999 0.53356 0.0
O70 O 0.82913 0.93029 0.47219 0.0
O71 O 0.94348 0.23085 0.47826 0.0
H72 H 0.99745 0.20896 0.66518 0.0
H73 H 0.13589 0.33686 0.72998 0.0
H74 H 0.66167 0.86715 0.69374 0.0
H75 H 0.61716 0.67499 0.65423 0.0
H76 H 0.57013 0.30295 0.47158 0.0
H77 H 0.57314 0.32254 0.39575 0.0
H78 H 0.45107 0.93584 0.29625 0.0
H79 H 0.41783 0.9004 0.36793 0.0
Tb80 Tb 1.05189 0.20756 0.86744 0.0
Tb81 Tb 1.10284 -0.00512 0.86174 0.0
C82 C 0.92462 0.39118 0.87491 0.0
C83 C 0.86707 0.30512 0.91731 0.0
C84 C 0.72054 0.09557 0.93026 0.0
C85 C 0.66997 0.01382 0.97169 0.0
C86 C 0.7758 0.14296 1.00088 0.0
C87 C 0.97015 0.32188 0.99892 0.0
C88 C 1.01618 0.40327 0.95672 0.0
C89 C 0.51854 0.47394 0.88662 0.0
C90 C 0.13767 0.87582 0.9891 0.0
C91 C 0.3033 0.94194 0.83215 0.0
C92 C 0.30712 0.90199 0.79139 0.0
C93 C 0.42767 0.04191 0.75853 0.0
C94 C 0.45076 0.96815 0.73148 0.0
C95 C 0.3734 0.75266 0.7383 0.0
C96 C 0.26496 0.63004 0.77073 0.0
C97 C 0.21084 0.7017 0.79048 0.0
C98 C 0.70515 0.67311 0.87287 0.0
C99 C 0.8451 0.33927 0.73276 0.0
O100 O 0.78405 0.31332 0.8349 0.0
O101 O 0.13955 0.40614 0.89903 0.0
O102 O 0.39192 0.30645 0.87103 0.0
O103 O 0.39591 0.45587 0.90209 0.0
O104 O 1.07718 0.04731 0.95315 0.0
O105 O 0.18955 0.83616 0.96296 0.0
O106 O 0.29393 0.12133 0.81945 0.0
O107 O 0.22339 0.79488 0.86875 0.0
O108 O 0.82316 0.84797 0.88548 0.0
O109 O 0.79329 0.70637 0.84596 0.0
O110 O 0.9002 0.15482 0.76358 0.0
O111 O 0.86213 0.37684 0.7686 0.0
H112 H 0.6654 -0.00995 0.91235 0.0
H113 H 0.54563 0.85602 0.97905 0.0
H114 H 1.07498 0.4057 1.02728 0.0
H115 H 0.16317 0.54444 0.95388 0.0
H116 H 0.48876 0.20823 0.75122 0.0
H117 H 0.50618 0.07615 0.69986 0.0
H118 H 0.23469 0.46831 0.78337 0.0
H119 H 1.11675 0.59401 0.81292 0.0
loop_
_geom_bond_atom_site_label_1
_geom_bond_atom_site_label_2
_geom_bond_distance
_geom_bond_site_symmetry_2
_ccdc_geom_bond_type
Tb0 C2 2.809 . S
Tb0 O20 2.484 . S
Tb0 O21 2.440 . S
Tb0 O22 2.658 1_665 S
Tb0 O23 2.409 1_565 S
Tb0 O24 2.378 1_655 S
Tb0 O28 2.325 . S
Tb0 O31 2.341 . S
Tb1 C11 2.809 1_565 S
Tb1 O22 2.325 1_565 S
Tb1 O25 2.341 . S
Tb1 O26 2.484 1_565 S
Tb1 O27 2.440 . S
Tb1 O28 2.658 1_455 S
Tb1 O29 2.409 . S
Tb1 O30 2.378 1_455 S
C2 Tb0 2.809 . S
C2 C3 1.514 . S
C2 O20 1.248 . S
C2 O21 1.266 . S
C3 C2 1.514 . S
C3 C4 1.359 . S
C3 C8 1.348 . S
C4 C3 1.359 . S
C4 C5 1.380 . S
C4 H32 0.929 . S
C5 C4 1.380 . S
C5 C6 1.347 . S
C5 H33 0.931 1_545 S
C6 C5 1.347 . S
C6 C7 1.369 . S
C7 C6 1.369 . S
C7 C8 1.408 . S
C7 H34 0.930 . S
C8 C3 1.348 . S
C8 C7 1.408 . S
C8 H35 0.930 . S
C9 O22 1.281 1_655 S
C9 O23 1.254 . S
C10 O24 1.236 . S
C10 O25 1.266 . S
C11 Tb1 2.809 1_545 S
C11 C12 1.514 . S
C11 O26 1.248 . S
C11 O27 1.266 1_545 S
C12 C11 1.514 . S
C12 C13 1.359 1_554 S
C12 C17 1.352 . S
C13 C12 1.359 1_556 S
C13 C14 1.380 . S
C13 H36 0.929 . S
C14 C13 1.380 . S
C14 C15 1.347 . S
C14 H37 0.931 . S
C15 C14 1.347 . S
C15 C16 1.369 . S
C16 C15 1.369 . S
C16 C17 1.404 1_556 S
C16 H38 0.930 . S
C17 C12 1.352 . S
C17 C16 1.404 1_554 S
C17 H39 0.931 . S
C18 O28 1.281 1_455 S
C18 O29 1.254 . S
C19 O30 1.236 . S
C19 O31 1.266 . S
O20 Tb0 2.484 . S
O20 C2 1.248 . S
O21 Tb0 2.440 . S
O21 C2 1.266 . S
O22 Tb0 2.658 1_445 S
O22 Tb1 2.325 1_545 S
O22 C9 1.281 1_455 S
O23 Tb0 2.409 1_545 S
O23 C9 1.254 . S
O24 Tb0 2.378 1_455 S
O24 C10 1.236 . S
O25 Tb1 2.341 . S
O25 C10 1.266 . S
O26 Tb1 2.484 1_545 S
O26 C11 1.248 . S
O27 Tb1 2.440 . S
O27 C11 1.266 1_565 S
O28 Tb0 2.325 . S
O28 Tb1 2.658 1_655 S
O28 C18 1.281 1_655 S
O29 Tb1 2.409 . S
O29 C18 1.254 . S
O30 Tb1 2.378 1_655 S
O30 C19 1.236 . S
O31 Tb0 2.341 . S
O31 C19 1.266 . S
H32 C4 0.929 . S
H33 C5 0.931 1_565 S
H34 C7 0.930 . S
H35 C8 0.930 . S
H36 C13 0.929 . S
H37 C14 0.931 . S
H38 C16 0.930 . S
H39 C17 0.931 . S
Tb40 C42 2.809 . S
Tb40 O60 2.484 . S
Tb40 O61 2.440 . S
Tb40 O62 2.658 1_545 S
Tb40 O63 2.409 . S
Tb40 O64 2.378 1_545 S
Tb40 O68 2.325 1_455 S
Tb40 O71 2.341 1_455 S
Tb41 C51 2.809 . S
Tb41 O62 2.325 1_655 S
Tb41 O65 2.341 . S
Tb41 O66 2.484 . S
Tb41 O67 2.440 . S
Tb41 O68 2.658 1_565 S
Tb41 O69 2.409 . S
Tb41 O70 2.378 1_565 S
C42 Tb40 2.809 . S
C42 C43 1.514 . S
C42 O60 1.248 . S
C42 O61 1.266 . S
C43 C42 1.514 . S
C43 C44 1.359 . S
C43 C48 1.348 . S
C44 C43 1.359 . S
C44 C45 1.380 . S
C44 H72 0.928 1_455 S
C45 C44 1.380 . S
C45 C46 1.347 . S
C45 H73 0.931 . S
C46 C45 1.347 . S
C46 C47 1.369 . S
C47 C46 1.369 . S
C47 C48 1.408 . S
C47 H74 0.930 . S
C48 C43 1.348 . S
C48 C47 1.408 . S
C48 H75 0.930 . S
C49 O62 1.281 1_545 S
C49 O63 1.254 . S
C50 O64 1.236 1_655 S
C50 O65 1.266 . S
C51 Tb41 2.809 . S
C51 C52 1.514 . S
C51 O66 1.248 . S
C51 O67 1.266 . S
C52 C51 1.514 . S
C52 C53 1.359 . S
C52 C57 1.348 . S
C53 C52 1.359 . S
C53 C54 1.380 . S
C53 H76 0.929 . S
C54 C53 1.380 . S
C54 C55 1.347 . S
C54 H77 0.931 . S
C55 C54 1.347 . S
C55 C56 1.369 . S
C56 C55 1.369 . S
C56 C57 1.408 . S
C56 H78 0.930 . S
C57 C52 1.348 . S
C57 C56 1.408 . S
C57 H79 0.930 . S
C58 O68 1.281 1_565 S
C58 O69 1.254 . S
C59 O70 1.236 . S
C59 O71 1.266 . S
O60 Tb40 2.484 . S
O60 C42 1.248 . S
O61 Tb40 2.440 . S
O61 C42 1.266 . S
O62 Tb40 2.658 1_565 S
O62 Tb41 2.325 1_455 S
O62 C49 1.281 1_565 S
O63 Tb40 2.409 . S
O63 C49 1.254 . S
O64 Tb40 2.378 1_565 S
O64 C50 1.236 1_455 S
O65 Tb41 2.341 . S
O65 C50 1.266 . S
O66 Tb41 2.484 . S
O66 C51 1.248 . S
O67 Tb41 2.440 . S
O67 C51 1.266 . S
O68 Tb40 2.325 1_655 S
O68 Tb41 2.658 1_545 S
O68 C58 1.281 1_545 S
O69 Tb41 2.409 . S
O69 C58 1.254 . S
O70 Tb41 2.378 1_545 S
O70 C59 1.236 . S
O71 Tb40 2.341 1_655 S
O71 C59 1.266 . S
H72 C44 0.928 1_655 S
H73 C45 0.931 . S
H74 C47 0.930 . S
H75 C48 0.930 . S
H76 C53 0.929 . S
H77 C54 0.931 . S
H78 C56 0.930 . S
H79 C57 0.930 . S
Tb80 C82 2.809 . S
Tb80 O100 2.484 . S
Tb80 O101 2.440 . S
Tb80 O102 2.658 1_655 S
Tb80 O103 2.409 1_655 S
Tb80 O104 2.378 1_655 S
Tb80 O108 2.325 1_545 S
Tb80 O111 2.341 . S
Tb81 C91 2.809 . S
Tb81 O102 2.325 1_565 S
Tb81 O105 2.341 . S
Tb81 O106 2.484 . S
Tb81 O107 2.440 . S
Tb81 O108 2.658 1_455 S
Tb81 O109 2.409 1_455 S
Tb81 O110 2.378 1_455 S
C82 Tb80 2.809 . S
C82 C83 1.514 . S
C82 O100 1.248 . S
C82 O101 1.266 . S
C83 C82 1.514 . S
C83 C84 1.359 . S
C83 C88 1.348 . S
C84 C83 1.359 . S
C84 C85 1.380 . S
C84 H112 0.929 1_545 S
C85 C84 1.380 . S
C85 C86 1.347 . S
C85 H113 0.931 . S
C86 C85 1.347 . S
C86 C87 1.369 . S
C87 C86 1.369 . S
C87 C88 1.408 . S
C87 H114 0.930 . S
C88 C83 1.348 . S
C88 C87 1.408 . S
C88 H115 0.930 . S
C89 O102 1.281 . S
C89 O103 1.254 . S
C90 O104 1.236 1_565 S
C90 O105 1.266 . S
C91 Tb81 2.809 . S
C91 C92 1.514 . S
C91 O106 1.248 . S
C91 O107 1.266 . S
C92 C91 1.514 . S
C92 C93 1.359 . S
C92 C97 1.348 . S
C93 C92 1.359 . S
C93 C94 1.380 . S
C93 H116 0.929 1_565 S
C94 C93 1.380 . S
C94 C95 1.347 . S
C94 H117 0.931 . S
C95 C94 1.347 . S
C95 C96 1.369 . S
C96 C95 1.369 . S
C96 C97 1.408 . S
C96 H118 0.930 . S
C97 C92 1.348 . S
C97 C96 1.408 . S
C97 H119 0.930 . S
C98 O108 1.281 . S
C98 O109 1.254 . S
C99 O110 1.236 1_545 S
C99 O111 1.266 . S
O100 Tb80 2.484 . S
O100 C82 1.248 . S
O101 Tb80 2.440 . S
O101 C82 1.266 . S
O102 Tb80 2.658 1_455 S
O102 Tb81 2.325 1_545 S
O102 C89 1.281 . S
O103 Tb80 2.409 1_455 S
O103 C89 1.254 . S
O104 Tb80 2.378 1_455 S
O104 C90 1.236 1_545 S
O105 Tb81 2.341 . S
O105 C90 1.266 . S
O106 Tb81 2.484 . S
O106 C91 1.248 . S
O107 Tb81 2.440 . S
O107 C91 1.266 . S
O108 Tb80 2.325 1_565 S
O108 Tb81 2.658 1_655 S
O108 C98 1.281 . S
O109 Tb81 2.409 1_655 S
O109 C98 1.254 . S
O110 Tb81 2.378 1_655 S
O110 C99 1.236 1_565 S
O111 Tb80 2.341 . S
O111 C99 1.266 . S
H112 C84 0.929 1_565 S
H113 C85 0.931 . S
H114 C87 0.930 . S
H115 C88 0.930 . S
H116 C93 0.929 1_545 S
H117 C94 0.931 . S
H118 C96 0.930 . S
H119 C97 0.930 . S
C9 C18 4.021 1_655 S
C58 C49 4.220 1_565 S
C89 C98 2.857 . S
C86 C15 0.963 . S
C59 C6 3.423 . S
C99 C50 5.138 . S
C90 C19 4.948 1_456 S
C10 C55 3.709 . S
C95 C46 0.567 . S
