# Generated by pormake.
# Topology npo, (4)-cn, num edge types: 1
# Building blocks:
#     Node 0, Type 0, BuildingBlock: KUFVIS_clean_sbu_0, # of connection points: 4
#     Node 1, Type 0, BuildingBlock: KUFVIS_clean_sbu_0, # of connection points: 4
#     Node 2, Type 0, BuildingBlock: KUFVIS_clean_sbu_0, # of connection points: 4
#     Node 3, Type 0, BuildingBlock: KUFVIS_clean_sbu_0, # of connection points: 4
#     Node 4, Type 0, BuildingBlock: KUFVIS_clean_sbu_0, # of connection points: 4
#     Node 5, Type 0, BuildingBlock: KUFVIS_clean_sbu_0, # of connection points: 4
#     Edge 6, Type (0, 0), None
#     Edge 7, Type (0, 0), None
#     Edge 8, Type (0, 0), None
#     Edge 9, Type (0, 0), None
#     Edge 10, Type (0, 0), None
#     Edge 11, Type (0, 0), None
#     Edge 12, Type (0, 0), None
#     Edge 13, Type (0, 0), None
#     Edge 14, Type (0, 0), None
#     Edge 15, Type (0, 0), None
#     Edge 16, Type (0, 0), None
#     Edge 17, Type (0, 0), None
# Relax obj value: 0.272
# Max RMSD: 0.250
# Mean RMSD: 0.235
data_MOF--net-npo--node1-KUFVIS_clean_sbu_0--edge1-none
_symmetry_space_group_name_H-M    P1
_symmetry_Int_Tables_number       1
_symmetry_cell_setting            triclinic
loop_
_symmetry_equiv_pos_as_xyz
'x, y, z'
_cell_length_a     19.187156
_cell_length_b     19.867211
_cell_length_c     10.70271
_cell_angle_alpha  90.004442
_cell_angle_beta   89.150671
_cell_angle_gamma 121.17581
loop_
_atom_site_label
_atom_site_type_symbol
_atom_site_fract_x
_atom_site_fract_y
_atom_site_fract_z
_atom_type_partial_charge
Mn0 Mn 0.53361 0.15943 0.24028 0.0
Mn1 Mn 0.59809 0.04241 0.22785 0.0
C2 C 0.67645 0.22444 0.24882 0.0
C3 C 0.49618 0.24864 0.20747 0.0
C4 C 0.49295 0.03451 0.43329 0.0
O5 O 0.45076 0.06877 0.12509 0.0
O6 O 0.52349 0.01031 0.08298 0.0
C7 C 0.68746 0.99235 0.99693 0.0
N8 N 0.68136 0.03684 0.11975 0.0
C9 C 0.89305 0.10683 0.1463 0.0
C10 C 0.87798 0.0517 0.99877 0.0
C11 C 0.77809 0.99738 0.93328 0.0
C12 C 0.74844 0.08322 0.21005 0.0
H13 H 0.63186 0.95556 0.94757 0.0
C14 C 0.46769 0.02577 0.05541 0.0
O15 O 0.45773 0.19321 0.28784 0.0
O16 O 0.54393 0.24237 0.12674 0.0
N17 N 0.66978 0.0861 0.37573 0.0
C18 C 0.6756 0.14353 0.4673 0.0
C19 C 0.74302 0.18456 0.5657 0.0
C20 C 0.8557 0.15243 0.5875 0.0
C21 C 0.84476 0.09026 0.4788 0.0
C22 C 0.72855 0.06664 0.35174 0.0
H23 H 0.63169 0.16057 0.47291 0.0
O24 O 0.63404 0.24522 0.31623 0.0
O25 O 0.63289 0.1571 0.1878 0.0
O26 O 0.50255 0.10023 0.40866 0.0
O27 O 0.50507 0.99898 0.34704 0.0
C28 C 0.93094 0.10563 0.41684 0.0
C29 C 0.95447 0.11345 0.26289 0.0
H30 H 0.92611 0.04442 0.96069 0.0
H31 H 0.7711 0.96338 0.85046 0.0
H32 H 0.73198 0.22624 0.61721 0.0
H33 H 0.91025 0.17748 0.64467 0.0
H34 H 0.96289 0.10937 0.33511 0.0
H35 H 0.92139 0.10999 0.17947 0.0
Mn36 Mn 0.45152 0.61814 0.77837 0.0
Mn37 Mn 0.38691 0.43664 0.79115 0.0
C38 C 0.30863 0.54035 0.77028 0.0
C39 C 0.48961 0.7451 0.81062 0.0
C40 C 0.49208 0.53375 0.58555 0.0
O41 O 0.53437 0.61029 0.89337 0.0
O42 O 0.46155 0.47917 0.93593 0.0
C43 C 0.29764 0.29741 0.02228 0.0
N44 N 0.30367 0.34791 0.8994 0.0
C45 C 0.09196 0.2062 0.87318 0.0
C46 C 0.10712 0.16626 0.02075 0.0
C47 C 0.20704 0.21187 0.08609 0.0
C48 C 0.23653 0.32715 0.80917 0.0
H49 H 0.35327 0.31626 0.07161 0.0
C50 C 0.51736 0.55045 0.96331 0.0
O51 O 0.52764 0.72766 0.73023 0.0
O52 O 0.44174 0.6913 0.89152 0.0
N53 N 0.31512 0.40859 0.6434 0.0
C54 C 0.30923 0.46015 0.55183 0.0
C55 C 0.24175 0.43371 0.45353 0.0
C56 C 0.12906 0.28889 0.4319 0.0
C57 C 0.14007 0.23772 0.54061 0.0
C58 C 0.25634 0.33037 0.6675 0.0
H59 H 0.35315 0.52108 0.54612 0.0
O60 O 0.35098 0.60352 0.70278 0.0
O61 O 0.35226 0.51665 0.83122 0.0
O62 O 0.4823 0.58978 0.61005 0.0
O63 O 0.47992 0.4861 0.67181 0.0
C64 C 0.05392 0.16694 0.6027 0.0
C65 C 0.03046 0.15131 0.75669 0.0
H66 H 0.059 0.1109 0.05897 0.0
H67 H 0.21408 0.18493 0.16896 0.0
H68 H 0.25275 0.4864 0.40199 0.0
H69 H 0.07449 0.25938 0.3748 0.0
H70 H 0.02201 0.13877 0.68448 0.0
H71 H 0.06359 0.18099 0.84005 0.0
Mn72 Mn 0.84535 0.43763 0.24322 0.0
Mn73 Mn 0.91663 0.31784 0.31124 0.0
C74 C 0.76 0.29281 0.20845 0.0
C75 C 0.76741 0.50212 0.24647 0.0
C76 C 0.96965 0.42355 0.07308 0.0
O77 O 0.92986 0.5067 0.39085 0.0
O78 O 0.95984 0.41415 0.40888 0.0
C79 C 0.87499 0.27829 0.62869 0.0
N80 N 0.87251 0.26323 0.47871 0.0
C81 C 0.72624 0.06595 0.56552 0.0
C82 C 0.74191 0.10264 0.72007 0.0
C83 C 0.81529 0.20561 0.74804 0.0
C84 C 0.82178 0.18516 0.41556 0.0
H85 H 0.90754 0.33692 0.66252 0.0
C86 C 0.96884 0.47866 0.44727 0.0
O87 O 0.83175 0.52632 0.17836 0.0
O88 O 0.75154 0.44449 0.32236 0.0
N89 N 0.87516 0.21762 0.21521 0.0
C90 C 0.85045 0.20095 0.08528 0.0
C91 C 0.80709 0.11624 0.02517 0.0
C92 C 0.77627 0.995 0.15219 0.0
C93 C 0.80786 0.02101 0.29423 0.0
C94 C 0.86188 0.16279 0.3097 0.0
H95 H 0.86125 0.24988 0.02758 0.0
O96 O 0.75917 0.34575 0.13859 0.0
O97 O 0.81762 0.32587 0.29003 0.0
O98 O 0.93444 0.45974 0.10877 0.0
O99 O 0.96864 0.37095 0.14384 0.0
C100 C 0.74767 0.95838 0.40493 0.0
C101 C 0.70908 0.9786 0.5279 0.0
H102 H 0.70393 0.0632 0.79273 0.0
H103 H 0.81776 0.22867 0.83938 0.0
H104 H 0.79593 0.1213 0.93047 0.0
H105 H 0.74242 0.93187 0.13223 0.0
H106 H 0.7252 0.89676 0.38877 0.0
H107 H 0.67449 0.93132 0.59438 0.0
Mn108 Mn 0.41827 0.88227 0.75589 0.0
Mn109 Mn 0.31514 0.96711 0.7253 0.0
C110 C 0.28078 0.8101 0.80481 0.0
C111 C 0.47 0.8024 0.7708 0.0
C112 C 0.42904 0.99817 0.93037 0.0
O113 O 0.4718 0.94108 0.59405 0.0
O114 O 0.42378 0.02141 0.62961 0.0
C115 C 0.28429 0.95331 0.44939 0.0
N116 N 0.25907 0.94924 0.57039 0.0
C117 C 0.14881 0.96501 0.50704 0.0
C118 C 0.17617 0.97381 0.38261 0.0
C119 C 0.24251 0.96497 0.35313 0.0
C120 C 0.18972 0.94833 0.59741 0.0
H121 H 0.3349 0.94689 0.42551 0.0
C122 C 0.46074 0.99642 0.55868 0.0
O123 O 0.50933 0.87232 0.81378 0.0
O124 O 0.40726 0.78237 0.70082 0.0
N125 N 0.21015 0.92474 0.80235 0.0
C126 C 0.18875 0.91048 0.92585 0.0
C127 C 0.11791 0.90808 0.96871 0.0
C128 C 0.07236 0.92402 0.88507 0.0
C129 C 0.09559 0.9383 0.75895 0.0
C130 C 0.16356 0.93498 0.72036 0.0
H131 H 0.22697 0.90381 0.99172 0.0
O132 O 0.33433 0.81748 0.88577 0.0
O133 O 0.3085 0.86339 0.7166 0.0
O134 O 0.46713 0.98459 0.84911 0.0
O135 O 0.36311 0.9923 0.89868 0.0
C136 C 0.05715 0.96077 0.67162 0.0
C137 C 0.08478 0.97536 0.54607 0.0
H138 H 0.14594 0.98599 0.30901 0.0
H139 H 0.26275 0.96926 0.25692 0.0
H140 H 0.10064 0.89769 0.06673 0.0
H141 H 0.02051 0.92677 0.91787 0.0
H142 H 0.00781 0.96892 0.70113 0.0
H143 H 0.05823 0.99673 0.48079 0.0
Mn144 Mn 0.56762 0.45731 0.26278 0.0
Mn145 Mn 0.66931 0.6452 0.29347 0.0
C146 C 0.70505 0.52315 0.21408 0.0
C147 C 0.51614 0.32569 0.24706 0.0
C148 C 0.55596 0.56172 0.08838 0.0
O149 O 0.51383 0.46181 0.42483 0.0
O150 O 0.56061 0.58979 0.38886 0.0
C151 C 0.69999 0.66275 0.5694 0.0
N152 N 0.72499 0.68424 0.44843 0.0
C153 C 0.83139 0.81244 0.51121 0.0
C154 C 0.8043 0.79331 0.63568 0.0
C155 C 0.74014 0.717 0.66546 0.0
C156 C 0.79269 0.75402 0.42125 0.0
H157 H 0.65076 0.60492 0.59327 0.0
C158 C 0.52444 0.52802 0.46022 0.0
O159 O 0.47675 0.35628 0.20446 0.0
O160 O 0.57892 0.36838 0.31696 0.0
N161 N 0.77413 0.70936 0.21675 0.0
C162 C 0.79538 0.71712 0.09314 0.0
C163 C 0.86379 0.78742 0.04959 0.0
C164 C 0.90694 0.84998 0.13264 0.0
C165 C 0.8841 0.84025 0.25899 0.0
C166 C 0.81886 0.76733 0.29829 0.0
H167 H 0.75849 0.67135 0.02761 0.0
O168 O 0.65168 0.47711 0.13279 0.0
O169 O 0.6773 0.5487 0.30236 0.0
O170 O 0.51804 0.51023 0.16992 0.0
O171 O 0.62173 0.62193 0.11992 0.0
C172 C 0.91983 0.90179 0.34575 0.0
C173 C 0.89271 0.88802 0.47157 0.0
H174 H 0.83296 0.83627 0.70905 0.0
H175 H 0.72011 0.70077 0.76168 0.0
H176 H 0.88061 0.79476 0.95137 0.0
H177 H 0.95637 0.90604 0.09909 0.0
H178 H 0.96692 0.96025 0.31583 0.0
H179 H 0.91795 0.9363 0.53653 0.0
Mn180 Mn 0.13985 0.58459 0.77605 0.0
Mn181 Mn 0.06828 0.39354 0.70811 0.0
C182 C 0.22505 0.52505 0.81077 0.0
C183 C 0.21819 0.72683 0.77267 0.0
C184 C 0.01541 0.44638 0.94625 0.0
O185 O 0.05542 0.56932 0.62845 0.0
O186 O 0.02507 0.44665 0.61042 0.0
C187 C 0.10974 0.39544 0.39068 0.0
N188 N 0.1123 0.38293 0.54065 0.0
C189 C 0.25854 0.33188 0.45373 0.0
C190 C 0.2428 0.35284 0.29921 0.0
C191 C 0.16938 0.38241 0.27129 0.0
C192 C 0.16306 0.35562 0.60376 0.0
H193 H 0.07715 0.42148 0.35687 0.0
C194 C 0.01628 0.50231 0.57206 0.0
O195 O 0.15379 0.68699 0.8408 0.0
O196 O 0.23381 0.68492 0.6967 0.0
N197 N 0.10976 0.3348 0.80413 0.0
C198 C 0.13457 0.34295 0.93401 0.0
C199 C 0.17798 0.30165 0.9941 0.0
C200 C 0.20874 0.21115 0.86718 0.0
C201 C 0.17707 0.20547 0.72518 0.0
C202 C 0.12302 0.29322 0.70968 0.0
H203 H 0.12385 0.38117 0.99163 0.0
O204 O 0.22587 0.57875 0.88078 0.0
O205 O 0.16741 0.5005 0.72921 0.0
O206 O 0.05068 0.51777 0.9105 0.0
O207 O 0.01635 0.39475 0.87554 0.0
C208 C 0.23719 0.20296 0.61441 0.0
C209 C 0.27572 0.26171 0.49137 0.0
H210 H 0.28085 0.35145 0.22662 0.0
H211 H 0.16688 0.40301 0.17999 0.0
H212 H 0.18931 0.31804 0.08867 0.0
H213 H 0.24266 0.18194 0.88714 0.0
H214 H 0.25967 0.16382 0.63057 0.0
H215 H 0.31028 0.249 0.42486 0.0
loop_
_geom_bond_atom_site_label_1
_geom_bond_atom_site_label_2
_geom_bond_distance
_geom_bond_site_symmetry_2
_ccdc_geom_bond_type
Mn0 O5 2.095 . S
Mn0 O15 2.162 . S
Mn0 O16 2.297 . S
Mn0 O24 2.385 . S
Mn0 O25 2.209 . S
Mn0 O26 2.094 . S
Mn1 O6 2.121 . S
Mn1 N8 2.257 . S
Mn1 N17 2.282 . S
Mn1 O25 2.215 . S
Mn1 O27 2.117 . S
C2 O24 1.234 . S
C2 O25 1.283 . S
C3 O15 1.281 . S
C3 O16 1.236 . S
C4 O26 1.240 . S
C4 O27 1.264 . S
O5 Mn0 2.095 . S
O5 C14 1.250 . S
O6 Mn1 2.121 . S
O6 C14 1.258 . S
C7 N8 1.326 . S
C7 C11 1.460 1_554 S
C7 H13 0.929 1_554 S
N8 Mn1 2.257 . S
N8 C7 1.326 . S
N8 C12 1.362 . S
C9 C10 1.258 . S
C9 C12 1.431 . S
C9 C29 1.449 1_655 S
C10 C9 1.258 . S
C10 C11 1.477 1_554 S
C10 H30 0.931 1_654 S
C11 C7 1.460 1_556 S
C11 C10 1.477 1_556 S
C11 H31 0.930 . S
C12 N8 1.362 . S
C12 C9 1.431 . S
C12 C22 1.476 . S
H13 C7 0.929 1_556 S
C14 O5 1.250 . S
C14 O6 1.258 . S
O15 Mn0 2.162 . S
O15 C3 1.281 . S
O16 Mn0 2.297 . S
O16 C3 1.236 . S
N17 Mn1 2.282 . S
N17 C18 1.328 . S
N17 C22 1.318 . S
C18 N17 1.328 . S
C18 C19 1.457 . S
C18 H23 0.929 . S
C19 C18 1.457 . S
C19 C20 1.291 . S
C19 H32 0.931 . S
C20 C19 1.291 . S
C20 C21 1.373 . S
C20 H33 0.929 1_655 S
C21 C20 1.373 . S
C21 C22 1.396 . S
C21 C28 1.403 1_655 S
C22 C12 1.476 . S
C22 N17 1.318 . S
C22 C21 1.396 . S
H23 C18 0.929 . S
O24 Mn0 2.385 . S
O24 C2 1.234 . S
O25 Mn0 2.209 . S
O25 Mn1 2.215 . S
O25 C2 1.283 . S
O26 Mn0 2.094 . S
O26 C4 1.240 . S
O27 Mn1 2.117 . S
O27 C4 1.264 . S
C28 C21 1.403 1_455 S
C28 C29 1.399 . S
C28 H34 0.929 . S
C29 C9 1.449 1_455 S
C29 C28 1.399 . S
C29 H35 0.930 . S
H30 C10 0.931 1_456 S
H31 C11 0.930 . S
H32 C19 0.931 . S
H33 C20 0.929 1_455 S
H34 C28 0.929 . S
H35 C29 0.930 . S
Mn36 O41 2.095 . S
Mn36 O51 2.162 . S
Mn36 O52 2.297 . S
Mn36 O60 2.385 . S
Mn36 O61 2.209 . S
Mn36 O62 2.094 . S
Mn37 O42 2.121 . S
Mn37 N44 2.257 . S
Mn37 N53 2.282 . S
Mn37 O61 2.215 . S
Mn37 O63 2.117 . S
C38 O60 1.234 . S
C38 O61 1.283 . S
C39 O51 1.281 . S
C39 O52 1.236 . S
C40 O62 1.240 . S
C40 O63 1.264 . S
O41 Mn36 2.095 . S
O41 C50 1.250 . S
O42 Mn37 2.121 . S
O42 C50 1.258 . S
C43 N44 1.326 . S
C43 C47 1.460 1_556 S
C43 H49 0.929 1_556 S
N44 Mn37 2.257 . S
N44 C43 1.326 . S
N44 C48 1.362 . S
C45 C46 1.258 . S
C45 C48 1.431 . S
C45 C65 1.449 1_455 S
C46 C45 1.258 . S
C46 C47 1.477 1_556 S
C46 H66 0.931 1_456 S
C47 C43 1.460 1_554 S
C47 C46 1.477 1_554 S
C47 H67 0.930 . S
C48 N44 1.362 . S
C48 C45 1.431 . S
C48 C58 1.476 . S
H49 C43 0.929 1_554 S
C50 O41 1.250 . S
C50 O42 1.258 . S
O51 Mn36 2.162 . S
O51 C39 1.281 . S
O52 Mn36 2.297 . S
O52 C39 1.236 . S
N53 Mn37 2.282 . S
N53 C54 1.328 . S
N53 C58 1.318 . S
C54 N53 1.328 . S
C54 C55 1.457 . S
C54 H59 0.929 . S
C55 C54 1.457 . S
C55 C56 1.291 . S
C55 H68 0.931 . S
C56 C55 1.291 . S
C56 C57 1.373 . S
C56 H69 0.929 1_455 S
C57 C56 1.373 . S
C57 C58 1.396 . S
C57 C64 1.403 1_455 S
C58 C48 1.476 . S
C58 N53 1.318 . S
C58 C57 1.396 . S
H59 C54 0.929 . S
O60 Mn36 2.385 . S
O60 C38 1.234 . S
O61 Mn36 2.209 . S
O61 Mn37 2.215 . S
O61 C38 1.283 . S
O62 Mn36 2.094 . S
O62 C40 1.240 . S
O63 Mn37 2.117 . S
O63 C40 1.264 . S
C64 C57 1.403 1_655 S
C64 C65 1.399 . S
C64 H70 0.929 . S
C65 C45 1.449 1_655 S
C65 C64 1.399 . S
C65 H71 0.930 . S
H66 C46 0.931 1_654 S
H67 C47 0.930 . S
H68 C55 0.931 . S
H69 C56 0.929 1_655 S
H70 C64 0.929 . S
H71 C65 0.930 . S
Mn72 O77 2.095 . S
Mn72 O87 2.162 . S
Mn72 O88 2.297 . S
Mn72 O96 2.385 . S
Mn72 O97 2.209 . S
Mn72 O98 2.094 . S
Mn73 O78 2.121 . S
Mn73 N80 2.257 . S
Mn73 N89 2.282 . S
Mn73 O97 2.215 . S
Mn73 O99 2.117 . S
C74 O96 1.234 . S
C74 O97 1.283 . S
C75 O87 1.281 . S
C75 O88 1.236 . S
C76 O98 1.240 . S
C76 O99 1.264 . S
O77 Mn72 2.095 . S
O77 C86 1.250 . S
O78 Mn73 2.121 . S
O78 C86 1.258 . S
C79 N80 1.326 . S
C79 C83 1.460 . S
C79 H85 0.929 . S
N80 Mn73 2.257 . S
N80 C79 1.326 . S
N80 C84 1.362 . S
C81 C82 1.258 . S
C81 C84 1.431 . S
C81 C101 1.449 . S
C82 C81 1.258 . S
C82 C83 1.477 . S
C82 H102 0.931 . S
C83 C79 1.460 . S
C83 C82 1.477 . S
C83 H103 0.930 . S
C84 N80 1.362 . S
C84 C81 1.431 . S
C84 C94 1.476 . S
H85 C79 0.929 . S
C86 O77 1.250 . S
C86 O78 1.258 . S
O87 Mn72 2.162 . S
O87 C75 1.281 . S
O88 Mn72 2.297 . S
O88 C75 1.236 . S
N89 Mn73 2.282 . S
N89 C90 1.328 . S
N89 C94 1.318 . S
C90 N89 1.328 . S
C90 C91 1.457 1_554 S
C90 H95 0.929 . S
C91 C90 1.457 1_556 S
C91 C92 1.291 1_556 S
C91 H104 0.931 . S
C92 C91 1.291 1_554 S
C92 C93 1.373 . S
C92 H105 0.929 . S
C93 C92 1.373 . S
C93 C94 1.396 . S
C93 C100 1.403 . S
C94 C84 1.476 . S
C94 N89 1.318 . S
C94 C93 1.396 . S
H95 C90 0.929 . S
O96 Mn72 2.385 . S
O96 C74 1.234 . S
O97 Mn72 2.209 . S
O97 Mn73 2.215 . S
O97 C74 1.283 . S
O98 Mn72 2.094 . S
O98 C76 1.240 . S
O99 Mn73 2.117 . S
O99 C76 1.264 . S
C100 C93 1.403 . S
C100 C101 1.399 . S
C100 H106 0.929 . S
C101 C81 1.449 . S
C101 C100 1.399 . S
C101 H107 0.930 . S
H102 C82 0.931 . S
H103 C83 0.930 . S
H104 C91 0.931 . S
H105 C92 0.929 . S
H106 C100 0.929 . S
H107 C101 0.930 . S
Mn108 O113 2.095 . S
Mn108 O123 2.162 . S
Mn108 O124 2.297 . S
Mn108 O132 2.385 . S
Mn108 O133 2.209 . S
Mn108 O134 2.094 . S
Mn109 O114 2.121 . S
Mn109 N116 2.257 . S
Mn109 N125 2.282 . S
Mn109 O133 2.215 . S
Mn109 O135 2.117 . S
C110 O132 1.234 . S
C110 O133 1.283 . S
C111 O123 1.281 . S
C111 O124 1.236 . S
C112 O134 1.246 . S
C112 O135 1.268 . S
O113 Mn108 2.095 . S
O113 C122 1.243 1_565 S
O114 Mn109 2.121 . S
O114 C122 1.264 1_565 S
C115 N116 1.326 . S
C115 C119 1.460 . S
C115 H121 0.929 . S
N116 Mn109 2.257 . S
N116 C115 1.326 . S
N116 C120 1.362 . S
C117 C118 1.258 . S
C117 C120 1.431 . S
C117 C137 1.449 . S
C118 C117 1.258 . S
C118 C119 1.477 . S
C118 H138 0.931 . S
C119 C115 1.460 . S
C119 C118 1.477 . S
C119 H139 0.930 . S
C120 N116 1.362 . S
C120 C117 1.431 . S
C120 C130 1.476 . S
H121 C115 0.929 . S
C122 O113 1.243 1_545 S
C122 O114 1.264 1_545 S
O123 Mn108 2.162 . S
O123 C111 1.281 . S
O124 Mn108 2.297 . S
O124 C111 1.236 . S
N125 Mn109 2.282 . S
N125 C126 1.328 . S
N125 C130 1.318 . S
C126 N125 1.328 . S
C126 C127 1.457 1_556 S
C126 H131 0.929 1_556 S
C127 C126 1.457 1_554 S
C127 C128 1.291 1_554 S
C127 H140 0.931 . S
C128 C127 1.291 1_556 S
C128 C129 1.373 . S
C128 H141 0.929 1_556 S
C129 C128 1.373 . S
C129 C130 1.396 . S
C129 C136 1.403 . S
C130 C120 1.476 . S
C130 N125 1.318 . S
C130 C129 1.396 . S
H131 C126 0.929 1_554 S
O132 Mn108 2.385 . S
O132 C110 1.234 . S
O133 Mn108 2.209 . S
O133 Mn109 2.215 . S
O133 C110 1.283 . S
O134 Mn108 2.094 . S
O134 C112 1.246 . S
O135 Mn109 2.117 . S
O135 C112 1.268 . S
C136 C129 1.403 . S
C136 C137 1.399 . S
C136 H142 0.929 1_455 S
C137 C117 1.449 . S
C137 C136 1.399 . S
C137 H143 0.930 1_455 S
H138 C118 0.931 . S
H139 C119 0.930 . S
H140 C127 0.931 . S
H141 C128 0.929 1_554 S
H142 C136 0.929 1_655 S
H143 C137 0.930 1_655 S
Mn144 O149 2.095 . S
Mn144 O159 2.162 . S
Mn144 O160 2.297 . S
Mn144 O168 2.385 . S
Mn144 O169 2.209 . S
Mn144 O170 2.094 . S
Mn145 O150 2.121 . S
Mn145 N152 2.257 . S
Mn145 N161 2.282 . S
Mn145 O169 2.215 . S
Mn145 O171 2.117 . S
C146 O168 1.234 . S
C146 O169 1.283 . S
C147 O159 1.281 . S
C147 O160 1.236 . S
C148 O170 1.240 . S
C148 O171 1.264 . S
O149 Mn144 2.095 . S
O149 C158 1.250 . S
O150 Mn145 2.121 . S
O150 C158 1.258 . S
C151 N152 1.326 . S
C151 C155 1.460 . S
C151 H157 0.929 . S
N152 Mn145 2.257 . S
N152 C151 1.326 . S
N152 C156 1.362 . S
C153 C154 1.258 . S
C153 C156 1.431 . S
C153 C173 1.449 . S
C154 C153 1.258 . S
C154 C155 1.477 . S
C154 H174 0.931 . S
C155 C151 1.460 . S
C155 C154 1.477 . S
C155 H175 0.930 . S
C156 N152 1.362 . S
C156 C153 1.431 . S
C156 C166 1.476 . S
H157 C151 0.929 . S
C158 O149 1.250 . S
C158 O150 1.258 . S
O159 Mn144 2.162 . S
O159 C147 1.281 . S
O160 Mn144 2.297 . S
O160 C147 1.236 . S
N161 Mn145 2.282 . S
N161 C162 1.328 . S
N161 C166 1.318 . S
C162 N161 1.328 . S
C162 C163 1.457 1_554 S
C162 H167 0.929 1_554 S
C163 C162 1.457 1_556 S
C163 C164 1.291 1_556 S
C163 H176 0.931 . S
C164 C163 1.291 1_554 S
C164 C165 1.373 . S
C164 H177 0.929 1_554 S
C165 C164 1.373 . S
C165 C166 1.396 . S
C165 C172 1.403 . S
C166 C156 1.476 . S
C166 N161 1.318 . S
C166 C165 1.396 . S
H167 C162 0.929 1_556 S
O168 Mn144 2.385 . S
O168 C146 1.234 . S
O169 Mn144 2.209 . S
O169 Mn145 2.215 . S
O169 C146 1.283 . S
O170 Mn144 2.094 . S
O170 C148 1.240 . S
O171 Mn145 2.117 . S
O171 C148 1.264 . S
C172 C165 1.403 . S
C172 C173 1.399 . S
C172 H178 0.929 1_655 S
C173 C153 1.449 . S
C173 C172 1.399 . S
C173 H179 0.930 1_655 S
H174 C154 0.931 . S
H175 C155 0.930 . S
H176 C163 0.931 . S
H177 C164 0.929 1_556 S
H178 C172 0.929 1_455 S
H179 C173 0.930 1_455 S
Mn180 O185 2.095 . S
Mn180 O195 2.162 . S
Mn180 O196 2.297 . S
Mn180 O204 2.385 . S
Mn180 O205 2.209 . S
Mn180 O206 2.094 . S
Mn181 O186 2.121 . S
Mn181 N188 2.257 . S
Mn181 N197 2.282 . S
Mn181 O205 2.215 . S
Mn181 O207 2.117 . S
C182 O204 1.234 . S
C182 O205 1.283 . S
C183 O195 1.281 . S
C183 O196 1.236 . S
C184 O206 1.240 . S
C184 O207 1.264 . S
O185 Mn180 2.095 . S
O185 C194 1.250 . S
O186 Mn181 2.121 . S
O186 C194 1.258 . S
C187 N188 1.326 . S
C187 C191 1.460 . S
C187 H193 0.929 . S
N188 Mn181 2.257 . S
N188 C187 1.326 . S
N188 C192 1.362 . S
C189 C190 1.258 . S
C189 C192 1.431 . S
C189 C209 1.449 . S
C190 C189 1.258 . S
C190 C191 1.477 . S
C190 H210 0.931 . S
C191 C187 1.460 . S
C191 C190 1.477 . S
C191 H211 0.930 . S
C192 N188 1.362 . S
C192 C189 1.431 . S
C192 C202 1.476 . S
H193 C187 0.929 . S
C194 O185 1.250 . S
C194 O186 1.258 . S
O195 Mn180 2.162 . S
O195 C183 1.281 . S
O196 Mn180 2.297 . S
O196 C183 1.236 . S
N197 Mn181 2.282 . S
N197 C198 1.328 . S
N197 C202 1.318 . S
C198 N197 1.328 . S
C198 C199 1.457 1_556 S
C198 H203 0.929 . S
C199 C198 1.457 1_554 S
C199 C200 1.291 1_554 S
C199 H212 0.931 . S
C200 C199 1.291 1_556 S
C200 C201 1.373 . S
C200 H213 0.929 . S
C201 C200 1.373 . S
C201 C202 1.396 . S
C201 C208 1.403 . S
C202 C192 1.476 . S
C202 N197 1.318 . S
C202 C201 1.396 . S
H203 C198 0.929 . S
O204 Mn180 2.385 . S
O204 C182 1.234 . S
O205 Mn180 2.209 . S
O205 Mn181 2.215 . S
O205 C182 1.283 . S
O206 Mn180 2.094 . S
O206 C184 1.240 . S
O207 Mn181 2.117 . S
O207 C184 1.264 . S
C208 C201 1.403 . S
C208 C209 1.399 . S
C208 H214 0.929 . S
C209 C189 1.449 . S
C209 C208 1.399 . S
C209 H215 0.930 . S
H210 C190 0.931 . S
H211 C191 0.930 . S
H212 C199 0.931 . S
H213 C200 0.929 . S
H214 C208 0.929 . S
H215 C209 0.930 . S
C3 C147 1.532 . S
C38 C182 1.603 . S
C2 C74 1.603 . S
C111 C39 1.532 . S
C146 C75 1.540 . S
C110 C183 1.540 . S
C112 C14 1.388 1_566 S
C158 C40 1.390 . S
C184 C76 1.521 1_456 S
C4 C122 1.393 . S
C50 C148 1.389 1_556 S
C194 C86 1.307 1_455 S
