# Generated by pormake.
# Topology unc, (4)-cn, num edge types: 1
# Building blocks:
#     Node 0, Type 0, BuildingBlock: GALJAG_clean_sbu_0, # of connection points: 4
#     Node 1, Type 0, BuildingBlock: GALJAG_clean_sbu_0, # of connection points: 4
#     Node 2, Type 0, BuildingBlock: GALJAG_clean_sbu_0, # of connection points: 4
#     Node 3, Type 0, BuildingBlock: GALJAG_clean_sbu_0, # of connection points: 4
#     Edge 4, Type (0, 0), BuildingBlock: EYOCIG_clean_linker_4, # of connection points: 2
#     Edge 5, Type (0, 0), BuildingBlock: EYOCIG_clean_linker_4, # of connection points: 2
#     Edge 6, Type (0, 0), BuildingBlock: EYOCIG_clean_linker_4, # of connection points: 2
#     Edge 7, Type (0, 0), BuildingBlock: EYOCIG_clean_linker_4, # of connection points: 2
#     Edge 8, Type (0, 0), BuildingBlock: EYOCIG_clean_linker_4, # of connection points: 2
#     Edge 9, Type (0, 0), BuildingBlock: EYOCIG_clean_linker_4, # of connection points: 2
#     Edge 10, Type (0, 0), BuildingBlock: EYOCIG_clean_linker_4, # of connection points: 2
#     Edge 11, Type (0, 0), BuildingBlock: EYOCIG_clean_linker_4, # of connection points: 2
# Relax obj value: 0.013
# Max RMSD: 0.034
# Mean RMSD: 0.034
data_MOF--net-unc--node1-GALJAG_clean_sbu_0--edge1-EYOCIG_clean_linker_4
_symmetry_space_group_name_H-M    P1
_symmetry_Int_Tables_number       1
_symmetry_cell_setting            triclinic
loop_
_symmetry_equiv_pos_as_xyz
'x, y, z'
_cell_length_a     24.939719
_cell_length_b     24.938528
_cell_length_c     16.154749
_cell_angle_alpha  89.972719
_cell_angle_beta   90.021882
_cell_angle_gamma 89.99072
loop_
_atom_site_label
_atom_site_type_symbol
_atom_site_fract_x
_atom_site_fract_y
_atom_site_fract_z
_atom_type_partial_charge
In0 In 0.00243 0.68099 0.99516 0.0
O1 O 0.08241 0.72473 0.98457 0.0
O2 O 0.0317 0.74274 0.08765 0.0
C3 C 1.00201 0.6073 0.87428 0.0
C4 C 0.93207 0.75385 0.93997 0.0
C5 C 1.00154 0.60805 0.11731 0.0
O6 O 0.04328 0.63475 0.8907 0.0
O7 O 0.96079 0.61835 0.91602 0.0
O8 O 0.9607 0.63605 0.10038 0.0
O9 O 0.04292 0.61817 0.07538 0.0
C10 C 0.07476 0.75203 0.04942 0.0
O11 O 0.92352 0.72681 0.00485 0.0
O12 O 0.97495 0.74333 0.90204 0.0
In13 In 0.32376 0.00232 0.24559 0.0
O14 O 0.27974 0.92238 0.25455 0.0
O15 O 0.26208 0.97379 0.15216 0.0
C16 C 0.39702 1.00056 0.36714 0.0
C17 C 0.25194 0.07322 0.30238 0.0
C18 C 0.39716 0.00481 0.12421 0.0
O19 O 0.36916 0.95979 0.34947 0.0
O20 O 0.38668 0.04231 0.32617 0.0
O21 O 0.36884 0.04529 0.14168 0.0
O22 O 0.38713 0.96297 0.16514 0.0
C23 C 0.25265 0.93046 0.18962 0.0
O24 O 0.2786 0.08173 0.23716 0.0
O25 O 0.26212 0.02999 0.33959 0.0
In26 In 1.00224 0.32384 0.49549 0.0
O27 O 0.08146 0.27872 0.50739 0.0
O28 O 0.03134 0.26176 0.40318 0.0
C29 C 1.00198 0.39773 0.6159 0.0
C30 C 0.93009 0.25262 0.54982 0.0
C31 C 1.00223 0.39809 0.37538 0.0
O32 O 0.04315 0.36998 0.60003 0.0
O33 O 0.96073 0.38661 0.57423 0.0
O34 O 0.96127 0.36997 0.3909 0.0
O35 O 0.04353 0.38704 0.41702 0.0
C36 C 0.0739 0.25163 0.44231 0.0
O37 O 0.9228 0.2792 0.48412 0.0
O38 O 0.97275 0.26262 0.58874 0.0
In39 In 0.68081 0.00268 0.74577 0.0
O40 O 0.72671 0.92374 0.73641 0.0
O41 O 0.74275 0.97503 0.83952 0.0
C42 C 0.60663 1.00073 0.62563 0.0
C43 C 0.75171 0.07468 0.68999 0.0
C44 C 0.6068 0.00433 0.866 0.0
O45 O 0.63479 0.96001 0.64263 0.0
O46 O 0.61756 0.0426 0.66586 0.0
O47 O 0.63492 0.04505 0.84903 0.0
O48 O 0.61768 0.96248 0.82565 0.0
C49 C 0.75351 0.93223 0.80153 0.0
O50 O 0.725 0.08242 0.75536 0.0
O51 O 0.74189 0.03169 0.65187 0.0
C52 C 1.00055 0.52672 0.222 0.0
C53 C 1.0 0.56405 0.17456 0.0
C54 C 1.00089 0.48137 0.27439 0.0
C55 C 1.00081 0.44322 0.32025 0.0
C56 C 0.47831 0.99867 0.4718 0.0
C57 C 0.44101 0.99859 0.42432 0.0
C58 C 0.52359 0.99865 0.5243 0.0
C59 C 0.56168 0.99863 0.57025 0.0
C60 C 0.00242 0.52555 0.77052 0.0
C61 C 0.00293 0.563 0.81766 0.0
C62 C 0.00247 0.48034 0.71798 0.0
C63 C 0.00301 0.44248 0.67164 0.0
C64 C 0.47874 0.00707 0.02018 0.0
C65 C 0.44128 0.00713 0.06731 0.0
C66 C 0.52402 0.00679 0.96772 0.0
C67 C 0.56197 0.0065 0.92154 0.0
C68 C 0.18052 0.86202 0.13424 0.0
C69 C 0.21354 0.89303 0.16 0.0
C70 C 0.14324 0.82451 0.10351 0.0
C71 C 0.11231 0.7913 0.07812 0.0
C72 C 0.17926 0.14078 0.35872 0.0
C73 C 0.2125 0.11012 0.33263 0.0
C74 C 0.14188 0.17827 0.38934 0.0
C75 C 0.11116 0.21186 0.41416 0.0
C76 C 0.82407 0.14304 0.63514 0.0
C77 C 0.79095 0.11208 0.66071 0.0
C78 C 0.8615 0.1804 0.60442 0.0
C79 C 0.8925 0.21348 0.57884 0.0
C80 C 0.82764 0.86546 0.85581 0.0
C81 C 0.79375 0.89581 0.83076 0.0
C82 C 0.8652 0.82793 0.88583 0.0
C83 C 0.89558 0.79406 0.91085 0.0
loop_
_geom_bond_atom_site_label_1
_geom_bond_atom_site_label_2
_geom_bond_distance
_geom_bond_site_symmetry_2
_ccdc_geom_bond_type
In0 O1 2.294 1_554 S
In0 O2 2.326 . S
In0 O6 2.266 1_554 S
In0 O7 2.326 1_454 S
In0 O8 2.266 1_455 S
In0 O9 2.326 . S
In0 O11 2.294 1_455 S
In0 O12 2.326 1_454 S
O1 In0 2.294 1_556 S
O1 C10 1.240 1_556 S
O2 In0 2.326 . S
O2 C10 1.252 . S
C3 O6 1.253 . S
C3 O7 1.259 1_455 S
C4 O11 1.240 1_556 S
C4 O12 1.252 . S
C5 O8 1.253 1_455 S
C5 O9 1.259 . S
O6 In0 2.266 1_556 S
O6 C3 1.253 . S
O7 In0 2.326 1_656 S
O7 C3 1.259 1_655 S
O8 In0 2.266 1_655 S
O8 C5 1.253 1_655 S
O9 In0 2.326 . S
O9 C5 1.259 . S
C10 O1 1.240 1_554 S
C10 O2 1.252 . S
O11 In0 2.294 1_655 S
O11 C4 1.240 1_554 S
O12 In0 2.326 1_656 S
O12 C4 1.252 . S
In13 O14 2.294 1_545 S
In13 O15 2.326 1_545 S
In13 O19 2.266 1_545 S
In13 O20 2.326 . S
In13 O21 2.266 . S
In13 O22 2.326 1_545 S
In13 O24 2.294 . S
In13 O25 2.326 . S
O14 In13 2.294 1_565 S
O14 C23 1.240 . S
O15 In13 2.326 1_565 S
O15 C23 1.252 . S
C16 O19 1.253 1_545 S
C16 O20 1.259 . S
C17 O24 1.240 . S
C17 O25 1.252 . S
C18 O21 1.253 . S
C18 O22 1.259 1_545 S
O19 In13 2.266 1_565 S
O19 C16 1.253 1_565 S
O20 In13 2.326 . S
O20 C16 1.259 . S
O21 In13 2.266 . S
O21 C18 1.253 . S
O22 In13 2.326 1_565 S
O22 C18 1.259 1_565 S
C23 O14 1.240 . S
C23 O15 1.252 . S
O24 In13 2.294 . S
O24 C17 1.240 . S
O25 In13 2.326 . S
O25 C17 1.252 . S
In26 O27 2.294 . S
In26 O28 2.326 . S
In26 O32 2.266 . S
In26 O33 2.326 1_455 S
In26 O34 2.266 1_455 S
In26 O35 2.326 . S
In26 O37 2.294 1_455 S
In26 O38 2.326 1_455 S
O27 In26 2.294 . S
O27 C36 1.240 . S
O28 In26 2.326 . S
O28 C36 1.252 . S
C29 O32 1.253 . S
C29 O33 1.259 1_455 S
C30 O37 1.240 . S
C30 O38 1.252 . S
C31 O34 1.253 1_455 S
C31 O35 1.259 . S
O32 In26 2.266 . S
O32 C29 1.253 . S
O33 In26 2.326 1_655 S
O33 C29 1.259 1_655 S
O34 In26 2.266 1_655 S
O34 C31 1.253 1_655 S
O35 In26 2.326 . S
O35 C31 1.259 . S
C36 O27 1.240 . S
C36 O28 1.252 . S
O37 In26 2.294 1_655 S
O37 C30 1.240 . S
O38 In26 2.326 1_655 S
O38 C30 1.252 . S
In39 O40 2.294 1_545 S
In39 O41 2.326 1_545 S
In39 O45 2.266 1_545 S
In39 O46 2.326 . S
In39 O47 2.266 . S
In39 O48 2.326 1_545 S
In39 O50 2.294 . S
In39 O51 2.326 . S
O40 In39 2.294 1_565 S
O40 C49 1.240 . S
O41 In39 2.326 1_565 S
O41 C49 1.252 . S
C42 O45 1.253 1_545 S
C42 O46 1.259 . S
C43 O50 1.240 . S
C43 O51 1.252 . S
C44 O47 1.253 . S
C44 O48 1.259 1_545 S
O45 In39 2.266 1_565 S
O45 C42 1.253 1_565 S
O46 In39 2.326 . S
O46 C42 1.259 . S
O47 In39 2.266 . S
O47 C44 1.253 . S
O48 In39 2.326 1_565 S
O48 C44 1.259 1_565 S
C49 O40 1.240 . S
C49 O41 1.252 . S
O50 In39 2.294 . S
O50 C43 1.240 . S
O51 In39 2.326 . S
O51 C43 1.252 . S
C52 C53 1.170 1_455 S
C52 C54 1.380 . S
C53 C52 1.170 1_655 S
C54 C52 1.380 . S
C54 C55 1.170 . S
C55 C54 1.170 . S
C56 C57 1.170 . S
C56 C58 1.380 . S
C57 C56 1.170 . S
C58 C56 1.380 . S
C58 C59 1.170 . S
C59 C58 1.170 . S
C60 C61 1.171 . S
C60 C62 1.380 . S
C61 C60 1.171 . S
C62 C60 1.380 . S
C62 C63 1.170 . S
C63 C62 1.170 . S
C64 C65 1.170 . S
C64 C66 1.380 1_554 S
C65 C64 1.170 . S
C66 C64 1.380 1_556 S
C66 C67 1.170 . S
C67 C66 1.170 . S
C68 C69 1.170 . S
C68 C70 1.380 . S
C69 C68 1.170 . S
C70 C68 1.380 . S
C70 C71 1.170 . S
C71 C70 1.170 . S
C72 C73 1.170 . S
C72 C74 1.380 . S
C73 C72 1.170 . S
C74 C72 1.380 . S
C74 C75 1.170 . S
C75 C74 1.170 . S
C76 C77 1.170 . S
C76 C78 1.380 . S
C77 C76 1.170 . S
C78 C76 1.380 . S
C78 C79 1.170 . S
C79 C78 1.170 . S
C80 C81 1.170 . S
C80 C82 1.380 . S
C81 C80 1.170 . S
C82 C80 1.380 . S
C82 C83 1.170 . S
C83 C82 1.170 . S
C53 C5 1.474 1_655 S
C55 C31 1.465 . S
C57 C16 1.474 1_565 S
C59 C42 1.467 1_565 S
C61 C3 1.472 1_655 S
C63 C29 1.469 1_655 S
C65 C18 1.473 . S
C67 C44 1.469 . S
C69 C23 1.544 . S
C71 C10 1.544 . S
C73 C17 1.542 . S
C75 C36 1.542 . S
C77 C43 1.544 . S
C79 C30 1.544 . S
C81 C49 1.544 . S
C83 C4 1.548 . S
