# Generated by pormake.
# Topology acs, (6)-cn, num edge types: 1
# Building blocks:
#     Node 0, Type 0, BuildingBlock: IZENUY_clean_sbu_0, # of connection points: 6
#     Node 1, Type 0, BuildingBlock: IZENUY_clean_sbu_0, # of connection points: 6
#     Edge 2, Type (0, 0), BuildingBlock: KIFKEQ_clean_linker_1, # of connection points: 2
#     Edge 3, Type (0, 0), BuildingBlock: KIFKEQ_clean_linker_1, # of connection points: 2
#     Edge 4, Type (0, 0), BuildingBlock: KIFKEQ_clean_linker_1, # of connection points: 2
#     Edge 5, Type (0, 0), BuildingBlock: KIFKEQ_clean_linker_1, # of connection points: 2
#     Edge 6, Type (0, 0), BuildingBlock: KIFKEQ_clean_linker_1, # of connection points: 2
#     Edge 7, Type (0, 0), BuildingBlock: KIFKEQ_clean_linker_1, # of connection points: 2
# Relax obj value: 0.000
# Max RMSD: 0.012
# Mean RMSD: 0.012
data_MOF--net-acs--node1-IZENUY_clean_sbu_0--edge1-KIFKEQ_clean_linker_1
_symmetry_space_group_name_H-M    P1
_symmetry_Int_Tables_number       1
_symmetry_cell_setting            triclinic
loop_
_symmetry_equiv_pos_as_xyz
'x, y, z'
_cell_length_a     20.883605
_cell_length_b     20.904692
_cell_length_c     21.110775
_cell_angle_alpha  89.999631
_cell_angle_beta   90.032272
_cell_angle_gamma 120.06344
loop_
_atom_site_label
_atom_site_type_symbol
_atom_site_fract_x
_atom_site_fract_y
_atom_site_fract_z
_atom_type_partial_charge
Fe0 Fe 0.63317 0.3273 0.22765 0.0
Fe1 Fe 0.78009 0.32715 0.2262 0.0
O2 O 0.73128 0.37634 0.22797 0.0
Fe3 Fe 0.78027 0.4743 0.22985 0.0
O4 O 0.73733 0.47586 0.30391 0.0
O5 O 0.62369 0.39546 0.2756 0.0
O6 O 0.62979 0.28065 0.30095 0.0
C7 C 0.65986 0.24188 0.30906 0.0
C8 C 0.66063 0.43963 0.14608 0.0
O9 O 0.71049 0.24799 0.27214 0.0
C10 C 0.86527 0.44975 0.14567 0.0
O11 O 0.62411 0.24988 0.17959 0.0
O12 O 0.73791 0.28372 0.1515 0.0
O13 O 0.71153 0.48417 0.18286 0.0
O14 O 0.63018 0.37075 0.15434 0.0
C15 C 0.86341 0.43553 0.31172 0.0
O16 O 0.85857 0.39732 0.18034 0.0
O17 O 0.82699 0.47995 0.15589 0.0
C18 C 0.66914 0.2451 0.14246 0.0
O19 O 0.82601 0.36719 0.3005 0.0
O20 O 0.85755 0.48202 0.27735 0.0
C21 C 0.66855 0.4456 0.31265 0.0
Fe22 Fe 0.49611 0.75871 0.72775 0.0
Fe23 Fe 0.34905 0.75856 0.72582 0.0
O24 O 0.39799 0.70958 0.72761 0.0
Fe25 Fe 0.34913 0.61155 0.72945 0.0
O26 O 0.39152 0.61036 0.80405 0.0
O27 O 0.50527 0.6904 0.77578 0.0
O28 O 0.4993 0.80526 0.80107 0.0
C29 C 0.46892 0.84372 0.80933 0.0
C30 C 0.46914 0.64647 0.64635 0.0
O31 O 0.41797 0.83731 0.77262 0.0
C32 C 0.26559 0.6365 0.64414 0.0
O33 O 0.50548 0.8363 0.67978 0.0
O34 O 0.39178 0.80294 0.65166 0.0
O35 O 0.41856 0.60194 0.68332 0.0
O36 O 0.49929 0.71536 0.65444 0.0
C37 C 0.2643 0.64911 0.81021 0.0
O38 O 0.27158 0.68888 0.67854 0.0
O39 O 0.303 0.60558 0.65525 0.0
C40 C 0.46054 0.84149 0.64279 0.0
O41 O 0.30257 0.7176 0.79989 0.0
O42 O 0.27084 0.6033 0.77552 0.0
C43 C 0.46031 0.64057 0.81297 0.0
H44 H 0.4203 0.9398 0.83801 0.0
H45 H 0.58331 0.88021 0.89223 0.0
H46 H 0.46972 1.03799 0.91684 0.0
H47 H 0.63187 0.97785 0.97192 0.0
H48 H 0.74818 0.20992 0.05985 0.0
H49 H 0.69986 0.1133 -0.02081 0.0
H50 H 0.4767 0.05337 0.03142 0.0
H51 H 0.5247 0.15048 0.11117 0.0
C52 C 0.46647 0.94736 0.8669 0.0
C53 C 0.4979 0.90212 0.85861 0.0
C54 C 0.49457 1.0035 0.91233 0.0
C55 C 0.55479 1.01582 0.95061 0.0
C56 C 0.58608 0.97044 0.94257 0.0
C57 C 0.55789 0.91414 0.89716 0.0
C58 C 0.6888 0.17631 0.05401 0.0
C59 C 0.64035 0.18793 0.09214 0.0
C60 C 0.66113 0.12061 0.00805 0.0
C61 C 0.58443 0.07549 -0.00098 0.0
C62 C 0.53608 0.08765 0.03669 0.0
C63 C 0.56367 0.14316 0.08268 0.0
H64 H 0.58382 0.72449 0.56386 0.0
H65 H 0.41984 0.50174 0.61699 0.0
H66 H 0.63198 0.67548 0.48385 0.0
H67 H 0.46883 0.45303 0.53776 0.0
H68 H 0.52398 0.3965 0.34297 0.0
H69 H 0.47607 0.44553 0.42286 0.0
H70 H 0.69932 0.60731 0.47663 0.0
H71 H 0.74754 0.55908 0.39596 0.0
C72 C 0.5581 0.66511 0.55862 0.0
C73 C 0.49797 0.61708 0.59697 0.0
C74 C 0.58605 0.63705 0.51302 0.0
C75 C 0.55436 0.56036 0.50455 0.0
C76 C 0.49399 0.51239 0.54262 0.0
C77 C 0.46615 0.54039 0.58828 0.0
C78 C 0.56298 0.44246 0.37183 0.0
C79 C 0.63966 0.47397 0.36283 0.0
C80 C 0.53544 0.47033 0.41788 0.0
C81 C 0.58387 0.53041 0.45603 0.0
C82 C 0.66055 0.56162 0.4474 0.0
C83 C 0.68816 0.53364 0.40141 0.0
H84 H 0.96201 0.40268 0.11522 0.0
H85 H 0.90045 0.56491 0.0639 0.0
H86 H 1.05893 0.45258 0.03553 0.0
H87 H 0.99698 0.61399 -0.01699 0.0
H88 H 0.22867 0.72928 0.89131 0.0
H89 H 0.13227 0.68198 0.97232 0.0
H90 H 0.07158 0.45844 0.92145 0.0
H91 H 0.16838 0.50533 0.84164 0.0
C92 C 0.96885 0.4488 0.08676 0.0
C93 C 0.92332 0.47976 0.09608 0.0
C94 C 1.02429 0.47719 0.04078 0.0
C95 C 1.03563 0.53717 0.00277 0.0
C96 C 0.99023 0.56829 0.01202 0.0
C97 C 0.9346 0.53983 0.05812 0.0
C98 C 0.19484 0.67004 0.8975 0.0
C99 C 0.2064 0.62115 0.85994 0.0
C100 C 0.13928 0.64295 0.94365 0.0
C101 C 0.09425 0.56643 0.95338 0.0
C102 C 0.10592 0.5177 0.91582 0.0
C103 C 0.16129 0.54468 0.86976 0.0
H104 H 0.60503 0.93667 0.61197 0.0
H105 H 0.38141 0.8762 0.55988 0.0
H106 H 0.65283 1.03359 0.53204 0.0
H107 H 0.42952 0.97263 0.47915 0.0
H108 H 0.54549 0.20548 0.39182 0.0
H109 H 0.49725 0.10821 0.47179 0.0
H110 H 0.65955 0.04818 0.41716 0.0
H111 H 0.70862 0.14596 0.33799 0.0
C112 C 0.56599 0.94374 0.5833 0.0
C113 C 0.48933 0.89872 0.59257 0.0
C114 C 0.59347 0.99913 0.53722 0.0
C115 C 0.54499 1.01092 0.4993 0.0
C116 C 0.46833 0.9656 0.50819 0.0
C117 C 0.44078 0.91002 0.55421 0.0
C118 C 0.57099 0.17163 0.39689 0.0
C119 C 0.63092 0.18356 0.35837 0.0
C120 C 0.543 0.11557 0.44247 0.0
C121 C 0.57446 0.07036 0.45074 0.0
C122 C 0.63459 0.08256 0.41247 0.0
C123 C 0.66247 0.13845 0.36684 0.0
H124 H 0.60483 0.69027 0.84384 0.0
H125 H 0.38141 0.52663 0.89591 0.0
H126 H 0.65294 0.64125 0.92356 0.0
H127 H 0.42984 0.47843 0.97652 0.0
H128 H 0.54602 0.36169 0.06339 0.0
H129 H 0.49753 0.41075 -0.01632 0.0
H130 H 0.66036 0.63316 0.03816 0.0
H131 H 0.70972 0.5844 0.11704 0.0
C132 C 0.56589 0.64408 0.87249 0.0
C133 C 0.4892 0.61226 0.86325 0.0
C134 C 0.59355 0.61623 0.91845 0.0
C135 C 0.54525 0.55585 0.95632 0.0
C136 C 0.46853 0.52436 0.9475 0.0
C137 C 0.4408 0.55232 0.90157 0.0
C138 C 0.57161 0.42106 0.05832 0.0
C139 C 0.63176 0.46907 0.09674 0.0
C140 C 0.54346 0.44916 0.0129 0.0
C141 C 0.57494 0.52586 0.00469 0.0
C142 C 0.63534 0.5738 0.04281 0.0
C143 C 0.66341 0.54577 0.08827 0.0
H144 H 0.22139 0.71277 0.56916 0.0
H145 H 0.18097 0.49288 0.60728 0.0
H146 H 0.12595 0.66404 0.48788 0.0
H147 H 0.08145 0.44261 0.5296 0.0
H148 H 0.94907 0.37743 0.34746 0.0
H149 H 1.04852 0.42663 0.42521 0.0
H150 H 1.00168 0.60142 0.46929 0.0
H151 H 0.90634 0.55487 0.3879 0.0
C152 C 0.1913 0.65375 0.56042 0.0
C153 C 0.20848 0.60657 0.59426 0.0
C154 C 0.13592 0.62547 0.51422 0.0
C155 C 0.09483 0.54892 0.502 0.0
C156 C 0.1124 0.50189 0.53633 0.0
C157 C 0.16923 0.53054 0.58129 0.0
C158 C 0.96028 0.42634 0.37399 0.0
C159 C 0.92042 0.4626 0.36166 0.0
C160 C 1.01707 0.45448 0.41899 0.0
C161 C 1.03396 0.51849 0.45399 0.0
C162 C 0.99224 0.55338 0.44242 0.0
C163 C 0.93692 0.52637 0.39616 0.0
loop_
_geom_bond_atom_site_label_1
_geom_bond_atom_site_label_2
_geom_bond_distance
_geom_bond_site_symmetry_2
_ccdc_geom_bond_type
Fe0 O2 1.918 . S
Fe0 O5 1.997 . S
Fe0 O6 2.002 . S
Fe0 O11 1.976 . S
Fe0 O14 1.996 . S
Fe1 O2 1.918 . S
Fe1 O9 1.997 . S
Fe1 O12 1.996 . S
Fe1 O16 1.976 . S
Fe1 O19 2.002 . S
O2 Fe0 1.918 . S
O2 Fe1 1.918 . S
O2 Fe3 1.918 . S
Fe3 O2 1.918 . S
Fe3 O4 2.002 . S
Fe3 O13 1.976 . S
Fe3 O17 1.996 . S
Fe3 O20 1.997 . S
O4 Fe3 2.002 . S
O4 C21 1.295 . S
O5 Fe0 1.997 . S
O5 C21 1.235 . S
O6 Fe0 2.002 . S
O6 C7 1.295 . S
C7 O6 1.295 . S
C7 O9 1.235 . S
C8 O13 1.287 . S
C8 O14 1.255 . S
O9 Fe1 1.997 . S
O9 C7 1.235 . S
C10 O16 1.287 . S
C10 O17 1.255 . S
O11 Fe0 1.976 . S
O11 C18 1.287 . S
O12 Fe1 1.996 . S
O12 C18 1.255 . S
O13 Fe3 1.976 . S
O13 C8 1.287 . S
O14 Fe0 1.996 . S
O14 C8 1.255 . S
C15 O19 1.295 . S
C15 O20 1.235 . S
O16 Fe1 1.976 . S
O16 C10 1.287 . S
O17 Fe3 1.996 . S
O17 C10 1.255 . S
C18 O11 1.287 . S
C18 O12 1.255 . S
O19 Fe1 2.002 . S
O19 C15 1.295 . S
O20 Fe3 1.997 . S
O20 C15 1.235 . S
C21 O4 1.295 . S
C21 O5 1.235 . S
Fe22 O24 1.918 . S
Fe22 O27 1.997 . S
Fe22 O28 2.002 . S
Fe22 O33 1.976 . S
Fe22 O36 1.996 . S
Fe23 O24 1.918 . S
Fe23 O31 1.997 . S
Fe23 O34 1.996 . S
Fe23 O38 1.976 . S
Fe23 O41 2.002 . S
O24 Fe22 1.918 . S
O24 Fe23 1.918 . S
O24 Fe25 1.918 . S
Fe25 O24 1.918 . S
Fe25 O26 2.002 . S
Fe25 O35 1.976 . S
Fe25 O39 1.996 . S
Fe25 O42 1.997 . S
O26 Fe25 2.002 . S
O26 C43 1.295 . S
O27 Fe22 1.997 . S
O27 C43 1.235 . S
O28 Fe22 2.002 . S
O28 C29 1.295 . S
C29 O28 1.295 . S
C29 O31 1.235 . S
C30 O35 1.287 . S
C30 O36 1.255 . S
O31 Fe23 1.997 . S
O31 C29 1.235 . S
C32 O38 1.287 . S
C32 O39 1.255 . S
O33 Fe22 1.976 . S
O33 C40 1.287 . S
O34 Fe23 1.996 . S
O34 C40 1.255 . S
O35 Fe25 1.976 . S
O35 C30 1.287 . S
O36 Fe22 1.996 . S
O36 C30 1.255 . S
C37 O41 1.295 . S
C37 O42 1.235 . S
O38 Fe23 1.976 . S
O38 C32 1.287 . S
O39 Fe25 1.996 . S
O39 C32 1.255 . S
C40 O33 1.287 . S
C40 O34 1.255 . S
O41 Fe23 2.002 . S
O41 C37 1.295 . S
O42 Fe25 1.997 . S
O42 C37 1.235 . S
C43 O26 1.295 . S
C43 O27 1.235 . S
H44 C52 0.950 . S
H45 C57 0.950 . S
H46 C54 0.950 . S
H47 C56 0.950 1_554 S
H48 C58 0.950 . S
H49 C60 0.950 1_565 S
H50 C62 0.950 1_556 S
H51 C63 0.950 . S
C52 H44 0.950 . S
C52 C53 1.386 . S
C52 C54 1.391 . S
C53 C52 1.386 . S
C53 C57 1.393 . S
C54 H46 0.950 . S
C54 C52 1.391 . S
C54 C55 1.400 . S
C55 C54 1.400 . S
C55 C56 1.398 . S
C55 C61 1.491 1_566 S
C56 H47 0.950 1_556 S
C56 C55 1.398 . S
C56 C57 1.391 . S
C57 H45 0.950 . S
C57 C53 1.393 . S
C57 C56 1.391 . S
C58 H48 0.950 . S
C58 C59 1.386 . S
C58 C60 1.391 . S
C59 C58 1.386 . S
C59 C63 1.393 . S
C60 H49 0.950 1_545 S
C60 C58 1.391 . S
C60 C61 1.400 . S
C61 C55 1.491 1_544 S
C61 C60 1.400 . S
C61 C62 1.398 . S
C62 H50 0.950 1_554 S
C62 C61 1.398 . S
C62 C63 1.391 . S
C63 H51 0.950 . S
C63 C59 1.393 . S
C63 C62 1.391 . S
H64 C72 0.950 . S
H65 C77 0.950 . S
H66 C74 0.950 . S
H67 C76 0.950 . S
H68 C78 0.950 . S
H69 C80 0.950 . S
H70 C82 0.950 . S
H71 C83 0.950 . S
C72 H64 0.950 . S
C72 C73 1.386 . S
C72 C74 1.391 . S
C73 C72 1.386 . S
C73 C77 1.393 . S
C74 H66 0.950 . S
C74 C72 1.391 . S
C74 C75 1.400 . S
C75 C74 1.400 . S
C75 C76 1.398 . S
C75 C81 1.491 . S
C76 H67 0.950 . S
C76 C75 1.398 . S
C76 C77 1.391 . S
C77 H65 0.950 . S
C77 C73 1.393 . S
C77 C76 1.391 . S
C78 H68 0.950 . S
C78 C79 1.386 . S
C78 C80 1.391 . S
C79 C78 1.386 . S
C79 C83 1.393 . S
C80 H69 0.950 . S
C80 C78 1.391 . S
C80 C81 1.400 . S
C81 C75 1.491 . S
C81 C80 1.400 . S
C81 C82 1.398 . S
C82 H70 0.950 . S
C82 C81 1.398 . S
C82 C83 1.391 . S
C83 H71 0.950 . S
C83 C79 1.393 . S
C83 C82 1.391 . S
H84 C92 0.950 . S
H85 C97 0.950 . S
H86 C94 0.950 1_455 S
H87 C96 0.950 1_556 S
H88 C98 0.950 . S
H89 C100 0.950 1_655 S
H90 C102 0.950 1_554 S
H91 C103 0.950 . S
C92 H84 0.950 . S
C92 C93 1.386 . S
C92 C94 1.391 . S
C93 C92 1.386 . S
C93 C97 1.393 . S
C94 H86 0.950 1_655 S
C94 C92 1.391 . S
C94 C95 1.400 . S
C95 C94 1.400 . S
C95 C96 1.398 . S
C95 C101 1.491 1_654 S
C96 H87 0.950 1_554 S
C96 C95 1.398 . S
C96 C97 1.391 . S
C97 H85 0.950 . S
C97 C93 1.393 . S
C97 C96 1.391 . S
C98 H88 0.950 . S
C98 C99 1.386 . S
C98 C100 1.391 . S
C99 C98 1.386 . S
C99 C103 1.393 . S
C100 H89 0.950 1_455 S
C100 C98 1.391 . S
C100 C101 1.400 . S
C101 C95 1.491 1_456 S
C101 C100 1.400 . S
C101 C102 1.398 . S
C102 H90 0.950 1_556 S
C102 C101 1.398 . S
C102 C103 1.391 . S
C103 H91 0.950 . S
C103 C99 1.393 . S
C103 C102 1.391 . S
H104 C112 0.950 . S
H105 C117 0.950 . S
H106 C114 0.950 . S
H107 C116 0.950 . S
H108 C118 0.950 . S
H109 C120 0.950 . S
H110 C122 0.950 . S
H111 C123 0.950 . S
C112 H104 0.950 . S
C112 C113 1.386 . S
C112 C114 1.391 . S
C113 C112 1.386 . S
C113 C117 1.393 . S
C114 H106 0.950 . S
C114 C112 1.391 . S
C114 C115 1.400 . S
C115 C114 1.400 . S
C115 C116 1.398 . S
C115 C121 1.491 1_565 S
C116 H107 0.950 . S
C116 C115 1.398 . S
C116 C117 1.391 . S
C117 H105 0.950 . S
C117 C113 1.393 . S
C117 C116 1.391 . S
C118 H108 0.950 . S
C118 C119 1.386 . S
C118 C120 1.391 . S
C119 C118 1.386 . S
C119 C123 1.393 . S
C120 H109 0.950 . S
C120 C118 1.391 . S
C120 C121 1.400 . S
C121 C115 1.491 1_545 S
C121 C120 1.400 . S
C121 C122 1.398 . S
C122 H110 0.950 . S
C122 C121 1.398 . S
C122 C123 1.391 . S
C123 H111 0.950 . S
C123 C119 1.393 . S
C123 C122 1.391 . S
H124 C132 0.950 . S
H125 C137 0.950 . S
H126 C134 0.950 . S
H127 C136 0.950 1_554 S
H128 C138 0.950 . S
H129 C140 0.950 . S
H130 C142 0.950 1_556 S
H131 C143 0.950 . S
C132 H124 0.950 . S
C132 C133 1.386 . S
C132 C134 1.391 . S
C133 C132 1.386 . S
C133 C137 1.393 . S
C134 H126 0.950 . S
C134 C132 1.391 . S
C134 C135 1.400 . S
C135 C134 1.400 . S
C135 C136 1.398 . S
C135 C141 1.491 1_556 S
C136 H127 0.950 1_556 S
C136 C135 1.398 . S
C136 C137 1.391 . S
C137 H125 0.950 . S
C137 C133 1.393 . S
C137 C136 1.391 . S
C138 H128 0.950 . S
C138 C139 1.386 . S
C138 C140 1.391 . S
C139 C138 1.386 . S
C139 C143 1.393 . S
C140 H129 0.950 . S
C140 C138 1.391 . S
C140 C141 1.400 . S
C141 C135 1.491 1_554 S
C141 C140 1.400 . S
C141 C142 1.398 . S
C142 H130 0.950 1_554 S
C142 C141 1.398 . S
C142 C143 1.391 . S
C143 H131 0.950 . S
C143 C139 1.393 . S
C143 C142 1.391 . S
H144 C152 0.950 . S
H145 C157 0.950 . S
H146 C154 0.950 1_655 S
H147 C156 0.950 . S
H148 C158 0.950 . S
H149 C160 0.950 1_455 S
H150 C162 0.950 . S
H151 C163 0.950 . S
C152 H144 0.950 . S
C152 C153 1.386 . S
C152 C154 1.391 . S
C153 C152 1.386 . S
C153 C157 1.393 . S
C154 H146 0.950 1_455 S
C154 C152 1.391 . S
C154 C155 1.400 . S
C155 C154 1.400 . S
C155 C156 1.398 . S
C155 C161 1.491 1_455 S
C156 H147 0.950 . S
C156 C155 1.398 . S
C156 C157 1.391 . S
C157 H145 0.950 . S
C157 C153 1.393 . S
C157 C156 1.391 . S
C158 H148 0.950 . S
C158 C159 1.386 . S
C158 C160 1.391 . S
C159 C158 1.386 . S
C159 C163 1.393 . S
C160 H149 0.950 1_655 S
C160 C158 1.391 . S
C160 C161 1.400 . S
C161 C155 1.491 1_655 S
C161 C160 1.400 . S
C161 C162 1.398 . S
C162 H150 0.950 . S
C162 C161 1.398 . S
C162 C163 1.391 . S
C163 H151 0.950 . S
C163 C159 1.393 . S
C163 C162 1.391 . S
C53 C29 1.493 . S
C59 C18 1.499 . S
C73 C30 1.496 . S
C79 C21 1.482 . S
C93 C10 1.499 . S
C99 C37 1.491 . S
C113 C40 1.499 . S
C119 C7 1.493 . S
C133 C43 1.493 . S
C139 C8 1.499 . S
C153 C32 1.499 . S
C159 C15 1.490 . S
