# Generated by pormake.
# Topology dmp, (4)-cn, num edge types: 1
# Building blocks:
#     Node 0, Type 0, BuildingBlock: GALJAG_clean_sbu_0, # of connection points: 4
#     Node 1, Type 0, BuildingBlock: GALJAG_clean_sbu_0, # of connection points: 4
#     Node 2, Type 0, BuildingBlock: GALJAG_clean_sbu_0, # of connection points: 4
#     Node 3, Type 0, BuildingBlock: GALJAG_clean_sbu_0, # of connection points: 4
#     Edge 4, Type (0, 0), BuildingBlock: XIVTED_clean_linker_0, # of connection points: 2
#     Edge 5, Type (0, 0), BuildingBlock: XIVTED_clean_linker_0, # of connection points: 2
#     Edge 6, Type (0, 0), BuildingBlock: XIVTED_clean_linker_0, # of connection points: 2
#     Edge 7, Type (0, 0), BuildingBlock: XIVTED_clean_linker_0, # of connection points: 2
#     Edge 8, Type (0, 0), BuildingBlock: XIVTED_clean_linker_0, # of connection points: 2
#     Edge 9, Type (0, 0), BuildingBlock: XIVTED_clean_linker_0, # of connection points: 2
#     Edge 10, Type (0, 0), BuildingBlock: XIVTED_clean_linker_0, # of connection points: 2
#     Edge 11, Type (0, 0), BuildingBlock: XIVTED_clean_linker_0, # of connection points: 2
# Relax obj value: 0.059
# Max RMSD: 0.179
# Mean RMSD: 0.179
data_MOF--net-dmp--node1-GALJAG_clean_sbu_0--edge1-XIVTED_clean_linker_0
_symmetry_space_group_name_H-M    P1
_symmetry_Int_Tables_number       1
_symmetry_cell_setting            triclinic
loop_
_symmetry_equiv_pos_as_xyz
'x, y, z'
_cell_length_a     36.569989
_cell_length_b     21.415078
_cell_length_c     12.613925
_cell_angle_alpha  90.013076
_cell_angle_beta   90.629291
_cell_angle_gamma 90.042182
loop_
_atom_site_label
_atom_site_type_symbol
_atom_site_fract_x
_atom_site_fract_y
_atom_site_fract_z
_atom_type_partial_charge
In0 In 0.12543 0.24483 0.25596 0.0
O1 O 0.14097 0.30397 0.1115 0.0
O2 O 0.177 0.3023 0.24565 0.0
C3 C 0.08555 0.1553 0.15846 0.0
C4 C 0.08219 0.33198 0.34408 0.0
C5 C 0.168 0.16729 0.37132 0.0
O6 O 0.11306 0.17965 0.11504 0.0
O7 O 0.07801 0.17736 0.24801 0.0
O8 O 0.13612 0.18168 0.4 0.0
O9 O 0.17834 0.19278 0.28673 0.0
C10 C 0.17046 0.32296 0.15373 0.0
O11 O 0.10614 0.30285 0.39735 0.0
O12 O 0.08022 0.31697 0.24769 0.0
In13 In 0.37055 0.75098 0.24768 0.0
O14 O 0.35963 0.81307 0.39146 0.0
O15 O 0.31392 0.78023 0.30288 0.0
C16 C 0.41277 0.66592 0.34755 0.0
C17 C 0.40871 0.84265 0.15104 0.0
C18 C 0.33342 0.67364 0.11614 0.0
O19 O 0.38071 0.67797 0.37787 0.0
O20 O 0.42349 0.69819 0.27044 0.0
O21 O 0.31999 0.72442 0.14858 0.0
O22 O 0.36603 0.66413 0.14515 0.0
C23 C 0.3254 0.81363 0.37848 0.0
O24 O 0.38796 0.80628 0.09956 0.0
O25 O 0.40963 0.83295 0.24918 0.0
In26 In 0.87954 0.74479 0.75805 0.0
O27 O 0.90368 0.69769 0.61131 0.0
O28 O 0.91383 0.6572 0.76281 0.0
C29 C 0.84596 0.8443 0.6716 0.0
C30 C 0.82294 0.68062 0.83991 0.0
C31 C 0.93177 0.81083 0.85856 0.0
O32 O 0.85253 0.79598 0.61717 0.0
O33 O 0.85596 0.84152 0.76747 0.0
O34 O 0.90456 0.78845 0.90681 0.0
O35 O 0.93295 0.79818 0.76089 0.0
C36 C 0.91894 0.65469 0.66431 0.0
O37 O 0.85251 0.68799 0.89102 0.0
O38 O 0.82207 0.70604 0.74992 0.0
In39 In 0.61469 0.24546 0.72332 0.0
O40 O 0.64121 0.18697 0.5914 0.0
O41 O 0.67355 0.21317 0.72496 0.0
C42 C 0.56272 0.30972 0.61865 0.0
C43 C 0.57582 0.15555 0.8197 0.0
C44 C 0.64604 0.34478 0.81815 0.0
O45 O 0.59213 0.29316 0.57474 0.0
O46 O 0.55928 0.29187 0.71335 0.0
O47 O 0.64355 0.29284 0.86544 0.0
O48 O 0.63302 0.34578 0.72526 0.0
C49 C 0.67189 0.18443 0.63802 0.0
O50 O 0.58953 0.2009 0.87056 0.0
O51 O 0.58251 0.15523 0.72196 0.0
H52 H 0.34592 0.91875 0.48585 0.0
H53 H 0.14426 0.06061 0.46698 0.0
H54 H 0.25078 0.81324 0.38842 0.0
H55 H 0.24194 0.16299 0.38964 0.0
H56 H 0.18232 0.96978 0.51388 0.0
H57 H 0.30623 0.00711 0.52863 0.0
C58 C 0.31659 0.91341 0.47683 0.0
C59 C 0.30157 0.85914 0.43174 0.0
C60 C 0.19534 0.01283 0.48956 0.0
C61 C 0.25631 0.95957 0.48075 0.0
C62 C 0.17376 0.06457 0.46341 0.0
C63 C 0.19016 0.11877 0.42356 0.0
C64 C 0.23342 0.01627 0.47772 0.0
C65 C 0.22837 0.12163 0.41918 0.0
C66 C 0.29405 0.96391 0.50075 0.0
C67 C 0.26342 0.85471 0.4216 0.0
N68 N 0.24876 0.07085 0.44516 0.0
N69 N 0.24205 0.90471 0.44453 0.0
H70 H 0.15181 0.42297 0.02919 0.0
H71 H 0.35542 0.55692 0.05955 0.0
H72 H 0.24424 0.32767 0.16905 0.0
H73 H 0.26005 0.67537 0.06742 0.0
H74 H 0.31579 0.46678 0.02893 0.0
H75 H 0.19268 0.50912 0.97761 0.0
C76 C 0.18083 0.4195 0.04627 0.0
C77 C 0.19483 0.36881 0.10413 0.0
C78 C 0.30363 0.51274 0.03486 0.0
C79 C 0.24129 0.46573 0.0447 0.0
C80 C 0.3262 0.56428 0.05188 0.0
C81 C 0.31091 0.62351 0.06837 0.0
C82 C 0.26555 0.52052 0.03393 0.0
C83 C 0.27289 0.63032 0.05661 0.0
C84 C 0.20399 0.46857 0.01736 0.0
C85 C 0.23246 0.36642 0.12537 0.0
N86 N 0.25136 0.57913 0.04191 0.0
N87 N 0.25438 0.41435 0.09607 0.0
H88 H 0.74359 0.19807 0.68861 0.0
H89 H 0.79386 0.85107 0.51288 0.0
H90 H 0.66953 0.08104 0.50914 0.0
H91 H 0.85426 0.96316 0.73847 0.0
H92 H 0.75541 0.94244 0.47085 0.0
H93 H 0.79191 0.12149 0.66356 0.0
C94 C 0.73773 0.15658 0.64223 0.0
C95 C 0.70246 0.14521 0.60239 0.0
C96 C 0.77755 0.94715 0.52798 0.0
C97 C 0.75737 0.05639 0.57565 0.0
C98 C 0.79951 0.89525 0.55157 0.0
C99 C 0.82679 0.89971 0.63025 0.0
C100 C 0.78346 0.00355 0.58277 0.0
C101 C 0.83309 0.95766 0.67847 0.0
C102 C 0.76528 0.11273 0.62816 0.0
C103 C 0.69639 0.09118 0.5417 0.0
N104 N 0.81144 0.00708 0.65455 0.0
N105 N 0.72344 0.04791 0.53195 0.0
H106 H 0.82533 0.58345 0.98208 0.0
H107 H 0.63059 0.46566 0.77759 0.0
H108 H 0.75199 0.68659 0.77743 0.0
H109 H 0.70488 0.34861 0.95553 0.0
H110 H 0.66891 0.55574 0.81777 0.0
H111 H 0.77667 0.50615 0.01122 0.0
C112 C 0.79873 0.59056 0.94547 0.0
C113 C 0.79269 0.64076 0.87599 0.0
C114 C 0.67674 0.51066 0.84959 0.0
C115 C 0.7373 0.55316 0.90857 0.0
C116 C 0.65478 0.45927 0.82682 0.0
C117 C 0.66498 0.39976 0.86212 0.0
C118 C 0.7097 0.50234 0.90598 0.0
C119 C 0.69627 0.39393 0.92659 0.0
C120 C 0.77107 0.5464 0.96171 0.0
C121 C 0.7579 0.64797 0.8303 0.0
N122 N 0.71809 0.44453 0.94469 0.0
N123 N 0.73168 0.60437 0.84657 0.0
H124 H 0.09528 0.0971 0.96669 0.0
H125 H 0.93156 0.85499 0.06184 0.0
H126 H 0.02833 0.09398 0.24631 0.0
H127 H 0.99092 0.86682 0.76867 0.0
H128 H 0.97083 0.93659 0.13644 0.0
H129 H 0.06045 0.00801 0.89632 0.0
C130 C 0.07322 0.07777 0.013 0.0
C131 C 0.06454 0.10303 0.11212 0.0
C132 C 0.97544 0.92109 0.05598 0.0
C133 C 0.02495 0.00118 0.03309 0.0
C134 C 0.95314 0.87428 0.01363 0.0
C135 C 0.95791 0.8544 0.90888 0.0
C136 C 0.00267 0.94824 0.99302 0.0
C137 C 0.98626 0.881 0.84978 0.0
C138 C 0.05344 0.0269 0.97308 0.0
C139 C 0.03585 0.07612 0.16927 0.0
N140 N 0.00746 0.92686 0.89248 0.0
N141 N 0.01712 0.02671 0.12896 0.0
H142 H 0.54035 0.05941 0.72119 0.0
H143 H 0.449 0.93198 0.25138 0.0
H144 H 0.55657 0.14469 0.02819 0.0
H145 H 0.42084 0.86302 0.93949 0.0
H146 H 0.4898 0.00827 0.17144 0.0
H147 H 0.49849 0.98431 0.8004 0.0
C148 C 0.53522 0.06214 0.80548 0.0
C149 C 0.55196 0.1083 0.86838 0.0
C150 C 0.47462 0.97669 0.12029 0.0
C151 C 0.50395 0.02266 0.95936 0.0
C152 C 0.4513 0.93311 0.16584 0.0
C153 C 0.43158 0.89109 0.1018 0.0
C154 C 0.47849 0.97807 0.0098 0.0
C155 C 0.43554 0.89469 0.99159 0.0
C156 C 0.51119 0.0194 0.85051 0.0
C157 C 0.54427 0.10979 0.97695 0.0
N158 N 0.45873 0.93729 0.94898 0.0
N159 N 0.5208 0.06752 0.01907 0.0
H160 H 0.95831 0.56518 0.76734 0.0
H161 H 0.03397 0.4076 0.23939 0.0
H162 H 0.93249 0.63381 0.45367 0.0
H163 H 0.07545 0.36493 0.55269 0.0
H164 H 0.99359 0.486 0.31604 0.0
H165 H -0.00199 0.48648 0.6896 0.0
C166 C 0.96093 0.56356 0.68192 0.0
C167 C 0.94212 0.6061 0.61672 0.0
C168 C 0.01156 0.4596 0.36801 0.0
C169 C 0.98759 0.51606 0.52723 0.0
C170 C 0.03457 0.41477 0.32441 0.0
C171 C 0.05807 0.37978 0.38996 0.0
C172 C 0.01185 0.46918 0.47806 0.0
C173 C 0.05778 0.39099 0.4994 0.0
C174 C 0.9837 0.51872 0.63766 0.0
C175 C 0.94655 0.6019 0.50669 0.0
N176 N 0.03493 0.43465 0.54011 0.0
N177 N 0.96883 0.55754 0.46528 0.0
H178 H 0.48003 0.62885 0.28308 0.0
H179 H 0.49662 0.347 0.69405 0.0
H180 H 0.39538 0.58383 0.50635 0.0
H181 H 0.57088 0.37568 0.43499 0.0
H182 H 0.45888 0.43293 0.62763 0.0
H183 H 0.51442 0.53777 0.34241 0.0
C184 C 0.46878 0.59997 0.34526 0.0
C185 C 0.43482 0.61392 0.39009 0.0
C186 C 0.48321 0.42002 0.58469 0.0
C187 C 0.47396 0.50908 0.45771 0.0
C188 C 0.50469 0.37084 0.62227 0.0
C189 C 0.53697 0.35444 0.57002 0.0
C190 C 0.49433 0.45335 0.49484 0.0
C191 C 0.54618 0.38681 0.47755 0.0
C192 C 0.48834 0.54769 0.37857 0.0
C193 C 0.42153 0.57478 0.47003 0.0
N194 N 0.52513 0.43517 0.44346 0.0
N195 N 0.44117 0.52403 0.50143 0.0
loop_
_geom_bond_atom_site_label_1
_geom_bond_atom_site_label_2
_geom_bond_distance
_geom_bond_site_symmetry_2
_ccdc_geom_bond_type
In0 O1 2.294 . S
In0 O2 2.326 . S
In0 O6 2.266 . S
In0 O7 2.326 . S
In0 O8 2.266 . S
In0 O9 2.326 . S
In0 O11 2.294 . S
In0 O12 2.326 . S
O1 In0 2.294 . S
O1 C10 1.240 . S
O2 In0 2.326 . S
O2 C10 1.252 . S
C3 O6 1.252 . S
C3 O7 1.260 . S
C4 O11 1.240 . S
C4 O12 1.252 . S
C5 O8 1.252 . S
C5 O9 1.260 . S
O6 In0 2.266 . S
O6 C3 1.252 . S
O7 In0 2.326 . S
O7 C3 1.260 . S
O8 In0 2.266 . S
O8 C5 1.252 . S
O9 In0 2.326 . S
O9 C5 1.260 . S
C10 O1 1.240 . S
C10 O2 1.252 . S
O11 In0 2.294 . S
O11 C4 1.240 . S
O12 In0 2.326 . S
O12 C4 1.252 . S
In13 O14 2.294 . S
In13 O15 2.326 . S
In13 O19 2.266 . S
In13 O20 2.326 . S
In13 O21 2.266 . S
In13 O22 2.326 . S
In13 O24 2.294 . S
In13 O25 2.326 . S
O14 In13 2.294 . S
O14 C23 1.240 . S
O15 In13 2.326 . S
O15 C23 1.252 . S
C16 O19 1.252 . S
C16 O20 1.260 . S
C17 O24 1.240 . S
C17 O25 1.252 . S
C18 O21 1.252 . S
C18 O22 1.260 . S
O19 In13 2.266 . S
O19 C16 1.252 . S
O20 In13 2.326 . S
O20 C16 1.260 . S
O21 In13 2.266 . S
O21 C18 1.252 . S
O22 In13 2.326 . S
O22 C18 1.260 . S
C23 O14 1.240 . S
C23 O15 1.252 . S
O24 In13 2.294 . S
O24 C17 1.240 . S
O25 In13 2.326 . S
O25 C17 1.252 . S
In26 O27 2.294 . S
In26 O28 2.326 . S
In26 O32 2.266 . S
In26 O33 2.326 . S
In26 O34 2.266 . S
In26 O35 2.326 . S
In26 O37 2.294 . S
In26 O38 2.326 . S
O27 In26 2.294 . S
O27 C36 1.240 . S
O28 In26 2.326 . S
O28 C36 1.252 . S
C29 O32 1.252 . S
C29 O33 1.260 . S
C30 O37 1.240 . S
C30 O38 1.252 . S
C31 O34 1.252 . S
C31 O35 1.260 . S
O32 In26 2.266 . S
O32 C29 1.252 . S
O33 In26 2.326 . S
O33 C29 1.260 . S
O34 In26 2.266 . S
O34 C31 1.252 . S
O35 In26 2.326 . S
O35 C31 1.260 . S
C36 O27 1.240 . S
C36 O28 1.252 . S
O37 In26 2.294 . S
O37 C30 1.240 . S
O38 In26 2.326 . S
O38 C30 1.252 . S
In39 O40 2.294 . S
In39 O41 2.326 . S
In39 O45 2.266 . S
In39 O46 2.326 . S
In39 O47 2.266 . S
In39 O48 2.326 . S
In39 O50 2.294 . S
In39 O51 2.326 . S
O40 In39 2.294 . S
O40 C49 1.240 . S
O41 In39 2.326 . S
O41 C49 1.252 . S
C42 O45 1.252 . S
C42 O46 1.260 . S
C43 O50 1.240 . S
C43 O51 1.252 . S
C44 O47 1.252 . S
C44 O48 1.260 . S
O45 In39 2.266 . S
O45 C42 1.252 . S
O46 In39 2.326 . S
O46 C42 1.260 . S
O47 In39 2.266 . S
O47 C44 1.252 . S
O48 In39 2.326 . S
O48 C44 1.260 . S
C49 O40 1.240 . S
C49 O41 1.252 . S
O50 In39 2.294 . S
O50 C43 1.240 . S
O51 In39 2.326 . S
O51 C43 1.252 . S
H52 C58 0.930 . S
H53 C62 0.930 . S
H54 C67 0.929 . S
H55 C65 0.929 . S
H56 C60 0.929 1_565 S
H57 C66 0.929 1_545 S
C58 H52 0.930 . S
C58 C59 1.367 . S
C58 C66 1.378 . S
C59 C58 1.367 . S
C59 C67 1.433 . S
C60 H56 0.929 1_545 S
C60 C62 1.378 . S
C60 C64 1.350 . S
C61 C64 1.463 1_565 S
C61 C66 1.350 . S
C61 N69 1.427 . S
C62 H53 0.930 . S
C62 C60 1.378 . S
C62 C63 1.367 . S
C63 C62 1.367 . S
C63 C65 1.433 . S
C64 C60 1.350 . S
C64 C61 1.463 1_545 S
C64 N68 1.427 . S
C65 H55 0.929 . S
C65 C63 1.433 . S
C65 N68 1.384 . S
C66 H57 0.929 1_565 S
C66 C58 1.378 . S
C66 C61 1.350 . S
C67 H54 0.929 . S
C67 C59 1.433 . S
C67 N69 1.384 . S
N68 C64 1.427 . S
N68 C65 1.384 . S
N69 C61 1.427 . S
N69 C67 1.384 . S
H70 C76 0.930 . S
H71 C80 0.930 . S
H72 C85 0.929 . S
H73 C83 0.929 . S
H74 C78 0.929 . S
H75 C84 0.929 . S
C76 H70 0.930 . S
C76 C77 1.367 . S
C76 C84 1.378 . S
C77 C76 1.367 . S
C77 C85 1.433 . S
C78 H74 0.929 . S
C78 C80 1.378 . S
C78 C82 1.350 . S
C79 C82 1.463 . S
C79 C84 1.350 . S
C79 N87 1.427 . S
C80 H71 0.930 . S
C80 C78 1.378 . S
C80 C81 1.367 . S
C81 C80 1.367 . S
C81 C83 1.433 . S
C82 C78 1.350 . S
C82 C79 1.463 . S
C82 N86 1.427 . S
C83 H73 0.929 . S
C83 C81 1.433 . S
C83 N86 1.384 . S
C84 H75 0.929 . S
C84 C76 1.378 . S
C84 C79 1.350 . S
C85 H72 0.929 . S
C85 C77 1.433 . S
C85 N87 1.384 . S
N86 C82 1.427 . S
N86 C83 1.384 . S
N87 C79 1.427 . S
N87 C85 1.384 . S
H88 C94 0.930 . S
H89 C98 0.930 . S
H90 C103 0.929 . S
H91 C101 0.929 . S
H92 C96 0.929 . S
H93 C102 0.929 . S
C94 H88 0.930 . S
C94 C95 1.367 . S
C94 C102 1.378 . S
C95 C94 1.367 . S
C95 C103 1.433 . S
C96 H92 0.929 . S
C96 C98 1.378 . S
C96 C100 1.350 . S
C97 C100 1.463 1_545 S
C97 C102 1.350 . S
C97 N105 1.427 . S
C98 H89 0.930 . S
C98 C96 1.378 . S
C98 C99 1.367 . S
C99 C98 1.367 . S
C99 C101 1.433 . S
C100 C96 1.350 . S
C100 C97 1.463 1_565 S
C100 N104 1.427 . S
C101 H91 0.929 . S
C101 C99 1.433 . S
C101 N104 1.384 . S
C102 H93 0.929 . S
C102 C94 1.378 . S
C102 C97 1.350 . S
C103 H90 0.929 . S
C103 C95 1.433 . S
C103 N105 1.384 . S
N104 C100 1.427 . S
N104 C101 1.384 . S
N105 C97 1.427 . S
N105 C103 1.384 . S
H106 C112 0.930 . S
H107 C116 0.930 . S
H108 C121 0.929 . S
H109 C119 0.929 . S
H110 C114 0.929 . S
H111 C120 0.929 . S
C112 H106 0.930 . S
C112 C113 1.367 . S
C112 C120 1.378 . S
C113 C112 1.367 . S
C113 C121 1.433 . S
C114 H110 0.929 . S
C114 C116 1.378 . S
C114 C118 1.350 . S
C115 C118 1.463 . S
C115 C120 1.350 . S
C115 N123 1.427 . S
C116 H107 0.930 . S
C116 C114 1.378 . S
C116 C117 1.367 . S
C117 C116 1.367 . S
C117 C119 1.433 . S
C118 C114 1.350 . S
C118 C115 1.463 . S
C118 N122 1.427 . S
C119 H109 0.929 . S
C119 C117 1.433 . S
C119 N122 1.384 . S
C120 H111 0.929 . S
C120 C112 1.378 . S
C120 C115 1.350 . S
C121 H108 0.929 . S
C121 C113 1.433 . S
C121 N123 1.384 . S
N122 C118 1.427 . S
N122 C119 1.384 . S
N123 C115 1.427 . S
N123 C121 1.384 . S
H124 C130 0.930 . S
H125 C134 0.930 . S
H126 C139 0.929 . S
H127 C137 0.929 . S
H128 C132 0.929 1_545 S
H129 C138 0.929 1_565 S
C130 H124 0.930 . S
C130 C131 1.367 . S
C130 C138 1.378 . S
C131 C130 1.367 . S
C131 C139 1.433 . S
C132 H128 0.929 1_565 S
C132 C134 1.378 . S
C132 C136 1.350 . S
C133 C136 1.463 1_444 S
C133 C138 1.350 . S
C133 N141 1.427 1_454 S
C134 H125 0.930 . S
C134 C132 1.378 . S
C134 C135 1.367 . S
C135 C134 1.367 . S
C135 C137 1.433 . S
C136 C132 1.350 . S
C136 C133 1.463 1_666 S
C136 N140 1.427 1_656 S
C137 H127 0.929 . S
C137 C135 1.433 . S
C137 N140 1.384 1_656 S
C138 H129 0.929 1_545 S
C138 C130 1.378 . S
C138 C133 1.350 . S
C139 H126 0.929 . S
C139 C131 1.433 . S
C139 N141 1.384 1_454 S
N140 C136 1.427 1_454 S
N140 C137 1.384 1_454 S
N141 C133 1.427 1_656 S
N141 C139 1.384 1_656 S
H142 C148 0.930 . S
H143 C152 0.930 . S
H144 C157 0.929 . S
H145 C155 0.929 . S
H146 C150 0.929 1_545 S
H147 C156 0.929 1_565 S
C148 H142 0.930 . S
C148 C149 1.367 . S
C148 C156 1.378 . S
C149 C148 1.367 . S
C149 C157 1.433 1_556 S
C150 H146 0.929 1_565 S
C150 C152 1.378 . S
C150 C154 1.350 . S
C151 C154 1.463 1_546 S
C151 C156 1.350 . S
C151 N159 1.427 1_556 S
C152 H143 0.930 . S
C152 C150 1.378 . S
C152 C153 1.367 . S
C153 C152 1.367 . S
C153 C155 1.433 1_554 S
C154 C150 1.350 . S
C154 C151 1.463 1_564 S
C154 N158 1.427 1_554 S
C155 H145 0.929 . S
C155 C153 1.433 1_556 S
C155 N158 1.384 . S
C156 H147 0.929 1_545 S
C156 C148 1.378 . S
C156 C151 1.350 . S
C157 H144 0.929 . S
C157 C149 1.433 1_554 S
C157 N159 1.384 . S
N158 C154 1.427 1_556 S
N158 C155 1.384 . S
N159 C151 1.427 1_554 S
N159 C157 1.384 . S
H160 C166 0.930 . S
H161 C170 0.930 . S
H162 C175 0.929 . S
H163 C173 0.929 . S
H164 C168 0.929 . S
H165 C174 0.929 . S
C166 H160 0.930 . S
C166 C167 1.367 . S
C166 C174 1.378 . S
C167 C166 1.367 . S
C167 C175 1.433 . S
C168 H164 0.929 . S
C168 C170 1.378 . S
C168 C172 1.350 . S
C169 C172 1.463 1_655 S
C169 C174 1.350 . S
C169 N177 1.426 1_655 S
C170 H161 0.930 . S
C170 C168 1.378 . S
C170 C171 1.367 . S
C171 C170 1.367 . S
C171 C173 1.433 . S
C172 C168 1.350 . S
C172 C169 1.463 1_455 S
C172 N176 1.426 1_455 S
C173 H163 0.929 . S
C173 C171 1.433 . S
C173 N176 1.382 1_455 S
C174 H165 0.929 . S
C174 C166 1.378 . S
C174 C169 1.350 . S
C175 H162 0.929 . S
C175 C167 1.433 . S
C175 N177 1.382 1_655 S
N176 C172 1.426 1_655 S
N176 C173 1.382 1_655 S
N177 C169 1.426 1_455 S
N177 C175 1.382 1_455 S
H178 C184 0.930 . S
H179 C188 0.930 . S
H180 C193 0.929 . S
H181 C191 0.929 . S
H182 C186 0.929 . S
H183 C192 0.929 . S
C184 H178 0.930 . S
C184 C185 1.367 . S
C184 C192 1.378 . S
C185 C184 1.367 . S
C185 C193 1.433 . S
C186 H182 0.929 . S
C186 C188 1.378 . S
C186 C190 1.350 . S
C187 C190 1.463 . S
C187 C192 1.350 . S
C187 N195 1.427 . S
C188 H179 0.930 . S
C188 C186 1.378 . S
C188 C189 1.367 . S
C189 C188 1.367 . S
C189 C191 1.433 . S
C190 C186 1.350 . S
C190 C187 1.463 . S
C190 N194 1.427 . S
C191 H181 0.929 . S
C191 C189 1.433 . S
C191 N194 1.384 . S
C192 H183 0.929 . S
C192 C184 1.378 . S
C192 C187 1.350 . S
C193 H180 0.929 . S
C193 C185 1.433 . S
C193 N195 1.384 . S
N194 C190 1.427 . S
N194 C191 1.384 . S
N195 C187 1.427 . S
N195 C193 1.384 . S
C59 C23 1.100 . S
C63 C5 1.103 . S
C77 C10 1.105 . S
C81 C18 1.096 . S
C95 C49 1.096 . S
C99 C29 1.100 . S
C113 C30 1.105 . S
C117 C44 1.097 . S
C131 C3 1.529 . S
C135 C31 1.529 . S
C149 C43 1.527 . S
C153 C17 1.527 . S
C167 C36 1.527 . S
C171 C4 1.527 . S
C185 C16 1.533 . S
C189 C42 1.533 . S
