# Generated by pormake.
# Topology uoc, (4)-cn, num edge types: 1
# Building blocks:
#     Node 0, Type 0, BuildingBlock: NAHDIM_clean_sbu_0, # of connection points: 4
#     Node 1, Type 0, BuildingBlock: NAHDIM_clean_sbu_0, # of connection points: 4
#     Node 2, Type 0, BuildingBlock: NAHDIM_clean_sbu_0, # of connection points: 4
#     Node 3, Type 0, BuildingBlock: NAHDIM_clean_sbu_0, # of connection points: 4
#     Node 4, Type 0, BuildingBlock: NAHDIM_clean_sbu_0, # of connection points: 4
#     Node 5, Type 0, BuildingBlock: NAHDIM_clean_sbu_0, # of connection points: 4
#     Node 6, Type 0, BuildingBlock: NAHDIM_clean_sbu_0, # of connection points: 4
#     Node 7, Type 0, BuildingBlock: NAHDIM_clean_sbu_0, # of connection points: 4
#     Edge 8, Type (0, 0), BuildingBlock: OJICUG_clean_linker_0, # of connection points: 2
#     Edge 9, Type (0, 0), BuildingBlock: OJICUG_clean_linker_0, # of connection points: 2
#     Edge 10, Type (0, 0), BuildingBlock: OJICUG_clean_linker_0, # of connection points: 2
#     Edge 11, Type (0, 0), BuildingBlock: OJICUG_clean_linker_0, # of connection points: 2
#     Edge 12, Type (0, 0), BuildingBlock: OJICUG_clean_linker_0, # of connection points: 2
#     Edge 13, Type (0, 0), BuildingBlock: OJICUG_clean_linker_0, # of connection points: 2
#     Edge 14, Type (0, 0), BuildingBlock: OJICUG_clean_linker_0, # of connection points: 2
#     Edge 15, Type (0, 0), BuildingBlock: OJICUG_clean_linker_0, # of connection points: 2
#     Edge 16, Type (0, 0), BuildingBlock: OJICUG_clean_linker_0, # of connection points: 2
#     Edge 17, Type (0, 0), BuildingBlock: OJICUG_clean_linker_0, # of connection points: 2
#     Edge 18, Type (0, 0), BuildingBlock: OJICUG_clean_linker_0, # of connection points: 2
#     Edge 19, Type (0, 0), BuildingBlock: OJICUG_clean_linker_0, # of connection points: 2
#     Edge 20, Type (0, 0), BuildingBlock: OJICUG_clean_linker_0, # of connection points: 2
#     Edge 21, Type (0, 0), BuildingBlock: OJICUG_clean_linker_0, # of connection points: 2
#     Edge 22, Type (0, 0), BuildingBlock: OJICUG_clean_linker_0, # of connection points: 2
#     Edge 23, Type (0, 0), BuildingBlock: OJICUG_clean_linker_0, # of connection points: 2
# Relax obj value: 0.196
# Max RMSD: 0.195
# Mean RMSD: 0.195
data_MOF--net-uoc--node1-NAHDIM_clean_sbu_0--edge1-OJICUG_clean_linker_0
_symmetry_space_group_name_H-M    P1
_symmetry_Int_Tables_number       1
_symmetry_cell_setting            triclinic
loop_
_symmetry_equiv_pos_as_xyz
'x, y, z'
_cell_length_a     19.792587
_cell_length_b     19.756341
_cell_length_c     39.039078
_cell_angle_alpha  90.175461
_cell_angle_beta   90.07788
_cell_angle_gamma 95.505834
loop_
_atom_site_label
_atom_site_type_symbol
_atom_site_fract_x
_atom_site_fract_y
_atom_site_fract_z
_atom_type_partial_charge
C0 C 0.07404 0.33823 0.07425 0.0
O1 O 0.07669 0.301 0.04642 0.0
O2 O 0.23352 0.26489 0.06045 0.0
Zn3 Zn 0.17239 0.25081 0.10137 0.0
O4 O 0.22198 0.26247 0.14605 0.0
C5 C 0.1543 0.10828 0.0849 0.0
O6 O 0.21414 0.12318 0.07087 0.0
O7 O 0.10726 0.32323 0.10059 0.0
C8 C 0.18598 0.24248 0.17168 0.0
O9 O 0.12457 0.21285 0.16624 0.0
C10 C 0.24552 0.32088 0.04459 0.0
O11 O 0.22409 0.37647 0.05745 0.0
O12 O 0.12469 0.15534 0.09917 0.0
C13 C 0.80834 0.5622 0.37346 0.0
O14 O 0.77258 0.56544 0.40165 0.0
O15 O 0.75452 0.71754 0.39436 0.0
Zn16 Zn 0.72669 0.66665 0.35162 0.0
O17 O 0.7382 0.72309 0.30924 0.0
C18 C 0.59718 0.62292 0.38356 0.0
O19 O 0.62834 0.64677 0.41143 0.0
O20 O 0.7938 0.5971 0.34767 0.0
C21 C 0.7178 0.69108 0.28231 0.0
O22 O 0.6867 0.62958 0.28544 0.0
C23 C 0.7474 0.77753 0.40441 0.0
O24 O 0.71747 0.81895 0.38441 0.0
O25 O 0.62952 0.62459 0.35539 0.0
C26 C 0.44673 0.05406 0.57346 0.0
O27 O 0.38966 0.05778 0.55668 0.0
O28 O 0.37118 0.19632 0.54607 0.0
Zn29 Zn 0.42554 0.19219 0.58911 0.0
O30 O 0.36374 0.18843 0.62997 0.0
C31 C 0.50905 0.30993 0.56435 0.0
O32 O 0.49311 0.28214 0.53444 0.0
O33 O 0.47382 0.10658 0.58903 0.0
C34 C 0.36111 0.23773 0.65079 0.0
O35 O 0.39865 0.29512 0.64523 0.0
C36 C 0.3242 0.23554 0.54404 0.0
O37 O 0.30904 0.27042 0.57121 0.0
O38 O 0.48946 0.27843 0.59148 0.0
C39 C 0.59001 0.94671 0.88469 0.0
O40 O 0.60418 0.90848 0.91069 0.0
O41 O 0.73919 0.86748 0.90348 0.0
Zn42 Zn 0.72041 0.91182 0.85912 0.0
O43 O 0.7118 0.84229 0.82167 0.0
C44 C 0.82583 0.01857 0.87329 0.0
O45 O 0.79117 0.02298 0.90176 0.0
O46 O 0.63306 0.95723 0.86065 0.0
C47 C 0.76184 0.82899 0.80332 0.0
O48 O 0.82237 0.85965 0.8098 0.0
C49 C 0.71553 0.80928 0.91404 0.0
O50 O 0.6713 0.77167 0.89526 0.0
O51 O 0.80268 0.9775 0.85005 0.0
C52 C 0.5688 0.79987 0.57934 0.0
O53 O 0.56681 0.75996 0.5523 0.0
O54 O 0.73442 0.73937 0.56218 0.0
Zn55 Zn 0.67471 0.71819 0.60297 0.0
O56 O 0.72593 0.72801 0.64711 0.0
C57 C 0.62625 0.58977 0.57066 0.0
O58 O 0.65034 0.6205 0.54283 0.0
O59 O 0.60741 0.78833 0.60424 0.0
C60 C 0.69133 0.70799 0.67318 0.0
O61 O 0.62948 0.67879 0.66855 0.0
C62 C 0.74268 0.79861 0.54924 0.0
O63 O 0.71955 0.84979 0.56559 0.0
O64 O 0.62939 0.62211 0.59893 0.0
C65 C 0.33293 0.06275 0.8786 0.0
O66 O 0.30131 0.07451 0.90726 0.0
O67 O 0.26565 0.21165 0.89426 0.0
Zn68 Zn 0.24462 0.15711 0.85162 0.0
O69 O 0.25916 0.20993 0.80811 0.0
C70 C 0.10212 0.14323 0.86838 0.0
O71 O 0.11889 0.20175 0.88368 0.0
O72 O 0.31354 0.0886 0.85092 0.0
C73 C 0.23975 0.17527 0.78179 0.0
O74 O 0.20834 0.11424 0.78616 0.0
C75 C 0.26735 0.27453 0.90132 0.0
O76 O 0.25231 0.31779 0.87766 0.0
O77 O 0.14785 0.11325 0.85329 0.0
C78 C 0.95925 0.59677 0.06912 0.0
O79 O 0.92138 0.61135 0.04303 0.0
O80 O 0.87419 0.74375 0.0527 0.0
Zn81 Zn 0.92215 0.72612 0.09624 0.0
O82 O 0.85497 0.71699 0.13463 0.0
C83 C 0.02731 0.83226 0.08075 0.0
O84 O 0.03114 0.79664 0.05245 0.0
O85 O 0.96863 0.63913 0.09371 0.0
C86 C 0.84397 0.76618 0.15425 0.0
O87 O 0.87616 0.82649 0.14891 0.0
C88 C 0.81688 0.71668 0.04252 0.0
O89 O 0.78324 0.6695 0.06112 0.0
O90 O 0.98724 0.80952 0.10433 0.0
C91 C 0.06209 0.44069 0.37938 0.0
O92 O 0.06617 0.38331 0.39582 0.0
O93 O 0.20488 0.36917 0.40902 0.0
Zn94 Zn 0.20062 0.42186 0.36551 0.0
O95 O 0.19749 0.35906 0.32494 0.0
C96 C 0.3175 0.50726 0.39 0.0
O97 O 0.29012 0.49184 0.41995 0.0
O98 O 0.11469 0.46915 0.3647 0.0
C99 C 0.24757 0.35506 0.30492 0.0
O100 O 0.30541 0.3911 0.31148 0.0
C101 C 0.23973 0.3187 0.41117 0.0
O102 O 0.27057 0.29841 0.38374 0.0
O103 O 0.28602 0.48663 0.36293 0.0
C104 C 0.24926 0.36787 -0.01499 0.0
C105 C 0.26721 0.31869 0.00848 0.0
H106 H 0.23526 0.39257 0.93214 0.0
C107 C 0.29598 0.26118 -0.00382 0.0
H108 H 0.22699 0.41281 -0.00623 0.0
C109 C 0.30066 0.2497 0.9611 0.0
C110 C 0.27645 0.29538 0.93754 0.0
H111 H 0.31109 0.22284 0.01365 0.0
H112 H 0.31974 0.20294 0.95251 0.0
C113 C 0.2538 0.35624 0.94971 0.0
C114 C 0.77796 0.77973 0.24451 0.0
C115 C 0.73986 0.71638 0.24818 0.0
H116 H 0.84037 0.84572 0.21156 0.0
C117 C 0.72933 0.67376 0.2194 0.0
H118 H 0.78656 0.81388 0.26617 0.0
C119 C 0.76057 0.69166 0.18831 0.0
C120 C 0.80237 0.75287 0.18526 0.0
H121 H 0.69976 0.62485 0.22125 0.0
H122 H 0.754 0.65628 0.16704 0.0
C123 C 0.80872 0.79798 0.21323 0.0
C124 C 0.24753 0.29774 0.50719 0.0
C125 C 0.29456 0.24925 0.51034 0.0
H126 H 0.19269 0.3573 0.47329 0.0
C127 C 0.31751 0.21832 0.48061 0.0
H128 H 0.22852 0.32214 0.52961 0.0
C129 C 0.29709 0.23857 0.44829 0.0
C130 C 0.25325 0.29 0.44509 0.0
H131 H 0.35343 0.18039 0.48218 0.0
H132 H 0.31777 0.21572 0.42584 0.0
C133 C 0.22701 0.31788 0.47487 0.0
C134 C 0.79646 0.7927 0.745 0.0
C135 C 0.7494 0.78774 0.772 0.0
H136 H 0.81503 0.77103 0.69226 0.0
C137 C 0.68705 0.74846 0.76745 0.0
H138 H 0.84507 0.8224 0.74782 0.0
C139 C 0.67009 0.71865 0.7358 0.0
C140 C 0.71488 0.72814 0.70796 0.0
H141 H 0.65011 0.74302 0.78795 0.0
H142 H 0.62037 0.69122 0.73275 0.0
C143 C 0.7792 0.76339 0.71316 0.0
C144 C 0.17763 0.27468 0.26672 0.0
C145 C 0.23753 0.31736 0.27233 0.0
H146 H 0.11501 0.21654 0.23062 0.0
C147 C 0.28455 0.3283 0.24549 0.0
H148 H 0.14078 0.26459 0.28701 0.0
C149 C 0.26959 0.30095 0.21297 0.0
C150 C 0.20758 0.26189 0.20687 0.0
H151 H 0.33136 0.36069 0.2491 0.0
H152 H 0.30527 0.31287 0.19235 0.0
C153 C 0.16292 0.24704 0.23436 0.0
C154 C 0.79333 0.75355 0.4967 0.0
C155 C 0.76047 0.80491 0.51267 0.0
H156 H 0.81648 0.70577 0.44971 0.0
C157 C 0.73436 0.8551 0.49239 0.0
H158 H 0.81461 0.7147 0.51172 0.0
C159 C 0.73463 0.84962 0.45663 0.0
C160 C 0.76141 0.79413 0.44081 0.0
H161 H 0.70875 0.89538 0.50405 0.0
H162 H 0.70963 0.88597 0.44164 0.0
C163 C 0.79412 0.74841 0.46114 0.0
C164 C 0.33306 0.27344 0.71033 0.0
C165 C 0.32212 0.22745 0.68288 0.0
H166 H 0.31524 0.29322 0.76339 0.0
C167 C 0.27741 0.16854 0.68728 0.0
H168 H 0.36699 0.3195 0.70766 0.0
C169 C 0.24748 0.15379 0.71903 0.0
C170 C 0.262 0.19737 0.74715 0.0
H171 H 0.26726 0.13252 0.66649 0.0
H172 H 0.21529 0.10662 0.72182 0.0
C173 C 0.30341 0.25842 0.74225 0.0
C174 C 0.82002 0.79834 -0.00582 0.0
C175 C 0.78921 0.73942 0.00987 0.0
H176 H 0.82077 0.8664 0.95201 0.0
C177 C 0.73301 0.70329 -0.00605 0.0
H178 H 0.86323 0.82758 0.00581 0.0
C179 C 0.70866 0.72554 0.96262 0.0
C180 C 0.73976 0.7846 0.94706 0.0
H181 H 0.70835 0.65763 0.00547 0.0
H182 H 0.66554 0.69674 0.95069 0.0
C183 C 0.79546 0.82077 0.96329 0.0
C184 C 0.06996 0.01616 0.10724 0.0
C185 C 0.12272 0.03728 0.0845 0.0
H186 H 0.99945 0.93436 0.12442 0.0
C187 C 0.14575 0.98965 0.06151 0.0
H188 H 0.05149 0.05156 0.12543 0.0
C189 C 0.11556 0.92271 0.0607 0.0
C190 C 0.06253 0.90165 0.08328 0.0
H191 H 0.18639 1.00436 0.04369 0.0
H192 H 0.13354 0.88755 0.04225 0.0
C193 C 0.04055 0.94888 0.10684 0.0
C194 C 0.94431 0.45105 0.40069 0.0
C195 C 0.99647 0.4704 0.37727 0.0
H196 H 0.84381 0.46507 0.4179 0.0
C197 C 0.98496 0.51757 0.35159 0.0
H198 H 0.95168 0.41467 0.42073 0.0
C199 C 0.92272 0.54527 0.34953 0.0
C200 C 0.87118 0.52733 0.37352 0.0
H201 H 0.02398 0.53297 0.333 0.0
H202 H 0.91577 0.58222 0.3297 0.0
C203 C 0.8825 0.47974 0.39903 0.0
C204 C 0.56353 0.41523 0.53624 0.0
C205 C 0.54258 0.38022 0.56628 0.0
H206 H 0.60604 0.50862 0.51403 0.0
C207 C 0.55033 0.41447 0.59788 0.0
H208 H 0.55815 0.39047 0.51146 0.0
C209 C 0.57739 0.48249 0.59933 0.0
C210 C 0.59758 0.5177 0.56923 0.0
H211 H 0.53444 0.38913 0.62151 0.0
H212 H 0.58223 0.5075 0.62406 0.0
C213 C 0.59082 0.48312 0.5377 0.0
C214 C 0.50255 1.00491 0.85249 0.0
C215 C 0.52343 0.97483 0.8828 0.0
H216 H 0.4255 0.05502 0.82713 0.0
C217 C 0.47953 0.97079 0.91116 0.0
H218 H 0.53491 0.00829 0.83008 0.0
C219 C 0.41681 0.9977 0.9095 0.0
C220 C 0.39634 0.02865 0.87935 0.0
H221 H 0.49395 0.94765 0.93486 0.0
H222 H 0.38476 0.99499 0.93202 0.0
C223 C 0.43955 0.03122 0.85072 0.0
C224 C 0.98052 0.48489 0.04268 0.0
C225 C 0.98786 0.53022 0.07059 0.0
H226 H 1.00146 0.38858 0.02199 0.0
C227 C 0.02147 0.51066 0.10016 0.0
H228 H 0.95465 0.49824 0.01955 0.0
C229 C 0.04771 0.44753 0.10166 0.0
C230 C 0.0413 0.4026 0.07356 0.0
H231 H 0.02762 0.54412 0.1222 0.0
H232 H 0.07399 0.43449 0.12472 0.0
C233 C 0.00709 0.42185 0.04412 0.0
C234 C 0.42265 0.56288 0.41794 0.0
C235 C 0.38754 0.54102 0.38797 0.0
H236 H 0.51615 0.60564 0.44008 0.0
C237 C 0.42153 0.54779 0.35637 0.0
H238 H 0.39807 0.55833 0.44271 0.0
C239 C 0.48951 0.57454 0.35489 0.0
C240 C 0.52491 0.59537 0.38495 0.0
H241 H 0.39607 0.53121 0.3328 0.0
H242 H 0.51439 0.57844 0.33018 0.0
C243 C 0.4905 0.58986 0.41644 0.0
C244 C 0.45699 0.93569 0.55221 0.0
C245 C 0.47739 0.98874 0.57519 0.0
H246 H 0.46995 0.83434 0.53543 0.0
C247 C 0.52631 0.97826 0.60021 0.0
H248 H 0.41933 0.94221 0.53265 0.0
C249 C 0.55435 0.91612 0.60217 0.0
C250 C 0.53485 0.86342 0.57882 0.0
H251 H 0.54271 0.01795 0.61843 0.0
H252 H 0.5924 0.90997 0.62159 0.0
C253 C 0.48584 0.87384 0.55383 0.0
C254 C 0.91715 0.1066 0.89308 0.0
C255 C 0.895 0.05385 0.87032 0.0
H256 H 0.99979 0.17649 0.91014 0.0
C257 C 0.9411 0.03189 0.84626 0.0
H258 H 0.88287 0.1246 0.91191 0.0
C259 C 0.00843 0.0608 0.84564 0.0
C260 C 0.03075 0.11301 0.86868 0.0
H261 H 0.92574 0.99104 0.8285 0.0
H262 H 0.04298 0.04217 0.82713 0.0
C263 C 0.98417 0.13625 0.89208 0.0
loop_
_geom_bond_atom_site_label_1
_geom_bond_atom_site_label_2
_geom_bond_distance
_geom_bond_site_symmetry_2
_ccdc_geom_bond_type
C0 O1 1.160 . S
C0 O7 1.185 . S
O1 C0 1.160 . S
O2 Zn3 1.899 . S
O2 C10 1.284 . S
Zn3 O2 1.899 . S
Zn3 O4 2.032 . S
Zn3 O7 2.086 . S
Zn3 O12 1.977 . S
O4 Zn3 2.032 . S
O4 C8 1.278 . S
C5 O6 1.203 . S
C5 O12 1.267 . S
O6 C5 1.203 . S
O7 C0 1.185 . S
O7 Zn3 2.086 . S
C8 O4 1.278 . S
C8 O9 1.211 . S
O9 C8 1.211 . S
C10 O2 1.284 . S
C10 O11 1.273 . S
O11 C10 1.273 . S
O12 Zn3 1.977 . S
O12 C5 1.267 . S
C13 O14 1.160 . S
C13 O20 1.185 . S
O14 C13 1.160 . S
O15 Zn16 1.899 . S
O15 C23 1.284 . S
Zn16 O15 1.899 . S
Zn16 O17 2.032 . S
Zn16 O20 2.086 . S
Zn16 O25 1.977 . S
O17 Zn16 2.032 . S
O17 C21 1.278 . S
C18 O19 1.203 . S
C18 O25 1.267 . S
O19 C18 1.203 . S
O20 C13 1.185 . S
O20 Zn16 2.086 . S
C21 O17 1.278 . S
C21 O22 1.211 . S
O22 C21 1.211 . S
C23 O15 1.284 . S
C23 O24 1.273 . S
O24 C23 1.273 . S
O25 Zn16 1.977 . S
O25 C18 1.267 . S
C26 O27 1.160 . S
C26 O33 1.185 . S
O27 C26 1.160 . S
O28 Zn29 1.899 . S
O28 C36 1.284 . S
Zn29 O28 1.899 . S
Zn29 O30 2.032 . S
Zn29 O33 2.086 . S
Zn29 O38 1.977 . S
O30 Zn29 2.032 . S
O30 C34 1.278 . S
C31 O32 1.203 . S
C31 O38 1.267 . S
O32 C31 1.203 . S
O33 C26 1.185 . S
O33 Zn29 2.086 . S
C34 O30 1.278 . S
C34 O35 1.211 . S
O35 C34 1.211 . S
C36 O28 1.284 . S
C36 O37 1.273 . S
O37 C36 1.273 . S
O38 Zn29 1.977 . S
O38 C31 1.267 . S
C39 O40 1.160 . S
C39 O46 1.185 . S
O40 C39 1.160 . S
O41 Zn42 1.899 . S
O41 C49 1.284 . S
Zn42 O41 1.899 . S
Zn42 O43 2.032 . S
Zn42 O46 2.086 . S
Zn42 O51 1.977 . S
O43 Zn42 2.032 . S
O43 C47 1.278 . S
C44 O45 1.203 . S
C44 O51 1.267 . S
O45 C44 1.203 . S
O46 C39 1.185 . S
O46 Zn42 2.086 . S
C47 O43 1.278 . S
C47 O48 1.211 . S
O48 C47 1.211 . S
C49 O41 1.284 . S
C49 O50 1.273 . S
O50 C49 1.273 . S
O51 Zn42 1.977 . S
O51 C44 1.267 . S
C52 O53 1.160 . S
C52 O59 1.185 . S
O53 C52 1.160 . S
O54 Zn55 1.899 . S
O54 C62 1.284 . S
Zn55 O54 1.899 . S
Zn55 O56 2.032 . S
Zn55 O59 2.086 . S
Zn55 O64 1.977 . S
O56 Zn55 2.032 . S
O56 C60 1.278 . S
C57 O58 1.203 . S
C57 O64 1.267 . S
O58 C57 1.203 . S
O59 C52 1.185 . S
O59 Zn55 2.086 . S
C60 O56 1.278 . S
C60 O61 1.211 . S
O61 C60 1.211 . S
C62 O54 1.284 . S
C62 O63 1.273 . S
O63 C62 1.273 . S
O64 Zn55 1.977 . S
O64 C57 1.267 . S
C65 O66 1.160 . S
C65 O72 1.185 . S
O66 C65 1.160 . S
O67 Zn68 1.899 . S
O67 C75 1.284 . S
Zn68 O67 1.899 . S
Zn68 O69 2.032 . S
Zn68 O72 2.086 . S
Zn68 O77 1.977 . S
O69 Zn68 2.032 . S
O69 C73 1.278 . S
C70 O71 1.203 . S
C70 O77 1.267 . S
O71 C70 1.203 . S
O72 C65 1.185 . S
O72 Zn68 2.086 . S
C73 O69 1.278 . S
C73 O74 1.211 . S
O74 C73 1.211 . S
C75 O67 1.284 . S
C75 O76 1.273 . S
O76 C75 1.273 . S
O77 Zn68 1.977 . S
O77 C70 1.267 . S
C78 O79 1.160 . S
C78 O85 1.185 . S
O79 C78 1.160 . S
O80 Zn81 1.899 . S
O80 C88 1.284 . S
Zn81 O80 1.899 . S
Zn81 O82 2.032 . S
Zn81 O85 2.086 . S
Zn81 O90 1.977 . S
O82 Zn81 2.032 . S
O82 C86 1.278 . S
C83 O84 1.203 . S
C83 O90 1.267 . S
O84 C83 1.203 . S
O85 C78 1.185 . S
O85 Zn81 2.086 . S
C86 O82 1.278 . S
C86 O87 1.211 . S
O87 C86 1.211 . S
C88 O80 1.284 . S
C88 O89 1.273 . S
O89 C88 1.273 . S
O90 Zn81 1.977 . S
O90 C83 1.267 . S
C91 O92 1.160 . S
C91 O98 1.185 . S
O92 C91 1.160 . S
O93 Zn94 1.899 . S
O93 C101 1.284 . S
Zn94 O93 1.899 . S
Zn94 O95 2.032 . S
Zn94 O98 2.086 . S
Zn94 O103 1.977 . S
O95 Zn94 2.032 . S
O95 C99 1.278 . S
C96 O97 1.203 . S
C96 O103 1.267 . S
O97 C96 1.203 . S
O98 C91 1.185 . S
O98 Zn94 2.086 . S
C99 O95 1.278 . S
C99 O100 1.211 . S
O100 C99 1.211 . S
C101 O93 1.284 . S
C101 O102 1.273 . S
O102 C101 1.273 . S
O103 Zn94 1.977 . S
O103 C96 1.267 . S
C104 C105 1.387 . S
C104 H108 0.950 . S
C104 C113 1.390 1_554 S
C105 C104 1.387 . S
C105 C107 1.387 . S
H106 C113 0.950 . S
C107 C105 1.387 . S
C107 C109 1.390 1_554 S
C107 H111 0.950 . S
H108 C104 0.950 . S
C109 C107 1.390 1_556 S
C109 C110 1.387 . S
C109 H112 0.950 . S
C110 C109 1.387 . S
C110 C113 1.387 . S
H111 C107 0.950 . S
H112 C109 0.950 . S
C113 C104 1.390 1_556 S
C113 H106 0.950 . S
C113 C110 1.387 . S
C114 C115 1.387 . S
C114 H118 0.950 . S
C114 C123 1.390 . S
C115 C114 1.387 . S
C115 C117 1.387 . S
H116 C123 0.950 . S
C117 C115 1.387 . S
C117 C119 1.390 . S
C117 H121 0.950 . S
H118 C114 0.950 . S
C119 C117 1.390 . S
C119 C120 1.387 . S
C119 H122 0.950 . S
C120 C119 1.387 . S
C120 C123 1.387 . S
H121 C117 0.950 . S
H122 C119 0.950 . S
C123 C114 1.390 . S
C123 H116 0.950 . S
C123 C120 1.387 . S
C124 C125 1.387 . S
C124 H128 0.950 . S
C124 C133 1.390 . S
C125 C124 1.387 . S
C125 C127 1.387 . S
H126 C133 0.950 . S
C127 C125 1.387 . S
C127 C129 1.390 . S
C127 H131 0.950 . S
H128 C124 0.950 . S
C129 C127 1.390 . S
C129 C130 1.387 . S
C129 H132 0.950 . S
C130 C129 1.387 . S
C130 C133 1.387 . S
H131 C127 0.950 . S
H132 C129 0.950 . S
C133 C124 1.390 . S
C133 H126 0.950 . S
C133 C130 1.387 . S
C134 C135 1.387 . S
C134 H138 0.950 . S
C134 C143 1.390 . S
C135 C134 1.387 . S
C135 C137 1.387 . S
H136 C143 0.950 . S
C137 C135 1.387 . S
C137 C139 1.390 . S
C137 H141 0.950 . S
H138 C134 0.950 . S
C139 C137 1.390 . S
C139 C140 1.387 . S
C139 H142 0.950 . S
C140 C139 1.387 . S
C140 C143 1.387 . S
H141 C137 0.950 . S
H142 C139 0.950 . S
C143 C134 1.390 . S
C143 H136 0.950 . S
C143 C140 1.387 . S
C144 C145 1.387 . S
C144 H148 0.950 . S
C144 C153 1.390 . S
C145 C144 1.387 . S
C145 C147 1.387 . S
H146 C153 0.950 . S
C147 C145 1.387 . S
C147 C149 1.390 . S
C147 H151 0.950 . S
H148 C144 0.950 . S
C149 C147 1.390 . S
C149 C150 1.387 . S
C149 H152 0.950 . S
C150 C149 1.387 . S
C150 C153 1.387 . S
H151 C147 0.950 . S
H152 C149 0.950 . S
C153 C144 1.390 . S
C153 H146 0.950 . S
C153 C150 1.387 . S
C154 C155 1.387 . S
C154 H158 0.950 . S
C154 C163 1.390 . S
C155 C154 1.387 . S
C155 C157 1.387 . S
H156 C163 0.950 . S
C157 C155 1.387 . S
C157 C159 1.390 . S
C157 H161 0.950 . S
H158 C154 0.950 . S
C159 C157 1.390 . S
C159 C160 1.387 . S
C159 H162 0.950 . S
C160 C159 1.387 . S
C160 C163 1.387 . S
H161 C157 0.950 . S
H162 C159 0.950 . S
C163 C154 1.390 . S
C163 H156 0.950 . S
C163 C160 1.387 . S
C164 C165 1.387 . S
C164 H168 0.950 . S
C164 C173 1.390 . S
C165 C164 1.387 . S
C165 C167 1.387 . S
H166 C173 0.950 . S
C167 C165 1.387 . S
C167 C169 1.390 . S
C167 H171 0.950 . S
H168 C164 0.950 . S
C169 C167 1.390 . S
C169 C170 1.387 . S
C169 H172 0.950 . S
C170 C169 1.387 . S
C170 C173 1.387 . S
H171 C167 0.950 . S
H172 C169 0.950 . S
C173 C164 1.390 . S
C173 H166 0.950 . S
C173 C170 1.387 . S
C174 C175 1.387 . S
C174 H178 0.950 . S
C174 C183 1.390 1_554 S
C175 C174 1.387 . S
C175 C177 1.387 . S
H176 C183 0.950 . S
C177 C175 1.387 . S
C177 C179 1.390 1_554 S
C177 H181 0.950 . S
H178 C174 0.950 . S
C179 C177 1.390 1_556 S
C179 C180 1.387 . S
C179 H182 0.950 . S
C180 C179 1.387 . S
C180 C183 1.387 . S
H181 C177 0.950 . S
H182 C179 0.950 . S
C183 C174 1.390 1_556 S
C183 H176 0.950 . S
C183 C180 1.387 . S
C184 C185 1.387 . S
C184 H188 0.950 . S
C184 C193 1.390 1_445 S
C185 C184 1.387 . S
C185 C187 1.387 . S
H186 C193 0.950 . S
C187 C185 1.387 . S
C187 C189 1.390 1_445 S
C187 H191 0.950 . S
H188 C184 0.950 . S
C189 C187 1.390 1_665 S
C189 C190 1.387 . S
C189 H192 0.950 . S
C190 C189 1.387 . S
C190 C193 1.387 . S
H191 C187 0.950 . S
H192 C189 0.950 . S
C193 C184 1.390 1_665 S
C193 H186 0.950 . S
C193 C190 1.387 . S
C194 C195 1.387 . S
C194 H198 0.950 . S
C194 C203 1.390 1_455 S
C195 C194 1.387 . S
C195 C197 1.387 . S
H196 C203 0.950 . S
C197 C195 1.387 . S
C197 C199 1.390 1_455 S
C197 H201 0.950 . S
H198 C194 0.950 . S
C199 C197 1.390 1_655 S
C199 C200 1.387 . S
C199 H202 0.950 . S
C200 C199 1.387 . S
C200 C203 1.387 . S
H201 C197 0.950 . S
H202 C199 0.950 . S
C203 C194 1.390 1_655 S
C203 H196 0.950 . S
C203 C200 1.387 . S
C204 C205 1.387 . S
C204 H208 0.950 . S
C204 C213 1.390 . S
C205 C204 1.387 . S
C205 C207 1.387 . S
H206 C213 0.950 . S
C207 C205 1.387 . S
C207 C209 1.390 . S
C207 H211 0.950 . S
H208 C204 0.950 . S
C209 C207 1.390 . S
C209 C210 1.387 . S
C209 H212 0.950 . S
C210 C209 1.387 . S
C210 C213 1.387 . S
H211 C207 0.950 . S
H212 C209 0.950 . S
C213 C204 1.390 . S
C213 H206 0.950 . S
C213 C210 1.387 . S
C214 C215 1.387 . S
C214 H218 0.950 . S
C214 C223 1.390 1_565 S
C215 C214 1.387 . S
C215 C217 1.387 . S
H216 C223 0.950 . S
C217 C215 1.387 . S
C217 C219 1.390 1_565 S
C217 H221 0.950 . S
H218 C214 0.950 . S
C219 C217 1.390 1_545 S
C219 C220 1.387 . S
C219 H222 0.950 . S
C220 C219 1.387 . S
C220 C223 1.387 . S
H221 C217 0.950 . S
H222 C219 0.950 . S
C223 C214 1.390 1_545 S
C223 H216 0.950 . S
C223 C220 1.387 . S
C224 C225 1.387 . S
C224 H228 0.950 . S
C224 C233 1.390 1_655 S
C225 C224 1.387 . S
C225 C227 1.387 . S
H226 C233 0.950 . S
C227 C225 1.387 . S
C227 C229 1.390 1_655 S
C227 H231 0.950 . S
H228 C224 0.950 . S
C229 C227 1.390 1_455 S
C229 C230 1.387 . S
C229 H232 0.950 . S
C230 C229 1.387 . S
C230 C233 1.387 . S
H231 C227 0.950 . S
H232 C229 0.950 . S
C233 C224 1.390 1_455 S
C233 H226 0.950 . S
C233 C230 1.387 . S
C234 C235 1.387 . S
C234 H238 0.950 . S
C234 C243 1.390 . S
C235 C234 1.387 . S
C235 C237 1.387 . S
H236 C243 0.950 . S
C237 C235 1.387 . S
C237 C239 1.390 . S
C237 H241 0.950 . S
H238 C234 0.950 . S
C239 C237 1.390 . S
C239 C240 1.387 . S
C239 H242 0.950 . S
C240 C239 1.387 . S
C240 C243 1.387 . S
H241 C237 0.950 . S
H242 C239 0.950 . S
C243 C234 1.390 . S
C243 H236 0.950 . S
C243 C240 1.387 . S
C244 C245 1.387 . S
C244 H248 0.950 . S
C244 C253 1.390 1_545 S
C245 C244 1.387 . S
C245 C247 1.387 . S
H246 C253 0.950 . S
C247 C245 1.387 . S
C247 C249 1.390 1_545 S
C247 H251 0.950 . S
H248 C244 0.950 . S
C249 C247 1.390 1_565 S
C249 C250 1.387 . S
C249 H252 0.950 . S
C250 C249 1.387 . S
C250 C253 1.387 . S
H251 C247 0.950 . S
H252 C249 0.950 . S
C253 C244 1.390 1_565 S
C253 H246 0.950 . S
C253 C250 1.387 . S
C254 C255 1.387 . S
C254 H258 0.950 . S
C254 C263 1.390 1_665 S
C255 C254 1.387 . S
C255 C257 1.387 . S
H256 C263 0.950 . S
C257 C255 1.387 . S
C257 C259 1.390 1_665 S
C257 H261 0.950 . S
H258 C254 0.950 . S
C259 C257 1.390 1_445 S
C259 C260 1.387 . S
C259 H262 0.950 . S
C260 C259 1.387 . S
C260 C263 1.387 . S
H261 C257 0.950 . S
H262 C259 0.950 . S
C263 C254 1.390 1_445 S
C263 H256 0.950 . S
C263 C260 1.387 . S
C105 C10 1.313 . S
C110 C75 1.314 . S
C115 C21 1.209 . S
C120 C86 1.209 . S
C125 C36 1.315 . S
C130 C101 1.315 . S
C135 C47 1.210 . S
C140 C60 1.210 . S
C145 C99 1.206 . S
C150 C8 1.206 . S
C155 C62 1.316 . S
C160 C23 1.315 . S
C165 C34 1.211 . S
C170 C73 1.211 . S
C175 C88 1.316 . S
C180 C49 1.316 . S
C185 C5 1.497 . S
C190 C83 1.497 . S
C195 C91 1.513 . S
C200 C13 1.513 . S
C205 C31 1.499 . S
C210 C57 1.499 . S
C215 C39 1.514 . S
C220 C65 1.514 . S
C225 C78 1.513 . S
C230 C0 1.513 . S
C235 C96 1.499 . S
C240 C18 1.499 . S
C245 C26 1.513 . S
C250 C52 1.513 . S
C255 C44 1.499 . S
C260 C70 1.499 . S
