# Generated by pormake.
# Topology unh, (4)-cn, num edge types: 1
# Building blocks:
#     Node 0, Type 0, BuildingBlock: QUQFOY_clean_sbu_3, # of connection points: 4
#     Node 1, Type 0, BuildingBlock: QUQFOY_clean_sbu_3, # of connection points: 4
#     Node 2, Type 0, BuildingBlock: QUQFOY_clean_sbu_3, # of connection points: 4
#     Node 3, Type 0, BuildingBlock: QUQFOY_clean_sbu_3, # of connection points: 4
#     Node 4, Type 0, BuildingBlock: QUQFOY_clean_sbu_3, # of connection points: 4
#     Node 5, Type 0, BuildingBlock: QUQFOY_clean_sbu_3, # of connection points: 4
#     Edge 6, Type (0, 0), BuildingBlock: OJICUG_clean_linker_0, # of connection points: 2
#     Edge 7, Type (0, 0), BuildingBlock: OJICUG_clean_linker_0, # of connection points: 2
#     Edge 8, Type (0, 0), BuildingBlock: OJICUG_clean_linker_0, # of connection points: 2
#     Edge 9, Type (0, 0), BuildingBlock: OJICUG_clean_linker_0, # of connection points: 2
#     Edge 10, Type (0, 0), BuildingBlock: OJICUG_clean_linker_0, # of connection points: 2
#     Edge 11, Type (0, 0), BuildingBlock: OJICUG_clean_linker_0, # of connection points: 2
#     Edge 12, Type (0, 0), BuildingBlock: OJICUG_clean_linker_0, # of connection points: 2
#     Edge 13, Type (0, 0), BuildingBlock: OJICUG_clean_linker_0, # of connection points: 2
#     Edge 14, Type (0, 0), BuildingBlock: OJICUG_clean_linker_0, # of connection points: 2
#     Edge 15, Type (0, 0), BuildingBlock: OJICUG_clean_linker_0, # of connection points: 2
#     Edge 16, Type (0, 0), BuildingBlock: OJICUG_clean_linker_0, # of connection points: 2
#     Edge 17, Type (0, 0), BuildingBlock: OJICUG_clean_linker_0, # of connection points: 2
# Relax obj value: 0.078
# Max RMSD: 0.192
# Mean RMSD: 0.192
data_MOF--net-unh--node1-QUQFOY_clean_sbu_3--edge1-OJICUG_clean_linker_0
_symmetry_space_group_name_H-M    P1
_symmetry_Int_Tables_number       1
_symmetry_cell_setting            triclinic
loop_
_symmetry_equiv_pos_as_xyz
'x, y, z'
_cell_length_a     32.659417
_cell_length_b     32.466086
_cell_length_c     17.598766
_cell_angle_alpha  89.964994
_cell_angle_beta   90.077718
_cell_angle_gamma 120.09764
loop_
_atom_site_label
_atom_site_type_symbol
_atom_site_fract_x
_atom_site_fract_y
_atom_site_fract_z
_atom_type_partial_charge
C0 C 0.16663 0.49929 0.08554 0.0
O1 O 0.15861 0.48204 0.0188 0.0
Cd2 Cd 0.10182 0.48552 0.93325 0.0
O3 O 0.14401 0.51874 0.11099 0.0
Cd4 Cd 0.08141 0.53526 0.07155 0.0
C5 C 0.14862 0.60675 0.92785 0.0
O6 O 0.02857 0.46374 -0.00497 0.0
O7 O 0.01604 0.52318 -0.00565 0.0
O8 O 0.05369 0.5037 0.19572 0.0
C9 C 0.00345 0.48128 -0.02739 0.0
O10 O 0.13683 0.5679 0.89333 0.0
C11 C 0.04429 0.53516 0.21802 0.0
O12 O 0.13764 0.60693 -0.00247 0.0
O13 O 0.05356 0.56915 0.17226 0.0
C14 C 0.64615 0.18353 0.25169 0.0
O15 O 0.65544 0.1758 0.1849 0.0
Cd16 Cd 0.59535 0.11793 0.09966 0.0
O17 O 0.60418 0.1602 0.27718 0.0
Cd18 Cd 0.52535 0.09657 0.23791 0.0
C19 C 0.52017 0.16306 0.09351 0.0
O20 O 0.54449 0.04402 0.16188 0.0
O21 O 0.47234 0.03005 0.16171 0.0
O22 O 0.52941 0.06933 0.36243 0.0
C23 C 0.50185 0.01805 0.13992 0.0
O24 O 0.54741 0.15177 0.05912 0.0
C25 C 0.48862 0.05959 0.3847 0.0
O26 O 0.5092 0.15208 0.16327 0.0
O27 O 0.46384 0.06841 0.33871 0.0
C28 C 0.43715 0.65947 0.41658 0.0
O29 O 0.45376 0.66883 0.34954 0.0
Cd30 Cd 0.44998 0.60821 0.26381 0.0
O31 O 0.41828 0.61721 0.44196 0.0
Cd32 Cd 0.4021 0.53792 0.40191 0.0
C33 C 0.32962 0.53307 0.25995 0.0
O34 O 0.47291 0.55687 0.32433 0.0
O35 O 0.41392 0.48458 0.32385 0.0
O36 O 0.43448 0.54189 0.52538 0.0
C37 C 0.4555 0.51401 0.30194 0.0
O38 O 0.36793 0.5603 0.2248 0.0
C39 C 0.40344 0.50088 0.5481 0.0
O40 O 0.33006 0.52203 0.32958 0.0
O41 O 0.36935 0.47599 0.50288 0.0
C42 C 0.75421 0.45421 0.58436 0.0
O43 O 0.76177 0.47118 0.51746 0.0
Cd44 Cd 0.81911 0.4685 0.43233 0.0
O45 O 0.7775 0.43551 0.61001 0.0
Cd46 Cd 0.84082 0.42021 0.57064 0.0
C47 C 0.77423 0.34766 0.42731 0.0
O48 O 0.89299 0.49187 0.49371 0.0
O49 O 0.90641 0.43299 0.4938 0.0
O50 O 0.86875 0.45243 0.69447 0.0
C51 C 0.91856 0.47474 0.47182 0.0
O52 O 0.78538 0.38625 0.39245 0.0
C53 C 0.87832 0.42115 0.71729 0.0
O54 O 0.78533 0.34791 0.49708 0.0
O55 O 0.86911 0.38702 0.67193 0.0
C56 C 0.27845 0.76956 0.75154 0.0
O57 O 0.26929 0.77734 0.68462 0.0
Cd58 Cd 0.3296 0.83475 0.59937 0.0
O59 O 0.32044 0.79256 0.77718 0.0
Cd60 Cd 0.39961 0.85556 0.7381 0.0
C61 C 0.40399 0.78863 0.59388 0.0
O62 O 0.38085 0.90839 0.66196 0.0
O63 O 0.45287 0.92202 0.66199 0.0
O64 O 0.39578 0.88275 0.8627 0.0
C65 C 0.42348 0.93418 0.64002 0.0
O66 O 0.37697 0.80024 0.55937 0.0
C67 C 0.43657 0.89238 0.88499 0.0
O68 O 0.41506 0.79956 0.66366 0.0
O69 O 0.46123 0.88352 0.83899 0.0
C70 C 0.48488 0.29098 0.91626 0.0
O71 O 0.46811 0.28149 0.84927 0.0
Cd72 Cd 0.47082 0.34177 0.76372 0.0
O73 O 0.50335 0.33319 0.94173 0.0
Cd74 Cd 0.51839 0.41211 0.90186 0.0
C75 C 0.59092 0.41808 0.75938 0.0
O76 O 0.44732 0.39261 0.82423 0.0
O77 O 0.50592 0.46514 0.82413 0.0
O78 O 0.48568 0.40772 0.02504 0.0
C79 C 0.46441 0.43548 0.80207 0.0
O80 O 0.55262 0.39049 0.72437 0.0
C81 C 0.51655 0.44873 0.0481 0.0
O82 O 0.59054 0.42901 0.82907 0.0
O83 O 0.55073 0.4738 0.00325 0.0
C84 C 0.93394 0.47517 0.90505 0.0
C85 C -0.03492 0.45772 0.91604 0.0
H86 H 0.88148 0.47641 0.83442 0.0
C87 C -0.03777 0.42211 0.86717 0.0
H88 H 0.93476 0.50209 0.94243 0.0
C89 C 0.9313 0.40718 0.80463 0.0
C90 C 0.90303 0.42777 0.79053 0.0
H91 H -0.01419 0.408 0.87448 0.0
H92 H 0.93175 0.38194 0.76492 0.0
C93 C 0.90332 0.46039 0.84312 0.0
C94 C 0.42281 0.9163 0.01186 0.0
C95 C 0.45494 0.91696 0.95834 0.0
H96 H 0.41275 0.94724 0.11182 0.0
C97 C 0.50376 0.94627 -0.02849 0.0
H98 H 0.385 0.89364 0.00385 0.0
C99 C 0.51984 -0.02263 0.03399 0.0
C100 C 0.4872 -0.02064 0.08372 0.0
H101 H 0.52929 0.94746 0.93104 0.0
H102 H 0.55743 0.00183 0.04052 0.0
C103 C 0.43873 0.9471 0.07375 0.0
C104 C 0.46159 0.45025 0.23455 0.0
C105 C 0.47901 0.49907 0.24564 0.0
H106 H 0.46068 0.39632 0.16428 0.0
C107 C 0.51474 0.53197 0.19729 0.0
H108 H 0.43458 0.42402 0.27152 0.0
C109 C 0.52992 0.51592 0.13518 0.0
C110 C 0.50947 0.46685 0.12099 0.0
H111 H 0.52884 0.56985 0.2047 0.0
H112 H 0.55532 0.54175 0.09588 0.0
C113 C 0.47662 0.43435 0.17305 0.0
C114 C -0.01106 0.48194 0.40605 0.0
C115 C 0.95713 0.49866 0.41581 0.0
H116 H 0.04208 0.48129 0.33665 0.0
C117 C 0.95953 0.53378 0.36617 0.0
H118 H -0.01152 0.45543 0.44406 0.0
C119 C -0.00934 0.54882 0.304 0.0
C120 C 0.01957 0.52884 0.29106 0.0
H121 H 0.93543 0.54732 0.37253 0.0
H122 H -0.01017 0.57357 0.2636 0.0
C123 C 0.01975 0.49682 0.34448 0.0
C124 C 0.42156 0.00591 0.47138 0.0
C125 C 0.47037 0.035 0.45804 0.0
H126 H 0.36791 0.95062 0.54064 0.0
C127 C 0.50257 0.0355 0.51144 0.0
H128 H 0.39598 0.00485 0.43101 0.0
C129 C 0.48668 0.00478 0.57342 0.0
C130 C 0.43819 0.97276 0.58361 0.0
H131 H 0.54037 0.05799 0.5033 0.0
H132 H 0.51269 0.00453 0.61142 0.0
C133 C 0.40553 0.97489 0.53395 0.0
C134 C 0.45755 0.49906 0.73543 0.0
C135 C 0.44065 0.45027 0.74585 0.0
H136 H 0.45814 0.55302 0.66556 0.0
C137 C 0.40536 0.41738 0.69678 0.0
H138 H 0.48419 0.52526 0.77298 0.0
C139 C 0.3902 0.43347 0.6346 0.0
C140 C 0.41024 0.48256 0.62106 0.0
H141 H 0.39168 0.37954 0.70366 0.0
H142 H 0.36522 0.40771 0.5947 0.0
C143 C 0.44255 0.51499 0.67385 0.0
C144 C 0.20593 0.50683 0.21159 0.0
C145 C 0.205 0.50053 0.13227 0.0
H146 H 0.24585 0.52081 0.31499 0.0
C147 C 0.24317 0.4997 0.09733 0.0
H148 H 0.17684 0.50737 0.24016 0.0
C149 C 0.28281 0.50823 0.13991 0.0
C150 C 0.28465 0.51661 0.21857 0.0
H151 H 0.24357 0.49499 0.03646 0.0
H152 H 0.31272 0.50965 0.11083 0.0
C153 C 0.24522 0.51424 0.25454 0.0
C154 C 0.67776 0.22273 0.37795 0.0
C155 C 0.68305 0.22229 0.29857 0.0
H156 H 0.70345 0.26249 0.48171 0.0
C157 C 0.72171 0.26129 0.2638 0.0
H158 H 0.64841 0.193 0.40639 0.0
C159 C 0.75253 0.3012 0.30667 0.0
C160 C 0.74604 0.30252 0.38545 0.0
H161 H 0.72673 0.26207 0.20288 0.0
H162 H 0.78074 0.3317 0.27776 0.0
C163 C 0.70935 0.26231 0.42118 0.0
C164 C 0.42784 0.76681 0.47276 0.0
C165 C 0.42021 0.76013 0.55156 0.0
H166 H 0.44034 0.74092 0.36856 0.0
C167 C 0.42321 0.72299 0.5869 0.0
H168 H 0.42595 0.79537 0.44415 0.0
C169 C 0.4305 0.69115 0.54326 0.0
C170 C 0.43603 0.69662 0.46386 0.0
H171 H 0.41726 0.71695 0.64744 0.0
H172 H 0.43048 0.66145 0.57141 0.0
C173 C 0.43623 0.73573 0.42948 0.0
C174 C 0.67582 0.43856 0.75361 0.0
C175 C 0.63584 0.43514 0.71773 0.0
H176 H 0.74474 0.44684 0.73907 0.0
C177 C 0.6372 0.44309 0.63896 0.0
H178 H 0.67559 0.43237 0.81414 0.0
C179 C 0.6769 0.4522 0.59623 0.0
C180 C 0.71567 0.45241 0.63113 0.0
H181 H 0.60687 0.44087 0.60993 0.0
H182 H 0.67614 0.45653 0.5353 0.0
C183 C 0.7152 0.44657 0.71052 0.0
C184 C 0.24647 0.7309 0.87794 0.0
C185 C 0.24127 0.73117 0.79848 0.0
H186 H 0.22025 0.69158 -0.01806 0.0
C187 C 0.20232 0.69239 0.76377 0.0
H188 H 0.27604 0.76047 0.90632 0.0
C189 C 0.17106 0.65282 0.80682 0.0
C190 C 0.1774 0.65164 0.8857 0.0
H191 H 0.19736 0.69149 0.7028 0.0
H192 H 0.14259 0.62245 0.77798 0.0
C193 C 0.21445 0.69167 0.92133 0.0
C194 C 0.48713 0.21539 0.92897 0.0
C195 C 0.48662 0.2541 0.96344 0.0
H196 H 0.49844 0.15638 0.94356 0.0
C197 C 0.49205 0.25948 0.04288 0.0
H198 H 0.48312 0.2103 0.86801 0.0
C199 C 0.49987 0.22794 0.08648 0.0
C200 C 0.50353 0.19121 0.05108 0.0
H201 H 0.49155 0.28887 0.07109 0.0
H202 H 0.50569 0.23391 0.14707 0.0
C203 C 0.49605 0.18463 -0.02778 0.0
loop_
_geom_bond_atom_site_label_1
_geom_bond_atom_site_label_2
_geom_bond_distance
_geom_bond_site_symmetry_2
_ccdc_geom_bond_type
C0 O1 1.306 . S
C0 O3 1.160 . S
O1 C0 1.306 . S
O1 Cd2 2.228 1_554 S
Cd2 O1 2.228 1_556 S
Cd2 O6 2.273 . S
Cd2 O10 2.277 . S
O3 C0 1.160 . S
O3 Cd4 2.203 . S
Cd4 O3 2.203 . S
Cd4 O6 2.411 1_554 S
Cd4 O7 2.328 1_554 S
Cd4 O8 2.352 . S
Cd4 O12 2.277 . S
Cd4 O13 2.356 . S
C5 O10 1.209 1_554 S
C5 O12 1.226 . S
O6 Cd2 2.273 . S
O6 Cd4 2.411 1_556 S
O6 C9 1.320 . S
O7 Cd4 2.328 1_556 S
O7 C9 1.217 . S
O8 Cd4 2.352 . S
O8 C11 1.258 . S
C9 O6 1.320 . S
C9 O7 1.217 . S
O10 Cd2 2.277 . S
O10 C5 1.209 1_556 S
C11 O8 1.258 . S
C11 O13 1.282 . S
O12 Cd4 2.277 . S
O12 C5 1.226 . S
O13 Cd4 2.356 . S
O13 C11 1.282 . S
C14 O15 1.306 . S
C14 O17 1.160 . S
O15 C14 1.306 . S
O15 Cd16 2.228 . S
Cd16 O15 2.228 . S
Cd16 O20 2.273 . S
Cd16 O24 2.277 . S
O17 C14 1.160 . S
O17 Cd18 2.203 . S
Cd18 O17 2.203 . S
Cd18 O20 2.411 . S
Cd18 O21 2.333 . S
Cd18 O22 2.352 . S
Cd18 O26 2.277 . S
Cd18 O27 2.356 . S
C19 O24 1.209 . S
C19 O26 1.226 . S
O20 Cd16 2.273 . S
O20 Cd18 2.411 . S
O20 C23 1.320 . S
O21 Cd18 2.333 . S
O21 C23 1.214 . S
O22 Cd18 2.352 . S
O22 C25 1.258 . S
C23 O20 1.320 . S
C23 O21 1.214 . S
O24 Cd16 2.277 . S
O24 C19 1.209 . S
C25 O22 1.258 . S
C25 O27 1.282 . S
O26 Cd18 2.277 . S
O26 C19 1.226 . S
O27 Cd18 2.356 . S
O27 C25 1.282 . S
C28 O29 1.306 . S
C28 O31 1.160 . S
O29 C28 1.306 . S
O29 Cd30 2.228 . S
Cd30 O29 2.228 . S
Cd30 O34 2.273 . S
Cd30 O38 2.277 . S
O31 C28 1.160 . S
O31 Cd32 2.203 . S
Cd32 O31 2.203 . S
Cd32 O34 2.411 . S
Cd32 O35 2.333 . S
Cd32 O36 2.352 . S
Cd32 O40 2.277 . S
Cd32 O41 2.356 . S
C33 O38 1.209 . S
C33 O40 1.226 . S
O34 Cd30 2.273 . S
O34 Cd32 2.411 . S
O34 C37 1.320 . S
O35 Cd32 2.333 . S
O35 C37 1.214 . S
O36 Cd32 2.352 . S
O36 C39 1.258 . S
C37 O34 1.320 . S
C37 O35 1.214 . S
O38 Cd30 2.277 . S
O38 C33 1.209 . S
C39 O36 1.258 . S
C39 O41 1.282 . S
O40 Cd32 2.277 . S
O40 C33 1.226 . S
O41 Cd32 2.356 . S
O41 C39 1.282 . S
C42 O43 1.306 . S
C42 O45 1.160 . S
O43 C42 1.306 . S
O43 Cd44 2.228 . S
Cd44 O43 2.228 . S
Cd44 O48 2.273 . S
Cd44 O52 2.277 . S
O45 C42 1.160 . S
O45 Cd46 2.203 . S
Cd46 O45 2.203 . S
Cd46 O48 2.411 . S
Cd46 O49 2.333 . S
Cd46 O50 2.352 . S
Cd46 O54 2.277 . S
Cd46 O55 2.356 . S
C47 O52 1.209 . S
C47 O54 1.226 . S
O48 Cd44 2.273 . S
O48 Cd46 2.411 . S
O48 C51 1.320 . S
O49 Cd46 2.333 . S
O49 C51 1.214 . S
O50 Cd46 2.352 . S
O50 C53 1.258 . S
C51 O48 1.320 . S
C51 O49 1.214 . S
O52 Cd44 2.277 . S
O52 C47 1.209 . S
C53 O50 1.258 . S
C53 O55 1.282 . S
O54 Cd46 2.277 . S
O54 C47 1.226 . S
O55 Cd46 2.356 . S
O55 C53 1.282 . S
C56 O57 1.306 . S
C56 O59 1.160 . S
O57 C56 1.306 . S
O57 Cd58 2.228 . S
Cd58 O57 2.228 . S
Cd58 O62 2.273 . S
Cd58 O66 2.277 . S
O59 C56 1.160 . S
O59 Cd60 2.203 . S
Cd60 O59 2.203 . S
Cd60 O62 2.411 . S
Cd60 O63 2.333 . S
Cd60 O64 2.352 . S
Cd60 O68 2.277 . S
Cd60 O69 2.356 . S
C61 O66 1.209 . S
C61 O68 1.226 . S
O62 Cd58 2.273 . S
O62 Cd60 2.411 . S
O62 C65 1.320 . S
O63 Cd60 2.333 . S
O63 C65 1.214 . S
O64 Cd60 2.352 . S
O64 C67 1.258 . S
C65 O62 1.320 . S
C65 O63 1.214 . S
O66 Cd58 2.277 . S
O66 C61 1.209 . S
C67 O64 1.258 . S
C67 O69 1.282 . S
O68 Cd60 2.277 . S
O68 C61 1.226 . S
O69 Cd60 2.356 . S
O69 C67 1.282 . S
C70 O71 1.306 . S
C70 O73 1.156 1_556 S
O71 C70 1.306 . S
O71 Cd72 2.228 . S
Cd72 O71 2.228 . S
Cd72 O76 2.273 . S
Cd72 O80 2.277 . S
O73 C70 1.156 1_554 S
O73 Cd74 2.198 1_554 S
Cd74 O73 2.198 1_556 S
Cd74 O76 2.411 . S
Cd74 O77 2.333 . S
Cd74 O78 2.352 1_556 S
Cd74 O82 2.277 . S
Cd74 O83 2.356 1_556 S
C75 O80 1.209 . S
C75 O82 1.226 . S
O76 Cd72 2.273 . S
O76 Cd74 2.411 . S
O76 C79 1.320 . S
O77 Cd74 2.333 . S
O77 C79 1.214 . S
O78 Cd74 2.352 1_554 S
O78 C81 1.258 . S
C79 O76 1.320 . S
C79 O77 1.214 . S
O80 Cd72 2.277 . S
O80 C75 1.209 . S
C81 O78 1.258 . S
C81 O83 1.282 . S
O82 Cd74 2.277 . S
O82 C75 1.226 . S
O83 Cd74 2.356 1_554 S
O83 C81 1.282 . S
C84 C85 1.387 . S
C84 H88 0.950 . S
C84 C93 1.390 . S
C85 C84 1.387 . S
C85 C87 1.387 . S
H86 C93 0.950 . S
C87 C85 1.387 . S
C87 C89 1.390 1_455 S
C87 H91 0.950 . S
H88 C84 0.950 . S
C89 C87 1.390 1_655 S
C89 C90 1.387 . S
C89 H92 0.950 . S
C90 C89 1.387 . S
C90 C93 1.387 1_655 S
H91 C87 0.950 . S
H92 C89 0.950 . S
C93 C84 1.390 . S
C93 H86 0.950 . S
C93 C90 1.387 1_455 S
C94 C95 1.387 . S
C94 H98 0.950 . S
C94 C103 1.390 1_566 S
C95 C94 1.387 . S
C95 C97 1.387 . S
H96 C103 0.950 . S
C97 C95 1.387 . S
C97 C99 1.390 1_566 S
C97 H101 0.950 . S
H98 C94 0.950 . S
C99 C97 1.390 1_544 S
C99 C100 1.387 . S
C99 H102 0.950 . S
C100 C99 1.387 . S
C100 C103 1.387 . S
H101 C97 0.950 . S
H102 C99 0.950 . S
C103 C94 1.390 1_544 S
C103 H96 0.950 . S
C103 C100 1.387 . S
C104 C105 1.387 . S
C104 H108 0.950 . S
C104 C113 1.390 . S
C105 C104 1.387 . S
C105 C107 1.387 . S
H106 C113 0.950 . S
C107 C105 1.387 . S
C107 C109 1.390 . S
C107 H111 0.950 . S
H108 C104 0.950 . S
C109 C107 1.390 . S
C109 C110 1.387 . S
C109 H112 0.950 . S
C110 C109 1.387 . S
C110 C113 1.387 . S
H111 C107 0.950 . S
H112 C109 0.950 . S
C113 C104 1.390 . S
C113 H106 0.950 . S
C113 C110 1.387 . S
C114 C115 1.387 1_455 S
C114 H118 0.950 . S
C114 C123 1.390 . S
C115 C114 1.387 1_655 S
C115 C117 1.387 . S
H116 C123 0.950 . S
C117 C115 1.387 . S
C117 C119 1.390 . S
C117 H121 0.950 . S
H118 C114 0.950 . S
C119 C117 1.390 . S
C119 C120 1.387 1_655 S
C119 H122 0.950 . S
C120 C119 1.387 1_455 S
C120 C123 1.387 . S
H121 C117 0.950 . S
H122 C119 0.950 . S
C123 C114 1.390 . S
C123 H116 0.950 . S
C123 C120 1.387 . S
C124 C125 1.387 . S
C124 H128 0.950 . S
C124 C133 1.390 . S
C125 C124 1.387 . S
C125 C127 1.387 1_545 S
H126 C133 0.950 . S
C127 C125 1.387 1_565 S
C127 C129 1.390 . S
C127 H131 0.950 . S
H128 C124 0.950 . S
C129 C127 1.390 . S
C129 C130 1.387 . S
C129 H132 0.950 . S
C130 C129 1.387 . S
C130 C133 1.387 1_565 S
H131 C127 0.950 . S
H132 C129 0.950 . S
C133 C124 1.390 . S
C133 H126 0.950 . S
C133 C130 1.387 1_545 S
C134 C135 1.387 . S
C134 H138 0.950 . S
C134 C143 1.390 . S
C135 C134 1.387 . S
C135 C137 1.387 . S
H136 C143 0.950 . S
C137 C135 1.387 . S
C137 C139 1.390 . S
C137 H141 0.950 . S
H138 C134 0.950 . S
C139 C137 1.390 . S
C139 C140 1.387 . S
C139 H142 0.950 . S
C140 C139 1.387 . S
C140 C143 1.387 . S
H141 C137 0.950 . S
H142 C139 0.950 . S
C143 C134 1.390 . S
C143 H136 0.950 . S
C143 C140 1.387 . S
C144 C145 1.387 . S
C144 H148 0.950 . S
C144 C153 1.390 . S
C145 C144 1.387 . S
C145 C147 1.387 . S
H146 C153 0.950 . S
C147 C145 1.387 . S
C147 C149 1.390 . S
C147 H151 0.950 . S
H148 C144 0.950 . S
C149 C147 1.390 . S
C149 C150 1.387 . S
C149 H152 0.950 . S
C150 C149 1.387 . S
C150 C153 1.387 . S
H151 C147 0.950 . S
H152 C149 0.950 . S
C153 C144 1.390 . S
C153 H146 0.950 . S
C153 C150 1.387 . S
C154 C155 1.387 . S
C154 H158 0.950 . S
C154 C163 1.390 . S
C155 C154 1.387 . S
C155 C157 1.387 . S
H156 C163 0.950 . S
C157 C155 1.387 . S
C157 C159 1.390 . S
C157 H161 0.950 . S
H158 C154 0.950 . S
C159 C157 1.390 . S
C159 C160 1.387 . S
C159 H162 0.950 . S
C160 C159 1.387 . S
C160 C163 1.387 . S
H161 C157 0.950 . S
H162 C159 0.950 . S
C163 C154 1.390 . S
C163 H156 0.950 . S
C163 C160 1.387 . S
C164 C165 1.387 . S
C164 H168 0.950 . S
C164 C173 1.390 . S
C165 C164 1.387 . S
C165 C167 1.387 . S
H166 C173 0.950 . S
C167 C165 1.387 . S
C167 C169 1.390 . S
C167 H171 0.950 . S
H168 C164 0.950 . S
C169 C167 1.390 . S
C169 C170 1.387 . S
C169 H172 0.950 . S
C170 C169 1.387 . S
C170 C173 1.387 . S
H171 C167 0.950 . S
H172 C169 0.950 . S
C173 C164 1.390 . S
C173 H166 0.950 . S
C173 C170 1.387 . S
C174 C175 1.387 . S
C174 H178 0.950 . S
C174 C183 1.390 . S
C175 C174 1.387 . S
C175 C177 1.387 . S
H176 C183 0.950 . S
C177 C175 1.387 . S
C177 C179 1.390 . S
C177 H181 0.950 . S
H178 C174 0.950 . S
C179 C177 1.390 . S
C179 C180 1.387 . S
C179 H182 0.950 . S
C180 C179 1.387 . S
C180 C183 1.387 . S
H181 C177 0.950 . S
H182 C179 0.950 . S
C183 C174 1.390 . S
C183 H176 0.950 . S
C183 C180 1.387 . S
C184 C185 1.387 . S
C184 H188 0.950 . S
C184 C193 1.390 . S
C185 C184 1.387 . S
C185 C187 1.387 . S
H186 C193 0.950 1_554 S
C187 C185 1.387 . S
C187 C189 1.390 . S
C187 H191 0.950 . S
H188 C184 0.950 . S
C189 C187 1.390 . S
C189 C190 1.387 . S
C189 H192 0.950 . S
C190 C189 1.387 . S
C190 C193 1.387 . S
H191 C187 0.950 . S
H192 C189 0.950 . S
C193 C184 1.390 . S
C193 H186 0.950 1_556 S
C193 C190 1.387 . S
C194 C195 1.387 1_556 S
C194 H198 0.950 . S
C194 C203 1.390 1_556 S
C195 C194 1.387 1_554 S
C195 C197 1.387 . S
H196 C203 0.950 . S
C197 C195 1.387 . S
C197 C199 1.390 . S
C197 H201 0.950 . S
H198 C194 0.950 . S
C199 C197 1.390 . S
C199 C200 1.387 . S
C199 H202 0.950 . S
C200 C199 1.387 . S
C200 C203 1.387 . S
H201 C197 0.950 . S
H202 C199 0.950 . S
C203 C194 1.390 1_554 S
C203 H196 0.950 . S
C203 C200 1.387 . S
C85 C9 1.348 . S
C90 C53 1.370 . S
C95 C67 1.370 . S
C100 C23 1.349 . S
C105 C37 1.348 . S
C110 C81 1.370 . S
C115 C51 1.350 . S
C120 C11 1.370 . S
C125 C25 1.370 . S
C130 C65 1.351 . S
C135 C79 1.349 . S
C140 C39 1.370 . S
C145 C0 1.354 . S
C150 C33 1.353 . S
C155 C14 1.354 . S
C160 C47 1.353 . S
C165 C61 1.352 . S
C170 C28 1.355 . S
C175 C75 1.353 . S
C180 C42 1.354 . S
C185 C56 1.353 . S
C190 C5 1.354 1_556 S
C195 C70 1.355 1_554 S
C200 C19 1.352 . S
