# Generated by pormake.
# Topology sma, (6)-cn, num edge types: 1
# Building blocks:
#     Node 0, Type 0, BuildingBlock: BETDEL_clean_sbu_0, # of connection points: 6
#     Node 1, Type 0, BuildingBlock: BETDEL_clean_sbu_0, # of connection points: 6
#     Node 2, Type 0, BuildingBlock: BETDEL_clean_sbu_0, # of connection points: 6
#     Edge 3, Type (0, 0), BuildingBlock: AJUNOK_clean_linker_0, # of connection points: 2
#     Edge 4, Type (0, 0), BuildingBlock: AJUNOK_clean_linker_0, # of connection points: 2
#     Edge 5, Type (0, 0), BuildingBlock: AJUNOK_clean_linker_0, # of connection points: 2
#     Edge 6, Type (0, 0), BuildingBlock: AJUNOK_clean_linker_0, # of connection points: 2
#     Edge 7, Type (0, 0), BuildingBlock: AJUNOK_clean_linker_0, # of connection points: 2
#     Edge 8, Type (0, 0), BuildingBlock: AJUNOK_clean_linker_0, # of connection points: 2
#     Edge 9, Type (0, 0), BuildingBlock: AJUNOK_clean_linker_0, # of connection points: 2
#     Edge 10, Type (0, 0), BuildingBlock: AJUNOK_clean_linker_0, # of connection points: 2
#     Edge 11, Type (0, 0), BuildingBlock: AJUNOK_clean_linker_0, # of connection points: 2
# Relax obj value: 0.113
# Max RMSD: 0.196
# Mean RMSD: 0.196
data_MOF--net-sma--node1-BETDEL_clean_sbu_0--edge1-AJUNOK_clean_linker_0
_symmetry_space_group_name_H-M    P1
_symmetry_Int_Tables_number       1
_symmetry_cell_setting            triclinic
loop_
_symmetry_equiv_pos_as_xyz
'x, y, z'
_cell_length_a     24.088328
_cell_length_b     24.001383
_cell_length_c     10.38825
_cell_angle_alpha  89.601007
_cell_angle_beta   91.142547
_cell_angle_gamma 120.23638
loop_
_atom_site_label
_atom_site_type_symbol
_atom_site_fract_x
_atom_site_fract_y
_atom_site_fract_z
_atom_type_partial_charge
Dy0 Dy 0.09822 0.51287 0.12191 0.0
C1 C 0.90318 0.57665 0.06685 0.0
C2 C 0.19389 0.49194 0.04347 0.0
Dy3 Dy 1.00763 0.56511 0.12559 0.0
O4 O 0.19769 0.52795 0.13951 0.0
O5 O 0.13673 0.46546 -0.00884 0.0
O6 O 0.08112 0.47757 0.32243 0.0
O7 O 0.07198 0.55819 0.26999 0.0
C8 C 0.06355 0.51822 0.35845 0.0
C9 C 0.05672 0.56556 0.89819 0.0
O10 O 0.09428 0.65721 0.18256 0.0
O11 O 0.16255 0.62237 0.11104 0.0
O12 O 0.92502 0.54733 -0.0011 0.0
O13 O 0.9377 0.59954 0.17288 0.0
O14 O 1.0526 0.61348 0.94262 0.0
O15 O 1.03625 0.52031 -0.02121 0.0
O16 O 1.00544 0.41851 0.1479 0.0
O17 O 0.94682 0.46686 0.20519 0.0
C18 C 0.1527 0.66878 0.15512 0.0
C19 C 0.95262 0.41524 0.19354 0.0
Dy20 Dy 0.49608 0.99148 0.44868 0.0
C21 C 0.75278 0.19777 0.47352 0.0
C22 C 0.38367 0.89931 0.33407 0.0
Dy23 Dy 0.63546 0.08659 0.48286 0.0
O24 O 0.3882 0.92866 0.44161 0.0
O25 O 0.44067 0.92048 0.28893 0.0
O26 O 0.46937 0.99524 0.6502 0.0
O27 O 0.56322 1.01386 0.61151 0.0
C28 C 0.52708 1.01585 0.69615 0.0
C29 C 0.59321 0.05417 0.2385 0.0
O30 O 0.64243 1.00094 0.54234 0.0
O31 O 0.54343 0.92988 0.4486 0.0
O32 O 0.69819 0.1937 0.4964 0.0
O33 O 0.74423 0.13979 0.47133 0.0
O34 O 0.64654 0.06097 0.28239 0.0
O35 O 0.56515 0.06592 0.32555 0.0
O36 O 0.49411 0.08417 0.46106 0.0
O37 O 0.59043 0.13749 0.57471 0.0
C38 C 0.59984 0.94246 0.49954 0.0
C39 C 0.53484 0.13163 0.53863 0.0
Dy40 Dy 0.56925 0.59833 0.77873 0.0
C41 C 0.50934 0.33831 0.74877 0.0
C42 C 0.60248 0.71382 0.66629 0.0
Dy43 Dy 0.51856 0.45432 0.79337 0.0
O44 O 0.62354 0.70741 0.77888 0.0
O45 O 0.56463 0.65744 0.61638 0.0
O46 O 0.53422 0.60446 -0.02818 0.0
O47 O 0.55795 0.53266 0.93632 0.0
C48 C 0.53304 0.55301 0.01609 0.0
C49 C 0.50911 0.5008 0.56281 0.0
O50 O 0.43078 0.45297 0.86259 0.0
O51 O 0.46125 0.55264 0.77046 0.0
O52 O 0.54276 0.39043 0.6834 0.0
O53 O 0.48165 0.34921 0.84474 0.0
O54 O 0.46447 0.44757 0.61066 0.0
O55 O 0.55669 0.52612 0.63949 0.0
O56 O 0.66438 0.60388 0.80733 0.0
O57 O 0.62095 0.49634 0.86746 0.0
C58 C 0.41842 0.49924 0.8298 0.0
C59 C 0.67068 0.55575 0.85406 0.0
C60 C 0.24605 0.43743 0.9334 0.0
C61 C 0.25015 0.49306 -0.01288 0.0
C62 C 0.30064 0.43918 0.88209 0.0
C63 C 0.36003 0.49722 0.87816 0.0
H64 H 0.2009 0.39217 0.93376 0.0
H65 H 0.29629 0.39515 0.84446 0.0
S66 S 0.39432 0.6566 0.00213 0.0
N67 N 0.31772 0.60744 0.03251 0.0
N68 N 0.4188 0.61176 0.93089 0.0
C69 C 0.36384 0.55333 0.92883 0.0
C70 C 0.30923 0.55099 -0.01538 0.0
C71 C 0.86593 0.26026 0.38958 0.0
C72 C 0.80474 0.25341 0.40405 0.0
C73 C 0.91338 0.31077 0.3154 0.0
C74 C 0.90055 0.35512 0.25116 0.0
H75 H 0.87744 0.22694 0.43715 0.0
H76 H 0.9608 0.3163 0.3118 0.0
S77 S 0.74501 0.35261 0.24287 0.0
N78 N 0.73275 0.29256 0.33872 0.0
N79 N 0.82007 0.38465 0.19685 0.0
C80 C 0.83849 0.34652 0.25997 0.0
C81 C 0.79112 0.29653 0.33712 0.0
C82 C 0.64346 0.88813 0.64112 0.0
C83 C 0.6096 0.88757 0.52858 0.0
C84 C 0.6438 0.83244 0.68231 0.0
C85 C 0.61087 0.77463 0.6116 0.0
H86 H 0.66687 0.93074 0.70168 0.0
H87 H 0.66767 0.83401 0.77283 0.0
S88 S 0.52323 0.75103 0.29997 0.0
N89 N 0.54804 0.8265 0.34044 0.0
N90 N 0.54955 0.7224 0.41606 0.0
C91 C 0.58068 0.77488 0.49428 0.0
C92 C 0.57976 0.83122 0.45326 0.0
C93 C 0.7848 0.58396 0.83416 0.0
C94 C 0.73275 0.57008 0.91238 0.0
C95 C 0.84133 0.58954 0.88748 0.0
C96 C 0.84821 0.58288 0.02098 0.0
H97 H 0.78072 0.58757 0.73075 0.0
H98 H 0.87935 0.59717 0.82299 0.0
S99 S 0.72723 0.55171 0.26757 0.0
N100 N 0.69237 0.55348 0.13014 0.0
N101 N 0.79942 0.56526 0.23049 0.0
C102 C 0.7978 0.57253 0.10094 0.0
C103 C 0.7397 0.56565 0.04635 0.0
C104 C 0.32628 0.80518 0.18424 0.0
C105 C 0.32356 0.84539 0.2787 0.0
C106 C 0.27043 0.74954 0.14078 0.0
C107 C 0.20957 0.73249 0.18864 0.0
H108 H 0.37215 0.81535 0.14704 0.0
H109 H 0.27533 0.71885 0.07142 0.0
S110 S 0.17637 0.82538 0.42947 0.0
N111 N 0.25509 0.86677 0.4134 0.0
N112 N 0.15009 0.76325 0.33059 0.0
C113 C 0.20605 0.77431 0.27855 0.0
C114 C 0.26305 0.83043 0.32395 0.0
C115 C 0.52855 0.2463 0.77973 0.0
C116 C 0.50107 0.276 0.70711 0.0
C117 C 0.53687 0.19764 0.72527 0.0
C118 C 0.51722 0.17656 0.59713 0.0
H119 H 0.5475 0.2636 0.87583 0.0
H120 H 0.56075 0.17775 0.78277 0.0
S121 S 0.43734 0.23552 0.37187 0.0
N122 N 0.45083 0.27882 0.50398 0.0
N123 N 0.46469 0.18597 0.40329 0.0
C124 C 0.4859 0.20305 0.52679 0.0
C125 C 0.4785 0.25335 0.58137 0.0
C126 C 0.06602 0.50385 0.71875 0.0
C127 C 0.05936 0.55558 0.76024 0.0
C128 C 0.06567 0.49123 0.58791 0.0
C129 C 0.05827 0.52977 0.49451 0.0
H130 H 0.07151 0.47286 0.78769 0.0
H131 H 0.07192 0.45134 0.56007 0.0
S132 S 1.03199 0.66677 0.55379 0.0
N133 N 1.04097 0.64324 0.69848 0.0
N134 N 1.03927 0.61856 0.45171 0.0
C135 C 1.0495 0.58042 0.53456 0.0
C136 C 1.05051 0.59373 0.66791 0.0
C137 C 0.61354 1.03568 0.01419 0.0
C138 C 0.57446 0.04417 0.10145 0.0
C139 C 0.59838 1.02732 0.88262 0.0
C140 C 0.54326 1.02662 0.83419 0.0
H141 H 0.65641 1.03556 0.04758 0.0
H142 H 0.62963 1.02066 0.81892 0.0
S143 S 0.42629 0.04899 0.02177 0.0
N144 N 0.47926 0.05297 0.13015 0.0
N145 N 0.45026 1.03685 0.88228 0.0
C146 C 0.5039 1.03544 0.92013 0.0
C147 C 0.51955 0.04426 0.05416 0.0
C148 C 0.50139 0.55839 0.36994 0.0
C149 C 0.51411 0.51219 0.42355 0.0
C150 C 0.50625 0.57007 0.2372 0.0
C151 C 0.5234 0.5354 0.1537 0.0
H152 H 0.48731 0.58543 0.43074 0.0
H153 H 0.49699 0.60697 0.20006 0.0
S154 S 0.55443 0.40395 0.24725 0.0
N155 N 0.54021 0.42846 0.38449 0.0
N156 N 0.54782 0.44905 0.13399 0.0
C157 C 0.53341 0.48694 0.20606 0.0
C158 C 0.5291 0.47563 0.34148 0.0
loop_
_geom_bond_atom_site_label_1
_geom_bond_atom_site_label_2
_geom_bond_distance
_geom_bond_site_symmetry_2
_ccdc_geom_bond_type
Dy0 O4 2.398 . S
Dy0 O5 2.491 . S
Dy0 O6 2.403 . S
Dy0 O7 2.664 1_455 S
Dy0 O11 2.326 . S
Dy0 O15 2.310 . S
Dy0 O16 2.351 1_455 S
C1 O12 1.185 . S
C1 O13 1.355 . S
C2 O4 1.185 . S
C2 O5 1.355 . S
Dy3 O7 2.310 . S
Dy3 O10 2.351 1_655 S
Dy3 O12 2.398 . S
Dy3 O13 2.491 . S
Dy3 O14 2.403 1_554 S
Dy3 O15 2.664 1_655 S
Dy3 O17 2.326 . S
O4 Dy0 2.398 . S
O4 C2 1.185 . S
O5 Dy0 2.491 . S
O5 C2 1.355 . S
O6 Dy0 2.403 . S
O6 C8 1.254 . S
O7 Dy0 2.664 1_655 S
O7 Dy3 2.310 . S
O7 C8 1.268 1_655 S
C8 O6 1.254 . S
C8 O7 1.268 1_455 S
C9 O14 1.258 . S
C9 O15 1.266 1_656 S
O10 Dy3 2.351 1_455 S
O10 C18 1.249 . S
O11 Dy0 2.326 . S
O11 C18 1.267 . S
O12 C1 1.185 . S
O12 Dy3 2.398 . S
O13 C1 1.355 . S
O13 Dy3 2.491 . S
O14 Dy3 2.403 1_556 S
O14 C9 1.258 . S
O15 Dy0 2.310 . S
O15 Dy3 2.664 1_455 S
O15 C9 1.266 1_454 S
O16 Dy0 2.351 1_655 S
O16 C19 1.249 . S
O17 Dy3 2.326 . S
O17 C19 1.267 . S
C18 O10 1.249 . S
C18 O11 1.267 . S
C19 O16 1.249 . S
C19 O17 1.267 . S
Dy20 O24 2.398 . S
Dy20 O25 2.491 . S
Dy20 O26 2.403 . S
Dy20 O27 2.664 1_565 S
Dy20 O31 2.326 . S
Dy20 O35 2.310 . S
Dy20 O36 2.351 1_565 S
C21 O32 1.185 . S
C21 O33 1.355 . S
C22 O24 1.185 . S
C22 O25 1.355 . S
Dy23 O27 2.310 . S
Dy23 O30 2.351 1_545 S
Dy23 O32 2.398 . S
Dy23 O33 2.491 . S
Dy23 O34 2.403 . S
Dy23 O35 2.664 1_545 S
Dy23 O37 2.326 . S
O24 Dy20 2.398 . S
O24 C22 1.185 . S
O25 Dy20 2.491 . S
O25 C22 1.355 . S
O26 Dy20 2.403 . S
O26 C28 1.256 . S
O27 Dy20 2.664 1_545 S
O27 Dy23 2.310 . S
O27 C28 1.267 1_545 S
C28 O26 1.256 . S
C28 O27 1.267 1_565 S
C29 O34 1.254 . S
C29 O35 1.268 1_545 S
O30 Dy23 2.351 1_565 S
O30 C38 1.249 . S
O31 Dy20 2.326 . S
O31 C38 1.267 . S
O32 C21 1.185 . S
O32 Dy23 2.398 . S
O33 C21 1.355 . S
O33 Dy23 2.491 . S
O34 Dy23 2.403 . S
O34 C29 1.254 . S
O35 Dy20 2.310 . S
O35 Dy23 2.664 1_565 S
O35 C29 1.268 1_565 S
O36 Dy20 2.351 1_545 S
O36 C39 1.249 . S
O37 Dy23 2.326 . S
O37 C39 1.267 . S
C38 O30 1.249 . S
C38 O31 1.267 . S
C39 O36 1.249 . S
C39 O37 1.267 . S
Dy40 O44 2.398 . S
Dy40 O45 2.491 . S
Dy40 O46 2.403 1_556 S
Dy40 O47 2.664 . S
Dy40 O51 2.326 . S
Dy40 O55 2.310 . S
Dy40 O56 2.351 . S
C41 O52 1.185 . S
C41 O53 1.355 . S
C42 O44 1.185 . S
C42 O45 1.355 . S
Dy43 O47 2.310 . S
Dy43 O50 2.351 . S
Dy43 O52 2.398 . S
Dy43 O53 2.491 . S
Dy43 O54 2.403 . S
Dy43 O55 2.664 . S
Dy43 O57 2.326 . S
O44 Dy40 2.398 . S
O44 C42 1.185 . S
O45 Dy40 2.491 . S
O45 C42 1.355 . S
O46 Dy40 2.403 1_554 S
O46 C48 1.254 . S
O47 Dy40 2.664 . S
O47 Dy43 2.310 . S
O47 C48 1.268 1_556 S
C48 O46 1.254 . S
C48 O47 1.268 1_554 S
C49 O54 1.254 . S
C49 O55 1.268 . S
O50 Dy43 2.351 . S
O50 C58 1.249 . S
O51 Dy40 2.326 . S
O51 C58 1.267 . S
O52 C41 1.185 . S
O52 Dy43 2.398 . S
O53 C41 1.355 . S
O53 Dy43 2.491 . S
O54 Dy43 2.403 . S
O54 C49 1.254 . S
O55 Dy40 2.310 . S
O55 Dy43 2.664 . S
O55 C49 1.268 . S
O56 Dy40 2.351 . S
O56 C59 1.249 . S
O57 Dy43 2.326 . S
O57 C59 1.267 . S
C58 O50 1.249 . S
C58 O51 1.267 . S
C59 O56 1.249 . S
C59 O57 1.267 . S
C60 C61 1.369 1_556 S
C60 C62 1.419 . S
C60 H64 0.930 . S
C61 C60 1.369 1_554 S
C61 C70 1.429 . S
C62 C60 1.419 . S
C62 C63 1.363 . S
C62 H65 0.929 . S
C63 C62 1.363 . S
C63 C69 1.428 . S
H64 C60 0.930 . S
H65 C62 0.929 . S
S66 N67 1.613 . S
S66 N68 1.610 1_554 S
N67 S66 1.613 . S
N67 C70 1.350 . S
N68 S66 1.610 1_556 S
N68 C69 1.351 . S
C69 C63 1.428 . S
C69 N68 1.351 . S
C69 C70 1.434 1_556 S
C70 C61 1.429 . S
C70 N67 1.350 . S
C70 C69 1.434 1_554 S
C71 C72 1.369 . S
C71 C73 1.419 . S
C71 H75 0.930 . S
C72 C71 1.369 . S
C72 C81 1.429 . S
C73 C71 1.419 . S
C73 C74 1.363 . S
C73 H76 0.929 . S
C74 C73 1.363 . S
C74 C80 1.428 . S
H75 C71 0.930 . S
H76 C73 0.929 . S
S77 N78 1.613 . S
S77 N79 1.610 . S
N78 S77 1.613 . S
N78 C81 1.350 . S
N79 S77 1.610 . S
N79 C80 1.351 . S
C80 C74 1.428 . S
C80 N79 1.351 . S
C80 C81 1.434 . S
C81 C72 1.429 . S
C81 N78 1.350 . S
C81 C80 1.434 . S
C82 C83 1.369 . S
C82 C84 1.419 . S
C82 H86 0.930 . S
C83 C82 1.369 . S
C83 C92 1.429 . S
C84 C82 1.419 . S
C84 C85 1.363 . S
C84 H87 0.929 . S
C85 C84 1.363 . S
C85 C91 1.428 . S
H86 C82 0.930 . S
H87 C84 0.929 . S
S88 N89 1.613 . S
S88 N90 1.610 . S
N89 S88 1.613 . S
N89 C92 1.350 . S
N90 S88 1.610 . S
N90 C91 1.351 . S
C91 C85 1.428 . S
C91 N90 1.351 . S
C91 C92 1.434 . S
C92 C83 1.429 . S
C92 N89 1.350 . S
C92 C91 1.434 . S
C93 C94 1.369 . S
C93 C95 1.419 . S
C93 H97 0.930 . S
C94 C93 1.369 . S
C94 C103 1.429 1_556 S
C95 C93 1.419 . S
C95 C96 1.363 1_556 S
C95 H98 0.929 . S
C96 C95 1.363 1_554 S
C96 C102 1.428 . S
H97 C93 0.930 . S
H98 C95 0.929 . S
S99 N100 1.613 . S
S99 N101 1.610 . S
N100 S99 1.613 . S
N100 C103 1.350 . S
N101 S99 1.610 . S
N101 C102 1.351 . S
C102 C96 1.428 . S
C102 N101 1.351 . S
C102 C103 1.434 . S
C103 C94 1.429 1_554 S
C103 N100 1.350 . S
C103 C102 1.434 . S
C104 C105 1.369 . S
C104 C106 1.419 . S
C104 H108 0.930 . S
C105 C104 1.369 . S
C105 C114 1.429 . S
C106 C104 1.419 . S
C106 C107 1.363 . S
C106 H109 0.929 . S
C107 C106 1.363 . S
C107 C113 1.428 . S
H108 C104 0.930 . S
H109 C106 0.929 . S
S110 N111 1.613 . S
S110 N112 1.610 . S
N111 S110 1.613 . S
N111 C114 1.350 . S
N112 S110 1.610 . S
N112 C113 1.351 . S
C113 C107 1.428 . S
C113 N112 1.351 . S
C113 C114 1.434 . S
C114 C105 1.429 . S
C114 N111 1.350 . S
C114 C113 1.434 . S
C115 C116 1.369 . S
C115 C117 1.419 . S
C115 H119 0.930 . S
C116 C115 1.369 . S
C116 C125 1.429 . S
C117 C115 1.419 . S
C117 C118 1.363 . S
C117 H120 0.929 . S
C118 C117 1.363 . S
C118 C124 1.428 . S
H119 C115 0.930 . S
H120 C117 0.929 . S
S121 N122 1.613 . S
S121 N123 1.610 . S
N122 S121 1.613 . S
N122 C125 1.350 . S
N123 S121 1.610 . S
N123 C124 1.351 . S
C124 C118 1.428 . S
C124 N123 1.351 . S
C124 C125 1.434 . S
C125 C116 1.429 . S
C125 N122 1.350 . S
C125 C124 1.434 . S
C126 C127 1.369 . S
C126 C128 1.419 . S
C126 H130 0.930 . S
C127 C126 1.369 . S
C127 C136 1.429 1_455 S
C128 C126 1.419 . S
C128 C129 1.363 1_455 S
C128 H131 0.929 . S
C129 C128 1.363 1_655 S
C129 C135 1.428 . S
H130 C126 0.930 . S
H131 C128 0.929 . S
S132 N133 1.613 . S
S132 N134 1.610 . S
N133 S132 1.613 . S
N133 C136 1.350 . S
N134 S132 1.610 . S
N134 C135 1.351 . S
C135 C129 1.428 . S
C135 N134 1.351 . S
C135 C136 1.434 . S
C136 C127 1.429 1_655 S
C136 N133 1.350 . S
C136 C135 1.434 . S
C137 C138 1.369 . S
C137 C139 1.419 1_554 S
C137 H141 0.930 . S
C138 C137 1.369 . S
C138 C147 1.429 1_565 S
C139 C137 1.419 1_556 S
C139 C140 1.363 1_565 S
C139 H142 0.929 . S
C140 C139 1.363 1_545 S
C140 C146 1.428 . S
H141 C137 0.930 . S
H142 C139 0.929 . S
S143 N144 1.613 . S
S143 N145 1.610 1_554 S
N144 S143 1.613 . S
N144 C147 1.350 . S
N145 S143 1.610 1_556 S
N145 C146 1.351 . S
C146 C140 1.428 . S
C146 N145 1.351 . S
C146 C147 1.434 1_556 S
C147 C138 1.429 1_545 S
C147 N144 1.350 . S
C147 C146 1.434 1_554 S
C148 C149 1.369 . S
C148 C150 1.419 . S
C148 H152 0.930 . S
C149 C148 1.369 . S
C149 C158 1.429 . S
C150 C148 1.419 . S
C150 C151 1.363 . S
C150 H153 0.929 . S
C151 C150 1.363 . S
C151 C157 1.428 . S
H152 C148 0.930 . S
H153 C150 0.929 . S
S154 N155 1.613 . S
S154 N156 1.610 . S
N155 S154 1.613 . S
N155 C158 1.350 . S
N156 S154 1.610 . S
N156 C157 1.351 . S
C157 C151 1.428 . S
C157 N156 1.351 . S
C157 C158 1.434 . S
C158 C149 1.429 . S
C158 N155 1.350 . S
C158 C157 1.434 . S
C61 C2 1.850 . S
C63 C58 1.765 . S
C72 C21 1.832 . S
C74 C19 1.946 . S
C83 C38 1.763 . S
C85 C42 1.850 . S
C94 C59 1.942 . S
C96 C1 1.841 . S
C105 C22 1.850 . S
C107 C18 1.760 . S
C116 C41 1.834 . S
C118 C39 1.944 . S
C127 C9 0.777 1_455 S
C129 C8 0.778 1_655 S
C138 C29 0.782 1_565 S
C140 C28 0.775 1_545 S
C149 C49 0.773 . S
C151 C48 0.782 . S
