# Generated by pormake.
# Topology qtz, (4)-cn, num edge types: 1
# Building blocks:
#     Node 0, Type 0, BuildingBlock: QUQFOY_clean_sbu_1, # of connection points: 4
#     Node 1, Type 0, BuildingBlock: QUQFOY_clean_sbu_1, # of connection points: 4
#     Node 2, Type 0, BuildingBlock: QUQFOY_clean_sbu_1, # of connection points: 4
#     Edge 3, Type (0, 0), BuildingBlock: AJUNOK_clean_linker_0, # of connection points: 2
#     Edge 4, Type (0, 0), BuildingBlock: AJUNOK_clean_linker_0, # of connection points: 2
#     Edge 5, Type (0, 0), BuildingBlock: AJUNOK_clean_linker_0, # of connection points: 2
#     Edge 6, Type (0, 0), BuildingBlock: AJUNOK_clean_linker_0, # of connection points: 2
#     Edge 7, Type (0, 0), BuildingBlock: AJUNOK_clean_linker_0, # of connection points: 2
#     Edge 8, Type (0, 0), BuildingBlock: AJUNOK_clean_linker_0, # of connection points: 2
# Relax obj value: 0.043
# Max RMSD: 0.139
# Mean RMSD: 0.102
data_MOF--net-qtz--node1-QUQFOY_clean_sbu_1--edge1-AJUNOK_clean_linker_0
_symmetry_space_group_name_H-M    P1
_symmetry_Int_Tables_number       1
_symmetry_cell_setting            triclinic
loop_
_symmetry_equiv_pos_as_xyz
'x, y, z'
_cell_length_a     18.59573
_cell_length_b     19.013211
_cell_length_c     20.840535
_cell_angle_alpha  89.834956
_cell_angle_beta   90.114311
_cell_angle_gamma 121.6985
loop_
_atom_site_label
_atom_site_type_symbol
_atom_site_fract_x
_atom_site_fract_y
_atom_site_fract_z
_atom_type_partial_charge
O0 O 0.84092 0.47683 0.13022 0.0
Cd1 Cd 0.91781 0.4583 0.18976 0.0
Cd2 Cd 0.00895 0.62214 0.18457 0.0
O3 O 0.90418 0.61165 0.1412 0.0
O4 O 0.84559 0.34311 0.22245 0.0
O5 O 0.89724 0.45342 0.28463 0.0
C6 C 0.85056 0.37412 0.27841 0.0
C7 C 0.0744 0.70611 0.27319 0.0
C8 C 0.84408 0.54403 0.11864 0.0
C9 C 0.08135 0.53091 0.12184 0.0
O10 O 0.08516 0.59929 0.12809 0.0
O11 O 0.02184 0.46595 0.14813 0.0
O12 O 0.08117 0.73731 0.21683 0.0
O13 O 0.02682 0.62685 0.27965 0.0
O14 O 0.54575 0.16583 0.47616 0.0
Cd15 Cd 0.43138 0.09414 0.52183 0.0
Cd16 Cd 0.48809 0.98234 0.52242 0.0
O17 O 0.58905 0.07768 0.47309 0.0
O18 O 0.39761 0.17444 0.54553 0.0
O19 O 0.42382 0.10467 0.61711 0.0
C20 C 0.40378 0.15895 0.60485 0.0
C21 C 0.51413 0.91263 0.60312 0.0
C22 C 0.60037 0.14823 0.46018 0.0
C23 C 0.32068 0.93006 0.45777 0.0
O24 O 0.37473 0.91208 0.47492 0.0
O25 O 0.33172 1.00044 0.47059 0.0
O26 O 0.52177 0.90102 0.54328 0.0
O27 O 0.494 0.96625 0.61738 0.0
O28 O 0.40368 0.59793 0.95145 0.0
Cd29 Cd 0.50549 0.62492 0.89495 0.0
Cd30 Cd 0.42013 0.45684 0.88998 0.0
O31 O 0.32529 0.46361 0.93487 0.0
O32 O 0.55073 0.74029 0.86463 0.0
O33 O 0.49543 0.63215 0.79974 0.0
C34 C 0.52776 0.71063 0.80754 0.0
C35 C 0.39301 0.36422 0.80658 0.0
C36 C 0.33519 0.52906 0.95983 0.0
C37 C 0.59055 0.54823 0.95681 0.0
O38 O 0.5221 0.48074 0.94506 0.0
O39 O 0.60095 0.61641 0.93735 0.0
O40 O 0.3719 0.33923 0.8649 0.0
O41 O 0.4252 0.44196 0.79492 0.0
C42 C 0.2758 0.60078 1.01947 0.0
C43 C 0.26827 0.52623 1.00039 0.0
C44 C 0.21558 0.60132 0.05908 0.0
C45 C 0.14517 0.52735 0.08173 0.0
H46 H 0.32871 0.65972 1.00362 0.0
H47 H 0.22463 0.66061 0.07198 0.0
S48 S 0.0957 0.31495 0.04631 0.0
N49 N 0.18471 0.37604 1.00744 0.0
N50 N 0.07122 0.37696 0.0821 0.0
C51 C 0.13671 0.45209 0.06328 0.0
C52 C 0.19814 0.45154 1.02252 0.0
C53 C 0.76637 0.23467 0.32942 0.0
C54 C 0.79796 0.32008 0.33182 0.0
C55 C 0.70612 0.17988 0.37374 0.0
C56 C 0.67392 0.20829 0.42126 0.0
H57 H 0.78638 0.20951 0.29177 0.0
H58 H 0.68134 0.11435 0.3685 0.0
S59 S 0.74172 0.42677 0.45223 0.0
N60 N 0.79773 0.43119 0.38927 0.0
N61 N 0.68311 0.32795 0.47163 0.0
C62 C 0.70795 0.29391 0.42621 0.0
C63 C 0.77044 0.3499 0.38179 0.0
C64 C 0.53175 0.88702 0.71839 0.0
C65 C 0.52458 0.86343 0.65367 0.0
C66 C 0.53614 0.8388 0.76747 0.0
C67 C 0.53222 0.76431 0.75396 0.0
H68 H 0.53294 0.94272 0.73148 0.0
H69 H 0.53982 0.85886 0.81661 0.0
S70 S 0.51811 0.67679 0.59228 0.0
N71 N 0.5179 0.76223 0.5785 0.0
N72 N 0.52475 0.67122 0.67092 0.0
C73 C 0.52718 0.74094 0.68941 0.0
C74 C 0.5238 0.7906 0.63927 0.0
C75 C 0.72058 0.61895 1.02549 0.0
C76 C 0.65651 0.54659 0.99565 0.0
C77 C 0.78058 0.6175 0.06541 0.0
C78 C 0.77907 0.54368 0.07691 0.0
H79 H 0.72373 0.67704 1.01889 0.0
H80 H 0.82828 0.67482 0.08757 0.0
S81 S 0.62698 0.33783 1.00692 0.0
N82 N 0.59726 0.39955 0.9781 0.0
N83 N 0.70939 0.39667 0.05297 0.0
C84 C 0.716 0.47105 0.04644 0.0
C85 C 0.655 0.47257 1.00587 0.0
C86 C 0.21743 0.89961 0.36934 0.0
C87 C 0.24811 0.87058 0.41782 0.0
C88 C 0.15815 0.8453 0.32434 0.0
C89 C 0.12602 0.75978 0.327 0.0
H90 H 0.24267 0.96524 0.36396 0.0
H91 H 0.1393 0.87089 0.28601 0.0
S92 S 0.1785 0.65162 0.44957 0.0
N93 N 0.23702 0.75026 0.46917 0.0
N94 N 0.12419 0.64794 0.38555 0.0
C95 C 0.15205 0.72938 0.37782 0.0
C96 C 0.21357 0.78486 0.42292 0.0
C97 C 0.39741 0.33139 0.69089 0.0
C98 C 0.38663 0.30675 0.75561 0.0
C99 C 0.39989 0.28174 0.64239 0.0
C100 C 0.39301 0.20597 0.6567 0.0
H101 H 0.4055 0.39025 0.67755 0.0
H102 H 0.41007 0.30441 0.59347 0.0
S103 S 0.35899 0.11063 0.81807 0.0
N104 N 0.36469 0.19903 0.83104 0.0
N105 N 0.37065 0.10665 0.73992 0.0
C106 C 0.37986 0.1794 0.72094 0.0
C107 C 0.37623 0.22946 0.77033 0.0
loop_
_geom_bond_atom_site_label_1
_geom_bond_atom_site_label_2
_geom_bond_distance
_geom_bond_site_symmetry_2
_ccdc_geom_bond_type
O0 Cd1 2.223 . S
O0 C8 1.315 . S
Cd1 O0 2.223 . S
Cd1 O4 2.297 . S
Cd1 O5 2.439 . S
Cd1 O11 2.240 1_655 S
Cd2 O3 2.240 1_455 S
Cd2 O10 2.223 . S
Cd2 O12 2.297 . S
Cd2 O13 2.439 . S
O3 Cd2 2.240 1_655 S
O3 C8 1.279 . S
O4 Cd1 2.297 . S
O4 C6 1.247 . S
O5 Cd1 2.439 . S
O5 C6 1.208 . S
C6 O4 1.247 . S
C6 O5 1.208 . S
C7 O12 1.247 . S
C7 O13 1.208 . S
C8 O0 1.315 . S
C8 O3 1.279 . S
C9 O10 1.315 . S
C9 O11 1.279 . S
O10 Cd2 2.223 . S
O10 C9 1.315 . S
O11 Cd1 2.240 1_455 S
O11 C9 1.279 . S
O12 Cd2 2.297 . S
O12 C7 1.247 . S
O13 Cd2 2.439 . S
O13 C7 1.208 . S
O14 Cd15 2.223 . S
O14 C22 1.315 . S
Cd15 O14 2.223 . S
Cd15 O18 2.297 . S
Cd15 O19 2.439 . S
Cd15 O25 2.240 1_545 S
Cd16 O17 2.240 1_565 S
Cd16 O24 2.223 . S
Cd16 O26 2.297 . S
Cd16 O27 2.439 . S
O17 Cd16 2.240 1_545 S
O17 C22 1.279 . S
O18 Cd15 2.297 . S
O18 C20 1.247 . S
O19 Cd15 2.439 . S
O19 C20 1.208 . S
C20 O18 1.247 . S
C20 O19 1.208 . S
C21 O26 1.247 . S
C21 O27 1.208 . S
C22 O14 1.315 . S
C22 O17 1.279 . S
C23 O24 1.315 . S
C23 O25 1.279 . S
O24 Cd16 2.223 . S
O24 C23 1.315 . S
O25 Cd15 2.240 1_565 S
O25 C23 1.279 . S
O26 Cd16 2.297 . S
O26 C21 1.247 . S
O27 Cd16 2.439 . S
O27 C21 1.208 . S
O28 Cd29 2.223 . S
O28 C36 1.315 . S
Cd29 O28 2.223 . S
Cd29 O32 2.297 . S
Cd29 O33 2.439 . S
Cd29 O39 2.240 . S
Cd30 O31 2.240 . S
Cd30 O38 2.223 . S
Cd30 O40 2.297 . S
Cd30 O41 2.439 . S
O31 Cd30 2.240 . S
O31 C36 1.279 . S
O32 Cd29 2.297 . S
O32 C34 1.247 . S
O33 Cd29 2.439 . S
O33 C34 1.208 . S
C34 O32 1.247 . S
C34 O33 1.208 . S
C35 O40 1.247 . S
C35 O41 1.208 . S
C36 O28 1.315 . S
C36 O31 1.279 . S
C37 O38 1.315 . S
C37 O39 1.279 . S
O38 Cd30 2.223 . S
O38 C37 1.315 . S
O39 Cd29 2.240 . S
O39 C37 1.279 . S
O40 Cd30 2.297 . S
O40 C35 1.247 . S
O41 Cd30 2.439 . S
O41 C35 1.208 . S
C42 C43 1.369 . S
C42 C44 1.419 . S
C42 H46 0.930 . S
C43 C42 1.369 . S
C43 C52 1.419 1_556 S
C44 C42 1.419 . S
C44 C45 1.363 1_556 S
C44 H47 0.929 . S
C45 C44 1.363 1_554 S
C45 C51 1.428 . S
H46 C42 0.930 . S
H47 C44 0.929 . S
S48 N49 1.613 . S
S48 N50 1.610 . S
N49 S48 1.613 . S
N49 C52 1.351 . S
N50 S48 1.610 . S
N50 C51 1.351 . S
C51 C45 1.428 . S
C51 N50 1.351 . S
C51 C52 1.443 . S
C52 C43 1.419 1_554 S
C52 N49 1.351 . S
C52 C51 1.443 . S
C53 C54 1.369 . S
C53 C55 1.419 . S
C53 H57 0.930 . S
C54 C53 1.369 . S
C54 C63 1.429 . S
C55 C53 1.419 . S
C55 C56 1.363 . S
C55 H58 0.929 . S
C56 C55 1.363 . S
C56 C62 1.428 . S
H57 C53 0.930 . S
H58 C55 0.929 . S
S59 N60 1.613 . S
S59 N61 1.610 . S
N60 S59 1.613 . S
N60 C63 1.350 . S
N61 S59 1.610 . S
N61 C62 1.351 . S
C62 C56 1.428 . S
C62 N61 1.351 . S
C62 C63 1.434 . S
C63 C54 1.429 . S
C63 N60 1.350 . S
C63 C62 1.434 . S
C64 C65 1.369 . S
C64 C66 1.419 . S
C64 H68 0.930 . S
C65 C64 1.369 . S
C65 C74 1.429 . S
C66 C64 1.419 . S
C66 C67 1.363 . S
C66 H69 0.929 . S
C67 C66 1.363 . S
C67 C73 1.428 . S
H68 C64 0.930 . S
H69 C66 0.929 . S
S70 N71 1.613 . S
S70 N72 1.610 . S
N71 S70 1.613 . S
N71 C74 1.350 . S
N72 S70 1.610 . S
N72 C73 1.351 . S
C73 C67 1.428 . S
C73 N72 1.351 . S
C73 C74 1.434 . S
C74 C65 1.429 . S
C74 N71 1.350 . S
C74 C73 1.434 . S
C75 C76 1.369 1_554 S
C75 C77 1.419 . S
C75 H79 0.930 . S
C76 C75 1.369 1_556 S
C76 C85 1.429 . S
C77 C75 1.419 . S
C77 C78 1.363 . S
C77 H80 0.929 . S
C78 C77 1.363 . S
C78 C84 1.428 1_554 S
H79 C75 0.930 . S
H80 C77 0.929 . S
S81 N82 1.613 . S
S81 N83 1.610 . S
N82 S81 1.613 . S
N82 C85 1.350 . S
N83 S81 1.610 . S
N83 C84 1.351 . S
C84 C78 1.428 1_556 S
C84 N83 1.351 . S
C84 C85 1.434 . S
C85 C76 1.429 . S
C85 N82 1.350 . S
C85 C84 1.434 . S
C86 C87 1.369 . S
C86 C88 1.419 . S
C86 H90 0.930 . S
C87 C86 1.369 . S
C87 C96 1.429 . S
C88 C86 1.419 . S
C88 C89 1.363 . S
C88 H91 0.929 . S
C89 C88 1.363 . S
C89 C95 1.428 . S
H90 C86 0.930 . S
H91 C88 0.929 . S
S92 N93 1.613 . S
S92 N94 1.610 . S
N93 S92 1.613 . S
N93 C96 1.350 . S
N94 S92 1.610 . S
N94 C95 1.351 . S
C95 C89 1.428 . S
C95 N94 1.351 . S
C95 C96 1.434 . S
C96 C87 1.429 . S
C96 N93 1.350 . S
C96 C95 1.434 . S
C97 C98 1.369 . S
C97 C99 1.419 . S
C97 H101 0.930 . S
C98 C97 1.369 . S
C98 C107 1.429 . S
C99 C97 1.419 . S
C99 C100 1.363 . S
C99 H102 0.929 . S
C100 C99 1.363 . S
C100 C106 1.428 . S
H101 C97 0.930 . S
H102 C99 0.929 . S
S103 N104 1.613 . S
S103 N105 1.610 . S
N104 S103 1.613 . S
N104 C107 1.350 . S
N105 S103 1.610 . S
N105 C106 1.351 . S
C106 C100 1.428 . S
C106 N105 1.351 . S
C106 C107 1.434 . S
C107 C98 1.429 . S
C107 N104 1.350 . S
C107 C106 1.434 . S
C43 C36 1.641 . S
C45 C9 1.665 . S
C54 C6 1.537 . S
C56 C22 1.519 . S
C65 C21 1.400 . S
C67 C34 1.390 . S
C76 C37 1.635 . S
C78 C8 1.666 . S
C87 C23 1.519 . S
C89 C7 1.535 . S
C98 C35 1.386 . S
C100 C20 1.402 . S
