# Generated by pormake.
# Topology hex, (8)-cn, num edge types: 1
# Building blocks:
#     Node 0, Type 0, BuildingBlock: AJUNOK_clean_sbu_0, # of connection points: 8
#     Edge 1, Type (0, 0), BuildingBlock: EZIPEK_clean_linker_0, # of connection points: 2
#     Edge 2, Type (0, 0), BuildingBlock: EZIPEK_clean_linker_0, # of connection points: 2
#     Edge 3, Type (0, 0), BuildingBlock: EZIPEK_clean_linker_0, # of connection points: 2
#     Edge 4, Type (0, 0), BuildingBlock: EZIPEK_clean_linker_0, # of connection points: 2
# Relax obj value: 0.041
# Max RMSD: 0.087
# Mean RMSD: 0.087
data_MOF--net-hex--node1-AJUNOK_clean_sbu_0--edge1-EZIPEK_clean_linker_0
_symmetry_space_group_name_H-M    P1
_symmetry_Int_Tables_number       1
_symmetry_cell_setting            triclinic
loop_
_symmetry_equiv_pos_as_xyz
'x, y, z'
_cell_length_a     17.181702
_cell_length_b     17.229045
_cell_length_c     10.766363
_cell_angle_alpha  91.208489
_cell_angle_beta   92.029516
_cell_angle_gamma 127.1701
loop_
_atom_site_label
_atom_site_type_symbol
_atom_site_fract_x
_atom_site_fract_y
_atom_site_fract_z
_atom_type_partial_charge
Cd0 Cd 0.11486 0.09533 0.99028 0.0
Cd1 Cd 0.83283 0.81265 0.98847 0.0
C2 C 0.03986 0.20679 0.11539 0.0
N3 N 0.01865 0.14878 0.01213 0.0
C4 C 0.93272 0.20199 0.91278 0.0
C5 C 0.95887 0.26661 0.01538 0.0
C6 C 0.00995 0.26619 0.11931 0.0
C7 C 0.96451 0.14391 0.91268 0.0
H8 H 0.08615 0.21234 0.19132 0.0
H9 H 0.9528 0.10113 0.82967 0.0
C10 C 0.94905 0.92245 0.73312 0.0
C11 C 0.86762 0.66174 0.89505 0.0
C12 C 0.88041 0.58917 0.89753 0.0
C13 C 0.9181 0.57747 0.00705 0.0
C14 C 0.94405 0.64065 0.11147 0.0
C15 C 0.92722 0.71057 0.10592 0.0
N16 N 0.88964 0.71956 0.99873 0.0
H17 H 0.8354 0.66884 0.81214 0.0
H18 H 0.93987 0.75452 0.1882 0.0
C19 C 0.73207 0.91385 0.91937 0.0
N20 N 0.76018 0.88944 0.02089 0.0
C21 C 0.67509 0.92612 0.1506 0.0
C22 C 0.65299 -0.03735 0.04949 0.0
C23 C 0.67775 0.94913 0.93111 0.0
C24 C 0.7297 0.89134 0.13446 0.0
H25 H 0.74713 0.90058 0.82837 0.0
H26 H 0.74431 0.86188 0.21176 0.0
C27 C 0.01967 -0.01612 0.21804 0.0
C28 C 0.28105 0.27787 0.949 0.0
N29 N 0.20094 0.03149 0.02392 0.0
C30 C 0.28101 0.09053 0.10336 0.0
C31 C 0.35261 0.0767 0.11549 0.0
C32 C 0.3416 0.00074 0.04611 0.0
C33 C 0.25553 0.93666 0.97004 0.0
C34 C 0.18564 0.95412 0.95934 0.0
C35 C 0.65142 0.64307 0.99549 0.0
O36 O 0.0186 -0.00695 0.80286 0.0
O37 O 0.87257 0.84983 0.77708 0.0
O38 O 0.96805 0.93772 0.1193 0.0
O39 O 0.10016 0.06572 0.20791 0.0
O40 O 0.23741 0.21544 0.8581 0.0
O41 O 0.24462 0.25528 0.05375 0.0
O42 O 0.70326 0.68261 0.09733 0.0
O43 O 0.68502 0.68437 0.89421 0.0
H44 H 0.29194 0.15194 0.15277 0.0
H45 H 0.122 0.90905 0.89553 0.0
H46 H 0.89459 0.20186 0.8304 0.0
H47 H 0.03199 0.31598 0.19925 0.0
H48 H 0.85974 0.54159 0.8155 0.0
H49 H -0.0269 0.63314 0.19744 0.0
H50 H 0.64746 0.91837 0.24113 0.0
H51 H 0.65207 -0.03901 0.84592 0.0
H52 H 0.41813 0.12742 0.17471 0.0
H53 H 0.24514 0.87731 0.91518 0.0
C54 C 0.0132 0.43002 0.94649 0.0
C55 C 0.9449 0.3438 0.0087 0.0
C56 C 0.86206 0.41274 0.07624 0.0
C57 C 0.92906 0.49805 0.01139 0.0
N58 N 0.06469 0.58759 0.87939 0.0
N59 N 0.80076 0.24779 0.12461 0.0
C60 C 0.00355 0.50644 0.94491 0.0
C61 C 0.86839 0.33384 0.07169 0.0
N62 N 0.0896 0.44007 0.89271 0.0
N63 N 0.79285 0.40776 0.14266 0.0
H64 H 0.80468 0.18967 0.12456 0.0
H65 H 0.73754 0.23059 0.16233 0.0
H66 H 0.78283 0.46166 0.1433 0.0
H67 H 0.74742 0.35267 0.20174 0.0
H68 H 0.14925 0.50485 0.85989 0.0
H69 H 0.0962 0.38397 0.88544 0.0
H70 H 0.11189 0.59369 0.81551 0.0
H71 H 0.06597 0.64887 0.88475 0.0
C72 C 0.5443 -0.00951 0.17055 0.0
C73 C 0.59275 0.00053 0.06142 0.0
C74 C 0.48876 0.03253 0.94825 0.0
C75 C 0.42514 -0.00426 0.04797 0.0
N76 N 0.39236 0.93719 0.25585 0.0
N77 N 0.6523 0.10257 0.88662 0.0
C78 C 0.45283 -0.02625 0.15961 0.0
C79 C 0.577 0.04199 0.96003 0.0
N80 N 0.59362 0.01668 0.28403 0.0
N81 N 0.46547 0.05871 0.84251 0.0
H82 H 0.72196 0.1215 0.90537 0.0
H83 H 0.64971 0.14346 0.81906 0.0
H84 H 0.4051 0.05904 0.83267 0.0
H85 H 0.50306 0.07459 0.76169 0.0
H86 H 0.56406 0.01847 0.36603 0.0
H87 H 0.66898 0.05213 0.29194 0.0
H88 H 0.40735 0.91349 0.33517 0.0
H89 H 0.32398 0.92292 0.25139 0.0
C90 C 0.45906 0.37544 0.94397 0.0
C91 C 0.37451 0.37179 0.93944 0.0
C92 C 0.47241 0.54771 0.97632 0.0
C93 C 0.55585 0.54996 0.99133 0.0
N94 N 0.63084 0.46888 0.00861 0.0
N95 N 0.29573 0.44859 0.96106 0.0
C96 C 0.54998 0.46461 0.98062 0.0
C97 C 0.37972 0.45646 0.95774 0.0
N98 N 0.45198 0.29363 0.91433 0.0
N99 N 0.48233 0.63276 0.97854 0.0
H100 H 0.22662 0.38279 0.94076 0.0
H101 H 0.29388 0.50556 0.98945 0.0
H102 H 0.54906 0.70094 0.9996 0.0
H103 H 0.42563 0.63659 0.95392 0.0
H104 H 0.51209 0.29371 0.90481 0.0
H105 H 0.38582 0.22616 0.88899 0.0
H106 H 0.62945 0.40782 0.01343 0.0
H107 H 0.69852 0.53342 0.0381 0.0
C108 C 0.91547 -0.03593 0.52772 0.0
C109 C 0.95628 0.92645 0.59752 0.0
C110 C 0.02378 0.90996 0.41142 0.0
C111 C -0.01424 0.95071 0.34244 0.0
N112 N 0.90689 0.02823 0.33421 0.0
N113 N 0.02971 0.84372 0.60523 0.0
C114 C 0.9331 -0.02066 0.39986 0.0
C115 C 0.0046 0.89329 0.53908 0.0
N116 N 0.8585 -0.01631 0.58359 0.0
N117 N 0.08346 0.89329 0.35662 0.0
H118 H 0.0167 0.83054 0.69915 0.0
H119 H 0.05605 0.80876 0.56555 0.0
H120 H 0.09784 0.90321 0.26259 0.0
H121 H 0.12337 0.87503 0.405 0.0
H122 H 0.81639 -0.00043 0.53574 0.0
H123 H 0.84803 -0.02224 0.67832 0.0
H124 H 0.88063 0.0633 0.37374 0.0
H125 H 0.9157 0.03797 0.23921 0.0
loop_
_geom_bond_atom_site_label_1
_geom_bond_atom_site_label_2
_geom_bond_distance
_geom_bond_site_symmetry_2
_ccdc_geom_bond_type
Cd0 N3 2.334 . S
Cd0 N29 2.304 . S
Cd0 O36 2.268 1_554 S
Cd0 O39 2.273 . S
Cd0 O40 2.417 1_554 S
Cd0 O41 2.330 . S
Cd1 N16 2.304 . S
Cd1 N20 2.334 . S
Cd1 O37 2.273 . S
Cd1 O38 2.268 1_556 S
Cd1 O42 2.417 1_556 S
Cd1 O43 2.330 . S
C2 N3 1.332 . S
C2 C6 1.381 . S
C2 H8 0.931 . S
N3 Cd0 2.334 . S
N3 C2 1.332 . S
N3 C7 1.328 1_554 S
C4 C5 1.396 1_556 S
C4 C7 1.378 1_655 S
C4 H46 0.931 . S
C5 C4 1.396 1_554 S
C5 C6 1.382 1_655 S
C6 C2 1.381 . S
C6 C5 1.382 1_455 S
C6 H47 0.930 . S
C7 N3 1.328 1_556 S
C7 C4 1.378 1_455 S
C7 H9 0.930 . S
H8 C2 0.931 . S
H9 C7 0.930 . S
C10 O36 1.238 1_665 S
C10 O37 1.253 . S
C11 C12 1.379 . S
C11 N16 1.337 . S
C11 H17 0.929 . S
C12 C11 1.379 . S
C12 C13 1.380 1_655 S
C12 H48 0.929 . S
C13 C12 1.380 1_455 S
C13 C14 1.399 1_556 S
C14 C13 1.399 1_554 S
C14 C15 1.376 1_455 S
C14 H49 0.931 . S
C15 C14 1.376 1_655 S
C15 N16 1.338 1_554 S
C15 H18 0.930 . S
N16 Cd1 2.304 . S
N16 C11 1.337 . S
N16 C15 1.338 1_556 S
H17 C11 0.929 . S
H18 C15 0.930 . S
C19 N20 1.332 . S
C19 C23 1.381 . S
C19 H25 0.931 . S
N20 Cd1 2.334 . S
N20 C19 1.332 . S
N20 C24 1.328 1_556 S
C21 C22 1.396 1_554 S
C21 C24 1.378 1_545 S
C21 H50 0.931 . S
C22 C21 1.396 1_556 S
C22 C23 1.382 1_545 S
C23 C19 1.381 . S
C23 C22 1.382 1_565 S
C23 H51 0.930 . S
C24 N20 1.328 1_554 S
C24 C21 1.378 1_565 S
C24 H26 0.930 . S
H25 C19 0.931 . S
H26 C24 0.930 . S
C27 O38 1.238 1_445 S
C27 O39 1.253 . S
C28 O40 1.239 . S
C28 O41 1.230 1_556 S
N29 Cd0 2.304 . S
N29 C30 1.337 . S
N29 C34 1.338 1_554 S
C30 N29 1.337 . S
C30 C31 1.379 . S
C30 H44 0.929 . S
C31 C30 1.379 . S
C31 C32 1.380 1_545 S
C31 H52 0.929 . S
C32 C31 1.380 1_565 S
C32 C33 1.399 1_554 S
C33 C32 1.399 1_556 S
C33 C34 1.376 1_565 S
C33 H53 0.931 . S
C34 N29 1.338 1_556 S
C34 C33 1.376 1_545 S
C34 H45 0.930 . S
C35 O42 1.239 . S
C35 O43 1.230 1_554 S
O36 Cd0 2.268 1_556 S
O36 C10 1.238 1_445 S
O37 Cd1 2.273 . S
O37 C10 1.253 . S
O38 Cd1 2.268 1_554 S
O38 C27 1.238 1_665 S
O39 Cd0 2.273 . S
O39 C27 1.253 . S
O40 Cd0 2.417 1_556 S
O40 C28 1.239 . S
O41 Cd0 2.330 . S
O41 C28 1.230 1_554 S
O42 Cd1 2.417 1_554 S
O42 C35 1.239 . S
O43 Cd1 2.330 . S
O43 C35 1.230 1_556 S
H44 C30 0.929 . S
H45 C34 0.930 . S
H46 C4 0.931 . S
H47 C6 0.930 . S
H48 C12 0.929 . S
H49 C14 0.931 . S
H50 C21 0.931 . S
H51 C23 0.930 . S
H52 C31 0.929 . S
H53 C33 0.931 . S
C54 C55 1.363 1_456 S
C54 C60 1.379 . S
C54 N62 1.356 . S
C55 C54 1.363 1_654 S
C55 C61 1.363 . S
C56 C57 1.363 1_654 S
C56 C61 1.379 . S
C56 N63 1.356 . S
C57 C56 1.363 1_456 S
C57 C60 1.363 . S
N58 C60 1.356 . S
N58 H70 0.984 . S
N58 H71 0.985 . S
N59 C61 1.356 . S
N59 H64 0.984 . S
N59 H65 0.985 . S
C60 C54 1.379 . S
C60 C57 1.363 . S
C60 N58 1.356 . S
C61 C55 1.363 . S
C61 C56 1.379 . S
C61 N59 1.356 . S
N62 C54 1.356 . S
N62 H68 0.984 . S
N62 H69 0.984 . S
N63 C56 1.356 . S
N63 H66 0.984 . S
N63 H67 0.985 . S
H64 N59 0.984 . S
H65 N59 0.985 . S
H66 N63 0.984 . S
H67 N63 0.985 . S
H68 N62 0.984 . S
H69 N62 0.984 . S
H70 N58 0.984 . S
H71 N58 0.985 . S
C72 C73 1.363 1_554 S
C72 C78 1.379 . S
C72 N80 1.356 . S
C73 C72 1.363 1_556 S
C73 C79 1.363 1_545 S
C74 C75 1.363 1_556 S
C74 C79 1.379 . S
C74 N81 1.356 . S
C75 C74 1.363 1_554 S
C75 C78 1.363 1_565 S
N76 C78 1.356 . S
N76 H88 0.984 . S
N76 H89 0.985 . S
N77 C79 1.356 . S
N77 H82 0.984 . S
N77 H83 0.985 . S
C78 C72 1.379 . S
C78 C75 1.363 1_545 S
C78 N76 1.356 . S
C79 C73 1.363 1_565 S
C79 C74 1.379 . S
C79 N77 1.356 . S
N80 C72 1.356 . S
N80 H86 0.984 . S
N80 H87 0.984 . S
N81 C74 1.356 . S
N81 H84 0.984 . S
N81 H85 0.985 . S
H82 N77 0.984 . S
H83 N77 0.985 . S
H84 N81 0.984 . S
H85 N81 0.985 . S
H86 N80 0.984 . S
H87 N80 0.984 . S
H88 N76 0.984 . S
H89 N76 0.985 . S
C90 C91 1.363 . S
C90 C96 1.379 . S
C90 N98 1.356 . S
C91 C90 1.363 . S
C91 C97 1.363 1_556 S
C92 C93 1.363 . S
C92 C97 1.379 . S
C92 N99 1.356 . S
C93 C92 1.363 . S
C93 C96 1.363 1_554 S
N94 C96 1.356 . S
N94 H106 0.984 . S
N94 H107 0.985 . S
N95 C97 1.356 . S
N95 H100 0.984 . S
N95 H101 0.985 . S
C96 C90 1.379 . S
C96 C93 1.363 1_556 S
C96 N94 1.356 . S
C97 C91 1.363 1_554 S
C97 C92 1.379 . S
C97 N95 1.356 . S
N98 C90 1.356 . S
N98 H104 0.984 . S
N98 H105 0.984 . S
N99 C92 1.356 . S
N99 H102 0.984 . S
N99 H103 0.985 . S
H100 N95 0.984 . S
H101 N95 0.985 . S
H102 N99 0.984 . S
H103 N99 0.985 . S
H104 N98 0.984 . S
H105 N98 0.984 . S
H106 N94 0.984 . S
H107 N94 0.985 . S
C108 C109 1.370 . S
C108 C114 1.379 . S
C108 N116 1.356 . S
C109 C108 1.370 . S
C109 C115 1.364 1_445 S
C110 C111 1.360 . S
C110 C115 1.379 . S
C110 N117 1.356 . S
C111 C110 1.360 . S
C111 C114 1.366 1_665 S
N112 C114 1.356 . S
N112 H124 0.984 . S
N112 H125 0.985 . S
N113 C115 1.350 . S
N113 H118 0.982 . S
N113 H119 0.985 . S
C114 C108 1.379 . S
C114 C111 1.366 1_445 S
C114 N112 1.356 . S
C115 C109 1.364 1_665 S
C115 C110 1.379 . S
C115 N113 1.350 . S
N116 C108 1.356 . S
N116 H122 0.984 . S
N116 H123 0.984 . S
N117 C110 1.356 . S
N117 H120 0.984 . S
N117 H121 0.985 . S
H118 N113 0.982 . S
H119 N113 0.985 . S
H120 N117 0.984 . S
H121 N117 0.985 . S
H122 N116 0.984 . S
H123 N116 0.984 . S
H124 N112 0.984 . S
H125 N112 0.985 . S
C55 C5 1.809 . S
C57 C13 1.807 . S
C73 C22 1.809 . S
C75 C32 1.807 . S
C91 C28 0.746 . S
C93 C35 0.746 . S
C109 C10 1.480 1_445 S
C111 C27 1.480 1_665 S
