# Generated by pormake.
# Topology kag, (6)-cn, num edge types: 1
# Building blocks:
#     Node 0, Type 0, BuildingBlock: JUFBIX_clean_sbu_0, # of connection points: 6
#     Node 1, Type 0, BuildingBlock: JUFBIX_clean_sbu_0, # of connection points: 6
#     Node 2, Type 0, BuildingBlock: JUFBIX_clean_sbu_0, # of connection points: 6
#     Edge 3, Type (0, 0), BuildingBlock: CIFDUS_clean_linker_0, # of connection points: 2
#     Edge 4, Type (0, 0), BuildingBlock: CIFDUS_clean_linker_0, # of connection points: 2
#     Edge 5, Type (0, 0), BuildingBlock: CIFDUS_clean_linker_0, # of connection points: 2
#     Edge 6, Type (0, 0), BuildingBlock: CIFDUS_clean_linker_0, # of connection points: 2
#     Edge 7, Type (0, 0), BuildingBlock: CIFDUS_clean_linker_0, # of connection points: 2
#     Edge 8, Type (0, 0), BuildingBlock: CIFDUS_clean_linker_0, # of connection points: 2
#     Edge 9, Type (0, 0), BuildingBlock: CIFDUS_clean_linker_0, # of connection points: 2
#     Edge 10, Type (0, 0), BuildingBlock: CIFDUS_clean_linker_0, # of connection points: 2
#     Edge 11, Type (0, 0), BuildingBlock: CIFDUS_clean_linker_0, # of connection points: 2
# Relax obj value: 0.284
# Max RMSD: 0.237
# Mean RMSD: 0.152
data_MOF--net-kag--node1-JUFBIX_clean_sbu_0--edge1-CIFDUS_clean_linker_0
_symmetry_space_group_name_H-M    P1
_symmetry_Int_Tables_number       1
_symmetry_cell_setting            triclinic
loop_
_symmetry_equiv_pos_as_xyz
'x, y, z'
_cell_length_a     26.098608
_cell_length_b     33.744138
_cell_length_c     13.057566
_cell_angle_alpha  90.883958
_cell_angle_beta   92.492533
_cell_angle_gamma 120.8386
loop_
_atom_site_label
_atom_site_type_symbol
_atom_site_fract_x
_atom_site_fract_y
_atom_site_fract_z
_atom_type_partial_charge
Co0 Co 0.99818 0.48116 1.00383 0.0
C1 C 1.01724 0.51428 0.80473 0.0
Co2 Co 0.04349 0.55718 0.99518 0.0
C3 C 0.92155 0.38144 0.04234 0.0
C4 C 0.99462 0.39828 0.94848 0.0
N5 N 0.9688 0.41757 1.00093 0.0
N6 N 0.91785 0.34073 0.01845 0.0
C7 C 0.96386 0.35153 0.95939 0.0
H8 H 0.89051 0.3849 0.08859 0.0
H9 H 0.033 0.41697 0.90297 0.0
C10 C 0.02446 0.5241 0.19416 0.0
N11 N 0.07323 0.62023 0.99663 0.0
C12 C 0.12439 0.6546 0.96127 0.0
C13 C 0.04791 0.64178 0.04154 0.0
N14 N 0.13157 0.69657 0.98205 0.0
C15 C 0.08338 0.68852 0.03218 0.0
C16 C 0.91673 0.50873 0.99193 0.0
O17 O 1.0012 0.4843 0.1495 0.0
O18 O 0.04492 0.55962 0.14044 0.0
O19 O 0.96547 0.54687 0.98786 0.0
O20 O 0.91837 0.47174 0.99946 0.0
O21 O 0.04177 0.55411 0.84953 0.0
H22 H 1.00721 0.62475 0.08195 0.0
H23 H 0.15623 0.64904 0.9228 0.0
O24 O 0.99545 0.47875 0.85838 0.0
O25 O 0.07855 0.49218 0.00865 0.0
O26 O 0.12172 0.56729 1.00226 0.0
C27 C 0.12606 0.53164 0.00692 0.0
H28 H 0.97339 0.3271 0.9233 0.0
H29 H 0.07582 0.71472 0.06438 0.0
Co30 Co 0.56575 0.99768 0.03019 0.0
C31 C 0.5451 0.01214 0.82706 0.0
Co32 Co 0.50474 0.02476 0.0104 0.0
C33 C 0.59211 0.92684 0.07765 0.0
C34 C 0.6655 0.98317 0.00839 0.0
N35 N 0.61156 0.96977 0.04429 0.0
N36 N 0.63063 0.91222 0.06144 0.0
C37 C 0.67738 0.94793 0.019 0.0
H38 H 0.54904 0.90569 0.10925 0.0
H39 H 0.69263 0.01517 0.97089 0.0
C40 C 0.52536 0.01027 0.21355 0.0
N41 N 0.45735 0.0508 0.99672 0.0
C42 C 0.47264 0.09245 0.96035 0.0
C43 C 0.402 0.03411 0.02983 0.0
N44 N 0.42945 0.10274 0.9706 0.0
C45 C 0.3847 0.06588 0.0137 0.0
C46 C 0.44327 0.93075 0.99721 0.0
O47 O 0.55818 0.997 0.17448 0.0
O48 O 0.49726 0.02343 0.15481 0.0
O49 O 0.43638 0.96522 0.99311 0.0
O50 O 0.49556 0.93761 0.0131 0.0
O51 O 0.51271 0.02583 0.86619 0.0
H52 H 0.37684 1.00179 0.06729 0.0
H53 H 0.51537 0.11537 0.92928 0.0
O54 O 0.57283 0.99861 0.88571 0.0
O55 O 0.63554 0.05894 0.04637 0.0
O56 O 0.57333 0.08418 0.02781 0.0
C57 C 0.62644 0.09264 0.04256 0.0
H58 H 0.71547 0.94744 0.99088 0.0
H59 H 0.34377 0.06312 0.03719 0.0
Co60 Co 0.47786 0.45879 0.98681 0.0
C61 C 0.50119 0.49136 0.192 0.0
Co62 Co 0.53329 0.53501 0.0101 0.0
C63 C 0.43742 0.36259 0.93722 0.0
C64 C 0.3716 0.37113 0.00993 0.0
N65 N 0.4267 0.39515 0.97395 0.0
N66 N 0.39134 0.31933 0.94938 0.0
C67 C 0.34973 0.32469 0.99456 0.0
H68 H 0.47892 0.37044 0.90488 0.0
H69 H 0.34972 0.38627 0.0494 0.0
C70 C 0.51003 0.50247 0.80489 0.0
N71 N 0.58518 0.59925 0.02174 0.0
C72 C 0.57785 0.63378 0.0583 0.0
C73 C 0.64014 0.6212 0.98477 0.0
N74 N 0.62648 0.6761 0.04634 0.0
C75 C 0.66552 0.66797 1.00018 0.0
C76 C 0.59626 0.48678 0.00619 0.0
O77 O 0.4815 0.46264 0.84197 0.0
O78 O 0.53526 0.53808 0.86537 0.0
O79 O 0.60113 0.52626 0.01491 0.0
O80 O 0.54458 0.45115 0.99395 0.0
O81 O 0.53073 0.53116 0.155 0.0
H82 H 0.66005 0.60445 0.94543 0.0
H83 H 0.53747 0.62804 0.09168 0.0
O84 O 0.47486 0.45575 0.13145 0.0
O85 O 0.4115 0.4667 0.97985 0.0
O86 O 0.46417 0.54189 1.00532 0.0
C87 C 0.41345 0.50488 0.99073 0.0
H88 H 0.30795 0.29705 0.02036 0.0
H89 H 0.70854 0.6941 0.97502 0.0
H90 H 0.05906 0.58181 0.66572 0.0
H91 H 0.96781 0.43372 0.68933 0.0
H92 H 0.96209 0.42359 0.50322 0.0
H93 H 0.98284 0.45656 0.33318 0.0
H94 H 0.07396 0.60465 0.30959 0.0
H95 H 0.07981 0.61478 0.49571 0.0
C96 C 0.0379 0.54733 0.63018 0.0
C97 C 1.01391 0.50868 0.69156 0.0
C98 C 0.03471 0.54163 0.52285 0.0
C99 C 0.98666 0.46419 0.64409 0.0
C100 C 0.98334 0.45828 0.5375 0.0
C101 C 1.00402 0.49104 0.36873 0.0
C102 C 0.0279 0.52969 0.30734 0.0
C103 C 1.00722 0.49673 0.47607 0.0
C104 C 0.05514 0.57418 0.35482 0.0
C105 C 0.05855 0.58009 0.46142 0.0
H106 H 0.58511 0.99033 0.36056 0.0
H107 H 0.45704 0.03448 0.32034 0.0
H108 H 0.45262 0.03968 0.50604 0.0
H109 H 0.48527 0.03202 0.68007 0.0
H110 H 0.61329 0.98782 0.72023 0.0
H111 H 0.61767 0.98259 0.53454 0.0
C112 C 0.55607 1.00096 0.3923 0.0
C113 C 0.52144 0.01194 0.32634 0.0
C114 C 0.55389 1.00409 0.49932 0.0
C115 C 0.48419 0.02578 0.36909 0.0
C116 C 0.48167 0.02884 0.47541 0.0
C117 C 0.5143 0.02139 0.64832 0.0
C118 C 0.54894 0.01041 0.71427 0.0
C119 C 0.51644 0.01822 0.54128 0.0
C120 C 0.58614 0.99653 0.6715 0.0
C121 C 0.58864 0.99345 0.56518 0.0
H122 H 0.46017 0.43473 0.6532 0.0
H123 H 0.56925 0.58273 0.70438 0.0
H124 H 0.57613 0.59244 0.51997 0.0
H125 H 0.55125 0.55911 0.3437 0.0
H126 H 0.44204 0.41111 0.29256 0.0
H127 H 0.43528 0.40141 0.47697 0.0
C128 C 0.48546 0.46911 0.62406 0.0
C129 C 0.51406 0.50787 0.69271 0.0
C130 C 0.48928 0.47455 0.5177 0.0
C131 C 0.54668 0.5522 0.65345 0.0
C132 C 0.5507 0.55786 0.54785 0.0
C133 C 0.52596 0.52474 0.37285 0.0
C134 C 0.49727 0.48597 0.3042 0.0
C135 C 0.52216 0.5193 0.47922 0.0
C136 C 0.46465 0.44165 0.34348 0.0
C137 C 0.46071 0.43599 0.44908 0.0
H138 H 0.1482 0.46205 0.98482 0.0
H139 H 0.23733 0.6102 0.02853 0.0
H140 H 0.33471 0.61585 0.02688 0.0
H141 H 0.39481 0.57801 0.01339 0.0
H142 H 0.30206 0.42959 0.96463 0.0
H143 H 0.20659 0.42509 0.96769 0.0
C144 C 0.18884 0.49564 0.99435 0.0
C145 C 0.18534 0.53554 0.00736 0.0
C146 C 0.24443 0.49869 0.99216 0.0
C147 C 0.23866 0.57882 0.01861 0.0
C148 C 0.29442 0.5821 0.0176 0.0
C149 C 0.35369 0.54479 1.00313 0.0
C150 C 0.3561 0.50429 0.98923 0.0
C151 C 0.29795 0.54219 1.00435 0.0
C152 C 0.30213 0.46148 0.97586 0.0
C153 C 0.24712 0.4587 0.97761 0.0
H154 H 0.74754 0.12718 0.05615 0.0
H155 H 0.61622 0.16886 0.0498 0.0
H156 H 0.69488 0.24959 0.05102 0.0
H157 H 0.80087 0.30879 0.0406 0.0
H158 H 0.93262 0.26796 0.04624 0.0
H159 H 0.85453 0.18722 0.05935 0.0
C160 C 0.73622 0.15395 0.05601 0.0
C161 C 0.67589 0.14166 0.05175 0.0
C162 C 0.78193 0.20079 0.05619 0.0
C163 C 0.66216 0.177 0.05199 0.0
C164 C 0.70719 0.22341 0.05285 0.0
C165 C 0.81252 0.28233 0.04682 0.0
C166 C 0.87241 0.2944 0.04131 0.0
C167 C 0.76722 0.23576 0.05319 0.0
C168 C 0.88671 0.25952 0.04855 0.0
C169 C 0.84206 0.21329 0.05618 0.0
H170 H 0.71196 0.88665 0.09731 0.0
H171 H 0.52304 0.8324 0.04196 0.0
H172 H 0.50393 0.75372 0.04144 0.0
H173 H 0.5418 0.69994 0.04311 0.0
H174 H 0.73085 0.75453 0.09837 0.0
H175 H 0.74887 0.83285 0.11217 0.0
C176 C 0.66663 0.85759 0.08556 0.0
C177 C 0.61919 0.86569 0.06953 0.0
C178 C 0.65591 0.81221 0.08462 0.0
C179 C 0.56051 0.82747 0.05571 0.0
C180 C 0.5495 0.78228 0.05465 0.0
C181 C 0.58672 0.72889 0.06009 0.0
C182 C 0.63495 0.72128 0.06828 0.0
C183 C 0.59693 0.77417 0.06749 0.0
C184 C 0.69302 0.75939 0.08969 0.0
C185 C 0.7034 0.80427 0.09786 0.0
H186 H 0.80024 0.43677 0.00779 0.0
H187 H 0.90662 0.58423 0.97296 0.0
H188 H 0.81851 0.59037 0.97767 0.0
H189 H 0.7114 0.5552 0.99203 0.0
H190 H 0.6016 0.40794 0.0206 0.0
H191 H 0.69019 0.40067 0.01818 0.0
C192 C 0.80397 0.47012 1.00087 0.0
C193 C 0.86044 0.50986 0.99063 0.0
C194 C 0.75236 0.47371 1.00289 0.0
C195 C 0.86418 0.55286 0.98155 0.0
C196 C 0.81362 0.55662 0.98421 0.0
C197 C 0.70676 0.5215 0.99819 0.0
C198 C 0.64999 0.48233 0.00707 0.0
C199 C 0.75759 0.51744 0.99526 0.0
C200 C 0.64487 0.43882 0.01388 0.0
C201 C 0.69555 0.43458 0.01239 0.0
H202 H 0.24661 0.71891 0.98888 0.0
H203 H 0.13162 0.77474 0.94339 0.0
H204 H 0.2187 0.85262 0.9394 0.0
H205 H 0.32698 0.9051 0.96018 0.0
H206 H 0.44247 0.84967 0.00836 0.0
H207 H 0.35577 0.77129 0.99909 0.0
C208 C 0.24075 0.74804 0.97605 0.0
C209 C 0.18289 0.74123 0.96699 0.0
C210 C 0.29102 0.79277 0.97534 0.0
C211 C 0.17583 0.77933 0.9518 0.0
C212 C 0.22553 0.82379 0.94945 0.0
C213 C 0.33327 0.87589 0.96809 0.0
C214 C 0.39107 0.88326 0.98588 0.0
C215 C 0.28328 0.831 0.96328 0.0
C216 C 0.39842 0.84498 0.9953 0.0
C217 C 0.34886 0.80012 0.98993 0.0
H218 H 0.48527 0.30647 0.95948 0.0
H219 H 0.2937 0.23527 0.90472 0.0
H220 H 0.28891 0.16105 0.89959 0.0
H221 H 0.33845 0.11629 0.923 0.0
H222 H 0.5298 0.18764 0.98147 0.0
H223 H 0.53561 0.26188 0.97002 0.0
C224 C 0.44263 0.27483 0.94422 0.0
C225 C 0.38984 0.2764 0.93334 0.0
C226 C 0.44017 0.23227 0.94234 0.0
C227 C 0.33485 0.23493 0.91492 0.0
C228 C 0.3321 0.19251 0.91177 0.0
C229 C 0.38139 0.1481 0.9329 0.0
C230 C 0.43345 0.14632 0.95368 0.0
C231 C 0.38432 0.19072 0.92775 0.0
C232 C 0.48901 0.18787 0.96448 0.0
C233 C 0.49235 0.23042 0.95873 0.0
loop_
_geom_bond_atom_site_label_1
_geom_bond_atom_site_label_2
_geom_bond_distance
_geom_bond_site_symmetry_2
_ccdc_geom_bond_type
Co0 N5 2.057 1_554 S
Co0 O17 2.021 . S
Co0 O20 2.062 . S
Co0 O24 2.117 1_554 S
Co0 O25 2.020 1_655 S
C1 O21 1.259 . S
C1 O24 1.258 1_455 S
Co2 N11 2.057 1_556 S
Co2 O18 2.117 1_556 S
Co2 O19 2.020 1_455 S
Co2 O21 2.021 . S
Co2 O26 2.062 . S
C3 N5 1.316 1_554 S
C3 N6 1.347 1_554 S
C3 H8 0.931 . S
C4 N5 1.375 . S
C4 C7 1.350 . S
C4 H9 0.930 . S
N5 Co0 2.057 1_556 S
N5 C3 1.316 1_556 S
N5 C4 1.375 . S
N6 C3 1.347 1_556 S
N6 C7 1.373 . S
C7 C4 1.350 . S
C7 N6 1.373 . S
C7 H28 0.931 . S
H8 C3 0.931 . S
H9 C4 0.930 . S
C10 O17 1.259 . S
C10 O18 1.258 1_655 S
N11 Co2 2.057 1_554 S
N11 C12 1.316 1_554 S
N11 C13 1.375 . S
C12 N11 1.316 1_556 S
C12 N14 1.347 1_556 S
C12 H23 0.931 . S
C13 N11 1.375 . S
C13 C15 1.350 . S
C13 H22 0.930 . S
N14 C12 1.347 1_554 S
N14 C15 1.373 . S
C15 C13 1.350 . S
C15 N14 1.373 . S
C15 H29 0.931 . S
C16 O19 1.256 1_554 S
C16 O20 1.255 . S
O17 Co0 2.021 . S
O17 C10 1.259 . S
O18 Co2 2.117 1_554 S
O18 C10 1.258 1_455 S
O19 Co2 2.020 1_655 S
O19 C16 1.256 1_556 S
O20 Co0 2.062 . S
O20 C16 1.255 . S
O21 C1 1.259 . S
O21 Co2 2.021 . S
H22 C13 0.930 . S
H23 C12 0.931 . S
O24 Co0 2.117 1_556 S
O24 C1 1.258 1_655 S
O25 Co0 2.020 1_455 S
O25 C27 1.256 1_554 S
O26 Co2 2.062 . S
O26 C27 1.255 . S
C27 O25 1.256 1_556 S
C27 O26 1.255 . S
H28 C7 0.931 . S
H29 C15 0.931 . S
Co30 N35 2.057 1_554 S
Co30 O47 2.021 . S
Co30 O50 2.062 . S
Co30 O54 2.117 1_554 S
Co30 O55 2.020 1_565 S
C31 O51 1.259 . S
C31 O54 1.258 1_545 S
Co32 N41 2.057 1_556 S
Co32 O48 2.117 1_556 S
Co32 O49 2.020 1_545 S
Co32 O51 2.021 . S
Co32 O56 2.062 . S
C33 N35 1.316 1_554 S
C33 N36 1.347 1_554 S
C33 H38 0.931 . S
C34 N35 1.375 . S
C34 C37 1.350 . S
C34 H39 0.930 . S
N35 Co30 2.057 1_556 S
N35 C33 1.316 1_556 S
N35 C34 1.375 . S
N36 C33 1.347 1_556 S
N36 C37 1.373 . S
C37 C34 1.350 . S
C37 N36 1.373 . S
C37 H58 0.931 . S
H38 C33 0.931 . S
H39 C34 0.930 . S
C40 O47 1.259 . S
C40 O48 1.258 1_565 S
N41 Co32 2.057 1_554 S
N41 C42 1.316 1_554 S
N41 C43 1.375 . S
C42 N41 1.316 1_556 S
C42 N44 1.347 1_556 S
C42 H53 0.931 . S
C43 N41 1.375 . S
C43 C45 1.350 . S
C43 H52 0.930 . S
N44 C42 1.347 1_554 S
N44 C45 1.373 . S
C45 C43 1.350 . S
C45 N44 1.373 . S
C45 H59 0.931 . S
C46 O49 1.257 . S
C46 O50 1.254 1_556 S
O47 Co30 2.021 . S
O47 C40 1.259 . S
O48 Co32 2.117 1_554 S
O48 C40 1.258 1_545 S
O49 Co32 2.020 1_565 S
O49 C46 1.257 . S
O50 Co30 2.062 . S
O50 C46 1.254 1_554 S
O51 C31 1.259 . S
O51 Co32 2.021 . S
H52 C43 0.930 . S
H53 C42 0.931 . S
O54 Co30 2.117 1_556 S
O54 C31 1.258 1_565 S
O55 Co30 2.020 1_545 S
O55 C57 1.257 . S
O56 Co32 2.062 . S
O56 C57 1.254 1_556 S
C57 O55 1.257 . S
C57 O56 1.254 1_554 S
H58 C37 0.931 . S
H59 C45 0.931 . S
Co60 N65 2.057 1_556 S
Co60 O77 2.021 . S
Co60 O80 2.062 . S
Co60 O84 2.117 1_556 S
Co60 O85 2.020 . S
C61 O81 1.259 . S
C61 O84 1.258 . S
Co62 N71 2.057 1_554 S
Co62 O78 2.117 1_554 S
Co62 O79 2.020 . S
Co62 O81 2.021 . S
Co62 O86 2.062 . S
C63 N65 1.316 1_556 S
C63 N66 1.347 1_556 S
C63 H68 0.931 . S
C64 N65 1.375 . S
C64 C67 1.350 . S
C64 H69 0.930 . S
N65 Co60 2.057 1_554 S
N65 C63 1.316 1_554 S
N65 C64 1.375 . S
N66 C63 1.347 1_554 S
N66 C67 1.373 . S
C67 C64 1.350 . S
C67 N66 1.373 . S
C67 H88 0.931 . S
H68 C63 0.931 . S
H69 C64 0.930 . S
C70 O77 1.259 . S
C70 O78 1.258 . S
N71 Co62 2.057 1_556 S
N71 C72 1.316 1_556 S
N71 C73 1.375 . S
C72 N71 1.316 1_554 S
C72 N74 1.347 1_554 S
C72 H83 0.931 . S
C73 N71 1.375 . S
C73 C75 1.350 . S
C73 H82 0.930 . S
N74 C72 1.347 1_556 S
N74 C75 1.373 . S
C75 C73 1.350 . S
C75 N74 1.373 . S
C75 H89 0.931 . S
C76 O79 1.256 . S
C76 O80 1.254 1_554 S
O77 Co60 2.021 . S
O77 C70 1.259 . S
O78 Co62 2.117 1_556 S
O78 C70 1.258 . S
O79 Co62 2.020 . S
O79 C76 1.256 . S
O80 Co60 2.062 . S
O80 C76 1.254 1_556 S
O81 C61 1.259 . S
O81 Co62 2.021 . S
H82 C73 0.930 . S
H83 C72 0.931 . S
O84 Co60 2.117 1_554 S
O84 C61 1.258 . S
O85 Co60 2.020 . S
O85 C87 1.256 . S
O86 Co62 2.062 . S
O86 C87 1.254 1_554 S
C87 O85 1.256 . S
C87 O86 1.254 1_556 S
H88 C67 0.931 . S
H89 C75 0.931 . S
H90 C96 0.930 . S
H91 C99 0.930 . S
H92 C100 0.930 . S
H93 C101 0.930 . S
H94 C104 0.930 . S
H95 C105 0.930 . S
C96 H90 0.930 . S
C96 C97 1.355 1_455 S
C96 C98 1.415 . S
C97 C96 1.355 1_655 S
C97 C99 1.419 . S
C98 C96 1.415 . S
C98 C103 1.425 1_455 S
C98 C105 1.409 . S
C99 H91 0.930 . S
C99 C97 1.419 . S
C99 C100 1.362 . S
C100 H92 0.930 . S
C100 C99 1.362 . S
C100 C103 1.409 . S
C101 H93 0.930 . S
C101 C102 1.355 1_655 S
C101 C103 1.415 . S
C102 C101 1.355 1_455 S
C102 C104 1.419 . S
C103 C98 1.425 1_655 S
C103 C100 1.409 . S
C103 C101 1.415 . S
C104 H94 0.930 . S
C104 C102 1.419 . S
C104 C105 1.362 . S
C105 H95 0.930 . S
C105 C98 1.409 . S
C105 C104 1.362 . S
H106 C112 0.930 . S
H107 C115 0.930 . S
H108 C116 0.930 . S
H109 C117 0.930 . S
H110 C120 0.930 . S
H111 C121 0.930 . S
C112 H106 0.930 . S
C112 C113 1.355 . S
C112 C114 1.415 . S
C113 C112 1.355 . S
C113 C115 1.419 1_565 S
C114 C112 1.415 . S
C114 C119 1.425 1_565 S
C114 C121 1.409 . S
C115 H107 0.930 . S
C115 C113 1.419 1_545 S
C115 C116 1.362 . S
C116 H108 0.930 . S
C116 C115 1.362 . S
C116 C119 1.409 . S
C117 H109 0.930 . S
C117 C118 1.355 . S
C117 C119 1.415 . S
C118 C117 1.355 . S
C118 C120 1.419 1_545 S
C119 C114 1.425 1_545 S
C119 C116 1.409 . S
C119 C117 1.415 . S
C120 H110 0.930 . S
C120 C118 1.419 1_565 S
C120 C121 1.362 . S
C121 H111 0.930 . S
C121 C114 1.409 . S
C121 C120 1.362 . S
H122 C128 0.930 . S
H123 C131 0.930 . S
H124 C132 0.930 . S
H125 C133 0.930 . S
H126 C136 0.930 . S
H127 C137 0.930 . S
C128 H122 0.930 . S
C128 C129 1.355 . S
C128 C130 1.415 . S
C129 C128 1.355 . S
C129 C131 1.419 . S
C130 C128 1.415 . S
C130 C135 1.425 . S
C130 C137 1.409 . S
C131 H123 0.930 . S
C131 C129 1.419 . S
C131 C132 1.362 . S
C132 H124 0.930 . S
C132 C131 1.362 . S
C132 C135 1.409 . S
C133 H125 0.930 . S
C133 C134 1.355 . S
C133 C135 1.415 . S
C134 C133 1.355 . S
C134 C136 1.419 . S
C135 C130 1.425 . S
C135 C132 1.409 . S
C135 C133 1.415 . S
C136 H126 0.930 . S
C136 C134 1.419 . S
C136 C137 1.362 . S
C137 H127 0.930 . S
C137 C130 1.409 . S
C137 C136 1.362 . S
H138 C144 0.930 . S
H139 C147 0.930 . S
H140 C148 0.930 . S
H141 C149 0.930 . S
H142 C152 0.930 . S
H143 C153 0.930 . S
C144 H138 0.930 . S
C144 C145 1.355 1_556 S
C144 C146 1.415 . S
C145 C144 1.355 1_554 S
C145 C147 1.419 . S
C146 C144 1.415 . S
C146 C151 1.425 1_556 S
C146 C153 1.409 . S
C147 H139 0.930 . S
C147 C145 1.419 . S
C147 C148 1.362 . S
C148 H140 0.930 . S
C148 C147 1.362 . S
C148 C151 1.409 . S
C149 H141 0.930 . S
C149 C150 1.355 1_554 S
C149 C151 1.415 . S
C150 C149 1.355 1_556 S
C150 C152 1.419 . S
C151 C146 1.425 1_554 S
C151 C148 1.409 . S
C151 C149 1.415 . S
C152 H142 0.930 . S
C152 C150 1.419 . S
C152 C153 1.362 . S
C153 H143 0.930 . S
C153 C146 1.409 . S
C153 C152 1.362 . S
H154 C160 0.930 . S
H155 C163 0.930 . S
H156 C164 0.930 . S
H157 C165 0.930 . S
H158 C168 0.930 . S
H159 C169 0.930 . S
C160 H154 0.930 . S
C160 C161 1.355 1_556 S
C160 C162 1.415 . S
C161 C160 1.355 1_554 S
C161 C163 1.419 . S
C162 C160 1.415 . S
C162 C167 1.425 1_556 S
C162 C169 1.409 . S
C163 H155 0.930 . S
C163 C161 1.419 . S
C163 C164 1.362 . S
C164 H156 0.930 . S
C164 C163 1.362 . S
C164 C167 1.409 . S
C165 H157 0.930 . S
C165 C166 1.355 1_554 S
C165 C167 1.415 . S
C166 C165 1.355 1_556 S
C166 C168 1.419 . S
C167 C162 1.425 1_554 S
C167 C164 1.409 . S
C167 C165 1.415 . S
C168 H158 0.930 . S
C168 C166 1.419 . S
C168 C169 1.362 . S
C169 H159 0.930 . S
C169 C162 1.409 . S
C169 C168 1.362 . S
H170 C176 0.930 . S
H171 C179 0.930 . S
H172 C180 0.930 . S
H173 C181 0.930 . S
H174 C184 0.930 . S
H175 C185 0.930 . S
C176 H170 0.930 . S
C176 C177 1.355 1_556 S
C176 C178 1.415 . S
C177 C176 1.355 1_554 S
C177 C179 1.419 . S
C178 C176 1.415 . S
C178 C183 1.425 1_556 S
C178 C185 1.409 . S
C179 H171 0.930 . S
C179 C177 1.419 . S
C179 C180 1.362 . S
C180 H172 0.930 . S
C180 C179 1.362 . S
C180 C183 1.409 . S
C181 H173 0.930 . S
C181 C182 1.355 . S
C181 C183 1.415 . S
C182 C181 1.355 . S
C182 C184 1.419 1_554 S
C183 C178 1.425 1_554 S
C183 C180 1.409 . S
C183 C181 1.415 . S
C184 H174 0.930 . S
C184 C182 1.419 1_556 S
C184 C185 1.362 . S
C185 H175 0.930 . S
C185 C178 1.409 . S
C185 C184 1.362 . S
H186 C192 0.930 . S
H187 C195 0.930 . S
H188 C196 0.930 . S
H189 C197 0.930 . S
H190 C200 0.930 . S
H191 C201 0.930 . S
C192 H186 0.930 . S
C192 C193 1.355 1_554 S
C192 C194 1.415 . S
C193 C192 1.355 1_556 S
C193 C195 1.419 . S
C194 C192 1.415 . S
C194 C199 1.425 1_554 S
C194 C201 1.409 . S
C195 H187 0.930 . S
C195 C193 1.419 . S
C195 C196 1.362 . S
C196 H188 0.930 . S
C196 C195 1.362 . S
C196 C199 1.409 . S
C197 H189 0.930 . S
C197 C198 1.355 1_556 S
C197 C199 1.415 . S
C198 C197 1.355 1_554 S
C198 C200 1.419 . S
C199 C194 1.425 1_556 S
C199 C196 1.409 . S
C199 C197 1.415 . S
C200 H190 0.930 . S
C200 C198 1.419 . S
C200 C201 1.362 . S
C201 H191 0.930 . S
C201 C194 1.409 . S
C201 C200 1.362 . S
H202 C208 0.930 . S
H203 C211 0.930 . S
H204 C212 0.930 . S
H205 C213 0.930 . S
H206 C216 0.930 . S
H207 C217 0.930 . S
C208 H202 0.930 . S
C208 C209 1.355 1_554 S
C208 C210 1.415 . S
C209 C208 1.355 1_556 S
C209 C211 1.419 . S
C210 C208 1.415 . S
C210 C215 1.425 1_554 S
C210 C217 1.409 . S
C211 H203 0.930 . S
C211 C209 1.419 . S
C211 C212 1.362 . S
C212 H204 0.930 . S
C212 C211 1.362 . S
C212 C215 1.409 . S
C213 H205 0.930 . S
C213 C214 1.352 1_556 S
C213 C215 1.415 . S
C214 C213 1.352 1_554 S
C214 C216 1.422 . S
C215 C210 1.425 1_556 S
C215 C212 1.409 . S
C215 C213 1.415 . S
C216 H206 0.930 . S
C216 C214 1.422 . S
C216 C217 1.362 . S
C217 H207 0.930 . S
C217 C210 1.409 . S
C217 C216 1.362 . S
H218 C224 0.930 . S
H219 C227 0.930 . S
H220 C228 0.930 . S
H221 C229 0.930 . S
H222 C232 0.930 . S
H223 C233 0.930 . S
C224 H218 0.930 . S
C224 C225 1.355 1_554 S
C224 C226 1.415 . S
C225 C224 1.355 1_556 S
C225 C227 1.419 . S
C226 C224 1.415 . S
C226 C231 1.425 1_554 S
C226 C233 1.409 . S
C227 H219 0.930 . S
C227 C225 1.419 . S
C227 C228 1.362 . S
C228 H220 0.930 . S
C228 C227 1.362 . S
C228 C231 1.409 . S
C229 H221 0.930 . S
C229 C230 1.355 . S
C229 C231 1.415 . S
C230 C229 1.355 . S
C230 C232 1.419 1_556 S
C231 C226 1.425 1_556 S
C231 C228 1.409 . S
C231 C229 1.415 . S
C232 H222 0.930 . S
C232 C230 1.419 1_554 S
C232 C233 1.362 . S
C233 H223 0.930 . S
C233 C226 1.409 . S
C233 C232 1.362 . S
C97 C1 1.491 1_655 S
C102 C10 1.491 1_455 S
C113 C40 1.502 . S
C118 C31 1.502 . S
C129 C70 1.498 . S
C134 C61 1.498 . S
C145 C27 1.670 1_554 S
C150 C87 1.667 . S
C161 C57 1.167 . S
C166 N6 1.135 . S
C177 N36 0.854 1_554 S
C182 N74 0.791 1_554 S
C193 C16 1.671 1_556 S
C198 C76 1.659 . S
C209 N14 1.163 1_556 S
C214 C46 1.151 1_554 S
C225 N66 0.871 1_556 S
C230 N44 0.779 1_556 S
