# Generated by pormake.
# Topology sni, (6)-cn, num edge types: 1
# Building blocks:
#     Node 0, Type 0, BuildingBlock: IZENUY_clean_sbu_0, # of connection points: 6
#     Node 1, Type 0, BuildingBlock: IZENUY_clean_sbu_0, # of connection points: 6
#     Node 2, Type 0, BuildingBlock: IZENUY_clean_sbu_0, # of connection points: 6
#     Node 3, Type 0, BuildingBlock: IZENUY_clean_sbu_0, # of connection points: 6
#     Node 4, Type 0, BuildingBlock: IZENUY_clean_sbu_0, # of connection points: 6
#     Node 5, Type 0, BuildingBlock: IZENUY_clean_sbu_0, # of connection points: 6
#     Node 6, Type 0, BuildingBlock: IZENUY_clean_sbu_0, # of connection points: 6
#     Node 7, Type 0, BuildingBlock: IZENUY_clean_sbu_0, # of connection points: 6
#     Edge 8, Type (0, 0), None
#     Edge 9, Type (0, 0), None
#     Edge 10, Type (0, 0), None
#     Edge 11, Type (0, 0), None
#     Edge 12, Type (0, 0), None
#     Edge 13, Type (0, 0), None
#     Edge 14, Type (0, 0), None
#     Edge 15, Type (0, 0), None
#     Edge 16, Type (0, 0), None
#     Edge 17, Type (0, 0), None
#     Edge 18, Type (0, 0), None
#     Edge 19, Type (0, 0), None
#     Edge 20, Type (0, 0), None
#     Edge 21, Type (0, 0), None
#     Edge 22, Type (0, 0), None
#     Edge 23, Type (0, 0), None
#     Edge 24, Type (0, 0), None
#     Edge 25, Type (0, 0), None
#     Edge 26, Type (0, 0), None
#     Edge 27, Type (0, 0), None
#     Edge 28, Type (0, 0), None
#     Edge 29, Type (0, 0), None
#     Edge 30, Type (0, 0), None
#     Edge 31, Type (0, 0), None
# Relax obj value: 0.129
# Max RMSD: 0.110
# Mean RMSD: 0.110
data_MOF--net-sni--node1-IZENUY_clean_sbu_0--edge1-none
_symmetry_space_group_name_H-M    P1
_symmetry_Int_Tables_number       1
_symmetry_cell_setting            triclinic
loop_
_symmetry_equiv_pos_as_xyz
'x, y, z'
_cell_length_a     19.032616
_cell_length_b     19.035061
_cell_length_c     9.3754982
_cell_angle_alpha  89.924324
_cell_angle_beta   89.924203
_cell_angle_gamma 90.370834
loop_
_atom_site_label
_atom_site_type_symbol
_atom_site_fract_x
_atom_site_fract_y
_atom_site_fract_z
_atom_type_partial_charge
Fe0 Fe 0.65498 0.26857 0.0316 0.0
Fe1 Fe 0.76886 0.15077 0.0254 0.0
O2 O 0.67945 0.17835 0.03389 0.0
Fe3 Fe 0.61327 0.11337 0.04711 0.0
O4 O 0.57897 0.13861 0.87881 0.0
O5 O 0.57604 0.25331 0.91731 0.0
O6 O 0.70279 0.28582 0.8676 0.0
C7 C 0.7648 0.2685 0.83667 0.0
C8 C 0.55752 0.21757 0.22288 0.0
O9 O 0.79759 0.2225 0.90743 0.0
C10 C 0.70734 0.06347 0.23583 0.0
O11 O 0.72914 0.29643 0.14336 0.0
O12 O 0.79115 0.20022 0.18404 0.0
O13 O 0.54854 0.16628 0.141 0.0
O14 O 0.60588 0.26115 0.19896 0.0
C15 C 0.70696 0.05119 0.85766 0.0
O16 O 0.75599 0.07369 0.14511 0.0
O17 O 0.64645 0.08706 0.21645 0.0
C18 C 0.77329 0.26196 0.21633 0.0
O19 O 0.75268 0.09926 0.86391 0.0
O20 O 0.66202 0.04483 0.95524 0.0
C21 C 0.55845 0.1992 0.84516 0.0
Fe22 Fe 0.95443 0.61497 0.02735 0.0
Fe23 Fe 0.91554 0.76969 0.03547 0.0
O24 O 0.88944 0.67997 0.02734 0.0
Fe25 Fe 0.79969 0.65389 1.0192 0.0
O26 O 0.80676 0.60258 0.18325 0.0
O27 O 0.90053 0.5468 0.11367 0.0
O28 O 0.98146 0.64053 0.20076 0.0
C29 C 1.00535 0.70014 0.23223 0.0
C30 C 0.86924 0.56405 0.8225 0.0
O31 O 0.99304 0.75336 0.15353 0.0
C32 C 0.80192 0.76701 0.83703 0.0
O33 O 1.02262 0.66884 0.94102 0.0
O34 O 0.96685 0.7626 0.87142 0.0
O35 O 0.816 0.5764 0.90113 0.0
O36 O 0.92886 0.58795 0.85395 0.0
C37 C 0.80241 0.7675 0.21764 0.0
O38 O 0.84257 0.80021 0.92141 0.0
O39 O 0.78624 0.70341 0.8573 0.0
C40 C 1.01567 0.71917 0.85465 0.0
O41 O 0.86603 0.78316 0.19737 0.0
O42 O 0.7692 0.72687 0.13326 0.0
C43 C 0.8502 0.55377 0.20004 0.0
Fe44 Fe 0.30082 0.91445 0.02307 0.0
Fe45 Fe 0.41867 0.80062 0.02926 0.0
O46 O 0.39105 0.89001 1.02077 0.0
Fe47 Fe 0.45603 0.9562 1.00755 0.0
O48 O 0.43077 0.99048 0.17585 0.0
O49 O 0.31605 0.99338 0.13739 0.0
O50 O 0.28357 0.86663 0.18705 0.0
C51 C 0.30092 0.80463 0.21798 0.0
C52 C 0.35178 1.01193 0.83182 0.0
O53 O 0.34695 0.77187 0.14723 0.0
C54 C 0.50595 0.86216 0.81881 0.0
O55 O 0.27298 0.84029 0.91128 0.0
O56 O 0.36922 0.77831 0.87063 0.0
O57 O 0.40309 1.02091 0.9137 0.0
O58 O 0.30822 0.96355 0.85572 0.0
C59 C 0.51824 0.86255 0.19699 0.0
O60 O 0.49574 0.81352 0.90955 0.0
O61 O 0.48235 0.92304 0.83819 0.0
C62 C 0.30747 0.79615 0.83833 0.0
O63 O 0.47018 0.81682 0.19075 0.0
O64 O 0.52459 0.90748 0.09941 0.0
C65 C 0.37017 1.01097 0.20953 0.0
Fe66 Fe 0.26884 0.41665 0.03128 0.0
Fe67 Fe 0.11429 0.45518 0.02732 0.0
O68 O 0.17934 0.39012 0.02733 0.0
Fe69 Fe 0.15278 0.30064 0.02338 0.0
O70 O 0.22501 0.27089 0.13871 0.0
O71 O 0.28542 0.36689 0.19244 0.0
O72 O 0.25261 0.49294 0.15142 0.0
C73 C 0.20079 0.50372 0.23503 0.0
C74 C 0.26543 0.30114 0.83732 0.0
O75 O 0.13975 0.48114 0.20533 0.0
C76 C 0.06573 0.3687 0.8196 0.0
O77 O 0.2589 0.46865 0.86745 0.0
O78 O 0.16893 0.52393 0.95309 0.0
O79 O 0.20253 0.28404 0.86223 0.0
O80 O 0.29857 0.34441 0.91595 0.0
C81 C 0.0517 0.35441 0.19549 0.0
O82 O 0.08832 0.42973 0.84932 0.0
O83 O 0.07649 0.31689 0.90324 0.0
C84 C 0.21509 0.51771 0.85914 0.0
O85 O 0.04551 0.40058 0.10156 0.0
O86 O 0.10077 0.31061 0.1872 0.0
C87 C 0.26829 0.304 0.21734 0.0
Fe88 Fe 0.65278 0.80064 0.52337 0.0
Fe89 Fe 0.76884 0.91665 0.53129 0.0
O90 O 0.67934 0.89012 0.52733 0.0
Fe91 Fe 0.61429 0.95518 0.52732 0.0
O92 O 0.54551 0.90059 0.60156 0.0
O93 O 0.60077 0.81061 0.6872 0.0
O94 O 0.72501 0.77089 0.63871 0.0
C95 C 0.76829 0.804 0.71735 0.0
C96 C 0.56574 0.86871 0.31959 0.0
O97 O 0.78541 0.86689 0.69244 0.0
C98 C 0.71509 1.01771 0.35915 0.0
O99 O 0.70253 0.78405 0.36223 0.0
O100 O 0.79857 0.84441 0.41595 0.0
O101 O 0.58832 0.92973 0.34932 0.0
O102 O 0.57648 0.8169 0.40324 0.0
C103 C 0.70079 1.00371 0.73504 0.0
O104 O 0.7589 0.96865 0.36746 0.0
O105 O 0.66892 1.02393 0.4531 0.0
C106 C 0.76543 0.80115 0.33731 0.0
O107 O 0.75261 0.99294 0.65143 0.0
O108 O 0.63975 0.98114 0.70533 0.0
C109 C 0.5517 0.85441 0.69548 0.0
Fe110 Fe 0.15498 0.76857 0.5316 0.0
Fe111 Fe 0.26887 0.65077 0.5254 0.0
O112 O 0.17945 0.67835 0.53389 0.0
Fe113 Fe 0.11327 0.61336 0.54711 0.0
O114 O 0.07897 0.63861 0.3788 0.0
O115 O 0.07604 0.75331 0.41731 0.0
O116 O 0.20279 0.78582 0.36761 0.0
C117 C 0.2648 0.7685 0.33668 0.0
C118 C 0.05751 0.71757 0.72287 0.0
O119 O 0.29759 0.7225 0.40744 0.0
C120 C 0.20734 0.56347 0.73584 0.0
O121 O 0.22914 0.79643 0.64337 0.0
O122 O 0.29115 0.70022 0.68405 0.0
O123 O 0.04854 0.66627 0.64099 0.0
O124 O 0.10588 0.76115 0.69896 0.0
C125 C 0.20696 0.55119 0.35766 0.0
O126 O 0.25599 0.57369 0.6451 0.0
O127 O 0.14645 0.58705 0.71645 0.0
C128 C 0.27328 0.76195 0.71635 0.0
O129 O 0.25268 0.59927 0.36391 0.0
O130 O 0.16202 0.54483 0.45524 0.0
C131 C 0.05847 0.6992 0.34514 0.0
Fe132 Fe 0.41554 0.26969 0.53547 0.0
Fe133 Fe 0.29969 0.15389 0.5192 0.0
O134 O 0.38944 0.17996 0.52734 0.0
Fe135 Fe 0.45443 0.11496 0.52735 0.0
O136 O 0.48146 0.14052 0.70076 0.0
O137 O 0.49304 0.25336 0.65354 0.0
O138 O 0.36603 0.28316 0.69737 0.0
C139 C 0.30241 0.26749 0.71765 0.0
C140 C 0.51567 0.21917 0.35467 0.0
O141 O 0.2692 0.22686 0.63326 0.0
C142 C 0.36925 0.06406 0.32249 0.0
O143 O 0.34257 0.30021 0.42141 0.0
O144 O 0.28624 0.20341 0.3573 0.0
O145 O 0.52262 0.16884 0.44102 0.0
O146 O 0.46686 0.2626 0.37142 0.0
C147 C 0.3502 0.05377 0.70002 0.0
O148 O 0.316 0.0764 0.40112 0.0
O149 O 0.42886 0.08794 0.35394 0.0
C150 C 0.30193 0.26701 0.33702 0.0
O151 O 0.30676 0.10258 0.68325 0.0
O152 O 0.40053 0.0468 0.61367 0.0
C153 C 0.50534 0.20014 0.73224 0.0
Fe154 Fe 0.91867 0.30061 0.52926 0.0
Fe155 Fe 0.95603 0.4562 0.50755 0.0
O156 O 0.89105 0.39001 0.52077 0.0
Fe157 Fe 0.80082 0.41445 0.52306 0.0
O158 O 0.78357 0.36662 0.68704 0.0
O159 O 0.84694 0.27187 0.64723 0.0
O160 O 0.97017 0.31682 0.69075 0.0
C161 C 1.01824 0.36254 0.69699 0.0
C162 C 0.80747 0.29616 0.33831 0.0
O163 O 1.0246 0.40747 0.59941 0.0
C164 C 0.85178 0.51194 0.33184 0.0
O165 O 0.99574 0.31352 0.40955 0.0
O166 O 0.98235 0.42304 0.33819 0.0
O167 O 0.77298 0.34029 0.41127 0.0
O168 O 0.86922 0.27831 0.37062 0.0
C169 C 0.87017 0.51096 0.70954 0.0
O170 O 0.90309 0.52092 0.41371 0.0
O171 O 0.80822 0.46356 0.35572 0.0
C172 C 1.00594 0.36216 0.3188 0.0
O173 O 0.93078 0.49047 0.67586 0.0
O174 O 0.81605 0.49338 0.63739 0.0
C175 C 0.80092 0.30463 0.71798 0.0
loop_
_geom_bond_atom_site_label_1
_geom_bond_atom_site_label_2
_geom_bond_distance
_geom_bond_site_symmetry_2
_ccdc_geom_bond_type
Fe0 O2 1.918 . S
Fe0 O5 1.997 1_554 S
Fe0 O6 2.002 1_554 S
Fe0 O11 1.976 . S
Fe0 O14 1.996 . S
Fe1 O2 1.918 . S
Fe1 O9 1.997 1_554 S
Fe1 O12 1.996 . S
Fe1 O16 1.976 . S
Fe1 O19 2.002 1_554 S
O2 Fe0 1.918 . S
O2 Fe1 1.918 . S
O2 Fe3 1.918 . S
Fe3 O2 1.918 . S
Fe3 O4 2.002 1_554 S
Fe3 O13 1.976 . S
Fe3 O17 1.996 . S
Fe3 O20 1.997 1_554 S
O4 Fe3 2.002 1_556 S
O4 C21 1.295 . S
O5 Fe0 1.997 1_556 S
O5 C21 1.235 . S
O6 Fe0 2.002 1_556 S
O6 C7 1.295 . S
C7 O6 1.295 . S
C7 O9 1.235 . S
C8 O13 1.287 . S
C8 O14 1.255 . S
O9 Fe1 1.997 1_556 S
O9 C7 1.235 . S
C10 O16 1.287 . S
C10 O17 1.255 . S
O11 Fe0 1.976 . S
O11 C18 1.287 . S
O12 Fe1 1.996 . S
O12 C18 1.255 . S
O13 Fe3 1.976 . S
O13 C8 1.287 . S
O14 Fe0 1.996 . S
O14 C8 1.255 . S
C15 O19 1.295 . S
C15 O20 1.235 . S
O16 Fe1 1.976 . S
O16 C10 1.287 . S
O17 Fe3 1.996 . S
O17 C10 1.255 . S
C18 O11 1.287 . S
C18 O12 1.255 . S
O19 Fe1 2.002 1_556 S
O19 C15 1.295 . S
O20 Fe3 1.997 1_556 S
O20 C15 1.235 . S
C21 O4 1.295 . S
C21 O5 1.235 . S
Fe22 O24 1.918 1_554 S
Fe22 O27 1.997 . S
Fe22 O28 2.002 . S
Fe22 O33 1.976 1_554 S
Fe22 O36 1.996 1_554 S
Fe23 O24 1.918 1_554 S
Fe23 O31 1.997 . S
Fe23 O34 1.996 1_554 S
Fe23 O38 1.976 1_554 S
Fe23 O41 2.002 . S
O24 Fe22 1.918 1_556 S
O24 Fe23 1.918 1_556 S
O24 Fe25 1.918 1_556 S
Fe25 O24 1.918 1_554 S
Fe25 O26 2.002 . S
Fe25 O35 1.976 1_554 S
Fe25 O39 1.996 1_554 S
Fe25 O42 1.997 . S
O26 Fe25 2.002 . S
O26 C43 1.295 . S
O27 Fe22 1.997 . S
O27 C43 1.235 . S
O28 Fe22 2.002 . S
O28 C29 1.295 . S
C29 O28 1.295 . S
C29 O31 1.235 . S
C30 O35 1.287 . S
C30 O36 1.255 . S
O31 Fe23 1.997 . S
O31 C29 1.235 . S
C32 O38 1.287 . S
C32 O39 1.255 . S
O33 Fe22 1.976 1_556 S
O33 C40 1.287 . S
O34 Fe23 1.996 1_556 S
O34 C40 1.255 . S
O35 Fe25 1.976 1_556 S
O35 C30 1.287 . S
O36 Fe22 1.996 1_556 S
O36 C30 1.255 . S
C37 O41 1.295 . S
C37 O42 1.235 . S
O38 Fe23 1.976 1_556 S
O38 C32 1.287 . S
O39 Fe25 1.996 1_556 S
O39 C32 1.255 . S
C40 O33 1.287 . S
C40 O34 1.255 . S
O41 Fe23 2.002 . S
O41 C37 1.295 . S
O42 Fe25 1.997 . S
O42 C37 1.235 . S
C43 O26 1.295 . S
C43 O27 1.235 . S
Fe44 O46 1.918 . S
Fe44 O49 1.997 . S
Fe44 O50 2.002 . S
Fe44 O55 1.976 1_554 S
Fe44 O58 1.996 1_554 S
Fe45 O46 1.918 . S
Fe45 O53 1.997 . S
Fe45 O56 1.996 1_554 S
Fe45 O60 1.976 1_554 S
Fe45 O63 2.002 . S
O46 Fe44 1.918 . S
O46 Fe45 1.918 . S
O46 Fe47 1.918 . S
Fe47 O46 1.918 . S
Fe47 O48 2.002 . S
Fe47 O57 1.976 1_554 S
Fe47 O61 1.996 1_554 S
Fe47 O64 1.997 . S
O48 Fe47 2.002 . S
O48 C65 1.295 . S
O49 Fe44 1.997 . S
O49 C65 1.235 . S
O50 Fe44 2.002 . S
O50 C51 1.295 . S
C51 O50 1.295 . S
C51 O53 1.235 . S
C52 O57 1.287 . S
C52 O58 1.255 . S
O53 Fe45 1.997 . S
O53 C51 1.235 . S
C54 O60 1.287 . S
C54 O61 1.255 . S
O55 Fe44 1.976 1_556 S
O55 C62 1.287 . S
O56 Fe45 1.996 1_556 S
O56 C62 1.255 . S
O57 Fe47 1.976 1_556 S
O57 C52 1.287 . S
O58 Fe44 1.996 1_556 S
O58 C52 1.255 . S
C59 O63 1.295 . S
C59 O64 1.235 . S
O60 Fe45 1.976 1_556 S
O60 C54 1.287 . S
O61 Fe47 1.996 1_556 S
O61 C54 1.255 . S
C62 O55 1.287 . S
C62 O56 1.255 . S
O63 Fe45 2.002 . S
O63 C59 1.295 . S
O64 Fe47 1.997 . S
O64 C59 1.235 . S
C65 O48 1.295 . S
C65 O49 1.235 . S
Fe66 O68 1.918 1_554 S
Fe66 O71 1.997 . S
Fe66 O72 2.002 . S
Fe66 O77 1.976 1_554 S
Fe66 O80 1.996 1_554 S
Fe67 O68 1.918 1_554 S
Fe67 O75 1.997 . S
Fe67 O78 1.996 1_554 S
Fe67 O82 1.976 1_554 S
Fe67 O85 2.002 . S
O68 Fe66 1.918 1_556 S
O68 Fe67 1.918 1_556 S
O68 Fe69 1.918 1_556 S
Fe69 O68 1.918 1_554 S
Fe69 O70 2.002 . S
Fe69 O79 1.976 1_554 S
Fe69 O83 1.996 1_554 S
Fe69 O86 1.997 . S
O70 Fe69 2.002 . S
O70 C87 1.295 . S
O71 Fe66 1.997 . S
O71 C87 1.235 . S
O72 Fe66 2.002 . S
O72 C73 1.295 . S
C73 O72 1.295 . S
C73 O75 1.235 . S
C74 O79 1.287 . S
C74 O80 1.255 . S
O75 Fe67 1.997 . S
O75 C73 1.235 . S
C76 O82 1.287 . S
C76 O83 1.255 . S
O77 Fe66 1.976 1_556 S
O77 C84 1.287 . S
O78 Fe67 1.996 1_556 S
O78 C84 1.255 . S
O79 Fe69 1.976 1_556 S
O79 C74 1.287 . S
O80 Fe66 1.996 1_556 S
O80 C74 1.255 . S
C81 O85 1.295 . S
C81 O86 1.235 . S
O82 Fe67 1.976 1_556 S
O82 C76 1.287 . S
O83 Fe69 1.996 1_556 S
O83 C76 1.255 . S
C84 O77 1.287 . S
C84 O78 1.255 . S
O85 Fe67 2.002 . S
O85 C81 1.295 . S
O86 Fe69 1.997 . S
O86 C81 1.235 . S
C87 O70 1.295 . S
C87 O71 1.235 . S
Fe88 O90 1.918 . S
Fe88 O93 1.997 . S
Fe88 O94 2.002 . S
Fe88 O99 1.976 . S
Fe88 O102 1.996 . S
Fe89 O90 1.918 . S
Fe89 O97 1.997 . S
Fe89 O100 1.996 . S
Fe89 O104 1.976 . S
Fe89 O107 2.002 . S
O90 Fe88 1.918 . S
O90 Fe89 1.918 . S
O90 Fe91 1.918 . S
Fe91 O90 1.918 . S
Fe91 O92 2.002 . S
Fe91 O101 1.976 . S
Fe91 O105 1.996 . S
Fe91 O108 1.997 . S
O92 Fe91 2.002 . S
O92 C109 1.295 . S
O93 Fe88 1.997 . S
O93 C109 1.235 . S
O94 Fe88 2.002 . S
O94 C95 1.295 . S
C95 O94 1.295 . S
C95 O97 1.235 . S
C96 O101 1.287 . S
C96 O102 1.255 . S
O97 Fe89 1.997 . S
O97 C95 1.235 . S
C98 O104 1.287 . S
C98 O105 1.255 . S
O99 Fe88 1.976 . S
O99 C106 1.287 . S
O100 Fe89 1.996 . S
O100 C106 1.255 . S
O101 Fe91 1.976 . S
O101 C96 1.287 . S
O102 Fe88 1.996 . S
O102 C96 1.255 . S
C103 O107 1.295 . S
C103 O108 1.235 . S
O104 Fe89 1.976 . S
O104 C98 1.287 . S
O105 Fe91 1.996 . S
O105 C98 1.255 . S
C106 O99 1.287 . S
C106 O100 1.255 . S
O107 Fe89 2.002 . S
O107 C103 1.295 . S
O108 Fe91 1.997 . S
O108 C103 1.235 . S
C109 O92 1.295 . S
C109 O93 1.235 . S
Fe110 O112 1.918 . S
Fe110 O115 1.997 . S
Fe110 O116 2.002 . S
Fe110 O121 1.976 . S
Fe110 O124 1.996 . S
Fe111 O112 1.918 . S
Fe111 O119 1.997 . S
Fe111 O122 1.996 . S
Fe111 O126 1.976 . S
Fe111 O129 2.002 . S
O112 Fe110 1.918 . S
O112 Fe111 1.918 . S
O112 Fe113 1.918 . S
Fe113 O112 1.918 . S
Fe113 O114 2.002 . S
Fe113 O123 1.976 . S
Fe113 O127 1.996 . S
Fe113 O130 1.997 . S
O114 Fe113 2.002 . S
O114 C131 1.295 . S
O115 Fe110 1.997 . S
O115 C131 1.235 . S
O116 Fe110 2.002 . S
O116 C117 1.295 . S
C117 O116 1.295 . S
C117 O119 1.235 . S
C118 O123 1.287 . S
C118 O124 1.255 . S
O119 Fe111 1.997 . S
O119 C117 1.235 . S
C120 O126 1.287 . S
C120 O127 1.255 . S
O121 Fe110 1.976 . S
O121 C128 1.287 . S
O122 Fe111 1.996 . S
O122 C128 1.255 . S
O123 Fe113 1.976 . S
O123 C118 1.287 . S
O124 Fe110 1.996 . S
O124 C118 1.255 . S
C125 O129 1.295 . S
C125 O130 1.235 . S
O126 Fe111 1.976 . S
O126 C120 1.287 . S
O127 Fe113 1.996 . S
O127 C120 1.255 . S
C128 O121 1.287 . S
C128 O122 1.255 . S
O129 Fe111 2.002 . S
O129 C125 1.295 . S
O130 Fe113 1.997 . S
O130 C125 1.235 . S
C131 O114 1.295 . S
C131 O115 1.235 . S
Fe132 O134 1.918 . S
Fe132 O137 1.997 . S
Fe132 O138 2.002 . S
Fe132 O143 1.976 . S
Fe132 O146 1.996 . S
Fe133 O134 1.918 . S
Fe133 O141 1.997 . S
Fe133 O144 1.996 . S
Fe133 O148 1.976 . S
Fe133 O151 2.002 . S
O134 Fe132 1.918 . S
O134 Fe133 1.918 . S
O134 Fe135 1.918 . S
Fe135 O134 1.918 . S
Fe135 O136 2.002 . S
Fe135 O145 1.976 . S
Fe135 O149 1.996 . S
Fe135 O152 1.997 . S
O136 Fe135 2.002 . S
O136 C153 1.295 . S
O137 Fe132 1.997 . S
O137 C153 1.235 . S
O138 Fe132 2.002 . S
O138 C139 1.295 . S
C139 O138 1.295 . S
C139 O141 1.235 . S
C140 O145 1.287 . S
C140 O146 1.255 . S
O141 Fe133 1.997 . S
O141 C139 1.235 . S
C142 O148 1.287 . S
C142 O149 1.255 . S
O143 Fe132 1.976 . S
O143 C150 1.287 . S
O144 Fe133 1.996 . S
O144 C150 1.255 . S
O145 Fe135 1.976 . S
O145 C140 1.287 . S
O146 Fe132 1.996 . S
O146 C140 1.255 . S
C147 O151 1.295 . S
C147 O152 1.235 . S
O148 Fe133 1.976 . S
O148 C142 1.287 . S
O149 Fe135 1.996 . S
O149 C142 1.255 . S
C150 O143 1.287 . S
C150 O144 1.255 . S
O151 Fe133 2.002 . S
O151 C147 1.295 . S
O152 Fe135 1.997 . S
O152 C147 1.235 . S
C153 O136 1.295 . S
C153 O137 1.235 . S
Fe154 O156 1.918 . S
Fe154 O159 1.997 . S
Fe154 O160 2.002 . S
Fe154 O165 1.976 . S
Fe154 O168 1.996 . S
Fe155 O156 1.918 . S
Fe155 O163 1.997 . S
Fe155 O166 1.996 . S
Fe155 O170 1.976 . S
Fe155 O173 2.002 . S
O156 Fe154 1.918 . S
O156 Fe155 1.918 . S
O156 Fe157 1.918 . S
Fe157 O156 1.918 . S
Fe157 O158 2.002 . S
Fe157 O167 1.976 . S
Fe157 O171 1.996 . S
Fe157 O174 1.997 . S
O158 Fe157 2.002 . S
O158 C175 1.295 . S
O159 Fe154 1.997 . S
O159 C175 1.235 . S
O160 Fe154 2.002 . S
O160 C161 1.295 . S
C161 O160 1.295 . S
C161 O163 1.235 . S
C162 O167 1.287 . S
C162 O168 1.255 . S
O163 Fe155 1.997 . S
O163 C161 1.235 . S
C164 O170 1.287 . S
C164 O171 1.255 . S
O165 Fe154 1.976 . S
O165 C172 1.287 . S
O166 Fe155 1.996 . S
O166 C172 1.255 . S
O167 Fe157 1.976 . S
O167 C162 1.287 . S
O168 Fe154 1.996 . S
O168 C162 1.255 . S
C169 O173 1.295 . S
C169 O174 1.235 . S
O170 Fe155 1.976 . S
O170 C164 1.287 . S
O171 Fe157 1.996 . S
O171 C164 1.255 . S
C172 O165 1.287 . S
C172 O166 1.255 . S
O173 Fe155 2.002 . S
O173 C169 1.295 . S
O174 Fe157 1.997 . S
O174 C169 1.235 . S
C175 O158 1.295 . S
C175 O159 1.235 . S
C140 C8 1.473 . S
C43 C164 1.531 . S
C96 C59 1.523 . S
C73 C125 1.581 . S
C109 C54 1.507 . S
C84 C120 1.448 . S
C153 C21 1.557 . S
C30 C169 1.498 . S
C40 C118 1.473 1_655 S
C147 C52 1.531 1_545 S
C161 C76 1.523 1_655 S
C15 C103 1.581 1_545 S
C81 C172 1.507 1_455 S
C98 C10 1.448 1_565 S
C29 C131 1.557 1_655 S
C65 C142 1.498 1_565 S
C162 C18 1.251 . S
C37 C106 1.286 . S
C51 C117 1.323 . S
C150 C87 1.286 . S
C128 C62 1.251 . S
C139 C74 1.286 . S
C175 C7 1.323 . S
C95 C32 1.286 . S
