# Generated by pormake.
# Topology bcg, (8)-cn, num edge types: 1
# Building blocks:
#     Node 0, Type 0, BuildingBlock: TAGTUT_clean_sbu_3, # of connection points: 8
#     Node 1, Type 0, BuildingBlock: TAGTUT_clean_sbu_3, # of connection points: 8
#     Node 2, Type 0, BuildingBlock: TAGTUT_clean_sbu_3, # of connection points: 8
#     Node 3, Type 0, BuildingBlock: TAGTUT_clean_sbu_3, # of connection points: 8
#     Edge 4, Type (0, 0), None
#     Edge 5, Type (0, 0), None
#     Edge 6, Type (0, 0), None
#     Edge 7, Type (0, 0), None
#     Edge 8, Type (0, 0), None
#     Edge 9, Type (0, 0), None
#     Edge 10, Type (0, 0), None
#     Edge 11, Type (0, 0), None
#     Edge 12, Type (0, 0), None
#     Edge 13, Type (0, 0), None
#     Edge 14, Type (0, 0), None
#     Edge 15, Type (0, 0), None
#     Edge 16, Type (0, 0), None
#     Edge 17, Type (0, 0), None
#     Edge 18, Type (0, 0), None
#     Edge 19, Type (0, 0), None
# Relax obj value: 0.122
# Max RMSD: 0.262
# Mean RMSD: 0.262
data_MOF--net-bcg--node1-TAGTUT_clean_sbu_3--edge1-none
_symmetry_space_group_name_H-M    P1
_symmetry_Int_Tables_number       1
_symmetry_cell_setting            triclinic
loop_
_symmetry_equiv_pos_as_xyz
'x, y, z'
_cell_length_a     6.9029066
_cell_length_b     13.63826
_cell_length_c     20.430603
_cell_angle_alpha  89.403056
_cell_angle_beta   89.998715
_cell_angle_gamma 90.001045
loop_
_atom_site_label
_atom_site_type_symbol
_atom_site_fract_x
_atom_site_fract_y
_atom_site_fract_z
_atom_type_partial_charge
C0 C 0.7133 0.16731 -0.04662 0.0
C1 C 0.4853 0.2259 0.20489 0.0
C2 C 1.02986 0.19031 0.13982 0.0
Mg3 Mg 0.41097 0.09418 0.8152 0.0
Mg4 Mg 0.06197 0.29772 0.79869 0.0
O5 O 0.23404 0.20541 0.84568 0.0
Mg6 Mg 0.31195 0.2159 0.94242 0.0
O7 O 0.40206 0.23381 0.03613 0.0
Mg8 Mg 0.3993 0.09926 0.06705 0.0
Mg9 Mg 0.31653 0.33624 0.0877 0.0
C10 C 0.8565 0.22525 0.92987 0.0
O11 O 0.43357 0.37277 0.92576 0.0
O12 O 0.19383 0.07328 0.72239 0.0
O13 O 0.44953 0.44784 0.0235 0.0
O14 O 0.37628 0.25853 0.81371 0.0
O15 O 0.99675 0.20553 0.719 0.0
O16 O 0.30952 0.39173 0.76368 0.0
O17 O 0.24536 0.06261 -0.03157 0.0
O18 O 0.15443 0.01718 0.87163 0.0
C19 C 0.12821 0.01474 0.9333 0.0
C20 C 0.05069 0.12259 0.69747 0.0
O21 O 0.99597 0.25363 -0.03322 0.0
O22 O 0.49812 0.14783 0.17044 0.0
O23 O 0.84681 0.25192 0.86967 0.0
O24 O 0.10966 0.1136 0.11633 0.0
O25 O 0.44468 0.30972 0.18024 0.0
O26 O 0.04207 0.27544 0.1126 0.0
O27 O 0.58206 0.13693 0.91475 0.0
O28 O 0.70055 0.14336 0.01448 0.0
C29 C 0.43301 0.32356 0.77243 0.0
C30 C 0.49004 0.44348 -0.03785 0.0
C31 C 0.21331 0.66731 -0.04662 0.0
C32 C 0.98531 0.72591 0.20489 0.0
C33 C 0.52986 0.69032 0.13982 0.0
Mg34 Mg 0.91097 0.59419 0.8152 0.0
Mg35 Mg 0.56198 0.79772 0.79869 0.0
O36 O 0.73404 0.70541 0.84568 0.0
Mg37 Mg 0.81195 0.71591 0.94242 0.0
O38 O 0.90207 0.73381 0.03613 0.0
Mg39 Mg 0.89931 0.59927 0.06706 0.0
Mg40 Mg 0.81654 0.83624 0.0877 0.0
C41 C 0.35651 0.72525 0.92988 0.0
O42 O 0.93355 0.87278 0.92576 0.0
O43 O 0.69383 0.57328 0.72239 0.0
O44 O 0.9495 0.94785 0.0235 0.0
O45 O 0.87628 0.75854 0.81371 0.0
O46 O 0.49675 0.70554 0.719 0.0
O47 O 0.80952 0.89174 0.76368 0.0
O48 O 0.74538 0.56262 -0.03156 0.0
O49 O 0.65445 0.51717 0.87163 0.0
C50 C 0.62828 0.51472 0.9333 0.0
C51 C 0.55069 0.62259 0.69747 0.0
O52 O 0.49597 0.75363 -0.03322 0.0
O53 O 0.99813 0.64783 0.17044 0.0
O54 O 0.34682 0.75192 0.86968 0.0
O55 O 0.60967 0.6136 0.11634 0.0
O56 O 0.94469 0.80972 0.18024 0.0
O57 O 0.54207 0.77545 0.11261 0.0
O58 O 0.08206 0.63694 0.91475 0.0
O59 O 0.20055 0.64336 0.01449 0.0
C60 C 0.93302 0.82357 0.77243 0.0
C61 C 0.98997 0.9435 -0.03785 0.0
C62 C 0.71351 0.74378 0.46113 0.0
C63 C 0.48579 0.68519 0.20964 0.0
C64 C 1.02971 0.72075 0.27469 0.0
Mg65 Mg 0.41111 0.8169 0.5993 0.0
Mg66 Mg 0.06211 0.61334 0.61581 0.0
O67 O 0.23417 0.70568 0.56882 0.0
Mg68 Mg 0.31213 0.69519 0.47208 0.0
O69 O 0.40228 0.67731 0.37838 0.0
Mg70 Mg 0.39966 0.81183 0.34743 0.0
Mg71 Mg 0.31689 0.57489 0.32681 0.0
C72 C 0.85668 0.68581 0.48464 0.0
O73 O 0.43377 0.53832 0.48874 0.0
O74 O 0.19391 0.83779 0.69211 0.0
O75 O 0.44974 0.46325 0.39099 0.0
O76 O 0.37638 0.65255 0.60077 0.0
O77 O 0.99685 0.70552 0.6955 0.0
O78 O 0.30958 0.51927 0.65083 0.0
O79 O 0.24553 0.84848 0.44605 0.0
O80 O 0.1546 0.8939 0.54286 0.0
C81 C 0.12839 0.89634 0.48119 0.0
C82 C 0.05078 0.78848 0.71703 0.0
O83 O 0.99615 0.65744 0.44773 0.0
O84 O 0.49863 0.76329 0.24407 0.0
O85 O 0.84694 0.65911 0.54483 0.0
O86 O 0.11028 0.7974 0.298 0.0
O87 O 0.44521 0.60139 0.23431 0.0
O88 O 0.04242 0.63553 0.30175 0.0
O89 O 0.58225 0.77416 0.49976 0.0
O90 O 0.70081 0.76775 0.40004 0.0
C91 C 0.43293 0.58751 0.64207 0.0
C92 C 0.49023 0.4676 0.45234 0.0
C93 C 0.21352 0.24378 0.46113 0.0
C94 C 0.98579 0.18518 0.20964 0.0
C95 C 0.52971 0.22075 0.27469 0.0
Mg96 Mg 0.91111 0.31689 0.5993 0.0
Mg97 Mg 0.56212 0.11334 0.61581 0.0
O98 O 0.73417 0.20568 0.56882 0.0
Mg99 Mg 0.81214 0.19519 0.47208 0.0
O100 O 0.90229 0.17731 0.37838 0.0
Mg101 Mg 0.89967 0.31182 0.34743 0.0
Mg102 Mg 0.8169 0.07489 0.32681 0.0
C103 C 0.35668 0.18581 0.48464 0.0
O104 O 0.93375 0.03831 0.48874 0.0
O105 O 0.69391 0.33778 0.69211 0.0
O106 O 0.94971 -0.03676 0.39099 0.0
O107 O 0.87638 0.15255 0.60077 0.0
O108 O 0.49685 0.20552 0.6955 0.0
O109 O 0.80959 0.01927 0.65083 0.0
O110 O 0.74555 0.34847 0.44605 0.0
O111 O 0.65462 0.3939 0.54286 0.0
C112 C 0.62845 0.39636 0.48119 0.0
C113 C 0.55078 0.28847 0.71703 0.0
O114 O 0.49616 0.15744 0.44773 0.0
O115 O 0.99864 0.26328 0.24407 0.0
O116 O 0.34694 0.1591 0.54483 0.0
O117 O 0.61029 0.29739 0.29799 0.0
O118 O 0.94522 0.10138 0.23431 0.0
O119 O 0.54243 0.13552 0.30175 0.0
O120 O 0.08226 0.27415 0.49976 0.0
O121 O 0.20082 0.26775 0.40004 0.0
C122 C 0.93293 0.0875 0.64206 0.0
C123 C 0.99016 -0.03242 0.45234 0.0
loop_
_geom_bond_atom_site_label_1
_geom_bond_atom_site_label_2
_geom_bond_distance
_geom_bond_site_symmetry_2
_ccdc_geom_bond_type
C0 O27 1.312 1_554 S
C0 O28 1.208 . S
C1 O22 1.331 . S
C1 O25 1.244 . S
C2 O24 1.264 . S
C2 O26 1.273 . S
Mg3 O5 1.936 . S
Mg3 O12 2.081 . S
Mg3 O14 2.023 . S
Mg3 O18 2.031 . S
Mg3 O27 2.291 . S
Mg4 O5 1.963 . S
Mg4 O15 1.942 1_455 S
Mg4 O16 1.955 . S
Mg4 O23 1.986 1_455 S
O5 Mg3 1.936 . S
O5 Mg4 1.963 . S
O5 Mg6 1.915 1_556 S
Mg6 O5 1.915 1_554 S
Mg6 O7 1.915 . S
Mg6 O11 2.013 1_554 S
Mg6 O17 2.114 . S
Mg6 O21 2.013 1_455 S
Mg6 O27 2.114 1_554 S
O7 Mg6 1.915 . S
O7 Mg8 1.936 . S
O7 Mg9 1.963 . S
Mg8 O7 1.936 . S
Mg8 O17 2.291 . S
Mg8 O22 2.081 . S
Mg8 O24 2.023 . S
Mg8 O28 2.031 . S
Mg9 O7 1.963 . S
Mg9 O13 1.986 . S
Mg9 O25 1.942 . S
Mg9 O26 1.955 . S
C10 O21 1.191 1_556 S
C10 O23 1.307 . S
O11 Mg6 2.013 1_556 S
O11 C30 1.191 1_556 S
O12 Mg3 2.081 . S
O12 C20 1.331 . S
O13 Mg9 1.986 . S
O13 C30 1.307 . S
O14 Mg3 2.023 . S
O14 C29 1.264 . S
O15 Mg4 1.942 1_655 S
O15 C20 1.244 1_655 S
O16 Mg4 1.955 . S
O16 C29 1.273 . S
O17 Mg6 2.114 . S
O17 Mg8 2.291 . S
O17 C19 1.312 1_554 S
O18 Mg3 2.031 . S
O18 C19 1.208 . S
C19 O17 1.312 1_556 S
C19 O18 1.208 . S
C20 O12 1.331 . S
C20 O15 1.244 1_455 S
O21 Mg6 2.013 1_655 S
O21 C10 1.191 1_554 S
O22 C1 1.331 . S
O22 Mg8 2.081 . S
O23 Mg4 1.986 1_655 S
O23 C10 1.307 . S
O24 C2 1.264 . S
O24 Mg8 2.023 . S
O25 C1 1.244 . S
O25 Mg9 1.942 . S
O26 C2 1.273 . S
O26 Mg9 1.955 . S
O27 C0 1.312 1_556 S
O27 Mg3 2.291 . S
O27 Mg6 2.114 1_556 S
O28 C0 1.208 . S
O28 Mg8 2.031 . S
C29 O14 1.264 . S
C29 O16 1.273 . S
C30 O11 1.191 1_554 S
C30 O13 1.307 . S
C31 O58 1.312 1_454 S
C31 O59 1.208 . S
C32 O53 1.331 . S
C32 O56 1.244 1_455 S
C33 O55 1.264 . S
C33 O57 1.273 . S
Mg34 O36 1.936 . S
Mg34 O43 2.081 . S
Mg34 O45 2.023 . S
Mg34 O49 2.031 . S
Mg34 O58 2.291 . S
Mg35 O36 1.963 . S
Mg35 O46 1.942 . S
Mg35 O47 1.955 . S
Mg35 O54 1.986 . S
O36 Mg34 1.936 . S
O36 Mg35 1.963 . S
O36 Mg37 1.915 1_556 S
Mg37 O36 1.915 1_554 S
Mg37 O38 1.915 . S
Mg37 O42 2.013 1_554 S
Mg37 O48 2.114 . S
Mg37 O52 2.013 . S
Mg37 O58 2.114 1_554 S
O38 Mg37 1.915 . S
O38 Mg39 1.936 . S
O38 Mg40 1.963 . S
Mg39 O38 1.936 . S
Mg39 O48 2.291 . S
Mg39 O53 2.081 1_655 S
Mg39 O55 2.023 . S
Mg39 O59 2.031 1_655 S
Mg40 O38 1.963 . S
Mg40 O44 1.986 . S
Mg40 O56 1.942 . S
Mg40 O57 1.955 . S
C41 O52 1.191 1_556 S
C41 O54 1.307 . S
O42 Mg37 2.013 1_556 S
O42 C61 1.191 1_556 S
O43 Mg34 2.081 . S
O43 C51 1.331 . S
O44 Mg40 1.986 . S
O44 C61 1.307 . S
O45 Mg34 2.023 . S
O45 C60 1.264 . S
O46 Mg35 1.942 . S
O46 C51 1.244 . S
O47 Mg35 1.955 . S
O47 C60 1.273 . S
O48 Mg37 2.114 . S
O48 Mg39 2.291 . S
O48 C50 1.312 1_554 S
O49 Mg34 2.031 . S
O49 C50 1.208 . S
C50 O48 1.312 1_556 S
C50 O49 1.208 . S
C51 O43 1.331 . S
C51 O46 1.244 . S
O52 Mg37 2.013 . S
O52 C41 1.191 1_554 S
O53 C32 1.331 . S
O53 Mg39 2.081 1_455 S
O54 Mg35 1.986 . S
O54 C41 1.307 . S
O55 C33 1.264 . S
O55 Mg39 2.023 . S
O56 C32 1.244 1_655 S
O56 Mg40 1.942 . S
O57 C33 1.273 . S
O57 Mg40 1.955 . S
O58 C31 1.312 1_656 S
O58 Mg34 2.291 . S
O58 Mg37 2.114 1_556 S
O59 C31 1.208 . S
O59 Mg39 2.031 1_455 S
C60 O45 1.264 . S
C60 O47 1.273 . S
C61 O42 1.191 1_554 S
C61 O44 1.307 . S
C62 O89 1.312 . S
C62 O90 1.208 . S
C63 O84 1.331 . S
C63 O87 1.244 . S
C64 O86 1.264 . S
C64 O88 1.273 . S
Mg65 O67 1.936 . S
Mg65 O74 2.081 . S
Mg65 O76 2.023 . S
Mg65 O80 2.031 . S
Mg65 O89 2.291 . S
Mg66 O67 1.963 . S
Mg66 O77 1.942 1_455 S
Mg66 O78 1.955 . S
Mg66 O85 1.986 1_455 S
O67 Mg65 1.936 . S
O67 Mg66 1.963 . S
O67 Mg68 1.915 . S
Mg68 O67 1.915 . S
Mg68 O69 1.915 . S
Mg68 O73 2.013 . S
Mg68 O79 2.114 . S
Mg68 O83 2.013 1_455 S
Mg68 O89 2.114 . S
O69 Mg68 1.915 . S
O69 Mg70 1.936 . S
O69 Mg71 1.963 . S
Mg70 O69 1.936 . S
Mg70 O79 2.291 . S
Mg70 O84 2.081 . S
Mg70 O86 2.023 . S
Mg70 O90 2.031 . S
Mg71 O69 1.963 . S
Mg71 O75 1.986 . S
Mg71 O87 1.942 . S
Mg71 O88 1.955 . S
C72 O83 1.191 . S
C72 O85 1.307 . S
O73 Mg68 2.013 . S
O73 C92 1.191 . S
O74 Mg65 2.081 . S
O74 C82 1.331 . S
O75 Mg71 1.986 . S
O75 C92 1.307 . S
O76 Mg65 2.023 . S
O76 C91 1.264 . S
O77 Mg66 1.942 1_655 S
O77 C82 1.244 1_655 S
O78 Mg66 1.955 . S
O78 C91 1.273 . S
O79 Mg68 2.114 . S
O79 Mg70 2.291 . S
O79 C81 1.312 . S
O80 Mg65 2.031 . S
O80 C81 1.208 . S
C81 O79 1.312 . S
C81 O80 1.208 . S
C82 O74 1.331 . S
C82 O77 1.244 1_455 S
O83 Mg68 2.013 1_655 S
O83 C72 1.191 . S
O84 C63 1.331 . S
O84 Mg70 2.081 . S
O85 Mg66 1.986 1_655 S
O85 C72 1.307 . S
O86 C64 1.264 . S
O86 Mg70 2.023 . S
O87 C63 1.244 . S
O87 Mg71 1.942 . S
O88 C64 1.273 . S
O88 Mg71 1.955 . S
O89 C62 1.312 . S
O89 Mg65 2.291 . S
O89 Mg68 2.114 . S
O90 C62 1.208 . S
O90 Mg70 2.031 . S
C91 O76 1.264 . S
C91 O78 1.273 . S
C92 O73 1.191 . S
C92 O75 1.307 . S
C93 O120 1.312 1_455 S
C93 O121 1.208 . S
C94 O115 1.331 . S
C94 O118 1.244 1_455 S
C95 O117 1.264 . S
C95 O119 1.273 . S
Mg96 O98 1.936 . S
Mg96 O105 2.081 . S
Mg96 O107 2.023 . S
Mg96 O111 2.031 . S
Mg96 O120 2.291 . S
Mg97 O98 1.963 . S
Mg97 O108 1.942 . S
Mg97 O109 1.955 . S
Mg97 O116 1.986 . S
O98 Mg96 1.936 . S
O98 Mg97 1.963 . S
O98 Mg99 1.915 . S
Mg99 O98 1.915 . S
Mg99 O100 1.915 . S
Mg99 O104 2.013 . S
Mg99 O110 2.114 . S
Mg99 O114 2.013 . S
Mg99 O120 2.114 . S
O100 Mg99 1.915 . S
O100 Mg101 1.936 . S
O100 Mg102 1.963 . S
Mg101 O100 1.936 . S
Mg101 O110 2.291 . S
Mg101 O115 2.081 1_655 S
Mg101 O117 2.023 . S
Mg101 O121 2.031 1_655 S
Mg102 O100 1.963 . S
Mg102 O106 1.986 . S
Mg102 O118 1.942 . S
Mg102 O119 1.955 . S
C103 O114 1.191 . S
C103 O116 1.307 . S
O104 Mg99 2.013 . S
O104 C123 1.191 . S
O105 Mg96 2.081 . S
O105 C113 1.331 . S
O106 Mg102 1.986 . S
O106 C123 1.307 . S
O107 Mg96 2.023 . S
O107 C122 1.264 . S
O108 Mg97 1.942 . S
O108 C113 1.244 . S
O109 Mg97 1.955 . S
O109 C122 1.273 . S
O110 Mg99 2.114 . S
O110 Mg101 2.291 . S
O110 C112 1.312 . S
O111 Mg96 2.031 . S
O111 C112 1.208 . S
C112 O110 1.312 . S
C112 O111 1.208 . S
C113 O105 1.331 . S
C113 O108 1.244 . S
O114 Mg99 2.013 . S
O114 C103 1.191 . S
O115 C94 1.331 . S
O115 Mg101 2.081 1_455 S
O116 Mg97 1.986 . S
O116 C103 1.307 . S
O117 C95 1.264 . S
O117 Mg101 2.023 . S
O118 C94 1.244 1_655 S
O118 Mg102 1.942 . S
O119 C95 1.273 . S
O119 Mg102 1.955 . S
O120 C93 1.312 1_655 S
O120 Mg96 2.291 . S
O120 Mg99 2.114 . S
O121 C93 1.208 . S
O121 Mg101 2.031 1_455 S
C122 O107 1.264 . S
C122 O109 1.273 . S
C123 O104 1.191 . S
C123 O106 1.307 . S
C0 C10 3.144 1_554 S
C31 C41 3.144 1_554 S
C62 C72 3.144 . S
C93 C103 3.144 . S
C50 C30 2.199 1_556 S
C112 C92 2.199 . S
C19 C61 2.199 1_446 S
C123 C81 2.199 1_645 S
C95 C1 0.951 . S
C33 C63 0.951 . S
C91 C51 0.977 . S
C29 C113 0.977 . S
C64 C32 0.951 . S
C94 C2 0.951 . S
C20 C122 0.977 1_455 S
C82 C60 0.977 1_455 S
