# Generated by pormake.
# Topology ilc, (8)-cn, num edge types: 1
# Building blocks:
#     Node 0, Type 0, BuildingBlock: HISSIN_clean_sbu_1, # of connection points: 8
#     Node 1, Type 0, BuildingBlock: HISSIN_clean_sbu_1, # of connection points: 8
#     Node 2, Type 0, BuildingBlock: HISSIN_clean_sbu_1, # of connection points: 8
#     Edge 3, Type (0, 0), BuildingBlock: OJICUG_clean_linker_0, # of connection points: 2
#     Edge 4, Type (0, 0), BuildingBlock: OJICUG_clean_linker_0, # of connection points: 2
#     Edge 5, Type (0, 0), BuildingBlock: OJICUG_clean_linker_0, # of connection points: 2
#     Edge 6, Type (0, 0), BuildingBlock: OJICUG_clean_linker_0, # of connection points: 2
#     Edge 7, Type (0, 0), BuildingBlock: OJICUG_clean_linker_0, # of connection points: 2
#     Edge 8, Type (0, 0), BuildingBlock: OJICUG_clean_linker_0, # of connection points: 2
#     Edge 9, Type (0, 0), BuildingBlock: OJICUG_clean_linker_0, # of connection points: 2
#     Edge 10, Type (0, 0), BuildingBlock: OJICUG_clean_linker_0, # of connection points: 2
#     Edge 11, Type (0, 0), BuildingBlock: OJICUG_clean_linker_0, # of connection points: 2
#     Edge 12, Type (0, 0), BuildingBlock: OJICUG_clean_linker_0, # of connection points: 2
#     Edge 13, Type (0, 0), BuildingBlock: OJICUG_clean_linker_0, # of connection points: 2
#     Edge 14, Type (0, 0), BuildingBlock: OJICUG_clean_linker_0, # of connection points: 2
# Relax obj value: 0.200
# Max RMSD: 0.208
# Mean RMSD: 0.208
data_MOF--net-ilc--node1-HISSIN_clean_sbu_1--edge1-OJICUG_clean_linker_0
_symmetry_space_group_name_H-M    P1
_symmetry_Int_Tables_number       1
_symmetry_cell_setting            triclinic
loop_
_symmetry_equiv_pos_as_xyz
'x, y, z'
_cell_length_a     17.94341
_cell_length_b     24.278868
_cell_length_c     15.153406
_cell_angle_alpha  102.06676
_cell_angle_beta   73.817236
_cell_angle_gamma 143.9439
loop_
_atom_site_label
_atom_site_type_symbol
_atom_site_fract_x
_atom_site_fract_y
_atom_site_fract_z
_atom_type_partial_charge
Eu0 Eu 0.90297 0.93267 0.95062 0.0
C1 C 0.19741 0.11568 0.86256 0.0
O2 O 0.83903 0.82293 0.848 0.0
C3 C 0.12467 0.98203 0.1833 0.0
C4 C 1.02091 0.88184 0.34276 0.0
C5 C 0.02786 0.95547 0.24995 0.0
C6 C 0.98091 0.91015 0.33155 0.0
C7 C 0.17187 0.95882 0.19707 0.0
C8 C 0.11757 0.90704 0.27726 0.0
Eu9 Eu 0.13696 0.1156 0.07668 0.0
O10 O 0.83326 0.8861 0.09843 0.0
O11 O 0.20183 0.22551 0.18125 0.0
O12 O 0.21582 0.1683 0.92985 0.0
O13 O 0.93484 1.02664 0.14605 0.0
C14 C 0.1519 0.24751 0.19498 0.0
O15 O 0.07515 0.21205 0.1409 0.0
O16 O 0.09276 1.00037 0.05848 0.0
C17 C 0.17853 0.0401 0.10544 0.0
C18 C 0.89058 0.80244 0.83495 0.0
O19 O 0.96861 0.8395 0.88872 0.0
O20 O 0.25362 0.12743 0.12447 0.0
O21 O 0.10519 1.02535 0.87681 0.0
C22 C 0.83844 0.99027 0.91829 0.0
O23 O 0.95228 0.04769 0.93581 0.0
C24 C 0.83856 1.00895 0.83203 0.0
C25 C 0.80921 1.02065 0.66837 0.0
C26 C 0.84619 0.97186 0.75157 0.0
C27 C 0.83079 0.97751 0.67024 0.0
C28 C 0.82954 0.06106 0.82776 0.0
C29 C 0.81561 0.06705 0.74422 0.0
C30 C 0.84325 0.93688 0.16218 0.0
O31 O 0.75625 0.90174 0.93256 0.0
H32 H 0.98772 0.84937 0.40756 0.0
H33 H 0.99876 0.97927 0.24255 0.0
H34 H 0.24996 0.9815 0.14751 0.0
H35 H 0.80067 1.02638 0.60371 0.0
H36 H 0.86341 0.9382 0.7524 0.0
H37 H 0.83277 0.09578 0.88789 0.0
Eu38 Eu 0.57447 0.27042 0.28419 0.0
C39 C 0.86775 0.44926 0.19799 0.0
O40 O 0.50971 0.16055 0.17966 0.0
C41 C 0.87452 0.37794 0.52758 0.0
C42 C 0.90343 0.36581 0.69121 0.0
C43 C 0.86676 0.41488 0.60814 0.0
C44 C 0.88175 0.4089 0.68948 0.0
C45 C 0.88351 0.32578 0.53172 0.0
C46 C 0.8973 0.31963 0.61523 0.0
Eu47 Eu 0.80912 0.45378 0.40961 0.0
O48 O 0.49642 0.21811 0.43107 0.0
O49 O 0.87315 0.56356 0.5122 0.0
O50 O 0.87794 0.50007 0.26183 0.0
O51 O 0.60709 0.36109 0.48402 0.0
C52 C 0.82157 0.58402 0.52529 0.0
O53 O 0.74347 0.54691 0.47155 0.0
O54 O 0.76035 0.33898 0.4241 0.0
C55 C 0.87434 0.39654 0.44144 0.0
C56 C 0.5599 0.13875 0.16582 0.0
O57 O 0.63682 0.17434 0.21979 0.0
O58 O 0.95631 0.48503 0.42722 0.0
O59 O 0.77649 0.35957 0.21424 0.0
C60 C 0.53207 0.34529 0.2553 0.0
O61 O 0.61839 0.38551 0.30195 0.0
C62 C 0.58527 0.40268 0.177 0.0
C63 C 0.68855 0.5024 0.01728 0.0
C64 C 0.68091 0.42816 0.10981 0.0
C65 C 0.72794 0.47358 0.02827 0.0
C66 C 0.53892 0.42666 0.16361 0.0
C67 C 0.59289 0.4781 0.08321 0.0
C68 C 0.515 0.27079 0.49836 0.0
O69 O 0.45678 0.25783 0.23691 0.0
H70 H 0.91168 0.35983 0.75589 0.0
H71 H 0.84941 0.44848 0.60743 0.0
H72 H 0.88031 0.29114 0.47152 0.0
H73 H 0.7217 0.53486 0.95248 0.0
H74 H 0.70951 0.40394 0.11705 0.0
H75 H 0.46181 0.4049 0.21365 0.0
Eu76 Eu 0.24817 0.6069 0.61926 0.0
C77 C 0.53755 0.78577 0.52956 0.0
O78 O 0.18374 0.49783 0.51395 0.0
C79 C 0.44892 0.64798 0.85201 0.0
C80 C 0.36708 0.56651 0.01915 0.0
C81 C 0.38592 0.64914 0.92907 0.0
C82 C 0.35407 0.61483 1.01355 0.0
C83 C 0.4747 0.60758 0.85914 0.0
C84 C 0.43113 0.56522 0.94359 0.0
Eu85 Eu 0.46412 0.7799 0.74121 0.0
O86 O 0.16322 0.55044 0.76524 0.0
O87 O 0.52869 0.88905 0.84641 0.0
O88 O 0.54879 0.83619 0.59519 0.0
O89 O 0.26341 0.69023 0.81494 0.0
C90 C 0.48026 0.91209 0.85947 0.0
O91 O 0.40361 0.8768 0.8054 0.0
O92 O 0.41137 0.66038 0.7263 0.0
C93 C 0.4995 0.70071 0.77053 0.0
C94 C 0.23221 0.47481 0.50087 0.0
O95 O 0.30887 0.51012 0.55494 0.0
O96 O 0.57987 0.78959 0.78461 0.0
O97 O 0.44893 0.6965 0.54579 0.0
C98 C 0.21333 0.68657 0.59033 0.0
O99 O 0.30067 0.72631 0.63509 0.0
C100 C 0.26511 0.74036 0.50941 0.0
C101 C 0.3494 0.82383 0.34297 0.0
C102 C 0.33008 0.74072 0.43268 0.0
C103 C 0.36289 0.77578 0.3484 0.0
C104 C 0.23852 0.7802 0.50226 0.0
C105 C 0.28331 0.82357 0.4182 0.0
C106 C 0.17462 0.60089 0.83098 0.0
O107 O 0.13333 0.59786 0.57528 0.0
H108 H 0.34545 0.54235 0.08596 0.0
H109 H 0.37535 0.68681 0.92585 0.0
H110 H 0.53183 0.61239 0.80171 0.0
H111 H 0.3718 0.84858 0.27629 0.0
H112 H 0.34089 0.70319 0.43574 0.0
H113 H 0.1798 0.77412 0.5593 0.0
C114 C 0.79707 0.86585 0.56773 0.0
C115 C 0.85926 0.95413 0.58279 0.0
H116 H 0.78276 0.78003 0.47186 0.0
C117 C 0.95185 1.02342 0.51295 0.0
H118 H 0.72533 0.81183 0.62136 0.0
C119 C 0.98356 1.00569 0.42912 0.0
C120 C 0.92383 0.91824 0.41329 0.0
H121 H 1.00274 0.09271 0.52406 0.0
H122 H 0.06076 0.06291 0.37875 0.0
C123 C 0.82883 0.84764 0.48259 0.0
C124 C 0.75898 0.36167 0.84632 0.0
C125 C 0.85229 0.43155 0.77703 0.0
H126 H 0.64855 0.32109 0.98013 0.0
C127 C 0.91412 0.51967 0.79266 0.0
H128 H 0.7084 0.2925 0.83474 0.0
C129 C 0.88128 0.53714 0.8778 0.0
C130 C 0.78557 0.46596 0.94652 0.0
H131 H 0.98642 0.57413 0.73945 0.0
H132 H 0.92716 0.60466 0.88899 0.0
C133 C 0.72619 0.37868 0.93017 0.0
C134 C 0.44967 0.75244 0.10263 0.0
C135 C 0.34852 0.65449 0.09732 0.0
H136 H 0.53708 0.86866 0.18884 0.0
C137 C 0.25738 0.5976 0.1759 0.0
H138 H 0.5232 0.7977 0.04294 0.0
C139 C 0.26733 0.6383 0.25913 0.0
C140 C 0.36855 0.73627 0.26449 0.0
H141 H 0.17991 0.52211 0.17295 0.0
H142 H 0.19367 0.59298 0.31876 0.0
C143 C 0.45964 0.79317 0.18589 0.0
C144 C 0.32171 0.93994 0.37681 0.0
C145 C 0.23577 0.84665 0.39631 0.0
H146 H 0.35101 0.03234 0.32242 0.0
C147 C 0.11638 0.77409 0.36828 0.0
H148 H 0.41647 0.99683 0.39458 0.0
C149 C 0.08243 0.79416 0.32263 0.0
C150 C 0.16766 0.88732 0.30353 0.0
H151 H 0.05191 0.70175 0.37793 0.0
H152 H 0.98827 0.7369 0.30374 0.0
C153 C 0.2869 0.96014 0.33206 0.0
C154 C 0.14702 0.38955 0.35436 0.0
C155 C 0.20838 0.41469 0.4236 0.0
H156 H 0.08299 0.31883 0.22799 0.0
C157 C 0.2523 0.38497 0.41639 0.0
H158 H 0.11289 0.41165 0.35697 0.0
C159 C 0.23545 0.33176 0.34219 0.0
C160 C 0.17481 0.30707 0.27263 0.0
H161 H 0.29992 0.40276 0.46835 0.0
H162 H 0.2689 0.30921 0.33994 0.0
C163 C 0.13056 0.33658 0.27998 0.0
C164 C 0.60292 0.76914 0.36832 0.0
C165 C 0.61687 0.82544 0.43596 0.0
H166 H 0.66207 0.75954 0.22892 0.0
C167 C 0.70241 0.91747 0.41176 0.0
H168 H 0.537 0.6975 0.38433 0.0
C169 C 0.77411 0.95295 0.32236 0.0
C170 C 0.76111 0.8969 0.25504 0.0
H171 H 0.71392 0.96211 0.46166 0.0
H172 H 0.8405 1.0247 0.30632 0.0
C173 C 0.67409 0.80442 0.2789 0.0
C174 C 0.76455 0.15862 0.63712 0.0
C175 C 0.88481 0.25508 0.63402 0.0
H176 H 0.64479 1.02289 0.6807 0.0
C177 C 0.97653 0.28918 0.67693 0.0
H178 H 0.69045 0.13096 0.60794 0.0
C179 C 0.94844 0.22805 0.72215 0.0
C180 C 0.82817 0.1316 0.72527 0.0
H181 H 0.06816 0.36377 0.67863 0.0
H182 H 1.02253 0.25572 0.75135 0.0
C183 C 0.73645 0.09749 0.68236 0.0
C184 C 0.90697 0.66905 0.67101 0.0
C185 C 0.8422 0.64187 0.60344 0.0
H186 H 0.97125 0.73948 0.79729 0.0
C187 C 0.79153 0.66675 0.61355 0.0
H188 H 0.9461 0.6504 0.66607 0.0
C189 C 0.80519 0.71742 0.68921 0.0
C190 C 0.86997 0.74461 0.75678 0.0
H191 H 0.74093 0.64701 0.56293 0.0
H192 H 0.76604 0.73605 0.69417 0.0
C193 C 0.92065 0.71973 0.74667 0.0
C194 C 0.3274 0.13371 0.60944 0.0
C195 C 0.43251 0.23036 0.5911 0.0
H196 H 0.17108 1.02195 0.70922 0.0
C197 C 0.46063 0.28951 0.66321 0.0
H198 H 0.30317 0.0863 0.55568 0.0
C199 C 0.38522 0.25283 0.75155 0.0
C200 C 0.28007 0.15617 0.76987 0.0
H201 H 0.54154 0.36459 0.65175 0.0
H202 H 0.40943 0.30023 0.80531 0.0
C203 C 0.25199 0.09703 0.69777 0.0
C204 C 0.42465 0.42655 0.02881 0.0
C205 C 0.54378 0.49877 0.05743 0.0
H206 H 0.29612 0.39121 0.96647 0.0
C207 C 0.62985 0.5922 0.03866 0.0
H208 H 0.35989 0.35414 0.03819 0.0
C209 C 0.59685 0.61314 0.99324 0.0
C210 C 0.4776 0.54118 0.9651 0.0
H211 H 0.72395 0.64899 0.0576 0.0
H212 H 0.662 0.68569 0.98384 0.0
C213 C 0.39081 0.44763 0.98428 0.0
C214 C 0.45965 1.00153 0.9443 0.0
C215 C 0.50394 0.97207 0.93684 0.0
H216 H 0.4426 0.07694 0.02107 0.0
C217 C 0.5655 0.99729 1.00596 0.0
H218 H 0.41186 0.98367 0.89244 0.0
C219 C 0.58179 0.05009 0.08047 0.0
C220 C 0.53717 0.07934 0.08806 0.0
H221 H 0.59994 0.97538 1.00316 0.0
H222 H 0.62952 0.06791 0.13236 0.0
C223 C 0.47633 0.05458 0.01862 0.0
C224 C 1.00876 0.46881 0.94843 0.0
C225 C 0.09486 0.56103 0.92444 0.0
H226 H 0.86995 0.36131 0.05362 0.0
C227 C 0.10881 0.6173 0.99213 0.0
H228 H 0.99715 0.42416 0.89846 0.0
C229 C 0.03725 0.58185 0.08144 0.0
C230 C 0.94985 0.48924 0.10514 0.0
H231 H 0.17509 0.68906 0.97627 0.0
H232 H 0.04939 0.62675 0.13149 0.0
C233 C 0.93668 0.43317 0.03772 0.0
loop_
_geom_bond_atom_site_label_1
_geom_bond_atom_site_label_2
_geom_bond_distance
_geom_bond_site_symmetry_2
_ccdc_geom_bond_type
Eu0 O2 2.323 . S
Eu0 O10 2.328 1_556 S
Eu0 O21 2.316 1_665 S
Eu0 C22 2.837 . S
Eu0 O23 2.488 . S
Eu0 O31 2.461 . S
C1 O12 1.251 . S
C1 O21 1.237 . S
O2 Eu0 2.323 . S
O2 C18 1.279 . S
C3 C5 1.383 . S
C3 C7 1.388 1_545 S
C3 C17 1.491 . S
C4 C6 1.403 . S
C4 C8 1.385 . S
C4 H32 0.931 . S
C5 C3 1.383 . S
C5 C6 1.393 1_545 S
C5 H33 0.930 . S
C6 C4 1.403 . S
C6 C5 1.393 1_565 S
C7 C3 1.388 1_565 S
C7 C8 1.394 . S
C7 H34 0.930 . S
C8 C4 1.385 . S
C8 C7 1.394 . S
Eu9 O11 2.323 . S
Eu9 O12 2.328 1_554 S
Eu9 O13 2.316 1_445 S
Eu9 O16 2.488 . S
Eu9 C17 2.837 . S
Eu9 O20 2.461 . S
O10 Eu0 2.328 1_554 S
O10 C30 1.251 . S
O11 Eu9 2.323 . S
O11 C14 1.279 . S
O12 C1 1.251 . S
O12 Eu9 2.328 1_556 S
O13 Eu9 2.316 1_665 S
O13 C30 1.237 . S
C14 O11 1.279 . S
C14 O15 1.244 . S
O15 C14 1.244 . S
O16 Eu9 2.488 . S
O16 C17 1.271 . S
C17 C3 1.491 . S
C17 Eu9 2.837 . S
C17 O16 1.271 . S
C17 O20 1.261 . S
C18 O2 1.279 . S
C18 O19 1.244 . S
O19 C18 1.244 . S
O20 Eu9 2.461 . S
O20 C17 1.261 . S
O21 Eu0 2.316 1_445 S
O21 C1 1.237 . S
C22 Eu0 2.837 . S
C22 O23 1.271 . S
C22 C24 1.491 . S
C22 O31 1.261 . S
O23 Eu0 2.488 . S
O23 C22 1.271 . S
C24 C22 1.491 . S
C24 C26 1.383 . S
C24 C28 1.388 1_565 S
C25 C27 1.403 . S
C25 C29 1.385 . S
C25 H35 0.931 . S
C26 C24 1.383 . S
C26 C27 1.393 1_565 S
C26 H36 0.930 . S
C27 C25 1.403 . S
C27 C26 1.393 1_545 S
C28 C24 1.388 1_545 S
C28 C29 1.394 . S
C28 H37 0.930 . S
C29 C25 1.385 . S
C29 C28 1.394 . S
C30 O10 1.251 . S
C30 O13 1.237 . S
O31 Eu0 2.461 . S
O31 C22 1.261 . S
H32 C4 0.931 . S
H33 C5 0.930 . S
H34 C7 0.930 . S
H35 C25 0.931 . S
H36 C26 0.930 . S
H37 C28 0.930 . S
Eu38 O40 2.323 . S
Eu38 O48 2.328 . S
Eu38 O59 2.316 . S
Eu38 C60 2.837 . S
Eu38 O61 2.488 . S
Eu38 O69 2.461 . S
C39 O50 1.251 . S
C39 O59 1.237 . S
O40 Eu38 2.323 . S
O40 C56 1.279 . S
C41 C43 1.383 . S
C41 C45 1.388 . S
C41 C55 1.491 . S
C42 C44 1.403 . S
C42 C46 1.385 . S
C42 H70 0.931 . S
C43 C41 1.383 . S
C43 C44 1.393 . S
C43 H71 0.930 . S
C44 C42 1.403 . S
C44 C43 1.393 . S
C45 C41 1.388 . S
C45 C46 1.394 . S
C45 H72 0.930 . S
C46 C42 1.385 . S
C46 C45 1.394 . S
Eu47 O49 2.323 . S
Eu47 O50 2.328 . S
Eu47 O51 2.316 . S
Eu47 O54 2.488 . S
Eu47 C55 2.837 . S
Eu47 O58 2.461 . S
O48 Eu38 2.328 . S
O48 C68 1.251 . S
O49 Eu47 2.323 . S
O49 C52 1.279 . S
O50 C39 1.251 . S
O50 Eu47 2.328 . S
O51 Eu47 2.316 . S
O51 C68 1.237 . S
C52 O49 1.279 . S
C52 O53 1.244 . S
O53 C52 1.244 . S
O54 Eu47 2.488 . S
O54 C55 1.271 . S
C55 C41 1.491 . S
C55 Eu47 2.837 . S
C55 O54 1.271 . S
C55 O58 1.261 . S
C56 O40 1.279 . S
C56 O57 1.244 . S
O57 C56 1.244 . S
O58 Eu47 2.461 . S
O58 C55 1.261 . S
O59 Eu38 2.316 . S
O59 C39 1.237 . S
C60 Eu38 2.837 . S
C60 O61 1.271 . S
C60 C62 1.491 . S
C60 O69 1.261 . S
O61 Eu38 2.488 . S
O61 C60 1.271 . S
C62 C60 1.491 . S
C62 C64 1.383 . S
C62 C66 1.388 . S
C63 C65 1.403 1_554 S
C63 C67 1.385 . S
C63 H73 0.931 1_554 S
C64 C62 1.383 . S
C64 C65 1.393 1_554 S
C64 H74 0.930 . S
C65 C63 1.403 1_556 S
C65 C64 1.393 1_556 S
C66 C62 1.388 . S
C66 C67 1.394 . S
C66 H75 0.930 . S
C67 C63 1.385 . S
C67 C66 1.394 . S
C68 O48 1.251 . S
C68 O51 1.237 . S
O69 Eu38 2.461 . S
O69 C60 1.261 . S
H70 C42 0.931 . S
H71 C43 0.930 . S
H72 C45 0.930 . S
H73 C63 0.931 1_556 S
H74 C64 0.930 . S
H75 C66 0.930 . S
Eu76 O78 2.323 . S
Eu76 O86 2.328 . S
Eu76 O97 2.316 . S
Eu76 C98 2.837 . S
Eu76 O99 2.488 . S
Eu76 O107 2.461 . S
C77 O88 1.251 . S
C77 O97 1.237 . S
O78 Eu76 2.323 . S
O78 C94 1.279 . S
C79 C81 1.383 . S
C79 C83 1.388 . S
C79 C93 1.491 . S
C80 C82 1.403 1_556 S
C80 C84 1.385 . S
C80 H108 0.931 1_556 S
C81 C79 1.383 . S
C81 C82 1.393 1_556 S
C81 H109 0.930 . S
C82 C80 1.403 1_554 S
C82 C81 1.393 1_554 S
C83 C79 1.388 . S
C83 C84 1.394 . S
C83 H110 0.930 . S
C84 C80 1.385 . S
C84 C83 1.394 . S
Eu85 O87 2.323 . S
Eu85 O88 2.328 . S
Eu85 O89 2.316 . S
Eu85 O92 2.488 . S
Eu85 C93 2.837 . S
Eu85 O96 2.461 . S
O86 Eu76 2.328 . S
O86 C106 1.251 . S
O87 Eu85 2.323 . S
O87 C90 1.279 . S
O88 C77 1.251 . S
O88 Eu85 2.328 . S
O89 Eu85 2.316 . S
O89 C106 1.237 . S
C90 O87 1.279 . S
C90 O91 1.244 . S
O91 C90 1.244 . S
O92 Eu85 2.488 . S
O92 C93 1.271 . S
C93 C79 1.491 . S
C93 Eu85 2.837 . S
C93 O92 1.271 . S
C93 O96 1.261 . S
C94 O78 1.279 . S
C94 O95 1.244 . S
O95 C94 1.244 . S
O96 Eu85 2.461 . S
O96 C93 1.261 . S
O97 Eu76 2.316 . S
O97 C77 1.237 . S
C98 Eu76 2.837 . S
C98 O99 1.271 . S
C98 C100 1.491 . S
C98 O107 1.261 . S
O99 Eu76 2.488 . S
O99 C98 1.271 . S
C100 C98 1.491 . S
C100 C102 1.383 . S
C100 C104 1.388 . S
C101 C103 1.403 . S
C101 C105 1.385 . S
C101 H111 0.931 . S
C102 C100 1.383 . S
C102 C103 1.393 . S
C102 H112 0.930 . S
C103 C101 1.403 . S
C103 C102 1.393 . S
C104 C100 1.388 . S
C104 C105 1.394 . S
C104 H113 0.930 . S
C105 C101 1.385 . S
C105 C104 1.394 . S
C106 O86 1.251 . S
C106 O89 1.237 . S
O107 Eu76 2.461 . S
O107 C98 1.261 . S
H108 C80 0.931 1_554 S
H109 C81 0.930 . S
H110 C83 0.930 . S
H111 C101 0.931 . S
H112 C102 0.930 . S
H113 C104 0.930 . S
C114 C115 1.384 1_565 S
C114 H118 0.950 . S
C114 C123 1.390 . S
C115 C114 1.384 1_545 S
C115 C117 1.388 1_655 S
H116 C123 0.950 . S
C117 C115 1.388 1_455 S
C117 C119 1.390 . S
C117 H121 0.950 . S
H118 C114 0.950 . S
C119 C117 1.390 . S
C119 C120 1.389 1_545 S
C119 H122 0.950 . S
C120 C119 1.389 1_565 S
C120 C123 1.387 1_455 S
H121 C117 0.950 . S
H122 C119 0.950 . S
C123 C114 1.390 . S
C123 H116 0.950 . S
C123 C120 1.387 1_655 S
C124 C125 1.387 . S
C124 H128 0.950 . S
C124 C133 1.390 . S
C125 C124 1.387 . S
C125 C127 1.387 . S
H126 C133 0.950 . S
C127 C125 1.387 . S
C127 C129 1.390 . S
C127 H131 0.950 . S
H128 C124 0.950 . S
C129 C127 1.390 . S
C129 C130 1.387 . S
C129 H132 0.950 . S
C130 C129 1.387 . S
C130 C133 1.387 . S
H131 C127 0.950 . S
H132 C129 0.950 . S
C133 C124 1.390 . S
C133 H126 0.950 . S
C133 C130 1.387 . S
C134 C135 1.387 . S
C134 H138 0.950 . S
C134 C143 1.390 . S
C135 C134 1.387 . S
C135 C137 1.387 . S
H136 C143 0.950 . S
C137 C135 1.387 . S
C137 C139 1.390 . S
C137 H141 0.950 . S
H138 C134 0.950 . S
C139 C137 1.390 . S
C139 C140 1.387 . S
C139 H142 0.950 . S
C140 C139 1.387 . S
C140 C143 1.387 . S
H141 C137 0.950 . S
H142 C139 0.950 . S
C143 C134 1.390 . S
C143 H136 0.950 . S
C143 C140 1.387 . S
C144 C145 1.387 . S
C144 H148 0.950 . S
C144 C153 1.390 . S
C145 C144 1.387 . S
C145 C147 1.387 . S
H146 C153 0.950 . S
C147 C145 1.387 . S
C147 C149 1.390 . S
C147 H151 0.950 . S
H148 C144 0.950 . S
C149 C147 1.390 . S
C149 C150 1.387 . S
C149 H152 0.950 . S
C150 C149 1.387 . S
C150 C153 1.387 . S
H151 C147 0.950 . S
H152 C149 0.950 . S
C153 C144 1.390 . S
C153 H146 0.950 . S
C153 C150 1.387 . S
C154 C155 1.387 . S
C154 H158 0.950 . S
C154 C163 1.390 . S
C155 C154 1.387 . S
C155 C157 1.387 . S
H156 C163 0.950 . S
C157 C155 1.387 . S
C157 C159 1.390 . S
C157 H161 0.950 . S
H158 C154 0.950 . S
C159 C157 1.390 . S
C159 C160 1.387 . S
C159 H162 0.950 1_455 S
C160 C159 1.387 . S
C160 C163 1.387 . S
H161 C157 0.950 . S
H162 C159 0.950 1_655 S
C163 C154 1.390 . S
C163 H156 0.950 . S
C163 C160 1.387 . S
C164 C165 1.387 . S
C164 H168 0.950 . S
C164 C173 1.390 . S
C165 C164 1.387 . S
C165 C167 1.387 . S
H166 C173 0.950 . S
C167 C165 1.387 . S
C167 C169 1.390 . S
C167 H171 0.950 . S
H168 C164 0.950 . S
C169 C167 1.390 . S
C169 C170 1.387 . S
C169 H172 0.950 . S
C170 C169 1.387 . S
C170 C173 1.387 . S
H171 C167 0.950 . S
H172 C169 0.950 . S
C173 C164 1.390 . S
C173 H166 0.950 . S
C173 C170 1.387 . S
C174 C175 1.387 . S
C174 H178 0.950 . S
C174 C183 1.390 . S
C175 C174 1.387 . S
C175 C177 1.387 . S
H176 C183 0.950 . S
C177 C175 1.387 . S
C177 C179 1.390 . S
C177 H181 0.950 . S
H178 C174 0.950 . S
C179 C177 1.390 . S
C179 C180 1.387 . S
C179 H182 0.950 . S
C180 C179 1.387 . S
C180 C183 1.387 . S
H181 C177 0.950 . S
H182 C179 0.950 . S
C183 C174 1.390 . S
C183 H176 0.950 . S
C183 C180 1.387 . S
C184 C185 1.387 . S
C184 H188 0.950 . S
C184 C193 1.390 . S
C185 C184 1.387 . S
C185 C187 1.387 . S
H186 C193 0.950 . S
C187 C185 1.387 . S
C187 C189 1.390 . S
C187 H191 0.950 . S
H188 C184 0.950 . S
C189 C187 1.390 . S
C189 C190 1.387 . S
C189 H192 0.950 1_655 S
C190 C189 1.387 . S
C190 C193 1.387 . S
H191 C187 0.950 . S
H192 C189 0.950 1_455 S
C193 C184 1.390 . S
C193 H186 0.950 . S
C193 C190 1.387 . S
C194 C195 1.387 . S
C194 H198 0.950 . S
C194 C203 1.390 . S
C195 C194 1.387 . S
C195 C197 1.387 . S
H196 C203 0.950 . S
C197 C195 1.387 . S
C197 C199 1.390 . S
C197 H201 0.950 . S
H198 C194 0.950 . S
C199 C197 1.390 . S
C199 C200 1.387 . S
C199 H202 0.950 . S
C200 C199 1.387 . S
C200 C203 1.387 . S
H201 C197 0.950 . S
H202 C199 0.950 . S
C203 C194 1.390 . S
C203 H196 0.950 . S
C203 C200 1.387 . S
C204 C205 1.387 . S
C204 H208 0.950 . S
C204 C213 1.391 . S
C205 C204 1.387 . S
C205 C207 1.387 1_554 S
H206 C213 0.952 . S
C207 C205 1.387 1_556 S
C207 C209 1.391 . S
C207 H211 0.952 . S
H208 C204 0.950 . S
C209 C207 1.391 . S
C209 C210 1.387 . S
C209 H212 0.950 . S
C210 C209 1.387 . S
C210 C213 1.387 1_556 S
H211 C207 0.952 . S
H212 C209 0.950 . S
C213 C204 1.391 . S
C213 H206 0.952 . S
C213 C210 1.387 1_554 S
C214 C215 1.387 . S
C214 H218 0.950 . S
C214 C223 1.390 1_566 S
C215 C214 1.387 . S
C215 C217 1.387 . S
H216 C223 0.950 . S
C217 C215 1.387 . S
C217 C219 1.390 1_566 S
C217 H221 0.950 . S
H218 C214 0.950 . S
C219 C217 1.390 1_544 S
C219 C220 1.387 . S
C219 H222 0.950 . S
C220 C219 1.387 . S
C220 C223 1.387 . S
H221 C217 0.950 . S
H222 C219 0.950 . S
C223 C214 1.390 1_544 S
C223 H216 0.950 . S
C223 C220 1.387 . S
C224 C225 1.387 . S
C224 H228 0.950 . S
C224 C233 1.390 1_556 S
C225 C224 1.387 . S
C225 C227 1.387 1_455 S
H226 C233 0.950 . S
C227 C225 1.387 1_655 S
C227 C229 1.390 1_556 S
C227 H231 0.950 . S
H228 C224 0.950 . S
C229 C227 1.390 1_554 S
C229 C230 1.387 . S
C229 H232 0.950 . S
C230 C229 1.387 . S
C230 C233 1.387 1_655 S
H231 C227 0.950 . S
H232 C229 0.950 . S
C233 C224 1.390 1_554 S
C233 H226 0.950 . S
C233 C230 1.387 1_455 S
C115 C27 1.497 . S
C120 C6 1.495 . S
C125 C44 1.496 . S
C130 C65 1.496 . S
C135 C82 1.501 . S
C140 C103 1.501 . S
C145 C105 2.224 . S
C150 C8 2.224 . S
C155 C94 1.503 . S
C160 C14 1.501 . S
C165 C77 1.786 . S
C170 C30 1.785 . S
C175 C46 2.222 . S
C180 C29 2.222 . S
C185 C52 1.506 . S
C190 C18 1.508 . S
C195 C68 1.785 . S
C200 C1 1.786 . S
C205 C67 2.221 . S
C210 C84 2.221 . S
C215 C90 1.503 . S
C220 C56 1.503 . S
C225 C106 1.785 . S
C230 C39 1.785 . S
