# Generated by pormake.
# Topology crb, (4)-cn, num edge types: 1
# Building blocks:
#     Node 0, Type 0, BuildingBlock: QUQFOY_clean_sbu_1, # of connection points: 4
#     Node 1, Type 0, BuildingBlock: QUQFOY_clean_sbu_1, # of connection points: 4
#     Node 2, Type 0, BuildingBlock: QUQFOY_clean_sbu_1, # of connection points: 4
#     Node 3, Type 0, BuildingBlock: QUQFOY_clean_sbu_1, # of connection points: 4
#     Node 4, Type 0, BuildingBlock: QUQFOY_clean_sbu_1, # of connection points: 4
#     Node 5, Type 0, BuildingBlock: QUQFOY_clean_sbu_1, # of connection points: 4
#     Node 6, Type 0, BuildingBlock: QUQFOY_clean_sbu_1, # of connection points: 4
#     Node 7, Type 0, BuildingBlock: QUQFOY_clean_sbu_1, # of connection points: 4
#     Edge 8, Type (0, 0), BuildingBlock: EYOCIG_clean_linker_4, # of connection points: 2
#     Edge 9, Type (0, 0), BuildingBlock: EYOCIG_clean_linker_4, # of connection points: 2
#     Edge 10, Type (0, 0), BuildingBlock: EYOCIG_clean_linker_4, # of connection points: 2
#     Edge 11, Type (0, 0), BuildingBlock: EYOCIG_clean_linker_4, # of connection points: 2
#     Edge 12, Type (0, 0), BuildingBlock: EYOCIG_clean_linker_4, # of connection points: 2
#     Edge 13, Type (0, 0), BuildingBlock: EYOCIG_clean_linker_4, # of connection points: 2
#     Edge 14, Type (0, 0), BuildingBlock: EYOCIG_clean_linker_4, # of connection points: 2
#     Edge 15, Type (0, 0), BuildingBlock: EYOCIG_clean_linker_4, # of connection points: 2
#     Edge 16, Type (0, 0), BuildingBlock: EYOCIG_clean_linker_4, # of connection points: 2
#     Edge 17, Type (0, 0), BuildingBlock: EYOCIG_clean_linker_4, # of connection points: 2
#     Edge 18, Type (0, 0), BuildingBlock: EYOCIG_clean_linker_4, # of connection points: 2
#     Edge 19, Type (0, 0), BuildingBlock: EYOCIG_clean_linker_4, # of connection points: 2
#     Edge 20, Type (0, 0), BuildingBlock: EYOCIG_clean_linker_4, # of connection points: 2
#     Edge 21, Type (0, 0), BuildingBlock: EYOCIG_clean_linker_4, # of connection points: 2
#     Edge 22, Type (0, 0), BuildingBlock: EYOCIG_clean_linker_4, # of connection points: 2
#     Edge 23, Type (0, 0), BuildingBlock: EYOCIG_clean_linker_4, # of connection points: 2
# Relax obj value: 0.151
# Max RMSD: 0.214
# Mean RMSD: 0.214
data_MOF--net-crb--node1-QUQFOY_clean_sbu_1--edge1-EYOCIG_clean_linker_4
_symmetry_space_group_name_H-M    P1
_symmetry_Int_Tables_number       1
_symmetry_cell_setting            triclinic
loop_
_symmetry_equiv_pos_as_xyz
'x, y, z'
_cell_length_a     33.560254
_cell_length_b     39.609759
_cell_length_c     19.211563
_cell_angle_alpha  90.014492
_cell_angle_beta   90.033307
_cell_angle_gamma 90.034892
loop_
_atom_site_label
_atom_site_type_symbol
_atom_site_fract_x
_atom_site_fract_y
_atom_site_fract_z
_atom_type_partial_charge
O0 O 0.27413 0.3064 0.06002 0.0
Cd1 Cd 0.29814 0.3315 0.14446 0.0
Cd2 Cd 0.2917 0.38447 0.051 0.0
O3 O 0.2592 0.35015 -0.00649 0.0
O4 O 0.29446 0.29667 0.21868 0.0
O5 O 0.26171 0.34516 0.22355 0.0
C6 C 0.26962 0.31602 0.25025 0.0
C7 C 0.26998 0.43961 0.06476 0.0
C8 C 0.25849 0.31864 0.00548 0.0
C9 C 0.37391 0.3623 0.09458 0.0
O10 O 0.35285 0.37905 0.05202 0.0
O11 O 0.35799 0.34347 0.14022 0.0
O12 O 0.28372 0.42918 0.00606 0.0
O13 O 0.2668 0.41843 0.11552 0.0
O14 O 0.6715 0.30609 0.09581 0.0
Cd15 Cd 0.64816 0.33124 0.01092 0.0
Cd16 Cd 0.65424 0.38416 0.1045 0.0
O17 O 0.68645 0.34984 0.16239 0.0
O18 O 0.65225 0.29644 0.93666 0.0
O19 O 0.68523 0.34486 0.9327 0.0
C20 C 0.67741 0.31575 0.90574 0.0
C21 C 0.676 0.43933 0.091 0.0
C22 C 0.687 0.31832 0.15051 0.0
C23 C 0.57222 0.36208 0.05956 0.0
O24 O 0.59311 0.3787 0.10265 0.0
O25 O 0.58833 0.34334 0.01397 0.0
O26 O 0.66204 0.42889 0.14955 0.0
O27 O 0.6794 0.41812 0.0403 0.0
O28 O 0.67283 0.73877 0.05984 0.0
Cd29 Cd 0.64897 0.71383 0.14452 0.0
Cd30 Cd 0.65454 0.66081 0.05087 0.0
O31 O 0.68698 0.69496 -0.00705 0.0
O32 O 0.65321 0.74869 0.21862 0.0
O33 O 0.68557 0.70002 0.22331 0.0
C34 C 0.67798 0.72921 0.25002 0.0
C35 C 0.67599 0.60557 0.06433 0.0
C36 C 0.68805 0.72646 0.00503 0.0
C37 C 0.57272 0.68348 0.09552 0.0
O38 O 0.59346 0.66657 0.05276 0.0
O39 O 0.58899 0.70225 0.14093 0.0
O40 O 0.66198 0.61604 0.00583 0.0
O41 O 0.67956 0.62676 0.11504 0.0
O42 O 0.27469 0.73895 0.09611 0.0
Cd43 Cd 0.29834 0.71389 0.01145 0.0
Cd44 Cd 0.29239 0.66094 0.10485 0.0
O45 O 0.26018 0.69518 0.16286 0.0
O46 O 0.2942 0.74868 0.93726 0.0
O47 O 0.26159 0.70007 0.93282 0.0
C48 C 0.26929 0.72923 0.90601 0.0
C49 C 0.27054 0.6058 0.09128 0.0
C50 C 0.25937 0.72669 0.15088 0.0
C51 C 0.37439 0.68337 0.06048 0.0
O52 O 0.35353 0.6665 0.10313 0.0
O53 O 0.35825 0.70218 0.01504 0.0
O54 O 0.28462 0.6162 0.1498 0.0
O55 O 0.26714 0.627 0.0406 0.0
O56 O 0.77527 0.80615 0.55995 0.0
Cd57 Cd 0.79892 0.83126 0.64467 0.0
Cd58 Cd 0.79251 0.88424 0.55136 0.0
O59 O 0.76021 0.84991 0.49354 0.0
O60 O 0.79512 0.79637 0.71875 0.0
O61 O 0.7622 0.84478 0.72343 0.0
C62 C 0.77012 0.81564 0.75011 0.0
C63 C 0.77069 0.93934 0.5654 0.0
C64 C 0.75967 0.81838 0.50538 0.0
C65 C 0.87468 0.86217 0.5953 0.0
O66 O 0.85365 0.87887 0.5526 0.0
O67 O 0.85874 0.84335 0.64092 0.0
O68 O 0.78452 0.92901 0.50668 0.0
O69 O 0.76747 0.91807 0.616 0.0
O70 O 0.17234 0.80637 0.59617 0.0
Cd71 Cd 0.14888 0.83152 0.51142 0.0
Cd72 Cd 0.15496 0.88445 0.6053 0.0
O73 O 0.18705 0.85004 0.66315 0.0
O74 O 0.15279 0.79664 0.43731 0.0
O75 O 0.18574 0.84507 0.43286 0.0
C76 C 0.17784 0.81594 0.40608 0.0
C77 C 0.1768 0.93963 0.59226 0.0
C78 C 0.1877 0.81854 0.65103 0.0
C79 C 0.07295 0.8623 0.56021 0.0
O80 O 0.09382 0.879 0.60319 0.0
O81 O 0.08905 0.84351 0.51471 0.0
O82 O 0.16271 0.92912 0.65066 0.0
O83 O 0.18025 0.9185 0.54144 0.0
O84 O 0.17222 0.23902 0.55981 0.0
Cd85 Cd 0.14824 0.21391 0.64416 0.0
Cd86 Cd 0.15499 0.16091 0.55087 0.0
O87 O 0.18749 0.19526 0.49354 0.0
O88 O 0.15176 0.24877 0.71841 0.0
O89 O 0.18466 0.20036 0.72339 0.0
C90 C 0.17665 0.22948 0.75005 0.0
C91 C 0.17684 0.10583 0.5652 0.0
C92 C 0.18801 0.22679 0.50543 0.0
C93 C 0.07264 0.18295 0.59376 0.0
O94 O 0.09382 0.16623 0.55134 0.0
O95 O 0.08844 0.2018 0.63956 0.0
O96 O 0.16322 0.11613 0.50629 0.0
O97 O 0.17983 0.12711 0.61584 0.0
O98 O 0.77465 0.23882 0.59593 0.0
Cd99 Cd 0.79807 0.21377 0.51098 0.0
Cd100 Cd 0.7925 0.16075 0.60492 0.0
O101 O 0.76052 0.19509 0.66308 0.0
O102 O 0.79384 0.24861 0.43686 0.0
O103 O 0.7611 0.20008 0.43257 0.0
C104 C 0.76882 0.22922 0.40572 0.0
C105 C 0.7707 0.10555 0.59206 0.0
C106 C 0.75957 0.22658 0.65095 0.0
C107 C 0.87429 0.18304 0.55908 0.0
O108 O 0.85362 0.16626 0.60216 0.0
O109 O 0.85797 0.20188 0.51389 0.0
O110 O 0.785 0.11607 0.65032 0.0
O111 O 0.76702 0.12667 0.54129 0.0
C112 C 0.25684 0.50493 0.07717 0.0
C113 C 0.26226 0.47489 0.07459 0.0
C114 C 0.25697 0.54053 0.07904 0.0
C115 C 0.26257 0.57055 0.08156 0.0
C116 C 0.45218 0.36424 0.08123 0.0
C117 C 0.41648 0.36314 0.08787 0.0
C118 C 0.49391 0.36417 0.07198 0.0
C119 C 0.52962 0.36296 0.06565 0.0
C120 C 0.68915 0.50465 0.0786 0.0
C121 C 0.68373 0.47461 0.08123 0.0
C122 C 0.68913 0.54025 0.07662 0.0
C123 C 0.68371 0.57029 0.07401 0.0
C124 C 0.45268 0.68171 0.0735 0.0
C125 C 0.41698 0.68272 0.06693 0.0
C126 C 0.49441 0.68177 0.08283 0.0
C127 C 0.53012 0.68283 0.08932 0.0
C128 C 0.7574 1.00461 0.5782 0.0
C129 C 0.76288 0.97458 0.57544 0.0
C130 C 0.7574 0.04022 0.58017 0.0
C131 C 0.76288 0.07026 0.58261 0.0
C132 C -0.00534 0.86422 0.5728 0.0
C133 C 0.03036 0.86309 0.56641 0.0
C134 C 0.95294 0.8642 0.58209 0.0
C135 C 0.91725 0.86304 0.5887 0.0
C136 C 0.19013 0.04056 0.57819 0.0
C137 C 0.18463 0.07058 0.57534 0.0
C138 C 0.19012 1.00495 0.58023 0.0
C139 C 0.18462 0.97492 0.58275 0.0
C140 C 0.95265 0.18102 0.5708 0.0
C141 C 0.91692 0.18223 0.56474 0.0
C142 C -0.00561 0.18095 0.57996 0.0
C143 C 0.03008 0.18205 0.58673 0.0
C144 C 0.21934 0.26842 0.41308 0.0
C145 C 0.20506 0.24935 0.45515 0.0
C146 C 0.23541 0.28924 0.36044 0.0
C147 C 0.24942 0.30374 0.311 0.0
C148 C 0.71799 0.2767 0.24323 0.0
C149 C 0.70386 0.29577 0.201 0.0
C150 C 0.7341 0.25589 0.29588 0.0
C151 C 0.74832 0.24143 0.34519 0.0
C152 C 0.72861 0.77673 0.41271 0.0
C153 C 0.74277 0.79582 0.45491 0.0
C154 C 0.71254 0.75589 0.36005 0.0
C155 C 0.69839 0.7414 0.31069 0.0
C156 C 0.21231 0.78909 0.29624 0.0
C157 C 0.1982 0.80362 0.34555 0.0
C158 C 0.22834 0.76826 0.24361 0.0
C159 C 0.24248 0.7492 0.20138 0.0
C160 C 0.21861 0.77681 0.74359 0.0
C161 C 0.20452 0.79593 0.70143 0.0
C162 C 0.23466 0.75593 0.79615 0.0
C163 C 0.24883 0.74142 0.84544 0.0
C164 C 0.227 0.27709 0.91303 0.0
C165 C 0.24136 0.29611 0.95517 0.0
C166 C 0.21086 0.25632 0.86031 0.0
C167 C 0.19683 0.24184 0.81082 0.0
C168 C 0.71231 0.28898 0.7962 0.0
C169 C 0.698 0.30347 0.84539 0.0
C170 C 0.72851 0.26816 0.74366 0.0
C171 C 0.74267 0.24911 0.70143 0.0
C172 C 0.71945 0.76793 0.91247 0.0
C173 C 0.70514 0.74891 0.95461 0.0
C174 C 0.73562 0.78875 0.85992 0.0
C175 C 0.74977 0.80328 0.81063 0.0
loop_
_geom_bond_atom_site_label_1
_geom_bond_atom_site_label_2
_geom_bond_distance
_geom_bond_site_symmetry_2
_ccdc_geom_bond_type
O0 Cd1 2.223 . S
O0 C8 1.315 . S
Cd1 O0 2.223 . S
Cd1 O4 2.297 . S
Cd1 O5 2.439 . S
Cd1 O11 2.240 . S
Cd2 O3 2.240 . S
Cd2 O10 2.223 . S
Cd2 O12 2.297 . S
Cd2 O13 2.439 . S
O3 Cd2 2.240 . S
O3 C8 1.279 . S
O4 Cd1 2.297 . S
O4 C6 1.247 . S
O5 Cd1 2.439 . S
O5 C6 1.208 . S
C6 O4 1.247 . S
C6 O5 1.208 . S
C7 O12 1.247 . S
C7 O13 1.208 . S
C8 O0 1.315 . S
C8 O3 1.279 . S
C9 O10 1.315 . S
C9 O11 1.279 . S
O10 Cd2 2.223 . S
O10 C9 1.315 . S
O11 Cd1 2.240 . S
O11 C9 1.279 . S
O12 Cd2 2.297 . S
O12 C7 1.247 . S
O13 Cd2 2.439 . S
O13 C7 1.208 . S
O14 Cd15 2.223 1_554 S
O14 C22 1.315 . S
Cd15 O14 2.223 1_556 S
Cd15 O18 2.297 . S
Cd15 O19 2.439 . S
Cd15 O25 2.240 1_556 S
Cd16 O17 2.240 . S
Cd16 O24 2.223 . S
Cd16 O26 2.297 . S
Cd16 O27 2.439 . S
O17 Cd16 2.240 . S
O17 C22 1.279 . S
O18 Cd15 2.297 . S
O18 C20 1.247 . S
O19 Cd15 2.439 . S
O19 C20 1.208 . S
C20 O18 1.247 . S
C20 O19 1.208 . S
C21 O26 1.247 . S
C21 O27 1.208 . S
C22 O14 1.315 . S
C22 O17 1.279 . S
C23 O24 1.315 . S
C23 O25 1.279 . S
O24 Cd16 2.223 . S
O24 C23 1.315 . S
O25 Cd15 2.240 1_554 S
O25 C23 1.279 . S
O26 Cd16 2.297 . S
O26 C21 1.247 . S
O27 Cd16 2.439 . S
O27 C21 1.208 . S
O28 Cd29 2.223 . S
O28 C36 1.315 . S
Cd29 O28 2.223 . S
Cd29 O32 2.297 . S
Cd29 O33 2.439 . S
Cd29 O39 2.240 . S
Cd30 O31 2.240 . S
Cd30 O38 2.223 . S
Cd30 O40 2.297 . S
Cd30 O41 2.439 . S
O31 Cd30 2.240 . S
O31 C36 1.279 . S
O32 Cd29 2.297 . S
O32 C34 1.247 . S
O33 Cd29 2.439 . S
O33 C34 1.208 . S
C34 O32 1.247 . S
C34 O33 1.208 . S
C35 O40 1.247 . S
C35 O41 1.208 . S
C36 O28 1.315 . S
C36 O31 1.279 . S
C37 O38 1.315 . S
C37 O39 1.279 . S
O38 Cd30 2.223 . S
O38 C37 1.315 . S
O39 Cd29 2.240 . S
O39 C37 1.279 . S
O40 Cd30 2.297 . S
O40 C35 1.247 . S
O41 Cd30 2.439 . S
O41 C35 1.208 . S
O42 Cd43 2.223 1_554 S
O42 C50 1.315 . S
Cd43 O42 2.223 1_556 S
Cd43 O46 2.297 . S
Cd43 O47 2.439 . S
Cd43 O53 2.240 1_556 S
Cd44 O45 2.240 . S
Cd44 O52 2.223 . S
Cd44 O54 2.297 . S
Cd44 O55 2.439 . S
O45 Cd44 2.240 . S
O45 C50 1.279 . S
O46 Cd43 2.297 . S
O46 C48 1.247 . S
O47 Cd43 2.439 . S
O47 C48 1.208 . S
C48 O46 1.247 . S
C48 O47 1.208 . S
C49 O54 1.247 . S
C49 O55 1.208 . S
C50 O42 1.315 . S
C50 O45 1.279 . S
C51 O52 1.315 . S
C51 O53 1.279 . S
O52 Cd44 2.223 . S
O52 C51 1.315 . S
O53 Cd43 2.240 1_554 S
O53 C51 1.279 . S
O54 Cd44 2.297 . S
O54 C49 1.247 . S
O55 Cd44 2.439 . S
O55 C49 1.208 . S
O56 Cd57 2.223 . S
O56 C64 1.315 . S
Cd57 O56 2.223 . S
Cd57 O60 2.297 . S
Cd57 O61 2.439 . S
Cd57 O67 2.240 . S
Cd58 O59 2.240 . S
Cd58 O66 2.223 . S
Cd58 O68 2.297 . S
Cd58 O69 2.439 . S
O59 Cd58 2.240 . S
O59 C64 1.279 . S
O60 Cd57 2.297 . S
O60 C62 1.247 . S
O61 Cd57 2.439 . S
O61 C62 1.208 . S
C62 O60 1.247 . S
C62 O61 1.208 . S
C63 O68 1.247 . S
C63 O69 1.208 . S
C64 O56 1.315 . S
C64 O59 1.279 . S
C65 O66 1.315 . S
C65 O67 1.279 . S
O66 Cd58 2.223 . S
O66 C65 1.315 . S
O67 Cd57 2.240 . S
O67 C65 1.279 . S
O68 Cd58 2.297 . S
O68 C63 1.247 . S
O69 Cd58 2.439 . S
O69 C63 1.208 . S
O70 Cd71 2.223 . S
O70 C78 1.315 . S
Cd71 O70 2.223 . S
Cd71 O74 2.297 . S
Cd71 O75 2.439 . S
Cd71 O81 2.240 . S
Cd72 O73 2.240 . S
Cd72 O80 2.223 . S
Cd72 O82 2.297 . S
Cd72 O83 2.439 . S
O73 Cd72 2.240 . S
O73 C78 1.279 . S
O74 Cd71 2.297 . S
O74 C76 1.247 . S
O75 Cd71 2.439 . S
O75 C76 1.208 . S
C76 O74 1.247 . S
C76 O75 1.208 . S
C77 O82 1.247 . S
C77 O83 1.208 . S
C78 O70 1.315 . S
C78 O73 1.279 . S
C79 O80 1.315 . S
C79 O81 1.279 . S
O80 Cd72 2.223 . S
O80 C79 1.315 . S
O81 Cd71 2.240 . S
O81 C79 1.279 . S
O82 Cd72 2.297 . S
O82 C77 1.247 . S
O83 Cd72 2.439 . S
O83 C77 1.208 . S
O84 Cd85 2.223 . S
O84 C92 1.315 . S
Cd85 O84 2.223 . S
Cd85 O88 2.297 . S
Cd85 O89 2.439 . S
Cd85 O95 2.240 . S
Cd86 O87 2.240 . S
Cd86 O94 2.223 . S
Cd86 O96 2.297 . S
Cd86 O97 2.439 . S
O87 Cd86 2.240 . S
O87 C92 1.279 . S
O88 Cd85 2.297 . S
O88 C90 1.247 . S
O89 Cd85 2.439 . S
O89 C90 1.208 . S
C90 O88 1.247 . S
C90 O89 1.208 . S
C91 O96 1.247 . S
C91 O97 1.208 . S
C92 O84 1.315 . S
C92 O87 1.279 . S
C93 O94 1.315 . S
C93 O95 1.279 . S
O94 Cd86 2.223 . S
O94 C93 1.315 . S
O95 Cd85 2.240 . S
O95 C93 1.279 . S
O96 Cd86 2.297 . S
O96 C91 1.247 . S
O97 Cd86 2.439 . S
O97 C91 1.208 . S
O98 Cd99 2.223 . S
O98 C106 1.315 . S
Cd99 O98 2.223 . S
Cd99 O102 2.297 . S
Cd99 O103 2.439 . S
Cd99 O109 2.240 . S
Cd100 O101 2.240 . S
Cd100 O108 2.223 . S
Cd100 O110 2.297 . S
Cd100 O111 2.439 . S
O101 Cd100 2.240 . S
O101 C106 1.279 . S
O102 Cd99 2.297 . S
O102 C104 1.247 . S
O103 Cd99 2.439 . S
O103 C104 1.208 . S
C104 O102 1.247 . S
C104 O103 1.208 . S
C105 O110 1.247 . S
C105 O111 1.208 . S
C106 O98 1.315 . S
C106 O101 1.279 . S
C107 O108 1.315 . S
C107 O109 1.279 . S
O108 Cd100 2.223 . S
O108 C107 1.315 . S
O109 Cd99 2.240 . S
O109 C107 1.279 . S
O110 Cd100 2.297 . S
O110 C105 1.247 . S
O111 Cd100 2.439 . S
O111 C105 1.208 . S
C112 C113 1.170 . S
C112 C114 1.380 . S
C113 C112 1.170 . S
C114 C112 1.380 . S
C114 C115 1.170 . S
C115 C114 1.170 . S
C116 C117 1.170 . S
C116 C118 1.380 . S
C117 C116 1.170 . S
C118 C116 1.380 . S
C118 C119 1.170 . S
C119 C118 1.170 . S
C120 C121 1.170 . S
C120 C122 1.380 . S
C121 C120 1.170 . S
C122 C120 1.380 . S
C122 C123 1.170 . S
C123 C122 1.170 . S
C124 C125 1.170 . S
C124 C126 1.380 . S
C125 C124 1.170 . S
C126 C124 1.380 . S
C126 C127 1.170 . S
C127 C126 1.170 . S
C128 C129 1.170 . S
C128 C130 1.380 1_565 S
C129 C128 1.170 . S
C130 C128 1.380 1_545 S
C130 C131 1.170 . S
C131 C130 1.170 . S
C132 C133 1.170 . S
C132 C134 1.380 1_455 S
C133 C132 1.170 . S
C134 C132 1.380 1_655 S
C134 C135 1.170 . S
C135 C134 1.170 . S
C136 C137 1.170 . S
C136 C138 1.380 1_545 S
C137 C136 1.170 . S
C138 C136 1.380 1_565 S
C138 C139 1.170 . S
C139 C138 1.170 . S
C140 C141 1.170 . S
C140 C142 1.380 1_655 S
C141 C140 1.170 . S
C142 C140 1.380 1_455 S
C142 C143 1.170 . S
C143 C142 1.170 . S
C144 C145 1.170 . S
C144 C146 1.380 . S
C145 C144 1.170 . S
C146 C144 1.380 . S
C146 C147 1.170 . S
C147 C146 1.170 . S
C148 C149 1.170 . S
C148 C150 1.380 . S
C149 C148 1.170 . S
C150 C148 1.380 . S
C150 C151 1.170 . S
C151 C150 1.170 . S
C152 C153 1.170 . S
C152 C154 1.380 . S
C153 C152 1.170 . S
C154 C152 1.380 . S
C154 C155 1.170 . S
C155 C154 1.170 . S
C156 C157 1.170 . S
C156 C158 1.380 . S
C157 C156 1.170 . S
C158 C156 1.380 . S
C158 C159 1.170 . S
C159 C158 1.170 . S
C160 C161 1.170 . S
C160 C162 1.380 . S
C161 C160 1.170 . S
C162 C160 1.380 . S
C162 C163 1.170 . S
C163 C162 1.170 . S
C164 C165 1.170 . S
C164 C166 1.380 . S
C165 C164 1.170 . S
C166 C164 1.380 . S
C166 C167 1.170 . S
C167 C166 1.170 . S
C168 C169 1.170 . S
C168 C170 1.380 . S
C169 C168 1.170 . S
C170 C168 1.380 . S
C170 C171 1.170 . S
C171 C170 1.170 . S
C172 C173 1.170 . S
C172 C174 1.380 . S
C173 C172 1.170 . S
C174 C172 1.380 . S
C174 C175 1.170 . S
C175 C174 1.170 . S
C113 C7 1.526 . S
C115 C49 1.508 . S
C117 C9 1.614 . S
C119 C23 1.614 . S
C121 C21 1.504 . S
C123 C35 1.495 . S
C125 C51 1.637 . S
C127 C37 1.631 . S
C129 C63 1.534 . S
C131 C105 1.482 . S
C133 C79 1.638 . S
C135 C65 1.638 . S
C137 C91 1.536 . S
C139 C77 1.491 . S
C141 C107 1.616 . S
C143 C93 1.623 . S
C145 C92 1.547 . S
C147 C6 1.504 . S
C149 C22 1.547 . S
C151 C104 1.505 . S
C153 C64 1.549 . S
C155 C34 1.504 . S
C157 C76 1.466 . S
C159 C50 1.563 . S
C161 C78 1.549 . S
C163 C48 1.504 . S
C165 C8 1.559 1_556 S
C167 C90 1.461 . S
C169 C20 1.474 . S
C171 C106 1.562 . S
C173 C36 1.559 1_556 S
C175 C62 1.460 . S
