# Generated by pormake.
# Topology umf, (4)-cn, num edge types: 1
# Building blocks:
#     Node 0, Type 0, BuildingBlock: QUQFOY_clean_sbu_3, # of connection points: 4
#     Node 1, Type 0, BuildingBlock: QUQFOY_clean_sbu_3, # of connection points: 4
#     Node 2, Type 0, BuildingBlock: QUQFOY_clean_sbu_3, # of connection points: 4
#     Node 3, Type 0, BuildingBlock: QUQFOY_clean_sbu_3, # of connection points: 4
#     Node 4, Type 0, BuildingBlock: QUQFOY_clean_sbu_3, # of connection points: 4
#     Node 5, Type 0, BuildingBlock: QUQFOY_clean_sbu_3, # of connection points: 4
#     Node 6, Type 0, BuildingBlock: QUQFOY_clean_sbu_3, # of connection points: 4
#     Node 7, Type 0, BuildingBlock: QUQFOY_clean_sbu_3, # of connection points: 4
#     Edge 8, Type (0, 0), None
#     Edge 9, Type (0, 0), None
#     Edge 10, Type (0, 0), None
#     Edge 11, Type (0, 0), None
#     Edge 12, Type (0, 0), None
#     Edge 13, Type (0, 0), None
#     Edge 14, Type (0, 0), None
#     Edge 15, Type (0, 0), None
#     Edge 16, Type (0, 0), None
#     Edge 17, Type (0, 0), None
#     Edge 18, Type (0, 0), None
#     Edge 19, Type (0, 0), None
#     Edge 20, Type (0, 0), None
#     Edge 21, Type (0, 0), None
#     Edge 22, Type (0, 0), None
#     Edge 23, Type (0, 0), None
# Relax obj value: 0.164
# Max RMSD: 0.289
# Mean RMSD: 0.289
data_MOF--net-umf--node1-QUQFOY_clean_sbu_3--edge1-none
_symmetry_space_group_name_H-M    P1
_symmetry_Int_Tables_number       1
_symmetry_cell_setting            triclinic
loop_
_symmetry_equiv_pos_as_xyz
'x, y, z'
_cell_length_a     14.439848
_cell_length_b     14.439681
_cell_length_c     26.584331
_cell_angle_alpha  89.903579
_cell_angle_beta   89.933752
_cell_angle_gamma 90.014474
loop_
_atom_site_label
_atom_site_type_symbol
_atom_site_fract_x
_atom_site_fract_y
_atom_site_fract_z
_atom_type_partial_charge
C0 C 0.13694 0.17357 0.16842 0.0
O1 O 0.18232 0.22559 0.13869 0.0
Cd2 Cd 0.0667 0.19137 0.07214 0.0
O3 O 0.05711 0.14676 0.15517 0.0
Cd4 Cd -0.0151 0.21567 0.07668 0.0
C5 C -0.0335 0.00113 0.08558 0.0
O6 O 0.04384 0.22121 -0.01359 0.0
O7 O 0.89488 0.21079 0.00065 0.0
O8 O 0.04042 0.36927 0.09708 0.0
C9 C -0.03902 0.21813 -0.03077 0.0
O10 O 0.04968 0.02332 0.07653 0.0
C11 C -0.03983 0.40217 0.10532 0.0
O12 O 0.90714 0.0656 0.09081 0.0
O13 O 0.89155 0.34635 0.10401 0.0
C14 C 0.72982 0.13873 0.6681 0.0
O15 O 0.67785 0.18438 0.63855 0.0
Cd16 Cd 0.71588 0.07225 0.57092 0.0
O17 O 0.75758 0.05949 0.65439 0.0
Cd18 Cd 0.69004 -0.01245 0.57588 0.0
C19 C 0.90566 -0.02833 0.58532 0.0
O20 O 0.68417 0.04525 0.48559 0.0
O21 O 0.6949 0.89638 0.50034 0.0
O22 O 0.53663 0.04315 0.59638 0.0
C23 C 0.68723 -0.03783 0.46874 0.0
O24 O 0.8837 0.05486 0.57613 0.0
C25 C 0.50378 -0.03702 0.60506 0.0
O26 O 0.84113 0.9122 0.59026 0.0
O27 O 0.55957 0.89433 0.60383 0.0
C28 C 0.76847 0.72973 0.1682 0.0
O29 O 0.72331 0.67781 0.13847 0.0
Cd30 Cd 0.8389 0.71334 0.07193 0.0
O31 O 0.84818 0.75705 0.15488 0.0
Cd32 Cd 0.92071 0.68904 0.07623 0.0
C33 C 0.93906 0.90349 0.08546 0.0
O34 O 0.8605 0.68345 -0.01372 0.0
O35 O 0.00965 0.69415 -0.00046 0.0
O36 O 0.86564 0.53541 0.09721 0.0
C37 C 0.94303 0.68658 -0.03142 0.0
O38 O 0.85586 0.88141 0.07653 0.0
C39 C 0.94599 0.50258 0.10518 0.0
O40 O -0.00154 0.83897 0.09039 0.0
O41 O 0.01457 0.55844 0.10339 0.0
C42 C 0.17365 0.7703 0.6685 0.0
O43 O 0.22567 0.72542 0.63865 0.0
Cd44 Cd 0.19353 0.84376 0.573 0.0
O45 O 0.14721 0.85049 0.65556 0.0
Cd46 Cd 0.21665 0.9233 0.57697 0.0
C47 C 0.00326 0.94415 0.58568 0.0
O48 O 0.22194 0.86194 0.48707 0.0
O49 O 0.21148 0.01116 0.49984 0.0
O50 O 0.37044 0.86835 0.59784 0.0
C51 C 0.21877 0.94424 0.46906 0.0
O52 O 0.02534 0.86092 0.5769 0.0
C53 C 0.40336 0.94879 0.60538 0.0
O54 O 0.06785 0.00338 0.59089 0.0
O55 O 0.34753 0.01732 0.60352 0.0
C56 C 0.13546 0.73197 0.71504 0.0
O57 O 0.18051 0.6801 0.74492 0.0
Cd58 Cd 0.06191 0.71156 0.81048 0.0
O59 O 0.05513 0.75804 0.72791 0.0
Cd60 Cd -0.01763 0.68831 0.80642 0.0
C61 C -0.03911 0.90164 0.79785 0.0
O62 O 0.04351 0.68317 0.89642 0.0
O63 O 0.89436 0.6936 0.88337 0.0
O64 O 0.03712 0.53434 0.78574 0.0
C65 C -0.03889 0.68637 0.91428 0.0
O66 O 0.04417 0.87972 0.80666 0.0
C67 C -0.04335 0.50151 0.77817 0.0
O68 O 0.90184 0.83692 0.79253 0.0
O69 O 0.88823 0.55749 0.77989 0.0
C70 C 0.17442 0.1357 0.21519 0.0
O71 O 0.2262 0.18077 0.24502 0.0
Cd72 Cd 0.19332 0.06287 0.31084 0.0
O73 O 0.14791 0.05554 0.2282 0.0
Cd74 Cd 0.21681 -0.01722 0.30682 0.0
C75 C 0.00324 -0.03802 0.29797 0.0
O76 O 0.22197 0.0442 0.3967 0.0
O77 O 0.21138 0.89498 0.38395 0.0
O78 O 0.37078 0.03738 0.28584 0.0
C79 C 0.21874 -0.0381 0.41471 0.0
O80 O 0.02516 0.04526 0.30677 0.0
C81 C 0.40354 -0.04311 0.27827 0.0
O82 O 0.06794 0.90285 0.29286 0.0
O83 O 0.34753 0.88847 0.28019 0.0
C84 C 0.76594 0.17501 0.71548 0.0
O85 O 0.72004 0.22676 0.745 0.0
Cd86 Cd 0.83198 0.18872 0.81273 0.0
O87 O 0.84525 0.14749 0.72925 0.0
Cd88 Cd 0.91709 0.2149 0.80784 0.0
C89 C 0.93315 -0.00082 0.79831 0.0
O90 O 0.85877 0.2209 0.89802 0.0
O91 O 0.00772 0.20996 0.88363 0.0
O92 O 0.86196 0.36842 0.78713 0.0
C93 C 0.94173 0.21782 0.91507 0.0
O94 O 0.84989 0.02093 0.80744 0.0
C95 C 0.94226 0.40111 0.77859 0.0
O96 O -0.0075 0.06386 0.7935 0.0
O97 O 0.01078 0.34518 0.78001 0.0
C98 C 0.73123 0.76626 0.2153 0.0
O99 O 0.67937 0.72038 0.24488 0.0
Cd100 Cd 0.71585 0.83337 0.3123 0.0
O101 O 0.75834 0.84577 0.22892 0.0
Cd102 Cd 0.69017 0.91756 0.30743 0.0
C103 C 0.90566 0.93429 0.2982 0.0
O104 O 0.68418 0.85945 0.39772 0.0
O105 O 0.69497 0.00834 0.38306 0.0
O106 O 0.53662 0.86224 0.28699 0.0
C107 C 0.68726 0.9425 0.41463 0.0
O108 O 0.88374 0.85105 0.30733 0.0
C109 C 0.50393 0.94251 0.27846 0.0
O110 O 0.84107 -0.00639 0.29317 0.0
O111 O 0.55988 0.01106 0.2797 0.0
loop_
_geom_bond_atom_site_label_1
_geom_bond_atom_site_label_2
_geom_bond_distance
_geom_bond_site_symmetry_2
_ccdc_geom_bond_type
C0 O1 1.306 . S
C0 O3 1.160 . S
O1 C0 1.306 . S
O1 Cd2 2.228 . S
Cd2 O1 2.228 . S
Cd2 O6 2.273 . S
Cd2 O10 2.277 . S
O3 C0 1.160 . S
O3 Cd4 2.203 . S
Cd4 O3 2.203 . S
Cd4 O6 2.411 . S
Cd4 O7 2.333 . S
Cd4 O8 2.352 . S
Cd4 O12 2.277 1_455 S
Cd4 O13 2.356 1_455 S
C5 O10 1.209 1_655 S
C5 O12 1.226 . S
O6 Cd2 2.273 . S
O6 Cd4 2.411 . S
O6 C9 1.320 . S
O7 Cd4 2.333 . S
O7 C9 1.214 . S
O8 Cd4 2.352 . S
O8 C11 1.258 . S
C9 O6 1.320 . S
C9 O7 1.214 . S
O10 Cd2 2.277 . S
O10 C5 1.209 1_455 S
C11 O8 1.258 . S
C11 O13 1.282 1_455 S
O12 Cd4 2.277 1_655 S
O12 C5 1.226 . S
O13 Cd4 2.356 1_655 S
O13 C11 1.282 1_655 S
C14 O15 1.306 . S
C14 O17 1.160 . S
O15 C14 1.306 . S
O15 Cd16 2.228 . S
Cd16 O15 2.228 . S
Cd16 O20 2.273 . S
Cd16 O24 2.277 . S
O17 C14 1.160 . S
O17 Cd18 2.203 . S
Cd18 O17 2.203 . S
Cd18 O20 2.411 . S
Cd18 O21 2.333 . S
Cd18 O22 2.352 . S
Cd18 O26 2.277 1_545 S
Cd18 O27 2.356 1_545 S
C19 O24 1.209 1_565 S
C19 O26 1.226 . S
O20 Cd16 2.273 . S
O20 Cd18 2.411 . S
O20 C23 1.320 . S
O21 Cd18 2.333 . S
O21 C23 1.214 . S
O22 Cd18 2.352 . S
O22 C25 1.258 . S
C23 O20 1.320 . S
C23 O21 1.214 . S
O24 Cd16 2.277 . S
O24 C19 1.209 1_545 S
C25 O22 1.258 . S
C25 O27 1.282 1_545 S
O26 Cd18 2.277 1_565 S
O26 C19 1.226 . S
O27 Cd18 2.356 1_565 S
O27 C25 1.282 1_565 S
C28 O29 1.306 . S
C28 O31 1.160 . S
O29 C28 1.306 . S
O29 Cd30 2.228 . S
Cd30 O29 2.228 . S
Cd30 O34 2.273 . S
Cd30 O38 2.277 . S
O31 C28 1.160 . S
O31 Cd32 2.203 . S
Cd32 O31 2.203 . S
Cd32 O34 2.411 . S
Cd32 O35 2.333 . S
Cd32 O36 2.352 . S
Cd32 O40 2.277 1_655 S
Cd32 O41 2.356 1_655 S
C33 O38 1.209 1_455 S
C33 O40 1.226 . S
O34 Cd30 2.273 . S
O34 Cd32 2.411 . S
O34 C37 1.320 . S
O35 Cd32 2.333 . S
O35 C37 1.214 . S
O36 Cd32 2.352 . S
O36 C39 1.258 . S
C37 O34 1.320 . S
C37 O35 1.214 . S
O38 Cd30 2.277 . S
O38 C33 1.209 1_655 S
C39 O36 1.258 . S
C39 O41 1.282 1_655 S
O40 Cd32 2.277 1_455 S
O40 C33 1.226 . S
O41 Cd32 2.356 1_455 S
O41 C39 1.282 1_455 S
C42 O43 1.306 . S
C42 O45 1.160 . S
O43 C42 1.306 . S
O43 Cd44 2.228 . S
Cd44 O43 2.228 . S
Cd44 O48 2.273 . S
Cd44 O52 2.277 . S
O45 C42 1.160 . S
O45 Cd46 2.203 . S
Cd46 O45 2.203 . S
Cd46 O48 2.411 . S
Cd46 O49 2.333 . S
Cd46 O50 2.352 . S
Cd46 O54 2.277 1_565 S
Cd46 O55 2.356 1_565 S
C47 O52 1.209 1_545 S
C47 O54 1.226 . S
O48 Cd44 2.273 . S
O48 Cd46 2.411 . S
O48 C51 1.320 . S
O49 Cd46 2.333 . S
O49 C51 1.214 . S
O50 Cd46 2.352 . S
O50 C53 1.258 . S
C51 O48 1.320 . S
C51 O49 1.214 . S
O52 Cd44 2.277 . S
O52 C47 1.209 1_565 S
C53 O50 1.258 . S
C53 O55 1.282 1_565 S
O54 Cd46 2.277 1_545 S
O54 C47 1.226 . S
O55 Cd46 2.356 1_545 S
O55 C53 1.282 1_545 S
C56 O57 1.306 . S
C56 O59 1.160 . S
O57 C56 1.306 . S
O57 Cd58 2.228 . S
Cd58 O57 2.228 . S
Cd58 O62 2.273 . S
Cd58 O66 2.277 . S
O59 C56 1.160 . S
O59 Cd60 2.203 . S
Cd60 O59 2.203 . S
Cd60 O62 2.411 . S
Cd60 O63 2.333 . S
Cd60 O64 2.352 . S
Cd60 O68 2.277 1_455 S
Cd60 O69 2.356 1_455 S
C61 O66 1.209 1_655 S
C61 O68 1.226 . S
O62 Cd58 2.273 . S
O62 Cd60 2.411 . S
O62 C65 1.320 . S
O63 Cd60 2.333 . S
O63 C65 1.214 . S
O64 Cd60 2.352 . S
O64 C67 1.258 . S
C65 O62 1.320 . S
C65 O63 1.214 . S
O66 Cd58 2.277 . S
O66 C61 1.209 1_455 S
C67 O64 1.258 . S
C67 O69 1.282 1_455 S
O68 Cd60 2.277 1_655 S
O68 C61 1.226 . S
O69 Cd60 2.356 1_655 S
O69 C67 1.282 1_655 S
C70 O71 1.306 . S
C70 O73 1.160 . S
O71 C70 1.306 . S
O71 Cd72 2.228 . S
Cd72 O71 2.228 . S
Cd72 O76 2.273 . S
Cd72 O80 2.277 . S
O73 C70 1.160 . S
O73 Cd74 2.203 . S
Cd74 O73 2.203 . S
Cd74 O76 2.411 . S
Cd74 O77 2.333 . S
Cd74 O78 2.352 . S
Cd74 O82 2.277 1_545 S
Cd74 O83 2.356 1_545 S
C75 O80 1.209 1_565 S
C75 O82 1.226 . S
O76 Cd72 2.273 . S
O76 Cd74 2.411 . S
O76 C79 1.320 . S
O77 Cd74 2.333 . S
O77 C79 1.214 . S
O78 Cd74 2.352 . S
O78 C81 1.258 . S
C79 O76 1.320 . S
C79 O77 1.214 . S
O80 Cd72 2.277 . S
O80 C75 1.209 1_545 S
C81 O78 1.258 . S
C81 O83 1.282 1_545 S
O82 Cd74 2.277 1_565 S
O82 C75 1.226 . S
O83 Cd74 2.356 1_565 S
O83 C81 1.282 1_565 S
C84 O85 1.306 . S
C84 O87 1.160 . S
O85 C84 1.306 . S
O85 Cd86 2.228 . S
Cd86 O85 2.228 . S
Cd86 O90 2.273 . S
Cd86 O94 2.277 . S
O87 C84 1.160 . S
O87 Cd88 2.203 . S
Cd88 O87 2.203 . S
Cd88 O90 2.411 . S
Cd88 O91 2.333 . S
Cd88 O92 2.352 . S
Cd88 O96 2.277 1_655 S
Cd88 O97 2.356 1_655 S
C89 O94 1.209 1_455 S
C89 O96 1.226 . S
O90 Cd86 2.273 . S
O90 Cd88 2.411 . S
O90 C93 1.320 . S
O91 Cd88 2.333 . S
O91 C93 1.214 . S
O92 Cd88 2.352 . S
O92 C95 1.258 . S
C93 O90 1.320 . S
C93 O91 1.214 . S
O94 Cd86 2.277 . S
O94 C89 1.209 1_655 S
C95 O92 1.258 . S
C95 O97 1.282 1_655 S
O96 Cd88 2.277 1_455 S
O96 C89 1.226 . S
O97 Cd88 2.356 1_455 S
O97 C95 1.282 1_455 S
C98 O99 1.306 . S
C98 O101 1.160 . S
O99 C98 1.306 . S
O99 Cd100 2.228 . S
Cd100 O99 2.228 . S
Cd100 O104 2.273 . S
Cd100 O108 2.277 . S
O101 C98 1.160 . S
O101 Cd102 2.203 . S
Cd102 O101 2.203 . S
Cd102 O104 2.411 . S
Cd102 O105 2.333 . S
Cd102 O106 2.352 . S
Cd102 O110 2.277 1_565 S
Cd102 O111 2.356 1_565 S
C103 O108 1.209 1_545 S
C103 O110 1.226 . S
O104 Cd100 2.273 . S
O104 Cd102 2.411 . S
O104 C107 1.320 . S
O105 Cd102 2.333 . S
O105 C107 1.214 . S
O106 Cd102 2.352 . S
O106 C109 1.258 . S
C107 O104 1.320 . S
C107 O105 1.214 . S
O108 Cd100 2.277 . S
O108 C103 1.209 1_565 S
C109 O106 1.258 . S
C109 O111 1.282 1_565 S
O110 Cd102 2.277 1_545 S
O110 C103 1.226 . S
O111 Cd102 2.356 1_545 S
O111 C109 1.282 1_545 S
C11 C39 1.478 1_455 S
C53 C25 1.478 1_565 S
C95 C67 1.478 1_655 S
C81 C109 1.478 1_545 S
C93 C9 2.807 1_656 S
C23 C107 2.807 1_545 S
C37 C65 2.807 1_654 S
C79 C51 2.807 1_545 S
C0 C70 2.223 . S
C84 C14 2.224 . S
C98 C28 2.223 . S
C42 C56 2.223 . S
C5 C33 1.160 1_645 S
C47 C19 1.160 1_445 S
C89 C61 1.160 1_445 S
C103 C75 1.160 1_645 S
