# Generated by pormake.
# Topology kag, (6)-cn, num edge types: 1
# Building blocks:
#     Node 0, Type 0, BuildingBlock: BETFEN_clean_sbu_0, # of connection points: 6
#     Node 1, Type 0, BuildingBlock: BETFEN_clean_sbu_0, # of connection points: 6
#     Node 2, Type 0, BuildingBlock: BETFEN_clean_sbu_0, # of connection points: 6
#     Edge 3, Type (0, 0), BuildingBlock: EYOCIG_clean_linker_4, # of connection points: 2
#     Edge 4, Type (0, 0), BuildingBlock: EYOCIG_clean_linker_4, # of connection points: 2
#     Edge 5, Type (0, 0), BuildingBlock: EYOCIG_clean_linker_4, # of connection points: 2
#     Edge 6, Type (0, 0), BuildingBlock: EYOCIG_clean_linker_4, # of connection points: 2
#     Edge 7, Type (0, 0), BuildingBlock: EYOCIG_clean_linker_4, # of connection points: 2
#     Edge 8, Type (0, 0), BuildingBlock: EYOCIG_clean_linker_4, # of connection points: 2
#     Edge 9, Type (0, 0), BuildingBlock: EYOCIG_clean_linker_4, # of connection points: 2
#     Edge 10, Type (0, 0), BuildingBlock: EYOCIG_clean_linker_4, # of connection points: 2
#     Edge 11, Type (0, 0), BuildingBlock: EYOCIG_clean_linker_4, # of connection points: 2
# Relax obj value: 0.108
# Max RMSD: 0.226
# Mean RMSD: 0.117
data_MOF--net-kag--node1-BETFEN_clean_sbu_0--edge1-EYOCIG_clean_linker_4
_symmetry_space_group_name_H-M    P1
_symmetry_Int_Tables_number       1
_symmetry_cell_setting            triclinic
loop_
_symmetry_equiv_pos_as_xyz
'x, y, z'
_cell_length_a     25.178258
_cell_length_b     36.285985
_cell_length_c     11.686966
_cell_angle_alpha  95.777391
_cell_angle_beta   91.314329
_cell_angle_gamma 91.569129
loop_
_atom_site_label
_atom_site_type_symbol
_atom_site_fract_x
_atom_site_fract_y
_atom_site_fract_z
_atom_type_partial_charge
Pr0 Pr 1.06877 0.46946 0.98765 0.0
Pr1 Pr 0.08485 0.55834 0.01747 0.0
C2 C 1.03911 0.40181 0.03416 0.0
C3 C 0.98989 0.37896 0.01714 0.0
C4 C 0.97891 0.35684 0.913 0.0
C5 C 0.93608 0.33146 0.90421 0.0
C6 C 0.904 0.32819 0.99903 0.0
C7 C 0.91201 0.35219 0.09942 0.0
C8 C 0.95479 0.37751 0.10853 0.0
C9 C 1.06864 0.4949 0.76883 0.0
C10 C 0.96118 0.5229 0.99435 0.0
C11 C 0.11475 0.62603 0.97132 0.0
C12 C 0.16382 0.6491 0.98833 0.0
C13 C 0.17459 0.6714 0.09224 0.0
C14 C 0.21689 0.69726 0.10045 0.0
C15 C 0.24865 0.70083 0.00525 0.0
C16 C 0.241 0.67657 0.90528 0.0
C17 C 0.19876 0.6508 0.89676 0.0
C18 C 0.08522 0.53281 0.23624 0.0
C19 C 0.19236 0.50483 0.01066 0.0
O20 O 1.03742 0.43088 0.10997 0.0
O21 O 1.06604 0.4076 0.94258 0.0
O22 O 0.07348 0.51437 0.86478 0.0
O23 O 1.06319 0.46019 0.78469 0.0
O24 O 0.99144 0.55345 0.99585 0.0
O25 O 0.98076 0.4895 0.99464 0.0
O26 O 0.11658 0.59695 0.89558 0.0
O27 O 0.08772 0.62021 0.06276 0.0
O28 O 0.08025 0.51341 0.14022 0.0
O29 O 0.0906 0.56753 0.22048 0.0
O30 O 0.16211 0.47429 0.00924 0.0
O31 O 0.1728 0.53824 0.01031 0.0
H32 H 1.00471 0.35782 0.8404 0.0
H33 H 0.92997 0.31294 0.82599 0.0
H34 H 0.88728 0.34983 0.17319 0.0
H35 H 0.96182 0.39461 0.18919 0.0
H36 H 0.14892 0.67025 0.165 0.0
H37 H 0.22273 0.71592 0.17844 0.0
H38 H 0.26549 0.67911 0.83125 0.0
H39 H 0.19191 0.63357 0.81626 0.0
Pr40 Pr 0.63884 0.01874 0.00348 0.0
Pr41 Pr 0.51578 1.00913 1.00196 0.0
C42 C 0.7316 0.05128 0.96411 0.0
C43 C 0.74699 0.09115 0.97268 0.0
C44 C 0.77227 0.10817 0.0737 0.0
C45 C 0.78716 0.1457 0.08284 0.0
C46 C 0.77682 0.16666 0.99125 0.0
C47 C 0.75032 0.15038 0.89167 0.0
C48 C 0.73529 0.11285 0.88234 0.0
C49 C 0.59832 1.012 0.21803 0.0
C50 C 0.56171 0.09442 0.01875 0.0
C51 C 0.42517 0.97812 0.06162 0.0
C52 C 0.4075 0.93853 0.04412 0.0
C53 C 0.38302 0.9232 0.9398 0.0
C54 C 0.36681 0.88576 0.92505 0.0
C55 C 0.37531 0.86325 0.01388 0.0
C56 C 0.4012 0.87789 0.11602 0.0
C57 C 0.41721 0.91519 0.13112 0.0
C58 C 0.54793 1.00535 0.7736 0.0
C59 C 0.59225 0.93403 0.98243 0.0
O60 O 0.69808 0.03901 0.88059 0.0
O61 O 0.72201 0.0375 0.06121 0.0
O62 O 0.57726 0.03083 0.14419 0.0
O63 O 0.64233 0.99719 0.18366 0.0
O64 O 0.5173 0.0743 0.02532 0.0
O65 O 0.60873 0.07955 0.00885 0.0
O66 O 0.46507 0.98587 0.13489 0.0
O67 O 0.428 0.9963 0.97017 0.0
O68 O 0.57713 1.0096 0.86253 0.0
O69 O 0.49852 1.00371 0.80101 0.0
O70 O 0.63478 0.95397 0.95937 0.0
O71 O 0.54727 0.94937 0.01153 0.0
H72 H 0.78114 0.09239 0.1453 0.0
H73 H 0.80776 0.15808 0.16033 0.0
H74 H 0.74226 0.16648 0.82027 0.0
H75 H 0.71512 0.10084 0.80397 0.0
H76 H 0.37584 0.94013 0.87016 0.0
H77 H 0.34676 0.87464 0.84546 0.0
H78 H 0.408 0.86067 0.18524 0.0
H79 H 0.43677 0.92582 0.21168 0.0
Pr80 Pr 0.57375 0.5607 0.01371 0.0
Pr81 Pr 0.57956 0.46741 0.9917 0.0
C82 C 0.57136 0.63211 0.97029 0.0
C83 C 0.55645 0.6716 0.98687 0.0
C84 C 0.56865 0.69402 0.09021 0.0
C85 C 0.56751 0.73284 0.09388 0.0
C86 C 0.55432 0.74977 0.99451 0.0
C87 C 0.53754 0.72738 0.89466 0.0
C88 C 0.53861 0.68865 0.89094 0.0
C89 C 0.57182 0.53376 0.23016 0.0
C90 C 0.46091 0.50894 0.00822 0.0
C91 C 0.58184 0.39607 0.03557 0.0
C92 C 0.59708 0.35668 0.01894 0.0
C93 C 0.58492 0.33425 0.91563 0.0
C94 C 0.58629 0.29546 0.91196 0.0
C95 C 0.59964 0.2786 0.0113 0.0
C96 C 0.61639 0.30098 0.11115 0.0
C97 C 0.61512 0.3397 0.11486 0.0
C98 C 0.58114 0.49428 0.77518 0.0
C99 C 0.69247 0.51906 0.99701 0.0
O100 O 0.53915 0.60656 0.91682 0.0
O101 O 0.60453 0.61969 0.04449 0.0
O102 O 0.57397 0.51503 0.13373 0.0
O103 O 0.56973 0.56872 0.2166 0.0
O104 O 0.48821 0.47851 0.0172 0.0
O105 O 0.4833 0.54195 0.99807 0.0
O106 O 0.61389 0.42166 0.08929 0.0
O107 O 0.54884 0.40842 0.96088 0.0
O108 O 0.57912 0.51306 0.87158 0.0
O109 O 0.58332 0.45933 0.78882 0.0
O110 O 0.66517 0.54951 0.98829 0.0
O111 O 0.67004 0.48605 0.007 0.0
H112 H 0.58216 0.68176 0.16605 0.0
H113 H 0.57994 0.7496 0.1724 0.0
H114 H 0.52669 0.73981 0.81726 0.0
H115 H 0.52896 0.67211 0.81035 0.0
H116 H 0.57123 0.34646 0.83984 0.0
H117 H 0.57386 0.27867 0.8335 0.0
H118 H 0.62734 0.28858 0.18851 0.0
H119 H 0.62472 0.35627 0.19542 0.0
C120 C 0.07574 0.51211 0.55365 0.0
C121 C 0.07306 0.50736 0.65501 0.0
C122 C 0.07837 0.51549 0.45134 0.0
C123 C 0.08094 0.52028 0.35 0.0
C124 C 0.57788 0.0137 0.4388 0.0
C125 C 0.58436 0.01433 0.33701 0.0
C126 C 0.57246 1.01148 0.55807 0.0
C127 C 0.56478 1.00893 0.65854 0.0
C128 C 0.57724 0.51252 0.56266 0.0
C129 C 0.57879 0.5077 0.6635 0.0
C130 C 0.57531 0.51543 0.4426 0.0
C131 C 0.57394 0.52029 0.34178 0.0
C132 C 0.29814 0.50253 0.01124 0.0
C133 C 0.24982 0.5022 0.01097 0.0
C134 C 0.35493 0.50411 0.01062 0.0
C135 C 0.40323 0.50599 0.00962 0.0
C136 C 0.81346 0.23546 0.99847 0.0
C137 C 0.79684 0.20408 0.99565 0.0
C138 C 0.83967 0.27 0.99851 0.0
C139 C 0.86887 0.29669 1.0 0.0
C140 C 0.58453 0.86092 0.98289 0.0
C141 C 0.59281 0.89398 0.97977 0.0
C142 C 0.57213 0.82247 0.98811 0.0
C143 C 0.56401 0.78939 0.99086 0.0
C144 C 0.85533 0.52523 0.99381 0.0
C145 C 0.90367 0.52553 0.99406 0.0
C146 C 0.79851 0.52374 0.99447 0.0
C147 C 0.75018 0.52195 0.99553 0.0
C148 C 0.31145 0.75986 0.00318 0.0
C149 C 0.28291 0.73283 0.00324 0.0
C150 C 0.33729 0.79456 1.00171 0.0
C151 C 0.35419 0.82594 0.00481 0.0
C152 C 0.58201 0.20594 0.01677 0.0
C153 C 0.59012 0.23902 0.01481 0.0
C154 C 0.56957 0.16747 0.01979 0.0
C155 C 0.56123 0.13436 0.02038 0.0
loop_
_geom_bond_atom_site_label_1
_geom_bond_atom_site_label_2
_geom_bond_distance
_geom_bond_site_symmetry_2
_ccdc_geom_bond_type
Pr0 C2 2.880 . S
Pr0 O20 2.562 1_556 S
Pr0 O21 2.490 . S
Pr0 O22 2.695 1_655 S
Pr0 O23 2.512 . S
Pr0 O25 2.437 . S
Pr0 O28 2.436 1_556 S
Pr0 O30 2.438 1_655 S
Pr1 C11 2.880 . S
Pr1 O22 2.436 1_554 S
Pr1 O24 2.438 1_455 S
Pr1 O26 2.562 1_554 S
Pr1 O27 2.490 . S
Pr1 O28 2.695 1_455 S
Pr1 O29 2.512 . S
Pr1 O31 2.437 . S
C2 Pr0 2.880 . S
C2 C3 1.491 . S
C2 O20 1.254 1_556 S
C2 O21 1.225 . S
C3 C2 1.491 . S
C3 C4 1.392 . S
C3 C8 1.356 1_556 S
C4 C3 1.392 . S
C4 C5 1.368 . S
C4 H32 0.929 . S
C5 C4 1.368 . S
C5 C6 1.386 . S
C5 H33 0.929 . S
C6 C5 1.386 . S
C6 C7 1.373 1_556 S
C7 C6 1.373 1_554 S
C7 C8 1.409 . S
C7 H34 0.931 . S
C8 C3 1.356 1_554 S
C8 C7 1.409 . S
C8 H35 0.930 . S
C9 O22 1.270 . S
C9 O23 1.248 1_455 S
C10 O24 1.267 1_556 S
C10 O25 1.278 . S
C11 Pr1 2.880 . S
C11 C12 1.491 . S
C11 O26 1.254 1_554 S
C11 O27 1.225 . S
C12 C11 1.491 . S
C12 C13 1.392 . S
C12 C17 1.356 1_554 S
C13 C12 1.392 . S
C13 C14 1.368 . S
C13 H36 0.929 . S
C14 C13 1.368 . S
C14 C15 1.386 . S
C14 H37 0.929 . S
C15 C14 1.386 . S
C15 C16 1.373 1_554 S
C16 C15 1.373 1_556 S
C16 C17 1.409 . S
C16 H38 0.931 . S
C17 C12 1.356 1_556 S
C17 C16 1.409 . S
C17 H39 0.930 . S
C18 O28 1.270 1_455 S
C18 O29 1.248 . S
C19 O30 1.267 1_554 S
C19 O31 1.278 . S
O20 Pr0 2.562 1_554 S
O20 C2 1.254 1_554 S
O21 Pr0 2.490 . S
O21 C2 1.225 . S
O22 Pr0 2.695 1_455 S
O22 Pr1 2.436 1_556 S
O22 C9 1.270 . S
O23 Pr0 2.512 . S
O23 C9 1.248 1_655 S
O24 Pr1 2.438 1_655 S
O24 C10 1.267 1_554 S
O25 Pr0 2.437 . S
O25 C10 1.278 . S
O26 Pr1 2.562 1_556 S
O26 C11 1.254 1_556 S
O27 Pr1 2.490 . S
O27 C11 1.225 . S
O28 Pr0 2.436 1_554 S
O28 Pr1 2.695 1_655 S
O28 C18 1.270 1_655 S
O29 Pr1 2.512 . S
O29 C18 1.248 . S
O30 Pr0 2.438 1_455 S
O30 C19 1.267 1_556 S
O31 Pr1 2.437 . S
O31 C19 1.278 . S
H32 C4 0.929 . S
H33 C5 0.929 . S
H34 C7 0.931 . S
H35 C8 0.930 . S
H36 C13 0.929 . S
H37 C14 0.929 . S
H38 C16 0.931 . S
H39 C17 0.930 . S
Pr40 C42 2.880 . S
Pr40 O60 2.562 1_554 S
Pr40 O61 2.490 . S
Pr40 O62 2.695 1_545 S
Pr40 O63 2.512 . S
Pr40 O65 2.437 . S
Pr40 O68 2.436 1_554 S
Pr40 O70 2.438 1_545 S
Pr41 C51 2.880 . S
Pr41 O62 2.436 1_556 S
Pr41 O64 2.438 1_565 S
Pr41 O66 2.562 1_556 S
Pr41 O67 2.490 . S
Pr41 O68 2.695 1_565 S
Pr41 O69 2.512 . S
Pr41 O71 2.437 . S
C42 Pr40 2.880 . S
C42 C43 1.490 1_554 S
C42 O60 1.254 1_554 S
C42 O61 1.225 . S
C43 C42 1.490 1_556 S
C43 C44 1.386 1_556 S
C43 C48 1.363 . S
C44 C43 1.386 1_554 S
C44 C45 1.368 . S
C44 H72 0.929 . S
C45 C44 1.368 . S
C45 C46 1.386 1_554 S
C45 H73 0.929 . S
C46 C45 1.386 1_556 S
C46 C47 1.373 . S
C47 C46 1.373 . S
C47 C48 1.409 . S
C47 H74 0.931 . S
C48 C43 1.363 . S
C48 C47 1.409 . S
C48 H75 0.930 . S
C49 O62 1.270 1_545 S
C49 O63 1.248 . S
C50 O64 1.267 1_554 S
C50 O65 1.278 . S
C51 Pr41 2.880 . S
C51 C52 1.491 1_556 S
C51 O66 1.254 1_556 S
C51 O67 1.225 . S
C52 C51 1.491 1_554 S
C52 C53 1.392 1_554 S
C52 C57 1.356 . S
C53 C52 1.392 1_556 S
C53 C54 1.368 . S
C53 H76 0.929 . S
C54 C53 1.368 . S
C54 C55 1.386 1_556 S
C54 H77 0.929 . S
C55 C54 1.386 1_554 S
C55 C56 1.373 . S
C56 C55 1.373 . S
C56 C57 1.409 . S
C56 H78 0.931 . S
C57 C52 1.356 . S
C57 C56 1.409 . S
C57 H79 0.930 . S
C58 O68 1.270 1_565 S
C58 O69 1.248 . S
C59 O70 1.267 1_556 S
C59 O71 1.278 . S
O60 Pr40 2.562 1_556 S
O60 C42 1.254 1_556 S
O61 Pr40 2.490 . S
O61 C42 1.225 . S
O62 Pr40 2.695 1_565 S
O62 Pr41 2.436 1_554 S
O62 C49 1.270 1_565 S
O63 Pr40 2.512 . S
O63 C49 1.248 . S
O64 Pr41 2.438 1_545 S
O64 C50 1.267 1_556 S
O65 Pr40 2.437 . S
O65 C50 1.278 . S
O66 Pr41 2.562 1_554 S
O66 C51 1.254 1_554 S
O67 Pr41 2.490 . S
O67 C51 1.225 . S
O68 Pr40 2.436 1_556 S
O68 Pr41 2.695 1_545 S
O68 C58 1.270 1_545 S
O69 Pr41 2.512 . S
O69 C58 1.248 . S
O70 Pr40 2.438 1_565 S
O70 C59 1.267 1_554 S
O71 Pr41 2.437 . S
O71 C59 1.278 . S
H72 C44 0.929 . S
H73 C45 0.929 . S
H74 C47 0.931 . S
H75 C48 0.930 . S
H76 C53 0.929 . S
H77 C54 0.929 . S
H78 C56 0.931 . S
H79 C57 0.930 . S
Pr80 C82 2.880 . S
Pr80 O100 2.562 1_554 S
Pr80 O101 2.490 . S
Pr80 O102 2.695 . S
Pr80 O103 2.512 . S
Pr80 O105 2.437 . S
Pr80 O108 2.436 1_554 S
Pr80 O110 2.438 . S
Pr81 C91 2.880 . S
Pr81 O102 2.436 1_556 S
Pr81 O104 2.438 . S
Pr81 O106 2.562 1_556 S
Pr81 O107 2.490 . S
Pr81 O108 2.695 . S
Pr81 O109 2.512 . S
Pr81 O111 2.437 . S
C82 Pr80 2.880 . S
C82 C83 1.491 . S
C82 O100 1.254 1_554 S
C82 O101 1.225 . S
C83 C82 1.491 . S
C83 C84 1.392 . S
C83 C88 1.356 1_554 S
C84 C83 1.392 . S
C84 C85 1.368 . S
C84 H112 0.929 . S
C85 C84 1.368 . S
C85 C86 1.390 . S
C85 H113 0.929 . S
C86 C85 1.390 . S
C86 C87 1.369 1_554 S
C87 C86 1.369 1_556 S
C87 C88 1.409 . S
C87 H114 0.931 . S
C88 C83 1.356 1_556 S
C88 C87 1.409 . S
C88 H115 0.930 . S
C89 O102 1.270 . S
C89 O103 1.248 . S
C90 O104 1.267 1_554 S
C90 O105 1.278 . S
C91 Pr81 2.880 . S
C91 C92 1.491 . S
C91 O106 1.254 1_556 S
C91 O107 1.225 . S
C92 C91 1.491 . S
C92 C93 1.392 . S
C92 C97 1.356 1_556 S
C93 C92 1.392 . S
C93 C94 1.368 . S
C93 H116 0.929 . S
C94 C93 1.368 . S
C94 C95 1.385 1_556 S
C94 H117 0.929 . S
C95 C94 1.385 1_554 S
C95 C96 1.374 . S
C96 C95 1.374 . S
C96 C97 1.409 . S
C96 H118 0.931 . S
C97 C92 1.356 1_554 S
C97 C96 1.409 . S
C97 H119 0.930 . S
C98 O108 1.270 . S
C98 O109 1.248 . S
C99 O110 1.267 1_556 S
C99 O111 1.278 . S
O100 Pr80 2.562 1_556 S
O100 C82 1.254 1_556 S
O101 Pr80 2.490 . S
O101 C82 1.225 . S
O102 Pr80 2.695 . S
O102 Pr81 2.436 1_554 S
O102 C89 1.270 . S
O103 Pr80 2.512 . S
O103 C89 1.248 . S
O104 Pr81 2.438 . S
O104 C90 1.267 1_556 S
O105 Pr80 2.437 . S
O105 C90 1.278 . S
O106 Pr81 2.562 1_554 S
O106 C91 1.254 1_554 S
O107 Pr81 2.490 . S
O107 C91 1.225 . S
O108 Pr80 2.436 1_556 S
O108 Pr81 2.695 . S
O108 C98 1.270 . S
O109 Pr81 2.512 . S
O109 C98 1.248 . S
O110 Pr80 2.438 . S
O110 C99 1.267 1_554 S
O111 Pr81 2.437 . S
O111 C99 1.278 . S
H112 C84 0.929 . S
H113 C85 0.929 . S
H114 C87 0.931 . S
H115 C88 0.930 . S
H116 C93 0.929 . S
H117 C94 0.929 . S
H118 C96 0.931 . S
H119 C97 0.930 . S
C120 C121 1.170 . S
C120 C122 1.380 . S
C121 C120 1.170 . S
C122 C120 1.380 . S
C122 C123 1.170 . S
C123 C122 1.170 . S
C124 C125 1.169 . S
C124 C126 1.379 . S
C125 C124 1.169 . S
C126 C124 1.379 . S
C126 C127 1.172 . S
C127 C126 1.172 . S
C128 C129 1.170 . S
C128 C130 1.380 . S
C129 C128 1.170 . S
C130 C128 1.380 . S
C130 C131 1.170 . S
C131 C130 1.170 . S
C132 C133 1.170 . S
C132 C134 1.380 . S
C133 C132 1.170 . S
C134 C132 1.380 . S
C134 C135 1.170 . S
C135 C134 1.170 . S
C136 C137 1.170 . S
C136 C138 1.380 . S
C137 C136 1.170 . S
C138 C136 1.380 . S
C138 C139 1.170 . S
C139 C138 1.170 . S
C140 C141 1.170 . S
C140 C142 1.380 . S
C141 C140 1.170 . S
C142 C140 1.380 . S
C142 C143 1.170 . S
C143 C142 1.170 . S
C144 C145 1.170 1_556 S
C144 C146 1.380 1_556 S
C145 C144 1.170 1_554 S
C146 C144 1.380 1_554 S
C146 C147 1.170 . S
C147 C146 1.170 . S
C148 C149 1.170 . S
C148 C150 1.380 . S
C149 C148 1.170 . S
C150 C148 1.380 . S
C150 C151 1.170 . S
C151 C150 1.170 . S
C152 C153 1.170 . S
C152 C154 1.380 . S
C153 C152 1.170 . S
C154 C152 1.380 . S
C154 C155 1.170 . S
C155 C154 1.170 . S
C121 C9 1.439 . S
C123 C18 1.452 . S
C125 C49 1.462 1_565 S
C127 C58 1.428 . S
C129 C98 1.468 . S
C131 C89 1.448 . S
C133 C19 2.643 1_556 S
C135 C90 2.558 1_556 S
C137 C46 0.932 . S
C139 C6 0.919 . S
C141 C59 2.233 . S
C143 C86 2.114 1_556 S
C145 C10 2.638 1_554 S
C147 C99 2.558 1_554 S
C149 C15 0.914 . S
C151 C55 0.955 . S
C153 C95 2.143 . S
C155 C50 2.209 . S
