# Generated by pormake.
# Topology ukk, (4)-cn, num edge types: 1
# Building blocks:
#     Node 0, Type 0, BuildingBlock: CEKHIL_clean_sbu_0, # of connection points: 4
#     Node 1, Type 0, BuildingBlock: CEKHIL_clean_sbu_0, # of connection points: 4
#     Node 2, Type 0, BuildingBlock: CEKHIL_clean_sbu_0, # of connection points: 4
#     Node 3, Type 0, BuildingBlock: CEKHIL_clean_sbu_0, # of connection points: 4
#     Node 4, Type 0, BuildingBlock: CEKHIL_clean_sbu_0, # of connection points: 4
#     Node 5, Type 0, BuildingBlock: CEKHIL_clean_sbu_0, # of connection points: 4
#     Node 6, Type 0, BuildingBlock: CEKHIL_clean_sbu_0, # of connection points: 4
#     Node 7, Type 0, BuildingBlock: CEKHIL_clean_sbu_0, # of connection points: 4
#     Node 8, Type 0, BuildingBlock: CEKHIL_clean_sbu_0, # of connection points: 4
#     Node 9, Type 0, BuildingBlock: CEKHIL_clean_sbu_0, # of connection points: 4
#     Node 10, Type 0, BuildingBlock: CEKHIL_clean_sbu_0, # of connection points: 4
#     Node 11, Type 0, BuildingBlock: CEKHIL_clean_sbu_0, # of connection points: 4
#     Node 12, Type 0, BuildingBlock: CEKHIL_clean_sbu_0, # of connection points: 4
#     Node 13, Type 0, BuildingBlock: CEKHIL_clean_sbu_0, # of connection points: 4
#     Node 14, Type 0, BuildingBlock: CEKHIL_clean_sbu_0, # of connection points: 4
#     Node 15, Type 0, BuildingBlock: CEKHIL_clean_sbu_0, # of connection points: 4
#     Edge 16, Type (0, 0), None
#     Edge 17, Type (0, 0), None
#     Edge 18, Type (0, 0), None
#     Edge 19, Type (0, 0), None
#     Edge 20, Type (0, 0), None
#     Edge 21, Type (0, 0), None
#     Edge 22, Type (0, 0), None
#     Edge 23, Type (0, 0), None
#     Edge 24, Type (0, 0), None
#     Edge 25, Type (0, 0), None
#     Edge 26, Type (0, 0), None
#     Edge 27, Type (0, 0), None
#     Edge 28, Type (0, 0), None
#     Edge 29, Type (0, 0), None
#     Edge 30, Type (0, 0), None
#     Edge 31, Type (0, 0), None
#     Edge 32, Type (0, 0), None
#     Edge 33, Type (0, 0), None
#     Edge 34, Type (0, 0), None
#     Edge 35, Type (0, 0), None
#     Edge 36, Type (0, 0), None
#     Edge 37, Type (0, 0), None
#     Edge 38, Type (0, 0), None
#     Edge 39, Type (0, 0), None
#     Edge 40, Type (0, 0), None
#     Edge 41, Type (0, 0), None
#     Edge 42, Type (0, 0), None
#     Edge 43, Type (0, 0), None
#     Edge 44, Type (0, 0), None
#     Edge 45, Type (0, 0), None
#     Edge 46, Type (0, 0), None
#     Edge 47, Type (0, 0), None
# Relax obj value: 0.114
# Max RMSD: 0.286
# Mean RMSD: 0.286
data_MOF--net-ukk--node1-CEKHIL_clean_sbu_0--edge1-none
_symmetry_space_group_name_H-M    P1
_symmetry_Int_Tables_number       1
_symmetry_cell_setting            triclinic
loop_
_symmetry_equiv_pos_as_xyz
'x, y, z'
_cell_length_a     22.451661
_cell_length_b     22.451633
_cell_length_c     9.3942428
_cell_angle_alpha  90.008396
_cell_angle_beta   90.009011
_cell_angle_gamma 89.999955
loop_
_atom_site_label
_atom_site_type_symbol
_atom_site_fract_x
_atom_site_fract_y
_atom_site_fract_z
_atom_type_partial_charge
Co0 Co 0.37501 0.12642 0.01236 0.0
O1 O 0.29062 0.11741 -0.02601 0.0
O2 O 0.35813 0.14098 0.81263 0.0
C3 C 0.38589 0.03294 0.12247 0.0
O4 O 0.46196 0.13921 0.03068 0.0
Co5 Co 0.34101 0.1564 0.18096 0.0
O6 O 0.42876 0.16899 0.2388 0.0
C7 C 0.32319 0.2473 0.05234 0.0
C8 C 0.30271 0.13021 0.84328 0.0
C9 C 0.47258 0.16041 0.15397 0.0
O10 O 0.36995 0.21776 0.0248 0.0
O11 O 0.28424 0.22183 0.12639 0.0
O12 O 0.38345 0.04191 -0.011 0.0
O13 O 0.37984 0.0789 0.20407 0.0
Co14 Co 0.12643 0.68365 0.81615 0.0
O15 O 0.11741 0.76804 0.85452 0.0
O16 O 0.14101 0.70054 0.01589 0.0
C17 C 0.03295 0.67277 0.70605 0.0
O18 O 0.13924 0.5967 0.79782 0.0
Co19 Co 0.15639 0.71766 0.64752 0.0
O20 O 0.16899 0.6299 0.5897 0.0
C21 C 0.2473 0.7355 0.77616 0.0
C22 C 0.13022 0.75595 -0.01477 0.0
C23 C 0.16042 0.58609 0.67453 0.0
O24 O 0.21777 0.68873 0.8037 0.0
O25 O 0.22182 0.77444 0.70209 0.0
O26 O 0.04193 0.6752 0.83951 0.0
O27 O 0.0789 0.67882 0.62444 0.0
Co28 Co 0.68365 0.93223 0.01231 0.0
O29 O 0.76804 0.94125 -0.02604 0.0
O30 O 0.70053 0.91766 0.81257 0.0
C31 C 0.67277 1.02572 0.12244 0.0
O32 O 0.5967 0.91942 0.03064 0.0
Co33 Co 0.71766 0.90227 0.18095 0.0
O34 O 0.62992 0.88966 0.23876 0.0
C35 C 0.7355 0.81136 0.0523 0.0
C36 C 0.75595 0.92845 0.84325 0.0
C37 C 0.58609 0.89823 0.15393 0.0
O38 O 0.68873 0.84089 0.02474 0.0
O39 O 0.77445 0.83684 0.12639 0.0
O40 O 0.67519 1.01673 -0.01103 0.0
O41 O 0.67883 0.97977 0.20404 0.0
Co42 Co 0.93225 0.37501 0.81615 0.0
O43 O 0.94125 0.29062 0.8545 0.0
O44 O 0.91769 0.35813 0.01589 0.0
C45 C 1.02573 0.38588 0.70602 0.0
O46 O 0.91945 0.46197 0.79784 0.0
Co47 Co 0.90226 0.341 0.64754 0.0
O48 O 0.88966 0.42875 0.58971 0.0
C49 C 0.81136 0.32319 0.77617 0.0
C50 C 0.92846 0.30272 -0.01479 0.0
C51 C 0.89824 0.47257 0.67455 0.0
O52 O 0.8409 0.36995 0.80372 0.0
O53 O 0.83683 0.28423 0.70209 0.0
O54 O 1.01676 0.38345 0.83949 0.0
O55 O 0.97976 0.37983 0.62442 0.0
Co56 Co 0.37501 0.43225 0.06614 0.0
O57 O 0.29061 0.44126 0.10449 0.0
O58 O 0.35813 0.41769 0.26588 0.0
C59 C 0.38588 0.52574 -0.04397 0.0
O60 O 0.46196 0.41945 0.04784 0.0
Co61 Co 0.34099 0.40228 0.89754 0.0
O62 O 0.42874 0.38967 0.83971 0.0
C63 C 0.32319 0.31137 0.02605 0.0
C64 C 0.30271 0.42846 0.2352 0.0
C65 C 0.47256 0.39825 -0.07545 0.0
O66 O 0.36994 0.34091 0.05369 0.0
O67 O 0.28421 0.33684 -0.04794 0.0
O68 O 0.38345 0.51676 0.0895 0.0
O69 O 0.37983 0.47977 0.87443 0.0
Co70 Co 0.43224 0.68365 0.76232 0.0
O71 O 0.44126 0.76804 0.72397 0.0
O72 O 0.41766 0.70054 0.56258 0.0
C73 C 0.52573 0.67277 0.87242 0.0
O74 O 0.41942 0.5967 0.78065 0.0
Co75 Co 0.40228 0.71767 -0.06905 0.0
O76 O 0.38968 0.62993 -0.01122 0.0
C77 C 0.31137 0.7355 0.80242 0.0
C78 C 0.42845 0.75595 0.59325 0.0
C79 C 0.39824 0.5861 0.90394 0.0
O80 O 0.3409 0.68874 0.77478 0.0
O81 O 0.33686 0.77446 0.87643 0.0
O82 O 0.51674 0.67519 0.73896 0.0
O83 O 0.47978 0.67883 -0.04597 0.0
Co84 Co 0.68365 0.62643 0.06615 0.0
O85 O 0.76804 0.61741 0.10451 0.0
O86 O 0.70054 0.64101 0.26588 0.0
C87 C 0.67276 0.53294 -0.04394 0.0
O88 O 0.5967 0.63924 0.04781 0.0
Co89 Co 0.71766 0.65638 0.89752 0.0
O90 O 0.62991 0.66897 0.83968 0.0
C91 C 0.73549 0.74729 0.02604 0.0
C92 C 0.75595 0.63022 0.23522 0.0
C93 C 0.58609 0.66041 -0.07549 0.0
O94 O 0.68873 0.71777 0.05367 0.0
O95 O 0.77446 0.7218 -0.04795 0.0
O96 O 0.67519 0.54193 0.08952 0.0
O97 O 0.67882 0.57888 0.87444 0.0
Co98 Co 0.62641 0.37501 0.76236 0.0
O99 O 0.6174 0.29061 0.724 0.0
O100 O 0.64098 0.35812 0.56264 0.0
C101 C 0.53293 0.3859 0.87246 0.0
O102 O 0.63921 0.46196 0.78068 0.0
Co103 Co 0.65638 0.341 -0.06905 0.0
O104 O 0.66898 0.42875 -0.01119 0.0
C105 C 0.74729 0.32319 0.80245 0.0
C106 C 0.63021 0.30271 0.5933 0.0
C107 C 0.6604 0.47257 0.90398 0.0
O108 O 0.71776 0.36995 0.77483 0.0
O109 O 0.72182 0.28422 0.87643 0.0
O110 O 0.5419 0.38345 0.739 0.0
O111 O 0.57889 0.37984 -0.04593 0.0
Co112 Co 0.87502 0.62642 0.51235 0.0
O113 O 0.79062 0.61741 0.47398 0.0
O114 O 0.85813 0.64098 0.31262 0.0
C115 C 0.8859 0.53294 0.62246 0.0
O116 O 0.96197 0.63921 0.53067 0.0
Co117 Co 0.84101 0.6564 0.68095 0.0
O118 O 0.92876 0.66899 0.73879 0.0
C119 C 0.82319 0.7473 0.55233 0.0
C120 C 0.80272 0.63021 0.34327 0.0
C121 C 0.97258 0.66041 0.65396 0.0
O122 O 0.86995 0.71776 0.52479 0.0
O123 O 0.78424 0.72183 0.62638 0.0
O124 O 0.88346 0.54191 0.48899 0.0
O125 O 0.87984 0.5789 0.70407 0.0
Co126 Co 0.62643 0.18364 0.31616 0.0
O127 O 0.61741 0.26804 0.35453 0.0
O128 O 0.64101 0.20053 0.5159 0.0
C129 C 0.53295 0.17275 0.20605 0.0
O130 O 0.63924 0.0967 0.29782 0.0
Co131 Co 0.65639 0.21765 0.14753 0.0
O132 O 0.66899 0.1299 0.0897 0.0
C133 C 0.7473 0.2355 0.27617 0.0
C134 C 0.63021 0.25594 0.48524 0.0
C135 C 0.66042 0.08609 0.17453 0.0
O136 O 0.71777 0.18873 0.30371 0.0
O137 O 0.72182 0.27444 0.20211 0.0
O138 O 0.54193 0.17519 0.33952 0.0
O139 O 0.57889 0.17882 0.12444 0.0
Co140 Co 0.18365 0.43224 0.51231 0.0
O141 O 0.26804 0.44126 0.47396 0.0
O142 O 0.20053 0.41766 0.31257 0.0
C143 C 0.17276 0.52572 0.62243 0.0
O144 O 0.09669 0.41942 0.53064 0.0
Co145 Co 0.21766 0.40227 0.68095 0.0
O146 O 0.12992 0.38966 0.73877 0.0
C147 C 0.2355 0.31137 0.55231 0.0
C148 C 0.25594 0.42846 0.34324 0.0
C149 C 0.08609 0.39823 0.65393 0.0
O150 O 0.18873 0.3409 0.52475 0.0
O151 O 0.27445 0.33684 0.6264 0.0
O152 O 0.17519 0.51674 0.48896 0.0
O153 O 0.17883 0.47977 0.70404 0.0
Co154 Co 0.43225 0.87501 0.31615 0.0
O155 O 0.44126 0.79062 0.3545 0.0
O156 O 0.41769 0.85813 0.51588 0.0
C157 C 0.52573 0.88589 0.20602 0.0
O158 O 0.41945 0.96197 0.29783 0.0
Co159 Co 0.40226 0.841 0.14754 0.0
O160 O 0.38966 0.92875 0.08971 0.0
C161 C 0.31136 0.82319 0.27617 0.0
C162 C 0.42846 0.80272 0.48521 0.0
C163 C 0.39825 0.97257 0.17455 0.0
O164 O 0.3409 0.86995 0.30372 0.0
O165 O 0.33683 0.78423 0.20209 0.0
O166 O 0.51676 0.88345 0.33949 0.0
O167 O 0.47976 0.87982 0.12442 0.0
Co168 Co 0.87501 0.93225 0.56614 0.0
O169 O 0.79061 0.94126 0.60449 0.0
O170 O 0.85813 0.91769 0.76587 0.0
C171 C 0.88588 1.02574 0.45603 0.0
O172 O 0.96196 0.91945 0.54783 0.0
Co173 Co 0.84099 0.90228 0.39754 0.0
O174 O 0.92874 0.88968 0.3397 0.0
C175 C 0.82319 0.81137 0.52604 0.0
C176 C 0.80271 0.92846 0.7352 0.0
C177 C 0.97256 0.89825 0.42454 0.0
O178 O 0.86995 0.84091 0.55368 0.0
O179 O 0.78422 0.83684 0.45205 0.0
O180 O 0.88345 1.01676 0.5895 0.0
O181 O 0.87983 0.97977 0.37443 0.0
Co182 Co 0.93224 0.18365 0.26232 0.0
O183 O 0.94126 0.26805 0.22397 0.0
O184 O 0.91766 0.20054 0.06258 0.0
C185 C 1.02573 0.17277 0.37243 0.0
O186 O 0.91942 0.0967 0.28065 0.0
Co187 Co 0.90228 0.21767 0.43095 0.0
O188 O 0.88968 0.12993 0.48878 0.0
C189 C 0.81137 0.2355 0.30243 0.0
C190 C 0.92845 0.25595 0.09326 0.0
C191 C 0.89824 0.0861 0.40395 0.0
O192 O 0.8409 0.18874 0.27478 0.0
O193 O 0.83686 0.27446 0.37644 0.0
O194 O 1.01674 0.17519 0.23896 0.0
O195 O 0.97978 0.17883 0.45404 0.0
Co196 Co 0.18365 0.12643 0.56615 0.0
O197 O 0.26804 0.11741 0.60452 0.0
O198 O 0.20054 0.14101 0.76588 0.0
C199 C 0.17276 0.03294 0.45606 0.0
O200 O 0.0967 0.13924 0.54782 0.0
Co201 Co 0.21766 0.15638 0.39753 0.0
O202 O 0.12991 0.16898 0.33969 0.0
C203 C 0.23549 0.24729 0.52605 0.0
C204 C 0.25595 0.13022 0.73523 0.0
C205 C 0.08609 0.16042 0.42452 0.0
O206 O 0.18873 0.21777 0.55367 0.0
O207 O 0.27446 0.22181 0.45206 0.0
O208 O 0.17519 0.04193 0.58953 0.0
O209 O 0.17882 0.07889 0.37444 0.0
Co210 Co 0.12641 0.87502 0.26236 0.0
O211 O 0.11741 0.79062 0.22399 0.0
O212 O 0.14098 0.85813 0.06263 0.0
C213 C 0.03293 0.8859 0.37245 0.0
O214 O 0.13921 0.96196 0.28068 0.0
Co215 Co 0.15638 0.841 0.43095 0.0
O216 O 0.16898 0.92876 0.4888 0.0
C217 C 0.24729 0.82319 0.30245 0.0
C218 C 0.13021 0.80272 0.09328 0.0
C219 C 0.1604 0.97257 0.40398 0.0
O220 O 0.21776 0.86995 0.27483 0.0
O221 O 0.22182 0.78422 0.37642 0.0
O222 O 0.04191 0.88346 0.23899 0.0
O223 O 0.07889 0.87984 0.45407 0.0
loop_
_geom_bond_atom_site_label_1
_geom_bond_atom_site_label_2
_geom_bond_distance
_geom_bond_site_symmetry_2
_ccdc_geom_bond_type
Co0 O1 2.216 . S
Co0 O2 2.091 1_554 S
Co0 O4 2.004 . S
Co0 O10 2.021 . S
Co0 O12 2.137 . S
Co0 O13 2.244 . S
O1 Co0 2.216 . S
O1 C8 1.247 1_554 S
O2 Co0 2.091 1_556 S
O2 C8 1.261 . S
C3 O12 1.247 . S
C3 O13 1.272 . S
O4 Co0 2.004 . S
O4 C9 1.259 . S
Co5 O6 2.061 . S
Co5 O11 2.052 . S
Co5 O13 2.135 . S
O6 Co5 2.061 . S
O6 C9 1.235 . S
C7 O10 1.238 . S
C7 O11 1.241 . S
C8 O1 1.247 1_556 S
C8 O2 1.261 . S
C9 O4 1.259 . S
C9 O6 1.235 . S
O10 Co0 2.021 . S
O10 C7 1.238 . S
O11 Co5 2.052 . S
O11 C7 1.241 . S
O12 Co0 2.137 . S
O12 C3 1.247 . S
O13 Co0 2.244 . S
O13 C3 1.272 . S
O13 Co5 2.135 . S
Co14 O15 2.216 . S
Co14 O16 2.091 1_556 S
Co14 O18 2.004 . S
Co14 O24 2.021 . S
Co14 O26 2.137 . S
Co14 O27 2.244 . S
O15 Co14 2.216 . S
O15 C22 1.247 1_556 S
O16 Co14 2.091 1_554 S
O16 C22 1.261 . S
C17 O26 1.247 . S
C17 O27 1.272 . S
O18 Co14 2.004 . S
O18 C23 1.259 . S
Co19 O20 2.061 . S
Co19 O25 2.052 . S
Co19 O27 2.135 . S
O20 Co19 2.061 . S
O20 C23 1.235 . S
C21 O24 1.238 . S
C21 O25 1.241 . S
C22 O15 1.247 1_554 S
C22 O16 1.261 . S
C23 O18 1.259 . S
C23 O20 1.235 . S
O24 Co14 2.021 . S
O24 C21 1.238 . S
O25 Co19 2.052 . S
O25 C21 1.241 . S
O26 Co14 2.137 . S
O26 C17 1.247 . S
O27 Co14 2.244 . S
O27 C17 1.272 . S
O27 Co19 2.135 . S
Co28 O29 2.216 . S
Co28 O30 2.091 1_554 S
Co28 O32 2.004 . S
Co28 O38 2.021 . S
Co28 O40 2.137 . S
Co28 O41 2.244 . S
O29 Co28 2.216 . S
O29 C36 1.247 1_554 S
O30 Co28 2.091 1_556 S
O30 C36 1.261 . S
C31 O40 1.247 . S
C31 O41 1.272 . S
O32 Co28 2.004 . S
O32 C37 1.259 . S
Co33 O34 2.061 . S
Co33 O39 2.052 . S
Co33 O41 2.135 . S
O34 Co33 2.061 . S
O34 C37 1.235 . S
C35 O38 1.238 . S
C35 O39 1.241 . S
C36 O29 1.247 1_556 S
C36 O30 1.261 . S
C37 O32 1.259 . S
C37 O34 1.235 . S
O38 Co28 2.021 . S
O38 C35 1.238 . S
O39 Co33 2.052 . S
O39 C35 1.241 . S
O40 Co28 2.137 . S
O40 C31 1.247 . S
O41 Co28 2.244 . S
O41 C31 1.272 . S
O41 Co33 2.135 . S
Co42 O43 2.216 . S
Co42 O44 2.091 1_556 S
Co42 O46 2.004 . S
Co42 O52 2.021 . S
Co42 O54 2.137 . S
Co42 O55 2.244 . S
O43 Co42 2.216 . S
O43 C50 1.247 1_556 S
O44 Co42 2.091 1_554 S
O44 C50 1.261 . S
C45 O54 1.247 . S
C45 O55 1.272 . S
O46 Co42 2.004 . S
O46 C51 1.259 . S
Co47 O48 2.061 . S
Co47 O53 2.052 . S
Co47 O55 2.135 . S
O48 Co47 2.061 . S
O48 C51 1.235 . S
C49 O52 1.238 . S
C49 O53 1.241 . S
C50 O43 1.247 1_554 S
C50 O44 1.261 . S
C51 O46 1.259 . S
C51 O48 1.235 . S
O52 Co42 2.021 . S
O52 C49 1.238 . S
O53 Co47 2.052 . S
O53 C49 1.241 . S
O54 Co42 2.137 . S
O54 C45 1.247 . S
O55 Co42 2.244 . S
O55 C45 1.272 . S
O55 Co47 2.135 . S
Co56 O57 2.216 . S
Co56 O58 2.091 . S
Co56 O60 2.004 . S
Co56 O66 2.021 . S
Co56 O68 2.137 . S
Co56 O69 2.244 1_554 S
O57 Co56 2.216 . S
O57 C64 1.247 . S
O58 Co56 2.091 . S
O58 C64 1.261 . S
C59 O68 1.247 1_556 S
C59 O69 1.272 . S
O60 Co56 2.004 . S
O60 C65 1.259 . S
Co61 O62 2.061 . S
Co61 O67 2.052 . S
Co61 O69 2.135 . S
O62 Co61 2.061 . S
O62 C65 1.235 1_556 S
C63 O66 1.238 1_556 S
C63 O67 1.241 . S
C64 O57 1.247 . S
C64 O58 1.261 . S
C65 O60 1.259 . S
C65 O62 1.235 1_554 S
O66 Co56 2.021 . S
O66 C63 1.238 1_554 S
O67 Co61 2.052 . S
O67 C63 1.241 . S
O68 Co56 2.137 . S
O68 C59 1.247 1_554 S
O69 Co56 2.244 1_556 S
O69 C59 1.272 . S
O69 Co61 2.135 . S
Co70 O71 2.216 . S
Co70 O72 2.091 . S
Co70 O74 2.004 . S
Co70 O80 2.021 . S
Co70 O82 2.137 . S
Co70 O83 2.244 1_556 S
O71 Co70 2.216 . S
O71 C78 1.247 . S
O72 Co70 2.091 . S
O72 C78 1.261 . S
C73 O82 1.247 1_554 S
C73 O83 1.272 . S
O74 Co70 2.004 . S
O74 C79 1.259 . S
Co75 O76 2.061 . S
Co75 O81 2.052 . S
Co75 O83 2.135 . S
O76 Co75 2.061 . S
O76 C79 1.235 1_554 S
C77 O80 1.238 1_554 S
C77 O81 1.241 . S
C78 O71 1.247 . S
C78 O72 1.261 . S
C79 O74 1.259 . S
C79 O76 1.235 1_556 S
O80 Co70 2.021 . S
O80 C77 1.238 1_556 S
O81 Co75 2.052 . S
O81 C77 1.241 . S
O82 Co70 2.137 . S
O82 C73 1.247 1_556 S
O83 Co70 2.244 1_554 S
O83 C73 1.272 . S
O83 Co75 2.135 . S
Co84 O85 2.216 . S
Co84 O86 2.091 . S
Co84 O88 2.004 . S
Co84 O94 2.021 . S
Co84 O96 2.137 . S
Co84 O97 2.244 1_554 S
O85 Co84 2.216 . S
O85 C92 1.247 . S
O86 Co84 2.091 . S
O86 C92 1.261 . S
C87 O96 1.247 1_556 S
C87 O97 1.272 . S
O88 Co84 2.004 . S
O88 C93 1.259 . S
Co89 O90 2.061 . S
Co89 O95 2.052 . S
Co89 O97 2.135 . S
O90 Co89 2.061 . S
O90 C93 1.235 1_556 S
C91 O94 1.238 1_556 S
C91 O95 1.241 . S
C92 O85 1.247 . S
C92 O86 1.261 . S
C93 O88 1.259 . S
C93 O90 1.235 1_554 S
O94 Co84 2.021 . S
O94 C91 1.238 1_554 S
O95 Co89 2.052 . S
O95 C91 1.241 . S
O96 Co84 2.137 . S
O96 C87 1.247 1_554 S
O97 Co84 2.244 1_556 S
O97 C87 1.272 . S
O97 Co89 2.135 . S
Co98 O99 2.216 . S
Co98 O100 2.091 . S
Co98 O102 2.004 . S
Co98 O108 2.021 . S
Co98 O110 2.137 . S
Co98 O111 2.244 1_556 S
O99 Co98 2.216 . S
O99 C106 1.247 . S
O100 Co98 2.091 . S
O100 C106 1.261 . S
C101 O110 1.247 1_554 S
C101 O111 1.272 . S
O102 Co98 2.004 . S
O102 C107 1.259 . S
Co103 O104 2.061 . S
Co103 O109 2.052 . S
Co103 O111 2.135 . S
O104 Co103 2.061 . S
O104 C107 1.235 1_554 S
C105 O108 1.238 1_554 S
C105 O109 1.241 . S
C106 O99 1.247 . S
C106 O100 1.261 . S
C107 O102 1.259 . S
C107 O104 1.235 1_556 S
O108 Co98 2.021 . S
O108 C105 1.238 1_556 S
O109 Co103 2.052 . S
O109 C105 1.241 . S
O110 Co98 2.137 . S
O110 C101 1.247 1_556 S
O111 Co98 2.244 1_554 S
O111 C101 1.272 . S
O111 Co103 2.135 . S
Co112 O113 2.216 . S
Co112 O114 2.091 . S
Co112 O116 2.004 . S
Co112 O122 2.021 . S
Co112 O124 2.137 . S
Co112 O125 2.244 . S
O113 Co112 2.216 . S
O113 C120 1.247 . S
O114 Co112 2.091 . S
O114 C120 1.261 . S
C115 O124 1.247 . S
C115 O125 1.272 . S
O116 Co112 2.004 . S
O116 C121 1.259 . S
Co117 O118 2.061 1_554 S
Co117 O123 2.052 1_554 S
Co117 O125 2.135 1_554 S
O118 Co117 2.061 1_556 S
O118 C121 1.235 . S
C119 O122 1.238 . S
C119 O123 1.241 . S
C120 O113 1.247 . S
C120 O114 1.261 . S
C121 O116 1.259 . S
C121 O118 1.235 . S
O122 Co112 2.021 . S
O122 C119 1.238 . S
O123 Co117 2.052 1_556 S
O123 C119 1.241 . S
O124 Co112 2.137 . S
O124 C115 1.247 . S
O125 Co112 2.244 . S
O125 C115 1.272 . S
O125 Co117 2.135 1_556 S
Co126 O127 2.216 . S
Co126 O128 2.091 . S
Co126 O130 2.004 . S
Co126 O136 2.021 . S
Co126 O138 2.137 . S
Co126 O139 2.244 . S
O127 Co126 2.216 . S
O127 C134 1.247 . S
O128 Co126 2.091 . S
O128 C134 1.261 . S
C129 O138 1.247 . S
C129 O139 1.272 . S
O130 Co126 2.004 . S
O130 C135 1.259 . S
Co131 O132 2.061 1_556 S
Co131 O137 2.052 1_556 S
Co131 O139 2.135 1_556 S
O132 Co131 2.061 1_554 S
O132 C135 1.235 . S
C133 O136 1.238 . S
C133 O137 1.241 . S
C134 O127 1.247 . S
C134 O128 1.261 . S
C135 O130 1.259 . S
C135 O132 1.235 . S
O136 Co126 2.021 . S
O136 C133 1.238 . S
O137 Co131 2.052 1_554 S
O137 C133 1.241 . S
O138 Co126 2.137 . S
O138 C129 1.247 . S
O139 Co126 2.244 . S
O139 C129 1.272 . S
O139 Co131 2.135 1_554 S
Co140 O141 2.216 . S
Co140 O142 2.091 . S
Co140 O144 2.004 . S
Co140 O150 2.021 . S
Co140 O152 2.137 . S
Co140 O153 2.244 . S
O141 Co140 2.216 . S
O141 C148 1.247 . S
O142 Co140 2.091 . S
O142 C148 1.261 . S
C143 O152 1.247 . S
C143 O153 1.272 . S
O144 Co140 2.004 . S
O144 C149 1.259 . S
Co145 O146 2.061 1_554 S
Co145 O151 2.052 1_554 S
Co145 O153 2.135 1_554 S
O146 Co145 2.061 1_556 S
O146 C149 1.235 . S
C147 O150 1.238 . S
C147 O151 1.241 . S
C148 O141 1.247 . S
C148 O142 1.261 . S
C149 O144 1.259 . S
C149 O146 1.235 . S
O150 Co140 2.021 . S
O150 C147 1.238 . S
O151 Co145 2.052 1_556 S
O151 C147 1.241 . S
O152 Co140 2.137 . S
O152 C143 1.247 . S
O153 Co140 2.244 . S
O153 C143 1.272 . S
O153 Co145 2.135 1_556 S
Co154 O155 2.216 . S
Co154 O156 2.091 . S
Co154 O158 2.004 . S
Co154 O164 2.021 . S
Co154 O166 2.137 . S
Co154 O167 2.244 . S
O155 Co154 2.216 . S
O155 C162 1.247 . S
O156 Co154 2.091 . S
O156 C162 1.261 . S
C157 O166 1.247 . S
C157 O167 1.272 . S
O158 Co154 2.004 . S
O158 C163 1.259 . S
Co159 O160 2.061 1_556 S
Co159 O165 2.052 1_556 S
Co159 O167 2.135 1_556 S
O160 Co159 2.061 1_554 S
O160 C163 1.235 . S
C161 O164 1.238 . S
C161 O165 1.241 . S
C162 O155 1.247 . S
C162 O156 1.261 . S
C163 O158 1.259 . S
C163 O160 1.235 . S
O164 Co154 2.021 . S
O164 C161 1.238 . S
O165 Co159 2.052 1_554 S
O165 C161 1.241 . S
O166 Co154 2.137 . S
O166 C157 1.247 . S
O167 Co154 2.244 . S
O167 C157 1.272 . S
O167 Co159 2.135 1_554 S
Co168 O169 2.216 . S
Co168 O170 2.091 . S
Co168 O172 2.004 . S
Co168 O178 2.021 . S
Co168 O180 2.137 . S
Co168 O181 2.244 . S
O169 Co168 2.216 . S
O169 C176 1.247 . S
O170 Co168 2.091 . S
O170 C176 1.261 . S
C171 O180 1.247 . S
C171 O181 1.272 . S
O172 Co168 2.004 . S
O172 C177 1.259 . S
Co173 O174 2.061 . S
Co173 O179 2.052 . S
Co173 O181 2.135 . S
O174 Co173 2.061 . S
O174 C177 1.235 . S
C175 O178 1.238 . S
C175 O179 1.241 . S
C176 O169 1.247 . S
C176 O170 1.261 . S
C177 O172 1.259 . S
C177 O174 1.235 . S
O178 Co168 2.021 . S
O178 C175 1.238 . S
O179 Co173 2.052 . S
O179 C175 1.241 . S
O180 Co168 2.137 . S
O180 C171 1.247 . S
O181 Co168 2.244 . S
O181 C171 1.272 . S
O181 Co173 2.135 . S
Co182 O183 2.216 . S
Co182 O184 2.091 . S
Co182 O186 2.004 . S
Co182 O192 2.021 . S
Co182 O194 2.137 . S
Co182 O195 2.244 . S
O183 Co182 2.216 . S
O183 C190 1.247 . S
O184 Co182 2.091 . S
O184 C190 1.261 . S
C185 O194 1.247 . S
C185 O195 1.272 . S
O186 Co182 2.004 . S
O186 C191 1.259 . S
Co187 O188 2.061 . S
Co187 O193 2.052 . S
Co187 O195 2.135 . S
O188 Co187 2.061 . S
O188 C191 1.235 . S
C189 O192 1.238 . S
C189 O193 1.241 . S
C190 O183 1.247 . S
C190 O184 1.261 . S
C191 O186 1.259 . S
C191 O188 1.235 . S
O192 Co182 2.021 . S
O192 C189 1.238 . S
O193 Co187 2.052 . S
O193 C189 1.241 . S
O194 Co182 2.137 . S
O194 C185 1.247 . S
O195 Co182 2.244 . S
O195 C185 1.272 . S
O195 Co187 2.135 . S
Co196 O197 2.216 . S
Co196 O198 2.091 . S
Co196 O200 2.004 . S
Co196 O206 2.021 . S
Co196 O208 2.137 . S
Co196 O209 2.244 . S
O197 Co196 2.216 . S
O197 C204 1.247 . S
O198 Co196 2.091 . S
O198 C204 1.261 . S
C199 O208 1.247 . S
C199 O209 1.272 . S
O200 Co196 2.004 . S
O200 C205 1.259 . S
Co201 O202 2.061 . S
Co201 O207 2.052 . S
Co201 O209 2.135 . S
O202 Co201 2.061 . S
O202 C205 1.235 . S
C203 O206 1.238 . S
C203 O207 1.241 . S
C204 O197 1.247 . S
C204 O198 1.261 . S
C205 O200 1.259 . S
C205 O202 1.235 . S
O206 Co196 2.021 . S
O206 C203 1.238 . S
O207 Co201 2.052 . S
O207 C203 1.241 . S
O208 Co196 2.137 . S
O208 C199 1.247 . S
O209 Co196 2.244 . S
O209 C199 1.272 . S
O209 Co201 2.135 . S
Co210 O211 2.216 . S
Co210 O212 2.091 . S
Co210 O214 2.004 . S
Co210 O220 2.021 . S
Co210 O222 2.137 . S
Co210 O223 2.244 . S
O211 Co210 2.216 . S
O211 C218 1.247 . S
O212 Co210 2.091 . S
O212 C218 1.261 . S
C213 O222 1.247 . S
C213 O223 1.272 . S
O214 Co210 2.004 . S
O214 C219 1.259 . S
Co215 O216 2.061 . S
Co215 O221 2.052 . S
Co215 O223 2.135 . S
O216 Co215 2.061 . S
O216 C219 1.235 . S
C217 O220 1.238 . S
C217 O221 1.241 . S
C218 O211 1.247 . S
C218 O212 1.261 . S
C219 O214 1.259 . S
C219 O216 1.235 . S
O220 Co210 2.021 . S
O220 C217 1.238 . S
O221 Co215 2.052 . S
O221 C217 1.241 . S
O222 Co210 2.137 . S
O222 C213 1.247 . S
O223 Co210 2.244 . S
O223 C213 1.272 . S
O223 Co215 2.135 . S
C163 C3 1.477 1_565 S
C17 C121 1.477 1_455 S
C31 C135 1.477 1_565 S
C149 C45 1.477 1_455 S
C59 C79 1.477 . S
C73 C93 1.477 . S
C107 C87 1.477 . S
C65 C101 1.477 . S
C51 C115 1.477 . S
C129 C9 1.477 . S
C23 C143 1.477 . S
C157 C37 1.477 . S
C171 C191 1.477 1_565 S
C185 C205 1.477 1_655 S
C219 C199 1.477 1_565 S
C177 C213 1.477 1_655 S
C63 C7 2.586 1_556 S
C21 C77 2.586 1_556 S
C35 C91 2.586 1_554 S
C105 C49 2.586 1_554 S
C119 C175 2.586 . S
C189 C133 2.586 . S
C147 C203 2.586 . S
C217 C161 2.586 . S
C204 C8 1.769 . S
C218 C22 1.769 . S
C36 C176 1.770 . S
C190 C50 1.770 . S
C148 C64 1.770 . S
C162 C78 1.770 . S
C92 C120 1.769 . S
C134 C106 1.769 . S
