# Generated by pormake.
# Topology cdl, (4)-cn, num edge types: 1
# Building blocks:
#     Node 0, Type 0, BuildingBlock: NAWXER_clean_sbu_0, # of connection points: 4
#     Node 1, Type 0, BuildingBlock: NAWXER_clean_sbu_0, # of connection points: 4
#     Node 2, Type 0, BuildingBlock: NAWXER_clean_sbu_0, # of connection points: 4
#     Node 3, Type 0, BuildingBlock: NAWXER_clean_sbu_0, # of connection points: 4
#     Edge 4, Type (0, 0), BuildingBlock: AJUNOK_clean_linker_0, # of connection points: 2
#     Edge 5, Type (0, 0), BuildingBlock: AJUNOK_clean_linker_0, # of connection points: 2
#     Edge 6, Type (0, 0), BuildingBlock: AJUNOK_clean_linker_0, # of connection points: 2
#     Edge 7, Type (0, 0), BuildingBlock: AJUNOK_clean_linker_0, # of connection points: 2
#     Edge 8, Type (0, 0), BuildingBlock: AJUNOK_clean_linker_0, # of connection points: 2
#     Edge 9, Type (0, 0), BuildingBlock: AJUNOK_clean_linker_0, # of connection points: 2
#     Edge 10, Type (0, 0), BuildingBlock: AJUNOK_clean_linker_0, # of connection points: 2
#     Edge 11, Type (0, 0), BuildingBlock: AJUNOK_clean_linker_0, # of connection points: 2
# Relax obj value: 0.000
# Max RMSD: 0.004
# Mean RMSD: 0.004
data_MOF--net-cdl--node1-NAWXER_clean_sbu_0--edge1-AJUNOK_clean_linker_0
_symmetry_space_group_name_H-M    P1
_symmetry_Int_Tables_number       1
_symmetry_cell_setting            triclinic
loop_
_symmetry_equiv_pos_as_xyz
'x, y, z'
_cell_length_a     10.740003
_cell_length_b     10.742747
_cell_length_c     42.404598
_cell_angle_alpha  95.692056
_cell_angle_beta   95.917153
_cell_angle_gamma 89.099281
loop_
_atom_site_label
_atom_site_type_symbol
_atom_site_fract_x
_atom_site_fract_y
_atom_site_fract_z
_atom_type_partial_charge
C0 C 0.82791 0.44255 0.14205 0.0
C1 C 0.82706 0.98475 0.13925 0.0
O2 O 0.93691 0.39218 0.1448 0.0
Zn3 Zn 0.02134 0.21239 0.14593 0.0
O4 O 0.73171 0.3732 0.13934 0.0
Zn5 Zn 0.8221 0.21376 0.14058 0.0
O6 O 0.90896 0.22257 0.18932 0.0
O7 O 0.11356 0.21943 0.18717 0.0
O8 O 0.73088 0.05525 0.13689 0.0
O9 O 0.93601 0.03395 0.14238 0.0
O10 O 0.11462 0.20096 0.10962 0.0
O11 O 0.91065 0.20135 0.09656 0.0
C12 C 0.02064 0.22243 0.20348 0.0
C13 C 0.02248 0.19765 0.08824 0.0
C14 C 0.34818 0.87568 0.64494 0.0
C15 C 0.89051 0.87509 0.64261 0.0
O16 O 0.2796 0.7793 0.64359 0.0
Zn17 Zn 0.12018 0.86914 0.64356 0.0
O18 O 0.29693 0.98447 0.64584 0.0
Zn19 Zn 0.11564 0.06954 0.64527 0.0
O20 O 0.12327 0.17017 0.68573 0.0
O21 O 0.13601 0.96718 0.69062 0.0
O22 O 0.9389 0.98373 0.64365 0.0
O23 O 0.96159 0.77923 0.64181 0.0
O24 O 0.10978 0.94484 0.59827 0.0
O25 O 0.10347 0.15071 0.60623 0.0
C26 C 0.13455 0.0806 0.70331 0.0
C27 C 0.10531 0.0518 0.58714 0.0
C28 C 0.33823 0.39329 0.90824 0.0
C29 C 0.33831 0.93589 0.90642 0.0
O30 O 0.43402 0.32348 0.91256 0.0
Zn31 Zn 0.34374 0.16408 0.90764 0.0
O32 O 0.2297 0.34338 0.90306 0.0
Zn33 Zn 0.14479 0.16523 0.89812 0.0
O34 O 0.03958 0.1763 0.93225 0.0
O35 O 0.2406 0.17619 0.94917 0.0
O36 O 0.22967 0.98542 0.9012 0.0
O37 O 0.4342 1.00597 0.91138 0.0
O38 O 0.27223 0.14717 0.8577 0.0
O39 O 0.06575 0.15684 0.85526 0.0
C40 C 0.12567 0.17938 0.9552 0.0
C41 C 0.16491 0.14756 0.84126 0.0
C42 C 0.29884 0.92092 0.38236 0.0
C43 C 0.84112 0.92141 0.3802 0.0
O44 O 0.22863 0.82516 0.37699 0.0
Zn45 Zn 0.07085 0.91467 0.38139 0.0
O46 O 0.24981 0.029 0.38873 0.0
Zn47 Zn 0.07029 0.11387 0.39353 0.0
O48 O 0.08284 0.18108 0.43794 0.0
O49 O 0.08647 0.97493 0.43139 0.0
O50 O 0.89168 0.02908 0.38715 0.0
O51 O 0.91045 0.82622 0.37474 0.0
O52 O 0.06329 0.02653 0.34192 0.0
O53 O 0.05619 0.22639 0.36031 0.0
C54 C 0.09015 0.07696 0.44993 0.0
C55 C 0.05824 0.14248 0.33702 0.0
C56 C 0.93117 0.6484 0.1433 0.0
C57 C 0.81919 0.58058 0.14131 0.0
C58 C 0.93091 0.77753 0.1423 0.0
C59 C 0.81865 0.84668 0.13933 0.0
H60 H 0.02133 0.60173 0.14561 0.0
H61 H 0.02092 0.82316 0.14401 0.0
S62 S 0.4983 0.7154 0.13316 0.0
N63 N 0.59156 0.59237 0.13609 0.0
N64 N 0.59109 0.8374 0.13436 0.0
C65 C 0.70513 0.78087 0.13726 0.0
C66 C 0.7054 0.64762 0.13823 0.0
C67 C 0.55494 0.97908 0.6483 0.0
C68 C 0.48651 0.86715 0.64496 0.0
C69 C 0.6842 0.97891 0.64748 0.0
C70 C 0.75274 0.86679 0.64332 0.0
H71 H 0.50859 0.06907 0.6515 0.0
H72 H 0.7304 0.06882 0.65018 0.0
S73 S 0.61994 0.54667 0.63386 0.0
N74 N 0.49728 0.63974 0.6376 0.0
N75 N 0.74248 0.63946 0.63617 0.0
C76 C 0.68648 0.75333 0.64024 0.0
C77 C 0.55316 0.7535 0.64104 0.0
C78 C 0.23521 0.59934 0.9023 0.0
C79 C 0.34678 0.53139 0.90832 0.0
C80 C 0.23527 0.72863 0.90164 0.0
C81 C 0.34686 0.79778 0.90701 0.0
H82 H 0.14552 0.55267 0.89793 0.0
H83 H 0.14563 0.77436 0.89687 0.0
S84 S 0.66595 0.66628 0.92389 0.0
N85 N 0.5733 0.54312 0.91975 0.0
N86 N 0.57342 0.78843 0.91861 0.0
C87 C 0.45999 0.73187 0.91308 0.0
C88 C 0.45994 0.59847 0.91372 0.0
C89 C 0.50384 0.02496 0.38252 0.0
C90 C 0.4364 0.91284 0.38068 0.0
C91 C 0.63319 0.02502 0.38176 0.0
C92 C 0.70266 0.91297 0.37915 0.0
H93 H 0.45672 0.11485 0.38466 0.0
H94 H 0.67885 0.11498 0.38344 0.0
S95 S 0.57191 0.5925 0.37259 0.0
N96 N 0.44858 0.68538 0.37532 0.0
N97 N 0.69381 0.68555 0.37397 0.0
C98 C 0.63692 0.79937 0.3767 0.0
C99 C 0.5036 0.79929 0.37745 0.0
C100 C 0.19263 0.18979 1.01373 0.0
C101 C 0.09517 0.18449 0.98875 0.0
C102 C 0.16798 0.19338 0.04561 0.0
C103 C 0.04461 0.19185 0.05404 0.0
H104 H 0.28952 0.19123 1.00874 0.0
H105 H 0.24683 0.19775 0.06377 0.0
S106 S 0.75482 0.17684 0.99775 0.0
N107 N 0.86958 0.17683 0.97469 0.0
N108 N 0.82321 0.18359 0.03456 0.0
C109 C 0.94589 0.18617 0.02932 0.0
C110 C 0.97106 0.18253 0.99675 0.0
C111 C 0.0686 0.176 0.50545 0.0
C112 C 0.10014 0.07148 0.48499 0.0
C113 C 0.07127 0.16962 0.53848 0.0
C114 C 0.10548 0.05844 0.55229 0.0
H115 H 0.03938 0.26282 0.49587 0.0
H116 H 0.04449 0.2519 0.5532 0.0
S117 S 0.20882 0.762 0.50953 0.0
N118 N 0.17523 0.85606 0.48134 0.0
N119 N 0.18009 0.84404 0.543 0.0
C120 C 0.14063 0.95443 0.53215 0.0
C121 C 0.13803 0.96096 0.49864 0.0
C122 C 0.96306 0.25152 0.29086 0.0
C123 C 0.05829 0.17579 0.30417 0.0
C124 C 0.95301 0.269 0.25828 0.0
C125 C 0.04001 0.21424 0.23828 0.0
H126 H 0.89278 0.29263 0.30536 0.0
H127 H 0.87556 0.3241 0.24857 0.0
S128 S 0.31162 1.01495 0.26263 0.0
N129 N 0.24351 0.0498 0.29558 0.0
N130 N 0.22778 0.08591 0.23474 0.0
C131 C 0.139 0.14316 0.25182 0.0
C132 C 0.14722 0.12299 0.2847 0.0
C133 C 0.23022 0.03533 0.75702 0.0
C134 C 0.14461 0.10486 0.73832 0.0
C135 C 0.23801 0.05188 0.79037 0.0
C136 C 0.15746 0.1354 0.80613 0.0
H137 H 0.29199 0.96791 0.74575 0.0
H138 H 0.30542 0.99663 0.80391 0.0
S139 S 0.91657 0.33912 0.76806 0.0
N140 N 0.97937 0.2619 0.73788 0.0
N141 N 0.99035 0.28938 0.80065 0.0
C142 C 0.0712 0.20525 0.78773 0.0
C143 C 0.06581 0.19103 0.75377 0.0
loop_
_geom_bond_atom_site_label_1
_geom_bond_atom_site_label_2
_geom_bond_distance
_geom_bond_site_symmetry_2
_ccdc_geom_bond_type
C0 O2 1.247 . S
C0 O4 1.258 1_455 S
C1 O8 1.247 1_455 S
C1 O9 1.258 . S
O2 C0 1.247 . S
O2 Zn3 2.028 . S
Zn3 O2 2.028 . S
Zn3 O7 2.035 . S
Zn3 O9 2.035 1_545 S
Zn3 O10 2.028 . S
O4 C0 1.258 1_655 S
O4 Zn5 2.035 . S
Zn5 O4 2.035 . S
Zn5 O6 2.028 . S
Zn5 O8 2.028 1_545 S
Zn5 O11 2.035 . S
O6 Zn5 2.028 . S
O6 C12 1.247 1_655 S
O7 Zn3 2.035 . S
O7 C12 1.258 . S
O8 C1 1.247 1_655 S
O8 Zn5 2.028 1_565 S
O9 C1 1.258 . S
O9 Zn3 2.035 1_565 S
O10 Zn3 2.028 . S
O10 C13 1.247 . S
O11 Zn5 2.035 . S
O11 C13 1.258 1_655 S
C12 O6 1.247 1_455 S
C12 O7 1.258 . S
C13 O10 1.247 . S
C13 O11 1.258 1_455 S
C14 O16 1.247 1_545 S
C14 O18 1.258 . S
C15 O22 1.247 . S
C15 O23 1.258 1_545 S
O16 C14 1.247 1_565 S
O16 Zn17 2.028 . S
Zn17 O16 2.028 . S
Zn17 O21 2.035 . S
Zn17 O23 2.035 1_455 S
Zn17 O24 2.028 . S
O18 C14 1.258 . S
O18 Zn19 2.035 . S
Zn19 O18 2.035 . S
Zn19 O20 2.028 . S
Zn19 O22 2.028 1_455 S
Zn19 O25 2.035 . S
O20 Zn19 2.028 . S
O20 C26 1.247 . S
O21 Zn17 2.035 . S
O21 C26 1.258 1_565 S
O22 C15 1.247 . S
O22 Zn19 2.028 1_655 S
O23 C15 1.258 1_565 S
O23 Zn17 2.035 1_655 S
O24 Zn17 2.028 . S
O24 C27 1.247 1_565 S
O25 Zn19 2.035 . S
O25 C27 1.258 . S
C26 O20 1.247 . S
C26 O21 1.258 1_545 S
C27 O24 1.247 1_545 S
C27 O25 1.258 . S
C28 O30 1.247 . S
C28 O32 1.258 1_455 S
C29 O36 1.247 1_455 S
C29 O37 1.258 . S
O30 C28 1.247 . S
O30 Zn31 2.028 . S
Zn31 O30 2.028 . S
Zn31 O35 2.035 . S
Zn31 O37 2.035 1_545 S
Zn31 O38 2.028 . S
O32 C28 1.258 1_655 S
O32 Zn33 2.035 . S
Zn33 O32 2.035 . S
Zn33 O34 2.028 . S
Zn33 O36 2.028 1_545 S
Zn33 O39 2.035 . S
O34 Zn33 2.028 . S
O34 C40 1.247 1_655 S
O35 Zn31 2.035 . S
O35 C40 1.258 . S
O36 C29 1.247 1_655 S
O36 Zn33 2.028 1_565 S
O37 C29 1.258 . S
O37 Zn31 2.035 1_565 S
O38 Zn31 2.028 . S
O38 C41 1.247 . S
O39 Zn33 2.035 . S
O39 C41 1.258 1_655 S
C40 O34 1.247 1_455 S
C40 O35 1.258 . S
C41 O38 1.247 . S
C41 O39 1.258 1_455 S
C42 O44 1.247 1_545 S
C42 O46 1.258 . S
C43 O50 1.247 . S
C43 O51 1.258 1_545 S
O44 C42 1.247 1_565 S
O44 Zn45 2.028 . S
Zn45 O44 2.028 . S
Zn45 O49 2.035 . S
Zn45 O51 2.035 1_455 S
Zn45 O52 2.028 . S
O46 C42 1.258 . S
O46 Zn47 2.035 . S
Zn47 O46 2.035 . S
Zn47 O48 2.028 . S
Zn47 O50 2.028 1_455 S
Zn47 O53 2.035 . S
O48 Zn47 2.028 . S
O48 C54 1.247 . S
O49 Zn45 2.035 . S
O49 C54 1.258 1_565 S
O50 C43 1.247 . S
O50 Zn47 2.028 1_655 S
O51 C43 1.258 1_565 S
O51 Zn45 2.035 1_655 S
O52 Zn45 2.028 . S
O52 C55 1.247 1_565 S
O53 Zn47 2.035 . S
O53 C55 1.258 . S
C54 O48 1.247 . S
C54 O49 1.258 1_545 S
C55 O52 1.247 1_545 S
C55 O53 1.258 . S
C56 C57 1.369 . S
C56 C58 1.419 . S
C56 H60 0.930 . S
C57 C56 1.369 . S
C57 C66 1.429 . S
C58 C56 1.419 . S
C58 C59 1.363 . S
C58 H61 0.929 . S
C59 C58 1.363 . S
C59 C65 1.428 . S
H60 C56 0.930 . S
H61 C58 0.929 . S
S62 N63 1.613 1_655 S
S62 N64 1.610 1_655 S
N63 S62 1.613 1_455 S
N63 C66 1.350 . S
N64 S62 1.610 1_455 S
N64 C65 1.351 . S
C65 C59 1.428 . S
C65 N64 1.351 . S
C65 C66 1.434 . S
C66 C57 1.429 . S
C66 N63 1.350 . S
C66 C65 1.434 . S
C67 C68 1.369 . S
C67 C69 1.419 . S
C67 H71 0.930 . S
C68 C67 1.369 . S
C68 C77 1.429 1_545 S
C69 C67 1.419 . S
C69 C70 1.363 . S
C69 H72 0.929 . S
C70 C69 1.363 . S
C70 C76 1.427 1_545 S
H71 C67 0.930 . S
H72 C69 0.929 . S
S73 N74 1.613 . S
S73 N75 1.610 . S
N74 S73 1.613 . S
N74 C77 1.349 . S
N75 S73 1.610 . S
N75 C76 1.353 . S
C76 C70 1.427 1_565 S
C76 N75 1.353 . S
C76 C77 1.434 . S
C77 C68 1.429 1_565 S
C77 N74 1.349 . S
C77 C76 1.434 . S
C78 C79 1.369 1_655 S
C78 C80 1.419 . S
C78 H82 0.930 . S
C79 C78 1.369 1_455 S
C79 C88 1.429 . S
C80 C78 1.419 . S
C80 C81 1.363 1_655 S
C80 H83 0.929 . S
C81 C80 1.363 1_455 S
C81 C87 1.428 . S
H82 C78 0.930 . S
H83 C80 0.929 . S
S84 N85 1.613 . S
S84 N86 1.610 . S
N85 S84 1.613 . S
N85 C88 1.350 . S
N86 S84 1.610 . S
N86 C87 1.351 . S
C87 C81 1.428 . S
C87 N86 1.351 . S
C87 C88 1.434 . S
C88 C79 1.429 . S
C88 N85 1.350 . S
C88 C87 1.434 . S
C89 C90 1.369 . S
C89 C91 1.419 . S
C89 H93 0.930 . S
C90 C89 1.369 . S
C90 C99 1.429 1_545 S
C91 C89 1.419 . S
C91 C92 1.363 . S
C91 H94 0.929 . S
C92 C91 1.363 . S
C92 C98 1.428 1_545 S
H93 C89 0.930 . S
H94 C91 0.929 . S
S95 N96 1.613 . S
S95 N97 1.610 . S
N96 S95 1.613 . S
N96 C99 1.350 . S
N97 S95 1.610 . S
N97 C98 1.351 . S
C98 C92 1.428 1_565 S
C98 N97 1.351 . S
C98 C99 1.434 . S
C99 C90 1.429 1_565 S
C99 N96 1.350 . S
C99 C98 1.434 . S
C100 C101 1.369 1_565 S
C100 C102 1.419 1_556 S
C100 H104 0.930 . S
C101 C100 1.369 1_545 S
C101 C110 1.429 1_455 S
C102 C100 1.419 1_554 S
C102 C103 1.363 1_565 S
C102 H105 0.929 . S
C103 C102 1.363 1_545 S
C103 C109 1.428 1_455 S
H104 C100 0.930 . S
H105 C102 0.929 . S
S106 N107 1.613 1_554 S
S106 N108 1.610 . S
N107 S106 1.613 1_556 S
N107 C110 1.350 . S
N108 S106 1.610 . S
N108 C109 1.351 . S
C109 C103 1.428 1_655 S
C109 N108 1.351 . S
C109 C110 1.434 1_554 S
C110 C101 1.429 1_655 S
C110 N107 1.350 . S
C110 C109 1.434 1_556 S
C111 C112 1.368 1_655 S
C111 C113 1.419 . S
C111 H115 0.931 . S
C112 C111 1.368 1_455 S
C112 C121 1.429 1_545 S
C113 C111 1.419 . S
C113 C114 1.363 1_655 S
C113 H116 0.929 . S
C114 C113 1.363 1_455 S
C114 C120 1.428 1_545 S
H115 C111 0.931 . S
H116 C113 0.929 . S
S117 N118 1.613 . S
S117 N119 1.610 . S
N118 S117 1.613 . S
N118 C121 1.350 . S
N119 S117 1.610 . S
N119 C120 1.351 . S
C120 C114 1.428 1_565 S
C120 N119 1.351 . S
C120 C121 1.434 . S
C121 C112 1.429 1_565 S
C121 N118 1.350 . S
C121 C120 1.434 . S
C122 C123 1.369 1_655 S
C122 C124 1.419 . S
C122 H126 0.930 . S
C123 C122 1.369 1_455 S
C123 C132 1.429 . S
C124 C122 1.419 . S
C124 C125 1.363 1_655 S
C124 H127 0.929 . S
C125 C124 1.363 1_455 S
C125 C131 1.428 . S
H126 C122 0.930 . S
H127 C124 0.929 . S
S128 N129 1.613 1_565 S
S128 N130 1.610 1_565 S
N129 S128 1.613 1_545 S
N129 C132 1.351 . S
N130 S128 1.610 1_545 S
N130 C131 1.351 . S
C131 C125 1.428 . S
C131 N130 1.351 . S
C131 C132 1.434 . S
C132 C123 1.429 . S
C132 N129 1.351 . S
C132 C131 1.434 . S
C133 C134 1.369 1_565 S
C133 C135 1.419 . S
C133 H137 0.930 . S
C134 C133 1.369 1_545 S
C134 C143 1.429 . S
C135 C133 1.419 . S
C135 C136 1.363 1_565 S
C135 H138 0.929 . S
C136 C135 1.363 1_545 S
C136 C142 1.428 . S
H137 C133 0.930 . S
H138 C135 0.929 . S
S139 N140 1.613 1_655 S
S139 N141 1.610 1_655 S
N140 S139 1.613 1_455 S
N140 C143 1.350 . S
N141 S139 1.610 1_455 S
N141 C142 1.351 . S
C142 C136 1.428 . S
C142 N141 1.351 . S
C142 C143 1.434 . S
C143 C134 1.429 . S
C143 N140 1.350 . S
C143 C142 1.434 . S
C57 C0 1.498 . S
C59 C1 1.499 . S
C68 C14 1.498 . S
C70 C15 1.499 . S
C79 C28 1.498 . S
C81 C29 1.498 . S
C90 C42 1.498 . S
C92 C43 1.499 . S
C101 C40 1.498 . S
C103 C13 1.499 . S
C112 C54 1.499 . S
C114 C27 1.499 . S
C123 C55 1.500 . S
C125 C12 1.499 . S
C134 C26 1.499 . S
C136 C41 1.499 . S
