# Generated by pormake.
# Topology ukk, (4)-cn, num edge types: 1
# Building blocks:
#     Node 0, Type 0, BuildingBlock: QUQFOY_clean_sbu_1, # of connection points: 4
#     Node 1, Type 0, BuildingBlock: QUQFOY_clean_sbu_1, # of connection points: 4
#     Node 2, Type 0, BuildingBlock: QUQFOY_clean_sbu_1, # of connection points: 4
#     Node 3, Type 0, BuildingBlock: QUQFOY_clean_sbu_1, # of connection points: 4
#     Node 4, Type 0, BuildingBlock: QUQFOY_clean_sbu_1, # of connection points: 4
#     Node 5, Type 0, BuildingBlock: QUQFOY_clean_sbu_1, # of connection points: 4
#     Node 6, Type 0, BuildingBlock: QUQFOY_clean_sbu_1, # of connection points: 4
#     Node 7, Type 0, BuildingBlock: QUQFOY_clean_sbu_1, # of connection points: 4
#     Node 8, Type 0, BuildingBlock: QUQFOY_clean_sbu_1, # of connection points: 4
#     Node 9, Type 0, BuildingBlock: QUQFOY_clean_sbu_1, # of connection points: 4
#     Node 10, Type 0, BuildingBlock: QUQFOY_clean_sbu_1, # of connection points: 4
#     Node 11, Type 0, BuildingBlock: QUQFOY_clean_sbu_1, # of connection points: 4
#     Node 12, Type 0, BuildingBlock: QUQFOY_clean_sbu_1, # of connection points: 4
#     Node 13, Type 0, BuildingBlock: QUQFOY_clean_sbu_1, # of connection points: 4
#     Node 14, Type 0, BuildingBlock: QUQFOY_clean_sbu_1, # of connection points: 4
#     Node 15, Type 0, BuildingBlock: QUQFOY_clean_sbu_1, # of connection points: 4
#     Edge 16, Type (0, 0), None
#     Edge 17, Type (0, 0), None
#     Edge 18, Type (0, 0), None
#     Edge 19, Type (0, 0), None
#     Edge 20, Type (0, 0), None
#     Edge 21, Type (0, 0), None
#     Edge 22, Type (0, 0), None
#     Edge 23, Type (0, 0), None
#     Edge 24, Type (0, 0), None
#     Edge 25, Type (0, 0), None
#     Edge 26, Type (0, 0), None
#     Edge 27, Type (0, 0), None
#     Edge 28, Type (0, 0), None
#     Edge 29, Type (0, 0), None
#     Edge 30, Type (0, 0), None
#     Edge 31, Type (0, 0), None
#     Edge 32, Type (0, 0), None
#     Edge 33, Type (0, 0), None
#     Edge 34, Type (0, 0), None
#     Edge 35, Type (0, 0), None
#     Edge 36, Type (0, 0), None
#     Edge 37, Type (0, 0), None
#     Edge 38, Type (0, 0), None
#     Edge 39, Type (0, 0), None
#     Edge 40, Type (0, 0), None
#     Edge 41, Type (0, 0), None
#     Edge 42, Type (0, 0), None
#     Edge 43, Type (0, 0), None
#     Edge 44, Type (0, 0), None
#     Edge 45, Type (0, 0), None
#     Edge 46, Type (0, 0), None
#     Edge 47, Type (0, 0), None
# Relax obj value: 0.046
# Max RMSD: 0.165
# Mean RMSD: 0.165
data_MOF--net-ukk--node1-QUQFOY_clean_sbu_1--edge1-none
_symmetry_space_group_name_H-M    P1
_symmetry_Int_Tables_number       1
_symmetry_cell_setting            triclinic
loop_
_symmetry_equiv_pos_as_xyz
'x, y, z'
_cell_length_a     23.062773
_cell_length_b     23.06276
_cell_length_c     10.363708
_cell_angle_alpha  89.998179
_cell_angle_beta   89.998368
_cell_angle_gamma 90.00004
loop_
_atom_site_label
_atom_site_type_symbol
_atom_site_fract_x
_atom_site_fract_y
_atom_site_fract_z
_atom_type_partial_charge
O0 O 0.34621 0.21578 0.14756 0.0
Cd1 Cd 0.37122 0.1327 0.13174 0.0
Cd2 Cd 0.37114 0.14282 0.38737 0.0
O3 O 0.30856 0.20467 0.34151 0.0
O4 O 0.33968 0.10507 0.96242 0.0
O5 O 0.29821 0.08536 0.15034 0.0
C6 C 0.29508 0.08633 1.02612 0.0
C7 C 0.37239 0.0459 0.44778 0.0
C8 C 0.31559 0.23509 0.23941 0.0
C9 C 0.48343 0.15528 0.26715 0.0
O10 O 0.45114 0.17356 0.3572 0.0
O11 O 0.46184 0.12632 0.17276 0.0
O12 O 0.3713 0.08505 0.53733 0.0
O13 O 0.36814 0.06231 0.32945 0.0
O14 O 0.21577 0.68666 1.09186 0.0
Cd15 Cd 0.1327 0.66166 1.10768 0.0
Cd16 Cd 0.14282 0.66173 0.85205 0.0
O17 O 0.20468 0.72431 0.89792 0.0
O18 O 0.10507 0.6932 0.277 0.0
O19 O 0.08536 0.73466 1.08908 0.0
C20 C 0.08633 0.73779 0.2133 0.0
C21 C 0.0459 0.66048 0.79162 0.0
C22 C 0.23509 0.71728 1.00001 0.0
C23 C 0.15528 0.54944 0.97227 0.0
O24 O 0.17356 0.58174 0.88222 0.0
O25 O 0.12632 0.57104 1.06666 0.0
O26 O 0.08505 0.66157 0.70209 0.0
O27 O 0.06231 0.66473 0.90997 0.0
O28 O 0.68666 0.8171 0.14756 0.0
Cd29 Cd 0.66166 0.90017 0.13175 0.0
Cd30 Cd 0.66173 0.89005 0.38737 0.0
O31 O 0.72431 0.8282 0.3415 0.0
O32 O 0.6932 0.92781 0.96242 0.0
O33 O 0.73466 0.94752 0.15034 0.0
C34 C 0.73779 0.94655 1.02612 0.0
C35 C 0.66048 0.98697 0.4478 0.0
C36 C 0.71728 0.79778 0.23941 0.0
C37 C 0.54944 0.8776 0.26714 0.0
O38 O 0.58174 0.85931 0.35721 0.0
O39 O 0.57104 0.90656 0.17277 0.0
O40 O 0.66157 0.94782 0.53733 0.0
O41 O 0.66473 0.97056 0.32945 0.0
O42 O 0.8171 0.34621 1.09187 0.0
Cd43 Cd 0.90017 0.37121 1.10768 0.0
Cd44 Cd 0.89005 0.37114 0.85205 0.0
O45 O 0.8282 0.30856 0.89792 0.0
O46 O 0.9278 0.33967 0.277 0.0
O47 O 0.94752 0.29822 1.08908 0.0
C48 C 0.94655 0.29508 0.2133 0.0
C49 C 0.98697 0.37239 0.79164 0.0
C50 C 0.79778 0.31559 1.00002 0.0
C51 C 0.87759 0.48343 0.97228 0.0
O52 O 0.85931 0.45114 0.88222 0.0
O53 O 0.90655 0.46183 1.06665 0.0
O54 O 0.94782 0.3713 0.70209 0.0
O55 O 0.97056 0.36815 0.90997 0.0
O56 O 0.34613 0.31712 0.34176 0.0
Cd57 Cd 0.37117 0.40018 0.35763 0.0
Cd58 Cd 0.37114 0.39005 1.10188 0.0
O59 O 0.30856 0.32818 0.14766 0.0
O60 O 0.33965 0.42777 0.527 0.0
O61 O 0.2982 0.44757 0.33912 0.0
C62 C 0.29507 0.44655 0.46334 0.0
C63 C 0.37238 0.48698 1.04155 0.0
C64 C 0.31554 0.29782 0.24986 0.0
C65 C 0.48341 0.37759 0.22229 0.0
O66 O 0.45114 0.35933 0.13217 0.0
O67 O 0.4618 0.40654 0.31667 0.0
O68 O 0.37134 0.44785 0.95196 0.0
O69 O 0.36809 0.47054 0.15986 0.0
O70 O 0.31713 0.68674 0.89766 0.0
Cd71 Cd 0.40019 0.6617 0.88179 0.0
Cd72 Cd 0.39004 0.66173 0.13756 0.0
O73 O 0.32818 0.72431 1.09176 0.0
O74 O 0.42778 0.69322 0.71242 0.0
O75 O 0.44757 0.73467 0.9003 0.0
C76 C 0.44655 0.73781 0.77608 0.0
C77 C 0.48697 0.66049 0.19789 0.0
C78 C 0.29782 0.71733 0.98957 0.0
C79 C 0.37759 0.54946 1.01713 0.0
O80 O 0.35932 0.58174 1.10726 0.0
O81 O 0.40654 0.57107 0.92276 0.0
O82 O 0.44784 0.66153 0.28746 0.0
O83 O 0.47054 0.66478 1.07957 0.0
O84 O 0.68674 0.71575 0.34176 0.0
Cd85 Cd 0.6617 0.63269 0.35763 0.0
Cd86 Cd 0.66173 0.64283 1.10187 0.0
O87 O 0.72431 0.7047 0.14765 0.0
O88 O 0.69322 0.6051 0.527 0.0
O89 O 0.73467 0.5853 0.33912 0.0
C90 C 0.73781 0.58632 0.46334 0.0
C91 C 0.66049 0.5459 1.04153 0.0
C92 C 0.71733 0.73506 0.24985 0.0
C93 C 0.54946 0.65528 0.22228 0.0
O94 O 0.58173 0.67355 0.13217 0.0
O95 O 0.57107 0.62633 0.31667 0.0
O96 O 0.66153 0.58503 0.95196 0.0
O97 O 0.66478 0.56233 0.15985 0.0
O98 O 0.71575 0.34613 0.89767 0.0
Cd99 Cd 0.63269 0.37118 0.88179 0.0
Cd100 Cd 0.64283 0.37114 0.13756 0.0
O101 O 0.7047 0.30856 1.09178 0.0
O102 O 0.60511 0.33965 0.71242 0.0
O103 O 0.5853 0.2982 0.9003 0.0
C104 C 0.58632 0.29507 0.77608 0.0
C105 C 0.5459 0.37238 0.19788 0.0
C106 C 0.73506 0.31554 0.98957 0.0
C107 C 0.65529 0.48341 1.01714 0.0
O108 O 0.67355 0.45114 1.10725 0.0
O109 O 0.62633 0.46181 0.92275 0.0
O110 O 0.58503 0.37134 0.28747 0.0
O111 O 0.56234 0.36809 1.07957 0.0
O112 O 0.8462 0.71578 0.64756 0.0
Cd113 Cd 0.87121 0.63271 0.63174 0.0
Cd114 Cd 0.87114 0.64283 0.88738 0.0
O115 O 0.80855 0.70468 0.84151 0.0
O116 O 0.83968 0.60508 0.46241 0.0
O117 O 0.79821 0.58536 0.65037 0.0
C118 C 0.79509 0.58634 0.52615 0.0
C119 C 0.8724 0.54591 0.9478 0.0
C120 C 0.81558 0.7351 0.73941 0.0
C121 C 0.98342 0.6553 0.76716 0.0
O122 O 0.95113 0.67358 0.85721 0.0
O123 O 0.96183 0.62632 0.67278 0.0
O124 O 0.8713 0.58506 1.03735 0.0
O125 O 0.86815 0.56232 0.82947 0.0
O126 O 0.71578 0.18667 0.59186 0.0
Cd127 Cd 0.6327 0.16166 0.60768 0.0
Cd128 Cd 0.64283 0.16174 0.35204 0.0
O129 O 0.70468 0.22432 0.39791 0.0
O130 O 0.60507 0.1932 0.77701 0.0
O131 O 0.58536 0.23466 0.58905 0.0
C132 C 0.58634 0.23778 0.71327 0.0
C133 C 0.54591 0.16048 0.29161 0.0
C134 C 0.7351 0.21729 0.50001 0.0
C135 C 0.65529 0.04945 0.47227 0.0
O136 O 0.67358 0.08174 0.38221 0.0
O137 O 0.62632 0.07104 0.56665 0.0
O138 O 0.58506 0.16157 0.20208 0.0
O139 O 0.56232 0.16473 0.40996 0.0
O140 O 0.18667 0.3171 0.64756 0.0
Cd141 Cd 0.16166 0.40017 0.63175 0.0
Cd142 Cd 0.16174 0.39004 0.88738 0.0
O143 O 0.22432 0.32819 0.8415 0.0
O144 O 0.1932 0.4278 0.46241 0.0
O145 O 0.23466 0.44751 0.65037 0.0
C146 C 0.23778 0.44654 0.52615 0.0
C147 C 0.16048 0.48696 0.94781 0.0
C148 C 0.21729 0.29777 0.73941 0.0
C149 C 0.04945 0.37758 0.76714 0.0
O150 O 0.08174 0.35929 0.85722 0.0
O151 O 0.07104 0.40655 0.67278 0.0
O152 O 0.16157 0.44781 1.03734 0.0
O153 O 0.16472 0.47055 0.82946 0.0
O154 O 0.3171 0.8462 0.59187 0.0
Cd155 Cd 0.40017 0.87121 0.60768 0.0
Cd156 Cd 0.39004 0.87114 0.35204 0.0
O157 O 0.32819 0.80855 0.39792 0.0
O158 O 0.4278 0.83968 0.77701 0.0
O159 O 0.44751 0.79821 0.58905 0.0
C160 C 0.44654 0.79509 0.71327 0.0
C161 C 0.48696 0.8724 0.29163 0.0
C162 C 0.29777 0.81558 0.50002 0.0
C163 C 0.37758 0.98342 0.47227 0.0
O164 O 0.35929 0.95113 0.38221 0.0
O165 O 0.40655 0.96183 0.56664 0.0
O166 O 0.44781 0.87131 0.20207 0.0
O167 O 0.47055 0.86815 0.40995 0.0
O168 O 0.84613 0.81713 0.84176 0.0
Cd169 Cd 0.87117 0.90019 0.85763 0.0
Cd170 Cd 0.87114 0.89005 0.60187 0.0
O171 O 0.80856 0.82818 0.64766 0.0
O172 O 0.83965 0.92777 1.02701 0.0
O173 O 0.79819 0.94757 0.83909 0.0
C174 C 0.79507 0.94655 0.96331 0.0
C175 C 0.87238 0.98698 0.54155 0.0
C176 C 0.81553 0.79782 0.74986 0.0
C177 C 0.98341 0.8776 0.72229 0.0
O178 O 0.95113 0.85933 0.63217 0.0
O179 O 0.9618 0.90654 0.81666 0.0
O180 O 0.87134 0.94785 0.45196 0.0
O181 O 0.8681 0.97054 0.65985 0.0
O182 O 0.81713 0.18675 0.39766 0.0
Cd183 Cd 0.90019 0.1617 0.38179 0.0
Cd184 Cd 0.89005 0.16173 0.63756 0.0
O185 O 0.82818 0.22431 0.59177 0.0
O186 O 0.92778 0.19322 0.21241 0.0
O187 O 0.94758 0.23468 0.40033 0.0
C188 C 0.94655 0.2378 0.27611 0.0
C189 C 0.98698 0.16049 0.69789 0.0
C190 C 0.79782 0.21734 0.48957 0.0
C191 C 0.87759 0.04947 0.51713 0.0
O192 O 0.85932 0.08174 0.60726 0.0
O193 O 0.90654 0.07108 0.42276 0.0
O194 O 0.94785 0.16154 0.78747 0.0
O195 O 0.97054 0.16478 0.57957 0.0
O196 O 0.18674 0.21574 0.84176 0.0
Cd197 Cd 0.1617 0.13268 0.85763 0.0
Cd198 Cd 0.16173 0.14283 0.60186 0.0
O199 O 0.22431 0.20469 0.64765 0.0
O200 O 0.19322 0.1051 1.02701 0.0
O201 O 0.23468 0.0853 0.83909 0.0
C202 C 0.2378 0.08632 0.96331 0.0
C203 C 0.16049 0.0459 0.54153 0.0
C204 C 0.21734 0.23505 0.74985 0.0
C205 C 0.04947 0.15528 0.72228 0.0
O206 O 0.08174 0.17355 0.63217 0.0
O207 O 0.07107 0.12633 0.81667 0.0
O208 O 0.16154 0.08502 0.45196 0.0
O209 O 0.16478 0.06233 0.65985 0.0
O210 O 0.21575 0.84613 0.39767 0.0
Cd211 Cd 0.13269 0.87117 0.38179 0.0
Cd212 Cd 0.14283 0.87114 0.63756 0.0
O213 O 0.20469 0.80856 0.59178 0.0
O214 O 0.1051 0.83966 0.21241 0.0
O215 O 0.0853 0.7982 0.40033 0.0
C216 C 0.08633 0.79508 0.27611 0.0
C217 C 0.0459 0.87238 0.69788 0.0
C218 C 0.23505 0.81553 0.48957 0.0
C219 C 0.15529 0.98341 0.51714 0.0
O220 O 0.17355 0.95114 0.60725 0.0
O221 O 0.12633 0.9618 0.42275 0.0
O222 O 0.08502 0.87134 0.78747 0.0
O223 O 0.06233 0.8681 0.57957 0.0
loop_
_geom_bond_atom_site_label_1
_geom_bond_atom_site_label_2
_geom_bond_distance
_geom_bond_site_symmetry_2
_ccdc_geom_bond_type
O0 Cd1 2.223 . S
O0 C8 1.315 . S
Cd1 O0 2.223 . S
Cd1 O4 2.297 1_554 S
Cd1 O5 2.439 1_554 S
Cd1 O11 2.240 . S
Cd2 O3 2.240 . S
Cd2 O10 2.223 . S
Cd2 O12 2.297 . S
Cd2 O13 2.439 . S
O3 Cd2 2.240 . S
O3 C8 1.279 . S
O4 Cd1 2.297 1_556 S
O4 C6 1.247 . S
O5 Cd1 2.439 1_556 S
O5 C6 1.208 . S
C6 O4 1.247 . S
C6 O5 1.208 . S
C7 O12 1.247 . S
C7 O13 1.208 . S
C8 O0 1.315 . S
C8 O3 1.279 . S
C9 O10 1.315 . S
C9 O11 1.279 . S
O10 Cd2 2.223 . S
O10 C9 1.315 . S
O11 Cd1 2.240 . S
O11 C9 1.279 . S
O12 Cd2 2.297 . S
O12 C7 1.247 . S
O13 Cd2 2.439 . S
O13 C7 1.208 . S
O14 Cd15 2.223 . S
O14 C22 1.315 . S
Cd15 O14 2.223 . S
Cd15 O18 2.297 1_556 S
Cd15 O19 2.439 1_556 S
Cd15 O25 2.240 . S
Cd16 O17 2.240 . S
Cd16 O24 2.223 . S
Cd16 O26 2.297 . S
Cd16 O27 2.439 . S
O17 Cd16 2.240 . S
O17 C22 1.279 . S
O18 Cd15 2.297 1_554 S
O18 C20 1.247 . S
O19 Cd15 2.439 1_554 S
O19 C20 1.208 . S
C20 O18 1.247 . S
C20 O19 1.208 . S
C21 O26 1.247 . S
C21 O27 1.208 . S
C22 O14 1.315 . S
C22 O17 1.279 . S
C23 O24 1.315 . S
C23 O25 1.279 . S
O24 Cd16 2.223 . S
O24 C23 1.315 . S
O25 Cd15 2.240 . S
O25 C23 1.279 . S
O26 Cd16 2.297 . S
O26 C21 1.247 . S
O27 Cd16 2.439 . S
O27 C21 1.208 . S
O28 Cd29 2.223 . S
O28 C36 1.315 . S
Cd29 O28 2.223 . S
Cd29 O32 2.297 1_554 S
Cd29 O33 2.439 1_554 S
Cd29 O39 2.240 . S
Cd30 O31 2.240 . S
Cd30 O38 2.223 . S
Cd30 O40 2.297 . S
Cd30 O41 2.439 . S
O31 Cd30 2.240 . S
O31 C36 1.279 . S
O32 Cd29 2.297 1_556 S
O32 C34 1.247 . S
O33 Cd29 2.439 1_556 S
O33 C34 1.208 . S
C34 O32 1.247 . S
C34 O33 1.208 . S
C35 O40 1.247 . S
C35 O41 1.208 . S
C36 O28 1.315 . S
C36 O31 1.279 . S
C37 O38 1.315 . S
C37 O39 1.279 . S
O38 Cd30 2.223 . S
O38 C37 1.315 . S
O39 Cd29 2.240 . S
O39 C37 1.279 . S
O40 Cd30 2.297 . S
O40 C35 1.247 . S
O41 Cd30 2.439 . S
O41 C35 1.208 . S
O42 Cd43 2.223 . S
O42 C50 1.315 . S
Cd43 O42 2.223 . S
Cd43 O46 2.297 1_556 S
Cd43 O47 2.439 1_556 S
Cd43 O53 2.240 . S
Cd44 O45 2.240 . S
Cd44 O52 2.223 . S
Cd44 O54 2.297 . S
Cd44 O55 2.439 . S
O45 Cd44 2.240 . S
O45 C50 1.279 . S
O46 Cd43 2.297 1_554 S
O46 C48 1.247 . S
O47 Cd43 2.439 1_554 S
O47 C48 1.208 . S
C48 O46 1.247 . S
C48 O47 1.208 . S
C49 O54 1.247 . S
C49 O55 1.208 . S
C50 O42 1.315 . S
C50 O45 1.279 . S
C51 O52 1.315 . S
C51 O53 1.279 . S
O52 Cd44 2.223 . S
O52 C51 1.315 . S
O53 Cd43 2.240 . S
O53 C51 1.279 . S
O54 Cd44 2.297 . S
O54 C49 1.247 . S
O55 Cd44 2.439 . S
O55 C49 1.208 . S
O56 Cd57 2.223 . S
O56 C64 1.315 . S
Cd57 O56 2.223 . S
Cd57 O60 2.297 . S
Cd57 O61 2.439 . S
Cd57 O67 2.240 . S
Cd58 O59 2.240 1_556 S
Cd58 O66 2.223 . S
Cd58 O68 2.297 . S
Cd58 O69 2.439 1_556 S
O59 Cd58 2.240 1_554 S
O59 C64 1.279 . S
O60 Cd57 2.297 . S
O60 C62 1.247 . S
O61 Cd57 2.439 . S
O61 C62 1.208 . S
C62 O60 1.247 . S
C62 O61 1.208 . S
C63 O68 1.247 . S
C63 O69 1.208 1_556 S
C64 O56 1.315 . S
C64 O59 1.279 . S
C65 O66 1.315 1_554 S
C65 O67 1.279 . S
O66 Cd58 2.223 . S
O66 C65 1.315 1_556 S
O67 Cd57 2.240 . S
O67 C65 1.279 . S
O68 Cd58 2.297 . S
O68 C63 1.247 . S
O69 Cd58 2.439 1_554 S
O69 C63 1.208 1_554 S
O70 Cd71 2.223 . S
O70 C78 1.315 . S
Cd71 O70 2.223 . S
Cd71 O74 2.297 . S
Cd71 O75 2.439 . S
Cd71 O81 2.240 . S
Cd72 O73 2.240 1_554 S
Cd72 O80 2.223 . S
Cd72 O82 2.297 . S
Cd72 O83 2.439 1_554 S
O73 Cd72 2.240 1_556 S
O73 C78 1.279 . S
O74 Cd71 2.297 . S
O74 C76 1.247 . S
O75 Cd71 2.439 . S
O75 C76 1.208 . S
C76 O74 1.247 . S
C76 O75 1.208 . S
C77 O82 1.247 . S
C77 O83 1.208 1_554 S
C78 O70 1.315 . S
C78 O73 1.279 . S
C79 O80 1.315 1_556 S
C79 O81 1.279 . S
O80 Cd72 2.223 . S
O80 C79 1.315 1_554 S
O81 Cd71 2.240 . S
O81 C79 1.279 . S
O82 Cd72 2.297 . S
O82 C77 1.247 . S
O83 Cd72 2.439 1_556 S
O83 C77 1.208 1_556 S
O84 Cd85 2.223 . S
O84 C92 1.315 . S
Cd85 O84 2.223 . S
Cd85 O88 2.297 . S
Cd85 O89 2.439 . S
Cd85 O95 2.240 . S
Cd86 O87 2.240 1_556 S
Cd86 O94 2.223 . S
Cd86 O96 2.297 . S
Cd86 O97 2.439 1_556 S
O87 Cd86 2.240 1_554 S
O87 C92 1.279 . S
O88 Cd85 2.297 . S
O88 C90 1.247 . S
O89 Cd85 2.439 . S
O89 C90 1.208 . S
C90 O88 1.247 . S
C90 O89 1.208 . S
C91 O96 1.247 . S
C91 O97 1.208 1_556 S
C92 O84 1.315 . S
C92 O87 1.279 . S
C93 O94 1.315 1_554 S
C93 O95 1.279 . S
O94 Cd86 2.223 . S
O94 C93 1.315 1_556 S
O95 Cd85 2.240 . S
O95 C93 1.279 . S
O96 Cd86 2.297 . S
O96 C91 1.247 . S
O97 Cd86 2.439 1_554 S
O97 C91 1.208 1_554 S
O98 Cd99 2.223 . S
O98 C106 1.315 . S
Cd99 O98 2.223 . S
Cd99 O102 2.297 . S
Cd99 O103 2.439 . S
Cd99 O109 2.240 . S
Cd100 O101 2.240 1_554 S
Cd100 O108 2.223 . S
Cd100 O110 2.297 . S
Cd100 O111 2.439 1_554 S
O101 Cd100 2.240 1_556 S
O101 C106 1.279 . S
O102 Cd99 2.297 . S
O102 C104 1.247 . S
O103 Cd99 2.439 . S
O103 C104 1.208 . S
C104 O102 1.247 . S
C104 O103 1.208 . S
C105 O110 1.247 . S
C105 O111 1.208 1_554 S
C106 O98 1.315 . S
C106 O101 1.279 . S
C107 O108 1.315 1_556 S
C107 O109 1.279 . S
O108 Cd100 2.223 . S
O108 C107 1.315 1_554 S
O109 Cd99 2.240 . S
O109 C107 1.279 . S
O110 Cd100 2.297 . S
O110 C105 1.247 . S
O111 Cd100 2.439 1_556 S
O111 C105 1.208 1_556 S
O112 Cd113 2.223 . S
O112 C120 1.315 . S
Cd113 O112 2.223 . S
Cd113 O116 2.297 . S
Cd113 O117 2.439 . S
Cd113 O123 2.240 . S
Cd114 O115 2.240 . S
Cd114 O122 2.223 . S
Cd114 O124 2.297 . S
Cd114 O125 2.439 . S
O115 Cd114 2.240 . S
O115 C120 1.279 . S
O116 Cd113 2.297 . S
O116 C118 1.247 . S
O117 Cd113 2.439 . S
O117 C118 1.208 . S
C118 O116 1.247 . S
C118 O117 1.208 . S
C119 O124 1.247 . S
C119 O125 1.208 . S
C120 O112 1.315 . S
C120 O115 1.279 . S
C121 O122 1.315 . S
C121 O123 1.279 . S
O122 Cd114 2.223 . S
O122 C121 1.315 . S
O123 Cd113 2.240 . S
O123 C121 1.279 . S
O124 Cd114 2.297 . S
O124 C119 1.247 . S
O125 Cd114 2.439 . S
O125 C119 1.208 . S
O126 Cd127 2.223 . S
O126 C134 1.315 . S
Cd127 O126 2.223 . S
Cd127 O130 2.297 . S
Cd127 O131 2.439 . S
Cd127 O137 2.240 . S
Cd128 O129 2.240 . S
Cd128 O136 2.223 . S
Cd128 O138 2.297 . S
Cd128 O139 2.439 . S
O129 Cd128 2.240 . S
O129 C134 1.279 . S
O130 Cd127 2.297 . S
O130 C132 1.247 . S
O131 Cd127 2.439 . S
O131 C132 1.208 . S
C132 O130 1.247 . S
C132 O131 1.208 . S
C133 O138 1.247 . S
C133 O139 1.208 . S
C134 O126 1.315 . S
C134 O129 1.279 . S
C135 O136 1.315 . S
C135 O137 1.279 . S
O136 Cd128 2.223 . S
O136 C135 1.315 . S
O137 Cd127 2.240 . S
O137 C135 1.279 . S
O138 Cd128 2.297 . S
O138 C133 1.247 . S
O139 Cd128 2.439 . S
O139 C133 1.208 . S
O140 Cd141 2.223 . S
O140 C148 1.315 . S
Cd141 O140 2.223 . S
Cd141 O144 2.297 . S
Cd141 O145 2.439 . S
Cd141 O151 2.240 . S
Cd142 O143 2.240 . S
Cd142 O150 2.223 . S
Cd142 O152 2.297 . S
Cd142 O153 2.439 . S
O143 Cd142 2.240 . S
O143 C148 1.279 . S
O144 Cd141 2.297 . S
O144 C146 1.247 . S
O145 Cd141 2.439 . S
O145 C146 1.208 . S
C146 O144 1.247 . S
C146 O145 1.208 . S
C147 O152 1.247 . S
C147 O153 1.208 . S
C148 O140 1.315 . S
C148 O143 1.279 . S
C149 O150 1.315 . S
C149 O151 1.279 . S
O150 Cd142 2.223 . S
O150 C149 1.315 . S
O151 Cd141 2.240 . S
O151 C149 1.279 . S
O152 Cd142 2.297 . S
O152 C147 1.247 . S
O153 Cd142 2.439 . S
O153 C147 1.208 . S
O154 Cd155 2.223 . S
O154 C162 1.315 . S
Cd155 O154 2.223 . S
Cd155 O158 2.297 . S
Cd155 O159 2.439 . S
Cd155 O165 2.240 . S
Cd156 O157 2.240 . S
Cd156 O164 2.223 . S
Cd156 O166 2.297 . S
Cd156 O167 2.439 . S
O157 Cd156 2.240 . S
O157 C162 1.279 . S
O158 Cd155 2.297 . S
O158 C160 1.247 . S
O159 Cd155 2.439 . S
O159 C160 1.208 . S
C160 O158 1.247 . S
C160 O159 1.208 . S
C161 O166 1.247 . S
C161 O167 1.208 . S
C162 O154 1.315 . S
C162 O157 1.279 . S
C163 O164 1.315 . S
C163 O165 1.279 . S
O164 Cd156 2.223 . S
O164 C163 1.315 . S
O165 Cd155 2.240 . S
O165 C163 1.279 . S
O166 Cd156 2.297 . S
O166 C161 1.247 . S
O167 Cd156 2.439 . S
O167 C161 1.208 . S
O168 Cd169 2.223 . S
O168 C176 1.315 . S
Cd169 O168 2.223 . S
Cd169 O172 2.297 . S
Cd169 O173 2.439 . S
Cd169 O179 2.240 . S
Cd170 O171 2.240 . S
Cd170 O178 2.223 . S
Cd170 O180 2.297 . S
Cd170 O181 2.439 . S
O171 Cd170 2.240 . S
O171 C176 1.279 . S
O172 Cd169 2.297 . S
O172 C174 1.247 . S
O173 Cd169 2.439 . S
O173 C174 1.208 . S
C174 O172 1.247 . S
C174 O173 1.208 . S
C175 O180 1.247 . S
C175 O181 1.208 . S
C176 O168 1.315 . S
C176 O171 1.279 . S
C177 O178 1.315 . S
C177 O179 1.279 . S
O178 Cd170 2.223 . S
O178 C177 1.315 . S
O179 Cd169 2.240 . S
O179 C177 1.279 . S
O180 Cd170 2.297 . S
O180 C175 1.247 . S
O181 Cd170 2.439 . S
O181 C175 1.208 . S
O182 Cd183 2.223 . S
O182 C190 1.315 . S
Cd183 O182 2.223 . S
Cd183 O186 2.297 . S
Cd183 O187 2.439 . S
Cd183 O193 2.240 . S
Cd184 O185 2.240 . S
Cd184 O192 2.223 . S
Cd184 O194 2.297 . S
Cd184 O195 2.439 . S
O185 Cd184 2.240 . S
O185 C190 1.279 . S
O186 Cd183 2.297 . S
O186 C188 1.247 . S
O187 Cd183 2.439 . S
O187 C188 1.208 . S
C188 O186 1.247 . S
C188 O187 1.208 . S
C189 O194 1.247 . S
C189 O195 1.208 . S
C190 O182 1.315 . S
C190 O185 1.279 . S
C191 O192 1.315 . S
C191 O193 1.279 . S
O192 Cd184 2.223 . S
O192 C191 1.315 . S
O193 Cd183 2.240 . S
O193 C191 1.279 . S
O194 Cd184 2.297 . S
O194 C189 1.247 . S
O195 Cd184 2.439 . S
O195 C189 1.208 . S
O196 Cd197 2.223 . S
O196 C204 1.315 . S
Cd197 O196 2.223 . S
Cd197 O200 2.297 . S
Cd197 O201 2.439 . S
Cd197 O207 2.240 . S
Cd198 O199 2.240 . S
Cd198 O206 2.223 . S
Cd198 O208 2.297 . S
Cd198 O209 2.439 . S
O199 Cd198 2.240 . S
O199 C204 1.279 . S
O200 Cd197 2.297 . S
O200 C202 1.247 . S
O201 Cd197 2.439 . S
O201 C202 1.208 . S
C202 O200 1.247 . S
C202 O201 1.208 . S
C203 O208 1.247 . S
C203 O209 1.208 . S
C204 O196 1.315 . S
C204 O199 1.279 . S
C205 O206 1.315 . S
C205 O207 1.279 . S
O206 Cd198 2.223 . S
O206 C205 1.315 . S
O207 Cd197 2.240 . S
O207 C205 1.279 . S
O208 Cd198 2.297 . S
O208 C203 1.247 . S
O209 Cd198 2.439 . S
O209 C203 1.208 . S
O210 Cd211 2.223 . S
O210 C218 1.315 . S
Cd211 O210 2.223 . S
Cd211 O214 2.297 . S
Cd211 O215 2.439 . S
Cd211 O221 2.240 . S
Cd212 O213 2.240 . S
Cd212 O220 2.223 . S
Cd212 O222 2.297 . S
Cd212 O223 2.439 . S
O213 Cd212 2.240 . S
O213 C218 1.279 . S
O214 Cd211 2.297 . S
O214 C216 1.247 . S
O215 Cd211 2.439 . S
O215 C216 1.208 . S
C216 O214 1.247 . S
C216 O215 1.208 . S
C217 O222 1.247 . S
C217 O223 1.208 . S
C218 O210 1.315 . S
C218 O213 1.279 . S
C219 O220 1.315 . S
C219 O221 1.279 . S
O220 Cd212 2.223 . S
O220 C219 1.315 . S
O221 Cd211 2.240 . S
O221 C219 1.279 . S
O222 Cd212 2.297 . S
O222 C217 1.247 . S
O223 Cd212 2.439 . S
O223 C217 1.208 . S
C163 C7 1.835 1_565 S
C21 C121 1.835 1_455 S
C35 C135 1.835 1_565 S
C149 C49 1.835 1_455 S
C63 C79 1.835 . S
C77 C93 1.835 . S
C107 C91 1.835 . S
C65 C105 1.835 . S
C51 C119 1.835 . S
C133 C9 1.835 . S
C23 C147 1.835 . S
C161 C37 1.835 . S
C175 C191 1.835 1_565 S
C189 C205 1.835 1_655 S
C219 C203 1.835 1_565 S
C177 C217 1.835 1_655 S
C64 C8 1.393 . S
C22 C78 1.393 . S
C36 C92 1.393 . S
C106 C50 1.393 . S
C120 C176 1.393 . S
C190 C134 1.393 . S
C148 C204 1.393 . S
C218 C162 1.393 . S
C202 C6 1.484 . S
C216 C20 1.484 . S
C34 C174 1.484 . S
C188 C48 1.484 . S
C146 C62 1.484 . S
C160 C76 1.484 . S
C90 C118 1.484 . S
C132 C104 1.484 . S
