# Generated by pormake.
# Topology sma, (6)-cn, num edge types: 1
# Building blocks:
#     Node 0, Type 0, BuildingBlock: MIFKUJ_clean_sbu_0, # of connection points: 6
#     Node 1, Type 0, BuildingBlock: MIFKUJ_clean_sbu_0, # of connection points: 6
#     Node 2, Type 0, BuildingBlock: MIFKUJ_clean_sbu_0, # of connection points: 6
#     Edge 3, Type (0, 0), BuildingBlock: AJUNOK_clean_linker_0, # of connection points: 2
#     Edge 4, Type (0, 0), BuildingBlock: AJUNOK_clean_linker_0, # of connection points: 2
#     Edge 5, Type (0, 0), BuildingBlock: AJUNOK_clean_linker_0, # of connection points: 2
#     Edge 6, Type (0, 0), BuildingBlock: AJUNOK_clean_linker_0, # of connection points: 2
#     Edge 7, Type (0, 0), BuildingBlock: AJUNOK_clean_linker_0, # of connection points: 2
#     Edge 8, Type (0, 0), BuildingBlock: AJUNOK_clean_linker_0, # of connection points: 2
#     Edge 9, Type (0, 0), BuildingBlock: AJUNOK_clean_linker_0, # of connection points: 2
#     Edge 10, Type (0, 0), BuildingBlock: AJUNOK_clean_linker_0, # of connection points: 2
#     Edge 11, Type (0, 0), BuildingBlock: AJUNOK_clean_linker_0, # of connection points: 2
# Relax obj value: 0.084
# Max RMSD: 0.185
# Mean RMSD: 0.179
data_MOF--net-sma--node1-MIFKUJ_clean_sbu_0--edge1-AJUNOK_clean_linker_0
_symmetry_space_group_name_H-M    P1
_symmetry_Int_Tables_number       1
_symmetry_cell_setting            triclinic
loop_
_symmetry_equiv_pos_as_xyz
'x, y, z'
_cell_length_a     27.733558
_cell_length_b     27.722415
_cell_length_c     9.2351049
_cell_angle_alpha  93.47304
_cell_angle_beta   94.265316
_cell_angle_gamma 120.17476
loop_
_atom_site_label
_atom_site_type_symbol
_atom_site_fract_x
_atom_site_fract_y
_atom_site_fract_z
_atom_type_partial_charge
Zn0 Zn 0.09106 0.55766 0.09353 0.0
Zn1 Zn 0.92199 0.44099 0.13144 0.0
C2 C 0.17975 0.54306 0.07131 0.0
O3 O 0.1904 0.57416 0.19574 0.0
C4 C 0.83471 0.46229 0.09577 0.0
O5 O 0.80907 0.40768 0.06198 0.0
O6 O 0.13546 0.64214 0.14424 0.0
O7 O 0.00927 0.52096 0.02111 0.0
O8 O 0.93793 0.44045 0.92576 0.0
C9 C 0.176 0.66985 0.0718 0.0
O10 O 0.17672 0.64573 0.94578 0.0
O11 O 0.13558 0.52996 -0.01324 0.0
C12 C 0.85129 0.35968 0.30458 0.0
O13 O 0.87415 0.40545 0.39752 0.0
O14 O 0.86814 0.36303 0.17948 0.0
O15 O 0.99635 0.47532 0.25835 0.0
O16 O 0.08836 0.53112 0.29047 0.0
O17 O 0.88678 0.489 0.14213 0.0
C18 C 0.98441 0.48387 0.91221 0.0
C19 C 0.04308 0.49688 0.33831 0.0
Zn20 Zn 0.5415 0.08544 0.43951 0.0
Zn21 Zn 0.49086 0.91772 0.50338 0.0
C22 C 0.6597 0.1526 0.43294 0.0
O23 O 0.65935 0.14191 0.56933 0.0
C24 C 0.39335 0.82941 0.39241 0.0
O25 O 0.43425 0.82219 0.35452 0.0
O26 O 0.50512 0.13293 0.44261 0.0
O27 O 0.48923 0.0028 0.35547 0.0
O28 O 0.50394 0.93318 0.29809 0.0
C29 C 0.52493 0.17711 0.37806 0.0
O30 O 0.56114 0.18499 0.28508 0.0
O31 O 0.61392 0.12764 0.34755 0.0
C32 C 0.52586 0.86218 0.71025 0.0
O33 O 0.5143 0.88963 0.80926 0.0
O34 O 0.52352 0.87181 0.57787 0.0
O35 O 0.52762 0.99602 0.59485 0.0
O36 O 0.55994 0.08441 0.65638 0.0
O37 O 0.40591 0.87155 0.48338 0.0
C38 C 0.50247 0.97637 0.26493 0.0
C39 C 0.54672 0.03648 0.69339 0.0
Zn40 Zn 0.58062 0.49055 0.74585 0.0
Zn41 Zn 0.45701 0.53273 0.80542 0.0
C42 C 0.52351 0.3732 0.6353 0.0
O43 O 0.49386 0.36976 0.74266 0.0
C44 C 0.48155 0.63638 0.73842 0.0
O45 O 0.44744 0.60088 0.62675 0.0
O46 O 0.66282 0.53672 0.81847 0.0
O47 O 0.54238 0.53197 0.69552 0.0
O48 O 0.45967 0.51222 0.59986 0.0
C49 C 0.69784 0.52538 0.76885 0.0
O50 O 0.68387 0.49507 0.64157 0.0
O51 O 0.5614 0.42157 0.60878 0.0
C52 C 0.36644 0.51586 0.95907 0.0
O53 O 0.40821 0.53909 0.0655 0.0
O54 O 0.37624 0.50568 0.83233 0.0
O55 O 0.49127 0.49722 0.93325 0.0
O56 O 0.55055 0.46488 0.93017 0.0
O57 O 0.49782 0.61774 0.84199 0.0
C58 C 0.50542 0.51403 0.58611 0.0
C59 C 0.5162 0.47402 -0.00723 0.0
C60 C 0.23284 0.52203 0.89297 0.0
C61 C 0.21936 0.52454 0.03593 0.0
C62 C 0.27856 0.51528 0.86641 0.0
C63 C 0.31192 0.51091 -0.01784 0.0
H64 H 0.21032 0.52876 0.803 0.0
H65 H 0.28986 0.51701 0.75625 0.0
S66 S 0.28569 0.50305 0.37045 0.0
N67 N 0.23687 0.51312 0.28971 0.0
N68 N 0.32255 0.50094 0.24039 0.0
C69 C 0.29545 0.50844 0.12287 0.0
C70 C 0.24917 0.51512 0.14955 0.0
C71 C 0.73625 0.20562 0.27783 0.0
C72 C 0.70714 0.20498 0.39622 0.0
C73 C 0.78336 0.25581 0.24957 0.0
C74 C 0.80239 0.30684 0.33822 0.0
H75 H 0.7232 0.16709 0.20868 0.0
H76 H 0.80516 0.25452 0.15818 0.0
S77 S 0.73417 0.3274 0.64868 0.0
N78 N 0.69642 0.25949 0.59341 0.0
N79 N 0.78436 0.35357 0.5413 0.0
C80 C 0.77189 0.30656 0.45377 0.0
C81 C 0.72431 0.25567 0.48225 0.0
C82 C 0.55758 0.79626 0.79113 0.0
C83 C 0.51499 0.80589 0.73482 0.0
C84 C 0.5465 0.74098 0.79925 0.0
C85 C 0.49287 0.69451 0.74896 0.0
H86 H 0.59966 0.8313 0.82513 0.0
H87 H 0.58037 0.73457 0.83901 0.0
S88 S 0.36661 0.69884 0.60658 0.0
N89 N 0.41693 0.76534 0.64037 0.0
N90 N 0.39626 0.6623 0.65272 0.0
C91 C 0.44988 0.70428 0.69837 0.0
C92 C 0.46094 0.75987 0.6919 0.0
C93 C 0.71515 0.48351 -0.01967 0.0
C94 C 0.73733 0.52162 0.87618 0.0
C95 C 0.74876 0.4682 0.06242 0.0
C96 C 0.80585 0.49152 0.04545 0.0
H97 H 0.67059 0.4622 -0.00947 0.0
H98 H 0.72919 0.43535 0.13291 0.0
S99 S 0.88542 0.59879 0.80161 0.0
N100 N 0.82034 0.58589 0.76914 0.0
N101 N 0.88455 0.55892 0.92857 0.0
C102 C 0.82964 0.53339 0.95129 0.0
C103 C 0.79496 0.54785 0.8646 0.0
C104 C 0.33182 0.76363 0.17773 0.0
C105 C 0.33643 0.79294 0.31259 0.0
C106 C 0.27986 0.72704 0.09741 0.0
C107 C 0.22959 0.717 0.14896 0.0
H108 H 0.36884 0.76848 0.13301 0.0
H109 H 0.27942 0.70463 -0.0034 0.0
S110 S 0.21814 0.78602 0.49174 0.0
N111 N 0.28646 0.81252 0.4909 0.0
N112 N 0.18756 0.74181 0.34091 0.0
C113 C 0.23325 0.74726 0.28195 0.0
C114 C 0.2869 0.78569 0.3634 0.0
C115 C 0.55359 0.32587 0.45368 0.0
C116 C 0.51785 0.32147 0.55895 0.0
C117 C 0.5534 0.27849 0.39077 0.0
C118 C 0.51764 0.22455 0.43064 0.0
H119 H 0.58329 0.36649 0.42227 0.0
H120 H 0.58326 0.28479 0.31417 0.0
S121 S 0.41309 0.18927 0.69462 0.0
N122 N 0.44333 0.25797 0.69486 0.0
N123 N 0.44331 0.16913 0.57711 0.0
C124 C 0.4802 0.21913 0.53205 0.0
C125 C 0.48023 0.26746 0.59596 0.0
C126 C 0.99593 0.4391 0.68786 0.0
C127 C 0.0105 0.48824 0.77835 0.0
C128 C 0.01123 0.442 0.54679 0.0
C129 C 0.04229 0.49412 0.49433 0.0
H130 H 0.96996 0.39811 0.72322 0.0
H131 H 0.99595 0.4034 0.47557 0.0
S132 S 0.08961 0.63453 0.68534 0.0
N133 N 0.05693 0.59028 0.8044 0.0
N134 N 0.08791 0.59554 0.54067 0.0
C135 C 0.06012 0.54359 0.58624 0.0
C136 C 0.04357 0.54072 0.72854 0.0
C137 C 0.5697 0.02246 0.08913 0.0
C138 C 0.5142 0.99438 0.1223 0.0
C139 C 0.58097 0.03812 0.94915 0.0
C140 C 0.53662 0.02473 0.84114 0.0
H141 H 0.60418 0.032 0.17133 0.0
H142 H 0.624 0.05939 0.92433 0.0
S143 S 0.3844 0.94962 0.87364 0.0
N144 N 0.4148 0.95325 0.03809 0.0
N145 N 0.43607 0.98132 0.77273 0.0
C146 C 0.48112 0.99635 0.87307 0.0
C147 C 0.46977 0.98137 0.01517 0.0
C148 C 0.46934 0.44792 0.36153 0.0
C149 C 0.51436 0.49489 0.447 0.0
C150 C 0.47149 0.43786 0.21309 0.0
C151 C 0.51889 0.47443 0.1491 0.0
H152 H 0.43103 0.42109 0.40761 0.0
H153 H 0.43492 0.40365 0.14669 0.0
S154 S 0.64694 0.60298 0.32561 0.0
N155 N 0.60748 0.57756 0.45844 0.0
N156 N 0.61165 0.55813 0.17845 0.0
C157 C 0.56536 0.5195 0.23488 0.0
C158 C 0.56316 0.52985 0.38525 0.0
loop_
_geom_bond_atom_site_label_1
_geom_bond_atom_site_label_2
_geom_bond_distance
_geom_bond_site_symmetry_2
_ccdc_geom_bond_type
Zn0 O6 1.969 . S
Zn0 O7 1.965 . S
Zn0 O11 2.024 . S
Zn0 O16 1.969 . S
Zn1 O8 1.969 1_554 S
Zn1 O14 1.969 . S
Zn1 O15 1.965 . S
Zn1 O17 2.024 . S
C2 O3 1.229 . S
C2 O11 1.058 . S
O3 C2 1.229 . S
C4 O5 1.229 . S
C4 O17 1.058 . S
O5 C4 1.229 . S
O6 Zn0 1.969 . S
O6 C9 1.267 . S
O7 Zn0 1.965 . S
O7 C18 1.260 1_554 S
O8 Zn1 1.969 1_556 S
O8 C18 1.258 1_655 S
C9 O6 1.267 . S
C9 O10 1.228 . S
O10 C9 1.228 . S
O11 Zn0 2.024 . S
O11 C2 1.058 . S
C12 O13 1.228 . S
C12 O14 1.267 . S
O13 C12 1.228 . S
O14 Zn1 1.969 . S
O14 C12 1.267 . S
O15 Zn1 1.965 . S
O15 C19 1.260 1_655 S
O16 Zn0 1.969 . S
O16 C19 1.258 . S
O17 Zn1 2.024 . S
O17 C4 1.058 . S
C18 O7 1.260 1_556 S
C18 O8 1.258 1_455 S
C19 O15 1.260 1_455 S
C19 O16 1.258 . S
Zn20 O26 1.969 . S
Zn20 O27 1.965 . S
Zn20 O31 2.024 . S
Zn20 O36 1.969 . S
Zn21 O28 1.969 . S
Zn21 O34 1.969 . S
Zn21 O35 1.965 . S
Zn21 O37 2.024 . S
C22 O23 1.229 . S
C22 O31 1.058 . S
O23 C22 1.229 . S
C24 O25 1.229 . S
C24 O37 1.058 . S
O25 C24 1.229 . S
O26 Zn20 1.969 . S
O26 C29 1.267 . S
O27 Zn20 1.965 . S
O27 C38 1.260 1_545 S
O28 Zn21 1.969 . S
O28 C38 1.258 . S
C29 O26 1.267 . S
C29 O30 1.228 . S
O30 C29 1.228 . S
O31 Zn20 2.024 . S
O31 C22 1.058 . S
C32 O33 1.228 . S
C32 O34 1.267 . S
O33 C32 1.228 . S
O34 Zn21 1.969 . S
O34 C32 1.267 . S
O35 Zn21 1.965 . S
O35 C39 1.260 1_565 S
O36 Zn20 1.969 . S
O36 C39 1.258 . S
O37 Zn21 2.024 . S
O37 C24 1.058 . S
C38 O27 1.260 1_565 S
C38 O28 1.258 . S
C39 O35 1.260 1_545 S
C39 O36 1.258 . S
Zn40 O46 1.969 . S
Zn40 O47 1.965 . S
Zn40 O51 2.024 . S
Zn40 O56 1.969 1_556 S
Zn41 O48 1.969 . S
Zn41 O54 1.969 . S
Zn41 O55 1.965 . S
Zn41 O57 2.024 . S
C42 O43 1.229 . S
C42 O51 1.058 . S
O43 C42 1.229 . S
C44 O45 1.229 . S
C44 O57 1.058 . S
O45 C44 1.229 . S
O46 Zn40 1.969 . S
O46 C49 1.267 . S
O47 Zn40 1.965 . S
O47 C58 1.260 . S
O48 Zn41 1.969 . S
O48 C58 1.258 . S
C49 O46 1.267 . S
C49 O50 1.228 . S
O50 C49 1.228 . S
O51 Zn40 2.024 . S
O51 C42 1.058 . S
C52 O53 1.228 . S
C52 O54 1.267 . S
O53 C52 1.228 . S
O54 Zn41 1.969 . S
O54 C52 1.267 . S
O55 Zn41 1.965 . S
O55 C59 1.260 1_556 S
O56 Zn40 1.969 1_554 S
O56 C59 1.258 . S
O57 Zn41 2.024 . S
O57 C44 1.058 . S
C58 O47 1.260 . S
C58 O48 1.258 . S
C59 O55 1.260 1_554 S
C59 O56 1.258 . S
C60 C61 1.369 1_556 S
C60 C62 1.419 . S
C60 H64 0.930 . S
C61 C60 1.369 1_554 S
C61 C70 1.429 . S
C62 C60 1.419 . S
C62 C63 1.363 . S
C62 H65 0.929 . S
C63 C62 1.363 . S
C63 C69 1.428 1_556 S
H64 C60 0.930 . S
H65 C62 0.929 . S
S66 N67 1.613 . S
S66 N68 1.610 . S
N67 S66 1.613 . S
N67 C70 1.350 . S
N68 S66 1.610 . S
N68 C69 1.351 . S
C69 C63 1.428 1_554 S
C69 N68 1.351 . S
C69 C70 1.434 . S
C70 C61 1.429 . S
C70 N67 1.350 . S
C70 C69 1.434 . S
C71 C72 1.369 . S
C71 C73 1.419 . S
C71 H75 0.930 . S
C72 C71 1.369 . S
C72 C81 1.429 . S
C73 C71 1.419 . S
C73 C74 1.363 . S
C73 H76 0.929 . S
C74 C73 1.363 . S
C74 C80 1.428 . S
H75 C71 0.930 . S
H76 C73 0.929 . S
S77 N78 1.613 . S
S77 N79 1.610 . S
N78 S77 1.613 . S
N78 C81 1.350 . S
N79 S77 1.610 . S
N79 C80 1.351 . S
C80 C74 1.428 . S
C80 N79 1.351 . S
C80 C81 1.434 . S
C81 C72 1.429 . S
C81 N78 1.350 . S
C81 C80 1.434 . S
C82 C83 1.369 . S
C82 C84 1.419 . S
C82 H86 0.930 . S
C83 C82 1.369 . S
C83 C92 1.429 . S
C84 C82 1.419 . S
C84 C85 1.363 . S
C84 H87 0.929 . S
C85 C84 1.363 . S
C85 C91 1.428 . S
H86 C82 0.930 . S
H87 C84 0.929 . S
S88 N89 1.613 . S
S88 N90 1.610 . S
N89 S88 1.613 . S
N89 C92 1.350 . S
N90 S88 1.610 . S
N90 C91 1.351 . S
C91 C85 1.428 . S
C91 N90 1.351 . S
C91 C92 1.434 . S
C92 C83 1.429 . S
C92 N89 1.350 . S
C92 C91 1.434 . S
C93 C94 1.369 . S
C93 C95 1.419 1_556 S
C93 H97 0.930 . S
C94 C93 1.369 . S
C94 C103 1.429 . S
C95 C93 1.419 1_554 S
C95 C96 1.363 . S
C95 H98 0.929 . S
C96 C95 1.363 . S
C96 C102 1.428 1_554 S
H97 C93 0.930 . S
H98 C95 0.929 . S
S99 N100 1.613 . S
S99 N101 1.610 . S
N100 S99 1.613 . S
N100 C103 1.350 . S
N101 S99 1.610 . S
N101 C102 1.351 . S
C102 C96 1.428 1_556 S
C102 N101 1.351 . S
C102 C103 1.434 . S
C103 C94 1.429 . S
C103 N100 1.350 . S
C103 C102 1.434 . S
C104 C105 1.369 . S
C104 C106 1.419 . S
C104 H108 0.930 . S
C105 C104 1.369 . S
C105 C114 1.429 . S
C106 C104 1.419 . S
C106 C107 1.363 . S
C106 H109 0.929 . S
C107 C106 1.363 . S
C107 C113 1.428 . S
H108 C104 0.930 . S
H109 C106 0.929 . S
S110 N111 1.613 . S
S110 N112 1.610 . S
N111 S110 1.613 . S
N111 C114 1.350 . S
N112 S110 1.610 . S
N112 C113 1.351 . S
C113 C107 1.428 . S
C113 N112 1.351 . S
C113 C114 1.434 . S
C114 C105 1.429 . S
C114 N111 1.350 . S
C114 C113 1.434 . S
C115 C116 1.369 . S
C115 C117 1.419 . S
C115 H119 0.930 . S
C116 C115 1.369 . S
C116 C125 1.429 . S
C117 C115 1.419 . S
C117 C118 1.363 . S
C117 H120 0.929 . S
C118 C117 1.363 . S
C118 C124 1.428 . S
H119 C115 0.930 . S
H120 C117 0.929 . S
S121 N122 1.613 . S
S121 N123 1.610 . S
N122 S121 1.613 . S
N122 C125 1.350 . S
N123 S121 1.610 . S
N123 C124 1.351 . S
C124 C118 1.428 . S
C124 N123 1.351 . S
C124 C125 1.434 . S
C125 C116 1.429 . S
C125 N122 1.350 . S
C125 C124 1.434 . S
C126 C127 1.369 1_655 S
C126 C128 1.419 . S
C126 H130 0.930 . S
C127 C126 1.369 1_455 S
C127 C136 1.429 . S
C128 C126 1.419 . S
C128 C129 1.363 1_655 S
C128 H131 0.929 . S
C129 C128 1.363 1_455 S
C129 C135 1.428 . S
H130 C126 0.930 . S
H131 C128 0.929 . S
S132 N133 1.613 . S
S132 N134 1.610 . S
N133 S132 1.613 . S
N133 C136 1.350 . S
N134 S132 1.610 . S
N134 C135 1.351 . S
C135 C129 1.428 . S
C135 N134 1.351 . S
C135 C136 1.434 . S
C136 C127 1.429 . S
C136 N133 1.350 . S
C136 C135 1.434 . S
C137 C138 1.369 . S
C137 C139 1.419 1_554 S
C137 H141 0.930 . S
C138 C137 1.369 . S
C138 C147 1.429 1_545 S
C139 C137 1.419 1_556 S
C139 C140 1.363 . S
C139 H142 0.929 . S
C140 C139 1.363 . S
C140 C146 1.428 1_545 S
H141 C137 0.930 . S
H142 C139 0.929 . S
S143 N144 1.613 1_556 S
S143 N145 1.610 . S
N144 S143 1.613 1_554 S
N144 C147 1.350 . S
N145 S143 1.610 . S
N145 C146 1.351 . S
C146 C140 1.428 1_565 S
C146 N145 1.351 . S
C146 C147 1.434 1_556 S
C147 C138 1.429 1_565 S
C147 N144 1.350 . S
C147 C146 1.434 1_554 S
C148 C149 1.369 . S
C148 C150 1.419 . S
C148 H152 0.930 . S
C149 C148 1.369 . S
C149 C158 1.429 . S
C150 C148 1.419 . S
C150 C151 1.363 . S
C150 H153 0.929 . S
C151 C150 1.363 . S
C151 C157 1.428 . S
H152 C148 0.930 . S
H153 C150 0.929 . S
S154 N155 1.613 . S
S154 N156 1.610 . S
N155 S154 1.613 . S
N155 C158 1.350 . S
N156 S154 1.610 . S
N156 C157 1.351 . S
C157 C151 1.428 . S
C157 N156 1.351 . S
C157 C158 1.434 . S
C158 C149 1.429 . S
C158 N155 1.350 . S
C158 C157 1.434 . S
C61 C2 1.672 . S
C63 C52 1.692 . S
C72 C22 1.771 . S
C74 C12 1.770 . S
C83 C32 1.637 . S
C85 C44 1.602 . S
C94 C49 1.726 . S
C96 C4 1.650 . S
C105 C24 1.558 . S
C107 C9 1.640 . S
C116 C42 1.734 . S
C118 C29 1.792 . S
C127 C18 0.842 . S
C129 C19 0.840 . S
C138 C38 0.854 1_545 S
C140 C39 0.859 . S
C149 C58 0.842 . S
C151 C59 0.847 . S
