# Generated by pormake.
# Topology fcu, (12)-cn, num edge types: 1
# Building blocks:
#     Node 0, Type 0, BuildingBlock: QEWDON_clean_sbu_0, # of connection points: 12
#     Node 1, Type 0, BuildingBlock: QEWDON_clean_sbu_0, # of connection points: 12
#     Node 2, Type 0, BuildingBlock: QEWDON_clean_sbu_0, # of connection points: 12
#     Node 3, Type 0, BuildingBlock: QEWDON_clean_sbu_0, # of connection points: 12
#     Edge 4, Type (0, 0), None
#     Edge 5, Type (0, 0), None
#     Edge 6, Type (0, 0), None
#     Edge 7, Type (0, 0), None
#     Edge 8, Type (0, 0), None
#     Edge 9, Type (0, 0), None
#     Edge 10, Type (0, 0), None
#     Edge 11, Type (0, 0), None
#     Edge 12, Type (0, 0), None
#     Edge 13, Type (0, 0), None
#     Edge 14, Type (0, 0), None
#     Edge 15, Type (0, 0), None
#     Edge 16, Type (0, 0), None
#     Edge 17, Type (0, 0), None
#     Edge 18, Type (0, 0), None
#     Edge 19, Type (0, 0), None
#     Edge 20, Type (0, 0), None
#     Edge 21, Type (0, 0), None
#     Edge 22, Type (0, 0), None
#     Edge 23, Type (0, 0), None
#     Edge 24, Type (0, 0), None
#     Edge 25, Type (0, 0), None
#     Edge 26, Type (0, 0), None
#     Edge 27, Type (0, 0), None
# Relax obj value: 0.054
# Max RMSD: 0.117
# Mean RMSD: 0.114
data_MOF--net-fcu--node1-QEWDON_clean_sbu_0--edge1-none
_symmetry_space_group_name_H-M    P1
_symmetry_Int_Tables_number       1
_symmetry_cell_setting            triclinic
loop_
_symmetry_equiv_pos_as_xyz
'x, y, z'
_cell_length_a     16.179143
_cell_length_b     16.166993
_cell_length_c     15.577027
_cell_angle_alpha  89.063773
_cell_angle_beta   90.078881
_cell_angle_gamma 88.370986
loop_
_atom_site_label
_atom_site_type_symbol
_atom_site_fract_x
_atom_site_fract_y
_atom_site_fract_z
_atom_type_partial_charge
Zn0 Zn 0.79515 0.88454 0.92604 0.0
Zn1 Zn 0.80814 0.82775 0.13637 0.0
O2 O 0.78291 0.92308 0.0501 0.0
H3 H 0.74125 0.9651 0.06252 0.0
C4 C 0.02238 0.74614 0.82192 0.0
O5 O 0.96157 0.7937 0.85018 0.0
Zn6 Zn 0.08554 0.13566 0.12362 0.0
Zn7 Zn 0.1134 0.11459 0.91384 0.0
O8 O 0.08299 0.05499 0.02392 0.0
H9 H 0.0947 -0.00381 0.02752 0.0
Zn10 Zn 0.10338 0.8537 0.93457 0.0
O11 O 0.02255 0.85046 0.03228 0.0
Zn12 Zn 0.09477 0.84969 0.13784 0.0
H13 H 0.96348 0.85748 0.02477 0.0
Zn14 Zn 0.88466 0.08303 0.96902 0.0
O15 O 0.9331 0.04272 0.08269 0.0
H16 H 0.96082 -0.01058 0.08862 0.0
Zn17 Zn 0.85225 0.0714 0.17115 0.0
C18 C -0.02018 0.17879 0.83456 0.0
O19 O -0.01314 0.10862 0.79357 0.0
O20 O 0.81145 0.75952 0.93558 0.0
O21 O 0.78339 0.7238 0.07225 0.0
O22 O 0.1423 0.23363 0.93974 0.0
O23 O 0.15461 0.2289 0.08217 0.0
O24 O 0.21999 0.88101 0.97056 0.0
O25 O 0.2109 0.81863 0.09838 0.0
C26 C 0.76522 0.9299 0.26053 0.0
O27 O 0.76076 0.10779 0.98077 0.0
O28 O 0.75462 0.13768 0.11965 0.0
O29 O 0.19008 0.05644 0.82116 0.0
C30 C 0.79655 0.70539 0.99351 0.0
O31 O 0.71397 0.92493 0.8219 0.0
C32 C 0.14812 0.00255 0.22998 0.0
O33 O 0.09544 0.75926 0.84652 0.0
C34 C 0.16587 0.26476 0.00978 0.0
O35 O 0.94251 0.18132 0.90634 0.0
C36 C 0.96749 0.76619 0.22243 0.0
O37 O 0.74578 0.85529 0.24817 0.0
O38 O 0.81421 0.96159 0.20726 0.0
C39 C 0.25349 0.84261 0.03381 0.0
O40 O 0.14894 0.08097 0.22403 0.0
O41 O 0.09852 0.9654 0.1816 0.0
C42 C 0.94654 0.19946 0.2342 0.0
O43 O 0.04605 0.76863 0.22469 0.0
O44 O 0.92893 0.81626 0.17117 0.0
C45 C 0.72323 0.14001 0.04439 0.0
O46 O 0.90362 0.13996 0.26176 0.0
O47 O -0.02312 0.19587 0.15872 0.0
C48 C 0.17351 -0.01229 0.78753 0.0
O49 O 0.10502 0.95112 0.8088 0.0
C50 C 0.73114 -0.01236 0.77533 0.0
O51 O 0.79617 0.03017 0.79554 0.0
Zn52 Zn 0.82177 0.40627 0.36008 0.0
Zn53 Zn 0.80145 0.60407 0.3446 0.0
O54 O 0.88224 0.50839 0.32503 0.0
H55 H 0.9181 0.50451 0.27562 0.0
C56 C 0.75335 0.36006 0.53225 0.0
O57 O 0.72091 0.41805 0.5807 0.0
Zn58 Zn 0.1194 0.54959 0.65387 0.0
Zn59 Zn 0.14011 0.35822 0.7156 0.0
O60 O 0.06412 0.4409 0.65362 0.0
H61 H 0.03887 0.42189 0.60167 0.0
Zn62 Zn 0.89796 0.42266 0.60881 0.0
O63 O 0.93498 0.53968 0.5822 0.0
Zn64 Zn 0.86496 0.59946 0.66506 0.0
H65 H 0.95661 0.5628 0.52957 0.0
Zn66 Zn 0.09133 0.3765 0.3234 0.0
O67 O 0.03755 0.46534 0.3975 0.0
H68 H -0.00349 0.45519 0.44104 0.0
Zn69 Zn 0.06414 0.57308 0.33621 0.0
C70 C 0.12119 0.23176 0.4486 0.0
O71 O 0.08607 0.27712 0.50827 0.0
O72 O 0.70576 0.4266 0.31144 0.0
O73 O 0.69128 0.56411 0.29455 0.0
O74 O 0.24155 0.41263 0.77535 0.0
O75 O 0.23076 0.53559 0.70838 0.0
O76 O 0.83929 0.40333 0.72368 0.0
O77 O 0.78233 0.52914 0.73031 0.0
C78 C 0.9232 0.70419 0.27474 0.0
O79 O 0.18184 0.42724 0.24705 0.0
O80 O 0.12584 0.55342 0.22706 0.0
O81 O 0.08446 0.2475 0.7547 0.0
C82 C 0.66442 0.49074 0.28633 0.0
O83 O 0.87448 0.2901 0.3295 0.0
C84 C 0.00492 0.67974 0.76211 0.0
O85 O 0.8314 0.35585 0.52211 0.0
C86 C 0.2686 0.48476 0.75917 0.0
O87 O 0.12398 0.25936 0.37178 0.0
C88 C 0.78224 0.68608 0.52214 0.0
O89 O 0.84469 0.7058 0.27904 0.0
O90 O 0.96078 0.64315 0.3115 0.0
C91 C 0.78424 0.45299 0.75254 0.0
O92 O 0.06438 0.63837 0.72836 0.0
O93 O 0.92973 0.66666 0.74515 0.0
C94 C 0.167 0.63266 0.47975 0.0
O95 O 0.79983 0.68349 0.60134 0.0
O96 O 0.80565 0.62681 0.47386 0.0
C97 C 0.18128 0.49845 0.21099 0.0
O98 O 0.1461 0.63577 0.40127 0.0
O99 O 0.12752 0.58602 0.53065 0.0
C100 C 0.02037 0.25322 0.80179 0.0
O101 O -0.00515 0.32644 0.82773 0.0
C102 C 0.92578 0.28207 0.26811 0.0
O103 O 0.94997 0.34832 0.2264 0.0
Zn104 Zn 0.28765 0.84502 0.41669 0.0
Zn105 Zn 0.3063 0.81482 0.62695 0.0
O106 O 0.31292 0.89925 0.5288 0.0
H107 H 0.28648 0.95338 0.52747 0.0
C108 C 0.51985 0.73585 0.26564 0.0
O109 O 0.49106 0.70485 0.33771 0.0
Zn110 Zn 0.59944 0.15352 0.60436 0.0
Zn111 Zn 0.67712 0.13183 0.41575 0.0
O112 O 0.60785 0.07764 0.50568 0.0
H113 H 0.56997 0.03451 0.49356 0.0
Zn114 Zn 0.59613 0.83168 0.38898 0.0
O115 O 0.53049 0.8882 0.48576 0.0
Zn116 Zn 0.61007 0.87238 0.58593 0.0
H117 H 0.47108 0.88653 0.49037 0.0
Zn118 Zn 0.33289 0.06763 0.40865 0.0
O119 O 0.3885 0.06277 0.52451 0.0
H120 H 0.43523 0.02691 0.53915 0.0
Zn121 Zn 0.30119 0.09524 0.60871 0.0
C122 C 0.44899 0.17356 0.31793 0.0
O123 O 0.46788 0.19603 0.39601 0.0
O124 O 0.26815 0.72348 0.44141 0.0
O125 O 0.23643 0.71829 0.58087 0.0
O126 O 0.72742 0.24061 0.45335 0.0
O127 O 0.65356 0.26356 0.57255 0.0
O128 O 0.68153 0.74542 0.42958 0.0
O129 O 0.71513 0.81258 0.54731 0.0
C130 C 0.23097 0.94786 0.72656 0.0
O131 O 0.22163 0.13148 0.41197 0.0
O132 O 0.20322 0.15618 0.55077 0.0
O133 O 0.73016 0.0591 0.32155 0.0
C134 C 0.23182 0.68963 0.50486 0.0
O135 O 0.19636 0.90204 0.33454 0.0
C136 C 0.67362 0.02224 0.70841 0.0
O137 O 0.55817 0.8031 0.26739 0.0
C138 C 0.7059 0.28639 0.51572 0.0
O139 O 0.39895 0.11551 0.30732 0.0
C140 C 0.49906 0.7572 0.69717 0.0
O141 O 0.23796 0.86923 0.72395 0.0
O142 O 0.26994 -0.01041 0.67096 0.0
C143 C 0.72805 0.75451 0.49381 0.0
O144 O 0.66442 0.10053 0.703 0.0
O145 O 0.63879 -0.0209 0.65093 0.0
C146 C 0.42751 0.19441 0.68544 0.0
O147 O 0.56356 0.79082 0.66812 0.0
O148 O 0.42624 0.77904 0.67056 0.0
C149 C 0.18089 0.16516 0.47249 0.0
O150 O 0.35179 0.17525 0.68619 0.0
O151 O 0.47699 0.15912 0.63328 0.0
C152 C 0.72779 -0.01927 0.32768 0.0
O153 O 0.6953 0.94622 0.39592 0.0
C154 C 0.21368 0.95783 0.27943 0.0
O155 O 0.29038 -0.01888 0.27216 0.0
Zn156 Zn 0.36776 0.64404 0.09674 0.0
Zn157 Zn 0.39821 0.65968 0.901 0.0
O158 O 0.41726 0.58038 0.00119 0.0
H159 H 0.42598 0.52108 0.0047 0.0
C160 C 0.52837 0.68215 0.19129 0.0
O161 O 0.4857 0.61465 0.18887 0.0
Zn162 Zn 0.603 0.305 0.86587 0.0
Zn163 Zn 0.57152 0.36636 0.06619 0.0
O164 O 0.5597 0.40083 0.93762 0.0
H165 H 0.52124 0.44246 0.91549 0.0
Zn166 Zn 0.61934 0.59692 0.05285 0.0
O167 O 0.55652 0.58928 0.94228 0.0
Zn168 Zn 0.63309 0.58079 0.84612 0.0
H169 H 0.58154 0.59322 0.9983 0.0
Zn170 Zn 0.3982 0.32037 0.08924 0.0
O171 O 0.45477 0.30268 0.97573 0.0
H172 H 0.43404 0.30728 0.03355 0.0
Zn173 Zn 0.37877 0.35495 0.88943 0.0
C174 C 0.46528 0.22896 0.24523 0.0
O175 O 0.51606 0.29002 0.25364 0.0
O176 O 0.36984 0.76807 0.08 0.0
O177 O 0.32843 0.75543 0.94556 0.0
O178 O 0.63281 0.25171 0.0804 0.0
O179 O 0.64607 0.21565 0.94373 0.0
O180 O 0.74043 0.57699 0.0185 0.0
O181 O 0.73523 0.63281 0.88792 0.0
C182 C 0.33308 0.52046 0.81245 0.0
O183 O 0.27277 0.33533 0.07202 0.0
O184 O 0.26818 0.32532 0.93015 0.0
O185 O 0.62307 0.44784 0.15269 0.0
C186 C 0.32851 0.79509 0.01586 0.0
O187 O 0.25889 0.60037 0.14224 0.0
C188 C 0.71332 0.4179 0.79727 0.0
O189 O 0.58846 0.6908 0.1397 0.0
C190 C 0.65784 0.20128 0.02336 0.0
O191 O 0.41628 0.22831 0.18165 0.0
C192 C 0.5139 0.69191 0.7625 0.0
O193 O 0.33505 0.59901 0.81406 0.0
O194 O 0.3782 0.47771 0.86471 0.0
C195 C 0.76821 0.62695 0.96246 0.0
O196 O 0.70582 0.34033 0.80279 0.0
O197 O 0.65499 0.46265 0.82656 0.0
C198 C 0.4535 0.25285 0.74951 0.0
O199 O 0.57549 0.64277 0.74849 0.0
O200 O 0.49623 0.70804 0.84015 0.0
C201 C 0.23362 0.32131 0.00325 0.0
O202 O 0.39536 0.29382 0.78487 0.0
O203 O 0.52786 0.25225 0.77675 0.0
C204 C 0.59872 0.475 0.22495 0.0
O205 O 0.52468 0.45784 0.25318 0.0
C206 C 0.25364 0.52455 0.16287 0.0
O207 O 0.31931 0.4754 0.15707 0.0
loop_
_geom_bond_atom_site_label_1
_geom_bond_atom_site_label_2
_geom_bond_distance
_geom_bond_site_symmetry_2
_ccdc_geom_bond_type
Zn0 O2 1.933 1_556 S
Zn0 O20 1.985 . S
Zn0 O31 1.955 . S
Zn1 O2 1.911 . S
Zn1 O21 1.970 . S
Zn1 O37 1.945 . S
Zn1 O44 1.981 . S
O2 Zn0 1.933 1_554 S
O2 Zn1 1.911 . S
O2 H3 0.841 . S
H3 O2 0.841 . S
C4 O5 1.246 . S
C4 O33 1.276 1_655 S
O5 C4 1.246 . S
Zn6 O8 1.911 . S
Zn6 O23 1.970 . S
Zn6 O40 1.945 . S
Zn6 O47 1.981 . S
Zn7 O8 1.933 1_556 S
Zn7 O22 1.985 . S
Zn7 O29 1.955 . S
O8 Zn6 1.911 . S
O8 Zn7 1.933 1_554 S
O8 H9 0.841 . S
H9 O8 0.841 . S
Zn10 O11 1.933 1_556 S
Zn10 O24 1.985 . S
Zn10 O33 1.955 . S
O11 Zn10 1.933 1_554 S
O11 Zn12 1.911 . S
O11 H13 0.841 . S
Zn12 O11 1.911 . S
Zn12 O25 1.970 . S
Zn12 O41 1.981 . S
Zn12 O43 1.945 . S
H13 O11 0.841 . S
Zn14 O15 1.933 1_556 S
Zn14 O27 1.985 . S
Zn14 O35 1.955 . S
O15 Zn14 1.933 1_554 S
O15 H16 0.841 . S
O15 Zn17 1.911 . S
H16 O15 0.841 . S
Zn17 O15 1.911 . S
Zn17 O28 1.970 . S
Zn17 O38 1.981 . S
Zn17 O46 1.945 . S
C18 O19 1.246 . S
C18 O35 1.276 1_455 S
O19 C18 1.246 . S
O20 Zn0 1.985 . S
O20 C30 1.245 1_556 S
O21 Zn1 1.970 . S
O21 C30 1.263 . S
O22 Zn7 1.985 . S
O22 C34 1.245 1_556 S
O23 Zn6 1.970 . S
O23 C34 1.263 . S
O24 Zn10 1.985 . S
O24 C39 1.245 1_556 S
O25 Zn12 1.970 . S
O25 C39 1.263 . S
C26 O37 1.264 1_545 S
C26 O38 1.244 . S
O27 Zn14 1.985 . S
O27 C45 1.245 1_556 S
O28 Zn17 1.970 . S
O28 C45 1.263 . S
O29 Zn7 1.955 . S
O29 C48 1.276 1_545 S
C30 O20 1.245 1_554 S
C30 O21 1.263 . S
O31 Zn0 1.955 . S
O31 C50 1.276 1_565 S
C32 O40 1.265 . S
C32 O41 1.243 1_545 S
O33 C4 1.276 1_455 S
O33 Zn10 1.955 . S
C34 O22 1.245 1_554 S
C34 O23 1.263 . S
O35 Zn14 1.955 . S
O35 C18 1.276 1_655 S
C36 O43 1.271 . S
C36 O44 1.240 1_455 S
O37 Zn1 1.945 . S
O37 C26 1.264 1_565 S
O38 Zn17 1.981 . S
O38 C26 1.244 . S
C39 O24 1.245 1_554 S
C39 O25 1.263 . S
O40 Zn6 1.945 . S
O40 C32 1.265 . S
O41 Zn12 1.981 . S
O41 C32 1.243 1_565 S
C42 O46 1.262 . S
C42 O47 1.245 1_655 S
O43 Zn12 1.945 . S
O43 C36 1.271 . S
O44 Zn1 1.981 . S
O44 C36 1.240 1_655 S
C45 O27 1.245 1_554 S
C45 O28 1.263 . S
O46 Zn17 1.945 . S
O46 C42 1.262 . S
O47 Zn6 1.981 . S
O47 C42 1.245 1_455 S
C48 O29 1.276 1_565 S
C48 O49 1.246 . S
O49 C48 1.246 . S
C50 O31 1.276 1_545 S
C50 O51 1.246 . S
O51 C50 1.246 . S
Zn52 O54 1.933 . S
Zn52 O72 1.985 . S
Zn52 O83 1.955 . S
Zn53 O54 1.911 . S
Zn53 O73 1.970 . S
Zn53 O89 1.945 . S
Zn53 O96 1.981 . S
O54 Zn52 1.933 . S
O54 Zn53 1.911 . S
O54 H55 0.841 . S
H55 O54 0.841 . S
C56 O57 1.246 . S
C56 O85 1.276 . S
O57 C56 1.246 . S
Zn58 O60 1.911 . S
Zn58 O75 1.970 . S
Zn58 O92 1.945 . S
Zn58 O99 1.981 . S
Zn59 O60 1.933 . S
Zn59 O74 1.985 . S
Zn59 O81 1.955 . S
O60 Zn58 1.911 . S
O60 Zn59 1.933 . S
O60 H61 0.841 . S
H61 O60 0.841 . S
Zn62 O63 1.933 . S
Zn62 O76 1.985 . S
Zn62 O85 1.955 . S
O63 Zn62 1.933 . S
O63 Zn64 1.911 . S
O63 H65 0.841 . S
Zn64 O63 1.911 . S
Zn64 O77 1.970 . S
Zn64 O93 1.981 . S
Zn64 O95 1.945 . S
H65 O63 0.841 . S
Zn66 O67 1.933 . S
Zn66 O79 1.985 . S
Zn66 O87 1.955 . S
O67 Zn66 1.933 . S
O67 H68 0.841 . S
O67 Zn69 1.911 . S
H68 O67 0.841 . S
Zn69 O67 1.911 . S
Zn69 O80 1.970 . S
Zn69 O90 1.981 . S
Zn69 O98 1.945 . S
C70 O71 1.246 . S
C70 O87 1.276 . S
O71 C70 1.246 . S
O72 Zn52 1.985 . S
O72 C82 1.245 . S
O73 Zn53 1.970 . S
O73 C82 1.263 . S
O74 Zn59 1.985 . S
O74 C86 1.245 . S
O75 Zn58 1.970 . S
O75 C86 1.263 . S
O76 Zn62 1.985 . S
O76 C91 1.245 . S
O77 Zn64 1.970 . S
O77 C91 1.263 . S
C78 O89 1.262 . S
C78 O90 1.245 1_655 S
O79 Zn66 1.985 . S
O79 C97 1.245 . S
O80 Zn69 1.970 . S
O80 C97 1.263 . S
O81 Zn59 1.955 . S
O81 C100 1.276 1_455 S
C82 O72 1.245 . S
C82 O73 1.263 . S
O83 Zn52 1.955 . S
O83 C102 1.276 1_655 S
C84 O92 1.267 . S
C84 O93 1.242 1_455 S
O85 C56 1.276 . S
O85 Zn62 1.955 . S
C86 O74 1.245 . S
C86 O75 1.263 . S
O87 Zn66 1.955 . S
O87 C70 1.276 . S
C88 O95 1.262 . S
C88 O96 1.245 . S
O89 Zn53 1.945 . S
O89 C78 1.262 . S
O90 Zn69 1.981 . S
O90 C78 1.245 1_455 S
C91 O76 1.245 . S
C91 O77 1.263 . S
O92 Zn58 1.945 . S
O92 C84 1.267 . S
O93 Zn64 1.981 . S
O93 C84 1.242 1_655 S
C94 O98 1.262 . S
C94 O99 1.245 . S
O95 Zn64 1.945 . S
O95 C88 1.262 . S
O96 Zn53 1.981 . S
O96 C88 1.245 . S
C97 O79 1.245 . S
C97 O80 1.263 . S
O98 Zn69 1.945 . S
O98 C94 1.262 . S
O99 Zn58 1.981 . S
O99 C94 1.245 . S
C100 O81 1.276 1_655 S
C100 O101 1.246 . S
O101 C100 1.246 . S
C102 O83 1.276 1_455 S
C102 O103 1.246 . S
O103 C102 1.246 . S
Zn104 O106 1.933 . S
Zn104 O124 1.985 . S
Zn104 O135 1.955 . S
Zn105 O106 1.911 . S
Zn105 O125 1.970 . S
Zn105 O141 1.945 . S
Zn105 O148 1.981 . S
O106 Zn104 1.933 . S
O106 Zn105 1.911 . S
O106 H107 0.841 . S
H107 O106 0.841 . S
C108 O109 1.246 . S
C108 O137 1.276 . S
O109 C108 1.246 . S
Zn110 O112 1.911 . S
Zn110 O127 1.970 . S
Zn110 O144 1.945 . S
Zn110 O151 1.981 . S
Zn111 O112 1.933 . S
Zn111 O126 1.985 . S
Zn111 O133 1.955 . S
O112 Zn110 1.911 . S
O112 Zn111 1.933 . S
O112 H113 0.841 . S
H113 O112 0.841 . S
Zn114 O115 1.933 . S
Zn114 O128 1.985 . S
Zn114 O137 1.955 . S
O115 Zn114 1.933 . S
O115 Zn116 1.911 . S
O115 H117 0.841 . S
Zn116 O115 1.911 . S
Zn116 O129 1.970 . S
Zn116 O145 1.981 . S
Zn116 O147 1.945 . S
H117 O115 0.841 . S
Zn118 O119 1.933 . S
Zn118 O131 1.985 . S
Zn118 O139 1.955 . S
O119 Zn118 1.933 . S
O119 H120 0.841 . S
O119 Zn121 1.911 . S
H120 O119 0.841 . S
Zn121 O119 1.911 . S
Zn121 O132 1.970 . S
Zn121 O142 1.981 . S
Zn121 O150 1.945 . S
C122 O123 1.246 . S
C122 O139 1.276 . S
O123 C122 1.246 . S
O124 Zn104 1.985 . S
O124 C134 1.245 . S
O125 Zn105 1.970 . S
O125 C134 1.263 . S
O126 Zn111 1.985 . S
O126 C138 1.245 . S
O127 Zn110 1.970 . S
O127 C138 1.263 . S
O128 Zn114 1.985 . S
O128 C143 1.245 . S
O129 Zn116 1.970 . S
O129 C143 1.263 . S
C130 O141 1.261 . S
C130 O142 1.245 1_565 S
O131 Zn118 1.985 . S
O131 C149 1.245 . S
O132 Zn121 1.970 . S
O132 C149 1.263 . S
O133 Zn111 1.955 . S
O133 C152 1.276 1_545 S
C134 O124 1.245 . S
C134 O125 1.263 . S
O135 Zn104 1.955 . S
O135 C154 1.276 1_565 S
C136 O144 1.265 . S
C136 O145 1.243 1_545 S
O137 C108 1.276 . S
O137 Zn114 1.955 . S
C138 O126 1.245 . S
C138 O127 1.263 . S
O139 Zn118 1.955 . S
O139 C122 1.276 . S
C140 O147 1.262 . S
C140 O148 1.245 . S
O141 Zn105 1.945 . S
O141 C130 1.261 . S
O142 Zn121 1.981 . S
O142 C130 1.245 1_545 S
C143 O128 1.245 . S
C143 O129 1.263 . S
O144 Zn110 1.945 . S
O144 C136 1.265 . S
O145 Zn116 1.981 . S
O145 C136 1.243 1_565 S
C146 O150 1.262 . S
C146 O151 1.245 . S
O147 Zn116 1.945 . S
O147 C140 1.262 . S
O148 Zn105 1.981 . S
O148 C140 1.245 . S
C149 O131 1.245 . S
C149 O132 1.263 . S
O150 Zn121 1.945 . S
O150 C146 1.262 . S
O151 Zn110 1.981 . S
O151 C146 1.245 . S
C152 O133 1.276 1_565 S
C152 O153 1.246 . S
O153 C152 1.246 . S
C154 O135 1.276 1_545 S
C154 O155 1.246 . S
O155 C154 1.246 . S
Zn156 O158 1.933 . S
Zn156 O176 1.985 . S
Zn156 O187 1.955 . S
Zn157 O158 1.911 1_556 S
Zn157 O177 1.970 . S
Zn157 O193 1.945 . S
Zn157 O200 1.981 . S
O158 Zn156 1.933 . S
O158 Zn157 1.911 1_554 S
O158 H159 0.841 . S
H159 O158 0.841 . S
C160 O161 1.246 . S
C160 O189 1.276 . S
O161 C160 1.246 . S
Zn162 O164 1.911 1_556 S
Zn162 O179 1.970 . S
Zn162 O196 1.945 . S
Zn162 O203 1.981 . S
Zn163 O164 1.933 . S
Zn163 O178 1.985 . S
Zn163 O185 1.955 . S
O164 Zn162 1.911 1_554 S
O164 Zn163 1.933 . S
O164 H165 0.841 . S
H165 O164 0.841 . S
Zn166 O167 1.933 . S
Zn166 O180 1.985 . S
Zn166 O189 1.955 . S
O167 Zn166 1.933 . S
O167 Zn168 1.911 1_554 S
O167 H169 0.841 . S
Zn168 O167 1.911 1_556 S
Zn168 O181 1.970 . S
Zn168 O197 1.981 . S
Zn168 O199 1.945 . S
H169 O167 0.841 . S
Zn170 O171 1.933 . S
Zn170 O183 1.985 . S
Zn170 O191 1.955 . S
O171 Zn170 1.933 . S
O171 H172 0.841 . S
O171 Zn173 1.911 1_554 S
H172 O171 0.841 . S
Zn173 O171 1.911 1_556 S
Zn173 O184 1.970 . S
Zn173 O194 1.981 . S
Zn173 O202 1.945 . S
C174 O175 1.246 . S
C174 O191 1.276 . S
O175 C174 1.246 . S
O176 Zn156 1.985 . S
O176 C186 1.245 . S
O177 Zn157 1.970 . S
O177 C186 1.263 1_556 S
O178 Zn163 1.985 . S
O178 C190 1.245 . S
O179 Zn162 1.970 . S
O179 C190 1.263 1_556 S
O180 Zn166 1.985 . S
O180 C195 1.245 . S
O181 Zn168 1.970 . S
O181 C195 1.263 1_556 S
C182 O193 1.262 . S
C182 O194 1.245 . S
O183 Zn170 1.985 . S
O183 C201 1.245 . S
O184 Zn173 1.970 . S
O184 C201 1.263 1_556 S
O185 Zn163 1.955 . S
O185 C204 1.276 . S
C186 O176 1.245 . S
C186 O177 1.263 1_554 S
O187 Zn156 1.955 . S
O187 C206 1.276 . S
C188 O196 1.262 . S
C188 O197 1.245 . S
O189 C160 1.276 . S
O189 Zn166 1.955 . S
C190 O178 1.245 . S
C190 O179 1.263 1_554 S
O191 Zn170 1.955 . S
O191 C174 1.276 . S
C192 O199 1.262 . S
C192 O200 1.245 . S
O193 Zn157 1.945 . S
O193 C182 1.262 . S
O194 Zn173 1.981 . S
O194 C182 1.245 . S
C195 O180 1.245 . S
C195 O181 1.263 1_554 S
O196 Zn162 1.945 . S
O196 C188 1.262 . S
O197 Zn168 1.981 . S
O197 C188 1.245 . S
C198 O202 1.262 . S
C198 O203 1.245 . S
O199 Zn168 1.945 . S
O199 C192 1.262 . S
O200 Zn157 1.981 . S
O200 C192 1.245 . S
C201 O183 1.245 . S
C201 O184 1.263 1_554 S
O202 Zn173 1.945 . S
O202 C198 1.262 . S
O203 Zn162 1.981 . S
O203 C198 1.245 . S
C204 O185 1.276 . S
C204 O205 1.246 . S
O205 C204 1.246 . S
C206 O187 1.276 . S
C206 O207 1.246 . S
O207 C206 1.246 . S
C42 C102 1.939 1_655 S
C26 C152 1.872 1_545 S
C36 C78 1.800 1_455 S
C154 C32 1.881 . S
C4 C84 1.906 1_655 S
C48 C130 1.864 . S
C100 C18 2.033 1_655 S
C136 C50 1.877 . S
C201 C34 0.110 . S
C186 C39 0.089 . S
C190 C45 0.102 . S
C30 C195 0.100 . S
C188 C91 0.987 . S
C86 C182 1.027 . S
C97 C206 1.173 . S
C204 C82 1.088 . S
C134 C94 0.962 . S
C70 C149 1.011 . S
C88 C143 0.933 . S
C138 C56 1.154 . S
C198 C146 1.804 . S
C140 C192 1.794 . S
C160 C108 2.066 . S
C122 C174 2.077 . S
