# Generated by pormake.
# Topology pcu, (6)-cn, num edge types: 1
# Building blocks:
#     Node 0, Type 0, BuildingBlock: MIFKUJ_clean_sbu_0, # of connection points: 6
#     Edge 1, Type (0, 0), BuildingBlock: XIVTED_clean_linker_0, # of connection points: 2
#     Edge 2, Type (0, 0), BuildingBlock: XIVTED_clean_linker_0, # of connection points: 2
#     Edge 3, Type (0, 0), BuildingBlock: XIVTED_clean_linker_0, # of connection points: 2
# Relax obj value: 0.000
# Max RMSD: 0.000
# Mean RMSD: 0.000
data_MOF--net-pcu--node1-MIFKUJ_clean_sbu_0--edge1-XIVTED_clean_linker_0
_symmetry_space_group_name_H-M    P1
_symmetry_Int_Tables_number       1
_symmetry_cell_setting            triclinic
loop_
_symmetry_equiv_pos_as_xyz
'x, y, z'
_cell_length_a     15.809718
_cell_length_b     18.457102
_cell_length_c     14.806784
_cell_angle_alpha  101.53237
_cell_angle_beta   94.272982
_cell_angle_gamma 98.407386
loop_
_atom_site_label
_atom_site_type_symbol
_atom_site_fract_x
_atom_site_fract_y
_atom_site_fract_z
_atom_type_partial_charge
Zn0 Zn 0.05073 0.87496 0.95702 0.0
Zn1 Zn 1.04337 0.04153 -0.01094 0.0
C2 C 0.22598 0.8829 0.91886 0.0
O3 O 0.18967 0.83135 0.84637 0.0
C4 C 0.86812 0.03366 0.02721 0.0
O5 O 0.90443 0.08521 0.09969 0.0
O6 O 1.03638 0.76273 0.93896 0.0
O7 O 1.00024 0.91015 0.07566 0.0
O8 O 0.08954 0.01696 0.1081 0.0
C9 C 0.06981 0.73644 0.00362 0.0
O10 O 0.11092 0.78322 0.07789 0.0
O11 O 0.17879 0.91172 -0.02272 0.0
C12 C 1.0244 0.18006 0.94243 0.0
O13 O 0.98331 0.13329 0.86815 0.0
O14 O 0.05777 0.15377 0.00712 0.0
O15 O 0.09385 0.00633 0.87042 0.0
O16 O 1.00454 0.89953 0.83799 0.0
O17 O 0.9153 0.00481 0.9688 0.0
C18 C 1.04485 -0.03607 0.13524 0.0
C19 C 0.04922 0.95255 0.81084 0.0
H20 H 0.12941 0.07094 0.28271 0.0
H21 H 0.96463 0.84556 0.66338 0.0
H22 H 0.96212 0.85631 0.21569 0.0
H23 H 0.13194 0.06017 0.73039 0.0
H24 H 0.96309 0.84838 0.49895 0.0
H25 H 0.13094 0.06812 0.44714 0.0
C26 C 0.09291 0.02326 0.3025 0.0
C27 C 1.04553 -0.0362 0.23521 0.0
C28 C 1.0002 0.89483 0.54963 0.0
C29 C 0.04712 -0.03986 0.42344 0.0
C30 C 1.00113 0.89323 0.64358 0.0
C31 C 0.04853 0.95268 0.71087 0.0
C32 C 1.04693 0.95635 0.52264 0.0
C33 C 0.09461 0.013 0.68101 0.0
C34 C 0.09384 0.02166 0.39645 0.0
C35 C 0.99945 0.90348 0.26507 0.0
N36 N 0.09259 0.01329 0.58919 0.0
N37 N 1.00146 0.9032 0.35689 0.0
H38 H 0.34476 0.83187 0.80751 0.0
H39 H 0.74933 0.08473 0.13853 0.0
H40 H 0.32294 -0.01483 0.06304 0.0
H41 H 0.77115 0.9314 0.88303 0.0
H42 H 0.59318 0.04873 0.11226 0.0
H43 H 0.50091 0.86789 0.83377 0.0
C44 C 0.37275 0.87321 0.86912 0.0
C45 C 0.32057 0.9055 0.93321 0.0
C46 C 0.63207 0.02289 0.06194 0.0
C47 C 0.49964 0.94693 0.96382 0.0
C48 C 0.72135 0.04339 0.07692 0.0
C49 C 0.77352 0.01108 0.01284 0.0
C50 C 0.59445 -0.03033 -0.01777 0.0
C51 C 0.73351 0.95778 0.9343 0.0
C52 C 0.46202 0.89371 0.8841 0.0
C53 C 0.36058 -0.04121 0.01176 0.0
N54 N 0.6464 0.93882 0.92119 0.0
N55 N 0.44769 -0.02223 0.02486 0.0
H56 H 0.13333 0.66287 0.12988 0.0
H57 H 0.96097 0.25364 0.81612 0.0
H58 H 0.99167 0.62339 0.85908 0.0
H59 H 0.10253 0.29311 0.08698 0.0
H60 H 0.97166 0.38882 0.83059 0.0
H61 H 0.12267 0.52769 0.1154 0.0
C62 C 0.09993 0.6258 0.06732 0.0
C63 C 0.06332 0.65458 -0.00444 0.0
C64 C 1.00042 0.36797 0.88689 0.0
C65 C 0.05091 0.4995 -0.02146 0.0
C66 C 0.99435 0.29071 0.8787 0.0
C67 C 1.03093 0.26193 0.95048 0.0
C68 C 1.04337 0.41701 0.96748 0.0
C69 C 0.0734 0.31276 0.02989 0.0
C70 C 0.09389 0.54854 0.05912 0.0
C71 C 1.02083 0.60375 0.91616 0.0
N72 N 0.07843 0.3878 0.03624 0.0
N73 N 1.01582 0.52871 0.9098 0.0
loop_
_geom_bond_atom_site_label_1
_geom_bond_atom_site_label_2
_geom_bond_distance
_geom_bond_site_symmetry_2
_ccdc_geom_bond_type
Zn0 O6 1.969 . S
Zn0 O7 1.965 1_456 S
Zn0 O11 2.024 1_556 S
Zn0 O16 1.969 . S
Zn1 O8 1.969 . S
Zn1 O14 1.969 . S
Zn1 O15 1.965 1_654 S
Zn1 O17 2.024 1_554 S
C2 O3 1.229 . S
C2 O11 1.058 1_556 S
O3 C2 1.229 . S
C4 O5 1.229 . S
C4 O17 1.058 1_554 S
O5 C4 1.229 . S
O6 Zn0 1.969 . S
O6 C9 1.267 1_556 S
O7 Zn0 1.965 1_654 S
O7 C18 1.266 . S
O8 Zn1 1.969 . S
O8 C18 1.249 1_545 S
C9 O6 1.267 1_554 S
C9 O10 1.228 . S
O10 C9 1.228 . S
O11 Zn0 2.024 1_554 S
O11 C2 1.058 1_554 S
C12 O13 1.228 . S
C12 O14 1.267 1_556 S
O13 C12 1.228 . S
O14 Zn1 1.969 . S
O14 C12 1.267 1_554 S
O15 Zn1 1.965 1_456 S
O15 C19 1.269 . S
O16 Zn0 1.969 . S
O16 C19 1.245 1_565 S
O17 Zn1 2.024 1_556 S
O17 C4 1.058 1_556 S
C18 O7 1.266 . S
C18 O8 1.249 1_565 S
C19 O15 1.269 . S
C19 O16 1.245 1_545 S
H20 C26 0.930 . S
H21 C30 0.930 . S
H22 C35 0.929 . S
H23 C33 0.929 . S
H24 C28 0.929 . S
H25 C34 0.929 . S
C26 H20 0.930 . S
C26 C27 1.367 1_655 S
C26 C34 1.378 . S
C27 C26 1.367 1_455 S
C27 C35 1.433 1_545 S
C28 H24 0.929 . S
C28 C30 1.378 . S
C28 C32 1.350 . S
C29 C32 1.462 1_545 S
C29 C34 1.350 1_455 S
C29 N37 1.427 1_545 S
C30 H21 0.930 . S
C30 C28 1.378 . S
C30 C31 1.367 . S
C31 C30 1.367 . S
C31 C33 1.433 1_465 S
C32 C28 1.350 . S
C32 C29 1.462 1_565 S
C32 N36 1.427 1_465 S
C33 H23 0.929 . S
C33 C31 1.433 1_645 S
C33 N36 1.384 . S
C34 H25 0.929 . S
C34 C26 1.378 . S
C34 C29 1.350 1_655 S
C35 H22 0.929 . S
C35 C27 1.433 1_565 S
C35 N37 1.384 . S
N36 C32 1.427 1_645 S
N36 C33 1.384 . S
N37 C29 1.427 1_565 S
N37 C35 1.384 . S
H38 C44 0.930 . S
H39 C48 0.930 . S
H40 C53 0.929 . S
H41 C51 0.929 . S
H42 C46 0.929 . S
H43 C52 0.929 . S
C44 H38 0.930 . S
C44 C45 1.367 . S
C44 C52 1.378 . S
C45 C44 1.367 . S
C45 C53 1.433 1_546 S
C46 H42 0.929 . S
C46 C48 1.378 . S
C46 C50 1.350 . S
C47 C50 1.463 1_546 S
C47 C52 1.350 . S
C47 N55 1.427 1_546 S
C48 H39 0.930 . S
C48 C46 1.378 . S
C48 C49 1.371 . S
C49 C48 1.371 . S
C49 C51 1.423 1_564 S
C50 C46 1.350 . S
C50 C47 1.463 1_564 S
C50 N54 1.427 1_564 S
C51 H41 0.929 . S
C51 C49 1.423 1_546 S
C51 N54 1.384 . S
C52 H43 0.929 . S
C52 C44 1.378 . S
C52 C47 1.350 . S
C53 H40 0.929 . S
C53 C45 1.433 1_564 S
C53 N55 1.384 . S
N54 C50 1.427 1_546 S
N54 C51 1.384 . S
N55 C47 1.427 1_564 S
N55 C53 1.384 . S
H56 C62 0.930 . S
H57 C66 0.930 . S
H58 C71 0.929 . S
H59 C69 0.929 . S
H60 C64 0.929 . S
H61 C70 0.929 . S
C62 H56 0.930 . S
C62 C63 1.367 . S
C62 C70 1.378 . S
C63 C62 1.367 . S
C63 C71 1.432 1_456 S
C64 H60 0.929 . S
C64 C66 1.378 . S
C64 C68 1.353 . S
C65 C68 1.460 1_456 S
C65 C70 1.352 . S
C65 N73 1.426 1_456 S
C66 H57 0.930 . S
C66 C64 1.378 . S
C66 C67 1.368 . S
C67 C66 1.368 . S
C67 C69 1.431 1_654 S
C68 C64 1.353 . S
C68 C65 1.460 1_654 S
C68 N72 1.426 1_654 S
C69 H59 0.929 . S
C69 C67 1.431 1_456 S
C69 N72 1.384 . S
C70 H61 0.929 . S
C70 C62 1.378 . S
C70 C65 1.352 . S
C71 H58 0.929 . S
C71 C63 1.432 1_654 S
C71 N73 1.384 . S
N72 C68 1.426 1_456 S
N72 C69 1.384 . S
N73 C65 1.426 1_654 S
N73 C71 1.384 . S
C27 C18 1.480 1_445 S
C31 C19 1.480 1_565 S
C45 C2 1.418 1_545 S
C49 C4 1.420 1_565 S
C63 C9 1.453 1_556 S
C67 C12 1.453 1_554 S
