# Generated by pormake.
# Topology smk, (6)-cn, num edge types: 1
# Building blocks:
#     Node 0, Type 0, BuildingBlock: VOLQOD_clean_sbu_1, # of connection points: 6
#     Node 1, Type 0, BuildingBlock: VOLQOD_clean_sbu_1, # of connection points: 6
#     Node 2, Type 0, BuildingBlock: VOLQOD_clean_sbu_1, # of connection points: 6
#     Node 3, Type 0, BuildingBlock: VOLQOD_clean_sbu_1, # of connection points: 6
#     Node 4, Type 0, BuildingBlock: VOLQOD_clean_sbu_1, # of connection points: 6
#     Node 5, Type 0, BuildingBlock: VOLQOD_clean_sbu_1, # of connection points: 6
#     Edge 6, Type (0, 0), BuildingBlock: EYOCIG_clean_linker_4, # of connection points: 2
#     Edge 7, Type (0, 0), BuildingBlock: EYOCIG_clean_linker_4, # of connection points: 2
#     Edge 8, Type (0, 0), BuildingBlock: EYOCIG_clean_linker_4, # of connection points: 2
#     Edge 9, Type (0, 0), BuildingBlock: EYOCIG_clean_linker_4, # of connection points: 2
#     Edge 10, Type (0, 0), BuildingBlock: EYOCIG_clean_linker_4, # of connection points: 2
#     Edge 11, Type (0, 0), BuildingBlock: EYOCIG_clean_linker_4, # of connection points: 2
#     Edge 12, Type (0, 0), BuildingBlock: EYOCIG_clean_linker_4, # of connection points: 2
#     Edge 13, Type (0, 0), BuildingBlock: EYOCIG_clean_linker_4, # of connection points: 2
#     Edge 14, Type (0, 0), BuildingBlock: EYOCIG_clean_linker_4, # of connection points: 2
#     Edge 15, Type (0, 0), BuildingBlock: EYOCIG_clean_linker_4, # of connection points: 2
#     Edge 16, Type (0, 0), BuildingBlock: EYOCIG_clean_linker_4, # of connection points: 2
#     Edge 17, Type (0, 0), BuildingBlock: EYOCIG_clean_linker_4, # of connection points: 2
#     Edge 18, Type (0, 0), BuildingBlock: EYOCIG_clean_linker_4, # of connection points: 2
#     Edge 19, Type (0, 0), BuildingBlock: EYOCIG_clean_linker_4, # of connection points: 2
#     Edge 20, Type (0, 0), BuildingBlock: EYOCIG_clean_linker_4, # of connection points: 2
#     Edge 21, Type (0, 0), BuildingBlock: EYOCIG_clean_linker_4, # of connection points: 2
#     Edge 22, Type (0, 0), BuildingBlock: EYOCIG_clean_linker_4, # of connection points: 2
#     Edge 23, Type (0, 0), BuildingBlock: EYOCIG_clean_linker_4, # of connection points: 2
# Relax obj value: 0.161
# Max RMSD: 0.171
# Mean RMSD: 0.171
data_MOF--net-smk--node1-VOLQOD_clean_sbu_1--edge1-EYOCIG_clean_linker_4
_symmetry_space_group_name_H-M    P1
_symmetry_Int_Tables_number       1
_symmetry_cell_setting            triclinic
loop_
_symmetry_equiv_pos_as_xyz
'x, y, z'
_cell_length_a     36.149894
_cell_length_b     36.138667
_cell_length_c     13.905166
_cell_angle_alpha  90.038586
_cell_angle_beta   89.958947
_cell_angle_gamma 120.00273
loop_
_atom_site_label
_atom_site_type_symbol
_atom_site_fract_x
_atom_site_fract_y
_atom_site_fract_z
_atom_type_partial_charge
O0 O 0.44414 0.25502 0.77877 0.0
Zn1 Zn 0.43622 0.26283 0.63695 0.0
O2 O 0.42504 0.21193 0.56717 0.0
Zn3 Zn 0.47314 0.22337 0.48635 0.0
Zn4 Zn 0.4157 0.16807 0.65808 0.0
Zn5 Zn 0.37482 0.19198 0.48821 0.0
O6 O 0.45366 0.20429 0.3496 0.0
O7 O 0.39336 0.20724 0.35089 0.0
O8 O 0.48604 0.31619 0.57618 0.0
O9 O 0.51015 0.28659 0.47136 0.0
O10 O 0.50982 0.20145 0.54849 0.0
O11 O 0.46969 0.16601 0.67447 0.0
O12 O 0.36865 0.11028 0.6135 0.0
O13 O 0.38382 0.26857 0.63176 0.0
O14 O 0.34005 0.12784 0.49252 0.0
O15 O 0.33883 0.21737 0.53236 0.0
C16 C 0.4246 0.22066 0.82792 0.0
C17 C 0.42366 0.20637 0.30606 0.0
C18 C 0.50396 0.18036 0.62609 0.0
C19 C 0.51164 0.31927 0.50931 0.0
C20 C 0.34163 0.10002 0.54558 0.0
C21 C 0.34782 0.24817 0.58991 0.0
O22 O 0.40516 0.18388 0.78885 0.0
O23 O 0.18518 0.44485 0.94581 0.0
Zn24 Zn 0.16967 0.43711 0.80391 0.0
O25 O 0.20967 0.42631 0.73419 0.0
Zn26 Zn 0.24635 0.47468 0.65406 0.0
Zn27 Zn 0.24411 0.41696 0.82527 0.0
Zn28 Zn 0.1797 0.3762 0.6546 0.0
O29 O 0.24611 0.45564 0.51689 0.0
O30 O 0.1832 0.39494 0.51746 0.0
O31 O 0.16618 0.48708 0.74414 0.0
O32 O 0.22016 0.51172 0.64002 0.0
O33 O 0.30484 0.51131 0.71662 0.0
O34 O 0.30003 0.47103 0.84234 0.0
O35 O 0.25507 0.37007 0.78055 0.0
O36 O 0.11163 0.38459 0.79763 0.0
O37 O 0.2092 0.34157 0.65899 0.0
O38 O 0.11823 0.33994 0.69779 0.0
C39 C 0.20016 0.42548 -0.00504 0.0
C40 C 0.21425 0.42551 0.473 0.0
C41 C 0.31997 0.50539 0.79428 0.0
C42 C 0.18888 0.51302 0.678 0.0
C43 C 0.2385 0.34314 0.71234 0.0
C44 C 0.09621 0.3487 0.75524 0.0
O45 O 0.21764 0.40618 0.95591 0.0
O46 O 0.73745 0.18697 0.11133 0.0
Zn47 Zn 0.72939 0.17112 0.96969 0.0
O48 O 0.78001 0.21109 0.89939 0.0
Zn49 Zn 0.76787 0.24735 0.81901 0.0
Zn50 Zn 0.82407 0.24609 -0.01043 0.0
Zn51 Zn 0.80002 0.18091 0.81996 0.0
O52 O 0.7868 0.24711 0.68212 0.0
O53 O 0.78479 0.18429 0.68277 0.0
O54 O 0.67564 0.16711 0.91014 0.0
O55 O 0.7046 0.22069 0.80501 0.0
O56 O 0.78951 0.30599 0.8808 0.0
O57 O 0.826 0.30215 0.00551 0.0
O58 O 0.88181 0.25675 0.94463 0.0
O59 O 0.72399 0.11312 0.96411 0.0
O60 O 0.86412 0.21028 0.82411 0.0
O61 O 0.77488 0.1195 0.86346 0.0
C62 C 0.77194 0.20239 0.1601 0.0
C63 C 0.78526 0.21532 0.63829 0.0
C64 C 0.81108 0.32166 0.95763 0.0
C65 C 0.67216 0.18944 0.84347 0.0
C66 C 0.89198 0.2398 0.87687 0.0
C67 C 0.74433 0.09761 0.92148 0.0
O68 O 0.80865 0.22016 0.12072 0.0
O69 O 0.54692 0.73932 0.27894 0.0
Zn70 Zn 0.5548 0.73104 0.13754 0.0
O71 O 0.56567 0.7816 0.06687 0.0
Zn72 Zn 0.51735 0.76953 -0.01356 0.0
Zn73 Zn 0.57487 0.82578 0.15689 0.0
Zn74 Zn 0.61583 0.80141 -0.0124 0.0
O75 O 0.5366 0.78847 0.84968 0.0
O76 O 0.59722 0.78612 0.85034 0.0
O77 O 0.50498 0.67729 0.07816 0.0
O78 O 0.4806 0.70626 0.97253 0.0
O79 O 0.48043 0.79122 0.04819 0.0
O80 O 0.52075 0.82767 0.17303 0.0
O81 O 0.62191 0.88344 0.11161 0.0
O82 O 0.60734 0.72554 0.1327 0.0
O83 O 0.65069 0.86553 -0.0085 0.0
O84 O 0.65196 0.7762 0.03179 0.0
C85 C 0.56628 0.77385 0.32756 0.0
C86 C 0.56677 0.78679 0.80586 0.0
C87 C 0.48632 0.81274 0.12513 0.0
C88 C 0.47923 0.67381 0.01134 0.0
C89 C 0.64906 0.8935 0.04397 0.0
C90 C 0.64323 0.74578 0.09022 0.0
O91 O 0.58553 0.81051 0.28801 0.0
O92 O 0.80476 0.54837 0.44506 0.0
Zn93 Zn 0.82059 0.55627 0.30328 0.0
O94 O 0.78092 0.56742 0.23332 0.0
Zn95 Zn 0.7446 0.51939 0.15201 0.0
Zn96 Zn 0.74598 0.57635 0.32395 0.0
Zn97 Zn 0.81128 0.61788 0.15492 0.0
O98 O 0.74509 0.53909 0.01556 0.0
O99 O 0.80811 0.59968 0.01728 0.0
O100 O 0.82429 0.50646 0.2427 0.0
O101 O 0.77102 0.4826 0.1369 0.0
O102 O 0.68594 0.48229 0.21354 0.0
O103 O 0.69003 0.52213 0.33965 0.0
O104 O 0.73527 0.62346 0.27985 0.0
O105 O 0.87871 0.60871 0.29838 0.0
O106 O 0.78199 0.65271 0.15997 0.0
O107 O 0.8726 0.65381 0.19926 0.0
C108 C 0.78966 0.56771 0.49404 0.0
C109 C 0.77707 0.56933 0.97225 0.0
C110 C 0.67042 0.48789 0.29102 0.0
C111 C 0.80204 0.48101 0.17536 0.0
C112 C 0.75237 0.65086 0.21271 0.0
C113 C 0.89435 0.64478 0.25677 0.0
O114 O 0.77205 0.58683 0.45486 0.0
O115 O 0.25315 0.80592 0.61226 0.0
Zn116 Zn 0.26113 0.82189 0.47055 0.0
O117 O 0.21037 0.78225 0.40044 0.0
Zn118 Zn 0.22198 0.74566 0.31984 0.0
Zn119 Zn 0.1665 0.74765 0.49127 0.0
Zn120 Zn 0.19044 0.8125 0.32134 0.0
O121 O 0.20258 0.7456 0.18327 0.0
O122 O 0.20538 0.8088 0.18389 0.0
O123 O 0.31458 0.82553 0.41004 0.0
O124 O 0.28517 0.77211 0.30451 0.0
O125 O 0.20056 0.68729 0.38259 0.0
O126 O 0.16475 0.69176 0.50812 0.0
O127 O 0.10873 0.73683 0.44666 0.0
O128 O 0.26684 0.88003 0.46541 0.0
O129 O 0.12631 0.78331 0.3263 0.0
O130 O 0.21605 0.87399 0.36499 0.0
C131 C 0.21873 0.79111 0.66123 0.0
C132 C 0.20446 0.77752 0.13939 0.0
C133 C 0.17944 0.67203 0.46016 0.0
C134 C 0.31777 0.80321 0.34285 0.0
C135 C 0.09849 0.75379 0.37917 0.0
C136 C 0.24666 0.89574 0.42298 0.0
O137 O 0.18204 0.774 0.62196 0.0
C138 C 0.42581 0.21508 0.11763 0.0
C139 C 0.42553 0.21106 0.20362 0.0
C140 C 0.42623 0.22023 0.01712 0.0
C141 C 0.42663 0.22257 0.93074 0.0
C142 C 0.20765 0.42756 0.28459 0.0
C143 C 0.21152 0.42744 0.37056 0.0
C144 C 0.20265 0.42763 0.18412 0.0
C145 C 0.2005 0.42777 0.09776 0.0
C146 C 0.77236 0.20451 0.34926 0.0
C147 C 0.77015 0.20257 0.2629 0.0
C148 C 0.77717 0.20912 0.44981 0.0
C149 C 0.78089 0.2127 0.53583 0.0
C150 C 0.56464 0.77432 0.51671 0.0
C151 C 0.56436 0.77216 0.43034 0.0
C152 C 0.56489 0.77899 0.6173 0.0
C153 C 0.56506 0.78258 0.70336 0.0
C154 C 0.78801 0.56665 0.68324 0.0
C155 C 0.78978 0.56601 0.59687 0.0
C156 C 0.78354 0.56731 0.78378 0.0
C157 C 0.77996 0.56764 0.8698 0.0
C158 C 0.21286 0.78373 0.95089 0.0
C159 C 0.20898 0.78011 0.03691 0.0
C160 C 0.21802 0.78854 0.85039 0.0
C161 C 0.22047 0.7907 0.76404 0.0
C162 C 0.29362 0.01881 0.49846 0.0
C163 C 0.31562 0.05584 0.52032 0.0
C164 C 0.27267 0.97581 0.46807 0.0
C165 C 0.25884 0.93923 0.44363 0.0
C166 C 0.29379 0.27418 0.63515 0.0
C167 C 0.31651 0.26034 0.6107 0.0
C168 C 0.27176 0.29516 0.66548 0.0
C169 C 0.25672 0.31716 0.68727 0.0
C170 C 0.97312 0.27261 0.82967 0.0
C171 C 0.93612 0.25777 0.85158 0.0
C172 C 0.01611 0.29451 0.79941 0.0
C173 C 0.05272 0.31725 0.7753 0.0
C174 C 0.69745 0.97459 -0.00353 0.0
C175 C 0.67528 0.93761 0.01846 0.0
C176 C 0.71853 0.01757 0.96607 0.0
C177 C 0.73232 0.05414 0.94175 0.0
C178 C 0.71949 0.69921 0.16637 0.0
C179 C 0.73437 0.67705 0.18788 0.0
C180 C 0.6975 0.72017 0.13596 0.0
C181 C 0.67467 0.73384 0.11119 0.0
C182 C 0.97432 0.69885 0.30232 0.0
C183 C 0.93778 0.67611 0.27775 0.0
C184 C 0.0173 0.72084 0.3326 0.0
C185 C 0.05433 0.73577 0.35418 0.0
C186 C 0.56876 0.39142 0.42767 0.0
C187 C 0.54182 0.36031 0.46984 0.0
C188 C 0.60193 0.42506 0.37429 0.0
C189 C 0.63295 0.45271 0.33324 0.0
C190 C 0.17413 0.57052 0.59768 0.0
C191 C 0.17813 0.54338 0.63928 0.0
C192 C 0.17376 0.60376 0.54448 0.0
C193 C 0.17712 0.63469 0.5031 0.0
C194 C 0.59978 0.17423 0.76311 0.0
C195 C 0.63094 0.17837 0.8049 0.0
C196 C 0.56627 0.174 0.70983 0.0
C197 C 0.53885 0.17768 0.66862 0.0
C198 C 0.4218 0.60135 0.93159 0.0
C199 C 0.44892 0.63256 0.97311 0.0
C200 C 0.38848 0.56776 0.87847 0.0
C201 C 0.35744 0.54028 0.83716 0.0
C202 C 0.81699 0.42373 0.09419 0.0
C203 C 0.81289 0.45075 0.13626 0.0
C204 C 0.81724 0.3904 0.04097 0.0
C205 C 0.81364 0.35924 4e-05 0.0
C206 C 0.42367 0.81866 0.20861 0.0
C207 C 0.45128 0.81519 0.16766 0.0
C208 C 0.39002 0.81825 0.26176 0.0
C209 C 0.35886 0.81408 0.30373 0.0
loop_
_geom_bond_atom_site_label_1
_geom_bond_atom_site_label_2
_geom_bond_distance
_geom_bond_site_symmetry_2
_ccdc_geom_bond_type
O0 Zn1 1.953 . S
O0 C16 1.225 . S
Zn1 O0 1.953 . S
Zn1 O2 1.949 . S
Zn1 O8 1.919 . S
Zn1 O13 1.924 . S
O2 Zn1 1.949 . S
O2 Zn3 1.923 . S
O2 Zn4 1.950 . S
O2 Zn5 1.945 . S
Zn3 O2 1.923 . S
Zn3 O6 1.933 . S
Zn3 O9 1.941 . S
Zn3 O10 1.965 . S
Zn4 O2 1.950 . S
Zn4 O11 1.938 . S
Zn4 O12 1.906 . S
Zn4 O22 1.953 . S
Zn5 O2 1.945 . S
Zn5 O7 1.932 . S
Zn5 O14 1.977 . S
Zn5 O15 1.910 . S
O6 Zn3 1.933 . S
O6 C17 1.226 . S
O7 Zn5 1.932 . S
O7 C17 1.307 . S
O8 Zn1 1.919 . S
O8 C19 1.253 . S
O9 Zn3 1.941 . S
O9 C19 1.283 . S
O10 Zn3 1.965 . S
O10 C18 1.303 . S
O11 Zn4 1.938 . S
O11 C18 1.247 . S
O12 Zn4 1.906 . S
O12 C20 1.304 . S
O13 Zn1 1.924 . S
O13 C21 1.311 . S
O14 Zn5 1.977 . S
O14 C20 1.272 . S
O15 Zn5 1.910 . S
O15 C21 1.231 . S
C16 O0 1.225 . S
C16 O22 1.298 . S
C17 O6 1.226 . S
C17 O7 1.307 . S
C18 O10 1.303 . S
C18 O11 1.247 . S
C19 O8 1.253 . S
C19 O9 1.283 . S
C20 O12 1.304 . S
C20 O14 1.272 . S
C21 O13 1.311 . S
C21 O15 1.231 . S
O22 Zn4 1.953 . S
O22 C16 1.298 . S
O23 Zn24 1.953 . S
O23 C39 1.225 1_556 S
Zn24 O23 1.953 . S
Zn24 O25 1.949 . S
Zn24 O31 1.919 . S
Zn24 O36 1.924 . S
O25 Zn24 1.949 . S
O25 Zn26 1.923 . S
O25 Zn27 1.950 . S
O25 Zn28 1.945 . S
Zn26 O25 1.923 . S
Zn26 O29 1.933 . S
Zn26 O32 1.941 . S
Zn26 O33 1.965 . S
Zn27 O25 1.950 . S
Zn27 O34 1.938 . S
Zn27 O35 1.906 . S
Zn27 O45 1.953 . S
Zn28 O25 1.945 . S
Zn28 O30 1.932 . S
Zn28 O37 1.977 . S
Zn28 O38 1.910 . S
O29 Zn26 1.933 . S
O29 C40 1.226 . S
O30 Zn28 1.932 . S
O30 C40 1.307 . S
O31 Zn24 1.919 . S
O31 C42 1.253 . S
O32 Zn26 1.941 . S
O32 C42 1.283 . S
O33 Zn26 1.965 . S
O33 C41 1.303 . S
O34 Zn27 1.938 . S
O34 C41 1.247 . S
O35 Zn27 1.906 . S
O35 C43 1.304 . S
O36 Zn24 1.924 . S
O36 C44 1.311 . S
O37 Zn28 1.977 . S
O37 C43 1.272 . S
O38 Zn28 1.910 . S
O38 C44 1.231 . S
C39 O23 1.225 1_554 S
C39 O45 1.298 1_554 S
C40 O29 1.226 . S
C40 O30 1.307 . S
C41 O33 1.303 . S
C41 O34 1.247 . S
C42 O31 1.253 . S
C42 O32 1.283 . S
C43 O35 1.304 . S
C43 O37 1.272 . S
C44 O36 1.311 . S
C44 O38 1.231 . S
O45 Zn27 1.953 . S
O45 C39 1.298 1_556 S
O46 Zn47 1.953 1_554 S
O46 C62 1.225 . S
Zn47 O46 1.953 1_556 S
Zn47 O48 1.949 . S
Zn47 O54 1.919 . S
Zn47 O59 1.924 . S
O48 Zn47 1.949 . S
O48 Zn49 1.923 . S
O48 Zn50 1.950 1_556 S
O48 Zn51 1.945 . S
Zn49 O48 1.923 . S
Zn49 O52 1.933 . S
Zn49 O55 1.941 . S
Zn49 O56 1.965 . S
Zn50 O48 1.950 1_554 S
Zn50 O57 1.938 . S
Zn50 O58 1.906 1_554 S
Zn50 O68 1.953 . S
Zn51 O48 1.945 . S
Zn51 O53 1.932 . S
Zn51 O60 1.977 . S
Zn51 O61 1.910 . S
O52 Zn49 1.933 . S
O52 C63 1.226 . S
O53 Zn51 1.932 . S
O53 C63 1.307 . S
O54 Zn47 1.919 . S
O54 C65 1.253 . S
O55 Zn49 1.941 . S
O55 C65 1.283 . S
O56 Zn49 1.965 . S
O56 C64 1.303 . S
O57 Zn50 1.938 . S
O57 C64 1.247 1_554 S
O58 Zn50 1.906 1_556 S
O58 C66 1.304 . S
O59 Zn47 1.924 . S
O59 C67 1.311 . S
O60 Zn51 1.977 . S
O60 C66 1.272 . S
O61 Zn51 1.910 . S
O61 C67 1.231 . S
C62 O46 1.225 . S
C62 O68 1.298 . S
C63 O52 1.226 . S
C63 O53 1.307 . S
C64 O56 1.303 . S
C64 O57 1.247 1_556 S
C65 O54 1.253 . S
C65 O55 1.283 . S
C66 O58 1.304 . S
C66 O60 1.272 . S
C67 O59 1.311 . S
C67 O61 1.231 . S
O68 Zn50 1.953 . S
O68 C62 1.298 . S
O69 Zn70 1.953 . S
O69 C85 1.225 . S
Zn70 O69 1.953 . S
Zn70 O71 1.949 . S
Zn70 O77 1.919 . S
Zn70 O82 1.924 . S
O71 Zn70 1.949 . S
O71 Zn72 1.920 1_554 S
O71 Zn73 1.950 . S
O71 Zn74 1.945 1_554 S
Zn72 O71 1.920 1_556 S
Zn72 O75 1.939 . S
Zn72 O78 1.941 1_556 S
Zn72 O79 1.964 1_556 S
Zn73 O71 1.950 . S
Zn73 O80 1.938 . S
Zn73 O81 1.906 . S
Zn73 O91 1.953 . S
Zn74 O71 1.945 1_556 S
Zn74 O76 1.932 . S
Zn74 O83 1.977 1_556 S
Zn74 O84 1.910 1_556 S
O75 Zn72 1.939 . S
O75 C86 1.226 . S
O76 Zn74 1.932 . S
O76 C86 1.307 . S
O77 Zn70 1.919 . S
O77 C88 1.253 . S
O78 Zn72 1.941 1_554 S
O78 C88 1.283 . S
O79 Zn72 1.964 1_554 S
O79 C87 1.303 . S
O80 Zn73 1.938 . S
O80 C87 1.247 . S
O81 Zn73 1.906 . S
O81 C89 1.304 . S
O82 Zn70 1.924 . S
O82 C90 1.311 . S
O83 Zn74 1.977 1_554 S
O83 C89 1.272 . S
O84 Zn74 1.910 1_554 S
O84 C90 1.231 . S
C85 O69 1.225 . S
C85 O91 1.298 . S
C86 O75 1.226 . S
C86 O76 1.307 . S
C87 O79 1.303 . S
C87 O80 1.247 . S
C88 O77 1.253 . S
C88 O78 1.283 . S
C89 O81 1.304 . S
C89 O83 1.272 . S
C90 O82 1.311 . S
C90 O84 1.231 . S
O91 Zn73 1.953 . S
O91 C85 1.298 . S
O92 Zn93 1.953 . S
O92 C108 1.225 . S
Zn93 O92 1.953 . S
Zn93 O94 1.949 . S
Zn93 O100 1.919 . S
Zn93 O105 1.924 . S
O94 Zn93 1.949 . S
O94 Zn95 1.923 . S
O94 Zn96 1.950 . S
O94 Zn97 1.945 . S
Zn95 O94 1.923 . S
Zn95 O98 1.933 . S
Zn95 O101 1.941 . S
Zn95 O102 1.965 . S
Zn96 O94 1.950 . S
Zn96 O103 1.938 . S
Zn96 O104 1.906 . S
Zn96 O114 1.953 . S
Zn97 O94 1.945 . S
Zn97 O99 1.932 . S
Zn97 O106 1.977 . S
Zn97 O107 1.910 . S
O98 Zn95 1.933 . S
O98 C109 1.226 1_554 S
O99 Zn97 1.932 . S
O99 C109 1.307 1_554 S
O100 Zn93 1.919 . S
O100 C111 1.253 . S
O101 Zn95 1.941 . S
O101 C111 1.283 . S
O102 Zn95 1.965 . S
O102 C110 1.303 . S
O103 Zn96 1.938 . S
O103 C110 1.247 . S
O104 Zn96 1.906 . S
O104 C112 1.304 . S
O105 Zn93 1.924 . S
O105 C113 1.311 . S
O106 Zn97 1.977 . S
O106 C112 1.272 . S
O107 Zn97 1.910 . S
O107 C113 1.231 . S
C108 O92 1.225 . S
C108 O114 1.298 . S
C109 O98 1.226 1_556 S
C109 O99 1.307 1_556 S
C110 O102 1.303 . S
C110 O103 1.247 . S
C111 O100 1.253 . S
C111 O101 1.283 . S
C112 O104 1.304 . S
C112 O106 1.272 . S
C113 O105 1.311 . S
C113 O107 1.231 . S
O114 Zn96 1.953 . S
O114 C108 1.298 . S
O115 Zn116 1.953 . S
O115 C131 1.225 . S
Zn116 O115 1.953 . S
Zn116 O117 1.949 . S
Zn116 O123 1.919 . S
Zn116 O128 1.924 . S
O117 Zn116 1.949 . S
O117 Zn118 1.923 . S
O117 Zn119 1.950 . S
O117 Zn120 1.945 . S
Zn118 O117 1.923 . S
Zn118 O121 1.933 . S
Zn118 O124 1.941 . S
Zn118 O125 1.965 . S
Zn119 O117 1.950 . S
Zn119 O126 1.938 . S
Zn119 O127 1.906 . S
Zn119 O137 1.953 . S
Zn120 O117 1.945 . S
Zn120 O122 1.932 . S
Zn120 O129 1.977 . S
Zn120 O130 1.910 . S
O121 Zn118 1.933 . S
O121 C132 1.226 . S
O122 Zn120 1.932 . S
O122 C132 1.307 . S
O123 Zn116 1.919 . S
O123 C134 1.253 . S
O124 Zn118 1.941 . S
O124 C134 1.283 . S
O125 Zn118 1.965 . S
O125 C133 1.303 . S
O126 Zn119 1.938 . S
O126 C133 1.247 . S
O127 Zn119 1.906 . S
O127 C135 1.304 . S
O128 Zn116 1.924 . S
O128 C136 1.311 . S
O129 Zn120 1.977 . S
O129 C135 1.272 . S
O130 Zn120 1.910 . S
O130 C136 1.231 . S
C131 O115 1.225 . S
C131 O137 1.298 . S
C132 O121 1.226 . S
C132 O122 1.307 . S
C133 O125 1.303 . S
C133 O126 1.247 . S
C134 O123 1.253 . S
C134 O124 1.283 . S
C135 O127 1.304 . S
C135 O129 1.272 . S
C136 O128 1.311 . S
C136 O130 1.231 . S
O137 Zn119 1.953 . S
O137 C131 1.298 . S
C138 C139 1.170 . S
C138 C140 1.380 . S
C139 C138 1.170 . S
C140 C138 1.380 . S
C140 C141 1.170 1_554 S
C141 C140 1.170 1_556 S
C142 C143 1.170 . S
C142 C144 1.380 . S
C143 C142 1.170 . S
C144 C142 1.380 . S
C144 C145 1.170 . S
C145 C144 1.170 . S
C146 C147 1.170 . S
C146 C148 1.380 . S
C147 C146 1.170 . S
C148 C146 1.380 . S
C148 C149 1.170 . S
C149 C148 1.170 . S
C150 C151 1.170 . S
C150 C152 1.380 . S
C151 C150 1.170 . S
C152 C150 1.380 . S
C152 C153 1.170 . S
C153 C152 1.170 . S
C154 C155 1.170 . S
C154 C156 1.380 . S
C155 C154 1.170 . S
C156 C154 1.380 . S
C156 C157 1.170 . S
C157 C156 1.170 . S
C158 C159 1.170 1_556 S
C158 C160 1.380 . S
C159 C158 1.170 1_554 S
C160 C158 1.380 . S
C160 C161 1.170 . S
C161 C160 1.170 . S
C162 C163 1.170 . S
C162 C164 1.380 1_545 S
C163 C162 1.170 . S
C164 C162 1.380 1_565 S
C164 C165 1.170 . S
C165 C164 1.170 . S
C166 C167 1.170 . S
C166 C168 1.380 . S
C167 C166 1.170 . S
C168 C166 1.380 . S
C168 C169 1.170 . S
C169 C168 1.170 . S
C170 C171 1.170 . S
C170 C172 1.380 1_655 S
C171 C170 1.170 . S
C172 C170 1.380 1_455 S
C172 C173 1.170 . S
C173 C172 1.170 . S
C174 C175 1.170 . S
C174 C176 1.380 1_564 S
C175 C174 1.170 . S
C176 C174 1.380 1_546 S
C176 C177 1.170 . S
C177 C176 1.170 . S
C178 C179 1.170 . S
C178 C180 1.380 . S
C179 C178 1.170 . S
C180 C178 1.380 . S
C180 C181 1.170 . S
C181 C180 1.170 . S
C182 C183 1.170 . S
C182 C184 1.380 1_655 S
C183 C182 1.170 . S
C184 C182 1.380 1_455 S
C184 C185 1.170 . S
C185 C184 1.170 . S
C186 C187 1.170 . S
C186 C188 1.380 . S
C187 C186 1.170 . S
C188 C186 1.380 . S
C188 C189 1.170 . S
C189 C188 1.170 . S
C190 C191 1.170 . S
C190 C192 1.380 . S
C191 C190 1.170 . S
C192 C190 1.380 . S
C192 C193 1.170 . S
C193 C192 1.170 . S
C194 C195 1.170 . S
C194 C196 1.380 . S
C195 C194 1.170 . S
C196 C194 1.380 . S
C196 C197 1.170 . S
C197 C196 1.170 . S
C198 C199 1.170 . S
C198 C200 1.380 . S
C199 C198 1.170 . S
C200 C198 1.380 . S
C200 C201 1.170 . S
C201 C200 1.170 . S
C202 C203 1.170 . S
C202 C204 1.380 . S
C203 C202 1.170 . S
C204 C202 1.380 . S
C204 C205 1.170 . S
C205 C204 1.170 . S
C206 C207 1.170 . S
C206 C208 1.380 . S
C207 C206 1.170 . S
C208 C206 1.380 . S
C208 C209 1.170 . S
C209 C208 1.170 . S
C139 C17 1.326 . S
C141 C16 1.338 . S
C143 C40 1.327 . S
C145 C39 1.338 . S
C147 C62 1.339 . S
C149 C63 1.326 . S
C151 C85 1.337 . S
C153 C86 1.328 . S
C155 C108 1.339 . S
C157 C109 1.325 . S
C159 C132 1.332 . S
C161 C131 1.333 . S
C163 C20 1.525 . S
C165 C136 1.488 . S
C167 C21 1.489 . S
C169 C43 1.525 . S
C171 C66 1.528 . S
C173 C44 1.509 . S
C175 C89 1.528 . S
C177 C67 1.510 . S
C179 C112 1.527 . S
C181 C90 1.508 . S
C183 C113 1.494 . S
C185 C135 1.525 . S
C187 C19 1.643 . S
C189 C110 1.666 . S
C191 C42 1.630 . S
C193 C133 1.664 . S
C195 C65 1.650 . S
C197 C18 1.659 . S
C199 C88 1.636 1_556 S
C201 C41 1.660 . S
C203 C111 1.649 . S
C205 C64 1.664 1_554 S
C207 C87 1.667 . S
C209 C134 1.639 . S
