# Generated by pormake.
# Topology sma, (6)-cn, num edge types: 1
# Building blocks:
#     Node 0, Type 0, BuildingBlock: INOVEN_clean_sbu_0, # of connection points: 6
#     Node 1, Type 0, BuildingBlock: INOVEN_clean_sbu_0, # of connection points: 6
#     Node 2, Type 0, BuildingBlock: INOVEN_clean_sbu_0, # of connection points: 6
#     Edge 3, Type (0, 0), BuildingBlock: OJICUG_clean_linker_0, # of connection points: 2
#     Edge 4, Type (0, 0), BuildingBlock: OJICUG_clean_linker_0, # of connection points: 2
#     Edge 5, Type (0, 0), BuildingBlock: OJICUG_clean_linker_0, # of connection points: 2
#     Edge 6, Type (0, 0), BuildingBlock: OJICUG_clean_linker_0, # of connection points: 2
#     Edge 7, Type (0, 0), BuildingBlock: OJICUG_clean_linker_0, # of connection points: 2
#     Edge 8, Type (0, 0), BuildingBlock: OJICUG_clean_linker_0, # of connection points: 2
#     Edge 9, Type (0, 0), BuildingBlock: OJICUG_clean_linker_0, # of connection points: 2
#     Edge 10, Type (0, 0), BuildingBlock: OJICUG_clean_linker_0, # of connection points: 2
#     Edge 11, Type (0, 0), BuildingBlock: OJICUG_clean_linker_0, # of connection points: 2
# Relax obj value: 0.153
# Max RMSD: 0.283
# Mean RMSD: 0.208
data_MOF--net-sma--node1-INOVEN_clean_sbu_0--edge1-OJICUG_clean_linker_0
_symmetry_space_group_name_H-M    P1
_symmetry_Int_Tables_number       1
_symmetry_cell_setting            triclinic
loop_
_symmetry_equiv_pos_as_xyz
'x, y, z'
_cell_length_a     32.837316
_cell_length_b     38.896887
_cell_length_c     10.092508
_cell_angle_alpha  94.700351
_cell_angle_beta   89.685382
_cell_angle_gamma 144.43985
loop_
_atom_site_label
_atom_site_type_symbol
_atom_site_fract_x
_atom_site_fract_y
_atom_site_fract_z
_atom_type_partial_charge
Gd0 Gd 0.18099 0.68135 0.12569 0.0
Gd1 Gd 1.09715 0.68999 0.18824 0.0
C2 C 0.25976 0.81042 0.17218 0.0
C3 C 0.26047 0.6908 0.01449 0.0
C4 C 0.28229 0.66972 -0.00913 0.0
C5 C 0.29585 0.6576 0.09583 0.0
C6 C 0.29876 0.66951 0.86264 0.0
C7 C 0.34871 0.65132 0.94658 0.0
C8 C 0.33168 0.66043 0.84058 0.0
C9 C 0.32863 0.64826 0.07367 0.0
C10 C 0.16632 0.68573 0.38548 0.0
C11 C 1.02537 0.56431 0.19432 0.0
C12 C 1.01596 0.68394 0.26225 0.0
C13 C 0.98073 0.68972 0.20229 0.0
C14 C 1.01397 0.74512 0.21143 0.0
C15 C 0.9115 0.63866 0.13993 0.0
C16 C 0.90803 0.69741 0.10301 0.0
C17 C 0.8759 0.64253 0.09027 0.0
C18 C 0.97804 0.74896 0.16174 0.0
C19 C 1.11291 0.68539 0.92797 0.0
O20 O 0.25651 0.77715 0.10752 0.0
O21 O 0.20607 0.7866 0.23097 0.0
O22 O 0.27657 0.71739 0.1339 0.0
O23 O 0.20001 0.6588 0.95576 0.0
O24 O 0.17113 0.65768 0.3315 0.0
O25 O 0.17572 0.71393 0.30319 0.0
O26 O 1.02864 0.59951 0.24083 0.0
O27 O 1.07579 0.58406 0.12998 0.0
O28 O 1.08451 0.7322 0.28888 0.0
O29 O 0.99278 0.63742 0.21379 0.0
O30 O 1.10979 0.71447 -0.01855 0.0
O31 O 1.10178 0.65674 0.01125 0.0
H32 H 0.28387 0.6578 0.19585 0.0
H33 H 0.28894 0.679 0.78047 0.0
H34 H 0.34553 0.66213 0.74123 0.0
H35 H 0.34141 0.64165 0.15749 0.0
H36 H 1.06717 0.78532 0.25949 0.0
H37 H 0.88407 0.59523 0.13139 0.0
H38 H 0.82238 0.60205 0.0438 0.0
H39 H 1.00406 0.7918 0.17394 0.0
Gd40 Gd 0.69324 0.18929 0.30918 0.0
Gd41 Gd 0.60648 0.19491 0.2555 0.0
C42 C 0.52207 1.0667 0.24362 0.0
C43 C 0.7477 0.17228 0.41008 0.0
C44 C 0.7318 0.12561 0.43993 0.0
C45 C 0.75868 0.11611 0.36437 0.0
C46 C 0.69653 0.09472 0.55086 0.0
C47 C 0.71819 1.04785 0.51288 0.0
C48 C 0.68968 1.0562 0.58667 0.0
C49 C 0.75182 1.07767 0.40004 0.0
C50 C 0.67531 0.19168 0.05309 0.0
C51 C 0.77831 0.31617 0.27597 0.0
C52 C 0.55067 0.21405 0.18798 0.0
C53 C 0.54706 0.24552 0.26235 0.0
C54 C 0.57759 0.27148 0.39523 0.0
C55 C 0.50972 0.2468 0.20431 0.0
C56 C 0.53189 0.29856 0.41296 0.0
C57 C 0.50234 0.27326 0.27883 0.0
C58 C 0.57004 0.2977 0.4699 0.0
C59 C 0.63035 0.19816 0.51392 0.0
O60 O 0.57951 0.0929 0.30503 0.0
O61 O 0.52353 0.09776 0.1919 0.0
O62 O 0.74836 0.17868 0.2844 0.0
O63 O 0.72158 0.17993 0.48146 0.0
O64 O 0.73143 0.21553 0.10554 0.0
O65 O 0.62964 0.16376 0.1341 0.0
O66 O 0.71739 0.28757 0.23081 0.0
O67 O 0.78247 0.28897 0.32897 0.0
O68 O 0.51557 0.16546 0.23359 0.0
O69 O 0.61314 0.2471 0.15885 0.0
O70 O 0.57392 0.17387 0.46403 0.0
O71 O 0.67335 0.22369 0.42855 0.0
H72 H 0.7871 0.13994 0.2797 0.0
H73 H 0.67562 0.10128 0.61206 0.0
H74 H 0.66271 1.03347 0.6732 0.0
H75 H 0.77544 1.07321 0.34191 0.0
H76 H 0.60654 0.27077 0.4417 0.0
H77 H 0.48537 0.22654 0.10216 0.0
H78 H 0.47217 0.27274 0.23234 0.0
H79 H 0.59437 0.31757 0.57209 0.0
Gd80 Gd 0.6901 0.7388 0.8889 0.0
Gd81 Gd 0.56867 0.60559 0.9069 0.0
C82 C 0.52746 0.65463 0.89678 0.0
C83 C 0.76561 0.83848 0.80812 0.0
C84 C 0.75352 0.86539 0.76578 0.0
C85 C 0.71256 0.86116 0.83533 0.0
C86 C 0.78299 0.8954 0.65284 0.0
C87 C 0.73257 0.91819 0.68122 0.0
C88 C 0.77254 0.92141 0.61076 0.0
C89 C 0.70252 0.88758 0.79386 0.0
C90 C 0.66478 0.71073 0.13808 0.0
C91 C 0.73256 0.69188 0.94786 0.0
C92 C 0.4918 0.50058 0.94164 0.0
C93 C 0.49746 0.46963 0.87522 0.0
C94 C 0.44946 0.41031 0.88941 0.0
C95 C 0.55038 0.49967 0.78999 0.0
C96 C 0.50617 0.41093 0.7295 0.0
C97 C 0.5548 0.47076 0.71822 0.0
C98 C 0.45393 0.38115 0.81732 0.0
C99 C 0.59935 0.63601 0.65814 0.0
O100 O 0.58931 0.70061 0.84988 0.0
O101 O 0.51117 0.61492 0.9497 0.0
O102 O 0.76196 0.8316 0.93449 0.0
O103 O 0.73568 0.79279 0.72785 0.0
O104 O 0.7276 0.75945 0.10538 0.0
O105 O 0.61863 0.68202 0.04123 0.0
O106 O 0.66575 0.64225 -0.03266 0.0
O107 O 0.75578 0.73579 0.89913 0.0
O108 O 0.47076 0.50958 0.86092 0.0
O109 O 0.54607 0.54816 0.02573 0.0
O110 O 0.53607 0.58879 0.68892 0.0
O111 O 0.64318 0.66313 0.75798 0.0
H112 H 0.68834 0.83751 0.92179 0.0
H113 H 0.81447 0.89898 0.59734 0.0
H114 H 0.79701 0.94512 0.52446 0.0
H115 H 0.67074 0.88364 0.84933 0.0
H116 H 0.40805 0.38636 0.95417 0.0
H117 H 0.5878 0.54547 0.7772 0.0
H118 H 0.59639 0.49534 0.65353 0.0
H119 H 0.41549 0.33493 0.8276 0.0
C120 C 0.45102 0.69094 0.85545 0.0
C121 C 0.39166 0.64935 0.92674 0.0
H122 H 0.54038 0.72529 0.79003 0.0
C123 C 0.37571 0.60791 -0.01674 0.0
H124 H 0.46527 0.724 0.81227 0.0
C125 C 0.41877 0.60859 -0.02959 0.0
C126 C 0.47905 0.65107 0.90174 0.0
H127 H 0.33006 0.5751 0.03789 0.0
H128 H 0.40548 0.5765 0.0167 0.0
C129 C 0.49432 0.69189 0.84335 0.0
C130 C 0.84029 0.41446 0.2604 0.0
C131 C 0.8432 0.38043 0.26298 0.0
H132 H 0.8955 0.49901 0.23815 0.0
C133 C 0.90715 0.40758 0.24509 0.0
H134 H 0.79179 0.39482 0.27403 0.0
C135 C 0.96657 0.4673 0.22157 0.0
C136 C 0.96336 0.50117 0.21865 0.0
H137 H 0.9107 0.38223 0.24553 0.0
H138 H 1.01499 0.48701 0.20638 0.0
C139 C 0.8998 0.47422 0.23996 0.0
C140 C 0.70688 0.97559 0.46215 0.0
C141 C 0.71633 1.01083 0.55664 0.0
H142 H 0.70369 0.9183 0.42716 0.0
C143 C 0.72764 1.0128 0.6931 0.0
H144 H 0.69674 0.97204 0.35646 0.0
C145 C 0.73119 0.98164 0.73362 0.0
C146 C 0.72389 0.94794 0.63876 0.0
H147 H 0.73623 1.04011 0.76872 0.0
H148 H 0.74211 0.98564 0.83914 0.0
C149 C 0.7108 0.9447 0.50265 0.0
C150 C 0.85063 0.74257 0.95691 0.0
C151 C 0.78055 0.69655 -0.01203 0.0
H152 H 0.94643 0.779 -0.03194 0.0
C153 C 0.75466 0.65292 0.06015 0.0
H154 H 0.87226 0.77696 0.90198 0.0
C155 C 0.79659 0.65425 0.09798 0.0
C156 C 0.86589 0.69901 0.06453 0.0
H157 H 0.70149 0.61721 0.08847 0.0
H158 H 0.7745 0.62002 0.15458 0.0
C159 C 0.89305 0.74381 -0.00492 0.0
C160 C 0.39081 0.97436 0.21791 0.0
C161 C 0.4553 1.00113 0.22562 0.0
H162 H 0.27817 0.8928 0.19686 0.0
C163 C 0.45506 0.96476 0.21362 0.0
H164 H 0.38958 1.00145 0.22728 0.0
C165 C 0.39131 0.90263 0.1925 0.0
C166 C 0.32683 0.87591 0.18689 0.0
H167 H 0.50407 0.98432 0.21852 0.0
H168 H 0.39247 0.87549 0.18344 0.0
C169 C 0.32715 0.9123 0.20065 0.0
C170 C 0.52331 0.3887 0.51308 0.0
C171 C 0.5099 0.38006 0.6477 0.0
H172 H 0.5413 0.37034 0.33422 0.0
C173 C 0.502 0.34313 0.70369 0.0
H174 H 0.52882 0.41629 0.46635 0.0
C175 C 0.50876 0.31645 0.62746 0.0
C176 C 0.52312 0.32579 0.49331 0.0
H177 H 0.49205 0.33585 0.80722 0.0
H178 H 0.50248 0.28829 0.67352 0.0
C179 C 0.52977 0.36187 0.43683 0.0
C180 C 0.1451 0.72359 0.70897 0.0
C181 C 0.12501 0.68434 0.78851 0.0
H182 H 0.17392 0.75463 0.51784 0.0
C183 C 0.1171 0.6446 0.73397 0.0
H184 H 0.15117 0.75444 0.74876 0.0
C185 C 0.13107 0.64527 0.60264 0.0
C186 C 0.15198 0.68504 0.52375 0.0
H187 H 1.09976 0.61281 0.79241 0.0
H188 H 0.12494 0.6144 0.56259 0.0
C189 C 0.15824 0.72378 0.57727 0.0
C190 C 0.59925 0.1621 0.86612 0.0
C191 C 0.66479 0.19454 0.916 0.0
H192 H 0.53711 0.13777 0.69819 0.0
C193 C 0.71983 0.22959 0.83416 0.0
H194 H 0.55613 0.13501 0.92783 0.0
C195 C 0.70913 0.23162 0.70316 0.0
C196 C 0.64308 0.19812 0.65253 0.0
H197 H 0.77103 0.25541 0.87131 0.0
H198 H 0.75235 0.25923 0.64161 0.0
C199 C 0.58843 0.16377 0.7351 0.0
C200 C 0.56263 0.62368 0.42488 0.0
C201 C 0.61684 0.65484 0.52487 0.0
H202 H 0.53564 0.6172 0.22328 0.0
C203 C 0.68716 0.70398 0.49652 0.0
H204 H 0.50795 0.58547 0.44438 0.0
C205 C 0.70309 0.72257 0.37028 0.0
C206 C 0.64876 0.6917 0.27089 0.0
H207 H 0.72974 0.72808 0.57181 0.0
H208 H 0.75769 0.7608 0.35035 0.0
C209 C 0.57846 0.64188 0.29866 0.0
loop_
_geom_bond_atom_site_label_1
_geom_bond_atom_site_label_2
_geom_bond_distance
_geom_bond_site_symmetry_2
_ccdc_geom_bond_type
Gd0 C3 2.818 . S
Gd0 O20 2.377 . S
Gd0 O22 2.448 . S
Gd0 O23 2.506 . S
Gd0 O24 2.435 . S
Gd0 O25 2.717 . S
Gd0 O27 2.395 1_455 S
Gd0 O31 2.327 1_554 S
Gd1 C12 2.818 . S
Gd1 O21 2.395 1_655 S
Gd1 O25 2.327 1_655 S
Gd1 O26 2.377 . S
Gd1 O28 2.448 . S
Gd1 O29 2.506 . S
Gd1 O30 2.435 1_554 S
Gd1 O31 2.717 1_654 S
C2 O20 1.240 . S
C2 O21 1.240 . S
C3 Gd0 2.818 . S
C3 C4 1.510 . S
C3 O22 1.249 . S
C3 O23 1.252 . S
C4 C3 1.510 . S
C4 C5 1.404 . S
C4 C6 1.352 1_554 S
C5 C4 1.404 . S
C5 C9 1.389 . S
C5 H32 0.930 . S
C6 C4 1.352 1_556 S
C6 C8 1.374 . S
C6 H33 0.931 . S
C7 C8 1.359 1_554 S
C7 C9 1.364 . S
C8 C6 1.374 . S
C8 C7 1.359 1_556 S
C8 H34 0.931 . S
C9 C5 1.389 . S
C9 C7 1.364 . S
C9 H35 0.931 . S
C10 O24 1.256 . S
C10 O25 1.257 . S
C11 O26 1.240 . S
C11 O27 1.240 . S
C12 Gd1 2.818 . S
C12 C13 1.510 . S
C12 O28 1.249 . S
C12 O29 1.252 . S
C13 C12 1.510 . S
C13 C14 1.404 . S
C13 C15 1.352 . S
C14 C13 1.404 . S
C14 C18 1.389 . S
C14 H36 0.930 1_554 S
C15 C13 1.352 . S
C15 C17 1.374 . S
C15 H37 0.931 . S
C16 C17 1.359 . S
C16 C18 1.364 . S
C17 C15 1.374 . S
C17 C16 1.359 . S
C17 H38 0.931 . S
C18 C14 1.389 . S
C18 C16 1.364 . S
C18 H39 0.931 . S
C19 O30 1.256 1_455 S
C19 O31 1.257 . S
O20 Gd0 2.377 . S
O20 C2 1.240 . S
O21 Gd1 2.395 1_455 S
O21 C2 1.240 . S
O22 Gd0 2.448 . S
O22 C3 1.249 . S
O23 Gd0 2.506 . S
O23 C3 1.252 . S
O24 Gd0 2.435 . S
O24 C10 1.256 . S
O25 Gd0 2.717 . S
O25 Gd1 2.327 1_455 S
O25 C10 1.257 . S
O26 Gd1 2.377 . S
O26 C11 1.240 . S
O27 Gd0 2.395 1_655 S
O27 C11 1.240 . S
O28 Gd1 2.448 . S
O28 C12 1.249 . S
O29 Gd1 2.506 . S
O29 C12 1.252 . S
O30 Gd1 2.435 1_556 S
O30 C19 1.256 1_655 S
O31 Gd0 2.327 1_556 S
O31 Gd1 2.717 1_456 S
O31 C19 1.257 . S
H32 C5 0.930 . S
H33 C6 0.931 . S
H34 C8 0.931 . S
H35 C9 0.931 . S
H36 C14 0.930 1_556 S
H37 C15 0.931 . S
H38 C17 0.931 . S
H39 C18 0.931 . S
Gd40 C43 2.818 . S
Gd40 O60 2.377 . S
Gd40 O62 2.448 . S
Gd40 O63 2.506 . S
Gd40 O64 2.435 . S
Gd40 O65 2.717 . S
Gd40 O67 2.395 . S
Gd40 O71 2.327 . S
Gd41 C52 2.818 . S
Gd41 O61 2.395 . S
Gd41 O65 2.327 . S
Gd41 O66 2.377 . S
Gd41 O68 2.448 . S
Gd41 O69 2.506 . S
Gd41 O70 2.435 . S
Gd41 O71 2.717 . S
C42 O60 1.240 1_565 S
C42 O61 1.240 1_565 S
C43 Gd40 2.818 . S
C43 C44 1.510 1_545 S
C43 O62 1.249 . S
C43 O63 1.252 . S
C44 C43 1.510 1_565 S
C44 C45 1.404 . S
C44 C46 1.352 . S
C45 C44 1.404 . S
C45 C49 1.389 . S
C45 H72 0.930 . S
C46 C44 1.352 . S
C46 C48 1.374 . S
C46 H73 0.931 . S
C47 C48 1.359 . S
C47 C49 1.364 . S
C48 C46 1.374 . S
C48 C47 1.359 . S
C48 H74 0.931 . S
C49 C45 1.389 . S
C49 C47 1.364 . S
C49 H75 0.931 . S
C50 O64 1.256 . S
C50 O65 1.257 . S
C51 O66 1.240 . S
C51 O67 1.240 . S
C52 Gd41 2.818 . S
C52 C53 1.510 . S
C52 O68 1.249 . S
C52 O69 1.252 . S
C53 C52 1.510 . S
C53 C54 1.404 . S
C53 C55 1.352 . S
C54 C53 1.404 . S
C54 C58 1.389 . S
C54 H76 0.930 . S
C55 C53 1.352 . S
C55 C57 1.374 . S
C55 H77 0.931 . S
C56 C57 1.359 . S
C56 C58 1.364 . S
C57 C55 1.374 . S
C57 C56 1.359 . S
C57 H78 0.931 . S
C58 C54 1.389 . S
C58 C56 1.364 . S
C58 H79 0.931 . S
C59 O70 1.256 . S
C59 O71 1.257 . S
O60 Gd40 2.377 . S
O60 C42 1.240 1_545 S
O61 Gd41 2.395 . S
O61 C42 1.240 1_545 S
O62 Gd40 2.448 . S
O62 C43 1.249 . S
O63 Gd40 2.506 . S
O63 C43 1.252 . S
O64 Gd40 2.435 . S
O64 C50 1.256 . S
O65 Gd40 2.717 . S
O65 Gd41 2.327 . S
O65 C50 1.257 . S
O66 Gd41 2.377 . S
O66 C51 1.240 . S
O67 Gd40 2.395 . S
O67 C51 1.240 . S
O68 Gd41 2.448 . S
O68 C52 1.249 . S
O69 Gd41 2.506 . S
O69 C52 1.252 . S
O70 Gd41 2.435 . S
O70 C59 1.256 . S
O71 Gd40 2.327 . S
O71 Gd41 2.717 . S
O71 C59 1.257 . S
H72 C45 0.930 . S
H73 C46 0.931 . S
H74 C48 0.931 . S
H75 C49 0.931 . S
H76 C54 0.930 . S
H77 C55 0.931 . S
H78 C57 0.931 . S
H79 C58 0.931 . S
Gd80 C83 2.818 . S
Gd80 O100 2.377 . S
Gd80 O102 2.448 . S
Gd80 O103 2.506 . S
Gd80 O104 2.435 1_556 S
Gd80 O105 2.717 1_556 S
Gd80 O107 2.395 . S
Gd80 O111 2.327 . S
Gd81 C92 2.818 . S
Gd81 O101 2.395 . S
Gd81 O105 2.327 1_556 S
Gd81 O106 2.377 . S
Gd81 O108 2.448 . S
Gd81 O109 2.506 . S
Gd81 O110 2.435 . S
Gd81 O111 2.717 . S
C82 O100 1.240 . S
C82 O101 1.240 . S
C83 Gd80 2.818 . S
C83 C84 1.510 . S
C83 O102 1.249 . S
C83 O103 1.252 . S
C84 C83 1.510 . S
C84 C85 1.404 . S
C84 C86 1.352 . S
C85 C84 1.404 . S
C85 C89 1.389 . S
C85 H112 0.930 1_556 S
C86 C84 1.352 . S
C86 C88 1.374 . S
C86 H113 0.931 . S
C87 C88 1.359 . S
C87 C89 1.364 . S
C88 C86 1.374 . S
C88 C87 1.359 . S
C88 H114 0.931 . S
C89 C85 1.389 . S
C89 C87 1.364 . S
C89 H115 0.931 1_556 S
C90 O104 1.256 . S
C90 O105 1.257 . S
C91 O106 1.240 . S
C91 O107 1.240 . S
C92 Gd81 2.818 . S
C92 C93 1.510 . S
C92 O108 1.249 . S
C92 O109 1.252 . S
C93 C92 1.510 . S
C93 C94 1.404 . S
C93 C95 1.352 . S
C94 C93 1.404 . S
C94 C98 1.389 . S
C94 H116 0.930 . S
C95 C93 1.352 . S
C95 C97 1.374 . S
C95 H117 0.931 1_556 S
C96 C97 1.359 . S
C96 C98 1.364 . S
C97 C95 1.374 . S
C97 C96 1.359 . S
C97 H118 0.931 1_556 S
C98 C94 1.389 . S
C98 C96 1.364 . S
C98 H119 0.931 . S
C99 O110 1.256 . S
C99 O111 1.257 . S
O100 Gd80 2.377 . S
O100 C82 1.240 . S
O101 Gd81 2.395 . S
O101 C82 1.240 . S
O102 Gd80 2.448 . S
O102 C83 1.249 . S
O103 Gd80 2.506 . S
O103 C83 1.252 . S
O104 Gd80 2.435 1_554 S
O104 C90 1.256 . S
O105 Gd80 2.717 1_554 S
O105 Gd81 2.327 1_554 S
O105 C90 1.257 . S
O106 Gd81 2.377 . S
O106 C91 1.240 . S
O107 Gd80 2.395 . S
O107 C91 1.240 . S
O108 Gd81 2.448 . S
O108 C92 1.249 . S
O109 Gd81 2.506 . S
O109 C92 1.252 . S
O110 Gd81 2.435 . S
O110 C99 1.256 . S
O111 Gd80 2.327 . S
O111 Gd81 2.717 . S
O111 C99 1.257 . S
H112 C85 0.930 1_554 S
H113 C86 0.931 . S
H114 C88 0.931 . S
H115 C89 0.931 1_554 S
H116 C94 0.930 . S
H117 C95 0.931 1_554 S
H118 C97 0.931 1_554 S
H119 C98 0.931 . S
C120 C121 1.387 1_556 S
C120 H124 0.950 . S
C120 C129 1.390 . S
C121 C120 1.387 1_554 S
C121 C123 1.387 1_554 S
H122 C129 0.950 . S
C123 C121 1.387 1_556 S
C123 C125 1.390 . S
C123 H127 0.950 1_556 S
H124 C120 0.950 . S
C125 C123 1.390 . S
C125 C126 1.387 . S
C125 H128 0.950 . S
C126 C125 1.387 . S
C126 C129 1.387 . S
H127 C123 0.950 1_554 S
H128 C125 0.950 . S
C129 C120 1.390 . S
C129 H122 0.950 . S
C129 C126 1.387 . S
C130 C131 1.387 . S
C130 H134 0.950 . S
C130 C139 1.390 . S
C131 C130 1.387 . S
C131 C133 1.387 . S
H132 C139 0.950 . S
C133 C131 1.387 . S
C133 C135 1.390 . S
C133 H137 0.950 . S
H134 C130 0.950 . S
C135 C133 1.390 . S
C135 C136 1.387 . S
C135 H138 0.950 . S
C136 C135 1.387 . S
C136 C139 1.387 . S
H137 C133 0.950 . S
H138 C135 0.950 . S
C139 C130 1.390 . S
C139 H132 0.950 . S
C139 C136 1.387 . S
C140 C141 1.387 . S
C140 H144 0.950 . S
C140 C149 1.390 . S
C141 C140 1.387 . S
C141 C143 1.387 . S
H142 C149 0.950 . S
C143 C141 1.387 . S
C143 C145 1.390 . S
C143 H147 0.950 . S
H144 C140 0.950 . S
C145 C143 1.390 . S
C145 C146 1.387 . S
C145 H148 0.950 . S
C146 C145 1.387 . S
C146 C149 1.387 . S
H147 C143 0.950 . S
H148 C145 0.950 . S
C149 C140 1.390 . S
C149 H142 0.950 . S
C149 C146 1.387 . S
C150 C151 1.387 . S
C150 H154 0.950 . S
C150 C159 1.390 . S
C151 C150 1.387 . S
C151 C153 1.387 1_556 S
H152 C159 0.950 . S
C153 C151 1.387 1_554 S
C153 C155 1.390 . S
C153 H157 0.950 . S
H154 C150 0.950 . S
C155 C153 1.390 . S
C155 C156 1.387 . S
C155 H158 0.950 . S
C156 C155 1.387 . S
C156 C159 1.387 1_554 S
H157 C153 0.950 . S
H158 C155 0.950 . S
C159 C150 1.390 . S
C159 H152 0.950 . S
C159 C156 1.387 1_556 S
C160 C161 1.387 . S
C160 H164 0.950 . S
C160 C169 1.390 . S
C161 C160 1.387 . S
C161 C163 1.387 . S
H162 C169 0.950 . S
C163 C161 1.387 . S
C163 C165 1.390 . S
C163 H167 0.950 . S
H164 C160 0.950 . S
C165 C163 1.390 . S
C165 C166 1.387 . S
C165 H168 0.950 . S
C166 C165 1.387 . S
C166 C169 1.387 . S
H167 C163 0.950 . S
H168 C165 0.950 . S
C169 C160 1.390 . S
C169 H162 0.950 . S
C169 C166 1.387 . S
C170 C171 1.387 . S
C170 H174 0.950 . S
C170 C179 1.390 . S
C171 C170 1.387 . S
C171 C173 1.387 . S
H172 C179 0.950 . S
C173 C171 1.387 . S
C173 C175 1.390 . S
C173 H177 0.950 . S
H174 C170 0.950 . S
C175 C173 1.390 . S
C175 C176 1.387 . S
C175 H178 0.950 . S
C176 C175 1.387 . S
C176 C179 1.387 . S
H177 C173 0.950 . S
H178 C175 0.950 . S
C179 C170 1.390 . S
C179 H172 0.950 . S
C179 C176 1.387 . S
C180 C181 1.387 1_655 S
C180 H184 0.950 . S
C180 C189 1.390 . S
C181 C180 1.387 1_455 S
C181 C183 1.387 . S
H182 C189 0.950 . S
C183 C181 1.387 . S
C183 C185 1.390 . S
C183 H187 0.950 . S
H184 C180 0.950 . S
C185 C183 1.390 . S
C185 C186 1.387 . S
C185 H188 0.950 . S
C186 C185 1.387 . S
C186 C189 1.387 1_455 S
H187 C183 0.950 . S
H188 C185 0.950 . S
C189 C180 1.390 . S
C189 H182 0.950 . S
C189 C186 1.387 1_655 S
C190 C191 1.387 1_556 S
C190 H194 0.950 1_556 S
C190 C199 1.390 . S
C191 C190 1.387 1_554 S
C191 C193 1.387 . S
H192 C199 0.950 . S
C193 C191 1.387 . S
C193 C195 1.390 1_554 S
C193 H197 0.950 . S
H194 C190 0.950 1_554 S
C195 C193 1.390 1_556 S
C195 C196 1.387 . S
C195 H198 0.950 . S
C196 C195 1.387 . S
C196 C199 1.387 . S
H197 C193 0.950 . S
H198 C195 0.950 . S
C199 C190 1.390 . S
C199 H192 0.950 . S
C199 C196 1.387 . S
C200 C201 1.387 . S
C200 H204 0.950 . S
C200 C209 1.390 . S
C201 C200 1.387 . S
C201 C203 1.387 . S
H202 C209 0.950 . S
C203 C201 1.387 . S
C203 C205 1.390 . S
C203 H207 0.950 . S
H204 C200 0.950 . S
C205 C203 1.390 . S
C205 C206 1.387 . S
C205 H208 0.950 . S
C206 C205 1.387 . S
C206 C209 1.387 . S
H207 C203 0.950 . S
H208 C205 0.950 . S
C209 C200 1.390 . S
C209 H202 0.950 . S
C209 C206 1.387 . S
C121 C7 2.267 . S
C126 C82 2.322 . S
C131 C51 2.978 . S
C136 C11 2.905 . S
C141 C47 1.639 . S
C146 C87 1.632 . S
C151 C91 2.833 . S
C156 C16 2.661 . S
C161 C42 2.656 . S
C166 C2 2.594 . S
C171 C96 1.742 . S
C176 C56 1.734 . S
C181 C19 0.789 . S
C186 C10 0.789 . S
C191 C50 0.771 . S
C196 C59 0.771 . S
C201 C99 0.776 . S
C206 C90 0.776 . S
