# Generated by pormake.
# Topology dmp, (4)-cn, num edge types: 1
# Building blocks:
#     Node 0, Type 0, BuildingBlock: AZAVOO_clean_sbu_0, # of connection points: 4
#     Node 1, Type 0, BuildingBlock: AZAVOO_clean_sbu_0, # of connection points: 4
#     Node 2, Type 0, BuildingBlock: AZAVOO_clean_sbu_0, # of connection points: 4
#     Node 3, Type 0, BuildingBlock: AZAVOO_clean_sbu_0, # of connection points: 4
#     Edge 4, Type (0, 0), BuildingBlock: CIFDUS_clean_linker_0, # of connection points: 2
#     Edge 5, Type (0, 0), BuildingBlock: CIFDUS_clean_linker_0, # of connection points: 2
#     Edge 6, Type (0, 0), BuildingBlock: CIFDUS_clean_linker_0, # of connection points: 2
#     Edge 7, Type (0, 0), BuildingBlock: CIFDUS_clean_linker_0, # of connection points: 2
#     Edge 8, Type (0, 0), BuildingBlock: CIFDUS_clean_linker_0, # of connection points: 2
#     Edge 9, Type (0, 0), BuildingBlock: CIFDUS_clean_linker_0, # of connection points: 2
#     Edge 10, Type (0, 0), BuildingBlock: CIFDUS_clean_linker_0, # of connection points: 2
#     Edge 11, Type (0, 0), BuildingBlock: CIFDUS_clean_linker_0, # of connection points: 2
# Relax obj value: 0.239
# Max RMSD: 0.263
# Mean RMSD: 0.263
data_MOF--net-dmp--node1-AZAVOO_clean_sbu_0--edge1-CIFDUS_clean_linker_0
_symmetry_space_group_name_H-M    P1
_symmetry_Int_Tables_number       1
_symmetry_cell_setting            triclinic
loop_
_symmetry_equiv_pos_as_xyz
'x, y, z'
_cell_length_a     32.548911
_cell_length_b     13.437219
_cell_length_c     19.045505
_cell_angle_alpha  89.961103
_cell_angle_beta   90.040593
_cell_angle_gamma 100.79173
loop_
_atom_site_label
_atom_site_type_symbol
_atom_site_fract_x
_atom_site_fract_y
_atom_site_fract_z
_atom_type_partial_charge
Mg0 Mg 0.07527 0.12901 0.34776 0.0
O1 O 0.13335 0.2383 0.30693 0.0
O2 O 0.17575 0.1472 0.25566 0.0
Mg3 Mg 0.14163 0.98173 0.2542 0.0
C4 C 0.16768 0.23181 0.27639 0.0
C5 C 0.02539 0.25663 0.43263 0.0
O6 O 0.02036 0.17048 0.46716 0.0
O7 O 0.04705 0.11261 0.23756 0.0
O8 O 0.08842 0.01989 0.18505 0.0
O9 O 0.11167 0.1099 0.44363 0.0
O10 O 0.10832 0.01025 0.35028 0.0
C11 C 0.05729 0.06549 0.18392 0.0
C12 C 0.12478 0.03799 0.41029 0.0
O13 O 0.04578 0.2646 0.37537 0.0
Mg14 Mg 0.40825 0.88003 0.35191 0.0
O15 O 0.35074 0.77036 0.30932 0.0
O16 O 0.30855 0.86162 0.25742 0.0
Mg17 Mg 0.3422 0.02746 0.25744 0.0
C18 C 0.31662 0.77688 0.27802 0.0
C19 C 0.45883 0.75396 0.43678 0.0
O20 O 0.46378 0.84044 0.47082 0.0
O21 O 0.43742 0.89864 0.24247 0.0
O22 O 0.39621 0.99148 0.18947 0.0
O23 O 0.3709 0.89709 0.44699 0.0
O24 O 0.37478 0.99797 0.35414 0.0
C25 C 0.42753 0.9465 0.18886 0.0
C26 C 0.35788 0.96917 0.41363 0.0
O27 O 0.43813 0.74506 0.37977 0.0
Mg28 Mg 0.91616 0.8952 0.65468 0.0
O29 O 0.86416 0.77028 0.69676 0.0
O30 O 0.81714 0.84016 0.75473 0.0
Mg31 Mg 0.843 0.01149 0.75786 0.0
C32 C 0.8299 0.76268 0.73062 0.0
C33 C 0.97133 0.78173 0.56391 0.0
O34 O 0.97405 0.86659 0.5284 0.0
O35 O 0.94649 0.91403 0.76338 0.0
O36 O 0.90081 0.9885 0.82163 0.0
O37 O 0.87581 0.90897 0.56213 0.0
O38 O 0.87676 1.00076 0.65895 0.0
C39 C 0.93486 0.95408 0.8191 0.0
C40 C 0.86045 0.97442 0.59868 0.0
O41 O 0.95141 0.77196 0.62166 0.0
Mg42 Mg 0.57095 0.12036 0.66212 0.0
O43 O 0.62298 0.24628 0.70258 0.0
O44 O 0.6702 0.17809 0.76146 0.0
Mg45 Mg 0.64438 0.00671 0.76679 0.0
C46 C 0.65734 0.25488 0.7363 0.0
C47 C 0.51548 0.23215 0.57013 0.0
O48 O 0.51267 0.14673 0.53533 0.0
O49 O 0.54077 0.10368 0.77094 0.0
O50 O 0.58654 0.03029 0.83003 0.0
O51 O 0.6112 0.10408 0.56987 0.0
O52 O 0.61023 0.01465 0.66784 0.0
C53 C 0.55244 0.06446 0.82704 0.0
C54 C 0.62644 0.03916 0.60726 0.0
O55 O 0.53562 0.24292 0.6277 0.0
H56 H 0.28457 0.8445 0.43516 0.0
H57 H 0.34291 0.1597 0.42839 0.0
H58 H 0.27439 0.20916 0.43904 0.0
H59 H 0.19779 0.16176 0.43584 0.0
H60 H 0.13956 0.84691 0.42293 0.0
H61 H 0.20793 0.79702 0.43517 0.0
C62 C 0.28214 0.92384 0.43823 0.0
C63 C 0.31831 0.99875 0.43267 0.0
C64 C 0.24266 0.95116 0.44025 0.0
C65 C 0.31519 0.10136 0.43379 0.0
C66 C 0.27614 0.12939 0.43946 0.0
C67 C 0.20018 0.08232 0.43792 0.0
C68 C 0.1641 0.00766 0.43015 0.0
C69 C 0.23962 0.05491 0.4409 0.0
C70 C 0.1672 0.90503 0.43 0.0
C71 C 0.20617 0.87677 0.4366 0.0
H72 H 0.15697 0.4278 0.26983 0.0
H73 H 0.25206 0.24305 0.26936 0.0
H74 H 0.30662 0.39503 0.26808 0.0
H75 H 0.32745 0.58083 0.27218 0.0
H76 H 0.23233 0.76549 0.26836 0.0
H77 H 0.17783 0.61353 0.26584 0.0
C78 C 0.18964 0.42089 0.26895 0.0
C79 C 0.20039 0.32423 0.26975 0.0
C80 C 0.22091 0.50868 0.26753 0.0
C81 C 0.24288 0.31649 0.26814 0.0
C82 C 0.27414 0.40341 0.2678 0.0
C83 C 0.29479 0.58772 0.27029 0.0
C84 C 0.28402 0.68438 0.27051 0.0
C85 C 0.26354 0.49992 0.26818 0.0
C86 C 0.24154 0.69208 0.2676 0.0
C87 C 0.2103 0.60516 0.26655 0.0
H88 H 0.69893 0.16196 0.57404 0.0
H89 H 0.64205 0.84871 0.60388 0.0
H90 H 0.71035 0.79874 0.59207 0.0
H91 H 0.78695 0.84692 0.58718 0.0
H92 H 0.84451 0.16218 0.57531 0.0
H93 H 0.77556 0.20966 0.56523 0.0
C94 C 0.7016 0.08269 0.57588 0.0
C95 C 0.6659 0.00857 0.58842 0.0
C96 C 0.74113 0.05548 0.57275 0.0
C97 C 0.66939 0.90638 0.59334 0.0
C98 C 0.70833 0.87804 0.58692 0.0
C99 C 0.78416 0.92559 0.58033 0.0
C100 C 0.82023 1.00116 0.58039 0.0
C101 C 0.74452 0.9522 0.57843 0.0
C102 C 0.8168 0.10321 0.57419 0.0
C103 C 0.7775 0.13017 0.56886 0.0
H104 H 0.74514 0.716 0.7411 0.0
H105 H 0.85531 0.58079 0.73676 0.0
H106 H 0.81176 0.41181 0.74351 0.0
H107 H 0.74217 0.30189 0.74506 0.0
H108 H 0.63196 0.4369 0.74002 0.0
H109 H 0.67556 0.60609 0.74289 0.0
C110 C 0.75959 0.64954 0.74258 0.0
C111 C 0.8034 0.66095 0.73897 0.0
C112 C 0.73429 0.55242 0.7445 0.0
C113 C 0.82165 0.57403 0.73949 0.0
C114 C 0.79677 0.47737 0.74336 0.0
C115 C 0.72773 0.36839 0.74556 0.0
C116 C 0.68389 0.35684 0.74286 0.0
C117 C 0.75304 0.46554 0.74518 0.0
C118 C 0.66564 0.44376 0.74211 0.0
C119 C 0.69055 0.54054 0.74373 0.0
H120 H 0.06777 0.96569 0.06254 0.0
H121 H 0.98766 0.14818 0.16002 0.0
H122 H 0.94279 0.12856 0.05631 0.0
H123 H 0.92566 0.05783 0.93908 0.0
H124 H 0.00582 0.87583 0.84126 0.0
H125 H 0.05117 0.8969 0.9445 0.0
C126 C 0.04062 1.00171 0.06121 0.0
C127 C 0.03121 0.05835 0.11938 0.0
C128 C 0.01478 0.98972 1.00152 0.0
C129 C -0.0042 0.10422 0.11627 0.0
C130 C 0.97001 0.09283 0.05697 0.0
C131 C 0.95296 0.02232 0.9402 0.0
C132 C 0.96211 0.96488 0.88231 0.0
C133 C 0.97906 0.03523 0.99953 0.0
C134 C -0.00212 0.92029 0.88489 0.0
C135 C 0.02389 0.9324 0.94395 0.0
H136 H 0.56122 0.96003 0.94698 0.0
H137 H 0.48142 0.14265 0.84849 0.0
H138 H 0.43539 0.11981 0.95081 0.0
H139 H 0.41793 0.04866 0.068 0.0
H140 H 0.49762 0.86527 0.16605 0.0
H141 H 0.54336 0.88739 0.0635 0.0
C142 C 0.53388 0.99538 0.94779 0.0
C143 C 0.52499 0.05342 0.88995 0.0
C144 C 0.50736 0.98132 0.00653 0.0
C145 C 0.48915 0.09774 0.8921 0.0
C146 C 0.46275 0.08459 0.95061 0.0
C147 C 0.44519 0.013 0.06705 0.0
C148 C 0.4542 0.95532 0.12502 0.0
C149 C 0.47152 0.0264 0.00803 0.0
C150 C 0.48977 0.90998 0.12243 0.0
C151 C 0.51606 0.92281 0.0638 0.0
H152 H 0.95424 0.58555 0.60689 0.0
H153 H 0.02298 0.78252 0.45076 0.0
H154 H 0.04491 0.63724 0.39505 0.0
H155 H 0.0438 0.45371 0.38984 0.0
H156 H 0.97448 0.2576 0.54595 0.0
H157 H 0.9532 0.40303 0.60187 0.0
C158 C 0.9743 0.59693 0.56101 0.0
C159 C 0.98701 0.69482 0.53317 0.0
C160 C 0.98633 0.51302 0.52871 0.0
C161 C 0.01271 0.70797 0.47329 0.0
C162 C 0.02519 0.62488 0.44125 0.0
C163 C 0.02382 0.44272 0.43581 0.0
C164 C 0.01071 0.3448 0.46352 0.0
C165 C 0.01191 0.52693 0.46819 0.0
C166 C 0.98506 0.33206 0.52347 0.0
C167 C 0.97293 0.41525 0.55566 0.0
H168 H 0.44099 0.5564 0.39499 0.0
H169 H 0.51034 0.75516 0.54963 0.0
H170 H 0.53251 0.61103 0.60597 0.0
H171 H 0.53218 0.42886 0.61187 0.0
H172 H 0.4634 0.22923 0.45722 0.0
H173 H 0.44066 0.37324 0.40099 0.0
C174 C 0.46117 0.56826 0.44074 0.0
C175 C 0.47402 0.66654 0.46791 0.0
C176 C 0.4736 0.48478 0.47336 0.0
C177 C 0.49994 0.6804 0.52756 0.0
C178 C 0.51259 0.59795 0.56 0.0
C179 C 0.51195 0.41662 0.56618 0.0
C180 C 0.49945 0.31834 0.53893 0.0
C181 C 0.49943 0.49981 0.53359 0.0
C182 C 0.47352 0.3041 0.4793 0.0
C183 C 0.46057 0.38646 0.44697 0.0
loop_
_geom_bond_atom_site_label_1
_geom_bond_atom_site_label_2
_geom_bond_distance
_geom_bond_site_symmetry_2
_ccdc_geom_bond_type
Mg0 O1 2.028 . S
Mg0 O7 1.986 . S
Mg0 O9 2.114 . S
Mg0 O10 2.251 . S
Mg0 O13 2.010 . S
O1 Mg0 2.028 . S
O1 C4 1.250 . S
O2 Mg3 2.028 . S
O2 C4 1.248 . S
Mg3 O2 2.028 . S
Mg3 O8 2.032 . S
Mg3 O10 2.079 . S
C4 O1 1.250 . S
C4 O2 1.248 . S
C5 O6 1.264 . S
C5 O13 1.249 . S
O6 C5 1.264 . S
O7 Mg0 1.986 . S
O7 C11 1.246 . S
O8 Mg3 2.032 . S
O8 C11 1.259 . S
O9 Mg0 2.114 . S
O9 C12 1.252 . S
O10 Mg0 2.251 . S
O10 Mg3 2.079 . S
O10 C12 1.273 . S
C11 O7 1.246 . S
C11 O8 1.259 . S
C12 O9 1.252 . S
C12 O10 1.273 . S
O13 Mg0 2.010 . S
O13 C5 1.249 . S
Mg14 O15 2.028 . S
Mg14 O21 1.986 . S
Mg14 O23 2.114 . S
Mg14 O24 2.251 . S
Mg14 O27 2.010 . S
O15 Mg14 2.028 . S
O15 C18 1.250 . S
O16 Mg17 2.028 . S
O16 C18 1.248 . S
Mg17 O16 2.028 . S
Mg17 O22 2.032 . S
Mg17 O24 2.079 . S
C18 O15 1.250 . S
C18 O16 1.248 . S
C19 O20 1.264 . S
C19 O27 1.249 . S
O20 C19 1.264 . S
O21 Mg14 1.986 . S
O21 C25 1.246 . S
O22 Mg17 2.032 . S
O22 C25 1.259 . S
O23 Mg14 2.114 . S
O23 C26 1.252 . S
O24 Mg14 2.251 . S
O24 Mg17 2.079 . S
O24 C26 1.273 . S
C25 O21 1.246 . S
C25 O22 1.259 . S
C26 O23 1.252 . S
C26 O24 1.273 . S
O27 Mg14 2.010 . S
O27 C19 1.249 . S
Mg28 O29 2.028 . S
Mg28 O35 1.986 . S
Mg28 O37 2.114 . S
Mg28 O38 2.251 . S
Mg28 O41 2.010 . S
O29 Mg28 2.028 . S
O29 C32 1.250 . S
O30 Mg31 2.028 . S
O30 C32 1.248 . S
Mg31 O30 2.028 . S
Mg31 O36 2.032 . S
Mg31 O38 2.079 . S
C32 O29 1.250 . S
C32 O30 1.248 . S
C33 O34 1.264 . S
C33 O41 1.249 . S
O34 C33 1.264 . S
O35 Mg28 1.986 . S
O35 C39 1.246 . S
O36 Mg31 2.032 . S
O36 C39 1.259 . S
O37 Mg28 2.114 . S
O37 C40 1.252 . S
O38 Mg28 2.251 . S
O38 Mg31 2.079 . S
O38 C40 1.273 . S
C39 O35 1.246 . S
C39 O36 1.259 . S
C40 O37 1.252 . S
C40 O38 1.273 . S
O41 Mg28 2.010 . S
O41 C33 1.249 . S
Mg42 O43 2.028 . S
Mg42 O49 1.986 . S
Mg42 O51 2.114 . S
Mg42 O52 2.251 . S
Mg42 O55 2.010 . S
O43 Mg42 2.028 . S
O43 C46 1.250 . S
O44 Mg45 2.028 . S
O44 C46 1.248 . S
Mg45 O44 2.028 . S
Mg45 O50 2.032 . S
Mg45 O52 2.079 . S
C46 O43 1.250 . S
C46 O44 1.248 . S
C47 O48 1.264 . S
C47 O55 1.249 . S
O48 C47 1.264 . S
O49 Mg42 1.986 . S
O49 C53 1.246 . S
O50 Mg45 2.032 . S
O50 C53 1.259 . S
O51 Mg42 2.114 . S
O51 C54 1.252 . S
O52 Mg42 2.251 . S
O52 Mg45 2.079 . S
O52 C54 1.273 . S
C53 O49 1.246 . S
C53 O50 1.259 . S
C54 O51 1.252 . S
C54 O52 1.273 . S
O55 Mg42 2.010 . S
O55 C47 1.249 . S
H56 C62 0.930 . S
H57 C65 0.930 . S
H58 C66 0.930 . S
H59 C67 0.930 . S
H60 C70 0.930 . S
H61 C71 0.930 . S
C62 H56 0.930 . S
C62 C63 1.355 . S
C62 C64 1.415 . S
C63 C62 1.355 . S
C63 C65 1.419 1_565 S
C64 C62 1.415 . S
C64 C69 1.425 1_565 S
C64 C71 1.409 . S
C65 H57 0.930 . S
C65 C63 1.419 1_545 S
C65 C66 1.362 . S
C66 H58 0.930 . S
C66 C65 1.362 . S
C66 C69 1.409 . S
C67 H59 0.930 . S
C67 C68 1.355 . S
C67 C69 1.415 . S
C68 C67 1.355 . S
C68 C70 1.419 1_545 S
C69 C64 1.425 1_545 S
C69 C66 1.409 . S
C69 C67 1.415 . S
C70 H60 0.930 . S
C70 C68 1.419 1_565 S
C70 C71 1.362 . S
C71 H61 0.930 . S
C71 C64 1.409 . S
C71 C70 1.362 . S
H72 C78 0.930 . S
H73 C81 0.930 . S
H74 C82 0.930 . S
H75 C83 0.930 . S
H76 C86 0.930 . S
H77 C87 0.930 . S
C78 H72 0.930 . S
C78 C79 1.355 . S
C78 C80 1.415 . S
C79 C78 1.355 . S
C79 C81 1.419 . S
C80 C78 1.415 . S
C80 C85 1.425 . S
C80 C87 1.409 . S
C81 H73 0.930 . S
C81 C79 1.419 . S
C81 C82 1.362 . S
C82 H74 0.930 . S
C82 C81 1.362 . S
C82 C85 1.409 . S
C83 H75 0.930 . S
C83 C84 1.355 . S
C83 C85 1.415 . S
C84 C83 1.355 . S
C84 C86 1.419 . S
C85 C80 1.425 . S
C85 C82 1.409 . S
C85 C83 1.415 . S
C86 H76 0.930 . S
C86 C84 1.419 . S
C86 C87 1.362 . S
C87 H77 0.930 . S
C87 C80 1.409 . S
C87 C86 1.362 . S
H88 C94 0.930 . S
H89 C97 0.930 . S
H90 C98 0.930 . S
H91 C99 0.930 . S
H92 C102 0.930 . S
H93 C103 0.930 . S
C94 H88 0.930 . S
C94 C95 1.355 . S
C94 C96 1.415 . S
C95 C94 1.355 . S
C95 C97 1.419 1_545 S
C96 C94 1.415 . S
C96 C101 1.425 1_545 S
C96 C103 1.409 . S
C97 H89 0.930 . S
C97 C95 1.419 1_565 S
C97 C98 1.362 . S
C98 H90 0.930 . S
C98 C97 1.362 . S
C98 C101 1.409 . S
C99 H91 0.930 . S
C99 C100 1.355 . S
C99 C101 1.415 . S
C100 C99 1.355 . S
C100 C102 1.419 1_565 S
C101 C96 1.425 1_565 S
C101 C98 1.409 . S
C101 C99 1.415 . S
C102 H92 0.930 . S
C102 C100 1.419 1_545 S
C102 C103 1.362 . S
C103 H93 0.930 . S
C103 C96 1.409 . S
C103 C102 1.362 . S
H104 C110 0.930 . S
H105 C113 0.930 . S
H106 C114 0.930 . S
H107 C115 0.930 . S
H108 C118 0.930 . S
H109 C119 0.930 . S
C110 H104 0.930 . S
C110 C111 1.355 . S
C110 C112 1.415 . S
C111 C110 1.355 . S
C111 C113 1.419 . S
C112 C110 1.415 . S
C112 C117 1.425 . S
C112 C119 1.409 . S
C113 H105 0.930 . S
C113 C111 1.419 . S
C113 C114 1.362 . S
C114 H106 0.930 . S
C114 C113 1.362 . S
C114 C117 1.409 . S
C115 H107 0.930 . S
C115 C116 1.355 . S
C115 C117 1.415 . S
C116 C115 1.355 . S
C116 C118 1.419 . S
C117 C112 1.425 . S
C117 C114 1.409 . S
C117 C115 1.415 . S
C118 H108 0.930 . S
C118 C116 1.419 . S
C118 C119 1.362 . S
C119 H109 0.930 . S
C119 C112 1.409 . S
C119 C118 1.362 . S
H120 C126 0.930 1_565 S
H121 C129 0.930 . S
H122 C130 0.930 . S
H123 C131 0.930 1_545 S
H124 C134 0.930 . S
H125 C135 0.930 . S
C126 H120 0.930 1_545 S
C126 C127 1.355 . S
C126 C128 1.415 1_545 S
C127 C126 1.355 . S
C127 C129 1.419 . S
C128 C126 1.415 1_565 S
C128 C133 1.425 1_464 S
C128 C135 1.409 1_455 S
C129 H121 0.930 . S
C129 C127 1.419 . S
C129 C130 1.362 1_554 S
C130 H122 0.930 . S
C130 C129 1.362 1_556 S
C130 C133 1.409 1_455 S
C131 H123 0.930 1_565 S
C131 C132 1.355 . S
C131 C133 1.415 1_565 S
C132 C131 1.355 . S
C132 C134 1.419 . S
C133 C128 1.425 1_646 S
C133 C130 1.409 1_655 S
C133 C131 1.415 1_545 S
C134 H124 0.930 . S
C134 C132 1.419 . S
C134 C135 1.362 1_556 S
C135 H125 0.930 . S
C135 C128 1.409 1_655 S
C135 C134 1.362 1_554 S
H136 C142 0.930 . S
H137 C145 0.930 . S
H138 C146 0.930 . S
H139 C147 0.930 . S
H140 C150 0.930 . S
H141 C151 0.930 . S
C142 H136 0.930 . S
C142 C143 1.355 . S
C142 C144 1.415 1_556 S
C143 C142 1.355 . S
C143 C145 1.419 . S
C144 C142 1.415 1_554 S
C144 C149 1.425 1_544 S
C144 C151 1.409 1_545 S
C145 H137 0.930 . S
C145 C143 1.419 . S
C145 C146 1.362 . S
C146 H138 0.930 . S
C146 C145 1.362 . S
C146 C149 1.409 1_545 S
C147 H139 0.930 . S
C147 C148 1.355 . S
C147 C149 1.415 1_554 S
C148 C147 1.355 . S
C148 C150 1.419 . S
C149 C144 1.425 1_566 S
C149 C146 1.409 1_565 S
C149 C147 1.415 1_556 S
C150 H140 0.930 . S
C150 C148 1.419 . S
C150 C151 1.362 . S
C151 H141 0.930 . S
C151 C144 1.409 1_565 S
C151 C150 1.362 . S
H152 C158 0.930 . S
H153 C161 0.930 . S
H154 C162 0.930 . S
H155 C163 0.930 . S
H156 C166 0.930 . S
H157 C167 0.930 . S
C158 H152 0.930 . S
C158 C159 1.355 . S
C158 C160 1.415 . S
C159 C158 1.355 . S
C159 C161 1.419 . S
C160 C158 1.415 . S
C160 C165 1.425 1_655 S
C160 C167 1.409 . S
C161 H153 0.930 . S
C161 C159 1.419 . S
C161 C162 1.362 1_655 S
C162 H154 0.930 . S
C162 C161 1.362 1_455 S
C162 C165 1.409 . S
C163 H155 0.930 . S
C163 C164 1.355 . S
C163 C165 1.415 . S
C164 C163 1.355 . S
C164 C166 1.419 . S
C165 C160 1.425 1_455 S
C165 C162 1.409 . S
C165 C163 1.415 . S
C166 H156 0.930 . S
C166 C164 1.419 . S
C166 C167 1.362 1_455 S
C167 H157 0.930 . S
C167 C160 1.409 . S
C167 C166 1.362 1_655 S
H168 C174 0.930 . S
H169 C177 0.930 . S
H170 C178 0.930 . S
H171 C179 0.930 . S
H172 C182 0.930 . S
H173 C183 0.930 . S
C174 H168 0.930 . S
C174 C175 1.355 . S
C174 C176 1.415 . S
C175 C174 1.355 . S
C175 C177 1.419 . S
C176 C174 1.415 . S
C176 C181 1.425 . S
C176 C183 1.409 . S
C177 H169 0.930 . S
C177 C175 1.419 . S
C177 C178 1.362 . S
C178 H170 0.930 . S
C178 C177 1.362 . S
C178 C181 1.409 . S
C179 H171 0.930 . S
C179 C180 1.355 . S
C179 C181 1.415 . S
C180 C179 1.355 . S
C180 C182 1.419 . S
C181 C176 1.425 . S
C181 C178 1.409 . S
C181 C179 1.415 . S
C182 H172 0.930 . S
C182 C180 1.419 . S
C182 C183 1.362 . S
C183 H173 0.930 . S
C183 C176 1.409 . S
C183 C182 1.362 . S
C63 C26 1.034 . S
C68 C12 1.058 . S
C79 C4 0.771 . S
C84 C18 0.788 . S
C95 C54 1.049 . S
C100 C40 1.056 . S
C111 C32 0.833 . S
C116 C46 0.811 . S
C127 C11 1.518 . S
C132 C39 1.518 . S
C143 C53 1.524 . S
C148 C25 1.524 . S
C159 C33 1.512 . S
C164 C5 1.512 . S
C175 C19 1.516 . S
C180 C47 1.516 . S
