# Generated by pormake.
# Topology crb, (4)-cn, num edge types: 1
# Building blocks:
#     Node 0, Type 0, BuildingBlock: AZAVOO_clean_sbu_0, # of connection points: 4
#     Node 1, Type 0, BuildingBlock: AZAVOO_clean_sbu_0, # of connection points: 4
#     Node 2, Type 0, BuildingBlock: AZAVOO_clean_sbu_0, # of connection points: 4
#     Node 3, Type 0, BuildingBlock: AZAVOO_clean_sbu_0, # of connection points: 4
#     Node 4, Type 0, BuildingBlock: AZAVOO_clean_sbu_0, # of connection points: 4
#     Node 5, Type 0, BuildingBlock: AZAVOO_clean_sbu_0, # of connection points: 4
#     Node 6, Type 0, BuildingBlock: AZAVOO_clean_sbu_0, # of connection points: 4
#     Node 7, Type 0, BuildingBlock: AZAVOO_clean_sbu_0, # of connection points: 4
#     Edge 8, Type (0, 0), None
#     Edge 9, Type (0, 0), None
#     Edge 10, Type (0, 0), None
#     Edge 11, Type (0, 0), None
#     Edge 12, Type (0, 0), None
#     Edge 13, Type (0, 0), None
#     Edge 14, Type (0, 0), None
#     Edge 15, Type (0, 0), None
#     Edge 16, Type (0, 0), None
#     Edge 17, Type (0, 0), None
#     Edge 18, Type (0, 0), None
#     Edge 19, Type (0, 0), None
#     Edge 20, Type (0, 0), None
#     Edge 21, Type (0, 0), None
#     Edge 22, Type (0, 0), None
#     Edge 23, Type (0, 0), None
# Relax obj value: 0.035
# Max RMSD: 0.065
# Mean RMSD: 0.065
data_MOF--net-crb--node1-AZAVOO_clean_sbu_0--edge1-none
_symmetry_space_group_name_H-M    P1
_symmetry_Int_Tables_number       1
_symmetry_cell_setting            triclinic
loop_
_symmetry_equiv_pos_as_xyz
'x, y, z'
_cell_length_a     21.959904
_cell_length_b     15.785196
_cell_length_c     12.045465
_cell_angle_alpha  90.0
_cell_angle_beta   89.99899
_cell_angle_gamma 90.000658
loop_
_atom_site_label
_atom_site_type_symbol
_atom_site_fract_x
_atom_site_fract_y
_atom_site_fract_z
_atom_type_partial_charge
Mg0 Mg 0.31698 0.28685 0.95329 0.0
O1 O 0.29069 0.42623 0.97763 0.0
O2 O 0.18979 0.4333 0.95111 0.0
Mg3 Mg 0.15457 0.30472 0.88894 0.0
C4 C 0.24046 0.46702 -0.02109 0.0
C5 C 0.4564 0.31257 0.97272 0.0
O6 O 0.45035 0.30838 0.86453 0.0
O7 O 0.26976 0.25882 0.11889 0.0
O8 O 0.17171 0.25833 0.06686 0.0
O9 O 0.33718 0.30525 0.7744 0.0
O10 O 0.24668 0.26929 0.83806 0.0
C11 C 0.21326 0.24781 0.13985 0.0
C12 C 0.28085 0.28748 0.75455 0.0
O13 O 0.40949 0.30826 0.03468 0.0
Mg14 Mg 0.65679 0.28695 0.04097 0.0
O15 O 0.68309 0.42634 0.01662 0.0
O16 O 0.78398 0.43341 0.04315 0.0
Mg17 Mg 0.81921 0.30483 0.10532 0.0
C18 C 0.73332 0.46713 0.01535 0.0
C19 C 0.51737 0.31257 0.02155 0.0
O20 O 0.52342 0.30825 0.12973 0.0
O21 O 0.70402 0.25892 0.87537 0.0
O22 O 0.80207 0.25844 0.9274 0.0
O23 O 0.6366 0.30536 0.21985 0.0
O24 O 0.72709 0.2694 0.1562 0.0
C25 C 0.76052 0.24792 0.85441 0.0
C26 C 0.69293 0.28758 0.23971 0.0
O27 O 0.56428 0.30836 0.95959 0.0
Mg28 Mg 0.65679 0.73614 0.95329 0.0
O29 O 0.68309 0.59675 0.97764 0.0
O30 O 0.78398 0.58969 0.95111 0.0
Mg31 Mg 0.81921 0.71826 0.88894 0.0
C32 C 0.73332 0.55596 -0.0211 0.0
C33 C 0.51737 0.71041 0.97272 0.0
O34 O 0.52343 0.71461 0.86453 0.0
O35 O 0.70402 0.76417 0.11889 0.0
O36 O 0.80207 0.76466 0.06686 0.0
O37 O 0.63659 0.71773 0.77441 0.0
O38 O 0.72709 0.75369 0.83806 0.0
C39 C 0.76052 0.77517 0.13985 0.0
C40 C 0.69293 0.73551 0.75455 0.0
O41 O 0.56428 0.71473 0.03468 0.0
Mg42 Mg 0.31698 0.73604 0.04097 0.0
O43 O 0.29068 0.59665 0.01662 0.0
O44 O 0.18979 0.58958 0.04315 0.0
Mg45 Mg 0.15457 0.71815 0.10532 0.0
C46 C 0.24046 0.55585 0.01536 0.0
C47 C 0.4564 0.71042 0.02155 0.0
O48 O 0.45035 0.71474 0.12973 0.0
O49 O 0.26975 0.76406 0.87537 0.0
O50 O 0.1717 0.76454 0.9274 0.0
O51 O 0.33718 0.71763 0.21985 0.0
O52 O 0.24668 0.75359 0.1562 0.0
C53 C 0.21326 0.77506 0.85441 0.0
C54 C 0.28084 0.7354 0.2397 0.0
O55 O 0.4095 0.71463 0.95958 0.0
Mg56 Mg 0.81698 0.78696 0.45329 0.0
O57 O 0.79068 0.92634 0.47763 0.0
O58 O 0.68979 0.9334 0.45112 0.0
Mg59 Mg 0.65457 0.80482 0.38895 0.0
C60 C 0.74045 0.96713 0.47891 0.0
C61 C 0.95641 0.81258 0.47271 0.0
O62 O 0.95035 0.80824 0.36453 0.0
O63 O 0.76976 0.75892 0.61889 0.0
O64 O 0.6717 0.75841 0.56686 0.0
O65 O 0.83718 0.80536 0.2744 0.0
O66 O 0.74668 0.76939 0.33807 0.0
C67 C 0.71326 0.74789 0.63984 0.0
C68 C 0.78085 0.78756 0.25456 0.0
O69 O 0.90949 0.80838 0.53467 0.0
Mg70 Mg 0.15679 0.78685 0.54097 0.0
O71 O 0.18309 0.92624 0.51663 0.0
O72 O 0.28399 0.93329 0.54314 0.0
Mg73 Mg 0.31921 0.80471 0.60531 0.0
C74 C 0.23332 0.96702 0.51535 0.0
C75 C 0.01737 0.8126 0.52154 0.0
O76 O 0.02343 0.80841 0.62973 0.0
O77 O 0.20402 0.75881 0.37537 0.0
O78 O 0.30207 0.75831 0.4274 0.0
O79 O 0.13659 0.80524 0.71985 0.0
O80 O 0.22709 0.76929 0.65619 0.0
C81 C 0.26051 0.74778 0.35442 0.0
C82 C 0.19292 0.78745 0.7397 0.0
O83 O 0.06428 0.80827 0.45958 0.0
Mg84 Mg 0.15679 0.23603 0.45329 0.0
O85 O 0.1831 0.09664 0.47764 0.0
O86 O 0.28399 0.08958 0.45111 0.0
Mg87 Mg 0.31921 0.21816 0.38894 0.0
C88 C 0.23332 0.05585 0.4789 0.0
C89 C 0.01737 0.2104 0.47271 0.0
O90 O 0.02343 0.21474 0.36453 0.0
O91 O 0.20402 0.26406 0.61889 0.0
O92 O 0.30207 0.26457 0.56685 0.0
O93 O 0.1366 0.21762 0.27441 0.0
O94 O 0.22709 0.25359 0.33807 0.0
C95 C 0.26052 0.2751 0.63984 0.0
C96 C 0.19293 0.23542 0.25456 0.0
O97 O 0.06428 0.2146 0.53468 0.0
Mg98 Mg 0.81698 0.23614 0.54097 0.0
O99 O 0.79068 0.09675 0.51663 0.0
O100 O 0.68979 0.08969 0.54314 0.0
Mg101 Mg 0.65457 0.21827 0.60532 0.0
C102 C 0.74045 0.05596 0.51536 0.0
C103 C 0.9564 0.21039 0.52154 0.0
O104 O 0.95035 0.21457 0.62973 0.0
O105 O 0.76976 0.26417 0.37537 0.0
O106 O 0.6717 0.26468 0.42741 0.0
O107 O 0.83718 0.21774 0.71985 0.0
O108 O 0.74668 0.2537 0.65619 0.0
C109 C 0.71326 0.2752 0.35442 0.0
C110 C 0.78085 0.23553 0.7397 0.0
O111 O 0.9095 0.21472 0.45958 0.0
loop_
_geom_bond_atom_site_label_1
_geom_bond_atom_site_label_2
_geom_bond_distance
_geom_bond_site_symmetry_2
_ccdc_geom_bond_type
Mg0 O1 2.028 . S
Mg0 O7 1.986 . S
Mg0 O9 2.114 1_554 S
Mg0 O10 2.251 1_554 S
Mg0 O13 2.010 . S
O1 Mg0 2.028 . S
O1 C4 1.250 . S
O2 Mg3 2.028 . S
O2 C4 1.248 . S
Mg3 O2 2.028 . S
Mg3 O8 2.032 . S
Mg3 O10 2.079 1_554 S
C4 O1 1.250 . S
C4 O2 1.248 . S
C5 O6 1.264 . S
C5 O13 1.249 . S
O6 C5 1.264 . S
O7 Mg0 1.986 . S
O7 C11 1.246 . S
O8 Mg3 2.032 . S
O8 C11 1.259 . S
O9 Mg0 2.114 1_556 S
O9 C12 1.252 . S
O10 Mg0 2.251 1_556 S
O10 Mg3 2.079 1_556 S
O10 C12 1.273 . S
C11 O7 1.246 . S
C11 O8 1.259 . S
C12 O9 1.252 . S
C12 O10 1.273 . S
O13 Mg0 2.010 . S
O13 C5 1.249 . S
Mg14 O15 2.028 . S
Mg14 O21 1.986 1_554 S
Mg14 O23 2.114 . S
Mg14 O24 2.251 . S
Mg14 O27 2.010 . S
O15 Mg14 2.028 . S
O15 C18 1.250 . S
O16 Mg17 2.028 . S
O16 C18 1.248 . S
Mg17 O16 2.028 . S
Mg17 O22 2.032 1_554 S
Mg17 O24 2.079 . S
C18 O15 1.250 . S
C18 O16 1.248 . S
C19 O20 1.264 . S
C19 O27 1.249 . S
O20 C19 1.264 . S
O21 Mg14 1.986 1_556 S
O21 C25 1.246 . S
O22 Mg17 2.032 1_556 S
O22 C25 1.259 . S
O23 Mg14 2.114 . S
O23 C26 1.252 . S
O24 Mg14 2.251 . S
O24 Mg17 2.079 . S
O24 C26 1.273 . S
C25 O21 1.246 . S
C25 O22 1.259 . S
C26 O23 1.252 . S
C26 O24 1.273 . S
O27 Mg14 2.010 . S
O27 C19 1.249 . S
Mg28 O29 2.028 . S
Mg28 O35 1.986 . S
Mg28 O37 2.114 1_554 S
Mg28 O38 2.251 1_554 S
Mg28 O41 2.010 . S
O29 Mg28 2.028 . S
O29 C32 1.250 . S
O30 Mg31 2.028 . S
O30 C32 1.248 . S
Mg31 O30 2.028 . S
Mg31 O36 2.032 . S
Mg31 O38 2.079 1_554 S
C32 O29 1.250 . S
C32 O30 1.248 . S
C33 O34 1.264 . S
C33 O41 1.249 . S
O34 C33 1.264 . S
O35 Mg28 1.986 . S
O35 C39 1.246 . S
O36 Mg31 2.032 . S
O36 C39 1.259 . S
O37 Mg28 2.114 1_556 S
O37 C40 1.252 . S
O38 Mg28 2.251 1_556 S
O38 Mg31 2.079 1_556 S
O38 C40 1.273 . S
C39 O35 1.246 . S
C39 O36 1.259 . S
C40 O37 1.252 . S
C40 O38 1.273 . S
O41 Mg28 2.010 . S
O41 C33 1.249 . S
Mg42 O43 2.028 . S
Mg42 O49 1.986 1_554 S
Mg42 O51 2.114 . S
Mg42 O52 2.251 . S
Mg42 O55 2.010 . S
O43 Mg42 2.028 . S
O43 C46 1.250 . S
O44 Mg45 2.028 . S
O44 C46 1.248 . S
Mg45 O44 2.028 . S
Mg45 O50 2.032 1_554 S
Mg45 O52 2.079 . S
C46 O43 1.250 . S
C46 O44 1.248 . S
C47 O48 1.264 . S
C47 O55 1.249 . S
O48 C47 1.264 . S
O49 Mg42 1.986 1_556 S
O49 C53 1.246 . S
O50 Mg45 2.032 1_556 S
O50 C53 1.259 . S
O51 Mg42 2.114 . S
O51 C54 1.252 . S
O52 Mg42 2.251 . S
O52 Mg45 2.079 . S
O52 C54 1.273 . S
C53 O49 1.246 . S
C53 O50 1.259 . S
C54 O51 1.252 . S
C54 O52 1.273 . S
O55 Mg42 2.010 . S
O55 C47 1.249 . S
Mg56 O57 2.028 . S
Mg56 O63 1.986 . S
Mg56 O65 2.114 . S
Mg56 O66 2.251 . S
Mg56 O69 2.010 . S
O57 Mg56 2.028 . S
O57 C60 1.250 . S
O58 Mg59 2.028 . S
O58 C60 1.248 . S
Mg59 O58 2.028 . S
Mg59 O64 2.032 . S
Mg59 O66 2.079 . S
C60 O57 1.250 . S
C60 O58 1.248 . S
C61 O62 1.264 1_655 S
C61 O69 1.249 . S
O62 C61 1.264 1_455 S
O63 Mg56 1.986 . S
O63 C67 1.246 . S
O64 Mg59 2.032 . S
O64 C67 1.259 . S
O65 Mg56 2.114 . S
O65 C68 1.252 . S
O66 Mg56 2.251 . S
O66 Mg59 2.079 . S
O66 C68 1.273 . S
C67 O63 1.246 . S
C67 O64 1.259 . S
C68 O65 1.252 . S
C68 O66 1.273 . S
O69 Mg56 2.010 . S
O69 C61 1.249 . S
Mg70 O71 2.028 . S
Mg70 O77 1.986 . S
Mg70 O79 2.114 . S
Mg70 O80 2.251 . S
Mg70 O83 2.010 . S
O71 Mg70 2.028 . S
O71 C74 1.250 . S
O72 Mg73 2.028 . S
O72 C74 1.248 . S
Mg73 O72 2.028 . S
Mg73 O78 2.032 . S
Mg73 O80 2.079 . S
C74 O71 1.250 . S
C74 O72 1.248 . S
C75 O76 1.264 1_455 S
C75 O83 1.249 . S
O76 C75 1.264 1_655 S
O77 Mg70 1.986 . S
O77 C81 1.246 . S
O78 Mg73 2.032 . S
O78 C81 1.259 . S
O79 Mg70 2.114 . S
O79 C82 1.252 . S
O80 Mg70 2.251 . S
O80 Mg73 2.079 . S
O80 C82 1.273 . S
C81 O77 1.246 . S
C81 O78 1.259 . S
C82 O79 1.252 . S
C82 O80 1.273 . S
O83 Mg70 2.010 . S
O83 C75 1.249 . S
Mg84 O85 2.028 . S
Mg84 O91 1.986 . S
Mg84 O93 2.114 . S
Mg84 O94 2.251 . S
Mg84 O97 2.010 . S
O85 Mg84 2.028 . S
O85 C88 1.250 . S
O86 Mg87 2.028 . S
O86 C88 1.248 . S
Mg87 O86 2.028 . S
Mg87 O92 2.032 . S
Mg87 O94 2.079 . S
C88 O85 1.250 . S
C88 O86 1.248 . S
C89 O90 1.264 1_455 S
C89 O97 1.249 . S
O90 C89 1.264 1_655 S
O91 Mg84 1.986 . S
O91 C95 1.246 . S
O92 Mg87 2.032 . S
O92 C95 1.259 . S
O93 Mg84 2.114 . S
O93 C96 1.252 . S
O94 Mg84 2.251 . S
O94 Mg87 2.079 . S
O94 C96 1.273 . S
C95 O91 1.246 . S
C95 O92 1.259 . S
C96 O93 1.252 . S
C96 O94 1.273 . S
O97 Mg84 2.010 . S
O97 C89 1.249 . S
Mg98 O99 2.028 . S
Mg98 O105 1.986 . S
Mg98 O107 2.114 . S
Mg98 O108 2.251 . S
Mg98 O111 2.010 . S
O99 Mg98 2.028 . S
O99 C102 1.250 . S
O100 Mg101 2.028 . S
O100 C102 1.248 . S
Mg101 O100 2.028 . S
Mg101 O106 2.032 . S
Mg101 O108 2.079 . S
C102 O99 1.250 . S
C102 O100 1.248 . S
C103 O104 1.264 1_655 S
C103 O111 1.249 . S
O104 C103 1.264 1_455 S
O105 Mg98 1.986 . S
O105 C109 1.246 . S
O106 Mg101 2.032 . S
O106 C109 1.259 . S
O107 Mg98 2.114 . S
O107 C110 1.252 . S
O108 Mg98 2.251 . S
O108 Mg101 2.079 . S
O108 C110 1.273 . S
C109 O105 1.246 . S
C109 O106 1.259 . S
C110 O107 1.252 . S
C110 O108 1.273 . S
O111 Mg98 2.010 . S
O111 C103 1.249 . S
C4 C46 1.428 . S
C5 C19 0.820 . S
C18 C32 1.428 . S
C47 C33 0.820 . S
C60 C102 1.428 1_565 S
C75 C61 0.820 1_455 S
C88 C74 1.428 1_545 S
C103 C89 0.820 1_655 S
C96 C11 1.417 . S
C26 C109 1.417 . S
C68 C39 1.417 . S
C81 C54 1.417 . S
C82 C53 1.417 . S
C12 C95 1.417 . S
C25 C110 1.417 . S
C40 C67 1.417 . S
