# Generated by pormake.
# Topology hex, (8)-cn, num edge types: 1
# Building blocks:
#     Node 0, Type 0, BuildingBlock: EYACOX_clean_sbu_0, # of connection points: 8
#     Edge 1, Type (0, 0), BuildingBlock: XUDNAN_clean_linker_2, # of connection points: 2
#     Edge 2, Type (0, 0), BuildingBlock: XUDNAN_clean_linker_2, # of connection points: 2
#     Edge 3, Type (0, 0), BuildingBlock: XUDNAN_clean_linker_2, # of connection points: 2
#     Edge 4, Type (0, 0), BuildingBlock: XUDNAN_clean_linker_2, # of connection points: 2
# Relax obj value: 0.024
# Max RMSD: 0.062
# Mean RMSD: 0.062
data_MOF--net-hex--node1-EYACOX_clean_sbu_0--edge1-XUDNAN_clean_linker_2
_symmetry_space_group_name_H-M    P1
_symmetry_Int_Tables_number       1
_symmetry_cell_setting            triclinic
loop_
_symmetry_equiv_pos_as_xyz
'x, y, z'
_cell_length_a     24.848181
_cell_length_b     23.905315
_cell_length_c     15.082155
_cell_angle_alpha  112.79505
_cell_angle_beta   72.614242
_cell_angle_gamma 145.25219
loop_
_atom_site_label
_atom_site_type_symbol
_atom_site_fract_x
_atom_site_fract_y
_atom_site_fract_z
_atom_type_partial_charge
Eu0 Eu 0.07948 0.94233 0.93625 0.0
Eu1 Eu 0.99754 0.01469 0.99382 0.0
O2 O 0.20036 -0.0095 0.94228 0.0
O3 O 0.07266 0.83791 0.86132 0.0
O4 O 0.06213 0.03945 0.84841 0.0
O5 O 0.03865 0.91667 0.79799 0.0
O6 O 0.92535 0.81003 0.96907 0.0
O7 O 0.89362 0.85364 0.90733 0.0
C8 C 0.16696 0.86333 0.9334 0.0
C9 C 0.19123 0.7957 0.01049 0.0
C10 C 0.10005 0.73433 0.99301 0.0
C11 C 0.08756 0.76859 0.95577 0.0
C12 C 0.27003 0.88531 0.9814 0.0
C13 C 0.25816 0.91982 0.94315 0.0
C14 C 0.15635 0.90163 0.89387 0.0
C15 C 0.04886 -0.02574 0.77949 0.0
O16 O 0.8776 -0.02571 0.03049 0.0
O17 O 1.01457 0.121 -0.0018 0.0
C18 C 0.86389 0.78921 0.94162 0.0
O19 O 0.97367 -0.02483 0.12666 0.0
O20 O 0.05983 0.96045 0.0948 0.0
O21 O 0.13849 0.14547 0.06893 0.0
O22 O 0.19818 0.1103 0.95583 0.0
C23 C 0.88726 0.08562 0.03411 0.0
C24 C 0.75273 0.037 0.04716 0.0
C25 C 0.78847 0.01038 0.03586 0.0
C26 C 0.81537 0.13794 0.05843 0.0
C27 C 0.91186 0.21047 0.0482 0.0
C28 C 0.94839 0.1851 0.03695 0.0
C29 C 0.92651 0.05909 0.0195 0.0
C30 C 1.00999 0.96332 0.15142 0.0
C31 C 0.21 0.17291 0.02833 0.0
H32 H 0.20027 0.76631 0.03459 0.0
H33 H 1.01664 0.71988 0.9408 0.0
H34 H 0.31907 -0.01134 0.91888 0.0
H35 H 0.73994 0.93155 0.02467 0.0
H36 H 0.78757 0.15744 0.0622 0.0
H37 H 0.02343 0.24159 0.02696 0.0
H38 H 0.97195 0.37345 0.17314 0.0
H39 H 0.95747 0.24082 0.87203 0.0
H40 H 0.97428 0.34313 0.82587 0.0
H41 H 0.84148 0.37916 0.15561 0.0
H42 H 0.91236 0.50131 0.23965 0.0
H43 H 0.90886 0.4262 0.25146 0.0
H44 H 0.09142 0.57265 0.24167 0.0
H45 H 0.09559 0.65026 0.23709 0.0
H46 H 0.14896 0.6325 0.14447 0.0
H47 H 0.9719 0.44219 0.81315 0.0
H48 H 1.01184 0.58076 0.83238 0.0
H49 H 0.0325 0.65296 0.14167 0.0
C50 C 0.97759 0.37045 0.09782 0.0
C51 C 0.96522 0.30117 0.02592 0.0
C52 C 0.96953 0.29589 0.9278 0.0
C53 C 0.97657 0.35162 0.90105 0.0
C54 C 0.98069 0.41303 0.97364 0.0
C55 C 0.98602 0.42667 0.06993 0.0
C56 C 0.99394 0.5002 0.13354 0.0
C57 C 0.90909 0.44857 0.19891 0.0
C58 C 0.08807 0.5945 0.19262 0.0
C59 C 0.99174 0.52539 0.05792 0.0
C60 C 0.98129 0.47194 0.96628 0.0
C61 C 0.98067 0.48497 0.88444 0.0
C62 C 1.00105 0.56217 0.89611 0.0
C63 C 0.02464 0.62668 0.9885 0.0
C64 C 1.01234 0.6028 0.07068 0.0
H65 H 0.62894 0.00617 0.16994 0.0
H66 H 0.66339 0.9169 0.87238 0.0
H67 H 0.54676 0.87661 0.82115 0.0
H68 H 0.36724 0.81649 0.14295 0.0
H69 H 0.38596 0.90921 0.22881 0.0
H70 H 0.45446 0.90707 0.23988 0.0
H71 H 0.60641 0.0975 0.24029 0.0
H72 H 0.53894 0.0987 0.22253 0.0
H73 H 0.62775 0.13538 0.13867 0.0
H74 H 0.45292 0.88118 0.80165 0.0
H75 H 0.35019 0.88031 0.81718 0.0
H76 H 0.37748 0.96693 0.12765 0.0
C77 C 0.60652 -0.02899 0.09471 0.0
C78 C 0.65361 0.96275 0.02515 0.0
C79 C 0.62603 0.92092 0.92677 0.0
C80 C 0.56146 0.90013 0.89697 0.0
C81 C 0.52385 0.91953 0.96684 0.0
C82 C 0.54212 0.94976 0.06399 0.0
C83 C 0.49729 -0.02892 0.12428 0.0
C84 C 0.42173 0.8965 0.1877 0.0
C85 C 0.5721 0.08225 0.18499 0.0
C86 C 0.45334 0.95102 0.04599 0.0
C87 C 0.4702 0.92238 0.9556 0.0
C88 C 0.43822 0.90217 0.87213 0.0
C89 C 0.38182 0.90416 0.88149 0.0
C90 C 0.35775 0.92555 0.97351 0.0
C91 C 0.39691 0.95286 0.05657 0.0
H92 H 0.37154 0.25265 0.03973 0.0
H93 H 0.26093 0.33252 0.06464 0.0
H94 H 0.423 0.50921 0.06713 0.0
H95 H 0.60084 0.51733 0.19442 0.0
H96 H 0.66716 0.50909 0.12146 0.0
H97 H 0.54497 0.39563 0.14397 0.0
H98 H 0.50935 0.31452 0.9603 0.0
H99 H 0.63021 0.42796 0.93676 0.0
H100 H 0.53671 0.37849 0.88526 0.0
H101 H 0.58346 0.65459 0.02079 0.0
H102 H 0.74415 0.77944 0.96259 0.0
H103 H 0.76077 0.6183 0.98557 0.0
C104 C 0.38238 0.30883 0.04958 0.0
C105 C 0.30506 0.28033 0.05177 0.0
C106 C 0.32004 0.35406 0.06382 0.0
C107 C 0.41162 0.45429 0.0653 0.0
C108 C 0.4866 0.47929 0.05808 0.0
C109 C 0.47364 0.41001 0.05426 0.0
C110 C 0.56606 0.45508 0.03954 0.0
C111 C 0.59656 0.47019 0.13025 0.0
C112 C 0.56013 0.39013 0.95012 0.0
C113 C 0.63061 0.55616 0.0252 0.0
C114 C 0.58323 0.56869 0.03761 0.0
C115 C 0.62286 0.64827 0.01515 0.0
C116 C 0.71408 0.7183 0.98107 0.0
C117 C 0.76558 0.70951 0.97128 0.0
C118 C 0.72348 0.6277 0.99425 0.0
H119 H 0.09733 0.09784 0.70178 0.0
H120 H 0.95801 0.80443 0.63401 0.0
H121 H 0.91515 0.76283 0.47175 0.0
H122 H 0.93439 0.01571 0.56505 0.0
H123 H 0.02643 0.1291 0.52329 0.0
H124 H 0.04128 0.13458 0.63756 0.0
H125 H 0.19761 0.2104 0.58344 0.0
H126 H 0.18403 0.20678 0.46988 0.0
H127 H 0.19785 0.14432 0.47268 0.0
H128 H 0.89187 0.75388 0.31754 0.0
H129 H 0.90728 0.78736 0.17029 0.0
H130 H 0.06294 0.08669 0.33355 0.0
C131 C 0.05762 0.02482 0.65273 0.0
C132 C 0.03082 0.95429 0.68036 0.0
C133 C 0.97985 0.85994 0.61412 0.0
C134 C 0.95414 0.83502 0.52219 0.0
C135 C 0.98037 0.90546 0.49761 0.0
C136 C 0.03222 -0.00095 0.56005 0.0
C137 C 0.05778 0.06384 0.51232 0.0
C138 C 1.01222 0.08715 0.56256 0.0
C139 C 0.16571 0.16211 0.50938 0.0
C140 C 1.01359 -0.00752 0.41272 0.0
C141 C 0.96779 0.90083 0.40681 0.0
C142 C 0.92649 0.82468 0.32124 0.0
C143 C 0.93535 0.84415 0.23836 0.0
C144 C 0.98497 0.93871 0.24214 0.0
C145 C 0.02251 0.01292 0.33036 0.0
loop_
_geom_bond_atom_site_label_1
_geom_bond_atom_site_label_2
_geom_bond_distance
_geom_bond_site_symmetry_2
_ccdc_geom_bond_type
Eu0 O2 2.472 . S
Eu0 O3 2.507 1_455 S
Eu0 O5 2.336 1_455 S
Eu0 O6 2.389 1_455 S
Eu0 C14 2.835 . S
Eu0 O20 2.396 1_456 S
Eu0 O22 2.323 1_565 S
Eu1 O4 2.396 1_654 S
Eu1 O7 2.323 1_545 S
Eu1 O16 2.472 . S
Eu1 O17 2.507 1_655 S
Eu1 O19 2.336 1_655 S
Eu1 O21 2.389 1_655 S
Eu1 C29 2.835 . S
O2 Eu0 2.472 . S
O2 C14 1.258 . S
O3 Eu0 2.507 1_655 S
O3 C14 1.246 1_655 S
O4 Eu1 2.396 1_456 S
O4 C15 1.216 1_445 S
O5 Eu0 2.336 1_655 S
O5 C15 1.279 . S
O6 Eu0 2.389 1_655 S
O6 C18 1.239 . S
O7 Eu1 2.323 1_565 S
O7 C18 1.249 1_554 S
C8 C11 1.390 . S
C8 C13 1.370 . S
C8 C14 1.489 . S
C9 C10 1.344 . S
C9 C12 1.414 . S
C9 H32 0.931 . S
C10 C9 1.344 . S
C10 C11 1.423 1_554 S
C11 C8 1.390 . S
C11 C10 1.423 1_556 S
C11 H33 0.930 1_455 S
C12 C9 1.414 . S
C12 C13 1.395 1_554 S
C13 C8 1.370 . S
C13 C12 1.395 1_556 S
C13 H34 0.932 1_565 S
C14 Eu0 2.835 . S
C14 O2 1.258 . S
C14 O3 1.246 1_455 S
C14 C8 1.489 . S
C15 O4 1.216 1_665 S
C15 O5 1.279 . S
O16 Eu1 2.472 . S
O16 C29 1.258 . S
O17 Eu1 2.507 1_455 S
O17 C29 1.246 1_455 S
C18 O6 1.239 . S
C18 O7 1.249 1_556 S
O19 Eu1 2.336 1_455 S
O19 C30 1.279 . S
O20 Eu0 2.396 1_654 S
O20 C30 1.216 1_665 S
O21 Eu1 2.389 1_455 S
O21 C31 1.239 . S
O22 Eu0 2.323 1_545 S
O22 C31 1.249 1_556 S
C23 C25 1.370 . S
C23 C28 1.390 . S
C23 C29 1.489 . S
C24 C25 1.396 1_556 S
C24 C26 1.413 . S
C25 C23 1.370 . S
C25 C24 1.396 1_554 S
C25 H35 0.932 1_545 S
C26 C24 1.413 . S
C26 C27 1.345 . S
C26 H36 0.931 . S
C27 C26 1.345 . S
C27 C28 1.417 1_556 S
C28 C23 1.390 . S
C28 C27 1.417 1_554 S
C28 H37 0.930 1_655 S
C29 Eu1 2.835 . S
C29 O16 1.258 . S
C29 O17 1.246 1_655 S
C29 C23 1.489 . S
C30 O19 1.279 . S
C30 O20 1.216 1_445 S
C31 O21 1.239 . S
C31 O22 1.249 1_554 S
H32 C9 0.931 . S
H33 C11 0.930 1_655 S
H34 C13 0.932 1_545 S
H35 C25 0.932 1_565 S
H36 C26 0.931 . S
H37 C28 0.930 1_455 S
H38 C50 0.930 . S
H39 C52 0.934 . S
H40 C53 0.930 . S
H41 C57 0.959 . S
H42 C57 0.959 . S
H43 C57 0.961 . S
H44 C58 0.960 . S
H45 C58 0.961 . S
H46 C58 0.959 . S
H47 C61 0.929 . S
H48 C62 0.931 . S
H49 C64 0.930 . S
C50 H38 0.930 . S
C50 C51 1.399 1_554 S
C50 C55 1.399 . S
C51 C50 1.399 1_556 S
C51 C52 1.376 . S
C52 H39 0.934 . S
C52 C51 1.376 . S
C52 C53 1.388 1_655 S
C53 H40 0.930 . S
C53 C52 1.388 1_455 S
C53 C54 1.390 . S
C54 C53 1.390 . S
C54 C55 1.394 1_456 S
C54 C60 1.465 . S
C55 C50 1.399 . S
C55 C54 1.394 1_654 S
C55 C56 1.516 . S
C56 C55 1.516 . S
C56 C57 1.502 . S
C56 C58 1.561 1_655 S
C56 C59 1.526 1_655 S
C57 H41 0.959 . S
C57 H42 0.959 . S
C57 H43 0.961 . S
C57 C56 1.502 . S
C58 H44 0.960 . S
C58 H45 0.961 . S
C58 H46 0.959 . S
C58 C56 1.561 1_455 S
C59 C56 1.526 1_455 S
C59 C60 1.396 1_554 S
C59 C64 1.390 . S
C60 C54 1.465 . S
C60 C59 1.396 1_556 S
C60 C61 1.399 . S
C61 H47 0.929 . S
C61 C60 1.399 . S
C61 C62 1.385 . S
C62 H48 0.931 . S
C62 C61 1.385 . S
C62 C63 1.389 . S
C63 C62 1.389 . S
C63 C64 1.387 1_556 S
C64 H49 0.930 . S
C64 C59 1.390 . S
C64 C63 1.387 1_554 S
H65 C77 0.930 . S
H66 C79 0.930 . S
H67 C80 0.930 . S
H68 C84 0.959 . S
H69 C84 0.959 . S
H70 C84 0.961 . S
H71 C85 0.960 . S
H72 C85 0.961 . S
H73 C85 0.959 . S
H74 C88 0.929 . S
H75 C89 0.931 . S
H76 C91 0.930 . S
C77 H65 0.930 . S
C77 C78 1.399 1_565 S
C77 C82 1.399 . S
C78 C77 1.399 1_545 S
C78 C79 1.376 1_554 S
C79 H66 0.930 . S
C79 C78 1.376 1_556 S
C79 C80 1.388 . S
C80 H67 0.930 . S
C80 C79 1.388 . S
C80 C81 1.390 1_556 S
C81 C80 1.390 1_554 S
C81 C82 1.394 1_545 S
C81 C87 1.465 . S
C82 C77 1.399 . S
C82 C81 1.394 1_565 S
C82 C83 1.516 . S
C83 C82 1.516 . S
C83 C84 1.502 1_554 S
C83 C85 1.561 . S
C83 C86 1.526 . S
C84 H68 0.959 . S
C84 H69 0.959 . S
C84 H70 0.961 . S
C84 C83 1.502 1_556 S
C85 H71 0.960 . S
C85 H72 0.961 . S
C85 H73 0.959 . S
C85 C83 1.561 . S
C86 C83 1.526 . S
C86 C87 1.396 1_565 S
C86 C91 1.390 . S
C87 C81 1.465 . S
C87 C86 1.396 1_545 S
C87 C88 1.399 1_554 S
C88 H74 0.929 . S
C88 C87 1.399 1_556 S
C88 C89 1.385 . S
C89 H75 0.931 . S
C89 C88 1.385 . S
C89 C90 1.392 . S
C90 C89 1.392 . S
C90 C91 1.382 1_546 S
C91 H76 0.930 . S
C91 C86 1.390 . S
C91 C90 1.382 1_564 S
H92 C104 0.930 . S
H93 C106 0.930 . S
H94 C107 0.930 . S
H95 C111 0.959 . S
H96 C111 0.959 . S
H97 C111 0.961 . S
H98 C112 0.960 . S
H99 C112 0.961 . S
H100 C112 0.959 . S
H101 C115 0.929 . S
H102 C116 0.931 . S
H103 C118 0.930 . S
C104 H92 0.930 . S
C104 C105 1.399 1_554 S
C104 C109 1.399 . S
C105 C104 1.399 1_556 S
C105 C106 1.376 . S
C106 H93 0.930 . S
C106 C105 1.376 . S
C106 C107 1.388 . S
C107 H94 0.930 . S
C107 C106 1.388 . S
C107 C108 1.390 . S
C108 C107 1.390 . S
C108 C109 1.394 1_556 S
C108 C114 1.465 . S
C109 C104 1.399 . S
C109 C108 1.394 1_554 S
C109 C110 1.516 . S
C110 C109 1.516 . S
C110 C111 1.502 . S
C110 C112 1.561 . S
C110 C113 1.526 . S
C111 H95 0.959 . S
C111 H96 0.959 . S
C111 H97 0.961 . S
C111 C110 1.502 . S
C112 H98 0.960 . S
C112 H99 0.961 . S
C112 H100 0.959 . S
C112 C110 1.561 . S
C113 C110 1.526 . S
C113 C114 1.396 1_554 S
C113 C118 1.390 . S
C114 C108 1.465 . S
C114 C113 1.396 1_556 S
C114 C115 1.399 . S
C115 H101 0.929 . S
C115 C114 1.399 . S
C115 C116 1.385 . S
C116 H102 0.931 . S
C116 C115 1.385 . S
C116 C117 1.389 . S
C117 C116 1.389 . S
C117 C118 1.387 1_556 S
C118 H103 0.930 . S
C118 C113 1.390 . S
C118 C117 1.387 1_554 S
H119 C131 0.930 . S
H120 C133 0.930 . S
H121 C134 0.930 . S
H122 C138 0.959 1_655 S
H123 C138 0.959 . S
H124 C138 0.961 . S
H125 C139 0.960 . S
H126 C139 0.961 . S
H127 C139 0.959 . S
H128 C142 0.929 . S
H129 C143 0.931 . S
H130 C145 0.930 . S
C131 H119 0.930 . S
C131 C132 1.409 1_445 S
C131 C136 1.399 . S
C132 C131 1.409 1_665 S
C132 C133 1.370 . S
C133 H120 0.930 . S
C133 C132 1.370 . S
C133 C134 1.388 . S
C134 H121 0.930 . S
C134 C133 1.388 . S
C134 C135 1.390 . S
C135 C134 1.390 . S
C135 C136 1.394 1_665 S
C135 C141 1.465 . S
C136 C131 1.399 . S
C136 C135 1.394 1_445 S
C136 C137 1.516 . S
C137 C136 1.516 . S
C137 C138 1.502 . S
C137 C139 1.561 . S
C137 C140 1.526 . S
C138 H122 0.959 1_455 S
C138 H123 0.959 . S
C138 H124 0.961 . S
C138 C137 1.502 . S
C139 H125 0.960 . S
C139 H126 0.961 . S
C139 H127 0.959 . S
C139 C137 1.561 . S
C140 C137 1.526 . S
C140 C141 1.396 1_445 S
C140 C145 1.390 . S
C141 C135 1.465 . S
C141 C140 1.396 1_665 S
C141 C142 1.399 . S
C142 H128 0.929 . S
C142 C141 1.399 . S
C142 C143 1.385 . S
C143 H129 0.931 . S
C143 C142 1.385 . S
C143 C144 1.389 . S
C144 C143 1.389 . S
C144 C145 1.387 1_665 S
C145 H130 0.930 . S
C145 C140 1.390 . S
C145 C144 1.387 1_445 S
C51 C27 1.185 . S
C63 C10 1.135 1_556 S
C78 C24 1.958 1_554 S
C90 C12 2.045 1_546 S
C105 C31 0.923 1_556 S
C117 C18 0.873 . S
C132 C15 1.489 . S
C144 C30 1.484 1_665 S
