# Generated by pormake.
# Topology dmp, (4)-cn, num edge types: 1
# Building blocks:
#     Node 0, Type 0, BuildingBlock: CEKHIL_clean_sbu_0, # of connection points: 4
#     Node 1, Type 0, BuildingBlock: CEKHIL_clean_sbu_0, # of connection points: 4
#     Node 2, Type 0, BuildingBlock: CEKHIL_clean_sbu_0, # of connection points: 4
#     Node 3, Type 0, BuildingBlock: CEKHIL_clean_sbu_0, # of connection points: 4
#     Edge 4, Type (0, 0), BuildingBlock: XIVTED_clean_linker_0, # of connection points: 2
#     Edge 5, Type (0, 0), BuildingBlock: XIVTED_clean_linker_0, # of connection points: 2
#     Edge 6, Type (0, 0), BuildingBlock: XIVTED_clean_linker_0, # of connection points: 2
#     Edge 7, Type (0, 0), BuildingBlock: XIVTED_clean_linker_0, # of connection points: 2
#     Edge 8, Type (0, 0), BuildingBlock: XIVTED_clean_linker_0, # of connection points: 2
#     Edge 9, Type (0, 0), BuildingBlock: XIVTED_clean_linker_0, # of connection points: 2
#     Edge 10, Type (0, 0), BuildingBlock: XIVTED_clean_linker_0, # of connection points: 2
#     Edge 11, Type (0, 0), BuildingBlock: XIVTED_clean_linker_0, # of connection points: 2
# Relax obj value: 0.088
# Max RMSD: 0.196
# Mean RMSD: 0.196
data_MOF--net-dmp--node1-CEKHIL_clean_sbu_0--edge1-XIVTED_clean_linker_0
_symmetry_space_group_name_H-M    P1
_symmetry_Int_Tables_number       1
_symmetry_cell_setting            triclinic
loop_
_symmetry_equiv_pos_as_xyz
'x, y, z'
_cell_length_a     39.211933
_cell_length_b     19.454614
_cell_length_c     14.460911
_cell_angle_alpha  90.009391
_cell_angle_beta   90.067952
_cell_angle_gamma 91.745693
loop_
_atom_site_label
_atom_site_type_symbol
_atom_site_fract_x
_atom_site_fract_y
_atom_site_fract_z
_atom_type_partial_charge
Co0 Co 0.10261 0.22455 0.27894 0.0
O1 O 0.07001 0.29516 0.26264 0.0
O2 O 0.09483 0.27015 0.39564 0.0
C3 C 0.07253 0.14447 0.19803 0.0
O4 O 0.13691 0.15473 0.32228 0.0
Co5 Co 0.13874 0.16048 0.10994 0.0
O6 O 0.15139 0.08937 0.20115 0.0
C7 C 0.16144 0.29751 0.17954 0.0
C8 C 0.07337 0.30733 0.35038 0.0
C9 C 0.15169 0.1026 0.28743 0.0
O10 O 0.14107 0.29131 0.24888 0.0
O11 O 0.16244 0.25364 0.11353 0.0
O12 O 0.06564 0.15504 0.28468 0.0
O13 O 0.09558 0.18501 0.16239 0.0
Co14 Co 0.40051 0.74411 0.27481 0.0
O15 O 0.43212 0.67159 0.25927 0.0
O16 O 0.40752 0.69829 0.39178 0.0
C17 C 0.43178 0.82247 0.19431 0.0
O18 O 0.36718 0.81596 0.31748 0.0
Co19 Co 0.36563 0.81034 0.10504 0.0
O20 O 0.35341 0.8818 0.19617 0.0
C21 C 0.34083 0.67465 0.17438 0.0
C22 C 0.42857 0.65992 0.34706 0.0
C23 C 0.35284 0.86858 0.28246 0.0
O24 O 0.36115 0.67956 0.24414 0.0
O25 O 0.34064 0.71852 0.10828 0.0
O26 O 0.43841 0.81158 0.28106 0.0
O27 O 0.40825 0.78317 0.15835 0.0
Co28 Co 0.90073 0.7463 0.71898 0.0
O29 O 0.93269 0.67453 0.73526 0.0
O30 O 0.90821 0.70058 0.60218 0.0
C31 C 0.93144 0.82519 0.80029 0.0
O32 O 0.86705 0.81738 0.67573 0.0
Co33 Co 0.86509 0.81145 0.88799 0.0
O34 O 0.85315 0.88319 0.79692 0.0
C35 C 0.84122 0.67529 0.81787 0.0
C36 C 0.92932 0.66261 0.64747 0.0
C37 C 0.8527 0.87 0.71063 0.0
O38 O 0.8617 0.68081 0.74869 0.0
O39 O 0.84055 0.71913 0.88398 0.0
O40 O 0.93828 0.81457 0.71363 0.0
O41 O 0.90802 0.7854 0.83567 0.0
Co42 Co 0.60282 0.22654 0.72308 0.0
O43 O 0.57063 0.29803 0.73874 0.0
O44 O 0.59547 0.27222 0.60622 0.0
C45 C 0.57216 0.14713 0.80338 0.0
O46 O 0.6367 0.15581 0.68023 0.0
Co47 Co 0.63827 0.1612 0.89253 0.0
O48 O 0.65064 0.08988 0.80132 0.0
C49 C 0.662 0.29773 0.82358 0.0
C50 C 0.57412 0.30988 0.65097 0.0
C51 C 0.65113 0.10326 0.71509 0.0
O52 O 0.64169 0.29227 0.75387 0.0
O53 O 0.66258 0.25376 0.88952 0.0
O54 O 0.56544 0.15796 0.71666 0.0
O55 O 0.59539 0.1871 0.83948 0.0
H56 H 0.30798 0.81738 0.41056 0.0
H57 H 0.15761 0.96389 0.30236 0.0
H58 H 0.34152 0.00623 0.27848 0.0
H59 H 0.2028 0.15694 0.39325 0.0
H60 H 0.20896 0.90578 0.35243 0.0
H61 H 0.25591 0.87351 0.46092 0.0
C62 C 0.30507 0.87145 0.39556 0.0
C63 C 0.32869 0.90712 0.33902 0.0
C64 C 0.20709 0.9604 0.36523 0.0
C65 C 0.26954 0.97089 0.39573 0.0
C66 C 0.17783 -0.00654 0.33647 0.0
C67 C 0.17612 0.06503 0.34401 0.0
C68 C 0.23521 -0.00024 0.3981 0.0
C69 C 0.20317 0.10148 0.38705 0.0
C70 C 0.27526 0.90309 0.42358 0.0
C71 C 0.32361 0.97684 0.3209 0.0
N72 N 0.23223 0.06879 0.40936 0.0
N73 N 0.29432 0.00631 0.34819 0.0
H74 H 0.18176 0.37957 0.32445 0.0
H75 H 0.30525 0.62364 0.02522 0.0
H76 H 0.19796 0.34856 0.03218 0.0
H77 H 0.31739 0.5967 0.31975 0.0
H78 H 0.26051 0.53326 0.02563 0.0
H79 H 0.2257 0.47147 0.32284 0.0
C80 C 0.19433 0.39243 0.25978 0.0
C81 C 0.18624 0.35619 0.1783 0.0
C82 C 0.27311 0.54702 0.08999 0.0
C83 C 0.23644 0.4611 0.17626 0.0
C84 C 0.29859 0.59858 0.08989 0.0
C85 C 0.31515 0.61756 0.17254 0.0
C86 C 0.26374 0.51506 0.17352 0.0
C87 C 0.30549 0.58333 0.25432 0.0
C88 C 0.21955 0.44451 0.25915 0.0
C89 C 0.20351 0.37488 0.09667 0.0
N90 N 0.28022 0.53402 0.25286 0.0
N91 N 0.22775 0.42621 0.09767 0.0
H92 H 0.65856 0.96455 0.70699 0.0
H93 H 0.84565 0.00878 0.70139 0.0
H94 H 0.70012 0.15636 0.60099 0.0
H95 H 0.80305 0.81679 0.59852 0.0
H96 H 0.79404 0.06619 0.65155 0.0
H97 H 0.70981 0.90717 0.65459 0.0
C98 C 0.67798 -0.00605 0.66959 0.0
C99 C 0.67534 0.06511 0.6585 0.0
C100 C 0.79649 0.01199 0.63669 0.0
C101 C 0.73439 0.00083 0.60233 0.0
C102 C 0.82593 0.97935 0.66507 0.0
C103 C 0.82839 0.90813 0.65424 0.0
C104 C 0.76892 0.97244 0.60119 0.0
C105 C 0.80204 0.87194 0.60776 0.0
C106 C 0.70719 0.96132 0.63969 0.0
C107 C 0.70127 0.10127 0.6105 0.0
N108 N 0.77278 0.90403 0.5858 0.0
N109 N 0.73036 0.06919 0.58696 0.0
H110 H 0.82006 0.59441 0.67264 0.0
H111 H 0.69747 0.34937 0.97259 0.0
H112 H 0.80456 0.62479 0.96531 0.0
H113 H 0.6846 0.37684 0.67838 0.0
H114 H 0.74176 0.44064 0.97197 0.0
H115 H 0.77579 0.50317 0.67437 0.0
C116 C 0.80756 0.58156 0.73741 0.0
C117 C 0.816 0.61734 0.819 0.0
C118 C 0.72908 0.42683 0.90774 0.0
C119 C 0.76541 0.51317 0.8212 0.0
C120 C 0.70385 0.37475 0.90795 0.0
C121 C 0.68726 0.35557 0.82543 0.0
C122 C 0.73816 0.45912 0.82421 0.0
C123 C 0.69655 0.39029 0.74371 0.0
C124 C 0.78215 0.52986 0.73811 0.0
C125 C 0.79878 0.59877 0.90075 0.0
N126 N 0.7216 0.44006 0.74502 0.0
N127 N 0.77436 0.54774 0.89984 0.0
H128 H 0.08446 0.11027 0.01849 0.0
H129 H 0.91977 0.85905 0.98004 0.0
H130 H 0.01689 0.0642 0.24709 0.0
H131 H 0.98754 0.90433 0.7516 0.0
H132 H 0.95471 0.93489 0.07841 0.0
H133 H 0.04979 0.03375 0.92031 0.0
C134 C 0.06241 0.08367 0.04819 0.0
C135 C 0.05343 0.09371 0.14098 0.0
C136 C 0.96194 0.92843 0.00675 0.0
C137 C 0.01344 0.00655 0.02872 0.0
C138 C 0.94193 0.88532 0.95042 0.0
C139 C 0.95086 0.87532 0.85759 0.0
C140 C 0.99116 0.96172 0.97008 0.0
C141 C 0.97976 0.91069 0.82281 0.0
C142 C 0.04256 0.04015 0.99198 0.0
C143 C 0.02469 0.05786 0.17589 0.0
N144 N 0.99898 0.95218 0.87924 0.0
N145 N 0.00561 0.01605 0.11955 0.0
H146 H 0.58358 0.11282 0.98322 0.0
H147 H 0.42064 0.85648 0.0143 0.0
H148 H 0.517 0.06609 0.75227 0.0
H149 H 0.48738 0.90243 0.24518 0.0
H150 H 0.45536 0.93381 0.91772 0.0
H151 H 0.54914 0.03483 0.07967 0.0
C152 C 0.56179 0.0858 0.95265 0.0
C153 C 0.55304 0.09602 0.85968 0.0
C154 C 0.4624 0.92717 0.98952 0.0
C155 C 0.51333 0.00713 0.96994 0.0
C156 C 0.44253 0.88318 0.04483 0.0
C157 C 0.45122 0.873 0.13784 0.0
C158 C 0.49125 0.96117 0.02741 0.0
C159 C 0.47979 0.90892 0.17379 0.0
C160 C 0.54208 0.04142 0.00787 0.0
C161 C 0.52463 0.05963 0.82364 0.0
N162 N 0.49888 0.95131 0.11835 0.0
N163 N 0.50568 0.01695 0.87901 0.0
H164 H 0.93008 0.62654 0.4639 0.0
H165 H 0.07251 0.34348 0.53385 0.0
H166 H 0.97468 0.5777 0.72801 0.0
H167 H 0.02741 0.39104 0.26993 0.0
H168 H 0.03695 0.42954 0.60647 0.0
H169 H 0.96539 0.54 0.39126 0.0
C170 C 0.9472 0.59749 0.50658 0.0
C171 C 0.94946 0.60932 0.60204 0.0
C172 C 0.03487 0.42116 0.53263 0.0
C173 C 0.98998 0.51058 0.51967 0.0
C174 C 0.05521 0.37213 0.49121 0.0
C175 C 0.05292 0.36013 0.39579 0.0
C176 C 0.01211 0.45838 0.47816 0.0
C177 C 0.03002 0.39863 0.34379 0.0
C178 C 0.96739 0.54819 0.46515 0.0
C179 C 0.97211 0.5703 0.65411 0.0
N180 N 0.01051 0.44594 0.38563 0.0
N181 N 0.9915 0.52279 0.61226 0.0
H182 H 0.42983 0.62624 0.53138 0.0
H183 H 0.5727 0.34355 0.46672 0.0
H184 H 0.47347 0.57344 0.2678 0.0
H185 H 0.52863 0.3952 0.7302 0.0
H186 H 0.53668 0.42808 0.3924 0.0
H187 H 0.46558 0.5412 0.60575 0.0
C188 C 0.4468 0.59657 0.48916 0.0
C189 C 0.4487 0.60695 0.39335 0.0
C190 C 0.53494 0.42097 0.46652 0.0
C191 C 0.48977 0.50994 0.47773 0.0
C192 C 0.55556 0.37284 0.50893 0.0
C193 C 0.55366 0.36235 0.60471 0.0
C194 C 0.51228 0.45882 0.52035 0.0
C195 C 0.53093 0.4016 0.65609 0.0
C196 C 0.46727 0.54815 0.53159 0.0
C197 C 0.4712 0.5672 0.34194 0.0
N198 N 0.51113 0.448 0.61329 0.0
N199 N 0.49087 0.52058 0.38476 0.0
loop_
_geom_bond_atom_site_label_1
_geom_bond_atom_site_label_2
_geom_bond_distance
_geom_bond_site_symmetry_2
_ccdc_geom_bond_type
Co0 O1 2.216 . S
Co0 O2 2.091 . S
Co0 O4 2.004 . S
Co0 O10 2.021 . S
Co0 O12 2.137 . S
Co0 O13 2.244 . S
O1 Co0 2.216 . S
O1 C8 1.247 . S
O2 Co0 2.091 . S
O2 C8 1.261 . S
C3 O12 1.247 . S
C3 O13 1.272 . S
O4 Co0 2.004 . S
O4 C9 1.259 . S
Co5 O6 2.061 . S
Co5 O11 2.052 . S
Co5 O13 2.135 . S
O6 Co5 2.061 . S
O6 C9 1.235 . S
C7 O10 1.238 . S
C7 O11 1.241 . S
C8 O1 1.247 . S
C8 O2 1.261 . S
C9 O4 1.259 . S
C9 O6 1.235 . S
O10 Co0 2.021 . S
O10 C7 1.238 . S
O11 Co5 2.052 . S
O11 C7 1.241 . S
O12 Co0 2.137 . S
O12 C3 1.247 . S
O13 Co0 2.244 . S
O13 C3 1.272 . S
O13 Co5 2.135 . S
Co14 O15 2.216 . S
Co14 O16 2.091 . S
Co14 O18 2.004 . S
Co14 O24 2.021 . S
Co14 O26 2.137 . S
Co14 O27 2.244 . S
O15 Co14 2.216 . S
O15 C22 1.247 . S
O16 Co14 2.091 . S
O16 C22 1.261 . S
C17 O26 1.247 . S
C17 O27 1.272 . S
O18 Co14 2.004 . S
O18 C23 1.259 . S
Co19 O20 2.061 . S
Co19 O25 2.052 . S
Co19 O27 2.135 . S
O20 Co19 2.061 . S
O20 C23 1.235 . S
C21 O24 1.238 . S
C21 O25 1.241 . S
C22 O15 1.247 . S
C22 O16 1.261 . S
C23 O18 1.259 . S
C23 O20 1.235 . S
O24 Co14 2.021 . S
O24 C21 1.238 . S
O25 Co19 2.052 . S
O25 C21 1.241 . S
O26 Co14 2.137 . S
O26 C17 1.247 . S
O27 Co14 2.244 . S
O27 C17 1.272 . S
O27 Co19 2.135 . S
Co28 O29 2.216 . S
Co28 O30 2.091 . S
Co28 O32 2.004 . S
Co28 O38 2.021 . S
Co28 O40 2.137 . S
Co28 O41 2.244 . S
O29 Co28 2.216 . S
O29 C36 1.247 . S
O30 Co28 2.091 . S
O30 C36 1.261 . S
C31 O40 1.247 . S
C31 O41 1.272 . S
O32 Co28 2.004 . S
O32 C37 1.259 . S
Co33 O34 2.061 . S
Co33 O39 2.052 . S
Co33 O41 2.135 . S
O34 Co33 2.061 . S
O34 C37 1.235 . S
C35 O38 1.238 . S
C35 O39 1.241 . S
C36 O29 1.247 . S
C36 O30 1.261 . S
C37 O32 1.259 . S
C37 O34 1.235 . S
O38 Co28 2.021 . S
O38 C35 1.238 . S
O39 Co33 2.052 . S
O39 C35 1.241 . S
O40 Co28 2.137 . S
O40 C31 1.247 . S
O41 Co28 2.244 . S
O41 C31 1.272 . S
O41 Co33 2.135 . S
Co42 O43 2.216 . S
Co42 O44 2.091 . S
Co42 O46 2.004 . S
Co42 O52 2.021 . S
Co42 O54 2.137 . S
Co42 O55 2.244 . S
O43 Co42 2.216 . S
O43 C50 1.247 . S
O44 Co42 2.091 . S
O44 C50 1.261 . S
C45 O54 1.247 . S
C45 O55 1.272 . S
O46 Co42 2.004 . S
O46 C51 1.259 . S
Co47 O48 2.061 . S
Co47 O53 2.052 . S
Co47 O55 2.135 . S
O48 Co47 2.061 . S
O48 C51 1.235 . S
C49 O52 1.238 . S
C49 O53 1.241 . S
C50 O43 1.247 . S
C50 O44 1.261 . S
C51 O46 1.259 . S
C51 O48 1.235 . S
O52 Co42 2.021 . S
O52 C49 1.238 . S
O53 Co47 2.052 . S
O53 C49 1.241 . S
O54 Co42 2.137 . S
O54 C45 1.247 . S
O55 Co42 2.244 . S
O55 C45 1.272 . S
O55 Co47 2.135 . S
H56 C62 0.930 . S
H57 C66 0.930 . S
H58 C71 0.929 . S
H59 C69 0.929 . S
H60 C64 0.929 . S
H61 C70 0.929 . S
C62 H56 0.930 . S
C62 C63 1.367 . S
C62 C70 1.378 . S
C63 C62 1.367 . S
C63 C71 1.433 . S
C64 H60 0.929 . S
C64 C66 1.378 . S
C64 C68 1.350 . S
C65 C68 1.463 1_565 S
C65 C70 1.350 . S
C65 N73 1.427 . S
C66 H57 0.930 . S
C66 C64 1.378 . S
C66 C67 1.367 . S
C67 C66 1.367 . S
C67 C69 1.433 . S
C68 C64 1.350 . S
C68 C65 1.463 1_545 S
C68 N72 1.427 . S
C69 H59 0.929 . S
C69 C67 1.433 . S
C69 N72 1.384 . S
C70 H61 0.929 . S
C70 C62 1.378 . S
C70 C65 1.350 . S
C71 H58 0.929 . S
C71 C63 1.433 . S
C71 N73 1.384 . S
N72 C68 1.427 . S
N72 C69 1.384 . S
N73 C65 1.427 . S
N73 C71 1.384 . S
H74 C80 0.930 . S
H75 C84 0.930 . S
H76 C89 0.929 . S
H77 C87 0.929 . S
H78 C82 0.929 . S
H79 C88 0.929 . S
C80 H74 0.930 . S
C80 C81 1.367 . S
C80 C88 1.378 . S
C81 C80 1.367 . S
C81 C89 1.433 . S
C82 H78 0.929 . S
C82 C84 1.378 . S
C82 C86 1.350 . S
C83 C86 1.463 . S
C83 C88 1.350 . S
C83 N91 1.427 . S
C84 H75 0.930 . S
C84 C82 1.378 . S
C84 C85 1.367 . S
C85 C84 1.367 . S
C85 C87 1.433 . S
C86 C82 1.350 . S
C86 C83 1.463 . S
C86 N90 1.427 . S
C87 H77 0.929 . S
C87 C85 1.433 . S
C87 N90 1.384 . S
C88 H79 0.929 . S
C88 C80 1.378 . S
C88 C83 1.350 . S
C89 H76 0.929 . S
C89 C81 1.433 . S
C89 N91 1.384 . S
N90 C86 1.427 . S
N90 C87 1.384 . S
N91 C83 1.427 . S
N91 C89 1.384 . S
H92 C98 0.930 . S
H93 C102 0.930 . S
H94 C107 0.929 . S
H95 C105 0.929 . S
H96 C100 0.929 . S
H97 C106 0.929 . S
C98 H92 0.930 . S
C98 C99 1.367 . S
C98 C106 1.378 1_545 S
C99 C98 1.367 . S
C99 C107 1.433 . S
C100 H96 0.929 . S
C100 C102 1.378 1_545 S
C100 C104 1.350 1_545 S
C101 C104 1.463 1_545 S
C101 C106 1.350 1_545 S
C101 N109 1.427 . S
C102 H93 0.930 . S
C102 C100 1.378 1_565 S
C102 C103 1.367 . S
C103 C102 1.367 . S
C103 C105 1.433 . S
C104 C100 1.350 1_565 S
C104 C101 1.463 1_565 S
C104 N108 1.427 . S
C105 H95 0.929 . S
C105 C103 1.433 . S
C105 N108 1.384 . S
C106 H97 0.929 . S
C106 C98 1.378 1_565 S
C106 C101 1.350 1_565 S
C107 H94 0.929 . S
C107 C99 1.433 . S
C107 N109 1.384 . S
N108 C104 1.427 . S
N108 C105 1.384 . S
N109 C101 1.427 . S
N109 C107 1.384 . S
H110 C116 0.930 . S
H111 C120 0.930 . S
H112 C125 0.929 . S
H113 C123 0.929 . S
H114 C118 0.929 . S
H115 C124 0.929 . S
C116 H110 0.930 . S
C116 C117 1.367 . S
C116 C124 1.378 . S
C117 C116 1.367 . S
C117 C125 1.433 . S
C118 H114 0.929 . S
C118 C120 1.378 . S
C118 C122 1.350 . S
C119 C122 1.463 . S
C119 C124 1.350 . S
C119 N127 1.427 . S
C120 H111 0.930 . S
C120 C118 1.378 . S
C120 C121 1.367 . S
C121 C120 1.367 . S
C121 C123 1.433 . S
C122 C118 1.350 . S
C122 C119 1.463 . S
C122 N126 1.427 . S
C123 H113 0.929 . S
C123 C121 1.433 . S
C123 N126 1.384 . S
C124 H115 0.929 . S
C124 C116 1.378 . S
C124 C119 1.350 . S
C125 H112 0.929 . S
C125 C117 1.433 . S
C125 N127 1.384 . S
N126 C122 1.427 . S
N126 C123 1.384 . S
N127 C119 1.427 . S
N127 C125 1.384 . S
H128 C134 0.930 . S
H129 C138 0.930 . S
H130 C143 0.929 . S
H131 C141 0.929 . S
H132 C136 0.929 . S
H133 C142 0.929 . S
C134 H128 0.930 . S
C134 C135 1.367 1_556 S
C134 C142 1.378 . S
C135 C134 1.367 1_554 S
C135 C143 1.433 . S
C136 H132 0.929 . S
C136 C138 1.378 . S
C136 C140 1.350 1_554 S
C137 C140 1.463 1_444 S
C137 C142 1.350 1_554 S
C137 N145 1.427 . S
C138 H129 0.930 . S
C138 C136 1.378 . S
C138 C139 1.367 1_554 S
C139 C138 1.367 1_556 S
C139 C141 1.433 . S
C140 C136 1.350 1_556 S
C140 C137 1.463 1_666 S
C140 N144 1.427 . S
C141 H131 0.929 . S
C141 C139 1.433 . S
C141 N144 1.384 . S
C142 H133 0.929 . S
C142 C134 1.378 . S
C142 C137 1.350 1_556 S
C143 H130 0.929 . S
C143 C135 1.433 . S
C143 N145 1.384 . S
N144 C140 1.427 . S
N144 C141 1.384 . S
N145 C137 1.427 . S
N145 C143 1.384 . S
H146 C152 0.930 . S
H147 C156 0.930 . S
H148 C161 0.929 . S
H149 C159 0.929 . S
H150 C154 0.929 . S
H151 C160 0.929 . S
C152 H146 0.930 . S
C152 C153 1.367 . S
C152 C160 1.378 . S
C153 C152 1.367 . S
C153 C161 1.433 . S
C154 H150 0.929 . S
C154 C156 1.378 . S
C154 C158 1.350 . S
C155 C158 1.463 1_546 S
C155 C160 1.350 . S
C155 N163 1.427 . S
C156 H147 0.930 . S
C156 C154 1.378 . S
C156 C157 1.367 . S
C157 C156 1.367 . S
C157 C159 1.433 . S
C158 C154 1.350 . S
C158 C155 1.463 1_564 S
C158 N162 1.427 . S
C159 H149 0.929 . S
C159 C157 1.433 . S
C159 N162 1.384 . S
C160 H151 0.929 . S
C160 C152 1.378 . S
C160 C155 1.350 . S
C161 H148 0.929 . S
C161 C153 1.433 . S
C161 N163 1.384 . S
N162 C158 1.427 . S
N162 C159 1.384 . S
N163 C155 1.427 . S
N163 C161 1.384 . S
H164 C170 0.930 . S
H165 C174 0.930 . S
H166 C179 0.929 . S
H167 C177 0.929 . S
H168 C172 0.929 . S
H169 C178 0.929 . S
C170 H164 0.930 . S
C170 C171 1.367 . S
C170 C178 1.378 . S
C171 C170 1.367 . S
C171 C179 1.433 . S
C172 H168 0.929 . S
C172 C174 1.378 . S
C172 C176 1.350 . S
C173 C176 1.463 1_655 S
C173 C178 1.350 . S
C173 N181 1.427 . S
C174 H165 0.930 . S
C174 C172 1.378 . S
C174 C175 1.367 . S
C175 C174 1.367 . S
C175 C177 1.433 . S
C176 C172 1.350 . S
C176 C173 1.463 1_455 S
C176 N180 1.427 . S
C177 H167 0.929 . S
C177 C175 1.433 . S
C177 N180 1.384 . S
C178 H169 0.929 . S
C178 C170 1.378 . S
C178 C173 1.350 . S
C179 H166 0.929 . S
C179 C171 1.433 . S
C179 N181 1.384 . S
N180 C176 1.427 . S
N180 C177 1.384 . S
N181 C173 1.427 . S
N181 C179 1.384 . S
H182 C188 0.930 . S
H183 C192 0.930 . S
H184 C197 0.929 . S
H185 C195 0.929 . S
H186 C190 0.929 . S
H187 C196 0.929 . S
C188 H182 0.930 . S
C188 C189 1.367 . S
C188 C196 1.378 . S
C189 C188 1.367 . S
C189 C197 1.433 . S
C190 H186 0.929 . S
C190 C192 1.378 . S
C190 C194 1.350 . S
C191 C194 1.463 . S
C191 C196 1.350 . S
C191 N199 1.427 . S
C192 H183 0.930 . S
C192 C190 1.378 . S
C192 C193 1.367 . S
C193 C192 1.367 . S
C193 C195 1.433 . S
C194 C190 1.350 . S
C194 C191 1.463 . S
C194 N198 1.427 . S
C195 H185 0.929 . S
C195 C193 1.433 . S
C195 N198 1.384 . S
C196 H187 0.929 . S
C196 C188 1.378 . S
C196 C191 1.350 . S
C197 H184 0.929 . S
C197 C189 1.433 . S
C197 N199 1.384 . S
N198 C194 1.427 . S
N198 C195 1.384 . S
N199 C191 1.427 . S
N199 C197 1.384 . S
C63 C23 1.074 . S
C67 C9 1.057 . S
C81 C7 0.978 . S
C85 C21 0.974 . S
C99 C51 1.069 . S
C103 C37 1.070 . S
C117 C35 0.968 . S
C121 C49 0.965 . S
C135 C3 1.529 . S
C139 C31 1.529 . S
C153 C45 1.527 . S
C157 C17 1.527 . S
C171 C36 1.544 . S
C175 C8 1.544 . S
C189 C22 1.545 . S
C193 C50 1.545 . S
