# Generated by pormake.
# Topology pcu, (6)-cn, num edge types: 1
# Building blocks:
#     Node 0, Type 0, BuildingBlock: VOLQOD_clean_sbu_1, # of connection points: 6
#     Edge 1, Type (0, 0), BuildingBlock: UVAHIK_clean_linker_0, # of connection points: 2
#     Edge 2, Type (0, 0), BuildingBlock: UVAHIK_clean_linker_0, # of connection points: 2
#     Edge 3, Type (0, 0), BuildingBlock: UVAHIK_clean_linker_0, # of connection points: 2
# Relax obj value: 0.082
# Max RMSD: 0.143
# Mean RMSD: 0.143
data_MOF--net-pcu--node1-VOLQOD_clean_sbu_1--edge1-UVAHIK_clean_linker_0
_symmetry_space_group_name_H-M    P1
_symmetry_Int_Tables_number       1
_symmetry_cell_setting            triclinic
loop_
_symmetry_equiv_pos_as_xyz
'x, y, z'
_cell_length_a     21.815332
_cell_length_b     21.749023
_cell_length_c     21.811098
_cell_angle_alpha  91.097423
_cell_angle_beta   90.59046
_cell_angle_gamma 90.933116
loop_
_atom_site_label
_atom_site_type_symbol
_atom_site_fract_x
_atom_site_fract_y
_atom_site_fract_z
_atom_type_partial_charge
O0 O 0.0183 0.01249 0.13264 0.0
Zn1 Zn 0.03479 0.02948 0.04364 0.0
O2 O 0.97984 0.98023 0.99 0.0
Zn3 Zn 0.02889 0.92757 0.93682 0.0
Zn4 Zn 0.92548 0.92904 0.03919 0.0
Zn5 Zn 0.93021 0.03455 0.94005 0.0
O6 O 0.00824 0.94054 0.84777 0.0
O7 O 0.94633 0.02059 0.85009 0.0
O8 O 0.12363 0.01311 0.0258 0.0
O9 O 0.11889 0.94595 0.948 0.0
O10 O 0.01621 0.83822 0.95639 0.0
O11 O 0.94168 0.83907 0.02505 0.0
O12 O 0.83655 0.94348 0.01925 0.0
O13 O 0.02237 0.11994 0.03155 0.0
O14 O 0.8401 0.01855 0.95191 0.0
O15 O 0.94737 0.12354 0.96205 0.0
C16 C 0.9781 0.97985 0.15957 0.0
C17 C 0.97648 0.98044 0.82028 0.0
C18 C 0.97971 0.81012 -0.00814 0.0
C19 C 0.14988 0.97983 0.98555 0.0
C20 C 0.80969 -0.01918 0.98408 0.0
C21 C -0.01436 0.1503 -0.00147 0.0
O22 O 0.93912 0.94696 0.12923 0.0
C23 C 0.93205 0.94517 0.25828 0.0
C24 C 0.97644 0.98022 0.2275 0.0
C25 C 0.93044 0.94547 0.3223 0.0
C26 C 0.96195 0.92576 0.45653 0.0
H27 H -0.01197 0.07867 0.54823 0.0
C28 C 0.00405 0.93395 0.71829 0.0
C29 C 0.97462 0.98022 0.75233 0.0
C30 C 0.00251 0.93388 0.65424 0.0
C31 C 0.9802 0.03567 0.52327 0.0
H32 H 0.05401 0.04309 0.24021 0.0
H33 H 0.0515 0.04315 0.35184 0.0
H34 H -0.01231 0.07912 0.43639 0.0
H35 H 0.92025 0.06262 0.74548 0.0
H36 H 0.91755 0.06222 0.63373 0.0
H37 H 0.95379 0.88243 0.54342 0.0
C38 C 0.01745 0.016 0.32635 0.0
C39 C -0.01931 0.03583 0.45922 0.0
C40 C 0.01912 0.01568 0.26232 0.0
C41 C 0.94354 0.02631 0.72076 0.0
C42 C 0.94222 0.02634 0.65669 0.0
C43 C 0.96165 0.92557 0.52057 0.0
C44 C 0.97314 -0.01913 0.35706 0.0
C45 C 0.97175 -0.01915 0.42513 0.0
C46 C 0.97174 0.98015 0.62272 0.0
C47 C 0.97095 0.9805 0.55466 0.0
H48 H 0.89828 0.91747 0.23296 0.0
H49 H 0.89528 0.91851 0.34458 0.0
H50 H 0.95545 0.88255 0.43161 0.0
H51 H 0.02843 0.89776 0.74103 0.0
H52 H 0.02631 0.89804 0.62936 0.0
C53 C 0.24763 0.94321 0.93879 0.0
C54 C 0.21767 -0.01933 0.98198 0.0
C55 C 0.31155 0.94378 0.9355 0.0
C56 C 0.44902 0.037 0.97742 0.0
H57 H 0.53313 0.88185 0.96166 0.0
C58 C 0.70712 0.93661 0.01232 0.0
C59 C 0.74183 0.98039 0.9804 0.0
C60 C 0.64314 0.93643 0.00907 0.0
C61 C 0.51029 0.92551 0.96628 0.0
H62 H 0.23168 0.04844 0.05534 0.0
H63 H 0.34318 0.04903 0.04986 0.0
H64 H 0.42134 0.88254 0.96316 0.0
H65 H 0.73627 0.05807 0.91959 0.0
H66 H 0.62462 0.05753 0.91399 0.0
H67 H 0.53801 0.07985 0.98188 0.0
C68 C 0.31709 0.01967 0.01811 0.0
C69 C 0.44627 0.92598 0.96649 0.0
C70 C 0.25317 0.01902 0.02153 0.0
C71 C 0.71101 0.02378 0.94494 0.0
C72 C 0.647 0.02372 0.9419 0.0
C73 C 0.51304 0.03655 0.97698 0.0
C74 C 0.34699 -0.01806 0.9752 0.0
C75 C 0.41494 -0.01832 0.97261 0.0
C76 C 0.61238 0.98011 0.97403 0.0
C77 C 0.54438 -0.01924 0.97195 0.0
H78 H 0.22175 0.91325 0.90741 0.0
H79 H 0.33321 0.9147 0.90149 0.0
H80 H 0.42617 0.08071 0.98149 0.0
H81 H 0.7293 0.90252 0.04003 0.0
H82 H 0.6177 0.90269 0.03495 0.0
C83 C 0.03736 0.71203 0.9833 0.0
C84 C -0.01746 0.74255 -0.00424 0.0
C85 C 0.04055 0.64824 0.98841 0.0
C86 C 0.95509 0.51253 0.05031 0.0
H87 H 0.05884 0.42208 0.9382 0.0
C88 C 0.93442 0.25175 0.98992 0.0
C89 C -0.01269 0.2181 0.00281 0.0
C90 C 0.93591 0.31591 -0.00599 0.0
C91 C 0.03009 0.44701 0.97 0.0
H92 H 0.88783 0.73042 0.02248 0.0
H93 H 0.89209 0.619 0.02802 0.0
H94 H 0.05661 0.53392 0.93418 0.0
H95 H 0.08324 0.22499 0.02964 0.0
H96 H 0.08622 0.33777 0.03433 0.0
H97 H 0.92623 0.42442 0.08328 0.0
C98 C 0.93355 0.64412 0.0167 0.0
C99 C 0.02899 0.51113 0.96814 0.0
C100 C 0.93081 0.70807 0.01297 0.0
C101 C 0.04178 0.24981 0.01964 0.0
C102 C 0.04359 0.31409 0.02223 0.0
C103 C 0.9552 0.44831 0.05111 0.0
C104 C -0.01146 0.61324 0.00471 0.0
C105 C -0.00876 0.54488 0.0081 0.0
C106 C -0.00939 0.34746 0.00961 0.0
C107 C -0.00744 0.41522 0.01085 0.0
H108 H 0.07822 0.73762 0.97074 0.0
H109 H 0.0841 0.62661 0.98015 0.0
H110 H 0.92659 0.53663 0.08287 0.0
H111 H 0.89176 0.22845 0.97722 0.0
H112 H 0.89464 0.34102 0.98384 0.0
loop_
_geom_bond_atom_site_label_1
_geom_bond_atom_site_label_2
_geom_bond_distance
_geom_bond_site_symmetry_2
_ccdc_geom_bond_type
O0 Zn1 1.953 . S
O0 C16 1.225 . S
Zn1 O0 1.953 . S
Zn1 O2 1.941 1_454 S
Zn1 O8 1.919 . S
Zn1 O13 1.924 . S
O2 Zn1 1.941 1_656 S
O2 Zn3 1.931 1_645 S
O2 Zn4 1.942 1_546 S
O2 Zn5 1.953 . S
Zn3 O2 1.931 1_465 S
Zn3 O6 1.933 . S
Zn3 O9 1.941 . S
Zn3 O10 1.965 . S
Zn4 O2 1.942 1_564 S
Zn4 O11 1.938 . S
Zn4 O12 1.906 . S
Zn4 O22 1.953 . S
Zn5 O2 1.953 . S
Zn5 O7 1.932 . S
Zn5 O14 1.977 . S
Zn5 O15 1.910 . S
O6 Zn3 1.933 . S
O6 C17 1.230 . S
O7 Zn5 1.932 . S
O7 C17 1.303 1_645 S
O8 Zn1 1.919 . S
O8 C19 1.253 1_544 S
O9 Zn3 1.941 . S
O9 C19 1.283 . S
O10 Zn3 1.965 . S
O10 C18 1.303 1_456 S
O11 Zn4 1.938 . S
O11 C18 1.247 . S
O12 Zn4 1.906 . S
O12 C20 1.304 1_564 S
O13 Zn1 1.924 . S
O13 C21 1.311 . S
O14 Zn5 1.977 . S
O14 C20 1.272 . S
O15 Zn5 1.910 . S
O15 C21 1.231 1_656 S
C16 O0 1.225 . S
C16 O22 1.298 1_445 S
C17 O6 1.230 . S
C17 O7 1.303 1_465 S
C18 O10 1.303 1_654 S
C18 O11 1.247 . S
C19 O8 1.253 1_566 S
C19 O9 1.283 . S
C20 O12 1.304 1_546 S
C20 O14 1.272 . S
C21 O13 1.311 . S
C21 O15 1.231 1_454 S
O22 Zn4 1.953 . S
O22 C16 1.298 1_665 S
C23 C24 1.349 1_655 S
C23 C25 1.327 . S
C23 H48 0.950 . S
C24 C23 1.349 1_455 S
C24 C40 1.349 1_545 S
C25 C23 1.327 . S
C25 C44 1.429 1_655 S
C25 H49 0.950 . S
C26 C43 1.574 . S
C26 C45 1.368 1_565 S
C26 H50 0.949 . S
H27 C31 0.949 . S
C28 C29 1.349 1_565 S
C28 C30 1.327 . S
C28 H51 0.950 . S
C29 C28 1.349 1_545 S
C29 C41 1.349 1_455 S
C30 C28 1.327 . S
C30 C46 1.429 1_565 S
C30 H52 0.950 . S
C31 H27 0.949 . S
C31 C39 1.574 . S
C31 C47 1.368 1_655 S
H32 C40 0.950 . S
H33 C38 0.950 . S
H34 C39 0.949 . S
H35 C41 0.950 . S
H36 C42 0.950 . S
H37 C43 0.949 . S
C38 H33 0.950 . S
C38 C40 1.327 . S
C38 C44 1.429 1_565 S
C39 C31 1.574 . S
C39 H34 0.949 . S
C39 C45 1.368 1_655 S
C40 C24 1.349 1_565 S
C40 H32 0.950 . S
C40 C38 1.327 . S
C41 C29 1.349 1_655 S
C41 H35 0.950 . S
C41 C42 1.327 . S
C42 H36 0.950 . S
C42 C41 1.327 . S
C42 C46 1.429 1_655 S
C43 C26 1.574 . S
C43 H37 0.949 . S
C43 C47 1.368 1_565 S
C44 C25 1.429 1_455 S
C44 C38 1.429 1_545 S
C44 C45 1.523 . S
C45 C26 1.368 1_545 S
C45 C39 1.368 1_455 S
C45 C44 1.523 . S
C46 C30 1.429 1_545 S
C46 C42 1.429 1_455 S
C46 C47 1.523 . S
C47 C31 1.368 1_455 S
C47 C43 1.368 1_545 S
C47 C46 1.523 . S
H48 C23 0.950 . S
H49 C25 0.950 . S
H50 C26 0.949 . S
H51 C28 0.950 . S
H52 C30 0.950 . S
C53 C54 1.349 1_545 S
C53 C55 1.327 . S
C53 H78 0.950 . S
C54 C53 1.349 1_565 S
C54 C70 1.349 1_556 S
C55 C53 1.327 . S
C55 C74 1.429 1_545 S
C55 H79 0.950 . S
C56 C73 1.574 . S
C56 C75 1.368 1_554 S
C56 H80 0.949 . S
H57 C61 0.949 . S
C58 C59 1.349 1_554 S
C58 C60 1.327 . S
C58 H81 0.950 . S
C59 C58 1.349 1_556 S
C59 C71 1.349 1_565 S
C60 C58 1.327 . S
C60 C76 1.429 1_554 S
C60 H82 0.950 . S
C61 H57 0.949 . S
C61 C69 1.574 . S
C61 C77 1.368 1_545 S
H62 C70 0.950 . S
H63 C68 0.950 . S
H64 C69 0.949 . S
H65 C71 0.950 . S
H66 C72 0.950 . S
H67 C73 0.949 . S
C68 H63 0.950 . S
C68 C70 1.327 . S
C68 C74 1.429 1_554 S
C69 C61 1.574 . S
C69 H64 0.949 . S
C69 C75 1.368 1_545 S
C70 C54 1.349 1_554 S
C70 H62 0.950 . S
C70 C68 1.327 . S
C71 C59 1.349 1_545 S
C71 H65 0.950 . S
C71 C72 1.327 . S
C72 H66 0.950 . S
C72 C71 1.327 . S
C72 C76 1.429 1_545 S
C73 C56 1.574 . S
C73 H67 0.949 . S
C73 C77 1.368 1_554 S
C74 C55 1.429 1_565 S
C74 C68 1.429 1_556 S
C74 C75 1.523 . S
C75 C56 1.368 1_556 S
C75 C69 1.368 1_565 S
C75 C74 1.523 . S
C76 C60 1.429 1_556 S
C76 C72 1.429 1_565 S
C76 C77 1.523 . S
C77 C61 1.368 1_565 S
C77 C73 1.368 1_556 S
C77 C76 1.523 . S
H78 C53 0.950 . S
H79 C55 0.950 . S
H80 C56 0.949 . S
H81 C58 0.950 . S
H82 C60 0.950 . S
C83 C84 1.349 1_556 S
C83 C85 1.327 . S
C83 H108 0.950 . S
C84 C83 1.349 1_554 S
C84 C100 1.349 1_455 S
C85 C83 1.327 . S
C85 C104 1.429 1_556 S
C85 H109 0.950 . S
C86 C103 1.574 . S
C86 C105 1.368 1_655 S
C86 H110 0.949 . S
H87 C91 0.949 . S
C88 C89 1.349 1_655 S
C88 C90 1.327 . S
C88 H111 0.950 . S
C89 C88 1.349 1_455 S
C89 C101 1.349 1_554 S
C90 C88 1.327 . S
C90 C106 1.429 1_655 S
C90 H112 0.950 . S
C91 H87 0.949 . S
C91 C99 1.574 . S
C91 C107 1.368 1_556 S
H92 C100 0.950 . S
H93 C98 0.950 . S
H94 C99 0.949 . S
H95 C101 0.950 . S
H96 C102 0.950 . S
H97 C103 0.949 . S
C98 H93 0.950 . S
C98 C100 1.327 . S
C98 C104 1.429 1_655 S
C99 C91 1.574 . S
C99 H94 0.949 . S
C99 C105 1.368 1_556 S
C100 C84 1.349 1_655 S
C100 H92 0.950 . S
C100 C98 1.327 . S
C101 C89 1.349 1_556 S
C101 H95 0.950 . S
C101 C102 1.327 . S
C102 H96 0.950 . S
C102 C101 1.327 . S
C102 C106 1.429 1_556 S
C103 C86 1.574 . S
C103 H97 0.949 . S
C103 C107 1.368 1_655 S
C104 C85 1.429 1_554 S
C104 C98 1.429 1_455 S
C104 C105 1.523 . S
C105 C86 1.368 1_455 S
C105 C99 1.368 1_554 S
C105 C104 1.523 . S
C106 C90 1.429 1_455 S
C106 C102 1.429 1_554 S
C106 C107 1.523 . S
C107 C91 1.368 1_554 S
C107 C103 1.368 1_455 S
C107 C106 1.523 . S
H108 C83 0.950 . S
H109 C85 0.950 . S
H110 C86 0.949 . S
H111 C88 0.950 . S
H112 C90 0.950 . S
C24 C16 1.499 . S
C29 C17 1.499 1_545 S
C54 C19 1.417 . S
C59 C20 1.427 1_565 S
C84 C18 1.412 1_455 S
C89 C21 1.418 . S
