# Generated by pormake.
# Topology hjm, (4)-cn, num edge types: 1
# Building blocks:
#     Node 0, Type 0, BuildingBlock: GALJAG_clean_sbu_0, # of connection points: 4
#     Node 1, Type 0, BuildingBlock: GALJAG_clean_sbu_0, # of connection points: 4
#     Node 2, Type 0, BuildingBlock: GALJAG_clean_sbu_0, # of connection points: 4
#     Node 3, Type 0, BuildingBlock: GALJAG_clean_sbu_0, # of connection points: 4
#     Node 4, Type 0, BuildingBlock: GALJAG_clean_sbu_0, # of connection points: 4
#     Node 5, Type 0, BuildingBlock: GALJAG_clean_sbu_0, # of connection points: 4
#     Node 6, Type 0, BuildingBlock: GALJAG_clean_sbu_0, # of connection points: 4
#     Node 7, Type 0, BuildingBlock: GALJAG_clean_sbu_0, # of connection points: 4
#     Edge 8, Type (0, 0), BuildingBlock: EYOCIG_clean_linker_4, # of connection points: 2
#     Edge 9, Type (0, 0), BuildingBlock: EYOCIG_clean_linker_4, # of connection points: 2
#     Edge 10, Type (0, 0), BuildingBlock: EYOCIG_clean_linker_4, # of connection points: 2
#     Edge 11, Type (0, 0), BuildingBlock: EYOCIG_clean_linker_4, # of connection points: 2
#     Edge 12, Type (0, 0), BuildingBlock: EYOCIG_clean_linker_4, # of connection points: 2
#     Edge 13, Type (0, 0), BuildingBlock: EYOCIG_clean_linker_4, # of connection points: 2
#     Edge 14, Type (0, 0), BuildingBlock: EYOCIG_clean_linker_4, # of connection points: 2
#     Edge 15, Type (0, 0), BuildingBlock: EYOCIG_clean_linker_4, # of connection points: 2
#     Edge 16, Type (0, 0), BuildingBlock: EYOCIG_clean_linker_4, # of connection points: 2
#     Edge 17, Type (0, 0), BuildingBlock: EYOCIG_clean_linker_4, # of connection points: 2
#     Edge 18, Type (0, 0), BuildingBlock: EYOCIG_clean_linker_4, # of connection points: 2
#     Edge 19, Type (0, 0), BuildingBlock: EYOCIG_clean_linker_4, # of connection points: 2
#     Edge 20, Type (0, 0), BuildingBlock: EYOCIG_clean_linker_4, # of connection points: 2
#     Edge 21, Type (0, 0), BuildingBlock: EYOCIG_clean_linker_4, # of connection points: 2
#     Edge 22, Type (0, 0), BuildingBlock: EYOCIG_clean_linker_4, # of connection points: 2
#     Edge 23, Type (0, 0), BuildingBlock: EYOCIG_clean_linker_4, # of connection points: 2
# Relax obj value: 0.069
# Max RMSD: 0.136
# Mean RMSD: 0.136
data_MOF--net-hjm--node1-GALJAG_clean_sbu_0--edge1-EYOCIG_clean_linker_4
_symmetry_space_group_name_H-M    P1
_symmetry_Int_Tables_number       1
_symmetry_cell_setting            triclinic
loop_
_symmetry_equiv_pos_as_xyz
'x, y, z'
_cell_length_a     20.501474
_cell_length_b     17.52177
_cell_length_c     20.61737
_cell_angle_alpha  90.060536
_cell_angle_beta   64.742475
_cell_angle_gamma 90.049954
loop_
_atom_site_label
_atom_site_type_symbol
_atom_site_fract_x
_atom_site_fract_y
_atom_site_fract_z
_atom_type_partial_charge
In0 In 0.1782 0.2314 0.3216 0.0
O1 O 0.09824 0.32813 0.34767 0.0
O2 O 0.14197 0.3039 0.42273 0.0
C3 C 0.19995 0.22066 0.18351 0.0
C4 C 0.09686 0.11329 0.39945 0.0
C5 C 0.31492 0.26212 0.29918 0.0
O6 O 0.169 0.27677 0.22252 0.0
O7 O 0.21813 0.16804 0.21409 0.0
O8 O 0.28701 0.19703 0.31794 0.0
O9 O 0.27416 0.31227 0.29276 0.0
C10 C 0.10003 0.34383 0.40646 0.0
O11 O 0.15908 0.12702 0.39465 0.0
O12 O 0.07624 0.1569 0.36338 0.0
In13 In 0.80125 0.23186 0.19568 0.0
O14 O 0.88121 0.32867 0.16914 0.0
O15 O 0.83824 0.30301 0.09371 0.0
C16 C 0.78057 0.22288 0.3334 0.0
C17 C 0.88203 0.11285 0.119 0.0
C18 C 0.66414 0.26228 0.2193 0.0
O19 O 0.81161 0.27853 0.29378 0.0
O20 O 0.76172 0.16989 0.30362 0.0
O21 O 0.69179 0.19702 0.20105 0.0
O22 O 0.70537 0.31276 0.22446 0.0
C23 C 0.87998 0.34342 0.10997 0.0
O24 O 0.82045 0.12741 0.1225 0.0
O25 O 0.90224 0.15613 0.15571 0.0
In26 In 0.80102 0.72476 0.69561 0.0
O27 O 0.88001 0.62729 0.67108 0.0
O28 O 0.83785 0.65159 0.5948 0.0
C29 C 0.77791 0.73446 0.83411 0.0
C30 C 0.88339 0.84268 0.61837 0.0
C31 C 0.66443 0.6956 0.71672 0.0
O32 O 0.80944 0.67875 0.79482 0.0
O33 O 0.75981 0.78726 0.80363 0.0
O34 O 0.69278 0.7606 0.69868 0.0
O35 O 0.7047 0.64481 0.72302 0.0
C36 C 0.87884 0.61129 0.61209 0.0
O37 O 0.82183 0.82858 0.62159 0.0
O38 O 0.90289 0.79945 0.65558 0.0
In39 In 0.17769 0.72496 0.82114 0.0
O40 O 0.15743 0.82809 0.89607 0.0
O41 O 0.07556 0.79909 0.86306 0.0
C42 C 0.315 0.69552 0.797 0.0
C43 C 0.10129 0.61064 0.90433 0.0
C44 C 0.19919 0.73668 0.6833 0.0
O45 O 0.28656 0.76019 0.81693 0.0
O46 O 0.27444 0.64512 0.79045 0.0
O47 O 0.1678 0.68062 0.72208 0.0
O48 O 0.21776 0.78891 0.71408 0.0
C49 C 0.0955 0.84202 0.90022 0.0
O50 O 0.09873 0.62734 0.84613 0.0
O51 O 0.143 0.65067 0.92096 0.0
In52 In 0.67718 0.73168 0.32156 0.0
O53 O 0.5984 0.82941 0.34719 0.0
O54 O 0.64037 0.8033 0.42328 0.0
C55 C 0.6978 0.72098 0.18383 0.0
C56 C 0.59491 0.61412 0.39944 0.0
C57 C 0.81418 0.76173 0.29895 0.0
O58 O 0.66766 0.77738 0.22279 0.0
O59 O 0.71591 0.66812 0.21426 0.0
O60 O 0.78612 0.69667 0.31742 0.0
O61 O 0.77347 0.81215 0.29287 0.0
C62 C 0.59932 0.84414 0.40653 0.0
O63 O 0.6573 0.62709 0.39454 0.0
O64 O 0.5746 0.6582 0.36344 0.0
In65 In 0.30077 0.73235 0.19573 0.0
O66 O 0.38092 0.82882 0.17056 0.0
O67 O 0.33748 0.8056 0.09505 0.0
C68 C 0.28028 0.7225 0.33343 0.0
C69 C 0.38141 0.61403 0.11723 0.0
C70 C 0.16349 0.76246 0.2195 0.0
O71 O 0.31104 0.77839 0.29407 0.0
O72 O 0.26162 0.6696 0.30338 0.0
O73 O 0.19115 0.69716 0.20169 0.0
O74 O 0.20479 0.81315 0.2242 0.0
C75 C 0.37936 0.84515 0.11184 0.0
O76 O 0.31987 0.62921 0.12096 0.0
O77 O 0.4017 0.65634 0.15454 0.0
In78 In 0.30053 0.22485 0.69591 0.0
O79 O 0.37985 0.12765 0.6705 0.0
O80 O 0.33661 0.15177 0.59506 0.0
C81 C 0.2796 0.23445 0.83383 0.0
C82 C 0.38163 0.34333 0.61827 0.0
C83 C 0.16362 0.19487 0.71846 0.0
O84 O 0.31107 0.17899 0.79414 0.0
O85 O 0.26035 0.28701 0.80405 0.0
O86 O 0.1916 0.25999 0.70027 0.0
O87 O 0.20435 0.14435 0.72435 0.0
C88 C 0.37803 0.11156 0.61183 0.0
O89 O 0.31975 0.32899 0.62246 0.0
O90 O 0.40212 0.30002 0.65465 0.0
In91 In 0.6775 0.2254 0.82123 0.0
O92 O 0.59885 0.12735 0.84727 0.0
O93 O 0.64194 0.15344 0.92253 0.0
C94 C 0.69934 0.23637 0.68329 0.0
C95 C 0.59506 0.34323 0.89845 0.0
C96 C 0.81451 0.1952 0.79779 0.0
O97 O 0.66754 0.1806 0.72233 0.0
O98 O 0.71821 0.28858 0.71384 0.0
O99 O 0.78624 0.25994 0.81781 0.0
O100 O 0.77394 0.14514 0.79077 0.0
C101 C 0.60068 0.1124 0.90615 0.0
O102 O 0.65709 0.33006 0.8944 0.0
O103 O 0.57518 0.29914 0.86203 0.0
C104 C 0.01296 0.00625 0.48567 0.0
C105 C 0.05102 0.05516 0.44625 0.0
C106 C 0.968 0.94977 0.53289 0.0
C107 C 0.92976 0.90079 0.57203 0.0
C108 C 0.01099 0.9486 0.98666 0.0
C109 C 0.04934 0.89991 0.94715 0.0
C110 C 0.96589 0.00509 0.03379 0.0
C111 C 0.92782 0.05432 0.07274 0.0
C112 C 0.46521 0.45101 0.53273 0.0
C113 C 0.42728 0.40182 0.57183 0.0
C114 C 0.51021 0.50752 0.48557 0.0
C115 C 0.5486 0.55625 0.44618 0.0
C116 C 0.46497 0.5067 0.031 0.0
C117 C 0.42696 0.5557 0.07038 0.0
C118 C 0.51011 0.45022 0.98388 0.0
C119 C 0.54859 0.40131 0.9448 0.0
C120 C 0.96719 0.44774 0.0267 0.0
C121 C 0.9264 0.39958 0.06296 0.0
C122 C 0.01623 0.50374 0.98568 0.0
C123 C 0.05605 0.553 0.95022 0.0
C124 C 0.01359 0.44893 0.48939 0.0
C125 C 0.054 0.40047 0.45316 0.0
C126 C 0.96471 0.50496 0.53058 0.0
C127 C 0.92464 0.55396 0.56622 0.0
C128 C 0.51511 0.00674 0.98902 0.0
C129 C 0.55517 0.05552 0.95294 0.0
C130 C 0.46613 0.95073 0.03009 0.0
C131 C 0.42559 0.90208 0.06579 0.0
C132 C 0.5125 0.94895 0.48943 0.0
C133 C 0.55309 0.90056 0.45334 0.0
C134 C 0.4635 0.00502 0.53033 0.0
C135 C 0.4235 0.05415 0.56581 0.0
C136 C 0.24901 0.72675 0.47138 0.0
C137 C 0.26242 0.72286 0.40863 0.0
C138 C 0.23185 0.73363 0.54504 0.0
C139 C 0.21789 0.73713 0.60793 0.0
C140 C 0.74531 0.7305 0.97236 0.0
C141 C 0.75929 0.73431 0.90947 0.0
C142 C 0.72846 0.72387 0.04598 0.0
C143 C 0.71534 0.72052 0.10869 0.0
C144 C 0.74927 0.22708 0.47134 0.0
C145 C 0.76278 0.22345 0.40857 0.0
C146 C 0.73201 0.23346 0.54504 0.0
C147 C 0.71797 0.23667 0.60796 0.0
C148 C 0.23187 0.22373 0.04536 0.0
C149 C 0.2182 0.2203 0.1082 0.0
C150 C 0.24867 0.23035 0.97174 0.0
C151 C 0.26192 0.23409 0.90901 0.0
C152 C 0.45222 0.28378 0.26847 0.0
C153 C 0.38933 0.27653 0.28194 0.0
C154 C 0.52659 0.2838 0.25112 0.0
C155 C 0.58961 0.27665 0.23711 0.0
C156 C 0.52715 0.67495 0.74692 0.0
C157 C 0.59001 0.68195 0.73362 0.0
C158 C 0.45277 0.67487 0.76443 0.0
C159 C 0.38968 0.68177 0.77874 0.0
C160 C 0.02589 0.78355 0.25119 0.0
C161 C 0.08893 0.77668 0.23724 0.0
C162 C 0.95151 0.78324 0.26843 0.0
C163 C 0.88862 0.77595 0.28184 0.0
C164 C 0.02635 0.17364 0.74886 0.0
C165 C 0.08923 0.1807 0.7355 0.0
C166 C 0.95203 0.17377 0.76608 0.0
C167 C 0.88905 0.18103 0.77998 0.0
loop_
_geom_bond_atom_site_label_1
_geom_bond_atom_site_label_2
_geom_bond_distance
_geom_bond_site_symmetry_2
_ccdc_geom_bond_type
In0 O1 2.294 . S
In0 O2 2.326 . S
In0 O6 2.266 . S
In0 O7 2.326 . S
In0 O8 2.266 . S
In0 O9 2.326 . S
In0 O11 2.294 . S
In0 O12 2.326 . S
O1 In0 2.294 . S
O1 C10 1.240 . S
O2 In0 2.326 . S
O2 C10 1.252 . S
C3 O6 1.252 . S
C3 O7 1.260 . S
C4 O11 1.240 . S
C4 O12 1.252 . S
C5 O8 1.252 . S
C5 O9 1.260 . S
O6 In0 2.266 . S
O6 C3 1.252 . S
O7 In0 2.326 . S
O7 C3 1.260 . S
O8 In0 2.266 . S
O8 C5 1.252 . S
O9 In0 2.326 . S
O9 C5 1.260 . S
C10 O1 1.240 . S
C10 O2 1.252 . S
O11 In0 2.294 . S
O11 C4 1.240 . S
O12 In0 2.326 . S
O12 C4 1.252 . S
In13 O14 2.294 . S
In13 O15 2.326 . S
In13 O19 2.266 . S
In13 O20 2.326 . S
In13 O21 2.266 . S
In13 O22 2.326 . S
In13 O24 2.294 . S
In13 O25 2.326 . S
O14 In13 2.294 . S
O14 C23 1.240 . S
O15 In13 2.326 . S
O15 C23 1.252 . S
C16 O19 1.252 . S
C16 O20 1.260 . S
C17 O24 1.240 . S
C17 O25 1.252 . S
C18 O21 1.252 . S
C18 O22 1.260 . S
O19 In13 2.266 . S
O19 C16 1.252 . S
O20 In13 2.326 . S
O20 C16 1.260 . S
O21 In13 2.266 . S
O21 C18 1.252 . S
O22 In13 2.326 . S
O22 C18 1.260 . S
C23 O14 1.240 . S
C23 O15 1.252 . S
O24 In13 2.294 . S
O24 C17 1.240 . S
O25 In13 2.326 . S
O25 C17 1.252 . S
In26 O27 2.294 . S
In26 O28 2.326 . S
In26 O32 2.266 . S
In26 O33 2.326 . S
In26 O34 2.266 . S
In26 O35 2.326 . S
In26 O37 2.294 . S
In26 O38 2.326 . S
O27 In26 2.294 . S
O27 C36 1.240 . S
O28 In26 2.326 . S
O28 C36 1.252 . S
C29 O32 1.252 . S
C29 O33 1.260 . S
C30 O37 1.240 . S
C30 O38 1.252 . S
C31 O34 1.252 . S
C31 O35 1.260 . S
O32 In26 2.266 . S
O32 C29 1.252 . S
O33 In26 2.326 . S
O33 C29 1.260 . S
O34 In26 2.266 . S
O34 C31 1.252 . S
O35 In26 2.326 . S
O35 C31 1.260 . S
C36 O27 1.240 . S
C36 O28 1.252 . S
O37 In26 2.294 . S
O37 C30 1.240 . S
O38 In26 2.326 . S
O38 C30 1.252 . S
In39 O40 2.294 . S
In39 O41 2.326 . S
In39 O45 2.266 . S
In39 O46 2.326 . S
In39 O47 2.266 . S
In39 O48 2.326 . S
In39 O50 2.294 . S
In39 O51 2.326 . S
O40 In39 2.294 . S
O40 C49 1.240 . S
O41 In39 2.326 . S
O41 C49 1.252 . S
C42 O45 1.252 . S
C42 O46 1.260 . S
C43 O50 1.240 . S
C43 O51 1.252 . S
C44 O47 1.252 . S
C44 O48 1.260 . S
O45 In39 2.266 . S
O45 C42 1.252 . S
O46 In39 2.326 . S
O46 C42 1.260 . S
O47 In39 2.266 . S
O47 C44 1.252 . S
O48 In39 2.326 . S
O48 C44 1.260 . S
C49 O40 1.240 . S
C49 O41 1.252 . S
O50 In39 2.294 . S
O50 C43 1.240 . S
O51 In39 2.326 . S
O51 C43 1.252 . S
In52 O53 2.294 . S
In52 O54 2.326 . S
In52 O58 2.266 . S
In52 O59 2.326 . S
In52 O60 2.266 . S
In52 O61 2.326 . S
In52 O63 2.294 . S
In52 O64 2.326 . S
O53 In52 2.294 . S
O53 C62 1.240 . S
O54 In52 2.326 . S
O54 C62 1.252 . S
C55 O58 1.252 . S
C55 O59 1.260 . S
C56 O63 1.240 . S
C56 O64 1.252 . S
C57 O60 1.252 . S
C57 O61 1.260 . S
O58 In52 2.266 . S
O58 C55 1.252 . S
O59 In52 2.326 . S
O59 C55 1.260 . S
O60 In52 2.266 . S
O60 C57 1.252 . S
O61 In52 2.326 . S
O61 C57 1.260 . S
C62 O53 1.240 . S
C62 O54 1.252 . S
O63 In52 2.294 . S
O63 C56 1.240 . S
O64 In52 2.326 . S
O64 C56 1.252 . S
In65 O66 2.294 . S
In65 O67 2.326 . S
In65 O71 2.266 . S
In65 O72 2.326 . S
In65 O73 2.266 . S
In65 O74 2.326 . S
In65 O76 2.294 . S
In65 O77 2.326 . S
O66 In65 2.294 . S
O66 C75 1.240 . S
O67 In65 2.326 . S
O67 C75 1.252 . S
C68 O71 1.252 . S
C68 O72 1.260 . S
C69 O76 1.240 . S
C69 O77 1.252 . S
C70 O73 1.252 . S
C70 O74 1.260 . S
O71 In65 2.266 . S
O71 C68 1.252 . S
O72 In65 2.326 . S
O72 C68 1.260 . S
O73 In65 2.266 . S
O73 C70 1.252 . S
O74 In65 2.326 . S
O74 C70 1.260 . S
C75 O66 1.240 . S
C75 O67 1.252 . S
O76 In65 2.294 . S
O76 C69 1.240 . S
O77 In65 2.326 . S
O77 C69 1.252 . S
In78 O79 2.294 . S
In78 O80 2.326 . S
In78 O84 2.266 . S
In78 O85 2.326 . S
In78 O86 2.266 . S
In78 O87 2.326 . S
In78 O89 2.294 . S
In78 O90 2.326 . S
O79 In78 2.294 . S
O79 C88 1.240 . S
O80 In78 2.326 . S
O80 C88 1.252 . S
C81 O84 1.252 . S
C81 O85 1.260 . S
C82 O89 1.240 . S
C82 O90 1.252 . S
C83 O86 1.252 . S
C83 O87 1.260 . S
O84 In78 2.266 . S
O84 C81 1.252 . S
O85 In78 2.326 . S
O85 C81 1.260 . S
O86 In78 2.266 . S
O86 C83 1.252 . S
O87 In78 2.326 . S
O87 C83 1.260 . S
C88 O79 1.240 . S
C88 O80 1.252 . S
O89 In78 2.294 . S
O89 C82 1.240 . S
O90 In78 2.326 . S
O90 C82 1.252 . S
In91 O92 2.294 . S
In91 O93 2.326 . S
In91 O97 2.266 . S
In91 O98 2.326 . S
In91 O99 2.266 . S
In91 O100 2.326 . S
In91 O102 2.294 . S
In91 O103 2.326 . S
O92 In91 2.294 . S
O92 C101 1.240 . S
O93 In91 2.326 . S
O93 C101 1.252 . S
C94 O97 1.252 . S
C94 O98 1.260 . S
C95 O102 1.240 . S
C95 O103 1.252 . S
C96 O99 1.252 . S
C96 O100 1.260 . S
O97 In91 2.266 . S
O97 C94 1.252 . S
O98 In91 2.326 . S
O98 C94 1.260 . S
O99 In91 2.266 . S
O99 C96 1.252 . S
O100 In91 2.326 . S
O100 C96 1.260 . S
C101 O92 1.240 . S
C101 O93 1.252 . S
O102 In91 2.294 . S
O102 C95 1.240 . S
O103 In91 2.326 . S
O103 C95 1.252 . S
C104 C105 1.170 . S
C104 C106 1.380 1_445 S
C105 C104 1.170 . S
C106 C104 1.380 1_665 S
C106 C107 1.170 . S
C107 C106 1.170 . S
C108 C109 1.170 . S
C108 C110 1.380 1_466 S
C109 C108 1.170 . S
C110 C108 1.380 1_644 S
C110 C111 1.170 . S
C111 C110 1.170 . S
C112 C113 1.170 . S
C112 C114 1.380 . S
C113 C112 1.170 . S
C114 C112 1.380 . S
C114 C115 1.170 . S
C115 C114 1.170 . S
C116 C117 1.170 . S
C116 C118 1.380 1_554 S
C117 C116 1.170 . S
C118 C116 1.380 1_556 S
C118 C119 1.170 . S
C119 C118 1.170 . S
C120 C121 1.170 . S
C120 C122 1.380 1_654 S
C121 C120 1.170 . S
C122 C120 1.380 1_456 S
C122 C123 1.170 . S
C123 C122 1.170 . S
C124 C125 1.170 . S
C124 C126 1.380 1_455 S
C125 C124 1.170 . S
C126 C124 1.380 1_655 S
C126 C127 1.170 . S
C127 C126 1.170 . S
C128 C129 1.170 . S
C128 C130 1.380 1_546 S
C129 C128 1.170 . S
C130 C128 1.380 1_564 S
C130 C131 1.170 . S
C131 C130 1.170 . S
C132 C133 1.170 . S
C132 C134 1.380 1_565 S
C133 C132 1.170 . S
C134 C132 1.380 1_545 S
C134 C135 1.170 . S
C135 C134 1.170 . S
C136 C137 1.170 . S
C136 C138 1.380 . S
C137 C136 1.170 . S
C138 C136 1.380 . S
C138 C139 1.170 . S
C139 C138 1.170 . S
C140 C141 1.170 . S
C140 C142 1.380 1_556 S
C141 C140 1.170 . S
C142 C140 1.380 1_554 S
C142 C143 1.170 . S
C143 C142 1.170 . S
C144 C145 1.170 . S
C144 C146 1.380 . S
C145 C144 1.170 . S
C146 C144 1.380 . S
C146 C147 1.170 . S
C147 C146 1.170 . S
C148 C149 1.170 . S
C148 C150 1.380 1_554 S
C149 C148 1.170 . S
C150 C148 1.380 1_556 S
C150 C151 1.170 . S
C151 C150 1.170 . S
C152 C153 1.170 . S
C152 C154 1.380 . S
C153 C152 1.170 . S
C154 C152 1.380 . S
C154 C155 1.170 . S
C155 C154 1.170 . S
C156 C157 1.170 . S
C156 C158 1.380 . S
C157 C156 1.170 . S
C158 C156 1.380 . S
C158 C159 1.170 . S
C159 C158 1.170 . S
C160 C161 1.170 . S
C160 C162 1.380 1_455 S
C161 C160 1.170 . S
C162 C160 1.380 1_655 S
C162 C163 1.170 . S
C163 C162 1.170 . S
C164 C165 1.170 . S
C164 C166 1.380 1_455 S
C165 C164 1.170 . S
C166 C164 1.380 1_655 S
C166 C167 1.170 . S
C167 C166 1.170 . S
C105 C4 1.782 . S
C107 C30 1.801 . S
C109 C49 1.784 . S
C111 C17 1.794 . S
C113 C82 1.792 . S
C115 C56 1.797 . S
C117 C69 1.782 . S
C119 C95 1.801 . S
C121 C23 1.304 . S
C123 C43 1.321 . S
C125 C10 1.320 . S
C127 C36 1.307 . S
C129 C101 1.320 . S
C131 C75 1.295 . S
C133 C62 1.313 . S
C135 C88 1.315 . S
C137 C68 1.525 . S
C139 C44 1.534 . S
C141 C29 1.524 . S
C143 C55 1.534 . S
C145 C16 1.525 . S
C147 C94 1.533 . S
C149 C3 1.537 . S
C151 C81 1.528 . S
C153 C5 1.551 . S
C155 C18 1.554 . S
C157 C31 1.553 . S
C159 C42 1.549 . S
C161 C70 1.554 . S
C163 C57 1.552 . S
C165 C83 1.555 . S
C167 C96 1.553 . S
