# Generated by pormake.
# Topology ske, (6)-cn, num edge types: 1
# Building blocks:
#     Node 0, Type 0, BuildingBlock: JUFBIX_clean_sbu_0, # of connection points: 6
#     Node 1, Type 0, BuildingBlock: JUFBIX_clean_sbu_0, # of connection points: 6
#     Node 2, Type 0, BuildingBlock: JUFBIX_clean_sbu_0, # of connection points: 6
#     Node 3, Type 0, BuildingBlock: JUFBIX_clean_sbu_0, # of connection points: 6
#     Node 4, Type 0, BuildingBlock: JUFBIX_clean_sbu_0, # of connection points: 6
#     Node 5, Type 0, BuildingBlock: JUFBIX_clean_sbu_0, # of connection points: 6
#     Node 6, Type 0, BuildingBlock: JUFBIX_clean_sbu_0, # of connection points: 6
#     Node 7, Type 0, BuildingBlock: JUFBIX_clean_sbu_0, # of connection points: 6
#     Edge 8, Type (0, 0), None
#     Edge 9, Type (0, 0), None
#     Edge 10, Type (0, 0), None
#     Edge 11, Type (0, 0), None
#     Edge 12, Type (0, 0), None
#     Edge 13, Type (0, 0), None
#     Edge 14, Type (0, 0), None
#     Edge 15, Type (0, 0), None
#     Edge 16, Type (0, 0), None
#     Edge 17, Type (0, 0), None
#     Edge 18, Type (0, 0), None
#     Edge 19, Type (0, 0), None
#     Edge 20, Type (0, 0), None
#     Edge 21, Type (0, 0), None
#     Edge 22, Type (0, 0), None
#     Edge 23, Type (0, 0), None
#     Edge 24, Type (0, 0), None
#     Edge 25, Type (0, 0), None
#     Edge 26, Type (0, 0), None
#     Edge 27, Type (0, 0), None
#     Edge 28, Type (0, 0), None
#     Edge 29, Type (0, 0), None
#     Edge 30, Type (0, 0), None
#     Edge 31, Type (0, 0), None
# Relax obj value: 0.772
# Max RMSD: 0.188
# Mean RMSD: 0.171
data_MOF--net-ske--node1-JUFBIX_clean_sbu_0--edge1-none
_symmetry_space_group_name_H-M    P1
_symmetry_Int_Tables_number       1
_symmetry_cell_setting            triclinic
loop_
_symmetry_equiv_pos_as_xyz
'x, y, z'
_cell_length_a     32.489438
_cell_length_b     12.993806
_cell_length_c     7.4066756
_cell_angle_alpha  83.608173
_cell_angle_beta   92.223427
_cell_angle_gamma 93.114896
loop_
_atom_site_label
_atom_site_type_symbol
_atom_site_fract_x
_atom_site_fract_y
_atom_site_fract_z
_atom_type_partial_charge
Co0 Co 0.2154 0.21728 0.87331 0.0
C1 C 0.22806 0.4401 0.80508 0.0
Co2 Co 0.24915 0.27596 0.65805 0.0
C3 C 0.21843 0.24219 0.19521 0.0
C4 C 0.15612 0.24417 1.11695 0.0
N5 N 0.1906 0.19037 1.10396 0.0
N6 N 0.20859 0.34152 0.1932 0.0
C7 C 0.16768 0.34203 0.16224 0.0
H8 H 0.24768 0.21084 0.23733 0.0
H9 H 0.12606 0.22274 1.0606 0.0
C10 C 0.22503 0.05901 0.71163 0.0
N11 N 0.26555 0.35483 0.45624 0.0
C12 C 0.24085 0.42978 0.3856 0.0
C13 C 0.29444 0.35897 0.33188 0.0
N14 N 0.23707 0.42606 0.21073 0.0
C15 C 0.27726 0.41161 0.17924 0.0
C16 C 0.31294 0.24558 0.87022 0.0
O17 O 0.2226 0.08199 0.87203 0.0
O18 O 0.23839 0.12984 0.58551 0.0
O19 O 0.30566 0.25162 0.70343 0.0
O20 O 0.28019 0.23841 0.96878 0.0
O21 O 0.25958 0.41123 0.73936 0.0
H22 H 0.32237 0.31818 0.34261 0.0
H23 H 0.21564 0.45622 0.45595 0.0
O24 O 0.2027 0.36946 0.85991 0.0
O25 O 0.16124 0.18927 0.78146 0.0
O26 O 0.18786 0.29984 0.57658 0.0
C27 C 0.15575 0.25056 0.64233 0.0
H28 H 0.14974 0.4103 1.1423 0.0
H29 H 0.2911 0.42241 1.04835 0.0
Co30 Co 0.98849 0.25503 0.56578 0.0
C31 C 0.95014 0.44646 0.50745 0.0
Co32 Co 0.92103 0.24333 0.54691 0.0
C33 C 1.08011 0.2246 0.63514 0.0
C34 C 1.06422 0.35563 0.45117 0.0
N35 N 1.04702 0.27363 0.55578 0.0
N36 N 0.11665 0.27341 0.58231 0.0
C37 C 0.1063 0.35724 0.47129 0.0
H38 H 1.07751 0.15554 0.73119 0.0
H39 H 1.04728 0.41351 0.36746 0.0
C40 C 0.95295 0.05014 0.61902 0.0
N41 N 0.86383 0.23471 0.55482 0.0
C42 C 0.85116 0.29474 0.67639 0.0
C43 C 0.84295 0.14264 0.59552 0.0
N44 N 0.83307 0.23779 0.81487 0.0
C45 C 0.82578 0.14277 0.76149 0.0
C46 C 0.95434 0.24771 0.16853 0.0
O47 O 0.9882 0.09988 0.59704 0.0
O48 O 0.92126 0.10069 0.59239 0.0
O49 O 0.92035 0.23719 0.25804 0.0
O50 O 0.98692 0.25605 0.27421 0.0
O51 O 0.91888 0.38631 0.50123 0.0
H52 H 0.84753 0.07337 0.53169 0.0
H53 H 0.8645 0.37119 0.69086 0.0
O54 O 0.98516 0.40762 0.53902 0.0
O55 O 0.99005 0.25392 0.85688 0.0
O56 O 0.92367 0.24857 0.83936 0.0
C57 C 0.95621 0.25025 0.94595 0.0
H58 H 0.12738 0.41993 0.42021 0.0
H59 H 0.81486 0.07489 0.84668 0.0
Co60 Co 0.25027 0.75427 0.76464 0.0
C61 C 0.21834 0.94743 0.69259 0.0
Co62 Co 0.18281 0.74255 0.7458 0.0
C63 C 0.32014 0.70288 0.63511 0.0
C64 C 0.32835 0.85498 0.71603 0.0
N65 N 0.30747 0.76289 0.75672 0.0
N66 N 0.33822 0.75986 0.49663 0.0
C67 C 0.34551 0.85487 0.55004 0.0
H68 H 0.3068 0.62643 0.62062 0.0
H69 H 0.32377 0.92424 0.7799 0.0
C70 C 0.22117 0.55114 0.8041 0.0
N71 N 0.12428 0.72394 0.75582 0.0
C72 C 0.09118 0.77299 0.67655 0.0
C73 C 0.10708 0.64191 0.86037 0.0
N74 N 1.05464 0.7242 0.72945 0.0
C75 C 1.06499 0.64032 0.84033 0.0
C76 C 0.21509 0.74735 0.36561 0.0
O77 O 0.25243 0.61129 0.81033 0.0
O78 O 0.18614 0.58997 0.77256 0.0
O79 O 0.18125 0.74366 0.45469 0.0
O80 O 0.24763 0.74903 0.47219 0.0
O81 O 0.18309 0.89772 0.71454 0.0
H82 H 0.12402 0.584 0.94402 0.0
H83 H 0.09378 0.84206 0.58052 0.0
O84 O 0.25004 0.89691 0.71917 0.0
O85 O 0.25095 0.76041 1.05352 0.0
O86 O 0.18438 0.74153 1.03735 0.0
C87 C 0.21696 0.74989 1.14303 0.0
H88 H 0.35642 0.92276 0.46486 0.0
H89 H 1.04392 0.57762 0.89137 0.0
Co90 Co 0.92215 0.72161 0.6536 0.0
C91 C 0.94626 0.93857 0.59997 0.0
Co92 Co 0.9559 0.78031 0.43829 0.0
C93 C 0.93042 0.56786 0.92619 0.0
C94 C 0.87687 0.6386 0.97983 0.0
N95 N 0.90575 0.64284 0.8555 0.0
N96 N 0.93429 0.57157 1.1011 0.0
C97 C 0.89406 0.58588 1.13232 0.0
H98 H 0.9556 0.54135 0.85571 0.0
H99 H 0.84892 0.6793 0.96914 0.0
C100 C 0.94325 0.55749 0.50658 0.0
N101 N 0.98073 0.80725 0.2077 0.0
C102 C 0.95292 0.75544 1.11632 0.0
C103 C 1.01522 0.75349 0.19477 0.0
N104 N 0.96278 0.65613 1.11829 0.0
C105 C 1.00369 0.65562 1.14941 0.0
C106 C 1.01554 0.74699 0.66934 0.0
O107 O 0.91173 0.58633 0.57233 0.0
O108 O 0.9686 0.62814 0.45165 0.0
O109 O 1.01006 0.80832 0.53025 0.0
O110 O 0.98343 0.69771 0.73509 0.0
O111 O 0.9487 0.91559 0.43958 0.0
H112 H 1.04527 0.77492 0.25126 0.0
H113 H 0.92366 0.78673 1.07429 0.0
O114 O 0.93291 0.86774 0.72611 0.0
O115 O 0.86565 0.74596 0.60812 0.0
O116 O 0.89113 0.75916 0.34276 0.0
C117 C 0.85838 0.75199 0.44133 0.0
H118 H 0.88021 0.57498 0.26317 0.0
H119 H 1.02162 0.58737 0.16948 0.0
Co120 Co 0.71541 0.71729 0.37326 0.0
C121 C 0.72806 0.94012 0.30502 0.0
Co122 Co 0.74916 0.77598 0.158 0.0
C123 C 0.71843 0.74219 0.69517 0.0
C124 C 0.65613 0.74417 0.6169 0.0
N125 N 0.6906 0.69038 0.60391 0.0
N126 N 0.70859 0.84153 0.69315 0.0
C127 C 0.66768 0.84204 0.66219 0.0
H128 H 0.74768 0.71085 0.73728 0.0
H129 H 0.62606 0.72274 0.56054 0.0
C130 C 0.72503 0.55903 0.21157 0.0
N131 N 0.76556 0.85485 0.95618 0.0
C132 C 0.74085 0.9298 0.88554 0.0
C133 C 0.79444 0.859 0.83183 0.0
N134 N 0.73708 0.92607 0.71067 0.0
C135 C 0.77727 0.91162 0.67917 0.0
C136 C 0.81294 0.74559 0.37017 0.0
O137 O 0.7226 0.58201 0.37197 0.0
O138 O 0.73839 0.62986 1.08545 0.0
O139 O 0.80566 0.75163 0.20338 0.0
O140 O 0.78019 0.73841 0.46874 0.0
O141 O 0.75958 0.91125 0.2393 0.0
H142 H 0.82237 0.8182 0.84255 0.0
H143 H 0.71565 0.95624 0.95589 0.0
O144 O 0.70271 0.86948 0.35986 0.0
O145 O 0.66124 0.68929 0.2814 0.0
O146 O 0.68787 0.79986 1.07653 0.0
C147 C 0.65575 0.75059 1.14228 0.0
H148 H 0.64974 0.9103 0.64224 0.0
H149 H 0.7911 0.92242 0.54829 0.0
Co150 Co 0.4885 0.75507 1.06581 0.0
C151 C 0.45015 0.94651 1.00747 0.0
Co152 Co 0.42103 0.74337 1.04693 0.0
C153 C 0.58012 0.72464 1.13513 0.0
C154 C 0.56422 0.85567 0.95118 0.0
N155 N 0.54702 0.77367 1.05579 0.0
N156 N 0.61666 0.77344 1.08228 0.0
C157 C 0.60631 0.85727 0.97126 0.0
H158 H 0.57752 0.65558 0.23117 0.0
H159 H 0.54728 0.91356 0.86747 0.0
C160 C 0.45296 0.55019 1.11905 0.0
N161 N 0.36382 0.73475 1.05482 0.0
C162 C 0.35119 0.79468 0.17666 0.0
C163 C 0.34297 0.64262 1.09555 0.0
N164 N 0.33326 0.73753 0.31533 0.0
C165 C 0.32592 0.64257 0.26183 0.0
C166 C 0.45435 0.74775 0.66856 0.0
O167 O 0.48821 0.59991 1.09709 0.0
O168 O 0.42127 0.60074 1.09238 0.0
O169 O 0.42036 0.73725 0.75806 0.0
O170 O 0.48693 0.75608 0.77425 0.0
O171 O 0.41888 0.88636 1.00128 0.0
H172 H 0.34752 0.57343 1.03145 0.0
H173 H 0.3645 0.87117 0.19104 0.0
O174 O 0.48517 0.90766 1.03902 0.0
O175 O 0.49006 0.75398 0.35691 0.0
O176 O 0.42369 0.7486 0.3394 0.0
C177 C 0.45622 0.75029 0.44599 0.0
H178 H 0.62738 0.91996 0.92017 0.0
H179 H 0.31506 0.57462 0.34704 0.0
Co180 Co 0.75028 0.25429 0.2646 0.0
C181 C 0.71834 0.44745 0.19253 0.0
Co182 Co 0.68281 0.24258 0.24572 0.0
C183 C 0.82012 0.20299 1.13487 0.0
C184 C 0.82834 0.35505 0.21594 0.0
N185 N 0.80749 0.26291 0.25672 0.0
N186 N 0.83803 0.26013 0.99616 0.0
C187 C 0.84538 0.3551 1.04963 0.0
H188 H 0.80682 0.12648 1.12053 0.0
H189 H 0.82379 0.42425 0.28004 0.0
C190 C 0.72117 0.05116 0.30404 0.0
N191 N 0.62428 0.22397 0.25574 0.0
C192 C 0.59118 0.27303 0.17649 0.0
C193 C 0.60708 0.14194 0.36029 0.0
N194 N 0.55464 0.22424 0.2294 0.0
C195 C 0.565 0.14036 0.34026 0.0
C196 C 0.71509 0.24737 0.86554 0.0
O197 O 0.75243 0.11131 0.31025 0.0
O198 O 0.68615 0.08999 0.2725 0.0
O199 O 0.68125 0.24368 0.95462 0.0
O200 O 0.74763 0.24906 0.97213 0.0
O201 O 0.68309 0.39774 0.21445 0.0
H202 H 0.62402 0.08402 0.44392 0.0
H203 H 0.59378 0.3421 1.08048 0.0
O204 O 0.75005 0.39693 0.21915 0.0
O205 O 0.75095 0.26042 0.55347 0.0
O206 O 0.68438 0.24157 0.53728 0.0
C207 C 0.71696 0.24991 0.64297 0.0
H208 H 0.85621 0.42305 0.96439 0.0
H209 H 0.54392 0.07766 0.39131 0.0
Co210 Co 0.42216 0.22165 1.1536 0.0
C211 C 0.44626 0.43861 1.1 0.0
Co212 Co 0.4559 0.28036 0.93828 0.0
C213 C 0.43044 0.0679 0.42619 0.0
C214 C 0.37688 0.1386 0.47983 0.0
N215 N 0.40576 0.14287 0.3555 0.0
N216 N 0.43431 0.07162 0.60109 0.0
C217 C 0.39408 0.0859 0.63232 0.0
H218 H 0.45562 0.0414 0.35571 0.0
H219 H 0.34892 0.17927 0.46915 0.0
C220 C 0.44326 0.05754 1.00657 0.0
N221 N 0.48072 0.30734 0.70768 0.0
C222 C 0.45292 0.25551 0.61631 0.0
C223 C 0.51521 0.25361 0.69473 0.0
N224 N 0.46279 0.15621 0.61826 0.0
C225 C 0.5037 0.15574 0.64938 0.0
C226 C 0.51555 0.24705 0.1693 0.0
O227 O 0.41174 0.08639 1.07234 0.0
O228 O 0.4686 0.12819 0.95161 0.0
O229 O 0.51006 0.30838 1.03023 0.0
O230 O 0.48344 0.19777 0.23505 0.0
O231 O 0.44869 0.41564 0.93959 0.0
H232 H 0.54527 0.27507 0.75119 0.0
H233 H 0.42365 0.28677 0.5743 0.0
O234 O 0.43291 0.36778 0.22613 0.0
O235 O 0.36565 0.24599 1.10815 0.0
O236 O 0.39112 0.25919 0.84277 0.0
C237 C 0.35837 0.252 0.94136 0.0
H238 H 0.38023 0.07499 0.76317 0.0
H239 H 0.52165 0.0875 0.66943 0.0
loop_
_geom_bond_atom_site_label_1
_geom_bond_atom_site_label_2
_geom_bond_distance
_geom_bond_site_symmetry_2
_ccdc_geom_bond_type
Co0 N5 2.057 . S
Co0 O17 2.021 . S
Co0 O20 2.062 . S
Co0 O24 2.117 . S
Co0 O25 2.020 . S
C1 O21 1.259 . S
C1 O24 1.258 . S
Co2 N11 2.057 . S
Co2 O18 2.117 . S
Co2 O19 2.020 . S
Co2 O21 2.021 . S
Co2 O26 2.062 . S
C3 N5 1.316 1_554 S
C3 N6 1.347 . S
C3 H8 0.931 . S
C4 N5 1.375 . S
C4 C7 1.350 1_556 S
C4 H9 0.930 . S
N5 Co0 2.057 . S
N5 C3 1.316 1_556 S
N5 C4 1.375 . S
N6 C3 1.347 . S
N6 C7 1.373 . S
C7 C4 1.350 1_554 S
C7 N6 1.373 . S
C7 H28 0.931 . S
H8 C3 0.931 . S
H9 C4 0.930 . S
C10 O17 1.259 . S
C10 O18 1.258 . S
N11 Co2 2.057 . S
N11 C12 1.316 . S
N11 C13 1.375 . S
C12 N11 1.316 . S
C12 N14 1.347 . S
C12 H23 0.931 . S
C13 N11 1.375 . S
C13 C15 1.350 . S
C13 H22 0.930 . S
N14 C12 1.347 . S
N14 C15 1.373 . S
C15 C13 1.350 . S
C15 N14 1.373 . S
C15 H29 0.931 1_554 S
C16 O19 1.256 . S
C16 O20 1.255 . S
O17 Co0 2.021 . S
O17 C10 1.259 . S
O18 Co2 2.117 . S
O18 C10 1.258 . S
O19 Co2 2.020 . S
O19 C16 1.256 . S
O20 Co0 2.062 . S
O20 C16 1.255 . S
O21 C1 1.259 . S
O21 Co2 2.021 . S
H22 C13 0.930 . S
H23 C12 0.931 . S
O24 Co0 2.117 . S
O24 C1 1.258 . S
O25 Co0 2.020 . S
O25 C27 1.256 . S
O26 Co2 2.062 . S
O26 C27 1.255 . S
C27 O25 1.256 . S
C27 O26 1.255 . S
H28 C7 0.931 . S
H29 C15 0.931 1_556 S
Co30 N35 2.057 . S
Co30 O47 2.021 . S
Co30 O50 2.062 . S
Co30 O54 2.117 . S
Co30 O55 2.020 . S
C31 O51 1.259 . S
C31 O54 1.258 . S
Co32 N41 2.057 . S
Co32 O48 2.117 . S
Co32 O49 2.020 . S
Co32 O51 2.021 . S
Co32 O56 2.062 . S
C33 N35 1.316 1_455 S
C33 N36 1.347 . S
C33 H38 0.931 . S
C34 N35 1.380 . S
C34 C37 1.339 1_655 S
C34 H39 0.936 . S
N35 Co30 2.057 . S
N35 C33 1.316 1_655 S
N35 C34 1.380 . S
N36 C33 1.347 . S
N36 C37 1.373 . S
C37 C34 1.339 1_455 S
C37 N36 1.373 . S
C37 H58 0.931 . S
H38 C33 0.931 . S
H39 C34 0.936 . S
C40 O47 1.259 . S
C40 O48 1.258 . S
N41 Co32 2.057 . S
N41 C42 1.316 . S
N41 C43 1.375 . S
C42 N41 1.316 . S
C42 N44 1.347 . S
C42 H53 0.931 . S
C43 N41 1.375 . S
C43 C45 1.350 . S
C43 H52 0.930 . S
N44 C42 1.347 . S
N44 C45 1.373 . S
C45 C43 1.350 . S
C45 N44 1.373 . S
C45 H59 0.931 . S
C46 O49 1.256 . S
C46 O50 1.255 . S
O47 Co30 2.021 . S
O47 C40 1.259 . S
O48 Co32 2.117 . S
O48 C40 1.258 . S
O49 Co32 2.020 . S
O49 C46 1.256 . S
O50 Co30 2.062 . S
O50 C46 1.255 . S
O51 C31 1.259 . S
O51 Co32 2.021 . S
H52 C43 0.930 . S
H53 C42 0.931 . S
O54 Co30 2.117 . S
O54 C31 1.258 . S
O55 Co30 2.020 . S
O55 C57 1.256 . S
O56 Co32 2.062 . S
O56 C57 1.255 . S
C57 O55 1.256 . S
C57 O56 1.255 . S
H58 C37 0.931 . S
H59 C45 0.931 . S
Co60 N65 2.057 . S
Co60 O77 2.021 . S
Co60 O80 2.062 . S
Co60 O84 2.117 . S
Co60 O85 2.020 . S
C61 O81 1.259 . S
C61 O84 1.258 . S
Co62 N71 2.057 . S
Co62 O78 2.117 . S
Co62 O79 2.020 . S
Co62 O81 2.021 . S
Co62 O86 2.062 . S
C63 N65 1.316 . S
C63 N66 1.347 . S
C63 H68 0.931 . S
C64 N65 1.375 . S
C64 C67 1.350 . S
C64 H69 0.930 . S
N65 Co60 2.057 . S
N65 C63 1.316 . S
N65 C64 1.375 . S
N66 C63 1.347 . S
N66 C67 1.373 . S
C67 C64 1.350 . S
C67 N66 1.373 . S
C67 H88 0.931 . S
H68 C63 0.931 . S
H69 C64 0.930 . S
C70 O77 1.259 . S
C70 O78 1.258 . S
N71 Co62 2.057 . S
N71 C72 1.316 1_455 S
N71 C73 1.380 . S
C72 N71 1.316 1_655 S
C72 N74 1.347 . S
C72 H83 0.931 . S
C73 N71 1.380 . S
C73 C75 1.339 1_455 S
C73 H82 0.936 . S
N74 C72 1.347 . S
N74 C75 1.373 . S
C75 C73 1.339 1_655 S
C75 N74 1.373 . S
C75 H89 0.931 . S
C76 O79 1.256 . S
C76 O80 1.255 . S
O77 Co60 2.021 . S
O77 C70 1.259 . S
O78 Co62 2.117 . S
O78 C70 1.258 . S
O79 Co62 2.020 . S
O79 C76 1.256 . S
O80 Co60 2.062 . S
O80 C76 1.255 . S
O81 C61 1.259 . S
O81 Co62 2.021 . S
H82 C73 0.936 . S
H83 C72 0.931 . S
O84 Co60 2.117 . S
O84 C61 1.258 . S
O85 Co60 2.020 . S
O85 C87 1.256 . S
O86 Co62 2.062 . S
O86 C87 1.255 . S
C87 O85 1.256 . S
C87 O86 1.255 . S
H88 C67 0.931 . S
H89 C75 0.931 . S
Co90 N95 2.057 . S
Co90 O107 2.021 . S
Co90 O110 2.062 . S
Co90 O114 2.117 . S
Co90 O115 2.020 . S
C91 O111 1.259 . S
C91 O114 1.258 . S
Co92 N101 2.057 . S
Co92 O108 2.117 . S
Co92 O109 2.020 . S
Co92 O111 2.021 . S
Co92 O116 2.062 . S
C93 N95 1.316 . S
C93 N96 1.347 . S
C93 H98 0.931 . S
C94 N95 1.375 . S
C94 C97 1.350 . S
C94 H99 0.930 . S
N95 Co90 2.057 . S
N95 C93 1.316 . S
N95 C94 1.375 . S
N96 C93 1.347 . S
N96 C97 1.373 . S
C97 C94 1.350 . S
C97 N96 1.373 . S
C97 H118 0.931 1_556 S
H98 C93 0.931 . S
H99 C94 0.930 . S
C100 O107 1.259 . S
C100 O108 1.258 . S
N101 Co92 2.057 . S
N101 C102 1.316 1_554 S
N101 C103 1.375 . S
C102 N101 1.316 1_556 S
C102 N104 1.347 . S
C102 H113 0.931 . S
C103 N101 1.375 . S
C103 C105 1.350 1_554 S
C103 H112 0.930 . S
N104 C102 1.347 . S
N104 C105 1.373 . S
C105 C103 1.350 1_556 S
C105 N104 1.373 . S
C105 H119 0.931 . S
C106 O109 1.256 . S
C106 O110 1.255 . S
O107 Co90 2.021 . S
O107 C100 1.259 . S
O108 Co92 2.117 . S
O108 C100 1.258 . S
O109 Co92 2.020 . S
O109 C106 1.256 . S
O110 Co90 2.062 . S
O110 C106 1.255 . S
O111 C91 1.259 . S
O111 Co92 2.021 . S
H112 C103 0.930 . S
H113 C102 0.931 . S
O114 Co90 2.117 . S
O114 C91 1.258 . S
O115 Co90 2.020 . S
O115 C117 1.256 . S
O116 Co92 2.062 . S
O116 C117 1.255 . S
C117 O115 1.256 . S
C117 O116 1.255 . S
H118 C97 0.931 1_554 S
H119 C105 0.931 . S
Co120 N125 2.057 . S
Co120 O137 2.021 . S
Co120 O140 2.062 . S
Co120 O144 2.117 . S
Co120 O145 2.020 . S
C121 O141 1.259 1_554 S
C121 O144 1.258 . S
Co122 N131 2.057 . S
Co122 O138 2.117 . S
Co122 O139 2.020 1_556 S
Co122 O141 2.021 . S
Co122 O146 2.062 . S
C123 N125 1.316 . S
C123 N126 1.347 . S
C123 H128 0.931 . S
C124 N125 1.375 . S
C124 C127 1.350 . S
C124 H129 0.930 . S
N125 Co120 2.057 . S
N125 C123 1.316 . S
N125 C124 1.375 . S
N126 C123 1.347 . S
N126 C127 1.373 . S
C127 C124 1.350 . S
C127 N126 1.373 . S
C127 H148 0.931 . S
H128 C123 0.931 . S
H129 C124 0.930 . S
C130 O137 1.259 . S
C130 O138 1.258 1_554 S
N131 Co122 2.057 . S
N131 C132 1.316 . S
N131 C133 1.375 . S
C132 N131 1.316 . S
C132 N134 1.347 . S
C132 H143 0.931 . S
C133 N131 1.375 . S
C133 C135 1.350 . S
C133 H142 0.930 . S
N134 C132 1.347 . S
N134 C135 1.373 . S
C135 C133 1.350 . S
C135 N134 1.373 . S
C135 H149 0.931 . S
C136 O139 1.256 . S
C136 O140 1.255 . S
O137 Co120 2.021 . S
O137 C130 1.259 . S
O138 Co122 2.117 . S
O138 C130 1.258 1_556 S
O139 Co122 2.020 1_554 S
O139 C136 1.256 . S
O140 Co120 2.062 . S
O140 C136 1.255 . S
O141 C121 1.259 1_556 S
O141 Co122 2.021 . S
H142 C133 0.930 . S
H143 C132 0.931 . S
O144 Co120 2.117 . S
O144 C121 1.258 . S
O145 Co120 2.020 . S
O145 C147 1.256 . S
O146 Co122 2.062 . S
O146 C147 1.255 1_556 S
C147 O145 1.256 . S
C147 O146 1.255 1_554 S
H148 C127 0.931 . S
H149 C135 0.931 . S
Co150 N155 2.057 . S
Co150 O167 2.021 . S
Co150 O170 2.062 1_554 S
Co150 O174 2.117 . S
Co150 O175 2.020 . S
C151 O171 1.259 . S
C151 O174 1.258 . S
Co152 N161 2.057 . S
Co152 O168 2.117 . S
Co152 O169 2.020 1_554 S
Co152 O171 2.021 . S
Co152 O176 2.062 . S
C153 N155 1.316 1_556 S
C153 N156 1.347 . S
C153 H158 0.931 . S
C154 N155 1.375 . S
C154 C157 1.348 1_554 S
C154 H159 0.930 . S
N155 Co150 2.057 . S
N155 C153 1.316 1_554 S
N155 C154 1.375 . S
N156 C153 1.347 . S
N156 C157 1.374 . S
C157 C154 1.348 1_556 S
C157 N156 1.374 . S
C157 H178 0.931 . S
H158 C153 0.931 . S
H159 C154 0.930 . S
C160 O167 1.259 . S
C160 O168 1.258 . S
N161 Co152 2.057 . S
N161 C162 1.316 . S
N161 C163 1.375 . S
C162 N161 1.316 . S
C162 N164 1.347 . S
C162 H173 0.931 . S
C163 N161 1.375 . S
C163 C165 1.350 . S
C163 H172 0.930 . S
N164 C162 1.347 . S
N164 C165 1.373 . S
C165 C163 1.350 . S
C165 N164 1.373 . S
C165 H179 0.931 . S
C166 O169 1.256 . S
C166 O170 1.255 . S
O167 Co150 2.021 . S
O167 C160 1.259 . S
O168 Co152 2.117 . S
O168 C160 1.258 . S
O169 Co152 2.020 1_556 S
O169 C166 1.256 . S
O170 Co150 2.062 1_556 S
O170 C166 1.255 . S
O171 C151 1.259 . S
O171 Co152 2.021 . S
H172 C163 0.930 . S
H173 C162 0.931 . S
O174 Co150 2.117 . S
O174 C151 1.258 . S
O175 Co150 2.020 . S
O175 C177 1.256 . S
O176 Co152 2.062 . S
O176 C177 1.255 . S
C177 O175 1.256 . S
C177 O176 1.255 . S
H178 C157 0.931 . S
H179 C165 0.931 . S
Co180 N185 2.057 . S
Co180 O197 2.021 . S
Co180 O200 2.062 . S
Co180 O204 2.117 . S
Co180 O205 2.020 1_556 S
C181 O201 1.259 . S
C181 O204 1.258 . S
Co182 N191 2.057 . S
Co182 O198 2.117 . S
Co182 O199 2.020 . S
Co182 O201 2.021 . S
Co182 O206 2.062 1_556 S
C183 N185 1.316 . S
C183 N186 1.347 . S
C183 H188 0.931 . S
C184 N185 1.375 . S
C184 C187 1.350 . S
C184 H189 0.930 . S
N185 Co180 2.057 . S
N185 C183 1.316 . S
N185 C184 1.375 . S
N186 C183 1.347 . S
N186 C187 1.373 . S
C187 C184 1.350 . S
C187 N186 1.373 . S
C187 H208 0.931 . S
H188 C183 0.931 . S
H189 C184 0.930 . S
C190 O197 1.259 . S
C190 O198 1.258 . S
N191 Co182 2.057 . S
N191 C192 1.316 1_556 S
N191 C193 1.375 . S
C192 N191 1.316 1_554 S
C192 N194 1.347 . S
C192 H203 0.931 . S
C193 N191 1.375 . S
C193 C195 1.348 1_556 S
C193 H202 0.930 . S
N194 C192 1.347 . S
N194 C195 1.374 . S
C195 C193 1.348 1_554 S
C195 N194 1.374 . S
C195 H209 0.931 . S
C196 O199 1.256 . S
C196 O200 1.255 . S
O197 Co180 2.021 . S
O197 C190 1.259 . S
O198 Co182 2.117 . S
O198 C190 1.258 . S
O199 Co182 2.020 . S
O199 C196 1.256 . S
O200 Co180 2.062 . S
O200 C196 1.255 . S
O201 C181 1.259 . S
O201 Co182 2.021 . S
H202 C193 0.930 . S
H203 C192 0.931 . S
O204 Co180 2.117 . S
O204 C181 1.258 . S
O205 Co180 2.020 1_554 S
O205 C207 1.256 . S
O206 Co182 2.062 1_554 S
O206 C207 1.255 . S
C207 O205 1.256 . S
C207 O206 1.255 . S
H208 C187 0.931 . S
H209 C195 0.931 . S
Co210 N215 2.057 . S
Co210 O227 2.021 . S
Co210 O230 2.062 . S
Co210 O234 2.117 . S
Co210 O235 2.020 1_554 S
C211 O231 1.259 . S
C211 O234 1.258 1_556 S
Co212 N221 2.057 . S
Co212 O228 2.117 . S
Co212 O229 2.020 . S
Co212 O231 2.021 . S
Co212 O236 2.062 . S
C213 N215 1.316 . S
C213 N216 1.347 . S
C213 H218 0.931 . S
C214 N215 1.375 . S
C214 C217 1.350 . S
C214 H219 0.930 . S
N215 Co210 2.057 . S
N215 C213 1.316 . S
N215 C214 1.375 . S
N216 C213 1.347 . S
N216 C217 1.373 . S
C217 C214 1.350 . S
C217 N216 1.373 . S
C217 H238 0.931 . S
H218 C213 0.931 . S
H219 C214 0.930 . S
C220 O227 1.259 1_556 S
C220 O228 1.258 . S
N221 Co212 2.057 . S
N221 C222 1.316 . S
N221 C223 1.375 . S
C222 N221 1.316 . S
C222 N224 1.347 . S
C222 H233 0.931 . S
C223 N221 1.375 . S
C223 C225 1.350 . S
C223 H232 0.930 . S
N224 C222 1.347 . S
N224 C225 1.373 . S
C225 C223 1.350 . S
C225 N224 1.373 . S
C225 H239 0.931 . S
C226 O229 1.256 . S
C226 O230 1.255 1_556 S
O227 Co210 2.021 . S
O227 C220 1.259 1_554 S
O228 Co212 2.117 . S
O228 C220 1.258 . S
O229 Co212 2.020 . S
O229 C226 1.256 . S
O230 Co210 2.062 . S
O230 C226 1.255 1_554 S
O231 C211 1.259 . S
O231 Co212 2.021 . S
H232 C223 0.930 . S
H233 C222 0.931 . S
O234 Co210 2.117 . S
O234 C211 1.258 1_554 S
O235 Co210 2.020 1_556 S
O235 C237 1.256 . S
O236 Co212 2.062 . S
O236 C237 1.255 . S
C237 O235 1.256 . S
C237 O236 1.255 . S
H238 C217 0.931 . S
H239 C225 0.931 . S
C16 C237 3.359 . S
N186 N44 2.981 . S
N164 N66 2.981 . S
C136 C117 3.359 . S
C61 C10 2.379 1_565 S
C31 C100 2.286 . S
C91 C40 2.379 1_565 S
C70 C1 2.286 . S
C130 C181 2.379 1_554 S
C151 C220 2.286 1_564 S
C211 C160 2.379 1_556 S
C190 C121 2.286 1_546 S
N14 N6 1.614 . S
C46 C57 4.507 1_554 S
C76 C87 4.507 1_554 S
N96 N104 1.614 . S
N126 N134 1.614 . S
C166 C177 4.507 . S
C207 C196 4.507 . S
N216 N224 1.614 . S
C27 N36 1.634 . S
C106 N74 1.634 . S
C147 N156 1.634 1_554 S
C226 N194 1.634 1_556 S
