# Generated by pormake.
# Topology bnn, (5)-cn, num edge types: 1
# Building blocks:
#     Node 0, Type 0, BuildingBlock: BEQFEK_clean_sbu_0, # of connection points: 5
#     Node 1, Type 0, BuildingBlock: BEQFEK_clean_sbu_0, # of connection points: 5
#     Edge 2, Type (0, 0), None
#     Edge 3, Type (0, 0), None
#     Edge 4, Type (0, 0), None
#     Edge 5, Type (0, 0), None
#     Edge 6, Type (0, 0), None
# Relax obj value: 0.075
# Max RMSD: 0.192
# Mean RMSD: 0.179
data_MOF--net-bnn--node1-BEQFEK_clean_sbu_0--edge1-none
_symmetry_space_group_name_H-M    P1
_symmetry_Int_Tables_number       1
_symmetry_cell_setting            triclinic
loop_
_symmetry_equiv_pos_as_xyz
'x, y, z'
_cell_length_a     12.319917
_cell_length_b     12.252973
_cell_length_c     11.522575
_cell_angle_alpha  89.326548
_cell_angle_beta   88.515808
_cell_angle_gamma 110.68639
loop_
_atom_site_label
_atom_site_type_symbol
_atom_site_fract_x
_atom_site_fract_y
_atom_site_fract_z
_atom_type_partial_charge
Co0 Co 0.35781 0.68381 0.15375 0.0
Co1 Co 0.36626 0.68988 0.88078 0.0
C2 C 0.47447 0.90758 0.01706 0.0
O3 O 0.44413 0.85195 0.11391 0.0
O4 O 0.44898 0.85566 0.92087 0.0
C5 C 0.34797 0.72689 0.40514 0.0
O6 O 0.37861 0.83875 0.38093 0.0
C7 C 0.35393 0.74404 0.62847 0.0
C8 C 0.32661 0.56997 0.55726 0.0
C9 C 0.3406 0.68348 0.52563 0.0
N10 N 0.34885 0.66943 0.71706 0.0
N11 N 0.33188 0.56559 0.67347 0.0
C12 C 0.36766 0.86929 0.642 0.0
H13 H 0.35573 0.88851 0.73417 0.0
H14 H 0.30309 0.8902 0.58934 0.0
H15 H 0.45535 0.92513 0.60893 0.0
C16 C 0.10341 0.57758 0.11245 0.0
N17 N 0.21504 0.62651 0.07467 0.0
N18 N 0.21892 0.63039 0.96036 0.0
C19 C 0.10998 0.58519 0.92164 0.0
C20 C 0.03279 0.54682 0.0167 0.0
C21 C 0.0655 0.56208 0.23805 0.0
H22 H 0.12951 0.62701 0.29098 0.0
H23 H 0.98076 0.57342 0.25161 0.0
H24 H 0.05699 0.4731 0.26852 0.0
O25 O 0.45594 0.59242 0.11378 0.0
O26 O 0.46279 0.59633 0.92156 0.0
H27 H 0.0906 0.50553 0.75534 0.0
H28 H -0.00785 0.58257 0.78337 0.0
C29 C 0.08124 0.58356 0.79587 0.0
H30 H 0.14123 0.66278 0.75061 0.0
H31 H 0.32476 0.49159 0.72335 0.0
O32 O 0.33343 0.65467 0.32371 0.0
C33 C 0.49072 0.56435 0.01802 0.0
Co34 Co 0.68295 0.36247 0.15366 0.0
Co35 Co 0.69491 0.36801 0.88095 0.0
C36 C 0.56367 0.49231 0.01946 0.0
O37 O 0.58945 0.45949 0.11714 0.0
O38 O 0.59853 0.46355 0.92324 0.0
C39 C 0.63564 0.35888 0.4088 0.0
O40 O 0.5534 0.40155 0.39124 0.0
C41 C 0.62695 0.35813 0.63408 0.0
C42 C 0.77955 0.3342 0.54887 0.0
C43 C 0.67529 0.34793 0.52628 0.0
N44 N 0.70003 0.35109 0.71642 0.0
N45 N 0.79095 0.33698 0.66452 0.0
C46 C 0.51475 0.37603 0.65867 0.0
H47 H 0.48218 0.34588 0.74838 0.0
H48 H 0.44873 0.32826 0.5959 0.0
H49 H 0.52911 0.47043 0.64977 0.0
C50 C 0.56404 0.10851 0.1114 0.0
N51 N 0.62366 0.21874 0.07416 0.0
N52 N 0.636 0.2203 0.96032 0.0
C53 C 0.58979 0.11037 0.92198 0.0
C54 C 0.54074 0.03516 0.01654 0.0
C55 C 0.52043 0.07589 0.23388 0.0
H56 H 0.52863 0.15398 0.28481 0.0
H57 H 0.42744 0.01952 0.23497 0.0
H58 H 0.57027 0.02674 0.27481 0.0
O59 O 0.84845 0.4501 0.11095 0.0
O60 O 0.85703 0.45288 0.91979 0.0
H61 H 0.58256 0.98708 0.78544 0.0
H62 H 0.52655 0.10131 0.75007 0.0
C63 C 0.59429 0.07994 0.79695 0.0
H64 H 0.67995 0.13215 0.75751 0.0
H65 H 0.86159 0.33041 0.70827 0.0
O66 O 0.69084 0.33662 0.32311 0.0
C67 C 0.90608 0.48091 0.01581 0.0
loop_
_geom_bond_atom_site_label_1
_geom_bond_atom_site_label_2
_geom_bond_distance
_geom_bond_site_symmetry_2
_ccdc_geom_bond_type
Co0 O3 1.970 . S
Co0 N17 1.989 . S
Co0 O25 1.967 . S
Co0 O32 1.920 . S
Co1 O4 1.966 . S
Co1 N10 2.022 . S
Co1 N18 1.993 . S
Co1 O26 1.941 . S
C2 O3 1.258 . S
C2 O4 1.263 1_554 S
O3 Co0 1.970 . S
O3 C2 1.258 . S
O4 Co1 1.966 . S
O4 C2 1.263 1_556 S
C5 O6 1.235 . S
C5 O32 1.289 . S
O6 C5 1.235 . S
C7 C9 1.400 . S
C7 N10 1.351 . S
C7 C12 1.501 . S
C8 C9 1.387 . S
C8 N11 1.341 . S
C9 C7 1.400 . S
C9 C8 1.387 . S
N10 Co1 2.022 . S
N10 C7 1.351 . S
N10 N11 1.365 . S
N11 C8 1.341 . S
N11 N10 1.365 . S
N11 H31 0.862 . S
C12 C7 1.501 . S
C12 H13 0.961 . S
C12 H14 0.961 . S
C12 H15 0.960 . S
H13 C12 0.961 . S
H14 C12 0.961 . S
H15 C12 0.960 . S
C16 N17 1.342 . S
C16 C20 1.401 . S
C16 C21 1.499 . S
N17 Co0 1.989 . S
N17 C16 1.342 . S
N17 N18 1.388 1_554 S
N18 Co1 1.993 . S
N18 N17 1.388 1_556 S
N18 C19 1.346 . S
C19 N18 1.346 . S
C19 C20 1.396 1_556 S
C19 C29 1.510 . S
C20 C16 1.401 . S
C20 C19 1.396 1_554 S
C21 C16 1.499 . S
C21 H22 0.959 . S
C21 H23 0.960 . S
C21 H24 0.961 . S
H22 C21 0.959 . S
H23 C21 0.960 . S
H24 C21 0.961 . S
O25 Co0 1.967 . S
O25 C33 1.258 . S
O26 Co1 1.941 . S
O26 C33 1.266 1_556 S
H27 C29 0.959 . S
H28 C29 0.961 . S
C29 C19 1.510 . S
C29 H27 0.959 . S
C29 H28 0.961 . S
C29 H30 0.960 . S
H30 C29 0.960 . S
H31 N11 0.862 . S
O32 Co0 1.920 . S
O32 C5 1.289 . S
C33 O25 1.258 . S
C33 O26 1.266 1_554 S
Co34 O37 1.970 . S
Co34 N51 1.989 . S
Co34 O59 1.967 . S
Co34 O66 1.920 . S
Co35 O38 1.966 . S
Co35 N44 2.022 . S
Co35 N52 1.993 . S
Co35 O60 1.941 . S
C36 O37 1.258 . S
C36 O38 1.263 1_554 S
O37 Co34 1.970 . S
O37 C36 1.258 . S
O38 Co35 1.966 . S
O38 C36 1.263 1_556 S
C39 O40 1.235 . S
C39 O66 1.289 . S
O40 C39 1.235 . S
C41 C43 1.400 . S
C41 N44 1.351 . S
C41 C46 1.501 . S
C42 C43 1.387 . S
C42 N45 1.341 . S
C43 C41 1.400 . S
C43 C42 1.387 . S
N44 Co35 2.022 . S
N44 C41 1.351 . S
N44 N45 1.365 . S
N45 C42 1.341 . S
N45 N44 1.365 . S
N45 H65 0.862 . S
C46 C41 1.501 . S
C46 H47 0.961 . S
C46 H48 0.961 . S
C46 H49 0.960 . S
H47 C46 0.961 . S
H48 C46 0.961 . S
H49 C46 0.960 . S
C50 N51 1.342 . S
C50 C54 1.401 . S
C50 C55 1.499 . S
N51 Co34 1.989 . S
N51 C50 1.342 . S
N51 N52 1.388 1_554 S
N52 Co35 1.993 . S
N52 N51 1.388 1_556 S
N52 C53 1.346 . S
C53 N52 1.346 . S
C53 C54 1.396 1_556 S
C53 C63 1.510 . S
C54 C50 1.401 . S
C54 C53 1.396 1_554 S
C55 C50 1.499 . S
C55 H56 0.959 . S
C55 H57 0.960 . S
C55 H58 0.961 . S
H56 C55 0.959 . S
H57 C55 0.960 . S
H58 C55 0.961 . S
O59 Co34 1.967 . S
O59 C67 1.258 . S
O60 Co35 1.941 . S
O60 C67 1.266 1_556 S
H61 C63 0.959 . S
H62 C63 0.961 . S
C63 C53 1.510 . S
C63 H61 0.959 . S
C63 H62 0.961 . S
C63 H64 0.960 . S
H64 C63 0.960 . S
H65 N45 0.862 . S
O66 Co34 1.920 . S
O66 C39 1.289 . S
C67 O59 1.258 . S
C67 O60 1.266 1_554 S
C33 C36 1.646 . S
C67 C20 1.470 1_655 S
C2 C54 1.644 1_565 S
C9 C5 1.380 . S
C39 C43 1.463 . S
