# Generated by pormake.
# Topology unc, (4)-cn, num edge types: 1
# Building blocks:
#     Node 0, Type 0, BuildingBlock: QUQFOY_clean_sbu_1, # of connection points: 4
#     Node 1, Type 0, BuildingBlock: QUQFOY_clean_sbu_1, # of connection points: 4
#     Node 2, Type 0, BuildingBlock: QUQFOY_clean_sbu_1, # of connection points: 4
#     Node 3, Type 0, BuildingBlock: QUQFOY_clean_sbu_1, # of connection points: 4
#     Edge 4, Type (0, 0), BuildingBlock: FUNLAD_clean_linker_0, # of connection points: 2
#     Edge 5, Type (0, 0), BuildingBlock: FUNLAD_clean_linker_0, # of connection points: 2
#     Edge 6, Type (0, 0), BuildingBlock: FUNLAD_clean_linker_0, # of connection points: 2
#     Edge 7, Type (0, 0), BuildingBlock: FUNLAD_clean_linker_0, # of connection points: 2
#     Edge 8, Type (0, 0), BuildingBlock: FUNLAD_clean_linker_0, # of connection points: 2
#     Edge 9, Type (0, 0), BuildingBlock: FUNLAD_clean_linker_0, # of connection points: 2
#     Edge 10, Type (0, 0), BuildingBlock: FUNLAD_clean_linker_0, # of connection points: 2
#     Edge 11, Type (0, 0), BuildingBlock: FUNLAD_clean_linker_0, # of connection points: 2
# Relax obj value: 0.067
# Max RMSD: 0.107
# Mean RMSD: 0.107
data_MOF--net-unc--node1-QUQFOY_clean_sbu_1--edge1-FUNLAD_clean_linker_0
_symmetry_space_group_name_H-M    P1
_symmetry_Int_Tables_number       1
_symmetry_cell_setting            triclinic
loop_
_symmetry_equiv_pos_as_xyz
'x, y, z'
_cell_length_a     36.376371
_cell_length_b     36.374537
_cell_length_c     26.552951
_cell_angle_alpha  90.028795
_cell_angle_beta   89.762525
_cell_angle_gamma 89.963847
loop_
_atom_site_label
_atom_site_type_symbol
_atom_site_fract_x
_atom_site_fract_y
_atom_site_fract_z
_atom_type_partial_charge
O0 O 0.98633 0.63606 0.927 0.0
Cd1 Cd 0.97112 0.66948 0.98611 0.0
Cd2 Cd 0.04282 0.66991 -0.00041 0.0
O3 O 0.0462 0.64468 0.93004 0.0
O4 O 0.92106 0.68717 0.96847 0.0
O5 O 0.96903 0.72421 0.97516 0.0
C6 C 0.93467 0.71979 0.96453 0.0
C7 C 0.0805 0.71918 0.02182 0.0
C8 C 0.01829 0.63045 0.90903 0.0
C9 C 0.99594 0.62991 0.0762 0.0
O10 O 0.02779 0.63611 0.05829 0.0
O11 O 0.9678 0.64385 0.05537 0.0
O12 O 0.09324 0.68623 0.01756 0.0
O13 O 0.04629 0.72458 0.01117 0.0
O14 O 0.37995 0.03816 0.30499 0.0
Cd15 Cd 0.34855 0.05107 0.24307 0.0
Cd16 Cd 0.35141 0.97844 0.23121 0.0
O17 O 0.37473 0.97785 0.30188 0.0
O18 O 0.32924 0.101 0.25826 0.0
O19 O 0.2935 0.05206 0.25167 0.0
C20 C 0.2969 0.08668 0.26165 0.0
C21 C 0.30614 0.93616 0.20829 0.0
C22 C 0.38634 1.00666 0.32371 0.0
C23 C 0.39128 0.02572 0.15496 0.0
O24 O 0.38577 0.99397 0.1734 0.0
O25 O 0.37607 0.05374 0.17474 0.0
O26 O 0.3398 0.92637 0.2151 0.0
O27 O 0.29761 0.97011 0.21667 0.0
O28 O 0.03557 0.38325 0.42951 0.0
Cd29 Cd 0.04563 0.35041 0.49091 0.0
Cd30 Cd 0.97242 0.35039 0.49407 0.0
O31 O 0.97564 0.37544 0.42432 0.0
O32 O 0.09749 0.33438 0.48187 0.0
O33 O 0.05053 0.29581 0.47944 0.0
C34 C 0.08547 0.30145 0.47486 0.0
C35 C 0.93023 0.3038 0.51218 0.0
C36 C 1.00532 0.38905 0.4071 0.0
C37 C 0.01299 0.39026 0.57683 0.0
O38 O 0.98281 0.38406 0.55451 0.0
O39 O 0.04274 0.37652 0.56 0.0
O40 O 0.9199 0.33714 0.50396 0.0
O41 O 0.96478 0.29624 0.50728 0.0
O42 O 0.63451 0.981 0.7967 0.0
Cd43 Cd 0.66785 0.96845 0.73623 0.0
Cd44 Cd 0.66462 0.04103 0.72559 0.0
O45 O 0.63856 0.04142 0.7949 0.0
O46 O 0.68319 0.91687 0.74939 0.0
O47 O 0.72244 0.96323 0.74791 0.0
C48 C 0.71634 0.92862 0.7549 0.0
C49 C 0.71399 0.07923 0.70563 0.0
C50 C 0.6267 0.01219 0.81554 0.0
C51 C 0.62783 0.99498 0.64631 0.0
O52 O 0.63231 0.0267 0.66535 0.0
O53 O 0.64248 0.96702 0.66676 0.0
O54 O 0.68101 0.0919 0.71017 0.0
O55 O 0.71936 0.04479 0.71514 0.0
C56 C 0.02312 0.58491 0.13633 0.0
C57 C 0.99196 0.60346 0.1183 0.0
C58 C 0.01972 0.55703 0.17198 0.0
C59 C 0.98501 0.5473 0.19152 0.0
C60 C 0.95386 0.56626 0.17412 0.0
C61 C 0.95725 0.59409 0.13791 0.0
C62 C 0.98025 0.51644 0.22794 0.0
C63 C 0.00801 0.5034 0.25634 0.0
C64 C 1.00536 0.47154 0.29123 0.0
C65 C 0.03829 0.45555 0.30773 0.0
C66 C 0.03803 0.42752 0.34345 0.0
C67 C 1.00474 0.41478 0.36393 0.0
H68 H 0.94578 0.46968 0.29913 0.0
C69 C 0.97155 0.42968 0.34614 0.0
C70 C 0.9718 0.45789 0.3102 0.0
H71 H 0.94544 0.42063 0.36145 0.0
H72 H 0.05027 0.59101 0.12167 0.0
H73 H 0.04446 0.54251 0.18241 0.0
H74 H 0.92674 0.55922 0.18812 0.0
H75 H 0.93264 0.60767 0.12457 0.0
H76 H 0.95316 0.50417 0.23073 0.0
H77 H 0.03474 0.51645 0.25416 0.0
H78 H 0.06454 0.46529 0.29364 0.0
H79 H 0.06413 0.41659 0.35607 0.0
C80 C 0.42699 0.97051 0.38172 0.0
C81 C 0.40988 1.00386 0.36883 0.0
C82 C 0.45271 0.96921 0.42077 0.0
C83 C 0.46161 1.0013 0.44777 0.0
C84 C 0.44305 0.03408 0.43647 0.0
C85 C 0.41769 0.03545 0.39728 0.0
C86 C 0.49026 1.00234 0.48742 0.0
C87 C 0.51854 0.97847 0.4905 0.0
C88 C 0.54835 0.98302 0.52804 0.0
C89 C 0.566 0.95189 0.54775 0.0
C90 C 0.59285 0.95561 0.58506 0.0
C91 C 0.60281 0.99065 0.60284 0.0
H92 H 0.54795 0.04278 0.52802 0.0
C93 C 0.5865 0.02181 0.58102 0.0
C94 C 0.55971 0.01807 0.544 0.0
H95 H 0.59388 0.04925 0.59321 0.0
H96 H 0.4214 0.94564 0.36064 0.0
H97 H 0.46554 0.94315 0.42936 0.0
H98 H 0.44901 0.0591 0.45703 0.0
H99 H 0.40477 0.06152 0.38864 0.0
H100 H 0.48888 0.02515 0.5138 0.0
H101 H 0.52017 0.95504 0.4653 0.0
H102 H 0.55821 0.9246 0.53538 0.0
H103 H 0.60503 0.93104 0.60087 0.0
C104 C 0.99196 0.58558 0.84796 0.0
C105 C 0.02278 0.60439 0.86653 0.0
C106 C 0.99592 0.55804 0.81187 0.0
C107 C 0.03086 0.54893 0.79247 0.0
C108 C 0.06165 0.56815 0.81041 0.0
C109 C 0.0577 0.59565 0.84701 0.0
C110 C 0.03621 0.51835 0.75572 0.0
C111 C 0.00883 0.50541 0.72661 0.0
C112 C 0.01189 0.47355 0.69177 0.0
C113 C 0.97916 0.45729 0.67512 0.0
C114 C 0.9798 0.42907 0.63966 0.0
C115 C 0.01327 0.41642 0.61956 0.0
H116 H 0.0715 0.47211 0.68435 0.0
C117 C 0.04627 0.43167 0.63741 0.0
C118 C 0.04564 0.46007 0.67313 0.0
H119 H 0.07251 0.4227 0.62237 0.0
H120 H 0.96467 0.59121 0.86252 0.0
H121 H 0.97146 0.54325 0.80099 0.0
H122 H 0.08893 0.56158 0.79652 0.0
H123 H 0.08205 0.60945 0.86076 0.0
H124 H 0.06337 0.50614 0.75338 0.0
H125 H 0.98204 0.51845 0.72835 0.0
H126 H 0.95278 0.4669 0.68895 0.0
H127 H 0.95383 0.41789 0.627 0.0
C128 C 0.43812 0.999 0.09671 0.0
C129 C 0.41777 0.02971 0.11275 0.0
C130 C 0.46522 1.00241 0.05982 0.0
C131 C 0.47233 0.0366 0.03695 0.0
C132 C 0.45191 0.06738 0.05279 0.0
C133 C 0.42485 0.064 0.09029 0.0
C134 C 0.50186 0.04115 -0.00167 0.0
C135 C 0.51462 0.01281 0.97051 0.0
C136 C 0.54554 0.01486 0.93384 0.0
C137 C 0.56209 0.98171 0.91899 0.0
C138 C 0.58953 0.98121 0.88226 0.0
C139 C 0.60106 0.01393 0.85898 0.0
H140 H 0.54552 0.07402 0.92168 0.0
C141 C 0.58543 0.04741 0.87483 0.0
C142 C 0.55785 0.04791 0.91189 0.0
H143 H 0.59355 0.07308 0.85739 0.0
H144 H 0.43391 0.97223 0.11365 0.0
H145 H 0.48115 0.97818 0.05077 0.0
H146 H 0.45702 0.09413 0.0363 0.0
H147 H 0.40986 0.08828 0.10207 0.0
H148 H 0.51333 0.06843 -0.00664 0.0
H149 H 0.50214 0.98593 0.97488 0.0
H150 H 0.55335 0.95584 0.93534 0.0
H151 H 0.601 0.95491 0.87121 0.0
C152 C 0.24325 0.92031 0.17541 0.0
C153 C 0.27912 0.90948 0.1883 0.0
C154 C 0.21918 0.89544 0.15223 0.0
C155 C 0.23064 0.85922 0.1416 0.0
C156 C 0.26624 0.84844 0.15548 0.0
C157 C 0.29009 0.87312 0.17865 0.0
C158 C 0.20749 0.83193 0.11453 0.0
C159 C 0.1706 0.83372 0.1101 0.0
C160 C 0.14849 0.80437 0.08521 0.0
C161 C 0.1129 0.81256 0.06803 0.0
C162 C 0.09093 0.78523 0.04624 0.0
C163 C 0.10413 0.74907 0.04134 0.0
H164 H 0.188 0.75983 0.09469 0.0
C165 C 0.13973 0.74093 0.0583 0.0
C166 C 0.16149 0.76805 0.0803 0.0
H167 H 0.15059 0.71325 0.05584 0.0
H168 H 0.23407 0.94823 0.18204 0.0
H169 H 0.19225 0.90514 0.14144 0.0
H170 H 0.27587 0.82078 0.14789 0.0
H171 H 0.31751 0.86379 0.18802 0.0
H172 H 0.2221 0.80883 0.0981 0.0
H173 H 0.15578 0.85712 0.12536 0.0
H174 H 0.10196 0.84014 0.07172 0.0
H175 H 0.06349 0.79233 0.03388 0.0
C176 C 0.27101 0.14602 0.29315 0.0
C177 C 0.26559 0.1089 0.28053 0.0
C178 C 0.24314 0.16627 0.31645 0.0
C179 C 0.20913 0.14985 0.32799 0.0
C180 C 0.20296 0.11334 0.31301 0.0
C181 C 0.23101 0.09292 0.2898 0.0
C182 C 0.17978 0.1706 0.35497 0.0
C183 C 0.18773 0.19633 0.38989 0.0
C184 C 0.16034 0.22074 0.415 0.0
C185 C 0.17338 0.25274 0.43851 0.0
C186 C 0.14906 0.27817 0.45957 0.0
C187 C 0.11097 0.27208 0.45822 0.0
H188 H 0.11099 0.18905 0.39901 0.0
C189 C 0.0978 0.23923 0.43699 0.0
C190 C 0.12222 0.21378 0.41545 0.0
H191 H 0.06856 0.23372 0.43553 0.0
H192 H 0.29713 0.15936 0.28602 0.0
H193 H 0.24841 0.19481 0.32541 0.0
H194 H 0.17678 0.10026 0.32066 0.0
H195 H 0.22591 0.06441 0.28034 0.0
H196 H 0.15148 0.16424 0.34575 0.0
H197 H 0.21638 0.20108 0.39932 0.0
H198 H 0.20255 0.25873 0.43927 0.0
H199 H 0.16017 0.30307 0.4759 0.0
C200 C 0.73569 0.13892 0.67008 0.0
C201 C 0.74387 0.10313 0.68637 0.0
C202 C 0.76257 0.16072 0.64735 0.0
C203 C 0.79876 0.14757 0.64098 0.0
C204 C 0.80705 0.11191 0.65801 0.0
C205 C 0.77994 0.0899 0.68047 0.0
C206 C 0.82792 0.16941 0.61478 0.0
C207 C 0.82533 0.20593 0.60649 0.0
C208 C 0.85277 0.22833 0.57829 0.0
C209 C 0.84138 0.26256 0.55962 0.0
C210 C 0.86627 0.28617 0.53612 0.0
C211 C 0.90343 0.27632 0.53094 0.0
H212 H 0.89989 0.19193 0.58624 0.0
C213 C 0.91484 0.24159 0.54817 0.0
C214 C 0.88977 0.21777 0.57171 0.0
H215 H 0.94338 0.23333 0.54509 0.0
H216 H 0.70808 0.14985 0.67343 0.0
H217 H 0.7541 0.18732 0.63356 0.0
H218 H 0.83452 0.10084 0.65341 0.0
H219 H 0.78709 0.06233 0.69234 0.0
H220 H 0.85196 0.15459 0.60146 0.0
H221 H 0.80157 0.22083 0.62036 0.0
H222 H 0.8131 0.27145 0.56399 0.0
H223 H 0.85646 0.31267 0.5233 0.0
C224 C 0.77898 0.91642 0.79108 0.0
C225 C 0.74558 0.90319 0.77175 0.0
C226 C 0.80467 0.89212 0.812 0.0
C227 C 0.7974 0.85408 0.81367 0.0
C228 C 0.76474 0.84095 0.79224 0.0
C229 C 0.73906 0.86515 0.77186 0.0
C230 C 0.82236 0.82686 0.83769 0.0
C231 C 0.84833 0.83505 0.87205 0.0
C232 C 0.86976 0.80595 0.89821 0.0
C233 C 0.90605 0.81297 0.91328 0.0
C234 C 0.92706 0.78536 0.93618 0.0
C235 C 0.91191 0.75038 0.94502 0.0
H236 H 0.82583 0.76547 0.90011 0.0
C237 C 0.87505 0.74401 0.93206 0.0
C238 C 0.8542 0.77144 0.90911 0.0
H239 H 0.86234 0.71754 0.93887 0.0
H240 H 0.78482 0.94562 0.79135 0.0
H241 H 0.82993 0.90334 0.82682 0.0
H242 H 0.7585 0.81182 0.79249 0.0
H243 H 0.71372 0.854 0.75696 0.0
H244 H 0.8178 0.7982 0.82801 0.0
H245 H 0.85428 0.86343 0.8815 0.0
H246 H 0.91848 0.83952 0.90612 0.0
H247 H 0.95534 0.7912 0.94595 0.0
loop_
_geom_bond_atom_site_label_1
_geom_bond_atom_site_label_2
_geom_bond_distance
_geom_bond_site_symmetry_2
_ccdc_geom_bond_type
O0 Cd1 2.223 1_556 S
O0 C8 1.315 . S
Cd1 O0 2.223 1_554 S
Cd1 O4 2.297 1_554 S
Cd1 O5 2.439 1_554 S
Cd1 O11 2.240 . S
Cd2 O3 2.240 . S
Cd2 O10 2.223 1_556 S
Cd2 O12 2.297 1_556 S
Cd2 O13 2.439 1_556 S
O3 Cd2 2.240 . S
O3 C8 1.279 1_455 S
O4 Cd1 2.297 1_556 S
O4 C6 1.247 . S
O5 Cd1 2.439 1_556 S
O5 C6 1.208 . S
C6 O4 1.247 . S
C6 O5 1.208 . S
C7 O12 1.247 . S
C7 O13 1.208 . S
C8 O0 1.315 . S
C8 O3 1.279 1_655 S
C9 O10 1.315 . S
C9 O11 1.279 1_455 S
O10 Cd2 2.223 1_554 S
O10 C9 1.315 . S
O11 Cd1 2.240 . S
O11 C9 1.279 1_655 S
O12 Cd2 2.297 1_554 S
O12 C7 1.247 . S
O13 Cd2 2.439 1_554 S
O13 C7 1.208 . S
O14 Cd15 2.223 . S
O14 C22 1.315 . S
Cd15 O14 2.223 . S
Cd15 O18 2.297 . S
Cd15 O19 2.439 . S
Cd15 O25 2.240 . S
Cd16 O17 2.240 . S
Cd16 O24 2.223 . S
Cd16 O26 2.297 . S
Cd16 O27 2.439 . S
O17 Cd16 2.240 . S
O17 C22 1.279 1_565 S
O18 Cd15 2.297 . S
O18 C20 1.247 . S
O19 Cd15 2.439 . S
O19 C20 1.208 . S
C20 O18 1.247 . S
C20 O19 1.208 . S
C21 O26 1.247 . S
C21 O27 1.208 . S
C22 O14 1.315 . S
C22 O17 1.279 1_545 S
C23 O24 1.315 . S
C23 O25 1.279 1_565 S
O24 Cd16 2.223 . S
O24 C23 1.315 . S
O25 Cd15 2.240 . S
O25 C23 1.279 1_545 S
O26 Cd16 2.297 . S
O26 C21 1.247 . S
O27 Cd16 2.439 . S
O27 C21 1.208 . S
O28 Cd29 2.223 . S
O28 C36 1.315 . S
Cd29 O28 2.223 . S
Cd29 O32 2.297 . S
Cd29 O33 2.439 . S
Cd29 O39 2.240 . S
Cd30 O31 2.240 . S
Cd30 O38 2.223 . S
Cd30 O40 2.297 . S
Cd30 O41 2.439 . S
O31 Cd30 2.240 . S
O31 C36 1.279 1_655 S
O32 Cd29 2.297 . S
O32 C34 1.247 . S
O33 Cd29 2.439 . S
O33 C34 1.208 . S
C34 O32 1.247 . S
C34 O33 1.208 . S
C35 O40 1.247 . S
C35 O41 1.208 . S
C36 O28 1.315 . S
C36 O31 1.279 1_455 S
C37 O38 1.315 . S
C37 O39 1.279 1_655 S
O38 Cd30 2.223 . S
O38 C37 1.315 . S
O39 Cd29 2.240 . S
O39 C37 1.279 1_455 S
O40 Cd30 2.297 . S
O40 C35 1.247 . S
O41 Cd30 2.439 . S
O41 C35 1.208 . S
O42 Cd43 2.223 . S
O42 C50 1.315 . S
Cd43 O42 2.223 . S
Cd43 O46 2.297 . S
Cd43 O47 2.439 . S
Cd43 O53 2.240 . S
Cd44 O45 2.240 . S
Cd44 O52 2.223 . S
Cd44 O54 2.297 . S
Cd44 O55 2.439 . S
O45 Cd44 2.240 . S
O45 C50 1.279 1_545 S
O46 Cd43 2.297 . S
O46 C48 1.247 . S
O47 Cd43 2.439 . S
O47 C48 1.208 . S
C48 O46 1.247 . S
C48 O47 1.208 . S
C49 O54 1.247 . S
C49 O55 1.208 . S
C50 O42 1.315 . S
C50 O45 1.279 1_565 S
C51 O52 1.315 . S
C51 O53 1.279 1_545 S
O52 Cd44 2.223 . S
O52 C51 1.315 . S
O53 Cd43 2.240 . S
O53 C51 1.279 1_565 S
O54 Cd44 2.297 . S
O54 C49 1.247 . S
O55 Cd44 2.439 . S
O55 C49 1.208 . S
C56 C57 1.386 . S
C56 C58 1.383 . S
C56 H72 0.951 . S
C57 C56 1.386 . S
C57 C61 1.383 1_455 S
C58 C56 1.383 . S
C58 C59 1.402 1_455 S
C58 H73 0.951 . S
C59 C58 1.402 1_655 S
C59 C60 1.375 . S
C59 C62 1.481 . S
C60 C59 1.375 . S
C60 C61 1.367 . S
C60 H74 0.951 . S
C61 C57 1.383 1_655 S
C61 C60 1.367 . S
C61 H75 0.950 . S
C62 C59 1.481 . S
C62 C63 1.297 1_655 S
C62 H76 0.950 . S
C63 C62 1.297 1_455 S
C63 C64 1.479 . S
C63 H77 0.950 . S
C64 C63 1.479 . S
C64 C65 1.375 . S
C64 C70 1.404 1_455 S
C65 C64 1.375 . S
C65 C66 1.369 . S
C65 H78 0.950 . S
C66 C65 1.369 . S
C66 C67 1.392 . S
C66 H79 0.951 . S
C67 C66 1.392 . S
C67 C69 1.384 1_455 S
H68 C70 0.949 . S
C69 C67 1.384 1_655 S
C69 C70 1.385 . S
C69 H71 0.950 . S
C70 C64 1.404 1_655 S
C70 H68 0.949 . S
C70 C69 1.385 . S
H71 C69 0.950 . S
H72 C56 0.951 . S
H73 C58 0.951 . S
H74 C60 0.951 . S
H75 C61 0.950 . S
H76 C62 0.950 . S
H77 C63 0.950 . S
H78 C65 0.950 . S
H79 C66 0.951 . S
C80 C81 1.386 1_565 S
C80 C82 1.383 . S
C80 H96 0.951 . S
C81 C80 1.386 1_545 S
C81 C85 1.383 . S
C82 C80 1.383 . S
C82 C83 1.402 1_565 S
C82 H97 0.951 . S
C83 C82 1.402 1_545 S
C83 C84 1.375 . S
C83 C86 1.481 . S
C84 C83 1.375 . S
C84 C85 1.367 . S
C84 H98 0.951 . S
C85 C81 1.383 . S
C85 C84 1.367 . S
C85 H99 0.950 . S
C86 C83 1.481 . S
C86 C87 1.297 . S
C86 H100 0.950 . S
C87 C86 1.297 . S
C87 C88 1.479 . S
C87 H101 0.950 1_545 S
C88 C87 1.479 . S
C88 C89 1.375 1_545 S
C88 C94 1.404 . S
C89 C88 1.375 1_565 S
C89 C90 1.369 . S
C89 H102 0.950 . S
C90 C89 1.369 . S
C90 C91 1.392 1_565 S
C90 H103 0.951 . S
C91 C90 1.392 1_545 S
C91 C93 1.384 . S
H92 C94 0.949 . S
C93 C91 1.384 . S
C93 C94 1.385 . S
C93 H95 0.950 . S
C94 C88 1.404 . S
C94 H92 0.949 . S
C94 C93 1.385 . S
H95 C93 0.950 . S
H96 C80 0.951 . S
H97 C82 0.951 . S
H98 C84 0.951 . S
H99 C85 0.950 . S
H100 C86 0.950 . S
H101 C87 0.950 1_565 S
H102 C89 0.950 . S
H103 C90 0.951 . S
C104 C105 1.386 . S
C104 C106 1.383 . S
C104 H120 0.951 . S
C105 C104 1.386 . S
C105 C109 1.383 1_655 S
C106 C104 1.383 . S
C106 C107 1.402 1_655 S
C106 H121 0.951 . S
C107 C106 1.402 1_455 S
C107 C108 1.375 . S
C107 C110 1.481 . S
C108 C107 1.375 . S
C108 C109 1.367 . S
C108 H122 0.951 . S
C109 C105 1.383 1_455 S
C109 C108 1.367 . S
C109 H123 0.950 . S
C110 C107 1.481 . S
C110 C111 1.297 1_455 S
C110 H124 0.950 . S
C111 C110 1.297 1_655 S
C111 C112 1.479 . S
C111 H125 0.950 . S
C112 C111 1.479 . S
C112 C113 1.375 . S
C112 C118 1.404 1_655 S
C113 C112 1.375 . S
C113 C114 1.369 . S
C113 H126 0.950 . S
C114 C113 1.369 . S
C114 C115 1.392 . S
C114 H127 0.951 . S
C115 C114 1.392 . S
C115 C117 1.384 1_655 S
H116 C118 0.949 . S
C117 C115 1.384 1_455 S
C117 C118 1.385 . S
C117 H119 0.950 . S
C118 C112 1.404 1_455 S
C118 H116 0.949 . S
C118 C117 1.385 . S
H119 C117 0.950 . S
H120 C104 0.951 . S
H121 C106 0.951 . S
H122 C108 0.951 . S
H123 C109 0.950 . S
H124 C110 0.950 . S
H125 C111 0.950 . S
H126 C113 0.950 . S
H127 C114 0.951 . S
C128 C129 1.386 . S
C128 C130 1.383 . S
C128 H144 0.951 . S
C129 C128 1.386 . S
C129 C133 1.383 1_565 S
C130 C128 1.383 . S
C130 C131 1.402 . S
C130 H145 0.951 . S
C131 C130 1.402 . S
C131 C132 1.375 1_565 S
C131 C134 1.480 1_564 S
C132 C131 1.375 1_545 S
C132 C133 1.367 . S
C132 H146 0.951 . S
C133 C129 1.383 1_545 S
C133 C132 1.367 . S
C133 H147 0.950 . S
C134 C131 1.480 1_546 S
C134 C135 1.283 1_545 S
C134 H148 0.967 . S
C135 C134 1.283 1_565 S
C135 C136 1.479 . S
C135 H149 0.950 1_556 S
C136 C135 1.479 . S
C136 C137 1.375 . S
C136 C142 1.404 1_565 S
C137 C136 1.375 . S
C137 C138 1.369 . S
C137 H150 0.950 . S
C138 C137 1.369 . S
C138 C139 1.392 . S
C138 H151 0.951 . S
C139 C138 1.392 . S
C139 C141 1.384 1_565 S
H140 C142 0.949 . S
C141 C139 1.384 1_545 S
C141 C142 1.385 . S
C141 H143 0.950 . S
C142 C136 1.404 1_545 S
C142 H140 0.949 . S
C142 C141 1.385 . S
H143 C141 0.950 . S
H144 C128 0.951 . S
H145 C130 0.951 . S
H146 C132 0.951 . S
H147 C133 0.950 . S
H148 C134 0.967 . S
H149 C135 0.950 1_554 S
H150 C137 0.950 . S
H151 C138 0.951 . S
C152 C153 1.386 . S
C152 C154 1.383 . S
C152 H168 0.951 . S
C153 C152 1.386 . S
C153 C157 1.383 . S
C154 C152 1.383 . S
C154 C155 1.402 . S
C154 H169 0.951 . S
C155 C154 1.402 . S
C155 C156 1.375 . S
C155 C158 1.481 . S
C156 C155 1.375 . S
C156 C157 1.367 . S
C156 H170 0.951 . S
C157 C153 1.383 . S
C157 C156 1.367 . S
C157 H171 0.950 . S
C158 C155 1.481 . S
C158 C159 1.297 . S
C158 H172 0.950 . S
C159 C158 1.297 . S
C159 C160 1.479 . S
C159 H173 0.950 . S
C160 C159 1.479 . S
C160 C161 1.375 . S
C160 C166 1.404 . S
C161 C160 1.375 . S
C161 C162 1.369 . S
C161 H174 0.950 . S
C162 C161 1.369 . S
C162 C163 1.392 . S
C162 H175 0.951 . S
C163 C162 1.392 . S
C163 C165 1.384 . S
H164 C166 0.949 . S
C165 C163 1.384 . S
C165 C166 1.385 . S
C165 H167 0.950 . S
C166 C160 1.404 . S
C166 H164 0.949 . S
C166 C165 1.385 . S
H167 C165 0.950 . S
H168 C152 0.951 . S
H169 C154 0.951 . S
H170 C156 0.951 . S
H171 C157 0.950 . S
H172 C158 0.950 . S
H173 C159 0.950 . S
H174 C161 0.950 . S
H175 C162 0.951 . S
C176 C177 1.386 . S
C176 C178 1.383 . S
C176 H192 0.951 . S
C177 C176 1.386 . S
C177 C181 1.383 . S
C178 C176 1.383 . S
C178 C179 1.402 . S
C178 H193 0.951 . S
C179 C178 1.402 . S
C179 C180 1.375 . S
C179 C182 1.481 . S
C180 C179 1.375 . S
C180 C181 1.367 . S
C180 H194 0.951 . S
C181 C177 1.383 . S
C181 C180 1.367 . S
C181 H195 0.950 . S
C182 C179 1.481 . S
C182 C183 1.297 . S
C182 H196 0.950 . S
C183 C182 1.297 . S
C183 C184 1.479 . S
C183 H197 0.950 . S
C184 C183 1.479 . S
C184 C185 1.375 . S
C184 C190 1.404 . S
C185 C184 1.375 . S
C185 C186 1.369 . S
C185 H198 0.950 . S
C186 C185 1.369 . S
C186 C187 1.392 . S
C186 H199 0.951 . S
C187 C186 1.392 . S
C187 C189 1.384 . S
H188 C190 0.949 . S
C189 C187 1.384 . S
C189 C190 1.385 . S
C189 H191 0.950 . S
C190 C184 1.404 . S
C190 H188 0.949 . S
C190 C189 1.385 . S
H191 C189 0.950 . S
H192 C176 0.951 . S
H193 C178 0.951 . S
H194 C180 0.951 . S
H195 C181 0.950 . S
H196 C182 0.950 . S
H197 C183 0.950 . S
H198 C185 0.950 . S
H199 C186 0.951 . S
C200 C201 1.386 . S
C200 C202 1.383 . S
C200 H216 0.951 . S
C201 C200 1.386 . S
C201 C205 1.383 . S
C202 C200 1.383 . S
C202 C203 1.402 . S
C202 H217 0.951 . S
C203 C202 1.402 . S
C203 C204 1.375 . S
C203 C206 1.481 . S
C204 C203 1.375 . S
C204 C205 1.367 . S
C204 H218 0.951 . S
C205 C201 1.383 . S
C205 C204 1.367 . S
C205 H219 0.950 . S
C206 C203 1.481 . S
C206 C207 1.297 . S
C206 H220 0.950 . S
C207 C206 1.297 . S
C207 C208 1.479 . S
C207 H221 0.950 . S
C208 C207 1.479 . S
C208 C209 1.375 . S
C208 C214 1.404 . S
C209 C208 1.375 . S
C209 C210 1.369 . S
C209 H222 0.950 . S
C210 C209 1.369 . S
C210 C211 1.392 . S
C210 H223 0.951 . S
C211 C210 1.392 . S
C211 C213 1.384 . S
H212 C214 0.949 . S
C213 C211 1.384 . S
C213 C214 1.385 . S
C213 H215 0.950 . S
C214 C208 1.404 . S
C214 H212 0.949 . S
C214 C213 1.385 . S
H215 C213 0.950 . S
H216 C200 0.951 . S
H217 C202 0.951 . S
H218 C204 0.951 . S
H219 C205 0.950 . S
H220 C206 0.950 . S
H221 C207 0.950 . S
H222 C209 0.950 . S
H223 C210 0.951 . S
C224 C225 1.386 . S
C224 C226 1.383 . S
C224 H240 0.951 . S
C225 C224 1.386 . S
C225 C229 1.383 . S
C226 C224 1.383 . S
C226 C227 1.402 . S
C226 H241 0.951 . S
C227 C226 1.402 . S
C227 C228 1.375 . S
C227 C230 1.481 . S
C228 C227 1.375 . S
C228 C229 1.367 . S
C228 H242 0.951 . S
C229 C225 1.383 . S
C229 C228 1.367 . S
C229 H243 0.950 . S
C230 C227 1.481 . S
C230 C231 1.297 . S
C230 H244 0.950 . S
C231 C230 1.297 . S
C231 C232 1.479 . S
C231 H245 0.950 . S
C232 C231 1.479 . S
C232 C233 1.375 . S
C232 C238 1.404 . S
C233 C232 1.375 . S
C233 C234 1.369 . S
C233 H246 0.950 . S
C234 C233 1.369 . S
C234 C235 1.392 . S
C234 H247 0.951 . S
C235 C234 1.392 . S
C235 C237 1.384 . S
H236 C238 0.949 . S
C237 C235 1.384 . S
C237 C238 1.385 . S
C237 H239 0.950 . S
C238 C232 1.404 . S
C238 H236 0.949 . S
C238 C237 1.385 . S
H239 C237 0.950 . S
H240 C224 0.951 . S
H241 C226 0.951 . S
H242 C228 0.951 . S
H243 C229 0.950 . S
H244 C230 0.950 . S
H245 C231 0.950 . S
H246 C233 0.950 . S
H247 C234 0.951 . S
C57 C9 1.655 . S
C67 C36 1.644 . S
C81 C22 1.636 . S
C91 C51 1.623 . S
C105 C8 1.655 . S
C115 C37 1.647 . S
C129 C23 1.645 . S
C139 C50 1.628 . S
C153 C21 1.455 . S
C163 C7 1.437 . S
C177 C20 1.425 . S
C187 C34 1.413 . S
C201 C49 1.458 . S
C211 C35 1.469 . S
C225 C48 1.423 . S
C235 C6 1.411 . S
