# Generated by pormake.
# Topology uni, (4)-cn, num edge types: 1
# Building blocks:
#     Node 0, Type 0, BuildingBlock: QUQFOY_clean_sbu_3, # of connection points: 4
#     Node 1, Type 0, BuildingBlock: QUQFOY_clean_sbu_3, # of connection points: 4
#     Node 2, Type 0, BuildingBlock: QUQFOY_clean_sbu_3, # of connection points: 4
#     Node 3, Type 0, BuildingBlock: QUQFOY_clean_sbu_3, # of connection points: 4
#     Node 4, Type 0, BuildingBlock: QUQFOY_clean_sbu_3, # of connection points: 4
#     Node 5, Type 0, BuildingBlock: QUQFOY_clean_sbu_3, # of connection points: 4
#     Edge 6, Type (0, 0), None
#     Edge 7, Type (0, 0), None
#     Edge 8, Type (0, 0), None
#     Edge 9, Type (0, 0), None
#     Edge 10, Type (0, 0), None
#     Edge 11, Type (0, 0), None
#     Edge 12, Type (0, 0), None
#     Edge 13, Type (0, 0), None
#     Edge 14, Type (0, 0), None
#     Edge 15, Type (0, 0), None
#     Edge 16, Type (0, 0), None
#     Edge 17, Type (0, 0), None
# Relax obj value: 0.068
# Max RMSD: 0.103
# Mean RMSD: 0.090
data_MOF--net-uni--node1-QUQFOY_clean_sbu_3--edge1-none
_symmetry_space_group_name_H-M    P1
_symmetry_Int_Tables_number       1
_symmetry_cell_setting            triclinic
loop_
_symmetry_equiv_pos_as_xyz
'x, y, z'
_cell_length_a     19.221823
_cell_length_b     19.764315
_cell_length_c     10.962135
_cell_angle_alpha  90.296921
_cell_angle_beta   89.696782
_cell_angle_gamma 119.02324
loop_
_atom_site_label
_atom_site_type_symbol
_atom_site_fract_x
_atom_site_fract_y
_atom_site_fract_z
_atom_type_partial_charge
C0 C 0.75937 0.15462 0.02278 0.0
O1 O 0.71313 0.18101 0.0517 0.0
Cd2 Cd 0.58714 0.1205 0.15115 0.0
O3 O 0.73939 0.08383 0.04002 0.0
Cd4 Cd 0.60643 -0.02744 0.09733 0.0
C5 C 0.48712 0.0118 0.9104 0.0
O6 O 0.58034 0.0236 0.28728 0.0
O7 O 0.48385 0.91771 0.21359 0.0
O8 O 0.63954 0.88214 0.20228 0.0
C9 C 0.5108 0.96676 0.29952 0.0
O10 O 0.49765 0.06666 -0.01808 0.0
C11 C 0.6283 0.83902 0.11027 0.0
O12 O 0.52211 -0.02815 0.92688 0.0
O13 O 0.60938 0.85878 0.01125 0.0
C14 C 0.73529 0.55175 0.22471 0.0
O15 O 0.69351 0.4884 0.16878 0.0
Cd16 Cd 0.57757 0.44207 0.04739 0.0
O17 O 0.71884 0.60685 0.21916 0.0
Cd18 Cd 0.60129 0.60924 0.12323 0.0
C19 C 0.47201 0.45077 0.29023 0.0
O20 O 0.58786 0.54522 0.9246 0.0
O21 O 0.48676 0.55548 -0.01077 0.0
O22 O 0.65585 0.74022 0.03818 0.0
C23 C 0.52017 0.53878 0.90328 0.0
O24 O 0.48277 0.40808 0.21382 0.0
C25 C 0.62722 0.76467 0.12099 0.0
O26 O 0.50913 0.52428 0.28136 0.0
O27 O 0.5901 0.71867 0.20764 0.0
C28 C 0.79258 0.55217 0.31294 0.0
O29 O 0.77374 0.48828 0.36432 0.0
Cd30 Cd 0.84509 0.45266 0.50067 0.0
O31 O 0.86033 0.61113 0.33189 0.0
Cd32 Cd -0.02933 0.60444 0.44538 0.0
C33 C -0.03952 0.46165 0.271 0.0
O34 O 0.9208 0.55147 0.64883 0.0
O35 O -0.00316 0.51411 0.55931 0.0
O36 O 0.05305 0.7412 0.51282 0.0
C37 C -0.03516 0.52043 0.65673 0.0
O38 O 0.91948 0.41722 0.35719 0.0
C39 C 0.11754 0.7421 0.48329 0.0
O40 O -0.02122 0.53268 0.27076 0.0
O41 O 0.11198 0.68379 0.42628 0.0
C42 C 0.19519 0.80027 0.5298 0.0
O43 O 0.2446 0.77745 0.55638 0.0
Cd44 Cd 0.37145 0.84419 0.65355 0.0
O45 O 0.21151 0.8702 0.54759 0.0
Cd46 Cd 0.34051 -0.01279 0.60114 0.0
C47 C 0.46481 0.95435 0.41106 0.0
O48 O 0.3719 0.93927 0.78825 0.0
O49 O 0.46196 0.05027 0.71916 0.0
O50 O 0.29931 0.07324 0.70397 0.0
C51 C 0.43885 -0.00055 0.80202 0.0
O52 O 0.45967 0.9023 0.48367 0.0
C53 C 0.3106 0.11606 0.61207 0.0
O54 O 0.42484 -0.01037 0.42771 0.0
O55 O 0.33253 0.09756 0.51392 0.0
C56 C 0.2164 0.41428 0.72341 0.0
O57 O 0.26224 0.47815 0.67179 0.0
Cd58 Cd 0.37843 0.52082 0.54857 0.0
O59 O 0.22802 0.35622 0.71329 0.0
Cd60 Cd 0.34343 0.34776 0.62153 0.0
C61 C 0.47719 0.50507 0.79042 0.0
O62 O 0.36198 0.41494 0.42561 0.0
O63 O 0.45579 0.39157 0.48269 0.0
O64 O 0.28335 0.21483 0.54054 0.0
C65 C 0.42645 0.415 0.40064 0.0
O66 O 0.47288 0.55021 0.71236 0.0
C67 C 0.31152 0.19041 0.62322 0.0
O68 O 0.43455 0.4318 0.78188 0.0
O69 O 0.35038 0.23734 0.70812 0.0
C70 C 0.15585 0.41347 0.8065 0.0
O71 O 0.16699 0.47842 0.84588 0.0
Cd72 Cd 0.09384 0.51093 -0.01085 0.0
O73 O 0.0946 0.35114 0.83904 0.0
Cd74 Cd -0.0206 0.35245 0.94444 0.0
C75 C -0.02337 0.48949 0.76978 0.0
O76 O 0.02911 0.41527 0.14346 0.0
O77 O 0.93035 0.42316 0.06656 0.0
O78 O 0.90174 0.21641 0.01593 0.0
C79 C -0.02905 0.4276 0.15967 0.0
O80 O 0.00444 0.53375 0.86171 0.0
C81 C 0.83732 0.21006 0.97363 0.0
O82 O -0.02642 0.42379 0.7677 0.0
O83 O 0.84244 0.26464 0.90738 0.0
loop_
_geom_bond_atom_site_label_1
_geom_bond_atom_site_label_2
_geom_bond_distance
_geom_bond_site_symmetry_2
_ccdc_geom_bond_type
C0 O1 1.307 . S
C0 O3 1.159 1_554 S
O1 C0 1.307 . S
O1 Cd2 2.228 . S
Cd2 O1 2.228 . S
Cd2 O6 2.273 . S
Cd2 O10 2.277 1_554 S
O3 C0 1.159 1_556 S
O3 Cd4 2.203 1_546 S
Cd4 O3 2.203 1_564 S
Cd4 O6 2.411 1_565 S
Cd4 O7 2.333 . S
Cd4 O8 2.352 . S
Cd4 O12 2.277 1_554 S
Cd4 O13 2.356 . S
C5 O10 1.209 . S
C5 O12 1.226 1_545 S
O6 Cd2 2.273 . S
O6 Cd4 2.411 1_545 S
O6 C9 1.320 1_545 S
O7 Cd4 2.333 . S
O7 C9 1.214 . S
O8 Cd4 2.352 . S
O8 C11 1.258 . S
C9 O6 1.320 1_565 S
C9 O7 1.214 . S
O10 Cd2 2.277 1_556 S
O10 C5 1.209 . S
C11 O8 1.258 . S
C11 O13 1.282 . S
O12 Cd4 2.277 1_556 S
O12 C5 1.226 1_565 S
O13 Cd4 2.356 . S
O13 C11 1.282 . S
C14 O15 1.306 . S
C14 O17 1.160 . S
O15 C14 1.306 . S
O15 Cd16 2.228 . S
Cd16 O15 2.228 . S
Cd16 O20 2.273 . S
Cd16 O24 2.277 . S
O17 C14 1.160 . S
O17 Cd18 2.203 . S
Cd18 O17 2.203 . S
Cd18 O20 2.411 . S
Cd18 O21 2.333 . S
Cd18 O22 2.352 . S
Cd18 O26 2.277 . S
Cd18 O27 2.356 . S
C19 O24 1.209 . S
C19 O26 1.226 . S
O20 Cd16 2.273 . S
O20 Cd18 2.411 . S
O20 C23 1.320 . S
O21 Cd18 2.333 . S
O21 C23 1.214 . S
O22 Cd18 2.352 . S
O22 C25 1.258 . S
C23 O20 1.320 . S
C23 O21 1.214 . S
O24 Cd16 2.277 . S
O24 C19 1.209 . S
C25 O22 1.258 . S
C25 O27 1.282 . S
O26 Cd18 2.277 . S
O26 C19 1.226 . S
O27 Cd18 2.356 . S
O27 C25 1.282 . S
C28 O29 1.306 . S
C28 O31 1.160 . S
O29 C28 1.306 . S
O29 Cd30 2.228 . S
Cd30 O29 2.228 . S
Cd30 O34 2.273 . S
Cd30 O38 2.277 . S
O31 C28 1.160 . S
O31 Cd32 2.203 1_655 S
Cd32 O31 2.203 1_455 S
Cd32 O34 2.411 1_455 S
Cd32 O35 2.333 . S
Cd32 O36 2.352 . S
Cd32 O40 2.277 . S
Cd32 O41 2.356 . S
C33 O38 1.209 1_455 S
C33 O40 1.226 . S
O34 Cd30 2.273 . S
O34 Cd32 2.411 1_655 S
O34 C37 1.320 1_655 S
O35 Cd32 2.333 . S
O35 C37 1.214 . S
O36 Cd32 2.352 . S
O36 C39 1.258 . S
C37 O34 1.320 1_455 S
C37 O35 1.214 . S
O38 Cd30 2.277 . S
O38 C33 1.209 1_655 S
C39 O36 1.258 . S
C39 O41 1.282 . S
O40 Cd32 2.277 . S
O40 C33 1.226 . S
O41 Cd32 2.356 . S
O41 C39 1.282 . S
C42 O43 1.306 . S
C42 O45 1.160 . S
O43 C42 1.306 . S
O43 Cd44 2.228 . S
Cd44 O43 2.228 . S
Cd44 O48 2.273 . S
Cd44 O52 2.277 . S
O45 C42 1.160 . S
O45 Cd46 2.203 1_565 S
Cd46 O45 2.203 1_545 S
Cd46 O48 2.411 1_545 S
Cd46 O49 2.333 . S
Cd46 O50 2.352 . S
Cd46 O54 2.277 . S
Cd46 O55 2.356 . S
C47 O52 1.209 . S
C47 O54 1.226 1_565 S
O48 Cd44 2.273 . S
O48 Cd46 2.411 1_565 S
O48 C51 1.320 1_565 S
O49 Cd46 2.333 . S
O49 C51 1.214 . S
O50 Cd46 2.352 . S
O50 C53 1.258 . S
C51 O48 1.320 1_545 S
C51 O49 1.214 . S
O52 Cd44 2.277 . S
O52 C47 1.209 . S
C53 O50 1.258 . S
C53 O55 1.282 . S
O54 Cd46 2.277 . S
O54 C47 1.226 1_545 S
O55 Cd46 2.356 . S
O55 C53 1.282 . S
C56 O57 1.306 . S
C56 O59 1.160 . S
O57 C56 1.306 . S
O57 Cd58 2.228 . S
Cd58 O57 2.228 . S
Cd58 O62 2.273 . S
Cd58 O66 2.277 . S
O59 C56 1.160 . S
O59 Cd60 2.203 . S
Cd60 O59 2.203 . S
Cd60 O62 2.411 . S
Cd60 O63 2.333 . S
Cd60 O64 2.352 . S
Cd60 O68 2.277 . S
Cd60 O69 2.356 . S
C61 O66 1.209 . S
C61 O68 1.226 . S
O62 Cd58 2.273 . S
O62 Cd60 2.411 . S
O62 C65 1.320 . S
O63 Cd60 2.333 . S
O63 C65 1.214 . S
O64 Cd60 2.352 . S
O64 C67 1.258 . S
C65 O62 1.320 . S
C65 O63 1.214 . S
O66 Cd58 2.277 . S
O66 C61 1.209 . S
C67 O64 1.258 . S
C67 O69 1.282 . S
O68 Cd60 2.277 . S
O68 C61 1.226 . S
O69 Cd60 2.356 . S
O69 C67 1.282 . S
C70 O71 1.306 . S
C70 O73 1.160 . S
O71 C70 1.306 . S
O71 Cd72 2.228 . S
Cd72 O71 2.228 . S
Cd72 O76 2.273 1_556 S
Cd72 O80 2.277 . S
O73 C70 1.160 . S
O73 Cd74 2.203 1_455 S
Cd74 O73 2.203 1_655 S
Cd74 O76 2.411 1_656 S
Cd74 O77 2.333 1_556 S
Cd74 O78 2.351 1_556 S
Cd74 O82 2.277 . S
Cd74 O83 2.357 . S
C75 O80 1.209 . S
C75 O82 1.226 1_455 S
O76 Cd72 2.273 1_554 S
O76 Cd74 2.411 1_454 S
O76 C79 1.320 . S
O77 Cd74 2.333 1_554 S
O77 C79 1.214 1_655 S
O78 Cd74 2.351 1_554 S
O78 C81 1.258 1_554 S
C79 O76 1.320 . S
C79 O77 1.214 1_455 S
O80 Cd72 2.277 . S
O80 C75 1.209 . S
C81 O78 1.258 1_556 S
C81 O83 1.282 . S
O82 Cd74 2.277 . S
O82 C75 1.226 1_655 S
O83 Cd74 2.357 . S
O83 C81 1.282 . S
C9 C47 1.615 . S
C19 C65 1.661 . S
C75 C37 1.708 . S
C5 C51 1.615 . S
C23 C61 1.661 1_554 S
C79 C33 1.708 . S
C25 C11 1.361 . S
C28 C14 1.415 . S
C39 C42 1.380 . S
C67 C53 1.361 . S
C70 C56 1.415 . S
C81 C0 1.380 1_556 S
