# Generated by pormake.
# Topology kag, (6)-cn, num edge types: 1
# Building blocks:
#     Node 0, Type 0, BuildingBlock: UKALOJ_clean_sbu_0, # of connection points: 6
#     Node 1, Type 0, BuildingBlock: UKALOJ_clean_sbu_0, # of connection points: 6
#     Node 2, Type 0, BuildingBlock: UKALOJ_clean_sbu_0, # of connection points: 6
#     Edge 3, Type (0, 0), BuildingBlock: AJUNOK_clean_linker_0, # of connection points: 2
#     Edge 4, Type (0, 0), BuildingBlock: AJUNOK_clean_linker_0, # of connection points: 2
#     Edge 5, Type (0, 0), BuildingBlock: AJUNOK_clean_linker_0, # of connection points: 2
#     Edge 6, Type (0, 0), BuildingBlock: AJUNOK_clean_linker_0, # of connection points: 2
#     Edge 7, Type (0, 0), BuildingBlock: AJUNOK_clean_linker_0, # of connection points: 2
#     Edge 8, Type (0, 0), BuildingBlock: AJUNOK_clean_linker_0, # of connection points: 2
#     Edge 9, Type (0, 0), BuildingBlock: AJUNOK_clean_linker_0, # of connection points: 2
#     Edge 10, Type (0, 0), BuildingBlock: AJUNOK_clean_linker_0, # of connection points: 2
#     Edge 11, Type (0, 0), BuildingBlock: AJUNOK_clean_linker_0, # of connection points: 2
# Relax obj value: 0.112
# Max RMSD: 0.168
# Mean RMSD: 0.168
data_MOF--net-kag--node1-UKALOJ_clean_sbu_0--edge1-AJUNOK_clean_linker_0
_symmetry_space_group_name_H-M    P1
_symmetry_Int_Tables_number       1
_symmetry_cell_setting            triclinic
loop_
_symmetry_equiv_pos_as_xyz
'x, y, z'
_cell_length_a     22.125724
_cell_length_b     22.084741
_cell_length_c     16.190664
_cell_angle_alpha  89.687291
_cell_angle_beta   90.737463
_cell_angle_gamma 120.39317
loop_
_atom_site_label
_atom_site_type_symbol
_atom_site_fract_x
_atom_site_fract_y
_atom_site_fract_z
_atom_type_partial_charge
Zn0 Zn -0.02293 0.48941 0.95774 0.0
O1 O 0.05265 0.59582 0.94138 0.0
C2 C 0.08276 0.45694 1.011 0.0
Zn3 Zn -0.01371 0.49726 0.09465 0.0
C4 C 0.08149 0.63213 1.00577 0.0
O5 O 0.06296 0.60339 0.07633 0.0
C6 C 0.88196 0.3546 0.04628 0.0
O7 O 0.90952 0.52626 0.10821 0.0
O8 O 0.90004 0.51736 0.97322 0.0
N9 N 0.0108 0.50906 0.21764 0.0
C10 C -0.02707 0.49357 0.28719 0.0
C11 C 0.07929 0.53213 0.32356 0.0
N12 N 0.0768 0.53322 0.24052 0.0
N13 N 0.0148 0.50744 0.35435 0.0
C14 C -0.00911 0.49001 0.76562 0.0
C15 C 0.88455 0.44979 0.72789 0.0
N16 N 0.95276 0.47659 0.83466 0.0
N17 N 0.88679 0.45147 0.81097 0.0
N18 N 0.94908 0.4732 0.69787 0.0
H19 H 0.09341 0.55675 0.81942 0.0
H20 H 0.09131 0.55334 0.70767 0.0
H21 H 0.08216 0.48032 0.76789 0.0
C22 C 0.069 0.52253 0.76494 0.0
C23 C 0.89503 0.46225 0.2891 0.0
H24 H 0.87007 0.43477 0.23061 0.0
H25 H 0.88313 0.50494 0.29763 0.0
H26 H 0.87239 0.42519 0.3416 0.0
O27 O 0.90949 0.39097 0.111 0.0
O28 O 0.9014 0.38321 0.97588 0.0
C29 C 0.88119 0.53051 0.04131 0.0
O30 O 0.0549 0.46196 0.94415 0.0
O31 O 0.06275 0.46841 0.07924 0.0
Zn32 Zn 0.48147 0.00253 0.95769 0.0
O33 O 0.50837 0.9244 0.94142 0.0
C34 C 0.34062 0.89735 1.00444 0.0
Zn35 Zn 0.47713 -0.00816 0.0946 0.0
C36 C 0.5152 0.8957 1.00627 0.0
O37 O 0.50531 0.91458 0.07644 0.0
C38 C 0.44376 0.09898 0.046 0.0
O39 O 0.58341 0.06806 0.11237 0.0
O40 O 0.58783 0.07764 0.97719 0.0
N41 N 0.46394 0.96671 0.21724 0.0
C42 C 0.48724 0.00449 0.28758 0.0
C43 C 0.41998 0.89759 0.32182 0.0
N44 N 0.42243 0.90036 0.23881 0.0
N45 N 0.46018 0.96221 0.35403 0.0
C46 C 0.47719 -0.01208 0.76573 0.0
C47 C 0.52174 0.09477 0.72823 0.0
N48 N 0.49301 0.02704 0.83488 0.0
N49 N 0.52066 0.09332 0.81139 0.0
N50 N 0.4946 0.02931 0.69822 0.0
H51 H 0.49698 0.90319 0.77447 0.0
H52 H 0.42629 0.88605 0.70528 0.0
H53 H 0.41438 0.88392 0.81592 0.0
C54 C 0.45148 0.91074 0.76498 0.0
C55 C 0.53404 0.08266 0.29086 0.0
H56 H 0.53072 0.10758 0.23288 0.0
H57 H 0.58906 0.09533 0.29937 0.0
H58 H 0.52023 0.10491 0.34377 0.0
O59 O 0.44918 0.06942 0.11087 0.0
O60 O 0.45443 0.08046 0.97608 0.0
C61 C 0.61818 0.09596 0.04734 0.0
O62 O 0.37516 0.92701 0.93993 0.0
O63 O 0.37094 0.91564 0.07458 0.0
Zn64 Zn 0.48537 0.50348 0.09402 0.0
O65 O 0.4567 0.39754 0.11372 0.0
C66 C 0.62411 0.53755 0.03467 0.0
Zn67 Zn 0.48507 0.49689 0.95738 0.0
C68 C 0.44818 0.36219 0.04844 0.0
O69 O 0.45715 0.39169 0.97843 0.0
C70 C 0.52166 0.63803 1.00221 0.0
O71 O 0.37846 0.46682 0.95173 0.0
O72 O 0.37883 0.47525 0.08688 0.0
N73 N 0.48905 0.48133 0.83393 0.0
C74 C 0.45705 0.48899 0.76663 0.0
C75 C 0.52954 0.45948 0.72472 0.0
N76 N 0.53369 0.46261 0.80766 0.0
N77 N 0.48194 0.47592 0.69733 0.0
C78 C 0.45648 0.48772 0.2842 0.0
C79 C 0.53547 0.58945 0.3245 0.0
N80 N 0.49081 0.52436 0.21672 0.0
N81 N 0.53967 0.58749 0.24204 0.0
N82 N 0.48351 0.52767 0.35292 0.0
H83 H 0.36657 0.40397 0.22223 0.0
H84 H 0.35968 0.40446 0.33366 0.0
H85 H 0.41531 0.37695 0.28619 0.0
C86 C 0.39559 0.41413 0.28159 0.0
C87 C 0.39703 0.50215 0.76998 0.0
H88 H 0.35153 0.45541 0.79716 0.0
H89 H 0.38052 0.51012 0.70798 0.0
H90 H 0.41093 0.54799 0.81023 0.0
O91 O 0.51235 0.60232 0.93715 0.0
O92 O 0.51429 0.60903 0.07217 0.0
C93 C 0.34632 0.46254 1.01797 0.0
O94 O 0.59126 0.53122 0.10066 0.0
O95 O 0.59226 0.52732 0.96587 0.0
C96 C 0.94289 0.51651 0.55961 0.0
C97 C -0.03328 0.48167 0.61189 0.0
C98 C 0.95808 0.5243 0.4751 0.0
C99 C -0.0029 0.49696 0.44028 0.0
H100 H 0.91302 0.53853 0.58468 0.0
H101 H 0.94036 0.55286 0.43705 0.0
S102 S 0.06546 0.39552 0.549 0.0
N103 N 0.02645 0.41511 0.62176 0.0
N104 N 0.05636 0.43102 0.46309 0.0
C105 C 0.02026 0.46114 0.49162 0.0
C106 C 0.00452 0.45295 0.57745 0.0
C107 C 0.5353 0.02264 0.4755 0.0
C108 C 0.46839 -0.02044 0.4405 0.0
C109 C 0.54363 0.03835 0.56022 0.0
C110 C 0.48544 0.01056 0.61245 0.0
H111 H 0.58142 0.04342 0.43747 0.0
H112 H 0.59577 0.07187 0.5854 0.0
S113 S 0.29931 0.89862 0.55069 0.0
N114 N 0.34301 0.91147 0.46417 0.0
N115 N 0.35898 0.94148 0.6233 0.0
C116 C 0.41843 0.96814 0.57825 0.0
C117 C 0.40986 0.9522 0.49226 0.0
C118 C 0.45978 0.43349 0.55412 0.0
C119 C 0.4701 0.48512 0.61201 0.0
C120 C 0.45994 0.44577 0.46909 0.0
C121 C 0.46992 0.51007 0.43908 0.0
H122 H 0.45464 0.38443 0.57496 0.0
H123 H 0.45672 0.40637 0.42707 0.0
S124 S 0.50042 0.6628 0.56552 0.0
N125 N 0.49304 0.60366 0.63373 0.0
N126 N 0.48882 0.6253 0.4742 0.0
C127 C 0.47806 0.56123 0.49669 0.0
C128 C 0.47924 0.54918 0.58306 0.0
C129 C 0.18379 0.46109 0.93879 0.0
C130 C 0.14314 0.44569 1.01022 0.0
C131 C 0.24803 0.46303 0.94085 0.0
C132 C 0.27386 0.44946 1.01431 0.0
H133 H 0.16788 0.47551 0.88197 0.0
H134 H 0.27916 0.47893 0.88547 0.0
S135 S 0.18185 0.39511 0.21473 0.0
N136 N 0.12913 0.40827 0.15394 0.0
N137 N 0.24985 0.41196 0.1576 0.0
C138 C 0.23145 0.42931 0.08465 0.0
C139 C 0.16606 0.42732 0.08261 0.0
C140 C 0.71585 0.19706 0.12297 0.0
C141 C 0.69146 0.15406 0.05234 0.0
C142 C 0.78031 0.26014 0.12272 0.0
C143 C 0.8223 0.28208 0.05184 0.0
H144 H 0.68319 0.18418 0.177 0.0
H145 H 0.79515 0.29379 0.1766 0.0
S146 S 0.78834 0.181 0.85743 0.0
N147 N 0.71882 0.13244 0.91442 0.0
N148 N 0.83985 0.25082 0.91395 0.0
C149 C 0.80117 0.23652 0.98355 0.0
C150 C 0.73572 0.17251 0.98379 0.0
C151 C 0.50894 0.79456 0.9295 0.0
C152 C 0.52889 0.83691 1.00076 0.0
C153 C 0.51098 0.73208 0.92822 0.0
C154 C 0.53312 0.71002 0.99815 0.0
H155 H 0.48796 0.80761 0.87594 0.0
H156 H 0.49135 0.69904 0.87379 0.0
S157 S 0.60293 0.80889 0.19443 0.0
N158 N 0.58018 0.8572 0.13881 0.0
N159 N 0.58436 0.74029 0.13637 0.0
C160 C 0.55828 0.75474 0.06735 0.0
C161 C 0.55602 0.81804 0.0687 0.0
C162 C 0.7836 0.53322 0.11396 0.0
C163 C 0.82267 0.54467 0.04185 0.0
C164 C 0.72123 0.53509 0.11219 0.0
C165 C 0.69576 0.54843 0.03824 0.0
H166 H 0.79923 0.51915 0.17124 0.0
H167 H 0.69107 0.5224 0.16833 0.0
S168 S 0.78527 0.59427 0.83597 0.0
N169 N 0.83642 0.57906 0.89703 0.0
N170 N 0.71919 0.58226 0.89377 0.0
C171 C 0.73707 0.56509 0.96721 0.0
C172 C 0.80053 0.56328 0.96901 0.0
C173 C 0.16846 0.74435 0.07303 0.0
C174 C 0.14041 0.7053 1.00001 0.0
C175 C 0.23101 0.80873 0.07264 0.0
C176 C 0.26827 0.83689 0.99922 0.0
H177 H 0.14358 0.72381 0.13192 0.0
H178 H 0.25176 0.83503 0.13127 0.0
S179 S 0.212 0.76069 0.78908 0.0
N180 N 0.15044 0.70327 0.85051 0.0
N181 N 0.26849 0.82474 0.84984 0.0
C182 C 0.23815 0.80122 0.92462 0.0
C183 C 0.17411 0.73528 0.925 0.0
C184 C 0.45306 0.26517 0.1234 0.0
C185 C 0.43423 0.28928 0.05249 0.0
C186 C 0.45195 0.20105 0.12276 0.0
C187 C 0.43201 0.15906 0.05117 0.0
H188 H 0.47246 0.29769 0.17824 0.0
H189 H 0.47058 0.18632 0.17713 0.0
S190 S 0.36524 0.19232 0.8549 0.0
N191 N 0.38564 0.26144 0.91289 0.0
N192 N 0.38382 0.14145 0.9117 0.0
C193 C 0.40788 0.18005 0.98222 0.0
C194 C 0.4089 0.24503 0.98289 0.0
loop_
_geom_bond_atom_site_label_1
_geom_bond_atom_site_label_2
_geom_bond_distance
_geom_bond_site_symmetry_2
_ccdc_geom_bond_type
Zn0 O1 2.055 . S
Zn0 O8 2.046 1_455 S
Zn0 N16 2.036 . S
Zn0 O28 2.053 1_455 S
Zn0 O30 2.066 . S
O1 Zn0 2.055 . S
O1 C4 1.259 . S
C2 O30 1.256 . S
C2 O31 1.244 1_556 S
Zn3 O5 2.046 . S
Zn3 O7 2.055 1_455 S
Zn3 N9 2.036 . S
Zn3 O27 2.066 1_455 S
Zn3 O31 2.053 . S
C4 O1 1.259 . S
C4 O5 1.254 1_556 S
O5 Zn3 2.046 . S
O5 C4 1.254 1_554 S
C6 O27 1.256 . S
C6 O28 1.244 1_554 S
O7 Zn3 2.055 1_655 S
O7 C29 1.259 . S
O8 Zn0 2.046 1_655 S
O8 C29 1.254 1_556 S
N9 Zn3 2.036 . S
N9 C10 1.298 1_455 S
N9 N12 1.398 . S
C10 N9 1.298 1_655 S
C10 N13 1.367 1_655 S
C10 C23 1.481 . S
C11 N12 1.299 . S
C11 N13 1.379 . S
N12 N9 1.398 . S
N12 C11 1.299 . S
N13 C10 1.367 1_455 S
N13 C11 1.379 . S
C14 N16 1.298 . S
C14 N18 1.367 . S
C14 C22 1.481 . S
C15 N17 1.299 . S
C15 N18 1.379 1_655 S
N16 Zn0 2.036 . S
N16 C14 1.298 . S
N16 N17 1.398 1_455 S
N17 C15 1.299 . S
N17 N16 1.398 1_655 S
N18 C14 1.367 . S
N18 C15 1.379 1_455 S
H19 C22 0.980 . S
H20 C22 0.981 . S
H21 C22 0.981 . S
C22 C14 1.481 . S
C22 H19 0.980 . S
C22 H20 0.981 . S
C22 H21 0.981 . S
C23 C10 1.481 . S
C23 H24 0.980 . S
C23 H25 0.981 . S
C23 H26 0.981 . S
H24 C23 0.980 . S
H25 C23 0.981 . S
H26 C23 0.981 . S
O27 Zn3 2.066 1_655 S
O27 C6 1.256 . S
O28 Zn0 2.053 1_655 S
O28 C6 1.244 1_556 S
C29 O7 1.259 . S
C29 O8 1.254 1_554 S
O30 Zn0 2.066 . S
O30 C2 1.256 . S
O31 C2 1.244 1_554 S
O31 Zn3 2.053 . S
Zn32 O33 2.055 1_545 S
Zn32 O40 2.046 . S
Zn32 N48 2.036 . S
Zn32 O60 2.053 . S
Zn32 O62 2.066 1_545 S
O33 Zn32 2.055 1_565 S
O33 C36 1.259 . S
C34 O62 1.256 . S
C34 O63 1.244 1_556 S
Zn35 O37 2.046 1_545 S
Zn35 O39 2.055 . S
Zn35 N41 2.036 . S
Zn35 O59 2.066 . S
Zn35 O63 2.053 1_545 S
C36 O33 1.259 . S
C36 O37 1.254 1_556 S
O37 Zn35 2.046 1_565 S
O37 C36 1.254 1_554 S
C38 O59 1.256 . S
C38 O60 1.244 1_554 S
O39 Zn35 2.055 . S
O39 C61 1.259 . S
O40 Zn32 2.046 . S
O40 C61 1.254 1_556 S
N41 Zn35 2.036 . S
N41 C42 1.298 . S
N41 N44 1.398 1_545 S
C42 N41 1.298 . S
C42 N45 1.367 . S
C42 C55 1.481 . S
C43 N44 1.299 . S
C43 N45 1.379 1_565 S
N44 N41 1.398 1_565 S
N44 C43 1.299 . S
N45 C42 1.367 . S
N45 C43 1.379 1_545 S
C46 N48 1.298 1_565 S
C46 N50 1.367 1_565 S
C46 C54 1.481 . S
C47 N49 1.299 . S
C47 N50 1.379 . S
N48 Zn32 2.036 . S
N48 C46 1.298 1_545 S
N48 N49 1.398 . S
N49 C47 1.299 . S
N49 N48 1.398 . S
N50 C46 1.367 1_545 S
N50 C47 1.379 . S
H51 C54 0.980 . S
H52 C54 0.981 . S
H53 C54 0.981 . S
C54 C46 1.481 . S
C54 H51 0.980 . S
C54 H52 0.981 . S
C54 H53 0.981 . S
C55 C42 1.481 . S
C55 H56 0.980 . S
C55 H57 0.981 . S
C55 H58 0.981 . S
H56 C55 0.980 . S
H57 C55 0.981 . S
H58 C55 0.981 . S
O59 Zn35 2.066 . S
O59 C38 1.256 . S
O60 Zn32 2.053 . S
O60 C38 1.244 1_556 S
C61 O39 1.259 . S
C61 O40 1.254 1_554 S
O62 Zn32 2.066 1_565 S
O62 C34 1.256 . S
O63 C34 1.244 1_554 S
O63 Zn35 2.053 1_565 S
Zn64 O65 2.055 . S
Zn64 O72 2.046 . S
Zn64 N80 2.036 . S
Zn64 O92 2.053 . S
Zn64 O94 2.066 . S
O65 Zn64 2.055 . S
O65 C68 1.259 . S
C66 O94 1.256 . S
C66 O95 1.244 1_554 S
Zn67 O69 2.046 . S
Zn67 O71 2.055 . S
Zn67 N73 2.036 . S
Zn67 O91 2.066 . S
Zn67 O95 2.053 . S
C68 O65 1.259 . S
C68 O69 1.254 1_554 S
O69 Zn67 2.046 . S
O69 C68 1.254 1_556 S
C70 O91 1.256 . S
C70 O92 1.244 1_556 S
O71 Zn67 2.055 . S
O71 C93 1.259 . S
O72 Zn64 2.046 . S
O72 C93 1.254 1_554 S
N73 Zn67 2.036 . S
N73 C74 1.298 . S
N73 N76 1.398 . S
C74 N73 1.298 . S
C74 N77 1.367 . S
C74 C87 1.481 . S
C75 N76 1.299 . S
C75 N77 1.379 . S
N76 N73 1.398 . S
N76 C75 1.299 . S
N77 C74 1.367 . S
N77 C75 1.379 . S
C78 N80 1.298 . S
C78 N82 1.367 . S
C78 C86 1.481 . S
C79 N81 1.299 . S
C79 N82 1.379 . S
N80 Zn64 2.036 . S
N80 C78 1.298 . S
N80 N81 1.398 . S
N81 C79 1.299 . S
N81 N80 1.398 . S
N82 C78 1.367 . S
N82 C79 1.379 . S
H83 C86 0.980 . S
H84 C86 0.981 . S
H85 C86 0.981 . S
C86 C78 1.481 . S
C86 H83 0.980 . S
C86 H84 0.981 . S
C86 H85 0.981 . S
C87 C74 1.481 . S
C87 H88 0.980 . S
C87 H89 0.981 . S
C87 H90 0.981 . S
H88 C87 0.980 . S
H89 C87 0.981 . S
H90 C87 0.981 . S
O91 Zn67 2.066 . S
O91 C70 1.256 . S
O92 Zn64 2.053 . S
O92 C70 1.244 1_554 S
C93 O71 1.259 . S
C93 O72 1.254 1_556 S
O94 Zn64 2.066 . S
O94 C66 1.256 . S
O95 C66 1.244 1_556 S
O95 Zn67 2.053 . S
C96 C97 1.369 1_655 S
C96 C98 1.419 . S
C96 H100 0.930 . S
C97 C96 1.369 1_455 S
C97 C106 1.429 . S
C98 C96 1.419 . S
C98 C99 1.363 1_655 S
C98 H101 0.929 . S
C99 C98 1.363 1_455 S
C99 C105 1.428 . S
H100 C96 0.930 . S
H101 C98 0.929 . S
S102 N103 1.613 . S
S102 N104 1.610 . S
N103 S102 1.613 . S
N103 C106 1.350 . S
N104 S102 1.610 . S
N104 C105 1.351 . S
C105 C99 1.428 . S
C105 N104 1.351 . S
C105 C106 1.434 . S
C106 C97 1.429 . S
C106 N103 1.350 . S
C106 C105 1.434 . S
C107 C108 1.369 . S
C107 C109 1.419 . S
C107 H111 0.930 . S
C108 C107 1.369 . S
C108 C117 1.429 1_545 S
C109 C107 1.419 . S
C109 C110 1.363 . S
C109 H112 0.929 . S
C110 C109 1.363 . S
C110 C116 1.428 1_545 S
H111 C107 0.930 . S
H112 C109 0.929 . S
S113 N114 1.613 . S
S113 N115 1.610 . S
N114 S113 1.613 . S
N114 C117 1.350 . S
N115 S113 1.610 . S
N115 C116 1.351 . S
C116 C110 1.428 1_565 S
C116 N115 1.351 . S
C116 C117 1.434 . S
C117 C108 1.429 1_565 S
C117 N114 1.350 . S
C117 C116 1.434 . S
C118 C119 1.369 . S
C118 C120 1.419 . S
C118 H122 0.930 . S
C119 C118 1.369 . S
C119 C128 1.429 . S
C120 C118 1.419 . S
C120 C121 1.363 . S
C120 H123 0.929 . S
C121 C120 1.363 . S
C121 C127 1.428 . S
H122 C118 0.930 . S
H123 C120 0.929 . S
S124 N125 1.613 . S
S124 N126 1.610 . S
N125 S124 1.613 . S
N125 C128 1.350 . S
N126 S124 1.610 . S
N126 C127 1.351 . S
C127 C121 1.428 . S
C127 N126 1.351 . S
C127 C128 1.434 . S
C128 C119 1.429 . S
C128 N125 1.350 . S
C128 C127 1.434 . S
C129 C130 1.369 . S
C129 C131 1.419 . S
C129 H133 0.930 . S
C130 C129 1.369 . S
C130 C139 1.429 1_556 S
C131 C129 1.419 . S
C131 C132 1.363 . S
C131 H134 0.929 . S
C132 C131 1.363 . S
C132 C138 1.428 1_556 S
H133 C129 0.930 . S
H134 C131 0.929 . S
S135 N136 1.613 . S
S135 N137 1.610 . S
N136 S135 1.613 . S
N136 C139 1.350 . S
N137 S135 1.610 . S
N137 C138 1.351 . S
C138 C132 1.428 1_554 S
C138 N137 1.351 . S
C138 C139 1.434 . S
C139 C130 1.429 1_554 S
C139 N136 1.350 . S
C139 C138 1.434 . S
C140 C141 1.369 . S
C140 C142 1.419 . S
C140 H144 0.930 . S
C141 C140 1.369 . S
C141 C150 1.429 1_554 S
C142 C140 1.419 . S
C142 C143 1.363 . S
C142 H145 0.929 . S
C143 C142 1.363 . S
C143 C149 1.428 1_554 S
H144 C140 0.930 . S
H145 C142 0.929 . S
S146 N147 1.613 . S
S146 N148 1.610 . S
N147 S146 1.613 . S
N147 C150 1.350 . S
N148 S146 1.610 . S
N148 C149 1.351 . S
C149 C143 1.428 1_556 S
C149 N148 1.351 . S
C149 C150 1.434 . S
C150 C141 1.429 1_556 S
C150 N147 1.350 . S
C150 C149 1.434 . S
C151 C152 1.369 . S
C151 C153 1.419 . S
C151 H155 0.930 . S
C152 C151 1.369 . S
C152 C161 1.429 1_556 S
C153 C151 1.419 . S
C153 C154 1.363 . S
C153 H156 0.929 . S
C154 C153 1.363 . S
C154 C160 1.428 1_556 S
H155 C151 0.930 . S
H156 C153 0.929 . S
S157 N158 1.613 . S
S157 N159 1.610 . S
N158 S157 1.613 . S
N158 C161 1.350 . S
N159 S157 1.610 . S
N159 C160 1.351 . S
C160 C154 1.428 1_554 S
C160 N159 1.351 . S
C160 C161 1.434 . S
C161 C152 1.429 1_554 S
C161 N158 1.350 . S
C161 C160 1.434 . S
C162 C163 1.369 . S
C162 C164 1.419 . S
C162 H166 0.930 . S
C163 C162 1.369 . S
C163 C172 1.429 1_554 S
C164 C162 1.419 . S
C164 C165 1.363 . S
C164 H167 0.929 . S
C165 C164 1.363 . S
C165 C171 1.428 . S
H166 C162 0.930 . S
H167 C164 0.929 . S
S168 N169 1.613 . S
S168 N170 1.610 . S
N169 S168 1.613 . S
N169 C172 1.350 . S
N170 S168 1.610 . S
N170 C171 1.351 1_556 S
C171 C165 1.428 . S
C171 N170 1.351 1_554 S
C171 C172 1.434 1_554 S
C172 C163 1.429 1_556 S
C172 N169 1.350 . S
C172 C171 1.434 1_556 S
C173 C174 1.369 1_554 S
C173 C175 1.419 . S
C173 H177 0.930 . S
C174 C173 1.369 1_556 S
C174 C183 1.429 . S
C175 C173 1.419 . S
C175 C176 1.363 1_554 S
C175 H178 0.929 . S
C176 C175 1.363 1_556 S
C176 C182 1.428 . S
H177 C173 0.930 . S
H178 C175 0.929 . S
S179 N180 1.613 . S
S179 N181 1.610 . S
N180 S179 1.613 . S
N180 C183 1.350 . S
N181 S179 1.610 . S
N181 C182 1.351 . S
C182 C176 1.428 . S
C182 N181 1.351 . S
C182 C183 1.434 . S
C183 C174 1.429 . S
C183 N180 1.350 . S
C183 C182 1.434 . S
C184 C185 1.369 . S
C184 C186 1.419 . S
C184 H188 0.930 1_554 S
C185 C184 1.369 . S
C185 C194 1.429 . S
C186 C184 1.419 . S
C186 C187 1.363 . S
C186 H189 0.929 . S
C187 C186 1.363 . S
C187 C193 1.428 . S
H188 C184 0.930 1_556 S
H189 C186 0.929 . S
S190 N191 1.613 . S
S190 N192 1.610 . S
N191 S190 1.613 . S
N191 C194 1.350 . S
N192 S190 1.610 . S
N192 C193 1.351 . S
C193 C187 1.428 . S
C193 N192 1.351 . S
C193 C194 1.434 . S
C194 C185 1.429 . S
C194 N191 1.350 . S
C194 C193 1.434 . S
C97 N18 1.483 . S
C99 N13 1.473 . S
C108 N45 1.473 . S
C110 N50 1.481 . S
C119 N77 1.483 . S
C121 N82 1.472 . S
C130 C2 1.281 . S
C132 C93 1.290 . S
C141 C61 1.289 . S
C143 C6 1.284 . S
C152 C36 1.290 . S
C154 C70 1.282 . S
C163 C29 1.290 . S
C165 C66 1.282 . S
C174 C4 1.289 . S
C176 C34 1.284 . S
C185 C68 1.289 . S
C187 C38 1.285 . S
