# Generated by pormake.
# Topology pcu, (6)-cn, num edge types: 1
# Building blocks:
#     Node 0, Type 0, BuildingBlock: CUKXOW_clean_sbu_0, # of connection points: 6
#     Edge 1, Type (0, 0), BuildingBlock: MIFKUJ_clean_linker_0, # of connection points: 2
#     Edge 2, Type (0, 0), BuildingBlock: MIFKUJ_clean_linker_0, # of connection points: 2
#     Edge 3, Type (0, 0), BuildingBlock: MIFKUJ_clean_linker_0, # of connection points: 2
# Relax obj value: 0.000
# Max RMSD: 0.000
# Mean RMSD: 0.000
data_MOF--net-pcu--node1-CUKXOW_clean_sbu_0--edge1-MIFKUJ_clean_linker_0
_symmetry_space_group_name_H-M    P1
_symmetry_Int_Tables_number       1
_symmetry_cell_setting            triclinic
loop_
_symmetry_equiv_pos_as_xyz
'x, y, z'
_cell_length_a     18.167118
_cell_length_b     22.633398
_cell_length_c     19.866579
_cell_angle_alpha  84.268809
_cell_angle_beta   105.99219
_cell_angle_gamma 125.27563
loop_
_atom_site_label
_atom_site_type_symbol
_atom_site_fract_x
_atom_site_fract_y
_atom_site_fract_z
_atom_type_partial_charge
Tb0 Tb 0.04925 0.07647 0.991 0.0
C1 C 1.01246 0.99352 0.85669 0.0
Tb2 Tb 1.00962 0.92531 0.00585 0.0
O3 O 0.18073 0.11727 0.96645 0.0
O4 O 0.1278 0.03339 0.03309 0.0
O5 O 1.00835 0.04396 0.88063 0.0
C6 C 1.01522 0.81004 0.00752 0.0
O7 O 1.02131 0.94651 0.8976 0.0
C8 C 0.86792 0.93216 0.99498 0.0
C9 C 0.04653 0.0083 0.14018 0.0
O10 O 0.93981 0.8085 0.98781 0.0
O11 O 0.08735 0.87636 0.02647 0.0
O12 O 0.87814 0.88478 0.03045 0.0
O13 O 0.93125 0.96839 0.96377 0.0
O14 O 0.0506 0.95785 0.11622 0.0
O15 O 0.03765 0.0553 0.09926 0.0
C16 C 0.04347 0.19165 0.98936 0.0
O17 O 0.11892 0.19325 0.00907 0.0
O18 O 0.97139 0.12532 0.97038 0.0
C19 C 0.1911 0.06991 0.00184 0.0
H20 H 0.99281 0.07506 0.20172 0.0
H21 H 0.98726 0.07252 0.32343 0.0
H22 H 0.09945 0.94464 0.36919 0.0
H23 H 0.10272 0.94521 0.24698 0.0
H24 H 0.95816 0.88964 0.42359 0.0
H25 H 0.23397 0.1293 0.42362 0.0
H26 H 0.32498 0.25152 0.382 0.0
H27 H 0.14515 0.29916 0.42609 0.0
H28 H 0.05232 0.17686 0.46715 0.0
H29 H 0.06625 0.92679 0.79519 0.0
H30 H 0.07188 0.92935 0.6735 0.0
H31 H 0.95968 0.05723 0.62768 0.0
H32 H 0.95634 0.05663 0.74987 0.0
H33 H 0.10102 0.11223 0.57331 0.0
H34 H 0.82518 0.87257 0.57326 0.0
H35 H 0.73416 0.75035 0.61487 0.0
H36 H 0.91402 0.70271 0.57083 0.0
H37 H 1.00686 0.82501 0.52977 0.0
C38 C 1.01723 0.04702 0.23784 0.0
C39 C 0.04862 0.0106 0.21479 0.0
C40 C 1.01418 0.04573 0.30749 0.0
C41 C 0.04405 0.00914 0.35574 0.0
C42 C 0.07604 0.9732 0.33291 0.0
C43 C 0.07811 0.97375 0.26308 0.0
C44 C 0.03939 0.00647 0.42951 0.0
C45 C 0.99055 0.93839 0.45666 0.0
C46 C 0.07956 0.06994 0.47211 0.0
C47 C 0.13572 0.14369 0.44788 0.0
C48 C 0.21347 0.16567 0.424 0.0
C49 C 0.26544 0.23499 0.40058 0.0
C50 C 0.24074 0.28301 0.40124 0.0
C51 C 0.16416 0.26189 0.42554 0.0
C52 C 0.11191 0.19261 0.44896 0.0
C53 C 0.04185 0.95484 0.75906 0.0
C54 C 1.01044 0.99125 0.78208 0.0
C55 C 0.04495 0.95614 0.68942 0.0
C56 C 1.0151 0.99273 0.64116 0.0
C57 C 0.98308 0.02866 0.66397 0.0
C58 C 0.98097 0.0281 0.73378 0.0
C59 C 1.01978 0.9954 0.56739 0.0
C60 C 0.06862 0.06348 0.54024 0.0
C61 C 0.97962 0.93193 0.5248 0.0
C62 C 0.92345 0.85818 0.54902 0.0
C63 C 0.84569 0.8362 0.57289 0.0
C64 C 0.79371 0.76688 0.5963 0.0
C65 C 0.81842 0.71886 0.59565 0.0
C66 C 0.89501 0.73998 0.57137 0.0
C67 C 0.94727 0.80926 0.54795 0.0
H68 H 0.77812 0.66523 0.61382 0.0
H69 H 0.28103 0.33664 0.38307 0.0
H70 H 0.26035 0.01 0.10149 0.0
H71 H 0.37767 0.98832 0.09979 0.0
H72 H 0.39474 0.07625 0.89744 0.0
H73 H 0.27925 0.09981 0.89978 0.0
H74 H 0.3715 0.9332 0.91441 0.0
H75 H 0.56238 0.17928 0.01194 0.0
H76 H 0.61443 0.27976 0.09285 0.0
H77 H 0.67622 0.17392 0.26843 0.0
H78 H 0.62243 0.07179 0.1884 0.0
H79 H 0.79872 0.99191 0.89502 0.0
H80 H 0.68153 0.01382 0.89648 0.0
H81 H 0.66466 0.92664 0.09915 0.0
H82 H 0.78003 0.90287 0.09706 0.0
H83 H 0.68786 0.06944 0.08189 0.0
H84 H 0.49681 0.82331 0.98447 0.0
H85 H 0.44456 0.7227 0.90363 0.0
H86 H 0.38307 0.82857 0.72794 0.0
H87 H 0.43701 0.9308 0.80789 0.0
C88 C 0.28941 0.02478 0.0568 0.0
C89 C 0.26138 0.05679 0.00089 0.0
C90 C 0.35628 0.0125 0.05592 0.0
C91 C 0.39483 0.0309 -0.00142 0.0
C92 C 0.36575 0.06181 0.94215 0.0
C93 C 0.30036 0.07554 0.94371 0.0
C94 C 0.46575 0.01796 0.9978 0.0
C95 C 0.44109 0.96359 0.95034 0.0
C96 C 0.55566 0.05663 0.0458 0.0
C97 C 0.58712 0.11741 0.09425 0.0
C98 C 0.58589 0.17694 0.06787 0.0
C99 C 0.61606 0.23435 0.11357 0.0
C100 C 0.64855 0.23326 0.18581 0.0
C101 C 0.65089 0.17465 0.21246 0.0
C102 C 0.62051 0.11695 0.16694 0.0
C103 C 0.76974 0.97735 0.93973 0.0
C104 C 0.7978 0.94551 0.9958 0.0
C105 C 0.70294 0.98976 0.94047 0.0
C106 C 0.66447 0.97163 0.99784 0.0
C107 C 0.69358 0.94088 0.05443 0.0
C108 C 0.75891 0.92704 0.05301 0.0
C109 C 0.59362 0.98468 -0.0015 0.0
C110 C 0.61828 0.03907 0.04594 0.0
C111 C 0.50371 0.94602 0.95049 0.0
C112 C 0.4722 0.88519 0.90209 0.0
C113 C 0.47332 0.82563 0.92853 0.0
C114 C 0.44305 0.76815 0.88287 0.0
C115 C 0.41058 0.76921 0.81062 0.0
C116 C 0.40837 0.82785 0.78391 0.0
C117 C 0.43884 0.88562 0.82939 0.0
H118 H 0.38695 0.72454 0.77536 0.0
H119 H 0.67211 0.27788 0.22111 0.0
H120 H 0.86801 0.66825 0.97787 0.0
H121 H 0.87374 0.56293 0.97609 0.0
H122 H 0.17559 0.70396 0.03416 0.0
H123 H 0.17016 0.80954 0.03589 0.0
H124 H 0.10517 0.60423 0.9258 0.0
H125 H 0.06567 0.60509 0.15383 0.0
H126 H 0.99239 0.60732 0.24024 0.0
H127 H 0.73543 0.40656 0.14393 0.0
H128 H 0.80674 0.40335 0.05625 0.0
H129 H 0.1906 0.33346 0.01908 0.0
H130 H 0.18479 0.43872 0.02086 0.0
H131 H 0.88294 0.29761 0.96268 0.0
H132 H 0.88846 0.19207 0.96096 0.0
H133 H 0.9533 0.39737 0.07107 0.0
H134 H 0.99314 0.39652 0.8431 0.0
H135 H 0.06665 0.39446 0.75679 0.0
H136 H 0.3233 0.5954 0.85313 0.0
H137 H 0.25176 0.59842 0.94072 0.0
C138 C 0.9355 0.67663 0.99044 0.0
C139 C 1.01864 0.74672 0.00724 0.0
C140 C 0.9387 0.61654 0.98964 0.0
C141 C 1.0251 0.62568 0.0056 0.0
C142 C 0.10826 0.69583 0.02184 0.0
C143 C 0.10508 0.75592 0.02303 0.0
C144 C 1.02855 0.56206 0.00422 0.0
C145 C 0.07319 0.55944 0.95829 0.0
C146 C 0.98469 0.50295 0.04539 0.0
C147 C 0.9413 0.50449 0.09792 0.0
C148 C 0.99325 0.56172 0.15062 0.0
C149 C 0.95213 0.56303 0.19994 0.0
C150 C 0.85923 0.50714 0.19743 0.0
C151 C 0.80733 0.44972 0.14571 0.0
C152 C 0.8481 0.44811 0.09622 0.0
C153 C 0.1231 0.32504 0.00649 0.0
C154 C 0.03998 0.25494 0.98966 0.0
C155 C 0.11984 0.38511 0.00729 0.0
C156 C 0.03342 0.37593 0.99129 0.0
C157 C 0.95029 0.30578 0.97503 0.0
C158 C 0.95352 0.2457 0.97384 0.0
C159 C 0.02994 0.43954 0.99265 0.0
C160 C 0.98528 0.44216 0.03858 0.0
C161 C 0.07382 0.49866 0.95149 0.0
C162 C 0.11735 0.49719 0.89903 0.0
C163 C 0.06554 0.43996 0.84634 0.0
C164 C 0.1068 0.43874 0.79708 0.0
C165 C 0.19967 0.49473 0.79962 0.0
C166 C 0.25141 0.55215 0.85133 0.0
C167 C 0.21052 0.55366 0.90077 0.0
H168 H 0.2315 0.4937 0.76142 0.0
H169 H 0.82749 0.50824 0.23566 0.0
loop_
_geom_bond_atom_site_label_1
_geom_bond_atom_site_label_2
_geom_bond_distance
_geom_bond_site_symmetry_2
_ccdc_geom_bond_type
Tb0 O3 2.453 . S
Tb0 O4 2.596 1_545 S
Tb0 O5 2.374 1_554 S
Tb0 O13 2.343 1_454 S
Tb0 O15 2.353 . S
Tb0 O17 2.427 . S
Tb0 O18 2.513 1_554 S
C1 O5 1.251 1_655 S
C1 O7 1.263 1_545 S
Tb2 O4 2.343 1_656 S
Tb2 O7 2.353 . S
Tb2 O10 2.427 . S
Tb2 O11 2.513 1_556 S
Tb2 O12 2.453 . S
Tb2 O13 2.596 1_565 S
Tb2 O14 2.374 1_556 S
O3 Tb0 2.453 . S
O3 C19 1.245 . S
O4 Tb0 2.596 1_565 S
O4 Tb2 2.343 1_454 S
O4 C19 1.259 1_565 S
O5 Tb0 2.374 1_556 S
O5 C1 1.251 1_455 S
C6 O10 1.273 1_554 S
C6 O11 1.247 . S
O7 C1 1.263 1_565 S
O7 Tb2 2.353 . S
C8 O12 1.245 . S
C8 O13 1.259 1_565 S
C9 O14 1.250 1_455 S
C9 O15 1.263 1_565 S
O10 Tb2 2.427 . S
O10 C6 1.273 1_556 S
O11 Tb2 2.513 1_554 S
O11 C6 1.247 . S
O12 Tb2 2.453 . S
O12 C8 1.245 . S
O13 Tb0 2.343 1_656 S
O13 Tb2 2.596 1_545 S
O13 C8 1.259 1_545 S
O14 Tb2 2.374 1_554 S
O14 C9 1.250 1_655 S
O15 Tb0 2.353 . S
O15 C9 1.263 1_545 S
C16 O17 1.273 . S
C16 O18 1.247 1_554 S
O17 Tb0 2.427 . S
O17 C16 1.273 . S
O18 Tb0 2.513 1_556 S
O18 C16 1.247 1_556 S
C19 O3 1.245 . S
C19 O4 1.259 1_545 S
H20 C38 0.951 . S
H21 C40 0.951 . S
H22 C42 0.950 . S
H23 C43 0.950 . S
H24 C45 0.950 . S
H25 C48 0.950 . S
H26 C49 0.950 . S
H27 C51 0.950 . S
H28 C52 0.950 1_655 S
H29 C53 0.951 . S
H30 C55 0.951 . S
H31 C57 0.950 . S
H32 C58 0.950 . S
H33 C60 0.950 . S
H34 C63 0.950 . S
H35 C64 0.950 . S
H36 C66 0.950 . S
H37 C67 0.950 1_455 S
C38 H20 0.951 . S
C38 C39 1.369 1_645 S
C38 C40 1.388 . S
C39 C38 1.369 1_465 S
C39 C43 1.382 . S
C40 H21 0.951 . S
C40 C38 1.388 . S
C40 C41 1.366 1_655 S
C41 C40 1.366 1_455 S
C41 C42 1.414 1_545 S
C41 C44 1.499 . S
C42 H22 0.950 . S
C42 C41 1.414 1_565 S
C42 C43 1.374 . S
C43 H23 0.950 . S
C43 C39 1.382 . S
C43 C42 1.374 . S
C44 C41 1.499 . S
C44 C45 1.373 1_445 S
C44 C46 1.389 . S
C45 H24 0.950 . S
C45 C44 1.373 1_665 S
C45 C61 1.377 . S
C46 C44 1.389 . S
C46 C47 1.524 . S
C46 C60 1.377 . S
C47 C46 1.524 . S
C47 C48 1.397 . S
C47 C52 1.363 . S
C48 H25 0.950 . S
C48 C47 1.397 . S
C48 C49 1.334 . S
C49 H26 0.950 . S
C49 C48 1.334 . S
C49 C50 1.287 . S
C50 C49 1.287 . S
C50 C51 1.524 . S
C50 H69 0.913 . S
C51 H27 0.950 . S
C51 C50 1.524 . S
C51 C52 1.415 . S
C52 H28 0.950 1_455 S
C52 C47 1.363 . S
C52 C51 1.415 . S
C53 H29 0.951 . S
C53 C54 1.365 1_565 S
C53 C55 1.388 . S
C54 C53 1.365 1_545 S
C54 C58 1.385 1_455 S
C55 H30 0.951 . S
C55 C53 1.388 . S
C55 C56 1.366 1_455 S
C56 C55 1.366 1_655 S
C56 C57 1.414 1_565 S
C56 C59 1.499 . S
C57 H31 0.950 . S
C57 C56 1.414 1_545 S
C57 C58 1.374 . S
C58 H32 0.950 . S
C58 C54 1.385 1_655 S
C58 C57 1.374 . S
C59 C56 1.499 . S
C59 C60 1.373 1_665 S
C59 C61 1.389 . S
C60 H33 0.950 . S
C60 C46 1.377 . S
C60 C59 1.373 1_445 S
C61 C45 1.377 . S
C61 C59 1.389 . S
C61 C62 1.524 . S
C62 C61 1.524 . S
C62 C63 1.397 . S
C62 C67 1.363 . S
C63 H34 0.950 . S
C63 C62 1.397 . S
C63 C64 1.334 . S
C64 H35 0.950 . S
C64 C63 1.334 . S
C64 C65 1.287 . S
C65 C64 1.287 . S
C65 C66 1.524 . S
C65 H68 0.999 . S
C66 H36 0.950 . S
C66 C65 1.524 . S
C66 C67 1.415 . S
C67 H37 0.950 1_655 S
C67 C62 1.363 . S
C67 C66 1.415 . S
H68 C65 0.999 . S
H69 C50 0.913 . S
H70 C88 0.951 . S
H71 C90 0.951 . S
H72 C92 0.950 . S
H73 C93 0.950 . S
H74 C95 0.950 . S
H75 C98 0.950 1_556 S
H76 C99 0.950 . S
H77 C101 0.950 . S
H78 C102 0.950 . S
H79 C103 0.951 . S
H80 C105 0.951 . S
H81 C107 0.950 . S
H82 C108 0.950 . S
H83 C110 0.950 . S
H84 C113 0.950 1_554 S
H85 C114 0.950 . S
H86 C116 0.950 . S
H87 C117 0.950 . S
C88 H70 0.951 . S
C88 C89 1.365 1_545 S
C88 C90 1.388 . S
C89 C88 1.365 1_565 S
C89 C93 1.384 1_554 S
C90 H71 0.951 . S
C90 C88 1.388 . S
C90 C91 1.359 1_554 S
C91 C90 1.359 1_556 S
C91 C92 1.418 1_545 S
C91 C94 1.501 . S
C92 H72 0.950 . S
C92 C91 1.418 1_565 S
C92 C93 1.374 . S
C93 H73 0.950 . S
C93 C89 1.384 1_556 S
C93 C92 1.374 . S
C94 C91 1.501 . S
C94 C95 1.373 1_545 S
C94 C96 1.389 1_556 S
C95 H74 0.950 . S
C95 C94 1.373 1_565 S
C95 C111 1.377 . S
C96 C94 1.389 1_554 S
C96 C97 1.524 . S
C96 C110 1.377 . S
C97 C96 1.524 . S
C97 C98 1.397 . S
C97 C102 1.363 . S
C98 H75 0.950 1_554 S
C98 C97 1.397 . S
C98 C99 1.334 . S
C99 H76 0.950 . S
C99 C98 1.334 . S
C99 C100 1.287 . S
C100 C99 1.287 . S
C100 C101 1.524 . S
C100 H119 0.913 . S
C101 H77 0.950 . S
C101 C100 1.524 . S
C101 C102 1.415 . S
C102 H78 0.950 . S
C102 C97 1.363 . S
C102 C101 1.415 . S
C103 H79 0.951 . S
C103 C104 1.366 1_566 S
C103 C105 1.388 . S
C104 C103 1.366 1_544 S
C104 C108 1.386 . S
C105 H80 0.951 . S
C105 C103 1.388 . S
C105 C106 1.355 1_556 S
C106 C105 1.355 1_554 S
C106 C107 1.421 1_565 S
C106 C109 1.502 . S
C107 H81 0.950 . S
C107 C106 1.421 1_545 S
C107 C108 1.374 . S
C108 H82 0.950 . S
C108 C104 1.386 . S
C108 C107 1.374 . S
C109 C106 1.502 . S
C109 C110 1.373 1_565 S
C109 C111 1.389 1_554 S
C110 H83 0.950 . S
C110 C96 1.377 . S
C110 C109 1.373 1_545 S
C111 C95 1.377 . S
C111 C109 1.389 1_556 S
C111 C112 1.524 . S
C112 C111 1.524 . S
C112 C113 1.397 . S
C112 C117 1.363 . S
C113 H84 0.950 1_556 S
C113 C112 1.397 . S
C113 C114 1.334 . S
C114 H85 0.950 . S
C114 C113 1.334 . S
C114 C115 1.287 . S
C115 C114 1.287 . S
C115 C116 1.524 . S
C115 H118 0.999 . S
C116 H86 0.950 . S
C116 C115 1.524 . S
C116 C117 1.415 . S
C117 H87 0.950 . S
C117 C112 1.363 . S
C117 C116 1.415 . S
H118 C115 0.999 . S
H119 C100 0.913 . S
H120 C138 0.951 . S
H121 C140 0.951 . S
H122 C142 0.950 . S
H123 C143 0.950 . S
H124 C145 0.950 . S
H125 C148 0.950 1_455 S
H126 C149 0.950 . S
H127 C151 0.950 . S
H128 C152 0.950 . S
H129 C153 0.951 . S
H130 C155 0.951 . S
H131 C157 0.950 . S
H132 C158 0.950 . S
H133 C160 0.950 . S
H134 C163 0.950 1_655 S
H135 C164 0.950 . S
H136 C166 0.950 . S
H137 C167 0.950 . S
C138 H120 0.951 . S
C138 C139 1.366 1_655 S
C138 C140 1.388 . S
C139 C138 1.366 1_455 S
C139 C143 1.385 1_556 S
C140 H121 0.951 . S
C140 C138 1.388 . S
C140 C141 1.366 1_656 S
C141 C140 1.366 1_454 S
C141 C142 1.414 . S
C141 C144 1.499 . S
C142 H122 0.950 . S
C142 C141 1.414 . S
C142 C143 1.374 . S
C143 H123 0.950 . S
C143 C139 1.385 1_554 S
C143 C142 1.374 . S
C144 C141 1.499 . S
C144 C145 1.373 1_554 S
C144 C146 1.389 1_455 S
C145 H124 0.950 . S
C145 C144 1.373 1_556 S
C145 C161 1.377 . S
C146 C144 1.389 1_655 S
C146 C147 1.524 . S
C146 C160 1.377 . S
C147 C146 1.524 . S
C147 C148 1.397 . S
C147 C152 1.363 . S
C148 H125 0.950 1_655 S
C148 C147 1.397 . S
C148 C149 1.334 . S
C149 H126 0.950 . S
C149 C148 1.334 . S
C149 C150 1.287 . S
C150 C149 1.287 . S
C150 C151 1.524 . S
C150 H169 0.913 . S
C151 H127 0.950 . S
C151 C150 1.524 . S
C151 C152 1.415 . S
C152 H128 0.950 . S
C152 C147 1.363 . S
C152 C151 1.415 . S
C153 H129 0.951 . S
C153 C154 1.365 . S
C153 C155 1.388 . S
C154 C153 1.365 . S
C154 C158 1.385 1_454 S
C155 H130 0.951 . S
C155 C153 1.388 . S
C155 C156 1.350 1_454 S
C156 C155 1.350 1_656 S
C156 C157 1.420 . S
C156 C159 1.508 . S
C157 H131 0.950 . S
C157 C156 1.420 . S
C157 C158 1.374 . S
C158 H132 0.950 . S
C158 C154 1.385 1_656 S
C158 C157 1.374 . S
C159 C156 1.508 . S
C159 C160 1.373 1_556 S
C159 C161 1.389 1_655 S
C160 H133 0.950 . S
C160 C146 1.377 . S
C160 C159 1.373 1_554 S
C161 C145 1.377 . S
C161 C159 1.389 1_455 S
C161 C162 1.524 . S
C162 C161 1.524 . S
C162 C163 1.397 . S
C162 C167 1.363 . S
C163 H134 0.950 1_455 S
C163 C162 1.397 . S
C163 C164 1.334 . S
C164 H135 0.950 . S
C164 C163 1.334 . S
C164 C165 1.287 . S
C165 C164 1.287 . S
C165 C166 1.524 . S
C165 H168 0.999 . S
C166 H136 0.950 . S
C166 C165 1.524 . S
C166 C167 1.415 . S
C167 H137 0.950 . S
C167 C162 1.363 . S
C167 C166 1.415 . S
H168 C165 0.999 . S
H169 C150 0.913 . S
C39 C9 1.487 . S
C54 C1 1.487 1_455 S
C89 C19 1.447 1_565 S
C104 C8 1.443 1_544 S
C139 C6 1.477 1_456 S
C154 C16 1.476 . S
