# Generated by pormake.
# Topology pcu, (6)-cn, num edge types: 1
# Building blocks:
#     Node 0, Type 0, BuildingBlock: BETGAK_clean_sbu_0, # of connection points: 6
#     Edge 1, Type (0, 0), BuildingBlock: AJUNOK_clean_linker_0, # of connection points: 2
#     Edge 2, Type (0, 0), BuildingBlock: AJUNOK_clean_linker_0, # of connection points: 2
#     Edge 3, Type (0, 0), BuildingBlock: AJUNOK_clean_linker_0, # of connection points: 2
# Relax obj value: 0.000
# Max RMSD: 0.000
# Mean RMSD: 0.000
data_MOF--net-pcu--node1-BETGAK_clean_sbu_0--edge1-AJUNOK_clean_linker_0
_symmetry_space_group_name_H-M    P1
_symmetry_Int_Tables_number       1
_symmetry_cell_setting            triclinic
loop_
_symmetry_equiv_pos_as_xyz
'x, y, z'
_cell_length_a     11.382479
_cell_length_b     21.013049
_cell_length_c     10.264731
_cell_angle_alpha  96.657383
_cell_angle_beta   88.605625
_cell_angle_gamma 121.45442
loop_
_atom_site_label
_atom_site_type_symbol
_atom_site_fract_x
_atom_site_fract_y
_atom_site_fract_z
_atom_type_partial_charge
La0 La 0.12222 0.11984 1.02994 0.0
La1 La 0.95541 0.95364 1.03676 0.0
C2 C 0.2172 0.25141 0.97335 0.0
C3 C 0.17687 0.30848 0.98969 0.0
C4 C 0.22325 0.36237 0.10136 0.0
C5 C 0.18856 0.4175 0.11555 0.0
C6 C 0.10729 0.42025 1.01816 0.0
C7 C 0.06202 0.36698 0.90588 0.0
C8 C 0.09641 0.31167 0.89174 0.0
C9 C 0.0896 0.07784 0.26686 0.0
C10 C 0.79184 1.03356 1.03773 0.0
C11 C 0.8603 0.82165 0.09095 0.0
C12 C 0.90381 0.76594 0.07989 0.0
C13 C 0.86102 0.71121 0.96976 0.0
C14 C 0.89693 0.65664 0.96111 0.0
C15 C 0.97505 0.65497 0.063 0.0
C16 C 1.01892 0.70995 0.17267 0.0
C17 C 0.98331 0.7647 0.18128 0.0
C18 C 0.99196 0.99716 0.79989 0.0
C19 C 0.28452 0.03848 1.03068 0.0
O20 O 0.25258 0.23607 0.08034 0.0
O21 O 0.14124 0.19069 0.89153 0.0
O22 O 0.19793 0.1368 0.23182 0.0
O23 O 0.99992 0.04834 0.17392 0.0
O24 O 0.90843 0.09378 1.00947 0.0
O25 O 0.79017 0.97466 0.07292 0.0
O26 O 0.83104 0.83743 0.98114 0.0
O27 O 0.92947 0.88182 0.17578 0.0
O28 O 0.88123 0.93883 0.83355 0.0
O29 O 0.07926 1.02522 0.89438 0.0
O30 O 0.16748 0.97947 0.06071 0.0
O31 O 0.28842 0.09825 0.99614 0.0
H32 H 0.2875 0.36246 0.17759 0.0
H33 H 0.22743 0.45886 0.20175 0.0
H34 H 0.99939 0.36793 0.82921 0.0
H35 H 0.06046 0.27167 0.80371 0.0
H36 H 0.79835 0.70996 0.89062 0.0
H37 H 0.8611 0.61469 0.87578 0.0
H38 H 0.08135 0.71082 0.25162 0.0
H39 H 1.01754 0.80578 0.26777 0.0
C40 C 0.93604 1.00147 0.43801 0.0
C41 C 0.06708 0.05708 0.4023 0.0
C42 C 0.91264 0.98262 0.56699 0.0
C43 C 1.01947 1.01861 0.66485 0.0
H44 H 0.85051 0.97263 0.36611 0.0
H45 H 0.80997 0.93971 0.5902 0.0
S46 S 0.38284 0.16609 0.6204 0.0
N47 N 0.30591 0.14662 0.47451 0.0
N48 N 0.26212 0.11106 0.71579 0.0
C49 C 0.15122 0.07375 0.62992 0.0
C50 C 0.17499 0.09298 0.49891 0.0
C51 C 0.54186 0.10188 1.0274 0.0
C52 C 0.41212 1.03563 1.03032 0.0
C53 C 0.66399 0.10075 1.02952 0.0
C54 C 0.66127 1.03333 1.03473 0.0
H55 H 0.5496 0.15532 1.02484 0.0
H56 H 0.76125 0.1534 1.02826 0.0
S57 S 0.34749 0.84315 1.03356 0.0
N58 N 0.28825 0.89989 1.03181 0.0
N59 N 0.51685 0.8978 1.03571 0.0
C60 C 0.532 0.96641 1.03536 0.0
C61 C 0.40778 0.96755 1.0332 0.0
C62 C 0.06439 0.5797 0.93985 0.0
C63 C 1.00934 0.59541 0.05468 0.0
C64 C 0.09533 0.52288 0.92874 0.0
C65 C 0.0725 0.47967 1.03206 0.0
H66 H 0.08485 0.61204 0.85832 0.0
H67 H 0.13899 0.51327 0.8391 0.0
S68 S 0.92033 0.49455 0.34939 0.0
N69 N 0.92677 0.5606 0.27108 0.0
N70 N 0.9853 0.454 0.25031 0.0
C71 C 1.01623 0.49429 0.14687 0.0
C72 C 0.98462 0.55208 0.15815 0.0
loop_
_geom_bond_atom_site_label_1
_geom_bond_atom_site_label_2
_geom_bond_distance
_geom_bond_site_symmetry_2
_ccdc_geom_bond_type
La0 C2 2.928 . S
La0 O20 2.521 . S
La0 O21 2.628 1_554 S
La0 O22 2.554 . S
La0 O23 2.757 1_545 S
La0 O24 2.470 1_455 S
La0 O29 2.482 1_454 S
La0 O31 2.503 . S
La1 C11 2.928 . S
La1 O23 2.482 1_656 S
La1 O25 2.503 . S
La1 O26 2.521 . S
La1 O27 2.628 1_556 S
La1 O28 2.554 . S
La1 O29 2.757 1_565 S
La1 O30 2.470 1_655 S
C2 La0 2.928 . S
C2 C3 1.503 . S
C2 O20 1.261 . S
C2 O21 1.243 1_554 S
C3 C2 1.503 . S
C3 C4 1.394 . S
C3 C8 1.373 1_454 S
C4 C3 1.394 . S
C4 C5 1.380 . S
C4 H32 0.930 . S
C5 C4 1.380 . S
C5 C6 1.376 . S
C5 H33 0.930 . S
C6 C5 1.376 . S
C6 C7 1.370 1_454 S
C7 C6 1.370 1_656 S
C7 C8 1.396 . S
C7 H34 0.929 . S
C8 C3 1.373 1_656 S
C8 C7 1.396 . S
C8 H35 0.929 . S
C9 O22 1.240 . S
C9 O23 1.289 1_545 S
C10 O24 1.258 1_565 S
C10 O25 1.255 1_554 S
C11 La1 2.928 . S
C11 C12 1.503 . S
C11 O26 1.261 . S
C11 O27 1.243 1_556 S
C12 C11 1.503 . S
C12 C13 1.394 . S
C12 C17 1.373 1_656 S
C13 C12 1.394 . S
C13 C14 1.380 . S
C13 H36 0.930 . S
C14 C13 1.380 . S
C14 C15 1.376 . S
C14 H37 0.930 . S
C15 C14 1.376 . S
C15 C16 1.370 1_656 S
C16 C15 1.370 1_454 S
C16 C17 1.396 . S
C16 H38 0.929 . S
C17 C12 1.373 1_454 S
C17 C16 1.396 . S
C17 H39 0.929 . S
C18 O28 1.240 . S
C18 O29 1.289 1_565 S
C19 O30 1.258 1_545 S
C19 O31 1.256 1_556 S
O20 La0 2.521 . S
O20 C2 1.261 . S
O21 La0 2.628 1_556 S
O21 C2 1.243 1_556 S
O22 La0 2.554 . S
O22 C9 1.240 . S
O23 La0 2.757 1_565 S
O23 La1 2.482 1_454 S
O23 C9 1.289 1_565 S
O24 La0 2.470 1_655 S
O24 C10 1.258 1_545 S
O25 La1 2.503 . S
O25 C10 1.255 1_556 S
O26 La1 2.521 . S
O26 C11 1.261 . S
O27 La1 2.628 1_554 S
O27 C11 1.243 1_554 S
O28 La1 2.554 . S
O28 C18 1.240 . S
O29 La0 2.482 1_656 S
O29 La1 2.757 1_545 S
O29 C18 1.289 1_545 S
O30 La1 2.470 1_455 S
O30 C19 1.258 1_565 S
O31 La0 2.503 . S
O31 C19 1.256 1_554 S
H32 C4 0.930 . S
H33 C5 0.930 . S
H34 C7 0.929 . S
H35 C8 0.929 . S
H36 C13 0.930 . S
H37 C14 0.930 . S
H38 C16 0.929 . S
H39 C17 0.929 . S
C40 C41 1.369 1_655 S
C40 C42 1.419 . S
C40 H44 0.930 . S
C41 C40 1.369 1_455 S
C41 C50 1.429 1_565 S
C42 C40 1.419 . S
C42 C43 1.364 1_655 S
C42 H45 0.929 . S
C43 C42 1.364 1_455 S
C43 C49 1.428 1_565 S
H44 C40 0.930 . S
H45 C42 0.929 . S
S46 N47 1.613 . S
S46 N48 1.610 . S
N47 S46 1.613 . S
N47 C50 1.350 . S
N48 S46 1.610 . S
N48 C49 1.351 . S
C49 C43 1.428 1_545 S
C49 N48 1.351 . S
C49 C50 1.434 . S
C50 C41 1.429 1_545 S
C50 N47 1.350 . S
C50 C49 1.434 . S
C51 C52 1.364 1_545 S
C51 C53 1.419 . S
C51 H55 0.930 . S
C52 C51 1.364 1_565 S
C52 C61 1.444 1_554 S
C53 C51 1.419 . S
C53 C54 1.352 1_545 S
C53 H56 0.929 . S
C54 C53 1.352 1_565 S
C54 C60 1.433 1_554 S
H55 C51 0.930 . S
H56 C53 0.929 . S
S57 N58 1.613 . S
S57 N59 1.610 . S
N58 S57 1.613 . S
N58 C61 1.350 . S
N59 S57 1.610 . S
N59 C60 1.351 . S
C60 C54 1.433 1_556 S
C60 N59 1.351 . S
C60 C61 1.434 . S
C61 C52 1.444 1_556 S
C61 N58 1.350 . S
C61 C60 1.434 . S
C62 C63 1.370 1_556 S
C62 C64 1.419 . S
C62 H66 0.930 . S
C63 C62 1.370 1_554 S
C63 C72 1.429 1_455 S
C64 C62 1.419 . S
C64 C65 1.363 1_556 S
C64 H67 0.929 . S
C65 C64 1.363 1_554 S
C65 C71 1.428 1_455 S
H66 C62 0.930 . S
H67 C64 0.929 . S
S68 N69 1.613 . S
S68 N70 1.610 . S
N69 S68 1.613 . S
N69 C72 1.350 . S
N70 S68 1.610 . S
N70 C71 1.351 . S
C71 C65 1.428 1_655 S
C71 N70 1.351 . S
C71 C72 1.434 . S
C72 C63 1.429 1_655 S
C72 N69 1.350 . S
C72 C71 1.434 . S
C41 C9 1.451 1_565 S
C43 C18 1.449 1_455 S
C52 C19 1.475 1_564 S
C54 C10 1.490 . S
C63 C15 1.498 1_454 S
C65 C6 1.499 . S
