# Generated by pormake.
# Topology sow, (4)-cn, num edge types: 1
# Building blocks:
#     Node 0, Type 0, BuildingBlock: QUQFOY_clean_sbu_1, # of connection points: 4
#     Node 1, Type 0, BuildingBlock: QUQFOY_clean_sbu_1, # of connection points: 4
#     Node 2, Type 0, BuildingBlock: QUQFOY_clean_sbu_1, # of connection points: 4
#     Node 3, Type 0, BuildingBlock: QUQFOY_clean_sbu_1, # of connection points: 4
#     Node 4, Type 0, BuildingBlock: QUQFOY_clean_sbu_1, # of connection points: 4
#     Node 5, Type 0, BuildingBlock: QUQFOY_clean_sbu_1, # of connection points: 4
#     Node 6, Type 0, BuildingBlock: QUQFOY_clean_sbu_1, # of connection points: 4
#     Node 7, Type 0, BuildingBlock: QUQFOY_clean_sbu_1, # of connection points: 4
#     Edge 8, Type (0, 0), BuildingBlock: EYOCIG_clean_linker_4, # of connection points: 2
#     Edge 9, Type (0, 0), BuildingBlock: EYOCIG_clean_linker_4, # of connection points: 2
#     Edge 10, Type (0, 0), BuildingBlock: EYOCIG_clean_linker_4, # of connection points: 2
#     Edge 11, Type (0, 0), BuildingBlock: EYOCIG_clean_linker_4, # of connection points: 2
#     Edge 12, Type (0, 0), BuildingBlock: EYOCIG_clean_linker_4, # of connection points: 2
#     Edge 13, Type (0, 0), BuildingBlock: EYOCIG_clean_linker_4, # of connection points: 2
#     Edge 14, Type (0, 0), BuildingBlock: EYOCIG_clean_linker_4, # of connection points: 2
#     Edge 15, Type (0, 0), BuildingBlock: EYOCIG_clean_linker_4, # of connection points: 2
#     Edge 16, Type (0, 0), BuildingBlock: EYOCIG_clean_linker_4, # of connection points: 2
#     Edge 17, Type (0, 0), BuildingBlock: EYOCIG_clean_linker_4, # of connection points: 2
#     Edge 18, Type (0, 0), BuildingBlock: EYOCIG_clean_linker_4, # of connection points: 2
#     Edge 19, Type (0, 0), BuildingBlock: EYOCIG_clean_linker_4, # of connection points: 2
#     Edge 20, Type (0, 0), BuildingBlock: EYOCIG_clean_linker_4, # of connection points: 2
#     Edge 21, Type (0, 0), BuildingBlock: EYOCIG_clean_linker_4, # of connection points: 2
#     Edge 22, Type (0, 0), BuildingBlock: EYOCIG_clean_linker_4, # of connection points: 2
#     Edge 23, Type (0, 0), BuildingBlock: EYOCIG_clean_linker_4, # of connection points: 2
# Relax obj value: 0.066
# Max RMSD: 0.118
# Mean RMSD: 0.118
data_MOF--net-sow--node1-QUQFOY_clean_sbu_1--edge1-EYOCIG_clean_linker_4
_symmetry_space_group_name_H-M    P1
_symmetry_Int_Tables_number       1
_symmetry_cell_setting            triclinic
loop_
_symmetry_equiv_pos_as_xyz
'x, y, z'
_cell_length_a     30.340852
_cell_length_b     26.918398
_cell_length_c     18.207565
_cell_angle_alpha  89.943811
_cell_angle_beta   89.995932
_cell_angle_gamma 90.011013
loop_
_atom_site_label
_atom_site_type_symbol
_atom_site_fract_x
_atom_site_fract_y
_atom_site_fract_z
_atom_type_partial_charge
O0 O 0.1579 0.30945 0.12201 0.0
Cd1 Cd 0.10757 0.32968 0.05212 0.0
Cd2 Cd 0.07404 0.24027 0.11125 0.0
O3 O 0.13763 0.23293 0.1515 0.0
O4 O 0.13459 0.38187 0.98874 0.0
O5 O 0.10922 0.31047 0.94525 0.0
C6 C 0.12858 0.3525 0.93395 0.0
C7 C 0.0325 0.17205 0.07068 0.0
C8 C 0.16511 0.26856 0.15462 0.0
C9 C 0.03202 0.33995 0.15126 0.0
O10 O 0.03678 0.29378 0.16305 0.0
O11 O 0.05448 0.36246 0.10283 0.0
O12 O 0.04219 0.1776 0.13894 0.0
O13 O 0.04811 0.20369 1.02416 0.0
O14 O 0.26643 0.3515 0.62193 0.0
Cd15 Cd 0.31677 0.33133 0.55207 0.0
Cd16 Cd 0.35017 0.42086 0.61092 0.0
O17 O 0.28655 0.42809 0.65107 0.0
O18 O 0.2898 0.27906 0.48893 0.0
O19 O 0.31505 0.3505 0.44514 0.0
C20 C 0.29574 0.30843 0.43402 0.0
C21 C 0.39166 0.48919 0.57037 0.0
C22 C 0.25914 0.3924 0.65435 0.0
C23 C 0.39233 0.32126 0.65125 0.0
O24 O 0.38748 0.36742 0.66289 0.0
O25 O 0.36992 0.29869 0.60288 0.0
O26 O 0.38192 0.48357 0.63861 0.0
O27 O 0.37614 0.45756 0.52384 0.0
O28 O 0.65784 0.35189 0.92842 0.0
Cd29 Cd 0.60755 0.33165 0.9984 0.0
Cd30 Cd 0.57405 0.42112 0.93934 0.0
O31 O 0.63763 0.42843 0.89902 0.0
O32 O 0.63458 0.27941 0.06165 0.0
O33 O 0.6093 0.35081 0.10528 0.0
C34 C 0.62863 0.30876 0.11649 0.0
C35 C 0.53257 0.48936 0.97998 0.0
C36 C 0.66508 0.39278 0.89583 0.0
C37 C 0.53194 0.32146 0.89935 0.0
O38 O 0.53674 0.36763 0.88757 0.0
O39 O 0.5544 0.29893 0.94775 0.0
O40 O 0.54223 0.48381 0.9117 0.0
O41 O 0.54817 0.4577 0.02647 0.0
O42 O 0.76651 0.30971 0.42847 0.0
Cd43 Cd 0.81681 0.32994 0.49839 0.0
Cd44 Cd 0.8503 0.24044 0.4395 0.0
O45 O 0.7867 0.23316 0.39925 0.0
O46 O 0.78978 0.3822 0.56147 0.0
O47 O 0.81504 0.31079 0.60534 0.0
C48 C 0.79571 0.35285 0.61641 0.0
C49 C 0.8918 0.17213 0.48006 0.0
C50 C 0.75927 0.26882 0.39599 0.0
C51 C 0.89243 0.34011 0.39931 0.0
O52 O 0.88761 0.29395 0.38764 0.0
O53 O 0.86997 0.36264 0.44766 0.0
O54 O 0.8821 0.17778 0.4118 0.0
O55 O 0.87623 0.20373 0.52658 0.0
O56 O 0.76639 0.85171 0.92868 0.0
Cd57 Cd 0.81673 0.83152 0.99858 0.0
Cd58 Cd 0.85015 0.921 0.93958 0.0
O59 O 0.78655 0.92829 0.89936 0.0
O60 O 0.78975 0.77931 0.06196 0.0
O61 O 0.81504 0.85076 0.10543 0.0
C62 C 0.79572 0.80871 0.11675 0.0
C63 C 0.89163 0.98924 0.98027 0.0
C64 C 0.75912 0.89262 0.89616 0.0
C65 C 0.89229 0.82142 0.89944 0.0
O66 O 0.88746 0.86758 0.88769 0.0
O67 O 0.86986 0.79885 0.94786 0.0
O68 O 0.88195 0.98373 0.912 0.0
O69 O 0.87605 0.95753 0.02674 0.0
O70 O 0.65783 0.80982 0.42876 0.0
Cd71 Cd 0.60749 0.83 0.49861 0.0
Cd72 Cd 0.57405 0.74051 0.43975 0.0
O73 O 0.63767 0.73325 0.39959 0.0
O74 O 0.63448 0.88222 0.56183 0.0
O75 O 0.60918 0.81078 0.60553 0.0
C76 C 0.62851 0.85283 0.6167 0.0
C77 C 0.53254 0.6722 0.48032 0.0
C78 C 0.6651 0.76892 0.39633 0.0
C79 C 0.53194 0.84014 0.39943 0.0
O80 O 0.53676 0.79398 0.38778 0.0
O81 O 0.55436 0.86269 0.44781 0.0
O82 O 0.54227 0.67782 0.41207 0.0
O83 O 0.54808 0.70383 0.52683 0.0
O84 O 0.26649 0.80961 0.12211 0.0
Cd85 Cd 0.31681 0.82984 0.05216 0.0
Cd86 Cd 0.35028 0.74039 0.11117 0.0
O87 O 0.28669 0.73306 0.15147 0.0
O88 O 0.2898 0.88205 0.98883 0.0
O89 O 0.3151 0.81063 0.94529 0.0
C90 C 0.29577 0.85268 0.93402 0.0
C91 C 0.39177 0.67217 0.07049 0.0
C92 C 0.25925 0.76871 0.15467 0.0
C93 C 0.39239 0.84003 0.15125 0.0
O94 O 0.38759 0.79385 0.163 0.0
O95 O 0.36994 0.86257 0.10284 0.0
O96 O 0.3821 0.67769 0.13877 0.0
O97 O 0.37617 0.70384 1.02402 0.0
O98 O 0.15788 0.8516 0.62206 0.0
Cd99 Cd 0.10756 0.83141 0.55218 0.0
Cd100 Cd 0.07415 0.92094 0.61095 0.0
O101 O 0.13776 0.9282 0.65115 0.0
O102 O 0.13454 0.77915 0.48904 0.0
O103 O 0.10931 0.85059 0.44524 0.0
C104 C 0.12862 0.80852 0.43413 0.0
C105 C 0.03267 0.98923 0.57029 0.0
C106 C 0.16516 0.89251 0.65447 0.0
C107 C 0.03196 0.82133 0.65131 0.0
O108 O 0.03681 0.8675 0.66294 0.0
O109 O 0.05438 0.79876 0.60295 0.0
O110 O 0.04239 0.98364 0.63855 0.0
O111 O 0.04822 0.95758 0.52382 0.0
C112 C 0.19325 0.3898 0.74863 0.0
C113 C 0.22374 0.39407 0.7066 0.0
C114 C 0.16479 0.37779 0.80747 0.0
C115 C 0.14756 0.36447 0.86386 0.0
C116 C 0.231 0.27109 0.2489 0.0
C117 C 0.2005 0.26686 0.20689 0.0
C118 C 0.25947 0.28309 0.30768 0.0
C119 C 0.27672 0.29642 0.36402 0.0
C120 C 0.6934 0.27139 0.30168 0.0
C121 C 0.72389 0.26714 0.34371 0.0
C122 C 0.66493 0.28341 0.24287 0.0
C123 C 0.64767 0.29675 0.18651 0.0
C124 C 0.73094 0.39024 0.80149 0.0
C125 C 0.70045 0.39448 0.84353 0.0
C126 C 0.75941 0.37821 0.74271 0.0
C127 C 0.77667 0.36487 0.6864 0.0
C128 C 0.75947 0.78345 0.24321 0.0
C129 C 0.77671 0.79675 0.18682 0.0
C130 C 0.731 0.77147 0.30205 0.0
C131 C 0.7005 0.76724 0.34407 0.0
C132 C 0.66477 0.8781 0.74308 0.0
C133 C 0.64752 0.8648 0.68673 0.0
C134 C 0.69323 0.89008 0.80188 0.0
C135 C 0.72373 0.89431 0.8439 0.0
C136 C 0.2595 0.87796 0.80759 0.0
C137 C 0.27676 0.86465 0.86397 0.0
C138 C 0.23104 0.88996 0.74876 0.0
C139 C 0.20055 0.8942 0.70673 0.0
C140 C 0.19338 0.77122 0.249 0.0
C141 C 0.22387 0.767 0.20696 0.0
C142 C 0.16491 0.78321 0.3078 0.0
C143 C 0.14765 0.79652 0.36413 0.0
C144 C -0.02286 0.3786 0.24562 0.0
C145 C 0.00283 0.36677 0.19847 0.0
C146 C 0.94739 0.37866 0.30488 0.0
C147 C 0.92167 0.3669 0.35206 0.0
C148 C 0.44727 0.28279 0.74576 0.0
C149 C 0.42157 0.29452 0.69855 0.0
C150 C 0.47702 0.28285 0.80502 0.0
C151 C 0.50272 0.29466 0.85216 0.0
C152 C -0.02302 0.78285 0.74579 0.0
C153 C 0.0027 0.79459 0.6986 0.0
C154 C 0.94722 0.78288 0.80505 0.0
C155 C 0.92152 0.79466 0.85221 0.0
C156 C 0.44729 0.87862 0.24563 0.0
C157 C 0.4216 0.86682 0.19847 0.0
C158 C 0.47703 0.87865 0.30492 0.0
C159 C 0.50272 0.8669 0.35213 0.0
C160 C -0.02267 0.0999 0.03338 0.0
C161 C 0.00259 0.1332 0.04833 0.0
C162 C 0.94678 1.06139 1.01765 0.0
C163 C 0.92154 1.02807 1.00267 0.0
C164 C 0.47737 0.59998 0.51753 0.0
C165 C 0.50262 0.63333 0.50263 0.0
C166 C 0.44682 0.56143 0.53317 0.0
C167 C 0.42158 0.52808 0.54807 0.0
C168 C 0.4469 0.60002 0.03309 0.0
C169 C 0.42167 0.63334 0.04809 0.0
C170 C 0.47744 0.56152 1.01733 0.0
C171 C 0.50267 0.52819 1.00235 0.0
C172 C -0.02248 1.06141 0.53298 0.0
C173 C 0.00276 1.02808 0.54792 0.0
C174 C 0.94696 0.09994 0.51729 0.0
C175 C 0.92172 0.13327 0.50237 0.0
loop_
_geom_bond_atom_site_label_1
_geom_bond_atom_site_label_2
_geom_bond_distance
_geom_bond_site_symmetry_2
_ccdc_geom_bond_type
O0 Cd1 2.223 . S
O0 C8 1.315 . S
Cd1 O0 2.223 . S
Cd1 O4 2.297 1_554 S
Cd1 O5 2.439 1_554 S
Cd1 O11 2.240 . S
Cd2 O3 2.240 . S
Cd2 O10 2.223 . S
Cd2 O12 2.297 . S
Cd2 O13 2.440 1_554 S
O3 Cd2 2.240 . S
O3 C8 1.279 . S
O4 Cd1 2.297 1_556 S
O4 C6 1.247 . S
O5 Cd1 2.439 1_556 S
O5 C6 1.208 . S
C6 O4 1.247 . S
C6 O5 1.208 . S
C7 O12 1.247 . S
C7 O13 1.209 1_554 S
C8 O0 1.315 . S
C8 O3 1.279 . S
C9 O10 1.315 . S
C9 O11 1.279 . S
O10 Cd2 2.223 . S
O10 C9 1.315 . S
O11 Cd1 2.240 . S
O11 C9 1.279 . S
O12 Cd2 2.297 . S
O12 C7 1.247 . S
O13 Cd2 2.440 1_556 S
O13 C7 1.209 1_556 S
O14 Cd15 2.223 . S
O14 C22 1.315 . S
Cd15 O14 2.223 . S
Cd15 O18 2.297 . S
Cd15 O19 2.439 . S
Cd15 O25 2.240 . S
Cd16 O17 2.240 . S
Cd16 O24 2.223 . S
Cd16 O26 2.297 . S
Cd16 O27 2.439 . S
O17 Cd16 2.240 . S
O17 C22 1.279 . S
O18 Cd15 2.297 . S
O18 C20 1.247 . S
O19 Cd15 2.439 . S
O19 C20 1.208 . S
C20 O18 1.247 . S
C20 O19 1.208 . S
C21 O26 1.247 . S
C21 O27 1.208 . S
C22 O14 1.315 . S
C22 O17 1.279 . S
C23 O24 1.315 . S
C23 O25 1.279 . S
O24 Cd16 2.223 . S
O24 C23 1.315 . S
O25 Cd15 2.240 . S
O25 C23 1.279 . S
O26 Cd16 2.297 . S
O26 C21 1.247 . S
O27 Cd16 2.439 . S
O27 C21 1.208 . S
O28 Cd29 2.223 . S
O28 C36 1.315 . S
Cd29 O28 2.223 . S
Cd29 O32 2.297 1_556 S
Cd29 O33 2.439 1_556 S
Cd29 O39 2.240 . S
Cd30 O31 2.240 . S
Cd30 O38 2.223 . S
Cd30 O40 2.297 . S
Cd30 O41 2.440 1_556 S
O31 Cd30 2.240 . S
O31 C36 1.279 . S
O32 Cd29 2.297 1_554 S
O32 C34 1.247 . S
O33 Cd29 2.439 1_554 S
O33 C34 1.208 . S
C34 O32 1.247 . S
C34 O33 1.208 . S
C35 O40 1.247 . S
C35 O41 1.209 1_556 S
C36 O28 1.315 . S
C36 O31 1.279 . S
C37 O38 1.315 . S
C37 O39 1.279 . S
O38 Cd30 2.223 . S
O38 C37 1.315 . S
O39 Cd29 2.240 . S
O39 C37 1.279 . S
O40 Cd30 2.297 . S
O40 C35 1.247 . S
O41 Cd30 2.440 1_554 S
O41 C35 1.209 1_554 S
O42 Cd43 2.223 . S
O42 C50 1.315 . S
Cd43 O42 2.223 . S
Cd43 O46 2.297 . S
Cd43 O47 2.439 . S
Cd43 O53 2.240 . S
Cd44 O45 2.240 . S
Cd44 O52 2.223 . S
Cd44 O54 2.297 . S
Cd44 O55 2.439 . S
O45 Cd44 2.240 . S
O45 C50 1.279 . S
O46 Cd43 2.297 . S
O46 C48 1.247 . S
O47 Cd43 2.439 . S
O47 C48 1.208 . S
C48 O46 1.247 . S
C48 O47 1.208 . S
C49 O54 1.247 . S
C49 O55 1.208 . S
C50 O42 1.315 . S
C50 O45 1.279 . S
C51 O52 1.315 . S
C51 O53 1.279 . S
O52 Cd44 2.223 . S
O52 C51 1.315 . S
O53 Cd43 2.240 . S
O53 C51 1.279 . S
O54 Cd44 2.297 . S
O54 C49 1.247 . S
O55 Cd44 2.439 . S
O55 C49 1.208 . S
O56 Cd57 2.223 . S
O56 C64 1.315 . S
Cd57 O56 2.223 . S
Cd57 O60 2.297 1_556 S
Cd57 O61 2.439 1_556 S
Cd57 O67 2.240 . S
Cd58 O59 2.240 . S
Cd58 O66 2.223 . S
Cd58 O68 2.297 . S
Cd58 O69 2.440 1_556 S
O59 Cd58 2.240 . S
O59 C64 1.279 . S
O60 Cd57 2.297 1_554 S
O60 C62 1.247 . S
O61 Cd57 2.439 1_554 S
O61 C62 1.208 . S
C62 O60 1.247 . S
C62 O61 1.208 . S
C63 O68 1.247 . S
C63 O69 1.209 1_556 S
C64 O56 1.315 . S
C64 O59 1.279 . S
C65 O66 1.315 . S
C65 O67 1.279 . S
O66 Cd58 2.223 . S
O66 C65 1.315 . S
O67 Cd57 2.240 . S
O67 C65 1.279 . S
O68 Cd58 2.297 . S
O68 C63 1.247 . S
O69 Cd58 2.440 1_554 S
O69 C63 1.209 1_554 S
O70 Cd71 2.223 . S
O70 C78 1.315 . S
Cd71 O70 2.223 . S
Cd71 O74 2.297 . S
Cd71 O75 2.439 . S
Cd71 O81 2.240 . S
Cd72 O73 2.240 . S
Cd72 O80 2.223 . S
Cd72 O82 2.297 . S
Cd72 O83 2.439 . S
O73 Cd72 2.240 . S
O73 C78 1.279 . S
O74 Cd71 2.297 . S
O74 C76 1.247 . S
O75 Cd71 2.439 . S
O75 C76 1.208 . S
C76 O74 1.247 . S
C76 O75 1.208 . S
C77 O82 1.247 . S
C77 O83 1.208 . S
C78 O70 1.315 . S
C78 O73 1.279 . S
C79 O80 1.315 . S
C79 O81 1.279 . S
O80 Cd72 2.223 . S
O80 C79 1.315 . S
O81 Cd71 2.240 . S
O81 C79 1.279 . S
O82 Cd72 2.297 . S
O82 C77 1.247 . S
O83 Cd72 2.439 . S
O83 C77 1.208 . S
O84 Cd85 2.223 . S
O84 C92 1.315 . S
Cd85 O84 2.223 . S
Cd85 O88 2.297 1_554 S
Cd85 O89 2.439 1_554 S
Cd85 O95 2.240 . S
Cd86 O87 2.240 . S
Cd86 O94 2.223 . S
Cd86 O96 2.297 . S
Cd86 O97 2.440 1_554 S
O87 Cd86 2.240 . S
O87 C92 1.279 . S
O88 Cd85 2.297 1_556 S
O88 C90 1.247 . S
O89 Cd85 2.439 1_556 S
O89 C90 1.208 . S
C90 O88 1.247 . S
C90 O89 1.208 . S
C91 O96 1.247 . S
C91 O97 1.209 1_554 S
C92 O84 1.315 . S
C92 O87 1.279 . S
C93 O94 1.315 . S
C93 O95 1.279 . S
O94 Cd86 2.223 . S
O94 C93 1.315 . S
O95 Cd85 2.240 . S
O95 C93 1.279 . S
O96 Cd86 2.297 . S
O96 C91 1.247 . S
O97 Cd86 2.440 1_556 S
O97 C91 1.209 1_556 S
O98 Cd99 2.223 . S
O98 C106 1.315 . S
Cd99 O98 2.223 . S
Cd99 O102 2.297 . S
Cd99 O103 2.439 . S
Cd99 O109 2.240 . S
Cd100 O101 2.240 . S
Cd100 O108 2.223 . S
Cd100 O110 2.297 . S
Cd100 O111 2.439 . S
O101 Cd100 2.240 . S
O101 C106 1.279 . S
O102 Cd99 2.297 . S
O102 C104 1.247 . S
O103 Cd99 2.439 . S
O103 C104 1.208 . S
C104 O102 1.247 . S
C104 O103 1.208 . S
C105 O110 1.247 . S
C105 O111 1.208 . S
C106 O98 1.315 . S
C106 O101 1.279 . S
C107 O108 1.315 . S
C107 O109 1.279 . S
O108 Cd100 2.223 . S
O108 C107 1.315 . S
O109 Cd99 2.240 . S
O109 C107 1.279 . S
O110 Cd100 2.297 . S
O110 C105 1.247 . S
O111 Cd100 2.439 . S
O111 C105 1.208 . S
C112 C113 1.170 . S
C112 C114 1.380 . S
C113 C112 1.170 . S
C114 C112 1.380 . S
C114 C115 1.170 . S
C115 C114 1.170 . S
C116 C117 1.170 . S
C116 C118 1.380 . S
C117 C116 1.170 . S
C118 C116 1.380 . S
C118 C119 1.170 . S
C119 C118 1.170 . S
C120 C121 1.170 . S
C120 C122 1.380 . S
C121 C120 1.170 . S
C122 C120 1.380 . S
C122 C123 1.170 . S
C123 C122 1.170 . S
C124 C125 1.170 . S
C124 C126 1.380 . S
C125 C124 1.170 . S
C126 C124 1.380 . S
C126 C127 1.170 . S
C127 C126 1.170 . S
C128 C129 1.170 . S
C128 C130 1.380 . S
C129 C128 1.170 . S
C130 C128 1.380 . S
C130 C131 1.170 . S
C131 C130 1.170 . S
C132 C133 1.170 . S
C132 C134 1.380 . S
C133 C132 1.170 . S
C134 C132 1.380 . S
C134 C135 1.170 . S
C135 C134 1.170 . S
C136 C137 1.170 . S
C136 C138 1.380 . S
C137 C136 1.170 . S
C138 C136 1.380 . S
C138 C139 1.170 . S
C139 C138 1.170 . S
C140 C141 1.170 . S
C140 C142 1.380 . S
C141 C140 1.170 . S
C142 C140 1.380 . S
C142 C143 1.170 . S
C143 C142 1.170 . S
C144 C145 1.170 . S
C144 C146 1.380 1_455 S
C145 C144 1.170 . S
C146 C144 1.380 1_655 S
C146 C147 1.170 . S
C147 C146 1.170 . S
C148 C149 1.170 . S
C148 C150 1.380 . S
C149 C148 1.170 . S
C150 C148 1.380 . S
C150 C151 1.170 . S
C151 C150 1.170 . S
C152 C153 1.170 . S
C152 C154 1.380 1_455 S
C153 C152 1.170 . S
C154 C152 1.380 1_655 S
C154 C155 1.170 . S
C155 C154 1.170 . S
C156 C157 1.170 . S
C156 C158 1.380 . S
C157 C156 1.170 . S
C158 C156 1.380 . S
C158 C159 1.170 . S
C159 C158 1.170 . S
C160 C161 1.170 . S
C160 C162 1.380 1_445 S
C161 C160 1.170 . S
C162 C160 1.380 1_665 S
C162 C163 1.170 1_554 S
C163 C162 1.170 1_556 S
C164 C165 1.170 . S
C164 C166 1.380 . S
C165 C164 1.170 . S
C166 C164 1.380 . S
C166 C167 1.170 . S
C167 C166 1.170 . S
C168 C169 1.171 . S
C168 C170 1.380 . S
C169 C168 1.171 . S
C170 C168 1.380 . S
C170 C171 1.170 . S
C171 C170 1.170 . S
C172 C173 1.170 . S
C172 C174 1.380 1_465 S
C173 C172 1.170 . S
C174 C172 1.380 1_645 S
C174 C175 1.170 . S
C175 C174 1.170 . S
C113 C22 1.605 . S
C115 C6 1.623 . S
C117 C8 1.621 . S
C119 C20 1.613 . S
C121 C50 1.620 . S
C123 C34 1.614 . S
C125 C36 1.614 . S
C127 C48 1.619 . S
C129 C62 1.623 . S
C131 C78 1.608 . S
C133 C76 1.621 . S
C135 C64 1.615 . S
C137 C90 1.623 . S
C139 C106 1.610 . S
C141 C92 1.620 . S
C143 C104 1.615 . S
C145 C9 0.750 . S
C147 C51 0.778 . S
C149 C23 0.750 . S
C151 C37 0.724 . S
C153 C107 0.707 . S
C155 C65 0.772 . S
C157 C93 0.794 . S
C159 C79 0.716 . S
C161 C7 1.492 . S
C163 C63 1.505 . S
C165 C77 1.485 . S
C167 C21 1.517 . S
C169 C91 1.518 1_556 S
C171 C35 1.494 . S
C173 C105 1.496 . S
C175 C49 1.501 . S
