# Generated by pormake.
# Topology uon, (4)-cn, num edge types: 1
# Building blocks:
#     Node 0, Type 0, BuildingBlock: ESEHIV_clean_sbu_0, # of connection points: 4
#     Node 1, Type 0, BuildingBlock: ESEHIV_clean_sbu_0, # of connection points: 4
#     Node 2, Type 0, BuildingBlock: ESEHIV_clean_sbu_0, # of connection points: 4
#     Node 3, Type 0, BuildingBlock: ESEHIV_clean_sbu_0, # of connection points: 4
#     Node 4, Type 0, BuildingBlock: ESEHIV_clean_sbu_0, # of connection points: 4
#     Node 5, Type 0, BuildingBlock: ESEHIV_clean_sbu_0, # of connection points: 4
#     Edge 6, Type (0, 0), BuildingBlock: OJICUG_clean_linker_0, # of connection points: 2
#     Edge 7, Type (0, 0), BuildingBlock: OJICUG_clean_linker_0, # of connection points: 2
#     Edge 8, Type (0, 0), BuildingBlock: OJICUG_clean_linker_0, # of connection points: 2
#     Edge 9, Type (0, 0), BuildingBlock: OJICUG_clean_linker_0, # of connection points: 2
#     Edge 10, Type (0, 0), BuildingBlock: OJICUG_clean_linker_0, # of connection points: 2
#     Edge 11, Type (0, 0), BuildingBlock: OJICUG_clean_linker_0, # of connection points: 2
#     Edge 12, Type (0, 0), BuildingBlock: OJICUG_clean_linker_0, # of connection points: 2
#     Edge 13, Type (0, 0), BuildingBlock: OJICUG_clean_linker_0, # of connection points: 2
#     Edge 14, Type (0, 0), BuildingBlock: OJICUG_clean_linker_0, # of connection points: 2
#     Edge 15, Type (0, 0), BuildingBlock: OJICUG_clean_linker_0, # of connection points: 2
#     Edge 16, Type (0, 0), BuildingBlock: OJICUG_clean_linker_0, # of connection points: 2
#     Edge 17, Type (0, 0), BuildingBlock: OJICUG_clean_linker_0, # of connection points: 2
# Relax obj value: 0.074
# Max RMSD: 0.074
# Mean RMSD: 0.074
data_MOF--net-uon--node1-ESEHIV_clean_sbu_0--edge1-OJICUG_clean_linker_0
_symmetry_space_group_name_H-M    P1
_symmetry_Int_Tables_number       1
_symmetry_cell_setting            triclinic
loop_
_symmetry_equiv_pos_as_xyz
'x, y, z'
_cell_length_a     25.553433
_cell_length_b     25.665992
_cell_length_c     20.121681
_cell_angle_alpha  90.540572
_cell_angle_beta   89.716216
_cell_angle_gamma 120.65232
loop_
_atom_site_label
_atom_site_type_symbol
_atom_site_fract_x
_atom_site_fract_y
_atom_site_fract_z
_atom_type_partial_charge
Cu0 Cu 0.24934 0.45611 0.98925 0.0
N1 N 0.33394 0.49111 0.98239 0.0
N2 N 0.41678 0.5487 0.91981 0.0
C3 C 0.36569 0.54272 0.94765 0.0
C4 C 0.4183 0.4994 0.93983 0.0
C5 C 0.36676 0.46356 0.97747 0.0
O6 O 0.22874 0.4357 0.89547 0.0
C7 C 0.25609 0.53133 0.09054 0.0
O8 O 0.29369 0.5138 0.10999 0.0
H9 H 0.3477 0.57185 0.93709 0.0
H10 H 0.35087 0.41753 0.99246 0.0
N11 N 0.20666 0.38632 0.04114 0.0
N12 N 0.12655 0.31496 0.09807 0.0
C13 C 0.1478 0.36353 0.05788 0.0
C14 C 0.2239 0.35125 0.07197 0.0
C15 C 0.17459 0.30715 0.10695 0.0
C16 C 0.20774 0.38148 0.87465 0.0
O17 O 0.17392 0.33648 0.91467 0.0
H18 H 0.12135 0.38285 0.04069 0.0
H19 H 0.26919 0.35791 0.07046 0.0
O20 O 0.23154 0.51414 1.03317 0.0
H21 H 0.45062 0.48684 0.92271 0.0
H22 H 0.17499 0.27326 0.13815 0.0
Cu23 Cu 0.8549 0.24403 0.33767 0.0
N24 N 0.90487 0.32748 0.32663 0.0
N25 N 0.92928 0.40556 0.25896 0.0
C26 C 0.88411 0.35574 0.28832 0.0
C27 C 0.98122 0.41015 0.28104 0.0
C28 C 0.96599 0.36123 0.32206 0.0
O29 O 0.86825 0.21687 0.25128 0.0
C30 C 0.7726 0.25377 0.41697 0.0
O31 O 0.82284 0.28054 0.45233 0.0
H32 H 0.83646 0.33592 0.27596 0.0
H33 H 0.99687 0.34737 0.33989 0.0
N34 N 0.87624 0.20872 0.40568 0.0
N35 N 0.86889 0.13456 0.47069 0.0
C36 C 0.842 0.1501 0.42336 0.0
C37 C 0.92646 0.23176 0.44354 0.0
C38 C 0.92205 0.18626 0.4837 0.0
C39 C 0.90252 0.19421 0.24605 0.0
O40 O 0.90498 0.16268 0.29561 0.0
H41 H 0.79899 0.11919 0.3999 0.0
H42 H 0.96385 0.27805 0.44165 0.0
O43 O 0.77412 0.2314 0.36034 0.0
H44 H 1.02635 0.44252 0.26327 0.0
H45 H 0.9556 0.19137 0.51979 0.0
Cu46 Cu 0.66284 0.83958 0.68487 0.0
N47 N 0.61281 0.87139 0.66762 0.0
N48 N 0.54498 0.87908 0.60426 0.0
C49 C 0.5693 0.84502 0.62099 0.0
C50 C 0.57497 0.92958 0.64245 0.0
C51 C 0.61725 0.92494 0.6811 0.0
O52 O 0.71665 0.86845 0.60736 0.0
C53 C 0.57045 0.74413 0.74811 0.0
O54 O 0.57072 0.79128 0.77442 0.0
H55 H 0.55872 0.8029 0.59699 0.0
H56 H 0.65065 0.95933 0.71389 0.0
N57 N 0.70945 0.86393 0.76231 0.0
N58 N 0.76116 0.85153 0.84406 0.0
C59 C 0.73294 0.83105 0.78513 0.0
C60 C 0.72302 0.90726 0.8084 0.0
C61 C 0.75493 0.89959 0.85919 0.0
C62 C 0.77234 0.9103 0.61311 0.0
O63 O 0.80042 0.91655 0.66964 0.0
H64 H 0.72657 0.79073 0.76004 0.0
H65 H 0.70917 0.94061 0.80637 0.0
O66 O 0.60786 0.75271 0.70104 0.0
H67 H 0.56799 0.96775 0.64171 0.0
H68 H 0.77095 0.92644 0.9043 0.0
Cu69 Cu 0.82663 0.61077 0.05365 0.0
N70 N 0.74343 0.55079 0.04587 0.0
N71 N 0.65887 0.4747 0.99843 0.0
C72 C 0.72024 0.51022 0.99527 0.0
C73 C 0.64311 0.49408 0.05359 0.0
C74 C 0.6951 0.54094 0.08246 0.0
O75 O 0.83945 0.67296 0.9893 0.0
C76 C 0.85446 0.52881 0.09343 0.0
O77 O 0.8067 0.51759 0.12907 0.0
H78 H 0.74823 0.50736 0.95659 0.0
H79 H 0.69715 0.56688 0.126 0.0
N80 N 0.85527 0.65176 0.13519 0.0
N81 N 0.92824 0.71079 0.20823 0.0
C82 C 0.91547 0.68772 0.14596 0.0
C83 C 0.82843 0.6517 0.19291 0.0
C84 C 0.8734 0.68842 0.23798 0.0
C85 C 0.81558 0.70395 1.00827 0.0
O86 O 0.78827 0.69182 0.06631 0.0
H87 H 0.94934 0.69618 0.10846 0.0
H88 H 0.78003 0.62602 0.20217 0.0
O89 O 0.87292 0.56937 0.04857 0.0
H90 H 0.59711 0.47709 0.07098 0.0
H91 H 0.86627 0.69628 0.28928 0.0
Cu92 Cu 0.23923 0.80413 0.39105 0.0
N93 N 0.2037 0.7219 0.36713 0.0
N94 N 0.19287 0.65007 0.29417 0.0
C95 C 0.23195 0.70268 0.32525 0.0
C96 C 0.13739 0.6353 0.31758 0.0
C97 C 0.14417 0.67984 0.36216 0.0
O98 O 0.20272 0.83146 0.32475 0.0
C99 C 0.33949 0.80699 0.43496 0.0
O100 O 0.29402 0.75768 0.46068 0.0
H101 H 0.27963 0.73017 0.31253 0.0
H102 H 0.10786 0.68418 0.3842 0.0
N103 N 0.22734 0.82551 0.47736 0.0
N104 N 0.25623 0.8897 0.56437 0.0
C105 C 0.2724 0.87635 0.50579 0.0
C106 C 0.18016 0.80539 0.51996 0.0
C107 C 0.19779 0.84552 0.5736 0.0
C108 C 0.16019 0.84149 0.3409 0.0
O109 O 0.15861 0.85931 0.40182 0.0
H110 H 0.31587 0.90508 0.48211 0.0
H111 H 0.13559 0.76614 0.5114 0.0
O112 O 0.32732 0.83698 0.39367 0.0
H113 H 0.09475 0.59684 0.30118 0.0
H114 H 0.16974 0.84289 0.61539 0.0
Cu115 Cu 0.45263 0.25004 0.6749 0.0
N116 N 0.49798 0.26185 0.59597 0.0
N117 N 0.56536 0.26117 0.52382 0.0
C118 C 0.54926 0.25922 0.58855 0.0
C119 C 0.52285 0.26604 0.48943 0.0
C120 C 0.48163 0.2664 0.53377 0.0
O121 O 0.40047 0.1619 0.6856 0.0
C122 C 0.49346 0.2945 0.80872 0.0
O123 O 0.4364 0.25803 0.82556 0.0
H124 H 0.57277 0.25338 0.62977 0.0
H125 H 0.44158 0.26825 0.52112 0.0
N126 N 0.39782 0.27829 0.66516 0.0
N127 N 0.33403 0.31131 0.69154 0.0
C128 C 0.38578 0.31199 0.70783 0.0
C129 C 0.35223 0.25606 0.62052 0.0
C130 C 0.31304 0.27624 0.63654 0.0
C131 C 0.41876 0.12457 0.6761 0.0
O132 O 0.47739 0.14565 0.67031 0.0
H133 H 0.41147 0.33252 0.75276 0.0
H134 H 0.34544 0.22366 0.58184 0.0
O135 O 0.50922 0.29483 0.74835 0.0
H136 H 0.52127 0.26883 0.43592 0.0
H137 H 0.27058 0.26342 0.61178 0.0
C138 C 0.30018 0.40804 0.80516 0.0
C139 C 0.23778 0.36908 0.81823 0.0
H140 H 0.38028 0.41926 0.7559 0.0
C141 C 0.20714 0.31291 0.78503 0.0
H142 H 0.3253 0.4514 0.83031 0.0
C143 C 0.23833 0.29522 0.74154 0.0
C144 C 0.30135 0.33253 0.73152 0.0
H145 H 0.15933 0.28163 0.79455 0.0
H146 H 0.21367 0.25093 0.71823 0.0
C147 C 0.33184 0.38951 0.76309 0.0
C148 C 0.97265 0.27554 0.16654 0.0
C149 C 0.9538 0.21985 0.1976 0.0
H150 H 1.04228 0.34999 0.11233 0.0
C151 C 0.99048 0.19382 0.19057 0.0
H152 H 0.9461 0.29745 0.17156 0.0
C153 C 1.04592 0.22395 0.15627 0.0
C154 C 0.06663 0.2813 0.1283 0.0
H155 H 0.97741 0.15094 0.21377 0.0
H156 H 0.07305 0.20264 0.15298 0.0
C157 C 1.02835 0.30593 0.13259 0.0
C158 C 0.78404 1.02973 0.49416 0.0
C159 C 0.84576 0.0754 0.50056 0.0
H160 H 0.71268 0.94147 0.52311 0.0
C161 C 0.88406 0.06238 0.53807 0.0
H162 H 0.75264 0.03744 0.4662 0.0
C163 C 0.86083 1.00702 0.57098 0.0
C164 C 0.79872 0.96268 0.56696 0.0
H165 H 0.93197 0.09527 0.54329 0.0
H166 H 0.89129 0.99978 0.60156 0.0
C167 C 0.76093 0.97411 0.52666 0.0
C168 C 0.81809 0.74843 0.89615 0.0
C169 C 0.81203 0.74885 0.96546 0.0
H170 H 0.80743 0.78173 0.80295 0.0
C171 C 0.79576 0.78889 0.99419 0.0
H172 H 0.83065 0.71828 0.87252 0.0
C173 C 0.78225 0.82496 0.95461 0.0
C174 C 0.78429 0.82174 0.8851 0.0
H175 H 0.79118 0.7908 0.04758 0.0
H176 H 0.76706 0.85286 0.97854 0.0
C177 C 0.80421 0.78443 0.85638 0.0
C178 C 1.03845 0.7452 0.21355 0.0
C179 C 0.98801 0.74808 0.23743 0.0
H180 H 0.13238 0.7728 0.22649 0.0
C181 C 0.99685 0.78697 0.29131 0.0
H182 H 1.03345 0.71538 0.17261 0.0
C183 C 0.05388 0.82033 0.322 0.0
C184 C 0.10369 0.81548 0.29999 0.0
H185 H 0.95944 0.79111 0.31034 0.0
H186 H 0.05829 0.84834 0.36465 0.0
C187 C 0.09549 0.77839 0.24442 0.0
C188 C 0.31141 0.03702 0.65656 0.0
C189 C 0.37465 0.05987 0.65876 0.0
H190 H 0.22358 0.96399 0.62539 0.0
C191 C 0.39632 1.02205 0.63687 0.0
H192 H 0.29302 0.06478 0.67294 0.0
C193 C 0.3567 0.96494 0.60937 0.0
C194 C 0.29414 0.94349 0.60361 0.0
H195 H 0.44447 0.03762 0.63793 0.0
H196 H 0.37533 0.93816 0.59029 0.0
C197 C 0.2715 0.9792 0.62959 0.0
C198 C 0.16692 0.58845 0.18957 0.0
C199 C 0.20796 0.62091 0.24158 0.0
H200 H 0.15026 0.53588 0.09966 0.0
C201 C 0.26529 0.62585 0.24071 0.0
H202 H 0.12258 0.58422 0.18826 0.0
C203 C 0.28097 0.59841 0.19033 0.0
C204 C 0.24016 0.56566 0.13856 0.0
H205 H 0.29782 0.65002 0.27998 0.0
H206 H 0.32519 0.60232 0.19245 0.0
C207 C 0.18306 0.56148 0.13827 0.0
C208 C 0.66807 0.27443 0.53565 0.0
C209 C 0.61613 0.25726 0.49688 0.0
H210 H 0.75705 0.28662 0.54119 0.0
C211 C 0.61516 0.23679 0.43119 0.0
H212 H 0.67103 0.29091 0.58598 0.0
C213 C 0.66506 0.23426 0.40503 0.0
C214 C 0.71731 0.25249 0.44378 0.0
H215 H 0.57571 0.22235 0.39994 0.0
H216 H 0.66301 0.21883 0.35432 0.0
C217 C 0.71778 0.27221 0.50953 0.0
C218 C 0.5523 0.65337 0.81338 0.0
C219 C 0.52926 0.68445 0.77822 0.0
H220 H 0.53468 0.58618 0.88719 0.0
C221 C 0.46785 0.66668 0.78625 0.0
H222 H 0.60001 0.66743 0.80956 0.0
C223 C 0.43072 0.62079 0.8305 0.0
C224 C 0.45421 0.59199 0.8693 0.0
H225 H 0.44917 0.69043 0.76043 0.0
H226 H 0.38381 0.6091 0.83523 0.0
C227 C 0.51504 0.60742 0.85846 0.0
C228 C 0.85843 0.43674 0.11416 0.0
C229 C 0.88871 0.50014 0.11514 0.0
H230 H 0.84857 0.35688 0.1585 0.0
C231 C 0.93943 0.53235 0.15712 0.0
H232 H 0.81846 0.41092 0.08335 0.0
C233 C 0.95608 0.50125 0.20152 0.0
C234 C 0.92164 0.43773 0.20492 0.0
H235 H 0.96231 0.58131 0.16027 0.0
H236 H 0.99243 0.52678 0.23676 0.0
C237 C 0.8749 0.40588 0.15824 0.0
C238 C 0.4375 0.89076 0.48422 0.0
C239 C 0.40019 0.82983 0.46498 0.0
H240 H 0.5129 0.95457 0.54412 0.0
C241 C 0.41423 0.78702 0.48812 0.0
H242 H 0.42698 0.92457 0.46821 0.0
C243 C 0.46204 0.80356 0.53232 0.0
C244 C 0.498 0.8638 0.5548 0.0
H245 H 0.38585 0.73959 0.47481 0.0
H246 H 0.46856 0.76795 0.55098 0.0
C247 C 0.486 0.90762 0.52885 0.0
C248 C 0.5191 0.3399 0.92417 0.0
C249 C 0.53751 0.33878 0.85836 0.0
H250 H 0.54272 0.38267 1.01997 0.0
C251 C 0.59734 0.38229 0.84004 0.0
H252 H 0.4735 0.30721 0.94038 0.0
C253 C 0.6372 0.4262 0.88586 0.0
C254 C 0.61847 0.42801 0.9515 0.0
H255 H 0.6132 0.38318 0.78981 0.0
H256 H 0.68227 0.45955 0.8691 0.0
C257 C 0.55889 0.38372 0.96995 0.0
loop_
_geom_bond_atom_site_label_1
_geom_bond_atom_site_label_2
_geom_bond_distance
_geom_bond_site_symmetry_2
_ccdc_geom_bond_type
Cu0 N1 1.999 . S
Cu0 O6 1.974 . S
Cu0 N11 1.985 1_556 S
Cu0 O20 1.959 1_556 S
N1 Cu0 1.999 . S
N1 C3 1.263 . S
N1 C5 1.389 . S
N2 C3 1.358 . S
N2 C4 1.400 . S
C3 N1 1.263 . S
C3 N2 1.358 . S
C3 H9 0.930 . S
C4 N2 1.400 . S
C4 C5 1.351 . S
C4 H21 0.930 . S
C5 N1 1.389 . S
C5 C4 1.351 . S
C5 H10 0.930 . S
O6 Cu0 1.974 . S
O6 C16 1.282 . S
C7 O8 1.261 . S
C7 O20 1.251 . S
O8 C7 1.261 . S
H9 C3 0.930 . S
H10 C5 0.930 . S
N11 Cu0 1.985 1_554 S
N11 C13 1.335 . S
N11 C14 1.390 . S
N12 C13 1.345 . S
N12 C15 1.336 . S
C13 N11 1.335 . S
C13 N12 1.345 . S
C13 H18 0.930 . S
C14 N11 1.390 . S
C14 C15 1.346 . S
C14 H19 0.930 . S
C15 N12 1.336 . S
C15 C14 1.346 . S
C15 H22 0.929 . S
C16 O6 1.282 . S
C16 O17 1.216 . S
O17 C16 1.216 . S
H18 C13 0.930 . S
H19 C14 0.930 . S
O20 Cu0 1.959 1_554 S
O20 C7 1.251 . S
H21 C4 0.930 . S
H22 C15 0.929 . S
Cu23 N24 1.999 . S
Cu23 O29 1.974 . S
Cu23 N34 1.985 . S
Cu23 O43 1.959 . S
N24 Cu23 1.999 . S
N24 C26 1.263 . S
N24 C28 1.389 . S
N25 C26 1.358 . S
N25 C27 1.400 . S
C26 N24 1.263 . S
C26 N25 1.358 . S
C26 H32 0.930 . S
C27 N25 1.400 . S
C27 C28 1.351 . S
C27 H44 0.930 . S
C28 N24 1.389 . S
C28 C27 1.351 . S
C28 H33 0.930 . S
O29 Cu23 1.974 . S
O29 C39 1.282 . S
C30 O31 1.261 . S
C30 O43 1.251 . S
O31 C30 1.261 . S
H32 C26 0.930 . S
H33 C28 0.930 . S
N34 Cu23 1.985 . S
N34 C36 1.335 . S
N34 C37 1.390 . S
N35 C36 1.345 . S
N35 C38 1.336 . S
C36 N34 1.335 . S
C36 N35 1.345 . S
C36 H41 0.930 . S
C37 N34 1.390 . S
C37 C38 1.346 . S
C37 H42 0.930 . S
C38 N35 1.336 . S
C38 C37 1.346 . S
C38 H45 0.929 . S
C39 O29 1.282 . S
C39 O40 1.216 . S
O40 C39 1.216 . S
H41 C36 0.930 . S
H42 C37 0.930 . S
O43 Cu23 1.959 . S
O43 C30 1.251 . S
H44 C27 0.930 . S
H45 C38 0.929 . S
Cu46 N47 1.999 . S
Cu46 O52 1.974 . S
Cu46 N57 1.985 . S
Cu46 O66 1.959 . S
N47 Cu46 1.999 . S
N47 C49 1.263 . S
N47 C51 1.389 . S
N48 C49 1.358 . S
N48 C50 1.400 . S
C49 N47 1.263 . S
C49 N48 1.358 . S
C49 H55 0.930 . S
C50 N48 1.400 . S
C50 C51 1.351 . S
C50 H67 0.930 . S
C51 N47 1.389 . S
C51 C50 1.351 . S
C51 H56 0.930 . S
O52 Cu46 1.974 . S
O52 C62 1.282 . S
C53 O54 1.261 . S
C53 O66 1.251 . S
O54 C53 1.261 . S
H55 C49 0.930 . S
H56 C51 0.930 . S
N57 Cu46 1.985 . S
N57 C59 1.335 . S
N57 C60 1.390 . S
N58 C59 1.345 . S
N58 C61 1.336 . S
C59 N57 1.335 . S
C59 N58 1.345 . S
C59 H64 0.930 . S
C60 N57 1.390 . S
C60 C61 1.346 . S
C60 H65 0.930 . S
C61 N58 1.336 . S
C61 C60 1.346 . S
C61 H68 0.929 . S
C62 O52 1.282 . S
C62 O63 1.216 . S
O63 C62 1.216 . S
H64 C59 0.930 . S
H65 C60 0.930 . S
O66 Cu46 1.959 . S
O66 C53 1.251 . S
H67 C50 0.930 . S
H68 C61 0.929 . S
Cu69 N70 1.999 . S
Cu69 O75 1.974 . S
Cu69 N80 1.985 1_556 S
Cu69 O89 1.959 1_556 S
N70 Cu69 1.999 . S
N70 C72 1.263 . S
N70 C74 1.389 . S
N71 C72 1.358 . S
N71 C73 1.400 . S
C72 N70 1.263 . S
C72 N71 1.358 . S
C72 H78 0.930 . S
C73 N71 1.400 . S
C73 C74 1.351 . S
C73 H90 0.930 . S
C74 N70 1.389 . S
C74 C73 1.351 . S
C74 H79 0.930 . S
O75 Cu69 1.974 . S
O75 C85 1.282 . S
C76 O77 1.261 . S
C76 O89 1.251 . S
O77 C76 1.261 . S
H78 C72 0.930 . S
H79 C74 0.930 . S
N80 Cu69 1.985 1_554 S
N80 C82 1.335 . S
N80 C83 1.390 . S
N81 C82 1.345 . S
N81 C84 1.336 . S
C82 N80 1.335 . S
C82 N81 1.345 . S
C82 H87 0.930 . S
C83 N80 1.390 . S
C83 C84 1.346 . S
C83 H88 0.930 . S
C84 N81 1.336 . S
C84 C83 1.346 . S
C84 H91 0.929 . S
C85 O75 1.282 . S
C85 O86 1.216 . S
O86 C85 1.216 . S
H87 C82 0.930 . S
H88 C83 0.930 . S
O89 Cu69 1.959 1_554 S
O89 C76 1.251 . S
H90 C73 0.930 . S
H91 C84 0.929 . S
Cu92 N93 1.999 . S
Cu92 O98 1.974 . S
Cu92 N103 1.985 . S
Cu92 O112 1.959 . S
N93 Cu92 1.999 . S
N93 C95 1.263 . S
N93 C97 1.389 . S
N94 C95 1.358 . S
N94 C96 1.400 . S
C95 N93 1.263 . S
C95 N94 1.358 . S
C95 H101 0.930 . S
C96 N94 1.400 . S
C96 C97 1.351 . S
C96 H113 0.930 . S
C97 N93 1.389 . S
C97 C96 1.351 . S
C97 H102 0.930 . S
O98 Cu92 1.974 . S
O98 C108 1.282 . S
C99 O100 1.261 . S
C99 O112 1.251 . S
O100 C99 1.261 . S
H101 C95 0.930 . S
H102 C97 0.930 . S
N103 Cu92 1.985 . S
N103 C105 1.335 . S
N103 C106 1.390 . S
N104 C105 1.345 . S
N104 C107 1.336 . S
C105 N103 1.335 . S
C105 N104 1.345 . S
C105 H110 0.930 . S
C106 N103 1.390 . S
C106 C107 1.346 . S
C106 H111 0.930 . S
C107 N104 1.336 . S
C107 C106 1.346 . S
C107 H114 0.929 . S
C108 O98 1.282 . S
C108 O109 1.216 . S
O109 C108 1.216 . S
H110 C105 0.930 . S
H111 C106 0.930 . S
O112 Cu92 1.959 . S
O112 C99 1.251 . S
H113 C96 0.930 . S
H114 C107 0.929 . S
Cu115 N116 1.999 . S
Cu115 O121 1.974 . S
Cu115 N126 1.985 . S
Cu115 O135 1.959 . S
N116 Cu115 1.999 . S
N116 C118 1.263 . S
N116 C120 1.389 . S
N117 C118 1.358 . S
N117 C119 1.400 . S
C118 N116 1.263 . S
C118 N117 1.358 . S
C118 H124 0.930 . S
C119 N117 1.400 . S
C119 C120 1.351 . S
C119 H136 0.930 . S
C120 N116 1.389 . S
C120 C119 1.351 . S
C120 H125 0.930 . S
O121 Cu115 1.974 . S
O121 C131 1.282 . S
C122 O123 1.261 . S
C122 O135 1.251 . S
O123 C122 1.261 . S
H124 C118 0.930 . S
H125 C120 0.930 . S
N126 Cu115 1.985 . S
N126 C128 1.335 . S
N126 C129 1.390 . S
N127 C128 1.345 . S
N127 C130 1.336 . S
C128 N126 1.335 . S
C128 N127 1.345 . S
C128 H133 0.930 . S
C129 N126 1.390 . S
C129 C130 1.346 . S
C129 H134 0.930 . S
C130 N127 1.336 . S
C130 C129 1.346 . S
C130 H137 0.929 . S
C131 O121 1.282 . S
C131 O132 1.216 . S
O132 C131 1.216 . S
H133 C128 0.930 . S
H134 C129 0.930 . S
O135 Cu115 1.959 . S
O135 C122 1.251 . S
H136 C119 0.930 . S
H137 C130 0.929 . S
C138 C139 1.387 . S
C138 H142 0.950 . S
C138 C147 1.390 . S
C139 C138 1.387 . S
C139 C141 1.387 . S
H140 C147 0.950 . S
C141 C139 1.387 . S
C141 C143 1.390 . S
C141 H145 0.950 . S
H142 C138 0.950 . S
C143 C141 1.390 . S
C143 C144 1.387 . S
C143 H146 0.950 . S
C144 C143 1.387 . S
C144 C147 1.387 . S
H145 C141 0.950 . S
H146 C143 0.950 . S
C147 C138 1.390 . S
C147 H140 0.950 . S
C147 C144 1.387 . S
C148 C149 1.387 . S
C148 H152 0.950 . S
C148 C157 1.390 1_655 S
C149 C148 1.387 . S
C149 C151 1.387 . S
H150 C157 0.950 . S
C151 C149 1.387 . S
C151 C153 1.390 . S
C151 H155 0.950 . S
H152 C148 0.950 . S
C153 C151 1.390 . S
C153 C154 1.387 1_655 S
C153 H156 0.950 . S
C154 C153 1.387 1_455 S
C154 C157 1.387 . S
H155 C151 0.950 . S
H156 C153 0.950 . S
C157 C148 1.390 1_455 S
C157 H150 0.950 . S
C157 C154 1.387 . S
C158 C159 1.387 . S
C158 H162 0.950 . S
C158 C167 1.390 1_545 S
C159 C158 1.387 . S
C159 C161 1.387 1_545 S
H160 C167 0.950 . S
C161 C159 1.387 1_565 S
C161 C163 1.390 . S
C161 H165 0.950 . S
H162 C158 0.950 . S
C163 C161 1.390 . S
C163 C164 1.387 . S
C163 H166 0.950 . S
C164 C163 1.387 . S
C164 C167 1.387 . S
H165 C161 0.950 . S
H166 C163 0.950 . S
C167 C158 1.390 1_565 S
C167 H160 0.950 . S
C167 C164 1.387 . S
C168 C169 1.387 . S
C168 H172 0.950 . S
C168 C177 1.390 . S
C169 C168 1.387 . S
C169 C171 1.387 . S
H170 C177 0.950 . S
C171 C169 1.387 . S
C171 C173 1.390 . S
C171 H175 0.950 . S
H172 C168 0.950 . S
C173 C171 1.390 . S
C173 C174 1.387 . S
C173 H176 0.950 . S
C174 C173 1.387 . S
C174 C177 1.387 . S
H175 C171 0.950 . S
H176 C173 0.950 . S
C177 C168 1.390 . S
C177 H170 0.950 . S
C177 C174 1.387 . S
C178 C179 1.387 . S
C178 H182 0.950 . S
C178 C187 1.390 1_655 S
C179 C178 1.387 . S
C179 C181 1.387 1_655 S
H180 C187 0.950 . S
C181 C179 1.387 1_455 S
C181 C183 1.390 . S
C181 H185 0.950 . S
H182 C178 0.950 . S
C183 C181 1.390 . S
C183 C184 1.387 . S
C183 H186 0.950 . S
C184 C183 1.387 . S
C184 C187 1.387 . S
H185 C181 0.950 . S
H186 C183 0.950 . S
C187 C178 1.390 1_455 S
C187 H180 0.950 . S
C187 C184 1.387 . S
C188 C189 1.387 . S
C188 H192 0.950 . S
C188 C197 1.390 . S
C189 C188 1.387 . S
C189 C191 1.387 . S
H190 C197 0.950 . S
C191 C189 1.387 . S
C191 C193 1.390 1_545 S
C191 H195 0.950 . S
H192 C188 0.950 . S
C193 C191 1.390 1_565 S
C193 C194 1.387 . S
C193 H196 0.950 . S
C194 C193 1.387 . S
C194 C197 1.387 1_565 S
H195 C191 0.950 . S
H196 C193 0.950 . S
C197 C188 1.390 . S
C197 H190 0.950 . S
C197 C194 1.387 1_545 S
C198 C199 1.387 . S
C198 H202 0.950 . S
C198 C207 1.390 . S
C199 C198 1.387 . S
C199 C201 1.387 . S
H200 C207 0.950 . S
C201 C199 1.387 . S
C201 C203 1.390 . S
C201 H205 0.950 . S
H202 C198 0.950 . S
C203 C201 1.390 . S
C203 C204 1.387 . S
C203 H206 0.950 . S
C204 C203 1.387 . S
C204 C207 1.387 . S
H205 C201 0.950 . S
H206 C203 0.950 . S
C207 C198 1.390 . S
C207 H200 0.950 . S
C207 C204 1.387 . S
C208 C209 1.387 . S
C208 H212 0.950 . S
C208 C217 1.390 . S
C209 C208 1.387 . S
C209 C211 1.387 . S
H210 C217 0.950 . S
C211 C209 1.387 . S
C211 C213 1.390 . S
C211 H215 0.950 . S
H212 C208 0.950 . S
C213 C211 1.390 . S
C213 C214 1.387 . S
C213 H216 0.950 . S
C214 C213 1.387 . S
C214 C217 1.387 . S
H215 C211 0.950 . S
H216 C213 0.950 . S
C217 C208 1.390 . S
C217 H210 0.950 . S
C217 C214 1.387 . S
C218 C219 1.387 . S
C218 H222 0.950 . S
C218 C227 1.390 . S
C219 C218 1.387 . S
C219 C221 1.387 . S
H220 C227 0.950 . S
C221 C219 1.387 . S
C221 C223 1.390 . S
C221 H225 0.950 . S
H222 C218 0.950 . S
C223 C221 1.390 . S
C223 C224 1.387 . S
C223 H226 0.950 . S
C224 C223 1.387 . S
C224 C227 1.387 . S
H225 C221 0.950 . S
H226 C223 0.950 . S
C227 C218 1.390 . S
C227 H220 0.950 . S
C227 C224 1.387 . S
C228 C229 1.387 . S
C228 H232 0.950 . S
C228 C237 1.390 . S
C229 C228 1.387 . S
C229 C231 1.387 . S
H230 C237 0.950 . S
C231 C229 1.387 . S
C231 C233 1.390 . S
C231 H235 0.950 . S
H232 C228 0.950 . S
C233 C231 1.390 . S
C233 C234 1.387 . S
C233 H236 0.950 . S
C234 C233 1.387 . S
C234 C237 1.387 . S
H235 C231 0.950 . S
H236 C233 0.950 . S
C237 C228 1.390 . S
C237 H230 0.950 . S
C237 C234 1.387 . S
C238 C239 1.387 . S
C238 H242 0.950 . S
C238 C247 1.390 . S
C239 C238 1.387 . S
C239 C241 1.387 . S
H240 C247 0.950 . S
C241 C239 1.387 . S
C241 C243 1.390 . S
C241 H245 0.950 . S
H242 C238 0.950 . S
C243 C241 1.390 . S
C243 C244 1.387 . S
C243 H246 0.950 . S
C244 C243 1.387 . S
C244 C247 1.387 . S
H245 C241 0.950 . S
H246 C243 0.950 . S
C247 C238 1.390 . S
C247 H240 0.950 . S
C247 C244 1.387 . S
C248 C249 1.387 . S
C248 H252 0.950 . S
C248 C257 1.390 . S
C249 C248 1.387 . S
C249 C251 1.387 . S
H250 C257 0.950 . S
C251 C249 1.387 . S
C251 C253 1.390 . S
C251 H255 0.950 . S
H252 C248 0.950 . S
C253 C251 1.390 . S
C253 C254 1.387 . S
C253 H256 0.950 . S
C254 C253 1.387 . S
C254 C257 1.387 . S
H255 C251 0.950 . S
H256 C253 0.950 . S
C257 C248 1.390 . S
C257 H250 0.950 . S
C257 C254 1.387 . S
C139 C16 1.469 . S
C144 N127 1.473 . S
C149 C39 1.469 . S
C154 N12 1.473 . S
C159 N35 1.473 . S
C164 C62 1.469 . S
C169 C85 1.469 . S
C174 N58 1.474 . S
C179 N81 1.473 . S
C184 C108 1.469 . S
C189 C131 1.469 . S
C194 N104 1.474 . S
C199 N94 1.425 . S
C204 C7 1.493 . S
C209 N117 1.426 . S
C214 C30 1.493 . S
C219 C53 1.494 . S
C224 N2 1.424 . S
C229 C76 1.494 . S
C234 N25 1.426 . S
C239 C99 1.493 . S
C244 N48 1.425 . S
C249 C122 1.494 . S
C254 N71 1.424 . S
