# Generated by pormake.
# Topology sow, (4)-cn, num edge types: 1
# Building blocks:
#     Node 0, Type 0, BuildingBlock: QUQFOY_clean_sbu_1, # of connection points: 4
#     Node 1, Type 0, BuildingBlock: QUQFOY_clean_sbu_1, # of connection points: 4
#     Node 2, Type 0, BuildingBlock: QUQFOY_clean_sbu_1, # of connection points: 4
#     Node 3, Type 0, BuildingBlock: QUQFOY_clean_sbu_1, # of connection points: 4
#     Node 4, Type 0, BuildingBlock: QUQFOY_clean_sbu_1, # of connection points: 4
#     Node 5, Type 0, BuildingBlock: QUQFOY_clean_sbu_1, # of connection points: 4
#     Node 6, Type 0, BuildingBlock: QUQFOY_clean_sbu_1, # of connection points: 4
#     Node 7, Type 0, BuildingBlock: QUQFOY_clean_sbu_1, # of connection points: 4
#     Edge 8, Type (0, 0), None
#     Edge 9, Type (0, 0), None
#     Edge 10, Type (0, 0), None
#     Edge 11, Type (0, 0), None
#     Edge 12, Type (0, 0), None
#     Edge 13, Type (0, 0), None
#     Edge 14, Type (0, 0), None
#     Edge 15, Type (0, 0), None
#     Edge 16, Type (0, 0), None
#     Edge 17, Type (0, 0), None
#     Edge 18, Type (0, 0), None
#     Edge 19, Type (0, 0), None
#     Edge 20, Type (0, 0), None
#     Edge 21, Type (0, 0), None
#     Edge 22, Type (0, 0), None
#     Edge 23, Type (0, 0), None
# Relax obj value: 0.048
# Max RMSD: 0.103
# Mean RMSD: 0.103
data_MOF--net-sow--node1-QUQFOY_clean_sbu_1--edge1-none
_symmetry_space_group_name_H-M    P1
_symmetry_Int_Tables_number       1
_symmetry_cell_setting            triclinic
loop_
_symmetry_equiv_pos_as_xyz
'x, y, z'
_cell_length_a     17.756126
_cell_length_b     15.659572
_cell_length_c     9.9422384
_cell_angle_alpha  89.646401
_cell_angle_beta   90.120545
_cell_angle_gamma 89.73975
loop_
_atom_site_label
_atom_site_type_symbol
_atom_site_fract_x
_atom_site_fract_y
_atom_site_fract_z
_atom_type_partial_charge
O0 O 0.18623 0.39553 0.2621 0.0
Cd1 Cd 0.11221 0.45468 0.12957 0.0
Cd2 Cd 0.05949 0.27511 0.13999 0.0
O3 O 0.16176 0.25708 0.23551 0.0
O4 O 0.16329 0.52033 0.98402 0.0
O5 O 0.10819 0.3942 0.95515 0.0
C6 C 0.14972 0.45518 0.90823 0.0
C7 C -0.02343 0.16369 0.07768 0.0
C8 C 0.19995 0.31709 0.2885 0.0
C9 C -0.02058 0.43888 0.26785 0.0
O10 O -0.00186 0.36387 0.23526 0.0
O11 O 0.0155 0.50212 0.22153 0.0
O12 O -0.0018 0.17325 0.19983 0.0
O13 O 0.00717 0.21185 0.98759 0.0
O14 O 0.21148 0.36223 0.76125 0.0
Cd15 Cd 0.28151 0.29358 0.63117 0.0
Cd16 Cd 0.33368 0.49193 0.63816 0.0
O17 O 0.23182 0.50305 0.73632 0.0
O18 O 0.22946 0.23274 0.4826 0.0
O19 O 0.28802 0.35728 0.45811 0.0
C20 C 0.24525 0.2986 0.40868 0.0
C21 C 0.41852 0.60029 0.57819 0.0
C22 C 0.19593 0.44027 0.78845 0.0
C23 C 0.41413 0.31805 0.74739 0.0
O24 O 0.38319 0.38555 0.70536 0.0
O25 O 0.38253 0.24822 0.71918 0.0
O26 O 0.40254 0.58461 0.7021 0.0
O27 O 0.38235 0.55867 0.48689 0.0
O28 O 0.68574 0.36715 0.8612 0.0
Cd29 Cd 0.60894 0.31478 0.99352 0.0
Cd30 Cd 0.55696 0.48803 0.96976 0.0
O31 O 0.66114 0.5058 0.88164 0.0
O32 O 0.65879 0.24633 0.13864 0.0
O33 O 0.60705 0.37472 0.16818 0.0
C34 C 0.64732 0.31198 0.21464 0.0
C35 C 0.47618 0.59996 1.041 0.0
C36 C 0.70019 0.44487 0.83281 0.0
C37 C 0.47735 0.32941 0.83984 0.0
O38 O 0.49343 0.40669 0.86209 0.0
O39 O 0.51233 0.26961 0.90035 0.0
O40 O 0.49971 0.59543 0.91938 0.0
O41 O 0.50415 0.54638 0.1268 0.0
O42 O 0.71074 0.40278 0.36185 0.0
Cd43 Cd 0.78462 0.46246 0.49315 0.0
Cd44 Cd 0.83381 0.27493 0.48213 0.0
O45 O 0.7316 0.26242 0.38396 0.0
O46 O 0.73347 0.52701 0.63883 0.0
O47 O 0.78911 0.40034 0.66741 0.0
C48 C 0.74719 0.46105 0.71434 0.0
C49 C 0.91808 0.16365 0.54295 0.0
C50 C 0.69486 0.32539 0.33348 0.0
C51 C 0.91623 0.44229 0.36173 0.0
O52 O 0.89239 0.36997 0.39792 0.0
O53 O 0.88247 0.5087 0.4019 0.0
O54 O 0.89806 0.176 0.42011 0.0
O55 O 0.88516 0.2089 0.6338 0.0
O56 O 0.70882 0.86835 0.85859 0.0
Cd57 Cd 0.78285 0.8092 0.99112 0.0
Cd58 Cd 0.83557 0.98876 0.98071 0.0
O59 O 0.7333 1.00679 0.88519 0.0
O60 O 0.73177 0.74356 0.13667 0.0
O61 O 0.78688 0.86969 0.16553 0.0
C62 C 0.74534 0.8087 0.21246 0.0
C63 C 0.91849 1.10019 1.04301 0.0
C64 C 0.69511 0.94679 0.83219 0.0
C65 C 0.91563 0.825 0.85285 0.0
O66 O 0.89692 0.90001 0.88543 0.0
O67 O 0.87956 0.76176 0.89916 0.0
O68 O 0.89686 1.09063 0.92087 0.0
O69 O 0.88789 1.05202 0.13311 0.0
O70 O 0.68357 0.90165 0.35944 0.0
Cd71 Cd 0.61354 0.97031 0.48953 0.0
Cd72 Cd 0.56139 0.77195 0.4825 0.0
O73 O 0.66326 0.76082 0.38437 0.0
O74 O 0.6656 1.03114 0.6381 0.0
O75 O 0.60704 0.9066 0.66258 0.0
C76 C 0.64981 0.96529 0.71202 0.0
C77 C 0.47655 0.66361 0.54248 0.0
C78 C 0.69913 0.82361 0.33223 0.0
C79 C 0.48093 0.94583 0.37331 0.0
O80 O 0.51188 0.87833 0.41533 0.0
O81 O 0.51251 1.01566 0.40159 0.0
O82 O 0.49253 0.67928 0.41857 0.0
O83 O 0.51273 0.70523 0.63378 0.0
O84 O 0.20932 0.89673 0.2595 0.0
Cd85 Cd 0.28612 0.94909 0.12718 0.0
Cd86 Cd 0.3381 0.77584 0.15094 0.0
O87 O 0.23392 0.75808 0.23906 0.0
O88 O 0.23627 1.01754 0.98206 0.0
O89 O 0.28801 0.88916 0.95251 0.0
C90 C 0.24774 0.9519 0.90606 0.0
C91 C 0.41888 0.66391 0.0797 0.0
C92 C 0.19487 0.81901 0.28789 0.0
C93 C 0.41772 0.93446 0.28085 0.0
O94 O 0.40163 0.85718 0.25861 0.0
O95 O 0.38273 0.99426 0.22035 0.0
O96 O 0.39535 0.66845 0.20131 0.0
O97 O 0.39091 0.7175 0.9939 0.0
O98 O 0.18432 0.8611 0.75885 0.0
Cd99 Cd 0.11044 0.80142 0.62755 0.0
Cd100 Cd 0.06125 0.98895 0.63856 0.0
O101 O 0.16346 1.00146 0.73674 0.0
O102 O 0.16159 0.73687 0.48187 0.0
O103 O 0.10595 0.86354 0.45329 0.0
C104 C 0.14787 0.80283 0.40635 0.0
C105 C -0.02303 1.10023 0.57774 0.0
C106 C 0.20019 0.93848 0.78722 0.0
C107 C -0.02118 0.82159 0.75897 0.0
O108 O 0.00267 0.89391 0.72277 0.0
O109 O 0.01259 0.75518 0.7188 0.0
O110 O -0.003 1.08787 0.70059 0.0
O111 O 0.00989 1.05498 0.48689 0.0
loop_
_geom_bond_atom_site_label_1
_geom_bond_atom_site_label_2
_geom_bond_distance
_geom_bond_site_symmetry_2
_ccdc_geom_bond_type
O0 Cd1 2.223 . S
O0 C8 1.315 . S
Cd1 O0 2.223 . S
Cd1 O4 2.297 1_554 S
Cd1 O5 2.439 1_554 S
Cd1 O11 2.240 . S
Cd2 O3 2.240 . S
Cd2 O10 2.223 . S
Cd2 O12 2.297 . S
Cd2 O13 2.439 1_554 S
O3 Cd2 2.240 . S
O3 C8 1.279 . S
O4 Cd1 2.297 1_556 S
O4 C6 1.247 . S
O5 Cd1 2.439 1_556 S
O5 C6 1.208 . S
C6 O4 1.247 . S
C6 O5 1.208 . S
C7 O12 1.247 . S
C7 O13 1.208 1_554 S
C8 O0 1.315 . S
C8 O3 1.279 . S
C9 O10 1.315 1_655 S
C9 O11 1.279 1_655 S
O10 Cd2 2.223 . S
O10 C9 1.315 1_455 S
O11 Cd1 2.240 . S
O11 C9 1.279 1_455 S
O12 Cd2 2.297 . S
O12 C7 1.247 . S
O13 Cd2 2.439 1_556 S
O13 C7 1.208 1_556 S
O14 Cd15 2.223 . S
O14 C22 1.315 . S
Cd15 O14 2.223 . S
Cd15 O18 2.297 . S
Cd15 O19 2.439 . S
Cd15 O25 2.240 . S
Cd16 O17 2.240 . S
Cd16 O24 2.223 . S
Cd16 O26 2.297 . S
Cd16 O27 2.439 . S
O17 Cd16 2.240 . S
O17 C22 1.279 . S
O18 Cd15 2.297 . S
O18 C20 1.247 . S
O19 Cd15 2.439 . S
O19 C20 1.208 . S
C20 O18 1.247 . S
C20 O19 1.208 . S
C21 O26 1.247 . S
C21 O27 1.208 . S
C22 O14 1.315 . S
C22 O17 1.279 . S
C23 O24 1.315 . S
C23 O25 1.279 . S
O24 Cd16 2.223 . S
O24 C23 1.315 . S
O25 Cd15 2.240 . S
O25 C23 1.279 . S
O26 Cd16 2.297 . S
O26 C21 1.247 . S
O27 Cd16 2.439 . S
O27 C21 1.208 . S
O28 Cd29 2.223 . S
O28 C36 1.315 . S
Cd29 O28 2.223 . S
Cd29 O32 2.297 1_556 S
Cd29 O33 2.439 1_556 S
Cd29 O39 2.240 . S
Cd30 O31 2.240 . S
Cd30 O38 2.223 . S
Cd30 O40 2.297 . S
Cd30 O41 2.439 1_556 S
O31 Cd30 2.240 . S
O31 C36 1.279 . S
O32 Cd29 2.297 1_554 S
O32 C34 1.247 . S
O33 Cd29 2.439 1_554 S
O33 C34 1.208 . S
C34 O32 1.247 . S
C34 O33 1.208 . S
C35 O40 1.247 . S
C35 O41 1.208 1_556 S
C36 O28 1.315 . S
C36 O31 1.279 . S
C37 O38 1.315 . S
C37 O39 1.279 . S
O38 Cd30 2.223 . S
O38 C37 1.315 . S
O39 Cd29 2.240 . S
O39 C37 1.279 . S
O40 Cd30 2.297 . S
O40 C35 1.247 . S
O41 Cd30 2.439 1_554 S
O41 C35 1.208 1_554 S
O42 Cd43 2.223 . S
O42 C50 1.315 . S
Cd43 O42 2.223 . S
Cd43 O46 2.297 . S
Cd43 O47 2.439 . S
Cd43 O53 2.240 . S
Cd44 O45 2.240 . S
Cd44 O52 2.223 . S
Cd44 O54 2.297 . S
Cd44 O55 2.439 . S
O45 Cd44 2.240 . S
O45 C50 1.279 . S
O46 Cd43 2.297 . S
O46 C48 1.247 . S
O47 Cd43 2.439 . S
O47 C48 1.208 . S
C48 O46 1.247 . S
C48 O47 1.208 . S
C49 O54 1.247 . S
C49 O55 1.208 . S
C50 O42 1.315 . S
C50 O45 1.279 . S
C51 O52 1.315 1_455 S
C51 O53 1.279 1_455 S
O52 Cd44 2.223 . S
O52 C51 1.315 1_655 S
O53 Cd43 2.240 . S
O53 C51 1.279 1_655 S
O54 Cd44 2.297 . S
O54 C49 1.247 . S
O55 Cd44 2.439 . S
O55 C49 1.208 . S
O56 Cd57 2.223 . S
O56 C64 1.315 . S
Cd57 O56 2.223 . S
Cd57 O60 2.297 1_556 S
Cd57 O61 2.439 1_556 S
Cd57 O67 2.240 . S
Cd58 O59 2.240 . S
Cd58 O66 2.223 . S
Cd58 O68 2.297 . S
Cd58 O69 2.439 1_556 S
O59 Cd58 2.240 . S
O59 C64 1.279 . S
O60 Cd57 2.297 1_554 S
O60 C62 1.247 . S
O61 Cd57 2.439 1_554 S
O61 C62 1.208 . S
C62 O60 1.247 . S
C62 O61 1.208 . S
C63 O68 1.247 . S
C63 O69 1.208 1_556 S
C64 O56 1.315 . S
C64 O59 1.279 . S
C65 O66 1.315 1_455 S
C65 O67 1.279 1_455 S
O66 Cd58 2.223 . S
O66 C65 1.315 1_655 S
O67 Cd57 2.240 . S
O67 C65 1.279 1_655 S
O68 Cd58 2.297 . S
O68 C63 1.247 . S
O69 Cd58 2.439 1_554 S
O69 C63 1.208 1_554 S
O70 Cd71 2.223 . S
O70 C78 1.315 . S
Cd71 O70 2.223 . S
Cd71 O74 2.297 . S
Cd71 O75 2.439 . S
Cd71 O81 2.240 . S
Cd72 O73 2.240 . S
Cd72 O80 2.223 . S
Cd72 O82 2.297 . S
Cd72 O83 2.439 . S
O73 Cd72 2.240 . S
O73 C78 1.279 . S
O74 Cd71 2.297 . S
O74 C76 1.247 . S
O75 Cd71 2.439 . S
O75 C76 1.208 . S
C76 O74 1.247 . S
C76 O75 1.208 . S
C77 O82 1.247 . S
C77 O83 1.208 . S
C78 O70 1.315 . S
C78 O73 1.279 . S
C79 O80 1.315 . S
C79 O81 1.279 . S
O80 Cd72 2.223 . S
O80 C79 1.315 . S
O81 Cd71 2.240 . S
O81 C79 1.279 . S
O82 Cd72 2.297 . S
O82 C77 1.247 . S
O83 Cd72 2.439 . S
O83 C77 1.208 . S
O84 Cd85 2.223 . S
O84 C92 1.315 . S
Cd85 O84 2.223 . S
Cd85 O88 2.297 1_554 S
Cd85 O89 2.439 1_554 S
Cd85 O95 2.240 . S
Cd86 O87 2.240 . S
Cd86 O94 2.223 . S
Cd86 O96 2.297 . S
Cd86 O97 2.439 1_554 S
O87 Cd86 2.240 . S
O87 C92 1.279 . S
O88 Cd85 2.297 1_556 S
O88 C90 1.247 . S
O89 Cd85 2.439 1_556 S
O89 C90 1.208 . S
C90 O88 1.247 . S
C90 O89 1.208 . S
C91 O96 1.247 . S
C91 O97 1.208 1_554 S
C92 O84 1.315 . S
C92 O87 1.279 . S
C93 O94 1.315 . S
C93 O95 1.279 . S
O94 Cd86 2.223 . S
O94 C93 1.315 . S
O95 Cd85 2.240 . S
O95 C93 1.279 . S
O96 Cd86 2.297 . S
O96 C91 1.247 . S
O97 Cd86 2.439 1_556 S
O97 C91 1.208 1_556 S
O98 Cd99 2.223 . S
O98 C106 1.315 . S
Cd99 O98 2.223 . S
Cd99 O102 2.297 . S
Cd99 O103 2.439 . S
Cd99 O109 2.240 . S
Cd100 O101 2.240 . S
Cd100 O108 2.223 . S
Cd100 O110 2.297 . S
Cd100 O111 2.439 . S
O101 Cd100 2.240 . S
O101 C106 1.279 . S
O102 Cd99 2.297 . S
O102 C104 1.247 . S
O103 Cd99 2.439 . S
O103 C104 1.208 . S
C104 O102 1.247 . S
C104 O103 1.208 . S
C105 O110 1.247 . S
C105 O111 1.208 . S
C106 O98 1.315 . S
C106 O101 1.279 . S
C107 O108 1.315 1_655 S
C107 O109 1.279 1_655 S
O108 Cd100 2.223 . S
O108 C107 1.315 1_455 S
O109 Cd99 2.240 . S
O109 C107 1.279 1_455 S
O110 Cd100 2.297 . S
O110 C105 1.247 . S
O111 Cd100 2.439 . S
O111 C105 1.208 . S
C22 C6 1.843 . S
C8 C20 1.843 . S
C50 C34 1.843 . S
C36 C48 1.843 . S
C62 C78 1.843 . S
C76 C64 1.843 . S
C90 C106 1.843 . S
C92 C104 1.843 . S
C9 C51 0.687 1_655 S
C23 C37 0.687 . S
C107 C65 0.687 1_655 S
C93 C79 0.687 . S
C7 C63 1.540 1_444 S
C77 C21 1.540 . S
C91 C35 1.540 1_554 S
C105 C49 1.540 1_465 S
