# Generated by pormake.
# Topology pcu, (6)-cn, num edge types: 1
# Building blocks:
#     Node 0, Type 0, BuildingBlock: BETDEL_clean_sbu_0, # of connection points: 6
#     Edge 1, Type (0, 0), BuildingBlock: CIFDUS_clean_linker_0, # of connection points: 2
#     Edge 2, Type (0, 0), BuildingBlock: CIFDUS_clean_linker_0, # of connection points: 2
#     Edge 3, Type (0, 0), BuildingBlock: CIFDUS_clean_linker_0, # of connection points: 2
# Relax obj value: 0.000
# Max RMSD: 0.000
# Mean RMSD: 0.000
data_MOF--net-pcu--node1-BETDEL_clean_sbu_0--edge1-CIFDUS_clean_linker_0
_symmetry_space_group_name_H-M    P1
_symmetry_Int_Tables_number       1
_symmetry_cell_setting            triclinic
loop_
_symmetry_equiv_pos_as_xyz
'x, y, z'
_cell_length_a     13.538852
_cell_length_b     16.27729
_cell_length_c     12.548168
_cell_angle_alpha  104.27681
_cell_angle_beta   77.854645
_cell_angle_gamma 109.41847
loop_
_atom_site_label
_atom_site_type_symbol
_atom_site_fract_x
_atom_site_fract_y
_atom_site_fract_z
_atom_type_partial_charge
Dy0 Dy 0.00574 0.08241 0.04533 0.0
C1 C 0.93474 0.71312 0.04189 0.0
C2 C 0.02028 0.24948 1.02641 0.0
Dy3 Dy 0.9494 0.88028 1.02322 0.0
O4 O 0.97693 0.21473 0.11381 0.0
O5 O 0.05799 0.19355 0.94953 0.0
O6 O 0.05122 0.10331 0.21392 0.0
O7 O 0.93023 -0.01054 0.15791 0.0
C8 C -0.01346 0.02779 0.23454 0.0
C9 C 0.96852 0.93529 0.83418 0.0
O10 O 0.78537 0.89085 0.05541 0.0
O11 O 0.83575 0.03249 1.01598 0.0
O12 O -0.02186 0.74794 0.95455 0.0
O13 O 0.89705 0.76903 0.11883 0.0
O14 O 0.90375 0.85975 0.85466 0.0
O15 O 0.02485 0.97316 0.91082 0.0
O16 O 0.16976 0.07186 1.0133 0.0
O17 O 0.11935 0.93021 0.05272 0.0
C18 C 0.76202 0.95833 0.03617 0.0
C19 C 0.19309 0.00438 1.03259 0.0
H20 H 0.09936 0.10589 0.40604 0.0
H21 H 0.83598 0.88358 0.30069 0.0
H22 H 0.80701 0.83542 0.4775 0.0
H23 H 0.85576 0.8574 0.66275 0.0
H24 H 0.11928 0.07954 0.76811 0.0
H25 H 0.14821 0.12782 0.59133 0.0
C26 C 0.03572 0.04688 0.42192 0.0
C27 C 0.97021 -0.00198 0.3405 0.0
C28 C 0.01912 0.02008 0.52402 0.0
C29 C 0.888 0.92176 0.36186 0.0
C30 C 0.87113 0.89446 0.46307 0.0
C31 C 0.91944 0.9164 0.64689 0.0
C32 C -0.01505 0.96521 0.72831 0.0
C33 C 0.93606 0.9432 0.54481 0.0
C34 C 0.06722 0.04144 0.70696 0.0
C35 C 0.08408 0.06879 0.60576 0.0
H36 H 0.26914 0.878 0.06299 0.0
H37 H 0.36934 0.14431 0.99788 0.0
H38 H 0.55375 0.15273 0.99249 0.0
H39 H 0.68595 0.08472 1.00585 0.0
H40 H 0.58576 0.81841 0.07096 0.0
H41 H 0.40135 0.81 0.07638 0.0
C42 C 0.33106 0.93812 0.04776 0.0
C43 C 0.30506 0.01049 1.03093 0.0
C44 C 0.43687 0.94247 0.0445 0.0
C45 C 0.38677 0.0876 1.01118 0.0
C46 C 0.49234 0.09247 1.00799 0.0
C47 C 0.62404 0.02461 1.02109 0.0
C48 C 0.65004 0.95223 0.0379 0.0
C49 C 0.51822 0.02026 1.02437 0.0
C50 C 0.56833 0.87512 0.05768 0.0
C51 C 0.46275 0.87026 0.06089 0.0
H52 H 0.03059 0.60172 0.89434 0.0
H53 H 0.84723 0.63188 0.21943 0.0
H54 H 0.85997 0.49141 0.24436 0.0
H55 H 0.92437 0.36085 0.17387 0.0
H56 H 0.10772 0.33066 0.84879 0.0
H57 H 0.09496 0.47113 0.82383 0.0
C58 C -0.00703 0.57719 0.97035 0.0
C59 C 0.93768 0.62652 0.05482 0.0
C60 C 0.00149 0.49703 0.98432 0.0
C61 C 0.88983 0.59461 0.15318 0.0
C62 C 0.89741 0.51459 0.16755 0.0
C63 C 0.96198 0.38537 0.09785 0.0
C64 C 0.01729 0.33604 1.0134 0.0
C65 C 0.95344 0.46551 0.08388 0.0
C66 C 0.06511 0.36793 0.91502 0.0
C67 C 0.05752 0.44795 0.90064 0.0
loop_
_geom_bond_atom_site_label_1
_geom_bond_atom_site_label_2
_geom_bond_distance
_geom_bond_site_symmetry_2
_ccdc_geom_bond_type
Dy0 O4 2.398 . S
Dy0 O5 2.491 1_554 S
Dy0 O6 2.403 . S
Dy0 O7 2.663 1_545 S
Dy0 O11 2.326 1_455 S
Dy0 O15 2.309 1_454 S
Dy0 O16 2.351 . S
C1 O12 1.185 . S
C1 O13 1.355 1_556 S
C2 O4 1.185 . S
C2 O5 1.355 1_554 S
Dy3 O7 2.309 1_656 S
Dy3 O10 2.351 . S
Dy3 O12 2.398 . S
Dy3 O13 2.491 1_556 S
Dy3 O14 2.403 . S
Dy3 O15 2.663 1_565 S
Dy3 O17 2.326 1_655 S
O4 Dy0 2.398 . S
O4 C2 1.185 . S
O5 Dy0 2.491 1_556 S
O5 C2 1.355 1_556 S
O6 Dy0 2.403 . S
O6 C8 1.254 . S
O7 Dy0 2.663 1_565 S
O7 Dy3 2.309 1_454 S
O7 C8 1.267 1_565 S
C8 O6 1.254 . S
C8 O7 1.267 1_545 S
C9 O14 1.254 . S
C9 O15 1.267 1_565 S
O10 Dy3 2.351 . S
O10 C18 1.249 1_556 S
O11 Dy0 2.326 1_655 S
O11 C18 1.267 1_545 S
O12 C1 1.185 . S
O12 Dy3 2.398 . S
O13 C1 1.355 1_554 S
O13 Dy3 2.491 1_554 S
O14 Dy3 2.403 . S
O14 C9 1.254 . S
O15 Dy0 2.309 1_656 S
O15 Dy3 2.663 1_545 S
O15 C9 1.267 1_545 S
O16 Dy0 2.351 . S
O16 C19 1.249 1_554 S
O17 Dy3 2.326 1_455 S
O17 C19 1.267 1_565 S
C18 O10 1.249 1_554 S
C18 O11 1.267 1_565 S
C19 O16 1.249 1_556 S
C19 O17 1.267 1_545 S
H20 C26 0.930 . S
H21 C29 0.930 . S
H22 C30 0.930 . S
H23 C31 0.930 . S
H24 C34 0.930 . S
H25 C35 0.930 . S
C26 H20 0.930 . S
C26 C27 1.355 1_445 S
C26 C28 1.415 . S
C27 C26 1.355 1_665 S
C27 C29 1.419 . S
C28 C26 1.415 . S
C28 C33 1.425 1_445 S
C28 C35 1.409 . S
C29 H21 0.930 . S
C29 C27 1.419 . S
C29 C30 1.362 . S
C30 H22 0.930 . S
C30 C29 1.362 . S
C30 C33 1.409 . S
C31 H23 0.930 . S
C31 C32 1.355 1_665 S
C31 C33 1.415 . S
C32 C31 1.355 1_445 S
C32 C34 1.419 . S
C33 C28 1.425 1_665 S
C33 C30 1.409 . S
C33 C31 1.415 . S
C34 H24 0.930 . S
C34 C32 1.419 . S
C34 C35 1.362 . S
C35 H25 0.930 . S
C35 C28 1.409 . S
C35 C34 1.362 . S
H36 C42 0.930 . S
H37 C45 0.930 . S
H38 C46 0.930 . S
H39 C47 0.930 . S
H40 C50 0.930 . S
H41 C51 0.930 . S
C42 H36 0.930 . S
C42 C43 1.355 1_564 S
C42 C44 1.415 . S
C43 C42 1.355 1_546 S
C43 C45 1.419 . S
C44 C42 1.415 . S
C44 C49 1.425 1_564 S
C44 C51 1.409 . S
C45 H37 0.930 . S
C45 C43 1.419 . S
C45 C46 1.362 . S
C46 H38 0.930 . S
C46 C45 1.362 . S
C46 C49 1.409 . S
C47 H39 0.930 . S
C47 C48 1.355 1_546 S
C47 C49 1.415 . S
C48 C47 1.355 1_564 S
C48 C50 1.419 . S
C49 C44 1.425 1_546 S
C49 C46 1.409 . S
C49 C47 1.415 . S
C50 H40 0.930 . S
C50 C48 1.419 . S
C50 C51 1.362 . S
C51 H41 0.930 . S
C51 C44 1.409 . S
C51 C50 1.362 . S
H52 C58 0.930 . S
H53 C61 0.930 . S
H54 C62 0.930 . S
H55 C63 0.930 . S
H56 C66 0.930 . S
H57 C67 0.930 . S
C58 H52 0.930 . S
C58 C59 1.355 1_456 S
C58 C60 1.415 . S
C59 C58 1.355 1_654 S
C59 C61 1.419 . S
C60 C58 1.415 . S
C60 C65 1.425 1_456 S
C60 C67 1.409 . S
C61 H53 0.930 . S
C61 C59 1.419 . S
C61 C62 1.362 . S
C62 H54 0.930 . S
C62 C61 1.362 . S
C62 C65 1.409 . S
C63 H55 0.930 . S
C63 C64 1.355 1_654 S
C63 C65 1.415 . S
C64 C63 1.355 1_456 S
C64 C66 1.419 . S
C65 C60 1.425 1_654 S
C65 C62 1.409 . S
C65 C63 1.415 . S
C66 H56 0.930 . S
C66 C64 1.419 . S
C66 C67 1.362 . S
C67 H57 0.930 . S
C67 C60 1.409 . S
C67 C66 1.362 . S
C27 C8 1.482 1_665 S
C32 C9 1.482 1_445 S
C43 C19 1.474 . S
C48 C18 1.474 . S
C59 C1 1.457 1_554 S
C64 C2 1.457 1_556 S
