# Generated by pormake.
# Topology dmp, (4)-cn, num edge types: 1
# Building blocks:
#     Node 0, Type 0, BuildingBlock: KUFVIS_clean_sbu_0, # of connection points: 4
#     Node 1, Type 0, BuildingBlock: KUFVIS_clean_sbu_0, # of connection points: 4
#     Node 2, Type 0, BuildingBlock: KUFVIS_clean_sbu_0, # of connection points: 4
#     Node 3, Type 0, BuildingBlock: KUFVIS_clean_sbu_0, # of connection points: 4
#     Edge 4, Type (0, 0), BuildingBlock: OJICUG_clean_linker_0, # of connection points: 2
#     Edge 5, Type (0, 0), BuildingBlock: OJICUG_clean_linker_0, # of connection points: 2
#     Edge 6, Type (0, 0), BuildingBlock: OJICUG_clean_linker_0, # of connection points: 2
#     Edge 7, Type (0, 0), BuildingBlock: OJICUG_clean_linker_0, # of connection points: 2
#     Edge 8, Type (0, 0), BuildingBlock: OJICUG_clean_linker_0, # of connection points: 2
#     Edge 9, Type (0, 0), BuildingBlock: OJICUG_clean_linker_0, # of connection points: 2
#     Edge 10, Type (0, 0), BuildingBlock: OJICUG_clean_linker_0, # of connection points: 2
#     Edge 11, Type (0, 0), BuildingBlock: OJICUG_clean_linker_0, # of connection points: 2
# Relax obj value: 0.121
# Max RMSD: 0.218
# Mean RMSD: 0.218
data_MOF--net-dmp--node1-KUFVIS_clean_sbu_0--edge1-OJICUG_clean_linker_0
_symmetry_space_group_name_H-M    P1
_symmetry_Int_Tables_number       1
_symmetry_cell_setting            triclinic
loop_
_symmetry_equiv_pos_as_xyz
'x, y, z'
_cell_length_a     28.235789
_cell_length_b     13.971287
_cell_length_c     11.250845
_cell_angle_alpha  89.676964
_cell_angle_beta   90.604601
_cell_angle_gamma 93.476748
loop_
_atom_site_label
_atom_site_type_symbol
_atom_site_fract_x
_atom_site_fract_y
_atom_site_fract_z
_atom_type_partial_charge
Mn0 Mn 0.11106 0.24505 0.31005 0.0
Mn1 Mn 0.18288 0.18537 0.08759 0.0
C2 C 0.17735 0.34262 0.2726 0.0
C3 C 0.05072 0.33208 0.38631 0.0
C4 C 0.18826 0.10187 0.33521 0.0
O5 O 0.06796 0.15165 0.21814 0.0
O6 O 0.12046 0.11 0.08266 0.0
C7 C 0.12551 0.2523 0.88459 0.0
N8 N 0.1679 0.25014 0.94318 0.0
C9 C 0.20928 0.32611 0.77869 0.0
C10 C 0.16612 0.32879 0.71629 0.0
C11 C 0.124 0.29256 0.77 0.0
C12 C 0.20846 0.28664 0.89328 0.0
H13 H 0.09321 0.22256 0.92439 0.0
C14 C 0.07917 0.10275 0.12904 0.0
O15 O 0.06437 0.25594 0.44058 0.0
O16 O 0.06814 0.35025 0.28207 0.0
N17 N 0.24458 0.24861 0.07281 0.0
C18 C 0.28248 0.24807 0.14857 0.0
C19 C 0.3268 0.28815 0.11194 0.0
C20 C 0.33199 0.3262 0.99663 0.0
C21 C 0.29263 0.32479 0.91947 0.0
C22 C 0.24926 0.28487 0.96148 0.0
H23 H 0.27883 0.2176 0.23611 0.0
O24 O 0.15714 0.3372 0.3751 0.0
O25 O 0.15823 0.28785 0.18789 0.0
O26 O 0.1512 0.13699 0.37685 0.0
O27 O 0.20272 0.11653 0.2296 0.0
C28 C 0.29462 0.3619 0.8028 0.0
C29 C 0.25307 0.36115 0.73187 0.0
H30 H 0.16486 0.3591 0.62758 0.0
H31 H 0.09057 0.29443 0.72253 0.0
H32 H 0.357 0.2889 0.17205 0.0
H33 H 0.36626 0.35676 0.96853 0.0
H34 H 0.3278 0.39183 0.76702 0.0
H35 H 0.25506 0.38913 0.64201 0.0
Mn36 Mn 0.39878 0.71658 0.30529 0.0
Mn37 Mn 0.32752 0.78476 0.07911 0.0
C38 C 0.33032 0.62743 0.2633 0.0
C39 C 0.45898 0.62791 0.3839 0.0
C40 C 0.32337 0.86431 0.32804 0.0
O41 O 0.44224 0.81185 0.2169 0.0
O42 O 0.39072 0.85634 0.07679 0.0
C43 C 0.38391 0.71426 0.88028 0.0
N44 N 0.34177 0.71723 0.93765 0.0
C45 C 0.30044 0.63125 0.77928 0.0
C46 C 0.34332 0.62776 0.71818 0.0
C47 C 0.38531 0.66872 0.76947 0.0
C48 C 0.30138 0.67609 0.89029 0.0
H49 H 0.41617 0.74711 0.91817 0.0
C50 C 0.43179 0.86168 0.12641 0.0
O51 O 0.44532 0.70333 0.43776 0.0
O52 O 0.44142 0.61078 0.27862 0.0
N53 N 0.26512 0.72394 0.06319 0.0
C54 C 0.22655 0.73278 0.13317 0.0
C55 C 0.18221 0.69118 0.0974 0.0
C56 C 0.17749 0.644 0.98772 0.0
C57 C 0.21722 0.6389 0.91488 0.0
C58 C 0.26071 0.68029 0.95628 0.0
H59 H 0.22958 0.77119 0.21553 0.0
O60 O 0.35187 0.62257 0.36505 0.0
O61 O 0.35088 0.6819 0.18139 0.0
O62 O 0.3591 0.82398 0.37188 0.0
O63 O 0.30925 0.85474 0.22047 0.0
C64 C 0.21529 0.59506 0.80241 0.0
C65 C 0.25676 0.59244 0.7341 0.0
H66 H 0.34444 0.59355 0.63215 0.0
H67 H 0.41855 0.66624 0.72301 0.0
H68 H 0.15161 0.69661 0.15355 0.0
H69 H 0.14316 0.61264 0.95991 0.0
H70 H 0.18209 0.56335 0.76742 0.0
H71 H 0.25471 0.55974 0.64718 0.0
Mn72 Mn 0.90101 0.71662 0.71663 0.0
Mn73 Mn 0.82919 0.77631 0.93908 0.0
C74 C 0.83473 0.61906 0.75407 0.0
C75 C 0.96136 0.62959 0.64037 0.0
C76 C 0.82382 0.8598 0.69146 0.0
O77 O 0.94412 0.81001 0.80854 0.0
O78 O 0.89161 0.85167 0.94401 0.0
C79 C 0.88656 0.70937 0.14208 0.0
N80 N 0.84417 0.71153 0.08349 0.0
C81 C 0.8028 0.63556 0.24797 0.0
C82 C 0.84595 0.63288 0.31038 0.0
C83 C 0.88807 0.66911 0.25667 0.0
C84 C 0.80361 0.67503 0.13339 0.0
H85 H 0.91886 0.73911 0.10228 0.0
C86 C 0.93291 0.85892 0.89764 0.0
O87 O 0.9477 0.70573 0.5861 0.0
O88 O 0.94393 0.61141 0.74461 0.0
N89 N 0.7675 0.71307 0.95386 0.0
C90 C 0.72959 0.71361 0.8781 0.0
C91 C 0.68527 0.67353 0.91473 0.0
C92 C 0.68008 0.63548 0.03003 0.0
C93 C 0.71944 0.63689 0.1072 0.0
C94 C 0.76281 0.6768 0.06519 0.0
H95 H 0.73324 0.74409 0.79055 0.0
O96 O 0.85493 0.62448 0.65158 0.0
O97 O 0.85384 0.67383 0.83878 0.0
O98 O 0.86088 0.82468 0.64983 0.0
O99 O 0.80936 0.84514 0.79707 0.0
C100 C 0.71746 0.59978 0.22387 0.0
C101 C 0.759 0.60052 0.2948 0.0
H102 H 0.84721 0.60257 0.39909 0.0
H103 H 0.9215 0.66724 0.30415 0.0
H104 H 0.65508 0.67279 0.85461 0.0
H105 H 0.64581 0.60492 0.05813 0.0
H106 H 0.68427 0.56985 0.25964 0.0
H107 H 0.75701 0.57254 0.38466 0.0
Mn108 Mn 0.6133 0.24509 0.72136 0.0
Mn109 Mn 0.68455 0.17691 0.94753 0.0
C110 C 0.68175 0.33425 0.76335 0.0
C111 C 0.55309 0.33375 0.64274 0.0
C112 C 0.6887 0.09736 0.69861 0.0
O113 O 0.56983 0.14981 0.80974 0.0
O114 O 0.62136 0.10533 0.94986 0.0
C115 C 0.62816 0.24741 0.14637 0.0
N116 N 0.67031 0.24445 0.089 0.0
C117 C 0.71163 0.33043 0.24737 0.0
C118 C 0.66875 0.33391 0.30847 0.0
C119 C 0.62677 0.29295 0.25718 0.0
C120 C 0.7107 0.28558 0.13636 0.0
H121 H 0.59591 0.21456 0.10848 0.0
C122 C 0.58029 0.09998 0.90023 0.0
O123 O 0.56675 0.25834 0.58888 0.0
O124 O 0.57065 0.35088 0.74803 0.0
N125 N 0.74695 0.23774 0.96346 0.0
C126 C 0.78552 0.22891 0.89348 0.0
C127 C 0.82986 0.27051 0.92924 0.0
C128 C 0.83458 0.31768 0.03893 0.0
C129 C 0.79485 0.32278 0.11177 0.0
C130 C 0.75136 0.28139 0.07037 0.0
H131 H 0.78249 0.19049 0.81112 0.0
O132 O 0.6602 0.3391 0.6616 0.0
O133 O 0.66119 0.27977 0.84526 0.0
O134 O 0.65297 0.13769 0.65477 0.0
O135 O 0.70282 0.10694 0.80618 0.0
C136 C 0.79678 0.36661 0.22424 0.0
C137 C 0.75531 0.36924 0.29255 0.0
H138 H 0.66764 0.36811 0.3945 0.0
H139 H 0.59352 0.29543 0.30364 0.0
H140 H 0.86046 0.26508 0.87309 0.0
H141 H 0.86892 0.34905 0.06674 0.0
H142 H 0.82998 0.39833 0.25923 0.0
H143 H 0.75737 0.40194 0.37947 0.0
C144 C 0.30345 0.01782 0.41808 0.0
C145 C 0.29284 0.91941 0.40387 0.0
H146 H 0.27525 0.15643 0.42322 0.0
C147 C 0.24567 0.8831 0.41887 0.0
H148 H 0.3395 0.04771 0.40793 0.0
C149 C 0.20866 0.94545 0.41843 0.0
C150 C 0.21908 0.04446 0.40985 0.0
H151 H 0.23692 0.80674 0.41264 0.0
H152 H 0.17248 0.91599 0.40786 0.0
C153 C 0.2665 0.07994 0.42497 0.0
C154 C 0.23279 0.45284 0.14908 0.0
C155 C 0.21356 0.4224 0.25811 0.0
H156 H 0.29208 0.5294 0.06604 0.0
C157 C 0.22705 0.47475 0.36073 0.0
H158 H 0.21802 0.42521 0.06711 0.0
C159 C 0.2609 0.54968 0.35556 0.0
C160 C 0.28586 0.56903 0.25069 0.0
H161 H 0.21173 0.45831 0.44688 0.0
H162 H 0.27007 0.58799 0.43692 0.0
C163 C 0.27216 0.51903 0.14696 0.0
C164 C 0.70863 0.94385 0.60857 0.0
C165 C 0.71924 0.04226 0.62278 0.0
H166 H 0.73683 0.80524 0.60345 0.0
C167 C 0.76641 0.07857 0.60778 0.0
H168 H 0.67258 0.91396 0.61872 0.0
C169 C 0.80342 0.01623 0.60823 0.0
C170 C 0.793 0.91722 0.61682 0.0
H171 H 0.77516 0.15494 0.61401 0.0
H172 H 0.8396 0.04568 0.6188 0.0
C173 C 0.74558 0.88174 0.60169 0.0
C174 C 0.77928 0.50884 0.87758 0.0
C175 C 0.79851 0.53928 0.76855 0.0
H176 H 0.71998 0.43227 0.96061 0.0
C177 C 0.78502 0.48695 0.66593 0.0
H178 H 0.79405 0.53646 0.95955 0.0
C179 C 0.75116 0.41201 0.67109 0.0
C180 C 0.72621 0.39265 0.77596 0.0
H181 H 0.80033 0.50339 0.57978 0.0
H182 H 0.742 0.37371 0.58973 0.0
C183 C 0.73991 0.44265 0.87969 0.0
C184 C 0.99575 0.02986 0.11699 0.0
C185 C 0.04201 0.03865 0.07142 0.0
H186 H 0.92513 0.96731 0.09789 0.0
C187 C 0.05184 -0.01111 0.96702 0.0
H188 H 0.98677 0.06738 0.19688 0.0
C189 C 0.01633 0.93181 0.90969 0.0
C190 C 0.97007 0.92301 0.95526 0.0
H191 H 0.08695 -0.00564 0.92879 0.0
H192 H 0.02531 0.89429 0.8298 0.0
C193 C 0.96024 0.97277 0.05966 0.0
C194 C 0.49616 0.03107 0.90897 0.0
C195 C 0.5425 0.0372 0.95628 0.0
H196 H 0.42497 0.97201 0.92567 0.0
C197 C 0.55191 -0.01376 0.06137 0.0
H198 H 0.48751 0.06961 0.82859 0.0
C199 C 0.51591 0.93059 0.11768 0.0
C200 C 0.46957 0.92446 0.07036 0.0
H201 H 0.5871 -0.01035 0.10097 0.0
H202 H 0.52456 0.89205 0.19805 0.0
C203 C 0.46016 0.97542 0.96528 0.0
C204 C 1.00048 0.56976 0.45871 0.0
C205 C 0.9872 0.55617 0.57774 0.0
H206 H 0.02956 0.50869 0.30379 0.0
C207 C 0.99304 0.46643 0.63172 0.0
H208 H 0.99609 0.63764 0.41425 0.0
C209 C 0.01159 0.3919 0.56797 0.0
C210 C 0.02488 0.4055 0.44894 0.0
H211 H 0.98252 0.45298 0.72289 0.0
H212 H 0.01599 0.32403 0.61243 0.0
C213 C 0.01903 0.49524 0.39495 0.0
C214 C 0.49281 0.46637 0.39448 0.0
C215 C 0.48576 0.55516 0.44781 0.0
H216 H 0.51814 0.32576 0.41514 0.0
C217 C 0.49927 0.56878 0.56738 0.0
H218 H 0.4822 0.45293 0.30299 0.0
C219 C 0.51926 0.49529 0.63217 0.0
C220 C 0.52631 0.4065 0.57884 0.0
H221 H 0.49393 0.6359 0.6115 0.0
H222 H 0.52988 0.50873 0.72365 0.0
C223 C 0.5128 0.39288 0.45927 0.0
loop_
_geom_bond_atom_site_label_1
_geom_bond_atom_site_label_2
_geom_bond_distance
_geom_bond_site_symmetry_2
_ccdc_geom_bond_type
Mn0 O5 2.095 . S
Mn0 O15 2.162 . S
Mn0 O16 2.297 . S
Mn0 O24 2.385 . S
Mn0 O25 2.209 . S
Mn0 O26 2.094 . S
Mn1 O6 2.121 . S
Mn1 N8 2.257 1_554 S
Mn1 N17 2.282 . S
Mn1 O25 2.215 . S
Mn1 O27 2.117 . S
C2 O24 1.234 . S
C2 O25 1.283 . S
C3 O15 1.281 . S
C3 O16 1.236 . S
C4 O26 1.240 . S
C4 O27 1.264 . S
O5 Mn0 2.095 . S
O5 C14 1.250 . S
O6 Mn1 2.121 . S
O6 C14 1.258 . S
C7 N8 1.326 . S
C7 C11 1.460 . S
C7 H13 0.929 . S
N8 Mn1 2.257 1_556 S
N8 C7 1.326 . S
N8 C12 1.362 . S
C9 C10 1.258 . S
C9 C12 1.431 . S
C9 C29 1.449 . S
C10 C9 1.258 . S
C10 C11 1.477 . S
C10 H30 0.931 . S
C11 C7 1.460 . S
C11 C10 1.477 . S
C11 H31 0.930 . S
C12 N8 1.362 . S
C12 C9 1.431 . S
C12 C22 1.476 . S
H13 C7 0.929 . S
C14 O5 1.250 . S
C14 O6 1.258 . S
O15 Mn0 2.162 . S
O15 C3 1.281 . S
O16 Mn0 2.297 . S
O16 C3 1.236 . S
N17 Mn1 2.282 . S
N17 C18 1.328 . S
N17 C22 1.318 1_554 S
C18 N17 1.328 . S
C18 C19 1.457 . S
C18 H23 0.929 . S
C19 C18 1.457 . S
C19 C20 1.291 . S
C19 H32 0.931 . S
C20 C19 1.291 . S
C20 C21 1.373 1_554 S
C20 H33 0.929 . S
C21 C20 1.373 1_556 S
C21 C22 1.396 . S
C21 C28 1.403 . S
C22 C12 1.476 . S
C22 N17 1.318 1_556 S
C22 C21 1.396 . S
H23 C18 0.929 . S
O24 Mn0 2.385 . S
O24 C2 1.234 . S
O25 Mn0 2.209 . S
O25 Mn1 2.215 . S
O25 C2 1.283 . S
O26 Mn0 2.094 . S
O26 C4 1.240 . S
O27 Mn1 2.117 . S
O27 C4 1.264 . S
C28 C21 1.403 . S
C28 C29 1.399 . S
C28 H34 0.929 . S
C29 C9 1.449 . S
C29 C28 1.399 . S
C29 H35 0.930 . S
H30 C10 0.931 . S
H31 C11 0.930 . S
H32 C19 0.931 . S
H33 C20 0.929 . S
H34 C28 0.929 . S
H35 C29 0.930 . S
Mn36 O41 2.095 . S
Mn36 O51 2.162 . S
Mn36 O52 2.297 . S
Mn36 O60 2.385 . S
Mn36 O61 2.209 . S
Mn36 O62 2.094 . S
Mn37 O42 2.121 . S
Mn37 N44 2.257 1_554 S
Mn37 N53 2.282 . S
Mn37 O61 2.215 . S
Mn37 O63 2.117 . S
C38 O60 1.234 . S
C38 O61 1.283 . S
C39 O51 1.281 . S
C39 O52 1.236 . S
C40 O62 1.240 . S
C40 O63 1.264 . S
O41 Mn36 2.095 . S
O41 C50 1.250 . S
O42 Mn37 2.121 . S
O42 C50 1.258 . S
C43 N44 1.326 . S
C43 C47 1.460 . S
C43 H49 0.929 . S
N44 Mn37 2.257 1_556 S
N44 C43 1.326 . S
N44 C48 1.362 . S
C45 C46 1.258 . S
C45 C48 1.431 . S
C45 C65 1.449 . S
C46 C45 1.258 . S
C46 C47 1.477 . S
C46 H66 0.931 . S
C47 C43 1.460 . S
C47 C46 1.477 . S
C47 H67 0.930 . S
C48 N44 1.362 . S
C48 C45 1.431 . S
C48 C58 1.476 . S
H49 C43 0.929 . S
C50 O41 1.250 . S
C50 O42 1.258 . S
O51 Mn36 2.162 . S
O51 C39 1.281 . S
O52 Mn36 2.297 . S
O52 C39 1.236 . S
N53 Mn37 2.282 . S
N53 C54 1.328 . S
N53 C58 1.318 1_554 S
C54 N53 1.328 . S
C54 C55 1.457 . S
C54 H59 0.929 . S
C55 C54 1.457 . S
C55 C56 1.291 . S
C55 H68 0.931 . S
C56 C55 1.291 . S
C56 C57 1.373 1_554 S
C56 H69 0.929 . S
C57 C56 1.373 1_556 S
C57 C58 1.396 . S
C57 C64 1.403 . S
C58 C48 1.476 . S
C58 N53 1.318 1_556 S
C58 C57 1.396 . S
H59 C54 0.929 . S
O60 Mn36 2.385 . S
O60 C38 1.234 . S
O61 Mn36 2.209 . S
O61 Mn37 2.215 . S
O61 C38 1.283 . S
O62 Mn36 2.094 . S
O62 C40 1.240 . S
O63 Mn37 2.117 . S
O63 C40 1.264 . S
C64 C57 1.403 . S
C64 C65 1.399 . S
C64 H70 0.929 . S
C65 C45 1.449 . S
C65 C64 1.399 . S
C65 H71 0.930 . S
H66 C46 0.931 . S
H67 C47 0.930 . S
H68 C55 0.931 . S
H69 C56 0.929 . S
H70 C64 0.929 . S
H71 C65 0.930 . S
Mn72 O77 2.095 . S
Mn72 O87 2.162 . S
Mn72 O88 2.297 . S
Mn72 O96 2.385 . S
Mn72 O97 2.209 . S
Mn72 O98 2.094 . S
Mn73 O78 2.121 . S
Mn73 N80 2.257 1_556 S
Mn73 N89 2.282 . S
Mn73 O97 2.215 . S
Mn73 O99 2.117 . S
C74 O96 1.234 . S
C74 O97 1.283 . S
C75 O87 1.281 . S
C75 O88 1.236 . S
C76 O98 1.240 . S
C76 O99 1.264 . S
O77 Mn72 2.095 . S
O77 C86 1.250 . S
O78 Mn73 2.121 . S
O78 C86 1.258 . S
C79 N80 1.326 . S
C79 C83 1.460 . S
C79 H85 0.929 . S
N80 Mn73 2.257 1_554 S
N80 C79 1.326 . S
N80 C84 1.362 . S
C81 C82 1.258 . S
C81 C84 1.431 . S
C81 C101 1.449 . S
C82 C81 1.258 . S
C82 C83 1.477 . S
C82 H102 0.931 . S
C83 C79 1.460 . S
C83 C82 1.477 . S
C83 H103 0.930 . S
C84 N80 1.362 . S
C84 C81 1.431 . S
C84 C94 1.476 . S
H85 C79 0.929 . S
C86 O77 1.250 . S
C86 O78 1.258 . S
O87 Mn72 2.162 . S
O87 C75 1.281 . S
O88 Mn72 2.297 . S
O88 C75 1.236 . S
N89 Mn73 2.282 . S
N89 C90 1.328 . S
N89 C94 1.318 1_556 S
C90 N89 1.328 . S
C90 C91 1.457 . S
C90 H95 0.929 . S
C91 C90 1.457 . S
C91 C92 1.291 . S
C91 H104 0.931 . S
C92 C91 1.291 . S
C92 C93 1.373 1_556 S
C92 H105 0.929 . S
C93 C92 1.373 1_554 S
C93 C94 1.396 . S
C93 C100 1.403 . S
C94 C84 1.476 . S
C94 N89 1.318 1_554 S
C94 C93 1.396 . S
H95 C90 0.929 . S
O96 Mn72 2.385 . S
O96 C74 1.234 . S
O97 Mn72 2.209 . S
O97 Mn73 2.215 . S
O97 C74 1.283 . S
O98 Mn72 2.094 . S
O98 C76 1.240 . S
O99 Mn73 2.117 . S
O99 C76 1.264 . S
C100 C93 1.403 . S
C100 C101 1.399 . S
C100 H106 0.929 . S
C101 C81 1.449 . S
C101 C100 1.399 . S
C101 H107 0.930 . S
H102 C82 0.931 . S
H103 C83 0.930 . S
H104 C91 0.931 . S
H105 C92 0.929 . S
H106 C100 0.929 . S
H107 C101 0.930 . S
Mn108 O113 2.095 . S
Mn108 O123 2.162 . S
Mn108 O124 2.297 . S
Mn108 O132 2.385 . S
Mn108 O133 2.209 . S
Mn108 O134 2.094 . S
Mn109 O114 2.121 . S
Mn109 N116 2.257 1_556 S
Mn109 N125 2.282 . S
Mn109 O133 2.215 . S
Mn109 O135 2.117 . S
C110 O132 1.234 . S
C110 O133 1.283 . S
C111 O123 1.281 . S
C111 O124 1.236 . S
C112 O134 1.240 . S
C112 O135 1.264 . S
O113 Mn108 2.095 . S
O113 C122 1.250 . S
O114 Mn109 2.121 . S
O114 C122 1.258 . S
C115 N116 1.326 . S
C115 C119 1.460 . S
C115 H121 0.929 . S
N116 Mn109 2.257 1_554 S
N116 C115 1.326 . S
N116 C120 1.362 . S
C117 C118 1.258 . S
C117 C120 1.431 . S
C117 C137 1.449 . S
C118 C117 1.258 . S
C118 C119 1.477 . S
C118 H138 0.931 . S
C119 C115 1.460 . S
C119 C118 1.477 . S
C119 H139 0.930 . S
C120 N116 1.362 . S
C120 C117 1.431 . S
C120 C130 1.476 . S
H121 C115 0.929 . S
C122 O113 1.250 . S
C122 O114 1.258 . S
O123 Mn108 2.162 . S
O123 C111 1.281 . S
O124 Mn108 2.297 . S
O124 C111 1.236 . S
N125 Mn109 2.282 . S
N125 C126 1.328 . S
N125 C130 1.318 1_556 S
C126 N125 1.328 . S
C126 C127 1.457 . S
C126 H131 0.929 . S
C127 C126 1.457 . S
C127 C128 1.291 . S
C127 H140 0.931 . S
C128 C127 1.291 . S
C128 C129 1.373 1_556 S
C128 H141 0.929 . S
C129 C128 1.373 1_554 S
C129 C130 1.396 . S
C129 C136 1.403 . S
C130 C120 1.476 . S
C130 N125 1.318 1_554 S
C130 C129 1.396 . S
H131 C126 0.929 . S
O132 Mn108 2.385 . S
O132 C110 1.234 . S
O133 Mn108 2.209 . S
O133 Mn109 2.215 . S
O133 C110 1.283 . S
O134 Mn108 2.094 . S
O134 C112 1.240 . S
O135 Mn109 2.117 . S
O135 C112 1.264 . S
C136 C129 1.403 . S
C136 C137 1.399 . S
C136 H142 0.929 . S
C137 C117 1.449 . S
C137 C136 1.399 . S
C137 H143 0.930 . S
H138 C118 0.931 . S
H139 C119 0.930 . S
H140 C127 0.931 . S
H141 C128 0.929 . S
H142 C136 0.929 . S
H143 C137 0.930 . S
C144 C145 1.387 . S
C144 H148 0.950 . S
C144 C153 1.390 1_565 S
C145 C144 1.387 . S
C145 C147 1.387 . S
H146 C153 0.950 . S
C147 C145 1.387 . S
C147 C149 1.390 1_565 S
C147 H151 0.950 . S
H148 C144 0.950 . S
C149 C147 1.390 1_545 S
C149 C150 1.387 . S
C149 H152 0.950 . S
C150 C149 1.387 . S
C150 C153 1.387 . S
H151 C147 0.950 . S
H152 C149 0.950 . S
C153 C144 1.390 1_545 S
C153 H146 0.950 . S
C153 C150 1.387 . S
C154 C155 1.387 . S
C154 H158 0.950 . S
C154 C163 1.390 . S
C155 C154 1.387 . S
C155 C157 1.387 . S
H156 C163 0.950 . S
C157 C155 1.387 . S
C157 C159 1.390 . S
C157 H161 0.950 . S
H158 C154 0.950 . S
C159 C157 1.390 . S
C159 C160 1.387 . S
C159 H162 0.950 . S
C160 C159 1.387 . S
C160 C163 1.387 . S
H161 C157 0.950 . S
H162 C159 0.950 . S
C163 C154 1.390 . S
C163 H156 0.950 . S
C163 C160 1.387 . S
C164 C165 1.387 . S
C164 H168 0.950 . S
C164 C173 1.390 1_545 S
C165 C164 1.387 . S
C165 C167 1.387 . S
H166 C173 0.950 . S
C167 C165 1.387 . S
C167 C169 1.390 1_545 S
C167 H171 0.950 . S
H168 C164 0.950 . S
C169 C167 1.390 1_565 S
C169 C170 1.387 . S
C169 H172 0.950 . S
C170 C169 1.387 . S
C170 C173 1.387 . S
H171 C167 0.950 . S
H172 C169 0.950 . S
C173 C164 1.390 1_565 S
C173 H166 0.950 . S
C173 C170 1.387 . S
C174 C175 1.387 . S
C174 H178 0.950 . S
C174 C183 1.390 . S
C175 C174 1.387 . S
C175 C177 1.387 . S
H176 C183 0.950 . S
C177 C175 1.387 . S
C177 C179 1.390 . S
C177 H181 0.950 . S
H178 C174 0.950 . S
C179 C177 1.390 . S
C179 C180 1.387 . S
C179 H182 0.950 . S
C180 C179 1.387 . S
C180 C183 1.387 . S
H181 C177 0.950 . S
H182 C179 0.950 . S
C183 C174 1.390 . S
C183 H176 0.950 . S
C183 C180 1.387 . S
C184 C185 1.387 . S
C184 H188 0.950 . S
C184 C193 1.390 1_445 S
C185 C184 1.387 . S
C185 C187 1.387 1_554 S
H186 C193 0.950 . S
C187 C185 1.387 1_556 S
C187 C189 1.390 1_445 S
C187 H191 0.950 . S
H188 C184 0.950 . S
C189 C187 1.390 1_665 S
C189 C190 1.387 . S
C189 H192 0.950 . S
C190 C189 1.387 . S
C190 C193 1.387 1_556 S
H191 C187 0.950 . S
H192 C189 0.950 . S
C193 C184 1.390 1_665 S
C193 H186 0.950 . S
C193 C190 1.387 1_554 S
C194 C195 1.387 . S
C194 H198 0.950 . S
C194 C203 1.390 1_545 S
C195 C194 1.387 . S
C195 C197 1.387 1_556 S
H196 C203 0.950 . S
C197 C195 1.387 1_554 S
C197 C199 1.390 1_545 S
C197 H201 0.950 . S
H198 C194 0.950 . S
C199 C197 1.390 1_565 S
C199 C200 1.387 . S
C199 H202 0.950 . S
C200 C199 1.387 . S
C200 C203 1.387 1_554 S
H201 C197 0.950 . S
H202 C199 0.950 . S
C203 C194 1.390 1_565 S
C203 H196 0.950 . S
C203 C200 1.387 1_556 S
C204 C205 1.387 . S
C204 H208 0.950 . S
C204 C213 1.390 1_655 S
C205 C204 1.387 . S
C205 C207 1.387 . S
H206 C213 0.950 . S
C207 C205 1.387 . S
C207 C209 1.390 1_655 S
C207 H211 0.950 . S
H208 C204 0.950 . S
C209 C207 1.390 1_455 S
C209 C210 1.387 . S
C209 H212 0.950 . S
C210 C209 1.387 . S
C210 C213 1.387 . S
H211 C207 0.950 . S
H212 C209 0.950 . S
C213 C204 1.390 1_455 S
C213 H206 0.950 . S
C213 C210 1.387 . S
C214 C215 1.387 . S
C214 H218 0.950 . S
C214 C223 1.390 . S
C215 C214 1.387 . S
C215 C217 1.387 . S
H216 C223 0.950 . S
C217 C215 1.387 . S
C217 C219 1.390 . S
C217 H221 0.950 . S
H218 C214 0.950 . S
C219 C217 1.390 . S
C219 C220 1.387 . S
C219 H222 0.950 . S
C220 C219 1.387 . S
C220 C223 1.387 . S
H221 C217 0.950 . S
H222 C219 0.950 . S
C223 C214 1.390 . S
C223 H216 0.950 . S
C223 C220 1.387 . S
C145 C40 1.174 . S
C150 C4 1.174 . S
C155 C2 1.094 . S
C160 C38 1.094 . S
C165 C112 1.170 . S
C170 C76 1.170 . S
C175 C74 1.097 . S
C180 C110 1.097 . S
C185 C14 1.513 . S
C190 C86 1.513 . S
C195 C122 1.517 . S
C200 C50 1.517 . S
C205 C75 1.620 . S
C210 C3 1.620 . S
C215 C39 1.620 . S
C220 C111 1.620 . S
