# Generated by pormake.
# Topology hex, (8)-cn, num edge types: 1
# Building blocks:
#     Node 0, Type 0, BuildingBlock: NUHRAL_clean_sbu_3, # of connection points: 8
#     Edge 1, Type (0, 0), BuildingBlock: UVAHIK_clean_linker_0, # of connection points: 2
#     Edge 2, Type (0, 0), BuildingBlock: UVAHIK_clean_linker_0, # of connection points: 2
#     Edge 3, Type (0, 0), BuildingBlock: UVAHIK_clean_linker_0, # of connection points: 2
#     Edge 4, Type (0, 0), BuildingBlock: UVAHIK_clean_linker_0, # of connection points: 2
# Relax obj value: 0.037
# Max RMSD: 0.102
# Mean RMSD: 0.102
data_MOF--net-hex--node1-NUHRAL_clean_sbu_3--edge1-UVAHIK_clean_linker_0
_symmetry_space_group_name_H-M    P1
_symmetry_Int_Tables_number       1
_symmetry_cell_setting            triclinic
loop_
_symmetry_equiv_pos_as_xyz
'x, y, z'
_cell_length_a     26.293033
_cell_length_b     22.433798
_cell_length_c     19.571326
_cell_angle_alpha  111.74519
_cell_angle_beta   100.46819
_cell_angle_gamma 114.16731
loop_
_atom_site_label
_atom_site_type_symbol
_atom_site_fract_x
_atom_site_fract_y
_atom_site_fract_z
_atom_type_partial_charge
C0 C 0.82761 0.86673 0.95126 0.0
C1 C 0.80551 0.80637 0.96696 0.0
C2 C 0.76066 0.79423 -0.00142 0.0
C3 C 0.73875 0.84302 0.01521 0.0
C4 C 0.75852 0.90149 -0.00249 0.0
C5 C 0.80313 0.91334 0.96553 0.0
O6 O 0.02316 0.93017 0.05987 0.0
Tb7 Tb 0.9726 0.8867 0.93475 0.0
O8 O 0.96429 0.78074 0.91333 0.0
O9 O 0.02694 0.04174 0.11 0.0
Eu10 Eu 0.06805 0.07304 0.0285 0.0
O11 O 0.87829 0.82139 0.87602 0.0
C12 C 0.17251 0.08388 0.05067 0.0
O13 O 0.92555 0.94317 0.95854 0.0
O14 O 1.01567 0.02512 0.89827 0.0
O15 O 1.01191 0.91358 0.85414 0.0
C16 C 0.87301 0.8792 0.915 0.0
C17 C 0.02481 0.1839 0.03746 0.0
O18 O 0.97354 0.12367 0.0179 0.0
C19 C 0.02408 -0.01513 0.1176 0.0
C20 C 1.01334 0.96801 0.84218 0.0
O21 O 0.07476 0.18198 0.05049 0.0
C22 C 0.21958 0.09797 0.01719 0.0
C23 C 0.28991 0.06442 0.97331 0.0
C24 C 0.2442 0.05149 0.00335 0.0
C25 C 0.24276 0.15937 0.00324 0.0
C26 C 0.28867 0.17249 0.97347 0.0
C27 C 0.31073 0.12387 0.95722 0.0
C28 C 1.01355 0.77724 0.92514 0.0
O29 O 0.06511 0.83634 0.94319 0.0
O30 O 0.16612 0.14074 0.08928 0.0
O31 O 0.12068 0.01923 0.00602 0.0
H32 H 0.82197 0.76805 0.95316 0.0
H33 H 0.70206 0.83142 0.03594 0.0
H34 H 0.81785 0.95773 0.95033 0.0
H35 H 0.22858 0.00621 0.01717 0.0
H36 H 0.22611 0.19751 0.01665 0.0
H37 H 0.34809 0.13608 0.93775 0.0
C38 C 0.97099 0.24998 0.01888 0.0
C39 C 0.02488 0.24905 0.03508 0.0
C40 C 0.96961 0.30792 0.00898 0.0
C41 C 0.06735 0.50067 0.04657 0.0
H42 H 0.93005 0.44442 0.87025 0.0
C43 C 0.06614 0.71018 0.94458 0.0
C44 C 1.01268 0.71207 0.92848 0.0
C45 C 0.06695 0.65248 0.9556 0.0
C46 C 0.96841 0.46114 0.92018 0.0
H47 H 0.12004 0.30936 0.05584 0.0
H48 H 0.1175 0.41008 0.03791 0.0
H49 H 0.9332 0.34819 0.89768 0.0
H50 H 0.91767 0.65371 0.90909 0.0
H51 H 0.9192 0.55319 0.92873 0.0
H52 H 0.10263 0.61358 0.0689 0.0
C53 C 0.07641 0.36642 0.0336 0.0
C54 C 0.97017 0.40605 0.93605 0.0
C55 C 0.07782 0.30852 0.04363 0.0
C56 C 0.95956 0.65376 0.92117 0.0
C57 C 0.96039 0.59602 0.93223 0.0
C58 C 0.06561 0.55574 0.03066 0.0
C59 C 0.02207 0.36618 0.01497 0.0
C60 C 1.01969 0.42516 -0.00062 0.0
C61 C 1.01433 0.59538 0.95078 0.0
C62 C 1.01618 0.53658 0.96717 0.0
H63 H 0.92948 0.2052 0.01235 0.0
H64 H 0.92729 0.30682 -0.00388 0.0
H65 H 0.10574 0.51742 0.09647 0.0
H66 H 0.10778 0.75406 0.95022 0.0
H67 H 0.10895 0.65283 0.96836 0.0
C68 C 0.69343 0.93739 0.9337 0.0
C69 C 0.72514 0.94145 0.00284 0.0
C70 C 0.64762 0.95419 0.93178 0.0
C71 C 0.53919 0.95027 0.02794 0.0
H72 H 0.49875 0.04212 0.91112 0.0
C73 C 0.35446 0.02789 0.03692 0.0
C74 C 0.32297 0.02409 0.96786 0.0
C75 C 0.40024 0.01103 0.03889 0.0
C76 C 0.50889 0.01523 0.94296 0.0
H77 H 0.73803 0.97273 0.12618 0.0
H78 H 0.65932 0.00408 0.12369 0.0
H79 H 0.59086 0.03754 0.92371 0.0
H80 H 0.31041 -0.00668 0.84471 0.0
H81 H 0.38896 0.9617 0.84719 0.0
H82 H 0.45721 0.92794 0.04717 0.0
C83 C 0.66846 -0.01408 0.07025 0.0
C84 C 0.56191 0.01304 0.95052 0.0
C85 C 0.71403 0.96898 0.07206 0.0
C86 C 0.33421 -0.00323 0.89872 0.0
C87 C 0.37972 -0.02029 0.90056 0.0
C88 C 0.48616 0.95245 0.02037 0.0
C89 C 0.63291 0.9755 -0.00093 0.0
C90 C 0.57778 -0.01935 -0.00679 0.0
C91 C 0.41512 -0.01008 0.97171 0.0
C92 C 0.47028 -0.01517 0.97766 0.0
H93 H 0.70057 0.91534 0.87924 0.0
H94 H 0.62108 0.94548 0.87594 0.0
H95 H 0.54935 0.9234 0.0598 0.0
H96 H 0.34722 0.04982 0.0913 0.0
H97 H 0.42667 0.01958 0.0947 0.0
C98 C 0.33221 0.23637 0.90008 0.0
C99 C 0.32109 0.24174 0.96905 0.0
C100 C 0.37835 0.29856 0.90307 0.0
C101 C 0.52485 0.46812 0.04972 0.0
H102 H 0.52403 0.51187 0.87577 0.0
C103 C 0.71776 0.73108 0.07297 0.0
C104 C 0.72864 0.72531 0.00377 0.0
C105 C 0.6718 0.66903 0.07045 0.0
C106 C 0.52529 0.4995 0.92434 0.0
H107 H 0.34586 0.31747 0.09331 0.0
H108 H 0.42574 0.42713 0.09828 0.0
H109 H 0.43042 0.41622 0.86703 0.0
H110 H 0.70382 0.64893 0.8797 0.0
H111 H 0.62433 0.53962 0.8756 0.0
H112 H 0.61974 0.55147 0.10705 0.0
C113 C 0.39956 0.37441 0.04226 0.0
C114 C 0.47148 0.44507 0.91956 0.0
C115 C 0.35316 0.31209 0.03913 0.0
C116 C 0.69669 0.65469 0.93405 0.0
C117 C 0.6505 0.59254 0.9314 0.0
C118 C 0.57868 0.52258 0.05451 0.0
C119 C 0.41443 0.3674 0.97522 0.0
C120 C 0.47057 0.4287 0.98219 0.0
C121 C 0.63573 0.59996 -0.00144 0.0
C122 C 0.57958 0.53886 -0.00818 0.0
H123 H 0.30829 0.1825 0.84549 0.0
H124 H 0.38855 0.291 0.85036 0.0
H125 H 0.52612 0.45573 0.09827 0.0
H126 H 0.74166 0.78513 0.12733 0.0
H127 H 0.6617 0.67686 0.12325 0.0
C128 C 1.01465 0.02513 0.75425 0.0
C129 C 1.01201 0.96571 0.76543 0.0
C130 C 1.01401 0.02418 0.6825 0.0
C131 C 0.04595 0.94206 0.50734 0.0
H132 H 0.95194 0.00899 0.41506 0.0
C133 C 1.01807 0.92005 0.19831 0.0
C134 C 0.02242 -0.01802 0.19138 0.0
C135 C 1.01558 0.91624 0.26726 0.0
C136 C 0.9789 -0.00911 0.44054 0.0
H137 H 1.00651 0.85852 0.70993 0.0
H138 H 1.0049 0.85662 0.58386 0.0
H139 H 0.94864 0.00381 0.53651 0.0
H140 H 0.02755 0.08848 0.25136 0.0
H141 H 0.02382 0.08215 0.37231 0.0
H142 H 0.07641 0.92947 0.41151 0.0
C143 C 1.00804 0.90426 0.63117 0.0
C144 C 0.97695 -0.01219 0.51 0.0
C145 C 1.00866 0.90517 0.70316 0.0
C146 C 0.0242 0.04003 0.25487 0.0
C147 C 0.02167 0.03617 0.32391 0.0
C148 C 0.04788 0.94511 0.43782 0.0
C149 C 1.01068 0.96379 0.62015 0.0
C150 C 1.01077 0.96386 0.54446 0.0
C151 C 1.01733 0.97421 0.33079 0.0
C152 C 1.01464 0.96998 0.40396 0.0
H153 H 1.01759 0.07289 0.80112 0.0
H154 H 1.01711 0.07147 0.67637 0.0
H155 H 0.07315 0.92435 0.53308 0.0
H156 H 1.01622 0.87407 0.15028 0.0
H157 H 1.01141 0.8673 0.27032 0.0
loop_
_geom_bond_atom_site_label_1
_geom_bond_atom_site_label_2
_geom_bond_distance
_geom_bond_site_symmetry_2
_ccdc_geom_bond_type
C0 C1 1.387 . S
C0 C5 1.380 . S
C0 C16 1.494 . S
C1 C0 1.387 . S
C1 C2 1.386 1_556 S
C1 H32 0.930 . S
C2 C1 1.386 1_554 S
C2 C3 1.397 . S
C3 C2 1.397 . S
C3 C4 1.393 1_554 S
C3 H33 0.930 . S
C4 C3 1.393 1_556 S
C4 C5 1.395 . S
C5 C0 1.380 . S
C5 C4 1.395 . S
C5 H34 0.930 . S
O6 Tb7 2.295 1_554 S
O6 C19 1.242 1_665 S
Tb7 O6 2.295 1_556 S
Tb7 O8 2.312 . S
Tb7 O11 2.438 . S
Tb7 O13 2.472 . S
Tb7 O15 2.308 . S
Tb7 C16 2.821 . S
O8 Tb7 2.312 . S
O8 C28 1.264 1_655 S
O9 Eu10 2.308 . S
O9 C19 1.243 . S
Eu10 O9 2.308 . S
Eu10 C12 2.821 . S
Eu10 O14 2.295 1_554 S
Eu10 O21 2.312 . S
Eu10 O30 2.438 . S
Eu10 O31 2.472 . S
O11 Tb7 2.438 . S
O11 C16 1.263 . S
C12 Eu10 2.821 . S
C12 C22 1.494 . S
C12 O30 1.263 . S
C12 O31 1.264 . S
O13 Tb7 2.472 . S
O13 C16 1.264 . S
O14 Eu10 2.295 1_556 S
O14 C20 1.242 1_445 S
O15 Tb7 2.308 . S
O15 C20 1.243 . S
C16 C0 1.494 . S
C16 Tb7 2.821 . S
C16 O11 1.263 . S
C16 O13 1.264 . S
C17 O18 1.260 . S
C17 O21 1.264 1_655 S
O18 C17 1.260 . S
C19 O6 1.242 1_445 S
C19 O9 1.243 . S
C20 O14 1.242 1_665 S
C20 O15 1.243 . S
O21 Eu10 2.312 . S
O21 C17 1.264 1_455 S
C22 C12 1.494 . S
C22 C24 1.380 . S
C22 C25 1.387 . S
C23 C24 1.395 . S
C23 C27 1.393 1_554 S
C24 C22 1.380 . S
C24 C23 1.395 . S
C24 H35 0.930 . S
C25 C22 1.387 . S
C25 C26 1.386 1_554 S
C25 H36 0.930 . S
C26 C25 1.386 1_556 S
C26 C27 1.397 . S
C27 C23 1.393 1_556 S
C27 C26 1.397 . S
C27 H37 0.930 . S
C28 O8 1.264 1_455 S
C28 O29 1.260 . S
O29 C28 1.260 . S
O30 Eu10 2.438 . S
O30 C12 1.263 . S
O31 Eu10 2.472 . S
O31 C12 1.264 . S
H32 C1 0.930 . S
H33 C3 0.930 . S
H34 C5 0.930 . S
H35 C24 0.930 . S
H36 C25 0.930 . S
H37 C27 0.930 . S
C38 C39 1.349 1_556 S
C38 C40 1.327 . S
C38 H63 0.950 . S
C39 C38 1.349 1_554 S
C39 C55 1.349 1_655 S
C40 C38 1.327 . S
C40 C59 1.429 1_556 S
C40 H64 0.950 . S
C41 C58 1.574 . S
C41 C60 1.362 1_455 S
C41 H65 0.949 . S
H42 C46 0.949 . S
C43 C44 1.349 1_554 S
C43 C45 1.327 . S
C43 H66 0.950 . S
C44 C43 1.349 1_556 S
C44 C56 1.349 1_455 S
C45 C43 1.327 . S
C45 C61 1.429 1_554 S
C45 H67 0.950 . S
C46 H42 0.949 . S
C46 C54 1.574 . S
C46 C62 1.360 1_655 S
H47 C55 0.950 . S
H48 C53 0.950 . S
H49 C54 0.949 . S
H50 C56 0.950 . S
H51 C57 0.950 . S
H52 C58 0.949 . S
C53 H48 0.950 . S
C53 C55 1.327 . S
C53 C59 1.429 1_455 S
C54 C46 1.574 . S
C54 H49 0.949 . S
C54 C60 1.379 1_556 S
C55 C39 1.349 1_455 S
C55 H47 0.950 . S
C55 C53 1.327 . S
C56 C44 1.349 1_655 S
C56 H50 0.950 . S
C56 C57 1.327 . S
C57 H51 0.950 . S
C57 C56 1.327 . S
C57 C61 1.429 1_655 S
C58 C41 1.574 . S
C58 H52 0.949 . S
C58 C62 1.382 1_554 S
C59 C40 1.429 1_554 S
C59 C53 1.429 1_655 S
C59 C60 1.518 . S
C60 C41 1.362 1_655 S
C60 C54 1.379 1_554 S
C60 C59 1.518 . S
C61 C45 1.429 1_556 S
C61 C57 1.429 1_455 S
C61 C62 1.516 . S
C62 C46 1.360 1_455 S
C62 C58 1.382 1_556 S
C62 C61 1.516 . S
H63 C38 0.950 . S
H64 C40 0.950 . S
H65 C41 0.949 . S
H66 C43 0.950 . S
H67 C45 0.950 . S
C68 C69 1.349 . S
C68 C70 1.327 . S
C68 H93 0.950 . S
C69 C68 1.349 . S
C69 C85 1.349 1_556 S
C70 C68 1.327 . S
C70 C89 1.429 . S
C70 H94 0.950 1_565 S
C71 C88 1.574 . S
C71 C90 1.368 1_554 S
C71 H95 0.949 . S
H72 C76 0.949 . S
C73 C74 1.349 . S
C73 C75 1.327 . S
C73 H96 0.950 . S
C74 C73 1.349 . S
C74 C86 1.349 1_554 S
C75 C73 1.327 . S
C75 C91 1.429 . S
C75 H97 0.950 1_545 S
C76 H72 0.949 . S
C76 C84 1.574 . S
C76 C92 1.368 1_556 S
H77 C85 0.950 . S
H78 C83 0.950 . S
H79 C84 0.949 . S
H80 C86 0.950 . S
H81 C87 0.950 . S
H82 C88 0.949 . S
C83 H78 0.950 . S
C83 C85 1.327 . S
C83 C89 1.429 1_554 S
C84 C76 1.574 . S
C84 H79 0.949 . S
C84 C90 1.368 1_545 S
C85 C69 1.349 1_554 S
C85 H77 0.950 . S
C85 C83 1.327 . S
C86 C74 1.349 1_556 S
C86 H80 0.950 . S
C86 C87 1.327 . S
C87 H81 0.950 . S
C87 C86 1.327 . S
C87 C91 1.429 1_556 S
C88 C71 1.574 . S
C88 H82 0.949 . S
C88 C92 1.368 1_565 S
C89 C70 1.429 . S
C89 C83 1.429 1_556 S
C89 C90 1.523 . S
C90 C71 1.368 1_556 S
C90 C84 1.368 1_565 S
C90 C89 1.523 . S
C91 C75 1.429 . S
C91 C87 1.429 1_554 S
C91 C92 1.523 . S
C92 C76 1.368 1_554 S
C92 C88 1.368 1_545 S
C92 C91 1.523 . S
H93 C68 0.950 . S
H94 C70 0.950 1_545 S
H95 C71 0.949 . S
H96 C73 0.950 . S
H97 C75 0.950 1_565 S
C98 C99 1.349 . S
C98 C100 1.327 . S
C98 H123 0.950 . S
C99 C98 1.349 . S
C99 C115 1.349 1_556 S
C100 C98 1.327 . S
C100 C119 1.429 . S
C100 H124 0.950 . S
C101 C118 1.574 . S
C101 C120 1.368 1_554 S
C101 H125 0.949 . S
H102 C106 0.949 . S
C103 C104 1.349 . S
C103 C105 1.327 . S
C103 H126 0.950 . S
C104 C103 1.349 . S
C104 C116 1.349 1_554 S
C105 C103 1.327 . S
C105 C121 1.429 . S
C105 H127 0.950 . S
C106 H102 0.949 . S
C106 C114 1.574 . S
C106 C122 1.368 1_556 S
H107 C115 0.950 . S
H108 C113 0.950 . S
H109 C114 0.949 . S
H110 C116 0.950 . S
H111 C117 0.950 . S
H112 C118 0.949 . S
C113 H108 0.950 . S
C113 C115 1.327 . S
C113 C119 1.429 1_554 S
C114 C106 1.574 . S
C114 H109 0.949 . S
C114 C120 1.368 . S
C115 C99 1.349 1_554 S
C115 H107 0.950 . S
C115 C113 1.327 . S
C116 C104 1.349 1_556 S
C116 H110 0.950 . S
C116 C117 1.327 . S
C117 H111 0.950 . S
C117 C116 1.327 . S
C117 C121 1.429 1_556 S
C118 C101 1.574 . S
C118 H112 0.949 . S
C118 C122 1.368 . S
C119 C100 1.429 . S
C119 C113 1.429 1_556 S
C119 C120 1.523 . S
C120 C101 1.368 1_556 S
C120 C114 1.368 . S
C120 C119 1.523 . S
C121 C105 1.429 . S
C121 C117 1.429 1_554 S
C121 C122 1.523 . S
C122 C106 1.368 1_554 S
C122 C118 1.368 . S
C122 C121 1.523 . S
H123 C98 0.950 . S
H124 C100 0.950 . S
H125 C101 0.949 . S
H126 C103 0.950 . S
H127 C105 0.950 . S
C128 C129 1.351 1_655 S
C128 C130 1.327 . S
C128 H153 0.950 . S
C129 C128 1.351 1_455 S
C129 C145 1.347 1_545 S
C130 C128 1.327 . S
C130 C149 1.430 1_655 S
C130 H154 0.950 . S
C131 C148 1.574 . S
C131 C150 1.368 1_565 S
C131 H155 0.949 . S
H132 C136 0.949 . S
C133 C134 1.351 1_565 S
C133 C135 1.327 . S
C133 H156 0.950 . S
C134 C133 1.351 1_545 S
C134 C146 1.347 1_455 S
C135 C133 1.327 . S
C135 C151 1.430 1_565 S
C135 H157 0.950 . S
C136 H132 0.949 . S
C136 C144 1.574 . S
C136 C152 1.368 1_655 S
H137 C145 0.950 . S
H138 C143 0.950 . S
H139 C144 0.949 . S
H140 C146 0.950 . S
H141 C147 0.950 . S
H142 C148 0.949 . S
C143 H138 0.950 . S
C143 C145 1.327 . S
C143 C149 1.427 1_565 S
C144 C136 1.574 . S
C144 H139 0.949 . S
C144 C150 1.369 1_655 S
C145 C129 1.347 1_565 S
C145 H137 0.950 . S
C145 C143 1.327 . S
C146 C134 1.347 1_655 S
C146 H140 0.950 . S
C146 C147 1.327 . S
C147 H141 0.950 . S
C147 C146 1.327 . S
C147 C151 1.427 1_655 S
C148 C131 1.574 . S
C148 H142 0.949 . S
C148 C152 1.369 1_565 S
C149 C130 1.430 1_455 S
C149 C143 1.427 1_545 S
C149 C150 1.523 . S
C150 C131 1.368 1_545 S
C150 C144 1.369 1_455 S
C150 C149 1.523 . S
C151 C135 1.430 1_545 S
C151 C147 1.427 1_455 S
C151 C152 1.523 . S
C152 C136 1.368 1_455 S
C152 C148 1.369 1_545 S
C152 C151 1.523 . S
H153 C128 0.950 . S
H154 C130 0.950 . S
H155 C131 0.949 . S
H156 C133 0.950 . S
H157 C135 0.950 . S
C39 C17 0.417 . S
C44 C28 0.417 . S
C69 C4 2.158 . S
C74 C23 2.158 . S
C99 C26 1.910 . S
C104 C2 1.910 . S
C129 C20 1.490 1_445 S
C134 C19 1.490 . S
