# Generated by pormake.
# Topology ukg, (4)-cn, num edge types: 1
# Building blocks:
#     Node 0, Type 0, BuildingBlock: GALJAG_clean_sbu_0, # of connection points: 4
#     Node 1, Type 0, BuildingBlock: GALJAG_clean_sbu_0, # of connection points: 4
#     Node 2, Type 0, BuildingBlock: GALJAG_clean_sbu_0, # of connection points: 4
#     Node 3, Type 0, BuildingBlock: GALJAG_clean_sbu_0, # of connection points: 4
#     Node 4, Type 0, BuildingBlock: GALJAG_clean_sbu_0, # of connection points: 4
#     Node 5, Type 0, BuildingBlock: GALJAG_clean_sbu_0, # of connection points: 4
#     Node 6, Type 0, BuildingBlock: GALJAG_clean_sbu_0, # of connection points: 4
#     Node 7, Type 0, BuildingBlock: GALJAG_clean_sbu_0, # of connection points: 4
#     Edge 8, Type (0, 0), None
#     Edge 9, Type (0, 0), None
#     Edge 10, Type (0, 0), None
#     Edge 11, Type (0, 0), None
#     Edge 12, Type (0, 0), None
#     Edge 13, Type (0, 0), None
#     Edge 14, Type (0, 0), None
#     Edge 15, Type (0, 0), None
#     Edge 16, Type (0, 0), None
#     Edge 17, Type (0, 0), None
#     Edge 18, Type (0, 0), None
#     Edge 19, Type (0, 0), None
#     Edge 20, Type (0, 0), None
#     Edge 21, Type (0, 0), None
#     Edge 22, Type (0, 0), None
#     Edge 23, Type (0, 0), None
# Relax obj value: 0.110
# Max RMSD: 0.189
# Mean RMSD: 0.187
data_MOF--net-ukg--node1-GALJAG_clean_sbu_0--edge1-none
_symmetry_space_group_name_H-M    P1
_symmetry_Int_Tables_number       1
_symmetry_cell_setting            triclinic
loop_
_symmetry_equiv_pos_as_xyz
'x, y, z'
_cell_length_a     14.171368
_cell_length_b     14.171217
_cell_length_c     16.482244
_cell_angle_alpha  90.074487
_cell_angle_beta   89.926116
_cell_angle_gamma 90.001079
loop_
_atom_site_label
_atom_site_type_symbol
_atom_site_fract_x
_atom_site_fract_y
_atom_site_fract_z
_atom_type_partial_charge
In0 In 6e-05 0.63762 0.18087 0.0
O1 O 0.94689 0.59183 0.05615 0.0
O2 O 0.02865 0.49321 0.12545 0.0
C3 C 0.94138 0.79871 0.24559 0.0
C4 C 0.1763 0.69958 0.16921 0.0
C5 C 0.8737 0.55076 0.27237 0.0
O6 O 0.92849 0.78252 0.17037 0.0
O7 O -0.01662 0.7351 0.28494 0.0
O8 O 0.96048 0.54896 0.2921 0.0
O9 O 0.85351 0.5935 0.20735 0.0
C10 C -0.01961 0.50889 0.06218 0.0
O11 O 0.1511 0.6425 0.22445 0.0
O12 O 0.11467 0.7197 0.11656 0.0
In13 In 0.3061 0.49919 0.68081 0.0
O14 O 0.30081 0.65031 0.72447 0.0
O15 O 0.22363 0.61339 0.61659 0.0
C16 C 0.3931 0.37293 0.77206 0.0
C17 C 0.43507 0.48024 0.56219 0.0
C18 C 0.14515 0.44036 0.74553 0.0
O19 O 0.39458 0.45969 0.79207 0.0
O20 O 0.35062 0.35271 0.70687 0.0
O21 O 0.16134 0.42729 0.6703 0.0
O22 O 0.2087 0.48258 0.78489 0.0
C23 C 0.24364 0.67522 0.66925 0.0
O24 O 0.35229 0.44634 0.55598 0.0
O25 O 0.45048 0.52843 0.62566 0.0
In26 In 0.44503 0.8067 0.1809 0.0
O27 O 0.49785 0.85252 0.05605 0.0
O28 O 0.41561 0.95084 0.12567 0.0
C29 C 0.50397 0.64608 0.24582 0.0
C30 C 0.26907 0.74404 0.16929 0.0
C31 C 0.57126 0.8942 0.27199 0.0
O32 O 0.51692 0.66189 0.17055 0.0
O33 O 0.46181 0.70983 0.28513 0.0
O34 O 0.48452 0.89564 0.29207 0.0
O35 O 0.59147 0.85151 0.2068 0.0
C36 C 0.46383 0.93527 0.06221 0.0
O37 O 0.29389 0.80146 0.22448 0.0
O38 O 0.33095 0.72388 0.11668 0.0
In39 In 0.13701 0.94416 0.68096 0.0
O40 O 0.14185 0.79309 0.72446 0.0
O41 O 0.21945 0.82968 0.61665 0.0
C42 C 0.04964 0.07048 0.77231 0.0
C43 C 0.00869 0.96367 0.5622 0.0
C44 C 0.29777 0.00296 0.74589 0.0
O45 O 0.04789 -0.01629 0.79211 0.0
O46 O 0.0926 0.09066 0.7073 0.0
O47 O 0.28196 0.01573 0.67063 0.0
O48 O 0.23395 0.96103 0.78519 0.0
C49 C 0.19918 0.76799 0.66925 0.0
O50 O 0.0916 -0.00269 0.55623 0.0
O51 O -0.00716 0.91538 0.62545 0.0
In52 In 0.94386 0.30651 0.88179 0.0
O53 O 0.79282 0.30162 0.8382 0.0
O54 O 0.82925 0.22441 0.94608 0.0
C55 C 0.07018 0.39346 0.7903 0.0
C56 C 0.96352 0.43523 1.00049 0.0
C57 C 0.00266 0.14548 0.81706 0.0
O58 O -0.01661 0.3952 0.77056 0.0
O59 O 0.09039 0.35072 0.85531 0.0
O60 O 0.01546 0.16162 0.8923 0.0
O61 O 0.96063 0.20907 0.7777 0.0
C62 C 0.76762 0.24454 0.89343 0.0
O63 O -0.00296 0.3523 1.00652 0.0
O64 O 0.91525 0.45091 0.93723 0.0
In65 In 0.63781 0.44493 0.38185 0.0
O66 O 0.64311 0.29382 0.33818 0.0
O67 O 0.7203 0.33073 0.44605 0.0
C68 C 0.55073 0.57115 0.29061 0.0
C69 C 0.50885 0.46388 0.50048 0.0
C70 C 0.7987 0.50388 0.31712 0.0
O71 O 0.5493 0.48438 0.27059 0.0
O72 O 0.59321 0.5914 0.3558 0.0
O73 O 0.78256 0.51686 0.39237 0.0
O74 O 0.73518 0.46163 0.27776 0.0
C75 C 0.70029 0.26891 0.39339 0.0
O76 O 0.59162 0.49779 0.50668 0.0
O77 O 0.49344 0.41567 0.43702 0.0
In78 In 0.49889 0.13741 0.88176 0.0
O79 O 0.44606 0.0916 1.00661 0.0
O80 O 0.52833 -0.00672 0.93701 0.0
C81 C 0.43984 0.29797 0.81683 0.0
C82 C 0.67485 0.20008 0.89335 0.0
C83 C 0.37271 0.04983 0.79068 0.0
O84 O 0.42697 0.28221 0.89212 0.0
O85 O 0.48202 0.23425 0.77751 0.0
O86 O 0.45945 0.04844 0.77059 0.0
O87 O 0.35247 0.09252 0.85586 0.0
C88 C 0.48009 0.00885 1.00046 0.0
O89 O 0.65002 0.14266 0.83817 0.0
O90 O 0.61297 0.22025 0.94596 0.0
In91 In 0.80693 -4e-05 0.3817 0.0
O92 O 0.80207 0.15103 0.33818 0.0
O93 O 0.72446 0.11444 0.44599 0.0
C94 C 0.89437 0.87369 0.29036 0.0
C95 C 0.93523 -0.01955 0.50047 0.0
C96 C 0.64623 0.94105 0.31676 0.0
O97 O 0.89607 0.96046 0.27055 0.0
O98 O 0.85141 0.85348 0.35536 0.0
O99 O 0.66198 0.92836 0.39204 0.0
O100 O 0.71002 -0.01699 0.27745 0.0
C101 C 0.74474 0.17613 0.39339 0.0
O102 O 0.85233 0.9468 0.50644 0.0
O103 O 0.95109 0.02876 0.43723 0.0
loop_
_geom_bond_atom_site_label_1
_geom_bond_atom_site_label_2
_geom_bond_distance
_geom_bond_site_symmetry_2
_ccdc_geom_bond_type
In0 O1 2.293 1_455 S
In0 O2 2.327 . S
In0 O6 2.264 1_455 S
In0 O7 2.325 1_455 S
In0 O8 2.266 1_455 S
In0 O9 2.323 1_455 S
In0 O11 2.297 . S
In0 O12 2.329 . S
O1 In0 2.293 1_655 S
O1 C10 1.240 1_655 S
O2 In0 2.327 . S
O2 C10 1.252 . S
C3 O6 1.252 . S
C3 O7 1.260 . S
C4 O11 1.240 . S
C4 O12 1.252 . S
C5 O8 1.252 . S
C5 O9 1.260 . S
O6 In0 2.264 1_655 S
O6 C3 1.252 . S
O7 In0 2.325 1_655 S
O7 C3 1.260 . S
O8 In0 2.266 1_655 S
O8 C5 1.252 . S
O9 In0 2.323 1_655 S
O9 C5 1.260 . S
C10 O1 1.240 1_455 S
C10 O2 1.252 . S
O11 In0 2.297 . S
O11 C4 1.240 . S
O12 In0 2.329 . S
O12 C4 1.252 . S
In13 O14 2.294 . S
In13 O15 2.326 . S
In13 O19 2.266 . S
In13 O20 2.326 . S
In13 O21 2.266 . S
In13 O22 2.326 . S
In13 O24 2.294 . S
In13 O25 2.326 . S
O14 In13 2.294 . S
O14 C23 1.240 . S
O15 In13 2.326 . S
O15 C23 1.252 . S
C16 O19 1.252 . S
C16 O20 1.260 . S
C17 O24 1.240 . S
C17 O25 1.252 . S
C18 O21 1.252 . S
C18 O22 1.260 . S
O19 In13 2.266 . S
O19 C16 1.252 . S
O20 In13 2.326 . S
O20 C16 1.260 . S
O21 In13 2.266 . S
O21 C18 1.252 . S
O22 In13 2.326 . S
O22 C18 1.260 . S
C23 O14 1.240 . S
C23 O15 1.252 . S
O24 In13 2.294 . S
O24 C17 1.240 . S
O25 In13 2.326 . S
O25 C17 1.252 . S
In26 O27 2.294 . S
In26 O28 2.326 . S
In26 O32 2.266 . S
In26 O33 2.326 . S
In26 O34 2.266 . S
In26 O35 2.326 . S
In26 O37 2.294 . S
In26 O38 2.326 . S
O27 In26 2.294 . S
O27 C36 1.240 . S
O28 In26 2.326 . S
O28 C36 1.252 . S
C29 O32 1.252 . S
C29 O33 1.260 . S
C30 O37 1.240 . S
C30 O38 1.252 . S
C31 O34 1.252 . S
C31 O35 1.260 . S
O32 In26 2.266 . S
O32 C29 1.252 . S
O33 In26 2.326 . S
O33 C29 1.260 . S
O34 In26 2.266 . S
O34 C31 1.252 . S
O35 In26 2.326 . S
O35 C31 1.260 . S
C36 O27 1.240 . S
C36 O28 1.252 . S
O37 In26 2.294 . S
O37 C30 1.240 . S
O38 In26 2.326 . S
O38 C30 1.252 . S
In39 O40 2.297 . S
In39 O41 2.329 . S
In39 O45 2.266 1_565 S
In39 O46 2.323 1_565 S
In39 O47 2.264 1_565 S
In39 O48 2.325 1_565 S
In39 O50 2.293 1_565 S
In39 O51 2.327 . S
O40 In39 2.297 . S
O40 C49 1.240 . S
O41 In39 2.329 . S
O41 C49 1.252 . S
C42 O45 1.252 . S
C42 O46 1.260 . S
C43 O50 1.240 1_565 S
C43 O51 1.252 . S
C44 O47 1.252 . S
C44 O48 1.260 . S
O45 In39 2.266 1_545 S
O45 C42 1.252 . S
O46 In39 2.323 1_545 S
O46 C42 1.260 . S
O47 In39 2.264 1_545 S
O47 C44 1.252 . S
O48 In39 2.325 1_545 S
O48 C44 1.260 . S
C49 O40 1.240 . S
C49 O41 1.252 . S
O50 In39 2.293 1_545 S
O50 C43 1.240 1_545 S
O51 In39 2.327 . S
O51 C43 1.252 . S
In52 O53 2.297 . S
In52 O54 2.329 . S
In52 O58 2.266 1_655 S
In52 O59 2.323 1_655 S
In52 O60 2.264 1_655 S
In52 O61 2.325 1_655 S
In52 O63 2.293 1_655 S
In52 O64 2.327 . S
O53 In52 2.297 . S
O53 C62 1.240 . S
O54 In52 2.329 . S
O54 C62 1.252 . S
C55 O58 1.252 . S
C55 O59 1.260 . S
C56 O63 1.240 1_655 S
C56 O64 1.252 . S
C57 O60 1.252 . S
C57 O61 1.260 . S
O58 In52 2.266 1_455 S
O58 C55 1.252 . S
O59 In52 2.323 1_455 S
O59 C55 1.260 . S
O60 In52 2.264 1_455 S
O60 C57 1.252 . S
O61 In52 2.325 1_455 S
O61 C57 1.260 . S
C62 O53 1.240 . S
C62 O54 1.252 . S
O63 In52 2.293 1_455 S
O63 C56 1.240 1_455 S
O64 In52 2.327 . S
O64 C56 1.252 . S
In65 O66 2.294 . S
In65 O67 2.326 . S
In65 O71 2.266 . S
In65 O72 2.326 . S
In65 O73 2.266 . S
In65 O74 2.326 . S
In65 O76 2.294 . S
In65 O77 2.326 . S
O66 In65 2.294 . S
O66 C75 1.240 . S
O67 In65 2.326 . S
O67 C75 1.252 . S
C68 O71 1.252 . S
C68 O72 1.260 . S
C69 O76 1.240 . S
C69 O77 1.252 . S
C70 O73 1.252 . S
C70 O74 1.260 . S
O71 In65 2.266 . S
O71 C68 1.252 . S
O72 In65 2.326 . S
O72 C68 1.260 . S
O73 In65 2.266 . S
O73 C70 1.252 . S
O74 In65 2.326 . S
O74 C70 1.260 . S
C75 O66 1.240 . S
C75 O67 1.252 . S
O76 In65 2.294 . S
O76 C69 1.240 . S
O77 In65 2.326 . S
O77 C69 1.252 . S
In78 O79 2.294 . S
In78 O80 2.326 . S
In78 O84 2.266 . S
In78 O85 2.326 . S
In78 O86 2.266 . S
In78 O87 2.326 . S
In78 O89 2.294 . S
In78 O90 2.326 . S
O79 In78 2.294 . S
O79 C88 1.240 . S
O80 In78 2.326 . S
O80 C88 1.252 . S
C81 O84 1.252 . S
C81 O85 1.260 . S
C82 O89 1.240 . S
C82 O90 1.252 . S
C83 O86 1.252 . S
C83 O87 1.260 . S
O84 In78 2.266 . S
O84 C81 1.252 . S
O85 In78 2.326 . S
O85 C81 1.260 . S
O86 In78 2.266 . S
O86 C83 1.252 . S
O87 In78 2.326 . S
O87 C83 1.260 . S
C88 O79 1.240 . S
C88 O80 1.252 . S
O89 In78 2.294 . S
O89 C82 1.240 . S
O90 In78 2.326 . S
O90 C82 1.252 . S
In91 O92 2.297 . S
In91 O93 2.329 . S
In91 O97 2.266 1_545 S
In91 O98 2.323 1_545 S
In91 O99 2.264 1_545 S
In91 O100 2.325 1_545 S
In91 O102 2.293 1_545 S
In91 O103 2.327 . S
O92 In91 2.297 . S
O92 C101 1.240 . S
O93 In91 2.329 . S
O93 C101 1.252 . S
C94 O97 1.252 . S
C94 O98 1.260 . S
C95 O102 1.240 1_545 S
C95 O103 1.252 . S
C96 O99 1.252 . S
C96 O100 1.260 . S
O97 In91 2.266 1_565 S
O97 C94 1.252 . S
O98 In91 2.323 1_565 S
O98 C94 1.260 . S
O99 In91 2.264 1_565 S
O99 C96 1.252 . S
O100 In91 2.325 1_565 S
O100 C96 1.260 . S
C101 O92 1.240 . S
C101 O93 1.252 . S
O102 In91 2.293 1_565 S
O102 C95 1.240 1_565 S
O103 In91 2.327 . S
O103 C95 1.252 . S
C56 C10 2.295 1_656 S
C17 C69 2.322 . S
C36 C88 2.315 1_564 S
C95 C43 2.287 1_645 S
C4 C30 1.760 . S
C23 C49 1.760 . S
C82 C62 1.760 . S
C75 C101 1.760 . S
C70 C5 1.494 . S
C16 C81 1.503 . S
C31 C96 1.467 . S
C57 C42 1.458 . S
C55 C18 1.494 . S
C68 C29 1.503 . S
C83 C44 1.467 . S
C3 C94 1.458 . S
