# Generated by pormake.
# Topology upa, (4)-cn, num edge types: 1
# Building blocks:
#     Node 0, Type 0, BuildingBlock: QUQFOY_clean_sbu_3, # of connection points: 4
#     Node 1, Type 0, BuildingBlock: QUQFOY_clean_sbu_3, # of connection points: 4
#     Node 2, Type 0, BuildingBlock: QUQFOY_clean_sbu_3, # of connection points: 4
#     Node 3, Type 0, BuildingBlock: QUQFOY_clean_sbu_3, # of connection points: 4
#     Node 4, Type 0, BuildingBlock: QUQFOY_clean_sbu_3, # of connection points: 4
#     Node 5, Type 0, BuildingBlock: QUQFOY_clean_sbu_3, # of connection points: 4
#     Node 6, Type 0, BuildingBlock: QUQFOY_clean_sbu_3, # of connection points: 4
#     Node 7, Type 0, BuildingBlock: QUQFOY_clean_sbu_3, # of connection points: 4
#     Edge 8, Type (0, 0), None
#     Edge 9, Type (0, 0), None
#     Edge 10, Type (0, 0), None
#     Edge 11, Type (0, 0), None
#     Edge 12, Type (0, 0), None
#     Edge 13, Type (0, 0), None
#     Edge 14, Type (0, 0), None
#     Edge 15, Type (0, 0), None
#     Edge 16, Type (0, 0), None
#     Edge 17, Type (0, 0), None
#     Edge 18, Type (0, 0), None
#     Edge 19, Type (0, 0), None
#     Edge 20, Type (0, 0), None
#     Edge 21, Type (0, 0), None
#     Edge 22, Type (0, 0), None
#     Edge 23, Type (0, 0), None
# Relax obj value: 0.204
# Max RMSD: 0.128
# Mean RMSD: 0.128
data_MOF--net-upa--node1-QUQFOY_clean_sbu_3--edge1-none
_symmetry_space_group_name_H-M    P1
_symmetry_Int_Tables_number       1
_symmetry_cell_setting            triclinic
loop_
_symmetry_equiv_pos_as_xyz
'x, y, z'
_cell_length_a     12.401823
_cell_length_b     12.401842
_cell_length_c     21.60179
_cell_angle_alpha  89.999873
_cell_angle_beta   90.000196
_cell_angle_gamma 90.000031
loop_
_atom_site_label
_atom_site_type_symbol
_atom_site_fract_x
_atom_site_fract_y
_atom_site_fract_z
_atom_type_partial_charge
C0 C 0.98095 0.31683 0.25273 0.0
O1 O 0.95809 0.36939 0.30146 0.0
Cd2 Cd 0.03239 0.31588 0.39977 0.0
O3 O 0.06222 0.25363 0.25086 0.0
Cd4 Cd 0.22493 0.19208 0.31067 0.0
C5 C 0.02202 0.03992 0.37036 0.0
O6 O 0.22273 0.3195 0.39294 0.0
O7 O 0.31851 0.17751 0.41041 0.0
O8 O 0.37185 0.26075 0.24718 0.0
C9 C 0.27855 0.26476 0.43088 0.0
O10 O 0.98171 0.12466 0.39449 0.0
C11 C 0.40003 0.1699 0.22531 0.0
O12 O 0.10949 0.04161 0.33925 0.0
O13 O 0.34635 0.08779 0.24248 0.0
C14 C 0.16416 0.48095 0.75273 0.0
O15 O 0.1116 0.45809 0.80146 0.0
Cd16 Cd 0.1651 0.53239 0.89977 0.0
O17 O 0.22736 0.56222 0.75086 0.0
Cd18 Cd 0.28891 0.72493 0.81066 0.0
C19 C 0.44106 0.52202 0.87036 0.0
O20 O 0.16148 0.72273 0.89294 0.0
O21 O 0.30348 0.8185 0.91041 0.0
O22 O 0.22024 0.87185 0.74718 0.0
C23 C 0.21623 0.77855 0.93088 0.0
O24 O 0.35632 0.48171 0.89449 0.0
C25 C 0.31109 0.90003 0.72531 0.0
O26 O 0.43938 0.60949 0.83925 0.0
O27 O 0.39319 0.84634 0.74248 0.0
C28 C 4e-05 0.66418 0.25274 0.0
O29 O 0.02291 0.61163 0.30147 0.0
Cd30 Cd 0.94861 0.66514 0.39978 0.0
O31 O 0.91876 0.72736 0.25086 0.0
Cd32 Cd 0.75605 0.78891 0.31067 0.0
C33 C 0.95892 0.9411 0.37038 0.0
O34 O 0.75826 0.66149 0.39294 0.0
O35 O 0.66247 0.80347 0.41041 0.0
O36 O 0.60914 0.72023 0.24718 0.0
C37 C 0.70244 0.71623 0.43088 0.0
O38 O -0.00074 0.85637 0.3945 0.0
C39 C 0.58096 0.81108 0.2253 0.0
O40 O 0.87146 0.9394 0.33925 0.0
O41 O 0.63464 0.89318 0.24248 0.0
C42 C 0.81681 0.50004 0.75274 0.0
O43 O 0.86935 0.52292 0.80147 0.0
Cd44 Cd 0.81585 0.44861 0.89978 0.0
O45 O 0.75362 0.41876 0.75086 0.0
Cd46 Cd 0.69208 0.25605 0.81067 0.0
C47 C 0.53989 0.45892 0.87038 0.0
O48 O 0.8195 0.25827 0.89294 0.0
O49 O 0.67752 0.16247 0.91041 0.0
O50 O 0.76076 0.10914 0.74718 0.0
C51 C 0.76476 0.20244 0.93089 0.0
O52 O 0.62462 0.49926 0.8945 0.0
C53 C 0.66991 0.08096 0.7253 0.0
O54 O 0.54159 0.37146 0.83925 0.0
O55 O 0.5878 0.13464 0.74248 0.0
C56 C 0.48097 0.16411 0.17585 0.0
O57 O 0.45806 0.11159 0.12712 0.0
Cd58 Cd 0.53236 0.1651 0.02881 0.0
O59 O 0.56224 0.22732 0.17773 0.0
Cd60 Cd 0.72493 0.2889 0.11791 0.0
C61 C 0.52201 0.44106 0.05822 0.0
O62 O 0.7227 0.16147 0.03564 0.0
O63 O 0.8185 0.30349 0.01816 0.0
O64 O 0.87185 0.22021 0.18138 0.0
C65 C 0.7785 0.21625 -0.00229 0.0
O66 O 0.4817 0.35633 0.03409 0.0
C67 C 0.9 0.31106 0.20328 0.0
O68 O 0.60949 0.43937 0.08933 0.0
O69 O 0.84632 0.39317 0.18611 0.0
C70 C 0.31688 0.98097 0.67585 0.0
O71 O 0.3694 0.95806 0.62711 0.0
Cd72 Cd 0.31589 0.03236 0.52881 0.0
O73 O 0.25367 0.06224 0.67772 0.0
Cd74 Cd 0.19209 0.22493 0.61791 0.0
C75 C 0.03993 0.02202 0.55822 0.0
O76 O 0.31952 0.2227 0.53564 0.0
O77 O 0.1775 0.3185 0.51816 0.0
O78 O 0.26078 0.37185 0.68138 0.0
C79 C 0.26474 0.2785 0.4977 0.0
O80 O 0.12466 0.9817 0.53409 0.0
C81 C 0.16993 0.4 0.70328 0.0
O82 O 0.04162 0.10949 0.58933 0.0
O83 O 0.08782 0.34633 0.68611 0.0
C84 C 0.50002 0.81686 0.17585 0.0
O85 O 0.52294 0.86936 0.1271 0.0
Cd86 Cd 0.44864 0.81585 0.0288 0.0
O87 O 0.41874 0.75366 0.17772 0.0
Cd88 Cd 0.25605 0.69209 0.11791 0.0
C89 C 0.45892 0.53989 0.05821 0.0
O90 O 0.2583 0.81952 0.03564 0.0
O91 O 0.16247 0.67751 0.01816 0.0
O92 O 0.10913 0.76079 0.18138 0.0
C93 C 0.20249 0.76474 -0.0023 0.0
O94 O 0.49927 0.62461 0.03408 0.0
C95 C 0.08098 0.66994 0.20328 0.0
O96 O 0.37146 0.5416 0.08933 0.0
O97 O 0.13466 0.58783 0.18611 0.0
C98 C 0.66413 2e-05 0.67585 0.0
O99 O 0.61163 0.02294 0.62711 0.0
Cd100 Cd 0.66514 0.94864 0.5288 0.0
O101 O 0.72733 0.91874 0.67773 0.0
Cd102 Cd 0.7889 0.75605 0.61791 0.0
C103 C 0.9411 0.95892 0.55821 0.0
O104 O 0.66147 0.7583 0.53564 0.0
O105 O 0.80348 0.66247 0.51817 0.0
O106 O 0.7202 0.60913 0.68138 0.0
C107 C 0.71625 0.70249 0.49771 0.0
O108 O 0.85637 -0.00073 0.53408 0.0
C109 C 0.81105 0.58098 0.70328 0.0
O110 O 0.93939 0.87147 0.58933 0.0
O111 O 0.89316 0.63466 0.68611 0.0
loop_
_geom_bond_atom_site_label_1
_geom_bond_atom_site_label_2
_geom_bond_distance
_geom_bond_site_symmetry_2
_ccdc_geom_bond_type
C0 O1 1.306 . S
C0 O3 1.160 1_655 S
O1 C0 1.306 . S
O1 Cd2 2.228 . S
Cd2 O1 2.228 . S
Cd2 O6 2.273 1_655 S
Cd2 O10 2.277 . S
O3 C0 1.160 1_455 S
O3 Cd4 2.203 . S
Cd4 O3 2.203 . S
Cd4 O6 2.411 . S
Cd4 O7 2.333 . S
Cd4 O8 2.352 . S
Cd4 O12 2.277 . S
Cd4 O13 2.356 . S
C5 O10 1.209 1_455 S
C5 O12 1.226 . S
O6 Cd2 2.273 1_455 S
O6 Cd4 2.411 . S
O6 C9 1.320 . S
O7 Cd4 2.333 . S
O7 C9 1.214 . S
O8 Cd4 2.352 . S
O8 C11 1.258 . S
C9 O6 1.320 . S
C9 O7 1.214 . S
O10 Cd2 2.277 . S
O10 C5 1.209 1_655 S
C11 O8 1.258 . S
C11 O13 1.282 . S
O12 Cd4 2.277 . S
O12 C5 1.226 . S
O13 Cd4 2.356 . S
O13 C11 1.282 . S
C14 O15 1.306 . S
C14 O17 1.160 . S
O15 C14 1.306 . S
O15 Cd16 2.228 . S
Cd16 O15 2.228 . S
Cd16 O20 2.273 . S
Cd16 O24 2.277 . S
O17 C14 1.160 . S
O17 Cd18 2.203 . S
Cd18 O17 2.203 . S
Cd18 O20 2.411 . S
Cd18 O21 2.333 . S
Cd18 O22 2.352 . S
Cd18 O26 2.277 . S
Cd18 O27 2.356 . S
C19 O24 1.209 . S
C19 O26 1.226 . S
O20 Cd16 2.273 . S
O20 Cd18 2.411 . S
O20 C23 1.320 . S
O21 Cd18 2.333 . S
O21 C23 1.214 . S
O22 Cd18 2.352 . S
O22 C25 1.258 . S
C23 O20 1.320 . S
C23 O21 1.214 . S
O24 Cd16 2.277 . S
O24 C19 1.209 . S
C25 O22 1.258 . S
C25 O27 1.282 . S
O26 Cd18 2.277 . S
O26 C19 1.226 . S
O27 Cd18 2.356 . S
O27 C25 1.282 . S
C28 O29 1.306 . S
C28 O31 1.160 1_455 S
O29 C28 1.306 . S
O29 Cd30 2.228 . S
Cd30 O29 2.228 . S
Cd30 O34 2.273 1_455 S
Cd30 O38 2.277 . S
O31 C28 1.160 1_655 S
O31 Cd32 2.203 . S
Cd32 O31 2.203 . S
Cd32 O34 2.411 . S
Cd32 O35 2.333 . S
Cd32 O36 2.352 . S
Cd32 O40 2.277 . S
Cd32 O41 2.356 . S
C33 O38 1.209 1_655 S
C33 O40 1.226 . S
O34 Cd30 2.273 1_655 S
O34 Cd32 2.411 . S
O34 C37 1.320 . S
O35 Cd32 2.333 . S
O35 C37 1.214 . S
O36 Cd32 2.352 . S
O36 C39 1.258 . S
C37 O34 1.320 . S
C37 O35 1.214 . S
O38 Cd30 2.277 . S
O38 C33 1.209 1_455 S
C39 O36 1.258 . S
C39 O41 1.282 . S
O40 Cd32 2.277 . S
O40 C33 1.226 . S
O41 Cd32 2.356 . S
O41 C39 1.282 . S
C42 O43 1.306 . S
C42 O45 1.160 . S
O43 C42 1.306 . S
O43 Cd44 2.228 . S
Cd44 O43 2.228 . S
Cd44 O48 2.273 . S
Cd44 O52 2.277 . S
O45 C42 1.160 . S
O45 Cd46 2.203 . S
Cd46 O45 2.203 . S
Cd46 O48 2.411 . S
Cd46 O49 2.333 . S
Cd46 O50 2.352 . S
Cd46 O54 2.277 . S
Cd46 O55 2.356 . S
C47 O52 1.209 . S
C47 O54 1.226 . S
O48 Cd44 2.273 . S
O48 Cd46 2.411 . S
O48 C51 1.320 . S
O49 Cd46 2.333 . S
O49 C51 1.214 . S
O50 Cd46 2.352 . S
O50 C53 1.258 . S
C51 O48 1.320 . S
C51 O49 1.214 . S
O52 Cd44 2.277 . S
O52 C47 1.209 . S
C53 O50 1.258 . S
C53 O55 1.282 . S
O54 Cd46 2.277 . S
O54 C47 1.226 . S
O55 Cd46 2.356 . S
O55 C53 1.282 . S
C56 O57 1.306 . S
C56 O59 1.160 . S
O57 C56 1.306 . S
O57 Cd58 2.228 . S
Cd58 O57 2.228 . S
Cd58 O62 2.273 . S
Cd58 O66 2.277 . S
O59 C56 1.160 . S
O59 Cd60 2.203 . S
Cd60 O59 2.203 . S
Cd60 O62 2.411 . S
Cd60 O63 2.333 . S
Cd60 O64 2.352 . S
Cd60 O68 2.277 . S
Cd60 O69 2.356 . S
C61 O66 1.209 . S
C61 O68 1.226 . S
O62 Cd58 2.273 . S
O62 Cd60 2.411 . S
O62 C65 1.320 . S
O63 Cd60 2.333 . S
O63 C65 1.214 . S
O64 Cd60 2.352 . S
O64 C67 1.258 . S
C65 O62 1.320 . S
C65 O63 1.214 . S
O66 Cd58 2.277 . S
O66 C61 1.209 . S
C67 O64 1.258 . S
C67 O69 1.282 . S
O68 Cd60 2.277 . S
O68 C61 1.226 . S
O69 Cd60 2.356 . S
O69 C67 1.282 . S
C70 O71 1.306 . S
C70 O73 1.160 1_565 S
O71 C70 1.306 . S
O71 Cd72 2.228 . S
Cd72 O71 2.228 . S
Cd72 O76 2.273 1_565 S
Cd72 O80 2.277 . S
O73 C70 1.160 1_545 S
O73 Cd74 2.203 . S
Cd74 O73 2.203 . S
Cd74 O76 2.411 . S
Cd74 O77 2.333 . S
Cd74 O78 2.352 . S
Cd74 O82 2.277 . S
Cd74 O83 2.356 . S
C75 O80 1.209 1_545 S
C75 O82 1.226 . S
O76 Cd72 2.273 1_545 S
O76 Cd74 2.411 . S
O76 C79 1.320 . S
O77 Cd74 2.333 . S
O77 C79 1.214 . S
O78 Cd74 2.352 . S
O78 C81 1.258 . S
C79 O76 1.320 . S
C79 O77 1.214 . S
O80 Cd72 2.277 . S
O80 C75 1.209 1_565 S
C81 O78 1.258 . S
C81 O83 1.282 . S
O82 Cd74 2.277 . S
O82 C75 1.226 . S
O83 Cd74 2.356 . S
O83 C81 1.282 . S
C84 O85 1.306 . S
C84 O87 1.160 . S
O85 C84 1.306 . S
O85 Cd86 2.228 . S
Cd86 O85 2.228 . S
Cd86 O90 2.273 . S
Cd86 O94 2.277 . S
O87 C84 1.160 . S
O87 Cd88 2.203 . S
Cd88 O87 2.203 . S
Cd88 O90 2.411 . S
Cd88 O91 2.333 . S
Cd88 O92 2.352 . S
Cd88 O96 2.277 . S
Cd88 O97 2.356 . S
C89 O94 1.209 . S
C89 O96 1.226 . S
O90 Cd86 2.273 . S
O90 Cd88 2.411 . S
O90 C93 1.320 . S
O91 Cd88 2.333 . S
O91 C93 1.214 . S
O92 Cd88 2.352 . S
O92 C95 1.258 . S
C93 O90 1.320 . S
C93 O91 1.214 . S
O94 Cd86 2.277 . S
O94 C89 1.209 . S
C95 O92 1.258 . S
C95 O97 1.282 . S
O96 Cd88 2.277 . S
O96 C89 1.226 . S
O97 Cd88 2.356 . S
O97 C95 1.282 . S
C98 O99 1.306 . S
C98 O101 1.160 1_545 S
O99 C98 1.306 . S
O99 Cd100 2.228 . S
Cd100 O99 2.228 . S
Cd100 O104 2.273 1_545 S
Cd100 O108 2.277 . S
O101 C98 1.160 1_565 S
O101 Cd102 2.203 . S
Cd102 O101 2.203 . S
Cd102 O104 2.411 . S
Cd102 O105 2.333 . S
Cd102 O106 2.352 . S
Cd102 O110 2.277 . S
Cd102 O111 2.356 . S
C103 O108 1.209 1_565 S
C103 O110 1.226 . S
O104 Cd100 2.273 1_565 S
O104 Cd102 2.411 . S
O104 C107 1.320 . S
O105 Cd102 2.333 . S
O105 C107 1.214 . S
O106 Cd102 2.352 . S
O106 C109 1.258 . S
C107 O104 1.320 . S
C107 O105 1.214 . S
O108 Cd100 2.277 . S
O108 C103 1.209 1_545 S
C109 O106 1.258 . S
C109 O111 1.282 . S
O110 Cd102 2.277 . S
O110 C103 1.226 . S
O111 Cd102 2.356 . S
O111 C109 1.282 . S
C5 C33 0.711 1_445 S
C19 C47 0.711 . S
C61 C89 0.711 . S
C75 C103 0.711 1_445 S
C9 C79 1.529 . S
C23 C93 1.529 1_556 S
C107 C37 1.529 . S
C51 C65 1.529 1_556 S
C56 C11 2.196 . S
C25 C70 2.196 . S
C39 C84 2.196 . S
C53 C98 2.196 . S
C0 C67 2.196 . S
C81 C14 2.196 . S
C95 C28 2.196 . S
C42 C109 2.196 . S
