# Generated by pormake.
# Topology smu, (6)-cn, num edge types: 1
# Building blocks:
#     Node 0, Type 0, BuildingBlock: JUFBIX_clean_sbu_0, # of connection points: 6
#     Node 1, Type 0, BuildingBlock: JUFBIX_clean_sbu_0, # of connection points: 6
#     Node 2, Type 0, BuildingBlock: JUFBIX_clean_sbu_0, # of connection points: 6
#     Node 3, Type 0, BuildingBlock: JUFBIX_clean_sbu_0, # of connection points: 6
#     Node 4, Type 0, BuildingBlock: JUFBIX_clean_sbu_0, # of connection points: 6
#     Node 5, Type 0, BuildingBlock: JUFBIX_clean_sbu_0, # of connection points: 6
#     Edge 6, Type (0, 0), BuildingBlock: EYOCIG_clean_linker_4, # of connection points: 2
#     Edge 7, Type (0, 0), BuildingBlock: EYOCIG_clean_linker_4, # of connection points: 2
#     Edge 8, Type (0, 0), BuildingBlock: EYOCIG_clean_linker_4, # of connection points: 2
#     Edge 9, Type (0, 0), BuildingBlock: EYOCIG_clean_linker_4, # of connection points: 2
#     Edge 10, Type (0, 0), BuildingBlock: EYOCIG_clean_linker_4, # of connection points: 2
#     Edge 11, Type (0, 0), BuildingBlock: EYOCIG_clean_linker_4, # of connection points: 2
#     Edge 12, Type (0, 0), BuildingBlock: EYOCIG_clean_linker_4, # of connection points: 2
#     Edge 13, Type (0, 0), BuildingBlock: EYOCIG_clean_linker_4, # of connection points: 2
#     Edge 14, Type (0, 0), BuildingBlock: EYOCIG_clean_linker_4, # of connection points: 2
#     Edge 15, Type (0, 0), BuildingBlock: EYOCIG_clean_linker_4, # of connection points: 2
#     Edge 16, Type (0, 0), BuildingBlock: EYOCIG_clean_linker_4, # of connection points: 2
#     Edge 17, Type (0, 0), BuildingBlock: EYOCIG_clean_linker_4, # of connection points: 2
#     Edge 18, Type (0, 0), BuildingBlock: EYOCIG_clean_linker_4, # of connection points: 2
#     Edge 19, Type (0, 0), BuildingBlock: EYOCIG_clean_linker_4, # of connection points: 2
#     Edge 20, Type (0, 0), BuildingBlock: EYOCIG_clean_linker_4, # of connection points: 2
#     Edge 21, Type (0, 0), BuildingBlock: EYOCIG_clean_linker_4, # of connection points: 2
#     Edge 22, Type (0, 0), BuildingBlock: EYOCIG_clean_linker_4, # of connection points: 2
#     Edge 23, Type (0, 0), BuildingBlock: EYOCIG_clean_linker_4, # of connection points: 2
# Relax obj value: 0.436
# Max RMSD: 0.308
# Mean RMSD: 0.307
data_MOF--net-smu--node1-JUFBIX_clean_sbu_0--edge1-EYOCIG_clean_linker_4
_symmetry_space_group_name_H-M    P1
_symmetry_Int_Tables_number       1
_symmetry_cell_setting            triclinic
loop_
_symmetry_equiv_pos_as_xyz
'x, y, z'
_cell_length_a     25.98174
_cell_length_b     25.9827
_cell_length_c     21.942531
_cell_angle_alpha  91.740931
_cell_angle_beta   89.496357
_cell_angle_gamma 120.06446
loop_
_atom_site_label
_atom_site_type_symbol
_atom_site_fract_x
_atom_site_fract_y
_atom_site_fract_z
_atom_type_partial_charge
Co0 Co 0.31316 0.03646 0.27693 0.0
C1 C 0.34569 0.09084 0.16634 0.0
Co2 Co 0.37582 0.13381 0.28638 0.0
C3 C 0.20399 0.93571 0.29738 0.0
C4 C 0.24238 0.92189 0.21619 0.0
N5 N 0.25569 0.95737 0.26667 0.0
N6 N 0.15877 0.89119 0.2664 0.0
C7 C 0.18219 0.88135 0.21566 0.0
H8 H 0.19762 0.95837 0.33651 0.0
H9 H 0.2721 0.93044 0.17819 0.0
C10 C 0.33702 0.06635 0.39611 0.0
N11 N 0.4287 0.21674 0.30019 0.0
C12 C 0.45266 0.26408 0.26275 0.0
C13 C 0.44378 0.2422 0.35681 0.0
N14 N 0.48146 0.31666 0.29469 0.0
C15 C 0.47573 0.30275 0.35344 0.0
C16 C 0.26167 0.10875 0.28737 0.0
O17 O 0.31009 0.02424 0.35839 0.0
O18 O 0.36823 0.11926 0.37665 0.0
O19 O 0.31483 0.15012 0.28901 0.0
O20 O 0.24974 0.05514 0.28322 0.0
O21 O 0.37905 0.14001 0.19589 0.0
H22 H 0.43117 0.21927 0.39917 0.0
H23 H 0.44744 0.26029 0.21363 0.0
O24 O 0.31399 0.04436 0.19491 0.0
O25 O 0.38075 0.02261 0.26973 0.0
O26 O 0.43876 0.11992 0.28315 0.0
C27 C 0.43291 0.06895 0.27403 0.0
H28 H 0.15675 0.85228 0.17771 0.0
H29 H 0.49231 0.33445 0.39156 0.0
Co30 Co 0.78442 0.65822 0.27787 0.0
C31 C 0.76267 0.69717 0.16406 0.0
Co32 Co 0.74883 0.72045 0.28039 0.0
C33 C 0.84043 0.58332 0.30451 0.0
C34 C 0.82162 0.58623 0.21054 0.0
N35 N 0.81466 0.60491 0.26678 0.0
N36 N 0.86259 0.55292 0.27297 0.0
C37 C 0.85092 0.55516 0.21431 0.0
H38 H 0.84445 0.59113 0.35344 0.0
H39 H 0.80774 0.59488 0.16785 0.0
C40 C 0.7638 0.6879 0.39504 0.0
N41 N 0.72693 0.7779 0.28691 0.0
C42 C 0.75833 0.82932 0.25725 0.0
C43 C 0.7031 0.79181 0.33512 0.0
N44 N 0.75801 0.87486 0.28683 0.0
C45 C 0.72298 0.85202 0.3355 0.0
C46 C 0.66179 0.60069 0.27505 0.0
O47 O 0.78242 0.65511 0.36906 0.0
O48 O 0.74965 0.71809 0.36303 0.0
O49 O 0.6671 0.65267 0.27825 0.0
O50 O 0.70753 0.59527 0.27433 0.0
O51 O 0.74583 0.72489 0.19839 0.0
H52 H 0.68046 0.76253 0.37224 0.0
H53 H 0.78893 0.83536 0.22058 0.0
O54 O 0.78255 0.66608 0.18747 0.0
O55 O 0.8616 0.7193 0.28144 0.0
O56 O 0.83119 0.78403 0.28264 0.0
C57 C 0.87307 0.77238 0.2832 0.0
H58 H 0.86371 0.53635 0.17643 0.0
H59 H 0.7181 0.8779 0.37234 0.0
Co60 Co 0.99756 0.28489 0.27822 0.0
C61 C 0.94484 0.2681 0.16508 0.0
Co62 Co 0.90002 0.24978 0.28327 0.0
C63 C 0.09739 0.27548 0.30078 0.0
C64 C 0.11276 0.32847 0.22251 0.0
N65 N 0.07657 0.30615 0.2709 0.0
N66 N 0.14234 0.27497 0.27133 0.0
C67 C 0.15307 0.3086 0.22241 0.0
H68 H 0.07392 0.24589 0.33762 0.0
H69 H 0.10503 0.35008 0.18522 0.0
C70 C 0.96575 0.27341 0.39598 0.0
N71 N 0.81704 0.21999 0.2943 0.0
C72 C 0.76908 0.19482 0.25579 0.0
C73 C 0.79243 0.21266 0.3503 0.0
N74 N 0.717 0.17269 0.28662 0.0
C75 C 0.73189 0.18381 0.34563 0.0
C76 C 0.92471 0.1607 0.27541 0.0
O77 O 1.00819 0.28899 0.36017 0.0
O78 O 0.91341 0.25344 0.37407 0.0
O79 O 0.88335 0.17236 0.27908 0.0
O80 O 0.97834 0.20249 0.27474 0.0
O81 O 0.89496 0.24996 0.19257 0.0
H82 H 0.81593 0.22581 0.39324 0.0
H83 H 0.77208 0.19112 0.20676 0.0
O84 O 0.99111 0.28302 0.19554 0.0
O85 O 1.01217 0.3668 0.28159 0.0
O86 O 0.91449 0.32685 0.28732 0.0
C87 C 0.96579 0.37243 0.28601 0.0
H88 H 0.18274 0.31247 0.18564 0.0
H89 H 0.70085 0.1708 0.3831 0.0
Co90 Co 0.13989 0.36987 0.78498 0.0
C91 C 0.07285 0.33363 0.8961 0.0
Co92 Co 0.04257 0.30709 0.7777 0.0
C93 C 0.27036 0.44606 0.75923 0.0
C94 C 0.24797 0.43956 0.85371 0.0
N95 N 0.2228 0.42307 0.79745 0.0
N96 N 0.32271 0.4756 0.79036 0.0
C97 C 0.3085 0.47135 0.84936 0.0
H98 H 0.26686 0.43965 0.71014 0.0
H99 H 0.22489 0.42818 0.89653 0.0
C100 C 0.09644 0.33703 0.66568 0.0
N101 N 0.96349 0.24947 0.7691 0.0
C102 C 0.94181 0.19831 0.79945 0.0
C103 C 0.92792 0.23533 0.7196 0.0
N104 N 0.89722 0.15258 0.76903 0.0
C105 C 0.88733 0.17517 0.71918 0.0
C106 C 0.07509 0.42673 0.77483 0.0
O107 O 0.14574 0.37124 0.69405 0.0
O108 O 0.0503 0.30557 0.69548 0.0
O109 O 0.02877 0.37449 0.77113 0.0
O110 O 0.12596 0.43276 0.78324 0.0
O111 O 0.03047 0.30633 0.85947 0.0
H112 H 0.93645 0.26439 0.68193 0.0
H113 H 0.96442 0.19262 0.83772 0.0
O114 O 0.12562 0.36407 0.87532 0.0
O115 O 0.15623 0.30894 0.78619 0.0
O116 O 0.06123 0.24384 0.78333 0.0
C117 C 0.1148 0.2558 0.78601 0.0
H118 H 0.33998 0.48888 0.88696 0.0
H119 H 0.85819 0.14909 0.6817 0.0
Co120 Co 0.25564 0.89404 0.77975 0.0
C121 C 0.28465 0.96262 0.89288 0.0
Co122 Co 0.29049 0.99146 0.7758 0.0
C123 C 0.20167 0.7622 0.75245 0.0
C124 C 0.21636 0.78775 0.84694 0.0
N125 N 0.22562 0.81112 0.79079 0.0
N126 N 0.17868 0.7109 0.7835 0.0
C127 C 0.18793 0.72717 0.84247 0.0
H128 H 0.19934 0.76398 0.70338 0.0
H129 H 0.22739 0.81196 0.88998 0.0
C130 C 0.26849 0.93626 0.66188 0.0
N131 N 0.31212 0.07042 0.76937 0.0
C132 C 0.28193 0.09242 0.8005 0.0
C133 C 0.33477 0.10544 0.7208 0.0
N134 N 0.28156 0.13666 0.77138 0.0
C135 C 0.31525 0.14601 0.72167 0.0
C136 C 0.37769 0.95893 0.77148 0.0
O137 O 0.25264 0.88702 0.68854 0.0
O138 O 0.28302 0.98266 0.69335 0.0
O139 O 0.37195 1.00526 0.76944 0.0
O140 O 0.33248 0.90801 0.77767 0.0
O141 O 0.30009 1.00473 0.85775 0.0
H142 H 0.35617 0.09649 0.68277 0.0
H143 H 0.25266 0.0702 0.83825 0.0
O144 O 0.2628 0.90978 0.87033 0.0
O145 O 0.17831 0.87768 0.78133 0.0
O146 O 0.20834 0.97269 0.78132 0.0
C147 C 0.16661 0.91908 0.78253 0.0
H148 H 0.17366 0.69704 0.88004 0.0
H149 H 0.3192 0.1747 0.68499 0.0
Co150 Co 0.664 0.77817 0.77803 0.0
C151 C 0.70157 0.75385 0.89187 0.0
Co152 Co 0.72639 0.74287 0.77582 0.0
C153 C 0.58697 0.83177 0.75073 0.0
C154 C 0.59586 0.8197 0.8451 0.0
N155 N 0.61106 0.8088 0.7889 0.0
N156 N 0.55818 0.85576 0.78194 0.0
C157 C 0.56402 0.84816 0.84084 0.0
H158 H 0.59201 0.83266 0.70167 0.0
H159 H 0.60795 0.80975 0.8881 0.0
C160 C 0.69529 0.76027 0.66098 0.0
N161 N 0.78355 0.72074 0.76967 0.0
C162 C 0.8357 0.75237 0.80014 0.0
C163 C 0.79595 0.69565 0.72124 0.0
N164 N 0.88039 0.75133 0.77059 0.0
C165 C 0.85607 0.71523 0.72137 0.0
C166 C 0.60653 0.65574 0.77152 0.0
O167 O 0.66168 0.77774 0.6868 0.0
O168 O 0.72599 0.74663 0.69323 0.0
O169 O 0.65858 0.66123 0.77031 0.0
O170 O 0.60093 0.70133 0.77606 0.0
O171 O 0.72915 0.73699 0.85758 0.0
H172 H 0.76563 0.67241 0.68368 0.0
H173 H 0.84271 0.78345 0.8376 0.0
O174 O 0.67097 0.77445 0.8685 0.0
O175 O 0.72522 0.85545 0.77972 0.0
O176 O 0.78996 0.82519 0.78082 0.0
C177 C 0.77826 0.86705 0.78162 0.0
H178 H 0.54749 0.86351 0.87853 0.0
H179 H 0.88086 0.70952 0.68446 0.0
C180 C 0.30978 1.00989 1.00335 0.0
C181 C 0.2946 0.97894 0.95698 0.0
C182 C 0.33017 0.05171 0.05373 0.0
C183 C 0.34465 0.08124 0.10111 0.0
C184 C 0.7146 0.73189 0.55151 0.0
C185 C 0.69843 0.74896 0.5963 0.0
C186 C 0.73685 0.70867 0.50435 0.0
C187 C 0.75329 0.69184 0.45959 0.0
C188 C 0.98444 0.29221 0.05414 0.0
C189 C 0.95494 0.27706 0.10042 0.0
C190 C 0.02607 0.31313 1.00513 0.0
C191 C 0.05686 0.32826 0.95978 0.0
C192 C 0.31457 0.01841 0.50377 0.0
C193 C 0.33055 0.04969 0.45935 0.0
C194 C 0.29292 0.97631 0.55166 0.0
C195 C 0.27755 0.94637 0.59712 0.0
C196 C 0.72045 0.73309 1.00269 0.0
C197 C 0.70603 0.74648 0.95601 0.0
C198 C 0.74043 0.71434 0.05313 0.0
C199 C 0.75458 0.70073 0.09983 0.0
C200 C 1.01324 0.29847 0.50541 0.0
C201 C 0.98179 0.28312 0.45999 0.0
C202 C 0.05575 0.31962 0.55442 0.0
C203 C 0.08598 0.33495 0.60076 0.0
C204 C 0.54031 0.08486 0.26122 0.0
C205 C 0.4876 0.06792 0.26574 0.0
C206 C 0.60369 0.11407 0.25952 0.0
C207 C 0.65738 0.14133 0.2661 0.0
C208 C 0.56998 0.49267 0.26899 0.0
C209 C 0.60565 0.54563 0.27193 0.0
C210 C 0.53613 0.42924 0.26838 0.0
C211 C 0.50993 0.37582 0.27507 0.0
C212 C 0.95071 0.46479 0.29504 0.0
C213 C 0.96746 0.4288 0.29053 0.0
C214 C 0.92157 0.499 0.29778 0.0
C215 C 0.89421 0.52524 0.29239 0.0
C216 C 0.09123 0.53363 0.76054 0.0
C217 C 0.07422 0.48113 0.76593 0.0
C218 C 0.12052 0.59687 0.75759 0.0
C219 C 0.14773 0.65076 0.76335 0.0
C220 C 0.46901 0.94267 0.75907 0.0
C221 C 0.43342 0.95987 0.76393 0.0
C222 C 0.50293 0.91323 0.75638 0.0
C223 C 0.52943 0.88616 0.76205 0.0
C224 C 0.43546 0.52981 0.76264 0.0
C225 C 0.38197 0.50367 0.76982 0.0
C226 C 0.49883 0.56378 0.7631 0.0
C227 C 0.55167 0.59959 0.76628 0.0
C228 C 0.1919 0.15315 0.28798 0.0
C229 C 0.21689 0.1249 0.28763 0.0
C230 C 0.17292 0.1949 0.28479 0.0
C231 C 0.15874 0.23187 0.27864 0.0
C232 C 0.98722 0.84231 0.28431 0.0
C233 C 0.93397 0.81743 0.28424 0.0
C234 C 0.04796 0.86099 0.28078 0.0
C235 C 0.09926 0.87515 0.27444 0.0
C236 C 0.88039 0.04648 0.27224 0.0
C237 C 0.90865 0.09976 0.27304 0.0
C238 C 0.83856 0.98567 0.27474 0.0
C239 C 0.80142 0.93439 0.28011 0.0
C240 C 0.15899 0.18595 0.78813 0.0
C241 C 0.13081 0.21096 0.78726 0.0
C242 C 0.20086 0.16698 0.78539 0.0
C243 C 0.23805 0.15278 0.77919 0.0
C244 C 0.05242 0.87474 0.78534 0.0
C245 C 0.10568 0.903 0.78434 0.0
C246 C 0.99152 0.83269 0.7831 0.0
C247 C 0.9401 0.79518 0.77753 0.0
C248 C 0.86706 0.04202 0.78228 0.0
C249 C 0.8811 0.09316 0.7763 0.0
C250 C 0.84825 0.98128 0.78485 0.0
C251 C 0.82326 0.92799 0.78378 0.0
loop_
_geom_bond_atom_site_label_1
_geom_bond_atom_site_label_2
_geom_bond_distance
_geom_bond_site_symmetry_2
_ccdc_geom_bond_type
Co0 N5 2.057 1_545 S
Co0 O17 2.021 . S
Co0 O20 2.062 . S
Co0 O24 2.117 . S
Co0 O25 2.020 . S
C1 O21 1.259 . S
C1 O24 1.258 . S
Co2 N11 2.057 . S
Co2 O18 2.117 . S
Co2 O19 2.020 . S
Co2 O21 2.021 . S
Co2 O26 2.062 . S
C3 N5 1.316 . S
C3 N6 1.347 . S
C3 H8 0.931 . S
C4 N5 1.375 . S
C4 C7 1.350 . S
C4 H9 0.930 . S
N5 Co0 2.057 1_565 S
N5 C3 1.316 . S
N5 C4 1.375 . S
N6 C3 1.347 . S
N6 C7 1.373 . S
C7 C4 1.350 . S
C7 N6 1.373 . S
C7 H28 0.931 . S
H8 C3 0.931 . S
H9 C4 0.930 . S
C10 O17 1.259 . S
C10 O18 1.258 . S
N11 Co2 2.057 . S
N11 C12 1.316 . S
N11 C13 1.375 . S
C12 N11 1.316 . S
C12 N14 1.347 . S
C12 H23 0.931 . S
C13 N11 1.375 . S
C13 C15 1.350 . S
C13 H22 0.930 . S
N14 C12 1.347 . S
N14 C15 1.373 . S
C15 C13 1.350 . S
C15 N14 1.373 . S
C15 H29 0.931 . S
C16 O19 1.256 . S
C16 O20 1.255 . S
O17 Co0 2.021 . S
O17 C10 1.259 . S
O18 Co2 2.117 . S
O18 C10 1.258 . S
O19 Co2 2.020 . S
O19 C16 1.256 . S
O20 Co0 2.062 . S
O20 C16 1.255 . S
O21 C1 1.259 . S
O21 Co2 2.021 . S
H22 C13 0.930 . S
H23 C12 0.931 . S
O24 Co0 2.117 . S
O24 C1 1.258 . S
O25 Co0 2.020 . S
O25 C27 1.256 . S
O26 Co2 2.062 . S
O26 C27 1.255 . S
C27 O25 1.256 . S
C27 O26 1.255 . S
H28 C7 0.931 . S
H29 C15 0.931 . S
Co30 N35 2.057 . S
Co30 O47 2.021 . S
Co30 O50 2.062 . S
Co30 O54 2.117 . S
Co30 O55 2.020 . S
C31 O51 1.259 . S
C31 O54 1.258 . S
Co32 N41 2.057 . S
Co32 O48 2.117 . S
Co32 O49 2.020 . S
Co32 O51 2.021 . S
Co32 O56 2.062 . S
C33 N35 1.316 . S
C33 N36 1.347 . S
C33 H38 0.931 . S
C34 N35 1.375 . S
C34 C37 1.350 . S
C34 H39 0.930 . S
N35 Co30 2.057 . S
N35 C33 1.316 . S
N35 C34 1.375 . S
N36 C33 1.347 . S
N36 C37 1.373 . S
C37 C34 1.350 . S
C37 N36 1.373 . S
C37 H58 0.931 . S
H38 C33 0.931 . S
H39 C34 0.930 . S
C40 O47 1.259 . S
C40 O48 1.258 . S
N41 Co32 2.057 . S
N41 C42 1.316 . S
N41 C43 1.375 . S
C42 N41 1.316 . S
C42 N44 1.347 . S
C42 H53 0.931 . S
C43 N41 1.375 . S
C43 C45 1.350 . S
C43 H52 0.930 . S
N44 C42 1.347 . S
N44 C45 1.373 . S
C45 C43 1.350 . S
C45 N44 1.373 . S
C45 H59 0.931 . S
C46 O49 1.256 . S
C46 O50 1.255 . S
O47 Co30 2.021 . S
O47 C40 1.259 . S
O48 Co32 2.117 . S
O48 C40 1.258 . S
O49 Co32 2.020 . S
O49 C46 1.256 . S
O50 Co30 2.062 . S
O50 C46 1.255 . S
O51 C31 1.259 . S
O51 Co32 2.021 . S
H52 C43 0.930 . S
H53 C42 0.931 . S
O54 Co30 2.117 . S
O54 C31 1.258 . S
O55 Co30 2.020 . S
O55 C57 1.256 . S
O56 Co32 2.062 . S
O56 C57 1.255 . S
C57 O55 1.256 . S
C57 O56 1.255 . S
H58 C37 0.931 . S
H59 C45 0.931 . S
Co60 N65 2.057 1_655 S
Co60 O77 2.021 . S
Co60 O80 2.062 . S
Co60 O84 2.117 . S
Co60 O85 2.020 . S
C61 O81 1.259 . S
C61 O84 1.258 . S
Co62 N71 2.057 . S
Co62 O78 2.117 . S
Co62 O79 2.020 . S
Co62 O81 2.021 . S
Co62 O86 2.062 . S
C63 N65 1.316 . S
C63 N66 1.347 . S
C63 H68 0.931 . S
C64 N65 1.375 . S
C64 C67 1.350 . S
C64 H69 0.930 . S
N65 Co60 2.057 1_455 S
N65 C63 1.316 . S
N65 C64 1.375 . S
N66 C63 1.347 . S
N66 C67 1.373 . S
C67 C64 1.350 . S
C67 N66 1.373 . S
C67 H88 0.931 . S
H68 C63 0.931 . S
H69 C64 0.930 . S
C70 O77 1.259 . S
C70 O78 1.258 . S
N71 Co62 2.057 . S
N71 C72 1.316 . S
N71 C73 1.375 . S
C72 N71 1.316 . S
C72 N74 1.347 . S
C72 H83 0.931 . S
C73 N71 1.375 . S
C73 C75 1.350 . S
C73 H82 0.930 . S
N74 C72 1.347 . S
N74 C75 1.373 . S
C75 C73 1.350 . S
C75 N74 1.373 . S
C75 H89 0.931 . S
C76 O79 1.256 . S
C76 O80 1.255 . S
O77 Co60 2.021 . S
O77 C70 1.259 . S
O78 Co62 2.117 . S
O78 C70 1.258 . S
O79 Co62 2.020 . S
O79 C76 1.256 . S
O80 Co60 2.062 . S
O80 C76 1.255 . S
O81 C61 1.259 . S
O81 Co62 2.021 . S
H82 C73 0.930 . S
H83 C72 0.931 . S
O84 Co60 2.117 . S
O84 C61 1.258 . S
O85 Co60 2.020 . S
O85 C87 1.256 . S
O86 Co62 2.062 . S
O86 C87 1.255 . S
C87 O85 1.256 . S
C87 O86 1.255 . S
H88 C67 0.931 . S
H89 C75 0.931 . S
Co90 N95 2.057 . S
Co90 O107 2.021 . S
Co90 O110 2.062 . S
Co90 O114 2.117 . S
Co90 O115 2.020 . S
C91 O111 1.259 . S
C91 O114 1.258 . S
Co92 N101 2.057 1_455 S
Co92 O108 2.117 . S
Co92 O109 2.020 . S
Co92 O111 2.021 . S
Co92 O116 2.062 . S
C93 N95 1.316 . S
C93 N96 1.347 . S
C93 H98 0.931 . S
C94 N95 1.375 . S
C94 C97 1.350 . S
C94 H99 0.930 . S
N95 Co90 2.057 . S
N95 C93 1.316 . S
N95 C94 1.375 . S
N96 C93 1.347 . S
N96 C97 1.373 . S
C97 C94 1.350 . S
C97 N96 1.373 . S
C97 H118 0.931 . S
H98 C93 0.931 . S
H99 C94 0.930 . S
C100 O107 1.259 . S
C100 O108 1.258 . S
N101 Co92 2.057 1_655 S
N101 C102 1.316 . S
N101 C103 1.375 . S
C102 N101 1.316 . S
C102 N104 1.347 . S
C102 H113 0.931 . S
C103 N101 1.375 . S
C103 C105 1.350 . S
C103 H112 0.930 . S
N104 C102 1.347 . S
N104 C105 1.373 . S
C105 C103 1.350 . S
C105 N104 1.373 . S
C105 H119 0.931 . S
C106 O109 1.256 . S
C106 O110 1.255 . S
O107 Co90 2.021 . S
O107 C100 1.259 . S
O108 Co92 2.117 . S
O108 C100 1.258 . S
O109 Co92 2.020 . S
O109 C106 1.256 . S
O110 Co90 2.062 . S
O110 C106 1.255 . S
O111 C91 1.259 . S
O111 Co92 2.021 . S
H112 C103 0.930 . S
H113 C102 0.931 . S
O114 Co90 2.117 . S
O114 C91 1.258 . S
O115 Co90 2.020 . S
O115 C117 1.256 . S
O116 Co92 2.062 . S
O116 C117 1.255 . S
C117 O115 1.256 . S
C117 O116 1.255 . S
H118 C97 0.931 . S
H119 C105 0.931 . S
Co120 N125 2.057 . S
Co120 O137 2.021 . S
Co120 O140 2.062 . S
Co120 O144 2.117 . S
Co120 O145 2.020 . S
C121 O141 1.259 . S
C121 O144 1.258 . S
Co122 N131 2.057 1_565 S
Co122 O138 2.117 . S
Co122 O139 2.020 . S
Co122 O141 2.021 . S
Co122 O146 2.062 . S
C123 N125 1.316 . S
C123 N126 1.347 . S
C123 H128 0.931 . S
C124 N125 1.375 . S
C124 C127 1.350 . S
C124 H129 0.930 . S
N125 Co120 2.057 . S
N125 C123 1.316 . S
N125 C124 1.375 . S
N126 C123 1.347 . S
N126 C127 1.373 . S
C127 C124 1.350 . S
C127 N126 1.373 . S
C127 H148 0.931 . S
H128 C123 0.931 . S
H129 C124 0.930 . S
C130 O137 1.259 . S
C130 O138 1.258 . S
N131 Co122 2.057 1_545 S
N131 C132 1.316 . S
N131 C133 1.375 . S
C132 N131 1.316 . S
C132 N134 1.347 . S
C132 H143 0.931 . S
C133 N131 1.375 . S
C133 C135 1.350 . S
C133 H142 0.930 . S
N134 C132 1.347 . S
N134 C135 1.373 . S
C135 C133 1.350 . S
C135 N134 1.373 . S
C135 H149 0.931 . S
C136 O139 1.256 . S
C136 O140 1.255 . S
O137 Co120 2.021 . S
O137 C130 1.259 . S
O138 Co122 2.117 . S
O138 C130 1.258 . S
O139 Co122 2.020 . S
O139 C136 1.256 . S
O140 Co120 2.062 . S
O140 C136 1.255 . S
O141 C121 1.259 . S
O141 Co122 2.021 . S
H142 C133 0.930 . S
H143 C132 0.931 . S
O144 Co120 2.117 . S
O144 C121 1.258 . S
O145 Co120 2.020 . S
O145 C147 1.256 . S
O146 Co122 2.062 . S
O146 C147 1.255 . S
C147 O145 1.256 . S
C147 O146 1.255 . S
H148 C127 0.931 . S
H149 C135 0.931 . S
Co150 N155 2.057 . S
Co150 O167 2.021 . S
Co150 O170 2.062 . S
Co150 O174 2.117 . S
Co150 O175 2.020 . S
C151 O171 1.259 . S
C151 O174 1.258 . S
Co152 N161 2.057 . S
Co152 O168 2.117 . S
Co152 O169 2.020 . S
Co152 O171 2.021 . S
Co152 O176 2.062 . S
C153 N155 1.316 . S
C153 N156 1.347 . S
C153 H158 0.931 . S
C154 N155 1.375 . S
C154 C157 1.350 . S
C154 H159 0.930 . S
N155 Co150 2.057 . S
N155 C153 1.316 . S
N155 C154 1.375 . S
N156 C153 1.347 . S
N156 C157 1.373 . S
C157 C154 1.350 . S
C157 N156 1.373 . S
C157 H178 0.931 . S
H158 C153 0.931 . S
H159 C154 0.930 . S
C160 O167 1.259 . S
C160 O168 1.258 . S
N161 Co152 2.057 . S
N161 C162 1.316 . S
N161 C163 1.375 . S
C162 N161 1.316 . S
C162 N164 1.347 . S
C162 H173 0.931 . S
C163 N161 1.375 . S
C163 C165 1.350 . S
C163 H172 0.930 . S
N164 C162 1.347 . S
N164 C165 1.373 . S
C165 C163 1.350 . S
C165 N164 1.373 . S
C165 H179 0.931 . S
C166 O169 1.256 . S
C166 O170 1.255 . S
O167 Co150 2.021 . S
O167 C160 1.259 . S
O168 Co152 2.117 . S
O168 C160 1.258 . S
O169 Co152 2.020 . S
O169 C166 1.256 . S
O170 Co150 2.062 . S
O170 C166 1.255 . S
O171 C151 1.259 . S
O171 Co152 2.021 . S
H172 C163 0.930 . S
H173 C162 0.931 . S
O174 Co150 2.117 . S
O174 C151 1.258 . S
O175 Co150 2.020 . S
O175 C177 1.256 . S
O176 Co152 2.062 . S
O176 C177 1.255 . S
C177 O175 1.256 . S
C177 O176 1.255 . S
H178 C157 0.931 . S
H179 C165 0.931 . S
C180 C181 1.170 . S
C180 C182 1.380 1_566 S
C181 C180 1.170 . S
C182 C180 1.380 1_544 S
C182 C183 1.170 . S
C183 C182 1.170 . S
C184 C185 1.170 . S
C184 C186 1.380 . S
C185 C184 1.170 . S
C186 C184 1.380 . S
C186 C187 1.170 . S
C187 C186 1.170 . S
C188 C189 1.170 . S
C188 C190 1.380 1_654 S
C189 C188 1.170 . S
C190 C188 1.380 1_456 S
C190 C191 1.170 . S
C191 C190 1.170 . S
C192 C193 1.170 . S
C192 C194 1.380 1_545 S
C193 C192 1.170 . S
C194 C192 1.380 1_565 S
C194 C195 1.170 . S
C195 C194 1.170 . S
C196 C197 1.170 . S
C196 C198 1.380 1_556 S
C197 C196 1.170 . S
C198 C196 1.380 1_554 S
C198 C199 1.170 . S
C199 C198 1.170 . S
C200 C201 1.170 . S
C200 C202 1.380 1_655 S
C201 C200 1.170 . S
C202 C200 1.380 1_455 S
C202 C203 1.170 . S
C203 C202 1.170 . S
C204 C205 1.170 . S
C204 C206 1.380 . S
C205 C204 1.170 . S
C206 C204 1.380 . S
C206 C207 1.170 . S
C207 C206 1.170 . S
C208 C209 1.170 . S
C208 C210 1.380 . S
C209 C208 1.170 . S
C210 C208 1.380 . S
C210 C211 1.170 . S
C211 C210 1.170 . S
C212 C213 1.170 . S
C212 C214 1.380 . S
C213 C212 1.170 . S
C214 C212 1.380 . S
C214 C215 1.170 . S
C215 C214 1.170 . S
C216 C217 1.170 . S
C216 C218 1.380 . S
C217 C216 1.170 . S
C218 C216 1.380 . S
C218 C219 1.170 . S
C219 C218 1.170 . S
C220 C221 1.170 . S
C220 C222 1.380 . S
C221 C220 1.170 . S
C222 C220 1.380 . S
C222 C223 1.170 . S
C223 C222 1.170 . S
C224 C225 1.170 . S
C224 C226 1.380 . S
C225 C224 1.170 . S
C226 C224 1.380 . S
C226 C227 1.170 . S
C227 C226 1.170 . S
C228 C229 1.170 . S
C228 C230 1.380 . S
C229 C228 1.170 . S
C230 C228 1.380 . S
C230 C231 1.170 . S
C231 C230 1.170 . S
C232 C233 1.170 . S
C232 C234 1.380 1_655 S
C233 C232 1.170 . S
C234 C232 1.380 1_455 S
C234 C235 1.170 . S
C235 C234 1.170 . S
C236 C237 1.170 . S
C236 C238 1.380 1_545 S
C237 C236 1.170 . S
C238 C236 1.380 1_565 S
C238 C239 1.170 . S
C239 C238 1.170 . S
C240 C241 1.170 . S
C240 C242 1.380 . S
C241 C240 1.170 . S
C242 C240 1.380 . S
C242 C243 1.170 . S
C243 C242 1.170 . S
C244 C245 1.170 . S
C244 C246 1.380 1_455 S
C245 C244 1.170 . S
C246 C244 1.380 1_655 S
C246 C247 1.170 . S
C247 C246 1.170 . S
C248 C249 1.170 . S
C248 C250 1.380 1_545 S
C249 C248 1.170 . S
C250 C248 1.380 1_565 S
C250 C251 1.170 . S
C251 C250 1.170 . S
C181 C121 1.983 . S
C183 C1 2.103 . S
C185 C160 2.156 . S
C187 C40 2.176 . S
C189 C61 2.175 . S
C191 C91 2.097 . S
C193 C10 2.100 . S
C195 C130 2.230 . S
C197 C151 2.049 . S
C199 C31 2.048 . S
C201 C70 2.046 . S
C203 C100 2.121 . S
C205 C27 1.342 . S
C207 N74 1.301 . S
C209 C46 1.299 . S
C211 N14 1.343 . S
C213 C87 1.345 . S
C215 N36 1.306 . S
C217 C106 1.321 . S
C219 N126 1.345 . S
C221 C136 1.309 . S
C223 N156 1.350 . S
C225 N96 1.322 . S
C227 C166 1.347 . S
C229 C16 1.173 . S
C231 N66 1.114 . S
C233 C57 1.140 . S
C235 N6 1.160 . S
C237 C76 1.152 . S
C239 N44 1.159 . S
C241 C117 1.190 . S
C243 N134 1.124 . S
C245 C147 1.140 . S
C247 N164 1.137 . S
C249 N104 1.136 . S
C251 C177 1.187 . S
