# Generated by pormake.
# Topology sxc, (6)-cn, num edge types: 1
# Building blocks:
#     Node 0, Type 0, BuildingBlock: PAMTUU_clean_sbu_0, # of connection points: 6
#     Node 1, Type 0, BuildingBlock: PAMTUU_clean_sbu_0, # of connection points: 6
#     Node 2, Type 0, BuildingBlock: PAMTUU_clean_sbu_0, # of connection points: 6
#     Edge 3, Type (0, 0), None
#     Edge 4, Type (0, 0), None
#     Edge 5, Type (0, 0), None
#     Edge 6, Type (0, 0), None
#     Edge 7, Type (0, 0), None
#     Edge 8, Type (0, 0), None
#     Edge 9, Type (0, 0), None
#     Edge 10, Type (0, 0), None
#     Edge 11, Type (0, 0), None
# Relax obj value: 1.059
# Max RMSD: 0.206
# Mean RMSD: 0.148
data_MOF--net-sxc--node1-PAMTUU_clean_sbu_0--edge1-none
_symmetry_space_group_name_H-M    P1
_symmetry_Int_Tables_number       1
_symmetry_cell_setting            triclinic
loop_
_symmetry_equiv_pos_as_xyz
'x, y, z'
_cell_length_a     17.281381
_cell_length_b     6.9017992
_cell_length_c     20.095558
_cell_angle_alpha  86.597182
_cell_angle_beta   101.89662
_cell_angle_gamma 116.31948
loop_
_atom_site_label
_atom_site_type_symbol
_atom_site_fract_x
_atom_site_fract_y
_atom_site_fract_z
_atom_type_partial_charge
Tb0 Tb 0.92003 1.10611 0.96463 0.0
Tb1 Tb 0.1324 0.32137 0.0154 0.0
C2 C 0.0532 0.26403 0.8591 0.0
C3 C 0.69489 1.02651 0.93932 0.0
C4 C 0.56995 1.09784 0.98884 0.0
C5 C 0.54506 0.96842 0.92929 0.0
C6 C 0.60737 0.93259 0.90477 0.0
C7 C 0.72186 0.17528 -0.00614 0.0
C8 C 0.65955 0.2114 0.01849 0.0
C9 C 0.75711 0.95989 0.92156 0.0
O10 O 0.95283 0.83181 0.97593 0.0
O11 O 0.10535 0.99205 -0.00819 0.0
O12 O 0.06822 1.11822 0.09211 0.0
O13 O 0.94336 0.16052 0.07483 0.0
O14 O 0.26551 0.39203 0.02957 0.0
O15 O 0.21814 0.52519 0.09869 0.0
O16 O 0.09968 0.59085 0.98695 0.0
O17 O 0.95181 0.43837 0.98633 0.0
O18 O 0.97328 0.17614 0.87185 0.0
O19 O 0.12517 0.33056 0.90677 0.0
C20 C 0.02836 0.82124 0.98253 0.0
O21 O 0.81518 1.10478 0.89049 0.0
O22 O 0.79263 0.87328 0.97045 0.0
C23 C 1.00525 1.12641 0.11577 0.0
C24 C 0.35646 0.74224 0.07369 0.0
C25 C 0.50257 1.05471 0.02941 0.0
C26 C 0.51321 0.96312 0.09312 0.0
C27 C 0.43992 0.80429 0.11479 0.0
C28 C 0.34459 0.86487 0.01777 0.0
C29 C 0.41792 1.02346 -0.00403 0.0
C30 C 0.28689 0.52831 0.08039 0.0
C31 C 0.02644 0.60652 0.98467 0.0
H32 H 0.47633 0.87572 0.90582 0.0
H33 H 0.58628 0.82049 0.86185 0.0
H34 H 0.79005 0.25174 0.02026 0.0
H35 H 0.68017 0.31103 0.06443 0.0
H36 H 0.57782 0.98679 0.12066 0.0
H37 H 0.44953 0.71393 0.15908 0.0
H38 H 0.27978 0.82062 0.9864 0.0
H39 H 0.40843 1.09582 0.94748 0.0
Tb40 Tb 0.15017 0.21021 0.32513 0.0
Tb41 Tb 0.93046 0.97345 0.31938 0.0
C42 C 0.07252 1.10252 0.45629 0.0
C43 C 0.37491 0.26382 0.31885 0.0
C44 C 0.49837 1.1042 0.30817 0.0
C45 C 0.46603 1.08335 0.36831 0.0
C46 C 0.40564 0.16242 0.37368 0.0
C47 C 0.40725 0.28554 0.2586 0.0
C48 C 0.46845 0.2073 0.25336 0.0
C49 C 0.3135 0.35646 0.32618 0.0
O50 O 0.11602 0.87012 0.34115 0.0
O51 O 0.964 0.7091 0.30431 0.0
O52 O 0.94972 1.10329 0.21922 0.0
O53 O 0.07724 1.07276 0.22423 0.0
O54 O 0.82958 0.90032 0.37327 0.0
O55 O 0.7986 0.79483 0.26817 0.0
O56 O 0.97046 0.31734 0.33312 0.0
O57 O 0.113 0.47796 0.31223 0.0
O58 O 0.13129 0.25047 0.42582 0.0
O59 O 0.99895 0.95204 0.4218 0.0
C60 C 0.04029 0.6996 0.32229 0.0
O61 O 0.25563 0.35435 0.27258 0.0
O62 O 0.27902 0.30613 0.38031 0.0
C63 C 1.0095 1.09857 0.18942 0.0
C64 C 0.69513 0.87596 0.30889 0.0
C65 C 0.56385 1.02052 0.30407 0.0
C66 C 0.63854 1.14227 0.27548 0.0
C67 C 0.7039 1.07126 0.27826 0.0
C68 C 0.61929 0.75077 0.33497 0.0
C69 C 0.5546 0.8221 0.33271 0.0
C70 C 0.76702 0.80863 0.32046 0.0
C71 C 0.04136 0.4872 0.32229 0.0
H72 H 0.48883 1.00939 0.41214 0.0
H73 H 0.38378 1.14545 0.4214 0.0
H74 H 0.38568 0.36445 0.21566 0.0
H75 H 0.49182 0.2262 0.20625 0.0
H76 H 0.64824 0.2965 0.25349 0.0
H77 H 0.76235 0.17168 0.25835 0.0
H78 H 0.61125 0.60016 0.35909 0.0
H79 H 0.49784 0.72323 0.35464 0.0
Tb80 Tb 0.96775 0.3041 0.62143 0.0
Tb81 Tb 0.17282 1.10562 0.69457 0.0
C82 C 0.07587 1.13953 0.52805 0.0
C83 C 0.76922 0.36424 0.60533 0.0
C84 C 0.61319 0.22936 0.65282 0.0
C85 C 0.62258 0.33588 0.59095 0.0
C86 C 0.7004 0.40236 0.56713 0.0
C87 C 0.76116 0.26393 0.66788 0.0
C88 C 0.68353 0.19644 0.69149 0.0
C89 C 0.84559 0.40463 0.57737 0.0
O90 O 0.94577 1.01062 0.64513 0.0
O91 O 0.04858 0.91461 0.68486 0.0
O92 O 0.12319 0.19386 0.78022 0.0
O93 O 1.0013 0.29857 0.73924 0.0
O94 O 0.21752 0.86731 0.70724 0.0
O95 O 0.29535 0.18867 0.75776 0.0
O96 O 0.19465 0.39887 0.67067 0.0
O97 O 0.09196 0.49584 0.63151 0.0
O98 O 0.01604 0.21182 0.53591 0.0
O99 O 0.13611 1.09933 0.57641 0.0
C100 C 0.03087 1.07284 0.65984 0.0
O101 O 0.92155 0.53907 0.61388 0.0
O102 O 0.84591 0.22711 0.55761 0.0
C103 C 0.06125 0.25908 0.78798 0.0
C104 C 0.37248 1.02735 0.72143 0.0
C105 C 0.53008 1.15123 0.67692 0.0
C106 C 0.53133 0.17929 0.74584 0.0
C107 C 0.45286 1.11744 0.76789 0.0
C108 C 0.37062 0.99151 0.65303 0.0
C109 C 0.4491 1.05218 0.63098 0.0
C110 C 0.29364 1.0037 0.7432 0.0
C111 C 0.10958 0.33675 0.65593 0.0
H112 H 0.56965 0.36622 0.56081 0.0
H113 H 0.70605 0.47827 0.51843 0.0
H114 H 0.8139 0.23115 0.69726 0.0
H115 H 0.67765 1.11285 0.73892 0.0
H116 H 0.59293 0.25701 0.78218 0.0
H117 H 0.45505 1.15011 0.82049 0.0
H118 H 0.30903 0.92441 0.61619 0.0
H119 H 0.4465 1.02527 0.57782 0.0
loop_
_geom_bond_atom_site_label_1
_geom_bond_atom_site_label_2
_geom_bond_distance
_geom_bond_site_symmetry_2
_ccdc_geom_bond_type
Tb0 C9 2.764 . S
Tb0 O10 2.325 . S
Tb0 O13 2.303 1_666 S
Tb0 O17 2.322 1_565 S
Tb0 O18 2.349 . S
Tb0 O21 2.415 1_556 S
Tb0 O22 2.399 . S
Tb1 O11 2.322 1_545 S
Tb1 O12 2.349 . S
Tb1 O14 2.415 1_554 S
Tb1 O15 2.399 . S
Tb1 O16 2.325 . S
Tb1 O19 2.303 1_554 S
Tb1 C30 2.764 . S
C2 O18 1.261 1_445 S
C2 O19 1.257 . S
C3 C6 1.358 . S
C3 C7 1.332 1_556 S
C3 C9 1.504 . S
C4 C5 1.373 . S
C4 C8 1.308 1_556 S
C5 C4 1.373 . S
C5 C6 1.429 . S
C5 H32 0.932 . S
C6 C3 1.358 . S
C6 C5 1.429 . S
C6 H33 0.930 . S
C7 C3 1.332 1_554 S
C7 C8 1.394 . S
C7 H34 0.932 . S
C8 C4 1.308 1_554 S
C8 C7 1.394 . S
C8 H35 0.929 . S
C9 Tb0 2.764 . S
C9 C3 1.504 . S
C9 O21 1.239 1_556 S
C9 O22 1.263 . S
O10 Tb0 2.325 . S
O10 C20 1.236 1_556 S
O11 Tb1 2.322 1_565 S
O11 C20 1.257 1_455 S
O12 Tb1 2.349 . S
O12 C23 1.261 . S
O13 Tb0 2.303 1_444 S
O13 C23 1.257 . S
O14 Tb1 2.415 1_556 S
O14 C30 1.239 1_556 S
O15 Tb1 2.399 . S
O15 C30 1.263 . S
O16 Tb1 2.325 . S
O16 C31 1.236 . S
O17 Tb0 2.322 1_545 S
O17 C31 1.257 1_656 S
O18 Tb0 2.349 . S
O18 C2 1.261 1_665 S
O19 Tb1 2.303 1_556 S
O19 C2 1.257 . S
C20 O10 1.236 1_554 S
C20 O11 1.257 1_655 S
O21 Tb0 2.415 1_554 S
O21 C9 1.239 1_554 S
O22 Tb0 2.399 . S
O22 C9 1.263 . S
C23 O12 1.261 . S
C23 O13 1.257 . S
C24 C27 1.358 . S
C24 C28 1.332 1_554 S
C24 C30 1.504 . S
C25 C26 1.373 . S
C25 C29 1.308 1_554 S
C26 C25 1.373 . S
C26 C27 1.429 . S
C26 H36 0.932 . S
C27 C24 1.358 . S
C27 C26 1.429 . S
C27 H37 0.930 . S
C28 C24 1.332 1_556 S
C28 C29 1.394 . S
C28 H38 0.932 . S
C29 C25 1.308 1_556 S
C29 C28 1.394 . S
C29 H39 0.929 . S
C30 Tb1 2.764 . S
C30 O14 1.239 1_554 S
C30 O15 1.263 . S
C30 C24 1.504 . S
C31 O16 1.236 . S
C31 O17 1.257 1_454 S
H32 C5 0.932 . S
H33 C6 0.930 . S
H34 C7 0.932 . S
H35 C8 0.929 . S
H36 C26 0.932 . S
H37 C27 0.930 . S
H38 C28 0.932 . S
H39 C29 0.929 . S
Tb40 C49 2.764 . S
Tb40 O50 2.325 1_545 S
Tb40 O53 2.303 . S
Tb40 O57 2.322 . S
Tb40 O58 2.349 . S
Tb40 O61 2.415 . S
Tb40 O62 2.399 . S
Tb41 O51 2.322 . S
Tb41 O52 2.349 . S
Tb41 O54 2.415 . S
Tb41 O55 2.399 . S
Tb41 O56 2.325 1_565 S
Tb41 O59 2.303 . S
Tb41 C70 2.764 . S
C42 O58 1.261 . S
C42 O59 1.257 1_445 S
C43 C46 1.358 . S
C43 C47 1.332 . S
C43 C49 1.504 . S
C44 C45 1.373 . S
C44 C48 1.308 1_545 S
C45 C44 1.373 . S
C45 C46 1.429 . S
C45 H72 0.932 . S
C46 C43 1.358 . S
C46 C45 1.429 . S
C46 H73 0.930 . S
C47 C43 1.332 . S
C47 C48 1.394 1_545 S
C47 H74 0.932 1_545 S
C48 C44 1.308 1_565 S
C48 C47 1.394 1_565 S
C48 H75 0.929 . S
C49 Tb40 2.764 . S
C49 C43 1.504 . S
C49 O61 1.239 . S
C49 O62 1.263 . S
O50 Tb40 2.325 1_565 S
O50 C60 1.236 . S
O51 Tb41 2.322 . S
O51 C60 1.257 1_655 S
O52 Tb41 2.349 . S
O52 C63 1.261 . S
O53 Tb40 2.303 . S
O53 C63 1.257 1_445 S
O54 Tb41 2.415 . S
O54 C70 1.239 . S
O55 Tb41 2.399 . S
O55 C70 1.263 . S
O56 Tb41 2.325 1_545 S
O56 C71 1.236 1_655 S
O57 Tb40 2.322 . S
O57 C71 1.257 . S
O58 Tb40 2.349 . S
O58 C42 1.261 . S
O59 Tb41 2.303 . S
O59 C42 1.257 1_665 S
C60 O50 1.236 . S
C60 O51 1.257 1_455 S
O61 Tb40 2.415 . S
O61 C49 1.239 . S
O62 Tb40 2.399 . S
O62 C49 1.263 . S
C63 O52 1.261 . S
C63 O53 1.257 1_665 S
C64 C67 1.358 . S
C64 C68 1.332 . S
C64 C70 1.504 . S
C65 C66 1.373 . S
C65 C69 1.308 1_565 S
C66 C65 1.373 . S
C66 C67 1.429 . S
C66 H76 0.932 . S
C67 C64 1.358 . S
C67 C66 1.429 . S
C67 H77 0.930 . S
C68 C64 1.332 . S
C68 C69 1.394 1_565 S
C68 H78 0.932 1_565 S
C69 C65 1.308 1_545 S
C69 C68 1.394 1_545 S
C69 H79 0.929 . S
C70 Tb41 2.764 . S
C70 O54 1.239 . S
C70 O55 1.263 . S
C70 C64 1.504 . S
C71 O56 1.236 1_455 S
C71 O57 1.257 . S
H72 C45 0.932 . S
H73 C46 0.930 . S
H74 C47 0.932 1_565 S
H75 C48 0.929 . S
H76 C66 0.932 . S
H77 C67 0.930 . S
H78 C68 0.932 1_545 S
H79 C69 0.929 . S
Tb80 C89 2.764 1_455 S
Tb80 O90 2.325 1_445 S
Tb80 O93 2.303 . S
Tb80 O97 2.322 . S
Tb80 O98 2.351 1_455 S
Tb80 O101 2.415 1_455 S
Tb80 O102 2.399 1_455 S
Tb81 O91 2.322 1_455 S
Tb81 O92 2.349 . S
Tb81 O94 2.415 . S
Tb81 O95 2.399 . S
Tb81 O96 2.325 1_565 S
Tb81 O99 2.303 1_565 S
Tb81 C110 2.764 . S
C82 O98 1.256 1_455 S
C82 O99 1.257 . S
C83 C86 1.358 . S
C83 C87 1.332 . S
C83 C89 1.504 . S
C84 C85 1.373 . S
C84 C88 1.308 . S
C85 C84 1.373 . S
C85 C86 1.429 . S
C85 H112 0.932 . S
C86 C83 1.358 . S
C86 C85 1.429 . S
C86 H113 0.930 . S
C87 C83 1.332 . S
C87 C88 1.394 . S
C87 H114 0.932 . S
C88 C84 1.308 . S
C88 C87 1.394 . S
C88 H115 0.929 . S
C89 Tb80 2.764 1_655 S
C89 C83 1.504 . S
C89 O101 1.239 . S
C89 O102 1.263 . S
O90 Tb80 2.325 1_665 S
O90 C100 1.236 . S
O91 Tb81 2.322 1_655 S
O91 C100 1.257 . S
O92 Tb81 2.349 . S
O92 C103 1.261 1_565 S
O93 Tb80 2.303 . S
O93 C103 1.257 . S
O94 Tb81 2.415 . S
O94 C110 1.239 . S
O95 Tb81 2.399 . S
O95 C110 1.263 . S
O96 Tb81 2.325 1_545 S
O96 C111 1.236 . S
O97 Tb80 2.322 . S
O97 C111 1.257 . S
O98 Tb80 2.351 1_655 S
O98 C82 1.256 1_655 S
O99 Tb81 2.303 1_545 S
O99 C82 1.257 . S
C100 O90 1.236 . S
C100 O91 1.257 . S
O101 Tb80 2.415 1_655 S
O101 C89 1.239 . S
O102 Tb80 2.399 1_655 S
O102 C89 1.263 . S
C103 O92 1.261 1_545 S
C103 O93 1.257 . S
C104 C107 1.358 . S
C104 C108 1.332 . S
C104 C110 1.504 . S
C105 C106 1.373 . S
C105 C109 1.308 . S
C106 C105 1.373 . S
C106 C107 1.429 . S
C106 H116 0.932 . S
C107 C104 1.358 . S
C107 C106 1.429 . S
C107 H117 0.930 . S
C108 C104 1.332 . S
C108 C109 1.394 . S
C108 H118 0.932 . S
C109 C105 1.308 . S
C109 C108 1.394 . S
C109 H119 0.929 . S
C110 Tb81 2.764 . S
C110 O94 1.239 . S
C110 O95 1.263 . S
C110 C104 1.504 . S
C111 O96 1.236 . S
C111 O97 1.257 . S
H112 C85 0.932 . S
H113 C86 0.930 . S
H114 C87 0.932 . S
H115 C88 0.929 . S
H116 C106 0.932 . S
H117 C107 0.930 . S
H118 C108 0.932 . S
H119 C109 0.929 . S
C31 C20 4.888 1_455 S
C44 C65 0.988 1_545 S
C100 C111 5.353 1_665 S
C84 C105 3.650 1_545 S
C4 C25 5.248 1_556 S
C71 C60 4.574 . S
C63 C23 1.689 1_665 S
C42 C82 1.557 . S
C103 C2 1.461 . S
