# Generated by pormake.
# Topology sxc, (6)-cn, num edge types: 1
# Building blocks:
#     Node 0, Type 0, BuildingBlock: FUNLAD_clean_sbu_0, # of connection points: 6
#     Node 1, Type 0, BuildingBlock: FUNLAD_clean_sbu_0, # of connection points: 6
#     Node 2, Type 0, BuildingBlock: FUNLAD_clean_sbu_0, # of connection points: 6
#     Edge 3, Type (0, 0), BuildingBlock: OJICUG_clean_linker_0, # of connection points: 2
#     Edge 4, Type (0, 0), BuildingBlock: OJICUG_clean_linker_0, # of connection points: 2
#     Edge 5, Type (0, 0), BuildingBlock: OJICUG_clean_linker_0, # of connection points: 2
#     Edge 6, Type (0, 0), BuildingBlock: OJICUG_clean_linker_0, # of connection points: 2
#     Edge 7, Type (0, 0), BuildingBlock: OJICUG_clean_linker_0, # of connection points: 2
#     Edge 8, Type (0, 0), BuildingBlock: OJICUG_clean_linker_0, # of connection points: 2
#     Edge 9, Type (0, 0), BuildingBlock: OJICUG_clean_linker_0, # of connection points: 2
#     Edge 10, Type (0, 0), BuildingBlock: OJICUG_clean_linker_0, # of connection points: 2
#     Edge 11, Type (0, 0), BuildingBlock: OJICUG_clean_linker_0, # of connection points: 2
# Relax obj value: 0.095
# Max RMSD: 0.177
# Mean RMSD: 0.176
data_MOF--net-sxc--node1-FUNLAD_clean_sbu_0--edge1-OJICUG_clean_linker_0
_symmetry_space_group_name_H-M    P1
_symmetry_Int_Tables_number       1
_symmetry_cell_setting            triclinic
loop_
_symmetry_equiv_pos_as_xyz
'x, y, z'
_cell_length_a     11.083762
_cell_length_b     11.077303
_cell_length_c     52.982625
_cell_angle_alpha  89.313221
_cell_angle_beta   92.206319
_cell_angle_gamma 119.99935
loop_
_atom_site_label
_atom_site_type_symbol
_atom_site_fract_x
_atom_site_fract_y
_atom_site_fract_z
_atom_type_partial_charge
C0 C 0.70903 0.78166 0.02801 0.0
N1 N -0.01349 -0.00082 0.0881 0.0
C2 C 0.88857 0.016 0.09978 0.0
C3 C 0.88596 0.01632 0.12609 0.0
C4 C -0.01673 -0.00363 0.1405 0.0
C5 C 0.08241 -0.02208 0.12803 0.0
C6 C 0.08299 -0.01902 0.10165 0.0
Zn7 Zn -0.01547 -0.00142 0.04946 0.0
C8 C 0.03589 0.78178 0.02878 0.0
N9 N -0.0262 -0.00464 0.96884 0.0
C10 C 0.85941 -0.02191 0.95525 0.0
C11 C 0.08842 0.01198 0.95718 0.0
C12 C 0.09172 0.01359 0.93087 0.0
C13 C -0.02503 -0.00481 0.91642 0.0
C14 C 0.8573 -0.02363 0.92886 0.0
Zn15 Zn -0.02388 -0.00344 1.00747 0.0
O16 O 0.77336 0.83906 0.04868 0.0
C17 C 0.92482 0.21345 0.02786 0.0
O18 O 0.76594 0.83416 1.00726 0.0
H19 H 0.17764 0.0239 0.9683 0.0
H20 H 0.81168 0.02852 0.08869 0.0
H21 H 0.7697 -0.03422 0.96488 0.0
O22 O 0.93655 0.16047 0.04856 0.0
O23 O 0.92447 0.15652 1.00714 0.0
H24 H 0.1603 -0.03157 0.09201 0.0
O25 O 0.18596 0.15859 1.00852 0.0
O26 O 0.19613 0.15869 0.04994 0.0
O27 O 0.02793 0.83716 1.0081 0.0
O28 O 0.03245 0.83629 0.04952 0.0
C29 C 0.25166 0.2136 0.0292 0.0
H30 H 0.80717 0.0296 0.13509 0.0
H31 H 0.15963 -0.03687 0.13859 0.0
H32 H 0.18381 0.02703 0.9219 0.0
H33 H 0.76566 0.96269 0.91827 0.0
C34 C 0.24454 0.04024 0.36193 0.0
N35 N -0.03361 -0.01452 0.30184 0.0
C36 C 0.06491 0.10046 0.28997 0.0
C37 C 0.06769 0.10455 0.26365 0.0
C38 C -0.03016 -0.01178 0.24944 0.0
C39 C 0.86989 0.87054 0.26211 0.0
C40 C 0.86925 0.87184 0.28847 0.0
Zn41 Zn -0.0311 -0.01595 0.34048 0.0
C42 C 0.91765 0.71352 0.36135 0.0
N43 N -0.01962 -0.01542 0.42105 0.0
C44 C 0.09228 0.08514 0.43441 0.0
C45 C 0.86808 0.88336 0.43292 0.0
C46 C 0.86461 0.88162 0.45923 0.0
C47 C -0.0214 -0.01594 0.47361 0.0
C48 C 0.09392 0.08642 0.46079 0.0
Zn49 Zn -0.02251 -0.01427 0.38245 0.0
O50 O 0.18006 0.03535 0.34126 0.0
C51 C 0.02869 0.25625 0.36182 0.0
O52 O 0.18783 0.03393 0.38269 0.0
H53 H 0.78024 0.80426 0.42195 0.0
H54 H 0.14225 0.18902 0.30094 0.0
H55 H 0.18043 0.16472 0.42458 0.0
O56 O 0.01719 0.19405 0.34112 0.0
O57 O 0.0288 0.19714 0.38254 0.0
H58 H 0.7915 0.78179 0.29827 0.0
O59 O 0.7674 0.93751 0.38146 0.0
O60 O 0.75741 0.93285 0.34004 0.0
O61 O 0.92607 0.7746 0.38205 0.0
O62 O 0.92065 0.77376 0.34062 0.0
C63 C 0.70179 0.92953 0.36078 0.0
H64 H 0.14709 0.19667 0.25451 0.0
H65 H 0.79219 0.77927 0.25171 0.0
H66 H 0.77236 0.8019 0.46813 0.0
H67 H 0.1852 0.16621 0.47099 0.0
C68 C 0.76081 0.04497 0.6951 0.0
N69 N -0.01376 -0.00682 0.75506 0.0
C70 C 0.00301 0.1081 0.76735 0.0
C71 C 0.00372 0.11152 0.79369 0.0
C72 C -0.01571 -0.00542 0.80746 0.0
C73 C -0.03323 0.87723 0.79436 0.0
C74 C -0.03063 0.87921 0.76802 0.0
Zn75 Zn -0.0188 -0.00944 0.71642 0.0
C76 C 0.76076 0.71811 0.69531 0.0
N77 N -0.03296 -0.01441 0.63585 0.0
C78 C -0.04445 0.0859 0.62274 0.0
C79 C -0.02193 0.88418 0.62373 0.0
C80 C -0.0203 0.88207 0.59741 0.0
C81 C -0.03186 -0.01565 0.58329 0.0
C82 C -0.04492 0.08681 0.59636 0.0
Zn83 Zn -0.02774 -0.01161 0.67446 0.0
O84 O 0.82131 0.04196 0.71577 0.0
C85 C 0.19265 0.26081 0.69531 0.0
O86 O 0.81027 0.03673 0.67434 0.0
H87 H -0.01299 0.80533 0.63451 0.0
H88 H 0.01471 0.19698 0.7567 0.0
H89 H 0.94711 0.1657 0.63276 0.0
O90 O 0.14303 0.20062 0.71603 0.0
O91 O 0.13234 0.19973 0.67461 0.0
H92 H -0.04295 0.78927 0.75791 0.0
O93 O 0.13418 0.94011 0.67531 0.0
O94 O 0.14135 0.93923 0.71674 0.0
O95 O 0.81236 0.77719 0.67461 0.0
O96 O 0.81909 0.78032 0.71602 0.0
C97 C 0.19275 0.93403 0.696 0.0
H98 H 0.01648 0.20348 0.80319 0.0
H99 H -0.04735 0.78557 0.80442 0.0
H100 H -0.00774 0.80226 0.58831 0.0
H101 H 0.94355 0.16647 0.58637 0.0
C102 C -0.03991 0.42819 1.00527 0.0
C103 C 0.9425 0.35516 0.02798 0.0
H104 H 0.00799 0.62124 0.98769 0.0
C105 C -0.0369 0.42633 0.05097 0.0
H106 H 0.94743 0.37744 0.98722 0.0
C107 C 0.00056 0.56697 0.05126 0.0
C108 C 0.01814 0.64005 0.02856 0.0
H109 H -0.04746 0.37406 0.06884 0.0
H110 H 0.0133 0.61766 0.06931 0.0
C111 C -0.00248 0.56892 1.00556 0.0
C112 C 0.42492 0.00078 0.38433 0.0
C113 C 0.36845 0.02247 0.36167 0.0
H114 H 0.57064 0.94973 0.40183 0.0
C115 C 0.41798 0.00605 0.33864 0.0
H116 H 0.38774 0.01018 0.40241 0.0
C117 C 0.5213 -0.03121 0.33829 0.0
C118 C 0.57777 0.94714 0.36095 0.0
H119 H 0.37539 0.01975 0.3208 0.0
H120 H 0.5586 0.95946 0.32022 0.0
C121 C 0.52815 -0.0365 0.38398 0.0
C122 C 0.54235 0.53993 0.67241 0.0
C123 C 0.61907 0.59412 0.69527 0.0
H124 H 0.34655 0.39569 0.65444 0.0
C125 C 0.55165 0.54227 0.71812 0.0
H126 H 0.59019 0.57894 0.65445 0.0
C127 C 0.41108 0.43903 0.71812 0.0
C128 C 0.33433 0.3848 0.69526 0.0
H129 H 0.60676 0.58306 0.73609 0.0
H130 H 0.36329 0.40013 0.73609 0.0
C131 C 0.40171 0.4366 0.6724 0.0
C132 C 0.55365 0.01197 0.7183 0.0
C133 C 0.6191 0.02719 0.69531 0.0
H134 H 0.36683 -0.03376 0.73663 0.0
C135 C 0.54043 0.00427 0.67261 0.0
H136 H 0.61034 0.02662 0.73617 0.0
C137 C 0.39992 -0.03306 0.67288 0.0
C138 C 0.33444 0.95175 0.69587 0.0
H139 H 0.58663 0.01276 0.65455 0.0
H140 H 0.34327 0.95223 0.655 0.0
C141 C 0.41308 -0.02534 0.71858 0.0
C142 C 0.53538 0.57154 0.05133 0.0
C143 C 0.58506 0.63998 0.02829 0.0
H144 H 0.39458 0.38229 0.06976 0.0
C145 C 0.5287 0.56428 1.00563 0.0
H146 H 0.57789 0.62593 0.06916 0.0
C147 C 0.42546 0.42373 1.00601 0.0
C148 C 0.37571 0.35526 0.02904 0.0
H149 H 0.566 0.61284 0.98756 0.0
H150 H 0.38308 0.36939 0.98816 0.0
C151 C 0.43203 0.4309 0.0517 0.0
C152 C -0.00515 0.43359 0.38457 0.0
C153 C 0.01097 0.38025 0.36178 0.0
H154 H -0.05185 0.57711 0.40233 0.0
C155 C -0.0111 0.4329 0.33886 0.0
H156 H 0.0087 0.39389 0.40257 0.0
C157 C -0.04854 0.5361 0.3387 0.0
C158 C 0.93536 0.5895 0.36148 0.0
H159 H -0.00175 0.39279 0.32093 0.0
H160 H 0.93753 0.57568 0.32069 0.0
C161 C -0.04257 0.53689 0.38442 0.0
C162 C -0.0235 0.10123 0.20795 0.0
C163 C -0.02729 -0.01019 0.22154 0.0
H164 H -0.01857 0.18964 0.17151 0.0
C165 C -0.02697 0.88074 0.20834 0.0
H166 H -0.02422 0.18623 0.21771 0.0
C167 C -0.02158 0.88375 0.182 0.0
C168 C -0.01924 -0.0055 0.16841 0.0
H169 H -0.02898 0.79415 0.21843 0.0
H170 H -0.02123 0.79862 0.17221 0.0
C171 C -0.02087 0.10288 0.18159 0.0
C172 C 0.91248 0.8583 0.51511 0.0
C173 C -0.02339 -0.01568 0.50173 0.0
H174 H 0.85608 0.75911 0.55097 0.0
C175 C 0.0378 0.11044 0.51545 0.0
H176 H 0.86591 0.759 0.50529 0.0
C177 C 0.03544 0.11051 0.54181 0.0
C178 C -0.02947 -0.01556 0.55517 0.0
H179 H 0.08647 0.20964 0.50585 0.0
H180 H 0.08593 0.20976 0.55169 0.0
C181 C 0.90874 0.85836 0.54143 0.0
C182 C 0.87124 0.88528 0.84797 0.0
C183 C -0.01843 -0.00514 0.83536 0.0
H184 H 0.78185 0.80078 0.88363 0.0
C185 C 0.08906 0.10498 0.84955 0.0
H186 H 0.78676 0.79967 0.8374 0.0
C187 C 0.08717 0.10468 0.87591 0.0
C188 C -0.02362 -0.00438 0.88851 0.0
H189 H 0.17547 0.19033 0.84025 0.0
H190 H 0.17163 0.19037 0.88646 0.0
C191 C 0.86797 0.88636 0.87431 0.0
loop_
_geom_bond_atom_site_label_1
_geom_bond_atom_site_label_2
_geom_bond_distance
_geom_bond_site_symmetry_2
_ccdc_geom_bond_type
C0 O16 1.251 . S
C0 O18 1.254 1_554 S
N1 C2 1.333 1_455 S
N1 C6 1.307 . S
N1 Zn7 2.020 . S
C2 N1 1.333 1_655 S
C2 C3 1.379 . S
C2 H20 0.952 1_545 S
C3 C2 1.379 . S
C3 C4 1.390 1_655 S
C3 H30 0.949 1_545 S
C4 C3 1.390 1_455 S
C4 C5 1.357 . S
C5 C4 1.357 . S
C5 C6 1.370 . S
C5 H31 0.950 . S
C6 N1 1.307 . S
C6 C5 1.370 . S
C6 H24 0.948 . S
Zn7 N1 2.020 . S
Zn7 O16 2.039 1_445 S
Zn7 O22 2.034 1_455 S
Zn7 O26 2.025 . S
Zn7 O28 2.024 1_545 S
C8 O27 1.246 1_554 S
C8 O28 1.249 . S
N9 C10 1.307 1_455 S
N9 C11 1.333 . S
N9 Zn15 2.020 . S
C10 N9 1.307 1_655 S
C10 C14 1.370 . S
C10 H21 0.948 1_545 S
C11 N9 1.333 . S
C11 C12 1.379 . S
C11 H19 0.952 . S
C12 C11 1.379 . S
C12 C13 1.390 . S
C12 H32 0.949 . S
C13 C12 1.390 . S
C13 C14 1.357 1_455 S
C14 C10 1.370 . S
C14 C13 1.357 1_655 S
C14 H33 0.950 1_545 S
Zn15 N9 2.020 . S
Zn15 O18 2.025 1_445 S
Zn15 O23 2.024 1_455 S
Zn15 O25 2.039 . S
Zn15 O27 2.034 1_545 S
O16 C0 1.251 . S
O16 Zn7 2.039 1_665 S
C17 O22 1.246 . S
C17 O23 1.249 1_554 S
O18 C0 1.254 1_556 S
O18 Zn15 2.025 1_665 S
H19 C11 0.952 . S
H20 C2 0.952 1_565 S
H21 C10 0.948 1_565 S
O22 Zn7 2.034 1_655 S
O22 C17 1.246 . S
O23 Zn15 2.024 1_655 S
O23 C17 1.249 1_556 S
H24 C6 0.948 . S
O25 Zn15 2.039 . S
O25 C29 1.251 1_556 S
O26 Zn7 2.025 . S
O26 C29 1.254 . S
O27 C8 1.246 1_556 S
O27 Zn15 2.034 1_565 S
O28 Zn7 2.024 1_565 S
O28 C8 1.249 . S
C29 O25 1.251 1_554 S
C29 O26 1.254 . S
H30 C3 0.949 1_565 S
H31 C5 0.950 . S
H32 C12 0.949 . S
H33 C14 0.950 1_565 S
C34 O50 1.251 . S
C34 O52 1.254 . S
N35 C36 1.333 1_665 S
N35 C40 1.307 . S
N35 Zn41 2.020 . S
C36 N35 1.333 1_445 S
C36 C37 1.379 . S
C36 H54 0.952 . S
C37 C36 1.379 . S
C37 C38 1.390 1_455 S
C37 H64 0.949 . S
C38 C37 1.390 1_655 S
C38 C39 1.357 1_545 S
C39 C38 1.357 1_565 S
C39 C40 1.370 . S
C39 H65 0.950 . S
C40 N35 1.307 . S
C40 C39 1.370 . S
C40 H58 0.948 . S
Zn41 N35 2.020 . S
Zn41 O50 2.039 1_665 S
Zn41 O56 2.034 1_665 S
Zn41 O60 2.025 . S
Zn41 O62 2.024 . S
C42 O61 1.246 . S
C42 O62 1.249 . S
N43 C44 1.307 . S
N43 C45 1.333 1_445 S
N43 Zn49 2.020 . S
C44 N43 1.307 . S
C44 C48 1.370 . S
C44 H55 0.948 . S
C45 N43 1.333 1_665 S
C45 C46 1.379 . S
C45 H53 0.952 . S
C46 C45 1.379 . S
C46 C47 1.390 1_655 S
C46 H66 0.949 . S
C47 C46 1.390 1_455 S
C47 C48 1.357 1_565 S
C48 C44 1.370 . S
C48 C47 1.357 1_545 S
C48 H67 0.950 . S
Zn49 N43 2.020 . S
Zn49 O52 2.025 . S
Zn49 O57 2.024 . S
Zn49 O59 2.039 1_445 S
Zn49 O61 2.034 1_445 S
O50 C34 1.251 . S
O50 Zn41 2.039 1_445 S
C51 O56 1.246 . S
C51 O57 1.249 . S
O52 C34 1.254 . S
O52 Zn49 2.025 . S
H53 C45 0.952 . S
H54 C36 0.952 . S
H55 C44 0.948 . S
O56 Zn41 2.034 1_445 S
O56 C51 1.246 . S
O57 Zn49 2.024 . S
O57 C51 1.249 . S
H58 C40 0.948 . S
O59 Zn49 2.039 1_665 S
O59 C63 1.251 . S
O60 Zn41 2.025 . S
O60 C63 1.254 . S
O61 C42 1.246 . S
O61 Zn49 2.034 1_665 S
O62 Zn41 2.024 . S
O62 C42 1.249 . S
C63 O59 1.251 . S
C63 O60 1.254 . S
H64 C37 0.949 . S
H65 C39 0.950 . S
H66 C46 0.949 . S
H67 C48 0.950 . S
C68 O84 1.251 . S
C68 O86 1.254 . S
N69 C70 1.333 . S
N69 C74 1.307 1_545 S
N69 Zn75 2.020 . S
C70 N69 1.333 . S
C70 C71 1.379 . S
C70 H88 0.952 1_455 S
C71 C70 1.379 . S
C71 C72 1.390 . S
C71 H98 0.949 1_455 S
C72 C71 1.390 . S
C72 C73 1.357 1_545 S
C73 C72 1.357 1_565 S
C73 C74 1.370 . S
C73 H99 0.950 . S
C74 N69 1.307 1_565 S
C74 C73 1.370 . S
C74 H92 0.948 . S
Zn75 N69 2.020 . S
Zn75 O84 2.039 1_455 S
Zn75 O90 2.034 . S
Zn75 O94 2.025 1_545 S
Zn75 O96 2.024 1_445 S
C76 O95 1.246 . S
C76 O96 1.249 . S
N77 C78 1.307 1_455 S
N77 C79 1.333 1_545 S
N77 Zn83 2.020 . S
C78 N77 1.307 1_655 S
C78 C82 1.370 . S
C78 H89 0.948 . S
C79 N77 1.333 1_565 S
C79 C80 1.379 . S
C79 H87 0.952 . S
C80 C79 1.379 . S
C80 C81 1.390 1_565 S
C80 H100 0.949 . S
C81 C80 1.390 1_545 S
C81 C82 1.357 1_455 S
C82 C78 1.370 . S
C82 C81 1.357 1_655 S
C82 H101 0.950 . S
Zn83 N77 2.020 . S
Zn83 O86 2.025 1_455 S
Zn83 O91 2.024 . S
Zn83 O93 2.039 1_545 S
Zn83 O95 2.034 1_445 S
O84 C68 1.251 . S
O84 Zn75 2.039 1_655 S
C85 O90 1.246 . S
C85 O91 1.249 . S
O86 C68 1.254 . S
O86 Zn83 2.025 1_655 S
H87 C79 0.952 . S
H88 C70 0.952 1_655 S
H89 C78 0.948 . S
O90 Zn75 2.034 . S
O90 C85 1.246 . S
O91 Zn83 2.024 . S
O91 C85 1.249 . S
H92 C74 0.948 . S
O93 Zn83 2.039 1_565 S
O93 C97 1.251 . S
O94 Zn75 2.025 1_565 S
O94 C97 1.254 . S
O95 C76 1.246 . S
O95 Zn83 2.034 1_665 S
O96 Zn75 2.024 1_665 S
O96 C76 1.249 . S
C97 O93 1.251 . S
C97 O94 1.254 . S
H98 C71 0.949 1_655 S
H99 C73 0.950 . S
H100 C80 0.949 . S
H101 C82 0.950 . S
C102 C103 1.387 1_456 S
C102 H106 0.949 . S
C102 C111 1.390 . S
C103 C102 1.387 1_654 S
C103 C105 1.387 1_655 S
H104 C111 0.950 . S
C105 C103 1.387 1_455 S
C105 C107 1.390 . S
C105 H109 0.950 . S
H106 C102 0.949 . S
C107 C105 1.390 . S
C107 C108 1.387 . S
C107 H110 0.950 . S
C108 C107 1.387 . S
C108 C111 1.387 1_554 S
H109 C105 0.950 . S
H110 C107 0.950 . S
C111 C102 1.390 . S
C111 H104 0.950 . S
C111 C108 1.387 1_556 S
C112 C113 1.387 . S
C112 H116 0.950 . S
C112 C121 1.390 1_545 S
C113 C112 1.387 . S
C113 C115 1.387 . S
H114 C121 0.950 . S
C115 C113 1.387 . S
C115 C117 1.390 1_545 S
C115 H119 0.950 . S
H116 C112 0.950 . S
C117 C115 1.390 1_565 S
C117 C118 1.387 . S
C117 H120 0.950 . S
C118 C117 1.387 . S
C118 C121 1.387 . S
H119 C115 0.950 . S
H120 C117 0.950 . S
C121 C112 1.390 1_565 S
C121 H114 0.950 . S
C121 C118 1.387 . S
C122 C123 1.387 . S
C122 H126 0.950 . S
C122 C131 1.390 . S
C123 C122 1.387 . S
C123 C125 1.387 . S
H124 C131 0.950 . S
C125 C123 1.387 . S
C125 C127 1.390 . S
C125 H129 0.950 . S
H126 C122 0.950 . S
C127 C125 1.390 . S
C127 C128 1.387 . S
C127 H130 0.950 . S
C128 C127 1.387 . S
C128 C131 1.387 . S
H129 C125 0.950 . S
H130 C127 0.950 . S
C131 C122 1.390 . S
C131 H124 0.950 . S
C131 C128 1.387 . S
C132 C133 1.387 . S
C132 H136 0.950 . S
C132 C141 1.390 . S
C133 C132 1.387 . S
C133 C135 1.387 . S
H134 C141 0.950 1_565 S
C135 C133 1.387 . S
C135 C137 1.390 1_545 S
C135 H139 0.950 . S
H136 C132 0.950 . S
C137 C135 1.390 1_565 S
C137 C138 1.387 . S
C137 H140 0.950 . S
C138 C137 1.387 . S
C138 C141 1.387 1_565 S
H139 C135 0.950 . S
H140 C137 0.950 . S
C141 C132 1.390 . S
C141 H134 0.950 1_545 S
C141 C138 1.387 1_545 S
C142 C143 1.387 . S
C142 H146 0.950 . S
C142 C151 1.390 . S
C143 C142 1.387 . S
C143 C145 1.387 1_554 S
H144 C151 0.950 . S
C145 C143 1.387 1_556 S
C145 C147 1.390 . S
C145 H149 0.950 . S
H146 C142 0.950 . S
C147 C145 1.390 . S
C147 C148 1.387 1_556 S
C147 H150 0.950 . S
C148 C147 1.387 1_554 S
C148 C151 1.387 . S
H149 C145 0.950 . S
H150 C147 0.950 . S
C151 C142 1.390 . S
C151 H144 0.950 . S
C151 C148 1.387 . S
C152 C153 1.387 . S
C152 H156 0.950 . S
C152 C161 1.390 1_455 S
C153 C152 1.387 . S
C153 C155 1.387 . S
H154 C161 0.950 . S
C155 C153 1.387 . S
C155 C157 1.390 1_455 S
C155 H159 0.950 . S
H156 C152 0.950 . S
C157 C155 1.390 1_655 S
C157 C158 1.387 . S
C157 H160 0.950 . S
C158 C157 1.387 . S
C158 C161 1.387 . S
H159 C155 0.950 . S
H160 C157 0.950 . S
C161 C152 1.390 1_655 S
C161 H154 0.950 . S
C161 C158 1.387 . S
C162 C163 1.387 . S
C162 H166 0.950 . S
C162 C171 1.390 . S
C163 C162 1.387 . S
C163 C165 1.387 1_445 S
H164 C171 0.950 . S
C165 C163 1.387 1_665 S
C165 C167 1.390 1_655 S
C165 H169 0.950 . S
H166 C162 0.950 . S
C167 C165 1.390 1_455 S
C167 C168 1.387 1_565 S
C167 H170 0.950 1_455 S
C168 C167 1.387 1_545 S
C168 C171 1.387 . S
H169 C165 0.950 . S
H170 C167 0.950 1_655 S
C171 C162 1.390 . S
C171 H164 0.950 . S
C171 C168 1.387 . S
C172 C173 1.387 1_655 S
C172 H176 0.950 . S
C172 C181 1.390 . S
C173 C172 1.387 1_455 S
C173 C175 1.388 1_565 S
H174 C181 0.950 . S
C175 C173 1.388 1_545 S
C175 C177 1.390 . S
C175 H179 0.950 . S
H176 C172 0.950 . S
C177 C175 1.390 . S
C177 C178 1.382 1_545 S
C177 H180 0.950 . S
C178 C177 1.382 1_565 S
C178 C181 1.393 1_455 S
H179 C175 0.950 . S
H180 C177 0.950 . S
C181 C172 1.390 . S
C181 H174 0.950 . S
C181 C178 1.393 1_655 S
C182 C183 1.387 1_665 S
C182 H186 0.950 . S
C182 C191 1.390 . S
C183 C182 1.387 1_445 S
C183 C185 1.387 . S
H184 C191 0.950 . S
C185 C183 1.387 . S
C185 C187 1.390 . S
C185 H189 0.950 . S
H186 C182 0.950 . S
C187 C185 1.390 . S
C187 C188 1.387 . S
C187 H190 0.950 . S
C188 C187 1.387 . S
C188 C191 1.387 1_445 S
H189 C185 0.950 . S
H190 C187 0.950 . S
C191 C182 1.390 . S
C191 H184 0.950 . S
C191 C188 1.387 1_665 S
C103 C17 1.341 . S
C108 C8 1.341 . S
C113 C34 1.326 . S
C118 C63 1.326 . S
C123 C76 1.351 . S
C128 C85 1.351 . S
C133 C68 1.323 . S
C138 C97 1.323 . S
C143 C0 1.316 . S
C148 C29 1.316 . S
C153 C51 1.343 . S
C158 C42 1.343 . S
C163 C38 1.504 1_455 S
C168 C4 1.505 . S
C173 C47 1.500 . S
C178 C81 1.501 1_565 S
C183 C72 1.502 . S
C188 C13 1.499 . S
