# Generated by pormake.
# Topology wji, (4)-cn, num edge types: 1
# Building blocks:
#     Node 0, Type 0, BuildingBlock: QUQFOY_clean_sbu_3, # of connection points: 4
#     Node 1, Type 0, BuildingBlock: QUQFOY_clean_sbu_3, # of connection points: 4
#     Node 2, Type 0, BuildingBlock: QUQFOY_clean_sbu_3, # of connection points: 4
#     Node 3, Type 0, BuildingBlock: QUQFOY_clean_sbu_3, # of connection points: 4
#     Node 4, Type 0, BuildingBlock: QUQFOY_clean_sbu_3, # of connection points: 4
#     Node 5, Type 0, BuildingBlock: QUQFOY_clean_sbu_3, # of connection points: 4
#     Node 6, Type 0, BuildingBlock: QUQFOY_clean_sbu_3, # of connection points: 4
#     Node 7, Type 0, BuildingBlock: QUQFOY_clean_sbu_3, # of connection points: 4
#     Node 8, Type 0, BuildingBlock: QUQFOY_clean_sbu_3, # of connection points: 4
#     Node 9, Type 0, BuildingBlock: QUQFOY_clean_sbu_3, # of connection points: 4
#     Node 10, Type 0, BuildingBlock: QUQFOY_clean_sbu_3, # of connection points: 4
#     Node 11, Type 0, BuildingBlock: QUQFOY_clean_sbu_3, # of connection points: 4
#     Edge 12, Type (0, 0), None
#     Edge 13, Type (0, 0), None
#     Edge 14, Type (0, 0), None
#     Edge 15, Type (0, 0), None
#     Edge 16, Type (0, 0), None
#     Edge 17, Type (0, 0), None
#     Edge 18, Type (0, 0), None
#     Edge 19, Type (0, 0), None
#     Edge 20, Type (0, 0), None
#     Edge 21, Type (0, 0), None
#     Edge 22, Type (0, 0), None
#     Edge 23, Type (0, 0), None
#     Edge 24, Type (0, 0), None
#     Edge 25, Type (0, 0), None
#     Edge 26, Type (0, 0), None
#     Edge 27, Type (0, 0), None
#     Edge 28, Type (0, 0), None
#     Edge 29, Type (0, 0), None
#     Edge 30, Type (0, 0), None
#     Edge 31, Type (0, 0), None
#     Edge 32, Type (0, 0), None
#     Edge 33, Type (0, 0), None
#     Edge 34, Type (0, 0), None
#     Edge 35, Type (0, 0), None
# Relax obj value: 0.202
# Max RMSD: 0.138
# Mean RMSD: 0.138
data_MOF--net-wji--node1-QUQFOY_clean_sbu_3--edge1-none
_symmetry_space_group_name_H-M    P1
_symmetry_Int_Tables_number       1
_symmetry_cell_setting            triclinic
loop_
_symmetry_equiv_pos_as_xyz
'x, y, z'
_cell_length_a     29.327054
_cell_length_b     29.320534
_cell_length_c     11.060922
_cell_angle_alpha  89.960272
_cell_angle_beta   90.094163
_cell_angle_gamma 119.93274
loop_
_atom_site_label
_atom_site_type_symbol
_atom_site_fract_x
_atom_site_fract_y
_atom_site_fract_z
_atom_type_partial_charge
C0 C 0.47043 0.38117 0.39488 0.0
O1 O 0.43167 0.38684 0.41794 0.0
Cd2 Cd 0.35804 0.39404 0.46077 0.0
O3 O 0.462 0.33476 0.37981 0.0
Cd4 Cd 0.36144 0.27699 0.4217 0.0
C5 C 0.31148 0.32337 0.19742 0.0
O6 O 0.34675 0.323 0.57418 0.0
O7 O 0.27449 0.25269 0.53487 0.0
O8 O 0.39471 0.24091 0.55882 0.0
C9 C 0.29893 0.29402 0.5984 0.0
O10 O 0.30968 0.35561 0.27227 0.0
C11 C 0.36644 0.19457 0.51917 0.0
O12 O 0.33226 0.29528 0.22534 0.0
O13 O 0.33835 0.18671 0.42474 0.0
C14 C 0.04969 0.48982 0.5613 0.0
O15 O 0.00578 0.45044 0.58434 0.0
Cd16 Cd 0.92435 0.37774 0.62699 0.0
O17 O 0.08799 0.48203 0.54631 0.0
Cd18 Cd 0.0448 0.38103 0.5882 0.0
C19 C -0.05149 0.33126 0.36342 0.0
O20 O -0.01597 0.36641 0.74108 0.0
O21 O -0.01791 0.29411 0.70204 0.0
O22 O 0.11416 0.41424 0.72537 0.0
C23 C -0.03479 0.31859 0.76555 0.0
O24 O 0.91456 0.32938 0.4386 0.0
C25 C 0.13227 0.38597 0.68583 0.0
O26 O -0.00263 0.35202 0.39109 0.0
O27 O 0.11202 0.35786 0.59151 0.0
C28 C 0.51981 0.06904 0.72754 0.0
O29 O 0.51369 0.0244 0.75075 0.0
Cd30 Cd 0.50731 0.94388 0.79394 0.0
O31 O 0.56631 0.1068 0.71282 0.0
Cd32 Cd 0.6243 0.06435 0.75481 0.0
C33 C 0.57788 -0.03196 0.53074 0.0
O34 O 0.57825 0.0037 0.9073 0.0
O35 O 0.64858 0.00167 0.86841 0.0
O36 O 0.66034 0.13368 0.89186 0.0
C37 C 0.60725 -0.01518 0.93179 0.0
O38 O 0.54568 0.93403 0.6056 0.0
C39 C 0.70668 0.15176 0.8524 0.0
O40 O 0.60594 0.01686 0.55857 0.0
O41 O 0.71455 0.13158 0.75804 0.0
C42 C 0.41232 0.53865 0.89493 0.0
O43 O 0.4509 0.53241 0.91767 0.0
Cd44 Cd 0.52628 0.52718 0.96026 0.0
O45 O 0.42094 0.58517 0.88122 0.0
Cd46 Cd 0.5209 0.64398 0.92149 0.0
C47 C 0.57081 0.59772 0.69675 0.0
O48 O 0.5355 0.5976 0.07263 0.0
O49 O 0.60753 0.66854 0.03618 0.0
O50 O 0.48719 0.67979 0.05845 0.0
C51 C 0.58311 0.62683 0.0984 0.0
O52 O 0.5735 0.5659 0.77151 0.0
C53 C 0.51529 0.72618 0.019 0.0
O54 O 0.5497 0.62544 0.72504 0.0
O55 O 0.54338 0.73415 0.92472 0.0
C56 C 0.8316 0.43047 0.06179 0.0
O57 O 0.87647 0.46864 0.0847 0.0
Cd58 Cd -0.04293 0.54306 0.12744 0.0
O59 O 0.79422 0.43983 0.047 0.0
Cd60 Cd 0.83691 0.54015 0.0881 0.0
C61 C 0.93324 0.58977 0.86411 0.0
O62 O 0.89758 0.55457 0.24064 0.0
O63 O 0.8995 0.62691 0.20162 0.0
O64 O 0.76769 0.50667 0.2253 0.0
C65 C 0.91645 0.60241 0.265 0.0
O66 O -0.03276 0.59154 0.93919 0.0
C67 C 0.74943 0.53485 0.18574 0.0
O68 O 0.88442 0.56908 0.89177 0.0
O69 O 0.76954 0.563 0.09147 0.0
C70 C 0.36152 0.85161 0.22773 0.0
O71 O 0.36578 0.89543 0.25098 0.0
Cd72 Cd 0.37479 -0.02301 0.29397 0.0
O73 O 0.31553 0.81322 0.21279 0.0
Cd74 Cd 0.25747 0.85629 0.25479 0.0
C75 C 0.30385 0.95277 0.03069 0.0
O76 O 0.30362 0.9172 0.40729 0.0
O77 O 0.23315 0.91902 0.36808 0.0
O78 O 0.22141 0.78703 0.39207 0.0
C79 C 0.27454 0.93599 0.43157 0.0
O80 O 0.33607 -0.01319 0.10563 0.0
C81 C 0.17504 0.76893 0.35246 0.0
O82 O 0.27581 0.90394 0.0585 0.0
O83 O 0.16711 0.78912 0.25803 0.0
C84 C 0.51932 0.43062 0.37277 0.0
O85 O 0.51272 0.46884 0.34927 0.0
Cd86 Cd 0.50763 0.54363 0.30548 0.0
O87 O 0.56598 0.43976 0.38736 0.0
Cd88 Cd 0.62447 0.54002 0.34542 0.0
C89 C 0.57814 0.59009 0.56872 0.0
O90 O 0.57859 0.55463 0.19304 0.0
O91 O 0.64886 0.62698 0.23244 0.0
O92 O 0.66034 0.50659 0.2084 0.0
C93 C 0.60752 0.60248 0.1689 0.0
O94 O 0.54584 0.59192 0.49394 0.0
C95 C 0.70671 0.53481 0.24796 0.0
O96 O 0.60616 0.56928 0.54089 0.0
O97 O 0.71466 0.56287 0.34238 0.0
C98 C 0.04893 0.5388 0.54003 0.0
O99 O 0.00426 0.53247 0.51653 0.0
Cd100 Cd 0.92432 0.52703 0.47278 0.0
O101 O 0.08662 0.58542 0.55388 0.0
Cd102 Cd 0.04478 0.6439 0.51224 0.0
C103 C -0.05151 0.59746 0.73617 0.0
O104 O -0.01579 0.59784 0.35957 0.0
O105 O -0.01786 0.66817 0.39869 0.0
O106 O 0.11415 0.67982 0.37524 0.0
C107 C -0.03469 0.62683 0.3352 0.0
O108 O 0.91445 0.56536 0.6611 0.0
C109 C 0.13231 0.72621 0.41466 0.0
O110 O -0.00269 0.62546 0.70856 0.0
O111 O 0.11216 0.73417 0.50894 0.0
C112 C 0.47057 0.06898 0.70626 0.0
O113 O 0.4322 0.02428 0.68305 0.0
Cd114 Cd 0.35789 0.94387 0.63977 0.0
O115 O 0.46176 0.10678 0.72041 0.0
Cd116 Cd 0.36139 0.06431 0.67871 0.0
C117 C 0.31142 -0.03201 0.90268 0.0
O118 O 0.34677 0.00369 0.5261 0.0
O119 O 0.27445 0.0017 0.5652 0.0
O120 O 0.39469 0.13365 0.54173 0.0
C121 C 0.29893 -0.01516 0.50172 0.0
O122 O 0.30954 0.93392 0.82778 0.0
C123 C 0.36645 0.15179 0.58126 0.0
O124 O 0.33228 0.01683 0.87494 0.0
O125 O 0.33839 0.1316 0.67554 0.0
C126 C 0.36269 0.48972 0.87386 0.0
O127 O 0.36785 0.45073 0.85014 0.0
Cd128 Cd 0.37447 0.37711 0.8062 0.0
O129 O 0.31641 0.4818 0.88767 0.0
Cd130 Cd 0.25773 0.38117 0.84527 0.0
C131 C 0.30382 0.33093 0.06939 0.0
O132 O 0.30353 0.36632 0.69264 0.0
O133 O 0.23327 0.29407 0.73208 0.0
O134 O 0.22142 0.41433 0.70835 0.0
C135 C 0.27452 0.31848 0.66842 0.0
O136 O 0.33597 0.32899 -0.00542 0.0
C137 C 0.17511 0.38603 0.7479 0.0
O138 O 0.27584 0.35183 0.04152 0.0
O139 O 0.16737 0.35802 0.84235 0.0
C140 C 0.83051 0.38061 0.04025 0.0
O141 O 0.87427 0.38508 0.01637 0.0
Cd142 Cd -0.0446 0.39476 -0.0275 0.0
O143 O 0.79237 0.3345 0.05573 0.0
Cd144 Cd 0.83646 0.27717 0.01215 0.0
C145 C 0.93299 0.32371 0.23546 0.0
O146 O 0.89705 0.323 0.8584 0.0
O147 O 0.89969 0.25314 0.89994 0.0
O148 O 0.76733 0.24088 0.87485 0.0
C149 C 0.9163 0.29418 0.83543 0.0
O150 O -0.03349 0.35639 0.16045 0.0
C151 C 0.7494 0.19455 0.91447 0.0
O152 O 0.88415 0.29524 0.2082 0.0
O153 O 0.76968 0.18674 0.00893 0.0
C154 C 0.41128 0.85237 0.20671 0.0
O155 O 0.44962 0.89696 0.18313 0.0
Cd156 Cd 0.52391 -0.02308 0.13924 0.0
O157 O 0.42017 0.81459 0.22028 0.0
Cd158 Cd 0.52045 0.8565 0.17862 0.0
C159 C 0.57034 0.95279 0.40276 0.0
O160 O 0.53499 0.9171 0.02595 0.0
O161 O 0.60732 0.91906 0.06552 0.0
O162 O 0.48698 0.78706 0.04159 0.0
C163 C 0.58284 0.93595 0.00187 0.0
O164 O 0.57226 -0.01314 0.32769 0.0
C165 C 0.51522 0.76889 0.08124 0.0
O166 O 0.54951 0.90395 0.37503 0.0
O167 O 0.54337 0.7891 0.17557 0.0
loop_
_geom_bond_atom_site_label_1
_geom_bond_atom_site_label_2
_geom_bond_distance
_geom_bond_site_symmetry_2
_ccdc_geom_bond_type
C0 O1 1.306 . S
C0 O3 1.160 . S
O1 C0 1.306 . S
O1 Cd2 2.228 . S
Cd2 O1 2.228 . S
Cd2 O6 2.273 . S
Cd2 O10 2.277 . S
O3 C0 1.160 . S
O3 Cd4 2.203 . S
Cd4 O3 2.203 . S
Cd4 O6 2.411 . S
Cd4 O7 2.333 . S
Cd4 O8 2.352 . S
Cd4 O12 2.277 . S
Cd4 O13 2.356 . S
C5 O10 1.209 . S
C5 O12 1.226 . S
O6 Cd2 2.273 . S
O6 Cd4 2.411 . S
O6 C9 1.320 . S
O7 Cd4 2.333 . S
O7 C9 1.214 . S
O8 Cd4 2.352 . S
O8 C11 1.258 . S
C9 O6 1.320 . S
C9 O7 1.214 . S
O10 Cd2 2.277 . S
O10 C5 1.209 . S
C11 O8 1.258 . S
C11 O13 1.282 . S
O12 Cd4 2.277 . S
O12 C5 1.226 . S
O13 Cd4 2.356 . S
O13 C11 1.282 . S
C14 O15 1.306 . S
C14 O17 1.160 . S
O15 C14 1.306 . S
O15 Cd16 2.228 1_455 S
Cd16 O15 2.228 1_655 S
Cd16 O20 2.273 1_655 S
Cd16 O24 2.277 1_655 S
O17 C14 1.160 . S
O17 Cd18 2.203 . S
Cd18 O17 2.203 . S
Cd18 O20 2.411 . S
Cd18 O21 2.333 . S
Cd18 O22 2.352 . S
Cd18 O26 2.277 . S
Cd18 O27 2.356 . S
C19 O24 1.209 . S
C19 O26 1.226 . S
O20 Cd16 2.273 1_455 S
O20 Cd18 2.411 . S
O20 C23 1.320 . S
O21 Cd18 2.333 . S
O21 C23 1.214 . S
O22 Cd18 2.352 . S
O22 C25 1.258 . S
C23 O20 1.320 . S
C23 O21 1.214 . S
O24 Cd16 2.277 1_455 S
O24 C19 1.209 . S
C25 O22 1.258 . S
C25 O27 1.282 . S
O26 Cd18 2.277 . S
O26 C19 1.226 . S
O27 Cd18 2.356 . S
O27 C25 1.282 . S
C28 O29 1.306 . S
C28 O31 1.160 . S
O29 C28 1.306 . S
O29 Cd30 2.228 1_545 S
Cd30 O29 2.228 1_565 S
Cd30 O34 2.273 1_565 S
Cd30 O38 2.277 1_565 S
O31 C28 1.160 . S
O31 Cd32 2.203 . S
Cd32 O31 2.203 . S
Cd32 O34 2.411 . S
Cd32 O35 2.333 . S
Cd32 O36 2.352 . S
Cd32 O40 2.277 . S
Cd32 O41 2.356 . S
C33 O38 1.209 . S
C33 O40 1.226 . S
O34 Cd30 2.273 1_545 S
O34 Cd32 2.411 . S
O34 C37 1.320 . S
O35 Cd32 2.333 . S
O35 C37 1.214 . S
O36 Cd32 2.352 . S
O36 C39 1.258 . S
C37 O34 1.320 . S
C37 O35 1.214 . S
O38 Cd30 2.277 1_545 S
O38 C33 1.209 . S
C39 O36 1.258 . S
C39 O41 1.282 . S
O40 Cd32 2.277 . S
O40 C33 1.226 . S
O41 Cd32 2.356 . S
O41 C39 1.282 . S
C42 O43 1.306 . S
C42 O45 1.160 . S
O43 C42 1.306 . S
O43 Cd44 2.228 . S
Cd44 O43 2.228 . S
Cd44 O48 2.273 1_556 S
Cd44 O52 2.277 . S
O45 C42 1.160 . S
O45 Cd46 2.203 . S
Cd46 O45 2.203 . S
Cd46 O48 2.411 1_556 S
Cd46 O49 2.333 1_556 S
Cd46 O50 2.352 1_556 S
Cd46 O54 2.277 . S
Cd46 O55 2.356 . S
C47 O52 1.209 . S
C47 O54 1.226 . S
O48 Cd44 2.273 1_554 S
O48 Cd46 2.411 1_554 S
O48 C51 1.320 . S
O49 Cd46 2.333 1_554 S
O49 C51 1.214 . S
O50 Cd46 2.352 1_554 S
O50 C53 1.258 . S
C51 O48 1.320 . S
C51 O49 1.214 . S
O52 Cd44 2.277 . S
O52 C47 1.209 . S
C53 O50 1.258 . S
C53 O55 1.282 1_554 S
O54 Cd46 2.277 . S
O54 C47 1.226 . S
O55 Cd46 2.356 . S
O55 C53 1.282 1_556 S
C56 O57 1.306 . S
C56 O59 1.160 . S
O57 C56 1.306 . S
O57 Cd58 2.228 1_655 S
Cd58 O57 2.228 1_455 S
Cd58 O62 2.273 1_455 S
Cd58 O66 2.277 1_454 S
O59 C56 1.160 . S
O59 Cd60 2.203 . S
Cd60 O59 2.203 . S
Cd60 O62 2.411 . S
Cd60 O63 2.333 . S
Cd60 O64 2.352 . S
Cd60 O68 2.277 1_554 S
Cd60 O69 2.356 . S
C61 O66 1.209 . S
C61 O68 1.226 . S
O62 Cd58 2.273 1_655 S
O62 Cd60 2.411 . S
O62 C65 1.320 . S
O63 Cd60 2.333 . S
O63 C65 1.214 . S
O64 Cd60 2.352 . S
O64 C67 1.258 . S
C65 O62 1.320 . S
C65 O63 1.214 . S
O66 Cd58 2.277 1_656 S
O66 C61 1.209 . S
C67 O64 1.258 . S
C67 O69 1.282 . S
O68 Cd60 2.277 1_556 S
O68 C61 1.226 . S
O69 Cd60 2.356 . S
O69 C67 1.282 . S
C70 O71 1.306 . S
C70 O73 1.160 . S
O71 C70 1.306 . S
O71 Cd72 2.228 1_565 S
Cd72 O71 2.228 1_545 S
Cd72 O76 2.273 1_545 S
Cd72 O80 2.277 1_545 S
O73 C70 1.160 . S
O73 Cd74 2.203 . S
Cd74 O73 2.203 . S
Cd74 O76 2.411 . S
Cd74 O77 2.333 . S
Cd74 O78 2.352 . S
Cd74 O82 2.277 . S
Cd74 O83 2.356 . S
C75 O80 1.209 . S
C75 O82 1.226 . S
O76 Cd72 2.273 1_565 S
O76 Cd74 2.411 . S
O76 C79 1.320 . S
O77 Cd74 2.333 . S
O77 C79 1.214 . S
O78 Cd74 2.352 . S
O78 C81 1.258 . S
C79 O76 1.320 . S
C79 O77 1.214 . S
O80 Cd72 2.277 1_565 S
O80 C75 1.209 . S
C81 O78 1.258 . S
C81 O83 1.282 . S
O82 Cd74 2.277 . S
O82 C75 1.226 . S
O83 Cd74 2.356 . S
O83 C81 1.282 . S
C84 O85 1.306 . S
C84 O87 1.160 . S
O85 C84 1.306 . S
O85 Cd86 2.228 . S
Cd86 O85 2.228 . S
Cd86 O90 2.273 . S
Cd86 O94 2.277 . S
O87 C84 1.160 . S
O87 Cd88 2.203 . S
Cd88 O87 2.203 . S
Cd88 O90 2.411 . S
Cd88 O91 2.333 . S
Cd88 O92 2.352 . S
Cd88 O96 2.277 . S
Cd88 O97 2.356 . S
C89 O94 1.209 . S
C89 O96 1.226 . S
O90 Cd86 2.273 . S
O90 Cd88 2.411 . S
O90 C93 1.320 . S
O91 Cd88 2.333 . S
O91 C93 1.214 . S
O92 Cd88 2.352 . S
O92 C95 1.258 . S
C93 O90 1.320 . S
C93 O91 1.214 . S
O94 Cd86 2.277 . S
O94 C89 1.209 . S
C95 O92 1.258 . S
C95 O97 1.282 . S
O96 Cd88 2.277 . S
O96 C89 1.226 . S
O97 Cd88 2.356 . S
O97 C95 1.282 . S
C98 O99 1.306 . S
C98 O101 1.160 . S
O99 C98 1.306 . S
O99 Cd100 2.228 1_455 S
Cd100 O99 2.228 1_655 S
Cd100 O104 2.273 1_655 S
Cd100 O108 2.277 1_655 S
O101 C98 1.160 . S
O101 Cd102 2.203 . S
Cd102 O101 2.203 . S
Cd102 O104 2.411 . S
Cd102 O105 2.333 . S
Cd102 O106 2.352 . S
Cd102 O110 2.277 . S
Cd102 O111 2.356 . S
C103 O108 1.209 . S
C103 O110 1.226 . S
O104 Cd100 2.273 1_455 S
O104 Cd102 2.411 . S
O104 C107 1.320 . S
O105 Cd102 2.333 . S
O105 C107 1.214 . S
O106 Cd102 2.352 . S
O106 C109 1.258 . S
C107 O104 1.320 . S
C107 O105 1.214 . S
O108 Cd100 2.277 1_455 S
O108 C103 1.209 . S
C109 O106 1.258 . S
C109 O111 1.282 . S
O110 Cd102 2.277 . S
O110 C103 1.226 . S
O111 Cd102 2.356 . S
O111 C109 1.282 . S
C112 O113 1.306 . S
C112 O115 1.160 . S
O113 C112 1.306 . S
O113 Cd114 2.228 1_545 S
Cd114 O113 2.228 1_565 S
Cd114 O118 2.273 1_565 S
Cd114 O122 2.277 1_565 S
O115 C112 1.160 . S
O115 Cd116 2.203 . S
Cd116 O115 2.203 . S
Cd116 O118 2.411 . S
Cd116 O119 2.333 . S
Cd116 O120 2.352 . S
Cd116 O124 2.277 . S
Cd116 O125 2.356 . S
C117 O122 1.209 . S
C117 O124 1.226 . S
O118 Cd114 2.273 1_545 S
O118 Cd116 2.411 . S
O118 C121 1.320 . S
O119 Cd116 2.333 . S
O119 C121 1.214 . S
O120 Cd116 2.352 . S
O120 C123 1.258 . S
C121 O118 1.320 . S
C121 O119 1.214 . S
O122 Cd114 2.277 1_545 S
O122 C117 1.209 . S
C123 O120 1.258 . S
C123 O125 1.282 . S
O124 Cd116 2.277 . S
O124 C117 1.226 . S
O125 Cd116 2.356 . S
O125 C123 1.282 . S
C126 O127 1.306 . S
C126 O129 1.160 . S
O127 C126 1.306 . S
O127 Cd128 2.228 . S
Cd128 O127 2.228 . S
Cd128 O132 2.273 . S
Cd128 O136 2.277 1_556 S
O129 C126 1.160 . S
O129 Cd130 2.203 . S
Cd130 O129 2.203 . S
Cd130 O132 2.411 . S
Cd130 O133 2.333 . S
Cd130 O134 2.352 . S
Cd130 O138 2.277 1_556 S
Cd130 O139 2.356 . S
C131 O136 1.209 . S
C131 O138 1.226 . S
O132 Cd128 2.273 . S
O132 Cd130 2.411 . S
O132 C135 1.320 . S
O133 Cd130 2.333 . S
O133 C135 1.214 . S
O134 Cd130 2.352 . S
O134 C137 1.258 . S
C135 O132 1.320 . S
C135 O133 1.214 . S
O136 Cd128 2.277 1_554 S
O136 C131 1.209 . S
C137 O134 1.258 . S
C137 O139 1.282 . S
O138 Cd130 2.277 1_554 S
O138 C131 1.226 . S
O139 Cd130 2.356 . S
O139 C137 1.282 . S
C140 O141 1.306 . S
C140 O143 1.160 . S
O141 C140 1.306 . S
O141 Cd142 2.228 1_655 S
Cd142 O141 2.228 1_455 S
Cd142 O146 2.273 1_454 S
Cd142 O150 2.277 1_455 S
O143 C140 1.160 . S
O143 Cd144 2.203 . S
Cd144 O143 2.203 . S
Cd144 O146 2.411 1_554 S
Cd144 O147 2.333 1_554 S
Cd144 O148 2.352 1_554 S
Cd144 O152 2.277 . S
Cd144 O153 2.356 . S
C145 O150 1.209 . S
C145 O152 1.226 . S
O146 Cd142 2.273 1_656 S
O146 Cd144 2.411 1_556 S
O146 C149 1.320 . S
O147 Cd144 2.333 1_556 S
O147 C149 1.214 . S
O148 Cd144 2.352 1_556 S
O148 C151 1.258 . S
C149 O146 1.320 . S
C149 O147 1.214 . S
O150 Cd142 2.277 1_655 S
O150 C145 1.209 . S
C151 O148 1.258 . S
C151 O153 1.282 1_556 S
O152 Cd144 2.277 . S
O152 C145 1.226 . S
O153 Cd144 2.356 . S
O153 C151 1.282 1_554 S
C154 O155 1.306 . S
C154 O157 1.160 . S
O155 C154 1.306 . S
O155 Cd156 2.228 1_565 S
Cd156 O155 2.228 1_545 S
Cd156 O160 2.273 1_545 S
Cd156 O164 2.277 1_545 S
O157 C154 1.160 . S
O157 Cd158 2.203 . S
Cd158 O157 2.203 . S
Cd158 O160 2.411 . S
Cd158 O161 2.333 . S
Cd158 O162 2.352 . S
Cd158 O166 2.277 . S
Cd158 O167 2.356 . S
C159 O164 1.209 . S
C159 O166 1.226 . S
O160 Cd156 2.273 1_565 S
O160 Cd158 2.411 . S
O160 C163 1.320 . S
O161 Cd158 2.333 . S
O161 C163 1.214 . S
O162 Cd158 2.352 . S
O162 C165 1.258 . S
C163 O160 1.320 . S
C163 O161 1.214 . S
O164 Cd156 2.277 1_565 S
O164 C159 1.209 . S
C165 O162 1.258 . S
C165 O167 1.282 . S
O166 Cd158 2.277 . S
O166 C159 1.226 . S
O167 Cd158 2.356 . S
O167 C165 1.282 . S
C131 C5 1.584 . S
C19 C145 1.584 1_455 S
C159 C33 1.584 1_565 S
C89 C47 1.584 . S
C103 C61 1.584 1_455 S
C117 C75 1.584 1_546 S
C84 C0 1.767 . S
C14 C98 1.768 . S
C112 C28 1.768 . S
C42 C126 1.767 . S
C140 C56 1.768 . S
C70 C154 1.767 . S
C135 C9 1.552 . S
C149 C23 1.552 1_655 S
C163 C37 1.552 1_564 S
C51 C93 1.552 . S
C107 C65 1.552 1_455 S
C79 C121 1.552 1_565 S
C11 C123 1.427 . S
C137 C25 1.427 . S
C151 C39 1.428 . S
C165 C53 1.427 . S
C95 C67 1.427 . S
C109 C81 1.427 . S
