# Generated by pormake.
# Topology uoq, (4)-cn, num edge types: 1
# Building blocks:
#     Node 0, Type 0, BuildingBlock: CEKHIL_clean_sbu_0, # of connection points: 4
#     Node 1, Type 0, BuildingBlock: CEKHIL_clean_sbu_0, # of connection points: 4
#     Node 2, Type 0, BuildingBlock: CEKHIL_clean_sbu_0, # of connection points: 4
#     Node 3, Type 0, BuildingBlock: CEKHIL_clean_sbu_0, # of connection points: 4
#     Node 4, Type 0, BuildingBlock: CEKHIL_clean_sbu_0, # of connection points: 4
#     Node 5, Type 0, BuildingBlock: CEKHIL_clean_sbu_0, # of connection points: 4
#     Node 6, Type 0, BuildingBlock: CEKHIL_clean_sbu_0, # of connection points: 4
#     Node 7, Type 0, BuildingBlock: CEKHIL_clean_sbu_0, # of connection points: 4
#     Node 8, Type 0, BuildingBlock: CEKHIL_clean_sbu_0, # of connection points: 4
#     Node 9, Type 0, BuildingBlock: CEKHIL_clean_sbu_0, # of connection points: 4
#     Node 10, Type 0, BuildingBlock: CEKHIL_clean_sbu_0, # of connection points: 4
#     Node 11, Type 0, BuildingBlock: CEKHIL_clean_sbu_0, # of connection points: 4
#     Edge 12, Type (0, 0), None
#     Edge 13, Type (0, 0), None
#     Edge 14, Type (0, 0), None
#     Edge 15, Type (0, 0), None
#     Edge 16, Type (0, 0), None
#     Edge 17, Type (0, 0), None
#     Edge 18, Type (0, 0), None
#     Edge 19, Type (0, 0), None
#     Edge 20, Type (0, 0), None
#     Edge 21, Type (0, 0), None
#     Edge 22, Type (0, 0), None
#     Edge 23, Type (0, 0), None
#     Edge 24, Type (0, 0), None
#     Edge 25, Type (0, 0), None
#     Edge 26, Type (0, 0), None
#     Edge 27, Type (0, 0), None
#     Edge 28, Type (0, 0), None
#     Edge 29, Type (0, 0), None
#     Edge 30, Type (0, 0), None
#     Edge 31, Type (0, 0), None
#     Edge 32, Type (0, 0), None
#     Edge 33, Type (0, 0), None
#     Edge 34, Type (0, 0), None
#     Edge 35, Type (0, 0), None
# Relax obj value: 0.162
# Max RMSD: 0.159
# Mean RMSD: 0.159
data_MOF--net-uoq--node1-CEKHIL_clean_sbu_0--edge1-none
_symmetry_space_group_name_H-M    P1
_symmetry_Int_Tables_number       1
_symmetry_cell_setting            triclinic
loop_
_symmetry_equiv_pos_as_xyz
'x, y, z'
_cell_length_a     25.97739
_cell_length_b     25.999053
_cell_length_c     8.6364222
_cell_angle_alpha  89.999506
_cell_angle_beta   90.000987
_cell_angle_gamma 120.08248
loop_
_atom_site_label
_atom_site_type_symbol
_atom_site_fract_x
_atom_site_fract_y
_atom_site_fract_z
_atom_type_partial_charge
Co0 Co 0.30932 0.43013 0.3155 0.0
O1 O 0.22568 0.37841 0.2522 0.0
O2 O 0.29116 0.45678 0.12233 0.0
C3 C 0.33259 0.36072 0.3915 0.0
O4 O 0.3972 0.49456 0.33828 0.0
Co5 Co 0.355 0.43701 0.65792 0.0
O6 O 0.43171 0.5021 0.58245 0.0
C7 C 0.27004 0.47574 0.5722 0.0
C8 C 0.23627 0.41432 0.13611 0.0
C9 C 0.43846 0.5191 0.44216 0.0
O10 O 0.28557 0.48069 0.43039 0.0
O11 O 0.28841 0.4541 0.6772 0.0
O12 O 0.3324 0.3727 0.24475 0.0
O13 O 0.31282 0.38565 0.48342 0.0
Co14 Co 0.88387 0.30692 0.64886 0.0
O15 O 0.85206 0.22338 0.58567 0.0
O16 O 0.839 0.28862 0.45567 0.0
C17 C 0.97672 0.33042 0.72485 0.0
O18 O 0.90724 0.39467 0.67163 0.0
Co19 Co 0.92273 0.35265 0.99128 0.0
O20 O 0.93425 0.4292 0.91579 0.0
C21 C 0.79888 0.26743 0.90554 0.0
C22 C 0.82668 0.23384 0.4695 0.0
C23 C 0.92395 0.43589 0.77551 0.0
O24 O 0.80943 0.28298 0.76374 0.0
O25 O 0.83897 0.2859 1.01051 0.0
O26 O 0.96453 0.3302 0.57809 0.0
O27 O 0.93195 0.31057 0.81679 0.0
Co28 Co 0.58213 0.88145 0.98212 0.0
O29 O 0.63396 0.84979 0.91893 0.0
O30 O 0.55551 0.83657 0.78896 0.0
C31 C 0.65148 0.9743 1.05808 0.0
O32 O 0.51764 0.90468 1.00488 0.0
Co33 Co 0.57523 0.92019 0.32458 0.0
O34 O 0.51037 0.93199 0.24885 0.0
C35 C 0.53658 0.7965 0.23888 0.0
C36 C 0.59805 0.82435 0.8028 0.0
C37 C 0.49328 0.9216 0.10862 0.0
O38 O 0.53158 0.80704 0.09708 0.0
O39 O 0.55821 0.83655 0.34387 0.0
O40 O 0.63955 0.96208 0.91131 0.0
O41 O 0.6266 0.92956 0.15002 0.0
Co42 Co 0.7054 0.57967 0.31549 0.0
O43 O 0.78904 0.63139 0.2522 0.0
O44 O 0.72356 0.55302 0.12233 0.0
C45 C 0.68213 0.64908 0.3915 0.0
O46 O 0.61752 0.51524 0.33827 0.0
Co47 Co 0.65972 0.57279 0.65792 0.0
O48 O 0.58301 0.50769 0.58245 0.0
C49 C 0.74468 0.53405 0.5722 0.0
C50 C 0.77845 0.59548 0.13611 0.0
C51 C 0.57626 0.4907 0.44215 0.0
O52 O 0.72915 0.52911 0.43038 0.0
O53 O 0.72631 0.5557 0.6772 0.0
O54 O 0.68232 0.6371 0.24475 0.0
O55 O 0.70191 0.62415 0.48342 0.0
Co56 Co 0.13084 0.70288 0.64886 0.0
O57 O 0.16266 0.78642 0.58567 0.0
O58 O 0.17571 0.72118 0.45567 0.0
C59 C 0.038 0.67939 0.72485 0.0
O60 O 0.10748 0.61513 0.67163 0.0
Co61 Co 0.09199 0.65715 0.99127 0.0
O62 O 0.08047 0.5806 0.91579 0.0
C63 C 0.21584 0.74237 0.90555 0.0
C64 C 0.18804 0.77596 0.4695 0.0
C65 C 0.09077 0.57391 0.7755 0.0
O66 O 0.20528 0.72682 0.76375 0.0
O67 O 0.17575 0.7239 1.01051 0.0
O68 O 0.05019 0.67961 0.57809 0.0
O69 O 0.08277 0.69923 0.81679 0.0
Co70 Co 0.43259 0.12835 0.98213 0.0
O71 O 0.38076 0.16001 0.91893 0.0
O72 O 0.4592 0.17323 0.78896 0.0
C73 C 0.36323 0.0355 1.05808 0.0
O74 O 0.49707 0.10511 1.00489 0.0
Co75 Co 0.4395 0.08961 0.32459 0.0
O76 O 0.50435 0.07781 0.24885 0.0
C77 C 0.47814 0.2133 0.23888 0.0
C78 C 0.41667 0.18545 0.8028 0.0
C79 C 0.52144 0.0882 0.10862 0.0
O80 O 0.48314 0.20276 0.09708 0.0
O81 O 0.45651 0.17325 0.34387 0.0
O82 O 0.37517 0.04771 0.91131 0.0
O83 O 0.38812 0.08024 0.15002 0.0
Co84 Co 0.5822 0.70307 0.52808 0.0
O85 O 0.634 0.78665 0.59126 0.0
O86 O 0.55556 0.72127 0.72123 0.0
C87 C 0.65158 0.6797 0.45212 0.0
O88 O 0.51772 0.61525 0.50539 0.0
Co89 Co 0.57529 0.65737 0.18565 0.0
O90 O 0.51034 0.58065 0.26139 0.0
C91 C 0.53653 0.74227 0.27127 0.0
C92 C 0.59806 0.77611 0.70733 0.0
C93 C 0.49329 0.57394 0.40165 0.0
O94 O 0.53162 0.72681 0.41313 0.0
O95 O 0.55821 0.72393 0.1663 0.0
O96 O 0.63965 0.67997 0.59889 0.0
O97 O 0.62668 0.69951 0.36018 0.0
Co98 Co 0.88383 0.57947 0.86138 0.0
O99 O 0.85215 0.63127 0.92446 0.0
O100 O 0.83892 0.55291 1.05456 0.0
C101 C 0.97673 0.64879 0.78544 0.0
O102 O 0.90707 0.51503 0.8387 0.0
Co103 Co 0.92265 0.57256 0.51896 0.0
O104 O 0.93432 0.50767 0.59471 0.0
C105 C 0.79885 0.53391 0.60459 0.0
C106 C 0.82669 0.59541 1.04061 0.0
C107 C 0.92394 0.49063 0.73497 0.0
O108 O 0.80936 0.52894 0.74643 0.0
O109 O 0.83895 0.55557 0.49966 0.0
O110 O 0.96452 0.63687 0.93221 0.0
O111 O 0.93196 0.62389 0.69347 0.0
Co112 Co 0.30943 0.88154 0.19468 0.0
O113 O 0.2258 0.84961 0.25785 0.0
O114 O 0.29119 0.83671 0.38786 0.0
C115 C 0.33279 0.97427 0.11868 0.0
O116 O 0.39728 0.90501 0.17198 0.0
Co117 Co 0.35521 0.92044 0.8523 0.0
O118 O 0.43182 0.93192 0.92778 0.0
C119 C 0.27015 0.79663 0.93793 0.0
C120 C 0.23633 0.82427 0.37396 0.0
C121 C 0.43853 0.92168 1.0681 0.0
O122 O 0.28561 0.80719 1.0798 0.0
O123 O 0.28853 0.83669 0.833 0.0
O124 O 0.33259 0.96211 0.26544 0.0
O125 O 0.31301 0.92955 1.02674 0.0
Co126 Co 0.43252 0.30674 0.52808 0.0
O127 O 0.38071 0.22315 0.59126 0.0
O128 O 0.45916 0.28853 0.72123 0.0
C129 C 0.36314 0.3301 0.45212 0.0
O130 O 0.497 0.39455 0.50539 0.0
Co131 Co 0.43943 0.35243 0.18565 0.0
O132 O 0.50438 0.42915 0.26138 0.0
C133 C 0.47818 0.26753 0.27127 0.0
C134 C 0.41666 0.23369 0.70733 0.0
C135 C 0.52143 0.43586 0.40164 0.0
O136 O 0.4831 0.28299 0.41313 0.0
O137 O 0.4565 0.28587 0.1663 0.0
O138 O 0.37507 0.32983 0.59889 0.0
O139 O 0.38804 0.31029 0.36018 0.0
Co140 Co 0.13089 0.43033 0.86138 0.0
O141 O 0.16257 0.37853 0.92446 0.0
O142 O 0.1758 0.45689 1.05455 0.0
C143 C 0.03799 0.36102 0.78544 0.0
O144 O 0.10765 0.49477 0.8387 0.0
Co145 Co 0.09206 0.43724 0.51896 0.0
O146 O 0.08039 0.50213 0.5947 0.0
C147 C 0.21587 0.47589 0.60459 0.0
C148 C 0.18803 0.41439 1.04061 0.0
C149 C 0.09078 0.51917 0.73496 0.0
O150 O 0.20535 0.48086 0.74643 0.0
O151 O 0.17577 0.45423 0.49966 0.0
O152 O 0.0502 0.37293 0.93221 0.0
O153 O 0.08276 0.38591 0.69347 0.0
Co154 Co 0.70529 0.12826 0.19468 0.0
O155 O 0.78892 0.16019 0.25785 0.0
O156 O 0.72353 0.17309 0.38785 0.0
C157 C 0.68193 0.03553 0.11868 0.0
O158 O 0.61744 0.10479 0.17198 0.0
Co159 Co 0.6595 0.08936 0.85229 0.0
O160 O 0.58289 0.07787 0.92777 0.0
C161 C 0.74457 0.21317 0.93793 0.0
C162 C 0.77839 0.18553 0.37396 0.0
C163 C 0.57618 0.08811 1.0681 0.0
O164 O 0.72911 0.20261 1.07979 0.0
O165 O 0.72618 0.17311 0.833 0.0
O166 O 0.68213 0.04769 0.26544 0.0
O167 O 0.70171 0.08025 1.02673 0.0
loop_
_geom_bond_atom_site_label_1
_geom_bond_atom_site_label_2
_geom_bond_distance
_geom_bond_site_symmetry_2
_ccdc_geom_bond_type
Co0 O1 2.216 . S
Co0 O2 2.091 . S
Co0 O4 2.004 . S
Co0 O10 2.021 . S
Co0 O12 2.137 . S
Co0 O13 2.244 . S
O1 Co0 2.216 . S
O1 C8 1.247 . S
O2 Co0 2.091 . S
O2 C8 1.261 . S
C3 O12 1.247 . S
C3 O13 1.272 . S
O4 Co0 2.004 . S
O4 C9 1.259 . S
Co5 O6 2.061 . S
Co5 O11 2.052 . S
Co5 O13 2.135 . S
O6 Co5 2.061 . S
O6 C9 1.235 . S
C7 O10 1.238 . S
C7 O11 1.241 . S
C8 O1 1.247 . S
C8 O2 1.261 . S
C9 O4 1.259 . S
C9 O6 1.235 . S
O10 Co0 2.021 . S
O10 C7 1.238 . S
O11 Co5 2.052 . S
O11 C7 1.241 . S
O12 Co0 2.137 . S
O12 C3 1.247 . S
O13 Co0 2.244 . S
O13 C3 1.272 . S
O13 Co5 2.135 . S
Co14 O15 2.216 . S
Co14 O16 2.091 . S
Co14 O18 2.004 . S
Co14 O24 2.021 . S
Co14 O26 2.137 . S
Co14 O27 2.244 . S
O15 Co14 2.216 . S
O15 C22 1.247 . S
O16 Co14 2.091 . S
O16 C22 1.261 . S
C17 O26 1.247 . S
C17 O27 1.272 . S
O18 Co14 2.004 . S
O18 C23 1.259 . S
Co19 O20 2.061 . S
Co19 O25 2.052 . S
Co19 O27 2.135 . S
O20 Co19 2.061 . S
O20 C23 1.235 . S
C21 O24 1.238 . S
C21 O25 1.241 . S
C22 O15 1.247 . S
C22 O16 1.261 . S
C23 O18 1.259 . S
C23 O20 1.235 . S
O24 Co14 2.021 . S
O24 C21 1.238 . S
O25 Co19 2.052 . S
O25 C21 1.241 . S
O26 Co14 2.137 . S
O26 C17 1.247 . S
O27 Co14 2.244 . S
O27 C17 1.272 . S
O27 Co19 2.135 . S
Co28 O29 2.216 . S
Co28 O30 2.091 . S
Co28 O32 2.004 . S
Co28 O38 2.021 1_556 S
Co28 O40 2.137 . S
Co28 O41 2.244 1_556 S
O29 Co28 2.216 . S
O29 C36 1.247 . S
O30 Co28 2.091 . S
O30 C36 1.261 . S
C31 O40 1.247 . S
C31 O41 1.272 1_556 S
O32 Co28 2.004 . S
O32 C37 1.259 1_556 S
Co33 O34 2.061 . S
Co33 O39 2.052 . S
Co33 O41 2.135 . S
O34 Co33 2.061 . S
O34 C37 1.235 . S
C35 O38 1.238 . S
C35 O39 1.241 . S
C36 O29 1.247 . S
C36 O30 1.261 . S
C37 O32 1.259 1_554 S
C37 O34 1.235 . S
O38 Co28 2.021 1_554 S
O38 C35 1.238 . S
O39 Co33 2.052 . S
O39 C35 1.241 . S
O40 Co28 2.137 . S
O40 C31 1.247 . S
O41 Co28 2.244 1_554 S
O41 C31 1.272 1_554 S
O41 Co33 2.135 . S
Co42 O43 2.216 . S
Co42 O44 2.091 . S
Co42 O46 2.004 . S
Co42 O52 2.021 . S
Co42 O54 2.137 . S
Co42 O55 2.244 . S
O43 Co42 2.216 . S
O43 C50 1.247 . S
O44 Co42 2.091 . S
O44 C50 1.261 . S
C45 O54 1.247 . S
C45 O55 1.272 . S
O46 Co42 2.004 . S
O46 C51 1.259 . S
Co47 O48 2.061 . S
Co47 O53 2.052 . S
Co47 O55 2.135 . S
O48 Co47 2.061 . S
O48 C51 1.235 . S
C49 O52 1.238 . S
C49 O53 1.241 . S
C50 O43 1.247 . S
C50 O44 1.261 . S
C51 O46 1.259 . S
C51 O48 1.235 . S
O52 Co42 2.021 . S
O52 C49 1.238 . S
O53 Co47 2.052 . S
O53 C49 1.241 . S
O54 Co42 2.137 . S
O54 C45 1.247 . S
O55 Co42 2.244 . S
O55 C45 1.272 . S
O55 Co47 2.135 . S
Co56 O57 2.216 . S
Co56 O58 2.091 . S
Co56 O60 2.004 . S
Co56 O66 2.021 . S
Co56 O68 2.137 . S
Co56 O69 2.244 . S
O57 Co56 2.216 . S
O57 C64 1.247 . S
O58 Co56 2.091 . S
O58 C64 1.261 . S
C59 O68 1.247 . S
C59 O69 1.272 . S
O60 Co56 2.004 . S
O60 C65 1.259 . S
Co61 O62 2.061 . S
Co61 O67 2.052 . S
Co61 O69 2.135 . S
O62 Co61 2.061 . S
O62 C65 1.235 . S
C63 O66 1.238 . S
C63 O67 1.241 . S
C64 O57 1.247 . S
C64 O58 1.261 . S
C65 O60 1.259 . S
C65 O62 1.235 . S
O66 Co56 2.021 . S
O66 C63 1.238 . S
O67 Co61 2.052 . S
O67 C63 1.241 . S
O68 Co56 2.137 . S
O68 C59 1.247 . S
O69 Co56 2.244 . S
O69 C59 1.272 . S
O69 Co61 2.135 . S
Co70 O71 2.216 . S
Co70 O72 2.091 . S
Co70 O74 2.004 . S
Co70 O80 2.021 1_556 S
Co70 O82 2.137 . S
Co70 O83 2.244 1_556 S
O71 Co70 2.216 . S
O71 C78 1.247 . S
O72 Co70 2.091 . S
O72 C78 1.261 . S
C73 O82 1.247 . S
C73 O83 1.272 1_556 S
O74 Co70 2.004 . S
O74 C79 1.259 1_556 S
Co75 O76 2.061 . S
Co75 O81 2.052 . S
Co75 O83 2.135 . S
O76 Co75 2.061 . S
O76 C79 1.235 . S
C77 O80 1.238 . S
C77 O81 1.241 . S
C78 O71 1.247 . S
C78 O72 1.261 . S
C79 O74 1.259 1_554 S
C79 O76 1.235 . S
O80 Co70 2.021 1_554 S
O80 C77 1.238 . S
O81 Co75 2.052 . S
O81 C77 1.241 . S
O82 Co70 2.137 . S
O82 C73 1.247 . S
O83 Co70 2.244 1_554 S
O83 C73 1.272 1_554 S
O83 Co75 2.135 . S
Co84 O85 2.216 . S
Co84 O86 2.091 . S
Co84 O88 2.004 . S
Co84 O94 2.021 . S
Co84 O96 2.137 . S
Co84 O97 2.244 . S
O85 Co84 2.216 . S
O85 C92 1.247 . S
O86 Co84 2.091 . S
O86 C92 1.261 . S
C87 O96 1.247 . S
C87 O97 1.272 . S
O88 Co84 2.004 . S
O88 C93 1.259 . S
Co89 O90 2.061 . S
Co89 O95 2.052 . S
Co89 O97 2.135 . S
O90 Co89 2.061 . S
O90 C93 1.235 . S
C91 O94 1.238 . S
C91 O95 1.241 . S
C92 O85 1.247 . S
C92 O86 1.261 . S
C93 O88 1.259 . S
C93 O90 1.235 . S
O94 Co84 2.021 . S
O94 C91 1.238 . S
O95 Co89 2.052 . S
O95 C91 1.241 . S
O96 Co84 2.137 . S
O96 C87 1.247 . S
O97 Co84 2.244 . S
O97 C87 1.272 . S
O97 Co89 2.135 . S
Co98 O99 2.216 . S
Co98 O100 2.091 . S
Co98 O102 2.004 . S
Co98 O108 2.021 . S
Co98 O110 2.137 . S
Co98 O111 2.244 . S
O99 Co98 2.216 . S
O99 C106 1.247 . S
O100 Co98 2.091 . S
O100 C106 1.261 . S
C101 O110 1.247 . S
C101 O111 1.272 . S
O102 Co98 2.004 . S
O102 C107 1.259 . S
Co103 O104 2.061 . S
Co103 O109 2.052 . S
Co103 O111 2.135 . S
O104 Co103 2.061 . S
O104 C107 1.235 . S
C105 O108 1.238 . S
C105 O109 1.241 . S
C106 O99 1.247 . S
C106 O100 1.261 . S
C107 O102 1.259 . S
C107 O104 1.235 . S
O108 Co98 2.021 . S
O108 C105 1.238 . S
O109 Co103 2.052 . S
O109 C105 1.241 . S
O110 Co98 2.137 . S
O110 C101 1.247 . S
O111 Co98 2.244 . S
O111 C101 1.272 . S
O111 Co103 2.135 . S
Co112 O113 2.216 . S
Co112 O114 2.091 . S
Co112 O116 2.004 . S
Co112 O122 2.021 1_554 S
Co112 O124 2.137 . S
Co112 O125 2.244 1_554 S
O113 Co112 2.216 . S
O113 C120 1.247 . S
O114 Co112 2.091 . S
O114 C120 1.261 . S
C115 O124 1.247 . S
C115 O125 1.272 1_554 S
O116 Co112 2.004 . S
O116 C121 1.259 1_554 S
Co117 O118 2.061 . S
Co117 O123 2.052 . S
Co117 O125 2.135 . S
O118 Co117 2.061 . S
O118 C121 1.235 . S
C119 O122 1.238 . S
C119 O123 1.241 . S
C120 O113 1.247 . S
C120 O114 1.261 . S
C121 O116 1.259 1_556 S
C121 O118 1.235 . S
O122 Co112 2.021 1_556 S
O122 C119 1.238 . S
O123 Co117 2.052 . S
O123 C119 1.241 . S
O124 Co112 2.137 . S
O124 C115 1.247 . S
O125 Co112 2.244 1_556 S
O125 C115 1.272 1_556 S
O125 Co117 2.135 . S
Co126 O127 2.216 . S
Co126 O128 2.091 . S
Co126 O130 2.004 . S
Co126 O136 2.021 . S
Co126 O138 2.137 . S
Co126 O139 2.244 . S
O127 Co126 2.216 . S
O127 C134 1.247 . S
O128 Co126 2.091 . S
O128 C134 1.261 . S
C129 O138 1.247 . S
C129 O139 1.272 . S
O130 Co126 2.004 . S
O130 C135 1.259 . S
Co131 O132 2.061 . S
Co131 O137 2.052 . S
Co131 O139 2.135 . S
O132 Co131 2.061 . S
O132 C135 1.235 . S
C133 O136 1.238 . S
C133 O137 1.241 . S
C134 O127 1.247 . S
C134 O128 1.261 . S
C135 O130 1.259 . S
C135 O132 1.235 . S
O136 Co126 2.021 . S
O136 C133 1.238 . S
O137 Co131 2.052 . S
O137 C133 1.241 . S
O138 Co126 2.137 . S
O138 C129 1.247 . S
O139 Co126 2.244 . S
O139 C129 1.272 . S
O139 Co131 2.135 . S
Co140 O141 2.216 . S
Co140 O142 2.091 . S
Co140 O144 2.004 . S
Co140 O150 2.021 . S
Co140 O152 2.137 . S
Co140 O153 2.244 . S
O141 Co140 2.216 . S
O141 C148 1.247 . S
O142 Co140 2.091 . S
O142 C148 1.261 . S
C143 O152 1.247 . S
C143 O153 1.272 . S
O144 Co140 2.004 . S
O144 C149 1.259 . S
Co145 O146 2.061 . S
Co145 O151 2.052 . S
Co145 O153 2.135 . S
O146 Co145 2.061 . S
O146 C149 1.235 . S
C147 O150 1.238 . S
C147 O151 1.241 . S
C148 O141 1.247 . S
C148 O142 1.261 . S
C149 O144 1.259 . S
C149 O146 1.235 . S
O150 Co140 2.021 . S
O150 C147 1.238 . S
O151 Co145 2.052 . S
O151 C147 1.241 . S
O152 Co140 2.137 . S
O152 C143 1.247 . S
O153 Co140 2.244 . S
O153 C143 1.272 . S
O153 Co145 2.135 . S
Co154 O155 2.216 . S
Co154 O156 2.091 . S
Co154 O158 2.004 . S
Co154 O164 2.021 1_554 S
Co154 O166 2.137 . S
Co154 O167 2.244 1_554 S
O155 Co154 2.216 . S
O155 C162 1.247 . S
O156 Co154 2.091 . S
O156 C162 1.261 . S
C157 O166 1.247 . S
C157 O167 1.272 1_554 S
O158 Co154 2.004 . S
O158 C163 1.259 1_554 S
Co159 O160 2.061 . S
Co159 O165 2.052 . S
Co159 O167 2.135 . S
O160 Co159 2.061 . S
O160 C163 1.235 . S
C161 O164 1.238 . S
C161 O165 1.241 . S
C162 O155 1.247 . S
C162 O156 1.261 . S
C163 O158 1.259 1_556 S
C163 O160 1.235 . S
O164 Co154 2.021 1_556 S
O164 C161 1.238 . S
O165 Co159 2.052 . S
O165 C161 1.241 . S
O166 Co154 2.137 . S
O166 C157 1.247 . S
O167 Co154 2.244 1_556 S
O167 C157 1.272 1_556 S
O167 Co159 2.135 . S
C3 C129 1.847 . S
C17 C143 1.847 1_655 S
C31 C157 1.847 1_566 S
C45 C87 1.847 . S
C101 C59 1.847 1_655 S
C115 C73 1.847 1_564 S
C148 C8 1.834 1_556 S
C22 C162 1.834 . S
C36 C92 1.834 . S
C50 C106 1.834 1_554 S
C64 C120 1.834 . S
C78 C134 1.834 . S
C147 C7 1.061 . S
C21 C161 1.061 . S
C35 C91 1.061 . S
C49 C105 1.061 . S
C63 C119 1.061 . S
C77 C133 1.061 . S
C9 C93 1.950 . S
C107 C23 1.950 . S
C37 C121 1.950 1_554 S
C51 C135 1.950 . S
C65 C149 1.950 . S
C163 C79 1.950 1_556 S
