# Generated by pormake.
# Topology hex, (8)-cn, num edge types: 1
# Building blocks:
#     Node 0, Type 0, BuildingBlock: LIZSOE_clean_sbu_0, # of connection points: 8
#     Edge 1, Type (0, 0), None
#     Edge 2, Type (0, 0), None
#     Edge 3, Type (0, 0), None
#     Edge 4, Type (0, 0), None
# Relax obj value: 0.424
# Max RMSD: 0.292
# Mean RMSD: 0.292
data_MOF--net-hex--node1-LIZSOE_clean_sbu_0--edge1-none
_symmetry_space_group_name_H-M    P1
_symmetry_Int_Tables_number       1
_symmetry_cell_setting            triclinic
loop_
_symmetry_equiv_pos_as_xyz
'x, y, z'
_cell_length_a     8.0855118
_cell_length_b     11.913064
_cell_length_c     7.547294
_cell_angle_alpha  103.0085
_cell_angle_beta   80.426106
_cell_angle_gamma 142.4903
loop_
_atom_site_label
_atom_site_type_symbol
_atom_site_fract_x
_atom_site_fract_y
_atom_site_fract_z
_atom_type_partial_charge
Co0 Co 0.27341 0.90684 0.13799 0.0
N1 N 0.12453 0.73554 0.27334 0.0
C2 C 0.88049 0.62243 0.35599 0.0
N3 N 1.04489 0.55635 0.41989 0.0
C4 C 0.22197 0.69474 0.31919 0.0
C5 C 0.82608 0.50622 0.43875 0.0
Co6 Co 0.9324 0.17851 0.81182 0.0
N7 N 1.02659 0.31835 0.65288 0.0
N8 N 1.07423 0.47262 0.48549 0.0
C9 C 0.20093 0.44569 0.40045 0.0
C10 C 0.18199 0.35925 0.50694 0.0
C11 C 0.97372 0.39786 0.63952 0.0
Co12 Co 0.11604 0.05436 -0.02267 0.0
C13 C 0.77721 0.12137 -0.0312 0.0
H14 H 0.28744 0.33569 0.48143 0.0
O15 O 0.40203 0.06858 -0.00305 0.0
O16 O 0.43437 0.34014 0.03256 0.0
O17 O 1.05005 0.04547 0.25363 0.0
O18 O 0.78169 0.7678 0.91663 0.0
O19 O 0.9269 0.7206 0.0598 0.0
O20 O 0.31254 0.37681 0.83586 0.0
O21 O 0.84289 0.04516 0.96496 0.0
O22 O 0.90673 0.04282 0.61329 0.0
O23 O 0.24441 1.00289 0.34001 0.0
O24 O 0.31156 0.82123 0.9445 0.0
O25 O 0.17718 0.06014 0.70011 0.0
O26 O 0.95223 0.29966 0.00927 0.0
C27 C 0.1228 1.0309 0.37812 0.0
C28 C 0.85154 0.42033 0.78682 0.0
H29 H 0.63416 0.28498 0.7873 0.0
H30 H 0.94118 0.46701 0.92111 0.0
H31 H 0.88435 0.52543 0.76678 0.0
C32 C 0.48173 0.44663 0.94928 0.0
C33 C 0.73917 0.65553 -0.0217 0.0
H34 H 0.74791 0.62319 0.35481 0.0
H35 H 0.5731 0.79102 0.36962 0.0
H36 H 0.63548 0.95288 0.28629 0.0
H37 H 0.49837 0.75152 0.13471 0.0
C38 C 0.50028 0.80428 0.27589 0.0
C39 C 0.47963 0.99823 -0.02036 0.0
C40 C 1.06209 1.04129 0.57465 0.0
H41 H 0.64258 0.39513 0.50784 0.0
H42 H 0.30281 0.48744 0.27251 0.0
loop_
_geom_bond_atom_site_label_1
_geom_bond_atom_site_label_2
_geom_bond_distance
_geom_bond_site_symmetry_2
_ccdc_geom_bond_type
Co0 N1 2.034 . S
Co0 O15 2.262 1_654 S
Co0 O19 1.958 1_554 S
Co0 O23 1.950 1_655 S
Co0 O24 2.057 1_654 S
N1 Co0 2.034 . S
N1 C2 1.366 . S
N1 C4 1.332 1_655 S
C2 N1 1.366 . S
C2 C5 1.377 . S
C2 H34 0.931 . S
N3 C4 1.346 . S
N3 C5 1.337 1_455 S
C4 N1 1.332 1_455 S
C4 N3 1.346 . S
C4 C38 1.361 . S
C5 C2 1.377 . S
C5 N3 1.337 1_655 S
C5 H41 0.930 . S
Co6 N7 2.034 1_655 S
Co6 O20 1.950 1_655 S
Co6 O21 2.264 1_545 S
Co6 O22 1.958 . S
Co6 O26 2.057 . S
N7 Co6 2.034 1_455 S
N7 C10 1.366 . S
N7 C11 1.332 . S
N8 C9 1.337 . S
N8 C11 1.346 . S
C9 N8 1.337 . S
C9 C10 1.377 . S
C9 H42 0.930 . S
C10 N7 1.366 . S
C10 C9 1.377 . S
C10 H14 0.931 . S
C11 N7 1.332 . S
C11 N8 1.346 . S
C11 C28 1.361 1_556 S
Co12 O15 2.097 1_655 S
Co12 O16 2.065 1_666 S
Co12 O17 2.065 1_556 S
Co12 O18 2.042 . S
Co12 O21 2.096 . S
Co12 O25 2.042 1_655 S
C13 O21 1.253 1_554 S
C13 O26 1.263 1_564 S
H14 C10 0.931 . S
O15 Co0 2.262 1_456 S
O15 Co12 2.097 1_455 S
O15 C39 1.253 1_565 S
O16 Co12 2.065 1_444 S
O16 C32 1.221 . S
O17 Co12 2.065 1_554 S
O17 C27 1.222 . S
O18 Co12 2.042 . S
O18 C33 1.237 . S
O19 Co0 1.958 1_556 S
O19 C33 1.278 . S
O20 Co6 1.950 1_455 S
O20 C32 1.277 1_556 S
O21 Co6 2.264 1_565 S
O21 Co12 2.096 . S
O21 C13 1.253 1_556 S
O22 Co6 1.958 . S
O22 C40 1.278 1_545 S
O23 Co0 1.950 1_455 S
O23 C27 1.277 1_455 S
O24 Co0 2.057 1_456 S
O24 C39 1.263 1_565 S
O25 Co12 2.042 1_455 S
O25 C40 1.237 1_455 S
O26 Co6 2.057 . S
O26 C13 1.263 1_546 S
C27 O17 1.222 . S
C27 O23 1.277 1_655 S
C28 C11 1.361 1_554 S
C28 H29 0.960 . S
C28 H30 0.961 . S
C28 H31 0.961 1_455 S
H29 C28 0.960 . S
H30 C28 0.961 . S
H31 C28 0.961 1_655 S
C32 O16 1.221 . S
C32 O20 1.277 1_554 S
C33 O18 1.237 . S
C33 O19 1.278 . S
H34 C2 0.931 . S
H35 C38 0.961 . S
H36 C38 0.961 . S
H37 C38 0.960 . S
C38 C4 1.361 . S
C38 H35 0.961 . S
C38 H36 0.961 . S
C38 H37 0.960 . S
C39 O15 1.253 1_545 S
C39 O24 1.263 1_545 S
C40 O22 1.278 1_565 S
C40 O25 1.237 1_655 S
H41 C5 0.930 . S
H42 C9 0.930 . S
N8 N3 3.455 . S
C13 C39 2.483 1_564 S
C32 C33 2.930 1_554 S
C40 C27 1.213 . S
