# Generated by pormake.
# Topology pcu, (6)-cn, num edge types: 1
# Building blocks:
#     Node 0, Type 0, BuildingBlock: UKALOJ_clean_sbu_0, # of connection points: 6
#     Edge 1, Type (0, 0), BuildingBlock: KIFKEQ_clean_linker_1, # of connection points: 2
#     Edge 2, Type (0, 0), BuildingBlock: KIFKEQ_clean_linker_1, # of connection points: 2
#     Edge 3, Type (0, 0), BuildingBlock: KIFKEQ_clean_linker_1, # of connection points: 2
# Relax obj value: 0.010
# Max RMSD: 0.054
# Mean RMSD: 0.054
data_MOF--net-pcu--node1-UKALOJ_clean_sbu_0--edge1-KIFKEQ_clean_linker_1
_symmetry_space_group_name_H-M    P1
_symmetry_Int_Tables_number       1
_symmetry_cell_setting            triclinic
loop_
_symmetry_equiv_pos_as_xyz
'x, y, z'
_cell_length_a     15.613715
_cell_length_b     15.612982
_cell_length_c     20.4522
_cell_angle_alpha  98.127934
_cell_angle_beta   82.563917
_cell_angle_gamma 95.717239
loop_
_atom_site_label
_atom_site_type_symbol
_atom_site_fract_x
_atom_site_fract_y
_atom_site_fract_z
_atom_type_partial_charge
Zn0 Zn 0.97012 -0.0066 0.07629 0.0
O1 O 0.95788 0.85732 0.07991 0.0
C2 C 0.15556 -0.00743 0.02287 0.0
Zn3 Zn -0.01304 0.9744 0.96571 0.0
C4 C 0.97075 0.80749 0.02536 0.0
O5 O -0.01464 0.84011 0.97109 0.0
C6 C -0.01313 0.16032 1.01609 0.0
O7 O 0.85029 0.96135 0.9653 0.0
O8 O 0.83504 -0.00856 0.07411 0.0
N9 N 0.00756 0.94907 0.8642 0.0
C10 C 0.97857 0.98186 0.81432 0.0
C11 C 0.063 0.88503 0.77016 0.0
N12 N 0.06 0.88906 0.83654 0.0
N13 N 0.01281 0.9428 0.75454 0.0
C14 C 0.97359 0.98191 0.22744 0.0
C15 C 0.91609 0.09781 0.27166 0.0
N16 N 0.95227 0.02082 0.17767 0.0
N17 N 0.91642 0.09265 0.20537 0.0
N18 N 0.95129 0.02893 0.28677 0.0
H19 H 0.06409 0.89648 0.1703 0.0
H20 H 0.97227 0.84381 0.21577 0.0
H21 H 0.05884 0.89945 0.25946 0.0
C22 C 0.02049 0.90105 0.21768 0.0
C23 C 0.9142 0.04907 0.8247 0.0
H24 H 0.87574 0.05041 0.87407 0.0
H25 H 0.86976 0.03663 0.78561 0.0
H26 H 0.94944 0.11403 0.82221 0.0
O27 O -0.01127 0.10936 0.96174 0.0
O28 O 0.98226 0.12884 0.07055 0.0
C29 C 0.80142 0.97517 1.01985 0.0
O30 O 0.10552 -0.00445 0.0772 0.0
O31 O 0.1232 0.98686 0.96832 0.0
H32 H 0.03008 0.13994 0.37684 0.0
H33 H 0.89762 0.88507 0.3444 0.0
H34 H 0.04689 0.11822 0.49014 0.0
H35 H 0.90904 0.86384 0.45904 0.0
H36 H 0.01148 0.8198 0.64834 0.0
H37 H 0.0007 0.83899 0.53382 0.0
H38 H 0.97412 0.11274 0.59511 0.0
H39 H -0.0064 0.09436 0.70778 0.0
C40 C 0.00432 0.07931 0.39458 0.0
C41 C 0.96347 0.01379 0.35236 0.0
C42 C 0.01295 0.06694 0.45962 0.0
C43 C 0.97879 -0.01061 0.48449 0.0
C44 C 0.93767 0.92378 0.44167 0.0
C45 C 0.93073 0.9357 0.37609 0.0
C46 C 0.00339 0.88405 0.63713 0.0
C47 C 0.00082 0.955 0.68778 0.0
C48 C -0.00372 0.89503 0.57149 0.0
C49 C -0.01428 0.97737 0.55471 0.0
C50 C -0.01701 0.04837 0.60558 0.0
C51 C -0.0082 0.03753 0.671 0.0
H52 H 0.28294 0.01949 0.92117 0.0
H53 H 0.24201 0.96383 0.12437 0.0
H54 H 0.43867 0.01593 0.92059 0.0
H55 H 0.39709 0.95635 0.12304 0.0
H56 H 0.68456 0.03444 0.12309 0.0
H57 H 0.52976 0.04134 0.12343 0.0
H58 H 0.54817 0.9214 0.91869 0.0
H59 H 0.70414 0.91821 0.91764 0.0
C60 C 0.30725 0.00609 0.96563 0.0
C61 C 0.25024 -0.00768 0.0229 0.0
C62 C 0.39655 0.00331 0.96516 0.0
C63 C 0.43086 0.98558 0.0217 0.0
C64 C 0.37347 0.97172 0.07894 0.0
C65 C 0.28434 0.97562 0.07966 0.0
C66 C 0.65555 0.0093 0.07817 0.0
C67 C 0.70664 0.97565 1.02035 0.0
C68 C 0.5665 0.01283 0.07845 0.0
C69 C 0.52597 0.98178 0.02114 0.0
C70 C 0.57716 0.9473 0.96344 0.0
C71 C 0.66655 0.94476 0.96293 0.0
H72 H 0.02857 0.69021 0.92151 0.0
H73 H 0.91593 0.71042 0.12692 0.0
H74 H 0.03486 0.53513 0.91952 0.0
H75 H 0.91866 0.55398 0.12424 0.0
H76 H 0.95622 0.24703 0.91549 0.0
H77 H 0.94906 0.40261 0.91853 0.0
H78 H 0.0131 0.44377 0.12071 0.0
H79 H 0.01647 0.28785 0.11841 0.0
C80 C 0.00417 0.6613 0.96613 0.0
C81 C 0.97164 0.71265 0.0244 0.0
C82 C 0.00731 0.57205 0.96486 0.0
C83 C 0.97703 0.53153 0.02161 0.0
C84 C 0.94387 0.58299 0.07986 0.0
C85 C 0.94169 0.67264 0.08135 0.0
C86 C 0.96908 0.2894 0.96046 0.0
C87 C -0.01304 0.25515 1.01665 0.0
C88 C 0.96532 0.37878 0.9622 0.0
C89 C 0.98048 0.43618 1.01992 0.0
C90 C -0.00057 0.40168 0.07583 0.0
C91 C 0.00211 0.31223 0.07434 0.0
loop_
_geom_bond_atom_site_label_1
_geom_bond_atom_site_label_2
_geom_bond_distance
_geom_bond_site_symmetry_2
_ccdc_geom_bond_type
Zn0 O1 2.055 . S
Zn0 O8 2.046 . S
Zn0 N16 2.036 1_565 S
Zn0 O28 2.053 1_565 S
Zn0 O30 2.066 1_665 S
O1 Zn0 2.055 . S
O1 C4 1.259 1_554 S
C2 O30 1.256 1_565 S
C2 O31 1.244 1_554 S
Zn3 O5 2.046 . S
Zn3 O7 2.055 . S
Zn3 N9 2.036 1_655 S
Zn3 O27 2.066 1_665 S
Zn3 O31 2.053 1_655 S
C4 O1 1.259 1_556 S
C4 O5 1.254 . S
O5 Zn3 2.046 . S
O5 C4 1.254 . S
C6 O27 1.256 1_655 S
C6 O28 1.244 1_556 S
O7 Zn3 2.055 . S
O7 C29 1.259 1_556 S
O8 Zn0 2.046 . S
O8 C29 1.254 . S
N9 Zn3 2.036 1_455 S
N9 C10 1.298 1_465 S
N9 N12 1.398 . S
C10 N9 1.298 1_645 S
C10 N13 1.367 1_655 S
C10 C23 1.481 . S
C11 N12 1.299 . S
C11 N13 1.379 1_565 S
N12 N9 1.398 . S
N12 C11 1.299 . S
N13 C10 1.367 1_455 S
N13 C11 1.379 1_545 S
C14 N16 1.298 1_465 S
C14 N18 1.367 1_565 S
C14 C22 1.481 . S
C15 N17 1.299 . S
C15 N18 1.379 1_655 S
N16 Zn0 2.036 1_545 S
N16 C14 1.298 1_645 S
N16 N17 1.398 . S
N17 C15 1.299 . S
N17 N16 1.398 . S
N18 C14 1.367 1_545 S
N18 C15 1.379 1_455 S
H19 C22 0.980 . S
H20 C22 0.981 . S
H21 C22 0.981 . S
C22 C14 1.481 . S
C22 H19 0.980 . S
C22 H20 0.981 . S
C22 H21 0.981 . S
C23 C10 1.481 . S
C23 H24 0.980 . S
C23 H25 0.981 . S
C23 H26 0.981 . S
H24 C23 0.980 . S
H25 C23 0.981 . S
H26 C23 0.981 . S
O27 Zn3 2.066 1_445 S
O27 C6 1.256 1_455 S
O28 Zn0 2.053 1_545 S
O28 C6 1.244 1_554 S
C29 O7 1.259 1_554 S
C29 O8 1.254 . S
O30 Zn0 2.066 1_445 S
O30 C2 1.256 1_545 S
O31 C2 1.244 1_556 S
O31 Zn3 2.053 1_455 S
H32 C40 0.950 1_655 S
H33 C45 0.950 . S
H34 C42 0.950 1_655 S
H35 C44 0.950 . S
H36 C46 0.950 . S
H37 C48 0.950 . S
H38 C50 0.950 . S
H39 C51 0.950 . S
C40 H32 0.950 1_455 S
C40 C41 1.386 . S
C40 C42 1.391 . S
C41 C40 1.386 . S
C41 C45 1.393 1_545 S
C42 H34 0.950 1_455 S
C42 C40 1.391 . S
C42 C43 1.400 . S
C43 C42 1.400 . S
C43 C44 1.398 1_545 S
C43 C49 1.491 . S
C44 H35 0.950 . S
C44 C43 1.398 1_565 S
C44 C45 1.391 . S
C45 H33 0.950 . S
C45 C41 1.393 1_565 S
C45 C44 1.391 . S
C46 H36 0.950 . S
C46 C47 1.386 1_565 S
C46 C48 1.391 . S
C47 C46 1.386 1_545 S
C47 C51 1.393 . S
C48 H37 0.950 . S
C48 C46 1.391 . S
C48 C49 1.400 1_565 S
C49 C43 1.491 . S
C49 C48 1.400 1_545 S
C49 C50 1.398 . S
C50 H38 0.950 . S
C50 C49 1.398 . S
C50 C51 1.391 . S
C51 H39 0.950 . S
C51 C47 1.393 . S
C51 C50 1.391 . S
H52 C60 0.950 . S
H53 C65 0.950 . S
H54 C62 0.950 . S
H55 C64 0.950 . S
H56 C66 0.950 . S
H57 C68 0.950 . S
H58 C70 0.950 . S
H59 C71 0.950 . S
C60 H52 0.950 . S
C60 C61 1.386 1_546 S
C60 C62 1.391 . S
C61 C60 1.386 1_564 S
C61 C65 1.393 . S
C62 H54 0.950 . S
C62 C60 1.391 . S
C62 C63 1.400 1_546 S
C63 C62 1.400 1_564 S
C63 C64 1.398 . S
C63 C69 1.491 . S
C64 H55 0.950 . S
C64 C63 1.398 . S
C64 C65 1.391 . S
C65 H53 0.950 . S
C65 C61 1.393 . S
C65 C64 1.391 . S
C66 H56 0.950 . S
C66 C67 1.386 . S
C66 C68 1.391 . S
C67 C66 1.386 . S
C67 C71 1.393 1_564 S
C68 H57 0.950 . S
C68 C66 1.391 . S
C68 C69 1.400 . S
C69 C63 1.491 . S
C69 C68 1.400 . S
C69 C70 1.398 1_564 S
C70 H58 0.950 . S
C70 C69 1.398 1_546 S
C70 C71 1.391 . S
C71 H59 0.950 . S
C71 C67 1.393 1_546 S
C71 C70 1.391 . S
H72 C80 0.950 . S
H73 C85 0.950 . S
H74 C82 0.950 . S
H75 C84 0.950 . S
H76 C86 0.949 1_554 S
H77 C88 0.950 1_554 S
H78 C90 0.950 . S
H79 C91 0.950 . S
C80 H72 0.950 . S
C80 C81 1.386 1_455 S
C80 C82 1.391 . S
C81 C80 1.386 1_655 S
C81 C85 1.393 1_556 S
C82 H74 0.950 . S
C82 C80 1.391 . S
C82 C83 1.400 1_455 S
C83 C82 1.400 1_655 S
C83 C84 1.398 1_556 S
C83 C89 1.491 . S
C84 H75 0.950 . S
C84 C83 1.398 1_554 S
C84 C85 1.391 . S
C85 H73 0.950 . S
C85 C81 1.393 1_554 S
C85 C84 1.391 . S
C86 H76 0.949 1_556 S
C86 C87 1.386 . S
C86 C88 1.391 . S
C87 C86 1.386 . S
C87 C91 1.393 1_655 S
C88 H77 0.950 1_556 S
C88 C86 1.391 . S
C88 C89 1.400 . S
C89 C83 1.491 . S
C89 C88 1.400 . S
C89 C90 1.398 1_655 S
C90 H78 0.950 . S
C90 C89 1.398 1_455 S
C90 C91 1.391 . S
C91 H79 0.950 . S
C91 C87 1.393 1_455 S
C91 C90 1.391 . S
C41 N18 1.451 . S
C47 N13 1.456 . S
C61 C2 1.495 . S
C67 C29 1.491 . S
C81 C4 1.493 . S
C87 C6 1.495 . S
