# Generated by pormake.
# Topology qtz, (4)-cn, num edge types: 1
# Building blocks:
#     Node 0, Type 0, BuildingBlock: NAHDIM_clean_sbu_0, # of connection points: 4
#     Node 1, Type 0, BuildingBlock: NAHDIM_clean_sbu_0, # of connection points: 4
#     Node 2, Type 0, BuildingBlock: NAHDIM_clean_sbu_0, # of connection points: 4
#     Edge 3, Type (0, 0), BuildingBlock: XUDNAN_clean_linker_2, # of connection points: 2
#     Edge 4, Type (0, 0), BuildingBlock: XUDNAN_clean_linker_2, # of connection points: 2
#     Edge 5, Type (0, 0), BuildingBlock: XUDNAN_clean_linker_2, # of connection points: 2
#     Edge 6, Type (0, 0), BuildingBlock: XUDNAN_clean_linker_2, # of connection points: 2
#     Edge 7, Type (0, 0), BuildingBlock: XUDNAN_clean_linker_2, # of connection points: 2
#     Edge 8, Type (0, 0), BuildingBlock: XUDNAN_clean_linker_2, # of connection points: 2
# Relax obj value: 0.103
# Max RMSD: 0.171
# Mean RMSD: 0.164
data_MOF--net-qtz--node1-NAHDIM_clean_sbu_0--edge1-XUDNAN_clean_linker_2
_symmetry_space_group_name_H-M    P1
_symmetry_Int_Tables_number       1
_symmetry_cell_setting            triclinic
loop_
_symmetry_equiv_pos_as_xyz
'x, y, z'
_cell_length_a     23.720747
_cell_length_b     24.005918
_cell_length_c     27.432518
_cell_angle_alpha  93.722549
_cell_angle_beta   89.924989
_cell_angle_gamma 121.10117
loop_
_atom_site_label
_atom_site_type_symbol
_atom_site_fract_x
_atom_site_fract_y
_atom_site_fract_z
_atom_type_partial_charge
C0 C 0.08442 0.51251 0.06822 0.0
O1 O 0.05244 0.54203 0.05875 0.0
O2 O 0.93965 0.48529 0.12512 0.0
Zn3 Zn 0.02234 0.50159 0.15883 0.0
O4 O 0.07487 0.59188 0.19193 0.0
C5 C 0.96552 0.44458 0.24565 0.0
O6 O 0.95886 0.49573 0.24866 0.0
O7 O 0.07886 0.48972 0.10966 0.0
C8 C 0.12331 0.60197 0.21876 0.0
O9 O 0.13455 0.55419 0.22241 0.0
C10 C 0.92854 0.52839 0.11151 0.0
O11 O 0.9738 0.59043 0.11968 0.0
O12 O -0.00579 0.43618 0.20927 0.0
C13 C 0.61865 0.97884 0.5711 0.0
O14 O 0.66811 0.03933 0.57095 0.0
O15 O 0.52707 0.0731 0.54478 0.0
Zn16 Zn 0.55376 0.01881 0.50356 0.0
O17 O 0.48201 0.96092 0.45369 0.0
C18 C 0.66115 0.13692 0.46876 0.0
O19 O 0.63227 0.1637 0.49305 0.0
O20 O 0.56656 0.96086 0.54564 0.0
C21 C 0.45168 0.97989 0.42772 0.0
O22 O 0.46739 0.04111 0.43294 0.0
C23 C 0.46841 0.05065 0.55829 0.0
O24 O 0.42351 0.98954 0.54575 0.0
O25 O 0.63681 0.07574 0.46867 0.0
C26 C 0.54608 0.60669 0.74808 0.0
O27 O 0.48578 0.55804 0.73734 0.0
O28 O 0.5085 0.44194 0.7668 0.0
Zn29 Zn 0.53279 0.51819 0.81541 0.0
O30 O 0.45148 0.51241 0.84336 0.0
C31 C 0.5796 0.46494 0.88307 0.0
O32 O 0.52869 0.4107 0.86358 0.0
O33 O 0.57957 0.60111 0.78141 0.0
C34 C 0.43034 0.49418 0.88546 0.0
O35 O 0.46209 0.47665 0.91387 0.0
C36 C 0.45024 0.39316 0.76009 0.0
O37 O 0.40225 0.39239 0.78457 0.0
O38 O 0.5918 0.51914 0.86847 0.0
H39 H 0.37275 0.46001 0.97397 0.0
H40 H 0.35637 0.53177 0.83654 0.0
H41 H 0.2623 0.53892 0.86704 0.0
H42 H 0.19605 0.36301 -0.00596 0.0
H43 H 0.20679 0.38278 0.05917 0.0
H44 H 0.27049 0.37969 0.02547 0.0
H45 H 0.35516 0.4979 0.05922 0.0
H46 H 0.29177 0.5014 0.09291 0.0
H47 H 0.33872 0.56209 0.05061 0.0
H48 H 0.1746 0.54445 0.91396 0.0
H49 H 0.09794 0.54653 0.97387 0.0
H50 H 0.17068 0.4701 0.0804 0.0
C51 C 0.34902 0.47662 0.95007 0.0
C52 C 0.37194 0.49533 0.90287 0.0
C53 C 0.33966 0.51709 0.87284 0.0
C54 C 0.28612 0.52126 0.88979 0.0
C55 C 0.26526 0.50313 0.93669 0.0
C56 C 0.29544 0.48095 0.96634 0.0
C57 C 0.26471 0.46651 0.01584 0.0
C58 C 0.23259 0.39367 0.02409 0.0
C59 C 0.31563 0.50956 0.05706 0.0
C60 C 0.21336 0.48523 0.00967 0.0
C61 C 0.21428 0.5059 0.96367 0.0
C62 C 0.17297 0.52783 0.94996 0.0
C63 C 0.12972 0.52896 0.98429 0.0
C64 C 0.12818 0.5083 0.03175 0.0
C65 C 0.17028 0.48569 0.04429 0.0
H66 H 0.89478 0.44578 0.32394 0.0
H67 H 0.96413 0.32967 0.24745 0.0
H68 H 0.90187 0.24151 0.30232 0.0
H69 H 0.89383 0.39074 0.44733 0.0
H70 H 0.81991 0.39084 0.46247 0.0
H71 H 0.87666 0.44774 0.42132 0.0
H72 H 0.782 0.40563 0.35583 0.0
H73 H 0.72516 0.3485 0.39656 0.0
H74 H 0.73498 0.31982 0.33663 0.0
H75 H 0.8226 0.16176 0.35956 0.0
H76 H 0.73352 0.09721 0.41507 0.0
H77 H 0.71681 0.26625 0.45377 0.0
C78 C 0.89808 0.40242 0.3193 0.0
C79 C 0.93441 0.39465 0.28146 0.0
C80 C 0.93678 0.33679 0.27631 0.0
C81 C 0.9017 0.28651 0.30736 0.0
C82 C 0.86504 0.29517 0.34355 0.0
C83 C 0.86345 0.35192 0.34988 0.0
C84 C 0.81663 0.34738 0.38907 0.0
C85 C 0.854 0.39713 0.43263 0.0
C86 C 0.76144 0.3558 0.36825 0.0
C87 C 0.79036 0.27837 0.40267 0.0
C88 C 0.81943 0.24928 0.37649 0.0
C89 C 0.80018 0.18433 0.38079 0.0
C90 C 0.74942 0.14802 0.4123 0.0
C91 C 0.7183 0.17672 0.43885 0.0
C92 C 0.73997 0.24303 0.43438 0.0
H93 H 0.52513 0.85033 0.57699 0.0
H94 H 0.72138 -3e-05 0.63148 0.0
H95 H 0.72656 0.91986 0.68079 0.0
H96 H 0.46925 0.77411 0.68796 0.0
H97 H 0.42223 0.69285 0.65858 0.0
H98 H 0.4355 0.76156 0.62663 0.0
H99 H 0.48591 0.72732 0.55541 0.0
H100 H 0.47291 0.65852 0.5872 0.0
H101 H 0.55413 0.71656 0.56803 0.0
H102 H 0.70821 0.82306 0.7259 0.0
H103 H 0.6675 0.71863 0.7636 0.0
H104 H 0.48382 0.63416 0.67832 0.0
C105 C 0.56943 0.86643 0.5991 0.0
C106 C 0.6229 0.93145 0.60037 0.0
C107 C 0.67982 0.95036 0.62991 0.0
C108 C 0.68324 0.90521 0.65797 0.0
C109 C 0.62944 0.84146 0.65587 0.0
C110 C 0.57368 0.8222 0.62713 0.0
C111 C 0.52196 0.75141 0.63188 0.0
C112 C 0.45851 0.74462 0.6525 0.0
C113 C 0.50794 0.71109 0.5827 0.0
C114 C 0.55698 0.73382 0.66823 0.0
C115 C 0.61902 0.78619 0.68155 0.0
C116 C 0.65983 0.78166 0.71555 0.0
C117 C 0.6363 0.72217 0.73673 0.0
C118 C 0.57252 0.6682 0.72385 0.0
C119 C 0.53288 0.67432 0.68884 0.0
H120 H 0.69384 0.56707 0.92666 0.0
H121 H 0.56097 0.35739 0.92597 0.0
H122 H 0.6327 0.35238 0.98827 0.0
H123 H 0.84172 0.56569 0.93701 0.0
H124 H 0.88435 0.63951 0.97669 0.0
H125 H 0.82039 0.62748 0.93441 0.0
H126 H 0.75865 0.64556 0.00589 0.0
H127 H 0.82247 0.65761 0.04846 0.0
H128 H 0.73786 0.59625 0.05736 0.0
H129 H 0.72079 0.3688 0.04705 0.0
H130 H 0.82088 0.40537 0.09812 0.0
H131 H 0.89702 0.6046 0.06109 0.0
C132 C 0.67947 0.52019 0.93996 0.0
C133 C 0.62172 0.46261 0.92152 0.0
C134 C 0.60495 0.40215 0.93956 0.0
C135 C 0.64526 0.3988 0.97506 0.0
C136 C 0.70202 0.45634 0.9922 0.0
C137 C 0.7192 0.51592 0.97535 0.0
C138 C 0.78434 0.56999 -0.00162 0.0
C139 C 0.83572 0.60255 0.95929 0.0
C140 C 0.77526 0.62032 0.02937 0.0
C141 C 0.80157 0.53124 0.03019 0.0
C142 C 0.75314 0.46587 0.02628 0.0
C143 C 0.75887 0.41993 0.05072 0.0
C144 C 0.816 0.44122 0.07957 0.0
C145 C 0.86675 0.50788 0.08367 0.0
C146 C 0.85888 0.55346 0.05905 0.0
H147 H 0.41335 0.85234 0.40558 0.0
H148 H 0.36982 0.00037 0.37058 0.0
H149 H 0.28022 0.91983 0.31287 0.0
H150 H 0.38568 0.7752 0.28455 0.0
H151 H 0.34959 0.69437 0.30533 0.0
H152 H 0.40977 0.76384 0.34366 0.0
H153 H 0.32734 0.73016 0.41368 0.0
H154 H 0.26687 0.66062 0.37555 0.0
H155 H 0.24698 0.71861 0.40243 0.0
H156 H 0.19405 0.82141 0.25953 0.0
H157 H 0.12067 0.71469 0.21414 0.0
H158 H 0.22335 0.63366 0.28461 0.0
C159 C 0.38511 0.86807 0.38584 0.0
C160 C 0.39855 0.93267 0.39262 0.0
C161 C 0.36043 0.95111 0.36592 0.0
C162 C 0.30943 0.90572 0.33312 0.0
C163 C 0.29746 0.84231 0.32746 0.0
C164 C 0.33443 0.82367 0.35303 0.0
C165 C 0.31216 0.75287 0.34047 0.0
C166 C 0.3676 0.74622 0.31711 0.0
C167 C 0.28682 0.71325 0.38572 0.0
C168 C 0.25673 0.73435 0.30378 0.0
C169 C 0.24873 0.78638 0.29675 0.0
C170 C 0.20001 0.7804 0.2647 0.0
C171 C 0.15856 0.71964 0.23913 0.0
C172 C 0.1664 0.66592 0.24575 0.0
C173 C 0.21618 0.67376 0.27855 0.0
H174 H 0.54026 0.37735 0.70813 0.0
H175 H 0.33237 0.27909 0.73951 0.0
H176 H 0.31337 0.18122 0.68931 0.0
H177 H 0.51982 0.30918 0.58264 0.0
H178 H 0.5918 0.30238 0.58715 0.0
H179 H 0.58798 0.3655 0.62353 0.0
H180 H 0.61088 0.32476 0.70209 0.0
H181 H 0.61444 0.26136 0.66602 0.0
H182 H 0.55796 0.2407 0.7151 0.0
H183 H 0.31837 0.09228 0.63856 0.0
H184 H 0.3466 0.02029 0.58989 0.0
H185 H 0.55113 0.17786 0.59232 0.0
C186 C 0.49055 0.33556 0.70411 0.0
C187 C 0.43776 0.33592 0.72772 0.0
C188 C 0.37357 0.28 0.7217 0.0
C189 C 0.36229 0.22417 0.69327 0.0
C190 C 0.41566 0.22522 0.67105 0.0
C191 C 0.47844 0.27961 0.67597 0.0
C192 C 0.52772 0.2678 0.64948 0.0
C193 C 0.55863 0.31395 0.60825 0.0
C194 C 0.58086 0.27401 0.68532 0.0
C195 C 0.48299 0.19799 0.62927 0.0
C196 C 0.41851 0.17426 0.64196 0.0
C197 C 0.36864 0.11045 0.62819 0.0
C198 C 0.38518 0.06991 0.60065 0.0
C199 C 0.45103 0.09341 0.58727 0.0
C200 C 0.50029 0.15839 0.60181 0.0
loop_
_geom_bond_atom_site_label_1
_geom_bond_atom_site_label_2
_geom_bond_distance
_geom_bond_site_symmetry_2
_ccdc_geom_bond_type
C0 O1 1.160 . S
C0 O7 1.185 . S
O1 C0 1.160 . S
O2 Zn3 1.899 1_655 S
O2 C10 1.284 . S
Zn3 O2 1.899 1_455 S
Zn3 O4 2.032 . S
Zn3 O7 2.086 . S
Zn3 O12 1.977 1_455 S
O4 Zn3 2.032 . S
O4 C8 1.278 . S
C5 O6 1.203 . S
C5 O12 1.267 . S
O6 C5 1.203 . S
O7 C0 1.185 . S
O7 Zn3 2.086 . S
C8 O4 1.278 . S
C8 O9 1.211 . S
O9 C8 1.211 . S
C10 O2 1.284 . S
C10 O11 1.273 . S
O11 C10 1.273 . S
O12 Zn3 1.977 1_655 S
O12 C5 1.267 . S
C13 O14 1.160 . S
C13 O20 1.185 . S
O14 C13 1.160 . S
O15 Zn16 1.899 . S
O15 C23 1.284 . S
Zn16 O15 1.899 . S
Zn16 O17 2.032 1_545 S
Zn16 O20 2.086 1_545 S
Zn16 O25 1.977 . S
O17 Zn16 2.032 1_565 S
O17 C21 1.278 . S
C18 O19 1.203 . S
C18 O25 1.267 . S
O19 C18 1.203 . S
O20 C13 1.185 . S
O20 Zn16 2.086 1_565 S
C21 O17 1.278 . S
C21 O22 1.211 . S
O22 C21 1.211 . S
C23 O15 1.284 . S
C23 O24 1.273 . S
O24 C23 1.273 . S
O25 Zn16 1.977 . S
O25 C18 1.267 . S
C26 O27 1.160 . S
C26 O33 1.185 . S
O27 C26 1.160 . S
O28 Zn29 1.899 . S
O28 C36 1.284 . S
Zn29 O28 1.899 . S
Zn29 O30 2.032 . S
Zn29 O33 2.086 . S
Zn29 O38 1.977 . S
O30 Zn29 2.032 . S
O30 C34 1.278 . S
C31 O32 1.203 . S
C31 O38 1.267 . S
O32 C31 1.203 . S
O33 C26 1.185 . S
O33 Zn29 2.086 . S
C34 O30 1.278 . S
C34 O35 1.211 . S
O35 C34 1.211 . S
C36 O28 1.284 . S
C36 O37 1.273 . S
O37 C36 1.273 . S
O38 Zn29 1.977 . S
O38 C31 1.267 . S
H39 C51 0.930 . S
H40 C53 0.930 . S
H41 C54 0.930 . S
H42 C58 0.959 . S
H43 C58 0.959 . S
H44 C58 0.961 . S
H45 C59 0.960 . S
H46 C59 0.961 . S
H47 C59 0.959 . S
H48 C62 0.929 . S
H49 C63 0.931 . S
H50 C65 0.930 . S
C51 H39 0.930 . S
C51 C52 1.399 . S
C51 C56 1.399 . S
C52 C51 1.399 . S
C52 C53 1.376 . S
C53 H40 0.930 . S
C53 C52 1.376 . S
C53 C54 1.388 . S
C54 H41 0.930 . S
C54 C53 1.388 . S
C54 C55 1.390 . S
C55 C54 1.390 . S
C55 C56 1.394 . S
C55 C61 1.465 1_556 S
C56 C51 1.399 . S
C56 C55 1.394 . S
C56 C57 1.516 . S
C57 C56 1.516 . S
C57 C58 1.502 . S
C57 C59 1.561 1_556 S
C57 C60 1.526 1_556 S
C58 H42 0.959 . S
C58 H43 0.959 . S
C58 H44 0.961 . S
C58 C57 1.502 . S
C59 H45 0.960 . S
C59 H46 0.961 . S
C59 H47 0.959 . S
C59 C57 1.561 1_554 S
C60 C57 1.526 1_554 S
C60 C61 1.396 . S
C60 C65 1.390 . S
C61 C55 1.465 1_554 S
C61 C60 1.396 . S
C61 C62 1.399 . S
C62 H48 0.929 . S
C62 C61 1.399 . S
C62 C63 1.385 . S
C63 H49 0.931 . S
C63 C62 1.385 . S
C63 C64 1.389 . S
C64 C63 1.389 . S
C64 C65 1.387 . S
C65 H50 0.930 . S
C65 C60 1.390 . S
C65 C64 1.387 . S
H66 C78 0.930 . S
H67 C80 0.930 . S
H68 C81 0.930 . S
H69 C85 0.959 . S
H70 C85 0.959 . S
H71 C85 0.961 . S
H72 C86 0.960 . S
H73 C86 0.961 . S
H74 C86 0.959 . S
H75 C89 0.929 . S
H76 C90 0.931 . S
H77 C92 0.930 . S
C78 H66 0.930 . S
C78 C79 1.399 . S
C78 C83 1.399 . S
C79 C78 1.399 . S
C79 C80 1.376 . S
C80 H67 0.930 . S
C80 C79 1.376 . S
C80 C81 1.388 . S
C81 H68 0.930 . S
C81 C80 1.388 . S
C81 C82 1.390 . S
C82 C81 1.390 . S
C82 C83 1.394 . S
C82 C88 1.465 . S
C83 C78 1.399 . S
C83 C82 1.394 . S
C83 C84 1.516 . S
C84 C83 1.516 . S
C84 C85 1.502 . S
C84 C86 1.561 . S
C84 C87 1.526 . S
C85 H69 0.959 . S
C85 H70 0.959 . S
C85 H71 0.961 . S
C85 C84 1.502 . S
C86 H72 0.960 . S
C86 H73 0.961 . S
C86 H74 0.959 . S
C86 C84 1.561 . S
C87 C84 1.526 . S
C87 C88 1.396 . S
C87 C92 1.390 . S
C88 C82 1.465 . S
C88 C87 1.396 . S
C88 C89 1.399 . S
C89 H75 0.929 . S
C89 C88 1.399 . S
C89 C90 1.385 . S
C90 H76 0.931 . S
C90 C89 1.385 . S
C90 C91 1.389 . S
C91 C90 1.389 . S
C91 C92 1.387 . S
C92 H77 0.930 . S
C92 C87 1.390 . S
C92 C91 1.387 . S
H93 C105 0.930 . S
H94 C107 0.930 . S
H95 C108 0.930 . S
H96 C112 0.959 . S
H97 C112 0.959 . S
H98 C112 0.961 . S
H99 C113 0.960 . S
H100 C113 0.961 . S
H101 C113 0.959 . S
H102 C116 0.929 . S
H103 C117 0.931 . S
H104 C119 0.930 . S
C105 H93 0.930 . S
C105 C106 1.399 . S
C105 C110 1.399 . S
C106 C105 1.399 . S
C106 C107 1.376 . S
C107 H94 0.930 . S
C107 C106 1.376 . S
C107 C108 1.388 . S
C108 H95 0.930 . S
C108 C107 1.388 . S
C108 C109 1.390 . S
C109 C108 1.390 . S
C109 C110 1.394 . S
C109 C115 1.465 . S
C110 C105 1.399 . S
C110 C109 1.394 . S
C110 C111 1.516 . S
C111 C110 1.516 . S
C111 C112 1.502 . S
C111 C113 1.561 . S
C111 C114 1.526 . S
C112 H96 0.959 . S
C112 H97 0.959 . S
C112 H98 0.961 . S
C112 C111 1.502 . S
C113 H99 0.960 . S
C113 H100 0.961 . S
C113 H101 0.959 . S
C113 C111 1.561 . S
C114 C111 1.526 . S
C114 C115 1.396 . S
C114 C119 1.390 . S
C115 C109 1.465 . S
C115 C114 1.396 . S
C115 C116 1.399 . S
C116 H102 0.929 . S
C116 C115 1.399 . S
C116 C117 1.385 . S
C117 H103 0.931 . S
C117 C116 1.385 . S
C117 C118 1.389 . S
C118 C117 1.389 . S
C118 C119 1.387 . S
C119 H104 0.930 . S
C119 C114 1.390 . S
C119 C118 1.387 . S
H120 C132 0.930 . S
H121 C134 0.930 . S
H122 C135 0.930 . S
H123 C139 0.959 . S
H124 C139 0.964 . S
H125 C139 0.961 . S
H126 C140 0.960 . S
H127 C140 0.961 . S
H128 C140 0.959 . S
H129 C143 0.929 . S
H130 C144 0.931 . S
H131 C146 0.930 . S
C132 H120 0.930 . S
C132 C133 1.399 . S
C132 C137 1.399 . S
C133 C132 1.399 . S
C133 C134 1.376 . S
C134 H121 0.930 . S
C134 C133 1.376 . S
C134 C135 1.388 . S
C135 H122 0.930 . S
C135 C134 1.388 . S
C135 C136 1.390 . S
C136 C135 1.390 . S
C136 C137 1.394 . S
C136 C142 1.465 1_556 S
C137 C132 1.399 . S
C137 C136 1.394 . S
C137 C138 1.516 1_556 S
C138 C137 1.516 1_554 S
C138 C139 1.502 1_554 S
C138 C140 1.561 . S
C138 C141 1.526 . S
C139 H123 0.959 . S
C139 H124 0.964 . S
C139 H125 0.961 . S
C139 C138 1.502 1_556 S
C140 H126 0.960 . S
C140 H127 0.961 . S
C140 H128 0.959 . S
C140 C138 1.561 . S
C141 C138 1.526 . S
C141 C142 1.396 . S
C141 C146 1.390 . S
C142 C136 1.465 1_554 S
C142 C141 1.396 . S
C142 C143 1.399 . S
C143 H129 0.929 . S
C143 C142 1.399 . S
C143 C144 1.385 . S
C144 H130 0.931 . S
C144 C143 1.385 . S
C144 C145 1.389 . S
C145 C144 1.389 . S
C145 C146 1.387 . S
C146 H131 0.930 . S
C146 C141 1.390 . S
C146 C145 1.387 . S
H147 C159 0.930 . S
H148 C161 0.930 . S
H149 C162 0.930 . S
H150 C166 0.959 . S
H151 C166 0.959 . S
H152 C166 0.961 . S
H153 C167 0.960 . S
H154 C167 0.961 . S
H155 C167 0.959 . S
H156 C170 0.929 . S
H157 C171 0.931 . S
H158 C173 0.930 . S
C159 H147 0.930 . S
C159 C160 1.399 . S
C159 C164 1.399 . S
C160 C159 1.399 . S
C160 C161 1.376 . S
C161 H148 0.930 . S
C161 C160 1.376 . S
C161 C162 1.388 . S
C162 H149 0.930 . S
C162 C161 1.388 . S
C162 C163 1.390 . S
C163 C162 1.390 . S
C163 C164 1.394 . S
C163 C169 1.465 . S
C164 C159 1.399 . S
C164 C163 1.394 . S
C164 C165 1.516 . S
C165 C164 1.516 . S
C165 C166 1.502 . S
C165 C167 1.561 . S
C165 C168 1.526 . S
C166 H150 0.959 . S
C166 H151 0.959 . S
C166 H152 0.961 . S
C166 C165 1.502 . S
C167 H153 0.960 . S
C167 H154 0.961 . S
C167 H155 0.959 . S
C167 C165 1.561 . S
C168 C165 1.526 . S
C168 C169 1.396 . S
C168 C173 1.390 . S
C169 C163 1.465 . S
C169 C168 1.396 . S
C169 C170 1.399 . S
C170 H156 0.929 . S
C170 C169 1.399 . S
C170 C171 1.385 . S
C171 H157 0.931 . S
C171 C170 1.385 . S
C171 C172 1.389 . S
C172 C171 1.389 . S
C172 C173 1.387 . S
C173 H158 0.930 . S
C173 C168 1.390 . S
C173 C172 1.387 . S
H174 C186 0.930 . S
H175 C188 0.930 . S
H176 C189 0.930 . S
H177 C193 0.959 . S
H178 C193 0.959 . S
H179 C193 0.961 . S
H180 C194 0.960 . S
H181 C194 0.961 . S
H182 C194 0.959 . S
H183 C197 0.929 . S
H184 C198 0.931 . S
H185 C200 0.930 . S
C186 H174 0.930 . S
C186 C187 1.399 . S
C186 C191 1.399 . S
C187 C186 1.399 . S
C187 C188 1.376 . S
C188 H175 0.930 . S
C188 C187 1.376 . S
C188 C189 1.388 . S
C189 H176 0.930 . S
C189 C188 1.388 . S
C189 C190 1.390 . S
C190 C189 1.390 . S
C190 C191 1.394 . S
C190 C196 1.465 . S
C191 C186 1.399 . S
C191 C190 1.394 . S
C191 C192 1.516 . S
C192 C191 1.516 . S
C192 C193 1.502 . S
C192 C194 1.561 . S
C192 C195 1.526 . S
C193 H177 0.959 . S
C193 H178 0.959 . S
C193 H179 0.961 . S
C193 C192 1.502 . S
C194 H180 0.960 . S
C194 H181 0.961 . S
C194 H182 0.959 . S
C194 C192 1.561 . S
C195 C192 1.526 . S
C195 C196 1.396 . S
C195 C200 1.390 . S
C196 C190 1.465 . S
C196 C195 1.396 . S
C196 C197 1.399 . S
C197 H183 0.929 . S
C197 C196 1.399 . S
C197 C198 1.385 . S
C198 H184 0.931 . S
C198 C197 1.385 . S
C198 C199 1.389 . S
C199 C198 1.389 . S
C199 C200 1.387 . S
C200 H185 0.930 . S
C200 C195 1.390 . S
C200 C199 1.387 . S
C52 C34 1.238 . S
C64 C0 1.245 . S
C79 C5 1.329 . S
C91 C18 1.342 . S
C106 C13 1.254 . S
C118 C26 1.313 . S
C133 C31 1.244 . S
C145 C10 1.335 . S
C160 C21 1.240 . S
C172 C8 1.279 . S
C187 C36 1.271 . S
C199 C23 1.270 . S
