# Generated by pormake.
# Topology reo, (8)-cn, num edge types: 1
# Building blocks:
#     Node 0, Type 0, BuildingBlock: TAGTUT_clean_sbu_3, # of connection points: 8
#     Node 1, Type 0, BuildingBlock: TAGTUT_clean_sbu_3, # of connection points: 8
#     Node 2, Type 0, BuildingBlock: TAGTUT_clean_sbu_3, # of connection points: 8
#     Edge 3, Type (0, 0), None
#     Edge 4, Type (0, 0), None
#     Edge 5, Type (0, 0), None
#     Edge 6, Type (0, 0), None
#     Edge 7, Type (0, 0), None
#     Edge 8, Type (0, 0), None
#     Edge 9, Type (0, 0), None
#     Edge 10, Type (0, 0), None
#     Edge 11, Type (0, 0), None
#     Edge 12, Type (0, 0), None
#     Edge 13, Type (0, 0), None
#     Edge 14, Type (0, 0), None
# Relax obj value: 0.171
# Max RMSD: 0.191
# Mean RMSD: 0.191
data_MOF--net-reo--node1-TAGTUT_clean_sbu_3--edge1-none
_symmetry_space_group_name_H-M    P1
_symmetry_Int_Tables_number       1
_symmetry_cell_setting            triclinic
loop_
_symmetry_equiv_pos_as_xyz
'x, y, z'
_cell_length_a     12.842252
_cell_length_b     12.837069
_cell_length_c     12.838639
_cell_angle_alpha  91.495833
_cell_angle_beta   91.486387
_cell_angle_gamma 91.52247
loop_
_atom_site_label
_atom_site_type_symbol
_atom_site_fract_x
_atom_site_fract_y
_atom_site_fract_z
_atom_type_partial_charge
C0 C 0.94991 0.73948 0.5782 0.0
C1 C 0.62346 -0.02616 0.63865 0.0
C2 C 0.66319 -0.00335 0.285 0.0
Mg3 Mg 0.17041 0.83188 0.45455 0.0
Mg4 Mg 0.19067 0.07869 0.46593 0.0
O5 O 0.11313 0.96799 0.40972 0.0
Mg6 Mg -0.02703 -0.02995 0.46607 0.0
O7 O 0.83144 -0.02881 0.52016 0.0
Mg8 Mg 0.77071 0.84126 0.45661 0.0
Mg9 Mg 0.75283 0.09391 0.48962 0.0
C10 C 0.00224 0.20748 0.37896 0.0
O11 O 0.01656 0.10614 0.59299 0.0
O12 O 0.29903 0.88487 0.33254 0.0
O13 O 0.8741 0.19927 0.55456 0.0
O14 O 0.26513 0.87823 0.61072 0.0
O15 O 0.31479 0.05747 0.36646 0.0
O16 O 0.21613 0.0416 0.62372 0.0
O17 O 0.91844 0.83081 0.35014 0.0
O18 O 0.07947 0.78457 0.31501 0.0
C19 C -0.018 0.76812 0.30511 0.0
C20 C 0.3322 -0.02278 0.30951 0.0
O21 O 0.94289 0.12433 0.36865 0.0
O22 O 0.65195 0.89308 0.58434 0.0
O23 O 0.0936 0.20495 0.42136 0.0
O24 O 0.69254 0.9195 0.33442 0.0
O25 O 0.64596 0.06697 0.61325 0.0
O26 O 0.68064 0.08833 0.32428 0.0
O27 O 0.01579 0.81352 0.55468 0.0
O28 O 0.8529 0.75319 0.57047 0.0
C29 C 0.25393 0.96126 0.6652 0.0
C30 C 0.96449 0.19096 0.59945 0.0
C31 C 0.30311 -0.01704 0.7694 0.0
C32 C 0.30789 0.33294 -0.02203 0.0
C33 C 0.66342 0.25536 0.9619 0.0
Mg34 Mg 0.45559 0.77147 0.84173 0.0
Mg35 Mg 0.48846 0.75343 0.09437 0.0
O36 O 0.51924 0.83213 -0.02832 0.0
Mg37 Mg 0.46532 -0.02617 -0.02938 0.0
O38 O 0.40886 0.11387 -0.03119 0.0
Mg39 Mg 0.45276 0.17123 0.83263 0.0
Mg40 Mg 0.46441 0.19164 0.07956 0.0
C41 C 0.59833 0.9652 0.19155 0.0
O42 O 0.36765 0.94345 0.12487 0.0
O43 O 0.58282 0.65227 0.89377 0.0
O44 O 0.42022 0.09418 0.20562 0.0
O45 O 0.33292 0.69361 0.91976 0.0
O46 O 0.61204 0.64647 0.06759 0.0
O47 O 0.32298 0.68133 0.08858 0.0
O48 O 0.55385 0.01696 0.81386 0.0
O49 O 0.56987 0.85367 0.75421 0.0
C50 C 0.57698 0.9507 0.73998 0.0
C51 C 0.63724 0.62381 -0.02555 0.0
O52 O 0.59192 0.0174 0.10681 0.0
O53 O 0.3311 0.29994 0.88566 0.0
O54 O 0.55345 0.87472 0.19978 0.0
O55 O 0.60919 0.26579 0.87857 0.0
O56 O 0.36449 0.31525 0.05835 0.0
O57 O 0.62185 0.21817 0.0425 0.0
O58 O 0.35061 0.91993 0.83073 0.0
O59 O 0.31215 0.08042 0.78647 0.0
C60 C 0.28346 0.66427 -0.00307 0.0
C61 C 0.37787 0.00274 0.20807 0.0
C62 C 0.73852 0.5774 0.95108 0.0
C63 C -0.0268 0.63819 0.62461 0.0
C64 C -0.00404 0.28442 0.66435 0.0
Mg65 Mg 0.83119 0.45335 0.17152 0.0
Mg66 Mg 0.0778 0.46554 0.19172 0.0
O67 O -0.03266 0.40912 0.11419 0.0
Mg68 Mg -0.03075 0.46557 -0.02597 0.0
O69 O -0.02963 0.51973 0.83252 0.0
Mg70 Mg 0.84052 0.45606 0.77182 0.0
Mg71 Mg 0.09313 0.48922 0.75388 0.0
C72 C 0.20656 0.37871 0.00324 0.0
O73 O 0.10527 0.59268 0.01759 0.0
O74 O 0.88438 0.33178 0.30029 0.0
O75 O 0.19844 0.55429 0.87509 0.0
O76 O 0.87708 0.60979 0.26617 0.0
O77 O 0.05687 0.366 0.31593 0.0
O78 O 0.04031 0.62321 0.21686 0.0
O79 O 0.82998 0.34976 0.91957 0.0
O80 O 0.7855 0.31292 0.08064 0.0
C81 C 0.76776 0.30428 -0.01672 0.0
C82 C -0.02329 0.30894 0.33343 0.0
O83 O 0.1235 0.36829 0.94387 0.0
O84 O 0.89251 0.58378 0.65313 0.0
O85 O 0.20397 0.4212 0.09458 0.0
O86 O 0.91886 0.33385 0.69374 0.0
O87 O 0.06631 0.61289 0.64704 0.0
O88 O 0.08761 0.32379 0.68168 0.0
O89 O 0.81248 0.55368 0.01692 0.0
O90 O 0.75235 0.56991 0.85403 0.0
C91 C 0.95998 0.66448 0.25484 0.0
C92 C 0.19007 0.59924 0.96548 0.0
loop_
_geom_bond_atom_site_label_1
_geom_bond_atom_site_label_2
_geom_bond_distance
_geom_bond_site_symmetry_2
_ccdc_geom_bond_type
C0 O27 1.312 1_655 S
C0 O28 1.208 . S
C1 O22 1.331 . S
C1 O25 1.244 1_565 S
C2 O24 1.264 1_545 S
C2 O26 1.273 . S
Mg3 O5 1.936 1_565 S
Mg3 O12 2.081 . S
Mg3 O14 2.023 . S
Mg3 O18 2.031 . S
Mg3 O27 2.291 . S
Mg4 O5 1.963 . S
Mg4 O15 1.942 . S
Mg4 O16 1.955 . S
Mg4 O23 1.986 . S
O5 Mg3 1.936 1_545 S
O5 Mg4 1.963 . S
O5 Mg6 1.915 . S
Mg6 O5 1.915 . S
Mg6 O7 1.915 1_455 S
Mg6 O11 2.013 . S
Mg6 O17 2.114 1_445 S
Mg6 O21 2.013 1_455 S
Mg6 O27 2.114 1_545 S
O7 Mg6 1.915 1_655 S
O7 Mg8 1.936 1_545 S
O7 Mg9 1.963 . S
Mg8 O7 1.936 1_565 S
Mg8 O17 2.291 . S
Mg8 O22 2.081 . S
Mg8 O24 2.023 . S
Mg8 O28 2.031 . S
Mg9 O7 1.963 . S
Mg9 O13 1.986 . S
Mg9 O25 1.942 . S
Mg9 O26 1.955 . S
C10 O21 1.191 1_455 S
C10 O23 1.307 . S
O11 Mg6 2.013 . S
O11 C30 1.191 1_455 S
O12 Mg3 2.081 . S
O12 C20 1.331 . S
O13 Mg9 1.986 . S
O13 C30 1.307 . S
O14 Mg3 2.023 . S
O14 C29 1.264 1_565 S
O15 Mg4 1.942 . S
O15 C20 1.244 1_545 S
O16 Mg4 1.955 . S
O16 C29 1.273 . S
O17 Mg6 2.114 1_665 S
O17 Mg8 2.291 . S
O17 C19 1.312 1_655 S
O18 Mg3 2.031 . S
O18 C19 1.208 . S
C19 O17 1.312 1_455 S
C19 O18 1.208 . S
C20 O12 1.331 . S
C20 O15 1.244 1_565 S
O21 Mg6 2.013 1_655 S
O21 C10 1.191 1_655 S
O22 C1 1.331 . S
O22 Mg8 2.081 . S
O23 Mg4 1.986 . S
O23 C10 1.307 . S
O24 C2 1.264 1_565 S
O24 Mg8 2.023 . S
O25 C1 1.244 1_545 S
O25 Mg9 1.942 . S
O26 C2 1.273 . S
O26 Mg9 1.955 . S
O27 C0 1.312 1_455 S
O27 Mg3 2.291 . S
O27 Mg6 2.114 1_565 S
O28 C0 1.208 . S
O28 Mg8 2.031 . S
C29 O14 1.264 1_545 S
C29 O16 1.273 . S
C30 O11 1.191 1_655 S
C30 O13 1.307 . S
C31 O58 1.312 1_545 S
C31 O59 1.208 . S
C32 O53 1.331 . S
C32 O56 1.244 1_556 S
C33 O55 1.264 1_554 S
C33 O57 1.273 . S
Mg34 O36 1.936 1_556 S
Mg34 O43 2.081 . S
Mg34 O45 2.023 . S
Mg34 O49 2.031 . S
Mg34 O58 2.291 . S
Mg35 O36 1.963 . S
Mg35 O46 1.942 . S
Mg35 O47 1.955 . S
Mg35 O54 1.986 . S
O36 Mg34 1.936 1_554 S
O36 Mg35 1.963 . S
O36 Mg37 1.915 1_565 S
Mg37 O36 1.915 1_545 S
Mg37 O38 1.915 . S
Mg37 O42 2.013 1_545 S
Mg37 O48 2.114 1_554 S
Mg37 O52 2.013 . S
Mg37 O58 2.114 1_544 S
O38 Mg37 1.915 . S
O38 Mg39 1.936 1_554 S
O38 Mg40 1.963 . S
Mg39 O38 1.936 1_556 S
Mg39 O48 2.291 . S
Mg39 O53 2.081 . S
Mg39 O55 2.023 . S
Mg39 O59 2.031 . S
Mg40 O38 1.963 . S
Mg40 O44 1.986 . S
Mg40 O56 1.942 . S
Mg40 O57 1.955 . S
C41 O52 1.191 1_565 S
C41 O54 1.307 . S
O42 Mg37 2.013 1_565 S
O42 C61 1.191 1_565 S
O43 Mg34 2.081 . S
O43 C51 1.331 . S
O44 Mg40 1.986 . S
O44 C61 1.307 . S
O45 Mg34 2.023 . S
O45 C60 1.264 1_556 S
O46 Mg35 1.942 . S
O46 C51 1.244 1_554 S
O47 Mg35 1.955 . S
O47 C60 1.273 . S
O48 Mg37 2.114 1_556 S
O48 Mg39 2.291 . S
O48 C50 1.312 1_545 S
O49 Mg34 2.031 . S
O49 C50 1.208 . S
C50 O48 1.312 1_565 S
C50 O49 1.208 . S
C51 O43 1.331 . S
C51 O46 1.244 1_556 S
O52 Mg37 2.013 . S
O52 C41 1.191 1_545 S
O53 C32 1.331 . S
O53 Mg39 2.081 . S
O54 Mg35 1.986 . S
O54 C41 1.307 . S
O55 C33 1.264 1_556 S
O55 Mg39 2.023 . S
O56 C32 1.244 1_554 S
O56 Mg40 1.942 . S
O57 C33 1.273 . S
O57 Mg40 1.955 . S
O58 C31 1.312 1_565 S
O58 Mg34 2.291 . S
O58 Mg37 2.114 1_566 S
O59 C31 1.208 . S
O59 Mg39 2.031 . S
C60 O45 1.264 1_554 S
C60 O47 1.273 . S
C61 O42 1.191 1_545 S
C61 O44 1.307 . S
C62 O89 1.312 1_556 S
C62 O90 1.208 . S
C63 O84 1.331 . S
C63 O87 1.244 1_655 S
C64 O86 1.264 1_455 S
C64 O88 1.273 . S
Mg65 O67 1.936 1_655 S
Mg65 O74 2.081 . S
Mg65 O76 2.023 . S
Mg65 O80 2.031 . S
Mg65 O89 2.291 . S
Mg66 O67 1.963 . S
Mg66 O77 1.942 . S
Mg66 O78 1.955 . S
Mg66 O85 1.986 . S
O67 Mg65 1.936 1_455 S
O67 Mg66 1.963 . S
O67 Mg68 1.915 . S
Mg68 O67 1.915 . S
Mg68 O69 1.915 1_554 S
Mg68 O73 2.013 . S
Mg68 O79 2.114 1_454 S
Mg68 O83 2.013 1_554 S
Mg68 O89 2.114 1_455 S
O69 Mg68 1.915 1_556 S
O69 Mg70 1.936 1_455 S
O69 Mg71 1.963 . S
Mg70 O69 1.936 1_655 S
Mg70 O79 2.291 . S
Mg70 O84 2.081 . S
Mg70 O86 2.023 . S
Mg70 O90 2.031 . S
Mg71 O69 1.963 . S
Mg71 O75 1.986 . S
Mg71 O87 1.942 . S
Mg71 O88 1.955 . S
C72 O83 1.191 1_554 S
C72 O85 1.307 . S
O73 Mg68 2.013 . S
O73 C92 1.191 1_554 S
O74 Mg65 2.081 . S
O74 C82 1.331 . S
O75 Mg71 1.986 . S
O75 C92 1.307 . S
O76 Mg65 2.023 . S
O76 C91 1.264 1_655 S
O77 Mg66 1.942 . S
O77 C82 1.244 1_455 S
O78 Mg66 1.955 . S
O78 C91 1.273 . S
O79 Mg68 2.114 1_656 S
O79 Mg70 2.291 . S
O79 C81 1.312 1_556 S
O80 Mg65 2.031 . S
O80 C81 1.208 . S
C81 O79 1.312 1_554 S
C81 O80 1.208 . S
C82 O74 1.331 . S
C82 O77 1.244 1_655 S
O83 Mg68 2.013 1_556 S
O83 C72 1.191 1_556 S
O84 C63 1.331 . S
O84 Mg70 2.081 . S
O85 Mg66 1.986 . S
O85 C72 1.307 . S
O86 C64 1.264 1_655 S
O86 Mg70 2.023 . S
O87 C63 1.244 1_455 S
O87 Mg71 1.942 . S
O88 C64 1.273 . S
O88 Mg71 1.955 . S
O89 C62 1.312 1_554 S
O89 Mg65 2.291 . S
O89 Mg68 2.114 1_655 S
O90 C62 1.208 . S
O90 Mg70 2.031 . S
C91 O76 1.264 1_455 S
C91 O78 1.273 . S
C92 O73 1.191 1_556 S
C92 O75 1.307 . S
C82 C10 1.953 1_655 S
C2 C41 1.873 1_545 S
C19 C91 1.810 . S
C61 C20 1.953 1_545 S
C0 C63 1.799 . S
C31 C29 1.810 . S
C64 C30 1.873 1_455 S
C50 C1 1.799 . S
C72 C32 1.953 1_554 S
C92 C60 1.873 1_556 S
C33 C81 1.810 . S
C62 C51 1.799 . S
