# Generated by pormake.
# Topology reo, (8)-cn, num edge types: 1
# Building blocks:
#     Node 0, Type 0, BuildingBlock: EBIMEJ_clean_sbu_0, # of connection points: 8
#     Node 1, Type 0, BuildingBlock: EBIMEJ_clean_sbu_0, # of connection points: 8
#     Node 2, Type 0, BuildingBlock: EBIMEJ_clean_sbu_0, # of connection points: 8
#     Edge 3, Type (0, 0), BuildingBlock: EYOCIG_clean_linker_4, # of connection points: 2
#     Edge 4, Type (0, 0), BuildingBlock: EYOCIG_clean_linker_4, # of connection points: 2
#     Edge 5, Type (0, 0), BuildingBlock: EYOCIG_clean_linker_4, # of connection points: 2
#     Edge 6, Type (0, 0), BuildingBlock: EYOCIG_clean_linker_4, # of connection points: 2
#     Edge 7, Type (0, 0), BuildingBlock: EYOCIG_clean_linker_4, # of connection points: 2
#     Edge 8, Type (0, 0), BuildingBlock: EYOCIG_clean_linker_4, # of connection points: 2
#     Edge 9, Type (0, 0), BuildingBlock: EYOCIG_clean_linker_4, # of connection points: 2
#     Edge 10, Type (0, 0), BuildingBlock: EYOCIG_clean_linker_4, # of connection points: 2
#     Edge 11, Type (0, 0), BuildingBlock: EYOCIG_clean_linker_4, # of connection points: 2
#     Edge 12, Type (0, 0), BuildingBlock: EYOCIG_clean_linker_4, # of connection points: 2
#     Edge 13, Type (0, 0), BuildingBlock: EYOCIG_clean_linker_4, # of connection points: 2
#     Edge 14, Type (0, 0), BuildingBlock: EYOCIG_clean_linker_4, # of connection points: 2
# Relax obj value: 0.143
# Max RMSD: 0.257
# Mean RMSD: 0.248
data_MOF--net-reo--node1-EBIMEJ_clean_sbu_0--edge1-EYOCIG_clean_linker_4
_symmetry_space_group_name_H-M    P1
_symmetry_Int_Tables_number       1
_symmetry_cell_setting            triclinic
loop_
_symmetry_equiv_pos_as_xyz
'x, y, z'
_cell_length_a     20.383941
_cell_length_b     19.898096
_cell_length_c     20.364931
_cell_angle_alpha  91.305771
_cell_angle_beta   90.039607
_cell_angle_gamma 100.61468
loop_
_atom_site_label
_atom_site_type_symbol
_atom_site_fract_x
_atom_site_fract_y
_atom_site_fract_z
_atom_type_partial_charge
Co0 Co 0.98192 1.02706 0.37539 0.0
Co1 Co 0.0089 0.10649 0.5153 0.0
Co2 Co 1.00678 0.95397 0.50632 0.0
H3 H 0.98527 1.00057 0.45279 0.0
O4 O 0.9589 1.02647 0.46762 0.0
H5 H 0.03065 0.05993 0.5687 0.0
O6 O 0.05696 0.03398 0.55377 0.0
Co7 Co 0.03466 0.03389 0.64611 0.0
O8 O 0.03651 0.1337 0.67116 0.0
O9 O 0.05514 0.18437 0.57335 0.0
O10 O 0.01073 0.93192 0.66072 0.0
O11 O 0.04093 0.88774 0.56493 0.0
O12 O 0.94572 0.03827 0.28276 0.0
O13 O 0.88159 1.01297 0.36239 0.0
O14 O 0.93601 1.01491 0.63967 0.0
O15 O 0.92832 0.10105 0.57384 0.0
C16 C 0.96288 0.87367 0.38545 0.0
C17 C 0.98931 0.17773 0.39516 0.0
C18 C 0.13191 0.03564 0.71642 0.0
C19 C 0.11165 1.0045 0.40645 0.0
C20 C 0.05213 0.18694 0.63646 0.0
C21 C 0.02704 0.88301 0.62653 0.0
C22 C 0.88648 1.02592 0.30263 0.0
C23 C 0.90394 0.05781 0.61685 0.0
O24 O 0.97886 0.92686 0.3507 0.0
O25 O 0.96008 0.87622 0.44856 0.0
O26 O 0.97487 0.17269 0.45662 0.0
O27 O 1.00601 0.12902 0.36096 0.0
O28 O 0.07325 1.0241 0.73788 0.0
O29 O 0.1353 0.04717 0.65632 0.0
O30 O 0.08017 0.04968 0.38773 0.0
O31 O 0.08669 0.9589 0.44703 0.0
Co32 Co 0.64439 0.04932 0.97214 0.0
Co33 Co 0.50287 0.10402 0.99726 0.0
Co34 Co 0.51308 0.95724 0.02552 0.0
H35 H 0.56594 1.01156 0.99034 0.0
O36 O 0.54836 0.03276 0.96058 0.0
H37 H 0.44972 0.0495 0.03182 0.0
O38 O 0.46706 1.0283 0.06176 0.0
Co39 Co 0.37111 1.01159 0.04901 0.0
O40 O 0.34567 0.10192 0.03026 0.0
O41 O 0.44622 0.17139 0.02975 0.0
O42 O 0.35848 0.90939 0.0387 0.0
O43 O 0.45482 0.88297 0.07492 0.0
O44 O 0.73638 0.06223 0.92819 0.0
O45 O 0.64875 0.04745 0.87198 0.0
O46 O 0.35345 1.00412 0.95365 0.0
O47 O 0.44052 0.08123 0.91953 0.0
C48 C 0.63428 0.90023 0.99233 0.0
C49 C 0.62409 0.19406 0.96183 0.0
C50 C 0.30216 1.00389 0.14805 0.0
C51 C 0.631 1.02288 0.11227 0.0
C52 C 0.38197 0.16115 0.0305 0.0
C53 C 0.39213 0.86712 0.06137 0.0
C54 C 0.71119 0.05693 0.87169 0.0
C55 C 0.38561 0.03942 0.9093 0.0
O56 O 0.67044 0.95948 0.99154 0.0
O57 O 0.57003 0.88986 0.99351 0.0
O58 O 0.56139 0.17848 0.94838 0.0
O59 O 0.65775 0.15139 0.98363 0.0
O60 O 0.27821 0.99944 0.09105 0.0
O61 O 0.36456 1.01251 0.14904 0.0
O62 O 0.6629 0.05736 0.06727 0.0
O63 O 0.57582 0.98117 0.10294 0.0
Co64 Co 0.97777 0.66669 1.00812 0.0
Co65 Co 0.99045 0.52247 0.08314 0.0
Co66 Co 0.02609 0.5387 0.93935 0.0
H67 H 0.99253 0.58896 0.98346 0.0
O68 O 0.96036 0.56684 1.00609 0.0
H69 H 0.02396 0.47221 0.03903 0.0
O70 O 0.05613 0.49428 0.01638 0.0
Co71 Co 0.03858 0.39443 0.01441 0.0
O72 O 0.01574 0.36627 0.10818 0.0
O73 O 0.01617 0.46825 0.15845 0.0
O74 O 0.03842 0.38162 0.91489 0.0
O75 O 0.07591 0.48746 0.87683 0.0
O76 O 0.93603 0.75389 1.00832 0.0
O77 O 0.87558 0.65773 0.99983 0.0
O78 O 0.93995 0.37423 0.99618 0.0
O79 O 0.90775 0.45165 0.06484 0.0
C80 C 1.00186 0.65782 0.86259 0.0
C81 C 0.95292 0.63883 0.15303 0.0
C82 C 0.13894 0.34034 0.02025 0.0
C83 C 0.12153 0.66017 0.99865 0.0
C84 C 0.01492 0.40353 0.15995 0.0
C85 C 0.06275 0.422 0.86939 0.0
C86 C 0.87748 0.721 1.00273 0.0
C87 C 0.89491 0.40075 0.02439 0.0
O88 O 1.00089 0.695 0.91441 0.0
O89 O 1.00056 0.59309 0.86404 0.0
O90 O 0.94038 0.57338 0.14561 0.0
O91 O 0.97715 0.67938 0.10763 0.0
O92 O 0.08034 0.3073 0.01594 0.0
O93 O 0.14083 0.40363 0.02162 0.0
O94 O 0.07636 0.68658 0.02675 0.0
O95 O 0.10885 0.60946 0.95792 0.0
C96 C 1.00183 0.33373 0.27017 0.0
C97 C 1.00789 0.3692 0.22211 0.0
C98 C 0.99387 0.28635 0.32217 0.0
C99 C 0.98961 0.2407 0.36123 0.0
C100 C 0.77696 0.031 0.23795 0.0
C101 C 0.82967 1.0299 0.26351 0.0
C102 C 0.71467 1.02735 0.20776 0.0
C103 C 0.66822 1.01998 0.17062 0.0
C104 C 0.94503 0.75955 0.31321 0.0
C105 C 0.95197 0.80853 0.35067 0.0
C106 C 0.9419 0.7079 0.26336 0.0
C107 C 0.9443 0.67032 0.21616 0.0
C108 C 0.23439 0.99514 0.25789 0.0
C109 C 0.2631 0.9988 0.20633 0.0
C110 C 0.20035 0.99201 0.31789 0.0
C111 C 0.16271 0.99134 0.36317 0.0
C112 C 0.02288 0.77475 0.70003 0.0
C113 C 0.02692 0.82016 0.6607 0.0
C114 C 0.01507 0.72761 0.75227 0.0
C115 C 0.00897 0.69224 0.80043 0.0
C116 C 0.30376 0.03611 0.81226 0.0
C117 C 0.34914 0.04298 0.8506 0.0
C118 C 0.24222 0.03241 0.78062 0.0
C119 C 0.18961 0.03295 0.75465 0.0
C120 C 0.07271 0.35257 0.75893 0.0
C121 C 0.0708 0.39028 0.80618 0.0
C122 C 0.06941 0.30096 0.70896 0.0
C123 C 0.06272 0.25207 0.67135 0.0
C124 C 0.77711 0.06614 0.76073 0.0
C125 C 0.74902 0.06227 0.81263 0.0
C126 C 0.8113 0.06962 0.70083 0.0
C127 C 0.8501 0.0707 0.65649 0.0
C128 C 0.24649 0.28322 0.02432 0.0
C129 C 0.19748 0.30935 0.02247 0.0
C130 C 0.30285 0.2509 0.02684 0.0
C131 C 0.3461 0.21681 0.02867 0.0
C132 C 0.24551 0.71457 0.03315 0.0
C133 C 0.18992 0.68784 0.01567 0.0
C134 C 0.30826 0.75322 0.05276 0.0
C135 C 0.35621 0.79805 0.06243 0.0
C136 C 0.70792 0.3079 0.97132 0.0
C137 C 0.66001 0.26312 0.96147 0.0
C138 C 0.77076 0.34642 0.99071 0.0
C139 C 0.82647 0.37308 1.00778 0.0
C140 C 0.76998 0.77831 0.99927 0.0
C141 C 0.81898 0.7521 1.00084 0.0
C142 C 0.71363 0.81068 0.99691 0.0
C143 C 0.67033 0.84472 0.9948 0.0
loop_
_geom_bond_atom_site_label_1
_geom_bond_atom_site_label_2
_geom_bond_distance
_geom_bond_site_symmetry_2
_ccdc_geom_bond_type
Co0 H3 2.400 . S
Co0 O4 2.009 . S
Co0 O12 2.115 1_565 S
Co0 O13 2.315 . S
Co0 O24 2.053 . S
Co0 O27 2.094 1_565 S
Co0 O30 2.122 1_665 S
Co1 O4 2.126 1_545 S
Co1 H5 2.388 1_655 S
Co1 O6 2.053 1_655 S
Co1 O9 2.047 1_655 S
Co1 O15 2.113 . S
Co1 O26 2.063 . S
Co2 H3 2.388 1_455 S
Co2 O4 2.053 1_455 S
Co2 O6 2.126 1_565 S
Co2 O11 2.063 . S
Co2 O25 2.047 1_455 S
Co2 O31 2.113 . S
H3 Co0 2.400 . S
H3 Co2 2.388 1_655 S
H3 O4 0.760 . S
O4 Co0 2.009 . S
O4 Co1 2.126 1_565 S
O4 Co2 2.053 1_655 S
O4 H3 0.760 . S
H5 Co1 2.388 1_455 S
H5 O6 0.760 . S
H5 Co7 2.400 . S
O6 Co1 2.053 1_455 S
O6 Co2 2.126 1_545 S
O6 H5 0.760 . S
O6 Co7 2.009 . S
Co7 H5 2.400 . S
Co7 O6 2.009 . S
Co7 O8 2.053 . S
Co7 O10 2.094 1_545 S
Co7 O14 2.122 1_445 S
Co7 O28 2.115 . S
Co7 O29 2.315 . S
O8 Co7 2.053 . S
O8 C20 1.259 . S
O9 Co1 2.047 1_455 S
O9 C20 1.257 . S
O10 Co7 2.094 1_565 S
O10 C21 1.253 . S
O11 Co2 2.063 . S
O11 C21 1.268 . S
O12 Co0 2.115 1_545 S
O12 C22 1.281 1_545 S
O13 Co0 2.315 . S
O13 C22 1.252 . S
O14 Co7 2.122 1_665 S
O14 C23 1.272 1_565 S
O15 Co1 2.113 . S
O15 C23 1.245 . S
C16 O24 1.259 . S
C16 O25 1.257 . S
C17 O26 1.268 . S
C17 O27 1.253 . S
C18 O28 1.281 . S
C18 O29 1.252 . S
C19 O30 1.272 1_565 S
C19 O31 1.245 . S
C20 O8 1.259 . S
C20 O9 1.257 . S
C21 O10 1.253 . S
C21 O11 1.268 . S
C22 O12 1.281 1_565 S
C22 O13 1.252 . S
C23 O14 1.272 1_545 S
C23 O15 1.245 . S
O24 Co0 2.053 . S
O24 C16 1.259 . S
O25 Co2 2.047 1_655 S
O25 C16 1.257 . S
O26 Co1 2.063 . S
O26 C17 1.268 . S
O27 Co0 2.094 1_545 S
O27 C17 1.253 . S
O28 Co7 2.115 . S
O28 C18 1.281 . S
O29 Co7 2.315 . S
O29 C18 1.252 . S
O30 Co0 2.122 1_445 S
O30 C19 1.272 1_545 S
O31 Co2 2.113 . S
O31 C19 1.245 . S
Co32 H35 2.400 1_545 S
Co32 O36 2.010 1_545 S
Co32 O44 2.115 . S
Co32 O45 2.315 . S
Co32 O56 2.053 1_545 S
Co32 O59 2.094 . S
Co32 O62 2.122 1_556 S
Co33 O36 2.117 1_545 S
Co33 H37 2.388 1_556 S
Co33 O38 2.063 1_556 S
Co33 O41 2.047 1_556 S
Co33 O47 2.113 . S
Co33 O58 2.063 . S
Co34 H35 2.388 1_554 S
Co34 O36 2.060 1_554 S
Co34 O38 2.113 1_565 S
Co34 O43 2.063 . S
Co34 O57 2.047 1_554 S
Co34 O63 2.113 . S
H35 Co32 2.400 1_565 S
H35 Co34 2.388 1_556 S
H35 O36 0.761 . S
O36 Co32 2.010 1_565 S
O36 Co33 2.117 1_565 S
O36 Co34 2.060 1_556 S
O36 H35 0.761 . S
H37 Co33 2.388 1_554 S
H37 O38 0.761 . S
H37 Co39 2.400 1_545 S
O38 Co33 2.063 1_554 S
O38 Co34 2.113 1_545 S
O38 H37 0.761 . S
O38 Co39 2.011 1_545 S
Co39 H37 2.400 1_565 S
Co39 O38 2.011 1_565 S
Co39 O40 2.053 1_565 S
Co39 O42 2.094 . S
Co39 O46 2.122 1_554 S
Co39 O60 2.115 . S
Co39 O61 2.315 . S
O40 Co39 2.053 1_545 S
O40 C52 1.259 . S
O41 Co33 2.047 1_554 S
O41 C52 1.257 . S
O42 Co39 2.094 . S
O42 C53 1.253 . S
O43 Co34 2.063 . S
O43 C53 1.268 . S
O44 Co32 2.115 . S
O44 C54 1.281 . S
O45 Co32 2.315 . S
O45 C54 1.252 . S
O46 Co39 2.122 1_556 S
O46 C55 1.272 1_565 S
O47 Co33 2.113 . S
O47 C55 1.245 . S
C48 O56 1.259 . S
C48 O57 1.257 . S
C49 O58 1.268 . S
C49 O59 1.253 . S
C50 O60 1.281 . S
C50 O61 1.252 . S
C51 O62 1.272 1_565 S
C51 O63 1.245 . S
C52 O40 1.259 . S
C52 O41 1.257 . S
C53 O42 1.253 . S
C53 O43 1.268 . S
C54 O44 1.281 . S
C54 O45 1.252 . S
C55 O46 1.272 1_545 S
C55 O47 1.245 . S
O56 Co32 2.053 1_565 S
O56 C48 1.259 . S
O57 Co34 2.047 1_556 S
O57 C48 1.257 . S
O58 Co33 2.063 . S
O58 C49 1.268 . S
O59 Co32 2.094 . S
O59 C49 1.253 . S
O60 Co39 2.115 . S
O60 C50 1.281 . S
O61 Co39 2.315 . S
O61 C50 1.252 . S
O62 Co32 2.122 1_554 S
O62 C51 1.272 1_545 S
O63 Co34 2.113 . S
O63 C51 1.245 . S
Co64 H67 2.399 1_554 S
Co64 O68 2.009 1_554 S
Co64 O76 2.116 . S
Co64 O77 2.317 . S
Co64 O88 2.034 1_554 S
Co64 O91 2.112 . S
Co64 O94 2.123 1_655 S
Co65 O68 2.126 1_554 S
Co65 H69 2.388 1_655 S
Co65 O70 2.053 1_655 S
Co65 O73 2.047 1_655 S
Co65 O79 2.113 . S
Co65 O90 2.063 . S
Co66 H67 2.388 1_455 S
Co66 O68 2.053 1_455 S
Co66 O70 2.126 1_556 S
Co66 O75 2.063 . S
Co66 O89 2.047 1_455 S
Co66 O95 2.113 . S
H67 Co64 2.399 1_556 S
H67 Co66 2.388 1_655 S
H67 O68 0.760 . S
O68 Co64 2.009 1_556 S
O68 Co65 2.126 1_556 S
O68 Co66 2.053 1_655 S
O68 H67 0.760 . S
H69 Co65 2.388 1_455 S
H69 O70 0.760 . S
H69 Co71 2.400 1_554 S
O70 Co65 2.053 1_455 S
O70 Co66 2.126 1_554 S
O70 H69 0.760 . S
O70 Co71 2.009 1_554 S
Co71 H69 2.400 1_556 S
Co71 O70 2.009 1_556 S
Co71 O72 2.038 1_556 S
Co71 O74 2.108 . S
Co71 O78 2.123 1_455 S
Co71 O92 2.116 . S
Co71 O93 2.316 . S
O72 Co71 2.038 1_554 S
O72 C84 1.259 . S
O73 Co65 2.047 1_455 S
O73 C84 1.257 . S
O74 Co71 2.108 . S
O74 C85 1.253 . S
O75 Co66 2.063 . S
O75 C85 1.268 . S
O76 Co64 2.116 . S
O76 C86 1.281 . S
O77 Co64 2.317 . S
O77 C86 1.252 . S
O78 Co71 2.123 1_655 S
O78 C87 1.272 1_556 S
O79 Co65 2.113 . S
O79 C87 1.245 . S
C80 O88 1.259 . S
C80 O89 1.257 . S
C81 O90 1.268 . S
C81 O91 1.253 . S
C82 O92 1.281 . S
C82 O93 1.252 . S
C83 O94 1.272 1_556 S
C83 O95 1.245 . S
C84 O72 1.259 . S
C84 O73 1.257 . S
C85 O74 1.253 . S
C85 O75 1.268 . S
C86 O76 1.281 . S
C86 O77 1.252 . S
C87 O78 1.272 1_554 S
C87 O79 1.245 . S
O88 Co64 2.034 1_556 S
O88 C80 1.259 . S
O89 Co66 2.047 1_655 S
O89 C80 1.257 . S
O90 Co65 2.063 . S
O90 C81 1.268 . S
O91 Co64 2.112 . S
O91 C81 1.253 . S
O92 Co71 2.116 . S
O92 C82 1.281 . S
O93 Co71 2.316 . S
O93 C82 1.252 . S
O94 Co64 2.123 1_455 S
O94 C83 1.272 1_554 S
O95 Co66 2.113 . S
O95 C83 1.245 . S
C96 C97 1.170 1_655 S
C96 C98 1.380 . S
C97 C96 1.170 1_455 S
C98 C96 1.380 . S
C98 C99 1.170 . S
C99 C98 1.170 . S
C100 C101 1.170 . S
C100 C102 1.380 1_545 S
C101 C100 1.170 . S
C102 C100 1.380 1_565 S
C102 C103 1.170 . S
C103 C102 1.170 . S
C104 C105 1.170 . S
C104 C106 1.380 . S
C105 C104 1.170 . S
C106 C104 1.380 . S
C106 C107 1.170 . S
C107 C106 1.170 . S
C108 C109 1.170 . S
C108 C110 1.380 . S
C109 C108 1.170 . S
C110 C108 1.380 . S
C110 C111 1.170 . S
C111 C110 1.170 . S
C112 C113 1.170 . S
C112 C114 1.380 . S
C113 C112 1.170 . S
C114 C112 1.380 . S
C114 C115 1.170 . S
C115 C114 1.170 . S
C116 C117 1.170 . S
C116 C118 1.380 . S
C117 C116 1.170 . S
C118 C116 1.380 . S
C118 C119 1.170 1_545 S
C119 C118 1.170 1_565 S
C120 C121 1.170 . S
C120 C122 1.380 . S
C121 C120 1.170 . S
C122 C120 1.380 . S
C122 C123 1.170 . S
C123 C122 1.170 . S
C124 C125 1.170 . S
C124 C126 1.380 . S
C125 C124 1.170 . S
C126 C124 1.380 . S
C126 C127 1.170 . S
C127 C126 1.170 . S
C128 C129 1.171 . S
C128 C130 1.379 1_556 S
C129 C128 1.171 . S
C130 C128 1.379 1_554 S
C130 C131 1.170 . S
C131 C130 1.170 . S
C132 C133 1.170 1_554 S
C132 C134 1.380 . S
C133 C132 1.170 1_556 S
C134 C132 1.380 . S
C134 C135 1.170 . S
C135 C134 1.170 . S
C136 C137 1.170 . S
C136 C138 1.380 . S
C137 C136 1.170 . S
C138 C136 1.380 . S
C138 C139 1.170 1_556 S
C139 C138 1.170 1_554 S
C140 C141 1.170 . S
C140 C142 1.380 1_554 S
C141 C140 1.170 . S
C142 C140 1.380 1_556 S
C142 C143 1.170 . S
C143 C142 1.170 . S
C97 C84 2.078 . S
C99 C17 1.965 . S
C101 C22 1.215 1_545 S
C103 C51 1.127 . S
C105 C16 1.633 . S
C107 C81 1.597 . S
C109 C50 1.600 . S
C111 C19 1.499 . S
C113 C21 1.982 . S
C115 C80 2.061 1_455 S
C117 C55 1.169 . S
C119 C18 1.163 1_565 S
C121 C85 1.562 . S
C123 C20 1.626 . S
C125 C54 1.590 . S
C127 C23 1.550 . S
C129 C82 1.961 . S
C131 C52 1.971 . S
C133 C83 1.251 . S
C135 C53 1.235 . S
C137 C49 1.209 . S
C139 C87 1.280 . S
C141 C86 1.993 . S
C143 C48 1.955 . S
