# Generated by pormake.
# Topology utp, (3)-cn, num edge types: 1
# Building blocks:
#     Node 0, Type 0, BuildingBlock: OLANEW_clean_sbu_2, # of connection points: 3
#     Node 1, Type 0, BuildingBlock: OLANEW_clean_sbu_2, # of connection points: 3
#     Node 2, Type 0, BuildingBlock: OLANEW_clean_sbu_2, # of connection points: 3
#     Node 3, Type 0, BuildingBlock: OLANEW_clean_sbu_2, # of connection points: 3
#     Node 4, Type 0, BuildingBlock: OLANEW_clean_sbu_2, # of connection points: 3
#     Node 5, Type 0, BuildingBlock: OLANEW_clean_sbu_2, # of connection points: 3
#     Node 6, Type 0, BuildingBlock: OLANEW_clean_sbu_2, # of connection points: 3
#     Node 7, Type 0, BuildingBlock: OLANEW_clean_sbu_2, # of connection points: 3
#     Edge 8, Type (0, 0), None
#     Edge 9, Type (0, 0), None
#     Edge 10, Type (0, 0), None
#     Edge 11, Type (0, 0), None
#     Edge 12, Type (0, 0), None
#     Edge 13, Type (0, 0), None
#     Edge 14, Type (0, 0), None
#     Edge 15, Type (0, 0), None
#     Edge 16, Type (0, 0), None
#     Edge 17, Type (0, 0), None
#     Edge 18, Type (0, 0), None
#     Edge 19, Type (0, 0), None
# Relax obj value: 0.000
# Max RMSD: 0.000
# Mean RMSD: 0.000
data_MOF--net-utp--node1-OLANEW_clean_sbu_2--edge1-none
_symmetry_space_group_name_H-M    P1
_symmetry_Int_Tables_number       1
_symmetry_cell_setting            triclinic
loop_
_symmetry_equiv_pos_as_xyz
'x, y, z'
_cell_length_a     17.673628
_cell_length_b     21.718687
_cell_length_c     22.070601
_cell_angle_alpha  90.000107
_cell_angle_beta   90.000155
_cell_angle_gamma 89.998897
loop_
_atom_site_label
_atom_site_type_symbol
_atom_site_fract_x
_atom_site_fract_y
_atom_site_fract_z
_atom_type_partial_charge
O0 O 0.20369 0.05901 0.31848 0.0
Cd1 Cd 0.08749 0.11995 0.31715 0.0
O2 O 0.18314 0.04345 0.2222 0.0
Cd3 Cd 0.18538 1.00331 0.1316 0.0
O4 O 0.12198 0.98878 0.04791 0.0
C5 C 0.10265 0.93516 0.03108 0.0
O6 O 0.12565 0.88709 0.06212 0.0
C7 C 0.22295 0.03339 0.2691 0.0
C8 C 0.09824 0.23201 0.25664 0.0
O9 O 0.10443 0.22944 0.31443 0.0
O10 O 0.08848 0.18176 0.22728 0.0
O11 O 0.30594 0.96435 0.31845 0.0
Cd12 Cd 0.42213 0.9034 0.31706 0.0
O13 O 0.32646 0.97995 0.22217 0.0
Cd14 Cd 0.3242 0.02013 0.13159 0.0
O15 O 0.38759 0.03469 0.0479 0.0
C16 C 0.40695 0.08832 0.03111 0.0
O17 O 0.384 0.13637 0.06219 0.0
C18 C 0.28667 0.98999 0.26909 0.0
C19 C 0.41134 0.79135 0.25656 0.0
O20 O 0.4052 0.79392 0.31434 0.0
O21 O 0.42108 0.8416 0.22719 0.0
O22 O 0.20364 0.46435 0.16318 0.0
Cd23 Cd 0.08745 0.40341 0.16457 0.0
O24 O 0.18313 0.47995 0.25946 0.0
Cd25 Cd 0.18539 0.52014 0.35003 0.0
O26 O 0.122 0.5347 0.43372 0.0
C27 C 0.10261 0.58833 0.45049 0.0
O28 O 0.12555 0.63638 0.4194 0.0
C29 C 0.22292 0.48999 0.21254 0.0
C30 C 0.09823 0.29135 0.22507 0.0
O31 O 0.10437 0.29392 0.16728 0.0
O32 O 0.0885 0.3416 0.25444 0.0
O33 O 0.3059 0.559 0.16314 0.0
Cd34 Cd 0.42208 0.61995 0.16447 0.0
O35 O 0.32644 0.54345 0.25943 0.0
Cd36 Cd 0.32421 0.50331 0.35002 0.0
O37 O 0.38762 0.48879 0.43371 0.0
C38 C 0.40693 0.43516 0.45055 0.0
O39 O 0.38391 0.38709 0.41953 0.0
C40 C 0.28664 0.53338 0.21252 0.0
C41 C 0.41133 0.732 0.22498 0.0
O42 O 0.40514 0.72943 0.16719 0.0
O43 O 0.42109 0.68175 0.25434 0.0
O44 O 0.67927 0.95935 0.86215 0.0
Cd45 Cd 0.65916 0.84843 0.87537 0.0
O46 O 0.79893 0.93956 0.87847 0.0
Cd47 Cd 0.91542 0.96343 0.9022 0.0
O48 O 0.01516 0.97491 0.95958 0.0
C49 C 0.04606 0.92775 0.98303 0.0
O50 O 0.02009 0.87272 0.96978 0.0
C51 C 0.74663 0.97856 0.86887 0.0
C52 C 0.65928 0.78017 0.76864 0.0
O53 O 0.59713 0.7997 0.79154 0.0
O54 O 0.72143 0.79351 0.79548 0.0
O55 O 0.83029 0.06415 0.86215 0.0
Cd56 Cd 0.85041 0.17508 0.87537 0.0
O57 O 0.71064 0.08395 0.87847 0.0
Cd58 Cd 0.59415 0.06008 0.9022 0.0
O59 O 0.49441 0.04859 0.95957 0.0
C60 C 0.46354 0.09574 0.98307 0.0
O61 O 0.48954 0.15077 0.96986 0.0
C62 C 0.76294 0.04495 0.86887 0.0
C63 C 0.8503 0.24334 0.76864 0.0
O64 O 0.91245 0.22381 0.79155 0.0
O65 O 0.78815 0.23 0.79547 0.0
O66 O 0.67929 0.56415 0.61947 0.0
Cd67 Cd 0.65916 0.67508 0.60625 0.0
O68 O 0.79895 0.58395 0.60315 0.0
Cd69 Cd 0.91544 0.56008 0.57943 0.0
O70 O 0.01518 0.5486 0.52205 0.0
C71 C 0.04603 0.59576 0.49854 0.0
O72 O 0.02 0.65077 0.51174 0.0
C73 C 0.74665 0.54495 0.61275 0.0
C74 C 0.65928 0.74334 0.71298 0.0
O75 O 0.59714 0.72381 0.69008 0.0
O76 O 0.72143 0.73 0.68614 0.0
O77 O 0.83032 0.45936 0.61947 0.0
Cd78 Cd 0.85045 0.34843 0.60625 0.0
O79 O 0.71067 0.43956 0.60315 0.0
Cd80 Cd 0.59417 0.46343 0.57942 0.0
O81 O 0.49444 0.47491 0.52205 0.0
C82 C 0.46352 0.42775 0.4986 0.0
O83 O 0.48947 0.37273 0.51187 0.0
C84 C 0.76296 0.47856 0.61275 0.0
C85 C 0.85031 0.28017 0.71298 0.0
O86 O 0.91246 0.2997 0.69009 0.0
O87 O 0.78817 0.29351 0.68613 0.0
loop_
_geom_bond_atom_site_label_1
_geom_bond_atom_site_label_2
_geom_bond_distance
_geom_bond_site_symmetry_2
_ccdc_geom_bond_type
O0 Cd1 2.300 . S
O0 C7 1.275 . S
Cd1 O0 2.300 . S
Cd1 O9 2.381 . S
Cd1 O10 2.378 . S
O2 Cd3 2.385 1_554 S
O2 C7 1.255 . S
Cd3 O2 2.385 1_556 S
Cd3 O4 2.317 1_556 S
O4 Cd3 2.317 1_554 S
O4 C5 1.232 1_554 S
C5 O4 1.232 1_556 S
C5 O6 1.218 1_545 S
O6 C5 1.218 1_565 S
C7 O0 1.275 . S
C7 O2 1.255 . S
C8 O9 1.258 . S
C8 O10 1.256 . S
O9 Cd1 2.381 . S
O9 C8 1.258 . S
O10 Cd1 2.378 . S
O10 C8 1.256 . S
O11 Cd12 2.300 . S
O11 C18 1.275 . S
Cd12 O11 2.300 . S
Cd12 O20 2.381 . S
Cd12 O21 2.378 . S
O13 Cd14 2.385 1_554 S
O13 C18 1.255 . S
Cd14 O13 2.385 1_556 S
Cd14 O15 2.317 1_556 S
O15 Cd14 2.317 1_554 S
O15 C16 1.232 1_554 S
C16 O15 1.232 1_556 S
C16 O17 1.218 1_565 S
O17 C16 1.218 1_545 S
C18 O11 1.275 . S
C18 O13 1.255 . S
C19 O20 1.258 . S
C19 O21 1.256 . S
O20 Cd12 2.381 . S
O20 C19 1.258 . S
O21 Cd12 2.378 . S
O21 C19 1.256 . S
O22 Cd23 2.300 . S
O22 C29 1.275 . S
Cd23 O22 2.300 . S
Cd23 O31 2.381 . S
Cd23 O32 2.378 . S
O24 Cd25 2.385 . S
O24 C29 1.255 . S
Cd25 O24 2.385 . S
Cd25 O26 2.317 . S
O26 Cd25 2.317 . S
O26 C27 1.232 . S
C27 O26 1.232 . S
C27 O28 1.218 . S
O28 C27 1.218 . S
C29 O22 1.275 . S
C29 O24 1.255 . S
C30 O31 1.258 . S
C30 O32 1.256 . S
O31 Cd23 2.381 . S
O31 C30 1.258 . S
O32 Cd23 2.378 . S
O32 C30 1.256 . S
O33 Cd34 2.300 . S
O33 C40 1.275 . S
Cd34 O33 2.300 . S
Cd34 O42 2.381 . S
Cd34 O43 2.378 . S
O35 Cd36 2.385 . S
O35 C40 1.255 . S
Cd36 O35 2.385 . S
Cd36 O37 2.317 . S
O37 Cd36 2.317 . S
O37 C38 1.232 . S
C38 O37 1.232 . S
C38 O39 1.218 . S
O39 C38 1.218 . S
C40 O33 1.275 . S
C40 O35 1.255 . S
C41 O42 1.258 . S
C41 O43 1.256 . S
O42 Cd34 2.381 . S
O42 C41 1.258 . S
O43 Cd34 2.378 . S
O43 C41 1.256 . S
O44 Cd45 2.300 . S
O44 C51 1.275 . S
Cd45 O44 2.300 . S
Cd45 O53 2.381 . S
Cd45 O54 2.378 . S
O46 Cd47 2.384 . S
O46 C51 1.256 1_545 S
Cd47 O46 2.384 . S
Cd47 O48 2.317 1_545 S
O48 Cd47 2.317 1_565 S
O48 C49 1.232 1_565 S
C49 O48 1.232 1_545 S
C49 O50 1.218 . S
O50 C49 1.218 . S
C51 O44 1.275 . S
C51 O46 1.256 1_565 S
C52 O53 1.258 . S
C52 O54 1.256 . S
O53 Cd45 2.381 . S
O53 C52 1.258 . S
O54 Cd45 2.378 . S
O54 C52 1.256 . S
O55 Cd56 2.300 . S
O55 C62 1.275 . S
Cd56 O55 2.300 . S
Cd56 O64 2.381 . S
Cd56 O65 2.378 . S
O57 Cd58 2.386 1_545 S
O57 C62 1.255 . S
Cd58 O57 2.386 1_565 S
Cd58 O59 2.317 1_565 S
O59 Cd58 2.317 1_545 S
O59 C60 1.232 1_545 S
C60 O59 1.232 1_565 S
C60 O61 1.218 . S
O61 C60 1.218 . S
C62 O55 1.275 . S
C62 O57 1.255 . S
C63 O64 1.258 . S
C63 O65 1.256 . S
O64 Cd56 2.381 . S
O64 C63 1.258 . S
O65 Cd56 2.378 . S
O65 C63 1.256 . S
O66 Cd67 2.300 . S
O66 C73 1.275 . S
Cd67 O66 2.300 . S
Cd67 O75 2.381 . S
Cd67 O76 2.378 . S
O68 Cd69 2.385 . S
O68 C73 1.255 . S
Cd69 O68 2.385 . S
Cd69 O70 2.317 . S
O70 Cd69 2.317 . S
O70 C71 1.232 . S
C71 O70 1.232 . S
C71 O72 1.218 . S
O72 C71 1.218 . S
C73 O66 1.275 . S
C73 O68 1.255 . S
C74 O75 1.258 . S
C74 O76 1.256 . S
O75 Cd67 2.381 . S
O75 C74 1.258 . S
O76 Cd67 2.378 . S
O76 C74 1.256 . S
O77 Cd78 2.300 . S
O77 C84 1.275 . S
Cd78 O77 2.300 . S
Cd78 O86 2.381 . S
Cd78 O87 2.378 . S
O79 Cd80 2.385 . S
O79 C84 1.255 . S
Cd80 O79 2.385 . S
Cd80 O81 2.317 . S
O81 Cd80 2.317 . S
O81 C82 1.232 . S
C82 O81 1.232 . S
C82 O83 1.218 . S
O83 C82 1.218 . S
C84 O77 1.275 . S
C84 O79 1.255 . S
C85 O86 1.258 . S
C85 O87 1.256 . S
O86 Cd78 2.381 . S
O86 C85 1.258 . S
O87 Cd78 2.378 . S
O87 C85 1.256 . S
C8 C30 1.492 . S
C19 C41 1.491 . S
C52 C74 1.486 . S
C85 C63 1.486 . S
C18 C7 1.524 1_565 S
C40 C29 1.524 . S
C62 C51 1.333 1_545 S
C84 C73 1.333 . S
C49 C5 0.880 1_655 S
C16 C60 0.879 . S
C71 C27 0.880 1_655 S
C38 C82 0.879 . S
