# Generated by pormake.
# Topology upa, (4)-cn, num edge types: 1
# Building blocks:
#     Node 0, Type 0, BuildingBlock: QUQFOY_clean_sbu_3, # of connection points: 4
#     Node 1, Type 0, BuildingBlock: QUQFOY_clean_sbu_3, # of connection points: 4
#     Node 2, Type 0, BuildingBlock: QUQFOY_clean_sbu_3, # of connection points: 4
#     Node 3, Type 0, BuildingBlock: QUQFOY_clean_sbu_3, # of connection points: 4
#     Node 4, Type 0, BuildingBlock: QUQFOY_clean_sbu_3, # of connection points: 4
#     Node 5, Type 0, BuildingBlock: QUQFOY_clean_sbu_3, # of connection points: 4
#     Node 6, Type 0, BuildingBlock: QUQFOY_clean_sbu_3, # of connection points: 4
#     Node 7, Type 0, BuildingBlock: QUQFOY_clean_sbu_3, # of connection points: 4
#     Edge 8, Type (0, 0), BuildingBlock: EYOCIG_clean_linker_4, # of connection points: 2
#     Edge 9, Type (0, 0), BuildingBlock: EYOCIG_clean_linker_4, # of connection points: 2
#     Edge 10, Type (0, 0), BuildingBlock: EYOCIG_clean_linker_4, # of connection points: 2
#     Edge 11, Type (0, 0), BuildingBlock: EYOCIG_clean_linker_4, # of connection points: 2
#     Edge 12, Type (0, 0), BuildingBlock: EYOCIG_clean_linker_4, # of connection points: 2
#     Edge 13, Type (0, 0), BuildingBlock: EYOCIG_clean_linker_4, # of connection points: 2
#     Edge 14, Type (0, 0), BuildingBlock: EYOCIG_clean_linker_4, # of connection points: 2
#     Edge 15, Type (0, 0), BuildingBlock: EYOCIG_clean_linker_4, # of connection points: 2
#     Edge 16, Type (0, 0), BuildingBlock: EYOCIG_clean_linker_4, # of connection points: 2
#     Edge 17, Type (0, 0), BuildingBlock: EYOCIG_clean_linker_4, # of connection points: 2
#     Edge 18, Type (0, 0), BuildingBlock: EYOCIG_clean_linker_4, # of connection points: 2
#     Edge 19, Type (0, 0), BuildingBlock: EYOCIG_clean_linker_4, # of connection points: 2
#     Edge 20, Type (0, 0), BuildingBlock: EYOCIG_clean_linker_4, # of connection points: 2
#     Edge 21, Type (0, 0), BuildingBlock: EYOCIG_clean_linker_4, # of connection points: 2
#     Edge 22, Type (0, 0), BuildingBlock: EYOCIG_clean_linker_4, # of connection points: 2
#     Edge 23, Type (0, 0), BuildingBlock: EYOCIG_clean_linker_4, # of connection points: 2
# Relax obj value: 0.208
# Max RMSD: 0.129
# Mean RMSD: 0.129
data_MOF--net-upa--node1-QUQFOY_clean_sbu_3--edge1-EYOCIG_clean_linker_4
_symmetry_space_group_name_H-M    P1
_symmetry_Int_Tables_number       1
_symmetry_cell_setting            triclinic
loop_
_symmetry_equiv_pos_as_xyz
'x, y, z'
_cell_length_a     22.228059
_cell_length_b     22.227661
_cell_length_c     36.017894
_cell_angle_alpha  89.944179
_cell_angle_beta   90.099023
_cell_angle_gamma 90.081646
loop_
_atom_site_label
_atom_site_type_symbol
_atom_site_fract_x
_atom_site_fract_y
_atom_site_fract_z
_atom_type_partial_charge
C0 C 0.00849 0.26463 0.30124 0.0
O1 O -0.00253 0.28021 0.33439 0.0
Cd2 Cd 0.05445 0.2474 0.38713 0.0
O3 O 0.05749 0.23811 0.29279 0.0
Cd4 Cd 0.15093 0.203 0.32616 0.0
C5 C 0.05072 0.1017 0.35626 0.0
O6 O 0.16022 0.26379 0.38286 0.0
O7 O 0.19519 0.17301 0.38472 0.0
O8 O 0.2317 0.24494 0.28704 0.0
C9 C 0.18907 0.22348 0.40047 0.0
O10 O 0.03396 0.14049 0.38003 0.0
C11 C 0.25512 0.194 0.2801 0.0
O12 O 0.09076 0.11298 0.33206 0.0
O13 O 0.22855 0.1477 0.2926 0.0
C14 C 0.18066 0.50723 0.80107 0.0
O15 O 0.16428 0.49634 0.83411 0.0
Cd16 Cd 0.198 0.55274 0.88681 0.0
O17 O 0.20794 0.55599 0.79278 0.0
Cd18 Cd 0.24333 0.64934 0.82607 0.0
C19 C 0.34352 0.54787 0.85564 0.0
O20 O 0.18286 0.65872 0.88283 0.0
O21 O 0.27408 0.69283 0.88466 0.0
O22 O 0.20154 0.73018 0.78689 0.0
C23 C 0.22357 0.68708 0.90044 0.0
O24 O 0.30459 0.53117 0.87938 0.0
C25 C 0.2525 0.75372 0.77998 0.0
O26 O 0.33272 0.58844 0.83165 0.0
O27 O 0.29877 0.72719 0.79252 0.0
C28 C 0.93919 0.6815 0.3011 0.0
O29 O 0.9498 0.66474 0.33412 0.0
Cd30 Cd 0.89333 0.6981 0.38679 0.0
O31 O 0.89065 0.70906 0.29276 0.0
Cd32 Cd 0.79744 0.74448 0.32597 0.0
C33 C 0.89937 0.84397 0.35614 0.0
O34 O 0.78721 0.68366 0.38265 0.0
O35 O 0.75393 0.7751 0.38445 0.0
O36 O 0.71645 0.70312 0.28671 0.0
C37 C 0.75911 0.72446 0.4002 0.0
O38 O 0.91566 0.80469 0.37981 0.0
C39 C 0.69322 0.75416 0.27973 0.0
O40 O 0.85891 0.8336 0.33197 0.0
O41 O 0.72001 0.80032 0.29225 0.0
C42 C 0.76462 0.44016 0.80091 0.0
O43 O 0.78003 0.45141 0.8341 0.0
Cd44 Cd 0.74692 0.39462 0.88679 0.0
O45 O 0.73817 0.39102 0.79245 0.0
Cd46 Cd 0.70296 0.29759 0.82583 0.0
C47 C 0.60138 0.39756 0.85532 0.0
O48 O 0.76344 0.2889 0.88278 0.0
O49 O 0.67268 0.25361 0.88438 0.0
O50 O 0.74521 0.21674 0.78699 0.0
C51 C 0.72305 0.26003 0.90031 0.0
O52 O 0.64005 0.41461 0.87919 0.0
C53 C 0.69434 0.19309 0.7799 0.0
O54 O 0.61281 0.3574 0.83124 0.0
O55 O 0.64795 0.21955 0.79219 0.0
C56 C 0.50823 0.1815 0.18038 0.0
O57 O 0.49721 0.16536 0.14731 0.0
Cd58 Cd 0.55343 0.19942 0.09466 0.0
O59 O 0.55702 0.20871 0.18871 0.0
Cd60 Cd 0.65023 0.24433 0.15542 0.0
C61 C 0.54879 0.34481 0.12619 0.0
O62 O 0.6594 0.18414 0.09852 0.0
O63 O 0.69355 0.27536 0.09687 0.0
O64 O 0.73114 0.20213 0.19438 0.0
C65 C 0.68774 0.22493 0.08099 0.0
O66 O 0.53199 0.30598 0.10239 0.0
C67 C 0.75479 0.253 0.20145 0.0
O68 O 0.58943 0.33387 0.15014 0.0
O69 O 0.72829 0.2994 0.18909 0.0
C70 C 0.26483 0.00726 0.68018 0.0
O71 O 0.28046 -0.00371 0.64704 0.0
Cd72 Cd 0.24775 0.05334 0.59432 0.0
O73 O 0.23828 0.05625 0.68865 0.0
Cd74 Cd 0.20319 0.14973 0.65532 0.0
C75 C 0.10199 0.04949 0.62497 0.0
O76 O 0.26414 0.15911 0.59873 0.0
O77 O 0.17336 0.19407 0.59677 0.0
O78 O 0.24496 0.23051 0.69459 0.0
C79 C 0.22388 0.188 0.58109 0.0
O80 O 0.14082 0.03278 0.60123 0.0
C81 C 0.19398 0.25388 0.70145 0.0
O82 O 0.11322 0.0895 0.64923 0.0
O83 O 0.14775 0.22727 0.68887 0.0
C84 C 0.43943 0.76578 0.18006 0.0
O85 O 0.45035 0.78119 0.14685 0.0
Cd86 Cd 0.39344 0.74738 0.09435 0.0
O87 O 0.3905 0.73905 0.18865 0.0
Cd88 Cd 0.29696 0.70325 0.15554 0.0
C89 C 0.39745 0.60207 0.12618 0.0
O90 O 0.28767 0.76341 0.09852 0.0
O91 O 0.25284 0.67246 0.09708 0.0
O92 O 0.21617 0.74536 0.19447 0.0
C93 C 0.2589 0.72281 0.08109 0.0
O94 O 0.41417 0.64068 0.10221 0.0
C95 C 0.19271 0.69444 0.20162 0.0
O96 O 0.35727 0.6134 0.15026 0.0
O97 O 0.21926 0.64809 0.18935 0.0
C98 C 0.68127 0.93982 0.68014 0.0
O99 O 0.66474 0.95079 0.64711 0.0
Cd100 Cd 0.69761 0.89445 0.59426 0.0
O101 O 0.70847 0.89104 0.68837 0.0
Cd102 Cd 0.74342 0.7979 0.65488 0.0
C103 C 0.84357 0.8993 0.62488 0.0
O104 O 0.6824 0.78842 0.59819 0.0
O105 O 0.77357 0.75441 0.5963 0.0
O106 O 0.70177 0.71694 0.69401 0.0
C107 C 0.72296 0.7601 0.58056 0.0
O108 O 0.80437 0.91597 0.60125 0.0
C109 C 0.75273 0.69348 0.70093 0.0
O110 O 0.83293 0.85883 0.64897 0.0
O111 O 0.79897 0.7201 0.68842 0.0
C112 C -0.00735 -0.00096 0.35512 0.0
C113 C 0.01994 0.04557 0.35501 0.0
C114 C 0.95879 0.94587 0.35513 0.0
C115 C 0.93098 0.89965 0.35504 0.0
C116 C 0.44551 0.48893 0.85409 0.0
C117 C 0.39926 0.51655 0.85423 0.0
C118 C 0.49867 0.45523 0.85394 0.0
C119 C 0.54518 0.42805 0.85389 0.0
C120 C 0.48981 0.44677 0.12783 0.0
C121 C 0.51753 0.40057 0.12771 0.0
C122 C 0.45585 0.49978 0.12785 0.0
C123 C 0.42836 0.54611 0.12776 0.0
C124 C -0.00076 -0.00844 0.62598 0.0
C125 C 0.04583 0.01874 0.62611 0.0
C126 C 0.94591 0.95796 0.62595 0.0
C127 C 0.8995 0.93047 0.62602 0.0
C128 C 0.21616 0.22627 0.47175 0.0
C129 C 0.20257 0.22896 0.43934 0.0
C130 C 0.22692 0.21536 0.50987 0.0
C131 C 0.22949 0.20165 0.54226 0.0
C132 C 0.221 0.71423 0.97167 0.0
C133 C 0.21824 0.70065 0.93928 0.0
C134 C 0.23182 0.7251 0.00978 0.0
C135 C 0.24538 0.72793 0.04219 0.0
C136 C 0.72014 0.73276 0.50936 0.0
C137 C 0.71735 0.74645 0.54172 0.0
C138 C 0.73122 0.72179 0.47131 0.0
C139 C 0.74511 0.71898 0.43898 0.0
C140 C 0.72564 0.23329 0.97164 0.0
C141 C 0.72837 0.24673 0.93921 0.0
C142 C 0.71483 0.22253 0.00975 0.0
C143 C 0.70129 0.21974 0.04214 0.0
C144 C 0.41445 0.17923 0.22552 0.0
C145 C 0.45895 0.18136 0.20631 0.0
C146 C 0.35909 0.18331 0.24484 0.0
C147 C 0.31168 0.18874 0.26089 0.0
C148 C 0.26319 0.85782 0.74464 0.0
C149 C 0.25781 0.81035 0.76073 0.0
C150 C 0.26717 0.91328 0.72531 0.0
C151 C 0.26502 0.95791 0.70614 0.0
C152 C 0.58907 0.76501 0.24442 0.0
C153 C 0.63656 0.75965 0.2605 0.0
C154 C 0.53354 0.76879 0.22512 0.0
C155 C 0.48885 0.76633 0.206 0.0
C156 C 0.68383 0.08897 0.74467 0.0
C157 C 0.68921 0.13645 0.76071 0.0
C158 C 0.67962 0.03359 0.72533 0.0
C159 C 0.68149 -0.01091 0.7061 0.0
C160 C 0.91453 0.26711 0.25606 0.0
C161 C 0.95916 0.2649 0.27523 0.0
C162 C 0.85903 0.26327 0.23673 0.0
C163 C 0.81149 0.25807 0.22067 0.0
C164 C 0.18307 0.35787 0.73673 0.0
C165 C 0.18861 0.31045 0.72067 0.0
C166 C 0.17881 0.41327 0.75602 0.0
C167 C 0.18075 0.45783 0.7752 0.0
C168 C 0.08865 0.6838 0.23687 0.0
C169 C 0.1361 0.68922 0.22083 0.0
C170 C 0.03324 0.67963 0.25616 0.0
C171 C -0.01133 0.68159 0.27531 0.0
C172 C 0.76724 0.53394 0.75563 0.0
C173 C 0.76496 0.48936 0.77484 0.0
C174 C 0.76338 0.58938 0.73627 0.0
C175 C 0.75806 0.63685 0.72018 0.0
loop_
_geom_bond_atom_site_label_1
_geom_bond_atom_site_label_2
_geom_bond_distance
_geom_bond_site_symmetry_2
_ccdc_geom_bond_type
C0 O1 1.306 . S
C0 O3 1.160 . S
O1 C0 1.306 . S
O1 Cd2 2.228 . S
Cd2 O1 2.228 . S
Cd2 O6 2.273 . S
Cd2 O10 2.277 . S
O3 C0 1.160 . S
O3 Cd4 2.203 . S
Cd4 O3 2.203 . S
Cd4 O6 2.411 . S
Cd4 O7 2.333 . S
Cd4 O8 2.352 . S
Cd4 O12 2.277 . S
Cd4 O13 2.356 . S
C5 O10 1.209 . S
C5 O12 1.226 . S
O6 Cd2 2.273 . S
O6 Cd4 2.411 . S
O6 C9 1.320 . S
O7 Cd4 2.333 . S
O7 C9 1.214 . S
O8 Cd4 2.352 . S
O8 C11 1.258 . S
C9 O6 1.320 . S
C9 O7 1.214 . S
O10 Cd2 2.277 . S
O10 C5 1.209 . S
C11 O8 1.258 . S
C11 O13 1.282 . S
O12 Cd4 2.277 . S
O12 C5 1.226 . S
O13 Cd4 2.356 . S
O13 C11 1.282 . S
C14 O15 1.306 . S
C14 O17 1.160 . S
O15 C14 1.306 . S
O15 Cd16 2.228 . S
Cd16 O15 2.228 . S
Cd16 O20 2.273 . S
Cd16 O24 2.277 . S
O17 C14 1.160 . S
O17 Cd18 2.203 . S
Cd18 O17 2.203 . S
Cd18 O20 2.411 . S
Cd18 O21 2.333 . S
Cd18 O22 2.352 . S
Cd18 O26 2.277 . S
Cd18 O27 2.356 . S
C19 O24 1.209 . S
C19 O26 1.226 . S
O20 Cd16 2.273 . S
O20 Cd18 2.411 . S
O20 C23 1.320 . S
O21 Cd18 2.333 . S
O21 C23 1.214 . S
O22 Cd18 2.352 . S
O22 C25 1.258 . S
C23 O20 1.320 . S
C23 O21 1.214 . S
O24 Cd16 2.277 . S
O24 C19 1.209 . S
C25 O22 1.258 . S
C25 O27 1.282 . S
O26 Cd18 2.277 . S
O26 C19 1.226 . S
O27 Cd18 2.356 . S
O27 C25 1.282 . S
C28 O29 1.306 . S
C28 O31 1.160 . S
O29 C28 1.306 . S
O29 Cd30 2.228 . S
Cd30 O29 2.228 . S
Cd30 O34 2.273 . S
Cd30 O38 2.277 . S
O31 C28 1.160 . S
O31 Cd32 2.203 . S
Cd32 O31 2.203 . S
Cd32 O34 2.411 . S
Cd32 O35 2.333 . S
Cd32 O36 2.352 . S
Cd32 O40 2.277 . S
Cd32 O41 2.356 . S
C33 O38 1.209 . S
C33 O40 1.226 . S
O34 Cd30 2.273 . S
O34 Cd32 2.411 . S
O34 C37 1.320 . S
O35 Cd32 2.333 . S
O35 C37 1.214 . S
O36 Cd32 2.352 . S
O36 C39 1.258 . S
C37 O34 1.320 . S
C37 O35 1.214 . S
O38 Cd30 2.277 . S
O38 C33 1.209 . S
C39 O36 1.258 . S
C39 O41 1.282 . S
O40 Cd32 2.277 . S
O40 C33 1.226 . S
O41 Cd32 2.356 . S
O41 C39 1.282 . S
C42 O43 1.306 . S
C42 O45 1.160 . S
O43 C42 1.306 . S
O43 Cd44 2.228 . S
Cd44 O43 2.228 . S
Cd44 O48 2.273 . S
Cd44 O52 2.277 . S
O45 C42 1.160 . S
O45 Cd46 2.203 . S
Cd46 O45 2.203 . S
Cd46 O48 2.411 . S
Cd46 O49 2.333 . S
Cd46 O50 2.352 . S
Cd46 O54 2.277 . S
Cd46 O55 2.356 . S
C47 O52 1.209 . S
C47 O54 1.226 . S
O48 Cd44 2.273 . S
O48 Cd46 2.411 . S
O48 C51 1.320 . S
O49 Cd46 2.333 . S
O49 C51 1.214 . S
O50 Cd46 2.352 . S
O50 C53 1.258 . S
C51 O48 1.320 . S
C51 O49 1.214 . S
O52 Cd44 2.277 . S
O52 C47 1.209 . S
C53 O50 1.258 . S
C53 O55 1.282 . S
O54 Cd46 2.277 . S
O54 C47 1.226 . S
O55 Cd46 2.356 . S
O55 C53 1.282 . S
C56 O57 1.306 . S
C56 O59 1.160 . S
O57 C56 1.306 . S
O57 Cd58 2.228 . S
Cd58 O57 2.228 . S
Cd58 O62 2.273 . S
Cd58 O66 2.277 . S
O59 C56 1.160 . S
O59 Cd60 2.203 . S
Cd60 O59 2.203 . S
Cd60 O62 2.411 . S
Cd60 O63 2.333 . S
Cd60 O64 2.352 . S
Cd60 O68 2.277 . S
Cd60 O69 2.356 . S
C61 O66 1.209 . S
C61 O68 1.226 . S
O62 Cd58 2.273 . S
O62 Cd60 2.411 . S
O62 C65 1.320 . S
O63 Cd60 2.333 . S
O63 C65 1.214 . S
O64 Cd60 2.352 . S
O64 C67 1.258 . S
C65 O62 1.320 . S
C65 O63 1.214 . S
O66 Cd58 2.277 . S
O66 C61 1.209 . S
C67 O64 1.258 . S
C67 O69 1.282 . S
O68 Cd60 2.277 . S
O68 C61 1.226 . S
O69 Cd60 2.356 . S
O69 C67 1.282 . S
C70 O71 1.306 . S
C70 O73 1.160 . S
O71 C70 1.306 . S
O71 Cd72 2.228 . S
Cd72 O71 2.228 . S
Cd72 O76 2.273 . S
Cd72 O80 2.277 . S
O73 C70 1.160 . S
O73 Cd74 2.203 . S
Cd74 O73 2.203 . S
Cd74 O76 2.411 . S
Cd74 O77 2.333 . S
Cd74 O78 2.352 . S
Cd74 O82 2.277 . S
Cd74 O83 2.356 . S
C75 O80 1.209 . S
C75 O82 1.226 . S
O76 Cd72 2.273 . S
O76 Cd74 2.411 . S
O76 C79 1.320 . S
O77 Cd74 2.333 . S
O77 C79 1.214 . S
O78 Cd74 2.352 . S
O78 C81 1.258 . S
C79 O76 1.320 . S
C79 O77 1.214 . S
O80 Cd72 2.277 . S
O80 C75 1.209 . S
C81 O78 1.258 . S
C81 O83 1.282 . S
O82 Cd74 2.277 . S
O82 C75 1.226 . S
O83 Cd74 2.356 . S
O83 C81 1.282 . S
C84 O85 1.306 . S
C84 O87 1.160 . S
O85 C84 1.306 . S
O85 Cd86 2.228 . S
Cd86 O85 2.228 . S
Cd86 O90 2.273 . S
Cd86 O94 2.277 . S
O87 C84 1.160 . S
O87 Cd88 2.203 . S
Cd88 O87 2.203 . S
Cd88 O90 2.411 . S
Cd88 O91 2.333 . S
Cd88 O92 2.352 . S
Cd88 O96 2.277 . S
Cd88 O97 2.356 . S
C89 O94 1.209 . S
C89 O96 1.226 . S
O90 Cd86 2.273 . S
O90 Cd88 2.411 . S
O90 C93 1.320 . S
O91 Cd88 2.333 . S
O91 C93 1.214 . S
O92 Cd88 2.352 . S
O92 C95 1.258 . S
C93 O90 1.320 . S
C93 O91 1.214 . S
O94 Cd86 2.277 . S
O94 C89 1.209 . S
C95 O92 1.258 . S
C95 O97 1.282 . S
O96 Cd88 2.277 . S
O96 C89 1.226 . S
O97 Cd88 2.356 . S
O97 C95 1.282 . S
C98 O99 1.306 . S
C98 O101 1.160 . S
O99 C98 1.306 . S
O99 Cd100 2.228 . S
Cd100 O99 2.228 . S
Cd100 O104 2.273 . S
Cd100 O108 2.277 . S
O101 C98 1.160 . S
O101 Cd102 2.203 . S
Cd102 O101 2.203 . S
Cd102 O104 2.411 . S
Cd102 O105 2.333 . S
Cd102 O106 2.352 . S
Cd102 O110 2.277 . S
Cd102 O111 2.356 . S
C103 O108 1.209 . S
C103 O110 1.226 . S
O104 Cd100 2.273 . S
O104 Cd102 2.411 . S
O104 C107 1.320 . S
O105 Cd102 2.333 . S
O105 C107 1.214 . S
O106 Cd102 2.352 . S
O106 C109 1.258 . S
C107 O104 1.320 . S
C107 O105 1.214 . S
O108 Cd100 2.277 . S
O108 C103 1.209 . S
C109 O106 1.258 . S
C109 O111 1.282 . S
O110 Cd102 2.277 . S
O110 C103 1.226 . S
O111 Cd102 2.356 . S
O111 C109 1.282 . S
C112 C113 1.170 . S
C112 C114 1.380 1_445 S
C113 C112 1.170 . S
C114 C112 1.380 1_665 S
C114 C115 1.170 . S
C115 C114 1.170 . S
C116 C117 1.170 . S
C116 C118 1.380 . S
C117 C116 1.170 . S
C118 C116 1.380 . S
C118 C119 1.170 . S
C119 C118 1.170 . S
C120 C121 1.170 . S
C120 C122 1.380 . S
C121 C120 1.170 . S
C122 C120 1.380 . S
C122 C123 1.170 . S
C123 C122 1.170 . S
C124 C125 1.170 . S
C124 C126 1.380 1_445 S
C125 C124 1.170 . S
C126 C124 1.380 1_665 S
C126 C127 1.170 . S
C127 C126 1.170 . S
C128 C129 1.170 . S
C128 C130 1.380 . S
C129 C128 1.170 . S
C130 C128 1.380 . S
C130 C131 1.170 . S
C131 C130 1.170 . S
C132 C133 1.170 . S
C132 C134 1.380 1_556 S
C133 C132 1.170 . S
C134 C132 1.380 1_554 S
C134 C135 1.170 . S
C135 C134 1.170 . S
C136 C137 1.170 . S
C136 C138 1.380 . S
C137 C136 1.170 . S
C138 C136 1.380 . S
C138 C139 1.170 . S
C139 C138 1.170 . S
C140 C141 1.170 . S
C140 C142 1.380 1_556 S
C141 C140 1.170 . S
C142 C140 1.380 1_554 S
C142 C143 1.170 . S
C143 C142 1.170 . S
C144 C145 1.170 . S
C144 C146 1.380 . S
C145 C144 1.170 . S
C146 C144 1.380 . S
C146 C147 1.170 . S
C147 C146 1.170 . S
C148 C149 1.170 . S
C148 C150 1.380 . S
C149 C148 1.170 . S
C150 C148 1.380 . S
C150 C151 1.170 . S
C151 C150 1.170 . S
C152 C153 1.170 . S
C152 C154 1.380 . S
C153 C152 1.170 . S
C154 C152 1.380 . S
C154 C155 1.170 . S
C155 C154 1.170 . S
C156 C157 1.170 . S
C156 C158 1.380 . S
C157 C156 1.170 . S
C158 C156 1.380 . S
C158 C159 1.170 . S
C159 C158 1.170 . S
C160 C161 1.170 . S
C160 C162 1.380 . S
C161 C160 1.170 . S
C162 C160 1.380 . S
C162 C163 1.170 . S
C163 C162 1.170 . S
C164 C165 1.170 . S
C164 C166 1.380 . S
C165 C164 1.170 . S
C166 C164 1.380 . S
C166 C167 1.170 . S
C167 C166 1.170 . S
C168 C169 1.170 . S
C168 C170 1.380 . S
C169 C168 1.170 . S
C170 C168 1.380 . S
C170 C171 1.170 . S
C171 C170 1.170 . S
C172 C173 1.170 . S
C172 C174 1.380 . S
C173 C172 1.170 . S
C174 C172 1.380 . S
C174 C175 1.170 . S
C175 C174 1.170 . S
C113 C5 0.727 . S
C115 C33 0.695 . S
C117 C19 0.694 . S
C119 C47 0.736 . S
C121 C61 0.691 . S
C123 C89 0.735 . S
C125 C75 0.731 . S
C127 C103 0.692 . S
C129 C9 1.418 . S
C131 C79 1.441 . S
C133 C23 1.447 . S
C135 C93 1.423 . S
C137 C107 1.448 . S
C139 C37 1.424 . S
C141 C51 1.427 . S
C143 C65 1.419 . S
C145 C56 1.706 . S
C147 C11 1.753 . S
C149 C25 1.753 . S
C151 C70 1.718 1_565 S
C153 C39 1.742 . S
C155 C84 1.727 . S
C157 C53 1.741 . S
C159 C98 1.725 1_545 S
C161 C0 1.681 1_655 S
C163 C67 1.778 . S
C165 C81 1.754 . S
C167 C14 1.716 . S
C169 C95 1.747 . S
C171 C28 1.723 1_455 S
C173 C42 1.681 . S
C175 C109 1.778 . S
