# Generated by pormake.
# Topology npo, (4)-cn, num edge types: 1
# Building blocks:
#     Node 0, Type 0, BuildingBlock: QUQFOY_clean_sbu_1, # of connection points: 4
#     Node 1, Type 0, BuildingBlock: QUQFOY_clean_sbu_1, # of connection points: 4
#     Node 2, Type 0, BuildingBlock: QUQFOY_clean_sbu_1, # of connection points: 4
#     Node 3, Type 0, BuildingBlock: QUQFOY_clean_sbu_1, # of connection points: 4
#     Node 4, Type 0, BuildingBlock: QUQFOY_clean_sbu_1, # of connection points: 4
#     Node 5, Type 0, BuildingBlock: QUQFOY_clean_sbu_1, # of connection points: 4
#     Edge 6, Type (0, 0), None
#     Edge 7, Type (0, 0), None
#     Edge 8, Type (0, 0), None
#     Edge 9, Type (0, 0), None
#     Edge 10, Type (0, 0), None
#     Edge 11, Type (0, 0), None
#     Edge 12, Type (0, 0), None
#     Edge 13, Type (0, 0), None
#     Edge 14, Type (0, 0), None
#     Edge 15, Type (0, 0), None
#     Edge 16, Type (0, 0), None
#     Edge 17, Type (0, 0), None
# Relax obj value: 0.237
# Max RMSD: 0.252
# Mean RMSD: 0.252
data_MOF--net-npo--node1-QUQFOY_clean_sbu_1--edge1-none
_symmetry_space_group_name_H-M    P1
_symmetry_Int_Tables_number       1
_symmetry_cell_setting            triclinic
loop_
_symmetry_equiv_pos_as_xyz
'x, y, z'
_cell_length_a     21.266755
_cell_length_b     21.266705
_cell_length_c     12.412886
_cell_angle_alpha  89.99986
_cell_angle_beta   89.99986
_cell_angle_gamma 119.99881
loop_
_atom_site_label
_atom_site_type_symbol
_atom_site_fract_x
_atom_site_fract_y
_atom_site_fract_z
_atom_type_partial_charge
O0 O 0.62679 0.16173 0.40276 0.0
Cd1 Cd 0.51558 0.10032 0.42037 0.0
Cd2 Cd 0.51558 0.10032 0.20748 0.0
O3 O 0.6268 0.16171 0.22508 0.0
O4 O 0.49633 0.06181 0.57099 0.0
O5 O 0.46125 -0.00835 0.42583 0.0
C6 C 0.46426 -0.00233 0.52942 0.0
C7 C 0.46425 -0.00233 0.09844 0.0
C8 C 0.6607 0.18372 0.31392 0.0
C9 C 0.45388 0.18374 0.31394 0.0
O10 O 0.46579 0.16174 0.22509 0.0
O11 O 0.46576 0.16172 0.40278 0.0
O12 O 0.49632 0.06181 1.05687 0.0
O13 O 0.46124 -0.00835 0.20203 0.0
O14 O 0.43048 0.64409 0.90277 0.0
Cd15 Cd 0.38068 0.53288 0.92037 0.0
Cd16 Cd 0.38068 0.53288 0.70748 0.0
O17 O 0.43051 0.6441 0.72508 0.0
O18 O 0.39994 0.51363 0.07099 0.0
O19 O 0.43502 0.47855 0.92582 0.0
C20 C 0.43201 0.48156 1.02942 0.0
C21 C 0.43199 0.48154 0.59844 0.0
C22 C 0.44239 0.67799 0.81392 0.0
C23 C 0.23557 0.47119 0.81394 0.0
O24 O 0.26947 0.48309 0.72509 0.0
O25 O 0.26947 0.48306 0.90278 0.0
O26 O 0.39993 0.51362 0.55687 0.0
O27 O 0.435 0.47853 0.70204 0.0
O28 O 0.75182 0.28673 0.22508 0.0
Cd29 Cd 0.81322 0.39795 0.20747 0.0
Cd30 Cd 0.81322 0.39794 0.42039 0.0
O31 O 0.75184 0.28673 0.4028 0.0
O32 O 0.85173 0.4172 1.05686 0.0
O33 O 0.92189 0.45228 0.20203 0.0
C34 C 0.91587 0.44928 0.09844 0.0
C35 C 0.91587 0.44929 0.52943 0.0
C36 C 0.72986 0.25284 0.31394 0.0
C37 C 0.72979 0.45963 0.31392 0.0
O38 O 0.75179 0.44773 0.40277 0.0
O39 O 0.75181 0.44775 0.22508 0.0
O40 O 0.85173 0.41722 0.57101 0.0
O41 O 0.92188 0.4523 0.42583 0.0
O42 O 0.43051 0.76912 0.72509 0.0
Cd43 Cd 0.38069 0.83052 0.70747 0.0
Cd44 Cd 0.38069 0.83052 0.92039 0.0
O45 O 0.43053 0.76913 0.9028 0.0
O46 O 0.39995 0.86902 0.55686 0.0
O47 O 0.43502 0.93918 0.70202 0.0
C48 C 0.43201 0.93316 0.59843 0.0
C49 C 0.43199 0.93316 1.02943 0.0
C50 C 0.44243 0.74715 0.81394 0.0
C51 C 0.23558 0.74709 0.81392 0.0
O52 O 0.26948 0.76909 0.90277 0.0
O53 O 0.26948 0.76911 0.72508 0.0
O54 O 0.39993 0.86902 0.07101 0.0
O55 O 0.43501 0.93918 0.92584 0.0
O56 O 0.46576 0.28674 0.40278 0.0
Cd57 Cd 0.51557 0.39796 0.42041 0.0
Cd58 Cd 0.51558 0.39796 0.20745 0.0
O59 O 0.46575 0.28675 0.22506 0.0
O60 O 0.49631 0.41721 0.57102 0.0
O61 O 0.46124 0.45229 0.42585 0.0
C62 C 0.46424 0.44928 0.52944 0.0
C63 C 0.46426 0.4493 0.09842 0.0
C64 C 0.45385 0.25286 0.31392 0.0
C65 C 0.66067 0.45967 0.31394 0.0
O66 O 0.62679 0.44776 0.22508 0.0
O67 O 0.62679 0.44777 0.4028 0.0
O68 O 0.49633 0.41723 1.05684 0.0
O69 O 0.46125 0.4523 0.20201 0.0
O70 O 0.14444 0.48307 0.90278 0.0
Cd71 Cd 0.08303 0.53287 0.92041 0.0
Cd72 Cd 0.08303 0.53288 0.70745 0.0
O73 O 0.14443 0.48305 0.72506 0.0
O74 O 0.04452 0.51361 0.07102 0.0
O75 O -0.02563 0.47854 0.92584 0.0
C76 C -0.01961 0.48154 1.02944 0.0
C77 C -0.01961 0.48156 0.59842 0.0
C78 C 0.16641 0.47115 0.81392 0.0
C79 C 0.16642 0.67797 0.81394 0.0
O80 O 0.14445 0.64409 0.72508 0.0
O81 O 0.14443 0.64409 0.9028 0.0
O82 O 0.04452 0.51363 0.55684 0.0
O83 O -0.02563 0.47855 0.70202 0.0
loop_
_geom_bond_atom_site_label_1
_geom_bond_atom_site_label_2
_geom_bond_distance
_geom_bond_site_symmetry_2
_ccdc_geom_bond_type
O0 Cd1 2.223 . S
O0 C8 1.315 . S
Cd1 O0 2.223 . S
Cd1 O4 2.297 . S
Cd1 O5 2.439 . S
Cd1 O11 2.240 . S
Cd2 O3 2.240 . S
Cd2 O10 2.223 . S
Cd2 O12 2.297 1_554 S
Cd2 O13 2.439 . S
O3 Cd2 2.240 . S
O3 C8 1.279 . S
O4 Cd1 2.297 . S
O4 C6 1.247 . S
O5 Cd1 2.439 . S
O5 C6 1.208 . S
C6 O4 1.247 . S
C6 O5 1.208 . S
C7 O12 1.247 1_554 S
C7 O13 1.208 . S
C8 O0 1.315 . S
C8 O3 1.279 . S
C9 O10 1.315 . S
C9 O11 1.279 . S
O10 Cd2 2.223 . S
O10 C9 1.315 . S
O11 Cd1 2.240 . S
O11 C9 1.279 . S
O12 Cd2 2.297 1_556 S
O12 C7 1.247 1_556 S
O13 Cd2 2.439 . S
O13 C7 1.208 . S
O14 Cd15 2.223 . S
O14 C22 1.315 . S
Cd15 O14 2.223 . S
Cd15 O18 2.297 1_556 S
Cd15 O19 2.439 . S
Cd15 O25 2.240 . S
Cd16 O17 2.240 . S
Cd16 O24 2.223 . S
Cd16 O26 2.297 . S
Cd16 O27 2.439 . S
O17 Cd16 2.240 . S
O17 C22 1.279 . S
O18 Cd15 2.297 1_554 S
O18 C20 1.247 1_554 S
O19 Cd15 2.439 . S
O19 C20 1.208 . S
C20 O18 1.247 1_556 S
C20 O19 1.208 . S
C21 O26 1.247 . S
C21 O27 1.208 . S
C22 O14 1.315 . S
C22 O17 1.279 . S
C23 O24 1.315 . S
C23 O25 1.279 . S
O24 Cd16 2.223 . S
O24 C23 1.315 . S
O25 Cd15 2.240 . S
O25 C23 1.279 . S
O26 Cd16 2.297 . S
O26 C21 1.247 . S
O27 Cd16 2.439 . S
O27 C21 1.208 . S
O28 Cd29 2.223 . S
O28 C36 1.315 . S
Cd29 O28 2.223 . S
Cd29 O32 2.297 1_554 S
Cd29 O33 2.439 . S
Cd29 O39 2.240 . S
Cd30 O31 2.240 . S
Cd30 O38 2.223 . S
Cd30 O40 2.297 . S
Cd30 O41 2.439 . S
O31 Cd30 2.240 . S
O31 C36 1.279 . S
O32 Cd29 2.297 1_556 S
O32 C34 1.247 1_556 S
O33 Cd29 2.439 . S
O33 C34 1.208 . S
C34 O32 1.247 1_554 S
C34 O33 1.208 . S
C35 O40 1.247 . S
C35 O41 1.208 . S
C36 O28 1.315 . S
C36 O31 1.279 . S
C37 O38 1.315 . S
C37 O39 1.279 . S
O38 Cd30 2.223 . S
O38 C37 1.315 . S
O39 Cd29 2.240 . S
O39 C37 1.279 . S
O40 Cd30 2.297 . S
O40 C35 1.247 . S
O41 Cd30 2.439 . S
O41 C35 1.208 . S
O42 Cd43 2.223 . S
O42 C50 1.315 . S
Cd43 O42 2.223 . S
Cd43 O46 2.297 . S
Cd43 O47 2.439 . S
Cd43 O53 2.240 . S
Cd44 O45 2.240 . S
Cd44 O52 2.223 . S
Cd44 O54 2.297 1_556 S
Cd44 O55 2.439 . S
O45 Cd44 2.240 . S
O45 C50 1.279 . S
O46 Cd43 2.297 . S
O46 C48 1.247 . S
O47 Cd43 2.439 . S
O47 C48 1.208 . S
C48 O46 1.247 . S
C48 O47 1.208 . S
C49 O54 1.247 1_556 S
C49 O55 1.208 . S
C50 O42 1.315 . S
C50 O45 1.279 . S
C51 O52 1.315 . S
C51 O53 1.279 . S
O52 Cd44 2.223 . S
O52 C51 1.315 . S
O53 Cd43 2.240 . S
O53 C51 1.279 . S
O54 Cd44 2.297 1_554 S
O54 C49 1.247 1_554 S
O55 Cd44 2.439 . S
O55 C49 1.208 . S
O56 Cd57 2.223 . S
O56 C64 1.315 . S
Cd57 O56 2.223 . S
Cd57 O60 2.297 . S
Cd57 O61 2.439 . S
Cd57 O67 2.240 . S
Cd58 O59 2.240 . S
Cd58 O66 2.223 . S
Cd58 O68 2.297 1_554 S
Cd58 O69 2.439 . S
O59 Cd58 2.240 . S
O59 C64 1.279 . S
O60 Cd57 2.297 . S
O60 C62 1.247 . S
O61 Cd57 2.439 . S
O61 C62 1.208 . S
C62 O60 1.247 . S
C62 O61 1.208 . S
C63 O68 1.247 1_554 S
C63 O69 1.208 . S
C64 O56 1.315 . S
C64 O59 1.279 . S
C65 O66 1.315 . S
C65 O67 1.279 . S
O66 Cd58 2.223 . S
O66 C65 1.315 . S
O67 Cd57 2.240 . S
O67 C65 1.279 . S
O68 Cd58 2.297 1_556 S
O68 C63 1.247 1_556 S
O69 Cd58 2.439 . S
O69 C63 1.208 . S
O70 Cd71 2.223 . S
O70 C78 1.315 . S
Cd71 O70 2.223 . S
Cd71 O74 2.297 1_556 S
Cd71 O75 2.439 . S
Cd71 O81 2.240 . S
Cd72 O73 2.240 . S
Cd72 O80 2.223 . S
Cd72 O82 2.297 . S
Cd72 O83 2.439 . S
O73 Cd72 2.240 . S
O73 C78 1.279 . S
O74 Cd71 2.297 1_554 S
O74 C76 1.247 1_554 S
O75 Cd71 2.439 . S
O75 C76 1.208 . S
C76 O74 1.247 1_556 S
C76 O75 1.208 . S
C77 O82 1.247 . S
C77 O83 1.208 . S
C78 O70 1.315 . S
C78 O73 1.279 . S
C79 O80 1.315 . S
C79 O81 1.279 . S
O80 Cd72 2.223 . S
O80 C79 1.315 . S
O81 Cd71 2.240 . S
O81 C79 1.279 . S
O82 Cd72 2.297 . S
O82 C77 1.247 . S
O83 Cd72 2.439 . S
O83 C77 1.208 . S
C9 C64 2.299 . S
C23 C78 2.299 . S
C8 C36 2.299 . S
C50 C22 2.299 . S
C65 C37 2.299 . S
C51 C79 2.299 . S
C49 C7 1.407 1_566 S
C62 C21 1.407 . S
C76 C34 1.407 1_456 S
C6 C48 1.407 1_545 S
C20 C63 1.407 1_556 S
C77 C35 1.407 1_455 S
