# Generated by pormake.
# Topology upb, (4)-cn, num edge types: 1
# Building blocks:
#     Node 0, Type 0, BuildingBlock: CEKHIL_clean_sbu_0, # of connection points: 4
#     Node 1, Type 0, BuildingBlock: CEKHIL_clean_sbu_0, # of connection points: 4
#     Node 2, Type 0, BuildingBlock: CEKHIL_clean_sbu_0, # of connection points: 4
#     Node 3, Type 0, BuildingBlock: CEKHIL_clean_sbu_0, # of connection points: 4
#     Node 4, Type 0, BuildingBlock: CEKHIL_clean_sbu_0, # of connection points: 4
#     Node 5, Type 0, BuildingBlock: CEKHIL_clean_sbu_0, # of connection points: 4
#     Node 6, Type 0, BuildingBlock: CEKHIL_clean_sbu_0, # of connection points: 4
#     Node 7, Type 0, BuildingBlock: CEKHIL_clean_sbu_0, # of connection points: 4
#     Node 8, Type 0, BuildingBlock: CEKHIL_clean_sbu_0, # of connection points: 4
#     Node 9, Type 0, BuildingBlock: CEKHIL_clean_sbu_0, # of connection points: 4
#     Node 10, Type 0, BuildingBlock: CEKHIL_clean_sbu_0, # of connection points: 4
#     Node 11, Type 0, BuildingBlock: CEKHIL_clean_sbu_0, # of connection points: 4
#     Node 12, Type 0, BuildingBlock: CEKHIL_clean_sbu_0, # of connection points: 4
#     Node 13, Type 0, BuildingBlock: CEKHIL_clean_sbu_0, # of connection points: 4
#     Node 14, Type 0, BuildingBlock: CEKHIL_clean_sbu_0, # of connection points: 4
#     Node 15, Type 0, BuildingBlock: CEKHIL_clean_sbu_0, # of connection points: 4
#     Edge 16, Type (0, 0), None
#     Edge 17, Type (0, 0), None
#     Edge 18, Type (0, 0), None
#     Edge 19, Type (0, 0), None
#     Edge 20, Type (0, 0), None
#     Edge 21, Type (0, 0), None
#     Edge 22, Type (0, 0), None
#     Edge 23, Type (0, 0), None
#     Edge 24, Type (0, 0), None
#     Edge 25, Type (0, 0), None
#     Edge 26, Type (0, 0), None
#     Edge 27, Type (0, 0), None
#     Edge 28, Type (0, 0), None
#     Edge 29, Type (0, 0), None
#     Edge 30, Type (0, 0), None
#     Edge 31, Type (0, 0), None
#     Edge 32, Type (0, 0), None
#     Edge 33, Type (0, 0), None
#     Edge 34, Type (0, 0), None
#     Edge 35, Type (0, 0), None
#     Edge 36, Type (0, 0), None
#     Edge 37, Type (0, 0), None
#     Edge 38, Type (0, 0), None
#     Edge 39, Type (0, 0), None
#     Edge 40, Type (0, 0), None
#     Edge 41, Type (0, 0), None
#     Edge 42, Type (0, 0), None
#     Edge 43, Type (0, 0), None
#     Edge 44, Type (0, 0), None
#     Edge 45, Type (0, 0), None
#     Edge 46, Type (0, 0), None
#     Edge 47, Type (0, 0), None
# Relax obj value: 0.208
# Max RMSD: 0.071
# Mean RMSD: 0.071
data_MOF--net-upb--node1-CEKHIL_clean_sbu_0--edge1-none
_symmetry_space_group_name_H-M    P1
_symmetry_Int_Tables_number       1
_symmetry_cell_setting            triclinic
loop_
_symmetry_equiv_pos_as_xyz
'x, y, z'
_cell_length_a     20.226182
_cell_length_b     20.225476
_cell_length_c     14.385997
_cell_angle_alpha  89.99937
_cell_angle_beta   90.000489
_cell_angle_gamma 89.998231
loop_
_atom_site_label
_atom_site_type_symbol
_atom_site_fract_x
_atom_site_fract_y
_atom_site_fract_z
_atom_type_partial_charge
Co0 Co 0.06337 0.23357 0.31224 0.0
O1 O 0.14477 0.27841 0.33529 0.0
O2 O 0.08481 0.28746 0.20607 0.0
C3 C 0.01751 0.25507 0.45022 0.0
O4 O 0.97346 0.19431 0.27815 0.0
Co5 Co 0.04632 0.10999 0.44426 0.0
O6 O 0.97057 0.09717 0.35636 0.0
C7 C 0.14225 0.11785 0.31418 0.0
C8 C 0.13579 0.30581 0.25552 0.0
C9 C 0.94371 0.14075 0.30373 0.0
O10 O 0.11051 0.15397 0.25697 0.0
O11 O 0.13724 0.13479 0.39823 0.0
O12 O 0.01611 0.30028 0.3862 0.0
O13 O 0.05421 0.20476 0.43273 0.0
Co14 Co 0.75574 0.06337 0.31218 0.0
O15 O 0.7109 0.14477 0.33524 0.0
O16 O 0.70186 0.08483 0.206 0.0
C17 C 0.73424 0.01751 0.45016 0.0
O18 O 0.79503 0.97348 0.2781 0.0
Co19 Co 0.87931 0.04647 0.44421 0.0
O20 O 0.89207 0.97056 0.35655 0.0
C21 C 0.87138 0.14236 0.31411 0.0
C22 C 0.68351 0.13581 0.25546 0.0
C23 C 0.84854 0.94372 0.30382 0.0
O24 O 0.83533 0.11052 0.25691 0.0
O25 O 0.85457 0.13742 0.39821 0.0
O26 O 0.68904 0.0161 0.38614 0.0
O27 O 0.78454 0.05422 0.43266 0.0
Co28 Co 0.92594 0.75575 0.3122 0.0
O29 O 0.84455 0.71089 0.33523 0.0
O30 O 0.9045 0.70187 0.206 0.0
C31 C 0.97179 0.73424 0.45018 0.0
O32 O 0.01583 0.79505 0.27815 0.0
Co33 Co 0.94278 0.87929 0.44431 0.0
O34 O 0.01875 0.89203 0.35675 0.0
C35 C 0.84694 0.87137 0.31414 0.0
C36 C 0.85351 0.68351 0.25544 0.0
C37 C 0.04559 0.84854 0.30396 0.0
O38 O 0.87878 0.83534 0.25694 0.0
O39 O 0.85186 0.85454 0.39823 0.0
O40 O 0.97322 0.68903 0.38616 0.0
O41 O 0.93507 0.78453 0.43268 0.0
Co42 Co 0.23354 0.92594 0.31222 0.0
O43 O 0.27843 0.84456 0.33527 0.0
O44 O 0.28741 0.9045 0.20602 0.0
C45 C 0.25505 0.97181 0.4502 0.0
O46 O 0.1942 0.01581 0.27816 0.0
Co47 Co 0.11001 0.9428 0.4444 0.0
O48 O 0.09719 0.01871 0.35674 0.0
C49 C 0.11794 0.84693 0.31425 0.0
C50 C 0.30579 0.85352 0.25547 0.0
C51 C 0.14064 0.04551 0.30386 0.0
O52 O 0.15396 0.87875 0.25701 0.0
O53 O 0.1348 0.85188 0.39833 0.0
O54 O 0.30024 0.97324 0.38615 0.0
O55 O 0.20477 0.93508 0.43272 0.0
Co56 Co 0.06334 0.75573 0.66551 0.0
O57 O 0.14475 0.7109 0.64244 0.0
O58 O 0.08479 0.70182 0.77167 0.0
C59 C 0.01746 0.73425 0.52756 0.0
O60 O 0.97343 0.79497 0.69961 0.0
Co61 Co 0.04634 0.87933 0.5336 0.0
O62 O 0.97052 0.89211 0.6214 0.0
C63 C 0.14225 0.87146 0.6637 0.0
C64 C 0.13579 0.6835 0.72221 0.0
C65 C 0.94367 0.84852 0.67401 0.0
O66 O 0.11046 0.83532 0.72084 0.0
O67 O 0.13727 0.85459 0.57963 0.0
O68 O 0.01609 0.68902 0.59154 0.0
O69 O 0.05417 0.78456 0.54504 0.0
Co70 Co 0.23356 0.06337 0.66551 0.0
O71 O 0.27841 0.14476 0.64244 0.0
O72 O 0.28745 0.08481 0.77168 0.0
C73 C 0.25504 0.01748 0.52756 0.0
O74 O 0.19427 0.97347 0.69961 0.0
Co75 Co 0.10997 0.04638 0.53353 0.0
O76 O 0.09711 0.97061 0.62141 0.0
C77 C 0.11784 0.14229 0.66364 0.0
C78 C 0.3058 0.1358 0.72222 0.0
C79 C 0.14065 0.94379 0.67413 0.0
O80 O 0.15398 0.11052 0.7208 0.0
O81 O 0.13473 0.1373 0.57957 0.0
O82 O 0.30026 0.01609 0.59156 0.0
O83 O 0.20474 0.0542 0.54502 0.0
Co84 Co 0.92592 0.23357 0.66549 0.0
O85 O 0.84452 0.27842 0.64241 0.0
O86 O 0.90445 0.28745 0.77167 0.0
C87 C 0.97182 0.25506 0.52756 0.0
O88 O 0.01581 0.19427 0.6996 0.0
Co89 Co 0.94292 0.11 0.53344 0.0
O90 O 0.0187 0.09715 0.62128 0.0
C91 C 0.847 0.11786 0.66355 0.0
C92 C 0.85348 0.3058 0.7222 0.0
C93 C 0.0455 0.14068 0.67404 0.0
O94 O 0.87876 0.15397 0.72075 0.0
O95 O 0.852 0.13479 0.5795 0.0
O96 O 0.9732 0.30028 0.59157 0.0
O97 O 0.93509 0.20476 0.545 0.0
Co98 Co 0.75571 0.92595 0.6655 0.0
O99 O 0.71084 0.84456 0.64243 0.0
O100 O 0.70182 0.9045 0.77168 0.0
C101 C 0.73424 0.97185 0.52755 0.0
O102 O 0.79504 0.01583 0.69958 0.0
Co103 Co 0.87928 0.94275 0.53344 0.0
O104 O 0.89206 0.01871 0.62101 0.0
C105 C 0.87133 0.84691 0.66362 0.0
C106 C 0.68347 0.85352 0.72222 0.0
C107 C 0.8486 0.04552 0.67388 0.0
O108 O 0.83528 0.87877 0.72078 0.0
O109 O 0.85454 0.85182 0.57951 0.0
O110 O 0.68901 0.97325 0.59154 0.0
O111 O 0.78451 0.9351 0.54502 0.0
Co112 Co 0.56335 0.73356 0.81221 0.0
O113 O 0.64476 0.7784 0.83525 0.0
O114 O 0.58479 0.78745 0.70603 0.0
C115 C 0.51751 0.75507 0.95019 0.0
O116 O 0.47345 0.6943 0.77813 0.0
Co117 Co 0.54631 0.60999 0.94423 0.0
O118 O 0.47055 0.59717 0.85634 0.0
C119 C 0.64223 0.61784 0.81415 0.0
C120 C 0.63578 0.8058 0.75548 0.0
C121 C 0.4437 0.64075 0.80371 0.0
O122 O 0.61049 0.65396 0.75693 0.0
O123 O 0.63723 0.63478 0.89819 0.0
O124 O 0.5161 0.80028 0.88617 0.0
O125 O 0.5542 0.70475 0.9327 0.0
Co126 Co 0.25573 0.56336 0.8122 0.0
O127 O 0.21088 0.64476 0.83524 0.0
O128 O 0.20184 0.5848 0.70601 0.0
C129 C 0.23423 0.51752 0.95019 0.0
O130 O 0.29502 0.47347 0.77813 0.0
Co131 Co 0.3793 0.54649 0.94422 0.0
O132 O 0.39205 0.47055 0.8566 0.0
C133 C 0.37136 0.64236 0.81409 0.0
C134 C 0.1835 0.6358 0.75546 0.0
C135 C 0.34853 0.44371 0.80386 0.0
O136 O 0.33531 0.61051 0.75692 0.0
O137 O 0.35456 0.63743 0.8982 0.0
O138 O 0.18903 0.51609 0.88617 0.0
O139 O 0.28453 0.55422 0.93268 0.0
Co140 Co 0.42593 0.25574 0.81223 0.0
O141 O 0.34454 0.21088 0.83527 0.0
O142 O 0.40449 0.20186 0.70604 0.0
C143 C 0.47178 0.23423 0.95022 0.0
O144 O 0.51581 0.29504 0.77817 0.0
Co145 Co 0.44277 0.37929 0.94434 0.0
O146 O 0.51874 0.39203 0.85678 0.0
C147 C 0.34692 0.37136 0.81418 0.0
C148 C 0.3535 0.1835 0.75548 0.0
C149 C 0.54558 0.34853 0.80399 0.0
O150 O 0.37877 0.33533 0.75697 0.0
O151 O 0.35185 0.35452 0.89827 0.0
O152 O 0.47321 0.18903 0.88619 0.0
O153 O 0.43506 0.28452 0.93272 0.0
Co154 Co 0.73352 0.42593 0.81221 0.0
O155 O 0.77841 0.34455 0.83526 0.0
O156 O 0.78739 0.40448 0.706 0.0
C157 C 0.75505 0.47181 0.95017 0.0
O158 O 0.69419 0.5158 0.77813 0.0
Co159 Co 0.61 0.44281 0.94439 0.0
O160 O 0.59717 0.5187 0.8567 0.0
C161 C 0.61792 0.34693 0.81426 0.0
C162 C 0.80576 0.3535 0.75546 0.0
C163 C 0.64063 0.5455 0.80382 0.0
O164 O 0.65394 0.37874 0.75701 0.0
O165 O 0.63479 0.35189 0.89834 0.0
O166 O 0.80024 0.47324 0.88612 0.0
O167 O 0.70476 0.43508 0.9327 0.0
Co168 Co 0.56335 0.25574 0.16553 0.0
O169 O 0.64476 0.21092 0.14245 0.0
O170 O 0.58481 0.20184 0.27169 0.0
C171 C 0.51746 0.23426 0.02758 0.0
O172 O 0.47344 0.29499 0.19964 0.0
Co173 Co 0.54633 0.37934 0.03361 0.0
O174 O 0.47053 0.39213 0.12145 0.0
C175 C 0.64225 0.37147 0.16369 0.0
C176 C 0.6358 0.18352 0.22222 0.0
C177 C 0.44368 0.34854 0.17405 0.0
O178 O 0.61047 0.33533 0.22084 0.0
O179 O 0.63727 0.3546 0.07962 0.0
O180 O 0.5161 0.18902 0.09157 0.0
O181 O 0.55417 0.28457 0.04505 0.0
Co182 Co 0.73357 0.56338 0.16548 0.0
O183 O 0.77842 0.64477 0.1424 0.0
O184 O 0.78746 0.58483 0.27164 0.0
C185 C 0.75504 0.51749 0.02753 0.0
O186 O 0.69428 0.47349 0.19959 0.0
Co187 Co 0.60997 0.54639 0.0335 0.0
O188 O 0.59711 0.47063 0.12138 0.0
C189 C 0.61785 0.6423 0.1636 0.0
C190 C 0.80581 0.63581 0.22218 0.0
C191 C 0.64066 0.44381 0.1741 0.0
O192 O 0.65399 0.61054 0.22077 0.0
O193 O 0.63474 0.63731 0.07953 0.0
O194 O 0.80027 0.5161 0.09153 0.0
O195 O 0.70474 0.55422 0.04499 0.0
Co196 Co 0.42593 0.73358 0.16548 0.0
O197 O 0.34453 0.77844 0.14241 0.0
O198 O 0.40448 0.78747 0.27166 0.0
C199 C 0.47182 0.75507 0.02754 0.0
O200 O 0.51582 0.69428 0.19957 0.0
Co201 Co 0.4429 0.61 0.03343 0.0
O202 O 0.51871 0.59717 0.12123 0.0
C203 C 0.34701 0.61788 0.16356 0.0
C204 C 0.35349 0.80582 0.2222 0.0
C205 C 0.54552 0.64069 0.174 0.0
O206 O 0.37877 0.65399 0.22075 0.0
O207 O 0.352 0.6348 0.0795 0.0
O208 O 0.47321 0.80029 0.09154 0.0
O209 O 0.43509 0.70477 0.04499 0.0
Co210 Co 0.25572 0.42596 0.16553 0.0
O211 O 0.21086 0.34458 0.14247 0.0
O212 O 0.20183 0.40452 0.27172 0.0
C213 C 0.23424 0.47185 0.02758 0.0
O214 O 0.29504 0.51585 0.1996 0.0
Co215 Co 0.37929 0.44276 0.03347 0.0
O216 O 0.39206 0.51873 0.12103 0.0
C217 C 0.37135 0.34692 0.16366 0.0
C218 C 0.18349 0.35353 0.22227 0.0
C219 C 0.3486 0.54553 0.1739 0.0
O220 O 0.33529 0.37879 0.22081 0.0
O221 O 0.35455 0.35183 0.07954 0.0
O222 O 0.18902 0.47326 0.09158 0.0
O223 O 0.28452 0.43511 0.04505 0.0
loop_
_geom_bond_atom_site_label_1
_geom_bond_atom_site_label_2
_geom_bond_distance
_geom_bond_site_symmetry_2
_ccdc_geom_bond_type
Co0 O1 2.216 . S
Co0 O2 2.091 . S
Co0 O4 2.004 1_455 S
Co0 O10 2.021 . S
Co0 O12 2.137 1_455 S
Co0 O13 2.244 . S
O1 Co0 2.216 . S
O1 C8 1.247 . S
O2 Co0 2.091 . S
O2 C8 1.261 . S
C3 O12 1.247 . S
C3 O13 1.272 1_655 S
O4 Co0 2.004 1_655 S
O4 C9 1.259 . S
Co5 O6 2.061 1_455 S
Co5 O11 2.052 . S
Co5 O13 2.135 . S
O6 Co5 2.061 1_655 S
O6 C9 1.235 . S
C7 O10 1.238 . S
C7 O11 1.241 . S
C8 O1 1.247 . S
C8 O2 1.261 . S
C9 O4 1.259 . S
C9 O6 1.235 . S
O10 Co0 2.021 . S
O10 C7 1.238 . S
O11 Co5 2.052 . S
O11 C7 1.241 . S
O12 Co0 2.137 1_655 S
O12 C3 1.247 . S
O13 Co0 2.244 . S
O13 C3 1.272 1_455 S
O13 Co5 2.135 . S
Co14 O15 2.216 . S
Co14 O16 2.091 . S
Co14 O18 2.004 1_545 S
Co14 O24 2.021 . S
Co14 O26 2.137 1_545 S
Co14 O27 2.244 . S
O15 Co14 2.216 . S
O15 C22 1.247 . S
O16 Co14 2.091 . S
O16 C22 1.261 . S
C17 O26 1.247 . S
C17 O27 1.272 1_565 S
O18 Co14 2.004 1_565 S
O18 C23 1.259 . S
Co19 O20 2.061 1_545 S
Co19 O25 2.052 . S
Co19 O27 2.135 . S
O20 Co19 2.061 1_565 S
O20 C23 1.235 . S
C21 O24 1.238 . S
C21 O25 1.241 . S
C22 O15 1.247 . S
C22 O16 1.261 . S
C23 O18 1.259 . S
C23 O20 1.235 . S
O24 Co14 2.021 . S
O24 C21 1.238 . S
O25 Co19 2.052 . S
O25 C21 1.241 . S
O26 Co14 2.137 1_565 S
O26 C17 1.247 . S
O27 Co14 2.244 . S
O27 C17 1.272 1_545 S
O27 Co19 2.135 . S
Co28 O29 2.216 . S
Co28 O30 2.091 . S
Co28 O32 2.004 1_655 S
Co28 O38 2.021 . S
Co28 O40 2.137 1_655 S
Co28 O41 2.244 . S
O29 Co28 2.216 . S
O29 C36 1.247 . S
O30 Co28 2.091 . S
O30 C36 1.261 . S
C31 O40 1.247 . S
C31 O41 1.272 1_455 S
O32 Co28 2.004 1_455 S
O32 C37 1.259 . S
Co33 O34 2.061 1_655 S
Co33 O39 2.052 . S
Co33 O41 2.135 . S
O34 Co33 2.061 1_455 S
O34 C37 1.235 . S
C35 O38 1.238 . S
C35 O39 1.241 . S
C36 O29 1.247 . S
C36 O30 1.261 . S
C37 O32 1.259 . S
C37 O34 1.235 . S
O38 Co28 2.021 . S
O38 C35 1.238 . S
O39 Co33 2.052 . S
O39 C35 1.241 . S
O40 Co28 2.137 1_455 S
O40 C31 1.247 . S
O41 Co28 2.244 . S
O41 C31 1.272 1_655 S
O41 Co33 2.135 . S
Co42 O43 2.216 . S
Co42 O44 2.091 . S
Co42 O46 2.004 1_565 S
Co42 O52 2.021 . S
Co42 O54 2.137 1_565 S
Co42 O55 2.244 . S
O43 Co42 2.216 . S
O43 C50 1.247 . S
O44 Co42 2.091 . S
O44 C50 1.261 . S
C45 O54 1.247 . S
C45 O55 1.272 1_545 S
O46 Co42 2.004 1_545 S
O46 C51 1.259 . S
Co47 O48 2.061 1_565 S
Co47 O53 2.052 . S
Co47 O55 2.135 . S
O48 Co47 2.061 1_545 S
O48 C51 1.235 . S
C49 O52 1.238 . S
C49 O53 1.241 . S
C50 O43 1.247 . S
C50 O44 1.261 . S
C51 O46 1.259 . S
C51 O48 1.235 . S
O52 Co42 2.021 . S
O52 C49 1.238 . S
O53 Co47 2.052 . S
O53 C49 1.241 . S
O54 Co42 2.137 1_545 S
O54 C45 1.247 . S
O55 Co42 2.244 . S
O55 C45 1.272 1_565 S
O55 Co47 2.135 . S
Co56 O57 2.216 . S
Co56 O58 2.091 . S
Co56 O60 2.004 1_455 S
Co56 O66 2.021 . S
Co56 O68 2.137 1_455 S
Co56 O69 2.244 . S
O57 Co56 2.216 . S
O57 C64 1.247 . S
O58 Co56 2.091 . S
O58 C64 1.261 . S
C59 O68 1.247 . S
C59 O69 1.272 1_655 S
O60 Co56 2.004 1_655 S
O60 C65 1.259 . S
Co61 O62 2.061 1_455 S
Co61 O67 2.052 . S
Co61 O69 2.135 . S
O62 Co61 2.061 1_655 S
O62 C65 1.235 . S
C63 O66 1.238 . S
C63 O67 1.241 . S
C64 O57 1.247 . S
C64 O58 1.261 . S
C65 O60 1.259 . S
C65 O62 1.235 . S
O66 Co56 2.021 . S
O66 C63 1.238 . S
O67 Co61 2.052 . S
O67 C63 1.241 . S
O68 Co56 2.137 1_655 S
O68 C59 1.247 . S
O69 Co56 2.244 . S
O69 C59 1.272 1_455 S
O69 Co61 2.135 . S
Co70 O71 2.216 . S
Co70 O72 2.091 . S
Co70 O74 2.004 1_545 S
Co70 O80 2.021 . S
Co70 O82 2.137 1_545 S
Co70 O83 2.244 . S
O71 Co70 2.216 . S
O71 C78 1.247 . S
O72 Co70 2.091 . S
O72 C78 1.261 . S
C73 O82 1.247 . S
C73 O83 1.272 1_565 S
O74 Co70 2.004 1_565 S
O74 C79 1.259 . S
Co75 O76 2.061 1_545 S
Co75 O81 2.052 . S
Co75 O83 2.135 . S
O76 Co75 2.061 1_565 S
O76 C79 1.235 . S
C77 O80 1.238 . S
C77 O81 1.241 . S
C78 O71 1.247 . S
C78 O72 1.261 . S
C79 O74 1.259 . S
C79 O76 1.235 . S
O80 Co70 2.021 . S
O80 C77 1.238 . S
O81 Co75 2.052 . S
O81 C77 1.241 . S
O82 Co70 2.137 1_565 S
O82 C73 1.247 . S
O83 Co70 2.244 . S
O83 C73 1.272 1_545 S
O83 Co75 2.135 . S
Co84 O85 2.216 . S
Co84 O86 2.091 . S
Co84 O88 2.004 1_655 S
Co84 O94 2.021 . S
Co84 O96 2.137 1_655 S
Co84 O97 2.244 . S
O85 Co84 2.216 . S
O85 C92 1.247 . S
O86 Co84 2.091 . S
O86 C92 1.261 . S
C87 O96 1.247 . S
C87 O97 1.272 1_455 S
O88 Co84 2.004 1_455 S
O88 C93 1.259 . S
Co89 O90 2.061 1_655 S
Co89 O95 2.052 . S
Co89 O97 2.135 . S
O90 Co89 2.061 1_455 S
O90 C93 1.235 . S
C91 O94 1.238 . S
C91 O95 1.241 . S
C92 O85 1.247 . S
C92 O86 1.261 . S
C93 O88 1.259 . S
C93 O90 1.235 . S
O94 Co84 2.021 . S
O94 C91 1.238 . S
O95 Co89 2.052 . S
O95 C91 1.241 . S
O96 Co84 2.137 1_455 S
O96 C87 1.247 . S
O97 Co84 2.244 . S
O97 C87 1.272 1_655 S
O97 Co89 2.135 . S
Co98 O99 2.216 . S
Co98 O100 2.091 . S
Co98 O102 2.004 1_565 S
Co98 O108 2.021 . S
Co98 O110 2.137 1_565 S
Co98 O111 2.244 . S
O99 Co98 2.216 . S
O99 C106 1.247 . S
O100 Co98 2.091 . S
O100 C106 1.261 . S
C101 O110 1.247 . S
C101 O111 1.272 1_545 S
O102 Co98 2.004 1_545 S
O102 C107 1.259 . S
Co103 O104 2.061 1_565 S
Co103 O109 2.052 . S
Co103 O111 2.135 . S
O104 Co103 2.061 1_545 S
O104 C107 1.235 . S
C105 O108 1.238 . S
C105 O109 1.241 . S
C106 O99 1.247 . S
C106 O100 1.261 . S
C107 O102 1.259 . S
C107 O104 1.235 . S
O108 Co98 2.021 . S
O108 C105 1.238 . S
O109 Co103 2.052 . S
O109 C105 1.241 . S
O110 Co98 2.137 1_545 S
O110 C101 1.247 . S
O111 Co98 2.244 . S
O111 C101 1.272 1_565 S
O111 Co103 2.135 . S
Co112 O113 2.216 . S
Co112 O114 2.091 . S
Co112 O116 2.004 . S
Co112 O122 2.021 . S
Co112 O124 2.137 . S
Co112 O125 2.244 . S
O113 Co112 2.216 . S
O113 C120 1.247 . S
O114 Co112 2.091 . S
O114 C120 1.261 . S
C115 O124 1.247 . S
C115 O125 1.272 . S
O116 Co112 2.004 . S
O116 C121 1.259 . S
Co117 O118 2.061 . S
Co117 O123 2.052 . S
Co117 O125 2.135 . S
O118 Co117 2.061 . S
O118 C121 1.235 . S
C119 O122 1.238 . S
C119 O123 1.241 . S
C120 O113 1.247 . S
C120 O114 1.261 . S
C121 O116 1.259 . S
C121 O118 1.235 . S
O122 Co112 2.021 . S
O122 C119 1.238 . S
O123 Co117 2.052 . S
O123 C119 1.241 . S
O124 Co112 2.137 . S
O124 C115 1.247 . S
O125 Co112 2.244 . S
O125 C115 1.272 . S
O125 Co117 2.135 . S
Co126 O127 2.216 . S
Co126 O128 2.091 . S
Co126 O130 2.004 . S
Co126 O136 2.021 . S
Co126 O138 2.137 . S
Co126 O139 2.244 . S
O127 Co126 2.216 . S
O127 C134 1.247 . S
O128 Co126 2.091 . S
O128 C134 1.261 . S
C129 O138 1.247 . S
C129 O139 1.272 . S
O130 Co126 2.004 . S
O130 C135 1.259 . S
Co131 O132 2.061 . S
Co131 O137 2.052 . S
Co131 O139 2.135 . S
O132 Co131 2.061 . S
O132 C135 1.235 . S
C133 O136 1.238 . S
C133 O137 1.241 . S
C134 O127 1.247 . S
C134 O128 1.261 . S
C135 O130 1.259 . S
C135 O132 1.235 . S
O136 Co126 2.021 . S
O136 C133 1.238 . S
O137 Co131 2.052 . S
O137 C133 1.241 . S
O138 Co126 2.137 . S
O138 C129 1.247 . S
O139 Co126 2.244 . S
O139 C129 1.272 . S
O139 Co131 2.135 . S
Co140 O141 2.216 . S
Co140 O142 2.091 . S
Co140 O144 2.004 . S
Co140 O150 2.021 . S
Co140 O152 2.137 . S
Co140 O153 2.244 . S
O141 Co140 2.216 . S
O141 C148 1.247 . S
O142 Co140 2.091 . S
O142 C148 1.261 . S
C143 O152 1.247 . S
C143 O153 1.272 . S
O144 Co140 2.004 . S
O144 C149 1.259 . S
Co145 O146 2.061 . S
Co145 O151 2.052 . S
Co145 O153 2.135 . S
O146 Co145 2.061 . S
O146 C149 1.235 . S
C147 O150 1.238 . S
C147 O151 1.241 . S
C148 O141 1.247 . S
C148 O142 1.261 . S
C149 O144 1.259 . S
C149 O146 1.235 . S
O150 Co140 2.021 . S
O150 C147 1.238 . S
O151 Co145 2.052 . S
O151 C147 1.241 . S
O152 Co140 2.137 . S
O152 C143 1.247 . S
O153 Co140 2.244 . S
O153 C143 1.272 . S
O153 Co145 2.135 . S
Co154 O155 2.216 . S
Co154 O156 2.091 . S
Co154 O158 2.004 . S
Co154 O164 2.021 . S
Co154 O166 2.137 . S
Co154 O167 2.244 . S
O155 Co154 2.216 . S
O155 C162 1.247 . S
O156 Co154 2.091 . S
O156 C162 1.261 . S
C157 O166 1.247 . S
C157 O167 1.272 . S
O158 Co154 2.004 . S
O158 C163 1.259 . S
Co159 O160 2.061 . S
Co159 O165 2.052 . S
Co159 O167 2.135 . S
O160 Co159 2.061 . S
O160 C163 1.235 . S
C161 O164 1.238 . S
C161 O165 1.241 . S
C162 O155 1.247 . S
C162 O156 1.261 . S
C163 O158 1.259 . S
C163 O160 1.235 . S
O164 Co154 2.021 . S
O164 C161 1.238 . S
O165 Co159 2.052 . S
O165 C161 1.241 . S
O166 Co154 2.137 . S
O166 C157 1.247 . S
O167 Co154 2.244 . S
O167 C157 1.272 . S
O167 Co159 2.135 . S
Co168 O169 2.216 . S
Co168 O170 2.091 . S
Co168 O172 2.004 . S
Co168 O178 2.021 . S
Co168 O180 2.137 . S
Co168 O181 2.244 . S
O169 Co168 2.216 . S
O169 C176 1.247 . S
O170 Co168 2.091 . S
O170 C176 1.261 . S
C171 O180 1.247 . S
C171 O181 1.272 . S
O172 Co168 2.004 . S
O172 C177 1.259 . S
Co173 O174 2.061 . S
Co173 O179 2.052 . S
Co173 O181 2.135 . S
O174 Co173 2.061 . S
O174 C177 1.235 . S
C175 O178 1.238 . S
C175 O179 1.241 . S
C176 O169 1.247 . S
C176 O170 1.261 . S
C177 O172 1.259 . S
C177 O174 1.235 . S
O178 Co168 2.021 . S
O178 C175 1.238 . S
O179 Co173 2.052 . S
O179 C175 1.241 . S
O180 Co168 2.137 . S
O180 C171 1.247 . S
O181 Co168 2.244 . S
O181 C171 1.272 . S
O181 Co173 2.135 . S
Co182 O183 2.216 . S
Co182 O184 2.091 . S
Co182 O186 2.004 . S
Co182 O192 2.021 . S
Co182 O194 2.137 . S
Co182 O195 2.244 . S
O183 Co182 2.216 . S
O183 C190 1.247 . S
O184 Co182 2.091 . S
O184 C190 1.261 . S
C185 O194 1.247 . S
C185 O195 1.272 . S
O186 Co182 2.004 . S
O186 C191 1.259 . S
Co187 O188 2.061 . S
Co187 O193 2.052 . S
Co187 O195 2.135 . S
O188 Co187 2.061 . S
O188 C191 1.235 . S
C189 O192 1.238 . S
C189 O193 1.241 . S
C190 O183 1.247 . S
C190 O184 1.261 . S
C191 O186 1.259 . S
C191 O188 1.235 . S
O192 Co182 2.021 . S
O192 C189 1.238 . S
O193 Co187 2.052 . S
O193 C189 1.241 . S
O194 Co182 2.137 . S
O194 C185 1.247 . S
O195 Co182 2.244 . S
O195 C185 1.272 . S
O195 Co187 2.135 . S
Co196 O197 2.216 . S
Co196 O198 2.091 . S
Co196 O200 2.004 . S
Co196 O206 2.021 . S
Co196 O208 2.137 . S
Co196 O209 2.244 . S
O197 Co196 2.216 . S
O197 C204 1.247 . S
O198 Co196 2.091 . S
O198 C204 1.261 . S
C199 O208 1.247 . S
C199 O209 1.272 . S
O200 Co196 2.004 . S
O200 C205 1.259 . S
Co201 O202 2.061 . S
Co201 O207 2.052 . S
Co201 O209 2.135 . S
O202 Co201 2.061 . S
O202 C205 1.235 . S
C203 O206 1.238 . S
C203 O207 1.241 . S
C204 O197 1.247 . S
C204 O198 1.261 . S
C205 O200 1.259 . S
C205 O202 1.235 . S
O206 Co196 2.021 . S
O206 C203 1.238 . S
O207 Co201 2.052 . S
O207 C203 1.241 . S
O208 Co196 2.137 . S
O208 C199 1.247 . S
O209 Co196 2.244 . S
O209 C199 1.272 . S
O209 Co201 2.135 . S
Co210 O211 2.216 . S
Co210 O212 2.091 . S
Co210 O214 2.004 . S
Co210 O220 2.021 . S
Co210 O222 2.137 . S
Co210 O223 2.244 . S
O211 Co210 2.216 . S
O211 C218 1.247 . S
O212 Co210 2.091 . S
O212 C218 1.261 . S
C213 O222 1.247 . S
C213 O223 1.272 . S
O214 Co210 2.004 . S
O214 C219 1.259 . S
Co215 O216 2.061 . S
Co215 O221 2.052 . S
Co215 O223 2.135 . S
O216 Co215 2.061 . S
O216 C219 1.235 . S
C217 O220 1.238 . S
C217 O221 1.241 . S
C218 O211 1.247 . S
C218 O212 1.261 . S
C219 O214 1.259 . S
C219 O216 1.235 . S
O220 Co210 2.021 . S
O220 C217 1.238 . S
O221 Co215 2.052 . S
O221 C217 1.241 . S
O222 Co210 2.137 . S
O222 C213 1.247 . S
O223 Co210 2.244 . S
O223 C213 1.272 . S
O223 Co215 2.135 . S
C7 C51 1.475 . S
C9 C21 1.475 . S
C23 C35 1.475 . S
C37 C49 1.475 . S
C63 C79 1.475 . S
C77 C93 1.475 . S
C91 C107 1.475 . S
C105 C65 1.475 . S
C119 C163 1.475 . S
C121 C133 1.475 . S
C135 C147 1.475 . S
C161 C149 1.475 . S
C191 C175 1.475 . S
C205 C189 1.475 . S
C203 C219 1.475 . S
C217 C177 1.475 . S
C8 C218 1.749 . S
C22 C176 1.749 . S
C190 C36 1.749 . S
C50 C204 1.749 . S
C134 C64 1.749 . S
C148 C78 1.749 . S
C92 C162 1.749 . S
C106 C120 1.749 . S
C3 C87 1.808 1_655 S
C101 C17 1.808 1_545 S
C59 C31 1.808 1_655 S
C73 C45 1.808 1_565 S
C115 C199 1.808 1_556 S
C129 C213 1.808 1_556 S
C171 C143 1.808 1_554 S
C157 C185 1.808 1_556 S
