# Generated by pormake.
# Topology lcy, (6)-cn, num edge types: 1
# Building blocks:
#     Node 0, Type 0, BuildingBlock: OJICUG_clean_sbu_0, # of connection points: 6
#     Node 1, Type 0, BuildingBlock: OJICUG_clean_sbu_0, # of connection points: 6
#     Node 2, Type 0, BuildingBlock: OJICUG_clean_sbu_0, # of connection points: 6
#     Node 3, Type 0, BuildingBlock: OJICUG_clean_sbu_0, # of connection points: 6
#     Edge 4, Type (0, 0), None
#     Edge 5, Type (0, 0), None
#     Edge 6, Type (0, 0), None
#     Edge 7, Type (0, 0), None
#     Edge 8, Type (0, 0), None
#     Edge 9, Type (0, 0), None
#     Edge 10, Type (0, 0), None
#     Edge 11, Type (0, 0), None
#     Edge 12, Type (0, 0), None
#     Edge 13, Type (0, 0), None
#     Edge 14, Type (0, 0), None
#     Edge 15, Type (0, 0), None
# Relax obj value: 0.357
# Max RMSD: 0.279
# Mean RMSD: 0.279
data_MOF--net-lcy--node1-OJICUG_clean_sbu_0--edge1-none
_symmetry_space_group_name_H-M    P1
_symmetry_Int_Tables_number       1
_symmetry_cell_setting            triclinic
loop_
_symmetry_equiv_pos_as_xyz
'x, y, z'
_cell_length_a     13.15744
_cell_length_b     13.157438
_cell_length_c     13.157438
_cell_angle_alpha  89.999361
_cell_angle_beta   90.000003
_cell_angle_gamma 89.99968
loop_
_atom_site_label
_atom_site_type_symbol
_atom_site_fract_x
_atom_site_fract_y
_atom_site_fract_z
_atom_type_partial_charge
Sc0 Sc 0.24794 0.45711 0.35253 0.0
Sc1 Sc 0.35252 0.24794 0.45711 0.0
Sc2 Sc 0.45711 0.35252 0.24794 0.0
O3 O 0.35252 0.35252 0.35253 0.0
C4 C 0.24776 0.44072 0.14118 0.0
C5 C 0.14118 0.24776 0.44073 0.0
C6 C 0.44073 0.14118 0.24776 0.0
C7 C 0.26432 0.4573 0.56387 0.0
C8 C 0.4573 0.56387 0.26433 0.0
C9 C 0.56387 0.26433 0.4573 0.0
O10 O 0.19615 0.40675 0.21348 0.0
O11 O 0.21348 0.19616 0.40674 0.0
O12 O 0.40674 0.21348 0.19616 0.0
O13 O 0.29832 0.50889 0.49157 0.0
O14 O 0.5089 0.49157 0.29831 0.0
O15 O 0.49157 0.29831 0.5089 0.0
O16 O 0.35914 0.56652 0.27533 0.0
O17 O 0.27532 0.35914 0.56653 0.0
O18 O 0.56652 0.27533 0.35914 0.0
O19 O 0.13853 0.34591 0.42973 0.0
O20 O 0.34591 0.42972 0.13853 0.0
O21 O 0.42972 0.13853 0.34591 0.0
Sc22 Sc 0.9571 0.10254 0.70712 0.0
Sc23 Sc 0.74795 -0.00206 0.60251 0.0
Sc24 Sc 0.85253 0.20712 0.49793 0.0
O25 O 0.85252 0.10253 0.60252 0.0
C26 C 0.94072 0.31387 0.70729 0.0
C27 C 0.74774 0.01432 0.81386 0.0
C28 C 0.64118 0.2073 0.51433 0.0
C29 C 0.9573 0.89119 0.69073 0.0
C30 C 0.06387 0.19072 0.49776 0.0
C31 C 0.76433 -0.00224 0.39117 0.0
O32 O 0.90671 0.24158 0.75889 0.0
O33 O 0.69614 0.04829 0.74156 0.0
O34 O 0.71348 0.2589 0.54831 0.0
O35 O 0.0089 0.96349 0.65677 0.0
O36 O -0.00843 0.15675 0.44615 0.0
O37 O 0.79833 0.94617 0.46347 0.0
O38 O 0.06652 0.17973 0.59592 0.0
O39 O 0.85915 0.88853 0.67971 0.0
O40 O 0.77533 0.09592 0.38852 0.0
O41 O 0.8459 0.02534 0.81652 0.0
O42 O 0.92973 0.31653 0.60914 0.0
O43 O 0.63853 0.10914 0.52532 0.0
Sc44 Sc 0.20712 0.49794 0.85251 0.0
Sc45 Sc 0.10253 0.70711 0.95711 0.0
Sc46 Sc -0.00207 0.60251 0.74794 0.0
O47 O 0.10252 0.60252 0.85252 0.0
C48 C 0.20729 0.51434 0.64117 0.0
C49 C 0.31387 0.7073 0.94072 0.0
C50 C 0.01432 0.81386 0.74775 0.0
C51 C 0.19073 0.49775 0.06386 0.0
C52 C -0.00224 0.39117 0.76434 0.0
C53 C 0.89118 0.69072 0.9573 0.0
O54 O 0.25889 0.54833 0.71347 0.0
O55 O 0.24157 0.75889 0.90674 0.0
O56 O 0.04828 0.74156 0.69614 0.0
O57 O 0.15676 0.44614 -0.00844 0.0
O58 O 0.94616 0.46347 0.79834 0.0
O59 O 0.96348 0.65674 0.0089 0.0
O60 O 0.09592 0.38852 0.77532 0.0
O61 O 0.17972 0.5959 0.06652 0.0
O62 O 0.88852 0.67971 0.85914 0.0
O63 O 0.31653 0.60914 0.92972 0.0
O64 O 0.10913 0.52532 0.63853 0.0
O65 O 0.02533 0.81652 0.84591 0.0
Sc66 Sc 0.60252 0.74794 -0.00206 0.0
Sc67 Sc 0.70711 0.95711 0.10253 0.0
Sc68 Sc 0.49794 0.85253 0.20711 0.0
O69 O 0.60252 0.85253 0.10253 0.0
C70 C 0.39118 0.76433 -0.00224 0.0
C71 C 0.69072 0.95729 0.89118 0.0
C72 C 0.49775 0.06387 0.19072 0.0
C73 C 0.81387 0.74775 0.01433 0.0
C74 C 0.51433 0.64118 0.2073 0.0
C75 C 0.7073 0.94072 0.31387 0.0
O76 O 0.46348 0.79831 0.94616 0.0
O77 O 0.65675 0.0089 0.96348 0.0
O78 O 0.44615 -0.00843 0.15674 0.0
O79 O 0.74157 0.69615 0.04831 0.0
O80 O 0.54831 0.71348 0.2589 0.0
O81 O 0.7589 0.90673 0.24157 0.0
O82 O 0.52533 0.63853 0.10914 0.0
O83 O 0.81652 0.84591 0.02533 0.0
O84 O 0.60914 0.92973 0.31652 0.0
O85 O 0.67972 0.85914 0.88853 0.0
O86 O 0.38853 0.77533 0.09591 0.0
O87 O 0.59591 0.06652 0.17972 0.0
loop_
_geom_bond_atom_site_label_1
_geom_bond_atom_site_label_2
_geom_bond_distance
_geom_bond_site_symmetry_2
_ccdc_geom_bond_type
Sc0 O3 2.025 . S
Sc0 O10 2.105 . S
Sc0 O13 2.105 . S
Sc0 O16 2.105 . S
Sc0 O19 2.105 . S
Sc1 O3 2.025 . S
Sc1 O11 2.105 . S
Sc1 O15 2.105 . S
Sc1 O17 2.105 . S
Sc1 O21 2.105 . S
Sc2 O3 2.025 . S
Sc2 O12 2.105 . S
Sc2 O14 2.105 . S
Sc2 O18 2.105 . S
Sc2 O20 2.105 . S
O3 Sc0 2.025 . S
O3 Sc1 2.025 . S
O3 Sc2 2.025 . S
C4 O10 1.268 . S
C4 O20 1.268 . S
C5 O11 1.268 . S
C5 O19 1.268 . S
C6 O12 1.268 . S
C6 O21 1.268 . S
C7 O13 1.268 . S
C7 O17 1.268 . S
C8 O14 1.268 . S
C8 O16 1.268 . S
C9 O15 1.268 . S
C9 O18 1.268 . S
O10 Sc0 2.105 . S
O10 C4 1.268 . S
O11 Sc1 2.105 . S
O11 C5 1.268 . S
O12 Sc2 2.105 . S
O12 C6 1.268 . S
O13 Sc0 2.105 . S
O13 C7 1.268 . S
O14 Sc2 2.105 . S
O14 C8 1.268 . S
O15 Sc1 2.105 . S
O15 C9 1.268 . S
O16 Sc0 2.105 . S
O16 C8 1.268 . S
O17 Sc1 2.105 . S
O17 C7 1.268 . S
O18 Sc2 2.105 . S
O18 C9 1.268 . S
O19 Sc0 2.105 . S
O19 C5 1.268 . S
O20 Sc2 2.105 . S
O20 C4 1.268 . S
O21 Sc1 2.105 . S
O21 C6 1.268 . S
Sc22 O25 2.025 . S
Sc22 O32 2.105 . S
Sc22 O35 2.105 1_645 S
Sc22 O38 2.105 1_655 S
Sc22 O41 2.105 . S
Sc23 O25 2.025 . S
Sc23 O33 2.105 . S
Sc23 O37 2.105 1_545 S
Sc23 O39 2.105 1_545 S
Sc23 O43 2.105 . S
Sc24 O25 2.025 . S
Sc24 O34 2.105 . S
Sc24 O36 2.105 1_655 S
Sc24 O40 2.105 . S
Sc24 O42 2.105 . S
O25 Sc22 2.025 . S
O25 Sc23 2.025 . S
O25 Sc24 2.025 . S
C26 O32 1.268 . S
C26 O42 1.268 . S
C27 O33 1.268 . S
C27 O41 1.268 . S
C28 O34 1.268 . S
C28 O43 1.268 . S
C29 O35 1.268 1_655 S
C29 O39 1.268 . S
C30 O36 1.268 . S
C30 O38 1.268 . S
C31 O37 1.268 1_545 S
C31 O40 1.268 . S
O32 Sc22 2.105 . S
O32 C26 1.268 . S
O33 Sc23 2.105 . S
O33 C27 1.268 . S
O34 Sc24 2.105 . S
O34 C28 1.268 . S
O35 Sc22 2.105 1_465 S
O35 C29 1.268 1_455 S
O36 Sc24 2.105 1_455 S
O36 C30 1.268 . S
O37 Sc23 2.105 1_565 S
O37 C31 1.268 1_565 S
O38 Sc22 2.105 1_455 S
O38 C30 1.268 . S
O39 Sc23 2.105 1_565 S
O39 C29 1.268 . S
O40 Sc24 2.105 . S
O40 C31 1.268 . S
O41 Sc22 2.105 . S
O41 C27 1.268 . S
O42 Sc24 2.105 . S
O42 C26 1.268 . S
O43 Sc23 2.105 . S
O43 C28 1.268 . S
Sc44 O47 2.025 . S
Sc44 O54 2.105 . S
Sc44 O57 2.105 1_556 S
Sc44 O60 2.105 . S
Sc44 O63 2.105 . S
Sc45 O47 2.025 . S
Sc45 O55 2.105 . S
Sc45 O59 2.105 1_456 S
Sc45 O61 2.105 1_556 S
Sc45 O65 2.105 . S
Sc46 O47 2.025 . S
Sc46 O56 2.105 . S
Sc46 O58 2.105 1_455 S
Sc46 O62 2.105 1_455 S
Sc46 O64 2.105 . S
O47 Sc44 2.025 . S
O47 Sc45 2.025 . S
O47 Sc46 2.025 . S
C48 O54 1.268 . S
C48 O64 1.268 . S
C49 O55 1.268 . S
C49 O63 1.268 . S
C50 O56 1.268 . S
C50 O65 1.268 . S
C51 O57 1.268 . S
C51 O61 1.268 . S
C52 O58 1.268 1_455 S
C52 O60 1.268 . S
C53 O59 1.268 1_556 S
C53 O62 1.268 . S
O54 Sc44 2.105 . S
O54 C48 1.268 . S
O55 Sc45 2.105 . S
O55 C49 1.268 . S
O56 Sc46 2.105 . S
O56 C50 1.268 . S
O57 Sc44 2.105 1_554 S
O57 C51 1.268 . S
O58 Sc46 2.105 1_655 S
O58 C52 1.268 1_655 S
O59 Sc45 2.105 1_654 S
O59 C53 1.268 1_554 S
O60 Sc44 2.105 . S
O60 C52 1.268 . S
O61 Sc45 2.105 1_554 S
O61 C51 1.268 . S
O62 Sc46 2.105 1_655 S
O62 C53 1.268 . S
O63 Sc44 2.105 . S
O63 C49 1.268 . S
O64 Sc46 2.105 . S
O64 C48 1.268 . S
O65 Sc45 2.105 . S
O65 C50 1.268 . S
Sc66 O69 2.025 . S
Sc66 O76 2.105 1_554 S
Sc66 O79 2.105 . S
Sc66 O82 2.105 . S
Sc66 O85 2.105 1_554 S
Sc67 O69 2.025 . S
Sc67 O77 2.105 1_564 S
Sc67 O81 2.105 . S
Sc67 O83 2.105 . S
Sc67 O87 2.105 1_565 S
Sc68 O69 2.025 . S
Sc68 O78 2.105 1_565 S
Sc68 O80 2.105 . S
Sc68 O84 2.105 . S
Sc68 O86 2.105 . S
O69 Sc66 2.025 . S
O69 Sc67 2.025 . S
O69 Sc68 2.025 . S
C70 O76 1.268 1_554 S
C70 O86 1.268 . S
C71 O77 1.268 1_565 S
C71 O85 1.268 . S
C72 O78 1.268 . S
C72 O87 1.268 . S
C73 O79 1.268 . S
C73 O83 1.268 . S
C74 O80 1.268 . S
C74 O82 1.268 . S
C75 O81 1.268 . S
C75 O84 1.268 . S
O76 Sc66 2.105 1_556 S
O76 C70 1.268 1_556 S
O77 Sc67 2.105 1_546 S
O77 C71 1.268 1_545 S
O78 Sc68 2.105 1_545 S
O78 C72 1.268 . S
O79 Sc66 2.105 . S
O79 C73 1.268 . S
O80 Sc68 2.105 . S
O80 C74 1.268 . S
O81 Sc67 2.105 . S
O81 C75 1.268 . S
O82 Sc66 2.105 . S
O82 C74 1.268 . S
O83 Sc67 2.105 . S
O83 C73 1.268 . S
O84 Sc68 2.105 . S
O84 C75 1.268 . S
O85 Sc66 2.105 1_556 S
O85 C71 1.268 . S
O86 Sc68 2.105 . S
O86 C70 1.268 . S
O87 Sc67 2.105 1_545 S
O87 C72 1.268 . S
C51 C4 1.816 . S
C75 C31 1.816 1_565 S
C48 C7 1.816 . S
C71 C27 1.816 1_565 S
C30 C5 1.816 . S
C50 C29 1.816 1_455 S
C49 C70 1.816 1_556 S
C6 C72 1.816 . S
C28 C9 1.816 . S
C52 C26 1.816 1_455 S
C53 C73 1.816 1_556 S
C74 C8 1.816 . S
