# Generated by pormake.
# Topology qtz-x, (6)-cn, num edge types: 1
# Building blocks:
#     Node 0, Type 0, BuildingBlock: BETDEL_clean_sbu_0, # of connection points: 6
#     Node 1, Type 0, BuildingBlock: BETDEL_clean_sbu_0, # of connection points: 6
#     Node 2, Type 0, BuildingBlock: BETDEL_clean_sbu_0, # of connection points: 6
#     Edge 3, Type (0, 0), BuildingBlock: XIVTED_clean_linker_0, # of connection points: 2
#     Edge 4, Type (0, 0), BuildingBlock: XIVTED_clean_linker_0, # of connection points: 2
#     Edge 5, Type (0, 0), BuildingBlock: XIVTED_clean_linker_0, # of connection points: 2
#     Edge 6, Type (0, 0), BuildingBlock: XIVTED_clean_linker_0, # of connection points: 2
#     Edge 7, Type (0, 0), BuildingBlock: XIVTED_clean_linker_0, # of connection points: 2
#     Edge 8, Type (0, 0), BuildingBlock: XIVTED_clean_linker_0, # of connection points: 2
#     Edge 9, Type (0, 0), BuildingBlock: XIVTED_clean_linker_0, # of connection points: 2
#     Edge 10, Type (0, 0), BuildingBlock: XIVTED_clean_linker_0, # of connection points: 2
#     Edge 11, Type (0, 0), BuildingBlock: XIVTED_clean_linker_0, # of connection points: 2
# Relax obj value: 0.134
# Max RMSD: 0.215
# Mean RMSD: 0.211
data_MOF--net-qtz-x--node1-BETDEL_clean_sbu_0--edge1-XIVTED_clean_linker_0
_symmetry_space_group_name_H-M    P1
_symmetry_Int_Tables_number       1
_symmetry_cell_setting            triclinic
loop_
_symmetry_equiv_pos_as_xyz
'x, y, z'
_cell_length_a     14.652325
_cell_length_b     14.76895
_cell_length_c     42.802868
_cell_angle_alpha  85.655163
_cell_angle_beta   97.459266
_cell_angle_gamma 120.30186
loop_
_atom_site_label
_atom_site_type_symbol
_atom_site_fract_x
_atom_site_fract_y
_atom_site_fract_z
_atom_type_partial_charge
Dy0 Dy 0.93078 0.4831 0.20265 0.0
C1 C 0.26586 0.70105 0.12772 0.0
C2 C 0.79187 0.39655 0.24759 0.0
Dy3 Dy 0.12721 0.5922 0.17174 0.0
O4 O 0.84935 0.49549 0.24152 0.0
O5 O 0.80723 0.34277 0.22821 0.0
O6 O 0.88394 0.59664 0.18031 0.0
O7 O 0.04519 0.65049 0.19575 0.0
C8 C 0.97953 0.67673 0.18243 0.0
C9 C 0.07956 0.39732 0.19024 0.0
O10 O 0.2014 0.6523 0.22 0.0
O11 O 0.06129 0.50964 0.24107 0.0
O12 O 0.27166 0.6338 0.14801 0.0
O13 O 0.18851 0.71455 0.13323 0.0
O14 O 0.17549 0.47647 0.19069 0.0
O15 O 0.01312 0.42446 0.1783 0.0
O16 O 0.84763 0.42428 0.15473 0.0
O17 O 0.00025 0.53503 0.1309 0.0
C18 C 0.15916 0.59067 0.2443 0.0
C19 C 0.89733 0.46606 0.1292 0.0
Dy20 Dy 0.60534 0.12859 0.53578 0.0
C21 C 0.48131 0.77761 0.46264 0.0
C22 C 0.67752 0.27988 0.58038 0.0
Dy23 Dy 0.51071 0.92226 0.50485 0.0
O24 O 0.7222 0.22709 0.57504 0.0
O25 O 0.59321 0.25286 0.56033 0.0
O26 O 0.75829 0.17573 0.51691 0.0
O27 O 0.66325 0.01927 0.53159 0.0
C28 C 0.74772 0.08295 0.51958 0.0
C29 C 0.36354 0.96444 0.51894 0.0
O30 O 0.52639 0.86762 0.55396 0.0
O31 O 0.526 0.00859 0.57354 0.0
O32 O 0.41182 0.76621 0.48089 0.0
O33 O 0.56866 0.86538 0.46895 0.0
O34 O 0.34987 0.87051 0.5187 0.0
O35 O 0.45128 0.03039 0.50893 0.0
O36 O 0.59665 0.19201 0.48679 0.0
O37 O 0.55112 0.03507 0.46409 0.0
C38 C 0.51544 0.91404 0.57729 0.0
C39 C 0.57805 0.13515 0.46168 0.0
Dy40 Dy 0.47818 0.60952 0.86607 0.0
C41 C 0.71957 0.53161 0.79179 0.0
C42 C 0.365 0.63075 0.90825 0.0
Dy43 Dy 0.60059 0.53484 0.83542 0.0
O44 O 0.43316 0.70656 0.89179 0.0
O45 O 0.35459 0.54274 0.90023 0.0
O46 O 0.58935 0.77468 0.85192 0.0
O47 O 0.64853 0.67181 0.86342 0.0
C48 C 0.67139 0.7625 0.85318 0.0
C49 C 0.40836 0.38056 0.8483 0.0
O50 O 0.67215 0.53301 0.8846 0.0
O51 O 0.53827 0.53876 0.90615 0.0
O52 O 0.66537 0.45365 0.8104 0.0
O53 O 0.7139 0.61249 0.79868 0.0
O54 O 0.49015 0.36822 0.84845 0.0
O55 O 0.43059 0.47151 0.83841 0.0
O56 O 0.4056 0.61344 0.81698 0.0
O57 O 0.53 0.5926 0.79484 0.0
C58 C 0.6202 0.52273 0.90898 0.0
C59 C 0.45116 0.6129 0.79225 0.0
H60 H 0.16414 0.85715 0.20046 0.0
H61 H 0.89377 0.21723 0.17213 0.0
H62 H 0.83792 0.7418 0.16211 0.0
H63 H 0.22008 0.33125 0.21013 0.0
H64 H 0.87014 0.04134 0.169 0.0
H65 H 0.187 0.03255 0.20341 0.0
C66 C 0.09772 0.86908 0.19239 0.0
C67 C -0.00105 0.78504 0.18117 0.0
C68 C 0.9468 0.10482 0.17813 0.0
C69 C 0.0238 -0.01536 0.18478 0.0
C70 C 0.95999 0.20491 0.18009 0.0
C71 C 0.05908 0.28868 0.19126 0.0
C72 C 0.03336 0.08878 0.18745 0.0
C73 C 0.14246 0.26877 0.20121 0.0
C74 C 0.11049 0.96895 0.19423 0.0
C75 C 0.91535 0.80454 0.17104 0.0
N76 N 0.12787 0.17106 0.19895 0.0
N77 N 0.9295 0.90217 0.17322 0.0
H78 H 0.16677 0.82482 0.5355 0.0
H79 H 0.94276 0.22153 0.50124 0.0
H80 H 0.35792 0.14665 0.50599 0.0
H81 H 0.75545 0.90269 0.53381 0.0
H82 H 0.09442 0.19472 0.50171 0.0
H83 H 0.01541 0.85193 0.5349 0.0
C84 C 0.17691 0.90146 0.52901 0.0
C85 C 0.27475 -0.01644 0.52064 0.0
C86 C 0.0202 0.13047 0.5087 0.0
C87 C 0.10153 0.01509 0.51973 0.0
C88 C 0.93346 0.1456 0.50834 0.0
C89 C 0.83665 0.06424 0.51763 0.0
C90 C 0.01011 0.03315 0.51839 0.0
C91 C 0.82884 0.96748 0.52653 0.0
C92 C 0.09037 0.91682 0.52862 0.0
C93 C 0.2837 0.08129 0.51256 0.0
N94 N 0.9146 0.95469 0.52678 0.0
N95 N 0.19796 0.09426 0.51219 0.0
H96 H 0.85902 0.76041 0.86404 0.0
H97 H 0.22073 0.38262 0.83837 0.0
H98 H 0.73187 0.96637 0.8385 0.0
H99 H 0.34832 0.17639 0.86242 0.0
H100 H 0.04073 0.23135 0.83905 0.0
H101 H 0.03922 0.91163 0.86353 0.0
C102 C 0.86914 0.83741 0.85821 0.0
C103 C 0.78064 0.85111 0.85142 0.0
C104 C 0.10809 0.21916 0.84422 0.0
C105 C -0.01393 0.02439 0.85091 0.0
C106 C 0.21075 0.30553 0.84391 0.0
C107 C 0.29931 0.29178 0.85022 0.0
C108 C 0.09403 0.11838 0.85092 0.0
C109 C 0.28208 0.19032 0.85731 0.0
C110 C 0.97189 0.92374 0.85799 0.0
C111 C 0.79804 0.95244 0.84398 0.0
N112 N 0.18156 0.10754 0.8574 0.0
N113 N 0.89861 0.03515 0.844 0.0
H114 H 0.37215 0.80638 0.92848 0.0
H115 H 0.3788 0.62298 0.10648 0.0
H116 H 0.29924 0.49248 0.95704 0.0
H117 H 0.23751 0.81536 0.07765 0.0
H118 H 0.39888 0.61089 0.05144 0.0
H119 H 0.3587 0.84003 0.9828 0.0
C120 C 0.35131 0.74411 0.94601 0.0
C121 C 0.33619 0.64635 0.93833 0.0
C122 C 0.36502 0.65711 0.05727 0.0
C123 C 0.32583 0.68582 1.00016 0.0
C124 C 0.35481 0.66526 0.08868 0.0
C125 C 0.30569 0.71964 0.09658 0.0
C126 C 0.32759 0.70512 0.03365 0.0
C127 C 0.27566 0.77253 0.07247 0.0
C128 C 0.34449 0.76362 0.97689 0.0
C129 C 0.31067 0.56863 0.9619 0.0
N130 N 0.28649 0.7635 0.0419 0.0
N131 N 0.30806 0.59061 0.99187 0.0
H132 H 0.68224 0.34382 0.44252 0.0
H133 H 0.67403 0.19192 0.26699 0.0
H134 H 0.49805 0.02831 0.4068 0.0
H135 H 0.78689 0.51002 0.29377 0.0
H136 H 0.60472 0.13085 0.31822 0.0
H137 H 0.71753 0.40904 0.38824 0.0
C138 C 0.64795 0.28861 0.42334 0.0
C139 C 0.58853 0.18049 0.42934 0.0
C140 C 0.64348 0.214 0.31275 0.0
C141 C 0.62932 0.25382 0.36752 0.0
C142 C 0.68273 0.24861 0.28348 0.0
C143 C 0.73633 0.35592 0.27623 0.0
C144 C 0.65947 0.28748 0.33505 0.0
C145 C 0.74605 0.42639 0.29849 0.0
C146 C 0.66831 0.32565 0.39239 0.0
C147 C 0.54602 0.11232 0.40351 0.0
N148 N 0.70925 0.39113 0.32705 0.0
N149 N 0.56822 0.14993 0.37393 0.0
H150 H 0.40119 0.7659 0.77296 0.0
H151 H 0.48272 0.718 0.59474 0.0
H152 H 0.4332 0.5172 0.73877 0.0
H153 H 0.47901 -0.01679 0.62934 0.0
H154 H 0.43662 0.63018 0.64569 0.0
H155 H 0.39634 0.83121 0.71849 0.0
C156 C 0.40363 0.72324 0.75388 0.0
C157 C 0.41815 0.63665 0.76021 0.0
C158 C 0.44529 0.70739 0.64208 0.0
C159 C 0.41524 0.71142 0.69837 0.0
C160 C 0.47206 0.75774 0.613 0.0
C161 C 0.48597 0.85861 0.60781 0.0
C162 C 0.43245 0.75824 0.66624 0.0
C163 C 0.47011 0.90581 0.63233 0.0
C164 C 0.40223 0.76107 0.72289 0.0
C165 C 0.42266 0.58483 0.7348 0.0
N166 N 0.44485 0.85553 0.66052 0.0
N167 N 0.42244 0.62362 0.70509 0.0
H168 H 0.79419 0.49931 0.9278 0.0
H169 H 0.68939 0.4122 0.10995 0.0
H170 H 0.52093 0.48037 0.96244 0.0
H171 H 0.977 0.46585 0.07561 0.0
H172 H 0.61177 0.40661 0.05512 0.0
H173 H 0.84962 0.46006 0.98108 0.0
C174 C 0.74561 0.48646 0.94651 0.0
C175 C 0.65354 0.49447 0.94063 0.0
C176 C 0.69134 0.41808 0.05965 0.0
C177 C 0.71611 0.44907 1.00168 0.0
C178 C 0.73509 0.4203 0.0909 0.0
C179 C 0.83995 0.44065 0.09725 0.0
C180 C 0.75302 0.43581 0.0348 0.0
C181 C 0.89623 0.45141 0.07173 0.0
C182 C 0.77714 0.46389 0.97694 0.0
C183 C 0.59327 0.47625 0.96585 0.0
N184 N 0.85252 0.44981 0.0417 0.0
N185 N 0.62591 0.45505 0.99524 0.0
H186 H 0.36254 0.74897 0.26319 0.0
H187 H 0.30061 0.59618 0.44429 0.0
H188 H 0.09553 0.47078 0.29722 0.0
H189 H 0.59311 0.84167 0.41146 0.0
H190 H 0.23245 0.53765 0.39006 0.0
H191 H 0.45556 0.77744 0.31665 0.0
C192 C 0.3238 0.69365 0.28177 0.0
C193 C 0.22058 0.60819 0.27574 0.0
C194 C 0.31241 0.6031 0.3947 0.0
C195 C 0.32629 0.6398 0.33675 0.0
C196 C 0.35151 0.63589 0.42572 0.0
C197 C 0.4521 0.72413 0.43226 0.0
C198 C 0.37369 0.66033 0.37004 0.0
C199 C 0.51486 0.77322 0.40735 0.0
C200 C 0.37704 0.70959 0.31224 0.0
C201 C 0.17449 0.53853 0.3007 0.0
N202 N 0.47381 0.742 0.37721 0.0
N203 N 0.22721 0.55639 0.33004 0.0
H204 H 0.72715 0.64571 0.73833 0.0
H205 H 0.8235 0.29758 0.62887 0.0
H206 H 0.76446 0.38448 0.77472 0.0
H207 H 0.59684 0.39936 0.59815 0.0
H208 H 0.85442 0.37533 0.68026 0.0
H209 H 0.73185 0.60066 0.68479 0.0
C210 C 0.73955 0.58076 0.73514 0.0
C211 C 0.74586 0.51868 0.76094 0.0
C212 C 0.7991 0.38184 0.66211 0.0
C213 C 0.75154 0.46764 0.7 0.0
C214 C 0.78159 0.33806 0.63272 0.0
C215 C 0.7068 0.34148 0.60928 0.0
C216 C 0.74312 0.43136 0.66797 0.0
C217 C 0.65484 0.39482 0.61564 0.0
C218 C 0.741 0.55467 0.7046 0.0
C219 C 0.75979 0.43436 0.75544 0.0
N220 N 0.67388 0.43777 0.64452 0.0
N221 N 0.7623 0.41126 0.7255 0.0
loop_
_geom_bond_atom_site_label_1
_geom_bond_atom_site_label_2
_geom_bond_distance
_geom_bond_site_symmetry_2
_ccdc_geom_bond_type
Dy0 O4 2.398 . S
Dy0 O5 2.491 . S
Dy0 O6 2.403 . S
Dy0 O7 2.664 1_655 S
Dy0 O11 2.326 1_655 S
Dy0 O15 2.310 . S
Dy0 O16 2.351 . S
C1 O12 1.185 . S
C1 O13 1.355 . S
C2 O4 1.185 . S
C2 O5 1.355 . S
Dy3 O7 2.310 . S
Dy3 O10 2.351 . S
Dy3 O12 2.398 . S
Dy3 O13 2.491 . S
Dy3 O14 2.403 . S
Dy3 O15 2.664 1_455 S
Dy3 O17 2.326 1_455 S
O4 Dy0 2.398 . S
O4 C2 1.185 . S
O5 Dy0 2.491 . S
O5 C2 1.355 . S
O6 Dy0 2.403 . S
O6 C8 1.254 . S
O7 Dy0 2.664 1_455 S
O7 Dy3 2.310 . S
O7 C8 1.268 1_455 S
C8 O6 1.254 . S
C8 O7 1.268 1_655 S
C9 O14 1.254 . S
C9 O15 1.268 1_455 S
O10 Dy3 2.351 . S
O10 C18 1.249 . S
O11 Dy0 2.326 1_455 S
O11 C18 1.267 . S
O12 C1 1.185 . S
O12 Dy3 2.398 . S
O13 C1 1.355 . S
O13 Dy3 2.491 . S
O14 Dy3 2.403 . S
O14 C9 1.254 . S
O15 Dy0 2.310 . S
O15 Dy3 2.664 1_655 S
O15 C9 1.268 1_655 S
O16 Dy0 2.351 . S
O16 C19 1.249 . S
O17 Dy3 2.326 1_655 S
O17 C19 1.267 . S
C18 O10 1.249 . S
C18 O11 1.267 . S
C19 O16 1.249 . S
C19 O17 1.267 . S
Dy20 O24 2.398 . S
Dy20 O25 2.491 . S
Dy20 O26 2.403 . S
Dy20 O27 2.664 1_545 S
Dy20 O31 2.326 1_545 S
Dy20 O35 2.310 . S
Dy20 O36 2.351 . S
C21 O32 1.185 . S
C21 O33 1.355 . S
C22 O24 1.185 . S
C22 O25 1.355 . S
Dy23 O27 2.310 . S
Dy23 O30 2.351 . S
Dy23 O32 2.398 . S
Dy23 O33 2.491 . S
Dy23 O34 2.403 . S
Dy23 O35 2.664 1_565 S
Dy23 O37 2.326 1_565 S
O24 Dy20 2.398 . S
O24 C22 1.185 . S
O25 Dy20 2.491 . S
O25 C22 1.355 . S
O26 Dy20 2.403 . S
O26 C28 1.254 . S
O27 Dy20 2.664 1_565 S
O27 Dy23 2.310 . S
O27 C28 1.268 1_565 S
C28 O26 1.254 . S
C28 O27 1.268 1_545 S
C29 O34 1.254 . S
C29 O35 1.268 1_565 S
O30 Dy23 2.351 . S
O30 C38 1.249 . S
O31 Dy20 2.326 1_565 S
O31 C38 1.267 . S
O32 C21 1.185 . S
O32 Dy23 2.398 . S
O33 C21 1.355 . S
O33 Dy23 2.491 . S
O34 Dy23 2.403 . S
O34 C29 1.254 . S
O35 Dy20 2.310 . S
O35 Dy23 2.664 1_545 S
O35 C29 1.268 1_545 S
O36 Dy20 2.351 . S
O36 C39 1.249 . S
O37 Dy23 2.326 1_545 S
O37 C39 1.267 . S
C38 O30 1.249 . S
C38 O31 1.267 . S
C39 O36 1.249 . S
C39 O37 1.267 . S
Dy40 O44 2.398 . S
Dy40 O45 2.491 . S
Dy40 O46 2.403 . S
Dy40 O47 2.664 . S
Dy40 O51 2.326 . S
Dy40 O55 2.310 . S
Dy40 O56 2.351 . S
C41 O52 1.185 . S
C41 O53 1.355 . S
C42 O44 1.185 . S
C42 O45 1.355 . S
Dy43 O47 2.310 . S
Dy43 O50 2.351 . S
Dy43 O52 2.398 . S
Dy43 O53 2.491 . S
Dy43 O54 2.403 . S
Dy43 O55 2.664 . S
Dy43 O57 2.326 . S
O44 Dy40 2.398 . S
O44 C42 1.185 . S
O45 Dy40 2.491 . S
O45 C42 1.355 . S
O46 Dy40 2.403 . S
O46 C48 1.254 . S
O47 Dy40 2.664 . S
O47 Dy43 2.310 . S
O47 C48 1.268 . S
C48 O46 1.254 . S
C48 O47 1.268 . S
C49 O54 1.254 . S
C49 O55 1.268 . S
O50 Dy43 2.351 . S
O50 C58 1.249 . S
O51 Dy40 2.326 . S
O51 C58 1.267 . S
O52 C41 1.185 . S
O52 Dy43 2.398 . S
O53 C41 1.355 . S
O53 Dy43 2.491 . S
O54 Dy43 2.403 . S
O54 C49 1.254 . S
O55 Dy40 2.310 . S
O55 Dy43 2.664 . S
O55 C49 1.268 . S
O56 Dy40 2.351 . S
O56 C59 1.249 . S
O57 Dy43 2.326 . S
O57 C59 1.267 . S
C58 O50 1.249 . S
C58 O51 1.267 . S
C59 O56 1.249 . S
C59 O57 1.267 . S
H60 C66 0.930 . S
H61 C70 0.930 . S
H62 C75 0.929 . S
H63 C73 0.929 . S
H64 C68 0.929 . S
H65 C74 0.929 . S
C66 H60 0.930 . S
C66 C67 1.367 . S
C66 C74 1.378 . S
C67 C66 1.367 . S
C67 C75 1.433 1_455 S
C68 H64 0.929 . S
C68 C70 1.378 . S
C68 C72 1.352 . S
C69 C72 1.455 1_465 S
C69 C74 1.352 . S
C69 N77 1.429 1_455 S
C70 H61 0.930 . S
C70 C68 1.378 . S
C70 C71 1.367 . S
C71 C70 1.367 . S
C71 C73 1.433 1_655 S
C72 C68 1.352 . S
C72 C69 1.455 1_645 S
C72 N76 1.429 1_655 S
C73 H63 0.929 . S
C73 C71 1.433 1_455 S
C73 N76 1.384 . S
C74 H65 0.929 . S
C74 C66 1.378 . S
C74 C69 1.352 . S
C75 H62 0.929 . S
C75 C67 1.433 1_655 S
C75 N77 1.384 . S
N76 C72 1.429 1_455 S
N76 C73 1.384 . S
N77 C69 1.429 1_655 S
N77 C75 1.384 . S
H78 C84 0.930 . S
H79 C88 0.930 . S
H80 C93 0.929 . S
H81 C91 0.929 . S
H82 C86 0.929 . S
H83 C92 0.929 . S
C84 H78 0.930 . S
C84 C85 1.367 1_565 S
C84 C92 1.378 . S
C85 C84 1.367 1_545 S
C85 C93 1.433 . S
C86 H82 0.929 . S
C86 C88 1.378 1_455 S
C86 C90 1.350 . S
C87 C90 1.463 1_565 S
C87 C92 1.349 . S
C87 N95 1.428 1_565 S
C88 H79 0.930 . S
C88 C86 1.378 1_655 S
C88 C89 1.367 . S
C89 C88 1.367 . S
C89 C91 1.433 1_545 S
C90 C86 1.350 . S
C90 C87 1.463 1_545 S
C90 N94 1.427 1_445 S
C91 H81 0.929 . S
C91 C89 1.433 1_565 S
C91 N94 1.384 . S
C92 H83 0.929 . S
C92 C84 1.378 . S
C92 C87 1.349 . S
C93 H80 0.929 . S
C93 C85 1.433 . S
C93 N95 1.384 . S
N94 C90 1.427 1_665 S
N94 C91 1.384 . S
N95 C87 1.428 1_545 S
N95 C93 1.384 . S
H96 C102 0.930 . S
H97 C106 0.930 . S
H98 C111 0.929 . S
H99 C109 0.929 . S
H100 C104 0.929 . S
H101 C110 0.929 . S
C102 H96 0.930 . S
C102 C103 1.367 . S
C102 C110 1.378 1_665 S
C103 C102 1.367 . S
C103 C111 1.433 . S
C104 H100 0.929 . S
C104 C106 1.378 . S
C104 C108 1.350 . S
C105 C108 1.463 . S
C105 C110 1.350 . S
C105 N113 1.427 1_455 S
C106 H97 0.930 . S
C106 C104 1.378 . S
C106 C107 1.367 . S
C107 C106 1.367 . S
C107 C109 1.433 . S
C108 C104 1.350 . S
C108 C105 1.463 . S
C108 N112 1.427 . S
C109 H99 0.929 . S
C109 C107 1.433 . S
C109 N112 1.384 . S
C110 H101 0.929 . S
C110 C102 1.378 1_445 S
C110 C105 1.350 . S
C111 H98 0.929 . S
C111 C103 1.433 . S
C111 N113 1.384 1_565 S
N112 C108 1.427 . S
N112 C109 1.384 . S
N113 C105 1.427 1_655 S
N113 C111 1.384 1_545 S
H114 C120 0.930 . S
H115 C124 0.930 . S
H116 C129 0.929 . S
H117 C127 0.929 . S
H118 C122 0.929 . S
H119 C128 0.929 . S
C120 H114 0.930 . S
C120 C121 1.367 . S
C120 C128 1.378 . S
C121 C120 1.367 . S
C121 C129 1.433 . S
C122 H118 0.929 . S
C122 C124 1.378 . S
C122 C126 1.350 . S
C123 C126 1.463 1_556 S
C123 C128 1.350 . S
C123 N131 1.427 . S
C124 H115 0.930 . S
C124 C122 1.378 . S
C124 C125 1.367 . S
C125 C124 1.367 . S
C125 C127 1.433 . S
C126 C122 1.350 . S
C126 C123 1.463 1_554 S
C126 N130 1.427 . S
C127 H117 0.929 . S
C127 C125 1.433 . S
C127 N130 1.384 . S
C128 H119 0.929 . S
C128 C120 1.378 . S
C128 C123 1.350 . S
C129 H116 0.929 . S
C129 C121 1.433 . S
C129 N131 1.384 . S
N130 C126 1.427 . S
N130 C127 1.384 . S
N131 C123 1.427 . S
N131 C129 1.384 . S
H132 C138 0.930 . S
H133 C142 0.930 . S
H134 C147 0.929 . S
H135 C145 0.929 . S
H136 C140 0.929 . S
H137 C146 0.929 . S
C138 H132 0.930 . S
C138 C139 1.367 . S
C138 C146 1.378 . S
C139 C138 1.367 . S
C139 C147 1.433 . S
C140 H136 0.929 . S
C140 C142 1.378 . S
C140 C144 1.350 . S
C141 C144 1.463 . S
C141 C146 1.350 . S
C141 N149 1.427 . S
C142 H133 0.930 . S
C142 C140 1.378 . S
C142 C143 1.367 . S
C143 C142 1.367 . S
C143 C145 1.433 . S
C144 C140 1.350 . S
C144 C141 1.463 . S
C144 N148 1.427 . S
C145 H135 0.929 . S
C145 C143 1.433 . S
C145 N148 1.384 . S
C146 H137 0.929 . S
C146 C138 1.378 . S
C146 C141 1.350 . S
C147 H134 0.929 . S
C147 C139 1.433 . S
C147 N149 1.384 . S
N148 C144 1.427 . S
N148 C145 1.384 . S
N149 C141 1.427 . S
N149 C147 1.384 . S
H150 C156 0.930 . S
H151 C160 0.930 . S
H152 C165 0.929 . S
H153 C163 0.929 . S
H154 C158 0.929 . S
H155 C164 0.929 . S
C156 H150 0.930 . S
C156 C157 1.367 . S
C156 C164 1.378 . S
C157 C156 1.367 . S
C157 C165 1.433 . S
C158 H154 0.929 . S
C158 C160 1.378 . S
C158 C162 1.350 . S
C159 C162 1.463 . S
C159 C164 1.350 . S
C159 N167 1.427 . S
C160 H151 0.930 . S
C160 C158 1.378 . S
C160 C161 1.367 . S
C161 C160 1.367 . S
C161 C163 1.433 . S
C162 C158 1.350 . S
C162 C159 1.463 . S
C162 N166 1.427 . S
C163 H153 0.929 . S
C163 C161 1.433 . S
C163 N166 1.384 . S
C164 H155 0.929 . S
C164 C156 1.378 . S
C164 C159 1.350 . S
C165 H152 0.929 . S
C165 C157 1.433 . S
C165 N167 1.384 . S
N166 C162 1.427 . S
N166 C163 1.384 . S
N167 C159 1.427 . S
N167 C165 1.384 . S
H168 C174 0.930 . S
H169 C178 0.930 . S
H170 C183 0.929 . S
H171 C181 0.929 . S
H172 C176 0.929 . S
H173 C182 0.929 . S
C174 H168 0.930 . S
C174 C175 1.367 . S
C174 C182 1.378 . S
C175 C174 1.367 . S
C175 C183 1.433 . S
C176 H172 0.929 . S
C176 C178 1.378 . S
C176 C180 1.350 . S
C177 C180 1.463 1_556 S
C177 C182 1.350 . S
C177 N185 1.427 . S
C178 H169 0.930 . S
C178 C176 1.378 . S
C178 C179 1.367 . S
C179 C178 1.367 . S
C179 C181 1.433 . S
C180 C176 1.350 . S
C180 C177 1.463 1_554 S
C180 N184 1.427 . S
C181 H171 0.929 . S
C181 C179 1.433 . S
C181 N184 1.384 . S
C182 H173 0.929 . S
C182 C174 1.378 . S
C182 C177 1.350 . S
C183 H170 0.929 . S
C183 C175 1.433 . S
C183 N185 1.384 . S
N184 C180 1.427 . S
N184 C181 1.384 . S
N185 C177 1.427 . S
N185 C183 1.384 . S
H186 C192 0.930 . S
H187 C196 0.930 . S
H188 C201 0.929 . S
H189 C199 0.929 . S
H190 C194 0.929 . S
H191 C200 0.929 . S
C192 H186 0.930 . S
C192 C193 1.367 . S
C192 C200 1.378 . S
C193 C192 1.367 . S
C193 C201 1.433 . S
C194 H190 0.929 . S
C194 C196 1.378 . S
C194 C198 1.350 . S
C195 C198 1.463 . S
C195 C200 1.350 . S
C195 N203 1.427 . S
C196 H187 0.930 . S
C196 C194 1.378 . S
C196 C197 1.367 . S
C197 C196 1.367 . S
C197 C199 1.433 . S
C198 C194 1.350 . S
C198 C195 1.463 . S
C198 N202 1.427 . S
C199 H189 0.929 . S
C199 C197 1.433 . S
C199 N202 1.384 . S
C200 H191 0.929 . S
C200 C192 1.378 . S
C200 C195 1.350 . S
C201 H188 0.929 . S
C201 C193 1.433 . S
C201 N203 1.384 . S
N202 C198 1.427 . S
N202 C199 1.384 . S
N203 C195 1.427 . S
N203 C201 1.384 . S
H204 C210 0.930 . S
H205 C214 0.930 . S
H206 C219 0.929 . S
H207 C217 0.929 . S
H208 C212 0.929 . S
H209 C218 0.929 . S
C210 H204 0.930 . S
C210 C211 1.367 . S
C210 C218 1.378 . S
C211 C210 1.367 . S
C211 C219 1.433 . S
C212 H208 0.929 . S
C212 C214 1.378 . S
C212 C216 1.350 . S
C213 C216 1.463 . S
C213 C218 1.350 . S
C213 N221 1.427 . S
C214 H205 0.930 . S
C214 C212 1.378 . S
C214 C215 1.367 . S
C215 C214 1.367 . S
C215 C217 1.433 . S
C216 C212 1.350 . S
C216 C213 1.463 . S
C216 N220 1.427 . S
C217 H207 0.929 . S
C217 C215 1.433 . S
C217 N220 1.384 . S
C218 H209 0.929 . S
C218 C210 1.378 . S
C218 C213 1.350 . S
C219 H206 0.929 . S
C219 C211 1.433 . S
C219 N221 1.384 . S
N220 C216 1.427 . S
N220 C217 1.384 . S
N221 C213 1.427 . S
N221 C219 1.384 . S
C67 C8 1.190 1_455 S
C71 C9 1.190 1_655 S
C85 C29 1.213 1_545 S
C89 C28 1.213 . S
C103 C48 1.184 . S
C107 C49 1.184 . S
C121 C42 1.239 . S
C125 C1 1.217 . S
C139 C39 1.542 . S
C143 C2 1.537 . S
C157 C59 1.593 . S
C161 C38 1.577 . S
C175 C58 1.559 . S
C179 C19 1.578 . S
C193 C18 1.293 . S
C197 C21 1.284 . S
C211 C41 1.221 . S
C215 C22 1.238 . S
