# Generated by pormake.
# Topology vme, (6)-cn, num edge types: 1
# Building blocks:
#     Node 0, Type 0, BuildingBlock: IZENUY_clean_sbu_0, # of connection points: 6
#     Node 1, Type 0, BuildingBlock: IZENUY_clean_sbu_0, # of connection points: 6
#     Node 2, Type 0, BuildingBlock: IZENUY_clean_sbu_0, # of connection points: 6
#     Node 3, Type 0, BuildingBlock: IZENUY_clean_sbu_0, # of connection points: 6
#     Edge 4, Type (0, 0), None
#     Edge 5, Type (0, 0), None
#     Edge 6, Type (0, 0), None
#     Edge 7, Type (0, 0), None
#     Edge 8, Type (0, 0), None
#     Edge 9, Type (0, 0), None
#     Edge 10, Type (0, 0), None
#     Edge 11, Type (0, 0), None
#     Edge 12, Type (0, 0), None
#     Edge 13, Type (0, 0), None
#     Edge 14, Type (0, 0), None
#     Edge 15, Type (0, 0), None
# Relax obj value: 0.239
# Max RMSD: 0.244
# Mean RMSD: 0.244
data_MOF--net-vme--node1-IZENUY_clean_sbu_0--edge1-none
_symmetry_space_group_name_H-M    P1
_symmetry_Int_Tables_number       1
_symmetry_cell_setting            triclinic
loop_
_symmetry_equiv_pos_as_xyz
'x, y, z'
_cell_length_a     11.437899
_cell_length_b     12.179677
_cell_length_c     12.674462
_cell_angle_alpha  90.000855
_cell_angle_beta   114.68347
_cell_angle_gamma 90.00114
loop_
_atom_site_label
_atom_site_type_symbol
_atom_site_fract_x
_atom_site_fract_y
_atom_site_fract_z
_atom_type_partial_charge
Fe0 Fe 0.11294 0.4155 0.30223 0.0
Fe1 Fe 0.35993 0.28936 0.42993 0.0
O2 O 0.25964 0.39739 0.42298 0.0
Fe3 Fe 0.29191 0.47787 0.54472 0.0
O4 O 0.15903 0.41081 0.55009 0.0
O5 O 1.02987 0.47951 0.39446 0.0
O6 O 1.05121 0.29066 0.32477 0.0
C7 C 0.09586 0.20391 0.30783 0.0
C8 C 0.15898 0.6187 0.33825 0.0
O9 O 0.21853 0.19529 0.33404 0.0
C10 C 0.51856 0.48642 0.53517 0.0
O11 O 0.18189 0.35232 0.19913 0.0
O12 O 0.38753 0.34383 0.3137 0.0
O13 O 0.20584 0.60255 0.44895 0.0
O14 O 0.16406 0.54398 0.27374 0.0
C15 C 0.33929 0.26721 0.63401 0.0
O16 O 0.508 0.379 0.52214 0.0
O17 O 0.43033 0.54005 0.54288 0.0
C18 C 0.30071 0.33501 0.21507 0.0
O19 O 0.33366 0.22196 0.5447 0.0
O20 O 0.37673 0.36755 0.65138 0.0
C21 C 1.06979 0.47046 0.50594 0.0
Fe22 Fe 0.79666 0.78936 0.15938 0.0
Fe23 Fe 0.86469 0.97787 1.04458 0.0
O24 O 0.89695 0.89739 0.16633 0.0
Fe25 Fe 1.04367 0.9155 0.28708 0.0
O26 O 0.10537 0.79066 0.26449 0.0
O27 O 0.93805 0.69529 0.25526 0.0
O28 O 0.82292 0.72196 1.0446 0.0
C29 C 0.8173 0.76721 0.9553 0.0
C30 C 0.8559 0.83501 0.37424 0.0
O31 O 0.77987 0.86754 0.93793 0.0
C32 C 0.9976 0.11869 0.25105 0.0
O33 O 0.64859 0.879 0.06717 0.0
O34 O 0.72627 0.04004 0.04642 0.0
O35 O 0.97473 0.85232 0.39017 0.0
O36 O 0.76908 0.84384 0.27562 0.0
C37 C 0.08681 0.97046 0.08337 0.0
O38 O 0.95077 0.10255 0.14036 0.0
O39 O 0.99259 0.04398 0.3156 0.0
C40 C 0.63805 0.98643 0.05413 0.0
O41 O 0.99757 0.91081 1.03922 0.0
O42 O 0.12674 0.97951 0.19484 0.0
C43 C 1.06072 0.70391 0.28146 0.0
Fe44 Fe 0.86465 0.5606 0.54456 0.0
Fe45 Fe 1.04366 0.62289 0.7871 0.0
O46 O 0.89697 0.64108 0.66634 0.0
Fe47 Fe 0.79671 0.74912 0.6594 0.0
O48 O 0.823 0.81651 0.54464 0.0
O49 O 0.77981 0.67094 0.43793 0.0
O50 O 0.99752 0.62766 0.53912 0.0
C51 C 0.08678 0.56806 0.5834 0.0
C52 C 0.63803 0.55209 0.55416 0.0
O53 O 0.12672 0.55889 0.69487 0.0
C54 C 0.85591 0.70343 0.87424 0.0
O55 O 0.95071 0.4359 0.64031 0.0
O56 O 0.99246 0.49442 0.81552 0.0
O57 O 0.6486 0.6595 0.56718 0.0
O58 O 0.72625 0.49844 0.54646 0.0
C59 C 1.06082 0.8345 0.78155 0.0
O60 O 0.97473 0.68608 0.8902 0.0
O61 O 0.76907 0.69465 0.77562 0.0
C62 C 0.99754 0.41971 0.75099 0.0
O63 O 0.10546 0.74773 0.76463 0.0
O64 O 0.93813 0.84315 0.75531 0.0
C65 C 0.81727 0.77127 0.45529 0.0
Fe66 Fe 0.35991 0.24912 0.9299 0.0
Fe67 Fe 0.29195 0.0606 0.04474 0.0
O68 O 0.25964 0.14107 0.92297 0.0
Fe69 Fe 0.11293 0.1229 0.8022 0.0
O70 O 1.05116 0.24774 0.82471 0.0
O71 O 0.21848 0.34315 0.83401 0.0
O72 O 0.33362 0.31651 0.04467 0.0
C73 C 0.33935 0.27127 0.13401 0.0
C74 C 0.30069 0.20343 0.71506 0.0
O75 O 0.3768 0.17094 0.15138 0.0
C76 C 0.15908 0.91972 0.83831 0.0
O77 O 0.508 0.1595 1.02212 0.0
O78 O 0.43035 0.99844 1.04285 0.0
O79 O 0.18186 0.18609 0.6991 0.0
O80 O 0.38752 0.19465 0.81368 0.0
C81 C 1.06982 0.06806 1.0059 0.0
O82 O 0.20589 0.9359 0.949 0.0
O83 O 0.16409 0.99442 0.77375 0.0
C84 C 0.51856 0.05208 1.03515 0.0
O85 O 0.15909 0.12766 0.05018 0.0
O86 O 1.02988 0.05888 0.89444 0.0
C87 C 0.0958 0.3345 0.80778 0.0
loop_
_geom_bond_atom_site_label_1
_geom_bond_atom_site_label_2
_geom_bond_distance
_geom_bond_site_symmetry_2
_ccdc_geom_bond_type
Fe0 O2 1.918 . S
Fe0 O5 1.997 1_455 S
Fe0 O6 2.002 1_455 S
Fe0 O11 1.976 . S
Fe0 O14 1.996 . S
Fe1 O2 1.918 . S
Fe1 O9 1.997 . S
Fe1 O12 1.996 . S
Fe1 O16 1.976 . S
Fe1 O19 2.002 . S
O2 Fe0 1.918 . S
O2 Fe1 1.918 . S
O2 Fe3 1.918 . S
Fe3 O2 1.918 . S
Fe3 O4 2.002 . S
Fe3 O13 1.976 . S
Fe3 O17 1.996 . S
Fe3 O20 1.997 . S
O4 Fe3 2.002 . S
O4 C21 1.295 1_455 S
O5 Fe0 1.997 1_655 S
O5 C21 1.235 . S
O6 Fe0 2.002 1_655 S
O6 C7 1.295 1_655 S
C7 O6 1.295 1_455 S
C7 O9 1.235 . S
C8 O13 1.287 . S
C8 O14 1.255 . S
O9 Fe1 1.997 . S
O9 C7 1.235 . S
C10 O16 1.287 . S
C10 O17 1.255 . S
O11 Fe0 1.976 . S
O11 C18 1.287 . S
O12 Fe1 1.996 . S
O12 C18 1.255 . S
O13 Fe3 1.976 . S
O13 C8 1.287 . S
O14 Fe0 1.996 . S
O14 C8 1.255 . S
C15 O19 1.295 . S
C15 O20 1.235 . S
O16 Fe1 1.976 . S
O16 C10 1.287 . S
O17 Fe3 1.996 . S
O17 C10 1.255 . S
C18 O11 1.287 . S
C18 O12 1.255 . S
O19 Fe1 2.002 . S
O19 C15 1.295 . S
O20 Fe3 1.997 . S
O20 C15 1.235 . S
C21 O4 1.295 1_655 S
C21 O5 1.235 . S
Fe22 O24 1.918 . S
Fe22 O27 1.997 . S
Fe22 O28 2.002 1_554 S
Fe22 O33 1.976 . S
Fe22 O36 1.996 . S
Fe23 O24 1.918 . S
Fe23 O31 1.997 1_554 S
Fe23 O34 1.996 1_564 S
Fe23 O38 1.976 1_565 S
Fe23 O41 2.003 1_565 S
O24 Fe22 1.918 . S
O24 Fe23 1.918 . S
O24 Fe25 1.918 . S
Fe25 O24 1.918 . S
Fe25 O26 2.002 1_655 S
Fe25 O35 1.976 . S
Fe25 O39 1.996 1_565 S
Fe25 O42 1.997 1_655 S
O26 Fe25 2.002 1_455 S
O26 C43 1.295 1_455 S
O27 Fe22 1.997 . S
O27 C43 1.235 . S
O28 Fe22 2.002 1_556 S
O28 C29 1.295 . S
C29 O28 1.295 . S
C29 O31 1.235 . S
C30 O35 1.287 . S
C30 O36 1.255 . S
O31 Fe23 1.997 1_556 S
O31 C29 1.235 . S
C32 O38 1.287 . S
C32 O39 1.255 . S
O33 Fe22 1.976 . S
O33 C40 1.287 . S
O34 Fe23 1.996 1_546 S
O34 C40 1.255 1_546 S
O35 Fe25 1.976 . S
O35 C30 1.287 . S
O36 Fe22 1.996 . S
O36 C30 1.255 . S
C37 O41 1.296 1_465 S
C37 O42 1.235 . S
O38 Fe23 1.976 1_545 S
O38 C32 1.287 . S
O39 Fe25 1.996 1_545 S
O39 C32 1.255 . S
C40 O33 1.287 . S
C40 O34 1.255 1_564 S
O41 Fe23 2.003 1_545 S
O41 C37 1.296 1_645 S
O42 Fe25 1.997 1_455 S
O42 C37 1.235 . S
C43 O26 1.295 1_655 S
C43 O27 1.235 . S
Fe44 O46 1.918 . S
Fe44 O49 1.997 . S
Fe44 O50 2.002 . S
Fe44 O55 1.976 . S
Fe44 O58 1.996 . S
Fe45 O46 1.918 . S
Fe45 O53 1.997 1_655 S
Fe45 O56 1.996 . S
Fe45 O60 1.976 . S
Fe45 O63 2.002 1_655 S
O46 Fe44 1.918 . S
O46 Fe45 1.918 . S
O46 Fe47 1.918 . S
Fe47 O46 1.918 . S
Fe47 O48 2.002 . S
Fe47 O57 1.976 . S
Fe47 O61 1.996 . S
Fe47 O64 1.997 . S
O48 Fe47 2.002 . S
O48 C65 1.295 . S
O49 Fe44 1.997 . S
O49 C65 1.235 . S
O50 Fe44 2.002 . S
O50 C51 1.295 1_655 S
C51 O50 1.295 1_455 S
C51 O53 1.235 . S
C52 O57 1.287 . S
C52 O58 1.255 . S
O53 Fe45 1.997 1_455 S
O53 C51 1.235 . S
C54 O60 1.287 . S
C54 O61 1.255 . S
O55 Fe44 1.976 . S
O55 C62 1.287 . S
O56 Fe45 1.996 . S
O56 C62 1.255 . S
O57 Fe47 1.976 . S
O57 C52 1.287 . S
O58 Fe44 1.996 . S
O58 C52 1.255 . S
C59 O63 1.295 1_655 S
C59 O64 1.235 . S
O60 Fe45 1.976 . S
O60 C54 1.287 . S
O61 Fe47 1.996 . S
O61 C54 1.255 . S
C62 O55 1.287 . S
C62 O56 1.255 . S
O63 Fe45 2.002 1_455 S
O63 C59 1.295 1_455 S
O64 Fe47 1.997 . S
O64 C59 1.235 . S
C65 O48 1.295 . S
C65 O49 1.235 . S
Fe66 O68 1.918 . S
Fe66 O71 1.997 . S
Fe66 O72 2.002 1_556 S
Fe66 O77 1.976 . S
Fe66 O80 1.996 . S
Fe67 O68 1.918 . S
Fe67 O75 1.997 1_556 S
Fe67 O78 1.996 1_546 S
Fe67 O82 1.976 1_545 S
Fe67 O85 2.003 1_545 S
O68 Fe66 1.918 . S
O68 Fe67 1.918 . S
O68 Fe69 1.918 . S
Fe69 O68 1.918 . S
Fe69 O70 2.002 1_455 S
Fe69 O79 1.976 . S
Fe69 O83 1.996 1_545 S
Fe69 O86 1.997 1_455 S
O70 Fe69 2.002 1_655 S
O70 C87 1.295 1_655 S
O71 Fe66 1.997 . S
O71 C87 1.235 . S
O72 Fe66 2.002 1_554 S
O72 C73 1.295 . S
C73 O72 1.295 . S
C73 O75 1.235 . S
C74 O79 1.287 . S
C74 O80 1.255 . S
O75 Fe67 1.997 1_554 S
O75 C73 1.235 . S
C76 O82 1.287 . S
C76 O83 1.255 . S
O77 Fe66 1.976 . S
O77 C84 1.287 . S
O78 Fe67 1.996 1_564 S
O78 C84 1.255 1_564 S
O79 Fe69 1.976 . S
O79 C74 1.287 . S
O80 Fe66 1.996 . S
O80 C74 1.255 . S
C81 O85 1.296 1_645 S
C81 O86 1.235 . S
O82 Fe67 1.976 1_565 S
O82 C76 1.287 . S
O83 Fe69 1.996 1_565 S
O83 C76 1.255 . S
C84 O77 1.287 . S
C84 O78 1.255 1_546 S
O85 Fe67 2.003 1_565 S
O85 C81 1.296 1_465 S
O86 Fe69 1.997 1_655 S
O86 C81 1.235 . S
C87 O70 1.295 1_455 S
C87 O71 1.235 . S
C32 C7 1.912 1_655 S
C8 C43 1.912 1_455 S
C76 C59 1.912 1_455 S
C62 C87 1.912 1_655 S
C51 C21 1.859 1_455 S
C37 C81 1.859 1_464 S
C73 C18 2.131 . S
C30 C65 2.131 . S
C29 C54 2.131 . S
C74 C15 2.131 . S
C10 C52 1.754 . S
C84 C40 1.754 1_546 S
