# Generated by pormake.
# Topology unm, (4)-cn, num edge types: 1
# Building blocks:
#     Node 0, Type 0, BuildingBlock: CEKHIL_clean_sbu_0, # of connection points: 4
#     Node 1, Type 0, BuildingBlock: CEKHIL_clean_sbu_0, # of connection points: 4
#     Node 2, Type 0, BuildingBlock: CEKHIL_clean_sbu_0, # of connection points: 4
#     Node 3, Type 0, BuildingBlock: CEKHIL_clean_sbu_0, # of connection points: 4
#     Node 4, Type 0, BuildingBlock: CEKHIL_clean_sbu_0, # of connection points: 4
#     Node 5, Type 0, BuildingBlock: CEKHIL_clean_sbu_0, # of connection points: 4
#     Node 6, Type 0, BuildingBlock: CEKHIL_clean_sbu_0, # of connection points: 4
#     Node 7, Type 0, BuildingBlock: CEKHIL_clean_sbu_0, # of connection points: 4
#     Edge 8, Type (0, 0), None
#     Edge 9, Type (0, 0), None
#     Edge 10, Type (0, 0), None
#     Edge 11, Type (0, 0), None
#     Edge 12, Type (0, 0), None
#     Edge 13, Type (0, 0), None
#     Edge 14, Type (0, 0), None
#     Edge 15, Type (0, 0), None
#     Edge 16, Type (0, 0), None
#     Edge 17, Type (0, 0), None
#     Edge 18, Type (0, 0), None
#     Edge 19, Type (0, 0), None
#     Edge 20, Type (0, 0), None
#     Edge 21, Type (0, 0), None
#     Edge 22, Type (0, 0), None
#     Edge 23, Type (0, 0), None
# Relax obj value: 0.198
# Max RMSD: 0.152
# Mean RMSD: 0.152
data_MOF--net-unm--node1-CEKHIL_clean_sbu_0--edge1-none
_symmetry_space_group_name_H-M    P1
_symmetry_Int_Tables_number       1
_symmetry_cell_setting            triclinic
loop_
_symmetry_equiv_pos_as_xyz
'x, y, z'
_cell_length_a     10.858333
_cell_length_b     10.858333
_cell_length_c     19.439276
_cell_angle_alpha  90.000089
_cell_angle_beta   89.999928
_cell_angle_gamma 89.999998
loop_
_atom_site_label
_atom_site_type_symbol
_atom_site_fract_x
_atom_site_fract_y
_atom_site_fract_z
_atom_type_partial_charge
Co0 Co 0.26019 0.29595 0.18298 0.0
O1 O 0.40202 0.19317 0.21314 0.0
O2 O 0.41587 0.38882 0.18872 0.0
C3 C 0.10334 0.24294 0.26015 0.0
O4 O 0.15274 0.43554 0.15417 0.0
Co5 Co 1.00142 0.19797 0.13017 0.0
O6 O 0.95666 0.37269 0.1396 0.0
C7 C 0.20722 0.24301 0.03252 0.0
C8 C 0.47298 0.28984 0.20773 0.0
C9 C 0.03851 0.45613 0.14397 0.0
O10 O 0.28789 0.25652 0.08124 0.0
O11 O 0.09329 0.22149 0.0432 0.0
O12 O 0.19215 0.31723 0.27811 0.0
O13 O 0.12267 0.18972 0.20212 0.0
Co14 Co 0.24252 0.76019 0.68298 0.0
O15 O 0.3453 0.90202 0.71314 0.0
O16 O 0.14964 0.91587 0.68872 0.0
C17 C 0.29553 0.60334 0.76015 0.0
O18 O 0.10293 0.65274 0.65417 0.0
Co19 Co 0.3405 0.50142 0.63017 0.0
O20 O 0.16578 0.45666 0.6396 0.0
C21 C 0.29545 0.70722 0.53252 0.0
C22 C 0.24863 0.97298 0.70773 0.0
C23 C 0.08234 0.53851 0.64397 0.0
O24 O 0.28195 0.78789 0.58124 0.0
O25 O 0.31698 0.59328 0.5432 0.0
O26 O 0.22123 0.69215 0.77811 0.0
O27 O 0.34874 0.62267 0.70212 0.0
Co28 Co 0.77827 0.74252 0.18298 0.0
O29 O 0.63645 0.8453 0.21314 0.0
O30 O 0.62259 0.64964 0.18872 0.0
C31 C 0.93513 0.79552 0.26015 0.0
O32 O 0.88572 0.60293 0.15417 0.0
Co33 Co 0.03705 0.8405 0.13017 0.0
O34 O 0.08181 0.66577 0.1396 0.0
C35 C 0.83125 0.79546 0.03252 0.0
C36 C 0.56548 0.74863 0.20773 0.0
C37 C 0.99995 0.58233 0.14395 0.0
O38 O 0.75057 0.78195 0.08124 0.0
O39 O 0.94518 0.81698 0.0432 0.0
O40 O 0.84631 0.72123 0.27811 0.0
O41 O 0.9158 0.84874 0.20212 0.0
Co42 Co 0.79595 0.27827 0.68298 0.0
O43 O 0.69317 0.13645 0.71314 0.0
O44 O 0.88882 0.12259 0.68872 0.0
C45 C 0.74294 0.43513 0.76015 0.0
O46 O 0.93554 0.38572 0.65417 0.0
Co47 Co 0.69797 0.53705 0.63017 0.0
O48 O 0.8727 0.5818 0.6396 0.0
C49 C 0.74301 0.33125 0.53252 0.0
C50 C 0.78984 0.06548 0.70773 0.0
C51 C 0.95613 0.49995 0.64395 0.0
O52 O 0.75652 0.25057 0.58124 0.0
O53 O 0.72148 0.44518 0.5432 0.0
O54 O 0.81724 0.34631 0.77811 0.0
O55 O 0.68973 0.4158 0.70212 0.0
Co56 Co 0.76018 0.24256 0.31284 0.0
O57 O 0.90202 0.34534 0.28269 0.0
O58 O 0.91584 0.14966 0.30711 0.0
C59 C 0.60334 0.29548 0.2357 0.0
O60 O 0.65272 0.10296 0.34163 0.0
Co61 Co 0.50136 0.34051 0.36564 0.0
O62 O 0.45663 0.16577 0.35621 0.0
C63 C 0.70707 0.29522 0.4633 0.0
C64 C 0.97294 0.24863 0.28807 0.0
C65 C 0.5385 0.08234 0.35184 0.0
O66 O 0.78782 0.28198 0.41459 0.0
O67 O 0.59314 0.31675 0.45262 0.0
O68 O 0.69219 0.22127 0.2177 0.0
O69 O 0.62264 0.34878 0.29371 0.0
Co70 Co 0.2959 0.26018 0.81284 0.0
O71 O 0.19313 0.40202 0.78269 0.0
O72 O 0.3888 0.41584 0.80711 0.0
C73 C 0.24298 0.10334 0.7357 0.0
O74 O 0.43551 0.15272 0.84163 0.0
Co75 Co 0.19796 1.00136 0.86564 0.0
O76 O 0.3727 0.95663 0.85621 0.0
C77 C 0.24324 0.20708 0.9633 0.0
C78 C 0.28984 0.47294 0.78807 0.0
C79 C 0.45613 0.0385 0.85184 0.0
O80 O 0.25648 0.28783 0.91459 0.0
O81 O 0.22172 0.09314 0.95262 0.0
O82 O 0.3172 0.19219 0.7177 0.0
O83 O 0.18968 0.12264 0.79371 0.0
Co84 Co 0.27829 0.7959 0.31284 0.0
O85 O 0.13644 0.69313 0.28269 0.0
O86 O 0.12263 0.8888 0.30711 0.0
C87 C 0.43513 0.74298 0.2357 0.0
O88 O 0.38574 0.93551 0.34163 0.0
Co89 Co 0.53711 0.69796 0.36564 0.0
O90 O 0.58183 0.87271 0.35621 0.0
C91 C 0.33139 0.74324 0.4633 0.0
C92 C 0.06553 0.78983 0.28807 0.0
C93 C 0.49996 0.95613 0.35186 0.0
O94 O 0.25064 0.75648 0.41459 0.0
O95 O 0.44532 0.72171 0.45262 0.0
O96 O 0.34628 0.8172 0.2177 0.0
O97 O 0.41583 0.68969 0.29371 0.0
Co98 Co 0.74256 0.77829 0.81284 0.0
O99 O 0.84534 0.63644 0.78269 0.0
O100 O 0.64967 0.62263 0.80711 0.0
C101 C 0.79548 0.93513 0.7357 0.0
O102 O 0.60295 0.88574 0.84163 0.0
Co103 Co 0.8405 0.03711 0.86564 0.0
O104 O 0.66576 0.08183 0.85621 0.0
C105 C 0.79523 0.83139 0.9633 0.0
C106 C 0.74863 0.56553 0.78807 0.0
C107 C 0.58234 0.99996 0.85186 0.0
O108 O 0.78198 0.75064 0.91459 0.0
O109 O 0.81675 0.94532 0.95262 0.0
O110 O 0.72127 0.84628 0.7177 0.0
O111 O 0.84878 0.91583 0.79371 0.0
loop_
_geom_bond_atom_site_label_1
_geom_bond_atom_site_label_2
_geom_bond_distance
_geom_bond_site_symmetry_2
_ccdc_geom_bond_type
Co0 O1 2.216 . S
Co0 O2 2.091 . S
Co0 O4 2.004 . S
Co0 O10 2.021 . S
Co0 O12 2.137 . S
Co0 O13 2.244 . S
O1 Co0 2.216 . S
O1 C8 1.247 . S
O2 Co0 2.091 . S
O2 C8 1.261 . S
C3 O12 1.247 . S
C3 O13 1.272 . S
O4 Co0 2.004 . S
O4 C9 1.259 . S
Co5 O6 2.061 . S
Co5 O11 2.052 1_655 S
Co5 O13 2.135 1_655 S
O6 Co5 2.061 . S
O6 C9 1.235 1_655 S
C7 O10 1.238 . S
C7 O11 1.241 . S
C8 O1 1.247 . S
C8 O2 1.261 . S
C9 O4 1.259 . S
C9 O6 1.235 1_455 S
O10 Co0 2.021 . S
O10 C7 1.238 . S
O11 Co5 2.052 1_455 S
O11 C7 1.241 . S
O12 Co0 2.137 . S
O12 C3 1.247 . S
O13 Co0 2.244 . S
O13 C3 1.272 . S
O13 Co5 2.135 1_455 S
Co14 O15 2.216 . S
Co14 O16 2.091 . S
Co14 O18 2.004 . S
Co14 O24 2.021 . S
Co14 O26 2.137 . S
Co14 O27 2.244 . S
O15 Co14 2.216 . S
O15 C22 1.247 . S
O16 Co14 2.091 . S
O16 C22 1.261 . S
C17 O26 1.247 . S
C17 O27 1.272 . S
O18 Co14 2.004 . S
O18 C23 1.259 1_455 S
Co19 O20 2.061 . S
Co19 O25 2.052 . S
Co19 O27 2.135 . S
O20 Co19 2.061 . S
O20 C23 1.235 1_455 S
C21 O24 1.238 . S
C21 O25 1.241 . S
C22 O15 1.247 . S
C22 O16 1.261 . S
C23 O18 1.259 1_655 S
C23 O20 1.235 1_655 S
O24 Co14 2.021 . S
O24 C21 1.238 . S
O25 Co19 2.052 . S
O25 C21 1.241 . S
O26 Co14 2.137 . S
O26 C17 1.247 . S
O27 Co14 2.244 . S
O27 C17 1.272 . S
O27 Co19 2.135 . S
Co28 O29 2.216 . S
Co28 O30 2.091 . S
Co28 O32 2.004 . S
Co28 O38 2.021 . S
Co28 O40 2.137 . S
Co28 O41 2.244 . S
O29 Co28 2.216 . S
O29 C36 1.247 . S
O30 Co28 2.091 . S
O30 C36 1.261 . S
C31 O40 1.247 . S
C31 O41 1.272 . S
O32 Co28 2.004 . S
O32 C37 1.259 . S
Co33 O34 2.061 . S
Co33 O39 2.052 1_455 S
Co33 O41 2.135 1_455 S
O34 Co33 2.061 . S
O34 C37 1.235 1_455 S
C35 O38 1.238 . S
C35 O39 1.241 . S
C36 O29 1.247 . S
C36 O30 1.261 . S
C37 O32 1.259 . S
C37 O34 1.235 1_655 S
O38 Co28 2.021 . S
O38 C35 1.238 . S
O39 Co33 2.052 1_655 S
O39 C35 1.241 . S
O40 Co28 2.137 . S
O40 C31 1.247 . S
O41 Co28 2.244 . S
O41 C31 1.272 . S
O41 Co33 2.135 1_655 S
Co42 O43 2.216 . S
Co42 O44 2.091 . S
Co42 O46 2.004 . S
Co42 O52 2.021 . S
Co42 O54 2.137 . S
Co42 O55 2.244 . S
O43 Co42 2.216 . S
O43 C50 1.247 . S
O44 Co42 2.091 . S
O44 C50 1.261 . S
C45 O54 1.247 . S
C45 O55 1.272 . S
O46 Co42 2.004 . S
O46 C51 1.259 1_655 S
Co47 O48 2.061 . S
Co47 O53 2.052 . S
Co47 O55 2.135 . S
O48 Co47 2.061 . S
O48 C51 1.235 1_655 S
C49 O52 1.238 . S
C49 O53 1.241 . S
C50 O43 1.247 . S
C50 O44 1.261 . S
C51 O46 1.259 1_455 S
C51 O48 1.235 1_455 S
O52 Co42 2.021 . S
O52 C49 1.238 . S
O53 Co47 2.052 . S
O53 C49 1.241 . S
O54 Co42 2.137 . S
O54 C45 1.247 . S
O55 Co42 2.244 . S
O55 C45 1.272 . S
O55 Co47 2.135 . S
Co56 O57 2.216 . S
Co56 O58 2.091 . S
Co56 O60 2.004 . S
Co56 O66 2.021 . S
Co56 O68 2.137 . S
Co56 O69 2.244 . S
O57 Co56 2.216 . S
O57 C64 1.247 . S
O58 Co56 2.091 . S
O58 C64 1.261 . S
C59 O68 1.247 . S
C59 O69 1.272 . S
O60 Co56 2.004 . S
O60 C65 1.259 1_545 S
Co61 O62 2.061 . S
Co61 O67 2.052 . S
Co61 O69 2.135 . S
O62 Co61 2.061 . S
O62 C65 1.235 1_545 S
C63 O66 1.238 . S
C63 O67 1.241 . S
C64 O57 1.247 . S
C64 O58 1.261 . S
C65 O60 1.259 1_565 S
C65 O62 1.235 1_565 S
O66 Co56 2.021 . S
O66 C63 1.238 . S
O67 Co61 2.052 . S
O67 C63 1.241 . S
O68 Co56 2.137 . S
O68 C59 1.247 . S
O69 Co56 2.244 . S
O69 C59 1.272 . S
O69 Co61 2.135 . S
Co70 O71 2.216 . S
Co70 O72 2.091 . S
Co70 O74 2.004 . S
Co70 O80 2.021 . S
Co70 O82 2.137 . S
Co70 O83 2.244 . S
O71 Co70 2.216 . S
O71 C78 1.247 . S
O72 Co70 2.091 . S
O72 C78 1.261 . S
C73 O82 1.247 . S
C73 O83 1.272 . S
O74 Co70 2.004 . S
O74 C79 1.259 . S
Co75 O76 2.061 . S
Co75 O81 2.052 1_565 S
Co75 O83 2.135 1_565 S
O76 Co75 2.061 . S
O76 C79 1.235 1_565 S
C77 O80 1.238 . S
C77 O81 1.241 . S
C78 O71 1.247 . S
C78 O72 1.261 . S
C79 O74 1.259 . S
C79 O76 1.235 1_545 S
O80 Co70 2.021 . S
O80 C77 1.238 . S
O81 Co75 2.052 1_545 S
O81 C77 1.241 . S
O82 Co70 2.137 . S
O82 C73 1.247 . S
O83 Co70 2.244 . S
O83 C73 1.272 . S
O83 Co75 2.135 1_545 S
Co84 O85 2.216 . S
Co84 O86 2.091 . S
Co84 O88 2.004 . S
Co84 O94 2.021 . S
Co84 O96 2.137 . S
Co84 O97 2.244 . S
O85 Co84 2.216 . S
O85 C92 1.247 . S
O86 Co84 2.091 . S
O86 C92 1.261 . S
C87 O96 1.247 . S
C87 O97 1.272 . S
O88 Co84 2.004 . S
O88 C93 1.259 1_565 S
Co89 O90 2.061 . S
Co89 O95 2.052 . S
Co89 O97 2.135 . S
O90 Co89 2.061 . S
O90 C93 1.235 1_565 S
C91 O94 1.238 . S
C91 O95 1.241 . S
C92 O85 1.247 . S
C92 O86 1.261 . S
C93 O88 1.259 1_545 S
C93 O90 1.235 1_545 S
O94 Co84 2.021 . S
O94 C91 1.238 . S
O95 Co89 2.052 . S
O95 C91 1.241 . S
O96 Co84 2.137 . S
O96 C87 1.247 . S
O97 Co84 2.244 . S
O97 C87 1.272 . S
O97 Co89 2.135 . S
Co98 O99 2.216 . S
Co98 O100 2.091 . S
Co98 O102 2.004 . S
Co98 O108 2.021 . S
Co98 O110 2.137 . S
Co98 O111 2.244 . S
O99 Co98 2.216 . S
O99 C106 1.247 . S
O100 Co98 2.091 . S
O100 C106 1.261 . S
C101 O110 1.247 . S
C101 O111 1.272 . S
O102 Co98 2.004 . S
O102 C107 1.259 . S
Co103 O104 2.061 . S
Co103 O109 2.052 1_545 S
Co103 O111 2.135 1_545 S
O104 Co103 2.061 . S
O104 C107 1.235 1_545 S
C105 O108 1.238 . S
C105 O109 1.241 . S
C106 O99 1.247 . S
C106 O100 1.261 . S
C107 O102 1.259 . S
C107 O104 1.235 1_565 S
O108 Co98 2.021 . S
O108 C105 1.238 . S
O109 Co103 2.052 1_565 S
O109 C105 1.241 . S
O110 Co98 2.137 . S
O110 C101 1.247 . S
O111 Co98 2.244 . S
O111 C101 1.272 . S
O111 Co103 2.135 1_565 S
C7 C77 1.227 1_554 S
C21 C91 1.227 . S
C35 C105 1.227 1_554 S
C63 C49 1.227 . S
C8 C59 1.791 . S
C22 C73 1.791 1_565 S
C87 C36 1.791 . S
C50 C101 1.791 1_545 S
C64 C3 1.791 1_655 S
C17 C78 1.791 . S
C92 C31 1.791 1_455 S
C45 C106 1.791 . S
C37 C9 0.887 1_655 S
C51 C23 0.887 1_455 S
C65 C93 0.887 1_565 S
C79 C107 0.887 1_545 S
