# Generated by pormake.
# Topology qtz, (4)-cn, num edge types: 1
# Building blocks:
#     Node 0, Type 0, BuildingBlock: QUQFOY_clean_sbu_3, # of connection points: 4
#     Node 1, Type 0, BuildingBlock: QUQFOY_clean_sbu_3, # of connection points: 4
#     Node 2, Type 0, BuildingBlock: QUQFOY_clean_sbu_3, # of connection points: 4
#     Edge 3, Type (0, 0), None
#     Edge 4, Type (0, 0), None
#     Edge 5, Type (0, 0), None
#     Edge 6, Type (0, 0), None
#     Edge 7, Type (0, 0), None
#     Edge 8, Type (0, 0), None
# Relax obj value: 0.009
# Max RMSD: 0.059
# Mean RMSD: 0.046
data_MOF--net-qtz--node1-QUQFOY_clean_sbu_3--edge1-none
_symmetry_space_group_name_H-M    P1
_symmetry_Int_Tables_number       1
_symmetry_cell_setting            triclinic
loop_
_symmetry_equiv_pos_as_xyz
'x, y, z'
_cell_length_a     12.177519
_cell_length_b     12.308409
_cell_length_c     13.496353
_cell_angle_alpha  91.385097
_cell_angle_beta   91.78485
_cell_angle_gamma 122.01299
loop_
_atom_site_label
_atom_site_type_symbol
_atom_site_fract_x
_atom_site_fract_y
_atom_site_fract_z
_atom_type_partial_charge
C0 C 0.7888 0.53641 0.0484 0.0
O1 O 0.7727 0.58303 0.12748 0.0
Cd2 Cd 0.87418 0.58421 0.28259 0.0
O3 O 0.85562 0.48437 0.04933 0.0
Cd4 Cd -0.01833 0.42735 0.16205 0.0
C5 C 0.72592 0.25535 0.3032 0.0
O6 O 0.0886 0.64159 0.24487 0.0
O7 O 0.14768 0.51418 0.29647 0.0
O8 O 0.06203 0.43473 -0.00285 0.0
C9 C 0.16027 0.62291 0.30285 0.0
O10 O 0.73957 0.36296 0.32531 0.0
C11 C 0.1261 0.38402 0.01988 0.0
O12 O 0.79921 0.2455 0.24305 0.0
O13 O 0.11775 0.34597 0.10739 0.0
C14 C 0.40066 0.15237 0.594 0.0
O15 O 0.29981 0.1156 0.53865 0.0
Cd16 Cd 0.28478 -0.00192 0.38843 0.0
O17 O 0.46766 0.10147 0.58386 0.0
Cd18 Cd 0.4595 0.91472 0.50144 0.0
C19 C 0.61538 0.14234 0.34314 0.0
O20 O 0.23788 0.79131 0.42744 0.0
O21 O 0.37718 0.75113 0.36825 0.0
O22 O 0.41176 0.81581 0.65944 0.0
C23 C 0.26182 0.72581 0.368 0.0
O24 O 0.50497 0.12979 0.33106 0.0
C25 C 0.49815 0.78784 0.65948 0.0
O26 O 0.63316 0.07342 0.40237 0.0
O27 O 0.57344 0.8251 0.58775 0.0
C28 C 0.72584 0.53789 0.95485 0.0
O29 O 0.7861 0.55964 0.87555 0.0
Cd30 Cd 0.70745 0.57252 0.71302 0.0
O31 O 0.60957 0.51143 0.95391 0.0
Cd32 Cd 0.43608 0.47138 0.83005 0.0
C33 C 0.45548 0.27023 0.65618 0.0
O34 O 0.56753 0.65363 0.72495 0.0
O35 O 0.4032 0.64451 0.78857 0.0
O36 O 0.33388 0.42078 0.98938 0.0
C37 C 0.49455 0.69768 0.73015 0.0
O38 O 0.57436 0.35521 0.64764 0.0
C39 C 0.2235 0.39266 0.95412 0.0
O40 O 0.38435 0.28943 0.71222 0.0
O41 O 0.20968 0.39462 0.86063 0.0
loop_
_geom_bond_atom_site_label_1
_geom_bond_atom_site_label_2
_geom_bond_distance
_geom_bond_site_symmetry_2
_ccdc_geom_bond_type
C0 O1 1.306 . S
C0 O3 1.160 . S
O1 C0 1.306 . S
O1 Cd2 2.228 . S
Cd2 O1 2.228 . S
Cd2 O6 2.273 1_655 S
Cd2 O10 2.277 . S
O3 C0 1.160 . S
O3 Cd4 2.203 1_655 S
Cd4 O3 2.203 1_455 S
Cd4 O6 2.411 . S
Cd4 O7 2.333 . S
Cd4 O8 2.352 . S
Cd4 O12 2.277 1_455 S
Cd4 O13 2.356 . S
C5 O10 1.209 . S
C5 O12 1.226 . S
O6 Cd2 2.273 1_455 S
O6 Cd4 2.411 . S
O6 C9 1.320 . S
O7 Cd4 2.333 . S
O7 C9 1.214 . S
O8 Cd4 2.352 . S
O8 C11 1.258 . S
C9 O6 1.320 . S
C9 O7 1.214 . S
O10 Cd2 2.277 . S
O10 C5 1.209 . S
C11 O8 1.258 . S
C11 O13 1.282 . S
O12 Cd4 2.277 1_655 S
O12 C5 1.226 . S
O13 Cd4 2.356 . S
O13 C11 1.282 . S
C14 O15 1.306 . S
C14 O17 1.160 . S
O15 C14 1.306 . S
O15 Cd16 2.228 . S
Cd16 O15 2.228 . S
Cd16 O20 2.273 1_545 S
Cd16 O24 2.277 . S
O17 C14 1.160 . S
O17 Cd18 2.203 . S
Cd18 O17 2.203 . S
Cd18 O20 2.411 1_545 S
Cd18 O21 2.333 1_545 S
Cd18 O22 2.352 1_545 S
Cd18 O26 2.277 . S
Cd18 O27 2.356 1_545 S
C19 O24 1.209 . S
C19 O26 1.226 . S
O20 Cd16 2.273 1_565 S
O20 Cd18 2.411 1_565 S
O20 C23 1.320 . S
O21 Cd18 2.333 1_565 S
O21 C23 1.214 . S
O22 Cd18 2.352 1_565 S
O22 C25 1.258 . S
C23 O20 1.320 . S
C23 O21 1.214 . S
O24 Cd16 2.277 . S
O24 C19 1.209 . S
C25 O22 1.258 . S
C25 O27 1.282 . S
O26 Cd18 2.277 . S
O26 C19 1.226 . S
O27 Cd18 2.356 1_565 S
O27 C25 1.282 . S
C28 O29 1.306 . S
C28 O31 1.160 . S
O29 C28 1.306 . S
O29 Cd30 2.228 . S
Cd30 O29 2.228 . S
Cd30 O34 2.273 . S
Cd30 O38 2.277 . S
O31 C28 1.160 . S
O31 Cd32 2.203 . S
Cd32 O31 2.203 . S
Cd32 O34 2.411 . S
Cd32 O35 2.333 . S
Cd32 O36 2.352 . S
Cd32 O40 2.277 . S
Cd32 O41 2.356 . S
C33 O38 1.209 . S
C33 O40 1.226 . S
O34 Cd30 2.273 . S
O34 Cd32 2.411 . S
O34 C37 1.320 . S
O35 Cd32 2.333 . S
O35 C37 1.214 . S
O36 Cd32 2.352 . S
O36 C39 1.258 . S
C37 O34 1.320 . S
C37 O35 1.214 . S
O38 Cd30 2.277 . S
O38 C33 1.209 . S
C39 O36 1.258 . S
C39 O41 1.282 . S
O40 Cd32 2.277 . S
O40 C33 1.226 . S
O41 Cd32 2.356 . S
O41 C39 1.282 . S
C39 C11 1.421 1_556 S
C5 C19 1.535 . S
C25 C37 1.415 . S
C28 C0 1.496 1_556 S
C23 C9 1.420 . S
C33 C14 1.500 . S
