# Generated by pormake.
# Topology pcu, (6)-cn, num edge types: 1
# Building blocks:
#     Node 0, Type 0, BuildingBlock: NUHQIS_clean_sbu_0, # of connection points: 6
#     Edge 1, Type (0, 0), BuildingBlock: ZUJKAS_clean_linker_0, # of connection points: 2
#     Edge 2, Type (0, 0), BuildingBlock: ZUJKAS_clean_linker_0, # of connection points: 2
#     Edge 3, Type (0, 0), BuildingBlock: ZUJKAS_clean_linker_0, # of connection points: 2
# Relax obj value: 0.000
# Max RMSD: 0.000
# Mean RMSD: 0.000
data_MOF--net-pcu--node1-NUHQIS_clean_sbu_0--edge1-ZUJKAS_clean_linker_0
_symmetry_space_group_name_H-M    P1
_symmetry_Int_Tables_number       1
_symmetry_cell_setting            triclinic
loop_
_symmetry_equiv_pos_as_xyz
'x, y, z'
_cell_length_a     29.8342
_cell_length_b     19.803028
_cell_length_c     19.68976
_cell_angle_alpha  91.044947
_cell_angle_beta   96.663419
_cell_angle_gamma 123.32219
loop_
_atom_site_label
_atom_site_type_symbol
_atom_site_fract_x
_atom_site_fract_y
_atom_site_fract_z
_atom_type_partial_charge
Tb0 Tb 0.9612 0.93626 0.98788 0.0
Eu1 Eu 0.09642 0.04434 0.01126 0.0
C2 C 0.02588 0.98488 0.86369 0.0
C3 C 1.02313 0.84803 -0.00683 0.0
C4 C 0.81897 0.88372 0.96689 0.0
C5 C 0.72718 0.84689 0.92796 0.0
C6 C 0.76663 0.82886 0.93124 0.0
C7 C 0.83173 0.95785 -0.00207 0.0
C8 C 0.79233 0.97587 -0.00516 0.0
C9 C 0.73933 0.92015 0.96056 0.0
C10 C 0.85881 0.86115 0.97441 0.0
O11 O 0.99067 0.92885 0.09201 0.0
O12 O 0.06893 0.05489 0.11004 0.0
O13 O 0.07345 0.13298 0.9873 0.0
O14 O 0.98658 0.06067 0.01424 0.0
C15 C 0.0289 -0.00804 0.13386 0.0
O16 O 0.17225 0.08343 0.07707 0.0
O17 O 0.17425 0.12608 0.97619 0.0
O18 O 0.0662 -0.01164 0.90207 0.0
O19 O 0.98773 0.98465 0.89124 0.0
O20 O 0.9797 0.84633 0.96748 0.0
O21 O 0.06829 0.91481 0.02218 0.0
C22 C 0.02964 0.12845 0.00015 0.0
O23 O 0.88541 0.87173 0.92329 0.0
O24 O 0.89056 0.88515 0.0332 0.0
C25 C 0.24322 0.1061 0.01882 0.0
C26 C 0.32211 0.07243 0.00234 0.0
C27 C 0.33664 0.14481 0.03945 0.0
C28 C 0.29755 0.1614 0.04756 0.0
C29 C 0.22836 0.03404 0.98125 0.0
C30 C 0.26751 0.01746 0.97288 0.0
C31 C 0.20237 0.12309 0.03064 0.0
H32 H 0.68669 0.80229 0.9017 0.0
H33 H 0.75591 0.77123 0.90714 0.0
H34 H 0.87186 0.00115 0.02577 0.0
H35 H 0.80332 0.03332 0.01964 0.0
H36 H 0.37837 0.18894 0.06202 0.0
H37 H 0.30971 0.21727 0.0768 0.0
H38 H 0.18642 -0.00971 0.95913 0.0
H39 H 0.25482 0.9608 0.94465 0.0
H40 H 0.95037 0.87412 0.20049 0.0
H41 H 0.94752 0.8728 0.32401 0.0
H42 H 0.10107 0.10476 0.36043 0.0
H43 H 0.10398 0.10732 0.23685 0.0
H44 H 1.01992 0.87706 0.4279 0.0
H45 H 1.00536 0.14231 0.46618 0.0
H46 H 0.99395 0.0927 0.38218 0.0
H47 H 0.06194 0.1634 0.42532 0.0
C48 C 0.98351 0.92507 0.23466 0.0
C49 C 0.02734 -0.009 0.20873 0.0
C50 C 0.98178 0.92415 0.30526 0.0
C51 C 1.02367 -0.01081 0.35126 0.0
C52 C 0.06775 0.05473 0.32569 0.0
H53 H 0.09986 -0.00896 0.78943 0.0
H54 H 0.09772 -0.00991 0.66506 0.0
C55 C 0.06948 0.05583 0.25504 0.0
C56 C 1.02184 0.98731 0.42612 0.0
H57 H 1.0217 0.0901 0.56713 0.0
C58 C 1.0201 0.92344 0.45834 0.0
C59 C 1.0213 0.04728 0.46548 0.0
C60 C 1.02021 0.11491 0.43304 0.0
C61 C 1.01892 0.91877 0.52921 0.0
C62 C 1.02044 0.9804 0.56899 0.0
C63 C 1.02106 0.04337 0.53656 0.0
C64 C 1.02157 0.98076 0.64443 0.0
C65 C 1.01533 0.84733 0.56067 0.0
C66 C 0.9801 0.97779 0.67424 0.0
C67 C 0.98133 0.97887 0.74547 0.0
C68 C 1.02428 0.98338 0.7882 0.0
C69 C 0.06599 0.987 0.75809 0.0
C70 C 0.06472 0.98603 0.68692 0.0
H71 H 0.99975 0.79538 0.52139 0.0
H72 H 0.05641 0.86571 0.58499 0.0
H73 H 0.98852 0.82663 0.60088 0.0
H74 H 0.94657 0.97413 0.64229 0.0
H75 H 0.94862 0.97615 0.76693 0.0
H76 H 0.33532 0.00734 0.888 0.0
H77 H 0.40406 0.9776 0.8776 0.0
H78 H 0.47239 0.06819 0.08995 0.0
H79 H 0.40328 0.09628 0.10124 0.0
H80 H 0.51858 0.08641 0.90049 0.0
H81 H 0.44939 0.84366 0.07669 0.0
H82 H 0.4075 0.87814 0.04159 0.0
H83 H 0.46032 0.9362 0.1133 0.0
C84 C 0.36461 0.02005 0.93269 0.0
C85 C 0.36368 0.05404 -0.00449 0.0
C86 C 0.40405 0.00348 0.92654 0.0
C87 C 0.44292 0.0197 0.98322 0.0
C88 C 0.44228 0.05397 0.04582 0.0
H89 H 0.72021 0.98563 0.0682 0.0
H90 H 0.64872 0.01075 0.0701 0.0
C91 C 0.40306 0.07081 0.05197 0.0
C92 C 0.48495 0.00252 0.97678 0.0
H93 H 0.53552 0.89479 0.04227 0.0
C94 C 0.52206 0.04403 0.93102 0.0
C95 C 0.48942 0.94721 0.01671 0.0
C96 C 0.44927 0.8981 0.0644 0.0
C97 C 0.56449 0.03347 0.92559 0.0
C98 C 0.56937 0.97899 0.96624 0.0
C99 C 0.53184 0.93676 0.01135 0.0
C100 C 0.61362 0.96579 0.96368 0.0
C101 C 0.60472 0.08251 0.87798 0.0
C102 C 0.61754 0.9318 0.90325 0.0
C103 C 0.65855 0.91761 0.9019 0.0
C104 C 0.69645 0.93708 0.96103 0.0
C105 C 0.69231 0.97115 0.02143 0.0
C106 C 0.65122 0.98502 0.02278 0.0
H107 H 0.60278 0.13468 0.86266 0.0
H108 H 0.64674 0.10589 0.90253 0.0
H109 H 0.59558 0.04309 0.8307 0.0
H110 H 0.58846 0.91533 0.85733 0.0
H111 H 0.66071 0.8917 0.85447 0.0
H112 H 0.10938 0.83366 0.01014 0.0
H113 H 0.10787 0.70931 0.0071 0.0
H114 H 0.93289 0.56665 0.96749 0.0
H115 H 0.93403 0.69126 0.96861 0.0
H116 H 0.06463 0.58979 0.09028 0.0
H117 H 0.96734 0.46425 0.82064 0.0
H118 H 0.99303 0.56725 0.85202 0.0
H119 H 0.92821 0.48463 0.86961 0.0
C120 C 0.07049 0.77589 0.0004 0.0
C121 C 1.02176 0.77229 0.98957 0.0
C122 C 0.06975 0.70485 -0.00138 0.0
C123 C 1.02033 0.62874 0.98622 0.0
C124 C 0.97154 0.62478 0.97551 0.0
H125 H 0.94194 0.13841 0.00167 0.0
H126 H 0.93981 0.2599 -0.00103 0.0
C127 C 0.97224 0.69602 0.97656 0.0
C128 C 1.02027 0.5539 0.9875 0.0
H129 H 0.9793 0.37826 0.89226 0.0
C130 C 0.04617 0.54374 0.04685 0.0
C131 C 0.99615 0.4939 0.93075 0.0
C132 C 0.97005 0.5032 0.8644 0.0
C133 C 0.04828 0.47493 0.05119 0.0
C134 C 1.02404 0.41503 -0.00537 0.0
C135 C 0.99776 0.4246 0.93548 0.0
C136 C 0.0257 0.34194 -0.00396 0.0
C137 C 0.07582 0.4661 0.11642 0.0
C138 C 0.07472 0.34816 -0.00526 0.0
C139 C 0.07615 0.27882 -0.00392 0.0
C140 C 0.02852 0.20219 -0.00098 0.0
C141 C 0.97944 0.19644 4e-05 0.0
C142 C 0.97803 0.2657 -0.00179 0.0
H143 H 0.08393 0.51023 0.1595 0.0
H144 H 0.05056 0.40365 0.1319 0.0
H145 H 0.11514 0.4767 0.10732 0.0
H146 H 0.11182 0.40664 -0.00759 0.0
H147 H 0.11457 0.28539 -0.00492 0.0
loop_
_geom_bond_atom_site_label_1
_geom_bond_atom_site_label_2
_geom_bond_distance
_geom_bond_site_symmetry_2
_ccdc_geom_bond_type
Tb0 C10 2.825 . S
Tb0 O11 2.347 1_556 S
Tb0 O14 2.366 1_565 S
Tb0 O19 2.418 . S
Tb0 O20 2.384 . S
Tb0 O23 2.479 . S
Tb0 O24 2.471 1_556 S
Eu1 O12 2.418 . S
Eu1 O13 2.384 . S
Eu1 O16 2.479 . S
Eu1 O17 2.471 1_554 S
Eu1 O18 2.347 1_554 S
Eu1 O21 2.366 1_545 S
Eu1 C31 2.825 . S
C2 O18 1.259 1_665 S
C2 O19 1.265 . S
C3 O20 1.255 1_554 S
C3 O21 1.265 1_655 S
C4 C6 1.380 . S
C4 C7 1.374 1_566 S
C4 C10 1.507 . S
C5 C6 1.384 . S
C5 C9 1.387 . S
C5 H32 0.930 . S
C6 C4 1.380 . S
C6 C5 1.384 . S
C6 H33 0.931 . S
C7 C4 1.374 1_544 S
C7 C8 1.390 . S
C7 H34 0.930 . S
C8 C7 1.390 . S
C8 C9 1.391 1_544 S
C8 H35 0.930 . S
C9 C5 1.387 . S
C9 C8 1.391 1_566 S
C10 Tb0 2.825 . S
C10 C4 1.507 . S
C10 O23 1.238 . S
C10 O24 1.247 1_556 S
O11 Tb0 2.347 1_554 S
O11 C15 1.259 1_665 S
O12 Eu1 2.418 . S
O12 C15 1.265 . S
O13 Eu1 2.384 . S
O13 C22 1.255 . S
O14 Tb0 2.366 1_545 S
O14 C22 1.265 1_656 S
C15 O11 1.259 1_445 S
C15 O12 1.265 . S
O16 Eu1 2.479 . S
O16 C31 1.238 . S
O17 Eu1 2.471 1_556 S
O17 C31 1.247 1_556 S
O18 Eu1 2.347 1_556 S
O18 C2 1.259 1_445 S
O19 Tb0 2.418 . S
O19 C2 1.265 . S
O20 Tb0 2.384 . S
O20 C3 1.255 1_556 S
O21 Eu1 2.366 1_565 S
O21 C3 1.265 1_455 S
C22 O13 1.255 . S
C22 O14 1.265 1_454 S
O23 Tb0 2.479 . S
O23 C10 1.238 . S
O24 Tb0 2.471 1_554 S
O24 C10 1.247 1_554 S
C25 C28 1.380 . S
C25 C29 1.374 1_544 S
C25 C31 1.507 . S
C26 C27 1.387 . S
C26 C30 1.391 1_544 S
C27 C26 1.387 . S
C27 C28 1.384 . S
C27 H36 0.930 . S
C28 C25 1.380 . S
C28 C27 1.384 . S
C28 H37 0.931 . S
C29 C25 1.374 1_566 S
C29 C30 1.390 . S
C29 H38 0.930 . S
C30 C26 1.391 1_566 S
C30 C29 1.390 . S
C30 H39 0.930 . S
C31 Eu1 2.825 . S
C31 O16 1.238 . S
C31 O17 1.247 1_554 S
C31 C25 1.507 . S
H32 C5 0.930 . S
H33 C6 0.931 . S
H34 C7 0.930 . S
H35 C8 0.930 . S
H36 C27 0.930 . S
H37 C28 0.931 . S
H38 C29 0.930 . S
H39 C30 0.930 . S
H40 C48 0.929 . S
H41 C50 0.930 . S
H42 C52 0.930 . S
H43 C55 0.929 . S
H44 C58 0.930 . S
H45 C60 0.960 . S
H46 C60 0.960 . S
H47 C60 0.960 . S
C48 H40 0.929 . S
C48 C49 1.384 1_565 S
C48 C50 1.384 . S
C49 C48 1.384 1_545 S
C49 C55 1.384 1_655 S
C50 H41 0.930 . S
C50 C48 1.384 . S
C50 C51 1.372 . S
C51 C50 1.372 . S
C51 C52 1.400 1_665 S
C51 C56 1.490 . S
C52 H42 0.930 . S
C52 C51 1.400 1_445 S
C52 C55 1.386 . S
H53 C69 0.930 . S
H54 C70 0.931 . S
C55 H43 0.929 . S
C55 C49 1.384 1_455 S
C55 C52 1.386 . S
C56 C51 1.490 . S
C56 C58 1.395 . S
C56 C59 1.403 1_665 S
H57 C63 0.930 . S
C58 H44 0.930 . S
C58 C56 1.395 . S
C58 C61 1.403 . S
C59 C56 1.403 1_445 S
C59 C60 1.524 . S
C59 C63 1.400 . S
C60 H45 0.960 . S
C60 H46 0.960 . S
C60 H47 0.960 . S
C60 C59 1.524 . S
C61 C58 1.403 . S
C61 C62 1.392 . S
C61 C65 1.495 . S
C62 C61 1.392 . S
C62 C63 1.385 1_665 S
C62 C64 1.478 . S
C63 H57 0.930 . S
C63 C59 1.400 . S
C63 C62 1.385 1_445 S
C64 C62 1.478 . S
C64 C66 1.381 . S
C64 C70 1.383 1_665 S
C65 C61 1.495 . S
C65 H71 0.959 . S
C65 H72 0.961 . S
C65 H73 0.960 . S
C66 C64 1.381 . S
C66 C67 1.394 . S
C66 H74 0.930 . S
C67 C66 1.394 . S
C67 C68 1.383 . S
C67 H75 0.929 . S
C68 C67 1.383 . S
C68 C69 1.377 1_665 S
C69 H53 0.930 . S
C69 C68 1.377 1_445 S
C69 C70 1.379 . S
C70 H54 0.931 . S
C70 C64 1.383 1_445 S
C70 C69 1.379 . S
H71 C65 0.959 . S
H72 C65 0.961 . S
H73 C65 0.960 . S
H74 C66 0.930 . S
H75 C67 0.929 . S
H76 C84 0.929 . S
H77 C86 0.930 . S
H78 C88 0.930 . S
H79 C91 0.929 . S
H80 C94 0.930 . S
H81 C96 0.960 . S
H82 C96 0.960 . S
H83 C96 0.960 1_554 S
C84 H76 0.929 . S
C84 C85 1.391 1_545 S
C84 C86 1.384 . S
C85 C84 1.391 1_565 S
C85 C91 1.385 1_556 S
C86 H77 0.930 . S
C86 C84 1.384 . S
C86 C87 1.382 . S
C87 C86 1.382 . S
C87 C88 1.399 1_546 S
C87 C92 1.481 . S
C88 H78 0.930 . S
C88 C87 1.399 1_564 S
C88 C91 1.386 . S
H89 C105 0.930 . S
H90 C106 0.931 . S
C91 H79 0.929 . S
C91 C85 1.385 1_554 S
C91 C88 1.386 . S
C92 C87 1.481 . S
C92 C94 1.395 . S
C92 C95 1.403 1_545 S
H93 C99 0.930 1_554 S
C94 H80 0.930 . S
C94 C92 1.395 . S
C94 C97 1.403 . S
C95 C92 1.403 1_565 S
C95 C96 1.524 . S
C95 C99 1.400 . S
C96 H81 0.960 . S
C96 H82 0.960 . S
C96 H83 0.960 1_556 S
C96 C95 1.524 . S
C97 C94 1.403 . S
C97 C98 1.392 . S
C97 C101 1.495 . S
C98 C97 1.392 . S
C98 C99 1.385 1_545 S
C98 C100 1.477 . S
C99 H93 0.930 1_556 S
C99 C95 1.400 . S
C99 C98 1.385 1_565 S
C100 C98 1.477 . S
C100 C102 1.387 . S
C100 C106 1.377 1_546 S
C101 C97 1.495 . S
C101 H107 0.959 . S
C101 H108 0.961 1_556 S
C101 H109 0.960 . S
C102 C100 1.387 . S
C102 C103 1.394 . S
C102 H110 0.930 . S
C103 C102 1.394 . S
C103 C104 1.378 1_556 S
C103 H111 0.929 . S
C104 C103 1.378 1_554 S
C104 C105 1.383 1_545 S
C105 H89 0.930 . S
C105 C104 1.383 1_565 S
C105 C106 1.379 . S
C106 H90 0.931 . S
C106 C100 1.377 1_564 S
C106 C105 1.379 . S
H107 C101 0.959 . S
H108 C101 0.961 1_554 S
H109 C101 0.960 . S
H110 C102 0.930 . S
H111 C103 0.929 . S
H112 C120 0.929 . S
H113 C122 0.930 . S
H114 C124 0.930 . S
H115 C127 0.929 . S
H116 C130 0.930 . S
H117 C132 0.960 . S
H118 C132 0.960 . S
H119 C132 0.960 1_554 S
C120 H112 0.929 . S
C120 C121 1.386 1_455 S
C120 C122 1.384 . S
C121 C120 1.386 1_655 S
C121 C127 1.377 1_556 S
C122 H113 0.930 . S
C122 C120 1.384 . S
C122 C123 1.374 . S
C123 C122 1.374 . S
C123 C124 1.384 1_456 S
C123 C128 1.504 . S
C124 H114 0.930 . S
C124 C123 1.384 1_654 S
C124 C127 1.386 . S
H125 C141 0.930 . S
H126 C142 0.931 . S
C127 H115 0.929 . S
C127 C121 1.377 1_554 S
C127 C124 1.386 . S
C128 C123 1.504 . S
C128 C130 1.395 1_556 S
C128 C131 1.403 1_455 S
H129 C135 0.930 . S
C130 H116 0.930 . S
C130 C128 1.395 1_554 S
C130 C133 1.403 . S
C131 C128 1.403 1_655 S
C131 C132 1.524 . S
C131 C135 1.400 . S
C132 H117 0.960 . S
C132 H118 0.960 . S
C132 H119 0.960 1_556 S
C132 C131 1.524 . S
C133 C130 1.403 . S
C133 C134 1.393 1_554 S
C133 C137 1.495 . S
C134 C133 1.393 1_556 S
C134 C135 1.385 1_455 S
C134 C136 1.477 1_556 S
C135 H129 0.930 . S
C135 C131 1.400 . S
C135 C134 1.385 1_655 S
C136 C134 1.477 1_554 S
C136 C138 1.381 1_554 S
C136 C142 1.383 1_455 S
C137 C133 1.495 . S
C137 H143 0.959 . S
C137 H144 0.961 . S
C137 H145 0.960 1_554 S
C138 C136 1.381 1_556 S
C138 C139 1.394 . S
C138 H146 0.930 . S
C139 C138 1.394 . S
C139 C140 1.383 1_556 S
C139 H147 0.929 . S
C140 C139 1.383 1_554 S
C140 C141 1.377 1_455 S
C141 H125 0.930 . S
C141 C140 1.377 1_655 S
C141 C142 1.379 . S
C142 H126 0.931 . S
C142 C136 1.383 1_655 S
C142 C141 1.379 . S
H143 C137 0.959 . S
H144 C137 0.961 . S
H145 C137 0.960 1_556 S
H146 C138 0.930 . S
H147 C139 0.929 . S
C49 C15 1.469 1_655 S
C68 C2 1.457 . S
C85 C26 1.486 1_566 S
C104 C9 1.498 1_544 S
C121 C3 1.503 1_556 S
C140 C22 1.494 . S
