data_crystal

_cell_length_a 9.84630
_cell_length_b 16.85120
_cell_length_c 17.25430
_cell_angle_alpha 101.21900
_cell_angle_beta  106.57900
_cell_angle_gamma 90.00000

_symmetry_space_group_name_	'P 1'
_symmetry_space_group_name_H-M	'P 1'

loop_
_symmetry_equiv_pos_as_xyz
  x,y,z

loop_
_atom_site_label
_atom_site_type_symbol
_atom_site_fract_x
_atom_site_fract_y
_atom_site_fract_z
_atom_site_charge
Cd	Cd	-0.00000 0.50000 -0.00000 1.13900
Cd	Cd	-0.00000 0.00000 -0.00000 1.13000
H 	H 	0.28620 0.87700 0.23380 0.14600
H 	H 	0.66000 0.90820 0.27320 0.14600
H 	H 	0.42600 0.04160 0.37380 0.02500
H 	H 	0.38680 0.98060 0.28880 0.04100
H 	H 	0.52360 0.91410 0.42500 0.06100
H 	H 	0.54110 0.89260 0.33580 0.04500
H 	H 	0.14490 0.99770 0.43000 0.06000
H 	H 	0.28470 0.05290 0.45380 0.02400
H 	H 	0.75220 0.08920 0.49100 0.08000
H 	H 	0.59920 0.06430 0.49180 0.05300
H 	H 	0.92950 0.63500 0.15400 0.02600
H 	H 	0.01560 0.75030 0.24740 0.13100
H 	H 	0.26670 0.78520 0.11580 0.12800
H 	H 	0.16340 0.66970 0.02480 -0.08800
H 	H 	0.07180 0.02130 0.19180 -0.13600
H 	H 	0.97910 0.01460 0.29840 0.15600
H 	H 	0.64250 0.88600 0.13200 0.12800
H 	H 	0.74470 0.89790 0.03220 -0.06200
H 	H 	0.05240 0.62300 0.76620 0.11400
H 	H 	0.38680 0.59180 0.72680 0.14400
H 	H 	0.05220 0.45840 0.62620 0.06200
H 	H 	0.09800 0.51940 0.71120 0.06200
H 	H 	0.09860 0.58590 0.57500 0.03300
H 	H 	0.20530 0.60740 0.66420 0.03000
H 	H 	0.71490 0.50230 0.57000 0.07900
H 	H 	0.83090 0.44710 0.54620 0.06700
H 	H 	0.26120 0.41080 0.50900 0.07400
H 	H 	0.10740 0.43570 0.50820 0.04100
H 	H 	0.77550 0.86500 0.84600 -0.03600
H 	H 	0.76820 0.74970 0.75260 0.17900
H 	H 	0.15090 0.71480 0.88420 0.17400
H 	H 	0.13860 0.83030 0.97520 -0.01300
H 	H 	0.88000 0.47870 0.80820 -0.02200
H 	H 	0.68070 0.48540 0.70160 0.14700
H 	H 	0.51050 0.61400 0.86800 0.13600
H 	H 	0.71250 0.60210 0.96780 0.00400
H 	H 	0.71380 0.12300 0.76620 0.15000
H 	H 	0.34000 0.09180 0.72680 0.14000
H 	H 	0.57400 0.95840 0.62620 0.09400
H 	H 	0.61320 0.01940 0.71120 0.06700
H 	H 	0.47640 0.08590 0.57500 0.04400
H 	H 	0.45890 0.10740 0.66420 0.03300
H 	H 	0.85510 0.00230 0.57000 0.09800
H 	H 	0.71530 0.94710 0.54620 0.09300
H 	H 	0.24780 0.91080 0.50900 0.07800
H 	H 	0.40080 0.93570 0.50820 0.06000
H 	H 	0.07050 0.36500 0.84600 -0.10100
H 	H 	0.98440 0.24970 0.75260 0.20400
H 	H 	0.73330 0.21480 0.88420 0.16600
H 	H 	0.83660 0.33030 0.97520 -0.02000
H 	H 	0.92820 0.97870 0.80820 0.05500
H 	H 	0.02090 0.98540 0.70160 0.14100
H 	H 	0.35750 0.11400 0.86800 0.12800
H 	H 	0.25530 0.10210 0.96780 -0.00100
H 	H 	0.94760 0.37700 0.23380 0.18300
H 	H 	0.61320 0.40820 0.27320 0.14000
H 	H 	0.94780 0.54160 0.37380 0.05900
H 	H 	0.90200 0.48060 0.28880 0.04700
H 	H 	0.90140 0.41410 0.42500 0.07200
H 	H 	0.79470 0.39260 0.33580 0.04800
H 	H 	0.28510 0.49770 0.43000 0.07900
H 	H 	0.16910 0.55290 0.45380 0.05300
H 	H 	0.73880 0.58920 0.49100 0.08400
H 	H 	0.89260 0.56430 0.49180 0.07100
H 	H 	0.22450 0.13500 0.15400 -0.04600
H 	H 	0.23180 0.25030 0.24740 0.15700
H 	H 	0.84910 0.28520 0.11580 0.11900
H 	H 	0.86140 0.16970 0.02480 -0.09600
H 	H 	0.12000 0.52130 0.19180 -0.04700
H 	H 	0.31930 0.51460 0.29840 0.14700
H 	H 	0.48950 0.38600 0.13200 0.11900
H 	H 	0.28750 0.39790 0.03220 -0.07000
C 	C 	0.40475 0.98490 0.34770 -0.00600
C 	C 	0.53526 0.93700 0.37972 -0.06600
C 	C 	0.24688 0.99710 0.43956 -0.00200
C 	C 	0.68951 0.04360 0.48802 -0.05500
C 	C 	0.19612 0.88770 0.32084 0.28100
C 	C 	0.00230 0.66490 0.14640 0.06600
C 	C 	0.05310 0.73480 0.20340 -0.25700
C 	C 	0.15802 0.78120 0.19504 0.26600
C 	C 	0.19770 0.75540 0.12700 -0.31600
C 	C 	0.13590 0.68380 0.07280 0.17500
C 	C 	0.76008 0.99470 0.36396 0.31800
C 	C 	0.98376 0.99410 0.17972 0.28900
C 	C 	0.92879 0.99060 0.24458 -0.27800
C 	C 	0.79737 0.95080 0.22754 0.27500
C 	C 	0.72967 0.91470 0.14594 -0.28300
C 	C 	0.79260 0.92180 0.08660 0.16600
C 	C 	0.05705 0.51510 0.65230 -0.11700
C 	C 	0.15554 0.56300 0.62028 -0.02200
C 	C 	0.80732 0.50290 0.56044 -0.05600
C 	C 	0.20149 0.45640 0.51198 -0.04800
C 	C 	0.87528 0.61230 0.67916 0.28600
C 	C 	0.85590 0.83510 0.85360 0.21800
C 	C 	0.84970 0.76520 0.79660 -0.33900
C 	C 	0.96298 0.71880 0.80496 0.36700
C 	C 	0.07070 0.74460 0.87300 -0.37500
C 	C 	0.06310 0.81620 0.92720 0.17600
C 	C 	0.39612 0.50530 0.63604 0.28500
C 	C 	0.80404 0.50590 0.82028 0.14100
C 	C 	0.68421 0.50940 0.75542 -0.24300
C 	C 	0.56983 0.54920 0.77246 0.24700
C 	C 	0.58373 0.58530 0.85406 -0.24800
C 	C 	0.70600 0.57820 0.91340 0.15300
C 	C 	0.59525 0.01510 0.65230 -0.12600
C 	C 	0.46474 0.06300 0.62028 -0.02600
C 	C 	0.75312 0.00290 0.56044 -0.11300
C 	C 	0.31049 0.95640 0.51198 -0.05600
C 	C 	0.80388 0.11230 0.67916 0.28400
C 	C 	0.99770 0.33510 0.85360 0.30800
C 	C 	0.94690 0.26520 0.79660 -0.38000
C 	C 	0.84198 0.21880 0.80496 0.34200
C 	C 	0.80230 0.24460 0.87300 -0.33900
C 	C 	0.86410 0.31620 0.92720 0.21600
C 	C 	0.23992 0.00530 0.63604 0.25000
C 	C 	0.01624 0.00590 0.82028 0.00900
C 	C 	0.07121 0.00940 0.75542 -0.22500
C 	C 	0.20263 0.04920 0.77246 0.22400
C 	C 	0.27033 0.08530 0.85406 -0.23600
C 	C 	0.20740 0.07820 0.91340 0.13600
C 	C 	0.94295 0.48490 0.34770 -0.01700
C 	C 	0.84446 0.43700 0.37972 -0.06800
C 	C 	0.19268 0.49710 0.43956 -0.06300
C 	C 	0.79851 0.54360 0.48802 -0.06000
C 	C 	0.12472 0.38770 0.32084 0.27800
C 	C 	0.14410 0.16490 0.14640 0.16100
C 	C 	0.15030 0.23480 0.20340 -0.30100
C 	C 	0.03702 0.28120 0.19504 0.23800
C 	C 	0.92930 0.25540 0.12700 -0.27600
C 	C 	0.93690 0.18380 0.07280 0.22200
C 	C 	0.60388 0.49470 0.36396 0.28300
C 	C 	0.19596 0.49410 0.17972 0.13900
C 	C 	0.31579 0.49060 0.24458 -0.25300
C 	C 	0.43017 0.45080 0.22754 0.24800
C 	C 	0.41627 0.41470 0.14594 -0.26900
C 	C 	0.29400 0.42180 0.08660 0.14600
I 	I 	0.21223 0.53031 0.90638 -0.23600
I 	I 	0.30585 0.96969 0.09362 -0.34100
I 	I 	0.78777 0.46969 0.09362 -0.34100
I 	I 	0.69415 0.03031 0.90638 -0.23200
N 	N 	0.27583 0.95680 0.36326 -0.15500
N 	N 	0.66754 0.98780 0.40808 -0.13400
N 	N 	0.22320 0.85250 0.24780 -0.28300
N 	N 	0.04596 0.63620 0.08252 -0.28700
N 	N 	0.72769 0.94500 0.28618 -0.27500
N 	N 	0.91832 0.96090 0.10104 -0.29500
N 	N 	0.91257 0.54320 0.63674 -0.11900
N 	N 	0.25946 0.51220 0.59192 -0.14800
N 	N 	0.97540 0.64750 0.75220 -0.26000
N 	N 	0.96344 0.86380 0.91748 -0.24000
N 	N 	0.44151 0.55500 0.71382 -0.26900
N 	N 	0.81728 0.53910 0.89896 -0.24400
N 	N 	0.72417 0.04320 0.63674 -0.12900
N 	N 	0.33246 0.01220 0.59192 -0.15100
N 	N 	0.77680 0.14750 0.75220 -0.29100
N 	N 	0.95404 0.36380 0.91748 -0.28000
N 	N 	0.27231 0.05500 0.71382 -0.26400
N 	N 	0.08168 0.03910 0.89896 -0.24000
N 	N 	0.08743 0.45680 0.36326 -0.16600
N 	N 	0.74054 0.48780 0.40808 -0.13800
N 	N 	0.02460 0.35250 0.24780 -0.31600
N 	N 	0.03656 0.13620 0.08252 -0.33200
N 	N 	0.55849 0.44500 0.28618 -0.26900
N 	N 	0.18272 0.46090 0.10104 -0.29300
O 	O 	0.10647 0.85920 0.34494 -0.26400
O 	O 	0.86343 0.04220 0.39126 -0.26400
O 	O 	0.76153 0.64080 0.65506 -0.25000
O 	O 	0.47217 0.45780 0.60874 -0.24900
O 	O 	0.89353 0.14080 0.65506 -0.24000
O 	O 	0.13657 0.95780 0.60874 -0.23300
O 	O 	0.23847 0.35920 0.34494 -0.25400
O 	O 	0.52783 0.54220 0.39126 -0.24800
