8c_Co_3
_audit_creation_date              2020-06-09
_audit_creation_method            'assign_MBBB_charges.py'
_symmetry_space_group_name_H-M    'P1'
_symmetry_Int_Tables_number       1
_symmetry_cell_setting            triclinic
loop_
_symmetry_equiv_pos_as_xyz
  x,y,z
_cell_length_a                    50.0000
_cell_length_b                    50.0000
_cell_length_c                    50.0000
_cell_angle_alpha                 90.0000
_cell_angle_beta                  90.0000
_cell_angle_gamma                 90.0000
loop_
_atom_site_label
_atom_site_type_symbol
_atom_site_fract_x
_atom_site_fract_y
_atom_site_fract_z
_atom_site_U_iso_or_equiv
_atom_site_adp_type
_atom_site_occupancy
_atom_site_charge
X1      C         0.44681      0.43724      0.44215      0.00000   Uiso   1.00      0.42754
N2      N         0.45316      0.47130      0.46741      0.00000   Uiso   1.00      0.01644
C3      C         0.56618      0.54986      0.46973      0.00000   Uiso   1.00     -0.06232
H4      H         0.58031      0.44495      0.48069      0.00000   Uiso   1.00      0.07137
C5      C         0.53027      0.45014      0.56618      0.00000   Uiso   1.00     -0.06583
Co6     Co        0.50301      0.50000      0.44942      0.00000   Uiso   1.00      0.74181
N7      N         0.55053      0.47130      0.47340      0.00000   Uiso   1.00     -0.25761
Co8     Co        0.55058      0.50000      0.50301      0.00000   Uiso   1.00      0.74072
X9      C         0.55319      0.43724      0.55785      0.00000   Uiso   1.00      0.42857
N10     N         0.46741      0.47130      0.54684      0.00000   Uiso   1.00      0.01260
N11     N         0.54684      0.47130      0.53259      0.00000   Uiso   1.00      0.01366
N12     N         0.53672      0.54908      0.43683      0.00000   Uiso   1.00     -0.46609
H13     H         0.48069      0.44495      0.41969      0.00000   Uiso   1.00      0.07123
N14     N         0.53259      0.47130      0.45316      0.00000   Uiso   1.00      0.01651
N15     N         0.54684      0.52870      0.53259      0.00000   Uiso   1.00      0.01391
X16     C         0.55319      0.56276      0.55785      0.00000   Uiso   1.00      0.42996
N17     N         0.44947      0.47130      0.52660      0.00000   Uiso   1.00     -0.25218
C18     C         0.46973      0.54986      0.43382      0.00000   Uiso   1.00     -0.06138
N19     N         0.43683      0.45092      0.46328      0.00000   Uiso   1.00     -0.46323
N20     N         0.56317      0.54908      0.53672      0.00000   Uiso   1.00     -0.46547
X21     C         0.44681      0.56276      0.44215      0.00000   Uiso   1.00      0.42769
N22     N         0.53259      0.52870      0.45316      0.00000   Uiso   1.00      0.01639
N23     N         0.44947      0.52870      0.52660      0.00000   Uiso   1.00     -0.25239
N24     N         0.47340      0.47130      0.44947      0.00000   Uiso   1.00     -0.25732
N25     N         0.46741      0.52870      0.54684      0.00000   Uiso   1.00      0.01278
H26     H         0.41969      0.55505      0.51931      0.00000   Uiso   1.00      0.07168
H27     H         0.51931      0.55505      0.58031      0.00000   Uiso   1.00      0.07203
N28     N         0.55053      0.52870      0.47340      0.00000   Uiso   1.00     -0.25781
N29     N         0.52660      0.47130      0.55053      0.00000   Uiso   1.00     -0.25393
N30     N         0.45316      0.52870      0.46741      0.00000   Uiso   1.00      0.01643
X31     C         0.55785      0.43724      0.44681      0.00000   Uiso   1.00      0.43040
C32     C         0.43382      0.45014      0.53027      0.00000   Uiso   1.00     -0.06645
N33     N         0.52660      0.52870      0.55053      0.00000   Uiso   1.00     -0.25392
H34     H         0.51931      0.44495      0.58031      0.00000   Uiso   1.00      0.07188
N35     N         0.53672      0.45092      0.43683      0.00000   Uiso   1.00     -0.46615
H36     H         0.41969      0.44495      0.51931      0.00000   Uiso   1.00      0.07175
X37     C         0.44215      0.56276      0.55319      0.00000   Uiso   1.00      0.42875
C38     C         0.46973      0.45014      0.43382      0.00000   Uiso   1.00     -0.06142
Co39    Co        0.44942      0.50000      0.49699      0.00000   Uiso   1.00      0.73819
N40     N         0.46328      0.45092      0.56317      0.00000   Uiso   1.00     -0.46332
X41     C         0.55785      0.56276      0.44681      0.00000   Uiso   1.00      0.43141
N42     N         0.43683      0.54908      0.46328      0.00000   Uiso   1.00     -0.46322
Co43    Co        0.49699      0.50000      0.55058      0.00000   Uiso   1.00      0.73891
C44     C         0.53027      0.54986      0.56618      0.00000   Uiso   1.00     -0.06650
C45     C         0.56618      0.45014      0.46973      0.00000   Uiso   1.00     -0.06212
N46     N         0.47340      0.52870      0.44947      0.00000   Uiso   1.00     -0.25740
N47     N         0.56317      0.45092      0.53672      0.00000   Uiso   1.00     -0.46502
H48     H         0.58031      0.55505      0.48069      0.00000   Uiso   1.00      0.07148
C49     C         0.43382      0.54986      0.53027      0.00000   Uiso   1.00     -0.06625
Cl50    Cl        0.50000      0.50000      0.50000      0.00000   Uiso   1.00     -0.49627
X51     C         0.44215      0.43724      0.55319      0.00000   Uiso   1.00      0.42904
H52     H         0.48069      0.55505      0.41969      0.00000   Uiso   1.00      0.07115
N53     N         0.46328      0.54908      0.56317      0.00000   Uiso   1.00     -0.46338
loop_
_geom_bond_atom_site_label_1
_geom_bond_atom_site_label_2
_geom_bond_distance
_geom_bond_site_symmetry_2
_ccdc_geom_bond_type
X1      N19        1.354 .   A  
X1      C38        1.379 .   S  
N2      N19        1.322 .   A  
N2      N24        1.352 .   A  
N2      Co39       2.069 .   S  
C3      X41        1.379 .   S  
C3      H48        0.931 .   S  
C3      N28        1.329 .   A  
H4      C45        0.931 .   S  
C5      H34        0.931 .   S  
C5      N29        1.329 .   A  
C5      X9         1.379 .   S  
Co6     N24        2.062 .   S  
Co6     N14        2.069 .   S  
Co6     N46        2.062 .   S  
Co6     N22        2.069 .   S  
Co6     Cl50       2.534 .   S  
N7      N14        1.352 .   A  
N7      C45        1.329 .   A  
N7      Co8        2.062 .   S  
Co8     N11        2.069 .   S  
Co8     N28        2.062 .   S  
Co8     Cl50       2.534 .   S  
Co8     N15        2.069 .   S  
X9      N47        1.354 .   A  
N10     N17        1.352 .   A  
N10     N40        1.322 .   A  
N10     Co43       2.069 .   S  
N11     N29        1.352 .   A  
N11     N47        1.322 .   A  
N12     N22        1.322 .   A  
N12     X41        1.354 .   A  
H13     C38        0.931 .   S  
N14     N35        1.322 .   A  
N15     N33        1.352 .   A  
N15     N20        1.322 .   A  
X16     C44        1.379 .   S  
X16     N20        1.354 .   A  
N17     C32        1.329 .   A  
N17     Co39       2.062 .   S  
C18     X21        1.379 .   S  
C18     H52        0.931 .   S  
C18     N46        1.329 .   A  
X21     N42        1.354 .   A  
N22     N28        1.352 .   A  
N23     Co39       2.062 .   S  
N23     C49        1.329 .   A  
N23     N25        1.352 .   A  
N24     C38        1.329 .   A  
N25     N53        1.322 .   A  
N25     Co43       2.069 .   S  
H26     C49        0.931 .   S  
H27     C44        0.931 .   S  
N29     Co43       2.062 .   S  
N30     N42        1.322 .   A  
N30     Co39       2.069 .   S  
N30     N46        1.352 .   A  
X31     N35        1.354 .   A  
X31     C45        1.379 .   S  
C32     H36        0.931 .   S  
C32     X51        1.379 .   S  
N33     Co43       2.062 .   S  
N33     C44        1.329 .   A  
X37     C49        1.379 .   S  
X37     N53        1.354 .   A  
Co39    Cl50       2.534 .   S  
N40     X51        1.354 .   A  
Co43    Cl50       2.534 .   S  
