# generated using pymatgen
data_ZnH10C21Br2NO4
_symmetry_space_group_name_H-M   'P 1'
_cell_length_a   14.08280000
_cell_length_b   21.45180000
_cell_length_c   28.25180000
_cell_angle_alpha   90.00000000
_cell_angle_beta   90.00000000
_cell_angle_gamma   93.56000000
_symmetry_Int_Tables_number   1
_chemical_formula_structural   ZnH10C21Br2NO4
_chemical_formula_sum   'Zn12 H120 C252 Br24 N12 O48'
_cell_volume   8518.43895630
_cell_formula_units_Z   12
loop_
 _symmetry_equiv_pos_site_id
 _symmetry_equiv_pos_as_xyz
  1  'x, y, z'
loop_
 _atom_site_type_symbol
 _atom_site_label
 _atom_site_symmetry_multiplicity
 _atom_site_fract_x
 _atom_site_fract_y
 _atom_site_fract_z
 _atom_site_occupancy
  Zn  Zn0  1  0.89093000  0.74522000  0.30998000  1
  Zn  Zn1  1  0.10358000  0.75466000  0.31025000  1
  Zn  Zn2  1  0.10907000  0.25478000  0.80998000  1
  Zn  Zn3  1  0.89642000  0.24534000  0.81025000  1
  Zn  Zn4  1  0.20437000  0.11308000  0.48463000  1
  Zn  Zn5  1  0.41647000  0.12150000  0.48594000  1
  Zn  Zn6  1  0.20096000  0.60978000  0.98657000  1
  Zn  Zn7  1  0.41216000  0.62354000  0.98463000  1
  Zn  Zn8  1  0.79563000  0.88692000  0.98463000  1
  Zn  Zn9  1  0.58353000  0.87850000  0.98594000  1
  Zn  Zn10  1  0.79904000  0.39022000  0.48657000  1
  Zn  Zn11  1  0.58784000  0.37646000  0.48463000  1
  H  H12  1  0.13640000  0.64250000  0.42810000  1
  H  H13  1  0.84840000  0.61070000  0.42950000  1
  H  H14  1  0.86190000  0.55670000  0.49970000  1
  H  H15  1  0.86650000  0.43300000  0.62040000  1
  H  H16  1  0.85900000  0.36240000  0.68500000  1
  H  H17  1  0.14280000  0.40000000  0.70700000  1
  H  H18  1  0.14400000  0.88530000  0.43060000  1
  H  H19  1  0.85690000  0.86010000  0.42710000  1
  H  H20  1  0.13450000  0.94700000  0.49710000  1
  H  H21  1  0.13340000  0.07910000  0.61320000  1
  H  H22  1  0.85840000  0.09920000  0.70690000  1
  H  H23  1  0.14200000  0.13970000  0.68180000  1
  H  H24  1  0.73780000  0.79250000  0.24860000  1
  H  H25  1  0.72820000  0.70710000  0.37290000  1
  H  H26  1  0.57620000  0.79650000  0.24820000  1
  H  H27  1  0.56450000  0.71510000  0.37730000  1
  H  H28  1  0.42190000  0.71250000  0.24850000  1
  H  H29  1  0.42640000  0.79790000  0.37680000  1
  H  H30  1  0.26420000  0.79770000  0.37160000  1
  H  H31  1  0.25900000  0.71130000  0.25090000  1
  H  H32  1  0.86360000  0.35750000  0.92810000  1
  H  H33  1  0.15160000  0.38930000  0.92950000  1
  H  H34  1  0.13810000  0.44330000  0.99970000  1
  H  H35  1  0.13350000  0.56700000  0.12040000  1
  H  H36  1  0.14100000  0.63760000  0.18500000  1
  H  H37  1  0.85720000  0.60000000  0.20700000  1
  H  H38  1  0.85600000  0.11470000  0.93060000  1
  H  H39  1  0.14310000  0.13990000  0.92710000  1
  H  H40  1  0.86550000  0.05300000  0.99710000  1
  H  H41  1  0.86660000  0.92090000  0.11320000  1
  H  H42  1  0.14160000  0.90080000  0.20690000  1
  H  H43  1  0.85800000  0.86030000  0.18180000  1
  H  H44  1  0.26220000  0.20750000  0.74860000  1
  H  H45  1  0.27180000  0.29290000  0.87290000  1
  H  H46  1  0.42380000  0.20350000  0.74820000  1
  H  H47  1  0.43550000  0.28490000  0.87730000  1
  H  H48  1  0.57810000  0.28750000  0.74850000  1
  H  H49  1  0.57360000  0.20210000  0.87680000  1
  H  H50  1  0.73580000  0.20230000  0.87160000  1
  H  H51  1  0.74100000  0.28870000  0.75090000  1
  H  H52  1  0.57000000  0.06160000  0.53800000  1
  H  H53  1  0.73090000  0.05710000  0.54170000  1
  H  H54  1  0.87130000  0.05940000  0.43110000  1
  H  H55  1  0.88610000  0.17840000  0.54210000  1
  H  H56  1  0.05220000  0.17420000  0.53950000  1
  H  H57  1  0.03600000  0.05520000  0.43250000  1
  H  H58  1  0.45360000  0.98640000  0.59760000  1
  H  H59  1  0.16670000  0.96770000  0.58870000  1
  H  H60  1  0.44670000  0.92910000  0.66880000  1
  H  H61  1  0.16030000  0.78010000  0.79170000  1
  H  H62  1  0.16080000  0.72230000  0.86070000  1
  H  H63  1  0.44730000  0.76000000  0.87130000  1
  H  H64  1  0.44730000  0.27430000  0.58620000  1
  H  H65  1  0.17340000  0.22590000  0.61350000  1
  H  H66  1  0.17760000  0.28570000  0.68070000  1
  H  H67  1  0.16880000  0.41840000  0.79830000  1
  H  H68  1  0.16030000  0.47890000  0.86720000  1
  H  H69  1  0.45160000  0.49020000  0.87600000  1
  H  H70  1  0.43540000  0.79030000  0.07730000  1
  H  H71  1  0.17390000  0.72120000  0.11300000  1
  H  H72  1  0.17980000  0.78200000  0.18220000  1
  H  H73  1  0.17150000  0.91360000  0.30010000  1
  H  H74  1  0.16810000  0.97190000  0.37100000  1
  H  H75  1  0.44750000  0.02170000  0.35920000  1
  H  H76  1  0.45980000  0.50720000  0.10670000  1
  H  H77  1  0.17940000  0.45640000  0.09200000  1
  H  H78  1  0.19070000  0.38500000  0.15140000  1
  H  H79  1  0.22870000  0.23960000  0.27040000  1
  H  H80  1  0.21470000  0.18910000  0.34350000  1
  H  H81  1  0.43470000  0.29890000  0.39360000  1
  H  H82  1  0.55410000  0.53330000  0.96070000  1
  H  H83  1  0.58470000  0.71050000  0.99810000  1
  H  H84  1  0.74720000  0.70790000  0.99520000  1
  H  H85  1  0.72070000  0.52810000  0.95570000  1
  H  H86  1  0.87890000  0.67210000  0.03980000  1
  H  H87  1  0.86960000  0.54840000  0.93140000  1
  H  H88  1  0.03600000  0.54930000  0.93420000  1
  H  H89  1  0.04350000  0.66950000  0.04060000  1
  H  H90  1  0.58810000  0.20290000  0.46090000  1
  H  H91  1  0.74730000  0.20570000  0.46400000  1
  H  H92  1  0.43000000  0.93840000  0.03800000  1
  H  H93  1  0.26910000  0.94290000  0.04170000  1
  H  H94  1  0.12870000  0.94060000  0.93110000  1
  H  H95  1  0.11390000  0.82160000  0.04210000  1
  H  H96  1  0.94780000  0.82580000  0.03950000  1
  H  H97  1  0.96400000  0.94480000  0.93250000  1
  H  H98  1  0.54640000  0.01360000  0.09760000  1
  H  H99  1  0.83330000  0.03230000  0.08870000  1
  H  H100  1  0.55330000  0.07090000  0.16880000  1
  H  H101  1  0.83970000  0.21990000  0.29170000  1
  H  H102  1  0.83920000  0.27770000  0.36070000  1
  H  H103  1  0.55270000  0.24000000  0.37130000  1
  H  H104  1  0.55270000  0.72570000  0.08620000  1
  H  H105  1  0.82660000  0.77410000  0.11350000  1
  H  H106  1  0.82240000  0.71430000  0.18070000  1
  H  H107  1  0.83120000  0.58160000  0.29830000  1
  H  H108  1  0.83970000  0.52110000  0.36720000  1
  H  H109  1  0.54840000  0.50980000  0.37600000  1
  H  H110  1  0.56460000  0.20970000  0.57730000  1
  H  H111  1  0.82610000  0.27880000  0.61300000  1
  H  H112  1  0.82020000  0.21800000  0.68220000  1
  H  H113  1  0.82850000  0.08640000  0.80010000  1
  H  H114  1  0.83190000  0.02810000  0.87100000  1
  H  H115  1  0.55250000  0.97830000  0.85920000  1
  H  H116  1  0.54020000  0.49280000  0.60670000  1
  H  H117  1  0.82060000  0.54360000  0.59200000  1
  H  H118  1  0.80930000  0.61500000  0.65140000  1
  H  H119  1  0.77130000  0.76040000  0.77040000  1
  H  H120  1  0.78530000  0.81090000  0.84350000  1
  H  H121  1  0.56530000  0.70110000  0.89360000  1
  H  H122  1  0.44590000  0.46670000  0.46070000  1
  H  H123  1  0.41530000  0.28950000  0.49810000  1
  H  H124  1  0.25280000  0.29210000  0.49520000  1
  H  H125  1  0.27930000  0.47190000  0.45570000  1
  H  H126  1  0.12110000  0.32790000  0.53980000  1
  H  H127  1  0.13040000  0.45160000  0.43140000  1
  H  H128  1  0.96400000  0.45070000  0.43420000  1
  H  H129  1  0.95650000  0.33050000  0.54060000  1
  H  H130  1  0.41190000  0.79710000  0.96090000  1
  H  H131  1  0.25270000  0.79430000  0.96400000  1
  C  C132  1  0.00550000  0.16800000  0.74280000  1
  C  C133  1  0.98420000  0.67130000  0.37760000  1
  C  C134  1  0.99200000  0.63260000  0.42280000  1
  C  C135  1  0.08040000  0.62560000  0.44330000  1
  C  C136  1  0.90900000  0.60620000  0.44350000  1
  C  C137  1  0.08730000  0.59360000  0.48640000  1
  C  C138  1  0.91830000  0.57360000  0.48480000  1
  C  C139  1  0.00290000  0.56370000  0.50590000  1
  C  C140  1  0.00840000  0.52770000  0.54890000  1
  C  C141  1  0.00980000  0.49450000  0.58220000  1
  C  C142  1  0.00970000  0.45560000  0.62190000  1
  C  C143  1  0.09130000  0.44450000  0.64700000  1
  C  C144  1  0.92310000  0.42540000  0.63710000  1
  C  C145  1  0.91740000  0.38410000  0.67650000  1
  C  C146  1  0.08690000  0.40550000  0.68910000  1
  C  C147  1  0.00110000  0.37650000  0.70270000  1
  C  C148  1  0.99930000  0.33130000  0.74390000  1
  C  C149  1  0.00670000  0.82970000  0.37820000  1
  C  C150  1  0.00160000  0.86850000  0.42200000  1
  C  C151  1  0.08360000  0.89300000  0.44350000  1
  C  C152  1  0.91360000  0.87710000  0.44160000  1
  C  C153  1  0.91000000  0.91190000  0.48380000  1
  C  C154  1  0.07770000  0.92860000  0.48340000  1
  C  C155  1  0.99360000  0.93840000  0.50400000  1
  C  C156  1  0.98720000  0.97750000  0.54700000  1
  C  C157  1  0.98640000  0.01030000  0.57940000  1
  C  C158  1  0.99170000  0.04980000  0.62080000  1
  C  C159  1  0.07880000  0.08230000  0.63250000  1
  C  C160  1  0.91150000  0.05700000  0.64990000  1
  C  C161  1  0.91410000  0.09440000  0.68860000  1
  C  C162  1  0.08280000  0.11910000  0.67320000  1
  C  C163  1  0.00430000  0.12710000  0.70150000  1
  C  C164  1  0.70140000  0.77570000  0.27440000  1
  C  C165  1  0.69600000  0.72620000  0.34780000  1
  C  C166  1  0.60570000  0.77790000  0.27450000  1
  C  C167  1  0.59800000  0.72950000  0.34980000  1
  C  C168  1  0.54740000  0.75370000  0.31170000  1
  C  C169  1  0.44420000  0.75660000  0.31180000  1
  C  C170  1  0.39110000  0.73040000  0.27470000  1
  C  C171  1  0.39410000  0.78110000  0.34970000  1
  C  C172  1  0.29820000  0.77980000  0.34640000  1
  C  C173  1  0.29470000  0.73040000  0.27610000  1
  C  C174  1  0.99450000  0.83200000  0.24280000  1
  C  C175  1  0.01580000  0.32870000  0.87760000  1
  C  C176  1  0.00800000  0.36740000  0.92280000  1
  C  C177  1  0.91960000  0.37440000  0.94330000  1
  C  C178  1  0.09100000  0.39380000  0.94350000  1
  C  C179  1  0.91270000  0.40640000  0.98640000  1
  C  C180  1  0.08170000  0.42640000  0.98480000  1
  C  C181  1  0.99710000  0.43630000  0.00590000  1
  C  C182  1  0.99160000  0.47230000  0.04890000  1
  C  C183  1  0.99020000  0.50550000  0.08220000  1
  C  C184  1  0.99030000  0.54440000  0.12190000  1
  C  C185  1  0.90870000  0.55550000  0.14700000  1
  C  C186  1  0.07690000  0.57460000  0.13710000  1
  C  C187  1  0.08260000  0.61590000  0.17650000  1
  C  C188  1  0.91310000  0.59450000  0.18910000  1
  C  C189  1  0.99890000  0.62350000  0.20270000  1
  C  C190  1  0.00070000  0.66870000  0.24390000  1
  C  C191  1  0.99330000  0.17030000  0.87820000  1
  C  C192  1  0.99840000  0.13150000  0.92200000  1
  C  C193  1  0.91640000  0.10700000  0.94350000  1
  C  C194  1  0.08640000  0.12290000  0.94160000  1
  C  C195  1  0.09000000  0.08810000  0.98380000  1
  C  C196  1  0.92230000  0.07140000  0.98340000  1
  C  C197  1  0.00640000  0.06160000  0.00400000  1
  C  C198  1  0.01280000  0.02250000  0.04700000  1
  C  C199  1  0.01360000  0.98970000  0.07940000  1
  C  C200  1  0.00830000  0.95020000  0.12080000  1
  C  C201  1  0.92120000  0.91770000  0.13250000  1
  C  C202  1  0.08850000  0.94300000  0.14990000  1
  C  C203  1  0.08590000  0.90560000  0.18860000  1
  C  C204  1  0.91720000  0.88090000  0.17320000  1
  C  C205  1  0.99570000  0.87290000  0.20150000  1
  C  C206  1  0.29860000  0.22430000  0.77440000  1
  C  C207  1  0.30400000  0.27380000  0.84780000  1
  C  C208  1  0.39430000  0.22210000  0.77450000  1
  C  C209  1  0.40200000  0.27050000  0.84980000  1
  C  C210  1  0.45260000  0.24630000  0.81170000  1
  C  C211  1  0.55580000  0.24340000  0.81180000  1
  C  C212  1  0.60890000  0.26960000  0.77470000  1
  C  C213  1  0.60590000  0.21890000  0.84970000  1
  C  C214  1  0.70180000  0.22020000  0.84640000  1
  C  C215  1  0.70530000  0.26960000  0.77610000  1
  C  C216  1  0.60650000  0.08680000  0.51620000  1
  C  C217  1  0.70310000  0.08330000  0.51920000  1
  C  C218  1  0.75650000  0.11860000  0.48910000  1
  C  C219  1  0.86390000  0.11940000  0.49000000  1
  C  C220  1  0.90840000  0.08220000  0.45400000  1
  C  C221  1  0.91490000  0.15290000  0.51940000  1
  C  C222  1  0.01490000  0.15060000  0.51710000  1
  C  C223  1  0.00580000  0.08140000  0.45430000  1
  C  C224  1  0.31170000  0.03170000  0.54930000  1
  C  C225  1  0.30810000  0.98590000  0.59070000  1
  C  C226  1  0.39440000  0.97190000  0.61110000  1
  C  C227  1  0.22310000  0.96010000  0.60560000  1
  C  C228  1  0.21920000  0.92380000  0.64430000  1
  C  C229  1  0.39020000  0.93620000  0.65180000  1
  C  C230  1  0.30170000  0.91060000  0.66800000  1
  C  C231  1  0.30020000  0.87030000  0.71080000  1
  C  C232  1  0.30120000  0.84330000  0.74790000  1
  C  C233  1  0.30010000  0.80690000  0.79010000  1
  C  C234  1  0.21870000  0.77660000  0.80810000  1
  C  C235  1  0.38570000  0.80190000  0.81540000  1
  C  C236  1  0.21870000  0.74140000  0.84890000  1
  C  C237  1  0.38870000  0.76480000  0.85550000  1
  C  C238  1  0.30330000  0.73400000  0.87270000  1
  C  C239  1  0.30550000  0.69580000  0.91520000  1
  C  C240  1  0.30930000  0.19810000  0.55230000  1
  C  C241  1  0.31110000  0.24260000  0.59430000  1
  C  C242  1  0.39260000  0.27660000  0.60560000  1
  C  C243  1  0.23120000  0.24810000  0.62220000  1
  C  C244  1  0.23270000  0.28410000  0.66150000  1
  C  C245  1  0.39610000  0.31470000  0.64560000  1
  C  C246  1  0.31740000  0.31950000  0.67360000  1
  C  C247  1  0.32020000  0.35770000  0.71620000  1
  C  C248  1  0.31900000  0.38640000  0.75190000  1
  C  C249  1  0.31590000  0.42120000  0.79490000  1
  C  C250  1  0.39970000  0.44380000  0.82000000  1
  C  C251  1  0.22540000  0.43400000  0.81370000  1
  C  C252  1  0.22040000  0.46960000  0.85470000  1
  C  C253  1  0.39480000  0.47690000  0.85990000  1
  C  C254  1  0.30620000  0.49230000  0.87820000  1
  C  C255  1  0.30230000  0.53410000  0.92090000  1
  C  C256  1  0.30510000  0.70220000  0.04950000  1
  C  C257  1  0.30670000  0.74720000  0.09040000  1
  C  C258  1  0.38430000  0.78780000  0.09930000  1
  C  C259  1  0.22950000  0.74680000  0.12010000  1
  C  C260  1  0.23230000  0.78410000  0.16110000  1
  C  C261  1  0.38970000  0.82390000  0.13810000  1
  C  C262  1  0.31230000  0.82460000  0.17100000  1
  C  C263  1  0.31690000  0.86160000  0.21240000  1
  C  C264  1  0.31870000  0.89300000  0.24650000  1
  C  C265  1  0.31560000  0.93070000  0.28820000  1
  C  C266  1  0.39360000  0.96440000  0.30750000  1
  C  C267  1  0.22800000  0.93460000  0.31200000  1
  C  C268  1  0.22640000  0.97090000  0.35420000  1
  C  C269  1  0.39140000  0.00000000  0.34770000  1
  C  C270  1  0.30300000  0.00380000  0.37170000  1
  C  C271  1  0.30090000  0.03970000  0.41600000  1
  C  C272  1  0.31400000  0.53610000  0.05200000  1
  C  C273  1  0.31750000  0.48920000  0.09170000  1
  C  C274  1  0.40450000  0.48260000  0.11600000  1
  C  C275  1  0.23890000  0.45250000  0.10720000  1
  C  C276  1  0.24440000  0.41160000  0.14290000  1
  C  C277  1  0.40950000  0.44240000  0.15190000  1
  C  C278  1  0.33340000  0.40870000  0.16840000  1
  C  C279  1  0.33380000  0.36810000  0.20990000  1
  C  C280  1  0.33860000  0.33820000  0.24550000  1
  C  C281  1  0.33530000  0.30440000  0.28820000  1
  C  C282  1  0.39800000  0.32040000  0.32650000  1
  C  C283  1  0.26960000  0.25320000  0.29560000  1
  C  C284  1  0.26290000  0.22160000  0.33890000  1
  C  C285  1  0.39220000  0.28720000  0.36860000  1
  C  C286  1  0.32650000  0.23750000  0.37520000  1
  C  C287  1  0.32350000  0.19990000  0.41930000  1
  C  C288  1  0.59460000  0.56860000  0.96900000  1
  C  C289  1  0.61230000  0.67220000  0.99110000  1
  C  C290  1  0.70870000  0.67040000  0.99050000  1
  C  C291  1  0.69360000  0.56450000  0.96740000  1
  C  C292  1  0.75100000  0.61550000  0.98330000  1
  C  C293  1  0.85830000  0.61320000  0.98530000  1
  C  C294  1  0.90980000  0.64720000  0.01750000  1
  C  C295  1  0.90460000  0.57420000  0.95340000  1
  C  C296  1  0.00400000  0.57500000  0.95550000  1
  C  C297  1  0.00780000  0.64550000  0.01780000  1
  C  C298  1  0.61700000  0.16740000  0.47310000  1
  C  C299  1  0.71130000  0.16910000  0.47390000  1
  C  C300  1  0.39350000  0.91320000  0.01620000  1
  C  C301  1  0.29690000  0.91670000  0.01920000  1
  C  C302  1  0.24350000  0.88140000  0.98910000  1
  C  C303  1  0.13610000  0.88060000  0.99000000  1
  C  C304  1  0.09160000  0.91780000  0.95400000  1
  C  C305  1  0.08510000  0.84710000  0.01940000  1
  C  C306  1  0.98510000  0.84940000  0.01710000  1
  C  C307  1  0.99420000  0.91860000  0.95430000  1
  C  C308  1  0.68830000  0.96830000  0.04930000  1
  C  C309  1  0.69190000  0.01410000  0.09070000  1
  C  C310  1  0.60560000  0.02810000  0.11110000  1
  C  C311  1  0.77690000  0.03990000  0.10560000  1
  C  C312  1  0.78080000  0.07620000  0.14430000  1
  C  C313  1  0.60980000  0.06380000  0.15180000  1
  C  C314  1  0.69830000  0.08940000  0.16800000  1
  C  C315  1  0.69980000  0.12970000  0.21080000  1
  C  C316  1  0.69880000  0.15670000  0.24790000  1
  C  C317  1  0.69990000  0.19310000  0.29010000  1
  C  C318  1  0.78130000  0.22340000  0.30810000  1
  C  C319  1  0.61430000  0.19810000  0.31540000  1
  C  C320  1  0.78130000  0.25860000  0.34890000  1
  C  C321  1  0.61130000  0.23520000  0.35550000  1
  C  C322  1  0.69670000  0.26600000  0.37270000  1
  C  C323  1  0.69450000  0.30420000  0.41520000  1
  C  C324  1  0.69070000  0.80190000  0.05230000  1
  C  C325  1  0.68890000  0.75740000  0.09430000  1
  C  C326  1  0.60740000  0.72340000  0.10560000  1
  C  C327  1  0.76880000  0.75190000  0.12220000  1
  C  C328  1  0.76730000  0.71590000  0.16150000  1
  C  C329  1  0.60390000  0.68530000  0.14560000  1
  C  C330  1  0.68260000  0.68050000  0.17360000  1
  C  C331  1  0.67980000  0.64230000  0.21620000  1
  C  C332  1  0.68100000  0.61360000  0.25190000  1
  C  C333  1  0.68410000  0.57880000  0.29490000  1
  C  C334  1  0.60030000  0.55620000  0.32000000  1
  C  C335  1  0.77460000  0.56600000  0.31370000  1
  C  C336  1  0.77960000  0.53040000  0.35470000  1
  C  C337  1  0.60520000  0.52310000  0.35990000  1
  C  C338  1  0.69380000  0.50770000  0.37820000  1
  C  C339  1  0.69770000  0.46590000  0.42090000  1
  C  C340  1  0.69490000  0.29780000  0.54950000  1
  C  C341  1  0.69330000  0.25280000  0.59040000  1
  C  C342  1  0.61570000  0.21220000  0.59930000  1
  C  C343  1  0.77050000  0.25320000  0.62010000  1
  C  C344  1  0.76770000  0.21590000  0.66110000  1
  C  C345  1  0.61030000  0.17610000  0.63810000  1
  C  C346  1  0.68770000  0.17540000  0.67100000  1
  C  C347  1  0.68310000  0.13840000  0.71240000  1
  C  C348  1  0.68130000  0.10700000  0.74650000  1
  C  C349  1  0.68440000  0.06930000  0.78820000  1
  C  C350  1  0.60640000  0.03560000  0.80750000  1
  C  C351  1  0.77200000  0.06540000  0.81200000  1
  C  C352  1  0.77360000  0.02910000  0.85420000  1
  C  C353  1  0.60860000  0.00000000  0.84770000  1
  C  C354  1  0.69700000  0.99620000  0.87170000  1
  C  C355  1  0.69910000  0.96030000  0.91600000  1
  C  C356  1  0.68600000  0.46390000  0.55200000  1
  C  C357  1  0.68250000  0.51080000  0.59170000  1
  C  C358  1  0.59550000  0.51740000  0.61600000  1
  C  C359  1  0.76110000  0.54750000  0.60720000  1
  C  C360  1  0.75560000  0.58840000  0.64290000  1
  C  C361  1  0.59050000  0.55760000  0.65190000  1
  C  C362  1  0.66666667  0.59130000  0.66840000  1
  C  C363  1  0.66620000  0.63190000  0.70990000  1
  C  C364  1  0.66140000  0.66180000  0.74550000  1
  C  C365  1  0.66470000  0.69560000  0.78820000  1
  C  C366  1  0.60200000  0.67960000  0.82650000  1
  C  C367  1  0.73040000  0.74680000  0.79560000  1
  C  C368  1  0.73710000  0.77840000  0.83890000  1
  C  C369  1  0.60780000  0.71280000  0.86860000  1
  C  C370  1  0.67350000  0.76250000  0.87520000  1
  C  C371  1  0.67650000  0.80010000  0.91930000  1
  C  C372  1  0.40540000  0.43140000  0.46900000  1
  C  C373  1  0.38770000  0.32780000  0.49110000  1
  C  C374  1  0.29130000  0.32960000  0.49050000  1
  C  C375  1  0.30640000  0.43550000  0.46740000  1
  C  C376  1  0.24900000  0.38450000  0.48330000  1
  C  C377  1  0.14170000  0.38680000  0.48530000  1
  C  C378  1  0.09020000  0.35280000  0.51750000  1
  C  C379  1  0.09540000  0.42580000  0.45340000  1
  C  C380  1  0.99600000  0.42500000  0.45550000  1
  C  C381  1  0.99220000  0.35450000  0.51780000  1
  C  C382  1  0.38300000  0.83260000  0.97310000  1
  C  C383  1  0.28870000  0.83090000  0.97390000  1
  Br  Br384  1  0.20603000  0.58627000  0.51412000  1
  Br  Br385  1  0.20835000  0.48189000  0.63012000  1
  Br  Br386  1  0.79009000  0.92056000  0.51268000  1
  Br  Br387  1  0.79503000  0.01405000  0.63309000  1
  Br  Br388  1  0.79397000  0.41373000  0.01412000  1
  Br  Br389  1  0.79165000  0.51811000  0.13012000  1
  Br  Br390  1  0.20991000  0.07944000  0.01268000  1
  Br  Br391  1  0.20497000  0.98595000  0.13309000  1
  Br  Br392  1  0.09647000  0.89236000  0.66789000  1
  Br  Br393  1  0.49873000  0.83947000  0.79198000  1
  Br  Br394  1  0.51300000  0.35930000  0.66106000  1
  Br  Br395  1  0.51846000  0.42432000  0.79519000  1
  Br  Br396  1  0.49852000  0.87879000  0.14892000  1
  Br  Br397  1  0.51312000  0.96111000  0.27550000  1
  Br  Br398  1  0.53312000  0.45222000  0.18897000  1
  Br  Br399  1  0.48821000  0.38792000  0.32027000  1
  Br  Br400  1  0.90353000  0.10764000  0.16789000  1
  Br  Br401  1  0.50127000  0.16053000  0.29198000  1
  Br  Br402  1  0.48700000  0.64070000  0.16106000  1
  Br  Br403  1  0.48154000  0.57568000  0.29519000  1
  Br  Br404  1  0.50148000  0.12121000  0.64892000  1
  Br  Br405  1  0.48688000  0.03889000  0.77550000  1
  Br  Br406  1  0.46688000  0.54778000  0.68897000  1
  Br  Br407  1  0.51179000  0.61208000  0.82027000  1
  N  N408  1  0.74490000  0.74960000  0.31130000  1
  N  N409  1  0.24900000  0.75560000  0.31080000  1
  N  N410  1  0.25510000  0.25040000  0.81130000  1
  N  N411  1  0.75100000  0.24440000  0.81080000  1
  N  N412  1  0.06050000  0.11720000  0.48510000  1
  N  N413  1  0.55910000  0.11930000  0.48810000  1
  N  N414  1  0.55600000  0.62190000  0.98200000  1
  N  N415  1  0.05560000  0.60980000  0.98580000  1
  N  N416  1  0.93950000  0.88280000  0.98510000  1
  N  N417  1  0.44090000  0.88070000  0.98810000  1
  N  N418  1  0.44400000  0.37810000  0.48200000  1
  N  N419  1  0.94440000  0.39020000  0.48580000  1
  O  O420  1  0.90610000  0.68680000  0.36440000  1
  O  O421  1  0.06280000  0.68710000  0.35800000  1
  O  O422  1  0.91980000  0.30560000  0.75499000  1
  O  O423  1  0.07720000  0.32340000  0.76331000  1
  O  O424  1  0.92960000  0.81550000  0.35730000  1
  O  O425  1  0.08710000  0.81460000  0.36476000  1
  O  O426  1  0.92970000  0.17730000  0.76428000  1
  O  O427  1  0.08570000  0.19430000  0.75454000  1
  O  O428  1  0.09390000  0.31320000  0.86440000  1
  O  O429  1  0.93720000  0.31290000  0.85800000  1
  O  O430  1  0.08020000  0.69440000  0.25499000  1
  O  O431  1  0.92280000  0.67660000  0.26331000  1
  O  O432  1  0.07040000  0.18450000  0.85730000  1
  O  O433  1  0.91290000  0.18540000  0.86476000  1
  O  O434  1  0.07030000  0.82270000  0.26428000  1
  O  O435  1  0.91430000  0.80570000  0.25454000  1
  O  O436  1  0.23100000  0.04930000  0.53457000  1
  O  O437  1  0.39110000  0.05020000  0.53240000  1
  O  O438  1  0.22840000  0.67720000  0.93559000  1
  O  O439  1  0.38640000  0.68330000  0.93020000  1
  O  O440  1  0.22900000  0.17900000  0.53744000  1
  O  O441  1  0.38750000  0.18260000  0.53779000  1
  O  O442  1  0.22000000  0.54680000  0.93412000  1
  O  O443  1  0.37730000  0.55150000  0.94007000  1
  O  O444  1  0.22720000  0.67580000  0.03827000  1
  O  O445  1  0.38530000  0.69470000  0.03031000  1
  O  O446  1  0.21900000  0.04770000  0.43302000  1
  O  O447  1  0.37910000  0.06340000  0.43159000  1
  O  O448  1  0.23370000  0.54300000  0.03520000  1
  O  O449  1  0.38990000  0.56290000  0.03920000  1
  O  O450  1  0.24490000  0.17630000  0.43396000  1
  O  O451  1  0.40370000  0.19340000  0.43819000  1
  O  O452  1  0.76900000  0.95070000  0.03457000  1
  O  O453  1  0.60890000  0.94980000  0.03240000  1
  O  O454  1  0.77160000  0.32280000  0.43559000  1
  O  O455  1  0.61360000  0.31670000  0.43020000  1
  O  O456  1  0.77100000  0.82100000  0.03744000  1
  O  O457  1  0.61250000  0.81740000  0.03779000  1
  O  O458  1  0.78000000  0.45320000  0.43412000  1
  O  O459  1  0.62270000  0.44850000  0.44007000  1
  O  O460  1  0.77280000  0.32420000  0.53827000  1
  O  O461  1  0.61470000  0.30530000  0.53031000  1
  O  O462  1  0.78100000  0.95230000  0.93302000  1
  O  O463  1  0.62090000  0.93660000  0.93159000  1
  O  O464  1  0.76630000  0.45700000  0.53520000  1
  O  O465  1  0.61010000  0.43710000  0.53920000  1
  O  O466  1  0.75510000  0.82370000  0.93396000  1
  O  O467  1  0.59630000  0.80660000  0.93819000  1
