data_crystal

_cell_length_a 10.93400
_cell_length_b 11.79270
_cell_length_c 19.21520
_cell_angle_alpha 90.00000
_cell_angle_beta  90.00000
_cell_angle_gamma 90.00000

_symmetry_space_group_name_	'P 1'
_symmetry_space_group_name_H-M	'P 1'

loop_
_symmetry_equiv_pos_as_xyz
  x,y,z

loop_
_atom_site_label
_atom_site_type_symbol
_atom_site_fract_x
_atom_site_fract_y
_atom_site_fract_z
_atom_site_charge
Gd	Gd	0.36210 0.84276 0.42584 1.44300
Gd	Gd	0.88086 0.02944 0.21137 1.53800
Gd	Gd	0.63790 0.15724 0.92584 1.40400
Gd	Gd	0.11914 0.97056 0.71137 1.53400
Gd	Gd	0.13790 0.34276 0.42584 1.44400
Gd	Gd	0.61914 0.52944 0.21137 1.54900
Gd	Gd	0.86210 0.65724 0.92584 1.40500
Gd	Gd	0.38086 0.47056 0.71137 1.54400
H 	H 	0.14580 0.99690 0.32160 -0.02800
H 	H 	0.27070 0.74930 0.15630 0.08400
H 	H 	0.62940 0.89860 0.31130 -0.01000
H 	H 	0.49320 0.26060 0.32570 0.04700
H 	H 	0.85420 0.00310 0.82160 -0.02800
H 	H 	0.72930 0.25070 0.65630 0.08000
H 	H 	0.37060 0.10140 0.81130 -0.01100
H 	H 	0.50680 0.73940 0.82570 0.04600
H 	H 	0.35420 0.49690 0.32160 -0.02700
H 	H 	0.22930 0.24930 0.15630 0.08400
H 	H 	0.87060 0.39860 0.31130 -0.01000
H 	H 	0.00680 0.76060 0.32570 0.04000
H 	H 	0.64580 0.50310 0.82160 -0.02700
H 	H 	0.77070 0.75070 0.65630 0.08000
H 	H 	0.12940 0.60140 0.81130 -0.01000
H 	H 	0.99320 0.23940 0.82570 0.04200
C 	C 	0.16850 0.94300 0.28880 0.13600
C 	C 	0.13500 0.85930 0.18470 0.00900
C 	C 	0.24290 0.79690 0.19140 -0.05200
C 	C 	0.30500 0.80980 0.25210 -0.00400
C 	C 	0.41390 0.73280 0.26960 0.37000
C 	C 	0.05240 0.84110 0.12230 0.31000
C 	C 	0.60160 0.97290 0.31420 0.12600
C 	C 	0.62660 0.15830 0.28640 -0.04700
C 	C 	0.52100 0.18620 0.32240 -0.01500
C 	C 	0.46010 0.09730 0.35280 -0.03000
C 	C 	0.33960 0.11640 0.39100 0.36600
C 	C 	0.70350 0.24970 0.25090 0.40100
C 	C 	0.70050 0.06920 0.08040 0.26200
C 	C 	0.82260 0.12070 0.05500 0.28700
C 	C 	0.83150 0.05700 0.78880 0.13500
C 	C 	0.86500 0.14070 0.68470 0.00500
C 	C 	0.75710 0.20310 0.69140 -0.05000
C 	C 	0.69500 0.19020 0.75210 -0.00600
C 	C 	0.58610 0.26720 0.76960 0.37000
C 	C 	0.94760 0.15890 0.62230 0.31200
C 	C 	0.39840 0.02710 0.81420 0.12200
C 	C 	0.37340 0.84170 0.78640 -0.04900
C 	C 	0.47900 0.81380 0.82240 -0.01600
C 	C 	0.53990 0.90270 0.85280 -0.03200
C 	C 	0.66040 0.88360 0.89100 0.36300
C 	C 	0.29650 0.75030 0.75090 0.40000
C 	C 	0.29950 0.93080 0.58040 0.27500
C 	C 	0.17740 0.87930 0.55500 0.23100
C 	C 	0.33150 0.44300 0.28880 0.13600
C 	C 	0.36500 0.35930 0.18470 0.00700
C 	C 	0.25710 0.29690 0.19140 -0.05100
C 	C 	0.19500 0.30980 0.25210 -0.00400
C 	C 	0.08610 0.23280 0.26960 0.36900
C 	C 	0.44760 0.34110 0.12230 0.31800
C 	C 	0.89840 0.47290 0.31420 0.12200
C 	C 	0.87340 0.65830 0.28640 -0.05100
C 	C 	0.97900 0.68620 0.32240 -0.00100
C 	C 	0.03990 0.59730 0.35280 -0.03700
C 	C 	0.16040 0.61640 0.39100 0.36800
C 	C 	0.79650 0.74970 0.25090 0.40200
C 	C 	0.79950 0.56920 0.08040 0.26200
C 	C 	0.67740 0.62070 0.05500 0.29000
C 	C 	0.66850 0.55700 0.78880 0.13500
C 	C 	0.63500 0.64070 0.68470 0.00400
C 	C 	0.74290 0.70310 0.69140 -0.04900
C 	C 	0.80500 0.69020 0.75210 -0.00600
C 	C 	0.91390 0.76720 0.76960 0.37000
C 	C 	0.55240 0.65890 0.62230 0.31900
C 	C 	0.10160 0.52710 0.81420 0.11700
C 	C 	0.12660 0.34170 0.78640 -0.05100
C 	C 	0.02100 0.31380 0.82240 -0.00800
C 	C 	0.96010 0.40270 0.85280 -0.03600
C 	C 	0.83960 0.38360 0.89100 0.36400
C 	C 	0.20350 0.25030 0.75090 0.40000
C 	C 	0.20050 0.43080 0.58040 0.27600
C 	C 	0.32260 0.37930 0.55500 0.23200
N 	N 	0.26980 0.88350 0.30160 -0.17800
N 	N 	0.09710 0.93180 0.23310 -0.19200
N 	N 	0.49920 0.99080 0.35120 -0.18200
N 	N 	0.66690 0.05140 0.28130 -0.17600
N 	N 	0.73020 0.11650 0.80160 -0.17600
N 	N 	0.90290 0.06820 0.73310 -0.19200
N 	N 	0.50080 0.00920 0.85120 -0.18300
N 	N 	0.33310 0.94860 0.78130 -0.17600
N 	N 	0.23020 0.38350 0.30160 -0.17800
N 	N 	0.40290 0.43180 0.23310 -0.19100
N 	N 	0.00080 0.49080 0.35120 -0.18100
N 	N 	0.83310 0.55140 0.28130 -0.17400
N 	N 	0.76980 0.61650 0.80160 -0.17600
N 	N 	0.59710 0.56820 0.73310 -0.19100
N 	N 	0.99920 0.50920 0.85120 -0.18100
N 	N 	0.16690 0.44860 0.78130 -0.17400
O 	O 	0.45380 0.74050 0.33140 -0.42800
O 	O 	0.45070 0.66730 0.22370 -0.38300
O 	O 	0.95410 0.89850 0.12190 -0.34700
O 	O 	0.08670 0.77200 0.07930 -0.25400
O 	O 	0.29540 0.03540 0.42540 -0.40200
O 	O 	0.29150 0.21230 0.38330 -0.38800
O 	O 	0.80020 0.21760 0.22200 -0.40200
O 	O 	0.66580 0.34880 0.25490 -0.44500
O 	O 	0.61070 0.08250 0.04230 -0.33200
O 	O 	0.70470 0.01510 0.13720 -0.34000
O 	O 	0.82690 0.15360 0.99350 -0.37400
O 	O 	0.90910 0.12490 0.10030 -0.31800
O 	O 	0.54620 0.25950 0.83140 -0.42800
O 	O 	0.54930 0.33270 0.72370 -0.38500
O 	O 	0.04590 0.10150 0.62190 -0.35400
O 	O 	0.91330 0.22800 0.57930 -0.26800
O 	O 	0.70460 0.96460 0.92540 -0.40900
O 	O 	0.70850 0.78770 0.88330 -0.38700
O 	O 	0.19980 0.78240 0.72200 -0.40300
O 	O 	0.33420 0.65120 0.75490 -0.44600
O 	O 	0.38930 0.91750 0.54230 -0.36000
O 	O 	0.29530 0.98490 0.63720 -0.34600
O 	O 	0.17310 0.84640 0.49350 -0.33100
O 	O 	0.09090 0.87510 0.60030 -0.31200
O 	O 	0.04620 0.24050 0.33140 -0.42600
O 	O 	0.04930 0.16730 0.22370 -0.37900
O 	O 	0.54590 0.39850 0.12190 -0.35500
O 	O 	0.41330 0.27200 0.07930 -0.25500
O 	O 	0.20460 0.53540 0.42540 -0.40500
O 	O 	0.20850 0.71230 0.38330 -0.38900
O 	O 	0.69980 0.71760 0.22200 -0.40200
O 	O 	0.83420 0.84880 0.25490 -0.44100
O 	O 	0.88930 0.58250 0.04230 -0.33200
O 	O 	0.79530 0.51510 0.13720 -0.34000
O 	O 	0.67310 0.65360 0.99350 -0.37600
O 	O 	0.59090 0.62490 0.10030 -0.31700
O 	O 	0.95380 0.75950 0.83140 -0.42600
O 	O 	0.95070 0.83270 0.72370 -0.38100
O 	O 	0.45410 0.60150 0.62190 -0.36200
O 	O 	0.58670 0.72800 0.57930 -0.26800
O 	O 	0.79540 0.46460 0.92540 -0.41200
O 	O 	0.79150 0.28770 0.88330 -0.38700
O 	O 	0.30020 0.28240 0.72200 -0.40300
O 	O 	0.16580 0.15120 0.75490 -0.44300
O 	O 	0.11070 0.41750 0.54230 -0.36000
O 	O 	0.20470 0.48490 0.63720 -0.34600
O 	O 	0.32690 0.34640 0.49350 -0.33000
O 	O 	0.40910 0.37510 0.60030 -0.31100
