data_crystal

_cell_length_a 14.49880
_cell_length_b 17.16590
_cell_length_c 18.15360
_cell_angle_alpha 90.00000
_cell_angle_beta  90.00000
_cell_angle_gamma 90.00000

_symmetry_space_group_name_	'P 1'
_symmetry_space_group_name_H-M	'P 1'

loop_
_symmetry_equiv_pos_as_xyz
  x,y,z

loop_
_atom_site_label
_atom_site_type_symbol
_atom_site_fract_x
_atom_site_fract_y
_atom_site_fract_z
_atom_site_charge
Zn	Zn	0.44449 0.93948 0.45177 1.17700
Zn	Zn	0.65292 0.94705 0.39764 1.22300
Zn	Zn	0.55551 0.43948 0.04823 1.17700
Zn	Zn	0.34708 0.44705 0.10236 1.22300
Zn	Zn	0.55551 0.06052 0.54823 1.17700
Zn	Zn	0.34708 0.05295 0.60236 1.22300
Zn	Zn	0.44449 0.56052 0.95177 1.17700
Zn	Zn	0.65292 0.55295 0.89764 1.22300
H 	H 	0.60970 0.92760 0.52110 0.20100
H 	H 	0.36910 0.12080 0.30200 0.04000
H 	H 	0.33880 0.23180 0.23340 0.04600
H 	H 	0.59600 0.22520 0.15310 0.03900
H 	H 	0.62650 0.11580 0.22270 0.04800
H 	H 	0.93580 0.89110 0.55370 0.04900
H 	H 	0.92160 0.06510 0.40750 0.05300
H 	H 	0.39030 0.42760 0.97890 0.19900
H 	H 	0.63090 0.62080 0.19800 0.03900
H 	H 	0.66120 0.73180 0.26660 0.04500
H 	H 	0.40400 0.72520 0.34690 0.03900
H 	H 	0.37350 0.61580 0.27730 0.04800
H 	H 	0.06420 0.39110 0.94630 0.05000
H 	H 	0.07840 0.56510 0.09250 0.05300
H 	H 	0.39030 0.07240 0.47890 0.20100
H 	H 	0.63090 0.87920 0.69800 0.04000
H 	H 	0.66120 0.76820 0.76660 0.04600
H 	H 	0.40400 0.77480 0.84690 0.03900
H 	H 	0.37350 0.88420 0.77730 0.04800
H 	H 	0.06420 0.10890 0.44630 0.04900
H 	H 	0.07840 0.93490 0.59250 0.05300
H 	H 	0.60970 0.57240 0.02110 0.19900
H 	H 	0.36910 0.37920 0.80200 0.03900
H 	H 	0.33880 0.26820 0.73340 0.04500
H 	H 	0.59600 0.27480 0.65310 0.03900
H 	H 	0.62650 0.38420 0.72270 0.04800
H 	H 	0.93580 0.60890 0.05370 0.05000
H 	H 	0.92160 0.43490 0.90750 0.05300
C 	C 	0.52280 0.04090 0.32070 0.37500
C 	C 	0.50070 0.10760 0.27040 -0.09000
C 	C 	0.41520 0.14210 0.27260 -0.01900
C 	C 	0.39680 0.20860 0.23140 -0.01700
C 	C 	0.46540 0.24020 0.18730 -0.09200
C 	C 	0.55060 0.20480 0.18370 -0.01500
C 	C 	0.56860 0.13910 0.22510 -0.02100
C 	C 	0.44930 0.31420 0.14470 0.39100
C 	C 	0.81970 0.94510 0.45430 0.32400
C 	C 	0.91420 0.97350 0.47690 -0.07300
C 	C 	0.96160 0.93510 0.53200 -0.02800
C 	C 	0.95290 0.03880 0.44470 -0.02000
C 	C 	0.47720 0.54090 0.17930 0.37500
C 	C 	0.49930 0.60760 0.22960 -0.09100
C 	C 	0.58480 0.64210 0.22740 -0.01900
C 	C 	0.60320 0.70860 0.26860 -0.01700
C 	C 	0.53460 0.74020 0.31270 -0.09200
C 	C 	0.44940 0.70480 0.31630 -0.01500
C 	C 	0.43140 0.63910 0.27490 -0.02100
C 	C 	0.55070 0.81420 0.35530 0.39100
C 	C 	0.18030 0.44510 0.04570 0.32200
C 	C 	0.08580 0.47350 0.02310 -0.06400
C 	C 	0.03840 0.43510 0.96800 -0.03700
C 	C 	0.04710 0.53880 0.05530 -0.02000
C 	C 	0.47720 0.95910 0.67930 0.37500
C 	C 	0.49930 0.89240 0.72960 -0.09000
C 	C 	0.58480 0.85790 0.72740 -0.01900
C 	C 	0.60320 0.79140 0.76860 -0.01700
C 	C 	0.53460 0.75980 0.81270 -0.09200
C 	C 	0.44940 0.79520 0.81630 -0.01500
C 	C 	0.43140 0.86090 0.77490 -0.02100
C 	C 	0.55070 0.68580 0.85530 0.39100
C 	C 	0.18030 0.05490 0.54570 0.32400
C 	C 	0.08580 0.02650 0.52310 -0.07300
C 	C 	0.03840 0.06490 0.46800 -0.02800
C 	C 	0.04710 0.96120 0.55530 -0.02000
C 	C 	0.52280 0.45910 0.82070 0.37500
C 	C 	0.50070 0.39240 0.77040 -0.09100
C 	C 	0.41520 0.35790 0.77260 -0.01900
C 	C 	0.39680 0.29140 0.73140 -0.01700
C 	C 	0.46540 0.25980 0.68730 -0.09200
C 	C 	0.55060 0.29520 0.68370 -0.01500
C 	C 	0.56860 0.36090 0.72510 -0.02100
C 	C 	0.44930 0.18580 0.64470 0.39100
C 	C 	0.81970 0.55490 0.95430 0.32200
C 	C 	0.91420 0.52650 0.97690 -0.06400
C 	C 	0.96160 0.56490 0.03200 -0.03700
C 	C 	0.95290 0.46120 0.94470 -0.02000
O 	O 	0.58070 0.96030 0.48710 -0.83000
O 	O 	0.45910 0.01430 0.35980 -0.49000
O 	O 	0.60440 0.01590 0.32000 -0.48100
O 	O 	0.51560 0.34250 0.11150 -0.50700
O 	O 	0.36850 0.34310 0.14720 -0.46900
O 	O 	0.78140 0.98060 0.40330 -0.46600
O 	O 	0.78480 0.88930 0.48750 -0.34500
O 	O 	0.41930 0.46030 0.01290 -0.82900
O 	O 	0.54090 0.51430 0.14020 -0.49000
O 	O 	0.39560 0.51590 0.18000 -0.48200
O 	O 	0.48440 0.84250 0.38850 -0.50700
O 	O 	0.63150 0.84310 0.35280 -0.47000
O 	O 	0.21860 0.48060 0.09670 -0.46400
O 	O 	0.21520 0.38930 0.01250 -0.34300
O 	O 	0.41930 0.03970 0.51290 -0.83000
O 	O 	0.54090 0.98570 0.64020 -0.49000
O 	O 	0.39560 0.98410 0.68000 -0.48100
O 	O 	0.48440 0.65750 0.88850 -0.50700
O 	O 	0.63150 0.65690 0.85280 -0.46900
O 	O 	0.21860 0.01940 0.59670 -0.46600
O 	O 	0.21520 0.11070 0.51250 -0.34500
O 	O 	0.58070 0.53970 0.98710 -0.82900
O 	O 	0.45910 0.48570 0.85980 -0.49000
O 	O 	0.60440 0.48410 0.82000 -0.48200
O 	O 	0.51560 0.15750 0.61150 -0.50700
O 	O 	0.36850 0.15690 0.64720 -0.47000
O 	O 	0.78140 0.51940 0.90330 -0.46400
O 	O 	0.78480 0.61070 0.98750 -0.34300
Zn	Zn	0.05551 0.06052 0.95177 1.17400
Zn	Zn	0.84708 0.05295 0.89764 1.22400
Zn	Zn	0.94449 0.56052 0.54823 1.17700
Zn	Zn	0.15292 0.55295 0.60236 1.22300
Zn	Zn	0.94449 0.93948 0.04823 1.17400
Zn	Zn	0.15292 0.94705 0.10236 1.22400
Zn	Zn	0.05551 0.43948 0.45177 1.17700
Zn	Zn	0.84708 0.44705 0.39764 1.22300
H 	H 	0.89030 0.07240 0.02110 0.20000
H 	H 	0.13090 0.87920 0.80200 0.04000
H 	H 	0.16120 0.76820 0.73340 0.04500
H 	H 	0.90400 0.77480 0.65310 0.03900
H 	H 	0.87350 0.88420 0.72270 0.04800
H 	H 	0.56420 0.10890 0.05370 0.04700
H 	H 	0.57840 0.93490 0.90750 0.05400
H 	H 	0.10970 0.57240 0.47890 0.20100
H 	H 	0.86910 0.37920 0.69800 0.03600
H 	H 	0.83880 0.26820 0.76660 0.04800
H 	H 	0.09600 0.27480 0.84690 0.04200
H 	H 	0.12650 0.38420 0.77730 0.04500
H 	H 	0.43580 0.60890 0.44630 0.04800
H 	H 	0.42160 0.43490 0.59250 0.05400
H 	H 	0.10970 0.92760 0.97890 0.20000
H 	H 	0.86910 0.12080 0.19800 0.04000
H 	H 	0.83880 0.23180 0.26660 0.04500
H 	H 	0.09600 0.22520 0.34690 0.03900
H 	H 	0.12650 0.11580 0.27730 0.04800
H 	H 	0.43580 0.89110 0.94630 0.04700
H 	H 	0.42160 0.06510 0.09250 0.05400
H 	H 	0.89030 0.42760 0.52110 0.20100
H 	H 	0.13090 0.62080 0.30200 0.03600
H 	H 	0.16120 0.73180 0.23340 0.04800
H 	H 	0.90400 0.72520 0.15310 0.04200
H 	H 	0.87350 0.61580 0.22270 0.04500
H 	H 	0.56420 0.39110 0.55370 0.04800
H 	H 	0.57840 0.56510 0.40750 0.05400
C 	C 	0.97720 0.95910 0.82070 0.37500
C 	C 	0.99930 0.89240 0.77040 -0.09000
C 	C 	0.08480 0.85790 0.77260 -0.02000
C 	C 	0.10320 0.79140 0.73140 -0.01700
C 	C 	0.03460 0.75980 0.68730 -0.09200
C 	C 	0.94940 0.79520 0.68370 -0.01400
C 	C 	0.93140 0.86090 0.72510 -0.02200
C 	C 	0.05070 0.68580 0.64470 0.39100
C 	C 	0.68030 0.05490 0.95430 0.32400
C 	C 	0.58580 0.02650 0.97690 -0.07600
C 	C 	0.53840 0.06490 0.03200 -0.02100
C 	C 	0.54710 0.96120 0.94470 -0.02300
C 	C 	0.02280 0.45910 0.67930 0.37600
C 	C 	0.00070 0.39240 0.72960 -0.09900
C 	C 	0.91520 0.35790 0.72740 -0.00900
C 	C 	0.89680 0.29140 0.76860 -0.02500
C 	C 	0.96540 0.25980 0.81270 -0.08400
C 	C 	0.05060 0.29520 0.81630 -0.02600
C 	C 	0.06860 0.36090 0.77490 -0.01400
C 	C 	0.94930 0.18580 0.85530 0.39500
C 	C 	0.31970 0.55490 0.54570 0.32300
C 	C 	0.41420 0.52650 0.52310 -0.07000
C 	C 	0.46160 0.56490 0.46800 -0.02500
C 	C 	0.45290 0.46120 0.55530 -0.02700
C 	C 	0.02280 0.04090 0.17930 0.37500
C 	C 	0.00070 0.10760 0.22960 -0.09000
C 	C 	0.91520 0.14210 0.22740 -0.02000
C 	C 	0.89680 0.20860 0.26860 -0.01700
C 	C 	0.96540 0.24020 0.31270 -0.09200
C 	C 	0.05060 0.20480 0.31630 -0.01400
C 	C 	0.06860 0.13910 0.27490 -0.02200
C 	C 	0.94930 0.31420 0.35530 0.39100
C 	C 	0.31970 0.94510 0.04570 0.32400
C 	C 	0.41420 0.97350 0.02310 -0.07600
C 	C 	0.46160 0.93510 0.96800 -0.02100
C 	C 	0.45290 0.03880 0.05530 -0.02300
C 	C 	0.97720 0.54090 0.32070 0.37600
C 	C 	0.99930 0.60760 0.27040 -0.09900
C 	C 	0.08480 0.64210 0.27260 -0.00900
C 	C 	0.10320 0.70860 0.23140 -0.02500
C 	C 	0.03460 0.74020 0.18730 -0.08400
C 	C 	0.94940 0.70480 0.18370 -0.02600
C 	C 	0.93140 0.63910 0.22510 -0.01400
C 	C 	0.05070 0.81420 0.14470 0.39500
C 	C 	0.68030 0.44510 0.45430 0.32300
C 	C 	0.58580 0.47350 0.47690 -0.07000
C 	C 	0.53840 0.43510 0.53200 -0.02500
C 	C 	0.54710 0.53880 0.44470 -0.02700
O 	O 	0.91930 0.03970 0.98710 -0.82800
O 	O 	0.04090 0.98570 0.85980 -0.48900
O 	O 	0.89560 0.98410 0.82000 -0.48100
O 	O 	0.98440 0.65750 0.61150 -0.50700
O 	O 	0.13150 0.65690 0.64720 -0.46900
O 	O 	0.71860 0.01940 0.90330 -0.46600
O 	O 	0.71520 0.11070 0.98750 -0.34500
O 	O 	0.08070 0.53970 0.51290 -0.83000
O 	O 	0.95910 0.48570 0.64020 -0.48900
O 	O 	0.10440 0.48410 0.68000 -0.48200
O 	O 	0.01560 0.15750 0.88850 -0.51300
O 	O 	0.86850 0.15690 0.85280 -0.47000
O 	O 	0.28140 0.51940 0.59670 -0.46500
O 	O 	0.28480 0.61070 0.51250 -0.34400
O 	O 	0.08070 0.96030 0.01290 -0.82800
O 	O 	0.95910 0.01430 0.14020 -0.48900
O 	O 	0.10440 0.01590 0.18000 -0.48100
O 	O 	0.01560 0.34250 0.38850 -0.50700
O 	O 	0.86850 0.34310 0.35280 -0.46900
O 	O 	0.28140 0.98060 0.09670 -0.46600
O 	O 	0.28480 0.88930 0.01250 -0.34500
O 	O 	0.91930 0.46030 0.48710 -0.83000
O 	O 	0.04090 0.51430 0.35980 -0.48900
O 	O 	0.89560 0.51590 0.32000 -0.48200
O 	O 	0.98440 0.84250 0.11150 -0.51300
O 	O 	0.13150 0.84310 0.14720 -0.47000
O 	O 	0.71860 0.48060 0.40330 -0.46500
O 	O 	0.71520 0.38930 0.48750 -0.34400
