data_crystal

_cell_length_a 11.36700
_cell_length_b 24.37300
_cell_length_c 36.59600
_cell_angle_alpha 97.68500
_cell_angle_beta  90.00000
_cell_angle_gamma 90.00000

_symmetry_space_group_name_	'P 1'
_symmetry_space_group_name_H-M	'P 1'

loop_
_symmetry_equiv_pos_as_xyz
  x,y,z

loop_
_atom_site_label
_atom_site_type_symbol
_atom_site_fract_x
_atom_site_fract_y
_atom_site_fract_z
_atom_site_charge
Cd	Cd	0.35686 0.67245 0.84208 1.19000
Cd	Cd	0.63271 0.71630 0.88137 1.24400
Cd	Cd	0.08209 0.29894 0.09142 1.19500
Cd	Cd	0.85686 0.32755 0.65792 1.19000
Cd	Cd	0.13271 0.28370 0.61863 1.24400
Cd	Cd	0.58209 0.70106 0.40858 1.19600
Cd	Cd	0.64314 0.32755 0.15792 1.19100
Cd	Cd	0.36729 0.28370 0.11863 1.24500
Cd	Cd	0.91791 0.70106 0.90858 1.19600
Cd	Cd	0.14314 0.67245 0.34208 1.19100
Cd	Cd	0.86729 0.71630 0.38137 1.24500
Cd	Cd	0.41791 0.29894 0.59142 1.19600
H 	H 	0.37470 0.75450 0.13420 0.04900
H 	H 	0.41770 0.74540 0.17380 0.04900
H 	H 	0.58620 0.72180 0.08920 0.03500
H 	H 	0.56520 0.65740 0.08200 0.03200
H 	H 	0.39340 0.64700 0.16300 0.03300
H 	H 	0.34210 0.65110 0.12350 0.03300
H 	H 	0.65420 0.65100 0.14170 0.03300
H 	H 	0.66710 0.71570 0.15170 0.03200
H 	H 	0.42880 0.84490 0.17870 0.05000
H 	H 	0.43140 0.85310 0.13680 0.05200
H 	H 	0.72990 0.90400 0.13620 0.04000
H 	H 	0.70430 0.83990 0.13060 0.03200
H 	H 	0.48730 0.94850 0.14660 0.03900
H 	H 	0.47350 0.94750 0.18930 0.04000
H 	H 	0.68070 0.83760 0.19650 0.03700
H 	H 	0.71000 0.90120 0.20450 0.04400
H 	H 	0.24980 0.71720 0.03680 0.14600
H 	H 	0.22290 0.70580 0.97370 -0.05200
H 	H 	0.56170 0.66500 0.95940 -0.03800
H 	H 	0.58750 0.67390 0.02220 0.14300
H 	H 	0.24770 0.58150 0.14570 0.12700
H 	H 	0.14460 0.49920 0.14150 -0.01500
H 	H 	0.43280 0.41580 0.10300 -0.02100
H 	H 	0.53370 0.49790 0.10550 0.12600
H 	H 	0.81570 0.68770 0.18400 0.13100
H 	H 	0.95270 0.68200 0.23000 -0.02000
H 	H 	0.69730 0.65010 0.29870 -0.02600
H 	H 	0.55880 0.65990 0.25450 0.13700
H 	H 	0.48320 0.86230 0.04280 0.14900
H 	H 	0.53000 0.81420 0.98660 -0.02200
H 	H 	0.85550 0.79010 0.02110 -0.02400
H 	H 	0.80610 0.83750 0.08010 0.13500
H 	H 	0.76960 0.05600 0.17630 0.15400
H 	H 	0.74900 0.14620 0.16690 -0.02900
H 	H 	0.40200 0.12490 0.15760 -0.02300
H 	H 	0.42240 0.03520 0.16890 0.14500
H 	H 	0.40210 0.84590 0.26600 0.13500
H 	H 	0.41370 0.79270 0.31390 -0.01800
H 	H 	0.76540 0.79350 0.30840 -0.01100
H 	H 	0.75450 0.84360 0.25830 0.13300
H 	H 	0.87470 0.24550 0.36580 0.05000
H 	H 	0.91770 0.25460 0.32620 0.04900
H 	H 	0.08620 0.27820 0.41080 0.03500
H 	H 	0.06520 0.34260 0.41800 0.03200
H 	H 	0.89340 0.35300 0.33700 0.03400
H 	H 	0.84210 0.34890 0.37650 0.03300
H 	H 	0.15420 0.34900 0.35830 0.03400
H 	H 	0.16710 0.28430 0.34830 0.03300
H 	H 	0.92880 0.15510 0.32130 0.05100
H 	H 	0.93140 0.14690 0.36320 0.05200
H 	H 	0.22990 0.09600 0.36380 0.04000
H 	H 	0.20430 0.16010 0.36940 0.03200
H 	H 	0.98730 0.05150 0.35340 0.03600
H 	H 	0.97350 0.05250 0.31070 0.03800
H 	H 	0.18070 0.16240 0.30350 0.03700
H 	H 	0.21000 0.09880 0.29550 0.04300
H 	H 	0.74980 0.28280 0.46320 0.14500
H 	H 	0.72290 0.29420 0.52630 -0.05200
H 	H 	0.06170 0.33500 0.54060 -0.03700
H 	H 	0.08750 0.32610 0.47780 0.14200
H 	H 	0.74770 0.41850 0.35430 0.12800
H 	H 	0.64460 0.50080 0.35850 -0.01500
H 	H 	0.93280 0.58420 0.39700 -0.02100
H 	H 	0.03370 0.50210 0.39450 0.12600
H 	H 	0.31570 0.31230 0.31600 0.13100
H 	H 	0.45270 0.31800 0.27000 -0.02000
H 	H 	0.19730 0.34990 0.20130 -0.02600
H 	H 	0.05880 0.34010 0.24550 0.13700
H 	H 	0.98320 0.13770 0.45720 0.14700
H 	H 	0.03000 0.18580 0.51340 -0.02200
H 	H 	0.35550 0.20990 0.47890 -0.02400
H 	H 	0.30610 0.16250 0.41990 0.13500
H 	H 	0.26960 0.94400 0.32370 0.15400
H 	H 	0.24900 0.85380 0.33310 -0.02900
H 	H 	0.90200 0.87510 0.34240 -0.02300
H 	H 	0.92240 0.96480 0.33110 0.14500
H 	H 	0.90210 0.15410 0.23400 0.13500
H 	H 	0.91370 0.20730 0.18610 -0.01700
H 	H 	0.26540 0.20650 0.19160 -0.01100
H 	H 	0.25450 0.15640 0.24170 0.13300
H 	H 	0.62530 0.24550 0.86580 0.04900
H 	H 	0.58230 0.25460 0.82620 0.04900
H 	H 	0.41380 0.27820 0.91080 0.03500
H 	H 	0.43480 0.34260 0.91800 0.03200
H 	H 	0.60660 0.35300 0.83700 0.03300
H 	H 	0.65790 0.34890 0.87650 0.03300
H 	H 	0.34580 0.34900 0.85830 0.03300
H 	H 	0.33290 0.28430 0.84830 0.03200
H 	H 	0.57120 0.15510 0.82130 0.05000
H 	H 	0.56860 0.14690 0.86320 0.05200
H 	H 	0.27010 0.09600 0.86380 0.04000
H 	H 	0.29570 0.16010 0.86940 0.03200
H 	H 	0.51270 0.05150 0.85340 0.03900
H 	H 	0.52650 0.05250 0.81070 0.04000
H 	H 	0.31930 0.16240 0.80350 0.03700
H 	H 	0.29000 0.09880 0.79550 0.04400
H 	H 	0.75020 0.28280 0.96320 0.14600
H 	H 	0.77710 0.29420 0.02630 -0.05200
H 	H 	0.43830 0.33500 0.04060 -0.03800
H 	H 	0.41250 0.32610 0.97780 0.14300
H 	H 	0.75230 0.41850 0.85430 0.12700
H 	H 	0.85540 0.50080 0.85850 -0.01500
H 	H 	0.56720 0.58420 0.89700 -0.02100
H 	H 	0.46630 0.50210 0.89450 0.12600
H 	H 	0.18430 0.31230 0.81600 0.13100
H 	H 	0.04730 0.31800 0.77000 -0.02000
H 	H 	0.30270 0.34990 0.70130 -0.02600
H 	H 	0.44120 0.34010 0.74550 0.13700
H 	H 	0.51680 0.13770 0.95720 0.14900
H 	H 	0.47000 0.18580 0.01340 -0.02200
H 	H 	0.14450 0.20990 0.97890 -0.02400
H 	H 	0.19390 0.16250 0.91990 0.13500
H 	H 	0.23040 0.94400 0.82370 0.15400
H 	H 	0.25100 0.85380 0.83310 -0.02900
H 	H 	0.59800 0.87510 0.84240 -0.02300
H 	H 	0.57760 0.96480 0.83110 0.14500
H 	H 	0.59790 0.15410 0.73400 0.13500
H 	H 	0.58630 0.20730 0.68610 -0.01800
H 	H 	0.23460 0.20650 0.69160 -0.01100
H 	H 	0.24550 0.15640 0.74170 0.13300
H 	H 	0.12530 0.75450 0.63420 0.04900
H 	H 	0.08230 0.74540 0.67380 0.04900
H 	H 	0.91380 0.72180 0.58920 0.03400
H 	H 	0.93480 0.65740 0.58200 0.03200
H 	H 	0.10660 0.64700 0.66300 0.03300
H 	H 	0.15790 0.65110 0.62350 0.03300
H 	H 	0.84580 0.65100 0.64170 0.03300
H 	H 	0.83290 0.71570 0.65170 0.03200
H 	H 	0.07120 0.84490 0.67870 0.05100
H 	H 	0.06860 0.85310 0.63680 0.05200
H 	H 	0.77010 0.90400 0.63620 0.04000
H 	H 	0.79570 0.83990 0.63060 0.03200
H 	H 	0.01270 0.94850 0.64660 0.03600
H 	H 	0.02650 0.94750 0.68930 0.03700
H 	H 	0.81930 0.83760 0.69650 0.03700
H 	H 	0.79000 0.90120 0.70450 0.04300
H 	H 	0.25020 0.71720 0.53680 0.14500
H 	H 	0.27710 0.70580 0.47370 -0.05200
H 	H 	0.93830 0.66500 0.45940 -0.03600
H 	H 	0.91250 0.67390 0.52220 0.14200
H 	H 	0.25230 0.58150 0.64570 0.12800
H 	H 	0.35540 0.49920 0.64150 -0.01500
H 	H 	0.06720 0.41580 0.60300 -0.02100
H 	H 	0.96630 0.49790 0.60550 0.12700
H 	H 	0.68430 0.68770 0.68400 0.13200
H 	H 	0.54730 0.68200 0.73000 -0.02000
H 	H 	0.80270 0.65010 0.79870 -0.02600
H 	H 	0.94120 0.65990 0.75450 0.13700
H 	H 	0.01680 0.86230 0.54280 0.14700
H 	H 	0.97000 0.81420 0.48660 -0.02100
H 	H 	0.64450 0.79010 0.52110 -0.02400
H 	H 	0.69390 0.83750 0.58010 0.13500
H 	H 	0.73040 0.05600 0.67630 0.15400
H 	H 	0.75100 0.14620 0.66690 -0.02900
H 	H 	0.09800 0.12490 0.65760 -0.02300
H 	H 	0.07760 0.03520 0.66890 0.14500
H 	H 	0.09790 0.84590 0.76600 0.13500
H 	H 	0.08630 0.79270 0.81390 -0.01700
H 	H 	0.73460 0.79350 0.80840 -0.01100
H 	H 	0.74550 0.84360 0.75830 0.13300
C 	C 	0.44310 0.74730 0.14870 -0.01100
C 	C 	0.50000 0.69270 0.13261 0.00600
C 	C 	0.53050 0.69260 0.09204 0.03000
C 	C 	0.41360 0.64610 0.13720 0.03100
C 	C 	0.61480 0.68450 0.15280 0.02800
C 	C 	0.47860 0.84350 0.15710 -0.01700
C 	C 	0.58090 0.88410 0.16470 0.01600
C 	C 	0.66830 0.87630 0.13250 0.02300
C 	C 	0.52880 0.94270 0.16890 0.01800
C 	C 	0.64690 0.87440 0.19950 0.01300
C 	C 	0.41980 0.69470 0.03590 0.31500
C 	C 	0.31230 0.70560 0.02120 -0.31600
C 	C 	0.29670 0.69940 0.98330 0.20600
C 	C 	0.38880 0.68390 0.95945 -0.26100
C 	C 	0.49800 0.67490 0.97489 0.20500
C 	C 	0.51380 0.68010 0.01250 -0.31500
C 	C 	0.37110 0.67860 0.91900 0.42400
C 	C 	0.39880 0.54880 0.12430 0.28300
C 	C 	0.28420 0.54850 0.13630 -0.28100
C 	C 	0.22310 0.49880 0.13420 0.15400
C 	C 	0.27680 0.44830 0.12150 -0.20200
C 	C 	0.39460 0.44890 0.11110 0.14800
C 	C 	0.45500 0.49820 0.11250 -0.26800
C 	C 	0.20970 0.39640 0.11800 0.36200
C 	C 	0.67330 0.67570 0.21502 0.29100
C 	C 	0.79150 0.68120 0.20732 -0.29200
C 	C 	0.87340 0.67690 0.23470 0.17500
C 	C 	0.83930 0.66520 0.26900 -0.22400
C 	C 	0.72110 0.65850 0.27578 0.17700
C 	C 	0.63820 0.66400 0.24936 -0.28800
C 	C 	0.92920 0.66270 0.29863 0.39200
C 	C 	0.64010 0.85370 0.06720 0.31500
C 	C 	0.55820 0.84740 0.03880 -0.30300
C 	C 	0.58710 0.81920 0.00500 0.19800
C 	C 	0.69800 0.79800 0.99740 -0.23900
C 	C 	0.78020 0.80440 0.02540 0.17200
C 	C 	0.75050 0.83310 0.06130 -0.29700
C 	C 	0.72730 0.76690 0.96040 0.45300
C 	C 	0.59920 0.03640 0.17170 0.31700
C 	C 	0.69520 0.07000 0.17220 -0.32000
C 	C 	0.68260 0.12390 0.16670 0.20200
C 	C 	0.57280 0.14620 0.16100 -0.23800
C 	C 	0.47670 0.11130 0.16150 0.19900
C 	C 	0.48850 0.05740 0.16760 -0.31700
C 	C 	0.55620 0.20480 0.15370 0.42400
C 	C 	0.57940 0.84910 0.25740 0.28400
C 	C 	0.47470 0.83470 0.27410 -0.27000
C 	C 	0.48230 0.80340 0.30290 0.16300
C 	C 	0.58910 0.78780 0.31558 -0.21400
C 	C 	0.69280 0.80320 0.29950 0.16100
C 	C 	0.68600 0.83380 0.26970 -0.27900
C 	C 	0.59530 0.75440 0.34772 0.41800
C 	C 	0.94310 0.25270 0.35130 -0.01500
C 	C 	-0.00000 0.30730 0.36739 0.00900
C 	C 	0.03050 0.30740 0.40796 0.02900
C 	C 	0.91360 0.35390 0.36280 0.02900
C 	C 	0.11480 0.31550 0.34720 0.02700
C 	C 	0.97860 0.15650 0.34290 -0.02000
C 	C 	0.08090 0.11590 0.33530 0.01600
C 	C 	0.16830 0.12370 0.36750 0.02300
C 	C 	0.02880 0.05730 0.33110 0.02400
C 	C 	0.14690 0.12560 0.30050 0.01300
C 	C 	0.91980 0.30530 0.46410 0.31400
C 	C 	0.81230 0.29440 0.47880 -0.31400
C 	C 	0.79670 0.30060 0.51670 0.20400
C 	C 	0.88880 0.31610 0.54055 -0.25900
C 	C 	0.99800 0.32510 0.52511 0.20200
C 	C 	0.01380 0.31990 0.48750 -0.31200
C 	C 	0.87110 0.32140 0.58100 0.42300
C 	C 	0.89880 0.45120 0.37570 0.28300
C 	C 	0.78420 0.45150 0.36370 -0.28100
C 	C 	0.72310 0.50120 0.36580 0.15500
C 	C 	0.77680 0.55170 0.37850 -0.20200
C 	C 	0.89460 0.55110 0.38890 0.14800
C 	C 	0.95500 0.50180 0.38750 -0.26900
C 	C 	0.70970 0.60360 0.38200 0.36200
C 	C 	0.17330 0.32430 0.28498 0.29100
C 	C 	0.29150 0.31880 0.29268 -0.29200
C 	C 	0.37340 0.32310 0.26530 0.17500
C 	C 	0.33930 0.33480 0.23100 -0.22400
C 	C 	0.22110 0.34150 0.22422 0.17700
C 	C 	0.13820 0.33600 0.25064 -0.28800
C 	C 	0.42920 0.33730 0.20137 0.39200
C 	C 	0.14010 0.14630 0.43280 0.31300
C 	C 	0.05820 0.15260 0.46120 -0.30000
C 	C 	0.08710 0.18080 0.49500 0.19600
C 	C 	0.19800 0.20200 0.50260 -0.23800
C 	C 	0.28020 0.19560 0.47460 0.17100
C 	C 	0.25050 0.16690 0.43870 -0.29600
C 	C 	0.22730 0.23310 0.53960 0.45300
C 	C 	0.09920 0.96360 0.32830 0.31600
C 	C 	0.19520 0.93000 0.32780 -0.32000
C 	C 	0.18260 0.87610 0.33330 0.20200
C 	C 	0.07280 0.85380 0.33900 -0.23800
C 	C 	0.97670 0.88870 0.33850 0.19900
C 	C 	0.98850 0.94260 0.33240 -0.31700
C 	C 	0.05620 0.79520 0.34630 0.42400
C 	C 	0.07940 0.15090 0.24260 0.28500
C 	C 	0.97470 0.16530 0.22590 -0.27200
C 	C 	0.98230 0.19660 0.19710 0.16200
C 	C 	0.08910 0.21220 0.18442 -0.21300
C 	C 	0.19280 0.19680 0.20050 0.16100
C 	C 	0.18600 0.16620 0.23030 -0.27900
C 	C 	0.09530 0.24560 0.15228 0.41800
C 	C 	0.55690 0.25270 0.85130 -0.01100
C 	C 	0.50000 0.30730 0.86739 0.00600
C 	C 	0.46950 0.30740 0.90796 0.03000
C 	C 	0.58640 0.35390 0.86280 0.03100
C 	C 	0.38520 0.31550 0.84720 0.02800
C 	C 	0.52140 0.15650 0.84290 -0.01700
C 	C 	0.41910 0.11590 0.83530 0.01600
C 	C 	0.33170 0.12370 0.86750 0.02300
C 	C 	0.47120 0.05730 0.83110 0.01800
C 	C 	0.35310 0.12560 0.80050 0.01300
C 	C 	0.58020 0.30530 0.96410 0.31500
C 	C 	0.68770 0.29440 0.97880 -0.31600
C 	C 	0.70330 0.30060 0.01670 0.20600
C 	C 	0.61120 0.31610 0.04055 -0.26100
C 	C 	0.50200 0.32510 0.02511 0.20500
C 	C 	0.48620 0.31990 0.98750 -0.31500
C 	C 	0.62890 0.32140 0.08100 0.42400
C 	C 	0.60120 0.45120 0.87570 0.28300
C 	C 	0.71580 0.45150 0.86370 -0.28100
C 	C 	0.77690 0.50120 0.86580 0.15400
C 	C 	0.72320 0.55170 0.87850 -0.20200
C 	C 	0.60540 0.55110 0.88890 0.14800
C 	C 	0.54500 0.50180 0.88750 -0.26800
C 	C 	0.79030 0.60360 0.88200 0.36200
C 	C 	0.32670 0.32430 0.78498 0.29100
C 	C 	0.20850 0.31880 0.79268 -0.29200
C 	C 	0.12660 0.32310 0.76530 0.17500
C 	C 	0.16070 0.33480 0.73100 -0.22400
C 	C 	0.27890 0.34150 0.72422 0.17700
C 	C 	0.36180 0.33600 0.75064 -0.28800
C 	C 	0.07080 0.33730 0.70137 0.39200
C 	C 	0.35990 0.14630 0.93280 0.31500
C 	C 	0.44180 0.15260 0.96120 -0.30300
C 	C 	0.41290 0.18080 0.99500 0.19800
C 	C 	0.30200 0.20200 0.00260 -0.23900
C 	C 	0.21980 0.19560 0.97460 0.17200
C 	C 	0.24950 0.16690 0.93870 -0.29700
C 	C 	0.27270 0.23310 0.03960 0.45300
C 	C 	0.40080 0.96360 0.82830 0.31700
C 	C 	0.30480 0.93000 0.82780 -0.32000
C 	C 	0.31740 0.87610 0.83330 0.20200
C 	C 	0.42720 0.85380 0.83900 -0.23800
C 	C 	0.52330 0.88870 0.83850 0.19900
C 	C 	0.51150 0.94260 0.83240 -0.31700
C 	C 	0.44380 0.79520 0.84630 0.42400
C 	C 	0.42060 0.15090 0.74260 0.28400
C 	C 	0.52530 0.16530 0.72590 -0.27000
C 	C 	0.51770 0.19660 0.69710 0.16300
C 	C 	0.41090 0.21220 0.68442 -0.21400
C 	C 	0.30720 0.19680 0.70050 0.16100
C 	C 	0.31400 0.16620 0.73030 -0.27900
C 	C 	0.40470 0.24560 0.65228 0.41800
C 	C 	0.05690 0.74730 0.64870 -0.01200
C 	C 	0.00000 0.69270 0.63261 0.00400
C 	C 	0.96950 0.69260 0.59204 0.03300
C 	C 	0.08640 0.64610 0.63720 0.03300
C 	C 	0.88520 0.68450 0.65280 0.03000
C 	C 	0.02140 0.84350 0.65710 -0.02000
C 	C 	0.91910 0.88410 0.66470 0.01600
C 	C 	0.83170 0.87630 0.63250 0.02300
C 	C 	0.97120 0.94270 0.66890 0.02500
C 	C 	0.85310 0.87440 0.69950 0.01300
C 	C 	0.08020 0.69470 0.53590 0.31300
C 	C 	0.18770 0.70560 0.52120 -0.31400
C 	C 	0.20330 0.69940 0.48330 0.20400
C 	C 	0.11120 0.68390 0.45945 -0.25900
C 	C 	0.00200 0.67490 0.47489 0.20100
C 	C 	0.98620 0.68010 0.51250 -0.31100
C 	C 	0.12890 0.67860 0.41900 0.42300
C 	C 	0.10120 0.54880 0.62430 0.28400
C 	C 	0.21580 0.54850 0.63630 -0.28200
C 	C 	0.27690 0.49880 0.63420 0.15500
C 	C 	0.22320 0.44830 0.62150 -0.20300
C 	C 	0.10540 0.44890 0.61110 0.14900
C 	C 	0.04500 0.49820 0.61250 -0.27000
C 	C 	0.29030 0.39640 0.61800 0.36200
C 	C 	0.82670 0.67570 0.71502 0.29200
C 	C 	0.70850 0.68120 0.70732 -0.29300
C 	C 	0.62660 0.67690 0.73470 0.17500
C 	C 	0.66070 0.66520 0.76900 -0.22400
C 	C 	0.77890 0.65850 0.77578 0.17800
C 	C 	0.86180 0.66400 0.74936 -0.28800
C 	C 	0.57080 0.66270 0.79863 0.39200
C 	C 	0.85990 0.85370 0.56720 0.31300
C 	C 	0.94180 0.84740 0.53880 -0.29900
C 	C 	0.91290 0.81920 0.50500 0.19500
C 	C 	0.80200 0.79800 0.49740 -0.23800
C 	C 	0.71980 0.80440 0.52540 0.17100
C 	C 	0.74950 0.83310 0.56130 -0.29600
C 	C 	0.77270 0.76690 0.46040 0.45300
C 	C 	0.90080 0.03640 0.67170 0.31700
C 	C 	0.80480 0.07000 0.67220 -0.32000
C 	C 	0.81740 0.12390 0.66670 0.20200
C 	C 	0.92720 0.14620 0.66100 -0.23800
C 	C 	0.02330 0.11130 0.66150 0.19900
C 	C 	0.01150 0.05740 0.66760 -0.31700
C 	C 	0.94380 0.20480 0.65370 0.42400
C 	C 	0.92060 0.84910 0.75740 0.28600
C 	C 	0.02530 0.83470 0.77410 -0.27200
C 	C 	0.01770 0.80340 0.80290 0.16200
C 	C 	0.91090 0.78780 0.81558 -0.21200
C 	C 	0.80720 0.80320 0.79950 0.16100
C 	C 	0.81400 0.83380 0.76970 -0.27900
C 	C 	0.90470 0.75440 0.84772 0.41800
O 	O 	0.52590 0.78990 0.14811 -0.16800
O 	O 	0.42370 0.70130 0.07356 -0.25700
O 	O 	0.46590 0.59468 0.12380 -0.25100
O 	O 	0.58420 0.68010 0.19004 -0.24800
O 	O 	0.60380 0.88180 0.09959 -0.25400
O 	O 	0.62260 0.98160 0.17570 -0.24800
O 	O 	0.56400 0.88040 0.22909 -0.24300
O 	O 	0.27030 0.67690 0.90570 -0.43600
O 	O 	0.45950 0.67610 0.89793 -0.54000
O 	O 	0.25240 0.35290 0.09876 -0.51100
O 	O 	0.10700 0.39700 0.13070 -0.37700
O 	O 	0.03580 0.66630 0.29013 -0.45100
O 	O 	0.89380 0.65540 0.33032 -0.47300
O 	O 	0.65340 0.76700 0.93573 -0.46000
O 	O 	0.82600 0.74390 0.95737 -0.48800
O 	O 	0.45410 0.21970 0.14705 -0.45000
O 	O 	0.64740 0.23470 0.15437 -0.45100
O 	O 	0.68890 0.75230 0.36422 -0.51400
O 	O 	0.50300 0.73250 0.35727 -0.45400
O 	O 	0.02590 0.21010 0.35189 -0.16600
O 	O 	0.92370 0.29870 0.42644 -0.25700
O 	O 	0.96590 0.40532 0.37620 -0.25100
O 	O 	0.08420 0.31990 0.30996 -0.24700
O 	O 	0.10380 0.11820 0.40041 -0.25300
O 	O 	0.12260 0.01840 0.32430 -0.24900
O 	O 	0.06400 0.11960 0.27091 -0.24300
O 	O 	0.77030 0.32310 0.59430 -0.43600
O 	O 	0.95950 0.32390 0.60207 -0.54000
O 	O 	0.75240 0.64710 0.40124 -0.51100
O 	O 	0.60700 0.60300 0.36930 -0.37700
O 	O 	0.53580 0.33370 0.20987 -0.45100
O 	O 	0.39380 0.34460 0.16968 -0.47300
O 	O 	0.15340 0.23300 0.56427 -0.46000
O 	O 	0.32600 0.25610 0.54263 -0.48800
O 	O 	0.95410 0.78030 0.35295 -0.45000
O 	O 	0.14740 0.76530 0.34563 -0.45100
O 	O 	0.18890 0.24770 0.13578 -0.51400
O 	O 	0.00300 0.26750 0.14273 -0.45400
O 	O 	0.47410 0.21010 0.85189 -0.16800
O 	O 	0.57630 0.29870 0.92644 -0.25700
O 	O 	0.53410 0.40532 0.87620 -0.25100
O 	O 	0.41580 0.31990 0.80996 -0.24800
O 	O 	0.39620 0.11820 0.90041 -0.25400
O 	O 	0.37740 0.01840 0.82430 -0.24800
O 	O 	0.43600 0.11960 0.77091 -0.24300
O 	O 	0.72970 0.32310 0.09430 -0.43600
O 	O 	0.54050 0.32390 0.10207 -0.54000
O 	O 	0.74760 0.64710 0.90124 -0.51100
O 	O 	0.89300 0.60300 0.86930 -0.37700
O 	O 	0.96420 0.33370 0.70987 -0.45100
O 	O 	0.10620 0.34460 0.66968 -0.47300
O 	O 	0.34660 0.23300 0.06427 -0.46000
O 	O 	0.17400 0.25610 0.04263 -0.48800
O 	O 	0.54590 0.78030 0.85295 -0.45000
O 	O 	0.35260 0.76530 0.84563 -0.45100
O 	O 	0.31110 0.24770 0.63578 -0.51400
O 	O 	0.49700 0.26750 0.64273 -0.45400
O 	O 	0.97410 0.78990 0.64811 -0.16600
O 	O 	0.07630 0.70130 0.57356 -0.25800
O 	O 	0.03410 0.59468 0.62380 -0.25200
O 	O 	0.91580 0.68010 0.69004 -0.24800
O 	O 	0.89620 0.88180 0.59959 -0.25300
O 	O 	0.87740 0.98160 0.67570 -0.24900
O 	O 	0.93600 0.88040 0.72909 -0.24300
O 	O 	0.22970 0.67690 0.40570 -0.43600
O 	O 	0.04050 0.67610 0.39793 -0.54000
O 	O 	0.24760 0.35290 0.59876 -0.51100
O 	O 	0.39300 0.39700 0.63070 -0.37700
O 	O 	0.46420 0.66630 0.79013 -0.45100
O 	O 	0.60620 0.65540 0.83032 -0.47300
O 	O 	0.84660 0.76700 0.43573 -0.46000
O 	O 	0.67400 0.74390 0.45737 -0.48800
O 	O 	0.04590 0.21970 0.64705 -0.45000
O 	O 	0.85260 0.23470 0.65437 -0.45100
O 	O 	0.81110 0.75230 0.86422 -0.51400
O 	O 	0.99700 0.73250 0.85727 -0.45400
