data_crystal

_cell_length_a 9.51820
_cell_length_b 24.24600
_cell_length_c 24.68500
_cell_angle_alpha 90.96000
_cell_angle_beta  90.00000
_cell_angle_gamma 90.00000

_symmetry_space_group_name_	'P 1'
_symmetry_space_group_name_H-M	'P 1'

loop_
_symmetry_equiv_pos_as_xyz
  x,y,z

loop_
_atom_site_label
_atom_site_type_symbol
_atom_site_fract_x
_atom_site_fract_y
_atom_site_fract_z
_atom_site_charge
Co	Co	0.95856 0.26579 0.68027 1.10200
Co	Co	0.32458 0.16074 0.51706 1.10500
Co	Co	0.26885 0.96960 0.36150 1.10300
Co	Co	0.73736 0.48596 0.72162 1.10200
Co	Co	0.46594 0.28475 0.31646 1.10700
Co	Co	0.45856 0.23421 0.81973 1.10200
Co	Co	0.82458 0.33926 0.98294 1.10300
Co	Co	0.76885 0.53040 0.13850 1.10300
Co	Co	0.23736 0.01404 0.77838 1.10200
Co	Co	0.96594 0.21525 0.18354 1.10700
Co	Co	0.04144 0.73421 0.31973 1.10100
Co	Co	0.67542 0.83926 0.48294 1.10400
Co	Co	0.73115 0.03040 0.63850 1.10300
Co	Co	0.26264 0.51404 0.27838 1.10200
Co	Co	0.53406 0.71525 0.68354 1.10700
Co	Co	0.54144 0.76579 0.18027 1.10200
Co	Co	0.17542 0.66074 0.01706 1.10300
Co	Co	0.23115 0.46960 0.86150 1.10300
Co	Co	0.76264 0.98596 0.22162 1.10200
Co	Co	0.03406 0.78475 0.81646 1.10700
H 	H 	0.92920 0.38710 0.71840 -0.06400
H 	H 	0.66990 0.27910 0.73330 -0.05500
H 	H 	0.92650 0.15950 0.76030 -0.00300
H 	H 	0.72030 0.14640 0.81740 -0.00100
H 	H 	0.21360 0.22090 0.61990 -0.05800
H 	H 	0.83150 0.20980 0.56810 0.00300
H 	H 	0.98710 0.17070 0.49940 -0.00700
H 	H 	0.35380 0.08660 0.41040 -0.05900
H 	H 	0.16180 0.05070 0.54170 -0.00400
H 	H 	0.14220 0.97200 0.48120 -0.00300
H 	H 	0.52610 0.07170 0.55120 -0.05300
H 	H 	0.48100 0.21150 0.62930 -0.00000
H 	H 	0.65850 0.15830 0.67580 0.00200
H 	H 	0.43790 0.50450 0.76940 -0.06300
H 	H 	0.70860 0.39940 0.81910 -0.00600
H 	H 	0.50230 0.39060 0.87490 0.00100
H 	H 	0.94210 0.45590 0.81440 -0.06100
H 	H 	0.30050 0.21510 0.40070 -0.06600
H 	H 	0.63900 0.60740 0.74200 -0.07000
H 	H 	0.67190 0.21180 0.24420 -0.06300
H 	H 	0.68600 0.31030 0.61730 0.00000
H 	H 	0.59820 0.40440 0.62820 0.00300
H 	H 	0.00800 0.56250 0.70120 0.00300
H 	H 	0.21560 0.55570 0.75830 0.00100
H 	H 	0.59290 0.23700 0.50650 0.00400
H 	H 	0.64790 0.28890 0.42620 0.00100
H 	H 	0.72970 0.54050 0.60530 -0.00100
H 	H 	0.65350 0.63650 0.59080 0.00300
H 	H 	0.89190 0.33760 0.21340 -0.00000
H 	H 	0.70120 0.36530 0.27390 0.00000
H 	H 	0.42920 0.11290 0.78160 -0.06400
H 	H 	0.16990 0.22090 0.76670 -0.05400
H 	H 	0.42650 0.34050 0.73970 -0.00200
H 	H 	0.22030 0.35360 0.68260 -0.00100
H 	H 	0.71360 0.27910 0.88010 -0.05800
H 	H 	0.33150 0.29020 0.93190 -0.00000
H 	H 	0.48710 0.32930 0.00060 -0.00100
H 	H 	0.85380 0.41340 0.08960 -0.05900
H 	H 	0.66180 0.44930 0.95830 -0.00400
H 	H 	0.64220 0.52800 0.01880 -0.00200
H 	H 	0.02610 0.42830 0.94880 -0.05300
H 	H 	0.98100 0.28850 0.87070 -0.00500
H 	H 	0.15850 0.34170 0.82420 0.00400
H 	H 	0.93790 0.99550 0.73060 -0.05900
H 	H 	0.20860 0.10060 0.68090 -0.00600
H 	H 	0.00230 0.10940 0.62510 0.00000
H 	H 	0.44210 0.04410 0.68560 -0.06000
H 	H 	0.80050 0.28490 0.09930 -0.06600
H 	H 	0.13900 0.89260 0.75800 -0.07000
H 	H 	0.17190 0.28820 0.25580 -0.06300
H 	H 	0.18600 0.18970 0.88270 0.00100
H 	H 	0.09820 0.09560 0.87180 0.00400
H 	H 	0.50800 0.93750 0.79880 0.00400
H 	H 	0.71560 0.94430 0.74170 0.00100
H 	H 	0.09290 0.26300 0.99350 0.00400
H 	H 	0.14790 0.21110 0.07380 0.00100
H 	H 	0.22970 0.95950 0.89470 -0.00000
H 	H 	0.15350 0.86350 0.90920 0.00300
H 	H 	0.39190 0.16240 0.28660 -0.00000
H 	H 	0.20120 0.13470 0.22610 0.00000
H 	H 	0.07080 0.61290 0.28160 -0.06400
H 	H 	0.33010 0.72090 0.26670 -0.05500
H 	H 	0.07350 0.84050 0.23970 -0.00300
H 	H 	0.27970 0.85360 0.18260 -0.00100
H 	H 	0.78640 0.77910 0.38010 -0.05800
H 	H 	0.16850 0.79020 0.43190 0.00300
H 	H 	0.01290 0.82930 0.50060 -0.00700
H 	H 	0.64620 0.91340 0.58960 -0.05900
H 	H 	0.83820 0.94930 0.45830 -0.00400
H 	H 	0.85780 0.02800 0.51880 -0.00300
H 	H 	0.47390 0.92830 0.44880 -0.05300
H 	H 	0.51900 0.78850 0.37070 -0.00000
H 	H 	0.34150 0.84170 0.32420 0.00200
H 	H 	0.56210 0.49550 0.23060 -0.06300
H 	H 	0.29140 0.60060 0.18090 -0.00600
H 	H 	0.49770 0.60940 0.12510 0.00100
H 	H 	0.05790 0.54410 0.18560 -0.06100
H 	H 	0.69950 0.78490 0.59930 -0.06600
H 	H 	0.36100 0.39260 0.25800 -0.07000
H 	H 	0.32810 0.78820 0.75580 -0.06300
H 	H 	0.31400 0.68970 0.38270 0.00000
H 	H 	0.40180 0.59560 0.37180 0.00300
H 	H 	0.99200 0.43750 0.29880 0.00300
H 	H 	0.78440 0.44430 0.24170 0.00100
H 	H 	0.40710 0.76300 0.49350 0.00400
H 	H 	0.35210 0.71110 0.57380 0.00100
H 	H 	0.27030 0.45950 0.39470 -0.00100
H 	H 	0.34650 0.36350 0.40920 0.00300
H 	H 	0.10810 0.66240 0.78660 -0.00000
H 	H 	0.29880 0.63470 0.72610 0.00000
H 	H 	0.57080 0.88710 0.21840 -0.06400
H 	H 	0.83010 0.77910 0.23330 -0.05400
H 	H 	0.57350 0.65950 0.26030 -0.00200
H 	H 	0.77970 0.64640 0.31740 -0.00100
H 	H 	0.28640 0.72090 0.11990 -0.05800
H 	H 	0.66850 0.70980 0.06810 -0.00000
H 	H 	0.51290 0.67070 0.99940 -0.00100
H 	H 	0.14620 0.58660 0.91040 -0.05900
H 	H 	0.33820 0.55070 0.04170 -0.00400
H 	H 	0.35780 0.47200 0.98120 -0.00200
H 	H 	0.97390 0.57170 0.05120 -0.05300
H 	H 	0.01900 0.71150 0.12930 -0.00500
H 	H 	0.84150 0.65830 0.17580 0.00400
H 	H 	0.06210 0.00450 0.26940 -0.05900
H 	H 	0.79140 0.89940 0.31910 -0.00600
H 	H 	0.99770 0.89060 0.37490 0.00000
H 	H 	0.55790 0.95590 0.31440 -0.06000
H 	H 	0.19950 0.71510 0.90070 -0.06600
H 	H 	0.86100 0.10740 0.24200 -0.07000
H 	H 	0.82810 0.71180 0.74420 -0.06300
H 	H 	0.81400 0.81030 0.11730 0.00100
H 	H 	0.90180 0.90440 0.12820 0.00400
H 	H 	0.49200 0.06250 0.20120 0.00400
H 	H 	0.28440 0.05570 0.25830 0.00100
H 	H 	0.90710 0.73700 0.00650 0.00400
H 	H 	0.85210 0.78890 0.92620 0.00100
H 	H 	0.77030 0.04050 0.10530 -0.00000
H 	H 	0.84650 0.13650 0.09080 0.00300
H 	H 	0.60810 0.83760 0.71340 -0.00000
H 	H 	0.79880 0.86530 0.77390 0.00000
C 	C 	0.86540 0.38150 0.69030 0.09700
C 	C 	0.70930 0.24730 0.74750 0.09100
C 	C 	0.84900 0.18280 0.76170 -0.00500
C 	C 	0.73420 0.17520 0.79360 -0.01500
C 	C 	0.13670 0.21350 0.59770 0.09300
C 	C 	0.92890 0.20790 0.57060 -0.01400
C 	C 	0.01560 0.18600 0.53250 -0.00100
C 	C 	0.30250 0.06770 0.43620 0.10200
C 	C 	0.19960 0.04860 0.50700 -0.00600
C 	C 	0.18780 0.00490 0.47350 -0.00900
C 	C 	0.53710 0.10030 0.57640 0.07900
C 	C 	0.51160 0.17650 0.61880 -0.00800
C 	C 	0.61070 0.14710 0.64460 -0.01800
C 	C 	0.48130 0.47700 0.78920 0.10100
C 	C 	0.62730 0.42030 0.81580 -0.00800
C 	C 	0.51340 0.41530 0.84690 -0.01900
C 	C 	0.98280 0.48470 0.79570 0.10200
C 	C 	0.38910 0.22250 0.41500 0.11300
C 	C 	0.63140 0.60010 0.70500 0.11600
C 	C 	0.71220 0.24640 0.24950 0.11700
C 	C 	0.73060 0.33880 0.63630 -0.01200
C 	C 	0.68070 0.39060 0.64290 -0.02000
C 	C 	0.01700 0.54170 0.73230 -0.02300
C 	C 	0.13120 0.53760 0.76450 -0.00500
C 	C 	0.54300 0.23590 0.47410 -0.02000
C 	C 	0.57430 0.26390 0.42900 -0.01400
C 	C 	0.68880 0.56380 0.63120 -0.01700
C 	C 	0.64680 0.61740 0.62310 -0.02100
C 	C 	0.83040 0.31380 0.23070 -0.01800
C 	C 	0.72150 0.32910 0.26350 -0.01300
C 	C 	0.36540 0.11850 0.80970 0.09700
C 	C 	0.20930 0.25270 0.75250 0.09100
C 	C 	0.34900 0.31720 0.73830 -0.00400
C 	C 	0.23420 0.32480 0.70640 -0.01500
C 	C 	0.63670 0.28650 0.90230 0.09300
C 	C 	0.42890 0.29210 0.92940 -0.00300
C 	C 	0.51560 0.31400 0.96750 -0.01300
C 	C 	0.80250 0.43230 0.06380 0.10200
C 	C 	0.69960 0.45140 0.99300 -0.00700
C 	C 	0.68780 0.49510 0.02650 -0.01000
C 	C 	0.03710 0.39970 0.92360 0.08100
C 	C 	0.01160 0.32350 0.88120 0.00100
C 	C 	0.11070 0.35290 0.85540 -0.02200
C 	C 	0.98130 0.02300 0.71080 0.09500
C 	C 	0.12730 0.07970 0.68420 -0.00800
C 	C 	0.01340 0.08470 0.65310 -0.01600
C 	C 	0.48280 0.01530 0.70430 0.10100
C 	C 	0.88910 0.27750 0.08500 0.11300
C 	C 	0.13140 0.89990 0.79500 0.11600
C 	C 	0.21220 0.25360 0.25050 0.11700
C 	C 	0.23060 0.16120 0.86370 -0.01200
C 	C 	0.18070 0.10940 0.85710 -0.02000
C 	C 	0.51700 0.95830 0.76770 -0.02400
C 	C 	0.63120 0.96240 0.73550 -0.00400
C 	C 	0.04300 0.26410 0.02590 -0.01800
C 	C 	0.07430 0.23610 0.07100 -0.01400
C 	C 	0.18880 0.93620 0.86880 -0.01700
C 	C 	0.14680 0.88260 0.87690 -0.02100
C 	C 	0.33040 0.18620 0.26930 -0.01800
C 	C 	0.22150 0.17090 0.23650 -0.01300
C 	C 	0.13460 0.61850 0.30970 0.09700
C 	C 	0.29070 0.75270 0.25250 0.09100
C 	C 	0.15100 0.81720 0.23830 -0.00500
C 	C 	0.26580 0.82480 0.20640 -0.01500
C 	C 	0.86330 0.78650 0.40230 0.09300
C 	C 	0.07110 0.79210 0.42940 -0.01400
C 	C 	0.98440 0.81400 0.46750 -0.00100
C 	C 	0.69750 0.93230 0.56380 0.10200
C 	C 	0.80040 0.95140 0.49300 -0.00600
C 	C 	0.81220 0.99510 0.52650 -0.00900
C 	C 	0.46290 0.89970 0.42360 0.07900
C 	C 	0.48840 0.82350 0.38120 -0.00800
C 	C 	0.38930 0.85290 0.35540 -0.01800
C 	C 	0.51870 0.52300 0.21080 0.10100
C 	C 	0.37270 0.57970 0.18420 -0.00800
C 	C 	0.48660 0.58470 0.15310 -0.01900
C 	C 	0.01720 0.51530 0.20430 0.10200
C 	C 	0.61090 0.77750 0.58500 0.11300
C 	C 	0.36860 0.39990 0.29500 0.11600
C 	C 	0.28780 0.75360 0.75050 0.11700
C 	C 	0.26940 0.66120 0.36370 -0.01200
C 	C 	0.31930 0.60940 0.35710 -0.02000
C 	C 	0.98300 0.45830 0.26770 -0.02300
C 	C 	0.86880 0.46240 0.23550 -0.00500
C 	C 	0.45700 0.76410 0.52590 -0.02000
C 	C 	0.42570 0.73610 0.57100 -0.01400
C 	C 	0.31120 0.43620 0.36880 -0.01700
C 	C 	0.35320 0.38260 0.37690 -0.02100
C 	C 	0.16960 0.68620 0.76930 -0.01800
C 	C 	0.27850 0.67090 0.73650 -0.01300
C 	C 	0.63460 0.88150 0.19030 0.09700
C 	C 	0.79070 0.74730 0.24750 0.09100
C 	C 	0.65100 0.68280 0.26170 -0.00400
C 	C 	0.76580 0.67520 0.29360 -0.01500
C 	C 	0.36330 0.71350 0.09770 0.09300
C 	C 	0.57110 0.70790 0.07060 -0.00300
C 	C 	0.48440 0.68600 0.03250 -0.01300
C 	C 	0.19750 0.56770 0.93620 0.10200
C 	C 	0.30040 0.54860 0.00700 -0.00700
C 	C 	0.31220 0.50490 0.97350 -0.01000
C 	C 	0.96290 0.60030 0.07640 0.08100
C 	C 	0.98840 0.67650 0.11880 0.00100
C 	C 	0.88930 0.64710 0.14460 -0.02200
C 	C 	0.01870 0.97700 0.28920 0.09500
C 	C 	0.87270 0.92030 0.31580 -0.00800
C 	C 	0.98660 0.91530 0.34690 -0.01600
C 	C 	0.51720 0.98470 0.29570 0.10100
C 	C 	0.11090 0.72250 0.91500 0.11300
C 	C 	0.86860 0.10010 0.20500 0.11600
C 	C 	0.78780 0.74640 0.74950 0.11700
C 	C 	0.76940 0.83880 0.13630 -0.01200
C 	C 	0.81930 0.89060 0.14290 -0.02000
C 	C 	0.48300 0.04170 0.23230 -0.02400
C 	C 	0.36880 0.03760 0.26450 -0.00400
C 	C 	0.95700 0.73590 0.97410 -0.01800
C 	C 	0.92570 0.76390 0.92900 -0.01400
C 	C 	0.81120 0.06380 0.13120 -0.01700
C 	C 	0.85320 0.11740 0.12310 -0.02100
C 	C 	0.66960 0.81380 0.73070 -0.01800
C 	C 	0.77850 0.82910 0.76350 -0.01300
N 	N 	0.85950 0.33490 0.66253 -0.27900
N 	N 	0.77540 0.42006 0.67600 -0.27900
N 	N 	0.83450 0.22913 0.73249 -0.28300
N 	N 	0.64340 0.21730 0.78434 -0.27400
N 	N 	0.00640 0.22629 0.61247 -0.28000
N 	N 	0.15030 0.18978 0.54980 -0.28500
N 	N 	0.27370 0.08899 0.48380 -0.28400
N 	N 	0.25330 0.01690 0.42693 -0.28300
N 	N 	0.62920 0.09801 0.61733 -0.27200
N 	N 	0.41710 0.45230 0.83037 -0.28300
N 	N 	0.60770 0.46032 0.77863 -0.28400
N 	N 	0.91660 0.50860 0.75560 -0.28000
N 	N 	0.10820 0.50315 0.80806 -0.28700
N 	N 	0.42390 0.20525 0.46361 -0.28700
N 	N 	0.48180 0.25040 0.38710 -0.28700
N 	N 	0.59280 0.63812 0.67170 -0.28500
N 	N 	0.65960 0.55060 0.68426 -0.28400
N 	N 	0.46220 0.14691 0.57442 -0.27700
N 	N 	0.64640 0.28430 0.27910 -0.29000
N 	N 	0.83370 0.25760 0.22770 -0.29100
N 	N 	0.35950 0.16510 0.83747 -0.27800
N 	N 	0.27540 0.07994 0.82400 -0.27900
N 	N 	0.33450 0.27087 0.76751 -0.28200
N 	N 	0.14340 0.28270 0.71566 -0.27300
N 	N 	0.50640 0.27371 0.88753 -0.28400
N 	N 	0.65030 0.31022 0.95020 -0.28300
N 	N 	0.77370 0.41101 0.01620 -0.28300
N 	N 	0.75330 0.48310 0.07307 -0.28400
N 	N 	0.12920 0.40199 0.88267 -0.27200
N 	N 	0.91710 0.04770 0.66963 -0.28300
N 	N 	0.10770 0.03968 0.72137 -0.28200
N 	N 	0.41660 0.99140 0.74440 -0.27900
N 	N 	0.60820 0.99685 0.69194 -0.28700
N 	N 	0.92390 0.29475 0.03639 -0.28700
N 	N 	0.98180 0.24960 0.11290 -0.28800
N 	N 	0.09280 0.86188 0.82830 -0.28500
N 	N 	0.15960 0.94940 0.81574 -0.28400
N 	N 	0.96220 0.35309 0.92558 -0.28000
N 	N 	0.14640 0.21570 0.22090 -0.28900
N 	N 	0.33370 0.24240 0.27230 -0.29100
N 	N 	0.14050 0.66510 0.33747 -0.27900
N 	N 	0.22460 0.57994 0.32400 -0.27900
N 	N 	0.16550 0.77087 0.26751 -0.28300
N 	N 	0.35660 0.78270 0.21566 -0.27400
N 	N 	0.99360 0.77371 0.38753 -0.28000
N 	N 	0.84970 0.81022 0.45020 -0.28500
N 	N 	0.72630 0.91101 0.51620 -0.28400
N 	N 	0.74670 0.98310 0.57307 -0.28300
N 	N 	0.37080 0.90199 0.38267 -0.27200
N 	N 	0.58290 0.54770 0.16963 -0.28300
N 	N 	0.39230 0.53968 0.22137 -0.28400
N 	N 	0.08340 0.49140 0.24440 -0.28000
N 	N 	0.89180 0.49685 0.19194 -0.28700
N 	N 	0.57610 0.79475 0.53639 -0.28700
N 	N 	0.51820 0.74960 0.61290 -0.28700
N 	N 	0.40720 0.36188 0.32830 -0.28500
N 	N 	0.34040 0.44940 0.31574 -0.28400
N 	N 	0.53780 0.85309 0.42558 -0.27700
N 	N 	0.35360 0.71570 0.72090 -0.29000
N 	N 	0.16630 0.74240 0.77230 -0.29100
N 	N 	0.64050 0.83490 0.16253 -0.27800
N 	N 	0.72460 0.92006 0.17600 -0.27900
N 	N 	0.66550 0.72913 0.23249 -0.28200
N 	N 	0.85660 0.71730 0.28434 -0.27300
N 	N 	0.49360 0.72629 0.11247 -0.28400
N 	N 	0.34970 0.68978 0.04980 -0.28300
N 	N 	0.22630 0.58899 0.98380 -0.28300
N 	N 	0.24670 0.51690 0.92693 -0.28400
N 	N 	0.87080 0.59801 0.11733 -0.27200
N 	N 	0.08290 0.95230 0.33037 -0.28300
N 	N 	0.89230 0.96032 0.27863 -0.28200
N 	N 	0.58340 0.00860 0.25560 -0.27900
N 	N 	0.39180 0.00315 0.30806 -0.28700
N 	N 	0.07610 0.70525 0.96361 -0.28700
N 	N 	0.01820 0.75040 0.88710 -0.28800
N 	N 	0.90720 0.13812 0.17170 -0.28500
N 	N 	0.84040 0.05060 0.18426 -0.28400
N 	N 	0.03780 0.64691 0.07442 -0.28000
N 	N 	0.85360 0.78430 0.77910 -0.28900
N 	N 	0.66630 0.75760 0.72770 -0.29100
