data_crystal

_cell_length_a 8.62200
_cell_length_b 14.06600
_cell_length_c 15.08180
_cell_angle_alpha 115.21400
_cell_angle_beta  106.60900
_cell_angle_gamma 90.00000

_symmetry_space_group_name_	'P 1'
_symmetry_space_group_name_H-M	'P 1'

loop_
_symmetry_equiv_pos_as_xyz
  x,y,z

loop_
_atom_site_label
_atom_site_type_symbol
_atom_site_fract_x
_atom_site_fract_y
_atom_site_fract_z
_atom_site_charge
Gd	Gd	0.50555 0.00553 0.54536 1.66800
Gd	Gd	0.96019 0.99447 0.45464 1.61200
H 	H 	0.44490 0.80180 0.66460 -0.00900
H 	H 	0.45340 0.64690 0.68880 0.07200
H 	H 	0.97820 0.55820 0.53320 0.04100
H 	H 	0.96110 0.71850 0.52200 -0.02800
H 	H 	0.42560 0.53170 0.74600 0.07000
H 	H 	0.45860 0.36450 0.73760 0.02000
H 	H 	0.06510 0.23260 0.48460 -0.00800
H 	H 	0.04020 0.39640 0.48300 0.08800
H 	H 	0.39770 0.71930 0.22680 -0.04200
H 	H 	0.33000 0.56530 0.07320 0.11700
H 	H 	0.85890 0.57650 0.05320 0.15600
H 	H 	0.93730 0.72070 0.21320 -0.10600
H 	H 	0.78030 0.19820 0.33540 -0.01300
H 	H 	0.76460 0.35310 0.31120 0.07100
H 	H 	0.44500 0.44180 0.46680 0.08300
H 	H 	0.43910 0.28150 0.47800 0.01100
H 	H 	0.67960 0.46830 0.25400 0.06500
H 	H 	0.72100 0.63550 0.26240 0.02000
H 	H 	0.58050 0.76740 0.51540 -0.01800
H 	H 	0.55720 0.60360 0.51700 0.07300
H 	H 	0.17090 0.28070 0.77320 -0.02500
H 	H 	0.25680 0.43470 0.92680 0.09500
H 	H 	0.80570 0.42350 0.94680 0.09800
H 	H 	0.72410 0.27930 0.78680 -0.01400
C 	C 	0.20000 0.87140 0.57360 0.48900
C 	C 	0.20340 0.77370 0.59120 -0.19900
C 	C 	0.35040 0.75420 0.63980 0.09200
C 	C 	0.35590 0.65920 0.65180 -0.13800
C 	C 	0.21680 0.58420 0.60900 0.04700
C 	C 	0.07150 0.60720 0.56100 -0.09500
C 	C 	0.06140 0.70290 0.55280 0.13300
C 	C 	0.22870 0.48010 0.61340 0.05700
C 	C 	0.35620 0.47190 0.69240 -0.12600
C 	C 	0.37470 0.37180 0.68740 0.05600
C 	C 	0.26860 0.28240 0.60860 -0.14200
C 	C 	0.14030 0.29190 0.53460 0.08300
C 	C 	0.12250 0.39040 0.53500 -0.13800
C 	C 	0.31100 0.17420 0.59900 0.39500
C 	C 	0.22260 0.83350 0.33260 0.55000
C 	C 	0.17890 0.73450 0.23580 -0.36400
C 	C 	0.28880 0.68890 0.19360 0.25500
C 	C 	0.24830 0.59580 0.10060 -0.26600
C 	C 	0.08310 0.54800 0.04820 0.19500
C 	C 	0.96950 0.60060 0.08900 -0.40200
C 	C 	0.01690 0.68990 0.18380 0.37100
C 	C 	0.62640 0.12860 0.42640 0.48400
C 	C 	0.61220 0.22630 0.40880 -0.19000
C 	C 	0.71060 0.24580 0.36020 0.08800
C 	C 	0.70410 0.34080 0.34820 -0.14800
C 	C 	0.60780 0.41580 0.39100 0.06400
C 	C 	0.51050 0.39280 0.43900 -0.14500
C 	C 	0.50860 0.29710 0.44720 0.08700
C 	C 	0.61530 0.51990 0.38660 0.04100
C 	C 	0.66380 0.52810 0.30760 -0.12000
C 	C 	0.68730 0.62820 0.31260 0.04900
C 	C 	0.66000 0.71760 0.39140 -0.14400
C 	C 	0.60570 0.70810 0.46540 0.07600
C 	C 	0.58750 0.60960 0.46500 -0.13300
C 	C 	0.71200 0.82580 0.40100 0.39300
C 	C 	0.89000 0.16650 0.66740 0.52500
C 	C 	0.94310 0.26550 0.76420 -0.31300
C 	C 	0.09520 0.31110 0.80640 0.22200
C 	C 	0.14770 0.40420 0.89940 -0.19500
C 	C 	0.03490 0.45200 0.95180 0.09200
C 	C 	0.88050 0.39940 0.91100 -0.22600
C 	C 	0.83310 0.31010 0.81620 0.16800
O 	O 	0.32650 0.91670 0.58340 -0.51000
O 	O 	0.05850 0.90150 0.55120 -0.41600
O 	O 	0.22550 0.09240 0.51880 -0.48000
O 	O 	0.43240 0.16770 0.66180 -0.41400
O 	O 	0.36660 0.87350 0.37840 -0.48200
O 	O 	0.10660 0.87500 0.36360 -0.47600
O 	O 	0.74310 0.08330 0.41660 -0.51200
O 	O 	0.50730 0.09850 0.44880 -0.44300
O 	O 	0.70670 0.90760 0.48120 -0.49100
O 	O 	0.77060 0.83230 0.33820 -0.41400
O 	O 	0.98820 0.12650 0.62160 -0.49100
O 	O 	0.74300 0.12500 0.63640 -0.49600
