data_crystal

_cell_length_a 10.52690
_cell_length_b 10.52690
_cell_length_c 10.75210
_cell_angle_alpha 101.58000
_cell_angle_beta  117.55500
_cell_angle_gamma 108.81300

_symmetry_space_group_name_	'P 1'
_symmetry_space_group_name_H-M	'P 1'

loop_
_symmetry_equiv_pos_as_xyz
  x,y,z

loop_
_atom_site_label
_atom_site_type_symbol
_atom_site_fract_x
_atom_site_fract_y
_atom_site_fract_z
_atom_site_charge
Gd	Gd	0.95141 0.39144 0.05111 1.35700
Gd	Gd	0.26045 0.82475 0.78412 1.70300
Gd	Gd	0.15967 0.09970 0.55111 1.67500
Gd	Gd	0.45937 0.52367 0.28412 1.63600
H 	H 	0.90300 0.71400 0.92500 -0.60500
H 	H 	0.32000 0.91900 0.39300 0.13600
H 	H 	0.48600 0.86800 0.47800 0.05200
H 	H 	0.94900 0.24000 0.77700 0.18800
H 	H 	0.67200 0.85600 0.86800 1.28200
H 	H 	0.80700 0.92000 0.98900 0.73700
H 	H 	0.35000 0.05400 0.03000 0.29500
H 	H 	0.32400 0.98400 0.04000 0.50700
H 	H 	0.71100 0.02200 0.42500 -0.57800
H 	H 	0.97400 0.07300 0.89300 0.07700
H 	H 	0.11000 0.99200 0.97800 0.05200
H 	H 	0.03700 0.82800 0.27700 0.20700
H 	H 	0.51200 0.19600 0.36800 1.24000
H 	H 	0.56900 0.18200 0.48900 0.70700
H 	H 	0.47600 0.68000 0.53000 0.30600
H 	H 	0.55600 0.71600 0.54000 0.51900
C 	C 	0.72910 0.53140 0.83490 0.04000
C 	C 	0.87750 0.66660 0.87970 0.80300
C 	C 	0.02240 0.64450 0.90570 0.20200
C 	C 	0.20800 0.68680 0.28660 0.44600
C 	C 	0.34220 0.84020 0.41800 -0.43300
C 	C 	0.31110 0.84220 0.54050 0.44400
C 	C 	0.60510 0.80170 0.99540 1.31900
C 	C 	0.69330 0.90030 0.94340 -2.74600
C 	C 	0.66690 0.03230 0.92960 1.26700
C 	C 	0.80350 0.10580 0.33490 0.06200
C 	C 	0.71310 0.00220 0.37970 0.77100
C 	C 	0.76120 0.88330 0.40570 0.18100
C 	C 	0.09980 0.07860 0.78660 0.43100
C 	C 	0.07780 0.07580 0.91800 -0.28100
C 	C 	0.19830 0.22940 0.04050 0.35300
C 	C 	0.69370 0.39030 0.49540 1.21200
C 	C 	0.54310 0.25010 0.44340 -2.65200
C 	C 	0.39730 0.26270 0.42960 1.24200
O 	O 	0.74360 0.43510 0.89110 -0.28700
O 	O 	0.59290 0.51840 0.73690 -0.16500
O 	O 	0.05180 0.55180 0.95180 -0.28000
O 	O 	0.10900 0.72870 0.87110 -0.40600
O 	O 	0.25070 0.59030 0.25460 -0.51600
O 	O 	0.06420 0.65610 0.22210 -0.42000
O 	O 	0.25010 0.91600 0.57330 -0.53000
O 	O 	0.34140 0.75460 0.60440 -0.43900
O 	O 	0.86980 0.25870 0.78190 -0.33400
O 	O 	0.46040 0.76060 0.93780 -0.67600
O 	O 	0.68450 0.76030 0.08960 -0.59600
O 	O 	0.52530 0.01820 0.87630 -0.60400
O 	O 	0.78170 0.14370 0.96200 -0.68700
O 	O 	0.39280 0.00910 0.04950 -1.07100
O 	O 	0.95600 0.14750 0.39110 -0.36900
O 	O 	0.71850 0.14400 0.23690 -0.19500
O 	O 	0.90000 0.90000 0.45180 -0.38200
O 	O 	0.64240 0.76210 0.37110 -0.42900
O 	O 	0.16430 0.00390 0.75460 -0.51700
O 	O 	0.06600 0.15790 0.72210 -0.40900
O 	O 	0.15730 0.32320 0.07330 -0.47500
O 	O 	0.34980 0.26300 0.10440 -0.43300
O 	O 	0.02320 0.91210 0.28190 -0.34700
O 	O 	0.67720 0.47740 0.43780 -0.67100
O 	O 	0.82930 0.40510 0.58960 -0.52900
O 	O 	0.35810 0.35100 0.37630 -0.60300
O 	O 	0.31830 0.18030 0.46200 -0.72700
O 	O 	0.54040 0.65670 0.54950 -1.05700
