data_crystal

_cell_length_a 10.51250
_cell_length_b 10.51250
_cell_length_c 10.86520
_cell_angle_alpha 78.88770
_cell_angle_beta  62.45430
_cell_angle_gamma 108.83400

_symmetry_space_group_name_	'P 1'
_symmetry_space_group_name_H-M	'P 1'

loop_
_symmetry_equiv_pos_as_xyz
  x,y,z

loop_
_atom_site_label
_atom_site_type_symbol
_atom_site_fract_x
_atom_site_fract_y
_atom_site_fract_z
_atom_site_charge
Gd	Gd	0.05203 0.36555 0.87957 1.49600
Gd	Gd	0.74512 0.93160 0.62043 1.52300
Gd	Gd	0.94797 0.63445 0.12043 1.49600
Gd	Gd	0.25488 0.06840 0.37957 1.52300
H 	H 	0.46000 0.38490 0.81810 0.24300
H 	H 	0.60410 0.48880 0.64950 0.24100
H 	H 	0.88700 0.55200 0.71900 0.32500
H 	H 	0.70300 0.27810 0.68190 0.24400
H 	H 	0.63830 0.25360 0.85050 0.24100
H 	H 	0.77100 0.60600 0.78100 0.32400
H 	H 	0.54000 0.61510 0.18190 0.24300
H 	H 	0.39590 0.51120 0.35050 0.24100
H 	H 	0.11300 0.44800 0.28100 0.32500
H 	H 	0.29700 0.72190 0.31810 0.24400
H 	H 	0.36170 0.74640 0.14950 0.24100
H 	H 	0.22900 0.39400 0.21900 0.32400
C 	C 	0.45300 0.57240 0.74340 0.63200
C 	C 	0.48760 0.44760 0.72200 -0.75300
C 	C 	0.40220 0.35110 0.66850 0.56800
C 	C 	0.90170 0.62490 0.87520 0.62200
C 	C 	0.81580 0.19640 0.75660 0.63100
C 	C 	0.66960 0.20960 0.77800 -0.75300
C 	C 	0.51960 0.07070 0.83150 0.57100
C 	C 	0.00010 0.77690 0.62480 0.61900
C 	C 	0.54700 0.42760 0.25660 0.63200
C 	C 	0.51240 0.55240 0.27800 -0.75300
C 	C 	0.59780 0.64890 0.33150 0.56800
C 	C 	0.09830 0.37510 0.12480 0.62200
C 	C 	0.18420 0.80360 0.24340 0.63100
C 	C 	0.33040 0.79040 0.22200 -0.75300
C 	C 	0.48040 0.92930 0.16850 0.57100
C 	C 	0.99990 0.22310 0.37520 0.61900
C 	C 	0.87560 0.62560 0.75000 -0.95900
C 	C 	0.12440 0.37440 0.25000 -0.95900
O 	O 	0.31290 0.55820 0.79290 -0.48500
O 	O 	0.56870 0.68600 0.71530 -0.55200
O 	O 	0.25280 0.30980 0.72540 -0.48400
O 	O 	0.48260 0.31250 0.57250 -0.36100
O 	O 	0.96200 0.54910 0.90790 -0.55900
O 	O 	0.86910 0.70710 0.94160 -0.46200
O 	O 	0.85110 0.10580 0.70710 -0.48000
O 	O 	0.90130 0.28400 0.78470 -0.54200
O 	O 	0.53520 0.97820 0.77460 -0.48500
O 	O 	0.38500 0.05510 0.92750 -0.36400
O 	O 	0.95700 0.86990 0.59210 -0.57000
O 	O 	0.14870 0.81070 0.55840 -0.47100
O 	O 	0.68710 0.44180 0.20710 -0.48500
O 	O 	0.43130 0.31400 0.28470 -0.55200
O 	O 	0.74720 0.69020 0.27460 -0.48400
O 	O 	0.51740 0.68750 0.42750 -0.36100
O 	O 	0.03800 0.45090 0.09210 -0.55900
O 	O 	0.13090 0.29290 0.05840 -0.46200
O 	O 	0.14890 0.89420 0.29290 -0.48000
O 	O 	0.09870 0.71600 0.21530 -0.54200
O 	O 	0.46480 0.02180 0.22540 -0.48500
O 	O 	0.61500 0.94490 0.07250 -0.36400
O 	O 	0.04300 0.13010 0.40790 -0.57000
O 	O 	0.85130 0.18930 0.44160 -0.47100
