data_crystal

_cell_length_a 18.19900
_cell_length_b 20.12500
_cell_length_c 37.45370
_cell_angle_alpha 74.41510
_cell_angle_beta  75.93900
_cell_angle_gamma 90.00000

_symmetry_space_group_name_	'P 1'
_symmetry_space_group_name_H-M	'P 1'

loop_
_symmetry_equiv_pos_as_xyz
  x,y,z

loop_
_atom_site_label
_atom_site_type_symbol
_atom_site_fract_x
_atom_site_fract_y
_atom_site_fract_z
_atom_site_charge
Zn	Zn	0.09017 0.89267 0.76358 1.23300
Zn	Zn	0.10262 0.03771 0.68874 1.15900
Zn	Zn	0.64625 0.34375 0.76358 1.23300
Zn	Zn	0.70864 0.27355 0.68874 1.15900
Zn	Zn	0.85375 0.60733 0.23642 1.23300
Zn	Zn	0.79136 0.46229 0.31126 1.15900
Zn	Zn	0.40983 0.15625 0.23642 1.23400
Zn	Zn	0.39738 0.22645 0.31126 1.16000
Zn	Zn	0.90983 0.10733 0.23642 1.23400
Zn	Zn	0.89738 0.96229 0.31126 1.16000
Zn	Zn	0.35375 0.65625 0.23642 1.23400
Zn	Zn	0.29136 0.72645 0.31126 1.16000
Zn	Zn	0.14625 0.39267 0.76358 1.23400
Zn	Zn	0.20864 0.53771 0.68874 1.16000
Zn	Zn	0.59017 0.84375 0.76358 1.23400
Zn	Zn	0.60262 0.77355 0.68874 1.16000
H 	H 	0.10700 0.16220 0.75900 0.05800
H 	H 	0.05060 0.00070 0.85280 0.10300
H 	H 	0.08200 0.19180 0.86240 0.11200
H 	H 	0.08610 0.90990 0.99800 0.07200
H 	H 	0.34260 0.89860 0.74240 0.06600
H 	H 	0.31360 0.97870 0.63680 0.07700
H 	H 	0.51440 0.90790 0.65020 0.04600
H 	H 	0.39770 0.92680 0.50000 0.05700
H 	H 	0.63400 0.07880 0.75900 0.05800
H 	H 	0.59660 0.14650 0.85280 0.10400
H 	H 	0.55560 0.94580 0.86240 0.11300
H 	H 	0.41590 0.09210 0.99800 0.07300
H 	H 	0.41500 0.35900 0.74240 0.06600
H 	H 	0.54960 0.38450 0.63680 0.07700
H 	H 	0.33540 0.44190 0.65020 0.04600
H 	H 	0.60230 0.57320 0.50000 0.05700
H 	H 	0.86600 0.33780 0.24100 0.05800
H 	H 	0.90340 0.49930 0.14720 0.10400
H 	H 	0.94440 0.30820 0.13760 0.11300
H 	H 	0.08410 0.59010 0.00200 0.07300
H 	H 	0.08500 0.60140 0.25760 0.06600
H 	H 	0.95040 0.52130 0.36320 0.07700
H 	H 	0.16460 0.59210 0.34980 0.04600
H 	H 	0.89770 0.57320 0.50000 0.05700
H 	H 	0.39300 0.42120 0.24100 0.05800
H 	H 	0.44940 0.35350 0.14720 0.10400
H 	H 	0.41800 0.55420 0.13760 0.11300
H 	H 	0.41390 0.40790 0.00200 0.07300
H 	H 	0.15740 0.14100 0.25760 0.06600
H 	H 	0.18640 0.11550 0.36320 0.07700
H 	H 	0.98560 0.05810 0.34980 0.04800
H 	H 	0.10230 0.92680 0.50000 0.05700
H 	H 	0.89300 0.83780 0.24100 0.05800
H 	H 	0.94940 0.99930 0.14720 0.10300
H 	H 	0.91800 0.80820 0.13760 0.11200
H 	H 	0.91390 0.09010 0.00200 0.07200
H 	H 	0.65740 0.10140 0.25760 0.06600
H 	H 	0.68640 0.02130 0.36320 0.07700
H 	H 	0.48560 0.09210 0.34980 0.04600
H 	H 	0.60230 0.07320 0.50000 0.05700
H 	H 	0.36600 0.92120 0.24100 0.05800
H 	H 	0.40340 0.85350 0.14720 0.10400
H 	H 	0.44440 0.05420 0.13760 0.11300
H 	H 	0.58410 0.90790 0.00200 0.07300
H 	H 	0.58500 0.64100 0.25760 0.06600
H 	H 	0.45040 0.61550 0.36320 0.07700
H 	H 	0.66460 0.55810 0.34980 0.04600
H 	H 	0.39770 0.42680 0.50000 0.05700
H 	H 	0.13400 0.66220 0.75900 0.05800
H 	H 	0.09660 0.50070 0.85280 0.10400
H 	H 	0.05560 0.69180 0.86240 0.11300
H 	H 	0.91590 0.40990 0.99800 0.07300
H 	H 	0.91500 0.39860 0.74240 0.06600
H 	H 	0.04960 0.47870 0.63680 0.07700
H 	H 	0.83540 0.40790 0.65020 0.04600
H 	H 	0.10230 0.42680 0.50000 0.05700
H 	H 	0.60700 0.57880 0.75900 0.05800
H 	H 	0.55060 0.64650 0.85280 0.10400
H 	H 	0.58200 0.44580 0.86240 0.11300
H 	H 	0.58610 0.59210 0.99800 0.07300
H 	H 	0.84260 0.85900 0.74240 0.06600
H 	H 	0.81360 0.88450 0.63680 0.07700
H 	H 	0.01440 0.94190 0.65020 0.04800
H 	H 	0.89770 0.07320 0.50000 0.05700
C 	C 	0.09658 0.14438 0.78544 -0.02100
C 	C 	0.07977 0.07327 0.80166 -0.04500
C 	C 	0.07886 0.02506 0.77688 0.39200
C 	C 	0.06319 0.04769 0.84122 -0.09400
C 	C 	0.06545 0.09205 0.86350 0.15200
C 	C 	0.08184 0.16224 0.84712 -0.10800
C 	C 	0.09802 0.18812 0.80736 -0.01200
C 	C 	0.11790 0.26370 0.78800 0.29300
C 	C 	0.07080 0.00560 0.92580 0.19800
C 	C 	0.03970 0.00050 0.96320 -0.03600
C 	C 	0.05040 0.94290 0.99840 -0.02100
C 	C 	0.00770 0.04940 0.96660 -0.01900
C 	C 	0.99690 0.09280 0.92880 0.21600
C 	C 	0.36184 0.91104 0.71592 -0.00100
C 	C 	0.31644 0.94014 0.69232 -0.06000
C 	C 	0.23495 0.95455 0.70830 0.38700
C 	C 	0.34428 0.95808 0.65264 -0.07800
C 	C 	0.41739 0.94479 0.63722 0.11500
C 	C 	0.46470 0.91610 0.66080 -0.08200
C 	C 	0.43710 0.90010 0.70000 -0.06400
C 	C 	0.48671 0.87091 0.72598 0.30200
C 	C 	0.40705 0.93365 0.57390 0.20300
C 	C 	0.45194 0.96504 0.53392 -0.03800
C 	C 	0.43803 0.95533 0.49994 -0.02700
C 	C 	0.51014 0.00784 0.53352 -0.03500
C 	C 	0.50647 0.00667 0.57426 0.20800
C 	C 	0.61798 0.07018 0.78544 -0.02100
C 	C 	0.61857 0.12507 0.80166 -0.04500
C 	C 	0.64426 0.19806 0.77688 0.39300
C 	C 	0.59559 0.11109 0.84122 -0.09400
C 	C 	0.57105 0.04445 0.86350 0.15300
C 	C 	0.57104 0.99064 0.84712 -0.10900
C 	C 	0.59462 0.00452 0.80736 -0.01100
C 	C 	0.59410 0.94830 0.78800 0.29300
C 	C 	0.50340 0.06860 0.92580 0.19900
C 	C 	0.49710 0.03630 0.96320 -0.03600
C 	C 	0.45120 0.05870 0.99840 -0.02300
C 	C 	0.52570 0.98400 0.96660 -0.01600
C 	C 	0.57430 0.97840 0.92880 0.21400
C 	C 	0.42224 0.37304 0.71592 -0.00100
C 	C 	0.49124 0.36754 0.69232 -0.05900
C 	C 	0.55675 0.33715 0.70830 0.38600
C 	C 	0.50308 0.38928 0.65264 -0.07800
C 	C 	0.44539 0.41799 0.63722 0.11600
C 	C 	0.37450 0.42310 0.66080 -0.08200
C 	C 	0.36290 0.39990 0.70000 -0.06400
C 	C 	0.28731 0.40311 0.72598 0.30200
C 	C 	0.51905 0.49245 0.57390 0.20300
C 	C 	0.51414 0.50104 0.53392 -0.03800
C 	C 	0.56203 0.54473 0.49994 -0.02700
C 	C 	0.45634 0.45864 0.53352 -0.03500
C 	C 	0.41927 0.41907 0.57426 0.20800
C 	C 	0.88202 0.35562 0.21456 -0.02100
C 	C 	0.88143 0.42673 0.19834 -0.04500
C 	C 	0.85574 0.47494 0.22312 0.39300
C 	C 	0.90441 0.45231 0.15878 -0.09400
C 	C 	0.92895 0.40795 0.13650 0.15200
C 	C 	0.92896 0.33776 0.15288 -0.10800
C 	C 	0.90538 0.31188 0.19264 -0.01200
C 	C 	0.90590 0.23630 0.21200 0.29300
C 	C 	0.99660 0.49440 0.07420 0.19900
C 	C 	0.00290 0.49950 0.03680 -0.03600
C 	C 	0.04880 0.55710 0.00160 -0.02300
C 	C 	0.97430 0.45060 0.03340 -0.01700
C 	C 	0.92570 0.40720 0.07120 0.21400
C 	C 	0.07776 0.58896 0.28408 -0.00200
C 	C 	0.00876 0.55986 0.30768 -0.05900
C 	C 	0.94325 0.54545 0.29170 0.38600
C 	C 	0.99692 0.54192 0.34736 -0.07900
C 	C 	0.05461 0.55521 0.36278 0.11600
C 	C 	0.12550 0.58390 0.33920 -0.08300
C 	C 	0.13710 0.59990 0.30000 -0.06300
C 	C 	0.21269 0.62909 0.27402 0.30200
C 	C 	0.98095 0.56635 0.42610 0.20300
C 	C 	0.98586 0.53496 0.46608 -0.03800
C 	C 	0.93797 0.54467 0.50006 -0.02700
C 	C 	0.04366 0.49216 0.46648 -0.03400
C 	C 	0.08073 0.49333 0.42574 0.20800
C 	C 	0.40342 0.42982 0.21456 -0.02100
C 	C 	0.42023 0.37493 0.19834 -0.04500
C 	C 	0.42114 0.30194 0.22312 0.39300
C 	C 	0.43681 0.38891 0.15878 -0.09400
C 	C 	0.43455 0.45555 0.13650 0.15200
C 	C 	0.41816 0.50936 0.15288 -0.10800
C 	C 	0.40198 0.49548 0.19264 -0.01200
C 	C 	0.38210 0.55170 0.21200 0.29300
C 	C 	0.42920 0.43140 0.07420 0.19900
C 	C 	0.46030 0.46370 0.03680 -0.03600
C 	C 	0.44960 0.44130 0.00160 -0.02300
C 	C 	0.49230 0.51600 0.03340 -0.01700
C 	C 	0.50310 0.52160 0.07120 0.21400
C 	C 	0.13816 0.12696 0.28408 -0.00200
C 	C 	0.18356 0.13246 0.30768 -0.05900
C 	C 	0.26505 0.16285 0.29170 0.38600
C 	C 	0.15572 0.11072 0.34736 -0.07900
C 	C 	0.08261 0.08201 0.36278 0.11700
C 	C 	0.03530 0.07690 0.33920 -0.08600
C 	C 	0.06290 0.10010 0.30000 -0.06200
C 	C 	0.01329 0.09689 0.27402 0.30000
C 	C 	0.09295 0.00755 0.42610 0.20100
C 	C 	0.04806 0.99896 0.46608 -0.03700
C 	C 	0.06197 0.95527 0.50006 -0.02700
C 	C 	0.98986 0.04136 0.46648 -0.03500
C 	C 	0.99353 0.08093 0.42574 0.20900
C 	C 	0.90342 0.85562 0.21456 -0.02100
C 	C 	0.92023 0.92673 0.19834 -0.04500
C 	C 	0.92114 0.97494 0.22312 0.39200
C 	C 	0.93681 0.95231 0.15878 -0.09400
C 	C 	0.93455 0.90795 0.13650 0.15200
C 	C 	0.91816 0.83776 0.15288 -0.10800
C 	C 	0.90198 0.81188 0.19264 -0.01200
C 	C 	0.88210 0.73630 0.21200 0.29300
C 	C 	0.92920 0.99440 0.07420 0.19800
C 	C 	0.96030 0.99950 0.03680 -0.03600
C 	C 	0.94960 0.05710 0.00160 -0.02100
C 	C 	0.99230 0.95060 0.03340 -0.01900
C 	C 	0.00310 0.90720 0.07120 0.21600
C 	C 	0.63816 0.08896 0.28408 -0.00100
C 	C 	0.68356 0.05986 0.30768 -0.06000
C 	C 	0.76505 0.04545 0.29170 0.38700
C 	C 	0.65572 0.04192 0.34736 -0.07800
C 	C 	0.58261 0.05521 0.36278 0.11500
C 	C 	0.53530 0.08390 0.33920 -0.08200
C 	C 	0.56290 0.09990 0.30000 -0.06400
C 	C 	0.51329 0.12909 0.27402 0.30200
C 	C 	0.59295 0.06635 0.42610 0.20300
C 	C 	0.54806 0.03496 0.46608 -0.03800
C 	C 	0.56197 0.04467 0.50006 -0.02700
C 	C 	0.48986 0.99216 0.46648 -0.03500
C 	C 	0.49353 0.99333 0.42574 0.20800
C 	C 	0.38202 0.92982 0.21456 -0.02100
C 	C 	0.38143 0.87493 0.19834 -0.04500
C 	C 	0.35574 0.80194 0.22312 0.39300
C 	C 	0.40441 0.88891 0.15878 -0.09400
C 	C 	0.42895 0.95555 0.13650 0.15300
C 	C 	0.42896 0.00936 0.15288 -0.10900
C 	C 	0.40538 0.99548 0.19264 -0.01100
C 	C 	0.40590 0.05170 0.21200 0.29300
C 	C 	0.49660 0.93140 0.07420 0.19900
C 	C 	0.50290 0.96370 0.03680 -0.03600
C 	C 	0.54880 0.94130 0.00160 -0.02300
C 	C 	0.47430 0.01600 0.03340 -0.01600
C 	C 	0.42570 0.02160 0.07120 0.21400
C 	C 	0.57776 0.62696 0.28408 -0.00100
C 	C 	0.50876 0.63246 0.30768 -0.05900
C 	C 	0.44325 0.66285 0.29170 0.38600
C 	C 	0.49692 0.61072 0.34736 -0.07800
C 	C 	0.55461 0.58201 0.36278 0.11600
C 	C 	0.62550 0.57690 0.33920 -0.08200
C 	C 	0.63710 0.60010 0.30000 -0.06400
C 	C 	0.71269 0.59689 0.27402 0.30200
C 	C 	0.48095 0.50755 0.42610 0.20300
C 	C 	0.48586 0.49896 0.46608 -0.03800
C 	C 	0.43797 0.45527 0.50006 -0.02700
C 	C 	0.54366 0.54136 0.46648 -0.03500
C 	C 	0.58073 0.58093 0.42574 0.20800
C 	C 	0.11798 0.64438 0.78544 -0.02100
C 	C 	0.11857 0.57327 0.80166 -0.04500
C 	C 	0.14426 0.52506 0.77688 0.39300
C 	C 	0.09559 0.54769 0.84122 -0.09400
C 	C 	0.07105 0.59205 0.86350 0.15200
C 	C 	0.07104 0.66224 0.84712 -0.10800
C 	C 	0.09462 0.68812 0.80736 -0.01200
C 	C 	0.09410 0.76370 0.78800 0.29300
C 	C 	0.00340 0.50560 0.92580 0.19900
C 	C 	0.99710 0.50050 0.96320 -0.03600
C 	C 	0.95120 0.44290 0.99840 -0.02300
C 	C 	0.02570 0.54940 0.96660 -0.01700
C 	C 	0.07430 0.59280 0.92880 0.21400
C 	C 	0.92224 0.41104 0.71592 -0.00200
C 	C 	0.99124 0.44014 0.69232 -0.05900
C 	C 	0.05675 0.45455 0.70830 0.38600
C 	C 	0.00308 0.45808 0.65264 -0.07900
C 	C 	0.94539 0.44479 0.63722 0.11600
C 	C 	0.87450 0.41610 0.66080 -0.08300
C 	C 	0.86290 0.40010 0.70000 -0.06300
C 	C 	0.78731 0.37091 0.72598 0.30200
C 	C 	0.01905 0.43365 0.57390 0.20300
C 	C 	0.01414 0.46504 0.53392 -0.03800
C 	C 	0.06203 0.45533 0.49994 -0.02700
C 	C 	0.95634 0.50784 0.53352 -0.03400
C 	C 	0.91927 0.50667 0.57426 0.20800
C 	C 	0.59658 0.57018 0.78544 -0.02100
C 	C 	0.57977 0.62507 0.80166 -0.04500
C 	C 	0.57886 0.69806 0.77688 0.39300
C 	C 	0.56319 0.61109 0.84122 -0.09400
C 	C 	0.56545 0.54445 0.86350 0.15200
C 	C 	0.58184 0.49064 0.84712 -0.10800
C 	C 	0.59802 0.50452 0.80736 -0.01200
C 	C 	0.61790 0.44830 0.78800 0.29300
C 	C 	0.57080 0.56860 0.92580 0.19900
C 	C 	0.53970 0.53630 0.96320 -0.03600
C 	C 	0.55040 0.55870 0.99840 -0.02300
C 	C 	0.50770 0.48400 0.96660 -0.01700
C 	C 	0.49690 0.47840 0.92880 0.21400
C 	C 	0.86184 0.87304 0.71592 -0.00200
C 	C 	0.81644 0.86754 0.69232 -0.05900
C 	C 	0.73495 0.83715 0.70830 0.38600
C 	C 	0.84428 0.88928 0.65264 -0.07900
C 	C 	0.91739 0.91799 0.63722 0.11700
C 	C 	0.96470 0.92310 0.66080 -0.08600
C 	C 	0.93710 0.89990 0.70000 -0.06200
C 	C 	0.98671 0.90311 0.72598 0.30000
C 	C 	0.90705 0.99245 0.57390 0.20100
C 	C 	0.95194 0.00104 0.53392 -0.03700
C 	C 	0.93803 0.04473 0.49994 -0.02700
C 	C 	0.01014 0.95864 0.53352 -0.03500
C 	C 	0.00647 0.91907 0.57426 0.20900
N 	N 	0.04698 0.06568 0.90424 -0.18200
N 	N 	0.44478 0.96038 0.59644 -0.18300
N 	N 	0.54878 0.03008 0.90424 -0.18100
N 	N 	0.45878 0.44318 0.59644 -0.18300
N 	N 	0.95122 0.43432 0.09576 -0.18100
N 	N 	0.04122 0.53962 0.40356 -0.18400
N 	N 	0.45302 0.46992 0.09576 -0.18100
N 	N 	0.05522 0.05682 0.40356 -0.18400
N 	N 	0.95302 0.93432 0.09576 -0.18200
N 	N 	0.55522 0.03962 0.40356 -0.18300
N 	N 	0.45122 0.96992 0.09576 -0.18100
N 	N 	0.54122 0.55682 0.40356 -0.18300
N 	N 	0.04878 0.56568 0.90424 -0.18100
N 	N 	0.95878 0.46038 0.59644 -0.18400
N 	N 	0.54698 0.53008 0.90424 -0.18100
N 	N 	0.94478 0.94318 0.59644 -0.18400
O 	O 	0.08317 0.05387 0.74226 -0.50700
O 	O 	0.07253 0.96207 0.79314 -0.45100
O 	O 	0.14183 0.28383 0.75294 -0.34000
O 	O 	0.10986 0.30609 0.80808 -0.37600
O 	O 	0.12460 0.97360 0.91080 -0.18500
O 	O 	0.96260 0.14330 0.91980 -0.20500
O 	O 	0.20274 0.91514 0.74132 -0.44300
O 	O 	0.20749 0.00079 0.68722 -0.49600
O 	O 	0.46283 0.86233 0.76114 -0.33800
O 	O 	0.55547 0.85862 0.71146 -0.54200
O 	O 	0.35183 0.89453 0.58554 -0.23500
O 	O 	0.54871 0.03551 0.58578 -0.22800
O 	O 	0.67457 0.20387 0.74226 -0.50700
O 	O 	0.63433 0.24479 0.79314 -0.45200
O 	O 	0.60523 0.96323 0.75294 -0.34000
O 	O 	0.58206 0.88583 0.80808 -0.37600
O 	O 	0.46460 0.11560 0.91080 -0.18700
O 	O 	0.61760 0.93690 0.91980 -0.20500
O 	O 	0.55594 0.34354 0.74132 -0.44300
O 	O 	0.60529 0.31199 0.68722 -0.49500
O 	O 	0.27603 0.37653 0.76114 -0.33800
O 	O 	0.23307 0.42992 0.71146 -0.54200
O 	O 	0.56263 0.51993 0.58554 -0.23500
O 	O 	0.36551 0.37871 0.58578 -0.22800
O 	O 	0.82543 0.44613 0.25774 -0.50700
O 	O 	0.86567 0.53793 0.20686 -0.45200
O 	O 	0.89477 0.21617 0.24706 -0.34000
O 	O 	0.91794 0.19391 0.19192 -0.37600
O 	O 	0.03540 0.52640 0.08920 -0.18700
O 	O 	0.88240 0.35670 0.08020 -0.20500
O 	O 	0.94406 0.58486 0.25868 -0.44300
O 	O 	0.89471 0.49921 0.31278 -0.49500
O 	O 	0.22397 0.63767 0.23886 -0.33800
O 	O 	0.26693 0.64138 0.28854 -0.54200
O 	O 	0.93737 0.60547 0.41446 -0.23500
O 	O 	0.13449 0.46449 0.41422 -0.22800
O 	O 	0.41683 0.29613 0.25774 -0.50700
O 	O 	0.42747 0.25521 0.20686 -0.45200
O 	O 	0.35817 0.53677 0.24706 -0.34000
O 	O 	0.39014 0.61417 0.19192 -0.37600
O 	O 	0.37540 0.38440 0.08920 -0.18700
O 	O 	0.53740 0.56310 0.08020 -0.20500
O 	O 	0.29726 0.15646 0.25868 -0.44300
O 	O 	0.29251 0.18801 0.31278 -0.49500
O 	O 	0.03717 0.12347 0.23886 -0.33800
O 	O 	0.94453 0.07008 0.28854 -0.54100
O 	O 	0.14817 0.98007 0.41446 -0.23400
O 	O 	0.95129 0.12129 0.41422 -0.22800
O 	O 	0.91683 0.94613 0.25774 -0.50700
O 	O 	0.92747 0.03793 0.20686 -0.45100
O 	O 	0.85817 0.71617 0.24706 -0.34000
O 	O 	0.89014 0.69391 0.19192 -0.37600
O 	O 	0.87540 0.02640 0.08920 -0.18500
O 	O 	0.03740 0.85670 0.08020 -0.20500
O 	O 	0.79726 0.08486 0.25868 -0.44300
O 	O 	0.79251 0.99921 0.31278 -0.49600
O 	O 	0.53717 0.13767 0.23886 -0.33800
O 	O 	0.44453 0.14138 0.28854 -0.54200
O 	O 	0.64817 0.10547 0.41446 -0.23500
O 	O 	0.45129 0.96449 0.41422 -0.22800
O 	O 	0.32543 0.79613 0.25774 -0.50700
O 	O 	0.36567 0.75521 0.20686 -0.45200
O 	O 	0.39477 0.03677 0.24706 -0.34000
O 	O 	0.41794 0.11417 0.19192 -0.37600
O 	O 	0.53540 0.88440 0.08920 -0.18700
O 	O 	0.38240 0.06310 0.08020 -0.20500
O 	O 	0.44406 0.65646 0.25868 -0.44300
O 	O 	0.39471 0.68801 0.31278 -0.49500
O 	O 	0.72397 0.62347 0.23886 -0.33800
O 	O 	0.76693 0.57008 0.28854 -0.54200
O 	O 	0.43737 0.48007 0.41446 -0.23500
O 	O 	0.63449 0.62129 0.41422 -0.22800
O 	O 	0.17457 0.55387 0.74226 -0.50700
O 	O 	0.13433 0.46207 0.79314 -0.45200
O 	O 	0.10523 0.78383 0.75294 -0.34000
O 	O 	0.08206 0.80609 0.80808 -0.37600
O 	O 	0.96460 0.47360 0.91080 -0.18700
O 	O 	0.11760 0.64330 0.91980 -0.20500
O 	O 	0.05594 0.41514 0.74132 -0.44300
O 	O 	0.10529 0.50079 0.68722 -0.49500
O 	O 	0.77603 0.36233 0.76114 -0.33800
O 	O 	0.73307 0.35862 0.71146 -0.54200
O 	O 	0.06263 0.39453 0.58554 -0.23500
O 	O 	0.86551 0.53551 0.58578 -0.22800
O 	O 	0.58317 0.70387 0.74226 -0.50700
O 	O 	0.57253 0.74479 0.79314 -0.45200
O 	O 	0.64183 0.46323 0.75294 -0.34000
O 	O 	0.60986 0.38583 0.80808 -0.37600
O 	O 	0.62460 0.61560 0.91080 -0.18700
O 	O 	0.46260 0.43690 0.91980 -0.20500
O 	O 	0.70274 0.84354 0.74132 -0.44300
O 	O 	0.70749 0.81199 0.68722 -0.49500
O 	O 	0.96283 0.87653 0.76114 -0.33800
O 	O 	0.05547 0.92992 0.71146 -0.54100
O 	O 	0.85183 0.01993 0.58554 -0.23400
O 	O 	0.04871 0.87871 0.58578 -0.22800
