data_crystal

_cell_length_a 11.14360
_cell_length_b 17.85000
_cell_length_c 29.34000
_cell_angle_alpha 86.63800
_cell_angle_beta  79.66600
_cell_angle_gamma 73.20600

_symmetry_space_group_name_	'P 1'
_symmetry_space_group_name_H-M	'P 1'

loop_
_symmetry_equiv_pos_as_xyz
  x,y,z

loop_
_atom_site_label
_atom_site_type_symbol
_atom_site_fract_x
_atom_site_fract_y
_atom_site_fract_z
_atom_site_charge
Nd	Nd	0.24387 0.28921 0.62066 2.09100
Nd	Nd	0.56060 0.39016 0.96491 2.05200
Nd	Nd	0.11586 0.50474 0.69082 2.00800
Nd	Nd	0.54628 0.11016 0.96419 2.08900
Nd	Nd	0.10735 0.79484 0.71046 2.11500
Nd	Nd	0.19834 0.01381 0.64326 2.05500
Nd	Nd	0.75613 0.71079 0.37934 2.09200
Nd	Nd	0.43940 0.60984 0.03509 2.05300
Nd	Nd	0.88414 0.49526 0.30919 2.00800
Nd	Nd	0.45372 0.88984 0.03581 2.08900
Nd	Nd	0.89265 0.20516 0.28954 2.11500
Nd	Nd	0.80166 0.98619 0.35674 2.05500
H 	H 	0.98940 0.26330 0.95090 0.03800
H 	H 	0.18400 0.20850 0.97340 0.03600
H 	H 	0.04840 0.03900 0.04050 0.03700
H 	H 	0.85690 0.09250 0.01590 0.03500
H 	H 	0.49660 0.00580 0.69570 0.03000
H 	H 	0.68160 0.94600 0.72220 0.04000
H 	H 	0.85510 0.08780 0.64270 0.02400
H 	H 	0.67040 0.14500 0.61460 0.03500
H 	H 	0.68940 0.62440 0.70670 0.02600
H 	H 	0.49360 0.67940 0.68620 0.04700
H 	H 	0.59660 0.87340 0.64500 0.04000
H 	H 	0.79080 0.81870 0.66760 0.02600
H 	H 	0.74660 0.15680 0.16990 0.02100
H 	H 	0.68880 0.13910 0.10060 0.03900
H 	H 	0.58840 0.94950 0.15270 0.02700
H 	H 	0.65010 0.96590 0.22150 0.02900
H 	H 	0.03770 0.23470 0.42200 0.03600
H 	H 	0.09600 0.25550 0.49040 0.02400
H 	H 	0.96840 0.07720 0.54920 0.02400
H 	H 	0.90750 0.05790 0.48140 0.02900
H 	H 	0.61920 0.28290 0.64440 0.03100
H 	H 	0.82400 0.26780 0.65610 0.04100
H 	H 	0.74320 0.49750 0.67150 0.04200
H 	H 	0.54090 0.51280 0.65860 0.03100
H 	H 	0.40240 0.70120 0.86940 0.03900
H 	H 	0.31320 0.49900 0.89540 0.02200
H 	H 	0.34970 0.70660 0.79660 0.01700
H 	H 	0.25400 0.50590 0.82360 0.02100
H 	H 	0.42720 0.38190 0.83390 0.01700
H 	H 	0.36430 0.39170 0.76220 0.02900
H 	H 	0.25760 0.19550 0.78970 0.04100
H 	H 	0.31010 0.19080 0.86280 0.02100
H 	H 	0.02610 0.60750 0.53170 0.03600
H 	H 	0.97230 0.61650 0.45940 0.01100
H 	H 	0.94420 0.39120 0.98350 0.03800
H 	H 	0.14620 0.37860 0.99560 0.03500
H 	H 	0.01060 0.73670 0.04910 0.03800
H 	H 	0.81600 0.79150 0.02660 0.03600
H 	H 	0.95160 0.96100 0.95950 0.03700
H 	H 	0.14310 0.90750 0.98410 0.03500
H 	H 	0.50340 0.99420 0.30430 0.03000
H 	H 	0.31840 0.05400 0.27780 0.04000
H 	H 	0.14490 0.91220 0.35730 0.02400
H 	H 	0.32960 0.85500 0.38540 0.03500
H 	H 	0.31060 0.37560 0.29330 0.02600
H 	H 	0.50640 0.32060 0.31380 0.04700
H 	H 	0.40340 0.12660 0.35500 0.04000
H 	H 	0.20920 0.18130 0.33240 0.02600
H 	H 	0.25340 0.84320 0.83010 0.02100
H 	H 	0.31120 0.86090 0.89940 0.03900
H 	H 	0.41160 0.05050 0.84730 0.02700
H 	H 	0.34990 0.03410 0.77850 0.02900
H 	H 	0.96230 0.76530 0.57800 0.03600
H 	H 	0.90400 0.74450 0.50960 0.02400
H 	H 	0.03160 0.92280 0.45080 0.02400
H 	H 	0.09250 0.94210 0.51860 0.02900
H 	H 	0.38080 0.71710 0.35560 0.03100
H 	H 	0.17600 0.73220 0.34390 0.04100
H 	H 	0.25680 0.50250 0.32850 0.04200
H 	H 	0.45910 0.48720 0.34140 0.03100
H 	H 	0.59760 0.29880 0.13060 0.03900
H 	H 	0.68680 0.50100 0.10460 0.02200
H 	H 	0.65030 0.29340 0.20340 0.01700
H 	H 	0.74600 0.49410 0.17640 0.02100
H 	H 	0.57280 0.61810 0.16610 0.01700
H 	H 	0.63570 0.60830 0.23780 0.02900
H 	H 	0.74240 0.80450 0.21030 0.04100
H 	H 	0.68990 0.80920 0.13720 0.02100
H 	H 	0.97390 0.39250 0.46830 0.03600
H 	H 	0.02770 0.38350 0.54060 0.01100
H 	H 	0.05580 0.60880 0.01650 0.03800
H 	H 	0.85380 0.62140 0.00440 0.03500
C 	C 	0.90640 0.18220 0.97940 -0.12200
C 	C 	0.00280 0.21710 0.96820 -0.01100
C 	C 	0.11850 0.18530 0.98190 -0.01600
C 	C 	0.13610 0.11630 0.00940 -0.12000
C 	C 	0.03740 0.08360 0.02180 -0.00900
C 	C 	0.92280 0.11540 0.00720 -0.00500
C 	C 	0.78410 0.21430 0.96000 0.47000
C 	C 	0.26510 0.07980 0.02380 0.47600
C 	C 	0.56570 0.08020 0.65070 -0.13300
C 	C 	0.56940 0.02120 0.68430 -0.00200
C 	C 	0.67930 0.98630 0.70050 -0.01300
C 	C 	0.78670 0.00950 0.68540 -0.12200
C 	C 	0.78340 0.07070 0.65280 -0.01000
C 	C 	0.67310 0.10450 0.63620 -0.00500
C 	C 	0.44530 0.11610 0.63090 0.48500
C 	C 	0.91190 0.96650 0.70220 0.47100
C 	C 	0.67010 0.67510 0.69480 0.02000
C 	C 	0.55320 0.70750 0.68250 -0.03400
C 	C 	0.52430 0.78390 0.66410 -0.10700
C 	C 	0.61450 0.82350 0.65810 -0.02400
C 	C 	0.73120 0.79060 0.67120 0.01100
C 	C 	0.75990 0.71540 0.69000 -0.14800
C 	C 	0.39030 0.82200 0.65260 0.47500
C 	C 	0.88560 0.68310 0.70660 0.49400
C 	C 	0.71620 0.11450 0.16630 0.00200
C 	C 	0.68060 0.10400 0.12480 -0.01600
C 	C 	0.63360 0.04280 0.11860 -0.11900
C 	C 	0.62140 0.99090 0.15580 -0.02100
C 	C 	0.65820 0.00090 0.19720 0.00800
C 	C 	0.70640 0.06170 0.20280 -0.13500
C 	C 	0.59170 0.03210 0.07380 0.47400
C 	C 	0.74980 0.07170 0.24730 0.46900
C 	C 	0.02410 0.20300 0.44760 -0.01700
C 	C 	0.05940 0.21540 0.48840 -0.00200
C 	C 	0.04000 0.16710 0.52710 -0.14500
C 	C 	0.98260 0.10870 0.52360 0.00000
C 	C 	0.94650 0.09700 0.48300 -0.01700
C 	C 	0.96780 0.14320 0.44410 -0.12200
C 	C 	0.08880 0.17500 0.57090 0.47200
C 	C 	0.93180 0.12590 0.39950 0.46900
C 	C 	0.64460 0.32660 0.64920 0.00500
C 	C 	0.76670 0.31750 0.65660 -0.02800
C 	C 	0.80390 0.38190 0.66480 -0.09700
C 	C 	0.71900 0.45380 0.66560 -0.02400
C 	C 	0.59790 0.46300 0.65780 0.00300
C 	C 	0.55990 0.40000 0.64900 -0.12800
C 	C 	0.42950 0.41020 0.63860 0.44000
C 	C 	0.93890 0.37260 0.67370 0.42300
C 	C 	0.37340 0.66170 0.85990 -0.03300
C 	C 	0.36260 0.59940 0.88980 -0.10800
C 	C 	0.31930 0.54100 0.87580 -0.02600
C 	C 	0.34130 0.66530 0.81650 0.00700
C 	C 	0.39910 0.59710 0.93680 0.40500
C 	C 	0.25390 0.61140 0.75580 0.47900
C 	C 	0.28490 0.54480 0.83270 0.00200
C 	C 	0.29640 0.60680 0.80280 -0.15000
C 	C 	0.41450 0.28060 0.90260 0.45300
C 	C 	0.37300 0.28570 0.85600 -0.14800
C 	C 	0.39110 0.34510 0.82530 0.00800
C 	C 	0.35590 0.35010 0.78190 -0.03600
C 	C 	0.30840 0.29350 0.76810 -0.09700
C 	C 	0.29070 0.23350 0.79860 -0.03900
C 	C 	0.32280 0.23070 0.84240 0.01100
C 	C 	0.27300 0.29720 0.72000 0.40100
C 	C 	0.01580 0.56380 0.51890 -0.01500
C 	C 	0.98320 0.56940 0.47570 -0.00500
C 	C 	0.03340 0.49490 0.54370 -0.12700
C 	C 	0.07050 0.48950 0.59080 0.42900
C 	C 	0.96680 0.43520 0.99000 -0.01100
C 	C 	0.08700 0.42760 0.99760 -0.01500
C 	C 	0.74520 0.51590 0.98210 0.44300
C 	C 	0.87830 0.50810 0.99180 -0.11100
C 	C 	0.09360 0.81780 0.02060 -0.12200
C 	C 	0.99720 0.78290 0.03180 -0.01100
C 	C 	0.88150 0.81470 0.01810 -0.01600
C 	C 	0.86390 0.88370 0.99060 -0.12000
C 	C 	0.96260 0.91640 0.97820 -0.00900
C 	C 	0.07720 0.88460 0.99280 -0.00500
C 	C 	0.21590 0.78570 0.04000 0.47000
C 	C 	0.73490 0.92020 0.97620 0.47600
C 	C 	0.43430 0.91980 0.34930 -0.13300
C 	C 	0.43060 0.97880 0.31570 -0.00200
C 	C 	0.32070 0.01370 0.29950 -0.01300
C 	C 	0.21330 0.99050 0.31460 -0.12200
C 	C 	0.21660 0.92930 0.34720 -0.01000
C 	C 	0.32690 0.89550 0.36380 -0.00500
C 	C 	0.55470 0.88390 0.36910 0.48500
C 	C 	0.08810 0.03350 0.29780 0.47100
C 	C 	0.32990 0.32490 0.30520 0.02000
C 	C 	0.44680 0.29250 0.31750 -0.03400
C 	C 	0.47570 0.21610 0.33590 -0.10700
C 	C 	0.38550 0.17650 0.34190 -0.02400
C 	C 	0.26880 0.20940 0.32880 0.01100
C 	C 	0.24010 0.28460 0.31000 -0.14800
C 	C 	0.60970 0.17800 0.34740 0.47500
C 	C 	0.11440 0.31690 0.29340 0.49400
C 	C 	0.28380 0.88550 0.83370 0.00200
C 	C 	0.31940 0.89600 0.87520 -0.01600
C 	C 	0.36640 0.95720 0.88140 -0.11900
C 	C 	0.37860 0.00910 0.84420 -0.02100
C 	C 	0.34180 0.99910 0.80280 0.00800
C 	C 	0.29360 0.93830 0.79720 -0.13500
C 	C 	0.40830 0.96790 0.92620 0.47400
C 	C 	0.25020 0.92830 0.75270 0.46900
C 	C 	0.97590 0.79700 0.55240 -0.01700
C 	C 	0.94060 0.78460 0.51160 -0.00200
C 	C 	0.96000 0.83290 0.47290 -0.14500
C 	C 	0.01740 0.89130 0.47640 0.00000
C 	C 	0.05350 0.90300 0.51700 -0.01700
C 	C 	0.03220 0.85680 0.55590 -0.12200
C 	C 	0.91120 0.82500 0.42910 0.47200
C 	C 	0.06820 0.87410 0.60050 0.46900
C 	C 	0.35540 0.67340 0.35080 0.00500
C 	C 	0.23330 0.68250 0.34340 -0.02800
C 	C 	0.19610 0.61810 0.33520 -0.09700
C 	C 	0.28100 0.54620 0.33440 -0.02400
C 	C 	0.40210 0.53700 0.34220 0.00300
C 	C 	0.44010 0.60000 0.35100 -0.12800
C 	C 	0.57050 0.58980 0.36140 0.44000
C 	C 	0.06110 0.62740 0.32630 0.42300
C 	C 	0.62660 0.33830 0.14010 -0.03300
C 	C 	0.63740 0.40060 0.11020 -0.10800
C 	C 	0.68070 0.45900 0.12420 -0.02600
C 	C 	0.65870 0.33470 0.18350 0.00700
C 	C 	0.60090 0.40290 0.06320 0.40500
C 	C 	0.74610 0.38860 0.24420 0.47900
C 	C 	0.71510 0.45520 0.16730 0.00200
C 	C 	0.70360 0.39320 0.19720 -0.15000
C 	C 	0.58550 0.71940 0.09740 0.45300
C 	C 	0.62700 0.71430 0.14400 -0.14800
C 	C 	0.60890 0.65490 0.17470 0.00800
C 	C 	0.64410 0.64990 0.21810 -0.03600
C 	C 	0.69160 0.70650 0.23190 -0.09700
C 	C 	0.70930 0.76650 0.20140 -0.03900
C 	C 	0.67720 0.76930 0.15760 0.01100
C 	C 	0.72700 0.70280 0.28000 0.40100
C 	C 	0.98420 0.43620 0.48110 -0.01500
C 	C 	0.01680 0.43060 0.52430 -0.00500
C 	C 	0.96660 0.50510 0.45630 -0.12700
C 	C 	0.92950 0.51050 0.40920 0.42900
C 	C 	0.03320 0.56480 0.01000 -0.01100
C 	C 	0.91300 0.57240 0.00240 -0.01500
C 	C 	0.25480 0.48410 0.01790 0.44300
C 	C 	0.12170 0.49190 0.00820 -0.11100
O 	O 	0.72010 0.16720 0.95790 -0.57100
O 	O 	0.75560 0.28320 0.94520 -0.53600
O 	O 	0.34640 0.11550 0.01480 -0.54700
O 	O 	0.27890 0.01470 0.04370 -0.51700
O 	O 	0.43840 0.17670 0.60690 -0.52600
O 	O 	0.35990 0.08390 0.63890 -0.57600
O 	O 	0.00510 0.99270 0.69000 -0.55700
O 	O 	0.91390 0.90900 0.72700 -0.51900
O 	O 	0.37460 0.88980 0.63640 -0.52300
O 	O 	0.31180 0.78520 0.65960 -0.54000
O 	O 	0.92010 0.61090 0.71440 -0.53500
O 	O 	0.94360 0.72890 0.71480 -0.57600
O 	O 	0.74210 0.01960 0.27790 -0.50400
O 	O 	0.55110 0.97450 0.07080 -0.54700
O 	O 	0.60480 0.08120 0.04210 -0.51700
O 	O 	0.88490 0.07120 0.39950 -0.53400
O 	O 	0.95390 0.17030 0.36510 -0.53100
O 	O 	0.07070 0.12710 0.60310 -0.54400
O 	O 	0.14100 0.22670 0.57270 -0.55700
O 	O 	0.34340 0.47400 0.64970 -0.49000
O 	O 	0.41240 0.35430 0.61900 -0.51000
O 	O 	0.02420 0.30860 0.66330 -0.50200
O 	O 	0.95470 0.43160 0.69050 -0.49000
O 	O 	0.37200 0.65970 0.95840 -0.47500
O 	O 	0.45240 0.53170 0.95379 -0.58000
O 	O 	0.25480 0.67130 0.73190 -0.55200
O 	O 	0.22420 0.55480 0.74420 -0.54400
O 	O 	0.45490 0.33390 0.91370 -0.54900
O 	O 	0.40240 0.22210 0.92780 -0.53300
O 	O 	0.29070 0.23490 0.70010 -0.46900
O 	O 	0.23040 0.36300 0.70140 -0.58400
O 	O 	0.03520 0.55180 0.61410 -0.46600
O 	O 	0.13020 0.42600 0.60600 -0.59900
O 	O 	0.66160 0.57910 0.99280 -0.51100
O 	O 	0.73070 0.45760 0.96420 -0.49300
O 	O 	0.79200 0.12860 0.25050 -0.55400
O 	O 	0.27990 0.83280 0.04210 -0.57100
O 	O 	0.24440 0.71680 0.05480 -0.53600
O 	O 	0.65360 0.88450 0.98520 -0.54700
O 	O 	0.72110 0.98530 0.95630 -0.51700
O 	O 	0.56160 0.82330 0.39310 -0.52600
O 	O 	0.64010 0.91610 0.36110 -0.57600
O 	O 	0.99490 0.00730 0.31000 -0.55700
O 	O 	0.08610 0.09100 0.27300 -0.51900
O 	O 	0.62540 0.11020 0.36360 -0.52300
O 	O 	0.68820 0.21480 0.34040 -0.54000
O 	O 	0.07990 0.38910 0.28560 -0.53500
O 	O 	0.05640 0.27110 0.28520 -0.57600
O 	O 	0.25790 0.98040 0.72210 -0.50400
O 	O 	0.44890 0.02550 0.92920 -0.54700
O 	O 	0.39520 0.91880 0.95790 -0.51700
O 	O 	0.11510 0.92880 0.60050 -0.53400
O 	O 	0.04610 0.82970 0.63490 -0.53100
O 	O 	0.92930 0.87290 0.39690 -0.54400
O 	O 	0.85900 0.77330 0.42730 -0.55700
O 	O 	0.65660 0.52600 0.35030 -0.49000
O 	O 	0.58760 0.64570 0.38100 -0.51000
O 	O 	0.97580 0.69140 0.33670 -0.50200
O 	O 	0.04530 0.56840 0.30950 -0.49000
O 	O 	0.62800 0.34030 0.04160 -0.47500
O 	O 	0.54760 0.46830 0.04621 -0.58000
O 	O 	0.74520 0.32870 0.26810 -0.55200
O 	O 	0.77580 0.44520 0.25580 -0.54400
O 	O 	0.54510 0.66610 0.08630 -0.54900
O 	O 	0.59760 0.77790 0.07220 -0.53300
O 	O 	0.70930 0.76510 0.29990 -0.46900
O 	O 	0.76960 0.63700 0.29860 -0.58400
O 	O 	0.96480 0.44820 0.38590 -0.46600
O 	O 	0.86980 0.57400 0.39400 -0.59900
O 	O 	0.33840 0.42090 0.00720 -0.51100
O 	O 	0.26930 0.54240 0.03580 -0.49300
O 	O 	0.20800 0.87140 0.74950 -0.55400
