data_crystal

_cell_length_a 7.71800
_cell_length_b 25.28690
_cell_length_c 25.28690
_cell_angle_alpha 61.02200
_cell_angle_beta  84.16070
_cell_angle_gamma 95.83930

_symmetry_space_group_name_	'P 1'
_symmetry_space_group_name_H-M	'P 1'

loop_
_symmetry_equiv_pos_as_xyz
  x,y,z

loop_
_atom_site_label
_atom_site_type_symbol
_atom_site_fract_x
_atom_site_fract_y
_atom_site_fract_z
_atom_site_charge
Cu	Cu	0.74673 0.74746 0.00582 0.90800
Cu	Cu	0.25107 0.50083 0.25653 0.90900
Cu	Cu	0.75255 0.00582 0.24672 0.90800
Cu	Cu	0.50760 0.25653 0.24264 0.90900
Cu	Cu	0.99927 0.24672 0.74746 0.90700
Cu	Cu	0.75024 0.24264 0.50083 0.90900
Cu	Cu	0.25327 0.25254 0.99418 0.90900
Cu	Cu	0.74893 0.49917 0.74347 0.91000
Cu	Cu	0.24745 0.99418 0.75328 0.90900
Cu	Cu	0.49240 0.74347 0.75736 0.91000
Cu	Cu	0.00073 0.75328 0.25254 0.90800
Cu	Cu	0.24976 0.75736 0.49917 0.91000
H 	H 	0.98520 0.67760 0.08290 0.02600
H 	H 	0.47860 0.63010 0.09030 0.01700
H 	H 	0.72910 0.50870 0.20440 0.03900
H 	H 	0.51290 0.31450 0.42510 0.02500
H 	H 	0.01010 0.36230 0.42670 0.01200
H 	H 	0.76580 0.48730 0.31350 0.03900
H 	H 	0.22000 0.79420 0.01380 0.03800
H 	H 	0.85200 0.78850 0.13530 0.01400
H 	H 	0.30930 0.74680 0.18330 0.02600
H 	H 	0.17760 0.74430 0.83010 0.02500
H 	H 	0.64150 0.70760 0.87500 0.02100
H 	H 	0.27360 0.70000 0.99760 0.03700
H 	H 	0.06810 0.08290 0.23950 0.02900
H 	H 	0.56890 0.09030 0.27960 0.01800
H 	H 	0.93350 0.20440 0.28690 0.03900
H 	H 	0.93800 0.42510 0.26040 0.02700
H 	H 	0.43680 0.42670 0.21100 0.01300
H 	H 	0.07930 0.31350 0.19920 0.03900
H 	H 	0.23380 0.01380 0.19200 0.03800
H 	H 	0.98730 0.13530 0.07620 0.01100
H 	H 	0.49260 0.18330 0.06990 0.02600
H 	H 	0.00770 0.83010 0.42560 0.02500
H 	H 	0.51650 0.87500 0.41740 0.02100
H 	H 	0.27120 0.99760 0.30240 0.03700
H 	H 	0.30760 0.23950 0.67760 0.02500
H 	H 	0.84850 0.27960 0.63010 0.01800
H 	H 	0.22040 0.28690 0.50870 0.03800
H 	H 	0.19840 0.26040 0.31450 0.02500
H 	H 	0.64780 0.21100 0.36230 0.01300
H 	H 	0.27850 0.19920 0.48730 0.03900
H 	H 	0.42580 0.19200 0.79420 0.03800
H 	H 	0.06350 0.07620 0.78850 0.01600
H 	H 	0.56250 0.06990 0.74680 0.02600
H 	H 	0.43330 0.42560 0.74430 0.02500
H 	H 	0.93390 0.41740 0.70760 0.02000
H 	H 	0.57360 0.30240 0.70000 0.03700
H 	H 	0.01480 0.32240 0.91710 0.02600
H 	H 	0.52140 0.36990 0.90970 0.01700
H 	H 	0.27090 0.49130 0.79560 0.03900
H 	H 	0.48710 0.68550 0.57490 0.02500
H 	H 	0.98990 0.63770 0.57330 0.01200
H 	H 	0.23420 0.51270 0.68650 0.03900
H 	H 	0.78000 0.20580 0.98620 0.03800
H 	H 	0.14800 0.21150 0.86470 0.01400
H 	H 	0.69070 0.25320 0.81670 0.02600
H 	H 	0.82240 0.25570 0.16990 0.02500
H 	H 	0.35850 0.29240 0.12500 0.02100
H 	H 	0.72640 0.30000 0.00240 0.03700
H 	H 	0.93190 0.91710 0.76050 0.02900
H 	H 	0.43110 0.90970 0.72040 0.01800
H 	H 	0.06650 0.79560 0.71310 0.03900
H 	H 	0.06200 0.57490 0.73960 0.02700
H 	H 	0.56320 0.57330 0.78900 0.01300
H 	H 	0.92070 0.68650 0.80080 0.03900
H 	H 	0.76620 0.98620 0.80800 0.03800
H 	H 	0.01270 0.86470 0.92380 0.01100
H 	H 	0.50740 0.81670 0.93010 0.02600
H 	H 	0.99230 0.16990 0.57440 0.02500
H 	H 	0.48350 0.12500 0.58260 0.02100
H 	H 	0.72880 0.00240 0.69760 0.03700
H 	H 	0.69240 0.76050 0.32240 0.02500
H 	H 	0.15150 0.72040 0.36990 0.01800
H 	H 	0.77960 0.71310 0.49130 0.03800
H 	H 	0.80160 0.73960 0.68550 0.02500
H 	H 	0.35220 0.78900 0.63770 0.01300
H 	H 	0.72150 0.80080 0.51270 0.03900
H 	H 	0.57420 0.80800 0.20580 0.03800
H 	H 	0.93650 0.92380 0.21150 0.01600
H 	H 	0.43750 0.93010 0.25320 0.02600
H 	H 	0.56670 0.57440 0.25570 0.02500
H 	H 	0.06610 0.58260 0.29240 0.02000
H 	H 	0.42640 0.69760 0.30000 0.03700
C 	C 	0.05625 0.57939 0.17354 0.34000
C 	C 	0.88366 0.59198 0.14920 -0.11200
C 	C 	0.87964 0.64804 0.10092 0.08400
C 	C 	0.58490 0.61940 0.10540 0.10700
C 	C 	0.72812 0.54922 0.17256 0.07600
C 	C 	0.44000 0.41640 0.33950 0.34700
C 	C 	0.61080 0.40350 0.36350 -0.11500
C 	C 	0.61640 0.34500 0.40940 0.08500
C 	C 	0.90600 0.37360 0.41010 0.11500
C 	C 	0.76590 0.44610 0.34400 0.07800
C 	C 	0.47690 0.75480 0.08360 0.35300
C 	C 	0.29330 0.76670 0.09580 -0.11800
C 	C 	0.17950 0.78570 0.05450 0.08000
C 	C 	0.96800 0.78330 0.12440 0.11600
C 	C 	0.23370 0.75840 0.15350 0.08200
C 	C 	0.01450 0.73780 0.92860 0.33700
C 	C 	0.19740 0.72570 0.91590 -0.11600
C 	C 	0.25570 0.73360 0.85900 0.08400
C 	C 	0.52410 0.71140 0.88630 0.10500
C 	C 	0.31280 0.70790 0.95720 0.08000
C 	C 	0.22979 0.17354 0.24707 0.34100
C 	C 	0.03286 0.14920 0.25882 -0.10800
C 	C 	0.98056 0.10092 0.25104 0.07700
C 	C 	0.69030 0.10540 0.27520 0.10700
C 	C 	0.90068 0.17256 0.27822 0.07200
C 	C 	0.77950 0.33950 0.24410 0.34700
C 	C 	0.97430 0.36350 0.23300 -0.11300
C 	C 	0.02580 0.40940 0.24560 0.08200
C 	C 	0.31610 0.41010 0.21630 0.11300
C 	C 	0.10990 0.34400 0.20990 0.07700
C 	C 	0.56050 0.08360 0.16160 0.35300
C 	C 	0.38910 0.09580 0.13750 -0.11800
C 	C 	0.23400 0.05450 0.15980 0.08100
C 	C 	0.09240 0.12440 0.09230 0.11700
C 	C 	0.38720 0.15350 0.08810 0.08200
C 	C 	0.94310 0.92860 0.33360 0.34600
C 	C 	0.11330 0.91590 0.35840 -0.11900
C 	C 	0.11470 0.85900 0.40740 0.08600
C 	C 	0.41040 0.88630 0.40230 0.10500
C 	C 	0.27000 0.95720 0.33490 0.08200
C 	C 	0.47686 0.24707 0.57939 0.34300
C 	C 	0.29168 0.25882 0.59198 -0.11400
C 	C 	0.23160 0.25104 0.64804 0.08600
C 	C 	0.96550 0.27520 0.61940 0.10500
C 	C 	0.17890 0.27822 0.54922 0.07700
C 	C 	0.02360 0.24410 0.41640 0.34700
C 	C 	0.20730 0.23300 0.40350 -0.11500
C 	C 	0.27140 0.24560 0.34500 0.08500
C 	C 	0.53240 0.21630 0.37360 0.11400
C 	C 	0.31980 0.20990 0.44610 0.07800
C 	C 	0.72210 0.16160 0.75480 0.35300
C 	C 	0.52660 0.13750 0.76670 -0.11700
C 	C 	0.39380 0.15980 0.78570 0.08100
C 	C 	0.18470 0.09230 0.78330 0.11100
C 	C 	0.47530 0.08810 0.75840 0.08200
C 	C 	0.27670 0.33360 0.73780 0.34500
C 	C 	0.47170 0.35840 0.72570 -0.11800
C 	C 	0.52210 0.40740 0.73360 0.08600
C 	C 	0.81270 0.40230 0.71140 0.10500
C 	C 	0.60490 0.33490 0.70790 0.08100
C 	C 	0.94375 0.42061 0.82646 0.34000
C 	C 	0.11634 0.40802 0.85080 -0.11200
C 	C 	0.12036 0.35196 0.89908 0.08400
C 	C 	0.41510 0.38060 0.89460 0.10700
C 	C 	0.27188 0.45078 0.82744 0.07600
C 	C 	0.56000 0.58360 0.66050 0.34700
C 	C 	0.38920 0.59650 0.63650 -0.11500
C 	C 	0.38360 0.65500 0.59060 0.08500
C 	C 	0.09400 0.62640 0.58990 0.11500
C 	C 	0.23410 0.55390 0.65600 0.07800
C 	C 	0.52310 0.24520 0.91640 0.35300
C 	C 	0.70670 0.23330 0.90420 -0.11800
C 	C 	0.82050 0.21430 0.94550 0.08000
C 	C 	0.03200 0.21670 0.87560 0.11600
C 	C 	0.76630 0.24160 0.84650 0.08200
C 	C 	0.98550 0.26220 0.07140 0.33700
C 	C 	0.80260 0.27430 0.08410 -0.11600
C 	C 	0.74430 0.26640 0.14100 0.08400
C 	C 	0.47590 0.28860 0.11370 0.10500
C 	C 	0.68720 0.29210 0.04280 0.08000
C 	C 	0.77021 0.82646 0.75293 0.34100
C 	C 	0.96714 0.85080 0.74118 -0.10800
C 	C 	0.01944 0.89908 0.74896 0.07700
C 	C 	0.30970 0.89460 0.72480 0.10700
C 	C 	0.09932 0.82744 0.72178 0.07200
C 	C 	0.22050 0.66050 0.75590 0.34700
C 	C 	0.02570 0.63650 0.76700 -0.11300
C 	C 	0.97420 0.59060 0.75440 0.08200
C 	C 	0.68390 0.58990 0.78370 0.11300
C 	C 	0.89010 0.65600 0.79010 0.07700
C 	C 	0.43950 0.91640 0.83840 0.35300
C 	C 	0.61090 0.90420 0.86250 -0.11800
C 	C 	0.76600 0.94550 0.84020 0.08100
C 	C 	0.90760 0.87560 0.90770 0.11700
C 	C 	0.61280 0.84650 0.91190 0.08200
C 	C 	0.05690 0.07140 0.66640 0.34600
C 	C 	0.88670 0.08410 0.64160 -0.11900
C 	C 	0.88530 0.14100 0.59260 0.08600
C 	C 	0.58960 0.11370 0.59770 0.10500
C 	C 	0.73000 0.04280 0.66510 0.08200
C 	C 	0.52314 0.75293 0.42061 0.34300
C 	C 	0.70832 0.74118 0.40802 -0.11400
C 	C 	0.76840 0.74896 0.35196 0.08600
C 	C 	0.03450 0.72480 0.38060 0.10500
C 	C 	0.82110 0.72178 0.45078 0.07700
C 	C 	0.97640 0.75590 0.58360 0.34700
C 	C 	0.79270 0.76700 0.59650 -0.11500
C 	C 	0.72860 0.75440 0.65500 0.08500
C 	C 	0.46760 0.78370 0.62640 0.11400
C 	C 	0.68020 0.79010 0.55390 0.07800
C 	C 	0.27790 0.83840 0.24520 0.35300
C 	C 	0.47340 0.86250 0.23330 -0.11700
C 	C 	0.60620 0.84020 0.21430 0.08100
C 	C 	0.81530 0.90770 0.21670 0.11100
C 	C 	0.52470 0.91190 0.24160 0.08200
C 	C 	0.72330 0.66640 0.26220 0.34500
C 	C 	0.52830 0.64160 0.27430 -0.11800
C 	C 	0.47790 0.59260 0.26640 0.08600
C 	C 	0.18730 0.59770 0.28860 0.10500
C 	C 	0.39510 0.66510 0.29210 0.08100
N 	N 	0.73108 0.66301 0.07767 -0.21800
N 	N 	0.57471 0.56335 0.15132 -0.14800
N 	N 	0.76483 0.32978 0.43279 -0.21900
N 	N 	0.91727 0.43134 0.36653 -0.14500
N 	N 	0.06903 0.76673 0.16744 -0.22100
N 	N 	0.01210 0.79350 0.06800 -0.15000
N 	N 	0.41991 0.72655 0.84292 -0.21800
N 	N 	0.47970 0.70130 0.94250 -0.14600
N 	N 	0.80875 0.07767 0.25932 -0.21700
N 	N 	0.72603 0.15132 0.28533 -0.14800
N 	N 	0.19762 0.43279 0.23743 -0.21900
N 	N 	0.28380 0.36653 0.20213 -0.14600
N 	N 	0.23647 0.16744 0.06583 -0.22000
N 	N 	0.08010 0.06800 0.13850 -0.14800
N 	N 	0.26283 0.84292 0.43053 -0.21900
N 	N 	0.42220 0.94250 0.35620 -0.14600
N 	N 	0.06807 0.25932 0.66301 -0.21700
N 	N 	0.01136 0.28533 0.56335 -0.14800
N 	N 	0.43505 0.23743 0.32978 -0.21900
N 	N 	0.48593 0.20213 0.43134 -0.14600
N 	N 	0.30230 0.06583 0.76673 -0.21900
N 	N 	0.21860 0.13850 0.79350 -0.14800
N 	N 	0.69336 0.43053 0.72655 -0.21900
N 	N 	0.77840 0.35620 0.70130 -0.14600
N 	N 	0.26892 0.33699 0.92233 -0.21800
N 	N 	0.42529 0.43665 0.84868 -0.14800
N 	N 	0.23517 0.67022 0.56721 -0.21900
N 	N 	0.08273 0.56866 0.63347 -0.14500
N 	N 	0.93097 0.23327 0.83256 -0.22100
N 	N 	0.98790 0.20650 0.93200 -0.15000
N 	N 	0.58009 0.27345 0.15708 -0.21800
N 	N 	0.52030 0.29870 0.05750 -0.14600
N 	N 	0.19125 0.92233 0.74068 -0.21700
N 	N 	0.27397 0.84868 0.71467 -0.14800
N 	N 	0.80238 0.56721 0.76257 -0.21900
N 	N 	0.71620 0.63347 0.79787 -0.14600
N 	N 	0.76353 0.83256 0.93417 -0.22000
N 	N 	0.91990 0.93200 0.86150 -0.14800
N 	N 	0.73717 0.15708 0.56947 -0.21900
N 	N 	0.57780 0.05750 0.64380 -0.14600
N 	N 	0.93193 0.74068 0.33699 -0.21700
N 	N 	0.98864 0.71467 0.43665 -0.14800
N 	N 	0.56495 0.76257 0.67022 -0.21900
N 	N 	0.51407 0.79787 0.56866 -0.14600
N 	N 	0.69770 0.93417 0.23327 -0.21900
N 	N 	0.78140 0.86150 0.20650 -0.14800
N 	N 	0.30664 0.56947 0.27345 -0.21900
N 	N 	0.22160 0.64380 0.29870 -0.14600
O 	O 	0.03932 0.52891 0.22545 -0.38700
O 	O 	0.19044 0.61605 0.14393 -0.28500
O 	O 	0.45597 0.47028 0.29177 -0.38800
O 	O 	0.30680 0.37800 0.36590 -0.28200
O 	O 	0.50923 0.75357 0.03398 -0.39300
O 	O 	0.57534 0.74707 0.12075 -0.28500
O 	O 	0.98384 0.74110 0.97738 -0.38300
O 	O 	0.91158 0.74261 0.89297 -0.27700
O 	O 	0.26477 0.22545 0.24564 -0.38600
O 	O 	0.33437 0.14393 0.24002 -0.28500
O 	O 	0.74774 0.29177 0.23795 -0.38800
O 	O 	0.67270 0.36590 0.25610 -0.28200
O 	O 	0.54321 0.03398 0.21245 -0.39300
O 	O 	0.69609 0.12075 0.13218 -0.28500
O 	O 	0.96122 0.97738 0.28152 -0.38900
O 	O 	0.80455 0.89297 0.36442 -0.28100
O 	O 	0.51041 0.24564 0.52891 -0.38700
O 	O 	0.57439 0.24002 0.61605 -0.28600
O 	O 	0.98569 0.23795 0.47028 -0.38800
O 	O 	0.92880 0.25610 0.37800 -0.28200
O 	O 	0.75566 0.21245 0.75357 -0.39300
O 	O 	0.82827 0.13218 0.74707 -0.28500
O 	O 	0.24274 0.28152 0.74110 -0.38800
O 	O 	0.16897 0.36442 0.74261 -0.28000
O 	O 	0.96068 0.47109 0.77455 -0.38700
O 	O 	0.80956 0.38395 0.85607 -0.28500
O 	O 	0.54403 0.52972 0.70823 -0.38800
O 	O 	0.69320 0.62200 0.63410 -0.28200
O 	O 	0.49077 0.24643 0.96602 -0.39300
O 	O 	0.42466 0.25293 0.87925 -0.28500
O 	O 	0.01616 0.25890 0.02262 -0.38300
O 	O 	0.08842 0.25739 0.10703 -0.27700
O 	O 	0.73523 0.77455 0.75436 -0.38600
O 	O 	0.66563 0.85607 0.75998 -0.28500
O 	O 	0.25226 0.70823 0.76205 -0.38800
O 	O 	0.32730 0.63410 0.74390 -0.28200
O 	O 	0.45679 0.96602 0.78755 -0.39300
O 	O 	0.30391 0.87925 0.86782 -0.28500
O 	O 	0.03878 0.02262 0.71848 -0.38900
O 	O 	0.19545 0.10703 0.63558 -0.28100
O 	O 	0.48959 0.75436 0.47109 -0.38700
O 	O 	0.42561 0.75998 0.38395 -0.28600
O 	O 	0.01431 0.76205 0.52972 -0.38800
O 	O 	0.07120 0.74390 0.62200 -0.28200
O 	O 	0.24434 0.78755 0.24643 -0.39300
O 	O 	0.17173 0.86782 0.25293 -0.28500
O 	O 	0.75726 0.71848 0.25890 -0.38800
O 	O 	0.83103 0.63558 0.25739 -0.28000
