data_crystal

_cell_length_a 10.03580
_cell_length_b 15.97280
_cell_length_c 21.55900
_cell_angle_alpha 98.33300
_cell_angle_beta  93.78200
_cell_angle_gamma 107.75900

_symmetry_space_group_name_	'P 1'
_symmetry_space_group_name_H-M	'P 1'

loop_
_symmetry_equiv_pos_as_xyz
  x,y,z

loop_
_atom_site_label
_atom_site_type_symbol
_atom_site_fract_x
_atom_site_fract_y
_atom_site_fract_z
_atom_site_charge
Cu	Cu	0.37353 0.29995 0.54186 0.91300
Cu	Cu	0.04994 0.40772 0.63307 0.92900
Cu	Cu	0.93344 0.58657 0.79864 0.85400
Cu	Cu	0.62647 0.70005 0.45814 0.91300
Cu	Cu	0.95006 0.59228 0.36693 0.92900
Cu	Cu	0.06656 0.41343 0.20136 0.85400
H 	H 	0.87960 0.57230 0.56850 0.03000
H 	H 	0.15020 0.20570 0.44300 -0.00700
H 	H 	0.92690 0.10600 0.42900 0.10000
H 	H 	0.97210 0.08390 0.60900 0.10500
H 	H 	0.19230 0.18540 0.61810 -0.00800
H 	H 	0.75040 0.99140 0.54630 0.07000
H 	H 	0.72770 0.01460 0.42610 0.05000
H 	H 	0.51640 0.93970 0.36100 0.07900
H 	H 	0.29590 0.83300 0.33640 0.03500
H 	H 	0.33020 0.76670 0.50700 0.03400
H 	H 	0.55230 0.87530 0.53090 0.07500
H 	H 	0.06150 0.36050 0.75490 -0.00200
H 	H 	0.21880 0.37530 0.84140 0.11000
H 	H 	0.51360 0.53110 0.76010 0.11300
H 	H 	0.35300 0.50870 0.67460 0.00900
H 	H 	0.57770 0.51360 0.86710 0.06300
H 	H 	0.39530 0.37970 0.90980 0.04000
H 	H 	0.48360 0.33100 0.00120 0.05400
H 	H 	0.70390 0.35130 0.07980 0.05300
H 	H 	0.90620 0.58310 0.02360 0.05600
H 	H 	0.73140 0.53900 0.93680 0.03700
H 	H 	0.12040 0.42770 0.43150 0.03000
H 	H 	0.84980 0.79430 0.55700 -0.00700
H 	H 	0.07310 0.89400 0.57100 0.10000
H 	H 	0.02790 0.91610 0.39100 0.10500
H 	H 	0.80770 0.81460 0.38190 -0.00800
H 	H 	0.24960 0.00860 0.45370 0.07000
H 	H 	0.27230 0.98540 0.57390 0.05000
H 	H 	0.48360 0.06030 0.63900 0.07900
H 	H 	0.70410 0.16700 0.66360 0.03500
H 	H 	0.66980 0.23330 0.49300 0.03400
H 	H 	0.44770 0.12470 0.46910 0.07500
H 	H 	0.93850 0.63950 0.24510 -0.00200
H 	H 	0.78120 0.62470 0.15860 0.11000
H 	H 	0.48640 0.46890 0.23990 0.11300
H 	H 	0.64700 0.49130 0.32540 0.00900
H 	H 	0.42230 0.48640 0.13290 0.06300
H 	H 	0.60470 0.62030 0.09020 0.04000
H 	H 	0.51640 0.66900 0.99880 0.05400
H 	H 	0.29610 0.64870 0.92020 0.05300
H 	H 	0.09380 0.41690 0.97640 0.05600
H 	H 	0.26860 0.46100 0.06320 0.03700
C 	C 	0.55510 0.36170 0.65480 0.27500
C 	C 	0.62450 0.41690 0.60770 0.02300
C 	C 	0.75180 0.48740 0.61530 -0.09400
C 	C 	0.84370 0.52040 0.67870 0.37300
C 	C 	0.79620 0.52480 0.56360 0.05300
C 	C 	0.72010 0.49350 0.50446 -0.09000
C 	C 	0.77640 0.53660 0.44940 0.36500
C 	C 	0.59310 0.42380 0.49910 0.01900
C 	C 	0.49200 0.37720 0.44080 0.28300
C 	C 	0.11430 0.18090 0.47730 0.11700
C 	C 	0.97930 0.12050 0.46850 -0.19700
C 	C 	0.92250 0.08190 0.51730 0.15700
C 	C 	0.00530 0.10750 0.57390 -0.20300
C 	C 	0.13840 0.16870 0.57890 0.11900
C 	C 	0.78010 0.01510 0.51080 -0.11000
C 	C 	0.69600 0.98820 0.46030 -0.05900
C 	C 	0.55390 0.92050 0.44810 0.08900
C 	C 	0.47880 0.90570 0.39100 -0.13700
C 	C 	0.34660 0.84100 0.37570 0.04700
C 	C 	0.29210 0.78910 0.41940 -0.09900
C 	C 	0.36720 0.80160 0.47740 0.02900
C 	C 	0.50030 0.86740 0.49190 -0.15100
C 	C 	0.15350 0.71600 0.40150 0.30000
C 	C 	0.15500 0.39470 0.75510 0.12000
C 	C 	0.24880 0.40420 0.80800 -0.20300
C 	C 	0.38570 0.45660 0.81030 0.17100
C 	C 	0.42150 0.49480 0.76020 -0.21000
C 	C 	0.32390 0.48130 0.70880 0.12600
C 	C 	0.49290 0.46800 0.86520 -0.12800
C 	C 	0.48140 0.42280 0.90890 -0.02000
C 	C 	0.59790 0.43460 0.95940 0.03800
C 	C 	0.56980 0.37490 0.00190 -0.07600
C 	C 	0.70510 0.39140 0.05250 -0.03300
C 	C 	0.82350 0.46560 0.05510 -0.00900
C 	C 	0.83340 0.52910 0.01740 -0.04100
C 	C 	0.71990 0.50330 0.96780 -0.05900
C 	C 	0.95460 0.49530 0.10810 0.20500
C 	C 	0.44490 0.63830 0.34520 0.27500
C 	C 	0.37550 0.58310 0.39230 0.02300
C 	C 	0.24820 0.51260 0.38470 -0.09400
C 	C 	0.15630 0.47960 0.32130 0.37300
C 	C 	0.20380 0.47520 0.43640 0.05300
C 	C 	0.27990 0.50650 0.49554 -0.09000
C 	C 	0.22360 0.46340 0.55060 0.36500
C 	C 	0.40690 0.57620 0.50090 0.01900
C 	C 	0.50800 0.62280 0.55920 0.28300
C 	C 	0.88570 0.81910 0.52270 0.11700
C 	C 	0.02070 0.87950 0.53150 -0.19700
C 	C 	0.07750 0.91810 0.48270 0.15700
C 	C 	0.99470 0.89250 0.42610 -0.20300
C 	C 	0.86160 0.83130 0.42110 0.11900
C 	C 	0.21990 0.98490 0.48920 -0.11000
C 	C 	0.30400 0.01180 0.53970 -0.05900
C 	C 	0.44610 0.07950 0.55190 0.08900
C 	C 	0.52120 0.09430 0.60900 -0.13700
C 	C 	0.65340 0.15900 0.62430 0.04700
C 	C 	0.70790 0.21090 0.58060 -0.09900
C 	C 	0.63280 0.19840 0.52260 0.02900
C 	C 	0.49970 0.13260 0.50810 -0.15100
C 	C 	0.84650 0.28400 0.59850 0.30000
C 	C 	0.84500 0.60530 0.24490 0.12000
C 	C 	0.75120 0.59580 0.19200 -0.20300
C 	C 	0.61430 0.54340 0.18970 0.17100
C 	C 	0.57850 0.50520 0.23980 -0.21000
C 	C 	0.67610 0.51870 0.29120 0.12600
C 	C 	0.50710 0.53200 0.13480 -0.12800
C 	C 	0.51860 0.57720 0.09110 -0.02000
C 	C 	0.40210 0.56540 0.04060 0.03800
C 	C 	0.43020 0.62510 0.99810 -0.07600
C 	C 	0.29490 0.60860 0.94750 -0.03300
C 	C 	0.17650 0.53440 0.94490 -0.00900
C 	C 	0.16660 0.47090 0.98260 -0.04100
C 	C 	0.28010 0.49670 0.03220 -0.05900
C 	C 	0.04540 0.50470 0.89190 0.20500
N 	N 	0.55260 0.39020 0.55013 -0.20300
N 	N 	0.19370 0.20470 0.53150 -0.24600
N 	N 	0.19090 0.43120 0.70558 -0.24400
N 	N 	0.44740 0.60980 0.44987 -0.20300
N 	N 	0.80630 0.79530 0.46850 -0.24600
N 	N 	0.80910 0.56880 0.29442 -0.24400
O 	O 	0.61620 0.37150 0.70805 -0.23500
O 	O 	0.43460 0.30400 0.63315 -0.35000
O 	O 	0.94540 0.49290 0.68627 -0.41200
O 	O 	0.81160 0.57220 0.71906 -0.42000
O 	O 	0.75480 0.60640 0.44147 -0.39600
O 	O 	0.85170 0.50213 0.41696 -0.37200
O 	O 	0.51320 0.40260 0.39082 -0.23600
O 	O 	0.38850 0.31152 0.45025 -0.35300
O 	O 	0.08330 0.70790 0.34860 -0.35300
O 	O 	0.10760 0.66022 0.43670 -0.34600
O 	O 	0.04750 0.57550 0.12100 -0.23500
O 	O 	0.93710 0.41530 0.13185 -0.38100
O 	O 	0.38380 0.62850 0.29195 -0.23500
O 	O 	0.56540 0.69600 0.36685 -0.35000
O 	O 	0.05460 0.50710 0.31373 -0.41200
O 	O 	0.18840 0.42780 0.28094 -0.42000
O 	O 	0.24520 0.39360 0.55853 -0.39600
O 	O 	0.14830 0.49787 0.58304 -0.37200
O 	O 	0.48680 0.59740 0.60918 -0.23600
O 	O 	0.61150 0.68848 0.54975 -0.35300
O 	O 	0.91670 0.29210 0.65140 -0.35300
O 	O 	0.89240 0.33978 0.56330 -0.34600
O 	O 	0.95250 0.42450 0.87900 -0.23500
O 	O 	0.06290 0.58470 0.86815 -0.38100
