data_crystal

_cell_length_a 6.26310
_cell_length_b 23.92830
_cell_length_c 23.92830
_cell_angle_alpha 60.75260
_cell_angle_beta  84.99470
_cell_angle_gamma 95.00530

_symmetry_space_group_name_	'P 1'
_symmetry_space_group_name_H-M	'P 1'

loop_
_symmetry_equiv_pos_as_xyz
  x,y,z

loop_
_atom_site_label
_atom_site_type_symbol
_atom_site_fract_x
_atom_site_fract_y
_atom_site_fract_z
_atom_site_charge
Co	Co	0.33980 0.72237 0.67227 1.13700
Co	Co	0.01207 0.67227 0.60536 1.13400
Co	Co	0.61743 0.60536 0.72237 1.13600
Co	Co	0.66020 0.27763 0.32773 1.13700
Co	Co	0.98793 0.32773 0.39464 1.13700
Co	Co	0.38257 0.39464 0.27763 1.13900
P 	P 	0.82629 0.75812 0.66845 0.36200
P 	P 	0.49474 0.66845 0.57343 0.35700
P 	P 	0.06817 0.57343 0.75812 0.35000
P 	P 	0.17371 0.24188 0.33155 0.36100
P 	P 	0.50526 0.33155 0.42657 0.35800
P 	P 	0.93183 0.42657 0.24188 0.35100
C 	C 	0.72760 0.81000 0.59820 -0.10600
C 	C 	0.41814 0.85169 0.53867 -0.03000
C 	C 	0.51561 0.92427 0.49224 -0.07600
C 	C 	0.46967 0.96367 0.52486 0.00700
C 	C 	0.53114 0.93511 0.59509 -0.07000
C 	C 	0.44891 0.86261 0.63818 -0.04300
C 	C 	0.32580 0.59820 0.59180 -0.10000
C 	C 	0.95681 0.53867 0.60964 -0.02500
C 	C 	0.00785 0.49224 0.58349 -0.08200
C 	C 	0.99453 0.52486 0.51147 0.01100
C 	C 	0.12623 0.59509 0.46980 -0.07000
C 	C 	0.08709 0.63818 0.49921 -0.05000
C 	C 	0.91760 0.59180 0.81000 -0.09400
C 	C 	0.56645 0.60964 0.85169 -0.03100
C 	C 	0.59134 0.58349 0.92427 -0.07500
C 	C 	0.50600 0.51147 0.96367 0.00700
C 	C 	0.59603 0.46980 0.93511 -0.06900
C 	C 	0.58630 0.49921 0.86261 -0.04400
C 	C 	0.27240 0.19000 0.40180 -0.09700
C 	C 	0.58186 0.14831 0.46133 -0.03200
C 	C 	0.48439 0.07573 0.50776 -0.07400
C 	C 	0.53033 0.03633 0.47514 0.00700
C 	C 	0.46886 0.06489 0.40491 -0.06900
C 	C 	0.55109 0.13739 0.36182 -0.04400
C 	C 	0.67420 0.40180 0.40820 -0.10600
C 	C 	0.04319 0.46133 0.39036 -0.02600
C 	C 	0.99215 0.50776 0.41651 -0.08000
C 	C 	0.00547 0.47514 0.48853 0.00800
C 	C 	0.87377 0.40491 0.53020 -0.07000
C 	C 	0.91291 0.36182 0.50079 -0.04900
C 	C 	0.08240 0.40820 0.19000 -0.09700
C 	C 	0.43355 0.39036 0.14831 -0.03200
C 	C 	0.40866 0.41651 0.07573 -0.07500
C 	C 	0.49400 0.48853 0.03633 0.00800
C 	C 	0.40397 0.53020 0.06489 -0.07000
C 	C 	0.41370 0.50079 0.13739 -0.04300
N 	N 	0.50104 0.82437 0.60375 -0.17300
N 	N 	0.10479 0.60375 0.57188 -0.17400
N 	N 	0.67667 0.57188 0.82437 -0.17300
N 	N 	0.49896 0.17563 0.39625 -0.17200
N 	N 	0.89521 0.39625 0.42812 -0.17400
N 	N 	0.32333 0.42812 0.17563 -0.17300
O 	O 	0.88563 0.78643 0.71404 -0.30800
O 	O 	0.04074 0.73677 0.64845 -0.51100
O 	O 	0.64511 0.69527 0.70124 -0.54000
O 	O 	0.59967 0.71404 0.49953 -0.30700
O 	O 	0.68919 0.64845 0.61478 -0.50900
O 	O 	0.34635 0.70124 0.60349 -0.54100
O 	O 	0.09920 0.49953 0.78643 -0.29700
O 	O 	0.30397 0.61478 0.73677 -0.51100
O 	O 	0.94984 0.60349 0.69527 -0.53100
O 	O 	0.11437 0.21357 0.28596 -0.29400
O 	O 	0.95926 0.26323 0.35155 -0.51500
O 	O 	0.35489 0.30473 0.29876 -0.53700
O 	O 	0.40033 0.28596 0.50047 -0.31200
O 	O 	0.31081 0.35155 0.38522 -0.50500
O 	O 	0.65365 0.29876 0.39651 -0.53600
O 	O 	0.90080 0.50047 0.21357 -0.31200
O 	O 	0.69603 0.38522 0.26323 -0.50600
O 	O 	0.05016 0.39651 0.30473 -0.53400
H 	H 	0.46387 0.82223 0.51493 0.02200
H 	H 	0.23402 0.84695 0.54786 0.02100
H 	H 	0.43944 0.94374 0.44592 0.03500
H 	H 	0.69835 0.92853 0.47977 0.04500
H 	H 	0.45941 0.96209 0.61868 0.03500
H 	H 	0.71501 0.94235 0.59203 0.04500
H 	H 	0.26588 0.85528 0.65246 0.02400
H 	H 	0.52877 0.84263 0.68385 0.01000
H 	H 	0.97880 0.51493 0.66284 0.03100
H 	H 	0.78187 0.54786 0.60520 0.02200
H 	H 	0.88536 0.44592 0.61034 0.03800
H 	H 	0.17812 0.47977 0.59170 0.04600
H 	H 	0.07808 0.61868 0.41923 0.03500
H 	H 	0.30704 0.59203 0.46562 0.04700
H 	H 	0.91834 0.65246 0.49226 0.02800
H 	H 	0.21262 0.68385 0.47351 0.02300
H 	H 	0.64164 0.66284 0.82223 0.02700
H 	H 	0.38707 0.60520 0.84695 0.02100
H 	H 	0.49569 0.61034 0.94374 0.03500
H 	H 	0.76982 0.59170 0.92853 0.04600
H 	H 	0.49732 0.41923 0.96209 0.03600
H 	H 	0.77266 0.46562 0.94235 0.04700
H 	H 	0.41060 0.49226 0.85528 0.01600
H 	H 	0.68613 0.47351 0.84263 0.02200
H 	H 	0.76603 0.15276 0.45288 0.02200
H 	H 	0.53495 0.17818 0.48449 0.03200
H 	H 	0.30173 0.07156 0.52028 0.04600
H 	H 	0.56073 0.05616 0.55405 0.03600
H 	H 	0.28494 0.05654 0.40858 0.04600
H 	H 	0.54256 0.03888 0.38050 0.03500
H 	H 	0.47233 0.15684 0.31596 0.02100
H 	H 	0.73444 0.14518 0.34790 0.01400
H 	H 	0.21891 0.45288 0.39436 0.02000
H 	H 	0.01944 0.48449 0.33733 0.02800
H 	H 	0.82201 0.52028 0.40816 0.04600
H 	H 	0.11479 0.55405 0.38979 0.03700
H 	H 	0.69352 0.40858 0.53488 0.04100
H 	H 	0.92306 0.38050 0.58061 0.03300
H 	H 	0.78829 0.31596 0.52720 0.01500
H 	H 	0.08234 0.34790 0.50692 0.02200
H 	H 	0.61327 0.39436 0.15276 0.02300
H 	H 	0.35677 0.33733 0.17818 0.03100
H 	H 	0.23017 0.40816 0.07156 0.04700
H 	H 	0.50458 0.38979 0.05616 0.03600
H 	H 	0.22840 0.53488 0.05654 0.04500
H 	H 	0.50368 0.58061 0.03888 0.03500
H 	H 	0.31549 0.52720 0.15684 0.00900
H 	H 	0.58926 0.50692 0.14518 0.02500
H 	H 	0.73525 0.79460 0.73539 0.10100
H 	H 	0.68064 0.76057 0.49266 0.09700
H 	H 	0.27403 0.49529 0.78761 0.07800
H 	H 	0.93641 0.20859 0.28612 0.07700
H 	H 	0.43254 0.31131 0.52794 0.10800
H 	H 	0.06121 0.53057 0.20160 0.10400
