data_crystal

_cell_length_a 12.33970
_cell_length_b 15.50500
_cell_length_c 18.94370
_cell_angle_alpha 90.00000
_cell_angle_beta  90.00000
_cell_angle_gamma 90.00000

_symmetry_space_group_name_	'P 1'
_symmetry_space_group_name_H-M	'P 1'

loop_
_symmetry_equiv_pos_as_xyz
  x,y,z

loop_
_atom_site_label
_atom_site_type_symbol
_atom_site_fract_x
_atom_site_fract_y
_atom_site_fract_z
_atom_site_charge
Cd	Cd	0.68866 0.78400 0.31782 1.20200
Cd	Cd	0.31134 0.28400 0.18218 1.20200
H 	H 	0.30700 0.07680 0.15810 0.02000
H 	H 	0.39570 0.95010 0.18440 0.07800
H 	H 	0.58070 0.08280 0.32040 0.08500
H 	H 	0.48790 0.20550 0.28940 0.00400
H 	H 	0.34510 0.17710 0.03430 0.01100
H 	H 	0.45970 0.15800 0.94030 0.07000
H 	H 	0.61590 0.37080 0.99960 0.07200
H 	H 	0.50060 0.38160 0.09370 0.00600
H 	H 	0.69300 0.57680 0.34190 0.02100
H 	H 	0.60430 0.45010 0.31560 0.07900
H 	H 	0.41930 0.58280 0.17960 0.08500
H 	H 	0.51210 0.70550 0.21060 0.00400
H 	H 	0.65490 0.67710 0.46570 0.01100
H 	H 	0.54030 0.65800 0.55970 0.07000
H 	H 	0.38410 0.87080 0.50040 0.07200
H 	H 	0.49940 0.88160 0.40630 0.00600
C 	C 	0.36330 0.07798 0.19072 0.04400
C 	C 	0.41608 0.00129 0.20631 -0.08400
C 	C 	0.49949 0.00244 0.25491 -0.01400
C 	C 	0.52584 0.08016 0.28683 -0.09100
C 	C 	0.46936 0.15357 0.26792 0.04400
C 	C 	0.56133 0.92144 0.27417 0.28700
C 	C 	0.40185 0.21581 0.02809 0.04900
C 	C 	0.47017 0.20392 0.97110 -0.08500
C 	C 	0.55386 0.26105 0.96064 -0.01000
C 	C 	0.56265 0.32916 0.00640 -0.08800
C 	C 	0.49217 0.33567 0.06258 0.05100
C 	C 	0.63778 0.24714 0.90394 0.27900
C 	C 	0.63670 0.57798 0.30928 0.04400
C 	C 	0.58392 0.50129 0.29369 -0.08400
C 	C 	0.50051 0.50244 0.24509 -0.01400
C 	C 	0.47416 0.58016 0.21317 -0.09100
C 	C 	0.53064 0.65357 0.23208 0.04400
C 	C 	0.43867 0.42144 0.22583 0.28700
C 	C 	0.59815 0.71581 0.47191 0.04900
C 	C 	0.52983 0.70392 0.52890 -0.08500
C 	C 	0.44614 0.76105 0.53936 -0.01000
C 	C 	0.43735 0.82916 0.49360 -0.08900
C 	C 	0.50783 0.83567 0.43742 0.05200
C 	C 	0.36222 0.74714 0.59606 0.27900
N 	N 	0.38933 0.15374 0.22034 -0.22700
N 	N 	0.41285 0.27958 0.07449 -0.21400
N 	N 	0.61067 0.65374 0.27966 -0.22700
N 	N 	0.58715 0.77958 0.42551 -0.21400
O 	O 	0.52159 0.84993 0.25883 -0.36600
O 	O 	0.64893 0.93015 0.30586 -0.38700
O 	O 	0.65422 0.17189 0.88337 -0.36700
O 	O 	0.69024 0.31116 0.88292 -0.37200
O 	O 	0.47841 0.34993 0.24117 -0.36600
O 	O 	0.35107 0.43015 0.19414 -0.38600
O 	O 	0.34578 0.67189 0.61663 -0.36700
O 	O 	0.30976 0.81116 0.61708 -0.37200
Cd	Cd	0.81134 0.21600 0.81782 1.20300
Cd	Cd	0.18866 0.71600 0.68218 1.20300
H 	H 	0.15490 0.82290 0.53430 0.01100
H 	H 	0.04030 0.84200 0.44030 0.07000
H 	H 	0.88410 0.62920 0.49960 0.07200
H 	H 	0.99940 0.61840 0.59370 0.00500
H 	H 	0.19300 0.92320 0.65810 0.02100
H 	H 	0.10430 0.04990 0.68440 0.07900
H 	H 	0.91930 0.91720 0.82040 0.08500
H 	H 	0.01210 0.79450 0.78940 0.00400
H 	H 	0.84510 0.32290 0.96570 0.01100
H 	H 	0.95970 0.34200 0.05970 0.06900
H 	H 	0.11590 0.12920 0.00040 0.07100
H 	H 	0.00060 0.11840 0.90630 0.00700
H 	H 	0.80700 0.42320 0.84190 0.02100
H 	H 	0.89570 0.54990 0.81560 0.07900
H 	H 	0.08070 0.41720 0.67960 0.08500
H 	H 	0.98790 0.29450 0.71060 0.00400
C 	C 	0.09815 0.78419 0.52809 0.04900
C 	C 	0.02983 0.79608 0.47110 -0.08500
C 	C 	0.94614 0.73895 0.46064 -0.01000
C 	C 	0.93735 0.67084 0.50640 -0.08900
C 	C 	0.00783 0.66433 0.56258 0.05200
C 	C 	0.86222 0.75286 0.40394 0.27900
C 	C 	0.13670 0.92202 0.69072 0.04500
C 	C 	0.08392 0.99871 0.70631 -0.08400
C 	C 	0.00051 0.99756 0.75491 -0.01200
C 	C 	0.97416 0.91984 0.78683 -0.09300
C 	C 	0.03064 0.84643 0.76792 0.04600
C 	C 	0.93867 0.07856 0.77417 0.28600
C 	C 	0.90185 0.28419 0.97191 0.04700
C 	C 	0.97017 0.29608 0.02890 -0.08200
C 	C 	0.05386 0.23895 0.03936 -0.01300
C 	C 	0.06265 0.17084 0.99360 -0.08500
C 	C 	0.99217 0.16433 0.93742 0.04900
C 	C 	0.13778 0.25286 0.09606 0.28000
C 	C 	0.86330 0.42202 0.80928 0.04400
C 	C 	0.91608 0.49871 0.79369 -0.08300
C 	C 	0.99949 0.49756 0.74509 -0.01500
C 	C 	0.02584 0.41984 0.71317 -0.09000
C 	C 	0.96936 0.34643 0.73208 0.04400
C 	C 	0.06133 0.57856 0.72583 0.28700
N 	N 	0.08715 0.72042 0.57449 -0.21400
N 	N 	0.11067 0.84626 0.72034 -0.22800
N 	N 	0.91285 0.22042 0.92551 -0.21300
N 	N 	0.88933 0.34626 0.77966 -0.22700
O 	O 	0.84578 0.82811 0.38337 -0.36700
O 	O 	0.80976 0.68884 0.38292 -0.37200
O 	O 	0.97841 0.15007 0.75883 -0.36600
O 	O 	0.85107 0.06985 0.80586 -0.38600
O 	O 	0.15422 0.32811 0.11663 -0.36700
O 	O 	0.19024 0.18884 0.11708 -0.37300
O 	O 	0.02159 0.65007 0.74117 -0.36600
O 	O 	0.14893 0.56985 0.69414 -0.38700
Cd	Cd	0.31134 0.21600 0.68218 1.20300
Cd	Cd	0.68866 0.71600 0.81782 1.20300
H 	H 	0.69300 0.92320 0.84190 0.02100
H 	H 	0.60430 0.04990 0.81560 0.07900
H 	H 	0.41930 0.91720 0.67960 0.08500
H 	H 	0.51210 0.79450 0.71060 0.00400
H 	H 	0.65490 0.82290 0.96570 0.01100
H 	H 	0.54030 0.84200 0.05970 0.07000
H 	H 	0.38410 0.62920 0.00040 0.07200
H 	H 	0.49940 0.61840 0.90630 0.00600
H 	H 	0.30700 0.42320 0.65810 0.02100
H 	H 	0.39570 0.54990 0.68440 0.07900
H 	H 	0.58070 0.41720 0.82040 0.08500
H 	H 	0.48790 0.29450 0.78940 0.00400
H 	H 	0.34510 0.32290 0.53430 0.01100
H 	H 	0.45970 0.34200 0.44030 0.07000
H 	H 	0.61590 0.12920 0.49960 0.07200
H 	H 	0.50060 0.11840 0.59370 0.00600
C 	C 	0.63670 0.92202 0.80928 0.04400
C 	C 	0.58392 0.99871 0.79369 -0.08400
C 	C 	0.50051 0.99756 0.74509 -0.01400
C 	C 	0.47416 0.91984 0.71317 -0.09100
C 	C 	0.53064 0.84643 0.73208 0.04400
C 	C 	0.43867 0.07856 0.72583 0.28700
C 	C 	0.59815 0.78419 0.97191 0.04900
C 	C 	0.52983 0.79608 0.02890 -0.08500
C 	C 	0.44614 0.73895 0.03936 -0.01000
C 	C 	0.43735 0.67084 0.99360 -0.08800
C 	C 	0.50783 0.66433 0.93742 0.05100
C 	C 	0.36222 0.75286 0.09606 0.27900
C 	C 	0.36330 0.42202 0.69072 0.04400
C 	C 	0.41608 0.49871 0.70631 -0.08400
C 	C 	0.49949 0.49756 0.75491 -0.01400
C 	C 	0.52584 0.41984 0.78683 -0.09100
C 	C 	0.46936 0.34643 0.76792 0.04400
C 	C 	0.56133 0.57856 0.77417 0.28700
C 	C 	0.40185 0.28419 0.52809 0.04900
C 	C 	0.47017 0.29608 0.47110 -0.08500
C 	C 	0.55386 0.23895 0.46064 -0.01000
C 	C 	0.56265 0.17084 0.50640 -0.08900
C 	C 	0.49217 0.16433 0.56258 0.05200
C 	C 	0.63778 0.25286 0.40394 0.27900
N 	N 	0.61067 0.84626 0.77966 -0.22700
N 	N 	0.58715 0.72042 0.92551 -0.21400
N 	N 	0.38933 0.34626 0.72034 -0.22700
N 	N 	0.41285 0.22042 0.57449 -0.21400
O 	O 	0.47841 0.15007 0.74117 -0.36600
O 	O 	0.35107 0.06985 0.69414 -0.38700
O 	O 	0.34578 0.82811 0.11663 -0.36700
O 	O 	0.30976 0.68884 0.11708 -0.37200
O 	O 	0.52159 0.65007 0.75883 -0.36600
O 	O 	0.64893 0.56985 0.80586 -0.38600
O 	O 	0.65422 0.32811 0.38337 -0.36700
O 	O 	0.69024 0.18884 0.38292 -0.37200
Cd	Cd	0.18866 0.78400 0.18218 1.20300
Cd	Cd	0.81134 0.28400 0.31782 1.20300
H 	H 	0.84510 0.17710 0.46570 0.01100
H 	H 	0.95970 0.15800 0.55970 0.07000
H 	H 	0.11590 0.37080 0.50040 0.07200
H 	H 	0.00060 0.38160 0.40630 0.00500
H 	H 	0.80700 0.07680 0.34190 0.02100
H 	H 	0.89570 0.95010 0.31560 0.07900
H 	H 	0.08070 0.08280 0.17960 0.08500
H 	H 	0.98790 0.20550 0.21060 0.00400
H 	H 	0.15490 0.67710 0.03430 0.01100
H 	H 	0.04030 0.65800 0.94030 0.06900
H 	H 	0.88410 0.87080 0.99960 0.07100
H 	H 	0.99940 0.88160 0.09370 0.00700
H 	H 	0.19300 0.57680 0.15810 0.02100
H 	H 	0.10430 0.45010 0.18440 0.07900
H 	H 	0.91930 0.58280 0.32040 0.08500
H 	H 	0.01210 0.70550 0.28940 0.00400
C 	C 	0.90185 0.21581 0.47191 0.04900
C 	C 	0.97017 0.20392 0.52890 -0.08500
C 	C 	0.05386 0.26105 0.53936 -0.01000
C 	C 	0.06265 0.32916 0.49360 -0.08900
C 	C 	0.99217 0.33567 0.43742 0.05200
C 	C 	0.13778 0.24714 0.59606 0.27900
C 	C 	0.86330 0.07798 0.30928 0.04500
C 	C 	0.91608 0.00129 0.29369 -0.08400
C 	C 	0.99949 0.00244 0.24509 -0.01200
C 	C 	0.02584 0.08016 0.21317 -0.09300
C 	C 	0.96936 0.15357 0.23208 0.04600
C 	C 	0.06133 0.92144 0.22583 0.28600
C 	C 	0.09815 0.71581 0.02809 0.04700
C 	C 	0.02983 0.70392 0.97110 -0.08200
C 	C 	0.94614 0.76105 0.96064 -0.01300
C 	C 	0.93735 0.82916 0.00640 -0.08500
C 	C 	0.00783 0.83567 0.06258 0.04900
C 	C 	0.86222 0.74714 0.90394 0.28000
C 	C 	0.13670 0.57798 0.19072 0.04400
C 	C 	0.08392 0.50129 0.20631 -0.08300
C 	C 	0.00051 0.50244 0.25491 -0.01500
C 	C 	0.97416 0.58016 0.28683 -0.09000
C 	C 	0.03064 0.65357 0.26792 0.04400
C 	C 	0.93867 0.42144 0.27417 0.28700
N 	N 	0.91285 0.27958 0.42551 -0.21400
N 	N 	0.88933 0.15374 0.27966 -0.22800
N 	N 	0.08715 0.77958 0.07449 -0.21300
N 	N 	0.11067 0.65374 0.22034 -0.22700
O 	O 	0.15422 0.17189 0.61663 -0.36700
O 	O 	0.19024 0.31116 0.61708 -0.37200
O 	O 	0.02159 0.84993 0.24117 -0.36600
O 	O 	0.14893 0.93015 0.19414 -0.38600
O 	O 	0.84578 0.67189 0.88337 -0.36700
O 	O 	0.80976 0.81116 0.88292 -0.37300
O 	O 	0.97841 0.34993 0.25883 -0.36600
O 	O 	0.85107 0.43015 0.30586 -0.38700
