data_crystal

_cell_length_a 13.75610
_cell_length_b 13.75610
_cell_length_c 25.53060
_cell_angle_alpha 90.00000
_cell_angle_beta  90.00000
_cell_angle_gamma 90.00000

_symmetry_space_group_name_	'P 1'
_symmetry_space_group_name_H-M	'P 1'

loop_
_symmetry_equiv_pos_as_xyz
  x,y,z

loop_
_atom_site_label
_atom_site_type_symbol
_atom_site_fract_x
_atom_site_fract_y
_atom_site_fract_z
_atom_site_charge
Cu	Cu	0.90661 0.75074 0.52373 0.89600
Cu	Cu	0.09339 0.24926 0.52373 0.89600
Cu	Cu	0.25074 0.40661 0.97627 0.89600
Cu	Cu	0.74926 0.59339 0.97627 0.89600
H 	H 	0.80290 0.79730 0.44290 0.13500
H 	H 	0.95390 0.74340 0.40030 -0.02200
H 	H 	0.91910 0.94370 0.39460 0.22100
H 	H 	0.98230 0.88380 0.35500 0.21200
H 	H 	0.86980 0.86660 0.35800 0.21400
H 	H 	0.87860 0.75570 0.63790 -0.01500
H 	H 	0.94260 0.69320 0.71340 0.09000
H 	H 	0.14850 0.56730 0.62730 0.09100
H 	H 	0.07470 0.63270 0.55270 -0.02600
H 	H 	0.15400 0.53850 0.72000 0.05800
H 	H 	0.69740 0.80020 0.54140 -0.02200
H 	H 	0.55500 0.73340 0.55420 0.09400
H 	H 	0.69190 0.47320 0.56180 0.08600
H 	H 	0.83510 0.55720 0.54710 -0.02900
H 	H 	0.45330 0.58610 0.57110 0.05600
H 	H 	0.19710 0.20270 0.44290 0.13600
H 	H 	0.04610 0.25660 0.40030 -0.02100
H 	H 	0.08090 0.05630 0.39460 0.22200
H 	H 	0.01770 0.11620 0.35500 0.21300
H 	H 	0.13020 0.13340 0.35800 0.21400
H 	H 	0.12140 0.24430 0.63790 -0.01500
H 	H 	0.05740 0.30680 0.71340 0.09000
H 	H 	0.85150 0.43270 0.62730 0.09100
H 	H 	0.92530 0.36730 0.55270 -0.02600
H 	H 	0.84600 0.46150 0.72000 0.05800
H 	H 	0.30260 0.19980 0.54140 -0.02200
H 	H 	0.44500 0.26660 0.55420 0.09400
H 	H 	0.30810 0.52680 0.56180 0.08600
H 	H 	0.16490 0.44280 0.54710 -0.02900
H 	H 	0.54670 0.41390 0.57110 0.05600
H 	H 	0.29730 0.30290 0.05710 0.13600
H 	H 	0.24340 0.45390 0.09970 -0.02100
H 	H 	0.44370 0.41910 0.10540 0.22200
H 	H 	0.38380 0.48230 0.14500 0.21300
H 	H 	0.36660 0.36980 0.14200 0.21400
H 	H 	0.25570 0.37860 0.86210 -0.01500
H 	H 	0.19320 0.44260 0.78660 0.09000
H 	H 	0.06730 0.64850 0.87270 0.09100
H 	H 	0.13270 0.57470 0.94730 -0.02600
H 	H 	0.03850 0.65400 0.78000 0.05800
H 	H 	0.30020 0.19740 0.95860 -0.02200
H 	H 	0.23340 0.05500 0.94580 0.09400
H 	H 	0.97320 0.19190 0.93820 0.08600
H 	H 	0.05720 0.33510 0.95290 -0.02900
H 	H 	0.08610 0.95330 0.92890 0.05600
H 	H 	0.70270 0.69710 0.05710 0.13600
H 	H 	0.75660 0.54610 0.09970 -0.02100
H 	H 	0.55630 0.58090 0.10540 0.22200
H 	H 	0.61620 0.51770 0.14500 0.21300
H 	H 	0.63340 0.63020 0.14200 0.21400
H 	H 	0.74430 0.62140 0.86210 -0.01500
H 	H 	0.80680 0.55740 0.78660 0.09000
H 	H 	0.93270 0.35150 0.87270 0.09100
H 	H 	0.86730 0.42530 0.94730 -0.02600
H 	H 	0.96150 0.34600 0.78000 0.05800
H 	H 	0.69980 0.80260 0.95860 -0.02200
H 	H 	0.76660 0.94500 0.94580 0.09400
H 	H 	0.02680 0.80810 0.93820 0.08600
H 	H 	0.94280 0.66490 0.95290 -0.02900
H 	H 	0.91390 0.04670 0.92890 0.05600
C 	C 	0.03950 0.82890 0.45130 0.27500
C 	C 	0.94250 0.80480 0.41880 0.12500
C 	C 	0.92700 0.88160 0.37790 -0.62700
C 	C 	0.93340 0.71630 0.63570 0.10700
C 	C 	0.97200 0.68010 0.68140 -0.19200
C 	C 	0.05680 0.62270 0.67900 0.13100
C 	C 	0.09310 0.60550 0.63090 -0.19300
C 	C 	0.04800 0.64500 0.58560 0.10000
C 	C 	0.10420 0.58300 0.72550 -0.09600
C 	C 	0.69580 0.73300 0.54490 0.12600
C 	C 	0.61030 0.69450 0.55340 -0.20800
C 	C 	0.60310 0.59430 0.56150 0.12100
C 	C 	0.69140 0.54040 0.55790 -0.17700
C 	C 	0.77710 0.59190 0.54820 0.09100
C 	C 	0.50740 0.54620 0.56720 -0.08800
C 	C 	0.96050 0.17110 0.45130 0.27500
C 	C 	0.05750 0.19520 0.41880 0.12500
C 	C 	0.07300 0.11840 0.37790 -0.62700
C 	C 	0.06660 0.28370 0.63570 0.10700
C 	C 	0.02800 0.31990 0.68140 -0.19200
C 	C 	0.94320 0.37730 0.67900 0.13100
C 	C 	0.90690 0.39450 0.63090 -0.19300
C 	C 	0.95200 0.35500 0.58560 0.10000
C 	C 	0.89580 0.41700 0.72550 -0.09600
C 	C 	0.30420 0.26700 0.54490 0.12600
C 	C 	0.38970 0.30550 0.55340 -0.20800
C 	C 	0.39690 0.40570 0.56150 0.12100
C 	C 	0.30860 0.45960 0.55790 -0.17700
C 	C 	0.22290 0.40810 0.54820 0.09100
C 	C 	0.49260 0.45380 0.56720 -0.08800
C 	C 	0.32890 0.53950 0.04870 0.27500
C 	C 	0.30480 0.44250 0.08120 0.12500
C 	C 	0.38160 0.42700 0.12210 -0.62700
C 	C 	0.21630 0.43340 0.86430 0.10700
C 	C 	0.18010 0.47200 0.81860 -0.19200
C 	C 	0.12270 0.55680 0.82100 0.13100
C 	C 	0.10550 0.59310 0.86910 -0.19300
C 	C 	0.14500 0.54800 0.91440 0.10000
C 	C 	0.08300 0.60420 0.77450 -0.09600
C 	C 	0.23300 0.19580 0.95510 0.12600
C 	C 	0.19450 0.11030 0.94660 -0.20800
C 	C 	0.09430 0.10310 0.93850 0.12100
C 	C 	0.04040 0.19140 0.94210 -0.17700
C 	C 	0.09190 0.27710 0.95180 0.09100
C 	C 	0.04620 0.00740 0.93280 -0.08800
C 	C 	0.67110 0.46050 0.04870 0.27500
C 	C 	0.69520 0.55750 0.08120 0.12500
C 	C 	0.61840 0.57300 0.12210 -0.62700
C 	C 	0.78370 0.56660 0.86430 0.10700
C 	C 	0.81990 0.52800 0.81860 -0.19200
C 	C 	0.87730 0.44320 0.82100 0.13100
C 	C 	0.89450 0.40690 0.86910 -0.19300
C 	C 	0.85500 0.45200 0.91440 0.10000
C 	C 	0.91700 0.39580 0.77450 -0.09600
C 	C 	0.76700 0.80420 0.95510 0.12600
C 	C 	0.80550 0.88970 0.94660 -0.20800
C 	C 	0.90570 0.89690 0.93850 0.12100
C 	C 	0.95960 0.80860 0.94210 -0.17700
C 	C 	0.90810 0.72290 0.95180 0.09100
C 	C 	0.95380 0.99260 0.93280 -0.08800
N 	N 	0.96960 0.69840 0.58920 -0.23900
N 	N 	0.78090 0.68730 0.54050 -0.25200
N 	N 	0.86260 0.79020 0.45200 -0.30000
N 	N 	0.03040 0.30160 0.58920 -0.23900
N 	N 	0.21910 0.31270 0.54050 -0.25200
N 	N 	0.13740 0.20980 0.45200 -0.30000
N 	N 	0.19840 0.46960 0.91080 -0.23900
N 	N 	0.18730 0.28090 0.95950 -0.25200
N 	N 	0.29020 0.36260 0.04800 -0.30000
N 	N 	0.80160 0.53040 0.91080 -0.23900
N 	N 	0.81270 0.71910 0.95950 -0.25200
N 	N 	0.70980 0.63740 0.04800 -0.30000
O 	O 	0.03030 0.79830 0.49930 -0.39300
O 	O 	0.10940 0.86390 0.43180 -0.35400
O 	O 	0.96970 0.20170 0.49930 -0.39300
O 	O 	0.89060 0.13610 0.43180 -0.35400
O 	O 	0.29830 0.53030 0.00070 -0.39300
O 	O 	0.36390 0.60940 0.06820 -0.35400
O 	O 	0.70170 0.46970 0.00070 -0.39300
O 	O 	0.63610 0.39060 0.06820 -0.35400
Cu	Cu	0.75074 0.09339 0.47627 0.89700
Cu	Cu	0.24926 0.90661 0.47627 0.89700
Cu	Cu	0.40661 0.74926 0.02373 0.89700
Cu	Cu	0.59339 0.25074 0.02373 0.89700
H 	H 	0.79730 0.19710 0.55710 0.13600
H 	H 	0.74340 0.04610 0.59970 -0.02100
H 	H 	0.94370 0.08090 0.60540 0.22200
H 	H 	0.88380 0.01770 0.64500 0.21300
H 	H 	0.86660 0.13020 0.64200 0.21400
H 	H 	0.75570 0.12140 0.36210 -0.01500
H 	H 	0.69320 0.05740 0.28660 0.09000
H 	H 	0.56730 0.85150 0.37270 0.09100
H 	H 	0.63270 0.92530 0.44730 -0.02600
H 	H 	0.53850 0.84600 0.28000 0.05800
H 	H 	0.80020 0.30260 0.45860 -0.02200
H 	H 	0.73340 0.44500 0.44580 0.09400
H 	H 	0.47320 0.30810 0.43820 0.08600
H 	H 	0.55720 0.16490 0.45290 -0.02900
H 	H 	0.58610 0.54670 0.42890 0.05600
H 	H 	0.20270 0.80290 0.55710 0.13600
H 	H 	0.25660 0.95390 0.59970 -0.02100
H 	H 	0.05630 0.91910 0.60540 0.22200
H 	H 	0.11620 0.98230 0.64500 0.21300
H 	H 	0.13340 0.86980 0.64200 0.21400
H 	H 	0.24430 0.87860 0.36210 -0.01500
H 	H 	0.30680 0.94260 0.28660 0.09000
H 	H 	0.43270 0.14850 0.37270 0.09100
H 	H 	0.36730 0.07470 0.44730 -0.02600
H 	H 	0.46150 0.15400 0.28000 0.05800
H 	H 	0.19980 0.69740 0.45860 -0.02200
H 	H 	0.26660 0.55500 0.44580 0.09400
H 	H 	0.52680 0.69190 0.43820 0.08600
H 	H 	0.44280 0.83510 0.45290 -0.02900
H 	H 	0.41390 0.45330 0.42890 0.05600
H 	H 	0.30290 0.70270 0.94290 0.13600
H 	H 	0.45390 0.75660 0.90030 -0.02100
H 	H 	0.41910 0.55630 0.89460 0.22200
H 	H 	0.48230 0.61620 0.85500 0.21300
H 	H 	0.36980 0.63340 0.85800 0.21400
H 	H 	0.37860 0.74430 0.13790 -0.01500
H 	H 	0.44260 0.80680 0.21340 0.09000
H 	H 	0.64850 0.93270 0.12730 0.09100
H 	H 	0.57470 0.86730 0.05270 -0.02600
H 	H 	0.65400 0.96150 0.22000 0.05800
H 	H 	0.19740 0.69980 0.04140 -0.02200
H 	H 	0.05500 0.76660 0.05420 0.09400
H 	H 	0.19190 0.02680 0.06180 0.08600
H 	H 	0.33510 0.94280 0.04710 -0.02900
H 	H 	0.95330 0.91390 0.07110 0.05600
H 	H 	0.69710 0.29730 0.94290 0.13600
H 	H 	0.54610 0.24340 0.90030 -0.02100
H 	H 	0.58090 0.44370 0.89460 0.22200
H 	H 	0.51770 0.38380 0.85500 0.21300
H 	H 	0.63020 0.36660 0.85800 0.21400
H 	H 	0.62140 0.25570 0.13790 -0.01500
H 	H 	0.55740 0.19320 0.21340 0.09000
H 	H 	0.35150 0.06730 0.12730 0.09100
H 	H 	0.42530 0.13270 0.05270 -0.02600
H 	H 	0.34600 0.03850 0.22000 0.05800
H 	H 	0.80260 0.30020 0.04140 -0.02200
H 	H 	0.94500 0.23340 0.05420 0.09400
H 	H 	0.80810 0.97320 0.06180 0.08600
H 	H 	0.66490 0.05720 0.04710 -0.02900
H 	H 	0.04670 0.08610 0.07110 0.05600
C 	C 	0.82890 0.96050 0.54870 0.27500
C 	C 	0.80480 0.05750 0.58120 0.12500
C 	C 	0.88160 0.07300 0.62210 -0.62700
C 	C 	0.71630 0.06660 0.36430 0.10700
C 	C 	0.68010 0.02800 0.31860 -0.19200
C 	C 	0.62270 0.94320 0.32100 0.13100
C 	C 	0.60550 0.90690 0.36910 -0.19300
C 	C 	0.64500 0.95200 0.41440 0.10000
C 	C 	0.58300 0.89580 0.27450 -0.09600
C 	C 	0.73300 0.30420 0.45510 0.12600
C 	C 	0.69450 0.38970 0.44660 -0.20800
C 	C 	0.59430 0.39690 0.43850 0.12100
C 	C 	0.54040 0.30860 0.44210 -0.17700
C 	C 	0.59190 0.22290 0.45180 0.09100
C 	C 	0.54620 0.49260 0.43280 -0.08800
C 	C 	0.17110 0.03950 0.54870 0.27500
C 	C 	0.19520 0.94250 0.58120 0.12500
C 	C 	0.11840 0.92700 0.62210 -0.62700
C 	C 	0.28370 0.93340 0.36430 0.10700
C 	C 	0.31990 0.97200 0.31860 -0.19200
C 	C 	0.37730 0.05680 0.32100 0.13100
C 	C 	0.39450 0.09310 0.36910 -0.19300
C 	C 	0.35500 0.04800 0.41440 0.10000
C 	C 	0.41700 0.10420 0.27450 -0.09600
C 	C 	0.26700 0.69580 0.45510 0.12600
C 	C 	0.30550 0.61030 0.44660 -0.20800
C 	C 	0.40570 0.60310 0.43850 0.12100
C 	C 	0.45960 0.69140 0.44210 -0.17700
C 	C 	0.40810 0.77710 0.45180 0.09100
C 	C 	0.45380 0.50740 0.43280 -0.08800
C 	C 	0.53950 0.67110 0.95130 0.27500
C 	C 	0.44250 0.69520 0.91880 0.12500
C 	C 	0.42700 0.61840 0.87790 -0.62700
C 	C 	0.43340 0.78370 0.13570 0.10700
C 	C 	0.47200 0.81990 0.18140 -0.19200
C 	C 	0.55680 0.87730 0.17900 0.13100
C 	C 	0.59310 0.89450 0.13090 -0.19300
C 	C 	0.54800 0.85500 0.08560 0.10000
C 	C 	0.60420 0.91700 0.22550 -0.09600
C 	C 	0.19580 0.76700 0.04490 0.12600
C 	C 	0.11030 0.80550 0.05340 -0.20800
C 	C 	0.10310 0.90570 0.06150 0.12100
C 	C 	0.19140 0.95960 0.05790 -0.17700
C 	C 	0.27710 0.90810 0.04820 0.09100
C 	C 	0.00740 0.95380 0.06720 -0.08800
C 	C 	0.46050 0.32890 0.95130 0.27500
C 	C 	0.55750 0.30480 0.91880 0.12500
C 	C 	0.57300 0.38160 0.87790 -0.62700
C 	C 	0.56660 0.21630 0.13570 0.10700
C 	C 	0.52800 0.18010 0.18140 -0.19200
C 	C 	0.44320 0.12270 0.17900 0.13100
C 	C 	0.40690 0.10550 0.13090 -0.19300
C 	C 	0.45200 0.14500 0.08560 0.10000
C 	C 	0.39580 0.08300 0.22550 -0.09600
C 	C 	0.80420 0.23300 0.04490 0.12600
C 	C 	0.88970 0.19450 0.05340 -0.20800
C 	C 	0.89690 0.09430 0.06150 0.12100
C 	C 	0.80860 0.04040 0.05790 -0.17700
C 	C 	0.72290 0.09190 0.04820 0.09100
C 	C 	0.99260 0.04620 0.06720 -0.08800
N 	N 	0.69840 0.03040 0.41080 -0.23900
N 	N 	0.68730 0.21910 0.45950 -0.25200
N 	N 	0.79020 0.13740 0.54800 -0.30000
N 	N 	0.30160 0.96960 0.41080 -0.23900
N 	N 	0.31270 0.78090 0.45950 -0.25200
N 	N 	0.20980 0.86260 0.54800 -0.30000
N 	N 	0.46960 0.80160 0.08920 -0.23900
N 	N 	0.28090 0.81270 0.04050 -0.25200
N 	N 	0.36260 0.70980 0.95200 -0.30000
N 	N 	0.53040 0.19840 0.08920 -0.23900
N 	N 	0.71910 0.18730 0.04050 -0.25200
N 	N 	0.63740 0.29020 0.95200 -0.30000
O 	O 	0.79830 0.96970 0.50070 -0.39300
O 	O 	0.86390 0.89060 0.56820 -0.35400
O 	O 	0.20170 0.03030 0.50070 -0.39300
O 	O 	0.13610 0.10940 0.56820 -0.35400
O 	O 	0.53030 0.70170 0.99930 -0.39300
O 	O 	0.60940 0.63610 0.93180 -0.35400
O 	O 	0.46970 0.29830 0.99930 -0.39300
O 	O 	0.39060 0.36390 0.93180 -0.35400
