data_crystal

_cell_length_a 12.77080
_cell_length_b 14.52980
_cell_length_c 18.85870
_cell_angle_alpha 82.78400
_cell_angle_beta  72.17900
_cell_angle_gamma 79.38500

_symmetry_space_group_name_	'P 1'
_symmetry_space_group_name_H-M	'P 1'

loop_
_symmetry_equiv_pos_as_xyz
  x,y,z

loop_
_atom_site_label
_atom_site_type_symbol
_atom_site_fract_x
_atom_site_fract_y
_atom_site_fract_z
_atom_site_charge
U 	U 	0.44747 0.42254 0.10254 0.01200
U 	U 	0.53863 0.83537 0.10276 0.02200
U 	U 	0.28638 0.05132 0.26346 0.01900
U 	U 	0.18149 0.83431 0.46400 0.01700
U 	U 	0.13028 0.41650 0.42757 0.00600
U 	U 	0.55253 0.57746 0.89746 0.01200
U 	U 	0.46137 0.16463 0.89724 0.02200
U 	U 	0.71362 0.94868 0.73654 0.01900
U 	U 	0.81851 0.16569 0.53600 0.01700
U 	U 	0.86972 0.58351 0.57243 0.00600
Mn	Mn	0.61878 0.47025 0.24818 1.32200
Mn	Mn	0.43715 0.48159 0.43087 1.28600
Mn	Mn	0.38122 0.52975 0.75182 1.32200
Mn	Mn	0.56285 0.51841 0.56913 1.28600
P 	P 	0.60251 0.57485 0.08495 0.46600
P 	P 	0.41353 0.35979 0.30446 0.45100
P 	P 	0.35642 0.20032 0.09422 0.43700
P 	P 	0.41046 0.82434 0.29830 0.46400
P 	P 	0.06904 0.19813 0.38649 0.43900
P 	P 	0.82062 0.42557 0.49303 0.47700
P 	P 	0.39749 0.42515 0.91505 0.46600
P 	P 	0.58647 0.64021 0.69554 0.45100
P 	P 	0.64358 0.79968 0.90578 0.43700
P 	P 	0.58954 0.17566 0.70170 0.46400
P 	P 	0.93096 0.80187 0.61351 0.43900
P 	P 	0.17938 0.57443 0.50697 0.47700
H 	H 	0.78220 0.57940 0.00850 0.21800
H 	H 	0.76760 0.47420 0.04240 0.20500
H 	H 	0.47840 0.20160 0.32150 0.19700
H 	H 	0.53550 0.26220 0.36000 0.16000
H 	H 	0.50310 0.16250 0.14810 0.19600
H 	H 	0.55130 0.17030 0.05880 0.20100
H 	H 	0.51660 0.78470 0.38050 0.18400
H 	H 	0.59460 0.77910 0.29610 0.20000
H 	H 	0.11350 0.16680 0.49990 0.18600
H 	H 	0.22520 0.16150 0.43140 0.17600
H 	H 	0.86050 0.42230 0.36550 0.23300
H 	H 	0.81040 0.52660 0.39000 0.20200
H 	H 	0.21780 0.42060 0.99150 0.21800
H 	H 	0.23240 0.52580 0.95760 0.20500
H 	H 	0.52160 0.79840 0.67850 0.19700
H 	H 	0.46450 0.73780 0.64000 0.16000
H 	H 	0.49690 0.83750 0.85190 0.19600
H 	H 	0.44870 0.82970 0.94120 0.20100
H 	H 	0.48340 0.21530 0.61950 0.18400
H 	H 	0.40540 0.22090 0.70390 0.20000
H 	H 	0.88650 0.83320 0.50010 0.18600
H 	H 	0.77480 0.83850 0.56860 0.17600
H 	H 	0.13950 0.57770 0.63450 0.23300
H 	H 	0.18960 0.47340 0.61000 0.20200
C 	C 	0.75030 0.54070 0.05450 -0.47900
C 	C 	0.80420 0.55260 0.11500 0.44500
C 	C 	0.51360 0.25870 0.31460 -0.48300
C 	C 	0.61750 0.24970 0.24780 0.43200
C 	C 	0.49320 0.14600 0.10140 -0.41700
C 	C 	0.50650 0.04200 0.10140 0.39000
C 	C 	0.52370 0.76340 0.33110 -0.46200
C 	C 	0.52680 0.65710 0.33810 0.48300
C 	C 	0.14980 0.14350 0.44970 -0.40300
C 	C 	0.15940 0.03890 0.45510 0.38000
C 	C 	0.80150 0.45970 0.40290 -0.53500
C 	C 	0.68950 0.44710 0.39760 0.52200
C 	C 	0.24970 0.45930 0.94550 -0.47900
C 	C 	0.19580 0.44740 0.88500 0.44500
C 	C 	0.48640 0.74130 0.68540 -0.48300
C 	C 	0.38250 0.75030 0.75220 0.43200
C 	C 	0.50680 0.85400 0.89860 -0.41700
C 	C 	0.49350 0.95800 0.89860 0.39000
C 	C 	0.47630 0.23660 0.66890 -0.46200
C 	C 	0.47320 0.34290 0.66190 0.48300
C 	C 	0.85020 0.85650 0.55030 -0.40300
C 	C 	0.84060 0.96110 0.54490 0.38000
C 	C 	0.19850 0.54030 0.59710 -0.53500
C 	C 	0.31050 0.55290 0.60240 0.52200
O 	O 	0.57890 0.67590 0.09990 -0.18300
O 	O 	0.55350 0.55110 0.02560 -0.15500
O 	O 	0.55270 0.51000 0.15370 -0.33000
O 	O 	0.77720 0.50470 0.17590 -0.39600
O 	O 	0.87490 0.60870 0.10000 -0.22700
O 	O 	0.40860 0.36780 0.22420 -0.18400
O 	O 	0.30200 0.34750 0.36180 -0.21400
O 	O 	0.45650 0.44520 0.31990 -0.52000
O 	O 	0.65380 0.17130 0.22170 -0.24000
O 	O 	0.66140 0.32430 0.21870 -0.37400
O 	O 	0.34520 0.30530 0.10090 -0.17000
O 	O 	0.27260 0.15340 0.15860 -0.14900
O 	O 	0.34450 0.17760 0.01750 -0.14400
O 	O 	0.57790 0.99740 0.05010 -0.18800
O 	O 	0.44190 0.99590 0.15450 -0.17500
O 	O 	0.30190 0.79830 0.35030 -0.16000
O 	O 	0.42770 0.79730 0.21990 -0.15900
O 	O 	0.41360 0.92930 0.29880 -0.16700
O 	O 	0.46160 0.62260 0.39540 -0.45900
O 	O 	0.59380 0.61060 0.28520 -0.44200
O 	O 	0.07460 0.30310 0.37820 -0.17300
O 	O 	0.12400 0.15240 0.31250 -0.15200
O 	O 	0.94810 0.17820 0.41900 -0.15300
O 	O 	0.11830 0.99280 0.51370 -0.20000
O 	O 	0.21150 0.99470 0.39530 -0.17600
O 	O 	0.80570 0.32480 0.51340 -0.18700
O 	O 	0.93470 0.44800 0.48930 -0.16200
O 	O 	0.73980 0.49400 0.54900 -0.35300
O 	O 	0.60340 0.47080 0.45020 -0.58400
O 	O 	0.68730 0.41310 0.33960 -0.47300
O 	O 	0.42110 0.32410 0.90010 -0.18300
O 	O 	0.44650 0.44890 0.97440 -0.15500
O 	O 	0.44730 0.49000 0.84630 -0.33000
O 	O 	0.22280 0.49530 0.82410 -0.39600
O 	O 	0.12510 0.39130 0.90000 -0.22700
O 	O 	0.59140 0.63220 0.77580 -0.18400
O 	O 	0.69800 0.65250 0.63820 -0.21400
O 	O 	0.54350 0.55480 0.68010 -0.52000
O 	O 	0.34620 0.82870 0.77830 -0.24000
O 	O 	0.33860 0.67570 0.78130 -0.37400
O 	O 	0.65480 0.69470 0.89910 -0.17000
O 	O 	0.72740 0.84660 0.84140 -0.14900
O 	O 	0.65550 0.82240 0.98250 -0.14400
O 	O 	0.42210 0.00260 0.94990 -0.18800
O 	O 	0.55810 0.00410 0.84550 -0.17500
O 	O 	0.69810 0.20170 0.64970 -0.16000
O 	O 	0.57230 0.20270 0.78010 -0.15900
O 	O 	0.58640 0.07070 0.70120 -0.16700
O 	O 	0.53840 0.37740 0.60460 -0.45900
O 	O 	0.40620 0.38940 0.71480 -0.44200
O 	O 	0.92540 0.69690 0.62180 -0.17300
O 	O 	0.87600 0.84760 0.68750 -0.15200
O 	O 	0.05190 0.82180 0.58100 -0.15300
O 	O 	0.88170 0.00720 0.48630 -0.20000
O 	O 	0.78850 0.00530 0.60470 -0.17600
O 	O 	0.19430 0.67520 0.48660 -0.18700
O 	O 	0.06530 0.55200 0.51070 -0.16200
O 	O 	0.26020 0.50600 0.45100 -0.35300
O 	O 	0.39660 0.52920 0.54980 -0.58400
O 	O 	0.31270 0.58690 0.66040 -0.47300
