data_crystal

_cell_length_a 18.11150
_cell_length_b 18.11150
_cell_length_c 18.11150
_cell_angle_alpha 60.00000
_cell_angle_beta  60.00000
_cell_angle_gamma 60.00000

_symmetry_space_group_name_	'P 1'
_symmetry_space_group_name_H-M	'P 1'

loop_
_symmetry_equiv_pos_as_xyz
  x,y,z

loop_
_atom_site_label
_atom_site_type_symbol
_atom_site_fract_x
_atom_site_fract_y
_atom_site_fract_z
_atom_site_charge
Zn	Zn	0.11875 0.29375 0.29375 1.21700
Zn	Zn	0.29374 0.11876 0.29375 1.21600
Zn	Zn	0.29374 0.29375 0.11876 1.21600
Zn	Zn	0.29374 0.29375 0.29375 1.21600
Zn	Zn	0.70626 0.88124 0.70625 1.21500
Zn	Zn	0.88125 0.70625 0.70625 1.21500
Zn	Zn	0.70626 0.70625 0.88124 1.21500
Zn	Zn	0.70626 0.70625 0.70625 1.21500
C 	C 	0.11130 0.38870 0.38870 0.42800
C 	C 	0.05330 0.44670 0.44670 -0.15000
C 	C 	0.38870 0.11130 0.11130 0.43100
C 	C 	0.44670 0.05330 0.05330 -0.15900
C 	C 	0.11130 0.38870 0.11130 0.42900
C 	C 	0.05330 0.44670 0.05330 -0.15300
C 	C 	0.38870 0.11130 0.38870 0.43000
C 	C 	0.44670 0.05330 0.44670 -0.15700
C 	C 	0.11130 0.11130 0.38870 0.43100
C 	C 	0.05330 0.05330 0.44670 -0.15900
C 	C 	0.38870 0.38870 0.11130 0.42800
C 	C 	0.44670 0.44670 0.05330 -0.15000
C 	C 	0.61130 0.88870 0.61130 0.42400
C 	C 	0.55330 0.94670 0.55330 -0.13500
C 	C 	0.88870 0.61130 0.88870 0.42500
C 	C 	0.94670 0.55330 0.94670 -0.14100
C 	C 	0.61130 0.88870 0.88870 0.42300
C 	C 	0.55330 0.94670 0.94670 -0.13200
C 	C 	0.88870 0.61130 0.61130 0.42600
C 	C 	0.94670 0.55330 0.55330 -0.14500
C 	C 	0.88870 0.88870 0.61130 0.42200
C 	C 	0.94670 0.94670 0.55330 -0.13200
C 	C 	0.61130 0.61130 0.88870 0.42600
C 	C 	0.55330 0.55330 0.94670 -0.14500
C 	C 	0.02700 0.53796 0.40804 0.06400
C 	C 	0.05680 0.58280 0.30360 -0.15300
C 	C 	0.53796 0.02700 0.02700 0.08500
C 	C 	0.58280 0.05680 0.05680 -0.14300
C 	C 	0.40804 0.02700 0.02700 0.08500
C 	C 	0.30360 0.05680 0.05680 -0.14200
C 	C 	0.02700 0.40804 0.53796 0.06700
C 	C 	0.05680 0.30360 0.58280 -0.16200
C 	C 	0.02700 0.40804 0.02700 0.07400
C 	C 	0.05680 0.30360 0.05680 -0.16500
C 	C 	0.53796 0.02700 0.40804 0.08100
C 	C 	0.58280 0.05680 0.30360 -0.14600
C 	C 	0.40804 0.02700 0.53796 0.08100
C 	C 	0.30360 0.05680 0.58280 -0.14700
C 	C 	0.02700 0.53796 0.02700 0.06900
C 	C 	0.05680 0.58280 0.05680 -0.14900
C 	C 	0.02700 0.02700 0.53796 0.08500
C 	C 	0.05680 0.05680 0.58280 -0.14200
C 	C 	0.53796 0.40804 0.02700 0.06600
C 	C 	0.58280 0.30360 0.05680 -0.16100
C 	C 	0.40804 0.53796 0.02700 0.06400
C 	C 	0.30360 0.58280 0.05680 -0.15400
C 	C 	0.02700 0.02700 0.40804 0.08600
C 	C 	0.05680 0.05680 0.30360 -0.14200
C 	C 	0.46204 0.97300 0.59196 0.03700
C 	C 	0.41720 0.94320 0.69640 -0.15500
C 	C 	0.97300 0.46204 0.97300 0.04700
C 	C 	0.94320 0.41720 0.94320 -0.15600
C 	C 	0.97300 0.59196 0.97300 0.04900
C 	C 	0.94320 0.69640 0.94320 -0.15800
C 	C 	0.59196 0.97300 0.46204 0.03700
C 	C 	0.69640 0.94320 0.41720 -0.15400
C 	C 	0.59196 0.97300 0.97300 0.03200
C 	C 	0.69640 0.94320 0.94320 -0.15300
C 	C 	0.97300 0.46204 0.59196 0.05400
C 	C 	0.94320 0.41720 0.69640 -0.15800
C 	C 	0.97300 0.59196 0.46204 0.05400
C 	C 	0.94320 0.69640 0.41720 -0.15900
C 	C 	0.46204 0.97300 0.97300 0.03200
C 	C 	0.41720 0.94320 0.94320 -0.15300
C 	C 	0.97300 0.97300 0.46204 0.03200
C 	C 	0.94320 0.94320 0.41720 -0.15300
C 	C 	0.59196 0.46204 0.97300 0.05400
C 	C 	0.69640 0.41720 0.94320 -0.15800
C 	C 	0.46204 0.59196 0.97300 0.05500
C 	C 	0.41720 0.69640 0.94320 -0.16000
C 	C 	0.97300 0.97300 0.59196 0.03200
C 	C 	0.94320 0.94320 0.69640 -0.15200
O 	O 	0.25000 0.25000 0.25000 -0.96300
O 	O 	0.75000 0.75000 0.75000 -0.96200
O 	O 	0.07193 0.36665 0.36665 -0.52200
O 	O 	0.36665 0.07193 0.19477 -0.52000
O 	O 	0.36665 0.19477 0.07193 -0.52300
O 	O 	0.19477 0.36665 0.36665 -0.52200
O 	O 	0.07193 0.36665 0.19477 -0.52200
O 	O 	0.36665 0.19477 0.36665 -0.52300
O 	O 	0.36665 0.07193 0.36665 -0.52000
O 	O 	0.19477 0.36665 0.07193 -0.52200
O 	O 	0.07193 0.19477 0.36665 -0.52200
O 	O 	0.36665 0.36665 0.07193 -0.52100
O 	O 	0.36665 0.36665 0.19477 -0.52300
O 	O 	0.19477 0.07193 0.36665 -0.52100
O 	O 	0.63335 0.92807 0.63335 -0.52300
O 	O 	0.92807 0.63335 0.80523 -0.52300
O 	O 	0.80523 0.63335 0.92807 -0.52300
O 	O 	0.63335 0.80523 0.63335 -0.52200
O 	O 	0.63335 0.92807 0.80523 -0.52400
O 	O 	0.80523 0.63335 0.63335 -0.52300
O 	O 	0.92807 0.63335 0.63335 -0.52300
O 	O 	0.63335 0.80523 0.92807 -0.52200
O 	O 	0.80523 0.92807 0.63335 -0.52300
O 	O 	0.63335 0.63335 0.92807 -0.52400
O 	O 	0.63335 0.63335 0.80523 -0.52200
O 	O 	0.92807 0.80523 0.63335 -0.52200
H 	H 	0.99442 0.62939 0.28203 0.04900
H 	H 	0.09768 0.52814 0.27068 0.04800
H 	H 	0.10018 0.62380 0.28140 0.05400
H 	H 	0.63289 0.09003 0.99466 0.05000
H 	H 	0.61995 0.99511 0.10397 0.04200
H 	H 	0.52848 0.10715 0.09365 0.04700
H 	H 	0.27995 0.99729 0.11189 0.04300
H 	H 	0.28324 0.08031 0.99627 0.05000
H 	H 	0.27092 0.11469 0.08412 0.04800
H 	H 	0.05061 0.27263 0.54554 0.05600
H 	H 	0.01162 0.28507 0.65655 0.05200
H 	H 	0.13005 0.27641 0.57924 0.05700
H 	H 	0.04405 0.28515 0.01352 0.05500
H 	H 	0.01631 0.27612 0.13091 0.05900
H 	H 	0.13192 0.27284 0.04786 0.05700
H 	H 	0.52810 0.10279 0.27068 0.04800
H 	H 	0.62453 0.99455 0.28148 0.04200
H 	H 	0.62870 0.09495 0.28195 0.05500
H 	H 	0.28324 0.99627 0.64018 0.04100
H 	H 	0.27092 0.08412 0.53028 0.04900
H 	H 	0.27995 0.11189 0.61087 0.05500
H 	H 	0.10184 0.62216 0.99479 0.04900
H 	H 	0.09596 0.52825 0.10509 0.04800
H 	H 	0.99449 0.63092 0.09240 0.04900
H 	H 	0.10504 0.09602 0.52825 0.04700
H 	H 	0.09246 0.99448 0.63086 0.04100
H 	H 	0.99478 0.10178 0.62222 0.05200
H 	H 	0.58591 0.27715 0.00955 0.05800
H 	H 	0.54120 0.27215 0.12893 0.05400
H 	H 	0.65421 0.28481 0.05380 0.05200
H 	H 	0.27093 0.53034 0.11487 0.04900
H 	H 	0.27992 0.61062 0.99737 0.05100
H 	H 	0.28326 0.64036 0.08004 0.05100
H 	H 	0.99967 0.11683 0.27921 0.05100
H 	H 	0.07328 0.99827 0.28374 0.04000
H 	H 	0.11933 0.07718 0.27115 0.05000
H 	H 	0.43697 0.86636 0.72541 0.05300
H 	H 	0.34055 0.97460 0.71461 0.04600
H 	H 	0.44115 0.96676 0.72588 0.05100
H 	H 	0.96777 0.34070 0.97691 0.04600
H 	H 	0.97365 0.43460 0.86660 0.05400
H 	H 	0.86630 0.44337 0.96421 0.05300
H 	H 	0.88812 0.72005 0.00272 0.05400
H 	H 	0.91586 0.72908 0.88533 0.04800
H 	H 	0.00373 0.71677 0.91967 0.05200
H 	H 	0.71485 0.95593 0.34272 0.04700
H 	H 	0.72716 0.86808 0.45263 0.05200
H 	H 	0.72388 0.98370 0.42332 0.05100
H 	H 	0.72716 0.95212 0.86808 0.05000
H 	H 	0.72388 0.86910 0.98370 0.05300
H 	H 	0.71485 0.98650 0.95593 0.04500
H 	H 	0.96949 0.34059 0.71461 0.04800
H 	H 	0.86623 0.44183 0.72595 0.05400
H 	H 	0.97200 0.43625 0.72533 0.05400
H 	H 	0.88343 0.72900 0.46899 0.04900
H 	H 	0.92242 0.71656 0.35799 0.05100
H 	H 	0.00186 0.72034 0.39169 0.05600
H 	H 	0.43240 0.86692 0.97579 0.05300
H 	H 	0.44534 0.96184 0.86647 0.05100
H 	H 	0.34093 0.97896 0.96546 0.04400
H 	H 	0.96428 0.86629 0.44331 0.05200
H 	H 	0.97685 0.96783 0.34070 0.04500
H 	H 	0.86659 0.97359 0.43467 0.05100
H 	H 	0.72385 0.42307 0.86918 0.05500
H 	H 	0.71486 0.34279 0.98668 0.04800
H 	H 	0.72718 0.45281 0.95186 0.05300
H 	H 	0.35365 0.71607 0.00074 0.05300
H 	H 	0.39836 0.72108 0.88136 0.05400
H 	H 	0.46666 0.72874 0.92561 0.05000
H 	H 	0.94509 0.87008 0.72767 0.05100
H 	H 	0.87148 0.98864 0.72314 0.05100
H 	H 	0.99114 0.94899 0.71508 0.04600
