data_crystal

_cell_length_a 11.25620
_cell_length_b 13.17440
_cell_length_c 20.39650
_cell_angle_alpha 90.00000
_cell_angle_beta  90.00000
_cell_angle_gamma 90.00000

_symmetry_space_group_name_	'P 1'
_symmetry_space_group_name_H-M	'P 1'

loop_
_symmetry_equiv_pos_as_xyz
  x,y,z

loop_
_atom_site_label
_atom_site_type_symbol
_atom_site_fract_x
_atom_site_fract_y
_atom_site_fract_z
_atom_site_charge
Zn	Zn	0.67718 0.97847 0.46775 1.17300
Zn	Zn	0.88960 0.07205 0.35934 1.22900
Zn	Zn	0.82282 0.02153 0.96775 1.17100
Zn	Zn	0.61040 0.92795 0.85934 1.23000
Zn	Zn	0.32282 0.47847 0.03225 1.17200
Zn	Zn	0.11040 0.57205 0.14066 1.22900
Zn	Zn	0.17718 0.52153 0.53225 1.17200
Zn	Zn	0.38960 0.42795 0.64066 1.23000
H 	H 	0.62930 0.29430 0.28990 0.10000
H 	H 	0.54830 0.27440 0.48330 0.05100
H 	H 	0.40140 0.49770 0.37100 0.08600
H 	H 	0.35990 0.52280 0.25930 -0.01400
H 	H 	0.44890 0.55480 0.20180 -0.01300
H 	H 	0.66760 0.54960 0.21490 0.10500
H 	H 	0.89610 0.77880 0.25910 0.06600
H 	H 	0.56210 0.77820 0.33580 0.08600
H 	H 	0.87070 0.70570 0.78990 0.10000
H 	H 	0.95170 0.72560 0.98330 0.05100
H 	H 	0.09860 0.50230 0.87100 0.08600
H 	H 	0.14010 0.47720 0.75930 -0.01400
H 	H 	0.05110 0.44520 0.70180 -0.01200
H 	H 	0.83240 0.45040 0.71490 0.10500
H 	H 	0.60390 0.22120 0.75910 0.06600
H 	H 	0.93790 0.22180 0.83580 0.08500
H 	H 	0.37070 0.79430 0.21010 0.10000
H 	H 	0.45170 0.77440 0.01670 0.05100
H 	H 	0.59860 0.99770 0.12900 0.08600
H 	H 	0.64010 0.02280 0.24070 -0.01500
H 	H 	0.55110 0.05480 0.29820 -0.01300
H 	H 	0.33240 0.04960 0.28510 0.10600
H 	H 	0.10390 0.27880 0.24090 0.06600
H 	H 	0.43790 0.27820 0.16420 0.08600
H 	H 	0.12930 0.20570 0.71010 0.10100
H 	H 	0.04830 0.22560 0.51670 0.05100
H 	H 	0.90140 0.00230 0.62900 0.08700
H 	H 	0.85990 0.97720 0.74070 -0.01300
H 	H 	0.94890 0.94520 0.79820 -0.01100
H 	H 	0.16760 0.95040 0.78510 0.10400
H 	H 	0.39610 0.72120 0.74090 0.06500
H 	H 	0.06210 0.72180 0.66420 0.08400
C 	C 	0.51420 0.40370 0.32156 0.18600
C 	C 	0.58770 0.31900 0.32711 -0.11100
C 	C 	0.59980 0.27050 0.38745 -0.05000
C 	C 	0.54030 0.30760 0.44224 -0.00800
C 	C 	0.46920 0.39350 0.43669 -0.05900
C 	C 	0.45320 0.44110 0.37533 -0.11300
C 	C 	0.67980 0.17940 0.39395 0.35100
C 	C 	0.41210 0.43650 0.49710 0.37900
C 	C 	0.44430 0.53600 0.24873 0.20600
C 	C 	0.59750 0.65700 0.27581 0.19300
C 	C 	0.68420 0.61110 0.23747 -0.13900
C 	C 	0.79630 0.65650 0.23242 -0.01500
C 	C 	0.82050 0.74760 0.26396 -0.03000
C 	C 	0.73340 0.79320 0.30279 -0.05300
C 	C 	0.62140 0.74770 0.30909 -0.11200
C 	C 	0.89250 0.60220 0.19389 0.29600
C 	C 	0.75750 0.88900 0.33972 0.36900
C 	C 	0.98580 0.59630 0.82156 0.18600
C 	C 	0.91230 0.68100 0.82711 -0.11000
C 	C 	0.90020 0.72950 0.88745 -0.05000
C 	C 	0.95970 0.69240 0.94224 -0.00700
C 	C 	0.03080 0.60650 0.93669 -0.06100
C 	C 	0.04680 0.55890 0.87533 -0.11300
C 	C 	0.82020 0.82060 0.89395 0.35100
C 	C 	0.08790 0.56350 0.99710 0.38200
C 	C 	0.05570 0.46400 0.74873 0.20500
C 	C 	0.90250 0.34300 0.77581 0.19200
C 	C 	0.81580 0.38890 0.73747 -0.13800
C 	C 	0.70370 0.34350 0.73242 -0.01600
C 	C 	0.67950 0.25240 0.76396 -0.02900
C 	C 	0.76660 0.20680 0.80279 -0.05400
C 	C 	0.87860 0.25230 0.80909 -0.11200
C 	C 	0.60750 0.39780 0.69389 0.29600
C 	C 	0.74250 0.11100 0.83972 0.36900
C 	C 	0.48580 0.90370 0.17844 0.18600
C 	C 	0.41230 0.81900 0.17289 -0.11100
C 	C 	0.40020 0.77050 0.11255 -0.05000
C 	C 	0.45970 0.80760 0.05776 -0.00900
C 	C 	0.53080 0.89350 0.06331 -0.05800
C 	C 	0.54680 0.94110 0.12467 -0.11500
C 	C 	0.32020 0.67940 0.10605 0.35100
C 	C 	0.58790 0.93650 0.00290 0.37400
C 	C 	0.55570 0.03600 0.25127 0.20800
C 	C 	0.40250 0.15700 0.22419 0.19400
C 	C 	0.31580 0.11110 0.26253 -0.13900
C 	C 	0.20370 0.15650 0.26758 -0.01500
C 	C 	0.17950 0.24760 0.23604 -0.03000
C 	C 	0.26660 0.29320 0.19721 -0.05300
C 	C 	0.37860 0.24770 0.19091 -0.11200
C 	C 	0.10750 0.10220 0.30611 0.29600
C 	C 	0.24250 0.38900 0.16028 0.36900
C 	C 	0.01420 0.09630 0.67844 0.19000
C 	C 	0.08770 0.18100 0.67289 -0.11200
C 	C 	0.09980 0.22950 0.61255 -0.05000
C 	C 	0.04030 0.19240 0.55776 -0.00600
C 	C 	0.96920 0.10650 0.56331 -0.06000
C 	C 	0.95320 0.05890 0.62467 -0.11700
C 	C 	0.17980 0.32060 0.60605 0.35100
C 	C 	0.91210 0.06350 0.50290 0.37600
C 	C 	0.94430 0.96400 0.75127 0.20600
C 	C 	0.09750 0.84300 0.72419 0.18800
C 	C 	0.18420 0.88890 0.76253 -0.13700
C 	C 	0.29630 0.84350 0.76758 -0.01700
C 	C 	0.32050 0.75240 0.73604 -0.02800
C 	C 	0.23340 0.70680 0.69721 -0.05400
C 	C 	0.12140 0.75230 0.69091 -0.11000
C 	C 	0.39250 0.89780 0.80611 0.29600
C 	C 	0.25750 0.61100 0.66028 0.36900
O 	O 	0.74690 0.15823 0.34578 -0.45400
O 	O 	0.67520 0.13095 0.44735 -0.48700
O 	O 	0.44412 0.39966 0.55088 -0.47700
O 	O 	0.33740 0.50790 0.48964 -0.50500
O 	O 	0.51078 0.44539 0.25898 -0.25300
O 	O 	0.48494 0.61840 0.28703 -0.26000
O 	O 	0.86999 0.52233 0.16526 -0.29600
O 	O 	0.99575 0.64356 0.19572 -0.42500
O 	O 	0.85501 0.93354 0.32900 -0.47800
O 	O 	0.67786 0.91880 0.37877 -0.52100
O 	O 	0.75310 0.84177 0.84578 -0.45300
O 	O 	0.82480 0.86905 0.94735 -0.48500
O 	O 	0.05588 0.60034 0.05088 -0.48100
O 	O 	0.16260 0.49210 0.98964 -0.50500
O 	O 	0.98922 0.55461 0.75898 -0.25300
O 	O 	0.01506 0.38160 0.78703 -0.25900
O 	O 	0.63001 0.47767 0.66526 -0.29700
O 	O 	0.50425 0.35644 0.69572 -0.42700
O 	O 	0.64499 0.06646 0.82900 -0.48000
O 	O 	0.82214 0.08120 0.87877 -0.52300
O 	O 	0.25310 0.65823 0.15422 -0.45400
O 	O 	0.32480 0.63095 0.05265 -0.48700
O 	O 	0.55588 0.89966 0.94912 -0.47400
O 	O 	0.66260 0.00790 0.01036 -0.50100
O 	O 	0.48922 0.94539 0.24102 -0.25500
O 	O 	0.51506 0.11840 0.21297 -0.26000
O 	O 	0.13001 0.02233 0.33474 -0.29500
O 	O 	0.00425 0.14356 0.30428 -0.42600
O 	O 	0.14499 0.43354 0.17100 -0.48000
O 	O 	0.32214 0.41880 0.12123 -0.52100
O 	O 	0.24690 0.34177 0.65422 -0.45400
O 	O 	0.17520 0.36905 0.55265 -0.48700
O 	O 	0.94412 0.10034 0.44912 -0.47800
O 	O 	0.83740 0.99210 0.51036 -0.50200
O 	O 	0.01078 0.05461 0.74102 -0.25200
O 	O 	0.98494 0.88160 0.71297 -0.25700
O 	O 	0.36999 0.97767 0.83474 -0.29700
O 	O 	0.49575 0.85644 0.80428 -0.42700
O 	O 	0.35501 0.56646 0.67100 -0.47900
O 	O 	0.17786 0.58120 0.62123 -0.52200
