data_crystal

_cell_length_a 4.98100
_cell_length_b 11.01900
_cell_length_c 12.77850
_cell_angle_alpha 91.66430
_cell_angle_beta  101.23900
_cell_angle_gamma 81.42990

_symmetry_space_group_name_	'P 1'
_symmetry_space_group_name_H-M	'P 1'

loop_
_symmetry_equiv_pos_as_xyz
  x,y,z

loop_
_atom_site_label
_atom_site_type_symbol
_atom_site_fract_x
_atom_site_fract_y
_atom_site_fract_z
_atom_site_charge
Cu	Cu	0.82607 0.30450 0.22678 0.91200
Cu	Cu	0.59929 0.80450 0.77322 0.91900
H 	H 	0.59380 0.51110 0.87200 0.06100
H 	H 	0.83090 0.37430 0.00080 0.02000
H 	H 	0.33390 0.49450 0.19420 0.03500
H 	H 	0.06980 0.62750 0.06700 0.07500
H 	H 	0.01600 0.96010 0.48740 0.05400
H 	H 	0.79790 0.06960 0.33880 0.04200
H 	H 	0.32670 0.30300 0.39040 0.02900
H 	H 	0.55540 0.20200 0.54480 0.06600
H 	H 	0.72180 0.01110 0.12800 0.05700
H 	H 	0.83010 0.87430 0.99920 0.02300
H 	H 	0.13970 0.99450 0.80580 0.03700
H 	H 	0.00280 0.12750 0.93300 0.07300
H 	H 	0.52860 0.46010 0.51260 0.08300
H 	H 	0.45910 0.56960 0.66120 0.01900
H 	H 	0.93630 0.80300 0.60960 0.00700
H 	H 	0.01060 0.70200 0.45520 0.10800
C 	C 	0.13707 0.67330 0.86794 0.35500
C 	C 	0.30372 0.58660 0.95424 -0.04600
C 	C 	0.53532 0.50870 0.93664 -0.05300
C 	C 	0.67896 0.42750 0.01492 0.03600
C 	C 	0.38541 0.49710 0.12822 0.03600
C 	C 	0.22705 0.57840 0.05250 -0.05400
C 	C 	0.46231 0.00020 0.63422 0.31100
C 	C 	0.30818 0.06900 0.53436 -0.04100
C 	C 	0.08127 0.03020 0.47014 -0.00200
C 	C 	0.95315 0.09620 0.38050 -0.01900
C 	C 	0.26278 0.23400 0.41096 0.03800
C 	C 	0.40190 0.17360 0.50360 -0.05200
C 	C 	0.26913 0.17330 0.13206 0.33600
C 	C 	0.34948 0.08660 0.04576 -0.04600
C 	C 	0.59868 0.00870 0.06336 -0.05300
C 	C 	0.66404 0.92750 0.98508 0.03400
C 	C 	0.25719 0.99710 0.87178 0.02900
C 	C 	0.17455 0.07840 0.94750 -0.04600
C 	C 	0.82809 0.50020 0.36578 0.28500
C 	C 	0.77382 0.56900 0.46564 0.01100
C 	C 	0.61113 0.53020 0.52986 -0.09400
C 	C 	0.57265 0.59620 0.61950 0.06600
C 	C 	0.85182 0.73400 0.58904 0.07500
C 	C 	0.89830 0.67360 0.49640 -0.13100
N 	N 	0.60930 0.42190 0.11120 -0.19900
N 	N 	0.03761 0.19660 0.34922 -0.17100
N 	N 	0.49810 0.92190 0.88880 -0.19600
N 	N 	0.68839 0.69660 0.65078 -0.20500
O 	O 	0.88929 0.71010 0.87838 -0.40700
O 	O 	0.24754 0.70120 0.79508 -0.36100
O 	O 	0.35601 0.90970 0.65822 -0.36900
O 	O 	0.68216 0.03090 0.68252 -0.29000
O 	O 	0.01091 0.21010 0.12162 -0.37800
O 	O 	0.45246 0.20120 0.20492 -0.36100
O 	O 	0.69779 0.40970 0.34178 -0.36700
O 	O 	0.99964 0.53090 0.31748 -0.29100
