data_crystal

_cell_length_a 18.27910
_cell_length_b 18.49140
_cell_length_c 18.49140
_cell_angle_alpha 70.29740
_cell_angle_beta  70.76120
_cell_angle_gamma 109.23900

_symmetry_space_group_name_	'P 1'
_symmetry_space_group_name_H-M	'P 1'

loop_
_symmetry_equiv_pos_as_xyz
  x,y,z

loop_
_atom_site_label
_atom_site_type_symbol
_atom_site_fract_x
_atom_site_fract_y
_atom_site_fract_z
_atom_site_charge
Zn	Zn	0.44018 0.50591 0.07401 1.21400
Zn	Zn	0.51419 0.07401 0.42008 1.21400
Zn	Zn	0.93427 0.42008 0.50591 1.21400
Zn	Zn	0.98581 0.42008 0.07401 1.21400
Zn	Zn	0.56573 0.50591 0.42008 1.21500
Zn	Zn	0.05982 0.07401 0.50591 1.21400
Zn	Zn	0.55982 0.49409 0.92599 1.21500
Zn	Zn	0.48581 0.92599 0.57992 1.21500
Zn	Zn	0.06573 0.57992 0.49409 1.21500
Zn	Zn	0.01419 0.57992 0.92599 1.21500
Zn	Zn	0.43427 0.49409 0.57992 1.21500
Zn	Zn	0.94018 0.92599 0.49409 1.21400
H 	H 	0.50400 0.37200 0.27910 0.03200
H 	H 	0.36020 0.22560 0.00700 0.02200
H 	H 	0.41930 0.70590 0.30430 0.05900
H 	H 	0.18990 0.59920 0.24590 0.04500
H 	H 	0.16120 0.51800 0.17670 0.06600
H 	H 	0.26590 0.48050 0.11340 0.00800
H 	H 	0.51620 0.65830 0.24500 0.02900
H 	H 	0.29000 0.67120 0.29630 0.04700
H 	H 	0.48600 0.57860 0.17550 0.07100
H 	H 	0.78310 0.27910 0.34890 0.03200
H 	H 	0.36720 0.00700 0.76740 0.02200
H 	H 	0.72360 0.30430 0.98980 0.06000
H 	H 	0.43580 0.24590 0.15490 0.04500
H 	H 	0.33790 0.17670 0.30530 0.06600
H 	H 	0.37930 0.11340 0.40610 0.00800
H 	H 	0.76120 0.24500 0.09670 0.02800
H 	H 	0.58630 0.29630 0.03250 0.04600
H 	H 	0.66150 0.17550 0.24590 0.07100
H 	H 	0.13200 0.34890 0.37200 0.03100
H 	H 	0.13460 0.76740 0.22560 0.02200
H 	H 	0.71340 0.98980 0.70590 0.05500
H 	H 	0.59070 0.15490 0.59920 0.04500
H 	H 	0.64320 0.30530 0.51800 0.06600
H 	H 	0.78540 0.40610 0.48050 0.00800
H 	H 	0.85790 0.09670 0.65830 0.03100
H 	H 	0.61880 0.03250 0.67120 0.04900
H 	H 	0.90740 0.24590 0.57860 0.07000
H 	H 	0.71690 0.34890 0.27910 0.03200
H 	H 	0.13280 0.76740 0.00700 0.02300
H 	H 	0.77640 0.98980 0.30430 0.05500
H 	H 	0.06420 0.15490 0.24590 0.04600
H 	H 	0.16210 0.30530 0.17670 0.06500
H 	H 	0.12070 0.40610 0.11340 0.00900
H 	H 	0.73880 0.09670 0.24500 0.03100
H 	H 	0.91370 0.03250 0.29630 0.05000
H 	H 	0.83850 0.24590 0.17550 0.07000
H 	H 	0.36800 0.37200 0.34890 0.03200
H 	H 	0.36540 0.22560 0.76740 0.02200
H 	H 	0.78660 0.70590 0.98980 0.05900
H 	H 	0.90930 0.59920 0.15490 0.04400
H 	H 	0.85680 0.51800 0.30530 0.06600
H 	H 	0.71460 0.48050 0.40610 0.00800
H 	H 	0.64210 0.65830 0.09670 0.02900
H 	H 	0.88120 0.67120 0.03250 0.04700
H 	H 	0.59260 0.57860 0.24590 0.07100
H 	H 	0.99600 0.27910 0.37200 0.03200
H 	H 	0.13980 0.00700 0.22560 0.02200
H 	H 	0.08070 0.30430 0.70590 0.05700
H 	H 	0.31010 0.24590 0.59920 0.04500
H 	H 	0.33880 0.17670 0.51800 0.06600
H 	H 	0.23410 0.11340 0.48050 0.00800
H 	H 	0.98380 0.24500 0.65830 0.03300
H 	H 	0.21000 0.29630 0.67120 0.04800
H 	H 	0.01400 0.17550 0.57860 0.06900
H 	H 	0.49600 0.62800 0.72090 0.03200
H 	H 	0.63980 0.77440 0.99300 0.02200
H 	H 	0.58070 0.29410 0.69570 0.05900
H 	H 	0.81010 0.40080 0.75410 0.04500
H 	H 	0.83880 0.48200 0.82330 0.06600
H 	H 	0.73410 0.51950 0.88660 0.00800
H 	H 	0.48380 0.34170 0.75500 0.02900
H 	H 	0.71000 0.32880 0.70370 0.04700
H 	H 	0.51400 0.42140 0.82450 0.07100
H 	H 	0.21690 0.72090 0.65110 0.03200
H 	H 	0.63280 0.99300 0.23260 0.02200
H 	H 	0.27640 0.69570 0.01020 0.06000
H 	H 	0.56420 0.75410 0.84510 0.04500
H 	H 	0.66210 0.82330 0.69470 0.06600
H 	H 	0.62070 0.88660 0.59390 0.00800
H 	H 	0.23880 0.75500 0.90330 0.02800
H 	H 	0.41370 0.70370 0.96750 0.04600
H 	H 	0.33850 0.82450 0.75410 0.07100
H 	H 	0.86800 0.65110 0.62800 0.03100
H 	H 	0.86540 0.23260 0.77440 0.02200
H 	H 	0.28660 0.01020 0.29410 0.05500
H 	H 	0.40930 0.84510 0.40080 0.04500
H 	H 	0.35680 0.69470 0.48200 0.06600
H 	H 	0.21460 0.59390 0.51950 0.00800
H 	H 	0.14210 0.90330 0.34170 0.03100
H 	H 	0.38120 0.96750 0.32880 0.04900
H 	H 	0.09260 0.75410 0.42140 0.07000
H 	H 	0.28310 0.65110 0.72090 0.03200
H 	H 	0.86720 0.23260 0.99300 0.02300
H 	H 	0.22360 0.01020 0.69570 0.05500
H 	H 	0.93580 0.84510 0.75410 0.04600
H 	H 	0.83790 0.69470 0.82330 0.06500
H 	H 	0.87930 0.59390 0.88660 0.00900
H 	H 	0.26120 0.90330 0.75500 0.03100
H 	H 	0.08630 0.96750 0.70370 0.05000
H 	H 	0.16150 0.75410 0.82450 0.07000
H 	H 	0.63200 0.62800 0.65110 0.03200
H 	H 	0.63460 0.77440 0.23260 0.02200
H 	H 	0.21340 0.29410 0.01020 0.05900
H 	H 	0.09070 0.40080 0.84510 0.04400
H 	H 	0.14320 0.48200 0.69470 0.06600
H 	H 	0.28540 0.51950 0.59390 0.00800
H 	H 	0.35790 0.34170 0.90330 0.02900
H 	H 	0.11880 0.32880 0.96750 0.04700
H 	H 	0.40740 0.42140 0.75410 0.07100
H 	H 	0.00400 0.72090 0.62800 0.03200
H 	H 	0.86020 0.99300 0.77440 0.02200
H 	H 	0.91930 0.69570 0.29410 0.05700
H 	H 	0.68990 0.75410 0.40080 0.04500
H 	H 	0.66120 0.82330 0.48200 0.06600
H 	H 	0.76590 0.88660 0.51950 0.00800
H 	H 	0.01620 0.75500 0.34170 0.03300
H 	H 	0.79000 0.70370 0.32880 0.04800
H 	H 	0.98600 0.82450 0.42140 0.06900
H 	H 	0.72650 0.47650 0.04700 0.03100
H 	H 	0.57190 0.32190 0.35620 0.07000
H 	H 	0.77350 0.04700 0.47650 0.03200
H 	H 	0.92810 0.35620 0.32190 0.07000
H 	H 	0.25000 0.47650 0.47650 0.03100
H 	H 	0.25000 0.32190 0.32190 0.07000
H 	H 	0.27350 0.52350 0.95300 0.03100
H 	H 	0.42810 0.67810 0.64380 0.07000
H 	H 	0.22650 0.95300 0.52350 0.03200
H 	H 	0.07190 0.64380 0.67810 0.07000
H 	H 	0.75000 0.52350 0.52350 0.03100
H 	H 	0.75000 0.67810 0.67810 0.07000
H 	H 	0.25000 0.23205 0.23205 0.02900
H 	H 	0.25000 0.07760 0.07760 0.06700
H 	H 	0.48205 0.23205 0.53590 0.02900
H 	H 	0.32760 0.07760 0.84480 0.06800
H 	H 	0.01795 0.53590 0.23205 0.02900
H 	H 	0.17240 0.84480 0.07760 0.06900
H 	H 	0.75000 0.76795 0.76795 0.02900
H 	H 	0.75000 0.92240 0.92240 0.06700
H 	H 	0.51795 0.76795 0.46410 0.02900
H 	H 	0.67240 0.92240 0.15520 0.06800
H 	H 	0.98205 0.46410 0.76795 0.02900
H 	H 	0.82760 0.15520 0.92240 0.06900
C 	C 	0.56098 0.45122 0.10563 0.38800
C 	C 	0.60736 0.42588 0.15559 -0.12200
C 	C 	0.56252 0.38219 0.24756 0.04800
C 	C 	0.38001 0.34010 0.06882 0.39800
C 	C 	0.31335 0.24400 0.11207 -0.14100
C 	C 	0.31488 0.19728 0.06673 0.05300
C 	C 	0.40552 0.67293 0.27628 -0.06700
C 	C 	0.23120 0.58214 0.22128 -0.01700
C 	C 	0.21450 0.53512 0.18011 -0.08400
C 	C 	0.27746 0.51237 0.14293 0.04800
C 	C 	0.46371 0.64460 0.24021 0.02300
C 	C 	0.30946 0.60554 0.22746 -0.01600
C 	C 	0.32968 0.65303 0.27084 -0.02500
C 	C 	0.36941 0.57876 0.19009 0.09400
C 	C 	0.44641 0.59793 0.19855 -0.12800
C 	C 	0.66661 0.10563 0.44315 0.38800
C 	C 	0.76295 0.15559 0.41853 -0.12200
C 	C 	0.81008 0.24756 0.37025 0.04800
C 	C 	0.44883 0.06882 0.59108 0.39800
C 	C 	0.42542 0.11207 0.64393 -0.14100
C 	C 	0.38161 0.06673 0.73599 0.05300
C 	C 	0.68180 0.27628 0.05079 -0.06900
C 	C 	0.45248 0.22128 0.19658 -0.01700
C 	C 	0.39461 0.18011 0.28477 -0.08500
C 	C 	0.42039 0.14293 0.34470 0.04800
C 	C 	0.70392 0.24021 0.11519 0.02500
C 	C 	0.53692 0.22746 0.16700 -0.01700
C 	C 	0.60052 0.27084 0.07613 -0.02400
C 	C 	0.55950 0.19009 0.23115 0.09400
C 	C 	0.64496 0.19855 0.20352 -0.12900
C 	C 	0.10976 0.44315 0.45122 0.38800
C 	C 	0.18148 0.41853 0.42588 -0.12200
C 	C 	0.18033 0.37025 0.38219 0.04800
C 	C 	0.03991 0.59108 0.34010 0.39900
C 	C 	0.06935 0.64393 0.24400 -0.14200
C 	C 	0.11760 0.73599 0.19728 0.05400
C 	C 	0.73259 0.05079 0.67293 -0.06000
C 	C 	0.64906 0.19658 0.58214 -0.01900
C 	C 	0.67938 0.28477 0.53512 -0.08300
C 	C 	0.76509 0.34470 0.51237 0.04800
C 	C 	0.81911 0.11519 0.64460 0.01900
C 	C 	0.70392 0.16700 0.60554 -0.01300
C 	C 	0.67665 0.07613 0.65303 -0.02900
C 	C 	0.79065 0.23115 0.57876 0.09200
C 	C 	0.84848 0.20352 0.59793 -0.12500
C 	C 	0.83339 0.44315 0.10563 0.38800
C 	C 	0.73705 0.41853 0.15559 -0.12200
C 	C 	0.68992 0.37025 0.24756 0.04800
C 	C 	0.05117 0.59108 0.06882 0.40000
C 	C 	0.07458 0.64393 0.11207 -0.14200
C 	C 	0.11839 0.73599 0.06673 0.05400
C 	C 	0.81820 0.05079 0.27628 -0.05900
C 	C 	0.04752 0.19658 0.22128 -0.02300
C 	C 	0.10539 0.28477 0.18011 -0.08100
C 	C 	0.07961 0.34470 0.14293 0.04700
C 	C 	0.79608 0.11519 0.24021 0.01800
C 	C 	0.96308 0.16700 0.22746 -0.01000
C 	C 	0.89948 0.07613 0.27084 -0.03100
C 	C 	0.94050 0.23115 0.19009 0.09200
C 	C 	0.85504 0.20352 0.19855 -0.12500
C 	C 	0.39024 0.45122 0.44315 0.38800
C 	C 	0.31852 0.42588 0.41853 -0.12200
C 	C 	0.31967 0.38219 0.37025 0.04800
C 	C 	0.46009 0.34010 0.59108 0.39800
C 	C 	0.43065 0.24400 0.64393 -0.14100
C 	C 	0.38240 0.19728 0.73599 0.05300
C 	C 	0.76741 0.67293 0.05079 -0.06700
C 	C 	0.85094 0.58214 0.19658 -0.01700
C 	C 	0.82062 0.53512 0.28477 -0.08400
C 	C 	0.73491 0.51237 0.34470 0.04800
C 	C 	0.68089 0.64460 0.11519 0.02300
C 	C 	0.79608 0.60554 0.16700 -0.01600
C 	C 	0.82335 0.65303 0.07613 -0.02500
C 	C 	0.70935 0.57876 0.23115 0.09400
C 	C 	0.65152 0.59793 0.20352 -0.12800
C 	C 	0.93902 0.10563 0.45122 0.39100
C 	C 	0.89264 0.15559 0.42588 -0.12200
C 	C 	0.93748 0.24756 0.38219 0.04900
C 	C 	0.11999 0.06882 0.34010 0.39300
C 	C 	0.18665 0.11207 0.24400 -0.14000
C 	C 	0.18512 0.06673 0.19728 0.05200
C 	C 	0.09448 0.27628 0.67293 -0.06300
C 	C 	0.26880 0.22128 0.58214 -0.01900
C 	C 	0.28550 0.18011 0.53512 -0.08300
C 	C 	0.22254 0.14293 0.51237 0.04800
C 	C 	0.03629 0.24021 0.64460 0.01600
C 	C 	0.19054 0.22746 0.60554 -0.01400
C 	C 	0.17032 0.27084 0.65303 -0.02800
C 	C 	0.13059 0.19009 0.57876 0.09100
C 	C 	0.05359 0.19855 0.59793 -0.12400
C 	C 	0.43902 0.54878 0.89437 0.38800
C 	C 	0.39264 0.57412 0.84441 -0.12200
C 	C 	0.43748 0.61781 0.75244 0.04800
C 	C 	0.61999 0.65990 0.93118 0.39800
C 	C 	0.68665 0.75600 0.88793 -0.14100
C 	C 	0.68512 0.80272 0.93327 0.05300
C 	C 	0.59448 0.32707 0.72372 -0.06700
C 	C 	0.76880 0.41786 0.77872 -0.01700
C 	C 	0.78550 0.46488 0.81989 -0.08400
C 	C 	0.72254 0.48763 0.85707 0.04800
C 	C 	0.53629 0.35540 0.75979 0.02300
C 	C 	0.69054 0.39446 0.77254 -0.01600
C 	C 	0.67032 0.34697 0.72916 -0.02500
C 	C 	0.63059 0.42124 0.80991 0.09400
C 	C 	0.55359 0.40207 0.80145 -0.12800
C 	C 	0.33339 0.89437 0.55685 0.38800
C 	C 	0.23705 0.84441 0.58147 -0.12200
C 	C 	0.18992 0.75244 0.62975 0.04800
C 	C 	0.55117 0.93118 0.40892 0.39800
C 	C 	0.57458 0.88793 0.35607 -0.14100
C 	C 	0.61839 0.93327 0.26401 0.05300
C 	C 	0.31820 0.72372 0.94921 -0.06900
C 	C 	0.54752 0.77872 0.80342 -0.01700
C 	C 	0.60539 0.81989 0.71523 -0.08500
C 	C 	0.57961 0.85707 0.65530 0.04800
C 	C 	0.29608 0.75979 0.88481 0.02500
C 	C 	0.46308 0.77254 0.83300 -0.01700
C 	C 	0.39948 0.72916 0.92387 -0.02400
C 	C 	0.44050 0.80991 0.76885 0.09400
C 	C 	0.35504 0.80145 0.79648 -0.12900
C 	C 	0.89024 0.55685 0.54878 0.38800
C 	C 	0.81852 0.58147 0.57412 -0.12200
C 	C 	0.81967 0.62975 0.61781 0.04800
C 	C 	0.96009 0.40892 0.65990 0.39900
C 	C 	0.93065 0.35607 0.75600 -0.14200
C 	C 	0.88240 0.26401 0.80272 0.05400
C 	C 	0.26741 0.94921 0.32707 -0.06000
C 	C 	0.35094 0.80342 0.41786 -0.01900
C 	C 	0.32062 0.71523 0.46488 -0.08300
C 	C 	0.23491 0.65530 0.48763 0.04800
C 	C 	0.18089 0.88481 0.35540 0.01900
C 	C 	0.29608 0.83300 0.39446 -0.01300
C 	C 	0.32335 0.92387 0.34697 -0.02900
C 	C 	0.20935 0.76885 0.42124 0.09200
C 	C 	0.15152 0.79648 0.40207 -0.12500
C 	C 	0.16661 0.55685 0.89437 0.38800
C 	C 	0.26295 0.58147 0.84441 -0.12200
C 	C 	0.31008 0.62975 0.75244 0.04800
C 	C 	0.94883 0.40892 0.93118 0.40000
C 	C 	0.92542 0.35607 0.88793 -0.14200
C 	C 	0.88161 0.26401 0.93327 0.05400
C 	C 	0.18180 0.94921 0.72372 -0.05900
C 	C 	0.95248 0.80342 0.77872 -0.02300
C 	C 	0.89461 0.71523 0.81989 -0.08100
C 	C 	0.92039 0.65530 0.85707 0.04700
C 	C 	0.20392 0.88481 0.75979 0.01800
C 	C 	0.03692 0.83300 0.77254 -0.01000
C 	C 	0.10052 0.92387 0.72916 -0.03100
C 	C 	0.05950 0.76885 0.80991 0.09200
C 	C 	0.14496 0.79648 0.80145 -0.12500
C 	C 	0.60976 0.54878 0.55685 0.38800
C 	C 	0.68148 0.57412 0.58147 -0.12200
C 	C 	0.68033 0.61781 0.62975 0.04800
C 	C 	0.53991 0.65990 0.40892 0.39800
C 	C 	0.56935 0.75600 0.35607 -0.14100
C 	C 	0.61760 0.80272 0.26401 0.05300
C 	C 	0.23259 0.32707 0.94921 -0.06700
C 	C 	0.14906 0.41786 0.80342 -0.01700
C 	C 	0.17938 0.46488 0.71523 -0.08400
C 	C 	0.26509 0.48763 0.65530 0.04800
C 	C 	0.31911 0.35540 0.88481 0.02300
C 	C 	0.20392 0.39446 0.83300 -0.01600
C 	C 	0.17665 0.34697 0.92387 -0.02500
C 	C 	0.29065 0.42124 0.76885 0.09400
C 	C 	0.34848 0.40207 0.79648 -0.12800
C 	C 	0.06098 0.89437 0.54878 0.39100
C 	C 	0.10736 0.84441 0.57412 -0.12200
C 	C 	0.06252 0.75244 0.61781 0.04900
C 	C 	0.88001 0.93118 0.65990 0.39300
C 	C 	0.81335 0.88793 0.75600 -0.14000
C 	C 	0.81488 0.93327 0.80272 0.05200
C 	C 	0.90552 0.72372 0.32707 -0.06300
C 	C 	0.73120 0.77872 0.41786 -0.01900
C 	C 	0.71450 0.81989 0.46488 -0.08300
C 	C 	0.77746 0.85707 0.48763 0.04800
C 	C 	0.96371 0.75979 0.35540 0.01600
C 	C 	0.80946 0.77254 0.39446 -0.01400
C 	C 	0.82968 0.72916 0.34697 -0.02800
C 	C 	0.86941 0.80991 0.42124 0.09100
C 	C 	0.94641 0.80145 0.40207 -0.12400
C 	C 	0.69513 0.44513 0.10974 0.06600
C 	C 	0.60333 0.35333 0.29334 -0.10900
C 	C 	0.80487 0.10974 0.44513 0.06600
C 	C 	0.89667 0.29334 0.35333 -0.10900
C 	C 	0.25000 0.44513 0.44513 0.06600
C 	C 	0.25000 0.35333 0.35333 -0.10900
C 	C 	0.30487 0.55487 0.89026 0.06600
C 	C 	0.39667 0.64667 0.70666 -0.10900
C 	C 	0.19513 0.89026 0.55487 0.06600
C 	C 	0.10333 0.70666 0.64667 -0.10900
C 	C 	0.75000 0.55487 0.55487 0.06600
C 	C 	0.75000 0.64667 0.64667 -0.10900
C 	C 	0.25000 0.20065 0.20065 0.06900
C 	C 	0.25000 0.10901 0.10901 -0.11700
C 	C 	0.45065 0.20065 0.59870 0.07000
C 	C 	0.35901 0.10901 0.78198 -0.11800
C 	C 	0.04935 0.59870 0.20065 0.07000
C 	C 	0.14099 0.78198 0.10901 -0.11800
C 	C 	0.75000 0.79935 0.79935 0.06900
C 	C 	0.75000 0.89099 0.89099 -0.11700
C 	C 	0.54935 0.79935 0.40130 0.07000
C 	C 	0.64099 0.89099 0.21802 -0.11800
C 	C 	0.95065 0.40130 0.79935 0.07000
C 	C 	0.85901 0.21802 0.89099 -0.11800
N 	N 	0.35230 0.53292 0.14680 -0.24600
N 	N 	0.49910 0.14680 0.32028 -0.24600
N 	N 	0.81938 0.32028 0.53292 -0.24500
N 	N 	0.00090 0.32028 0.14680 -0.24500
N 	N 	0.68062 0.53292 0.32028 -0.24600
N 	N 	0.14770 0.14680 0.53292 -0.24600
N 	N 	0.64770 0.46708 0.85320 -0.24600
N 	N 	0.50090 0.85320 0.67972 -0.24600
N 	N 	0.18062 0.67972 0.46708 -0.24500
N 	N 	0.99910 0.67972 0.85320 -0.24500
N 	N 	0.31938 0.46708 0.67972 -0.24600
N 	N 	0.85230 0.85320 0.46708 -0.24600
O 	O 	0.49687 0.46105 0.14366 -0.45300
O 	O 	0.36098 0.37984 0.10868 -0.47000
O 	O 	0.58932 0.46029 0.02947 -0.45900
O 	O 	0.44988 0.37209 0.99749 -0.47100
O 	O 	0.64053 0.14366 0.39529 -0.45300
O 	O 	0.46966 0.10868 0.51148 -0.47000
O 	O 	0.61879 0.02947 0.51024 -0.45800
O 	O 	0.44737 0.99749 0.63042 -0.47200
O 	O 	0.03582 0.39529 0.46105 -0.45400
O 	O 	0.98114 0.51148 0.37984 -0.47000
O 	O 	0.12903 0.51024 0.46029 -0.45900
O 	O 	0.07779 0.63042 0.37209 -0.47200
O 	O 	0.85947 0.39529 0.14366 -0.45300
O 	O 	0.03034 0.51148 0.10868 -0.47000
O 	O 	0.88121 0.51024 0.02947 -0.45900
O 	O 	0.05263 0.63042 0.99749 -0.47200
O 	O 	0.46418 0.46105 0.39529 -0.45300
O 	O 	0.51886 0.37984 0.51148 -0.47000
O 	O 	0.37097 0.46029 0.51024 -0.45800
O 	O 	0.42221 0.37209 0.63042 -0.47200
O 	O 	0.00313 0.14366 0.46105 -0.45600
O 	O 	0.13902 0.10868 0.37984 -0.46900
O 	O 	0.91068 0.02947 0.46029 -0.45800
O 	O 	0.05012 0.99749 0.37209 -0.46700
O 	O 	0.50313 0.53895 0.85634 -0.45300
O 	O 	0.63902 0.62016 0.89132 -0.47000
O 	O 	0.41068 0.53971 0.97053 -0.45900
O 	O 	0.55012 0.62791 0.00251 -0.47100
O 	O 	0.35947 0.85634 0.60471 -0.45300
O 	O 	0.53034 0.89132 0.48852 -0.47000
O 	O 	0.38121 0.97053 0.48976 -0.45800
O 	O 	0.55263 0.00251 0.36958 -0.47200
O 	O 	0.96418 0.60471 0.53895 -0.45400
O 	O 	0.01886 0.48852 0.62016 -0.47000
O 	O 	0.87097 0.48976 0.53971 -0.45900
O 	O 	0.92221 0.36958 0.62791 -0.47200
O 	O 	0.14053 0.60471 0.85634 -0.45300
O 	O 	0.96966 0.48852 0.89132 -0.47000
O 	O 	0.11879 0.48976 0.97053 -0.45900
O 	O 	0.94737 0.36958 0.00251 -0.47200
O 	O 	0.53582 0.53895 0.60471 -0.45300
O 	O 	0.48114 0.62016 0.48852 -0.47000
O 	O 	0.62903 0.53971 0.48976 -0.45800
O 	O 	0.57779 0.62791 0.36958 -0.47200
O 	O 	0.99687 0.85634 0.53895 -0.45600
O 	O 	0.86098 0.89132 0.62016 -0.46900
O 	O 	0.08932 0.97053 0.53971 -0.45800
O 	O 	0.94988 0.00251 0.62791 -0.46700
