data_crystal

_cell_length_a 9.00500
_cell_length_b 11.16600
_cell_length_c 16.67200
_cell_angle_alpha 108.44700
_cell_angle_beta  90.00000
_cell_angle_gamma 113.78000

_symmetry_space_group_name_	'P 1'
_symmetry_space_group_name_H-M	'P 1'

loop_
_symmetry_equiv_pos_as_xyz
  x,y,z

loop_
_atom_site_label
_atom_site_type_symbol
_atom_site_fract_x
_atom_site_fract_y
_atom_site_fract_z
_atom_site_charge
Zn	Zn	0.14448 0.67838 0.73249 1.21500
Zn	Zn	0.46610 0.32162 0.76751 1.22000
Zn	Zn	0.85552 0.32162 0.26751 1.22100
Zn	Zn	0.53390 0.67838 0.23249 1.21600
Zn	Zn	0.24815 1.00000 0.75000 1.23600
Zn	Zn	0.75185 1.00000 0.25000 1.23600
H 	H 	0.93290 0.54400 0.46790 0.06300
H 	H 	0.74610 0.86200 0.42360 0.00700
H 	H 	0.89320 0.91240 0.55500 -0.01600
H 	H 	0.79560 0.37580 0.11280 0.22600
H 	H 	0.60090 0.44960 0.12270 -0.04100
H 	H 	0.40530 0.20300 0.10220 0.19800
H 	H 	0.48400 0.21400 0.19180 0.16800
H 	H 	0.37370 0.29540 0.18980 0.17300
H 	H 	0.33200 0.87000 0.81500 0.83600
H 	H 	0.38890 0.45600 0.03210 0.06900
H 	H 	0.88410 0.13800 0.07640 0.06200
H 	H 	0.98080 0.08760 0.94500 0.08800
H 	H 	0.41980 0.62420 0.38720 0.22700
H 	H 	0.15130 0.55040 0.37730 -0.03700
H 	H 	0.20230 0.79700 0.39780 0.11400
H 	H 	0.27000 0.78600 0.30820 0.09300
H 	H 	0.07830 0.70460 0.31020 0.11800
H 	H 	0.46200 0.13000 0.68500 0.81800
H 	H 	0.06710 0.45600 0.53210 0.05900
H 	H 	0.25390 0.13800 0.57640 0.07100
H 	H 	0.10680 0.08760 0.44500 0.06900
H 	H 	0.20440 0.62420 0.88720 0.22700
H 	H 	0.39910 0.55040 0.87730 -0.03500
H 	H 	0.59470 0.79700 0.89780 0.12000
H 	H 	0.51600 0.78600 0.80820 0.09700
H 	H 	0.62630 0.70460 0.81020 0.12400
H 	H 	0.66800 0.13000 0.18500 0.81700
H 	H 	0.61110 0.54400 0.96790 0.05200
H 	H 	0.11590 0.86200 0.92360 0.01800
H 	H 	0.01920 0.91240 0.05500 -0.03700
H 	H 	0.58020 0.37580 0.61280 0.22700
H 	H 	0.84870 0.44960 0.62270 -0.03800
H 	H 	0.79770 0.20300 0.60220 0.20400
H 	H 	0.73000 0.21400 0.69180 0.17100
H 	H 	0.92170 0.29540 0.68980 0.17800
H 	H 	0.53800 0.87000 0.31500 0.83500
C 	C 	0.89840 0.60900 0.45840 -0.06000
C 	C 	0.02390 0.77060 0.60680 0.37200
C 	C 	0.92920 0.73560 0.52270 -0.11000
C 	C 	0.78540 0.79920 0.43250 -0.13900
C 	C 	0.81610 0.58240 0.38070 0.03500
C 	C 	0.69740 0.49900 0.24980 0.01700
C 	C 	0.75820 0.67400 0.36810 0.04000
C 	C 	0.87200 0.82780 0.50970 0.01700
C 	C 	0.61950 0.40220 0.16090 0.17600
C 	C 	0.45370 0.26460 0.16120 -0.49400
C 	C 	0.28940 0.39100 0.04160 -0.09800
C 	C 	0.25330 0.22940 0.89320 0.35600
C 	C 	0.19360 0.26440 0.97730 -0.04800
C 	C 	0.98620 0.20080 0.06750 -0.08600
C 	C 	0.23370 0.41760 0.11930 0.04900
C 	C 	0.19840 0.50100 0.25020 0.02400
C 	C 	0.08420 0.32600 0.13190 0.03100
C 	C 	0.04420 0.17220 0.99030 -0.00300
C 	C 	0.21730 0.59780 0.33910 0.14900
C 	C 	0.18910 0.73540 0.33880 -0.39300
C 	C 	0.10160 0.39100 0.54160 -0.06400
C 	C 	0.97610 0.22940 0.39320 0.37300
C 	C 	0.07080 0.26440 0.47730 -0.08800
C 	C 	0.21460 0.20080 0.56750 -0.11100
C 	C 	0.18390 0.41760 0.61930 0.03200
C 	C 	0.30260 0.50100 0.75020 0.02400
C 	C 	0.24180 0.32600 0.63190 0.05000
C 	C 	0.12800 0.17220 0.49030 0.02900
C 	C 	0.38050 0.59780 0.83910 0.15100
C 	C 	0.54630 0.73540 0.83880 -0.40000
C 	C 	0.71060 0.60900 0.95840 -0.02200
C 	C 	0.74670 0.77060 0.10680 0.39200
C 	C 	0.80640 0.73560 0.02270 -0.15400
C 	C 	0.01380 0.79920 0.93250 -0.17000
C 	C 	0.76630 0.58240 0.88070 0.01600
C 	C 	0.80160 0.49900 0.74980 0.01700
C 	C 	0.91580 0.67400 0.86810 0.06300
C 	C 	0.95580 0.82780 0.00970 0.05200
C 	C 	0.78270 0.40220 0.66090 0.17800
C 	C 	0.81090 0.26460 0.66120 -0.50000
N 	N 	0.77630 0.46980 0.30390 -0.25700
N 	N 	0.67940 0.61800 0.28350 -0.27200
N 	N 	0.30650 0.53020 0.19610 -0.26500
N 	N 	0.06140 0.38200 0.21650 -0.26800
N 	N 	0.22370 0.53020 0.69610 -0.26300
N 	N 	0.32060 0.38200 0.71650 -0.26800
N 	N 	0.69350 0.46980 0.80390 -0.25500
N 	N 	0.93860 0.61800 0.78350 -0.27300
O 	O 	0.05580 0.88940 0.66200 -0.53800
O 	O 	0.30070 0.87060 0.78080 -1.45900
O 	O 	0.07010 0.68520 0.61880 -0.48100
O 	O 	0.71170 0.32620 0.12880 -0.47700
O 	O 	0.16640 0.11060 0.83800 -0.40100
O 	O 	0.43010 0.12940 0.71920 -1.32000
O 	O 	0.38490 0.31480 0.88120 -0.44900
O 	O 	0.38550 0.67380 0.37120 -0.49700
O 	O 	0.94420 0.11060 0.33800 -0.40100
O 	O 	0.69930 0.12940 0.21920 -1.32000
O 	O 	0.92990 0.31480 0.38120 -0.45400
O 	O 	0.28830 0.67380 0.87120 -0.49600
O 	O 	0.83360 0.88940 0.16200 -0.53700
O 	O 	0.56990 0.87060 0.28080 -1.45800
O 	O 	0.61510 0.68520 0.11880 -0.48600
O 	O 	0.61450 0.32620 0.62880 -0.47700
