data_crystal

_cell_length_a 10.17160
_cell_length_b 17.59110
_cell_length_c 17.59110
_cell_angle_alpha 120.00000
_cell_angle_beta  90.00000
_cell_angle_gamma 90.00000

_symmetry_space_group_name_	'P 1'
_symmetry_space_group_name_H-M	'P 1'

loop_
_symmetry_equiv_pos_as_xyz
  x,y,z

loop_
_atom_site_label
_atom_site_type_symbol
_atom_site_fract_x
_atom_site_fract_y
_atom_site_fract_z
_atom_site_charge
Zn	Zn	0.86646 0.45663 0.53194 1.17300
Zn	Zn	0.53313 0.07531 0.54337 1.17600
Zn	Zn	0.19979 0.46806 0.92469 1.17600
Zn	Zn	0.36646 0.54337 0.46806 1.17600
Zn	Zn	0.03313 0.92469 0.45663 1.17800
Zn	Zn	0.69979 0.53194 0.07531 1.17400
H 	H 	0.58320 0.52530 0.22350 -0.02400
H 	H 	0.92670 0.43820 0.11070 -0.03800
H 	H 	0.78830 0.36570 0.34630 0.05700
H 	H 	0.93660 0.38440 0.33650 0.05000
H 	H 	0.96250 0.54850 0.38720 0.04600
H 	H 	0.97620 0.38970 0.20560 0.07300
H 	H 	0.62840 0.47230 0.31920 0.07300
H 	H 	0.80030 0.65040 0.49060 0.13200
H 	H 	0.94040 0.68810 0.49180 0.11700
H 	H 	0.90180 0.66390 0.56330 0.10300
H 	H 	0.24987 0.69820 0.47470 -0.02200
H 	H 	0.59337 0.67250 0.56180 -0.03400
H 	H 	0.45497 0.98060 0.63430 0.06000
H 	H 	0.60327 0.95210 0.61560 0.05400
H 	H 	0.62917 0.83870 0.45150 0.04200
H 	H 	0.64287 0.81590 0.61030 0.07700
H 	H 	0.29507 0.84690 0.52770 0.07500
H 	H 	0.46697 0.84020 0.34960 0.14200
H 	H 	0.60707 0.80370 0.31190 0.13000
H 	H 	0.56847 0.89940 0.33610 0.11600
H 	H 	0.91653 0.77650 0.30180 -0.00300
H 	H 	0.26003 0.88930 0.32750 -0.02700
H 	H 	0.12163 0.65370 0.01940 0.05500
H 	H 	0.26993 0.66350 0.04790 0.04800
H 	H 	0.29583 0.61280 0.16130 0.04100
H 	H 	0.30953 0.79440 0.18410 0.06900
H 	H 	0.96173 0.68080 0.15310 0.03300
H 	H 	0.13363 0.50940 0.15980 0.15200
H 	H 	0.27373 0.50820 0.19630 0.13800
H 	H 	0.23513 0.43670 0.10060 0.12400
H 	H 	0.08320 0.47470 0.77650 -0.02200
H 	H 	0.42670 0.56180 0.88930 -0.03400
H 	H 	0.28830 0.63430 0.65370 0.06100
H 	H 	0.43660 0.61560 0.66350 0.05500
H 	H 	0.46250 0.45150 0.61280 0.04200
H 	H 	0.47620 0.61030 0.79440 0.07800
H 	H 	0.12840 0.52770 0.68080 0.07600
H 	H 	0.30030 0.34960 0.50940 0.14300
H 	H 	0.44040 0.31190 0.50820 0.13200
H 	H 	0.40180 0.33610 0.43670 0.11800
H 	H 	0.74987 0.30180 0.52530 -0.01800
H 	H 	0.09337 0.32750 0.43820 -0.02700
H 	H 	0.95497 0.01940 0.36570 0.02200
H 	H 	0.10327 0.04790 0.38440 0.03300
H 	H 	0.12917 0.16130 0.54850 0.05400
H 	H 	0.14287 0.18410 0.38970 0.06100
H 	H 	0.79507 0.15310 0.47230 0.05800
H 	H 	0.96697 0.15980 0.65040 0.10100
H 	H 	0.10707 0.19630 0.68810 0.10600
H 	H 	0.06847 0.10060 0.66390 0.09300
H 	H 	0.41653 0.22350 0.69820 -0.02400
H 	H 	0.76003 0.11070 0.67250 -0.03500
H 	H 	0.62163 0.34630 0.98060 0.05900
H 	H 	0.76993 0.33650 0.95210 0.05300
H 	H 	0.79583 0.38720 0.83870 0.03800
H 	H 	0.80953 0.20560 0.81590 0.07600
H 	H 	0.46173 0.31920 0.84690 0.07400
H 	H 	0.63363 0.49060 0.84020 0.14300
H 	H 	0.77373 0.49180 0.80370 0.12900
H 	H 	0.73513 0.56330 0.89940 0.11600
C 	C 	0.66260 0.49700 0.21880 0.06900
C 	C 	0.86550 0.44600 0.15330 0.09000
C 	C 	0.84870 0.40900 0.34750 -0.17900
C 	C 	0.94210 0.55670 0.44530 -0.05900
C 	C 	0.89640 0.41790 0.21120 -0.20600
C 	C 	0.06700 0.54010 0.48400 0.32400
C 	C 	0.69160 0.46700 0.27860 -0.18300
C 	C 	0.81140 0.43060 0.27730 0.14600
C 	C 	0.89160 0.64790 0.50290 -0.38100
C 	C 	0.32927 0.72180 0.50300 0.07000
C 	C 	0.53217 0.70730 0.55400 0.09100
C 	C 	0.51537 0.93850 0.59100 -0.18100
C 	C 	0.60877 0.88860 0.44330 -0.03300
C 	C 	0.56307 0.79330 0.58210 -0.20500
C 	C 	0.73367 0.94390 0.45990 0.30500
C 	C 	0.35827 0.81160 0.53300 -0.18300
C 	C 	0.47807 0.84670 0.56940 0.14900
C 	C 	0.55827 0.85500 0.35210 -0.41200
C 	C 	0.99593 0.78120 0.27820 0.00100
C 	C 	0.19883 0.84670 0.29270 0.07500
C 	C 	0.18203 0.65250 0.06150 -0.15700
C 	C 	0.27543 0.55470 0.11140 -0.02400
C 	C 	0.22973 0.78880 0.20670 -0.17500
C 	C 	0.40033 0.51600 0.05610 0.30100
C 	C 	0.02493 0.72140 0.18840 -0.09700
C 	C 	0.14473 0.72270 0.15330 0.10900
C 	C 	0.22493 0.49710 0.14500 -0.43000
C 	C 	0.16260 0.50300 0.78120 0.07200
C 	C 	0.36550 0.55400 0.84670 0.09200
C 	C 	0.34870 0.59100 0.65250 -0.18200
C 	C 	0.44210 0.44330 0.55470 -0.03100
C 	C 	0.39640 0.58210 0.78880 -0.20600
C 	C 	0.56700 0.45990 0.51600 0.30300
C 	C 	0.19160 0.53300 0.72140 -0.18300
C 	C 	0.31140 0.56940 0.72270 0.15000
C 	C 	0.39160 0.35210 0.49710 -0.41500
C 	C 	0.82927 0.27820 0.49700 0.04700
C 	C 	0.03217 0.29270 0.44600 0.08200
C 	C 	0.01537 0.06150 0.40900 -0.09300
C 	C 	0.10877 0.11140 0.55670 -0.06300
C 	C 	0.06307 0.20670 0.41790 -0.14700
C 	C 	0.23367 0.05610 0.54010 0.31500
C 	C 	0.85827 0.18840 0.46700 -0.14400
C 	C 	0.97807 0.15330 0.43060 0.07300
C 	C 	0.05827 0.14500 0.64790 -0.31600
C 	C 	0.49593 0.21880 0.72180 0.07000
C 	C 	0.69883 0.15330 0.70730 0.09100
C 	C 	0.68203 0.34750 0.93850 -0.18000
C 	C 	0.77543 0.44530 0.88860 -0.02500
C 	C 	0.72973 0.21120 0.79330 -0.20500
C 	C 	0.90033 0.48400 0.94390 0.28200
C 	C 	0.52493 0.27860 0.81160 -0.18300
C 	C 	0.64473 0.27730 0.84670 0.14800
C 	C 	0.72493 0.50290 0.85500 -0.41800
N 	N 	0.84400 0.49020 0.43560 -0.20700
N 	N 	0.74810 0.48500 0.15610 -0.28200
N 	N 	0.51067 0.94540 0.50980 -0.20800
N 	N 	0.41477 0.67110 0.51500 -0.28100
N 	N 	0.17733 0.56440 0.05460 -0.20900
N 	N 	0.08143 0.84390 0.32890 -0.25900
N 	N 	0.34400 0.50980 0.56440 -0.20800
N 	N 	0.24810 0.51500 0.84390 -0.28100
N 	N 	0.01067 0.05460 0.49020 -0.20700
N 	N 	0.91477 0.32890 0.48500 -0.28300
N 	N 	0.67733 0.43560 0.94540 -0.20900
N 	N 	0.58143 0.15610 0.67110 -0.28100
O 	O 	0.06080 0.49690 0.52240 -0.46100
O 	O 	0.17020 0.57650 0.47460 -0.45900
O 	O 	0.72747 0.02550 0.50310 -0.46600
O 	O 	0.83687 0.89810 0.42350 -0.46300
O 	O 	0.39413 0.47760 0.97450 -0.46200
O 	O 	0.50353 0.52540 0.10190 -0.45700
O 	O 	0.56080 0.50310 0.47760 -0.46300
O 	O 	0.67020 0.42350 0.52540 -0.45900
O 	O 	0.22747 0.97450 0.49690 -0.46600
O 	O 	0.33687 0.10190 0.57650 -0.46000
O 	O 	0.89413 0.52240 0.02550 -0.46200
O 	O 	0.00353 0.47460 0.89810 -0.43900
