data_crystal

_cell_length_a 13.91040
_cell_length_b 17.03650
_cell_length_c 20.81500
_cell_angle_alpha 90.00000
_cell_angle_beta  90.00000
_cell_angle_gamma 90.00000

_symmetry_space_group_name_	'P 1'
_symmetry_space_group_name_H-M	'P 1'

loop_
_symmetry_equiv_pos_as_xyz
  x,y,z

loop_
_atom_site_label
_atom_site_type_symbol
_atom_site_fract_x
_atom_site_fract_y
_atom_site_fract_z
_atom_site_charge
Fe	Fe	0.87648 0.19974 0.07563 1.13500
Fe	Fe	0.03537 0.19941 0.41692 1.13500
N 	N 	0.82689 0.20676 0.17315 -0.27000
C 	C 	0.80728 0.21020 0.22631 0.16700
N 	N 	0.89442 0.21424 0.37401 -0.26400
C 	C 	0.84271 0.21308 0.33118 0.16000
N 	N 	0.77647 0.21207 0.28611 -0.17600
N 	N 	0.01973 0.18791 0.11774 -0.26200
C 	C 	0.07102 0.18347 0.16069 0.15900
N 	N 	0.09199 0.19166 0.32048 -0.26700
C 	C 	0.10862 0.18641 0.26648 0.16300
N 	N 	0.13617 0.17915 0.20635 -0.17600
N 	N 	0.93302 0.20053 0.97754 -0.25700
C 	C 	0.99338 0.23392 0.95178 0.16200
N 	N 	0.22537 0.28599 0.94743 -0.26200
C 	C 	0.14490 0.27872 0.93574 0.16700
N 	N 	0.05494 0.27385 0.91817 -0.17800
N 	N 	0.90093 0.32390 0.07184 -0.26900
C 	C 	0.94315 0.38031 0.06110 0.16900
N 	N 	0.98359 0.57625 0.07670 -0.27400
C 	C 	0.98522 0.51070 0.06415 0.17500
N 	N 	0.99878 0.43880 0.04500 -0.18300
N 	N 	0.17723 0.18470 0.45800 -0.26300
C 	C 	0.26030 0.18577 0.45857 0.16500
N 	N 	0.46581 0.28496 0.48826 -0.24700
C 	C 	0.40882 0.23831 0.47478 0.14800
N 	N 	0.35395 0.17986 0.45737 -0.17600
N 	N 	0.93903 0.82270 0.08589 -0.27100
C 	C 	0.89511 0.87924 0.08995 0.17100
N 	N 	0.86448 0.07615 0.07064 -0.27300
C 	C 	0.85726 0.01017 0.08163 0.17300
N 	N 	0.83578 0.93805 0.09684 -0.18400
Fe	Fe	0.62352 0.80025 0.57563 1.13600
Fe	Fe	0.46463 0.80059 0.91692 1.13600
N 	N 	0.67311 0.79324 0.67315 -0.26900
C 	C 	0.69272 0.78980 0.72631 0.16700
N 	N 	0.60558 0.78576 0.87401 -0.26400
C 	C 	0.65729 0.78692 0.83118 0.16000
N 	N 	0.72353 0.78793 0.78611 -0.17600
N 	N 	0.48027 0.81209 0.61774 -0.26200
C 	C 	0.42898 0.81653 0.66069 0.15900
N 	N 	0.40801 0.80834 0.82048 -0.26700
C 	C 	0.39138 0.81359 0.76648 0.16300
N 	N 	0.36383 0.82085 0.70635 -0.17600
N 	N 	0.56698 0.79947 0.47754 -0.25700
C 	C 	0.50662 0.76608 0.45178 0.16000
N 	N 	0.27463 0.71401 0.44743 -0.26200
C 	C 	0.35510 0.72128 0.43574 0.16800
N 	N 	0.44506 0.72615 0.41817 -0.17700
N 	N 	0.59907 0.67610 0.57184 -0.26900
C 	C 	0.55685 0.61969 0.56110 0.16900
N 	N 	0.51641 0.42375 0.57670 -0.27400
C 	C 	0.51478 0.48930 0.56415 0.17500
N 	N 	0.50122 0.56120 0.54500 -0.18300
N 	N 	0.32277 0.81530 0.95800 -0.26300
C 	C 	0.23970 0.81423 0.95857 0.16500
N 	N 	0.03419 0.71504 0.98826 -0.24700
C 	C 	0.09118 0.76169 0.97478 0.14700
N 	N 	0.14605 0.82014 0.95737 -0.17600
N 	N 	0.56097 0.17730 0.58589 -0.27100
C 	C 	0.60489 0.12076 0.58995 0.17100
N 	N 	0.63552 0.92385 0.57064 -0.27300
C 	C 	0.64274 0.98983 0.58163 0.17200
N 	N 	0.66422 0.06195 0.59684 -0.18300
Fe	Fe	0.12352 0.69974 0.42437 1.13600
Fe	Fe	0.96463 0.69941 0.08308 1.13600
N 	N 	0.17311 0.70676 0.32685 -0.26900
C 	C 	0.19272 0.71020 0.27369 0.16700
N 	N 	0.10558 0.71424 0.12599 -0.26300
C 	C 	0.15729 0.71308 0.16882 0.16000
N 	N 	0.22353 0.71207 0.21389 -0.17600
N 	N 	0.98027 0.68791 0.38226 -0.26200
C 	C 	0.92898 0.68347 0.33931 0.15900
N 	N 	0.90801 0.69166 0.17952 -0.26700
C 	C 	0.89138 0.68641 0.23352 0.16300
N 	N 	0.86383 0.67915 0.29365 -0.17600
N 	N 	0.06698 0.70053 0.52246 -0.25700
C 	C 	0.00662 0.73392 0.54822 0.16000
N 	N 	0.77463 0.78599 0.55257 -0.26200
C 	C 	0.85510 0.77872 0.56426 0.16800
N 	N 	0.94506 0.77385 0.58183 -0.17700
N 	N 	0.09907 0.82390 0.42816 -0.26900
C 	C 	0.05685 0.88031 0.43890 0.16900
N 	N 	0.01641 0.07625 0.42330 -0.27400
C 	C 	0.01478 0.01070 0.43585 0.17500
N 	N 	0.00122 0.93880 0.45500 -0.18300
N 	N 	0.82277 0.68470 0.04200 -0.26200
C 	C 	0.73970 0.68577 0.04143 0.16500
N 	N 	0.53419 0.78496 0.01174 -0.24600
C 	C 	0.59118 0.73831 0.02522 0.14800
N 	N 	0.64605 0.67986 0.04263 -0.17600
N 	N 	0.06097 0.32270 0.41411 -0.27100
C 	C 	0.10489 0.37924 0.41005 0.17100
N 	N 	0.13552 0.57615 0.42936 -0.27300
C 	C 	0.14274 0.51017 0.41837 0.17300
N 	N 	0.16422 0.43805 0.40316 -0.18400
Fe	Fe	0.37648 0.30025 0.92437 1.13600
Fe	Fe	0.53537 0.30059 0.58308 1.13600
N 	N 	0.32689 0.29324 0.82685 -0.26900
C 	C 	0.30728 0.28980 0.77369 0.16700
N 	N 	0.39442 0.28576 0.62599 -0.26400
C 	C 	0.34271 0.28692 0.66882 0.16000
N 	N 	0.27647 0.28793 0.71389 -0.17600
N 	N 	0.51973 0.31209 0.88226 -0.26200
C 	C 	0.57102 0.31653 0.83931 0.15900
N 	N 	0.59199 0.30834 0.67952 -0.26700
C 	C 	0.60862 0.31359 0.73352 0.16300
N 	N 	0.63617 0.32085 0.79365 -0.17600
N 	N 	0.43302 0.29947 0.02246 -0.25700
C 	C 	0.49338 0.26608 0.04822 0.16000
N 	N 	0.72537 0.21401 0.05257 -0.26200
C 	C 	0.64490 0.22128 0.06426 0.16800
N 	N 	0.55494 0.22615 0.08183 -0.17700
N 	N 	0.40093 0.17610 0.92816 -0.26900
C 	C 	0.44315 0.11969 0.93890 0.16900
N 	N 	0.48359 0.92375 0.92330 -0.27400
C 	C 	0.48522 0.98930 0.93585 0.17400
N 	N 	0.49878 0.06120 0.95500 -0.18300
N 	N 	0.67723 0.31530 0.54200 -0.26200
C 	C 	0.76030 0.31423 0.54143 0.16500
N 	N 	0.96581 0.21504 0.51174 -0.24600
C 	C 	0.90882 0.26169 0.52522 0.14800
N 	N 	0.85395 0.32014 0.54263 -0.17600
N 	N 	0.43903 0.67730 0.91411 -0.27100
C 	C 	0.39511 0.62076 0.91005 0.17100
N 	N 	0.36448 0.42385 0.92936 -0.27300
C 	C 	0.35726 0.48983 0.91837 0.17300
N 	N 	0.33578 0.56195 0.90316 -0.18400
