data_crystal

_cell_length_a 13.87180
_cell_length_b 16.94890
_cell_length_c 20.77200
_cell_angle_alpha 90.00000
_cell_angle_beta  90.00000
_cell_angle_gamma 90.00000

_symmetry_space_group_name_	'P 1'
_symmetry_space_group_name_H-M	'P 1'

loop_
_symmetry_equiv_pos_as_xyz
  x,y,z

loop_
_atom_site_label
_atom_site_type_symbol
_atom_site_fract_x
_atom_site_fract_y
_atom_site_fract_z
_atom_site_charge
Co	Co	0.87834 0.20171 0.07608 1.13300
Co	Co	0.03634 0.20105 0.41522 1.13300
N 	N 	0.82826 0.20764 0.17182 -0.27300
C 	C 	0.80867 0.21121 0.22518 0.16900
N 	N 	0.89772 0.21431 0.37269 -0.26900
C 	C 	0.84501 0.21351 0.33012 0.16300
N 	N 	0.77844 0.21329 0.28531 -0.17700
N 	N 	0.01984 0.18998 0.11723 -0.26500
C 	C 	0.07155 0.18454 0.16063 0.16000
N 	N 	0.09376 0.19317 0.32035 -0.26900
C 	C 	0.10968 0.18749 0.26620 0.16500
N 	N 	0.13659 0.17875 0.20582 -0.17600
N 	N 	0.93438 0.20206 0.97955 -0.25900
C 	C 	0.99544 0.23561 0.95394 0.16300
N 	N 	0.22928 0.28526 0.94748 -0.26500
C 	C 	0.14809 0.27887 0.93702 0.17100
N 	N 	0.05720 0.27585 0.92031 -0.17700
N 	N 	0.90114 0.32476 0.07251 -0.27200
C 	C 	0.94238 0.38198 0.06200 0.17200
N 	N 	0.98122 0.57890 0.07904 -0.27800
C 	C 	0.98329 0.51338 0.06583 0.18000
N 	N 	0.99735 0.44145 0.04590 -0.18400
N 	N 	0.17633 0.18800 0.45557 -0.26600
C 	C 	0.25949 0.18812 0.45760 0.17000
N 	N 	0.46675 0.28484 0.49111 -0.24800
C 	C 	0.40878 0.23878 0.47637 0.15000
N 	N 	0.35342 0.18113 0.45740 -0.17600
N 	N 	0.93938 0.82307 0.08702 -0.27400
C 	C 	0.89598 0.88062 0.09046 0.17400
N 	N 	0.86662 0.07887 0.07195 -0.27600
C 	C 	0.85931 0.01267 0.08199 0.17800
N 	N 	0.83707 0.93986 0.09654 -0.18400
Co	Co	0.62166 0.79829 0.57608 1.13400
Co	Co	0.46366 0.79895 0.91522 1.13400
N 	N 	0.67174 0.79236 0.67182 -0.27200
C 	C 	0.69133 0.78879 0.72518 0.17000
N 	N 	0.60228 0.78569 0.87269 -0.26800
C 	C 	0.65499 0.78649 0.83012 0.16400
N 	N 	0.72156 0.78671 0.78531 -0.17600
N 	N 	0.48016 0.81002 0.61723 -0.26400
C 	C 	0.42845 0.81546 0.66063 0.16100
N 	N 	0.40624 0.80683 0.82035 -0.26900
C 	C 	0.39032 0.81251 0.76620 0.16500
N 	N 	0.36341 0.82125 0.70582 -0.17600
N 	N 	0.56562 0.79794 0.47955 -0.25900
C 	C 	0.50456 0.76439 0.45394 0.16100
N 	N 	0.27072 0.71474 0.44748 -0.26400
C 	C 	0.35191 0.72113 0.43702 0.17100
N 	N 	0.44280 0.72415 0.42031 -0.17600
N 	N 	0.59886 0.67524 0.57251 -0.27200
C 	C 	0.55762 0.61802 0.56200 0.17200
N 	N 	0.51878 0.42110 0.57904 -0.27800
C 	C 	0.51671 0.48662 0.56583 0.18000
N 	N 	0.50265 0.55855 0.54590 -0.18400
N 	N 	0.32367 0.81200 0.95557 -0.26600
C 	C 	0.24051 0.81188 0.95760 0.16900
N 	N 	0.03325 0.71516 0.99111 -0.24800
C 	C 	0.09122 0.76122 0.97637 0.15000
N 	N 	0.14658 0.81887 0.95740 -0.17600
N 	N 	0.56062 0.17693 0.58702 -0.27400
C 	C 	0.60402 0.11938 0.59046 0.17400
N 	N 	0.63338 0.92113 0.57195 -0.27600
C 	C 	0.64069 0.98733 0.58199 0.17700
N 	N 	0.66293 0.06014 0.59654 -0.18400
Co	Co	0.12166 0.70171 0.42392 1.13400
Co	Co	0.96366 0.70105 0.08478 1.13400
N 	N 	0.17174 0.70764 0.32818 -0.27200
C 	C 	0.19133 0.71121 0.27482 0.17000
N 	N 	0.10228 0.71431 0.12731 -0.26700
C 	C 	0.15499 0.71351 0.16988 0.16400
N 	N 	0.22156 0.71329 0.21469 -0.17600
N 	N 	0.98016 0.68998 0.38277 -0.26400
C 	C 	0.92845 0.68454 0.33937 0.16100
N 	N 	0.90624 0.69317 0.17965 -0.26900
C 	C 	0.89032 0.68749 0.23380 0.16500
N 	N 	0.86341 0.67875 0.29418 -0.17600
N 	N 	0.06562 0.70206 0.52045 -0.25900
C 	C 	0.00456 0.73561 0.54606 0.16100
N 	N 	0.77072 0.78526 0.55252 -0.26400
C 	C 	0.85191 0.77887 0.56298 0.17100
N 	N 	0.94280 0.77585 0.57969 -0.17600
N 	N 	0.09886 0.82476 0.42749 -0.27200
C 	C 	0.05762 0.88198 0.43800 0.17200
N 	N 	0.01878 0.07890 0.42096 -0.27800
C 	C 	0.01671 0.01338 0.43417 0.17900
N 	N 	0.00265 0.94145 0.45410 -0.18300
N 	N 	0.82367 0.68800 0.04443 -0.26600
C 	C 	0.74051 0.68812 0.04240 0.17000
N 	N 	0.53325 0.78484 0.00889 -0.24700
C 	C 	0.59122 0.73878 0.02363 0.15100
N 	N 	0.64658 0.68113 0.04260 -0.17600
N 	N 	0.06062 0.32307 0.41298 -0.27400
C 	C 	0.10402 0.38062 0.40954 0.17400
N 	N 	0.13338 0.57887 0.42805 -0.27600
C 	C 	0.14069 0.51267 0.41801 0.17800
N 	N 	0.16293 0.43986 0.40346 -0.18400
Co	Co	0.37834 0.29829 0.92392 1.13400
Co	Co	0.53634 0.29895 0.58478 1.13400
N 	N 	0.32826 0.29236 0.82818 -0.27200
C 	C 	0.30867 0.28879 0.77482 0.17000
N 	N 	0.39772 0.28569 0.62731 -0.26800
C 	C 	0.34501 0.28649 0.66988 0.16400
N 	N 	0.27844 0.28671 0.71469 -0.17600
N 	N 	0.51984 0.31002 0.88277 -0.26400
C 	C 	0.57155 0.31546 0.83937 0.16100
N 	N 	0.59376 0.30683 0.67965 -0.26900
C 	C 	0.60968 0.31251 0.73380 0.16500
N 	N 	0.63659 0.32125 0.79418 -0.17600
N 	N 	0.43438 0.29794 0.02045 -0.25900
C 	C 	0.49544 0.26439 0.04606 0.16100
N 	N 	0.72928 0.21474 0.05252 -0.26500
C 	C 	0.64809 0.22113 0.06298 0.17100
N 	N 	0.55720 0.22415 0.07969 -0.17600
N 	N 	0.40114 0.17524 0.92749 -0.27200
C 	C 	0.44238 0.11802 0.93800 0.17200
N 	N 	0.48122 0.92110 0.92096 -0.27700
C 	C 	0.48329 0.98662 0.93417 0.17800
N 	N 	0.49735 0.05855 0.95410 -0.18300
N 	N 	0.67633 0.31200 0.54443 -0.26600
C 	C 	0.75949 0.31188 0.54240 0.17000
N 	N 	0.96675 0.21516 0.50889 -0.24800
C 	C 	0.90878 0.26122 0.52363 0.15100
N 	N 	0.85342 0.31887 0.54260 -0.17600
N 	N 	0.43938 0.67693 0.91298 -0.27400
C 	C 	0.39598 0.61938 0.90954 0.17400
N 	N 	0.36662 0.42113 0.92805 -0.27600
C 	C 	0.35931 0.48733 0.91801 0.17800
N 	N 	0.33707 0.56014 0.90346 -0.18400
