data_crystal

_cell_length_a 8.70760
_cell_length_b 15.68600
_cell_length_c 19.36800
_cell_angle_alpha 90.00000
_cell_angle_beta  90.00000
_cell_angle_gamma 90.00000

_symmetry_space_group_name_	'P 1'
_symmetry_space_group_name_H-M	'P 1'

loop_
_symmetry_equiv_pos_as_xyz
  x,y,z

loop_
_atom_site_label
_atom_site_type_symbol
_atom_site_fract_x
_atom_site_fract_y
_atom_site_fract_z
_atom_site_charge
Zn	Zn	0.44295 0.03777 0.74239 1.20700
Zn	Zn	0.05705 0.96223 0.24239 1.20700
Zn	Zn	0.55705 0.53777 0.75761 1.20600
Zn	Zn	0.94295 0.46223 0.25761 1.20600
H 	H 	0.07150 0.15090 0.86140 -0.00100
H 	H 	0.94160 0.23840 0.93650 0.07300
H 	H 	0.01890 0.24190 0.05170 0.00700
H 	H 	0.52470 0.94600 0.15510 0.01300
H 	H 	0.74910 0.96890 0.09490 0.07500
H 	H 	0.74550 0.04630 0.99530 -0.00000
H 	H 	0.51670 0.15970 0.61150 0.02200
H 	H 	0.66070 0.29150 0.62050 0.04500
H 	H 	0.72110 0.21940 0.85050 0.32100
H 	H 	0.60270 0.14410 0.84970 0.30200
H 	H 	0.77410 0.12780 0.82880 0.29600
H 	H 	0.78650 0.37640 0.72020 0.04900
H 	H 	0.75900 0.34120 0.79500 0.03600
H 	H 	0.97710 0.25360 0.78480 0.05600
H 	H 	0.02190 0.34960 0.77620 0.06500
H 	H 	0.98160 0.23850 0.66600 0.06200
H 	H 	0.03390 0.33350 0.65930 0.05900
H 	H 	0.24570 0.25070 0.64530 0.03000
H 	H 	0.21110 0.19980 0.71320 0.03800
H 	H 	0.32430 0.26070 0.82750 0.03800
H 	H 	0.47430 0.38850 0.85770 0.03000
H 	H 	0.41510 0.46150 0.62470 0.29100
H 	H 	0.33600 0.37520 0.60470 0.30800
H 	H 	0.23750 0.45050 0.63430 0.29100
H 	H 	0.42850 0.84910 0.36140 -0.00100
H 	H 	0.55840 0.76160 0.43650 0.07500
H 	H 	0.48110 0.75810 0.55170 0.00600
H 	H 	0.97530 0.05400 0.65510 0.01200
H 	H 	0.75090 0.03110 0.59490 0.07500
H 	H 	0.75450 0.95370 0.49530 0.00200
H 	H 	0.98330 0.84030 0.11150 0.02200
H 	H 	0.83930 0.70850 0.12050 0.04500
H 	H 	0.77890 0.78060 0.35050 0.32200
H 	H 	0.89730 0.85590 0.34970 0.30400
H 	H 	0.72590 0.87220 0.32880 0.29700
H 	H 	0.71350 0.62360 0.22020 0.05100
H 	H 	0.74100 0.65880 0.29500 0.03700
H 	H 	0.52290 0.74640 0.28480 0.05400
H 	H 	0.47810 0.65040 0.27620 0.06200
H 	H 	0.51840 0.76150 0.16600 0.06500
H 	H 	0.46610 0.66650 0.15930 0.06100
H 	H 	0.25430 0.74930 0.14530 0.02800
H 	H 	0.28890 0.80020 0.21320 0.03700
H 	H 	0.17570 0.73930 0.32750 0.03800
H 	H 	0.02570 0.61150 0.35770 0.03000
H 	H 	0.08490 0.53850 0.12470 0.29100
H 	H 	0.16400 0.62480 0.10470 0.30700
H 	H 	0.26250 0.54950 0.13430 0.29100
H 	H 	0.92850 0.65090 0.63860 -0.00100
H 	H 	0.05840 0.73840 0.56350 0.07400
H 	H 	0.98110 0.74190 0.44830 0.00700
H 	H 	0.47530 0.44600 0.34490 0.01300
H 	H 	0.25090 0.46890 0.40510 0.07400
H 	H 	0.25450 0.54630 0.50470 0.00300
H 	H 	0.48330 0.65970 0.88850 0.02200
H 	H 	0.33930 0.79150 0.87950 0.04500
H 	H 	0.27890 0.71940 0.64950 0.32100
H 	H 	0.39730 0.64410 0.65030 0.30300
H 	H 	0.22590 0.62780 0.67120 0.29700
H 	H 	0.21350 0.87640 0.77980 0.04900
H 	H 	0.24100 0.84120 0.70500 0.03600
H 	H 	0.02290 0.75360 0.71520 0.05600
H 	H 	0.97810 0.84960 0.72380 0.06500
H 	H 	0.01840 0.73850 0.83400 0.06300
H 	H 	0.96610 0.83350 0.84070 0.06000
H 	H 	0.75430 0.75070 0.85470 0.03000
H 	H 	0.78890 0.69980 0.78680 0.03800
H 	H 	0.67570 0.76070 0.67250 0.03800
H 	H 	0.52570 0.88850 0.64230 0.03000
H 	H 	0.58490 0.96150 0.87530 0.29200
H 	H 	0.66400 0.87520 0.89530 0.30900
H 	H 	0.76250 0.95050 0.86570 0.29300
H 	H 	0.57150 0.34910 0.13860 -0.00100
H 	H 	0.44160 0.26160 0.06350 0.07500
H 	H 	0.51890 0.25810 0.94830 0.00600
H 	H 	0.02470 0.55400 0.84490 0.01300
H 	H 	0.24910 0.53110 0.90510 0.07500
H 	H 	0.24550 0.45370 0.00470 0.00200
H 	H 	0.01670 0.34030 0.38850 0.02200
H 	H 	0.16070 0.20850 0.37950 0.04600
H 	H 	0.22110 0.28060 0.14950 0.32100
H 	H 	0.10270 0.35590 0.15030 0.30300
H 	H 	0.27410 0.37220 0.17120 0.29700
H 	H 	0.28650 0.12360 0.27980 0.05100
H 	H 	0.25900 0.15880 0.20500 0.03700
H 	H 	0.47710 0.24640 0.21520 0.05400
H 	H 	0.52190 0.15040 0.22380 0.06200
H 	H 	0.48160 0.26150 0.33400 0.06500
H 	H 	0.53390 0.16650 0.34070 0.06100
H 	H 	0.74570 0.24930 0.35470 0.02900
H 	H 	0.71110 0.30020 0.28680 0.03700
H 	H 	0.82430 0.23930 0.17250 0.03800
H 	H 	0.97430 0.11150 0.14230 0.03000
H 	H 	0.91510 0.03850 0.37530 0.29100
H 	H 	0.83600 0.12480 0.39530 0.30700
H 	H 	0.73750 0.04950 0.36570 0.29100
C 	C 	0.29760 0.04430 0.87930 0.36800
C 	C 	0.21880 0.10230 0.93100 -0.13600
C 	C 	0.09960 0.15270 0.90770 0.06700
C 	C 	0.02290 0.20480 0.95170 -0.13900
C 	C 	0.07050 0.20630 0.02110 0.07100
C 	C 	0.25850 0.10600 0.00080 0.09300
C 	C 	0.39290 0.05840 0.02840 0.08100
C 	C 	0.38610 0.01150 0.08930 -0.12500
C 	C 	0.52370 0.97760 0.11450 0.05700
C 	C 	0.65690 0.99120 0.07870 -0.14300
C 	C 	0.65400 0.03760 0.01910 0.07600
C 	C 	0.23770 0.99060 0.12590 0.35000
C 	C 	0.56630 0.17940 0.65100 0.00700
C 	C 	0.64620 0.25180 0.65550 -0.01500
C 	C 	0.65420 0.18720 0.75600 0.34600
C 	C 	0.69110 0.16800 0.82730 -0.96500
C 	C 	0.79700 0.32650 0.74940 -0.04200
C 	C 	0.96720 0.30270 0.75470 -0.09900
C 	C 	0.04020 0.28320 0.68840 -0.10000
C 	C 	0.20550 0.25560 0.69190 -0.03400
C 	C 	0.34650 0.30650 0.79870 -0.00100
C 	C 	0.42940 0.37740 0.81510 -0.01100
C 	C 	0.36000 0.39040 0.70610 0.33800
C 	C 	0.33500 0.42210 0.63660 -0.93200
C 	C 	0.20240 0.95570 0.37930 0.36800
C 	C 	0.28120 0.89770 0.43100 -0.13600
C 	C 	0.40040 0.84730 0.40770 0.06800
C 	C 	0.47710 0.79520 0.45170 -0.14200
C 	C 	0.42950 0.79370 0.52110 0.07200
C 	C 	0.24150 0.89400 0.50080 0.09200
C 	C 	0.10710 0.94160 0.52840 0.07900
C 	C 	0.11390 0.98850 0.58930 -0.12700
C 	C 	0.97630 0.02240 0.61450 0.05800
C 	C 	0.84310 0.00880 0.57870 -0.14400
C 	C 	0.84600 0.96240 0.51910 0.07400
C 	C 	0.26230 0.00940 0.62590 0.35100
C 	C 	0.93370 0.82060 0.15100 0.00700
C 	C 	0.85380 0.74820 0.15550 -0.01500
C 	C 	0.84580 0.81280 0.25600 0.34700
C 	C 	0.80890 0.83200 0.32730 -0.96700
C 	C 	0.70300 0.67350 0.24940 -0.04600
C 	C 	0.53280 0.69730 0.25470 -0.09100
C 	C 	0.45980 0.71680 0.18840 -0.10900
C 	C 	0.29450 0.74440 0.19190 -0.03000
C 	C 	0.15350 0.69350 0.29870 -0.00100
C 	C 	0.07060 0.62260 0.31510 -0.01100
C 	C 	0.14000 0.60960 0.20610 0.33700
C 	C 	0.16500 0.57790 0.13660 -0.93100
C 	C 	0.70240 0.54430 0.62070 0.36900
C 	C 	0.78120 0.60230 0.56900 -0.13600
C 	C 	0.90040 0.65270 0.59230 0.06700
C 	C 	0.97710 0.70480 0.54830 -0.13900
C 	C 	0.92950 0.70630 0.47890 0.07100
C 	C 	0.74150 0.60600 0.49920 0.09200
C 	C 	0.60710 0.55840 0.47160 0.08100
C 	C 	0.61390 0.51150 0.41070 -0.12700
C 	C 	0.47630 0.47760 0.38550 0.05800
C 	C 	0.34310 0.49120 0.42130 -0.14100
C 	C 	0.34600 0.53760 0.48090 0.07100
C 	C 	0.76230 0.49060 0.37410 0.35100
C 	C 	0.43370 0.67940 0.84900 0.00700
C 	C 	0.35380 0.75180 0.84450 -0.01500
C 	C 	0.34580 0.68720 0.74400 0.34600
C 	C 	0.30890 0.66800 0.67270 -0.96600
C 	C 	0.20300 0.82650 0.75060 -0.04200
C 	C 	0.03280 0.80270 0.74530 -0.09900
C 	C 	0.95980 0.78320 0.81160 -0.10200
C 	C 	0.79450 0.75560 0.80810 -0.03300
C 	C 	0.65350 0.80650 0.70130 -0.00100
C 	C 	0.57060 0.87740 0.68490 -0.01100
C 	C 	0.64000 0.89040 0.79390 0.33800
C 	C 	0.66500 0.92210 0.86340 -0.93400
C 	C 	0.79760 0.45570 0.12070 0.36900
C 	C 	0.71880 0.39770 0.06900 -0.13600
C 	C 	0.59960 0.34730 0.09230 0.06700
C 	C 	0.52290 0.29520 0.04830 -0.14100
C 	C 	0.57050 0.29370 0.97890 0.07100
C 	C 	0.75850 0.39400 0.99920 0.09200
C 	C 	0.89290 0.44160 0.97160 0.08100
C 	C 	0.88610 0.48850 0.91070 -0.12700
C 	C 	0.02370 0.52240 0.88550 0.05900
C 	C 	0.15690 0.50880 0.92130 -0.14200
C 	C 	0.15400 0.46240 0.98090 0.07200
C 	C 	0.73770 0.50940 0.87410 0.35100
C 	C 	0.06630 0.32060 0.34900 0.00700
C 	C 	0.14620 0.24820 0.34450 -0.01500
C 	C 	0.15420 0.31280 0.24400 0.34600
C 	C 	0.19110 0.33200 0.17270 -0.96600
C 	C 	0.29700 0.17350 0.25060 -0.04600
C 	C 	0.46720 0.19730 0.24530 -0.09100
C 	C 	0.54020 0.21680 0.31160 -0.10900
C 	C 	0.70550 0.24440 0.30810 -0.03000
C 	C 	0.84650 0.19350 0.20130 -0.00100
C 	C 	0.92940 0.12260 0.18490 -0.01100
C 	C 	0.86000 0.10960 0.29390 0.33700
C 	C 	0.83500 0.07790 0.36340 -0.93100
N 	N 	0.56870 0.13890 0.71310 -0.31400
N 	N 	0.70270 0.25690 0.72090 -0.16400
N 	N 	0.43580 0.43020 0.75780 -0.31700
N 	N 	0.30260 0.31600 0.73160 -0.16500
N 	N 	0.52530 0.07100 0.99370 -0.14500
N 	N 	0.18730 0.15850 0.04520 -0.14000
N 	N 	0.93130 0.86110 0.21310 -0.31400
N 	N 	0.79730 0.74310 0.22090 -0.16300
N 	N 	0.06420 0.56980 0.25780 -0.31700
N 	N 	0.19740 0.68400 0.23160 -0.16600
N 	N 	0.97470 0.92900 0.49370 -0.14300
N 	N 	0.31270 0.84150 0.54520 -0.14100
N 	N 	0.43130 0.63890 0.78690 -0.31400
N 	N 	0.29730 0.75690 0.77910 -0.16400
N 	N 	0.56420 0.93020 0.74220 -0.31700
N 	N 	0.69740 0.81600 0.76840 -0.16500
N 	N 	0.47470 0.57100 0.50630 -0.14300
N 	N 	0.81270 0.65850 0.45480 -0.14100
N 	N 	0.06870 0.36110 0.28690 -0.31400
N 	N 	0.20270 0.24310 0.27910 -0.16300
N 	N 	0.93580 0.06980 0.24220 -0.31700
N 	N 	0.80260 0.18400 0.26840 -0.16600
N 	N 	0.02530 0.42900 0.00630 -0.14400
N 	N 	0.68730 0.34150 0.95480 -0.14100
O 	O 	0.29270 0.96590 0.88580 -0.31200
O 	O 	0.35540 0.08310 0.82880 -0.48700
O 	O 	0.11710 0.98330 0.09450 -0.32100
O 	O 	0.24970 0.97990 0.19110 -0.46000
O 	O 	0.20730 0.03410 0.38580 -0.31200
O 	O 	0.14460 0.91690 0.32880 -0.48800
O 	O 	0.38290 0.01670 0.59450 -0.32100
O 	O 	0.25030 0.02010 0.69110 -0.45900
O 	O 	0.70730 0.46590 0.61420 -0.31300
O 	O 	0.64460 0.58310 0.67120 -0.48700
O 	O 	0.88290 0.48330 0.40550 -0.32000
O 	O 	0.75030 0.47990 0.30890 -0.45900
O 	O 	0.79270 0.53410 0.11420 -0.31300
O 	O 	0.85540 0.41690 0.17120 -0.48800
O 	O 	0.61710 0.51670 0.90550 -0.32000
O 	O 	0.74970 0.52010 0.80890 -0.46000
