data_crystal

_cell_length_a 6.71860
_cell_length_b 17.08200
_cell_length_c 17.35200
_cell_angle_alpha 90.00000
_cell_angle_beta  98.77000
_cell_angle_gamma 90.00000

_symmetry_space_group_name_	'P 1'
_symmetry_space_group_name_H-M	'P 1'

loop_
_symmetry_equiv_pos_as_xyz
  x,y,z

loop_
_atom_site_label
_atom_site_type_symbol
_atom_site_fract_x
_atom_site_fract_y
_atom_site_fract_z
_atom_site_charge
Zn	Zn	0.27804 0.51831 0.29612 1.17700
H 	H 	0.64070 0.55040 0.21880 -0.01700
H 	H 	0.73480 0.54580 0.09700 0.06400
H 	H 	0.18380 0.46110 0.01260 0.06300
H 	H 	0.10030 0.46990 0.13600 -0.01800
H 	H 	0.50060 0.40180 0.40770 -0.00900
H 	H 	0.80720 0.39040 0.48780 0.06900
H 	H 	0.90940 0.61950 0.44940 0.07500
H 	H 	0.60200 0.62440 0.36910 -0.01400
H 	H 	0.59770 0.36430 0.16600 0.05100
H 	H 	0.66690 0.24780 0.37190 0.04100
H 	H 	0.35000 0.19060 0.33710 0.04600
H 	H 	0.28440 0.30540 0.13030 0.04200
C 	C 	0.54580 0.53264 0.17615 0.06700
C 	C 	0.60330 0.52945 0.10358 -0.12400
C 	C 	0.47120 0.50252 0.03962 0.04600
C 	C 	0.28030 0.48010 0.05408 -0.12200
C 	C 	0.23130 0.48541 0.12784 0.06000
C 	C 	0.58660 0.44615 0.41528 0.06700
C 	C 	0.76950 0.43908 0.46336 -0.12200
C 	C 	0.89880 0.50311 0.47605 0.04100
C 	C 	0.82980 0.57347 0.44067 -0.12400
C 	C 	0.64570 0.57610 0.39294 0.06600
C 	C 	0.85870 0.35007 0.29717 0.11400
C 	C 	0.66310 0.31187 0.27274 -0.01600
C 	C 	0.54790 0.32879 0.20065 -0.05000
C 	C 	0.58870 0.25989 0.32301 -0.04600
C 	C 	0.09150 0.20307 0.20639 0.11500
C 	C 	0.28650 0.24244 0.22985 -0.01700
C 	C 	0.40080 0.22555 0.30219 -0.04400
C 	C 	0.36150 0.29395 0.17959 -0.04200
N 	N 	0.36200 0.51188 0.18944 -0.28000
N 	N 	0.52550 0.51320 0.37879 -0.27800
N 	N 	0.09950 0.42917 0.30878 -0.21000
N 	N 	0.14450 0.37608 0.36381 -0.06500
N 	N 	0.99400 0.32474 0.35766 -0.12200
N 	N 	0.92050 0.41476 0.26520 -0.11300
N 	N 	0.85850 0.12003 0.19413 -0.20900
N 	N 	0.80370 0.17532 0.14189 -0.06400
N 	N 	0.94990 0.22891 0.14851 -0.12500
N 	N 	0.03920 0.13557 0.23589 -0.11800
H 	H 	0.03676 0.72907 0.61029 0.06700
H 	H 	0.02704 0.71533 0.88176 0.06700
Zn	Zn	0.72196 0.01831 0.20388 1.17800
H 	H 	0.35930 0.05040 0.28120 -0.01600
H 	H 	0.26520 0.04580 0.40300 0.06500
H 	H 	0.81620 0.96110 0.48740 0.06400
H 	H 	0.89970 0.96990 0.36400 -0.01700
H 	H 	0.49940 0.90180 0.09230 -0.00800
H 	H 	0.19280 0.89040 0.01220 0.07100
H 	H 	0.09060 0.11950 0.05060 0.07600
H 	H 	0.39800 0.12440 0.13090 -0.01300
H 	H 	0.40230 0.86430 0.33400 0.05200
H 	H 	0.33310 0.74780 0.12810 0.04200
H 	H 	0.65000 0.69060 0.16290 0.04700
H 	H 	0.71560 0.80540 0.36970 0.04200
C 	C 	0.45420 0.03264 0.32385 0.06700
C 	C 	0.39670 0.02945 0.39642 -0.12400
C 	C 	0.52880 0.00252 0.46038 0.04600
C 	C 	0.71970 0.98010 0.44592 -0.12300
C 	C 	0.76870 0.98541 0.37216 0.06100
C 	C 	0.41340 0.94615 0.08472 0.06900
C 	C 	0.23050 0.93908 0.03664 -0.12100
C 	C 	0.10120 0.00311 0.02395 0.04000
C 	C 	0.17020 0.07347 0.05933 -0.12400
C 	C 	0.35430 0.07610 0.10706 0.06600
C 	C 	0.14130 0.85007 0.20283 0.11400
C 	C 	0.33690 0.81187 0.22726 -0.01600
C 	C 	0.45210 0.82879 0.29935 -0.05000
C 	C 	0.41130 0.75989 0.17699 -0.04600
C 	C 	0.90850 0.70307 0.29361 0.11500
C 	C 	0.71350 0.74244 0.27015 -0.01700
C 	C 	0.59920 0.72555 0.19781 -0.04400
C 	C 	0.63850 0.79395 0.32041 -0.04200
N 	N 	0.63800 0.01188 0.31056 -0.28100
N 	N 	0.47450 0.01320 0.12121 -0.27900
N 	N 	0.90050 0.92917 0.19122 -0.20900
N 	N 	0.85550 0.87608 0.13619 -0.06400
N 	N 	0.00600 0.82474 0.14234 -0.12200
N 	N 	0.07950 0.91476 0.23480 -0.11300
N 	N 	0.14150 0.62003 0.30587 -0.20900
N 	N 	0.19630 0.67532 0.35811 -0.06400
N 	N 	0.05010 0.72891 0.35149 -0.12400
N 	N 	0.96080 0.63557 0.26411 -0.11800
H 	H 	0.96324 0.22907 0.88971 0.06700
H 	H 	0.97296 0.21533 0.61824 0.06700
Zn	Zn	0.72196 0.48169 0.70388 1.17800
H 	H 	0.35930 0.44960 0.78120 -0.01600
H 	H 	0.26520 0.45420 0.90300 0.06500
H 	H 	0.81620 0.53890 0.98740 0.06400
H 	H 	0.89970 0.53010 0.86400 -0.01700
H 	H 	0.49940 0.59820 0.59230 -0.00800
H 	H 	0.19280 0.60960 0.51220 0.07000
H 	H 	0.09060 0.38050 0.55060 0.07600
H 	H 	0.39800 0.37560 0.63090 -0.01300
H 	H 	0.40230 0.63570 0.83400 0.05200
H 	H 	0.33310 0.75220 0.62810 0.04200
H 	H 	0.65000 0.80940 0.66290 0.04700
H 	H 	0.71560 0.69460 0.86970 0.04200
C 	C 	0.45420 0.46736 0.82385 0.06700
C 	C 	0.39670 0.47055 0.89642 -0.12400
C 	C 	0.52880 0.49748 0.96038 0.04600
C 	C 	0.71970 0.51990 0.94592 -0.12200
C 	C 	0.76870 0.51459 0.87216 0.06000
C 	C 	0.41340 0.55385 0.58472 0.06700
C 	C 	0.23050 0.56092 0.53664 -0.12200
C 	C 	0.10120 0.49689 0.52395 0.04100
C 	C 	0.17020 0.42653 0.55933 -0.12400
C 	C 	0.35430 0.42390 0.60706 0.06600
C 	C 	0.14130 0.64993 0.70283 0.11400
C 	C 	0.33690 0.68813 0.72726 -0.01600
C 	C 	0.45210 0.67121 0.79935 -0.05000
C 	C 	0.41130 0.74011 0.67699 -0.04600
C 	C 	0.90850 0.79693 0.79361 0.11500
C 	C 	0.71350 0.75756 0.77015 -0.01700
C 	C 	0.59920 0.77445 0.69781 -0.04400
C 	C 	0.63850 0.70605 0.82041 -0.04200
N 	N 	0.63800 0.48812 0.81056 -0.28000
N 	N 	0.47450 0.48680 0.62121 -0.27800
N 	N 	0.90050 0.57083 0.69122 -0.21000
N 	N 	0.85550 0.62392 0.63619 -0.06500
N 	N 	0.00600 0.67526 0.64234 -0.12200
N 	N 	0.07950 0.58524 0.73480 -0.11300
N 	N 	0.14150 0.87997 0.80587 -0.20900
N 	N 	0.19630 0.82468 0.85811 -0.06400
N 	N 	0.05010 0.77109 0.85149 -0.12500
N 	N 	0.96080 0.86443 0.76411 -0.11800
H 	H 	0.96324 0.27093 0.38971 0.06700
H 	H 	0.97296 0.28467 0.11824 0.06700
Zn	Zn	0.27804 0.98169 0.79612 1.17800
H 	H 	0.64070 0.94960 0.71880 -0.01600
H 	H 	0.73480 0.95420 0.59700 0.06500
H 	H 	0.18380 0.03890 0.51260 0.06400
H 	H 	0.10030 0.03010 0.63600 -0.01700
H 	H 	0.50060 0.09820 0.90770 -0.00800
H 	H 	0.80720 0.10960 0.98780 0.07100
H 	H 	0.90940 0.88050 0.94940 0.07600
H 	H 	0.60200 0.87560 0.86910 -0.01300
H 	H 	0.59770 0.13570 0.66600 0.05200
H 	H 	0.66690 0.25220 0.87190 0.04200
H 	H 	0.35000 0.30940 0.83710 0.04700
H 	H 	0.28440 0.19460 0.63030 0.04200
C 	C 	0.54580 0.96736 0.67615 0.06700
C 	C 	0.60330 0.97055 0.60358 -0.12400
C 	C 	0.47120 0.99748 0.53962 0.04600
C 	C 	0.28030 0.01990 0.55408 -0.12300
C 	C 	0.23130 0.01459 0.62784 0.06100
C 	C 	0.58660 0.05385 0.91528 0.06900
C 	C 	0.76950 0.06092 0.96336 -0.12100
C 	C 	0.89880 0.99689 0.97605 0.04000
C 	C 	0.82980 0.92653 0.94067 -0.12400
C 	C 	0.64570 0.92390 0.89294 0.06600
C 	C 	0.85870 0.14993 0.79717 0.11400
C 	C 	0.66310 0.18813 0.77274 -0.01600
C 	C 	0.54790 0.17121 0.70065 -0.05000
C 	C 	0.58870 0.24011 0.82301 -0.04600
C 	C 	0.09150 0.29693 0.70639 0.11500
C 	C 	0.28650 0.25756 0.72985 -0.01700
C 	C 	0.40080 0.27445 0.80219 -0.04400
C 	C 	0.36150 0.20605 0.67959 -0.04200
N 	N 	0.36200 0.98812 0.68944 -0.28100
N 	N 	0.52550 0.98680 0.87879 -0.27900
N 	N 	0.09950 0.07083 0.80878 -0.20900
N 	N 	0.14450 0.12392 0.86381 -0.06400
N 	N 	0.99400 0.17526 0.85766 -0.12200
N 	N 	0.92050 0.08524 0.76520 -0.11300
N 	N 	0.85850 0.37997 0.69413 -0.20900
N 	N 	0.80370 0.32468 0.64189 -0.06400
N 	N 	0.94990 0.27109 0.64851 -0.12400
N 	N 	0.03920 0.36443 0.73589 -0.11800
H 	H 	0.03676 0.77093 0.11029 0.06700
H 	H 	0.02704 0.78467 0.38176 0.06700
