data_crystal

_cell_length_a 17.75500
_cell_length_b 19.83800
_cell_length_c 13.31100
_cell_angle_alpha 90.00000
_cell_angle_beta  131.83400
_cell_angle_gamma 90.00000

_symmetry_space_group_name_	'P 1'
_symmetry_space_group_name_H-M	'P 1'

loop_
_symmetry_equiv_pos_as_xyz
  x,y,z

loop_
_atom_site_label
_atom_site_type_symbol
_atom_site_fract_x
_atom_site_fract_y
_atom_site_fract_z
_atom_site_charge
La	La	0.89195 0.26696 0.28394 1.46100
La	La	0.60805 0.51695 0.21615 1.53700
O 	O 	0.58400 0.38880 0.14430 -0.64800
H 	H 	0.55780 0.38610 0.18030 0.22400
H 	H 	0.61030 0.35000 0.14690 0.26700
O 	O 	0.43880 0.71250 0.16530 -0.45400
O 	O 	0.52760 0.61620 0.24000 -0.43600
O 	O 	0.55620 0.54250 0.82500 -0.44900
O 	O 	0.60040 0.50535 0.01740 -0.41300
O 	O 	0.78850 0.36660 0.26030 -0.42800
O 	O 	0.77280 0.46240 0.33450 -0.43700
O 	O 	0.08370 0.25510 0.48280 -0.41000
O 	O 	0.23160 0.29210 0.67510 -0.44600
N 	N 	0.51420 0.61120 0.02780 -0.18000
N 	N 	0.98560 0.36110 0.47130 -0.22400
C 	C 	0.47940 0.66380 0.15650 0.34300
C 	C 	0.46950 0.66300 0.03470 -0.07800
C 	C 	0.41670 0.71300 0.93540 -0.00500
H 	H 	0.38390 0.74750 0.94040 0.01300
C 	C 	0.41450 0.70960 0.82940 -0.08000
H 	H 	0.38090 0.74250 0.76250 0.03900
C 	C 	0.46280 0.65690 0.82390 -0.00700
H 	H 	0.46380 0.65440 0.75510 0.01300
C 	C 	0.50960 0.60780 0.92350 -0.07300
C 	C 	0.55960 0.54680 0.92160 0.34000
C 	C 	0.82320 0.41400 0.34370 0.32800
C 	C 	0.93480 0.41290 0.46560 -0.04100
C 	C 	0.98120 0.46310 0.56390 -0.13600
H 	H 	0.94320 0.49760 0.55860 0.04600
C 	C 	0.08470 0.46060 0.66940 0.06100
H 	H 	0.11780 0.49400 0.73510 0.00000
C 	C 	0.13900 0.40700 0.67580 -0.08900
H 	H 	0.20880 0.40430 0.74530 0.04700
C 	C 	0.08630 0.35790 0.57600 -0.00200
C 	C 	0.13780 0.29680 0.57800 0.31900
La	La	0.39195 0.76696 0.28394 1.49300
La	La	0.10805 0.01695 0.21615 1.54800
O 	O 	0.08400 0.88880 0.14430 -0.64600
H 	H 	0.05780 0.88610 0.18030 0.23400
H 	H 	0.11030 0.85000 0.14690 0.27400
O 	O 	0.93880 0.21250 0.16530 -0.45200
O 	O 	0.02760 0.11620 0.24000 -0.39200
O 	O 	0.05620 0.04250 0.82500 -0.43400
O 	O 	0.10040 0.00535 0.01740 -0.40700
O 	O 	0.28850 0.86660 0.26030 -0.42900
O 	O 	0.27280 0.96240 0.33450 -0.43800
O 	O 	0.58370 0.75510 0.48280 -0.43700
O 	O 	0.73160 0.79210 0.67510 -0.45800
N 	N 	0.01420 0.11120 0.02780 -0.17100
N 	N 	0.48560 0.86110 0.47130 -0.18000
C 	C 	0.97940 0.16380 0.15650 0.28800
C 	C 	0.96950 0.16300 0.03470 -0.09800
C 	C 	0.91670 0.21300 0.93540 -0.03000
H 	H 	0.88390 0.24750 0.94040 0.01600
C 	C 	0.91450 0.20960 0.82940 -0.04200
H 	H 	0.88090 0.24250 0.76250 0.01800
C 	C 	0.96280 0.15690 0.82390 -0.10100
H 	H 	0.96380 0.15440 0.75510 0.02600
C 	C 	0.00960 0.10780 0.92350 0.00000
C 	C 	0.05960 0.04680 0.92160 0.32700
C 	C 	0.32320 0.91400 0.34370 0.34600
C 	C 	0.43480 0.91290 0.46560 -0.07900
C 	C 	0.48120 0.96310 0.56390 -0.00500
H 	H 	0.44320 0.99760 0.55860 0.01000
C 	C 	0.58470 0.96060 0.66940 -0.08400
H 	H 	0.61780 0.99400 0.73510 0.03600
C 	C 	0.63900 0.90700 0.67580 -0.00600
H 	H 	0.70880 0.90430 0.74530 0.00900
C 	C 	0.58630 0.85790 0.57600 -0.08100
C 	C 	0.63780 0.79680 0.57800 0.34000
La	La	0.89195 0.73304 0.78394 1.46300
La	La	0.60805 0.48305 0.71615 1.53900
O 	O 	0.58400 0.61120 0.64430 -0.64700
H 	H 	0.55780 0.61390 0.68030 0.22500
H 	H 	0.61030 0.65000 0.64690 0.26900
O 	O 	0.43880 0.28750 0.66530 -0.45200
O 	O 	0.52760 0.38380 0.74000 -0.43600
O 	O 	0.55620 0.45750 0.32500 -0.44900
O 	O 	0.60040 0.49465 0.51740 -0.41200
O 	O 	0.78850 0.63340 0.76030 -0.42800
O 	O 	0.77280 0.53760 0.83450 -0.43700
O 	O 	0.08370 0.74490 0.98280 -0.41000
O 	O 	0.23160 0.70790 0.17510 -0.44600
N 	N 	0.51420 0.38880 0.52780 -0.18000
N 	N 	0.98560 0.63890 0.97130 -0.22200
C 	C 	0.47940 0.33620 0.65650 0.34200
C 	C 	0.46950 0.33700 0.53470 -0.07700
C 	C 	0.41670 0.28700 0.43540 -0.00600
H 	H 	0.38390 0.25250 0.44040 0.01300
C 	C 	0.41450 0.29040 0.32940 -0.07900
H 	H 	0.38090 0.25750 0.26250 0.03800
C 	C 	0.46280 0.34310 0.32390 -0.00700
H 	H 	0.46380 0.34560 0.25510 0.01200
C 	C 	0.50960 0.39220 0.42350 -0.07300
C 	C 	0.55960 0.45320 0.42160 0.33900
C 	C 	0.82320 0.58600 0.84370 0.32800
C 	C 	0.93480 0.58710 0.96560 -0.04200
C 	C 	0.98120 0.53690 0.06390 -0.13300
H 	H 	0.94320 0.50240 0.05860 0.04400
C 	C 	0.08470 0.53940 0.16940 0.05600
H 	H 	0.11780 0.50600 0.23510 0.00100
C 	C 	0.13900 0.59300 0.17580 -0.08700
H 	H 	0.20880 0.59570 0.24530 0.04600
C 	C 	0.08630 0.64210 0.07600 -0.00500
C 	C 	0.13780 0.70320 0.07800 0.31800
La	La	0.39195 0.23304 0.78394 1.49300
La	La	0.10805 0.98305 0.71615 1.54800
O 	O 	0.08400 0.11120 0.64430 -0.64600
H 	H 	0.05780 0.11390 0.68030 0.23500
H 	H 	0.11030 0.15000 0.64690 0.27500
O 	O 	0.93880 0.78750 0.66530 -0.45200
O 	O 	0.02760 0.88380 0.74000 -0.39100
O 	O 	0.05620 0.95750 0.32500 -0.43400
O 	O 	0.10040 0.99465 0.51740 -0.40300
O 	O 	0.28850 0.13340 0.76030 -0.42900
O 	O 	0.27280 0.03760 0.83450 -0.43700
O 	O 	0.58370 0.24490 0.98280 -0.43500
O 	O 	0.73160 0.20790 0.17510 -0.45800
N 	N 	0.01420 0.88880 0.52780 -0.16900
N 	N 	0.48560 0.13890 0.97130 -0.18000
C 	C 	0.97940 0.83620 0.65650 0.28800
C 	C 	0.96950 0.83700 0.53470 -0.09600
C 	C 	0.91670 0.78700 0.43540 -0.03200
H 	H 	0.88390 0.75250 0.44040 0.01600
C 	C 	0.91450 0.79040 0.32940 -0.04300
H 	H 	0.88090 0.75750 0.26250 0.01800
C 	C 	0.96280 0.84310 0.32390 -0.09700
H 	H 	0.96380 0.84560 0.25510 0.02600
C 	C 	0.00960 0.89220 0.42350 -0.00400
C 	C 	0.05960 0.95320 0.42160 0.32300
C 	C 	0.32320 0.08600 0.84370 0.34500
C 	C 	0.43480 0.08710 0.96560 -0.07500
C 	C 	0.48120 0.03690 0.06390 -0.01000
H 	H 	0.44320 0.00240 0.05860 0.01100
C 	C 	0.58470 0.03940 0.16940 -0.08200
H 	H 	0.61780 0.00600 0.23510 0.03500
C 	C 	0.63900 0.09300 0.17580 -0.00700
H 	H 	0.70880 0.09570 0.24530 0.00900
C 	C 	0.58630 0.14210 0.07600 -0.08200
C 	C 	0.63780 0.20320 0.07800 0.33800
