data_crystal

_cell_length_a 14.70800
_cell_length_b 15.42900
_cell_length_c 23.08400
_cell_angle_alpha 84.28200
_cell_angle_beta  82.61900
_cell_angle_gamma 86.75600

_symmetry_space_group_name_	'P 1'
_symmetry_space_group_name_H-M	'P 1'

loop_
_symmetry_equiv_pos_as_xyz
  x,y,z

loop_
_atom_site_label
_atom_site_type_symbol
_atom_site_fract_x
_atom_site_fract_y
_atom_site_fract_z
_atom_site_charge
C 	C 	0.96440 0.03630 0.21000 0.49500
C 	C 	0.04050 0.00050 0.16990 -0.30000
C 	C 	0.12910 0.02620 0.17110 0.23900
H 	H 	0.13980 0.06440 0.19790 -0.03700
C 	C 	0.02680 0.94350 0.12940 0.25900
H 	H 	0.96800 0.92550 0.12770 -0.05300
C 	C 	0.09900 0.91300 0.09140 -0.37200
H 	H 	0.08880 0.87420 0.06480 0.16400
C 	C 	0.20170 0.99620 0.13310 -0.35500
H 	H 	0.26070 0.01380 0.13470 0.17000
C 	C 	0.18640 0.94000 0.09280 0.36200
C 	C 	0.25210 0.87540 0.00600 0.38000
C 	C 	0.20670 0.92100 0.96340 -0.40900
H 	H 	0.18140 0.97660 0.96880 0.18600
C 	C 	0.29190 0.79460 0.99830 -0.39200
H 	H 	0.32390 0.76480 0.02690 0.17100
C 	C 	0.19900 0.88370 0.91290 0.30500
H 	H 	0.16790 0.91430 0.88410 -0.07900
C 	C 	0.28350 0.75830 0.94720 0.29100
H 	H 	0.31030 0.70320 0.94180 -0.06100
C 	C 	0.23700 0.80070 0.90410 -0.35600
C 	C 	0.22580 0.76050 0.84890 0.58800
C 	C 	0.78240 0.92160 0.35930 0.42000
C 	C 	0.75210 0.93450 0.42210 -0.29500
C 	C 	0.67610 0.98940 0.43610 0.24900
H 	H 	0.64550 0.01820 0.40640 -0.05200
C 	C 	0.79660 0.89190 0.46590 0.22900
H 	H 	0.84640 0.85370 0.45670 -0.04700
C 	C 	0.64610 0.00130 0.49400 -0.38300
H 	H 	0.59440 0.03700 0.50350 0.16900
C 	C 	0.76770 0.90520 0.52420 -0.34900
H 	H 	0.79870 0.87740 0.55400 0.16800
C 	C 	0.69220 0.96060 0.53710 0.37000
C 	C 	0.60290 0.03450 0.61280 0.40100
C 	C 	0.62070 0.12090 0.59930 -0.40200
H 	H 	0.67460 0.13670 0.57600 0.17600
C 	C 	0.52540 0.00960 0.64610 -0.41000
H 	H 	0.51400 0.95080 0.65490 0.18900
C 	C 	0.55880 0.18460 0.62030 0.26600
H 	H 	0.57130 0.24310 0.61140 -0.05600
C 	C 	0.47800 0.16110 0.65440 -0.32600
C 	C 	0.46200 0.07380 0.66710 0.29000
H 	H 	0.40810 0.05710 0.69010 -0.08700
C 	C 	0.41160 0.22810 0.68110 0.47200
C 	C 	0.74790 0.83520 0.12490 0.47000
C 	C 	0.71940 0.82950 0.06560 -0.29300
C 	C 	0.78470 0.83410 0.01650 0.24800
H 	H 	0.84540 0.84380 0.02040 -0.05000
C 	C 	0.62870 0.81870 0.05930 0.27400
H 	H 	0.58450 0.81670 0.09200 -0.07300
C 	C 	0.76050 0.82460 0.96220 -0.37400
H 	H 	0.80470 0.82510 0.92950 0.17800
C 	C 	0.60330 0.81080 0.00460 -0.39100
H 	H 	0.54240 0.80330 -0.00000 0.17000
C 	C 	0.67040 0.81440 0.95680 0.38400
C 	C 	0.57450 0.83440 0.87930 0.40500
C 	C 	0.53870 0.91650 0.89120 -0.41800
H 	H 	0.56350 0.94770 0.91750 0.18300
C 	C 	0.53820 0.78750 0.84090 -0.41300
H 	H 	0.56220 0.73180 0.83400 0.19500
C 	C 	0.46580 0.95100 0.86340 0.30500
H 	H 	0.44010 0.00540 0.87200 -0.06600
C 	C 	0.46670 0.82330 0.81270 0.30800
H 	H 	0.44220 0.79180 0.78650 -0.07200
C 	C 	0.42990 0.90690 0.82300 -0.35800
C 	C 	0.35190 0.94360 0.79200 0.58200
C 	C 	0.91080 0.72510 0.21660 0.51800
C 	C 	0.98220 0.66350 0.18870 -0.36700
C 	C 	0.07120 0.68640 0.18140 0.31500
H 	H 	0.08590 0.73980 0.19230 -0.06400
C 	C 	0.96120 0.58600 0.17160 0.33500
H 	H 	0.90050 0.56980 0.17630 -0.09400
C 	C 	0.14020 0.63050 0.15770 -0.44900
H 	H 	0.20130 0.64530 0.15410 0.19400
C 	C 	0.03090 0.53080 0.14690 -0.45400
H 	H 	0.01700 0.47760 0.13530 0.19600
C 	C 	0.11840 0.55510 0.14000 0.44200
C 	C 	0.20450 0.48640 0.06120 0.45000
C 	C 	0.17380 0.54480 0.01900 -0.47400
H 	H 	0.13910 0.59440 0.02940 0.19600
C 	C 	0.25720 0.41450 0.04640 -0.46200
H 	H 	0.27870 0.37500 0.07520 0.21700
C 	C 	0.19430 0.52990 0.96070 0.35300
H 	H 	0.17240 0.56940 0.93200 -0.09000
C 	C 	0.27790 0.40160 0.98800 0.34700
H 	H 	0.31460 0.35300 0.97780 -0.07200
C 	C 	0.24670 0.45730 0.94440 -0.39700
C 	C 	0.27080 0.43770 0.88210 0.58200
C 	C 	0.70510 0.50760 0.33590 0.46100
C 	C 	0.70320 0.55330 0.38930 -0.30500
C 	C 	0.75690 0.62470 0.38980 0.27300
H 	H 	0.79640 0.64250 0.35650 -0.07400
C 	C 	0.64550 0.52770 0.43900 0.26000
H 	H 	0.60950 0.48010 0.43920 -0.04900
C 	C 	0.75230 0.66920 0.43870 -0.38500
H 	H 	0.78860 0.71660 0.43870 0.18500
C 	C 	0.64050 0.57220 0.48870 -0.37800
H 	H 	0.60160 0.55440 0.52230 0.17000
C 	C 	0.69360 0.64280 0.48770 0.38000
C 	C 	0.60730 0.71030 0.56620 0.40600
C 	C 	0.59350 0.69370 0.62540 -0.42300
H 	H 	0.64080 0.66900 0.64560 0.19300
C 	C 	0.53950 0.74890 0.53650 -0.40000
H 	H 	0.54990 0.76060 0.49590 0.17800
C 	C 	0.50910 0.71380 0.65550 0.31600
H 	H 	0.49960 0.70120 0.69600 -0.08700
C 	C 	0.45440 0.77110 0.56660 0.27600
H 	H 	0.40820 0.79860 0.54660 -0.05700
C 	C 	0.43990 0.75120 0.62740 -0.34200
C 	C 	0.34710 0.77120 0.65880 0.52000
C 	C 	0.51840 0.48170 0.23810 0.46400
C 	C 	0.42410 0.49760 0.26770 -0.31700
C 	C 	0.41250 0.54220 0.31800 0.24600
H 	H 	0.46230 0.56750 0.32950 -0.05500
C 	C 	0.34980 0.46280 0.25060 0.27200
H 	H 	0.35740 0.43200 0.21760 -0.05300
C 	C 	0.32780 0.54920 0.35040 -0.36200
H 	H 	0.32070 0.57760 0.38450 0.17200
C 	C 	0.26420 0.47250 0.28090 -0.39300
H 	H 	0.21380 0.45160 0.26710 0.18000
C 	C 	0.25250 0.51350 0.33220 0.37300
C 	C 	0.09980 0.47370 0.35460 0.42100
C 	C 	0.03400 0.51870 0.32600 -0.43300
H 	H 	0.03450 0.57910 0.31890 0.19600
C 	C 	0.09590 0.38650 0.37050 -0.44600
H 	H 	0.13890 0.35820 0.39290 0.20300
C 	C 	0.96660 0.47290 0.30770 0.32700
H 	H 	0.92180 0.50240 0.28730 -0.07600
C 	C 	0.02870 0.34080 0.35350 0.33100
H 	H 	0.02510 0.28140 0.36470 -0.08100
C 	C 	0.96560 0.38350 0.31940 -0.37900
C 	C 	0.89970 0.33270 0.29450 0.58700
Nd	Nd	0.81455 0.13019 0.28154 2.26300
Nd	Nd	0.78876 0.88006 0.23844 2.37100
Nd	Nd	0.66772 0.66493 0.22696 2.18100
Nd	Nd	0.70391 0.40303 0.23495 2.45300
O 	O 	0.97650 0.09840 0.23803 -0.50700
O 	O 	0.88570 0.00170 0.21591 -0.66700
O 	O 	0.26350 0.91200 0.05755 -0.35000
O 	O 	0.17490 0.79700 0.81441 -0.59100
O 	O 	0.27020 0.68860 0.84134 -0.59700
O 	O 	0.75710 0.97940 0.31968 -0.64600
O 	O 	0.82730 0.85480 0.34410 -0.47700
O 	O 	0.66680 0.96910 0.59626 -0.35100
O 	O 	0.43190 0.30570 0.67774 -0.49100
O 	O 	0.33630 0.20320 0.71070 -0.67500
O 	O 	0.82060 0.87080 0.12981 -0.48700
O 	O 	0.69620 0.80490 0.17037 -0.64600
O 	O 	0.65140 0.79790 0.90180 -0.36300
O 	O 	0.32210 0.01990 0.80001 -0.58000
O 	O 	0.32160 0.89770 0.75750 -0.57800
O 	O 	0.93380 0.79600 0.22995 -0.53600
O 	O 	0.82690 0.70550 0.22502 -0.62800
O 	O 	0.18830 0.49580 0.12040 -0.38100
O 	O 	0.24580 0.49110 0.84200 -0.64600
O 	O 	0.31480 0.36870 0.87168 -0.59000
O 	O 	0.73720 0.54670 0.28647 -0.62100
O 	O 	0.67460 0.43270 0.33939 -0.51100
O 	O 	0.69340 0.68860 0.53650 -0.35300
O 	O 	0.32510 0.73450 0.71016 -0.64200
O 	O 	0.29370 0.82610 0.63542 -0.53000
O 	O 	0.58080 0.53350 0.24100 -0.67600
O 	O 	0.53840 0.41130 0.21423 -0.49500
O 	O 	0.17200 0.52110 0.36830 -0.35300
O 	O 	0.85050 0.37490 0.25770 -0.62300
O 	O 	0.89330 0.25250 0.30818 -0.57300
C 	C 	0.03560 0.96370 0.79000 0.49500
C 	C 	0.95950 0.99950 0.83010 -0.30400
C 	C 	0.87090 0.97380 0.82890 0.24200
H 	H 	0.86020 0.93560 0.80210 -0.03900
C 	C 	0.97320 0.05650 0.87060 0.26200
H 	H 	0.03200 0.07450 0.87230 -0.05500
C 	C 	0.90100 0.08700 0.90860 -0.37600
H 	H 	0.91120 0.12580 0.93520 0.16700
C 	C 	0.79830 0.00380 0.86690 -0.35900
H 	H 	0.73930 0.98620 0.86530 0.17200
C 	C 	0.81360 0.06000 0.90720 0.36800
C 	C 	0.74790 0.12460 0.99400 0.42600
C 	C 	0.79330 0.07900 0.03660 -0.45300
H 	H 	0.81860 0.02340 0.03120 0.19900
C 	C 	0.70810 0.20540 0.00170 -0.45000
H 	H 	0.67610 0.23520 0.97310 0.19500
C 	C 	0.80100 0.11630 0.08710 0.33700
H 	H 	0.83210 0.08570 0.11590 -0.09000
C 	C 	0.71650 0.24170 0.05280 0.33000
H 	H 	0.68970 0.29680 0.05820 -0.07600
C 	C 	0.76300 0.19930 0.09590 -0.38300
C 	C 	0.77420 0.23950 0.15110 0.59700
C 	C 	0.21760 0.07840 0.64070 0.42000
C 	C 	0.24790 0.06550 0.57790 -0.29500
C 	C 	0.32390 0.01060 0.56390 0.24900
H 	H 	0.35450 0.98180 0.59360 -0.05200
C 	C 	0.20340 0.10810 0.53410 0.22900
H 	H 	0.15360 0.14630 0.54330 -0.04700
C 	C 	0.35390 0.99870 0.50600 -0.38300
H 	H 	0.40560 0.96300 0.49650 0.16900
C 	C 	0.23230 0.09480 0.47580 -0.34900
H 	H 	0.20130 0.12260 0.44600 0.16800
C 	C 	0.30780 0.03940 0.46290 0.37000
C 	C 	0.39710 0.96550 0.38720 0.40100
C 	C 	0.37930 0.87910 0.40070 -0.40200
H 	H 	0.32540 0.86330 0.42400 0.17600
C 	C 	0.47460 0.99040 0.35390 -0.41100
H 	H 	0.48600 0.04920 0.34510 0.18900
C 	C 	0.44120 0.81540 0.37970 0.26600
H 	H 	0.42870 0.75690 0.38860 -0.05600
C 	C 	0.52200 0.83890 0.34560 -0.32600
C 	C 	0.53800 0.92620 0.33290 0.29000
H 	H 	0.59190 0.94290 0.30990 -0.08700
C 	C 	0.58840 0.77190 0.31890 0.47200
C 	C 	0.25210 0.16480 0.87510 0.46900
C 	C 	0.28060 0.17050 0.93440 -0.29100
C 	C 	0.21530 0.16590 0.98350 0.25600
H 	H 	0.15460 0.15620 0.97960 -0.05000
C 	C 	0.37130 0.18130 0.94070 0.26500
H 	H 	0.41550 0.18330 0.90800 -0.07000
C 	C 	0.23950 0.17540 0.03780 -0.37900
H 	H 	0.19530 0.17490 0.07050 0.17800
C 	C 	0.39670 0.18920 0.99540 -0.36900
H 	H 	0.45760 0.19670 -0.00000 0.16000
C 	C 	0.32960 0.18560 0.04320 0.37200
C 	C 	0.42550 0.16560 0.12070 0.40300
C 	C 	0.46130 0.08350 0.10880 -0.41600
H 	H 	0.43650 0.05230 0.08250 0.18100
C 	C 	0.46180 0.21250 0.15910 -0.41100
H 	H 	0.43780 0.26820 0.16600 0.19400
C 	C 	0.53420 0.04900 0.13660 0.30300
H 	H 	0.55990 0.99460 0.12800 -0.06600
C 	C 	0.53330 0.17670 0.18730 0.30700
H 	H 	0.55780 0.20820 0.21350 -0.07200
C 	C 	0.57010 0.09310 0.17700 -0.35800
C 	C 	0.64810 0.05640 0.20800 0.58200
C 	C 	0.08920 0.27490 0.78340 0.51800
C 	C 	0.01780 0.33650 0.81130 -0.36500
C 	C 	0.92880 0.31360 0.81860 0.31400
H 	H 	0.91410 0.26020 0.80770 -0.06400
C 	C 	0.03880 0.41400 0.82840 0.33300
H 	H 	0.09950 0.43020 0.82370 -0.09300
C 	C 	0.85980 0.36950 0.84230 -0.44700
H 	H 	0.79870 0.35470 0.84590 0.19300
C 	C 	0.96910 0.46920 0.85310 -0.45100
H 	H 	0.98300 0.52240 0.86470 0.19600
C 	C 	0.88160 0.44490 0.86000 0.44000
C 	C 	0.79550 0.51360 0.93880 0.42700
C 	C 	0.82620 0.45520 0.98100 -0.44000
H 	H 	0.86090 0.40560 0.97060 0.18600
C 	C 	0.74280 0.58550 0.95360 -0.42700
H 	H 	0.72130 0.62500 0.92480 0.20600
C 	C 	0.80570 0.47010 0.03930 0.31900
H 	H 	0.82760 0.43060 0.06800 -0.08000
C 	C 	0.72210 0.59840 0.01200 0.31300
H 	H 	0.68540 0.64700 0.02220 -0.06200
C 	C 	0.75330 0.54270 0.05560 -0.37400
C 	C 	0.72920 0.56230 0.11790 0.57300
C 	C 	0.29490 0.49240 0.66410 0.46100
C 	C 	0.29680 0.44670 0.61070 -0.30500
C 	C 	0.24310 0.37530 0.61020 0.27300
H 	H 	0.20360 0.35750 0.64350 -0.07400
C 	C 	0.35450 0.47230 0.56100 0.26000
H 	H 	0.39050 0.51990 0.56080 -0.04900
C 	C 	0.24770 0.33080 0.56130 -0.38500
H 	H 	0.21140 0.28340 0.56130 0.18500
C 	C 	0.35950 0.42780 0.51130 -0.37800
H 	H 	0.39840 0.44560 0.47770 0.17000
C 	C 	0.30640 0.35720 0.51230 0.38000
C 	C 	0.39270 0.28970 0.43380 0.40600
C 	C 	0.40650 0.30630 0.37460 -0.42300
H 	H 	0.35920 0.33100 0.35440 0.19300
C 	C 	0.46050 0.25110 0.46350 -0.40000
H 	H 	0.45010 0.23940 0.50410 0.17800
C 	C 	0.49090 0.28620 0.34450 0.31600
H 	H 	0.50040 0.29880 0.30400 -0.08700
C 	C 	0.54560 0.22890 0.43340 0.27600
H 	H 	0.59180 0.20140 0.45340 -0.05700
C 	C 	0.56010 0.24880 0.37260 -0.34200
C 	C 	0.65290 0.22880 0.34120 0.52000
C 	C 	0.48160 0.51830 0.76190 0.46400
C 	C 	0.57590 0.50240 0.73230 -0.31700
C 	C 	0.58750 0.45780 0.68200 0.24500
H 	H 	0.53770 0.43250 0.67050 -0.05500
C 	C 	0.65020 0.53720 0.74940 0.27200
H 	H 	0.64260 0.56800 0.78240 -0.05300
C 	C 	0.67220 0.45080 0.64960 -0.36200
H 	H 	0.67930 0.42240 0.61550 0.17200
C 	C 	0.73580 0.52750 0.71910 -0.39300
H 	H 	0.78620 0.54840 0.73290 0.17900
C 	C 	0.74750 0.48650 0.66780 0.37300
C 	C 	0.90020 0.52630 0.64540 0.42100
C 	C 	0.96600 0.48130 0.67400 -0.43300
H 	H 	0.96550 0.42090 0.68110 0.19600
C 	C 	0.90410 0.61350 0.62950 -0.44600
H 	H 	0.86110 0.64180 0.60710 0.20300
C 	C 	0.03340 0.52710 0.69230 0.32700
H 	H 	0.07820 0.49760 0.71270 -0.07600
C 	C 	0.97130 0.65920 0.64650 0.33100
H 	H 	0.97490 0.71860 0.63530 -0.08100
C 	C 	0.03440 0.61650 0.68060 -0.37800
C 	C 	0.10030 0.66730 0.70550 0.58700
Nd	Nd	0.18545 0.86981 0.71846 2.26300
Nd	Nd	0.21124 0.11994 0.76156 2.37100
Nd	Nd	0.33228 0.33507 0.77304 2.18200
Nd	Nd	0.29609 0.59697 0.76505 2.45300
O 	O 	0.02350 0.90160 0.76197 -0.50700
O 	O 	0.11430 0.99830 0.78409 -0.66700
O 	O 	0.73650 0.08800 0.94245 -0.36000
O 	O 	0.82510 0.20300 0.18559 -0.59400
O 	O 	0.72980 0.31140 0.15866 -0.60000
O 	O 	0.24290 0.02060 0.68032 -0.64600
O 	O 	0.17270 0.14520 0.65590 -0.47700
O 	O 	0.33320 0.03090 0.40374 -0.35100
O 	O 	0.56810 0.69430 0.32226 -0.49100
O 	O 	0.66370 0.79680 0.28930 -0.67500
O 	O 	0.17940 0.12920 0.87019 -0.48600
O 	O 	0.30380 0.19510 0.82963 -0.64500
O 	O 	0.34860 0.20210 0.09820 -0.36100
O 	O 	0.67790 0.98010 0.19999 -0.58000
O 	O 	0.67840 0.10230 0.24250 -0.57800
O 	O 	0.06620 0.20400 0.77005 -0.53600
O 	O 	0.17310 0.29450 0.77498 -0.62800
O 	O 	0.81170 0.50420 0.87960 -0.37500
O 	O 	0.75420 0.50890 0.15800 -0.64400
O 	O 	0.68520 0.63130 0.12832 -0.58800
O 	O 	0.26280 0.45330 0.71353 -0.62100
O 	O 	0.32540 0.56730 0.66061 -0.51100
O 	O 	0.30660 0.31140 0.46350 -0.35300
O 	O 	0.67490 0.26550 0.28984 -0.64200
O 	O 	0.70630 0.17390 0.36458 -0.53000
O 	O 	0.41920 0.46650 0.75900 -0.67600
O 	O 	0.46160 0.58870 0.78577 -0.49500
O 	O 	0.82800 0.47890 0.63170 -0.35300
O 	O 	0.14950 0.62510 0.74230 -0.62200
O 	O 	0.10670 0.74750 0.69182 -0.57300
