data_crystal

_cell_length_a 19.01530
_cell_length_b 17.31460
_cell_length_c 14.77290
_cell_angle_alpha 110.33900
_cell_angle_beta  114.07700
_cell_angle_gamma 60.31420

_symmetry_space_group_name_	'P 1'
_symmetry_space_group_name_H-M	'P 1'

loop_
_symmetry_equiv_pos_as_xyz
  x,y,z

loop_
_atom_site_label
_atom_site_type_symbol
_atom_site_fract_x
_atom_site_fract_y
_atom_site_fract_z
_atom_site_charge
C 	C 	0.68236 0.01138 0.38990 -0.03700
C 	C 	0.80678 0.82522 0.45743 0.02300
C 	C 	0.74859 0.83736 0.36038 -0.05200
H 	H 	0.74719 0.77727 0.30517 0.04600
C 	C 	0.69080 0.92419 0.32921 -0.01000
H 	H 	0.65057 0.92176 0.25234 0.04600
C 	C 	0.78465 0.25586 0.31805 0.00100
H 	H 	0.80960 0.18392 0.31445 0.03700
C 	C 	0.84208 0.29930 0.36725 -0.05800
H 	H 	0.90849 0.25758 0.39579 0.04900
C 	C 	0.28476 0.25689 0.24230 -0.06300
C 	C 	0.27943 0.23572 0.32217 0.01000
H 	H 	0.33005 0.17646 0.35244 0.03900
C 	C 	0.21603 0.29200 0.37202 -0.06300
H 	H 	0.21857 0.27143 0.43490 0.04900
C 	C 	0.15371 0.37569 0.34756 0.03700
C 	C 	0.15684 0.39678 0.26612 -0.06200
H 	H 	0.11136 0.46115 0.24366 0.04900
C 	C 	0.22052 0.33986 0.21597 0.00600
H 	H 	0.22359 0.36519 0.16102 0.03600
C 	C 	0.74075 0.99988 0.48789 -0.01500
H 	H 	0.74227 0.06011 0.54275 0.04100
C 	C 	0.79923 0.91210 0.51935 -0.05000
H 	H 	0.84030 0.91305 0.59591 0.04600
C 	C 	0.69669 0.30393 0.28016 -0.05500
C 	C 	0.81631 0.39380 0.38350 0.03300
C 	C 	0.72911 0.44072 0.34442 -0.06000
H 	H 	0.70329 0.51344 0.35361 0.04900
C 	C 	0.67236 0.39781 0.29618 0.00400
H 	H 	0.60573 0.44101 0.27262 0.04400
C 	C 	0.30738 0.40028 0.02639 -0.04000
C 	C 	0.31640 0.37107 0.92707 -0.01000
H 	H 	0.37699 0.32020 0.91727 0.04500
C 	C 	0.25157 0.40238 0.83646 -0.05300
H 	H 	0.26833 0.37336 0.76660 0.04600
C 	C 	0.16782 0.46741 0.83235 0.02500
C 	C 	0.15759 0.49775 0.93143 -0.05500
H 	H 	0.09603 0.54770 0.93911 0.04600
C 	C 	0.22320 0.46620 0.02315 -0.00700
H 	H 	0.20622 0.49390 0.09282 0.03600
C 	C 	0.98039 0.54037 0.52939 -0.00800
C 	C 	0.87606 0.44314 0.44025 -0.02300
C 	C 	0.92073 0.48866 0.48679 0.00200
C 	C 	0.04117 0.52410 0.64474 -0.00100
C 	C 	0.09677 0.49992 0.72991 -0.02100
C 	C 	0.09044 0.43966 0.40795 -0.02500
C 	C 	0.04101 0.49127 0.46145 0.00300
C 	C 	0.87066 0.72744 0.48996 -0.02000
C 	C 	0.92146 0.64680 0.51333 -0.00100
O 	O 	0.39541 0.36914 0.22242 -0.35300
O 	O 	0.44909 0.28181 0.08950 -0.36300
C 	C 	0.38546 0.35145 0.11950 0.24900
O 	O 	0.56749 0.32808 0.29675 -0.37300
O 	O 	0.61694 0.19306 0.19082 -0.35600
C 	C 	0.62583 0.27021 0.25224 0.26800
Cu	Cu	0.49337 0.29358 0.31924 0.89500
Cu	Cu	0.51247 0.17680 0.15602 0.89500
O 	O 	0.59344 0.19495 0.38614 -0.34800
O 	O 	0.57273 0.08846 0.24577 -0.36300
O 	O 	0.42320 0.24149 0.31926 -0.37400
O 	O 	0.40345 0.18471 0.14998 -0.36000
C 	C 	0.61394 0.10414 0.34240 0.25100
C 	C 	0.37359 0.22273 0.23259 0.27300
