data_crystal

_cell_length_a 6.92800
_cell_length_b 17.56480
_cell_length_c 17.56480
_cell_angle_alpha 61.70110
_cell_angle_beta  82.44510
_cell_angle_gamma 97.55490

_symmetry_space_group_name_	'P 1'
_symmetry_space_group_name_H-M	'P 1'

loop_
_symmetry_equiv_pos_as_xyz
  x,y,z

loop_
_atom_site_label
_atom_site_type_symbol
_atom_site_fract_x
_atom_site_fract_y
_atom_site_fract_z
_atom_site_charge
Zn	Zn	0.74487 0.00965 0.70910 1.21000
Zn	Zn	0.55830 0.12604 0.53554 1.22900
Zn	Zn	0.45397 0.70910 0.28125 1.22000
Zn	Zn	0.09384 0.53554 0.33842 1.24300
Zn	Zn	0.73522 0.28125 0.00965 1.21100
Zn	Zn	0.43226 0.33842 0.12604 1.23000
Zn	Zn	0.95397 0.71875 0.29090 1.20100
Zn	Zn	0.59384 0.66158 0.46446 1.22800
Zn	Zn	0.23522 0.99035 0.71875 1.22200
Zn	Zn	0.93226 0.87396 0.66158 1.20900
Zn	Zn	0.24487 0.29090 0.99035 1.22000
Zn	Zn	0.05830 0.46446 0.87396 1.24300
H 	H 	0.50450 0.95750 0.64330 0.19400
H 	H 	0.58840 0.29060 0.40910 0.27800
H 	H 	0.58300 0.79450 0.99510 0.04400
H 	H 	0.46880 0.67290 0.85520 0.04700
H 	H 	0.32720 0.53450 0.12240 0.04600
H 	H 	0.14780 0.64330 0.39920 0.20200
H 	H 	0.99750 0.40910 0.30030 0.18900
H 	H 	0.57810 0.99510 0.21040 0.04200
H 	H 	0.32400 0.85520 0.47190 0.05400
H 	H 	0.44960 0.12240 0.34310 0.04100
H 	H 	0.54700 0.39920 0.95750 0.18800
H 	H 	0.29780 0.30030 0.29060 0.29000
H 	H 	0.78850 0.21040 0.79450 0.03800
H 	H 	0.79590 0.47190 0.67290 0.03400
H 	H 	0.79270 0.34310 0.53450 0.02300
H 	H 	0.64780 0.60080 0.35670 0.19100
H 	H 	0.49750 0.69970 0.59090 0.28200
H 	H 	0.07810 0.78960 0.00490 0.03900
H 	H 	0.82400 0.52810 0.14480 0.03400
H 	H 	0.94960 0.65690 0.87760 0.04400
H 	H 	0.04700 0.04250 0.60080 0.19900
H 	H 	0.79780 0.70940 0.69970 0.27900
H 	H 	0.28850 0.20550 0.78960 0.05500
H 	H 	0.29590 0.32710 0.52810 0.05000
H 	H 	0.29270 0.46550 0.65690 0.04300
H 	H 	0.00450 0.35670 0.04250 0.20600
H 	H 	0.08840 0.59090 0.70940 0.29300
H 	H 	0.08300 0.00490 0.20550 0.04300
H 	H 	0.96880 0.14480 0.32710 0.05600
H 	H 	0.82720 0.87760 0.46550 0.03300
C 	C 	0.45304 0.66408 0.07156 -0.11000
C 	C 	0.53992 0.74669 0.91243 -0.11700
C 	C 	0.38649 0.59057 0.98830 -0.11300
C 	C 	0.53357 0.74362 0.99351 0.05500
C 	C 	0.46559 0.67041 0.90944 0.05700
C 	C 	0.62881 0.83142 0.82649 0.35100
C 	C 	0.38016 0.58759 0.06971 0.05900
C 	C 	0.29836 0.50947 0.98619 0.35400
C 	C 	0.43673 0.65979 0.15970 0.37200
C 	C 	0.52460 0.07156 0.26436 -0.12400
C 	C 	0.45235 0.91243 0.34088 -0.11000
C 	C 	0.37479 0.98830 0.42113 -0.10700
C 	C 	0.52708 0.99351 0.26287 0.06400
C 	C 	0.37503 0.90944 0.42015 0.05800
C 	C 	0.45530 0.82649 0.34209 0.35900
C 	C 	0.44987 0.06971 0.34270 0.05400
C 	C 	0.28455 0.98619 0.50434 0.35700
C 	C 	0.59643 0.15970 0.18051 0.36600
C 	C 	0.78896 0.26436 0.66408 -0.13500
C 	C 	0.79323 0.34088 0.74669 -0.13200
C 	C 	0.79592 0.42113 0.59057 -0.13900
C 	C 	0.78995 0.26287 0.74362 0.06300
C 	C 	0.79518 0.42015 0.67041 0.06000
C 	C 	0.79739 0.34209 0.83142 0.35700
C 	C 	0.79257 0.34270 0.58759 0.05900
C 	C 	0.78889 0.50434 0.50947 0.35000
C 	C 	0.77694 0.18051 0.65979 0.36700
C 	C 	0.02460 0.73564 0.92844 -0.06200
C 	C 	0.95235 0.65912 0.08757 -0.20000
C 	C 	0.87479 0.57887 0.01170 -0.12000
C 	C 	0.02708 0.73713 0.00649 0.14400
C 	C 	0.87503 0.57985 0.09056 0.07100
C 	C 	0.95530 0.65791 0.17351 0.37700
C 	C 	0.94987 0.65730 0.93029 -0.02800
C 	C 	0.78455 0.49566 0.01381 0.34400
C 	C 	0.09643 0.81949 0.84030 0.35900
C 	C 	0.28896 0.33592 0.73564 -0.10600
C 	C 	0.29323 0.25331 0.65912 -0.10300
C 	C 	0.29592 0.40943 0.57887 -0.10900
C 	C 	0.28995 0.25638 0.73713 0.06200
C 	C 	0.29518 0.32959 0.57985 0.05900
C 	C 	0.29739 0.16858 0.65791 0.35900
C 	C 	0.29257 0.41241 0.65730 0.05900
C 	C 	0.28889 0.49053 0.49566 0.35700
C 	C 	0.27694 0.34021 0.81949 0.37200
C 	C 	0.95304 0.92844 0.33592 -0.16500
C 	C 	0.03992 0.08757 0.25331 -0.04400
C 	C 	0.88649 0.01170 0.40943 -0.10900
C 	C 	0.03357 0.00649 0.25638 0.11200
C 	C 	0.96559 0.09056 0.32959 -0.03900
C 	C 	0.12881 0.17351 0.16858 0.34400
C 	C 	0.88016 0.93029 0.41241 0.04900
C 	C 	0.79836 0.01381 0.49053 0.33400
C 	C 	0.93673 0.84030 0.34021 0.29700
O 	O 	0.50707 0.00494 0.65783 -0.79200
O 	O 	0.66981 0.90215 0.82972 -0.47000
O 	O 	0.66069 0.82754 0.75637 -0.46700
O 	O 	0.50667 0.73012 0.15971 -0.45900
O 	O 	0.35667 0.58779 0.22888 -0.44400
O 	O 	0.61120 0.24417 0.41307 -0.49500
O 	O 	0.24239 0.43626 0.05659 -0.41000
O 	O 	0.28322 0.52198 0.90882 -0.41400
O 	O 	0.16490 0.65783 0.33723 -0.76300
O 	O 	0.49953 0.82972 0.26813 -0.45900
O 	O 	0.41706 0.75637 0.41609 -0.45300
O 	O 	0.66638 0.15971 0.11017 -0.47500
O 	O 	0.58555 0.22888 0.18333 -0.46000
O 	O 	0.02427 0.41307 0.34276 -0.37800
O 	O 	0.29898 0.05659 0.50715 -0.41700
O 	O 	0.19204 0.90882 0.56920 -0.39800
O 	O 	0.50213 0.33723 0.00494 -0.78600
O 	O 	0.76766 0.26813 0.90215 -0.47400
O 	O 	0.83315 0.41609 0.82754 -0.48500
O 	O 	0.77655 0.11017 0.73012 -0.47700
O 	O 	0.76888 0.18333 0.58779 -0.46800
O 	O 	0.36703 0.34276 0.24417 -0.48700
O 	O 	0.80613 0.50715 0.43626 -0.44400
O 	O 	0.76124 0.56920 0.52198 -0.43400
O 	O 	0.66490 0.66277 0.34217 -0.79200
O 	O 	0.99953 0.73187 0.17028 -0.49700
O 	O 	0.91706 0.58391 0.24363 -0.48800
O 	O 	0.16638 0.88983 0.84029 -0.44600
O 	O 	0.08555 0.81667 0.77112 -0.42200
O 	O 	0.52427 0.65724 0.58693 -0.49100
O 	O 	0.79898 0.49285 0.94341 -0.44200
O 	O 	0.69204 0.43080 0.09118 -0.42900
O 	O 	0.00213 0.99506 0.66277 -0.74900
O 	O 	0.26766 0.09785 0.73187 -0.44800
O 	O 	0.33315 0.17246 0.58391 -0.45300
O 	O 	0.27655 0.26988 0.88983 -0.45100
O 	O 	0.26888 0.41221 0.81667 -0.44500
O 	O 	0.86703 0.75583 0.65724 -0.51500
O 	O 	0.30613 0.56374 0.49285 -0.41500
O 	O 	0.26124 0.47802 0.43080 -0.41500
O 	O 	0.00707 0.34217 0.99506 -0.76300
O 	O 	0.16981 0.17028 0.09785 -0.44300
O 	O 	0.16069 0.24363 0.17246 -0.43800
O 	O 	0.00667 0.84029 0.26988 -0.38200
O 	O 	0.85667 0.77112 0.41221 -0.45000
O 	O 	0.11120 0.58693 0.75583 -0.47000
O 	O 	0.74239 0.94341 0.56374 -0.42800
O 	O 	0.78322 0.09118 0.47802 -0.43100
