data_crystal

_cell_length_a 17.67200
_cell_length_b 19.85000
_cell_length_c 20.91500
_cell_angle_alpha 72.38300
_cell_angle_beta  70.94700
_cell_angle_gamma 69.72400

_symmetry_space_group_name_	'P 1'
_symmetry_space_group_name_H-M	'P 1'

loop_
_symmetry_equiv_pos_as_xyz
  x,y,z

loop_
_atom_site_label
_atom_site_type_symbol
_atom_site_fract_x
_atom_site_fract_y
_atom_site_fract_z
_atom_site_charge
Zn	Zn	0.04175 0.72488 0.54352 1.21400
Zn	Zn	0.19024 0.57878 0.54210 1.20900
Zn	Zn	0.19333 0.70618 0.41356 1.21100
Zn	Zn	0.22813 0.72442 0.54735 1.17900
Zn	Zn	0.78295 0.14636 0.98069 1.20500
Zn	Zn	0.63262 0.28783 0.98601 1.21000
Zn	Zn	0.60667 0.14084 0.97867 1.21400
Zn	Zn	0.63285 0.15823 0.12030 1.17600
H 	H 	0.30930 0.40650 0.43170 0.04000
H 	H 	0.38860 0.32190 0.36120 0.05000
H 	H 	0.46730 0.30020 0.24350 0.04000
H 	H 	0.46990 0.47470 0.07730 0.04000
H 	H 	0.38540 0.55320 0.14820 0.06800
H 	H 	0.31180 0.57610 0.26730 0.06100
H 	H 	0.76470 0.43610 0.85640 0.05700
H 	H 	0.78270 0.55490 0.77980 0.06700
H 	H 	0.84880 0.62050 0.68580 0.03600
H 	H 	0.05370 0.44670 0.68220 0.05800
H 	H 	0.04580 0.32580 0.76320 0.06400
H 	H 	0.96250 0.25700 0.85030 0.03600
H 	H 	0.48470 0.42370 0.85510 0.05000
H 	H 	0.43280 0.54380 0.77920 0.05700
H 	H 	0.35480 0.61230 0.70010 0.02400
H 	H 	0.28450 0.43200 0.70970 0.05900
H 	H 	0.33490 0.31600 0.78750 0.06500
H 	H 	0.41720 0.24810 0.86330 0.02900
H 	H 	0.51350 0.95040 0.08090 0.04700
H 	H 	0.45430 0.85950 0.15560 0.06400
H 	H 	0.36450 0.81710 0.27020 0.05700
H 	H 	0.29010 0.92990 0.42180 0.02700
H 	H 	0.37120 0.00550 0.35470 0.06100
H 	H 	0.45020 0.05840 0.23690 0.04900
H 	H 	0.96060 0.96220 0.07320 0.04600
H 	H 	0.03820 0.87220 0.14810 0.05800
H 	H 	0.05470 0.81290 0.26940 0.05200
H 	H 	0.85190 0.84800 0.42950 0.03100
H 	H 	0.77490 0.92780 0.35710 0.05500
H 	H 	0.75830 0.99030 0.23540 0.03700
H 	H 	0.70380 0.98990 0.84520 0.04500
H 	H 	0.76570 0.92440 0.75710 0.06300
H 	H 	0.90030 0.85780 0.68150 0.05700
H 	H 	0.11460 0.89760 0.66140 0.02800
H 	H 	0.04910 0.97880 0.73890 0.06500
H 	H 	0.91940 0.03780 0.81770 0.05800
C 	C 	0.25650 0.55510 0.40190 0.36700
C 	C 	0.30600 0.49910 0.35600 -0.07500
C 	C 	0.32740 0.42380 0.38320 0.00300
C 	C 	0.37430 0.37310 0.34170 -0.08100
C 	C 	0.40010 0.39980 0.26980 0.01200
C 	C 	0.45120 0.35160 0.22510 -0.02900
C 	C 	0.47790 0.37820 0.15520 -0.09500
C 	C 	0.45200 0.45640 0.12570 0.01800
C 	C 	0.40270 0.50210 0.16750 -0.09600
C 	C 	0.37510 0.47650 0.24040 0.02800
C 	C 	0.32830 0.52470 0.28580 -0.04300
C 	C 	0.53450 0.32600 0.10820 0.37700
C 	C 	0.01510 0.78270 0.40360 0.36500
C 	C 	0.01330 0.58410 0.61910 0.34300
C 	C 	0.25700 0.57420 0.64320 0.37500
C 	C 	0.27230 0.80740 0.39670 0.39900
C 	C 	0.05830 0.81490 0.61850 0.39900
C 	C 	0.80040 0.29460 0.91160 0.38200
C 	C 	0.85470 0.33910 0.85930 -0.09600
C 	C 	0.82080 0.41400 0.83510 -0.03400
C 	C 	0.86530 0.45820 0.78130 0.03200
C 	C 	0.83700 0.53090 0.75660 -0.09600
C 	C 	0.87640 0.57140 0.70420 0.02700
C 	C 	0.96010 0.54060 0.67590 -0.08100
C 	C 	0.99640 0.46770 0.70130 -0.03900
C 	C 	0.95110 0.42400 0.75410 0.02500
C 	C 	0.98840 0.34800 0.78070 -0.09100
C 	C 	0.93860 0.30750 0.83260 0.02100
C 	C 	0.52020 0.28440 0.90900 0.40700
C 	C 	0.46390 0.32880 0.86350 -0.11900
C 	C 	0.45650 0.40170 0.83900 -0.01100
C 	C 	0.41030 0.44580 0.79210 0.00800
C 	C 	0.40390 0.52080 0.76490 -0.07700
C 	C 	0.35720 0.56170 0.71830 -0.00300
C 	C 	0.31130 0.52780 0.69680 -0.07000
C 	C 	0.31370 0.45460 0.72410 -0.04800
C 	C 	0.36100 0.41350 0.77420 0.03700
C 	C 	0.36570 0.33840 0.80040 -0.10600
C 	C 	0.41530 0.29850 0.84450 0.03800
C 	C 	0.53290 0.06800 0.10600 0.36700
C 	C 	0.48920 0.01060 0.15430 -0.07500
C 	C 	0.48850 0.95260 0.12820 0.00300
C 	C 	0.45180 0.90040 0.17160 -0.07900
C 	C 	0.40870 0.90650 0.24230 0.01900
C 	C 	0.36440 0.85730 0.28590 -0.03200
C 	C 	0.31990 0.86630 0.35270 -0.09400
C 	C 	0.32130 0.92330 0.37650 0.02500
C 	C 	0.36660 0.96970 0.33570 -0.10400
C 	C 	0.40670 0.96730 0.26750 0.02600
C 	C 	0.44910 0.01840 0.22160 -0.04100
C 	C 	0.79650 0.04240 0.10130 0.36800
C 	C 	0.85170 0.98300 0.14800 -0.08000
C 	C 	0.93560 0.94990 0.12130 0.00200
C 	C 	0.98250 0.89800 0.16650 -0.07300
C 	C 	0.94810 0.88360 0.23920 0.01000
C 	C 	0.99770 0.83660 0.28640 -0.01600
C 	C 	0.96280 0.82600 0.35570 -0.10300
C 	C 	0.87670 0.85870 0.38120 0.02900
C 	C 	0.83120 0.90330 0.33890 -0.09800
C 	C 	0.86550 0.91560 0.26490 0.02400
C 	C 	0.81550 0.96740 0.21790 -0.04200
C 	C 	0.76430 0.07280 0.88470 0.37000
C 	C 	0.80550 0.02450 0.83490 -0.09500
C 	C 	0.76030 0.98630 0.82070 0.02300
C 	C 	0.79800 0.94390 0.77150 -0.08100
C 	C 	0.88460 0.92960 0.74250 0.01900
C 	C 	0.92990 0.88130 0.69450 -0.02500
C 	C 	0.01430 0.86850 0.66710 -0.09400
C 	C 	0.05680 0.90510 0.68270 0.02100
C 	C 	0.01800 0.95390 0.72950 -0.09600
C 	C 	0.93090 0.96420 0.76170 0.03600
C 	C 	0.88940 0.01300 0.80680 -0.03800
O 	O 	0.24090 0.52520 0.46750 -0.49500
O 	O 	0.24090 0.62020 0.37380 -0.51700
O 	O 	0.54290 0.25890 0.13450 -0.50600
O 	O 	0.56930 0.35270 0.04810 -0.49900
O 	O 	0.98460 0.77390 0.46760 -0.48100
O 	O 	0.09500 0.75690 0.37680 -0.48100
O 	O 	0.98040 0.65370 0.60380 -0.47000
O 	O 	0.08620 0.54920 0.58950 -0.48000
O 	O 	0.25250 0.53510 0.60920 -0.52400
O 	O 	0.23990 0.64170 0.63530 -0.51400
O 	O 	0.24260 0.81180 0.45960 -0.50400
O 	O 	0.26640 0.76690 0.36800 -0.53700
O 	O 	0.00880 0.79710 0.59860 -0.49500
O 	O 	0.13460 0.79640 0.60350 -0.49200
O 	O 	0.72750 0.32480 0.93080 -0.52600
O 	O 	0.83840 0.22450 0.93160 -0.49400
O 	O 	0.55970 0.31600 0.92210 -0.51100
O 	O 	0.52580 0.21530 0.93030 -0.49600
O 	O 	0.53550 0.11760 0.12880 -0.48700
O 	O 	0.55450 0.06760 0.04150 -0.47000
O 	O 	0.72270 0.05650 0.12380 -0.52400
O 	O 	0.84130 0.06950 0.04280 -0.49300
O 	O 	0.80760 0.09630 0.90510 -0.49200
O 	O 	0.68380 0.08530 0.90830 -0.47600
O 	O 	0.16120 0.68470 0.51330 -0.95700
O 	O 	0.66380 0.18270 0.01600 -0.94600
Zn	Zn	0.95825 0.27512 0.45648 1.21300
Zn	Zn	0.80976 0.42122 0.45790 1.20800
Zn	Zn	0.80667 0.29382 0.58644 1.21100
Zn	Zn	0.77187 0.27558 0.45265 1.17900
Zn	Zn	0.21705 0.85364 0.01931 1.20500
Zn	Zn	0.36738 0.71217 0.01399 1.21000
Zn	Zn	0.39333 0.85916 0.02133 1.21400
Zn	Zn	0.36715 0.84177 0.87970 1.17600
H 	H 	0.69070 0.59350 0.56830 0.04000
H 	H 	0.61140 0.67810 0.63880 0.05000
H 	H 	0.53270 0.69980 0.75650 0.04000
H 	H 	0.53010 0.52530 0.92270 0.04000
H 	H 	0.61460 0.44680 0.85180 0.06800
H 	H 	0.68820 0.42390 0.73270 0.06100
H 	H 	0.23530 0.56390 0.14360 0.05700
H 	H 	0.21730 0.44510 0.22020 0.06700
H 	H 	0.15120 0.37950 0.31420 0.03600
H 	H 	0.94630 0.55330 0.31780 0.05800
H 	H 	0.95420 0.67420 0.23680 0.06400
H 	H 	0.03750 0.74300 0.14970 0.03600
H 	H 	0.51530 0.57630 0.14490 0.05000
H 	H 	0.56720 0.45620 0.22080 0.05700
H 	H 	0.64520 0.38770 0.29990 0.02400
H 	H 	0.71550 0.56800 0.29030 0.05900
H 	H 	0.66510 0.68400 0.21250 0.06500
H 	H 	0.58280 0.75190 0.13670 0.02900
H 	H 	0.48650 0.04960 0.91910 0.04700
H 	H 	0.54570 0.14050 0.84440 0.06400
H 	H 	0.63550 0.18290 0.72980 0.05700
H 	H 	0.70990 0.07010 0.57820 0.02700
H 	H 	0.62880 0.99450 0.64530 0.06100
H 	H 	0.54980 0.94160 0.76310 0.04900
H 	H 	0.03940 0.03780 0.92680 0.04600
H 	H 	0.96180 0.12780 0.85190 0.05800
H 	H 	0.94530 0.18710 0.73060 0.05200
H 	H 	0.14810 0.15200 0.57050 0.03100
H 	H 	0.22510 0.07220 0.64290 0.05500
H 	H 	0.24170 0.00970 0.76460 0.03700
H 	H 	0.29620 0.01010 0.15480 0.04500
H 	H 	0.23430 0.07560 0.24290 0.06300
H 	H 	0.09970 0.14220 0.31850 0.05700
H 	H 	0.88540 0.10240 0.33860 0.02800
H 	H 	0.95090 0.02120 0.26110 0.06500
H 	H 	0.08060 0.96220 0.18230 0.05800
C 	C 	0.74350 0.44490 0.59810 0.36700
C 	C 	0.69400 0.50090 0.64400 -0.07500
C 	C 	0.67260 0.57620 0.61680 0.00300
C 	C 	0.62570 0.62690 0.65830 -0.08100
C 	C 	0.59990 0.60020 0.73020 0.01200
C 	C 	0.54880 0.64840 0.77490 -0.02900
C 	C 	0.52210 0.62180 0.84480 -0.09500
C 	C 	0.54800 0.54360 0.87430 0.01800
C 	C 	0.59730 0.49790 0.83250 -0.09600
C 	C 	0.62490 0.52350 0.75960 0.02800
C 	C 	0.67170 0.47530 0.71420 -0.04300
C 	C 	0.46550 0.67400 0.89180 0.37700
C 	C 	0.98490 0.21730 0.59640 0.36500
C 	C 	0.98670 0.41590 0.38090 0.34300
C 	C 	0.74300 0.42580 0.35680 0.37500
C 	C 	0.72770 0.19260 0.60330 0.39900
C 	C 	0.94170 0.18510 0.38150 0.39900
C 	C 	0.19960 0.70540 0.08840 0.38200
C 	C 	0.14530 0.66090 0.14070 -0.09600
C 	C 	0.17920 0.58600 0.16490 -0.03400
C 	C 	0.13470 0.54180 0.21870 0.03200
C 	C 	0.16300 0.46910 0.24340 -0.09600
C 	C 	0.12360 0.42860 0.29580 0.02700
C 	C 	0.03990 0.45940 0.32410 -0.08100
C 	C 	0.00360 0.53230 0.29870 -0.03900
C 	C 	0.04890 0.57600 0.24590 0.02500
C 	C 	0.01160 0.65200 0.21930 -0.09100
C 	C 	0.06140 0.69250 0.16740 0.02100
C 	C 	0.47980 0.71560 0.09100 0.40700
C 	C 	0.53610 0.67120 0.13650 -0.11900
C 	C 	0.54350 0.59830 0.16100 -0.01100
C 	C 	0.58970 0.55420 0.20790 0.00800
C 	C 	0.59610 0.47920 0.23510 -0.07700
C 	C 	0.64280 0.43830 0.28170 -0.00300
C 	C 	0.68870 0.47220 0.30320 -0.07000
C 	C 	0.68630 0.54540 0.27590 -0.04800
C 	C 	0.63900 0.58650 0.22580 0.03700
C 	C 	0.63430 0.66160 0.19960 -0.10600
C 	C 	0.58470 0.70150 0.15550 0.03800
C 	C 	0.46710 0.93200 0.89400 0.36700
C 	C 	0.51080 0.98940 0.84570 -0.07500
C 	C 	0.51150 0.04740 0.87180 0.00300
C 	C 	0.54820 0.09960 0.82840 -0.07900
C 	C 	0.59130 0.09350 0.75770 0.01900
C 	C 	0.63560 0.14270 0.71410 -0.03200
C 	C 	0.68010 0.13370 0.64730 -0.09400
C 	C 	0.67870 0.07670 0.62350 0.02500
C 	C 	0.63340 0.03030 0.66430 -0.10400
C 	C 	0.59330 0.03270 0.73250 0.02600
C 	C 	0.55090 0.98160 0.77840 -0.04100
C 	C 	0.20350 0.95760 0.89870 0.36800
C 	C 	0.14830 0.01700 0.85200 -0.08000
C 	C 	0.06440 0.05010 0.87870 0.00200
C 	C 	0.01750 0.10200 0.83350 -0.07300
C 	C 	0.05190 0.11640 0.76080 0.01000
C 	C 	0.00230 0.16340 0.71360 -0.01600
C 	C 	0.03720 0.17400 0.64430 -0.10300
C 	C 	0.12330 0.14130 0.61880 0.02900
C 	C 	0.16880 0.09670 0.66110 -0.09800
C 	C 	0.13450 0.08440 0.73510 0.02400
C 	C 	0.18450 0.03260 0.78210 -0.04200
C 	C 	0.23570 0.92720 0.11530 0.37000
C 	C 	0.19450 0.97550 0.16510 -0.09500
C 	C 	0.23970 0.01370 0.17930 0.02300
C 	C 	0.20200 0.05610 0.22850 -0.08100
C 	C 	0.11540 0.07040 0.25750 0.01900
C 	C 	0.07010 0.11870 0.30550 -0.02500
C 	C 	0.98570 0.13150 0.33290 -0.09400
C 	C 	0.94320 0.09490 0.31730 0.02100
C 	C 	0.98200 0.04610 0.27050 -0.09600
C 	C 	0.06910 0.03580 0.23830 0.03600
C 	C 	0.11060 0.98700 0.19320 -0.03800
O 	O 	0.75910 0.47480 0.53250 -0.49500
O 	O 	0.75910 0.37980 0.62620 -0.51700
O 	O 	0.45710 0.74110 0.86550 -0.50600
O 	O 	0.43070 0.64730 0.95190 -0.49900
O 	O 	0.01540 0.22610 0.53240 -0.48100
O 	O 	0.90500 0.24310 0.62320 -0.48100
O 	O 	0.01960 0.34630 0.39620 -0.47000
O 	O 	0.91380 0.45080 0.41050 -0.48000
O 	O 	0.74750 0.46490 0.39080 -0.52400
O 	O 	0.76010 0.35830 0.36470 -0.51400
O 	O 	0.75740 0.18820 0.54040 -0.50400
O 	O 	0.73360 0.23310 0.63200 -0.53700
O 	O 	0.99120 0.20290 0.40140 -0.49500
O 	O 	0.86540 0.20360 0.39650 -0.49200
O 	O 	0.27250 0.67520 0.06920 -0.52600
O 	O 	0.16160 0.77550 0.06840 -0.49400
O 	O 	0.44030 0.68400 0.07790 -0.51100
O 	O 	0.47420 0.78470 0.06970 -0.49600
O 	O 	0.46450 0.88240 0.87120 -0.48700
O 	O 	0.44550 0.93240 0.95850 -0.47000
O 	O 	0.27730 0.94350 0.87620 -0.52400
O 	O 	0.15870 0.93050 0.95720 -0.49300
O 	O 	0.19240 0.90370 0.09490 -0.49200
O 	O 	0.31620 0.91470 0.09170 -0.47600
O 	O 	0.83880 0.31530 0.48670 -0.95700
O 	O 	0.33620 0.81730 0.98400 -0.94600
