data_crystal

_cell_length_a 9.86360
_cell_length_b 9.86360
_cell_length_c 30.35290
_cell_angle_alpha 90.00000
_cell_angle_beta  90.00000
_cell_angle_gamma 90.00000

_symmetry_space_group_name_	'P 1'
_symmetry_space_group_name_H-M	'P 1'

loop_
_symmetry_equiv_pos_as_xyz
  x,y,z

loop_
_atom_site_label
_atom_site_type_symbol
_atom_site_fract_x
_atom_site_fract_y
_atom_site_fract_z
_atom_site_charge
Fe	Fe	0.22970 0.42060 0.09080 1.29500
Fe	Fe	0.40720 0.95010 0.98870 1.32800
P 	P 	0.44440 0.22190 0.14020 0.51900
P 	P 	0.97020 0.67580 0.94430 0.53500
P 	P 	0.37820 0.65520 0.03060 0.51400
O 	O 	0.29420 0.31440 0.03980 -0.34400
O 	O 	0.31080 0.59350 0.07070 -0.30400
O 	O 	0.39230 0.35740 0.12280 -0.32900
O 	O 	0.97790 0.67140 0.89450 -0.31300
O 	O 	0.59970 0.22840 0.14200 -0.32700
F 	F 	0.07310 0.49290 0.05350 -0.57900
O 	O 	0.33100 0.80250 0.02400 -0.33700
O 	O 	0.00080 0.53340 0.96270 -0.30600
O 	O 	0.08250 0.26360 0.99530 -0.30100
O 	O 	0.37780 0.19260 0.18540 -0.29600
F 	F 	0.81700 0.56500 0.03230 -0.55600
O 	O 	0.83520 0.73630 0.95930 -0.30400
O 	O 	0.53180 0.64460 0.03690 -0.33700
O 	O 	0.39540 0.10170 0.11020 -0.15900
O 	O 	0.07600 0.77890 0.96410 -0.14400
O 	O 	0.33450 0.57980 0.98680 -0.14400
Fe	Fe	0.77030 0.57940 0.59080 1.29700
Fe	Fe	0.59280 0.04990 0.48870 1.31300
P 	P 	0.55560 0.77810 0.64020 0.52000
P 	P 	0.02980 0.32420 0.44430 0.53200
P 	P 	0.62180 0.34480 0.53060 0.53300
O 	O 	0.70580 0.68560 0.53980 -0.34300
O 	O 	0.68920 0.40650 0.57070 -0.30400
O 	O 	0.60770 0.64260 0.62280 -0.32900
O 	O 	0.02210 0.32860 0.39450 -0.31500
O 	O 	0.40030 0.77160 0.64200 -0.32700
F 	F 	0.92690 0.50710 0.55350 -0.57300
O 	O 	0.66900 0.19750 0.52400 -0.32500
O 	O 	0.99920 0.46660 0.46270 -0.31400
O 	O 	0.91750 0.73640 0.49530 -0.33100
O 	O 	0.62220 0.80740 0.68540 -0.29600
F 	F 	0.18300 0.43500 0.53230 -0.54900
O 	O 	0.16480 0.26370 0.45930 -0.31600
O 	O 	0.46820 0.35540 0.53690 -0.33300
O 	O 	0.60460 0.89830 0.61020 -0.15900
O 	O 	0.92400 0.22110 0.46410 -0.15200
O 	O 	0.66550 0.42020 0.48680 -0.16600
Fe	Fe	0.07940 0.72970 0.84080 1.29500
Fe	Fe	0.54990 0.90720 0.73870 1.31400
P 	P 	0.27810 0.94440 0.89020 0.51000
P 	P 	0.82420 0.47020 0.69430 0.54000
P 	P 	0.84480 0.87820 0.78060 0.52600
O 	O 	0.18560 0.79420 0.78980 -0.34700
O 	O 	0.90650 0.81080 0.82070 -0.30300
O 	O 	0.14260 0.89230 0.87280 -0.33100
O 	O 	0.82860 0.47790 0.64450 -0.31300
O 	O 	0.27160 0.09970 0.89200 -0.31700
F 	F 	0.00710 0.57310 0.80350 -0.58100
O 	O 	0.69750 0.83100 0.77400 -0.32500
O 	O 	0.96660 0.50080 0.71270 -0.31400
O 	O 	0.23640 0.58250 0.74530 -0.33700
O 	O 	0.30740 0.87780 0.93540 -0.29300
F 	F 	0.93500 0.31700 0.78230 -0.54400
O 	O 	0.76370 0.33520 0.70930 -0.31400
O 	O 	0.85540 0.03180 0.78690 -0.32500
O 	O 	0.39830 0.89540 0.86020 -0.16200
O 	O 	0.72110 0.57600 0.71410 -0.15400
O 	O 	0.92020 0.83450 0.73680 -0.16300
Fe	Fe	0.92060 0.27030 0.34080 1.29600
Fe	Fe	0.45010 0.09280 0.23870 1.31400
P 	P 	0.72190 0.05560 0.39020 0.51200
P 	P 	0.17580 0.52980 0.19430 0.54000
P 	P 	0.15520 0.12180 0.28060 0.52800
O 	O 	0.81440 0.20580 0.28980 -0.34600
O 	O 	0.09350 0.18920 0.32070 -0.30400
O 	O 	0.85740 0.10770 0.37280 -0.33000
O 	O 	0.17140 0.52210 0.14450 -0.31300
O 	O 	0.72840 0.90030 0.39200 -0.32000
F 	F 	0.99290 0.42690 0.30350 -0.58000
O 	O 	0.30250 0.16900 0.27400 -0.32500
O 	O 	0.03340 0.49920 0.21270 -0.31500
O 	O 	0.76360 0.41750 0.24530 -0.33700
O 	O 	0.69260 0.12220 0.43540 -0.29700
F 	F 	0.06500 0.68300 0.28230 -0.54500
O 	O 	0.23630 0.66480 0.20930 -0.31400
O 	O 	0.14460 0.96820 0.28690 -0.32700
O 	O 	0.60170 0.10460 0.36020 -0.16200
O 	O 	0.27890 0.42400 0.21410 -0.15400
O 	O 	0.07980 0.16550 0.23680 -0.16300
Fe	Fe	0.27030 0.92060 0.65920 1.29600
Fe	Fe	0.09280 0.45010 0.76130 1.31400
P 	P 	0.05560 0.72190 0.60980 0.51100
P 	P 	0.52980 0.17580 0.80570 0.54000
P 	P 	0.12180 0.15520 0.71940 0.52600
O 	O 	0.20580 0.81440 0.71020 -0.34700
O 	O 	0.18920 0.09350 0.67930 -0.30300
O 	O 	0.10770 0.85740 0.62720 -0.33100
O 	O 	0.52210 0.17140 0.85550 -0.31300
O 	O 	0.90030 0.72840 0.60800 -0.31900
F 	F 	0.42690 0.99290 0.69650 -0.58100
O 	O 	0.16900 0.30250 0.72600 -0.32600
O 	O 	0.49920 0.03340 0.78730 -0.31400
O 	O 	0.41750 0.76360 0.75470 -0.33700
O 	O 	0.12220 0.69260 0.56460 -0.29700
F 	F 	0.68300 0.06500 0.71770 -0.54400
O 	O 	0.66480 0.23630 0.79070 -0.31400
O 	O 	0.96820 0.14460 0.71310 -0.32500
O 	O 	0.10460 0.60170 0.63980 -0.16200
O 	O 	0.42400 0.27890 0.78590 -0.15400
O 	O 	0.16550 0.07980 0.76320 -0.16300
Fe	Fe	0.72970 0.07940 0.15920 1.29600
Fe	Fe	0.90720 0.54990 0.26130 1.31500
P 	P 	0.94440 0.27810 0.10980 0.51200
P 	P 	0.47020 0.82420 0.30570 0.54000
P 	P 	0.87820 0.84480 0.21940 0.52800
O 	O 	0.79420 0.18560 0.21020 -0.34600
O 	O 	0.81080 0.90650 0.17930 -0.30400
O 	O 	0.89230 0.14260 0.12720 -0.33100
O 	O 	0.47790 0.82860 0.35550 -0.31300
O 	O 	0.09970 0.27160 0.10800 -0.32100
F 	F 	0.57310 0.00710 0.19650 -0.58000
O 	O 	0.83100 0.69750 0.22600 -0.32500
O 	O 	0.50080 0.96660 0.28730 -0.31500
O 	O 	0.58250 0.23640 0.25470 -0.33700
O 	O 	0.87780 0.30740 0.06460 -0.30200
F 	F 	0.31700 0.93500 0.21770 -0.54500
O 	O 	0.33520 0.76370 0.29070 -0.31400
O 	O 	0.03180 0.85540 0.21310 -0.32700
O 	O 	0.89540 0.39830 0.13980 -0.16200
O 	O 	0.57600 0.72110 0.28590 -0.15400
O 	O 	0.83450 0.92020 0.26320 -0.16300
Fe	Fe	0.42060 0.22970 0.90920 1.29800
Fe	Fe	0.95010 0.40720 0.01130 1.29600
P 	P 	0.22190 0.44440 0.85980 0.52000
P 	P 	0.67580 0.97020 0.05570 0.53300
P 	P 	0.65520 0.37820 0.96940 0.55200
O 	O 	0.31440 0.29420 0.96020 -0.32200
O 	O 	0.59350 0.31080 0.92930 -0.30400
O 	O 	0.35740 0.39230 0.87720 -0.32900
O 	O 	0.67140 0.97790 0.10550 -0.31400
O 	O 	0.22840 0.59970 0.85800 -0.32700
F 	F 	0.49290 0.07310 0.94650 -0.56700
O 	O 	0.80250 0.33100 0.97600 -0.31200
O 	O 	0.53340 0.00080 0.03730 -0.32500
O 	O 	0.26360 0.08250 0.00470 -0.34200
O 	O 	0.19260 0.37780 0.81460 -0.29600
F 	F 	0.56500 0.81700 0.96770 -0.53700
O 	O 	0.73630 0.83520 0.04070 -0.32300
O 	O 	0.64460 0.53180 0.96310 -0.32300
O 	O 	0.10170 0.39540 0.88980 -0.15800
O 	O 	0.77890 0.07600 0.03590 -0.16300
O 	O 	0.57980 0.33450 0.01320 -0.18700
Fe	Fe	0.57940 0.77030 0.40920 1.29700
Fe	Fe	0.04990 0.59280 0.51130 1.31200
P 	P 	0.77810 0.55560 0.35980 0.52000
P 	P 	0.32420 0.02980 0.55570 0.53400
P 	P 	0.34480 0.62180 0.46940 0.53300
O 	O 	0.68560 0.70580 0.46020 -0.34300
O 	O 	0.40650 0.68920 0.42930 -0.30400
O 	O 	0.64260 0.60770 0.37720 -0.32900
O 	O 	0.32860 0.02210 0.60550 -0.31400
O 	O 	0.77160 0.40030 0.35800 -0.32700
F 	F 	0.50710 0.92690 0.44650 -0.57400
O 	O 	0.19750 0.66900 0.47600 -0.32500
O 	O 	0.46660 0.99920 0.53730 -0.31600
O 	O 	0.73640 0.91750 0.50470 -0.33200
O 	O 	0.80740 0.62220 0.31460 -0.29600
F 	F 	0.43500 0.18300 0.46770 -0.54800
O 	O 	0.26370 0.16480 0.54070 -0.31600
O 	O 	0.35540 0.46820 0.46310 -0.33300
O 	O 	0.89830 0.60460 0.38980 -0.15800
O 	O 	0.22110 0.92400 0.53590 -0.15400
O 	O 	0.42020 0.66550 0.51320 -0.16600
Fe	Fe	0.68880 0.68880 -0.00000 1.31300
P 	P 	0.23700 0.23700 -0.00000 0.51100
Fe	Fe	0.31120 0.31120 0.50000 1.32900
P 	P 	0.76300 0.76300 0.50000 0.55100
Fe	Fe	0.81120 0.18880 0.75000 1.33000
P 	P 	0.26300 0.73700 0.75000 0.55100
Fe	Fe	0.18880 0.81120 0.25000 1.33000
P 	P 	0.73700 0.26300 0.25000 0.55100
