data_crystal

_cell_length_a 10.11000
_cell_length_b 21.83500
_cell_length_c 13.98700
_cell_angle_alpha 91.62000
_cell_angle_beta  90.00000
_cell_angle_gamma 90.00000

_symmetry_space_group_name_	'P 1'
_symmetry_space_group_name_H-M	'P 1'

loop_
_symmetry_equiv_pos_as_xyz
  x,y,z

loop_
_atom_site_label
_atom_site_type_symbol
_atom_site_fract_x
_atom_site_fract_y
_atom_site_fract_z
_atom_site_charge
Gd	Gd	0.43666 0.75975 0.76872 1.59800
Gd	Gd	0.25015 0.74868 0.02700 1.70500
Gd	Gd	0.93666 0.24025 0.73128 1.59700
Gd	Gd	0.75015 0.25132 0.47300 1.70800
Gd	Gd	0.56334 0.24025 0.23128 1.59800
Gd	Gd	0.74985 0.25132 0.97300 1.70500
Gd	Gd	0.06334 0.75975 0.26872 1.59700
Gd	Gd	0.24985 0.74868 0.52700 1.70800
H 	H 	0.71200 0.45670 0.81050 0.07000
H 	H 	0.14110 0.03490 0.86600 0.07700
H 	H 	0.11710 0.83930 0.72190 0.17700
H 	H 	0.98440 0.81290 0.76220 0.16400
H 	H 	0.82340 0.88540 0.81850 0.05900
H 	H 	0.64670 0.54760 0.88260 0.07300
H 	H 	0.20240 0.93850 0.81020 0.07000
H 	H 	0.27080 0.49380 0.86600 0.07500
H 	H 	0.45810 0.59600 0.98820 0.20000
H 	H 	0.31510 0.58570 0.94830 0.20000
H 	H 	0.76470 0.98230 0.87350 0.07700
H 	H 	0.33680 0.40330 0.79130 0.05700
H 	H 	0.90220 0.57140 0.90480 0.06400
H 	H 	0.03850 0.52260 0.16000 0.08000
H 	H 	0.85000 0.63350 0.05000 0.17600
H 	H 	0.91310 0.61610 0.14780 0.18900
H 	H 	0.50170 0.34170 0.71280 0.17500
H 	H 	0.64150 0.37050 0.69570 0.18100
H 	H 	0.96280 0.09010 0.97200 0.17800
H 	H 	0.81660 0.07690 0.94140 0.18100
H 	H 	0.69840 0.87630 0.98890 0.18900
H 	H 	0.63140 0.87180 0.08970 0.18700
H 	H 	0.58330 0.97220 0.14600 0.07400
H 	H 	0.50110 0.93110 0.87220 0.08700
H 	H 	0.21200 0.54330 0.68950 0.07200
H 	H 	0.64110 0.96510 0.63400 0.08100
H 	H 	0.61710 0.16070 0.77810 0.17700
H 	H 	0.48440 0.18710 0.73780 0.16600
H 	H 	0.32340 0.11460 0.68150 0.05600
H 	H 	0.14670 0.45240 0.61740 0.07100
H 	H 	0.70240 0.06150 0.68980 0.06600
H 	H 	0.77080 0.50620 0.63400 0.07300
H 	H 	0.95810 0.40400 0.51180 0.19800
H 	H 	0.81510 0.41430 0.55170 0.19800
H 	H 	0.26470 0.01770 0.62650 0.08100
H 	H 	0.83680 0.59670 0.70870 0.05900
H 	H 	0.40220 0.42860 0.59520 0.06400
H 	H 	0.53850 0.47740 0.34000 0.07900
H 	H 	0.35000 0.36650 0.45000 0.17600
H 	H 	0.41310 0.38390 0.35220 0.18800
H 	H 	0.00170 0.65830 0.78720 0.17700
H 	H 	0.14150 0.62950 0.80430 0.18300
H 	H 	0.46280 0.90990 0.52800 0.18200
H 	H 	0.31660 0.92310 0.55860 0.18400
H 	H 	0.19840 0.12370 0.51110 0.19100
H 	H 	0.13140 0.12820 0.41030 0.18700
H 	H 	0.08330 0.02780 0.35400 0.07300
H 	H 	0.00110 0.06890 0.62780 0.08800
H 	H 	0.28800 0.54330 0.18950 0.07000
H 	H 	0.85890 0.96510 0.13400 0.07700
H 	H 	0.88290 0.16070 0.27810 0.17700
H 	H 	0.01560 0.18710 0.23780 0.16400
H 	H 	0.17660 0.11460 0.18150 0.05900
H 	H 	0.35330 0.45240 0.11740 0.07300
H 	H 	0.79760 0.06150 0.18980 0.07000
H 	H 	0.72920 0.50620 0.13400 0.07500
H 	H 	0.54190 0.40400 0.01180 0.20000
H 	H 	0.68490 0.41430 0.05170 0.20000
H 	H 	0.23530 0.01770 0.12650 0.07700
H 	H 	0.66320 0.59670 0.20870 0.05700
H 	H 	0.09780 0.42860 0.09520 0.06400
H 	H 	0.96150 0.47740 0.84000 0.08000
H 	H 	0.15000 0.36650 0.95000 0.17600
H 	H 	0.08690 0.38390 0.85220 0.18900
H 	H 	0.49830 0.65830 0.28720 0.17500
H 	H 	0.35850 0.62950 0.30430 0.18100
H 	H 	0.03720 0.90990 0.02800 0.17800
H 	H 	0.18340 0.92310 0.05860 0.18100
H 	H 	0.30160 0.12370 0.01110 0.18900
H 	H 	0.36860 0.12820 0.91030 0.18700
H 	H 	0.41670 0.02780 0.85400 0.07400
H 	H 	0.49890 0.06890 0.12780 0.08700
H 	H 	0.78800 0.45670 0.31050 0.07200
H 	H 	0.35890 0.03490 0.36600 0.08100
H 	H 	0.38290 0.83930 0.22190 0.17700
H 	H 	0.51560 0.81290 0.26220 0.16600
H 	H 	0.67660 0.88540 0.31850 0.05600
H 	H 	0.85330 0.54760 0.38260 0.07100
H 	H 	0.29760 0.93850 0.31020 0.06600
H 	H 	0.22920 0.49380 0.36600 0.07300
H 	H 	0.04190 0.59600 0.48820 0.19800
H 	H 	0.18490 0.58570 0.44830 0.19800
H 	H 	0.73530 0.98230 0.37350 0.08100
H 	H 	0.16320 0.40330 0.29130 0.05900
H 	H 	0.59780 0.57140 0.40480 0.06400
H 	H 	0.46150 0.52260 0.66000 0.07900
H 	H 	0.65000 0.63350 0.55000 0.17600
H 	H 	0.58690 0.61610 0.64780 0.18800
H 	H 	0.99830 0.34170 0.21280 0.17700
H 	H 	0.85850 0.37050 0.19570 0.18300
H 	H 	0.53720 0.09010 0.47200 0.18200
H 	H 	0.68340 0.07690 0.44140 0.18400
H 	H 	0.80160 0.87630 0.48890 0.19100
H 	H 	0.86860 0.87180 0.58970 0.18700
H 	H 	0.91670 0.97220 0.64600 0.07300
H 	H 	0.99890 0.93110 0.37220 0.08800
C 	C 	0.13760 0.80745 0.85760 0.47900
C 	C 	0.41980 0.64737 0.87210 0.52400
C 	C 	0.45110 0.53128 0.88110 0.19500
C 	C 	0.53140 0.42050 0.79240 0.17100
C 	C 	0.62240 0.46405 0.82080 -0.11200
C 	C 	0.07690 0.00474 0.85700 -0.12300
C 	C 	0.06190 0.83719 0.77850 -0.47600
C 	C 	0.02000 0.90116 0.81070 0.15200
C 	C 	0.88820 0.91508 0.82860 -0.10500
C 	C 	0.58310 0.51874 0.86430 -0.12200
C 	C 	0.94730 0.01838 0.87680 0.18800
C 	C 	0.11410 0.94674 0.82370 -0.10300
C 	C 	0.36020 0.48694 0.85420 -0.13600
C 	C 	0.40700 0.59016 0.92990 -0.53700
C 	C 	0.85320 0.97338 0.86150 -0.13500
C 	C 	0.39990 0.43226 0.80970 -0.10500
C 	C 	0.63600 0.31798 0.81370 0.50100
C 	C 	0.94160 0.54263 0.94340 -0.11400
C 	C 	0.96370 0.55714 0.03940 0.19500
C 	C 	0.03760 0.66606 0.06630 0.50700
C 	C 	0.02270 0.51372 0.09560 -0.12800
C 	C 	0.93050 0.61929 0.08000 -0.51800
C 	C 	0.91150 0.13291 0.85090 0.51500
C 	C 	0.57660 0.36136 0.74430 -0.50600
C 	C 	0.90640 0.08025 0.91760 -0.51800
C 	C 	0.52360 0.82857 0.98340 0.57200
C 	C 	0.61450 0.87839 0.02250 -0.53700
C 	C 	0.55380 0.94125 0.01110 0.18000
C 	C 	0.55030 0.98317 0.08680 -0.11900
C 	C 	0.50140 0.95879 0.92390 -0.12100
C 	C 	0.63760 0.19255 0.64240 0.48000
C 	C 	0.91980 0.35263 0.62790 0.52300
C 	C 	0.95110 0.46872 0.61890 0.18900
C 	C 	0.03140 0.57950 0.70760 0.17800
C 	C 	0.12240 0.53595 0.67920 -0.11800
C 	C 	0.57690 0.99526 0.64300 -0.13700
C 	C 	0.56190 0.16281 0.72150 -0.47700
C 	C 	0.52000 0.09884 0.68930 0.14300
C 	C 	0.38820 0.08492 0.67140 -0.09400
C 	C 	0.08310 0.48126 0.63570 -0.11500
C 	C 	0.44730 0.98162 0.62320 0.20000
C 	C 	0.61410 0.05326 0.67630 -0.09400
C 	C 	0.86020 0.51306 0.64580 -0.13000
C 	C 	0.90700 0.40984 0.57010 -0.53300
C 	C 	0.35320 0.02662 0.63850 -0.14600
C 	C 	0.89990 0.56774 0.69030 -0.11300
C 	C 	0.13600 0.68202 0.68630 0.50300
C 	C 	0.44160 0.45737 0.55660 -0.10900
C 	C 	0.46370 0.44286 0.46060 0.18700
C 	C 	0.53760 0.33394 0.43370 0.51000
C 	C 	0.52270 0.48628 0.40440 -0.12300
C 	C 	0.43050 0.38071 0.42000 -0.51800
C 	C 	0.41150 0.86709 0.64910 0.51800
C 	C 	0.07660 0.63864 0.75570 -0.51100
C 	C 	0.40640 0.91975 0.58240 -0.52600
C 	C 	0.02360 0.17143 0.51660 0.57300
C 	C 	0.11450 0.12161 0.47750 -0.54000
C 	C 	0.05380 0.05875 0.48890 0.18000
C 	C 	0.05030 0.01683 0.41320 -0.12100
C 	C 	0.00140 0.04121 0.57610 -0.12000
C 	C 	0.86240 0.19255 0.14240 0.47900
C 	C 	0.58020 0.35263 0.12790 0.52400
C 	C 	0.54890 0.46872 0.11890 0.19500
C 	C 	0.46860 0.57950 0.20760 0.17100
C 	C 	0.37760 0.53595 0.17920 -0.11200
C 	C 	0.92310 0.99526 0.14300 -0.12300
C 	C 	0.93810 0.16281 0.22150 -0.47600
C 	C 	0.98000 0.09884 0.18930 0.15200
C 	C 	0.11180 0.08492 0.17140 -0.10500
C 	C 	0.41690 0.48126 0.13570 -0.12200
C 	C 	0.05270 0.98162 0.12320 0.18800
C 	C 	0.88590 0.05326 0.17630 -0.10300
C 	C 	0.63980 0.51306 0.14580 -0.13600
C 	C 	0.59300 0.40984 0.07010 -0.53700
C 	C 	0.14680 0.02662 0.13850 -0.13500
C 	C 	0.60010 0.56774 0.19030 -0.10500
C 	C 	0.36400 0.68202 0.18630 0.50100
C 	C 	0.05840 0.45737 0.05660 -0.11400
C 	C 	0.03630 0.44286 0.96060 0.19500
C 	C 	0.96240 0.33394 0.93370 0.50700
C 	C 	0.97730 0.48628 0.90440 -0.12800
C 	C 	0.06950 0.38071 0.92000 -0.51800
C 	C 	0.08850 0.86709 0.14910 0.51500
C 	C 	0.42340 0.63864 0.25570 -0.50600
C 	C 	0.09360 0.91975 0.08240 -0.51800
C 	C 	0.47640 0.17143 0.01660 0.57200
C 	C 	0.38550 0.12161 0.97750 -0.53700
C 	C 	0.44620 0.05875 0.98890 0.18000
C 	C 	0.44970 0.01683 0.91320 -0.11900
C 	C 	0.49860 0.04121 0.07610 -0.12100
C 	C 	0.36240 0.80745 0.35760 0.48000
C 	C 	0.08020 0.64737 0.37210 0.52300
C 	C 	0.04890 0.53128 0.38110 0.18900
C 	C 	0.96860 0.42050 0.29240 0.17800
C 	C 	0.87760 0.46405 0.32080 -0.11800
C 	C 	0.42310 0.00474 0.35700 -0.13700
C 	C 	0.43810 0.83719 0.27850 -0.47700
C 	C 	0.48000 0.90116 0.31070 0.14300
C 	C 	0.61180 0.91508 0.32860 -0.09400
C 	C 	0.91690 0.51874 0.36430 -0.11500
C 	C 	0.55270 0.01838 0.37680 0.20000
C 	C 	0.38590 0.94674 0.32370 -0.09400
C 	C 	0.13980 0.48694 0.35420 -0.13000
C 	C 	0.09300 0.59016 0.42990 -0.53300
C 	C 	0.64680 0.97338 0.36150 -0.14600
C 	C 	0.10010 0.43226 0.30970 -0.11300
C 	C 	0.86400 0.31798 0.31370 0.50300
C 	C 	0.55840 0.54263 0.44340 -0.10900
C 	C 	0.53630 0.55714 0.53940 0.18700
C 	C 	0.46240 0.66606 0.56630 0.51000
C 	C 	0.47730 0.51372 0.59560 -0.12300
C 	C 	0.56950 0.61929 0.58000 -0.51800
C 	C 	0.58850 0.13291 0.35090 0.51800
C 	C 	0.92340 0.36136 0.24430 -0.51100
C 	C 	0.59360 0.08025 0.41760 -0.52600
C 	C 	0.97640 0.82857 0.48340 0.57300
C 	C 	0.88550 0.87839 0.52250 -0.54000
C 	C 	0.94620 0.94125 0.51110 0.18000
C 	C 	0.94970 0.98317 0.58680 -0.12100
C 	C 	0.99860 0.95879 0.42390 -0.12000
O 	O 	0.36530 0.69650 0.90364 -0.57300
O 	O 	0.07420 0.78200 0.92303 -0.45300
O 	O 	0.83100 0.17645 0.86525 -0.56600
O 	O 	0.43100 0.81232 0.03584 -0.51600
O 	O 	0.02920 0.71795 0.10936 -0.54300
O 	O 	0.13310 0.65420 0.01343 -0.47300
O 	O 	0.99160 0.13555 0.78388 -0.44900
O 	O 	0.48130 0.64909 0.79604 -0.46200
O 	O 	0.58470 0.31338 0.89450 -0.44800
O 	O 	0.26140 0.80914 0.86121 -0.50900
O 	O 	0.54570 0.80676 0.90134 -0.50300
O 	O 	0.73520 0.28524 0.79292 -0.53300
O 	O 	0.86530 0.30350 0.59636 -0.57400
O 	O 	0.57420 0.21800 0.57697 -0.45600
O 	O 	0.33100 0.82355 0.63475 -0.56600
O 	O 	0.93100 0.18768 0.46416 -0.51600
O 	O 	0.52920 0.28205 0.39064 -0.54300
O 	O 	0.63310 0.34580 0.48657 -0.47300
O 	O 	0.49160 0.86445 0.71612 -0.44900
O 	O 	0.98130 0.35091 0.70396 -0.46200
O 	O 	0.08470 0.68662 0.60550 -0.44900
O 	O 	0.76140 0.19086 0.63879 -0.51000
O 	O 	0.04570 0.19324 0.59866 -0.50200
O 	O 	0.23520 0.71476 0.70708 -0.53300
O 	O 	0.63470 0.30350 0.09636 -0.57300
O 	O 	0.92580 0.21800 0.07697 -0.45300
O 	O 	0.16900 0.82355 0.13475 -0.56600
O 	O 	0.56900 0.18768 0.96416 -0.51600
O 	O 	0.97080 0.28205 0.89064 -0.54300
O 	O 	0.86690 0.34580 0.98657 -0.47300
O 	O 	0.00840 0.86445 0.21612 -0.44900
O 	O 	0.51870 0.35091 0.20396 -0.46200
O 	O 	0.41530 0.68662 0.10550 -0.44800
O 	O 	0.73860 0.19086 0.13879 -0.50900
O 	O 	0.45430 0.19324 0.09866 -0.50300
O 	O 	0.26480 0.71476 0.20708 -0.53300
O 	O 	0.13470 0.69650 0.40364 -0.57400
O 	O 	0.42580 0.78200 0.42303 -0.45600
O 	O 	0.66900 0.17645 0.36525 -0.56600
O 	O 	0.06900 0.81232 0.53584 -0.51600
O 	O 	0.47080 0.71795 0.60936 -0.54300
O 	O 	0.36690 0.65420 0.51343 -0.47300
O 	O 	0.50840 0.13555 0.28388 -0.44900
O 	O 	0.01870 0.64909 0.29604 -0.46200
O 	O 	0.91530 0.31338 0.39450 -0.44900
O 	O 	0.23860 0.80914 0.36121 -0.51000
O 	O 	0.95430 0.80676 0.40134 -0.50200
O 	O 	0.76480 0.28524 0.29292 -0.53300
