data_crystal

_cell_length_a 11.06280
_cell_length_b 23.49830
_cell_length_c 23.49830
_cell_angle_alpha 120.00000
_cell_angle_beta  90.00000
_cell_angle_gamma 90.00000

_symmetry_space_group_name_	'P 1'
_symmetry_space_group_name_H-M	'P 1'

loop_
_symmetry_equiv_pos_as_xyz
  x,y,z

loop_
_atom_site_label
_atom_site_type_symbol
_atom_site_fract_x
_atom_site_fract_y
_atom_site_fract_z
_atom_site_charge
Co	Co	0.93491 0.09053 0.37634 1.14900
Co	Co	0.02414 0.03902 0.23422 1.18500
Co	Co	0.79435 0.12473 0.25729 1.20100
Co	Co	0.60158 0.28581 0.90947 1.14900
Co	Co	0.69081 0.19520 0.96098 1.18900
Co	Co	0.46102 0.13256 0.87527 1.20100
Co	Co	0.26824 0.62366 0.71419 1.14900
Co	Co	0.35747 0.76578 0.80480 1.18900
Co	Co	0.12768 0.74271 0.86744 1.20000
Co	Co	0.43491 0.90947 0.62366 1.14900
Co	Co	0.52414 0.96098 0.76578 1.18900
Co	Co	0.29435 0.87527 0.74271 1.20100
Co	Co	0.10158 0.71419 0.09053 1.14700
Co	Co	0.19081 0.80480 0.03902 1.18900
Co	Co	0.96102 0.86744 0.12473 1.20300
Co	Co	0.76824 0.37634 0.28581 1.14900
Co	Co	0.85747 0.23422 0.19520 1.19000
Co	Co	0.62768 0.25729 0.13256 1.20100
H 	H 	0.71930 0.99250 0.13720 -0.10800
H 	H 	0.56430 0.01560 0.60450 -0.01000
H 	H 	0.43010 0.08370 0.30630 0.05000
H 	H 	0.22560 0.99160 0.15090 -0.09400
H 	H 	0.25800 0.03590 0.42720 0.03200
H 	H 	0.61970 0.03500 0.42330 0.04000
H 	H 	0.86890 0.94050 0.30600 -0.15300
H 	H 	0.56520 0.06000 0.53520 0.09300
H 	H 	0.30760 0.89360 0.50090 -0.02000
H 	H 	0.30080 0.94200 0.43470 0.09300
H 	H 	0.38597 0.14470 0.00750 -0.11000
H 	H 	0.23097 0.58890 0.98440 -0.01200
H 	H 	0.09677 0.22260 0.91630 0.05100
H 	H 	0.89227 0.15930 0.00840 -0.09100
H 	H 	0.92467 0.39130 0.96410 0.03000
H 	H 	0.28637 0.38830 0.96500 0.03900
H 	H 	0.53557 0.36550 0.05950 -0.15300
H 	H 	0.23187 0.47520 0.94000 0.09500
H 	H 	0.97427 0.60730 0.10640 -0.01500
H 	H 	0.96747 0.49270 0.05800 0.10200
H 	H 	0.05263 0.86280 0.85530 -0.11000
H 	H 	0.89763 0.39550 0.41110 -0.01000
H 	H 	0.76343 0.69370 0.77740 0.05100
H 	H 	0.55893 0.84910 0.84070 -0.09300
H 	H 	0.59133 0.57280 0.60870 0.03300
H 	H 	0.95303 0.57670 0.61170 0.04100
H 	H 	0.20223 0.69400 0.63450 -0.15400
H 	H 	0.89853 0.46480 0.52480 0.09500
H 	H 	0.64093 0.49910 0.39270 -0.02000
H 	H 	0.63413 0.56530 0.50730 0.09300
H 	H 	0.21930 0.00750 0.86280 -0.11000
H 	H 	0.06430 0.98440 0.39550 -0.00700
H 	H 	0.93010 0.91630 0.69370 0.05000
H 	H 	0.72560 0.00840 0.84910 -0.09200
H 	H 	0.75800 0.96410 0.57280 0.03300
H 	H 	0.11970 0.96500 0.57670 0.04100
H 	H 	0.36890 0.05950 0.69400 -0.15300
H 	H 	0.06520 0.94000 0.46480 0.09200
H 	H 	0.80760 0.10640 0.49910 -0.01900
H 	H 	0.80080 0.05800 0.56530 0.09200
H 	H 	0.88597 0.85530 0.99250 -0.11100
H 	H 	0.73097 0.41110 0.01560 -0.01000
H 	H 	0.59677 0.77740 0.08370 0.05100
H 	H 	0.39227 0.84070 0.99160 -0.09300
H 	H 	0.42467 0.60870 0.03590 0.03300
H 	H 	0.78637 0.61170 0.03500 0.04100
H 	H 	0.03557 0.63450 0.94050 -0.15400
H 	H 	0.73187 0.52480 0.06000 0.09400
H 	H 	0.47427 0.39270 0.89360 -0.02000
H 	H 	0.46747 0.50730 0.94200 0.09300
H 	H 	0.55263 0.13720 0.14470 -0.10900
H 	H 	0.39763 0.60450 0.58890 -0.01100
H 	H 	0.26343 0.30630 0.22260 0.05100
H 	H 	0.05893 0.15090 0.15930 -0.09100
H 	H 	0.09133 0.42720 0.39130 0.03100
H 	H 	0.45303 0.42330 0.38830 0.04000
H 	H 	0.70223 0.30600 0.36550 -0.15300
H 	H 	0.39853 0.53520 0.47520 0.09400
H 	H 	0.14093 0.50090 0.60730 -0.02100
H 	H 	0.13413 0.43470 0.49270 0.09200
C 	C 	0.79320 0.98150 0.14790 0.51200
C 	C 	0.66410 0.07920 0.34160 0.40400
C 	C 	0.51140 0.99880 0.56910 0.10200
C 	C 	0.43210 0.07130 0.33820 0.04700
C 	C 	0.32560 0.06090 0.36180 -0.10500
C 	C 	0.20430 0.07250 0.34010 0.37400
C 	C 	0.18760 0.95100 0.13350 0.45800
C 	C 	0.33010 0.04010 0.40940 0.01800
C 	C 	0.54640 0.04060 0.40740 0.01400
C 	C 	0.54490 0.06310 0.36170 -0.10600
C 	C 	0.91110 0.94240 0.27280 0.57200
C 	C 	0.43760 0.00180 0.47460 0.13700
C 	C 	0.43470 0.02630 0.42960 -0.06600
C 	C 	0.51270 0.02580 0.52690 -0.18200
C 	C 	0.36030 0.92770 0.50910 0.09500
C 	C 	0.35880 0.95600 0.46760 -0.18300
C 	C 	0.45987 0.16640 0.01850 0.51700
C 	C 	0.33077 0.26240 0.92080 0.40300
C 	C 	0.17807 0.57030 0.00120 0.10600
C 	C 	0.09877 0.26690 0.92870 0.04000
C 	C 	0.99227 0.30090 0.93910 -0.10000
C 	C 	0.87097 0.26760 0.92750 0.37300
C 	C 	0.85427 0.18250 0.04900 0.45700
C 	C 	0.99677 0.36930 0.95990 0.02700
C 	C 	0.21307 0.36680 0.95940 0.01700
C 	C 	0.21157 0.29860 0.93690 -0.10700
C 	C 	0.57777 0.33040 0.05760 0.57300
C 	C 	0.10427 0.47280 0.99820 0.14700
C 	C 	0.10137 0.40330 0.97370 -0.07700
C 	C 	0.17937 0.50110 0.97420 -0.18900
C 	C 	0.02697 0.58140 0.07230 0.09100
C 	C 	0.02547 0.51160 0.04400 -0.19600
C 	C 	0.12653 0.85210 0.83360 0.51600
C 	C 	0.99743 0.65840 0.73760 0.41000
C 	C 	0.84473 0.43090 0.42970 0.10500
C 	C 	0.76543 0.66180 0.73310 0.04800
C 	C 	0.65893 0.63820 0.69910 -0.10500
C 	C 	0.53763 0.65990 0.73240 0.37400
C 	C 	0.52093 0.86650 0.81750 0.45700
C 	C 	0.66343 0.59060 0.63070 0.01900
C 	C 	0.87973 0.59260 0.63320 0.01600
C 	C 	0.87823 0.63830 0.70140 -0.10700
C 	C 	0.24443 0.72720 0.66960 0.57300
C 	C 	0.77093 0.52540 0.52720 0.13900
C 	C 	0.76803 0.57040 0.59670 -0.06600
C 	C 	0.84603 0.47310 0.49890 -0.18400
C 	C 	0.69363 0.49090 0.41860 0.09500
C 	C 	0.69213 0.53240 0.48840 -0.18300
C 	C 	0.29320 0.01850 0.85210 0.51600
C 	C 	0.16410 0.92080 0.65840 0.40400
C 	C 	0.01140 0.00120 0.43090 0.09100
C 	C 	0.93210 0.92870 0.66180 0.05100
C 	C 	0.82560 0.93910 0.63820 -0.10500
C 	C 	0.70430 0.92750 0.65990 0.37400
C 	C 	0.68760 0.04900 0.86650 0.45700
C 	C 	0.83010 0.95990 0.59060 0.01600
C 	C 	0.04640 0.95940 0.59260 0.01000
C 	C 	0.04490 0.93690 0.63830 -0.11000
C 	C 	0.41110 0.05760 0.72720 0.57300
C 	C 	0.93760 0.99820 0.52540 0.13500
C 	C 	0.93470 0.97370 0.57040 -0.06100
C 	C 	0.01270 0.97420 0.47310 -0.18000
C 	C 	0.86030 0.07230 0.49090 0.09300
C 	C 	0.85880 0.04400 0.53240 -0.17600
C 	C 	0.95987 0.83360 0.98150 0.52300
C 	C 	0.83077 0.73760 0.07920 0.40300
C 	C 	0.67807 0.42970 0.99880 0.10200
C 	C 	0.59877 0.73310 0.07130 0.04700
C 	C 	0.49227 0.69910 0.06090 -0.10400
C 	C 	0.37097 0.73240 0.07250 0.37400
C 	C 	0.35427 0.81750 0.95100 0.45700
C 	C 	0.49677 0.63070 0.04010 0.01800
C 	C 	0.71307 0.63320 0.04060 0.01400
C 	C 	0.71157 0.70140 0.06310 -0.10600
C 	C 	0.07777 0.66960 0.94240 0.57300
C 	C 	0.60427 0.52720 0.00180 0.13800
C 	C 	0.60137 0.59670 0.02630 -0.06600
C 	C 	0.67937 0.49890 0.02580 -0.18300
C 	C 	0.52697 0.41860 0.92770 0.09500
C 	C 	0.52547 0.48840 0.95600 -0.18300
C 	C 	0.62653 0.14790 0.16640 0.51600
C 	C 	0.49743 0.34160 0.26240 0.40300
C 	C 	0.34473 0.56910 0.57030 0.10400
C 	C 	0.26543 0.33820 0.26690 0.04600
C 	C 	0.15893 0.36180 0.30090 -0.10300
C 	C 	0.03763 0.34010 0.26760 0.36700
C 	C 	0.02093 0.13350 0.18250 0.44600
C 	C 	0.16343 0.40940 0.36930 0.01700
C 	C 	0.37973 0.40740 0.36680 0.01400
C 	C 	0.37823 0.36170 0.29860 -0.10600
C 	C 	0.74443 0.27280 0.33040 0.57200
C 	C 	0.27093 0.47460 0.47280 0.13800
C 	C 	0.26803 0.42960 0.40330 -0.06600
C 	C 	0.34603 0.52690 0.50110 -0.18400
C 	C 	0.19363 0.50910 0.58140 0.09400
C 	C 	0.19213 0.46760 0.51160 -0.18300
N 	N 	0.43680 0.95000 0.55960 -0.23700
N 	N 	0.10347 0.60960 0.05000 -0.23800
N 	N 	0.77013 0.44040 0.39040 -0.23800
N 	N 	0.93680 0.05000 0.44040 -0.23200
N 	N 	0.60347 0.39040 0.95000 -0.23700
N 	N 	0.27013 0.55960 0.60960 -0.23800
O 	O 	0.12280 0.09557 0.38493 -0.43500
O 	O 	0.93990 0.12209 0.30873 -0.57000
O 	O 	0.75270 0.07810 0.37297 -0.46700
O 	O 	0.08590 0.95077 0.15712 -0.54500
O 	O 	0.85110 0.02658 0.19300 -0.57300
O 	O 	0.24480 0.90237 0.08848 -0.41200
O 	O 	0.19150 0.05795 0.28252 -0.40700
O 	O 	0.82500 0.92186 0.11492 -0.42300
O 	O 	0.90870 0.89299 0.21898 -0.48300
O 	O 	0.96320 0.99527 0.28872 -0.59200
O 	O 	0.66180 0.09210 0.29604 -0.40800
O 	O 	0.78947 0.28936 0.90443 -0.43100
O 	O 	0.60657 0.18664 0.87791 -0.57300
O 	O 	0.41937 0.29487 0.92190 -0.46800
O 	O 	0.75257 0.20635 0.04923 -0.54300
O 	O 	0.51777 0.16642 0.97342 -0.57800
O 	O 	0.91147 0.18611 0.09763 -0.40900
O 	O 	0.85817 0.22457 0.94205 -0.40500
O 	O 	0.49167 0.19306 0.07814 -0.42500
O 	O 	0.57537 0.32599 0.10701 -0.48400
O 	O 	0.62987 0.29345 0.00473 -0.59300
O 	O 	0.32847 0.20394 0.90790 -0.40900
O 	O 	0.45613 0.61507 0.71064 -0.43200
O 	O 	0.27323 0.69127 0.81336 -0.57300
O 	O 	0.08603 0.62703 0.70513 -0.47300
O 	O 	0.41923 0.84288 0.79365 -0.54400
O 	O 	0.18443 0.80700 0.83358 -0.57800
O 	O 	0.57813 0.91152 0.81389 -0.41100
O 	O 	0.52483 0.71748 0.77543 -0.40600
O 	O 	0.15833 0.88508 0.80694 -0.42500
O 	O 	0.24203 0.78102 0.67401 -0.48500
O 	O 	0.29653 0.71128 0.70655 -0.59300
O 	O 	0.99513 0.70396 0.79606 -0.40800
O 	O 	0.62280 0.90443 0.61507 -0.43200
O 	O 	0.43990 0.87791 0.69127 -0.57300
O 	O 	0.25270 0.92190 0.62703 -0.46800
O 	O 	0.58590 0.04923 0.84288 -0.54300
O 	O 	0.35110 0.97342 0.80700 -0.57700
O 	O 	0.74480 0.09763 0.91152 -0.41100
O 	O 	0.69150 0.94205 0.71748 -0.40600
O 	O 	0.32500 0.07814 0.88508 -0.42500
O 	O 	0.40870 0.10701 0.78102 -0.48400
O 	O 	0.46320 0.00473 0.71128 -0.59300
O 	O 	0.16180 0.90790 0.70396 -0.40900
O 	O 	0.28947 0.71064 0.09557 -0.43200
O 	O 	0.10657 0.81336 0.12209 -0.57500
O 	O 	0.91937 0.70513 0.07810 -0.46500
O 	O 	0.25257 0.79365 0.95077 -0.54400
O 	O 	0.01777 0.83358 0.02658 -0.58300
O 	O 	0.41147 0.81389 0.90237 -0.41100
O 	O 	0.35817 0.77543 0.05795 -0.40600
O 	O 	0.99167 0.80694 0.92186 -0.42400
O 	O 	0.07537 0.67401 0.89299 -0.48600
O 	O 	0.12987 0.70655 0.99527 -0.59400
O 	O 	0.82847 0.79606 0.09210 -0.40700
O 	O 	0.95613 0.38493 0.28936 -0.42600
O 	O 	0.77323 0.30873 0.18664 -0.57200
O 	O 	0.58603 0.37297 0.29487 -0.46800
O 	O 	0.91923 0.15712 0.20635 -0.53600
O 	O 	0.68443 0.19300 0.16642 -0.57700
O 	O 	0.07813 0.08848 0.18611 -0.41000
O 	O 	0.02483 0.28252 0.22457 -0.40700
O 	O 	0.65833 0.11492 0.19306 -0.42400
O 	O 	0.74203 0.21898 0.32599 -0.48400
O 	O 	0.79653 0.28872 0.29345 -0.59200
O 	O 	0.49513 0.29604 0.20394 -0.40900
