data_crystal

_cell_length_a 6.82090
_cell_length_b 15.16460
_cell_length_c 15.16460
_cell_angle_alpha 62.20680
_cell_angle_beta  81.37720
_cell_angle_gamma 98.62280

_symmetry_space_group_name_	'P 1'
_symmetry_space_group_name_H-M	'P 1'

loop_
_symmetry_equiv_pos_as_xyz
  x,y,z

loop_
_atom_site_label
_atom_site_type_symbol
_atom_site_fract_x
_atom_site_fract_y
_atom_site_fract_z
_atom_site_charge
Fe	Fe	0.89510 0.68650 0.58660 1.16400
Fe	Fe	0.48170 0.58660 0.72690 1.16400
Fe	Fe	0.20860 0.72690 0.68650 1.16400
Fe	Fe	0.10490 0.31350 0.41340 1.16400
Fe	Fe	0.51830 0.41340 0.27310 1.16400
Fe	Fe	0.79140 0.27310 0.31350 1.16400
H 	H 	0.62330 0.01030 0.54740 0.06100
H 	H 	0.17070 0.54740 0.44230 0.06100
H 	H 	0.61300 0.44230 0.01030 0.06100
H 	H 	0.37670 0.98970 0.45260 0.06100
H 	H 	0.82930 0.45260 0.55770 0.06000
H 	H 	0.38700 0.55770 0.98970 0.06000
C 	C 	0.65850 0.82200 0.61530 0.29100
C 	C 	0.84020 0.91250 0.53900 -0.15900
C 	C 	0.04630 0.89910 0.52890 0.20600
C 	C 	0.80580 0.00050 0.53610 -0.06400
C 	C 	0.27380 0.61530 0.56270 0.29100
C 	C 	0.37920 0.53900 0.54850 -0.15900
C 	C 	0.57520 0.52890 0.57200 0.20600
C 	C 	0.34190 0.53610 0.46340 -0.06400
C 	C 	0.83650 0.56270 0.82200 0.29100
C 	C 	0.92770 0.54850 0.91250 -0.15700
C 	C 	0.14720 0.57200 0.89910 0.20500
C 	C 	0.80530 0.46340 0.00050 -0.06500
C 	C 	0.34150 0.17800 0.38470 0.29100
C 	C 	0.15980 0.08750 0.46100 -0.15900
C 	C 	0.95370 0.10090 0.47110 0.20600
C 	C 	0.19420 0.99950 0.46390 -0.06400
C 	C 	0.72620 0.38470 0.43730 0.29100
C 	C 	0.62080 0.46100 0.45150 -0.15900
C 	C 	0.42480 0.47110 0.42800 0.20600
C 	C 	0.65810 0.46390 0.53660 -0.06400
C 	C 	0.16350 0.43730 0.17800 0.29100
C 	C 	0.07230 0.45150 0.08750 -0.15700
C 	C 	0.85280 0.42800 0.10090 0.20500
C 	C 	0.19470 0.53660 0.99950 -0.06500
O 	O 	0.66990 0.73090 0.64360 -0.57800
O 	O 	0.47630 0.86120 0.60770 -0.37100
O 	O 	0.07900 0.80980 0.56860 -0.55000
O 	O 	0.31350 0.64360 0.62550 -0.57800
O 	O 	0.08400 0.60770 0.53110 -0.37100
O 	O 	0.64760 0.56860 0.62160 -0.55000
O 	O 	0.93900 0.62550 0.73090 -0.57700
O 	O 	0.61510 0.53110 0.86120 -0.37100
O 	O 	0.26920 0.62160 0.80980 -0.55000
O 	O 	0.33010 0.26910 0.35640 -0.57800
O 	O 	0.52370 0.13880 0.39230 -0.37100
O 	O 	0.92100 0.19020 0.43140 -0.55000
O 	O 	0.68650 0.35640 0.37450 -0.57800
O 	O 	0.91600 0.39230 0.46890 -0.37100
O 	O 	0.35240 0.43140 0.37840 -0.55000
O 	O 	0.06100 0.37450 0.26910 -0.57700
O 	O 	0.38490 0.46890 0.13880 -0.37100
O 	O 	0.73080 0.37840 0.19020 -0.55000
