data_crystal

_cell_length_a 6.89450
_cell_length_b 15.24030
_cell_length_c 15.24030
_cell_angle_alpha 62.23210
_cell_angle_beta  81.32700
_cell_angle_gamma 98.67300

_symmetry_space_group_name_	'P 1'
_symmetry_space_group_name_H-M	'P 1'

loop_
_symmetry_equiv_pos_as_xyz
  x,y,z

loop_
_atom_site_label
_atom_site_type_symbol
_atom_site_fract_x
_atom_site_fract_y
_atom_site_fract_z
_atom_site_charge
Fe	Fe	0.88900 0.67920 0.58740 1.13500
Fe	Fe	0.47640 0.58740 0.73340 1.13500
Fe	Fe	0.20980 0.73340 0.67920 1.13500
Fe	Fe	0.11100 0.32080 0.41260 1.13500
Fe	Fe	0.52360 0.41260 0.26660 1.13600
Fe	Fe	0.79020 0.26660 0.32080 1.13600
H 	H 	0.65830 0.03070 0.53780 0.05200
H 	H 	0.19610 0.53780 0.43150 0.05200
H 	H 	0.62760 0.43150 0.03070 0.05200
H 	H 	0.34170 0.96930 0.46220 0.05200
H 	H 	0.80390 0.46220 0.56850 0.05200
H 	H 	0.37240 0.56850 0.96930 0.05200
C 	C 	0.62860 0.82920 0.61740 0.59700
C 	C 	0.83810 0.91060 0.55120 -0.22200
C 	C 	0.04580 0.90080 0.53540 0.24600
C 	C 	0.79760 0.00330 0.52750 -0.06800
C 	C 	0.24600 0.61740 0.55340 0.59700
C 	C 	0.38930 0.55120 0.53820 -0.22200
C 	C 	0.58120 0.53540 0.56380 0.24600
C 	C 	0.32510 0.52750 0.46920 -0.06800
C 	C 	0.79940 0.55340 0.82920 0.59600
C 	C 	0.92750 0.53820 0.91060 -0.22000
C 	C 	0.14500 0.56380 0.90080 0.24500
C 	C 	0.79430 0.46920 0.00330 -0.07000
C 	C 	0.37140 0.17080 0.38260 0.59700
C 	C 	0.16190 0.08940 0.44880 -0.22200
C 	C 	0.95420 0.09920 0.46460 0.24600
C 	C 	0.20240 0.99670 0.47250 -0.06800
C 	C 	0.75400 0.38260 0.44660 0.59700
C 	C 	0.61070 0.44880 0.46180 -0.22200
C 	C 	0.41880 0.46460 0.43620 0.24600
C 	C 	0.67490 0.47250 0.53080 -0.06800
C 	C 	0.20060 0.44660 0.17080 0.59600
C 	C 	0.07250 0.46180 0.08940 -0.22000
C 	C 	0.85500 0.43620 0.09920 0.24500
C 	C 	0.20570 0.53080 0.99670 -0.07000
O 	O 	0.66800 0.74850 0.64650 -0.63000
O 	O 	0.47360 0.84480 0.62400 -0.57400
O 	O 	0.07700 0.81700 0.55600 -0.53600
O 	O 	0.31450 0.64650 0.60500 -0.63000
O 	O 	0.09760 0.62400 0.53120 -0.57400
O 	O 	0.63300 0.55600 0.62700 -0.53600
O 	O 	0.91950 0.60500 0.74850 -0.62900
O 	O 	0.62880 0.53120 0.84480 -0.57400
O 	O 	0.26000 0.62700 0.81700 -0.53600
O 	O 	0.33200 0.25150 0.35350 -0.63000
O 	O 	0.52640 0.15520 0.37600 -0.57400
O 	O 	0.92300 0.18300 0.44400 -0.53600
O 	O 	0.68550 0.35350 0.39500 -0.63000
O 	O 	0.90240 0.37600 0.46880 -0.57400
O 	O 	0.36700 0.44400 0.37300 -0.53600
O 	O 	0.08050 0.39500 0.25150 -0.62900
O 	O 	0.37120 0.46880 0.15520 -0.57400
O 	O 	0.74000 0.37300 0.18300 -0.53600
