data_crystal

_cell_length_a 6.91070
_cell_length_b 15.24510
_cell_length_c 15.24510
_cell_angle_alpha 62.24110
_cell_angle_beta  81.30920
_cell_angle_gamma 98.69080

_symmetry_space_group_name_	'P 1'
_symmetry_space_group_name_H-M	'P 1'

loop_
_symmetry_equiv_pos_as_xyz
  x,y,z

loop_
_atom_site_label
_atom_site_type_symbol
_atom_site_fract_x
_atom_site_fract_y
_atom_site_fract_z
_atom_site_charge
Fe	Fe	0.88920 0.67920 0.58770 1.14800
Fe	Fe	0.47690 0.58770 0.73310 1.14800
Fe	Fe	0.21000 0.73310 0.67920 1.14700
Fe	Fe	0.11080 0.32080 0.41230 1.14800
Fe	Fe	0.52310 0.41230 0.26690 1.14800
Fe	Fe	0.79000 0.26690 0.32080 1.14700
H 	H 	0.64820 0.03070 0.53810 0.04600
H 	H 	0.18630 0.53810 0.43120 0.04700
H 	H 	0.61750 0.43120 0.03070 0.04700
H 	H 	0.35180 0.96930 0.46190 0.04600
H 	H 	0.81370 0.46190 0.56880 0.04700
H 	H 	0.38250 0.56880 0.96930 0.04700
C 	C 	0.62360 0.82510 0.61930 0.59500
C 	C 	0.84130 0.91210 0.55120 -0.20700
C 	C 	0.03550 0.90090 0.53640 0.22500
C 	C 	0.79890 0.00590 0.52620 -0.06000
C 	C 	0.24290 0.61930 0.55560 0.59500
C 	C 	0.39250 0.55120 0.53670 -0.20700
C 	C 	0.57190 0.53640 0.56270 0.22500
C 	C 	0.32510 0.52620 0.46790 -0.06000
C 	C 	0.79850 0.55560 0.82510 0.59500
C 	C 	0.92920 0.53670 0.91210 -0.20500
C 	C 	0.13460 0.56270 0.90090 0.22400
C 	C 	0.79300 0.46790 0.00590 -0.06100
C 	C 	0.37640 0.17490 0.38070 0.59500
C 	C 	0.15870 0.08790 0.44880 -0.20700
C 	C 	0.96450 0.09910 0.46360 0.22500
C 	C 	0.20110 0.99410 0.47380 -0.06000
C 	C 	0.75710 0.38070 0.44440 0.59500
C 	C 	0.60750 0.44880 0.46330 -0.20700
C 	C 	0.42810 0.46360 0.43730 0.22500
C 	C 	0.67490 0.47380 0.53210 -0.06000
C 	C 	0.20150 0.44440 0.17490 0.59500
C 	C 	0.07080 0.46330 0.08790 -0.20500
C 	C 	0.86540 0.43730 0.09910 0.22400
C 	C 	0.20700 0.53210 0.99410 -0.06100
O 	O 	0.68000 0.74770 0.64870 -0.62100
O 	O 	0.47160 0.83890 0.63010 -0.59600
O 	O 	0.07220 0.81250 0.56290 -0.53100
O 	O 	0.32870 0.64870 0.60360 -0.62100
O 	O 	0.10170 0.63010 0.53100 -0.59600
O 	O 	0.63510 0.56290 0.62460 -0.53000
O 	O 	0.93230 0.60360 0.74770 -0.62100
O 	O 	0.63270 0.53100 0.83890 -0.59600
O 	O 	0.25970 0.62460 0.81250 -0.53000
O 	O 	0.32000 0.25230 0.35130 -0.62100
O 	O 	0.52840 0.16110 0.36990 -0.59600
O 	O 	0.92780 0.18750 0.43710 -0.53100
O 	O 	0.67130 0.35130 0.39640 -0.62100
O 	O 	0.89830 0.36990 0.46900 -0.59600
O 	O 	0.36490 0.43710 0.37540 -0.53000
O 	O 	0.06770 0.39640 0.25230 -0.62100
O 	O 	0.36730 0.46900 0.16110 -0.59600
O 	O 	0.74030 0.37540 0.18750 -0.53000
