data_crystal

_cell_length_a 6.85380
_cell_length_b 15.15760
_cell_length_c 15.15760
_cell_angle_alpha 62.23000
_cell_angle_beta  81.33110
_cell_angle_gamma 98.66890

_symmetry_space_group_name_	'P 1'
_symmetry_space_group_name_H-M	'P 1'

loop_
_symmetry_equiv_pos_as_xyz
  x,y,z

loop_
_atom_site_label
_atom_site_type_symbol
_atom_site_fract_x
_atom_site_fract_y
_atom_site_fract_z
_atom_site_charge
Fe	Fe	0.88810 0.68400 0.58800 1.16800
Fe	Fe	0.47610 0.58800 0.72800 1.16800
Fe	Fe	0.20410 0.72800 0.68400 1.16700
Fe	Fe	0.11190 0.31600 0.41200 1.16700
Fe	Fe	0.52390 0.41200 0.27200 1.16700
Fe	Fe	0.79590 0.27200 0.31600 1.16700
H 	H 	0.64090 0.01980 0.54190 0.05900
H 	H 	0.18280 0.54190 0.43830 0.05900
H 	H 	0.62110 0.43830 0.01980 0.05900
H 	H 	0.35910 0.98020 0.45810 0.05900
H 	H 	0.81720 0.45810 0.56170 0.05900
H 	H 	0.37890 0.56170 0.98020 0.05900
C 	C 	0.67190 0.82790 0.61190 0.30200
C 	C 	0.83720 0.92050 0.54520 -0.17500
C 	C 	0.02810 0.89410 0.53440 0.21600
C 	C 	0.80280 0.01430 0.52200 -0.06500
C 	C 	0.28380 0.61190 0.56020 0.30200
C 	C 	0.38240 0.54520 0.53430 -0.17500
C 	C 	0.56250 0.53440 0.57150 0.21600
C 	C 	0.32480 0.52200 0.46370 -0.06500
C 	C 	0.84400 0.56020 0.82790 0.30100
C 	C 	0.91670 0.53430 0.92050 -0.17300
C 	C 	0.13400 0.57150 0.89410 0.21500
C 	C 	0.78850 0.46370 0.01430 -0.06600
C 	C 	0.32810 0.17210 0.38810 0.30200
C 	C 	0.16280 0.07950 0.45480 -0.17500
C 	C 	0.97190 0.10590 0.46560 0.21600
C 	C 	0.19720 0.98570 0.47800 -0.06500
C 	C 	0.71620 0.38810 0.43980 0.30200
C 	C 	0.61760 0.45480 0.46570 -0.17500
C 	C 	0.43750 0.46560 0.42850 0.21600
C 	C 	0.67520 0.47800 0.53630 -0.06500
C 	C 	0.15600 0.43980 0.17210 0.30100
C 	C 	0.08330 0.46570 0.07950 -0.17300
C 	C 	0.86600 0.42850 0.10590 0.21500
C 	C 	0.21150 0.53630 0.98570 -0.06600
O 	O 	0.68080 0.73360 0.64570 -0.56400
O 	O 	0.47530 0.85150 0.61960 -0.38200
O 	O 	0.06900 0.80720 0.56960 -0.55900
O 	O 	0.32650 0.64570 0.62070 -0.56400
O 	O 	0.09490 0.61960 0.52890 -0.38100
O 	O 	0.63860 0.56960 0.62320 -0.55900
O 	O 	0.94720 0.62070 0.73360 -0.56300
O 	O 	0.62380 0.52890 0.85150 -0.38100
O 	O 	0.26180 0.62320 0.80720 -0.55900
O 	O 	0.31920 0.26640 0.35430 -0.56400
O 	O 	0.52470 0.14850 0.38040 -0.38200
O 	O 	0.93100 0.19280 0.43040 -0.55900
O 	O 	0.67350 0.35430 0.37930 -0.56400
O 	O 	0.90510 0.38040 0.47110 -0.38100
O 	O 	0.36140 0.43040 0.37680 -0.55900
O 	O 	0.05280 0.37930 0.26640 -0.56300
O 	O 	0.37620 0.47110 0.14850 -0.38100
O 	O 	0.73820 0.37680 0.19280 -0.55900
