data_crystal

_cell_length_a 6.83760
_cell_length_b 15.16100
_cell_length_c 15.16100
_cell_angle_alpha 62.21860
_cell_angle_beta  81.35370
_cell_angle_gamma 98.64630

_symmetry_space_group_name_	'P 1'
_symmetry_space_group_name_H-M	'P 1'

loop_
_symmetry_equiv_pos_as_xyz
  x,y,z

loop_
_atom_site_label
_atom_site_type_symbol
_atom_site_fract_x
_atom_site_fract_y
_atom_site_fract_z
_atom_site_charge
Fe	Fe	0.89790 0.68520 0.58590 1.16600
Fe	Fe	0.48380 0.58590 0.72890 1.16600
Fe	Fe	0.21270 0.72890 0.68520 1.16600
Fe	Fe	0.10210 0.31480 0.41410 1.16600
Fe	Fe	0.51620 0.41410 0.27110 1.16600
Fe	Fe	0.78730 0.27110 0.31480 1.16600
H 	H 	0.65390 0.01950 0.54040 0.06300
H 	H 	0.19430 0.54040 0.44010 0.06300
H 	H 	0.63440 0.44010 0.01950 0.06300
H 	H 	0.34610 0.98050 0.45960 0.06300
H 	H 	0.80570 0.45960 0.55990 0.06300
H 	H 	0.36560 0.55990 0.98050 0.06300
C 	C 	0.65890 0.82080 0.61800 0.27100
C 	C 	0.83190 0.90970 0.54640 -0.15000
C 	C 	0.03770 0.89720 0.53480 0.19400
C 	C 	0.81110 0.00400 0.52700 -0.06700
C 	C 	0.27690 0.61800 0.56120 0.27100
C 	C 	0.37830 0.54640 0.54390 -0.14900
C 	C 	0.57250 0.53480 0.56800 0.19300
C 	C 	0.33810 0.52700 0.46900 -0.06700
C 	C 	0.83810 0.56120 0.82080 0.27000
C 	C 	0.92220 0.54390 0.90970 -0.14700
C 	C 	0.14050 0.56800 0.89720 0.19300
C 	C 	0.80710 0.46900 0.00400 -0.06900
C 	C 	0.34110 0.17920 0.38200 0.27100
C 	C 	0.16810 0.09030 0.45360 -0.15000
C 	C 	0.96230 0.10280 0.46520 0.19400
C 	C 	0.18890 0.99600 0.47300 -0.06700
C 	C 	0.72310 0.38200 0.43880 0.27100
C 	C 	0.62170 0.45360 0.45610 -0.14900
C 	C 	0.42750 0.46520 0.43200 0.19300
C 	C 	0.66190 0.47300 0.53100 -0.06700
C 	C 	0.16190 0.43880 0.17920 0.27000
C 	C 	0.07780 0.45610 0.09030 -0.14700
C 	C 	0.85950 0.43200 0.10280 0.19300
C 	C 	0.19290 0.53100 0.99600 -0.06900
O 	O 	0.67850 0.72840 0.64440 -0.56900
O 	O 	0.48040 0.86260 0.61390 -0.36600
O 	O 	0.07970 0.80900 0.56570 -0.54200
O 	O 	0.32290 0.64440 0.62720 -0.56900
O 	O 	0.09430 0.61390 0.52350 -0.36600
O 	O 	0.64540 0.56570 0.62530 -0.54200
O 	O 	0.95010 0.62720 0.72840 -0.56800
O 	O 	0.61780 0.52350 0.86260 -0.36600
O 	O 	0.27070 0.62530 0.80900 -0.54200
O 	O 	0.32150 0.27160 0.35560 -0.56900
O 	O 	0.51960 0.13740 0.38610 -0.36600
O 	O 	0.92030 0.19100 0.43430 -0.54200
O 	O 	0.67710 0.35560 0.37280 -0.56900
O 	O 	0.90570 0.38610 0.47650 -0.36600
O 	O 	0.35460 0.43430 0.37470 -0.54200
O 	O 	0.04990 0.37280 0.27160 -0.56800
O 	O 	0.38220 0.47650 0.13740 -0.36600
O 	O 	0.72930 0.37470 0.19100 -0.54200
