data_crystal

_cell_length_a 6.84300
_cell_length_b 15.15900
_cell_length_c 15.15900
_cell_angle_alpha 62.22260
_cell_angle_beta  81.34580
_cell_angle_gamma 98.65420

_symmetry_space_group_name_	'P 1'
_symmetry_space_group_name_H-M	'P 1'

loop_
_symmetry_equiv_pos_as_xyz
  x,y,z

loop_
_atom_site_label
_atom_site_type_symbol
_atom_site_fract_x
_atom_site_fract_y
_atom_site_fract_z
_atom_site_charge
Fe	Fe	0.89190 0.68490 0.58620 1.16700
Fe	Fe	0.47810 0.58620 0.72890 1.16700
Fe	Fe	0.20700 0.72890 0.68490 1.16600
Fe	Fe	0.10810 0.31510 0.41380 1.16700
Fe	Fe	0.52190 0.41380 0.27110 1.16700
Fe	Fe	0.79300 0.27110 0.31510 1.16600
H 	H 	0.64650 0.01860 0.53800 0.06400
H 	H 	0.18450 0.53800 0.44340 0.06400
H 	H 	0.62790 0.44340 0.01860 0.06500
H 	H 	0.35350 0.98140 0.46200 0.06400
H 	H 	0.81550 0.46200 0.55660 0.06400
H 	H 	0.37210 0.55660 0.98140 0.06500
C 	C 	0.66340 0.82210 0.61570 0.28500
C 	C 	0.83150 0.91240 0.54280 -0.16200
C 	C 	0.03320 0.89680 0.53530 0.21000
C 	C 	0.80470 0.00800 0.52290 -0.07400
C 	C 	0.27910 0.61570 0.56220 0.28500
C 	C 	0.37430 0.54280 0.54480 -0.16200
C 	C 	0.56850 0.53530 0.56790 0.21000
C 	C 	0.32760 0.52290 0.46910 -0.07400
C 	C 	0.84130 0.56220 0.82210 0.28400
C 	C 	0.91910 0.54480 0.91240 -0.16000
C 	C 	0.13640 0.56790 0.89680 0.20900
C 	C 	0.79670 0.46910 0.00800 -0.07500
C 	C 	0.33660 0.17790 0.38430 0.28500
C 	C 	0.16850 0.08760 0.45720 -0.16200
C 	C 	0.96680 0.10320 0.46470 0.21000
C 	C 	0.19530 0.99200 0.47710 -0.07400
C 	C 	0.72090 0.38430 0.43780 0.28500
C 	C 	0.62570 0.45720 0.45520 -0.16200
C 	C 	0.43150 0.46470 0.43210 0.21000
C 	C 	0.67240 0.47710 0.53090 -0.07400
C 	C 	0.15870 0.43780 0.17790 0.28400
C 	C 	0.08090 0.45520 0.08760 -0.16000
C 	C 	0.86360 0.43210 0.10320 0.20900
C 	C 	0.20330 0.53090 0.99200 -0.07500
O 	O 	0.67960 0.72870 0.64800 -0.56800
O 	O 	0.47910 0.85830 0.61650 -0.37200
O 	O 	0.07100 0.80860 0.56860 -0.55000
O 	O 	0.32760 0.64800 0.62330 -0.56800
O 	O 	0.09560 0.61650 0.52520 -0.37200
O 	O 	0.63960 0.56860 0.62280 -0.55000
O 	O 	0.95090 0.62330 0.72870 -0.56700
O 	O 	0.62080 0.52520 0.85830 -0.37200
O 	O 	0.26240 0.62280 0.80860 -0.55000
O 	O 	0.32040 0.27130 0.35200 -0.56800
O 	O 	0.52090 0.14170 0.38350 -0.37200
O 	O 	0.92900 0.19140 0.43140 -0.55000
O 	O 	0.67240 0.35200 0.37670 -0.56800
O 	O 	0.90440 0.38350 0.47480 -0.37200
O 	O 	0.36040 0.43140 0.37720 -0.55000
O 	O 	0.04910 0.37670 0.27130 -0.56700
O 	O 	0.37920 0.47480 0.14170 -0.37200
O 	O 	0.73760 0.37720 0.19140 -0.55000
