data_crystal

_cell_length_a 10.35470
_cell_length_b 10.51720
_cell_length_c 12.39000
_cell_angle_alpha 70.64600
_cell_angle_beta  89.45100
_cell_angle_gamma 63.84900

_symmetry_space_group_name_	'P 1'
_symmetry_space_group_name_H-M	'P 1'

loop_
_symmetry_equiv_pos_as_xyz
  x,y,z

loop_
_atom_site_label
_atom_site_type_symbol
_atom_site_fract_x
_atom_site_fract_y
_atom_site_fract_z
_atom_site_charge
Co	Co	-0.00000 0.00000 -0.00000 1.06000
Co	Co	-0.00000 0.50000 -0.00000 1.02200
H 	H 	0.38670 0.46290 0.77520 0.12700
H 	H 	0.71730 0.45210 0.01930 -0.16700
H 	H 	0.84150 0.65980 0.75180 0.01000
H 	H 	0.66580 0.67870 0.62940 0.11000
H 	H 	0.53840 0.46350 0.90430 0.17400
H 	H 	0.40110 0.77950 0.33400 0.07500
H 	H 	0.28480 0.89370 0.14760 0.00200
H 	H 	0.98920 0.76160 0.23380 0.14400
H 	H 	0.09560 0.64790 0.42500 0.01400
H 	H 	0.68910 0.01240 0.32130 0.10200
H 	H 	0.81370 0.94570 0.49840 -0.02500
H 	H 	0.06110 0.13000 0.34410 -0.16100
H 	H 	0.61330 0.53710 0.22480 0.12100
H 	H 	0.28270 0.54790 0.98070 0.18200
H 	H 	0.15850 0.34020 0.24820 -0.01100
H 	H 	0.33420 0.32130 0.37060 0.05100
H 	H 	0.46160 0.53650 0.09570 -0.00800
H 	H 	0.59890 0.22050 0.66600 0.10600
H 	H 	0.71520 0.10630 0.85240 0.03200
H 	H 	0.01080 0.23840 0.76620 -0.14100
H 	H 	0.90440 0.35210 0.57500 0.15600
H 	H 	0.31090 0.98760 0.67870 -0.03800
H 	H 	0.18630 0.05430 0.50160 0.15800
H 	H 	0.93890 0.87000 0.65590 0.23100
C 	C 	0.70860 0.49600 0.93930 0.38000
C 	C 	0.78120 0.61750 0.78320 0.12400
C 	C 	0.67430 0.63110 0.70890 -0.18200
C 	C 	0.58040 0.57450 0.75170 0.13800
C 	C 	0.59910 0.50430 0.87100 -0.28300
C 	C 	0.46750 0.58550 0.67340 0.08700
C 	C 	0.33030 0.63950 0.52350 0.11200
C 	C 	0.25950 0.70490 0.40170 -0.00000
C 	C 	0.31560 0.77680 0.31600 -0.08600
C 	C 	0.24550 0.84450 0.20420 0.04100
C 	C 	0.07170 0.76780 0.25480 -0.15100
C 	C 	0.13530 0.69830 0.36980 -0.00700
C 	C 	0.73180 0.11130 0.11250 0.27700
C 	C 	0.80970 0.09490 0.22290 0.06300
C 	C 	0.76870 0.03060 0.32500 -0.20600
C 	C 	0.84200 0.99280 0.43180 0.20700
C 	C 	0.95760 0.02380 0.44190 -0.23200
C 	C 	0.98990 0.09990 0.33980 0.34800
C 	C 	0.92100 0.13360 0.23090 -0.22700
C 	C 	0.96780 0.21820 0.12770 0.42200
C 	C 	0.29140 0.50400 0.06070 -0.23100
C 	C 	0.21880 0.38250 0.21680 0.01700
C 	C 	0.32570 0.36890 0.29110 -0.06000
C 	C 	0.41960 0.42550 0.24830 -0.03600
C 	C 	0.40090 0.49570 0.12900 0.05300
C 	C 	0.53250 0.41450 0.32660 0.13900
C 	C 	0.66970 0.36050 0.47650 0.07200
C 	C 	0.74050 0.29510 0.59830 0.13500
C 	C 	0.68440 0.22320 0.68400 -0.17900
C 	C 	0.75450 0.15550 0.79580 0.11100
C 	C 	0.92830 0.23220 0.74520 0.31700
C 	C 	0.86470 0.30170 0.63020 -0.26200
C 	C 	0.26820 0.88870 0.88750 0.36400
C 	C 	0.19030 0.90510 0.77710 -0.21100
C 	C 	0.23130 0.96940 0.67500 0.26600
C 	C 	0.15800 0.00720 0.56820 -0.42000
C 	C 	0.04240 0.97620 0.55810 0.29700
C 	C 	0.01010 0.90010 0.66020 -0.38000
C 	C 	0.07900 0.86640 0.76910 0.10300
C 	C 	0.03220 0.78180 0.87230 0.27500
N 	N 	0.38480 0.51780 0.70550 -0.16600
N 	N 	0.29600 0.54990 0.61010 -0.09400
N 	N 	0.43640 0.66370 0.55890 -0.12800
N 	N 	0.80340 0.54730 0.89770 -0.24500
N 	N 	0.12290 0.84350 0.17190 -0.19300
N 	N 	0.61520 0.48220 0.29450 -0.17600
N 	N 	0.70400 0.45010 0.38990 -0.07600
N 	N 	0.56360 0.33630 0.44110 -0.13600
N 	N 	0.19660 0.45270 0.10230 -0.20700
N 	N 	0.87710 0.15650 0.82810 -0.21900
O 	O 	0.97930 0.33000 0.13300 -0.41300
O 	O 	0.99410 0.17720 0.04150 -0.44800
O 	O 	0.59620 0.18890 0.09210 -0.28200
O 	O 	0.80420 0.03540 0.05370 -0.41300
O 	O 	0.02070 0.67000 0.86700 -0.40700
O 	O 	0.00590 0.82280 0.95850 -0.36000
O 	O 	0.40380 0.81110 0.90790 -0.21700
O 	O 	0.19580 0.96460 0.94630 -0.34100
