data_crystal

_cell_length_a 13.48400
_cell_length_b 16.67400
_cell_length_c 30.09400
_cell_angle_alpha 96.87000
_cell_angle_beta  90.00000
_cell_angle_gamma 90.00000

_symmetry_space_group_name_	'P 1'
_symmetry_space_group_name_H-M	'P 1'

loop_
_symmetry_equiv_pos_as_xyz
  x,y,z

loop_
_atom_site_label
_atom_site_type_symbol
_atom_site_fract_x
_atom_site_fract_y
_atom_site_fract_z
_atom_site_charge
Ni	Ni	0.30683 0.40326 0.48766 1.10700
Ni	Ni	0.19317 0.40326 0.98766 1.11100
Ni	Ni	0.50000 0.50000 0.50000 1.11400
Ni	Ni	0.51796 0.59890 0.42193 1.10900
Ni	Ni	0.48204 0.40110 0.57807 1.10900
Ni	Ni	0.98204 0.59890 0.92193 1.11300
Ni	Ni	-0.00000 0.50000 -0.00000 1.10500
Ni	Ni	0.69317 0.59674 0.51234 1.10700
Ni	Ni	0.01796 0.40110 0.07807 1.10600
Ni	Ni	0.80683 0.59674 0.01234 1.10400
H 	H 	0.35940 0.88840 0.49230 0.05100
H 	H 	0.53210 0.99220 0.40610 0.05500
H 	H 	0.55500 0.15400 0.11490 0.13600
H 	H 	0.40590 0.32230 0.18740 0.09800
H 	H 	0.04860 0.67420 0.46720 0.09500
H 	H 	0.59460 0.30570 0.11100 -0.00300
H 	H 	0.54310 0.14850 0.02960 -0.03700
H 	H 	0.08190 0.64640 0.64270 0.06700
H 	H 	0.77580 0.58740 0.60880 0.00500
H 	H 	0.91580 0.57010 0.81750 -0.00700
H 	H 	0.33620 0.12330 0.00270 0.03000
H 	H 	0.99200 0.59560 0.22570 0.09500
H 	H 	0.90340 0.23330 0.05290 -0.00800
H 	H 	0.57200 0.23190 0.02050 0.10700
H 	H 	0.25250 0.35990 0.66730 -0.00300
H 	H 	0.55820 0.58540 0.80620 0.10100
H 	H 	0.50800 0.59560 0.72570 0.09400
H 	H 	0.01080 0.26960 0.59330 -0.02400
H 	H 	0.81450 0.38190 0.13460 0.03400
H 	H 	0.72420 0.58740 0.10880 0.00500
H 	H 	0.90540 0.30570 0.61100 -0.00900
H 	H 	0.45470 0.31290 0.27290 0.09400
H 	H 	0.44110 0.42560 0.99960 0.02700
H 	H 	0.46790 0.00780 0.59390 0.05500
H 	H 	0.12320 0.45080 0.61790 0.15400
H 	H 	0.35450 0.11360 0.58340 0.03300
H 	H 	0.96790 0.99220 0.90610 0.07800
H 	H 	0.15050 0.34620 0.83360 -0.00400
H 	H 	0.32620 0.44200 0.25430 0.01700
H 	H 	0.80080 0.38500 0.48920 0.16200
H 	H 	0.86670 0.02070 0.57310 0.20300
H 	H 	0.67550 0.74050 0.40180 0.02500
H 	H 	0.42800 0.76810 0.97950 0.10600
H 	H 	0.20350 0.34850 0.74870 0.01600
H 	H 	0.61310 0.52530 0.24420 0.05100
H 	H 	0.08320 0.99400 0.47550 0.20700
H 	H 	0.22850 0.01020 0.00740 0.04900
H 	H 	0.09660 0.76670 0.94710 0.00500
H 	H 	0.62950 0.34550 0.78220 0.05400
H 	H 	0.13330 0.99920 0.56880 0.37500
H 	H 	0.00980 0.66740 0.13990 0.12300
H 	H 	0.82450 0.74050 0.90180 0.02500
H 	H 	0.27150 0.01020 0.50740 0.06700
H 	H 	0.65350 0.41620 0.06520 -0.00700
H 	H 	0.05500 0.84600 0.38510 0.12600
H 	H 	0.91680 0.00600 0.52450 0.20600
H 	H 	0.45140 0.67420 0.96720 0.10600
H 	H 	0.77150 0.98980 0.99260 0.08700
H 	H 	0.77460 0.26000 0.51080 -0.04200
H 	H 	0.63660 0.73020 0.98850 0.03100
H 	H 	0.03620 0.57650 0.14730 0.12600
H 	H 	0.41810 0.64640 0.14270 0.05600
H 	H 	0.33950 0.48080 0.83190 0.05600
H 	H 	0.95120 0.88630 0.07520 0.06500
H 	H 	0.98920 0.73040 0.40670 0.01200
H 	H 	0.37680 0.45080 0.11790 0.15600
H 	H 	0.45690 0.85150 0.97040 -0.03400
H 	H 	0.32450 0.25950 0.59820 0.02400
H 	H 	0.23420 0.70520 0.43750 -0.06500
H 	H 	0.66380 0.87670 0.99730 0.06400
H 	H 	0.49200 0.40440 0.27430 0.09500
H 	H 	0.27340 0.45340 0.17940 -0.00700
H 	H 	0.72660 0.54660 0.82060 -0.00500
H 	H 	0.22660 0.45340 0.67940 -0.00600
H 	H 	0.50980 0.33260 0.36010 0.14900
H 	H 	0.31450 0.61810 0.36540 0.03300
H 	H 	0.37050 0.65450 0.21780 0.05200
H 	H 	0.40540 0.69430 0.88900 -0.00100
H 	H 	0.44420 0.57090 0.06400 0.02600
H 	H 	0.64060 0.11160 0.50770 0.05400
H 	H 	0.00800 0.40440 0.77430 0.09300
H 	H 	0.91810 0.35360 0.35730 0.04700
H 	H 	0.04880 0.11370 0.92480 0.04500
H 	H 	0.36570 0.35510 0.10740 0.15100
H 	H 	0.66690 0.18120 0.10630 0.12000
H 	H 	0.04310 0.85150 0.47040 -0.03700
H 	H 	0.86670 0.00080 0.43120 0.37600
H 	H 	0.54530 0.68710 0.72710 0.09300
H 	H 	0.96380 0.42350 0.85270 0.17000
H 	H 	0.30080 0.61500 0.01080 0.14200
H 	H 	0.63460 0.55920 0.66830 -0.00300
H 	H 	0.29650 0.34850 0.24870 0.01600
H 	H 	0.33110 0.57680 0.96150 0.16400
H 	H 	0.80810 0.37820 0.21680 0.02200
H 	H 	0.46380 0.57650 0.64730 0.15000
H 	H 	0.97000 0.64500 0.00080 0.28000
H 	H 	0.83110 0.42320 0.53850 0.17500
H 	H 	0.84650 0.41620 0.56520 -0.00300
H 	H 	0.08420 0.42990 0.18250 0.00400
H 	H 	0.40570 0.23020 0.46180 -0.02100
H 	H 	0.58190 0.35360 0.85730 0.05800
H 	H 	0.63430 0.64490 0.89260 0.15100
H 	H 	0.88690 0.52530 0.74420 0.04200
H 	H 	0.09460 0.69430 0.38900 0.00700
H 	H 	0.66080 0.13550 0.03250 -0.03800
H 	H 	0.90590 0.67770 0.31260 0.09900
H 	H 	0.59430 0.76980 0.53820 -0.02100
H 	H 	0.44180 0.41460 0.19380 0.10200
H 	H 	0.72080 0.33330 0.07190 0.08500
H 	H 	0.14060 0.88840 0.99230 0.06000
H 	H 	0.36540 0.44080 0.33170 -0.00300
H 	H 	0.86570 0.64490 0.39260 0.15300
H 	H 	0.86340 0.73020 0.48850 0.02200
H 	H 	0.59410 0.67770 0.81260 0.09700
H 	H 	0.41680 0.99400 0.97550 0.21100
H 	H 	0.87680 0.54920 0.38210 0.15800
H 	H 	0.05820 0.41460 0.69380 0.09900
H 	H 	0.41580 0.42990 0.68250 -0.00100
H 	H 	0.19190 0.62180 0.78320 0.02400
H 	H 	0.90570 0.76980 0.03820 -0.02000
H 	H 	0.74750 0.64010 0.33270 -0.00400
H 	H 	0.12950 0.65450 0.71780 0.04400
H 	H 	0.16890 0.57680 0.46150 0.17000
H 	H 	0.11310 0.47470 0.25580 0.06100
H 	H 	0.63330 0.02070 0.07310 0.20300
H 	H 	0.83620 0.87670 0.49730 0.05400
H 	H 	0.54880 0.88630 0.57520 0.05600
H 	H 	0.17380 0.44200 0.75430 0.01700
H 	H 	0.36670 0.97930 0.92690 0.20500
H 	H 	0.03210 0.00780 0.09390 0.03900
H 	H 	0.40340 0.76670 0.44710 -0.00200
H 	H 	0.53000 0.64500 0.50080 0.29300
H 	H 	0.69920 0.38500 0.98920 0.17600
H 	H 	0.27460 0.74000 0.98920 -0.03400
H 	H 	0.33920 0.86450 0.96750 -0.03500
H 	H 	0.18550 0.61810 0.86540 0.03200
H 	H 	0.84950 0.65380 0.16640 0.01000
H 	H 	0.47000 0.35500 0.49920 0.29300
H 	H 	0.13460 0.44080 0.83170 -0.00900
H 	H 	0.66890 0.42320 0.03850 0.18100
H 	H 	0.67380 0.55800 0.74570 0.01900
H 	H 	0.68550 0.38190 0.63460 0.03300
H 	H 	0.86540 0.55920 0.16830 0.00500
H 	H 	0.34950 0.34620 0.33360 0.00100
H 	H 	0.79650 0.65150 0.25130 0.01800
H 	H 	0.55580 0.42910 0.93600 0.02800
H 	H 	0.09430 0.23020 0.96180 -0.02100
H 	H 	0.65050 0.65380 0.66640 0.00300
H 	H 	0.05580 0.57090 0.56400 0.01100
H 	H 	0.58320 0.00600 0.02450 0.20200
H 	H 	0.13660 0.26980 0.51150 0.01700
H 	H 	0.38690 0.47470 0.75580 0.05100
H 	H 	0.07200 0.76810 0.47950 0.09700
H 	H 	0.85450 0.88640 0.91660 0.03500
H 	H 	0.83920 0.13550 0.53250 -0.03800
H 	H 	0.72850 0.98980 0.49260 0.06700
H 	H 	0.22420 0.41260 0.39120 0.00600
H 	H 	0.99020 0.33260 0.86010 0.17000
H 	H 	0.05890 0.42560 0.49960 0.01500
H 	H 	0.70350 0.65150 0.75130 0.01800
H 	H 	0.53620 0.42350 0.35270 0.15000
H 	H 	0.54860 0.32580 0.03280 0.10500
H 	H 	0.16690 0.81880 0.39370 0.11300
H 	H 	0.04530 0.31290 0.77290 0.09400
H 	H 	0.48920 0.26960 0.09330 -0.00900
H 	H 	0.94110 0.57440 0.50040 0.03000
H 	H 	0.09410 0.32230 0.68740 0.09600
H 	H 	0.45120 0.11370 0.42480 0.05600
H 	H 	0.16050 0.48080 0.33190 0.04700
H 	H 	0.95470 0.68710 0.22710 0.09300
H 	H 	0.76580 0.29480 0.56250 -0.07500
H 	H 	0.58420 0.57010 0.31750 -0.00100
H 	H 	0.73420 0.29480 0.06250 -0.07200
H 	H 	0.66050 0.51920 0.16810 0.05600
H 	H 	0.34650 0.58380 0.93480 0.00200
H 	H 	0.13330 0.97930 0.42690 0.20500
H 	H 	0.77340 0.54660 0.32060 -0.00600
H 	H 	0.27920 0.66670 0.92810 0.08700
H 	H 	0.36670 0.99920 0.06880 0.37500
H 	H 	0.94180 0.58540 0.30620 0.10400
H 	H 	0.13430 0.35510 0.60740 0.15000
H 	H 	0.36340 0.26980 0.01150 0.03100
H 	H 	0.26580 0.70520 0.93750 -0.06800
H 	H 	0.72540 0.26000 0.01080 -0.04200
H 	H 	0.82620 0.55800 0.24570 0.01900
H 	H 	0.59660 0.23330 0.55290 -0.00200
H 	H 	0.87050 0.34550 0.28220 0.06200
H 	H 	0.33310 0.81880 0.89370 0.11800
H 	H 	0.62320 0.54920 0.88210 0.15600
H 	H 	0.63330 0.00080 0.93120 0.37700
H 	H 	0.44500 0.84600 0.88510 0.13500
H 	H 	0.14550 0.11360 0.08340 0.03200
H 	H 	0.77920 0.33330 0.57190 0.08700
H 	H 	0.19920 0.61500 0.51080 0.15600
H 	H 	0.95140 0.32580 0.53280 0.11500
H 	H 	0.94420 0.42910 0.43600 0.04300
H 	H 	0.55890 0.57440 0.00040 0.01800
H 	H 	0.64550 0.88640 0.41660 0.03400
H 	H 	0.75250 0.64010 0.83270 -0.00200
H 	H 	0.16380 0.12330 0.50270 0.05100
H 	H 	0.16080 0.86450 0.46750 -0.03600
H 	H 	0.03000 0.35500 0.99920 0.30500
H 	H 	0.15350 0.58380 0.43480 -0.00300
H 	H 	0.69190 0.37820 0.71680 0.02400
H 	H 	0.49020 0.66740 0.63990 0.14900
H 	H 	0.94500 0.15400 0.61490 0.14300
H 	H 	0.83950 0.51920 0.66810 0.06500
H 	H 	0.17550 0.25950 0.09820 0.02400
H 	H 	0.95690 0.14850 0.52960 -0.03500
H 	H 	0.27580 0.41260 0.89120 0.00600
H 	H 	0.22080 0.66670 0.42810 0.08400
H 	H 	0.22540 0.74000 0.48920 -0.03400
H 	H 	0.85940 0.11160 0.00770 0.04600
H 	H 	0.51080 0.73040 0.90670 -0.00600
H 	H 	0.30810 0.62180 0.28320 0.02200
H 	H 	0.24750 0.35990 0.16730 -0.00500
H 	H 	0.92800 0.23190 0.52050 0.11400
H 	H 	0.83310 0.18120 0.60630 0.12400
C 	C 	0.60140 0.54640 0.17837 -0.08200
C 	C 	0.98860 0.40950 0.26189 0.10800
C 	C 	0.46790 0.77810 0.43686 0.09700
C 	C 	0.95780 0.37800 0.33655 -0.04400
C 	C 	0.64770 0.92740 0.53317 0.09100
C 	C 	0.52130 0.00450 0.57310 -0.07000
C 	C 	0.78490 0.38520 0.52130 -0.46000
C 	C 	0.17470 0.00650 0.98680 -0.05200
C 	C 	0.89860 0.54640 0.67837 -0.10700
C 	C 	0.54960 0.07200 0.55403 0.08500
C 	C 	0.92000 0.03920 0.55400 -0.52900
C 	C 	0.20950 0.16290 0.49520 -0.00900
C 	C 	0.06960 0.06720 0.93770 -0.05100
C 	C 	0.08940 0.71940 0.45880 -0.24800
C 	C 	0.57800 0.57630 0.03093 0.00400
C 	C 	0.01750 0.38790 0.86126 -0.46500
C 	C 	0.68030 0.41580 0.52939 0.46200
C 	C 	0.61550 0.62140 0.80310 -0.25000
C 	C 	0.08000 0.96080 0.44600 -0.55000
C 	C 	0.13520 0.61060 0.80017 0.00600
C 	C 	0.82990 0.59470 0.38133 -0.42500
C 	C 	0.59900 0.17900 0.09400 -0.29800
C 	C 	0.54910 0.58370 0.59112 0.45200
C 	C 	0.65910 0.77810 0.52716 0.10500
C 	C 	0.40100 0.82100 0.90600 -0.29400
C 	C 	0.57050 0.37320 0.79207 -0.06800
C 	C 	0.88480 0.76480 0.91280 0.01100
C 	C 	0.32530 0.00650 0.48680 -0.08600
C 	C 	0.02130 0.99550 0.92690 -0.10800
C 	C 	0.80510 0.75710 0.50000 0.01500
C 	C 	0.03210 0.77810 0.93686 0.07200
C 	C 	0.92660 0.55040 0.72375 -0.04100
C 	C 	0.93040 0.93280 0.06230 -0.09600
C 	C 	0.98560 0.57440 0.56541 0.01800
C 	C 	0.39880 0.38760 0.32755 0.12100
C 	C 	0.59700 0.12930 0.04800 0.21200
C 	C 	0.33170 0.41670 0.91054 0.08900
C 	C 	0.39860 0.45360 0.82163 -0.08200
C 	C 	0.58000 0.03920 0.05400 -0.53600
C 	C 	0.42200 0.42370 0.96907 0.00600
C 	C 	0.56200 0.26560 0.08880 0.09300
C 	C 	0.71510 0.38520 0.02130 -0.48200
C 	C 	0.09950 0.15530 0.07960 0.00100
C 	C 	0.86860 0.39120 0.15469 -0.00400
C 	C 	0.95090 0.58370 0.09112 0.45100
C 	C 	0.12400 0.93360 0.97730 -0.08700
C 	C 	0.06200 0.73440 0.41120 0.05000
C 	C 	0.04960 0.92800 0.94597 0.09400
C 	C 	0.04910 0.41630 0.90888 0.45300
C 	C 	0.95720 0.58200 0.64927 0.11600
C 	C 	0.62400 0.06640 0.52270 -0.06900
C 	C 	0.18030 0.58420 0.97061 0.45100
C 	C 	0.11550 0.37860 0.69690 -0.25100
C 	C 	0.04220 0.62200 0.66345 -0.11800
C 	C 	0.86480 0.38940 0.19983 0.01000
C 	C 	0.85230 0.92740 0.03317 0.10700
C 	C 	0.36860 0.60880 0.34531 -0.00400
C 	C 	0.98460 0.58250 0.81938 0.11600
C 	C 	0.88450 0.62140 0.30310 -0.25200
C 	C 	0.57340 0.55040 0.22375 -0.07700
C 	C 	0.45090 0.41630 0.40888 0.45300
C 	C 	0.83920 0.35680 0.55960 -0.07900
C 	C 	0.43380 0.37010 0.27889 -0.23800
C 	C 	0.53210 0.22190 0.56314 0.09700
C 	C 	0.91060 0.28060 0.54120 -0.29100
C 	C 	0.29050 0.16290 0.99520 0.03800
C 	C 	0.30100 0.40050 0.16684 0.13800
C 	C 	0.16080 0.64320 0.44040 -0.07700
C 	C 	0.93380 0.62990 0.22111 -0.22500
C 	C 	0.02130 0.02800 0.57580 0.68500
C 	C 	0.13140 0.60880 0.84531 -0.00300
C 	C 	0.80230 0.30010 0.53450 0.22800
C 	C 	0.34090 0.22190 0.47284 0.10400
C 	C 	0.07340 0.44960 0.27625 -0.11200
C 	C 	0.61520 0.76480 0.41280 0.00800
C 	C 	0.01440 0.42560 0.43459 -0.03800
C 	C 	0.93800 0.26560 0.58880 0.12100
C 	C 	0.54280 0.58200 0.14927 0.08400
C 	C 	0.06620 0.37010 0.77889 -0.24700
C 	C 	0.41060 0.71940 0.95880 -0.26400
C 	C 	0.87600 0.06640 0.02270 -0.05000
C 	C 	0.67010 0.59470 0.88133 -0.42200
C 	C 	0.56620 0.62990 0.72111 -0.23600
C 	C 	0.31970 0.58420 0.47061 0.45800
C 	C 	0.14820 0.38660 0.74584 0.04600
C 	C 	0.07800 0.42370 0.46907 0.01700
C 	C 	0.69770 0.30010 0.03450 0.22500
C 	C 	0.85180 0.61340 0.25416 0.03900
C 	C 	0.95040 0.07200 0.05403 0.07600
C 	C 	0.09700 0.87070 0.45200 0.20600
C 	C 	0.98250 0.61210 0.13874 -0.36300
C 	C 	0.19490 0.24290 0.50000 0.01500
C 	C 	0.45780 0.62200 0.16345 -0.08100
C 	C 	0.42660 0.44960 0.77625 -0.07600
C 	C 	0.66830 0.58330 0.08946 0.08800
C 	C 	0.25530 0.41650 0.58695 0.47000
C 	C 	0.75530 0.58350 0.91305 0.46900
C 	C 	0.59950 0.84470 0.42040 0.00400
C 	C 	0.82530 0.99350 0.01320 -0.11700
C 	C 	0.10140 0.45360 0.32163 -0.05600
C 	C 	0.42000 0.96080 0.94600 -0.53700
C 	C 	0.90050 0.84470 0.92040 0.00700
C 	C 	0.48560 0.42560 0.93459 -0.00900
C 	C 	0.54220 0.37800 0.83655 -0.08100
C 	C 	0.24470 0.41650 0.08695 0.47200
C 	C 	0.35230 0.07260 0.46683 0.09200
C 	C 	0.45040 0.92800 0.44597 0.08300
C 	C 	0.45720 0.41800 0.85073 0.08500
C 	C 	0.47870 0.02800 0.07580 0.69300
C 	C 	0.83170 0.58330 0.58946 0.09000
C 	C 	0.51540 0.58250 0.31938 0.09300
C 	C 	0.48250 0.38790 0.36126 -0.41900
C 	C 	0.30510 0.24290 -0.00000 -0.02700
C 	C 	0.11520 0.23520 0.08720 0.00600
C 	C 	0.63140 0.39120 0.65469 -0.00300
C 	C 	0.09900 0.82100 0.40600 -0.27900
C 	C 	0.66080 0.35680 0.05960 -0.07200
C 	C 	0.42950 0.62680 0.20793 -0.06800
C 	C 	0.07050 0.62680 0.70793 -0.04300
C 	C 	0.90300 0.12930 0.54800 0.21500
C 	C 	0.37600 0.93360 0.47730 -0.06700
C 	C 	0.19900 0.40050 0.66684 0.13400
C 	C 	0.84090 0.77810 0.02716 0.10400
C 	C 	0.33920 0.64320 0.94040 -0.08400
C 	C 	0.92200 0.57630 0.53093 -0.00700
C 	C 	0.79050 0.83710 0.50480 -0.00800
C 	C 	0.40300 0.87070 0.95200 0.20900
C 	C 	0.56960 0.93280 0.56230 -0.07600
C 	C 	0.40050 0.15530 0.57960 0.00400
C 	C 	0.36480 0.61060 0.30017 0.00800
C 	C 	0.01140 0.59050 0.73811 0.05000
C 	C 	0.15910 0.22190 0.97284 0.10500
C 	C 	0.70950 0.83710 0.00480 -0.02200
C 	C 	0.32990 0.40530 0.11867 -0.42500
C 	C 	0.64820 0.61340 0.75416 0.04100
C 	C 	0.28490 0.61480 0.97870 -0.42200
C 	C 	0.30230 0.69990 0.96550 0.20500
C 	C 	0.38480 0.23520 0.58720 0.00800
C 	C 	0.43800 0.73440 0.91120 0.08500
C 	C 	0.97870 0.00450 0.07310 -0.04100
C 	C 	0.97870 0.97200 0.42420 0.70700
C 	C 	0.89880 0.61240 0.17245 0.09500
C 	C 	0.43040 0.06720 0.43770 -0.07900
C 	C 	0.69490 0.75710 -0.00000 0.00100
C 	C 	0.17010 0.40530 0.61867 -0.42200
C 	C 	0.81970 0.41580 0.02939 0.46800
C 	C 	0.69900 0.59950 0.83316 0.13400
C 	C 	0.04280 0.41800 0.35073 0.05300
C 	C 	0.01540 0.41750 0.18062 0.07000
C 	C 	0.60120 0.61240 0.67245 0.11900
C 	C 	0.67470 0.99350 0.51320 -0.08300
C 	C 	0.63520 0.38940 0.69983 0.00800
C 	C 	0.48460 0.41750 0.68062 0.09300
C 	C 	0.38450 0.37860 0.19690 -0.25300
C 	C 	0.19770 0.69990 0.46550 0.20000
C 	C 	0.48860 0.59050 0.23811 0.07800
C 	C 	0.51140 0.40950 0.76189 0.07800
C 	C 	0.52130 0.97200 0.92420 0.69500
C 	C 	0.10120 0.38760 0.82755 0.14100
C 	C 	0.35180 0.38660 0.24584 0.04400
C 	C 	0.21510 0.61480 0.47870 -0.44500
C 	C 	0.90100 0.17900 0.59400 -0.31000
C 	C 	0.14770 0.07260 0.96683 0.07500
C 	C 	0.47870 0.99550 0.42690 -0.06700
C 	C 	0.58940 0.28060 0.04120 -0.27900
C 	C 	0.51750 0.61210 0.63874 -0.41800
C 	C 	0.51440 0.57440 0.06541 -0.01200
C 	C 	0.74470 0.58350 0.41305 0.47100
C 	C 	0.16830 0.41670 0.41054 0.08600
C 	C 	0.92950 0.37320 0.29207 -0.09400
C 	C 	0.96790 0.22190 0.06314 0.11800
C 	C 	0.80100 0.59950 0.33316 0.13800
N 	N 	0.03240 0.27700 0.07694 -0.23300
N 	N 	0.67410 0.58150 0.04603 -0.22100
N 	N 	0.57390 0.57860 0.10363 -0.13600
N 	N 	0.30260 0.14870 0.47751 -0.13600
N 	N 	0.69740 0.85130 0.52249 -0.13500
N 	N 	0.49740 0.14630 0.56498 -0.13600
N 	N 	0.32590 0.41850 0.95397 -0.21800
N 	N 	0.04230 0.59350 0.78392 -0.14100
N 	N 	0.19740 0.14870 0.97751 -0.13800
N 	N 	0.46440 0.59110 0.35678 -0.21600
N 	N 	0.42610 0.42140 0.89637 -0.13600
N 	N 	0.54230 0.40650 0.71608 -0.13700
N 	N 	0.46760 0.27700 0.57694 -0.22400
N 	N 	0.00260 0.14630 0.06498 -0.14600
N 	N 	0.53240 0.72300 0.42306 -0.22400
N 	N 	0.96760 0.72300 0.92306 -0.21300
N 	N 	0.95770 0.40650 0.21608 -0.13400
N 	N 	0.07390 0.42140 0.39637 -0.12800
N 	N 	0.72160 0.72000 0.51473 -0.22400
N 	N 	0.50260 0.85370 0.43502 -0.13600
N 	N 	0.99740 0.85370 0.93502 -0.12400
N 	N 	0.22160 0.28000 0.98527 -0.21300
N 	N 	0.96440 0.40890 0.14322 -0.20500
N 	N 	0.82590 0.58150 0.54603 -0.21800
N 	N 	0.77840 0.72000 0.01473 -0.22400
N 	N 	0.92610 0.57860 0.60363 -0.14400
N 	N 	0.03560 0.59110 0.85678 -0.22700
N 	N 	0.45770 0.59350 0.28392 -0.13700
N 	N 	0.53560 0.40890 0.64322 -0.21600
N 	N 	0.27840 0.28000 0.48527 -0.22400
N 	N 	0.80260 0.85130 0.02249 -0.13700
N 	N 	0.17410 0.41850 0.45397 -0.22100
O 	O 	0.60000 0.97200 0.94320 -0.72800
O 	O 	0.15880 0.42030 0.10252 -0.45700
O 	O 	0.62930 0.38520 0.55822 -0.45700
O 	O 	0.64930 0.47002 0.50623 -0.54000
O 	O 	0.49950 0.02530 0.11180 -0.43400
O 	O 	0.76960 0.57900 0.45302 -0.45400
O 	O 	0.99500 0.46998 0.93106 -0.52300
O 	O 	0.49500 0.53002 0.56894 -0.53400
O 	O 	0.87070 0.38520 0.05822 -0.45500
O 	O 	0.00500 0.53002 0.06894 -0.54300
O 	O 	0.37530 0.38500 0.42380 -0.45000
O 	O 	0.55700 0.60555 0.48637 -0.80300
O 	O 	0.44300 0.39445 0.51363 -0.80300
O 	O 	0.00050 0.02530 0.61180 -0.43600
O 	O 	0.23040 0.42100 0.54698 -0.45500
O 	O 	0.05700 0.39445 0.01363 -0.82100
O 	O 	0.50500 0.46998 0.43106 -0.53400
O 	O 	0.87530 0.61500 0.07620 -0.44800
O 	O 	0.50050 0.97470 0.88820 -0.43300
O 	O 	0.26960 0.42100 0.04698 -0.45900
O 	O 	0.37070 0.61480 0.44178 -0.45600
O 	O 	0.35070 0.52998 0.49377 -0.53900
O 	O 	0.65880 0.57970 0.39748 -0.45600
O 	O 	0.62470 0.61500 0.57620 -0.44900
O 	O 	0.40000 0.02800 0.05680 -0.73100
O 	O 	0.73040 0.57900 0.95302 -0.44900
O 	O 	0.10000 0.02800 0.55680 -0.72900
O 	O 	0.94300 0.60555 0.98637 -0.78100
O 	O 	0.34120 0.42030 0.60252 -0.45600
O 	O 	0.84120 0.57970 0.89748 -0.45400
O 	O 	0.90000 0.97200 0.44320 -0.73100
O 	O 	0.12470 0.38500 0.92380 -0.45000
O 	O 	0.85070 0.47002 0.00623 -0.54400
O 	O 	0.14930 0.52998 0.99377 -0.53200
O 	O 	0.12930 0.61480 0.94178 -0.45700
O 	O 	0.99950 0.97470 0.38820 -0.43000
