data_crystal

_cell_length_a 18.86100
_cell_length_b 20.01900
_cell_length_c 20.01900
_cell_angle_alpha 90.00000
_cell_angle_beta  90.00000
_cell_angle_gamma 90.00000

_symmetry_space_group_name_	'P 1'
_symmetry_space_group_name_H-M	'P 1'

loop_
_symmetry_equiv_pos_as_xyz
  x,y,z

loop_
_atom_site_label
_atom_site_type_symbol
_atom_site_fract_x
_atom_site_fract_y
_atom_site_fract_z
_atom_site_charge
Mn	Mn	0.44591 0.21578 0.16469 1.25700
Mn	Mn	0.75000 0.79018 0.29018 1.29000
Mn	Mn	0.84803 0.71013 0.71956 1.26600
Mn	Mn	0.22484 0.92140 0.79369 1.24600
Mn	Mn	0.94707 0.29598 0.44822 1.25300
Mn	Mn	0.27516 0.29369 0.42140 1.24600
Mn	Mn	0.55293 0.05178 0.20402 1.25300
Mn	Mn	0.05293 0.44822 0.70402 1.25300
Mn	Mn	0.37950 0.42806 0.76829 1.26000
Mn	Mn	0.94591 0.71578 0.33531 1.25700
Mn	Mn	0.27516 0.70631 0.57860 1.24600
Mn	Mn	0.62050 0.23171 0.42806 1.26000
Mn	Mn	0.34803 0.21013 0.78044 1.26600
Mn	Mn	0.44591 0.78422 0.83531 1.25700
Mn	Mn	0.05409 0.66469 0.71578 1.25700
Mn	Mn	0.77516 0.79369 0.07860 1.24600
Mn	Mn	0.84803 0.28987 0.28044 1.26600
Mn	Mn	0.25000 0.29018 0.20982 1.29000
Mn	Mn	0.37950 0.57194 0.23171 1.26000
Mn	Mn	0.87950 0.92806 0.73171 1.26000
Mn	Mn	0.72484 0.42140 0.70631 1.24600
Mn	Mn	0.15197 0.28044 0.71013 1.26600
Mn	Mn	0.75000 0.20982 0.70982 1.29000
Mn	Mn	0.87950 0.07194 0.26829 1.26000
Mn	Mn	0.65197 0.21956 0.21013 1.26500
Mn	Mn	0.15197 0.71956 0.28987 1.26500
Mn	Mn	0.12050 0.26829 0.92806 1.25900
Mn	Mn	0.34803 0.78987 0.21956 1.26500
Mn	Mn	0.22484 0.07860 0.20631 1.24500
Mn	Mn	0.94707 0.70402 0.55178 1.25200
Mn	Mn	0.44707 0.79598 0.05178 1.25200
Mn	Mn	0.77516 0.20631 0.92140 1.24500
Mn	Mn	0.72484 0.57860 0.29369 1.24500
Mn	Mn	0.55293 0.94822 0.79598 1.25200
Mn	Mn	0.55409 0.16469 0.78422 1.25600
Mn	Mn	0.94591 0.28422 0.66469 1.25600
Mn	Mn	0.25000 0.70982 0.79018 1.28900
Mn	Mn	0.62050 0.76829 0.57194 1.25900
Mn	Mn	0.55409 0.83531 0.21578 1.25600
Mn	Mn	0.12050 0.73171 0.07194 1.25900
Mn	Mn	0.05409 0.33531 0.28422 1.25600
Mn	Mn	0.65197 0.78044 0.78987 1.26500
Mn	Mn	0.05293 0.55178 0.29598 1.25200
Mn	Mn	0.44707 0.20402 0.94822 1.25200
H 	H 	0.25410 0.68440 0.22040 0.26900
H 	H 	0.74590 0.77960 0.68440 0.26900
H 	H 	0.25410 0.31560 0.77960 0.26900
H 	H 	0.24590 0.72040 0.18440 0.26900
H 	H 	0.24590 0.27960 0.81560 0.26900
H 	H 	0.75410 0.81560 0.72040 0.26900
H 	H 	0.75410 0.18440 0.27960 0.26900
H 	H 	0.74590 0.22040 0.31560 0.26900
C 	C 	0.21140 0.42750 0.74190 0.36000
C 	C 	0.09920 0.30660 0.50190 -0.06000
C 	C 	0.58770 0.65030 0.24840 -0.07000
C 	C 	0.74350 0.05650 0.73960 -0.06800
C 	C 	0.75650 0.76040 0.44350 -0.06800
C 	C 	0.70120 0.99960 0.24450 -0.07000
C 	C 	0.90080 0.50190 0.69340 -0.06000
C 	C 	0.51710 0.65030 0.23550 -0.06400
C 	C 	0.85620 0.75310 0.20390 0.35900
C 	C 	0.91230 0.25160 0.84970 -0.07000
C 	C 	0.28860 0.24190 0.92750 0.36000
C 	C 	0.31760 0.43110 0.21250 0.38100
C 	C 	0.28860 0.75810 0.07250 0.36000
C 	C 	0.96030 0.79970 0.72610 0.33100
C 	C 	0.91230 0.74840 0.15030 -0.07000
C 	C 	0.85720 0.55580 0.70120 -0.05100
C 	C 	0.81760 0.06890 0.71250 0.38100
C 	C 	0.03970 0.72610 0.20030 0.33100
C 	C 	0.20120 0.50040 0.74450 -0.07000
C 	C 	0.58770 0.34970 0.75160 -0.07000
C 	C 	0.25650 0.73960 0.94350 -0.06800
C 	C 	0.78860 0.74190 0.57250 0.36000
C 	C 	0.68240 0.78750 0.43110 0.38100
C 	C 	0.14280 0.70120 0.44420 -0.05100
C 	C 	0.29880 0.75550 0.99960 -0.07000
C 	C 	0.27800 0.07040 0.79680 0.34300
C 	C 	0.89240 0.57180 0.32000 0.38600
C 	C 	0.40080 0.00190 0.80660 -0.06000
C 	C 	0.40080 0.99810 0.19340 -0.06000
C 	C 	0.60760 0.18000 0.92820 0.38600
C 	C 	0.27800 0.92960 0.20320 0.34300
C 	C 	0.85720 0.44420 0.29880 -0.05100
C 	C 	0.18240 0.71250 0.93110 0.38100
C 	C 	0.68240 0.21250 0.56890 0.38100
C 	C 	0.96030 0.20030 0.27390 0.33100
C 	C 	0.79880 0.74450 0.49960 -0.07000
C 	C 	0.22200 0.70320 0.42960 0.34300
C 	C 	0.59920 0.19340 0.00190 -0.06000
C 	C 	0.25650 0.26040 0.05650 -0.06800
C 	C 	0.10760 0.68000 0.57180 0.38600
C 	C 	0.29880 0.24450 0.00040 -0.07000
C 	C 	0.77800 0.57040 0.70320 0.34300
C 	C 	0.39240 0.07180 0.18000 0.38600
C 	C 	0.90080 0.49810 0.30660 -0.06000
C 	C 	0.35620 0.25310 0.29610 0.35900
C 	C 	0.77800 0.42960 0.29680 0.34300
C 	C 	0.59920 0.80660 0.99810 -0.06000
C 	C 	0.72200 0.20320 0.07040 0.34300
C 	C 	0.74350 0.94350 0.26040 -0.06800
C 	C 	0.60760 0.82000 0.07180 0.38600
C 	C 	0.64280 0.79880 0.94420 -0.05100
C 	C 	0.03970 0.27390 0.79970 0.33100
C 	C 	0.79880 0.25550 0.50040 -0.07000
C 	C 	0.64280 0.20120 0.05580 -0.05100
C 	C 	0.35720 0.94420 0.20120 -0.05100
C 	C 	0.64380 0.29610 0.74690 0.35900
C 	C 	0.35720 0.05580 0.79880 -0.05100
C 	C 	0.70120 0.00040 0.75550 -0.07000
C 	C 	0.48290 0.23550 0.34970 -0.06400
C 	C 	0.14380 0.79610 0.75310 0.35900
C 	C 	0.85620 0.24690 0.79610 0.35900
C 	C 	0.48290 0.76450 0.65030 -0.06400
C 	C 	0.41230 0.75160 0.65030 -0.07000
C 	C 	0.24350 0.55650 0.76040 -0.06800
C 	C 	0.71140 0.07250 0.24190 0.36000
C 	C 	0.75650 0.23960 0.55650 -0.06800
C 	C 	0.98290 0.73550 0.15030 -0.06400
C 	C 	0.08770 0.84970 0.74840 -0.07000
C 	C 	0.51710 0.34970 0.76450 -0.06400
C 	C 	0.81760 0.93110 0.28750 0.38100
C 	C 	0.08770 0.15030 0.25160 -0.07000
C 	C 	0.89240 0.42820 0.68000 0.38600
C 	C 	0.09920 0.69340 0.49810 -0.06000
C 	C 	0.24350 0.44350 0.23960 -0.06800
C 	C 	0.46030 0.70030 0.22610 0.33100
C 	C 	0.98290 0.26450 0.84970 -0.06400
C 	C 	0.22200 0.29680 0.57040 0.34300
C 	C 	0.10760 0.32000 0.42820 0.38600
C 	C 	0.14280 0.29880 0.55580 -0.05100
C 	C 	0.35620 0.74690 0.70390 0.35900
C 	C 	0.71140 0.92750 0.75810 0.36000
C 	C 	0.53970 0.22610 0.29970 0.33100
C 	C 	0.14380 0.20390 0.24690 0.35900
C 	C 	0.64380 0.70390 0.25310 0.35900
C 	C 	0.46030 0.29970 0.77390 0.33100
C 	C 	0.18240 0.28750 0.06890 0.38100
C 	C 	0.21140 0.57250 0.25810 0.36000
C 	C 	0.78860 0.25810 0.42750 0.36000
C 	C 	0.39240 0.92820 0.82000 0.38600
C 	C 	0.01710 0.84970 0.73550 -0.06400
C 	C 	0.72200 0.79680 0.92960 0.34300
C 	C 	0.01710 0.15030 0.26450 -0.06400
C 	C 	0.53970 0.77390 0.70030 0.33100
C 	C 	0.20120 0.49960 0.25550 -0.07000
C 	C 	0.31760 0.56890 0.78750 0.38100
C 	C 	0.41230 0.24840 0.34970 -0.07000
N 	N 	0.39970 0.88890 0.21070 -0.20700
N 	N 	0.50510 0.76120 0.58560 -0.20000
N 	N 	0.46840 0.97560 0.19540 -0.19000
N 	N 	0.05270 0.95230 0.74980 -0.07800
N 	N 	0.72870 0.96980 0.93180 -0.09400
N 	N 	0.59560 0.35420 0.94340 -0.11000
N 	N 	0.96560 0.59050 0.70620 -0.19100
N 	N 	0.90440 0.55660 0.14580 -0.11000
N 	N 	0.60030 0.21070 0.11110 -0.20700
N 	N 	0.86290 0.27380 0.52530 -0.18300
N 	N 	0.00510 0.73880 0.08560 -0.20000
N 	N 	0.36290 0.77380 0.97470 -0.18400
N 	N 	0.94730 0.74980 0.04770 -0.07800
N 	N 	0.41610 0.10170 0.94760 -0.21000
N 	N 	0.00510 0.26120 0.91440 -0.20000
N 	N 	0.99490 0.08560 0.26120 -0.20000
N 	N 	0.58390 0.94760 0.89830 -0.21000
N 	N 	0.77130 0.43180 0.46980 -0.09300
N 	N 	0.22870 0.53020 0.43180 -0.09300
N 	N 	0.22870 0.46980 0.56820 -0.09300
N 	N 	0.96840 0.52440 0.69540 -0.19000
N 	N 	0.47180 0.93760 0.67010 -0.06500
N 	N 	0.47180 0.06240 0.32990 -0.06500
N 	N 	0.46560 0.09050 0.79380 -0.19100
N 	N 	0.13710 0.52530 0.72620 -0.18300
N 	N 	0.10030 0.28930 0.61110 -0.20700
N 	N 	0.97180 0.43760 0.82990 -0.06500
N 	N 	0.60860 0.41380 0.74220 -0.18600
N 	N 	0.84730 0.41390 0.46940 -0.06600
N 	N 	0.03160 0.30460 0.52440 -0.19000
N 	N 	0.60860 0.58620 0.25780 -0.18600
N 	N 	0.08390 0.44760 0.60170 -0.21000
N 	N 	0.91610 0.39830 0.44760 -0.21000
N 	N 	0.52820 0.67010 0.06240 -0.06500
N 	N 	0.60030 0.78930 0.88890 -0.20700
N 	N 	0.96990 0.80920 0.56940 -0.21600
N 	N 	0.40440 0.94340 0.64580 -0.11000
N 	N 	0.96840 0.47560 0.30460 -0.19000
N 	N 	0.44730 0.24980 0.45230 -0.07800
N 	N 	0.63950 0.90880 0.23200 -0.18200
N 	N 	0.10860 0.08620 0.24220 -0.18600
N 	N 	0.94730 0.25020 0.95230 -0.07800
N 	N 	0.79660 0.24600 0.61050 -0.16900
N 	N 	0.63710 0.02530 0.77380 -0.18400
N 	N 	0.34730 0.91390 0.03060 -0.06600
N 	N 	0.34730 0.08610 0.96940 -0.06600
N 	N 	0.99490 0.91440 0.73880 -0.20000
N 	N 	0.46990 0.69080 0.06940 -0.21700
N 	N 	0.03440 0.70620 0.40950 -0.19100
N 	N 	0.03160 0.69540 0.47560 -0.19000
N 	N 	0.89140 0.75780 0.08620 -0.18600
N 	N 	0.08390 0.55240 0.39830 -0.21000
N 	N 	0.46990 0.30920 0.93060 -0.21700
N 	N 	0.86050 0.73200 0.40880 -0.18200
N 	N 	0.53010 0.06940 0.30920 -0.21700
N 	N 	0.84730 0.58610 0.53060 -0.06600
N 	N 	0.49490 0.41440 0.76120 -0.20000
N 	N 	0.05270 0.04770 0.25020 -0.07800
N 	N 	0.03440 0.29380 0.59050 -0.19100
N 	N 	0.96990 0.19080 0.43060 -0.21600
N 	N 	0.29660 0.74600 0.88950 -0.16900
N 	N 	0.02820 0.82990 0.56240 -0.06500
N 	N 	0.27130 0.06820 0.96980 -0.09400
N 	N 	0.55270 0.54770 0.24980 -0.07800
N 	N 	0.36290 0.22620 0.02530 -0.18400
N 	N 	0.77130 0.56820 0.53020 -0.09300
N 	N 	0.55270 0.45230 0.75020 -0.07800
N 	N 	0.02820 0.17010 0.43760 -0.06500
N 	N 	0.39140 0.74220 0.58620 -0.18600
N 	N 	0.52820 0.32990 0.93760 -0.06500
N 	N 	0.10030 0.71070 0.38890 -0.20700
N 	N 	0.46840 0.02440 0.80460 -0.19000
N 	N 	0.70340 0.88950 0.25400 -0.16900
N 	N 	0.97180 0.56240 0.17010 -0.06500
N 	N 	0.91610 0.60170 0.55240 -0.21000
N 	N 	0.70340 0.11050 0.74600 -0.16900
N 	N 	0.03010 0.56940 0.19080 -0.21600
N 	N 	0.89970 0.38890 0.28930 -0.20700
N 	N 	0.89140 0.24220 0.91380 -0.18600
N 	N 	0.36050 0.76800 0.90880 -0.18200
N 	N 	0.86050 0.26800 0.59120 -0.18200
N 	N 	0.03010 0.43060 0.80920 -0.21600
N 	N 	0.53010 0.93060 0.69080 -0.21700
N 	N 	0.65270 0.03060 0.08610 -0.06600
N 	N 	0.27130 0.93180 0.03020 -0.09400
N 	N 	0.20340 0.61050 0.75400 -0.16900
N 	N 	0.39970 0.11110 0.78930 -0.20700
N 	N 	0.46560 0.90950 0.20620 -0.19100
N 	N 	0.59560 0.64580 0.05660 -0.11000
N 	N 	0.90440 0.44340 0.85420 -0.11000
N 	N 	0.79660 0.75400 0.38950 -0.16900
N 	N 	0.39140 0.25780 0.41380 -0.18600
N 	N 	0.29660 0.25400 0.11050 -0.16900
N 	N 	0.40440 0.05660 0.35420 -0.11000
N 	N 	0.63950 0.09120 0.76800 -0.18200
N 	N 	0.49490 0.58560 0.23880 -0.20000
N 	N 	0.65270 0.96940 0.91390 -0.06600
N 	N 	0.20340 0.38950 0.24600 -0.16900
N 	N 	0.86290 0.72620 0.47470 -0.18300
N 	N 	0.89970 0.61110 0.71070 -0.20700
N 	N 	0.96560 0.40950 0.29380 -0.19100
N 	N 	0.53160 0.19540 0.02440 -0.19000
N 	N 	0.53440 0.20620 0.09050 -0.19100
N 	N 	0.44730 0.75020 0.54770 -0.07800
N 	N 	0.09560 0.14580 0.44340 -0.11000
N 	N 	0.15270 0.53060 0.41390 -0.06600
N 	N 	0.13710 0.47470 0.27380 -0.18300
N 	N 	0.72870 0.03020 0.06820 -0.09400
N 	N 	0.50510 0.23880 0.41440 -0.20000
N 	N 	0.10860 0.91380 0.75780 -0.18600
N 	N 	0.58390 0.05240 0.10170 -0.21000
N 	N 	0.53440 0.79380 0.90950 -0.19100
N 	N 	0.13950 0.59120 0.73200 -0.18200
N 	N 	0.63710 0.97470 0.22620 -0.18400
N 	N 	0.09560 0.85420 0.55660 -0.11000
N 	N 	0.13950 0.40880 0.26800 -0.18200
N 	N 	0.15270 0.46940 0.58610 -0.06600
N 	N 	0.53160 0.80460 0.97560 -0.19000
N 	N 	0.36050 0.23200 0.09120 -0.18200
N 	N 	0.41610 0.89830 0.05240 -0.21000
O 	O 	0.10390 0.27190 0.82140 -0.54900
O 	O 	0.70380 0.68620 0.27660 -0.56700
O 	O 	0.94860 0.39480 0.67670 -0.56100
O 	O 	0.82900 0.12650 0.69370 -0.44400
O 	O 	0.89610 0.17860 0.27190 -0.54900
O 	O 	0.76600 0.80100 0.97470 -0.48300
O 	O 	0.39610 0.32140 0.77190 -0.54900
O 	O 	0.70380 0.31380 0.72340 -0.56700
O 	O 	0.73010 0.75670 0.59740 -0.50100
O 	O 	0.20380 0.81380 0.77660 -0.56700
O 	O 	0.25000 0.72630 0.22630 -0.82500
O 	O 	0.25000 0.27370 0.77370 -0.82500
O 	O 	0.73400 0.47470 0.30100 -0.48300
O 	O 	0.73730 0.78880 0.86730 -0.42300
O 	O 	0.63190 0.76130 0.23640 -0.54000
O 	O 	0.76600 0.19900 0.02530 -0.48300
O 	O 	0.33230 0.09600 0.17390 -0.49000
O 	O 	0.66770 0.17390 0.90400 -0.49000
O 	O 	0.32900 0.62650 0.80630 -0.44400
O 	O 	0.60390 0.22810 0.32140 -0.54900
O 	O 	0.63190 0.23870 0.76360 -0.54000
O 	O 	0.89610 0.82140 0.72810 -0.54900
O 	O 	0.86810 0.26360 0.73870 -0.54000
O 	O 	0.20380 0.18620 0.22340 -0.56700
O 	O 	0.26270 0.13270 0.78880 -0.42300
O 	O 	0.34340 0.77420 0.10780 -0.54100
O 	O 	0.16770 0.32610 0.40400 -0.49000
O 	O 	0.15660 0.60780 0.27420 -0.54100
O 	O 	0.26990 0.59740 0.24330 -0.50100
O 	O 	0.86290 0.97600 0.28550 -0.52600
O 	O 	0.63710 0.21450 0.52400 -0.52500
O 	O 	0.44860 0.89480 0.82330 -0.56100
O 	O 	0.36810 0.76360 0.76130 -0.54000
O 	O 	0.79620 0.77660 0.18620 -0.56700
O 	O 	0.29620 0.72340 0.68620 -0.56700
O 	O 	0.84340 0.72580 0.60780 -0.54100
O 	O 	0.26600 0.69900 0.47470 -0.48300
O 	O 	0.67100 0.19370 0.62650 -0.44400
O 	O 	0.13190 0.73870 0.73640 -0.54000
O 	O 	0.65660 0.10780 0.22580 -0.54100
O 	O 	0.86810 0.73640 0.26130 -0.54000
O 	O 	0.26600 0.30100 0.52530 -0.48300
O 	O 	0.55140 0.82330 0.10520 -0.56100
O 	O 	0.97050 0.73900 0.71560 -0.58600
O 	O 	0.76270 0.36730 0.28880 -0.42300
O 	O 	0.23730 0.71120 0.36730 -0.42300
O 	O 	0.83230 0.40400 0.67390 -0.49000
O 	O 	0.17100 0.69370 0.87350 -0.44400
O 	O 	0.47050 0.23900 0.78440 -0.58600
O 	O 	0.60390 0.77190 0.67860 -0.54900
O 	O 	0.73400 0.52530 0.69900 -0.48300
O 	O 	0.02950 0.28440 0.73900 -0.58600
O 	O 	0.05140 0.67670 0.60520 -0.56100
O 	O 	0.33230 0.90400 0.82610 -0.49000
O 	O 	0.76270 0.63270 0.71120 -0.42300
O 	O 	0.67100 0.80630 0.37350 -0.44400
O 	O 	0.23730 0.28880 0.63270 -0.42300
O 	O 	0.16770 0.67390 0.59600 -0.49000
O 	O 	0.17100 0.30630 0.12650 -0.44400
O 	O 	0.79620 0.22340 0.81380 -0.56700
O 	O 	0.23400 0.97470 0.19900 -0.48300
O 	O 	0.23010 0.25670 0.90260 -0.50100
O 	O 	0.02950 0.71560 0.26100 -0.58600
O 	O 	0.73010 0.24330 0.40260 -0.50100
O 	O 	0.63710 0.78550 0.47600 -0.52500
O 	O 	0.52950 0.78440 0.76100 -0.58600
O 	O 	0.23400 0.02530 0.80100 -0.48300
O 	O 	0.52950 0.21560 0.23900 -0.58600
O 	O 	0.36810 0.23640 0.23870 -0.54000
O 	O 	0.39610 0.67860 0.22810 -0.54900
O 	O 	0.75000 0.77370 0.72630 -0.82500
O 	O 	0.83230 0.59600 0.32610 -0.49000
O 	O 	0.84340 0.27420 0.39220 -0.54100
O 	O 	0.26990 0.40260 0.75670 -0.50100
O 	O 	0.26270 0.86730 0.21120 -0.42300
O 	O 	0.76990 0.90260 0.74330 -0.50100
O 	O 	0.36290 0.47600 0.21450 -0.52500
O 	O 	0.15660 0.39220 0.72580 -0.54100
O 	O 	0.65660 0.89220 0.77420 -0.54100
O 	O 	0.34340 0.22580 0.89220 -0.54100
O 	O 	0.44860 0.10520 0.17670 -0.56100
O 	O 	0.66770 0.82610 0.09600 -0.49000
O 	O 	0.82900 0.87350 0.30630 -0.44400
O 	O 	0.47050 0.76100 0.21560 -0.58600
O 	O 	0.55140 0.17670 0.89480 -0.56100
O 	O 	0.36290 0.52400 0.78550 -0.52500
O 	O 	0.13190 0.26130 0.26360 -0.54000
O 	O 	0.86290 0.02400 0.71450 -0.52600
O 	O 	0.32900 0.37350 0.19370 -0.44400
O 	O 	0.75000 0.22630 0.27370 -0.82500
O 	O 	0.10390 0.72810 0.17860 -0.54900
O 	O 	0.29620 0.27660 0.31380 -0.56700
O 	O 	0.13710 0.28550 0.02400 -0.52600
O 	O 	0.05140 0.32330 0.39480 -0.56100
O 	O 	0.94860 0.60520 0.32330 -0.56100
O 	O 	0.23010 0.74330 0.09740 -0.50100
O 	O 	0.73730 0.21120 0.13270 -0.42300
O 	O 	0.97050 0.26100 0.28440 -0.58600
O 	O 	0.76990 0.09740 0.25670 -0.50100
O 	O 	0.13710 0.71450 0.97600 -0.52600
