data_crystal

_cell_length_a 12.31400
_cell_length_b 14.98600
_cell_length_c 26.34930
_cell_angle_alpha 90.00000
_cell_angle_beta  99.81670
_cell_angle_gamma 90.00000

_symmetry_space_group_name_	'P 1'
_symmetry_space_group_name_H-M	'P 1'

loop_
_symmetry_equiv_pos_as_xyz
  x,y,z

loop_
_atom_site_label
_atom_site_type_symbol
_atom_site_fract_x
_atom_site_fract_y
_atom_site_fract_z
_atom_site_charge
Zn	Zn	0.13216 0.97707 0.13778 1.23400
Zn	Zn	0.99281 0.15676 0.77602 1.17600
Zn	Zn	0.36784 0.47707 0.36222 1.23600
Zn	Zn	0.63216 0.52293 0.63778 1.23600
Zn	Zn	0.49281 0.34324 0.27602 1.17700
Zn	Zn	0.50719 0.65676 0.72398 1.17700
Zn	Zn	0.86784 0.02293 0.86222 1.23400
Zn	Zn	0.00719 0.84324 0.22398 1.17600
H 	H 	0.23390 0.24790 0.89740 0.03300
H 	H 	0.76610 0.75210 0.10260 0.03300
H 	H 	0.63360 0.77870 0.95340 0.04200
H 	H 	0.89110 0.93130 0.01540 0.04300
H 	H 	0.79660 0.12500 0.54090 0.04800
H 	H 	0.77960 0.81580 0.74820 0.02400
H 	H 	0.97420 0.96600 0.67420 0.02600
H 	H 	0.13360 0.72130 0.45340 0.04100
H 	H 	0.17700 0.99910 0.41130 0.05000
H 	H 	0.84170 0.73820 0.61030 0.04700
H 	H 	0.44240 0.25730 0.90250 0.06500
H 	H 	0.34170 0.76180 0.11030 0.04600
H 	H 	0.73390 0.25210 0.39740 0.03300
H 	H 	0.67700 0.50090 0.91130 0.04700
H 	H 	0.72040 0.31580 0.75180 0.02400
H 	H 	0.94240 0.24270 0.40250 0.06600
H 	H 	0.39110 0.56870 0.51540 0.04300
H 	H 	0.20340 0.87500 0.45910 0.04800
H 	H 	0.29660 0.37500 0.04090 0.04900
H 	H 	0.36640 0.22130 0.04660 0.04200
H 	H 	0.86640 0.27870 0.54660 0.04100
H 	H 	0.65830 0.23820 0.88970 0.04600
H 	H 	0.82300 0.00090 0.58870 0.05000
H 	H 	0.22040 0.18420 0.25180 0.02400
H 	H 	0.05760 0.75730 0.59750 0.06600
H 	H 	0.27960 0.68420 0.24820 0.02400
H 	H 	0.10890 0.06870 0.98460 0.04300
H 	H 	0.02580 0.03400 0.32580 0.02600
H 	H 	0.47420 0.53400 0.17420 0.02400
H 	H 	0.70340 0.62500 0.95910 0.04900
H 	H 	0.15830 0.26180 0.38970 0.04700
H 	H 	0.52580 0.46600 0.82580 0.02400
H 	H 	0.60890 0.43130 0.48460 0.04300
H 	H 	0.26610 0.74790 0.60260 0.03300
H 	H 	0.55760 0.74270 0.09750 0.06500
H 	H 	0.32300 0.49910 0.08870 0.04700
C 	C 	0.10581 0.81800 0.53701 0.01700
C 	C 	0.27792 0.31280 0.32032 0.40900
C 	C 	0.70119 0.26670 0.82109 -0.12700
C 	C 	0.61882 0.40020 0.78142 -0.13500
C 	C 	0.26120 0.63670 0.47570 -0.11000
C 	C 	0.23553 0.22040 0.92913 0.00300
C 	C 	0.39419 0.31800 0.96299 0.01500
C 	C 	0.13333 0.98890 0.43623 -0.06400
C 	C 	0.91665 0.85560 0.63435 -0.02600
C 	C 	0.20119 0.23330 0.32109 -0.12700
C 	C 	0.75998 0.90640 0.92528 0.37000
C 	C 	0.04939 0.05220 0.44279 0.00800
C 	C 	0.18604 0.17420 0.28004 0.05800
C 	C 	0.66062 0.38740 0.48122 0.05300
C 	C 	0.93096 0.91540 0.67546 0.00600
C 	C 	0.02810 0.12950 0.41140 0.01800
C 	C 	0.52810 0.37050 0.91140 0.01700
C 	C 	0.56904 0.41540 0.82454 0.00500
C 	C 	0.68546 0.79560 0.98166 -0.00600
C 	C 	0.57430 0.37470 0.38760 0.44500
C 	C 	0.59037 0.60410 0.00587 -0.00100
C 	C 	0.81454 0.29560 0.51834 -0.00500
C 	C 	0.95061 0.94780 0.55721 0.00800
C 	C 	0.90224 0.96490 0.76304 0.42600
C 	C 	0.45061 0.55220 0.05721 -0.00200
C 	C 	0.84105 0.84730 0.06615 -0.12800
C 	C 	0.18599 0.74720 0.52899 -0.02100
C 	C 	0.34998 0.41530 0.03448 -0.05400
C 	C 	0.31401 0.24720 0.97101 -0.02000
C 	C 	0.14946 0.22030 0.36306 0.00200
C 	C 	0.54628 0.69160 0.07728 -0.09500
C 	C 	0.88118 0.90020 0.71858 -0.13600
C 	C 	0.09776 0.03510 0.23696 0.42600
C 	C 	0.79881 0.76670 0.67891 -0.12700
C 	C 	0.26447 0.72040 0.57087 0.00400
C 	C 	0.76120 0.86330 0.97570 -0.10900
C 	C 	0.83938 0.88740 0.01878 0.05200
C 	C 	0.58335 0.35560 0.86565 -0.02600
C 	C 	0.29881 0.73330 0.17891 -0.12700
C 	C 	0.16062 0.11260 0.98122 0.05200
C 	C 	0.72208 0.68720 0.67968 0.40900
C 	C 	0.54939 0.44780 0.94279 -0.00200
C 	C 	0.31396 0.67420 0.21996 0.05700
C 	C 	0.65002 0.58470 0.96552 -0.05400
C 	C 	0.18546 0.70440 0.48166 -0.00500
C 	C 	0.09037 0.89590 0.50587 -0.00200
C 	C 	0.35054 0.72030 0.13694 0.00200
C 	C 	0.63333 0.51110 0.93623 -0.05400
C 	C 	0.38118 0.59980 0.21858 -0.13500
C 	C 	0.51032 0.53880 0.01602 -0.00400
C 	C 	0.95372 0.19160 0.42272 -0.09900
C 	C 	0.15895 0.15270 0.93385 -0.12800
C 	C 	0.15002 0.91530 0.46552 -0.04900
C 	C 	0.64946 0.27970 0.86306 0.00200
C 	C 	0.45372 0.30840 0.92272 -0.09500
C 	C 	0.68599 0.75280 0.02899 -0.02000
C 	C 	0.74002 0.40640 0.57472 0.37100
C 	C 	0.48968 0.46120 0.98398 -0.00400
C 	C 	0.24002 0.09360 0.07472 0.37000
C 	C 	0.84998 0.08470 0.53448 -0.04900
C 	C 	0.41665 0.64440 0.13435 -0.02600
C 	C 	0.33938 0.61260 0.51878 0.05300
C 	C 	0.81401 0.25280 0.47101 -0.02100
C 	C 	0.43096 0.58460 0.17546 0.00500
C 	C 	0.04628 0.80840 0.57728 -0.09900
C 	C 	0.81396 0.82580 0.71996 0.05800
C 	C 	0.76447 0.77960 0.07087 0.00300
C 	C 	0.68604 0.32580 0.78004 0.05700
C 	C 	0.34105 0.65270 0.56615 -0.12900
C 	C 	0.06904 0.08460 0.32454 0.00600
C 	C 	0.60581 0.68200 0.03701 0.01500
C 	C 	0.22208 0.81280 0.17968 0.40900
C 	C 	0.01032 0.96120 0.51602 -0.00800
C 	C 	0.73880 0.36330 0.52430 -0.11000
C 	C 	0.25998 0.59360 0.42528 0.37100
C 	C 	0.89419 0.18200 0.46299 0.01700
C 	C 	0.97190 0.87050 0.58860 0.01800
C 	C 	0.23880 0.13670 0.02430 -0.10900
C 	C 	0.11882 0.09980 0.28142 -0.13600
C 	C 	0.85054 0.77970 0.63694 0.00200
C 	C 	0.92570 0.87470 0.11240 0.44400
C 	C 	0.31454 0.20440 0.01834 -0.00600
C 	C 	0.08335 0.14440 0.36565 -0.02600
C 	C 	0.47190 0.62950 0.08860 0.01700
C 	C 	0.77792 0.18720 0.82032 0.40900
C 	C 	0.07430 0.12530 0.88760 0.44400
C 	C 	0.59776 0.46490 0.73696 0.41900
C 	C 	0.86667 0.01110 0.56377 -0.06400
C 	C 	0.40963 0.39590 0.99413 -0.00100
C 	C 	0.65895 0.34730 0.43385 -0.12900
C 	C 	0.36667 0.48890 0.06377 -0.05400
C 	C 	0.90963 0.10410 0.49413 -0.00200
C 	C 	0.73553 0.27960 0.42913 0.00400
C 	C 	0.98968 0.03880 0.48398 -0.00800
C 	C 	0.40224 0.53510 0.26304 0.41900
C 	C 	0.42570 0.62530 0.61240 0.44500
O 	O 	0.51842 0.44108 0.39352 -0.50000
O 	O 	0.14731 0.04981 0.19971 -0.49100
O 	O 	0.85269 0.95019 0.80029 -0.49100
O 	O 	0.06948 0.17040 0.84808 -0.53700
O 	O 	0.64731 0.45019 0.69971 -0.49100
O 	O 	0.83521 0.18220 0.78601 -0.51900
O 	O 	0.98158 0.94108 0.10648 -0.49700
O 	O 	0.96909 0.02680 0.76119 -0.54000
O 	O 	0.48158 0.55892 0.60648 -0.50000
O 	O 	0.77742 0.13004 0.85562 -0.48400
O 	O 	0.22258 0.86996 0.14438 -0.48400
O 	O 	0.66123 0.45810 0.57843 -0.45300
O 	O 	0.81497 0.39100 0.61087 -0.30600
O 	O 	0.93052 0.82960 0.15192 -0.53700
O 	O 	0.03091 0.97320 0.23881 -0.54000
O 	O 	0.31497 0.10900 0.11087 -0.30500
O 	O 	0.27742 0.36996 0.35562 -0.48200
O 	O 	0.01842 0.05892 0.89352 -0.49700
O 	O 	0.43052 0.67040 0.65192 -0.53900
O 	O 	0.83877 0.95810 0.92157 -0.45100
O 	O 	0.16479 0.81780 0.21399 -0.51900
O 	O 	0.18503 0.60900 0.38913 -0.30600
O 	O 	0.46909 0.47320 0.26119 -0.53400
O 	O 	0.68503 0.89100 0.88913 -0.30500
O 	O 	0.33877 0.54190 0.42157 -0.45300
O 	O 	0.16123 0.04190 0.07843 -0.45100
O 	O 	0.56948 0.32960 0.34808 -0.53900
O 	O 	0.53091 0.52680 0.73881 -0.53400
O 	O 	0.66479 0.68220 0.71399 -0.51800
O 	O 	0.33521 0.31780 0.28601 -0.51800
O 	O 	0.35269 0.54981 0.30029 -0.49100
O 	O 	0.72258 0.63004 0.64438 -0.48200
