data_crystal

_cell_length_a 20.13500
_cell_length_b 20.13500
_cell_length_c 26.21700
_cell_angle_alpha 69.91000
_cell_angle_beta  69.91000
_cell_angle_gamma 78.14760

_symmetry_space_group_name_	'P 1'
_symmetry_space_group_name_H-M	'P 1'

loop_
_symmetry_equiv_pos_as_xyz
  x,y,z

loop_
_atom_site_label
_atom_site_type_symbol
_atom_site_fract_x
_atom_site_fract_y
_atom_site_fract_z
_atom_site_charge
Co	Co	0.18099 0.69701 0.53584 1.17800
Co	Co	0.99366 0.00634 0.75000 1.14600
Co	Co	0.69750 0.70356 0.20810 1.14200
Co	Co	0.30250 0.29644 0.79190 1.14200
Co	Co	0.81901 0.30299 0.46416 1.17800
Co	Co	0.70356 0.69750 0.70810 1.14200
Co	Co	0.00634 0.99366 0.25000 1.14600
Co	Co	0.30707 0.82771 0.47230 1.17800
Co	Co	0.69701 0.18099 0.03584 1.17900
Co	Co	0.30299 0.81901 0.96416 1.17900
Co	Co	0.29644 0.30250 0.29190 1.14300
Co	Co	0.72546 0.71268 0.56338 1.19900
Co	Co	0.69293 0.17229 0.52770 1.17900
Co	Co	0.28732 0.27454 0.93662 1.19900
Co	Co	0.17229 0.69293 0.02770 1.17900
Co	Co	0.27454 0.28732 0.43662 1.19900
Co	Co	0.71268 0.72546 0.06338 1.19900
Co	Co	0.82771 0.30707 0.97230 1.17900
H 	H 	0.33250 0.94850 0.36090 0.02400
H 	H 	0.97790 0.89190 0.70000 0.03100
H 	H 	0.22000 0.90420 0.10860 0.06500
H 	H 	0.17430 0.95690 0.86050 0.06500
H 	H 	0.88270 0.98350 0.70080 0.03100
H 	H 	0.01650 0.11730 0.79920 0.03200
H 	H 	0.64180 0.44680 0.32520 0.07900
H 	H 	0.06630 0.67410 0.49560 0.01500
H 	H 	0.76890 0.33650 0.08850 0.02400
H 	H 	0.44120 0.22080 0.02950 0.07400
H 	H 	0.41610 0.73410 0.12450 0.07900
H 	H 	0.16840 0.53140 0.06280 0.00800
H 	H 	0.67780 0.94520 0.02000 0.06900
H 	H 	0.68270 0.05170 0.48680 0.01700
H 	H 	0.05570 0.67590 0.64640 0.02100
H 	H 	0.90420 0.22000 0.60860 0.06500
H 	H 	0.55320 0.35820 0.17480 0.07900
H 	H 	0.55880 0.77920 0.97050 0.07400
H 	H 	0.04100 0.82200 0.13530 0.06400
H 	H 	0.15660 0.96100 0.17590 0.01400
H 	H 	0.55410 0.62950 0.76010 0.02000
H 	H 	0.17440 0.50340 0.67790 0.06800
H 	H 	0.66460 0.43680 0.82140 0.07700
H 	H 	0.89410 0.87970 0.40590 0.06600
H 	H 	0.89190 0.97790 0.20000 0.03100
H 	H 	0.21440 0.91860 0.61310 0.06400
H 	H 	0.76790 0.32730 0.58240 0.02700
H 	H 	0.83160 0.46860 0.93720 0.00800
H 	H 	0.04310 0.82570 0.63950 0.06500
H 	H 	0.67380 0.93120 0.67140 0.05800
H 	H 	0.81150 0.46530 0.43210 0.00800
H 	H 	0.98350 0.88270 0.20080 0.03200
H 	H 	0.32410 0.94430 0.85360 0.02000
H 	H 	0.62950 0.55410 0.26010 0.02000
H 	H 	0.32620 0.06880 0.32860 0.05800
H 	H 	0.67930 0.93410 0.17520 0.06400
H 	H 	0.02210 0.10810 0.30000 0.03100
H 	H 	0.22080 0.44120 0.52950 0.07400
H 	H 	0.33540 0.56320 0.17860 0.07700
H 	H 	0.31730 0.94830 0.51320 0.01700
H 	H 	0.57200 0.27080 0.37180 0.08000
H 	H 	0.69280 0.93000 0.51410 0.06300
H 	H 	0.23110 0.66350 0.91150 0.02400
H 	H 	0.60570 0.80530 0.76030 0.00600
H 	H 	0.30720 0.07000 0.48590 0.06300
H 	H 	0.93410 0.67930 0.67520 0.06300
H 	H 	0.50290 0.83470 0.32840 0.06600
H 	H 	0.32590 0.93370 0.00440 0.01200
H 	H 	0.05150 0.66750 0.13910 0.02500
H 	H 	0.20500 0.43640 0.02730 0.07500
H 	H 	0.93000 0.69280 0.01410 0.06100
H 	H 	0.18710 0.39130 0.23540 0.00500
H 	H 	0.39430 0.19470 0.23970 0.00600
H 	H 	0.83440 0.81800 0.49680 0.02000
H 	H 	0.45700 0.35180 0.74270 0.02300
H 	H 	0.43640 0.20500 0.52730 0.07500
H 	H 	0.16530 0.49710 0.17160 0.06600
H 	H 	0.32730 0.76790 0.08240 0.02700
H 	H 	0.74310 0.71810 0.44010 0.01500
H 	H 	0.82200 0.04100 0.63530 0.06400
H 	H 	0.18850 0.53470 0.56790 0.00800
H 	H 	0.97840 0.14560 0.17720 0.01500
H 	H 	0.67410 0.06630 0.99560 0.01200
H 	H 	0.53140 0.16840 0.56280 0.00800
H 	H 	0.96100 0.15660 0.67590 0.01400
H 	H 	0.49660 0.82560 0.82210 0.06800
H 	H 	0.25690 0.28190 0.55990 0.01500
H 	H 	0.93370 0.32590 0.50440 0.01500
H 	H 	0.14560 0.97840 0.67720 0.01500
H 	H 	0.37050 0.44590 0.73990 0.02000
H 	H 	0.71810 0.74310 0.94010 0.01500
H 	H 	0.10590 0.12030 0.59410 0.06600
H 	H 	0.11730 0.01650 0.29920 0.03100
H 	H 	0.91860 0.21440 0.11310 0.06400
H 	H 	0.94850 0.33250 0.86090 0.02500
H 	H 	0.94830 0.31730 0.01320 0.02000
H 	H 	0.26590 0.58390 0.37550 0.07900
H 	H 	0.80530 0.60570 0.26030 0.00600
H 	H 	0.35180 0.45700 0.24270 0.02300
H 	H 	0.08140 0.78560 0.88690 0.06400
H 	H 	0.16560 0.18200 0.50320 0.02000
H 	H 	0.81290 0.60870 0.76460 0.00500
H 	H 	0.77780 0.80020 0.84700 0.06500
H 	H 	0.58390 0.26590 0.87550 0.07900
H 	H 	0.56320 0.33540 0.67860 0.07700
H 	H 	0.78560 0.08140 0.38690 0.06400
H 	H 	0.03900 0.84340 0.32410 0.01400
H 	H 	0.84340 0.03900 0.82410 0.01400
H 	H 	0.23210 0.67270 0.41760 0.02700
H 	H 	0.19980 0.22220 0.65300 0.06500
H 	H 	0.67590 0.05570 0.14640 0.02000
H 	H 	0.66350 0.23110 0.41150 0.02400
H 	H 	0.77920 0.55880 0.47050 0.07400
H 	H 	0.32220 0.05480 0.98000 0.06900
H 	H 	0.46530 0.81150 0.93210 0.00800
H 	H 	0.42800 0.72920 0.62820 0.08000
H 	H 	0.05170 0.68270 0.98680 0.02000
H 	H 	0.82570 0.04310 0.13950 0.06500
H 	H 	0.54300 0.64820 0.25730 0.02300
H 	H 	0.22220 0.19980 0.15300 0.06500
H 	H 	0.43680 0.66460 0.32140 0.07700
H 	H 	0.10810 0.02210 0.80000 0.03100
H 	H 	0.94430 0.32410 0.35360 0.02100
H 	H 	0.46860 0.83160 0.43720 0.00800
H 	H 	0.64820 0.54300 0.75730 0.02300
H 	H 	0.82560 0.49660 0.32210 0.06800
H 	H 	0.73410 0.41610 0.62450 0.07900
H 	H 	0.80020 0.77780 0.34700 0.06500
H 	H 	0.78000 0.09580 0.89140 0.06500
H 	H 	0.53470 0.18850 0.06790 0.00800
H 	H 	0.06880 0.32620 0.82860 0.05700
H 	H 	0.94520 0.67780 0.52000 0.06700
H 	H 	0.72920 0.42800 0.12820 0.08100
H 	H 	0.81800 0.83440 0.99680 0.02000
H 	H 	0.05480 0.32220 0.48000 0.06700
H 	H 	0.19470 0.39430 0.73970 0.00600
H 	H 	0.93120 0.67380 0.17140 0.05700
H 	H 	0.09580 0.78000 0.39140 0.06500
H 	H 	0.27080 0.57200 0.87180 0.08100
H 	H 	0.49710 0.16530 0.67160 0.06600
H 	H 	0.66750 0.05150 0.63910 0.02400
H 	H 	0.50340 0.17440 0.17790 0.06800
H 	H 	0.44590 0.37050 0.23990 0.02000
H 	H 	0.83470 0.50290 0.82840 0.06600
H 	H 	0.95900 0.17800 0.86470 0.06400
H 	H 	0.87970 0.89410 0.90590 0.06600
H 	H 	0.35820 0.55320 0.67480 0.07900
H 	H 	0.17800 0.95900 0.36470 0.06400
H 	H 	0.79500 0.56360 0.97270 0.07500
H 	H 	0.32070 0.06590 0.82480 0.06400
H 	H 	0.12030 0.10590 0.09410 0.06600
H 	H 	0.02160 0.85440 0.82280 0.01500
H 	H 	0.60870 0.81290 0.26460 0.00500
H 	H 	0.95690 0.17430 0.36050 0.06500
H 	H 	0.44680 0.64180 0.82520 0.07900
H 	H 	0.28190 0.25690 0.05990 0.01500
H 	H 	0.07000 0.30720 0.98590 0.06100
H 	H 	0.85440 0.02160 0.32280 0.01500
H 	H 	0.18200 0.16560 0.00320 0.02000
H 	H 	0.67270 0.23210 0.91760 0.02700
H 	H 	0.39130 0.18710 0.73540 0.00500
H 	H 	0.06590 0.32070 0.32480 0.06300
H 	H 	0.56360 0.79500 0.47270 0.07500
H 	H 	0.33650 0.76890 0.58850 0.02400
C 	C 	0.13678 0.15264 0.58824 -0.06900
C 	C 	0.88936 0.87832 0.30521 0.33500
C 	C 	0.24806 0.50256 0.44772 -0.00800
C 	C 	0.03914 0.67612 0.53185 0.04100
C 	C 	0.46029 0.81043 0.47614 0.06200
C 	C 	0.21291 0.19225 0.12316 -0.07200
C 	C 	0.14264 0.93500 0.85427 -0.04900
C 	C 	0.32388 0.96086 0.96815 0.04600
C 	C 	0.48893 0.20503 0.68420 -0.06700
C 	C 	0.16425 0.30353 0.88606 0.41000
C 	C 	0.43760 0.74966 0.58908 -0.07800
C 	C 	0.03333 0.32205 0.45372 -0.05600
C 	C 	0.68262 0.02670 0.52401 0.03600
C 	C 	0.78844 0.51778 0.99711 -0.08400
C 	C 	0.60694 0.26034 0.11910 0.31000
C 	C 	0.54376 0.66776 0.77480 0.05900
C 	C 	0.13674 0.85700 0.11338 -0.04600
C 	C 	0.75656 0.50650 0.05482 -0.00500
C 	C 	0.21844 0.42578 0.22260 0.03800
C 	C 	0.43150 0.27024 0.42049 0.30700
C 	C 	0.17912 0.82492 0.57634 0.37500
C 	C 	0.81043 0.46029 0.97614 0.06100
C 	C 	0.86528 0.13586 0.11864 -0.04600
C 	C 	0.25034 0.56240 0.91092 -0.07900
C 	C 	0.87559 0.05177 0.33127 0.04200
C 	C 	0.06571 0.85069 0.14228 -0.04900
C 	C 	0.10296 0.97394 0.81740 0.02900
C 	C 	0.54072 0.25152 0.66430 -0.02700
C 	C 	0.31322 0.08426 0.40413 -0.06400
C 	C 	0.22400 0.48780 0.50594 -0.07900
C 	C 	0.74848 0.45928 0.83570 -0.02700
C 	C 	0.55739 0.72977 0.07946 0.31600
C 	C 	0.79497 0.51107 0.81580 -0.06700
C 	C 	0.53580 0.68482 0.27320 0.05400
C 	C 	0.66776 0.54376 0.27480 0.05900
C 	C 	0.10079 0.82811 0.37350 -0.06000
C 	C 	0.38285 0.77347 0.56486 0.06400
C 	C 	0.69436 0.47176 0.81160 -0.07000
C 	C 	0.21611 0.49169 0.68821 -0.07300
C 	C 	0.02606 0.89704 0.68260 0.02800
C 	C 	0.32448 0.52128 0.68690 -0.07600
C 	C 	0.61715 0.22653 0.43514 0.06400
C 	C 	0.77347 0.38285 0.06486 0.06400
C 	C 	0.13295 0.93341 0.16704 0.04500
C 	C 	0.75157 0.77329 0.93318 0.05400
C 	C 	0.97394 0.10296 0.31740 0.02800
C 	C 	0.69647 0.83575 0.61394 0.40900
C 	C 	0.72976 0.56850 0.07951 0.30700
C 	C 	0.67729 0.95449 0.63335 -0.04500
C 	C 	0.68004 0.92580 0.10035 -0.04500
C 	C 	0.12441 0.94823 0.66873 0.04200
C 	C 	0.02642 0.67326 0.11372 0.03400
C 	C 	0.18044 0.82456 0.43122 0.36600
C 	C 	0.02670 0.68262 0.02401 0.02800
C 	C 	0.95997 0.67893 0.63834 -0.05700
C 	C 	0.93341 0.13295 0.66704 0.04500
C 	C 	0.23024 0.62570 0.44042 0.06100
C 	C 	0.31738 0.97330 0.47599 0.03600
C 	C 	0.68482 0.53580 0.77320 0.05400
C 	C 	0.46004 0.73302 0.83386 -0.01800
C 	C 	0.84526 0.68582 0.61589 0.38300
C 	C 	0.25048 0.57258 0.41493 -0.07600
C 	C 	0.96086 0.32388 0.46815 0.04100
C 	C 	0.49350 0.24344 0.44518 -0.00600
C 	C 	0.11064 0.12168 0.69479 0.33500
C 	C 	0.20503 0.48893 0.18420 -0.06700
C 	C 	0.30564 0.52824 0.18840 -0.07000
C 	C 	0.79537 0.45535 0.47142 0.06100
C 	C 	0.03142 0.88730 0.18176 0.02400
C 	C 	0.42742 0.74952 0.08507 -0.07600
C 	C 	0.30353 0.16425 0.38606 0.40900
C 	C 	0.96667 0.67795 0.54628 -0.05600
C 	C 	0.24398 0.60778 0.11590 0.34700
C 	C 	0.18957 0.53971 0.02386 0.06100
C 	C 	0.05177 0.87559 0.83127 0.04200
C 	C 	0.91190 0.16658 0.13047 -0.05700
C 	C 	0.51107 0.79497 0.31580 -0.06700
C 	C 	0.67612 0.03914 0.03185 0.04600
C 	C 	0.51220 0.77600 0.99406 -0.07900
C 	C 	0.32285 0.96701 0.87940 0.04700
C 	C 	0.50650 0.75656 0.55482 -0.00600
C 	C 	0.17544 0.81956 0.06878 0.36600
C 	C 	0.93429 0.14931 0.85772 -0.04900
C 	C 	0.15474 0.31418 0.38411 0.38300
C 	C 	0.85069 0.06571 0.64228 -0.04900
C 	C 	0.50256 0.24806 0.94772 -0.00900
C 	C 	0.88730 0.03142 0.68176 0.02600
C 	C 	0.18979 0.17299 0.03371 0.04700
C 	C 	0.32271 0.04551 0.36665 -0.04500
C 	C 	0.97358 0.32674 0.88628 0.03400
C 	C 	0.06659 0.86705 0.33296 0.04500
C 	C 	0.68815 0.95369 0.54016 -0.04500
C 	C 	0.82701 0.81021 0.46629 0.04700
C 	C 	0.86326 0.14300 0.88662 -0.04600
C 	C 	0.21156 0.48222 0.00289 -0.08400
C 	C 	0.53996 0.26698 0.16614 -0.01800
C 	C 	0.75194 0.49744 0.55228 -0.00800
C 	C 	0.16658 0.91190 0.63047 -0.05700
C 	C 	0.86322 0.84736 0.41176 -0.06900
C 	C 	0.78389 0.50831 0.31179 -0.07300
C 	C 	0.94823 0.12441 0.16873 0.04200
C 	C 	0.26034 0.60694 0.61910 0.31000
C 	C 	0.04003 0.32107 0.36166 -0.05700
C 	C 	0.56240 0.25034 0.41092 -0.07800
C 	C 	0.89921 0.17189 0.62650 -0.06000
C 	C 	0.73302 0.46004 0.33386 -0.01800
C 	C 	0.22653 0.61715 0.93514 0.06400
C 	C 	0.83612 0.85310 0.86629 -0.03000
C 	C 	0.44261 0.27023 0.92054 0.31600
C 	C 	0.32205 0.03333 0.95372 -0.06000
C 	C 	0.60778 0.24398 0.61590 0.34700
C 	C 	0.75602 0.39222 0.88410 0.34700
C 	C 	0.82811 0.10079 0.87350 -0.05900
C 	C 	0.48222 0.21156 0.50289 -0.08300
C 	C 	0.14931 0.93429 0.35772 -0.04900
C 	C 	0.76976 0.37430 0.55958 0.06100
C 	C 	0.72977 0.55739 0.57946 0.31600
C 	C 	0.50831 0.78389 0.81179 -0.07300
C 	C 	0.32674 0.97358 0.38628 0.03700
C 	C 	0.31996 0.07420 0.89965 -0.04500
C 	C 	0.22671 0.24843 0.56682 0.05400
C 	C 	0.13472 0.86414 0.88136 -0.04600
C 	C 	0.91574 0.68678 0.09587 -0.06700
C 	C 	0.73966 0.39306 0.38090 0.31000
C 	C 	0.31418 0.15474 0.88411 0.38200
C 	C 	0.96701 0.32285 0.37940 0.04500
C 	C 	0.86705 0.06659 0.83296 0.04500
C 	C 	0.06500 0.85736 0.64573 -0.04900
C 	C 	0.68582 0.84526 0.11589 0.38200
C 	C 	0.24344 0.49350 0.94518 -0.00500
C 	C 	0.46420 0.31518 0.72680 0.05400
C 	C 	0.11270 0.96858 0.31824 0.02600
C 	C 	0.26698 0.53996 0.66614 -0.01800
C 	C 	0.62570 0.23024 0.94042 0.06100
C 	C 	0.77600 0.51220 0.49406 -0.07900
C 	C 	0.08426 0.31322 0.90413 -0.06700
C 	C 	0.16388 0.14690 0.13371 -0.03000
C 	C 	0.67715 0.03299 0.12060 0.04700
C 	C 	0.57422 0.78156 0.27740 0.03800
C 	C 	0.49169 0.21611 0.18821 -0.07300
C 	C 	0.81021 0.82701 0.96629 0.04700
C 	C 	0.49744 0.75194 0.05228 -0.00900
C 	C 	0.14300 0.86326 0.38662 -0.04500
C 	C 	0.39222 0.75602 0.38410 0.34700
C 	C 	0.67893 0.95997 0.13834 -0.05900
C 	C 	0.47176 0.69436 0.31160 -0.07000
C 	C 	0.83342 0.08810 0.36953 -0.05700
C 	C 	0.31185 0.04631 0.45984 -0.04500
C 	C 	0.42634 0.22870 0.22559 0.04300
C 	C 	0.17299 0.18979 0.53371 0.04700
C 	C 	0.04631 0.31185 0.95984 -0.03900
C 	C 	0.15264 0.13678 0.08824 -0.06900
C 	C 	0.85700 0.13674 0.61338 -0.04500
C 	C 	0.13586 0.86528 0.61864 -0.04700
C 	C 	0.39306 0.73966 0.88090 0.31000
C 	C 	0.12168 0.11064 0.19479 0.33500
C 	C 	0.78709 0.80775 0.87684 -0.07200
C 	C 	0.22870 0.42634 0.72559 0.04300
C 	C 	0.67326 0.02642 0.61372 0.03700
C 	C 	0.54465 0.20463 0.02858 0.06100
C 	C 	0.25152 0.54072 0.16430 -0.02700
C 	C 	0.08810 0.83342 0.86953 -0.05700
C 	C 	0.19225 0.21291 0.62316 -0.07200
C 	C 	0.67552 0.47872 0.31310 -0.07600
C 	C 	0.84736 0.86322 0.91176 -0.06900
C 	C 	0.82456 0.18044 0.93122 0.36600
C 	C 	0.45535 0.79537 0.97142 0.06100
C 	C 	0.74966 0.43760 0.08908 -0.07900
C 	C 	0.56850 0.72976 0.57951 0.30700
C 	C 	0.89704 0.02606 0.18260 0.02900
C 	C 	0.27024 0.43150 0.92049 0.30700
C 	C 	0.47872 0.67552 0.81310 -0.07600
C 	C 	0.20463 0.54465 0.52858 0.06100
C 	C 	0.37430 0.76976 0.05958 0.06100
C 	C 	0.53971 0.18957 0.52386 0.06200
C 	C 	0.93500 0.14264 0.35427 -0.04900
C 	C 	0.95449 0.67729 0.13335 -0.04100
C 	C 	0.48780 0.22400 0.00594 -0.07900
C 	C 	0.04551 0.32271 0.86665 -0.04100
C 	C 	0.96858 0.11270 0.81824 0.02400
C 	C 	0.52128 0.32448 0.18690 -0.07600
C 	C 	0.31518 0.46420 0.22680 0.05400
C 	C 	0.80775 0.78709 0.37684 -0.07200
C 	C 	0.51778 0.78844 0.49711 -0.08300
C 	C 	0.82088 0.17508 0.42366 0.37500
C 	C 	0.85736 0.06500 0.14573 -0.04900
C 	C 	0.24843 0.22671 0.06682 0.05400
C 	C 	0.83575 0.69647 0.11394 0.41000
C 	C 	0.86414 0.13472 0.38136 -0.04700
C 	C 	0.33224 0.45624 0.72520 0.05900
C 	C 	0.17508 0.82088 0.92366 0.37500
C 	C 	0.17189 0.89921 0.12650 -0.05900
C 	C 	0.85310 0.83612 0.36629 -0.03000
C 	C 	0.45928 0.74848 0.33570 -0.02700
C 	C 	0.87832 0.88936 0.80521 0.33500
C 	C 	0.82492 0.17912 0.07634 0.37500
C 	C 	0.42578 0.21844 0.72260 0.03800
C 	C 	0.78156 0.57422 0.77740 0.03800
C 	C 	0.07420 0.31996 0.39965 -0.04700
C 	C 	0.81956 0.17544 0.56878 0.36600
C 	C 	0.57258 0.25048 0.91493 -0.07600
C 	C 	0.68678 0.91574 0.59587 -0.06400
C 	C 	0.57366 0.77130 0.77441 0.04300
C 	C 	0.92580 0.68004 0.60035 -0.04700
C 	C 	0.95369 0.68815 0.04016 -0.03900
C 	C 	0.52824 0.30564 0.68840 -0.07000
C 	C 	0.67795 0.96667 0.04628 -0.06000
C 	C 	0.45624 0.33224 0.22520 0.05900
C 	C 	0.32107 0.04003 0.86166 -0.05900
C 	C 	0.14690 0.16388 0.63371 -0.03000
C 	C 	0.74952 0.42742 0.58507 -0.07600
C 	C 	0.03299 0.67715 0.62060 0.04500
C 	C 	0.77329 0.75157 0.43318 0.05400
C 	C 	0.97330 0.31738 0.97599 0.02800
C 	C 	0.27023 0.44261 0.42054 0.31600
C 	C 	0.77130 0.57366 0.27441 0.04300
N 	N 	0.58930 0.72520 0.25693 -0.22100
N 	N 	0.78150 0.76330 0.47703 -0.20300
N 	N 	0.94470 0.05780 0.30607 -0.21200
N 	N 	0.76330 0.78150 0.97703 -0.20300
N 	N 	0.06339 0.67715 0.05947 -0.20800
N 	N 	0.21850 0.23670 0.52297 -0.20300
N 	N 	0.40660 0.28734 0.24268 -0.22000
N 	N 	0.79211 0.38795 0.50271 -0.21100
N 	N 	0.05780 0.94470 0.80607 -0.21200
N 	N 	0.67714 0.07244 0.06795 -0.21100
N 	N 	0.61205 0.20789 0.99729 -0.21100
N 	N 	0.07244 0.67714 0.56795 -0.21000
N 	N 	0.60640 0.19708 0.49133 -0.21300
N 	N 	0.92916 0.06440 0.69375 -0.21300
N 	N 	0.20789 0.61205 0.49729 -0.21100
N 	N 	0.93661 0.32285 0.94053 -0.20800
N 	N 	0.71266 0.59340 0.25732 -0.22000
N 	N 	0.41070 0.27480 0.74307 -0.22100
N 	N 	0.38795 0.79211 0.00271 -0.21100
N 	N 	0.06440 0.92916 0.19375 -0.21300
N 	N 	0.19708 0.60640 0.99133 -0.21200
N 	N 	0.28734 0.40660 0.74268 -0.22000
N 	N 	0.05530 0.94220 0.69393 -0.21200
N 	N 	0.27480 0.41070 0.24307 -0.22100
N 	N 	0.93560 0.07084 0.80625 -0.21300
N 	N 	0.72520 0.58930 0.75693 -0.22100
N 	N 	0.32285 0.93661 0.44053 -0.21000
N 	N 	0.92756 0.32286 0.43205 -0.21000
N 	N 	0.94220 0.05530 0.19393 -0.21200
N 	N 	0.59340 0.71266 0.75732 -0.22000
N 	N 	0.67715 0.06339 0.55947 -0.21000
N 	N 	0.07084 0.93560 0.30625 -0.21300
N 	N 	0.39360 0.80292 0.50867 -0.21300
N 	N 	0.23670 0.21850 0.02297 -0.20300
N 	N 	0.32286 0.92756 0.93205 -0.21100
N 	N 	0.80292 0.39360 0.00867 -0.21200
O 	O 	0.70642 0.54150 0.63237 -0.24400
O 	O 	0.37462 0.79862 0.89070 -0.39000
O 	O 	0.08147 0.06651 0.20072 -0.41700
O 	O 	0.31550 0.63790 0.59170 -0.24500
O 	O 	0.70043 0.55321 0.13269 -0.24000
O 	O 	0.61858 0.73732 0.04532 -0.38200
O 	O 	0.68386 0.82186 0.07855 -0.43000
O 	O 	0.63790 0.31550 0.09170 -0.24500
O 	O 	0.37911 0.81101 0.39743 -0.40600
O 	O 	0.85088 0.22160 0.42627 -0.42200
O 	O 	0.28739 0.19149 0.42486 -0.45200
O 	O 	0.29485 0.64285 0.09450 -0.26600
O 	O 	0.23999 0.84289 0.54840 -0.43000
O 	O 	0.87186 0.87040 0.26712 -0.27600
O 	O 	0.62538 0.20138 0.10930 -0.39000
O 	O 	0.68905 0.80451 0.66482 -0.45100
O 	O 	0.33823 0.32775 0.84596 -0.37100
O 	O 	0.30884 0.18914 0.83569 -0.44300
O 	O 	0.80451 0.68905 0.16482 -0.45200
O 	O 	0.26268 0.38142 0.45468 -0.38200
O 	O 	0.31095 0.19549 0.33518 -0.45100
O 	O 	0.83807 0.23609 0.53861 -0.42400
O 	O 	0.22160 0.85088 0.92627 -0.42200
O 	O 	0.16193 0.76391 0.46139 -0.42400
O 	O 	0.91853 0.93349 0.79928 -0.41700
O 	O 	0.55321 0.70043 0.63269 -0.24000
O 	O 	0.76391 0.16193 0.96139 -0.42400
O 	O 	0.17814 0.31614 0.42145 -0.43000
O 	O 	0.70515 0.35715 0.90550 -0.26600
O 	O 	0.44679 0.29957 0.36731 -0.24000
O 	O 	0.26241 0.37075 0.95465 -0.37900
O 	O 	0.67225 0.66177 0.65404 -0.37100
O 	O 	0.64285 0.29485 0.59450 -0.26500
O 	O 	0.54150 0.70642 0.13237 -0.24400
O 	O 	0.38142 0.26268 0.95468 -0.38200
O 	O 	0.12814 0.12960 0.73288 -0.27600
O 	O 	0.77464 0.14330 0.56559 -0.41500
O 	O 	0.36210 0.68450 0.90830 -0.24500
O 	O 	0.35715 0.70515 0.40550 -0.26500
O 	O 	0.29358 0.45850 0.36763 -0.24400
O 	O 	0.79862 0.37462 0.39070 -0.39000
O 	O 	0.45850 0.29358 0.86763 -0.24400
O 	O 	0.82186 0.68386 0.57855 -0.43000
O 	O 	0.71261 0.80851 0.57514 -0.45200
O 	O 	0.29957 0.44679 0.86731 -0.24000
O 	O 	0.62089 0.18899 0.60257 -0.40600
O 	O 	0.28078 0.71124 0.99711 -0.37600
O 	O 	0.71124 0.28078 0.49711 -0.37600
O 	O 	0.62925 0.73759 0.54535 -0.37900
O 	O 	0.71922 0.28876 0.00289 -0.37600
O 	O 	0.37075 0.26241 0.45465 -0.37900
O 	O 	0.81101 0.37911 0.89743 -0.40600
O 	O 	0.73732 0.61858 0.54532 -0.38200
O 	O 	0.93349 0.91853 0.29928 -0.41700
O 	O 	0.76001 0.15711 0.45160 -0.43000
O 	O 	0.77840 0.14912 0.07373 -0.42200
O 	O 	0.28876 0.71922 0.50289 -0.37600
O 	O 	0.73759 0.62925 0.04535 -0.37900
O 	O 	0.66177 0.67225 0.15404 -0.37100
O 	O 	0.81086 0.69116 0.66431 -0.44300
O 	O 	0.19549 0.31095 0.83518 -0.45200
O 	O 	0.12960 0.12814 0.23288 -0.27600
O 	O 	0.32775 0.33823 0.34596 -0.37100
O 	O 	0.14912 0.77840 0.57373 -0.42200
O 	O 	0.18899 0.62089 0.10257 -0.40600
O 	O 	0.20138 0.62538 0.60930 -0.39000
O 	O 	0.31614 0.17814 0.92145 -0.43000
O 	O 	0.19149 0.28739 0.92486 -0.45200
O 	O 	0.68450 0.36210 0.40830 -0.24500
O 	O 	0.15711 0.76001 0.95160 -0.42900
O 	O 	0.22536 0.85670 0.43441 -0.41500
O 	O 	0.87040 0.87186 0.76712 -0.27600
O 	O 	0.14330 0.77464 0.06559 -0.41500
O 	O 	0.85670 0.22536 0.93441 -0.41500
O 	O 	0.23609 0.83807 0.03861 -0.42400
O 	O 	0.80851 0.71261 0.07514 -0.45200
O 	O 	0.06651 0.08147 0.70072 -0.41700
O 	O 	0.69116 0.81086 0.16431 -0.44300
O 	O 	0.18914 0.30884 0.33569 -0.44300
O 	O 	0.84289 0.23999 0.04840 -0.42900
