data_crystal

_cell_length_a 8.85700
_cell_length_b 16.09700
_cell_length_c 31.57400
_cell_angle_alpha 90.00000
_cell_angle_beta  90.00000
_cell_angle_gamma 92.15200

_symmetry_space_group_name_	'P 1'
_symmetry_space_group_name_H-M	'P 1'

loop_
_symmetry_equiv_pos_as_xyz
  x,y,z

loop_
_atom_site_label
_atom_site_type_symbol
_atom_site_fract_x
_atom_site_fract_y
_atom_site_fract_z
_atom_site_charge
Ni	Ni	0.32423 0.01747 0.33393 1.09500
Ni	Ni	0.82423 0.51747 0.16607 1.09500
Ni	Ni	0.67577 0.98253 0.66607 1.09400
Ni	Ni	0.17577 0.48253 0.83393 1.09400
H 	H 	0.49080 0.21720 0.46350 0.07800
H 	H 	0.01790 0.62510 0.44510 0.02800
H 	H 	0.29280 0.93500 0.86730 0.02700
H 	H 	0.70370 0.00810 0.34570 0.02600
H 	H 	0.84470 0.09270 0.05510 0.08500
H 	H 	0.51350 0.94660 0.20370 0.05600
H 	H 	0.53360 0.76590 0.29320 0.05700
H 	H 	0.08180 0.88750 0.17670 0.07900
H 	H 	0.64770 0.38160 0.88350 0.03600
H 	H 	0.04350 0.02660 0.66230 0.02500
H 	H 	0.83130 0.53300 0.45420 0.08400
H 	H 	0.41820 0.61250 0.67670 0.08200
H 	H 	0.27960 0.15140 0.93350 0.09700
H 	H 	0.21070 0.03200 0.72500 0.03900
H 	H 	0.50920 0.78280 0.53650 0.07800
H 	H 	0.99670 0.88370 0.10660 0.03600
H 	H 	0.03740 0.00240 0.54090 0.02500
H 	H 	0.98210 0.37490 0.55490 0.02800
H 	H 	0.20460 0.23570 0.47180 0.03200
H 	H 	0.47530 0.66180 0.49650 0.02900
H 	H 	0.26800 0.64090 0.88890 -0.00200
H 	H 	0.12740 0.74470 0.41490 0.07600
H 	H 	0.85230 0.11840 0.38350 0.03600
H 	H 	0.00330 0.11630 0.89340 0.03600
H 	H 	0.54350 0.52660 0.83770 0.02500
H 	H 	0.28930 0.46800 0.22500 0.04000
H 	H 	0.35230 0.61840 0.11650 0.03600
H 	H 	0.10000 0.60010 0.56440 0.02800
H 	H 	0.29540 0.26430 0.97180 0.03200
H 	H 	0.48650 0.05340 0.79630 0.05600
H 	H 	0.98650 0.55340 0.70370 0.05700
H 	H 	0.79630 0.49190 0.84570 0.02600
H 	H 	0.13550 0.72020 0.60530 0.08500
H 	H 	0.71190 0.43360 0.70310 0.08400
H 	H 	0.87260 0.25530 0.58510 0.07600
H 	H 	0.65530 0.40730 0.55510 0.08600
H 	H 	0.86450 0.27980 0.39470 0.08500
H 	H 	0.76800 0.14090 0.61110 -0.00200
H 	H 	0.36450 0.77980 0.10530 0.08500
H 	H 	0.02470 0.83820 0.99650 0.03000
H 	H 	0.45650 0.47340 0.16230 0.02500
H 	H 	0.62740 0.24470 0.08510 0.07600
H 	H 	0.21840 0.98920 0.23680 0.00400
H 	H 	0.34470 0.59270 0.44490 0.08600
H 	H 	0.78810 0.06640 0.20310 0.08200
H 	H 	0.62950 0.67550 0.24250 0.04800
H 	H 	0.46260 0.49760 0.04090 0.02800
H 	H 	0.21190 0.93360 0.79690 0.08200
H 	H 	0.70720 0.06500 0.13270 0.02700
H 	H 	0.53740 0.50240 0.95910 0.02800
H 	H 	0.03360 0.26590 0.20680 0.05800
H 	H 	0.11360 0.08970 0.41120 0.04100
H 	H 	0.91820 0.11250 0.82330 0.07900
H 	H 	0.01350 0.44660 0.29630 0.05700
H 	H 	0.48210 0.87490 0.94510 0.02600
H 	H 	0.20720 0.56500 0.36730 0.02500
H 	H 	0.58180 0.38750 0.32330 0.08200
H 	H 	0.38640 0.41030 0.91120 0.03900
H 	H 	0.46640 0.23410 0.70680 0.05700
H 	H 	0.49670 0.38370 0.39340 0.03400
H 	H 	0.87050 0.82450 0.74250 0.04800
H 	H 	0.79280 0.43500 0.63270 0.02500
H 	H 	0.60000 0.10010 0.93560 0.02900
H 	H 	0.79540 0.76430 0.52820 0.03200
H 	H 	0.71840 0.48920 0.26320 0.00400
H 	H 	0.90000 0.39990 0.43560 0.02800
H 	H 	0.16870 0.46700 0.54580 0.08400
H 	H 	0.12950 0.17550 0.25750 0.04800
H 	H 	0.59640 0.85340 0.15240 0.04400
H 	H 	0.00920 0.28280 0.96350 0.07600
H 	H 	0.61360 0.58970 0.08880 0.03900
H 	H 	0.72040 0.84860 0.06650 0.09700
H 	H 	0.40000 0.89990 0.06440 0.02900
H 	H 	0.73200 0.35910 0.11110 -0.00200
H 	H 	0.20370 0.50810 0.15430 0.02600
H 	H 	0.77960 0.65140 0.56650 0.09800
H 	H 	0.58840 0.83930 0.60410 0.00800
H 	H 	0.88640 0.91030 0.58880 0.04100
H 	H 	0.40360 0.14660 0.84760 0.04400
H 	H 	0.14770 0.88160 0.61650 0.03600
H 	H 	0.28810 0.56640 0.29690 0.08400
H 	H 	0.28160 0.51080 0.73680 0.00400
H 	H 	0.10010 0.11580 0.50280 0.07600
H 	H 	0.78160 0.01080 0.76320 0.00400
H 	H 	0.39990 0.38420 0.00280 0.07600
H 	H 	0.33130 0.03300 0.04580 0.08400
H 	H 	0.37260 0.75530 0.91490 0.07600
H 	H 	0.96260 0.99760 0.45910 0.02500
H 	H 	0.23200 0.85910 0.38890 -0.00200
H 	H 	0.09640 0.35340 0.34760 0.04400
H 	H 	0.66870 0.96700 0.95420 0.08400
H 	H 	0.78930 0.96800 0.27500 0.03900
H 	H 	0.29630 0.99190 0.65430 0.02600
H 	H 	0.22040 0.34860 0.43350 0.09800
H 	H 	0.90360 0.64660 0.65240 0.04400
H 	H 	0.50330 0.61630 0.60660 0.03400
H 	H 	0.08840 0.33930 0.89590 0.00600
H 	H 	0.71070 0.53200 0.77500 0.04000
H 	H 	0.41160 0.16070 0.39590 0.00800
H 	H 	0.91160 0.66070 0.10410 0.00600
H 	H 	0.63550 0.22020 0.89470 0.08500
H 	H 	0.99080 0.71720 0.03650 0.07600
H 	H 	0.51790 0.12510 0.05490 0.02600
H 	H 	0.15530 0.90730 0.94490 0.08500
H 	H 	0.95650 0.97340 0.33770 0.02500
H 	H 	0.97530 0.16180 0.00350 0.03000
H 	H 	0.89990 0.88420 0.49720 0.07600
H 	H 	0.60010 0.61580 0.99720 0.07600
H 	H 	0.70460 0.73570 0.02820 0.03200
H 	H 	0.52470 0.33820 0.50350 0.02900
H 	H 	0.96640 0.73410 0.79320 0.05800
H 	H 	0.37050 0.32450 0.75750 0.04800
C 	C 	0.70940 0.52872 0.56750 0.10100
C 	C 	0.92330 0.83133 0.48613 -0.12800
C 	C 	0.19520 0.95737 0.95722 -0.15600
C 	C 	0.51930 0.32636 0.04800 0.12400
C 	C 	0.46260 0.92562 0.28625 0.26900
C 	C 	0.10500 0.23029 0.26545 -0.01000
C 	C 	0.39010 0.18195 0.01114 -0.05100
C 	C 	0.17990 0.39553 0.49232 0.09800
C 	C 	0.59400 0.32673 0.48150 0.01200
C 	C 	0.48910 0.47520 0.19095 0.00700
C 	C 	0.07670 0.16867 0.51387 -0.12800
C 	C 	0.51090 0.52480 0.80905 0.00700
C 	C 	0.57670 0.66867 0.98613 -0.12600
C 	C 	0.33040 0.52921 0.31658 -0.13200
C 	C 	0.41280 0.16380 0.81889 -0.01100
C 	C 	0.42700 0.74506 0.54251 -0.12700
C 	C 	0.44050 0.47614 0.30368 0.12800
C 	C 	0.53740 0.07438 0.71375 0.26900
C 	C 	0.69890 0.96817 0.98305 -0.15300
C 	C 	0.66300 0.05333 0.36074 0.01400
C 	C 	0.83040 0.02921 0.18342 -0.12600
C 	C 	0.61830 0.53085 0.08744 -0.00400
C 	C 	0.82010 0.60447 0.50768 0.09800
C 	C 	0.00810 0.32204 0.54432 0.01100
C 	C 	0.78420 0.11775 0.97365 -0.05000
C 	C 	0.82860 0.26194 0.92479 0.12300
C 	C 	0.81580 0.36315 0.44111 0.01400
C 	C 	0.53620 0.89148 0.21158 -0.03700
C 	C 	0.89660 0.97220 0.27484 0.00600
C 	C 	0.96380 0.60852 0.71158 -0.03700
C 	C 	0.49190 0.17796 0.04432 0.01400
C 	C 	0.65740 0.52722 0.61256 -0.05400
C 	C 	0.46380 0.10852 0.78842 -0.03700
C 	C 	0.28200 0.52806 0.35834 0.01400
C 	C 	0.00320 0.63595 0.11196 0.09200
C 	C 	0.51850 0.86610 0.25357 -0.04300
C 	C 	0.78200 0.02806 0.14166 0.01000
C 	C 	0.53560 0.48067 0.06084 0.00700
C 	C 	0.67140 0.23806 0.42479 0.12400
C 	C 	0.86820 0.01651 0.74554 0.10300
C 	C 	0.04980 0.28441 0.23506 -0.03700
C 	C 	0.45020 0.21559 0.73506 -0.03600
C 	C 	0.20940 0.02872 0.93250 0.09800
C 	C 	0.69520 0.45737 0.54278 -0.15800
C 	C 	0.24530 0.61337 0.11846 0.00100
C 	C 	0.60500 0.73029 0.23455 -0.01000
C 	C 	0.72890 0.89759 0.04975 -0.16100
C 	C 	0.66960 0.47079 0.68342 -0.13200
C 	C 	0.12440 0.25620 0.30742 -0.06900
C 	C 	0.81230 0.80302 0.65992 0.33300
C 	C 	0.16300 0.55333 0.13926 0.01400
C 	C 	0.04610 0.07894 0.87391 0.00600
C 	C 	0.31680 0.59448 0.90045 0.09000
C 	C 	0.40600 0.67327 0.51850 0.01200
C 	C 	0.50320 0.13595 0.38804 0.08900
C 	C 	0.05950 0.02386 0.80368 0.12000
C 	C 	0.18770 0.19698 0.34008 0.33300
C 	C 	0.44300 0.75077 0.93743 -0.12800
C 	C 	0.50810 0.82204 0.95568 0.01400
C 	C 	0.39500 0.26971 0.76545 -0.01000
C 	C 	0.10340 0.02780 0.72516 0.00600
C 	C 	0.98910 0.97520 0.30905 0.00400
C 	C 	0.00420 0.92278 0.16786 -0.11800
C 	C 	0.03560 0.98067 0.43916 0.01400
C 	C 	0.17140 0.73806 0.07521 0.12300
C 	C 	0.03740 0.57438 0.78625 0.26800
C 	C 	0.46440 0.51933 0.93916 0.00700
C 	C 	0.70480 0.20821 0.91663 -0.12800
C 	C 	0.73860 0.45786 0.50018 0.09900
C 	C 	0.89500 0.76971 0.73455 -0.01000
C 	C 	0.25470 0.88663 0.61846 0.00100
C 	C 	0.84260 0.97278 0.11256 -0.05000
C 	C 	0.57300 0.25494 0.45749 -0.12700
C 	C 	0.89010 0.68195 0.48886 -0.05000
C 	C 	0.38170 0.46915 0.91256 -0.00400
C 	C 	0.63970 0.74034 0.00446 0.01300
C 	C 	0.01930 0.82636 0.45200 0.12500
C 	C 	0.01850 0.36610 0.24643 -0.04100
C 	C 	0.26140 0.54214 0.49982 0.09900
C 	C 	0.99680 0.36405 0.88804 0.09200
C 	C 	0.76140 0.04214 0.00018 0.09800
C 	C 	0.62440 0.75620 0.19258 -0.06900
C 	C 	0.23860 0.95786 0.99982 0.09800
C 	C 	0.80110 0.53183 0.48305 -0.15300
C 	C 	0.27110 0.10241 0.95025 -0.16100
C 	C 	0.71800 0.47194 0.64166 0.01400
C 	C 	0.18320 0.90552 0.40045 0.09000
C 	C 	0.79520 0.29179 0.41663 -0.12900
C 	C 	0.60340 0.52780 0.77484 0.00500
C 	C 	0.48070 0.67364 0.95200 0.12400
C 	C 	0.94050 0.97614 0.19632 0.12000
C 	C 	0.68770 0.69698 0.15992 0.33200
C 	C 	0.55700 0.24923 0.06257 -0.12800
C 	C 	0.98150 0.63390 0.75357 -0.04100
C 	C 	0.95020 0.71559 0.76494 -0.03700
C 	C 	0.42330 0.33133 0.01387 -0.12600
C 	C 	0.50420 0.42278 0.33214 -0.13000
C 	C 	0.20480 0.70821 0.58337 -0.12900
C 	C 	0.32010 0.10447 0.99232 0.09800
C 	C 	0.54610 0.57894 0.62609 0.01500
C 	C 	0.33700 0.94667 0.63926 0.01400
C 	C 	0.55950 0.52386 0.69632 0.12800
C 	C 	0.60990 0.81805 0.98886 -0.05100
C 	C 	0.03620 0.39148 0.28842 -0.03700
C 	C 	0.36820 0.51651 0.75446 0.10000
C 	C 	0.58720 0.83620 0.18111 -0.01100
C 	C 	0.68420 0.13685 0.94111 0.01300
C 	C 	0.15740 0.02722 0.88744 -0.05000
C 	C 	0.74530 0.11337 0.38154 0.00100
C 	C 	0.90600 0.17327 0.98150 0.01100
C 	C 	0.10990 0.31805 0.51114 -0.05000
C 	C 	0.21800 0.97194 0.85834 0.01000
C 	C 	0.05700 0.74923 0.43743 -0.12700
C 	C 	0.08720 0.33620 0.31889 -0.01100
C 	C 	0.63180 0.48349 0.24554 0.10000
C 	C 	0.16960 0.97079 0.81658 -0.12600
C 	C 	0.94300 0.25077 0.56257 -0.12700
C 	C 	0.29520 0.79179 0.08337 -0.12800
C 	C 	0.95390 0.92106 0.12609 0.00600
C 	C 	0.32860 0.76194 0.57521 0.12400
C 	C 	0.99580 0.07722 0.83214 -0.11800
C 	C 	0.29060 0.47128 0.43250 0.10100
C 	C 	0.30110 0.03183 0.01695 -0.15300
C 	C 	0.22890 0.39759 0.45025 -0.16300
C 	C 	0.39660 0.47220 0.22516 0.00500
C 	C 	0.96440 0.01933 0.56084 0.01400
C 	C 	0.31230 0.30302 0.84008 0.33200
C 	C 	0.49580 0.57722 0.66786 -0.13000
C 	C 	0.48150 0.13390 0.74643 -0.04300
C 	C 	0.83700 0.44667 0.86074 0.01400
C 	C 	0.75470 0.38663 0.88154 0.00100
C 	C 	0.07300 0.75494 0.04251 -0.12400
C 	C 	0.98070 0.17364 0.54800 0.12500
C 	C 	0.80480 0.04263 0.04278 -0.15600
C 	C 	0.71580 0.38225 0.47365 -0.05100
C 	C 	0.31580 0.86315 0.05889 0.01300
C 	C 	0.86030 0.75966 0.50446 0.01300
C 	C 	0.99190 0.67796 0.45568 0.01100
C 	C 	0.68320 0.40552 0.09955 0.09000
C 	C 	0.87560 0.74380 0.69258 -0.06900
C 	C 	0.30480 0.54263 0.45722 -0.15800
C 	C 	0.45390 0.42106 0.37391 0.01500
C 	C 	0.79060 0.97128 0.06750 0.09800
C 	C 	0.11830 0.03085 0.41256 -0.01000
C 	C 	0.21580 0.88225 0.02635 -0.05000
C 	C 	0.54980 0.78441 0.26494 -0.03600
C 	C 	0.19890 0.46817 0.51695 -0.15300
C 	C 	0.18420 0.63685 0.55889 0.01400
C 	C 	0.37560 0.24380 0.80742 -0.06900
C 	C 	0.92700 0.24506 0.95749 -0.12400
C 	C 	0.91280 0.66380 0.68111 -0.01100
C 	C 	0.36030 0.25966 0.99554 0.01300
C 	C 	0.01090 0.02480 0.69095 0.00400
C 	C 	0.49680 0.86405 0.61196 0.08900
C 	C 	0.28420 0.61775 0.52635 -0.05100
C 	C 	0.96260 0.42562 0.21375 0.26800
C 	C 	0.13180 0.98349 0.25446 0.10300
C 	C 	0.67990 0.89553 0.00768 0.09800
C 	C 	0.88170 0.96915 0.58744 -0.01000
C 	C 	0.09400 0.82673 0.01850 0.01100
C 	C 	0.13970 0.24034 0.49554 0.01300
C 	C 	0.77110 0.60241 0.54975 -0.16300
C 	C 	0.81680 0.09448 0.59955 0.09000
C 	C 	0.34260 0.47278 0.38744 -0.05400
N 	N 	0.85714 0.33423 0.89936 -0.13800
N 	N 	0.98909 0.43194 0.86471 -0.22200
N 	N 	0.01143 0.02358 0.76018 -0.14200
N 	N 	0.51143 0.52358 0.73982 -0.14100
N 	N 	0.51091 0.06806 0.36471 -0.22200
N 	N 	0.57788 0.40068 0.06835 -0.14100
N 	N 	0.07788 0.90068 0.43165 -0.14200
N 	N 	0.64286 0.16577 0.39936 -0.13800
N 	N 	0.92212 0.09932 0.56835 -0.14200
N 	N 	0.20906 0.98362 0.38816 -0.22700
N 	N 	0.14286 0.66577 0.10064 -0.13800
N 	N 	0.98857 0.97642 0.23982 -0.14200
N 	N 	0.48909 0.93194 0.63529 -0.22200
N 	N 	0.01091 0.56806 0.13529 -0.22200
N 	N 	0.29094 0.51638 0.88816 -0.22800
N 	N 	0.36306 0.51855 0.79610 -0.21400
N 	N 	0.79094 0.01638 0.61184 -0.22700
N 	N 	0.48857 0.47642 0.26018 -0.14100
N 	N 	0.86306 0.01855 0.70390 -0.21200
N 	N 	0.70906 0.48362 0.11184 -0.22800
N 	N 	0.13694 0.98145 0.29610 -0.21200
N 	N 	0.63694 0.48145 0.20390 -0.21400
N 	N 	0.42212 0.59932 0.93165 -0.14100
N 	N 	0.35714 0.83423 0.60064 -0.13800
O 	O 	0.92106 0.39930 0.17763 -0.36500
O 	O 	0.24879 0.13406 0.32429 -0.40400
O 	O 	0.07894 0.60070 0.82237 -0.36500
O 	O 	0.75121 0.86594 0.67571 -0.40400
O 	O 	0.42106 0.89930 0.32237 -0.36500
O 	O 	0.74879 0.63406 0.17571 -0.40400
O 	O 	0.25121 0.36594 0.82429 -0.40400
O 	O 	0.32532 0.28575 0.87851 -0.28000
O 	O 	0.95509 0.50179 0.22349 -0.35400
O 	O 	0.82532 0.78575 0.62149 -0.28000
O 	O 	0.57894 0.10070 0.67763 -0.36500
O 	O 	0.67468 0.71425 0.12149 -0.28000
O 	O 	0.17468 0.21425 0.37851 -0.28000
O 	O 	0.45509 0.00179 0.27651 -0.35400
O 	O 	0.54491 0.99821 0.72349 -0.35400
O 	O 	0.04491 0.49821 0.77651 -0.35400
