data_crystal

_cell_length_a 15.24450
_cell_length_b 15.24450
_cell_length_c 23.21500
_cell_angle_alpha 90.00000
_cell_angle_beta  90.00000
_cell_angle_gamma 96.09150

_symmetry_space_group_name_	'P 1'
_symmetry_space_group_name_H-M	'P 1'

loop_
_symmetry_equiv_pos_as_xyz
  x,y,z

loop_
_atom_site_label
_atom_site_type_symbol
_atom_site_fract_x
_atom_site_fract_y
_atom_site_fract_z
_atom_site_charge
Co	Co	0.29867 0.29867 -0.00000 1.20200
Co	Co	0.84573 0.26155 0.89193 1.17300
Co	Co	0.26155 0.84573 0.10807 1.17100
Co	Co	0.21111 0.78889 0.25000 1.21000
Co	Co	0.74327 0.65571 0.64611 1.15500
Co	Co	0.25673 0.34429 0.14611 1.15500
Co	Co	0.70133 0.70133 0.50000 1.21100
Co	Co	0.73845 0.15427 0.60807 1.17200
Co	Co	0.34429 0.25673 0.85389 1.15500
Co	Co	0.15427 0.73845 0.39193 1.17200
Co	Co	0.78889 0.21111 0.75000 1.21000
Co	Co	0.65571 0.74327 0.35389 1.15500
H 	H 	0.17640 0.12000 0.68480 0.07900
H 	H 	0.55820 0.34540 0.04110 0.02300
H 	H 	0.85830 0.96290 0.78860 0.02500
H 	H 	0.03710 0.14170 0.71140 0.02500
H 	H 	0.54050 0.86510 0.13320 0.02500
H 	H 	0.01740 0.66880 0.62140 0.02200
H 	H 	0.52040 0.22720 0.79100 0.01700
H 	H 	0.33120 0.98260 0.87860 0.02300
H 	H 	0.70210 0.35010 0.07470 0.09100
H 	H 	0.47960 0.77280 0.29100 0.01700
H 	H 	0.88000 0.82360 0.81520 0.08100
H 	H 	0.11730 0.31010 0.33980 0.07900
H 	H 	0.41260 0.20020 0.06440 -0.13400
H 	H 	0.64990 0.29790 0.42530 0.08100
H 	H 	0.27390 0.02630 0.04250 0.02200
H 	H 	0.73010 0.36630 0.61250 0.01000
H 	H 	0.16610 0.66730 0.59930 0.08200
H 	H 	0.98260 0.33120 0.12140 0.02300
H 	H 	0.96290 0.85830 0.21140 0.02200
H 	H 	0.36630 0.73010 0.38750 0.01000
H 	H 	0.25930 0.94430 0.34980 -0.08200
H 	H 	0.68990 0.88270 0.16020 0.07700
H 	H 	0.83390 0.33270 0.09930 0.07000
H 	H 	0.44180 0.65460 0.54110 0.02100
H 	H 	0.86610 0.74870 0.35770 0.00900
H 	H 	0.12000 0.17640 0.31520 0.08000
H 	H 	0.13490 0.45950 0.36680 0.02700
H 	H 	0.25130 0.13390 0.14230 0.00700
H 	H 	0.82360 0.88000 0.18480 0.07800
H 	H 	0.29790 0.64990 0.57470 0.08100
H 	H 	0.34540 0.55820 0.95890 0.01900
H 	H 	0.22720 0.52040 0.20900 0.01700
H 	H 	0.13390 0.25130 0.85770 0.01200
H 	H 	0.33270 0.83390 0.90070 0.09000
H 	H 	0.02630 0.27390 0.95750 0.01600
H 	H 	0.45950 0.13490 0.63320 0.02700
H 	H 	0.86510 0.54050 0.86680 0.03000
H 	H 	0.58740 0.79980 0.56440 -0.12600
H 	H 	0.66880 0.01740 0.37860 0.02400
H 	H 	0.74870 0.86610 0.64230 0.01000
H 	H 	0.26990 0.63370 0.11250 0.00800
H 	H 	0.14170 0.03710 0.28860 0.02200
H 	H 	0.35010 0.70210 0.92530 0.07100
H 	H 	0.79980 0.58740 0.43560 -0.12600
H 	H 	0.05570 0.74070 0.15020 -0.08400
H 	H 	0.74070 0.05570 0.84980 -0.08100
H 	H 	0.20020 0.41260 0.93560 -0.11700
H 	H 	0.66730 0.16610 0.40070 0.07800
H 	H 	0.88270 0.68990 0.83980 0.08000
H 	H 	0.31010 0.11730 0.66020 0.07900
H 	H 	0.65460 0.44180 0.45890 0.02100
H 	H 	0.77280 0.47960 0.70900 0.01700
H 	H 	0.97370 0.72610 0.45750 0.01600
H 	H 	0.63370 0.26990 0.88750 0.01300
H 	H 	0.94430 0.25930 0.65020 -0.08300
H 	H 	0.72610 0.97370 0.54250 0.02400
C 	C 	0.69450 0.98090 0.45940 -0.13700
C 	C 	0.30550 0.01910 0.95940 -0.12000
C 	C 	0.14260 0.22640 0.82180 0.10200
C 	C 	0.28450 0.64790 0.07450 0.11100
C 	C 	0.81840 0.76120 0.74670 0.05900
C 	C 	0.67690 0.12590 0.42960 -0.12700
C 	C 	0.14240 0.35360 0.31490 -0.12600
C 	C 	0.47840 0.20500 0.76420 0.08600
C 	C 	0.76870 0.10830 0.86430 0.40500
C 	C 	0.10830 0.76870 0.13570 0.40800
C 	C 	0.15410 0.68910 0.51530 0.06900
C 	C 	0.39690 0.23450 0.09510 0.52900
C 	C 	0.60320 0.18060 0.69800 0.40500
C 	C 	0.69470 0.88330 0.44720 0.40600
C 	C 	0.66710 0.31250 0.46280 -0.13100
C 	C 	0.11670 0.30530 0.05280 0.41400
C 	C 	0.39680 0.81940 0.19800 0.40500
C 	C 	0.79850 0.93030 0.71170 -0.14300
C 	C 	0.68910 0.15410 0.48470 0.06500
C 	C 	0.58000 0.30300 0.96180 -0.13400
C 	C 	0.82440 0.49280 0.78790 -0.14000
C 	C 	0.31250 0.66710 0.53720 -0.13000
C 	C 	0.97640 0.21580 0.80540 0.41100
C 	C 	0.98090 0.69450 0.54060 -0.15100
C 	C 	0.85740 0.77360 0.32180 0.10400
C 	C 	0.12590 0.67690 0.57040 -0.13400
C 	C 	0.98740 0.28840 0.98610 0.12600
C 	C 	0.51320 0.70300 0.44260 0.41300
C 	C 	0.76550 0.60310 0.40490 0.52700
C 	C 	0.39780 0.67060 0.51670 0.08600
C 	C 	0.33300 0.17540 0.73810 0.06400
C 	C 	0.30530 0.11670 0.94720 0.40100
C 	C 	0.17560 0.50720 0.28790 -0.14100
C 	C 	0.23880 0.18160 0.75330 0.05800
C 	C 	0.30910 0.75110 0.00240 0.00700
C 	C 	0.84590 0.31090 0.01530 0.01500
C 	C 	0.14950 0.16690 0.28100 -0.12900
C 	C 	0.55740 0.85140 0.17040 0.06400
C 	C 	0.79500 0.52160 0.73580 0.08600
C 	C 	0.69090 0.24890 0.50240 0.05900
C 	C 	0.29700 0.48680 0.05740 0.42100
C 	C 	0.96250 0.32150 0.08390 0.07100
C 	C 	0.20150 0.06970 0.21170 -0.14800
C 	C 	0.60220 0.32940 0.01670 0.06300
C 	C 	0.71160 0.01260 0.51390 0.08800
C 	C 	0.67060 0.39780 0.48330 0.08600
C 	C 	0.24890 0.69090 0.49760 0.05800
C 	C 	0.35360 0.14240 0.68510 -0.12700
C 	C 	0.64790 0.28450 0.92550 0.10000
C 	C 	0.17540 0.33300 0.26190 0.06300
C 	C 	0.93030 0.79850 0.28830 -0.14600
C 	C 	0.85050 0.83310 0.78100 -0.12700
C 	C 	0.23130 0.89170 0.36430 0.40600
C 	C 	0.75110 0.30910 0.99760 0.11300
C 	C 	0.32310 0.87410 0.92960 -0.14900
C 	C 	0.33290 0.68750 0.96280 -0.09500
C 	C 	0.60310 0.76550 0.59510 0.52600
C 	C 	0.91550 0.83930 0.23510 0.07500
C 	C 	0.16690 0.14950 0.71900 -0.12600
C 	C 	0.76120 0.81840 0.25330 0.05800
C 	C 	0.50720 0.17560 0.71210 -0.14100
C 	C 	0.81940 0.39680 0.80200 0.40400
C 	C 	0.83930 0.91550 0.76490 0.07500
C 	C 	0.06970 0.20150 0.78830 -0.14100
C 	C 	0.85140 0.55740 0.82960 0.06400
C 	C 	0.68750 0.33290 0.03720 -0.16700
C 	C 	0.48680 0.29700 0.94260 0.40500
C 	C 	0.30300 0.58000 0.03820 -0.18900
C 	C 	0.03750 0.67850 0.58390 0.08300
C 	C 	0.52160 0.79500 0.26420 0.08600
C 	C 	0.18060 0.60320 0.30200 0.40400
C 	C 	0.87410 0.32310 0.07040 -0.11000
C 	C 	0.88330 0.69470 0.55280 0.41000
C 	C 	0.18160 0.23880 0.24670 0.05900
C 	C 	0.32150 0.96250 0.91610 0.08000
C 	C 	0.70300 0.51320 0.55740 0.41300
C 	C 	0.01260 0.71160 0.48610 0.10300
C 	C 	0.35210 0.71550 0.42550 0.10600
C 	C 	0.85760 0.64640 0.81490 -0.12500
C 	C 	0.67850 0.03750 0.41610 0.06900
C 	C 	0.16070 0.08450 0.26490 0.07700
C 	C 	0.83310 0.85050 0.21900 -0.12800
C 	C 	0.77360 0.85740 0.67820 0.10300
C 	C 	0.08450 0.16070 0.73510 0.07400
C 	C 	0.42000 0.69700 0.46180 -0.16200
C 	C 	0.44260 0.14860 0.67040 0.06400
C 	C 	0.69700 0.42000 0.53820 -0.16200
C 	C 	0.66700 0.82460 0.23810 0.06300
C 	C 	0.49280 0.82440 0.21210 -0.14200
C 	C 	0.23450 0.39690 0.90490 0.52200
C 	C 	0.28840 0.98740 0.01390 0.06700
C 	C 	0.89170 0.23130 0.63570 0.40600
C 	C 	0.31090 0.84590 0.98470 0.11800
C 	C 	0.14860 0.44260 0.32960 0.06400
C 	C 	0.78420 0.02360 0.69460 0.41100
C 	C 	0.64640 0.85760 0.18510 -0.12700
C 	C 	0.01910 0.30550 0.04060 -0.16800
C 	C 	0.22640 0.14260 0.17820 0.10500
C 	C 	0.71550 0.35210 0.57450 0.10600
C 	C 	0.21580 0.97640 0.19460 0.41500
C 	C 	0.02360 0.78420 0.30540 0.41500
C 	C 	0.82460 0.66700 0.76190 0.06400
C 	C 	0.20500 0.47840 0.23580 0.08600
C 	C 	0.32940 0.60220 0.98330 0.10800
N 	N 	0.70830 0.09850 0.52780 -0.23100
N 	N 	0.22540 0.21660 0.80540 -0.22500
N 	N 	0.09850 0.70830 0.47220 -0.23400
N 	N 	0.60800 0.79680 0.27820 -0.23700
N 	N 	0.20320 0.39200 0.22180 -0.23700
N 	N 	0.71370 0.26670 0.55831 -0.22400
N 	N 	0.77460 0.78340 0.30540 -0.22600
N 	N 	0.26670 0.71370 0.44169 -0.22400
N 	N 	0.79680 0.60800 0.72180 -0.23700
N 	N 	0.28630 0.73330 0.05831 -0.22000
N 	N 	0.21660 0.22540 0.19460 -0.22600
N 	N 	0.29170 0.90150 0.02780 -0.24400
N 	N 	0.39200 0.20320 0.77820 -0.23700
N 	N 	0.78340 0.77460 0.69460 -0.22500
N 	N 	0.73330 0.28630 0.94169 -0.22800
N 	N 	0.90150 0.29170 0.97220 -0.22000
O 	O 	0.84308 0.37832 0.85273 -0.44300
O 	O 	0.72270 0.66950 0.41310 -0.57100
O 	O 	0.27730 0.33050 0.91310 -0.56200
O 	O 	0.23450 0.82090 0.33720 -0.53400
O 	O 	0.56050 0.76690 0.63570 -0.35500
O 	O 	0.16490 0.28990 0.01136 -0.43500
O 	O 	0.19010 0.89150 0.41140 -0.35400
O 	O 	0.31990 0.13990 0.89589 -0.43700
O 	O 	0.07760 0.78840 0.26610 -0.43600
O 	O 	0.71940 0.53040 0.61008 -0.43600
O 	O 	0.78840 0.07760 0.73390 -0.43500
O 	O 	0.10850 0.80990 0.08860 -0.35900
O 	O 	0.68010 0.86010 0.39589 -0.43900
O 	O 	0.71010 0.83510 0.48864 -0.42100
O 	O 	0.23511 0.96409 0.14251 -0.43300
O 	O 	0.03591 0.76489 0.35749 -0.43100
O 	O 	0.69170 0.56810 0.51959 -0.43300
O 	O 	0.76690 0.56050 0.36430 -0.35700
O 	O 	0.21160 0.92240 0.23390 -0.43600
O 	O 	0.53040 0.71940 0.38992 -0.43600
O 	O 	0.80990 0.10850 0.91140 -0.35000
O 	O 	0.20640 0.65520 0.26326 -0.42800
O 	O 	0.30830 0.43190 0.01959 -0.44600
O 	O 	0.43950 0.23310 0.13570 -0.36000
O 	O 	0.28060 0.46960 0.11008 -0.43900
O 	O 	0.33050 0.27730 0.08690 -0.57500
O 	O 	0.15692 0.62168 0.35273 -0.44500
O 	O 	0.43190 0.30830 0.98041 -0.41700
O 	O 	0.56810 0.69170 0.48041 -0.43300
O 	O 	0.83510 0.71010 0.51136 -0.42300
O 	O 	0.79360 0.34480 0.76326 -0.42800
O 	O 	0.82090 0.23450 0.66280 -0.53400
O 	O 	0.76489 0.03591 0.64251 -0.43200
O 	O 	0.17910 0.76550 0.16280 -0.53500
O 	O 	0.28990 0.16490 0.98864 -0.40500
O 	O 	0.76550 0.17910 0.83720 -0.53300
O 	O 	0.89150 0.19010 0.58860 -0.35500
O 	O 	0.96409 0.23511 0.85749 -0.43100
O 	O 	0.23310 0.43950 0.86430 -0.35300
O 	O 	0.86010 0.68010 0.60411 -0.44100
O 	O 	0.37832 0.84308 0.14727 -0.44600
O 	O 	0.13990 0.31990 0.10411 -0.44300
O 	O 	0.65520 0.20640 0.73674 -0.42800
O 	O 	0.66950 0.72270 0.58690 -0.57000
O 	O 	0.62168 0.15692 0.64727 -0.44500
O 	O 	0.46960 0.28060 0.88992 -0.43200
O 	O 	0.92240 0.21160 0.76610 -0.43500
O 	O 	0.34480 0.79360 0.23674 -0.42800
