data_crystal

_cell_length_a 20.67210
_cell_length_b 14.75150
_cell_length_c 13.12810
_cell_angle_alpha 90.00200
_cell_angle_beta  67.13580
_cell_angle_gamma 90.00040

_symmetry_space_group_name_	'P 1'
_symmetry_space_group_name_H-M	'P 1'

loop_
_symmetry_equiv_pos_as_xyz
  x,y,z

loop_
_atom_site_label
_atom_site_type_symbol
_atom_site_fract_x
_atom_site_fract_y
_atom_site_fract_z
_atom_site_charge
H 	H 	0.16578 0.39801 0.19427 0.06700
H 	H 	0.29473 0.42257 0.14225 0.05500
C 	C 	0.17797 0.36153 0.02883 -0.11600
C 	C 	0.20307 0.38818 0.10949 0.01300
C 	C 	0.10220 0.33873 0.06193 0.46400
C 	C 	0.27466 0.40084 0.08082 -0.00400
O 	O 	0.08127 0.31732 0.98569 -0.57300
O 	O 	0.06378 0.33806 0.16508 -0.58500
H 	H 	0.66592 0.14926 0.19418 0.04600
H 	H 	0.79502 0.17258 0.14215 0.03700
C 	C 	0.67800 0.11294 0.02875 -0.14600
C 	C 	0.70318 0.13919 0.10944 -0.02600
C 	C 	0.60216 0.09081 0.06186 0.46000
C 	C 	0.77483 0.15112 0.08079 -0.01200
O 	O 	0.58117 0.06965 0.98563 -0.70300
O 	O 	0.56374 0.09038 0.16501 -0.69200
H 	H 	0.83426 0.39830 0.05574 0.06200
H 	H 	0.70532 0.42282 0.10773 0.05200
C 	C 	0.82204 0.36159 0.22113 -0.10900
C 	C 	0.79696 0.38835 0.14049 0.00600
C 	C 	0.89780 0.33877 0.18805 0.48200
C 	C 	0.72536 0.40100 0.16914 0.00800
O 	O 	0.91873 0.31736 0.26430 -0.61200
O 	O 	0.93623 0.33808 0.08491 -0.63100
H 	H 	0.33411 0.14936 0.05579 0.04300
H 	H 	0.20501 0.17267 0.10778 0.03700
C 	C 	0.32200 0.11295 0.22120 -0.15200
C 	C 	0.29684 0.13925 0.14051 -0.02100
C 	C 	0.39784 0.09085 0.18812 0.46400
C 	C 	0.22519 0.15118 0.16914 -0.02100
O 	O 	0.41882 0.06967 0.26436 -0.70700
O 	O 	0.43627 0.09041 0.08498 -0.69400
H 	H 	0.83410 0.10070 0.30580 0.01400
H 	H 	0.70500 0.07735 0.35782 -0.01100
C 	C 	0.82200 0.13701 0.47124 -0.14500
C 	C 	0.79682 0.11078 0.39054 -0.03100
C 	C 	0.89784 0.15912 0.43814 0.46700
C 	C 	0.72518 0.09882 0.41918 -0.02300
O 	O 	0.91885 0.18021 0.51437 -0.65000
O 	O 	0.93625 0.15957 0.33499 -0.66400
H 	H 	0.33412 0.35065 0.30586 0.06500
H 	H 	0.20518 0.32610 0.35785 0.05500
C 	C 	0.32192 0.38715 0.47129 -0.10700
C 	C 	0.29682 0.36053 0.39061 0.00700
C 	C 	0.39772 0.40970 0.43815 0.48200
C 	C 	0.22523 0.34788 0.41927 0.00600
O 	O 	0.41876 0.43088 0.51434 -0.60300
O 	O 	0.43610 0.41034 0.33498 -0.61200
H 	H 	0.16589 0.10066 0.44407 0.01800
H 	H 	0.29500 0.07735 0.39209 -0.01100
C 	C 	0.17800 0.13704 0.27866 -0.13900
C 	C 	0.20317 0.11077 0.35935 -0.03300
C 	C 	0.10216 0.15913 0.31180 0.46200
C 	C 	0.27481 0.09884 0.33073 -0.02200
O 	O 	0.08115 0.18026 0.23558 -0.61300
O 	O 	0.06375 0.15957 0.41495 -0.63100
H 	H 	0.66584 0.35039 0.44403 0.06600
H 	H 	0.79478 0.32590 0.39207 0.05400
C 	C 	0.67806 0.38709 0.27865 -0.10600
C 	C 	0.70315 0.36038 0.35931 0.00500
C 	C 	0.60225 0.40966 0.31180 0.48100
C 	C 	0.77474 0.34775 0.33067 0.00900
O 	O 	0.58123 0.43091 0.23563 -0.60300
O 	O 	0.56386 0.41023 0.41497 -0.61200
F 	F 	0.99999 0.30364 0.37502 -1.00100
F 	F 	0.49999 0.05619 0.37502 -1.09500
F 	F 	0.99999 0.19375 0.12501 -1.03000
F 	F 	0.49998 0.44427 0.12501 -0.97700
Al	Al	0.50001 0.00118 0.25003 2.38300
Al	Al	0.99996 0.24878 0.24997 2.40200
Al	Al	0.49997 0.00118 0.99998 2.38400
Al	Al	0.00002 0.24876 0.00004 2.40600
H 	H 	0.16589 0.90001 0.19421 0.11300
H 	H 	0.29491 0.92397 0.14220 0.11600
C 	C 	0.17802 0.86365 0.02877 -0.08300
C 	C 	0.20317 0.89006 0.10945 0.04700
C 	C 	0.10221 0.84124 0.06188 0.48300
C 	C 	0.27479 0.90238 0.08080 0.02500
O 	O 	0.08121 0.82005 0.98566 -0.55000
O 	O 	0.06380 0.84067 0.16504 -0.55100
H 	H 	0.66579 0.64899 0.19428 0.06300
H 	H 	0.79466 0.67400 0.14225 0.04400
C 	C 	0.67800 0.61244 0.02883 -0.09800
C 	C 	0.70308 0.63922 0.10949 -0.00300
C 	C 	0.60224 0.58947 0.06195 0.47900
C 	C 	0.77466 0.65215 0.08081 0.02100
O 	O 	0.58127 0.56810 0.98575 -0.60500
O 	O 	0.56385 0.58868 0.16511 -0.61300
H 	H 	0.83411 0.90006 0.05576 0.10800
H 	H 	0.70510 0.92401 0.10773 0.11300
C 	C 	0.82196 0.86362 0.22119 -0.07500
C 	C 	0.79682 0.89006 0.14050 0.04300
C 	C 	0.89778 0.84122 0.18810 0.50200
C 	C 	0.72521 0.90239 0.16914 0.03700
O 	O 	0.91877 0.82001 0.26432 -0.58800
O 	O 	0.93620 0.84068 0.08495 -0.59700
H 	H 	0.33424 0.64895 0.05566 0.05900
H 	H 	0.20537 0.67394 0.10764 0.04500
C 	C 	0.32202 0.61247 0.22112 -0.10700
C 	C 	0.29694 0.63921 0.14045 0.00300
C 	C 	0.39777 0.58951 0.18803 0.48100
C 	C 	0.22537 0.65211 0.16910 0.00700
O 	O 	0.41874 0.56815 0.26424 -0.60400
O 	O 	0.43617 0.58870 0.08487 -0.61500
H 	H 	0.83423 0.60190 0.30574 0.05900
H 	H 	0.70536 0.57687 0.35774 0.05000
C 	C 	0.82200 0.63842 0.47119 -0.11100
C 	C 	0.79693 0.61166 0.39052 0.00600
C 	C 	0.89776 0.66140 0.43807 0.48800
C 	C 	0.72536 0.59873 0.41919 0.00500
O 	O 	0.91873 0.68277 0.51428 -0.62200
O 	O 	0.93615 0.66217 0.33490 -0.63300
H 	H 	0.33418 0.85214 0.30576 0.08100
H 	H 	0.20516 0.82813 0.35777 0.06400
C 	C 	0.32204 0.88855 0.47120 -0.06000
C 	C 	0.29690 0.86207 0.39053 0.03100
C 	C 	0.39782 0.91120 0.43808 0.49600
C 	C 	0.22528 0.84972 0.41918 0.03500
O 	O 	0.41878 0.93251 0.51432 -0.49200
O 	O 	0.43623 0.91188 0.33493 -0.52300
H 	H 	0.16581 0.60209 0.44415 0.06500
H 	H 	0.29469 0.57709 0.39216 0.05000
C 	C 	0.17804 0.63856 0.27869 -0.10400
C 	C 	0.20312 0.61182 0.35936 0.00300
C 	C 	0.10227 0.66147 0.31182 0.48300
C 	C 	0.27469 0.59892 0.33070 0.00700
O 	O 	0.08130 0.68285 0.23562 -0.59100
O 	O 	0.06388 0.66220 0.41499 -0.59200
H 	H 	0.66580 0.85210 0.44413 0.08200
H 	H 	0.79482 0.82812 0.39214 0.06300
C 	C 	0.67795 0.88854 0.27870 -0.05900
C 	C 	0.70309 0.86205 0.35937 0.02900
C 	C 	0.60217 0.91120 0.31185 0.49500
C 	C 	0.77471 0.84970 0.33073 0.03700
O 	O 	0.58121 0.93257 0.23563 -0.49200
O 	O 	0.56376 0.91183 0.41500 -0.52300
F 	F 	0.99999 0.80637 0.37501 -0.97500
F 	F 	0.49999 0.55437 0.37502 -0.97900
F 	F 	0.00000 0.69656 0.12499 -0.95800
F 	F 	0.49997 0.94630 0.12501 -0.84900
Al	Al	0.49997 0.49945 0.24997 2.40400
Al	Al	0.00001 0.75144 0.24999 2.40800
Al	Al	0.50002 0.49944 0.00004 2.40400
Al	Al	0.99999 0.75146 0.99999 2.39800
H 	H 	0.16574 0.39814 0.69427 0.06700
H 	H 	0.29468 0.42270 0.64227 0.05100
C 	C 	0.17794 0.36158 0.52884 -0.10100
C 	C 	0.20303 0.38828 0.60950 0.00400
C 	C 	0.10218 0.33875 0.56195 0.47600
C 	C 	0.27463 0.40094 0.58084 0.01100
O 	O 	0.08125 0.31733 0.48571 -0.58500
O 	O 	0.06377 0.33804 0.66510 -0.59200
H 	H 	0.66589 0.14927 0.69415 0.04600
H 	H 	0.79500 0.17260 0.64214 0.03700
C 	C 	0.67800 0.11291 0.52872 -0.15100
C 	C 	0.70317 0.13917 0.60942 -0.02200
C 	C 	0.60217 0.09075 0.56184 0.46300
C 	C 	0.77481 0.15113 0.58077 -0.01900
O 	O 	0.58116 0.06960 0.48562 -0.70700
O 	O 	0.56376 0.09030 0.66499 -0.69200
H 	H 	0.83421 0.39782 0.55580 0.06200
H 	H 	0.70526 0.42240 0.60781 0.05200
C 	C 	0.82202 0.36150 0.72128 -0.11000
C 	C 	0.79692 0.38807 0.64059 0.00600
C 	C 	0.89778 0.33868 0.68816 0.48100
C 	C 	0.72533 0.40074 0.66925 0.00800
O 	O 	0.91874 0.31730 0.76438 -0.62700
O 	O 	0.93619 0.33799 0.58500 -0.63300
H 	H 	0.33408 0.14919 0.55594 0.04500
H 	H 	0.20498 0.17253 0.60796 0.03900
C 	C 	0.32200 0.11290 0.72137 -0.15200
C 	C 	0.29681 0.13915 0.64068 -0.02100
C 	C 	0.39783 0.09076 0.68822 0.46400
C 	C 	0.22517 0.15109 0.66933 -0.02200
O 	O 	0.41884 0.06960 0.76443 -0.70600
O 	O 	0.43622 0.09028 0.58507 -0.69300
H 	H 	0.83410 0.10071 0.80583 0.01100
H 	H 	0.70499 0.07740 0.85784 -0.01000
C 	C 	0.82201 0.13702 0.97126 -0.15000
C 	C 	0.79683 0.11079 0.89056 -0.02800
C 	C 	0.89784 0.15911 0.93816 0.45600
C 	C 	0.72518 0.09886 0.91921 -0.02700
O 	O 	0.91883 0.18027 0.01441 -0.64100
O 	O 	0.93628 0.15951 0.83502 -0.67800
H 	H 	0.33413 0.35060 0.80583 0.06800
H 	H 	0.20520 0.32606 0.85784 0.05100
C 	C 	0.32195 0.38708 0.97126 -0.09300
C 	C 	0.29684 0.36047 0.89059 -0.00300
C 	C 	0.39775 0.40967 0.93814 0.48400
C 	C 	0.22525 0.34783 0.91926 0.02500
O 	O 	0.41876 0.43092 0.01432 -0.60800
O 	O 	0.43614 0.41026 0.83497 -0.61200
H 	H 	0.16590 0.10076 0.94431 0.02400
H 	H 	0.29500 0.07743 0.89230 -0.00900
C 	C 	0.17799 0.13702 0.77887 -0.13700
C 	C 	0.20317 0.11081 0.85957 -0.03300
C 	C 	0.10215 0.15910 0.81193 0.45900
C 	C 	0.27482 0.09888 0.83093 -0.02000
O 	O 	0.08117 0.18024 0.73568 -0.61800
O 	O 	0.06371 0.15952 0.91507 -0.62400
H 	H 	0.66586 0.35074 0.94431 0.06500
H 	H 	0.79480 0.32619 0.89233 0.05100
C 	C 	0.67805 0.38706 0.77883 -0.10500
C 	C 	0.70315 0.36055 0.85954 0.00400
C 	C 	0.60225 0.40965 0.81193 0.48100
C 	C 	0.77475 0.34789 0.83088 0.00900
O 	O 	0.58124 0.43084 0.73572 -0.60300
O 	O 	0.56386 0.41029 0.91509 -0.61100
F 	F 	0.00001 0.30363 0.87501 -0.94000
F 	F 	0.50001 0.05619 0.87499 -1.09200
F 	F 	0.00001 0.19373 0.62501 -0.97200
F 	F 	0.50001 0.44420 0.62499 -0.97700
Al	Al	0.50004 0.00110 0.75004 2.38300
Al	Al	0.99998 0.24873 0.75000 2.39900
Al	Al	0.49997 0.00111 0.49998 2.38300
Al	Al	0.00002 0.24875 0.50004 2.40800
H 	H 	0.16589 0.90001 0.69417 0.11400
H 	H 	0.29490 0.92398 0.64218 0.11300
C 	C 	0.17803 0.86360 0.52874 -0.06700
C 	C 	0.20317 0.89004 0.60942 0.04000
C 	C 	0.10221 0.84120 0.56186 0.49600
C 	C 	0.27479 0.90237 0.58077 0.03900
O 	O 	0.08121 0.81999 0.48565 -0.55500
O 	O 	0.06382 0.84063 0.66502 -0.55600
H 	H 	0.66581 0.64880 0.69423 0.06200
H 	H 	0.79468 0.67381 0.64224 0.04600
C 	C 	0.67803 0.61229 0.52878 -0.10600
C 	C 	0.70311 0.63905 0.60944 0.00200
C 	C 	0.60227 0.58936 0.56189 0.48100
C 	C 	0.77468 0.65198 0.58078 0.01000
O 	O 	0.58129 0.56800 0.48570 -0.60400
O 	O 	0.56388 0.58857 0.66505 -0.61400
H 	H 	0.83408 0.89990 0.55592 0.10900
H 	H 	0.70506 0.92390 0.60794 0.11300
C 	C 	0.82195 0.86355 0.72135 -0.07600
C 	C 	0.79679 0.88995 0.64067 0.04200
C 	C 	0.89777 0.84114 0.68820 0.50200
C 	C 	0.72518 0.90230 0.66934 0.03600
O 	O 	0.91879 0.81997 0.76439 -0.60200
O 	O 	0.93615 0.84056 0.58503 -0.59500
H 	H 	0.33424 0.64901 0.55580 0.06100
H 	H 	0.20537 0.67404 0.60782 0.04800
C 	C 	0.32201 0.61238 0.72122 -0.10700
C 	C 	0.29694 0.63922 0.64058 0.00400
C 	C 	0.39778 0.58942 0.68809 0.48100
C 	C 	0.22537 0.65215 0.66925 0.00700
O 	O 	0.41876 0.56804 0.76428 -0.60400
O 	O 	0.43616 0.58862 0.58493 -0.61400
H 	H 	0.83420 0.60200 0.80579 0.05700
H 	H 	0.70532 0.57698 0.85781 0.05200
C 	C 	0.82198 0.63855 0.97123 -0.12200
C 	C 	0.79690 0.61177 0.89058 0.01000
C 	C 	0.89775 0.66148 0.93811 0.47400
C 	C 	0.72533 0.59884 0.91926 -0.00300
O 	O 	0.91871 0.68287 0.01432 -0.61600
O 	O 	0.93616 0.66218 0.83495 -0.64400
H 	H 	0.33416 0.85222 0.80577 0.08300
H 	H 	0.20514 0.82823 0.85780 0.06100
C 	C 	0.32203 0.88858 0.97122 -0.05000
C 	C 	0.29689 0.86213 0.89054 0.02300
C 	C 	0.39781 0.91122 0.93811 0.49600
C 	C 	0.22526 0.84979 0.91921 0.05000
O 	O 	0.41876 0.93260 0.01434 -0.49700
O 	O 	0.43624 0.91184 0.83496 -0.52400
H 	H 	0.16581 0.60189 0.94424 0.06800
H 	H 	0.29468 0.57686 0.89223 0.05200
C 	C 	0.17804 0.63852 0.77882 -0.10300
C 	C 	0.20311 0.61170 0.85946 0.00300
C 	C 	0.10228 0.66147 0.81193 0.48100
C 	C 	0.27468 0.59877 0.83079 0.00800
O 	O 	0.08131 0.68285 0.73571 -0.59200
O 	O 	0.06387 0.66221 0.91509 -0.59200
H 	H 	0.66581 0.85215 0.94436 0.08000
H 	H 	0.79483 0.82813 0.89233 0.05900
C 	C 	0.67794 0.88851 0.77891 -0.06000
C 	C 	0.70309 0.86206 0.85959 0.02800
C 	C 	0.60216 0.91117 0.81201 0.49500
C 	C 	0.77471 0.84969 0.83092 0.03700
O 	O 	0.58122 0.93250 0.73575 -0.49300
O 	O 	0.56374 0.91184 0.91515 -0.52500
F 	F 	0.00001 0.80639 0.87499 -0.91400
F 	F 	0.50002 0.55438 0.87498 -0.97800
F 	F 	0.00002 0.69652 0.62499 -0.94500
F 	F 	0.50002 0.94622 0.62500 -0.84800
Al	Al	0.50000 0.49937 0.74996 2.40400
Al	Al	0.00003 0.75141 0.75001 2.40700
Al	Al	0.50003 0.49937 0.50002 2.40400
Al	Al	0.99998 0.75140 0.49998 2.40000
