data_crystal

_cell_length_a 13.70900
_cell_length_b 13.70900
_cell_length_c 15.43600
_cell_angle_alpha 90.00000
_cell_angle_beta  90.00000
_cell_angle_gamma 120.00000

_symmetry_space_group_name_	'P 1'
_symmetry_space_group_name_H-M	'P 1'

loop_
_symmetry_equiv_pos_as_xyz
  x,y,z

loop_
_atom_site_label
_atom_site_type_symbol
_atom_site_fract_x
_atom_site_fract_y
_atom_site_fract_z
_atom_site_charge
Al	Al	0.42950 0.10340 0.23870 2.38900
P 	P 	0.65830 0.09610 0.22730 0.82600
O 	O 	0.54800 0.08990 0.20770 -0.79200
O 	O 	0.75260 0.21620 0.22030 -0.85500
O 	O 	0.65630 0.05000 0.31770 -0.80600
O 	O 	0.67240 0.02250 0.16190 -0.76700
Al	Al	0.09617 0.43673 0.57203 2.38800
P 	P 	0.32497 0.42943 0.56063 0.82500
O 	O 	0.21467 0.42323 0.54103 -0.79000
O 	O 	0.41927 0.54953 0.55363 -0.85300
O 	O 	0.32297 0.38333 0.65103 -0.80500
O 	O 	0.33907 0.35583 0.49523 -0.76300
Al	Al	0.76283 0.77007 0.90537 2.38800
P 	P 	0.99163 0.76277 0.89397 0.83500
O 	O 	0.88133 0.75657 0.87437 -0.79100
O 	O 	0.08593 0.88287 0.88697 -0.86400
O 	O 	0.98963 0.71667 0.98437 -0.80400
O 	O 	0.00573 0.68917 0.82857 -0.77000
Al	Al	0.89660 0.32610 0.23870 2.38800
P 	P 	0.90390 0.56220 0.22730 0.82500
O 	O 	0.91010 0.45810 0.20770 -0.79200
O 	O 	0.78380 0.53640 0.22030 -0.85400
O 	O 	0.95000 0.60630 0.31770 -0.80600
O 	O 	0.97750 0.64990 0.16190 -0.76600
Al	Al	0.56327 0.65943 0.57203 2.38800
P 	P 	0.57057 0.89553 0.56063 0.82500
O 	O 	0.57677 0.79143 0.54103 -0.79000
O 	O 	0.45047 0.86973 0.55363 -0.85300
O 	O 	0.61667 0.93963 0.65103 -0.80500
O 	O 	0.64417 0.98323 0.49523 -0.76200
Al	Al	0.22993 0.99277 0.90537 2.38800
P 	P 	0.23723 0.22887 0.89397 0.82500
O 	O 	0.24343 0.12477 0.87437 -0.78900
O 	O 	0.11713 0.20307 0.88697 -0.85500
O 	O 	0.28333 0.27297 0.98437 -0.80600
O 	O 	0.31083 0.31657 0.82857 -0.76300
Al	Al	0.67390 0.57050 0.23870 2.38800
P 	P 	0.43780 0.34170 0.22730 0.82500
O 	O 	0.54190 0.45200 0.20770 -0.79100
O 	O 	0.46360 0.24740 0.22030 -0.85400
O 	O 	0.39370 0.34370 0.31770 -0.80500
O 	O 	0.35010 0.32760 0.16190 -0.76300
Al	Al	0.34057 0.90383 0.57203 2.38800
P 	P 	0.10447 0.67503 0.56063 0.82500
O 	O 	0.20857 0.78533 0.54103 -0.79000
O 	O 	0.13027 0.58073 0.55363 -0.85300
O 	O 	0.06037 0.67703 0.65103 -0.80600
O 	O 	0.01677 0.66093 0.49523 -0.76200
Al	Al	0.00723 0.23717 0.90537 2.38800
P 	P 	0.77113 0.00837 0.89397 0.83500
O 	O 	0.87523 0.11867 0.87437 -0.78600
O 	O 	0.79693 0.91407 0.88697 -0.85900
O 	O 	0.72703 0.01037 0.98437 -0.79900
O 	O 	0.68343 0.99427 0.82857 -0.76900
Al	Al	0.57050 0.89660 0.76130 2.38800
P 	P 	0.34170 0.90390 0.77270 0.82500
O 	O 	0.45200 0.91010 0.79230 -0.79200
O 	O 	0.24740 0.78380 0.77970 -0.85500
O 	O 	0.34370 0.95000 0.68230 -0.80600
O 	O 	0.32760 0.97750 0.83810 -0.76700
Al	Al	0.23717 0.22993 0.09463 2.38800
P 	P 	0.00837 0.23723 0.10603 0.83500
O 	O 	0.11867 0.24343 0.12563 -0.79100
O 	O 	0.91407 0.11713 0.11303 -0.86400
O 	O 	0.01037 0.28333 0.01563 -0.80400
O 	O 	0.99427 0.31083 0.17143 -0.77000
Al	Al	0.90383 0.56327 0.42797 2.38800
P 	P 	0.67503 0.57057 0.43937 0.82500
O 	O 	0.78533 0.57677 0.45897 -0.79000
O 	O 	0.58073 0.45047 0.44637 -0.85300
O 	O 	0.67703 0.61667 0.34897 -0.80500
O 	O 	0.66093 0.64417 0.50477 -0.76300
Al	Al	0.10340 0.67390 0.76130 2.38800
P 	P 	0.09610 0.43780 0.77270 0.82500
O 	O 	0.08990 0.54190 0.79230 -0.79200
O 	O 	0.21620 0.46360 0.77970 -0.85400
O 	O 	0.05000 0.39370 0.68230 -0.80600
O 	O 	0.02250 0.35010 0.83810 -0.76600
Al	Al	0.77007 0.00723 0.09463 2.38800
P 	P 	0.76277 0.77113 0.10603 0.82500
O 	O 	0.75657 0.87523 0.12563 -0.78900
O 	O 	0.88287 0.79693 0.11303 -0.85500
O 	O 	0.71667 0.72703 0.01563 -0.80600
O 	O 	0.68917 0.68343 0.17143 -0.76300
Al	Al	0.43673 0.34057 0.42797 2.38800
P 	P 	0.42943 0.10447 0.43937 0.82500
O 	O 	0.42323 0.20857 0.45897 -0.79000
O 	O 	0.54953 0.13027 0.44637 -0.85300
O 	O 	0.38333 0.06037 0.34897 -0.80500
O 	O 	0.35583 0.01677 0.50477 -0.76200
Al	Al	0.32610 0.42950 0.76130 2.38800
P 	P 	0.56220 0.65830 0.77270 0.82500
O 	O 	0.45810 0.54800 0.79230 -0.79100
O 	O 	0.53640 0.75260 0.77970 -0.85400
O 	O 	0.60630 0.65630 0.68230 -0.80500
O 	O 	0.64990 0.67240 0.83810 -0.76300
Al	Al	0.99277 0.76283 0.09463 2.38800
P 	P 	0.22887 0.99163 0.10603 0.83500
O 	O 	0.12477 0.88133 0.12563 -0.78600
O 	O 	0.20307 0.08593 0.11303 -0.85900
O 	O 	0.27297 0.98963 0.01563 -0.79900
O 	O 	0.31657 0.00573 0.17143 -0.76900
Al	Al	0.65943 0.09617 0.42797 2.38800
P 	P 	0.89553 0.32497 0.43937 0.82500
O 	O 	0.79143 0.21467 0.45897 -0.79000
O 	O 	0.86973 0.41927 0.44637 -0.85300
O 	O 	0.93963 0.32297 0.34897 -0.80600
O 	O 	0.98323 0.33907 0.50477 -0.76200
