data_crystal

_cell_length_a 6.73400
_cell_length_b 11.06200
_cell_length_c 11.18090
_cell_angle_alpha 119.64900
_cell_angle_beta  107.52600
_cell_angle_gamma 90.00000

_symmetry_space_group_name_	'P 1'
_symmetry_space_group_name_H-M	'P 1'

loop_
_symmetry_equiv_pos_as_xyz
  x,y,z

loop_
_atom_site_label
_atom_site_type_symbol
_atom_site_fract_x
_atom_site_fract_y
_atom_site_fract_z
_atom_site_charge
Ga	Ga	0.00000 0.50000 -0.00000 2.04600
Ga	Ga	0.50000 0.50000 -0.00000 2.06700
H 	H 	0.84850 0.51220 0.61480 0.11300
H 	H 	0.65150 0.89740 0.38520 0.15000
H 	H 	0.73370 0.48780 0.38520 0.03600
H 	H 	0.76630 0.10260 0.61480 -0.06100
H 	H 	0.15150 0.48780 0.38520 -0.01300
H 	H 	0.34850 0.10260 0.61480 -0.05100
H 	H 	0.26630 0.51220 0.61480 0.06700
H 	H 	0.23370 0.89740 0.38520 0.16700
H 	H 	0.75000 0.34700 -0.00000 0.42600
H 	H 	0.25000 0.65300 -0.00000 0.38700
C 	C 	0.70560 0.50710 0.56940 -0.06900
C 	C 	0.79440 0.93770 0.43060 -0.32300
C 	C 	0.63620 0.49290 0.43060 0.07800
C 	C 	0.86380 0.06230 0.56940 0.42000
C 	C 	0.29440 0.49290 0.43060 0.07200
C 	C 	0.20560 0.06230 0.56940 0.33300
C 	C 	0.36380 0.50710 0.56940 -0.07600
C 	C 	0.13620 0.93770 0.43060 -0.44000
C 	C 	0.56870 0.51350 0.63740 -0.03000
C 	C 	0.64420 0.52810 0.78840 0.49200
C 	C 	0.93130 0.87610 0.36260 0.25000
C 	C 	0.85580 0.73970 0.21160 0.42800
C 	C 	0.43130 0.48650 0.36260 -0.20200
C 	C 	0.35580 0.47190 0.21160 0.58300
C 	C 	0.06870 0.12390 0.63740 -0.46800
C 	C 	0.14420 0.26030 0.78840 0.64300
O 	O 	0.83180 0.53250 0.84200 -0.43200
O 	O 	0.66820 0.69050 0.15800 -0.63200
O 	O 	0.48980 0.46750 0.15800 -0.67600
O 	O 	0.01020 0.30950 0.84200 -0.56400
O 	O 	0.16820 0.46750 0.15800 -0.71800
O 	O 	0.33180 0.30950 0.84200 -0.51500
O 	O 	0.51020 0.53250 0.84200 -0.47500
O 	O 	0.98980 0.69050 0.15800 -0.56800
O 	O 	0.75000 0.42080 -0.00000 -1.19500
O 	O 	0.25000 0.57920 -0.00000 -1.25000
