data_crystal

_cell_length_a 8.64900
_cell_length_b 14.76300
_cell_length_c 16.03300
_cell_angle_alpha 104.34400
_cell_angle_beta  97.34900
_cell_angle_gamma 105.90700

_symmetry_space_group_name_	'P 1'
_symmetry_space_group_name_H-M	'P 1'

loop_
_symmetry_equiv_pos_as_xyz
  x,y,z

loop_
_atom_site_label
_atom_site_type_symbol
_atom_site_fract_x
_atom_site_fract_y
_atom_site_fract_z
_atom_site_charge
Na	Na	0.23130 0.23530 0.86830 0.58300
Na	Na	0.39490 0.12460 0.64810 0.58600
Na	Na	0.76870 0.76470 0.13170 0.58300
Na	Na	0.60510 0.87540 0.35190 0.58600
Cd	Cd	0.23621 0.53458 0.00184 1.24000
Cd	Cd	0.67201 0.18731 0.86071 1.23800
Cd	Cd	0.25584 0.95802 0.43262 1.23700
Cd	Cd	0.76379 0.46542 0.99816 1.24100
Cd	Cd	0.32799 0.81269 0.13929 1.23900
Cd	Cd	0.74416 0.04198 0.56738 1.23700
H 	H 	0.35200 0.56880 0.75100 0.13200
H 	H 	0.54530 0.43810 0.55970 0.16300
H 	H 	0.59650 0.33720 0.64120 -0.01900
H 	H 	0.35060 0.69030 0.52340 0.11400
H 	H 	0.61710 0.69280 0.75040 0.13400
H 	H 	0.68400 0.86280 0.80030 0.00900
H 	H 	0.85640 0.51650 0.71790 0.11700
H 	H 	0.15710 0.76150 0.68390 0.13600
H 	H 	0.27360 0.81490 0.83320 0.01200
H 	H 	0.86680 0.76120 0.61600 0.13500
H 	H 	0.97710 0.55330 0.44780 0.15000
H 	H 	0.97240 0.63840 0.34260 0.00100
H 	H 	0.64800 0.43120 0.24900 0.13200
H 	H 	0.45470 0.56190 0.44030 0.16300
H 	H 	0.40350 0.66280 0.35880 -0.01900
H 	H 	0.64940 0.30970 0.47660 0.11400
H 	H 	0.38290 0.30720 0.24960 0.13400
H 	H 	0.31600 0.13720 0.19970 0.00900
H 	H 	0.14360 0.48350 0.28210 0.11700
H 	H 	0.84290 0.23850 0.31610 0.13600
H 	H 	0.72640 0.18510 0.16680 0.01200
H 	H 	0.13320 0.23880 0.38400 0.13500
H 	H 	0.02290 0.44670 0.55220 0.15000
H 	H 	0.02760 0.36160 0.65740 0.00100
C 	C 	0.36830 0.47400 0.86300 0.26200
C 	C 	0.43230 0.46240 0.77780 0.08600
C 	C 	0.40360 0.52290 0.72980 -0.23700
C 	C 	0.45170 0.51600 0.64820 0.30200
C 	C 	0.51900 0.44530 0.61490 -0.28800
C 	C 	0.54810 0.38430 0.66380 0.15600
C 	C 	0.50730 0.39110 0.74590 -0.17700
C 	C 	0.55700 0.32910 0.79930 0.39500
C 	C 	0.39890 0.87530 0.54520 0.27600
C 	C 	0.46240 0.82750 0.60860 0.03500
C 	C 	0.41710 0.72520 0.57880 -0.19100
C 	C 	0.47400 0.67570 0.63440 0.26500
C 	C 	0.57600 0.72640 0.71570 -0.25700
C 	C 	0.61650 0.82820 0.74510 0.12600
C 	C 	0.55660 0.88000 0.69220 -0.14700
C 	C 	0.60660 0.99070 0.72590 0.36500
C 	C 	0.93270 0.55210 0.88770 0.27400
C 	C 	0.00660 0.61220 0.83110 0.04100
C 	C 	0.93870 0.57720 0.74130 -0.19100
C 	C 	0.99500 0.63390 0.68620 0.25800
C 	C 	0.11990 0.72370 0.72020 -0.24900
C 	C 	0.18820 0.75560 0.81010 0.12200
C 	C 	0.13380 0.70250 0.86580 -0.14700
C 	C 	0.20890 0.74260 0.96210 0.35400
C 	C 	0.85120 0.88470 0.52610 0.25700
C 	C 	0.88580 0.78990 0.49990 0.05900
C 	C 	0.88860 0.73700 0.56100 -0.22400
C 	C 	0.92280 0.65060 0.54080 0.28500
C 	C 	0.95360 0.61250 0.46060 -0.25800
C 	C 	0.94950 0.66340 0.39720 0.13300
C 	C 	0.91150 0.75090 0.41570 -0.16900
C 	C 	0.91340 0.79700 0.34400 0.35500
C 	C 	0.63170 0.52600 0.13700 0.26200
C 	C 	0.56770 0.53760 0.22220 0.08600
C 	C 	0.59640 0.47710 0.27020 -0.23700
C 	C 	0.54830 0.48400 0.35180 0.30200
C 	C 	0.48100 0.55470 0.38510 -0.28800
C 	C 	0.45190 0.61570 0.33620 0.15600
C 	C 	0.49270 0.60890 0.25410 -0.17700
C 	C 	0.44300 0.67090 0.20070 0.39500
C 	C 	0.60110 0.12470 0.45480 0.27600
C 	C 	0.53760 0.17250 0.39140 0.03500
C 	C 	0.58290 0.27480 0.42120 -0.19100
C 	C 	0.52600 0.32430 0.36560 0.26500
C 	C 	0.42400 0.27360 0.28430 -0.25700
C 	C 	0.38350 0.17180 0.25490 0.12600
C 	C 	0.44340 0.12000 0.30780 -0.14700
C 	C 	0.39340 0.00930 0.27410 0.36500
C 	C 	0.06730 0.44790 0.11230 0.27400
C 	C 	0.99340 0.38780 0.16890 0.04100
C 	C 	0.06130 0.42280 0.25870 -0.19100
C 	C 	0.00500 0.36610 0.31380 0.25800
C 	C 	0.88010 0.27630 0.27980 -0.24900
C 	C 	0.81180 0.24440 0.18990 0.12200
C 	C 	0.86620 0.29750 0.13420 -0.14700
C 	C 	0.79110 0.25740 0.03790 0.35400
C 	C 	0.14880 0.11530 0.47390 0.25700
C 	C 	0.11420 0.21010 0.50010 0.05900
C 	C 	0.11140 0.26300 0.43900 -0.22400
C 	C 	0.07720 0.34940 0.45920 0.28500
C 	C 	0.04640 0.38750 0.53940 -0.25800
C 	C 	0.05050 0.33660 0.60280 0.13300
C 	C 	0.08850 0.24910 0.58430 -0.16900
C 	C 	0.08660 0.20300 0.65600 0.35500
O 	O 	0.41180 0.56220 0.91400 -0.38600
O 	O 	0.26910 0.40490 0.87710 -0.37200
O 	O 	0.56600 0.35420 0.88100 -0.48500
O 	O 	0.58380 0.25330 0.75840 -0.47900
O 	O 	0.42160 0.57460 0.59820 -0.30500
O 	O 	0.47510 0.89110 0.48610 -0.45500
O 	O 	0.26550 0.89200 0.54980 -0.38000
O 	O 	0.58660 0.03830 0.67320 -0.48500
O 	O 	0.66460 0.03020 0.80820 -0.39700
O 	O 	0.97930 0.48060 0.89690 -0.41700
O 	O 	0.81970 0.57370 0.92130 -0.38400
O 	O 	0.18770 0.68290 0.00830 -0.49600
O 	O 	0.28010 0.83170 0.99620 -0.36700
O 	O 	0.91960 0.59230 0.59860 -0.29700
O 	O 	0.85150 0.92290 0.60480 -0.34800
O 	O 	0.82290 0.92620 0.46770 -0.41900
O 	O 	0.05910 0.84000 0.33110 -0.39700
O 	O 	0.78580 0.78690 0.29220 -0.35000
O 	O 	0.93510 0.24710 0.83280 -0.29300
O 	O 	0.39010 0.11710 0.86200 -0.32800
O 	O 	0.58820 0.43780 0.08600 -0.38600
O 	O 	0.73090 0.59510 0.12290 -0.37200
O 	O 	0.43400 0.64580 0.11900 -0.48500
O 	O 	0.41620 0.74670 0.24160 -0.47900
O 	O 	0.57840 0.42540 0.40180 -0.30500
O 	O 	0.52490 0.10890 0.51390 -0.45500
O 	O 	0.73450 0.10800 0.45020 -0.38000
O 	O 	0.41340 0.96170 0.32680 -0.48500
O 	O 	0.33540 0.96980 0.19180 -0.39700
O 	O 	0.02070 0.51940 0.10310 -0.41700
O 	O 	0.18030 0.42630 0.07870 -0.38400
O 	O 	0.81230 0.31710 0.99170 -0.49600
O 	O 	0.71990 0.16830 0.00380 -0.36700
O 	O 	0.08040 0.40770 0.40140 -0.29700
O 	O 	0.14850 0.07710 0.39520 -0.34800
O 	O 	0.17710 0.07380 0.53230 -0.41900
O 	O 	0.94090 0.16000 0.66890 -0.39700
O 	O 	0.21420 0.21310 0.70780 -0.35000
O 	O 	0.06490 0.75290 0.16720 -0.29300
O 	O 	0.60990 0.88290 0.13800 -0.32800
