data_crystal

_cell_length_a 15.86350
_cell_length_b 15.86350
_cell_length_c 20.06000
_cell_angle_alpha 84.22630
_cell_angle_beta  84.22630
_cell_angle_gamma 71.39960

_symmetry_space_group_name_	'P 1'
_symmetry_space_group_name_H-M	'P 1'

loop_
_symmetry_equiv_pos_as_xyz
  x,y,z

loop_
_atom_site_label
_atom_site_type_symbol
_atom_site_fract_x
_atom_site_fract_y
_atom_site_fract_z
_atom_site_charge
Cd	Cd	0.72085 0.67837 0.81164 1.21900
Cd	Cd	0.82758 0.82352 0.73118 1.20900
Cd	Cd	0.32163 0.27915 0.68836 1.21900
Cd	Cd	0.17648 0.17242 0.76882 1.20900
Cd	Cd	0.27915 0.32163 0.18836 1.22000
Cd	Cd	0.17242 0.17648 0.26882 1.21000
Cd	Cd	0.67837 0.72085 0.31164 1.22000
Cd	Cd	0.82352 0.82758 0.23118 1.21000
H 	H 	0.96660 0.83020 0.89350 0.06700
H 	H 	0.05690 0.75130 0.89700 0.07800
H 	H 	0.06580 0.78960 0.99790 0.03000
H 	H 	0.96710 0.85470 0.99960 0.01200
H 	H 	0.01510 0.66190 0.04080 0.16100
H 	H 	0.82620 0.68780 0.06540 0.37300
H 	H 	0.79910 0.68310 0.99320 0.35200
H 	H 	0.88610 0.61390 0.01960 0.35300
H 	H 	0.83540 0.85500 0.93870 0.33600
H 	H 	0.76910 0.81370 0.98290 0.33000
H 	H 	0.82300 0.86340 0.01650 0.34000
H 	H 	0.06460 0.63120 0.88710 0.10900
H 	H 	0.03120 0.59040 0.95520 0.08500
H 	H 	0.99010 0.58550 0.88830 0.10500
H 	H 	0.97460 0.63480 0.62190 0.07200
H 	H 	0.93860 0.59760 0.56480 0.06000
H 	H 	0.07270 0.50350 0.54500 0.01700
H 	H 	0.10750 0.53690 0.60530 0.03700
H 	H 	0.03250 0.38970 0.61430 0.09900
H 	H 	0.89410 0.41250 0.73580 0.25000
H 	H 	0.98720 0.34020 0.72390 0.22300
H 	H 	0.96840 0.39900 0.78530 0.24700
H 	H 	0.84960 0.51440 0.58410 0.14800
H 	H 	0.90340 0.42560 0.62270 0.14100
H 	H 	0.81150 0.48410 0.65430 0.15300
H 	H 	0.54930 0.75410 0.59170 0.07500
H 	H 	0.66290 0.72570 0.65910 -0.03400
H 	H 	0.53070 0.65290 0.81430 -0.01000
H 	H 	0.40350 0.68750 0.75140 0.09000
H 	H 	0.10170 0.80730 0.54740 0.06700
H 	H 	0.95520 0.82860 0.58430 -0.02700
H 	H 	0.02100 0.76700 0.76890 -0.00400
H 	H 	0.17200 0.73700 0.73390 0.08600
H 	H 	0.36340 0.80720 0.43430 0.07500
H 	H 	0.47460 0.79840 0.35070 -0.00400
H 	H 	0.64370 0.60730 0.45090 -0.00600
H 	H 	0.53880 0.60580 0.53600 0.07900
H 	H 	0.26320 0.74780 0.51480 0.11600
H 	H 	0.16980 0.03340 0.60650 0.06500
H 	H 	0.24870 0.94310 0.60300 0.07600
H 	H 	0.21040 0.93420 0.50210 0.03200
H 	H 	0.14530 0.03290 0.50040 0.01500
H 	H 	0.33810 0.98490 0.45920 0.16300
H 	H 	0.31220 0.17380 0.43460 0.37600
H 	H 	0.31690 0.20090 0.50680 0.35600
H 	H 	0.38610 0.11390 0.48040 0.35600
H 	H 	0.14500 0.16460 0.56130 0.33500
H 	H 	0.18630 0.23090 0.51710 0.33000
H 	H 	0.13660 0.17700 0.48350 0.33800
H 	H 	0.36880 0.93540 0.61290 0.11100
H 	H 	0.40960 0.96880 0.54480 0.08600
H 	H 	0.41450 0.00990 0.61170 0.10800
H 	H 	0.36520 0.02540 0.87810 0.07200
H 	H 	0.40240 0.06140 0.93520 0.06000
H 	H 	0.49650 0.92730 0.95500 0.01700
H 	H 	0.46310 0.89250 0.89470 0.03700
H 	H 	0.61030 0.96750 0.88570 0.09900
H 	H 	0.58750 0.10590 0.76420 0.25100
H 	H 	0.65980 0.01280 0.77610 0.22400
H 	H 	0.60100 0.03160 0.71470 0.24800
H 	H 	0.48560 0.15040 0.91590 0.14800
H 	H 	0.57440 0.09660 0.87730 0.14100
H 	H 	0.51590 0.18850 0.84570 0.15200
H 	H 	0.24590 0.45070 0.90830 0.07500
H 	H 	0.27430 0.33710 0.84090 -0.03400
H 	H 	0.34710 0.46930 0.68570 -0.01000
H 	H 	0.31250 0.59650 0.74860 0.09000
H 	H 	0.19270 0.89830 0.95260 0.06800
H 	H 	0.17140 0.04480 0.91570 -0.02700
H 	H 	0.23300 0.97900 0.73110 -0.00400
H 	H 	0.26300 0.82800 0.76610 0.08600
H 	H 	0.19280 0.63660 0.06570 0.07500
H 	H 	0.20160 0.52540 0.14930 -0.00400
H 	H 	0.39270 0.35630 0.04910 -0.00700
H 	H 	0.39420 0.46120 0.96400 0.08000
H 	H 	0.25220 0.73680 0.98520 0.11600
H 	H 	0.03340 0.16980 0.10650 0.06700
H 	H 	0.94310 0.24870 0.10300 0.07800
H 	H 	0.93420 0.21040 0.00210 0.03000
H 	H 	0.03290 0.14530 0.00040 0.01200
H 	H 	0.98490 0.33810 0.95920 0.16100
H 	H 	0.17380 0.31220 0.93460 0.37300
H 	H 	0.20090 0.31690 0.00680 0.35200
H 	H 	0.11390 0.38610 0.98040 0.35300
H 	H 	0.16460 0.14500 0.06130 0.33600
H 	H 	0.23090 0.18630 0.01710 0.33000
H 	H 	0.17700 0.13660 0.98350 0.34000
H 	H 	0.93540 0.36880 0.11290 0.10900
H 	H 	0.96880 0.40960 0.04480 0.08500
H 	H 	0.00990 0.41450 0.11170 0.10500
H 	H 	0.02540 0.36520 0.37810 0.07200
H 	H 	0.06140 0.40240 0.43520 0.06000
H 	H 	0.92730 0.49650 0.45500 0.01700
H 	H 	0.89250 0.46310 0.39470 0.03700
H 	H 	0.96750 0.61030 0.38570 0.09900
H 	H 	0.10590 0.58750 0.26420 0.25000
H 	H 	0.01280 0.65980 0.27610 0.22300
H 	H 	0.03160 0.60100 0.21470 0.24700
H 	H 	0.15040 0.48560 0.41590 0.14800
H 	H 	0.09660 0.57440 0.37730 0.14100
H 	H 	0.18850 0.51590 0.34570 0.15300
H 	H 	0.45070 0.24590 0.40830 0.07500
H 	H 	0.33710 0.27430 0.34090 -0.03400
H 	H 	0.46930 0.34710 0.18570 -0.01000
H 	H 	0.59650 0.31250 0.24860 0.09000
H 	H 	0.89830 0.19270 0.45260 0.06700
H 	H 	0.04480 0.17140 0.41570 -0.02700
H 	H 	0.97900 0.23300 0.23110 -0.00400
H 	H 	0.82800 0.26300 0.26610 0.08600
H 	H 	0.63660 0.19280 0.56570 0.07500
H 	H 	0.52540 0.20160 0.64930 -0.00400
H 	H 	0.35630 0.39270 0.54910 -0.00600
H 	H 	0.46120 0.39420 0.46400 0.07900
H 	H 	0.73680 0.25220 0.48520 0.11600
H 	H 	0.83020 0.96660 0.39350 0.06500
H 	H 	0.75130 0.05690 0.39700 0.07600
H 	H 	0.78960 0.06580 0.49790 0.03200
H 	H 	0.85470 0.96710 0.49960 0.01500
H 	H 	0.66190 0.01510 0.54080 0.16300
H 	H 	0.68780 0.82620 0.56540 0.37600
H 	H 	0.68310 0.79910 0.49320 0.35600
H 	H 	0.61390 0.88610 0.51960 0.35600
H 	H 	0.85500 0.83540 0.43870 0.33500
H 	H 	0.81370 0.76910 0.48290 0.33000
H 	H 	0.86340 0.82300 0.51650 0.33800
H 	H 	0.63120 0.06460 0.38710 0.11100
H 	H 	0.59040 0.03120 0.45520 0.08600
H 	H 	0.58550 0.99010 0.38830 0.10800
H 	H 	0.63480 0.97460 0.12190 0.07200
H 	H 	0.59760 0.93860 0.06480 0.06000
H 	H 	0.50350 0.07270 0.04500 0.01700
H 	H 	0.53690 0.10750 0.10530 0.03700
H 	H 	0.38970 0.03250 0.11430 0.09900
H 	H 	0.41250 0.89410 0.23580 0.25100
H 	H 	0.34020 0.98720 0.22390 0.22400
H 	H 	0.39900 0.96840 0.28530 0.24800
H 	H 	0.51440 0.84960 0.08410 0.14800
H 	H 	0.42560 0.90340 0.12270 0.14100
H 	H 	0.48410 0.81150 0.15430 0.15200
H 	H 	0.75410 0.54930 0.09170 0.07500
H 	H 	0.72570 0.66290 0.15910 -0.03400
H 	H 	0.65290 0.53070 0.31430 -0.01000
H 	H 	0.68750 0.40350 0.25140 0.09000
H 	H 	0.80730 0.10170 0.04740 0.06800
H 	H 	0.82860 0.95520 0.08430 -0.02700
H 	H 	0.76700 0.02100 0.26890 -0.00400
H 	H 	0.73700 0.17200 0.23390 0.08600
H 	H 	0.80720 0.36340 0.93430 0.07500
H 	H 	0.79840 0.47460 0.85070 -0.00400
H 	H 	0.60730 0.64370 0.95090 -0.00700
H 	H 	0.60580 0.53880 0.03600 0.08000
H 	H 	0.74780 0.26320 0.01480 0.11600
C 	C 	0.90135 0.73655 0.99170 0.62400
C 	C 	0.94513 0.70693 0.92353 -0.17700
C 	C 	0.99796 0.77576 0.91900 -0.14100
C 	C 	0.00485 0.79485 0.99060 0.01800
C 	C 	0.97217 0.72197 0.03848 -0.43400
C 	C 	0.84827 0.67467 0.02010 -1.10100
C 	C 	0.82500 0.82560 0.98150 -1.05300
C 	C 	0.94968 0.76588 0.10350 0.42100
C 	C 	0.88205 0.71905 0.87030 0.39700
C 	C 	0.01371 0.62111 0.91260 -0.25900
C 	C 	0.99123 0.46763 0.69610 0.25100
C 	C 	0.91216 0.53656 0.66195 -0.04900
C 	C 	0.96917 0.58117 0.60595 -0.14800
C 	C 	0.06136 0.51516 0.59220 0.01000
C 	C 	0.05671 0.42631 0.63860 -0.27800
C 	C 	0.95704 0.39844 0.73930 -0.71900
C 	C 	0.03381 0.51061 0.74540 -0.08200
C 	C 	0.84965 0.60245 0.70330 0.36700
C 	C 	0.14977 0.37337 0.65950 0.42500
C 	C 	0.86483 0.48543 0.62760 -0.42000
C 	C 	0.38628 0.72248 0.62701 0.00300
C 	C 	0.37600 0.72500 0.55830 0.03300
C 	C 	0.24860 0.74840 0.61730 0.08700
C 	C 	0.46168 0.71528 0.66380 0.08400
C 	C 	0.54282 0.73362 0.63640 -0.16700
C 	C 	0.60892 0.71992 0.67830 0.10300
C 	C 	0.53208 0.67768 0.77030 0.07300
C 	C 	0.45671 0.69311 0.73050 -0.14400
C 	C 	0.15231 0.76591 0.63625 0.05300
C 	C 	0.08677 0.79637 0.59273 -0.13800
C 	C 	0.99861 0.81101 0.61520 0.07000
C 	C 	0.03688 0.77408 0.72331 0.06800
C 	C 	0.12901 0.75561 0.70272 -0.13400
C 	C 	0.44033 0.71373 0.50012 0.05600
C 	C 	0.42017 0.76717 0.43955 -0.13900
C 	C 	0.48603 0.75883 0.38870 0.06100
C 	C 	0.58601 0.64581 0.44710 0.07500
C 	C 	0.52497 0.64797 0.49980 -0.14600
C 	C 	0.26345 0.09865 0.50830 0.62900
C 	C 	0.29307 0.05487 0.57647 -0.17600
C 	C 	0.22424 0.00204 0.58100 -0.13500
C 	C 	0.20515 0.99515 0.50940 0.01100
C 	C 	0.27803 0.02783 0.46152 -0.43700
C 	C 	0.32533 0.15173 0.47990 -1.11200
C 	C 	0.17440 0.17500 0.51850 -1.05100
C 	C 	0.23412 0.05032 0.39650 0.42000
C 	C 	0.28095 0.11795 0.62970 0.39700
C 	C 	0.37889 0.98629 0.58740 -0.26600
C 	C 	0.53237 0.00877 0.80390 0.25300
C 	C 	0.46344 0.08784 0.83805 -0.05000
C 	C 	0.41883 0.03083 0.89405 -0.14700
C 	C 	0.48484 0.93864 0.90780 0.00900
C 	C 	0.57369 0.94329 0.86140 -0.27900
C 	C 	0.60156 0.04296 0.76070 -0.72100
C 	C 	0.48939 0.96619 0.75460 -0.08300
C 	C 	0.39755 0.15035 0.79670 0.36800
C 	C 	0.62663 0.85023 0.84050 0.42600
C 	C 	0.51457 0.13517 0.87240 -0.42000
C 	C 	0.27752 0.61372 0.87299 0.00300
C 	C 	0.27500 0.62400 0.94170 0.03200
C 	C 	0.25160 0.75140 0.88270 0.08700
C 	C 	0.28472 0.53832 0.83620 0.08400
C 	C 	0.26638 0.45718 0.86360 -0.16700
C 	C 	0.28008 0.39108 0.82170 0.10300
C 	C 	0.32232 0.46792 0.72970 0.07300
C 	C 	0.30689 0.54329 0.76950 -0.14400
C 	C 	0.23409 0.84769 0.86375 0.05300
C 	C 	0.20363 0.91323 0.90727 -0.13900
C 	C 	0.18899 0.00139 0.88480 0.07100
C 	C 	0.22592 0.96312 0.77669 0.06700
C 	C 	0.24439 0.87099 0.79728 -0.13400
C 	C 	0.28627 0.55967 0.99988 0.05800
C 	C 	0.23283 0.57983 0.06045 -0.14100
C 	C 	0.24117 0.51397 0.11130 0.06200
C 	C 	0.35419 0.41399 0.05290 0.07700
C 	C 	0.35203 0.47503 0.00020 -0.14900
C 	C 	0.09865 0.26345 0.00830 0.62400
C 	C 	0.05487 0.29307 0.07647 -0.17700
C 	C 	0.00204 0.22424 0.08100 -0.14100
C 	C 	0.99515 0.20515 0.00940 0.01800
C 	C 	0.02783 0.27803 0.96152 -0.43400
C 	C 	0.15173 0.32533 0.97990 -1.10100
C 	C 	0.17500 0.17440 0.01850 -1.05300
C 	C 	0.05032 0.23412 0.89650 0.42100
C 	C 	0.11795 0.28095 0.12970 0.39700
C 	C 	0.98629 0.37889 0.08740 -0.25900
C 	C 	0.00877 0.53237 0.30390 0.25100
C 	C 	0.08784 0.46344 0.33805 -0.04900
C 	C 	0.03083 0.41883 0.39405 -0.14800
C 	C 	0.93864 0.48484 0.40780 0.01000
C 	C 	0.94329 0.57369 0.36140 -0.27800
C 	C 	0.04296 0.60156 0.26070 -0.71900
C 	C 	0.96619 0.48939 0.25460 -0.08200
C 	C 	0.15035 0.39755 0.29670 0.36700
C 	C 	0.85023 0.62663 0.34050 0.42500
C 	C 	0.13517 0.51457 0.37240 -0.42000
C 	C 	0.61372 0.27752 0.37299 0.00300
C 	C 	0.62400 0.27500 0.44170 0.03300
C 	C 	0.75140 0.25160 0.38270 0.08700
C 	C 	0.53832 0.28472 0.33620 0.08400
C 	C 	0.45718 0.26638 0.36360 -0.16700
C 	C 	0.39108 0.28008 0.32170 0.10300
C 	C 	0.46792 0.32232 0.22970 0.07300
C 	C 	0.54329 0.30689 0.26950 -0.14400
C 	C 	0.84769 0.23409 0.36375 0.05300
C 	C 	0.91323 0.20363 0.40727 -0.13800
C 	C 	0.00139 0.18899 0.38480 0.07000
C 	C 	0.96312 0.22592 0.27669 0.06800
C 	C 	0.87099 0.24439 0.29728 -0.13400
C 	C 	0.55967 0.28627 0.49988 0.05600
C 	C 	0.57983 0.23283 0.56045 -0.13900
C 	C 	0.51397 0.24117 0.61130 0.06100
C 	C 	0.41399 0.35419 0.55290 0.07500
C 	C 	0.47503 0.35203 0.50020 -0.14600
C 	C 	0.73655 0.90135 0.49170 0.62900
C 	C 	0.70693 0.94513 0.42353 -0.17600
C 	C 	0.77576 0.99796 0.41900 -0.13500
C 	C 	0.79485 0.00485 0.49060 0.01100
C 	C 	0.72197 0.97217 0.53848 -0.43700
C 	C 	0.67467 0.84827 0.52010 -1.11200
C 	C 	0.82560 0.82500 0.48150 -1.05100
C 	C 	0.76588 0.94968 0.60350 0.42000
C 	C 	0.71905 0.88205 0.37030 0.39700
C 	C 	0.62111 0.01371 0.41260 -0.26600
C 	C 	0.46763 0.99123 0.19610 0.25300
C 	C 	0.53656 0.91216 0.16195 -0.05000
C 	C 	0.58117 0.96917 0.10595 -0.14700
C 	C 	0.51516 0.06136 0.09220 0.00900
C 	C 	0.42631 0.05671 0.13860 -0.27900
C 	C 	0.39844 0.95704 0.23930 -0.72100
C 	C 	0.51061 0.03381 0.24540 -0.08300
C 	C 	0.60245 0.84965 0.20330 0.36800
C 	C 	0.37337 0.14977 0.15950 0.42600
C 	C 	0.48543 0.86483 0.12760 -0.42000
C 	C 	0.72248 0.38628 0.12701 0.00300
C 	C 	0.72500 0.37600 0.05830 0.03200
C 	C 	0.74840 0.24860 0.11730 0.08700
C 	C 	0.71528 0.46168 0.16380 0.08400
C 	C 	0.73362 0.54282 0.13640 -0.16700
C 	C 	0.71992 0.60892 0.17830 0.10300
C 	C 	0.67768 0.53208 0.27030 0.07300
C 	C 	0.69311 0.45671 0.23050 -0.14400
C 	C 	0.76591 0.15231 0.13625 0.05300
C 	C 	0.79637 0.08677 0.09273 -0.13900
C 	C 	0.81101 0.99861 0.11520 0.07100
C 	C 	0.77408 0.03688 0.22331 0.06700
C 	C 	0.75561 0.12901 0.20272 -0.13400
C 	C 	0.71373 0.44033 0.00012 0.05800
C 	C 	0.76717 0.42017 0.93955 -0.14100
C 	C 	0.75883 0.48603 0.88870 0.06200
C 	C 	0.64581 0.58601 0.94710 0.07700
C 	C 	0.64797 0.52497 0.99980 -0.14900
N 	N 	0.30684 0.73932 0.66082 -0.13000
N 	N 	0.28891 0.74201 0.55152 -0.20000
N 	N 	0.60376 0.69920 0.74333 -0.23600
N 	N 	0.97358 0.80024 0.68225 -0.23400
N 	N 	0.56708 0.69582 0.39082 -0.22400
N 	N 	0.26068 0.69316 0.83918 -0.13000
N 	N 	0.25799 0.71109 0.94848 -0.20000
N 	N 	0.30080 0.39624 0.75667 -0.23600
N 	N 	0.19976 0.02642 0.81775 -0.23300
N 	N 	0.30418 0.43292 0.10918 -0.22500
N 	N 	0.69316 0.26068 0.33918 -0.13000
N 	N 	0.71109 0.25799 0.44848 -0.20000
N 	N 	0.39624 0.30080 0.25667 -0.23600
N 	N 	0.02642 0.19976 0.31775 -0.23400
N 	N 	0.43292 0.30418 0.60918 -0.22400
N 	N 	0.73932 0.30684 0.16082 -0.13000
N 	N 	0.74201 0.28891 0.05152 -0.20000
N 	N 	0.69920 0.60376 0.24333 -0.23600
N 	N 	0.80024 0.97358 0.18225 -0.23300
N 	N 	0.69582 0.56708 0.89082 -0.22500
O 	O 	0.88376 0.78280 0.83080 -0.48800
O 	O 	0.83459 0.66693 0.86881 -0.46900
O 	O 	0.00632 0.79806 0.12517 -0.33000
O 	O 	0.88075 0.76053 0.13701 -0.47200
O 	O 	0.83885 0.68081 0.70141 -0.49200
O 	O 	0.80206 0.56722 0.74660 -0.42000
O 	O 	0.15855 0.31431 0.70739 -0.53000
O 	O 	0.21334 0.38520 0.62537 -0.43600
O 	O 	0.21720 0.11624 0.66920 -0.48700
O 	O 	0.33307 0.16541 0.63119 -0.46900
O 	O 	0.20194 0.99368 0.37483 -0.32900
O 	O 	0.23947 0.11925 0.36299 -0.47300
O 	O 	0.31919 0.16115 0.79859 -0.49200
O 	O 	0.43278 0.19794 0.75340 -0.42000
O 	O 	0.68569 0.84145 0.79261 -0.53000
O 	O 	0.61480 0.78666 0.87463 -0.43600
O 	O 	0.11624 0.21720 0.16920 -0.48800
O 	O 	0.16541 0.33307 0.13119 -0.46900
O 	O 	0.99368 0.20194 0.87483 -0.33000
O 	O 	0.11925 0.23947 0.86299 -0.47200
O 	O 	0.16115 0.31919 0.29859 -0.49200
O 	O 	0.19794 0.43278 0.25340 -0.42000
O 	O 	0.84145 0.68569 0.29261 -0.53000
O 	O 	0.78666 0.61480 0.37463 -0.43600
O 	O 	0.78280 0.88376 0.33080 -0.48700
O 	O 	0.66693 0.83459 0.36881 -0.46900
O 	O 	0.79806 0.00632 0.62517 -0.32900
O 	O 	0.76053 0.88075 0.63701 -0.47300
O 	O 	0.68081 0.83885 0.20141 -0.49200
O 	O 	0.56722 0.80206 0.24660 -0.42000
O 	O 	0.31431 0.15855 0.20739 -0.53000
O 	O 	0.38520 0.21334 0.12537 -0.43600
