data_crystal

_cell_length_a 7.23200
_cell_length_b 10.31100
_cell_length_c 11.05800
_cell_angle_alpha 90.00000
_cell_angle_beta  90.00000
_cell_angle_gamma 90.00000

_symmetry_space_group_name_	'P 1'
_symmetry_space_group_name_H-M	'P 1'

loop_
_symmetry_equiv_pos_as_xyz
  x,y,z

loop_
_atom_site_label
_atom_site_type_symbol
_atom_site_fract_x
_atom_site_fract_y
_atom_site_fract_z
_atom_site_charge
Cu	Cu	0.39969 0.56684 0.52913 0.89900
Cu	Cu	0.10031 0.43316 0.02913 0.89400
H 	H 	0.16580 0.22140 0.77390 0.08200
H 	H 	0.31040 0.36720 0.86610 0.13500
H 	H 	0.18190 0.46150 0.81540 0.11200
H 	H 	0.02030 0.37990 0.65180 0.01400
H 	H 	0.89630 0.25710 0.67090 0.00700
H 	H 	0.84430 0.49100 0.80070 0.14500
H 	H 	0.71640 0.36880 0.81290 0.15900
H 	H 	0.33420 0.77860 0.27390 0.08300
H 	H 	0.18960 0.63280 0.36610 0.13400
H 	H 	0.31810 0.53850 0.31540 0.11100
H 	H 	0.47970 0.62010 0.15180 0.01500
H 	H 	0.60370 0.74290 0.17090 0.00600
H 	H 	0.65570 0.50900 0.30070 0.14600
H 	H 	0.78360 0.63120 0.31290 0.15900
C 	C 	0.97040 0.21500 0.91160 0.33800
C 	C 	0.08050 0.28430 0.80990 -0.15300
C 	C 	0.94940 0.33180 0.71130 0.07700
C 	C 	0.79240 0.41800 0.75700 -0.38700
C 	C 	0.67250 0.46800 0.65490 0.38400
C 	C 	0.52960 0.78500 0.41160 0.34400
C 	C 	0.41950 0.71570 0.30990 -0.15400
C 	C 	0.55060 0.66820 0.21130 0.07600
C 	C 	0.70760 0.58200 0.25700 -0.38700
C 	C 	0.82750 0.53200 0.15490 0.38400
N 	N 	0.19070 0.39080 0.86270 -0.31200
N 	N 	0.30930 0.60920 0.36270 -0.31200
O 	O 	0.87450 0.12100 0.88090 -0.36100
O 	O 	0.98160 0.26190 0.01690 -0.39200
O 	O 	0.71480 0.44940 0.54610 -0.33900
O 	O 	0.52410 0.52850 0.68380 -0.40300
O 	O 	0.62550 0.87900 0.38090 -0.36400
O 	O 	0.51840 0.73810 0.51690 -0.39900
O 	O 	0.78520 0.55060 0.04610 -0.33800
O 	O 	0.97590 0.47150 0.18380 -0.40000
Cu	Cu	0.60031 0.06684 0.97087 0.89900
Cu	Cu	0.89969 0.93316 0.47087 0.89800
H 	H 	0.83420 0.72140 0.72610 0.08600
H 	H 	0.68960 0.86720 0.63390 0.13400
H 	H 	0.81810 0.96150 0.68460 0.11000
H 	H 	0.97970 0.87990 0.84820 0.00600
H 	H 	0.10370 0.75710 0.82910 0.00100
H 	H 	0.15570 0.99100 0.69930 0.15000
H 	H 	0.28360 0.86880 0.68710 0.16200
H 	H 	0.66580 0.27860 0.22610 0.08300
H 	H 	0.81040 0.13280 0.13390 0.13700
H 	H 	0.68190 0.03850 0.18460 0.11300
H 	H 	0.52030 0.12010 0.34820 0.01700
H 	H 	0.39630 0.24290 0.32910 0.00700
H 	H 	0.34430 0.00900 0.19930 0.14400
H 	H 	0.21640 0.13120 0.18710 0.15500
C 	C 	0.02960 0.71500 0.58840 0.34800
C 	C 	0.91950 0.78430 0.69010 -0.16500
C 	C 	0.05060 0.83180 0.78870 0.09600
C 	C 	0.20760 0.91800 0.74300 -0.39700
C 	C 	0.32750 0.96800 0.84510 0.38800
C 	C 	0.47040 0.28500 0.08840 0.34200
C 	C 	0.58050 0.21570 0.19010 -0.15200
C 	C 	0.44940 0.16820 0.28870 0.07300
C 	C 	0.29240 0.08200 0.24300 -0.38300
C 	C 	0.17250 0.03200 0.34510 0.38100
N 	N 	0.80930 0.89080 0.63730 -0.31100
N 	N 	0.69070 0.10920 0.13730 -0.31300
O 	O 	0.12550 0.62100 0.61910 -0.36500
O 	O 	0.01840 0.76190 0.48310 -0.40100
O 	O 	0.28520 0.94940 0.95390 -0.33800
O 	O 	0.47590 0.02850 0.81620 -0.40300
O 	O 	0.37450 0.37900 0.11910 -0.36500
O 	O 	0.48160 0.23810 0.98310 -0.39800
O 	O 	0.21480 0.05060 0.45390 -0.33900
O 	O 	0.02410 0.97150 0.31620 -0.40300
