data_crystal

_cell_length_a 6.82020
_cell_length_b 15.13160
_cell_length_c 15.13160
_cell_angle_alpha 62.21590
_cell_angle_beta  81.35910
_cell_angle_gamma 98.64090

_symmetry_space_group_name_	'P 1'
_symmetry_space_group_name_H-M	'P 1'

loop_
_symmetry_equiv_pos_as_xyz
  x,y,z

loop_
_atom_site_label
_atom_site_type_symbol
_atom_site_fract_x
_atom_site_fract_y
_atom_site_fract_z
_atom_site_charge
Co	Co	0.80208 0.26583 0.32299 1.15700
Co	Co	0.12507 0.32299 0.41118 1.15700
Co	Co	0.53625 0.41118 0.26583 1.15800
Co	Co	0.19792 0.73417 0.67701 1.15800
Co	Co	0.87493 0.67701 0.58882 1.15800
Co	Co	0.46375 0.58882 0.73417 1.15800
H 	H 	0.82567 0.46886 0.55158 0.05600
H 	H 	0.37725 0.55158 0.97956 0.05600
H 	H 	0.35681 0.97956 0.46886 0.05600
H 	H 	0.17433 0.53114 0.44842 0.05600
H 	H 	0.62275 0.44842 0.02044 0.05600
H 	H 	0.64319 0.02044 0.53114 0.05600
C 	C 	0.74354 0.38834 0.43767 0.42700
C 	C 	0.61501 0.44620 0.46562 -0.19400
C 	C 	0.43165 0.46497 0.43276 0.19000
C 	C 	0.67846 0.48158 0.52872 -0.05400
C 	C 	0.18121 0.43767 0.17399 0.42600
C 	C 	0.08063 0.46562 0.08818 -0.19200
C 	C 	0.86441 0.43276 0.10227 0.18900
C 	C 	0.20718 0.52872 0.98970 -0.05600
C 	C 	0.35520 0.17399 0.38834 0.42700
C 	C 	0.16881 0.08818 0.44620 -0.19400
C 	C 	0.96668 0.10227 0.46497 0.19000
C 	C 	0.19688 0.98970 0.48158 -0.05400
C 	C 	0.25646 0.61166 0.56233 0.42700
C 	C 	0.38499 0.55380 0.53438 -0.19400
C 	C 	0.56835 0.53503 0.56724 0.19000
C 	C 	0.32154 0.51842 0.47128 -0.05400
C 	C 	0.81879 0.56233 0.82601 0.42600
C 	C 	0.91937 0.53438 0.91182 -0.19200
C 	C 	0.13559 0.56724 0.89773 0.18900
C 	C 	0.79282 0.47128 0.01030 -0.05600
C 	C 	0.64480 0.82601 0.61166 0.42700
C 	C 	0.83119 0.91182 0.55380 -0.19400
C 	C 	0.03332 0.89773 0.53503 0.19000
C 	C 	0.80312 0.01030 0.51842 -0.05400
O 	O 	0.69308 0.36405 0.37429 -0.59500
O 	O 	0.90065 0.37251 0.47281 -0.45600
O 	O 	0.35922 0.43852 0.36899 -0.53100
O 	O 	0.06737 0.37429 0.26166 -0.59500
O 	O 	0.37346 0.47281 0.15468 -0.45600
O 	O 	0.72821 0.36899 0.19249 -0.53100
O 	O 	0.32903 0.26166 0.36405 -0.59500
O 	O 	0.52814 0.15468 0.37251 -0.45600
O 	O 	0.92070 0.19249 0.43852 -0.53100
O 	O 	0.30692 0.63595 0.62571 -0.59500
O 	O 	0.09935 0.62749 0.52719 -0.45600
O 	O 	0.64078 0.56148 0.63101 -0.53100
O 	O 	0.93263 0.62571 0.73834 -0.59500
O 	O 	0.62654 0.52719 0.84532 -0.45600
O 	O 	0.27179 0.63101 0.80751 -0.53100
O 	O 	0.67097 0.73834 0.63595 -0.59500
O 	O 	0.47186 0.84532 0.62749 -0.45600
O 	O 	0.07930 0.80751 0.56148 -0.53100
