data_crystal

_cell_length_a 14.29380
_cell_length_b 14.85610
_cell_length_c 23.10870
_cell_angle_alpha 92.78670
_cell_angle_beta  91.56790
_cell_angle_gamma 109.88900

_symmetry_space_group_name_	'P 1'
_symmetry_space_group_name_H-M	'P 1'

loop_
_symmetry_equiv_pos_as_xyz
  x,y,z

loop_
_atom_site_label
_atom_site_type_symbol
_atom_site_fract_x
_atom_site_fract_y
_atom_site_fract_z
_atom_site_charge
Cu	Cu	0.14560 0.77030 0.19256 0.86100
Cu	Cu	0.06780 0.42790 0.02455 0.81500
Cu	Cu	0.07880 0.32120 0.66095 0.85700
Cu	Cu	0.13650 0.02790 0.40075 0.81100
Cu	Cu	0.96240 0.20380 0.22981 0.85100
Cu	Cu	0.07870 0.95640 0.53804 0.82300
Cu	Cu	0.12820 0.51890 0.89475 0.83000
N 	N 	0.04320 0.80730 0.14840 -0.22500
N 	N 	0.11810 0.67590 0.12520 -0.19400
N 	N 	0.09350 0.87730 0.29940 -0.08200
N 	N 	0.14210 0.82750 0.26730 -0.21800
C 	C 	0.55710 0.03820 0.37570 0.02600
H 	H 	0.61420 0.02300 0.38260 0.00300
N 	N 	0.26800 0.74990 0.22600 -0.24500
N 	N 	0.98550 0.34250 0.08120 -0.18200
N 	N 	0.36790 0.01800 0.49830 -0.21800
N 	N 	0.94750 0.25360 0.15450 -0.21000
N 	N 	0.29880 0.98920 0.53570 -0.05700
N 	N 	0.07240 0.55140 0.06880 -0.20200
N 	N 	0.21890 0.00070 0.51040 -0.19000
N 	N 	0.14000 0.90510 0.35000 -0.14600
N 	N 	0.05420 0.09230 0.36540 -0.23000
N 	N 	0.05150 0.39690 0.72350 -0.21300
N 	N 	0.85490 0.26090 0.25020 -0.22200
N 	N 	0.00610 0.27850 0.10880 -0.07400
N 	N 	0.01050 0.48780 0.78730 -0.07200
N 	N 	0.92680 0.14400 0.35680 -0.08300
N 	N 	0.22040 0.48230 0.94360 -0.19300
N 	N 	0.98840 0.34400 0.59540 -0.22500
N 	N 	0.10690 0.14260 0.60390 -0.07200
N 	N 	0.01810 0.60430 0.05110 -0.25500
N 	N 	0.07460 0.45530 0.81640 -0.20300
N 	N 	0.91000 0.36490 0.10860 -0.22200
N 	N 	0.23570 0.03240 0.45730 -0.24700
N 	N 	0.99420 0.45370 0.73240 -0.07100
N 	N 	0.07880 0.21760 0.60560 -0.20800
N 	N 	0.20440 0.45560 0.99900 -0.20500
N 	N 	0.13490 0.59580 0.11340 -0.07100
N 	N 	0.16620 0.29840 0.72560 -0.22700
N 	N 	0.06620 0.08820 0.56110 -0.21100
N 	N 	0.00470 0.12570 0.52910 -0.25400
N 	N 	0.22080 0.87880 0.35330 -0.10100
N 	N 	0.36700 0.49940 0.98050 -0.19700
N 	N 	0.98690 0.17380 0.30900 -0.20400
N 	N 	0.31640 0.50910 0.92850 -0.08800
N 	N 	0.97450 0.10360 0.38820 -0.17900
N 	N 	0.43800 0.46300 0.07970 -0.22300
C 	C 	0.80100 0.25700 0.29660 0.07700
H 	H 	0.81570 0.22550 0.32780 -0.00900
C 	C 	0.75100 0.34100 0.20450 -0.08600
H 	H 	0.72990 0.36540 0.17190 0.01400
C 	C 	0.72800 0.29300 0.30270 -0.13600
H 	H 	0.69450 0.28690 0.33700 0.06700
C 	C 	0.70300 0.33900 0.25730 0.01800
H 	H 	0.65590 0.36890 0.26170 0.01100
C 	C 	0.33000 0.71800 0.20120 0.12800
H 	H 	0.31340 0.69410 0.16290 -0.02900
C 	C 	0.41500 0.71500 0.22410 -0.18400
H 	H 	0.45190 0.68240 0.20530 0.08900
C 	C 	0.44600 0.76400 0.27780 0.06700
H 	H 	0.51040 0.77440 0.29280 -0.00000
C 	C 	0.38300 0.79800 0.30930 -0.12600
H 	H 	0.40000 0.82570 0.34680 0.07400
C 	C 	0.42500 0.42700 0.17910 -0.11900
H 	H 	0.45810 0.42170 0.21340 0.06300
C 	C 	0.33800 0.45500 0.07500 -0.00000
C 	C 	0.47400 0.44500 0.12840 0.06900
H 	H 	0.53940 0.44460 0.12890 -0.00800
C 	C 	0.32200 0.41600 0.17760 0.00600
H 	H 	0.28360 0.39780 0.20990 0.02200
C 	C 	0.27800 0.43400 0.12340 -0.08100
H 	H 	0.21250 0.43210 0.12090 0.03200
C 	C 	0.82800 0.30700 0.20260 -0.00200
C 	C 	0.29000 0.78800 0.28100 0.04600
C 	C 	0.92200 0.86200 0.07130 0.03000
H 	H 	0.88330 0.88070 0.04420 0.00700
C 	C 	0.95300 0.78600 0.06060 -0.10600
H 	H 	0.93180 0.74910 0.02600 0.02400
C 	C 	0.01400 0.76200 0.09920 0.02900
C 	C 	0.01100 0.88200 0.16370 0.03800
H 	H 	0.02860 0.91560 0.19970 0.01000
C 	C 	0.94900 0.90700 0.12090 -0.10600
H 	H 	0.92700 0.95770 0.13030 0.05600
C 	C 	0.16100 0.34400 0.77690 0.01900
C 	C 	0.21600 0.32900 0.82670 -0.11000
H 	H 	0.21200 0.35810 0.86270 0.05300
C 	C 	0.22000 0.24000 0.72440 0.07800
H 	H 	0.21920 0.20460 0.69000 -0.01400
C 	C 	0.27600 0.27000 0.82060 0.05700
H 	H 	0.31310 0.26180 0.85210 -0.00200
C 	C 	0.27700 0.22900 0.77040 -0.15700
H 	H 	0.31730 0.19200 0.76540 0.07100
N 	N 	0.49010 0.03080 0.41920 -0.22400
C 	C 	0.92300 0.28900 0.49900 -0.12400
H 	H 	0.91730 0.24820 0.46600 0.04500
C 	C 	0.88900 0.36200 0.49940 0.05900
H 	H 	0.85560 0.36900 0.46570 -0.00100
C 	C 	0.96800 0.27600 0.55040 0.01700
C 	C 	0.95800 0.41500 0.59260 0.08400
H 	H 	0.97470 0.46150 0.62320 -0.01100
C 	C 	0.89800 0.42700 0.54410 -0.15100
H 	H 	0.86900 0.47390 0.54380 0.07500
C 	C 	0.40480 0.05360 0.40890 -0.01700
C 	C 	0.38640 0.08380 0.35510 -0.06300
H 	H 	0.32930 0.09900 0.34820 0.01500
C 	C 	0.45350 0.09110 0.31160 -0.01100
H 	H 	0.44120 0.11130 0.27560 0.02200
C 	C 	0.53880 0.06830 0.32190 -0.09300
H 	H 	0.58360 0.07330 0.29280 0.04900
C 	C 	0.04700 0.68100 0.08820 0.04300
C 	C 	0.21800 0.83100 0.30370 0.07100
C 	C 	0.33100 0.03800 0.45270 0.10000
C 	C 	0.30000 0.47000 0.01800 0.05300
C 	C 	0.01700 0.20600 0.55900 0.07200
C 	C 	0.89100 0.30700 0.15400 0.07200
C 	C 	0.09900 0.40100 0.77540 0.06000
C 	C 	0.05800 0.13000 0.31230 0.06100
C 	C 	0.23000 0.15860 0.16970 -0.09400
H 	H 	0.26690 0.16510 0.13670 0.04700
C 	C 	0.14000 0.17510 0.16820 0.02800
H 	H 	0.11660 0.19270 0.13410 0.00300
N 	N 	0.08490 0.16550 0.21750 -0.21400
C 	C 	0.11980 0.13930 0.26850 -0.00900
C 	C 	0.20990 0.12280 0.27010 -0.06900
H 	H 	0.23320 0.10520 0.30420 0.01000
C 	C 	0.26500 0.13240 0.22070 -0.01200
H 	H 	0.32520 0.12140 0.22170 0.01900
Cu	Cu	0.85440 0.22970 0.80744 0.86000
Cu	Cu	0.93220 0.57210 0.97545 0.83200
Cu	Cu	0.92120 0.67880 0.33905 0.85700
Cu	Cu	0.86350 0.97210 0.59925 0.82500
Cu	Cu	0.03760 0.79620 0.77019 0.85600
Cu	Cu	0.92130 0.04360 0.46196 0.80300
Cu	Cu	0.87180 0.48110 0.10525 0.82600
N 	N 	0.95680 0.19270 0.85160 -0.22500
N 	N 	0.88190 0.32410 0.87480 -0.19500
N 	N 	0.90650 0.12270 0.70060 -0.09000
N 	N 	0.85790 0.17250 0.73270 -0.22000
C 	C 	0.44290 0.96180 0.62430 0.03600
H 	H 	0.38580 0.97700 0.61740 0.01200
N 	N 	0.73200 0.25010 0.77400 -0.24500
N 	N 	0.01450 0.65750 0.91880 -0.17300
N 	N 	0.63210 0.98200 0.50170 -0.19000
N 	N 	0.05250 0.74640 0.84550 -0.20500
N 	N 	0.70120 0.01080 0.46430 -0.09800
N 	N 	0.92760 0.44860 0.93120 -0.19700
N 	N 	0.78110 0.99930 0.48960 -0.15900
N 	N 	0.86000 0.09490 0.65000 -0.16000
N 	N 	0.94580 0.90770 0.63460 -0.22500
N 	N 	0.94850 0.60310 0.27650 -0.21400
N 	N 	0.14510 0.73910 0.74980 -0.22000
N 	N 	0.99390 0.72150 0.89120 -0.07000
N 	N 	0.98950 0.51220 0.21270 -0.07300
N 	N 	0.07320 0.85600 0.64320 -0.07900
N 	N 	0.77960 0.51770 0.05640 -0.19800
N 	N 	0.01160 0.65600 0.40460 -0.22500
N 	N 	0.89310 0.85740 0.39610 -0.06600
N 	N 	0.98190 0.39570 0.94890 -0.24700
N 	N 	0.92540 0.54470 0.18360 -0.20300
N 	N 	0.09000 0.63510 0.89140 -0.21800
N 	N 	0.76430 0.96760 0.54270 -0.24100
N 	N 	0.00580 0.54630 0.26760 -0.06800
N 	N 	0.92120 0.78240 0.39440 -0.20700
N 	N 	0.79560 0.54440 0.00100 -0.24400
N 	N 	0.86510 0.40420 0.88660 -0.07000
N 	N 	0.83380 0.70160 0.27440 -0.22700
N 	N 	0.93380 0.91180 0.43890 -0.19800
N 	N 	0.99530 0.87430 0.47090 -0.24800
N 	N 	0.77920 0.12120 0.64670 -0.11200
N 	N 	0.63300 0.50060 0.01950 -0.23400
N 	N 	0.01310 0.82620 0.69100 -0.20000
N 	N 	0.68360 0.49090 0.07150 -0.09200
N 	N 	0.02550 0.89640 0.61180 -0.17100
N 	N 	0.56200 0.53700 0.92030 -0.21300
C 	C 	0.19900 0.74300 0.70340 0.08000
H 	H 	0.18430 0.77450 0.67220 -0.00700
C 	C 	0.24900 0.65900 0.79550 -0.08500
H 	H 	0.27010 0.63460 0.82810 0.01800
C 	C 	0.27200 0.70700 0.69730 -0.13600
H 	H 	0.30550 0.71310 0.66300 0.06900
C 	C 	0.29700 0.66100 0.74270 0.02100
H 	H 	0.34410 0.63110 0.73830 0.01100
C 	C 	0.67000 0.28200 0.79880 0.12400
H 	H 	0.68660 0.30590 0.83710 -0.02800
C 	C 	0.58500 0.28500 0.77590 -0.18300
H 	H 	0.54810 0.31760 0.79470 0.08800
C 	C 	0.55400 0.23600 0.72220 0.06100
H 	H 	0.48960 0.22560 0.70720 -0.00400
C 	C 	0.61700 0.20200 0.69070 -0.12700
H 	H 	0.60000 0.17430 0.65320 0.06400
C 	C 	0.57500 0.57300 0.82090 -0.11300
H 	H 	0.54190 0.57830 0.78660 0.06200
C 	C 	0.66200 0.54500 0.92500 -0.01600
C 	C 	0.52600 0.55500 0.87160 0.06800
H 	H 	0.46060 0.55540 0.87110 -0.00400
C 	C 	0.67800 0.58400 0.82240 -0.00100
H 	H 	0.71640 0.60220 0.79010 0.02300
C 	C 	0.72200 0.56600 0.87660 -0.06700
H 	H 	0.78750 0.56790 0.87910 0.02900
C 	C 	0.17200 0.69300 0.79740 0.00100
C 	C 	0.71000 0.21200 0.71900 0.04000
C 	C 	0.07800 0.13800 0.92870 0.01700
H 	H 	0.11670 0.11930 0.95580 0.01400
C 	C 	0.04700 0.21400 0.93940 -0.09400
H 	H 	0.06820 0.25090 0.97400 0.03000
C 	C 	0.98600 0.23800 0.90080 0.02200
C 	C 	0.98900 0.11800 0.83630 0.02400
H 	H 	0.97140 0.08440 0.80030 0.00300
C 	C 	0.05100 0.09300 0.87910 -0.09300
H 	H 	0.07300 0.04230 0.86970 0.04200
C 	C 	0.83900 0.65600 0.22310 0.01900
C 	C 	0.78400 0.67100 0.17330 -0.11100
H 	H 	0.78800 0.64190 0.13730 0.05100
C 	C 	0.78000 0.76000 0.27560 0.08000
H 	H 	0.78080 0.79540 0.31000 -0.00900
C 	C 	0.72400 0.73000 0.17940 0.05900
H 	H 	0.68690 0.73820 0.14790 -0.00400
C 	C 	0.72300 0.77100 0.22960 -0.15700
H 	H 	0.68270 0.80800 0.23460 0.07700
N 	N 	0.50990 0.96920 0.58080 -0.21500
C 	C 	0.07700 0.71100 0.50100 -0.12600
H 	H 	0.08270 0.75180 0.53400 0.04800
C 	C 	0.11100 0.63800 0.50060 0.06300
H 	H 	0.14440 0.63100 0.53430 -0.00100
C 	C 	0.03200 0.72400 0.44960 0.02400
C 	C 	0.04200 0.58500 0.40740 0.08500
H 	H 	0.02530 0.53850 0.37680 -0.01100
C 	C 	0.10200 0.57300 0.45590 -0.15100
H 	H 	0.13100 0.52610 0.45620 0.07600
C 	C 	0.59520 0.94640 0.59110 -0.00900
C 	C 	0.61360 0.91620 0.64490 -0.06000
H 	H 	0.67070 0.90100 0.65180 0.01800
C 	C 	0.54650 0.90890 0.68840 -0.00300
H 	H 	0.55880 0.88870 0.72440 0.02600
C 	C 	0.46120 0.93170 0.67810 -0.09000
H 	H 	0.41640 0.92670 0.70720 0.05800
C 	C 	0.95300 0.31900 0.91180 0.04600
C 	C 	0.78200 0.16900 0.69630 0.06600
C 	C 	0.66900 0.96200 0.54730 0.10600
C 	C 	0.70000 0.53000 0.98200 0.12900
C 	C 	0.98300 0.79400 0.44100 0.07000
C 	C 	0.10900 0.69300 0.84600 0.07700
C 	C 	0.90100 0.59900 0.22460 0.06000
C 	C 	0.94200 0.87000 0.68770 0.06400
C 	C 	0.77000 0.84140 0.83030 -0.09100
H 	H 	0.73310 0.83490 0.86330 0.05800
C 	C 	0.86000 0.82490 0.83180 0.03500
H 	H 	0.88340 0.80730 0.86590 0.01000
N 	N 	0.91510 0.83450 0.78250 -0.21200
C 	C 	0.88020 0.86070 0.73150 -0.00300
C 	C 	0.79010 0.87720 0.72990 -0.06500
H 	H 	0.76680 0.89480 0.69580 0.01400
C 	C 	0.73500 0.86760 0.77930 -0.00500
H 	H 	0.67480 0.87860 0.77830 0.02500
Cu	Cu	0.50000 0.50000 -0.00000 0.84200
Cu	Cu	0.50000 -0.00000 0.50000 0.84700
