data_crystal

_cell_length_a 12.01150
_cell_length_b 12.10200
_cell_length_c 13.67880
_cell_angle_alpha 98.68330
_cell_angle_beta  116.04400
_cell_angle_gamma 69.88790

_symmetry_space_group_name_	'P 1'
_symmetry_space_group_name_H-M	'P 1'

loop_
_symmetry_equiv_pos_as_xyz
  x,y,z

loop_
_atom_site_label
_atom_site_type_symbol
_atom_site_fract_x
_atom_site_fract_y
_atom_site_fract_z
_atom_site_charge
Fe	Fe	-0.00000 0.00000 -0.00000 1.07700
Fe	Fe	0.10664 0.25873 -0.00000 1.08100
Fe	Fe	0.89336 0.74127 -0.00000 1.10900
H 	H 	0.90520 0.92010 0.57540 0.00900
H 	H 	0.13450 0.11170 0.60760 0.00500
H 	H 	0.67020 0.07990 0.57540 0.08800
H 	H 	0.47310 0.88830 0.60760 0.08500
H 	H 	0.09480 0.07990 0.42460 0.10700
H 	H 	0.86550 0.88830 0.39240 0.10600
H 	H 	0.32980 0.92010 0.42460 0.03100
H 	H 	0.52690 0.11170 0.39240 0.02700
H 	H 	0.52780 0.30090 -0.00000 -0.06900
H 	H 	0.66460 0.55920 -0.00000 -0.05000
H 	H 	0.47220 0.69910 -0.00000 0.16000
H 	H 	0.33540 0.44080 1.00000 0.25200
C 	C 	0.94415 0.95320 0.54490 0.15600
C 	C 	0.02258 0.01930 0.60936 -0.16800
C 	C 	0.07931 0.06620 0.56402 0.10000
C 	C 	0.04409 0.04240 0.72418 0.13300
C 	C 	0.60075 0.04680 0.54490 -0.13600
C 	C 	0.58678 0.98070 0.60936 0.07900
C 	C 	0.48471 0.93380 0.56402 -0.10700
C 	C 	0.68009 0.95760 0.72418 0.12200
C 	C 	0.05585 0.04680 0.45510 -0.24100
C 	C 	0.97742 0.98070 0.39064 0.16200
C 	C 	0.92069 0.93380 0.43598 -0.17800
C 	C 	0.95591 0.95760 0.27582 0.09500
C 	C 	0.39925 0.95320 0.45510 0.05900
C 	C 	0.41322 0.01930 0.39064 -0.08600
C 	C 	0.51529 0.06620 0.43598 0.02900
C 	C 	0.31991 0.04240 0.27582 0.10600
C 	C 	0.51720 0.38230 -0.00000 0.25800
C 	C 	0.61450 0.41730 -0.00000 -0.22200
C 	C 	0.59790 0.53390 -0.00000 0.21900
C 	C 	0.73650 0.33060 -0.00000 0.17900
C 	C 	0.48280 0.61770 -0.00000 -0.40700
C 	C 	0.38550 0.58270 1.00000 0.45000
C 	C 	0.40210 0.46610 -0.00000 -0.52500
C 	C 	0.26350 0.66940 -0.00000 -0.06300
C 	C 	0.96864 0.50000 0.93728 0.30100
C 	C 	0.03136 0.50000 0.06272 0.13000
N 	N 	0.02139 0.98020 0.78198 -0.07000
N 	N 	0.04248 0.03630 0.87716 -0.16700
N 	N 	0.07694 0.12830 0.87528 -0.16000
N 	N 	0.07874 0.13510 0.77968 -0.10600
N 	N 	0.76059 0.01980 0.78198 -0.10100
N 	N 	0.83468 0.96370 0.87716 -0.12300
N 	N 	0.79834 0.87170 0.87528 -0.14800
N 	N 	0.70094 0.86490 0.77968 -0.09200
N 	N 	0.97861 0.01980 0.21802 -0.10000
N 	N 	0.95752 0.96370 0.12284 -0.14600
N 	N 	0.92306 0.87170 0.12472 -0.17000
N 	N 	0.92126 0.86490 0.22032 -0.09400
N 	N 	0.23941 0.98020 0.21802 -0.06900
N 	N 	0.16532 0.03630 0.12284 -0.19200
N 	N 	0.20166 0.12830 0.12472 -0.18400
N 	N 	0.29906 0.13510 0.22032 -0.10800
N 	N 	0.76650 0.21270 -0.00000 -0.11800
N 	N 	0.88620 0.17370 -0.00000 -0.17000
N 	N 	0.92390 0.26310 -0.00000 -0.15200
N 	N 	0.83150 0.36410 -0.00000 -0.11200
N 	N 	0.23350 0.78730 -0.00000 -0.07300
N 	N 	0.11380 0.82630 -0.00000 -0.17100
N 	N 	0.07610 0.73690 -0.00000 -0.17000
N 	N 	0.16850 0.63590 -0.00000 -0.08800
O 	O 	0.99697 0.40361 0.89032 -0.33000
O 	O 	0.89335 0.59639 0.89032 -0.33600
O 	O 	0.00303 0.59639 0.10968 -0.35800
O 	O 	0.10665 0.40361 0.10968 -0.35500
