data_crystal

_cell_length_a 10.10100
_cell_length_b 15.67900
_cell_length_c 19.16000
_cell_angle_alpha 96.41000
_cell_angle_beta  90.00000
_cell_angle_gamma 90.00000

_symmetry_space_group_name_	'P 1'
_symmetry_space_group_name_H-M	'P 1'

loop_
_symmetry_equiv_pos_as_xyz
  x,y,z

loop_
_atom_site_label
_atom_site_type_symbol
_atom_site_fract_x
_atom_site_fract_y
_atom_site_fract_z
_atom_site_charge
Zn	Zn	0.77083 0.82780 0.29273 1.13100
Zn	Zn	0.30265 0.92974 0.47341 1.16500
Zn	Zn	0.27083 0.67220 0.20727 1.13100
Zn	Zn	0.80265 0.57026 0.02659 1.16500
Zn	Zn	0.22917 0.17220 0.70727 1.13100
Zn	Zn	0.69735 0.07026 0.52659 1.16500
Zn	Zn	0.72917 0.32780 0.79273 1.13100
Zn	Zn	0.19735 0.42974 0.97341 1.16500
H 	H 	0.35900 0.48350 0.16780 -0.03900
H 	H 	0.38510 0.35900 0.21600 0.07000
H 	H 	0.26510 0.49050 0.40870 0.09800
H 	H 	0.24920 0.61600 0.35990 -0.04800
H 	H 	0.34140 0.35510 0.75850 -0.06900
H 	H 	0.40400 0.47770 0.70740 0.07100
H 	H 	0.24930 0.36260 0.50920 0.06400
H 	H 	0.21180 0.24310 0.55890 -0.02100
H 	H 	0.37680 0.12420 0.50380 0.01000
H 	H 	0.39850 0.24240 0.44990 0.08000
H 	H 	0.18890 0.11720 0.27630 0.08500
H 	H 	0.18100 0.99610 0.33250 -0.04300
H 	H 	0.29090 0.86040 0.61740 -0.02100
H 	H 	0.32240 0.73760 0.66930 0.11700
H 	H 	0.40100 0.61360 0.47450 0.10500
H 	H 	0.37920 0.73700 0.42600 -0.03300
H 	H 	0.85900 0.01650 0.33220 -0.04000
H 	H 	0.88510 0.14100 0.28400 0.07000
H 	H 	0.76510 0.00950 0.09130 0.09800
H 	H 	0.74920 0.88400 0.14010 -0.04800
H 	H 	0.84140 0.14490 0.74150 -0.06900
H 	H 	0.90400 0.02230 0.79260 0.07000
H 	H 	0.74930 0.13740 0.99080 0.06300
H 	H 	0.71180 0.25690 0.94110 -0.02100
H 	H 	0.87680 0.37580 0.99620 0.01100
H 	H 	0.89850 0.25760 0.05010 0.07900
H 	H 	0.68890 0.38280 0.22370 0.08400
H 	H 	0.68100 0.50390 0.16750 -0.04100
H 	H 	0.79090 0.63960 0.88260 -0.02000
H 	H 	0.82240 0.76240 0.83070 0.11500
H 	H 	0.90100 0.88640 0.02550 0.09500
H 	H 	0.87920 0.76300 0.07400 -0.03000
H 	H 	0.64100 0.51650 0.83220 -0.03900
H 	H 	0.61490 0.64100 0.78400 0.07000
H 	H 	0.73490 0.50950 0.59130 0.09800
H 	H 	0.75080 0.38400 0.64010 -0.04800
H 	H 	0.65860 0.64490 0.24150 -0.06900
H 	H 	0.59600 0.52230 0.29260 0.07100
H 	H 	0.75070 0.63740 0.49080 0.06400
H 	H 	0.78820 0.75690 0.44110 -0.02100
H 	H 	0.62320 0.87580 0.49620 0.01000
H 	H 	0.60150 0.75760 0.55010 0.08000
H 	H 	0.81110 0.88280 0.72370 0.08500
H 	H 	0.81900 0.00390 0.66750 -0.04300
H 	H 	0.70910 0.13960 0.38260 -0.02100
H 	H 	0.67760 0.26240 0.33070 0.11700
H 	H 	0.59900 0.38640 0.52550 0.10500
H 	H 	0.62080 0.26300 0.57400 -0.03300
H 	H 	0.14100 0.98350 0.66780 -0.04000
H 	H 	0.11490 0.85900 0.71600 0.07000
H 	H 	0.23490 0.99050 0.90870 0.09800
H 	H 	0.25080 0.11600 0.85990 -0.04800
H 	H 	0.15860 0.85510 0.25850 -0.06900
H 	H 	0.09600 0.97770 0.20740 0.07000
H 	H 	0.25070 0.86260 0.00920 0.06300
H 	H 	0.28820 0.74310 0.05890 -0.02100
H 	H 	0.12320 0.62420 0.00380 0.01100
H 	H 	0.10150 0.74240 0.94990 0.07900
H 	H 	0.31110 0.61720 0.77630 0.08400
H 	H 	0.31900 0.49610 0.83250 -0.04100
H 	H 	0.20910 0.36040 0.11740 -0.02000
H 	H 	0.17760 0.23760 0.16930 0.11500
H 	H 	0.09900 0.11360 0.97450 0.09500
H 	H 	0.12080 0.23700 0.92600 -0.03000
C 	C 	0.34530 0.48730 0.22230 0.07000
C 	C 	0.35370 0.41000 0.25090 -0.13800
C 	C 	0.32390 0.41040 0.32150 0.15200
C 	C 	0.29310 0.48720 0.36230 -0.17400
C 	C 	0.28480 0.56120 0.32920 0.07600
C 	C 	0.33460 0.35560 0.70130 0.03300
C 	C 	0.35970 0.43210 0.67490 -0.13700
C 	C 	0.33010 0.43760 0.60480 0.12300
C 	C 	0.28240 0.36680 0.56300 -0.12200
C 	C 	0.25780 0.29220 0.59330 0.04400
C 	C 	0.33070 0.11920 0.45510 0.05900
C 	C 	0.33920 0.19400 0.42350 -0.12600
C 	C 	0.28670 0.19400 0.35670 0.13800
C 	C 	0.22790 0.12030 0.32390 -0.15300
C 	C 	0.22410 0.04830 0.35960 0.07900
C 	C 	0.32340 0.80920 0.58960 0.11300
C 	C 	0.33760 0.73430 0.62150 -0.20600
C 	C 	0.35850 0.65850 0.57870 0.17600
C 	C 	0.37300 0.65970 0.50680 -0.19200
C 	C 	0.35740 0.73700 0.47950 0.08000
C 	C 	0.84530 0.01270 0.27770 0.07000
C 	C 	0.85370 0.09000 0.24910 -0.13800
C 	C 	0.82390 0.08960 0.17850 0.15100
C 	C 	0.79310 0.01280 0.13770 -0.17200
C 	C 	0.78480 0.93880 0.17080 0.07400
C 	C 	0.83460 0.14440 0.79870 0.03300
C 	C 	0.85970 0.06790 0.82510 -0.13600
C 	C 	0.83010 0.06240 0.89520 0.12000
C 	C 	0.78240 0.13320 0.93700 -0.12100
C 	C 	0.75780 0.20780 0.90670 0.04400
C 	C 	0.83070 0.38080 0.04490 0.05600
C 	C 	0.83920 0.30600 0.07650 -0.12400
C 	C 	0.78670 0.30600 0.14330 0.13700
C 	C 	0.72790 0.37970 0.17610 -0.15100
C 	C 	0.72410 0.45170 0.14040 0.07600
C 	C 	0.82340 0.69080 0.91040 0.11000
C 	C 	0.83760 0.76570 0.87850 -0.20000
C 	C 	0.85850 0.84150 0.92130 0.16900
C 	C 	0.87300 0.84030 0.99320 -0.17300
C 	C 	0.85740 0.76300 0.02050 0.06700
C 	C 	0.65470 0.51270 0.77770 0.07000
C 	C 	0.64630 0.59000 0.74910 -0.13800
C 	C 	0.67610 0.58960 0.67850 0.15200
C 	C 	0.70690 0.51280 0.63770 -0.17400
C 	C 	0.71520 0.43880 0.67080 0.07600
C 	C 	0.66540 0.64440 0.29870 0.03300
C 	C 	0.64030 0.56790 0.32510 -0.13700
C 	C 	0.66990 0.56240 0.39520 0.12300
C 	C 	0.71760 0.63320 0.43700 -0.12200
C 	C 	0.74220 0.70780 0.40670 0.04400
C 	C 	0.66930 0.88080 0.54490 0.05900
C 	C 	0.66080 0.80600 0.57650 -0.12600
C 	C 	0.71330 0.80600 0.64330 0.13800
C 	C 	0.77210 0.87970 0.67610 -0.15300
C 	C 	0.77590 0.95170 0.64040 0.07900
C 	C 	0.67660 0.19080 0.41040 0.11300
C 	C 	0.66240 0.26570 0.37850 -0.20600
C 	C 	0.64150 0.34150 0.42130 0.17600
C 	C 	0.62700 0.34030 0.49320 -0.19200
C 	C 	0.64260 0.26300 0.52050 0.08000
C 	C 	0.15470 0.98730 0.72230 0.07000
C 	C 	0.14630 0.91000 0.75090 -0.13800
C 	C 	0.17610 0.91040 0.82150 0.15100
C 	C 	0.20690 0.98720 0.86230 -0.17200
C 	C 	0.21520 0.06120 0.82920 0.07400
C 	C 	0.16540 0.85560 0.20130 0.03300
C 	C 	0.14030 0.93210 0.17490 -0.13600
C 	C 	0.16990 0.93760 0.10480 0.12000
C 	C 	0.21760 0.86680 0.06300 -0.12100
C 	C 	0.24220 0.79220 0.09330 0.04400
C 	C 	0.16930 0.61920 0.95510 0.05600
C 	C 	0.16080 0.69400 0.92350 -0.12400
C 	C 	0.21330 0.69400 0.85670 0.13700
C 	C 	0.27210 0.62030 0.82390 -0.15100
C 	C 	0.27590 0.54830 0.85960 0.07600
C 	C 	0.17660 0.30920 0.08960 0.11000
C 	C 	0.16240 0.23430 0.12150 -0.20000
C 	C 	0.14150 0.15850 0.07870 0.16900
C 	C 	0.12700 0.15970 0.00680 -0.17300
C 	C 	0.14260 0.23700 0.97950 0.06700
S 	S 	0.56359 0.95103 0.38435 0.75000
S 	S 	0.06359 0.54897 0.11565 0.75200
S 	S 	0.43641 0.04897 0.61565 0.75000
S 	S 	0.93641 0.45103 0.88435 0.75200
N 	N 	0.31050 0.56110 0.26060 -0.28100
N 	N 	0.32030 0.33490 0.35800 -0.09600
N 	N 	0.28220 0.28690 0.66210 -0.27900
N 	N 	0.34320 0.51490 0.57090 -0.09300
N 	N 	0.27390 0.04710 0.42390 -0.26500
N 	N 	0.29060 0.26810 0.31860 -0.09400
N 	N 	0.32980 0.81030 0.52020 -0.26500
N 	N 	0.35850 0.58120 0.61310 -0.10000
N 	N 	0.81050 0.93890 0.23940 -0.28100
N 	N 	0.82030 0.16510 0.14200 -0.09600
N 	N 	0.78220 0.21310 0.83790 -0.27800
N 	N 	0.84320 0.98510 0.92910 -0.09100
N 	N 	0.77390 0.45290 0.07610 -0.26400
N 	N 	0.79060 0.23190 0.18140 -0.09400
N 	N 	0.82980 0.68970 0.97980 -0.26000
N 	N 	0.85850 0.91880 0.88690 -0.09800
N 	N 	0.68950 0.43890 0.73940 -0.28100
N 	N 	0.67970 0.66510 0.64200 -0.09600
N 	N 	0.71780 0.71310 0.33790 -0.27900
N 	N 	0.65680 0.48510 0.42910 -0.09300
N 	N 	0.72610 0.95290 0.57610 -0.26500
N 	N 	0.70940 0.73190 0.68140 -0.09400
N 	N 	0.67020 0.18970 0.47980 -0.26500
N 	N 	0.64150 0.41880 0.38690 -0.10000
N 	N 	0.18950 0.06110 0.76060 -0.28100
N 	N 	0.17970 0.83490 0.85800 -0.09600
N 	N 	0.21780 0.78690 0.16210 -0.27800
N 	N 	0.15680 0.01490 0.07090 -0.09100
N 	N 	0.22610 0.54710 0.92390 -0.26400
N 	N 	0.20940 0.76810 0.81860 -0.09400
N 	N 	0.17020 0.31030 0.02020 -0.26000
N 	N 	0.14150 0.08120 0.11310 -0.09800
O 	O 	0.68890 0.90100 0.37750 -0.54000
O 	O 	0.45780 0.89340 0.40520 -0.51000
O 	O 	0.58050 0.02200 0.44050 -0.49700
O 	O 	0.52960 0.98300 0.31780 -0.34700
O 	O 	0.18890 0.59900 0.12250 -0.54000
O 	O 	0.95780 0.60660 0.09480 -0.51200
O 	O 	0.08050 0.47800 0.05950 -0.49600
O 	O 	0.02960 0.51700 0.18220 -0.34600
O 	O 	0.31110 0.09900 0.62250 -0.54000
O 	O 	0.54220 0.10660 0.59480 -0.51000
O 	O 	0.41950 0.97800 0.55950 -0.49700
O 	O 	0.47040 0.01700 0.68220 -0.34700
O 	O 	0.81110 0.40100 0.87750 -0.54000
O 	O 	0.04220 0.39340 0.90520 -0.51200
O 	O 	0.91950 0.52200 0.94050 -0.49600
O 	O 	0.97040 0.48300 0.81780 -0.34600
