data_crystal

_cell_length_a 13.57030
_cell_length_b 14.40800
_cell_length_c 19.48790
_cell_angle_alpha 93.93700
_cell_angle_beta  109.85600
_cell_angle_gamma 93.50500

_symmetry_space_group_name_	'P 1'
_symmetry_space_group_name_H-M	'P 1'

loop_
_symmetry_equiv_pos_as_xyz
  x,y,z

loop_
_atom_site_label
_atom_site_type_symbol
_atom_site_fract_x
_atom_site_fract_y
_atom_site_fract_z
_atom_site_charge
Cd	Cd	0.94210 0.45471 0.20141 1.20200
Cd	Cd	0.47166 0.88508 0.59158 1.22500
Cd	Cd	0.05790 0.54529 0.79859 1.20200
Cd	Cd	0.52834 0.11492 0.40842 1.22500
H 	H 	0.17210 0.43410 0.16940 0.01900
H 	H 	0.89490 0.40280 0.01450 0.05900
H 	H 	0.01720 0.33200 0.96080 0.05300
H 	H 	0.20200 0.35040 0.95410 0.14500
H 	H 	0.46810 0.22670 0.05630 0.13700
H 	H 	0.28300 0.30840 0.17000 0.13700
H 	H 	0.36730 0.17560 0.24350 -0.00200
H 	H 	0.61020 0.26000 0.18380 0.05200
H 	H 	0.67760 0.19820 0.30480 0.02400
H 	H 	0.22580 0.31130 0.84960 0.03000
H 	H 	0.47640 0.22020 0.82110 0.07800
H 	H 	0.50780 0.23170 0.95070 0.04500
H 	H 	0.09130 0.44780 0.38040 0.00000
H 	H 	0.12430 0.26980 0.22780 0.02700
H 	H 	0.24700 0.23450 0.34820 0.04200
H 	H 	0.26650 0.60090 0.60990 0.05700
H 	H 	0.18320 0.66990 0.69190 0.01800
H 	H 	0.15670 0.39690 0.70280 0.01600
H 	H 	0.20360 0.46910 0.50230 0.13600
H 	H 	0.26520 0.19970 0.46720 0.14400
H 	H 	0.30340 0.31040 0.67350 0.15800
H 	H 	0.38970 0.09570 0.53160 0.00200
H 	H 	0.28130 0.14430 0.69400 0.05200
H 	H 	0.35130 0.99160 0.70490 0.03200
H 	H 	0.82790 0.56590 0.83060 0.01800
H 	H 	0.10510 0.59720 0.98550 0.05800
H 	H 	0.98280 0.66800 0.03920 0.05300
H 	H 	0.79800 0.64960 0.04590 0.14500
H 	H 	0.53190 0.77330 0.94370 0.13700
H 	H 	0.71700 0.69160 0.83000 0.13700
H 	H 	0.63270 0.82440 0.75650 -0.00200
H 	H 	0.38980 0.74000 0.81620 0.05200
H 	H 	0.32240 0.80180 0.69520 0.02400
H 	H 	0.77420 0.68870 0.15040 0.03000
H 	H 	0.52360 0.77980 0.17890 0.07800
H 	H 	0.49220 0.76830 0.04930 0.04500
H 	H 	0.90870 0.55220 0.61960 0.00000
H 	H 	0.87570 0.73020 0.77220 0.02700
H 	H 	0.75300 0.76550 0.65180 0.04200
H 	H 	0.73350 0.39910 0.39010 0.05700
H 	H 	0.81680 0.33010 0.30810 0.01800
H 	H 	0.84330 0.60310 0.29720 0.01600
H 	H 	0.79640 0.53090 0.49770 0.13600
H 	H 	0.73480 0.80030 0.53280 0.14400
H 	H 	0.69660 0.68960 0.32650 0.15800
H 	H 	0.61030 0.90430 0.46840 0.00200
H 	H 	0.71870 0.85570 0.30600 0.05200
H 	H 	0.64870 0.00840 0.29510 0.03200
C 	C 	0.11810 0.41710 0.12500 0.09100
C 	C 	0.96630 0.39940 0.03950 -0.00700
C 	C 	0.03350 0.36010 0.00830 0.02100
C 	C 	0.22600 0.33260 0.06250 0.21100
C 	C 	0.24680 0.32710 0.99560 -0.23300
C 	C 	0.33800 0.28490 0.99410 0.20600
C 	C 	0.40810 0.25340 0.05780 -0.24200
C 	C 	0.38740 0.26220 0.12320 0.21600
C 	C 	0.29620 0.30230 0.12620 -0.23500
C 	C 	0.43550 0.18840 0.24390 0.10300
C 	C 	0.56990 0.23660 0.21000 0.01700
C 	C 	0.60690 0.20060 0.27720 0.00700
C 	C 	0.29140 0.28920 0.85770 0.10100
C 	C 	0.42900 0.24020 0.84270 -0.00100
C 	C 	0.44660 0.24530 0.91460 0.03300
C 	C 	0.11490 0.40010 0.35710 0.10100
C 	C 	0.13360 0.30180 0.27300 -0.00800
C 	C 	0.20130 0.28140 0.34050 0.02800
C 	C 	0.23480 0.56920 0.63810 0.01100
C 	C 	0.18840 0.60630 0.68370 0.01700
C 	C 	0.17320 0.45550 0.69030 0.10100
C 	C 	0.24680 0.39900 0.59630 0.22000
C 	C 	0.22260 0.41210 0.52000 -0.23900
C 	C 	0.22870 0.33620 0.47370 0.20800
C 	C 	0.26210 0.24960 0.49910 -0.23000
C 	C 	0.29060 0.24250 0.57590 0.22800
C 	C 	0.28350 0.31640 0.62350 -0.24500
C 	C 	0.37160 0.08840 0.57300 0.12700
C 	C 	0.31150 0.11620 0.66260 0.03600
C 	C 	0.35020 0.03090 0.66880 0.00600
C 	C 	0.46490 0.69340 0.54100 0.33100
C 	C 	0.48270 0.59370 0.51990 -0.09500
C 	C 	0.51800 0.52970 0.57370 0.09500
C 	C 	0.53440 0.43660 0.55400 0.09700
C 	C 	0.69830 0.41920 0.08530 0.35700
C 	C 	0.59550 0.46280 0.04060 -0.10100
C 	C 	0.52780 0.49300 0.07530 0.09400
C 	C 	0.43320 0.53080 0.03520 0.09500
C 	C 	0.02090 0.66690 0.23460 0.33400
C 	C 	0.09620 0.75350 0.26850 -0.09700
C 	C 	0.18500 0.76960 0.24890 0.10600
C 	C 	0.27280 0.83820 0.29790 0.12000
C 	C 	0.26840 0.88820 0.35700 -0.11300
C 	C 	0.16850 0.87660 0.37310 0.10100
C 	C 	0.07770 0.81870 0.31950 0.10300
C 	C 	0.35910 0.95620 0.40860 0.39200
C 	C 	0.88190 0.58290 0.87500 0.09100
C 	C 	0.03370 0.60060 0.96050 -0.00700
C 	C 	0.96650 0.63990 0.99170 0.02100
C 	C 	0.77400 0.66740 0.93750 0.21100
C 	C 	0.75320 0.67290 0.00440 -0.23300
C 	C 	0.66200 0.71510 0.00590 0.20600
C 	C 	0.59190 0.74660 0.94220 -0.24200
C 	C 	0.61260 0.73780 0.87680 0.21600
C 	C 	0.70380 0.69770 0.87380 -0.23500
C 	C 	0.56450 0.81160 0.75610 0.10300
C 	C 	0.43010 0.76340 0.79000 0.01700
C 	C 	0.39310 0.79940 0.72280 0.00700
C 	C 	0.70860 0.71080 0.14230 0.10100
C 	C 	0.57100 0.75980 0.15730 -0.00100
C 	C 	0.55340 0.75470 0.08540 0.03300
C 	C 	0.88510 0.59990 0.64290 0.10100
C 	C 	0.86640 0.69820 0.72700 -0.00800
C 	C 	0.79870 0.71860 0.65950 0.02800
C 	C 	0.76520 0.43080 0.36190 0.01100
C 	C 	0.81160 0.39370 0.31630 0.01700
C 	C 	0.82680 0.54450 0.30970 0.10100
C 	C 	0.75320 0.60100 0.40370 0.22000
C 	C 	0.77740 0.58790 0.48000 -0.23900
C 	C 	0.77130 0.66380 0.52630 0.20800
C 	C 	0.73790 0.75040 0.50090 -0.23000
C 	C 	0.70940 0.75750 0.42410 0.22800
C 	C 	0.71650 0.68360 0.37650 -0.24500
C 	C 	0.62840 0.91160 0.42700 0.12700
C 	C 	0.68850 0.88380 0.33740 0.03600
C 	C 	0.64980 0.96910 0.33120 0.00600
C 	C 	0.53510 0.30660 0.45900 0.33100
C 	C 	0.51730 0.40630 0.48010 -0.09500
C 	C 	0.48200 0.47030 0.42630 0.09500
C 	C 	0.46560 0.56340 0.44600 0.09700
C 	C 	0.30170 0.58080 0.91470 0.35700
C 	C 	0.40450 0.53720 0.95940 -0.10100
C 	C 	0.47220 0.50700 0.92470 0.09400
C 	C 	0.56680 0.46920 0.96480 0.09500
C 	C 	0.97910 0.33310 0.76540 0.33400
C 	C 	0.90380 0.24650 0.73150 -0.09700
C 	C 	0.81500 0.23040 0.75110 0.10600
C 	C 	0.72720 0.16180 0.70210 0.12000
C 	C 	0.73160 0.11180 0.64300 -0.11300
C 	C 	0.83150 0.12340 0.62690 0.10100
C 	C 	0.92230 0.18130 0.68050 0.10300
C 	C 	0.64090 0.04380 0.59140 0.39200
Br	Br	0.53743 0.57027 0.67378 -0.19500
Br	Br	0.57841 0.34980 0.62642 -0.17100
Br	Br	0.56472 0.48502 0.17980 -0.19400
Br	Br	0.34089 0.57627 0.08401 -0.17900
Br	Br	0.95519 0.79850 0.34525 -0.21400
Br	Br	0.15620 0.95880 0.45130 -0.22000
Br	Br	0.20794 0.68307 0.17968 -0.18400
Br	Br	0.39640 0.85960 0.27071 -0.22100
Br	Br	0.46257 0.42973 0.32622 -0.19500
Br	Br	0.42159 0.65020 0.37358 -0.17100
Br	Br	0.43528 0.51498 0.82020 -0.19400
Br	Br	0.65911 0.42373 0.91599 -0.17900
Br	Br	0.04481 0.20150 0.65475 -0.21400
Br	Br	0.84380 0.04120 0.54870 -0.22000
Br	Br	0.79206 0.31693 0.82032 -0.18400
Br	Br	0.60360 0.14040 0.72929 -0.22100
N 	N 	0.01720 0.43300 0.11190 -0.21800
N 	N 	0.13170 0.37220 0.06440 -0.14200
N 	N 	0.35840 0.27420 0.92570 -0.14700
N 	N 	0.33000 0.26880 0.80390 -0.10100
N 	N 	0.46040 0.23090 0.18900 -0.14000
N 	N 	0.52250 0.16820 0.29760 -0.21800
N 	N 	0.08110 0.38000 0.28500 -0.21600
N 	N 	0.18920 0.34230 0.39380 -0.14200
N 	N 	0.22460 0.47170 0.64250 -0.13700
N 	N 	0.14940 0.53750 0.71700 -0.22000
N 	N 	0.32370 0.15440 0.60320 -0.14100
N 	N 	0.38850 0.01310 0.61050 -0.21700
N 	N 	0.98280 0.56700 0.88810 -0.21800
N 	N 	0.86830 0.62780 0.93560 -0.14200
N 	N 	0.64160 0.72580 0.07430 -0.14700
N 	N 	0.67000 0.73120 0.19610 -0.10100
N 	N 	0.53960 0.76910 0.81100 -0.14000
N 	N 	0.47750 0.83180 0.70240 -0.21800
N 	N 	0.91890 0.62000 0.71500 -0.21600
N 	N 	0.81080 0.65770 0.60620 -0.14200
N 	N 	0.77540 0.52830 0.35750 -0.13700
N 	N 	0.85060 0.46250 0.28300 -0.22000
N 	N 	0.67630 0.84560 0.39680 -0.14100
N 	N 	0.61150 0.98690 0.38950 -0.21700
O 	O 	0.78100 0.47260 0.10790 -0.38900
O 	O 	0.68740 0.33210 0.08980 -0.26900
O 	O 	0.04010 0.59590 0.27030 -0.35600
O 	O 	0.95070 0.67200 0.17210 -0.27500
O 	O 	0.54370 0.75360 0.56070 -0.36000
O 	O 	0.37370 0.71090 0.53880 -0.30200
O 	O 	0.36730 0.03370 0.38690 -0.40300
O 	O 	0.40780 0.91580 0.46610 -0.38400
O 	O 	0.21900 0.52740 0.89210 -0.38900
O 	O 	0.31260 0.66790 0.91020 -0.26900
O 	O 	0.95990 0.40410 0.72970 -0.35600
O 	O 	0.04930 0.32800 0.82790 -0.27500
O 	O 	0.45630 0.24640 0.43930 -0.36000
O 	O 	0.62630 0.28910 0.46120 -0.30200
O 	O 	0.63270 0.96630 0.61310 -0.40300
O 	O 	0.59220 0.08420 0.53390 -0.38400
