data_crystal

_cell_length_a 10.67610
_cell_length_b 10.73560
_cell_length_c 11.96370
_cell_angle_alpha 69.99100
_cell_angle_beta  77.56200
_cell_angle_gamma 60.84120

_symmetry_space_group_name_	'P 1'
_symmetry_space_group_name_H-M	'P 1'

loop_
_symmetry_equiv_pos_as_xyz
  x,y,z

loop_
_atom_site_label
_atom_site_type_symbol
_atom_site_fract_x
_atom_site_fract_y
_atom_site_fract_z
_atom_site_charge
Dy	Dy	0.54863 0.99837 0.16145 1.96700
Dy	Dy	0.45137 0.00163 0.83855 1.69000
Cu	Cu	-0.00000 0.00000 -0.00000 0.80100
Cu	Cu	-0.00000 0.00000 0.50000 0.81700
H 	H 	0.01060 0.27220 0.51470 -0.11300
H 	H 	0.91130 0.52130 0.43010 0.13100
H 	H 	0.69260 0.47970 0.22700 0.09400
H 	H 	0.79190 0.23280 0.32090 -0.01800
H 	H 	0.99950 0.71830 0.18480 0.12500
H 	H 	0.13280 0.46520 0.21970 0.01100
H 	H 	0.39480 0.53140 0.93500 0.05700
H 	H 	0.25570 0.78160 0.90560 0.01100
H 	H 	0.98940 0.72780 0.48530 0.12200
H 	H 	0.08870 0.47870 0.56990 0.01800
H 	H 	0.30740 0.52030 0.77300 0.06900
H 	H 	0.20810 0.76720 0.67910 0.02800
H 	H 	0.00050 0.28170 0.81520 -0.10600
H 	H 	0.86720 0.53480 0.78030 0.15500
H 	H 	0.60520 0.46860 0.06500 0.11000
H 	H 	0.74430 0.21840 0.09440 -0.04600
C 	C 	0.17780 0.97870 0.28320 -0.03800
C 	C 	0.17160 0.98810 0.16390 0.06400
C 	C 	0.28260 0.96530 0.35680 0.36900
C 	C 	0.26560 0.00440 0.05620 0.20600
C 	C 	0.94420 0.31420 0.45720 0.25800
C 	C 	0.88560 0.46400 0.40550 -0.19800
C 	C 	0.78820 0.53300 0.31670 0.05600
C 	C 	0.75600 0.44100 0.28600 -0.13800
C 	C 	0.81700 0.29200 0.34330 0.10400
C 	C 	0.72330 0.69570 0.25410 0.28100
C 	C 	0.07770 0.67950 0.13340 -0.13400
C 	C 	0.15800 0.52860 0.15490 0.03400
C 	C 	0.27600 0.47120 0.08020 -0.11500
C 	C 	0.31410 0.56740 0.98530 0.00000
C 	C 	0.22990 0.71640 0.96810 0.07600
C 	C 	0.37140 0.30350 0.10820 0.31500
C 	C 	0.82220 0.02130 0.71680 0.00100
C 	C 	0.82840 0.01190 0.83610 -0.11800
C 	C 	0.71740 0.03470 0.64320 0.32600
C 	C 	0.73440 0.99560 0.94380 0.47100
C 	C 	0.05580 0.68580 0.54280 -0.10300
C 	C 	0.11440 0.53600 0.59450 0.01000
C 	C 	0.21180 0.46700 0.68330 -0.06300
C 	C 	0.24400 0.55900 0.71400 -0.04700
C 	C 	0.18300 0.70800 0.65670 0.03800
C 	C 	0.27670 0.30430 0.74590 0.32200
C 	C 	0.92230 0.32050 0.86660 0.27200
C 	C 	0.84200 0.47140 0.84510 -0.23600
C 	C 	0.72400 0.52880 0.91980 0.13800
C 	C 	0.68590 0.43260 0.01470 -0.22300
C 	C 	0.77010 0.28360 0.03190 0.10900
C 	C 	0.62860 0.69650 0.89180 0.22700
N 	N 	0.05940 0.97830 0.33720 -0.17000
N 	N 	0.97910 0.97860 0.25980 -0.00800
N 	N 	0.04710 0.99180 0.15530 -0.18500
N 	N 	0.90930 0.22670 0.42810 -0.24000
N 	N 	0.11230 0.77260 0.03700 -0.19100
N 	N 	0.94060 0.02170 0.66280 -0.14000
N 	N 	0.02090 0.02140 0.74020 -0.14200
N 	N 	0.95290 0.00820 0.84470 -0.10900
N 	N 	0.09070 0.77330 0.57190 -0.16600
N 	N 	0.88770 0.22740 0.96300 -0.21900
O 	O 	0.23560 0.99290 0.45580 -0.29700
O 	O 	0.41410 0.92560 0.31490 -0.44600
O 	O 	0.38260 0.00650 0.05500 -0.56500
O 	O 	0.22140 0.01450 0.95810 -0.43500
O 	O 	0.73720 0.78210 0.29370 -0.38000
O 	O 	0.64540 0.74180 0.17100 -0.39900
O 	O 	0.48750 0.25170 0.04460 -0.45600
O 	O 	0.33350 0.21830 0.19210 -0.45500
O 	O 	0.76440 0.00710 0.54420 -0.34700
O 	O 	0.58590 0.07440 0.68510 -0.45200
O 	O 	0.61740 0.99350 0.94500 -0.48200
O 	O 	0.77860 0.98550 0.04190 -0.47000
O 	O 	0.26280 0.21790 0.70630 -0.39700
O 	O 	0.35460 0.25820 0.82900 -0.38700
O 	O 	0.51250 0.74830 0.95540 -0.32500
O 	O 	0.66650 0.78170 0.80790 -0.32400
