data_crystal

_cell_length_a 10.42600
_cell_length_b 14.96200
_cell_length_c 21.10200
_cell_angle_alpha 100.01000
_cell_angle_beta  93.54000
_cell_angle_gamma 106.90000

_symmetry_space_group_name_	'P 1'
_symmetry_space_group_name_H-M	'P 1'

loop_
_symmetry_equiv_pos_as_xyz
  x,y,z

loop_
_atom_site_label
_atom_site_type_symbol
_atom_site_fract_x
_atom_site_fract_y
_atom_site_fract_z
_atom_site_charge
Mn	Mn	0.23651 0.98779 0.19775 1.31200
Mn	Mn	0.76349 0.01221 0.80225 1.31100
Mn	Mn	-0.00000 0.50000 0.50000 1.31300
Zn	Zn	0.41566 0.98487 0.73794 1.22600
Zn	Zn	0.17310 0.32334 0.50299 1.22200
Zn	Zn	0.99104 0.94880 0.06398 1.20300
Zn	Zn	0.58434 0.01513 0.26206 1.22400
Zn	Zn	0.82690 0.67666 0.49701 1.22600
Zn	Zn	0.00896 0.05120 0.93602 1.19300
H 	H 	0.86320 0.16300 0.62570 0.01100
H 	H 	0.08800 0.19900 0.30440 0.06300
H 	H 	0.31070 0.04080 0.92840 0.01500
H 	H 	0.48880 0.14760 0.11090 0.01000
H 	H 	0.36890 0.64280 0.14500 0.28100
H 	H 	0.88200 0.38700 0.30300 0.04600
H 	H 	0.69190 0.20930 0.07160 0.07800
H 	H 	0.67950 0.75870 0.15380 0.04200
H 	H 	0.29110 0.20800 0.40360 -0.01800
H 	H 	0.70900 0.17540 0.96190 0.00700
H 	H 	0.85310 0.18910 0.14430 0.04300
H 	H 	0.02050 0.74120 0.23990 0.00000
H 	H 	0.22530 0.85700 0.62810 -0.01000
H 	H 	0.82070 0.41540 0.60700 0.00600
H 	H 	0.89540 0.62990 0.29350 0.09600
H 	H 	0.57900 0.25380 0.71210 0.01800
H 	H 	0.95470 0.06400 0.54130 0.08100
H 	H 	0.88630 0.95340 0.52590 0.07400
H 	H 	0.61730 0.07680 0.51970 0.08900
H 	H 	0.55850 0.03210 0.44720 0.08300
H 	H 	0.07660 0.86590 0.54710 0.08900
H 	H 	0.42050 0.10820 0.39760 0.10900
H 	H 	0.78880 0.31510 0.19770 0.05600
H 	H 	0.44070 0.13340 0.58900 0.11900
H 	H 	0.22120 0.09830 0.72710 -0.02100
H 	H 	0.07680 0.11620 0.64860 0.11100
H 	H 	0.65320 0.39530 0.67440 0.10100
H 	H 	0.32000 0.24090 0.59050 -0.02300
H 	H 	0.66550 0.57710 0.27300 0.01600
H 	H 	0.34170 0.69810 0.63250 0.02200
H 	H 	0.52440 0.49410 0.61540 0.01400
H 	H 	0.68840 0.58720 0.69750 0.09700
H 	H 	0.68470 0.73740 0.74450 0.01600
H 	H 	0.13680 0.83700 0.37430 0.00600
H 	H 	0.91200 0.80100 0.69560 -0.00200
H 	H 	0.68930 0.95920 0.07160 0.01600
H 	H 	0.51120 0.85240 0.88910 0.01000
H 	H 	0.63110 0.35720 0.85500 0.28200
H 	H 	0.11800 0.61300 0.69700 -0.00800
H 	H 	0.30810 0.79070 0.92840 0.07800
H 	H 	0.32050 0.24130 0.84620 0.06000
H 	H 	0.70890 0.79200 0.59640 -0.01300
H 	H 	0.29100 0.82460 0.03810 0.00400
H 	H 	0.14690 0.81090 0.85570 -0.00700
H 	H 	0.97950 0.25880 0.76010 0.06700
H 	H 	0.77470 0.14300 0.37190 -0.01600
H 	H 	0.17930 0.58460 0.39300 0.00600
H 	H 	0.10460 0.37010 0.70650 0.05400
H 	H 	0.42100 0.74620 0.28790 0.02000
H 	H 	0.04530 0.93600 0.45870 0.10500
H 	H 	0.11370 0.04660 0.47410 0.09700
H 	H 	0.38270 0.92320 0.48030 0.08400
H 	H 	0.44150 0.96790 0.55280 0.08000
H 	H 	0.92340 0.13410 0.45290 0.11300
H 	H 	0.57950 0.89180 0.60240 0.10900
H 	H 	0.21120 0.68490 0.80230 0.10300
H 	H 	0.55930 0.86660 0.41100 0.11800
H 	H 	0.77880 0.90170 0.27290 -0.02900
H 	H 	0.92320 0.88380 0.35140 0.13200
H 	H 	0.34680 0.60470 0.32560 0.09800
H 	H 	0.68000 0.75910 0.40950 -0.02200
H 	H 	0.33450 0.42290 0.72700 0.03900
H 	H 	0.65830 0.30190 0.36750 0.02400
H 	H 	0.47560 0.50590 0.38460 0.01500
H 	H 	0.31160 0.41280 0.30250 0.09300
H 	H 	0.31530 0.26260 0.25550 0.01500
C 	C 	0.37860 0.08800 0.02230 -0.18100
C 	C 	0.02080 0.10020 0.18350 0.32900
C 	C 	0.81830 0.20850 0.63400 0.10800
C 	C 	0.02990 0.22320 0.28240 -0.03300
C 	C 	0.24800 0.04480 0.04610 0.44300
C 	C 	0.38790 0.07280 0.95740 0.09400
C 	C 	0.52180 0.07460 0.86230 0.40200
C 	C 	0.05060 0.34590 0.38350 0.36600
C 	C 	0.99510 0.30170 0.31390 -0.06100
C 	C 	0.71340 0.19370 0.67140 -0.17200
C 	C 	0.49410 0.13810 0.06650 0.08600
C 	C 	0.51290 0.10490 0.93370 -0.14500
C 	C 	0.97870 0.18180 0.21900 -0.05100
C 	C 	0.86230 0.76080 0.19040 -0.16100
C 	C 	0.66240 0.10370 0.69540 0.41300
C 	C 	0.51080 0.82970 0.72440 0.41800
C 	C 	0.30040 0.52220 0.56530 0.42400
C 	C 	0.94160 0.83220 0.15340 0.41700
C 	C 	0.90570 0.33520 0.28190 0.00300
C 	C 	0.61590 0.17300 0.04300 -0.14000
C 	C 	0.72360 0.73170 0.18110 0.08500
C 	C 	0.32350 0.19450 0.44170 0.12600
C 	C 	0.62570 0.15430 0.97690 0.07400
C 	C 	0.88830 0.21690 0.18720 -0.01200
C 	C 	0.06160 0.99420 0.58680 0.14400
C 	C 	0.92670 0.72190 0.23280 0.11000
C 	C 	0.49620 0.62730 0.19640 0.38700
C 	C 	0.85800 0.29100 0.60860 -0.18100
C 	C 	0.19640 0.91080 0.63190 0.10700
C 	C 	0.41150 0.58480 0.61600 -0.16500
C 	C 	0.79470 0.36010 0.62360 0.09800
C 	C 	0.64830 0.66270 0.21180 -0.14200
C 	C 	0.85190 0.65460 0.26430 -0.16300
C 	C 	0.64960 0.26340 0.68660 0.09100
C 	C 	0.97210 0.00320 0.53080 -0.12300
C 	C 	0.44950 0.11290 0.49290 0.17600
C 	C 	0.53440 0.04540 0.49080 -0.18700
C 	C 	0.10680 0.91570 0.58290 -0.19200
C 	C 	0.40090 0.13440 0.43770 -0.22400
C 	C 	0.85060 0.29290 0.21880 -0.06500
C 	C 	0.41470 0.14980 0.55070 -0.22500
C 	C 	0.19430 0.05160 0.68940 0.12300
C 	C 	0.10630 0.06270 0.64260 -0.21400
C 	C 	0.69300 0.34740 0.66330 -0.15500
C 	C 	0.33900 0.21260 0.55080 0.12800
C 	C 	0.71480 0.62430 0.25290 0.08300
C 	C 	0.41100 0.67530 0.64550 0.09800
C 	C 	0.52000 0.55340 0.63550 0.08400
C 	C 	0.61900 0.60950 0.68390 -0.15300
C 	C 	0.51200 0.73220 0.69390 -0.17000
C 	C 	0.61600 0.69910 0.71240 0.09200
C 	C 	0.96860 0.30760 0.56710 0.41900
C 	C 	0.62140 0.91200 0.97770 -0.17900
C 	C 	0.97920 0.89980 0.81650 0.44500
C 	C 	0.18170 0.79150 0.36600 0.10000
C 	C 	0.97010 0.77680 0.71760 0.18100
C 	C 	0.75200 0.95520 0.95390 0.44200
C 	C 	0.61210 0.92720 0.04260 0.09600
C 	C 	0.47820 0.92540 0.13770 0.40300
C 	C 	0.94940 0.65410 0.61650 0.44600
C 	C 	0.00490 0.69830 0.68610 -0.23300
C 	C 	0.28660 0.80630 0.32860 -0.16800
C 	C 	0.50590 0.86190 0.93350 0.08700
C 	C 	0.48710 0.89510 0.06630 -0.14400
C 	C 	0.02130 0.81820 0.78100 -0.22900
C 	C 	0.13770 0.23920 0.80960 -0.09200
C 	C 	0.33760 0.89630 0.30460 0.41300
C 	C 	0.48920 0.17030 0.27560 0.41700
C 	C 	0.69960 0.47780 0.43470 0.42200
C 	C 	0.05840 0.16780 0.84660 0.35100
C 	C 	0.09430 0.66480 0.71810 0.14200
C 	C 	0.38410 0.82700 0.95700 -0.14100
C 	C 	0.27640 0.26830 0.81890 0.02900
C 	C 	0.67650 0.80550 0.55830 0.12600
C 	C 	0.37430 0.84570 0.02310 0.07600
C 	C 	0.11170 0.78310 0.81280 0.12700
C 	C 	0.93840 0.00580 0.41320 0.20900
C 	C 	0.07330 0.27810 0.76720 -0.02200
C 	C 	0.50380 0.37270 0.80360 0.37100
C 	C 	0.14200 0.70900 0.39140 -0.17300
C 	C 	0.80360 0.08920 0.36810 0.13200
C 	C 	0.58850 0.41520 0.38400 -0.16300
C 	C 	0.20530 0.63990 0.37640 0.08700
C 	C 	0.35170 0.33730 0.78820 -0.09800
C 	C 	0.14810 0.34540 0.73570 -0.06800
C 	C 	0.35040 0.73660 0.31340 0.08500
C 	C 	0.02790 0.99680 0.46920 -0.23800
C 	C 	0.55050 0.88710 0.50710 0.16900
C 	C 	0.46560 0.95460 0.50920 -0.16600
C 	C 	0.89320 0.08430 0.41710 -0.23300
C 	C 	0.59910 0.86560 0.56230 -0.21700
C 	C 	0.14940 0.70710 0.78120 -0.20500
C 	C 	0.58530 0.85020 0.44930 -0.21800
C 	C 	0.80570 0.94840 0.31060 0.15700
C 	C 	0.89370 0.93730 0.35740 -0.24800
C 	C 	0.30700 0.65260 0.33670 -0.15100
C 	C 	0.66100 0.78740 0.44920 0.12700
C 	C 	0.28520 0.37570 0.74710 0.01300
C 	C 	0.58900 0.32470 0.35450 0.09600
C 	C 	0.48000 0.44660 0.36450 0.08200
C 	C 	0.38100 0.39050 0.31610 -0.15000
C 	C 	0.48800 0.26780 0.30610 -0.16900
C 	C 	0.38400 0.30090 0.28760 0.08900
C 	C 	0.03140 0.69240 0.43290 0.37800
N 	N 	0.29220 0.23450 0.49750 -0.27300
N 	N 	0.24340 0.97930 0.68430 -0.26700
N 	N 	0.70780 0.76550 0.50250 -0.27000
N 	N 	0.75660 0.02070 0.31570 -0.28100
O 	O 	0.13980 0.02330 0.00750 -0.58100
O 	O 	0.09240 0.06510 0.21540 -0.43200
O 	O 	0.98180 0.07360 0.12310 -0.41700
O 	O 	0.24240 0.02720 0.10120 -0.51500
O 	O 	0.10820 0.29740 0.41240 -0.48800
O 	O 	0.41570 0.85600 0.70420 -0.49600
O 	O 	0.53520 0.07600 0.69590 -0.49500
O 	O 	0.03610 0.42350 0.40820 -0.44600
O 	O 	0.74170 0.06120 0.71170 -0.44600
O 	O 	0.41060 0.03050 0.82740 -0.49500
O 	O 	0.60360 0.88020 0.76790 -0.47200
O 	O 	0.98910 0.37490 0.53700 -0.52300
O 	O 	0.21340 0.55340 0.54330 -0.44800
O 	O 	0.30330 0.43670 0.55060 -0.50300
O 	O 	0.87420 0.85660 0.11250 -0.47000
O 	O 	0.06730 0.86040 0.16430 -0.49000
O 	O 	0.44790 0.67290 0.15860 -0.48300
O 	O 	0.42970 0.56040 0.21840 -0.29300
O 	O 	0.63490 0.09370 0.84260 -0.45900
O 	O 	0.04070 0.25290 0.56050 -0.46900
O 	O 	0.86020 0.97670 0.99250 -0.56800
O 	O 	0.90760 0.93490 0.78460 -0.44800
O 	O 	0.01820 0.92640 0.87690 -0.46400
O 	O 	0.75760 0.97280 0.89880 -0.50600
O 	O 	0.89180 0.70260 0.58760 -0.49800
O 	O 	0.58430 0.14400 0.29580 -0.49600
O 	O 	0.46480 0.92400 0.30410 -0.49200
O 	O 	0.96390 0.57650 0.59180 -0.45100
O 	O 	0.25830 0.93880 0.28830 -0.44700
O 	O 	0.58940 0.96950 0.17260 -0.49000
O 	O 	0.39640 0.11980 0.23210 -0.47500
O 	O 	0.01090 0.62510 0.46300 -0.53100
O 	O 	0.78660 0.44660 0.45670 -0.44100
O 	O 	0.69670 0.56330 0.44940 -0.50000
O 	O 	0.12580 0.14340 0.88750 -0.46100
O 	O 	0.93270 0.13960 0.83570 -0.45300
O 	O 	0.55210 0.32710 0.84140 -0.47900
O 	O 	0.57030 0.43960 0.78160 -0.28600
O 	O 	0.36510 0.90630 0.15740 -0.45700
O 	O 	0.95930 0.74710 0.43950 -0.43300
