data_crystal

_cell_length_a 11.27840
_cell_length_b 22.52100
_cell_length_c 22.60000
_cell_angle_alpha 104.62600
_cell_angle_beta  96.24100
_cell_angle_gamma 100.21500

_symmetry_space_group_name_	'P 1'
_symmetry_space_group_name_H-M	'P 1'

loop_
_symmetry_equiv_pos_as_xyz
  x,y,z

loop_
_atom_site_label
_atom_site_type_symbol
_atom_site_fract_x
_atom_site_fract_y
_atom_site_fract_z
_atom_site_charge
V 	V 	0.12786 0.38186 0.53766 1.71500
V 	V 	0.34130 0.43947 0.31489 1.71200
V 	V 	0.48263 0.36269 0.50166 1.71500
V 	V 	0.28907 0.42073 0.16120 1.67900
V 	V 	0.47678 0.33776 0.97899 1.74200
V 	V 	0.32527 0.44828 0.82133 1.71200
V 	V 	0.25349 0.39590 0.93683 1.70900
V 	V 	0.35199 0.29158 0.10295 1.70200
V 	V 	0.45560 0.78335 0.89567 1.72700
V 	V 	0.12340 0.46966 0.05097 1.70100
V 	V 	0.24159 0.34443 0.40324 1.71400
V 	V 	0.23200 0.94002 0.52488 1.70600
V 	V 	0.30686 0.41164 0.67177 1.68400
V 	V 	0.19247 0.94718 0.01622 1.68800
V 	V 	0.43660 0.88186 0.04030 1.70300
V 	V 	0.92412 0.85570 0.01756 1.70900
V 	V 	0.93430 0.86690 0.52297 1.72700
V 	V 	0.75402 0.85536 0.89629 1.72800
V 	V 	0.46140 0.77154 0.39405 1.72600
V 	V 	0.40278 0.28606 0.61556 1.71400
V 	V 	0.75150 0.86040 0.40070 1.71400
V 	V 	0.72917 0.92878 0.10523 1.72900
V 	V 	0.71310 0.91953 0.60493 1.73600
V 	V 	0.41220 0.84617 0.53544 1.70700
Ni	Ni	0.24053 0.12112 0.05503 1.08700
Ni	Ni	0.74702 0.88046 0.24624 1.09900
Ni	Ni	0.29652 0.11335 0.55700 1.09800
Ni	Ni	0.40232 0.62002 0.89341 1.06900
Ni	Ni	0.40652 0.60707 0.38998 1.06000
Ni	Ni	0.81212 0.38584 0.00952 1.06000
Ni	Ni	0.81133 0.38508 0.50866 1.10000
Ni	Ni	0.79529 0.88658 0.74978 1.10400
H 	H 	0.70190 0.79680 0.61840 -0.06500
H 	H 	0.71820 0.69820 0.55900 0.05300
H 	H 	0.89920 0.67460 0.71540 0.06300
H 	H 	0.86740 0.77320 0.76980 -0.00800
H 	H 	0.98830 0.50660 0.59190 0.00300
H 	H 	0.98720 0.61010 0.64090 0.06500
H 	H 	0.65220 0.58630 0.53960 0.06600
H 	H 	0.67070 0.48550 0.49160 -0.05900
H 	H 	0.95670 0.83340 0.30310 -0.03300
H 	H 	0.16070 0.83320 0.30020 0.02700
H 	H 	0.15280 0.92270 0.16930 0.05200
H 	H 	0.95380 0.92820 0.17890 -0.10100
H 	H 	0.56210 0.95250 0.20630 -0.04100
H 	H 	0.35880 0.95420 0.20290 0.03300
H 	H 	0.30530 0.79010 0.25170 -0.01100
H 	H 	0.51050 0.79180 0.25290 -0.05600
H 	H 	0.54930 0.82350 0.67160 -0.02800
H 	H 	0.34100 0.82250 0.67010 0.00400
H 	H 	0.42420 0.93590 0.84640 0.02700
H 	H 	0.62810 0.93370 0.84440 -0.08000
H 	H 	0.99210 0.89500 0.66670 -0.03000
H 	H 	0.19930 0.88760 0.66430 0.01000
H 	H 	0.22020 0.88960 0.84920 -0.01700
H 	H 	0.01030 0.89420 0.83990 -0.04500
H 	H 	0.65060 0.25290 0.49290 -0.02900
H 	H 	0.62490 0.15080 0.43280 0.08200
H 	H 	0.95000 0.20210 0.37960 0.04200
H 	H 	0.95950 0.30370 0.43560 -0.10700
H 	H 	0.63370 0.95660 0.34060 -0.03400
H 	H 	0.63310 0.05700 0.39540 0.02200
H 	H 	0.91260 0.11860 0.31210 0.05400
H 	H 	0.89430 0.01820 0.25450 -0.03100
H 	H 	0.95150 0.98620 0.86300 -0.18300
H 	H 	0.95770 0.08890 0.92180 0.17300
H 	H 	0.72240 0.10340 0.77950 0.14100
H 	H 	0.72220 0.99840 0.73110 -0.22500
H 	H 	0.65200 0.27150 0.92040 -0.06700
H 	H 	0.65500 0.16990 0.86480 0.04800
H 	H 	0.00570 0.19710 0.94300 0.02600
H 	H 	0.99660 0.29720 0.99720 -0.00200
H 	H 	0.70610 0.49110 0.97900 0.10600
H 	H 	0.69350 0.59370 0.02350 -0.01800
H 	H 	0.87370 0.58370 0.18340 0.03500
H 	H 	0.90090 0.48590 0.13060 -0.02200
H 	H 	0.72930 0.64660 0.22320 0.03900
H 	H 	0.70020 0.74670 0.27110 -0.02900
H 	H 	0.76010 0.80090 0.11710 -0.04400
H 	H 	0.78920 0.70070 0.06910 0.01300
H 	H 	0.54910 0.18880 0.62740 -0.08000
H 	H 	0.75240 0.19680 0.61650 0.06400
H 	H 	0.65840 0.02610 0.48860 0.02700
H 	H 	0.45460 0.02840 0.49800 -0.05400
H 	H 	0.05180 0.01940 0.52160 -0.01900
H 	H 	0.84360 0.01820 0.51990 -0.01100
H 	H 	0.91640 0.20830 0.56190 0.02900
H 	H 	0.12470 0.20950 0.56360 -0.03600
H 	H 	0.39140 0.05020 0.65390 -0.00900
H 	H 	0.37320 0.04850 0.75470 0.07500
H 	H 	0.16630 0.17820 0.76420 0.03900
H 	H 	0.19530 0.17910 0.66510 -0.02300
H 	H 	0.23650 0.02580 0.93140 -0.04100
H 	H 	0.24960 0.02170 0.82840 0.09300
H 	H 	0.24270 0.20480 0.86730 -0.00700
H 	H 	0.22680 0.20480 0.96840 -0.03200
H 	H 	0.42940 0.05060 0.09210 -0.00100
H 	H 	0.63440 0.04810 0.09050 0.02800
H 	H 	0.67190 0.20190 0.02800 0.03900
H 	H 	0.46570 0.19730 0.02540 -0.07700
H 	H 	0.07910 0.21120 0.09980 -0.01100
H 	H 	0.87440 0.21550 0.10160 0.05200
H 	H 	0.78420 0.03000 0.01320 -0.01000
H 	H 	0.99040 0.03200 0.01050 -0.06200
H 	H 	0.98830 0.39940 0.91960 -0.05800
H 	H 	0.99220 0.39150 0.81490 0.05800
H 	H 	0.62780 0.38740 0.79210 -0.03000
H 	H 	0.63300 0.39220 0.89630 -0.07000
H 	H 	0.66900 0.42550 0.61290 -0.09400
H 	H 	0.67170 0.43250 0.71600 -0.00300
H 	H 	0.93780 0.33150 0.70680 0.05400
H 	H 	0.92840 0.32670 0.60350 -0.06900
H 	H 	0.64220 0.38030 0.10240 -0.08000
H 	H 	0.64720 0.39000 0.20730 -0.03300
H 	H 	0.99040 0.35800 0.21580 0.05000
H 	H 	0.97960 0.35480 0.11220 -0.02400
H 	H 	0.99450 0.42410 0.42470 0.00200
H 	H 	0.00530 0.41260 0.32070 0.01900
H 	H 	0.63610 0.35300 0.28460 -0.01300
H 	H 	0.63750 0.35770 0.38890 -0.02400
H 	H 	0.11390 0.04900 0.13690 -0.02000
H 	H 	0.12240 0.04670 0.23850 0.07000
H 	H 	0.40740 0.19480 0.28540 0.05200
H 	H 	0.38910 0.19650 0.18380 -0.07600
H 	H 	0.34710 0.20630 0.48080 -0.04300
H 	H 	0.33650 0.21200 0.38020 0.02600
H 	H 	0.22270 0.02250 0.32390 0.08300
H 	H 	0.23300 0.02270 0.42610 -0.05000
H 	H 	0.34550 0.51650 0.47000 -0.04100
H 	H 	0.33880 0.51660 0.57160 0.00400
H 	H 	0.46600 0.70630 0.62080 0.04700
H 	H 	0.47650 0.69900 0.51750 -0.04500
H 	H 	0.55070 0.68230 0.81310 -0.02400
H 	H 	0.55890 0.67890 0.71060 0.06400
H 	H 	0.23490 0.55320 0.66470 0.06100
H 	H 	0.23970 0.56010 0.76770 -0.01400
H 	H 	0.18310 0.54560 0.92680 -0.05000
H 	H 	0.97740 0.54210 0.93070 0.09400
H 	H 	0.00810 0.69630 0.86750 0.06400
H 	H 	0.21320 0.69260 0.86110 -0.09600
H 	H 	0.65170 0.70890 0.94290 -0.03100
H 	H 	0.85670 0.71180 0.94610 0.02100
H 	H 	0.77360 0.52630 0.85850 0.06600
H 	H 	0.57000 0.52880 0.85810 -0.09900
H 	H 	0.24690 0.68450 0.45790 -0.06400
H 	H 	0.04490 0.68730 0.46330 0.03200
H 	H 	0.94910 0.53080 0.31880 0.10100
H 	H 	0.15350 0.53180 0.31630 -0.05400
H 	H 	0.58170 0.51830 0.38780 -0.08000
H 	H 	0.78300 0.51420 0.37890 0.06100
H 	H 	0.85570 0.70390 0.41160 0.02100
H 	H 	0.65170 0.70050 0.41510 -0.04300
C 	C 	0.73880 0.77050 0.63820 0.06600
C 	C 	0.74850 0.71210 0.60220 -0.15600
C 	C 	0.80500 0.67470 0.63220 0.04300
C 	C 	0.85480 0.69790 0.69500 -0.13000
C 	C 	0.83680 0.75700 0.72670 0.05400
C 	C 	0.91740 0.52220 0.58310 0.06300
C 	C 	0.91920 0.58450 0.61140 -0.12800
C 	C 	0.81900 0.60890 0.59580 0.04600
C 	C 	0.72200 0.57110 0.55140 -0.14500
C 	C 	0.73200 0.51000 0.52500 0.06100
C 	C 	0.99810 0.85490 0.27760 0.08300
C 	C 	0.11810 0.85220 0.27410 -0.19700
C 	C 	0.17540 0.87690 0.23320 0.07500
C 	C 	0.11450 0.90530 0.19830 -0.23100
C 	C 	0.99650 0.90900 0.20480 0.10700
C 	C 	0.50910 0.91960 0.21580 0.00900
C 	C 	0.38870 0.92080 0.21380 -0.13600
C 	C 	0.30800 0.87270 0.22770 -0.02600
C 	C 	0.35670 0.82370 0.24250 -0.13400
C 	C 	0.47850 0.82520 0.24330 -0.01500
C 	C 	0.52380 0.84660 0.70750 0.00300
C 	C 	0.39840 0.84630 0.70580 -0.12400
C 	C 	0.35970 0.88200 0.75780 0.01400
C 	C 	0.44790 0.91310 0.80980 -0.15700
C 	C 	0.56990 0.91120 0.80860 0.01800
C 	C 	0.03950 0.89210 0.70280 -0.00000
C 	C 	0.16300 0.88750 0.70030 -0.10800
C 	C 	0.22800 0.88280 0.75600 0.00100
C 	C 	0.17490 0.88840 0.81080 -0.11300
C 	C 	0.05010 0.89210 0.80470 0.01800
C 	C 	0.71080 0.24250 0.46810 0.08500
C 	C 	0.69560 0.18120 0.43350 -0.15500
C 	C 	0.78670 0.16450 0.39930 0.08400
C 	C 	0.88560 0.21170 0.40170 -0.16500
C 	C 	0.89140 0.27210 0.43570 0.07000
C 	C 	0.69180 0.98990 0.33490 -0.10300
C 	C 	0.69170 0.05020 0.36860 0.01200
C 	C 	0.77800 0.10180 0.36360 -0.00800
C 	C 	0.85390 0.08620 0.31900 -0.11800
C 	C 	0.84460 0.02550 0.28580 0.12000
C 	C 	0.89740 0.00920 0.84850 0.38100
C 	C 	0.90450 0.07060 0.88330 -0.35700
C 	C 	0.83000 0.10310 0.85860 0.22600
C 	C 	0.76470 0.07920 0.79970 -0.36500
C 	C 	0.76590 0.01670 0.77190 0.40400
C 	C 	0.72390 0.25560 0.92580 0.06700
C 	C 	0.72610 0.19520 0.89210 -0.09400
C 	C 	0.83050 0.17110 0.89760 -0.01900
C 	C 	0.93160 0.21110 0.93800 -0.05400
C 	C 	0.92570 0.27060 0.97070 0.03800
C 	C 	0.74310 0.51080 0.02090 -0.17200
C 	C 	0.73320 0.57180 0.04770 -0.03300
C 	C 	0.78100 0.60150 0.10990 -0.03600
C 	C 	0.84090 0.56680 0.14070 -0.10300
C 	C 	0.85320 0.50720 0.10928 -0.01200
C 	C 	0.76200 0.66423 0.14162 0.03700
C 	C 	0.73550 0.67790 0.20163 -0.13900
C 	C 	0.71830 0.73740 0.23012 0.03500
C 	C 	0.75390 0.76955 0.13861 0.01500
C 	C 	0.77110 0.71005 0.11012 -0.13800
C 	C 	0.57140 0.15695 0.59709 0.07900
C 	C 	0.69340 0.16091 0.59231 -0.16000
C 	C 	0.72980 0.11250 0.55230 0.05800
C 	C 	0.63820 0.06090 0.51620 -0.15700
C 	C 	0.51670 0.06279 0.52235 0.06600
C 	C 	0.02430 0.05775 0.52981 -0.00700
C 	C 	0.90060 0.05705 0.52877 -0.05600
C 	C 	0.86040 0.11315 0.54073 -0.00300
C 	C 	0.94390 0.16994 0.55373 -0.06900
C 	C 	0.06760 0.17065 0.55476 0.00400
C 	C 	0.34560 0.07670 0.67690 0.05200
C 	C 	0.33440 0.07560 0.73700 -0.12000
C 	C 	0.26660 0.11370 0.77250 0.03000
C 	C 	0.21420 0.15160 0.74310 -0.13000
C 	C 	0.23060 0.15140 0.68340 0.04400
C 	C 	0.23820 0.06290 0.91850 0.09700
C 	C 	0.24710 0.06050 0.85670 -0.14100
C 	C 	0.25240 0.11360 0.83600 0.05100
C 	C 	0.24270 0.16720 0.87910 -0.13400
C 	C 	0.23310 0.16690 0.93980 0.05300
C 	C 	0.47880 0.08100 0.07770 0.02800
C 	C 	0.60170 0.07960 0.07740 -0.11400
C 	C 	0.67570 0.12420 0.05790 0.02800
C 	C 	0.62320 0.16940 0.04000 -0.14000
C 	C 	0.50040 0.16690 0.03950 0.04000
C 	C 	0.01840 0.17420 0.08050 0.01400
C 	C 	0.89600 0.17710 0.08260 -0.10200
C 	C 	0.80680 0.12280 0.05650 0.02200
C 	C 	0.84280 0.06820 0.03020 -0.14200
C 	C 	0.96670 0.06990 0.02900 0.04900
C 	C 	0.91460 0.39640 0.89330 0.06100
C 	C 	0.91760 0.39160 0.83070 -0.13200
C 	C 	0.80940 0.38680 0.79140 0.02700
C 	C 	0.70220 0.38870 0.81700 -0.12100
C 	C 	0.70680 0.39260 0.87960 0.04600
C 	C 	0.72520 0.40690 0.63270 0.03900
C 	C 	0.72580 0.41090 0.69410 -0.15500
C 	C 	0.80570 0.38340 0.72490 0.03000
C 	C 	0.88240 0.35140 0.68840 -0.14100
C 	C 	0.87710 0.34910 0.62690 0.06200
C 	C 	0.71450 0.37690 0.12600 0.03000
C 	C 	0.71620 0.38160 0.18870 -0.12400
C 	C 	0.81910 0.37400 0.22460 0.03400
C 	C 	0.91820 0.36360 0.19400 -0.12500
C 	C 	0.91060 0.36130 0.13160 0.04700
C 	C 	0.92120 0.40810 0.39550 0.02000
C 	C 	0.92880 0.40200 0.33360 -0.07800
C 	C 	0.82110 0.37970 0.29030 0.00300
C 	C 	0.71120 0.36580 0.31240 -0.09600
C 	C 	0.71200 0.37050 0.37510 0.02000
C 	C 	0.17430 0.07940 0.16750 0.06500
C 	C 	0.17940 0.07730 0.22800 -0.13800
C 	C 	0.26850 0.12010 0.27370 0.04700
C 	C 	0.34590 0.16430 0.25540 -0.15500
C 	C 	0.33510 0.16490 0.19460 0.07000
C 	C 	0.32060 0.16850 0.44810 0.05200
C 	C 	0.31450 0.17230 0.38810 -0.14000
C 	C 	0.27560 0.11750 0.33820 0.03900
C 	C 	0.24730 0.06130 0.35530 -0.14200
C 	C 	0.25470 0.06160 0.41670 0.08500
C 	C 	0.37110 0.55530 0.50130 0.04700
C 	C 	0.36550 0.55490 0.56180 -0.13000
C 	C 	0.40000 0.61180 0.60880 0.03000
C 	C 	0.44160 0.66660 0.59070 -0.13300
C 	C 	0.44640 0.66190 0.52880 0.05600
C 	C 	0.48650 0.65540 0.78210 0.01000
C 	C 	0.49160 0.65380 0.72090 -0.13200
C 	C 	0.39800 0.61550 0.67430 0.02500
C 	C 	0.30180 0.58010 0.69410 -0.16100
C 	C 	0.30560 0.58450 0.75570 0.03000
C 	C 	0.14640 0.57590 0.91350 0.08400
C 	C 	0.02420 0.57400 0.91710 -0.22300
C 	C 	0.97180 0.61990 0.90040 0.11900
C 	C 	0.04200 0.66450 0.87940 -0.21300
C 	C 	0.16490 0.66200 0.87580 0.09700
C 	C 	0.67670 0.67110 0.92500 0.05600
C 	C 	0.79960 0.67330 0.92720 -0.10000
C 	C 	0.84040 0.61930 0.90190 0.02200
C 	C 	0.75090 0.56480 0.87600 -0.13800
C 	C 	0.62900 0.56680 0.87580 0.09200
C 	C 	0.18530 0.65280 0.42930 0.07300
C 	C 	0.06550 0.65470 0.43300 -0.19500
C 	C 	0.97560 0.60920 0.39240 0.11400
C 	C 	0.00950 0.56270 0.34790 -0.22500
C 	C 	0.13090 0.56350 0.34670 0.09100
C 	C 	0.63780 0.55620 0.39090 0.05100
C 	C 	0.75860 0.55340 0.38700 -0.13200
C 	C 	0.84340 0.60900 0.39510 0.01300
C 	C 	0.80110 0.66480 0.40570 -0.12100
C 	C 	0.67880 0.66200 0.40740 0.03800
N 	N 	0.77800 0.79130 0.69840 -0.22700
N 	N 	0.82000 0.48170 0.54330 -0.22900
N 	N 	0.93750 0.88650 0.24660 -0.24900
N 	N 	0.55610 0.87290 0.23100 -0.22700
N 	N 	0.60980 0.87790 0.75760 -0.23400
N 	N 	0.98660 0.89260 0.75210 -0.20000
N 	N 	0.80520 0.28880 0.46910 -0.24500
N 	N 	0.77000 0.97480 0.29380 -0.26400
N 	N 	0.82190 0.98120 0.79740 -0.41300
N 	N 	0.82220 0.29210 0.96620 -0.20100
N 	N 	0.80180 0.47860 0.05110 -0.21700
N 	N 	0.72740 0.78323 0.19862 -0.21500
N 	N 	0.48330 0.11017 0.56045 -0.24200
N 	N 	0.10780 0.11454 0.54280 -0.20300
N 	N 	0.29270 0.11470 0.65060 -0.23000
N 	N 	0.23220 0.11580 0.95960 -0.20500
N 	N 	0.42730 0.12370 0.05820 -0.24000
N 	N 	0.05420 0.12230 0.05270 -0.24100
N 	N 	0.81010 0.39700 0.91790 -0.21500
N 	N 	0.80170 0.37740 0.59830 -0.24100
N 	N 	0.81150 0.36780 0.09720 -0.23100
N 	N 	0.81610 0.39280 0.41700 -0.20900
N 	N 	0.25070 0.12240 0.14890 -0.23400
N 	N 	0.29090 0.11370 0.46330 -0.23300
N 	N 	0.41050 0.60760 0.48380 -0.22300
N 	N 	0.39460 0.62050 0.79960 -0.24400
N 	N 	0.21600 0.61830 0.89200 -0.26100
N 	N 	0.58960 0.61890 0.89910 -0.24600
N 	N 	0.21950 0.60790 0.38710 -0.26000
N 	N 	0.59530 0.60950 0.39900 -0.25100
O 	O 	0.25650 0.01630 0.53550 -0.70700
O 	O 	0.33620 0.21020 0.58590 -0.72900
O 	O 	0.62730 0.36330 0.99590 -0.68200
O 	O 	0.62720 0.36530 0.49130 -0.73500
O 	O 	0.99520 0.40340 0.52880 -0.71400
O 	O 	0.36610 0.51130 0.36180 -0.77800
O 	O 	0.22820 0.40030 0.85930 -0.90000
O 	O 	0.35470 0.52320 0.86140 -0.76100
O 	O 	0.20820 0.02570 0.03510 -0.71100
O 	O 	0.24580 0.38520 0.34690 -0.91400
O 	O 	0.29550 0.32930 0.65470 -0.96700
O 	O 	0.25250 0.43740 0.74230 -0.89000
O 	O 	0.40770 0.40100 0.96290 -0.94000
O 	O 	0.34930 0.91660 0.56730 -0.91500
O 	O 	0.32220 0.92450 0.05370 -0.95000
O 	O 	0.23750 0.33830 0.12630 -0.93100
O 	O 	0.26340 0.43830 0.23950 -0.92000
O 	O 	0.99570 0.41420 0.03060 -0.79400
O 	O 	0.20390 0.45750 0.98540 -0.88100
O 	O 	0.79880 0.86260 0.82900 -0.72100
O 	O 	0.83230 0.90970 0.55710 -0.95700
O 	O 	0.44270 0.71730 0.91910 -0.74900
O 	O 	0.22190 0.42920 0.61030 -0.92100
O 	O 	0.42250 0.31270 0.04200 -1.01000
O 	O 	0.43010 0.84840 0.95940 -0.90200
O 	O 	0.60940 0.80260 0.88110 -0.88300
O 	O 	0.44090 0.70330 0.41250 -0.76400
O 	O 	0.61940 0.80040 0.39730 -0.93200
O 	O 	0.21290 0.46350 0.11990 -0.96400
O 	O 	0.57920 0.92950 0.06930 -0.97900
O 	O 	0.19340 0.38800 0.46930 -0.95100
O 	O 	0.27630 0.21660 0.07680 -0.74700
O 	O 	0.86620 0.82610 0.93920 -0.88800
O 	O 	0.38430 0.32790 0.42620 -0.92200
O 	O 	0.44520 0.31550 0.55320 -0.96300
O 	O 	0.76420 0.85990 0.32770 -0.75300
O 	O 	0.89050 0.84620 0.44190 -0.91300
O 	O 	0.40140 0.82030 0.45570 -1.00000
O 	O 	0.77660 0.90750 0.66820 -0.75800
O 	O 	0.05360 0.91360 0.04010 -1.01200
O 	O 	0.80550 0.87620 0.05690 -0.98500
O 	O 	0.08370 0.91180 0.54430 -0.94100
O 	O 	0.56710 0.86750 0.57070 -0.93700
O 	O 	0.72260 0.89930 0.16460 -0.76800
