data_crystal

_cell_length_a 10.31970
_cell_length_b 10.31970
_cell_length_c 14.04440
_cell_angle_alpha 90.00000
_cell_angle_beta  90.00000
_cell_angle_gamma 90.00000

_symmetry_space_group_name_	'P 1'
_symmetry_space_group_name_H-M	'P 1'

loop_
_symmetry_equiv_pos_as_xyz
  x,y,z

loop_
_atom_site_label
_atom_site_type_symbol
_atom_site_fract_x
_atom_site_fract_y
_atom_site_fract_z
_atom_site_charge
Gd	Gd	0.13679 0.87104 0.91626 1.63200
Gd	Gd	0.86321 0.12896 0.41626 1.64200
Gd	Gd	0.12896 0.13679 0.66626 1.64100
Gd	Gd	0.87104 0.86321 0.16626 1.64600
H 	H 	0.99400 0.45440 0.19990 0.01800
H 	H 	0.00840 0.11620 0.04940 -0.01900
H 	H 	0.09520 0.45240 0.92170 0.00600
H 	H 	0.00600 0.54560 0.69990 0.01800
H 	H 	0.99160 0.88380 0.54940 -0.01700
H 	H 	0.90480 0.54760 0.42170 0.00500
H 	H 	0.54560 0.99400 0.94990 0.01600
H 	H 	0.88380 0.00840 0.79940 -0.01600
H 	H 	0.54760 0.09520 0.67170 0.00500
H 	H 	0.45440 0.00600 0.44990 0.01900
H 	H 	0.11620 0.99160 0.29940 -0.01700
H 	H 	0.45240 0.90480 0.17170 0.00600
C 	C 	0.04480 0.62260 0.05850 0.49400
C 	C 	0.95830 0.20020 0.22770 0.35100
C 	C 	0.07720 0.20130 0.88330 0.46200
C 	C 	0.04400 0.47500 0.05910 -0.19000
C 	C 	0.00890 0.40810 0.14250 0.10600
C 	C 	0.99580 0.27230 0.14060 -0.17200
C 	C 	0.01840 0.20760 0.05270 0.15300
C 	C 	0.05370 0.27340 0.97410 -0.22900
C 	C 	0.06820 0.40730 0.97720 0.12900
C 	C 	0.95520 0.37740 0.55850 0.48400
C 	C 	0.04170 0.79980 0.72770 0.34900
C 	C 	0.92280 0.79870 0.38330 0.46000
C 	C 	0.95600 0.52500 0.55910 -0.19700
C 	C 	0.99110 0.59190 0.64250 0.10600
C 	C 	0.00420 0.72770 0.64060 -0.16900
C 	C 	0.98160 0.79240 0.55270 0.13900
C 	C 	0.94630 0.72660 0.47410 -0.21800
C 	C 	0.93180 0.59270 0.47720 0.13800
C 	C 	0.37740 0.04480 0.80850 0.48300
C 	C 	0.79980 0.95830 0.97770 0.33900
C 	C 	0.79870 0.07720 0.63330 0.45900
C 	C 	0.52500 0.04400 0.80910 -0.19700
C 	C 	0.59190 0.00890 0.89250 0.10300
C 	C 	0.72770 0.99580 0.89060 -0.16700
C 	C 	0.79240 0.01840 0.80270 0.13600
C 	C 	0.72660 0.05370 0.72410 -0.21700
C 	C 	0.59270 0.06820 0.72720 0.13700
C 	C 	0.62260 0.95520 0.30850 0.48300
C 	C 	0.20020 0.04170 0.47770 0.34900
C 	C 	0.20130 0.92280 0.13330 0.45900
C 	C 	0.47500 0.95600 0.30910 -0.19600
C 	C 	0.40810 0.99110 0.39250 0.10400
C 	C 	0.27230 0.00420 0.39060 -0.16800
C 	C 	0.20760 0.98160 0.30270 0.13700
C 	C 	0.27340 0.94630 0.22410 -0.21700
C 	C 	0.40730 0.93180 0.22720 0.13700
O 	O 	0.10710 0.67500 0.99410 -0.49600
O 	O 	0.97910 0.67400 0.12380 -0.47600
O 	O 	0.99180 0.25200 0.30900 -0.39800
O 	O 	0.89520 0.09430 0.22450 -0.44700
O 	O 	0.07200 0.07890 0.88510 -0.49600
O 	O 	0.09290 0.26180 0.80760 -0.43800
O 	O 	0.89290 0.32500 0.49410 -0.48600
O 	O 	0.02090 0.32600 0.62380 -0.47400
O 	O 	0.00820 0.74800 0.80900 -0.39800
O 	O 	0.10480 0.90570 0.72450 -0.44600
O 	O 	0.92800 0.92110 0.38510 -0.49500
O 	O 	0.90710 0.73820 0.30760 -0.43800
O 	O 	0.32500 0.10710 0.74410 -0.48600
O 	O 	0.32600 0.97910 0.87380 -0.47500
O 	O 	0.74800 0.99180 0.05900 -0.39000
O 	O 	0.90570 0.89520 0.97450 -0.44700
O 	O 	0.92110 0.07200 0.63510 -0.49400
O 	O 	0.73820 0.09290 0.55760 -0.43700
O 	O 	0.67500 0.89290 0.24410 -0.48600
O 	O 	0.67400 0.02090 0.37380 -0.47400
O 	O 	0.25200 0.00820 0.55900 -0.39800
O 	O 	0.09430 0.10480 0.47450 -0.44700
O 	O 	0.07890 0.92800 0.13510 -0.49200
O 	O 	0.26180 0.90710 0.05760 -0.43100
