data_crystal

_cell_length_a 6.04400
_cell_length_b 10.78000
_cell_length_c 11.48600
_cell_angle_alpha 68.71000
_cell_angle_beta  75.01000
_cell_angle_gamma 87.61000

_symmetry_space_group_name_	'P 1'
_symmetry_space_group_name_H-M	'P 1'

loop_
_symmetry_equiv_pos_as_xyz
  x,y,z

loop_
_atom_site_label
_atom_site_type_symbol
_atom_site_fract_x
_atom_site_fract_y
_atom_site_fract_z
_atom_site_charge
Yb	Yb	0.73908 0.87773 0.54479 1.55000
Yb	Yb	0.26092 0.12227 0.45521 1.55000
H 	H 	0.23150 0.97050 0.01090 0.21000
H 	H 	0.30170 0.62350 0.28550 0.22200
H 	H 	0.14240 0.62430 0.96860 0.22200
H 	H 	0.10580 0.97510 0.83020 0.22100
H 	H 	0.01010 0.83900 0.82970 0.22900
H 	H 	0.38060 0.97860 0.18000 0.22100
H 	H 	0.45400 0.84400 0.27660 0.21400
H 	H 	0.36560 0.43030 0.22580 0.22600
H 	H 	0.27670 0.42420 0.10850 0.23100
H 	H 	0.76850 0.02950 0.98910 0.21000
H 	H 	0.69830 0.37650 0.71450 0.22200
H 	H 	0.85760 0.37570 0.03140 0.22200
H 	H 	0.89420 0.02490 0.16980 0.22100
H 	H 	0.98990 0.16100 0.17030 0.22900
H 	H 	0.61940 0.02140 0.82000 0.22100
H 	H 	0.54600 0.15600 0.72340 0.21400
H 	H 	0.63440 0.56970 0.77420 0.22600
H 	H 	0.72330 0.57580 0.89150 0.23100
C 	C 	0.18200 0.80810 0.97060 0.52400
C 	C 	0.22900 0.87580 0.04300 -0.58200
C 	C 	0.27300 0.80970 0.16040 0.52600
C 	C 	0.27100 0.67130 0.20420 -0.57000
C 	C 	0.22600 0.60280 0.13370 0.54500
C 	C 	0.17800 0.67180 0.01730 -0.56900
C 	C 	0.14200 0.88240 0.83870 -0.68900
C 	C 	0.35200 0.88380 0.73300 0.55300
C 	C 	0.32800 0.88570 0.23810 -0.68100
C 	C 	0.12100 0.88680 0.34450 0.55000
C 	C 	0.23800 0.45340 0.18340 -0.69700
C 	C 	0.02600 0.37690 0.27650 0.54900
C 	C 	0.81800 0.19190 0.02940 0.52400
C 	C 	0.77100 0.12420 0.95700 -0.58200
C 	C 	0.72700 0.19030 0.83960 0.52600
C 	C 	0.72900 0.32870 0.79580 -0.57000
C 	C 	0.77400 0.39720 0.86630 0.54500
C 	C 	0.82200 0.32820 0.98270 -0.56900
C 	C 	0.85800 0.11760 0.16130 -0.68900
C 	C 	0.64800 0.11620 0.26700 0.55300
C 	C 	0.67200 0.11430 0.76190 -0.68100
C 	C 	0.87900 0.11320 0.65550 0.55000
C 	C 	0.76200 0.54660 0.81660 -0.69700
C 	C 	0.97400 0.62310 0.72350 0.54900
O 	O 	0.51020 0.81110 0.75470 -0.48700
O 	O 	0.36310 0.96120 0.61810 -0.59700
O 	O 	0.12600 0.96430 0.40370 -0.57300
O 	O 	0.94500 0.81540 0.37540 -0.48300
O 	O 	0.05100 0.26060 0.35250 -0.51000
O 	O 	0.83500 0.42040 0.27480 -0.35500
O 	O 	0.48980 0.18890 0.24530 -0.48700
O 	O 	0.63690 0.03880 0.38190 -0.59700
O 	O 	0.87400 0.03570 0.59630 -0.57300
O 	O 	0.05500 0.18460 0.62460 -0.48300
O 	O 	0.94900 0.73940 0.64750 -0.51000
O 	O 	0.16500 0.57960 0.72520 -0.35500
