data_crystal

_cell_length_a 10.88000
_cell_length_b 10.91800
_cell_length_c 14.12200
_cell_angle_alpha 89.33500
_cell_angle_beta  89.17100
_cell_angle_gamma 78.38000

_symmetry_space_group_name_	'P 1'
_symmetry_space_group_name_H-M	'P 1'

loop_
_symmetry_equiv_pos_as_xyz
  x,y,z

loop_
_atom_site_label
_atom_site_type_symbol
_atom_site_fract_x
_atom_site_fract_y
_atom_site_fract_z
_atom_site_charge
Zn	Zn	0.72699 0.33722 0.80226 1.22000
Zn	Zn	0.73070 0.34033 0.59258 1.21700
H 	H 	0.78860 0.72470 0.56870 0.04400
H 	H 	0.81280 0.93250 0.57540 0.05200
H 	H 	0.69290 0.95470 0.84210 0.05000
H 	H 	0.67620 0.74830 0.84180 0.04800
H 	H 	0.33340 0.37080 0.55230 0.05700
H 	H 	0.11750 0.36860 0.55110 0.05100
H 	H 	0.12550 0.30700 0.83900 0.05300
H 	H 	0.34040 0.31450 0.83800 0.05000
H 	H 	0.91600 0.31350 0.42960 0.00400
H 	H 	0.92120 0.30930 0.26680 0.07600
H 	H 	0.54180 0.35600 0.27090 0.07800
H 	H 	0.55090 0.35000 0.43570 0.01100
H 	H 	0.89230 0.19840 0.11940 0.07900
H 	H 	0.88100 0.21610 0.95430 -0.00500
H 	H 	0.57120 0.46580 0.96470 -0.00800
H 	H 	0.57140 0.45830 0.12930 0.08400
C 	C 	0.71300 0.57780 0.70040 0.38600
C 	C 	0.72480 0.71210 0.70090 -0.08700
C 	C 	0.76700 0.77000 0.62550 -0.00900
C 	C 	0.77800 0.89600 0.62840 -0.01100
C 	C 	0.74220 0.96320 0.70400 -0.08500
C 	C 	0.70900 0.90800 0.78550 -0.01200
C 	C 	0.70000 0.78600 0.78520 -0.01500
C 	C 	0.74720 0.10020 0.70360 0.39800
C 	C 	0.49270 0.34980 0.69560 0.36700
C 	C 	0.35610 0.34720 0.69420 -0.07300
C 	C 	0.29070 0.35980 0.61000 -0.01500
C 	C 	0.16260 0.35660 0.60870 -0.01900
C 	C 	0.10230 0.33530 0.69420 -0.06800
C 	C 	0.16750 0.32030 0.78150 -0.02000
C 	C 	0.29470 0.32550 0.78060 -0.01400
C 	C 	0.96540 0.33080 0.69410 0.35600
C 	C 	0.83930 0.32170 0.39660 0.07500
C 	C 	0.84300 0.32000 0.29970 -0.11800
C 	C 	0.73090 0.33430 0.24920 0.05000
C 	C 	0.62040 0.34640 0.30160 -0.11600
C 	C 	0.62670 0.34420 0.40030 0.07700
C 	C 	0.73090 0.33350 0.14440 0.06300
C 	C 	0.82560 0.25510 0.09010 -0.13000
C 	C 	0.81610 0.26550 0.99110 0.08900
C 	C 	0.63660 0.41040 0.99640 0.08400
C 	C 	0.63810 0.40700 0.09530 -0.13500
N 	N 	0.73220 0.33440 0.44680 -0.24600
N 	N 	0.72590 0.33690 0.94620 -0.25500
O 	O 	0.70850 0.52320 0.77850 -0.46500
O 	O 	0.70870 0.52810 0.62160 -0.46100
O 	O 	0.75030 0.15410 0.62540 -0.46300
O 	O 	0.74900 0.15040 0.78160 -0.46300
O 	O 	0.54330 0.34990 0.77460 -0.46600
O 	O 	0.54560 0.35320 0.61430 -0.45300
O 	O 	0.91470 0.32880 0.61310 -0.45200
O 	O 	0.91100 0.32410 0.77350 -0.45400
Zn	Zn	0.27301 0.66278 0.19774 1.21900
Zn	Zn	0.26930 0.65967 0.40742 1.21600
H 	H 	0.21140 0.27530 0.43130 0.04400
H 	H 	0.18720 0.06750 0.42460 0.05200
H 	H 	0.30710 0.04530 0.15790 0.05000
H 	H 	0.32380 0.25170 0.15820 0.04800
H 	H 	0.66660 0.62920 0.44770 0.05700
H 	H 	0.88250 0.63140 0.44890 0.05100
H 	H 	0.87450 0.69300 0.16100 0.05300
H 	H 	0.65960 0.68550 0.16200 0.05000
H 	H 	0.08400 0.68650 0.57040 0.00400
H 	H 	0.07880 0.69070 0.73320 0.07600
H 	H 	0.45820 0.64400 0.72910 0.07800
H 	H 	0.44910 0.65000 0.56430 0.01100
H 	H 	0.10770 0.80160 0.88060 0.07900
H 	H 	0.11900 0.78390 0.04570 -0.00500
H 	H 	0.42880 0.53420 0.03530 -0.00800
H 	H 	0.42860 0.54170 0.87070 0.08400
C 	C 	0.28700 0.42220 0.29960 0.38600
C 	C 	0.27520 0.28790 0.29910 -0.08700
C 	C 	0.23300 0.23000 0.37450 -0.00900
C 	C 	0.22200 0.10400 0.37160 -0.01100
C 	C 	0.25780 0.03680 0.29600 -0.08500
C 	C 	0.29100 0.09200 0.21450 -0.01200
C 	C 	0.30000 0.21400 0.21480 -0.01500
C 	C 	0.25280 0.89980 0.29640 0.39800
C 	C 	0.50730 0.65020 0.30440 0.36700
C 	C 	0.64390 0.65280 0.30580 -0.07300
C 	C 	0.70930 0.64020 0.39000 -0.01500
C 	C 	0.83740 0.64340 0.39130 -0.01900
C 	C 	0.89770 0.66470 0.30580 -0.06800
C 	C 	0.83250 0.67970 0.21850 -0.02000
C 	C 	0.70530 0.67450 0.21940 -0.01400
C 	C 	0.03460 0.66920 0.30590 0.35600
C 	C 	0.16070 0.67830 0.60340 0.07500
C 	C 	0.15700 0.68000 0.70030 -0.11800
C 	C 	0.26910 0.66570 0.75080 0.05000
C 	C 	0.37960 0.65360 0.69840 -0.11600
C 	C 	0.37330 0.65580 0.59970 0.07700
C 	C 	0.26910 0.66650 0.85560 0.06300
C 	C 	0.17440 0.74490 0.90990 -0.13000
C 	C 	0.18390 0.73450 0.00890 0.08900
C 	C 	0.36340 0.58960 0.00360 0.08400
C 	C 	0.36190 0.59300 0.90470 -0.13500
N 	N 	0.26780 0.66560 0.55320 -0.24600
N 	N 	0.27410 0.66310 0.05380 -0.25500
O 	O 	0.29150 0.47680 0.22150 -0.46500
O 	O 	0.29130 0.47190 0.37840 -0.46100
O 	O 	0.24970 0.84590 0.37460 -0.46300
O 	O 	0.25100 0.84960 0.21840 -0.46300
O 	O 	0.45670 0.65010 0.22540 -0.46600
O 	O 	0.45440 0.64680 0.38570 -0.45300
O 	O 	0.08530 0.67120 0.38690 -0.45200
O 	O 	0.08900 0.67590 0.22650 -0.45400
