data_crystal

_cell_length_a 13.51370
_cell_length_b 9.01190
_cell_length_c 9.63570
_cell_angle_alpha 90.00000
_cell_angle_beta  134.50700
_cell_angle_gamma 90.00000

_symmetry_space_group_name_	'P 1'
_symmetry_space_group_name_H-M	'P 1'

loop_
_symmetry_equiv_pos_as_xyz
  x,y,z

loop_
_atom_site_label
_atom_site_type_symbol
_atom_site_fract_x
_atom_site_fract_y
_atom_site_fract_z
_atom_site_charge
P 	P 	0.33315 0.60284 0.22063 0.70200
O 	O 	0.32510 0.56950 0.05740 -0.56900
O 	O 	0.46560 0.68620 0.38960 -0.56800
O 	O 	0.20760 0.69340 0.14430 -0.51800
O 	O 	0.32040 0.45320 0.28060 -0.53100
Be	Be	0.36920 0.64780 0.95780 1.48100
P 	P 	0.83315 0.10284 0.22063 0.70500
O 	O 	0.82510 0.06950 0.05740 -0.56500
O 	O 	0.96560 0.18620 0.38960 -0.56800
O 	O 	0.70760 0.19340 0.14430 -0.51600
O 	O 	0.82040 0.95320 0.28060 -0.53300
Be	Be	0.86920 0.14780 0.95780 1.48100
P 	P 	0.66685 0.60284 0.27937 0.70300
O 	O 	0.67490 0.56950 0.44260 -0.56800
O 	O 	0.53440 0.68620 0.11040 -0.56800
O 	O 	0.79240 0.69340 0.35570 -0.51800
O 	O 	0.67960 0.45320 0.21940 -0.53000
Be	Be	0.63080 0.64780 0.54220 1.48100
P 	P 	0.16685 0.10284 0.27937 0.70400
O 	O 	0.17490 0.06950 0.44260 -0.56900
O 	O 	0.03440 0.18620 0.11040 -0.56800
O 	O 	0.29240 0.19340 0.35570 -0.51700
O 	O 	0.17960 0.95320 0.21940 -0.53300
Be	Be	0.13080 0.14780 0.54220 1.48100
P 	P 	0.66685 0.39716 0.77937 0.70300
O 	O 	0.67490 0.43050 0.94260 -0.56800
O 	O 	0.53440 0.31380 0.61040 -0.56800
O 	O 	0.79240 0.30660 0.85570 -0.51800
O 	O 	0.67960 0.54680 0.71940 -0.53100
Be	Be	0.63080 0.35220 0.04220 1.48100
P 	P 	0.16685 0.89716 0.77937 0.70500
O 	O 	0.17490 0.93050 0.94260 -0.56500
O 	O 	0.03440 0.81380 0.61040 -0.56800
O 	O 	0.29240 0.80660 0.85570 -0.51600
O 	O 	0.17960 0.04680 0.71940 -0.53300
Be	Be	0.13080 0.85220 0.04220 1.48100
P 	P 	0.33315 0.39716 0.72063 0.70300
O 	O 	0.32510 0.43050 0.55740 -0.56800
O 	O 	0.46560 0.31380 0.88960 -0.56800
O 	O 	0.20760 0.30660 0.64430 -0.51800
O 	O 	0.32040 0.54680 0.78060 -0.53000
Be	Be	0.36920 0.35220 0.45780 1.48100
P 	P 	0.83315 0.89716 0.72063 0.70400
O 	O 	0.82510 0.93050 0.55740 -0.56900
O 	O 	0.96560 0.81380 0.88960 -0.56800
O 	O 	0.70760 0.80660 0.64430 -0.51700
O 	O 	0.82040 0.04680 0.78060 -0.53300
Be	Be	0.86920 0.85220 0.45780 1.48100
