data_crystal

_cell_length_a 12.14800
_cell_length_b 13.12300
_cell_length_c 13.98000
_cell_angle_alpha 75.63300
_cell_angle_beta  64.45000
_cell_angle_gamma 67.61600

_symmetry_space_group_name_	'P 1'
_symmetry_space_group_name_H-M	'P 1'

loop_
_symmetry_equiv_pos_as_xyz
  x,y,z

loop_
_atom_site_label
_atom_site_type_symbol
_atom_site_fract_x
_atom_site_fract_y
_atom_site_fract_z
_atom_site_charge
Cd	Cd	0.15062 0.55385 0.44913 1.22800
Cd	Cd	0.24978 0.49186 0.72287 1.22900
Cd	Cd	0.84938 0.44615 0.55087 1.22800
Cd	Cd	0.75022 0.50814 0.27713 1.22900
H 	H 	0.44920 0.80770 0.31590 0.04100
H 	H 	0.38220 0.65860 0.44640 0.04200
H 	H 	0.09640 0.91510 0.18930 0.08700
H 	H 	0.91820 0.92110 0.16840 -0.00900
H 	H 	0.83230 0.77950 0.24040 0.09300
H 	H 	0.92680 0.63400 0.34400 -0.02300
H 	H 	0.41280 0.89150 0.13800 0.04400
H 	H 	0.29120 0.88700 0.12790 0.04000
H 	H 	0.28280 0.04080 0.24370 0.08000
H 	H 	0.16160 0.03680 0.23200 0.07600
H 	H 	0.37380 0.07660 0.05340 0.05300
H 	H 	0.24170 0.08800 0.05110 0.05000
H 	H 	0.26320 0.22990 0.16140 0.07700
H 	H 	0.13970 0.24560 0.14180 0.06800
H 	H 	0.45300 0.27900 0.01340 0.04700
H 	H 	0.48180 0.38680 0.84020 0.02200
H 	H 	0.02880 0.26150 0.07110 0.07400
H 	H 	0.82830 0.31170 0.06670 0.03400
H 	H 	0.77430 0.44660 0.93630 0.07500
H 	H 	0.93380 0.51920 0.80740 0.01800
H 	H 	0.76360 0.85750 0.52100 0.02500
H 	H 	0.82900 0.01040 0.46680 0.06700
H 	H 	0.09990 0.85530 0.59110 0.05800
H 	H 	0.37700 0.14810 0.58860 0.05300
H 	H 	0.67810 0.99240 0.35280 0.05700
H 	H 	0.72020 0.15480 0.27480 0.03700
H 	H 	0.55080 0.19230 0.68410 0.04100
H 	H 	0.61780 0.34140 0.55360 0.04200
H 	H 	0.90360 0.08490 0.81070 0.08700
H 	H 	0.08180 0.07890 0.83160 -0.00900
H 	H 	0.16770 0.22050 0.75960 0.09300
H 	H 	0.07320 0.36600 0.65600 -0.02300
H 	H 	0.58720 0.10850 0.86200 0.04400
H 	H 	0.70880 0.11300 0.87210 0.04000
H 	H 	0.71720 0.95920 0.75630 0.08000
H 	H 	0.83840 0.96320 0.76800 0.07600
H 	H 	0.62620 0.92340 0.94660 0.05300
H 	H 	0.75830 0.91200 0.94890 0.05000
H 	H 	0.73680 0.77010 0.83860 0.07700
H 	H 	0.86030 0.75440 0.85820 0.06800
H 	H 	0.54700 0.72100 0.98660 0.04700
H 	H 	0.51820 0.61320 0.15980 0.02200
H 	H 	0.97120 0.73850 0.92890 0.07400
H 	H 	0.17170 0.68830 0.93330 0.03400
H 	H 	0.22570 0.55340 0.06370 0.07500
H 	H 	0.06620 0.48080 0.19260 0.01800
H 	H 	0.23640 0.14250 0.47900 0.02500
H 	H 	0.17100 0.98960 0.53320 0.06700
H 	H 	0.90010 0.14470 0.40890 0.05800
H 	H 	0.62300 0.85190 0.41140 0.05300
H 	H 	0.32190 0.00760 0.64720 0.05700
H 	H 	0.27980 0.84520 0.72520 0.03700
C 	C 	0.38240 0.78290 0.32600 -0.00700
C 	C 	0.34620 0.70010 0.39670 0.00300
C 	C 	0.21680 0.76250 0.31170 0.06000
C 	C 	0.10850 0.77070 0.28340 0.08400
C 	C 	0.05920 0.85880 0.22130 -0.16600
C 	C 	0.95520 0.86080 0.20830 0.10100
C 	C 	0.90310 0.77890 0.25090 -0.17800
C 	C 	0.96130 0.69190 0.31240 0.10400
C 	C 	0.32130 0.90280 0.17490 -0.03700
C 	C 	0.25350 0.02380 0.19680 -0.13500
C 	C 	0.28180 0.09820 0.09340 -0.07400
C 	C 	0.23290 0.22110 0.11110 -0.07900
C 	C 	0.39560 0.30470 0.97880 -0.02400
C 	C 	0.40960 0.36520 0.88400 0.02600
C 	C 	0.22190 0.34420 0.94060 0.06900
C 	C 	0.09850 0.36280 0.94160 0.04900
C 	C 	0.00790 0.31430 0.01830 -0.10500
C 	C 	0.88840 0.34450 0.01570 0.01800
C 	C 	0.85610 0.42360 0.93790 -0.10200
C 	C 	0.95200 0.46720 0.86170 0.05600
C 	C 	0.06960 0.66720 0.65870 0.29100
C 	C 	0.99550 0.76490 0.60480 -0.04900
C 	C 	0.89690 0.76270 0.58240 -0.10700
C 	C 	0.83370 0.85680 0.53280 0.02800
C 	C 	0.87250 0.94850 0.50090 -0.09800
C 	C 	0.97670 0.95160 0.51820 0.02700
C 	C 	0.03350 0.85570 0.57440 -0.06200
C 	C 	0.85030 0.66050 0.61660 0.36700
C 	C 	0.37070 0.35250 0.52990 0.35100
C 	C 	0.46390 0.24920 0.47870 -0.04500
C 	C 	0.44380 0.15020 0.52290 -0.05000
C 	C 	0.51530 0.05370 0.47680 0.02100
C 	C 	0.62290 0.05750 0.38370 -0.08000
C 	C 	0.64860 0.15460 0.33720 0.00000
C 	C 	0.56840 0.25380 0.38240 -0.05200
C 	C 	0.60440 0.36080 0.33090 0.34700
C 	C 	0.61760 0.21710 0.67400 -0.00700
C 	C 	0.65380 0.29990 0.60330 0.00300
C 	C 	0.78320 0.23750 0.68830 0.06000
C 	C 	0.89150 0.22930 0.71660 0.08400
C 	C 	0.94080 0.14120 0.77870 -0.16600
C 	C 	0.04480 0.13920 0.79170 0.10100
C 	C 	0.09690 0.22110 0.74910 -0.17800
C 	C 	0.03870 0.30810 0.68760 0.10400
C 	C 	0.67870 0.09720 0.82510 -0.03700
C 	C 	0.74650 0.97620 0.80320 -0.13500
C 	C 	0.71820 0.90180 0.90660 -0.07400
C 	C 	0.76710 0.77890 0.88890 -0.07900
C 	C 	0.60440 0.69530 0.02120 -0.02400
C 	C 	0.59040 0.63480 0.11600 0.02600
C 	C 	0.77810 0.65580 0.05940 0.06900
C 	C 	0.90150 0.63720 0.05840 0.04900
C 	C 	0.99210 0.68570 0.98170 -0.10500
C 	C 	0.11160 0.65550 0.98430 0.01800
C 	C 	0.14390 0.57640 0.06210 -0.10200
C 	C 	0.04800 0.53280 0.13830 0.05600
C 	C 	0.93040 0.33280 0.34130 0.29100
C 	C 	0.00450 0.23510 0.39520 -0.04900
C 	C 	0.10310 0.23730 0.41760 -0.10700
C 	C 	0.16630 0.14320 0.46720 0.02800
C 	C 	0.12750 0.05150 0.49910 -0.09800
C 	C 	0.02330 0.04840 0.48180 0.02700
C 	C 	0.96650 0.14430 0.42560 -0.06200
C 	C 	0.14970 0.33950 0.38340 0.36700
C 	C 	0.62930 0.64750 0.47010 0.35100
C 	C 	0.53610 0.75080 0.52130 -0.04500
C 	C 	0.55620 0.84980 0.47710 -0.05000
C 	C 	0.48470 0.94630 0.52320 0.02100
C 	C 	0.37710 0.94250 0.61630 -0.08000
C 	C 	0.35140 0.84540 0.66280 0.00000
C 	C 	0.43160 0.74620 0.61760 -0.05200
C 	C 	0.39560 0.63920 0.66910 0.34700
N 	N 	0.06370 0.68830 0.32760 -0.23200
N 	N 	0.24750 0.68720 0.38320 -0.22100
N 	N 	0.30080 0.82340 0.27170 -0.11100
N 	N 	0.07060 0.43640 0.86440 -0.20300
N 	N 	0.30310 0.39080 0.86070 -0.22600
N 	N 	0.27500 0.28860 0.01460 -0.10100
N 	N 	0.93630 0.31170 0.67240 -0.23200
N 	N 	0.75250 0.31280 0.61680 -0.22100
N 	N 	0.69920 0.17660 0.72830 -0.11100
N 	N 	0.92940 0.56360 0.13560 -0.20300
N 	N 	0.69690 0.60920 0.13930 -0.22600
N 	N 	0.72500 0.71140 0.98540 -0.10100
O 	O 	0.09510 0.67750 0.73120 -0.36400
O 	O 	0.10550 0.57190 0.62390 -0.46900
O 	O 	0.90640 0.59080 0.55030 -0.49600
O 	O 	0.76700 0.65180 0.70360 -0.29900
O 	O 	0.33340 0.34570 0.62870 -0.42600
O 	O 	0.33240 0.43580 0.46740 -0.41200
O 	O 	0.62140 0.41100 0.38170 -0.42400
O 	O 	0.62190 0.38350 0.23410 -0.31100
O 	O 	0.90490 0.32250 0.26880 -0.36400
O 	O 	0.89450 0.42810 0.37610 -0.46900
O 	O 	0.09360 0.40920 0.44970 -0.49600
O 	O 	0.23300 0.34820 0.29640 -0.29900
O 	O 	0.66660 0.65430 0.37130 -0.42600
O 	O 	0.66760 0.56420 0.53260 -0.41200
O 	O 	0.37860 0.58900 0.61830 -0.42400
O 	O 	0.37810 0.61650 0.76590 -0.31100
