data_crystal

_cell_length_a 9.24100
_cell_length_b 9.74590
_cell_length_c 10.66100
_cell_angle_alpha 67.71160
_cell_angle_beta  84.68000
_cell_angle_gamma 61.73520

_symmetry_space_group_name_	'P 1'
_symmetry_space_group_name_H-M	'P 1'

loop_
_symmetry_equiv_pos_as_xyz
  x,y,z

loop_
_atom_site_label
_atom_site_type_symbol
_atom_site_fract_x
_atom_site_fract_y
_atom_site_fract_z
_atom_site_charge
Nd	Nd	0.77969 0.45649 0.01839 2.01300
Nd	Nd	0.22031 0.54351 0.98161 2.01300
H 	H 	0.58830 0.96270 0.12790 0.18400
H 	H 	0.56400 0.96700 0.27280 0.17100
H 	H 	0.56620 0.69980 0.38950 0.02100
H 	H 	0.63820 0.65970 0.24940 0.03000
H 	H 	0.54480 0.46230 0.38200 0.10000
H 	H 	0.36180 0.62200 0.37390 0.12300
H 	H 	0.11590 0.27710 0.43050 0.17500
H 	H 	0.17670 0.40620 0.35670 0.14600
H 	H 	0.32360 0.93990 0.26390 -0.01600
H 	H 	0.37900 0.90540 0.13500 -0.01500
H 	H 	0.87410 0.47790 0.46340 0.02000
H 	H 	0.90150 0.63280 0.36730 0.00400
H 	H 	0.41170 0.03730 0.87210 0.18500
H 	H 	0.43600 0.03300 0.72720 0.17200
H 	H 	0.43380 0.30020 0.61050 0.02100
H 	H 	0.36180 0.34030 0.75060 0.03000
H 	H 	0.45520 0.53770 0.61800 0.10000
H 	H 	0.63820 0.37800 0.62610 0.12300
H 	H 	0.88410 0.72290 0.56950 0.17500
H 	H 	0.82330 0.59380 0.64330 0.14600
H 	H 	0.67640 0.06010 0.73610 -0.01600
H 	H 	0.62100 0.09460 0.86500 -0.01500
H 	H 	0.12590 0.52210 0.53660 0.02000
H 	H 	0.09850 0.36720 0.63270 0.00400
C 	C 	0.40930 0.58520 0.19054 0.50700
C 	C 	0.51320 0.98650 0.18990 -0.49600
C 	C 	0.53550 0.69940 0.29850 -0.03600
C 	C 	0.99220 0.40510 0.25053 0.48300
C 	C 	0.45550 0.58730 0.32080 -0.34000
C 	C 	0.07820 0.38430 0.37420 -0.45100
C 	C 	0.40560 0.17480 0.12210 0.42500
C 	C 	0.42150 0.88490 0.21490 0.09000
C 	C 	0.95840 0.50550 0.43880 0.01800
C 	C 	0.59070 0.41480 0.80946 0.50700
C 	C 	0.48680 0.01350 0.81010 -0.49600
C 	C 	0.46450 0.30060 0.70150 -0.03600
C 	C 	0.00780 0.59490 0.74947 0.48300
C 	C 	0.54450 0.41270 0.67920 -0.34000
C 	C 	0.92180 0.61570 0.62580 -0.45100
C 	C 	0.59440 0.82520 0.87790 0.42500
C 	C 	0.57850 0.11510 0.78510 0.09000
C 	C 	0.04160 0.49450 0.56120 0.01800
O 	O 	0.51660 0.54890 0.11082 -0.57900
O 	O 	0.02816 0.46680 0.13285 -0.60000
O 	O 	0.30521 0.23722 0.01884 -0.45500
O 	O 	0.26342 0.61690 0.16619 -0.54100
O 	O 	0.42071 0.27039 0.16802 -0.46700
O 	O 	0.87780 0.36630 0.26385 -0.51500
O 	O 	0.48340 0.45110 0.88918 -0.57900
O 	O 	0.97184 0.53320 0.86715 -0.60000
O 	O 	0.69479 0.76278 0.98116 -0.45500
O 	O 	0.73658 0.38310 0.83381 -0.54100
O 	O 	0.57929 0.72961 0.83198 -0.46700
O 	O 	0.12220 0.63370 0.73615 -0.51500
