data_crystal

_cell_length_a 12.48100
_cell_length_b 12.86200
_cell_length_c 13.33200
_cell_angle_alpha 100.00100
_cell_angle_beta  105.25300
_cell_angle_gamma 111.73600

_symmetry_space_group_name_	'P 1'
_symmetry_space_group_name_H-M	'P 1'

loop_
_symmetry_equiv_pos_as_xyz
  x,y,z

loop_
_atom_site_label
_atom_site_type_symbol
_atom_site_fract_x
_atom_site_fract_y
_atom_site_fract_z
_atom_site_charge
Cu	Cu	0.50000 0.50000 -0.00000 0.84100
Cu	Cu	-0.00000 0.00000 0.50000 0.83000
H 	H 	0.55230 0.04460 0.13670 0.12000
H 	H 	0.52220 0.07640 0.24080 0.11600
H 	H 	0.35970 0.90580 0.04450 -0.00200
H 	H 	0.32730 0.90920 0.15070 0.00100
H 	H 	0.33280 0.32960 0.10570 -0.01000
H 	H 	0.54580 0.88140 0.16670 0.00200
H 	H 	0.51520 0.91270 0.27070 -0.00300
H 	H 	0.95640 0.14210 0.32870 -0.01400
H 	H 	0.02070 0.61380 0.55590 0.07200
H 	H 	0.11220 0.58890 0.50550 0.07500
H 	H 	0.27650 0.69360 0.69690 0.05900
H 	H 	0.18100 0.70580 0.74910 0.06900
H 	H 	0.30440 0.26890 0.80410 -0.02600
H 	H 	0.70920 0.91250 0.39970 -0.02700
H 	H 	0.38640 0.09680 0.06740 0.09900
H 	H 	0.34350 0.09230 0.16740 0.09400
H 	H 	0.02970 0.68880 0.06110 0.07800
H 	H 	0.92500 0.60720 0.09480 0.10500
H 	H 	0.33170 0.62300 0.05530 -0.05100
H 	H 	0.07210 0.05710 0.97510 0.08000
H 	H 	0.16690 0.12940 0.09370 0.06300
H 	H 	0.12270 0.55730 0.07490 0.04900
H 	H 	0.01120 0.47400 0.09970 0.04200
H 	H 	0.08140 0.03650 0.29400 -0.03500
H 	H 	0.00820 0.75990 0.38980 -0.03000
H 	H 	0.19370 0.96240 0.94950 0.05800
H 	H 	0.14900 0.93960 0.04640 0.02800
H 	H 	0.38470 0.55900 0.78350 -0.02000
H 	H 	0.05630 0.50370 0.67660 0.03000
H 	H 	0.15340 0.48750 0.62910 0.03000
H 	H 	0.07460 0.64060 0.26210 0.01900
H 	H 	0.17650 0.72570 0.22860 0.03300
H 	H 	0.44770 0.95540 0.86330 0.04600
H 	H 	0.47780 0.92360 0.75920 0.03600
H 	H 	0.64030 0.09420 0.95550 0.09900
H 	H 	0.67270 0.09080 0.84930 0.09300
H 	H 	0.66720 0.67040 0.89430 -0.03800
H 	H 	0.45420 0.11860 0.83330 0.06400
H 	H 	0.48480 0.08730 0.72930 0.05500
H 	H 	0.04360 0.85790 0.67130 -0.02900
H 	H 	0.97930 0.38620 0.44410 0.02900
H 	H 	0.88780 0.41110 0.49450 0.02600
H 	H 	0.72350 0.30640 0.30310 0.03400
H 	H 	0.81900 0.29420 0.25090 0.04700
H 	H 	0.69560 0.73110 0.19590 -0.02200
H 	H 	0.29080 0.08750 0.60030 -0.02200
H 	H 	0.61360 0.90320 0.93260 0.03000
H 	H 	0.65650 0.90770 0.83260 0.01800
H 	H 	0.97030 0.31120 0.93890 0.06600
H 	H 	0.07500 0.39280 0.90520 0.03500
H 	H 	0.66830 0.37700 0.94470 0.00300
H 	H 	0.92790 0.94290 0.02490 0.00800
H 	H 	0.83310 0.87060 0.90630 0.01400
H 	H 	0.87730 0.44270 0.92510 0.05200
H 	H 	0.98880 0.52600 0.90030 0.06300
H 	H 	0.91860 0.96350 0.70600 -0.00900
H 	H 	0.99180 0.24010 0.61020 -0.01400
H 	H 	0.80630 0.03760 0.05050 0.08500
H 	H 	0.85100 0.06040 0.95360 0.09500
H 	H 	0.61530 0.44100 0.21650 -0.02400
H 	H 	0.94370 0.49630 0.32340 0.09000
H 	H 	0.84660 0.51250 0.37090 0.08100
H 	H 	0.92540 0.35940 0.73790 0.05000
H 	H 	0.82350 0.27430 0.77140 0.04600
C 	C 	0.50740 0.01120 0.18140 -0.30400
C 	C 	0.37430 0.95680 0.11440 0.09900
C 	C 	0.31030 0.29380 0.03170 0.04100
C 	C 	0.56010 0.94630 0.22610 0.10400
C 	C 	0.88010 0.09170 0.32830 0.10600
C 	C 	0.05270 0.55740 0.53950 -0.19600
C 	C 	0.21730 0.65440 0.72860 -0.08900
C 	C 	0.29330 0.25810 0.86840 0.09900
C 	C 	0.74840 0.96760 0.36860 0.10700
C 	C 	0.33330 0.04540 0.09730 -0.23800
C 	C 	0.01140 0.63450 0.10330 -0.18400
C 	C 	0.32720 0.61740 0.98360 0.13800
C 	C 	0.15890 0.09280 0.02040 -0.15100
C 	C 	0.03500 0.53030 0.06040 -0.10600
C 	C 	0.07190 0.96260 0.29900 0.10300
C 	C 	0.03160 0.81380 0.35220 0.09900
C 	C 	0.20170 0.99930 0.02280 -0.01400
C 	C 	0.35680 0.58240 0.83740 0.08600
C 	C 	0.11720 0.54030 0.64540 -0.04000
C 	C 	0.09030 0.69660 0.22130 -0.00200
C 	C 	0.49260 0.98880 0.81860 -0.01100
C 	C 	0.62570 0.04320 0.88560 -0.21300
C 	C 	0.68970 0.70620 0.96830 0.15300
C 	C 	0.43990 0.05370 0.77390 -0.10100
C 	C 	0.11990 0.90830 0.67170 0.10400
C 	C 	0.94730 0.44260 0.46050 0.00900
C 	C 	0.78270 0.34560 0.27140 -0.01800
C 	C 	0.70670 0.74190 0.13160 0.09800
C 	C 	0.25160 0.03240 0.63140 0.07900
C 	C 	0.66670 0.95460 0.90270 0.03300
C 	C 	0.98860 0.36550 0.89670 -0.06100
C 	C 	0.67280 0.38260 0.01640 0.05400
C 	C 	0.84110 0.90720 0.97960 0.07000
C 	C 	0.96500 0.46970 0.93960 -0.06300
C 	C 	0.92810 0.03740 0.70100 0.09900
C 	C 	0.96840 0.18620 0.64780 0.10400
C 	C 	0.79830 0.00070 0.97720 -0.19000
C 	C 	0.64320 0.41760 0.16260 0.08900
C 	C 	0.88280 0.45970 0.35460 -0.17300
C 	C 	0.90970 0.30340 0.77870 -0.05500
N 	N 	0.09580 0.89120 0.23310 -0.10300
N 	N 	0.21800 0.15980 0.87280 -0.10100
N 	N 	0.22870 0.18460 0.97820 -0.06200
N 	N 	0.69250 0.00150 0.29300 -0.12200
N 	N 	0.26080 0.65440 0.91950 -0.10700
N 	N 	0.38830 0.57060 0.93710 -0.24700
N 	N 	0.86870 0.02320 0.39420 -0.24200
N 	N 	0.06840 0.79610 0.26990 -0.10700
N 	N 	0.77670 0.08200 0.26430 -0.10400
N 	N 	0.35530 0.34470 0.96540 -0.22700
N 	N 	0.28080 0.63150 0.82610 -0.09000
N 	N 	0.03210 0.91730 0.37440 -0.24800
N 	N 	0.90420 0.10880 0.76690 -0.09600
N 	N 	0.78200 0.84020 0.12720 -0.09200
N 	N 	0.77130 0.81540 0.02180 -0.13100
N 	N 	0.30750 0.99850 0.70700 -0.08400
N 	N 	0.73920 0.34560 0.08050 -0.10000
N 	N 	0.61170 0.42940 0.06290 -0.24300
N 	N 	0.13130 0.97680 0.60580 -0.24400
N 	N 	0.93160 0.20390 0.73010 -0.09300
N 	N 	0.22330 0.91800 0.73570 -0.10200
N 	N 	0.64470 0.65530 0.03460 -0.26700
N 	N 	0.71920 0.36850 0.17390 -0.10100
N 	N 	0.96790 0.08270 0.62560 -0.23400
