data_crystal

_cell_length_a 10.77650
_cell_length_b 15.06830
_cell_length_c 28.48700
_cell_angle_alpha 86.89730
_cell_angle_beta  81.29410
_cell_angle_gamma 69.04780

_symmetry_space_group_name_	'P 1'
_symmetry_space_group_name_H-M	'P 1'

loop_
_symmetry_equiv_pos_as_xyz
  x,y,z

loop_
_atom_site_label
_atom_site_type_symbol
_atom_site_fract_x
_atom_site_fract_y
_atom_site_fract_z
_atom_site_charge
Cu	Cu	0.62216 0.96212 0.01088 0.89900
Cu	Cu	0.41572 0.96212 0.48912 0.90000
Cu	Cu	0.37784 0.03788 0.98912 0.89900
Cu	Cu	0.58428 0.03788 0.51088 0.90000
H 	H 	0.55400 0.77520 0.12820 -0.00400
H 	H 	0.19970 0.88880 0.08700 0.01300
H 	H 	0.10700 0.79240 0.14480 0.12500
H 	H 	0.17510 0.52160 0.18510 0.04400
H 	H 	0.15970 0.44560 0.22370 0.04500
H 	H 	0.22920 0.27800 0.08610 0.00200
H 	H 	0.39580 0.56440 0.20960 0.04300
H 	H 	0.33290 0.63740 0.25200 0.04300
H 	H 	0.47130 0.68220 0.18550 0.12900
H 	H 	0.55760 0.29100 0.17070 0.12600
H 	H 	0.60460 0.16840 0.11360 0.00800
H 	H 	0.17290 0.39560 0.14320 0.12400
H 	H 	0.67080 0.77520 0.37180 -0.00300
H 	H 	0.91150 0.88880 0.41300 0.01400
H 	H 	0.10060 0.79240 0.35520 0.12400
H 	H 	0.30330 0.52160 0.31490 0.04400
H 	H 	0.39470 0.44560 0.27630 0.04500
H 	H 	0.49280 0.27800 0.41390 0.00200
H 	H 	0.03980 0.56440 0.29040 0.04300
H 	H 	0.02970 0.63740 0.24800 0.04400
H 	H 	0.84650 0.68220 0.31450 0.12800
H 	H 	0.15140 0.29100 0.32930 0.12600
H 	H 	0.22700 0.16840 0.38640 0.00700
H 	H 	0.43150 0.39560 0.35680 0.12400
H 	H 	0.44600 0.22480 0.87180 -0.00400
H 	H 	0.80030 0.11120 0.91300 0.01300
H 	H 	0.89300 0.20760 0.85520 0.12500
H 	H 	0.82490 0.47840 0.81490 0.04400
H 	H 	0.84030 0.55440 0.77630 0.04500
H 	H 	0.77080 0.72200 0.91390 0.00200
H 	H 	0.60420 0.43560 0.79040 0.04300
H 	H 	0.66710 0.36260 0.74800 0.04300
H 	H 	0.52870 0.31780 0.81450 0.12900
H 	H 	0.44240 0.70900 0.82930 0.12600
H 	H 	0.39540 0.83160 0.88640 0.00800
H 	H 	0.82710 0.60440 0.85680 0.12400
H 	H 	0.32920 0.22480 0.62820 -0.00300
H 	H 	0.08850 0.11120 0.58700 0.01400
H 	H 	0.89940 0.20760 0.64480 0.12400
H 	H 	0.69670 0.47840 0.68510 0.04400
H 	H 	0.60530 0.55440 0.72370 0.04500
H 	H 	0.50720 0.72200 0.58610 0.00200
H 	H 	0.96020 0.43560 0.70960 0.04300
H 	H 	0.97030 0.36260 0.75200 0.04400
H 	H 	0.15350 0.31780 0.68550 0.12800
H 	H 	0.84860 0.70900 0.67070 0.12600
H 	H 	0.77300 0.83160 0.61360 0.00700
H 	H 	0.56850 0.60440 0.64320 0.12400
C 	C 	0.46500 0.77960 0.13030 0.15200
C 	C 	0.38681 0.83898 0.10170 -0.19000
C 	C 	0.25560 0.84580 0.10620 0.11000
C 	C 	0.19680 0.78680 0.14110 -0.22300
C 	C 	0.43079 0.90082 0.06561 0.40800
C 	C 	0.21510 0.48220 0.21088 0.00300
C 	C 	0.29499 0.28042 0.10320 0.13400
C 	C 	0.31236 0.60448 0.22759 0.00700
C 	C 	0.29082 0.72316 0.16720 0.27600
C 	C 	0.41544 0.72112 0.16490 -0.27200
C 	C 	0.36145 0.35550 0.15970 0.25800
C 	C 	0.49220 0.28840 0.15350 -0.22700
C 	C 	0.51920 0.21480 0.11870 0.12300
C 	C 	0.42463 0.21134 0.09360 -0.17700
C 	C 	0.26008 0.35224 0.13670 -0.25500
C 	C 	0.45033 0.13294 0.05950 0.38600
C 	C 	0.75540 0.77960 0.36970 0.14900
C 	C 	0.77421 0.83898 0.39830 -0.18800
C 	C 	0.89860 0.84580 0.39380 0.10700
C 	C 	0.01640 0.78680 0.35890 -0.21800
C 	C 	0.66839 0.90082 0.43439 0.40700
C 	C 	0.30270 0.48220 0.28912 0.00300
C 	C 	0.42459 0.28042 0.39680 0.13400
C 	C 	0.08316 0.60448 0.27241 0.00600
C 	C 	0.98602 0.72316 0.33280 0.27200
C 	C 	0.86344 0.72112 0.33510 -0.26900
C 	C 	0.28305 0.35550 0.34030 0.25800
C 	C 	0.21940 0.28840 0.34650 -0.22700
C 	C 	0.26600 0.21480 0.38130 0.12300
C 	C 	0.36403 0.21134 0.40640 -0.17700
C 	C 	0.38768 0.35224 0.36330 -0.25500
C 	C 	0.41673 0.13294 0.44050 0.38600
C 	C 	0.53500 0.22040 0.86970 0.15200
C 	C 	0.61319 0.16102 0.89830 -0.19000
C 	C 	0.74440 0.15420 0.89380 0.11000
C 	C 	0.80320 0.21320 0.85890 -0.22300
C 	C 	0.56921 0.09918 0.93439 0.40800
C 	C 	0.78490 0.51780 0.78912 0.00300
C 	C 	0.70501 0.71958 0.89680 0.13400
C 	C 	0.68764 0.39552 0.77241 0.00700
C 	C 	0.70918 0.27684 0.83280 0.27600
C 	C 	0.58456 0.27888 0.83510 -0.27200
C 	C 	0.63855 0.64450 0.84030 0.25800
C 	C 	0.50780 0.71160 0.84650 -0.22700
C 	C 	0.48080 0.78520 0.88130 0.12300
C 	C 	0.57537 0.78866 0.90640 -0.17700
C 	C 	0.73992 0.64776 0.86330 -0.25500
C 	C 	0.54967 0.86706 0.94050 0.38600
C 	C 	0.24460 0.22040 0.63030 0.14900
C 	C 	0.22579 0.16102 0.60170 -0.18800
C 	C 	0.10140 0.15420 0.60620 0.10700
C 	C 	0.98360 0.21320 0.64110 -0.21800
C 	C 	0.33161 0.09918 0.56561 0.40700
C 	C 	0.69730 0.51780 0.71088 0.00300
C 	C 	0.57541 0.71958 0.60320 0.13400
C 	C 	0.91684 0.39552 0.72759 0.00600
C 	C 	0.01398 0.27684 0.66720 0.27200
C 	C 	0.13656 0.27888 0.66490 -0.26900
C 	C 	0.71695 0.64450 0.65970 0.25800
C 	C 	0.78060 0.71160 0.65350 -0.22700
C 	C 	0.73400 0.78520 0.61870 0.12300
C 	C 	0.63597 0.78866 0.59360 -0.17700
C 	C 	0.61232 0.64776 0.63670 -0.25500
C 	C 	0.58327 0.86706 0.55950 0.38600
C 	C 	0.22780 0.54440 0.25000 0.02700
C 	C 	0.77220 0.45560 0.75000 0.02700
O 	O 	0.34238 0.95564 0.04246 -0.41900
O 	O 	0.54990 0.89200 0.06122 -0.42200
O 	O 	0.56841 0.06998 0.05487 -0.40400
O 	O 	0.36011 0.13518 0.03640 -0.41300
O 	O 	0.23023 0.67114 0.19698 -0.23500
O 	O 	0.34906 0.42028 0.19438 -0.23100
O 	O 	0.70198 0.95564 0.45754 -0.41800
O 	O 	0.55810 0.89200 0.43878 -0.42100
O 	O 	0.36161 0.06998 0.44513 -0.40500
O 	O 	0.50471 0.13518 0.46360 -0.41400
O 	O 	0.09863 0.67114 0.30302 -0.23300
O 	O 	0.23066 0.42028 0.30562 -0.23100
O 	O 	0.65762 0.04436 0.95754 -0.41900
O 	O 	0.45010 0.10800 0.93878 -0.42200
O 	O 	0.43159 0.93002 0.94513 -0.40400
O 	O 	0.63989 0.86482 0.96360 -0.41300
O 	O 	0.76977 0.32886 0.80302 -0.23500
O 	O 	0.65094 0.57972 0.80562 -0.23100
O 	O 	0.29802 0.04436 0.54246 -0.41800
O 	O 	0.44190 0.10800 0.56122 -0.42100
O 	O 	0.63839 0.93002 0.55487 -0.40500
O 	O 	0.49529 0.86482 0.53640 -0.41400
O 	O 	0.90137 0.32886 0.69698 -0.23300
O 	O 	0.76934 0.57972 0.69438 -0.23100
