data_crystal

_cell_length_a 10.43400
_cell_length_b 11.16300
_cell_length_c 12.42200
_cell_angle_alpha 102.67600
_cell_angle_beta  106.31300
_cell_angle_gamma 99.41500

_symmetry_space_group_name_	'P 1'
_symmetry_space_group_name_H-M	'P 1'

loop_
_symmetry_equiv_pos_as_xyz
  x,y,z

loop_
_atom_site_label
_atom_site_type_symbol
_atom_site_fract_x
_atom_site_fract_y
_atom_site_fract_z
_atom_site_charge
La	La	0.40366 0.45694 0.81635 1.60800
La	La	0.59634 0.54306 0.18365 1.60800
H 	H 	0.11000 0.44580 0.86730 0.05800
H 	H 	0.48890 0.85320 0.83180 0.07400
H 	H 	0.89000 0.55420 0.13270 0.05800
H 	H 	0.51110 0.14680 0.16820 0.07400
C 	C 	0.14070 0.01150 0.51490 0.03800
C 	C 	0.07430 0.54940 0.11870 0.17400
C 	C 	0.95700 0.09950 0.55720 0.13500
C 	C 	0.06520 0.46820 0.92090 -0.07300
C 	C 	0.09530 0.11140 0.57230 -0.11700
C 	C 	0.52870 0.88310 0.00650 -0.11600
C 	C 	0.29470 0.53860 0.07800 0.37300
C 	C 	0.14320 0.51880 0.03950 -0.12400
C 	C 	0.19800 0.23010 0.64560 0.32800
C 	C 	0.55590 0.75640 0.00820 0.37400
C 	C 	0.49350 0.91250 0.89930 -0.07800
C 	C 	0.53420 0.97250 0.10770 0.16800
C 	C 	0.85930 0.98850 0.48510 0.03800
C 	C 	0.92570 0.45060 0.88130 0.17400
C 	C 	0.04300 0.90050 0.44280 0.13500
C 	C 	0.93480 0.53180 0.07910 -0.07300
C 	C 	0.90470 0.88860 0.42770 -0.11700
C 	C 	0.47130 0.11690 0.99350 -0.11600
C 	C 	0.70530 0.46140 0.92200 0.37300
C 	C 	0.85680 0.48120 0.96050 -0.12400
C 	C 	0.80200 0.76990 0.35440 0.32800
C 	C 	0.44410 0.24360 0.99180 0.37400
C 	C 	0.50650 0.08750 0.10070 -0.07800
C 	C 	0.46580 0.02750 0.89230 0.16800
O 	O 	0.14260 0.59780 0.23650 -0.16000
O 	O 	0.53880 0.67710 0.91240 -0.43200
O 	O 	0.59640 0.73350 0.10760 -0.36700
O 	O 	0.32190 0.24600 0.64820 -0.34100
O 	O 	0.16040 0.31580 0.70800 -0.36300
O 	O 	0.56870 0.95270 0.21620 -0.16500
O 	O 	0.35570 0.51870 0.00230 -0.47800
O 	O 	0.36200 0.57630 0.18570 -0.36900
O 	O 	0.89910 0.19060 0.60350 -0.14700
O 	O 	0.85740 0.40220 0.76350 -0.16000
O 	O 	0.46120 0.32290 0.08760 -0.43200
O 	O 	0.40360 0.26650 0.89240 -0.36700
O 	O 	0.67810 0.75400 0.35180 -0.34100
O 	O 	0.83960 0.68420 0.29200 -0.36300
O 	O 	0.43130 0.04730 0.78380 -0.16500
O 	O 	0.64430 0.48130 0.99770 -0.47800
O 	O 	0.63800 0.42370 0.81430 -0.36900
O 	O 	0.10090 0.80940 0.39650 -0.14700
