data_crystal

_cell_length_a 19.57000
_cell_length_b 19.57000
_cell_length_c 31.88520
_cell_angle_alpha 105.20400
_cell_angle_beta  105.20400
_cell_angle_gamma 98.36040

_symmetry_space_group_name_	'P 1'
_symmetry_space_group_name_H-M	'P 1'

loop_
_symmetry_equiv_pos_as_xyz
  x,y,z

loop_
_atom_site_label
_atom_site_type_symbol
_atom_site_fract_x
_atom_site_fract_y
_atom_site_fract_z
_atom_site_charge
Cu	Cu	0.14086 0.71438 0.91842 0.80600
Cu	Cu	0.26215 0.63317 0.98582 0.80700
Cu	Cu	0.23118 0.81512 0.03760 0.80900
Cu	Cu	0.79596 0.72244 0.58158 0.80600
Cu	Cu	0.64735 0.77633 0.51418 0.80700
Cu	Cu	0.77752 0.69358 0.46240 0.80900
Cu	Cu	0.85914 0.28562 0.08158 0.80500
Cu	Cu	0.73785 0.36683 0.01418 0.80600
Cu	Cu	0.76882 0.18488 0.96240 0.80800
Cu	Cu	0.20404 0.27756 0.41842 0.80500
Cu	Cu	0.35265 0.22367 0.48582 0.80600
Cu	Cu	0.22248 0.30642 0.53760 0.80800
Mo	Mo	0.28070 0.76014 0.96924 0.91500
Mo	Mo	0.79090 0.81146 0.53076 0.91600
Mo	Mo	0.71930 0.23986 0.03076 0.91500
Mo	Mo	0.20910 0.18854 0.46924 0.91600
H 	H 	0.40780 0.45300 0.02120 0.03400
H 	H 	0.31460 0.50560 0.01560 -0.01900
H 	H 	0.50100 0.59220 0.97360 0.04600
H 	H 	0.40230 0.64510 0.96960 -0.05900
H 	H 	0.07680 0.41400 0.96180 0.09400
H 	H 	0.15300 0.48840 0.94360 -0.03100
H 	H 	0.07500 0.72380 0.99980 -0.02200
H 	H 	0.05160 0.50100 0.09860 0.07400
H 	H 	0.00990 0.34450 0.98100 0.09600
H 	H 	0.02550 0.57370 0.88140 -0.00900
H 	H 	0.20100 0.63300 0.06120 -0.02100
H 	H 	0.11500 0.64740 0.81940 -0.03500
H 	H 	0.01730 0.77290 0.87920 -0.02700
H 	H 	0.12660 0.56140 0.08440 0.08000
H 	H 	0.94810 0.77450 0.81200 0.09000
H 	H 	0.04620 0.64720 0.75100 0.08800
H 	H 	0.43180 0.88660 0.47880 0.03400
H 	H 	0.49000 0.79900 0.48440 -0.01900
H 	H 	0.61860 0.02740 0.52640 0.04600
H 	H 	0.67550 0.93270 0.53040 -0.05800
H 	H 	0.45220 0.61500 0.53820 0.09400
H 	H 	0.54480 0.70940 0.55640 -0.03100
H 	H 	0.72400 0.57520 0.50020 -0.02200
H 	H 	0.40240 0.45300 0.40140 0.07400
H 	H 	0.36350 0.52890 0.51900 0.09700
H 	H 	0.69230 0.64410 0.61860 -0.00900
H 	H 	0.57180 0.63980 0.43880 -0.02100
H 	H 	0.82800 0.79560 0.68060 -0.03500
H 	H 	0.89370 0.63810 0.62080 -0.02700
H 	H 	0.47700 0.54220 0.41560 0.08000
H 	H 	0.96250 0.63610 0.68800 0.09000
H 	H 	0.89620 0.79520 0.74900 0.08800
H 	H 	0.59220 0.54700 0.97880 0.03400
H 	H 	0.68540 0.49440 0.98440 -0.01900
H 	H 	0.49900 0.40780 0.02640 0.04600
H 	H 	0.59770 0.35490 0.03040 -0.05900
H 	H 	0.92320 0.58600 0.03820 0.09400
H 	H 	0.84700 0.51160 0.05640 -0.03100
H 	H 	0.92500 0.27620 0.00020 -0.02200
H 	H 	0.94840 0.49900 0.90140 0.07400
H 	H 	0.99010 0.65550 0.01900 0.09600
H 	H 	0.97450 0.42630 0.11860 -0.00900
H 	H 	0.79900 0.36700 0.93880 -0.02100
H 	H 	0.88500 0.35260 0.18060 -0.03500
H 	H 	0.98270 0.22710 0.12080 -0.02700
H 	H 	0.87340 0.43860 0.91560 0.08000
H 	H 	0.05190 0.22550 0.18800 0.09000
H 	H 	0.95380 0.35280 0.24900 0.08800
H 	H 	0.56820 0.11340 0.52120 0.03400
H 	H 	0.51000 0.20100 0.51560 -0.01900
H 	H 	0.38140 0.97260 0.47360 0.04600
H 	H 	0.32450 0.06730 0.46960 -0.05800
H 	H 	0.54780 0.38500 0.46180 0.09400
H 	H 	0.45520 0.29060 0.44360 -0.03100
H 	H 	0.27600 0.42480 0.49980 -0.02200
H 	H 	0.59760 0.54700 0.59860 0.07400
H 	H 	0.63650 0.47110 0.48100 0.09700
H 	H 	0.30770 0.35590 0.38140 -0.00900
H 	H 	0.42820 0.36020 0.56120 -0.02100
H 	H 	0.17200 0.20440 0.31940 -0.03500
H 	H 	0.10630 0.36190 0.37920 -0.02700
H 	H 	0.52300 0.45780 0.58440 0.08000
H 	H 	0.03750 0.36390 0.31200 0.09000
H 	H 	0.10380 0.20480 0.25100 0.08800
C 	C 	0.40820 0.49180 0.00940 -0.14300
C 	C 	0.46590 0.51490 0.99660 0.05100
C 	C 	0.35250 0.52350 0.00600 0.07400
C 	C 	0.46250 0.57250 0.98200 -0.14600
C 	C 	0.40200 0.60420 0.97920 0.08900
C 	C 	0.03860 0.42980 0.03800 0.05900
C 	C 	0.08990 0.47710 0.02500 0.07400
C 	C 	0.10180 0.45900 0.98340 -0.16800
C 	C 	0.98890 0.71610 0.77380 0.09300
C 	C 	0.14780 0.50380 0.97260 0.10800
C 	C 	0.04830 0.67910 0.97860 0.07100
C 	C 	0.02770 0.45470 0.07880 -0.13500
C 	C 	0.00170 0.36230 0.00880 -0.14600
C 	C 	0.02000 0.59040 0.91020 0.05400
C 	C 	0.17570 0.58730 0.04100 0.08300
C 	C 	0.08150 0.67650 0.81900 0.12700
C 	C 	0.02620 0.74760 0.85280 0.12000
C 	C 	0.13040 0.54520 0.05520 -0.14500
C 	C 	0.98390 0.74810 0.81180 -0.19200
C 	C 	0.03980 0.67580 0.77740 -0.18600
C 	C 	0.48240 0.89880 0.49060 -0.14300
C 	C 	0.51830 0.96930 0.50340 0.05100
C 	C 	0.51750 0.84650 0.49400 0.07300
C 	C 	0.59050 0.98050 0.51800 -0.14600
C 	C 	0.62500 0.92280 0.52080 0.08800
C 	C 	0.39180 0.50060 0.46200 0.06000
C 	C 	0.45210 0.56490 0.47500 0.07300
C 	C 	0.47560 0.61840 0.51660 -0.16800
C 	C 	0.94230 0.71510 0.72620 0.09300
C 	C 	0.53120 0.67520 0.52740 0.10800
C 	C 	0.70050 0.56970 0.52140 0.07200
C 	C 	0.37590 0.44890 0.42120 -0.13600
C 	C 	0.35350 0.49290 0.49120 -0.14700
C 	C 	0.68020 0.60980 0.58980 0.05500
C 	C 	0.54630 0.63470 0.45900 0.08300
C 	C 	0.85750 0.76250 0.68100 0.12700
C 	C 	0.89480 0.67340 0.64720 0.12100
C 	C 	0.49000 0.57520 0.44480 -0.14500
C 	C 	0.93630 0.67210 0.68820 -0.19200
C 	C 	0.89840 0.76240 0.72260 -0.18600
C 	C 	0.59180 0.50820 0.99060 -0.14300
C 	C 	0.53410 0.48510 0.00340 0.05100
C 	C 	0.64750 0.47650 0.99400 0.07400
C 	C 	0.53750 0.42750 0.01800 -0.14600
C 	C 	0.59800 0.39580 0.02080 0.08900
C 	C 	0.96140 0.57020 0.96200 0.05900
C 	C 	0.91010 0.52290 0.97500 0.07400
C 	C 	0.89820 0.54100 0.01660 -0.16800
C 	C 	0.01110 0.28390 0.22620 0.09300
C 	C 	0.85220 0.49620 0.02740 0.10800
C 	C 	0.95170 0.32090 0.02140 0.07100
C 	C 	0.97230 0.54530 0.92120 -0.13500
C 	C 	0.99830 0.63770 0.99120 -0.14600
C 	C 	0.98000 0.40960 0.08980 0.05400
C 	C 	0.82430 0.41270 0.95900 0.08300
C 	C 	0.91850 0.32350 0.18100 0.12700
C 	C 	0.97380 0.25240 0.14720 0.12000
C 	C 	0.86960 0.45480 0.94480 -0.14500
C 	C 	0.01610 0.25190 0.18820 -0.19200
C 	C 	0.96020 0.32420 0.22260 -0.18600
C 	C 	0.51760 0.10120 0.50940 -0.14300
C 	C 	0.48170 0.03070 0.49660 0.05100
C 	C 	0.48250 0.15350 0.50600 0.07300
C 	C 	0.40950 0.01950 0.48200 -0.14600
C 	C 	0.37500 0.07720 0.47920 0.08800
C 	C 	0.60820 0.49940 0.53800 0.06000
C 	C 	0.54790 0.43510 0.52500 0.07300
C 	C 	0.52440 0.38160 0.48340 -0.16800
C 	C 	0.05770 0.28490 0.27380 0.09300
C 	C 	0.46880 0.32480 0.47260 0.10800
C 	C 	0.29950 0.43030 0.47860 0.07200
C 	C 	0.62410 0.55110 0.57880 -0.13600
C 	C 	0.64650 0.50710 0.50880 -0.14700
C 	C 	0.31980 0.39020 0.41020 0.05500
C 	C 	0.45370 0.36530 0.54100 0.08300
C 	C 	0.14250 0.23750 0.31900 0.12700
C 	C 	0.10520 0.32660 0.35280 0.12100
C 	C 	0.51000 0.42480 0.55520 -0.14500
C 	C 	0.06370 0.32790 0.31180 -0.19200
C 	C 	0.10160 0.23760 0.27740 -0.18600
S 	S 	0.19650 0.82802 0.96746 -0.64900
S 	S 	0.22822 0.64992 0.91622 -0.64900
S 	S 	0.31176 0.74450 0.03890 -0.65600
S 	S 	0.86056 0.72904 0.53254 -0.64900
S 	S 	0.73370 0.81200 0.58378 -0.64900
S 	S 	0.70560 0.77286 0.46110 -0.65700
S 	S 	0.80350 0.17198 0.03254 -0.64900
S 	S 	0.77178 0.35008 0.08378 -0.64900
S 	S 	0.68824 0.25550 0.96110 -0.65600
S 	S 	0.13944 0.27096 0.46746 -0.64900
S 	S 	0.26630 0.18800 0.41622 -0.64900
S 	S 	0.29440 0.22714 0.53890 -0.65700
N 	N 	0.18638 0.56818 0.00036 -0.25600
N 	N 	0.34717 0.57897 0.98954 -0.24200
N 	N 	0.06135 0.65995 0.93850 -0.24400
N 	N 	0.07836 0.71356 0.85692 -0.26800
N 	N 	0.56782 0.68602 0.49964 -0.25700
N 	N 	0.58943 0.85763 0.51046 -0.24200
N 	N 	0.72145 0.62285 0.56150 -0.24500
N 	N 	0.85664 0.72144 0.64308 -0.26800
N 	N 	0.81362 0.43182 0.99964 -0.25600
N 	N 	0.65283 0.42103 0.01046 -0.24200
N 	N 	0.93865 0.34005 0.06150 -0.24400
N 	N 	0.92164 0.28644 0.14308 -0.26800
N 	N 	0.43218 0.31398 0.50036 -0.25700
N 	N 	0.41057 0.14237 0.48954 -0.24200
N 	N 	0.27855 0.37715 0.43850 -0.24500
N 	N 	0.14336 0.27856 0.35692 -0.26800
Cl	Cl	0.16569 0.83323 0.08672 -0.49000
Cl	Cl	0.74651 0.57897 0.41328 -0.49000
Cl	Cl	0.83431 0.16677 0.91328 -0.49000
Cl	Cl	0.25349 0.42103 0.58672 -0.49000
Cu	Cu	0.77756 0.70404 0.91842 0.80500
Cu	Cu	0.72367 0.85265 0.98582 0.80600
Cu	Cu	0.80642 0.72248 0.03760 0.80800
Cu	Cu	0.78562 0.35914 0.58158 0.80500
Cu	Cu	0.86683 0.23785 0.51418 0.80600
Cu	Cu	0.68488 0.26882 0.46240 0.80800
Cu	Cu	0.22244 0.29596 0.08158 0.80500
Cu	Cu	0.27633 0.14735 0.01418 0.80600
Cu	Cu	0.19358 0.27752 0.96240 0.80800
Cu	Cu	0.21438 0.64086 0.41842 0.80500
Cu	Cu	0.13317 0.76215 0.48582 0.80600
Cu	Cu	0.31512 0.73118 0.53760 0.80800
Mo	Mo	0.68854 0.70910 0.96924 0.91500
Mo	Mo	0.73986 0.21930 0.53076 0.91600
Mo	Mo	0.31146 0.29090 0.03076 0.91500
Mo	Mo	0.26014 0.78070 0.46924 0.91600
H 	H 	0.61340 0.06820 0.02120 0.03600
H 	H 	0.70100 0.01000 0.01560 -0.02200
H 	H 	0.47260 0.88140 0.97360 0.04600
H 	H 	0.56730 0.82450 0.96960 -0.05900
H 	H 	0.88500 0.04780 0.96180 0.09200
H 	H 	0.79060 0.95520 0.94360 -0.03000
H 	H 	0.92480 0.77600 0.99980 -0.02200
H 	H 	0.04700 0.09760 0.09860 0.07400
H 	H 	0.97110 0.13650 0.98100 0.09700
H 	H 	0.85590 0.80770 0.88140 -0.00900
H 	H 	0.86020 0.92820 0.06120 -0.02200
H 	H 	0.70440 0.67200 0.81940 -0.03500
H 	H 	0.86190 0.60630 0.87920 -0.02700
H 	H 	0.95780 0.02300 0.08440 0.08000
H 	H 	0.86390 0.53750 0.81200 0.09000
H 	H 	0.70480 0.60380 0.75100 0.08800
H 	H 	0.04700 0.09220 0.47880 0.03400
H 	H 	0.99440 0.18540 0.48440 -0.01900
H 	H 	0.90780 0.99900 0.52640 0.04600
H 	H 	0.85490 0.09770 0.53040 -0.05900
H 	H 	0.08600 0.42320 0.53820 0.09300
H 	H 	0.01160 0.34700 0.55640 -0.03100
H 	H 	0.77620 0.42500 0.50020 -0.02200
H 	H 	0.99900 0.44840 0.40140 0.07400
H 	H 	0.15550 0.49010 0.51900 0.09700
H 	H 	0.92630 0.47450 0.61860 -0.00900
H 	H 	0.86700 0.29900 0.43880 -0.02100
H 	H 	0.85260 0.38500 0.68060 -0.03500
H 	H 	0.72710 0.48270 0.62080 -0.02700
H 	H 	0.93860 0.37340 0.41560 0.08000
H 	H 	0.72550 0.55190 0.68800 0.09000
H 	H 	0.85280 0.45380 0.74900 0.08800
H 	H 	0.38660 0.93180 0.97880 0.03600
H 	H 	0.29900 0.99000 0.98440 -0.02200
H 	H 	0.52740 0.11860 0.02640 0.04600
H 	H 	0.43270 0.17550 0.03040 -0.05900
H 	H 	0.11500 0.95220 0.03820 0.09200
H 	H 	0.20940 0.04480 0.05640 -0.03000
H 	H 	0.07520 0.22400 0.00020 -0.02200
H 	H 	0.95300 0.90240 0.90140 0.07400
H 	H 	0.02890 0.86350 0.01900 0.09700
H 	H 	0.14410 0.19230 0.11860 -0.00900
H 	H 	0.13980 0.07180 0.93880 -0.02200
H 	H 	0.29560 0.32800 0.18060 -0.03500
H 	H 	0.13810 0.39370 0.12080 -0.02700
H 	H 	0.04220 0.97700 0.91560 0.08000
H 	H 	0.13610 0.46250 0.18800 0.09000
H 	H 	0.29520 0.39620 0.24900 0.08800
H 	H 	0.95300 0.90780 0.52120 0.03400
H 	H 	0.00560 0.81460 0.51560 -0.01900
H 	H 	0.09220 0.00100 0.47360 0.04600
H 	H 	0.14510 0.90230 0.46960 -0.05900
H 	H 	0.91400 0.57680 0.46180 0.09300
H 	H 	0.98840 0.65300 0.44360 -0.03100
H 	H 	0.22380 0.57500 0.49980 -0.02200
H 	H 	0.00100 0.55160 0.59860 0.07400
H 	H 	0.84450 0.50990 0.48100 0.09700
H 	H 	0.07370 0.52550 0.38140 -0.00900
H 	H 	0.13300 0.70100 0.56120 -0.02100
H 	H 	0.14740 0.61500 0.31940 -0.03500
H 	H 	0.27290 0.51730 0.37920 -0.02700
H 	H 	0.06140 0.62660 0.58440 0.08000
H 	H 	0.27450 0.44810 0.31200 0.09000
H 	H 	0.14720 0.54620 0.25100 0.08800
C 	C 	0.60120 0.01760 0.00940 -0.14800
C 	C 	0.53070 0.98170 0.99660 0.05300
C 	C 	0.65350 0.98250 0.00600 0.08100
C 	C 	0.51950 0.90950 0.98200 -0.14800
C 	C 	0.57720 0.87500 0.97920 0.09000
C 	C 	0.99940 0.10820 0.03800 0.05900
C 	C 	0.93510 0.04790 0.02500 0.07100
C 	C 	0.88160 0.02440 0.98340 -0.16400
C 	C 	0.78490 0.55770 0.77380 0.09300
C 	C 	0.82480 0.96880 0.97260 0.10400
C 	C 	0.93030 0.79950 0.97860 0.07200
C 	C 	0.05110 0.12410 0.07880 -0.13500
C 	C 	0.00710 0.14650 0.00880 -0.14700
C 	C 	0.89020 0.81980 0.91020 0.05500
C 	C 	0.86530 0.95370 0.04100 0.08500
C 	C 	0.73750 0.64250 0.81900 0.12700
C 	C 	0.82660 0.60520 0.85280 0.12100
C 	C 	0.92480 0.01000 0.05520 -0.14600
C 	C 	0.82790 0.56370 0.81180 -0.19200
C 	C 	0.73760 0.60160 0.77740 -0.18600
C 	C 	0.00820 0.09180 0.49060 -0.14200
C 	C 	0.98510 0.03410 0.50340 0.05000
C 	C 	0.97650 0.14750 0.49400 0.07300
C 	C 	0.92750 0.03750 0.51800 -0.14700
C 	C 	0.89580 0.09800 0.52080 0.08800
C 	C 	0.07020 0.46140 0.46200 0.06000
C 	C 	0.02290 0.41010 0.47500 0.07300
C 	C 	0.04100 0.39820 0.51660 -0.16800
C 	C 	0.78390 0.51110 0.72620 0.09300
C 	C 	0.99620 0.35220 0.52740 0.10700
C 	C 	0.82090 0.45170 0.52140 0.07200
C 	C 	0.04530 0.47230 0.42120 -0.13600
C 	C 	0.13770 0.49830 0.49120 -0.14700
C 	C 	0.90960 0.48000 0.58980 0.05500
C 	C 	0.91270 0.32430 0.45900 0.08300
C 	C 	0.82350 0.41850 0.68100 0.12700
C 	C 	0.75240 0.47380 0.64720 0.12100
C 	C 	0.95480 0.36960 0.44480 -0.14500
C 	C 	0.75190 0.51610 0.68820 -0.19200
C 	C 	0.82420 0.46020 0.72260 -0.18600
C 	C 	0.39880 0.98240 0.99060 -0.14800
C 	C 	0.46930 0.01830 0.00340 0.05300
C 	C 	0.34650 0.01750 0.99400 0.08100
C 	C 	0.48050 0.09050 0.01800 -0.14800
C 	C 	0.42280 0.12500 0.02080 0.09000
C 	C 	0.00060 0.89180 0.96200 0.05900
C 	C 	0.06490 0.95210 0.97500 0.07100
C 	C 	0.11840 0.97560 0.01660 -0.16400
C 	C 	0.21510 0.44230 0.22620 0.09300
C 	C 	0.17520 0.03120 0.02740 0.10400
C 	C 	0.06970 0.20050 0.02140 0.07200
C 	C 	0.94890 0.87590 0.92120 -0.13500
C 	C 	0.99290 0.85350 0.99120 -0.14700
C 	C 	0.10980 0.18020 0.08980 0.05500
C 	C 	0.13470 0.04630 0.95900 0.08500
C 	C 	0.26250 0.35750 0.18100 0.12700
C 	C 	0.17340 0.39480 0.14720 0.12100
C 	C 	0.07520 0.99000 0.94480 -0.14600
C 	C 	0.17210 0.43630 0.18820 -0.19200
C 	C 	0.26240 0.39840 0.22260 -0.18600
C 	C 	0.99180 0.90820 0.50940 -0.14200
C 	C 	0.01490 0.96590 0.49660 0.05000
C 	C 	0.02350 0.85250 0.50600 0.07300
C 	C 	0.07250 0.96250 0.48200 -0.14700
C 	C 	0.10420 0.90200 0.47920 0.08800
C 	C 	0.92980 0.53860 0.53800 0.06000
C 	C 	0.97710 0.58990 0.52500 0.07300
C 	C 	0.95900 0.60180 0.48340 -0.16800
C 	C 	0.21610 0.48890 0.27380 0.09300
C 	C 	0.00380 0.64780 0.47260 0.10700
C 	C 	0.17910 0.54830 0.47860 0.07200
C 	C 	0.95470 0.52770 0.57880 -0.13600
C 	C 	0.86230 0.50170 0.50880 -0.14700
C 	C 	0.09040 0.52000 0.41020 0.05500
C 	C 	0.08730 0.67570 0.54100 0.08300
C 	C 	0.17650 0.58150 0.31900 0.12700
C 	C 	0.24760 0.52620 0.35280 0.12100
C 	C 	0.04520 0.63040 0.55520 -0.14500
C 	C 	0.24810 0.48390 0.31180 -0.19200
C 	C 	0.17580 0.53980 0.27740 -0.18600
S 	S 	0.77096 0.63944 0.96746 -0.64800
S 	S 	0.68800 0.76630 0.91622 -0.64900
S 	S 	0.72714 0.79440 0.03890 -0.65600
S 	S 	0.67198 0.30350 0.53254 -0.64900
S 	S 	0.85008 0.27178 0.58378 -0.64900
S 	S 	0.75550 0.18824 0.46110 -0.65700
S 	S 	0.22904 0.36056 0.03254 -0.64800
S 	S 	0.31200 0.23370 0.08378 -0.64900
S 	S 	0.27286 0.20560 0.96110 -0.65600
S 	S 	0.32802 0.69650 0.46746 -0.64900
S 	S 	0.14992 0.72822 0.41622 -0.64900
S 	S 	0.24450 0.81176 0.53890 -0.65700
N 	N 	0.81398 0.93218 0.00036 -0.25600
N 	N 	0.64237 0.91057 0.98954 -0.24400
N 	N 	0.87715 0.77855 0.93850 -0.24500
N 	N 	0.77856 0.64336 0.85692 -0.26800
N 	N 	0.93182 0.31362 0.49964 -0.25700
N 	N 	0.92103 0.15283 0.51046 -0.24200
N 	N 	0.84005 0.43865 0.56150 -0.24500
N 	N 	0.78644 0.42164 0.64308 -0.26800
N 	N 	0.18602 0.06782 0.99964 -0.25600
N 	N 	0.35763 0.08943 0.01046 -0.24400
N 	N 	0.12285 0.22145 0.06150 -0.24500
N 	N 	0.22144 0.35664 0.14308 -0.26800
N 	N 	0.06818 0.68638 0.50036 -0.25700
N 	N 	0.07897 0.84717 0.48954 -0.24200
N 	N 	0.15995 0.56135 0.43850 -0.24500
N 	N 	0.21356 0.57836 0.35692 -0.26800
Cl	Cl	0.92103 0.75349 0.08672 -0.49000
Cl	Cl	0.66677 0.33431 0.41328 -0.49000
Cl	Cl	0.07897 0.24651 0.91328 -0.49000
Cl	Cl	0.33323 0.66569 0.58672 -0.49000
