data_crystal

_cell_length_a 16.04600
_cell_length_b 18.33400
_cell_length_c 23.70600
_cell_angle_alpha 90.00000
_cell_angle_beta  90.00000
_cell_angle_gamma 90.00000

_symmetry_space_group_name_	'P 1'
_symmetry_space_group_name_H-M	'P 1'

loop_
_symmetry_equiv_pos_as_xyz
  x,y,z

loop_
_atom_site_label
_atom_site_type_symbol
_atom_site_fract_x
_atom_site_fract_y
_atom_site_fract_z
_atom_site_charge
Mn	Mn	0.18540 0.82300 0.59810 1.27600
Mn	Mn	0.99870 0.70510 0.58100 1.25600
Mn	Mn	0.81460 0.67700 0.09810 1.27600
Mn	Mn	0.00130 0.79490 0.08100 1.25500
Mn	Mn	0.68540 0.17700 0.90190 1.27600
Mn	Mn	0.49870 0.29490 0.91900 1.25600
Mn	Mn	0.31460 0.32300 0.40190 1.27600
Mn	Mn	0.50130 0.20510 0.41900 1.25600
Mn	Mn	0.81460 0.17700 0.40190 1.27700
Mn	Mn	0.00130 0.29490 0.41900 1.25700
Mn	Mn	0.18540 0.32300 0.90190 1.27700
Mn	Mn	0.99870 0.20510 0.91900 1.25600
Mn	Mn	0.31460 0.82300 0.09810 1.27600
Mn	Mn	0.50130 0.70510 0.08100 1.25700
Mn	Mn	0.68540 0.67700 0.59810 1.27700
Mn	Mn	0.49870 0.79490 0.58100 1.25700
C 	C 	0.96030 0.74700 0.76230 -0.00400
C 	C 	0.03510 0.77850 0.74970 -0.10600
C 	C 	0.08950 0.79960 0.79320 0.01700
C 	C 	0.06780 0.78890 0.84830 -0.05400
C 	C 	0.96760 0.74340 0.91920 0.00100
C 	C 	0.89280 0.71320 0.93270 -0.12200
C 	C 	0.83770 0.69250 0.88910 0.02300
C 	C 	0.85940 0.70220 0.83390 -0.06200
C 	C 	0.93610 0.73490 0.81900 0.01200
C 	C 	0.99140 0.75590 0.86280 -0.00600
C 	C 	0.06100 0.78870 0.68900 0.38500
C 	C 	0.86950 0.70120 0.99320 0.35000
C 	C 	0.14420 0.56620 0.69010 0.01600
C 	C 	0.20830 0.60890 0.66630 -0.10700
C 	C 	0.28850 0.60020 0.68400 -0.00200
C 	C 	0.39150 0.53550 0.74460 -0.06400
C 	C 	0.40860 0.48450 0.78460 0.03000
C 	C 	0.34430 0.44170 0.80840 -0.13200
C 	C 	0.26470 0.45090 0.78970 0.00700
C 	C 	0.16230 0.51450 0.72970 -0.05500
C 	C 	0.30940 0.54670 0.72490 0.01000
C 	C 	0.24490 0.50280 0.74780 -0.00100
C 	C 	0.18430 0.66240 0.62110 0.37900
C 	C 	0.36340 0.38880 0.85560 0.40900
C 	C 	0.03970 0.75300 0.26230 -0.00500
C 	C 	0.96490 0.72150 0.24970 -0.10500
C 	C 	0.91050 0.70040 0.29320 0.01700
C 	C 	0.93220 0.71110 0.34830 -0.05400
C 	C 	0.03240 0.75660 0.41920 0.00500
C 	C 	0.10720 0.78680 0.43270 -0.12500
C 	C 	0.16230 0.80750 0.38910 0.02500
C 	C 	0.14060 0.79780 0.33390 -0.06300
C 	C 	0.06390 0.76510 0.31900 0.01300
C 	C 	0.00860 0.74410 0.36280 -0.00600
C 	C 	0.93900 0.71130 0.18900 0.38400
C 	C 	0.13050 0.79880 0.49320 0.35900
C 	C 	0.85580 0.93380 0.19010 0.01500
C 	C 	0.79170 0.89110 0.16630 -0.10700
C 	C 	0.71150 0.89980 0.18400 -0.00200
C 	C 	0.60850 0.96450 0.24460 -0.06300
C 	C 	0.59140 0.01550 0.28460 0.02900
C 	C 	0.65570 0.05830 0.30840 -0.13200
C 	C 	0.73530 0.04910 0.28970 0.00500
C 	C 	0.83770 0.98550 0.22970 -0.05400
C 	C 	0.69060 0.95330 0.22490 0.01000
C 	C 	0.75510 0.99720 0.24780 -0.00000
C 	C 	0.81570 0.83760 0.12110 0.37900
C 	C 	0.63660 0.11120 0.35560 0.40800
C 	C 	0.46030 0.25300 0.73770 -0.00100
C 	C 	0.53510 0.22150 0.75030 -0.10900
C 	C 	0.58950 0.20040 0.70680 0.01900
C 	C 	0.56780 0.21110 0.65170 -0.05700
C 	C 	0.46760 0.25660 0.58080 0.00500
C 	C 	0.39280 0.28680 0.56730 -0.12500
C 	C 	0.33770 0.30750 0.61090 0.02500
C 	C 	0.35940 0.29780 0.66610 -0.06200
C 	C 	0.43610 0.26510 0.68100 0.01100
C 	C 	0.49140 0.24410 0.63720 -0.00400
C 	C 	0.56100 0.21130 0.81100 0.38500
C 	C 	0.36950 0.29880 0.50680 0.35900
C 	C 	0.64420 0.43380 0.80990 0.01500
C 	C 	0.70830 0.39110 0.83370 -0.10700
C 	C 	0.78850 0.39980 0.81600 -0.00200
C 	C 	0.89150 0.46450 0.75540 -0.06400
C 	C 	0.90860 0.51550 0.71540 0.03000
C 	C 	0.84430 0.55830 0.69160 -0.13300
C 	C 	0.76470 0.54910 0.71030 0.00700
C 	C 	0.66230 0.48550 0.77030 -0.05500
C 	C 	0.80940 0.45330 0.77510 0.01000
C 	C 	0.74490 0.49720 0.75220 -0.00100
C 	C 	0.68430 0.33760 0.87890 0.37900
C 	C 	0.86340 0.61120 0.64440 0.40900
C 	C 	0.53970 0.24700 0.23770 -0.00100
C 	C 	0.46490 0.27850 0.25030 -0.10900
C 	C 	0.41050 0.29960 0.20680 0.01900
C 	C 	0.43220 0.28890 0.15170 -0.05700
C 	C 	0.53240 0.24340 0.08080 0.00500
C 	C 	0.60720 0.21320 0.06730 -0.12500
C 	C 	0.66230 0.19250 0.11090 0.02500
C 	C 	0.64060 0.20220 0.16610 -0.06200
C 	C 	0.56390 0.23490 0.18100 0.01100
C 	C 	0.50860 0.25590 0.13720 -0.00400
C 	C 	0.43900 0.28870 0.31100 0.38600
C 	C 	0.63050 0.20120 0.00680 0.36100
C 	C 	0.35580 0.06620 0.30990 0.01500
C 	C 	0.29170 0.10890 0.33370 -0.10800
C 	C 	0.21150 0.10020 0.31600 -0.00200
C 	C 	0.10850 0.03550 0.25540 -0.06400
C 	C 	0.09140 0.98450 0.21540 0.02900
C 	C 	0.15570 0.94170 0.19160 -0.13300
C 	C 	0.23530 0.95090 0.21030 0.00600
C 	C 	0.33770 0.01450 0.27030 -0.05500
C 	C 	0.19060 0.04670 0.27510 0.01000
C 	C 	0.25510 0.00280 0.25220 -0.00100
C 	C 	0.31570 0.16240 0.37890 0.37900
C 	C 	0.13660 0.88880 0.14440 0.40900
C 	C 	0.03970 0.25300 0.23770 -0.00300
C 	C 	0.96490 0.22150 0.25030 -0.10700
C 	C 	0.91050 0.20040 0.20680 0.01800
C 	C 	0.93220 0.21110 0.15170 -0.05400
C 	C 	0.03240 0.25660 0.08080 0.00100
C 	C 	0.10720 0.28680 0.06730 -0.12200
C 	C 	0.16230 0.30750 0.11090 0.02300
C 	C 	0.14060 0.29780 0.16610 -0.06200
C 	C 	0.06390 0.26510 0.18100 0.01200
C 	C 	0.00860 0.24410 0.13720 -0.00500
C 	C 	0.93900 0.21130 0.31100 0.38500
C 	C 	0.13050 0.29880 0.00680 0.35000
C 	C 	0.85580 0.43380 0.30990 0.01600
C 	C 	0.79170 0.39110 0.33370 -0.10700
C 	C 	0.71150 0.39980 0.31600 -0.00200
C 	C 	0.60850 0.46450 0.25540 -0.06400
C 	C 	0.59140 0.51550 0.21540 0.03000
C 	C 	0.65570 0.55830 0.19160 -0.13200
C 	C 	0.73530 0.54910 0.21030 0.00700
C 	C 	0.83770 0.48550 0.27030 -0.05500
C 	C 	0.69060 0.45330 0.27510 0.01000
C 	C 	0.75510 0.49720 0.25220 -0.00100
C 	C 	0.81570 0.33760 0.37890 0.37900
C 	C 	0.63660 0.61120 0.14440 0.40900
C 	C 	0.96030 0.24700 0.73770 0.03200
C 	C 	0.03510 0.27850 0.75030 -0.12000
C 	C 	0.08950 0.29960 0.70680 0.02400
C 	C 	0.06780 0.28890 0.65170 -0.06000
C 	C 	0.96760 0.24340 0.58080 0.00100
C 	C 	0.89280 0.21320 0.56730 -0.12200
C 	C 	0.83770 0.19250 0.61090 0.02100
C 	C 	0.85940 0.20220 0.66610 -0.05500
C 	C 	0.93610 0.23490 0.68100 -0.00200
C 	C 	0.99140 0.25590 0.63720 0.00100
C 	C 	0.06100 0.28870 0.81100 0.39100
C 	C 	0.86950 0.20120 0.50680 0.35800
C 	C 	0.14420 0.06620 0.80990 0.01500
C 	C 	0.20830 0.10890 0.83370 -0.10700
C 	C 	0.28850 0.10020 0.81600 -0.00200
C 	C 	0.39150 0.03550 0.75540 -0.06300
C 	C 	0.40860 0.98450 0.71540 0.02900
C 	C 	0.34430 0.94170 0.69160 -0.13200
C 	C 	0.26470 0.95090 0.71030 0.00500
C 	C 	0.16230 0.01450 0.77030 -0.05400
C 	C 	0.30940 0.04670 0.77510 0.01000
C 	C 	0.24490 0.00280 0.75220 -0.00000
C 	C 	0.18430 0.16240 0.87890 0.37900
C 	C 	0.36340 0.88880 0.64440 0.40800
C 	C 	0.53970 0.74700 0.26230 -0.00100
C 	C 	0.46490 0.77850 0.24970 -0.10900
C 	C 	0.41050 0.79960 0.29320 0.01900
C 	C 	0.43220 0.78890 0.34830 -0.05700
C 	C 	0.53240 0.74340 0.41920 0.00500
C 	C 	0.60720 0.71320 0.43270 -0.12500
C 	C 	0.66230 0.69250 0.38910 0.02500
C 	C 	0.64060 0.70220 0.33390 -0.06200
C 	C 	0.56390 0.73490 0.31900 0.01100
C 	C 	0.50860 0.75590 0.36280 -0.00400
C 	C 	0.43900 0.78870 0.18900 0.38600
C 	C 	0.63050 0.70120 0.49320 0.35900
C 	C 	0.35580 0.56620 0.19010 0.01500
C 	C 	0.29170 0.60890 0.16630 -0.10800
C 	C 	0.21150 0.60020 0.18400 -0.00200
C 	C 	0.10850 0.53550 0.24460 -0.06400
C 	C 	0.09140 0.48450 0.28460 0.03000
C 	C 	0.15570 0.44170 0.30840 -0.13300
C 	C 	0.23530 0.45090 0.28970 0.00600
C 	C 	0.33770 0.51450 0.22970 -0.05500
C 	C 	0.19060 0.54670 0.22490 0.01000
C 	C 	0.25510 0.50280 0.24780 -0.00100
C 	C 	0.31570 0.66240 0.12110 0.37900
C 	C 	0.13660 0.38880 0.35560 0.40900
C 	C 	0.46030 0.75300 0.76230 -0.00100
C 	C 	0.53510 0.72150 0.74970 -0.10900
C 	C 	0.58950 0.70040 0.79320 0.01900
C 	C 	0.56780 0.71110 0.84830 -0.05700
C 	C 	0.46760 0.75660 0.91920 0.00500
C 	C 	0.39280 0.78680 0.93270 -0.12500
C 	C 	0.33770 0.80750 0.88910 0.02500
C 	C 	0.35940 0.79780 0.83390 -0.06200
C 	C 	0.43610 0.76510 0.81900 0.01100
C 	C 	0.49140 0.74410 0.86280 -0.00400
C 	C 	0.56100 0.71130 0.68900 0.38600
C 	C 	0.36950 0.79880 0.99320 0.36100
C 	C 	0.64420 0.93380 0.69010 0.01500
C 	C 	0.70830 0.89110 0.66630 -0.10800
C 	C 	0.78850 0.89980 0.68400 -0.00200
C 	C 	0.89150 0.96450 0.74460 -0.06400
C 	C 	0.90860 0.01550 0.78460 0.03000
C 	C 	0.84430 0.05830 0.80840 -0.13200
C 	C 	0.76470 0.04910 0.78970 0.00700
C 	C 	0.66230 0.98550 0.72970 -0.05500
C 	C 	0.80940 0.95330 0.72490 0.01000
C 	C 	0.74490 0.99720 0.74780 -0.00100
C 	C 	0.68430 0.83760 0.62110 0.37900
C 	C 	0.86340 0.11120 0.85560 0.41000
O 	O 	0.00730 0.77640 0.65160 -0.48600
O 	O 	0.13390 0.80930 0.67980 -0.46800
O 	O 	0.23400 0.71260 0.60760 -0.43700
O 	O 	0.11440 0.65260 0.59890 -0.46800
O 	O 	0.79990 0.67420 0.00510 -0.43000
O 	O 	0.92090 0.71810 0.03150 -0.54000
O 	O 	0.43850 0.37530 0.86530 -0.45600
O 	O 	0.30390 0.36300 0.88340 -0.49900
O 	O 	0.99270 0.72360 0.15160 -0.48400
O 	O 	0.86610 0.69070 0.17980 -0.46800
O 	O 	0.76600 0.78740 0.10760 -0.43600
O 	O 	0.88560 0.84740 0.09890 -0.46700
O 	O 	0.20010 0.82580 0.50510 -0.43400
O 	O 	0.07910 0.78190 0.53150 -0.54500
O 	O 	0.56150 0.12470 0.36530 -0.45600
O 	O 	0.69610 0.13700 0.38340 -0.50000
O 	O 	0.50730 0.22360 0.84840 -0.48600
O 	O 	0.63390 0.19070 0.82020 -0.46800
O 	O 	0.73400 0.28740 0.89240 -0.43600
O 	O 	0.61440 0.34740 0.90110 -0.46800
O 	O 	0.29990 0.32580 0.49490 -0.43400
O 	O 	0.42090 0.28190 0.46850 -0.54500
O 	O 	0.93850 0.62470 0.63470 -0.45600
O 	O 	0.80390 0.63700 0.61660 -0.50000
O 	O 	0.49270 0.27640 0.34840 -0.48700
O 	O 	0.36610 0.30930 0.32020 -0.46900
O 	O 	0.26600 0.21260 0.39240 -0.43700
O 	O 	0.38560 0.15260 0.40110 -0.46800
O 	O 	0.70010 0.17420 0.99490 -0.43500
O 	O 	0.57910 0.21810 0.96850 -0.54600
O 	O 	0.06150 0.87530 0.13470 -0.45700
O 	O 	0.19610 0.86300 0.11660 -0.50000
O 	O 	0.99270 0.22360 0.34840 -0.48600
O 	O 	0.86610 0.19070 0.32020 -0.46900
O 	O 	0.76600 0.28740 0.39240 -0.43700
O 	O 	0.88560 0.34740 0.40110 -0.46800
O 	O 	0.20010 0.32580 0.99490 -0.42900
O 	O 	0.07910 0.28190 0.96850 -0.54000
O 	O 	0.56150 0.62470 0.13470 -0.45600
O 	O 	0.69610 0.63700 0.11660 -0.49900
O 	O 	0.00730 0.27640 0.84840 -0.48300
O 	O 	0.13390 0.30930 0.82020 -0.47000
O 	O 	0.23400 0.21260 0.89240 -0.43600
O 	O 	0.11440 0.15260 0.90110 -0.46600
O 	O 	0.79990 0.17420 0.49490 -0.43400
O 	O 	0.92090 0.21810 0.46850 -0.54500
O 	O 	0.43850 0.87530 0.63470 -0.45600
O 	O 	0.30390 0.86300 0.61660 -0.50000
O 	O 	0.49270 0.77640 0.15160 -0.48700
O 	O 	0.36610 0.80930 0.17980 -0.46900
O 	O 	0.26600 0.71260 0.10760 -0.43700
O 	O 	0.38560 0.65260 0.09890 -0.46800
O 	O 	0.70010 0.67420 0.50510 -0.43400
O 	O 	0.57910 0.71810 0.53150 -0.54500
O 	O 	0.06150 0.37530 0.36530 -0.45600
O 	O 	0.19610 0.36300 0.38340 -0.50000
O 	O 	0.50730 0.72360 0.65160 -0.48700
O 	O 	0.63390 0.69070 0.67980 -0.46900
O 	O 	0.73400 0.78740 0.60760 -0.43700
O 	O 	0.61440 0.84740 0.59890 -0.46800
O 	O 	0.29990 0.82580 0.00510 -0.43500
O 	O 	0.42090 0.78190 0.03150 -0.54600
O 	O 	0.93850 0.12470 0.86530 -0.45600
O 	O 	0.80390 0.13700 0.88340 -0.50000
H 	H 	0.91625 0.73000 0.72694 0.03700
H 	H 	0.15201 0.82576 0.78256 0.03300
H 	H 	0.11177 0.80676 0.88345 0.03000
H 	H 	0.01312 0.75939 0.95399 -0.01300
H 	H 	0.77462 0.66751 0.89987 0.02800
H 	H 	0.81537 0.68381 0.79894 0.04400
H 	H 	0.07685 0.57476 0.67629 0.03500
H 	H 	0.33993 0.63617 0.66592 0.03400
H 	H 	0.44391 0.57019 0.72631 0.04000
H 	H 	0.47549 0.47582 0.79936 0.02700
H 	H 	0.21222 0.41625 0.80794 0.00200
H 	H 	0.11023 0.48002 0.74865 0.03500
H 	H 	0.08375 0.77000 0.22694 0.03700
H 	H 	0.84799 0.67424 0.28256 0.03300
H 	H 	0.88823 0.69324 0.38345 0.03000
H 	H 	0.98688 0.74061 0.45399 -0.01600
H 	H 	0.22538 0.83249 0.39987 0.02800
H 	H 	0.18463 0.81619 0.29894 0.04400
H 	H 	0.92315 0.92524 0.17629 0.03500
H 	H 	0.66007 0.86383 0.16592 0.03400
H 	H 	0.55609 0.92981 0.22631 0.04000
H 	H 	0.52451 0.02418 0.29936 0.02700
H 	H 	0.78778 0.08375 0.30794 0.00200
H 	H 	0.88977 0.01998 0.24865 0.03400
H 	H 	0.41625 0.27000 0.77306 0.03700
H 	H 	0.65201 0.17424 0.71744 0.03300
H 	H 	0.61177 0.19324 0.61655 0.03100
H 	H 	0.51312 0.24061 0.54601 -0.01600
H 	H 	0.27462 0.33249 0.60013 0.02800
H 	H 	0.31537 0.31619 0.70106 0.04400
H 	H 	0.57685 0.42524 0.82371 0.03400
H 	H 	0.83993 0.36383 0.83408 0.03500
H 	H 	0.94391 0.42981 0.77369 0.03900
H 	H 	0.97549 0.52418 0.70064 0.02600
H 	H 	0.71222 0.58375 0.69206 0.00200
H 	H 	0.61023 0.51998 0.75135 0.03500
H 	H 	0.58375 0.23000 0.27306 0.03700
H 	H 	0.34799 0.32576 0.21744 0.03300
H 	H 	0.38823 0.30676 0.11655 0.03000
H 	H 	0.48688 0.25939 0.04601 -0.01700
H 	H 	0.72538 0.16751 0.10013 0.02800
H 	H 	0.68463 0.18381 0.20106 0.04400
H 	H 	0.42315 0.07476 0.32371 0.03400
H 	H 	0.16007 0.13617 0.33408 0.03400
H 	H 	0.05609 0.07019 0.27369 0.04000
H 	H 	0.02451 0.97582 0.20064 0.02600
H 	H 	0.28778 0.91625 0.19206 0.00200
H 	H 	0.38977 0.98002 0.25135 0.03500
H 	H 	0.08375 0.27000 0.27306 0.03700
H 	H 	0.84799 0.17424 0.21744 0.03300
H 	H 	0.88823 0.19324 0.11655 0.03100
H 	H 	0.98688 0.24061 0.04601 -0.01300
H 	H 	0.22538 0.33249 0.10013 0.02800
H 	H 	0.18463 0.31619 0.20106 0.04400
H 	H 	0.92315 0.42524 0.32371 0.03500
H 	H 	0.66007 0.36383 0.33408 0.03400
H 	H 	0.55609 0.42981 0.27369 0.04000
H 	H 	0.52451 0.52418 0.20064 0.02700
H 	H 	0.78778 0.58375 0.19206 0.00200
H 	H 	0.88977 0.51998 0.25135 0.03500
H 	H 	0.15201 0.32576 0.71744 0.03200
H 	H 	0.11177 0.30676 0.61655 0.03200
H 	H 	0.01312 0.25939 0.54601 -0.01500
H 	H 	0.77462 0.16751 0.60013 0.02900
H 	H 	0.81537 0.18381 0.70106 0.04400
H 	H 	0.07685 0.07476 0.82371 0.03600
H 	H 	0.33993 0.13617 0.83408 0.03400
H 	H 	0.44391 0.07019 0.77369 0.04000
H 	H 	0.47549 0.97582 0.70064 0.02700
H 	H 	0.21222 0.91625 0.69206 0.00200
H 	H 	0.11023 0.98002 0.75135 0.03400
H 	H 	0.58375 0.73000 0.22694 0.03700
H 	H 	0.34799 0.82576 0.28256 0.03300
H 	H 	0.38823 0.80676 0.38345 0.03100
H 	H 	0.48688 0.75939 0.45399 -0.01600
H 	H 	0.72538 0.66751 0.39987 0.02800
H 	H 	0.68463 0.68381 0.29894 0.04400
H 	H 	0.42315 0.57476 0.17629 0.03400
H 	H 	0.16007 0.63617 0.16592 0.03300
H 	H 	0.05609 0.57019 0.22631 0.03900
H 	H 	0.02451 0.47582 0.29936 0.02600
H 	H 	0.28778 0.41625 0.30794 0.00200
H 	H 	0.38977 0.48002 0.24865 0.03500
H 	H 	0.41625 0.77000 0.72694 0.03700
H 	H 	0.65201 0.67424 0.78256 0.03300
H 	H 	0.61177 0.69324 0.88345 0.03000
H 	H 	0.51312 0.74061 0.95399 -0.01700
H 	H 	0.27462 0.83249 0.89987 0.02800
H 	H 	0.31537 0.81619 0.79894 0.04400
H 	H 	0.57685 0.92524 0.67629 0.03400
H 	H 	0.83993 0.86383 0.66592 0.03400
H 	H 	0.94391 0.92981 0.72631 0.04000
H 	H 	0.97549 0.02418 0.79936 0.02600
H 	H 	0.71222 0.08375 0.80794 0.00200
H 	H 	0.61023 0.01998 0.74865 0.03500
