data_crystal

_cell_length_a 15.42680
_cell_length_b 17.60130
_cell_length_c 31.40760
_cell_angle_alpha 95.20790
_cell_angle_beta  104.21700
_cell_angle_gamma 90.00000

_symmetry_space_group_name_	'P 1'
_symmetry_space_group_name_H-M	'P 1'

loop_
_symmetry_equiv_pos_as_xyz
  x,y,z

loop_
_atom_site_label
_atom_site_type_symbol
_atom_site_fract_x
_atom_site_fract_y
_atom_site_fract_z
_atom_site_charge
Cu	Cu	0.90001 0.48056 0.69112 0.93900
Cu	Cu	0.90124 0.36364 0.41528 0.89400
Cu	Cu	0.20889 0.01944 0.30888 0.93000
Cu	Cu	0.48596 0.13636 0.58472 0.89000
Cu	Cu	0.09999 0.51944 0.30888 0.93400
Cu	Cu	0.09876 0.63636 0.58472 0.88800
Cu	Cu	0.79111 0.98056 0.69112 0.94000
Cu	Cu	0.51404 0.86364 0.41528 0.89000
Cu	Cu	0.00000 0.50000 -0.00000 0.91400
Cu	Cu	-0.00000 0.00000 -0.00000 0.90700
Cu	Cu	0.73988 0.75000 -0.00000 0.92400
Cu	Cu	0.26012 0.25000 -0.00000 0.92300
H 	H 	0.93470 0.53690 0.90420 0.07100
H 	H 	0.87420 0.61870 0.01380 0.00700
H 	H 	0.77570 0.71640 0.90580 0.07800
H 	H 	0.96590 0.58590 0.84620 0.12900
H 	H 	0.83190 0.66090 0.72980 0.18200
H 	H 	0.71790 0.70220 0.76220 0.07600
H 	H 	0.72440 0.68430 0.83520 0.17300
H 	H 	0.07030 0.66090 0.84160 0.53400
H 	H 	0.09370 0.70450 0.80300 0.52600
H 	H 	0.16870 0.65660 0.83340 0.53400
H 	H 	0.05820 0.51330 0.83160 0.52600
H 	H 	0.15540 0.50800 0.82200 0.55000
H 	H 	0.07040 0.46990 0.78640 0.50200
H 	H 	0.11930 0.63480 0.73720 0.43800
H 	H 	0.10760 0.54390 0.72900 0.42300
H 	H 	0.19250 0.58180 0.76480 0.43800
H 	H 	0.92190 0.59480 0.53080 0.02100
H 	H 	0.02910 0.56540 0.65520 -0.04700
H 	H 	0.78650 0.48240 0.60060 0.06700
H 	H 	0.85360 0.50750 0.47640 0.10800
H 	H 	0.59270 0.46390 0.41380 0.12100
H 	H 	0.55420 0.48920 0.48040 0.07300
H 	H 	0.66310 0.52300 0.54560 0.17700
H 	H 	0.60140 0.53880 0.36820 0.48800
H 	H 	0.68230 0.58170 0.35600 0.47900
H 	H 	0.60570 0.53800 0.31780 0.52100
H 	H 	0.79250 0.50990 0.32660 0.45700
H 	H 	0.79490 0.41880 0.32480 0.42000
H 	H 	0.71910 0.45900 0.29040 0.44500
H 	H 	0.60170 0.38970 0.36420 0.47500
H 	H 	0.60110 0.38740 0.31300 0.50300
H 	H 	0.67880 0.34660 0.34620 0.45600
H 	H 	0.98910 0.24760 0.68020 0.15400
H 	H 	0.68690 0.46060 0.75680 0.15500
H 	H 	0.90950 0.13080 0.36020 0.18700
H 	H 	0.19400 0.68420 0.02260 0.17600
H 	H 	0.53830 0.90350 0.94660 0.18500
H 	H 	0.03050 0.96310 0.09580 0.05600
H 	H 	0.86040 0.88130 0.98620 0.07500
H 	H 	0.86990 0.78360 0.09420 0.07500
H 	H 	0.11970 0.91410 0.15380 0.13600
H 	H 	0.10210 0.83910 0.27020 0.19400
H 	H 	0.95570 0.79780 0.23780 0.06300
H 	H 	0.88920 0.81570 0.16480 0.18400
H 	H 	0.22870 0.83910 0.15840 0.53900
H 	H 	0.29070 0.79550 0.19700 0.53000
H 	H 	0.33530 0.84340 0.16660 0.53600
H 	H 	0.22660 0.98670 0.16840 0.52700
H 	H 	0.33340 0.99200 0.17800 0.54700
H 	H 	0.28400 0.03010 0.21360 0.49000
H 	H 	0.38210 0.86520 0.26280 0.44300
H 	H 	0.37860 0.95610 0.27100 0.43200
H 	H 	0.42770 0.91820 0.23520 0.44200
H 	H 	0.39110 0.90520 0.46920 0.02000
H 	H 	0.37390 0.93460 0.34480 -0.02600
H 	H 	0.18590 0.01760 0.39940 0.04700
H 	H 	0.37720 0.99250 0.52360 0.09700
H 	H 	0.17890 0.03610 0.58620 0.10700
H 	H 	0.07380 0.01080 0.51960 0.08000
H 	H 	0.11750 0.97700 0.45440 0.16300
H 	H 	0.23320 0.96120 0.63180 0.48900
H 	H 	0.32630 0.91830 0.64400 0.47700
H 	H 	0.28790 0.96200 0.68220 0.52100
H 	H 	0.46590 0.99010 0.67340 0.47400
H 	H 	0.47010 0.08120 0.67520 0.42900
H 	H 	0.42870 0.04100 0.70960 0.45100
H 	H 	0.23750 0.11030 0.63580 0.47200
H 	H 	0.28810 0.11260 0.68700 0.50000
H 	H 	0.33260 0.15340 0.65380 0.45500
H 	H 	0.30890 0.25240 0.31980 0.15700
H 	H 	0.93010 0.03940 0.24320 0.14000
H 	H 	0.54930 0.36920 0.63980 0.18200
H 	H 	0.17140 0.81580 0.97740 0.15500
H 	H 	0.59170 0.59650 0.05340 0.20600
H 	H 	0.06530 0.46310 0.09580 0.06700
H 	H 	0.12580 0.38130 0.98620 0.07300
H 	H 	0.22430 0.28360 0.09420 0.07900
H 	H 	0.03410 0.41410 0.15380 0.11500
H 	H 	0.16810 0.33910 0.27020 0.18000
H 	H 	0.28210 0.29780 0.23780 0.07800
H 	H 	0.27560 0.31570 0.16480 0.17100
H 	H 	0.92970 0.33910 0.15840 0.55400
H 	H 	0.90630 0.29550 0.19700 0.54400
H 	H 	0.83130 0.34340 0.16660 0.54500
H 	H 	0.94180 0.48670 0.16840 0.55000
H 	H 	0.84460 0.49200 0.17800 0.56400
H 	H 	0.92960 0.53010 0.21360 0.52300
H 	H 	0.88070 0.36520 0.26280 0.45300
H 	H 	0.89240 0.45610 0.27100 0.43800
H 	H 	0.80750 0.41820 0.23520 0.44800
H 	H 	0.07810 0.40520 0.46920 0.01500
H 	H 	0.97090 0.43460 0.34480 -0.00700
H 	H 	0.21350 0.51760 0.39940 0.06800
H 	H 	0.14640 0.49250 0.52360 0.10200
H 	H 	0.40730 0.53610 0.58620 0.12100
H 	H 	0.44580 0.51080 0.51960 0.07400
H 	H 	0.33690 0.47700 0.45440 0.17600
H 	H 	0.39860 0.46120 0.63180 0.48700
H 	H 	0.31770 0.41830 0.64400 0.47700
H 	H 	0.39430 0.46200 0.68220 0.52000
H 	H 	0.20750 0.49010 0.67340 0.45500
H 	H 	0.20510 0.58120 0.67520 0.42000
H 	H 	0.28090 0.54100 0.70960 0.44500
H 	H 	0.39830 0.61030 0.63580 0.47500
H 	H 	0.39890 0.61260 0.68700 0.50300
H 	H 	0.32120 0.65340 0.65380 0.45700
H 	H 	0.01090 0.75240 0.31980 0.16000
H 	H 	0.31310 0.53940 0.24320 0.15500
H 	H 	0.09050 0.86920 0.63980 0.18100
H 	H 	0.80600 0.31580 0.97740 0.15700
H 	H 	0.46170 0.09650 0.05340 0.20400
H 	H 	0.96950 0.03690 0.90420 0.09700
H 	H 	0.13960 0.11870 0.01380 0.00300
H 	H 	0.13010 0.21640 0.90580 0.08300
H 	H 	0.88030 0.08590 0.84620 0.10300
H 	H 	0.89790 0.16090 0.72980 0.16200
H 	H 	0.04430 0.20220 0.76220 0.09800
H 	H 	0.11080 0.18430 0.83520 0.15200
H 	H 	0.77130 0.16090 0.84160 0.54600
H 	H 	0.70930 0.20450 0.80300 0.53600
H 	H 	0.66470 0.15660 0.83340 0.54100
H 	H 	0.77340 0.01330 0.83160 0.54500
H 	H 	0.66660 0.00800 0.82200 0.56200
H 	H 	0.71600 0.96990 0.78640 0.52700
H 	H 	0.61790 0.13480 0.73720 0.44500
H 	H 	0.62140 0.04390 0.72900 0.42800
H 	H 	0.57230 0.08180 0.76480 0.44200
H 	H 	0.60890 0.09480 0.53080 0.01700
H 	H 	0.62610 0.06540 0.65520 -0.02900
H 	H 	0.81410 0.98240 0.60060 0.08100
H 	H 	0.62280 0.00750 0.47640 0.10900
H 	H 	0.82110 0.96390 0.41380 0.13000
H 	H 	0.92620 0.98920 0.48040 0.07100
H 	H 	0.88250 0.02300 0.54560 0.18600
H 	H 	0.76680 0.03880 0.36820 0.48600
H 	H 	0.67370 0.08170 0.35600 0.47900
H 	H 	0.71210 0.03800 0.31780 0.52000
H 	H 	0.53410 0.00990 0.32660 0.43800
H 	H 	0.52990 0.91880 0.32480 0.41100
H 	H 	0.57130 0.95900 0.29040 0.43800
H 	H 	0.76250 0.88970 0.36420 0.47600
H 	H 	0.71190 0.88740 0.31300 0.50400
H 	H 	0.66740 0.84660 0.34620 0.45700
H 	H 	0.69110 0.74760 0.68020 0.15700
H 	H 	0.06990 0.96060 0.75680 0.16900
H 	H 	0.45070 0.63080 0.36020 0.18200
H 	H 	0.82860 0.18420 0.02260 0.17900
H 	H 	0.40830 0.40350 0.94660 0.18200
C 	C 	0.90499 0.57350 0.91938 0.09800
C 	C 	0.86906 0.62140 0.98312 0.18900
C 	C 	0.81111 0.67790 0.92042 0.09300
C 	C 	0.85406 0.62720 0.89612 -0.03300
C 	C 	0.84676 0.63440 0.84852 0.20600
C 	C 	0.91531 0.60940 0.82922 -0.19600
C 	C 	0.90991 0.61870 0.78502 0.22700
C 	C 	0.83566 0.65390 0.75992 -0.17900
C 	C 	0.76817 0.67810 0.77914 0.15900
C 	C 	0.77226 0.66820 0.82272 -0.15300
C 	C 	0.07640 0.58770 0.78680 0.96500
C 	C 	0.10486 0.65880 0.81912 -1.41000
C 	C 	0.09146 0.51300 0.80872 -1.41000
C 	C 	0.12864 0.58700 0.75128 -1.28400
C 	C 	0.91837 0.57416 0.55734 0.09000
C 	C 	0.97986 0.55810 0.63012 0.19500
C 	C 	0.83829 0.50935 0.59838 0.09700
C 	C 	0.84117 0.53443 0.55814 -0.05600
C 	C 	0.76930 0.51693 0.51740 0.17000
C 	C 	0.79274 0.50319 0.47728 -0.19000
C 	C 	0.72732 0.48320 0.43844 0.17900
C 	C 	0.63765 0.47780 0.43990 -0.19000
C 	C 	0.61522 0.49260 0.47964 0.16400
C 	C 	0.67985 0.51250 0.51850 -0.14800
C 	C 	0.69536 0.46410 0.35252 0.94400
C 	C 	0.64134 0.53720 0.34828 -1.36000
C 	C 	0.75586 0.46280 0.32072 -1.29500
C 	C 	0.63929 0.39030 0.34318 -1.34200
C 	C 	0.81794 0.25040 0.64348 0.88000
C 	C 	0.88420 0.31650 0.66200 0.00200
C 	C 	0.97339 0.29970 0.67878 -0.00100
C 	C 	0.04122 0.35610 0.69364 0.01000
C 	C 	0.13743 0.32950 0.70606 0.79500
C 	C 	0.61906 0.54560 0.69252 0.81600
C 	C 	0.71205 0.51020 0.70450 0.02500
C 	C 	0.73272 0.46890 0.74224 -0.01700
C 	C 	0.81618 0.44030 0.75876 -0.00900
C 	C 	0.82943 0.39600 0.79926 0.90900
C 	C 	0.01304 0.14690 0.44048 0.70200
C 	C 	0.96303 0.20640 0.41186 0.12000
C 	C 	0.91480 0.18380 0.36960 -0.12400
C 	C 	0.87334 0.23520 0.33988 0.13100
C 	C 	0.82849 0.20330 0.29278 0.50400
C 	C 	0.20816 0.59540 0.95392 0.85500
C 	C 	0.14591 0.58850 0.98402 0.07900
C 	C 	0.15200 0.64330 0.01920 -0.07400
C 	C 	0.10023 0.64240 0.05006 0.04800
C 	C 	0.11774 0.70940 0.08608 0.81200
C 	C 	0.64187 0.87530 0.89194 0.89200
C 	C 	0.64898 0.85150 0.93836 0.04600
C 	C 	0.58700 0.87440 0.96080 0.01000
C 	C 	0.59222 0.85640 0.00404 0.05700
C 	C 	0.51044 0.88350 0.02288 0.77600
C 	C 	0.98561 0.92650 0.08062 0.12200
C 	C 	0.88594 0.87860 0.01688 0.08400
C 	C 	0.89069 0.82210 0.07958 0.09700
C 	C 	0.95794 0.87280 0.10388 -0.04800
C 	C 	0.99824 0.86560 0.15148 0.24400
C 	C 	0.08609 0.89060 0.17078 -0.23400
C 	C 	0.12489 0.88130 0.21498 0.25000
C 	C 	0.07574 0.84610 0.24008 -0.22200
C 	C 	0.98903 0.82190 0.22086 0.20800
C 	C 	0.94954 0.83180 0.17728 -0.18500
C 	C 	0.28960 0.91230 0.21320 0.97400
C 	C 	0.28574 0.84120 0.18088 -1.41800
C 	C 	0.28274 0.98700 0.19128 -1.38400
C 	C 	0.37736 0.91300 0.24872 -1.29300
C 	C 	0.36103 0.92584 0.44266 0.08800
C 	C 	0.34974 0.94190 0.36988 0.16800
C 	C 	0.23991 0.99065 0.40162 0.12000
C 	C 	0.28303 0.96557 0.44186 -0.05400
C 	C 	0.25190 0.98307 0.48260 0.14800
C 	C 	0.31546 0.99681 0.52272 -0.15200
C 	C 	0.28888 0.01680 0.56156 0.14400
C 	C 	0.19775 0.02220 0.56010 -0.16000
C 	C 	0.13558 0.00740 0.52036 0.11500
C 	C 	0.16135 0.98750 0.48150 -0.10400
C 	C 	0.34284 0.03590 0.64748 0.93800
C 	C 	0.29306 0.96280 0.65172 -1.34600
C 	C 	0.43514 0.03720 0.67928 -1.32700
C 	C 	0.29611 0.10970 0.65682 -1.33700
C 	C 	0.17446 0.24960 0.35652 0.87700
C 	C 	0.22220 0.18350 0.33800 0.01000
C 	C 	0.29461 0.20030 0.32122 -0.03200
C 	C 	0.34758 0.14390 0.30636 0.03600
C 	C 	0.43137 0.17050 0.29394 0.78900
C 	C 	0.92654 0.95440 0.30748 0.83000
C 	C 	0.00755 0.98980 0.29550 -0.00300
C 	C 	0.99048 0.03110 0.25776 0.03000
C 	C 	0.05742 0.05970 0.24124 -0.04300
C 	C 	0.03017 0.10400 0.20074 0.90200
C 	C 	0.57256 0.35310 0.55952 0.74700
C 	C 	0.55117 0.29360 0.58814 0.09300
C 	C 	0.54520 0.31620 0.63040 -0.11400
C 	C 	0.53346 0.26480 0.66012 0.12600
C 	C 	0.53571 0.29670 0.70722 0.50400
C 	C 	0.25424 0.90460 0.04608 0.87900
C 	C 	0.16189 0.91150 0.01598 -0.01800
C 	C 	0.13280 0.85670 0.98080 0.04800
C 	C 	0.05017 0.85760 0.94994 0.00200
C 	C 	0.03166 0.79060 0.91392 0.82000
C 	C 	0.74993 0.62470 0.10806 0.88100
C 	C 	0.71062 0.64850 0.06164 0.07800
C 	C 	0.62620 0.62560 0.03920 -0.08900
C 	C 	0.58818 0.64360 0.99596 0.13600
C 	C 	0.48756 0.61650 0.97712 0.80900
C 	C 	0.09501 0.42650 0.08062 0.08800
C 	C 	0.13094 0.37860 0.01688 0.07700
C 	C 	0.18889 0.32210 0.07958 0.08300
C 	C 	0.14594 0.37280 0.10388 -0.02900
C 	C 	0.15324 0.36560 0.15148 0.19900
C 	C 	0.08469 0.39060 0.17078 -0.19400
C 	C 	0.09009 0.38130 0.21498 0.21900
C 	C 	0.16434 0.34610 0.24008 -0.17500
C 	C 	0.23183 0.32190 0.22086 0.15500
C 	C 	0.22774 0.33180 0.17728 -0.14900
C 	C 	0.92360 0.41230 0.21320 1.01300
C 	C 	0.89514 0.34120 0.18088 -1.45200
C 	C 	0.90854 0.48700 0.19128 -1.45700
C 	C 	0.87136 0.41300 0.24872 -1.32200
C 	C 	0.08163 0.42584 0.44266 0.08500
C 	C 	0.02014 0.44190 0.36988 0.13600
C 	C 	0.16171 0.49065 0.40162 0.09200
C 	C 	0.15883 0.46557 0.44186 -0.05300
C 	C 	0.23070 0.48307 0.48260 0.16600
C 	C 	0.20726 0.49681 0.52272 -0.18700
C 	C 	0.27268 0.51680 0.56156 0.17500
C 	C 	0.36235 0.52220 0.56010 -0.18800
C 	C 	0.38478 0.50740 0.52036 0.16200
C 	C 	0.32015 0.48750 0.48150 -0.14600
C 	C 	0.30464 0.53590 0.64748 0.94200
C 	C 	0.35866 0.46280 0.65172 -1.35800
C 	C 	0.24414 0.53720 0.67928 -1.29300
C 	C 	0.36071 0.60970 0.65682 -1.34100
C 	C 	0.18206 0.74960 0.35652 0.87500
C 	C 	0.11580 0.68350 0.33800 0.01700
C 	C 	0.02661 0.70030 0.32122 -0.05400
C 	C 	0.95878 0.64390 0.30636 0.05600
C 	C 	0.86257 0.67050 0.29394 0.78500
C 	C 	0.38094 0.45440 0.30748 0.81500
C 	C 	0.28795 0.48980 0.29550 0.02500
C 	C 	0.26728 0.53110 0.25776 -0.01800
C 	C 	0.18382 0.55970 0.24124 -0.00800
C 	C 	0.17057 0.60400 0.20074 0.90900
C 	C 	0.98696 0.85310 0.55952 0.77700
C 	C 	0.03697 0.79360 0.58814 0.07600
C 	C 	0.08520 0.81620 0.63040 -0.10800
C 	C 	0.12666 0.76480 0.66012 0.12200
C 	C 	0.17151 0.79670 0.70722 0.50300
C 	C 	0.79184 0.40460 0.04608 0.87900
C 	C 	0.85409 0.41150 0.01598 -0.01600
C 	C 	0.84800 0.35670 0.98080 0.04300
C 	C 	0.89977 0.35760 0.94994 0.01700
C 	C 	0.88226 0.29060 0.91392 0.82500
C 	C 	0.35813 0.12470 0.10806 0.88100
C 	C 	0.35102 0.14850 0.06164 0.07600
C 	C 	0.41300 0.12560 0.03920 -0.09000
C 	C 	0.40778 0.14360 0.99596 0.13600
C 	C 	0.48956 0.11650 0.97712 0.80900
C 	C 	0.01439 0.07350 0.91938 0.04400
C 	C 	0.11406 0.12140 0.98312 0.18400
C 	C 	0.10931 0.17790 0.92042 0.07200
C 	C 	0.04206 0.12720 0.89612 -0.00000
C 	C 	0.00176 0.13440 0.84852 0.13900
C 	C 	0.91391 0.10940 0.82922 -0.13400
C 	C 	0.87511 0.11870 0.78502 0.18400
C 	C 	0.92426 0.15390 0.75992 -0.10900
C 	C 	0.01097 0.17810 0.77914 0.08100
C 	C 	0.05046 0.16820 0.82272 -0.09800
C 	C 	0.71040 0.08770 0.78680 0.99500
C 	C 	0.71426 0.15880 0.81912 -1.43700
C 	C 	0.71726 0.01300 0.80872 -1.46300
C 	C 	0.62264 0.08700 0.75128 -1.30600
C 	C 	0.63897 0.07416 0.55734 0.08700
C 	C 	0.65026 0.05810 0.63012 0.16500
C 	C 	0.76009 0.00935 0.59838 0.08000
C 	C 	0.71697 0.03443 0.55814 -0.05500
C 	C 	0.74810 0.01693 0.51740 0.18100
C 	C 	0.68454 0.00319 0.47728 -0.21300
C 	C 	0.71112 0.98320 0.43844 0.20000
C 	C 	0.80225 0.97780 0.43990 -0.20700
C 	C 	0.86442 0.99260 0.47964 0.19200
C 	C 	0.83865 0.01250 0.51850 -0.17300
C 	C 	0.65716 0.96410 0.35252 0.94400
C 	C 	0.70694 0.03720 0.34828 -1.36800
C 	C 	0.56486 0.96280 0.32072 -1.25900
C 	C 	0.70389 0.89030 0.34318 -1.34200
C 	C 	0.82554 0.75040 0.64348 0.87700
C 	C 	0.77780 0.81650 0.66200 0.01000
C 	C 	0.70539 0.79970 0.67878 -0.02900
C 	C 	0.65242 0.85610 0.69364 0.03500
C 	C 	0.56863 0.82950 0.70606 0.79000
C 	C 	0.07346 0.04560 0.69252 0.79400
C 	C 	0.99245 0.01020 0.70450 0.06000
C 	C 	0.00952 0.96890 0.74224 -0.05500
C 	C 	0.94258 0.94030 0.75876 0.01600
C 	C 	0.96983 0.89600 0.79926 0.91200
C 	C 	0.42744 0.64690 0.44048 0.74700
C 	C 	0.44883 0.70640 0.41186 0.09300
C 	C 	0.45480 0.68380 0.36960 -0.11400
C 	C 	0.46654 0.73520 0.33988 0.12500
C 	C 	0.46429 0.70330 0.29278 0.50400
C 	C 	0.74576 0.09540 0.95392 0.85400
C 	C 	0.83811 0.08850 0.98402 0.08400
C 	C 	0.86720 0.14330 0.01920 -0.08300
C 	C 	0.94983 0.14240 0.05006 0.07400
C 	C 	0.96834 0.20940 0.08608 0.81800
C 	C 	0.25007 0.37530 0.89194 0.89300
C 	C 	0.28938 0.35150 0.93836 0.04400
C 	C 	0.37380 0.37440 0.96080 0.01200
C 	C 	0.41182 0.35640 0.00404 0.05500
C 	C 	0.51244 0.38350 0.02288 0.77600
N 	N 	0.91413 0.57118 0.96306 -0.18800
N 	N 	0.81778 0.67457 0.96356 -0.17700
N 	N 	0.97815 0.59380 0.76410 -0.18900
N 	N 	0.98801 0.58436 0.59258 -0.21000
N 	N 	0.90672 0.52222 0.63424 -0.20200
N 	N 	0.75589 0.46796 0.39904 -0.19600
N 	N 	0.95107 0.92882 0.03694 -0.18400
N 	N 	0.85422 0.82543 0.03644 -0.17300
N 	N 	0.21405 0.90620 0.23590 -0.19900
N 	N 	0.39543 0.91564 0.40742 -0.21000
N 	N 	0.27248 0.97778 0.36576 -0.19900
N 	N 	0.35685 0.03204 0.60096 -0.19200
N 	N 	0.08587 0.42882 0.03694 -0.18700
N 	N 	0.18222 0.32543 0.03644 -0.17100
N 	N 	0.02185 0.40620 0.23590 -0.20600
N 	N 	0.01199 0.41564 0.40742 -0.21100
N 	N 	0.09328 0.47778 0.36576 -0.19400
N 	N 	0.24411 0.53204 0.60096 -0.19500
N 	N 	0.04893 0.07118 0.96306 -0.18700
N 	N 	0.14578 0.17457 0.96356 -0.17400
N 	N 	0.78595 0.09380 0.76410 -0.19300
N 	N 	0.60457 0.08436 0.59258 -0.21100
N 	N 	0.72752 0.02222 0.63424 -0.19800
N 	N 	0.64315 0.96796 0.39904 -0.19800
O 	O 	0.95411 0.58033 0.72154 -0.20200
O 	O 	0.84097 0.46014 0.40312 -0.26200
O 	O 	0.84762 0.38082 0.65906 -0.20200
O 	O 	0.03346 0.42640 0.69688 -0.25200
O 	O 	0.75924 0.52231 0.67926 -0.16100
O 	O 	0.88751 0.44512 0.74594 -0.23800
O 	O 	0.97339 0.27277 0.43210 -0.24600
O 	O 	0.86959 0.30593 0.34648 -0.28900
O 	O 	0.09454 0.53019 0.97254 -0.22300
O 	O 	0.04249 0.59540 0.05228 -0.18500
O 	O 	0.71709 0.81086 0.95058 -0.22700
O 	O 	0.65063 0.81960 0.02746 -0.18200
O 	O 	0.23257 0.91967 0.27846 -0.20400
O 	O 	0.43785 0.03986 0.59688 -0.27000
O 	O 	0.18856 0.11918 0.34094 -0.21100
O 	O 	0.33658 0.07360 0.30312 -0.25700
O 	O 	0.07998 0.97769 0.32074 -0.15000
O 	O 	0.14157 0.05488 0.25406 -0.23800
O 	O 	0.54129 0.22723 0.56790 -0.24800
O 	O 	0.52311 0.19407 0.65352 -0.29000
O 	O 	0.12200 0.96981 0.02746 -0.20600
O 	O 	0.99021 0.90460 0.94772 -0.13800
O 	O 	0.76651 0.68914 0.04942 -0.25200
O 	O 	0.62317 0.68040 0.97254 -0.18500
O 	O 	0.04589 0.41967 0.27846 -0.21300
O 	O 	0.15903 0.53986 0.59688 -0.26900
O 	O 	0.15238 0.61918 0.34094 -0.21000
O 	O 	0.96654 0.57360 0.30312 -0.25100
O 	O 	0.24076 0.47769 0.32074 -0.16100
O 	O 	0.11249 0.55488 0.25406 -0.24600
O 	O 	0.02661 0.72723 0.56790 -0.24900
O 	O 	0.13041 0.69407 0.65352 -0.29000
O 	O 	0.90546 0.46981 0.02746 -0.20700
O 	O 	0.95751 0.40460 0.94772 -0.14800
O 	O 	0.28291 0.18914 0.04942 -0.25300
O 	O 	0.34937 0.18040 0.97254 -0.18500
O 	O 	0.76743 0.08033 0.72154 -0.21000
O 	O 	0.56215 0.96014 0.40312 -0.26200
O 	O 	0.81144 0.88082 0.65906 -0.20300
O 	O 	0.66342 0.92640 0.69688 -0.24900
O 	O 	0.92002 0.02231 0.67926 -0.16900
O 	O 	0.85843 0.94512 0.74594 -0.24600
O 	O 	0.45871 0.77277 0.43210 -0.24700
O 	O 	0.47689 0.80593 0.34648 -0.28900
O 	O 	0.87800 0.03019 0.97254 -0.21800
O 	O 	0.00979 0.09540 0.05228 -0.20400
O 	O 	0.23349 0.31086 0.95058 -0.22800
O 	O 	0.37683 0.31960 0.02746 -0.18200
F 	F 	0.78852 0.25220 0.59804 -0.41300
F 	F 	0.84928 0.18240 0.64976 -0.48100
F 	F 	0.74827 0.25070 0.65834 -0.48900
F 	F 	0.14667 0.25970 0.71834 -0.44000
F 	F 	0.19221 0.37930 0.73442 -0.46400
F 	F 	0.16891 0.32830 0.66682 -0.44400
F 	F 	0.62484 0.61760 0.67908 -0.42800
F 	F 	0.56436 0.50690 0.66132 -0.47900
F 	F 	0.57275 0.53600 0.72510 -0.42700
F 	F 	0.82883 0.32780 0.79186 -0.50800
F 	F 	0.77366 0.41010 0.82432 -0.44100
F 	F 	0.91426 0.41700 0.82932 -0.40900
F 	F 	0.98662 0.15040 0.48044 -0.41100
F 	F 	0.99168 0.07350 0.42296 -0.43100
F 	F 	0.10246 0.15820 0.45072 -0.41800
F 	F 	0.82352 0.12370 0.29044 -0.40900
F 	F 	0.75280 0.23750 0.27640 -0.44200
F 	F 	0.27189 0.55080 0.96038 -0.41600
F 	F 	0.24327 0.66900 0.95754 -0.36900
F 	F 	0.16526 0.57700 0.91072 -0.43500
F 	F 	0.12066 0.77680 0.07312 -0.49600
F 	F 	0.04794 0.70690 0.11068 -0.38100
F 	F 	0.18925 0.70050 0.11670 -0.42300
F 	F 	0.58504 0.93360 0.88228 -0.40500
F 	F 	0.70943 0.89840 0.88446 -0.49100
F 	F 	0.61482 0.80710 0.86424 -0.40900
F 	F 	0.43197 0.88630 0.99074 -0.34600
F 	F 	0.50660 0.84750 0.05600 -0.38500
F 	F 	0.54270 0.95060 0.05140 -0.33900
F 	F 	0.19048 0.24780 0.40196 -0.41600
F 	F 	0.19952 0.31760 0.35024 -0.48400
F 	F 	0.08993 0.24930 0.34166 -0.49400
F 	F 	0.42833 0.24030 0.28166 -0.43600
F 	F 	0.45779 0.12070 0.26558 -0.46500
F 	F 	0.50209 0.17170 0.33318 -0.44200
F 	F 	0.94576 0.88240 0.32092 -0.42500
F 	F 	0.90304 0.99310 0.33868 -0.47700
F 	F 	0.84765 0.96400 0.27490 -0.42500
F 	F 	0.03697 0.17220 0.20814 -0.51500
F 	F 	0.94934 0.08990 0.17568 -0.43200
F 	F 	0.08494 0.08300 0.17068 -0.41900
F 	F 	0.50618 0.34960 0.51956 -0.42800
F 	F 	0.56872 0.42650 0.57704 -0.44600
F 	F 	0.65174 0.34180 0.54928 -0.41800
F 	F 	0.53308 0.37630 0.70956 -0.40800
F 	F 	0.47640 0.26250 0.72360 -0.44100
F 	F 	0.31151 0.94920 0.03962 -0.43100
F 	F 	0.28573 0.83100 0.04246 -0.38900
F 	F 	0.25454 0.92300 0.08928 -0.43600
F 	F 	0.04754 0.72320 0.92688 -0.49300
F 	F 	0.93726 0.79310 0.88932 -0.37000
F 	F 	0.07255 0.79950 0.88330 -0.42500
F 	F 	0.70276 0.56640 0.11772 -0.40800
F 	F 	0.82497 0.60160 0.11554 -0.48900
F 	F 	0.75058 0.69290 0.13576 -0.40800
F 	F 	0.44123 0.61370 0.00926 -0.39100
F 	F 	0.45060 0.65250 0.94400 -0.38400
F 	F 	0.49130 0.54940 0.94860 -0.33800
F 	F 	0.21148 0.74780 0.40196 -0.41400
F 	F 	0.15072 0.81760 0.35024 -0.48400
F 	F 	0.25173 0.74930 0.34166 -0.48900
F 	F 	0.85333 0.74030 0.28166 -0.43300
F 	F 	0.80779 0.62070 0.26558 -0.46200
F 	F 	0.83109 0.67170 0.33318 -0.43800
F 	F 	0.37516 0.38240 0.32092 -0.42800
F 	F 	0.43564 0.49310 0.33868 -0.47900
F 	F 	0.42725 0.46400 0.27490 -0.42700
F 	F 	0.17117 0.67220 0.20814 -0.51100
F 	F 	0.22634 0.58990 0.17568 -0.44200
F 	F 	0.08574 0.58300 0.17068 -0.41700
F 	F 	0.01338 0.84960 0.51956 -0.43700
F 	F 	0.00832 0.92650 0.57704 -0.45400
F 	F 	0.89754 0.84180 0.54928 -0.41900
F 	F 	0.17648 0.87630 0.70956 -0.40700
F 	F 	0.24720 0.76250 0.72360 -0.44000
F 	F 	0.72811 0.44920 0.03962 -0.43500
F 	F 	0.75673 0.33100 0.04246 -0.39000
F 	F 	0.83474 0.42300 0.08928 -0.43700
F 	F 	0.87934 0.22320 0.92688 -0.48600
F 	F 	0.95206 0.29310 0.88932 -0.37000
F 	F 	0.81075 0.29950 0.88330 -0.42400
F 	F 	0.41496 0.06640 0.11772 -0.41200
F 	F 	0.29057 0.10160 0.11554 -0.49500
F 	F 	0.38518 0.19290 0.13576 -0.40900
F 	F 	0.56803 0.11370 0.00926 -0.39300
F 	F 	0.49340 0.15250 0.94400 -0.38500
F 	F 	0.45730 0.04940 0.94860 -0.34200
F 	F 	0.80952 0.75220 0.59804 -0.41200
F 	F 	0.80048 0.68240 0.64976 -0.48300
F 	F 	0.91007 0.75070 0.65834 -0.48500
F 	F 	0.57167 0.75970 0.71834 -0.43600
F 	F 	0.54221 0.87930 0.73442 -0.46100
F 	F 	0.49791 0.82830 0.66682 -0.44000
F 	F 	0.05424 0.11760 0.67908 -0.43200
F 	F 	0.09696 0.00690 0.66132 -0.48400
F 	F 	0.15235 0.03600 0.72510 -0.43000
F 	F 	0.96303 0.82780 0.79186 -0.50600
F 	F 	0.05066 0.91010 0.82432 -0.44600
F 	F 	0.91506 0.91700 0.82932 -0.41000
F 	F 	0.49382 0.65040 0.48044 -0.42700
F 	F 	0.43128 0.57350 0.42296 -0.44600
F 	F 	0.34826 0.65820 0.45072 -0.41900
F 	F 	0.46692 0.62370 0.29044 -0.40900
F 	F 	0.52360 0.73750 0.27640 -0.44100
F 	F 	0.68849 0.05080 0.96038 -0.41900
F 	F 	0.71427 0.16900 0.95754 -0.37000
F 	F 	0.74546 0.07700 0.91072 -0.43500
F 	F 	0.95246 0.27680 0.07312 -0.49000
F 	F 	0.06274 0.20690 0.11068 -0.38600
F 	F 	0.92745 0.20050 0.11670 -0.42000
F 	F 	0.29724 0.43360 0.88228 -0.40900
F 	F 	0.17503 0.39840 0.88446 -0.49500
F 	F 	0.24942 0.30710 0.86424 -0.41000
F 	F 	0.55877 0.38630 0.99074 -0.34700
F 	F 	0.54940 0.34750 0.05600 -0.38600
F 	F 	0.50870 0.45060 0.05140 -0.34400
