data_crystal

_cell_length_a 9.59200
_cell_length_b 9.59200
_cell_length_c 11.02100
_cell_angle_alpha 91.42040
_cell_angle_beta  91.42040
_cell_angle_gamma 105.97950

_symmetry_space_group_name_	'P 1'
_symmetry_space_group_name_H-M	'P 1'

loop_
_symmetry_equiv_pos_as_xyz
  x,y,z

loop_
_atom_site_label
_atom_site_type_symbol
_atom_site_fract_x
_atom_site_fract_y
_atom_site_fract_z
_atom_site_charge
C 	C 	0.50020 0.11960 0.42384 -0.03900
C 	C 	0.49341 0.23512 0.33680 0.27800
C 	C 	0.51988 0.14573 0.55117 -0.04100
C 	C 	0.51655 0.03027 0.62786 0.00200
H 	H 	0.53224 0.05328 0.72487 0.05700
C 	C 	0.54489 0.29085 0.60900 0.28500
N 	N 	0.84177 0.74755 0.53114 -0.26800
O 	O 	0.51564 0.37894 0.37576 -0.39600
O 	O 	0.46748 0.20416 0.22912 -0.27200
O 	O 	0.65347 0.38696 0.58786 -0.26000
O 	O 	0.44741 0.31601 0.69235 -0.40800
C 	C 	0.88276 0.50182 0.08207 -0.04100
C 	C 	0.76723 0.50799 0.16923 0.27600
C 	C 	0.85690 0.48353 0.95461 -0.04100
C 	C 	0.97248 0.48715 0.87796 0.00300
H 	H 	0.94967 0.47211 0.78089 0.05800
C 	C 	0.71181 0.45880 0.89663 0.28400
N 	N 	0.25344 0.13359 0.95634 -0.27000
O 	O 	0.62366 0.48712 0.13017 -0.39400
O 	O 	0.79793 0.53226 0.27709 -0.27300
O 	O 	0.61533 0.35067 0.91812 -0.26000
O 	O 	0.68692 0.55592 0.81281 -0.40700
C 	C 	0.49697 0.88757 0.58207 -0.04000
C 	C 	0.50341 0.77209 0.66921 0.27600
C 	C 	0.47761 0.86147 0.45468 -0.04200
C 	C 	0.48073 0.97691 0.37803 0.00300
H 	H 	0.46491 0.95391 0.28103 0.05700
C 	C 	0.45300 0.71636 0.39679 0.28400
N 	N 	0.14216 0.28149 0.46049 -0.26900
O 	O 	0.48155 0.62835 0.63019 -0.39600
O 	O 	0.52876 0.80294 0.77693 -0.27200
O 	O 	0.34473 0.61993 0.41809 -0.26100
O 	O 	0.55046 0.69157 0.31327 -0.40900
C 	C 	0.11502 0.50590 0.92385 -0.04100
C 	C 	0.23052 0.49914 0.83678 0.27600
C 	C 	0.14092 0.52452 0.05127 -0.04300
C 	C 	0.02531 0.52066 0.12794 0.00200
H 	H 	0.04809 0.53537 0.22502 0.05700
C 	C 	0.28605 0.54941 0.10910 0.28600
N 	N 	0.73744 0.85087 0.03960 -0.26800
O 	O 	0.37409 0.51978 0.87591 -0.39300
O 	O 	0.19980 0.47468 0.72893 -0.27300
O 	O 	0.38225 0.65791 0.08791 -0.26100
O 	O 	0.31122 0.45187 0.19239 -0.40800
Zn	Zn	0.50040 0.50223 0.25294 1.26700
Zn	Zn	0.49737 0.50519 0.75283 1.26700
H 	H 	0.87683 0.81250 0.45711 0.10200
H 	H 	0.82770 0.81240 0.60480 0.09900
H 	H 	0.91883 0.69347 0.55463 0.11100
H 	H 	0.23865 0.12743 0.86195 0.10300
H 	H 	0.22585 0.22436 0.99106 0.10800
H 	H 	0.36191 0.14240 0.97909 0.12300
H 	H 	0.14643 0.26064 0.36742 0.10400
H 	H 	0.08093 0.35478 0.47486 0.11600
H 	H 	0.24719 0.32575 0.49659 0.11800
H 	H 	0.77060 0.92030 -0.03210 0.10400
H 	H 	0.68071 0.89774 0.10075 0.11100
H 	H 	0.82830 0.83319 0.08391 0.09600
H 	H 	0.67011 0.75195 0.00574 0.11900
H 	H 	0.74322 0.67156 0.50788 0.11900
H 	H 	0.09423 0.18478 0.50314 0.09700
H 	H 	0.18743 0.03998 0.99330 0.09800
