data_crystal

_cell_length_a 12.48950
_cell_length_b 12.48950
_cell_length_c 18.25400
_cell_angle_alpha 98.75670
_cell_angle_beta  98.75670
_cell_angle_gamma 116.37800

_symmetry_space_group_name_	'P 1'
_symmetry_space_group_name_H-M	'P 1'

loop_
_symmetry_equiv_pos_as_xyz
  x,y,z

loop_
_atom_site_label
_atom_site_type_symbol
_atom_site_fract_x
_atom_site_fract_y
_atom_site_fract_z
_atom_site_charge
Zn	Zn	0.80218 0.65906 0.04091 1.21000
Zn	Zn	0.34094 0.19782 0.45909 1.21000
Zn	Zn	0.19782 0.34094 0.95909 1.21000
Zn	Zn	0.65906 0.80218 0.54091 1.21000
Zn	Zn	0.24855 0.75145 0.75000 1.16100
Zn	Zn	0.75145 0.24855 0.25000 1.16100
B 	B 	0.71590 0.02950 0.95000 0.88100
B 	B 	0.97050 0.28410 0.55000 0.89400
B 	B 	0.28410 0.97050 0.05000 0.88100
B 	B 	0.02950 0.71590 0.45000 0.89400
H 	H 	0.79900 0.96900 0.82000 0.03500
H 	H 	0.03600 0.11600 0.83100 0.02900
H 	H 	0.95400 0.23800 0.00900 -0.01300
H 	H 	0.58100 0.70500 0.07200 0.01900
H 	H 	0.53600 0.88000 0.03900 0.00300
H 	H 	0.83800 0.89600 0.96400 -0.02600
H 	H 	0.78700 0.06700 0.11800 -0.02500
H 	H 	0.75300 0.35500 0.11000 0.04900
H 	H 	0.70800 0.26800 0.96300 0.00200
H 	H 	0.66250 0.12490 0.82160 0.00100
H 	H 	0.48200 0.97600 0.72600 0.04900
H 	H 	0.51300 0.81700 0.88900 -0.01200
H 	H 	0.79300 0.53500 0.74000 0.05700
H 	H 	0.58300 0.35500 0.87000 0.04100
H 	H 	0.73500 0.63900 0.31500 0.04400
H 	H 	0.03100 0.20100 0.68000 0.02900
H 	H 	0.88400 0.96400 0.66900 0.03300
H 	H 	0.76200 0.04600 0.49100 -0.01900
H 	H 	0.29500 0.41900 0.42800 0.01900
H 	H 	0.12000 0.46400 0.46100 0.00300
H 	H 	0.10400 0.16200 0.53600 -0.02700
H 	H 	0.93300 0.21300 0.38200 -0.02600
H 	H 	0.64500 0.24700 0.39000 0.04600
H 	H 	0.73200 0.29200 0.53700 0.00500
H 	H 	0.87510 0.33750 0.67840 -0.00400
H 	H 	0.02400 0.51800 0.77400 0.05600
H 	H 	0.18300 0.48700 0.61100 -0.01300
H 	H 	0.46500 0.20700 0.76000 0.05600
H 	H 	0.64500 0.41700 0.63000 0.04000
H 	H 	0.36100 0.26500 0.18500 0.04400
H 	H 	0.20100 0.03100 0.18000 0.03500
H 	H 	0.96400 0.88400 0.16900 0.02900
H 	H 	0.04600 0.76200 0.99100 -0.01300
H 	H 	0.41900 0.29500 0.92800 0.01900
H 	H 	0.46400 0.12000 0.96100 0.00300
H 	H 	0.16200 0.10400 0.03600 -0.02600
H 	H 	0.21300 0.93300 0.88200 -0.02500
H 	H 	0.24700 0.64500 0.89000 0.04900
H 	H 	0.29200 0.73200 0.03700 0.00200
H 	H 	0.33750 0.87510 0.17840 0.00100
H 	H 	0.51800 0.02400 0.27400 0.04900
H 	H 	0.48700 0.18300 0.11100 -0.01200
H 	H 	0.20700 0.46500 0.26000 0.05700
H 	H 	0.41700 0.64500 0.13000 0.04100
H 	H 	0.26500 0.36100 0.68500 0.04400
H 	H 	0.96900 0.79900 0.32000 0.02900
H 	H 	0.11600 0.03600 0.33100 0.03300
H 	H 	0.23800 0.95400 0.50900 -0.01900
H 	H 	0.70500 0.58100 0.57200 0.01900
H 	H 	0.88000 0.53600 0.53900 0.00300
H 	H 	0.89600 0.83800 0.46400 -0.02700
H 	H 	0.06700 0.78700 0.61800 -0.02600
H 	H 	0.35500 0.75300 0.61000 0.04600
H 	H 	0.26800 0.70800 0.46300 0.00500
H 	H 	0.12490 0.66250 0.32160 -0.00400
H 	H 	0.97600 0.48200 0.22600 0.05600
H 	H 	0.81700 0.51300 0.38900 -0.01300
H 	H 	0.53500 0.79300 0.24000 0.05600
H 	H 	0.35500 0.58300 0.37000 0.04000
H 	H 	0.63900 0.73500 0.81500 0.04400
C 	C 	0.85810 0.03410 0.85540 0.01700
C 	C 	0.97370 0.11450 0.85480 -0.01700
C 	C 	0.93910 0.18770 0.96040 0.10200
C 	C 	0.62260 0.76120 0.03820 -0.00900
C 	C 	0.60450 0.85230 0.01930 0.02600
C 	C 	0.76370 0.85610 0.98080 0.12100
C 	C 	0.75730 0.13310 0.09230 0.08300
C 	C 	0.75600 0.30260 0.08700 -0.06400
C 	C 	0.72130 0.23610 0.01310 0.06500
C 	C 	0.60140 0.04780 0.82240 0.05400
C 	C 	0.49630 0.97810 0.76920 -0.06500
C 	C 	0.49730 0.88150 0.85550 0.09700
C 	C 	0.79340 0.55160 0.89080 0.30700
C 	C 	0.73040 0.47460 0.74660 -0.04700
C 	C 	0.70830 0.45530 0.81660 -0.05600
C 	C 	0.60720 0.35180 0.81950 -0.01100
C 	C 	0.71830 0.61330 0.17250 0.31400
C 	C 	0.62890 0.52890 0.21220 -0.07800
C 	C 	0.65140 0.55980 0.29220 -0.02600
C 	C 	0.52130 0.42570 0.16930 -0.01200
C 	C 	0.96590 0.14190 0.64460 0.02800
C 	C 	0.88550 0.02630 0.64520 -0.02300
C 	C 	0.81230 0.06090 0.53960 0.11000
C 	C 	0.23880 0.37740 0.46180 -0.01000
C 	C 	0.14770 0.39550 0.48070 0.03100
C 	C 	0.14390 0.23630 0.51920 0.11900
C 	C 	0.86690 0.24270 0.40770 0.08200
C 	C 	0.69740 0.24400 0.41300 -0.05900
C 	C 	0.76390 0.27870 0.48690 0.05900
C 	C 	0.95220 0.39860 0.67760 0.06900
C 	C 	0.02190 0.50370 0.73080 -0.08100
C 	C 	0.11850 0.50270 0.64450 0.09700
C 	C 	0.44840 0.20660 0.60920 0.30800
C 	C 	0.52540 0.26960 0.75340 -0.04600
C 	C 	0.54470 0.29170 0.68340 -0.05700
C 	C 	0.64820 0.39280 0.68050 -0.01000
C 	C 	0.38670 0.28170 0.32750 0.31400
C 	C 	0.47110 0.37110 0.28780 -0.07800
C 	C 	0.44020 0.34860 0.20780 -0.02600
C 	C 	0.57430 0.47870 0.33070 -0.01200
C 	C 	0.14190 0.96590 0.14460 0.01700
C 	C 	0.02630 0.88550 0.14520 -0.01700
C 	C 	0.06090 0.81230 0.03960 0.10200
C 	C 	0.37740 0.23880 0.96180 -0.00900
C 	C 	0.39550 0.14770 0.98070 0.02600
C 	C 	0.23630 0.14390 0.01920 0.12100
C 	C 	0.24270 0.86690 0.90770 0.08300
C 	C 	0.24400 0.69740 0.91300 -0.06400
C 	C 	0.27870 0.76390 0.98690 0.06500
C 	C 	0.39860 0.95220 0.17760 0.05400
C 	C 	0.50370 0.02190 0.23080 -0.06500
C 	C 	0.50270 0.11850 0.14450 0.09700
C 	C 	0.20660 0.44840 0.10920 0.30700
C 	C 	0.26960 0.52540 0.25340 -0.04700
C 	C 	0.29170 0.54470 0.18340 -0.05600
C 	C 	0.39280 0.64820 0.18050 -0.01100
C 	C 	0.28170 0.38670 0.82750 0.31400
C 	C 	0.37110 0.47110 0.78780 -0.07800
C 	C 	0.34860 0.44020 0.70780 -0.02600
C 	C 	0.47870 0.57430 0.83070 -0.01200
C 	C 	0.03410 0.85810 0.35540 0.02800
C 	C 	0.11450 0.97370 0.35480 -0.02300
C 	C 	0.18770 0.93910 0.46040 0.11000
C 	C 	0.76120 0.62260 0.53820 -0.01000
C 	C 	0.85230 0.60450 0.51930 0.03100
C 	C 	0.85610 0.76370 0.48080 0.11900
C 	C 	0.13310 0.75730 0.59230 0.08200
C 	C 	0.30260 0.75600 0.58700 -0.05900
C 	C 	0.23610 0.72130 0.51310 0.05900
C 	C 	0.04780 0.60140 0.32240 0.06900
C 	C 	0.97810 0.49630 0.26920 -0.08100
C 	C 	0.88150 0.49730 0.35550 0.09700
C 	C 	0.55160 0.79340 0.39080 0.30800
C 	C 	0.47460 0.73040 0.24660 -0.04600
C 	C 	0.45530 0.70830 0.31660 -0.05700
C 	C 	0.35180 0.60720 0.31950 -0.01000
C 	C 	0.61330 0.71830 0.67250 0.31400
C 	C 	0.52890 0.62890 0.71220 -0.07800
C 	C 	0.55980 0.65140 0.79220 -0.02600
C 	C 	0.42570 0.52130 0.66930 -0.01200
N 	N 	0.02440 0.21200 0.92060 -0.27200
N 	N 	0.83450 0.08110 0.92260 -0.29700
N 	N 	0.72220 0.76200 0.01430 -0.26800
N 	N 	0.69540 0.91460 0.98220 -0.28800
N 	N 	0.77340 0.23800 0.13720 -0.25300
N 	N 	0.72270 0.12870 0.01670 -0.29100
N 	N 	0.60540 0.98720 0.87920 -0.28800
N 	N 	0.42860 0.87200 0.78980 -0.27600
N 	N 	0.78800 0.97560 0.57940 -0.27200
N 	N 	0.91890 0.16550 0.57740 -0.30000
N 	N 	0.23800 0.27780 0.48570 -0.26600
N 	N 	0.08540 0.30460 0.51780 -0.29300
N 	N 	0.76200 0.22660 0.36280 -0.25400
N 	N 	0.87130 0.27730 0.48330 -0.29400
N 	N 	0.01280 0.39460 0.62080 -0.29500
N 	N 	0.12800 0.57140 0.71020 -0.27400
N 	N 	0.97560 0.78800 0.07940 -0.27200
N 	N 	0.16550 0.91890 0.07740 -0.29700
N 	N 	0.27780 0.23800 0.98570 -0.26800
N 	N 	0.30460 0.08540 0.01780 -0.28800
N 	N 	0.22660 0.76200 0.86280 -0.25300
N 	N 	0.27730 0.87130 0.98330 -0.29100
N 	N 	0.39460 0.01280 0.12080 -0.28800
N 	N 	0.57140 0.12800 0.21020 -0.27600
N 	N 	0.21200 0.02440 0.42060 -0.27200
N 	N 	0.08110 0.83450 0.42260 -0.30000
N 	N 	0.76200 0.72220 0.51430 -0.26600
N 	N 	0.91460 0.69540 0.48220 -0.29300
N 	N 	0.23800 0.77340 0.63720 -0.25400
N 	N 	0.12870 0.72270 0.51670 -0.29400
N 	N 	0.98720 0.60540 0.37920 -0.29500
N 	N 	0.87200 0.42860 0.28980 -0.27400
O 	O 	0.87580 0.65040 0.88770 -0.30500
O 	O 	0.76330 0.52590 0.95370 -0.45200
O 	O 	0.79390 0.72070 0.20720 -0.30900
O 	O 	0.70590 0.56210 0.10270 -0.46300
O 	O 	0.34960 0.12420 0.61230 -0.30500
O 	O 	0.47410 0.23670 0.54630 -0.45200
O 	O 	0.27930 0.20610 0.29280 -0.30900
O 	O 	0.43790 0.29410 0.39730 -0.46300
O 	O 	0.12420 0.34960 0.11230 -0.30500
O 	O 	0.23670 0.47410 0.04630 -0.45200
O 	O 	0.20610 0.27930 0.79280 -0.30900
O 	O 	0.29410 0.43790 0.89730 -0.46300
O 	O 	0.65040 0.87580 0.38770 -0.30500
O 	O 	0.52590 0.76330 0.45370 -0.45200
O 	O 	0.72070 0.79390 0.70720 -0.30900
O 	O 	0.56210 0.70590 0.60270 -0.46300
H 	H 	0.49931 0.40406 0.10415 0.03600
H 	H 	0.59594 0.50069 0.39585 0.03600
H 	H 	0.50069 0.59594 0.89585 0.03600
H 	H 	0.40406 0.49931 0.60415 0.03600
