data_crystal

_cell_length_a 11.13990
_cell_length_b 18.04970
_cell_length_c 29.33800
_cell_angle_alpha 90.00000
_cell_angle_beta  90.00000
_cell_angle_gamma 90.00000

_symmetry_space_group_name_	'P 1'
_symmetry_space_group_name_H-M	'P 1'

loop_
_symmetry_equiv_pos_as_xyz
  x,y,z

loop_
_atom_site_label
_atom_site_type_symbol
_atom_site_fract_x
_atom_site_fract_y
_atom_site_fract_z
_atom_site_charge
Eu	Eu	0.45728 0.91743 0.79000 2.05000
Eu	Eu	0.46851 0.70715 0.73142 1.86600
Eu	Eu	0.04272 0.08257 0.29000 2.04500
Eu	Eu	0.03149 0.29285 0.23142 1.86200
Eu	Eu	0.54272 0.41743 0.71000 2.05200
Eu	Eu	0.53149 0.20715 0.76858 1.86500
Eu	Eu	0.95728 0.58257 0.21000 2.05000
Eu	Eu	0.96851 0.79285 0.26858 1.86000
H 	H 	0.68780 0.89950 0.36910 0.12700
H 	H 	0.32980 0.67130 0.12020 0.16400
H 	H 	0.61560 0.84530 0.59810 0.15100
H 	H 	0.26900 0.04790 0.63030 0.15900
H 	H 	0.28160 0.95860 0.39870 0.14300
H 	H 	0.51530 0.83980 0.96780 0.09100
H 	H 	0.29510 0.69150 0.89280 0.13000
H 	H 	0.53060 0.04590 0.87930 -0.02700
H 	H 	0.13300 0.76770 0.84030 0.04300
H 	H 	0.19730 0.82710 0.36540 0.04700
H 	H 	0.13660 0.96190 0.68620 0.00800
H 	H 	0.54520 0.06000 0.95610 0.09300
H 	H 	0.72410 0.03440 0.32780 0.03900
H 	H 	0.50790 0.83290 0.88970 -0.01700
H 	H 	0.32330 0.78150 0.18240 0.01900
H 	H 	0.54040 0.94480 0.66180 0.04200
H 	H 	0.39400 0.66290 0.04430 0.06800
H 	H 	0.47470 0.69550 0.19250 0.18600
H 	H 	0.39070 0.69130 0.23530 0.16800
H 	H 	0.38150 0.63090 0.19700 0.18600
H 	H 	0.23490 0.10250 0.70740 0.21300
H 	H 	0.10350 0.08940 0.69010 0.20200
H 	H 	0.14210 0.06130 0.73850 0.19100
H 	H 	0.12160 0.64450 0.82300 0.13300
H 	H 	0.17250 0.68610 0.78030 0.09800
H 	H 	0.25930 0.64130 0.81200 0.10700
H 	H 	0.36060 0.66090 0.96180 0.04500
H 	H 	0.29070 0.03270 0.46760 0.04400
H 	H 	0.29580 0.06240 0.54830 0.05500
H 	H 	0.58230 0.06360 0.02700 0.07800
H 	H 	0.48440 0.86530 0.11460 0.00900
H 	H 	0.57790 0.06910 0.10580 0.00600
H 	H 	0.48040 0.85310 0.03690 0.08300
H 	H 	0.66280 0.83970 0.43790 0.03400
H 	H 	0.77180 0.88250 0.67380 0.16000
H 	H 	0.74680 0.96690 0.66560 0.16900
H 	H 	0.70560 0.92930 0.71110 0.14900
H 	H 	0.64000 0.81910 0.52060 0.05400
H 	H 	0.39930 0.89630 0.32570 0.15800
H 	H 	0.40670 0.82480 0.35590 0.17000
H 	H 	0.34160 0.82210 0.30860 0.15500
H 	H 	0.53760 0.99700 0.30100 0.15400
H 	H 	0.62910 0.99300 0.26050 0.13800
H 	H 	0.58980 0.92030 0.28570 0.14100
H 	H 	0.81220 0.10050 0.86910 0.12700
H 	H 	0.17020 0.32870 0.62020 0.16400
H 	H 	0.88440 0.15470 0.09810 0.15100
H 	H 	0.23100 0.95210 0.13030 0.16000
H 	H 	0.21840 0.04140 0.89870 0.14200
H 	H 	0.98470 0.16020 0.46780 0.09300
H 	H 	0.20490 0.30850 0.39280 0.13000
H 	H 	0.96940 0.95410 0.37930 -0.02800
H 	H 	0.36700 0.23230 0.34030 0.04200
H 	H 	0.30270 0.17290 0.86540 0.04700
H 	H 	0.36340 0.03810 0.18620 0.01000
H 	H 	0.95480 0.94000 0.45610 0.09400
H 	H 	0.77590 0.96560 0.82780 0.03200
H 	H 	0.99210 0.16710 0.38970 -0.01700
H 	H 	0.17670 0.21850 0.68240 0.01800
H 	H 	0.95960 0.05520 0.16180 0.04300
H 	H 	0.10600 0.33710 0.54430 0.06800
H 	H 	0.02530 0.30450 0.69250 0.18500
H 	H 	0.10930 0.30870 0.73530 0.16700
H 	H 	0.11850 0.36910 0.69700 0.18600
H 	H 	0.26510 0.89750 0.20740 0.21000
H 	H 	0.39650 0.91060 0.19010 0.20000
H 	H 	0.35790 0.93870 0.23850 0.18900
H 	H 	0.37840 0.35550 0.32300 0.13200
H 	H 	0.32750 0.31390 0.28030 0.09800
H 	H 	0.24070 0.35870 0.31200 0.10700
H 	H 	0.13940 0.33910 0.46180 0.04500
H 	H 	0.20930 0.96730 0.96760 0.05400
H 	H 	0.20420 0.93760 0.04830 0.04900
H 	H 	0.91770 0.93640 0.52700 0.07800
H 	H 	0.01560 0.13470 0.61460 0.00500
H 	H 	0.92210 0.93090 0.60580 0.00600
H 	H 	0.01960 0.14690 0.53690 0.07800
H 	H 	0.83720 0.16030 0.93790 0.03400
H 	H 	0.72820 0.11750 0.17380 0.16200
H 	H 	0.75320 0.03310 0.16560 0.17300
H 	H 	0.79440 0.07070 0.21110 0.15200
H 	H 	0.86000 0.18090 0.02060 0.05500
H 	H 	0.10070 0.10370 0.82570 0.15500
H 	H 	0.09330 0.17520 0.85590 0.16800
H 	H 	0.15840 0.17790 0.80860 0.15300
H 	H 	0.96240 0.00300 0.80100 0.16000
H 	H 	0.87090 0.00700 0.76050 0.14500
H 	H 	0.91020 0.07970 0.78570 0.14600
H 	H 	0.31220 0.39950 0.13090 0.12700
H 	H 	0.67020 0.17130 0.37980 0.16400
H 	H 	0.38440 0.34530 0.90190 0.15100
H 	H 	0.73100 0.54790 0.86970 0.15900
H 	H 	0.71840 0.45860 0.10130 0.14200
H 	H 	0.48470 0.33980 0.53220 0.09200
H 	H 	0.70490 0.19150 0.60720 0.13000
H 	H 	0.46940 0.54590 0.62070 -0.02800
H 	H 	0.86700 0.26770 0.65970 0.04300
H 	H 	0.80270 0.32710 0.13460 0.04700
H 	H 	0.86340 0.46190 0.81380 0.00800
H 	H 	0.45480 0.56000 0.54390 0.09300
H 	H 	0.27590 0.53440 0.17220 0.03700
H 	H 	0.49210 0.33290 0.61030 -0.01700
H 	H 	0.67670 0.28150 0.31760 0.01800
H 	H 	0.45960 0.44480 0.83820 0.04200
H 	H 	0.60600 0.16290 0.45570 0.06800
H 	H 	0.52530 0.19550 0.30750 0.18600
H 	H 	0.60930 0.19130 0.26470 0.16800
H 	H 	0.61850 0.13090 0.30300 0.18600
H 	H 	0.76510 0.60250 0.79260 0.21200
H 	H 	0.89650 0.58940 0.80990 0.20100
H 	H 	0.85790 0.56130 0.76150 0.19000
H 	H 	0.87840 0.14450 0.67700 0.13300
H 	H 	0.82750 0.18610 0.71970 0.09800
H 	H 	0.74070 0.14130 0.68800 0.10800
H 	H 	0.63940 0.16090 0.53820 0.04500
H 	H 	0.70930 0.53270 0.03240 0.04900
H 	H 	0.70420 0.56240 0.95170 0.05200
H 	H 	0.41770 0.56360 0.47300 0.07700
H 	H 	0.51560 0.36530 0.38540 0.00900
H 	H 	0.42210 0.56910 0.39420 0.00600
H 	H 	0.51960 0.35310 0.46310 0.08200
H 	H 	0.33720 0.33970 0.06210 0.03400
H 	H 	0.22820 0.38250 0.82620 0.16200
H 	H 	0.25320 0.46690 0.83440 0.17200
H 	H 	0.29440 0.42930 0.78890 0.15100
H 	H 	0.36000 0.31910 0.97940 0.05400
H 	H 	0.60070 0.39630 0.17430 0.15700
H 	H 	0.59330 0.32480 0.14410 0.17000
H 	H 	0.65840 0.32210 0.19140 0.15500
H 	H 	0.46240 0.49700 0.19900 0.15500
H 	H 	0.37090 0.49300 0.23950 0.14000
H 	H 	0.41020 0.42030 0.21430 0.14200
H 	H 	0.18780 0.60050 0.63090 0.12700
H 	H 	0.82980 0.82870 0.87980 0.16300
H 	H 	0.11560 0.65470 0.40190 0.15100
H 	H 	0.76900 0.45210 0.36970 0.16000
H 	H 	0.78160 0.54140 0.60130 0.14200
H 	H 	0.01530 0.66020 0.03220 0.09300
H 	H 	0.79510 0.80850 0.10720 0.13000
H 	H 	0.03060 0.45410 0.12070 -0.02800
H 	H 	0.63300 0.73230 0.15970 0.04200
H 	H 	0.69730 0.67290 0.63460 0.04700
H 	H 	0.63660 0.53810 0.31380 0.00800
H 	H 	0.04520 0.44000 0.04390 0.09300
H 	H 	0.22410 0.46560 0.67220 0.03700
H 	H 	0.00790 0.66710 0.11030 -0.01600
H 	H 	0.82330 0.71850 0.81760 0.01900
H 	H 	0.04040 0.55520 0.33820 0.04200
H 	H 	0.89400 0.83710 0.95570 0.06800
H 	H 	0.97470 0.80450 0.80750 0.18300
H 	H 	0.89070 0.80870 0.76470 0.16600
H 	H 	0.88150 0.86910 0.80300 0.18400
H 	H 	0.73490 0.39750 0.29260 0.21200
H 	H 	0.60350 0.41060 0.30990 0.20200
H 	H 	0.64210 0.43870 0.26150 0.19100
H 	H 	0.62160 0.85550 0.17700 0.13200
H 	H 	0.67250 0.81390 0.21970 0.09800
H 	H 	0.75930 0.85870 0.18800 0.10700
H 	H 	0.86060 0.83910 0.03820 0.04400
H 	H 	0.79070 0.46730 0.53240 0.04900
H 	H 	0.79580 0.43760 0.45170 0.05200
H 	H 	0.08230 0.43640 0.97300 0.07700
H 	H 	0.98440 0.63470 0.88540 0.00700
H 	H 	0.07790 0.43090 0.89420 0.00600
H 	H 	0.98040 0.64690 0.96310 0.07900
H 	H 	0.16280 0.66030 0.56210 0.03400
H 	H 	0.27180 0.61750 0.32620 0.16200
H 	H 	0.24680 0.53310 0.33440 0.17200
H 	H 	0.20560 0.57070 0.28890 0.15100
H 	H 	0.14000 0.68090 0.47940 0.05500
H 	H 	0.89930 0.60370 0.67430 0.15700
H 	H 	0.90670 0.67520 0.64410 0.16900
H 	H 	0.84160 0.67790 0.69140 0.15400
H 	H 	0.03760 0.50300 0.69900 0.15600
H 	H 	0.12910 0.50700 0.73950 0.14000
H 	H 	0.08980 0.57970 0.71430 0.14300
C 	C 	0.17970 0.71560 0.20034 0.40800
C 	C 	0.16240 0.91580 0.32416 0.41700
C 	C 	0.53210 0.95690 0.02255 0.05400
C 	C 	0.30090 0.96140 0.71864 0.26400
C 	C 	0.30470 0.79260 0.82194 0.37400
C 	C 	0.26440 0.92400 0.48220 -0.06700
C 	C 	0.82450 0.94880 0.30234 0.42800
C 	C 	0.51890 0.88290 0.95051 -0.16000
C 	C 	0.54310 0.83580 0.68082 0.34900
C 	C 	0.52750 0.00360 0.89735 0.13300
C 	C 	0.23310 0.74070 0.96837 -0.06900
C 	C 	0.25890 0.76180 0.09998 0.23300
C 	C 	0.18450 0.75680 0.92221 0.23100
C 	C 	0.20880 0.74020 0.83987 -0.00500
C 	C 	0.23960 0.87310 0.35784 0.01900
C 	C 	0.61530 0.92920 0.52946 -0.06900
C 	C 	0.52980 0.95110 0.97182 0.08000
C 	C 	0.20640 0.99490 0.68697 0.12700
C 	C 	0.53570 0.01290 0.94369 -0.16900
C 	C 	0.60000 0.94540 0.57871 0.24200
C 	C 	0.71110 0.98130 0.32281 -0.00600
C 	C 	0.51340 0.87940 0.90326 0.12200
C 	C 	0.30250 0.72920 0.17834 0.05200
C 	C 	0.59520 0.90300 0.65713 0.04200
C 	C 	0.33850 0.69280 0.02941 -0.03200
C 	C 	0.26350 0.94500 0.61432 0.24800
C 	C 	0.26680 0.74250 0.05097 -0.06300
C 	C 	0.39600 0.68240 0.20308 -0.52100
C 	C 	0.16820 0.06890 0.70765 -0.59000
C 	C 	0.18870 0.67180 0.81120 -0.37300
C 	C 	0.31920 0.69170 0.98181 -0.02100
C 	C 	0.27420 0.95390 0.56417 -0.06300
C 	C 	0.28210 0.99750 0.49050 -0.01700
C 	C 	0.24520 0.88120 0.43993 0.22300
C 	C 	0.28610 0.01460 0.53709 -0.02800
C 	C 	0.56140 0.02190 0.04382 -0.12700
C 	C 	0.50420 0.90630 0.09695 0.07900
C 	C 	0.65580 0.98780 0.40320 0.22200
C 	C 	0.64080 0.94950 0.44727 -0.07400
C 	C 	0.55910 0.02430 0.09178 0.07800
C 	C 	0.50210 0.89810 0.04981 -0.12900
C 	C 	0.64940 0.87750 0.45883 -0.01800
C 	C 	0.71610 0.92220 0.67893 -0.46700
C 	C 	0.63560 0.86540 0.50679 -0.03200
C 	C 	0.35770 0.85210 0.33487 -0.46800
C 	C 	0.60730 0.97210 0.28940 -0.44000
C 	C 	0.32030 0.28440 0.70034 0.40900
C 	C 	0.33760 0.08420 0.82416 0.41800
C 	C 	0.96790 0.04310 0.52255 0.05400
C 	C 	0.19910 0.03860 0.21864 0.26600
C 	C 	0.19530 0.20740 0.32194 0.37400
C 	C 	0.23560 0.07600 0.98220 -0.06000
C 	C 	0.67550 0.05120 0.80234 0.42400
C 	C 	0.98110 0.11710 0.45051 -0.16400
C 	C 	0.95690 0.16420 0.18082 0.34900
C 	C 	0.97250 0.99640 0.39735 0.13100
C 	C 	0.26690 0.25930 0.46837 -0.06900
C 	C 	0.24110 0.23820 0.59998 0.23300
C 	C 	0.31550 0.24320 0.42221 0.23100
C 	C 	0.29120 0.25980 0.33987 -0.00600
C 	C 	0.26040 0.12690 0.85784 0.01600
C 	C 	0.88470 0.07080 0.02946 -0.06500
C 	C 	0.97020 0.04890 0.47182 0.08900
C 	C 	0.29360 0.00510 0.18697 0.11700
C 	C 	0.96430 0.98710 0.44369 -0.17800
C 	C 	0.90000 0.05460 0.07871 0.24600
C 	C 	0.78890 0.01870 0.82281 0.00800
C 	C 	0.98660 0.12060 0.40326 0.12600
C 	C 	0.19750 0.27080 0.67834 0.05200
C 	C 	0.90480 0.09700 0.15713 0.04500
C 	C 	0.16150 0.30720 0.52941 -0.03300
C 	C 	0.23650 0.05500 0.11432 0.24700
C 	C 	0.23320 0.25750 0.55097 -0.06300
C 	C 	0.10400 0.31760 0.70308 -0.52000
C 	C 	0.33180 0.93110 0.20765 -0.57600
C 	C 	0.31130 0.32820 0.31120 -0.37200
C 	C 	0.18080 0.30830 0.48181 -0.02100
C 	C 	0.22580 0.04610 0.06417 -0.07300
C 	C 	0.21790 0.00250 0.99050 -0.03800
C 	C 	0.25480 0.11880 0.93993 0.21900
C 	C 	0.21390 0.98540 0.03709 -0.00600
C 	C 	0.93860 0.97810 0.54382 -0.12900
C 	C 	0.99580 0.09370 0.59695 0.08300
C 	C 	0.84420 0.01220 0.90320 0.22800
C 	C 	0.85920 0.05050 0.94727 -0.07100
C 	C 	0.94090 0.97570 0.59178 0.07400
C 	C 	0.99790 0.10190 0.54981 -0.12300
C 	C 	0.85060 0.12250 0.95883 -0.01700
C 	C 	0.78390 0.07780 0.17893 -0.47300
C 	C 	0.86440 0.13460 0.00679 -0.03400
C 	C 	0.14230 0.14790 0.83487 -0.46300
C 	C 	0.89270 0.02790 0.78940 -0.45600
C 	C 	0.82030 0.21560 0.29966 0.40800
C 	C 	0.83760 0.41580 0.17584 0.41800
C 	C 	0.46790 0.45690 0.47745 0.05200
C 	C 	0.69910 0.46140 0.78136 0.26400
C 	C 	0.69530 0.29260 0.67806 0.37400
C 	C 	0.73560 0.42400 0.01780 -0.06500
C 	C 	0.17550 0.44880 0.19766 0.42700
C 	C 	0.48110 0.38290 0.54949 -0.16200
C 	C 	0.45690 0.33580 0.81918 0.34900
C 	C 	0.47250 0.50360 0.60265 0.13400
C 	C 	0.76690 0.24070 0.53163 -0.06900
C 	C 	0.74110 0.26180 0.40002 0.23300
C 	C 	0.81550 0.25680 0.57779 0.23100
C 	C 	0.79120 0.24020 0.66013 -0.00500
C 	C 	0.76040 0.37310 0.14216 0.01800
C 	C 	0.38470 0.42920 0.97054 -0.06800
C 	C 	0.47020 0.45110 0.52818 0.08400
C 	C 	0.79360 0.49490 0.81303 0.12400
C 	C 	0.46430 0.51290 0.55631 -0.17200
C 	C 	0.40000 0.44540 0.92129 0.24300
C 	C 	0.28890 0.48130 0.17719 -0.00100
C 	C 	0.48660 0.37940 0.59674 0.12400
C 	C 	0.69750 0.22920 0.32166 0.05200
C 	C 	0.40480 0.40300 0.84287 0.04400
C 	C 	0.66150 0.19280 0.47059 -0.03300
C 	C 	0.73650 0.44500 0.88568 0.24800
C 	C 	0.73320 0.24250 0.44903 -0.06300
C 	C 	0.60400 0.18240 0.29692 -0.52200
C 	C 	0.83180 0.56890 0.79235 -0.58500
C 	C 	0.81130 0.17180 0.68880 -0.37400
C 	C 	0.68080 0.19170 0.51819 -0.02100
C 	C 	0.72580 0.45390 0.93583 -0.06700
C 	C 	0.71790 0.49750 0.00950 -0.02600
C 	C 	0.75480 0.38120 0.06007 0.22100
C 	C 	0.71390 0.51460 0.96291 -0.01800
C 	C 	0.43860 0.52190 0.45618 -0.12500
C 	C 	0.49580 0.40630 0.40305 0.07800
C 	C 	0.34420 0.48780 0.09680 0.22400
C 	C 	0.35920 0.44950 0.05273 -0.07300
C 	C 	0.44090 0.52430 0.40822 0.07800
C 	C 	0.49790 0.39810 0.45019 -0.12700
C 	C 	0.35060 0.37750 0.04117 -0.01900
C 	C 	0.28390 0.42220 0.82107 -0.47100
C 	C 	0.36440 0.36540 0.99321 -0.03100
C 	C 	0.64230 0.35210 0.16513 -0.46700
C 	C 	0.39270 0.47210 0.21060 -0.44500
C 	C 	0.67970 0.78440 0.79966 0.40900
C 	C 	0.66240 0.58420 0.67584 0.41800
C 	C 	0.03210 0.54310 0.97745 0.05000
C 	C 	0.80090 0.53860 0.28136 0.26400
C 	C 	0.80470 0.70740 0.17806 0.37400
C 	C 	0.76440 0.57600 0.51780 -0.06400
C 	C 	0.32450 0.55120 0.69766 0.42700
C 	C 	0.01890 0.61710 0.04949 -0.16300
C 	C 	0.04310 0.66420 0.31918 0.34900
C 	C 	0.02750 0.49640 0.10265 0.13400
C 	C 	0.73310 0.75930 0.03163 -0.06900
C 	C 	0.75890 0.73820 0.90002 0.23200
C 	C 	0.68450 0.74320 0.07779 0.23100
C 	C 	0.70880 0.75980 0.16013 -0.00600
C 	C 	0.73960 0.62690 0.64216 0.01700
C 	C 	0.11530 0.57080 0.47054 -0.06800
C 	C 	0.02980 0.54890 0.02818 0.08500
C 	C 	0.70640 0.50510 0.31303 0.12400
C 	C 	0.03570 0.48710 0.05631 -0.17300
C 	C 	0.10000 0.55460 0.42129 0.24400
C 	C 	0.21110 0.51870 0.67719 -0.00100
C 	C 	0.01340 0.62060 0.09674 0.12400
C 	C 	0.80250 0.77080 0.82166 0.05000
C 	C 	0.09520 0.59700 0.34287 0.04400
C 	C 	0.83850 0.80720 0.97059 -0.03400
C 	C 	0.76350 0.55500 0.38568 0.24800
C 	C 	0.76680 0.75750 0.94903 -0.06200
C 	C 	0.89600 0.81760 0.79692 -0.51700
C 	C 	0.66820 0.43110 0.29235 -0.58600
C 	C 	0.68870 0.82820 0.18880 -0.37200
C 	C 	0.81920 0.80830 0.01819 -0.02000
C 	C 	0.77420 0.54610 0.43583 -0.06700
C 	C 	0.78210 0.50250 0.50950 -0.02600
C 	C 	0.74520 0.61880 0.56007 0.22100
C 	C 	0.78610 0.48540 0.46291 -0.01800
C 	C 	0.06140 0.47810 0.95618 -0.12400
C 	C 	0.00420 0.59370 0.90305 0.08000
C 	C 	0.15580 0.51220 0.59680 0.22400
C 	C 	0.14080 0.55050 0.55273 -0.07400
C 	C 	0.05910 0.47570 0.90822 0.07800
C 	C 	0.00210 0.60190 0.95019 -0.12300
C 	C 	0.14940 0.62250 0.54117 -0.01800
C 	C 	0.21610 0.57780 0.32107 -0.47200
C 	C 	0.13560 0.63460 0.49321 -0.03200
C 	C 	0.85770 0.64790 0.66513 -0.46500
C 	C 	0.10730 0.52790 0.71060 -0.44600
S 	S 	0.61582 0.00361 0.49369 0.06100
S 	S 	0.17609 0.78912 0.01326 0.04400
S 	S 	0.25630 0.87522 0.53237 0.05700
S 	S 	0.88418 0.99639 0.99369 0.05100
S 	S 	0.32391 0.21088 0.51326 0.04100
S 	S 	0.24370 0.12478 0.03237 0.05500
S 	S 	0.38418 0.50361 0.00631 0.05900
S 	S 	0.82391 0.28912 0.48674 0.04300
S 	S 	0.74370 0.37522 0.96763 0.05700
S 	S 	0.11582 0.49639 0.50631 0.05900
S 	S 	0.67609 0.71088 0.98674 0.04100
S 	S 	0.75630 0.62478 0.46763 0.05600
N 	N 	0.51540 0.93854 0.87620 -0.23500
N 	N 	0.68480 0.94700 0.36662 -0.22300
N 	N 	0.30200 0.71292 0.12980 -0.23700
N 	N 	0.60570 0.88980 0.60797 -0.23500
N 	N 	0.25110 0.00464 0.64046 -0.25000
N 	N 	0.25960 0.91300 0.39985 -0.23000
N 	N 	0.23980 0.72353 0.88724 -0.22200
N 	N 	0.53240 0.96790 0.11826 -0.14500
N 	N 	0.98460 0.06146 0.37620 -0.23200
N 	N 	0.81520 0.05300 0.86662 -0.22600
N 	N 	0.19800 0.28708 0.62980 -0.23700
N 	N 	0.89430 0.11020 0.10797 -0.23600
N 	N 	0.24890 0.99536 0.14046 -0.24500
N 	N 	0.24040 0.08700 0.89985 -0.22900
N 	N 	0.26020 0.27647 0.38724 -0.22200
N 	N 	0.96760 0.03210 0.61826 -0.14300
N 	N 	0.48460 0.43854 0.62380 -0.23400
N 	N 	0.31520 0.44700 0.13338 -0.22400
N 	N 	0.69800 0.21292 0.37020 -0.23800
N 	N 	0.39430 0.38980 0.89203 -0.23600
N 	N 	0.74890 0.50464 0.85954 -0.24800
N 	N 	0.74040 0.41300 0.10015 -0.23000
N 	N 	0.76020 0.22353 0.61276 -0.22200
N 	N 	0.46760 0.46790 0.38174 -0.14500
N 	N 	0.01540 0.56146 0.12380 -0.23400
N 	N 	0.18480 0.55300 0.63338 -0.22400
N 	N 	0.80200 0.78708 0.87020 -0.23700
N 	N 	0.10570 0.61020 0.39203 -0.23600
N 	N 	0.75110 0.49536 0.35954 -0.24800
N 	N 	0.75960 0.58700 0.60015 -0.23000
N 	N 	0.73980 0.77647 0.11276 -0.22200
N 	N 	0.03240 0.53210 0.88174 -0.14500
O 	O 	0.38260 0.77134 0.79384 -0.58200
O 	O 	0.50960 0.84425 0.72181 -0.56700
O 	O 	0.10140 0.87650 0.29764 -0.51800
O 	O 	0.83720 0.87992 0.30412 -0.51500
O 	O 	0.14730 0.76267 0.22924 -0.49500
O 	O 	0.40300 0.98958 0.72111 -0.40100
O 	O 	0.12420 0.65811 0.18941 -0.49400
O 	O 	0.89560 0.99252 0.28323 -0.54300
O 	O 	0.27050 0.90728 0.74347 -0.40100
O 	O 	0.30730 0.85728 0.83751 -0.43600
O 	O 	0.16550 0.98555 0.32300 -0.46200
O 	O 	0.26230 0.88274 0.63087 -0.24800
O 	O 	0.58180 0.00864 0.59072 -0.24100
O 	O 	0.21490 0.81450 0.44388 -0.23000
O 	O 	0.21530 0.82197 0.11166 -0.24900
O 	O 	0.53910 0.77481 0.66168 -0.42100
O 	O 	0.64220 0.05572 0.40088 -0.23900
O 	O 	0.09740 0.79760 0.91794 -0.22900
O 	O 	0.11740 0.22866 0.29384 -0.58200
O 	O 	0.99040 0.15575 0.22181 -0.56400
O 	O 	0.39860 0.12350 0.79764 -0.52100
O 	O 	0.66280 0.12008 0.80412 -0.51500
O 	O 	0.35270 0.23733 0.72924 -0.49700
O 	O 	0.09700 0.01042 0.22111 -0.40300
O 	O 	0.37580 0.34189 0.68941 -0.49500
O 	O 	0.60440 0.00748 0.78323 -0.54000
O 	O 	0.22950 0.09272 0.24347 -0.40200
O 	O 	0.19270 0.14272 0.33751 -0.43700
O 	O 	0.33450 0.01445 0.82300 -0.46600
O 	O 	0.23770 0.11726 0.13087 -0.24900
O 	O 	0.91820 0.99136 0.09072 -0.24600
O 	O 	0.28510 0.18550 0.94388 -0.23000
O 	O 	0.28470 0.17803 0.61166 -0.25100
O 	O 	0.96090 0.22519 0.16168 -0.42000
O 	O 	0.85780 0.94428 0.90088 -0.24400
O 	O 	0.40260 0.20240 0.41794 -0.23100
O 	O 	0.61740 0.27134 0.70616 -0.58200
O 	O 	0.49040 0.34425 0.77819 -0.56700
O 	O 	0.89860 0.37650 0.20236 -0.52000
O 	O 	0.16280 0.37992 0.19588 -0.51500
O 	O 	0.85270 0.26267 0.27076 -0.49500
O 	O 	0.59700 0.48958 0.77889 -0.40100
O 	O 	0.87580 0.15811 0.31059 -0.49300
O 	O 	0.10440 0.49252 0.21677 -0.54100
O 	O 	0.72950 0.40728 0.75653 -0.40200
O 	O 	0.69270 0.35728 0.66249 -0.43700
O 	O 	0.83450 0.48555 0.17700 -0.46500
O 	O 	0.73770 0.38274 0.86913 -0.24900
O 	O 	0.41820 0.50864 0.90928 -0.24200
O 	O 	0.78510 0.31450 0.05612 -0.23100
O 	O 	0.78470 0.32197 0.38834 -0.25000
O 	O 	0.46090 0.27481 0.83832 -0.42100
O 	O 	0.35780 0.55572 0.09912 -0.24000
O 	O 	0.90260 0.29760 0.58206 -0.23000
O 	O 	0.88260 0.72866 0.20616 -0.58200
O 	O 	0.00960 0.65575 0.27819 -0.56500
O 	O 	0.60140 0.62350 0.70236 -0.52100
O 	O 	0.33720 0.62008 0.69588 -0.51500
O 	O 	0.64730 0.73733 0.77076 -0.49700
O 	O 	0.90300 0.51042 0.27889 -0.40100
O 	O 	0.62420 0.84189 0.81059 -0.49600
O 	O 	0.39560 0.50748 0.71677 -0.54200
O 	O 	0.77050 0.59272 0.25653 -0.40200
O 	O 	0.80730 0.64272 0.16249 -0.43700
O 	O 	0.66550 0.51445 0.67700 -0.46500
O 	O 	0.76230 0.61726 0.36913 -0.24900
O 	O 	0.08180 0.49136 0.40928 -0.24200
O 	O 	0.71490 0.68550 0.55612 -0.23100
O 	O 	0.71530 0.67803 0.88834 -0.25000
O 	O 	0.03910 0.72519 0.33832 -0.41900
O 	O 	0.14220 0.44428 0.59912 -0.24000
O 	O 	0.59740 0.70240 0.08206 -0.23100
