data_crystal

_cell_length_a 9.77480
_cell_length_b 11.97950
_cell_length_c 11.97950
_cell_angle_alpha 90.30780
_cell_angle_beta  110.04900
_cell_angle_gamma 110.04900

_symmetry_space_group_name_	'P 1'
_symmetry_space_group_name_H-M	'P 1'

loop_
_symmetry_equiv_pos_as_xyz
  x,y,z

loop_
_atom_site_label
_atom_site_type_symbol
_atom_site_fract_x
_atom_site_fract_y
_atom_site_fract_z
_atom_site_charge
Zn	Zn	0.84653 0.15922 0.37406 1.19400
Zn	Zn	0.34653 0.37406 0.15922 1.19500
H 	H 	0.19940 0.47340 0.74460 0.05700
H 	H 	0.99310 0.12610 0.76090 0.06600
H 	H 	0.32260 0.50380 0.94900 0.00200
H 	H 	0.12470 0.16460 0.96480 -0.00500
H 	H 	0.20290 0.47770 0.34430 0.30700
H 	H 	0.05540 0.44810 0.22590 0.30000
H 	H 	0.03460 0.41880 0.34780 0.31200
H 	H 	0.69940 0.74460 0.47340 0.05900
H 	H 	0.49310 0.76090 0.12610 0.07400
H 	H 	0.82260 0.94900 0.50380 0.00300
H 	H 	0.62470 0.96480 0.16460 -0.00800
H 	H 	0.70290 0.34430 0.47770 0.30700
H 	H 	0.55540 0.22590 0.44810 0.30100
H 	H 	0.53460 0.34780 0.41880 0.31200
C 	C 	0.00010 0.27710 0.59610 0.31800
C 	C 	0.10170 0.30240 0.27980 0.35800
C 	C 	0.08140 0.29650 0.73030 -0.03600
C 	C 	0.18180 0.40930 0.78810 -0.07700
C 	C 	0.05990 0.20360 0.79740 -0.06900
C 	C 	0.25590 0.42680 0.91060 0.03300
C 	C 	0.13910 0.22780 0.91980 0.04500
C 	C 	0.09830 0.42210 0.30130 -0.97300
C 	C 	0.50010 0.59610 0.27710 0.31200
C 	C 	0.60170 0.27980 0.30240 0.35700
C 	C 	0.58140 0.73030 0.29650 -0.02900
C 	C 	0.68180 0.78810 0.40930 -0.08100
C 	C 	0.55990 0.79740 0.20360 -0.08100
C 	C 	0.75590 0.91060 0.42680 0.03500
C 	C 	0.63910 0.91980 0.22780 0.05200
C 	C 	0.59830 0.30130 0.42210 -0.97300
N 	N 	0.01510 0.20038 0.30582 -0.29400
N 	N 	0.23570 0.33719 0.97689 -0.25800
N 	N 	0.05460 0.11300 0.27060 -0.06900
N 	N 	0.19300 0.27865 0.22915 -0.30300
N 	N 	0.16060 0.15920 0.22520 -0.07500
N 	N 	0.51510 0.30582 0.20038 -0.29500
N 	N 	0.73570 0.97689 0.33719 -0.25900
N 	N 	0.55460 0.27060 0.11300 -0.07000
N 	N 	0.69300 0.22915 0.27865 -0.30300
N 	N 	0.66060 0.22520 0.15920 -0.07600
O 	O 	0.91040 0.16993 0.54817 -0.47400
O 	O 	0.02040 0.36089 0.53891 -0.36100
O 	O 	0.41040 0.54817 0.16993 -0.47000
O 	O 	0.52040 0.53891 0.36089 -0.35900
Zn	Zn	0.65347 0.62594 0.84078 1.19400
Zn	Zn	0.15347 0.84078 0.62594 1.19300
H 	H 	0.30060 0.25540 0.52660 0.05900
H 	H 	0.50690 0.23910 0.87390 0.07400
H 	H 	0.17740 0.05100 0.49620 0.00300
H 	H 	0.37530 0.03520 0.83540 -0.00800
H 	H 	0.29710 0.65570 0.52230 0.30700
H 	H 	0.44460 0.77410 0.55190 0.30100
H 	H 	0.46540 0.65220 0.58120 0.31200
H 	H 	0.80060 0.52660 0.25540 0.05700
H 	H 	0.00690 0.87390 0.23910 0.06600
H 	H 	0.67740 0.49620 0.05100 0.00200
H 	H 	0.87530 0.83540 0.03520 -0.00500
H 	H 	0.79710 0.52230 0.65570 0.30700
H 	H 	0.94460 0.55190 0.77410 0.30000
H 	H 	0.96540 0.58120 0.65220 0.31200
C 	C 	0.49990 0.40390 0.72290 0.31200
C 	C 	0.39830 0.72020 0.69760 0.35700
C 	C 	0.41860 0.26970 0.70350 -0.02900
C 	C 	0.31820 0.21190 0.59070 -0.08100
C 	C 	0.44010 0.20260 0.79640 -0.08100
C 	C 	0.24410 0.08940 0.57320 0.03500
C 	C 	0.36090 0.08020 0.77220 0.05200
C 	C 	0.40170 0.69870 0.57790 -0.97300
C 	C 	0.99990 0.72290 0.40390 0.31800
C 	C 	0.89830 0.69760 0.72020 0.35800
C 	C 	0.91860 0.70350 0.26970 -0.03600
C 	C 	0.81820 0.59070 0.21190 -0.07700
C 	C 	0.94010 0.79640 0.20260 -0.06900
C 	C 	0.74410 0.57320 0.08940 0.03300
C 	C 	0.86090 0.77220 0.08020 0.04500
C 	C 	0.90170 0.57790 0.69870 -0.97300
N 	N 	0.48490 0.69418 0.79962 -0.29500
N 	N 	0.26430 0.02311 0.66281 -0.25900
N 	N 	0.44540 0.72940 0.88700 -0.07000
N 	N 	0.30700 0.77085 0.72135 -0.30300
N 	N 	0.33940 0.77480 0.84080 -0.07600
N 	N 	0.98490 0.79962 0.69418 -0.29400
N 	N 	0.76430 0.66281 0.02311 -0.25800
N 	N 	0.94540 0.88700 0.72940 -0.06900
N 	N 	0.80700 0.72135 0.77085 -0.30300
N 	N 	0.83940 0.84080 0.77480 -0.07500
O 	O 	0.58960 0.45183 0.83007 -0.47000
O 	O 	0.47960 0.46109 0.63911 -0.35900
O 	O 	0.08960 0.83007 0.45183 -0.47400
O 	O 	0.97960 0.63911 0.46109 -0.36100
