data_crystal

_cell_length_a 11.85500
_cell_length_b 12.41400
_cell_length_c 12.47300
_cell_angle_alpha 90.00000
_cell_angle_beta  99.01000
_cell_angle_gamma 90.00000

_symmetry_space_group_name_	'P 1'
_symmetry_space_group_name_H-M	'P 1'

loop_
_symmetry_equiv_pos_as_xyz
  x,y,z

loop_
_atom_site_label
_atom_site_type_symbol
_atom_site_fract_x
_atom_site_fract_y
_atom_site_fract_z
_atom_site_charge
C 	C 	0.48510 0.33950 0.48800 0.00800
C 	C 	0.38920 0.37540 0.52750 -0.21200
H 	H 	0.32690 0.40250 0.48080 0.11700
C 	C 	0.38810 0.36990 0.63920 0.27200
C 	C 	0.48200 0.33370 0.70960 -0.33900
H 	H 	0.47980 0.33010 0.78380 0.15800
C 	C 	0.57970 0.30290 0.66920 0.27900
C 	C 	0.58110 0.30270 0.55870 -0.21400
H 	H 	0.64510 0.27830 0.53140 0.12100
C 	C 	0.48880 0.34160 0.36900 0.41700
C 	C 	0.27860 0.38160 0.78310 0.08000
H 	H 	0.30170 0.30720 0.80130 0.01900
C 	C 	0.35620 0.45790 0.85880 0.42800
C 	C 	0.15450 0.39430 0.79430 -0.51800
H 	H 	0.10910 0.34610 0.74510 0.19300
H 	H 	0.13100 0.46720 0.77750 0.16300
H 	H 	0.14450 0.37780 0.86740 0.18100
C 	C 	0.69160 0.29470 0.84440 0.10600
H 	H 	0.65950 0.36610 0.85430 0.00700
C 	C 	0.63170 0.21240 0.90790 0.41600
C 	C 	0.81970 0.29860 0.88480 -0.55200
H 	H 	0.85440 0.35110 0.84380 0.20500
H 	H 	0.85240 0.22910 0.87570 0.19900
H 	H 	0.83290 0.31790 0.96020 0.18300
C 	C 	0.02290 0.54540 0.09150 0.07800
C 	C 	0.96270 0.54800 0.98680 -0.25200
H 	H 	0.99960 0.53390 0.92780 0.11900
C 	C 	0.84720 0.57200 0.97100 0.30100
C 	C 	0.79150 0.59120 0.05820 -0.34900
H 	H 	0.71370 0.60620 0.04700 0.15500
C 	C 	0.85250 0.58780 0.16350 0.30400
C 	C 	0.96890 0.56520 0.18050 -0.23900
H 	H 	0.00990 0.56340 0.25050 0.13000
C 	C 	0.14870 0.51920 0.10850 0.25100
C 	C 	0.68750 0.57290 0.24970 0.16200
H 	H 	0.63670 0.62050 0.20140 -0.01500
C 	C 	0.67250 0.45720 0.21020 0.30800
C 	C 	0.66120 0.58150 0.36480 -0.61400
H 	H 	0.68050 0.65230 0.39260 0.22500
H 	H 	0.70520 0.52900 0.40990 0.21600
H 	H 	0.58130 0.56860 0.36460 0.20500
C 	C 	0.68030 0.60010 0.83620 0.16500
H 	H 	0.63230 0.55250 0.87260 -0.01900
C 	C 	0.66090 0.71560 0.86480 0.29000
C 	C 	0.65080 0.58720 0.71380 -0.60000
H 	H 	0.65900 0.51300 0.69470 0.21800
H 	H 	0.70140 0.63080 0.67900 0.21000
H 	H 	0.57340 0.60980 0.69040 0.19700
O 	O 	0.56460 0.28460 0.33630 -0.49800
O 	O 	0.41730 0.39870 0.31070 -0.51700
O 	O 	0.28780 0.40020 0.67290 -0.27400
O 	O 	0.37980 0.54710 0.82660 -0.54200
O 	O 	0.38980 0.42120 0.95390 -0.52200
O 	O 	0.67890 0.27280 0.73270 -0.26900
O 	O 	0.62640 0.23760 0.00340 -0.53400
O 	O 	0.59180 0.12710 0.86100 -0.47900
O 	O 	0.20030 0.49630 0.20060 -0.39300
O 	O 	0.20010 0.52090 0.02650 -0.42700
O 	O 	0.79670 0.57040 0.86390 -0.28600
O 	O 	0.74150 0.78270 0.87710 -0.40500
O 	O 	0.55940 0.74580 0.87180 -0.52700
O 	O 	0.80380 0.60570 0.25300 -0.28300
O 	O 	0.75010 0.39000 0.23300 -0.43300
O 	O 	0.57640 0.43130 0.15510 -0.54100
O 	O 	0.76360 0.16840 0.34970 -0.82800
H 	H 	0.77150 0.11150 0.31360 0.29800
H 	H 	0.80460 0.16370 0.41190 0.36600
Tb	Tb	0.37362 0.44540 0.13027 2.03300
Tb	Tb	0.64169 0.22965 0.18693 1.95900
C 	C 	0.51490 0.83950 0.51200 0.00300
C 	C 	0.61080 0.87540 0.47250 -0.21500
H 	H 	0.67310 0.90250 0.51920 0.11100
C 	C 	0.61190 0.86990 0.36080 0.26900
C 	C 	0.51800 0.83370 0.29040 -0.34300
H 	H 	0.52020 0.83010 0.21620 0.15700
C 	C 	0.42030 0.80290 0.33080 0.27200
C 	C 	0.41890 0.80270 0.44130 -0.21900
H 	H 	0.35490 0.77830 0.46860 0.11500
C 	C 	0.51120 0.84160 0.63100 0.41100
C 	C 	0.72140 0.88160 0.21690 0.09100
H 	H 	0.69830 0.80720 0.19870 0.01700
C 	C 	0.64380 0.95790 0.14120 0.36500
C 	C 	0.84550 0.89430 0.20570 -0.50800
H 	H 	0.89090 0.84610 0.25490 0.18500
H 	H 	0.86900 0.96720 0.22250 0.14400
H 	H 	0.85550 0.87780 0.13260 0.17100
C 	C 	0.30840 0.79470 0.15560 0.09400
H 	H 	0.34050 0.86610 0.14570 -0.00100
C 	C 	0.36830 0.71240 0.09210 0.42400
C 	C 	0.18030 0.79860 0.11520 -0.52400
H 	H 	0.14560 0.85110 0.15620 0.18500
H 	H 	0.14760 0.72910 0.12430 0.18700
H 	H 	0.16710 0.81790 0.03980 0.16600
C 	C 	0.97710 0.04540 0.90850 0.08200
C 	C 	0.03730 0.04800 0.01320 -0.25200
H 	H 	0.00040 0.03390 0.07220 0.12900
C 	C 	0.15280 0.07200 0.02900 0.31000
C 	C 	0.20850 0.09120 0.94180 -0.35000
H 	H 	0.28630 0.10620 0.95300 0.16300
C 	C 	0.14750 0.08780 0.83650 0.32200
C 	C 	0.03110 0.06520 0.81950 -0.24200
H 	H 	0.99010 0.06340 0.74950 0.14400
C 	C 	0.85130 0.01920 0.89150 0.30700
C 	C 	0.31250 0.07290 0.75030 0.25500
H 	H 	0.36330 0.12050 0.79860 -0.03600
C 	C 	0.32750 0.95720 0.78980 0.23700
C 	C 	0.33880 0.08150 0.63520 -0.72100
H 	H 	0.31950 0.15230 0.60740 0.26000
H 	H 	0.29480 0.02900 0.59010 0.26300
H 	H 	0.41870 0.06860 0.63540 0.25100
C 	C 	0.31970 0.10010 0.16380 0.17400
H 	H 	0.36770 0.05250 0.12740 -0.01100
C 	C 	0.33910 0.21560 0.13520 0.28600
C 	C 	0.34920 0.08720 0.28620 -0.62700
H 	H 	0.34100 0.01300 0.30530 0.24200
H 	H 	0.29860 0.13080 0.32100 0.22200
H 	H 	0.42660 0.10980 0.30960 0.21000
O 	O 	0.43540 0.78460 0.66370 -0.50000
O 	O 	0.58270 0.89870 0.68930 -0.51700
O 	O 	0.71220 0.90020 0.32710 -0.28700
O 	O 	0.62020 0.04710 0.17340 -0.49300
O 	O 	0.61020 0.92120 0.04610 -0.51000
O 	O 	0.32110 0.77280 0.26730 -0.27400
O 	O 	0.37360 0.73760 0.99660 -0.54100
O 	O 	0.40820 0.62710 0.13900 -0.50800
O 	O 	0.79970 0.99630 0.79940 -0.44100
O 	O 	0.79990 0.02090 0.97350 -0.40900
O 	O 	0.20330 0.07040 0.13610 -0.27800
O 	O 	0.25850 0.28270 0.12290 -0.40500
O 	O 	0.44060 0.24580 0.12820 -0.53000
O 	O 	0.19620 0.10570 0.74700 -0.29600
O 	O 	0.24990 0.89000 0.76700 -0.43200
O 	O 	0.42360 0.93130 0.84490 -0.53000
O 	O 	0.23640 0.66840 0.65030 -0.82400
H 	H 	0.22850 0.61150 0.68640 0.28500
H 	H 	0.19540 0.66370 0.58810 0.35300
Tb	Tb	0.62638 0.94540 0.86973 1.95200
Tb	Tb	0.35831 0.72965 0.81307 1.94900
