data_crystal

_cell_length_a 18.62650
_cell_length_b 23.57930
_cell_length_c 30.12270
_cell_angle_alpha 93.22300
_cell_angle_beta  90.00000
_cell_angle_gamma 90.00000

_symmetry_space_group_name_	'P 1'
_symmetry_space_group_name_H-M	'P 1'

loop_
_symmetry_equiv_pos_as_xyz
  x,y,z

loop_
_atom_site_label
_atom_site_type_symbol
_atom_site_fract_x
_atom_site_fract_y
_atom_site_fract_z
_atom_site_charge
Zn	Zn	0.57939 0.64994 0.61986 1.21600
Zn	Zn	0.42000 0.65749 0.20094 1.21200
Zn	Zn	0.50587 0.58959 0.69867 1.20800
Zn	Zn	0.50557 0.72193 0.69760 1.21100
Zn	Zn	0.00794 0.21959 0.61889 1.21100
Zn	Zn	0.00607 0.08472 0.62413 1.21100
Zn	Zn	0.58686 0.65769 0.19210 1.21000
Zn	Zn	0.40242 0.65000 0.63042 1.18000
Zn	Zn	0.92061 0.14994 0.11986 1.21600
Zn	Zn	0.08000 0.15749 0.70094 1.21200
Zn	Zn	0.99413 0.08959 0.19867 1.20700
Zn	Zn	0.99443 0.22193 0.19760 1.21000
Zn	Zn	0.49206 0.71959 0.11889 1.21000
Zn	Zn	0.49393 0.58472 0.12413 1.21000
Zn	Zn	0.91314 0.15769 0.69210 1.20900
Zn	Zn	0.09758 0.15000 0.13042 1.17900
H 	H 	0.52130 0.58400 0.83780 0.07000
H 	H 	0.88050 0.93610 0.62640 0.06300
H 	H 	0.58510 0.66960 0.48040 0.05800
H 	H 	0.65410 0.45910 0.70330 0.05900
H 	H 	0.36300 0.62790 0.41560 0.06900
H 	H 	0.10970 0.38130 0.19710 0.05100
H 	H 	0.41830 0.64000 0.34040 0.05700
H 	H 	0.63890 0.68440 0.40650 0.06500
H 	H 	0.64530 0.85580 0.69670 0.05200
H 	H 	0.77210 0.29200 0.72180 0.05200
H 	H 	0.70040 0.36880 0.73020 0.06100
H 	H 	0.34310 0.45420 0.12090 0.05800
H 	H 	0.21230 0.87600 0.25320 0.06500
H 	H 	0.85850 0.35150 0.61150 0.06200
H 	H 	0.29110 0.79940 0.24560 0.03800
H 	H 	0.52850 0.53650 0.90960 0.08600
H 	H 	0.15290 0.47860 0.21970 0.06300
H 	H 	0.23680 0.54790 0.21540 0.03700
H 	H 	0.73110 0.51520 0.58900 0.03100
H 	H 	0.67640 0.95680 0.71370 0.05900
H 	H 	0.37470 0.63400 0.49100 0.03000
H 	H 	0.75330 0.03190 0.70740 0.03800
H 	H 	0.76810 0.76050 0.61200 0.03300
H 	H 	0.49850 0.71100 0.98610 0.02900
H 	H 	0.84840 0.83310 0.60730 0.06900
H 	H 	0.30240 0.35610 0.09960 0.07000
H 	H 	0.80470 0.43850 0.58010 0.06500
H 	H 	0.33090 0.83690 0.11960 0.03800
H 	H 	0.49400 0.75950 0.91330 0.05000
H 	H 	0.14570 0.95370 0.22030 0.06000
H 	H 	0.62590 0.68300 0.33070 0.03800
H 	H 	0.49080 0.75270 0.83850 0.04000
H 	H 	0.19400 0.99360 0.09600 0.02800
H 	H 	0.27220 0.92060 0.08910 0.05900
H 	H 	0.21900 0.28670 0.10440 0.01900
H 	H 	0.97870 0.08400 0.33780 0.07000
H 	H 	0.61950 0.43610 0.12640 0.06300
H 	H 	0.91490 0.16960 0.98040 0.05800
H 	H 	0.84590 0.95910 0.20330 0.05900
H 	H 	0.13700 0.12790 0.91560 0.06900
H 	H 	0.39030 0.88130 0.69710 0.05100
H 	H 	0.08170 0.14000 0.84040 0.05700
H 	H 	0.86110 0.18440 0.90650 0.06500
H 	H 	0.85470 0.35580 0.19670 0.05200
H 	H 	0.72790 0.79200 0.22180 0.05200
H 	H 	0.79960 0.86880 0.23020 0.06100
H 	H 	0.15690 0.95420 0.62090 0.05800
H 	H 	0.28770 0.37600 0.75320 0.06500
H 	H 	0.64150 0.85150 0.11150 0.06200
H 	H 	0.20890 0.29940 0.74560 0.03800
H 	H 	0.97150 0.03650 0.40960 0.08500
H 	H 	0.34710 0.97860 0.71970 0.06200
H 	H 	0.26320 0.04790 0.71540 0.03700
H 	H 	0.76890 0.01520 0.08900 0.03100
H 	H 	0.82360 0.45680 0.21370 0.05900
H 	H 	0.12530 0.13400 0.99100 0.03000
H 	H 	0.74670 0.53190 0.20740 0.03800
H 	H 	0.73190 0.26050 0.11200 0.03300
H 	H 	0.00150 0.21100 0.48610 0.02900
H 	H 	0.65160 0.33310 0.10730 0.06900
H 	H 	0.19760 0.85610 0.59960 0.07000
H 	H 	0.69530 0.93850 0.08010 0.06500
H 	H 	0.16910 0.33690 0.61960 0.03900
H 	H 	0.00600 0.25950 0.41330 0.05100
H 	H 	0.35430 0.45370 0.72030 0.06000
H 	H 	0.87410 0.18300 0.83070 0.03800
H 	H 	0.00920 0.25270 0.33850 0.04000
H 	H 	0.30600 0.49360 0.59600 0.02800
H 	H 	0.22780 0.42060 0.58910 0.05900
H 	H 	0.28100 0.78670 0.60440 0.01900
C 	C 	0.51350 0.65750 0.27910 0.41800
C 	C 	0.51560 0.62200 0.90010 0.05700
C 	C 	0.51650 0.61910 0.85320 -0.05800
C 	C 	0.46690 0.65030 0.40020 0.02400
C 	C 	0.51970 0.66070 0.32780 -0.11200
C 	C 	0.79490 0.89270 0.64740 0.03000
C 	C 	0.84030 0.93950 0.64460 -0.04000
C 	C 	0.48190 0.65100 0.49360 -0.09500
C 	C 	0.19460 0.42240 0.17240 0.01600
C 	C 	0.69740 0.80170 0.65490 -0.10500
C 	C 	0.68460 0.49480 0.64630 -0.10200
C 	C 	0.54060 0.66240 0.46720 -0.03200
C 	C 	0.73130 0.40760 0.67450 0.01200
C 	C 	0.53330 0.66300 0.42060 0.02700
C 	C 	0.68460 0.45470 0.67890 -0.02800
C 	C 	0.40710 0.63760 0.42830 -0.09600
C 	C 	0.14700 0.37720 0.17660 -0.01600
C 	C 	0.46200 0.64900 0.35390 -0.02200
C 	C 	0.77800 0.40180 0.63740 0.03900
C 	C 	0.59470 0.67570 0.39340 -0.09500
C 	C 	0.68480 0.85230 0.67780 -0.02800
C 	C 	0.87890 0.03840 0.66360 0.38600
C 	C 	0.77350 0.31940 0.70090 -0.01000
C 	C 	0.51850 0.57580 0.96930 0.09700
C 	C 	0.73090 0.36500 0.70580 -0.07200
C 	C 	0.73050 0.89980 0.67340 0.01600
C 	C 	0.30530 0.45860 0.14100 -0.03400
C 	C 	0.23610 0.86810 0.22640 -0.09500
C 	C 	0.15330 0.32740 0.15180 -0.11800
C 	C 	0.31930 0.81270 0.18090 -0.11500
C 	C 	0.82470 0.35440 0.63430 -0.06100
C 	C 	0.82810 0.98890 0.66720 -0.08500
C 	C 	0.28320 0.82260 0.22220 0.02500
C 	C 	0.30070 0.50700 0.16790 -0.09500
C 	C 	0.52200 0.57170 0.92450 -0.14500
C 	C 	0.25380 0.41530 0.14300 0.03300
C 	C 	0.22400 0.90240 0.19020 0.03100
C 	C 	0.51030 0.66740 0.82980 -0.08000
C 	C 	0.10330 0.27890 0.15610 0.41000
C 	C 	0.19080 0.47340 0.19980 -0.08800
C 	C 	0.24100 0.51460 0.19760 0.01900
C 	C 	0.73080 0.48800 0.61020 0.03200
C 	C 	0.26020 0.89240 0.15130 0.01300
C 	C 	0.71730 0.95230 0.69610 -0.08800
C 	C 	0.41460 0.63990 0.47330 0.02600
C 	C 	0.10760 0.02770 0.16300 0.37900
C 	C 	0.76340 0.99690 0.69300 0.00800
C 	C 	0.75970 0.79490 0.62780 0.02500
C 	C 	0.50380 0.67620 0.97030 0.01300
C 	C 	0.80730 0.83860 0.62460 -0.10200
C 	C 	0.16060 0.98010 0.15840 -0.09900
C 	C 	0.26280 0.36190 0.11810 -0.10500
C 	C 	0.50730 0.67480 0.92370 -0.01500
C 	C 	0.37160 0.76410 0.17740 0.42400
C 	C 	0.77550 0.44270 0.60510 -0.11100
C 	C 	0.30780 0.84520 0.14660 -0.01600
C 	C 	0.49910 0.72410 0.89840 -0.07200
C 	C 	0.17160 0.94710 0.19420 -0.03500
C 	C 	0.58680 0.67460 0.34840 0.03100
C 	C 	0.49870 0.72030 0.85390 -0.00100
C 	C 	0.50800 0.62880 0.99240 -0.15000
C 	C 	0.20030 0.97020 0.11950 0.02200
C 	C 	0.82110 0.31240 0.66400 -0.05100
C 	C 	0.24750 0.92740 0.11560 -0.09500
C 	C 	0.87090 0.26360 0.66070 0.29200
C 	C 	0.50430 0.63130 0.04220 0.43000
C 	C 	0.35670 0.55190 0.16560 0.39600
C 	C 	0.64490 0.75410 0.65810 0.40300
C 	C 	0.51070 0.66340 0.78040 0.37400
C 	C 	0.49050 0.64990 0.54330 0.40300
C 	C 	0.63460 0.54450 0.65170 0.39300
C 	C 	0.21390 0.32040 0.12160 0.03200
C 	C 	0.98650 0.15750 0.77910 0.41800
C 	C 	0.98440 0.12200 0.40010 0.05700
C 	C 	0.98350 0.11910 0.35320 -0.05800
C 	C 	0.03310 0.15030 0.90020 0.02400
C 	C 	0.98030 0.16070 0.82780 -0.11100
C 	C 	0.70510 0.39270 0.14740 0.03000
C 	C 	0.65970 0.43950 0.14460 -0.04000
C 	C 	0.01810 0.15100 0.99360 -0.09500
C 	C 	0.30540 0.92240 0.67240 0.01600
C 	C 	0.80260 0.30170 0.15490 -0.10500
C 	C 	0.81540 0.99480 0.14630 -0.10200
C 	C 	0.95940 0.16240 0.96720 -0.03200
C 	C 	0.76870 0.90760 0.17450 0.01200
C 	C 	0.96670 0.16300 0.92060 0.02700
C 	C 	0.81540 0.95470 0.17890 -0.02800
C 	C 	0.09290 0.13760 0.92830 -0.09600
C 	C 	0.35300 0.87720 0.67660 -0.01600
C 	C 	0.03800 0.14900 0.85390 -0.02200
C 	C 	0.72200 0.90180 0.13740 0.03900
C 	C 	0.90530 0.17570 0.89340 -0.09400
C 	C 	0.81520 0.35230 0.17780 -0.02800
C 	C 	0.62110 0.53840 0.16360 0.38600
C 	C 	0.72650 0.81940 0.20090 -0.01000
C 	C 	0.98150 0.07580 0.46930 0.09600
C 	C 	0.76910 0.86500 0.20580 -0.07200
C 	C 	0.76950 0.39980 0.17340 0.01600
C 	C 	0.19470 0.95860 0.64100 -0.03400
C 	C 	0.26390 0.36810 0.72640 -0.09500
C 	C 	0.34670 0.82740 0.65180 -0.11800
C 	C 	0.18070 0.31270 0.68090 -0.11500
C 	C 	0.67530 0.85440 0.13430 -0.06100
C 	C 	0.67190 0.48890 0.16720 -0.08500
C 	C 	0.21680 0.32260 0.72220 0.02500
C 	C 	0.19930 0.00700 0.66790 -0.09500
C 	C 	0.97800 0.07170 0.42450 -0.14400
C 	C 	0.24620 0.91530 0.64300 0.03300
C 	C 	0.27600 0.40240 0.69020 0.03100
C 	C 	0.98970 0.16740 0.32980 -0.08000
C 	C 	0.39670 0.77890 0.65610 0.41000
C 	C 	0.30920 0.97340 0.69980 -0.08800
C 	C 	0.25900 0.01460 0.69760 0.01900
C 	C 	0.76920 0.98800 0.11020 0.03200
C 	C 	0.23980 0.39240 0.65130 0.01300
C 	C 	0.78270 0.45230 0.19610 -0.08900
C 	C 	0.08540 0.13990 0.97330 0.02600
C 	C 	0.39240 0.52770 0.66300 0.37900
C 	C 	0.73660 0.49690 0.19300 0.00800
C 	C 	0.74030 0.29490 0.12780 0.02500
C 	C 	0.99620 0.17620 0.47030 0.01300
C 	C 	0.69270 0.33860 0.12460 -0.10200
C 	C 	0.33940 0.48010 0.65840 -0.09900
C 	C 	0.23720 0.86190 0.61810 -0.10600
C 	C 	0.99270 0.17480 0.42370 -0.01500
C 	C 	0.12840 0.26410 0.67740 0.42400
C 	C 	0.72450 0.94270 0.10510 -0.11200
C 	C 	0.19220 0.34520 0.64660 -0.01600
C 	C 	0.00090 0.22410 0.39840 -0.07200
C 	C 	0.32840 0.44710 0.69420 -0.03500
C 	C 	0.91320 0.17460 0.84840 0.03100
C 	C 	0.00130 0.22030 0.35390 -0.00100
C 	C 	0.99200 0.12880 0.49240 -0.14900
C 	C 	0.29970 0.47020 0.61950 0.02200
C 	C 	0.67890 0.81240 0.16400 -0.05100
C 	C 	0.25250 0.42740 0.61560 -0.09500
C 	C 	0.62910 0.76360 0.16070 0.29100
C 	C 	0.99570 0.13130 0.54220 0.42900
C 	C 	0.14330 0.05190 0.66560 0.39600
C 	C 	0.85510 0.25410 0.15810 0.40300
C 	C 	0.98930 0.16340 0.28040 0.37400
C 	C 	0.00950 0.14990 0.04330 0.40300
C 	C 	0.86540 0.04450 0.15170 0.39300
C 	C 	0.28610 0.82040 0.62160 0.03200
O 	O 	0.43620 0.64230 0.56460 -0.49300
O 	O 	0.56820 0.66440 0.25690 -0.51000
O 	O 	0.35180 0.59460 0.19200 -0.50400
O 	O 	0.50940 0.70990 0.76110 -0.50200
O 	O 	0.59800 0.76000 0.68740 -0.50300
O 	O 	0.93170 0.03020 0.63960 -0.50600
O 	O 	0.36400 0.72630 0.20540 -0.50500
O 	O 	0.45260 0.64840 0.26230 -0.50400
O 	O 	0.49520 0.58480 0.06020 -0.50500
O 	O 	0.06080 0.28250 0.18820 -0.51000
O 	O 	0.06580 0.03030 0.19610 -0.49500
O 	O 	0.91910 0.26430 0.62980 -0.47100
O 	O 	0.85050 0.22000 0.68460 -0.46500
O 	O 	0.86200 0.08500 0.68490 -0.50400
O 	O 	0.51010 0.67770 0.06250 -0.55900
O 	O 	0.59590 0.54810 0.68570 -0.50000
O 	O 	0.41360 0.76140 0.14630 -0.56500
O 	O 	0.50020 0.65320 0.66050 -0.95300
O 	O 	0.49790 0.65590 0.15880 -0.95900
O 	O 	0.51350 0.61470 0.76150 -0.50500
O 	O 	0.63590 0.57990 0.62200 -0.49500
O 	O 	0.65040 0.71190 0.63130 -0.49200
O 	O 	0.40550 0.54310 0.13740 -0.50700
O 	O 	0.55420 0.65740 0.55800 -0.48800
O 	O 	0.10690 0.23790 0.12910 -0.52600
O 	O 	0.10910 0.06230 0.13350 -0.51700
O 	O 	0.06380 0.14230 0.06460 -0.49300
O 	O 	0.93180 0.16440 0.75690 -0.51000
O 	O 	0.14820 0.09460 0.69200 -0.50400
O 	O 	0.99060 0.20990 0.26110 -0.50200
O 	O 	0.90200 0.26000 0.18740 -0.50300
O 	O 	0.56830 0.53020 0.13960 -0.50600
O 	O 	0.13600 0.22630 0.70540 -0.50500
O 	O 	0.04740 0.14840 0.76230 -0.50400
O 	O 	0.00480 0.08480 0.56020 -0.50500
O 	O 	0.43920 0.78250 0.68820 -0.51000
O 	O 	0.43420 0.53030 0.69610 -0.49600
O 	O 	0.58090 0.76430 0.12980 -0.47100
O 	O 	0.64950 0.72000 0.18460 -0.46500
O 	O 	0.63800 0.58500 0.18490 -0.50400
O 	O 	0.98990 0.17770 0.56250 -0.55900
O 	O 	0.90410 0.04810 0.18570 -0.50000
O 	O 	0.08640 0.26140 0.64630 -0.56400
O 	O 	0.99980 0.15320 0.16050 -0.95300
O 	O 	0.00210 0.15590 0.65880 -0.95900
O 	O 	0.98650 0.11470 0.26150 -0.50500
O 	O 	0.86410 0.07990 0.12200 -0.49500
O 	O 	0.84960 0.21190 0.13130 -0.49200
O 	O 	0.09450 0.04310 0.63740 -0.50700
O 	O 	0.94580 0.15740 0.05800 -0.48800
O 	O 	0.39310 0.73790 0.62910 -0.52700
O 	O 	0.39090 0.56230 0.63350 -0.51700
Zn	Zn	0.07939 0.85006 0.88014 1.21500
Zn	Zn	0.92000 0.84251 0.29906 1.21100
Zn	Zn	0.00587 0.91041 0.80133 1.20700
Zn	Zn	0.00557 0.77807 0.80240 1.21000
Zn	Zn	0.50794 0.28041 0.88111 1.21000
Zn	Zn	0.50607 0.41528 0.87587 1.21000
Zn	Zn	0.08686 0.84231 0.30790 1.20900
Zn	Zn	0.90242 0.85000 0.86958 1.17900
Zn	Zn	0.42061 0.35006 0.38014 1.21500
Zn	Zn	0.58000 0.34251 0.79906 1.21100
Zn	Zn	0.49413 0.41041 0.30133 1.20700
Zn	Zn	0.49443 0.27807 0.30240 1.21000
Zn	Zn	0.99206 0.78041 0.38111 1.21000
Zn	Zn	0.99393 0.91528 0.37587 1.21000
Zn	Zn	0.41314 0.34231 0.80790 1.20900
Zn	Zn	0.59758 0.35000 0.36958 1.17900
H 	H 	0.02130 0.91600 0.66220 0.07000
H 	H 	0.38050 0.56390 0.87360 0.06300
H 	H 	0.08510 0.83040 0.01960 0.05800
H 	H 	0.15410 0.04090 0.79670 0.05900
H 	H 	0.86300 0.87210 0.08440 0.06900
H 	H 	0.60970 0.11870 0.30290 0.05100
H 	H 	0.91830 0.86000 0.15960 0.05700
H 	H 	0.13890 0.81560 0.09350 0.06500
H 	H 	0.14530 0.64420 0.80330 0.05200
H 	H 	0.27210 0.20800 0.77820 0.05200
H 	H 	0.20040 0.13120 0.76980 0.06100
H 	H 	0.84310 0.04580 0.37910 0.05800
H 	H 	0.71230 0.62400 0.24680 0.06500
H 	H 	0.35850 0.14850 0.88850 0.06200
H 	H 	0.79110 0.70060 0.25440 0.03800
H 	H 	0.02850 0.96350 0.59040 0.08500
H 	H 	0.65290 0.02140 0.28030 0.06200
H 	H 	0.73680 0.95210 0.28460 0.03700
H 	H 	0.23110 0.98480 0.91100 0.03100
H 	H 	0.17640 0.54320 0.78630 0.05900
H 	H 	0.87470 0.86600 0.00900 0.03000
H 	H 	0.25330 0.46810 0.79260 0.03800
H 	H 	0.26810 0.73950 0.88800 0.03300
H 	H 	0.99850 0.78900 0.51390 0.02900
H 	H 	0.34840 0.66690 0.89270 0.06900
H 	H 	0.80240 0.14390 0.40040 0.07000
H 	H 	0.30470 0.06150 0.91990 0.06500
H 	H 	0.83090 0.66310 0.38040 0.03900
H 	H 	0.99400 0.74050 0.58670 0.05100
H 	H 	0.64570 0.54630 0.27970 0.06000
H 	H 	0.12590 0.81700 0.16930 0.03800
H 	H 	0.99080 0.74730 0.66150 0.04000
H 	H 	0.69400 0.50640 0.40400 0.02800
H 	H 	0.77220 0.57940 0.41090 0.05900
H 	H 	0.71900 0.21330 0.39560 0.01900
H 	H 	0.47870 0.41600 0.16220 0.07000
H 	H 	0.11950 0.06390 0.37360 0.06300
H 	H 	0.41490 0.33040 0.51960 0.05800
H 	H 	0.34590 0.54090 0.29670 0.05900
H 	H 	0.63700 0.37210 0.58440 0.06900
H 	H 	0.89030 0.61870 0.80290 0.05100
H 	H 	0.58170 0.36000 0.65960 0.05700
H 	H 	0.36110 0.31560 0.59350 0.06500
H 	H 	0.35470 0.14420 0.30330 0.05200
H 	H 	0.22790 0.70800 0.27820 0.05200
H 	H 	0.29960 0.63120 0.26980 0.06100
H 	H 	0.65690 0.54580 0.87910 0.05800
H 	H 	0.78770 0.12400 0.74680 0.06500
H 	H 	0.14150 0.64850 0.38850 0.06200
H 	H 	0.70890 0.20060 0.75440 0.03800
H 	H 	0.47150 0.46350 0.09040 0.08600
H 	H 	0.84710 0.52140 0.78030 0.06300
H 	H 	0.76320 0.45210 0.78460 0.03700
H 	H 	0.26890 0.48480 0.41100 0.03100
H 	H 	0.32360 0.04320 0.28630 0.05900
H 	H 	0.62530 0.36600 0.50900 0.03000
H 	H 	0.24670 0.96810 0.29260 0.03800
H 	H 	0.23190 0.23950 0.38800 0.03300
H 	H 	0.50150 0.28900 0.01390 0.02900
H 	H 	0.15160 0.16690 0.39270 0.06900
H 	H 	0.69760 0.64390 0.90040 0.07000
H 	H 	0.19530 0.56150 0.41990 0.06500
H 	H 	0.66910 0.16310 0.88040 0.03800
H 	H 	0.50600 0.24050 0.08670 0.05000
H 	H 	0.85430 0.04630 0.77970 0.06000
H 	H 	0.37410 0.31700 0.66930 0.03800
H 	H 	0.50920 0.24730 0.16150 0.04000
H 	H 	0.80600 0.00640 0.90400 0.02800
H 	H 	0.72780 0.07940 0.91090 0.05900
H 	H 	0.78100 0.71330 0.89560 0.01900
C 	C 	0.01350 0.84250 0.22090 0.41800
C 	C 	0.01560 0.87800 0.59990 0.05700
C 	C 	0.01650 0.88090 0.64680 -0.05800
C 	C 	0.96690 0.84970 0.09980 0.02400
C 	C 	0.01970 0.83930 0.17220 -0.11100
C 	C 	0.29490 0.60730 0.85260 0.03000
C 	C 	0.34030 0.56050 0.85540 -0.04000
C 	C 	0.98190 0.84900 0.00640 -0.09500
C 	C 	0.69460 0.07760 0.32760 0.01600
C 	C 	0.19740 0.69830 0.84510 -0.10500
C 	C 	0.18460 0.00520 0.85370 -0.10200
C 	C 	0.04060 0.83760 0.03280 -0.03200
C 	C 	0.23130 0.09240 0.82550 0.01200
C 	C 	0.03330 0.83700 0.07940 0.02700
C 	C 	0.18460 0.04530 0.82110 -0.02800
C 	C 	0.90710 0.86240 0.07170 -0.09600
C 	C 	0.64700 0.12280 0.32340 -0.01600
C 	C 	0.96200 0.85100 0.14610 -0.02200
C 	C 	0.27800 0.09820 0.86260 0.03900
C 	C 	0.09470 0.82430 0.10660 -0.09400
C 	C 	0.18480 0.64770 0.82220 -0.02800
C 	C 	0.37890 0.46160 0.83640 0.38600
C 	C 	0.27350 0.18060 0.79910 -0.01000
C 	C 	0.01850 0.92420 0.53070 0.09600
C 	C 	0.23090 0.13500 0.79420 -0.07200
C 	C 	0.23050 0.60020 0.82660 0.01600
C 	C 	0.80530 0.04140 0.35900 -0.03400
C 	C 	0.73610 0.63190 0.27360 -0.09500
C 	C 	0.65330 0.17260 0.34820 -0.11800
C 	C 	0.81930 0.68730 0.31910 -0.11500
C 	C 	0.32470 0.14560 0.86570 -0.06100
C 	C 	0.32810 0.51110 0.83280 -0.08500
C 	C 	0.78320 0.67740 0.27780 0.02500
C 	C 	0.80070 0.99300 0.33210 -0.09500
C 	C 	0.02200 0.92830 0.57550 -0.14400
C 	C 	0.75380 0.08470 0.35700 0.03300
C 	C 	0.72400 0.59760 0.30980 0.03100
C 	C 	0.01030 0.83260 0.67020 -0.08000
C 	C 	0.60330 0.22110 0.34390 0.41000
C 	C 	0.69080 0.02660 0.30020 -0.08800
C 	C 	0.74100 0.98540 0.30240 0.01900
C 	C 	0.23080 0.01200 0.88980 0.03200
C 	C 	0.76020 0.60760 0.34870 0.01300
C 	C 	0.21730 0.54770 0.80390 -0.08900
C 	C 	0.91460 0.86010 0.02670 0.02600
C 	C 	0.60760 0.47230 0.33700 0.37900
C 	C 	0.26340 0.50310 0.80700 0.00800
C 	C 	0.25970 0.70510 0.87220 0.02500
C 	C 	0.00380 0.82380 0.52970 0.01300
C 	C 	0.30730 0.66140 0.87540 -0.10200
C 	C 	0.66060 0.51990 0.34160 -0.09900
C 	C 	0.76280 0.13810 0.38190 -0.10600
C 	C 	0.00730 0.82520 0.57630 -0.01500
C 	C 	0.87160 0.73590 0.32260 0.42400
C 	C 	0.27550 0.05730 0.89490 -0.11200
C 	C 	0.80780 0.65480 0.35340 -0.01600
C 	C 	0.99910 0.77590 0.60160 -0.07200
C 	C 	0.67160 0.55290 0.30580 -0.03500
C 	C 	0.08680 0.82540 0.15160 0.03100
C 	C 	0.99870 0.77970 0.64610 -0.00100
C 	C 	0.00800 0.87120 0.50760 -0.14900
C 	C 	0.70030 0.52980 0.38050 0.02200
C 	C 	0.32110 0.18760 0.83600 -0.05100
C 	C 	0.74750 0.57260 0.38440 -0.09500
C 	C 	0.37090 0.23640 0.83930 0.29100
C 	C 	0.00430 0.86870 0.45780 0.42900
C 	C 	0.85670 0.94810 0.33440 0.39600
C 	C 	0.14490 0.74590 0.84190 0.40300
C 	C 	0.01070 0.83660 0.71960 0.37400
C 	C 	0.99050 0.85010 0.95670 0.40300
C 	C 	0.13460 0.95550 0.84830 0.39300
C 	C 	0.71390 0.17960 0.37840 0.03200
C 	C 	0.48650 0.34250 0.72090 0.41800
C 	C 	0.48440 0.37800 0.09990 0.05700
C 	C 	0.48350 0.38090 0.14680 -0.05800
C 	C 	0.53310 0.34970 0.59980 0.02400
C 	C 	0.48030 0.33930 0.67220 -0.11200
C 	C 	0.20510 0.10730 0.35260 0.03000
C 	C 	0.15970 0.06050 0.35540 -0.04000
C 	C 	0.51810 0.34900 0.50640 -0.09500
C 	C 	0.80540 0.57760 0.82760 0.01600
C 	C 	0.30260 0.19830 0.34510 -0.10500
C 	C 	0.31540 0.50520 0.35370 -0.10200
C 	C 	0.45940 0.33760 0.53280 -0.03200
C 	C 	0.26870 0.59240 0.32550 0.01200
C 	C 	0.46670 0.33700 0.57940 0.02700
C 	C 	0.31540 0.54530 0.32110 -0.02800
C 	C 	0.59290 0.36240 0.57170 -0.09600
C 	C 	0.85300 0.62280 0.82340 -0.01600
C 	C 	0.53800 0.35100 0.64610 -0.02200
C 	C 	0.22200 0.59820 0.36260 0.03900
C 	C 	0.40530 0.32430 0.60660 -0.09500
C 	C 	0.31520 0.14770 0.32220 -0.02800
C 	C 	0.12110 0.96160 0.33640 0.38600
C 	C 	0.22650 0.68060 0.29910 -0.01000
C 	C 	0.48150 0.42420 0.03070 0.09700
C 	C 	0.26910 0.63500 0.29420 -0.07200
C 	C 	0.26950 0.10020 0.32660 0.01600
C 	C 	0.69470 0.54140 0.85900 -0.03400
C 	C 	0.76390 0.13190 0.77360 -0.09500
C 	C 	0.84670 0.67260 0.84820 -0.11800
C 	C 	0.68070 0.18730 0.81910 -0.11500
C 	C 	0.17530 0.64560 0.36570 -0.06100
C 	C 	0.17190 0.01110 0.33280 -0.08500
C 	C 	0.71680 0.17740 0.77780 0.02500
C 	C 	0.69930 0.49300 0.83210 -0.09500
C 	C 	0.47800 0.42830 0.07550 -0.14500
C 	C 	0.74620 0.58470 0.85700 0.03300
C 	C 	0.77600 0.09760 0.80980 0.03100
C 	C 	0.48970 0.33260 0.17020 -0.08000
C 	C 	0.89670 0.72110 0.84390 0.41000
C 	C 	0.80920 0.52660 0.80020 -0.08800
C 	C 	0.75900 0.48540 0.80240 0.01900
C 	C 	0.26920 0.51200 0.38980 0.03200
C 	C 	0.73980 0.10760 0.84870 0.01300
C 	C 	0.28270 0.04770 0.30390 -0.08800
C 	C 	0.58540 0.36010 0.52670 0.02600
C 	C 	0.89240 0.97230 0.83700 0.37900
C 	C 	0.23660 0.00310 0.30700 0.00800
C 	C 	0.24030 0.20510 0.37220 0.02500
C 	C 	0.49620 0.32380 0.02970 0.01300
C 	C 	0.19270 0.16140 0.37540 -0.10200
C 	C 	0.83940 0.01990 0.84160 -0.09900
C 	C 	0.73720 0.63810 0.88190 -0.10500
C 	C 	0.49270 0.32520 0.07630 -0.01500
C 	C 	0.62840 0.23590 0.82260 0.42400
C 	C 	0.22450 0.55730 0.39490 -0.11100
C 	C 	0.69220 0.15480 0.85340 -0.01600
C 	C 	0.50090 0.27590 0.10160 -0.07200
C 	C 	0.82840 0.05290 0.80580 -0.03500
C 	C 	0.41320 0.32540 0.65160 0.03100
C 	C 	0.50130 0.27970 0.14610 -0.00100
C 	C 	0.49200 0.37120 0.00760 -0.15000
C 	C 	0.79970 0.02980 0.88050 0.02200
C 	C 	0.17890 0.68760 0.33600 -0.05100
C 	C 	0.75250 0.07260 0.88440 -0.09500
C 	C 	0.12910 0.73640 0.33930 0.29200
C 	C 	0.49570 0.36870 0.95780 0.43000
C 	C 	0.64330 0.44810 0.83440 0.39600
C 	C 	0.35510 0.24590 0.34190 0.40300
C 	C 	0.48930 0.33660 0.21960 0.37400
C 	C 	0.50950 0.35010 0.45670 0.40300
C 	C 	0.36540 0.45550 0.34830 0.39300
C 	C 	0.78610 0.67960 0.87840 0.03200
O 	O 	0.93620 0.85770 0.93540 -0.49300
O 	O 	0.06820 0.83560 0.24310 -0.51000
O 	O 	0.85180 0.90540 0.30800 -0.50400
O 	O 	0.00940 0.79010 0.73890 -0.50200
O 	O 	0.09800 0.74000 0.81260 -0.50300
O 	O 	0.43170 0.46980 0.86040 -0.50600
O 	O 	0.86400 0.77370 0.29460 -0.50500
O 	O 	0.95260 0.85160 0.23770 -0.50400
O 	O 	0.99520 0.91520 0.43980 -0.50500
O 	O 	0.56080 0.21750 0.31180 -0.51000
O 	O 	0.56580 0.46970 0.30390 -0.49600
O 	O 	0.41910 0.23570 0.87020 -0.47100
O 	O 	0.35050 0.28000 0.81540 -0.46500
O 	O 	0.36200 0.41500 0.81510 -0.50400
O 	O 	0.01010 0.82230 0.43750 -0.55900
O 	O 	0.09590 0.95190 0.81430 -0.50000
O 	O 	0.91360 0.73860 0.35370 -0.56400
O 	O 	0.00020 0.84680 0.83950 -0.95300
O 	O 	0.99790 0.84410 0.34120 -0.95900
O 	O 	0.01350 0.88530 0.73850 -0.50500
O 	O 	0.13590 0.92010 0.87800 -0.49500
O 	O 	0.15040 0.78810 0.86870 -0.49200
O 	O 	0.90550 0.95690 0.36260 -0.50700
O 	O 	0.05420 0.84260 0.94200 -0.48800
O 	O 	0.60690 0.26210 0.37090 -0.52700
O 	O 	0.60910 0.43770 0.36650 -0.51700
O 	O 	0.56380 0.35770 0.43540 -0.49300
O 	O 	0.43180 0.33560 0.74310 -0.51000
O 	O 	0.64820 0.40540 0.80800 -0.50400
O 	O 	0.49060 0.29010 0.23890 -0.50200
O 	O 	0.40200 0.24000 0.31260 -0.50300
O 	O 	0.06830 0.96980 0.36040 -0.50600
O 	O 	0.63600 0.27370 0.79460 -0.50500
O 	O 	0.54740 0.35160 0.73770 -0.50400
O 	O 	0.50480 0.41520 0.93980 -0.50500
O 	O 	0.93920 0.71750 0.81180 -0.51000
O 	O 	0.93420 0.96970 0.80390 -0.49500
O 	O 	0.08090 0.73570 0.37020 -0.47100
O 	O 	0.14950 0.78000 0.31540 -0.46500
O 	O 	0.13800 0.91500 0.31510 -0.50400
O 	O 	0.48990 0.32230 0.93750 -0.55900
O 	O 	0.40410 0.45190 0.31430 -0.50000
O 	O 	0.58640 0.23860 0.85370 -0.56500
O 	O 	0.49980 0.34680 0.33950 -0.95300
O 	O 	0.50210 0.34410 0.84120 -0.95900
O 	O 	0.48650 0.38530 0.23850 -0.50500
O 	O 	0.36410 0.42010 0.37800 -0.49500
O 	O 	0.34960 0.28810 0.36870 -0.49200
O 	O 	0.59450 0.45690 0.86260 -0.50700
O 	O 	0.44580 0.34260 0.44200 -0.48800
O 	O 	0.89310 0.76210 0.87090 -0.52600
O 	O 	0.89090 0.93770 0.86650 -0.51700
