data_crystal

_cell_length_a 17.30430
_cell_length_b 18.37700
_cell_length_c 17.95650
_cell_angle_alpha 90.00000
_cell_angle_beta  90.00000
_cell_angle_gamma 90.00000

_symmetry_space_group_name_	'P 1'
_symmetry_space_group_name_H-M	'P 1'

loop_
_symmetry_equiv_pos_as_xyz
  x,y,z

loop_
_atom_site_label
_atom_site_type_symbol
_atom_site_fract_x
_atom_site_fract_y
_atom_site_fract_z
_atom_site_charge
Zn	Zn	0.82343 0.68187 0.05543 1.24000
Zn	Zn	0.70347 0.18217 0.38723 1.23900
Zn	Zn	0.82335 0.68180 0.88725 1.23900
Zn	Zn	0.70327 0.18165 0.55539 1.23900
Zn	Zn	0.69809 0.60007 0.97216 1.24000
Zn	Zn	0.69856 0.76411 0.97082 1.24000
Zn	Zn	0.82864 0.10012 0.47186 1.24000
Zn	Zn	0.82835 0.26413 0.47115 1.24000
H 	H 	0.31684 0.57975 0.02863 0.05400
H 	H 	0.87022 0.52205 0.21730 0.04300
H 	H 	0.65253 0.44143 0.13476 0.04400
H 	H 	0.65551 0.34344 0.22693 0.04200
H 	H 	0.87207 0.42547 0.31123 0.04200
H 	H 	0.06333 0.72050 0.85820 0.03300
H 	H 	0.20487 0.72276 0.85930 0.05100
H 	H 	0.20455 0.64265 0.08495 0.04900
H 	H 	0.06769 0.08310 0.53590 0.03400
H 	H 	0.67413 0.03687 0.20977 0.04100
H 	H 	0.85675 0.92445 0.32606 0.04000
H 	H 	0.85450 0.82827 0.23199 0.04400
H 	H 	0.67210 0.94076 0.11555 0.04400
H 	H 	0.46349 0.15353 0.58792 0.03500
H 	H 	0.06828 0.28146 0.40785 0.03200
H 	H 	0.21023 0.28042 0.40687 0.04900
H 	H 	0.45851 0.57857 0.02680 0.03400
H 	H 	0.85412 0.53523 0.71152 0.04200
H 	H 	0.67139 0.42283 0.82770 0.04000
H 	H 	0.67358 0.32671 0.73349 0.04300
H 	H 	0.85607 0.43926 0.61722 0.04400
H 	H 	0.06289 0.64232 0.08459 0.03400
H 	H 	0.45860 0.78679 0.91627 0.03300
H 	H 	0.31675 0.78665 0.91600 0.04800
H 	H 	0.20964 0.08353 0.53680 0.05300
H 	H 	0.65769 0.02284 0.71844 0.04300
H 	H 	0.87200 0.93860 0.63156 0.04600
H 	H 	0.86903 0.84054 0.72368 0.04100
H 	H 	0.65591 0.92617 0.81220 0.04200
H 	H 	0.46302 0.20703 0.35406 0.03400
H 	H 	0.32132 0.20771 0.35457 0.05000
H 	H 	0.32181 0.15326 0.58804 0.04900
C 	C 	0.76502 0.31693 0.33495 0.38600
C 	C 	0.34693 0.62544 0.00427 -0.06800
C 	C 	0.76402 0.37607 0.27698 -0.09600
C 	C 	0.76163 0.48945 0.16741 -0.09400
C 	C 	0.76097 0.54809 0.10893 0.38800
C 	C 	0.82272 0.48371 0.21895 -0.00300
C 	C 	0.70140 0.43802 0.17214 -0.00300
C 	C 	0.70284 0.38196 0.22557 -0.00400
C 	C 	0.82381 0.42807 0.27292 -0.00300
C 	C 	0.09327 0.70341 0.90818 0.02500
C 	C 	0.17481 0.70497 0.90891 -0.06600
C 	C 	0.17462 0.65964 0.03492 -0.06700
C 	C 	0.76184 0.81693 0.10744 0.38400
C 	C 	0.09795 0.12675 0.50784 0.02700
C 	C 	0.76296 0.87604 0.16571 -0.09200
C 	C 	0.76543 0.98891 0.27625 -0.09600
C 	C 	0.76619 0.04782 0.33467 0.38400
C 	C 	0.71389 0.99171 0.21548 -0.00300
C 	C 	0.81588 0.92875 0.28062 -0.00400
C 	C 	0.81462 0.87333 0.22639 -0.00500
C 	C 	0.71269 0.93631 0.16121 -0.00600
C 	C 	0.43339 0.16544 0.53644 0.02500
C 	C 	0.09833 0.23785 0.43628 0.02600
C 	C 	0.17991 0.23707 0.43542 -0.06600
C 	C 	0.76554 0.31606 0.60835 0.38400
C 	C 	0.42846 0.62454 0.00269 0.02700
C 	C 	0.76490 0.37472 0.66709 -0.09200
C 	C 	0.76251 0.48745 0.77773 -0.09600
C 	C 	0.76135 0.54673 0.83575 0.38400
C 	C 	0.81424 0.49014 0.71712 -0.00400
C 	C 	0.71215 0.42722 0.78218 -0.00500
C 	C 	0.71339 0.37184 0.72789 -0.00500
C 	C 	0.81540 0.43482 0.66281 -0.00500
C 	C 	0.09306 0.65980 0.03484 0.02200
C 	C 	0.42846 0.74110 0.94093 0.02600
C 	C 	0.34687 0.74089 0.94053 -0.06800
C 	C 	0.76143 0.81602 0.83405 0.38600
C 	C 	0.17952 0.12715 0.50873 -0.06600
C 	C 	0.76218 0.87490 0.77578 -0.09700
C 	C 	0.76461 0.98852 0.66642 -0.09400
C 	C 	0.76538 0.04743 0.60818 0.38700
C 	C 	0.70444 0.98366 0.71905 -0.00400
C 	C 	0.82386 0.93599 0.66989 -0.00400
C 	C 	0.82234 0.87977 0.72317 -0.00300
C 	C 	0.70335 0.92794 0.77291 -0.00300
C 	C 	0.43315 0.19533 0.40567 0.02500
C 	C 	0.35156 0.19610 0.40601 -0.06700
C 	C 	0.35183 0.16493 0.53645 -0.06800
C 	C 	0.47070 0.68266 0.97155 -0.11500
C 	C 	0.96362 0.68147 0.97125 0.38500
C 	C 	0.55794 0.68241 0.97133 0.39000
C 	C 	0.30456 0.68320 0.97253 0.02400
C 	C 	0.05089 0.68140 0.97136 -0.11000
C 	C 	0.21705 0.68272 0.97216 0.02500
C 	C 	0.05596 0.18234 0.47193 -0.11600
C 	C 	0.56301 0.18117 0.47108 0.39000
C 	C 	0.96881 0.18230 0.47162 0.39000
C 	C 	0.22199 0.18181 0.47189 0.02400
C 	C 	0.47563 0.18059 0.47104 -0.11400
C 	C 	0.30942 0.18096 0.47144 0.02300
O 	O 	0.71483 0.54304 0.05380 -0.51900
O 	O 	0.81112 0.32184 0.39015 -0.51700
O 	O 	0.80690 0.60218 0.11443 -0.51500
O 	O 	0.71955 0.26252 0.32890 -0.51700
O 	O 	0.92679 0.68091 0.03285 -0.51200
O 	O 	0.81201 0.04274 0.39016 -0.51900
O 	O 	0.71584 0.82196 0.05205 -0.51300
O 	O 	0.72063 0.10221 0.32863 -0.51600
O 	O 	0.80713 0.76234 0.11359 -0.51300
O 	O 	0.59992 0.18187 0.40952 -0.51500
O 	O 	0.71526 0.54196 0.89108 -0.51900
O 	O 	0.81140 0.32137 0.55288 -0.51400
O 	O 	0.80670 0.60124 0.82941 -0.51600
O 	O 	0.71996 0.26166 0.61411 -0.51400
O 	O 	0.92684 0.68226 0.90962 -0.51500
O 	O 	0.81156 0.04256 0.55305 -0.51900
O 	O 	0.71560 0.82127 0.88942 -0.51800
O 	O 	0.71960 0.10160 0.61394 -0.51500
O 	O 	0.80689 0.76159 0.82817 -0.51700
O 	O 	0.59982 0.18100 0.53273 -0.51500
O 	O 	0.76088 0.68196 0.97140 -1.00900
O 	O 	0.59455 0.62210 0.97271 -0.51600
O 	O 	0.59491 0.74253 0.97000 -0.51500
O 	O 	0.76591 0.18202 0.47140 -1.00800
O 	O 	0.93214 0.12204 0.47302 -0.51500
O 	O 	0.93199 0.24248 0.47009 -0.51400
Zn	Zn	0.17656 0.31789 0.11217 1.24000
Zn	Zn	0.29676 0.81827 0.44386 1.24000
Zn	Zn	0.17649 0.31810 0.94398 1.24000
Zn	Zn	0.29638 0.81785 0.61202 1.24000
Zn	Zn	0.30169 0.39997 0.02736 1.24000
Zn	Zn	0.30147 0.23591 0.02840 1.24000
Zn	Zn	0.17147 0.90004 0.52724 1.24000
Zn	Zn	0.17146 0.73603 0.52822 1.24000
H 	H 	0.68355 0.41993 0.97171 0.05500
H 	H 	0.14694 0.46360 0.28935 0.04200
H 	H 	0.32670 0.57781 0.17075 0.04000
H 	H 	0.32453 0.67406 0.26479 0.04300
H 	H 	0.14514 0.55969 0.38357 0.04400
H 	H 	0.93676 0.35446 0.91436 0.03400
H 	H 	0.93231 0.91661 0.46199 0.03400
H 	H 	0.34351 0.97790 0.28176 0.04300
H 	H 	0.12773 0.06064 0.36680 0.04600
H 	H 	0.13071 0.15862 0.27465 0.04100
H 	H 	0.34545 0.07467 0.18805 0.04200
H 	H 	0.53685 0.78723 0.64393 0.03300
H 	H 	0.93170 0.71963 0.59232 0.03200
H 	H 	0.78995 0.72059 0.59338 0.04900
H 	H 	0.54184 0.42176 0.97368 0.03400
H 	H 	0.12837 0.47933 0.78355 0.04300
H 	H 	0.34773 0.55801 0.86393 0.04400
H 	H 	0.34501 0.65570 0.77138 0.04200
H 	H 	0.12655 0.57583 0.68951 0.04200
H 	H 	0.93658 0.27973 0.14199 0.03400
H 	H 	0.79500 0.27745 0.14102 0.05100
H 	H 	0.79510 0.35467 0.91434 0.04900
H 	H 	0.54082 0.21285 0.08291 0.03300
H 	H 	0.68271 0.21259 0.08351 0.04800
H 	H 	0.79051 0.91638 0.46129 0.05300
H 	H 	0.32462 0.96239 0.79028 0.04100
H 	H 	0.14657 0.07802 0.67071 0.04000
H 	H 	0.14914 0.17431 0.76465 0.04400
H 	H 	0.32683 0.05850 0.88442 0.04400
H 	H 	0.53629 0.85185 0.41300 0.03400
H 	H 	0.67774 0.85268 0.41282 0.04800
H 	H 	0.67845 0.78742 0.64365 0.04900
C 	C 	0.23424 0.68388 0.39106 0.38400
C 	C 	0.65320 0.37426 0.99589 -0.06900
C 	C 	0.23478 0.62516 0.33242 -0.09200
C 	C 	0.23704 0.51228 0.22192 -0.09600
C 	C 	0.23820 0.45300 0.16387 0.38400
C 	C 	0.18615 0.50913 0.28317 -0.00400
C 	C 	0.28661 0.57303 0.21680 -0.00500
C 	C 	0.28539 0.62851 0.27098 -0.00500
C 	C 	0.18507 0.56454 0.33742 -0.00500
C 	C 	0.90668 0.33795 0.96448 0.02200
C 	C 	0.23890 0.18379 0.16516 0.38600
C 	C 	0.90203 0.87331 0.49064 0.02700
C 	C 	0.23825 0.12495 0.22340 -0.09700
C 	C 	0.23584 0.01146 0.33280 -0.09400
C 	C 	0.23493 0.95252 0.39097 0.38700
C 	C 	0.29647 0.01675 0.28070 -0.00400
C 	C 	0.17621 0.06358 0.32889 -0.00400
C 	C 	0.17770 0.11972 0.27557 -0.00300
C 	C 	0.29759 0.07246 0.22684 -0.00300
C 	C 	0.56674 0.80159 0.59300 0.02500
C 	C 	0.90167 0.76296 0.56345 0.02600
C 	C 	0.82011 0.76373 0.56437 -0.06600
C 	C 	0.23455 0.68324 0.66451 0.38600
C 	C 	0.57168 0.37551 0.99750 0.02700
C 	C 	0.23551 0.62415 0.72254 -0.09600
C 	C 	0.23784 0.51091 0.83232 -0.09400
C 	C 	0.23860 0.45221 0.89077 0.38800
C 	C 	0.17627 0.51718 0.78136 -0.00300
C 	C 	0.29854 0.56180 0.82696 -0.00300
C 	C 	0.29719 0.61775 0.77337 -0.00400
C 	C 	0.17519 0.57276 0.72732 -0.00300
C 	C 	0.90660 0.29617 0.09180 0.02500
C 	C 	0.82505 0.29466 0.09117 -0.06600
C 	C 	0.82512 0.33830 0.96454 -0.06700
C 	C 	0.57116 0.25861 0.05862 0.02600
C 	C 	0.65276 0.25853 0.05916 -0.06800
C 	C 	0.23878 0.18350 0.89140 0.38400
C 	C 	0.82049 0.87297 0.48990 -0.06500
C 	C 	0.23809 0.12471 0.83280 -0.09200
C 	C 	0.23536 0.01179 0.72231 -0.09600
C 	C 	0.23423 0.95261 0.66415 0.38400
C 	C 	0.28587 0.00823 0.78384 -0.00300
C 	C 	0.18640 0.07296 0.71692 -0.00500
C 	C 	0.18783 0.12843 0.77110 -0.00500
C 	C 	0.28718 0.06365 0.83808 -0.00600
C 	C 	0.56640 0.83760 0.46384 0.02500
C 	C 	0.64792 0.83840 0.46385 -0.06800
C 	C 	0.64834 0.80125 0.59268 -0.06600
C 	C 	0.52917 0.31738 0.02828 -0.11600
C 	C 	0.03626 0.31760 0.02830 0.38500
C 	C 	0.44193 0.31778 0.02827 0.39000
C 	C 	0.69531 0.31619 0.02740 0.02400
C 	C 	0.94895 0.31735 0.02825 -0.11000
C 	C 	0.78277 0.31626 0.02773 0.02500
C 	C 	0.94401 0.81814 0.52721 -0.11600
C 	C 	0.43689 0.81859 0.52826 0.39000
C 	C 	0.03116 0.81810 0.52754 0.39000
C 	C 	0.77797 0.81869 0.52741 0.02400
C 	C 	0.52425 0.81923 0.52839 -0.11400
C 	C 	0.69045 0.81956 0.52807 0.02400
O 	O 	0.28426 0.45788 0.10852 -0.51900
O 	O 	0.18838 0.67867 0.44655 -0.51400
O 	O 	0.19294 0.39842 0.17017 -0.51600
O 	O 	0.27992 0.73822 0.38521 -0.51300
O 	O 	0.07305 0.31702 0.08991 -0.51500
O 	O 	0.18865 0.95741 0.44601 -0.51900
O 	O 	0.28463 0.17858 0.10971 -0.51800
O 	O 	0.28070 0.89833 0.38527 -0.51500
O 	O 	0.19335 0.23813 0.17110 -0.51700
O 	O 	0.40018 0.81881 0.46656 -0.51500
O 	O 	0.28494 0.45712 0.94576 -0.51900
O 	O 	0.18843 0.67834 0.60932 -0.51700
O 	O 	0.19266 0.39812 0.88529 -0.51500
O 	O 	0.28007 0.73761 0.67050 -0.51700
O 	O 	0.07307 0.31839 0.96668 -0.51200
O 	O 	0.18839 0.95766 0.60866 -0.51900
O 	O 	0.28447 0.17823 0.94699 -0.51300
O 	O 	0.27948 0.89802 0.67041 -0.51600
O 	O 	0.19338 0.23802 0.88538 -0.51300
O 	O 	0.39992 0.81785 0.58977 -0.51600
O 	O 	0.23903 0.31798 0.02797 -1.00900
O 	O 	0.40533 0.37810 0.02698 -0.51600
O 	O 	0.40500 0.25767 0.02933 -0.51500
O 	O 	0.23405 0.81806 0.52784 -1.00900
O 	O 	0.06792 0.87831 0.52610 -0.51500
O 	O 	0.06788 0.75787 0.52915 -0.51400
