data_crystal

_cell_length_a 14.02000
_cell_length_b 15.08200
_cell_length_c 15.12100
_cell_angle_alpha 76.89200
_cell_angle_beta  86.55000
_cell_angle_gamma 83.44600

_symmetry_space_group_name_	'P 1'
_symmetry_space_group_name_H-M	'P 1'

loop_
_symmetry_equiv_pos_as_xyz
  x,y,z

loop_
_atom_site_label
_atom_site_type_symbol
_atom_site_fract_x
_atom_site_fract_y
_atom_site_fract_z
_atom_site_charge
Zn	Zn	0.89806 0.10985 0.82918 1.21600
Zn	Zn	0.68781 0.13016 0.83556 1.21700
H 	H 	0.21040 0.11720 0.96640 0.07800
H 	H 	0.23120 0.12410 0.69680 0.07600
H 	H 	0.35910 0.06380 0.96670 0.08200
H 	H 	0.93230 0.10230 0.11170 0.02400
H 	H 	0.93550 0.11020 0.26030 0.07700
H 	H 	0.64270 0.12580 0.12720 0.02700
H 	H 	0.04920 0.10510 0.96300 0.01200
H 	H 	0.06670 0.12250 0.69930 0.00500
H 	H 	0.65770 0.16830 0.54460 0.02200
H 	H 	0.93930 0.08090 0.54490 0.01300
H 	H 	0.64390 0.43050 0.81900 0.01600
H 	H 	0.93280 0.07190 0.39650 0.08100
H 	H 	0.65540 0.57840 0.82740 0.08500
H 	H 	0.94180 0.81180 0.84400 0.02000
H 	H 	0.65430 0.70270 0.82410 0.07700
H 	H 	0.65700 0.84950 0.84060 0.01800
H 	H 	0.52540 0.06670 0.96550 0.00300
H 	H 	0.93020 0.40030 0.78480 0.02300
H 	H 	0.36440 0.18780 0.70150 0.07600
H 	H 	0.53020 0.19110 0.70640 0.00500
C 	C 	0.34520 0.12310 0.83230 0.06100
C 	C 	0.24080 0.11970 0.83250 0.05300
C 	C 	0.18300 0.11600 0.91080 -0.11600
C 	C 	0.78610 0.11230 0.00420 0.40600
C 	C 	0.79970 0.12600 0.66080 0.41700
C 	C 	0.19500 0.12150 0.75230 -0.11700
C 	C 	0.39310 0.08890 0.91210 -0.12300
C 	C 	0.78080 0.29480 0.81000 0.41300
C 	C 	0.78800 0.11320 0.10280 -0.14200
C 	C 	0.87340 0.10820 0.14540 0.07500
C 	C 	0.87570 0.11150 0.23340 -0.13000
C 	C 	0.80050 0.84900 0.84160 -0.16900
C 	C 	0.70270 0.12050 0.15510 0.08400
C 	C 	0.79370 0.11980 0.38150 0.08900
C 	C 	0.78560 0.39300 0.80780 -0.16100
C 	C 	0.08680 0.11080 0.90810 0.07600
C 	C 	0.09720 0.11940 0.75450 0.07600
C 	C 	0.79120 0.11680 0.28460 0.07200
C 	C 	0.71490 0.14860 0.51450 0.10100
C 	C 	0.79910 0.12360 0.56240 -0.15800
C 	C 	0.88000 0.09700 0.51510 0.09300
C 	C 	0.80130 0.94400 0.85000 0.41200
C 	C 	0.70550 0.45170 0.81620 0.10000
C 	C 	0.87670 0.09330 0.42700 -0.14800
C 	C 	0.79680 0.66920 0.82320 0.07900
C 	C 	0.71230 0.53950 0.82040 -0.16000
C 	C 	0.88160 0.79040 0.83930 0.09900
C 	C 	0.71430 0.72510 0.82760 -0.13800
C 	C 	0.71610 0.81260 0.83710 0.08900
C 	C 	0.79600 0.57180 0.81490 0.10300
C 	C 	0.49220 0.09180 0.91110 0.07500
C 	C 	0.87190 0.43580 0.79550 0.10700
C 	C 	0.39630 0.16200 0.75660 -0.12100
C 	C 	0.49560 0.16390 0.75980 0.07400
N 	N 	0.54260 0.12870 0.83580 -0.24600
N 	N 	0.04320 0.11340 0.83080 -0.24500
N 	N 	0.70400 0.12010 0.24520 -0.11900
N 	N 	0.88060 0.70150 0.83050 -0.12200
N 	N 	0.71300 0.14530 0.42760 -0.12600
N 	N 	0.87550 0.52100 0.79800 -0.13200
O 	O 	0.70590 0.11370 0.97120 -0.46300
O 	O 	0.86570 0.10870 0.96200 -0.47300
O 	O 	0.72100 0.13990 0.70120 -0.47300
O 	O 	0.88010 0.11160 0.69680 -0.46600
O 	O 	0.88150 0.97340 0.85370 -0.45800
O 	O 	0.70150 0.26460 0.82070 -0.46600
O 	O 	0.86110 0.24720 0.80250 -0.46500
O 	O 	0.72250 0.99200 0.85030 -0.47000
Zn	Zn	0.10194 0.89015 0.17082 1.21600
Zn	Zn	0.31219 0.86984 0.16444 1.21700
H 	H 	0.78960 0.88280 0.03360 0.07800
H 	H 	0.76880 0.87590 0.30320 0.07600
H 	H 	0.64090 0.93620 0.03330 0.08200
H 	H 	0.06770 0.89770 0.88830 0.02400
H 	H 	0.06450 0.88980 0.73970 0.07700
H 	H 	0.35730 0.87420 0.87280 0.02700
H 	H 	0.95080 0.89490 0.03700 0.01200
H 	H 	0.93330 0.87750 0.30070 0.00500
H 	H 	0.34230 0.83170 0.45540 0.02200
H 	H 	0.06070 0.91910 0.45510 0.01300
H 	H 	0.35610 0.56950 0.18100 0.01600
H 	H 	0.06720 0.92810 0.60350 0.08100
H 	H 	0.34460 0.42160 0.17260 0.08500
H 	H 	0.05820 0.18820 0.15600 0.02000
H 	H 	0.34570 0.29730 0.17590 0.07700
H 	H 	0.34300 0.15050 0.15940 0.01800
H 	H 	0.47460 0.93330 0.03450 0.00300
H 	H 	0.06980 0.59970 0.21520 0.02300
H 	H 	0.63560 0.81220 0.29850 0.07600
H 	H 	0.46980 0.80890 0.29360 0.00500
C 	C 	0.65480 0.87690 0.16770 0.06100
C 	C 	0.75920 0.88030 0.16750 0.05300
C 	C 	0.81700 0.88400 0.08920 -0.11600
C 	C 	0.21390 0.88770 0.99580 0.40600
C 	C 	0.20030 0.87400 0.33920 0.41700
C 	C 	0.80500 0.87850 0.24770 -0.11700
C 	C 	0.60690 0.91110 0.08790 -0.12300
C 	C 	0.21920 0.70520 0.19000 0.41300
C 	C 	0.21200 0.88680 0.89720 -0.14200
C 	C 	0.12660 0.89180 0.85460 0.07500
C 	C 	0.12430 0.88850 0.76660 -0.13000
C 	C 	0.19950 0.15100 0.15840 -0.16900
C 	C 	0.29730 0.87950 0.84490 0.08400
C 	C 	0.20630 0.88020 0.61850 0.08900
C 	C 	0.21440 0.60700 0.19220 -0.16100
C 	C 	0.91320 0.88920 0.09190 0.07600
C 	C 	0.90280 0.88060 0.24550 0.07600
C 	C 	0.20880 0.88320 0.71540 0.07200
C 	C 	0.28510 0.85140 0.48550 0.10100
C 	C 	0.20090 0.87640 0.43760 -0.15800
C 	C 	0.12000 0.90300 0.48490 0.09300
C 	C 	0.19870 0.05600 0.15000 0.41200
C 	C 	0.29450 0.54830 0.18380 0.10000
C 	C 	0.12330 0.90670 0.57300 -0.14800
C 	C 	0.20320 0.33080 0.17680 0.07900
C 	C 	0.28770 0.46050 0.17960 -0.16000
C 	C 	0.11840 0.20960 0.16070 0.09900
C 	C 	0.28570 0.27490 0.17240 -0.13800
C 	C 	0.28390 0.18740 0.16290 0.08900
C 	C 	0.20400 0.42820 0.18510 0.10300
C 	C 	0.50780 0.90820 0.08890 0.07500
C 	C 	0.12810 0.56420 0.20450 0.10700
C 	C 	0.60370 0.83800 0.24340 -0.12100
C 	C 	0.50440 0.83610 0.24020 0.07400
N 	N 	0.45740 0.87130 0.16420 -0.24600
N 	N 	0.95680 0.88660 0.16920 -0.24500
N 	N 	0.29600 0.87990 0.75480 -0.11900
N 	N 	0.11940 0.29850 0.16950 -0.12200
N 	N 	0.28700 0.85470 0.57240 -0.12600
N 	N 	0.12450 0.47900 0.20200 -0.13200
O 	O 	0.29410 0.88630 0.02880 -0.46300
O 	O 	0.13430 0.89130 0.03800 -0.47300
O 	O 	0.27900 0.86010 0.29880 -0.47300
O 	O 	0.11990 0.88840 0.30320 -0.46600
O 	O 	0.11850 0.02660 0.14630 -0.45800
O 	O 	0.29850 0.73540 0.17930 -0.46600
O 	O 	0.13890 0.75280 0.19750 -0.46500
O 	O 	0.27750 0.00800 0.14970 -0.47000
