data_crystal

_cell_length_a 17.10310
_cell_length_b 17.10310
_cell_length_c 17.10310
_cell_angle_alpha 87.66670
_cell_angle_beta  87.66670
_cell_angle_gamma 87.66670

_symmetry_space_group_name_	'P 1'
_symmetry_space_group_name_H-M	'P 1'

loop_
_symmetry_equiv_pos_as_xyz
  x,y,z

loop_
_atom_site_label
_atom_site_type_symbol
_atom_site_fract_x
_atom_site_fract_y
_atom_site_fract_z
_atom_site_charge
Zn	Zn	0.88425 0.88428 0.75374 1.21100
Zn	Zn	0.75374 0.88425 0.88428 1.21100
Zn	Zn	0.88428 0.75374 0.88425 1.21100
Zn	Zn	0.75347 0.75347 0.75347 1.21200
H 	H 	0.90860 0.91400 0.50330 0.06500
H 	H 	0.76210 0.73170 0.38630 0.06200
H 	H 	0.77020 0.72900 0.52160 0.02700
H 	H 	0.99010 0.01430 0.34280 0.07200
H 	H 	0.94910 0.00070 0.42770 0.06600
H 	H 	0.01610 0.94010 0.39700 0.06700
H 	H 	0.71780 0.88410 0.13420 0.07400
H 	H 	0.92380 0.75160 0.25810 0.05900
H 	H 	0.91620 0.74950 0.12260 0.05300
H 	H 	0.60870 0.96300 0.28140 0.08900
H 	H 	0.66030 0.97220 0.20170 0.08800
H 	H 	0.61300 0.89430 0.22040 0.08300
H 	H 	0.50330 0.90860 0.91400 0.06400
H 	H 	0.38630 0.76210 0.73170 0.06100
H 	H 	0.52160 0.77020 0.72900 0.02600
H 	H 	0.34280 0.99010 0.01430 0.07100
H 	H 	0.42770 0.94910 0.00070 0.06600
H 	H 	0.39700 0.01610 0.94010 0.06700
H 	H 	0.13420 0.71780 0.88410 0.07400
H 	H 	0.25810 0.92380 0.75160 0.05900
H 	H 	0.12260 0.91620 0.74950 0.05300
H 	H 	0.28140 0.60870 0.96300 0.08900
H 	H 	0.20170 0.66030 0.97220 0.08800
H 	H 	0.22040 0.61300 0.89430 0.08300
H 	H 	0.91400 0.50330 0.90860 0.06400
H 	H 	0.73170 0.38630 0.76210 0.06100
H 	H 	0.72900 0.52160 0.77020 0.02600
H 	H 	0.01430 0.34280 0.99010 0.07100
H 	H 	0.00070 0.42770 0.94910 0.06600
H 	H 	0.94010 0.39700 0.01610 0.06700
H 	H 	0.88410 0.13420 0.71780 0.07400
H 	H 	0.75160 0.25810 0.92380 0.05900
H 	H 	0.74950 0.12260 0.91620 0.05300
H 	H 	0.96300 0.28140 0.60870 0.08900
H 	H 	0.97220 0.20170 0.66030 0.08800
H 	H 	0.89430 0.22040 0.61300 0.08300
C 	C 	0.84290 0.82050 0.61240 0.43300
C 	C 	0.83920 0.82140 0.52490 -0.10600
C 	C 	0.87890 0.87660 0.47920 -0.05800
C 	C 	0.87560 0.87720 0.39880 0.10300
C 	C 	0.83220 0.82220 0.36370 0.00800
C 	C 	0.79280 0.76860 0.40990 -0.07800
C 	C 	0.79690 0.76750 0.49030 0.02100
C 	C 	0.97200 0.97400 0.38200 -0.12300
C 	C 	0.81080 0.81950 0.02840 0.36400
C 	C 	0.81690 0.81900 0.11520 -0.06200
C 	C 	0.76060 0.85780 0.15910 -0.08400
C 	C 	0.76540 0.85950 0.23990 0.12800
C 	C 	0.82740 0.82180 0.27650 -0.01700
C 	C 	0.88240 0.77990 0.23280 -0.04900
C 	C 	0.87780 0.77840 0.15250 -0.01100
C 	C 	0.64250 0.93520 0.24330 -0.17100
C 	C 	0.61240 0.84290 0.82050 0.43300
C 	C 	0.52490 0.83920 0.82140 -0.10600
C 	C 	0.47920 0.87890 0.87660 -0.05800
C 	C 	0.39880 0.87560 0.87720 0.10300
C 	C 	0.36370 0.83220 0.82220 0.00800
C 	C 	0.40990 0.79280 0.76860 -0.07800
C 	C 	0.49030 0.79690 0.76750 0.02100
C 	C 	0.38200 0.97200 0.97400 -0.12300
C 	C 	0.02840 0.81080 0.81950 0.36400
C 	C 	0.11520 0.81690 0.81900 -0.06200
C 	C 	0.15910 0.76060 0.85780 -0.08400
C 	C 	0.23990 0.76540 0.85950 0.12800
C 	C 	0.27650 0.82740 0.82180 -0.01700
C 	C 	0.23280 0.88240 0.77990 -0.04900
C 	C 	0.15250 0.87780 0.77840 -0.01100
C 	C 	0.24330 0.64250 0.93520 -0.17100
C 	C 	0.82050 0.61240 0.84290 0.43300
C 	C 	0.82140 0.52490 0.83920 -0.10600
C 	C 	0.87660 0.47920 0.87890 -0.05800
C 	C 	0.87720 0.39880 0.87560 0.10300
C 	C 	0.82220 0.36370 0.83220 0.00800
C 	C 	0.76860 0.40990 0.79280 -0.07800
C 	C 	0.76750 0.49030 0.79690 0.02100
C 	C 	0.97400 0.38200 0.97200 -0.12300
C 	C 	0.81950 0.02840 0.81080 0.36400
C 	C 	0.81900 0.11520 0.81690 -0.06200
C 	C 	0.85780 0.15910 0.76060 -0.08400
C 	C 	0.85950 0.23990 0.76540 0.12800
C 	C 	0.82180 0.27650 0.82740 -0.01700
C 	C 	0.77990 0.23280 0.88240 -0.04900
C 	C 	0.77840 0.15250 0.87780 -0.01100
C 	C 	0.93520 0.24330 0.64250 -0.17100
O 	O 	0.81060 0.76930 0.65210 -0.54800
O 	O 	0.88100 0.87190 0.64110 -0.50200
O 	O 	0.91300 0.92900 0.34800 -0.17600
O 	O 	0.76510 0.86860 0.99470 -0.50300
O 	O 	0.85110 0.76680 0.99640 -0.49000
O 	O 	0.71030 0.89930 0.28220 -0.17500
O 	O 	0.65210 0.81060 0.76930 -0.54800
O 	O 	0.64110 0.88100 0.87190 -0.50200
O 	O 	0.34800 0.91300 0.92900 -0.17600
O 	O 	0.99470 0.76510 0.86860 -0.50300
O 	O 	0.99640 0.85110 0.76680 -0.49000
O 	O 	0.28220 0.71030 0.89930 -0.17500
O 	O 	0.76930 0.65210 0.81060 -0.54800
O 	O 	0.87190 0.64110 0.88100 -0.50200
O 	O 	0.92900 0.34800 0.91300 -0.17600
O 	O 	0.86860 0.99470 0.76510 -0.50300
O 	O 	0.76680 0.99640 0.85110 -0.49000
O 	O 	0.89930 0.28220 0.71030 -0.17500
O 	O 	0.81810 0.81810 0.81810 -0.96000
Zn	Zn	0.11575 0.11572 0.24626 1.21000
Zn	Zn	0.24626 0.11575 0.11572 1.21000
Zn	Zn	0.11572 0.24626 0.11575 1.21000
Zn	Zn	0.24653 0.24653 0.24653 1.21100
H 	H 	0.09140 0.08600 0.49670 0.06400
H 	H 	0.23790 0.26830 0.61370 0.06100
H 	H 	0.22980 0.27100 0.47840 0.02600
H 	H 	0.00990 0.98570 0.65720 0.07100
H 	H 	0.05090 0.99930 0.57230 0.06600
H 	H 	0.98390 0.05990 0.60300 0.06700
H 	H 	0.28220 0.11590 0.86580 0.07400
H 	H 	0.07620 0.24840 0.74190 0.05900
H 	H 	0.08380 0.25050 0.87740 0.05300
H 	H 	0.39130 0.03700 0.71860 0.08900
H 	H 	0.33970 0.02780 0.79830 0.08800
H 	H 	0.38700 0.10570 0.77960 0.08300
H 	H 	0.49670 0.09140 0.08600 0.06400
H 	H 	0.61370 0.23790 0.26830 0.06100
H 	H 	0.47840 0.22980 0.27100 0.02600
H 	H 	0.65720 0.00990 0.98570 0.07100
H 	H 	0.57230 0.05090 0.99930 0.06600
H 	H 	0.60300 0.98390 0.05990 0.06700
H 	H 	0.86580 0.28220 0.11590 0.07400
H 	H 	0.74190 0.07620 0.24840 0.05900
H 	H 	0.87740 0.08380 0.25050 0.05300
H 	H 	0.71860 0.39130 0.03700 0.08900
H 	H 	0.79830 0.33970 0.02780 0.08800
H 	H 	0.77960 0.38700 0.10570 0.08300
H 	H 	0.08600 0.49670 0.09140 0.06400
H 	H 	0.26830 0.61370 0.23790 0.06100
H 	H 	0.27100 0.47840 0.22980 0.02600
H 	H 	0.98570 0.65720 0.00990 0.07100
H 	H 	0.99930 0.57230 0.05090 0.06600
H 	H 	0.05990 0.60300 0.98390 0.06700
H 	H 	0.11590 0.86580 0.28220 0.07400
H 	H 	0.24840 0.74190 0.07620 0.05900
H 	H 	0.25050 0.87740 0.08380 0.05300
H 	H 	0.03700 0.71860 0.39130 0.08900
H 	H 	0.02780 0.79830 0.33970 0.08800
H 	H 	0.10570 0.77960 0.38700 0.08300
C 	C 	0.15710 0.17950 0.38760 0.43300
C 	C 	0.16080 0.17860 0.47510 -0.10600
C 	C 	0.12110 0.12340 0.52080 -0.05800
C 	C 	0.12440 0.12280 0.60120 0.10300
C 	C 	0.16780 0.17780 0.63630 0.00800
C 	C 	0.20720 0.23140 0.59010 -0.07800
C 	C 	0.20310 0.23250 0.50970 0.02100
C 	C 	0.02800 0.02600 0.61800 -0.12300
C 	C 	0.18920 0.18050 0.97160 0.36400
C 	C 	0.18310 0.18100 0.88480 -0.06200
C 	C 	0.23940 0.14220 0.84090 -0.08400
C 	C 	0.23460 0.14050 0.76010 0.12800
C 	C 	0.17260 0.17820 0.72350 -0.01700
C 	C 	0.11760 0.22010 0.76720 -0.04900
C 	C 	0.12220 0.22160 0.84750 -0.01100
C 	C 	0.35750 0.06480 0.75670 -0.17100
C 	C 	0.38760 0.15710 0.17950 0.43300
C 	C 	0.47510 0.16080 0.17860 -0.10600
C 	C 	0.52080 0.12110 0.12340 -0.05800
C 	C 	0.60120 0.12440 0.12280 0.10300
C 	C 	0.63630 0.16780 0.17780 0.00800
C 	C 	0.59010 0.20720 0.23140 -0.07800
C 	C 	0.50970 0.20310 0.23250 0.02100
C 	C 	0.61800 0.02800 0.02600 -0.12300
C 	C 	0.97160 0.18920 0.18050 0.36400
C 	C 	0.88480 0.18310 0.18100 -0.06200
C 	C 	0.84090 0.23940 0.14220 -0.08400
C 	C 	0.76010 0.23460 0.14050 0.12800
C 	C 	0.72350 0.17260 0.17820 -0.01700
C 	C 	0.76720 0.11760 0.22010 -0.04900
C 	C 	0.84750 0.12220 0.22160 -0.01100
C 	C 	0.75670 0.35750 0.06480 -0.17100
C 	C 	0.17950 0.38760 0.15710 0.43300
C 	C 	0.17860 0.47510 0.16080 -0.10600
C 	C 	0.12340 0.52080 0.12110 -0.05800
C 	C 	0.12280 0.60120 0.12440 0.10300
C 	C 	0.17780 0.63630 0.16780 0.00800
C 	C 	0.23140 0.59010 0.20720 -0.07800
C 	C 	0.23250 0.50970 0.20310 0.02100
C 	C 	0.02600 0.61800 0.02800 -0.12300
C 	C 	0.18050 0.97160 0.18920 0.36400
C 	C 	0.18100 0.88480 0.18310 -0.06200
C 	C 	0.14220 0.84090 0.23940 -0.08400
C 	C 	0.14050 0.76010 0.23460 0.12800
C 	C 	0.17820 0.72350 0.17260 -0.01700
C 	C 	0.22010 0.76720 0.11760 -0.04900
C 	C 	0.22160 0.84750 0.12220 -0.01100
C 	C 	0.06480 0.75670 0.35750 -0.17100
O 	O 	0.18940 0.23070 0.34790 -0.54800
O 	O 	0.11900 0.12810 0.35890 -0.50200
O 	O 	0.08700 0.07100 0.65200 -0.17600
O 	O 	0.23490 0.13140 0.00530 -0.50300
O 	O 	0.14890 0.23320 0.00360 -0.49000
O 	O 	0.28970 0.10070 0.71780 -0.17500
O 	O 	0.34790 0.18940 0.23070 -0.54800
O 	O 	0.35890 0.11900 0.12810 -0.50200
O 	O 	0.65200 0.08700 0.07100 -0.17600
O 	O 	0.00530 0.23490 0.13140 -0.50300
O 	O 	0.00360 0.14890 0.23320 -0.49000
O 	O 	0.71780 0.28970 0.10070 -0.17500
O 	O 	0.23070 0.34790 0.18940 -0.54800
O 	O 	0.12810 0.35890 0.11900 -0.50200
O 	O 	0.07100 0.65200 0.08700 -0.17600
O 	O 	0.13140 0.00530 0.23490 -0.50300
O 	O 	0.23320 0.00360 0.14890 -0.49000
O 	O 	0.10070 0.71780 0.28970 -0.17500
O 	O 	0.18190 0.18190 0.18190 -0.96000
