data_crystal

_cell_length_a 8.53100
_cell_length_b 12.57000
_cell_length_c 13.25200
_cell_angle_alpha 105.07800
_cell_angle_beta  90.12300
_cell_angle_gamma 107.13900

_symmetry_space_group_name_	'P 1'
_symmetry_space_group_name_H-M	'P 1'

loop_
_symmetry_equiv_pos_as_xyz
  x,y,z

loop_
_atom_site_label
_atom_site_type_symbol
_atom_site_fract_x
_atom_site_fract_y
_atom_site_fract_z
_atom_site_charge
Cu	Cu	0.49221 0.59596 0.97948 0.91900
Cu	Cu	0.99070 0.59489 0.56727 0.91900
Cu	Cu	0.50779 0.40404 0.02052 0.91900
Cu	Cu	0.00930 0.40511 0.43273 0.91900
H 	H 	0.23200 0.02540 0.02620 0.11800
H 	H 	0.44920 0.36230 0.44890 0.19400
H 	H 	0.49600 0.26290 0.48550 0.18600
H 	H 	0.48370 0.47710 0.62900 -0.01600
H 	H 	0.34410 0.35530 0.61430 -0.03200
H 	H 	0.68170 0.39560 0.68950 0.17700
H 	H 	0.53520 0.27960 0.68240 0.17300
H 	H 	0.05220 0.63150 0.01870 0.18000
H 	H 	0.00780 0.73350 0.10230 0.17500
H 	H 	0.01440 0.52130 0.14410 -0.01400
H 	H 	0.15610 0.64260 0.18750 -0.02600
H 	H 	0.82100 0.60940 0.24050 0.17100
H 	H 	0.97220 0.72280 0.29070 0.16800
H 	H 	0.40010 0.81940 0.07990 0.07300
H 	H 	0.25850 0.93430 0.84820 0.06600
H 	H 	0.33360 0.79260 0.72850 0.06200
H 	H 	0.44120 0.67050 0.78680 0.03400
H 	H 	0.12720 0.01960 0.32500 0.08500
H 	H 	0.04810 0.16990 0.42310 0.01300
H 	H 	0.11150 0.33290 0.20620 0.02500
H 	H 	0.21120 0.18020 0.10250 0.07300
H 	H 	0.76800 0.97460 0.97380 0.11800
H 	H 	0.55080 0.63770 0.55110 0.19400
H 	H 	0.50400 0.73710 0.51450 0.18600
H 	H 	0.51630 0.52290 0.37100 -0.01600
H 	H 	0.65590 0.64470 0.38570 -0.03200
H 	H 	0.31830 0.60440 0.31050 0.17700
H 	H 	0.46480 0.72040 0.31760 0.17300
H 	H 	0.94780 0.36850 0.98130 0.18000
H 	H 	0.99220 0.26650 0.89770 0.17500
H 	H 	0.98560 0.47870 0.85590 -0.01400
H 	H 	0.84390 0.35740 0.81250 -0.02600
H 	H 	0.17900 0.39060 0.75950 0.17100
H 	H 	0.02780 0.27720 0.70930 0.16800
H 	H 	0.59990 0.18060 0.92010 0.07300
H 	H 	0.74150 0.06570 0.15180 0.06600
H 	H 	0.66640 0.20740 0.27150 0.06200
H 	H 	0.55880 0.32950 0.21320 0.03400
H 	H 	0.87280 0.98040 0.67500 0.08500
H 	H 	0.95190 0.83010 0.57690 0.01300
H 	H 	0.88850 0.66710 0.79380 0.02500
H 	H 	0.78880 0.81980 0.89750 0.07300
C 	C 	0.69290 0.40500 0.49470 0.50400
C 	C 	0.51640 0.34750 0.50160 -0.49900
C 	C 	0.46340 0.39250 0.61260 0.23300
C 	C 	0.56270 0.36470 0.69710 -0.44800
C 	C 	0.53140 0.41300 0.80900 0.45200
C 	C 	0.80740 0.59310 0.04110 0.47000
C 	C 	0.98510 0.64850 0.07820 -0.45400
C 	C 	0.03650 0.60620 0.16770 0.21900
C 	C 	0.94010 0.63750 0.26340 -0.42900
C 	C 	0.96950 0.58620 0.35210 0.44200
C 	C 	0.38660 0.81550 0.00780 -0.03700
C 	C 	0.32010 0.89360 0.98010 0.10000
C 	C 	0.30230 0.88290 0.87180 -0.08100
C 	C 	0.34680 0.80030 0.80150 -0.03800
C 	C 	0.41050 0.72870 0.83670 0.03000
C 	C 	0.13000 0.08410 0.29940 -0.13900
C 	C 	0.18300 0.09220 0.21200 0.05000
C 	C 	0.07840 0.17260 0.35470 0.07800
C 	C 	0.11500 0.26980 0.23210 0.06500
C 	C 	0.17650 0.17900 0.17040 -0.11400
C 	C 	0.25100 0.98990 0.15610 0.14500
C 	C 	0.30710 0.59500 0.50530 0.50400
C 	C 	0.48360 0.65250 0.49840 -0.49900
C 	C 	0.53660 0.60750 0.38740 0.23300
C 	C 	0.43730 0.63530 0.30290 -0.44800
C 	C 	0.46860 0.58700 0.19100 0.45200
C 	C 	0.19260 0.40690 0.95890 0.47000
C 	C 	0.01490 0.35150 0.92180 -0.45400
C 	C 	0.96350 0.39380 0.83230 0.21900
C 	C 	0.05990 0.36250 0.73660 -0.42900
C 	C 	0.03050 0.41380 0.64790 0.44200
C 	C 	0.61340 0.18450 0.99220 -0.03700
C 	C 	0.67990 0.10640 0.01990 0.10000
C 	C 	0.69770 0.11710 0.12820 -0.08100
C 	C 	0.65320 0.19970 0.19850 -0.03800
C 	C 	0.58950 0.27130 0.16330 0.03000
C 	C 	0.87000 0.91590 0.70060 -0.13900
C 	C 	0.81700 0.90780 0.78800 0.05000
C 	C 	0.92160 0.82740 0.64530 0.07800
C 	C 	0.88500 0.73020 0.76790 0.06500
C 	C 	0.82350 0.82100 0.82960 -0.11400
C 	C 	0.74900 0.01010 0.84390 0.14500
N 	N 	0.43200 0.73590 0.93780 -0.16100
N 	N 	0.26320 0.97660 0.05240 -0.21300
N 	N 	0.06450 0.26280 0.32450 -0.19000
N 	N 	0.56800 0.26410 0.06220 -0.16100
N 	N 	0.73680 0.02340 0.94760 -0.21300
N 	N 	0.93550 0.73720 0.67550 -0.19000
O 	O 	0.75320 0.50620 0.54500 -0.45800
O 	O 	0.98230 0.48560 0.32820 -0.42900
O 	O 	0.52160 0.51430 0.83500 -0.43100
O 	O 	0.76930 0.34410 0.43770 -0.44800
O 	O 	0.74170 0.49050 0.04150 -0.44500
O 	O 	0.73290 0.65390 0.01090 -0.43300
O 	O 	0.52600 0.34940 0.86920 -0.43000
O 	O 	0.96950 0.64830 0.44310 -0.43000
O 	O 	0.30430 0.92680 0.20930 -0.20400
O 	O 	0.24680 0.49380 0.45500 -0.45800
O 	O 	0.01770 0.51440 0.67180 -0.42900
O 	O 	0.47840 0.48570 0.16500 -0.43100
O 	O 	0.23070 0.65590 0.56230 -0.44800
O 	O 	0.25830 0.50950 0.95850 -0.44500
O 	O 	0.26710 0.34610 0.98910 -0.43300
O 	O 	0.47400 0.65060 0.13080 -0.43000
O 	O 	0.03050 0.35170 0.55690 -0.43000
O 	O 	0.69570 0.07320 0.79070 -0.20400
