data_crystal

_cell_length_a 10.80600
_cell_length_b 24.32900
_cell_length_c 28.55400
_cell_angle_alpha 90.00000
_cell_angle_beta  90.00000
_cell_angle_gamma 93.65800

_symmetry_space_group_name_	'P 1'
_symmetry_space_group_name_H-M	'P 1'

loop_
_symmetry_equiv_pos_as_xyz
  x,y,z

loop_
_atom_site_label
_atom_site_type_symbol
_atom_site_fract_x
_atom_site_fract_y
_atom_site_fract_z
_atom_site_charge
Co	Co	0.43782 0.53438 0.54508 1.19300
Co	Co	0.42827 0.46651 0.95483 1.19500
Co	Co	0.55845 0.41985 0.58935 1.17600
Co	Co	0.58070 0.58219 0.91130 1.17600
Co	Co	0.29020 0.46327 0.63391 1.13300
Co	Co	0.30214 0.53656 0.86551 1.13300
Co	Co	0.56218 0.96562 0.04508 1.19400
Co	Co	0.57173 0.03349 0.45483 1.19600
Co	Co	0.44155 0.08015 0.08935 1.17600
Co	Co	0.41930 0.91781 0.41130 1.17600
Co	Co	0.70980 0.03673 0.13391 1.13300
Co	Co	0.69786 0.96344 0.36551 1.13300
Co	Co	0.56218 0.46562 0.45492 1.19400
Co	Co	0.57173 0.53349 0.04517 1.19600
Co	Co	0.44155 0.58015 0.41065 1.17600
Co	Co	0.41930 0.41781 0.08870 1.17600
Co	Co	0.70980 0.53673 0.36609 1.13300
Co	Co	0.69786 0.46344 0.13449 1.13300
Co	Co	0.43782 0.03438 0.95492 1.19400
Co	Co	0.42827 0.96651 0.54517 1.19600
Co	Co	0.55845 0.91985 0.91065 1.17600
Co	Co	0.58070 0.08219 0.58870 1.17600
Co	Co	0.29020 0.96327 0.86609 1.13300
Co	Co	0.30214 0.03656 0.63449 1.13300
H 	H 	0.63130 0.36480 0.85610 -0.01200
H 	H 	0.73440 0.32960 0.79480 0.11300
H 	H 	0.68140 0.34820 0.72010 -0.02200
H 	H 	0.65810 0.64260 0.64310 -0.00800
H 	H 	0.76300 0.68250 0.70440 0.10300
H 	H 	0.71820 0.65580 0.78100 -0.01500
H 	H 	0.43870 0.55740 0.73480 -0.00300
H 	H 	0.94050 0.51020 0.92530 0.01700
H 	H 	0.08500 0.38290 0.98860 0.02100
H 	H 	0.88130 0.35220 0.01270 0.07000
H 	H 	0.71420 0.39860 0.99400 0.01300
H 	H 	0.48460 0.33300 0.92310 0.02500
H 	H 	0.47240 0.24880 0.88230 0.07800
H 	H 	0.52800 0.17110 0.92790 0.02500
H 	H 	0.42900 0.24880 0.04270 0.02600
H 	H 	0.41650 0.44080 0.76540 -0.00700
H 	H 	0.12210 0.61590 0.50890 0.02000
H 	H 	0.92760 0.64750 0.48620 0.06800
H 	H 	0.74360 0.60070 0.50290 0.01600
H 	H 	0.93290 0.49180 0.57560 0.01700
H 	H 	0.36870 0.13520 0.35610 -0.01200
H 	H 	0.26560 0.17040 0.29480 0.11300
H 	H 	0.31860 0.15180 0.22010 -0.02200
H 	H 	0.34190 0.85740 0.14310 -0.00800
H 	H 	0.23700 0.81750 0.20440 0.10300
H 	H 	0.28180 0.84420 0.28100 -0.01500
H 	H 	0.56130 0.94260 0.23480 -0.00300
H 	H 	0.05950 0.98980 0.42530 0.01700
H 	H 	0.91500 0.11710 0.48860 0.02100
H 	H 	0.11870 0.14780 0.51270 0.07100
H 	H 	0.28580 0.10140 0.49400 0.01200
H 	H 	0.51540 0.16700 0.42310 0.02500
H 	H 	0.52760 0.25120 0.38230 0.07800
H 	H 	0.47200 0.32890 0.42790 0.02400
H 	H 	0.57100 0.25120 0.54270 0.02600
H 	H 	0.58350 0.05920 0.26540 -0.00700
H 	H 	0.87790 0.88410 0.00890 0.02100
H 	H 	0.07240 0.85250 0.98620 0.06700
H 	H 	0.25640 0.89930 0.00290 0.01600
H 	H 	0.06710 0.00820 0.07560 0.01700
H 	H 	0.36870 0.63520 0.14390 -0.01200
H 	H 	0.26560 0.67040 0.20520 0.11300
H 	H 	0.31860 0.65180 0.27990 -0.02200
H 	H 	0.34190 0.35740 0.35690 -0.00800
H 	H 	0.23700 0.31750 0.29560 0.10300
H 	H 	0.28180 0.34420 0.21900 -0.01500
H 	H 	0.56130 0.44260 0.26520 -0.00300
H 	H 	0.05950 0.48980 0.07470 0.01700
H 	H 	0.91500 0.61710 0.01140 0.02100
H 	H 	0.11870 0.64780 0.98730 0.07000
H 	H 	0.28580 0.60140 0.00600 0.01300
H 	H 	0.51540 0.66700 0.07690 0.02500
H 	H 	0.52760 0.75120 0.11770 0.07800
H 	H 	0.47200 0.82890 0.07210 0.02500
H 	H 	0.57100 0.75120 0.95730 0.02600
H 	H 	0.58350 0.55920 0.23460 -0.00700
H 	H 	0.87790 0.38410 0.49110 0.02000
H 	H 	0.07240 0.35250 0.51380 0.06800
H 	H 	0.25640 0.39930 0.49710 0.01600
H 	H 	0.06710 0.50820 0.42440 0.01700
H 	H 	0.63130 0.86480 0.64390 -0.01200
H 	H 	0.73440 0.82960 0.70520 0.11300
H 	H 	0.68140 0.84820 0.77990 -0.02200
H 	H 	0.65810 0.14260 0.85690 -0.00800
H 	H 	0.76300 0.18250 0.79560 0.10300
H 	H 	0.71820 0.15580 0.71900 -0.01500
H 	H 	0.43870 0.05740 0.76520 -0.00300
H 	H 	0.94050 0.01020 0.57470 0.01700
H 	H 	0.08500 0.88290 0.51140 0.02100
H 	H 	0.88130 0.85220 0.48730 0.07100
H 	H 	0.71420 0.89860 0.50600 0.01200
H 	H 	0.48460 0.83300 0.57690 0.02500
H 	H 	0.47240 0.74880 0.61770 0.07800
H 	H 	0.52800 0.67110 0.57210 0.02400
H 	H 	0.42900 0.74880 0.45730 0.02600
H 	H 	0.41650 0.94080 0.73460 -0.00700
H 	H 	0.12210 0.11590 0.99110 0.02100
H 	H 	0.92760 0.14750 0.01380 0.06700
H 	H 	0.74360 0.10070 0.99710 0.01600
H 	H 	0.93290 0.99180 0.92440 0.01700
C 	C 	0.45180 0.43610 0.85700 0.44700
C 	C 	0.51670 0.40930 0.81780 -0.21700
C 	C 	0.60990 0.37380 0.82560 0.15800
C 	C 	0.66990 0.35220 0.78920 -0.24400
C 	C 	0.63780 0.36300 0.74460 0.17900
C 	C 	0.54290 0.39520 0.73500 -0.24700
C 	C 	0.50540 0.40720 0.68650 0.49200
C 	C 	0.47180 0.56350 0.64350 0.46300
C 	C 	0.54300 0.59220 0.68160 -0.21400
C 	C 	0.63740 0.63220 0.67360 0.14700
C 	C 	0.69920 0.65590 0.71010 -0.21900
C 	C 	0.66970 0.64130 0.75650 0.15900
C 	C 	0.57290 0.60680 0.76550 -0.24100
C 	C 	0.53640 0.59170 0.81370 0.48800
C 	C 	0.50700 0.58150 0.72860 0.14800
C 	C 	0.70690 0.49590 0.95250 0.41300
C 	C 	0.80910 0.46370 0.96020 -0.17800
C 	C 	0.92840 0.47850 0.94340 0.10700
C 	C 	0.02720 0.44830 0.95250 -0.15500
C 	C 	0.01640 0.40180 0.98020 0.06400
C 	C 	0.89260 0.38430 0.99520 -0.13400
C 	C 	0.79300 0.41230 0.98500 0.07600
C 	C 	0.43420 0.35130 0.01300 0.43400
C 	C 	0.44590 0.29920 0.98660 -0.16300
C 	C 	0.47200 0.29970 0.93880 0.06800
C 	C 	0.47840 0.25020 0.91480 -0.12800
C 	C 	0.49470 0.20150 0.94160 0.06500
C 	C 	0.46090 0.20020 0.98780 -0.16400
C 	C 	0.46200 0.14800 0.01410 0.42000
C 	C 	0.44310 0.24920 0.01060 0.09200
C 	C 	0.48160 0.41870 0.77160 0.16000
C 	C 	0.04780 0.55180 0.54660 -0.17400
C 	C 	0.16330 0.53280 0.55840 0.39600
C 	C 	0.04840 0.59730 0.51820 0.07000
C 	C 	0.92860 0.61510 0.50340 -0.12900
C 	C 	0.81840 0.58780 0.51280 0.06300
C 	C 	0.93300 0.52270 0.55640 0.10800
C 	C 	0.70830 0.50540 0.54710 0.38700
C 	C 	0.15730 0.46770 0.93870 0.40100
C 	C 	0.82370 0.53770 0.53910 -0.16300
C 	C 	0.54820 0.06390 0.35700 0.44700
C 	C 	0.48330 0.09070 0.31780 -0.21700
C 	C 	0.39010 0.12620 0.32560 0.15800
C 	C 	0.33010 0.14780 0.28920 -0.24400
C 	C 	0.36220 0.13700 0.24460 0.17900
C 	C 	0.45710 0.10480 0.23500 -0.24700
C 	C 	0.49460 0.09280 0.18650 0.49200
C 	C 	0.52820 0.93650 0.14350 0.46300
C 	C 	0.45700 0.90780 0.18160 -0.21300
C 	C 	0.36260 0.86780 0.17360 0.14700
C 	C 	0.30080 0.84410 0.21010 -0.21900
C 	C 	0.33030 0.85870 0.25650 0.15900
C 	C 	0.42710 0.89320 0.26550 -0.24000
C 	C 	0.46360 0.90830 0.31370 0.48800
C 	C 	0.49300 0.91850 0.22860 0.14800
C 	C 	0.29310 0.00410 0.45250 0.41300
C 	C 	0.19090 0.03630 0.46020 -0.17800
C 	C 	0.07160 0.02150 0.44340 0.10700
C 	C 	0.97280 0.05170 0.45250 -0.15500
C 	C 	0.98360 0.09820 0.48020 0.06500
C 	C 	0.10740 0.11570 0.49520 -0.13600
C 	C 	0.20700 0.08770 0.48500 0.07700
C 	C 	0.56580 0.14870 0.51300 0.43400
C 	C 	0.55410 0.20080 0.48660 -0.16400
C 	C 	0.52800 0.20030 0.43880 0.06800
C 	C 	0.52160 0.24980 0.41480 -0.12900
C 	C 	0.50530 0.29850 0.44160 0.06600
C 	C 	0.53910 0.29980 0.48780 -0.16500
C 	C 	0.53800 0.35200 0.51410 0.42200
C 	C 	0.55690 0.25080 0.51060 0.09400
C 	C 	0.51840 0.08130 0.27160 0.16000
C 	C 	0.95220 0.94820 0.04660 -0.17500
C 	C 	0.83670 0.96720 0.05840 0.39700
C 	C 	0.95160 0.90270 0.01820 0.07000
C 	C 	0.07140 0.88490 0.00340 -0.12700
C 	C 	0.18160 0.91220 0.01280 0.06200
C 	C 	0.06700 0.97730 0.05640 0.10900
C 	C 	0.29170 0.99460 0.04710 0.38800
C 	C 	0.84270 0.03230 0.43870 0.40100
C 	C 	0.17630 0.96230 0.03910 -0.16300
C 	C 	0.54820 0.56390 0.14300 0.44700
C 	C 	0.48330 0.59070 0.18220 -0.21700
C 	C 	0.39010 0.62620 0.17440 0.15800
C 	C 	0.33010 0.64780 0.21080 -0.24400
C 	C 	0.36220 0.63700 0.25540 0.17900
C 	C 	0.45710 0.60480 0.26500 -0.24700
C 	C 	0.49460 0.59280 0.31350 0.49200
C 	C 	0.52820 0.43650 0.35650 0.46300
C 	C 	0.45700 0.40780 0.31840 -0.21400
C 	C 	0.36260 0.36780 0.32640 0.14700
C 	C 	0.30080 0.34410 0.28990 -0.21900
C 	C 	0.33030 0.35870 0.24350 0.15900
C 	C 	0.42710 0.39320 0.23450 -0.24100
C 	C 	0.46360 0.40830 0.18630 0.48800
C 	C 	0.49300 0.41850 0.27140 0.14800
C 	C 	0.29310 0.50410 0.04750 0.41300
C 	C 	0.19090 0.53630 0.03980 -0.17800
C 	C 	0.07160 0.52150 0.05660 0.10700
C 	C 	0.97280 0.55170 0.04750 -0.15500
C 	C 	0.98360 0.59820 0.01980 0.06400
C 	C 	0.10740 0.61570 0.00480 -0.13400
C 	C 	0.20700 0.58770 0.01500 0.07600
C 	C 	0.56580 0.64870 0.98700 0.43400
C 	C 	0.55410 0.70080 0.01340 -0.16300
C 	C 	0.52800 0.70030 0.06120 0.06800
C 	C 	0.52160 0.74980 0.08520 -0.12800
C 	C 	0.50530 0.79850 0.05840 0.06500
C 	C 	0.53910 0.79980 0.01220 -0.16400
C 	C 	0.53800 0.85200 0.98590 0.42000
C 	C 	0.55690 0.75080 0.98940 0.09200
C 	C 	0.51840 0.58130 0.22840 0.16000
C 	C 	0.95220 0.44820 0.45340 -0.17400
C 	C 	0.83670 0.46720 0.44160 0.39600
C 	C 	0.95160 0.40270 0.48180 0.07000
C 	C 	0.07140 0.38490 0.49660 -0.12900
C 	C 	0.18160 0.41220 0.48720 0.06300
C 	C 	0.06700 0.47730 0.44360 0.10800
C 	C 	0.29170 0.49460 0.45290 0.38700
C 	C 	0.84270 0.53230 0.06130 0.40100
C 	C 	0.17630 0.46230 0.46090 -0.16300
C 	C 	0.45180 0.93610 0.64300 0.44700
C 	C 	0.51670 0.90930 0.68220 -0.21700
C 	C 	0.60990 0.87380 0.67440 0.15800
C 	C 	0.66990 0.85220 0.71080 -0.24400
C 	C 	0.63780 0.86300 0.75540 0.17900
C 	C 	0.54290 0.89520 0.76500 -0.24700
C 	C 	0.50540 0.90720 0.81350 0.49200
C 	C 	0.47180 0.06350 0.85650 0.46300
C 	C 	0.54300 0.09220 0.81840 -0.21300
C 	C 	0.63740 0.13220 0.82640 0.14700
C 	C 	0.69920 0.15590 0.78990 -0.21900
C 	C 	0.66970 0.14130 0.74350 0.15900
C 	C 	0.57290 0.10680 0.73450 -0.24000
C 	C 	0.53640 0.09170 0.68630 0.48800
C 	C 	0.50700 0.08150 0.77140 0.14800
C 	C 	0.70690 0.99590 0.54750 0.41300
C 	C 	0.80910 0.96370 0.53980 -0.17800
C 	C 	0.92840 0.97850 0.55660 0.10700
C 	C 	0.02720 0.94830 0.54750 -0.15500
C 	C 	0.01640 0.90180 0.51980 0.06500
C 	C 	0.89260 0.88430 0.50480 -0.13600
C 	C 	0.79300 0.91230 0.51500 0.07700
C 	C 	0.43420 0.85130 0.48700 0.43400
C 	C 	0.44590 0.79920 0.51340 -0.16400
C 	C 	0.47200 0.79970 0.56120 0.06800
C 	C 	0.47840 0.75020 0.58520 -0.12900
C 	C 	0.49470 0.70150 0.55840 0.06600
C 	C 	0.46090 0.70020 0.51220 -0.16500
C 	C 	0.46200 0.64800 0.48590 0.42200
C 	C 	0.44310 0.74920 0.48940 0.09400
C 	C 	0.48160 0.91870 0.72840 0.16000
C 	C 	0.04780 0.05180 0.95340 -0.17500
C 	C 	0.16330 0.03280 0.94160 0.39700
C 	C 	0.04840 0.09730 0.98180 0.07000
C 	C 	0.92860 0.11510 0.99660 -0.12700
C 	C 	0.81840 0.08780 0.98720 0.06200
C 	C 	0.93300 0.02270 0.94360 0.10900
C 	C 	0.70830 0.00540 0.95290 0.38800
C 	C 	0.15730 0.96770 0.56130 0.40100
C 	C 	0.82370 0.03770 0.96090 -0.16300
O 	O 	0.45200 0.39400 0.99240 -0.47200
O 	O 	0.24760 0.44570 0.95210 -0.46000
O 	O 	0.48160 0.10500 0.99360 -0.46500
O 	O 	0.71610 0.53510 0.92320 -0.46500
O 	O 	0.61060 0.48870 0.97860 -0.52500
O 	O 	0.49900 0.43370 0.89700 -0.46100
O 	O 	0.36050 0.45960 0.84660 -0.47700
O 	O 	0.43280 0.56720 0.81850 -0.51500
O 	O 	0.60590 0.60380 0.84590 -0.50500
O 	O 	0.51700 0.56830 0.60290 -0.46100
O 	O 	0.37790 0.53860 0.65390 -0.49000
O 	O 	0.26340 0.55620 0.54740 -0.45000
O 	O 	0.15820 0.49340 0.59230 -0.44200
O 	O 	0.40420 0.42850 0.68110 -0.51500
O 	O 	0.57810 0.40040 0.65550 -0.50600
O 	O 	0.61460 0.51250 0.52110 -0.51900
O 	O 	0.70770 0.46720 0.57830 -0.45300
O 	O 	0.43920 0.15140 0.05690 -0.46300
O 	O 	0.40840 0.45760 0.57660 -0.61900
O 	O 	0.41860 0.54330 0.92370 -0.61400
O 	O 	0.40660 0.34660 0.05580 -0.46300
O 	O 	0.16120 0.50840 0.90710 -0.45100
O 	O 	0.54800 0.10600 0.49240 -0.47200
O 	O 	0.75240 0.05430 0.45210 -0.46000
O 	O 	0.51840 0.39500 0.49360 -0.46500
O 	O 	0.28390 0.96490 0.42320 -0.46500
O 	O 	0.38940 0.01130 0.47860 -0.52500
O 	O 	0.50100 0.06630 0.39700 -0.46100
O 	O 	0.63950 0.04040 0.34660 -0.47700
O 	O 	0.56720 0.93280 0.31850 -0.51400
O 	O 	0.39410 0.89620 0.34590 -0.50500
O 	O 	0.48300 0.93170 0.10290 -0.46100
O 	O 	0.62210 0.96140 0.15390 -0.49000
O 	O 	0.73660 0.94380 0.04740 -0.45000
O 	O 	0.84180 0.00660 0.09230 -0.44200
O 	O 	0.59580 0.07150 0.18110 -0.51500
O 	O 	0.42190 0.09960 0.15550 -0.50600
O 	O 	0.38540 0.98750 0.02110 -0.51900
O 	O 	0.29230 0.03280 0.07830 -0.45300
O 	O 	0.56080 0.34860 0.55690 -0.46300
O 	O 	0.59160 0.04240 0.07660 -0.61900
O 	O 	0.58140 0.95670 0.42370 -0.61400
O 	O 	0.59340 0.15340 0.55580 -0.46300
O 	O 	0.83880 0.99160 0.40710 -0.45100
O 	O 	0.54800 0.60600 0.00760 -0.47200
O 	O 	0.75240 0.55430 0.04790 -0.46000
O 	O 	0.51840 0.89500 0.00640 -0.46500
O 	O 	0.28390 0.46490 0.07680 -0.46500
O 	O 	0.38940 0.51130 0.02140 -0.52500
O 	O 	0.50100 0.56630 0.10300 -0.46100
O 	O 	0.63950 0.54040 0.15340 -0.47700
O 	O 	0.56720 0.43280 0.18150 -0.51500
O 	O 	0.39410 0.39620 0.15410 -0.50500
O 	O 	0.48300 0.43170 0.39710 -0.46100
O 	O 	0.62210 0.46140 0.34610 -0.49000
O 	O 	0.73660 0.44380 0.45260 -0.45000
O 	O 	0.84180 0.50660 0.40770 -0.44200
O 	O 	0.59580 0.57150 0.31890 -0.51500
O 	O 	0.42190 0.59960 0.34450 -0.50600
O 	O 	0.38540 0.48750 0.47890 -0.51900
O 	O 	0.29230 0.53280 0.42170 -0.45300
O 	O 	0.56080 0.84860 0.94310 -0.46300
O 	O 	0.59160 0.54240 0.42340 -0.61900
O 	O 	0.58140 0.45670 0.07630 -0.61400
O 	O 	0.59340 0.65340 0.94420 -0.46300
O 	O 	0.83880 0.49160 0.09290 -0.45100
O 	O 	0.45200 0.89400 0.50760 -0.47200
O 	O 	0.24760 0.94570 0.54790 -0.46000
O 	O 	0.48160 0.60500 0.50640 -0.46500
O 	O 	0.71610 0.03510 0.57680 -0.46500
O 	O 	0.61060 0.98870 0.52140 -0.52500
O 	O 	0.49900 0.93370 0.60300 -0.46100
O 	O 	0.36050 0.95960 0.65340 -0.47700
O 	O 	0.43280 0.06720 0.68150 -0.51400
O 	O 	0.60590 0.10380 0.65410 -0.50500
O 	O 	0.51700 0.06830 0.89710 -0.46100
O 	O 	0.37790 0.03860 0.84610 -0.49000
O 	O 	0.26340 0.05620 0.95260 -0.45000
O 	O 	0.15820 0.99340 0.90770 -0.44200
O 	O 	0.40420 0.92850 0.81890 -0.51500
O 	O 	0.57810 0.90040 0.84450 -0.50600
O 	O 	0.61460 0.01250 0.97890 -0.51900
O 	O 	0.70770 0.96720 0.92170 -0.45300
O 	O 	0.43920 0.65140 0.44310 -0.46300
O 	O 	0.40840 0.95760 0.92340 -0.61900
O 	O 	0.41860 0.04330 0.57630 -0.61400
O 	O 	0.40660 0.84660 0.44420 -0.46300
O 	O 	0.16120 0.00840 0.59290 -0.45100
