data_crystal

_cell_length_a 15.41800
_cell_length_b 34.13500
_cell_length_c 10.18860
_cell_angle_alpha 90.00000
_cell_angle_beta  105.44600
_cell_angle_gamma 90.00000

_symmetry_space_group_name_	'P 1'
_symmetry_space_group_name_H-M	'P 1'

loop_
_symmetry_equiv_pos_as_xyz
  x,y,z

loop_
_atom_site_label
_atom_site_type_symbol
_atom_site_fract_x
_atom_site_fract_y
_atom_site_fract_z
_atom_site_charge
Cu	Cu	0.08564 0.78123 0.31863 0.92600
Cu	Cu	0.93890 0.72370 0.33662 0.92000
Cu	Cu	0.01653 0.77986 0.58449 0.92100
O 	O 	0.04970 0.77368 0.77760 -0.74900
H 	H 	0.08940 0.79010 0.81760 0.27800
O 	O 	0.97710 0.66470 0.10520 -0.40100
O 	O 	0.91380 0.66874 0.27850 -0.39400
O 	O 	0.13880 0.76263 0.56740 -0.46600
O 	O 	0.18940 0.72334 0.74830 -0.41300
O 	O 	0.97790 0.77855 0.38850 -0.73200
H 	H 	0.93830 0.79570 0.35430 0.28800
O 	O 	0.44190 0.63800 0.69700 -0.04300
O 	O 	0.55020 0.66260 0.70600 -0.02600
O 	O 	0.44910 0.68180 0.36320 -0.07300
O 	O 	0.57000 0.64310 0.39500 -0.03500
O 	O 	0.78730 0.49700 0.31000 -0.04200
O 	O 	0.73100 0.55070 0.31000 -0.05600
O 	O 	0.10200 0.44220 0.24700 -0.08200
O 	O 	0.07600 0.50120 0.25700 -0.07300
O 	O 	0.83080 0.72585 0.39710 -0.40200
O 	O 	0.88120 0.75969 0.59110 -0.43800
O 	O 	0.77200 0.34710 0.03710 -0.26100
O 	O 	0.90780 0.33674 0.16280 -0.41700
C 	C 	0.93960 0.65066 0.18710 0.39700
C 	C 	0.92530 0.60730 0.17830 -0.13600
C 	C 	0.97930 0.58450 0.12100 0.01100
C 	C 	0.96810 0.54460 0.11700 0.03200
C 	C 	0.90050 0.52600 0.15750 0.04400
C 	C 	0.85560 0.54830 0.23200 0.10700
C 	C 	0.86100 0.58980 0.23100 -0.01500
C 	C 	0.88860 0.48280 0.14310 -0.04000
C 	C 	0.95000 0.45730 0.20580 0.12100
C 	C 	0.93920 0.41680 0.18910 -0.09400
H 	H 	0.98540 0.40010 0.23300 0.10400
C 	C 	0.86280 0.40220 0.11020 0.00500
C 	C 	0.79730 0.42680 0.03940 -0.09200
H 	H 	0.74460 0.41700 0.98160 0.11700
C 	C 	0.81110 0.46730 0.05540 0.12600
C 	C 	0.84670 0.35770 0.10110 0.35500
C 	C 	0.19730 0.74200 0.64620 0.36400
C 	C 	0.28870 0.73860 0.61890 -0.06300
C 	C 	0.34370 0.70790 0.67270 -0.05300
H 	H 	0.32300 0.68870 0.72140 0.09400
C 	C 	0.42830 0.70510 0.65620 0.08400
C 	C 	0.46170 0.73350 0.58000 0.02400
C 	C 	0.40500 0.76390 0.52810 -0.05900
H 	H 	0.42480 0.78310 0.47840 0.08600
C 	C 	0.31910 0.76730 0.54620 0.00400
H 	H 	0.28270 0.78850 0.51020 0.06800
C 	C 	0.55470 0.73320 0.55930 0.02800
C 	C 	0.61320 0.76330 0.61850 -0.06800
H 	H 	0.59360 0.78220 0.67000 0.08800
C 	C 	0.69840 0.76600 0.60330 0.01700
H 	H 	0.73620 0.78610 0.64580 0.05400
C 	C 	0.72900 0.73870 0.52430 -0.06800
C 	C 	0.67160 0.70930 0.46210 -0.04500
H 	H 	0.69030 0.69100 0.40760 0.09100
C 	C 	0.58730 0.70690 0.48040 0.07700
C 	C 	0.82200 0.74153 0.50570 0.35800
N 	N 	0.78840 0.53120 0.29100 -0.00400
N 	N 	0.48500 0.67390 0.72210 0.00700
N 	N 	0.52930 0.67620 0.40700 0.00800
N 	N 	0.04720 0.46750 0.26300 -0.00800
O 	O 	0.46640 0.65480 0.80100 -0.05900
O 	O 	0.56430 0.68320 0.78040 -0.07600
O 	O 	0.47680 0.65840 0.45900 -0.03800
O 	O 	0.54670 0.66110 0.30680 -0.06500
O 	O 	0.84600 0.49740 0.38500 -0.04000
O 	O 	0.92400 0.53790 0.51000 -0.06500
O 	O 	0.69200 0.47600 0.84300 -0.05700
O 	O 	0.72800 0.51920 0.98600 -0.06600
C 	C 	0.92480 0.58790 0.05920 0.07400
C 	C 	0.91510 0.54760 0.04830 -0.01000
C 	C 	0.90720 0.54520 0.27800 -0.05800
C 	C 	0.91090 0.58660 0.28300 0.10800
N 	N 	0.87700 0.52870 0.39400 0.00900
N 	N 	0.74300 0.48650 0.95000 -0.01700
Cu	Cu	0.91436 0.28123 0.18137 0.92700
Cu	Cu	0.06110 0.22370 0.16338 0.92100
Cu	Cu	0.98347 0.27986 0.91551 0.92200
O 	O 	0.95030 0.27368 0.72240 -0.74900
H 	H 	0.91060 0.29010 0.68240 0.27900
O 	O 	0.02290 0.16470 0.39480 -0.39900
O 	O 	0.08620 0.16874 0.22150 -0.39300
O 	O 	0.86120 0.26263 0.93260 -0.46700
O 	O 	0.81060 0.22334 0.75170 -0.41300
O 	O 	0.02210 0.27855 0.11150 -0.73100
H 	H 	0.06170 0.29570 0.14570 0.28800
O 	O 	0.55810 0.13800 0.80300 -0.04400
O 	O 	0.44980 0.16260 0.79400 -0.02600
O 	O 	0.55090 0.18180 0.13680 -0.07300
O 	O 	0.43000 0.14310 0.10500 -0.03500
O 	O 	0.21270 0.99700 0.19000 -0.04200
O 	O 	0.26900 0.05070 0.19000 -0.05600
O 	O 	0.89800 0.94220 0.25300 -0.08200
O 	O 	0.92400 0.00120 0.24300 -0.07300
O 	O 	0.16920 0.22585 0.10290 -0.40100
O 	O 	0.11880 0.25969 0.90890 -0.43800
O 	O 	0.22800 0.84710 0.46290 -0.26200
O 	O 	0.09220 0.83674 0.33720 -0.41700
C 	C 	0.06040 0.15066 0.31290 0.39700
C 	C 	0.07470 0.10730 0.32170 -0.13600
C 	C 	0.02070 0.08450 0.37900 0.01100
C 	C 	0.03190 0.04460 0.38300 0.03200
C 	C 	0.09950 0.02600 0.34250 0.04400
C 	C 	0.14440 0.04830 0.26800 0.10800
C 	C 	0.13900 0.08980 0.26900 -0.01500
C 	C 	0.11140 0.98280 0.35690 -0.04100
C 	C 	0.05000 0.95730 0.29420 0.12000
C 	C 	0.06080 0.91680 0.31090 -0.09400
H 	H 	0.01460 0.90010 0.26700 0.10300
C 	C 	0.13720 0.90220 0.38980 0.00600
C 	C 	0.20270 0.92680 0.46060 -0.09500
H 	H 	0.25540 0.91700 0.51840 0.12000
C 	C 	0.18890 0.96730 0.44460 0.12600
C 	C 	0.15330 0.85770 0.39890 0.35500
C 	C 	0.80270 0.24200 0.85380 0.36500
C 	C 	0.71130 0.23860 0.88110 -0.06600
C 	C 	0.65630 0.20790 0.82730 -0.05100
H 	H 	0.67700 0.18870 0.77860 0.09300
C 	C 	0.57170 0.20510 0.84380 0.08200
C 	C 	0.53830 0.23350 0.92000 0.02800
C 	C 	0.59500 0.26390 0.97190 -0.06700
H 	H 	0.57520 0.28310 0.02160 0.09100
C 	C 	0.68090 0.26730 0.95380 0.00900
H 	H 	0.71730 0.28850 0.98980 0.06600
C 	C 	0.44530 0.23320 0.94070 0.02400
C 	C 	0.38680 0.26330 0.88150 -0.06700
H 	H 	0.40640 0.28220 0.83000 0.08700
C 	C 	0.30160 0.26600 0.89670 0.01600
H 	H 	0.26380 0.28610 0.85420 0.05400
C 	C 	0.27100 0.23870 0.97570 -0.06900
C 	C 	0.32840 0.20930 0.03790 -0.04400
H 	H 	0.30970 0.19100 0.09240 0.09100
C 	C 	0.41270 0.20690 0.01960 0.08000
C 	C 	0.17800 0.24153 0.99430 0.35600
N 	N 	0.21160 0.03120 0.20900 -0.00300
N 	N 	0.51500 0.17390 0.77790 0.00800
N 	N 	0.47070 0.17620 0.09300 0.00700
N 	N 	0.95280 0.96750 0.23700 -0.00700
O 	O 	0.53360 0.15480 0.69900 -0.05900
O 	O 	0.43570 0.18320 0.71960 -0.07700
O 	O 	0.52320 0.15840 0.04100 -0.03800
O 	O 	0.45330 0.16110 0.19320 -0.06500
O 	O 	0.15400 0.99740 0.11500 -0.04000
O 	O 	0.07600 0.03790 0.99000 -0.06500
O 	O 	0.30800 0.97600 0.65700 -0.05700
O 	O 	0.27200 0.01920 0.51400 -0.06600
C 	C 	0.07520 0.08790 0.44080 0.07500
C 	C 	0.08490 0.04760 0.45170 -0.01000
C 	C 	0.09280 0.04520 0.22200 -0.05800
C 	C 	0.08910 0.08660 0.21700 0.10800
N 	N 	0.12300 0.02870 0.10600 0.01000
N 	N 	0.25700 0.98650 0.55000 -0.01700
Cu	Cu	0.91436 0.21877 0.68137 0.92700
Cu	Cu	0.06110 0.27630 0.66338 0.92100
Cu	Cu	0.98347 0.22014 0.41551 0.92200
O 	O 	0.95030 0.22632 0.22240 -0.74800
H 	H 	0.91060 0.20990 0.18240 0.27900
O 	O 	0.02290 0.33530 0.89480 -0.40000
O 	O 	0.08620 0.33126 0.72150 -0.39400
O 	O 	0.86120 0.23737 0.43260 -0.46600
O 	O 	0.81060 0.27666 0.25170 -0.41300
O 	O 	0.02210 0.22145 0.61150 -0.73200
H 	H 	0.06170 0.20430 0.64570 0.28800
O 	O 	0.55810 0.36200 0.30300 -0.04300
O 	O 	0.44980 0.33740 0.29400 -0.02600
O 	O 	0.55090 0.31820 0.63680 -0.07300
O 	O 	0.43000 0.35690 0.60500 -0.03500
O 	O 	0.21270 0.50300 0.69000 -0.04200
O 	O 	0.26900 0.44930 0.69000 -0.05600
O 	O 	0.89800 0.55780 0.75300 -0.08200
O 	O 	0.92400 0.49880 0.74300 -0.07300
O 	O 	0.16920 0.27415 0.60290 -0.40200
O 	O 	0.11880 0.24031 0.40890 -0.43800
O 	O 	0.22800 0.65290 0.96290 -0.26100
O 	O 	0.09220 0.66326 0.83720 -0.41700
C 	C 	0.06040 0.34934 0.81290 0.39700
C 	C 	0.07470 0.39270 0.82170 -0.13600
C 	C 	0.02070 0.41550 0.87900 0.01100
C 	C 	0.03190 0.45540 0.88300 0.03200
C 	C 	0.09950 0.47400 0.84250 0.04400
C 	C 	0.14440 0.45170 0.76800 0.10700
C 	C 	0.13900 0.41020 0.76900 -0.01500
C 	C 	0.11140 0.51720 0.85690 -0.04000
C 	C 	0.05000 0.54270 0.79420 0.12100
C 	C 	0.06080 0.58320 0.81090 -0.09400
H 	H 	0.01460 0.59990 0.76700 0.10400
C 	C 	0.13720 0.59780 0.88980 0.00500
C 	C 	0.20270 0.57320 0.96060 -0.09200
H 	H 	0.25540 0.58300 0.01840 0.11700
C 	C 	0.18890 0.53270 0.94460 0.12600
C 	C 	0.15330 0.64230 0.89890 0.35500
C 	C 	0.80270 0.25800 0.35380 0.36400
C 	C 	0.71130 0.26140 0.38110 -0.06300
C 	C 	0.65630 0.29210 0.32730 -0.05300
H 	H 	0.67700 0.31130 0.27860 0.09400
C 	C 	0.57170 0.29490 0.34380 0.08400
C 	C 	0.53830 0.26650 0.42000 0.02400
C 	C 	0.59500 0.23610 0.47190 -0.05900
H 	H 	0.57520 0.21690 0.52160 0.08600
C 	C 	0.68090 0.23270 0.45380 0.00400
H 	H 	0.71730 0.21150 0.48980 0.06800
C 	C 	0.44530 0.26680 0.44070 0.02800
C 	C 	0.38680 0.23670 0.38150 -0.06800
H 	H 	0.40640 0.21780 0.33000 0.08800
C 	C 	0.30160 0.23400 0.39670 0.01700
H 	H 	0.26380 0.21390 0.35420 0.05400
C 	C 	0.27100 0.26130 0.47570 -0.06800
C 	C 	0.32840 0.29070 0.53790 -0.04500
H 	H 	0.30970 0.30900 0.59240 0.09100
C 	C 	0.41270 0.29310 0.51960 0.07700
C 	C 	0.17800 0.25847 0.49430 0.35800
N 	N 	0.21160 0.46880 0.70900 -0.00400
N 	N 	0.51500 0.32610 0.27790 0.00700
N 	N 	0.47070 0.32380 0.59300 0.00800
N 	N 	0.95280 0.53250 0.73700 -0.00800
O 	O 	0.53360 0.34520 0.19900 -0.05900
O 	O 	0.43570 0.31680 0.21960 -0.07600
O 	O 	0.52320 0.34160 0.54100 -0.03800
O 	O 	0.45330 0.33890 0.69320 -0.06500
O 	O 	0.15400 0.50260 0.61500 -0.04000
O 	O 	0.07600 0.46210 0.49000 -0.06500
O 	O 	0.30800 0.52400 0.15700 -0.05700
O 	O 	0.27200 0.48080 0.01400 -0.06600
C 	C 	0.07520 0.41210 0.94080 0.07400
C 	C 	0.08490 0.45240 0.95170 -0.01000
C 	C 	0.09280 0.45480 0.72200 -0.05800
C 	C 	0.08910 0.41340 0.71700 0.10800
N 	N 	0.12300 0.47130 0.60600 0.00900
N 	N 	0.25700 0.51350 0.05000 -0.01700
Cu	Cu	0.08564 0.71877 0.81863 0.92700
Cu	Cu	0.93890 0.77630 0.83662 0.92100
Cu	Cu	0.01653 0.72014 0.08449 0.92200
O 	O 	0.04970 0.72632 0.27760 -0.74900
H 	H 	0.08940 0.70990 0.31760 0.27900
O 	O 	0.97710 0.83530 0.60520 -0.39900
O 	O 	0.91380 0.83126 0.77850 -0.39300
O 	O 	0.13880 0.73737 0.06740 -0.46700
O 	O 	0.18940 0.77666 0.24830 -0.41300
O 	O 	0.97790 0.72145 0.88850 -0.73100
H 	H 	0.93830 0.70430 0.85430 0.28800
O 	O 	0.44190 0.86200 0.19700 -0.04400
O 	O 	0.55020 0.83740 0.20600 -0.02600
O 	O 	0.44910 0.81820 0.86320 -0.07300
O 	O 	0.57000 0.85690 0.89500 -0.03500
O 	O 	0.78730 0.00300 0.81000 -0.04200
O 	O 	0.73100 0.94930 0.81000 -0.05600
O 	O 	0.10200 0.05780 0.74700 -0.08200
O 	O 	0.07600 0.99880 0.75700 -0.07300
O 	O 	0.83080 0.77415 0.89710 -0.40100
O 	O 	0.88120 0.74031 0.09110 -0.43800
O 	O 	0.77200 0.15290 0.53710 -0.26200
O 	O 	0.90780 0.16326 0.66280 -0.41700
C 	C 	0.93960 0.84934 0.68710 0.39700
C 	C 	0.92530 0.89270 0.67830 -0.13600
C 	C 	0.97930 0.91550 0.62100 0.01100
C 	C 	0.96810 0.95540 0.61700 0.03200
C 	C 	0.90050 0.97400 0.65750 0.04400
C 	C 	0.85560 0.95170 0.73200 0.10800
C 	C 	0.86100 0.91020 0.73100 -0.01500
C 	C 	0.88860 0.01720 0.64310 -0.04100
C 	C 	0.95000 0.04270 0.70580 0.12000
C 	C 	0.93920 0.08320 0.68910 -0.09400
H 	H 	0.98540 0.09990 0.73300 0.10300
C 	C 	0.86280 0.09780 0.61020 0.00600
C 	C 	0.79730 0.07320 0.53940 -0.09500
H 	H 	0.74460 0.08300 0.48160 0.12000
C 	C 	0.81110 0.03270 0.55540 0.12600
C 	C 	0.84670 0.14230 0.60110 0.35500
C 	C 	0.19730 0.75800 0.14620 0.36500
C 	C 	0.28870 0.76140 0.11890 -0.06600
C 	C 	0.34370 0.79210 0.17270 -0.05100
H 	H 	0.32300 0.81130 0.22140 0.09300
C 	C 	0.42830 0.79490 0.15620 0.08200
C 	C 	0.46170 0.76650 0.08000 0.02800
C 	C 	0.40500 0.73610 0.02810 -0.06700
H 	H 	0.42480 0.71690 0.97840 0.09100
C 	C 	0.31910 0.73270 0.04620 0.00900
H 	H 	0.28270 0.71150 0.01020 0.06600
C 	C 	0.55470 0.76680 0.05930 0.02400
C 	C 	0.61320 0.73670 0.11850 -0.06700
H 	H 	0.59360 0.71780 0.17000 0.08700
C 	C 	0.69840 0.73400 0.10330 0.01600
H 	H 	0.73620 0.71390 0.14580 0.05400
C 	C 	0.72900 0.76130 0.02430 -0.06900
C 	C 	0.67160 0.79070 0.96210 -0.04400
H 	H 	0.69030 0.80900 0.90760 0.09100
C 	C 	0.58730 0.79310 0.98040 0.08000
C 	C 	0.82200 0.75847 0.00570 0.35600
N 	N 	0.78840 0.96880 0.79100 -0.00300
N 	N 	0.48500 0.82610 0.22210 0.00800
N 	N 	0.52930 0.82380 0.90700 0.00700
N 	N 	0.04720 0.03250 0.76300 -0.00700
O 	O 	0.46640 0.84520 0.30100 -0.05900
O 	O 	0.56430 0.81680 0.28040 -0.07700
O 	O 	0.47680 0.84160 0.95900 -0.03800
O 	O 	0.54670 0.83890 0.80680 -0.06500
O 	O 	0.84600 0.00260 0.88500 -0.04000
O 	O 	0.92400 0.96210 0.01000 -0.06500
O 	O 	0.69200 0.02400 0.34300 -0.05700
O 	O 	0.72800 0.98080 0.48600 -0.06600
C 	C 	0.92480 0.91210 0.55920 0.07500
C 	C 	0.91510 0.95240 0.54830 -0.01000
C 	C 	0.90720 0.95480 0.77800 -0.05800
C 	C 	0.91090 0.91340 0.78300 0.10800
N 	N 	0.87700 0.97130 0.89400 0.01000
N 	N 	0.74300 0.01350 0.45000 -0.01700
