data_crystal

_cell_length_a 9.29870
_cell_length_b 16.67000
_cell_length_c 11.41890
_cell_angle_alpha 90.00000
_cell_angle_beta  108.48100
_cell_angle_gamma 90.00000

_symmetry_space_group_name_	'P 1'
_symmetry_space_group_name_H-M	'P 1'

loop_
_symmetry_equiv_pos_as_xyz
  x,y,z

loop_
_atom_site_label
_atom_site_type_symbol
_atom_site_fract_x
_atom_site_fract_y
_atom_site_fract_z
_atom_site_charge
Zn	Zn	0.62127 0.09336 0.95985 1.23800
C 	C 	0.96330 0.90540 0.18360 0.06500
H 	H 	0.97770 0.94620 0.13300 0.05100
O 	O 	0.23150 0.90850 0.12840 -0.42800
C 	C 	0.82230 0.89710 0.20040 -0.12700
O 	O 	0.72680 0.00500 0.06840 -0.44600
O 	O 	0.57210 0.94680 0.15690 -0.46000
C 	C 	0.69660 0.95400 0.13690 0.40900
C 	C 	0.91810 0.78330 0.33170 -0.10000
C 	C 	0.23360 0.86450 0.21890 0.36100
O 	O 	0.99200 0.66440 0.44750 -0.41600
C 	C 	0.80080 0.83550 0.27450 0.06100
H 	H 	0.70690 0.82910 0.28610 0.04400
C 	C 	0.05750 0.79310 0.31620 0.05000
H 	H 	0.13660 0.75880 0.35620 0.05400
O 	O 	0.77350 0.71100 0.43520 -0.34900
C 	C 	0.08180 0.85500 0.23990 -0.10000
O 	O 	0.34500 0.82840 0.28470 -0.26700
C 	C 	0.89230 0.71450 0.41070 0.35200
Zn	Zn	0.87873 0.59336 0.54015 1.24100
C 	C 	0.53670 0.40540 0.31640 0.06700
H 	H 	0.52230 0.44620 0.36700 0.05200
O 	O 	0.26850 0.40850 0.37160 -0.42500
C 	C 	0.67770 0.39710 0.29960 -0.12900
O 	O 	0.77320 0.50500 0.43160 -0.45700
O 	O 	0.92790 0.44680 0.34310 -0.46000
C 	C 	0.80340 0.45400 0.36310 0.42000
C 	C 	0.58190 0.28330 0.16830 -0.09900
C 	C 	0.26640 0.36450 0.28110 0.36100
O 	O 	0.50800 0.16440 0.05250 -0.41200
C 	C 	0.69920 0.33550 0.22550 0.06200
H 	H 	0.79310 0.32910 0.21390 0.04500
C 	C 	0.44250 0.29310 0.18380 0.04900
H 	H 	0.36340 0.25880 0.14380 0.05500
O 	O 	0.72650 0.21100 0.06480 -0.34600
C 	C 	0.41820 0.35500 0.26010 -0.10000
O 	O 	0.15500 0.32840 0.21530 -0.26700
C 	C 	0.60770 0.21450 0.08930 0.35100
Zn	Zn	0.37873 0.90664 0.04015 1.23800
C 	C 	0.03670 0.09460 0.81640 0.06500
H 	H 	0.02230 0.05380 0.86700 0.05100
O 	O 	0.76850 0.09150 0.87160 -0.42800
C 	C 	0.17770 0.10290 0.79960 -0.12700
O 	O 	0.27320 0.99500 0.93160 -0.44600
O 	O 	0.42790 0.05320 0.84310 -0.46000
C 	C 	0.30340 0.04600 0.86310 0.40900
C 	C 	0.08190 0.21670 0.66830 -0.10000
C 	C 	0.76640 0.13550 0.78110 0.36100
O 	O 	0.00800 0.33560 0.55250 -0.41600
C 	C 	0.19920 0.16450 0.72550 0.06100
H 	H 	0.29310 0.17090 0.71390 0.04400
C 	C 	0.94250 0.20690 0.68380 0.05000
H 	H 	0.86340 0.24120 0.64380 0.05400
O 	O 	0.22650 0.28900 0.56480 -0.34900
C 	C 	0.91820 0.14500 0.76010 -0.10000
O 	O 	0.65500 0.17160 0.71530 -0.26700
C 	C 	0.10770 0.28550 0.58930 0.35200
Zn	Zn	0.12127 0.40664 0.45985 1.24100
C 	C 	0.46330 0.59460 0.68360 0.06700
H 	H 	0.47770 0.55380 0.63300 0.05200
O 	O 	0.73150 0.59150 0.62840 -0.42500
C 	C 	0.32230 0.60290 0.70040 -0.12900
O 	O 	0.22680 0.49500 0.56840 -0.45700
O 	O 	0.07210 0.55320 0.65690 -0.46000
C 	C 	0.19660 0.54600 0.63690 0.42000
C 	C 	0.41810 0.71670 0.83170 -0.09900
C 	C 	0.73360 0.63550 0.71890 0.36100
O 	O 	0.49200 0.83560 0.94750 -0.41200
C 	C 	0.30080 0.66450 0.77450 0.06200
H 	H 	0.20690 0.67090 0.78610 0.04500
C 	C 	0.55750 0.70690 0.81620 0.04900
H 	H 	0.63660 0.74120 0.85620 0.05500
O 	O 	0.27350 0.78900 0.93520 -0.34600
C 	C 	0.58180 0.64500 0.73990 -0.10000
O 	O 	0.84500 0.67160 0.78470 -0.26700
C 	C 	0.39230 0.78550 0.91070 0.35100
