data_crystal

_cell_length_a 12.61770
_cell_length_b 12.58690
_cell_length_c 28.56100
_cell_angle_alpha 90.00000
_cell_angle_beta  96.84300
_cell_angle_gamma 90.00000

_symmetry_space_group_name_	'P 1'
_symmetry_space_group_name_H-M	'P 1'

loop_
_symmetry_equiv_pos_as_xyz
  x,y,z

loop_
_atom_site_label
_atom_site_type_symbol
_atom_site_fract_x
_atom_site_fract_y
_atom_site_fract_z
_atom_site_charge
Cd	Cd	0.56515 0.33110 0.61116 1.18900
Cd	Cd	0.35594 0.54012 0.60874 1.19200
O 	O 	0.44200 0.42810 0.56360 -0.62300
N 	N 	0.97580 0.06600 0.84640 -0.16500
N 	N 	0.52740 0.76580 0.53310 -0.09900
N 	N 	0.90000 0.99110 0.84520 -0.14900
N 	N 	0.94550 0.13680 0.81200 -0.09400
N 	N 	0.67940 0.24320 0.67000 -0.23400
N 	N 	0.32290 0.52880 0.46090 -0.16900
N 	N 	0.52480 0.15960 0.57900 -0.24600
N 	N 	0.08000 0.81250 0.84140 -0.15600
N 	N 	0.21300 0.87030 0.80760 -0.09400
N 	N 	0.39020 0.78350 0.57420 -0.10400
N 	N 	0.48200 0.66870 0.53620 -0.17100
N 	N 	0.20140 0.62920 0.42360 -0.10900
N 	N 	0.15180 0.88790 0.84200 -0.15500
N 	N 	0.40200 0.68050 0.56130 -0.17200
C 	C 	0.85270 0.10110 0.79190 0.09700
N 	N 	0.82140 0.01240 0.81210 -0.10500
C 	C 	0.15800 0.54370 0.44320 0.11200
C 	C 	0.17410 0.77940 0.78740 0.09200
N 	N 	0.09230 0.74260 0.80870 -0.10000
C 	C 	0.83020 0.24340 0.72930 -0.11800
H 	H 	0.89140 0.27750 0.74320 0.08100
N 	N 	0.28080 0.64350 0.66430 -0.23300
C 	C 	0.79300 0.15020 0.75030 0.04800
C 	C 	0.69390 0.11100 0.73110 -0.12500
H 	H 	0.66250 0.05430 0.74510 0.07600
N 	N 	0.23030 0.48120 0.46630 -0.11000
C 	C 	0.96990 0.60820 0.42250 -0.05800
H 	H 	0.99620 0.67510 0.41620 0.06300
N 	N 	0.30470 0.61530 0.43630 -0.17000
C 	C 	0.04000 0.52900 0.43740 -0.02700
C 	C 	0.60030 0.09970 0.56330 0.06200
H 	H 	0.66450 0.13160 0.55840 -0.01100
C 	C 	0.41210 0.01080 0.57710 -0.22600
H 	H 	0.34610 0.98260 0.58190 0.12800
C 	C 	0.49160 0.94430 0.56220 0.09900
C 	C 	0.77610 0.28290 0.68870 0.06500
H 	H 	0.80610 0.33850 0.67340 0.00200
N 	N 	0.82060 0.49310 0.42290 -0.22200
C 	C 	0.43200 0.11670 0.58450 0.12200
H 	H 	0.37820 0.15970 0.59360 -0.03200
C 	C 	0.58750 0.99250 0.55400 -0.12000
H 	H 	0.64140 0.95330 0.54260 0.08400
C 	C 	0.21390 0.73260 0.74670 0.04800
C 	C 	0.47020 0.83170 0.55610 0.08100
C 	C 	0.16500 0.64220 0.72500 -0.11900
H 	H 	0.10830 0.61030 0.73760 0.07500
C 	C 	0.88740 0.41510 0.43830 0.02700
H 	H 	0.85910 0.34910 0.44450 0.00600
C 	C 	0.29610 0.77750 0.72460 -0.11800
H 	H 	0.32910 0.83950 0.73660 0.08100
C 	C 	0.64380 0.15780 0.69100 0.07400
H 	H 	0.58020 0.12770 0.67740 -0.01100
C 	C 	0.19950 0.60090 0.68550 0.06400
H 	H 	0.16590 0.54040 0.67240 -0.00500
C 	C 	0.86320 0.59150 0.41680 0.03000
H 	H 	0.81760 0.64830 0.40840 0.00700
C 	C 	0.32890 0.73040 0.68490 0.06700
H 	H 	0.38630 0.75980 0.67190 0.00300
C 	C 	0.99490 0.42780 0.44510 -0.02300
H 	H 	0.03890 0.37060 0.45480 0.03100
Cd	Cd	0.93485 0.83110 0.88884 1.19200
Cd	Cd	0.14406 0.04012 0.89126 1.18300
O 	O 	0.05800 0.92810 0.93640 -0.60900
N 	N 	0.52420 0.56600 0.65360 -0.16500
N 	N 	0.97260 0.26580 0.96690 -0.08000
N 	N 	0.60000 0.49110 0.65480 -0.16200
N 	N 	0.55450 0.63680 0.68800 -0.09700
N 	N 	0.82060 0.74320 0.83000 -0.23200
N 	N 	0.17710 0.02880 0.03910 -0.18700
N 	N 	0.97520 0.65960 0.92100 -0.22200
N 	N 	0.42000 0.31250 0.65860 -0.15500
N 	N 	0.28700 0.37030 0.69240 -0.09900
N 	N 	0.10980 0.28350 0.92580 -0.10600
N 	N 	0.01800 0.16870 0.96380 -0.17900
N 	N 	0.29860 0.12920 0.07640 -0.10500
N 	N 	0.34820 0.38790 0.65800 -0.15900
N 	N 	0.09800 0.18050 0.93870 -0.17300
C 	C 	0.64730 0.60110 0.70810 0.09900
N 	N 	0.67860 0.51240 0.68790 -0.09700
C 	C 	0.34200 0.04370 0.05680 0.07600
C 	C 	0.32590 0.27940 0.71260 0.09000
N 	N 	0.40770 0.24260 0.69130 -0.09900
C 	C 	0.66980 0.74340 0.77070 -0.11700
H 	H 	0.60860 0.77750 0.75680 0.08000
N 	N 	0.21920 0.14350 0.83570 -0.23600
C 	C 	0.70700 0.65020 0.74970 0.04900
C 	C 	0.80610 0.61100 0.76890 -0.12300
H 	H 	0.83750 0.55430 0.75490 0.08300
N 	N 	0.26970 0.98120 0.03370 -0.08800
C 	C 	0.53010 0.10820 0.07750 -0.10400
H 	H 	0.50380 0.17510 0.08380 0.06900
N 	N 	0.19530 0.11530 0.06370 -0.17500
C 	C 	0.46000 0.02900 0.06260 0.01800
C 	C 	0.89970 0.59970 0.93670 0.06500
H 	H 	0.83550 0.63160 0.94160 -0.00500
C 	C 	0.08790 0.51080 0.92290 -0.11000
H 	H 	0.15390 0.48260 0.91810 0.07600
C 	C 	0.00840 0.44430 0.93780 0.02600
C 	C 	0.72390 0.78290 0.81130 0.06600
H 	H 	0.69390 0.83850 0.82660 0.00400
N 	N 	0.67940 0.99310 0.07710 -0.22200
C 	C 	0.06800 0.61670 0.91550 0.05300
H 	H 	0.12180 0.65970 0.90640 -0.00400
C 	C 	0.91250 0.49250 0.94600 -0.08900
H 	H 	0.85860 0.45330 0.95740 0.07500
C 	C 	0.28610 0.23260 0.75330 0.04500
C 	C 	0.02980 0.33170 0.94390 0.08700
C 	C 	0.33500 0.14220 0.77500 -0.12200
H 	H 	0.39170 0.11030 0.76240 0.07400
C 	C 	0.61260 0.91510 0.06170 0.06000
H 	H 	0.64090 0.84910 0.05550 -0.01100
C 	C 	0.20390 0.27750 0.77540 -0.12000
H 	H 	0.17090 0.33950 0.76340 0.07500
C 	C 	0.85620 0.65780 0.80900 0.07500
H 	H 	0.91980 0.62770 0.82260 -0.00400
C 	C 	0.30050 0.10090 0.81450 0.06200
H 	H 	0.33410 0.04040 0.82760 -0.01000
C 	C 	0.63680 0.09150 0.08320 0.02900
H 	H 	0.68240 0.14830 0.09160 0.00200
C 	C 	0.17110 0.23040 0.81510 0.06400
H 	H 	0.11370 0.25980 0.82810 -0.00300
C 	C 	0.50510 0.92780 0.05490 -0.08900
H 	H 	0.46110 0.87060 0.04520 0.06600
Cd	Cd	0.43485 0.66890 0.38884 1.18800
Cd	Cd	0.64406 0.45988 0.39126 1.19100
O 	O 	0.55800 0.57190 0.43640 -0.62400
N 	N 	0.02420 0.93400 0.15360 -0.15900
N 	N 	0.47260 0.23420 0.46690 -0.10400
N 	N 	0.10000 0.00890 0.15480 -0.18600
N 	N 	0.05450 0.86320 0.18800 -0.10000
N 	N 	0.32060 0.75680 0.33000 -0.23400
N 	N 	0.67710 0.47120 0.53910 -0.16800
N 	N 	0.47520 0.84040 0.42100 -0.23600
N 	N 	0.92000 0.18750 0.15860 -0.15000
N 	N 	0.78700 0.12970 0.19240 -0.10100
N 	N 	0.60980 0.21650 0.42580 -0.11000
N 	N 	0.51800 0.33130 0.46380 -0.17100
N 	N 	0.79860 0.37080 0.57640 -0.09900
N 	N 	0.84820 0.11210 0.15800 -0.16100
N 	N 	0.59800 0.31950 0.43870 -0.17200
C 	C 	0.14730 0.89890 0.20810 0.09900
N 	N 	0.17860 0.98760 0.18790 -0.08400
C 	C 	0.84200 0.45630 0.55680 0.06800
C 	C 	0.82590 0.22060 0.21260 0.09200
N 	N 	0.90770 0.25740 0.19130 -0.09400
C 	C 	0.16980 0.75660 0.27070 -0.11800
H 	H 	0.10860 0.72250 0.25680 0.07400
N 	N 	0.71920 0.35650 0.33570 -0.23200
C 	C 	0.20700 0.84980 0.24970 0.04900
C 	C 	0.30610 0.88900 0.26890 -0.12500
H 	H 	0.33750 0.94570 0.25490 0.08400
N 	N 	0.76970 0.51880 0.53370 -0.09900
C 	C 	0.03010 0.39180 0.57750 -0.20100
H 	H 	0.00380 0.32490 0.58380 0.09600
N 	N 	0.69530 0.38470 0.56370 -0.16900
C 	C 	0.96000 0.47100 0.56260 0.13700
C 	C 	0.39970 0.90030 0.43670 0.10000
H 	H 	0.33550 0.86840 0.44160 -0.01900
C 	C 	0.58790 0.98920 0.42290 -0.05700
H 	H 	0.65390 0.01740 0.41810 0.04500
C 	C 	0.50840 0.05570 0.43780 0.01800
C 	C 	0.22390 0.71710 0.31130 0.06400
H 	H 	0.19390 0.66150 0.32660 -0.00100
N 	N 	0.17940 0.50690 0.57710 -0.25500
C 	C 	0.56800 0.88330 0.41550 0.04800
H 	H 	0.62180 0.84030 0.40640 0.00000
C 	C 	0.41250 0.00750 0.44600 -0.14600
H 	H 	0.35860 0.04670 0.45740 0.08100
C 	C 	0.78610 0.26740 0.25330 0.04700
C 	C 	0.52980 0.16830 0.44390 0.10200
C 	C 	0.83500 0.35780 0.27500 -0.11900
H 	H 	0.89170 0.38970 0.26240 0.08100
C 	C 	0.11260 0.58490 0.56170 0.13200
H 	H 	0.14090 0.65090 0.55550 -0.03400
C 	C 	0.70390 0.22250 0.27540 -0.11800
H 	H 	0.67090 0.16050 0.26340 0.07400
C 	C 	0.35620 0.84220 0.30900 0.07500
H 	H 	0.41980 0.87230 0.32260 -0.00600
C 	C 	0.80050 0.39910 0.31450 0.06500
H 	H 	0.83410 0.45960 0.32760 -0.00100
C 	C 	0.13680 0.40850 0.58320 0.10300
H 	H 	0.18240 0.35170 0.59160 -0.02200
C 	C 	0.67110 0.26960 0.31510 0.06600
H 	H 	0.61370 0.24020 0.32810 -0.00000
C 	C 	0.00510 0.57220 0.55490 -0.23000
H 	H 	0.96110 0.62940 0.54520 0.12700
Cd	Cd	0.06515 0.16890 0.11116 1.18100
Cd	Cd	0.85594 0.95988 0.10874 1.19500
O 	O 	0.94200 0.07190 0.06360 -0.62200
N 	N 	0.47580 0.43400 0.34640 -0.16600
N 	N 	0.02740 0.73420 0.03310 -0.11700
N 	N 	0.40000 0.50890 0.34520 -0.16300
N 	N 	0.44550 0.36320 0.31200 -0.09900
N 	N 	0.17940 0.25680 0.17000 -0.23700
N 	N 	0.82290 0.97120 0.96090 -0.15200
N 	N 	0.02480 0.34040 0.07900 -0.26300
N 	N 	0.58000 0.68750 0.34140 -0.15400
N 	N 	0.71300 0.62970 0.30760 -0.09800
N 	N 	0.89020 0.71650 0.07420 -0.10800
N 	N 	0.98200 0.83130 0.03620 -0.16200
N 	N 	0.70140 0.87080 0.92360 -0.10300
N 	N 	0.65180 0.61210 0.34200 -0.15900
N 	N 	0.90200 0.81950 0.06130 -0.17100
C 	C 	0.35270 0.39890 0.29190 0.09600
N 	N 	0.32140 0.48760 0.31210 -0.09800
C 	C 	0.65800 0.95630 0.94320 0.09600
C 	C 	0.67410 0.72060 0.28740 0.09300
N 	N 	0.59230 0.75740 0.30870 -0.09700
C 	C 	0.33020 0.25660 0.22930 -0.12000
H 	H 	0.39140 0.22250 0.24320 0.07500
N 	N 	0.78080 0.85650 0.16430 -0.23000
C 	C 	0.29300 0.34980 0.25030 0.04600
C 	C 	0.19390 0.38900 0.23110 -0.12700
H 	H 	0.16250 0.44570 0.24510 0.07700
N 	N 	0.73030 0.01880 0.96630 -0.11300
C 	C 	0.46990 0.89180 0.92250 -0.16300
H 	H 	0.49620 0.82490 0.91620 0.09500
N 	N 	0.80470 0.88470 0.93630 -0.16600
C 	C 	0.54000 0.97100 0.93740 0.10000
C 	C 	0.10030 0.40030 0.06330 0.09200
H 	H 	0.16450 0.36840 0.05840 -0.02400
C 	C 	0.91210 0.48920 0.07710 -0.16200
H 	H 	0.84610 0.51740 0.08190 0.09000
C 	C 	0.99160 0.55570 0.06220 0.08700
C 	C 	0.27610 0.21710 0.18870 0.06100
H 	H 	0.30610 0.16150 0.17340 -0.00300
N 	N 	0.32060 0.00690 0.92290 -0.26100
C 	C 	0.93200 0.38330 0.08450 0.11900
H 	H 	0.87820 0.34030 0.09360 -0.02700
C 	C 	0.08750 0.50750 0.05400 -0.17200
H 	H 	0.14140 0.54670 0.04260 0.09000
C 	C 	0.71390 0.76740 0.24670 0.04800
C 	C 	0.97020 0.66830 0.05610 0.09400
C 	C 	0.66500 0.85780 0.22500 -0.11700
H 	H 	0.60830 0.88970 0.23760 0.08000
C 	C 	0.38740 0.08490 0.93830 0.10500
H 	H 	0.35910 0.15090 0.94450 -0.02000
C 	C 	0.79610 0.72250 0.22460 -0.11700
H 	H 	0.82910 0.66050 0.23660 0.07900
C 	C 	0.14380 0.34220 0.19100 0.07200
H 	H 	0.08020 0.37230 0.17740 -0.01400
C 	C 	0.69950 0.89910 0.18550 0.06500
H 	H 	0.66590 0.95960 0.17240 0.00300
C 	C 	0.36320 0.90850 0.91680 0.11400
H 	H 	0.31760 0.85170 0.90840 -0.01900
C 	C 	0.82890 0.76960 0.18490 0.06700
H 	H 	0.88630 0.74020 0.17190 0.00400
C 	C 	0.49490 0.07220 0.94510 -0.17700
H 	H 	0.53890 0.12940 0.95480 0.10000
Cd	Cd	0.50000 0.50000 0.50000 1.19000
Cd	Cd	-0.00000 0.00000 -0.00000 1.16800
