data_crystal

_cell_length_a 8.64290
_cell_length_b 8.88480
_cell_length_c 15.45040
_cell_angle_alpha 90.00000
_cell_angle_beta  90.00000
_cell_angle_gamma 90.00000

_symmetry_space_group_name_	'P 1'
_symmetry_space_group_name_H-M	'P 1'

loop_
_symmetry_equiv_pos_as_xyz
  x,y,z

loop_
_atom_site_label
_atom_site_type_symbol
_atom_site_fract_x
_atom_site_fract_y
_atom_site_fract_z
_atom_site_charge
Zn	Zn	0.45148 0.25548 0.87354 1.18100
H 	H 	0.05600 0.14600 0.83300 -0.00400
C 	C 	0.12080 0.12730 0.78930 0.11500
C 	C 	0.21830 0.98980 0.68310 0.01200
C 	C 	0.21820 0.90520 0.60250 0.11000
C 	C 	0.33520 0.04560 0.73380 -0.03100
C 	C 	0.50160 0.03810 0.73250 0.08800
N 	N 	0.27320 0.13290 0.80020 -0.22800
N 	N 	0.08320 0.04010 0.72060 -0.14900
N 	N 	0.09480 0.89260 0.55250 -0.10300
N 	N 	0.14800 0.81040 0.48650 -0.19400
N 	N 	0.29350 0.77590 0.49540 -0.08400
N 	N 	0.34140 0.83450 0.57020 -0.22100
N 	N 	0.57900 0.12870 0.78600 -0.22500
N 	N 	0.73070 0.09960 0.77340 -0.05600
N 	N 	0.74300 0.99350 0.71420 -0.06800
N 	N 	0.59840 0.95400 0.68690 -0.23600
H 	H 	0.45983 0.47905 0.29605 0.09200
Zn	Zn	0.04852 0.74452 0.37354 1.18100
H 	H 	0.44400 0.85400 0.33300 -0.00500
C 	C 	0.37920 0.87270 0.28930 0.11500
C 	C 	0.28170 0.01020 0.18310 0.01900
C 	C 	0.28180 0.09480 0.10250 0.10800
C 	C 	0.16480 0.95440 0.23380 -0.03900
C 	C 	0.99840 0.96190 0.23250 0.09600
N 	N 	0.22680 0.86710 0.30020 -0.22700
N 	N 	0.41680 0.95990 0.22060 -0.15300
N 	N 	0.40520 0.10740 0.05250 -0.10100
N 	N 	0.35200 0.18960 0.98650 -0.19400
N 	N 	0.20650 0.22410 0.99540 -0.08500
N 	N 	0.15860 0.16550 0.07020 -0.22000
N 	N 	0.92100 0.87130 0.28600 -0.22500
N 	N 	0.76930 0.90040 0.27340 -0.05400
N 	N 	0.75700 0.00650 0.21420 -0.07100
N 	N 	0.90160 0.04600 0.18690 -0.23900
H 	H 	0.04017 0.52095 0.79605 0.09200
Zn	Zn	0.54852 0.75548 0.62646 1.18100
H 	H 	0.94400 0.64600 0.66700 -0.00400
C 	C 	0.87920 0.62730 0.71070 0.11500
C 	C 	0.78170 0.48980 0.81690 0.01600
C 	C 	0.78180 0.40520 0.89750 0.10900
C 	C 	0.66480 0.54560 0.76620 -0.03300
C 	C 	0.49840 0.53810 0.76750 0.08900
N 	N 	0.72680 0.63290 0.69980 -0.22700
N 	N 	0.91680 0.54010 0.77940 -0.15100
N 	N 	0.90520 0.39260 0.94750 -0.10100
N 	N 	0.85200 0.31040 0.01350 -0.19400
N 	N 	0.70650 0.27590 0.00460 -0.08400
N 	N 	0.65860 0.33450 0.92980 -0.22100
N 	N 	0.42100 0.62870 0.71400 -0.22500
N 	N 	0.26930 0.59960 0.72660 -0.05500
N 	N 	0.25700 0.49350 0.78580 -0.06900
N 	N 	0.40160 0.45400 0.81310 -0.23600
H 	H 	0.54017 0.97905 0.20395 0.09300
Zn	Zn	0.95148 0.24452 0.12646 1.18100
H 	H 	0.55600 0.35400 0.16700 -0.00400
C 	C 	0.62080 0.37270 0.21070 0.11500
C 	C 	0.71830 0.51020 0.31690 0.01600
C 	C 	0.71820 0.59480 0.39750 0.10900
C 	C 	0.83520 0.45440 0.26620 -0.03400
C 	C 	0.00160 0.46190 0.26750 0.09100
N 	N 	0.77320 0.36710 0.19980 -0.22700
N 	N 	0.58320 0.45990 0.27940 -0.15200
N 	N 	0.59480 0.60740 0.44750 -0.10200
N 	N 	0.64800 0.68960 0.51350 -0.19400
N 	N 	0.79350 0.72410 0.50460 -0.08400
N 	N 	0.84140 0.66550 0.42980 -0.22100
N 	N 	0.07900 0.37130 0.21400 -0.22400
N 	N 	0.23070 0.40040 0.22660 -0.05500
N 	N 	0.24300 0.50650 0.28580 -0.06900
N 	N 	0.09840 0.54600 0.31310 -0.23700
H 	H 	0.95983 0.02095 0.70395 0.09100
