data_crystal

_cell_length_a 12.08640
_cell_length_b 12.96620
_cell_length_c 21.57800
_cell_angle_alpha 90.00000
_cell_angle_beta  90.00000
_cell_angle_gamma 115.30900

_symmetry_space_group_name_	'P 1'
_symmetry_space_group_name_H-M	'P 1'

loop_
_symmetry_equiv_pos_as_xyz
  x,y,z

loop_
_atom_site_label
_atom_site_type_symbol
_atom_site_fract_x
_atom_site_fract_y
_atom_site_fract_z
_atom_site_charge
Cu	Cu	0.01725 0.10985 0.09381 0.88000
Cu	Cu	0.27170 0.69498 0.28900 0.86800
Cu	Cu	0.15328 0.57970 0.99527 0.90700
Cu	Cu	0.48275 0.39015 0.59381 0.88200
Cu	Cu	0.22830 0.80502 0.78900 0.86900
Cu	Cu	0.34672 0.92030 0.49527 0.90700
Cu	Cu	0.98275 0.89015 0.90619 0.88100
Cu	Cu	0.72830 0.30502 0.71100 0.86900
Cu	Cu	0.84672 0.42030 0.00473 0.90700
Cu	Cu	0.51725 0.60985 0.40619 0.88200
Cu	Cu	0.77170 0.19498 0.21100 0.86900
Cu	Cu	0.65328 0.07970 0.50473 0.90700
H 	H 	0.63300 0.94440 0.14340 0.10600
H 	H 	0.61050 0.94730 0.07220 0.12600
H 	H 	0.61320 0.76320 0.18900 0.12600
H 	H 	0.52440 0.65160 0.15510 0.12700
H 	H 	0.62360 0.94900 0.92240 0.13400
H 	H 	0.65140 0.94160 0.85210 0.13800
H 	H 	0.49880 0.65460 0.83680 0.13700
H 	H 	0.58130 0.76790 0.80240 0.13800
H 	H 	0.21570 0.33420 0.94560 0.15100
H 	H 	0.33870 0.42140 0.91660 0.15200
H 	H 	0.29760 0.45170 0.08720 0.14300
H 	H 	0.26100 0.33870 0.04940 0.15800
H 	H 	0.27460 0.89140 0.01340 0.06000
H 	H 	0.34880 0.82410 0.03620 0.05100
H 	H 	0.20320 0.80280 0.11200 0.08000
H 	H 	0.09780 0.76080 0.06220 0.06200
H 	H 	0.29270 0.75420 0.94230 0.13000
H 	H 	0.17320 0.75680 0.94560 0.12200
H 	H 	0.09510 0.60170 0.10180 0.12300
H 	H 	0.22820 0.64410 0.10050 0.11900
H 	H 	0.86700 0.55560 0.64340 0.10600
H 	H 	0.88950 0.55270 0.57220 0.12600
H 	H 	0.88680 0.73680 0.68900 0.12600
H 	H 	0.97560 0.84840 0.65510 0.12700
H 	H 	0.87640 0.55100 0.42240 0.13600
H 	H 	0.84860 0.55840 0.35210 0.14000
H 	H 	0.00120 0.84540 0.33680 0.14200
H 	H 	0.91870 0.73210 0.30240 0.14100
H 	H 	0.28430 0.16580 0.44560 0.15100
H 	H 	0.16130 0.07860 0.41660 0.15100
H 	H 	0.20240 0.04830 0.58720 0.14200
H 	H 	0.23900 0.16130 0.54940 0.15800
H 	H 	0.22540 0.60860 0.51340 0.05900
H 	H 	0.15120 0.67590 0.53620 0.05200
H 	H 	0.29680 0.69720 0.61200 0.07900
H 	H 	0.40220 0.73920 0.56220 0.06100
H 	H 	0.20730 0.74580 0.44230 0.13000
H 	H 	0.32680 0.74320 0.44560 0.12200
H 	H 	0.40490 0.89830 0.60180 0.12200
H 	H 	0.27180 0.85590 0.60050 0.11900
H 	H 	0.36700 0.05560 0.85660 0.10600
H 	H 	0.38950 0.05270 0.92780 0.12600
H 	H 	0.38680 0.23680 0.81100 0.12600
H 	H 	0.47560 0.34840 0.84490 0.12700
H 	H 	0.37640 0.05100 0.07760 0.13400
H 	H 	0.34860 0.05840 0.14790 0.13800
H 	H 	0.50120 0.34540 0.16320 0.13700
H 	H 	0.41870 0.23210 0.19760 0.13800
H 	H 	0.78430 0.66580 0.05440 0.15100
H 	H 	0.66130 0.57860 0.08340 0.15200
H 	H 	0.70240 0.54830 0.91280 0.14300
H 	H 	0.73900 0.66130 0.95060 0.15800
H 	H 	0.72540 0.10860 0.98660 0.06000
H 	H 	0.65120 0.17590 0.96380 0.05100
H 	H 	0.79680 0.19720 0.88800 0.08000
H 	H 	0.90220 0.23920 0.93780 0.06200
H 	H 	0.70730 0.24580 0.05770 0.13000
H 	H 	0.82680 0.24320 0.05440 0.12200
H 	H 	0.90490 0.39830 0.89820 0.12300
H 	H 	0.77180 0.35590 0.89950 0.11900
H 	H 	0.13300 0.44440 0.35660 0.10600
H 	H 	0.11050 0.44730 0.42780 0.12600
H 	H 	0.11320 0.26320 0.31100 0.12600
H 	H 	0.02440 0.15160 0.34490 0.12700
H 	H 	0.12360 0.44900 0.57760 0.13600
H 	H 	0.15140 0.44160 0.64790 0.14000
H 	H 	0.99880 0.15460 0.66320 0.14200
H 	H 	0.08130 0.26790 0.69760 0.14100
H 	H 	0.71570 0.83420 0.55440 0.15100
H 	H 	0.83870 0.92140 0.58340 0.15100
H 	H 	0.79760 0.95170 0.41280 0.14200
H 	H 	0.76100 0.83870 0.45060 0.15800
H 	H 	0.77460 0.39140 0.48660 0.05900
H 	H 	0.84880 0.32410 0.46380 0.05200
H 	H 	0.70320 0.30280 0.38800 0.07900
H 	H 	0.59780 0.26080 0.43780 0.06100
H 	H 	0.79270 0.25420 0.55770 0.13000
H 	H 	0.67320 0.25680 0.55440 0.12200
H 	H 	0.59510 0.10170 0.39820 0.12200
H 	H 	0.72820 0.14410 0.39950 0.11900
C 	C 	0.52540 0.73620 0.04940 0.15900
C 	C 	0.52220 0.73580 0.94600 0.16000
C 	C 	0.39710 0.58010 0.99790 0.11800
C 	C 	0.64330 0.91460 0.10360 -0.26800
C 	C 	0.77800 0.95480 0.09190 0.36800
C 	C 	0.54190 0.73090 0.16230 -0.27900
C 	C 	0.43340 0.73650 0.19550 0.37500
C 	C 	0.65070 0.90870 0.89250 -0.29100
C 	C 	0.77930 0.92800 0.90860 0.39600
C 	C 	0.51710 0.73490 0.83310 -0.29200
C 	C 	0.40380 0.74500 0.81010 0.39700
C 	C 	0.26470 0.41460 0.93740 -0.33100
C 	C 	0.19360 0.45530 0.89300 0.40700
C 	C 	0.25060 0.40870 0.05190 -0.35300
C 	C 	0.11550 0.37850 0.06330 0.40500
C 	C 	0.26890 0.81620 0.02290 -0.06400
C 	C 	0.17570 0.76130 0.07350 -0.07400
C 	C 	0.97460 0.76380 0.54940 0.15600
C 	C 	0.97780 0.76420 0.44600 0.15700
C 	C 	0.10290 0.91990 0.49790 0.12100
C 	C 	0.85670 0.58540 0.60360 -0.26900
C 	C 	0.72200 0.54520 0.59190 0.36900
C 	C 	0.95810 0.76910 0.66230 -0.28200
C 	C 	0.06660 0.76350 0.69550 0.37700
C 	C 	0.84930 0.59130 0.39250 -0.29500
C 	C 	0.72070 0.57200 0.40860 0.40200
C 	C 	0.98290 0.76510 0.33310 -0.30100
C 	C 	0.09620 0.75500 0.31010 0.40100
C 	C 	0.23530 0.08540 0.43740 -0.33000
C 	C 	0.30640 0.04470 0.39300 0.40400
C 	C 	0.24940 0.09130 0.55190 -0.35300
C 	C 	0.38450 0.12150 0.56330 0.40500
C 	C 	0.23110 0.68380 0.52290 -0.06600
C 	C 	0.32430 0.73870 0.57350 -0.07300
C 	C 	0.47460 0.26380 0.95060 0.15900
C 	C 	0.47780 0.26420 0.05400 0.16000
C 	C 	0.60290 0.41990 0.00210 0.11800
C 	C 	0.35670 0.08540 0.89640 -0.26800
C 	C 	0.22200 0.04520 0.90810 0.36800
C 	C 	0.45810 0.26910 0.83770 -0.27900
C 	C 	0.56660 0.26350 0.80450 0.37500
C 	C 	0.34930 0.09130 0.10750 -0.29100
C 	C 	0.22070 0.07200 0.09140 0.39600
C 	C 	0.48290 0.26510 0.16690 -0.29200
C 	C 	0.59620 0.25500 0.18990 0.39700
C 	C 	0.73530 0.58540 0.06260 -0.33100
C 	C 	0.80640 0.54470 0.10700 0.40700
C 	C 	0.74940 0.59130 0.94810 -0.35300
C 	C 	0.88450 0.62150 0.93670 0.40500
C 	C 	0.73110 0.18380 0.97710 -0.06400
C 	C 	0.82430 0.23870 0.92650 -0.07400
C 	C 	0.02540 0.23620 0.45060 0.15600
C 	C 	0.02220 0.23580 0.55400 0.15700
C 	C 	0.89710 0.08010 0.50210 0.12100
C 	C 	0.14330 0.41460 0.39640 -0.26900
C 	C 	0.27800 0.45480 0.40810 0.36900
C 	C 	0.04190 0.23090 0.33770 -0.28200
C 	C 	0.93340 0.23650 0.30450 0.37700
C 	C 	0.15070 0.40870 0.60750 -0.29500
C 	C 	0.27930 0.42800 0.59140 0.40200
C 	C 	0.01710 0.23490 0.66690 -0.30100
C 	C 	0.90380 0.24500 0.68990 0.40100
C 	C 	0.76470 0.91460 0.56260 -0.33000
C 	C 	0.69360 0.95530 0.60700 0.40400
C 	C 	0.75060 0.90870 0.44810 -0.35300
C 	C 	0.61550 0.87850 0.43670 0.40500
C 	C 	0.76890 0.31620 0.47710 -0.06600
C 	C 	0.67570 0.26130 0.42650 -0.07300
N 	N 	0.56800 0.79480 0.99760 -0.15700
N 	N 	0.43610 0.62690 0.94280 -0.15800
N 	N 	0.43820 0.62720 0.05350 -0.16500
N 	N 	0.57050 0.79060 0.10380 -0.05300
N 	N 	0.56260 0.78930 0.89160 -0.04400
N 	N 	0.29930 0.47410 0.99650 -0.06400
N 	N 	0.22830 0.74150 0.96710 -0.32400
N 	N 	0.16320 0.64410 0.08010 -0.31900
N 	N 	0.93200 0.70520 0.49760 -0.15600
N 	N 	0.06390 0.87310 0.44280 -0.15600
N 	N 	0.06180 0.87280 0.55350 -0.16300
N 	N 	0.92950 0.70940 0.60380 -0.05200
N 	N 	0.93740 0.71070 0.39160 -0.04200
N 	N 	0.20070 0.02590 0.49650 -0.06600
N 	N 	0.27170 0.75850 0.46710 -0.32300
N 	N 	0.33680 0.85590 0.58010 -0.32000
N 	N 	0.43200 0.20520 0.00240 -0.15700
N 	N 	0.56390 0.37310 0.05720 -0.15800
N 	N 	0.56180 0.37280 0.94650 -0.16500
N 	N 	0.42950 0.20940 0.89620 -0.05300
N 	N 	0.43740 0.21070 0.10840 -0.04400
N 	N 	0.70070 0.52590 0.00350 -0.06400
N 	N 	0.77170 0.25850 0.03290 -0.32400
N 	N 	0.83680 0.35590 0.91990 -0.31900
N 	N 	0.06800 0.29480 0.50240 -0.15600
N 	N 	0.93610 0.12690 0.55720 -0.15600
N 	N 	0.93820 0.12720 0.44650 -0.16300
N 	N 	0.07050 0.29060 0.39620 -0.05200
N 	N 	0.06260 0.28930 0.60840 -0.04200
N 	N 	0.79930 0.97410 0.50350 -0.06600
N 	N 	0.72830 0.24150 0.53290 -0.32300
N 	N 	0.66320 0.14410 0.41990 -0.32000
O 	O 	0.83990 0.06330 0.09440 -0.44300
O 	O 	0.82250 0.88660 0.08140 -0.31600
O 	O 	0.40780 0.68330 0.24806 -0.44100
O 	O 	0.37690 0.78620 0.17450 -0.33100
O 	O 	0.85150 0.02580 0.92430 -0.33100
O 	O 	0.80850 0.84660 0.90270 -0.42500
O 	O 	0.36290 0.80230 0.84030 -0.43100
O 	O 	0.35620 0.69540 0.76120 -0.33300
O 	O 	0.14960 0.52250 0.91099 -0.41400
O 	O 	0.18030 0.41820 0.83980 -0.28000
O 	O 	0.06210 0.42470 0.03040 -0.45900
O 	O 	0.06350 0.30760 0.10480 -0.38300
O 	O 	0.66010 0.43670 0.59440 -0.44400
O 	O 	0.67750 0.61340 0.58140 -0.31600
O 	O 	0.09220 0.81670 0.74806 -0.44100
O 	O 	0.12310 0.71380 0.67450 -0.33200
O 	O 	0.64850 0.47420 0.42430 -0.33600
O 	O 	0.69150 0.65340 0.40270 -0.42600
O 	O 	0.13710 0.69770 0.34030 -0.43200
O 	O 	0.14380 0.80460 0.26120 -0.33400
O 	O 	0.35040 0.97750 0.41099 -0.41200
O 	O 	0.31970 0.08180 0.33980 -0.27900
O 	O 	0.43790 0.07530 0.53040 -0.45900
O 	O 	0.43650 0.19240 0.60480 -0.38300
O 	O 	0.16010 0.93670 0.90560 -0.44300
O 	O 	0.17750 0.11340 0.91860 -0.31600
O 	O 	0.59220 0.31670 0.75194 -0.44100
O 	O 	0.62310 0.21380 0.82550 -0.33100
O 	O 	0.14850 0.97420 0.07570 -0.33100
O 	O 	0.19150 0.15340 0.09730 -0.42500
O 	O 	0.63710 0.19770 0.15970 -0.43100
O 	O 	0.64380 0.30460 0.23880 -0.33300
O 	O 	0.85040 0.47750 0.08901 -0.41400
O 	O 	0.81970 0.58180 0.16020 -0.28000
O 	O 	0.93790 0.57530 0.96960 -0.45900
O 	O 	0.93650 0.69240 0.89520 -0.38300
O 	O 	0.33990 0.56330 0.40560 -0.44400
O 	O 	0.32250 0.38660 0.41860 -0.31600
O 	O 	0.90780 0.18330 0.25194 -0.44100
O 	O 	0.87690 0.28620 0.32550 -0.33200
O 	O 	0.35150 0.52580 0.57570 -0.33600
O 	O 	0.30850 0.34660 0.59730 -0.42600
O 	O 	0.86290 0.30230 0.65970 -0.43200
O 	O 	0.85620 0.19540 0.73880 -0.33400
O 	O 	0.64960 0.02250 0.58901 -0.41200
O 	O 	0.68030 0.91820 0.66020 -0.27900
O 	O 	0.56210 0.92470 0.46960 -0.45900
O 	O 	0.56350 0.80760 0.39520 -0.38300
