data_crystal

_cell_length_a 14.94140
_cell_length_b 15.99180
_cell_length_c 16.03810
_cell_angle_alpha 90.00000
_cell_angle_beta  90.00000
_cell_angle_gamma 90.00000

_symmetry_space_group_name_	'P 1'
_symmetry_space_group_name_H-M	'P 1'

loop_
_symmetry_equiv_pos_as_xyz
  x,y,z

loop_
_atom_site_label
_atom_site_type_symbol
_atom_site_fract_x
_atom_site_fract_y
_atom_site_fract_z
_atom_site_charge
Na	Na	0.56207 0.05301 0.96230 0.60700
Na	Na	0.93793 0.94699 0.46230 0.60700
Na	Na	0.43793 0.55301 0.53770 0.60700
Na	Na	0.06207 0.44699 0.03770 0.60600
Co	Co	0.14421 0.13324 0.64511 1.21800
Co	Co	0.35579 0.86676 0.14511 1.21800
Co	Co	0.85579 0.63324 0.85489 1.21800
Co	Co	0.64421 0.36676 0.35489 1.21800
H 	H 	0.59110 0.68670 0.96010 0.23600
H 	H 	0.64480 0.90640 0.05100 0.07600
H 	H 	0.57980 0.77590 0.06370 -0.04300
H 	H 	0.81260 0.88550 0.01470 0.18700
H 	H 	0.83770 0.86770 0.92150 0.19300
H 	H 	0.68700 0.87090 0.88230 -0.04300
H 	H 	0.46320 0.11760 0.11480 0.09000
H 	H 	0.40700 0.19740 0.24140 0.16600
H 	H 	0.46170 0.19350 0.32490 0.17200
H 	H 	0.63760 0.18610 0.13490 -0.06500
H 	H 	0.39050 0.96060 0.89750 0.06900
H 	H 	0.47480 0.06690 0.25200 -0.05700
H 	H 	0.39830 0.96810 0.73790 0.18400
H 	H 	0.39610 0.05620 0.69500 0.17400
H 	H 	0.38490 0.12290 0.82470 -0.04500
H 	H 	0.25460 0.91550 0.81150 0.15800
H 	H 	0.16960 0.97310 0.80990 0.16700
H 	H 	0.57180 0.31810 0.12690 0.19100
H 	H 	0.47650 0.27850 0.11550 0.19200
H 	H 	0.62230 0.06790 0.26410 0.27400
H 	H 	0.23950 0.12090 0.93570 0.26700
H 	H 	0.73120 0.77270 0.09950 0.16200
H 	H 	0.70800 0.68750 0.05570 0.15300
H 	H 	0.24160 0.98200 0.94100 -0.05200
H 	H 	0.61070 0.21780 0.00630 0.43200
H 	H 	0.37190 0.03820 0.00420 0.34500
H 	H 	0.72160 0.99690 0.88320 0.30900
H 	H 	0.23500 0.12000 0.78100 0.38400
H 	H 	0.62550 0.21860 0.27810 0.31100
H 	H 	0.71100 0.72400 0.89200 0.34200
H 	H 	0.51900 0.08600 0.79500 0.36800
H 	H 	0.54150 0.99850 0.13130 0.22700
H 	H 	0.50030 0.88770 0.98680 0.22500
H 	H 	0.90890 0.31330 0.46010 0.23600
H 	H 	0.85520 0.09360 0.55100 0.07600
H 	H 	0.92020 0.22410 0.56370 -0.04300
H 	H 	0.68740 0.11450 0.51470 0.18600
H 	H 	0.66230 0.13230 0.42150 0.19300
H 	H 	0.81300 0.12910 0.38230 -0.04300
H 	H 	0.03680 0.88240 0.61480 0.08900
H 	H 	0.09300 0.80260 0.74140 0.16700
H 	H 	0.03830 0.80650 0.82490 0.17200
H 	H 	0.86240 0.81390 0.63490 -0.06500
H 	H 	0.10950 0.03940 0.39750 0.06900
H 	H 	0.02520 0.93310 0.75200 -0.05800
H 	H 	0.10170 0.03190 0.23790 0.18400
H 	H 	0.10390 0.94380 0.19500 0.17400
H 	H 	0.11510 0.87710 0.32470 -0.04400
H 	H 	0.24540 0.08450 0.31150 0.15700
H 	H 	0.33040 0.02690 0.30990 0.16700
H 	H 	0.92820 0.68190 0.62690 0.19000
H 	H 	0.02350 0.72150 0.61550 0.19200
H 	H 	0.87770 0.93210 0.76410 0.27400
H 	H 	0.26050 0.87910 0.43570 0.26700
H 	H 	0.76880 0.22730 0.59950 0.16200
H 	H 	0.79200 0.31250 0.55570 0.15300
H 	H 	0.25840 0.01800 0.44100 -0.05100
H 	H 	0.88930 0.78220 0.50630 0.43200
H 	H 	0.12810 0.96180 0.50420 0.34300
H 	H 	0.77840 0.00310 0.38320 0.30900
H 	H 	0.26500 0.88000 0.28100 0.38400
H 	H 	0.87450 0.78140 0.77810 0.31100
H 	H 	0.78900 0.27600 0.39200 0.34200
H 	H 	0.98100 0.91400 0.29500 0.36800
H 	H 	0.95850 0.00150 0.63130 0.22600
H 	H 	0.99970 0.11230 0.48680 0.22400
H 	H 	0.40890 0.18670 0.53990 0.23600
H 	H 	0.35520 0.40640 0.44900 0.07700
H 	H 	0.42020 0.27590 0.43630 -0.04300
H 	H 	0.18740 0.38550 0.48530 0.18600
H 	H 	0.16230 0.36770 0.57850 0.19300
H 	H 	0.31300 0.37090 0.61770 -0.04300
H 	H 	0.53680 0.61760 0.38520 0.09000
H 	H 	0.59300 0.69740 0.25860 0.16600
H 	H 	0.53830 0.69350 0.17510 0.17200
H 	H 	0.36240 0.68610 0.36510 -0.06500
H 	H 	0.60950 0.46060 0.60250 0.06800
H 	H 	0.52520 0.56690 0.24800 -0.05700
H 	H 	0.60170 0.46810 0.76210 0.18300
H 	H 	0.60390 0.55620 0.80500 0.17400
H 	H 	0.61510 0.62290 0.67530 -0.04400
H 	H 	0.74540 0.41550 0.68850 0.15800
H 	H 	0.83040 0.47310 0.69010 0.16700
H 	H 	0.42820 0.81810 0.37310 0.19000
H 	H 	0.52350 0.77850 0.38450 0.19200
H 	H 	0.37770 0.56790 0.23590 0.27400
H 	H 	0.76050 0.62090 0.56430 0.26700
H 	H 	0.26880 0.27270 0.40050 0.16200
H 	H 	0.29200 0.18750 0.44430 0.15300
H 	H 	0.75840 0.48200 0.55900 -0.05200
H 	H 	0.38930 0.71780 0.49370 0.43200
H 	H 	0.62810 0.53820 0.49580 0.34300
H 	H 	0.27840 0.49690 0.61680 0.30900
H 	H 	0.76500 0.62000 0.71900 0.38400
H 	H 	0.37450 0.71860 0.22190 0.31100
H 	H 	0.28900 0.22400 0.60800 0.34200
H 	H 	0.48100 0.58600 0.70500 0.36800
H 	H 	0.45850 0.49850 0.36870 0.22800
H 	H 	0.49970 0.38770 0.51320 0.22500
H 	H 	0.09110 0.81330 0.03990 0.23600
H 	H 	0.14480 0.59360 0.94900 0.07700
H 	H 	0.07980 0.72410 0.93630 -0.04400
H 	H 	0.31260 0.61450 0.98530 0.18700
H 	H 	0.33770 0.63230 0.07850 0.19400
H 	H 	0.18700 0.62910 0.11770 -0.04300
H 	H 	0.96320 0.38240 0.88520 0.08900
H 	H 	0.90700 0.30260 0.75860 0.16700
H 	H 	0.96170 0.30650 0.67510 0.17200
H 	H 	0.13760 0.31390 0.86510 -0.06400
H 	H 	0.89050 0.53940 0.10250 0.06900
H 	H 	0.97480 0.43310 0.74800 -0.05800
H 	H 	0.89830 0.53190 0.26210 0.18400
H 	H 	0.89610 0.44380 0.30500 0.17500
H 	H 	0.88490 0.37710 0.17530 -0.04500
H 	H 	0.75460 0.58450 0.18850 0.15800
H 	H 	0.66960 0.52690 0.19010 0.16800
H 	H 	0.07180 0.18190 0.87310 0.19000
H 	H 	0.97650 0.22150 0.88450 0.19100
H 	H 	0.12230 0.43210 0.73590 0.27400
H 	H 	0.73950 0.37910 0.06430 0.26800
H 	H 	0.23120 0.72730 0.90050 0.16200
H 	H 	0.20800 0.81250 0.94430 0.15300
H 	H 	0.74160 0.51800 0.05900 -0.05200
H 	H 	0.11070 0.28220 0.99370 0.43200
H 	H 	0.87190 0.46180 0.99580 0.34100
H 	H 	0.22160 0.50310 0.11680 0.30900
H 	H 	0.73500 0.38000 0.21900 0.38400
H 	H 	0.12550 0.28140 0.72190 0.31100
H 	H 	0.21100 0.77600 0.10800 0.34200
H 	H 	0.01900 0.41400 0.20500 0.36800
H 	H 	0.04150 0.50150 0.86870 0.22800
H 	H 	0.00030 0.61230 0.01320 0.22400
C 	C 	0.63115 0.87644 0.99925 -0.08400
C 	C 	0.62347 0.78338 0.01865 0.26700
C 	C 	0.79301 0.85774 0.96417 -0.47200
C 	C 	0.70384 0.89510 0.93620 0.32200
C 	C 	0.52258 0.11487 0.14062 -0.12300
C 	C 	0.46686 0.19427 0.26460 -0.44300
C 	C 	0.57673 0.19032 0.11246 0.38000
C 	C 	0.36690 0.01781 0.89771 -0.06600
C 	C 	0.51149 0.11487 0.23550 0.30000
C 	C 	0.37364 0.02406 0.74180 -0.46300
C 	C 	0.40475 0.06452 0.82308 0.32400
C 	C 	0.23449 0.97313 0.81255 -0.43300
C 	C 	0.53402 0.27135 0.14261 -0.48800
C 	C 	0.71366 0.74728 0.04705 -0.43100
C 	C 	0.26458 0.01408 0.89345 0.26600
C 	C 	0.24018 0.97600 0.65634 0.18800
C 	C 	0.87593 0.72902 0.00931 0.19500
C 	C 	0.78577 0.76468 0.98019 0.30600
C 	C 	0.47430 0.35214 0.26583 0.19000
C 	C 	0.52068 0.27174 0.23757 0.29600
C 	C 	0.27204 0.01940 0.73673 0.30500
C 	C 	0.86885 0.12356 0.49925 -0.08500
C 	C 	0.87653 0.21662 0.51865 0.26700
C 	C 	0.70699 0.14226 0.46417 -0.47200
C 	C 	0.79616 0.10490 0.43620 0.32300
C 	C 	0.97742 0.88513 0.64062 -0.12200
C 	C 	0.03314 0.80573 0.76460 -0.44500
C 	C 	0.92327 0.80968 0.61246 0.38000
C 	C 	0.13310 0.98219 0.39771 -0.06700
C 	C 	0.98851 0.88513 0.73550 0.30200
C 	C 	0.12636 0.97594 0.24180 -0.46400
C 	C 	0.09525 0.93548 0.32308 0.32200
C 	C 	0.26551 0.02687 0.31255 -0.43000
C 	C 	0.96598 0.72865 0.64261 -0.48700
C 	C 	0.78634 0.25272 0.54705 -0.43200
C 	C 	0.23542 0.98592 0.39345 0.26300
C 	C 	0.25982 0.02400 0.15634 0.19100
C 	C 	0.62407 0.27098 0.50931 0.19400
C 	C 	0.71423 0.23532 0.48019 0.30700
C 	C 	0.02570 0.64786 0.76583 0.18900
C 	C 	0.97932 0.72826 0.73757 0.29600
C 	C 	0.22796 0.98060 0.23673 0.30200
C 	C 	0.36885 0.37644 0.50075 -0.08500
C 	C 	0.37653 0.28338 0.48135 0.26700
C 	C 	0.20699 0.35774 0.53583 -0.47200
C 	C 	0.29616 0.39510 0.56380 0.32300
C 	C 	0.47742 0.61487 0.35938 -0.12200
C 	C 	0.53314 0.69427 0.23540 -0.44300
C 	C 	0.42327 0.69032 0.38754 0.38000
C 	C 	0.63310 0.51781 0.60229 -0.06600
C 	C 	0.48851 0.61487 0.26450 0.30000
C 	C 	0.62636 0.52406 0.75820 -0.46300
C 	C 	0.59525 0.56452 0.67692 0.32300
C 	C 	0.76551 0.47313 0.68745 -0.43300
C 	C 	0.46598 0.77135 0.35739 -0.48700
C 	C 	0.28634 0.24728 0.45295 -0.43200
C 	C 	0.73542 0.51408 0.60655 0.26600
C 	C 	0.75982 0.47600 0.84366 0.18900
C 	C 	0.12407 0.22902 0.49069 0.19400
C 	C 	0.21423 0.26468 0.51981 0.30700
C 	C 	0.52570 0.85214 0.23417 0.19000
C 	C 	0.47932 0.77174 0.26243 0.29600
C 	C 	0.72796 0.51940 0.76327 0.30400
C 	C 	0.13115 0.62356 0.00075 -0.08700
C 	C 	0.12347 0.71662 0.98135 0.26900
C 	C 	0.29301 0.64226 0.03583 -0.47300
C 	C 	0.20384 0.60490 0.06380 0.32300
C 	C 	0.02258 0.38513 0.85938 -0.12100
C 	C 	0.96686 0.30573 0.73540 -0.44500
C 	C 	0.07673 0.30968 0.88754 0.37900
C 	C 	0.86690 0.48219 0.10229 -0.06700
C 	C 	0.01149 0.38513 0.76450 0.30200
C 	C 	0.87364 0.47594 0.25820 -0.46300
C 	C 	0.90475 0.43548 0.17692 0.32400
C 	C 	0.73449 0.52687 0.18745 -0.43400
C 	C 	0.03402 0.22865 0.85739 -0.48600
C 	C 	0.21366 0.75272 0.95295 -0.43200
C 	C 	0.76458 0.48592 0.10655 0.26600
C 	C 	0.74018 0.52400 0.34366 0.18900
C 	C 	0.37593 0.77098 0.99069 0.19500
C 	C 	0.28577 0.73532 0.01981 0.30700
C 	C 	0.97430 0.14786 0.73417 0.18700
C 	C 	0.02068 0.22826 0.76243 0.29700
C 	C 	0.77204 0.48060 0.26327 0.30400
O 	O 	0.26812 0.90411 0.64449 -0.23600
O 	O 	0.39588 0.36184 0.24343 -0.23400
O 	O 	0.91268 0.76007 0.07073 -0.21700
O 	O 	0.59435 0.73628 0.94767 -0.40700
O 	O 	0.54974 0.90850 0.96572 -0.32500
O 	O 	0.39680 0.05906 0.97126 -0.48600
O 	O 	0.59602 0.11070 0.27785 -0.46900
O 	O 	0.22499 0.09592 0.89317 -0.46200
O 	O 	0.58033 0.18812 0.02267 -0.68200
O 	O 	0.50099 0.06131 0.82973 -0.60200
O 	O 	0.56636 0.04147 0.11275 -0.34400
O 	O 	0.70880 0.98417 0.92818 -0.52500
O 	O 	0.18524 0.01522 0.60941 -0.37000
O 	O 	0.76356 0.72145 0.90423 -0.60800
O 	O 	0.51830 0.40339 0.31139 -0.35700
O 	O 	0.23677 0.10414 0.73412 -0.65500
O 	O 	0.60784 0.27007 0.27655 -0.55900
O 	O 	0.90899 0.66922 0.96657 -0.36800
O 	O 	0.23188 0.09589 0.14449 -0.23600
O 	O 	0.10412 0.63816 0.74343 -0.23400
O 	O 	0.58732 0.23993 0.57073 -0.21700
O 	O 	0.90565 0.26372 0.44767 -0.40700
O 	O 	0.95026 0.09150 0.46572 -0.32500
O 	O 	0.10320 0.94094 0.47126 -0.48400
O 	O 	0.90398 0.88930 0.77785 -0.47000
O 	O 	0.27501 0.90408 0.39317 -0.46200
O 	O 	0.91967 0.81188 0.52267 -0.68200
O 	O 	0.99901 0.93869 0.32973 -0.60000
O 	O 	0.93364 0.95853 0.61275 -0.34300
O 	O 	0.79120 0.01583 0.42818 -0.52600
O 	O 	0.31476 0.98478 0.10941 -0.37200
O 	O 	0.73644 0.27855 0.40423 -0.60800
O 	O 	0.98170 0.59661 0.81139 -0.35700
O 	O 	0.26323 0.89586 0.23412 -0.65500
O 	O 	0.89216 0.72993 0.77655 -0.56000
O 	O 	0.59101 0.33078 0.46657 -0.36700
O 	O 	0.73188 0.40411 0.85551 -0.23600
O 	O 	0.60412 0.86184 0.25657 -0.23400
O 	O 	0.08732 0.26007 0.42927 -0.21700
O 	O 	0.40565 0.23628 0.55233 -0.40700
O 	O 	0.45026 0.40850 0.53428 -0.32500
O 	O 	0.60320 0.55906 0.52874 -0.48400
O 	O 	0.40398 0.61070 0.22215 -0.46900
O 	O 	0.77501 0.59592 0.60683 -0.46200
O 	O 	0.41967 0.68812 0.47733 -0.68300
O 	O 	0.49901 0.56131 0.67027 -0.60200
O 	O 	0.43364 0.54147 0.38725 -0.34500
O 	O 	0.29120 0.48417 0.57182 -0.52500
O 	O 	0.81476 0.51522 0.89059 -0.37100
O 	O 	0.23644 0.22145 0.59577 -0.60800
O 	O 	0.48170 0.90339 0.18861 -0.35700
O 	O 	0.76323 0.60414 0.76588 -0.65500
O 	O 	0.39216 0.77007 0.22345 -0.55900
O 	O 	0.09101 0.16922 0.53343 -0.36700
O 	O 	0.76812 0.59589 0.35551 -0.23600
O 	O 	0.89588 0.13816 0.75657 -0.23400
O 	O 	0.41268 0.73993 0.92927 -0.21700
O 	O 	0.09435 0.76372 0.05233 -0.40800
O 	O 	0.04974 0.59150 0.03428 -0.32400
O 	O 	0.89680 0.44094 0.02874 -0.48100
O 	O 	0.09602 0.38930 0.72215 -0.46900
O 	O 	0.72499 0.40408 0.10683 -0.46200
O 	O 	0.08033 0.31188 0.97733 -0.68200
O 	O 	0.00099 0.43869 0.17027 -0.60300
O 	O 	0.06636 0.45853 0.88725 -0.34500
O 	O 	0.20880 0.51583 0.07182 -0.52600
O 	O 	0.68524 0.48478 0.39059 -0.37100
O 	O 	0.26356 0.77855 0.09577 -0.60800
O 	O 	0.01830 0.09661 0.68861 -0.35600
O 	O 	0.73677 0.39586 0.26588 -0.65500
O 	O 	0.10784 0.22993 0.72345 -0.56000
O 	O 	0.40899 0.83078 0.03343 -0.36800
