data_crystal

_cell_length_a 13.51460
_cell_length_b 10.76920
_cell_length_c 14.62780
_cell_angle_alpha 90.00000
_cell_angle_beta  110.63100
_cell_angle_gamma 90.00000

_symmetry_space_group_name_	'P 1'
_symmetry_space_group_name_H-M	'P 1'

loop_
_symmetry_equiv_pos_as_xyz
  x,y,z

loop_
_atom_site_label
_atom_site_type_symbol
_atom_site_fract_x
_atom_site_fract_y
_atom_site_fract_z
_atom_site_charge
Co	Co	0.41043 0.90418 0.46172 1.16500
Co	Co	0.50384 0.01050 0.29221 1.18300
O 	O 	0.30463 0.03100 0.37377 -0.41700
O 	O 	0.38991 0.13500 0.29059 -0.42800
O 	O 	0.38620 0.40420 0.23847 -0.39600
O 	O 	0.31260 0.28450 0.10776 -0.25900
O 	O 	0.62010 0.14580 0.34031 -0.42800
O 	O 	0.71385 0.15190 0.50127 -0.41300
O 	O 	0.63354 0.27700 0.15290 -0.40700
O 	O 	0.62816 0.39560 0.27768 -0.39400
O 	O 	0.53807 0.95950 0.43152 -0.59300
C 	C 	0.31300 0.11720 0.31910 0.35200
C 	C 	0.22480 0.20860 0.28530 -0.03900
C 	C 	0.13980 0.19480 0.31780 -0.04700
H 	H 	0.13990 0.12870 0.35870 0.06700
C 	C 	0.05490 0.27740 0.29060 0.02400
C 	C 	0.05770 0.37540 0.22950 -0.07200
H 	H 	0.00260 0.43260 0.21080 0.06300
C 	C 	0.14120 0.38940 0.19630 0.00100
H 	H 	0.14050 0.45490 0.15460 0.03900
C 	C 	0.22570 0.30750 0.22400 -0.04600
C 	C 	0.31630 0.33200 0.18700 0.34200
C 	C 	0.96580 0.25800 0.32570 0.04000
C 	C 	0.98230 0.20310 0.41670 -0.09800
H 	H 	0.05060 0.18300 0.45710 0.07500
C 	C 	0.89820 0.17850 0.44730 0.02200
H 	H 	0.91060 0.14130 0.50770 0.03600
C 	C 	0.79630 0.20850 0.38900 -0.07400
C 	C 	0.77850 0.27050 0.30030 -0.01700
C 	C 	0.86260 0.29320 0.26920 -0.06600
H 	H 	0.85020 0.33260 0.20970 0.07200
C 	C 	0.67080 0.31650 0.23930 0.34300
C 	C 	0.70200 0.16550 0.41250 0.36800
Co	Co	0.58957 0.40418 0.03828 1.16400
Co	Co	0.49616 0.51050 0.20779 1.18200
O 	O 	0.69537 0.53100 0.12623 -0.41700
O 	O 	0.61009 0.63500 0.20941 -0.42800
O 	O 	0.61380 0.90420 0.26153 -0.39600
O 	O 	0.68740 0.78450 0.39224 -0.25800
O 	O 	0.37990 0.64580 0.15969 -0.42800
O 	O 	0.28615 0.65190 0.99873 -0.41400
O 	O 	0.36646 0.77700 0.34710 -0.40600
O 	O 	0.37184 0.89560 0.22232 -0.39300
O 	O 	0.46193 0.45950 0.06848 -0.59300
C 	C 	0.68700 0.61720 0.18090 0.35200
C 	C 	0.77520 0.70860 0.21470 -0.04000
C 	C 	0.86020 0.69480 0.18220 -0.04600
H 	H 	0.86010 0.62870 0.14130 0.06700
C 	C 	0.94510 0.77740 0.20940 0.02300
C 	C 	0.94230 0.87540 0.27050 -0.07200
H 	H 	0.99740 0.93260 0.28920 0.06300
C 	C 	0.85880 0.88940 0.30370 0.00000
H 	H 	0.85950 0.95490 0.34540 0.04000
C 	C 	0.77430 0.80750 0.27600 -0.04500
C 	C 	0.68370 0.83200 0.31300 0.34200
C 	C 	0.03420 0.75800 0.17430 0.04100
C 	C 	0.01770 0.70310 0.08330 -0.09800
H 	H 	0.94940 0.68300 0.04290 0.07500
C 	C 	0.10180 0.67850 0.05270 0.02600
H 	H 	0.08940 0.64130 0.99230 0.03400
C 	C 	0.20370 0.70850 0.11100 -0.07500
C 	C 	0.22150 0.77050 0.19970 -0.01600
C 	C 	0.13740 0.79320 0.23080 -0.06700
H 	H 	0.14980 0.83260 0.29030 0.07300
C 	C 	0.32920 0.81650 0.26070 0.34300
C 	C 	0.29800 0.66550 0.08750 0.37000
Co	Co	0.58957 0.09582 0.53828 1.16400
Co	Co	0.49616 0.98950 0.70779 1.18200
O 	O 	0.69537 0.96900 0.62623 -0.41700
O 	O 	0.61009 0.86500 0.70941 -0.42800
O 	O 	0.61380 0.59580 0.76153 -0.39600
O 	O 	0.68740 0.71550 0.89224 -0.25900
O 	O 	0.37990 0.85420 0.65969 -0.42800
O 	O 	0.28615 0.84810 0.49873 -0.41300
O 	O 	0.36646 0.72300 0.84710 -0.40700
O 	O 	0.37184 0.60440 0.72232 -0.39400
O 	O 	0.46193 0.04050 0.56848 -0.59300
C 	C 	0.68700 0.88280 0.68090 0.35200
C 	C 	0.77520 0.79140 0.71470 -0.03900
C 	C 	0.86020 0.80520 0.68220 -0.04700
H 	H 	0.86010 0.87130 0.64130 0.06700
C 	C 	0.94510 0.72260 0.70940 0.02400
C 	C 	0.94230 0.62460 0.77050 -0.07200
H 	H 	0.99740 0.56740 0.78920 0.06300
C 	C 	0.85880 0.61060 0.80370 0.00100
H 	H 	0.85950 0.54510 0.84540 0.03900
C 	C 	0.77430 0.69250 0.77600 -0.04600
C 	C 	0.68370 0.66800 0.81300 0.34200
C 	C 	0.03420 0.74200 0.67430 0.04000
C 	C 	0.01770 0.79690 0.58330 -0.09800
H 	H 	0.94940 0.81700 0.54290 0.07500
C 	C 	0.10180 0.82150 0.55270 0.02200
H 	H 	0.08940 0.85870 0.49230 0.03600
C 	C 	0.20370 0.79150 0.61100 -0.07400
C 	C 	0.22150 0.72950 0.69970 -0.01700
C 	C 	0.13740 0.70680 0.73080 -0.06600
H 	H 	0.14980 0.66740 0.79030 0.07200
C 	C 	0.32920 0.68350 0.76070 0.34300
C 	C 	0.29800 0.83450 0.58750 0.36800
Co	Co	0.41043 0.59582 0.96172 1.16400
Co	Co	0.50384 0.48950 0.79221 1.18200
O 	O 	0.30463 0.46900 0.87377 -0.41700
O 	O 	0.38991 0.36500 0.79059 -0.42800
O 	O 	0.38620 0.09580 0.73847 -0.39600
O 	O 	0.31260 0.21550 0.60776 -0.25800
O 	O 	0.62010 0.35420 0.84031 -0.42800
O 	O 	0.71385 0.34810 0.00127 -0.41400
O 	O 	0.63354 0.22300 0.65290 -0.40600
O 	O 	0.62816 0.10440 0.77768 -0.39300
O 	O 	0.53807 0.54050 0.93152 -0.59300
C 	C 	0.31300 0.38280 0.81910 0.35200
C 	C 	0.22480 0.29140 0.78530 -0.04000
C 	C 	0.13980 0.30520 0.81780 -0.04600
H 	H 	0.13990 0.37130 0.85870 0.06700
C 	C 	0.05490 0.22260 0.79060 0.02300
C 	C 	0.05770 0.12460 0.72950 -0.07200
H 	H 	0.00260 0.06740 0.71080 0.06300
C 	C 	0.14120 0.11060 0.69630 0.00000
H 	H 	0.14050 0.04510 0.65460 0.04000
C 	C 	0.22570 0.19250 0.72400 -0.04500
C 	C 	0.31630 0.16800 0.68700 0.34200
C 	C 	0.96580 0.24200 0.82570 0.04100
C 	C 	0.98230 0.29690 0.91670 -0.09800
H 	H 	0.05060 0.31700 0.95710 0.07500
C 	C 	0.89820 0.32150 0.94730 0.02600
H 	H 	0.91060 0.35870 0.00770 0.03400
C 	C 	0.79630 0.29150 0.88900 -0.07500
C 	C 	0.77850 0.22950 0.80030 -0.01600
C 	C 	0.86260 0.20680 0.76920 -0.06700
H 	H 	0.85020 0.16740 0.70970 0.07300
C 	C 	0.67080 0.18350 0.73930 0.34300
C 	C 	0.70200 0.33450 0.91250 0.37000
