data_crystal

_cell_length_a 9.52320
_cell_length_b 15.84600
_cell_length_c 22.36900
_cell_angle_alpha 90.00000
_cell_angle_beta  90.00000
_cell_angle_gamma 90.00000

_symmetry_space_group_name_	'P 1'
_symmetry_space_group_name_H-M	'P 1'

loop_
_symmetry_equiv_pos_as_xyz
  x,y,z

loop_
_atom_site_label
_atom_site_type_symbol
_atom_site_fract_x
_atom_site_fract_y
_atom_site_fract_z
_atom_site_charge
Zn	Zn	0.80953 0.31174 0.51366 1.21000
Zn	Zn	0.69047 0.68826 0.01366 1.21000
Zn	Zn	0.19047 0.81174 0.98634 1.20900
Zn	Zn	0.30953 0.18826 0.48634 1.21000
H 	H 	0.80000 0.49200 0.49080 -0.13200
H 	H 	0.66700 0.59000 0.44000 0.32400
H 	H 	0.41200 0.41400 0.39540 0.22500
H 	H 	0.55700 0.32100 0.44500 -0.12600
H 	H 	0.44400 0.63300 0.38980 0.19000
H 	H 	0.35800 0.55200 0.36670 0.23500
H 	H 	0.58900 0.60400 0.31300 -0.06700
H 	H 	0.51500 0.51400 0.29000 -0.04300
H 	H 	0.38600 0.67400 0.28600 0.20900
H 	H 	0.30900 0.60300 0.26550 0.15100
H 	H 	0.41000 0.53000 0.16670 0.12000
H 	H 	0.52300 0.55100 0.07520 0.00100
H 	H 	0.67200 0.76800 0.12660 -0.01400
H 	H 	0.55200 0.76200 0.22320 0.09100
H 	H 	0.70000 0.50800 0.99080 -0.13300
H 	H 	0.83300 0.41000 0.94000 0.32800
H 	H 	0.08800 0.58600 0.89540 0.22900
H 	H 	0.94300 0.67900 0.94500 -0.12800
H 	H 	0.05600 0.36700 0.88980 0.19200
H 	H 	0.14200 0.44800 0.86670 0.23800
H 	H 	0.91100 0.39600 0.81300 -0.06900
H 	H 	0.98500 0.48600 0.79000 -0.04400
H 	H 	0.11400 0.32600 0.78600 0.21100
H 	H 	0.19100 0.39700 0.76550 0.15200
H 	H 	0.09000 0.47000 0.66670 0.12000
H 	H 	0.97700 0.44900 0.57520 0.00100
H 	H 	0.82800 0.23200 0.62660 -0.01400
H 	H 	0.94800 0.23800 0.72320 0.09100
H 	H 	0.20000 0.99200 0.00920 -0.13100
H 	H 	0.33300 0.09000 0.06000 0.32500
H 	H 	0.58800 0.91400 0.10460 0.22500
H 	H 	0.44300 0.82100 0.05500 -0.12500
H 	H 	0.55600 0.13300 0.11020 0.19000
H 	H 	0.64200 0.05200 0.13330 0.23400
H 	H 	0.41100 0.10400 0.18700 -0.06700
H 	H 	0.48500 0.01400 0.21000 -0.04300
H 	H 	0.61400 0.17400 0.21400 0.20900
H 	H 	0.69100 0.10300 0.23450 0.15000
H 	H 	0.59000 0.03000 0.33330 0.11900
H 	H 	0.47700 0.05100 0.42480 0.00100
H 	H 	0.32800 0.26800 0.37340 -0.01400
H 	H 	0.44800 0.26200 0.27680 0.09000
H 	H 	0.30000 0.00800 0.50920 -0.13100
H 	H 	0.16700 0.91000 0.56000 0.32400
H 	H 	0.91200 0.08600 0.60460 0.22400
H 	H 	0.05700 0.17900 0.55500 -0.12500
H 	H 	0.94400 0.86700 0.61020 0.18900
H 	H 	0.85800 0.94800 0.63330 0.23300
H 	H 	0.08900 0.89600 0.68700 -0.06600
H 	H 	0.01500 0.98600 0.71000 -0.04200
H 	H 	0.88600 0.82600 0.71400 0.20800
H 	H 	0.80900 0.89700 0.73450 0.15000
H 	H 	0.91000 0.97000 0.83330 0.11900
H 	H 	0.02300 0.94900 0.92480 0.00100
H 	H 	0.17200 0.73200 0.87340 -0.01500
H 	H 	0.05200 0.73800 0.77680 0.09000
C 	C 	0.72380 0.48090 0.47120 0.41100
C 	C 	0.64590 0.53880 0.43908 -0.66400
C 	C 	0.52810 0.51400 0.40874 0.52800
C 	C 	0.49300 0.43010 0.41310 -0.53000
C 	C 	0.57390 0.37580 0.44575 0.34100
C 	C 	0.44510 0.57370 0.37088 -0.63800
C 	C 	0.50440 0.57820 0.30739 0.29800
C 	C 	0.40810 0.62810 0.26568 -0.48900
C 	C 	0.47590 0.63980 0.20490 0.25100
C 	C 	0.46920 0.57840 0.16112 -0.24300
C 	C 	0.53370 0.59150 0.10669 0.11700
C 	C 	0.61440 0.72000 0.13739 0.10200
C 	C 	0.55030 0.71200 0.19203 -0.21100
C 	C 	0.77620 0.51910 0.97120 0.41700
C 	C 	0.85410 0.46120 0.93908 -0.67300
C 	C 	0.97190 0.48600 0.90874 0.53700
C 	C 	0.00700 0.56990 0.91310 -0.54100
C 	C 	0.92610 0.62420 0.94575 0.34800
C 	C 	0.05490 0.42630 0.87088 -0.64800
C 	C 	0.99560 0.42180 0.80739 0.30400
C 	C 	0.09190 0.37190 0.76568 -0.49300
C 	C 	0.02410 0.36020 0.70490 0.25200
C 	C 	0.03080 0.42160 0.66112 -0.24400
C 	C 	0.96630 0.40850 0.60669 0.11800
C 	C 	0.88560 0.28000 0.63739 0.10200
C 	C 	0.94970 0.28800 0.69203 -0.21100
C 	C 	0.27620 0.98090 0.02880 0.41400
C 	C 	0.35410 0.03880 0.06092 -0.66600
C 	C 	0.47190 0.01400 0.09126 0.52600
C 	C 	0.50700 0.93010 0.08690 -0.52700
C 	C 	0.42610 0.87580 0.05425 0.34100
C 	C 	0.55490 0.07370 0.12912 -0.63700
C 	C 	0.49560 0.07820 0.19261 0.29700
C 	C 	0.59190 0.12810 0.23432 -0.48800
C 	C 	0.52410 0.13980 0.29510 0.25100
C 	C 	0.53080 0.07840 0.33888 -0.24200
C 	C 	0.46630 0.09150 0.39331 0.11700
C 	C 	0.38560 0.22000 0.36261 0.10200
C 	C 	0.44970 0.21200 0.30797 -0.21000
C 	C 	0.22380 0.01910 0.52880 0.41100
C 	C 	0.14590 0.96120 0.56092 -0.66200
C 	C 	0.02810 0.98600 0.59126 0.52400
C 	C 	0.99300 0.06990 0.58690 -0.52800
C 	C 	0.07390 0.12420 0.55425 0.34100
C 	C 	0.94510 0.92630 0.62912 -0.63200
C 	C 	0.00440 0.92180 0.69261 0.29200
C 	C 	0.90810 0.87190 0.73432 -0.48500
C 	C 	0.97590 0.86020 0.79510 0.25000
C 	C 	0.96920 0.92160 0.83888 -0.24000
C 	C 	0.03370 0.90850 0.89331 0.11500
C 	C 	0.11440 0.78000 0.86261 0.10100
C 	C 	0.05030 0.78800 0.80797 -0.21100
S 	S 	0.06851 0.32047 0.44392 0.70800
S 	S 	0.43149 0.67953 0.94392 0.70800
S 	S 	0.93149 0.82047 0.05608 0.70700
S 	S 	0.56851 0.17953 0.55608 0.70800
N 	N 	0.69020 0.39946 0.47390 -0.38400
N 	N 	0.60590 0.66165 0.09409 -0.29000
N 	N 	0.80980 0.60054 0.97390 -0.38600
N 	N 	0.89410 0.33835 0.59409 -0.29100
N 	N 	0.30980 0.89946 0.02610 -0.38400
N 	N 	0.39410 0.16165 0.40591 -0.29000
N 	N 	0.19020 0.10054 0.52610 -0.38400
N 	N 	0.10590 0.83835 0.90591 -0.29000
O 	O 	0.95020 0.26254 0.45973 -0.50200
O 	O 	0.19610 0.29018 0.47614 -0.49800
O 	O 	0.09280 0.31610 0.38045 -0.32700
O 	O 	0.03290 0.40386 0.46508 -0.35600
O 	O 	0.54980 0.73746 0.95973 -0.50200
O 	O 	0.30390 0.70982 0.97614 -0.49800
O 	O 	0.40720 0.68390 0.88045 -0.32700
O 	O 	0.46710 0.59614 0.96508 -0.35600
O 	O 	0.04980 0.76254 0.04027 -0.50100
O 	O 	0.80390 0.79018 0.02386 -0.49700
O 	O 	0.90720 0.81610 0.11955 -0.32700
O 	O 	0.96710 0.90386 0.03492 -0.35500
O 	O 	0.45020 0.23746 0.54027 -0.50200
O 	O 	0.69610 0.20982 0.52386 -0.49800
O 	O 	0.59280 0.18390 0.61955 -0.32700
O 	O 	0.53290 0.09614 0.53492 -0.35600
Zn	Zn	0.19047 0.68826 0.48634 1.21100
Zn	Zn	0.30953 0.31174 0.98634 1.21100
Zn	Zn	0.80953 0.18826 0.01366 1.21000
Zn	Zn	0.69047 0.81174 0.51366 1.21100
H 	H 	0.20000 0.50800 0.50920 -0.13100
H 	H 	0.33300 0.41000 0.56000 0.32500
H 	H 	0.58800 0.58600 0.60460 0.22500
H 	H 	0.44300 0.67900 0.55500 -0.12600
H 	H 	0.55600 0.36700 0.61020 0.19000
H 	H 	0.64200 0.44800 0.63330 0.23500
H 	H 	0.41100 0.39600 0.68700 -0.06700
H 	H 	0.48500 0.48600 0.71000 -0.04300
H 	H 	0.61400 0.32600 0.71400 0.20900
H 	H 	0.69100 0.39700 0.73450 0.15100
H 	H 	0.59000 0.47000 0.83330 0.12000
H 	H 	0.47700 0.44900 0.92480 0.00100
H 	H 	0.32800 0.23200 0.87340 -0.01400
H 	H 	0.44800 0.23800 0.77680 0.09100
H 	H 	0.30000 0.49200 0.00920 -0.13300
H 	H 	0.16700 0.59000 0.06000 0.32800
H 	H 	0.91200 0.41400 0.10460 0.22900
H 	H 	0.05700 0.32100 0.05500 -0.12800
H 	H 	0.94400 0.63300 0.11020 0.19200
H 	H 	0.85800 0.55200 0.13330 0.23800
H 	H 	0.08900 0.60400 0.18700 -0.06900
H 	H 	0.01500 0.51400 0.21000 -0.04400
H 	H 	0.88600 0.67400 0.21400 0.21100
H 	H 	0.80900 0.60300 0.23450 0.15200
H 	H 	0.91000 0.53000 0.33330 0.12000
H 	H 	0.02300 0.55100 0.42480 0.00100
H 	H 	0.17200 0.76800 0.37340 -0.01400
H 	H 	0.05200 0.76200 0.27680 0.09100
H 	H 	0.80000 0.00800 0.99080 -0.13100
H 	H 	0.66700 0.91000 0.94000 0.32500
H 	H 	0.41200 0.08600 0.89540 0.22500
H 	H 	0.55700 0.17900 0.94500 -0.12500
H 	H 	0.44400 0.86700 0.88980 0.19000
H 	H 	0.35800 0.94800 0.86670 0.23400
H 	H 	0.58900 0.89600 0.81300 -0.06700
H 	H 	0.51500 0.98600 0.79000 -0.04300
H 	H 	0.38600 0.82600 0.78600 0.20900
H 	H 	0.30900 0.89700 0.76550 0.15000
H 	H 	0.41000 0.97000 0.66670 0.11900
H 	H 	0.52300 0.94900 0.57520 0.00100
H 	H 	0.67200 0.73200 0.62660 -0.01400
H 	H 	0.55200 0.73800 0.72320 0.09000
H 	H 	0.70000 0.99200 0.49080 -0.13100
H 	H 	0.83300 0.09000 0.44000 0.32400
H 	H 	0.08800 0.91400 0.39540 0.22400
H 	H 	0.94300 0.82100 0.44500 -0.12500
H 	H 	0.05600 0.13300 0.38980 0.18900
H 	H 	0.14200 0.05200 0.36670 0.23300
H 	H 	0.91100 0.10400 0.31300 -0.06600
H 	H 	0.98500 0.01400 0.29000 -0.04200
H 	H 	0.11400 0.17400 0.28600 0.20800
H 	H 	0.19100 0.10300 0.26550 0.15000
H 	H 	0.09000 0.03000 0.16670 0.11900
H 	H 	0.97700 0.05100 0.07520 0.00100
H 	H 	0.82800 0.26800 0.12660 -0.01500
H 	H 	0.94800 0.26200 0.22320 0.09000
C 	C 	0.27620 0.51910 0.52880 0.41100
C 	C 	0.35410 0.46120 0.56092 -0.66400
C 	C 	0.47190 0.48600 0.59126 0.52800
C 	C 	0.50700 0.56990 0.58690 -0.53000
C 	C 	0.42610 0.62420 0.55425 0.34100
C 	C 	0.55490 0.42630 0.62912 -0.63800
C 	C 	0.49560 0.42180 0.69261 0.29800
C 	C 	0.59190 0.37190 0.73432 -0.48900
C 	C 	0.52410 0.36020 0.79510 0.25100
C 	C 	0.53080 0.42160 0.83888 -0.24300
C 	C 	0.46630 0.40850 0.89331 0.11700
C 	C 	0.38560 0.28000 0.86261 0.10200
C 	C 	0.44970 0.28800 0.80797 -0.21100
C 	C 	0.22380 0.48090 0.02880 0.41700
C 	C 	0.14590 0.53880 0.06092 -0.67300
C 	C 	0.02810 0.51400 0.09126 0.53700
C 	C 	0.99300 0.43010 0.08690 -0.54100
C 	C 	0.07390 0.37580 0.05425 0.34800
C 	C 	0.94510 0.57370 0.12912 -0.64800
C 	C 	0.00440 0.57820 0.19261 0.30400
C 	C 	0.90810 0.62810 0.23432 -0.49300
C 	C 	0.97590 0.63980 0.29510 0.25200
C 	C 	0.96920 0.57840 0.33888 -0.24400
C 	C 	0.03370 0.59150 0.39331 0.11800
C 	C 	0.11440 0.72000 0.36261 0.10200
C 	C 	0.05030 0.71200 0.30797 -0.21100
C 	C 	0.72380 0.01910 0.97120 0.41400
C 	C 	0.64590 0.96120 0.93908 -0.66600
C 	C 	0.52810 0.98600 0.90874 0.52600
C 	C 	0.49300 0.06990 0.91310 -0.52700
C 	C 	0.57390 0.12420 0.94575 0.34100
C 	C 	0.44510 0.92630 0.87088 -0.63700
C 	C 	0.50440 0.92180 0.80739 0.29700
C 	C 	0.40810 0.87190 0.76568 -0.48800
C 	C 	0.47590 0.86020 0.70490 0.25100
C 	C 	0.46920 0.92160 0.66112 -0.24200
C 	C 	0.53370 0.90850 0.60669 0.11700
C 	C 	0.61440 0.78000 0.63739 0.10200
C 	C 	0.55030 0.78800 0.69203 -0.21000
C 	C 	0.77620 0.98090 0.47120 0.41100
C 	C 	0.85410 0.03880 0.43908 -0.66200
C 	C 	0.97190 0.01400 0.40874 0.52400
C 	C 	0.00700 0.93010 0.41310 -0.52800
C 	C 	0.92610 0.87580 0.44575 0.34100
C 	C 	0.05490 0.07370 0.37088 -0.63200
C 	C 	0.99560 0.07820 0.30739 0.29200
C 	C 	0.09190 0.12810 0.26568 -0.48500
C 	C 	0.02410 0.13980 0.20490 0.25000
C 	C 	0.03080 0.07840 0.16112 -0.24000
C 	C 	0.96630 0.09150 0.10669 0.11500
C 	C 	0.88560 0.22000 0.13739 0.10100
C 	C 	0.94970 0.21200 0.19203 -0.21100
S 	S 	0.93149 0.67953 0.55608 0.70800
S 	S 	0.56851 0.32047 0.05608 0.70800
S 	S 	0.06851 0.17953 0.94392 0.70700
S 	S 	0.43149 0.82047 0.44392 0.70800
N 	N 	0.30980 0.60054 0.52610 -0.38400
N 	N 	0.39410 0.33835 0.90591 -0.29000
N 	N 	0.19020 0.39946 0.02610 -0.38600
N 	N 	0.10590 0.66165 0.40591 -0.29100
N 	N 	0.69020 0.10054 0.97390 -0.38400
N 	N 	0.60590 0.83835 0.59409 -0.29000
N 	N 	0.80980 0.89946 0.47390 -0.38400
N 	N 	0.89410 0.16165 0.09409 -0.29000
O 	O 	0.04980 0.73746 0.54027 -0.50200
O 	O 	0.80390 0.70982 0.52386 -0.49800
O 	O 	0.90720 0.68390 0.61955 -0.32700
O 	O 	0.96710 0.59614 0.53492 -0.35600
O 	O 	0.45020 0.26254 0.04027 -0.50200
O 	O 	0.69610 0.29018 0.02386 -0.49800
O 	O 	0.59280 0.31610 0.11955 -0.32700
O 	O 	0.53290 0.40386 0.03492 -0.35600
O 	O 	0.95020 0.23746 0.95973 -0.50100
O 	O 	0.19610 0.20982 0.97614 -0.49700
O 	O 	0.09280 0.18390 0.88045 -0.32700
O 	O 	0.03290 0.09614 0.96508 -0.35500
O 	O 	0.54980 0.76254 0.45973 -0.50200
O 	O 	0.30390 0.79018 0.47614 -0.49800
O 	O 	0.40720 0.81610 0.38045 -0.32700
O 	O 	0.46710 0.90386 0.46508 -0.35600
