data_crystal

_cell_length_a 14.16130
_cell_length_b 15.67640
_cell_length_c 16.13450
_cell_angle_alpha 90.00000
_cell_angle_beta  90.00000
_cell_angle_gamma 90.00000

_symmetry_space_group_name_	'P 1'
_symmetry_space_group_name_H-M	'P 1'

loop_
_symmetry_equiv_pos_as_xyz
  x,y,z

loop_
_atom_site_label
_atom_site_type_symbol
_atom_site_fract_x
_atom_site_fract_y
_atom_site_fract_z
_atom_site_charge
Zn	Zn	0.62042 0.51481 0.31229 1.18600
Zn	Zn	0.64597 0.56939 0.72183 1.18500
Zn	Zn	0.87958 0.48519 0.81229 1.18700
Zn	Zn	0.85403 0.43061 0.22183 1.18300
Zn	Zn	0.37958 0.01481 0.18771 1.16800
Zn	Zn	0.35403 0.06939 0.77817 1.18000
Zn	Zn	0.12042 0.98519 0.68771 1.19900
Zn	Zn	0.14597 0.93061 0.27817 1.18900
Zn	Zn	0.37958 0.48519 0.68771 1.18600
Zn	Zn	0.35403 0.43061 0.27817 1.18400
Zn	Zn	0.12042 0.51481 0.18771 1.18400
Zn	Zn	0.14597 0.56939 0.77817 1.18500
Zn	Zn	0.62042 0.98519 0.81229 1.20100
Zn	Zn	0.64597 0.93061 0.22183 1.18900
Zn	Zn	0.87958 0.01481 0.31229 1.17000
Zn	Zn	0.85403 0.06939 0.72183 1.17900
Zn	Zn	1.00000 0.50000 0.50000 1.17700
Zn	Zn	0.50000 0.50000 -0.00000 1.15300
Zn	Zn	-0.00000 0.00000 -0.00000 1.14000
Zn	Zn	0.50000 0.00000 0.50000 1.16400
H 	H 	0.71530 0.73010 0.29910 -0.00200
H 	H 	0.55300 0.57370 0.51920 -0.03100
H 	H 	0.34470 0.82130 0.13380 0.25500
H 	H 	0.78470 0.26990 0.79910 0.00200
H 	H 	0.94700 0.42630 0.01920 -0.02500
H 	H 	0.15530 0.17870 0.63380 0.25900
H 	H 	0.28470 0.23010 0.20090 -0.00600
H 	H 	0.44700 0.07370 0.98080 -0.04500
H 	H 	0.65530 0.32130 0.36620 0.26000
H 	H 	0.21530 0.76990 0.70090 0.00100
H 	H 	0.05300 0.92630 0.48080 -0.02500
H 	H 	0.84470 0.67870 0.86620 0.26700
H 	H 	0.28470 0.26990 0.70090 -0.00100
H 	H 	0.44700 0.42630 0.48080 -0.03200
H 	H 	0.65530 0.17870 0.86620 0.26600
H 	H 	0.21530 0.73010 0.20090 -0.00400
H 	H 	0.05300 0.57370 0.98080 -0.03800
H 	H 	0.84470 0.82130 0.36620 0.26200
H 	H 	0.71530 0.76990 0.79910 0.00300
H 	H 	0.55300 0.92630 0.01920 -0.02000
H 	H 	0.34470 0.67870 0.63380 0.26000
H 	H 	0.78470 0.23010 0.29910 -0.00400
H 	H 	0.94700 0.07370 0.51920 -0.03800
H 	H 	0.15530 0.32130 0.13380 0.25200
C 	C 	0.52480 0.76220 0.21950 -0.06100
C 	C 	0.52130 0.67650 0.24100 -0.02200
C 	C 	0.65450 0.72670 0.27750 0.10100
C 	C 	0.45360 0.81850 0.18190 0.38400
C 	C 	0.44440 0.61290 0.23360 0.31500
C 	C 	0.74250 0.49790 0.47310 -0.06900
C 	C 	0.75090 0.51180 0.55770 -0.06000
C 	C 	0.61410 0.55190 0.51800 0.10300
C 	C 	0.80710 0.46260 0.40770 0.36000
C 	C 	0.82690 0.49620 0.62130 0.34600
C 	C 	0.97520 0.23780 0.71950 -0.06400
C 	C 	0.97870 0.32350 0.74100 -0.01800
C 	C 	0.84550 0.27330 0.77750 0.10700
C 	C 	0.04640 0.18150 0.68190 0.39700
C 	C 	0.05560 0.38710 0.73360 0.31700
C 	C 	0.75750 0.50210 0.97310 0.03300
C 	C 	0.74910 0.48820 0.05770 -0.15700
C 	C 	0.88590 0.44810 0.01800 0.01200
C 	C 	0.69290 0.53740 0.90770 0.33400
C 	C 	0.67310 0.50380 0.12130 0.36900
C 	C 	0.47520 0.26220 0.28050 -0.06300
C 	C 	0.47870 0.17650 0.25900 -0.02800
C 	C 	0.34550 0.22670 0.22250 0.09700
C 	C 	0.54640 0.31850 0.31810 0.38800
C 	C 	0.55560 0.11290 0.26640 0.31500
C 	C 	0.25750 0.99790 0.02690 -0.05700
C 	C 	0.24910 0.01180 0.94230 -0.07200
C 	C 	0.38590 0.05190 0.98200 0.19500
C 	C 	0.19290 0.96260 0.09230 0.35500
C 	C 	0.17310 0.99620 0.87870 0.42800
C 	C 	0.02480 0.73780 0.78050 -0.05700
C 	C 	0.02130 0.82350 0.75900 -0.01300
C 	C 	0.15450 0.77330 0.72250 0.10700
C 	C 	0.95360 0.68150 0.81810 0.39300
C 	C 	0.94440 0.88710 0.76640 0.31100
C 	C 	0.24250 0.00210 0.52690 -0.17600
C 	C 	0.25090 0.98820 0.44230 0.06400
C 	C 	0.11410 0.94810 0.48200 0.11100
C 	C 	0.30710 0.03740 0.59230 0.39000
C 	C 	0.32690 0.00380 0.37870 0.22200
C 	C 	0.47520 0.23780 0.78050 -0.06000
C 	C 	0.47870 0.32350 0.75900 -0.01600
C 	C 	0.34550 0.27330 0.72250 0.10500
C 	C 	0.54640 0.18150 0.81810 0.39600
C 	C 	0.55560 0.38710 0.76640 0.31400
C 	C 	0.25750 0.50210 0.52690 -0.06900
C 	C 	0.24910 0.48820 0.44230 -0.05900
C 	C 	0.38590 0.44810 0.48200 0.10300
C 	C 	0.19290 0.53740 0.59230 0.36000
C 	C 	0.17310 0.50380 0.37870 0.34600
C 	C 	0.02480 0.76220 0.28050 -0.06000
C 	C 	0.02130 0.67650 0.25900 -0.02300
C 	C 	0.15450 0.72670 0.22250 0.10000
C 	C 	0.95360 0.81850 0.31810 0.38700
C 	C 	0.94440 0.61290 0.26640 0.31400
C 	C 	0.24250 0.49790 0.02690 -0.17100
C 	C 	0.25090 0.51180 0.94230 0.04100
C 	C 	0.11410 0.55190 0.98200 0.19600
C 	C 	0.30710 0.46260 0.09230 0.38500
C 	C 	0.32690 0.49620 0.87870 0.32100
C 	C 	0.52480 0.73780 0.71950 -0.05900
C 	C 	0.52130 0.82350 0.74100 -0.01200
C 	C 	0.65450 0.77330 0.77750 0.10900
C 	C 	0.45360 0.68150 0.68190 0.39200
C 	C 	0.44440 0.88710 0.73360 0.31300
C 	C 	0.74250 0.00210 0.97310 -0.07500
C 	C 	0.75090 0.98820 0.05770 -0.02400
C 	C 	0.61410 0.94810 0.01800 0.02800
C 	C 	0.80710 0.03740 0.90770 0.36500
C 	C 	0.82690 0.00380 0.12130 0.23400
C 	C 	0.97520 0.26220 0.21950 -0.06400
C 	C 	0.97870 0.17650 0.24100 -0.02800
C 	C 	0.84550 0.22670 0.27750 0.09800
C 	C 	0.04640 0.31850 0.18190 0.38700
C 	C 	0.05560 0.11290 0.23360 0.31800
C 	C 	0.75750 0.99790 0.47310 0.04500
C 	C 	0.74910 0.01180 0.55770 -0.18300
C 	C 	0.88590 0.05190 0.51800 0.09500
C 	C 	0.69290 0.96260 0.40770 0.32900
C 	C 	0.67310 0.99620 0.62130 0.46700
N 	N 	0.61080 0.79280 0.24330 -0.22400
N 	N 	0.60440 0.65550 0.27840 -0.21900
N 	N 	0.65450 0.52430 0.44930 -0.22100
N 	N 	0.66820 0.54610 0.58560 -0.22000
N 	N 	0.88920 0.20720 0.74330 -0.22300
N 	N 	0.89560 0.34450 0.77840 -0.21600
N 	N 	0.84550 0.47570 0.94930 -0.18800
N 	N 	0.83180 0.45390 0.08560 -0.20100
N 	N 	0.38920 0.29280 0.25670 -0.22400
N 	N 	0.39560 0.15550 0.22160 -0.22600
N 	N 	0.34550 0.02430 0.05070 -0.29900
N 	N 	0.33180 0.04610 0.91440 -0.23100
N 	N 	0.11080 0.70720 0.75670 -0.22200
N 	N 	0.10440 0.84450 0.72160 -0.21600
N 	N 	0.15450 0.97570 0.55070 -0.18400
N 	N 	0.16820 0.95390 0.41440 -0.23200
N 	N 	0.38920 0.20720 0.75670 -0.22200
N 	N 	0.39560 0.34450 0.72160 -0.21900
N 	N 	0.34550 0.47570 0.55070 -0.22100
N 	N 	0.33180 0.45390 0.41440 -0.22100
N 	N 	0.11080 0.79280 0.25670 -0.22300
N 	N 	0.10440 0.65550 0.22160 -0.22200
N 	N 	0.15450 0.52430 0.05070 -0.25500
N 	N 	0.16820 0.54610 0.91440 -0.24100
N 	N 	0.61080 0.70720 0.74330 -0.22200
N 	N 	0.60440 0.84450 0.77840 -0.21300
N 	N 	0.65450 0.97570 0.94930 -0.15600
N 	N 	0.66820 0.95390 0.08560 -0.21400
N 	N 	0.88920 0.29280 0.24330 -0.22500
N 	N 	0.89560 0.15550 0.27840 -0.22300
N 	N 	0.84550 0.02430 0.44930 -0.26100
N 	N 	0.83180 0.04610 0.58560 -0.20900
O 	O 	0.47390 0.89510 0.17390 -0.49500
O 	O 	0.37530 0.78600 0.16000 -0.49800
O 	O 	0.36810 0.63450 0.19810 -0.27800
O 	O 	0.45760 0.54190 0.26500 -0.49600
O 	O 	0.76890 0.45370 0.33750 -0.52300
O 	O 	0.89020 0.44180 0.42070 -0.46500
O 	O 	0.90270 0.46130 0.60370 -0.44300
O 	O 	0.80610 0.52120 0.69300 -0.50900
O 	O 	0.02610 0.10490 0.67390 -0.52000
O 	O 	0.12470 0.21400 0.66000 -0.49800
O 	O 	0.13190 0.36550 0.69810 -0.27200
O 	O 	0.04240 0.45810 0.76500 -0.49100
O 	O 	0.73110 0.54630 0.83750 -0.51400
O 	O 	0.60980 0.55820 0.92070 -0.42700
O 	O 	0.59730 0.53870 0.10370 -0.46800
O 	O 	0.69390 0.47880 0.19300 -0.51800
O 	O 	0.52610 0.39510 0.32610 -0.50800
O 	O 	0.62470 0.28600 0.34000 -0.49900
O 	O 	0.63190 0.13450 0.30190 -0.28900
O 	O 	0.54240 0.04190 0.23500 -0.52600
O 	O 	0.23110 0.95370 0.16250 -0.50900
O 	O 	0.10980 0.94180 0.07930 -0.46600
O 	O 	0.09730 0.96130 0.89630 -0.42200
O 	O 	0.19390 0.02120 0.80700 -0.55300
O 	O 	0.97390 0.60490 0.82610 -0.50300
O 	O 	0.87530 0.71400 0.84000 -0.49200
O 	O 	0.86810 0.86550 0.80190 -0.25500
O 	O 	0.95760 0.95810 0.73500 -0.47100
O 	O 	0.26890 0.04630 0.66250 -0.54100
O 	O 	0.39020 0.05820 0.57930 -0.48500
O 	O 	0.40270 0.03870 0.39630 -0.42200
O 	O 	0.30610 0.97880 0.30700 -0.44100
O 	O 	0.52610 0.10490 0.82610 -0.51600
O 	O 	0.62470 0.21400 0.84000 -0.49500
O 	O 	0.63190 0.36550 0.80190 -0.26700
O 	O 	0.54240 0.45810 0.73500 -0.49400
O 	O 	0.23110 0.54630 0.66250 -0.52200
O 	O 	0.10980 0.55820 0.57930 -0.46400
O 	O 	0.09730 0.53870 0.39630 -0.44100
O 	O 	0.19390 0.47880 0.30700 -0.50800
O 	O 	0.97390 0.89510 0.32610 -0.49100
O 	O 	0.87530 0.78600 0.34000 -0.49600
O 	O 	0.86810 0.63450 0.30190 -0.27400
O 	O 	0.95760 0.54190 0.23500 -0.49900
O 	O 	0.26890 0.45370 0.16250 -0.53100
O 	O 	0.39020 0.44180 0.07930 -0.49500
O 	O 	0.40270 0.46130 0.89630 -0.40800
O 	O 	0.30610 0.52120 0.80700 -0.49800
O 	O 	0.47390 0.60490 0.67390 -0.50700
O 	O 	0.37530 0.71400 0.66000 -0.49400
O 	O 	0.36810 0.86550 0.69810 -0.25900
O 	O 	0.45760 0.95810 0.76500 -0.46900
O 	O 	0.76890 0.04630 0.83750 -0.53300
O 	O 	0.89020 0.05820 0.92070 -0.44800
O 	O 	0.90270 0.03870 0.10370 -0.44700
O 	O 	0.80610 0.97880 0.19300 -0.44500
O 	O 	0.02610 0.39510 0.17390 -0.51300
O 	O 	0.12470 0.28600 0.16000 -0.50200
O 	O 	0.13190 0.13450 0.19810 -0.29300
O 	O 	0.04240 0.04190 0.26500 -0.52100
O 	O 	0.73110 0.95370 0.33750 -0.50100
O 	O 	0.60980 0.94180 0.42070 -0.43800
O 	O 	0.59730 0.96130 0.60370 -0.45700
O 	O 	0.69390 0.02120 0.69300 -0.57100
