data_crystal

_cell_length_a 11.11160
_cell_length_b 12.62290
_cell_length_c 17.80000
_cell_angle_alpha 88.56800
_cell_angle_beta  83.83300
_cell_angle_gamma 70.16700

_symmetry_space_group_name_	'P 1'
_symmetry_space_group_name_H-M	'P 1'

loop_
_symmetry_equiv_pos_as_xyz
  x,y,z

loop_
_atom_site_label
_atom_site_type_symbol
_atom_site_fract_x
_atom_site_fract_y
_atom_site_fract_z
_atom_site_charge
Mg	Mg	0.70081 0.30106 0.74395 1.48000
Mg	Mg	0.69976 0.42203 0.56267 1.45700
Mg	Mg	0.68649 0.17656 0.92285 1.45800
Mg	Mg	0.29919 0.69894 0.25605 1.48000
Mg	Mg	0.30024 0.57797 0.43733 1.45700
Mg	Mg	0.31351 0.82344 0.07715 1.45800
H 	H 	0.34450 0.69000 0.62560 0.02900
H 	H 	0.40710 0.58920 0.83680 0.02300
H 	H 	0.23690 0.73990 0.88380 0.03600
H 	H 	0.04770 0.90910 0.86180 0.02600
H 	H 	0.98560 0.00810 0.65080 0.01600
H 	H 	0.15690 0.85940 0.60390 0.05900
H 	H 	0.39320 0.36160 0.76570 0.04900
H 	H 	0.38170 0.05460 0.81750 0.02000
H 	H 	0.19640 0.09160 0.76170 0.07000
H 	H 	0.01310 0.22930 0.70290 0.06200
H 	H 	0.02540 0.53570 0.65040 0.02500
H 	H 	0.21560 0.49580 0.69970 0.05500
H 	H 	0.83640 0.39160 0.02740 0.04000
H 	H 	0.94480 0.46670 0.81850 0.03600
H 	H 	0.07640 0.55030 0.86380 0.06500
H 	H 	0.56520 0.17730 0.46030 0.04400
H 	H 	0.48890 0.92940 0.63930 0.06800
H 	H 	0.55640 0.07100 0.67300 0.03100
H 	H 	0.65550 0.31000 0.37440 0.02400
H 	H 	0.59290 0.41080 0.16320 0.01900
H 	H 	0.76310 0.26010 0.11620 0.04200
H 	H 	0.95230 0.09090 0.13820 0.03600
H 	H 	0.01440 0.99190 0.34920 0.03400
H 	H 	0.84310 0.14060 0.39610 0.04700
H 	H 	0.60680 0.63840 0.23430 0.04800
H 	H 	0.61830 0.94540 0.18250 0.01800
H 	H 	0.80360 0.90840 0.23830 0.07000
H 	H 	0.98690 0.77070 0.29710 0.06200
H 	H 	0.97460 0.46430 0.34960 0.02600
H 	H 	0.78440 0.50420 0.30030 0.05300
H 	H 	0.16360 0.60840 0.97260 0.03900
H 	H 	0.05520 0.53330 0.18150 0.03300
H 	H 	0.92360 0.44970 0.13620 0.06900
H 	H 	0.43480 0.82270 0.53970 0.04400
H 	H 	0.51110 0.07060 0.36070 0.06600
H 	H 	0.44360 0.92900 0.32700 0.03300
C 	C 	0.32160 0.69990 0.67740 -0.02800
C 	C 	0.39320 0.62560 0.72530 -0.12300
C 	C 	0.35910 0.64070 0.80390 0.02100
C 	C 	0.25680 0.72990 0.83180 -0.09500
C 	C 	0.07070 0.89930 0.81000 0.00000
C 	C 	0.99810 0.97390 0.76220 -0.14700
C 	C 	0.03380 0.95730 0.68410 0.05800
C 	C 	0.13670 0.86900 0.65590 -0.12200
C 	C 	0.21290 0.79200 0.70460 0.02700
C 	C 	0.18040 0.80740 0.78300 0.00000
C 	C 	0.88370 0.07170 0.79110 0.46200
C 	C 	0.50900 0.52710 0.69540 0.45100
C 	C 	0.35190 0.30860 0.76570 -0.02700
C 	C 	0.40520 0.20700 0.79720 -0.10800
C 	C 	0.34500 0.12450 0.79590 0.03200
C 	C 	0.23380 0.14710 0.76330 -0.11200
C 	C 	0.05520 0.28180 0.70240 -0.04900
C 	C 	0.00000 0.38610 0.67320 -0.08900
C 	C 	0.06240 0.46560 0.67170 0.01100
C 	C 	0.17590 0.44160 0.70090 -0.10000
C 	C 	0.23490 0.33630 0.73300 0.01800
C 	C 	0.17470 0.25250 0.73190 0.03900
C 	C 	0.87370 0.41380 0.64140 0.35300
C 	C 	0.52110 0.18450 0.83700 0.35900
C 	C 	0.88520 0.42360 0.99480 -0.02100
C 	C 	0.87970 0.41810 0.91930 -0.12200
C 	C 	0.95050 0.46790 0.87020 0.02900
C 	C 	0.02860 0.51870 0.89740 -0.09700
C 	C 	0.96270 0.47640 0.02520 0.02000
C 	C 	0.80220 0.35440 0.88850 0.45200
C 	C 	0.55010 0.12680 0.49590 -0.02300
C 	C 	0.56460 0.13980 0.57010 -0.12100
C 	C 	0.50450 0.97820 0.60260 -0.10700
C 	C 	0.54360 0.06360 0.62290 0.04100
C 	C 	0.51250 0.03740 0.47270 0.02300
C 	C 	0.60580 0.23450 0.59550 0.43900
C 	C 	0.67840 0.30010 0.32260 -0.01400
C 	C 	0.60680 0.37440 0.27470 -0.13300
C 	C 	0.64090 0.35930 0.19610 0.03400
C 	C 	0.74320 0.27010 0.16820 -0.11100
C 	C 	0.92930 0.10070 0.19000 -0.03300
C 	C 	0.00190 0.02610 0.23780 -0.10800
C 	C 	0.96620 0.04270 0.31590 0.01400
C 	C 	0.86330 0.13100 0.34410 -0.09100
C 	C 	0.78710 0.20800 0.29540 0.00500
C 	C 	0.81960 0.19260 0.21700 0.02200
C 	C 	0.11630 0.92830 0.20890 0.44800
C 	C 	0.49100 0.47290 0.30460 0.45500
C 	C 	0.64810 0.69140 0.23430 -0.02400
C 	C 	0.59480 0.79300 0.20280 -0.11000
C 	C 	0.65500 0.87550 0.20410 0.03400
C 	C 	0.76620 0.85290 0.23670 -0.11500
C 	C 	0.94480 0.71820 0.29760 -0.05700
C 	C 	0.00000 0.61390 0.32680 -0.08200
C 	C 	0.93760 0.53440 0.32830 0.00200
C 	C 	0.82410 0.55840 0.29910 -0.09500
C 	C 	0.76510 0.66370 0.26700 0.01300
C 	C 	0.82530 0.74750 0.26810 0.04200
C 	C 	0.12630 0.58620 0.35860 0.35400
C 	C 	0.47890 0.81550 0.16300 0.35900
C 	C 	0.11480 0.57640 0.00520 -0.01600
C 	C 	0.12030 0.58190 0.08070 -0.12800
C 	C 	0.04950 0.53210 0.12980 0.04400
C 	C 	0.97140 0.48130 0.10260 -0.11200
C 	C 	0.03730 0.52360 0.97480 0.01900
C 	C 	0.19780 0.64560 0.11150 0.45400
C 	C 	0.44990 0.87320 0.50410 -0.02500
C 	C 	0.43540 0.86020 0.42990 -0.11900
C 	C 	0.49550 0.02180 0.39740 -0.10100
C 	C 	0.45640 0.93640 0.37710 0.03500
C 	C 	0.48750 0.96260 0.52730 0.02400
C 	C 	0.39420 0.76550 0.40450 0.43800
O 	O 	0.84050 0.14690 0.74510 -0.51000
O 	O 	0.84010 0.07020 0.85890 -0.55600
O 	O 	0.54270 0.52400 0.62590 -0.56300
O 	O 	0.56170 0.45660 0.74198 -0.50800
O 	O 	0.83710 0.49640 0.59950 -0.46800
O 	O 	0.81000 0.34770 0.65237 -0.62300
O 	O 	0.55190 0.10480 0.88150 -0.47800
O 	O 	0.58540 0.25230 0.82868 -0.62200
O 	O 	0.78400 0.36600 0.82046 -0.50300
O 	O 	0.76350 0.29350 0.93489 -0.58900
O 	O 	0.62690 0.23550 0.66180 -0.50800
O 	O 	0.61550 0.30660 0.54630 -0.56300
O 	O 	0.15950 0.85310 0.25490 -0.50600
O 	O 	0.15990 0.92980 0.14110 -0.55100
O 	O 	0.45730 0.47600 0.37410 -0.56400
O 	O 	0.43830 0.54340 0.25802 -0.50900
O 	O 	0.16290 0.50360 0.40050 -0.46600
O 	O 	0.19000 0.65230 0.34763 -0.62200
O 	O 	0.44810 0.89520 0.11850 -0.47900
O 	O 	0.41460 0.74770 0.17132 -0.62200
O 	O 	0.21600 0.63400 0.17954 -0.50300
O 	O 	0.23650 0.70650 0.06511 -0.58900
O 	O 	0.37310 0.76450 0.33820 -0.50800
O 	O 	0.38450 0.69340 0.45370 -0.56300
