data_crystal

_cell_length_a 14.44300
_cell_length_b 14.53700
_cell_length_c 22.01500
_cell_angle_alpha 90.00000
_cell_angle_beta  99.97300
_cell_angle_gamma 90.00000

_symmetry_space_group_name_	'P 1'
_symmetry_space_group_name_H-M	'P 1'

loop_
_symmetry_equiv_pos_as_xyz
  x,y,z

loop_
_atom_site_label
_atom_site_type_symbol
_atom_site_fract_x
_atom_site_fract_y
_atom_site_fract_z
_atom_site_charge
Co	Co	0.18990 0.81220 0.06070 1.12800
Co	Co	0.84670 0.16460 0.06800 1.13100
Co	Co	0.56960 0.99210 0.27560 1.08800
Co	Co	0.60260 0.11830 0.41220 1.08200
Co	Co	0.62130 0.91270 0.40550 1.07800
Co	Co	0.81010 0.31220 0.93930 1.13000
Co	Co	0.15330 0.66460 0.93200 1.13000
Co	Co	0.43040 0.49210 0.72440 1.11200
Co	Co	0.39740 0.61830 0.58780 1.08100
Co	Co	0.37870 0.41270 0.59450 1.09200
H 	H 	0.05830 0.69100 0.02250 0.15000
H 	H 	0.04010 0.77650 0.97850 0.15100
H 	H 	0.71690 0.02700 0.35330 0.16500
H 	H 	0.30100 0.44400 0.03840 0.29700
H 	H 	0.39610 0.48420 0.02490 0.30400
H 	H 	0.39460 0.42630 0.08480 0.28500
H 	H 	0.47740 0.55830 0.14690 0.23500
H 	H 	0.47350 0.62050 0.08830 0.26400
H 	H 	0.42870 0.65500 0.14410 0.26000
H 	H 	0.23270 0.50720 0.13030 0.25100
H 	H 	0.32930 0.49710 0.17500 0.24300
H 	H 	0.28020 0.59340 0.16550 0.25900
H 	H 	0.33390 0.85910 0.83440 0.08100
H 	H 	0.38850 0.94910 0.85790 0.04700
H 	H 	0.23800 0.06000 0.92730 0.18300
H 	H 	0.31230 0.00780 0.97540 0.20800
H 	H 	0.34220 0.05150 0.91670 0.16800
H 	H 	0.14500 0.89210 0.83890 0.14700
H 	H 	0.14960 0.99850 0.85040 0.12900
H 	H 	0.20930 0.95370 0.80510 0.12200
H 	H 	0.41320 0.91310 0.91370 0.03800
H 	H 	0.47290 0.22690 0.16970 0.45200
H 	H 	0.37490 0.20960 0.18900 0.45100
H 	H 	0.40130 0.30820 0.16880 0.42700
H 	H 	0.36880 0.37160 0.27150 0.41300
H 	H 	0.34360 0.27230 0.29100 0.41300
H 	H 	0.42220 0.32880 0.33310 0.42800
H 	H 	0.59320 0.31970 0.24040 0.45700
H 	H 	0.52190 0.40030 0.24300 0.43800
H 	H 	0.57130 0.35300 0.30410 0.43600
H 	H 	0.73170 0.75640 0.20190 0.44400
H 	H 	0.69720 0.65410 0.19460 0.43800
H 	H 	0.62390 0.73450 0.18710 0.44600
H 	H 	0.76350 0.67200 0.35720 0.45200
H 	H 	0.78100 0.61330 0.30050 0.44900
H 	H 	0.82030 0.71380 0.30920 0.44600
H 	H 	0.59600 0.63570 0.32510 0.44300
H 	H 	0.54620 0.66010 0.25810 0.43000
H 	H 	0.62150 0.58150 0.26870 0.42300
H 	H 	0.83180 0.92320 0.64290 0.27200
H 	H 	0.72960 0.89540 0.61210 0.28500
H 	H 	0.81550 0.86540 0.58190 0.31100
H 	H 	0.87360 0.09060 0.53220 0.24700
H 	H 	0.92030 0.04140 0.59330 0.24400
H 	H 	0.90410 0.98730 0.53070 0.21800
H 	H 	0.73610 0.13650 0.57820 0.30700
H 	H 	0.67310 0.06230 0.60290 0.32300
H 	H 	0.77200 0.08690 0.64110 0.29400
H 	H 	0.31380 0.77840 0.18130 -0.03300
H 	H 	0.44480 0.82800 0.24420 -0.02400
H 	H 	0.44090 0.04850 0.14750 0.06400
H 	H 	0.31070 0.99800 0.08240 -0.03100
H 	H 	0.98000 0.03460 0.15440 -0.04200
H 	H 	0.09600 0.92970 0.15340 0.00300
H 	H 	0.04820 0.93430 0.97500 0.02200
H 	H 	0.92970 0.03960 0.97710 -0.04200
H 	H 	0.80460 0.19570 0.19700 -0.02900
H 	H 	0.70900 0.14430 0.26190 -0.00800
H 	H 	0.64140 0.93420 0.15630 0.06500
H 	H 	0.73040 0.98930 0.08920 -0.10800
H 	H 	0.42710 0.21080 0.58120 -0.01800
H 	H 	0.49780 0.11610 0.52370 -0.01000
H 	H 	0.56990 0.32160 0.43320 -0.03200
H 	H 	0.48880 0.41710 0.48620 -0.01800
H 	H 	0.94170 0.19100 0.97750 0.15200
H 	H 	0.95990 0.27650 0.02150 0.15200
H 	H 	0.28310 0.52700 0.64670 0.15800
H 	H 	0.69900 0.94400 0.96160 0.30000
H 	H 	0.60390 0.98420 0.97510 0.30800
H 	H 	0.60540 0.92630 0.91520 0.29500
H 	H 	0.52260 0.05830 0.85310 0.25500
H 	H 	0.52650 0.12050 0.91170 0.27700
H 	H 	0.57130 0.15500 0.85590 0.26600
H 	H 	0.76730 0.00720 0.86970 0.22200
H 	H 	0.67070 0.99710 0.82500 0.17000
H 	H 	0.71980 0.09340 0.83450 0.22000
H 	H 	0.66610 0.35910 0.16560 0.09800
H 	H 	0.61150 0.44910 0.14210 0.07400
H 	H 	0.76200 0.56000 0.07270 0.20400
H 	H 	0.68770 0.50780 0.02460 0.22300
H 	H 	0.65780 0.55150 0.08330 0.19100
H 	H 	0.85500 0.39210 0.16110 0.17900
H 	H 	0.85040 0.49850 0.14960 0.17100
H 	H 	0.79070 0.45370 0.19490 0.16100
H 	H 	0.58680 0.41310 0.08630 0.05400
H 	H 	0.52710 0.72690 0.83030 0.41800
H 	H 	0.62510 0.70960 0.81100 0.41200
H 	H 	0.59870 0.80820 0.83120 0.39200
H 	H 	0.63120 0.87160 0.72850 0.37400
H 	H 	0.65640 0.77230 0.70900 0.37500
H 	H 	0.57780 0.82880 0.66690 0.39000
H 	H 	0.40680 0.81970 0.75960 0.42000
H 	H 	0.47810 0.90030 0.75700 0.39500
H 	H 	0.42870 0.85300 0.69590 0.39700
H 	H 	0.26830 0.25640 0.79810 0.49200
H 	H 	0.30280 0.15410 0.80540 0.48800
H 	H 	0.37610 0.23450 0.81290 0.49100
H 	H 	0.23650 0.17200 0.64280 0.50600
H 	H 	0.21900 0.11330 0.69950 0.50800
H 	H 	0.17970 0.21380 0.69080 0.50200
H 	H 	0.40400 0.13570 0.67490 0.49300
H 	H 	0.45380 0.16010 0.74190 0.47700
H 	H 	0.37850 0.08150 0.73130 0.47900
H 	H 	0.16820 0.42320 0.35710 0.24700
H 	H 	0.27040 0.39540 0.38790 0.25100
H 	H 	0.18450 0.36540 0.41810 0.27600
H 	H 	0.12640 0.59060 0.46780 0.25800
H 	H 	0.07970 0.54140 0.40670 0.25300
H 	H 	0.09590 0.48730 0.46930 0.26900
H 	H 	0.26390 0.63650 0.42180 0.26800
H 	H 	0.32690 0.56230 0.39710 0.27600
H 	H 	0.22800 0.58690 0.35890 0.25200
H 	H 	0.68620 0.27840 0.81870 -0.02800
H 	H 	0.55520 0.32800 0.75580 -0.02600
H 	H 	0.55910 0.54850 0.85250 -0.00300
H 	H 	0.68930 0.49800 0.91760 -0.00100
H 	H 	0.02000 0.53460 0.84560 -0.02700
H 	H 	0.90400 0.42970 0.84660 -0.01200
H 	H 	0.95180 0.43430 0.02500 0.00300
H 	H 	0.07030 0.53960 0.02290 -0.02500
H 	H 	0.19540 0.69570 0.80300 -0.02000
H 	H 	0.29100 0.64430 0.73810 -0.02000
H 	H 	0.35860 0.43420 0.84370 0.00100
H 	H 	0.26960 0.48930 0.91080 0.00400
H 	H 	0.57290 0.71080 0.41880 -0.01700
H 	H 	0.50220 0.61610 0.47630 -0.01600
H 	H 	0.43010 0.82160 0.56680 -0.03400
H 	H 	0.51120 0.91710 0.51380 -0.03200
C 	C 	0.28700 0.62800 0.04800 0.18100
C 	C 	0.34400 0.55700 0.09100 0.51200
C 	C 	0.36100 0.47000 0.05700 -0.97500
C 	C 	0.44000 0.60200 0.12000 -0.86900
C 	C 	0.29200 0.53700 0.14600 -0.88600
C 	C 	0.24100 0.85500 0.93940 0.30800
C 	C 	0.26800 0.93100 0.89700 0.17000
C 	C 	0.35500 0.89700 0.87000 -0.29200
C 	C 	0.29200 0.02100 0.93200 -0.56200
C 	C 	0.18500 0.94500 0.84300 -0.52200
C 	C 	0.50800 0.18900 0.28900 0.03300
C 	C 	0.46700 0.27600 0.25700 0.98600
C 	C 	0.42500 0.25300 0.19000 -1.46600
C 	C 	0.39400 0.31600 0.29100 -1.42900
C 	C 	0.54500 0.34300 0.26100 -1.51300
C 	C 	0.65100 0.79900 0.30200 -0.03500
C 	C 	0.68100 0.71000 0.27800 1.02200
C 	C 	0.68400 0.71400 0.20900 -1.48300
C 	C 	0.76900 0.67400 0.31400 -1.54800
C 	C 	0.60400 0.64000 0.28300 -1.46900
C 	C 	0.71600 0.98500 0.50400 0.14000
C 	C 	0.78200 0.00400 0.56600 0.58600
C 	C 	0.79100 0.91300 0.60400 -1.01900
C 	C 	0.87900 0.03400 0.55400 -0.84700
C 	C 	0.73600 0.08000 0.60000 -1.02400
C 	C 	0.34000 0.83400 0.17280 0.00200
C 	C 	0.41800 0.86500 0.21110 -0.03200
C 	C 	0.41600 0.99100 0.15500 -0.11100
C 	C 	0.33800 0.96100 0.11500 0.04400
C 	C 	0.99300 0.01400 0.11660 0.08600
C 	C 	0.06300 0.95200 0.11620 -0.10900
C 	C 	0.03500 0.95400 0.01290 -0.10700
C 	C 	0.96300 0.01800 0.01410 0.09400
C 	C 	0.77000 0.14200 0.18710 0.03000
C 	C 	0.71200 0.11100 0.22630 -0.02800
C 	C 	0.67300 0.99000 0.16470 -0.21600
C 	C 	0.72800 0.02200 0.12500 0.22100
C 	C 	0.45500 0.23600 0.55000 -0.00500
C 	C 	0.49900 0.17900 0.51600 -0.02300
C 	C 	0.53900 0.29700 0.46300 -0.00800
C 	C 	0.49200 0.35500 0.49600 -0.02500
C 	C 	0.71300 0.12800 0.95200 0.18000
C 	C 	0.65600 0.05700 0.90900 0.52500
C 	C 	0.63900 0.97000 0.94300 -1.02900
C 	C 	0.56000 0.10200 0.88000 -0.88600
C 	C 	0.70800 0.03700 0.85400 -0.74300
C 	C 	0.75900 0.35500 0.06060 0.28300
C 	C 	0.73200 0.43100 0.10300 0.25800
C 	C 	0.64500 0.39700 0.13000 -0.34600
C 	C 	0.70800 0.52100 0.06800 -0.68200
C 	C 	0.81500 0.44500 0.15700 -0.62000
C 	C 	0.49200 0.68900 0.71100 0.06600
C 	C 	0.53300 0.77600 0.74300 0.89800
C 	C 	0.57500 0.75300 0.81000 -1.36100
C 	C 	0.60600 0.81600 0.70900 -1.32000
C 	C 	0.45500 0.84300 0.73900 -1.39700
C 	C 	0.34900 0.29900 0.69800 -0.07900
C 	C 	0.31900 0.21000 0.72200 1.14200
C 	C 	0.31600 0.21400 0.79100 -1.62500
C 	C 	0.23100 0.17400 0.68600 -1.70900
C 	C 	0.39600 0.14000 0.71700 -1.61500
C 	C 	0.28400 0.48500 0.49600 0.27700
C 	C 	0.21800 0.50400 0.43400 0.46500
C 	C 	0.20900 0.41300 0.39600 -0.87400
C 	C 	0.12100 0.53400 0.44600 -0.90400
C 	C 	0.26400 0.58000 0.40000 -0.90200
C 	C 	0.66000 0.33400 0.82720 -0.00700
C 	C 	0.58200 0.36500 0.78890 -0.02200
C 	C 	0.58400 0.49100 0.84500 -0.00200
C 	C 	0.66200 0.46100 0.88500 -0.00500
C 	C 	0.00700 0.51400 0.88340 0.01800
C 	C 	0.93700 0.45200 0.88380 -0.04300
C 	C 	0.96500 0.45400 0.98710 -0.03900
C 	C 	0.03700 0.51800 0.98590 0.02500
C 	C 	0.23000 0.64200 0.81290 -0.00200
C 	C 	0.28800 0.61100 0.77370 -0.00300
C 	C 	0.32700 0.49000 0.83530 -0.01200
C 	C 	0.27200 0.52200 0.87500 -0.00400
C 	C 	0.54500 0.73600 0.45000 -0.01000
C 	C 	0.50100 0.67900 0.48400 -0.02200
C 	C 	0.46100 0.79700 0.53700 -0.01100
C 	C 	0.50800 0.85500 0.50400 -0.02500
N 	N 	0.30100 0.88100 0.12430 -0.22700
N 	N 	0.45800 0.94400 0.20270 -0.20500
N 	N 	0.94300 0.04700 0.06600 -0.24900
N 	N 	0.08600 0.92200 0.06350 -0.19100
N 	N 	0.77800 0.09900 0.13670 -0.25600
N 	N 	0.66200 0.03700 0.21550 -0.15100
N 	N 	0.45100 0.32500 0.54090 -0.23700
N 	N 	0.54200 0.20800 0.47130 -0.23700
N 	N 	0.69900 0.38100 0.87570 -0.21500
N 	N 	0.54200 0.44400 0.79730 -0.21900
N 	N 	0.05700 0.54700 0.93400 -0.22900
N 	N 	0.91400 0.42200 0.93650 -0.21000
N 	N 	0.22200 0.59900 0.86330 -0.21600
N 	N 	0.33800 0.53700 0.78450 -0.21400
N 	N 	0.54900 0.82500 0.45910 -0.24000
N 	N 	0.45800 0.70800 0.52870 -0.23700
O 	O 	0.28510 0.70680 0.06770 -0.42600
O 	O 	0.08820 0.73530 0.99930 -0.67200
O 	O 	0.24200 0.59850 0.99810 -0.41200
O 	O 	0.65010 0.02100 0.35580 -0.76900
O 	O 	0.22900 0.88230 0.99140 -0.45700
O 	O 	0.23290 0.77720 0.91930 -0.46000
O 	O 	0.50700 0.11600 0.26120 -0.39200
O 	O 	0.54000 0.19700 0.34520 -0.43700
O 	O 	0.62200 0.86200 0.26600 -0.39000
O 	O 	0.65600 0.80400 0.35930 -0.40400
O 	O 	0.73400 0.92100 0.47600 -0.43800
O 	O 	0.65100 0.03200 0.48860 -0.46900
O 	O 	0.71490 0.20680 0.93230 -0.42400
O 	O 	0.91180 0.23530 0.00070 -0.67300
O 	O 	0.75800 0.09850 0.00190 -0.39900
O 	O 	0.34990 0.52100 0.64420 -0.79200
O 	O 	0.77100 0.38230 0.00860 -0.44400
O 	O 	0.76710 0.27720 0.08070 -0.45100
O 	O 	0.49300 0.61600 0.73880 -0.41600
O 	O 	0.46000 0.69700 0.65480 -0.44900
O 	O 	0.37800 0.36200 0.73400 -0.36900
O 	O 	0.34400 0.30400 0.64070 -0.38700
O 	O 	0.26600 0.42100 0.52400 -0.46500
O 	O 	0.34900 0.53200 0.51140 -0.54300
