data_crystal

_cell_length_a 9.73200
_cell_length_b 10.59600
_cell_length_c 12.59200
_cell_angle_alpha 111.37000
_cell_angle_beta  106.05000
_cell_angle_gamma 96.36000

_symmetry_space_group_name_	'P 1'
_symmetry_space_group_name_H-M	'P 1'

loop_
_symmetry_equiv_pos_as_xyz
  x,y,z

loop_
_atom_site_label
_atom_site_type_symbol
_atom_site_fract_x
_atom_site_fract_y
_atom_site_fract_z
_atom_site_charge
Cu	Cu	0.64387 0.99288 0.59566 0.90900
Cu	Cu	0.93302 0.10931 0.58779 0.92400
Cu	Cu	0.75785 0.79397 0.41454 0.92400
Cu	Cu	0.34029 0.89340 0.60589 0.93600
Cu	Cu	0.35613 0.00712 0.40434 0.90800
Cu	Cu	0.06698 0.89069 0.41221 0.92300
Cu	Cu	0.24215 0.20603 0.58546 0.92400
Cu	Cu	0.65971 0.10660 0.39411 0.93600
H 	H 	0.64000 0.48700 0.04330 0.10900
H 	H 	0.59740 0.60060 0.99730 0.09700
H 	H 	0.12410 0.44190 0.49830 0.11300
H 	H 	0.99460 0.41790 0.38080 0.10600
H 	H 	0.36580 0.00960 0.01710 0.10100
H 	H 	0.48010 0.13490 0.02980 0.10000
H 	H 	0.37940 0.56010 0.49720 0.10700
H 	H 	0.50860 0.58940 0.61590 0.11600
H 	H 	0.84890 0.89100 0.62930 0.24500
H 	H 	0.16550 0.04770 0.67530 0.24300
H 	H 	0.70120 0.19730 0.59820 0.48100
H 	H 	0.48460 0.12710 0.66880 0.35600
H 	H 	0.36000 0.51300 0.95670 0.10900
H 	H 	0.40260 0.39940 0.00270 0.09700
H 	H 	0.87590 0.55810 0.50170 0.11300
H 	H 	0.00540 0.58210 0.61920 0.10600
H 	H 	0.63420 0.99040 0.98290 0.10100
H 	H 	0.51990 0.86510 0.97020 0.10000
H 	H 	0.62060 0.43990 0.50280 0.10700
H 	H 	0.49140 0.41060 0.38410 0.11600
H 	H 	0.15110 0.10900 0.37070 0.24500
H 	H 	0.83450 0.95230 0.32470 0.24300
H 	H 	0.29880 0.80270 0.40180 0.48100
H 	H 	0.51540 0.87290 0.33120 0.35600
C 	C 	0.58410 0.64190 0.16510 0.36100
C 	C 	0.56960 0.54440 0.03730 -0.21500
C 	C 	0.93540 0.30990 0.47430 0.39400
C 	C 	0.01920 0.43330 0.46530 -0.24200
C 	C 	0.36560 0.00320 0.85330 0.37300
C 	C 	0.44030 0.03490 0.98600 -0.21300
C 	C 	0.56550 0.68830 0.51770 0.39300
C 	C 	0.48420 0.56810 0.53020 -0.24600
C 	C 	0.41590 0.35810 0.83490 0.36100
C 	C 	0.43040 0.45560 0.96270 -0.21500
C 	C 	0.06460 0.69010 0.52570 0.39400
C 	C 	0.98080 0.56670 0.53470 -0.24200
C 	C 	0.63440 0.99680 0.14670 0.37300
C 	C 	0.55970 0.96510 0.01400 -0.21300
C 	C 	0.43450 0.31170 0.48230 0.39300
C 	C 	0.51580 0.43190 0.46980 -0.24600
O 	O 	0.70350 0.65810 0.24690 -0.40200
O 	O 	0.48220 0.69950 0.18150 -0.34400
O 	O 	0.00520 0.26280 0.54530 -0.47000
O 	O 	0.80070 0.26610 0.41110 -0.41700
O 	O 	0.24740 0.03700 0.82480 -0.33900
O 	O 	0.42720 0.94260 0.77950 -0.40700
O 	O 	0.64340 0.66380 0.45160 -0.43400
O 	O 	0.54640 0.80660 0.57530 -0.49900
O 	O 	0.82520 0.93580 0.58400 -0.70700
O 	O 	0.12540 0.06880 0.61330 -0.66300
O 	O 	0.74020 0.15080 0.56950 -0.97900
O 	O 	0.46840 0.05450 0.61530 -0.81000
O 	O 	0.29650 0.34190 0.75310 -0.40200
O 	O 	0.51780 0.30050 0.81850 -0.34400
O 	O 	0.99480 0.73720 0.45470 -0.47000
O 	O 	0.19930 0.73390 0.58890 -0.41700
O 	O 	0.75260 0.96300 0.17520 -0.33900
O 	O 	0.57280 0.05740 0.22050 -0.40700
O 	O 	0.35660 0.33620 0.54840 -0.43400
O 	O 	0.45360 0.19340 0.42470 -0.49900
O 	O 	0.17480 0.06420 0.41600 -0.70700
O 	O 	0.87460 0.93120 0.38670 -0.66300
O 	O 	0.25980 0.84920 0.43050 -0.97900
O 	O 	0.53160 0.94550 0.38470 -0.81000
