data_crystal

_cell_length_a 9.20500
_cell_length_b 9.74410
_cell_length_c 22.40150
_cell_angle_alpha 90.00000
_cell_angle_beta  90.00000
_cell_angle_gamma 116.99200

_symmetry_space_group_name_	'P 1'
_symmetry_space_group_name_H-M	'P 1'

loop_
_symmetry_equiv_pos_as_xyz
  x,y,z

loop_
_atom_site_label
_atom_site_type_symbol
_atom_site_fract_x
_atom_site_fract_y
_atom_site_fract_z
_atom_site_charge
Nd	Nd	0.38289 0.14173 0.00887 2.40500
Nd	Nd	0.11711 0.85827 0.50887 2.42700
Nd	Nd	0.61711 0.85827 0.99113 2.40500
Nd	Nd	0.88289 0.14173 0.49113 2.42700
Ag	Ag	0.98122 0.82112 0.85263 0.54900
Ag	Ag	0.51878 0.17888 0.35263 0.55000
Ag	Ag	0.01878 0.17888 0.14737 0.54900
Ag	Ag	0.48122 0.82112 0.64737 0.55000
H 	H 	0.81720 0.52860 0.93290 -0.01600
H 	H 	0.21940 0.68040 0.84030 -0.02700
H 	H 	0.25970 0.47450 0.86900 0.11400
H 	H 	0.06330 0.28380 0.92640 -0.01300
H 	H 	0.00870 0.85860 0.71960 -0.01000
H 	H 	0.88690 0.09350 0.83130 -0.01100
H 	H 	0.85450 0.23420 0.75590 0.09900
H 	H 	0.89830 0.18440 0.65810 -0.01600
H 	H 	0.68280 0.47140 0.43290 -0.01700
H 	H 	0.28060 0.31960 0.34030 -0.02800
H 	H 	0.24030 0.52550 0.36900 0.11500
H 	H 	0.43670 0.71620 0.42640 -0.01600
H 	H 	0.49130 0.14140 0.21960 -0.01200
H 	H 	0.61310 0.90650 0.33130 -0.01100
H 	H 	0.64550 0.76580 0.25590 0.09800
H 	H 	0.60170 0.81560 0.15810 -0.01500
H 	H 	0.18280 0.47140 0.06710 -0.01600
H 	H 	0.78060 0.31960 0.15970 -0.02700
H 	H 	0.74030 0.52550 0.13100 0.11400
H 	H 	0.93670 0.71620 0.07360 -0.01300
H 	H 	0.99130 0.14140 0.28040 -0.01000
H 	H 	0.11310 0.90650 0.16870 -0.01100
H 	H 	0.14550 0.76580 0.24410 0.09900
H 	H 	0.10170 0.81560 0.34190 -0.01600
H 	H 	0.31720 0.52860 0.56710 -0.01700
H 	H 	0.71940 0.68040 0.65970 -0.02800
H 	H 	0.75970 0.47450 0.63100 0.11500
H 	H 	0.56330 0.28380 0.57360 -0.01600
H 	H 	0.50870 0.85860 0.78040 -0.01200
H 	H 	0.38690 0.09350 0.66870 -0.01100
H 	H 	0.35450 0.23420 0.74410 0.09800
H 	H 	0.39830 0.18440 0.84190 -0.01500
C 	C 	0.91710 0.38580 0.93540 -0.22500
C 	C 	0.90550 0.51590 0.91910 0.13300
C 	C 	0.14340 0.60650 0.86530 0.11400
C 	C 	0.16730 0.48240 0.88130 -0.20200
C 	C 	0.05150 0.37060 0.91590 0.14600
C 	C 	0.78320 0.26000 0.97120 0.51200
C 	C 	0.95990 0.01460 0.67840 -0.21300
C 	C 	0.97760 0.93550 0.72670 0.10000
C 	C 	0.90620 0.07350 0.79230 0.12300
C 	C 	0.88580 0.15800 0.74740 -0.20100
C 	C 	0.91220 0.12880 0.68950 0.12100
C 	C 	0.99420 0.97430 0.61710 0.49400
C 	C 	0.00290 0.97930 0.96710 0.25900
C 	C 	0.50900 0.50760 0.03490 0.27800
C 	C 	0.58290 0.61420 0.43540 -0.23000
C 	C 	0.59450 0.48410 0.41910 0.13600
C 	C 	0.35660 0.39350 0.36530 0.11700
C 	C 	0.33270 0.51760 0.38130 -0.20500
C 	C 	0.44850 0.62940 0.41590 0.15100
C 	C 	0.71680 0.74000 0.47120 0.51600
C 	C 	0.54010 0.98540 0.17840 -0.20900
C 	C 	0.52240 0.06450 0.22670 0.10000
C 	C 	0.59380 0.92650 0.29230 0.11800
C 	C 	0.61420 0.84200 0.24740 -0.19700
C 	C 	0.58780 0.87120 0.18950 0.11700
C 	C 	0.50580 0.02570 0.11710 0.48800
C 	C 	0.49710 0.02070 0.46710 0.26600
C 	C 	0.99100 0.49240 0.53490 0.27800
C 	C 	0.08290 0.61420 0.06460 -0.22500
C 	C 	0.09450 0.48410 0.08090 0.13300
C 	C 	0.85660 0.39350 0.13470 0.11400
C 	C 	0.83270 0.51760 0.11870 -0.20200
C 	C 	0.94850 0.62940 0.08410 0.14600
C 	C 	0.21680 0.74000 0.02880 0.51200
C 	C 	0.04010 0.98540 0.32160 -0.21300
C 	C 	0.02240 0.06450 0.27330 0.10000
C 	C 	0.09380 0.92650 0.20770 0.12300
C 	C 	0.11420 0.84200 0.25260 -0.20100
C 	C 	0.08780 0.87120 0.31050 0.12100
C 	C 	0.00580 0.02570 0.38290 0.49400
C 	C 	0.99710 0.02070 0.03290 0.25900
C 	C 	0.49100 0.49240 0.96510 0.27800
C 	C 	0.41710 0.38580 0.56460 -0.23000
C 	C 	0.40550 0.51590 0.58090 0.13600
C 	C 	0.64340 0.60650 0.63470 0.11700
C 	C 	0.66730 0.48240 0.61870 -0.20500
C 	C 	0.55150 0.37060 0.58410 0.15100
C 	C 	0.28320 0.26000 0.52880 0.51600
C 	C 	0.45990 0.01460 0.82160 -0.20900
C 	C 	0.47760 0.93550 0.77330 0.10000
C 	C 	0.40620 0.07350 0.70770 0.11800
C 	C 	0.38580 0.15800 0.75260 -0.19700
C 	C 	0.41220 0.12880 0.81050 0.11700
C 	C 	0.49420 0.97430 0.88290 0.48800
C 	C 	0.50290 0.97930 0.53290 0.26600
C 	C 	0.00900 0.50760 0.46510 0.27800
N 	N 	0.01560 0.62640 0.88390 -0.21500
N 	N 	0.95260 0.96360 0.78320 -0.21400
N 	N 	0.48440 0.37360 0.38390 -0.21600
N 	N 	0.54740 0.03640 0.28320 -0.21200
N 	N 	0.98440 0.37360 0.11610 -0.21500
N 	N 	0.04740 0.03640 0.21680 -0.21400
N 	N 	0.51560 0.62640 0.61610 -0.21600
N 	N 	0.45260 0.96360 0.71680 -0.21200
O 	O 	0.67790 0.29140 0.99527 -0.53900
O 	O 	0.78710 0.13370 0.97272 -0.54600
O 	O 	0.05910 0.88660 0.61362 -0.52700
O 	O 	0.95710 0.02820 0.57248 -0.63700
O 	O 	0.87040 0.88310 0.94454 -0.48900
O 	O 	0.13700 0.04010 0.94104 -0.44700
O 	O 	0.44970 0.38530 0.06386 -0.44000
O 	O 	0.57880 0.64160 0.05526 -0.46000
O 	O 	0.82210 0.70860 0.49527 -0.54600
O 	O 	0.71290 0.86630 0.47272 -0.55500
O 	O 	0.44090 0.11340 0.11362 -0.52700
O 	O 	0.54290 0.97180 0.07248 -0.63000
O 	O 	0.62960 0.11690 0.44454 -0.49100
O 	O 	0.36300 0.95990 0.44104 -0.45500
O 	O 	0.05030 0.61470 0.56386 -0.44100
O 	O 	0.92120 0.35840 0.55526 -0.46300
O 	O 	0.32210 0.70860 0.00473 -0.53900
O 	O 	0.21290 0.86630 0.02728 -0.54600
O 	O 	0.94090 0.11340 0.38638 -0.52700
O 	O 	0.04290 0.97180 0.42752 -0.63700
O 	O 	0.12960 0.11690 0.05546 -0.48900
O 	O 	0.86300 0.95990 0.05896 -0.44700
O 	O 	0.55030 0.61470 0.93614 -0.44000
O 	O 	0.42120 0.35840 0.94474 -0.46000
O 	O 	0.17790 0.29140 0.50473 -0.54600
O 	O 	0.28710 0.13370 0.52728 -0.55500
O 	O 	0.55910 0.88660 0.88638 -0.52700
O 	O 	0.45710 0.02820 0.92752 -0.63000
O 	O 	0.37040 0.88310 0.55546 -0.49100
O 	O 	0.63700 0.04010 0.55896 -0.45500
O 	O 	0.94970 0.38530 0.43614 -0.44100
O 	O 	0.07880 0.64160 0.44474 -0.46300
