data_crystal

_cell_length_a 15.73450
_cell_length_b 15.74420
_cell_length_c 20.58010
_cell_angle_alpha 90.00000
_cell_angle_beta  90.00000
_cell_angle_gamma 112.11800

_symmetry_space_group_name_	'P 1'
_symmetry_space_group_name_H-M	'P 1'

loop_
_symmetry_equiv_pos_as_xyz
  x,y,z

loop_
_atom_site_label
_atom_site_type_symbol
_atom_site_fract_x
_atom_site_fract_y
_atom_site_fract_z
_atom_site_charge
Zn	Zn	0.79651 0.14395 0.91050 1.18500
Zn	Zn	0.29651 0.64395 0.58950 1.18500
Zn	Zn	0.64629 0.28787 0.90826 1.18600
Zn	Zn	0.87237 0.86347 0.75519 1.09400
Zn	Zn	0.37237 0.36347 0.74481 1.09300
Zn	Zn	0.70349 0.35605 0.41050 1.18400
Zn	Zn	0.62763 0.63653 0.25519 1.09300
Zn	Zn	0.20349 0.85605 0.08950 1.18400
Zn	Zn	0.35371 0.71213 0.09174 1.18500
Zn	Zn	0.85371 0.21213 0.40826 1.18500
Zn	Zn	0.14629 0.78787 0.59174 1.18500
Zn	Zn	0.12763 0.13653 0.24481 1.09300
H 	H 	0.87090 0.52430 0.74260 0.09300
H 	H 	0.87410 0.37770 0.34620 0.00900
H 	H 	0.92280 0.51890 0.41720 0.08900
H 	H 	0.82240 0.38420 0.67140 0.10100
H 	H 	0.38140 0.03960 0.87980 0.09300
H 	H 	0.07720 0.48110 0.58280 0.08900
H 	H 	0.88160 0.38820 0.26870 0.07200
H 	H 	0.11840 0.61180 0.73130 0.07200
H 	H 	0.32240 0.88420 0.82860 0.10100
H 	H 	0.61840 0.11180 0.76870 0.07200
H 	H 	0.53750 0.94790 0.28540 0.09500
H 	H 	0.37090 0.02430 0.75740 0.09200
H 	H 	0.12910 0.47570 0.25740 0.09300
H 	H 	0.61860 0.96040 0.12020 0.09300
H 	H 	0.47190 0.13470 0.23700 0.09200
H 	H 	0.11750 0.67850 0.33090 0.10100
H 	H 	0.02810 0.36530 0.73700 0.09200
H 	H 	0.17760 0.61580 0.32860 0.10100
H 	H 	0.11860 0.46040 0.37980 0.09400
H 	H 	0.03750 0.44790 0.21460 0.09500
H 	H 	0.46250 0.05210 0.71460 0.09500
H 	H 	0.42280 0.01890 0.08280 0.08800
H 	H 	0.97980 0.57780 0.58540 0.08500
H 	H 	0.61750 0.17850 0.16910 0.10100
H 	H 	0.88250 0.32150 0.66910 0.10100
H 	H 	0.38250 0.82150 0.83090 0.10100
H 	H 	0.52810 0.86530 0.76300 0.09200
H 	H 	0.94150 0.54540 0.21770 0.09500
H 	H 	0.67760 0.11580 0.17140 0.10100
H 	H 	0.47980 0.07780 0.91460 0.08600
H 	H 	0.46060 0.11850 0.11560 0.09400
H 	H 	0.97190 0.63470 0.26300 0.09200
H 	H 	0.37410 0.87770 0.15380 0.00900
H 	H 	0.05850 0.45460 0.78230 0.09500
H 	H 	0.88140 0.53960 0.62020 0.09400
H 	H 	0.96250 0.55210 0.78540 0.09500
H 	H 	0.44150 0.04540 0.28230 0.09400
H 	H 	0.96060 0.61850 0.38440 0.09400
H 	H 	0.52020 0.92220 0.08540 0.08600
H 	H 	0.02020 0.42220 0.41460 0.08500
H 	H 	0.12590 0.62230 0.65380 0.00900
H 	H 	0.53940 0.88150 0.88440 0.09400
H 	H 	0.57720 0.98110 0.91720 0.08800
H 	H 	0.38160 0.88820 0.23130 0.07200
H 	H 	0.03940 0.38150 0.61560 0.09400
H 	H 	0.62590 0.12230 0.84620 0.00900
H 	H 	0.62910 0.97570 0.24260 0.09200
H 	H 	0.55850 0.95460 0.71770 0.09400
C 	C 	0.08690 0.48690 0.68408 0.10500
C 	C 	0.39740 0.90050 0.94657 0.05800
C 	C 	0.06600 0.47510 0.25639 -0.23600
C 	C 	0.91310 0.51310 0.31592 0.10500
C 	C 	0.10260 0.59950 0.44657 0.05800
C 	C 	0.88570 0.38540 0.67293 -0.25300
C 	C 	0.99000 0.67780 0.69142 0.06200
C 	C 	0.94450 0.54030 0.62213 -0.24200
C 	C 	0.95910 0.55530 0.38050 -0.24200
C 	C 	0.81680 0.51520 0.31424 0.06500
C 	C 	0.62690 0.13210 0.29159 0.05700
C 	C 	0.41090 0.91560 0.18979 -0.19700
C 	C 	0.61430 0.11460 0.17293 -0.25200
C 	C 	0.18320 0.48480 0.68576 0.06500
C 	C 	0.45910 0.05530 0.11950 -0.24100
C 	C 	0.68320 0.98480 0.81424 0.06300
C 	C 	0.41310 0.01310 0.18408 0.10300
C 	C 	0.60260 0.09950 0.05343 0.05800
C 	C 	0.56920 0.07330 0.23825 0.13500
C 	C 	0.51000 0.82220 0.19142 0.06300
C 	C 	0.43080 0.92670 0.76175 0.13500
C 	C 	0.44160 0.94270 0.88403 0.14000
C 	C 	0.54090 0.94470 0.88050 -0.24100
C 	C 	0.55840 0.05730 0.11597 0.14000
C 	C 	0.55550 0.95970 0.12213 -0.24000
C 	C 	0.02960 0.42860 0.74034 -0.23500
C 	C 	0.58690 0.98690 0.81592 0.10300
C 	C 	0.97040 0.57140 0.25966 -0.23500
C 	C 	0.56600 0.97510 0.24361 -0.23500
C 	C 	0.89740 0.40050 0.55343 0.05800
C 	C 	0.91090 0.41560 0.31021 -0.19800
C 	C 	0.47040 0.07140 0.24034 -0.23400
C 	C 	0.01000 0.32220 0.30858 0.06200
C 	C 	0.51010 0.91680 0.18704 0.10100
C 	C 	0.04090 0.44470 0.61950 -0.24200
C 	C 	0.05550 0.45970 0.37787 -0.24200
C 	C 	0.44450 0.04030 0.87787 -0.24000
C 	C 	0.38570 0.88540 0.82707 -0.25200
C 	C 	0.93080 0.42670 0.73825 0.13600
C 	C 	0.12690 0.63210 0.20841 0.05700
C 	C 	0.06920 0.57330 0.26175 0.13600
C 	C 	0.01010 0.41680 0.31296 0.10200
C 	C 	0.52960 0.92860 0.75966 -0.23400
C 	C 	0.87310 0.36790 0.79159 0.05700
C 	C 	0.05840 0.55730 0.38403 0.14200
C 	C 	0.11430 0.61460 0.32707 -0.25300
C 	C 	0.49000 0.17780 0.80858 0.06300
C 	C 	0.31680 0.01520 0.18576 0.06300
C 	C 	0.93400 0.52490 0.74361 -0.23600
C 	C 	0.94160 0.44270 0.61597 0.14200
C 	C 	0.58910 0.08440 0.81021 -0.19700
C 	C 	0.37310 0.86790 0.70841 0.05700
C 	C 	0.98990 0.58320 0.68704 0.10200
C 	C 	0.48990 0.08320 0.81296 0.10100
C 	C 	0.08910 0.58440 0.68979 -0.19800
C 	C 	0.43400 0.02490 0.75639 -0.23500
N 	N 	0.19160 0.63700 0.52743 -0.20200
N 	N 	0.58080 0.16230 0.02101 -0.10500
N 	N 	0.86120 0.31570 0.47055 -0.20400
N 	N 	0.79590 0.37430 0.81501 -0.10800
N 	N 	0.82660 0.01110 0.83391 -0.10600
N 	N 	0.75680 0.03960 0.84743 -0.24300
N 	N 	0.67090 0.08250 0.02415 -0.10300
N 	N 	0.11200 0.70290 0.18172 -0.10700
N 	N 	0.73620 0.19330 0.35746 -0.20600
N 	N 	0.63880 0.18430 0.97055 -0.20400
N 	N 	0.31820 0.76030 0.64049 -0.20900
N 	N 	0.29680 0.07760 0.21847 -0.12700
N 	N 	0.55050 0.71200 0.21437 -0.21800
N 	N 	0.26380 0.80670 0.64254 -0.20600
N 	N 	0.88800 0.29710 0.81828 -0.10700
N 	N 	0.07140 0.30160 0.27351 -0.12800
N 	N 	0.13880 0.68430 0.52945 -0.20400
N 	N 	0.44950 0.28800 0.78563 -0.21800
N 	N 	0.29320 0.44130 0.70518 -0.21200
N 	N 	0.18180 0.73970 0.14049 -0.20900
N 	N 	0.68180 0.23970 0.35951 -0.20900
N 	N 	0.20680 0.05870 0.20518 -0.21400
N 	N 	0.76380 0.30670 0.85746 -0.20600
N 	N 	0.92860 0.69840 0.72649 -0.12800
N 	N 	0.61200 0.20290 0.31828 -0.10700
N 	N 	0.36120 0.81570 0.02945 -0.20400
N 	N 	0.05050 0.21200 0.28563 -0.21900
N 	N 	0.25680 0.53960 0.65257 -0.24400
N 	N 	0.98270 0.17970 0.32612 -0.10500
N 	N 	0.82910 0.41750 0.52415 -0.10300
N 	N 	0.24320 0.96040 0.15257 -0.24300
N 	N 	0.20410 0.62570 0.18499 -0.10800
N 	N 	0.29590 0.87430 0.68499 -0.10800
N 	N 	0.67340 0.48890 0.33391 -0.10700
N 	N 	0.51730 0.32030 0.82612 -0.10600
N 	N 	0.23620 0.69330 0.14254 -0.20600
N 	N 	0.04450 0.75120 0.65764 -0.24200
N 	N 	0.69160 0.13700 0.97257 -0.20200
N 	N 	0.01730 0.82030 0.67388 -0.10500
N 	N 	0.81820 0.26030 0.85951 -0.20900
N 	N 	0.79320 0.94130 0.79482 -0.21400
N 	N 	0.70680 0.55870 0.29482 -0.21200
N 	N 	0.38800 0.79710 0.68172 -0.10700
N 	N 	0.17340 0.98890 0.16609 -0.10600
N 	N 	0.70410 0.12570 0.31501 -0.10800
N 	N 	0.41920 0.83770 0.97899 -0.10500
N 	N 	0.94950 0.78800 0.71437 -0.21900
N 	N 	0.95550 0.24880 0.34236 -0.24200
N 	N 	0.32910 0.91750 0.97585 -0.10300
N 	N 	0.70320 0.92240 0.78153 -0.12700
N 	N 	0.57140 0.80160 0.22649 -0.12800
N 	N 	0.91920 0.33770 0.52101 -0.10400
N 	N 	0.48270 0.67970 0.17388 -0.10600
N 	N 	0.30840 0.86300 0.02743 -0.20200
N 	N 	0.45550 0.74880 0.15764 -0.24300
N 	N 	0.74320 0.46040 0.34743 -0.24400
N 	N 	0.42860 0.19840 0.77351 -0.12800
N 	N 	0.79680 0.57760 0.28153 -0.12700
N 	N 	0.54450 0.25120 0.84236 -0.24300
N 	N 	0.32660 0.51110 0.66609 -0.10700
N 	N 	0.20320 0.42240 0.71847 -0.12700
N 	N 	0.80840 0.36300 0.47257 -0.20200
N 	N 	0.08080 0.66230 0.47899 -0.10400
N 	N 	0.17090 0.58250 0.47585 -0.10300
Cl	Cl	0.41103 0.64891 0.52506 -0.58500
Cl	Cl	0.33995 0.59744 0.02717 -0.59100
Cl	Cl	0.91103 0.14891 0.97494 -0.58400
Cl	Cl	0.83995 0.09744 0.47283 -0.58900
Cl	Cl	0.58897 0.35109 0.47494 -0.58500
Cl	Cl	0.08897 0.85109 0.02506 -0.58400
Cl	Cl	0.16005 0.90256 0.52717 -0.58900
Cl	Cl	0.66005 0.40256 0.97283 -0.59100
