data_crystal

_cell_length_a 10.40200
_cell_length_b 16.37300
_cell_length_c 17.06570
_cell_angle_alpha 61.33390
_cell_angle_beta  87.31930
_cell_angle_gamma 84.40490

_symmetry_space_group_name_	'P 1'
_symmetry_space_group_name_H-M	'P 1'

loop_
_symmetry_equiv_pos_as_xyz
  x,y,z

loop_
_atom_site_label
_atom_site_type_symbol
_atom_site_fract_x
_atom_site_fract_y
_atom_site_fract_z
_atom_site_charge
Co	Co	0.04590 0.69374 0.05320 1.12700
Co	Co	0.54640 0.37047 0.69878 1.13500
H 	H 	0.80690 0.71360 0.31460 0.05700
H 	H 	0.31660 0.67450 0.14080 0.00000
H 	H 	0.68860 0.41830 0.96140 0.03100
H 	H 	0.72540 0.55340 0.41660 0.12000
H 	H 	0.81870 0.25850 0.78940 -0.01500
H 	H 	0.51700 0.37780 0.88980 0.02800
H 	H 	0.55950 0.63040 0.18300 0.13800
H 	H 	0.27650 0.38750 0.78840 -0.00900
H 	H 	0.77880 0.62400 0.13840 0.01100
H 	H 	0.27870 0.71860 0.71480 0.06900
H 	H 	0.23560 0.79660 0.53820 0.04800
H 	H 	0.28450 0.27500 0.72700 -0.02600
H 	H 	0.73830 0.00500 0.63480 0.04700
H 	H 	0.56130 0.18840 0.90440 0.02100
H 	H 	0.93140 0.10570 0.60960 0.08500
H 	H 	0.25780 0.96670 0.93640 0.14000
H 	H 	0.01150 0.45890 0.75760 0.11000
H 	H 	0.19490 0.59350 0.85940 0.10800
H 	H 	0.20840 0.26030 0.37680 0.04000
H 	H 	0.03680 0.31520 0.27780 0.01300
H 	H 	0.01320 0.47790 0.16360 0.05000
H 	H 	0.00640 0.75760 0.20580 -0.07600
H 	H 	0.09460 0.21940 0.76200 0.16800
H 	H 	0.54120 0.10380 0.58000 0.03100
H 	H 	0.38690 0.45880 0.41620 0.09700
H 	H 	0.50130 0.60610 0.53180 0.07500
H 	H 	0.80230 0.46340 0.71760 0.00200
H 	H 	0.83200 0.52260 0.94080 0.09300
H 	H 	0.45340 0.76820 0.48400 0.04000
H 	H 	0.42580 0.05690 0.94900 0.03200
H 	H 	0.89900 0.99260 0.85180 0.13500
H 	H 	0.35590 0.36780 0.36800 0.06100
H 	H 	0.52860 0.24160 0.59640 0.07300
C 	C 	0.09600 0.35620 0.27440 -0.00600
C 	C 	0.40700 0.72310 0.52960 -0.01400
C 	C 	0.54000 0.50410 0.43040 0.05100
C 	C 	0.59750 0.19600 0.61920 -0.12100
C 	C 	0.60800 0.11910 0.60320 -0.01100
C 	C 	0.43980 0.62780 0.56040 -0.10400
C 	C 	0.01650 0.56740 0.90500 -0.00800
C 	C 	0.28000 0.60570 0.68080 0.06900
C 	C 	0.41260 0.11570 0.89960 0.00500
C 	C 	0.45160 0.49780 0.38560 -0.16400
C 	C 	0.28350 0.69790 0.67260 -0.09400
C 	C 	0.84970 0.10590 0.63420 -0.08300
C 	C 	0.08030 0.96490 0.90820 0.08000
C 	C 	0.09240 0.15510 0.79580 -0.44400
C 	C 	0.25400 0.46890 0.26900 0.04100
C 	C 	0.12080 0.56820 0.85540 -0.16600
C 	C 	0.49180 0.18650 0.87320 -0.00000
C 	C 	0.81140 0.65220 0.16840 0.08900
C 	C 	0.98340 0.11550 0.80000 0.31600
C 	C 	0.19800 0.32320 0.33440 -0.04800
C 	C 	0.90220 0.52360 0.90460 -0.10400
C 	C 	0.65340 0.60040 0.29580 0.19900
C 	C 	0.01210 0.48640 0.79420 -0.28100
C 	C 	0.33720 0.23470 0.77540 0.10400
C 	C 	0.29870 0.44780 0.75080 0.07500
C 	C 	0.11610 0.53040 0.79780 0.17600
C 	C 	0.28480 0.38510 0.33060 -0.07900
C 	C 	0.07860 0.45340 0.20620 -0.13300
C 	C 	0.19400 0.10430 0.83860 0.25900
C 	C 	0.75400 0.44080 0.77000 0.10200
C 	C 	0.69170 0.41940 0.90640 0.02500
C 	C 	0.68700 0.20120 0.66700 0.06700
C 	C 	0.02480 0.60800 0.96920 0.19700
C 	C 	0.44640 0.54910 0.28740 0.16500
C 	C 	0.59830 0.39510 0.86600 -0.01700
C 	C 	0.93650 0.72720 0.20400 0.15200
C 	C 	0.82390 0.69890 0.26860 -0.02700
C 	C 	0.97310 0.01960 0.85280 -0.19600
C 	C 	0.54200 0.44820 0.53080 0.24600
C 	C 	0.18660 0.00250 0.90200 -0.24800
C 	C 	0.89890 0.48570 0.85340 0.20600
C 	C 	0.06690 0.86330 0.96220 0.14000
C 	C 	0.80400 0.14410 0.68960 0.05700
C 	C 	0.73170 0.06610 0.62540 -0.03600
C 	C 	0.16700 0.50290 0.21180 0.06700
C 	C 	0.37300 0.56610 0.63780 0.04900
C 	C 	0.55400 0.59880 0.24500 -0.23400
C 	C 	0.29700 0.74870 0.57280 -0.03700
C 	C 	0.28330 0.61650 0.17180 0.11400
C 	C 	0.65500 0.55430 0.38440 -0.19200
C 	C 	0.80070 0.23560 0.75100 0.12900
N 	N 	0.30800 0.14630 0.83960 -0.16600
N 	N 	0.91460 0.69900 0.14280 -0.24200
N 	N 	0.78560 0.44420 0.84580 -0.14700
N 	N 	0.86950 0.17060 0.74580 -0.18000
N 	N 	0.39580 0.46740 0.69680 -0.23600
N 	N 	0.22600 0.53380 0.74560 -0.16100
N 	N 	0.44700 0.25360 0.79140 -0.24000
N 	N 	0.70030 0.26780 0.69660 -0.23300
N 	N 	0.64450 0.40040 0.78260 -0.24300
N 	N 	0.33750 0.54780 0.24060 -0.15900
N 	N 	0.17660 0.59710 0.14940 -0.25800
N 	N 	0.75490 0.64910 0.24720 -0.14700
O 	O 	0.46420 0.40040 0.57220 -0.39800
O 	O 	0.94060 0.59920 0.02500 -0.29400
O 	O 	0.10910 0.66480 0.95100 -0.37600
O 	O 	0.63700 0.47120 0.57220 -0.33800
O 	O 	0.14650 0.81630 0.02740 -0.34300
O 	O 	0.97230 0.82710 0.95120 -0.28000
Co	Co	0.54590 0.74694 0.94680 1.15900
Co	Co	0.04640 0.06925 0.30122 1.10200
H 	H 	0.33200 0.46340 0.05920 0.10400
H 	H 	0.81660 0.81530 0.85920 0.00400
H 	H 	0.04120 0.68380 0.42000 0.01300
H 	H 	0.85590 0.73580 0.63200 0.07700
H 	H 	0.06130 0.09280 0.09560 -0.09400
H 	H 	0.69490 0.45290 0.14060 0.11700
H 	H 	0.95340 0.25220 0.51600 0.09200
H 	H 	0.30690 0.02820 0.68540 0.00700
H 	H 	0.01700 0.26760 0.11020 0.00100
H 	H 	0.27880 0.76240 0.86160 0.00800
H 	H 	0.70840 0.63710 0.62320 0.05100
H 	H 	0.92580 0.00590 0.05100 0.08100
H 	H 	0.02860 0.83800 0.40360 0.05100
H 	H 	0.77870 0.43340 0.28520 0.08800
H 	H 	0.30230 0.18100 0.28240 -0.01100
H 	H 	0.31870 0.04790 0.21060 -0.03800
H 	H 	0.77650 0.17590 0.21160 -0.00400
H 	H 	0.78450 0.00200 0.27300 -0.01700
H 	H 	0.51150 0.21650 0.24240 0.10700
H 	H 	0.88690 0.87500 0.58380 0.07800
H 	H 	0.18860 0.37970 0.03860 0.02100
H 	H 	0.05950 0.81340 0.81700 0.15100
H 	H 	0.39900 0.84440 0.14820 0.11800
H 	H 	0.59460 0.98140 0.23800 0.13900
H 	H 	0.23830 0.63980 0.36520 0.04600
H 	H 	0.73560 0.33480 0.46180 0.03400
H 	H 	0.50640 0.96340 0.79420 0.03200
H 	H 	0.51320 0.64150 0.83640 0.07600
H 	H 	0.43140 0.71530 0.39040 0.06600
H 	H 	0.53680 0.59300 0.72220 0.03600
H 	H 	0.00130 0.13790 0.46820 -0.04500
H 	H 	0.22540 0.97000 0.58340 0.11200
H 	H 	0.75780 0.90310 0.06360 0.11800
C 	C 	0.43650 0.93120 0.79600 -0.01200
C 	C 	0.04200 0.97900 0.46920 0.17500
C 	C 	0.52480 0.57720 0.03080 0.26100
C 	C 	0.66700 0.71470 0.78820 0.07700
C 	C 	0.59240 0.95090 0.20420 -0.28500
C 	C 	0.83720 0.01010 0.22460 0.10000
C 	C 	0.09750 0.81520 0.38080 -0.12300
C 	C 	0.68660 0.90450 0.09800 -0.17900
C 	C 	0.59600 0.63060 0.72560 -0.00100
C 	C 	0.47310 0.87240 0.14720 -0.18900
C 	C 	0.90700 0.25270 0.47040 -0.11200
C 	C 	0.15500 0.93870 0.61560 -0.18600
C 	C 	0.57860 0.65960 0.79380 -0.12700
C 	C 	0.10800 0.72230 0.39680 -0.01200
C 	C 	0.78350 0.37050 0.32740 -0.11100
C 	C 	0.91260 0.01530 0.10040 -0.08600
C 	C 	0.79700 0.32150 0.42720 0.02000
C 	C 	0.61610 0.32820 0.20220 0.17500
C 	C 	0.19170 0.32580 0.09360 0.01500
C 	C 	0.25400 0.21080 0.23000 0.09400
C 	C 	0.79870 0.19860 0.24920 0.08700
C 	C 	0.69800 0.65760 0.66560 -0.03500
C 	C 	0.34970 0.74010 0.36580 -0.07800
C 	C 	0.93980 0.18820 0.43960 0.09400
C 	C 	0.48340 0.91550 0.20000 0.20200
C 	C 	0.78480 0.71570 0.66940 -0.07600
C 	C 	0.58030 0.87310 0.09180 0.07300
C 	C 	0.39890 0.33910 0.14660 0.15700
C 	C 	0.78330 0.78830 0.82820 0.12800
C 	C 	0.05400 0.84380 0.75500 -0.32800
C 	C 	0.18700 0.86820 0.33300 0.05800
C 	C 	0.31140 0.82060 0.83160 0.08300
C 	C 	0.15340 0.89620 0.70420 0.21100
C 	C 	0.69400 0.94290 0.16140 0.20100
C 	C 	0.75400 0.73790 0.73100 0.04900
C 	C 	0.51210 0.28060 0.20580 -0.20600
C 	C 	0.78000 0.28650 0.31920 0.10200
C 	C 	0.99180 0.05970 0.12680 0.18800
C 	C 	0.95160 0.88340 0.61440 -0.06300
C 	C 	0.23170 0.69150 0.37460 -0.04500
C 	C 	0.51650 0.47240 0.09500 0.05100
C 	C 	0.09830 0.26110 0.13400 -0.02100
C 	C 	0.30400 0.83370 0.31040 0.05100
C 	C 	0.94640 0.83650 0.71260 0.22600
C 	C 	0.62080 0.42360 0.14460 -0.17500
C 	C 	0.04000 0.93450 0.56960 -0.02800
C 	C 	0.30070 0.98660 0.24900 0.13800
C 	C 	0.32390 0.96750 0.73140 0.04100
C 	C 	0.87300 0.20390 0.36220 0.00200
C 	C 	0.56690 0.82550 0.03780 0.22100
C 	C 	0.40220 0.42820 0.09540 -0.17200
N 	N 	0.67660 0.74650 0.85060 -0.25100
N 	N 	0.72600 0.27940 0.25440 -0.16000
N 	N 	0.36950 0.91640 0.25420 -0.17200
N 	N 	0.25490 0.89630 0.75280 -0.16300
N 	N 	0.80800 0.98590 0.16040 -0.12800
N 	N 	0.41460 0.84180 0.85720 -0.23500
N 	N 	0.20030 0.96440 0.30340 -0.24000
N 	N 	0.83750 0.78840 0.75940 -0.16200
N 	N 	0.14450 0.18300 0.21740 -0.25300
N 	N 	0.28560 0.29000 0.15420 -0.14600
N 	N 	0.94700 0.04500 0.20860 -0.24700
N 	N 	0.89580 0.16420 0.30320 -0.20800
O 	O 	0.44060 0.62420 0.97500 -0.36600
O 	O 	0.47230 0.77830 0.04880 -0.35900
O 	O 	0.64650 0.84370 0.97260 -0.34400
O 	O 	0.96420 0.97260 0.42780 -0.30100
O 	O 	0.13700 0.04340 0.42780 -0.34300
O 	O 	0.60910 0.61580 0.04900 -0.38300
