data_crystal

_cell_length_a 9.50640
_cell_length_b 12.04590
_cell_length_c 16.78800
_cell_angle_alpha 96.38640
_cell_angle_beta  90.00000
_cell_angle_gamma 113.24000

_symmetry_space_group_name_	'P 1'
_symmetry_space_group_name_H-M	'P 1'

loop_
_symmetry_equiv_pos_as_xyz
  x,y,z

loop_
_atom_site_label
_atom_site_type_symbol
_atom_site_fract_x
_atom_site_fract_y
_atom_site_fract_z
_atom_site_charge
Tb	Tb	0.29509 0.99084 0.06567 2.06400
Tb	Tb	0.69575 0.99084 0.56567 2.05600
Tb	Tb	0.70491 0.00916 0.93433 2.06400
Tb	Tb	0.30425 0.00916 0.43433 2.05600
Ag	Ag	0.71984 0.68226 0.41761 0.55300
Ag	Ag	0.96242 0.68226 0.91761 0.55200
Ag	Ag	0.28016 0.31774 0.58239 0.55300
Ag	Ag	0.03758 0.31774 0.08239 0.55200
H 	H 	0.82890 0.41640 0.95890 -0.02000
H 	H 	0.10770 0.19960 0.72810 0.02700
H 	H 	0.13450 0.09800 0.83190 0.04600
H 	H 	0.25010 0.30420 0.94590 -0.00000
H 	H 	0.49720 0.63040 0.88190 -0.00700
H 	H 	0.74990 0.69580 0.05410 -0.00000
H 	H 	0.86680 0.36960 0.61810 -0.00900
H 	H 	0.58750 0.41640 0.45890 -0.02200
H 	H 	0.38340 0.80920 0.72050 0.05600
H 	H 	0.75990 0.29540 0.18100 0.00700
H 	H 	0.41250 0.58360 0.54110 -0.02200
H 	H 	0.03650 0.90200 0.66810 0.05200
H 	H 	0.94590 0.69580 0.55410 -0.00200
H 	H 	0.53550 0.29540 0.68100 0.00800
H 	H 	0.96350 0.09800 0.33190 0.05200
H 	H 	0.42580 0.80920 0.22050 0.05500
H 	H 	0.61660 0.19080 0.27950 0.05600
H 	H 	0.13320 0.63040 0.38190 -0.00900
H 	H 	0.86550 0.90200 0.16810 0.04600
H 	H 	0.09190 0.19960 0.22810 0.02000
H 	H 	0.24010 0.70460 0.81900 0.00700
H 	H 	0.90810 0.80040 0.77190 0.02000
H 	H 	0.17110 0.58360 0.04110 -0.02100
H 	H 	0.56750 0.57800 0.13020 0.09600
H 	H 	0.57420 0.19080 0.77950 0.05500
H 	H 	0.50280 0.36960 0.11810 -0.00700
H 	H 	0.89230 0.80040 0.27190 0.02600
H 	H 	0.05410 0.30420 0.44590 -0.00200
H 	H 	0.46450 0.70460 0.31900 0.00800
H 	H 	0.43250 0.42200 0.86980 0.09600
H 	H 	0.01050 0.57800 0.63020 0.09800
H 	H 	0.98950 0.42200 0.36980 0.09800
C 	C 	0.78290 0.86500 0.19930 -0.02600
C 	C 	0.77360 0.44840 0.99300 0.11200
C 	C 	0.03590 0.07020 0.51130 0.25700
C 	C 	0.42010 0.58080 0.91170 0.12500
C 	C 	0.67480 0.44840 0.49300 0.11400
C 	C 	0.79960 0.25260 0.21050 0.03100
C 	C 	0.61770 0.54280 0.09480 -0.19000
C 	C 	0.35780 0.12900 0.81540 -0.09800
C 	C 	0.83930 0.41920 0.58830 0.12800
C 	C 	0.71290 0.19060 0.27020 -0.03600
C 	C 	0.37840 0.05520 0.87870 0.46100
C 	C 	0.52230 0.80940 0.22980 -0.03300
C 	C 	0.70970 0.37040 0.53590 -0.22700
C 	C 	0.03430 0.07020 0.01130 0.26100
C 	C 	0.67680 0.05520 0.37870 0.45900
C 	C 	0.62570 0.23680 0.02440 0.52100
C 	C 	0.45300 0.25260 0.71050 0.02700
C 	C 	0.29030 0.62960 0.46410 -0.22700
C 	C 	0.66070 0.37040 0.03590 -0.22600
C 	C 	0.00530 0.80280 0.76140 0.03200
C 	C 	0.20040 0.74740 0.78950 0.03100
C 	C 	0.28710 0.80940 0.72980 -0.03600
C 	C 	0.47770 0.19060 0.77020 -0.03300
C 	C 	0.22150 0.92980 0.24500 0.26000
C 	C 	0.77120 0.12900 0.31540 -0.09200
C 	C 	0.92510 0.54280 0.59480 -0.19500
C 	C 	0.33930 0.62960 0.96410 -0.22600
C 	C 	0.22640 0.55160 0.00700 0.11200
C 	C 	0.88490 0.61280 0.54950 0.11000
C 	C 	0.99470 0.19720 0.23860 0.03200
C 	C 	0.61110 0.23680 0.52440 0.51700
C 	C 	0.38890 0.76320 0.47560 0.51700
C 	C 	0.37430 0.76320 0.97560 0.52100
C 	C 	0.91790 0.13500 0.30070 -0.03200
C 	C 	0.27210 0.38720 0.95050 0.10800
C 	C 	0.96570 0.92980 0.98870 0.26100
C 	C 	0.64220 0.87100 0.18460 -0.09800
C 	C 	0.77850 0.07020 0.75500 0.26000
C 	C 	0.11510 0.38720 0.45050 0.11000
C 	C 	0.16070 0.58080 0.41170 0.12800
C 	C 	0.96410 0.92980 0.48870 0.25700
C 	C 	0.70830 0.92980 0.74500 0.25700
C 	C 	0.08210 0.86500 0.69930 -0.03200
C 	C 	0.32520 0.55160 0.50700 0.11400
C 	C 	0.21710 0.13500 0.80070 -0.02600
C 	C 	0.72790 0.61280 0.04950 0.10800
C 	C 	0.07490 0.45720 0.40520 -0.19500
C 	C 	0.54700 0.74740 0.28950 0.02700
C 	C 	0.79750 0.80280 0.26140 0.01800
C 	C 	0.32320 0.94480 0.62130 0.45900
C 	C 	0.62160 0.94480 0.12130 0.46100
C 	C 	0.29170 0.07020 0.25500 0.25700
C 	C 	0.57990 0.41920 0.08830 0.12500
C 	C 	0.20250 0.19720 0.73860 0.01800
C 	C 	0.22880 0.87100 0.68460 -0.09200
C 	C 	0.38230 0.45720 0.90520 -0.19000
N 	N 	0.31790 0.25360 0.69340 -0.17500
N 	N 	0.68210 0.74640 0.30660 -0.17500
N 	N 	0.76110 0.56840 0.49830 -0.20600
N 	N 	0.23890 0.43160 0.50170 -0.20600
N 	N 	0.19270 0.43160 0.00170 -0.20600
N 	N 	0.93570 0.25360 0.19340 -0.17600
N 	N 	0.06430 0.74640 0.80660 -0.17600
N 	N 	0.80730 0.56840 0.99830 -0.20600
O 	O 	0.21040 0.88060 0.30760 -0.39900
O 	O 	0.50120 0.03920 0.87730 -0.51900
O 	O 	0.25820 0.98360 0.57330 -0.48400
O 	O 	0.16068 0.12676 0.48110 -0.44500
O 	O 	0.85040 0.88500 0.94150 -0.42600
O 	O 	0.66940 0.16820 0.54600 -0.54500
O 	O 	0.67020 0.88060 0.80760 -0.40000
O 	O 	0.18130 0.87720 0.17510 -0.40900
O 	O 	0.72490 0.20440 0.99320 -0.53000
O 	O 	0.50120 0.83180 0.95400 -0.54600
O 	O 	0.03460 0.88500 0.44150 -0.42000
O 	O 	0.33060 0.83180 0.45400 -0.54500
O 	O 	0.78960 0.11940 0.69240 -0.39900
O 	O 	0.69590 0.87720 0.67510 -0.40900
O 	O 	0.74180 0.01640 0.42670 -0.48400
O 	O 	0.47950 0.20440 0.49320 -0.52700
O 	O 	0.49880 0.96080 0.12270 -0.51900
O 	O 	0.49880 0.16820 0.04600 -0.54600
O 	O 	0.83932 0.87324 0.51890 -0.44500
O 	O 	0.14960 0.11500 0.05850 -0.42600
O 	O 	0.32980 0.11940 0.19240 -0.40000
O 	O 	0.30410 0.12280 0.32490 -0.40900
O 	O 	0.96540 0.11500 0.55850 -0.42000
O 	O 	0.46200 0.96080 0.62270 -0.51600
O 	O 	0.03392 0.87324 0.01890 -0.44400
O 	O 	0.53800 0.03920 0.37730 -0.51600
O 	O 	0.72540 0.98360 0.07330 -0.49000
O 	O 	0.27460 0.01640 0.92670 -0.49000
O 	O 	0.27510 0.79560 0.00680 -0.53000
O 	O 	0.52050 0.79560 0.50680 -0.52700
O 	O 	0.81870 0.12280 0.82490 -0.40900
O 	O 	0.96608 0.12676 0.98110 -0.44400
