data_crystal

_cell_length_a 9.45900
_cell_length_b 12.04810
_cell_length_c 16.68300
_cell_angle_alpha 96.05530
_cell_angle_beta  90.00000
_cell_angle_gamma 113.11300

_symmetry_space_group_name_	'P 1'
_symmetry_space_group_name_H-M	'P 1'

loop_
_symmetry_equiv_pos_as_xyz
  x,y,z

loop_
_atom_site_label
_atom_site_type_symbol
_atom_site_fract_x
_atom_site_fract_y
_atom_site_fract_z
_atom_site_charge
Ho	Ho	0.30343 0.00942 0.43410 1.94800
Ho	Ho	0.69657 0.99058 0.56590 1.94800
Ho	Ho	0.29401 0.99058 0.06590 1.95700
Ho	Ho	0.70599 0.00942 0.93410 1.95700
Ag	Ag	0.03444 0.31684 0.08018 0.55200
Ag	Ag	0.96556 0.68316 0.91982 0.55200
Ag	Ag	0.28240 0.31684 0.58018 0.55400
Ag	Ag	0.71760 0.68316 0.41982 0.55400
H 	H 	0.42470 0.81040 0.22050 0.05800
H 	H 	0.13040 0.09680 0.83050 0.04800
H 	H 	0.53610 0.29200 0.68110 0.01000
H 	H 	0.56250 0.57320 0.13140 0.08800
H 	H 	0.57530 0.18960 0.77950 0.05800
H 	H 	0.82760 0.41440 0.95930 -0.02000
H 	H 	0.58680 0.41440 0.45930 -0.02100
H 	H 	0.41320 0.58560 0.54070 -0.02100
H 	H 	0.50160 0.63420 0.88140 0.00200
H 	H 	0.43750 0.42680 0.86860 0.08800
H 	H 	0.24410 0.70800 0.81890 0.00900
H 	H 	0.03360 0.90320 0.66950 0.05500
H 	H 	0.05190 0.30460 0.44470 0.00600
H 	H 	0.38570 0.81040 0.72050 0.06000
H 	H 	0.25270 0.30460 0.94470 0.00900
H 	H 	0.98930 0.42680 0.36860 0.09100
H 	H 	0.61430 0.18960 0.27950 0.06000
H 	H 	0.46390 0.70800 0.31890 0.01000
H 	H 	0.94810 0.69540 0.55530 0.00600
H 	H 	0.90950 0.80220 0.77240 0.01900
H 	H 	0.17240 0.58560 0.04070 -0.02000
H 	H 	0.49840 0.36580 0.11860 0.00200
H 	H 	0.86960 0.90320 0.16950 0.04800
H 	H 	0.74730 0.69540 0.05530 0.00900
H 	H 	0.09050 0.19780 0.22760 0.01900
H 	H 	0.01070 0.57320 0.63140 0.09100
H 	H 	0.89270 0.80220 0.27240 0.02600
H 	H 	0.75590 0.29200 0.18110 0.00900
H 	H 	0.10730 0.19780 0.72760 0.02600
H 	H 	0.96640 0.09680 0.33050 0.05500
H 	H 	0.13260 0.63420 0.38140 0.00000
H 	H 	0.86740 0.36580 0.61860 0.00000
C 	C 	0.71150 0.19000 0.27020 -0.04100
C 	C 	0.37640 0.76460 0.97650 0.50500
C 	C 	0.79740 0.25060 0.21140 0.03200
C 	C 	0.77240 0.44600 0.99420 0.10900
C 	C 	0.21470 0.13440 0.80000 -0.03000
C 	C 	0.45320 0.25060 0.71140 0.02800
C 	C 	0.28850 0.81000 0.72980 -0.04100
C 	C 	0.96510 0.93040 0.98840 0.24800
C 	C 	0.92510 0.53940 0.59580 -0.17200
C 	C 	0.42360 0.58400 0.91090 0.10300
C 	C 	0.67260 0.05280 0.37850 0.47100
C 	C 	0.83960 0.41600 0.58910 0.10800
C 	C 	0.72680 0.61280 0.05110 0.08700
C 	C 	0.91970 0.13440 0.30000 -0.03700
C 	C 	0.22030 0.93020 0.24460 0.25400
C 	C 	0.08030 0.86560 0.70000 -0.03700
C 	C 	0.61430 0.53940 0.09580 -0.16600
C 	C 	0.61180 0.23540 0.52350 0.50100
C 	C 	0.47850 0.19000 0.77020 -0.03700
C 	C 	0.96530 0.93040 0.48840 0.24500
C 	C 	0.54680 0.74940 0.28860 0.02800
C 	C 	0.70990 0.93020 0.74460 0.25100
C 	C 	0.29360 0.63260 0.46490 -0.22200
C 	C 	0.67360 0.44600 0.49420 0.11400
C 	C 	0.62360 0.23540 0.02350 0.50500
C 	C 	0.00650 0.80360 0.76130 0.04000
C 	C 	0.20290 0.19640 0.73870 0.02400
C 	C 	0.78530 0.86560 0.20000 -0.03000
C 	C 	0.77280 0.12840 0.31600 -0.08800
C 	C 	0.16040 0.58400 0.41090 0.10800
C 	C 	0.79710 0.80360 0.26130 0.02400
C 	C 	0.33900 0.63260 0.96490 -0.21800
C 	C 	0.07490 0.46060 0.40420 -0.17200
C 	C 	0.52150 0.81000 0.22980 -0.03700
C 	C 	0.70640 0.36740 0.53510 -0.22200
C 	C 	0.22760 0.55400 0.00580 0.10900
C 	C 	0.88600 0.61280 0.55110 0.09000
C 	C 	0.11400 0.38720 0.44890 0.09000
C 	C 	0.29010 0.06980 0.25540 0.25100
C 	C 	0.32640 0.55400 0.50580 0.11400
C 	C 	0.66100 0.36740 0.03510 -0.21800
C 	C 	0.03490 0.06960 0.01160 0.24800
C 	C 	0.35560 0.12840 0.81600 -0.09400
C 	C 	0.38020 0.05280 0.87850 0.47300
C 	C 	0.64440 0.87160 0.18400 -0.09400
C 	C 	0.32740 0.94720 0.62150 0.47100
C 	C 	0.99350 0.19640 0.23870 0.04000
C 	C 	0.38820 0.76460 0.47650 0.50100
C 	C 	0.27320 0.38720 0.94890 0.08700
C 	C 	0.22720 0.87160 0.68400 -0.08800
C 	C 	0.77970 0.06980 0.75540 0.25400
C 	C 	0.61980 0.94720 0.12150 0.47300
C 	C 	0.03470 0.06960 0.51160 0.24500
C 	C 	0.38570 0.46060 0.90420 -0.16600
C 	C 	0.20260 0.74940 0.78860 0.03200
C 	C 	0.57640 0.41600 0.08910 0.10300
N 	N 	0.80990 0.56760 0.00020 -0.19900
N 	N 	0.31730 0.25520 0.69370 -0.17500
N 	N 	0.75770 0.56760 0.50020 -0.20100
N 	N 	0.24230 0.43240 0.49980 -0.20100
N 	N 	0.93790 0.25520 0.19370 -0.17700
N 	N 	0.19010 0.43240 0.99980 -0.19900
N 	N 	0.68270 0.74480 0.30630 -0.17500
N 	N 	0.06210 0.74480 0.80630 -0.17700
O 	O 	0.46240 0.96160 0.62270 -0.51300
O 	O 	0.50080 0.03840 0.87730 -0.51500
O 	O 	0.50440 0.83440 0.95550 -0.52400
O 	O 	0.81840 0.12280 0.82490 -0.39800
O 	O 	0.73890 0.01320 0.42670 -0.47300
O 	O 	0.67000 0.16560 0.54450 -0.52400
O 	O 	0.33000 0.83440 0.45550 -0.52400
O 	O 	0.49920 0.96160 0.12270 -0.51500
O 	O 	0.83930 0.87380 0.52060 -0.43000
O 	O 	0.16070 0.12620 0.47940 -0.43000
O 	O 	0.96550 0.12620 0.97940 -0.42900
O 	O 	0.21070 0.88040 0.30840 -0.38300
O 	O 	0.52200 0.79780 0.50770 -0.50600
O 	O 	0.49560 0.16560 0.04450 -0.52400
O 	O 	0.78930 0.11960 0.69160 -0.38300
O 	O 	0.03450 0.87380 0.02060 -0.42900
O 	O 	0.18160 0.87720 0.17510 -0.39800
O 	O 	0.33030 0.11960 0.19160 -0.38400
O 	O 	0.53760 0.03840 0.37730 -0.51300
O 	O 	0.72420 0.20220 0.99230 -0.50900
O 	O 	0.72570 0.98680 0.07330 -0.47900
O 	O 	0.30440 0.12280 0.32490 -0.39800
O 	O 	0.26110 0.98680 0.57330 -0.47300
O 	O 	0.27430 0.01320 0.92670 -0.47900
O 	O 	0.47800 0.20220 0.49230 -0.50600
O 	O 	0.15180 0.11640 0.05820 -0.40900
O 	O 	0.96460 0.11640 0.55820 -0.40300
O 	O 	0.84820 0.88360 0.94180 -0.40900
O 	O 	0.03540 0.88360 0.44180 -0.40300
O 	O 	0.69560 0.87720 0.67510 -0.39800
O 	O 	0.27580 0.79780 0.00770 -0.50900
O 	O 	0.66970 0.88040 0.80840 -0.38400
