data_crystal

_cell_length_a 12.60500
_cell_length_b 13.27110
_cell_length_c 13.27110
_cell_angle_alpha 94.68740
_cell_angle_beta  96.63190
_cell_angle_gamma 83.36810

_symmetry_space_group_name_	'P 1'
_symmetry_space_group_name_H-M	'P 1'

loop_
_symmetry_equiv_pos_as_xyz
  x,y,z

loop_
_atom_site_label
_atom_site_type_symbol
_atom_site_fract_x
_atom_site_fract_y
_atom_site_fract_z
_atom_site_charge
Zn	Zn	0.17123 0.17273 0.72697 1.21100
Zn	Zn	0.32877 0.72697 0.17273 1.21100
Zn	Zn	0.82877 0.82727 0.27303 1.21100
Zn	Zn	0.67123 0.27303 0.82727 1.21100
H 	H 	0.40570 0.18660 0.71060 0.00600
H 	H 	0.54170 0.11370 0.62350 0.08700
H 	H 	0.33690 0.95230 0.45530 0.10100
H 	H 	0.20450 0.03030 0.54590 0.00500
H 	H 	0.98210 0.23190 0.57790 0.00100
H 	H 	0.91470 0.35950 0.47990 0.09400
H 	H 	0.14800 0.52100 0.60600 0.09600
H 	H 	0.20940 0.38920 0.70360 0.00600
H 	H 	0.05790 0.86820 0.70000 -0.00700
H 	H 	0.95780 0.73580 0.70160 0.21300
H 	H 	0.70980 0.92760 0.77900 0.15800
H 	H 	0.09430 0.71060 0.18660 0.00800
H 	H 	0.95830 0.62350 0.11370 0.07900
H 	H 	0.16310 0.45530 0.95230 0.09400
H 	H 	0.29550 0.54590 0.03030 0.00800
H 	H 	0.51790 0.57790 0.23190 -0.00400
H 	H 	0.58530 0.47990 0.35950 0.09700
H 	H 	0.35200 0.60600 0.52100 0.09600
H 	H 	0.29060 0.70360 0.38920 0.00600
H 	H 	0.44210 0.70000 0.86820 -0.01000
H 	H 	0.54220 0.70160 0.73580 0.21400
H 	H 	0.79020 0.77900 0.92760 0.16000
H 	H 	0.59430 0.81340 0.28940 0.00600
H 	H 	0.45830 0.88630 0.37650 0.08700
H 	H 	0.66310 0.04770 0.54470 0.10100
H 	H 	0.79550 0.96970 0.45410 0.00500
H 	H 	0.01790 0.76810 0.42210 0.00100
H 	H 	0.08530 0.64050 0.52010 0.09400
H 	H 	0.85200 0.47900 0.39400 0.09600
H 	H 	0.79060 0.61080 0.29640 0.00600
H 	H 	0.94210 0.13180 0.30000 -0.00700
H 	H 	0.04220 0.26420 0.29840 0.21300
H 	H 	0.29020 0.07240 0.22100 0.15800
H 	H 	0.90570 0.28940 0.81340 0.00800
H 	H 	0.04170 0.37650 0.88630 0.07900
H 	H 	0.83690 0.54470 0.04770 0.09400
H 	H 	0.70450 0.45410 0.96970 0.00800
H 	H 	0.48210 0.42210 0.76810 -0.00400
H 	H 	0.41470 0.52010 0.64050 0.09700
H 	H 	0.64800 0.39400 0.47900 0.09600
H 	H 	0.70940 0.29640 0.61080 0.00600
H 	H 	0.55790 0.30000 0.13180 -0.01000
H 	H 	0.45780 0.29840 0.26420 0.21400
H 	H 	0.20980 0.22100 0.07240 0.16000
C 	C 	0.39080 0.13710 0.65890 0.13000
C 	C 	0.47320 0.09370 0.60610 -0.12400
C 	C 	0.45710 0.02290 0.52950 0.11500
C 	C 	0.35370 0.00010 0.50830 -0.12500
C 	C 	0.27430 0.04660 0.56380 0.13200
C 	C 	0.01630 0.29090 0.58410 0.11500
C 	C 	0.97530 0.36750 0.52570 -0.11200
C 	C 	0.02090 0.45700 0.53220 0.12700
C 	C 	0.11210 0.46300 0.59960 -0.10400
C 	C 	0.14900 0.38300 0.65700 0.12000
C 	C 	0.01420 0.06750 0.73890 0.38900
C 	C 	0.94460 0.98220 0.73320 -0.14700
C 	C 	0.98690 0.88170 0.71430 0.17700
C 	C 	0.92700 0.80170 0.71630 -0.30500
C 	C 	0.82280 0.81710 0.73930 0.38500
C 	C 	0.77960 0.91530 0.76110 -0.24900
C 	C 	0.83960 0.99730 0.75650 0.06900
C 	C 	0.78340 0.10280 0.76840 0.35000
C 	C 	0.81300 0.62550 0.73470 1.01100
C 	C 	0.10920 0.65890 0.13710 0.12300
C 	C 	0.02680 0.60610 0.09370 -0.11100
C 	C 	0.04290 0.52950 0.02290 0.11000
C 	C 	0.14630 0.50830 0.00010 -0.11300
C 	C 	0.22570 0.56380 0.04660 0.12500
C 	C 	0.48370 0.58410 0.29090 0.12500
C 	C 	0.52470 0.52570 0.36750 -0.12000
C 	C 	0.47910 0.53220 0.45700 0.13000
C 	C 	0.38790 0.59960 0.46300 -0.10600
C 	C 	0.35100 0.65700 0.38300 0.12100
C 	C 	0.48580 0.73890 0.06750 0.39900
C 	C 	0.55540 0.73320 0.98220 -0.15400
C 	C 	0.51310 0.71430 0.88170 0.18300
C 	C 	0.57300 0.71630 0.80170 -0.30900
C 	C 	0.67720 0.73930 0.81710 0.38800
C 	C 	0.72040 0.76110 0.91530 -0.25300
C 	C 	0.66040 0.75650 0.99730 0.07600
C 	C 	0.71660 0.76840 0.10280 0.34500
C 	C 	0.68700 0.73470 0.62550 1.01100
C 	C 	0.60920 0.86290 0.34110 0.13000
C 	C 	0.52680 0.90630 0.39390 -0.12400
C 	C 	0.54290 0.97710 0.47050 0.11500
C 	C 	0.64630 0.99990 0.49170 -0.12500
C 	C 	0.72570 0.95340 0.43620 0.13200
C 	C 	0.98370 0.70910 0.41590 0.11500
C 	C 	0.02470 0.63250 0.47430 -0.11200
C 	C 	0.97910 0.54300 0.46780 0.12700
C 	C 	0.88790 0.53700 0.40040 -0.10400
C 	C 	0.85100 0.61700 0.34300 0.12000
C 	C 	0.98580 0.93250 0.26110 0.38900
C 	C 	0.05540 0.01780 0.26680 -0.14700
C 	C 	0.01310 0.11830 0.28570 0.17700
C 	C 	0.07300 0.19830 0.28370 -0.30500
C 	C 	0.17720 0.18290 0.26070 0.38500
C 	C 	0.22040 0.08470 0.23890 -0.24900
C 	C 	0.16040 0.00270 0.24350 0.06900
C 	C 	0.21660 0.89720 0.23160 0.35000
C 	C 	0.18700 0.37450 0.26530 1.01100
C 	C 	0.89080 0.34110 0.86290 0.12300
C 	C 	0.97320 0.39390 0.90630 -0.11100
C 	C 	0.95710 0.47050 0.97710 0.11000
C 	C 	0.85370 0.49170 0.99990 -0.11300
C 	C 	0.77430 0.43620 0.95340 0.12500
C 	C 	0.51630 0.41590 0.70910 0.12500
C 	C 	0.47530 0.47430 0.63250 -0.12000
C 	C 	0.52090 0.46780 0.54300 0.13000
C 	C 	0.61210 0.40040 0.53700 -0.10600
C 	C 	0.64900 0.34300 0.61700 0.12100
C 	C 	0.51420 0.26110 0.93250 0.39900
C 	C 	0.44460 0.26680 0.01780 -0.15400
C 	C 	0.48690 0.28570 0.11830 0.18300
C 	C 	0.42700 0.28370 0.19830 -0.30900
C 	C 	0.32280 0.26070 0.18290 0.38800
C 	C 	0.27960 0.23890 0.08470 -0.25300
C 	C 	0.33960 0.24350 0.00270 0.07600
C 	C 	0.28340 0.23160 0.89720 0.34500
C 	C 	0.31300 0.26530 0.37450 1.01100
C 	C 	0.75000 0.73080 0.73080 -0.56300
C 	C 	0.25000 0.26920 0.26920 -0.56300
N 	N 	0.29220 0.11335 0.64135 -0.25600
N 	N 	0.10370 0.29595 0.65045 -0.25800
N 	N 	0.20780 0.64135 0.11335 -0.25400
N 	N 	0.39630 0.65045 0.29595 -0.25900
N 	N 	0.70780 0.88665 0.35865 -0.25600
N 	N 	0.89630 0.70405 0.34955 -0.25800
N 	N 	0.79220 0.35865 0.88665 -0.25400
N 	N 	0.60370 0.34955 0.70405 -0.25900
O 	O 	0.99890 0.14286 0.80004 -0.33700
O 	O 	0.07760 0.05861 0.67873 -0.45200
O 	O 	0.78440 0.16156 0.70406 -0.34300
O 	O 	0.73860 0.12768 0.84216 -0.43500
O 	O 	0.50110 0.80004 0.14286 -0.34400
O 	O 	0.42240 0.67873 0.05861 -0.45400
O 	O 	0.71560 0.70406 0.16156 -0.34200
O 	O 	0.76140 0.84216 0.12768 -0.43500
O 	O 	0.00110 0.85714 0.19996 -0.33700
O 	O 	0.92240 0.94139 0.32127 -0.45200
O 	O 	0.21560 0.83844 0.29594 -0.34300
O 	O 	0.26140 0.87232 0.15784 -0.43500
O 	O 	0.49890 0.19996 0.85714 -0.34400
O 	O 	0.57760 0.32127 0.94139 -0.45400
O 	O 	0.28440 0.29594 0.83844 -0.34200
O 	O 	0.23860 0.15784 0.87232 -0.43500
F 	F 	0.89078 0.62421 0.81367 -0.53100
F 	F 	0.86410 0.59699 0.65243 -0.50700
F 	F 	0.75212 0.55441 0.74665 -0.52300
F 	F 	0.60922 0.81367 0.62421 -0.53100
F 	F 	0.63590 0.65243 0.59699 -0.50700
F 	F 	0.74788 0.74665 0.55441 -0.52300
F 	F 	0.10922 0.37579 0.18633 -0.53100
F 	F 	0.13590 0.40301 0.34757 -0.50700
F 	F 	0.24788 0.44559 0.25335 -0.52300
F 	F 	0.39078 0.18633 0.37579 -0.53100
F 	F 	0.36410 0.34757 0.40301 -0.50700
F 	F 	0.25212 0.25335 0.44559 -0.52300
