data_crystal

_cell_length_a 20.86160
_cell_length_b 35.59330
_cell_length_c 22.20380
_cell_angle_alpha 90.00000
_cell_angle_beta  90.00000
_cell_angle_gamma 90.00000

_symmetry_space_group_name_	'P 1'
_symmetry_space_group_name_H-M	'P 1'

loop_
_symmetry_equiv_pos_as_xyz
  x,y,z

loop_
_atom_site_label
_atom_site_type_symbol
_atom_site_fract_x
_atom_site_fract_y
_atom_site_fract_z
_atom_site_charge
Cd	Cd	0.40466 0.91800 0.63419 1.15900
Cd	Cd	0.26923 0.84350 0.61816 1.20700
Cd	Cd	0.14386 0.16525 0.75714 1.20900
Cd	Cd	0.15150 0.09194 0.63343 1.15900
Cd	Cd	0.09534 0.58200 0.13419 1.15900
Cd	Cd	0.23077 0.65650 0.11816 1.20700
Cd	Cd	0.35614 0.33475 0.25714 1.20900
Cd	Cd	0.34850 0.40806 0.13343 1.15900
Cd	Cd	0.40466 0.08200 0.86581 1.15900
Cd	Cd	0.26923 0.15650 0.88184 1.20700
Cd	Cd	0.14386 0.83475 0.74286 1.20900
Cd	Cd	0.15150 0.90806 0.86657 1.15900
Cd	Cd	0.09534 0.41800 0.36581 1.15900
Cd	Cd	0.23077 0.34350 0.38184 1.20700
Cd	Cd	0.35614 0.66525 0.24286 1.20900
Cd	Cd	0.34850 0.59194 0.36657 1.15900
Cd	Cd	0.59534 0.08200 0.36581 1.15900
Cd	Cd	0.73077 0.15650 0.38184 1.20700
Cd	Cd	0.85614 0.83475 0.24286 1.20900
Cd	Cd	0.84850 0.90806 0.36657 1.15900
Cd	Cd	0.90466 0.41800 0.86581 1.15800
Cd	Cd	0.76923 0.34350 0.88184 1.20600
Cd	Cd	0.64386 0.66525 0.74286 1.20800
Cd	Cd	0.65150 0.59194 0.86657 1.15800
Cd	Cd	0.59534 0.91800 0.13419 1.15800
Cd	Cd	0.73077 0.84350 0.11816 1.20600
Cd	Cd	0.85614 0.16525 0.25714 1.20800
Cd	Cd	0.84850 0.09194 0.13343 1.15800
Cd	Cd	0.90466 0.58200 0.63419 1.15800
Cd	Cd	0.76923 0.65650 0.61816 1.20600
Cd	Cd	0.64386 0.33475 0.75714 1.20800
Cd	Cd	0.65150 0.40806 0.63343 1.15800
H 	H 	0.56600 0.80400 0.73790 0.06300
H 	H 	0.43410 0.73000 0.67490 0.07600
H 	H 	0.50510 0.68150 0.70320 0.00700
H 	H 	0.62740 0.75360 0.76970 0.01600
H 	H 	0.94790 0.87430 0.57930 0.07500
H 	H 	0.08420 0.90020 0.45480 0.07700
H 	H 	0.00240 0.91200 0.38560 0.00600
H 	H 	0.87050 0.89360 0.50790 -0.02800
H 	H 	0.23480 0.01910 0.66660 -0.00500
H 	H 	0.41300 0.05420 0.71400 0.01700
H 	H 	0.45270 0.00120 0.66940 -0.04400
H 	H 	0.28070 0.96640 0.62500 0.01000
H 	H 	0.32210 0.70960 0.54060 0.06800
H 	H 	0.26730 0.78010 0.40200 0.07600
H 	H 	0.25340 0.82670 0.47400 0.00000
H 	H 	0.29750 0.76000 0.60520 0.02100
H 	H 	0.93400 0.69600 0.23790 0.06300
H 	H 	0.06590 0.77000 0.17490 0.07600
H 	H 	0.99490 0.81850 0.20320 0.00700
H 	H 	0.87260 0.74640 0.26970 0.01700
H 	H 	0.55210 0.62570 0.07930 0.07500
H 	H 	0.41580 0.59980 0.95480 0.07700
H 	H 	0.49760 0.58800 0.88560 0.00600
H 	H 	0.62950 0.60640 0.00790 -0.02800
H 	H 	0.26520 0.48090 0.16660 -0.00500
H 	H 	0.08700 0.44580 0.21400 0.01700
H 	H 	0.04730 0.49880 0.16940 -0.04400
H 	H 	0.21930 0.53360 0.12500 0.01000
H 	H 	0.17790 0.79040 0.04060 0.06800
H 	H 	0.23270 0.71990 0.90200 0.07600
H 	H 	0.24660 0.67330 0.97400 0.00000
H 	H 	0.20250 0.74000 0.10520 0.02100
H 	H 	0.56600 0.19600 0.76210 0.06300
H 	H 	0.43410 0.27000 0.82510 0.07600
H 	H 	0.50510 0.31850 0.79680 0.00700
H 	H 	0.62740 0.24640 0.73030 0.01700
H 	H 	0.94790 0.12570 0.92070 0.07500
H 	H 	0.08420 0.09980 0.04520 0.07700
H 	H 	0.00240 0.08800 0.11440 0.00600
H 	H 	0.87050 0.10640 0.99210 -0.02800
H 	H 	0.23480 0.98090 0.83340 -0.00400
H 	H 	0.41300 0.94580 0.78600 0.01700
H 	H 	0.45270 0.99880 0.83060 -0.04400
H 	H 	0.28070 0.03360 0.87500 0.00900
H 	H 	0.32210 0.29040 0.95940 0.06800
H 	H 	0.26730 0.21990 0.09800 0.07600
H 	H 	0.25340 0.17330 0.02600 0.00000
H 	H 	0.29750 0.24000 0.89480 0.02100
H 	H 	0.93400 0.30400 0.26210 0.06300
H 	H 	0.06590 0.23000 0.32510 0.07600
H 	H 	0.99490 0.18150 0.29680 0.00700
H 	H 	0.87260 0.25360 0.23030 0.01600
H 	H 	0.55210 0.37430 0.42070 0.07600
H 	H 	0.41580 0.40020 0.54520 0.07700
H 	H 	0.49760 0.41200 0.61440 0.00600
H 	H 	0.62950 0.39360 0.49210 -0.02800
H 	H 	0.26520 0.51910 0.33340 -0.00500
H 	H 	0.08700 0.55420 0.28600 0.01700
H 	H 	0.04730 0.50120 0.33060 -0.04400
H 	H 	0.21930 0.46640 0.37500 0.01000
H 	H 	0.17790 0.20960 0.45940 0.06800
H 	H 	0.23270 0.28010 0.59800 0.07600
H 	H 	0.24660 0.32670 0.52600 0.00000
H 	H 	0.20250 0.26000 0.39480 0.02100
H 	H 	0.43400 0.19600 0.26210 0.06300
H 	H 	0.56590 0.27000 0.32510 0.07600
H 	H 	0.49490 0.31850 0.29680 0.00700
H 	H 	0.37260 0.24640 0.23030 0.01600
H 	H 	0.05210 0.12570 0.42070 0.07500
H 	H 	0.91580 0.09980 0.54520 0.07700
H 	H 	0.99760 0.08800 0.61440 0.00600
H 	H 	0.12950 0.10640 0.49210 -0.02800
H 	H 	0.76520 0.98090 0.33340 -0.00500
H 	H 	0.58700 0.94580 0.28600 0.01700
H 	H 	0.54730 0.99880 0.33060 -0.04400
H 	H 	0.71930 0.03360 0.37500 0.01000
H 	H 	0.67790 0.29040 0.45940 0.06800
H 	H 	0.73270 0.21990 0.59800 0.07600
H 	H 	0.74660 0.17330 0.52600 0.00000
H 	H 	0.70250 0.24000 0.39480 0.02100
H 	H 	0.06600 0.30400 0.76210 0.06300
H 	H 	0.93410 0.23000 0.82510 0.07600
H 	H 	0.00510 0.18150 0.79680 0.00700
H 	H 	0.12740 0.25360 0.73030 0.01700
H 	H 	0.44790 0.37430 0.92070 0.07500
H 	H 	0.58420 0.40020 0.04520 0.07700
H 	H 	0.50240 0.41200 0.11440 0.00600
H 	H 	0.37050 0.39360 0.99210 -0.02800
H 	H 	0.73480 0.51910 0.83340 -0.00500
H 	H 	0.91300 0.55420 0.78600 0.01700
H 	H 	0.95270 0.50120 0.83060 -0.04400
H 	H 	0.78070 0.46640 0.87500 0.01000
H 	H 	0.82210 0.20960 0.95940 0.06800
H 	H 	0.76730 0.28010 0.09800 0.07600
H 	H 	0.75340 0.32670 0.02600 0.00000
H 	H 	0.79750 0.26000 0.89480 0.02100
H 	H 	0.43400 0.80400 0.23790 0.06300
H 	H 	0.56590 0.73000 0.17490 0.07600
H 	H 	0.49490 0.68150 0.20320 0.00700
H 	H 	0.37260 0.75360 0.26970 0.01700
H 	H 	0.05210 0.87430 0.07930 0.07500
H 	H 	0.91580 0.90020 0.95480 0.07700
H 	H 	0.99760 0.91200 0.88560 0.00600
H 	H 	0.12950 0.89360 0.00790 -0.02800
H 	H 	0.76520 0.01910 0.16660 -0.00400
H 	H 	0.58700 0.05420 0.21400 0.01700
H 	H 	0.54730 0.00120 0.16940 -0.04400
H 	H 	0.71930 0.96640 0.12500 0.00900
H 	H 	0.67790 0.70960 0.04060 0.06800
H 	H 	0.73270 0.78010 0.90200 0.07600
H 	H 	0.74660 0.82670 0.97400 0.00000
H 	H 	0.70250 0.76000 0.10520 0.02100
H 	H 	0.06600 0.69600 0.73790 0.06300
H 	H 	0.93410 0.77000 0.67490 0.07600
H 	H 	0.00510 0.81850 0.70320 0.00700
H 	H 	0.12740 0.74640 0.76970 0.01600
H 	H 	0.44790 0.62570 0.57930 0.07600
H 	H 	0.58420 0.59980 0.45480 0.07700
H 	H 	0.50240 0.58800 0.38560 0.00600
H 	H 	0.37050 0.60640 0.50790 -0.02800
H 	H 	0.73480 0.48090 0.66660 -0.00500
H 	H 	0.91300 0.44580 0.71400 0.01700
H 	H 	0.95270 0.49880 0.66940 -0.04400
H 	H 	0.78070 0.53360 0.62500 0.01000
H 	H 	0.82210 0.79040 0.54060 0.06800
H 	H 	0.76730 0.71990 0.40200 0.07600
H 	H 	0.75340 0.67330 0.47400 0.00000
H 	H 	0.79750 0.74000 0.60520 0.02100
C 	C 	0.45450 0.80340 0.68040 0.10300
C 	C 	0.49290 0.77290 0.70150 0.03200
C 	C 	0.55160 0.77910 0.73060 -0.09800
C 	C 	0.47430 0.73580 0.69270 -0.10200
C 	C 	0.51720 0.70670 0.71110 0.06500
C 	C 	0.58850 0.74880 0.74870 0.05400
C 	C 	0.07400 0.87420 0.56660 0.09300
C 	C 	0.02300 0.88540 0.52250 0.05100
C 	C 	0.95990 0.88280 0.54030 -0.12000
C 	C 	0.04050 0.89740 0.46590 -0.12200
C 	C 	0.99140 0.90530 0.42570 0.06500
C 	C 	0.91450 0.89360 0.49690 0.05500
C 	C 	0.28990 0.07360 0.72920 0.10600
C 	C 	0.31870 0.04270 0.69720 -0.03100
C 	C 	0.27990 0.01560 0.66860 -0.07100
C 	C 	0.38450 0.03650 0.69650 -0.08700
C 	C 	0.40750 0.00470 0.67030 0.03900
C 	C 	0.30730 0.98450 0.64410 0.01400
C 	C 	0.30200 0.70790 0.42030 0.10400
C 	C 	0.29220 0.73870 0.46230 0.03200
C 	C 	0.30570 0.73270 0.52560 -0.09900
C 	C 	0.27390 0.77470 0.44350 -0.11100
C 	C 	0.26590 0.80230 0.48690 0.07000
C 	C 	0.29260 0.76360 0.56310 0.05500
C 	C 	0.04550 0.69660 0.18040 0.10300
C 	C 	0.00710 0.72710 0.20150 0.03200
C 	C 	0.94840 0.72090 0.23060 -0.09800
C 	C 	0.02570 0.76420 0.19270 -0.10200
C 	C 	0.98280 0.79330 0.21110 0.06500
C 	C 	0.91150 0.75120 0.24870 0.05400
C 	C 	0.42600 0.62580 0.06660 0.09300
C 	C 	0.47700 0.61460 0.02250 0.05100
C 	C 	0.54010 0.61720 0.04030 -0.12000
C 	C 	0.45950 0.60260 0.96590 -0.12200
C 	C 	0.50860 0.59470 0.92570 0.06500
C 	C 	0.58550 0.60640 0.99690 0.05500
C 	C 	0.21010 0.42640 0.22920 0.10600
C 	C 	0.18130 0.45730 0.19720 -0.03100
C 	C 	0.22010 0.48440 0.16860 -0.07100
C 	C 	0.11550 0.46350 0.19650 -0.08700
C 	C 	0.09250 0.49530 0.17030 0.03900
C 	C 	0.19270 0.51550 0.14410 0.01400
C 	C 	0.19800 0.79210 0.92030 0.10400
C 	C 	0.20780 0.76130 0.96230 0.03200
C 	C 	0.19430 0.76730 0.02560 -0.09900
C 	C 	0.22610 0.72530 0.94350 -0.11100
C 	C 	0.23410 0.69770 0.98690 0.07000
C 	C 	0.20740 0.73640 0.06310 0.05500
C 	C 	0.45450 0.19660 0.81960 0.10300
C 	C 	0.49290 0.22710 0.79850 0.03200
C 	C 	0.55160 0.22090 0.76940 -0.09800
C 	C 	0.47430 0.26420 0.80730 -0.10200
C 	C 	0.51720 0.29330 0.78890 0.06500
C 	C 	0.58850 0.25120 0.75130 0.05400
C 	C 	0.07400 0.12580 0.93340 0.09300
C 	C 	0.02300 0.11460 0.97750 0.05100
C 	C 	0.95990 0.11720 0.95970 -0.12000
C 	C 	0.04050 0.10260 0.03410 -0.12200
C 	C 	0.99140 0.09470 0.07430 0.06500
C 	C 	0.91450 0.10640 0.00310 0.05500
C 	C 	0.28990 0.92640 0.77080 0.10600
C 	C 	0.31870 0.95730 0.80280 -0.03100
C 	C 	0.27990 0.98440 0.83140 -0.07200
C 	C 	0.38450 0.96350 0.80350 -0.08700
C 	C 	0.40750 0.99530 0.82970 0.03900
C 	C 	0.30730 0.01550 0.85590 0.01400
C 	C 	0.30200 0.29210 0.07970 0.10400
C 	C 	0.29220 0.26130 0.03770 0.03200
C 	C 	0.30570 0.26730 0.97440 -0.09900
C 	C 	0.27390 0.22530 0.05650 -0.11100
C 	C 	0.26590 0.19770 0.01310 0.07000
C 	C 	0.29260 0.23640 0.93690 0.05500
C 	C 	0.04550 0.30340 0.31960 0.10300
C 	C 	0.00710 0.27290 0.29850 0.03200
C 	C 	0.94840 0.27910 0.26940 -0.09800
C 	C 	0.02570 0.23580 0.30730 -0.10200
C 	C 	0.98280 0.20670 0.28890 0.06500
C 	C 	0.91150 0.24880 0.25130 0.05400
C 	C 	0.42600 0.37420 0.43340 0.09300
C 	C 	0.47700 0.38540 0.47750 0.05100
C 	C 	0.54010 0.38280 0.45970 -0.12000
C 	C 	0.45950 0.39740 0.53410 -0.12200
C 	C 	0.50860 0.40530 0.57430 0.06500
C 	C 	0.58550 0.39360 0.50310 0.05500
C 	C 	0.21010 0.57360 0.27080 0.10600
C 	C 	0.18130 0.54270 0.30280 -0.03100
C 	C 	0.22010 0.51560 0.33140 -0.07100
C 	C 	0.11550 0.53650 0.30350 -0.08700
C 	C 	0.09250 0.50470 0.32970 0.03900
C 	C 	0.19270 0.48450 0.35590 0.01400
C 	C 	0.19800 0.20790 0.57970 0.10400
C 	C 	0.20780 0.23870 0.53770 0.03200
C 	C 	0.19430 0.23270 0.47440 -0.09900
C 	C 	0.22610 0.27470 0.55650 -0.11100
C 	C 	0.23410 0.30230 0.51310 0.07000
C 	C 	0.20740 0.26360 0.43690 0.05500
C 	C 	0.54550 0.19660 0.31960 0.10300
C 	C 	0.50710 0.22710 0.29850 0.03200
C 	C 	0.44840 0.22090 0.26940 -0.09800
C 	C 	0.52570 0.26420 0.30730 -0.10200
C 	C 	0.48280 0.29330 0.28890 0.06500
C 	C 	0.41150 0.25120 0.25130 0.05400
C 	C 	0.92600 0.12580 0.43340 0.09300
C 	C 	0.97700 0.11460 0.47750 0.05100
C 	C 	0.04010 0.11720 0.45970 -0.12000
C 	C 	0.95950 0.10260 0.53410 -0.12200
C 	C 	0.00860 0.09470 0.57430 0.06500
C 	C 	0.08550 0.10640 0.50310 0.05500
C 	C 	0.71010 0.92640 0.27080 0.10600
C 	C 	0.68130 0.95730 0.30280 -0.03100
C 	C 	0.72010 0.98440 0.33140 -0.07100
C 	C 	0.61550 0.96350 0.30350 -0.08700
C 	C 	0.59250 0.99530 0.32970 0.03900
C 	C 	0.69270 0.01550 0.35590 0.01400
C 	C 	0.69800 0.29210 0.57970 0.10400
C 	C 	0.70780 0.26130 0.53770 0.03200
C 	C 	0.69430 0.26730 0.47440 -0.09900
C 	C 	0.72610 0.22530 0.55650 -0.11100
C 	C 	0.73410 0.19770 0.51310 0.07000
C 	C 	0.70740 0.23640 0.43690 0.05500
C 	C 	0.95450 0.30340 0.81960 0.10300
C 	C 	0.99290 0.27290 0.79850 0.03200
C 	C 	0.05160 0.27910 0.76940 -0.09800
C 	C 	0.97430 0.23580 0.80730 -0.10200
C 	C 	0.01720 0.20670 0.78890 0.06500
C 	C 	0.08850 0.24880 0.75130 0.05400
C 	C 	0.57400 0.37420 0.93340 0.09300
C 	C 	0.52300 0.38540 0.97750 0.05100
C 	C 	0.45990 0.38280 0.95970 -0.12000
C 	C 	0.54050 0.39740 0.03410 -0.12200
C 	C 	0.49140 0.40530 0.07430 0.06500
C 	C 	0.41450 0.39360 0.00310 0.05500
C 	C 	0.78990 0.57360 0.77080 0.10600
C 	C 	0.81870 0.54270 0.80280 -0.03100
C 	C 	0.77990 0.51560 0.83140 -0.07100
C 	C 	0.88450 0.53650 0.80350 -0.08700
C 	C 	0.90750 0.50470 0.82970 0.03900
C 	C 	0.80730 0.48450 0.85590 0.01400
C 	C 	0.80200 0.20790 0.07970 0.10400
C 	C 	0.79220 0.23870 0.03770 0.03200
C 	C 	0.80570 0.23270 0.97440 -0.09900
C 	C 	0.77390 0.27470 0.05650 -0.11100
C 	C 	0.76590 0.30230 0.01310 0.07000
C 	C 	0.79260 0.26360 0.93690 0.05500
C 	C 	0.54550 0.80340 0.18040 0.10300
C 	C 	0.50710 0.77290 0.20150 0.03200
C 	C 	0.44840 0.77910 0.23060 -0.09800
C 	C 	0.52570 0.73580 0.19270 -0.10200
C 	C 	0.48280 0.70670 0.21110 0.06500
C 	C 	0.41150 0.74880 0.24870 0.05400
C 	C 	0.92600 0.87420 0.06660 0.09300
C 	C 	0.97700 0.88540 0.02250 0.05100
C 	C 	0.04010 0.88280 0.04030 -0.12000
C 	C 	0.95950 0.89740 0.96590 -0.12200
C 	C 	0.00860 0.90530 0.92570 0.06500
C 	C 	0.08550 0.89360 0.99690 0.05500
C 	C 	0.71010 0.07360 0.22920 0.10600
C 	C 	0.68130 0.04270 0.19720 -0.03100
C 	C 	0.72010 0.01560 0.16860 -0.07200
C 	C 	0.61550 0.03650 0.19650 -0.08700
C 	C 	0.59250 0.00470 0.17030 0.03900
C 	C 	0.69270 0.98450 0.14410 0.01400
C 	C 	0.69800 0.70790 0.92030 0.10400
C 	C 	0.70780 0.73870 0.96230 0.03200
C 	C 	0.69430 0.73270 0.02560 -0.09900
C 	C 	0.72610 0.77470 0.94350 -0.11100
C 	C 	0.73410 0.80230 0.98690 0.07000
C 	C 	0.70740 0.76360 0.06310 0.05500
C 	C 	0.95450 0.69660 0.68040 0.10300
C 	C 	0.99290 0.72710 0.70150 0.03200
C 	C 	0.05160 0.72090 0.73060 -0.09800
C 	C 	0.97430 0.76420 0.69270 -0.10200
C 	C 	0.01720 0.79330 0.71110 0.06500
C 	C 	0.08850 0.75120 0.74870 0.05400
C 	C 	0.57400 0.62580 0.56660 0.09300
C 	C 	0.52300 0.61460 0.52250 0.05100
C 	C 	0.45990 0.61720 0.54030 -0.12000
C 	C 	0.54050 0.60260 0.46590 -0.12200
C 	C 	0.49140 0.59470 0.42570 0.06500
C 	C 	0.41450 0.60640 0.49690 0.05500
C 	C 	0.78990 0.42640 0.72920 0.10600
C 	C 	0.81870 0.45730 0.69720 -0.03100
C 	C 	0.77990 0.48440 0.66860 -0.07100
C 	C 	0.88450 0.46350 0.69650 -0.08700
C 	C 	0.90750 0.49530 0.67030 0.03900
C 	C 	0.80730 0.51550 0.64410 0.01400
C 	C 	0.80200 0.79210 0.42030 0.10400
C 	C 	0.79220 0.76130 0.46230 0.03200
C 	C 	0.80570 0.76730 0.52560 -0.09900
C 	C 	0.77390 0.72530 0.44350 -0.11100
C 	C 	0.76590 0.69770 0.48690 0.07000
C 	C 	0.79260 0.73640 0.56310 0.05500
N 	N 	0.41860 0.85740 0.65450 -0.20500
N 	N 	0.37460 0.83120 0.64380 -0.16200
N 	N 	0.47290 0.83920 0.67970 -0.12400
N 	N 	0.39550 0.79690 0.65960 -0.09600
N 	N 	0.57160 0.71240 0.73780 -0.22900
N 	N 	0.16410 0.85870 0.60360 -0.16800
N 	N 	0.11970 0.85450 0.64560 -0.15900
N 	N 	0.06250 0.86370 0.62300 -0.09300
N 	N 	0.13620 0.87200 0.55180 -0.09700
N 	N 	0.93030 0.90410 0.44020 -0.24500
N 	N 	0.27120 0.11650 0.79230 -0.15700
N 	N 	0.22370 0.11670 0.75400 -0.16700
N 	N 	0.23370 0.09035 0.71360 -0.20500
N 	N 	0.31330 0.08907 0.77720 -0.17200
N 	N 	0.37140 0.97850 0.64630 -0.25100
N 	N 	0.32370 0.67920 0.33920 -0.16500
N 	N 	0.31870 0.65530 0.38290 -0.17100
N 	N 	0.30830 0.67260 0.43660 -0.11400
N 	N 	0.31170 0.71430 0.36140 -0.09600
N 	N 	0.27440 0.79680 0.54470 -0.22700
N 	N 	0.08140 0.64260 0.15450 -0.20500
N 	N 	0.12540 0.66880 0.14380 -0.16200
N 	N 	0.02710 0.66080 0.17970 -0.12400
N 	N 	0.10450 0.70310 0.15960 -0.09600
N 	N 	0.92840 0.78760 0.23780 -0.22900
N 	N 	0.33590 0.64130 0.10360 -0.16800
N 	N 	0.38030 0.64550 0.14560 -0.15900
N 	N 	0.43750 0.63630 0.12300 -0.09300
N 	N 	0.36380 0.62800 0.05180 -0.09700
N 	N 	0.56970 0.59590 0.94020 -0.24500
N 	N 	0.22880 0.38350 0.29230 -0.15700
N 	N 	0.27630 0.38330 0.25400 -0.16700
N 	N 	0.26630 0.40965 0.21360 -0.20500
N 	N 	0.18670 0.41093 0.27720 -0.17200
N 	N 	0.12860 0.52150 0.14630 -0.25100
N 	N 	0.17630 0.82080 0.83920 -0.16500
N 	N 	0.18130 0.84470 0.88290 -0.17100
N 	N 	0.19170 0.82740 0.93660 -0.11400
N 	N 	0.18830 0.78570 0.86140 -0.09600
N 	N 	0.22560 0.70320 0.04470 -0.22700
N 	N 	0.41860 0.14260 0.84550 -0.20500
N 	N 	0.37460 0.16880 0.85620 -0.16200
N 	N 	0.47290 0.16080 0.82030 -0.12400
N 	N 	0.39550 0.20310 0.84040 -0.09600
N 	N 	0.57160 0.28760 0.76220 -0.22900
N 	N 	0.16410 0.14130 0.89640 -0.16800
N 	N 	0.11970 0.14550 0.85440 -0.15900
N 	N 	0.06250 0.13630 0.87700 -0.09300
N 	N 	0.13620 0.12800 0.94820 -0.09700
N 	N 	0.93030 0.09590 0.05980 -0.24500
N 	N 	0.27120 0.88350 0.70770 -0.15700
N 	N 	0.22370 0.88330 0.74600 -0.16700
N 	N 	0.23370 0.90965 0.78640 -0.20500
N 	N 	0.31330 0.91093 0.72280 -0.17200
N 	N 	0.37140 0.02150 0.85370 -0.25100
N 	N 	0.32370 0.32080 0.16080 -0.16500
N 	N 	0.31870 0.34470 0.11710 -0.17100
N 	N 	0.30830 0.32740 0.06340 -0.11400
N 	N 	0.31170 0.28570 0.13860 -0.09600
N 	N 	0.27440 0.20320 0.95530 -0.22700
N 	N 	0.08140 0.35740 0.34550 -0.20500
N 	N 	0.12540 0.33120 0.35620 -0.16200
N 	N 	0.02710 0.33920 0.32030 -0.12400
N 	N 	0.10450 0.29690 0.34040 -0.09600
N 	N 	0.92840 0.21240 0.26220 -0.22900
N 	N 	0.33590 0.35870 0.39640 -0.16800
N 	N 	0.38030 0.35450 0.35440 -0.15900
N 	N 	0.43750 0.36370 0.37700 -0.09300
N 	N 	0.36380 0.37200 0.44820 -0.09700
N 	N 	0.56970 0.40410 0.55980 -0.24500
N 	N 	0.22880 0.61650 0.20770 -0.15700
N 	N 	0.27630 0.61670 0.24600 -0.16700
N 	N 	0.26630 0.59035 0.28640 -0.20500
N 	N 	0.18670 0.58907 0.22280 -0.17200
N 	N 	0.12860 0.47850 0.35370 -0.25100
N 	N 	0.17630 0.17920 0.66080 -0.16500
N 	N 	0.18130 0.15530 0.61710 -0.17100
N 	N 	0.19170 0.17260 0.56340 -0.11400
N 	N 	0.18830 0.21430 0.63860 -0.09600
N 	N 	0.22560 0.29680 0.45530 -0.22700
N 	N 	0.58140 0.14260 0.34550 -0.20500
N 	N 	0.62540 0.16880 0.35620 -0.16200
N 	N 	0.52710 0.16080 0.32030 -0.12400
N 	N 	0.60450 0.20310 0.34040 -0.09600
N 	N 	0.42840 0.28760 0.26220 -0.22900
N 	N 	0.83590 0.14130 0.39640 -0.16800
N 	N 	0.88030 0.14550 0.35440 -0.15900
N 	N 	0.93750 0.13630 0.37700 -0.09300
N 	N 	0.86380 0.12800 0.44820 -0.09700
N 	N 	0.06970 0.09590 0.55980 -0.24500
N 	N 	0.72880 0.88350 0.20770 -0.15700
N 	N 	0.77630 0.88330 0.24600 -0.16700
N 	N 	0.76630 0.90965 0.28640 -0.20500
N 	N 	0.68670 0.91093 0.22280 -0.17200
N 	N 	0.62860 0.02150 0.35370 -0.25100
N 	N 	0.67630 0.32080 0.66080 -0.16500
N 	N 	0.68130 0.34470 0.61710 -0.17100
N 	N 	0.69170 0.32740 0.56340 -0.11400
N 	N 	0.68830 0.28570 0.63860 -0.09600
N 	N 	0.72560 0.20320 0.45530 -0.22700
N 	N 	0.91860 0.35740 0.84550 -0.20500
N 	N 	0.87460 0.33120 0.85620 -0.16200
N 	N 	0.97290 0.33920 0.82030 -0.12400
N 	N 	0.89550 0.29690 0.84040 -0.09600
N 	N 	0.07160 0.21240 0.76220 -0.22900
N 	N 	0.66410 0.35870 0.89640 -0.16800
N 	N 	0.61970 0.35450 0.85440 -0.15900
N 	N 	0.56250 0.36370 0.87700 -0.09300
N 	N 	0.63620 0.37200 0.94820 -0.09700
N 	N 	0.43030 0.40410 0.05980 -0.24500
N 	N 	0.77120 0.61650 0.70770 -0.15700
N 	N 	0.72370 0.61670 0.74600 -0.16700
N 	N 	0.73370 0.59035 0.78640 -0.20500
N 	N 	0.81330 0.58907 0.72280 -0.17200
N 	N 	0.87140 0.47850 0.85370 -0.25100
N 	N 	0.82370 0.17920 0.16080 -0.16500
N 	N 	0.81870 0.15530 0.11710 -0.17100
N 	N 	0.80830 0.17260 0.06340 -0.11400
N 	N 	0.81170 0.21430 0.13860 -0.09600
N 	N 	0.77440 0.29680 0.95530 -0.22700
N 	N 	0.58140 0.85740 0.15450 -0.20500
N 	N 	0.62540 0.83120 0.14380 -0.16200
N 	N 	0.52710 0.83920 0.17970 -0.12400
N 	N 	0.60450 0.79690 0.15960 -0.09600
N 	N 	0.42840 0.71240 0.23780 -0.22900
N 	N 	0.83590 0.85870 0.10360 -0.16800
N 	N 	0.88030 0.85450 0.14560 -0.15900
N 	N 	0.93750 0.86370 0.12300 -0.09300
N 	N 	0.86380 0.87200 0.05180 -0.09700
N 	N 	0.06970 0.90410 0.94020 -0.24500
N 	N 	0.72880 0.11650 0.29230 -0.15700
N 	N 	0.77630 0.11670 0.25400 -0.16700
N 	N 	0.76630 0.09035 0.21360 -0.20500
N 	N 	0.68670 0.08907 0.27720 -0.17200
N 	N 	0.62860 0.97850 0.14630 -0.25100
N 	N 	0.67630 0.67920 0.83920 -0.16500
N 	N 	0.68130 0.65530 0.88290 -0.17100
N 	N 	0.69170 0.67260 0.93660 -0.11400
N 	N 	0.68830 0.71430 0.86140 -0.09600
N 	N 	0.72560 0.79680 0.04470 -0.22700
N 	N 	0.91860 0.64260 0.65450 -0.20500
N 	N 	0.87460 0.66880 0.64380 -0.16200
N 	N 	0.97290 0.66080 0.67970 -0.12400
N 	N 	0.89550 0.70310 0.65960 -0.09600
N 	N 	0.07160 0.78760 0.73780 -0.22900
N 	N 	0.66410 0.64130 0.60360 -0.16800
N 	N 	0.61970 0.64550 0.64560 -0.15900
N 	N 	0.56250 0.63630 0.62300 -0.09300
N 	N 	0.63620 0.62800 0.55180 -0.09700
N 	N 	0.43030 0.59590 0.44020 -0.24500
N 	N 	0.77120 0.38350 0.79230 -0.15700
N 	N 	0.72370 0.38330 0.75400 -0.16700
N 	N 	0.73370 0.40965 0.71360 -0.20500
N 	N 	0.81330 0.41093 0.77720 -0.17200
N 	N 	0.87140 0.52150 0.64630 -0.25100
N 	N 	0.82370 0.82080 0.33920 -0.16500
N 	N 	0.81870 0.84470 0.38290 -0.17100
N 	N 	0.80830 0.82740 0.43660 -0.11400
N 	N 	0.81170 0.78570 0.36140 -0.09600
N 	N 	0.77440 0.70320 0.54470 -0.22700
Cl	Cl	0.31245 0.90140 0.55945 -0.67800
Cl	Cl	0.23074 0.79197 0.69555 -0.62500
Cl	Cl	0.06724 0.11483 0.71244 -0.65900
Cl	Cl	0.18755 0.59860 0.05945 -0.67800
Cl	Cl	0.26926 0.70803 0.19555 -0.62500
Cl	Cl	0.43276 0.38517 0.21244 -0.65900
Cl	Cl	0.31245 0.09860 0.94055 -0.67800
Cl	Cl	0.23074 0.20803 0.80445 -0.62500
Cl	Cl	0.06724 0.88517 0.78756 -0.65900
Cl	Cl	0.18755 0.40140 0.44055 -0.67800
Cl	Cl	0.26926 0.29197 0.30445 -0.62500
Cl	Cl	0.43276 0.61483 0.28756 -0.65900
Cl	Cl	0.68755 0.09860 0.44055 -0.67800
Cl	Cl	0.76926 0.20803 0.30445 -0.62500
Cl	Cl	0.93276 0.88517 0.28756 -0.65900
Cl	Cl	0.81245 0.40140 0.94055 -0.67800
Cl	Cl	0.73074 0.29197 0.80445 -0.62500
Cl	Cl	0.56724 0.61483 0.78756 -0.65900
Cl	Cl	0.68755 0.90140 0.05945 -0.67800
Cl	Cl	0.76926 0.79197 0.19555 -0.62500
Cl	Cl	0.93276 0.11483 0.21244 -0.65900
Cl	Cl	0.81245 0.59860 0.55945 -0.67800
Cl	Cl	0.73074 0.70803 0.69555 -0.62500
Cl	Cl	0.56724 0.38517 0.71244 -0.65900
