data_crystal

_cell_length_a 5.00300
_cell_length_b 8.54340
_cell_length_c 12.43360
_cell_angle_alpha 92.99000
_cell_angle_beta  97.13800
_cell_angle_gamma 91.46500

_symmetry_space_group_name_	'P 1'
_symmetry_space_group_name_H-M	'P 1'

loop_
_symmetry_equiv_pos_as_xyz
  x,y,z

loop_
_atom_site_label
_atom_site_type_symbol
_atom_site_fract_x
_atom_site_fract_y
_atom_site_fract_z
_atom_site_charge
C 	C 	0.04050 0.08500 0.51730 0.20000
Zn	Zn	0.60630 0.13674 0.94045 1.21600
Zn	Zn	0.11380 0.36276 0.13950 1.22500
Zn	Zn	0.85530 0.96820 0.70233 1.22900
P 	P 	0.61780 0.17610 0.20030 0.53100
P 	P 	0.04180 0.28790 0.87690 0.52300
O 	O 	0.33910 0.27500 0.87670 -0.47800
O 	O 	0.54510 0.08560 0.09030 -0.66600
O 	O 	0.88130 0.13670 0.82870 -0.56100
O 	O 	0.95480 0.30510 0.99300 -0.61600
O 	O 	0.94810 0.42620 0.80990 -0.42000
O 	O 	0.49010 0.33640 0.19180 -0.47700
O 	O 	0.92840 0.20130 0.22150 -0.57500
O 	O 	0.52760 0.08020 0.28970 -0.47100
O 	O 	0.98990 0.13680 0.60990 -0.33300
O 	O 	0.14300 0.16350 0.45070 -0.32700
C 	C 	0.95950 0.91500 0.48270 0.20000
Zn	Zn	0.39370 0.86326 0.05955 1.21600
Zn	Zn	0.88620 0.63724 0.86050 1.22500
Zn	Zn	0.14470 0.03180 0.29767 1.22900
P 	P 	0.38220 0.82390 0.79970 0.53100
P 	P 	0.95820 0.71210 0.12310 0.52300
O 	O 	0.66090 0.72500 0.12330 -0.47800
O 	O 	0.45490 0.91440 0.90970 -0.66600
O 	O 	0.11870 0.86330 0.17130 -0.56100
O 	O 	0.04520 0.69490 0.00700 -0.61600
O 	O 	0.05190 0.57380 0.19010 -0.42000
O 	O 	0.50990 0.66360 0.80820 -0.47700
O 	O 	0.07160 0.79870 0.77850 -0.57500
O 	O 	0.47240 0.91980 0.71030 -0.47100
O 	O 	0.01010 0.86320 0.39010 -0.33300
O 	O 	0.85700 0.83650 0.54930 -0.32700
