data_crystal

_cell_length_a 13.44700
_cell_length_b 13.71500
_cell_length_c 14.30100
_cell_angle_alpha 79.48000
_cell_angle_beta  63.90000
_cell_angle_gamma 65.68000

_symmetry_space_group_name_	'P 1'
_symmetry_space_group_name_H-M	'P 1'

loop_
_symmetry_equiv_pos_as_xyz
  x,y,z

loop_
_atom_site_label
_atom_site_type_symbol
_atom_site_fract_x
_atom_site_fract_y
_atom_site_fract_z
_atom_site_charge
La	La	0.47581 0.08046 0.34187 1.60700
La	La	0.52419 0.91954 0.65813 1.60700
H 	H 	0.12510 0.45240 0.58050 0.07500
H 	H 	0.29350 0.30140 0.51810 0.02800
H 	H 	0.65860 0.15100 0.08870 0.02000
H 	H 	0.84780 0.13440 0.96940 0.07400
H 	H 	0.59290 0.65870 0.97900 0.09500
H 	H 	0.55280 0.94640 0.10840 0.02000
H 	H 	0.97930 0.87610 0.12850 0.07200
H 	H 	0.25980 0.97880 0.56180 0.02000
H 	H 	0.53390 0.65140 0.31800 0.07900
H 	H 	0.78600 0.89570 0.23840 0.02600
H 	H 	0.49870 0.80840 0.38420 0.02000
H 	H 	0.59380 0.50460 0.24940 0.07700
H 	H 	0.57890 0.79550 0.03830 0.10100
H 	H 	0.07670 0.96470 0.61910 0.07700
H 	H 	0.62540 0.35160 0.17760 0.04200
H 	H 	0.02900 0.41380 0.36490 0.07400
H 	H 	0.63820 0.49760 0.91350 0.02500
H 	H 	0.20200 0.26500 0.30670 0.01900
H 	H 	0.27050 0.05210 0.28280 0.00300
H 	H 	0.09030 0.03850 0.33080 0.07600
H 	H 	0.87490 0.54760 0.41950 0.07500
H 	H 	0.70650 0.69860 0.48190 0.02800
H 	H 	0.34140 0.84900 0.91130 0.02000
H 	H 	0.15220 0.86560 0.03060 0.07400
H 	H 	0.40710 0.34130 0.02100 0.09500
H 	H 	0.44720 0.05360 0.89160 0.02000
H 	H 	0.02070 0.12390 0.87150 0.07200
H 	H 	0.74020 0.02120 0.43820 0.02000
H 	H 	0.46610 0.34860 0.68200 0.07900
H 	H 	0.21400 0.10430 0.76160 0.02600
H 	H 	0.50130 0.19160 0.61580 0.02000
H 	H 	0.40620 0.49540 0.75060 0.07700
H 	H 	0.42110 0.20450 0.96170 0.10100
H 	H 	0.92330 0.03530 0.38090 0.07700
H 	H 	0.37460 0.64840 0.82240 0.04200
H 	H 	0.97100 0.58620 0.63510 0.07400
H 	H 	0.36180 0.50240 0.08650 0.02500
H 	H 	0.79800 0.73500 0.69330 0.01900
H 	H 	0.72950 0.94790 0.71720 0.00300
H 	H 	0.90970 0.96150 0.66920 0.07600
C 	C 	0.13820 0.41470 0.52400 -0.11700
C 	C 	0.56240 0.70320 0.16880 0.06000
C 	C 	0.93740 0.00490 0.03630 0.05100
C 	C 	0.05560 0.45070 0.48020 0.05400
C 	C 	0.23910 0.32420 0.48570 0.07600
C 	C 	0.72470 0.09400 0.09710 0.07200
C 	C 	0.58790 0.60220 0.12300 0.04900
C 	C 	0.83790 0.08530 0.02580 -0.11300
C 	C 	0.60120 0.59650 0.02160 -0.11800
C 	C 	0.54720 0.88620 0.15240 0.07700
C 	C 	0.91490 0.93370 0.11810 -0.11200
C 	C 	0.22380 0.99350 0.51400 0.08000
C 	C 	0.53730 0.71140 0.27320 -0.11800
C 	C 	0.79850 0.94690 0.18440 0.06600
C 	C 	0.05930 0.00320 0.48260 0.05700
C 	C 	0.51720 0.80560 0.31230 0.07200
C 	C 	0.60010 0.50630 0.18040 -0.10600
C 	C 	0.56490 0.79530 0.10950 -0.12800
C 	C 	0.11410 0.98430 0.54880 -0.12100
C 	C 	0.62130 0.41430 0.13580 0.06100
C 	C 	0.08220 0.39250 0.39820 -0.11900
C 	C 	0.62660 0.49960 0.98370 0.07100
C 	C 	0.18610 0.30310 0.36400 0.07200
C 	C 	0.23000 0.03550 0.35340 0.07700
C 	C 	0.12190 0.02740 0.38140 -0.12500
C 	C 	0.86180 0.58530 0.47600 -0.11700
C 	C 	0.43760 0.29680 0.83120 0.06000
C 	C 	0.06260 0.99510 0.96370 0.05100
C 	C 	0.94440 0.54930 0.51980 0.05400
C 	C 	0.76090 0.67580 0.51430 0.07600
C 	C 	0.27530 0.90600 0.90290 0.07200
C 	C 	0.41210 0.39780 0.87700 0.04900
C 	C 	0.16210 0.91470 0.97420 -0.11300
C 	C 	0.39880 0.40350 0.97840 -0.11800
C 	C 	0.45280 0.11380 0.84760 0.07700
C 	C 	0.08510 0.06630 0.88190 -0.11200
C 	C 	0.77620 0.00650 0.48600 0.08000
C 	C 	0.46270 0.28860 0.72680 -0.11800
C 	C 	0.20150 0.05310 0.81560 0.06600
C 	C 	0.94070 0.99680 0.51740 0.05700
C 	C 	0.48280 0.19440 0.68770 0.07200
C 	C 	0.39990 0.49370 0.81960 -0.10600
C 	C 	0.43510 0.20470 0.89050 -0.12800
C 	C 	0.88590 0.01570 0.45120 -0.12100
C 	C 	0.37870 0.58570 0.86420 0.06100
C 	C 	0.91780 0.60750 0.60180 -0.11900
C 	C 	0.37340 0.50040 0.01630 0.07100
C 	C 	0.81390 0.69690 0.63600 0.07200
C 	C 	0.77000 0.96450 0.64660 0.07700
C 	C 	0.87810 0.97260 0.61860 -0.12500
N 	N 	0.70200 0.02700 0.17780 -0.18900
N 	N 	0.52250 0.89460 0.25370 -0.19900
N 	N 	0.26630 0.26630 0.40650 -0.18900
N 	N 	0.28160 0.02190 0.41710 -0.20800
N 	N 	0.63640 0.40750 0.03840 -0.12200
N 	N 	0.29800 0.97300 0.82220 -0.18900
N 	N 	0.47750 0.10540 0.74630 -0.19900
N 	N 	0.73370 0.73370 0.59350 -0.18900
N 	N 	0.71840 0.97810 0.58290 -0.20800
N 	N 	0.36360 0.59250 0.96160 -0.12200
Cl	Cl	0.62238 0.90561 0.42834 -0.57600
Cl	Cl	0.42544 0.15895 0.16576 -0.49200
Cl	Cl	0.57230 0.21677 0.35697 -0.47300
Cl	Cl	0.37762 0.09439 0.57166 -0.57600
Cl	Cl	0.57456 0.84105 0.83424 -0.49200
Cl	Cl	0.42770 0.78323 0.64303 -0.47300
