data_crystal

_cell_length_a 7.17950
_cell_length_b 11.48400
_cell_length_c 14.79400
_cell_angle_alpha 93.96000
_cell_angle_beta  90.00000
_cell_angle_gamma 90.00000

_symmetry_space_group_name_	'P 1'
_symmetry_space_group_name_H-M	'P 1'

loop_
_symmetry_equiv_pos_as_xyz
  x,y,z

loop_
_atom_site_label
_atom_site_type_symbol
_atom_site_fract_x
_atom_site_fract_y
_atom_site_fract_z
_atom_site_charge
Co	Co	0.42477 0.24406 0.85767 1.16000
Co	Co	0.82636 0.82222 0.34314 1.15600
Co	Co	0.59001 0.60576 0.19818 1.16400
Co	Co	0.92477 0.75594 0.14233 1.14700
Co	Co	0.32636 0.17778 0.65686 1.17500
Co	Co	0.09001 0.39424 0.80182 1.17500
H 	H 	0.56590 0.89900 0.93380 0.04700
H 	H 	0.32590 0.79350 0.69750 0.06200
H 	H 	0.34160 0.60130 0.73690 0.05300
H 	H 	0.65380 0.35020 0.40730 0.04200
H 	H 	0.70680 0.64370 0.56750 0.04800
H 	H 	0.71750 0.53480 0.69260 0.03000
H 	H 	0.06590 0.10100 0.06620 0.04100
H 	H 	0.82590 0.20650 0.30250 0.04800
H 	H 	0.84160 0.39870 0.26310 0.05000
H 	H 	0.15380 0.64980 0.59270 0.04900
H 	H 	0.20680 0.35630 0.43250 0.06300
H 	H 	0.21750 0.46520 0.30740 0.04700
C 	C 	0.46570 0.63390 0.85970 -0.05200
C 	C 	0.53490 0.72510 0.91840 -0.06500
C 	C 	0.52080 0.83880 0.89450 0.01700
C 	C 	0.44020 0.86560 0.81230 -0.08100
C 	C 	0.37620 0.77670 0.75300 -0.00300
C 	C 	0.38700 0.66100 0.77660 -0.04600
C 	C 	0.49380 0.50880 0.88250 0.33800
C 	C 	0.62050 0.70790 0.01080 0.37600
C 	C 	0.42290 0.99150 0.79040 0.36400
C 	C 	0.68500 0.37580 0.62580 -0.10700
C 	C 	0.66260 0.32050 0.54020 -0.06000
C 	C 	0.66280 0.38730 0.46500 0.01400
C 	C 	0.67640 0.50800 0.47470 -0.09500
C 	C 	0.69680 0.56290 0.56030 -0.01500
C 	C 	0.70220 0.49760 0.63520 -0.01900
C 	C 	0.68890 0.31680 0.71400 0.39100
C 	C 	0.64550 0.18860 0.52050 0.31200
C 	C 	0.67950 0.58160 0.39450 0.38100
C 	C 	0.96570 0.36610 0.14030 -0.08800
C 	C 	0.03490 0.27490 0.08160 -0.02600
C 	C 	0.02080 0.16120 0.10550 0.08800
C 	C 	0.94020 0.13440 0.18770 -0.15200
C 	C 	0.87620 0.22330 0.24700 0.01700
C 	C 	0.88700 0.33900 0.22340 -0.06300
C 	C 	0.99380 0.49120 0.11750 0.27500
C 	C 	0.12050 0.29210 0.98920 0.36500
C 	C 	0.92290 0.00850 0.20960 0.37700
C 	C 	0.18500 0.62420 0.37420 -0.09000
C 	C 	0.16260 0.67950 0.45980 -0.04700
C 	C 	0.16280 0.61270 0.53500 0.01900
C 	C 	0.17640 0.49200 0.52530 -0.07800
C 	C 	0.19680 0.43710 0.43970 -0.00500
C 	C 	0.20220 0.50240 0.36480 -0.01000
C 	C 	0.18890 0.68320 0.28600 0.38700
C 	C 	0.14550 0.81140 0.47950 0.31100
C 	C 	0.17950 0.41840 0.60550 0.38600
O 	O 	0.72770 0.68530 0.40950 -0.46400
O 	O 	0.63320 0.53230 0.31802 -0.45000
O 	O 	0.76080 0.14190 0.46600 -0.25200
O 	O 	0.51650 0.13260 0.55560 -0.37200
O 	O 	0.55820 0.24680 0.73068 -0.53900
O 	O 	0.81410 0.34280 0.77050 -0.45100
O 	O 	0.43970 0.06510 0.85790 -0.41900
O 	O 	0.39610 0.01370 0.71039 -0.39400
O 	O 	0.52240 0.66380 0.06870 -0.40600
O 	O 	0.78310 0.74710 0.02184 -0.43400
O 	O 	0.63200 0.48750 0.92990 -0.29200
O 	O 	0.38100 0.43020 0.84967 -0.50200
O 	O 	0.19190 0.23090 0.77373 -0.56700
O 	O 	0.22770 0.31470 0.59050 -0.44200
O 	O 	0.13320 0.46770 0.68198 -0.43300
O 	O 	0.26080 0.85810 0.53400 -0.23400
O 	O 	0.01650 0.86740 0.44440 -0.34000
O 	O 	0.05820 0.75320 0.26932 -0.49900
O 	O 	0.31410 0.65720 0.22950 -0.41700
O 	O 	0.93970 0.93490 0.14210 -0.44000
O 	O 	0.89610 0.98630 0.28961 -0.41300
O 	O 	0.02240 0.33620 0.93130 -0.38500
O 	O 	0.28310 0.25290 0.97816 -0.41900
O 	O 	0.13200 0.51250 0.07010 -0.22900
O 	O 	0.88100 0.56980 0.15033 -0.50000
O 	O 	0.69190 0.76910 0.22627 -0.58000
