data_crystal

_cell_length_a 15.29270
_cell_length_b 15.29270
_cell_length_c 12.30100
_cell_angle_alpha 90.00000
_cell_angle_beta  90.00000
_cell_angle_gamma 90.00000

_symmetry_space_group_name_	'P 1'
_symmetry_space_group_name_H-M	'P 1'

loop_
_symmetry_equiv_pos_as_xyz
  x,y,z

loop_
_atom_site_label
_atom_site_type_symbol
_atom_site_fract_x
_atom_site_fract_y
_atom_site_fract_z
_atom_site_charge
H 	H 	0.61700 0.55920 0.58160 0.03600
C 	C 	0.56920 0.53670 0.61920 0.00200
C 	C 	0.56840 0.54040 0.73220 -0.11200
C 	C 	0.63980 0.58770 0.79180 0.43000
O 	O 	0.62030 0.61550 0.88540 -0.45900
O 	O 	0.71117 0.59694 0.74560 -0.48000
H 	H 	0.29732 0.28839 0.40903 0.19600
H 	H 	0.11700 0.05920 0.08160 0.00300
C 	C 	0.06920 0.03670 0.11920 0.04900
C 	C 	0.06840 0.04040 0.23220 -0.14500
C 	C 	0.13980 0.08770 0.29180 0.44000
O 	O 	0.12030 0.11550 0.38540 -0.48200
O 	O 	0.21117 0.09694 0.24560 -0.49400
H 	H 	0.79732 0.78839 0.90903 0.20800
H 	H 	0.88300 0.94080 0.08160 0.00000
C 	C 	0.93080 0.96330 0.11920 0.06800
C 	C 	0.93160 0.95960 0.23220 -0.12900
C 	C 	0.86020 0.91230 0.29180 0.43900
O 	O 	0.87970 0.88450 0.38540 -0.47400
O 	O 	0.78883 0.90306 0.24560 -0.49100
H 	H 	0.20268 0.21161 0.90903 0.20600
H 	H 	0.38300 0.44080 0.58160 0.03400
C 	C 	0.43080 0.46330 0.61920 0.00200
C 	C 	0.43160 0.45960 0.73220 -0.11300
C 	C 	0.36020 0.41230 0.79180 0.43000
O 	O 	0.37970 0.38450 0.88540 -0.46000
O 	O 	0.28883 0.40306 0.74560 -0.48100
H 	H 	0.70268 0.71161 0.40903 0.19600
H 	H 	0.44080 0.11700 0.83160 0.09000
C 	C 	0.46330 0.06920 0.86920 -0.15200
C 	C 	0.45960 0.06840 0.98220 0.12700
C 	C 	0.41230 0.13980 0.04180 0.25700
O 	O 	0.38450 0.12030 0.13540 -0.44300
O 	O 	0.40306 0.21117 0.99560 -0.40000
H 	H 	0.71161 0.79732 0.65903 0.19600
H 	H 	0.94080 0.61700 0.33160 0.04200
C 	C 	0.96330 0.56920 0.36920 -0.01400
C 	C 	0.95960 0.56840 0.48220 -0.08300
C 	C 	0.91230 0.63980 0.54180 0.42300
O 	O 	0.88450 0.62030 0.63540 -0.46600
O 	O 	0.90306 0.71117 0.49560 -0.48100
H 	H 	0.21161 0.29732 0.15903 0.19600
H 	H 	0.05920 0.38300 0.33160 0.04400
C 	C 	0.03670 0.43080 0.36920 -0.03000
C 	C 	0.04040 0.43160 0.48220 -0.09700
C 	C 	0.08770 0.36020 0.54180 0.42400
O 	O 	0.11550 0.37970 0.63540 -0.47200
O 	O 	0.09694 0.28883 0.49560 -0.48500
H 	H 	0.78839 0.70268 0.15903 0.19700
H 	H 	0.55920 0.88300 0.83160 0.08900
C 	C 	0.53670 0.93080 0.86920 -0.14800
C 	C 	0.54040 0.93160 0.98220 0.13300
C 	C 	0.58770 0.86020 0.04180 0.25300
O 	O 	0.61550 0.87970 0.13540 -0.44000
O 	O 	0.59694 0.78883 0.99560 -0.39800
H 	H 	0.28839 0.20268 0.65903 0.19600
H 	H 	0.88300 0.55920 0.16840 -0.02800
C 	C 	0.93080 0.53670 0.13080 0.18000
C 	C 	0.93160 0.54040 0.01780 -0.35300
C 	C 	0.86020 0.58770 0.95820 0.61000
O 	O 	0.87970 0.61550 0.86460 -0.50700
O 	O 	0.78883 0.59694 0.00440 -0.57100
H 	H 	0.20268 0.28839 0.34097 0.19500
H 	H 	0.38300 0.05920 0.66840 0.01900
C 	C 	0.43080 0.03670 0.63080 0.04300
C 	C 	0.43160 0.04040 0.51780 -0.14100
C 	C 	0.36020 0.08770 0.45820 0.44100
O 	O 	0.37970 0.11550 0.36460 -0.48300
O 	O 	0.28883 0.09694 0.50440 -0.48900
H 	H 	0.70268 0.78839 0.84097 0.19600
H 	H 	0.61700 0.94080 0.66840 0.02000
C 	C 	0.56920 0.96330 0.63080 0.04700
C 	C 	0.56840 0.95960 0.51780 -0.13700
C 	C 	0.63980 0.91230 0.45820 0.44100
O 	O 	0.62030 0.88450 0.36460 -0.48200
O 	O 	0.71117 0.90306 0.50440 -0.48600
H 	H 	0.29732 0.21161 0.84097 0.19600
H 	H 	0.11700 0.44080 0.16840 -0.02500
C 	C 	0.06920 0.46330 0.13080 0.16300
C 	C 	0.06840 0.45960 0.01780 -0.36200
C 	C 	0.13980 0.41230 0.95820 0.60600
O 	O 	0.12030 0.38450 0.86460 -0.51300
O 	O 	0.21117 0.40306 0.00440 -0.57000
H 	H 	0.79732 0.71161 0.34097 0.19600
H 	H 	0.05920 0.11700 0.91840 0.06000
C 	C 	0.03670 0.06920 0.88080 -0.03800
C 	C 	0.04040 0.06840 0.76780 -0.08700
C 	C 	0.08770 0.13980 0.70820 0.42100
O 	O 	0.11550 0.12030 0.61460 -0.47500
O 	O 	0.09694 0.21117 0.75440 -0.48000
H 	H 	0.78839 0.79732 0.09097 0.18600
H 	H 	0.55920 0.61700 0.41840 0.03000
C 	C 	0.53670 0.56920 0.38080 0.01200
C 	C 	0.54040 0.56840 0.26780 -0.12900
C 	C 	0.58770 0.63980 0.20820 0.43700
O 	O 	0.61550 0.62030 0.11460 -0.49300
O 	O 	0.59694 0.71117 0.25440 -0.49100
H 	H 	0.28839 0.29732 0.59097 0.19600
H 	H 	0.44080 0.38300 0.41840 0.03000
C 	C 	0.46330 0.43080 0.38080 0.01200
C 	C 	0.45960 0.43160 0.26780 -0.12900
C 	C 	0.41230 0.36020 0.20820 0.43700
O 	O 	0.38450 0.37970 0.11460 -0.49300
O 	O 	0.40306 0.28883 0.25440 -0.49100
H 	H 	0.71161 0.70268 0.59097 0.19600
H 	H 	0.94080 0.88300 0.91840 0.05800
C 	C 	0.96330 0.93080 0.88080 -0.01600
C 	C 	0.95960 0.93160 0.76780 -0.07000
C 	C 	0.91230 0.86020 0.70820 0.42000
O 	O 	0.88450 0.87970 0.61460 -0.46800
O 	O 	0.90306 0.78883 0.75440 -0.47500
H 	H 	0.21161 0.20268 0.09097 0.18500
Mg	Mg	0.18480 0.18480 0.50000 1.47900
Mg	Mg	0.31520 0.31520 -0.00000 1.47500
Mg	Mg	0.81520 0.68480 0.75000 1.48000
Mg	Mg	0.68480 0.81520 0.25000 1.47900
Mg	Mg	0.31520 0.18480 0.25000 1.47900
Mg	Mg	0.18480 0.31520 0.75000 1.48000
Mg	Mg	0.68480 0.68480 -0.00000 1.47500
Mg	Mg	0.81520 0.81520 0.50000 1.47900
H 	H 	-0.00000 0.00000 0.36390 0.04000
C 	C 	0.00000 0.00000 0.06100 -0.11300
C 	C 	-0.00000 -0.00000 0.28830 0.05900
H 	H 	0.50000 0.50000 0.86390 0.05700
C 	C 	0.50000 0.50000 0.56100 -0.00500
C 	C 	0.50000 0.50000 0.78830 0.05900
H 	H 	0.00000 0.50000 0.61390 0.05900
C 	C 	-0.00000 0.50000 0.31100 0.03100
C 	C 	0.00000 0.50000 0.53830 0.02100
H 	H 	0.50000 0.00000 0.11390 0.14200
C 	C 	0.50000 0.00000 0.81100 0.11100
C 	C 	0.50000 0.00000 0.03830 -0.24200
H 	H 	0.50000 -0.00000 0.38610 0.03600
C 	C 	0.50000 0.00000 0.68900 -0.07100
C 	C 	0.50000 0.00000 0.46170 0.07800
H 	H 	0.00000 0.50000 0.88610 -0.04600
C 	C 	-0.00000 0.50000 0.18900 -0.14900
C 	C 	0.00000 0.50000 0.96170 0.34100
H 	H 	0.50000 0.50000 0.13610 0.03400
C 	C 	0.50000 0.50000 0.43900 -0.01600
C 	C 	0.50000 0.50000 0.21170 0.07200
H 	H 	0.00000 0.00000 0.63610 0.05800
C 	C 	0.00000 0.00000 0.93900 0.05700
C 	C 	0.00000 0.00000 0.71170 0.01000
O 	O 	0.75540 0.75000 0.12500 -0.75400
O 	O 	0.25540 0.25000 0.62500 -0.74700
O 	O 	0.74460 0.75000 0.62500 -0.74700
O 	O 	0.24460 0.25000 0.12500 -0.75300
O 	O 	0.25000 0.25540 0.37500 -0.74800
O 	O 	0.75000 0.75540 0.87500 -0.74000
O 	O 	0.25000 0.24460 0.87500 -0.74000
O 	O 	0.75000 0.74460 0.37500 -0.74800
