data_crystal

_cell_length_a 15.39590
_cell_length_b 17.37750
_cell_length_c 15.05430
_cell_angle_alpha 90.00000
_cell_angle_beta  120.42000
_cell_angle_gamma 90.00000

_symmetry_space_group_name_	'P 1'
_symmetry_space_group_name_H-M	'P 1'

loop_
_symmetry_equiv_pos_as_xyz
  x,y,z

loop_
_atom_site_label
_atom_site_type_symbol
_atom_site_fract_x
_atom_site_fract_y
_atom_site_fract_z
_atom_site_charge
Cd	Cd	0.86611 0.63271 0.71430 1.23100
Br	Br	0.53698 0.59895 0.12981 -0.23000
Br	Br	0.13792 0.63254 0.30796 -0.20100
O 	O 	0.90470 0.49280 0.57170 -0.31400
O 	O 	0.78440 0.57630 0.55000 -0.37900
O 	O 	0.94900 0.67050 0.88260 -0.45600
O 	O 	0.07620 0.71380 0.86560 -0.41100
H 	H 	0.02630 0.52930 0.80630 0.42500
N 	N 	0.78130 0.45540 0.26470 -0.18700
N 	N 	0.23870 0.77940 0.16690 -0.19700
C 	C 	0.81930 0.46860 0.36480 0.04000
H 	H 	0.87790 0.44300 0.41160 0.03000
C 	C 	0.69800 0.49320 0.19720 -0.03500
H 	H 	0.67050 0.48440 0.12700 0.07500
C 	C 	0.65250 0.54470 0.22960 0.13600
C 	C 	0.69060 0.55960 0.33340 -0.08000
H 	H 	0.66040 0.59520 0.35550 0.10600
C 	C 	0.77540 0.51920 0.40240 -0.04300
C 	C 	0.82570 0.53060 0.51830 0.33200
C 	C 	0.17610 0.76560 0.06640 0.06300
H 	H 	0.18570 0.79220 0.01840 0.02900
C 	C 	0.22450 0.74050 0.23510 -0.03100
H 	H 	0.26770 0.74950 0.30500 0.07100
C 	C 	0.14830 0.68790 0.20530 0.13200
C 	C 	0.08200 0.67440 0.10270 -0.06100
H 	H 	0.02850 0.64030 0.08170 0.11500
C 	C 	0.09760 0.71340 0.03150 -0.07300
C 	C 	0.03520 0.69780 0.91660 0.43500
Cd	Cd	0.36611 0.13271 0.71430 1.23800
Br	Br	0.03698 0.09895 0.12981 -0.18300
Br	Br	0.63792 0.13254 0.30796 -0.22900
O 	O 	0.40470 0.99280 0.57170 -0.30300
O 	O 	0.28440 0.07630 0.55000 -0.37300
O 	O 	0.44900 0.17050 0.88260 -0.39700
O 	O 	0.57620 0.21380 0.86560 -0.40700
H 	H 	0.52630 0.02930 0.80630 0.45000
N 	N 	0.28130 0.95540 0.26470 -0.18200
N 	N 	0.73870 0.27940 0.16690 -0.19700
C 	C 	0.31930 0.96860 0.36480 0.03800
H 	H 	0.37790 0.94300 0.41160 0.04100
C 	C 	0.19800 0.99320 0.19720 -0.03500
H 	H 	0.17050 0.98440 0.12700 0.08100
C 	C 	0.15250 0.04470 0.22960 0.14100
C 	C 	0.19060 0.05960 0.33340 -0.08100
H 	H 	0.16040 0.09520 0.35550 0.11500
C 	C 	0.27540 0.01920 0.40240 -0.03400
C 	C 	0.32570 0.03060 0.51830 0.33000
C 	C 	0.67610 0.26560 0.06640 0.05000
H 	H 	0.68570 0.29220 0.01840 0.03000
C 	C 	0.72450 0.24050 0.23510 -0.03600
H 	H 	0.76770 0.24950 0.30500 0.06900
C 	C 	0.64830 0.18790 0.20530 0.13200
C 	C 	0.58200 0.17440 0.10270 -0.07500
H 	H 	0.52850 0.14030 0.08170 0.10200
C 	C 	0.59760 0.21340 0.03150 -0.05900
C 	C 	0.53520 0.19780 0.91660 0.36300
Cd	Cd	0.13389 0.63271 0.78570 1.23900
Br	Br	0.46302 0.59895 0.37019 -0.22800
Br	Br	0.86208 0.63254 0.19204 -0.25200
O 	O 	0.09530 0.49280 0.92830 -0.28600
O 	O 	0.21560 0.57630 0.95000 -0.37500
O 	O 	0.05100 0.67050 0.61740 -0.34100
O 	O 	0.92380 0.71380 0.63440 -0.40600
H 	H 	0.97370 0.52930 0.69370 0.37500
N 	N 	0.21870 0.45540 0.23530 -0.18200
N 	N 	0.76130 0.77940 0.33310 -0.19400
C 	C 	0.18070 0.46860 0.13520 0.04000
H 	H 	0.12210 0.44300 0.08840 0.04800
C 	C 	0.30200 0.49320 0.30280 -0.03500
H 	H 	0.32950 0.48440 0.37300 0.07600
C 	C 	0.34750 0.54470 0.27040 0.13700
C 	C 	0.30940 0.55960 0.16660 -0.08100
H 	H 	0.33960 0.59520 0.14450 0.10500
C 	C 	0.22460 0.51920 0.09760 -0.04000
C 	C 	0.17430 0.53060 0.98170 0.33200
C 	C 	0.82390 0.76560 0.43360 0.03700
H 	H 	0.81430 0.79220 0.48160 0.03300
C 	C 	0.77550 0.74050 0.26490 -0.04100
H 	H 	0.73230 0.74950 0.19500 0.07100
C 	C 	0.85170 0.68790 0.29470 0.13300
C 	C 	0.91800 0.67440 0.39730 -0.09000
H 	H 	0.97150 0.64030 0.41830 0.08800
C 	C 	0.90240 0.71340 0.46850 -0.04200
C 	C 	0.96480 0.69780 0.58340 0.28600
Cd	Cd	0.63389 0.13271 0.78570 1.23700
Br	Br	0.96302 0.09895 0.37019 -0.27600
Br	Br	0.36208 0.13254 0.19204 -0.22400
O 	O 	0.59530 0.99280 0.92830 -0.30000
O 	O 	0.71560 0.07630 0.95000 -0.37900
O 	O 	0.55100 0.17050 0.61740 -0.39800
O 	O 	0.42380 0.21380 0.63440 -0.40700
H 	H 	0.47370 0.02930 0.69370 0.45100
N 	N 	0.71870 0.95540 0.23530 -0.18400
N 	N 	0.26130 0.27940 0.33310 -0.19400
C 	C 	0.68070 0.96860 0.13520 0.03200
H 	H 	0.62210 0.94300 0.08840 0.03900
C 	C 	0.80200 0.99320 0.30280 -0.04300
H 	H 	0.82950 0.98440 0.37300 0.07100
C 	C 	0.84750 0.04470 0.27040 0.13900
C 	C 	0.80940 0.05960 0.16660 -0.08700
H 	H 	0.83960 0.09520 0.14450 0.09900
C 	C 	0.72460 0.01920 0.09760 -0.03900
C 	C 	0.67430 0.03060 0.98170 0.32900
C 	C 	0.32390 0.26560 0.43360 0.04900
H 	H 	0.31430 0.29220 0.48160 0.03200
C 	C 	0.27550 0.24050 0.26490 -0.03600
H 	H 	0.23230 0.24950 0.19500 0.07400
C 	C 	0.35170 0.18790 0.29470 0.13400
C 	C 	0.41800 0.17440 0.39730 -0.07700
H 	H 	0.47150 0.14030 0.41830 0.10300
C 	C 	0.40240 0.21340 0.46850 -0.05400
C 	C 	0.46480 0.19780 0.58340 0.35900
Cd	Cd	0.13389 0.36729 0.28570 1.23900
Br	Br	0.46302 0.40105 0.87019 -0.22500
Br	Br	0.86208 0.36746 0.69204 -0.24900
O 	O 	0.09530 0.50720 0.42830 -0.28500
O 	O 	0.21560 0.42370 0.45000 -0.37500
O 	O 	0.05100 0.32950 0.11740 -0.34000
O 	O 	0.92380 0.28620 0.13440 -0.40500
H 	H 	0.97370 0.47070 0.19370 0.37300
N 	N 	0.21870 0.54460 0.73530 -0.18100
N 	N 	0.76130 0.22060 0.83310 -0.19300
C 	C 	0.18070 0.53140 0.63520 0.03700
H 	H 	0.12210 0.55700 0.58840 0.05000
C 	C 	0.30200 0.50680 0.80280 -0.03500
H 	H 	0.32950 0.51560 0.87300 0.07700
C 	C 	0.34750 0.45530 0.77040 0.13800
C 	C 	0.30940 0.44040 0.66660 -0.08500
H 	H 	0.33960 0.40480 0.64450 0.10700
C 	C 	0.22460 0.48080 0.59760 -0.03300
C 	C 	0.17430 0.46940 0.48170 0.32600
C 	C 	0.82390 0.23440 0.93360 0.03300
H 	H 	0.81430 0.20780 0.98160 0.03600
C 	C 	0.77550 0.25950 0.76490 -0.04200
H 	H 	0.73230 0.25050 0.69500 0.07200
C 	C 	0.85170 0.31210 0.79470 0.13500
C 	C 	0.91800 0.32560 0.89730 -0.09400
H 	H 	0.97150 0.35970 0.91830 0.09200
C 	C 	0.90240 0.28660 0.96850 -0.03300
C 	C 	0.96480 0.30220 0.08340 0.27900
Cd	Cd	0.63389 0.86729 0.28570 1.23700
Br	Br	0.96302 0.90105 0.87019 -0.27100
Br	Br	0.36208 0.86746 0.69204 -0.22300
O 	O 	0.59530 0.00720 0.42830 -0.30400
O 	O 	0.71560 0.92370 0.45000 -0.38100
O 	O 	0.55100 0.82950 0.11740 -0.39800
O 	O 	0.42380 0.78620 0.13440 -0.40600
H 	H 	0.47370 0.97070 0.19370 0.45000
N 	N 	0.71870 0.04460 0.73530 -0.18400
N 	N 	0.26130 0.72060 0.83310 -0.19200
C 	C 	0.68070 0.03140 0.63520 0.03700
H 	H 	0.62210 0.05700 0.58840 0.04000
C 	C 	0.80200 0.00680 0.80280 -0.04000
H 	H 	0.82950 0.01560 0.87300 0.07100
C 	C 	0.84750 0.95530 0.77040 0.13800
C 	C 	0.80940 0.94040 0.66660 -0.08600
H 	H 	0.83960 0.90480 0.64450 0.10000
C 	C 	0.72460 0.98080 0.59760 -0.04000
C 	C 	0.67430 0.96940 0.48170 0.32900
C 	C 	0.32390 0.73440 0.93360 0.04500
H 	H 	0.31430 0.70780 0.98160 0.03600
C 	C 	0.27550 0.75950 0.76490 -0.03700
H 	H 	0.23230 0.75050 0.69500 0.07500
C 	C 	0.35170 0.81210 0.79470 0.13600
C 	C 	0.41800 0.82560 0.89730 -0.08200
H 	H 	0.47150 0.85970 0.91830 0.10700
C 	C 	0.40240 0.78660 0.96850 -0.04300
C 	C 	0.46480 0.80220 0.08340 0.35000
Cd	Cd	0.86611 0.36729 0.21430 1.23000
Br	Br	0.53698 0.40105 0.62981 -0.22800
Br	Br	0.13792 0.36746 0.80796 -0.20200
O 	O 	0.90470 0.50720 0.07170 -0.31500
O 	O 	0.78440 0.42370 0.05000 -0.37900
O 	O 	0.94900 0.32950 0.38260 -0.45800
O 	O 	0.07620 0.28620 0.36560 -0.41100
H 	H 	0.02630 0.47070 0.30630 0.42400
N 	N 	0.78130 0.54460 0.76470 -0.18500
N 	N 	0.23870 0.22060 0.66690 -0.19600
C 	C 	0.81930 0.53140 0.86480 0.03700
H 	H 	0.87790 0.55700 0.91160 0.03400
C 	C 	0.69800 0.50680 0.69720 -0.03600
H 	H 	0.67050 0.51560 0.62700 0.07600
C 	C 	0.65250 0.45530 0.72960 0.13800
C 	C 	0.69060 0.44040 0.83340 -0.08400
H 	H 	0.66040 0.40480 0.85550 0.10900
C 	C 	0.77540 0.48080 0.90240 -0.03400
C 	C 	0.82570 0.46940 0.01830 0.32500
C 	C 	0.17610 0.23440 0.56640 0.06000
H 	H 	0.18570 0.20780 0.51840 0.03200
C 	C 	0.22450 0.25950 0.73510 -0.03200
H 	H 	0.26770 0.25050 0.80500 0.07200
C 	C 	0.14830 0.31210 0.70530 0.13400
C 	C 	0.08200 0.32560 0.60270 -0.06400
H 	H 	0.02850 0.35970 0.58170 0.11800
C 	C 	0.09760 0.28660 0.53150 -0.06500
C 	C 	0.03520 0.30220 0.41660 0.43100
Cd	Cd	0.36611 0.86729 0.21430 1.23800
Br	Br	0.03698 0.90105 0.62981 -0.18200
Br	Br	0.63792 0.86746 0.80796 -0.22700
O 	O 	0.40470 0.00720 0.07170 -0.29900
O 	O 	0.28440 0.92370 0.05000 -0.37200
O 	O 	0.44900 0.82950 0.38260 -0.39700
O 	O 	0.57620 0.78620 0.36560 -0.40600
H 	H 	0.52630 0.97070 0.30630 0.45000
N 	N 	0.28130 0.04460 0.76470 -0.18000
N 	N 	0.73870 0.72060 0.66690 -0.19600
C 	C 	0.31930 0.03140 0.86480 0.02900
H 	H 	0.37790 0.05700 0.91160 0.04500
C 	C 	0.19800 0.00680 0.69720 -0.03900
H 	H 	0.17050 0.01560 0.62700 0.08400
C 	C 	0.15250 0.95530 0.72960 0.14500
C 	C 	0.19060 0.94040 0.83340 -0.08900
H 	H 	0.16040 0.90480 0.85550 0.11900
C 	C 	0.27540 0.98080 0.90240 -0.01800
C 	C 	0.32570 0.96940 0.01830 0.31600
C 	C 	0.67610 0.73440 0.56640 0.04800
H 	H 	0.68570 0.70780 0.51840 0.03300
C 	C 	0.72450 0.75950 0.73510 -0.03700
H 	H 	0.76770 0.75050 0.80500 0.07000
C 	C 	0.64830 0.81210 0.70530 0.13400
C 	C 	0.58200 0.82560 0.60270 -0.07700
H 	H 	0.52850 0.85970 0.58170 0.10400
C 	C 	0.59760 0.78660 0.53150 -0.05300
C 	C 	0.53520 0.80220 0.41660 0.35800
O 	O 	0.00000 0.55420 0.75000 -0.94100
O 	O 	0.50000 0.05420 0.75000 -1.05200
O 	O 	0.00000 0.44580 0.25000 -0.93800
O 	O 	0.50000 0.94580 0.25000 -1.05200
