data_crystal

_cell_length_a 14.60800
_cell_length_b 18.04100
_cell_length_c 24.80300
_cell_angle_alpha 90.00000
_cell_angle_beta  90.00500
_cell_angle_gamma 90.00000

_symmetry_space_group_name_	'P 1'
_symmetry_space_group_name_H-M	'P 1'

loop_
_symmetry_equiv_pos_as_xyz
  x,y,z

loop_
_atom_site_label
_atom_site_type_symbol
_atom_site_fract_x
_atom_site_fract_y
_atom_site_fract_z
_atom_site_charge
Zn	Zn	0.53967 0.06459 0.85054 1.22200
Zn	Zn	0.50621 0.25634 0.84907 1.24500
Zn	Zn	0.46857 0.44992 0.85011 1.22200
Zn	Zn	0.03967 0.43541 0.35054 1.22200
Zn	Zn	0.00621 0.24366 0.34907 1.24500
Zn	Zn	0.96857 0.05008 0.35011 1.22100
H 	H 	0.48600 0.94330 0.92490 0.00500
H 	H 	0.46720 0.81540 0.92690 0.07300
H 	H 	0.55600 0.81050 0.77110 0.07600
H 	H 	0.57180 0.93700 0.77450 -0.00700
H 	H 	0.52390 0.57130 0.92390 0.00600
H 	H 	0.54430 0.69840 0.92540 0.07400
H 	H 	0.44730 0.70640 0.77240 0.07500
H 	H 	0.42900 0.57860 0.77510 -0.00900
H 	H 	0.83280 0.09370 0.81860 0.03300
H 	H 	0.98290 0.13850 0.81460 0.05900
H 	H 	0.90020 0.33190 0.88240 0.06200
H 	H 	0.75010 0.28700 0.88630 0.03600
H 	H 	0.01930 0.37910 0.84810 0.06700
H 	H 	0.16730 0.42470 0.84510 0.02600
H 	H 	0.26560 0.21660 0.83250 0.03400
H 	H 	0.11760 0.16940 0.83980 0.06600
H 	H 	0.37500 0.02640 0.98770 0.03000
H 	H 	0.28600 0.02630 0.06550 0.05900
H 	H 	0.26160 0.25040 0.05630 0.06300
H 	H 	0.34600 0.24930 0.97580 0.03300
H 	H 	0.15660 0.03580 0.11000 0.06800
H 	H 	0.07840 0.03020 0.19200 0.03000
H 	H 	0.18080 0.23050 0.23250 0.03300
H 	H 	0.25240 0.23920 0.14890 0.06800
H 	H 	0.33580 0.04440 0.72980 0.03100
H 	H 	0.24050 0.04480 0.65500 0.06900
H 	H 	0.34600 0.24190 0.60890 0.06600
H 	H 	0.43780 0.24440 0.68620 0.03400
H 	H 	0.22310 0.02650 0.56940 0.07000
H 	H 	0.13120 0.02030 0.49290 0.02600
H 	H 	0.12190 0.24400 0.48640 0.03200
H 	H 	0.21660 0.25080 0.56160 0.06500
H 	H 	0.98600 0.55670 0.42490 0.00700
H 	H 	0.96720 0.68460 0.42690 0.07100
H 	H 	0.05600 0.68950 0.27110 0.07400
H 	H 	0.07180 0.56300 0.27450 -0.00700
H 	H 	0.02390 0.92870 0.42390 0.00500
H 	H 	0.04430 0.80160 0.42540 0.07500
H 	H 	0.94730 0.79360 0.27240 0.07700
H 	H 	0.92900 0.92140 0.27510 -0.00900
H 	H 	0.33280 0.40630 0.31860 0.03400
H 	H 	0.48290 0.36150 0.31460 0.06000
H 	H 	0.40020 0.16810 0.38240 0.06300
H 	H 	0.25010 0.21300 0.38630 0.03600
H 	H 	0.51930 0.12090 0.34810 0.06600
H 	H 	0.66730 0.07530 0.34510 0.02600
H 	H 	0.76560 0.28340 0.33250 0.03400
H 	H 	0.61760 0.33060 0.33980 0.06500
H 	H 	0.87500 0.47360 0.48770 0.03000
H 	H 	0.78600 0.47370 0.56550 0.05800
H 	H 	0.76160 0.24960 0.55630 0.06300
H 	H 	0.84600 0.25070 0.47580 0.03300
H 	H 	0.65660 0.46420 0.61000 0.06800
H 	H 	0.57840 0.46980 0.69200 0.02900
H 	H 	0.68080 0.26950 0.73250 0.03200
H 	H 	0.75240 0.26080 0.64890 0.06700
H 	H 	0.83580 0.45560 0.22980 0.03100
H 	H 	0.74050 0.45520 0.15500 0.06900
H 	H 	0.84600 0.25810 0.10890 0.06500
H 	H 	0.93780 0.25560 0.18620 0.03300
H 	H 	0.72310 0.47350 0.06940 0.07000
H 	H 	0.63120 0.47970 0.99290 0.02500
H 	H 	0.62190 0.25600 0.98640 0.03100
H 	H 	0.71660 0.24920 0.06160 0.06500
C 	C 	0.50080 0.91530 0.89368 0.06600
C 	C 	0.48870 0.83920 0.89512 -0.11700
C 	C 	0.50890 0.79811 0.84899 0.04900
C 	C 	0.54120 0.83660 0.80322 -0.12400
C 	C 	0.55090 0.91160 0.80570 0.07800
C 	C 	0.50830 0.59930 0.89275 0.06500
C 	C 	0.52040 0.67500 0.89405 -0.12000
C 	C 	0.49730 0.71671 0.84910 0.05300
C 	C 	0.46320 0.67960 0.80404 -0.12500
C 	C 	0.45290 0.60330 0.80586 0.07400
C 	C 	0.68130 0.15740 0.85653 0.37100
C 	C 	0.77700 0.18610 0.85253 -0.11400
C 	C 	0.84630 0.14220 0.83131 0.03100
C 	C 	0.93580 0.16920 0.82866 -0.09500
C 	C 	0.95690 0.24078 0.84648 0.02900
C 	C 	0.88680 0.28380 0.86887 -0.09300
C 	C 	0.79730 0.25690 0.87150 0.03200
C 	C 	0.05260 0.26940 0.84285 0.04500
C 	C 	0.06930 0.34560 0.84530 -0.10800
C 	C 	0.15720 0.37270 0.84371 0.04800
C 	C 	0.23120 0.32500 0.84014 -0.12300
C 	C 	0.21540 0.24960 0.83685 0.04400
C 	C 	0.12720 0.22150 0.83984 -0.10600
C 	C 	0.32740 0.35360 0.83878 0.37900
C 	C 	0.42590 0.13730 0.92454 0.37900
C 	C 	0.36840 0.13840 0.97450 -0.11500
C 	C 	0.35110 0.07160 0.00136 0.03400
C 	C 	0.29910 0.07180 0.04784 -0.09900
C 	C 	0.26540 0.13840 0.06937 0.03700
C 	C 	0.28380 0.20480 0.04223 -0.09700
C 	C 	0.33470 0.20430 0.99450 0.03400
C 	C 	0.21390 0.13700 0.12128 0.04400
C 	C 	0.16110 0.07590 0.13469 -0.10500
C 	C 	0.11470 0.07230 0.18354 0.04400
C 	C 	0.12170 0.13030 0.21959 -0.12000
C 	C 	0.17470 0.19140 0.20710 0.04400
C 	C 	0.21870 0.19590 0.15789 -0.10400
C 	C 	0.07630 0.12430 0.27368 0.38200
C 	C 	0.45700 0.14180 0.76454 0.39200
C 	C 	0.39760 0.14340 0.71574 -0.12300
C 	C 	0.33790 0.08500 0.70543 0.04400
C 	C 	0.28180 0.08470 0.66063 -0.10800
C 	C 	0.28580 0.14270 0.62368 0.04300
C 	C 	0.34380 0.20180 0.63364 -0.10200
C 	C 	0.39920 0.20310 0.67951 0.04200
C 	C 	0.22810 0.13940 0.57410 0.04500
C 	C 	0.20260 0.07090 0.55272 -0.11600
C 	C 	0.14740 0.06730 0.50726 0.04900
C 	C 	0.11580 0.13050 0.48278 -0.12900
C 	C 	0.14240 0.19980 0.50335 0.04000
C 	C 	0.19830 0.20370 0.54823 -0.10400
C 	C 	0.05310 0.12710 0.43539 0.39400
C 	C 	0.00080 0.58470 0.39368 0.06100
C 	C 	0.98870 0.66080 0.39512 -0.11000
C 	C 	0.00890 0.70189 0.34899 0.04300
C 	C 	0.04120 0.66340 0.30322 -0.12100
C 	C 	0.05090 0.58840 0.30570 0.07600
C 	C 	0.00830 0.90070 0.39275 0.06400
C 	C 	0.02040 0.82500 0.39405 -0.12500
C 	C 	0.99730 0.78329 0.34910 0.05900
C 	C 	0.96320 0.82040 0.30404 -0.12700
C 	C 	0.95290 0.89670 0.30586 0.07600
C 	C 	0.18130 0.34260 0.35653 0.37100
C 	C 	0.27700 0.31390 0.35253 -0.11400
C 	C 	0.34630 0.35780 0.33131 0.03200
C 	C 	0.43580 0.33080 0.32866 -0.09600
C 	C 	0.45690 0.25922 0.34648 0.03200
C 	C 	0.38680 0.21620 0.36887 -0.09400
C 	C 	0.29730 0.24310 0.37150 0.03300
C 	C 	0.55260 0.23060 0.34285 0.04200
C 	C 	0.56930 0.15440 0.34530 -0.10700
C 	C 	0.65720 0.12730 0.34371 0.04600
C 	C 	0.73120 0.17500 0.34014 -0.12300
C 	C 	0.71540 0.25040 0.33685 0.04300
C 	C 	0.62720 0.27850 0.33984 -0.10500
C 	C 	0.82740 0.14640 0.33878 0.37900
C 	C 	0.92590 0.36270 0.42454 0.37900
C 	C 	0.86840 0.36160 0.47450 -0.11500
C 	C 	0.85110 0.42840 0.50136 0.03300
C 	C 	0.79910 0.42820 0.54784 -0.09900
C 	C 	0.76540 0.36160 0.56937 0.03700
C 	C 	0.78380 0.29520 0.54223 -0.09700
C 	C 	0.83470 0.29570 0.49450 0.03400
C 	C 	0.71390 0.36300 0.62128 0.04400
C 	C 	0.66110 0.42410 0.63469 -0.10600
C 	C 	0.61470 0.42770 0.68354 0.04400
C 	C 	0.62170 0.36970 0.71959 -0.12000
C 	C 	0.67470 0.30860 0.70710 0.04400
C 	C 	0.71870 0.30410 0.65789 -0.10400
C 	C 	0.57630 0.37570 0.77368 0.38200
C 	C 	0.95700 0.35820 0.26454 0.39100
C 	C 	0.89760 0.35660 0.21574 -0.12300
C 	C 	0.83790 0.41500 0.20543 0.04400
C 	C 	0.78180 0.41530 0.16063 -0.10700
C 	C 	0.78580 0.35730 0.12368 0.04200
C 	C 	0.84380 0.29820 0.13364 -0.10200
C 	C 	0.89920 0.29690 0.17951 0.04100
C 	C 	0.72810 0.36060 0.07410 0.04600
C 	C 	0.70260 0.42910 0.05272 -0.11700
C 	C 	0.64740 0.43270 0.00726 0.04900
C 	C 	0.61580 0.36950 0.98278 -0.13000
C 	C 	0.64240 0.30020 0.00335 0.04100
C 	C 	0.69830 0.29630 0.04823 -0.10400
C 	C 	0.55310 0.37290 0.93539 0.39500
N 	N 	0.53230 0.95134 0.85027 -0.25300
N 	N 	0.47530 0.56303 0.84928 -0.25400
N 	N 	0.03230 0.54866 0.35027 -0.25200
N 	N 	0.97530 0.93697 0.34928 -0.25300
O 	O 	0.66771 0.09123 0.84122 -0.47400
O 	O 	0.62057 0.19775 0.87675 -0.46400
O 	O 	0.34044 0.42097 0.85307 -0.47800
O 	O 	0.38974 0.31251 0.82162 -0.45600
O 	O 	0.47880 0.08158 0.91895 -0.47600
O 	O 	0.41635 0.18841 0.89063 -0.44800
O 	O 	0.02510 0.06813 0.28062 -0.47400
O 	O 	0.09352 0.17162 0.30943 -0.44800
O 	O 	0.46170 0.08047 0.78839 -0.48600
O 	O 	0.50143 0.19894 0.77677 -0.44900
O 	O 	0.04470 0.06394 0.41355 -0.48200
O 	O 	0.01260 0.18438 0.42067 -0.45400
O 	O 	0.16771 0.40877 0.34122 -0.47400
O 	O 	0.12057 0.30225 0.37675 -0.46400
O 	O 	0.84044 0.07903 0.35307 -0.47900
O 	O 	0.88974 0.18749 0.32162 -0.45700
O 	O 	0.97880 0.41842 0.41895 -0.47600
O 	O 	0.91635 0.31159 0.39063 -0.44800
O 	O 	0.52510 0.43187 0.78062 -0.47500
O 	O 	0.59352 0.32838 0.80943 -0.44800
O 	O 	0.96170 0.41953 0.28839 -0.48600
O 	O 	0.00143 0.30106 0.27677 -0.44700
O 	O 	0.54470 0.43606 0.91355 -0.48400
O 	O 	0.51260 0.31562 0.92067 -0.45500
Zn	Zn	0.96033 0.56459 0.64946 1.22100
Zn	Zn	0.99379 0.75634 0.65093 1.24400
Zn	Zn	0.03143 0.94992 0.64989 1.22000
Zn	Zn	0.46033 0.93541 0.14946 1.22100
Zn	Zn	0.49379 0.74366 0.15093 1.24400
Zn	Zn	0.53143 0.55008 0.14989 1.22100
H 	H 	0.01400 0.44330 0.57510 0.00700
H 	H 	0.03280 0.31540 0.57310 0.07100
H 	H 	0.94400 0.31050 0.72890 0.07400
H 	H 	0.92820 0.43700 0.72550 -0.00700
H 	H 	0.97610 0.07130 0.57610 0.00500
H 	H 	0.95570 0.19840 0.57460 0.07500
H 	H 	0.05270 0.20640 0.72760 0.07700
H 	H 	0.07100 0.07860 0.72490 -0.00900
H 	H 	0.66720 0.59370 0.68140 0.03400
H 	H 	0.51710 0.63850 0.68540 0.06000
H 	H 	0.59980 0.83190 0.61760 0.06300
H 	H 	0.74990 0.78700 0.61370 0.03600
H 	H 	0.48070 0.87910 0.65190 0.06600
H 	H 	0.33270 0.92470 0.65490 0.02600
H 	H 	0.23440 0.71660 0.66750 0.03400
H 	H 	0.38240 0.66940 0.66020 0.06500
H 	H 	0.12500 0.52640 0.51230 0.03000
H 	H 	0.21400 0.52630 0.43450 0.05800
H 	H 	0.23840 0.75040 0.44370 0.06300
H 	H 	0.15400 0.74930 0.52420 0.03300
H 	H 	0.34340 0.53580 0.39000 0.06800
H 	H 	0.42160 0.53020 0.30800 0.02900
H 	H 	0.31920 0.73050 0.26750 0.03200
H 	H 	0.24760 0.73920 0.35110 0.06700
H 	H 	0.16420 0.54440 0.77020 0.03100
H 	H 	0.25950 0.54480 0.84500 0.06900
H 	H 	0.15400 0.74190 0.89110 0.06500
H 	H 	0.06220 0.74440 0.81380 0.03300
H 	H 	0.27690 0.52650 0.93060 0.07000
H 	H 	0.36880 0.52030 0.00710 0.02500
H 	H 	0.37810 0.74400 0.01360 0.03100
H 	H 	0.28340 0.75080 0.93840 0.06500
H 	H 	0.51400 0.05670 0.07510 0.00500
H 	H 	0.53280 0.18460 0.07310 0.07300
H 	H 	0.44400 0.18950 0.22890 0.07600
H 	H 	0.42820 0.06300 0.22550 -0.00700
H 	H 	0.47610 0.42870 0.07610 0.00600
H 	H 	0.45570 0.30160 0.07460 0.07400
H 	H 	0.55270 0.29360 0.22760 0.07500
H 	H 	0.57100 0.42140 0.22490 -0.00900
H 	H 	0.16720 0.90630 0.18140 0.03300
H 	H 	0.01710 0.86150 0.18540 0.05900
H 	H 	0.09980 0.66810 0.11760 0.06200
H 	H 	0.24990 0.71300 0.11370 0.03600
H 	H 	0.98070 0.62090 0.15190 0.06700
H 	H 	0.83270 0.57530 0.15490 0.02600
H 	H 	0.73440 0.78340 0.16750 0.03400
H 	H 	0.88240 0.83060 0.16020 0.06600
H 	H 	0.62500 0.97360 0.01230 0.03000
H 	H 	0.71400 0.97370 0.93450 0.05900
H 	H 	0.73840 0.74960 0.94370 0.06300
H 	H 	0.65400 0.75070 0.02420 0.03300
H 	H 	0.84340 0.96420 0.89000 0.06800
H 	H 	0.92160 0.96980 0.80800 0.03000
H 	H 	0.81920 0.76950 0.76750 0.03300
H 	H 	0.74760 0.76080 0.85110 0.06800
H 	H 	0.66420 0.95560 0.27020 0.03100
H 	H 	0.75950 0.95520 0.34500 0.06900
H 	H 	0.65400 0.75810 0.39110 0.06600
H 	H 	0.56220 0.75560 0.31380 0.03400
H 	H 	0.77690 0.97350 0.43060 0.07000
H 	H 	0.86880 0.97970 0.50710 0.02600
H 	H 	0.87810 0.75600 0.51360 0.03200
H 	H 	0.78340 0.74920 0.43840 0.06500
C 	C 	0.99920 0.41530 0.60632 0.06100
C 	C 	0.01130 0.33920 0.60488 -0.11000
C 	C 	0.99110 0.29811 0.65101 0.04300
C 	C 	0.95880 0.33660 0.69678 -0.12100
C 	C 	0.94910 0.41160 0.69430 0.07600
C 	C 	0.99170 0.09930 0.60725 0.06400
C 	C 	0.97960 0.17500 0.60595 -0.12500
C 	C 	0.00270 0.21671 0.65090 0.05900
C 	C 	0.03680 0.17960 0.69596 -0.12700
C 	C 	0.04710 0.10330 0.69414 0.07600
C 	C 	0.81870 0.65740 0.64347 0.37100
C 	C 	0.72300 0.68610 0.64747 -0.11400
C 	C 	0.65370 0.64220 0.66869 0.03200
C 	C 	0.56420 0.66920 0.67134 -0.09600
C 	C 	0.54310 0.74078 0.65352 0.03200
C 	C 	0.61320 0.78380 0.63113 -0.09400
C 	C 	0.70270 0.75690 0.62850 0.03300
C 	C 	0.44740 0.76940 0.65715 0.04200
C 	C 	0.43070 0.84560 0.65470 -0.10700
C 	C 	0.34280 0.87270 0.65629 0.04600
C 	C 	0.26880 0.82500 0.65986 -0.12300
C 	C 	0.28460 0.74960 0.66315 0.04300
C 	C 	0.37280 0.72150 0.66016 -0.10500
C 	C 	0.17260 0.85360 0.66122 0.37900
C 	C 	0.07410 0.63730 0.57546 0.37900
C 	C 	0.13160 0.63840 0.52550 -0.11500
C 	C 	0.14890 0.57160 0.49864 0.03300
C 	C 	0.20090 0.57180 0.45216 -0.09900
C 	C 	0.23460 0.63840 0.43063 0.03700
C 	C 	0.21620 0.70480 0.45777 -0.09700
C 	C 	0.16530 0.70430 0.50550 0.03400
C 	C 	0.28610 0.63700 0.37872 0.04400
C 	C 	0.33890 0.57590 0.36531 -0.10600
C 	C 	0.38530 0.57230 0.31646 0.04400
C 	C 	0.37830 0.63030 0.28041 -0.12000
C 	C 	0.32530 0.69140 0.29290 0.04400
C 	C 	0.28130 0.69590 0.34211 -0.10400
C 	C 	0.42370 0.62430 0.22632 0.38200
C 	C 	0.04300 0.64180 0.73546 0.39100
C 	C 	0.10240 0.64340 0.78426 -0.12300
C 	C 	0.16210 0.58500 0.79457 0.04400
C 	C 	0.21820 0.58470 0.83937 -0.10700
C 	C 	0.21420 0.64270 0.87632 0.04200
C 	C 	0.15620 0.70180 0.86636 -0.10200
C 	C 	0.10080 0.70310 0.82049 0.04100
C 	C 	0.27190 0.63940 0.92590 0.04600
C 	C 	0.29740 0.57090 0.94728 -0.11700
C 	C 	0.35260 0.56730 0.99274 0.04900
C 	C 	0.38420 0.63050 0.01722 -0.13000
C 	C 	0.35760 0.69980 0.99665 0.04100
C 	C 	0.30170 0.70370 0.95177 -0.10400
C 	C 	0.44690 0.62710 0.06461 0.39500
C 	C 	0.49920 0.08470 0.10632 0.06600
C 	C 	0.51130 0.16080 0.10488 -0.11700
C 	C 	0.49110 0.20189 0.15101 0.04900
C 	C 	0.45880 0.16340 0.19678 -0.12400
C 	C 	0.44910 0.08840 0.19430 0.07800
C 	C 	0.49170 0.40070 0.10725 0.06500
C 	C 	0.47960 0.32500 0.10595 -0.12000
C 	C 	0.50270 0.28329 0.15090 0.05300
C 	C 	0.53680 0.32040 0.19596 -0.12500
C 	C 	0.54710 0.39670 0.19414 0.07400
C 	C 	0.31870 0.84260 0.14347 0.37100
C 	C 	0.22300 0.81390 0.14747 -0.11400
C 	C 	0.15370 0.85780 0.16869 0.03100
C 	C 	0.06420 0.83080 0.17134 -0.09500
C 	C 	0.04310 0.75922 0.15352 0.02900
C 	C 	0.11320 0.71620 0.13113 -0.09300
C 	C 	0.20270 0.74310 0.12850 0.03200
C 	C 	0.94740 0.73060 0.15715 0.04500
C 	C 	0.93070 0.65440 0.15470 -0.10800
C 	C 	0.84280 0.62730 0.15629 0.04800
C 	C 	0.76880 0.67500 0.15986 -0.12300
C 	C 	0.78460 0.75040 0.16315 0.04400
C 	C 	0.87280 0.77850 0.16016 -0.10600
C 	C 	0.67260 0.64640 0.16122 0.37900
C 	C 	0.57410 0.86270 0.07546 0.37900
C 	C 	0.63160 0.86160 0.02550 -0.11500
C 	C 	0.64890 0.92840 0.99864 0.03400
C 	C 	0.70090 0.92820 0.95216 -0.09900
C 	C 	0.73460 0.86160 0.93063 0.03700
C 	C 	0.71620 0.79520 0.95777 -0.09700
C 	C 	0.66530 0.79570 0.00550 0.03400
C 	C 	0.78610 0.86300 0.87872 0.04400
C 	C 	0.83890 0.92410 0.86531 -0.10500
C 	C 	0.88530 0.92770 0.81646 0.04400
C 	C 	0.87830 0.86970 0.78041 -0.12000
C 	C 	0.82530 0.80860 0.79290 0.04400
C 	C 	0.78130 0.80410 0.84211 -0.10400
C 	C 	0.92370 0.87570 0.72632 0.38200
C 	C 	0.54300 0.85820 0.23546 0.39200
C 	C 	0.60240 0.85660 0.28426 -0.12300
C 	C 	0.66210 0.91500 0.29457 0.04400
C 	C 	0.71820 0.91530 0.33937 -0.10800
C 	C 	0.71420 0.85730 0.37632 0.04300
C 	C 	0.65620 0.79820 0.36636 -0.10200
C 	C 	0.60080 0.79690 0.32049 0.04200
C 	C 	0.77190 0.86060 0.42590 0.04500
C 	C 	0.79740 0.92910 0.44728 -0.11600
C 	C 	0.85260 0.93270 0.49274 0.04900
C 	C 	0.88420 0.86950 0.51722 -0.12900
C 	C 	0.85760 0.80020 0.49665 0.04000
C 	C 	0.80170 0.79630 0.45177 -0.10400
C 	C 	0.94690 0.87290 0.56461 0.39400
N 	N 	0.96770 0.45134 0.64973 -0.25200
N 	N 	0.02470 0.06303 0.65072 -0.25300
N 	N 	0.46770 0.04866 0.14973 -0.25300
N 	N 	0.52470 0.43697 0.15072 -0.25400
O 	O 	0.83229 0.59123 0.65878 -0.47400
O 	O 	0.87943 0.69775 0.62325 -0.46400
O 	O 	0.15956 0.92097 0.64693 -0.47900
O 	O 	0.11026 0.81251 0.67838 -0.45700
O 	O 	0.02120 0.58158 0.58105 -0.47600
O 	O 	0.08365 0.68841 0.60937 -0.44800
O 	O 	0.47490 0.56813 0.21938 -0.47500
O 	O 	0.40648 0.67162 0.19057 -0.44800
O 	O 	0.03830 0.58047 0.71161 -0.48600
O 	O 	0.99857 0.69894 0.72323 -0.44700
O 	O 	0.45530 0.56394 0.08645 -0.48400
O 	O 	0.48740 0.68438 0.07933 -0.45500
O 	O 	0.33229 0.90877 0.15878 -0.47400
O 	O 	0.37943 0.80225 0.12325 -0.46400
O 	O 	0.65956 0.57903 0.14693 -0.47800
O 	O 	0.61026 0.68749 0.17838 -0.45600
O 	O 	0.52120 0.91842 0.08105 -0.47600
O 	O 	0.58365 0.81159 0.10937 -0.44800
O 	O 	0.97490 0.93187 0.71938 -0.47400
O 	O 	0.90648 0.82838 0.69057 -0.44800
O 	O 	0.53830 0.91953 0.21161 -0.48600
O 	O 	0.49857 0.80106 0.22323 -0.44900
O 	O 	0.95530 0.93606 0.58645 -0.48200
O 	O 	0.98740 0.81562 0.57933 -0.45400
