data_crystal

_cell_length_a 12.61800
_cell_length_b 12.92700
_cell_length_c 13.01200
_cell_angle_alpha 78.30000
_cell_angle_beta  62.22000
_cell_angle_gamma 62.07000

_symmetry_space_group_name_	'P 1'
_symmetry_space_group_name_H-M	'P 1'

loop_
_symmetry_equiv_pos_as_xyz
  x,y,z

loop_
_atom_site_label
_atom_site_type_symbol
_atom_site_fract_x
_atom_site_fract_y
_atom_site_fract_z
_atom_site_charge
Zn	Zn	0.65823 0.14125 0.39387 1.22500
H 	H 	0.11230 0.81670 0.87900 0.28100
H 	H 	0.98500 0.16610 0.55440 0.00100
H 	H 	0.83100 0.94360 0.59830 -0.00800
H 	H 	0.69500 0.11710 0.71260 0.06000
H 	H 	0.73420 0.22200 0.66980 0.06600
H 	H 	0.95320 0.98490 0.77780 0.04000
H 	H 	0.61680 0.93570 0.58610 0.03500
H 	H 	0.35720 0.96070 0.85830 0.14200
H 	H 	0.50680 0.87090 0.79680 0.12900
H 	H 	0.28580 0.07900 0.02030 0.14900
H 	H 	0.67180 0.88140 0.84200 0.16700
H 	H 	0.90550 0.77310 0.18310 0.18600
H 	H 	0.01070 0.78290 0.20800 0.14500
H 	H 	0.78630 0.75170 0.38080 0.01500
H 	H 	0.88390 0.76970 0.41000 0.02400
H 	H 	0.93430 0.37310 0.22100 -0.01900
H 	H 	0.02300 0.26590 0.27120 -0.04900
H 	H 	0.84500 0.32480 0.45970 0.22400
H 	H 	0.75700 0.42070 0.40140 0.22100
H 	H 	0.25220 0.44960 0.42710 -0.00200
H 	H 	0.27590 0.32270 0.40990 0.01200
H 	H 	0.38830 0.34890 0.20350 0.18100
H 	H 	0.38570 0.46000 0.23750 0.18700
C 	C 	0.99080 0.09870 0.53260 0.17600
C 	C 	0.88620 0.06730 0.59470 -0.11300
C 	C 	0.89940 0.96670 0.55870 0.16900
C 	C 	0.76440 0.14100 0.69330 -0.04100
C 	C 	0.75020 0.17950 0.95900 0.13900
C 	C 	0.88330 0.05040 0.82360 0.07100
C 	C 	0.44760 0.19240 0.64460 0.09900
C 	C 	0.55660 0.01000 0.61930 0.05700
C 	C 	0.44790 0.95110 0.82510 -0.27200
C 	C 	0.47470 0.97600 0.91670 0.34200
C 	C 	0.37270 0.04690 0.01180 -0.36400
C 	C 	0.60200 0.92940 0.90570 -0.31800
C 	C 	0.83720 0.93280 0.25240 0.50400
C 	C 	0.91730 0.80130 0.23890 -0.41800
C 	C 	0.87800 0.73760 0.35260 0.14300
C 	C 	0.92210 0.54080 0.31290 0.28700
C 	C 	0.07320 0.56850 0.35810 0.25800
C 	C 	0.10820 0.37130 0.33200 0.26100
C 	C 	0.95250 0.34490 0.28860 0.27600
C 	C 	0.83000 0.34330 0.39020 -0.54600
C 	C 	0.79200 0.25510 0.37360 0.51300
C 	C 	0.26420 0.39830 0.37370 0.16600
C 	C 	0.38780 0.38350 0.26340 -0.47000
C 	C 	0.51470 0.30710 0.27810 0.48200
N 	N 	0.96210 0.61060 0.34080 -0.19300
N 	N 	0.14450 0.44710 0.35400 -0.21000
N 	N 	0.99640 0.42120 0.31360 -0.20700
N 	N 	0.54630 0.10880 0.56390 -0.23900
N 	N 	0.39720 0.14820 0.74660 -0.08300
N 	N 	0.46930 0.03180 0.72820 -0.05800
N 	N 	0.86360 0.07790 0.92610 -0.22500
N 	N 	0.70100 0.21360 0.88340 -0.09000
N 	N 	0.78580 0.13240 0.79790 -0.08200
O 	O 	0.68150 0.25990 0.45100 -0.47900
O 	O 	0.85800 0.18440 0.29700 -0.41200
O 	O 	0.51380 0.22710 0.34770 -0.50300
O 	O 	0.61670 0.31850 0.21140 -0.35100
O 	O 	0.84890 0.99450 0.16510 -0.47900
O 	O 	0.75920 0.97320 0.35410 -0.48300
O 	O 	0.82420 0.58290 0.29450 -0.25300
O 	O 	0.10990 0.63200 0.37610 -0.26600
O 	O 	0.17220 0.26590 0.33130 -0.25600
O 	O 	0.05030 0.83220 0.94400 -0.48100
H 	H 	0.41689 0.28865 0.62056 0.02800
H 	H 	0.29092 0.77544 0.95505 0.06100
Zn	Zn	0.34177 0.85875 0.60613 1.23200
H 	H 	0.88770 0.18330 0.12100 0.28600
H 	H 	0.01500 0.83390 0.44560 0.15300
H 	H 	0.16900 0.05640 0.40170 0.15600
H 	H 	0.30500 0.88290 0.28740 0.12700
H 	H 	0.26580 0.77800 0.33020 0.12800
H 	H 	0.04680 0.01510 0.22220 -0.01800
H 	H 	0.38320 0.06430 0.41390 -0.01100
H 	H 	0.64280 0.03930 0.14170 0.03900
H 	H 	0.49320 0.12910 0.20320 0.04800
H 	H 	0.71420 0.92100 0.97970 -0.01400
H 	H 	0.32820 0.11860 0.15800 -0.01100
H 	H 	0.09450 0.22690 0.81690 0.23900
H 	H 	0.98930 0.21710 0.79200 0.24500
H 	H 	0.21370 0.24830 0.61920 -0.00800
H 	H 	0.11610 0.23030 0.59000 -0.01300
H 	H 	0.06570 0.62690 0.77900 0.02600
H 	H 	0.97700 0.73410 0.72880 0.04300
H 	H 	0.15500 0.67520 0.54030 0.19000
H 	H 	0.24300 0.57930 0.59860 0.19800
H 	H 	0.74780 0.55040 0.57290 -0.00500
H 	H 	0.72410 0.67730 0.59010 0.00800
H 	H 	0.61170 0.65110 0.79650 0.19400
H 	H 	0.61430 0.54000 0.76250 0.20000
C 	C 	0.00920 0.90130 0.46740 -0.31300
C 	C 	0.11380 0.93270 0.40530 0.27600
C 	C 	0.10060 0.03330 0.44130 -0.35000
C 	C 	0.23560 0.85900 0.30670 -0.26200
C 	C 	0.24980 0.82050 0.04100 0.02900
C 	C 	0.11670 0.94960 0.17640 0.11300
C 	C 	0.55240 0.80760 0.35540 0.09500
C 	C 	0.44340 0.99000 0.38070 0.13300
C 	C 	0.55210 0.04890 0.17490 -0.02300
C 	C 	0.52530 0.02400 0.08330 -0.16500
C 	C 	0.62730 0.95310 0.98820 0.22800
C 	C 	0.39800 0.07060 0.09430 0.15900
C 	C 	0.16280 0.06720 0.74760 0.55200
C 	C 	0.08270 0.19870 0.76110 -0.60000
C 	C 	0.12200 0.26240 0.64740 0.22500
C 	C 	0.07790 0.45920 0.68710 0.28300
C 	C 	0.92680 0.43150 0.64190 0.32000
C 	C 	0.89180 0.62870 0.66800 0.31600
C 	C 	0.04750 0.65510 0.71140 0.11800
C 	C 	0.17000 0.65670 0.60980 -0.46400
C 	C 	0.20800 0.74490 0.62640 0.48200
C 	C 	0.73580 0.60170 0.62630 0.17900
C 	C 	0.61220 0.61650 0.73660 -0.48500
C 	C 	0.48530 0.69290 0.72190 0.48500
N 	N 	0.03790 0.38940 0.65920 -0.23800
N 	N 	0.85550 0.55290 0.64600 -0.21800
N 	N 	0.00360 0.57880 0.68640 -0.22100
N 	N 	0.45370 0.89120 0.43610 -0.24900
N 	N 	0.60280 0.85180 0.25340 -0.08400
N 	N 	0.53070 0.96820 0.27180 -0.09100
N 	N 	0.13640 0.92210 0.07390 -0.24200
N 	N 	0.29900 0.78640 0.11660 -0.08800
N 	N 	0.21420 0.86760 0.20210 -0.06400
O 	O 	0.31850 0.74010 0.54900 -0.47200
O 	O 	0.14200 0.81560 0.70300 -0.41500
O 	O 	0.48620 0.77290 0.65230 -0.50000
O 	O 	0.38330 0.68150 0.78860 -0.34100
O 	O 	0.15110 0.00550 0.83490 -0.51300
O 	O 	0.24080 0.02680 0.64590 -0.51600
O 	O 	0.17580 0.41710 0.70550 -0.24700
O 	O 	0.89010 0.36800 0.62390 -0.26000
O 	O 	0.82780 0.73410 0.66870 -0.26100
O 	O 	0.94970 0.16780 0.05600 -0.50600
H 	H 	0.58311 0.71135 0.37944 0.02500
H 	H 	0.70908 0.22456 0.04495 -0.00800
Zn	Zn	-0.00000 0.00000 -0.00000 1.19400
