data_crystal

_cell_length_a 13.07570
_cell_length_b 14.11570
_cell_length_c 16.66310
_cell_angle_alpha 66.60200
_cell_angle_beta  87.13800
_cell_angle_gamma 89.75700

_symmetry_space_group_name_	'P 1'
_symmetry_space_group_name_H-M	'P 1'

loop_
_symmetry_equiv_pos_as_xyz
  x,y,z

loop_
_atom_site_label
_atom_site_type_symbol
_atom_site_fract_x
_atom_site_fract_y
_atom_site_fract_z
_atom_site_charge
Zn	Zn	0.23522 0.83370 0.41793 1.16000
Zn	Zn	0.90283 0.46107 0.28174 1.23300
Zn	Zn	0.74708 0.58992 0.12895 1.16000
Zn	Zn	0.40818 0.95917 0.25723 1.23500
H 	H 	0.08720 0.73110 0.24550 0.04400
H 	H 	0.98690 0.81750 0.00030 0.07600
H 	H 	0.22190 0.97460 0.04460 0.07800
H 	H 	0.17050 0.09700 0.91470 0.02600
H 	H 	0.25050 0.02380 0.89110 0.03300
H 	H 	0.08890 0.11870 0.77640 0.05400
H 	H 	0.17110 0.22780 0.26290 0.05900
H 	H 	0.12090 0.27660 0.48630 0.08300
H 	H 	0.31030 0.04910 0.48310 0.08200
H 	H 	0.22750 0.25780 0.60750 0.02800
H 	H 	0.12470 0.18840 0.62740 0.01000
H 	H 	0.29720 0.11410 0.73610 0.06900
H 	H 	0.57930 0.68300 0.30260 0.04200
H 	H 	0.72530 0.47330 0.50650 0.06800
H 	H 	0.49080 0.63740 0.55220 0.08100
H 	H 	0.69770 0.37690 0.65170 0.03000
H 	H 	0.76900 0.47550 0.63680 0.03200
H 	H 	0.64700 0.36780 0.79740 0.05900
H 	H 	0.82850 0.48150 0.76050 0.06200
H 	H 	0.76670 0.47280 0.90700 0.00800
H 	H 	0.85560 0.39300 0.90980 0.02400
H 	H 	0.80500 0.40110 0.04690 0.06100
H 	H 	0.68110 0.18830 0.27560 0.06100
H 	H 	0.61700 0.17450 0.04520 0.09800
C 	C 	0.23160 0.87430 0.21700 0.37100
C 	C 	0.95120 0.67160 0.16000 0.38700
C 	C 	0.16220 0.85640 0.15420 -0.06000
C 	C 	0.09150 0.77590 0.18520 0.00800
C 	C 	0.02620 0.76110 0.12720 -0.07000
C 	C 	0.03240 0.82680 0.03940 -0.07900
C 	C 	0.10560 0.90680 0.00830 0.15700
C 	C 	0.17120 0.92110 0.06560 -0.09100
C 	C 	0.17950 0.04940 0.88450 0.02300
C 	C 	0.15820 0.10290 0.79030 -0.04300
C 	C 	0.30050 0.07500 0.31600 0.30900
C 	C 	0.05490 0.34140 0.32430 0.27400
C 	C 	0.24770 0.13000 0.36670 -0.05000
C 	C 	0.18220 0.20960 0.32300 -0.03500
C 	C 	0.13280 0.26250 0.36860 -0.02100
C 	C 	0.15290 0.23920 0.45590 -0.13400
C 	C 	0.22080 0.16000 0.49800 0.17600
C 	C 	0.26640 0.10450 0.45370 -0.12500
C 	C 	0.20010 0.18610 0.63140 0.04500
C 	C 	0.22760 0.13040 0.72410 -0.06300
C 	C 	0.44630 0.75570 0.38880 0.38800
C 	C 	0.72580 0.54430 0.33190 0.39100
C 	C 	0.52410 0.67270 0.42300 -0.06600
C 	C 	0.58670 0.64820 0.36380 0.01700
C 	C 	0.65990 0.57240 0.39540 -0.07600
C 	C 	0.67380 0.52360 0.48520 -0.08600
C 	C 	0.61160 0.54960 0.54280 0.15400
C 	C 	0.53520 0.62240 0.51200 -0.08100
C 	C 	0.70400 0.43910 0.66480 0.01800
C 	C 	0.70230 0.40920 0.76170 -0.03200
C 	C 	0.77560 0.43870 0.79870 -0.06000
C 	C 	0.78430 0.41230 0.89350 0.05300
C 	C 	0.71150 0.29470 0.03150 0.17700
C 	C 	0.76220 0.34210 0.07740 -0.12900
C 	C 	0.75000 0.30270 0.16840 -0.05500
C 	C 	0.68820 0.21560 0.21350 -0.02900
C 	C 	0.63720 0.16890 0.16730 -0.01500
C 	C 	0.65020 0.20780 0.07660 -0.12900
C 	C 	0.80050 0.35380 0.21880 0.30600
C 	C 	0.56220 0.08170 0.21390 0.28500
O 	O 	0.30110 0.94240 0.18291 -0.45600
O 	O 	0.21500 0.82230 0.29730 -0.49400
O 	O 	0.96800 0.59990 0.23259 -0.47400
O 	O 	0.87910 0.67400 0.11259 -0.50200
O 	O 	0.10770 0.96520 0.92012 -0.20900
O 	O 	0.32480 0.97954 0.35626 -0.56300
O 	O 	0.32320 0.12290 0.23700 -0.33800
O 	O 	0.99960 0.37600 0.37201 -0.41700
O 	O 	0.04320 0.37060 0.24438 -0.33200
O 	O 	0.24470 0.12990 0.58330 -0.22400
O 	O 	0.46480 0.82090 0.31092 -0.47300
O 	O 	0.37030 0.75460 0.43771 -0.48800
O 	O 	0.79840 0.48300 0.36286 -0.47100
O 	O 	0.70500 0.58150 0.25336 -0.51100
O 	O 	0.61820 0.50610 0.63236 -0.21400
O 	O 	0.71620 0.32800 0.94239 -0.23600
O 	O 	0.83319 0.44855 0.17813 -0.56700
O 	O 	0.81230 0.30720 0.29849 -0.36800
O 	O 	0.51650 0.04350 0.16840 -0.40700
O 	O 	0.54310 0.05190 0.29430 -0.31800
Zn	Zn	0.76478 0.16630 0.58207 1.15900
Zn	Zn	0.09717 0.53893 0.71826 1.23200
Zn	Zn	0.25292 0.41008 0.87105 1.15900
Zn	Zn	0.59182 0.04083 0.74277 1.23400
H 	H 	0.91280 0.26890 0.75450 0.04300
H 	H 	0.01310 0.18250 0.99970 0.07500
H 	H 	0.77810 0.02540 0.95540 0.07700
H 	H 	0.82950 0.90300 0.08530 0.02500
H 	H 	0.74950 0.97620 0.10890 0.03300
H 	H 	0.91110 0.88130 0.22360 0.05400
H 	H 	0.82890 0.77220 0.73710 0.05900
H 	H 	0.87910 0.72340 0.51370 0.08300
H 	H 	0.68970 0.95090 0.51690 0.08200
H 	H 	0.77250 0.74220 0.39250 0.02800
H 	H 	0.87530 0.81160 0.37260 0.01000
H 	H 	0.70280 0.88590 0.26390 0.06900
H 	H 	0.42070 0.31700 0.69740 0.04200
H 	H 	0.27470 0.52670 0.49350 0.06800
H 	H 	0.50920 0.36260 0.44780 0.08100
H 	H 	0.30230 0.62310 0.34830 0.03000
H 	H 	0.23100 0.52450 0.36320 0.03200
H 	H 	0.35300 0.63220 0.20260 0.05900
H 	H 	0.17150 0.51850 0.23950 0.06200
H 	H 	0.23330 0.52720 0.09300 0.00800
H 	H 	0.14440 0.60700 0.09020 0.02400
H 	H 	0.19500 0.59890 0.95310 0.06100
H 	H 	0.31890 0.81170 0.72440 0.06100
H 	H 	0.38300 0.82550 0.95480 0.09800
C 	C 	0.76840 0.12570 0.78300 0.37100
C 	C 	0.04880 0.32840 0.84000 0.38700
C 	C 	0.83780 0.14360 0.84580 -0.06000
C 	C 	0.90850 0.22410 0.81480 0.00800
C 	C 	0.97380 0.23890 0.87280 -0.07000
C 	C 	0.96760 0.17320 0.96060 -0.07900
C 	C 	0.89440 0.09320 0.99170 0.15700
C 	C 	0.82880 0.07890 0.93440 -0.09100
C 	C 	0.82050 0.95060 0.11550 0.02300
C 	C 	0.84180 0.89710 0.20970 -0.04300
C 	C 	0.69950 0.92500 0.68400 0.30900
C 	C 	0.94510 0.65860 0.67570 0.27400
C 	C 	0.75230 0.87000 0.63330 -0.05000
C 	C 	0.81780 0.79040 0.67700 -0.03500
C 	C 	0.86720 0.73750 0.63140 -0.02100
C 	C 	0.84710 0.76080 0.54410 -0.13400
C 	C 	0.77920 0.84000 0.50200 0.17600
C 	C 	0.73360 0.89550 0.54630 -0.12500
C 	C 	0.79990 0.81390 0.36860 0.04500
C 	C 	0.77240 0.86960 0.27590 -0.06300
C 	C 	0.55370 0.24430 0.61120 0.38800
C 	C 	0.27420 0.45570 0.66810 0.39100
C 	C 	0.47590 0.32730 0.57700 -0.06600
C 	C 	0.41330 0.35180 0.63620 0.01700
C 	C 	0.34010 0.42760 0.60460 -0.07600
C 	C 	0.32620 0.47640 0.51480 -0.08600
C 	C 	0.38840 0.45040 0.45720 0.15400
C 	C 	0.46480 0.37760 0.48800 -0.08100
C 	C 	0.29600 0.56090 0.33520 0.01800
C 	C 	0.29770 0.59080 0.23830 -0.03200
C 	C 	0.22440 0.56130 0.20130 -0.06000
C 	C 	0.21570 0.58770 0.10650 0.05300
C 	C 	0.28850 0.70530 0.96850 0.17700
C 	C 	0.23780 0.65790 0.92260 -0.12900
C 	C 	0.25000 0.69730 0.83160 -0.05500
C 	C 	0.31180 0.78440 0.78650 -0.02900
C 	C 	0.36280 0.83110 0.83270 -0.01500
C 	C 	0.34980 0.79220 0.92340 -0.12900
C 	C 	0.19950 0.64620 0.78120 0.30600
C 	C 	0.43780 0.91830 0.78610 0.28500
O 	O 	0.69890 0.05760 0.81709 -0.45600
O 	O 	0.78500 0.17770 0.70270 -0.49400
O 	O 	0.03200 0.40010 0.76741 -0.47400
O 	O 	0.12090 0.32600 0.88741 -0.50200
O 	O 	0.89230 0.03480 0.07988 -0.20900
O 	O 	0.67520 0.02046 0.64374 -0.56300
O 	O 	0.67680 0.87710 0.76300 -0.33800
O 	O 	0.00040 0.62400 0.62799 -0.41700
O 	O 	0.95680 0.62940 0.75562 -0.33200
O 	O 	0.75530 0.87010 0.41670 -0.22400
O 	O 	0.53520 0.17910 0.68908 -0.47300
O 	O 	0.62970 0.24540 0.56229 -0.48800
O 	O 	0.20160 0.51700 0.63714 -0.47100
O 	O 	0.29500 0.41850 0.74664 -0.51100
O 	O 	0.38180 0.49390 0.36764 -0.21400
O 	O 	0.28380 0.67200 0.05761 -0.23600
O 	O 	0.16681 0.55145 0.82187 -0.56700
O 	O 	0.18770 0.69280 0.70151 -0.36800
O 	O 	0.48350 0.95650 0.83160 -0.40700
O 	O 	0.45690 0.94810 0.70570 -0.31800
