data_crystal

_cell_length_a 9.60970
_cell_length_b 24.35900
_cell_length_c 24.80400
_cell_angle_alpha 91.77400
_cell_angle_beta  90.00000
_cell_angle_gamma 90.00000

_symmetry_space_group_name_	'P 1'
_symmetry_space_group_name_H-M	'P 1'

loop_
_symmetry_equiv_pos_as_xyz
  x,y,z

loop_
_atom_site_label
_atom_site_type_symbol
_atom_site_fract_x
_atom_site_fract_y
_atom_site_fract_z
_atom_site_charge
Zn	Zn	0.96715 0.23263 0.31794 1.16800
Zn	Zn	0.74120 0.01286 0.27589 1.16600
Zn	Zn	0.23636 0.03213 0.13747 1.16900
Zn	Zn	0.32800 0.34098 0.48226 1.16800
Zn	Zn	0.44020 0.21659 0.68391 1.16900
Zn	Zn	0.46715 0.26737 0.18206 1.16900
Zn	Zn	0.24120 0.48714 0.22411 1.16700
Zn	Zn	0.73636 0.46787 0.36253 1.16900
Zn	Zn	0.82800 0.15902 0.01774 1.16700
Zn	Zn	0.94020 0.28341 0.81609 1.16900
Zn	Zn	0.03285 0.76737 0.68206 1.16800
Zn	Zn	0.25880 0.98714 0.72411 1.16600
Zn	Zn	0.76364 0.96787 0.86253 1.17000
Zn	Zn	0.67200 0.65902 0.51774 1.16900
Zn	Zn	0.55980 0.78341 0.31609 1.17000
Zn	Zn	0.53285 0.73263 0.81794 1.17000
Zn	Zn	0.75880 0.51286 0.77589 1.16800
Zn	Zn	0.26364 0.53213 0.63747 1.17000
Zn	Zn	0.17200 0.84098 0.98226 1.16800
Zn	Zn	0.05980 0.71659 0.18391 1.17000
H 	H 	0.17810 0.28030 0.23550 -0.06300
H 	H 	0.22040 0.14520 0.31010 -0.01100
H 	H 	0.42820 0.15820 0.25810 -0.00100
H 	H 	0.92770 0.11400 0.27770 -0.07700
H 	H 	0.74260 0.17990 0.39720 -0.00700
H 	H 	0.65680 0.08680 0.38440 -0.00900
H 	H 	0.43590 0.99410 0.22780 -0.06800
H 	H 	0.71040 0.09900 0.18030 -0.00400
H 	H 	0.50400 0.10740 0.12520 -0.00800
H 	H 	0.95450 0.05140 0.18920 -0.06100
H 	H 	0.19020 0.92550 0.21450 -0.00700
H 	H 	0.98610 0.91900 0.27130 0.00200
H 	H 	0.53650 0.42850 0.44820 -0.06000
H 	H 	0.49330 0.28840 0.37170 -0.00600
H 	H 	0.66740 0.33920 0.32540 -0.00000
H 	H 	0.35430 0.41790 0.58760 -0.06300
H 	H 	0.13360 0.52800 0.51670 -0.00700
H 	H 	0.15760 0.45020 0.45460 0.00000
H 	H 	0.21890 0.28030 0.37730 -0.05900
H 	H 	0.99300 0.33360 0.49810 -0.00900
H 	H 	0.83900 0.29070 0.43070 0.00200
H 	H 	0.30210 0.30290 0.60490 -0.06200
H 	H 	0.57510 0.25830 0.49690 -0.00400
H 	H 	0.62480 0.20870 0.57820 -0.00600
H 	H 	0.14300 0.21200 0.73810 -0.06500
H 	H 	0.20570 0.35780 0.79940 -0.00500
H 	H 	0.40830 0.33180 0.74390 -0.00500
H 	H 	0.61450 0.89500 0.25810 -0.07700
H 	H 	0.66840 0.86770 0.40580 -0.01500
H 	H 	0.72980 0.96260 0.39440 0.00200
H 	H 	0.67810 0.21970 0.26450 -0.06400
H 	H 	0.72040 0.35480 0.18990 -0.01200
H 	H 	0.92820 0.34180 0.24190 -0.00100
H 	H 	0.42770 0.38600 0.22230 -0.07600
H 	H 	0.24260 0.32010 0.10280 -0.00700
H 	H 	0.15680 0.41320 0.11560 -0.00800
H 	H 	0.93590 0.50590 0.27220 -0.07000
H 	H 	0.21040 0.40100 0.31970 -0.00400
H 	H 	0.00400 0.39260 0.37480 -0.00800
H 	H 	0.45450 0.44860 0.31080 -0.06200
H 	H 	0.69020 0.57450 0.28550 -0.00600
H 	H 	0.48610 0.58100 0.22870 0.00100
H 	H 	0.03650 0.07150 0.05180 -0.06100
H 	H 	0.99330 0.21160 0.12830 -0.01100
H 	H 	0.16740 0.16080 0.17460 0.00200
H 	H 	0.85430 0.08210 0.91240 -0.06300
H 	H 	0.63360 0.97200 0.98330 -0.01400
H 	H 	0.65760 0.04980 0.04540 0.00500
H 	H 	0.71890 0.21970 0.12270 -0.05900
H 	H 	0.49300 0.16640 0.00190 -0.00600
H 	H 	0.33900 0.20930 0.06930 -0.00100
H 	H 	0.80210 0.19710 0.89510 -0.06200
H 	H 	0.07510 0.24170 0.00310 -0.00500
H 	H 	0.12480 0.29130 0.92180 -0.00600
H 	H 	0.64300 0.28800 0.76190 -0.06500
H 	H 	0.70570 0.14220 0.70060 -0.00500
H 	H 	0.90830 0.16820 0.75610 -0.00500
H 	H 	0.11450 0.60500 0.24190 -0.07700
H 	H 	0.16840 0.63230 0.09420 -0.01500
H 	H 	0.22980 0.53740 0.10560 0.00200
H 	H 	0.82190 0.71970 0.76450 -0.06300
H 	H 	0.77960 0.85480 0.68990 -0.01100
H 	H 	0.57180 0.84180 0.74190 -0.00100
H 	H 	0.07230 0.88600 0.72230 -0.07700
H 	H 	0.25740 0.82010 0.60280 -0.00700
H 	H 	0.34320 0.91320 0.61560 -0.00900
H 	H 	0.56410 0.00590 0.77220 -0.06800
H 	H 	0.28960 0.90100 0.81970 -0.00400
H 	H 	0.49600 0.89260 0.87480 -0.00800
H 	H 	0.04550 0.94860 0.81080 -0.06100
H 	H 	0.80980 0.07450 0.78550 -0.00700
H 	H 	0.01390 0.08100 0.72870 0.00200
H 	H 	0.46350 0.57150 0.55180 -0.06000
H 	H 	0.50670 0.71160 0.62830 -0.00600
H 	H 	0.33260 0.66080 0.67460 -0.00000
H 	H 	0.64570 0.58210 0.41240 -0.06300
H 	H 	0.86640 0.47200 0.48330 -0.00700
H 	H 	0.84240 0.54980 0.54540 0.00000
H 	H 	0.78110 0.71970 0.62270 -0.05900
H 	H 	0.00700 0.66640 0.50190 -0.00900
H 	H 	0.16100 0.70930 0.56930 0.00200
H 	H 	0.69790 0.69710 0.39510 -0.06200
H 	H 	0.42490 0.74170 0.50310 -0.00400
H 	H 	0.37520 0.79130 0.42180 -0.00600
H 	H 	0.85700 0.78800 0.26190 -0.06500
H 	H 	0.79430 0.64220 0.20060 -0.00500
H 	H 	0.59170 0.66820 0.25610 -0.00500
H 	H 	0.38550 0.10500 0.74190 -0.07700
H 	H 	0.33160 0.13230 0.59420 -0.01500
H 	H 	0.27020 0.03740 0.60560 0.00200
H 	H 	0.32190 0.78030 0.73550 -0.06400
H 	H 	0.27960 0.64520 0.81010 -0.01200
H 	H 	0.07180 0.65820 0.75810 -0.00100
H 	H 	0.57230 0.61400 0.77770 -0.07600
H 	H 	0.75740 0.67990 0.89720 -0.00700
H 	H 	0.84320 0.58680 0.88440 -0.00800
H 	H 	0.06410 0.49410 0.72780 -0.07000
H 	H 	0.78960 0.59900 0.68030 -0.00400
H 	H 	0.99600 0.60740 0.62520 -0.00800
H 	H 	0.54550 0.55140 0.68920 -0.06200
H 	H 	0.30980 0.42550 0.71450 -0.00600
H 	H 	0.51390 0.41900 0.77130 0.00100
H 	H 	0.96350 0.92850 0.94820 -0.06100
H 	H 	0.00670 0.78840 0.87170 -0.01100
H 	H 	0.83260 0.83920 0.82540 0.00200
H 	H 	0.14570 0.91790 0.08760 -0.06300
H 	H 	0.36640 0.02800 0.01670 -0.01400
H 	H 	0.34240 0.95020 0.95460 0.00500
H 	H 	0.28110 0.78030 0.87730 -0.05900
H 	H 	0.50700 0.83360 0.99810 -0.00600
H 	H 	0.66100 0.79070 0.93070 -0.00100
H 	H 	0.19790 0.80290 0.10490 -0.06200
H 	H 	0.92490 0.75830 0.99690 -0.00500
H 	H 	0.87520 0.70870 0.07820 -0.00600
H 	H 	0.35700 0.71200 0.23810 -0.06500
H 	H 	0.29430 0.85780 0.29940 -0.00500
H 	H 	0.09170 0.83180 0.24390 -0.00500
H 	H 	0.88550 0.39500 0.75810 -0.07700
H 	H 	0.83160 0.36770 0.90580 -0.01500
H 	H 	0.77020 0.46260 0.89440 0.00200
C 	C 	0.21550 0.24780 0.24780 0.09800
C 	C 	0.23740 0.17490 0.28840 -0.00000
C 	C 	0.35210 0.18180 0.25960 -0.01700
C 	C 	0.86970 0.11870 0.30750 0.11900
C 	C 	0.77350 0.15470 0.37090 0.00000
C 	C 	0.72400 0.10320 0.36320 0.00200
C 	C 	0.48050 0.02160 0.20900 0.10600
C 	C 	0.62960 0.07840 0.18340 -0.02400
C 	C 	0.51560 0.08310 0.15300 -0.00600
C 	C 	0.98830 0.01910 0.20330 0.09000
C 	C 	0.11760 0.95080 0.21660 0.00200
C 	C 	0.00440 0.94710 0.24780 -0.02000
C 	C 	0.54720 0.39930 0.42360 0.08300
C 	C 	0.52340 0.32350 0.38200 -0.00100
C 	C 	0.61990 0.35110 0.35630 -0.01900
C 	C 	0.30210 0.43590 0.56190 0.09700
C 	C 	0.18180 0.49590 0.52370 0.00100
C 	C 	0.19510 0.45320 0.48920 -0.02100
C 	C 	0.14280 0.28750 0.39960 0.08400
C 	C 	0.02110 0.31700 0.46560 -0.00300
C 	C 	0.93530 0.29330 0.42790 -0.01500
C 	C 	0.37620 0.28510 0.58770 0.09500
C 	C 	0.52460 0.26120 0.52890 -0.01200
C 	C 	0.55250 0.23350 0.57390 -0.01000
C 	C 	0.18420 0.24570 0.74670 0.10500
C 	C 	0.21670 0.32470 0.78020 -0.01000
C 	C 	0.32980 0.31040 0.74940 -0.01300
C 	C 	0.63390 0.90030 0.29470 0.12000
C 	C 	0.66300 0.88540 0.37320 0.02100
C 	C 	0.69780 0.93800 0.36780 -0.03300
C 	C 	0.71550 0.25220 0.25220 0.09800
C 	C 	0.73740 0.32510 0.21160 -0.00000
C 	C 	0.85210 0.31820 0.24040 -0.01700
C 	C 	0.36970 0.38130 0.19250 0.11900
C 	C 	0.27350 0.34530 0.12910 0.00000
C 	C 	0.22400 0.39680 0.13680 0.00200
C 	C 	0.98050 0.47840 0.29100 0.10800
C 	C 	0.12960 0.42160 0.31660 -0.02500
C 	C 	0.01560 0.41690 0.34700 -0.00400
C 	C 	0.48830 0.48090 0.29670 0.09600
C 	C 	0.61760 0.54920 0.28340 0.00100
C 	C 	0.50440 0.55290 0.25220 -0.01900
C 	C 	0.04720 0.10070 0.07640 0.08500
C 	C 	0.02340 0.17650 0.11800 0.00900
C 	C 	0.11990 0.14890 0.14370 -0.02400
C 	C 	0.80210 0.06410 0.93810 0.09800
C 	C 	0.68180 0.00410 0.97630 0.01800
C 	C 	0.69510 0.04680 0.01080 -0.03700
C 	C 	0.64280 0.21250 0.10040 0.08300
C 	C 	0.52110 0.18300 0.03440 -0.01100
C 	C 	0.43530 0.20670 0.07210 -0.00700
C 	C 	0.87620 0.21490 0.91230 0.09500
C 	C 	0.02460 0.23880 0.97110 -0.00900
C 	C 	0.05250 0.26650 0.92610 -0.01100
C 	C 	0.68420 0.25430 0.75330 0.10500
C 	C 	0.71670 0.17530 0.71980 -0.01000
C 	C 	0.82980 0.18960 0.75060 -0.01300
C 	C 	0.13390 0.59970 0.20530 0.12000
C 	C 	0.16300 0.61460 0.12680 0.02100
C 	C 	0.19780 0.56200 0.13220 -0.03300
C 	C 	0.78450 0.75220 0.75220 0.09800
C 	C 	0.76260 0.82510 0.71160 -0.00000
C 	C 	0.64790 0.81820 0.74040 -0.01700
C 	C 	0.13030 0.88130 0.69250 0.11900
C 	C 	0.22650 0.84530 0.62910 0.00000
C 	C 	0.27600 0.89680 0.63680 0.00200
C 	C 	0.51950 0.97840 0.79100 0.10600
C 	C 	0.37040 0.92160 0.81660 -0.02400
C 	C 	0.48440 0.91690 0.84700 -0.00600
C 	C 	0.01170 0.98090 0.79670 0.09000
C 	C 	0.88240 0.04920 0.78340 0.00200
C 	C 	0.99560 0.05290 0.75220 -0.02000
C 	C 	0.45280 0.60070 0.57640 0.08300
C 	C 	0.47660 0.67650 0.61800 -0.00100
C 	C 	0.38010 0.64890 0.64370 -0.01900
C 	C 	0.69790 0.56410 0.43810 0.09700
C 	C 	0.81820 0.50410 0.47630 0.00100
C 	C 	0.80490 0.54680 0.51080 -0.02100
C 	C 	0.85720 0.71250 0.60040 0.08400
C 	C 	0.97890 0.68300 0.53440 -0.00300
C 	C 	0.06470 0.70670 0.57210 -0.01500
C 	C 	0.62380 0.71490 0.41230 0.09500
C 	C 	0.47540 0.73880 0.47110 -0.01200
C 	C 	0.44750 0.76650 0.42610 -0.01000
C 	C 	0.81580 0.75430 0.25330 0.10500
C 	C 	0.78330 0.67530 0.21980 -0.01000
C 	C 	0.67020 0.68960 0.25060 -0.01300
C 	C 	0.36610 0.09970 0.70530 0.12000
C 	C 	0.33700 0.11460 0.62680 0.02100
C 	C 	0.30220 0.06200 0.63220 -0.03300
C 	C 	0.28450 0.74780 0.74780 0.09800
C 	C 	0.26260 0.67490 0.78840 -0.00000
C 	C 	0.14790 0.68180 0.75960 -0.01700
C 	C 	0.63030 0.61870 0.80750 0.11900
C 	C 	0.72650 0.65470 0.87090 0.00000
C 	C 	0.77600 0.60320 0.86320 0.00200
C 	C 	0.01950 0.52160 0.70900 0.10800
C 	C 	0.87040 0.57840 0.68340 -0.02500
C 	C 	0.98440 0.58310 0.65300 -0.00400
C 	C 	0.51170 0.51910 0.70330 0.09600
C 	C 	0.38240 0.45080 0.71660 0.00100
C 	C 	0.49560 0.44710 0.74780 -0.01900
C 	C 	0.95280 0.89930 0.92360 0.08500
C 	C 	0.97660 0.82350 0.88200 0.00900
C 	C 	0.88010 0.85110 0.85630 -0.02400
C 	C 	0.19790 0.93590 0.06190 0.09800
C 	C 	0.31820 0.99590 0.02370 0.01800
C 	C 	0.30490 0.95320 0.98920 -0.03700
C 	C 	0.35720 0.78750 0.89960 0.08300
C 	C 	0.47890 0.81700 0.96560 -0.01100
C 	C 	0.56470 0.79330 0.92790 -0.00700
C 	C 	0.12380 0.78510 0.08770 0.09500
C 	C 	0.97540 0.76120 0.02890 -0.00900
C 	C 	0.94750 0.73350 0.07390 -0.01100
C 	C 	0.31580 0.74570 0.24670 0.10500
C 	C 	0.28330 0.82470 0.28020 -0.01000
C 	C 	0.17020 0.81040 0.24940 -0.01300
C 	C 	0.86610 0.40030 0.79470 0.12000
C 	C 	0.83700 0.38540 0.87320 0.02100
C 	C 	0.80220 0.43800 0.86780 -0.03300
N 	N 	0.14970 0.21680 0.28170 -0.29300
N 	N 	0.33960 0.22930 0.23250 -0.29200
N 	N 	0.87130 0.16360 0.33600 -0.30500
N 	N 	0.78450 0.07980 0.32150 -0.30200
N 	N 	0.60750 0.03760 0.22020 -0.29600
N 	N 	0.42090 0.04700 0.16950 -0.30300
N 	N 	0.92000 0.99120 0.23950 -0.28700
N 	N 	0.10830 0.99740 0.18890 -0.29500
N 	N 	0.63660 0.39980 0.38340 -0.28600
N 	N 	0.47320 0.35290 0.42580 -0.28800
N 	N 	0.24860 0.48560 0.57040 -0.29500
N 	N 	0.27460 0.41430 0.51390 -0.29000
N 	N 	0.15430 0.31230 0.44790 -0.29300
N 	N 	0.01300 0.27400 0.38570 -0.29000
N 	N 	0.41250 0.29390 0.53720 -0.29700
N 	N 	0.45660 0.24810 0.61160 -0.29500
N 	N 	0.30670 0.25950 0.72830 -0.30200
N 	N 	0.12360 0.28330 0.77850 -0.29600
N 	N 	0.62080 0.86140 0.32850 -0.30500
N 	N 	0.67630 0.94770 0.31510 -0.29800
N 	N 	0.64970 0.28320 0.21830 -0.29400
N 	N 	0.83960 0.27070 0.26750 -0.29200
N 	N 	0.37130 0.33640 0.16400 -0.30400
N 	N 	0.28450 0.42020 0.17850 -0.30100
N 	N 	0.10750 0.46240 0.27980 -0.29600
N 	N 	0.92090 0.45300 0.33050 -0.30400
N 	N 	0.42000 0.50880 0.26050 -0.29000
N 	N 	0.60830 0.50260 0.31110 -0.29700
N 	N 	0.13660 0.10020 0.11660 -0.28500
N 	N 	0.97320 0.14710 0.07420 -0.29300
N 	N 	0.74860 0.01440 0.92960 -0.29700
N 	N 	0.77460 0.08570 0.98610 -0.28600
N 	N 	0.65430 0.18770 0.05210 -0.29200
N 	N 	0.51300 0.22600 0.11430 -0.29300
N 	N 	0.91250 0.20610 0.96280 -0.29700
N 	N 	0.95660 0.25190 0.88840 -0.29500
N 	N 	0.80670 0.24050 0.77170 -0.30200
N 	N 	0.62360 0.21670 0.72150 -0.29600
N 	N 	0.12080 0.63860 0.17150 -0.30500
N 	N 	0.17630 0.55230 0.18490 -0.29900
N 	N 	0.85030 0.78320 0.71830 -0.29300
N 	N 	0.66040 0.77070 0.76750 -0.29200
N 	N 	0.12870 0.83640 0.66400 -0.30500
N 	N 	0.21550 0.92020 0.67850 -0.30200
N 	N 	0.39250 0.96240 0.77980 -0.29600
N 	N 	0.57910 0.95300 0.83050 -0.30300
N 	N 	0.08000 0.00880 0.76050 -0.28700
N 	N 	0.89170 0.00260 0.81110 -0.29500
N 	N 	0.36340 0.60020 0.61660 -0.28600
N 	N 	0.52680 0.64710 0.57420 -0.28800
N 	N 	0.75140 0.51440 0.42960 -0.29500
N 	N 	0.72540 0.58570 0.48610 -0.29000
N 	N 	0.84570 0.68770 0.55210 -0.29300
N 	N 	0.98700 0.72600 0.61430 -0.29000
N 	N 	0.58750 0.70610 0.46280 -0.29700
N 	N 	0.54340 0.75190 0.38840 -0.29500
N 	N 	0.69330 0.74050 0.27170 -0.30200
N 	N 	0.87640 0.71670 0.22150 -0.29600
N 	N 	0.37920 0.13860 0.67150 -0.30500
N 	N 	0.32370 0.05230 0.68490 -0.29800
N 	N 	0.35030 0.71680 0.78170 -0.29400
N 	N 	0.16040 0.72930 0.73250 -0.29200
N 	N 	0.62870 0.66360 0.83600 -0.30400
N 	N 	0.71550 0.57980 0.82150 -0.30100
N 	N 	0.89250 0.53760 0.72020 -0.29600
N 	N 	0.07910 0.54700 0.66950 -0.30400
N 	N 	0.58000 0.49120 0.73950 -0.29000
N 	N 	0.39170 0.49740 0.68890 -0.29700
N 	N 	0.86340 0.89980 0.88340 -0.28500
N 	N 	0.02680 0.85290 0.92580 -0.29300
N 	N 	0.25140 0.98560 0.07040 -0.29700
N 	N 	0.22540 0.91430 0.01390 -0.28600
N 	N 	0.34570 0.81230 0.94790 -0.29200
N 	N 	0.48700 0.77400 0.88570 -0.29300
N 	N 	0.08750 0.79390 0.03720 -0.29700
N 	N 	0.04340 0.74810 0.11160 -0.29500
N 	N 	0.19330 0.75950 0.22830 -0.30200
N 	N 	0.37640 0.78330 0.27850 -0.29600
N 	N 	0.87920 0.36140 0.82850 -0.30500
N 	N 	0.82370 0.44770 0.81510 -0.29900
