data_crystal

_cell_length_a 6.05440
_cell_length_b 12.49910
_cell_length_c 14.75390
_cell_angle_alpha 114.46200
_cell_angle_beta  93.21300
_cell_angle_gamma 100.17700

_symmetry_space_group_name_	'P 1'
_symmetry_space_group_name_H-M	'P 1'

loop_
_symmetry_equiv_pos_as_xyz
  x,y,z

loop_
_atom_site_label
_atom_site_type_symbol
_atom_site_fract_x
_atom_site_fract_y
_atom_site_fract_z
_atom_site_charge
Cs	Cs	0.77078 0.69302 0.12405 0.73000
S 	S 	0.34417 0.96919 0.20551 0.30000
O 	O 	0.10220 0.95650 0.19562 -0.26000
O 	O 	0.43560 0.86321 0.16177 -0.26800
O 	O 	0.64950 0.39751 0.04323 -0.32000
O 	O 	0.97680 0.34402 0.05781 -0.29500
O 	O 	0.61140 0.29963 0.70295 -0.25600
O 	O 	0.91810 0.22160 0.67343 -0.29000
C 	C 	0.76770 0.33446 0.06175 0.32000
C 	C 	0.65310 0.23927 0.09263 -0.07400
C 	C 	0.76200 0.14883 0.08925 0.00500
H 	H 	0.90020 0.14520 0.06480 0.04200
C 	C 	0.44430 0.24306 0.12662 -0.00800
H 	H 	0.36790 0.30120 0.12610 0.04800
C 	C 	0.66770 0.06447 0.12170 -0.05700
H 	H 	0.74040 0.00380 0.11910 0.06500
C 	C 	0.46180 0.07201 0.15837 -0.01800
C 	C 	0.34900 0.16028 0.16152 -0.05300
H 	H 	0.21160 0.16420 0.18660 0.06100
C 	C 	0.45330 0.04352 0.33516 -0.02000
C 	C 	0.66190 0.02956 0.36737 -0.04500
H 	H 	0.74160 0.98010 0.32180 0.05400
C 	C 	0.74870 0.09080 0.46862 -0.00900
H 	H 	0.88800 0.08230 0.49140 0.04900
C 	C 	0.62970 0.16452 0.53632 -0.06400
C 	C 	0.42120 0.17750 0.50331 -0.00900
H 	H 	0.34090 0.22630 0.54910 0.05300
C 	C 	0.33250 0.11750 0.40177 -0.04800
H 	H 	0.19420 0.12690 0.37890 0.05900
C 	C 	0.73480 0.23080 0.64461 0.30900
Cs	Cs	0.22922 0.30698 0.87595 0.72900
S 	S 	0.65583 0.03081 0.79449 0.29900
O 	O 	0.89780 0.04350 0.80438 -0.26000
O 	O 	0.56440 0.13679 0.83823 -0.26800
O 	O 	0.35050 0.60249 0.95677 -0.32000
O 	O 	0.02320 0.65598 0.94219 -0.29500
O 	O 	0.38860 0.70037 0.29705 -0.25600
O 	O 	0.08190 0.77840 0.32657 -0.29000
C 	C 	0.23230 0.66554 0.93825 0.32000
C 	C 	0.34690 0.76073 0.90737 -0.07400
C 	C 	0.23800 0.85117 0.91075 0.00500
H 	H 	0.09980 0.85480 0.93520 0.04200
C 	C 	0.55570 0.75694 0.87338 -0.00800
H 	H 	0.63210 0.69880 0.87390 0.04800
C 	C 	0.33230 0.93553 0.87830 -0.05700
H 	H 	0.25960 0.99620 0.88090 0.06500
C 	C 	0.53820 0.92799 0.84163 -0.01800
C 	C 	0.65100 0.83972 0.83848 -0.05300
H 	H 	0.78840 0.83580 0.81340 0.06100
C 	C 	0.54670 0.95648 0.66484 -0.02000
C 	C 	0.33810 0.97044 0.63263 -0.04500
H 	H 	0.25840 0.01990 0.67820 0.05400
C 	C 	0.25130 0.90920 0.53138 -0.00900
H 	H 	0.11200 0.91770 0.50860 0.04900
C 	C 	0.37030 0.83548 0.46368 -0.06400
C 	C 	0.57880 0.82250 0.49669 -0.00900
H 	H 	0.65910 0.77370 0.45090 0.05300
C 	C 	0.66750 0.88250 0.59823 -0.04800
H 	H 	0.80580 0.87310 0.62110 0.05900
C 	C 	0.26520 0.76920 0.35539 0.30900
