data_crystal

_cell_length_a 6.19360
_cell_length_b 24.97970
_cell_length_c 25.34340
_cell_angle_alpha 89.13200
_cell_angle_beta  82.98120
_cell_angle_gamma 82.87850

_symmetry_space_group_name_	'P 1'
_symmetry_space_group_name_H-M	'P 1'

loop_
_symmetry_equiv_pos_as_xyz
  x,y,z

loop_
_atom_site_label
_atom_site_type_symbol
_atom_site_fract_x
_atom_site_fract_y
_atom_site_fract_z
_atom_site_charge
Zn	Zn	0.43288 0.24694 0.72269 1.19000
Zn	Zn	0.40251 0.75306 0.27731 1.19000
Zn	Zn	0.90557 0.74694 0.77731 1.18300
Zn	Zn	0.42982 0.25306 0.22269 1.18900
Zn	Zn	0.69072 0.50000 0.50000 1.18900
Zn	Zn	0.94072 0.00000 -0.00000 1.17100
H 	H 	0.27270 0.35500 0.76500 0.01600
H 	H 	0.01010 0.42760 0.75480 0.08700
H 	H 	0.76440 0.34020 0.64800 0.08600
H 	H 	0.03540 0.26960 0.66080 0.00600
H 	H 	0.98910 0.41060 0.54980 -0.00100
H 	H 	0.27100 0.40380 0.60320 0.09400
H 	H 	0.12930 0.56440 0.63200 0.08700
H 	H 	0.84750 0.56660 0.57940 0.01600
H 	H 	0.54090 0.71160 0.71900 0.01200
H 	H 	0.43220 0.63220 0.69020 0.08500
H 	H 	0.95550 0.55020 0.74980 0.07400
H 	H 	0.04490 0.63140 0.77820 0.02600
H 	H 	0.39270 0.64500 0.23500 0.01200
H 	H 	0.19250 0.57240 0.24520 0.08400
H 	H 	0.75260 0.65980 0.35200 0.09000
H 	H 	0.96580 0.73040 0.33920 -0.00600
H 	H 	0.94950 0.58940 0.45020 -0.00200
H 	H 	0.27800 0.59620 0.39680 0.09700
H 	H 	0.32570 0.43560 0.36800 0.09500
H 	H 	0.99350 0.43340 0.42060 0.00000
H 	H 	0.97150 0.28840 0.28100 0.00300
H 	H 	0.75460 0.36780 0.30980 0.08800
H 	H 	0.25550 0.44980 0.25020 0.08400
H 	H 	0.45450 0.36860 0.22180 -0.00100
H 	H 	0.78770 0.85500 0.73500 0.00900
H 	H 	0.51490 0.92760 0.74520 0.08800
H 	H 	0.16240 0.84020 0.85200 0.08900
H 	H 	0.44620 0.76960 0.83920 0.00900
H 	H 	0.28890 0.91060 0.95020 0.02100
H 	H 	0.62420 0.90380 0.89680 0.09300
H 	H 	0.51130 0.06440 0.86800 0.09500
H 	H 	0.17690 0.06660 0.92060 0.02000
H 	H 	0.00990 0.21160 0.78100 0.02000
H 	H 	0.87240 0.13220 0.80980 0.06600
H 	H 	0.45530 0.05020 0.75020 0.07600
H 	H 	0.57310 0.13140 0.72180 -0.00100
H 	H 	0.37770 0.14500 0.26500 0.00900
H 	H 	0.18770 0.07240 0.25480 0.08800
H 	H 	0.85460 0.15980 0.14800 0.09000
H 	H 	0.05500 0.23040 0.16080 0.00200
H 	H 	0.14970 0.08940 0.04980 0.01100
H 	H 	0.42480 0.09620 0.10320 0.08400
H 	H 	0.44370 0.93560 0.13200 0.08100
H 	H 	0.16410 0.93340 0.07940 0.01200
H 	H 	0.00250 0.78840 0.21900 0.00500
H 	H 	0.81440 0.86780 0.19020 0.09600
H 	H 	0.25570 0.94980 0.24980 0.09800
H 	H 	0.42630 0.86860 0.27820 -0.00200
C 	C 	0.16947 0.35222 0.74064 0.05900
C 	C 	0.01387 0.39554 0.73472 -0.08300
C 	C 	0.86272 0.39204 0.69932 0.04500
C 	C 	0.86866 0.34416 0.67172 -0.13000
C 	C 	0.03046 0.30236 0.67972 0.08300
C 	C 	0.70800 0.44052 0.68988 0.10600
C 	C 	0.62527 0.53062 0.69884 0.10900
C 	C 	0.41819 0.48362 0.65440 0.09600
C 	C 	0.01874 0.44208 0.56684 0.09600
C 	C 	0.18757 0.43774 0.59832 -0.12100
C 	C 	0.23266 0.48380 0.62268 0.04000
C 	C 	0.10311 0.53236 0.61542 -0.08500
C 	C 	0.93654 0.53334 0.58398 0.04300
C 	C 	0.62427 0.67820 0.72566 0.06300
C 	C 	0.55875 0.63122 0.70808 -0.10400
C 	C 	0.68315 0.58254 0.71736 0.04200
C 	C 	0.86694 0.58290 0.74342 -0.08900
C 	C 	0.91945 0.63140 0.76010 0.02500
C 	C 	0.26233 0.64778 0.25936 0.06200
C 	C 	0.14413 0.60446 0.26528 -0.09400
C 	C 	0.95408 0.60796 0.30068 0.05300
C 	C 	0.88454 0.65584 0.32828 -0.14000
C 	C 	0.01254 0.69764 0.32028 0.09900
C 	C 	0.83840 0.55948 0.31012 0.10200
C 	C 	0.85473 0.46938 0.30116 0.10500
C 	C 	0.55621 0.51638 0.34560 0.09000
C 	C 	0.02766 0.55792 0.43316 0.10100
C 	C 	0.22363 0.56226 0.40168 -0.13100
C 	C 	0.33914 0.51620 0.37732 0.05300
C 	C 	0.25089 0.46764 0.38458 -0.12000
C 	C 	0.05386 0.46666 0.41602 0.08600
C 	C 	0.02813 0.32180 0.27434 0.08300
C 	C 	0.89805 0.36878 0.29192 -0.12100
C 	C 	0.98305 0.41746 0.28264 0.05000
C 	C 	0.19326 0.41710 0.25658 -0.10500
C 	C 	0.31095 0.36860 0.23990 0.06500
C 	C 	0.66011 0.85222 0.75936 0.06200
C 	C 	0.49859 0.89554 0.76528 -0.09900
C 	C 	0.31204 0.89204 0.80068 0.05400
C 	C 	0.29038 0.84416 0.82828 -0.11700
C 	C 	0.46018 0.80236 0.82028 0.06900
C 	C 	0.14788 0.94052 0.81012 0.12400
C 	C 	0.07411 0.03062 0.80116 0.10700
C 	C 	0.82259 0.98362 0.84560 0.10600
C 	C 	0.33558 0.94208 0.93316 0.08000
C 	C 	0.53589 0.93774 0.90168 -0.11800
C 	C 	0.60534 0.98380 0.87732 0.06500
C 	C 	0.46853 0.03236 0.88458 -0.12900
C 	C 	0.27052 0.03334 0.91602 0.05200
C 	C 	0.09993 0.17820 0.77434 0.05300
C 	C 	0.01683 0.13122 0.79192 -0.07600
C 	C 	0.15051 0.08254 0.78264 0.03900
C 	C 	0.36036 0.08290 0.75658 -0.10200
C 	C 	0.42955 0.13140 0.73990 0.06100
C 	C 	0.27169 0.14778 0.24064 0.07100
C 	C 	0.15941 0.10446 0.23472 -0.11300
C 	C 	0.00476 0.10796 0.19932 0.08100
C 	C 	0.96282 0.15584 0.17172 -0.15100
C 	C 	0.08282 0.19764 0.17972 0.08900
C 	C 	0.89852 0.05948 0.18988 0.08800
C 	C 	0.90589 0.96938 0.19884 0.10900
C 	C 	0.65181 0.01638 0.15440 0.08000
C 	C 	0.21082 0.05792 0.06684 0.06000
C 	C 	0.37531 0.06226 0.09832 -0.10500
C 	C 	0.46646 0.01620 0.12268 0.01300
C 	C 	0.38547 0.96764 0.11542 -0.07500
C 	C 	0.21988 0.96666 0.08398 0.07300
C 	C 	0.05247 0.82180 0.22566 0.09500
C 	C 	0.93997 0.86878 0.20808 -0.15200
C 	C 	0.01569 0.91746 0.21736 0.08400
C 	C 	0.19984 0.91710 0.24342 -0.12600
C 	C 	0.30085 0.86860 0.26010 0.07900
Br	Br	0.62958 0.22023 0.63915 -0.44900
Br	Br	0.61581 0.27834 0.79024 -0.45800
Br	Br	0.47554 0.58351 0.51503 -0.46000
Br	Br	0.48896 0.77977 0.36085 -0.43800
Br	Br	0.68439 0.72166 0.20976 -0.46600
Br	Br	0.57408 0.41649 0.48497 -0.46300
Br	Br	0.01873 0.72023 0.86085 -0.42000
Br	Br	0.15605 0.77834 0.70976 -0.44100
Br	Br	0.74057 0.08351 0.98497 -0.45000
Br	Br	0.59981 0.27977 0.13915 -0.45300
Br	Br	0.64415 0.22166 0.29024 -0.46000
Br	Br	0.80905 0.91649 0.01503 -0.48300
N 	N 	0.18065 0.30594 0.71316 -0.26100
N 	N 	0.54137 0.43658 0.66168 -0.14100
N 	N 	0.45282 0.53158 0.67198 -0.13900
N 	N 	0.75603 0.48646 0.70948 -0.14000
N 	N 	0.89515 0.48900 0.55930 -0.26000
N 	N 	0.79955 0.67870 0.75160 -0.25800
N 	N 	0.19975 0.69406 0.28684 -0.26500
N 	N 	0.63963 0.56342 0.33832 -0.14000
N 	N 	0.65638 0.46842 0.32802 -0.13900
N 	N 	0.95197 0.51354 0.29052 -0.13900
N 	N 	0.94345 0.51100 0.44070 -0.26900
N 	N 	0.22985 0.32130 0.24840 -0.26400
N 	N 	0.64381 0.80594 0.78684 -0.26300
N 	N 	0.95305 0.93658 0.83832 -0.15300
N 	N 	0.87480 0.03158 0.82802 -0.15800
N 	N 	0.21551 0.98646 0.79052 -0.12700
N 	N 	0.20445 0.98900 0.94070 -0.23300
N 	N 	0.30115 0.17870 0.74840 -0.25800
N 	N 	0.23659 0.19406 0.21316 -0.26600
N 	N 	0.72795 0.06342 0.16168 -0.13900
N 	N 	0.73440 0.96842 0.17198 -0.12800
N 	N 	0.99249 0.01354 0.20948 -0.15100
N 	N 	0.13415 0.01100 0.05930 -0.26700
N 	N 	0.22825 0.82130 0.25160 -0.26800
