data_crystal

_cell_length_a 14.40680
_cell_length_b 15.06460
_cell_length_c 33.08340
_cell_angle_alpha 90.00000
_cell_angle_beta  90.00000
_cell_angle_gamma 90.00000

_symmetry_space_group_name_	'P 1'
_symmetry_space_group_name_H-M	'P 1'

loop_
_symmetry_equiv_pos_as_xyz
  x,y,z

loop_
_atom_site_label
_atom_site_type_symbol
_atom_site_fract_x
_atom_site_fract_y
_atom_site_fract_z
_atom_site_charge
Yb	Yb	0.13846 0.67806 0.25000 1.49600
Yb	Yb	0.13056 0.69462 0.84976 1.50500
Yb	Yb	0.88826 0.29773 0.55114 1.48900
Yb	Yb	0.63846 0.82194 0.75000 1.49600
Yb	Yb	0.63056 0.80538 0.15024 1.50500
Yb	Yb	0.36154 0.17806 0.25000 1.49600
Yb	Yb	0.13056 0.69462 0.65024 1.50600
Yb	Yb	0.11174 0.70227 0.44886 1.49000
Yb	Yb	0.61174 0.79773 0.94886 1.49000
Yb	Yb	0.86154 0.32194 0.75000 1.49700
Yb	Yb	0.11174 0.70227 0.05114 1.49000
Yb	Yb	0.38826 0.20227 0.44886 1.49000
Yb	Yb	0.38826 0.20227 0.05114 1.49000
Yb	Yb	0.63056 0.80538 0.34976 1.50600
Yb	Yb	0.86944 0.30538 0.15024 1.50600
Yb	Yb	0.61174 0.79773 0.55114 1.49000
Yb	Yb	0.86944 0.30538 0.34976 1.50600
Yb	Yb	0.36944 0.19462 0.84976 1.50600
Yb	Yb	0.88826 0.29773 0.94886 1.49000
Yb	Yb	0.36944 0.19462 0.65024 1.50600
K 	K 	0.18527 0.21403 0.54531 0.65000
K 	K 	0.81390 0.75540 0.25000 0.65300
K 	K 	0.81473 0.78597 0.45469 0.65000
K 	K 	0.80932 0.76869 0.64252 0.65300
K 	K 	0.69068 0.26869 0.64252 0.65300
K 	K 	0.18527 0.21403 0.95469 0.65000
K 	K 	0.18610 0.24460 0.75000 0.65300
K 	K 	0.31473 0.71403 0.95469 0.65000
K 	K 	0.68527 0.28597 0.04531 0.65000
K 	K 	0.19068 0.23131 0.35748 0.65300
K 	K 	0.68610 0.25540 0.25000 0.65300
K 	K 	0.31473 0.71403 0.54531 0.65000
K 	K 	0.19068 0.23131 0.14252 0.65300
K 	K 	0.80932 0.76869 0.85748 0.65300
K 	K 	0.81473 0.78597 0.04531 0.65000
K 	K 	0.30932 0.73131 0.14252 0.65300
K 	K 	0.31390 0.74460 0.75000 0.65300
K 	K 	0.68527 0.28597 0.45469 0.65000
K 	K 	0.69068 0.26869 0.85748 0.65300
K 	K 	0.30932 0.73131 0.35748 0.65300
C 	C 	0.33290 0.97820 0.64740 -0.00300
C 	C 	0.16460 0.39710 0.05100 -0.01000
C 	C 	0.49510 0.90990 0.04990 -0.04900
C 	C 	0.83540 0.60290 0.94900 -0.01000
C 	C 	0.48740 0.00130 0.45060 -0.00400
C 	C 	0.73800 0.45930 0.94970 0.31500
C 	C 	0.51260 0.99870 0.54940 -0.00400
C 	C 	0.98990 0.49100 0.14990 -0.00700
C 	C 	0.06670 0.43170 0.54840 0.32100
C 	C 	0.16710 0.47820 0.85260 -0.00400
C 	C 	0.26040 0.49700 0.25000 0.33200
C 	C 	0.83540 0.60290 0.55100 -0.00900
C 	C 	0.06670 0.43170 0.95160 0.32100
C 	C 	0.08730 0.63990 0.95030 0.40800
C 	C 	0.01480 0.59360 0.75000 -0.05200
C 	C 	0.64750 0.11200 0.14700 -0.01700
C 	C 	0.51010 0.99100 0.14990 -0.00800
C 	C 	0.50870 0.91740 0.64920 -0.04900
C 	C 	0.99200 0.50510 0.75000 0.00100
C 	C 	0.83830 0.53980 0.75000 0.00400
C 	C 	0.73780 0.47890 0.14450 0.31600
C 	C 	0.06090 0.41650 0.35060 0.33200
C 	C 	0.77840 0.68250 0.35370 0.33200
C 	C 	0.66710 0.02180 0.14740 -0.00300
C 	C 	0.22160 0.31750 0.85370 0.33200
C 	C 	0.50490 0.09010 0.54990 -0.04900
C 	C 	0.58730 0.86010 0.45030 0.40800
C 	C 	0.50800 0.00510 0.75000 0.00000
C 	C 	0.48990 0.00900 0.64990 -0.00800
C 	C 	0.11290 0.63110 0.75000 0.38100
C 	C 	0.98520 0.40640 0.25000 -0.05200
C 	C 	0.43330 0.93170 0.95160 0.32100
C 	C 	0.60510 0.87760 0.85030 0.38000
C 	C 	0.44100 0.92670 0.75000 0.30500
C 	C 	0.41270 0.13990 0.54970 0.40800
C 	C 	0.56090 0.08350 0.85060 0.33200
C 	C 	0.91270 0.36010 0.04970 0.40800
C 	C 	0.76200 0.95930 0.55030 0.31500
C 	C 	0.66460 0.10290 0.94900 -0.00900
C 	C 	0.00490 0.40990 0.04990 -0.04900
C 	C 	0.55900 0.07330 0.25000 0.30500
C 	C 	0.83290 0.52180 0.35260 -0.00400
C 	C 	0.49200 0.99490 0.25000 0.00000
C 	C 	0.76220 0.97890 0.35550 0.31500
C 	C 	0.71160 0.20520 0.75000 0.36000
C 	C 	0.82690 0.51100 0.55070 -0.00600
C 	C 	0.75540 0.66760 0.54940 0.31900
C 	C 	0.86000 0.63120 0.75000 -0.02500
C 	C 	0.76200 0.95930 0.94970 0.31500
C 	C 	0.48990 0.00900 0.85010 -0.00800
C 	C 	0.94100 0.57330 0.25000 0.30400
C 	C 	0.23780 0.02110 0.85550 0.31500
C 	C 	0.78840 0.70520 0.75000 0.36000
C 	C 	0.98740 0.49870 0.95060 -0.00400
C 	C 	0.99130 0.41740 0.85080 -0.05000
C 	C 	0.17310 0.48900 0.05070 -0.00600
C 	C 	0.23780 0.02110 0.64450 0.31500
C 	C 	0.91270 0.36010 0.45030 0.40800
C 	C 	0.06090 0.41650 0.14940 0.33200
C 	C 	0.14750 0.38800 0.85300 -0.01700
C 	C 	0.49130 0.08260 0.35080 -0.04900
C 	C 	0.73960 0.50300 0.75000 0.33200
C 	C 	0.01010 0.50900 0.64990 -0.00700
C 	C 	0.49130 0.08260 0.14920 -0.04900
C 	C 	0.49510 0.90990 0.45010 -0.04900
C 	C 	0.23960 0.99700 0.25000 0.33100
C 	C 	0.50870 0.91740 0.85080 -0.04900
C 	C 	0.74460 0.16760 0.95060 0.31900
C 	C 	0.14750 0.38800 0.64700 -0.01700
C 	C 	0.98740 0.49870 0.54940 -0.00400
C 	C 	0.35250 0.88800 0.85300 -0.01700
C 	C 	0.35250 0.88800 0.64700 -0.01700
C 	C 	0.00800 0.49490 0.25000 0.00100
C 	C 	0.01010 0.50900 0.85010 -0.00700
C 	C 	0.93330 0.56830 0.04840 0.32100
C 	C 	0.99510 0.59010 0.95010 -0.04900
C 	C 	0.51480 0.90640 0.25000 -0.05100
C 	C 	0.28840 0.79480 0.25000 0.36000
C 	C 	0.50490 0.09010 0.95010 -0.04900
C 	C 	0.67310 0.01100 0.55070 -0.00600
C 	C 	0.67310 0.01100 0.94930 -0.00600
C 	C 	0.16710 0.47820 0.64740 -0.00400
C 	C 	0.27840 0.81750 0.64630 0.33200
C 	C 	0.48520 0.09360 0.75000 -0.05100
C 	C 	0.66170 0.03980 0.75000 0.00300
C 	C 	0.83290 0.52180 0.14740 -0.00400
C 	C 	0.24460 0.33240 0.04940 0.31900
C 	C 	0.66710 0.02180 0.35260 -0.00300
C 	C 	0.33540 0.89710 0.05100 -0.00900
C 	C 	0.22160 0.31750 0.64630 0.33200
C 	C 	0.16460 0.39710 0.44900 -0.00900
C 	C 	0.72160 0.18250 0.35370 0.33200
C 	C 	0.10510 0.62240 0.35030 0.38000
C 	C 	0.82690 0.51100 0.94930 -0.00600
C 	C 	0.25540 0.83240 0.04940 0.31900
C 	C 	0.73780 0.47890 0.35550 0.31600
C 	C 	0.66460 0.10290 0.55100 -0.00900
C 	C 	0.98990 0.49100 0.35010 -0.00700
C 	C 	0.85250 0.61200 0.14700 -0.01700
C 	C 	0.00490 0.40990 0.45010 -0.04900
C 	C 	0.74460 0.16760 0.54940 0.31900
C 	C 	0.51010 0.99100 0.35010 -0.00800
C 	C 	0.26220 0.52110 0.64450 0.31600
C 	C 	0.27840 0.81750 0.85370 0.33200
C 	C 	0.21160 0.29480 0.25000 0.36000
C 	C 	0.64000 0.13120 0.75000 -0.02500
C 	C 	0.08730 0.63990 0.54970 0.40800
C 	C 	0.26220 0.52110 0.85550 0.31600
C 	C 	0.14000 0.36880 0.25000 -0.02500
C 	C 	0.99130 0.41740 0.64920 -0.04900
C 	C 	0.43910 0.91650 0.14940 0.33200
C 	C 	0.33830 0.96020 0.25000 0.00300
C 	C 	0.60510 0.87760 0.64970 0.38000
C 	C 	0.32690 0.98900 0.05070 -0.00600
C 	C 	0.56670 0.06830 0.45160 0.32100
C 	C 	0.00870 0.58260 0.14920 -0.05000
C 	C 	0.72160 0.18250 0.14630 0.33200
C 	C 	0.38710 0.13110 0.75000 0.38100
C 	C 	0.39490 0.12240 0.35030 0.38000
C 	C 	0.93330 0.56830 0.45160 0.32100
C 	C 	0.43330 0.93170 0.54840 0.32100
C 	C 	0.93910 0.58350 0.64940 0.33200
C 	C 	0.26200 0.54070 0.44970 0.31500
C 	C 	0.10510 0.62240 0.14970 0.38000
C 	C 	0.89490 0.37760 0.85030 0.38000
C 	C 	0.00870 0.58260 0.35080 -0.04900
C 	C 	0.76220 0.97890 0.14450 0.31500
C 	C 	0.58730 0.86010 0.04970 0.40800
C 	C 	0.26200 0.54070 0.05030 0.31500
C 	C 	0.41270 0.13990 0.95030 0.40800
C 	C 	0.39490 0.12240 0.14970 0.38000
C 	C 	0.51260 0.99870 0.95060 -0.00400
C 	C 	0.33540 0.89710 0.44900 -0.00900
C 	C 	0.43910 0.91650 0.35060 0.33200
C 	C 	0.01260 0.50130 0.45060 -0.00400
C 	C 	0.89490 0.37760 0.64970 0.38000
C 	C 	0.85250 0.61200 0.35300 -0.01700
C 	C 	0.56670 0.06830 0.04840 0.32100
C 	C 	0.23800 0.04070 0.05030 0.31500
C 	C 	0.23800 0.04070 0.44970 0.31500
C 	C 	0.32690 0.98900 0.44930 -0.00600
C 	C 	0.17310 0.48900 0.44930 -0.00600
C 	C 	0.36000 0.86880 0.25000 -0.02500
C 	C 	0.93910 0.58350 0.85060 0.33200
C 	C 	0.77840 0.68250 0.14630 0.33200
C 	C 	0.56090 0.08350 0.64940 0.33200
C 	C 	0.25540 0.83240 0.45060 0.31900
C 	C 	0.61290 0.86890 0.25000 0.38100
C 	C 	0.33290 0.97820 0.85260 -0.00300
C 	C 	0.99510 0.59010 0.54990 -0.04900
C 	C 	0.75540 0.66760 0.95060 0.31900
C 	C 	0.48740 0.00130 0.04940 -0.00400
C 	C 	0.64750 0.11200 0.35300 -0.01700
C 	C 	0.88710 0.36890 0.25000 0.38100
C 	C 	0.16170 0.46020 0.25000 0.00400
C 	C 	0.73800 0.45930 0.55030 0.31500
C 	C 	0.24460 0.33240 0.45060 0.31900
C 	C 	0.05900 0.42670 0.75000 0.30400
C 	C 	0.01260 0.50130 0.04940 -0.00400
C 	C 	0.76040 0.00300 0.75000 0.33100
N 	N 	0.40230 0.02020 0.25000 -0.17100
N 	N 	0.90340 0.46040 0.55000 -0.16700
N 	N 	0.40340 0.03960 0.05000 -0.16700
N 	N 	0.56010 0.14210 0.35194 -0.10800
N 	N 	0.59660 0.96040 0.95000 -0.16700
N 	N 	0.09760 0.53680 0.85121 -0.17200
N 	N 	0.08030 0.35800 0.45000 -0.10500
N 	N 	0.93990 0.64210 0.35194 -0.10800
N 	N 	0.59660 0.96040 0.55000 -0.16700
N 	N 	0.40340 0.03960 0.45000 -0.16700
N 	N 	0.91970 0.64200 0.55000 -0.10500
N 	N 	0.55080 0.15590 0.75000 -0.10300
N 	N 	0.05080 0.34410 0.25000 -0.10300
N 	N 	0.41970 0.85800 0.45000 -0.10500
N 	N 	0.56010 0.14210 0.14806 -0.10800
N 	N 	0.41970 0.85800 0.05000 -0.10500
N 	N 	0.90340 0.46040 0.95000 -0.16700
N 	N 	0.40240 0.03680 0.85121 -0.17200
N 	N 	0.94920 0.65590 0.75000 -0.10300
N 	N 	0.06010 0.35790 0.64806 -0.10800
N 	N 	0.40240 0.03680 0.64879 -0.17200
N 	N 	0.43990 0.85790 0.85194 -0.10800
N 	N 	0.09760 0.53680 0.64879 -0.17200
N 	N 	0.93990 0.64210 0.14806 -0.10800
N 	N 	0.58030 0.14200 0.55000 -0.10500
N 	N 	0.09660 0.53960 0.45000 -0.16700
N 	N 	0.09770 0.52020 0.25000 -0.17100
N 	N 	0.91970 0.64200 0.95000 -0.10500
N 	N 	0.08030 0.35800 0.05000 -0.10500
N 	N 	0.44920 0.84410 0.25000 -0.10300
N 	N 	0.59760 0.96320 0.14879 -0.17200
N 	N 	0.09660 0.53960 0.05000 -0.16700
N 	N 	0.90230 0.47980 0.75000 -0.17100
N 	N 	0.90240 0.46320 0.35121 -0.17200
N 	N 	0.59760 0.96320 0.35121 -0.17200
N 	N 	0.59770 0.97980 0.75000 -0.17100
N 	N 	0.06010 0.35790 0.85194 -0.10800
N 	N 	0.58030 0.14200 0.95000 -0.10500
N 	N 	0.90240 0.46320 0.14879 -0.17200
N 	N 	0.43990 0.85790 0.64806 -0.10800
O 	O 	0.01980 0.35020 0.75000 -0.45800
O 	O 	0.26200 0.29590 0.48330 -0.40900
O 	O 	0.64970 0.85440 0.28350 -0.44900
O 	O 	0.74500 0.21500 0.11322 -0.41100
O 	O 	0.88000 0.34060 0.48393 -0.45800
O 	O 	0.23840 0.26660 0.28272 -0.44600
O 	O 	0.35730 0.93430 0.35230 -0.27700
O 	O 	0.35340 0.96010 0.54730 -0.25800
O 	O 	0.47490 0.83970 0.15110 -0.46300
O 	O 	0.76200 0.20410 0.51670 -0.40900
O 	O 	0.14970 0.64560 0.78350 -0.44900
O 	O 	0.12110 0.66020 0.91730 -0.46300
O 	O 	0.14660 0.46010 0.95270 -0.25800
O 	O 	0.85730 0.56570 0.64770 -0.27600
O 	O 	0.74410 0.70880 0.17876 -0.44700
O 	O 	0.97490 0.66030 0.65110 -0.46300
O 	O 	0.35650 0.94250 0.75000 -0.26900
O 	O 	0.64970 0.85440 0.21650 -0.44900
O 	O 	0.26630 0.58100 0.25000 -0.37900
O 	O 	0.35030 0.14560 0.71650 -0.44900
O 	O 	0.02510 0.33970 0.15110 -0.46300
O 	O 	0.75500 0.71500 0.38678 -0.41100
O 	O 	0.66400 0.50030 0.95130 -0.27900
O 	O 	0.97490 0.66030 0.84890 -0.46300
O 	O 	0.83070 0.02750 0.35670 -0.28000
O 	O 	0.25500 0.78500 0.88678 -0.41100
O 	O 	0.14970 0.64560 0.71650 -0.44900
O 	O 	0.35730 0.93430 0.14770 -0.27700
O 	O 	0.73830 0.39480 0.35541 -0.39600
O 	O 	0.85340 0.53990 0.45270 -0.25800
O 	O 	0.85730 0.56570 0.85230 -0.27600
O 	O 	0.64660 0.03990 0.04730 -0.25800
O 	O 	0.98020 0.64980 0.25000 -0.45800
O 	O 	0.35340 0.96010 0.95270 -0.25800
O 	O 	0.83600 0.00030 0.54870 -0.28000
O 	O 	0.28570 0.31240 0.08170 -0.42900
O 	O 	0.66400 0.50030 0.54870 -0.27900
O 	O 	0.14270 0.43430 0.35230 -0.27600
O 	O 	0.25280 0.62410 0.45050 -0.40500
O 	O 	0.38000 0.15940 0.98393 -0.45900
O 	O 	0.13570 0.65160 0.11721 -0.45900
O 	O 	0.74500 0.21500 0.38678 -0.41100
O 	O 	0.75590 0.20880 0.17876 -0.44700
O 	O 	0.64640 0.87340 0.68302 -0.43400
O 	O 	0.67430 0.55220 0.75000 -0.29200
O 	O 	0.95950 0.64940 0.04880 -0.45100
O 	O 	0.73840 0.23340 0.78272 -0.44600
O 	O 	0.23800 0.79590 0.01670 -0.40900
O 	O 	0.24500 0.28500 0.88678 -0.41100
O 	O 	0.33070 0.47250 0.85670 -0.28000
O 	O 	0.64660 0.03990 0.45270 -0.25800
O 	O 	0.76170 0.89480 0.35541 -0.39600
O 	O 	0.73370 0.41900 0.75000 -0.37900
O 	O 	0.51980 0.14980 0.25000 -0.45800
O 	O 	0.21430 0.81240 0.08170 -0.42900
O 	O 	0.85030 0.35440 0.28350 -0.44900
O 	O 	0.35030 0.14560 0.78350 -0.44900
O 	O 	0.76170 0.89480 0.14459 -0.39600
O 	O 	0.24720 0.12410 0.04950 -0.40600
O 	O 	0.71430 0.68760 0.58170 -0.42900
O 	O 	0.24720 0.12410 0.45050 -0.40600
O 	O 	0.25590 0.29120 0.67876 -0.44700
O 	O 	0.23840 0.26660 0.21728 -0.44600
O 	O 	0.54050 0.14940 0.45120 -0.45100
O 	O 	0.25280 0.62410 0.04950 -0.40500
O 	O 	0.21430 0.81240 0.41830 -0.42900
O 	O 	0.74720 0.37590 0.95050 -0.40500
O 	O 	0.75590 0.20880 0.32124 -0.44700
O 	O 	0.16400 0.99970 0.04870 -0.28000
O 	O 	0.24500 0.28500 0.61322 -0.41100
O 	O 	0.26170 0.60520 0.64459 -0.39600
O 	O 	0.52510 0.16030 0.84890 -0.46300
O 	O 	0.26200 0.29590 0.01670 -0.40900
O 	O 	0.85340 0.53990 0.04730 -0.25800
O 	O 	0.25590 0.29120 0.82124 -0.44700
O 	O 	0.62000 0.84060 0.48393 -0.45900
O 	O 	0.62000 0.84060 0.01607 -0.45900
O 	O 	0.14640 0.62660 0.18302 -0.43400
O 	O 	0.66930 0.52750 0.14330 -0.28000
O 	O 	0.12110 0.66020 0.58270 -0.46300
O 	O 	0.35360 0.12660 0.31698 -0.43400
O 	O 	0.85360 0.37340 0.81698 -0.43400
O 	O 	0.12000 0.65940 0.98393 -0.45800
O 	O 	0.17430 0.94780 0.25000 -0.29200
O 	O 	0.48020 0.85020 0.75000 -0.45800
O 	O 	0.26160 0.76660 0.21728 -0.44600
O 	O 	0.04050 0.35060 0.95120 -0.45100
O 	O 	0.64350 0.05750 0.25000 -0.26900
O 	O 	0.52510 0.16030 0.65110 -0.46300
O 	O 	0.16930 0.97250 0.64330 -0.28000
O 	O 	0.85650 0.55750 0.25000 -0.26800
O 	O 	0.37890 0.16020 0.58270 -0.46300
O 	O 	0.14270 0.43430 0.14770 -0.27600
O 	O 	0.88000 0.34060 0.01607 -0.45800
O 	O 	0.73800 0.70410 0.98330 -0.40900
O 	O 	0.78570 0.18760 0.58170 -0.42900
O 	O 	0.66930 0.52750 0.35670 -0.28000
O 	O 	0.32570 0.44780 0.25000 -0.29200
O 	O 	0.64270 0.06570 0.85230 -0.27700
O 	O 	0.28570 0.31240 0.41830 -0.42900
O 	O 	0.12000 0.65940 0.51607 -0.45800
O 	O 	0.33600 0.49970 0.45130 -0.27900
O 	O 	0.24410 0.79120 0.67876 -0.44700
O 	O 	0.73800 0.70410 0.51670 -0.40900
O 	O 	0.25500 0.78500 0.61322 -0.41100
O 	O 	0.75280 0.87590 0.54950 -0.40600
O 	O 	0.76160 0.73340 0.71728 -0.44600
O 	O 	0.26160 0.76660 0.28272 -0.44600
O 	O 	0.23830 0.10520 0.85541 -0.39600
O 	O 	0.62110 0.83980 0.41730 -0.46300
O 	O 	0.36430 0.15160 0.11721 -0.45900
O 	O 	0.85030 0.35440 0.21650 -0.44900
O 	O 	0.26170 0.60520 0.85541 -0.39600
O 	O 	0.85360 0.37340 0.68302 -0.43400
O 	O 	0.54050 0.14940 0.04880 -0.45100
O 	O 	0.45950 0.85060 0.54880 -0.45100
O 	O 	0.23830 0.10520 0.64459 -0.39600
O 	O 	0.87890 0.33980 0.41730 -0.46300
O 	O 	0.63570 0.84840 0.61721 -0.45900
O 	O 	0.16400 0.99970 0.45130 -0.28000
O 	O 	0.75500 0.71500 0.11322 -0.41100
O 	O 	0.83070 0.02750 0.14330 -0.28000
O 	O 	0.83600 0.00030 0.95130 -0.28000
O 	O 	0.76630 0.91900 0.75000 -0.37800
O 	O 	0.76160 0.73340 0.78272 -0.44600
O 	O 	0.14350 0.44250 0.75000 -0.26800
O 	O 	0.33070 0.47250 0.64330 -0.28000
O 	O 	0.87890 0.33980 0.08270 -0.46300
O 	O 	0.04050 0.35060 0.54880 -0.45100
O 	O 	0.16930 0.97250 0.85670 -0.28000
O 	O 	0.35360 0.12660 0.18302 -0.43400
O 	O 	0.86430 0.34840 0.61721 -0.45900
O 	O 	0.24410 0.79120 0.82124 -0.44700
O 	O 	0.73830 0.39480 0.14459 -0.39600
O 	O 	0.37890 0.16020 0.91730 -0.46300
O 	O 	0.74410 0.70880 0.32124 -0.44700
O 	O 	0.78570 0.18760 0.91830 -0.42900
O 	O 	0.82570 0.05220 0.75000 -0.29200
O 	O 	0.13570 0.65160 0.38279 -0.45900
O 	O 	0.71430 0.68760 0.91830 -0.42900
O 	O 	0.86430 0.34840 0.88279 -0.45900
O 	O 	0.64640 0.87340 0.81698 -0.43400
O 	O 	0.47490 0.83970 0.34890 -0.46300
O 	O 	0.38000 0.15940 0.51607 -0.45900
O 	O 	0.95950 0.64940 0.45120 -0.45100
O 	O 	0.64270 0.06570 0.64770 -0.27700
O 	O 	0.45950 0.85060 0.95120 -0.45100
O 	O 	0.14640 0.62660 0.31698 -0.43400
O 	O 	0.14660 0.46010 0.54730 -0.25800
O 	O 	0.75280 0.87590 0.95050 -0.40600
O 	O 	0.23800 0.79590 0.48330 -0.40900
O 	O 	0.63570 0.84840 0.88279 -0.45900
O 	O 	0.76200 0.20410 0.98330 -0.40900
O 	O 	0.36430 0.15160 0.38279 -0.45900
O 	O 	0.73840 0.23340 0.71728 -0.44600
O 	O 	0.02510 0.33970 0.34890 -0.46300
O 	O 	0.33600 0.49970 0.04870 -0.27900
O 	O 	0.62110 0.83980 0.08270 -0.46300
O 	O 	0.23370 0.08100 0.25000 -0.37800
O 	O 	0.74720 0.37590 0.54950 -0.40500
