data_crystal

_cell_length_a 12.84320
_cell_length_b 19.56070
_cell_length_c 25.69100
_cell_angle_alpha 79.22400
_cell_angle_beta  78.86400
_cell_angle_gamma 71.24400

_symmetry_space_group_name_	'P 1'
_symmetry_space_group_name_H-M	'P 1'

loop_
_symmetry_equiv_pos_as_xyz
  x,y,z

loop_
_atom_site_label
_atom_site_type_symbol
_atom_site_fract_x
_atom_site_fract_y
_atom_site_fract_z
_atom_site_charge
Mn	Mn	0.68964 0.37490 0.38288 1.25100
Mn	Mn	0.74210 0.45115 0.26276 1.32600
Mn	Mn	0.65876 0.31032 0.27985 1.32400
Mn	Mn	0.50547 0.46495 0.24321 1.33200
Mn	Mn	0.53006 0.52976 0.33825 1.33100
Mn	Mn	0.44389 0.39025 0.35793 1.32400
Na	Na	0.91400 0.28803 0.30370 0.58300
Na	Na	0.44780 0.45384 0.46699 0.59100
Na	Na	0.57840 0.62490 0.21315 0.58400
O 	O 	0.58900 0.42620 0.30647 -0.87600
C 	C 	0.78110 0.52670 0.36460 -0.19700
C 	C 	0.68710 0.51790 0.41020 0.13700
H 	H 	0.72040 0.48870 0.44200 -0.04200
H 	H 	0.64290 0.56670 0.42000 -0.01700
O 	O 	0.61350 0.48350 0.39691 -0.59000
C 	C 	0.73480 0.57450 0.31580 0.14100
H 	H 	0.69110 0.62320 0.32580 -0.03100
H 	H 	0.79740 0.58080 0.28810 -0.03000
O 	O 	0.66430 0.54600 0.29297 -0.58600
C 	C 	0.85900 0.45230 0.34990 0.15500
H 	H 	0.92220 0.46060 0.32330 -0.02800
H 	H 	0.88940 0.42290 0.38230 -0.06800
O 	O 	0.80600 0.41140 0.32828 -0.62400
C 	C 	0.85170 0.56700 0.38310 0.12700
H 	H 	0.90050 0.58230 0.35140 -0.02200
H 	H 	0.80060 0.61170 0.39690 -0.02000
C 	C 	0.92370 0.52400 0.42570 -0.46600
H 	H 	0.87700 0.50780 0.45740 0.15200
H 	H 	0.96150 0.55500 0.43550 0.14000
H 	H 	0.97920 0.48150 0.41170 0.14300
C 	C 	0.72440 0.38690 0.15120 -0.17700
C 	C 	0.62130 0.36020 0.16720 0.11500
H 	H 	0.56560 0.38860 0.14350 -0.00600
H 	H 	0.64230 0.30850 0.16170 -0.00200
O 	O 	0.57100 0.36690 0.22251 -0.54600
C 	C 	0.81440 0.34390 0.18630 0.13200
H 	H 	0.83650 0.29180 0.18170 -0.01700
H 	H 	0.88060 0.36130 0.17380 -0.01000
O 	O 	0.78030 0.35040 0.24246 -0.58500
C 	C 	0.69570 0.46910 0.15390 0.15100
H 	H 	0.76380 0.48430 0.14120 -0.02700
H 	H 	0.64120 0.49610 0.12920 -0.02500
O 	O 	0.65130 0.48890 0.20581 -0.57800
C 	C 	0.77620 0.37080 0.09290 0.10500
H 	H 	0.84700 0.38320 0.08380 -0.01700
H 	H 	0.79390 0.31790 0.09200 -0.01900
C 	C 	0.70360 0.41140 0.04990 -0.44000
H 	H 	0.69960 0.46310 0.04440 0.13400
H 	H 	0.62870 0.40650 0.06120 0.13700
H 	H 	0.73570 0.39090 0.01630 0.12300
C 	C 	0.60460 0.22050 0.40380 -0.22000
C 	C 	0.72250 0.21890 0.37870 0.16900
H 	H 	0.76820 0.21000 0.40760 -0.06400
H 	H 	0.75410 0.17770 0.35750 -0.02500
O 	O 	0.73020 0.28440 0.34475 -0.62500
C 	C 	0.55430 0.28080 0.44050 0.16000
H 	H 	0.48060 0.27720 0.45880 -0.02700
H 	H 	0.60240 0.27150 0.46850 -0.06400
O 	O 	0.54140 0.35370 0.41374 -0.61500
C 	C 	0.53250 0.23070 0.36160 0.16300
H 	H 	0.56340 0.18930 0.34060 -0.02600
H 	H 	0.45730 0.22970 0.37950 -0.02500
O 	O 	0.52290 0.29700 0.32600 -0.55100
C 	C 	0.60750 0.14760 0.44120 0.14600
H 	H 	0.63570 0.14870 0.47410 -0.03000
H 	H 	0.53030 0.14520 0.45170 -0.02700
C 	C 	0.67830 0.07720 0.41770 -0.50300
H 	H 	0.66200 0.07970 0.38160 0.17800
H 	H 	0.66070 0.03520 0.44060 0.15600
H 	H 	0.75730 0.07210 0.41610 0.16000
C 	C 	0.26340 0.55490 0.31980 -0.20000
C 	C 	0.33600 0.59660 0.28090 0.14500
H 	H 	0.31160 0.60730 0.24520 -0.01900
H 	H 	0.32450 0.64360 0.29350 -0.01700
O 	O 	0.45350 0.55730 0.27557 -0.58300
C 	C 	0.29480 0.53880 0.37440 0.16200
H 	H 	0.28540 0.58550 0.38720 -0.02900
H 	H 	0.24300 0.51500 0.39870 -0.03000
O 	O 	0.40640 0.49310 0.37795 -0.58400
C 	C 	0.27060 0.48480 0.29810 0.15000
H 	H 	0.21740 0.46160 0.32180 -0.02200
H 	H 	0.24700 0.49850 0.26220 -0.02000
O 	O 	0.37710 0.43300 0.29420 -0.53700
C 	C 	0.14050 0.60290 0.31980 0.12300
H 	H 	0.12410 0.61330 0.28260 -0.02400
H 	H 	0.09210 0.57410 0.34100 -0.02000
C 	C 	0.10890 0.67490 0.34180 -0.45600
H 	H 	0.12400 0.66570 0.37890 0.13600
H 	H 	0.02960 0.69970 0.34090 0.13300
H 	H 	0.15260 0.70560 0.32000 0.14400
C 	C 	0.98200 0.43340 0.22180 0.59500
O 	O 	0.00780 0.37010 0.24140 -0.43400
O 	O 	0.88020 0.47490 0.22060 -0.50100
C 	C 	0.06630 0.47140 0.19520 -0.89200
H 	H 	0.14030 0.44070 0.20270 0.28300
H 	H 	0.04880 0.51780 0.20910 0.27600
H 	H 	0.06520 0.48060 0.15650 0.27400
C 	C 	0.81820 0.17600 0.24000 0.59600
O 	O 	0.88760 0.18160 0.26620 -0.46600
O 	O 	0.71540 0.21240 0.24634 -0.52400
C 	C 	0.85780 0.12710 0.19690 -0.93300
H 	H 	0.92160 0.13830 0.17330 0.29900
H 	H 	0.79770 0.13500 0.17610 0.29500
H 	H 	0.88000 0.07610 0.21340 0.29400
C 	C 	0.27220 0.37050 0.45180 0.57200
O 	O 	0.30540 0.40080 0.48000 -0.43600
O 	O 	0.31210 0.36230 0.40270 -0.50600
C 	C 	0.17610 0.33990 0.47340 -0.83800
H 	H 	0.14520 0.35250 0.50950 0.25500
H 	H 	0.20200 0.28680 0.47470 0.25000
H 	H 	0.11850 0.36060 0.45000 0.24700
C 	C 	0.45750 0.69080 0.34410 0.58700
O 	O 	0.48960 0.70110 0.29580 -0.47800
O 	O 	0.46370 0.62730 0.37045 -0.51800
C 	C 	0.41300 0.75360 0.37630 -0.89200
H 	H 	0.47460 0.77000 0.38130 0.26300
H 	H 	0.37550 0.73790 0.41140 0.26500
H 	H 	0.36000 0.79380 0.35730 0.28200
C 	C 	0.41430 0.56400 0.15350 0.52400
O 	O 	0.46040 0.61040 0.15660 -0.41800
O 	O 	0.42330 0.50260 0.18370 -0.50500
C 	C 	0.34350 0.57980 0.10870 -0.77500
H 	H 	0.26470 0.59170 0.12400 0.23100
H 	H 	0.36360 0.53680 0.09040 0.23700
H 	H 	0.35670 0.62110 0.08310 0.22900
O 	O 	0.41570 0.57820 0.47680 -0.78500
H 	H 	0.43150 0.59680 0.44530 0.34600
H 	H 	0.36840 0.61180 0.49200 0.28100
Mn	Mn	0.23412 0.05706 0.15445 1.32700
Mn	Mn	0.29866 0.96346 0.26136 1.32900
Mn	Mn	0.31171 0.11885 0.24138 1.32900
Mn	Mn	0.53172 0.98624 0.24411 1.32800
Mn	Mn	0.45700 0.92283 0.15663 1.32000
Mn	Mn	0.47560 0.08855 0.13268 1.28800
Na	Na	0.05880 0.10401 0.27771 0.58900
Na	Na	0.37760 0.02656 0.03759 0.59300
Na	Na	0.55280 0.79581 0.25453 0.57800
Na	Na	0.58390 0.15558 0.21968 0.58200
O 	O 	0.37540 0.01910 0.20465 -0.88700
C 	C 	0.20880 0.88560 0.17480 -0.26800
C 	C 	0.25940 0.91470 0.12030 0.17600
H 	H 	0.31000 0.87320 0.10230 -0.03700
H 	H 	0.19930 0.94020 0.09820 -0.02900
O 	O 	0.32060 0.96440 0.12262 -0.58900
C 	C 	0.12400 0.94810 0.20280 0.18100
H 	H 	0.06480 0.97300 0.18020 -0.03300
H 	H 	0.08900 0.92700 0.23710 -0.03400
O 	O 	0.16960 0.00130 0.21340 -0.57200
C 	C 	0.29780 0.84130 0.20950 0.17800
H 	H 	0.26090 0.82340 0.24450 -0.02600
H 	H 	0.34430 0.79810 0.19220 -0.03100
O 	O 	0.36930 0.88000 0.21877 -0.58200
C 	C 	0.14170 0.83570 0.16660 0.34000
H 	H 	0.10350 0.82070 0.20220 -0.08500
H 	H 	0.08320 0.86600 0.14480 -0.08200
C 	C 	0.19770 0.77250 0.14260 -0.72800
H 	H 	0.21670 0.78590 0.10400 0.21300
H 	H 	0.14980 0.74080 0.14870 0.21500
H 	H 	0.26590 0.74660 0.15830 0.23500
C 	C 	0.37570 0.02330 0.36310 -0.19700
C 	C 	0.44230 0.07440 0.33140 0.15400
H 	H 	0.40610 0.12380 0.34160 -0.01800
H 	H 	0.51780 0.05730 0.34180 -0.02200
O 	O 	0.45180 0.07850 0.27518 -0.57200
C 	C 	0.25750 0.04870 0.35110 0.15600
H 	H 	0.21790 0.01440 0.37220 -0.02100
H 	H 	0.22010 0.09700 0.36330 -0.02300
O 	O 	0.24730 0.05440 0.29540 -0.59500
C 	C 	0.43160 0.94510 0.35180 0.14400
H 	H 	0.50590 0.92810 0.36340 -0.02400
H 	H 	0.38740 0.91400 0.37360 -0.02600
O 	O 	0.44420 0.93550 0.29649 -0.56300
C 	C 	0.37100 0.02260 0.42370 0.11800
H 	H 	0.33090 0.98770 0.44310 -0.01900
H 	H 	0.44810 0.00340 0.43210 -0.01900
C 	C 	0.31660 0.09500 0.44640 -0.45500
H 	H 	0.35330 0.13110 0.42700 0.14900
H 	H 	0.32390 0.08780 0.48450 0.13400
H 	H 	0.23770 0.11250 0.44220 0.13900
C 	C 	0.23210 0.23340 0.12950 -0.19600
C 	C 	0.27280 0.18430 0.08570 0.15100
H 	H 	0.20910 0.18830 0.06770 -0.02600
H 	H 	0.32760 0.20230 0.05870 -0.03700
O 	O 	0.32300 0.10890 0.10396 -0.59500
C 	C 	0.32690 0.23510 0.15560 0.14800
H 	H 	0.38020 0.25330 0.12770 -0.02600
H 	H 	0.29710 0.27040 0.18170 -0.01200
O 	O 	0.38600 0.16640 0.18253 -0.59300
C 	C 	0.14440 0.20950 0.17110 0.14100
H 	H 	0.11500 0.24480 0.19730 -0.00700
H 	H 	0.08200 0.21100 0.15310 -0.02100
O 	O 	0.18440 0.13810 0.19925 -0.57800
C 	C 	0.17360 0.31130 0.10420 0.11300
H 	H 	0.11470 0.30850 0.08560 -0.01600
H 	H 	0.13650 0.34090 0.13360 -0.00900
C 	C 	0.24560 0.35190 0.06470 -0.45100
H 	H 	0.27280 0.38000 0.08390 0.13800
H 	H 	0.20150 0.38510 0.03800 0.13300
H 	H 	0.30890 0.31680 0.04670 0.14000
C 	C 	0.71770 0.94210 0.13200 -0.22600
C 	C 	0.70510 0.00940 0.15740 0.15700
H 	H 	0.75830 0.99590 0.18350 -0.02800
H 	H 	0.72590 0.04660 0.12910 -0.03600
O 	O 	0.59510 0.04160 0.18434 -0.60000
C 	C 	0.68900 0.88260 0.17400 0.16200
H 	H 	0.70180 0.83890 0.15660 -0.04400
H 	H 	0.74000 0.86920 0.20110 -0.03700
O 	O 	0.57600 0.90260 0.20082 -0.60800
C 	C 	0.64330 0.96150 0.08730 0.15300
H 	H 	0.66560 0.99890 0.05980 -0.02800
H 	H 	0.65840 0.91750 0.06990 -0.02200
O 	O 	0.52700 0.98760 0.10394 -0.57200
C 	C 	0.84000 0.91540 0.10800 0.21800
H 	H 	0.85480 0.95160 0.07720 -0.04200
H 	H 	0.88590 0.91430 0.13520 -0.04500
C 	C 	0.87740 0.84380 0.08980 -0.57400
H 	H 	0.86330 0.80720 0.11970 0.17600
H 	H 	0.95710 0.83150 0.07650 0.17100
H 	H 	0.83670 0.84490 0.06090 0.19200
C 	C 	0.11710 0.93150 0.33830 0.59700
O 	O 	0.05620 0.99370 0.33130 -0.45500
O 	O 	0.22120 0.90960 0.31560 -0.53100
C 	C 	0.08040 0.87250 0.37420 -0.89100
H 	H 	0.12670 0.85320 0.40290 0.26500
H 	H 	0.08760 0.83330 0.35360 0.26700
H 	H 	0.00260 0.89170 0.38980 0.26400
C 	C 	0.10690 0.08680 0.06300 0.56300
O 	O 	0.19010 0.06590 0.03040 -0.42900
O 	O 	0.10490 0.08620 0.11271 -0.51200
C 	C 	0.99170 0.11220 0.04500 -0.81400
H 	H 	0.96650 0.16560 0.03820 0.24200
H 	H 	0.93900 0.09500 0.07320 0.25600
H 	H 	0.99590 0.09230 0.01210 0.25400
C 	C 	0.16230 0.23140 0.30820 0.60000
O 	O 	0.25950 0.20640 0.28210 -0.49400
O 	O 	0.08480 0.20640 0.30955 -0.48900
C 	C 	0.15050 0.29260 0.33860 -0.90800
H 	H 	0.14360 0.33790 0.31380 0.29700
H 	H 	0.21620 0.28160 0.35640 0.29700
H 	H 	0.08400 0.29820 0.36560 0.25700
C 	C 	0.61010 0.18380 0.07790 0.58000
O 	O 	0.55320 0.14490 0.06886 -0.53800
O 	O 	0.62330 0.19000 0.12250 -0.45000
C 	C 	0.66280 0.22250 0.02910 -0.85600
H 	H 	0.60730 0.26690 0.01600 0.25100
H 	H 	0.69140 0.19050 0.00110 0.25500
H 	H 	0.72410 0.23540 0.03820 0.26000
C 	C 	0.55910 0.77040 0.12700 0.57100
O 	O 	0.56150 0.74660 0.17493 -0.48600
O 	O 	0.52160 0.83850 0.10912 -0.51100
C 	C 	0.60140 0.71960 0.08460 -0.86600
H 	H 	0.60650 0.74820 0.04910 0.26300
H 	H 	0.55000 0.69100 0.08690 0.26800
H 	H 	0.67500 0.68660 0.09060 0.25400
C 	C 	0.72420 0.98630 0.29230 0.60100
O 	O 	0.66450 0.94780 0.28416 -0.50600
O 	O 	0.69910 0.05330 0.27910 -0.42800
C 	C 	0.82370 0.94550 0.31710 -0.94500
H 	H 	0.86610 0.90400 0.29790 0.29000
H 	H 	0.80180 0.92780 0.35460 0.28100
H 	H 	0.86980 0.97750 0.31540 0.30000
O 	O 	0.50830 0.08630 0.98953 -0.83000
H 	H 	0.53470 0.10090 0.01110 0.36300
H 	H 	0.49220 0.12100 0.96500 0.37300
Mn	Mn	0.31036 0.62510 0.61712 1.25000
Mn	Mn	0.25790 0.54885 0.73724 1.32500
Mn	Mn	0.34124 0.68968 0.72015 1.32300
Mn	Mn	0.49453 0.53505 0.75679 1.33100
Mn	Mn	0.46994 0.47024 0.66175 1.33000
Mn	Mn	0.55611 0.60975 0.64207 1.32300
Na	Na	0.08600 0.71197 0.69630 0.58200
Na	Na	0.55220 0.54616 0.53301 0.59000
Na	Na	0.42160 0.37510 0.78685 0.58300
O 	O 	0.41100 0.57380 0.69353 -0.87700
C 	C 	0.21890 0.47330 0.63540 -0.19800
C 	C 	0.31290 0.48210 0.58980 0.13600
H 	H 	0.27960 0.51130 0.55800 -0.04200
H 	H 	0.35710 0.43330 0.58000 -0.01700
O 	O 	0.38650 0.51650 0.60309 -0.59000
C 	C 	0.26520 0.42550 0.68420 0.14100
H 	H 	0.30890 0.37680 0.67420 -0.03100
H 	H 	0.20260 0.41920 0.71190 -0.03000
O 	O 	0.33570 0.45400 0.70703 -0.58600
C 	C 	0.14100 0.54770 0.65010 0.15500
H 	H 	0.07780 0.53940 0.67670 -0.02800
H 	H 	0.11060 0.57710 0.61770 -0.06800
O 	O 	0.19400 0.58860 0.67172 -0.62400
C 	C 	0.14830 0.43300 0.61690 0.12700
H 	H 	0.09950 0.41770 0.64860 -0.02200
H 	H 	0.19940 0.38830 0.60310 -0.02000
C 	C 	0.07630 0.47600 0.57430 -0.46600
H 	H 	0.12300 0.49220 0.54260 0.15200
H 	H 	0.03850 0.44500 0.56450 0.14000
H 	H 	0.02080 0.51850 0.58830 0.14300
C 	C 	0.27560 0.61310 0.84880 -0.17700
C 	C 	0.37870 0.63980 0.83280 0.11500
H 	H 	0.43440 0.61140 0.85650 -0.00600
H 	H 	0.35770 0.69150 0.83830 -0.00200
O 	O 	0.42900 0.63310 0.77749 -0.54600
C 	C 	0.18560 0.65610 0.81370 0.13200
H 	H 	0.16350 0.70820 0.81830 -0.01700
H 	H 	0.11940 0.63870 0.82620 -0.01000
O 	O 	0.21970 0.64960 0.75754 -0.58500
C 	C 	0.30430 0.53090 0.84610 0.15100
H 	H 	0.23620 0.51570 0.85880 -0.02700
H 	H 	0.35880 0.50390 0.87080 -0.02500
O 	O 	0.34870 0.51110 0.79419 -0.57800
C 	C 	0.22380 0.62920 0.90710 0.10500
H 	H 	0.15300 0.61680 0.91620 -0.01700
H 	H 	0.20610 0.68210 0.90800 -0.01900
C 	C 	0.29640 0.58860 0.95010 -0.44000
H 	H 	0.30040 0.53690 0.95560 0.13400
H 	H 	0.37130 0.59350 0.93880 0.13700
H 	H 	0.26430 0.60910 0.98370 0.12300
C 	C 	0.39540 0.77950 0.59620 -0.22000
C 	C 	0.27750 0.78110 0.62130 0.16900
H 	H 	0.23180 0.79000 0.59240 -0.06400
H 	H 	0.24590 0.82230 0.64250 -0.02500
O 	O 	0.26980 0.71560 0.65525 -0.62500
C 	C 	0.44570 0.71920 0.55950 0.16000
H 	H 	0.51940 0.72280 0.54120 -0.02700
H 	H 	0.39760 0.72850 0.53150 -0.06400
O 	O 	0.45860 0.64630 0.58626 -0.61500
C 	C 	0.46750 0.76930 0.63840 0.16300
H 	H 	0.43660 0.81070 0.65940 -0.02600
H 	H 	0.54270 0.77030 0.62050 -0.02500
O 	O 	0.47710 0.70300 0.67400 -0.55100
C 	C 	0.39250 0.85240 0.55880 0.14600
H 	H 	0.36430 0.85130 0.52590 -0.03000
H 	H 	0.46970 0.85480 0.54830 -0.02700
C 	C 	0.32170 0.92280 0.58230 -0.50300
H 	H 	0.33800 0.92030 0.61840 0.17800
H 	H 	0.33930 0.96480 0.55940 0.15600
H 	H 	0.24270 0.92790 0.58390 0.16000
C 	C 	0.73660 0.44510 0.68020 -0.20000
C 	C 	0.66400 0.40340 0.71910 0.14500
H 	H 	0.68840 0.39270 0.75480 -0.01900
H 	H 	0.67550 0.35640 0.70650 -0.01700
O 	O 	0.54650 0.44270 0.72443 -0.58300
C 	C 	0.70520 0.46120 0.62560 0.16200
H 	H 	0.71460 0.41450 0.61280 -0.02900
H 	H 	0.75700 0.48500 0.60130 -0.03000
O 	O 	0.59360 0.50690 0.62205 -0.58400
C 	C 	0.72940 0.51520 0.70190 0.15000
H 	H 	0.78260 0.53840 0.67820 -0.02200
H 	H 	0.75300 0.50150 0.73780 -0.02000
O 	O 	0.62290 0.56700 0.70580 -0.53700
C 	C 	0.85950 0.39710 0.68020 0.12300
H 	H 	0.87590 0.38670 0.71740 -0.02400
H 	H 	0.90790 0.42590 0.65900 -0.02000
C 	C 	0.89110 0.32510 0.65820 -0.45600
H 	H 	0.87600 0.33430 0.62110 0.13600
H 	H 	0.97040 0.30030 0.65910 0.13300
H 	H 	0.84740 0.29440 0.68000 0.14400
C 	C 	0.01800 0.56660 0.77820 0.59500
O 	O 	0.99220 0.62990 0.75860 -0.43400
O 	O 	0.11980 0.52510 0.77940 -0.50100
C 	C 	0.93370 0.52860 0.80480 -0.89200
H 	H 	0.85970 0.55930 0.79730 0.28300
H 	H 	0.95120 0.48220 0.79090 0.27600
H 	H 	0.93480 0.51940 0.84350 0.27400
C 	C 	0.18180 0.82400 0.76000 0.59600
O 	O 	0.11240 0.81840 0.73380 -0.46600
O 	O 	0.28460 0.78760 0.75366 -0.52400
C 	C 	0.14220 0.87290 0.80310 -0.93300
H 	H 	0.07840 0.86170 0.82670 0.29900
H 	H 	0.20230 0.86500 0.82390 0.29500
H 	H 	0.12000 0.92390 0.78660 0.29400
C 	C 	0.72780 0.62950 0.54820 0.57200
O 	O 	0.69460 0.59920 0.52000 -0.43600
O 	O 	0.68790 0.63770 0.59730 -0.50600
C 	C 	0.82390 0.66010 0.52660 -0.83800
H 	H 	0.85480 0.64750 0.49050 0.25500
H 	H 	0.79800 0.71320 0.52530 0.25000
H 	H 	0.88150 0.63940 0.55000 0.24700
C 	C 	0.54250 0.30920 0.65590 0.58700
O 	O 	0.51040 0.29890 0.70420 -0.47800
O 	O 	0.53630 0.37270 0.62955 -0.51800
C 	C 	0.58700 0.24640 0.62370 -0.89200
H 	H 	0.52540 0.23000 0.61870 0.26300
H 	H 	0.62450 0.26210 0.58860 0.26500
H 	H 	0.64000 0.20620 0.64270 0.28200
C 	C 	0.58570 0.43600 0.84650 0.52400
O 	O 	0.53960 0.38960 0.84340 -0.41800
O 	O 	0.57670 0.49740 0.81630 -0.50500
C 	C 	0.65650 0.42020 0.89130 -0.77500
H 	H 	0.73530 0.40830 0.87600 0.23100
H 	H 	0.63640 0.46320 0.90960 0.23700
H 	H 	0.64330 0.37890 0.91690 0.22900
O 	O 	0.58430 0.42180 0.52320 -0.78500
H 	H 	0.56850 0.40320 0.55470 0.34600
H 	H 	0.63160 0.38820 0.50800 0.28100
Mn	Mn	0.76588 0.94294 0.84555 1.32700
Mn	Mn	0.70134 0.03654 0.73864 1.32900
Mn	Mn	0.68829 0.88115 0.75862 1.32900
Mn	Mn	0.46828 0.01376 0.75589 1.32800
Mn	Mn	0.54300 0.07717 0.84337 1.32000
Mn	Mn	0.52440 0.91145 0.86732 1.28800
Na	Na	0.94120 0.89599 0.72229 0.58900
Na	Na	0.62240 0.97344 0.96241 0.59300
Na	Na	0.44720 0.20419 0.74547 0.57800
Na	Na	0.41610 0.84442 0.78032 0.58200
O 	O 	0.62460 0.98090 0.79535 -0.88700
C 	C 	0.79120 0.11440 0.82520 -0.26800
C 	C 	0.74060 0.08530 0.87970 0.17600
H 	H 	0.69000 0.12680 0.89770 -0.03700
H 	H 	0.80070 0.05980 0.90180 -0.02900
O 	O 	0.67940 0.03560 0.87738 -0.58900
C 	C 	0.87600 0.05190 0.79720 0.18100
H 	H 	0.93520 0.02700 0.81980 -0.03300
H 	H 	0.91100 0.07300 0.76290 -0.03400
O 	O 	0.83040 0.99870 0.78660 -0.57200
C 	C 	0.70220 0.15870 0.79050 0.17800
H 	H 	0.73910 0.17660 0.75550 -0.02600
H 	H 	0.65570 0.20190 0.80780 -0.03100
O 	O 	0.63070 0.12000 0.78123 -0.58200
C 	C 	0.85830 0.16430 0.83340 0.34000
H 	H 	0.89650 0.17930 0.79780 -0.08500
H 	H 	0.91680 0.13400 0.85520 -0.08200
C 	C 	0.80230 0.22750 0.85740 -0.72800
H 	H 	0.78330 0.21410 0.89600 0.21300
H 	H 	0.85020 0.25920 0.85130 0.21500
H 	H 	0.73410 0.25340 0.84170 0.23500
C 	C 	0.62430 0.97670 0.63690 -0.19700
C 	C 	0.55770 0.92560 0.66860 0.15400
H 	H 	0.59390 0.87620 0.65840 -0.01800
H 	H 	0.48220 0.94270 0.65820 -0.02200
O 	O 	0.54820 0.92150 0.72482 -0.57200
C 	C 	0.74250 0.95130 0.64890 0.15600
H 	H 	0.78210 0.98560 0.62780 -0.02100
H 	H 	0.77990 0.90300 0.63670 -0.02300
O 	O 	0.75270 0.94560 0.70460 -0.59500
C 	C 	0.56840 0.05490 0.64820 0.14400
H 	H 	0.49410 0.07190 0.63660 -0.02400
H 	H 	0.61260 0.08600 0.62640 -0.02600
O 	O 	0.55580 0.06450 0.70351 -0.56300
C 	C 	0.62900 0.97740 0.57630 0.11800
H 	H 	0.66910 0.01230 0.55690 -0.01900
H 	H 	0.55190 0.99660 0.56790 -0.01900
C 	C 	0.68340 0.90500 0.55360 -0.45500
H 	H 	0.64670 0.86890 0.57300 0.14900
H 	H 	0.67610 0.91220 0.51550 0.13400
H 	H 	0.76230 0.88750 0.55780 0.13900
C 	C 	0.76790 0.76660 0.87050 -0.19600
C 	C 	0.72720 0.81570 0.91430 0.15100
H 	H 	0.79090 0.81170 0.93230 -0.02600
H 	H 	0.67240 0.79770 0.94130 -0.03700
O 	O 	0.67700 0.89110 0.89604 -0.59500
C 	C 	0.67310 0.76490 0.84440 0.14800
H 	H 	0.61980 0.74670 0.87230 -0.02600
H 	H 	0.70290 0.72960 0.81830 -0.01200
O 	O 	0.61400 0.83360 0.81747 -0.59300
C 	C 	0.85560 0.79050 0.82890 0.14100
H 	H 	0.88500 0.75520 0.80270 -0.00700
H 	H 	0.91800 0.78900 0.84690 -0.02100
O 	O 	0.81560 0.86190 0.80075 -0.57800
C 	C 	0.82640 0.68870 0.89580 0.11300
H 	H 	0.88530 0.69150 0.91440 -0.01600
H 	H 	0.86350 0.65910 0.86640 -0.00900
C 	C 	0.75440 0.64810 0.93530 -0.45100
H 	H 	0.72720 0.62000 0.91610 0.13800
H 	H 	0.79850 0.61490 0.96200 0.13300
H 	H 	0.69110 0.68320 0.95330 0.14000
C 	C 	0.28230 0.05790 0.86800 -0.22600
C 	C 	0.29490 0.99060 0.84260 0.15700
H 	H 	0.24170 0.00410 0.81650 -0.02800
H 	H 	0.27410 0.95340 0.87090 -0.03600
O 	O 	0.40490 0.95840 0.81566 -0.60000
C 	C 	0.31100 0.11740 0.82600 0.16200
H 	H 	0.29820 0.16110 0.84340 -0.04400
H 	H 	0.26000 0.13080 0.79890 -0.03700
O 	O 	0.42400 0.09740 0.79918 -0.60800
C 	C 	0.35670 0.03850 0.91270 0.15300
H 	H 	0.33440 0.00110 0.94020 -0.02800
H 	H 	0.34160 0.08250 0.93010 -0.02200
O 	O 	0.47300 0.01240 0.89606 -0.57200
C 	C 	0.16000 0.08460 0.89200 0.21800
H 	H 	0.14520 0.04840 0.92280 -0.04200
H 	H 	0.11410 0.08570 0.86480 -0.04500
C 	C 	0.12260 0.15620 0.91020 -0.57400
H 	H 	0.13670 0.19280 0.88030 0.17600
H 	H 	0.04290 0.16850 0.92350 0.17100
H 	H 	0.16330 0.15510 0.93910 0.19200
C 	C 	0.88290 0.06850 0.66170 0.59700
O 	O 	0.94380 0.00630 0.66870 -0.45500
O 	O 	0.77880 0.09040 0.68440 -0.53100
C 	C 	0.91960 0.12750 0.62580 -0.89100
H 	H 	0.87330 0.14680 0.59710 0.26500
H 	H 	0.91240 0.16670 0.64640 0.26700
H 	H 	0.99740 0.10830 0.61020 0.26400
C 	C 	0.89310 0.91320 0.93700 0.56300
O 	O 	0.80990 0.93410 0.96960 -0.42900
O 	O 	0.89510 0.91380 0.88729 -0.51200
C 	C 	0.00830 0.88780 0.95500 -0.81400
H 	H 	0.03350 0.83440 0.96180 0.24200
H 	H 	0.06100 0.90500 0.92680 0.25600
H 	H 	0.00410 0.90770 0.98790 0.25400
C 	C 	0.83770 0.76860 0.69180 0.60000
O 	O 	0.74050 0.79360 0.71790 -0.49400
O 	O 	0.91520 0.79360 0.69045 -0.48900
C 	C 	0.84950 0.70740 0.66140 -0.90800
H 	H 	0.85640 0.66210 0.68620 0.29700
H 	H 	0.78380 0.71840 0.64360 0.29700
H 	H 	0.91600 0.70180 0.63440 0.25700
C 	C 	0.38990 0.81620 0.92210 0.58000
O 	O 	0.44680 0.85510 0.93114 -0.53800
O 	O 	0.37670 0.81000 0.87750 -0.45000
C 	C 	0.33720 0.77750 0.97090 -0.85600
H 	H 	0.39270 0.73310 0.98400 0.25100
H 	H 	0.30860 0.80950 0.99890 0.25500
H 	H 	0.27590 0.76460 0.96180 0.26000
C 	C 	0.44090 0.22960 0.87300 0.57100
O 	O 	0.43850 0.25340 0.82507 -0.48600
O 	O 	0.47840 0.16150 0.89088 -0.51100
C 	C 	0.39860 0.28040 0.91540 -0.86600
H 	H 	0.39350 0.25180 0.95090 0.26300
H 	H 	0.45000 0.30900 0.91310 0.26800
H 	H 	0.32500 0.31340 0.90940 0.25400
C 	C 	0.27580 0.01370 0.70770 0.60100
O 	O 	0.33550 0.05220 0.71584 -0.50600
O 	O 	0.30090 0.94670 0.72090 -0.42800
C 	C 	0.17630 0.05450 0.68290 -0.94500
H 	H 	0.13390 0.09600 0.70210 0.29000
H 	H 	0.19820 0.07220 0.64540 0.28100
H 	H 	0.13020 0.02250 0.68460 0.30000
O 	O 	0.49170 0.91370 0.01047 -0.83000
H 	H 	0.46530 0.89910 0.98890 0.36300
H 	H 	0.50780 0.87900 0.03500 0.37300
