data_crystal

_cell_length_a 6.38460
_cell_length_b 8.99960
_cell_length_c 16.77220
_cell_angle_alpha 90.00000
_cell_angle_beta  90.00000
_cell_angle_gamma 100.12100

_symmetry_space_group_name_	'P 1'
_symmetry_space_group_name_H-M	'P 1'

loop_
_symmetry_equiv_pos_as_xyz
  x,y,z

loop_
_atom_site_label
_atom_site_type_symbol
_atom_site_fract_x
_atom_site_fract_y
_atom_site_fract_z
_atom_site_charge
V 	V 	0.72727 0.93374 0.40147 1.72100
V 	V 	0.27273 0.06626 0.59853 1.72100
V 	V 	0.22727 0.43374 0.09853 1.72100
V 	V 	0.77273 0.56626 0.90147 1.72100
P 	P 	0.74900 0.99621 0.59238 0.44600
P 	P 	0.25100 0.00379 0.40762 0.44600
P 	P 	0.75100 0.50379 0.09238 0.45000
P 	P 	0.24900 0.49621 0.90762 0.45000
H 	H 	0.92610 0.97690 0.75970 0.13600
H 	H 	0.57390 0.52310 0.25970 0.13800
H 	H 	0.42610 0.47690 0.74030 0.13800
H 	H 	0.31610 0.02790 0.22440 0.14300
H 	H 	0.33260 0.29320 0.84510 0.07300
H 	H 	0.81610 0.52790 0.27560 0.14300
H 	H 	0.09380 0.30200 0.83130 0.07100
H 	H 	0.40620 0.19800 0.33130 0.07200
H 	H 	0.07390 0.02310 0.24030 0.13600
H 	H 	0.66740 0.70680 0.15490 0.07300
H 	H 	0.68390 0.97210 0.77560 0.14300
H 	H 	0.18390 0.47210 0.72440 0.14300
H 	H 	0.59380 0.80200 0.66870 0.07200
H 	H 	0.83260 0.79320 0.65490 0.07200
H 	H 	0.16740 0.20680 0.34510 0.07200
H 	H 	0.90620 0.69800 0.16870 0.07100
C 	C 	0.78930 0.80420 0.81140 0.39000
C 	C 	0.76370 0.63890 0.16930 -0.18400
C 	C 	0.23630 0.36110 0.83070 -0.18400
C 	C 	0.28930 0.30420 0.68860 0.39000
C 	C 	0.71220 0.58820 0.25870 -0.37300
C 	C 	0.26370 0.13890 0.33070 -0.18400
C 	C 	0.78780 0.91180 0.75870 -0.37300
C 	C 	0.71070 0.69580 0.31140 0.39000
C 	C 	0.21220 0.08820 0.24130 -0.37300
C 	C 	0.73630 0.86110 0.66930 -0.18400
C 	C 	0.28780 0.41180 0.74130 -0.37300
C 	C 	0.21070 0.19580 0.18860 0.39000
O 	O 	0.41150 0.89980 0.39270 -0.49800
O 	O 	0.79840 0.59820 0.01680 -0.54400
O 	O 	0.69040 0.67420 0.38820 -0.39100
O 	O 	0.46710 0.59530 0.90920 -0.49800
O 	O 	0.77300 0.65860 0.79040 -0.49600
O 	O 	0.29840 0.09820 0.48320 -0.54500
O 	O 	0.53290 0.40470 0.09080 -0.49800
O 	O 	0.20160 0.40180 0.98320 -0.54400
O 	O 	0.03290 0.90470 0.40920 -0.49400
O 	O 	0.22700 0.34140 0.20960 -0.49600
O 	O 	0.30960 0.32580 0.61180 -0.39100
O 	O 	0.27300 0.15860 0.70960 -0.49600
O 	O 	0.80960 0.82580 0.88820 -0.39200
O 	O 	0.19040 0.17420 0.11180 -0.39200
O 	O 	0.70160 0.90180 0.51680 -0.54500
O 	O 	0.08850 0.60020 0.89270 -0.49800
O 	O 	0.91150 0.39980 0.10730 -0.49800
O 	O 	0.96710 0.09530 0.59080 -0.49400
O 	O 	0.58850 0.10020 0.60730 -0.49800
O 	O 	0.72700 0.84140 0.29040 -0.49600
