data_crystal

_cell_length_a 10.61870
_cell_length_b 15.77700
_cell_length_c 18.95800
_cell_angle_alpha 97.35900
_cell_angle_beta  90.00000
_cell_angle_gamma 90.00000

_symmetry_space_group_name_	'P 1'
_symmetry_space_group_name_H-M	'P 1'

loop_
_symmetry_equiv_pos_as_xyz
  x,y,z

loop_
_atom_site_label
_atom_site_type_symbol
_atom_site_fract_x
_atom_site_fract_y
_atom_site_fract_z
_atom_site_charge
Cd	Cd	0.57917 0.95804 0.57373 1.24500
Cd	Cd	0.42083 0.04196 0.42627 1.19600
Cd	Cd	0.57917 0.04196 0.92627 1.19500
Cd	Cd	0.48533 0.00000 0.75000 1.21100
Cd	Cd	0.51467 0.00000 0.25000 1.21200
Cd	Cd	0.42083 0.95804 0.07373 1.24300
H 	H 	0.34810 0.34690 0.76150 0.16800
H 	H 	0.16000 0.81420 0.71780 -0.00500
H 	H 	0.87260 0.67590 0.98780 0.15900
H 	H 	0.80800 0.32850 0.06640 0.17200
H 	H 	0.12740 0.32410 0.01220 0.16700
H 	H 	0.70050 0.20350 0.03430 -0.05300
H 	H 	0.29950 0.20350 0.53430 -0.05400
H 	H 	0.19200 0.67150 0.93360 0.17000
H 	H 	0.65190 0.65310 0.23850 0.16400
H 	H 	0.78030 0.78140 0.87740 0.14700
H 	H 	0.16000 0.18580 0.78220 -0.02800
H 	H 	0.00430 0.29000 0.81110 0.14600
H 	H 	0.70050 0.79650 0.46570 -0.04000
H 	H 	0.79230 0.51640 0.58650 0.22300
H 	H 	0.98840 0.35110 0.69110 0.20200
H 	H 	0.68970 0.31630 0.85800 -0.01500
H 	H 	0.20770 0.48360 0.41350 0.22300
H 	H 	0.19200 0.32850 0.56640 0.17100
H 	H 	0.12740 0.67590 0.48780 0.15900
H 	H 	0.72290 0.58650 0.72470 0.15100
H 	H 	0.20770 0.51640 0.08650 0.22300
H 	H 	0.21970 0.21860 0.12260 0.14300
H 	H 	0.54690 0.21860 0.22870 -0.03700
H 	H 	0.73150 0.78660 0.01380 -0.02300
H 	H 	0.27710 0.41350 0.27530 0.15700
H 	H 	0.01160 0.35110 0.19110 0.20200
H 	H 	0.74120 0.87780 0.79760 -0.01600
H 	H 	0.16370 0.55430 0.62510 0.22400
H 	H 	0.73150 0.21340 0.48620 -0.03500
H 	H 	0.54690 0.78140 0.27130 -0.03200
H 	H 	0.72290 0.41350 0.77530 0.15700
H 	H 	0.26850 0.21340 0.98620 -0.03800
H 	H 	0.21970 0.78140 0.37740 0.14700
H 	H 	0.78030 0.21860 0.62260 0.14300
H 	H 	0.80800 0.67150 0.43360 0.17000
H 	H 	0.84000 0.18580 0.28220 -0.02700
H 	H 	0.99570 0.29000 0.31110 0.14500
H 	H 	0.25880 0.87780 0.29760 -0.01700
H 	H 	0.31030 0.31630 0.35800 -0.01400
H 	H 	0.45310 0.78140 0.77130 -0.03200
H 	H 	0.83630 0.44570 0.37490 0.22500
H 	H 	0.68970 0.68370 0.64200 -0.00700
H 	H 	0.99570 0.71000 0.18890 0.14300
H 	H 	0.29950 0.79650 0.96570 -0.04000
H 	H 	0.25880 0.12220 0.20240 -0.06200
H 	H 	0.01160 0.64890 0.30890 0.20600
H 	H 	0.16370 0.44570 0.87490 0.22500
H 	H 	0.87260 0.32410 0.51220 0.16200
H 	H 	0.34810 0.65310 0.73850 0.16400
H 	H 	0.79230 0.48360 0.91350 0.22300
H 	H 	0.31030 0.68370 0.14200 -0.00700
H 	H 	0.83630 0.55430 0.12510 0.22400
H 	H 	0.98840 0.64890 0.80890 0.20600
H 	H 	0.74120 0.12220 0.70240 -0.06300
H 	H 	0.27710 0.58650 0.22470 0.15200
H 	H 	0.00430 0.71000 0.68890 0.14300
H 	H 	0.84000 0.81420 0.21780 -0.00500
H 	H 	0.65190 0.34690 0.26150 0.16700
H 	H 	0.45310 0.21860 0.72870 -0.03700
H 	H 	0.26850 0.78660 0.51380 -0.02200
C 	C 	0.05070 0.68430 0.58560 0.32100
C 	C 	0.12600 0.42690 0.13930 0.42400
C 	C 	0.86890 0.29460 0.46650 -0.33100
C 	C 	0.70850 0.79020 0.71290 -0.20300
C 	C 	0.05070 0.31570 0.91440 0.33100
C 	C 	0.02320 0.45400 0.39740 0.44200
C 	C 	0.67310 0.85130 0.66210 0.35400
C 	C 	0.32630 0.12030 0.86470 0.40200
C 	C 	0.54600 0.88520 0.39120 0.46400
C 	C 	0.13110 0.70540 0.53350 -0.31300
C 	C 	0.86730 0.49950 0.60590 -0.47600
C 	C 	0.75570 0.69370 0.40120 -0.34700
C 	C 	0.77170 0.18830 0.38280 -0.23900
C 	C 	0.72590 0.64500 0.73920 -0.30400
C 	C 	0.21720 0.22950 0.95040 0.20500
C 	C 	0.24430 0.69370 0.90120 -0.34700
C 	C 	0.38670 0.19570 0.62820 -0.30000
C 	C 	0.29480 0.70340 0.18960 0.16400
C 	C 	0.54600 0.11480 0.10880 0.47800
C 	C 	0.25930 0.34830 0.66740 0.34900
C 	C 	0.98560 0.39970 0.66810 -0.47900
C 	C 	0.87400 0.57310 0.86070 0.42500
C 	C 	0.70850 0.20980 0.78710 -0.23700
C 	C 	0.33760 0.31730 0.71620 -0.33300
C 	C 	0.70520 0.70340 0.68960 0.16300
C 	C 	0.32690 0.85130 0.16210 0.35400
C 	C 	0.66240 0.31730 0.21620 -0.33200
C 	C 	0.22830 0.81170 0.61720 -0.20900
C 	C 	0.74070 0.65170 0.33260 0.34300
C 	C 	0.13110 0.29460 0.96650 -0.33900
C 	C 	0.05900 0.72460 0.65410 -0.29600
C 	C 	0.45400 0.11480 0.60880 0.47900
C 	C 	0.94930 0.68430 0.08560 0.32100
C 	C 	0.75020 0.32440 0.69140 0.34100
C 	C 	0.74070 0.34830 0.16740 0.34900
C 	C 	0.27410 0.35500 0.26080 -0.32100
C 	C 	0.32690 0.14870 0.33790 0.37300
C 	C 	0.24080 0.76180 0.33060 -0.31200
C 	C 	0.97680 0.54600 0.60260 0.44000
C 	C 	0.24980 0.67560 0.30860 0.32800
C 	C 	0.94930 0.31570 0.41440 0.32800
C 	C 	0.32630 0.87970 0.63530 0.39500
C 	C 	0.86730 0.50050 0.89410 -0.47800
C 	C 	0.84910 0.21180 0.32870 0.17600
C 	C 	0.73690 0.18060 0.71730 0.20400
C 	C 	0.01440 0.60030 0.33190 -0.48000
C 	C 	0.90680 0.44920 0.16070 0.45000
C 	C 	0.26310 0.18060 0.21730 0.20400
C 	C 	0.59940 0.75950 0.30390 0.21900
C 	C 	0.98560 0.60030 0.83190 -0.48000
C 	C 	0.26310 0.81940 0.28270 0.17800
C 	C 	0.61330 0.19570 0.12820 -0.29900
C 	C 	0.29150 0.79020 0.21290 -0.20400
C 	C 	0.75020 0.67560 0.80860 0.32800
C 	C 	0.70520 0.29660 0.81040 0.18400
C 	C 	0.05900 0.27540 0.84590 -0.31700
C 	C 	0.25930 0.65170 0.83260 0.34300
C 	C 	0.22830 0.18830 0.88280 -0.24200
C 	C 	0.24980 0.32440 0.19140 0.34100
C 	C 	0.72590 0.35500 0.76080 -0.32100
C 	C 	0.87400 0.42690 0.63930 0.42400
C 	C 	0.90680 0.55080 0.33930 0.45200
C 	C 	0.09120 0.47790 0.87110 -0.49700
C 	C 	0.67370 0.12030 0.36470 0.40100
C 	C 	0.67370 0.87970 0.13530 0.39500
C 	C 	0.97680 0.45400 0.89740 0.44200
C 	C 	0.61330 0.80430 0.37180 -0.27300
C 	C 	0.21720 0.77050 0.54960 0.18900
C 	C 	0.75920 0.23820 0.66940 -0.33800
C 	C 	0.59940 0.24050 0.19610 0.22900
C 	C 	0.29150 0.20980 0.28710 -0.23700
C 	C 	0.86890 0.70540 0.03350 -0.31300
C 	C 	0.66240 0.68270 0.28380 -0.32300
C 	C 	0.90880 0.47790 0.37110 -0.49600
C 	C 	0.67310 0.14870 0.83790 0.37400
C 	C 	0.84910 0.78820 0.17130 0.16600
C 	C 	0.15090 0.21180 0.82870 0.17900
C 	C 	0.40060 0.24050 0.69610 0.23000
C 	C 	0.78280 0.77050 0.04960 0.18900
C 	C 	0.33760 0.68270 0.78380 -0.32200
C 	C 	0.13270 0.49950 0.10590 -0.47600
C 	C 	0.09120 0.52210 0.62890 -0.49500
C 	C 	0.69170 0.76850 0.41970 0.23400
C 	C 	0.77170 0.81170 0.11720 -0.21000
C 	C 	0.01440 0.39970 0.16810 -0.47900
C 	C 	0.29480 0.29660 0.31040 0.18400
C 	C 	0.30830 0.76850 0.91970 0.23400
C 	C 	0.15090 0.78820 0.67130 0.16600
C 	C 	0.13270 0.50050 0.39410 -0.47700
C 	C 	0.27410 0.64500 0.23920 -0.30400
C 	C 	0.78280 0.22950 0.45040 0.20000
C 	C 	0.24080 0.23820 0.16940 -0.33800
C 	C 	0.75570 0.30630 0.09880 -0.36000
C 	C 	0.75920 0.76180 0.83060 -0.31200
C 	C 	0.12600 0.57310 0.36070 0.42500
C 	C 	0.38670 0.80430 0.87180 -0.27300
C 	C 	0.69170 0.23150 0.08030 0.24300
C 	C 	0.40060 0.75950 0.80390 0.21800
C 	C 	0.24430 0.30630 0.59880 -0.36100
C 	C 	0.90880 0.52210 0.12890 -0.49500
C 	C 	0.73690 0.81940 0.78270 0.17700
C 	C 	0.02320 0.54600 0.10260 0.44000
C 	C 	0.45400 0.88520 0.89120 0.46400
C 	C 	0.30830 0.23150 0.58030 0.24300
C 	C 	0.94100 0.27540 0.34590 -0.31400
C 	C 	0.09320 0.55080 0.83930 0.45200
C 	C 	0.94100 0.72460 0.15410 -0.29600
C 	C 	0.09320 0.44920 0.66070 0.45000
O 	O 	0.34610 0.90650 0.69950 -0.40000
O 	O 	0.20590 0.57190 0.80960 -0.34000
O 	O 	0.54220 0.08150 0.04470 -0.57400
O 	O 	0.76120 0.38200 0.64190 -0.35000
O 	O 	0.45780 0.91850 0.95530 -0.50100
O 	O 	0.61640 0.09410 0.41770 -0.46600
O 	O 	0.64830 0.07060 0.81270 -0.53900
O 	O 	0.03770 0.61870 0.06810 -0.33900
O 	O 	0.64830 0.92940 0.68730 -0.45400
O 	O 	0.61640 0.90590 0.08230 -0.40900
O 	O 	0.34610 0.09350 0.80050 -0.46300
O 	O 	0.66500 0.17210 0.90330 -0.40500
O 	O 	0.76120 0.61800 0.85810 -0.34600
O 	O 	0.35170 0.92940 0.18730 -0.45500
O 	O 	0.96230 0.38130 0.93190 -0.34500
O 	O 	0.49480 0.07720 0.15570 -0.57300
O 	O 	0.96230 0.61870 0.56810 -0.33900
O 	O 	0.50520 0.07720 0.65570 -0.57500
O 	O 	0.79410 0.42810 0.19040 -0.34100
O 	O 	0.38360 0.09410 0.91770 -0.46700
O 	O 	0.54220 0.91850 0.45530 -0.50100
O 	O 	0.79410 0.57190 0.30960 -0.34000
O 	O 	0.35170 0.07060 0.31270 -0.53800
O 	O 	0.33500 0.17210 0.40330 -0.40400
O 	O 	0.66500 0.82790 0.59670 -0.38300
O 	O 	0.20590 0.42810 0.69040 -0.34200
O 	O 	0.49480 0.92280 0.34430 -0.49000
O 	O 	0.65390 0.09350 0.30050 -0.46200
O 	O 	0.33500 0.82790 0.09670 -0.38400
O 	O 	0.45780 0.08150 0.54470 -0.57700
O 	O 	0.65390 0.90650 0.19950 -0.40100
O 	O 	0.38360 0.90590 0.58230 -0.40800
O 	O 	0.23880 0.61800 0.35810 -0.34600
O 	O 	0.50520 0.92280 0.84430 -0.48900
O 	O 	0.03770 0.38130 0.43190 -0.34300
O 	O 	0.23880 0.38200 0.14190 -0.34900
