data_crystal

_cell_length_a 7.77200
_cell_length_b 18.62900
_cell_length_c 19.15150
_cell_angle_alpha 90.00000
_cell_angle_beta  98.93410
_cell_angle_gamma 90.00000

_symmetry_space_group_name_	'P 1'
_symmetry_space_group_name_H-M	'P 1'

loop_
_symmetry_equiv_pos_as_xyz
  x,y,z

loop_
_atom_site_label
_atom_site_type_symbol
_atom_site_fract_x
_atom_site_fract_y
_atom_site_fract_z
_atom_site_charge
Co	Co	0.23337 0.06003 0.03536 1.15500
Co	Co	0.73337 0.43997 0.53536 1.15800
Co	Co	0.26663 0.56003 0.46464 1.15800
Co	Co	0.23358 0.93996 0.52948 1.13100
Co	Co	0.26642 0.43996 0.97052 1.13200
Co	Co	0.76663 0.93997 0.96464 1.15500
Co	Co	0.73358 0.56004 0.02948 1.13200
Co	Co	0.76642 0.06004 0.47052 1.13100
H 	H 	0.59300 0.48010 0.28080 0.22500
H 	H 	0.68730 0.79480 0.74780 0.12400
H 	H 	0.30520 0.35620 0.62120 0.09500
H 	H 	0.53640 0.68830 0.71310 -0.00900
H 	H 	0.34380 0.81140 0.28880 -0.01400
H 	H 	0.55840 0.85220 0.38190 0.08300
H 	H 	0.46510 0.68510 0.78550 -0.00000
H 	H 	0.15620 0.31140 0.21120 -0.01500
H 	H 	0.03160 0.00230 0.16590 0.20400
H 	H 	0.05840 0.64780 0.88190 0.08400
H 	H 	0.55730 0.14730 0.88360 0.09500
H 	H 	0.79810 0.85370 0.62930 0.08800
H 	H 	0.45720 0.70960 0.53060 0.06900
H 	H 	0.00820 0.92100 0.18370 0.22600
H 	H 	0.05730 0.35270 0.38360 0.09400
H 	H 	0.84380 0.68860 0.78880 -0.01500
H 	H 	0.99180 0.07900 0.81630 0.22600
H 	H 	0.39110 0.20380 0.18170 0.11900
H 	H 	0.77670 0.29840 0.36160 -0.00600
H 	H 	0.54430 0.70950 0.96580 0.06500
H 	H 	0.80520 0.14380 0.12120 0.09600
H 	H 	0.09300 0.01990 0.78080 0.22200
H 	H 	0.65560 0.81310 0.21050 -0.01000
H 	H 	0.11450 0.29910 0.81260 0.11800
H 	H 	0.53160 0.49770 0.66590 0.21100
H 	H 	0.20190 0.14630 0.37070 0.08800
H 	H 	0.27670 0.20160 0.86160 -0.00500
H 	H 	0.60890 0.79620 0.81830 0.11900
H 	H 	0.53490 0.31490 0.21450 -0.00000
H 	H 	0.30780 0.79160 0.75780 0.12500
H 	H 	0.96840 0.99770 0.83410 0.20400
H 	H 	0.70190 0.35370 0.87070 0.08900
H 	H 	0.50820 0.57900 0.68370 0.22900
H 	H 	0.54280 0.29040 0.46940 0.06900
H 	H 	0.46360 0.31170 0.28690 -0.00800
H 	H 	0.19220 0.29160 0.74220 0.12400
H 	H 	0.03490 0.18510 0.71450 0.00100
H 	H 	0.49180 0.42100 0.31630 0.22900
H 	H 	0.44160 0.14780 0.61810 0.08400
H 	H 	0.95570 0.20950 0.53420 0.06700
H 	H 	0.95720 0.79040 0.03060 0.06900
H 	H 	0.27750 0.80100 0.36190 -0.01000
H 	H 	0.89110 0.29620 0.68170 0.11800
H 	H 	0.44270 0.85270 0.11640 0.09500
H 	H 	0.96510 0.81490 0.28550 0.00100
H 	H 	0.15560 0.68690 0.71050 -0.01000
H 	H 	0.90700 0.98010 0.21920 0.22200
H 	H 	0.94270 0.64730 0.61640 0.09400
H 	H 	0.46840 0.50230 0.33410 0.21100
H 	H 	0.22330 0.70160 0.63840 -0.00600
H 	H 	0.69220 0.20840 0.24220 0.12500
H 	H 	0.72250 0.19900 0.63810 -0.01000
H 	H 	0.34440 0.18690 0.78950 -0.01000
H 	H 	0.81270 0.29480 0.75220 0.12400
H 	H 	0.94160 0.35220 0.11810 0.08400
H 	H 	0.19480 0.85620 0.87880 0.09600
H 	H 	0.72330 0.79840 0.13840 -0.00500
H 	H 	0.84440 0.31310 0.28950 -0.01000
H 	H 	0.03640 0.81170 0.21310 -0.00500
H 	H 	0.96360 0.18830 0.78690 -0.00500
H 	H 	0.45570 0.29050 0.03420 0.06500
H 	H 	0.40700 0.51990 0.71920 0.22600
H 	H 	0.80780 0.70840 0.25780 0.12400
H 	H 	0.38550 0.79910 0.68740 0.11900
H 	H 	0.10890 0.70380 0.31830 0.11800
H 	H 	0.31270 0.20520 0.25220 0.12500
H 	H 	0.04430 0.79050 0.46580 0.06700
H 	H 	0.22250 0.30100 0.13810 -0.01100
H 	H 	0.61450 0.20090 0.31260 0.11900
H 	H 	0.18730 0.70520 0.24780 0.12400
H 	H 	0.88550 0.70090 0.18740 0.11800
H 	H 	0.65620 0.18860 0.71120 -0.01300
H 	H 	0.69480 0.64380 0.37880 0.09600
H 	H 	0.29810 0.64630 0.12930 0.08900
H 	H 	0.04280 0.20960 0.96940 0.06900
H 	H 	0.77750 0.69900 0.86190 -0.01100
C 	C 	0.47330 0.84830 0.56440 0.26700
C 	C 	0.69410 0.22370 0.67940 0.15300
C 	C 	0.80860 0.83266 0.42770 -0.04700
C 	C 	0.14540 0.09100 0.55270 0.36500
C 	C 	0.27660 0.30892 0.60910 -0.14500
C 	C 	0.64090 0.81610 0.39280 -0.12900
C 	C 	0.47620 0.15050 0.05870 0.26700
C 	C 	0.10687 0.70956 0.07827 -0.01100
C 	C 	0.45060 0.53340 0.67680 -0.69100
C 	C 	0.93280 0.77915 0.44340 -0.04200
C 	C 	0.19140 0.16734 0.57230 -0.04700
C 	C 	0.89740 0.75320 0.62790 0.19300
C 	C 	0.65060 0.76480 0.78420 -0.28900
C 	C 	0.22340 0.80892 0.89090 -0.14500
C 	C 	0.38916 0.79188 0.92526 -0.00800
C 	C 	0.89313 0.29044 0.92173 -0.01100
C 	C 	0.15060 0.73520 0.28420 -0.28500
C 	C 	0.30860 0.66734 0.92770 -0.04900
C 	C 	0.34780 0.40780 0.45560 0.38200
C 	C 	0.99980 0.78280 0.25030 0.08400
C 	C 	0.10260 0.24680 0.37210 0.19300
C 	C 	0.09970 0.75430 0.87480 0.19500
C 	C 	0.34610 0.76480 0.71960 -0.28600
C 	C 	0.19270 0.72390 0.68060 0.14900
C 	C 	0.35910 0.18390 0.60720 -0.12900
C 	C 	0.30260 0.53870 0.61720 0.19200
C 	C 	0.80730 0.27610 0.31940 0.14900
C 	C 	0.27180 0.69300 0.11430 -0.14700
C 	C 	0.02380 0.65050 0.44130 0.26700
C 	C 	0.88916 0.70812 0.42526 -0.00700
C 	C 	0.85920 0.68320 0.60660 -0.13000
C 	C 	0.39740 0.74680 0.12790 0.19400
C 	C 	0.84780 0.09220 0.95560 0.38200
C 	C 	0.15390 0.26480 0.78040 -0.28300
C 	C 	0.30700 0.33295 0.42990 -0.05000
C 	C 	0.19740 0.03870 0.88280 0.19000
C 	C 	0.35460 0.59100 0.94730 0.36600
C 	C 	0.04940 0.03340 0.82320 -0.67700
C 	C 	0.19410 0.27630 0.17940 0.15600
C 	C 	0.85460 0.90900 0.44730 0.36500
C 	C 	0.34940 0.23520 0.21580 -0.28900
C 	C 	0.59970 0.74570 0.37480 0.19500
C 	C 	0.15220 0.90780 0.04440 0.38200
C 	C 	0.30590 0.77630 0.32060 0.15300
C 	C 	0.93335 0.22048 0.94465 -0.03700
C 	C 	0.06665 0.77952 0.05535 -0.03700
C 	C 	0.30730 0.22390 0.81940 0.14700
C 	C 	0.35920 0.81680 0.10660 -0.13100
C 	C 	0.19300 0.83295 0.07010 -0.04900
C 	C 	0.97620 0.34950 0.55870 0.26700
C 	C 	0.06720 0.22085 0.55660 -0.04200
C 	C 	0.80590 0.72370 0.82060 0.15600
C 	C 	0.22820 0.19300 0.38570 -0.14600
C 	C 	0.80260 0.96130 0.11720 0.19000
C 	C 	0.77180 0.80700 0.61430 -0.14600
C 	C 	0.56665 0.72048 0.55535 -0.03800
C 	C 	0.14090 0.68390 0.89280 -0.12900
C 	C 	0.43335 0.27952 0.44465 -0.03800
C 	C 	0.64540 0.40900 0.05270 0.36600
C 	C 	0.43280 0.72085 0.94340 -0.04000
C 	C 	0.84610 0.73520 0.21960 -0.28300
C 	C 	0.64080 0.18320 0.89340 -0.13100
C 	C 	0.60687 0.79044 0.57827 -0.01200
C 	C 	0.00020 0.21720 0.74970 0.08400
C 	C 	0.52380 0.84950 0.94130 0.26700
C 	C 	0.56720 0.27915 0.05660 -0.04000
C 	C 	0.11084 0.29188 0.57474 -0.00700
C 	C 	0.69740 0.46130 0.38280 0.19200
C 	C 	0.85910 0.31610 0.10720 -0.12900
C 	C 	0.61084 0.20812 0.07474 -0.00800
C 	C 	0.69270 0.77610 0.18060 0.14700
C 	C 	0.69300 0.66705 0.57010 -0.05000
C 	C 	0.65390 0.23520 0.28040 -0.28600
C 	C 	0.02670 0.34830 0.93560 0.26500
C 	C 	0.65220 0.59220 0.54440 0.38200
C 	C 	0.60260 0.25320 0.87210 0.19400
C 	C 	0.77660 0.19108 0.10910 -0.14500
C 	C 	0.84940 0.26480 0.71580 -0.28500
C 	C 	0.69140 0.33266 0.07230 -0.04900
C 	C 	0.72340 0.69108 0.39090 -0.14500
C 	C 	0.50020 0.28280 0.24970 0.09000
C 	C 	0.72820 0.30700 0.88570 -0.14700
C 	C 	0.97330 0.65170 0.06440 0.26500
C 	C 	0.90030 0.24570 0.12520 0.19500
C 	C 	0.14080 0.31680 0.39340 -0.13000
C 	C 	0.40030 0.25430 0.62520 0.19500
C 	C 	0.49980 0.71720 0.75030 0.09000
C 	C 	0.52670 0.15170 0.43560 0.26700
C 	C 	0.39313 0.20956 0.42173 -0.01200
C 	C 	0.80700 0.16705 0.92990 -0.04900
C 	C 	0.54940 0.46660 0.32320 -0.69100
C 	C 	0.95060 0.96660 0.17680 -0.67700
N 	N 	0.18580 0.53820 0.56420 -0.23700
N 	N 	0.31420 0.03820 0.93580 -0.23400
N 	N 	0.68580 0.96180 0.06420 -0.23400
N 	N 	0.81420 0.46180 0.43580 -0.23700
O 	O 	0.48540 0.41818 0.49730 -0.48500
O 	O 	0.17257 0.33445 0.97217 -0.38800
O 	O 	0.48908 0.91352 0.92148 -0.35400
O 	O 	0.73773 0.04438 0.93553 -0.44200
O 	O 	0.05613 0.77604 0.66203 -0.26300
O 	O 	0.50431 0.91077 0.58901 -0.37600
O 	O 	0.55613 0.72396 0.16203 -0.26300
O 	O 	0.94387 0.22396 0.33797 -0.26300
O 	O 	0.23773 0.45562 0.43553 -0.44500
O 	O 	0.17349 0.66645 0.47119 -0.37500
O 	O 	0.67257 0.16555 0.47217 -0.38900
O 	O 	0.06034 0.22352 0.15924 -0.26400
O 	O 	0.00431 0.58923 0.08901 -0.37400
O 	O 	0.98540 0.08182 0.99730 -0.48100
O 	O 	0.76227 0.54438 0.56447 -0.44500
O 	O 	0.44387 0.27604 0.83797 -0.26300
O 	O 	0.98908 0.58648 0.42148 -0.35300
O 	O 	0.56034 0.27648 0.65924 -0.26200
O 	O 	0.26846 0.04674 0.55316 -0.45800
O 	O 	0.51240 0.57415 0.96140 -0.49300
O 	O 	0.99569 0.41077 0.91099 -0.37400
O 	O 	0.93966 0.77648 0.84076 -0.26400
O 	O 	0.01092 0.41352 0.57852 -0.35300
O 	O 	0.49569 0.08923 0.41099 -0.37600
O 	O 	0.67349 0.83355 0.97119 -0.37700
O 	O 	0.01460 0.91818 0.00270 -0.48100
O 	O 	0.51460 0.58182 0.50270 -0.48500
O 	O 	0.43966 0.72352 0.34076 -0.26200
O 	O 	0.26227 0.95562 0.06447 -0.44200
O 	O 	0.01240 0.92585 0.46140 -0.49200
O 	O 	0.98760 0.07415 0.53860 -0.49200
O 	O 	0.76846 0.45326 0.05316 -0.45800
O 	O 	0.23154 0.54674 0.94684 -0.45800
O 	O 	0.73154 0.95326 0.44684 -0.45800
O 	O 	0.48760 0.42585 0.03860 -0.49300
O 	O 	0.51092 0.08648 0.07852 -0.35400
O 	O 	0.82743 0.66555 0.02783 -0.38800
O 	O 	0.82651 0.33355 0.52881 -0.37500
O 	O 	0.32743 0.83445 0.52783 -0.38900
O 	O 	0.32651 0.16645 0.02881 -0.37700
