data_crystal

_cell_length_a 18.26820
_cell_length_b 18.26820
_cell_length_c 21.57490
_cell_angle_alpha 69.64030
_cell_angle_beta  69.64030
_cell_angle_gamma 100.26600

_symmetry_space_group_name_	'P 1'
_symmetry_space_group_name_H-M	'P 1'

loop_
_symmetry_equiv_pos_as_xyz
  x,y,z

loop_
_atom_site_label
_atom_site_type_symbol
_atom_site_fract_x
_atom_site_fract_y
_atom_site_fract_z
_atom_site_charge
Ce	Ce	0.85212 0.10212 0.75000 2.16900
Ce	Ce	0.14788 0.89788 0.25000 2.16900
Ce	Ce	0.60212 0.35212 0.25000 2.17000
Ce	Ce	0.39788 0.64788 0.75000 2.17000
Co	Co	0.89217 0.60783 0.75000 1.17300
Co	Co	0.35783 0.14217 0.75000 1.17200
Co	Co	0.10783 0.39217 0.25000 1.17300
Co	Co	0.64217 0.85783 0.25000 1.17200
H 	H 	0.88280 0.69720 0.60560 0.01300
H 	H 	0.24230 0.86030 0.77420 0.07800
H 	H 	0.69740 0.79140 0.04500 0.06800
H 	H 	0.91010 0.44630 0.13660 0.06400
H 	H 	0.36030 0.74230 0.27420 0.07800
H 	H 	0.67770 0.67170 0.13460 0.06500
H 	H 	0.95050 0.54470 0.63340 0.01300
H 	H 	0.04470 0.45050 0.13340 0.01400
H 	H 	0.82190 0.91610 0.13340 0.01300
H 	H 	0.77280 0.82220 0.74860 0.08300
H 	H 	0.30260 0.20860 0.95500 0.06800
H 	H 	0.04950 0.45530 0.36660 0.01300
H 	H 	0.24260 0.49360 0.27020 0.00600
H 	H 	0.01980 0.21700 0.51640 0.07400
H 	H 	0.69720 0.01160 0.10560 0.01200
H 	H 	0.00640 0.25740 0.22980 0.00600
H 	H 	0.63970 0.25770 0.72580 0.07800
H 	H 	0.75770 0.13970 0.22580 0.07800
H 	H 	0.70860 0.80260 0.45500 0.06800
H 	H 	0.67780 0.72720 0.75140 0.08300
H 	H 	0.17170 0.17770 0.63460 0.06500
H 	H 	0.95530 0.54950 0.86660 0.01400
H 	H 	0.81230 0.30630 0.86540 0.06500
H 	H 	0.58390 0.67810 0.36660 0.01300
H 	H 	0.32220 0.27280 0.24860 0.08300
H 	H 	0.98350 0.86550 0.77420 0.07900
H 	H 	0.11720 0.30280 0.39440 0.01300
H 	H 	0.16360 0.75760 0.54500 0.06800
H 	H 	0.98020 0.78300 0.48360 0.07400
H 	H 	0.75740 0.50640 0.72980 0.00600
H 	H 	0.51160 0.19720 0.60560 0.01200
H 	H 	0.32230 0.32830 0.86540 0.06500
H 	H 	0.18770 0.69370 0.13460 0.06500
H 	H 	0.63450 0.51650 0.72580 0.07800
H 	H 	0.73340 0.03620 0.98360 0.07300
H 	H 	0.48720 0.73620 0.27020 0.00600
H 	H 	0.41710 0.45330 0.63660 0.06500
H 	H 	0.19720 0.38280 0.10560 0.01300
H 	H 	0.48840 0.80280 0.39440 0.01200
H 	H 	0.46380 0.76660 0.51640 0.07500
H 	H 	0.51280 0.26380 0.72980 0.00600
H 	H 	0.41610 0.32190 0.63340 0.01300
H 	H 	0.52140 0.07080 0.25140 0.08300
H 	H 	0.53620 0.23340 0.48360 0.07500
H 	H 	0.74240 0.33640 0.95500 0.06800
H 	H 	0.28300 0.48020 0.98360 0.07400
H 	H 	0.95330 0.91710 0.13660 0.06500
H 	H 	0.76380 0.01280 0.22980 0.00600
H 	H 	0.22720 0.17780 0.25140 0.08300
H 	H 	0.94630 0.41010 0.63660 0.06500
H 	H 	0.08990 0.55370 0.86340 0.06400
H 	H 	0.36550 0.48350 0.27420 0.07800
H 	H 	0.17810 0.08390 0.86660 0.01300
H 	H 	0.99360 0.74260 0.77020 0.00600
H 	H 	0.47860 0.92920 0.74860 0.08300
H 	H 	0.42920 0.97860 0.24860 0.08300
H 	H 	0.29140 0.19740 0.54500 0.06800
H 	H 	0.71700 0.51980 0.01640 0.07400
H 	H 	0.82830 0.82230 0.36540 0.06500
H 	H 	0.25760 0.66360 0.04500 0.06800
H 	H 	0.23620 0.98720 0.77020 0.00600
H 	H 	0.58290 0.54670 0.36340 0.06500
H 	H 	0.57080 0.02140 0.75140 0.08300
H 	H 	0.01650 0.13450 0.22580 0.07900
H 	H 	0.19370 0.68770 0.63460 0.06500
H 	H 	0.80630 0.31230 0.36540 0.06500
H 	H 	0.05370 0.58990 0.36340 0.06500
H 	H 	0.26660 0.96380 0.01640 0.07300
H 	H 	0.83640 0.24240 0.45500 0.06800
H 	H 	0.04670 0.08290 0.86340 0.06500
H 	H 	0.80280 0.61720 0.89440 0.01300
H 	H 	0.30280 0.98840 0.89440 0.01200
C 	C 	0.43987 0.92827 0.25386 -0.06900
C 	C 	0.73912 0.50212 0.97956 -0.06200
C 	C 	0.94265 0.83205 0.76830 -0.08200
C 	C 	0.63895 0.11855 0.23850 0.00400
C 	C 	0.15729 0.64269 0.18402 -0.04800
C 	C 	0.99473 0.42453 0.18274 0.04200
C 	C 	0.24543 0.60643 0.05654 -0.05600
C 	C 	0.15209 0.61993 0.74758 -0.02200
C 	C 	0.65665 0.74615 0.19000 0.03600
C 	C 	0.93615 0.34665 0.31000 0.03500
C 	C 	0.27973 0.58213 0.00234 -0.03200
C 	C 	0.28207 0.08447 0.99766 -0.03300
C 	C 	0.42012 0.01362 0.75406 0.04400
C 	C 	0.14716 0.83956 0.42328 0.36100
C 	C 	0.52498 0.21438 0.73364 0.06400
C 	C 	0.36751 0.39967 0.75242 -0.02100
C 	C 	0.84791 0.38007 0.25242 -0.02200
C 	C 	0.48168 0.21868 0.52044 -0.06300
C 	C 	0.36993 0.80173 0.75834 0.28900
C 	C 	0.63007 0.19827 0.24166 0.28900
C 	C 	0.91787 0.22027 0.49766 -0.03300
C 	C 	0.48638 0.07988 0.74594 0.04400
C 	C 	0.30197 0.16297 0.94346 -0.05500
C 	C 	0.84271 0.35731 0.81598 -0.04800
C 	C 	0.64295 0.62255 0.73850 0.00400
C 	C 	0.89357 0.25457 0.44346 -0.05500
C 	C 	0.10033 0.13249 0.74758 -0.02200
C 	C 	0.94022 0.70912 0.59306 0.05200
C 	C 	0.04608 0.69312 0.62780 0.03700
C 	C 	0.60589 0.60249 0.31502 -0.04500
C 	C 	0.23232 0.32582 0.25406 0.04400
C 	C 	0.12255 0.14295 0.23850 0.00500
C 	C 	0.24615 0.15665 0.69000 0.03500
C 	C 	0.57044 0.76284 0.57672 0.36000
C 	C 	0.89967 0.86751 0.25242 -0.02200
C 	C 	0.35705 0.37745 0.26150 0.00400
C 	C 	0.65869 0.67329 0.18402 -0.04800
C 	C 	0.17329 0.15869 0.68402 -0.04700
C 	C 	0.71793 0.91553 0.00234 -0.03300
C 	C 	0.39273 0.32253 0.68274 0.04400
C 	C 	0.85731 0.34271 0.31598 -0.04700
C 	C 	0.10249 0.10589 0.81502 -0.04500
C 	C 	0.36105 0.88145 0.76150 0.00400
C 	C 	0.05735 0.16795 0.23170 -0.08200
C 	C 	0.99788 0.76088 0.52044 -0.06000
C 	C 	0.05198 0.24138 0.23364 0.06400
C 	C 	0.47502 0.78562 0.26636 0.06400
C 	C 	0.98049 0.86713 0.25738 0.29800
C 	C 	0.89751 0.89411 0.18498 -0.04500
C 	C 	0.26284 0.07044 0.07672 0.36300
C 	C 	0.91751 0.42091 0.18498 -0.04500
C 	C 	0.71868 0.98168 0.02044 -0.06100
C 	C 	0.28132 0.01832 0.97956 -0.06100
C 	C 	0.11993 0.65209 0.24758 -0.02200
C 	C 	0.87173 0.93993 0.75834 0.28900
C 	C 	0.94802 0.75862 0.76636 0.06400
C 	C 	0.74138 0.55198 0.73364 0.06400
C 	C 	0.39965 0.78905 0.26830 -0.08200
C 	C 	0.95392 0.30688 0.37220 0.03700
C 	C 	0.01951 0.13287 0.74262 0.29800
C 	C 	0.61855 0.13895 0.73850 0.00400
C 	C 	0.26088 0.49788 0.02044 -0.06200
C 	C 	0.34335 0.25385 0.81000 0.03600
C 	C 	0.28905 0.89965 0.76830 -0.08200
C 	C 	0.30627 0.31787 0.25386 -0.06900
C 	C 	0.75457 0.39357 0.94346 -0.05600
C 	C 	0.51832 0.78132 0.47956 -0.06300
C 	C 	0.08249 0.57909 0.81502 -0.04500
C 	C 	0.12827 0.06007 0.24166 0.28900
C 	C 	0.66297 0.80197 0.44346 -0.05600
C 	C 	0.66044 0.35284 0.07672 0.36000
C 	C 	0.67388 0.82092 0.37220 0.03800
C 	C 	0.51362 0.92012 0.25406 0.04400
C 	C 	0.72027 0.41787 0.99766 -0.03200
C 	C 	0.92453 0.49473 0.68274 0.04400
C 	C 	0.42956 0.23716 0.42328 0.36000
C 	C 	0.17747 0.10727 0.81726 0.04400
C 	C 	0.67908 0.82612 0.12780 0.03700
C 	C 	0.84665 0.43615 0.81000 0.03500
C 	C 	0.42827 0.93987 0.75386 -0.06900
C 	C 	0.25862 0.44802 0.26636 0.06400
C 	C 	0.10643 0.74543 0.55654 -0.05500
C 	C 	0.57988 0.98638 0.24594 0.04400
C 	C 	0.30218 0.03328 0.90694 0.05200
C 	C 	0.71095 0.10035 0.23170 -0.08200
C 	C 	0.15335 0.56385 0.19000 0.03500
C 	C 	0.79088 0.55978 0.90694 0.05200
C 	C 	0.12451 0.73787 0.24262 0.29700
C 	C 	0.46672 0.19782 0.59306 0.05200
C 	C 	0.56013 0.07173 0.74614 -0.06900
C 	C 	0.36713 0.48049 0.75738 0.29700
C 	C 	0.82671 0.84131 0.31598 -0.04700
C 	C 	0.08213 0.77973 0.50234 -0.03300
C 	C 	0.39411 0.39751 0.68498 -0.04500
C 	C 	0.53328 0.80218 0.40694 0.05200
C 	C 	0.69782 0.96672 0.09306 0.05200
C 	C 	0.80688 0.45392 0.87220 0.03800
C 	C 	0.23787 0.62451 0.74262 0.29700
C 	C 	0.32612 0.17908 0.62780 0.03800
C 	C 	0.41553 0.21793 0.50234 -0.03100
C 	C 	0.76768 0.67418 0.74594 0.04400
C 	C 	0.57173 0.06013 0.24614 -0.06900
C 	C 	0.14269 0.65729 0.68402 -0.04700
C 	C 	0.00212 0.23912 0.47956 -0.06000
C 	C 	0.07547 0.50527 0.31726 0.04400
C 	C 	0.69373 0.68213 0.74614 -0.06900
C 	C 	0.87549 0.26213 0.75738 0.29700
C 	C 	0.73716 0.92956 0.92328 0.36300
C 	C 	0.30173 0.86993 0.25834 0.28900
C 	C 	0.33205 0.44265 0.26830 -0.08200
C 	C 	0.38145 0.86105 0.26150 0.00400
C 	C 	0.82582 0.73232 0.75406 0.04400
C 	C 	0.33956 0.64716 0.92328 0.36000
C 	C 	0.82253 0.89273 0.18274 0.04400
C 	C 	0.88007 0.34791 0.75242 -0.02200
C 	C 	0.05978 0.29088 0.40694 0.05200
C 	C 	0.60035 0.21095 0.73170 -0.08200
C 	C 	0.85284 0.16044 0.57672 0.36100
C 	C 	0.92091 0.41751 0.68498 -0.04500
C 	C 	0.07909 0.58249 0.31502 -0.04500
C 	C 	0.17418 0.26768 0.24594 0.04400
C 	C 	0.71438 0.02498 0.23364 0.06300
C 	C 	0.87745 0.85705 0.76150 0.00500
C 	C 	0.43993 0.37173 0.25834 0.28900
C 	C 	0.06385 0.65335 0.69000 0.03500
C 	C 	0.56007 0.62827 0.74166 0.28900
C 	C 	0.60727 0.67747 0.31726 0.04400
C 	C 	0.63287 0.51951 0.24262 0.29700
C 	C 	0.76213 0.37549 0.25738 0.29700
C 	C 	0.69827 0.13007 0.74166 0.28900
C 	C 	0.63249 0.60033 0.24758 -0.02100
C 	C 	0.00527 0.57547 0.81726 0.04200
C 	C 	0.34131 0.32671 0.81598 -0.04800
C 	C 	0.20912 0.44022 0.09306 0.05200
C 	C 	0.28562 0.97502 0.76636 0.06300
C 	C 	0.33703 0.19803 0.55654 -0.05600
C 	C 	0.58447 0.78207 0.49766 -0.03100
C 	C 	0.19312 0.54608 0.12780 0.03800
C 	C 	0.18213 0.19373 0.24614 -0.06900
C 	C 	0.75385 0.84335 0.31000 0.03500
C 	C 	0.32092 0.17388 0.87220 0.03700
C 	C 	0.81787 0.80627 0.75386 -0.06900
C 	C 	0.69803 0.83703 0.05654 -0.05500
C 	C 	0.66795 0.55735 0.73170 -0.08200
N 	N 	0.39083 0.17853 0.64584 -0.24700
N 	N 	0.24794 0.13230 0.75636 -0.24500
N 	N 	0.34953 0.03193 0.75918 -0.25000
N 	N 	0.36770 0.25206 0.74364 -0.24500
N 	N 	0.99570 0.61134 0.75636 -0.24400
N 	N 	0.88866 0.50430 0.74364 -0.24500
N 	N 	0.79111 0.60871 0.74082 -0.25000
N 	N 	0.96333 0.67563 0.64584 -0.24600
N 	N 	0.65047 0.96807 0.24082 -0.25000
N 	N 	0.46807 0.15047 0.74082 -0.25000
N 	N 	0.00430 0.38866 0.24364 -0.24400
N 	N 	0.82437 0.53667 0.85416 -0.24600
N 	N 	0.03667 0.32437 0.35416 -0.24600
N 	N 	0.67853 0.89083 0.14584 -0.24600
N 	N 	0.63230 0.74794 0.25636 -0.24500
N 	N 	0.89129 0.70889 0.75918 -0.25000
N 	N 	0.53193 0.84953 0.25918 -0.25000
N 	N 	0.20889 0.39129 0.25918 -0.25000
N 	N 	0.32147 0.10917 0.85416 -0.24600
N 	N 	0.75206 0.86770 0.24364 -0.24500
N 	N 	0.17563 0.46333 0.14584 -0.24600
N 	N 	0.11134 0.49570 0.25636 -0.24500
N 	N 	0.10871 0.29111 0.24082 -0.25000
N 	N 	0.60917 0.82147 0.35416 -0.24700
O 	O 	0.55924 0.20038 0.27018 -0.38100
O 	O 	0.70038 0.05924 0.77018 -0.38200
O 	O 	0.22021 0.86521 0.41238 -0.25400
O 	O 	0.75917 0.19583 0.71340 -0.35200
O 	O 	0.98455 0.85979 0.31608 -0.37300
O 	O 	0.23460 0.99582 0.12318 -0.46100
O 	O 	0.69583 0.25917 0.21340 -0.35200
O 	O 	0.77979 0.13479 0.58762 -0.25400
O 	O 	0.36741 0.22241 0.41238 -0.25300
O 	O 	0.62499 0.46007 0.29852 -0.38800
O 	O 	0.11900 0.85778 0.37682 -0.46000
O 	O 	0.01545 0.14021 0.68392 -0.37300
O 	O 	0.44076 0.79962 0.72982 -0.38100
O 	O 	0.17587 0.80063 0.18392 -0.37300
O 	O 	0.88100 0.14222 0.62318 -0.46000
O 	O 	0.09077 0.02743 0.21340 -0.35100
O 	O 	0.49582 0.73460 0.62318 -0.45900
O 	O 	0.37501 0.53993 0.70148 -0.38800
O 	O 	0.24141 0.57649 0.79852 -0.38800
O 	O 	0.76540 0.00418 0.87682 -0.46100
O 	O 	0.17058 0.02944 0.27018 -0.38100
O 	O 	0.64222 0.38100 0.12318 -0.45900
O 	O 	0.27759 0.13259 0.08762 -0.25400
O 	O 	0.35778 0.61900 0.87682 -0.45900
O 	O 	0.63259 0.77759 0.58762 -0.25300
O 	O 	0.47257 0.40923 0.28660 -0.35200
O 	O 	0.03993 0.87501 0.20148 -0.38900
O 	O 	0.47056 0.32942 0.22982 -0.38100
O 	O 	0.63479 0.27979 0.08762 -0.25400
O 	O 	0.07649 0.74141 0.29852 -0.38800
O 	O 	0.52944 0.67058 0.77018 -0.38100
O 	O 	0.50418 0.26540 0.37682 -0.45900
O 	O 	0.52743 0.59077 0.71340 -0.35200
O 	O 	0.90923 0.97257 0.78660 -0.35100
O 	O 	0.92351 0.25859 0.70148 -0.38800
O 	O 	0.82942 0.97056 0.72982 -0.38100
O 	O 	0.64021 0.51545 0.18392 -0.37300
O 	O 	0.96007 0.12499 0.79852 -0.38900
O 	O 	0.30063 0.67587 0.68392 -0.37300
O 	O 	0.24083 0.80417 0.28660 -0.35200
O 	O 	0.69937 0.32413 0.31608 -0.37300
O 	O 	0.82413 0.19937 0.81608 -0.37300
O 	O 	0.75859 0.42351 0.20148 -0.38800
O 	O 	0.72241 0.86741 0.91238 -0.25400
O 	O 	0.29962 0.94076 0.22982 -0.38200
O 	O 	0.30417 0.74083 0.78660 -0.35200
O 	O 	0.35979 0.48455 0.81608 -0.37300
O 	O 	0.36521 0.72021 0.91238 -0.25400
