data_crystal

_cell_length_a 10.29700
_cell_length_b 30.56350
_cell_length_c 30.92620
_cell_angle_alpha 90.00000
_cell_angle_beta  90.00000
_cell_angle_gamma 91.46800

_symmetry_space_group_name_	'P 1'
_symmetry_space_group_name_H-M	'P 1'

loop_
_symmetry_equiv_pos_as_xyz
  x,y,z

loop_
_atom_site_label
_atom_site_type_symbol
_atom_site_fract_x
_atom_site_fract_y
_atom_site_fract_z
_atom_site_charge
Zn	Zn	0.16829 0.32186 0.32687 1.22200
Zn	Zn	0.47659 0.16317 0.91754 1.21600
Zn	Zn	0.47320 0.08992 0.84202 1.21800
Zn	Zn	0.97659 0.66317 0.58246 1.21600
Zn	Zn	0.12534 0.68168 0.66954 1.22200
Zn	Zn	0.37466 0.81832 0.16954 1.22200
Zn	Zn	0.52680 0.91008 0.15798 1.21900
Zn	Zn	0.02680 0.41008 0.34202 1.21900
Zn	Zn	0.62534 0.18168 0.83046 1.22200
Zn	Zn	0.33171 0.17814 0.82687 1.22300
Zn	Zn	0.52341 0.83683 0.08246 1.21700
Zn	Zn	0.83171 0.67814 0.67313 1.22300
Zn	Zn	0.87466 0.31832 0.33046 1.22200
Zn	Zn	0.66829 0.82186 0.17313 1.22300
Zn	Zn	0.97320 0.58992 0.65798 1.21900
Zn	Zn	0.02341 0.33683 0.41754 1.21700
H 	H 	0.99700 0.42750 0.52020 0.05600
H 	H 	0.02690 0.88270 0.18400 0.06700
H 	H 	0.71230 0.27620 0.49890 0.10700
H 	H 	0.72300 0.68600 0.22500 0.04100
H 	H 	0.22300 0.18600 0.27500 0.04000
H 	H 	0.38860 0.22590 0.61740 0.04400
H 	H 	0.49700 0.92750 0.97980 0.05600
H 	H 	0.33870 0.49020 0.28110 0.10700
H 	H 	0.67670 0.61410 0.24940 0.05100
H 	H 	0.28770 0.72380 0.50110 0.10700
H 	H 	0.83870 0.99020 0.21890 0.10700
H 	H 	0.17750 0.22030 0.00060 0.08100
H 	H 	0.64370 0.80190 0.31240 0.05100
H 	H 	0.88900 0.94440 0.76970 0.13200
H 	H 	0.73090 0.49270 0.28430 0.08400
H 	H 	0.13160 0.80990 0.67070 0.04400
H 	H 	0.67750 0.72030 0.49940 0.08100
H 	H 	0.32250 0.27970 0.50060 0.08100
H 	H 	0.66130 0.50980 0.71890 0.10700
H 	H 	0.52690 0.38270 0.31600 0.06700
H 	H 	0.51800 0.30660 0.39000 0.06500
H 	H 	0.86840 0.19010 0.32930 0.04400
H 	H 	0.50300 0.07250 0.02020 0.05600
H 	H 	0.35630 0.19810 0.68760 0.05100
H 	H 	0.16130 0.00980 0.78110 0.10700
H 	H 	0.14370 0.30190 0.18760 0.05100
H 	H 	0.63160 0.30990 0.82930 0.04500
H 	H 	0.82330 0.88590 0.74940 0.05200
H 	H 	0.47310 0.61730 0.68400 0.06700
H 	H 	0.77380 0.26590 0.21580 0.05800
H 	H 	0.43330 0.25780 0.56090 0.13300
H 	H 	0.52110 0.01820 0.07220 0.05200
H 	H 	0.82250 0.77970 0.99940 0.08100
H 	H 	0.22620 0.73410 0.78420 0.05800
H 	H 	0.56670 0.74220 0.43910 0.13300
H 	H 	0.48200 0.69340 0.61000 0.06500
H 	H 	0.32430 0.61830 0.19410 0.07300
H 	H 	0.47890 0.98180 0.92780 0.05200
H 	H 	0.26910 0.50730 0.71570 0.08400
H 	H 	0.61100 0.55560 0.26970 0.13200
H 	H 	0.21230 0.77620 0.00110 0.10700
H 	H 	0.00300 0.57250 0.47980 0.05600
H 	H 	0.17570 0.88170 0.69410 0.07400
H 	H 	0.85630 0.69810 0.81240 0.05100
H 	H 	0.78770 0.22380 0.99890 0.10700
H 	H 	0.01800 0.80660 0.11000 0.06500
H 	H 	0.36840 0.69010 0.17070 0.04500
H 	H 	0.61140 0.77410 0.38260 0.04400
H 	H 	0.93330 0.75780 0.93910 0.13200
H 	H 	0.25450 0.76100 0.85320 0.06600
H 	H 	0.23090 0.99270 0.21570 0.08400
H 	H 	0.97310 0.11730 0.81600 0.06700
H 	H 	0.02110 0.51820 0.42780 0.05200
H 	H 	0.98200 0.19340 0.89000 0.06500
H 	H 	0.76910 0.00730 0.78430 0.08400
H 	H 	0.74550 0.23900 0.14680 0.06600
H 	H 	0.72620 0.23410 0.71580 0.05800
H 	H 	0.27700 0.31400 0.77500 0.04100
H 	H 	0.67570 0.38170 0.80590 0.07300
H 	H 	0.75450 0.26100 0.64680 0.06600
H 	H 	0.11140 0.27410 0.11740 0.04500
H 	H 	0.88860 0.72590 0.88260 0.04500
H 	H 	0.38900 0.44440 0.73030 0.13200
H 	H 	0.11100 0.05560 0.23030 0.13200
H 	H 	0.77700 0.81400 0.72500 0.04000
H 	H 	0.17670 0.11410 0.25060 0.05200
H 	H 	0.32330 0.38590 0.75060 0.05100
H 	H 	0.27380 0.76590 0.28420 0.05800
H 	H 	0.06670 0.24220 0.06090 0.13200
H 	H 	0.82430 0.11830 0.30590 0.07400
H 	H 	0.24550 0.73900 0.35320 0.06600
H 	H 	0.97890 0.48180 0.57220 0.05200
C 	C 	0.06990 0.82491 0.68633 0.03200
C 	C 	0.95220 0.80533 0.69596 -0.12400
C 	C 	0.72170 0.69441 0.58113 0.38400
C 	C 	0.36430 0.70701 0.55937 -0.04900
C 	C 	0.22170 0.19441 0.91887 0.38400
C 	C 	0.64300 0.67252 0.21916 0.02600
C 	C 	0.41590 0.43337 0.29943 -0.03900
C 	C 	0.45220 0.30533 0.80404 -0.12100
C 	C 	0.04400 0.27278 0.13740 -0.04300
C 	C 	0.93580 0.71060 0.82051 -0.01100
C 	C 	0.96560 0.00186 0.77776 0.14200
C 	C 	0.08340 0.02389 0.78544 -0.10000
C 	C 	0.98120 0.22560 0.00595 0.13500
C 	C 	0.85310 0.06622 0.80095 -0.04600
C 	C 	0.43450 0.25991 0.81885 0.43300
C 	C 	0.32470 0.75172 0.34500 -0.04700
C 	C 	0.02930 0.91171 0.19304 -0.01600
C 	C 	0.52790 0.18653 0.74950 0.38200
C 	C 	0.23880 0.69988 0.58363 0.38200
C 	C 	0.15820 0.73243 0.80399 0.00100
C 	C 	0.50370 0.39097 0.77592 -0.01700
C 	C 	0.86430 0.20701 0.94063 -0.04900
C 	C 	0.38490 0.37092 0.76640 -0.06300
C 	C 	0.57350 0.24520 0.62570 -0.03100
C 	C 	0.01860 0.79959 0.08075 -0.00800
C 	C 	0.17530 0.74828 0.84500 -0.04700
C 	C 	0.07350 0.74520 0.87430 -0.02900
C 	C 	0.51090 0.96765 0.03180 -0.08900
C 	C 	0.13570 0.79299 0.05937 -0.04900
C 	C 	0.98090 0.56813 0.56454 0.40500
C 	C 	0.09940 0.21733 0.98564 -0.09500
C 	C 	0.85700 0.82748 0.71916 0.02800
C 	C 	0.51860 0.29959 0.41925 -0.00800
C 	C 	0.96210 0.28640 0.20821 -0.07000
C 	C 	0.53790 0.21360 0.70821 -0.07100
C 	C 	0.47070 0.58829 0.69304 -0.01600
C 	C 	0.56990 0.32491 0.81367 0.02800
C 	C 	0.14690 0.93378 0.19905 -0.04600
C 	C 	0.51260 0.01046 0.04323 -0.00800
C 	C 	0.84180 0.26757 0.19601 0.00100
C 	C 	0.98740 0.48954 0.54323 -0.00800
C 	C 	0.01910 0.43187 0.43546 0.40500
C 	C 	0.99630 0.10903 0.27592 -0.01300
C 	C 	0.43010 0.67509 0.18633 0.02800
C 	C 	0.59610 0.36819 0.79950 -0.06400
C 	C 	0.35310 0.56622 0.69905 -0.04500
C 	C 	0.90310 0.79551 0.05786 -0.05200
C 	C 	0.61510 0.62908 0.23360 -0.06300
C 	C 	0.91590 0.93337 0.20057 -0.03900
C 	C 	0.26120 0.80012 0.08363 0.38200
C 	C 	0.97210 0.31347 0.24950 0.38400
C 	C 	0.34180 0.76757 0.30399 0.00100
C 	C 	0.77830 0.80559 0.08113 0.38400
C 	C 	0.46190 0.56296 0.23773 0.21500
C 	C 	0.95600 0.72722 0.86260 -0.04300
C 	C 	0.89930 0.23790 0.08049 0.22300
C 	C 	0.59690 0.70449 0.55786 -0.05200
C 	C 	0.27830 0.30559 0.41887 0.38400
C 	C 	0.51880 0.27440 0.50595 0.13400
C 	C 	0.63440 0.28041 0.48445 -0.09600
C 	C 	0.71100 0.59119 0.69182 0.36700
C 	C 	0.51910 0.93187 0.06454 0.40500
C 	C 	0.08410 0.06663 0.79943 -0.03900
C 	C 	0.40310 0.29551 0.44214 -0.05200
C 	C 	0.93450 0.75991 0.68115 0.43200
C 	C 	0.15170 0.97757 0.21283 -0.10100
C 	C 	0.06420 0.28940 0.17949 -0.01100
C 	C 	0.03440 0.99814 0.22224 0.14200
C 	C 	0.36560 0.71959 0.51555 -0.09600
C 	C 	0.52930 0.41171 0.30696 -0.01600
C 	C 	0.73880 0.19988 0.91637 0.38200
C 	C 	0.01880 0.77440 0.99405 0.13500
C 	C 	0.77110 0.41092 0.31328 0.38500
C 	C 	0.58410 0.56663 0.70057 -0.03900
C 	C 	0.86560 0.21959 0.98445 -0.09600
C 	C 	0.76120 0.30012 0.41637 0.38200
C 	C 	0.90060 0.78267 0.01436 -0.09500
C 	C 	0.46210 0.78640 0.29179 -0.07100
C 	C 	0.21100 0.09119 0.80818 0.36700
C 	C 	0.48090 0.06813 0.93546 0.40500
C 	C 	0.88490 0.87092 0.73360 -0.06700
C 	C 	0.00370 0.89097 0.72408 -0.01300
C 	C 	0.99820 0.45679 0.51189 -0.01500
C 	C 	0.40060 0.28267 0.48564 -0.09400
C 	C 	0.90390 0.13181 0.29950 -0.06700
C 	C 	0.49630 0.60903 0.22408 -0.01700
C 	C 	0.04780 0.19467 0.30404 -0.12400
C 	C 	0.96190 0.06296 0.26227 0.21500
C 	C 	0.93010 0.17509 0.31367 0.03200
C 	C 	0.27110 0.91092 0.18672 0.38500
C 	C 	0.48140 0.70041 0.58075 -0.00800
C 	C 	0.63570 0.29299 0.44063 -0.04900
C 	C 	0.65170 0.47757 0.28717 -0.10100
C 	C 	0.43580 0.21060 0.67949 -0.01000
C 	C 	0.06550 0.24009 0.31885 0.43200
C 	C 	0.60070 0.26210 0.58049 0.22400
C 	C 	0.54780 0.69467 0.19596 -0.12100
C 	C 	0.09610 0.86819 0.70050 -0.06700
C 	C 	0.02790 0.68653 0.75050 0.38400
C 	C 	0.97070 0.08829 0.80696 -0.01600
C 	C 	0.48740 0.98954 0.95677 -0.00800
C 	C 	0.22890 0.58908 0.68672 0.38500
C 	C 	0.67530 0.24828 0.65500 -0.04700
C 	C 	0.11510 0.12908 0.26640 -0.06700
C 	C 	0.53440 0.49814 0.27776 0.14400
C 	C 	0.28900 0.40881 0.30818 0.36700
C 	C 	0.46560 0.50186 0.72224 0.14400
C 	C 	0.54400 0.77278 0.36260 -0.04100
C 	C 	0.03810 0.93704 0.73773 0.21500
C 	C 	0.13440 0.78041 0.01555 -0.09600
C 	C 	0.35700 0.32748 0.78084 0.02600
C 	C 	0.53810 0.43704 0.76227 0.21500
C 	C 	0.56420 0.78940 0.32051 -0.01000
C 	C 	0.72890 0.08908 0.81328 0.38500
C 	C 	0.00180 0.54321 0.48811 -0.01500
C 	C 	0.45600 0.22722 0.63740 -0.04100
C 	C 	0.10070 0.76210 0.91951 0.22300
C 	C 	0.41660 0.47611 0.28544 -0.10100
C 	C 	0.48910 0.03235 0.96820 -0.08900
C 	C 	0.84830 0.02243 0.78717 -0.10100
C 	C 	0.64690 0.43378 0.30095 -0.04500
C 	C 	0.39930 0.73790 0.41951 0.22400
C 	C 	0.14300 0.17252 0.28084 0.02800
C 	C 	0.58340 0.52389 0.71456 -0.10100
C 	C 	0.48120 0.72560 0.49405 0.13400
C 	C 	0.78900 0.90881 0.19182 0.36700
C 	C 	0.47210 0.81347 0.25050 0.38200
C 	C 	0.59940 0.71733 0.51436 -0.09400
C 	C 	0.01260 0.51046 0.45677 -0.00800
C 	C 	0.50180 0.04321 0.01189 -0.01600
C 	C 	0.03790 0.71360 0.79179 -0.07000
C 	C 	0.98910 0.53235 0.53180 -0.09000
C 	C 	0.92650 0.25480 0.12570 -0.02900
C 	C 	0.91660 0.97611 0.21456 -0.10000
C 	C 	0.34830 0.52243 0.71283 -0.10100
C 	C 	0.49820 0.95679 0.98811 -0.01600
C 	C 	0.82470 0.25172 0.15500 -0.04700
C 	C 	0.65820 0.23243 0.69601 0.00100
C 	C 	0.01090 0.46765 0.46820 -0.09000
C 	C 	0.98140 0.20041 0.91925 -0.00800
C 	C 	0.40390 0.63181 0.20050 -0.06400
C 	C 	0.09690 0.20449 0.94214 -0.05200
C 	C 	0.42650 0.75480 0.37430 -0.03100
C 	C 	0.56550 0.74009 0.18115 0.43300
N 	N 	0.95790 0.95895 0.76208 -0.24300
N 	N 	0.51040 0.26383 0.55165 -0.24200
N 	N 	0.98960 0.23617 0.05165 -0.24100
N 	N 	0.45790 0.45895 0.73792 -0.24200
N 	N 	0.01040 0.76383 0.94835 -0.24100
N 	N 	0.04210 0.04105 0.23792 -0.24300
N 	N 	0.48960 0.73617 0.44835 -0.24200
N 	N 	0.54210 0.54105 0.26208 -0.24200
O 	O 	0.62450 0.06729 0.81279 -0.48200
O 	O 	0.52290 0.24584 0.83857 -0.48300
O 	O 	0.85400 0.04512 0.26877 -0.21700
O 	O 	0.71330 0.69032 0.62041 -0.47200
O 	O 	0.74200 0.12818 0.82147 -0.47400
O 	O 	0.47680 0.15091 0.85663 -0.93400
O 	O 	0.20750 0.77763 0.93122 -0.22200
O 	O 	0.21330 0.19032 0.87959 -0.47200
O 	O 	0.87000 0.30225 0.26955 -0.46500
O 	O 	0.97710 0.25416 0.33857 -0.48100
O 	O 	0.87550 0.43271 0.31279 -0.48100
O 	O 	0.02320 0.34909 0.35663 -0.93500
O 	O 	0.79250 0.22237 0.06878 -0.22200
O 	O 	0.70750 0.27763 0.56878 -0.22200
O 	O 	0.37550 0.93271 0.18721 -0.48200
O 	O 	0.25800 0.87182 0.17853 -0.47400
O 	O 	0.82240 0.69082 0.55853 -0.47800
O 	O 	0.75800 0.37182 0.32147 -0.47300
O 	O 	0.13880 0.69247 0.56228 -0.48000
O 	O 	0.86120 0.30753 0.43772 -0.48000
O 	O 	0.93410 0.66698 0.73649 -0.46200
O 	O 	0.24200 0.62818 0.67853 -0.47300
O 	O 	0.74900 0.20139 0.87594 -0.46800
O 	O 	0.16660 0.26156 0.30895 -0.48100
O 	O 	0.14600 0.95488 0.73123 -0.21700
O 	O 	0.37000 0.80225 0.23045 -0.46500
O 	O 	0.63880 0.19247 0.93772 -0.48100
O 	O 	0.12450 0.56729 0.68721 -0.48100
O 	O 	0.02680 0.44313 0.39703 -0.49500
O 	O 	0.28670 0.30968 0.37959 -0.47200
O 	O 	0.29390 0.36797 0.30786 -0.46600
O 	O 	0.35400 0.54512 0.23123 -0.21700
O 	O 	0.01760 0.39315 0.44887 -0.48900
O 	O 	0.79390 0.86797 0.19214 -0.46600
O 	O 	0.63000 0.19775 0.76955 -0.46500
O 	O 	0.13000 0.69775 0.73045 -0.46500
O 	O 	0.24900 0.70139 0.62406 -0.46800
O 	O 	0.47710 0.75416 0.16143 -0.48300
O 	O 	0.32240 0.19082 0.94147 -0.47800
O 	O 	0.17760 0.30918 0.44147 -0.47800
O 	O 	0.25100 0.79861 0.12406 -0.46800
O 	O 	0.66660 0.76156 0.19105 -0.48100
O 	O 	0.75100 0.29861 0.37594 -0.46800
O 	O 	0.31180 0.06924 0.81430 -0.47300
O 	O 	0.43410 0.16698 0.76351 -0.46100
O 	O 	0.81180 0.56924 0.68570 -0.47300
O 	O 	0.83340 0.73844 0.69105 -0.48100
O 	O 	0.98240 0.60685 0.55113 -0.48900
O 	O 	0.18820 0.43076 0.31430 -0.47300
O 	O 	0.06590 0.33302 0.26351 -0.46200
O 	O 	0.52680 0.94313 0.10297 -0.49400
O 	O 	0.78670 0.80968 0.12041 -0.47200
O 	O 	0.64600 0.45488 0.76877 -0.21700
O 	O 	0.33340 0.23844 0.80895 -0.48100
O 	O 	0.02290 0.74584 0.66143 -0.48100
O 	O 	0.67760 0.80918 0.05853 -0.47800
O 	O 	0.51760 0.89315 0.05113 -0.48900
O 	O 	0.97320 0.55687 0.60297 -0.49500
O 	O 	0.48240 0.10685 0.94887 -0.48900
O 	O 	0.29250 0.72237 0.43122 -0.22200
O 	O 	0.20610 0.13203 0.80786 -0.46600
O 	O 	0.52320 0.84909 0.14337 -0.93400
O 	O 	0.47320 0.05687 0.89703 -0.49400
O 	O 	0.97680 0.65091 0.64337 -0.93500
O 	O 	0.68820 0.93076 0.18570 -0.47300
O 	O 	0.36120 0.80753 0.06228 -0.48100
O 	O 	0.56590 0.83302 0.23649 -0.46100
O 	O 	0.70610 0.63203 0.69214 -0.46600
