data_crystal

_cell_length_a 5.62600
_cell_length_b 17.65500
_cell_length_c 21.73300
_cell_angle_alpha 90.00000
_cell_angle_beta  90.00000
_cell_angle_gamma 90.00000

_symmetry_space_group_name_	'P 1'
_symmetry_space_group_name_H-M	'P 1'

loop_
_symmetry_equiv_pos_as_xyz
  x,y,z

loop_
_atom_site_label
_atom_site_type_symbol
_atom_site_fract_x
_atom_site_fract_y
_atom_site_fract_z
_atom_site_charge
Zn	Zn	0.15468 0.32758 0.20405 1.20700
Zn	Zn	0.84532 0.82758 0.29595 1.20700
Zn	Zn	0.15468 0.67242 0.79595 1.20700
Zn	Zn	0.84532 0.17242 0.70405 1.20700
H 	H 	0.75300 0.17250 0.20130 0.16400
H 	H 	0.23000 0.53790 0.31600 0.01000
H 	H 	0.89940 0.19590 0.39530 0.09400
H 	H 	0.14340 0.76220 0.91200 -0.01400
H 	H 	0.23000 0.46210 0.68400 0.01100
H 	H 	0.14340 0.23780 0.08800 -0.01400
H 	H 	0.75300 0.82750 0.79870 0.16500
H 	H 	0.76460 0.44230 0.93760 0.18000
H 	H 	0.49470 0.03700 0.19450 0.02500
H 	H 	0.12970 0.21990 0.31050 -0.01400
H 	H 	0.88070 0.56130 0.12390 0.18900
H 	H 	0.38130 0.69460 0.55940 0.05300
H 	H 	0.77000 0.03790 0.18400 0.01100
H 	H 	0.73030 0.60780 0.73460 0.00600
H 	H 	0.79100 0.09620 0.28820 0.07700
H 	H 	0.71840 0.39700 0.14750 0.00200
H 	H 	0.34760 0.64380 0.36160 0.15900
H 	H 	0.85660 0.73780 0.41200 -0.01400
H 	H 	0.73030 0.39220 0.26540 0.00600
H 	H 	0.11930 0.93870 0.62390 0.18800
H 	H 	0.33130 0.92370 0.71060 0.15600
H 	H 	0.87030 0.28010 0.81050 -0.01400
H 	H 	0.28160 0.89700 0.35250 0.00100
H 	H 	0.20900 0.59620 0.21180 0.07700
H 	H 	0.49470 0.96300 0.80550 0.02500
H 	H 	0.90270 0.21620 0.00480 0.09000
H 	H 	0.12970 0.78010 0.68950 -0.01400
H 	H 	0.66870 0.42370 0.78940 0.15600
H 	H 	0.28160 0.10300 0.64750 0.00100
H 	H 	0.38130 0.30540 0.44060 0.05300
H 	H 	0.71840 0.60300 0.85250 0.00200
H 	H 	0.50530 0.46300 0.69450 0.02600
H 	H 	0.87030 0.71990 0.18950 -0.01400
H 	H 	0.23540 0.05770 0.43760 0.18000
H 	H 	0.26970 0.89220 0.23460 0.00600
H 	H 	0.51590 0.12920 0.84830 0.08200
H 	H 	0.09730 0.28380 0.50480 0.09000
H 	H 	0.66870 0.57630 0.21060 0.15600
H 	H 	0.48410 0.37080 0.34830 0.08200
H 	H 	0.90270 0.78380 0.99520 0.09000
H 	H 	0.76460 0.55770 0.06240 0.18000
H 	H 	0.62580 0.17720 0.46820 0.07700
H 	H 	0.89940 0.80410 0.60470 0.09400
H 	H 	0.10060 0.30410 0.89530 0.09400
H 	H 	0.61870 0.80540 0.05940 0.05300
H 	H 	0.24700 0.32750 0.70130 0.16500
H 	H 	0.62580 0.82280 0.53180 0.07700
H 	H 	0.26970 0.10780 0.76540 0.00600
H 	H 	0.79100 0.90380 0.71180 0.07700
H 	H 	0.20900 0.40380 0.78820 0.07700
H 	H 	0.61870 0.19460 0.94060 0.05300
H 	H 	0.85660 0.26220 0.58800 -0.01400
H 	H 	0.24700 0.67250 0.29870 0.16500
H 	H 	0.51590 0.87080 0.15170 0.08200
H 	H 	0.11930 0.06130 0.37610 0.18800
H 	H 	0.65240 0.85620 0.86160 0.15900
H 	H 	0.09730 0.71620 0.49520 0.09000
H 	H 	0.52200 0.11650 0.56350 0.09600
H 	H 	0.65240 0.14380 0.13840 0.15900
H 	H 	0.52200 0.88350 0.43650 0.09600
H 	H 	0.47800 0.61650 0.93650 0.09600
H 	H 	0.23540 0.94230 0.56240 0.18000
H 	H 	0.47800 0.38350 0.06350 0.09600
H 	H 	0.34760 0.35620 0.63840 0.15900
H 	H 	0.48410 0.62920 0.65170 0.08200
H 	H 	0.10060 0.69590 0.10470 0.09400
H 	H 	0.77000 0.96210 0.81600 0.01100
H 	H 	0.88070 0.43870 0.87610 0.18900
H 	H 	0.50530 0.53700 0.30550 0.02600
H 	H 	0.37420 0.32280 0.96820 0.07600
H 	H 	0.33130 0.07630 0.28940 0.15600
H 	H 	0.37420 0.67720 0.03180 0.07600
C 	C 	0.99990 0.24900 0.81860 0.08700
C 	C 	0.50010 0.76940 0.06530 -0.07400
C 	C 	0.20090 0.48005 0.21308 0.32000
C 	C 	0.35940 0.56316 0.29480 0.07600
C 	C 	0.38470 0.16030 0.84190 -0.16600
C 	C 	0.64060 0.93684 0.79480 0.07600
C 	C 	0.31920 0.44386 0.77543 -0.09300
C 	C 	0.00010 0.74900 0.68140 0.08600
C 	C 	0.49280 0.28670 0.97361 -0.10600
C 	C 	0.53820 0.55910 0.12914 0.33000
C 	C 	0.24360 0.86050 0.38180 0.09600
C 	C 	0.33760 0.21870 0.88196 0.11100
C 	C 	0.50720 0.21330 0.47361 -0.10700
C 	C 	0.33760 0.78130 0.11804 0.11100
C 	C 	0.99990 0.75100 0.18140 0.08700
C 	C 	0.20090 0.51995 0.78692 0.32000
C 	C 	0.60950 0.64790 0.93181 -0.18800
C 	C 	0.68080 0.94386 0.72457 -0.09300
C 	C 	0.23560 0.14770 0.79180 0.08100
C 	C 	0.39340 0.18510 0.19490 0.44600
C 	C 	0.65640 0.29730 0.02507 0.12700
C 	C 	0.49990 0.73060 0.56530 -0.07400
C 	C 	0.53820 0.44090 0.87086 0.33000
C 	C 	0.75640 0.36050 0.11820 0.09500
C 	C 	0.62510 0.85620 0.81750 -0.41100
C 	C 	0.86120 0.76400 0.63061 -0.16600
C 	C 	0.50010 0.23060 0.93470 -0.07400
C 	C 	0.68080 0.05614 0.27543 -0.09300
C 	C 	0.60660 0.68510 0.30510 0.44600
C 	C 	0.37490 0.35620 0.68250 -0.41100
C 	C 	0.35940 0.43684 0.70520 0.07600
C 	C 	0.13710 0.75350 0.46677 -0.17300
C 	C 	0.37490 0.64380 0.31750 -0.41100
C 	C 	0.76440 0.35230 0.29180 0.08000
C 	C 	0.99480 0.23370 0.58353 0.08200
C 	C 	0.24360 0.13950 0.61820 0.09600
C 	C 	0.34360 0.20270 0.52507 0.12800
C 	C 	0.39340 0.81490 0.80510 0.44600
C 	C 	0.00520 0.73370 0.91647 0.08100
C 	C 	0.66240 0.28130 0.38196 0.11000
C 	C 	0.61530 0.33970 0.34190 -0.16500
C 	C 	0.49280 0.71330 0.02639 -0.10600
C 	C 	0.13880 0.26400 0.86939 -0.16700
C 	C 	0.62510 0.14380 0.18250 -0.41100
C 	C 	0.79910 0.01995 0.71308 0.32100
C 	C 	0.31920 0.55614 0.22457 -0.09300
C 	C 	0.65640 0.70270 0.97493 0.12700
C 	C 	0.64060 0.06316 0.20520 0.07600
C 	C 	0.13880 0.73600 0.13061 -0.16700
C 	C 	0.39050 0.14790 0.56819 -0.18900
C 	C 	0.99480 0.76630 0.41647 0.08200
C 	C 	0.38470 0.83970 0.15810 -0.16600
C 	C 	0.50720 0.78670 0.52639 -0.10700
C 	C 	0.76440 0.64770 0.70820 0.08000
C 	C 	0.23560 0.85230 0.20820 0.08100
C 	C 	0.86290 0.74650 0.96677 -0.17200
C 	C 	0.75640 0.63950 0.88180 0.09500
C 	C 	0.86120 0.23600 0.36939 -0.16600
C 	C 	0.49990 0.26940 0.43470 -0.07400
C 	C 	0.39050 0.85210 0.43181 -0.18900
C 	C 	0.46180 0.05910 0.37086 0.32900
C 	C 	0.66240 0.71870 0.61804 0.11000
C 	C 	0.00010 0.25100 0.31860 0.08600
C 	C 	0.79910 0.98005 0.28692 0.32100
C 	C 	0.61530 0.66030 0.65810 -0.16500
C 	C 	0.46180 0.94090 0.62914 0.32900
C 	C 	0.60660 0.31490 0.69490 0.44600
C 	C 	0.86290 0.25350 0.03323 -0.17200
C 	C 	0.60950 0.35210 0.06819 -0.18800
C 	C 	0.34360 0.79730 0.47493 0.12800
C 	C 	0.13710 0.24650 0.53323 -0.17300
C 	C 	0.00520 0.26630 0.08353 0.08100
N 	N 	0.24600 0.94060 0.60184 -0.36800
N 	N 	0.04540 0.19084 0.78033 -0.27200
N 	N 	0.46090 0.06606 0.30870 -0.22200
N 	N 	0.75400 0.44060 0.89816 -0.36800
N 	N 	0.53910 0.56606 0.19130 -0.22200
N 	N 	0.04740 0.81837 0.37334 -0.27100
N 	N 	0.95260 0.31837 0.12666 -0.27000
N 	N 	0.53910 0.43394 0.80870 -0.22200
N 	N 	0.95460 0.30916 0.28033 -0.27100
N 	N 	0.04540 0.80916 0.21967 -0.27200
N 	N 	0.24600 0.05940 0.39816 -0.36800
N 	N 	0.04740 0.18163 0.62666 -0.27100
N 	N 	0.95260 0.68163 0.87334 -0.27000
N 	N 	0.75400 0.55940 0.10184 -0.36800
N 	N 	0.46090 0.93394 0.69130 -0.22200
N 	N 	0.95460 0.69084 0.71967 -0.27100
O 	O 	0.34810 0.44359 0.89972 -0.27700
O 	O 	0.65190 0.05641 0.39972 -0.27700
O 	O 	0.98250 0.52306 0.78949 -0.32000
O 	O 	0.41640 0.25646 0.20149 -0.50000
O 	O 	0.01750 0.02306 0.71051 -0.32000
O 	O 	0.33740 0.42215 0.20937 -0.44000
O 	O 	0.01750 0.97694 0.28949 -0.32000
O 	O 	0.20370 0.84820 0.80459 -0.34700
O 	O 	0.58360 0.24354 0.70149 -0.50000
O 	O 	0.33740 0.57785 0.79063 -0.44000
O 	O 	0.65190 0.94359 0.60028 -0.27700
O 	O 	0.79630 0.34820 0.69541 -0.34700
O 	O 	0.20370 0.15180 0.19541 -0.34700
O 	O 	0.66260 0.07785 0.70937 -0.44000
O 	O 	0.98250 0.47694 0.21051 -0.32000
O 	O 	0.58360 0.75646 0.29851 -0.50000
O 	O 	0.34810 0.55641 0.10028 -0.27700
O 	O 	0.41640 0.74354 0.79851 -0.50000
O 	O 	0.79630 0.65180 0.30459 -0.34700
O 	O 	0.66260 0.92215 0.29063 -0.44000
