data_crystal

_cell_length_a 15.27930
_cell_length_b 19.30660
_cell_length_c 20.77180
_cell_angle_alpha 90.00000
_cell_angle_beta  99.01000
_cell_angle_gamma 90.00000

_symmetry_space_group_name_	'P 1'
_symmetry_space_group_name_H-M	'P 1'

loop_
_symmetry_equiv_pos_as_xyz
  x,y,z

loop_
_atom_site_label
_atom_site_type_symbol
_atom_site_fract_x
_atom_site_fract_y
_atom_site_fract_z
_atom_site_charge
Cu	Cu	0.67891 0.53711 0.76301 0.90500
Cu	Cu	0.54312 0.45931 0.83146 0.91000
Cu	Cu	0.67891 0.96289 0.26301 0.90500
Cu	Cu	0.54312 0.04069 0.33146 0.91000
H 	H 	0.63470 0.94170 0.11510 0.00800
H 	H 	0.64530 0.86180 0.03600 0.08500
H 	H 	0.69320 0.71800 0.17520 0.09000
H 	H 	0.70130 0.79970 0.24860 0.00200
H 	H 	0.65410 0.79350 0.96690 0.07200
H 	H 	0.65700 0.71430 0.88490 0.03300
H 	H 	0.64620 0.56350 0.00810 0.03200
H 	H 	0.67520 0.63960 0.10040 0.07800
H 	H 	0.84130 0.61560 0.80420 0.00300
H 	H 	0.99650 0.60610 0.82030 0.08300
H 	H 	0.96170 0.40870 0.76620 0.08700
H 	H 	0.81150 0.42360 0.75680 0.00000
H 	H 	0.12090 0.57670 0.86750 0.06000
H 	H 	0.27020 0.56600 0.88570 0.04000
H 	H 	0.25380 0.40340 0.76400 0.03900
H 	H 	0.09700 0.41420 0.74630 0.05800
H 	H 	0.55590 0.04600 0.47290 0.01200
H 	H 	0.57380 0.12280 0.55660 0.10800
H 	H 	0.56740 0.27560 0.42650 0.08600
H 	H 	0.55860 0.19430 0.34580 0.01000
H 	H 	0.53390 0.20440 0.62120 0.07800
H 	H 	0.55760 0.28100 0.70550 0.03500
H 	H 	0.66790 0.41170 0.59460 0.03600
H 	H 	0.64620 0.33270 0.50940 0.06600
H 	H 	0.63470 0.55830 0.61510 0.00700
H 	H 	0.64530 0.63820 0.53600 0.08400
H 	H 	0.69320 0.78200 0.67520 0.08900
H 	H 	0.70130 0.70030 0.74860 0.00100
H 	H 	0.65410 0.70650 0.46690 0.07100
H 	H 	0.65700 0.78570 0.38490 0.03200
H 	H 	0.64620 0.93650 0.50810 0.03100
H 	H 	0.67520 0.86040 0.60040 0.07700
H 	H 	0.84130 0.88440 0.30420 0.00200
H 	H 	0.99650 0.89390 0.32030 0.08200
H 	H 	0.96170 0.09130 0.26620 0.08500
H 	H 	0.81150 0.07640 0.25680 -0.00000
H 	H 	0.12090 0.92330 0.36750 0.06000
H 	H 	0.27020 0.93400 0.38570 0.04000
H 	H 	0.25380 0.09660 0.26400 0.03900
H 	H 	0.09700 0.08580 0.24630 0.05800
H 	H 	0.55590 0.45400 0.97290 0.01200
H 	H 	0.57380 0.37720 0.05660 0.10800
H 	H 	0.56740 0.22440 0.92650 0.08600
H 	H 	0.55860 0.30570 0.84580 0.01000
H 	H 	0.53390 0.29560 0.12120 0.07800
H 	H 	0.55760 0.21900 0.20550 0.03500
H 	H 	0.66790 0.08830 0.09460 0.03600
H 	H 	0.64620 0.16730 0.00940 0.06600
C 	C 	0.65110 0.89650 0.12690 0.08400
C 	C 	0.65310 0.84750 0.07930 -0.15700
C 	C 	0.66500 0.78410 0.09140 0.08100
C 	C 	0.68420 0.76400 0.16270 -0.15900
C 	C 	0.68760 0.81200 0.20490 0.10700
C 	C 	0.66600 0.72360 0.03710 0.04900
C 	C 	0.65970 0.74650 0.97610 -0.11600
C 	C 	0.66170 0.69990 0.92800 0.03900
C 	C 	0.67160 0.62540 0.94490 -0.12100
C 	C 	0.66090 0.60940 0.00140 0.06000
C 	C 	0.66900 0.65440 0.05720 -0.11500
C 	C 	0.86620 0.57300 0.79690 0.08600
C 	C 	0.96050 0.56820 0.80740 -0.14500
C 	C 	0.99570 0.50260 0.79720 0.08400
C 	C 	0.93950 0.45160 0.77610 -0.15700
C 	C 	0.84840 0.46130 0.76860 0.09400
C 	C 	0.09460 0.49570 0.80510 0.01800
C 	C 	0.14760 0.54160 0.84670 -0.08300
C 	C 	0.23640 0.53570 0.85720 0.01500
C 	C 	0.27700 0.48590 0.82650 -0.07900
C 	C 	0.22630 0.43830 0.78440 0.00700
C 	C 	0.13210 0.44460 0.77400 -0.08200
C 	C 	0.38440 0.48460 0.84220 0.38100
C 	C 	0.66810 0.57784 0.88759 0.35100
C 	C 	0.56020 0.09283 0.46362 0.09900
C 	C 	0.57000 0.13874 0.51404 -0.15400
C 	C 	0.57410 0.20986 0.50196 0.07800
C 	C 	0.56740 0.22887 0.43740 -0.14400
C 	C 	0.56050 0.17983 0.38870 0.08700
C 	C 	0.58800 0.25974 0.55511 0.03100
C 	C 	0.56170 0.24624 0.61529 -0.10400
C 	C 	0.57530 0.29254 0.66599 0.04400
C 	C 	0.61330 0.35339 0.65974 -0.10900
C 	C 	0.64080 0.36941 0.60004 0.02900
C 	C 	0.62750 0.32167 0.54865 -0.09800
C 	C 	0.62870 0.40638 0.71355 0.34700
C 	C 	0.65110 0.60350 0.62690 0.08400
C 	C 	0.65310 0.65250 0.57930 -0.15700
C 	C 	0.66500 0.71590 0.59140 0.08100
C 	C 	0.68420 0.73600 0.66270 -0.15900
C 	C 	0.68760 0.68800 0.70490 0.10700
C 	C 	0.66600 0.77640 0.53710 0.04900
C 	C 	0.65970 0.75350 0.47610 -0.11600
C 	C 	0.66170 0.80010 0.42800 0.03900
C 	C 	0.67160 0.87460 0.44490 -0.12100
C 	C 	0.66090 0.89060 0.50140 0.06000
C 	C 	0.66900 0.84560 0.55720 -0.11600
C 	C 	0.86620 0.92700 0.29690 0.08600
C 	C 	0.96050 0.93180 0.30740 -0.14500
C 	C 	0.99570 0.99740 0.29720 0.08300
C 	C 	0.93950 0.04840 0.27610 -0.15600
C 	C 	0.84840 0.03870 0.26860 0.09400
C 	C 	0.09460 0.00430 0.30510 0.01800
C 	C 	0.14760 0.95840 0.34670 -0.08300
C 	C 	0.23640 0.96430 0.35720 0.01500
C 	C 	0.27700 0.01410 0.32650 -0.07900
C 	C 	0.22630 0.06170 0.28440 0.00800
C 	C 	0.13210 0.05540 0.27400 -0.08200
C 	C 	0.38440 0.01540 0.34220 0.38100
C 	C 	0.66810 0.92216 0.38759 0.35100
C 	C 	0.56020 0.40717 0.96362 0.09900
C 	C 	0.57000 0.36126 0.01404 -0.15400
C 	C 	0.57410 0.29014 0.00196 0.07800
C 	C 	0.56740 0.27113 0.93740 -0.14400
C 	C 	0.56050 0.32017 0.88870 0.08700
C 	C 	0.58800 0.24026 0.05511 0.03100
C 	C 	0.56170 0.25376 0.11529 -0.10400
C 	C 	0.57530 0.20746 0.16599 0.04400
C 	C 	0.61330 0.14661 0.15974 -0.10900
C 	C 	0.64080 0.13059 0.10004 0.02900
C 	C 	0.62750 0.17833 0.04865 -0.09800
C 	C 	0.62870 0.09362 0.21355 0.34700
N 	N 	0.67259 0.87978 0.19080 -0.20100
N 	N 	0.81211 0.52182 0.77763 -0.22400
N 	N 	0.54625 0.53099 0.76553 -0.25000
N 	N 	0.50230 0.58135 0.76231 -0.03600
N 	N 	0.46140 0.63000 0.75950 -0.07300
N 	N 	0.55658 0.11194 0.40122 -0.21900
N 	N 	0.67259 0.62022 0.69080 -0.20100
N 	N 	0.81211 0.97818 0.27763 -0.22400
N 	N 	0.54625 0.96901 0.26553 -0.25000
N 	N 	0.50230 0.91865 0.26231 -0.03600
N 	N 	0.46140 0.87000 0.25950 -0.07300
N 	N 	0.55658 0.38806 0.90122 -0.21900
O 	O 	0.42280 0.52120 0.88340 -0.34100
O 	O 	0.41540 0.44470 0.80860 -0.41300
O 	O 	0.68889 0.60231 0.83528 -0.40300
O 	O 	0.64440 0.51670 0.89505 -0.39600
O 	O 	0.60503 0.39076 0.76732 -0.38400
O 	O 	0.66492 0.46259 0.70111 -0.41400
O 	O 	0.42280 0.97880 0.38340 -0.34100
O 	O 	0.41540 0.05530 0.30860 -0.41300
O 	O 	0.68889 0.89769 0.33528 -0.40300
O 	O 	0.64440 0.98330 0.39505 -0.39600
O 	O 	0.60503 0.10924 0.26732 -0.38400
O 	O 	0.66492 0.03741 0.20111 -0.41400
Cu	Cu	0.32109 0.03711 0.73699 0.90400
Cu	Cu	0.45688 0.95931 0.66854 0.90900
Cu	Cu	0.32109 0.46289 0.23699 0.90400
Cu	Cu	0.45688 0.54069 0.16854 0.90900
H 	H 	0.36530 0.44170 0.38490 0.00700
H 	H 	0.35470 0.36180 0.46400 0.08400
H 	H 	0.30680 0.21800 0.32480 0.08900
H 	H 	0.29870 0.29970 0.25140 0.00100
H 	H 	0.34590 0.29350 0.53310 0.07100
H 	H 	0.34300 0.21430 0.61510 0.03200
H 	H 	0.35380 0.06350 0.49190 0.03100
H 	H 	0.32480 0.13960 0.39960 0.07700
H 	H 	0.15870 0.11560 0.69580 0.00200
H 	H 	0.00350 0.10610 0.67970 0.08200
H 	H 	0.03830 0.90870 0.73380 0.08500
H 	H 	0.18850 0.92360 0.74320 -0.00000
H 	H 	0.87910 0.07670 0.63250 0.06000
H 	H 	0.72980 0.06600 0.61430 0.04000
H 	H 	0.74620 0.90340 0.73600 0.03900
H 	H 	0.90300 0.91420 0.75370 0.05800
H 	H 	0.44410 0.54600 0.02710 0.01200
H 	H 	0.42620 0.62280 0.94340 0.10800
H 	H 	0.43260 0.77560 0.07350 0.08600
H 	H 	0.44140 0.69430 0.15420 0.01000
H 	H 	0.46610 0.70440 0.87880 0.07800
H 	H 	0.44240 0.78100 0.79450 0.03500
H 	H 	0.33210 0.91170 0.90540 0.03600
H 	H 	0.35380 0.83270 0.99060 0.06600
H 	H 	0.36530 0.05830 0.88490 0.00700
H 	H 	0.35470 0.13820 0.96400 0.08400
H 	H 	0.30680 0.28200 0.82480 0.08900
H 	H 	0.29870 0.20030 0.75140 0.00100
H 	H 	0.34590 0.20650 0.03310 0.07100
H 	H 	0.34300 0.28570 0.11510 0.03200
H 	H 	0.35380 0.43650 0.99190 0.03100
H 	H 	0.32480 0.36040 0.89960 0.07700
H 	H 	0.15870 0.38440 0.19580 0.00200
H 	H 	0.00350 0.39390 0.17970 0.08200
H 	H 	0.03830 0.59130 0.23380 0.08600
H 	H 	0.18850 0.57640 0.24320 -0.00100
H 	H 	0.87910 0.42330 0.13250 0.06000
H 	H 	0.72980 0.43400 0.11430 0.04000
H 	H 	0.74620 0.59660 0.23600 0.03900
H 	H 	0.90300 0.58580 0.25370 0.05800
H 	H 	0.44410 0.95400 0.52710 0.01200
H 	H 	0.42620 0.87720 0.44340 0.10800
H 	H 	0.43260 0.72440 0.57350 0.08600
H 	H 	0.44140 0.80570 0.65420 0.01000
H 	H 	0.46610 0.79560 0.37880 0.07800
H 	H 	0.44240 0.71900 0.29450 0.03500
H 	H 	0.33210 0.58830 0.40540 0.03600
H 	H 	0.35380 0.66730 0.49060 0.06600
C 	C 	0.34890 0.39650 0.37310 0.08400
C 	C 	0.34690 0.34750 0.42070 -0.15700
C 	C 	0.33500 0.28410 0.40860 0.08100
C 	C 	0.31580 0.26400 0.33730 -0.15900
C 	C 	0.31240 0.31200 0.29510 0.10700
C 	C 	0.33400 0.22360 0.46290 0.04900
C 	C 	0.34030 0.24650 0.52390 -0.11600
C 	C 	0.33830 0.19990 0.57200 0.03900
C 	C 	0.32840 0.12540 0.55510 -0.12100
C 	C 	0.33910 0.10940 0.49860 0.06000
C 	C 	0.33100 0.15440 0.44280 -0.11600
C 	C 	0.13380 0.07300 0.70310 0.08600
C 	C 	0.03950 0.06820 0.69260 -0.14500
C 	C 	0.00430 0.00260 0.70280 0.08300
C 	C 	0.06050 0.95160 0.72390 -0.15600
C 	C 	0.15160 0.96130 0.73140 0.09400
C 	C 	0.90540 0.99570 0.69490 0.01800
C 	C 	0.85240 0.04160 0.65330 -0.08300
C 	C 	0.76360 0.03570 0.64280 0.01500
C 	C 	0.72300 0.98590 0.67350 -0.07900
C 	C 	0.77370 0.93830 0.71560 0.00800
C 	C 	0.86790 0.94460 0.72600 -0.08200
C 	C 	0.61560 0.98460 0.65780 0.38100
C 	C 	0.33190 0.07784 0.61241 0.35100
C 	C 	0.43980 0.59283 0.03638 0.09900
C 	C 	0.43000 0.63874 0.98596 -0.15400
C 	C 	0.42590 0.70986 0.99804 0.07800
C 	C 	0.43260 0.72887 0.06260 -0.14400
C 	C 	0.43950 0.67983 0.11130 0.08700
C 	C 	0.41200 0.75974 0.94489 0.03100
C 	C 	0.43830 0.74624 0.88471 -0.10400
C 	C 	0.42470 0.79254 0.83401 0.04400
C 	C 	0.38670 0.85339 0.84026 -0.10900
C 	C 	0.35920 0.86941 0.89996 0.02900
C 	C 	0.37250 0.82167 0.95135 -0.09800
C 	C 	0.37130 0.90638 0.78645 0.34700
C 	C 	0.34890 0.10350 0.87310 0.08400
C 	C 	0.34690 0.15250 0.92070 -0.15700
C 	C 	0.33500 0.21590 0.90860 0.08100
C 	C 	0.31580 0.23600 0.83730 -0.15900
C 	C 	0.31240 0.18800 0.79510 0.10700
C 	C 	0.33400 0.27640 0.96290 0.04900
C 	C 	0.34030 0.25350 0.02390 -0.11600
C 	C 	0.33830 0.30010 0.07200 0.03900
C 	C 	0.32840 0.37460 0.05510 -0.12100
C 	C 	0.33910 0.39060 0.99860 0.06000
C 	C 	0.33100 0.34560 0.94280 -0.11500
C 	C 	0.13380 0.42700 0.20310 0.08600
C 	C 	0.03950 0.43180 0.19260 -0.14500
C 	C 	0.00430 0.49740 0.20280 0.08400
C 	C 	0.06050 0.54840 0.22390 -0.15700
C 	C 	0.15160 0.53870 0.23140 0.09400
C 	C 	0.90540 0.50430 0.19490 0.01800
C 	C 	0.85240 0.45840 0.15330 -0.08300
C 	C 	0.76360 0.46430 0.14280 0.01500
C 	C 	0.72300 0.51410 0.17350 -0.07900
C 	C 	0.77370 0.56170 0.21560 0.00700
C 	C 	0.86790 0.55540 0.22600 -0.08200
C 	C 	0.61560 0.51540 0.15780 0.38100
C 	C 	0.33190 0.42216 0.11241 0.35100
C 	C 	0.43980 0.90717 0.53638 0.09900
C 	C 	0.43000 0.86126 0.48596 -0.15400
C 	C 	0.42590 0.79014 0.49804 0.07800
C 	C 	0.43260 0.77113 0.56260 -0.14400
C 	C 	0.43950 0.82017 0.61130 0.08700
C 	C 	0.41200 0.74026 0.44489 0.03100
C 	C 	0.43830 0.75376 0.38471 -0.10400
C 	C 	0.42470 0.70746 0.33401 0.04400
C 	C 	0.38670 0.64661 0.34026 -0.10900
C 	C 	0.35920 0.63059 0.39996 0.02900
C 	C 	0.37250 0.67833 0.45135 -0.09800
C 	C 	0.37130 0.59362 0.28645 0.34700
N 	N 	0.32741 0.37978 0.30920 -0.20100
N 	N 	0.18789 0.02182 0.72237 -0.22400
N 	N 	0.45375 0.03099 0.73447 -0.25000
N 	N 	0.49770 0.08135 0.73769 -0.03600
N 	N 	0.53860 0.13000 0.74050 -0.07300
N 	N 	0.44342 0.61194 0.09878 -0.21900
N 	N 	0.32741 0.12022 0.80920 -0.20100
N 	N 	0.18789 0.47818 0.22237 -0.22400
N 	N 	0.45375 0.46901 0.23447 -0.25000
N 	N 	0.49770 0.41865 0.23769 -0.03600
N 	N 	0.53860 0.37000 0.24050 -0.07300
N 	N 	0.44342 0.88806 0.59878 -0.21900
O 	O 	0.57720 0.02120 0.61660 -0.34100
O 	O 	0.58460 0.94470 0.69140 -0.41300
O 	O 	0.31111 0.10231 0.66472 -0.40300
O 	O 	0.35560 0.01670 0.60495 -0.39600
O 	O 	0.39497 0.89076 0.73268 -0.38400
O 	O 	0.33508 0.96259 0.79889 -0.41400
O 	O 	0.57720 0.47880 0.11660 -0.34100
O 	O 	0.58460 0.55530 0.19140 -0.41300
O 	O 	0.31111 0.39769 0.16472 -0.40300
O 	O 	0.35560 0.48330 0.10495 -0.39600
O 	O 	0.39497 0.60924 0.23268 -0.38400
O 	O 	0.33508 0.53741 0.29889 -0.41400
