data_crystal

_cell_length_a 10.45880
_cell_length_b 14.99500
_cell_length_c 16.69900
_cell_angle_alpha 65.44600
_cell_angle_beta  83.48700
_cell_angle_gamma 73.30500

_symmetry_space_group_name_	'P 1'
_symmetry_space_group_name_H-M	'P 1'

loop_
_symmetry_equiv_pos_as_xyz
  x,y,z

loop_
_atom_site_label
_atom_site_type_symbol
_atom_site_fract_x
_atom_site_fract_y
_atom_site_fract_z
_atom_site_charge
La	La	0.20832 0.74396 0.29051 1.54700
La	La	0.27910 0.49318 0.87103 1.45900
La	La	0.79168 0.25604 0.70949 1.54700
La	La	0.72090 0.50682 0.12897 1.45900
H 	H 	0.52120 0.06030 0.68580 0.27600
H 	H 	0.67610 0.03360 0.79500 0.25500
H 	H 	0.80110 0.03690 0.66580 0.25800
H 	H 	0.43450 0.75520 0.83710 0.05400
H 	H 	0.63910 0.75930 0.62000 0.06200
H 	H 	0.36620 0.01740 0.78550 0.12700
H 	H 	0.30850 0.92420 0.84070 0.10400
H 	H 	0.69020 0.86060 0.08210 0.06900
H 	H 	0.38260 0.82370 0.98820 0.07200
H 	H 	0.74660 0.06120 0.90200 0.10200
H 	H 	0.80350 0.98180 0.99520 0.11100
H 	H 	0.17370 0.80680 0.79680 0.04000
H 	H 	0.96430 0.82110 0.00830 0.05600
H 	H 	0.00900 0.04970 0.64640 0.09500
H 	H 	0.14430 0.96540 0.66090 0.08800
H 	H 	0.85550 0.81480 0.50660 0.06000
H 	H 	0.16640 0.83530 0.60950 0.05400
H 	H 	0.64000 0.92820 0.49900 0.10100
H 	H 	0.62300 0.01990 0.52540 0.12200
H 	H 	0.47880 0.93970 0.31420 0.27700
H 	H 	0.32390 0.96640 0.20500 0.25600
H 	H 	0.19890 0.96310 0.33420 0.25800
H 	H 	0.56550 0.24480 0.16290 0.05400
H 	H 	0.36090 0.24070 0.38000 0.06200
H 	H 	0.63380 0.98260 0.21450 0.12700
H 	H 	0.69150 0.07580 0.15930 0.10400
H 	H 	0.30980 0.13940 0.91790 0.06900
H 	H 	0.61740 0.17630 0.01180 0.07200
H 	H 	0.25340 0.93880 0.09800 0.10200
H 	H 	0.19650 0.01820 0.00480 0.11100
H 	H 	0.82630 0.19320 0.20320 0.04000
H 	H 	0.03570 0.17890 0.99170 0.05600
H 	H 	0.99100 0.95030 0.35360 0.09500
H 	H 	0.85570 0.03460 0.33910 0.08800
H 	H 	0.14450 0.18520 0.49340 0.06000
H 	H 	0.83360 0.16470 0.39050 0.05400
H 	H 	0.36000 0.07180 0.50100 0.10100
H 	H 	0.37700 0.98010 0.47460 0.12200
C 	C 	0.53630 0.74350 0.73150 -0.08600
C 	C 	0.47070 0.79150 0.78410 -0.04000
C 	C 	0.45810 0.89310 0.75880 0.01000
C 	C 	0.51320 0.94460 0.67860 0.13900
C 	C 	0.58470 0.89560 0.62720 0.01600
C 	C 	0.59380 0.79380 0.65430 -0.03700
C 	C 	0.39020 0.94440 0.81880 -0.19000
C 	C 	0.53490 0.83060 0.04690 -0.10000
C 	C 	0.63750 0.87550 0.03450 -0.04200
C 	C 	0.66220 0.94240 0.95210 -0.00400
C 	C 	0.58210 0.96270 0.88290 0.14100
C 	C 	0.47640 0.91830 0.89520 0.02100
C 	C 	0.45330 0.85300 0.97820 -0.05300
C 	C 	0.77630 0.98910 0.93870 -0.18600
C 	C 	0.08030 0.79810 0.91060 -0.10800
C 	C 	0.10330 0.84100 0.82150 -0.02600
C 	C 	0.02330 0.93400 0.76830 -0.00500
C 	C 	0.91640 0.98440 0.80570 0.12000
C 	C 	0.89410 0.94090 0.89640 0.00600
C 	C 	0.97750 0.84910 0.94780 -0.02300
C 	C 	0.04880 0.97690 0.67060 -0.16200
C 	C 	0.02350 0.81370 0.55500 -0.08100
C 	C 	0.88930 0.84400 0.53600 -0.04500
C 	C 	0.80520 0.91730 0.56040 0.01500
C 	C 	0.85810 0.96050 0.60380 0.14900
C 	C 	0.99370 0.93080 0.62210 -0.01800
C 	C 	0.07530 0.85650 0.59740 -0.02900
C 	C 	0.65720 0.94670 0.54520 -0.18100
C 	C 	0.46370 0.25650 0.26850 -0.08600
C 	C 	0.52930 0.20850 0.21590 -0.04000
C 	C 	0.54190 0.10690 0.24120 0.01000
C 	C 	0.48680 0.05540 0.32140 0.13900
C 	C 	0.41530 0.10440 0.37280 0.01600
C 	C 	0.40620 0.20620 0.34570 -0.03700
C 	C 	0.60980 0.05560 0.18120 -0.19000
C 	C 	0.46510 0.16940 0.95310 -0.10000
C 	C 	0.36250 0.12450 0.96550 -0.04200
C 	C 	0.33780 0.05760 0.04790 -0.00400
C 	C 	0.41790 0.03730 0.11710 0.14100
C 	C 	0.52360 0.08170 0.10480 0.02100
C 	C 	0.54670 0.14700 0.02180 -0.05300
C 	C 	0.22370 0.01090 0.06130 -0.18600
C 	C 	0.91970 0.20190 0.08940 -0.10800
C 	C 	0.89670 0.15900 0.17850 -0.02600
C 	C 	0.97670 0.06600 0.23170 -0.00500
C 	C 	0.08360 0.01560 0.19430 0.12000
C 	C 	0.10590 0.05910 0.10360 0.00600
C 	C 	0.02250 0.15090 0.05220 -0.02300
C 	C 	0.95120 0.02310 0.32940 -0.16200
C 	C 	0.97650 0.18630 0.44500 -0.08100
C 	C 	0.11070 0.15600 0.46400 -0.04500
C 	C 	0.19480 0.08270 0.43960 0.01500
C 	C 	0.14190 0.03950 0.39620 0.14900
C 	C 	0.00630 0.06920 0.37790 -0.01800
C 	C 	0.92470 0.14350 0.40260 -0.02900
C 	C 	0.34280 0.05330 0.45480 -0.18100
S 	S 	0.55077 0.61298 0.76758 0.59000
S 	S 	0.51065 0.74160 0.15116 0.58800
S 	S 	0.17757 0.67925 0.97846 0.56100
S 	S 	0.12564 0.71919 0.52412 0.53600
S 	S 	0.44923 0.38702 0.23242 0.59000
S 	S 	0.48935 0.25840 0.84884 0.58800
S 	S 	0.82243 0.32075 0.02154 0.56100
S 	S 	0.87436 0.28081 0.47588 0.53600
N 	N 	0.94680 0.84490 0.19610 0.05600
N 	N 	0.05320 0.15510 0.80390 0.05600
O 	O 	0.62210 0.56370 0.85040 -0.31700
O 	O 	0.62420 0.58130 0.70320 -0.31800
O 	O 	0.41940 0.60120 0.77880 -0.44300
O 	O 	0.49450 0.04730 0.64860 -0.39400
O 	O 	0.59350 0.74310 0.21250 -0.32900
O 	O 	0.54370 0.64450 0.14430 -0.47000
O 	O 	0.36950 0.76980 0.17020 -0.44200
O 	O 	0.60050 0.02620 0.79970 -0.41700
O 	O 	0.08760 0.62500 0.03670 -0.34400
O 	O 	0.24540 0.63020 0.92100 -0.45100
O 	O 	0.27170 0.69220 0.02480 -0.28400
O 	O 	0.83180 0.07180 0.75460 -0.36300
O 	O 	0.24910 0.68220 0.57220 -0.29900
O 	O 	0.05660 0.64180 0.54550 -0.30700
O 	O 	0.14640 0.76520 0.43010 -0.42600
O 	O 	0.77050 0.03170 0.62540 -0.39500
O 	O 	0.83890 0.87970 0.16240 -0.14000
O 	O 	0.95650 0.81310 0.27890 -0.26000
O 	O 	0.05210 0.83730 0.15410 -0.24600
O 	O 	0.37790 0.43630 0.14960 -0.31700
O 	O 	0.37580 0.41870 0.29680 -0.31800
O 	O 	0.58060 0.39880 0.22120 -0.44300
O 	O 	0.50550 0.95270 0.35140 -0.39400
O 	O 	0.40650 0.25690 0.78750 -0.32900
O 	O 	0.45630 0.35550 0.85570 -0.47000
O 	O 	0.63050 0.23020 0.82980 -0.44200
O 	O 	0.39950 0.97380 0.20030 -0.41700
O 	O 	0.91240 0.37500 0.96330 -0.34400
O 	O 	0.75460 0.36980 0.07900 -0.45100
O 	O 	0.72830 0.30780 0.97520 -0.28400
O 	O 	0.16820 0.92820 0.24540 -0.36300
O 	O 	0.75090 0.31780 0.42780 -0.29900
O 	O 	0.94340 0.35820 0.45450 -0.30700
O 	O 	0.85360 0.23480 0.56990 -0.42600
O 	O 	0.22950 0.96830 0.37460 -0.39500
O 	O 	0.16110 0.12030 0.83760 -0.14000
O 	O 	0.04350 0.18690 0.72110 -0.26000
O 	O 	0.94790 0.16270 0.84590 -0.24600
