data_crystal

_cell_length_a 8.91420
_cell_length_b 9.18040
_cell_length_c 9.18040
_cell_angle_alpha 76.36630
_cell_angle_beta  60.95450
_cell_angle_gamma 60.95460

_symmetry_space_group_name_	'P 1'
_symmetry_space_group_name_H-M	'P 1'

loop_
_symmetry_equiv_pos_as_xyz
  x,y,z

loop_
_atom_site_label
_atom_site_type_symbol
_atom_site_fract_x
_atom_site_fract_y
_atom_site_fract_z
_atom_site_charge
Yb	Yb	0.87500 0.25000 0.25000 1.55000
Yb	Yb	0.12500 0.75000 0.75000 1.55000
K 	K 	0.37500 0.25000 0.25000 0.65200
K 	K 	0.62500 0.75000 0.75000 0.65200
C 	C 	0.44420 0.47180 0.47940 0.22700
C 	C 	0.89540 0.02820 0.02060 0.21400
C 	C 	0.92360 0.52060 0.97180 0.23500
C 	C 	0.91600 0.97940 0.52820 0.23500
C 	C 	0.55580 0.52820 0.52060 0.22700
C 	C 	0.10460 0.97180 0.97940 0.21400
C 	C 	0.07640 0.47940 0.02820 0.23500
C 	C 	0.08400 0.02060 0.47180 0.23500
O 	O 	0.53902 0.35888 0.37568 -0.39700
O 	O 	0.26405 0.54785 0.55685 -0.38400
O 	O 	0.77358 0.14112 0.12432 -0.39500
O 	O 	0.86875 0.95215 0.94315 -0.36700
O 	O 	0.91470 0.62432 0.85888 -0.39500
O 	O 	0.82090 0.44315 0.04785 -0.39000
O 	O 	0.89790 0.87568 0.64112 -0.39500
O 	O 	0.81190 0.05685 0.45215 -0.39000
O 	O 	0.46098 0.64112 0.62432 -0.39700
O 	O 	0.73595 0.45215 0.44315 -0.38400
O 	O 	0.22642 0.85888 0.87568 -0.39500
O 	O 	0.13125 0.04785 0.05685 -0.36700
O 	O 	0.08530 0.37568 0.14112 -0.39500
O 	O 	0.17910 0.55685 0.95215 -0.39000
O 	O 	0.10210 0.12432 0.35888 -0.39500
O 	O 	0.18810 0.94315 0.54785 -0.39000
