data_crystal

_cell_length_a 9.70550
_cell_length_b 17.84980
_cell_length_c 14.78450
_cell_angle_alpha 90.00000
_cell_angle_beta  94.74850
_cell_angle_gamma 90.00000

_symmetry_space_group_name_	'P 1'
_symmetry_space_group_name_H-M	'P 1'

loop_
_symmetry_equiv_pos_as_xyz
  x,y,z

loop_
_atom_site_label
_atom_site_type_symbol
_atom_site_fract_x
_atom_site_fract_y
_atom_site_fract_z
_atom_site_charge
Cd	Cd	0.86833 0.58159 0.51926 1.22600
O 	O 	0.76190 0.54214 0.38438 -0.42100
O 	O 	0.68380 0.66640 0.53060 -0.38300
O 	O 	0.83970 0.66233 0.64654 -0.37200
O 	O 	0.93440 0.46388 0.40310 -0.49100
N 	N 	0.99290 0.16497 0.05090 -0.24200
N 	N 	0.24640 0.99002 0.90510 -0.24000
C 	C 	0.82450 0.48468 0.36320 0.39000
C 	C 	0.75810 0.43730 0.28790 -0.10600
C 	C 	0.82960 0.38000 0.24910 -0.00000
H 	H 	0.92030 0.36990 0.27090 0.04300
C 	C 	0.76750 0.33720 0.17760 -0.03900
C 	C 	0.63040 0.35140 0.14810 -0.01900
H 	H 	0.58740 0.32330 0.10090 0.04000
C 	C 	0.55770 0.40680 0.18820 -0.06700
H 	H 	0.46510 0.41460 0.16910 0.05700
C 	C 	0.62110 0.45110 0.25660 0.01400
H 	H 	0.57250 0.48990 0.28150 0.04300
C 	C 	0.00880 0.17760 0.13980 0.09800
H 	H 	0.07050 0.14750 0.17490 -0.00900
C 	C 	0.93930 0.23260 0.18300 -0.17300
H 	H 	0.95570 0.23930 0.24540 0.09900
C 	C 	0.84570 0.27740 0.13400 0.11400
C 	C 	0.82720 0.26360 0.04240 -0.17300
H 	H 	0.76420 0.29220 0.00620 0.08900
C 	C 	0.90090 0.20800 0.00350 0.10200
H 	H 	0.88580 0.20020 0.94130 -0.01400
C 	C 	0.72640 0.68430 0.60970 0.31300
C 	C 	0.63770 0.73460 0.66210 -0.09000
C 	C 	0.51190 0.76090 0.62470 0.01900
H 	H 	0.47850 0.74520 0.56700 0.03300
C 	C 	0.43530 0.81010 0.67180 -0.08500
H 	H 	0.35280 0.82870 0.64400 0.05500
C 	C 	0.47710 0.83250 0.75880 0.01900
C 	C 	0.60070 0.80290 0.79730 -0.08600
H 	H 	0.63190 0.81640 0.85630 0.07100
C 	C 	0.67810 0.75410 0.75010 0.02000
H 	H 	0.75910 0.73410 0.77830 0.03800
C 	C 	0.22140 0.98050 0.81550 0.10300
H 	H 	0.15280 0.00950 0.78500 -0.01500
C 	C 	0.29130 0.93030 0.76620 -0.16300
H 	H 	0.26950 0.92590 0.70400 0.08600
C 	C 	0.39540 0.88590 0.80930 0.09400
C 	C 	0.42060 0.89640 0.90170 -0.17300
H 	H 	0.48840 0.86830 0.93420 0.10800
C 	C 	0.34660 0.94790 0.94560 0.11100
H 	H 	0.36740 0.95400 0.00770 -0.01600
Cd	Cd	0.13167 0.08159 0.98074 1.22200
O 	O 	0.23810 0.04214 0.11562 -0.41800
O 	O 	0.31620 0.16640 0.96940 -0.38600
O 	O 	0.16030 0.16233 0.85346 -0.37400
O 	O 	0.06560 0.96388 0.09690 -0.48900
N 	N 	0.00710 0.66497 0.44910 -0.24000
N 	N 	0.75360 0.49002 0.59490 -0.23700
C 	C 	0.17550 0.98468 0.13680 0.38700
C 	C 	0.24190 0.93730 0.21210 -0.10400
C 	C 	0.17040 0.88000 0.25090 -0.00300
H 	H 	0.07970 0.86990 0.22910 0.04500
C 	C 	0.23250 0.83720 0.32240 -0.03600
C 	C 	0.36960 0.85140 0.35190 -0.02200
H 	H 	0.41260 0.82330 0.39910 0.04000
C 	C 	0.44230 0.90680 0.31180 -0.06500
H 	H 	0.53490 0.91460 0.33090 0.05500
C 	C 	0.37890 0.95110 0.24340 0.01200
H 	H 	0.42750 0.98990 0.21850 0.04300
C 	C 	0.99120 0.67760 0.36020 0.09000
H 	H 	0.92950 0.64750 0.32510 -0.00700
C 	C 	0.06070 0.73260 0.31700 -0.16500
H 	H 	0.04430 0.73930 0.25460 0.09700
C 	C 	0.15430 0.77740 0.36600 0.11000
C 	C 	0.17280 0.76360 0.45760 -0.16800
H 	H 	0.23580 0.79220 0.49380 0.08700
C 	C 	0.09910 0.70800 0.49650 0.09700
H 	H 	0.11420 0.70020 0.55870 -0.01300
C 	C 	0.27360 0.18430 0.89030 0.31400
C 	C 	0.36230 0.23460 0.83790 -0.09300
C 	C 	0.48810 0.26090 0.87530 0.02200
H 	H 	0.52150 0.24520 0.93300 0.03100
C 	C 	0.56470 0.31010 0.82820 -0.08900
H 	H 	0.64720 0.32870 0.85600 0.05700
C 	C 	0.52290 0.33250 0.74120 0.02400
C 	C 	0.39930 0.30290 0.70270 -0.09000
H 	H 	0.36810 0.31640 0.64370 0.07200
C 	C 	0.32190 0.25410 0.74990 0.02300
H 	H 	0.24090 0.23410 0.72170 0.03600
C 	C 	0.77860 0.48050 0.68450 0.08600
H 	H 	0.84720 0.50950 0.71500 -0.00400
C 	C 	0.70870 0.43030 0.73380 -0.15100
H 	H 	0.73050 0.42590 0.79600 0.08200
C 	C 	0.60460 0.38590 0.69070 0.08500
C 	C 	0.57940 0.39640 0.59830 -0.16200
H 	H 	0.51160 0.36830 0.56580 0.10300
C 	C 	0.65340 0.44790 0.55440 0.09700
H 	H 	0.63260 0.45400 0.49230 -0.00800
Cd	Cd	0.13167 0.41841 0.48074 1.22500
O 	O 	0.23810 0.45786 0.61562 -0.42200
O 	O 	0.31620 0.33360 0.46940 -0.38300
O 	O 	0.16030 0.33767 0.35346 -0.37200
O 	O 	0.06560 0.53612 0.59690 -0.49100
N 	N 	0.00710 0.83503 0.94910 -0.24200
N 	N 	0.75360 0.00998 0.09490 -0.24000
C 	C 	0.17550 0.51532 0.63680 0.39000
C 	C 	0.24190 0.56270 0.71210 -0.10600
C 	C 	0.17040 0.62000 0.75090 -0.00000
H 	H 	0.07970 0.63010 0.72910 0.04300
C 	C 	0.23250 0.66280 0.82240 -0.03900
C 	C 	0.36960 0.64860 0.85190 -0.01900
H 	H 	0.41260 0.67670 0.89910 0.04000
C 	C 	0.44230 0.59320 0.81180 -0.06700
H 	H 	0.53490 0.58540 0.83090 0.05700
C 	C 	0.37890 0.54890 0.74340 0.01400
H 	H 	0.42750 0.51010 0.71850 0.04300
C 	C 	0.99120 0.82240 0.86020 0.09800
H 	H 	0.92950 0.85250 0.82510 -0.00900
C 	C 	0.06070 0.76740 0.81700 -0.17300
H 	H 	0.04430 0.76070 0.75460 0.09900
C 	C 	0.15430 0.72260 0.86600 0.11400
C 	C 	0.17280 0.73640 0.95760 -0.17300
H 	H 	0.23580 0.70780 0.99380 0.08900
C 	C 	0.09910 0.79200 0.99650 0.10200
H 	H 	0.11420 0.79980 0.05870 -0.01400
C 	C 	0.27360 0.31570 0.39030 0.31300
C 	C 	0.36230 0.26540 0.33790 -0.09000
C 	C 	0.48810 0.23910 0.37530 0.01900
H 	H 	0.52150 0.25480 0.43300 0.03300
C 	C 	0.56470 0.18990 0.32820 -0.08500
H 	H 	0.64720 0.17130 0.35600 0.05500
C 	C 	0.52290 0.16750 0.24120 0.01900
C 	C 	0.39930 0.19710 0.20270 -0.08600
H 	H 	0.36810 0.18360 0.14370 0.07100
C 	C 	0.32190 0.24590 0.24990 0.02000
H 	H 	0.24090 0.26590 0.22170 0.03800
C 	C 	0.77860 0.01950 0.18450 0.10300
H 	H 	0.84720 0.99050 0.21500 -0.01500
C 	C 	0.70870 0.06970 0.23380 -0.16300
H 	H 	0.73050 0.07410 0.29600 0.08600
C 	C 	0.60460 0.11410 0.19070 0.09400
C 	C 	0.57940 0.10360 0.09830 -0.17300
H 	H 	0.51160 0.13170 0.06580 0.10800
C 	C 	0.65340 0.05210 0.05440 0.11100
H 	H 	0.63260 0.04600 0.99230 -0.01600
Cd	Cd	0.86833 0.91841 0.01926 1.22200
O 	O 	0.76190 0.95786 0.88438 -0.41800
O 	O 	0.68380 0.83360 0.03060 -0.38600
O 	O 	0.83970 0.83767 0.14654 -0.37400
O 	O 	0.93440 0.03612 0.90310 -0.48900
N 	N 	0.99290 0.33503 0.55090 -0.24000
N 	N 	0.24640 0.50998 0.40510 -0.23700
C 	C 	0.82450 0.01532 0.86320 0.38700
C 	C 	0.75810 0.06270 0.78790 -0.10400
C 	C 	0.82960 0.12000 0.74910 -0.00300
H 	H 	0.92030 0.13010 0.77090 0.04500
C 	C 	0.76750 0.16280 0.67760 -0.03600
C 	C 	0.63040 0.14860 0.64810 -0.02200
H 	H 	0.58740 0.17670 0.60090 0.04000
C 	C 	0.55770 0.09320 0.68820 -0.06500
H 	H 	0.46510 0.08540 0.66910 0.05500
C 	C 	0.62110 0.04890 0.75660 0.01200
H 	H 	0.57250 0.01010 0.78150 0.04300
C 	C 	0.00880 0.32240 0.63980 0.09000
H 	H 	0.07050 0.35250 0.67490 -0.00700
C 	C 	0.93930 0.26740 0.68300 -0.16500
H 	H 	0.95570 0.26070 0.74540 0.09700
C 	C 	0.84570 0.22260 0.63400 0.11000
C 	C 	0.82720 0.23640 0.54240 -0.16800
H 	H 	0.76420 0.20780 0.50620 0.08700
C 	C 	0.90090 0.29200 0.50350 0.09700
H 	H 	0.88580 0.29980 0.44130 -0.01300
C 	C 	0.72640 0.81570 0.10970 0.31400
C 	C 	0.63770 0.76540 0.16210 -0.09300
C 	C 	0.51190 0.73910 0.12470 0.02200
H 	H 	0.47850 0.75480 0.06700 0.03100
C 	C 	0.43530 0.68990 0.17180 -0.08900
H 	H 	0.35280 0.67130 0.14400 0.05700
C 	C 	0.47710 0.66750 0.25880 0.02400
C 	C 	0.60070 0.69710 0.29730 -0.09000
H 	H 	0.63190 0.68360 0.35630 0.07200
C 	C 	0.67810 0.74590 0.25010 0.02300
H 	H 	0.75910 0.76590 0.27830 0.03600
C 	C 	0.22140 0.51950 0.31550 0.08600
H 	H 	0.15280 0.49050 0.28500 -0.00400
C 	C 	0.29130 0.56970 0.26620 -0.15100
H 	H 	0.26950 0.57410 0.20400 0.08200
C 	C 	0.39540 0.61410 0.30930 0.08500
C 	C 	0.42060 0.60360 0.40170 -0.16200
H 	H 	0.48840 0.63170 0.43420 0.10300
C 	C 	0.34660 0.55210 0.44560 0.09700
H 	H 	0.36740 0.54600 0.50770 -0.00800
