data_crystal

_cell_length_a 15.77800
_cell_length_b 19.44600
_cell_length_c 25.67700
_cell_angle_alpha 90.00000
_cell_angle_beta  90.00000
_cell_angle_gamma 90.00000

_symmetry_space_group_name_	'P 1'
_symmetry_space_group_name_H-M	'P 1'

loop_
_symmetry_equiv_pos_as_xyz
  x,y,z

loop_
_atom_site_label
_atom_site_type_symbol
_atom_site_fract_x
_atom_site_fract_y
_atom_site_fract_z
_atom_site_charge
Cu	Cu	0.49064 0.75597 0.99637 0.85200
Cu	Cu	0.99064 0.74403 0.50363 0.85200
Cu	Cu	0.00936 0.24403 0.99637 0.85200
Cu	Cu	0.50936 0.25597 0.50363 0.85200
H 	H 	0.81740 0.90450 0.24760 0.04400
H 	H 	0.84230 0.96700 0.20100 0.06000
H 	H 	0.75490 0.89440 0.03600 0.04800
H 	H 	0.65570 0.82800 0.98270 0.00500
H 	H 	0.49750 0.79630 0.11090 0.01900
H 	H 	0.59640 0.85630 0.16800 0.06600
H 	H 	0.79290 0.07780 0.31130 0.04300
H 	H 	0.87070 0.05050 0.26710 0.05100
H 	H 	0.81200 0.90070 0.39290 0.05300
H 	H 	0.84220 0.81060 0.45600 -0.00100
H 	H 	0.10110 0.84600 0.44500 0.00200
H 	H 	0.07810 0.93920 0.38470 0.06100
H 	H 	0.64180 0.06810 0.77340 0.04900
H 	H 	0.71720 0.07320 0.82340 0.04400
H 	H 	0.47660 0.00800 0.94170 0.05300
H 	H 	0.43800 0.90800 0.99540 0.00900
H 	H 	0.55270 0.77450 0.88970 0.00200
H 	H 	0.59780 0.87090 0.83600 0.05300
H 	H 	0.65050 0.97160 0.70990 0.05600
H 	H 	0.67780 0.90730 0.75480 0.04800
H 	H 	0.89860 0.90830 0.64830 0.07300
H 	H 	0.99430 0.86460 0.58240 0.00200
H 	H 	0.81500 0.72310 0.53480 -0.00500
H 	H 	0.71680 0.75950 0.60220 0.05700
H 	H 	0.31740 0.59550 0.25240 0.04300
H 	H 	0.34230 0.53300 0.29900 0.05900
H 	H 	0.25490 0.60560 0.46400 0.04700
H 	H 	0.15570 0.67200 0.51730 0.00300
H 	H 	0.99750 0.70370 0.38910 0.01700
H 	H 	0.09640 0.64370 0.33200 0.06500
H 	H 	0.29290 0.42220 0.18870 0.04200
H 	H 	0.37070 0.44950 0.23290 0.04900
H 	H 	0.31200 0.59930 0.10710 0.05200
H 	H 	0.34220 0.68940 0.04400 -0.00200
H 	H 	0.60110 0.65400 0.05500 0.00100
H 	H 	0.57810 0.56080 0.11530 0.06000
H 	H 	0.14180 0.43190 0.72660 0.04800
H 	H 	0.21720 0.42680 0.67660 0.04300
H 	H 	0.97660 0.49200 0.55830 0.05200
H 	H 	0.93800 0.59200 0.50460 0.00700
H 	H 	0.05270 0.72550 0.61030 0.00100
H 	H 	0.09780 0.62910 0.66400 0.05300
H 	H 	0.15050 0.52840 0.79010 0.05600
H 	H 	0.17780 0.59270 0.74520 0.04700
H 	H 	0.39860 0.59170 0.85170 0.07300
H 	H 	0.49430 0.63540 0.91760 0.00300
H 	H 	0.31500 0.77690 0.96520 -0.00500
H 	H 	0.21680 0.74050 0.89780 0.05700
H 	H 	0.68260 0.09550 0.24760 0.04400
H 	H 	0.65770 0.03300 0.20100 0.06000
H 	H 	0.74510 0.10560 0.03600 0.04700
H 	H 	0.84430 0.17200 0.98270 0.00400
H 	H 	0.00250 0.20370 0.11090 0.01700
H 	H 	0.90360 0.14370 0.16800 0.06500
H 	H 	0.70710 0.92220 0.31130 0.04200
H 	H 	0.62930 0.94950 0.26710 0.05000
H 	H 	0.68800 0.09930 0.39290 0.05200
H 	H 	0.65780 0.18940 0.45600 -0.00200
H 	H 	0.39890 0.15400 0.44500 0.00100
H 	H 	0.42190 0.06080 0.38470 0.06000
H 	H 	0.85820 0.93190 0.77340 0.04900
H 	H 	0.78280 0.92680 0.82340 0.04400
H 	H 	0.02340 0.99200 0.94170 0.05400
H 	H 	0.06200 0.09200 0.99540 0.00700
H 	H 	0.94730 0.22550 0.88970 0.00100
H 	H 	0.90220 0.12910 0.83600 0.05400
H 	H 	0.84950 0.02840 0.70990 0.05700
H 	H 	0.82220 0.09270 0.75480 0.04800
H 	H 	0.60140 0.09170 0.64830 0.07300
H 	H 	0.50570 0.13540 0.58240 0.00200
H 	H 	0.68500 0.27690 0.53480 -0.00500
H 	H 	0.78320 0.24050 0.60220 0.05700
H 	H 	0.18260 0.40450 0.25240 0.04300
H 	H 	0.15770 0.46700 0.29900 0.05900
H 	H 	0.24510 0.39440 0.46400 0.04700
H 	H 	0.34430 0.32800 0.51730 0.00300
H 	H 	0.50250 0.29630 0.38910 0.01800
H 	H 	0.40360 0.35630 0.33200 0.06500
H 	H 	0.20710 0.57780 0.18870 0.04200
H 	H 	0.12930 0.55050 0.23290 0.05000
H 	H 	0.18800 0.40070 0.10710 0.05200
H 	H 	0.15780 0.31060 0.04400 -0.00200
H 	H 	0.89890 0.34600 0.05500 0.00100
H 	H 	0.92190 0.43920 0.11530 0.06000
H 	H 	0.35820 0.56810 0.72660 0.04800
H 	H 	0.28280 0.57320 0.67660 0.04300
H 	H 	0.52340 0.50800 0.55830 0.05200
H 	H 	0.56200 0.40800 0.50460 0.00700
H 	H 	0.44730 0.27450 0.61030 0.00100
H 	H 	0.40220 0.37090 0.66400 0.05300
H 	H 	0.34950 0.47160 0.79010 0.05600
H 	H 	0.32220 0.40730 0.74520 0.04700
H 	H 	0.10140 0.40830 0.85170 0.07300
H 	H 	0.00570 0.36460 0.91760 0.00200
H 	H 	0.18500 0.22310 0.96520 -0.00500
H 	H 	0.28320 0.25950 0.89780 0.05700
C 	C 	0.79130 0.94470 0.22330 0.04100
C 	C 	0.75030 0.91190 0.13820 0.29800
C 	C 	0.68360 0.87800 0.10700 -0.04700
C 	C 	0.69950 0.87130 0.05340 -0.03400
C 	C 	0.64310 0.83480 0.02370 0.01700
C 	C 	0.55560 0.81640 0.09480 0.03900
C 	C 	0.61070 0.85080 0.12710 -0.02300
C 	C 	0.81850 0.03370 0.29110 0.04900
C 	C 	0.92750 0.98230 0.34310 0.28600
C 	C 	0.94320 0.92610 0.38210 -0.04000
C 	C 	0.87670 0.88940 0.40380 -0.03600
C 	C 	0.89410 0.83900 0.43890 0.02300
C 	C 	0.03710 0.85840 0.43350 0.04800
C 	C 	0.02460 0.91020 0.39910 -0.03800
C 	C 	0.68500 0.03860 0.79710 0.05500
C 	C 	0.58040 0.00620 0.85700 0.32100
C 	C 	0.54620 0.94690 0.88690 -0.05300
C 	C 	0.49710 0.95700 0.93080 -0.02300
C 	C 	0.47480 0.90070 0.96030 0.03500
C 	C 	0.53900 0.82640 0.90200 0.02700
C 	C 	0.56390 0.88030 0.87190 -0.02500
C 	C 	0.70270 0.94750 0.73010 0.04400
C 	C 	0.73400 0.86590 0.66640 0.28000
C 	C 	0.79870 0.83910 0.62900 -0.03100
C 	C 	0.87850 0.86670 0.62340 -0.04800
C 	C 	0.93230 0.84160 0.58640 0.04600
C 	C 	0.83380 0.76370 0.56100 0.03500
C 	C 	0.77720 0.78500 0.59780 -0.04600
C 	C 	0.29130 0.55530 0.27670 0.04300
C 	C 	0.25030 0.58810 0.36180 0.29800
C 	C 	0.18360 0.62200 0.39300 -0.04600
C 	C 	0.19950 0.62870 0.44660 -0.03400
C 	C 	0.14310 0.66520 0.47630 0.01800
C 	C 	0.05560 0.68360 0.40520 0.04000
C 	C 	0.11070 0.64920 0.37290 -0.02400
C 	C 	0.31850 0.46630 0.20890 0.04900
C 	C 	0.42750 0.51770 0.15690 0.28900
C 	C 	0.44320 0.57390 0.11790 -0.03900
C 	C 	0.37670 0.61060 0.09620 -0.03600
C 	C 	0.39410 0.66100 0.06110 0.02400
C 	C 	0.53710 0.64160 0.06650 0.04700
C 	C 	0.52460 0.58980 0.10090 -0.04000
C 	C 	0.18500 0.46140 0.70290 0.05500
C 	C 	0.08040 0.49380 0.64300 0.31800
C 	C 	0.04620 0.55310 0.61310 -0.05100
C 	C 	0.99710 0.54300 0.56920 -0.02300
C 	C 	0.97480 0.59930 0.53970 0.03500
C 	C 	0.03900 0.67360 0.59800 0.02800
C 	C 	0.06390 0.61970 0.62810 -0.02600
C 	C 	0.20270 0.55250 0.76990 0.04600
C 	C 	0.23400 0.63410 0.83360 0.28000
C 	C 	0.29870 0.66090 0.87100 -0.03100
C 	C 	0.37850 0.63330 0.87660 -0.04800
C 	C 	0.43230 0.65840 0.91360 0.04700
C 	C 	0.33380 0.73630 0.93900 0.03500
C 	C 	0.27720 0.71500 0.90220 -0.04600
C 	C 	0.70870 0.05530 0.22330 0.04200
C 	C 	0.74970 0.08810 0.13820 0.29900
C 	C 	0.81640 0.12200 0.10700 -0.04600
C 	C 	0.80050 0.12870 0.05340 -0.03300
C 	C 	0.85690 0.16520 0.02370 0.01700
C 	C 	0.94440 0.18360 0.09480 0.03900
C 	C 	0.88930 0.14920 0.12710 -0.02300
C 	C 	0.68150 0.96630 0.29110 0.04600
C 	C 	0.57250 0.01770 0.34310 0.29000
C 	C 	0.55680 0.07390 0.38210 -0.03900
C 	C 	0.62330 0.11060 0.40380 -0.03600
C 	C 	0.60590 0.16100 0.43890 0.02400
C 	C 	0.46290 0.14160 0.43350 0.04700
C 	C 	0.47540 0.08980 0.39910 -0.04000
C 	C 	0.81500 0.96140 0.79710 0.05000
C 	C 	0.91960 0.99380 0.85700 0.31000
C 	C 	0.95380 0.05310 0.88690 -0.04200
C 	C 	0.00290 0.04300 0.93080 -0.03000
C 	C 	0.02520 0.09930 0.96030 0.03700
C 	C 	0.96100 0.17360 0.90200 0.03200
C 	C 	0.93610 0.11970 0.87190 -0.03000
C 	C 	0.79730 0.05250 0.73010 0.04500
C 	C 	0.76600 0.13410 0.66640 0.28000
C 	C 	0.70130 0.16090 0.62900 -0.03100
C 	C 	0.62150 0.13330 0.62340 -0.04800
C 	C 	0.56770 0.15840 0.58640 0.04700
C 	C 	0.66620 0.23630 0.56100 0.03500
C 	C 	0.72280 0.21500 0.59780 -0.04600
C 	C 	0.20870 0.44470 0.27670 0.04300
C 	C 	0.24970 0.41190 0.36180 0.29900
C 	C 	0.31640 0.37800 0.39300 -0.04600
C 	C 	0.30050 0.37130 0.44660 -0.03400
C 	C 	0.35690 0.33480 0.47630 0.01700
C 	C 	0.44440 0.31640 0.40520 0.03900
C 	C 	0.38930 0.35080 0.37290 -0.02300
C 	C 	0.18150 0.53370 0.20890 0.04900
C 	C 	0.07250 0.48230 0.15690 0.28900
C 	C 	0.05680 0.42610 0.11790 -0.03800
C 	C 	0.12330 0.38940 0.09620 -0.03600
C 	C 	0.10590 0.33900 0.06110 0.02400
C 	C 	0.96290 0.35840 0.06650 0.04700
C 	C 	0.97540 0.41020 0.10090 -0.04100
C 	C 	0.31500 0.53860 0.70290 0.05500
C 	C 	0.41960 0.50620 0.64300 0.31800
C 	C 	0.45380 0.44690 0.61310 -0.05100
C 	C 	0.50290 0.45700 0.56920 -0.02300
C 	C 	0.52520 0.40070 0.53970 0.03500
C 	C 	0.46100 0.32640 0.59800 0.02700
C 	C 	0.43610 0.38030 0.62810 -0.02600
C 	C 	0.29730 0.44750 0.76990 0.04600
C 	C 	0.26600 0.36590 0.83360 0.28000
C 	C 	0.20130 0.33910 0.87100 -0.03100
C 	C 	0.12150 0.36670 0.87660 -0.04800
C 	C 	0.06770 0.34160 0.91360 0.04600
C 	C 	0.16620 0.26370 0.93900 0.03500
C 	C 	0.22280 0.28500 0.90220 -0.04600
C 	C 	0.75000 -0.00000 0.25760 -0.01400
C 	C 	0.75000 0.00000 0.76240 -0.01300
C 	C 	0.25000 0.50000 0.24240 -0.01700
C 	C 	0.25000 0.50000 0.73760 -0.01700
N 	N 	0.57120 0.80690 0.04460 -0.21900
N 	N 	0.97500 0.82320 0.45320 -0.22400
N 	N 	0.49810 0.83710 0.94640 -0.21500
N 	N 	0.91150 0.79060 0.55570 -0.22200
N 	N 	0.07120 0.69310 0.45540 -0.21900
N 	N 	0.47500 0.67680 0.04680 -0.22400
N 	N 	0.99810 0.66290 0.55360 -0.21500
N 	N 	0.41150 0.70940 0.94430 -0.22200
N 	N 	0.92880 0.19310 0.04460 -0.21800
N 	N 	0.52500 0.17680 0.45320 -0.22400
N 	N 	0.00190 0.16290 0.94640 -0.21700
N 	N 	0.58850 0.20940 0.55570 -0.22200
N 	N 	0.42880 0.30690 0.45540 -0.21900
N 	N 	0.02500 0.32320 0.04680 -0.22300
N 	N 	0.50190 0.33710 0.55360 -0.21500
N 	N 	0.08850 0.29060 0.94430 -0.22200
O 	O 	0.72860 0.91620 0.18880 -0.24400
O 	O 	0.81550 0.93270 0.12220 -0.25300
O 	O 	0.84700 0.98270 0.32810 -0.25200
O 	O 	0.98140 0.01890 0.32660 -0.25500
O 	O 	0.64000 0.98700 0.82570 -0.27000
O 	O 	0.55890 0.06390 0.86330 -0.26800
O 	O 	0.76240 0.91920 0.69310 -0.24600
O 	O 	0.66540 0.83970 0.67060 -0.25000
O 	O 	0.22860 0.58380 0.31120 -0.24400
O 	O 	0.31550 0.56730 0.37780 -0.25200
O 	O 	0.34700 0.51730 0.17190 -0.25100
O 	O 	0.48140 0.48110 0.17340 -0.25800
O 	O 	0.14000 0.51300 0.67430 -0.26800
O 	O 	0.05890 0.43610 0.63670 -0.26800
O 	O 	0.26240 0.58080 0.80690 -0.24600
O 	O 	0.16540 0.66030 0.82940 -0.25000
O 	O 	0.77140 0.08380 0.18880 -0.24300
O 	O 	0.68450 0.06730 0.12220 -0.25200
O 	O 	0.65300 0.01730 0.32810 -0.25000
O 	O 	0.51860 0.98110 0.32660 -0.25900
O 	O 	0.86000 0.01300 0.82570 -0.26300
O 	O 	0.94110 0.93610 0.86330 -0.26600
O 	O 	0.73760 0.08080 0.69310 -0.24600
O 	O 	0.83460 0.16030 0.67060 -0.25000
O 	O 	0.27140 0.41620 0.31120 -0.24400
O 	O 	0.18450 0.43270 0.37780 -0.25200
O 	O 	0.15300 0.48270 0.17190 -0.25100
O 	O 	0.01860 0.51890 0.17340 -0.25700
O 	O 	0.36000 0.48700 0.67430 -0.26800
O 	O 	0.44110 0.56390 0.63670 -0.26800
O 	O 	0.23760 0.41920 0.80690 -0.24600
O 	O 	0.33460 0.33970 0.82940 -0.25000
Cu	Cu	0.50936 0.24403 0.00363 0.85100
Cu	Cu	0.00936 0.25597 0.49637 0.85100
Cu	Cu	0.99064 0.75597 0.00363 0.85100
Cu	Cu	0.49064 0.74403 0.49637 0.85100
H 	H 	0.18260 0.09550 0.75240 0.04300
H 	H 	0.15770 0.03300 0.79900 0.05900
H 	H 	0.24510 0.10560 0.96400 0.04700
H 	H 	0.34430 0.17200 0.01730 0.00400
H 	H 	0.50250 0.20370 0.88910 0.01800
H 	H 	0.40360 0.14370 0.83200 0.06500
H 	H 	0.20710 0.92220 0.68870 0.04100
H 	H 	0.12930 0.94950 0.73290 0.04900
H 	H 	0.18800 0.09930 0.60710 0.05200
H 	H 	0.15780 0.18940 0.54400 -0.00200
H 	H 	0.89890 0.15400 0.55500 0.00100
H 	H 	0.92190 0.06080 0.61530 0.06000
H 	H 	0.35820 0.93190 0.22660 0.04800
H 	H 	0.28280 0.92680 0.17660 0.04300
H 	H 	0.52340 0.99200 0.05830 0.05100
H 	H 	0.56200 0.09200 0.00460 0.00800
H 	H 	0.44730 0.22550 0.11030 0.00100
H 	H 	0.40220 0.12910 0.16400 0.05300
H 	H 	0.34950 0.02840 0.29010 0.05600
H 	H 	0.32220 0.09270 0.24520 0.04700
H 	H 	0.10140 0.09170 0.35170 0.07300
H 	H 	0.00570 0.13540 0.41760 0.00200
H 	H 	0.18500 0.27690 0.46520 -0.00500
H 	H 	0.28320 0.24050 0.39780 0.05700
H 	H 	0.68260 0.40450 0.74760 0.04300
H 	H 	0.65770 0.46700 0.70100 0.05900
H 	H 	0.74510 0.39440 0.53600 0.04700
H 	H 	0.84430 0.32800 0.48270 0.00300
H 	H 	0.00250 0.29630 0.61090 0.01700
H 	H 	0.90360 0.35630 0.66800 0.06500
H 	H 	0.70710 0.57780 0.81130 0.04200
H 	H 	0.62930 0.55050 0.76710 0.04900
H 	H 	0.68800 0.40070 0.89290 0.05200
H 	H 	0.65780 0.31060 0.95600 -0.00200
H 	H 	0.39890 0.34600 0.94500 0.00100
H 	H 	0.42190 0.43920 0.88470 0.06000
H 	H 	0.85820 0.56810 0.27340 0.04800
H 	H 	0.78280 0.57320 0.32340 0.04300
H 	H 	0.02340 0.50800 0.44170 0.05200
H 	H 	0.06200 0.40800 0.49540 0.00700
H 	H 	0.94730 0.27450 0.38970 0.00100
H 	H 	0.90220 0.37090 0.33600 0.05300
H 	H 	0.84950 0.47160 0.20990 0.05600
H 	H 	0.82220 0.40730 0.25480 0.04700
H 	H 	0.60140 0.40830 0.14830 0.07300
H 	H 	0.50570 0.36460 0.08240 0.00300
H 	H 	0.68500 0.22310 0.03480 -0.00500
H 	H 	0.78320 0.25950 0.10220 0.05700
H 	H 	0.31740 0.90450 0.75240 0.04300
H 	H 	0.34230 0.96700 0.79900 0.05900
H 	H 	0.25490 0.89440 0.96400 0.04700
H 	H 	0.15570 0.82800 0.01730 0.00400
H 	H 	0.99750 0.79630 0.88910 0.01700
H 	H 	0.09640 0.85630 0.83200 0.06500
H 	H 	0.29290 0.07780 0.68870 0.04100
H 	H 	0.37070 0.05050 0.73290 0.04900
H 	H 	0.31200 0.90070 0.60710 0.05200
H 	H 	0.34220 0.81060 0.54400 -0.00200
H 	H 	0.60110 0.84600 0.55500 0.00100
H 	H 	0.57810 0.93920 0.61530 0.06000
H 	H 	0.14180 0.06810 0.22660 0.04800
H 	H 	0.21720 0.07320 0.17660 0.04300
H 	H 	0.97660 0.00800 0.05830 0.05500
H 	H 	0.93800 0.90800 0.00460 0.00600
H 	H 	0.05270 0.77450 0.11030 0.00100
H 	H 	0.09780 0.87090 0.16400 0.05400
H 	H 	0.15050 0.97160 0.29010 0.05600
H 	H 	0.17780 0.90730 0.24520 0.04700
H 	H 	0.39860 0.90830 0.35170 0.07300
H 	H 	0.49430 0.86460 0.41760 0.00200
H 	H 	0.31500 0.72310 0.46520 -0.00500
H 	H 	0.21680 0.75950 0.39780 0.05700
H 	H 	0.81740 0.59550 0.74760 0.04300
H 	H 	0.84230 0.53300 0.70100 0.05900
H 	H 	0.75490 0.60560 0.53600 0.04700
H 	H 	0.65570 0.67200 0.48270 0.00300
H 	H 	0.49750 0.70370 0.61090 0.01800
H 	H 	0.59640 0.64370 0.66800 0.06500
H 	H 	0.79290 0.42220 0.81130 0.04200
H 	H 	0.87070 0.44950 0.76710 0.05000
H 	H 	0.81200 0.59930 0.89290 0.05200
H 	H 	0.84220 0.68940 0.95600 -0.00200
H 	H 	0.10110 0.65400 0.94500 0.00100
H 	H 	0.07810 0.56080 0.88470 0.06000
H 	H 	0.64180 0.43190 0.27340 0.04800
H 	H 	0.71720 0.42680 0.32340 0.04300
H 	H 	0.47660 0.49200 0.44170 0.05200
H 	H 	0.43800 0.59200 0.49540 0.00700
H 	H 	0.55270 0.72550 0.38970 0.00100
H 	H 	0.59780 0.62910 0.33600 0.05300
H 	H 	0.65050 0.52840 0.20990 0.05600
H 	H 	0.67780 0.59270 0.25480 0.04700
H 	H 	0.89860 0.59170 0.14830 0.07300
H 	H 	0.99430 0.63540 0.08240 0.00200
H 	H 	0.81500 0.77690 0.03480 -0.00500
H 	H 	0.71680 0.74050 0.10220 0.05700
C 	C 	0.20870 0.05530 0.77670 0.04300
C 	C 	0.24970 0.08810 0.86180 0.29900
C 	C 	0.31640 0.12200 0.89300 -0.04700
C 	C 	0.30050 0.12870 0.94660 -0.03400
C 	C 	0.35690 0.16520 0.97630 0.01700
C 	C 	0.44440 0.18360 0.90520 0.03900
C 	C 	0.38930 0.14920 0.87290 -0.02300
C 	C 	0.18150 0.96630 0.70890 0.04900
C 	C 	0.07250 0.01770 0.65690 0.28800
C 	C 	0.05680 0.07390 0.61790 -0.04000
C 	C 	0.12330 0.11060 0.59620 -0.03600
C 	C 	0.10590 0.16100 0.56110 0.02300
C 	C 	0.96290 0.14160 0.56650 0.04800
C 	C 	0.97540 0.08980 0.60090 -0.03800
C 	C 	0.31500 0.96140 0.20290 0.05500
C 	C 	0.41960 0.99380 0.14300 0.31700
C 	C 	0.45380 0.05310 0.11310 -0.05100
C 	C 	0.50290 0.04300 0.06920 -0.02200
C 	C 	0.52520 0.09930 0.03970 0.03400
C 	C 	0.46100 0.17360 0.09800 0.02700
C 	C 	0.43610 0.11970 0.12810 -0.02600
C 	C 	0.29730 0.05250 0.26990 0.04600
C 	C 	0.26600 0.13410 0.33360 0.28000
C 	C 	0.20130 0.16090 0.37100 -0.03100
C 	C 	0.12150 0.13330 0.37660 -0.04800
C 	C 	0.06770 0.15840 0.41360 0.04600
C 	C 	0.16620 0.23630 0.43900 0.03500
C 	C 	0.22280 0.21500 0.40220 -0.04600
C 	C 	0.70870 0.44470 0.72330 0.04300
C 	C 	0.74970 0.41190 0.63820 0.29800
C 	C 	0.81640 0.37800 0.60700 -0.04600
C 	C 	0.80050 0.37130 0.55340 -0.03400
C 	C 	0.85690 0.33480 0.52370 0.01800
C 	C 	0.94440 0.31640 0.59480 0.04000
C 	C 	0.88930 0.35080 0.62710 -0.02400
C 	C 	0.68150 0.53370 0.79110 0.04900
C 	C 	0.57250 0.48230 0.84310 0.28900
C 	C 	0.55680 0.42610 0.88210 -0.03900
C 	C 	0.62330 0.38940 0.90380 -0.03600
C 	C 	0.60590 0.33900 0.93890 0.02400
C 	C 	0.46290 0.35840 0.93350 0.04700
C 	C 	0.47540 0.41020 0.89910 -0.04000
C 	C 	0.81500 0.53860 0.29710 0.05500
C 	C 	0.91960 0.50620 0.35700 0.31800
C 	C 	0.95380 0.44690 0.38690 -0.05100
C 	C 	0.00290 0.45700 0.43080 -0.02300
C 	C 	0.02520 0.40070 0.46030 0.03500
C 	C 	0.96100 0.32640 0.40200 0.02800
C 	C 	0.93610 0.38030 0.37190 -0.02600
C 	C 	0.79730 0.44750 0.23010 0.04600
C 	C 	0.76600 0.36590 0.16640 0.28000
C 	C 	0.70130 0.33910 0.12900 -0.03100
C 	C 	0.62150 0.36670 0.12340 -0.04800
C 	C 	0.56770 0.34160 0.08640 0.04700
C 	C 	0.66620 0.26370 0.06100 0.03500
C 	C 	0.72280 0.28500 0.09780 -0.04600
C 	C 	0.29130 0.94470 0.77670 0.04400
C 	C 	0.25030 0.91190 0.86180 0.29900
C 	C 	0.18360 0.87800 0.89300 -0.04600
C 	C 	0.19950 0.87130 0.94660 -0.03300
C 	C 	0.14310 0.83480 0.97630 0.01700
C 	C 	0.05560 0.81640 0.90520 0.03900
C 	C 	0.11070 0.85080 0.87290 -0.02300
C 	C 	0.31850 0.03370 0.70890 0.04900
C 	C 	0.42750 0.98230 0.65690 0.28800
C 	C 	0.44320 0.92610 0.61790 -0.03800
C 	C 	0.37670 0.88940 0.59620 -0.03600
C 	C 	0.39410 0.83900 0.56110 0.02400
C 	C 	0.53710 0.85840 0.56650 0.04700
C 	C 	0.52460 0.91020 0.60090 -0.04000
C 	C 	0.18500 0.03860 0.20290 0.05400
C 	C 	0.08040 0.00620 0.14300 0.31400
C 	C 	0.04620 0.94690 0.11310 -0.04400
C 	C 	0.99710 0.95700 0.06920 -0.03200
C 	C 	0.97480 0.90070 0.03970 0.03800
C 	C 	0.03900 0.82640 0.09800 0.03200
C 	C 	0.06390 0.88030 0.12810 -0.02900
C 	C 	0.20270 0.94750 0.26990 0.04600
C 	C 	0.23400 0.86590 0.33360 0.28000
C 	C 	0.29870 0.83910 0.37100 -0.03100
C 	C 	0.37850 0.86670 0.37660 -0.04800
C 	C 	0.43230 0.84160 0.41360 0.04700
C 	C 	0.33380 0.76370 0.43900 0.03500
C 	C 	0.27720 0.78500 0.40220 -0.04600
C 	C 	0.79130 0.55530 0.72330 0.04300
C 	C 	0.75030 0.58810 0.63820 0.29900
C 	C 	0.68360 0.62200 0.60700 -0.04600
C 	C 	0.69950 0.62870 0.55340 -0.03400
C 	C 	0.64310 0.66520 0.52370 0.01700
C 	C 	0.55560 0.68360 0.59480 0.03900
C 	C 	0.61070 0.64920 0.62710 -0.02300
C 	C 	0.81850 0.46630 0.79110 0.04900
C 	C 	0.92750 0.51770 0.84310 0.28900
C 	C 	0.94320 0.57390 0.88210 -0.03800
C 	C 	0.87670 0.61060 0.90380 -0.03600
C 	C 	0.89410 0.66100 0.93890 0.02400
C 	C 	0.03710 0.64160 0.93350 0.04700
C 	C 	0.02460 0.58980 0.89910 -0.04100
C 	C 	0.68500 0.46140 0.29710 0.05500
C 	C 	0.58040 0.49380 0.35700 0.31800
C 	C 	0.54620 0.55310 0.38690 -0.05100
C 	C 	0.49710 0.54300 0.43080 -0.02300
C 	C 	0.47480 0.59930 0.46030 0.03500
C 	C 	0.53900 0.67360 0.40200 0.02700
C 	C 	0.56390 0.61970 0.37190 -0.02600
C 	C 	0.70270 0.55250 0.23010 0.04600
C 	C 	0.73400 0.63410 0.16640 0.28000
C 	C 	0.79870 0.66090 0.12900 -0.03100
C 	C 	0.87850 0.63330 0.12340 -0.04800
C 	C 	0.93230 0.65840 0.08640 0.04600
C 	C 	0.83380 0.73630 0.06100 0.03500
C 	C 	0.77720 0.71500 0.09780 -0.04600
C 	C 	0.25000 0.00000 0.74240 -0.01800
C 	C 	0.25000 0.00000 0.23760 -0.01700
C 	C 	0.75000 0.50000 0.75760 -0.01700
C 	C 	0.75000 0.50000 0.26240 -0.01700
N 	N 	0.42880 0.19310 0.95540 -0.21900
N 	N 	0.02500 0.17680 0.54680 -0.22400
N 	N 	0.50190 0.16290 0.05360 -0.21500
N 	N 	0.08850 0.20940 0.44430 -0.22200
N 	N 	0.92880 0.30690 0.54460 -0.21900
N 	N 	0.52500 0.32320 0.95320 -0.22400
N 	N 	0.00190 0.33710 0.44640 -0.21500
N 	N 	0.58850 0.29060 0.05570 -0.22200
N 	N 	0.07120 0.80690 0.95540 -0.21800
N 	N 	0.47500 0.82320 0.54680 -0.22400
N 	N 	0.99810 0.83710 0.05360 -0.21700
N 	N 	0.41150 0.79060 0.44430 -0.22200
N 	N 	0.57120 0.69310 0.54460 -0.21900
N 	N 	0.97500 0.67680 0.95320 -0.22300
N 	N 	0.49810 0.66290 0.44640 -0.21500
N 	N 	0.91150 0.70940 0.05570 -0.22200
O 	O 	0.27140 0.08380 0.81120 -0.24400
O 	O 	0.18450 0.06730 0.87780 -0.25300
O 	O 	0.15300 0.01730 0.67190 -0.25100
O 	O 	0.01860 0.98110 0.67340 -0.25700
O 	O 	0.36000 0.01300 0.17430 -0.26700
O 	O 	0.44110 0.93610 0.13670 -0.26700
O 	O 	0.23760 0.08080 0.30690 -0.24600
O 	O 	0.33460 0.16030 0.32940 -0.25000
O 	O 	0.77140 0.41620 0.68880 -0.24400
O 	O 	0.68450 0.43270 0.62220 -0.25200
O 	O 	0.65300 0.48270 0.82810 -0.25100
O 	O 	0.51860 0.51890 0.82660 -0.25800
O 	O 	0.86000 0.48700 0.32570 -0.26800
O 	O 	0.94110 0.56390 0.36330 -0.26800
O 	O 	0.73760 0.41920 0.19310 -0.24600
O 	O 	0.83460 0.33970 0.17060 -0.25000
O 	O 	0.22860 0.91620 0.81120 -0.24400
O 	O 	0.31550 0.93270 0.87780 -0.25200
O 	O 	0.34700 0.98270 0.67190 -0.25100
O 	O 	0.48140 0.01890 0.67340 -0.25700
O 	O 	0.14000 0.98700 0.17430 -0.26600
O 	O 	0.05890 0.06390 0.13670 -0.26600
O 	O 	0.26240 0.91920 0.30690 -0.24600
O 	O 	0.16540 0.83970 0.32940 -0.25000
O 	O 	0.72860 0.58380 0.68880 -0.24400
O 	O 	0.81550 0.56730 0.62220 -0.25200
O 	O 	0.84700 0.51730 0.82810 -0.25100
O 	O 	0.98140 0.48110 0.82660 -0.25700
O 	O 	0.64000 0.51300 0.32570 -0.26800
O 	O 	0.55890 0.43610 0.36330 -0.26800
O 	O 	0.76240 0.58080 0.19310 -0.24600
O 	O 	0.66540 0.66030 0.17060 -0.25000
