data_crystal

_cell_length_a 10.61500
_cell_length_b 9.64190
_cell_length_c 28.48000
_cell_angle_alpha 90.00000
_cell_angle_beta  94.81900
_cell_angle_gamma 90.00000

_symmetry_space_group_name_	'P 1'
_symmetry_space_group_name_H-M	'P 1'

loop_
_symmetry_equiv_pos_as_xyz
  x,y,z

loop_
_atom_site_label
_atom_site_type_symbol
_atom_site_fract_x
_atom_site_fract_y
_atom_site_fract_z
_atom_site_charge
Mn	Mn	0.55212 0.19468 0.09425 1.25700
Mn	Mn	0.76770 0.26041 0.69087 1.29800
O 	O 	0.35143 0.14870 0.09054 -0.42200
O 	O 	0.34380 0.00510 0.02878 -0.32600
O 	O 	0.90440 0.21530 0.14198 -0.44200
O 	O 	0.74840 0.23430 0.08571 -0.51100
O 	O 	0.47280 0.62010 0.86720 -0.46800
O 	O 	0.29750 0.55570 0.82418 -0.43900
O 	O 	0.38770 0.89580 0.83569 -0.54500
O 	O 	0.24140 0.02990 0.80041 -0.32800
O 	O 	0.91070 0.20990 0.75057 -0.36700
O 	O 	0.71900 0.25710 0.76477 -0.37600
C 	C 	0.29510 0.09220 0.05434 0.32000
C 	C 	0.16090 0.13440 0.04084 -0.09600
C 	C 	0.07920 0.16480 0.07546 0.04100
H 	H 	0.10890 0.16360 0.10710 0.04900
C 	C 	0.95400 0.19670 0.06252 -0.11500
C 	C 	0.91180 0.20530 0.01461 0.01300
H 	H 	0.82810 0.22930 0.00610 0.03200
C 	C 	0.99160 0.17900 0.97957 -0.03900
C 	C 	0.11640 0.13960 0.99386 0.00400
H 	H 	0.17060 0.11640 0.97110 0.02800
C 	C 	0.86190 0.21710 0.09947 0.39200
C 	C 	0.94870 0.18790 0.92823 0.08400
C 	C 	0.82120 0.20820 0.91309 -0.14300
H 	H 	0.76320 0.21690 0.93560 0.08700
C 	C 	0.77730 0.21590 0.86545 0.08800
C 	C 	0.86420 0.20620 0.83139 -0.10900
C 	C 	0.99140 0.18300 0.84621 0.04100
H 	H 	0.04950 0.17350 0.82370 0.05000
C 	C 	0.03260 0.17410 0.89301 -0.11800
H 	H 	0.11790 0.15850 0.90160 0.06800
C 	C 	0.63790 0.23430 0.85398 -0.01300
C 	C 	0.58460 0.36590 0.85524 -0.00300
H 	H 	0.63610 0.44170 0.86340 0.05200
C 	C 	0.45480 0.38650 0.84440 -0.10200
C 	C 	0.37790 0.27230 0.83303 0.03800
H 	H 	0.29190 0.28480 0.82510 0.04400
C 	C 	0.42960 0.13970 0.83356 -0.10600
C 	C 	0.55940 0.12150 0.84351 -0.01100
H 	H 	0.59370 0.03280 0.84310 0.04800
C 	C 	0.40380 0.53140 0.84537 0.38000
C 	C 	0.34690 0.01570 0.82223 0.33100
C 	C 	0.82870 0.22470 0.77952 0.32700
Mn	Mn	0.44788 0.69468 0.40575 1.25800
Mn	Mn	0.23230 0.76041 0.80913 1.29900
O 	O 	0.64857 0.64870 0.40946 -0.42100
O 	O 	0.65620 0.50510 0.47122 -0.32500
O 	O 	0.09560 0.71530 0.35802 -0.44100
O 	O 	0.25160 0.73430 0.41429 -0.50900
O 	O 	0.52720 0.12010 0.63280 -0.46800
O 	O 	0.70250 0.05570 0.67582 -0.43900
O 	O 	0.61230 0.39580 0.66431 -0.54400
O 	O 	0.75860 0.52990 0.69959 -0.32800
O 	O 	0.08930 0.70990 0.74943 -0.36700
O 	O 	0.28100 0.75710 0.73523 -0.37600
C 	C 	0.70490 0.59220 0.44566 0.32000
C 	C 	0.83910 0.63440 0.45916 -0.09600
C 	C 	0.92080 0.66480 0.42454 0.04100
H 	H 	0.89110 0.66360 0.39290 0.04900
C 	C 	0.04600 0.69670 0.43748 -0.11500
C 	C 	0.08820 0.70530 0.48539 0.01200
H 	H 	0.17190 0.72930 0.49390 0.03200
C 	C 	0.00840 0.67900 0.52043 -0.03800
C 	C 	0.88360 0.63960 0.50614 0.00300
H 	H 	0.82940 0.61640 0.52890 0.02800
C 	C 	0.13810 0.71710 0.40053 0.39200
C 	C 	0.05130 0.68790 0.57177 0.08400
C 	C 	0.17880 0.70820 0.58691 -0.14300
H 	H 	0.23680 0.71690 0.56440 0.08700
C 	C 	0.22270 0.71590 0.63455 0.08900
C 	C 	0.13580 0.70620 0.66861 -0.10900
C 	C 	0.00860 0.68300 0.65379 0.04200
H 	H 	0.95050 0.67350 0.67630 0.05000
C 	C 	0.96740 0.67410 0.60699 -0.11900
H 	H 	0.88210 0.65850 0.59840 0.06900
C 	C 	0.36210 0.73430 0.64602 -0.01300
C 	C 	0.41540 0.86590 0.64476 -0.00300
H 	H 	0.36390 0.94170 0.63660 0.05200
C 	C 	0.54520 0.88650 0.65560 -0.10200
C 	C 	0.62210 0.77230 0.66697 0.03800
H 	H 	0.70810 0.78480 0.67490 0.04400
C 	C 	0.57040 0.63970 0.66644 -0.10600
C 	C 	0.44060 0.62150 0.65649 -0.01100
H 	H 	0.40630 0.53280 0.65690 0.04800
C 	C 	0.59620 0.03140 0.65463 0.38100
C 	C 	0.65310 0.51570 0.67777 0.33100
C 	C 	0.17130 0.72470 0.72048 0.32800
Mn	Mn	0.44788 0.80532 0.90575 1.25800
Mn	Mn	0.23230 0.73959 0.30913 1.29900
O 	O 	0.64857 0.85130 0.90946 -0.42100
O 	O 	0.65620 0.99490 0.97122 -0.32500
O 	O 	0.09560 0.78470 0.85802 -0.44100
O 	O 	0.25160 0.76570 0.91429 -0.51000
O 	O 	0.52720 0.37990 0.13280 -0.46800
O 	O 	0.70250 0.44430 0.17582 -0.43900
O 	O 	0.61230 0.10420 0.16431 -0.54500
O 	O 	0.75860 0.97010 0.19959 -0.32800
O 	O 	0.08930 0.79010 0.24943 -0.36700
O 	O 	0.28100 0.74290 0.23523 -0.37600
C 	C 	0.70490 0.90780 0.94566 0.32000
C 	C 	0.83910 0.86560 0.95916 -0.09600
C 	C 	0.92080 0.83520 0.92454 0.04100
H 	H 	0.89110 0.83640 0.89290 0.04900
C 	C 	0.04600 0.80330 0.93748 -0.11500
C 	C 	0.08820 0.79470 0.98539 0.01300
H 	H 	0.17190 0.77070 0.99390 0.03200
C 	C 	0.00840 0.82100 0.02043 -0.03900
C 	C 	0.88360 0.86040 0.00614 0.00400
H 	H 	0.82940 0.88360 0.02890 0.02800
C 	C 	0.13810 0.78290 0.90053 0.39200
C 	C 	0.05130 0.81210 0.07177 0.08400
C 	C 	0.17880 0.79180 0.08691 -0.14300
H 	H 	0.23680 0.78310 0.06440 0.08700
C 	C 	0.22270 0.78410 0.13455 0.08800
C 	C 	0.13580 0.79380 0.16861 -0.10900
C 	C 	0.00860 0.81700 0.15379 0.04100
H 	H 	0.95050 0.82650 0.17630 0.05000
C 	C 	0.96740 0.82590 0.10699 -0.11800
H 	H 	0.88210 0.84150 0.09840 0.06800
C 	C 	0.36210 0.76570 0.14602 -0.01300
C 	C 	0.41540 0.63410 0.14476 -0.00300
H 	H 	0.36390 0.55830 0.13660 0.05200
C 	C 	0.54520 0.61350 0.15560 -0.10200
C 	C 	0.62210 0.72770 0.16697 0.03800
H 	H 	0.70810 0.71520 0.17490 0.04400
C 	C 	0.57040 0.86030 0.16644 -0.10600
C 	C 	0.44060 0.87850 0.15649 -0.01100
H 	H 	0.40630 0.96720 0.15690 0.04800
C 	C 	0.59620 0.46860 0.15463 0.38000
C 	C 	0.65310 0.98430 0.17777 0.33100
C 	C 	0.17130 0.77530 0.22048 0.32700
Mn	Mn	0.55212 0.30532 0.59425 1.25800
Mn	Mn	0.76770 0.23959 0.19087 1.29900
O 	O 	0.35143 0.35130 0.59054 -0.42100
O 	O 	0.34380 0.49490 0.52878 -0.32500
O 	O 	0.90440 0.28470 0.64198 -0.44100
O 	O 	0.74840 0.26570 0.58571 -0.50900
O 	O 	0.47280 0.87990 0.36720 -0.46800
O 	O 	0.29750 0.94430 0.32418 -0.43900
O 	O 	0.38770 0.60420 0.33569 -0.54400
O 	O 	0.24140 0.47010 0.30041 -0.32800
O 	O 	0.91070 0.29010 0.25057 -0.36700
O 	O 	0.71900 0.24290 0.26477 -0.37600
C 	C 	0.29510 0.40780 0.55434 0.32000
C 	C 	0.16090 0.36560 0.54084 -0.09600
C 	C 	0.07920 0.33520 0.57546 0.04100
H 	H 	0.10890 0.33640 0.60710 0.04900
C 	C 	0.95400 0.30330 0.56252 -0.11500
C 	C 	0.91180 0.29470 0.51461 0.01200
H 	H 	0.82810 0.27070 0.50610 0.03200
C 	C 	0.99160 0.32100 0.47957 -0.03800
C 	C 	0.11640 0.36040 0.49386 0.00300
H 	H 	0.17060 0.38360 0.47110 0.02800
C 	C 	0.86190 0.28290 0.59947 0.39200
C 	C 	0.94870 0.31210 0.42823 0.08400
C 	C 	0.82120 0.29180 0.41309 -0.14300
H 	H 	0.76320 0.28310 0.43560 0.08700
C 	C 	0.77730 0.28410 0.36545 0.08900
C 	C 	0.86420 0.29380 0.33139 -0.10900
C 	C 	0.99140 0.31700 0.34621 0.04200
H 	H 	0.04950 0.32650 0.32370 0.05000
C 	C 	0.03260 0.32590 0.39301 -0.11900
H 	H 	0.11790 0.34150 0.40160 0.06900
C 	C 	0.63790 0.26570 0.35398 -0.01300
C 	C 	0.58460 0.13410 0.35524 -0.00300
H 	H 	0.63610 0.05830 0.36340 0.05200
C 	C 	0.45480 0.11350 0.34440 -0.10200
C 	C 	0.37790 0.22770 0.33303 0.03800
H 	H 	0.29190 0.21520 0.32510 0.04400
C 	C 	0.42960 0.36030 0.33356 -0.10600
C 	C 	0.55940 0.37850 0.34351 -0.01100
H 	H 	0.59370 0.46720 0.34310 0.04800
C 	C 	0.40380 0.96860 0.34537 0.38100
C 	C 	0.34690 0.48430 0.32223 0.33100
C 	C 	0.82870 0.27530 0.27952 0.32800
