data_crystal

_cell_length_a 8.39710
_cell_length_b 9.52570
_cell_length_c 27.13000
_cell_angle_alpha 83.10700
_cell_angle_beta  81.09730
_cell_angle_gamma 63.84760

_symmetry_space_group_name_	'P 1'
_symmetry_space_group_name_H-M	'P 1'

loop_
_symmetry_equiv_pos_as_xyz
  x,y,z

loop_
_atom_site_label
_atom_site_type_symbol
_atom_site_fract_x
_atom_site_fract_y
_atom_site_fract_z
_atom_site_charge
Cu	Cu	0.39396 0.86447 0.77559 0.89800
Cu	Cu	0.04721 0.28926 0.58182 0.91700
Cu	Cu	0.03402 0.63553 0.72441 0.89800
Cu	Cu	0.91829 0.21074 0.91818 0.91400
Cu	Cu	0.60604 0.13553 0.22441 0.89900
Cu	Cu	0.95279 0.71074 0.41818 0.91800
Cu	Cu	0.96598 0.36447 0.27559 0.89900
Cu	Cu	0.08171 0.78926 0.08182 0.91500
Cu	Cu	0.73789 0.25000 0.75000 0.87100
Cu	Cu	0.26211 0.75000 0.25000 0.87100
H 	H 	0.46330 0.69720 0.69140 0.04500
H 	H 	0.53120 0.59590 0.61770 0.07200
H 	H 	0.75600 0.55860 0.55800 0.04600
H 	H 	0.52040 0.78530 0.54910 0.07700
H 	H 	0.44220 0.01770 0.57770 0.07500
H 	H 	0.34760 0.86020 0.62740 0.05800
H 	H 	0.70890 0.06210 0.54970 0.31300
H 	H 	0.85190 0.80280 0.80860 0.04600
H 	H 	0.74480 0.90410 0.88230 0.07100
H 	H 	0.87260 0.94140 0.94200 0.04500
H 	H 	0.85480 0.71470 0.95090 0.07500
H 	H 	0.03760 0.48230 0.92230 0.07800
H 	H 	0.83520 0.63980 0.87260 0.05600
H 	H 	0.32070 0.43790 0.95030 0.31500
H 	H 	0.53670 0.30280 0.30860 0.04500
H 	H 	0.46880 0.40410 0.38230 0.07200
H 	H 	0.24400 0.44140 0.44200 0.04600
H 	H 	0.47960 0.21470 0.45090 0.07700
H 	H 	0.55780 0.98230 0.42230 0.07500
H 	H 	0.65240 0.13980 0.37260 0.05800
H 	H 	0.29110 0.93790 0.45030 0.31300
H 	H 	0.14810 0.19720 0.19140 0.04600
H 	H 	0.25520 0.09590 0.11770 0.07100
H 	H 	0.12740 0.05860 0.05800 0.04500
H 	H 	0.14520 0.28530 0.04910 0.07500
H 	H 	0.96240 0.51770 0.07770 0.07800
H 	H 	0.16480 0.36020 0.12740 0.05600
H 	H 	0.67930 0.56210 0.04970 0.31500
C 	C 	0.54824 0.72577 0.66855 -0.09200
C 	C 	0.63384 0.59867 0.62985 -0.12000
C 	C 	0.73898 0.63500 0.58184 -0.08300
C 	C 	0.62140 0.79743 0.55857 -0.08900
C 	C 	0.53449 0.93109 0.59513 -0.11200
C 	C 	0.43417 0.88268 0.64138 -0.10200
C 	C 	0.68480 0.72191 0.70089 0.35600
C 	C 	0.72581 0.43726 0.65592 0.39000
C 	C 	0.92567 0.62014 0.58652 0.31800
C 	C 	0.71274 0.83547 0.50905 0.33200
C 	C 	0.64765 0.00063 0.61187 0.38900
C 	C 	0.31755 0.02282 0.67288 0.33600
C 	C 	0.94256 0.77423 0.83145 -0.08800
C 	C 	0.86236 0.90133 0.87015 -0.11600
C 	C 	0.95582 0.86500 0.91816 -0.07500
C 	C 	0.97740 0.70257 0.94143 -0.08000
C 	C 	0.06071 0.56891 0.90487 -0.12500
C 	C 	0.95823 0.61732 0.85862 -0.09100
C 	C 	0.10760 0.77809 0.79911 0.35100
C 	C 	0.81899 0.06274 0.84408 0.38600
C 	C 	0.13233 0.87986 0.91348 0.30200
C 	C 	0.05726 0.66453 0.99095 0.32300
C 	C 	0.26015 0.49937 0.88813 0.39700
C 	C 	0.01325 0.47718 0.82712 0.33000
C 	C 	0.45176 0.27423 0.33145 -0.09200
C 	C 	0.36616 0.40133 0.37015 -0.12000
C 	C 	0.26102 0.36500 0.41816 -0.08300
C 	C 	0.37860 0.20257 0.44143 -0.08900
C 	C 	0.46551 0.06891 0.40487 -0.11200
C 	C 	0.56583 0.11732 0.35862 -0.10200
C 	C 	0.31520 0.27809 0.29911 0.35600
C 	C 	0.27419 0.56274 0.34408 0.39000
C 	C 	0.07433 0.37986 0.41348 0.31800
C 	C 	0.28726 0.16453 0.49095 0.33200
C 	C 	0.35235 0.99937 0.38813 0.38900
C 	C 	0.68245 0.97718 0.32712 0.33600
C 	C 	0.05744 0.22577 0.16855 -0.08800
C 	C 	0.13764 0.09867 0.12985 -0.11600
C 	C 	0.04418 0.13500 0.08184 -0.07500
C 	C 	0.02260 0.29743 0.05857 -0.08000
C 	C 	0.93929 0.43109 0.09513 -0.12500
C 	C 	0.04177 0.38268 0.14138 -0.09100
C 	C 	0.89240 0.22191 0.20089 0.35100
C 	C 	0.18101 0.93726 0.15592 0.38600
C 	C 	0.86767 0.12014 0.08652 0.30200
C 	C 	0.94274 0.33547 0.00905 0.32300
C 	C 	0.73985 0.50063 0.11187 0.39700
C 	C 	0.98675 0.52282 0.17288 0.33000
O 	O 	0.63323 0.79277 0.74097 -0.43800
O 	O 	0.84793 0.63918 0.68736 -0.38700
O 	O 	0.65985 0.42234 0.69936 -0.44100
O 	O 	0.85016 0.32408 0.63300 -0.42700
O 	O 	0.05485 0.48321 0.58949 -0.36900
O 	O 	0.94875 0.74088 0.58402 -0.24000
O 	O 	0.78604 0.72740 0.47912 -0.38500
O 	O 	0.70643 0.97070 0.49924 -0.30400
O 	O 	0.71137 0.08179 0.57807 -0.47900
O 	O 	0.66319 0.99838 0.65564 -0.27600
O 	O 	0.24867 0.15430 0.65016 -0.31800
O 	O 	0.28079 0.00358 0.72004 -0.39400
O 	O 	0.16697 0.70723 0.75903 -0.43800
O 	O 	0.17447 0.86082 0.81264 -0.39000
O 	O 	0.78155 0.07766 0.80064 -0.44100
O 	O 	0.80724 0.17592 0.86700 -0.42600
O 	O 	0.12755 0.01679 0.91051 -0.35800
O 	O 	0.27365 0.75912 0.91598 -0.24000
O 	O 	0.99256 0.77260 0.02088 -0.38000
O 	O 	0.17637 0.52930 0.00076 -0.30400
O 	O 	0.37123 0.41821 0.92193 -0.48100
O 	O 	0.31721 0.50162 0.84436 -0.28100
O 	O 	0.05313 0.34570 0.84984 -0.31600
O 	O 	0.00441 0.49642 0.77996 -0.39600
O 	O 	0.36677 0.20723 0.25903 -0.43800
O 	O 	0.15207 0.36082 0.31264 -0.38700
O 	O 	0.34015 0.57766 0.30064 -0.44100
O 	O 	0.14984 0.67592 0.36700 -0.42700
O 	O 	0.94515 0.51679 0.41051 -0.36900
O 	O 	0.05125 0.25912 0.41598 -0.24000
O 	O 	0.21396 0.27260 0.52088 -0.38500
O 	O 	0.29357 0.02930 0.50076 -0.30400
O 	O 	0.28863 0.91821 0.42193 -0.47900
O 	O 	0.33681 0.00162 0.34436 -0.27600
O 	O 	0.75133 0.84570 0.34984 -0.31800
O 	O 	0.71921 0.99642 0.27996 -0.39400
O 	O 	0.83303 0.29277 0.24097 -0.43800
O 	O 	0.82553 0.13918 0.18736 -0.39000
O 	O 	0.21845 0.92234 0.19936 -0.44100
O 	O 	0.19276 0.82408 0.13300 -0.42600
O 	O 	0.87245 0.98321 0.08949 -0.35800
O 	O 	0.72635 0.24088 0.08402 -0.24000
O 	O 	0.00744 0.22740 0.97912 -0.38000
O 	O 	0.82363 0.47070 0.99924 -0.30400
O 	O 	0.62877 0.58179 0.07807 -0.48100
O 	O 	0.68279 0.49838 0.15564 -0.28100
O 	O 	0.94687 0.65430 0.15016 -0.31600
O 	O 	0.99559 0.50358 0.22004 -0.39600
