data_crystal

_cell_length_a 8.90400
_cell_length_b 9.24660
_cell_length_c 9.24660
_cell_angle_alpha 76.59590
_cell_angle_beta  61.21830
_cell_angle_gamma 61.21830

_symmetry_space_group_name_	'P 1'
_symmetry_space_group_name_H-M	'P 1'

loop_
_symmetry_equiv_pos_as_xyz
  x,y,z

loop_
_atom_site_label
_atom_site_type_symbol
_atom_site_fract_x
_atom_site_fract_y
_atom_site_fract_z
_atom_site_charge
K 	K 	0.87500 0.25000 0.25000 0.65200
K 	K 	0.12500 0.75000 0.75000 0.65200
Y 	Y 	0.62500 0.75000 0.75000 2.39000
Y 	Y 	0.37500 0.25000 0.25000 2.39000
C 	C 	0.57850 0.47850 0.02550 0.22600
C 	C 	0.58250 0.02150 0.47450 0.22600
C 	C 	0.60400 0.97450 0.97850 0.23000
C 	C 	0.05700 0.52550 0.52150 0.22700
C 	C 	0.42150 0.52150 0.97450 0.22600
C 	C 	0.41750 0.97850 0.52550 0.22600
C 	C 	0.39600 0.02550 0.02150 0.23000
C 	C 	0.94300 0.47450 0.47850 0.22700
O 	O 	0.69190 0.54360 0.94060 -0.49200
O 	O 	0.60870 0.35340 0.11800 -0.49600
O 	O 	0.67610 0.95640 0.55940 -0.49200
O 	O 	0.58010 0.14660 0.38200 -0.49600
O 	O 	0.63250 0.05940 0.04360 -0.49500
O 	O 	0.72670 0.88200 0.85340 -0.49400
O 	O 	0.23550 0.44060 0.45640 -0.49300
O 	O 	0.96210 0.61800 0.64660 -0.49300
O 	O 	0.30810 0.45640 0.05940 -0.49200
O 	O 	0.39130 0.64660 0.88200 -0.49600
O 	O 	0.32390 0.04360 0.44060 -0.49200
O 	O 	0.41990 0.85340 0.61800 -0.49600
O 	O 	0.36750 0.94060 0.95640 -0.49500
O 	O 	0.27330 0.11800 0.14660 -0.49400
O 	O 	0.76450 0.55940 0.54360 -0.49300
O 	O 	0.03790 0.38200 0.35340 -0.49300
