data_crystal

_cell_length_a 7.27650
_cell_length_b 16.97910
_cell_length_c 17.06680
_cell_angle_alpha 90.00000
_cell_angle_beta  96.53800
_cell_angle_gamma 90.00000

_symmetry_space_group_name_	'P 1'
_symmetry_space_group_name_H-M	'P 1'

loop_
_symmetry_equiv_pos_as_xyz
  x,y,z

loop_
_atom_site_label
_atom_site_type_symbol
_atom_site_fract_x
_atom_site_fract_y
_atom_site_fract_z
_atom_site_charge
Co	Co	0.43470 0.79870 0.80662 1.15400
Co	Co	0.06530 0.29870 0.69338 1.15200
Co	Co	0.56530 0.20130 0.19338 1.15400
Co	Co	0.93470 0.70130 0.30662 1.15200
H 	H 	0.82230 0.48050 0.46170 0.04500
H 	H 	0.92770 0.55890 0.44610 0.03400
H 	H 	0.71500 0.63230 0.65260 0.11000
H 	H 	0.23550 0.70210 0.53630 0.07800
H 	H 	0.59130 0.57370 0.42690 0.09800
H 	H 	0.60490 0.03270 0.63170 0.06700
H 	H 	0.64170 0.04250 0.54350 0.06100
H 	H 	0.84590 0.00010 0.73200 0.06600
H 	H 	0.93940 0.08210 0.72240 0.05800
H 	H 	0.37290 0.15120 0.48810 0.03300
H 	H 	0.53060 0.98690 0.79860 0.03300
H 	H 	0.10310 0.22030 0.52460 0.02800
H 	H 	0.97090 0.05440 0.59110 0.05800
H 	H 	0.88920 0.96970 0.60010 0.05700
H 	H 	0.74390 0.16810 0.56530 0.04800
H 	H 	0.74460 0.15870 0.65660 0.04800
H 	H 	0.29890 0.08640 0.75490 0.04200
H 	H 	0.47540 0.22280 0.70730 0.00200
H 	H 	0.07010 0.87710 0.73500 0.00000
H 	H 	0.67770 0.98050 0.03830 0.04300
H 	H 	0.57230 0.05890 0.05390 0.03300
H 	H 	0.78500 0.13230 0.84740 0.10800
H 	H 	0.26450 0.20210 0.96370 0.07700
H 	H 	0.90870 0.07370 0.07310 0.09800
H 	H 	0.89510 0.53270 0.86830 0.06700
H 	H 	0.85830 0.54250 0.95650 0.06100
H 	H 	0.65410 0.50010 0.76800 0.06500
H 	H 	0.56060 0.58210 0.77760 0.05700
H 	H 	0.12710 0.65120 0.01190 0.03500
H 	H 	0.96940 0.48690 0.70140 0.03700
H 	H 	0.39690 0.72030 0.97540 0.02800
H 	H 	0.52910 0.55440 0.90890 0.05800
H 	H 	0.61080 0.46970 0.89990 0.06000
H 	H 	0.75610 0.66810 0.93470 0.04800
H 	H 	0.75540 0.65870 0.84340 0.04800
H 	H 	0.20110 0.58640 0.74510 0.04100
H 	H 	0.02460 0.72280 0.79270 0.00200
H 	H 	0.42990 0.37710 0.76500 -0.00000
H 	H 	0.17770 0.51950 0.53830 0.04400
H 	H 	0.07230 0.44110 0.55390 0.03300
H 	H 	0.28500 0.36770 0.34740 0.11000
H 	H 	0.76450 0.29790 0.46370 0.07800
H 	H 	0.40870 0.42630 0.57310 0.09800
H 	H 	0.39510 0.96730 0.36830 0.06700
H 	H 	0.35830 0.95750 0.45650 0.06100
H 	H 	0.15410 0.99990 0.26800 0.06600
H 	H 	0.06060 0.91790 0.27760 0.05800
H 	H 	0.62710 0.84880 0.51190 0.03300
H 	H 	0.46940 0.01310 0.20140 0.03300
H 	H 	0.89690 0.77970 0.47540 0.02800
H 	H 	0.02910 0.94560 0.40890 0.05800
H 	H 	0.11080 0.03030 0.39990 0.05700
H 	H 	0.25610 0.83190 0.43470 0.04800
H 	H 	0.25540 0.84130 0.34340 0.04800
H 	H 	0.70110 0.91360 0.24510 0.04200
H 	H 	0.52460 0.77720 0.29270 0.00200
H 	H 	0.92990 0.12290 0.26500 0.00000
H 	H 	0.32230 0.01950 0.96170 0.04300
H 	H 	0.42770 0.94110 0.94610 0.03300
H 	H 	0.21500 0.86770 0.15260 0.10800
H 	H 	0.73550 0.79790 0.03630 0.07700
H 	H 	0.09130 0.92630 0.92690 0.09800
H 	H 	0.10490 0.46730 0.13170 0.06700
H 	H 	0.14170 0.45750 0.04350 0.06100
H 	H 	0.34590 0.49990 0.23200 0.06500
H 	H 	0.43940 0.41790 0.22240 0.05700
H 	H 	0.87290 0.34880 0.98810 0.03500
H 	H 	0.03060 0.51310 0.29860 0.03700
H 	H 	0.60310 0.27970 0.02460 0.02800
H 	H 	0.47090 0.44560 0.09110 0.05800
H 	H 	0.38920 0.53030 0.10010 0.06000
H 	H 	0.24390 0.33190 0.06530 0.04800
H 	H 	0.24460 0.34130 0.15660 0.04800
H 	H 	0.79890 0.41360 0.25490 0.04100
H 	H 	0.97540 0.27720 0.20730 0.00200
H 	H 	0.57010 0.62290 0.23500 -0.00000
C 	C 	0.67800 0.59410 0.54080 0.20800
C 	C 	0.90950 0.51930 0.48540 0.01700
C 	C 	0.63320 0.63330 0.60650 -0.15600
C 	C 	0.34810 0.67608 0.53710 -0.06300
C 	C 	0.39420 0.63920 0.46940 0.00100
C 	C 	0.26480 0.64400 0.39420 0.30900
C 	C 	0.55980 0.59840 0.47210 -0.16100
C 	C 	0.46840 0.67430 0.60530 0.00600
C 	C 	0.42390 0.71800 0.67770 0.27000
C 	C 	0.68640 0.05670 0.59740 -0.11600
C 	C 	0.93850 0.02750 0.70570 -0.06000
C 	C 	0.36140 0.17430 0.53670 -0.00000
C 	C 	0.40830 0.97680 0.77910 0.00800
C 	C 	0.21250 0.21220 0.55740 0.00100
C 	C 	0.88440 0.02380 0.61790 -0.09400
C 	C 	0.67940 0.14410 0.60600 -0.04100
C 	C 	0.28130 0.03220 0.75500 -0.01000
C 	C 	0.41530 0.21390 0.65710 0.09600
C 	C 	0.15840 0.91670 0.74390 0.10000
C 	C 	0.82200 0.09410 0.95920 0.20600
C 	C 	0.59050 0.01930 0.01460 0.01800
C 	C 	0.86680 0.13330 0.89350 -0.15000
C 	C 	0.15190 0.17608 0.96290 -0.06200
C 	C 	0.10580 0.13920 0.03060 -0.00100
C 	C 	0.23520 0.14400 0.10580 0.31000
C 	C 	0.94020 0.09840 0.02790 -0.15800
C 	C 	0.03160 0.17430 0.89470 0.00100
C 	C 	0.07610 0.21800 0.82230 0.26800
C 	C 	0.81360 0.55670 0.90260 -0.11400
C 	C 	0.56150 0.52750 0.79430 -0.06000
C 	C 	0.13860 0.67430 0.96330 -0.00200
C 	C 	0.09170 0.47680 0.72090 0.00200
C 	C 	0.28750 0.71220 0.94260 0.00300
C 	C 	0.61560 0.52380 0.88210 -0.09800
C 	C 	0.82060 0.64410 0.89400 -0.04200
C 	C 	0.21870 0.53220 0.74500 -0.00400
C 	C 	0.08470 0.71390 0.84290 0.09600
C 	C 	0.34160 0.41670 0.75610 0.10000
C 	C 	0.32200 0.40590 0.45920 0.20800
C 	C 	0.09050 0.48070 0.51460 0.01700
C 	C 	0.36680 0.36670 0.39350 -0.15600
C 	C 	0.65190 0.32392 0.46290 -0.06300
C 	C 	0.60580 0.36080 0.53060 0.00100
C 	C 	0.73520 0.35600 0.60580 0.30900
C 	C 	0.44020 0.40160 0.52790 -0.16100
C 	C 	0.53160 0.32570 0.39470 0.00600
C 	C 	0.57610 0.28200 0.32230 0.27000
C 	C 	0.31360 0.94330 0.40260 -0.11600
C 	C 	0.06150 0.97250 0.29430 -0.06000
C 	C 	0.63860 0.82570 0.46330 -0.00000
C 	C 	0.59170 0.02320 0.22090 0.00800
C 	C 	0.78750 0.78780 0.44260 0.00100
C 	C 	0.11560 0.97620 0.38210 -0.09400
C 	C 	0.32060 0.85590 0.39400 -0.04100
C 	C 	0.71870 0.96780 0.24500 -0.01000
C 	C 	0.58470 0.78610 0.34290 0.09600
C 	C 	0.84160 0.08330 0.25610 0.10000
C 	C 	0.17800 0.90590 0.04080 0.20600
C 	C 	0.40950 0.98070 0.98540 0.01800
C 	C 	0.13320 0.86670 0.10650 -0.15000
C 	C 	0.84810 0.82392 0.03710 -0.06200
C 	C 	0.89420 0.86080 0.96940 -0.00100
C 	C 	0.76480 0.85600 0.89420 0.31000
C 	C 	0.05980 0.90160 0.97210 -0.15800
C 	C 	0.96840 0.82570 0.10530 0.00100
C 	C 	0.92390 0.78200 0.17770 0.26800
C 	C 	0.18640 0.44330 0.09740 -0.11400
C 	C 	0.43850 0.47250 0.20570 -0.06000
C 	C 	0.86140 0.32570 0.03670 -0.00200
C 	C 	0.90830 0.52320 0.27910 0.00200
C 	C 	0.71250 0.28780 0.05740 0.00300
C 	C 	0.38440 0.47620 0.11790 -0.09800
C 	C 	0.17940 0.35590 0.10600 -0.04200
C 	C 	0.78130 0.46780 0.25500 -0.00400
C 	C 	0.91530 0.28610 0.15710 0.09600
C 	C 	0.65840 0.58330 0.24390 0.10000
N 	N 	0.24590 0.23725 0.63420 -0.24500
N 	N 	0.33010 0.90351 0.77029 -0.25500
N 	N 	0.12180 0.99248 0.73100 -0.11400
N 	N 	0.49240 0.17589 0.60040 -0.11900
N 	N 	0.25410 0.73725 0.86580 -0.24500
N 	N 	0.16990 0.40351 0.72971 -0.25400
N 	N 	0.37820 0.49248 0.76900 -0.11500
N 	N 	0.00760 0.67589 0.89960 -0.11800
N 	N 	0.75410 0.76275 0.36580 -0.24500
N 	N 	0.66990 0.09649 0.22971 -0.25500
N 	N 	0.87820 0.00752 0.26900 -0.11400
N 	N 	0.50760 0.82411 0.39960 -0.11900
N 	N 	0.74590 0.26275 0.13420 -0.24500
N 	N 	0.83010 0.59649 0.27029 -0.25400
N 	N 	0.62180 0.50752 0.23100 -0.11500
N 	N 	0.99240 0.32411 0.10040 -0.11800
O 	O 	0.84250 0.55409 0.55117 -0.23200
O 	O 	0.11580 0.68298 0.39872 -0.43200
O 	O 	0.26690 0.74398 0.68253 -0.33100
O 	O 	0.30500 0.61320 0.33330 -0.29500
O 	O 	0.55600 0.72906 0.73314 -0.41100
O 	O 	0.65750 0.05409 0.94883 -0.23100
O 	O 	0.38420 0.18298 0.10128 -0.43400
O 	O 	0.23310 0.24398 0.81747 -0.33100
O 	O 	0.19500 0.11320 0.16670 -0.29600
O 	O 	0.94400 0.22906 0.76686 -0.40700
O 	O 	0.15750 0.44591 0.44883 -0.23200
O 	O 	0.88420 0.31702 0.60128 -0.43200
O 	O 	0.73310 0.25602 0.31747 -0.33100
O 	O 	0.69500 0.38680 0.66670 -0.29500
O 	O 	0.44400 0.27094 0.26686 -0.41100
O 	O 	0.34250 0.94591 0.05117 -0.23100
O 	O 	0.61580 0.81702 0.89872 -0.43400
O 	O 	0.76690 0.75602 0.18253 -0.33100
O 	O 	0.80500 0.88680 0.83330 -0.29600
O 	O 	0.05600 0.77094 0.23314 -0.40700
