data_crystal

_cell_length_a 10.90280
_cell_length_b 10.94530
_cell_length_c 15.85330
_cell_angle_alpha 88.15900
_cell_angle_beta  80.54200
_cell_angle_gamma 85.31400

_symmetry_space_group_name_	'P 1'
_symmetry_space_group_name_H-M	'P 1'

loop_
_symmetry_equiv_pos_as_xyz
  x,y,z

loop_
_atom_site_label
_atom_site_type_symbol
_atom_site_fract_x
_atom_site_fract_y
_atom_site_fract_z
_atom_site_charge
Zn	Zn	0.71758 0.84228 0.59370 1.21700
Zn	Zn	0.67030 0.83713 0.78476 1.21800
H 	H 	0.73000 0.44820 0.56790 0.05500
H 	H 	0.72610 0.23880 0.56700 0.04800
H 	H 	0.65260 0.23110 0.82010 0.05200
H 	H 	0.66040 0.43920 0.82080 0.05200
H 	H 	0.26730 0.81890 0.81540 0.05400
H 	H 	0.05780 0.81040 0.81130 0.05100
H 	H 	0.12290 0.85930 0.55670 0.05200
H 	H 	0.33020 0.86830 0.56070 0.05200
H 	H 	0.58030 0.83030 0.31100 0.11600
H 	H 	0.56400 0.84050 0.45570 -0.01200
H 	H 	0.92180 0.83900 0.44350 -0.01200
H 	H 	0.95160 0.83070 0.29690 0.11100
H 	H 	0.80550 0.73110 0.91940 -0.01900
H 	H 	0.82040 0.75640 0.06130 0.10700
H 	H 	0.51620 0.96060 0.93490 0.02600
H 	H 	0.86690 0.80540 0.16860 0.05700
H 	H 	0.61180 0.94970 0.19570 0.13700
C 	C 	0.69690 0.60460 0.69360 0.39500
C 	C 	0.69470 0.46670 0.69450 -0.07800
C 	C 	0.71460 0.40480 0.61940 -0.01900
C 	C 	0.71230 0.27890 0.61900 -0.01000
C 	C 	0.69020 0.21250 0.69290 -0.08700
C 	C 	0.66930 0.27440 0.76860 -0.01500
C 	C 	0.67300 0.39930 0.76880 -0.01600
C 	C 	0.68800 0.07540 0.69210 0.38600
C 	C 	0.45810 0.84710 0.69060 0.38400
C 	C 	0.32070 0.84360 0.68840 -0.07500
C 	C 	0.23820 0.82710 0.76340 -0.01500
C 	C 	0.11260 0.82280 0.76090 -0.01200
C 	C 	0.06710 0.83680 0.68390 -0.08100
C 	C 	0.15140 0.85210 0.60890 -0.01300
C 	C 	0.27530 0.85650 0.61120 -0.01700
C 	C 	0.93080 0.83390 0.68250 0.39000
C 	C 	0.76700 0.83360 0.28880 0.17900
C 	C 	0.65100 0.83320 0.33640 -0.21300
C 	C 	0.64320 0.83750 0.42300 0.12700
C 	C 	0.85260 0.83690 0.41650 0.12400
C 	C 	0.87170 0.83330 0.32860 -0.20800
C 	C 	0.74440 0.78260 0.95140 0.13000
C 	C 	0.75590 0.79800 0.03750 -0.19900
C 	C 	0.66750 0.87620 0.08530 0.16600
C 	C 	0.58650 0.94150 0.04230 -0.08500
C 	C 	0.57820 0.91780 0.96030 0.03700
N 	N 	0.65930 0.83190 0.91282 -0.26000
N 	N 	0.74050 0.83760 0.46485 -0.27200
N 	N 	0.77660 0.86810 0.19990 -0.11800
N 	N 	0.67250 0.90690 0.16620 -0.18600
O 	O 	0.85980 0.82600 0.75222 -0.46800
O 	O 	0.89740 0.83950 0.61031 -0.45900
O 	O 	0.49120 0.85180 0.76264 -0.46200
O 	O 	0.53040 0.84460 0.62053 -0.46800
O 	O 	0.67300 0.65510 0.76494 -0.46000
O 	O 	0.72190 0.65800 0.62375 -0.46200
O 	O 	0.67410 0.02070 0.76345 -0.46100
O 	O 	0.70050 0.02620 0.62128 -0.46200
Zn	Zn	0.28242 0.15772 0.40630 1.21800
Zn	Zn	0.32970 0.16287 0.21524 1.21900
H 	H 	0.27000 0.55180 0.43210 0.05500
H 	H 	0.27390 0.76120 0.43300 0.04800
H 	H 	0.34740 0.76890 0.17990 0.05200
H 	H 	0.33960 0.56080 0.17920 0.05200
H 	H 	0.73270 0.18110 0.18460 0.05400
H 	H 	0.94220 0.18960 0.18870 0.05100
H 	H 	0.87710 0.14070 0.44330 0.05200
H 	H 	0.66980 0.13170 0.43930 0.05200
H 	H 	0.41970 0.16970 0.68900 0.11600
H 	H 	0.43600 0.15950 0.54430 -0.01200
H 	H 	0.07820 0.16100 0.55650 -0.01200
H 	H 	0.04840 0.16930 0.70310 0.11100
H 	H 	0.19450 0.26890 0.08060 -0.01900
H 	H 	0.17960 0.24360 0.93870 0.10700
H 	H 	0.48380 0.03940 0.06510 0.02600
H 	H 	0.13310 0.19460 0.83140 0.05700
H 	H 	0.38820 0.05030 0.80430 0.13700
C 	C 	0.30310 0.39540 0.30640 0.39500
C 	C 	0.30530 0.53330 0.30550 -0.07800
C 	C 	0.28540 0.59520 0.38060 -0.01900
C 	C 	0.28770 0.72110 0.38100 -0.01000
C 	C 	0.30980 0.78750 0.30710 -0.08700
C 	C 	0.33070 0.72560 0.23140 -0.01500
C 	C 	0.32700 0.60070 0.23120 -0.01600
C 	C 	0.31200 0.92460 0.30790 0.38600
C 	C 	0.54190 0.15290 0.30940 0.38400
C 	C 	0.67930 0.15640 0.31160 -0.07500
C 	C 	0.76180 0.17290 0.23660 -0.01500
C 	C 	0.88740 0.17720 0.23910 -0.01200
C 	C 	0.93290 0.16320 0.31610 -0.08100
C 	C 	0.84860 0.14790 0.39110 -0.01300
C 	C 	0.72470 0.14350 0.38880 -0.01700
C 	C 	0.06920 0.16610 0.31750 0.39000
C 	C 	0.23300 0.16640 0.71120 0.17900
C 	C 	0.34900 0.16680 0.66360 -0.21300
C 	C 	0.35680 0.16250 0.57700 0.12700
C 	C 	0.14740 0.16310 0.58350 0.12400
C 	C 	0.12830 0.16670 0.67140 -0.20800
C 	C 	0.25560 0.21740 0.04860 0.13000
C 	C 	0.24410 0.20200 0.96250 -0.19900
C 	C 	0.33250 0.12380 0.91470 0.16600
C 	C 	0.41350 0.05850 0.95770 -0.08500
C 	C 	0.42180 0.08220 0.03970 0.03700
N 	N 	0.34070 0.16810 0.08718 -0.26000
N 	N 	0.25950 0.16240 0.53515 -0.27200
N 	N 	0.22340 0.13190 0.80010 -0.11800
N 	N 	0.32750 0.09310 0.83380 -0.18600
O 	O 	0.14020 0.17400 0.24778 -0.46800
O 	O 	0.10260 0.16050 0.38969 -0.45900
O 	O 	0.50880 0.14820 0.23736 -0.46200
O 	O 	0.46960 0.15540 0.37947 -0.46800
O 	O 	0.32700 0.34490 0.23506 -0.46000
O 	O 	0.27810 0.34200 0.37625 -0.46200
O 	O 	0.32590 0.97930 0.23655 -0.46100
O 	O 	0.29950 0.97380 0.37872 -0.46200
