data_crystal

_cell_length_a 9.32280
_cell_length_b 19.26490
_cell_length_c 24.21100
_cell_angle_alpha 87.32980
_cell_angle_beta  78.89940
_cell_angle_gamma 75.99750

_symmetry_space_group_name_	'P 1'
_symmetry_space_group_name_H-M	'P 1'

loop_
_symmetry_equiv_pos_as_xyz
  x,y,z

loop_
_atom_site_label
_atom_site_type_symbol
_atom_site_fract_x
_atom_site_fract_y
_atom_site_fract_z
_atom_site_charge
Cu	Cu	0.59182 0.24495 0.54129 0.82600
Cu	Cu	0.49675 0.09832 0.62586 0.82800
Cu	Cu	0.35369 0.27202 0.67684 0.80400
Cu	Cu	0.62194 0.74495 0.04129 0.82500
Cu	Cu	0.77907 0.59832 0.12586 0.82700
Cu	Cu	0.69745 0.77202 0.17684 0.80400
H 	H 	0.82050 0.03010 0.20050 0.05500
H 	H 	0.85090 0.13180 0.23900 0.07200
H 	H 	0.17540 0.01270 0.31390 0.05100
H 	H 	0.13340 0.91170 0.28010 0.04000
H 	H 	0.73880 0.91590 0.21370 -0.01600
H 	H 	0.04730 0.73940 0.17580 -0.00300
H 	H 	0.38270 0.14970 0.50650 -0.02800
H 	H 	0.14230 0.10680 0.64900 0.01100
H 	H 	0.99040 0.11060 0.57720 0.03000
H 	H 	0.00550 0.06560 0.48160 0.06500
H 	H 	0.24990 0.21050 0.43330 0.06400
H 	H 	0.19470 0.21000 0.34360 0.06900
H 	H 	0.91370 0.08470 0.40010 0.06200
H 	H 	0.04690 0.47720 0.05980 0.02100
H 	H 	0.79260 0.46360 0.20760 -0.01800
H 	H 	0.14680 0.36040 0.10080 0.03700
H 	H 	0.85130 0.37790 0.27450 0.06400
H 	H 	0.12260 0.26170 0.14650 0.09200
H 	H 	0.15180 0.16300 0.20400 0.06600
H 	H 	0.87980 0.27750 0.33350 0.07100
H 	H 	0.17240 0.82810 0.19790 0.02200
H 	H 	0.94890 0.53010 0.70050 0.05500
H 	H 	0.77830 0.63180 0.73900 0.07200
H 	H 	0.49800 0.51270 0.81390 0.05100
H 	H 	0.67480 0.41170 0.78010 0.04000
H 	H 	0.13160 0.41590 0.71370 -0.01600
H 	H 	0.03750 0.23940 0.67580 -0.00200
H 	H 	0.96110 0.64970 0.00650 -0.02900
H 	H 	0.10190 0.60680 0.14900 0.01100
H 	H 	0.32180 0.61060 0.07720 0.03000
H 	H 	0.44730 0.56560 0.98160 0.06600
H 	H 	0.10630 0.71050 0.93330 0.06500
H 	H 	0.25170 0.71000 0.84360 0.06900
H 	H 	0.60150 0.58470 0.90010 0.06200
H 	H 	0.41610 0.97720 0.55980 0.02100
H 	H 	0.53620 0.96360 0.70760 -0.01800
H 	H 	0.39200 0.86040 0.60080 0.03700
H 	H 	0.49630 0.87790 0.77450 0.06400
H 	H 	0.46920 0.76170 0.64650 0.09200
H 	H 	0.48120 0.66300 0.70400 0.06600
H 	H 	0.50920 0.77750 0.83350 0.07100
H 	H 	0.80160 0.32810 0.69790 0.02100
W 	W 	0.63553 0.20062 0.64282 0.24600
W 	W 	0.52103 0.70062 0.14282 0.24600
C 	C 	0.00720 0.08270 0.28370 0.09600
C 	C 	0.89060 0.02690 0.22370 -0.06200
C 	C 	0.90740 0.08730 0.24750 -0.08800
C 	C 	0.10016 0.01618 0.29290 -0.08700
C 	C 	0.97980 0.96170 0.23510 0.06900
C 	C 	0.07950 0.95630 0.27090 -0.06600
C 	C 	0.83190 0.88340 0.20600 0.08000
C 	C 	0.00100 0.78690 0.18490 0.00000
C 	C 	0.30430 0.13900 0.53280 0.07500
C 	C 	0.17230 0.11550 0.61090 -0.00900
C 	C 	0.08740 0.11760 0.57140 -0.01400
C 	C 	0.12910 0.13820 0.46700 0.08600
C 	C 	0.03680 0.09820 0.45520 -0.08500
C 	C 	0.18810 0.18230 0.42550 -0.07600
C 	C 	0.15190 0.18290 0.37190 -0.08300
C 	C 	0.99030 0.10590 0.40490 -0.08000
C 	C 	0.05390 0.14430 0.35990 0.09500
C 	C 	0.01090 0.20920 0.27300 0.08400
C 	C 	0.00840 0.46030 0.09470 -0.00900
C 	C 	0.86846 0.45288 0.17600 0.10200
C 	C 	0.06380 0.39520 0.11740 0.00400
C 	C 	0.98710 0.33070 0.20530 0.10100
C 	C 	0.91240 0.33450 0.26030 -0.08600
C 	C 	0.07400 0.26550 0.18390 -0.09500
C 	C 	0.08850 0.20610 0.21810 -0.06500
C 	C 	0.92630 0.27400 0.29580 -0.07600
C 	C 	0.07000 0.83480 0.19820 -0.01000
C 	C 	0.62640 0.58270 0.78370 0.09600
C 	C 	0.85880 0.52690 0.72370 -0.06300
C 	C 	0.75780 0.58730 0.74750 -0.08700
C 	C 	0.59076 0.51618 0.79290 -0.08700
C 	C 	0.82340 0.46170 0.73510 0.07000
C 	C 	0.69330 0.45630 0.77090 -0.06600
C 	C 	0.07870 0.38340 0.70600 0.08000
C 	C 	0.02720 0.28690 0.68490 -0.00000
C 	C 	0.02390 0.63900 0.03280 0.07600
C 	C 	0.10130 0.61550 0.11090 -0.00800
C 	C 	0.22360 0.61760 0.07140 -0.01400
C 	C 	0.26570 0.63820 0.96700 0.08600
C 	C 	0.40980 0.59820 0.95520 -0.08600
C 	C 	0.20410 0.68230 0.92550 -0.07600
C 	C 	0.29330 0.68290 0.87190 -0.08300
C 	C 	0.49890 0.60590 0.90490 -0.07900
C 	C 	0.44190 0.64430 0.85990 0.09500
C 	C 	0.50690 0.70920 0.77300 0.08400
C 	C 	0.43660 0.96030 0.59470 -0.01000
C 	C 	0.50266 0.95288 0.67600 0.10200
C 	C 	0.42360 0.89520 0.61740 0.00300
C 	C 	0.47690 0.83070 0.70530 0.10100
C 	C 	0.49280 0.83450 0.76030 -0.08700
C 	C 	0.47660 0.76550 0.68390 -0.09600
C 	C 	0.48730 0.70610 0.71810 -0.06400
C 	C 	0.50390 0.77400 0.79580 -0.07600
C 	C 	0.89700 0.33480 0.69820 -0.00900
S 	S 	0.68960 0.13124 0.56512 -0.49100
S 	S 	0.46067 0.16209 0.70661 -0.56900
S 	S 	0.53595 0.31388 0.61838 -0.49900
S 	S 	0.61404 0.63124 0.06512 -0.49100
S 	S 	0.67063 0.66209 0.20661 -0.56800
S 	S 	0.53179 0.81388 0.11838 -0.49900
Br	Br	0.55407 0.28571 0.45489 -0.46900
Br	Br	0.70533 0.78571 0.95489 -0.46800
N 	N 	0.30910 0.12860 0.58680 -0.24600
N 	N 	0.17274 0.13232 0.51960 -0.13600
N 	N 	0.01785 0.14630 0.30760 -0.15500
N 	N 	0.88210 0.49730 0.13370 -0.23500
N 	N 	0.97432 0.39026 0.16950 -0.14000
N 	N 	0.85515 0.81690 0.18660 -0.25700
N 	N 	0.95963 0.89624 0.21230 -0.13500
N 	N 	0.97550 0.62860 0.08680 -0.24700
N 	N 	0.17534 0.63232 0.01960 -0.13700
N 	N 	0.52825 0.64630 0.80760 -0.15500
N 	N 	0.48690 0.99730 0.63370 -0.23500
N 	N 	0.46592 0.89026 0.66950 -0.14000
N 	N 	0.14135 0.31690 0.68660 -0.25600
N 	N 	0.93183 0.39624 0.71230 -0.13500
Cu	Cu	0.37806 0.25505 0.95871 0.82500
Cu	Cu	0.22093 0.40168 0.87414 0.82700
Cu	Cu	0.30255 0.22798 0.82316 0.80400
Cu	Cu	0.40818 0.75505 0.45871 0.82500
Cu	Cu	0.50325 0.90168 0.37414 0.82700
Cu	Cu	0.64631 0.72798 0.32316 0.80400
H 	H 	0.05110 0.46990 0.29950 0.05500
H 	H 	0.22170 0.36820 0.26100 0.07200
H 	H 	0.50200 0.48730 0.18610 0.05100
H 	H 	0.32520 0.58830 0.21990 0.04000
H 	H 	0.86840 0.58410 0.28630 -0.01600
H 	H 	0.96250 0.76060 0.32420 -0.00200
H 	H 	0.03890 0.35030 0.99350 -0.02900
H 	H 	0.89810 0.39320 0.85100 0.01100
H 	H 	0.67820 0.38940 0.92280 0.03000
H 	H 	0.55270 0.43440 0.01840 0.06600
H 	H 	0.89370 0.28950 0.06670 0.06500
H 	H 	0.74830 0.29000 0.15640 0.06900
H 	H 	0.39850 0.41530 0.09990 0.06200
H 	H 	0.58390 0.02280 0.44020 0.02100
H 	H 	0.46380 0.03640 0.29240 -0.01800
H 	H 	0.60800 0.13960 0.39920 0.03700
H 	H 	0.50370 0.12210 0.22550 0.06400
H 	H 	0.53080 0.23830 0.35350 0.09200
H 	H 	0.51880 0.33700 0.29600 0.06600
H 	H 	0.49080 0.22250 0.16650 0.07100
H 	H 	0.19840 0.67190 0.30210 0.02100
H 	H 	0.17950 0.96990 0.79950 0.05500
H 	H 	0.14910 0.86820 0.76100 0.07200
H 	H 	0.82460 0.98730 0.68610 0.05100
H 	H 	0.86660 0.08830 0.71990 0.04000
H 	H 	0.26120 0.08410 0.78630 -0.01600
H 	H 	0.95270 0.26060 0.82420 -0.00300
H 	H 	0.61730 0.85030 0.49350 -0.02800
H 	H 	0.85770 0.89320 0.35100 0.01100
H 	H 	0.00960 0.88940 0.42280 0.03000
H 	H 	0.99450 0.93440 0.51840 0.06500
H 	H 	0.75010 0.78950 0.56670 0.06400
H 	H 	0.80530 0.79000 0.65640 0.06900
H 	H 	0.08630 0.91530 0.59990 0.06200
H 	H 	0.95310 0.52280 0.94020 0.02100
H 	H 	0.20740 0.53640 0.79240 -0.01800
H 	H 	0.85320 0.63960 0.89920 0.03700
H 	H 	0.14870 0.62210 0.72550 0.06400
H 	H 	0.87740 0.73830 0.85350 0.09200
H 	H 	0.84820 0.83700 0.79600 0.06600
H 	H 	0.12020 0.72250 0.66650 0.07100
H 	H 	0.82760 0.17190 0.80210 0.02200
W 	W 	0.47897 0.29938 0.85718 0.24600
W 	W 	0.36447 0.79938 0.35718 0.24600
C 	C 	0.37360 0.41730 0.21630 0.09600
C 	C 	0.14120 0.47310 0.27630 -0.06300
C 	C 	0.24220 0.41270 0.25250 -0.08700
C 	C 	0.40924 0.48382 0.20710 -0.08700
C 	C 	0.17660 0.53830 0.26490 0.07000
C 	C 	0.30670 0.54370 0.22910 -0.06600
C 	C 	0.92130 0.61660 0.29400 0.08000
C 	C 	0.97280 0.71310 0.31510 -0.00000
C 	C 	0.97610 0.36100 0.96720 0.07600
C 	C 	0.89870 0.38450 0.88910 -0.00800
C 	C 	0.77640 0.38240 0.92860 -0.01400
C 	C 	0.73430 0.36180 0.03300 0.08600
C 	C 	0.59020 0.40180 0.04480 -0.08600
C 	C 	0.79590 0.31770 0.07450 -0.07600
C 	C 	0.70670 0.31710 0.12810 -0.08300
C 	C 	0.50110 0.39410 0.09510 -0.07900
C 	C 	0.55810 0.35570 0.14010 0.09500
C 	C 	0.49310 0.29080 0.22700 0.08400
C 	C 	0.56340 0.03970 0.40530 -0.01000
C 	C 	0.49734 0.04712 0.32400 0.10200
C 	C 	0.57640 0.10480 0.38260 0.00300
C 	C 	0.52310 0.16930 0.29470 0.10100
C 	C 	0.50720 0.16550 0.23970 -0.08700
C 	C 	0.52340 0.23450 0.31610 -0.09600
C 	C 	0.51270 0.29390 0.28190 -0.06400
C 	C 	0.49610 0.22600 0.20420 -0.07600
C 	C 	0.10300 0.66520 0.30180 -0.00900
C 	C 	0.99280 0.91730 0.71630 0.09600
C 	C 	0.10940 0.97310 0.77630 -0.06200
C 	C 	0.09260 0.91270 0.75250 -0.08800
C 	C 	0.89984 0.98382 0.70710 -0.08700
C 	C 	0.02020 0.03830 0.76490 0.06900
C 	C 	0.92050 0.04370 0.72910 -0.06600
C 	C 	0.16810 0.11660 0.79400 0.08000
C 	C 	0.99900 0.21310 0.81510 0.00000
C 	C 	0.69570 0.86100 0.46720 0.07500
C 	C 	0.82770 0.88450 0.38910 -0.00900
C 	C 	0.91260 0.88240 0.42860 -0.01400
C 	C 	0.87090 0.86180 0.53300 0.08600
C 	C 	0.96320 0.90180 0.54480 -0.08500
C 	C 	0.81190 0.81770 0.57450 -0.07600
C 	C 	0.84810 0.81710 0.62810 -0.08300
C 	C 	0.00970 0.89410 0.59510 -0.08000
C 	C 	0.94610 0.85570 0.64010 0.09500
C 	C 	0.98910 0.79080 0.72700 0.08400
C 	C 	0.99160 0.53970 0.90530 -0.00900
C 	C 	0.13154 0.54712 0.82400 0.10200
C 	C 	0.93620 0.60480 0.88260 0.00400
C 	C 	0.01290 0.66930 0.79470 0.10100
C 	C 	0.08760 0.66550 0.73970 -0.08600
C 	C 	0.92600 0.73450 0.81610 -0.09500
C 	C 	0.91150 0.79390 0.78190 -0.06500
C 	C 	0.07370 0.72600 0.70420 -0.07600
C 	C 	0.93000 0.16520 0.80180 -0.01000
S 	S 	0.38596 0.36876 0.93488 -0.49100
S 	S 	0.32937 0.33791 0.79339 -0.56800
S 	S 	0.46821 0.18612 0.88162 -0.49900
S 	S 	0.31040 0.86876 0.43488 -0.49100
S 	S 	0.53933 0.83791 0.29339 -0.56900
S 	S 	0.46405 0.68612 0.38162 -0.49900
Br	Br	0.29467 0.21429 0.04511 -0.46800
Br	Br	0.44593 0.71429 0.54511 -0.46900
N 	N 	0.02450 0.37140 0.91320 -0.24700
N 	N 	0.82466 0.36768 0.98040 -0.13700
N 	N 	0.47175 0.35370 0.19240 -0.15500
N 	N 	0.51310 0.00270 0.36630 -0.23500
N 	N 	0.53408 0.10974 0.33050 -0.14000
N 	N 	0.85865 0.68310 0.31340 -0.25600
N 	N 	0.06817 0.60376 0.28770 -0.13500
N 	N 	0.69090 0.87140 0.41320 -0.24600
N 	N 	0.82726 0.86768 0.48040 -0.13600
N 	N 	0.98215 0.85370 0.69240 -0.15500
N 	N 	0.11790 0.50270 0.86630 -0.23500
N 	N 	0.02568 0.60974 0.83050 -0.14000
N 	N 	0.14485 0.18310 0.81340 -0.25700
N 	N 	0.04037 0.10376 0.78770 -0.13500
