data_crystal

_cell_length_a 14.56490
_cell_length_b 7.80010
_cell_length_c 16.80420
_cell_angle_alpha 90.00000
_cell_angle_beta  105.71800
_cell_angle_gamma 90.00000

_symmetry_space_group_name_	'P 1'
_symmetry_space_group_name_H-M	'P 1'

loop_
_symmetry_equiv_pos_as_xyz
  x,y,z

loop_
_atom_site_label
_atom_site_type_symbol
_atom_site_fract_x
_atom_site_fract_y
_atom_site_fract_z
_atom_site_charge
Cd	Cd	0.13330 0.34931 0.15980 1.21900
Br	Br	0.57417 0.87434 0.91909 -0.29200
C 	C 	0.87470 0.09980 0.04250 -0.14200
C 	C 	0.84510 0.07460 0.95740 0.09900
H 	H 	0.88630 0.10540 0.92460 0.00500
C 	C 	0.75630 0.00520 0.92007 -0.21200
C 	C 	0.69730 0.96260 0.96970 0.21500
C 	C 	0.72630 0.98130 0.05450 -0.19900
H 	H 	0.68600 0.94660 0.08760 0.12000
C 	C 	0.81530 0.05150 0.09070 0.09700
H 	H 	0.83580 0.06660 0.14890 0.01800
C 	C 	0.96910 0.18340 0.07960 0.31300
C 	C 	0.72560 0.99450 0.82690 0.40900
C 	C 	0.30350 0.53640 0.10550 0.10100
H 	H 	0.33390 0.56980 0.16070 0.00800
C 	C 	0.20880 0.43350 0.99930 0.09600
H 	H 	0.15540 0.37550 0.96470 -0.00100
C 	C 	0.42140 0.66730 0.03840 -0.05400
H 	H 	0.43920 0.74580 0.08650 0.07700
H 	H 	0.40750 0.73800 0.98760 0.07900
C 	C 	0.50530 0.54920 0.04000 -0.08700
H 	H 	0.56440 0.61870 0.05140 0.08200
H 	H 	0.51250 0.46630 0.08590 0.08300
N 	N 	0.22370 0.44750 0.08218 -0.25300
N 	N 	0.27470 0.50730 0.97110 -0.09000
N 	N 	0.33480 0.57230 0.04070 -0.08300
O 	O 	0.01338 0.25260 0.03468 -0.37800
O 	O 	0.00240 0.18060 0.15839 -0.36800
O 	O 	0.77010 0.89730 0.79154 -0.43700
O 	O 	0.66182 0.09660 0.79173 -0.42800
Cd	Cd	0.36670 0.84931 0.34020 1.22000
Br	Br	0.92583 0.37434 0.58091 -0.29100
C 	C 	0.62530 0.59980 0.45750 -0.14000
C 	C 	0.65490 0.57460 0.54260 0.09800
H 	H 	0.61370 0.60540 0.57540 0.00500
C 	C 	0.74370 0.50520 0.57993 -0.21400
C 	C 	0.80270 0.46260 0.53030 0.21700
C 	C 	0.77370 0.48130 0.44550 -0.20200
H 	H 	0.81400 0.44660 0.41240 0.12000
C 	C 	0.68470 0.55150 0.40930 0.10000
H 	H 	0.66420 0.56660 0.35110 0.01800
C 	C 	0.53090 0.68340 0.42040 0.32000
C 	C 	0.77440 0.49450 0.67310 0.41000
C 	C 	0.19650 0.03640 0.39450 0.10100
H 	H 	0.16610 0.06980 0.33930 0.00800
C 	C 	0.29120 0.93350 0.50070 0.09700
H 	H 	0.34460 0.87550 0.53530 -0.00100
C 	C 	0.07860 0.16730 0.46160 -0.05500
H 	H 	0.06080 0.24580 0.41350 0.07700
H 	H 	0.09250 0.23800 0.51240 0.08000
C 	C 	0.99470 0.04920 0.46000 -0.08900
H 	H 	0.93560 0.11870 0.44860 0.08200
H 	H 	0.98750 0.96630 0.41410 0.08400
N 	N 	0.27630 0.94750 0.41782 -0.25300
N 	N 	0.22530 0.00730 0.52890 -0.08900
N 	N 	0.16520 0.07230 0.45930 -0.08300
O 	O 	0.48662 0.75260 0.46532 -0.38200
O 	O 	0.49760 0.68060 0.34161 -0.37100
O 	O 	0.72990 0.39730 0.70846 -0.43700
O 	O 	0.83818 0.59660 0.70827 -0.42900
Cd	Cd	0.86670 0.65069 0.84020 1.22000
Br	Br	0.42583 0.12566 0.08091 -0.29100
C 	C 	0.12530 0.90020 0.95750 -0.14100
C 	C 	0.15490 0.92540 0.04260 0.10000
H 	H 	0.11370 0.89460 0.07540 0.00500
C 	C 	0.24370 0.99480 0.07993 -0.21200
C 	C 	0.30270 0.03740 0.03030 0.21500
C 	C 	0.27370 0.01870 0.94550 -0.19900
H 	H 	0.31400 0.05340 0.91240 0.12000
C 	C 	0.18470 0.94850 0.90930 0.09700
H 	H 	0.16420 0.93340 0.85110 0.01800
C 	C 	0.03090 0.81660 0.92040 0.31300
C 	C 	0.27440 0.00550 0.17310 0.40900
C 	C 	0.69650 0.46360 0.89450 0.10100
H 	H 	0.66610 0.43020 0.83930 0.00800
C 	C 	0.79120 0.56650 0.00070 0.09600
H 	H 	0.84460 0.62450 0.03530 -0.00100
C 	C 	0.57860 0.33270 0.96160 -0.05400
H 	H 	0.56080 0.25420 0.91350 0.07700
H 	H 	0.59250 0.26200 0.01240 0.07900
C 	C 	0.49470 0.45080 0.96000 -0.08700
H 	H 	0.43560 0.38130 0.94860 0.08200
H 	H 	0.48750 0.53370 0.91410 0.08300
N 	N 	0.77630 0.55250 0.91782 -0.25300
N 	N 	0.72530 0.49270 0.02890 -0.09000
N 	N 	0.66520 0.42770 0.95930 -0.08300
O 	O 	0.98662 0.74740 0.96532 -0.37800
O 	O 	0.99760 0.81940 0.84161 -0.36800
O 	O 	0.22990 0.10270 0.20846 -0.43700
O 	O 	0.33818 0.90340 0.20827 -0.42800
Cd	Cd	0.63330 0.15069 0.65980 1.22000
Br	Br	0.07417 0.62566 0.41909 -0.29100
C 	C 	0.37470 0.40020 0.54250 -0.14000
C 	C 	0.34510 0.42540 0.45740 0.09800
H 	H 	0.38630 0.39460 0.42460 0.00500
C 	C 	0.25630 0.49480 0.42007 -0.21400
C 	C 	0.19730 0.53740 0.46970 0.21700
C 	C 	0.22630 0.51870 0.55450 -0.20200
H 	H 	0.18600 0.55340 0.58760 0.12000
C 	C 	0.31530 0.44850 0.59070 0.10000
H 	H 	0.33580 0.43340 0.64890 0.01800
C 	C 	0.46910 0.31660 0.57960 0.32000
C 	C 	0.22560 0.50550 0.32690 0.41000
C 	C 	0.80350 0.96360 0.60550 0.10100
H 	H 	0.83390 0.93020 0.66070 0.00800
C 	C 	0.70880 0.06650 0.49930 0.09700
H 	H 	0.65540 0.12450 0.46470 -0.00100
C 	C 	0.92140 0.83270 0.53840 -0.05500
H 	H 	0.93920 0.75420 0.58650 0.07700
H 	H 	0.90750 0.76200 0.48760 0.08000
C 	C 	0.00530 0.95080 0.54000 -0.08900
H 	H 	0.06440 0.88130 0.55140 0.08200
H 	H 	0.01250 0.03370 0.58590 0.08400
N 	N 	0.72370 0.05250 0.58218 -0.25300
N 	N 	0.77470 0.99270 0.47110 -0.08900
N 	N 	0.83480 0.92770 0.54070 -0.08300
O 	O 	0.51338 0.24740 0.53468 -0.38200
O 	O 	0.50240 0.31940 0.65839 -0.37100
O 	O 	0.27010 0.60270 0.29154 -0.43700
O 	O 	0.16182 0.40340 0.29173 -0.42900
