data_crystal

_cell_length_a 10.35620
_cell_length_b 17.89790
_cell_length_c 44.13830
_cell_angle_alpha 90.00000
_cell_angle_beta  90.00000
_cell_angle_gamma 90.00000

_symmetry_space_group_name_	'P 1'
_symmetry_space_group_name_H-M	'P 1'

loop_
_symmetry_equiv_pos_as_xyz
  x,y,z

loop_
_atom_site_label
_atom_site_type_symbol
_atom_site_fract_x
_atom_site_fract_y
_atom_site_fract_z
_atom_site_charge
Cd	Cd	0.15411 0.00397 0.92211 1.21100
Cd	Cd	0.24219 0.99962 0.00175 1.25000
Cd	Cd	0.32634 0.99667 0.08218 1.21100
Cu	Cu	0.02718 0.06723 0.75218 0.88800
O 	O 	0.27120 0.90010 0.92501 -0.45000
O 	O 	0.35860 0.93290 0.96932 -0.44700
O 	O 	0.71300 0.60670 0.97353 -0.43400
O 	O 	0.67100 0.58820 0.92444 -0.43900
O 	O 	0.96430 0.06190 0.94287 -0.39100
O 	O 	0.06550 0.97700 0.97030 -0.49300
O 	O 	0.52040 0.94110 0.06201 -0.39400
O 	O 	0.41550 0.02230 0.03389 -0.49800
O 	O 	0.20350 0.09840 0.07861 -0.44200
O 	O 	0.11840 0.06130 0.03437 -0.43700
O 	O 	0.81440 0.41420 0.07006 -0.44400
O 	O 	0.78020 0.39260 0.02111 -0.43800
O 	O 	0.14040 0.10360 0.78359 -0.43000
O 	O 	0.15250 0.09460 0.72202 -0.43400
N 	N 	0.14440 0.04560 0.87420 -0.27400
N 	N 	0.15760 0.04300 0.63095 -0.27200
N 	N 	0.92930 0.00570 0.72388 -0.24000
N 	N 	0.90390 0.03000 0.78167 -0.24200
C 	C 	0.34080 0.88910 0.94821 0.37800
C 	C 	0.41290 0.81600 0.94898 -0.08700
C 	C 	0.48960 0.79900 0.97360 -0.01200
H 	H 	0.49020 0.83130 0.99070 0.04800
C 	C 	0.56530 0.73590 0.97366 -0.02300
H 	H 	0.61820 0.72520 0.99070 0.04900
C 	C 	0.56510 0.68810 0.94934 -0.07800
C 	C 	0.48570 0.70340 0.92491 -0.02300
H 	H 	0.48340 0.66990 0.90820 0.03400
C 	C 	0.41000 0.76680 0.92449 -0.01700
H 	H 	0.35600 0.77690 0.90760 0.03500
C 	C 	0.65520 0.62140 0.94913 0.35600
C 	C 	0.96720 0.01860 0.96498 0.30900
C 	C 	0.85210 0.01080 0.98491 -0.06400
C 	C 	0.75210 0.06290 0.98367 -0.02700
H 	H 	0.76000 0.10570 0.97110 0.05100
C 	C 	0.64160 0.05240 0.00071 -0.00900
H 	H 	0.57370 0.08800 0.99970 0.04300
C 	C 	0.62930 0.99000 0.01938 -0.08500
C 	C 	0.72960 0.93760 0.02042 -0.00900
H 	H 	0.72190 0.89440 0.03280 0.04500
C 	C 	0.83850 0.94890 0.00356 -0.03100
H 	H 	0.90660 0.91340 0.00460 0.04800
C 	C 	0.51450 0.98250 0.03945 0.32300
C 	C 	0.13510 0.10840 0.05484 0.35900
C 	C 	0.06330 0.18080 0.05238 -0.08300
C 	C 	0.98850 0.19470 0.02684 -0.01500
H 	H 	0.98710 0.15920 0.01080 0.04900
C 	C 	0.91640 0.25930 0.02432 -0.01700
H 	H 	0.86570 0.26810 0.00670 0.04800
C 	C 	0.91840 0.31170 0.04788 -0.09000
C 	C 	0.99570 0.29890 0.07277 -0.01500
H 	H 	0.99960 0.33490 0.08860 0.03100
C 	C 	0.06790 0.23360 0.07493 -0.02400
H 	H 	0.12090 0.22540 0.09220 0.03600
C 	C 	0.83120 0.37780 0.04616 0.36900
C 	C 	0.06340 0.01880 0.64845 0.09200
H 	H 	0.99720 0.98940 0.63950 -0.03900
C 	C 	0.05540 0.03400 0.67961 -0.19800
C 	C 	0.95200 0.99910 0.69541 0.08200
H 	H 	0.89520 0.96850 0.68400 -0.00900
C 	C 	0.82660 0.96070 0.73910 0.00100
H 	H 	0.86590 0.91280 0.74630 0.01400
C 	C 	0.71010 0.94190 0.71933 -0.12100
H 	H 	0.73800 0.91150 0.70180 0.04500
H 	H 	0.67070 0.98850 0.71160 0.04500
C 	C 	0.60990 0.89780 0.73824 -0.07000
H 	H 	0.53240 0.88810 0.72570 0.01800
H 	H 	0.64700 0.84910 0.74430 0.02000
C 	C 	0.57120 0.94110 0.76637 -0.07400
H 	H 	0.50950 0.91100 0.77840 0.02100
H 	H 	0.52720 0.98790 0.76030 0.02700
C 	C 	0.68940 0.96010 0.78606 -0.12200
H 	H 	0.66260 0.99000 0.80390 0.04300
H 	H 	0.73100 0.91370 0.79340 0.04800
C 	C 	0.78360 0.00480 0.76654 0.00800
H 	H 	0.73730 0.05030 0.75910 -0.00000
C 	C 	0.92380 0.01960 0.80993 0.08400
H 	H 	0.85940 0.99420 0.82130 -0.01000
C 	C 	0.03980 0.04440 0.82565 -0.19900
C 	C 	0.04750 0.02540 0.85599 0.09500
H 	H 	0.97970 0.99620 0.86440 -0.04200
C 	C 	0.23650 0.08940 0.86160 0.13900
H 	H 	0.30420 0.10630 0.87440 -0.03500
C 	C 	0.24000 0.11170 0.83130 -0.31100
C 	C 	0.13850 0.08700 0.81182 0.29300
C 	C 	0.15260 0.07910 0.69357 0.29500
C 	C 	0.24820 0.08810 0.64362 0.14700
H 	H 	0.31350 0.10790 0.63080 -0.03900
C 	C 	0.25170 0.10720 0.67424 -0.33400
C 	C 	0.35180 0.16110 0.81978 0.61500
C 	C 	0.44610 0.18400 0.84475 -0.88400
H 	H 	0.40100 0.21470 0.85980 0.27500
H 	H 	0.51710 0.21290 0.83590 0.26300
H 	H 	0.48080 0.13920 0.85460 0.27400
C 	C 	0.43000 0.11320 0.79619 -0.83200
H 	H 	0.46240 0.06790 0.80610 0.25500
H 	H 	0.50300 0.14250 0.78850 0.24300
H 	H 	0.37350 0.09940 0.77930 0.26100
C 	C 	0.30080 0.23230 0.80497 -0.88300
H 	H 	0.25270 0.26160 0.82000 0.26900
H 	H 	0.24350 0.21920 0.78810 0.28000
H 	H 	0.37340 0.26190 0.79730 0.26200
C 	C 	0.36260 0.15470 0.68680 0.67600
C 	C 	0.31140 0.22410 0.70340 -0.91300
H 	H 	0.26240 0.25530 0.68920 0.27600
H 	H 	0.38410 0.25290 0.71150 0.26900
H 	H 	0.25490 0.20850 0.72010 0.28700
C 	C 	0.43880 0.10530 0.70898 -0.91000
H 	H 	0.47200 0.06140 0.69820 0.27600
H 	H 	0.38190 0.08910 0.72550 0.28500
H 	H 	0.51120 0.13390 0.71740 0.26500
C 	C 	0.45300 0.18290 0.66227 -0.95200
H 	H 	0.40500 0.21480 0.64820 0.29400
H 	H 	0.48930 0.14030 0.65120 0.29200
H 	H 	0.52300 0.21170 0.67150 0.28200
Cd	Cd	0.34589 0.99603 0.42211 1.21100
Cd	Cd	0.25781 0.00038 0.50175 1.24800
Cd	Cd	0.17366 0.00333 0.58218 1.20900
Cu	Cu	0.47282 0.93277 0.25218 0.88900
O 	O 	0.22880 0.09990 0.42501 -0.45100
O 	O 	0.14140 0.06710 0.46932 -0.44800
O 	O 	0.78700 0.39330 0.47353 -0.43400
O 	O 	0.82900 0.41180 0.42444 -0.43900
O 	O 	0.53570 0.93810 0.44287 -0.39300
O 	O 	0.43450 0.02300 0.47030 -0.49600
O 	O 	0.97960 0.05890 0.56201 -0.39200
O 	O 	0.08450 0.97770 0.53389 -0.49500
O 	O 	0.29650 0.90160 0.57861 -0.44100
O 	O 	0.38160 0.93870 0.53437 -0.43500
O 	O 	0.68560 0.58580 0.57006 -0.44400
O 	O 	0.71980 0.60740 0.52111 -0.43800
O 	O 	0.35960 0.89640 0.28359 -0.42900
O 	O 	0.34750 0.90540 0.22202 -0.43400
N 	N 	0.35560 0.95440 0.37420 -0.27300
N 	N 	0.34240 0.95700 0.13095 -0.27100
N 	N 	0.57070 0.99430 0.22388 -0.24400
N 	N 	0.59610 0.97000 0.28167 -0.24100
C 	C 	0.15920 0.11090 0.44821 0.37800
C 	C 	0.08710 0.18400 0.44898 -0.08700
C 	C 	0.01040 0.20100 0.47360 -0.01400
H 	H 	0.00980 0.16870 0.49070 0.04800
C 	C 	0.93470 0.26410 0.47366 -0.02000
H 	H 	0.88180 0.27480 0.49070 0.04900
C 	C 	0.93490 0.31190 0.44934 -0.07700
C 	C 	0.01430 0.29660 0.42491 -0.02500
H 	H 	0.01660 0.33010 0.40820 0.03400
C 	C 	0.09000 0.23320 0.42449 -0.01700
H 	H 	0.14400 0.22310 0.40760 0.03500
C 	C 	0.84480 0.37860 0.44913 0.35600
C 	C 	0.53280 0.98140 0.46498 0.31300
C 	C 	0.64790 0.98920 0.48491 -0.07200
C 	C 	0.74790 0.93710 0.48367 -0.02000
H 	H 	0.74000 0.89430 0.47110 0.04800
C 	C 	0.85840 0.94760 0.50071 -0.01900
H 	H 	0.92630 0.91200 0.49970 0.04500
C 	C 	0.87070 0.01000 0.51938 -0.07700
C 	C 	0.77040 0.06240 0.52042 -0.01600
H 	H 	0.77810 0.10560 0.53280 0.04700
C 	C 	0.66150 0.05110 0.50356 -0.02200
H 	H 	0.59340 0.08660 0.50460 0.04600
C 	C 	0.98550 0.01750 0.53945 0.32100
C 	C 	0.36490 0.89160 0.55484 0.35800
C 	C 	0.43670 0.81920 0.55238 -0.08100
C 	C 	0.51150 0.80530 0.52684 -0.01800
H 	H 	0.51290 0.84080 0.51080 0.04900
C 	C 	0.58360 0.74070 0.52432 -0.01600
H 	H 	0.63430 0.73190 0.50670 0.04700
C 	C 	0.58160 0.68830 0.54788 -0.09000
C 	C 	0.50430 0.70110 0.57277 -0.01600
H 	H 	0.50040 0.66510 0.58860 0.03100
C 	C 	0.43210 0.76640 0.57493 -0.02300
H 	H 	0.37910 0.77460 0.59220 0.03600
C 	C 	0.66880 0.62220 0.54616 0.36900
C 	C 	0.43660 0.98120 0.14845 0.09300
H 	H 	0.50280 0.01060 0.13950 -0.03900
C 	C 	0.44460 0.96600 0.17961 -0.19800
C 	C 	0.54800 0.00090 0.19541 0.08500
H 	H 	0.60480 0.03150 0.18400 -0.01000
C 	C 	0.67340 0.03930 0.23910 0.00800
H 	H 	0.63410 0.08720 0.24630 0.01300
C 	C 	0.78990 0.05810 0.21933 -0.12500
H 	H 	0.76200 0.08850 0.20180 0.04600
H 	H 	0.82930 0.01150 0.21160 0.04600
C 	C 	0.89010 0.10220 0.23824 -0.06700
H 	H 	0.96760 0.11190 0.22570 0.01700
H 	H 	0.85300 0.15090 0.24430 0.01900
C 	C 	0.92880 0.05890 0.26637 -0.07700
H 	H 	0.99050 0.08900 0.27840 0.02200
H 	H 	0.97280 0.01210 0.26030 0.02900
C 	C 	0.81060 0.03990 0.28606 -0.11600
H 	H 	0.83740 0.01000 0.30390 0.04200
H 	H 	0.76900 0.08630 0.29340 0.04600
C 	C 	0.71640 0.99520 0.26654 0.00100
H 	H 	0.76270 0.94970 0.25910 0.00100
C 	C 	0.57620 0.98040 0.30993 0.07500
H 	H 	0.64060 0.00580 0.32130 -0.00500
C 	C 	0.46020 0.95560 0.32565 -0.19300
C 	C 	0.45250 0.97460 0.35599 0.09300
H 	H 	0.52030 0.00380 0.36440 -0.04000
C 	C 	0.26350 0.91060 0.36160 0.13800
H 	H 	0.19580 0.89370 0.37440 -0.03400
C 	C 	0.26000 0.88830 0.33130 -0.30900
C 	C 	0.36150 0.91300 0.31182 0.29100
C 	C 	0.34740 0.92090 0.19357 0.29500
C 	C 	0.25180 0.91190 0.14362 0.14600
H 	H 	0.18650 0.89210 0.13080 -0.03800
C 	C 	0.24830 0.89280 0.17424 -0.33200
C 	C 	0.14820 0.83890 0.31978 0.61000
C 	C 	0.05390 0.81600 0.34475 -0.87400
H 	H 	0.09900 0.78530 0.35980 0.27200
H 	H 	0.98290 0.78710 0.33590 0.25900
H 	H 	0.01920 0.86080 0.35460 0.27200
C 	C 	0.07000 0.88680 0.29619 -0.82100
H 	H 	0.03760 0.93210 0.30610 0.25300
H 	H 	0.99700 0.85750 0.28850 0.23800
H 	H 	0.12650 0.90060 0.27930 0.25900
C 	C 	0.19920 0.76770 0.30497 -0.87800
H 	H 	0.24730 0.73840 0.32000 0.26800
H 	H 	0.25650 0.78080 0.28810 0.27900
H 	H 	0.12660 0.73810 0.29730 0.26100
C 	C 	0.13740 0.84530 0.18680 0.66900
C 	C 	0.18860 0.77590 0.20340 -0.90800
H 	H 	0.23760 0.74470 0.18920 0.27500
H 	H 	0.11590 0.74710 0.21150 0.26800
H 	H 	0.24510 0.79150 0.22010 0.28600
C 	C 	0.06120 0.89470 0.20898 -0.89800
H 	H 	0.02800 0.93860 0.19820 0.27300
H 	H 	0.11810 0.91090 0.22550 0.28200
H 	H 	0.98880 0.86610 0.21740 0.25900
C 	C 	0.04700 0.81710 0.16227 -0.94100
H 	H 	0.09500 0.78520 0.14820 0.29100
H 	H 	0.01070 0.85970 0.15120 0.29000
H 	H 	0.97700 0.78830 0.17150 0.27700
Cd	Cd	0.84589 0.50397 0.57789 1.21100
Cd	Cd	0.75781 0.49962 0.49825 1.24900
Cd	Cd	0.67366 0.49667 0.41782 1.21100
Cu	Cu	0.97282 0.56723 0.74782 0.88900
O 	O 	0.72880 0.40010 0.57499 -0.45000
O 	O 	0.64140 0.43290 0.53068 -0.44700
O 	O 	0.28700 0.10670 0.52647 -0.43500
O 	O 	0.32900 0.08820 0.57556 -0.44000
O 	O 	0.03570 0.56190 0.55713 -0.39200
O 	O 	0.93450 0.47700 0.52970 -0.49400
O 	O 	0.47960 0.44110 0.43799 -0.39300
O 	O 	0.58450 0.52230 0.46611 -0.49900
O 	O 	0.79650 0.59840 0.42139 -0.44200
O 	O 	0.88160 0.56130 0.46563 -0.43700
O 	O 	0.18560 0.91420 0.42994 -0.44300
O 	O 	0.21980 0.89260 0.47889 -0.43700
O 	O 	0.85960 0.60360 0.71641 -0.43000
O 	O 	0.84750 0.59460 0.77798 -0.43400
N 	N 	0.85560 0.54560 0.62580 -0.27300
N 	N 	0.84240 0.54300 0.86905 -0.27200
N 	N 	0.07070 0.50570 0.77612 -0.24100
N 	N 	0.09610 0.53000 0.71833 -0.24200
C 	C 	0.65920 0.38910 0.55179 0.37800
C 	C 	0.58710 0.31600 0.55102 -0.08700
C 	C 	0.51040 0.29900 0.52640 -0.01200
H 	H 	0.50980 0.33130 0.50930 0.04800
C 	C 	0.43470 0.23590 0.52634 -0.02300
H 	H 	0.38180 0.22520 0.50930 0.04900
C 	C 	0.43490 0.18810 0.55066 -0.07800
C 	C 	0.51430 0.20340 0.57509 -0.02300
H 	H 	0.51660 0.16990 0.59180 0.03400
C 	C 	0.59000 0.26680 0.57551 -0.01700
H 	H 	0.64400 0.27690 0.59240 0.03500
C 	C 	0.34480 0.12140 0.55087 0.35600
C 	C 	0.03280 0.51860 0.53502 0.31000
C 	C 	0.14790 0.51080 0.51509 -0.07300
C 	C 	0.24790 0.56290 0.51633 -0.01900
H 	H 	0.24000 0.60570 0.52890 0.04800
C 	C 	0.35840 0.55240 0.49929 -0.01900
H 	H 	0.42630 0.58800 0.50030 0.04600
C 	C 	0.37070 0.49000 0.48062 -0.07800
C 	C 	0.27040 0.43760 0.47958 -0.01600
H 	H 	0.27810 0.39440 0.46720 0.04700
C 	C 	0.16150 0.44890 0.49644 -0.02100
H 	H 	0.09340 0.41340 0.49540 0.04600
C 	C 	0.48550 0.48250 0.46055 0.32200
C 	C 	0.86490 0.60840 0.44516 0.35800
C 	C 	0.93670 0.68080 0.44762 -0.08200
C 	C 	0.01150 0.69470 0.47316 -0.01700
H 	H 	0.01290 0.65920 0.48920 0.04900
C 	C 	0.08360 0.75930 0.47568 -0.01600
H 	H 	0.13430 0.76810 0.49330 0.04800
C 	C 	0.08160 0.81170 0.45212 -0.09000
C 	C 	0.00430 0.79890 0.42723 -0.01400
H 	H 	0.00040 0.83490 0.41140 0.03100
C 	C 	0.93210 0.73360 0.42507 -0.02500
H 	H 	0.87910 0.72540 0.40780 0.03600
C 	C 	0.16880 0.87780 0.45384 0.36900
C 	C 	0.93660 0.51880 0.85155 0.09500
H 	H 	0.00280 0.48940 0.86050 -0.04100
C 	C 	0.94460 0.53400 0.82039 -0.19600
C 	C 	0.04800 0.49910 0.80459 0.08100
H 	H 	0.10480 0.46850 0.81600 -0.00900
C 	C 	0.17340 0.46070 0.76090 0.00100
H 	H 	0.13410 0.41280 0.75370 0.01400
C 	C 	0.28990 0.44190 0.78067 -0.12000
H 	H 	0.26200 0.41150 0.79820 0.04400
H 	H 	0.32930 0.48850 0.78840 0.04400
C 	C 	0.39010 0.39780 0.76176 -0.07100
H 	H 	0.46760 0.38810 0.77430 0.01700
H 	H 	0.35300 0.34910 0.75570 0.02000
C 	C 	0.42880 0.44110 0.73363 -0.07300
H 	H 	0.49050 0.41100 0.72160 0.02000
H 	H 	0.47280 0.48790 0.73970 0.02600
C 	C 	0.31060 0.46010 0.71394 -0.12200
H 	H 	0.33740 0.49000 0.69610 0.04300
H 	H 	0.26900 0.41370 0.70660 0.04800
C 	C 	0.21640 0.50480 0.73346 0.00800
H 	H 	0.26270 0.55030 0.74090 0.00000
C 	C 	0.07620 0.51960 0.69007 0.07900
H 	H 	0.14060 0.49420 0.67870 -0.00800
C 	C 	0.96020 0.54440 0.67435 -0.19500
C 	C 	0.95250 0.52540 0.64401 0.09400
H 	H 	0.02030 0.49620 0.63560 -0.04000
C 	C 	0.76350 0.58940 0.63840 0.13900
H 	H 	0.69580 0.60630 0.62560 -0.03500
C 	C 	0.76000 0.61170 0.66870 -0.31100
C 	C 	0.86150 0.58700 0.68818 0.29200
C 	C 	0.84740 0.57910 0.80643 0.29500
C 	C 	0.75180 0.58810 0.85638 0.14700
H 	H 	0.68650 0.60790 0.86920 -0.03900
C 	C 	0.74830 0.60720 0.82576 -0.33500
C 	C 	0.64820 0.66110 0.68022 0.61500
C 	C 	0.55390 0.68400 0.65525 -0.88400
H 	H 	0.59900 0.71470 0.64020 0.27500
H 	H 	0.48290 0.71290 0.66410 0.26300
H 	H 	0.51920 0.63920 0.64540 0.27400
C 	C 	0.57000 0.61320 0.70381 -0.83200
H 	H 	0.53760 0.56790 0.69390 0.25600
H 	H 	0.49700 0.64250 0.71150 0.24300
H 	H 	0.62650 0.59940 0.72070 0.26200
C 	C 	0.69920 0.73230 0.69503 -0.88300
H 	H 	0.74730 0.76160 0.68000 0.26900
H 	H 	0.75650 0.71920 0.71190 0.28000
H 	H 	0.62660 0.76190 0.70270 0.26300
C 	C 	0.63740 0.65470 0.81320 0.67600
C 	C 	0.68860 0.72410 0.79660 -0.91400
H 	H 	0.73760 0.75530 0.81080 0.27600
H 	H 	0.61590 0.75290 0.78850 0.27000
H 	H 	0.74510 0.70850 0.77990 0.28800
C 	C 	0.56120 0.60530 0.79102 -0.91100
H 	H 	0.52800 0.56140 0.80180 0.27700
H 	H 	0.61810 0.58910 0.77450 0.28500
H 	H 	0.48880 0.63390 0.78260 0.26500
C 	C 	0.54700 0.68290 0.83773 -0.95300
H 	H 	0.59500 0.71480 0.85180 0.29400
H 	H 	0.51070 0.64030 0.84880 0.29200
H 	H 	0.47700 0.71170 0.82850 0.28200
Cd	Cd	0.65411 0.49603 0.07789 1.21100
Cd	Cd	0.74219 0.50038 0.99825 1.24900
Cd	Cd	0.82634 0.50333 0.91782 1.21000
Cu	Cu	0.52718 0.43277 0.24782 0.88900
O 	O 	0.77120 0.59990 0.07499 -0.45100
O 	O 	0.85860 0.56710 0.03068 -0.44700
O 	O 	0.21300 0.89330 0.02647 -0.43400
O 	O 	0.17100 0.91180 0.07556 -0.43900
O 	O 	0.46430 0.43810 0.05713 -0.39200
O 	O 	0.56550 0.52300 0.02970 -0.49400
O 	O 	0.02040 0.55890 0.93799 -0.39300
O 	O 	0.91550 0.47770 0.96611 -0.50000
O 	O 	0.70350 0.40160 0.92139 -0.44200
O 	O 	0.61840 0.43870 0.96563 -0.43700
O 	O 	0.31440 0.08580 0.92994 -0.44400
O 	O 	0.28020 0.10740 0.97889 -0.43800
O 	O 	0.64040 0.39640 0.21641 -0.42900
O 	O 	0.65250 0.40540 0.27798 -0.43400
N 	N 	0.64440 0.45440 0.12580 -0.27300
N 	N 	0.65760 0.45700 0.36905 -0.27200
N 	N 	0.42930 0.49430 0.27612 -0.24100
N 	N 	0.40390 0.47000 0.21833 -0.24200
C 	C 	0.84080 0.61090 0.05179 0.37800
C 	C 	0.91290 0.68400 0.05102 -0.08700
C 	C 	0.98960 0.70100 0.02640 -0.01400
H 	H 	0.99020 0.66870 0.00930 0.04800
C 	C 	0.06530 0.76410 0.02634 -0.02100
H 	H 	0.11820 0.77480 0.00930 0.04900
C 	C 	0.06510 0.81190 0.05066 -0.07600
C 	C 	0.98570 0.79660 0.07509 -0.02700
H 	H 	0.98340 0.83010 0.09180 0.03400
C 	C 	0.91000 0.73320 0.07551 -0.01600
H 	H 	0.85600 0.72310 0.09240 0.03400
C 	C 	0.15520 0.87860 0.05087 0.35600
C 	C 	0.46720 0.48140 0.03502 0.31000
C 	C 	0.35210 0.48920 0.01509 -0.07300
C 	C 	0.25210 0.43710 0.01633 -0.01900
H 	H 	0.26000 0.39430 0.02890 0.04800
C 	C 	0.14160 0.44760 0.99929 -0.01900
H 	H 	0.07370 0.41200 0.00030 0.04600
C 	C 	0.12930 0.51000 0.98062 -0.07800
C 	C 	0.22960 0.56240 0.97958 -0.01600
H 	H 	0.22190 0.60560 0.96720 0.04800
C 	C 	0.33850 0.55110 0.99644 -0.02100
H 	H 	0.40660 0.58660 0.99540 0.04600
C 	C 	0.01450 0.51750 0.96055 0.32300
C 	C 	0.63510 0.39160 0.94516 0.35800
C 	C 	0.56330 0.31920 0.94762 -0.08100
C 	C 	0.48850 0.30530 0.97316 -0.01800
H 	H 	0.48710 0.34080 0.98920 0.04900
C 	C 	0.41640 0.24070 0.97568 -0.01600
H 	H 	0.36570 0.23190 0.99330 0.04700
C 	C 	0.41840 0.18830 0.95212 -0.09000
C 	C 	0.49570 0.20110 0.92723 -0.01600
H 	H 	0.49960 0.16510 0.91140 0.03100
C 	C 	0.56790 0.26640 0.92507 -0.02300
H 	H 	0.62090 0.27460 0.90780 0.03600
C 	C 	0.33120 0.12220 0.95384 0.36900
C 	C 	0.56340 0.48120 0.35155 0.09600
H 	H 	0.49720 0.51060 0.36050 -0.04100
C 	C 	0.55540 0.46600 0.32039 -0.19600
C 	C 	0.45200 0.50090 0.30459 0.08000
H 	H 	0.39520 0.53150 0.31600 -0.00800
C 	C 	0.32660 0.53930 0.26090 0.00100
H 	H 	0.36590 0.58720 0.25370 0.01400
C 	C 	0.21010 0.55810 0.28067 -0.12000
H 	H 	0.23800 0.58850 0.29820 0.04400
H 	H 	0.17070 0.51150 0.28840 0.04400
C 	C 	0.10990 0.60220 0.26176 -0.07100
H 	H 	0.03240 0.61190 0.27430 0.01800
H 	H 	0.14700 0.65090 0.25570 0.02000
C 	C 	0.07120 0.55890 0.23363 -0.07200
H 	H 	0.00950 0.58900 0.22160 0.02000
H 	H 	0.02720 0.51210 0.23970 0.02600
C 	C 	0.18940 0.53990 0.21394 -0.12300
H 	H 	0.16260 0.51000 0.19610 0.04300
H 	H 	0.23100 0.58630 0.20660 0.04800
C 	C 	0.28360 0.49520 0.23346 0.00800
H 	H 	0.23730 0.44970 0.24090 0.00000
C 	C 	0.42380 0.48040 0.19007 0.07800
H 	H 	0.35940 0.50580 0.17870 -0.00700
C 	C 	0.53980 0.45560 0.17435 -0.19500
C 	C 	0.54750 0.47460 0.14401 0.09400
H 	H 	0.47970 0.50380 0.13560 -0.04000
C 	C 	0.73650 0.41060 0.13840 0.13800
H 	H 	0.80420 0.39370 0.12560 -0.03400
C 	C 	0.74000 0.38830 0.16870 -0.31000
C 	C 	0.63850 0.41300 0.18818 0.29100
C 	C 	0.65260 0.42090 0.30643 0.29500
C 	C 	0.74820 0.41190 0.35638 0.14700
H 	H 	0.81350 0.39210 0.36920 -0.03900
C 	C 	0.75170 0.39280 0.32576 -0.33300
C 	C 	0.85180 0.33890 0.18022 0.61300
C 	C 	0.94610 0.31600 0.15525 -0.87800
H 	H 	0.90100 0.28530 0.14020 0.27300
H 	H 	0.01710 0.28710 0.16410 0.26100
H 	H 	0.98080 0.36080 0.14540 0.27200
C 	C 	0.93000 0.38680 0.20381 -0.82700
H 	H 	0.96240 0.43210 0.19390 0.25400
H 	H 	0.00300 0.35750 0.21150 0.24100
H 	H 	0.87350 0.40060 0.22070 0.26000
C 	C 	0.80080 0.26770 0.19503 -0.88100
H 	H 	0.75270 0.23840 0.18000 0.26900
H 	H 	0.74350 0.28080 0.21190 0.27900
H 	H 	0.87340 0.23810 0.20270 0.26200
C 	C 	0.86260 0.34530 0.31320 0.67300
C 	C 	0.81140 0.27590 0.29660 -0.91100
H 	H 	0.76240 0.24470 0.31080 0.27600
H 	H 	0.88410 0.24710 0.28850 0.26900
H 	H 	0.75490 0.29150 0.27990 0.28700
C 	C 	0.93880 0.39470 0.29102 -0.90500
H 	H 	0.97200 0.43860 0.30180 0.27500
H 	H 	0.88190 0.41090 0.27450 0.28300
H 	H 	0.01120 0.36610 0.28260 0.26300
C 	C 	0.95300 0.31710 0.33773 -0.94600
H 	H 	0.90500 0.28520 0.35180 0.29200
H 	H 	0.98930 0.35970 0.34880 0.29100
H 	H 	0.02300 0.28830 0.32850 0.27900
