data_crystal

_cell_length_a 7.93880
_cell_length_b 7.93880
_cell_length_c 7.93880
_cell_angle_alpha 60.00000
_cell_angle_beta  60.00000
_cell_angle_gamma 60.00000

_symmetry_space_group_name_	'P 1'
_symmetry_space_group_name_H-M	'P 1'

loop_
_symmetry_equiv_pos_as_xyz
  x,y,z

loop_
_atom_site_label
_atom_site_type_symbol
_atom_site_fract_x
_atom_site_fract_y
_atom_site_fract_z
_atom_site_charge
Zn	Zn	0.37500 0.87500 0.87500 1.17600
Zn	Zn	0.62500 0.12500 0.12500 1.17600
C 	C 	0.52760 0.41720 0.02760 -0.29400
C 	C 	0.47240 0.97240 0.97240 -0.29400
C 	C 	0.52760 0.02760 0.41720 -0.29400
C 	C 	0.47240 0.58280 0.97240 -0.29400
C 	C 	0.08280 0.97240 0.97240 -0.29400
C 	C 	0.52760 0.02760 0.02760 -0.29400
C 	C 	0.47240 0.97240 0.58280 -0.29400
C 	C 	0.91720 0.02760 0.02760 -0.29400
