data_crystal

_cell_length_a 9.93200
_cell_length_b 18.81800
_cell_length_c 20.33500
_cell_angle_alpha 88.73100
_cell_angle_beta  83.54200
_cell_angle_gamma 86.24700

_symmetry_space_group_name_	'P 1'
_symmetry_space_group_name_H-M	'P 1'

loop_
_symmetry_equiv_pos_as_xyz
  x,y,z

loop_
_atom_site_label
_atom_site_type_symbol
_atom_site_fract_x
_atom_site_fract_y
_atom_site_fract_z
_atom_site_charge
Cd	Cd	0.88823 0.04729 0.96163 1.24300
Cd	Cd	0.40103 0.45878 0.45717 1.24900
Cd	Cd	0.59897 0.54122 0.54283 1.24900
Cd	Cd	0.11177 0.95271 0.03837 1.24300
H 	H 	0.26150 0.67590 0.67800 0.06100
H 	H 	0.39480 0.05530 0.94680 0.04900
H 	H 	0.39370 0.81620 0.17460 0.04700
H 	H 	0.57990 0.38510 0.70620 0.02200
H 	H 	0.94240 0.44330 0.43560 0.06800
H 	H 	0.10620 0.19170 0.27640 0.08400
H 	H 	0.84850 0.69310 0.69600 0.06000
H 	H 	0.21490 0.70600 0.79430 0.08700
H 	H 	0.54440 0.30380 0.79390 0.09500
H 	H 	0.45560 0.69620 0.20610 0.09500
H 	H 	0.30830 0.19770 0.69350 0.09500
H 	H 	0.78510 0.29400 0.20570 0.08700
H 	H 	0.42010 0.61490 0.29380 0.02200
H 	H 	0.15150 0.30690 0.30400 0.06000
H 	H 	0.66720 0.71970 0.39220 0.02200
H 	H 	0.78960 0.21200 0.12810 0.02500
H 	H 	0.05760 0.55670 0.56440 0.06800
H 	H 	0.60630 0.18380 0.82540 0.04700
H 	H 	0.21040 0.78800 0.87190 0.02500
H 	H 	0.60520 0.94470 0.05320 0.04900
H 	H 	0.11190 0.10990 0.19610 0.03200
H 	H 	0.69170 0.80230 0.30650 0.09500
H 	H 	0.78820 0.82550 0.18810 0.04500
H 	H 	0.21180 0.17450 0.81190 0.04500
H 	H 	0.33280 0.28030 0.60780 0.02200
H 	H 	0.73850 0.32410 0.32200 0.06100
H 	H 	0.89380 0.80830 0.72360 0.08400
H 	H 	0.88810 0.89010 0.80390 0.03200
C 	C 	0.93150 0.67230 0.67640 -0.01800
C 	C 	0.59100 0.81280 0.19340 -0.05200
C 	C 	0.48030 0.39640 0.59620 0.37700
C 	C 	0.95510 0.85220 0.80140 0.06600
C 	C 	0.46070 0.34160 0.64830 -0.15400
C 	C 	0.82190 0.39040 0.38320 -0.06400
C 	C 	0.57520 0.75740 0.24710 0.11900
C 	C 	0.52310 0.16380 0.83860 0.01400
C 	C 	0.05110 0.84630 0.84790 -0.13000
C 	C 	0.47720 0.65220 0.29710 0.09000
C 	C 	0.28170 0.11090 0.88310 -0.10900
C 	C 	0.06850 0.32770 0.32360 -0.01800
C 	C 	0.71830 0.88910 0.11690 -0.10900
C 	C 	0.52280 0.34780 0.70290 0.09000
C 	C 	0.42480 0.24260 0.75290 0.11900
C 	C 	0.36010 0.91160 0.08220 0.32400
C 	C 	0.30940 0.57660 0.57980 0.35300
C 	C 	0.39950 0.08830 0.91130 0.04800
C 	C 	0.60050 0.91170 0.08870 0.04800
C 	C 	0.37850 0.28530 0.64540 0.09100
C 	C 	0.94890 0.15370 0.15210 -0.13000
C 	C 	0.50210 0.29790 0.75550 -0.16100
C 	C 	0.63720 0.76380 0.30290 -0.16000
C 	C 	0.70890 0.84020 0.16900 0.01900
C 	C 	0.47690 0.83620 0.16140 0.01400
C 	C 	0.63990 0.08840 0.91780 0.32400
C 	C 	0.04200 0.90150 0.90080 0.37400
C 	C 	0.53930 0.65840 0.35170 -0.15400
C 	C 	0.40900 0.18720 0.80660 -0.05200
C 	C 	0.85150 0.25600 0.20500 -0.13700
C 	C 	0.51750 0.11320 0.88820 -0.09900
C 	C 	0.49790 0.70210 0.24450 -0.16100
C 	C 	0.04490 0.14780 0.19860 0.06600
C 	C 	0.80190 0.59510 0.60620 0.39300
C 	C 	0.17810 0.60960 0.61680 -0.06400
C 	C 	0.94250 0.25310 0.25440 0.07900
C 	C 	0.82070 0.33820 0.33470 -0.01900
C 	C 	0.05680 0.69170 0.69350 -0.01400
C 	C 	0.29110 0.15980 0.83100 0.01900
C 	C 	0.06180 0.38050 0.37240 -0.06400
C 	C 	0.05760 0.59030 0.59800 0.01100
C 	C 	0.94240 0.40970 0.40200 0.01100
C 	C 	0.69060 0.42340 0.42020 0.35300
C 	C 	0.51970 0.60360 0.40380 0.37700
C 	C 	0.62150 0.71470 0.35460 0.09100
C 	C 	0.95970 0.80370 0.75340 -0.12800
C 	C 	0.48250 0.88680 0.11180 -0.09900
C 	C 	0.04030 0.19630 0.24660 -0.12800
C 	C 	0.36280 0.23620 0.69710 -0.16000
C 	C 	0.14820 0.08640 0.90960 0.35900
C 	C 	0.17930 0.66180 0.66530 -0.01900
C 	C 	0.94320 0.30830 0.30650 -0.01400
C 	C 	0.19810 0.40490 0.39380 0.39300
C 	C 	0.14480 0.79220 0.84190 0.08200
C 	C 	0.95800 0.09850 0.09920 0.37400
C 	C 	0.93820 0.61950 0.62760 -0.06400
C 	C 	0.14850 0.74400 0.79500 -0.13700
C 	C 	0.85180 0.91360 0.09040 0.35900
C 	C 	0.05750 0.74690 0.74560 0.07900
C 	C 	0.85520 0.20780 0.15810 0.08200
O 	O 	0.70130 0.63790 0.61520 -0.22300
O 	O 	0.73760 0.12810 0.91330 -0.35100
O 	O 	0.58280 0.40300 0.40220 -0.39300
O 	O 	0.86490 0.95050 0.03740 -0.46100
O 	O 	0.29720 0.53310 0.53590 -0.42400
O 	O 	0.70280 0.46690 0.46410 -0.42400
O 	O 	0.41720 0.59700 0.59780 -0.39300
O 	O 	0.04120 0.10460 0.88420 -0.35900
O 	O 	0.26240 0.87190 0.08670 -0.35100
O 	O 	0.80970 0.54920 0.56790 -0.41000
O 	O 	0.65550 0.03060 0.94840 -0.34400
O 	O 	0.29900 0.39090 0.34910 -0.15000
O 	O 	0.58650 0.61090 0.45850 -0.40500
O 	O 	0.44040 0.55720 0.40300 -0.44100
O 	O 	0.88300 0.11110 0.05440 -0.41000
O 	O 	0.70100 0.60910 0.65090 -0.15000
O 	O 	0.34450 0.96940 0.05160 -0.34400
O 	O 	0.55960 0.44280 0.59700 -0.44100
O 	O 	0.11700 0.88890 0.94560 -0.41000
O 	O 	0.05180 0.04900 0.10100 -0.40300
O 	O 	0.41350 0.38910 0.54150 -0.40500
O 	O 	0.13510 0.04950 0.96260 -0.46100
O 	O 	0.19030 0.45080 0.43210 -0.41000
O 	O 	0.29870 0.36210 0.38480 -0.22300
O 	O 	0.95880 0.89540 0.11580 -0.35900
O 	O 	0.94820 0.95100 0.89900 -0.40300
