data_crystal

_cell_length_a 19.06970
_cell_length_b 19.06970
_cell_length_c 23.53350
_cell_angle_alpha 112.15400
_cell_angle_beta  112.15400
_cell_angle_gamma 93.97150

_symmetry_space_group_name_	'P 1'
_symmetry_space_group_name_H-M	'P 1'

loop_
_symmetry_equiv_pos_as_xyz
  x,y,z

loop_
_atom_site_label
_atom_site_type_symbol
_atom_site_fract_x
_atom_site_fract_y
_atom_site_fract_z
_atom_site_charge
Zr	Zr	0.47823 0.09601 0.47380 3.18500
Zr	Zr	0.08771 0.35419 0.87948 3.22200
Zr	Zr	0.37134 0.23970 0.47328 3.19900
Zr	Zr	0.76030 0.62866 0.52672 3.19900
Zr	Zr	0.64581 0.91229 0.12052 3.22200
Zr	Zr	0.58644 0.83978 0.88070 3.21700
Zr	Zr	0.90399 0.52177 0.52620 3.18500
Zr	Zr	0.98990 0.63966 0.47536 3.17500
Zr	Zr	0.64806 0.01642 0.02672 3.16900
Zr	Zr	0.47777 0.87979 0.97494 3.19400
Zr	Zr	0.98358 0.35194 0.97328 3.16900
Zr	Zr	0.12021 0.52223 0.02506 3.19400
Zr	Zr	0.84515 0.74717 0.47494 3.19500
Zr	Zr	0.25283 0.15485 0.52506 3.19500
Zr	Zr	0.45574 0.20908 0.61930 3.21700
Zr	Zr	0.58570 0.73546 0.97536 3.19500
Zr	Zr	0.16022 0.41356 0.11930 3.21600
Zr	Zr	0.95823 0.72471 0.62052 3.19900
Zr	Zr	0.12779 0.24557 0.97380 3.19700
Zr	Zr	0.26454 0.41430 0.02464 3.19500
Zr	Zr	0.79092 0.54426 0.38070 3.21700
Zr	Zr	0.27529 0.04177 0.37948 3.19900
Zr	Zr	0.75443 0.87221 0.02620 3.19700
Zr	Zr	0.36034 0.01010 0.52464 3.17400
H 	H 	0.02720 0.48300 0.73340 0.05100
H 	H 	0.91010 0.67310 0.02020 0.00300
H 	H 	0.33900 0.11900 0.63460 0.20600
H 	H 	0.88100 0.66100 0.36540 0.20600
H 	H 	0.55590 0.01870 0.09660 0.11500
H 	H 	0.72600 0.26800 0.23140 0.01500
H 	H 	0.24460 0.28660 0.26860 0.03100
H 	H 	0.98130 0.44410 0.90340 0.11500
H 	H 	0.26560 0.54560 0.13460 0.21700
H 	H 	0.16950 0.76110 0.22520 0.04600
H 	H 	0.73970 0.46790 0.44920 0.20800
H 	H 	0.37830 0.94510 0.40280 0.27300
H 	H 	0.73130 0.95950 0.94920 0.24300
H 	H 	0.51330 0.46210 0.22740 0.03600
H 	H 	0.04050 0.26870 0.05080 0.24300
H 	H 	0.73200 0.27400 0.76860 0.01500
H 	H 	0.32690 0.08990 0.97980 0.00300
H 	H 	0.72550 0.79230 0.09720 0.28000
H 	H 	0.53210 0.26030 0.55080 0.20800
H 	H 	0.21410 0.30570 0.72520 0.02800
H 	H 	0.82790 0.79070 0.59660 0.29300
H 	H 	0.51530 0.96410 0.72740 0.32700
H 	H 	0.71340 0.75540 0.73140 0.03100
H 	H 	0.23890 0.83050 0.77480 0.04600
H 	H 	0.09710 0.36010 0.52020 0.06000
H 	H 	0.20930 0.17210 0.40340 0.29300
H 	H 	0.05490 0.62170 0.59720 0.27300
H 	H 	0.63990 0.90290 0.47980 0.06000
H 	H 	0.53790 0.48670 0.77260 0.03600
H 	H 	0.20770 0.27450 0.90280 0.28000
H 	H 	0.51700 0.97280 0.26660 0.05100
H 	H 	0.45440 0.73440 0.86540 0.21700
H 	H 	0.04380 0.99960 0.76660 0.39000
H 	H 	0.00040 0.95620 0.23340 0.39000
H 	H 	0.03590 0.48470 0.27260 0.32700
H 	H 	0.69430 0.78590 0.27480 0.02800
C 	C 	0.63744 0.70844 0.16928 -0.10700
C 	C 	0.54650 0.88450 0.50380 -0.03100
C 	C 	0.26220 0.15920 0.31060 0.50300
C 	C 	0.23030 0.23390 0.23560 0.06900
C 	C 	0.90730 0.51310 0.31220 0.42600
C 	C 	0.11550 0.45350 0.49620 -0.03100
C 	C 	0.07710 0.51790 0.87660 0.52800
C 	C 	0.61210 0.87270 0.49220 0.04200
C 	C 	0.86990 0.63050 0.00780 0.01500
C 	C 	0.26671 0.32291 0.75922 0.06800
C 	C 	0.36950 0.13010 0.99220 0.01500
C 	C 	0.62320 0.19180 0.62400 0.49600
C 	C 	0.21816 0.78916 0.33072 -0.07600
C 	C 	0.10870 0.04950 0.37660 0.39900
C 	C 	0.52420 0.50560 0.73880 0.04500
C 	C 	0.83010 0.93250 0.19060 0.37300
C 	C 	0.46450 0.96170 0.23400 0.10000
C 	C 	0.74470 0.24830 0.26440 0.07100
C 	C 	0.41790 0.47330 0.25220 -0.07600
C 	C 	0.79270 0.63070 0.99620 -0.06600
C 	C 	0.74920 0.81780 0.87600 0.49700
C 	C 	0.12730 0.38790 0.50780 0.04200
C 	C 	0.48690 0.09270 0.68780 0.42600
C 	C 	0.90140 0.29840 0.81060 0.50800
C 	C 	0.21084 0.78184 0.66928 -0.07600
C 	C 	0.93920 0.51580 0.00020 0.27400
C 	C 	0.60030 0.00210 0.87340 0.18400
C 	C 	0.62770 0.80890 0.50220 -0.06200
C 	C 	0.62130 0.52310 0.37340 0.49100
C 	C 	0.25060 0.38080 0.87380 0.50900
C 	C 	0.34330 0.27470 0.68720 0.51400
C 	C 	0.23540 0.16900 0.24760 -0.11400
C 	C 	0.33646 0.81606 0.75252 -0.09400
C 	C 	0.99790 0.39970 0.12660 0.18400
C 	C 	0.61920 0.74940 0.12620 0.50900
C 	C 	0.95050 0.89130 0.62340 0.39900
C 	C 	0.76610 0.76970 0.76440 0.06900
C 	C 	0.74830 0.69170 0.99760 0.45000
C 	C 	0.12680 0.75700 0.62620 0.50300
C 	C 	0.53540 0.01680 0.76120 -0.44400
C 	C 	0.30830 0.25170 0.00240 0.45000
C 	C 	0.38950 0.99190 0.30940 0.72700
C 	C 	0.24300 0.87320 0.37380 0.50300
C 	C 	0.53560 0.50260 0.32920 -0.08100
C 	C 	0.98320 0.46460 0.23880 -0.44400
C 	C 	0.00810 0.61050 0.69060 0.72700
C 	C 	0.03430 0.60070 0.75540 -0.11700
C 	C 	0.05590 0.49930 0.49760 0.44900
C 	C 	0.47690 0.37870 0.62660 0.49100
C 	C 	0.75170 0.25530 0.73560 0.07100
C 	C 	0.06750 0.16990 0.80940 0.37300
C 	C 	0.02890 0.09530 0.74460 0.25900
C 	C 	0.03830 0.53550 0.76600 0.10000
C 	C 	0.44330 0.12450 0.00220 -0.05000
C 	C 	0.67709 0.73329 0.24078 0.06800
C 	C 	0.49740 0.46440 0.67080 -0.08100
C 	C 	0.49440 0.47580 0.26120 0.04500
C 	C 	0.50070 0.94410 0.50240 0.44900
C 	C 	0.36930 0.20730 0.00380 -0.06600
C 	C 	0.78450 0.29150 0.33420 -0.12200
C 	C 	0.73780 0.17140 0.25240 -0.13900
C 	C 	0.19110 0.37230 0.49780 -0.06200
C 	C 	0.82860 0.26220 0.74760 -0.13900
C 	C 	0.18220 0.25080 0.12400 0.49700
C 	C 	0.98050 0.97770 0.26600 -0.52000
C 	C 	0.54910 0.65490 0.81220 0.48800
C 	C 	0.68900 0.76560 0.49980 0.48300
C 	C 	0.18631 0.74251 0.25922 0.07100
C 	C 	0.90470 0.97110 0.25540 0.25900
C 	C 	0.72530 0.65670 0.31280 0.51400
C 	C 	0.40610 0.83750 0.81280 0.52500
C 	C 	0.84080 0.73780 0.68940 0.50300
C 	C 	0.70160 0.09860 0.18940 0.50800
C 	C 	0.97690 0.97790 0.66440 0.23100
C 	C 	0.87550 0.55670 0.99780 -0.05000
C 	C 	0.48420 0.06080 0.99980 0.27400
C 	C 	0.39930 0.96570 0.24460 -0.11700
C 	C 	0.20030 0.20730 0.16580 -0.09600
C 	C 	0.68646 0.66606 0.25252 -0.11700
C 	C 	0.48210 0.92290 0.12340 0.52800
C 	C 	0.16250 0.59390 0.18720 0.52500
C 	C 	0.83100 0.76460 0.75240 -0.11400
C 	C 	0.52670 0.58210 0.74780 -0.07600
C 	C 	0.79270 0.79970 0.83420 -0.09600
C 	C 	0.95640 0.42340 0.17080 0.10700
C 	C 	0.23440 0.31100 0.50020 0.48300
C 	C 	0.91570 0.47110 0.24780 0.06000
C 	C 	0.80820 0.37680 0.37600 0.49600
C 	C 	0.25749 0.81369 0.74078 0.07100
C 	C 	0.57660 0.04360 0.82920 0.10700
C 	C 	0.02230 0.01950 0.73400 -0.52000
C 	C 	0.70850 0.21550 0.66580 -0.12200
C 	C 	0.43650 0.93750 0.16440 -0.07600
C 	C 	0.52890 0.08430 0.75220 0.06000
C 	C 	0.34510 0.45090 0.18780 0.48800
C 	C 	0.02210 0.02310 0.33560 0.23100
C 	C 	0.33394 0.31354 0.74748 -0.11700
C 	C 	0.29156 0.36256 0.83072 -0.10700
C 	C 	0.18394 0.66354 0.24748 -0.09400
C 	C 	0.06250 0.56350 0.83560 -0.07600
N 	N 	0.40046 0.34746 0.81172 -0.04400
N 	N 	0.89500 0.79400 0.81500 -0.07000
N 	N 	0.48660 0.19460 0.01840 -0.05200
N 	N 	0.97290 0.04090 0.36300 -0.23900
N 	N 	0.90070 0.00990 0.31440 -0.22400
N 	N 	0.41290 0.49590 0.31020 -0.04300
N 	N 	0.17310 0.47670 0.48080 -0.03800
N 	N 	0.05450 0.66370 0.81440 -0.01000
N 	N 	0.95910 0.02710 0.63700 -0.23900
N 	N 	0.20600 0.10500 0.18500 -0.07000
N 	N 	0.62231 0.62571 0.13682 -0.05600
N 	N 	0.35990 0.92790 0.13700 -0.03100
N 	N 	0.80540 0.51340 0.98160 -0.05200
N 	N 	0.07210 0.64010 0.86300 -0.03100
N 	N 	0.59250 0.12090 0.85640 -0.09500
N 	N 	0.75410 0.55770 0.98080 -0.04800
N 	N 	0.44230 0.24590 0.01920 -0.04800
N 	N 	0.65254 0.59954 0.18828 -0.04400
N 	N 	0.18460 0.12760 0.13480 -0.07200
N 	N 	0.79980 0.24280 0.36520 -0.08400
N 	N 	0.50410 0.58710 0.68980 -0.04300
N 	N 	0.23549 0.73889 0.36318 -0.04200
N 	N 	0.26111 0.76451 0.63682 -0.04200
N 	N 	0.48550 0.51390 0.35640 -0.05100
N 	N 	0.57380 0.78180 0.51840 -0.03900
N 	N 	0.21426 0.66126 0.31172 -0.03100
N 	N 	0.75720 0.20020 0.63480 -0.08400
N 	N 	0.85270 0.43570 0.18980 -0.07500
N 	N 	0.37429 0.37769 0.86318 -0.05600
N 	N 	0.99010 0.09930 0.68560 -0.22400
N 	N 	0.33630 0.94550 0.18560 -0.01000
N 	N 	0.48610 0.51450 0.64360 -0.05100
N 	N 	0.83000 0.22900 0.68500 -0.07500
N 	N 	0.56430 0.14730 0.81020 -0.07500
N 	N 	0.77100 0.17000 0.31500 -0.07500
N 	N 	0.33874 0.78574 0.68828 -0.03100
N 	N 	0.52330 0.82690 0.51920 -0.03800
N 	N 	0.21820 0.42620 0.48160 -0.03900
N 	N 	0.87240 0.81540 0.86520 -0.07200
N 	N 	0.87910 0.40750 0.14360 -0.09500
O 	O 	0.18353 0.30653 0.93146 -1.23600
O 	O 	0.27924 0.89524 0.43688 -0.63600
O 	O 	0.17708 0.36448 0.84276 -0.65300
O 	O 	0.89822 0.55142 0.44984 -1.51100
O 	O 	0.44366 0.90546 0.06112 -0.69100
O 	O 	0.95652 0.37652 0.06464 -0.67200
O 	O 	0.30528 0.22008 0.36476 -0.71400
O 	O 	0.77650 0.41670 0.34500 -0.65800
O 	O 	0.09454 0.55634 0.93888 -0.69100
O 	O 	0.02303 0.42663 0.93186 -1.04100
O 	O 	0.19838 0.35158 0.05016 -1.45700
O 	O 	0.28213 0.45093 0.19486 -0.64800
O 	O 	0.77860 0.64100 0.44920 -1.44100
O 	O 	0.43812 0.35812 0.56464 -0.67800
O 	O 	0.76709 0.93249 0.19658 -0.55800
O 	O 	0.56320 0.64880 0.86640 -0.66500
O 	O 	0.84117 0.74477 0.56814 -1.23800
O 	O 	0.35900 0.22140 0.55080 -1.44100
O 	O 	0.62348 0.04348 0.93536 -0.67200
O 	O 	0.22477 0.49897 0.09474 -1.25200
O 	O 	0.17378 0.53278 0.19436 -0.63400
O 	O 	0.07184 0.44684 0.84488 -0.62900
O 	O 	0.24118 0.09138 0.30436 -0.69700
O 	O 	0.08432 0.77172 0.65724 -0.58000
O 	O 	0.27509 0.05189 0.47018 -1.53400
O 	O 	0.21080 0.26040 0.51660 -0.63600
O 	O 	0.59236 0.70836 0.06312 -0.70400
O 	O 	0.07940 0.44180 0.05080 -1.39800
O 	O 	0.34577 0.11997 0.59474 -1.26000
O 	O 	0.78970 0.75910 0.01520 -0.65100
O 	O 	0.70382 0.95222 0.07564 -1.41000
O 	O 	0.37493 0.99793 0.43146 -1.11600
O 	O 	0.75423 0.71883 0.36726 -0.68500
O 	O 	0.14804 0.02304 0.34488 -0.70300
O 	O 	0.00207 0.62507 0.56854 -1.11600
O 	O 	0.64188 0.56188 0.43536 -0.67800
O 	O 	0.52450 0.99390 0.48480 -0.54400
O 	O 	0.13697 0.60157 0.13274 -0.66600
O 	O 	0.45214 0.02074 0.36428 -0.95300
O 	O 	0.91911 0.44211 0.98162 -0.67300
O 	O 	0.72942 0.58842 0.30564 -0.64500
O 	O 	0.57337 0.97697 0.06814 -1.04100
O 	O 	0.44680 0.03240 0.63360 -0.72700
O 	O 	0.46722 0.82622 0.80564 -0.63400
O 	O 	0.50103 0.77523 0.90526 -1.25200
O 	O 	0.64842 0.80162 0.94984 -1.45700
O 	O 	0.69841 0.93581 0.96502 -1.23600
O 	O 	0.73960 0.78920 0.48340 -0.63600
O 	O 	0.67605 0.66925 0.98270 -0.66200
O 	O 	0.37818 0.12658 0.42436 -1.51300
O 	O 	0.54907 0.71787 0.80514 -0.64800
O 	O 	0.32051 0.98591 0.30342 -0.61700
O 	O 	0.16829 0.44509 0.97018 -1.46900
O 	O 	0.96760 0.55320 0.36640 -0.72700
O 	O 	0.35120 0.43680 0.13360 -0.66500
O 	O 	0.69347 0.81647 0.06854 -1.23600
O 	O 	0.39843 0.86303 0.86726 -0.66600
O 	O 	0.48339 0.22079 0.53498 -1.26600
O 	O 	0.69052 0.10532 0.13524 -0.77500
O 	O 	0.87342 0.62182 0.57564 -1.51300
O 	O 	0.55491 0.83171 0.02982 -1.46900
O 	O 	0.83786 0.90646 0.13572 -0.68700
O 	O 	0.04778 0.29618 0.92436 -1.41000
O 	O 	0.59752 0.14432 0.56204 -0.75100
O 	O 	0.07139 0.40759 0.15698 -0.46800
O 	O 	0.89468 0.30948 0.86476 -0.77500
O 	O 	0.49939 0.33559 0.65698 -0.65200
O 	O 	0.83727 0.50607 0.30514 -0.64300
O 	O 	0.44335 0.93655 0.51730 -0.59200
O 	O 	0.13254 0.09434 0.43888 -0.67900
O 	O 	0.63552 0.82292 0.15724 -0.65300
O 	O 	0.24090 0.21030 0.98480 -0.65100
O 	O 	0.22828 0.91568 0.34276 -0.58000
O 	O 	0.90862 0.75882 0.69564 -0.69700
O 	O 	0.94811 0.72491 0.52982 -1.53400
O 	O 	0.09354 0.16214 0.86428 -0.68700
O 	O 	0.00620 0.55580 0.01660 -0.45500
O 	O 	0.06751 0.23291 0.80342 -0.55800
O 	O 	0.68749 0.71049 0.51838 -0.66700
O 	O 	0.55789 0.08089 0.01838 -0.67300
O 	O 	0.77992 0.69472 0.63524 -0.71400
O 	O 	0.68682 0.03702 0.19564 -0.76700
O 	O 	0.77921 0.51661 0.46502 -1.26600
O 	O 	0.41158 0.27058 0.69436 -0.64500
O 	O 	0.67830 0.81850 0.84500 -0.64600
O 	O 	0.00610 0.47550 0.51520 -0.54400
O 	O 	0.66441 0.50061 0.34302 -0.65200
O 	O 	0.88003 0.65423 0.40526 -1.26000
O 	O 	0.33075 0.32395 0.01730 -0.66200
O 	O 	0.55316 0.92816 0.15512 -0.62900
O 	O 	0.28117 0.24577 0.63274 -0.68500
O 	O 	0.78548 0.83228 0.93796 -0.70400
O 	O 	0.44858 0.10178 0.55016 -1.51100
O 	O 	0.16772 0.21452 0.06204 -0.70400
O 	O 	0.96298 0.31318 0.80436 -0.76700
O 	O 	0.97696 0.85196 0.65512 -0.70300
O 	O 	0.90566 0.86746 0.56112 -0.67900
O 	O 	0.44420 0.99380 0.98340 -0.45500
O 	O 	0.18150 0.32170 0.15500 -0.64600
O 	O 	0.28951 0.31251 0.48162 -0.66700
O 	O 	0.49393 0.16273 0.69486 -0.64300
O 	O 	0.06419 0.30159 0.03498 -1.23600
O 	O 	0.97926 0.54786 0.63572 -0.95300
O 	O 	0.29164 0.40764 0.93688 -0.70400
O 	O 	0.06345 0.55665 0.48270 -0.59200
O 	O 	0.25523 0.15883 0.43186 -1.23800
O 	O 	0.58330 0.22350 0.65500 -0.65800
O 	O 	0.01409 0.67949 0.69658 -0.61700
O 	O 	0.55820 0.92060 0.94920 -1.39800
O 	O 	0.85568 0.40248 0.43796 -0.75100
O 	O 	0.59241 0.92861 0.84302 -0.46800
O 	O 	0.10476 0.72076 0.56312 -0.63600
