data_crystal

_cell_length_a 31.26940
_cell_length_b 31.26940
_cell_length_c 16.95360
_cell_angle_alpha 90.00000
_cell_angle_beta  90.00000
_cell_angle_gamma 120.00000

_symmetry_space_group_name_	'P 1'
_symmetry_space_group_name_H-M	'P 1'

loop_
_symmetry_equiv_pos_as_xyz
  x,y,z

loop_
_atom_site_label
_atom_site_type_symbol
_atom_site_fract_x
_atom_site_fract_y
_atom_site_fract_z
_atom_site_charge
O 	O 	0.25357 0.66309 0.41988 -0.44400
C 	C 	0.18377 0.55249 0.29538 0.03100
C 	C 	0.14797 0.53459 0.23468 -0.08500
H 	H 	0.19687 0.52809 0.31808 0.03600
H 	H 	0.13417 0.49709 0.21168 0.06000
O 	O 	0.33691 0.59049 0.41988 -0.44400
C 	C 	0.44751 0.63129 0.29538 0.03100
C 	C 	0.46541 0.61339 0.23468 -0.08500
H 	H 	0.47191 0.66879 0.31808 0.03600
H 	H 	0.50291 0.63709 0.21168 0.06000
O 	O 	0.40951 0.74643 0.41988 -0.44400
C 	C 	0.36871 0.81623 0.29538 0.03200
C 	C 	0.38661 0.85203 0.23468 -0.08400
H 	H 	0.33121 0.80313 0.31808 0.03700
H 	H 	0.36291 0.86583 0.21168 0.06100
O 	O 	0.74643 0.33691 0.41988 -0.44300
C 	C 	0.81623 0.44751 0.29538 0.03200
C 	C 	0.85203 0.46541 0.23468 -0.08400
H 	H 	0.80313 0.47191 0.31808 0.03700
H 	H 	0.86583 0.50291 0.21168 0.06100
O 	O 	0.66309 0.40951 0.41988 -0.44300
C 	C 	0.55249 0.36871 0.29538 0.03200
C 	C 	0.53459 0.38661 0.23468 -0.08400
H 	H 	0.52809 0.33121 0.31808 0.03700
H 	H 	0.49709 0.36291 0.21168 0.06100
O 	O 	0.59049 0.25357 0.41988 -0.44300
C 	C 	0.63129 0.18377 0.29538 0.03200
C 	C 	0.61339 0.14797 0.23468 -0.08400
H 	H 	0.66879 0.19687 0.31808 0.03700
H 	H 	0.63709 0.13417 0.21168 0.06100
O 	O 	0.66309 0.25357 0.58012 -0.44300
C 	C 	0.55249 0.18377 0.70462 0.03200
C 	C 	0.53459 0.14797 0.76532 -0.08400
H 	H 	0.52809 0.19687 0.68192 0.03600
H 	H 	0.49709 0.13417 0.78832 0.06000
O 	O 	0.59049 0.33691 0.58012 -0.44300
C 	C 	0.63129 0.44751 0.70462 0.03200
C 	C 	0.61339 0.46541 0.76532 -0.08400
H 	H 	0.66879 0.47191 0.68192 0.03600
H 	H 	0.63709 0.50291 0.78832 0.06000
O 	O 	0.74643 0.40951 0.58012 -0.44300
C 	C 	0.81623 0.36871 0.70462 0.03200
C 	C 	0.85203 0.38661 0.76532 -0.08400
H 	H 	0.80313 0.33121 0.68192 0.03600
H 	H 	0.86583 0.36291 0.78832 0.06000
O 	O 	0.33691 0.74643 0.58012 -0.44300
C 	C 	0.44751 0.81623 0.70462 0.03200
C 	C 	0.46541 0.85203 0.76532 -0.08400
H 	H 	0.47191 0.80313 0.68192 0.03600
H 	H 	0.50291 0.86583 0.78832 0.06000
O 	O 	0.40951 0.66309 0.58012 -0.44300
C 	C 	0.36871 0.55249 0.70462 0.03200
C 	C 	0.38661 0.53459 0.76532 -0.08400
H 	H 	0.33121 0.52809 0.68192 0.03600
H 	H 	0.36291 0.49709 0.78832 0.06000
O 	O 	0.25357 0.59049 0.58012 -0.44300
C 	C 	0.18377 0.63129 0.70462 0.03200
C 	C 	0.14797 0.61339 0.76532 -0.08400
H 	H 	0.19687 0.66879 0.68192 0.03600
H 	H 	0.13417 0.63709 0.78832 0.06000
O 	O 	0.74643 0.33691 0.58012 -0.44300
C 	C 	0.81623 0.44751 0.70462 0.03200
C 	C 	0.85203 0.46541 0.76532 -0.08400
H 	H 	0.80313 0.47191 0.68192 0.03600
H 	H 	0.86583 0.50291 0.78832 0.06000
O 	O 	0.66309 0.40951 0.58012 -0.44300
C 	C 	0.55249 0.36871 0.70462 0.03200
C 	C 	0.53459 0.38661 0.76532 -0.08400
H 	H 	0.52809 0.33121 0.68192 0.03600
H 	H 	0.49709 0.36291 0.78832 0.06000
O 	O 	0.59049 0.25357 0.58012 -0.44300
C 	C 	0.63129 0.18377 0.70462 0.03200
C 	C 	0.61339 0.14797 0.76532 -0.08400
H 	H 	0.66879 0.19687 0.68192 0.03600
H 	H 	0.63709 0.13417 0.78832 0.06000
O 	O 	0.25357 0.66309 0.58012 -0.44300
C 	C 	0.18377 0.55249 0.70462 0.03200
C 	C 	0.14797 0.53459 0.76532 -0.08400
H 	H 	0.19687 0.52809 0.68192 0.03600
H 	H 	0.13417 0.49709 0.78832 0.06000
O 	O 	0.33691 0.59049 0.58012 -0.44300
C 	C 	0.44751 0.63129 0.70462 0.03200
C 	C 	0.46541 0.61339 0.76532 -0.08400
H 	H 	0.47191 0.66879 0.68192 0.03600
H 	H 	0.50291 0.63709 0.78832 0.06000
O 	O 	0.40951 0.74643 0.58012 -0.44300
C 	C 	0.36871 0.81623 0.70462 0.03200
C 	C 	0.38661 0.85203 0.76532 -0.08400
H 	H 	0.33121 0.80313 0.68192 0.03600
H 	H 	0.36291 0.86583 0.78832 0.06000
O 	O 	0.33691 0.74643 0.41988 -0.44300
C 	C 	0.44751 0.81623 0.29538 0.03200
C 	C 	0.46541 0.85203 0.23468 -0.08400
H 	H 	0.47191 0.80313 0.31808 0.03700
H 	H 	0.50291 0.86583 0.21168 0.06100
O 	O 	0.40951 0.66309 0.41988 -0.44300
C 	C 	0.36871 0.55249 0.29538 0.03200
C 	C 	0.38661 0.53459 0.23468 -0.08400
H 	H 	0.33121 0.52809 0.31808 0.03700
H 	H 	0.36291 0.49709 0.21168 0.06100
O 	O 	0.25357 0.59049 0.41988 -0.44300
C 	C 	0.18377 0.63129 0.29538 0.03200
C 	C 	0.14797 0.61339 0.23468 -0.08400
H 	H 	0.19687 0.66879 0.31808 0.03700
H 	H 	0.13417 0.63709 0.21168 0.06100
O 	O 	0.66309 0.25357 0.41988 -0.44300
C 	C 	0.55249 0.18377 0.29538 0.03200
C 	C 	0.53459 0.14797 0.23468 -0.08400
H 	H 	0.52809 0.19687 0.31808 0.03700
H 	H 	0.49709 0.13417 0.21168 0.06100
O 	O 	0.59049 0.33691 0.41988 -0.44300
C 	C 	0.63129 0.44751 0.29538 0.03200
C 	C 	0.61339 0.46541 0.23468 -0.08400
H 	H 	0.66879 0.47191 0.31808 0.03700
H 	H 	0.63709 0.50291 0.21168 0.06100
O 	O 	0.74643 0.40951 0.41988 -0.44300
C 	C 	0.81623 0.36871 0.29538 0.03200
C 	C 	0.85203 0.38661 0.23468 -0.08400
H 	H 	0.80313 0.33121 0.31808 0.03700
H 	H 	0.86583 0.36291 0.21168 0.06100
Fe	Fe	0.29893 0.70107 0.50000 1.27000
Fe	Fe	0.29893 0.59787 0.50000 1.27000
Fe	Fe	0.40213 0.70107 0.50000 1.27000
Fe	Fe	0.70107 0.29893 0.50000 1.27000
Fe	Fe	0.70107 0.40213 0.50000 1.27000
Fe	Fe	0.59787 0.29893 0.50000 1.27000
O 	O 	0.33333 0.66667 0.50000 -0.66800
O 	O 	0.66667 0.33333 0.50000 -0.66800
Fe	Fe	-0.00000 0.50000 -0.00000 1.22600
Fe	Fe	0.50000 0.50000 -0.00000 1.22500
Fe	Fe	0.50000 0.00000 -0.00000 1.22600
Cl	Cl	-0.00000 0.57360 -0.00000 -0.44600
Cl	Cl	0.42640 0.42640 -0.00000 -0.44700
Cl	Cl	0.57360 0.00000 -0.00000 -0.44600
Cl	Cl	-0.00000 0.42640 -0.00000 -0.44600
Cl	Cl	0.57360 0.57360 -0.00000 -0.44700
Cl	Cl	0.42640 0.00000 -0.00000 -0.44600
C 	C 	0.23877 0.61939 0.39278 0.37400
C 	C 	0.20197 0.60099 0.32688 -0.10900
C 	C 	0.12977 0.56489 0.20438 0.07000
C 	C 	0.09037 0.54519 0.14188 -0.10500
C 	C 	0.10437 0.55219 0.06308 0.10900
C 	C 	0.15437 0.57719 0.03988 -0.04900
C 	C 	0.04057 0.52029 0.16388 0.10800
C 	C 	0.02597 0.51299 0.24268 -0.05700
H 	H 	0.18757 0.59379 0.07708 0.05200
H 	H 	0.04937 0.52469 0.29518 0.05300
C 	C 	0.38061 0.61939 0.39278 0.37400
C 	C 	0.39901 0.60099 0.32688 -0.10900
C 	C 	0.43511 0.56489 0.20438 0.07000
C 	C 	0.45481 0.54519 0.14188 -0.10500
C 	C 	0.44781 0.55219 0.06308 0.10900
C 	C 	0.42281 0.57719 0.03988 -0.04900
C 	C 	0.47971 0.52029 0.16388 0.10900
C 	C 	0.48701 0.51299 0.24268 -0.05900
H 	H 	0.40621 0.59379 0.07708 0.05200
H 	H 	0.47531 0.52469 0.29518 0.05300
C 	C 	0.38061 0.76123 0.39278 0.37400
C 	C 	0.39901 0.79803 0.32688 -0.10900
C 	C 	0.43511 0.87023 0.20438 0.07000
C 	C 	0.45481 0.90963 0.14188 -0.10500
C 	C 	0.44781 0.89563 0.06308 0.10900
C 	C 	0.42281 0.84563 0.03988 -0.04900
C 	C 	0.47971 0.95943 0.16388 0.10800
C 	C 	0.48701 0.97403 0.24268 -0.06000
H 	H 	0.40621 0.81243 0.07708 0.05100
H 	H 	0.47531 0.95063 0.29518 0.05300
C 	C 	0.76123 0.38061 0.39278 0.37400
C 	C 	0.79803 0.39901 0.32688 -0.10900
C 	C 	0.87023 0.43511 0.20438 0.07000
C 	C 	0.90963 0.45481 0.14188 -0.10500
C 	C 	0.89563 0.44781 0.06308 0.10900
C 	C 	0.84563 0.42281 0.03988 -0.04900
C 	C 	0.95943 0.47971 0.16388 0.10800
C 	C 	0.97403 0.48701 0.24268 -0.06000
H 	H 	0.81243 0.40621 0.07708 0.05100
H 	H 	0.95063 0.47531 0.29518 0.05300
C 	C 	0.61939 0.38061 0.39278 0.37400
C 	C 	0.60099 0.39901 0.32688 -0.10900
C 	C 	0.56489 0.43511 0.20438 0.07000
C 	C 	0.54519 0.45481 0.14188 -0.10500
C 	C 	0.55219 0.44781 0.06308 0.10900
C 	C 	0.57719 0.42281 0.03988 -0.04900
C 	C 	0.52029 0.47971 0.16388 0.10900
C 	C 	0.51299 0.48701 0.24268 -0.05900
H 	H 	0.59379 0.40621 0.07708 0.05200
H 	H 	0.52469 0.47531 0.29518 0.05300
C 	C 	0.61939 0.23877 0.39278 0.37400
C 	C 	0.60099 0.20197 0.32688 -0.10900
C 	C 	0.56489 0.12977 0.20438 0.07000
C 	C 	0.54519 0.09037 0.14188 -0.10500
C 	C 	0.55219 0.10437 0.06308 0.10900
C 	C 	0.57719 0.15437 0.03988 -0.04900
C 	C 	0.52029 0.04057 0.16388 0.10800
C 	C 	0.51299 0.02597 0.24268 -0.05700
H 	H 	0.59379 0.18757 0.07708 0.05200
H 	H 	0.52469 0.04937 0.29518 0.05300
C 	C 	0.61939 0.23877 0.60722 0.37400
C 	C 	0.60099 0.20197 0.67312 -0.10900
C 	C 	0.56489 0.12977 0.79562 0.07000
C 	C 	0.54519 0.09037 0.85812 -0.10600
C 	C 	0.55219 0.10437 0.93692 0.10700
C 	C 	0.57719 0.15437 0.96012 -0.06700
C 	C 	0.52029 0.04057 0.83612 0.10700
C 	C 	0.51299 0.02597 0.75732 -0.05700
H 	H 	0.59379 0.18757 0.92292 0.05300
H 	H 	0.52469 0.04937 0.70482 0.05300
C 	C 	0.61939 0.38061 0.60722 0.37400
C 	C 	0.60099 0.39901 0.67312 -0.10900
C 	C 	0.56489 0.43511 0.79562 0.07000
C 	C 	0.54519 0.45481 0.85812 -0.10600
C 	C 	0.55219 0.44781 0.93692 0.10700
C 	C 	0.57719 0.42281 0.96012 -0.06700
C 	C 	0.52029 0.47971 0.83612 0.10700
C 	C 	0.51299 0.48701 0.75732 -0.05900
H 	H 	0.59379 0.40621 0.92292 0.05300
H 	H 	0.52469 0.47531 0.70482 0.05300
C 	C 	0.76123 0.38061 0.60722 0.37400
C 	C 	0.79803 0.39901 0.67312 -0.10900
C 	C 	0.87023 0.43511 0.79562 0.07000
C 	C 	0.90963 0.45481 0.85812 -0.10600
C 	C 	0.89563 0.44781 0.93692 0.10600
C 	C 	0.84563 0.42281 0.96012 -0.06700
C 	C 	0.95943 0.47971 0.83612 0.10600
C 	C 	0.97403 0.48701 0.75732 -0.06100
H 	H 	0.81243 0.40621 0.92292 0.05300
H 	H 	0.95063 0.47531 0.70482 0.05300
C 	C 	0.38061 0.76123 0.60722 0.37400
C 	C 	0.39901 0.79803 0.67312 -0.10900
C 	C 	0.43511 0.87023 0.79562 0.07000
C 	C 	0.45481 0.90963 0.85812 -0.10600
C 	C 	0.44781 0.89563 0.93692 0.10600
C 	C 	0.42281 0.84563 0.96012 -0.06700
C 	C 	0.47971 0.95943 0.83612 0.10600
C 	C 	0.48701 0.97403 0.75732 -0.06100
H 	H 	0.40621 0.81243 0.92292 0.05300
H 	H 	0.47531 0.95063 0.70482 0.05300
C 	C 	0.38061 0.61939 0.60722 0.37400
C 	C 	0.39901 0.60099 0.67312 -0.10900
C 	C 	0.43511 0.56489 0.79562 0.07000
C 	C 	0.45481 0.54519 0.85812 -0.10600
C 	C 	0.44781 0.55219 0.93692 0.10700
C 	C 	0.42281 0.57719 0.96012 -0.06700
C 	C 	0.47971 0.52029 0.83612 0.10700
C 	C 	0.48701 0.51299 0.75732 -0.05900
H 	H 	0.40621 0.59379 0.92292 0.05300
H 	H 	0.47531 0.52469 0.70482 0.05300
C 	C 	0.23877 0.61939 0.60722 0.37400
C 	C 	0.20197 0.60099 0.67312 -0.10900
C 	C 	0.12977 0.56489 0.79562 0.07000
C 	C 	0.09037 0.54519 0.85812 -0.10600
C 	C 	0.10437 0.55219 0.93692 0.10700
C 	C 	0.15437 0.57719 0.96012 -0.06700
C 	C 	0.04057 0.52029 0.83612 0.10700
C 	C 	0.02597 0.51299 0.75732 -0.05700
H 	H 	0.18757 0.59379 0.92292 0.05300
H 	H 	0.04937 0.52469 0.70482 0.05300
N 	N 	0.07257 0.53629 -0.00000 -0.23900
N 	N 	0.46371 0.53629 -0.00000 -0.23900
N 	N 	0.46371 0.92743 -0.00000 -0.24000
N 	N 	0.92743 0.46371 -0.00000 -0.24000
N 	N 	0.53629 0.46371 -0.00000 -0.23900
N 	N 	0.53629 0.07257 -0.00000 -0.23900
N 	N 	-0.00000 0.50000 0.11358 -0.24600
N 	N 	0.50000 0.50000 0.11358 -0.24700
N 	N 	0.50000 -0.00000 0.11358 -0.24600
N 	N 	0.50000 -0.00000 0.88642 -0.24800
N 	N 	0.50000 0.50000 0.88642 -0.24900
N 	N 	-0.00000 0.50000 0.88642 -0.24800
