data_crystal

_cell_length_a 19.38670
_cell_length_b 19.38670
_cell_length_c 20.82680
_cell_angle_alpha 90.00000
_cell_angle_beta  90.00000
_cell_angle_gamma 120.00000

_symmetry_space_group_name_	'P 1'
_symmetry_space_group_name_H-M	'P 1'

loop_
_symmetry_equiv_pos_as_xyz
  x,y,z

loop_
_atom_site_label
_atom_site_type_symbol
_atom_site_fract_x
_atom_site_fract_y
_atom_site_fract_z
_atom_site_charge
Co	Co	0.28741 0.56752 0.52202 1.18200
Co	Co	0.71989 0.28741 0.68868 1.18200
Co	Co	0.64155 0.27354 0.52277 1.13000
Co	Co	0.43248 0.71989 0.85535 1.18200
Co	Co	0.27354 0.63199 0.35611 1.13000
Co	Co	0.63199 0.35845 0.18944 1.13000
Co	Co	0.35845 0.72646 0.02277 1.13000
Co	Co	0.28011 0.71259 0.18868 1.18300
Co	Co	0.36801 0.64155 0.68944 1.13100
Co	Co	0.56752 0.28011 0.35535 1.18300
Co	Co	0.72646 0.36801 0.85611 1.13200
Co	Co	0.71259 0.43248 0.02202 1.18100
H 	H 	0.93420 0.15140 0.74820 0.07300
H 	H 	0.84040 0.19390 0.73740 0.03000
H 	H 	0.35100 0.40310 0.71603 0.02800
H 	H 	0.05790 0.31660 0.14053 0.07500
H 	H 	0.78630 0.66870 0.77653 0.08100
H 	H 	0.64900 0.59690 0.21603 0.02700
H 	H 	0.83960 0.17460 0.62687 0.02500
H 	H 	0.21360 0.48340 0.75770 -0.00000
H 	H 	0.53820 0.88210 0.23413 0.02200
H 	H 	0.69260 0.73190 0.22773 0.07700
H 	H 	0.82540 0.66500 0.96020 0.02700
H 	H 	0.26810 0.96070 0.56107 0.07700
H 	H 	0.33500 0.16040 0.29353 0.02500
H 	H 	0.26940 0.46940 0.27973 0.00500
H 	H 	0.87990 0.08080 0.60987 0.07400
H 	H 	0.53060 0.80000 0.61307 0.00500
H 	H 	0.67590 0.93470 0.23493 0.07400
H 	H 	0.68340 0.74130 0.47387 0.07500
H 	H 	0.12010 0.91920 0.10987 0.07400
H 	H 	0.87340 0.65490 0.25980 0.08200
H 	H 	0.34040 0.88650 0.81030 0.02100
H 	H 	0.05210 0.64900 0.38270 0.02800
H 	H 	0.25870 0.94210 0.80720 0.07500
H 	H 	0.25880 0.32410 0.90160 0.07500
H 	H 	0.21850 0.87340 0.42647 0.08300
H 	H 	0.64650 0.84040 0.90407 0.03000
H 	H 	0.29950 0.03390 0.98167 0.08300
H 	H 	0.51660 0.73020 0.09103 -0.00100
H 	H 	0.11790 0.65610 0.56747 0.02200
H 	H 	0.32410 0.06530 0.73493 0.07400
H 	H 	0.74120 0.67590 0.40160 0.07400
H 	H 	0.03390 0.73440 0.81500 0.07600
H 	H 	0.33130 0.11760 0.10987 0.08100
H 	H 	0.88240 0.21370 0.44320 0.08100
H 	H 	0.34510 0.21850 0.59313 0.08300
H 	H 	0.74130 0.05790 0.30720 0.07500
H 	H 	0.70050 0.96610 0.48167 0.07700
H 	H 	0.45390 0.34040 0.97697 0.02700
H 	H 	0.35350 0.15960 0.40407 0.03000
H 	H 	0.06580 0.84860 0.24820 0.07300
H 	H 	0.15140 0.21720 0.58153 0.07300
H 	H 	0.78640 0.51660 0.25770 -0.00100
H 	H 	0.60060 0.66310 0.66463 0.03100
H 	H 	0.30740 0.26810 0.72773 0.07700
H 	H 	0.26980 0.78640 0.42437 -0.00100
H 	H 	0.31660 0.25870 0.97387 0.08100
H 	H 	0.11350 0.45390 0.14363 0.02000
H 	H 	0.94790 0.35100 0.88270 0.02800
H 	H 	0.11760 0.78630 0.94320 0.08200
H 	H 	0.33690 0.93750 0.99797 0.03700
H 	H 	0.12660 0.34510 0.75980 0.08300
H 	H 	0.48340 0.26980 0.59103 -0.00000
H 	H 	0.65610 0.53820 0.40080 0.02200
H 	H 	0.39940 0.33690 0.16463 0.03000
H 	H 	0.20000 0.73060 0.94640 0.00700
H 	H 	0.80000 0.26940 0.44640 0.00500
H 	H 	0.91920 0.79910 0.94320 0.07500
H 	H 	0.15960 0.80610 0.23740 0.03000
H 	H 	0.19390 0.35350 0.57073 0.03000
H 	H 	0.26560 0.29950 0.14833 0.07600
H 	H 	0.78280 0.93420 0.91487 0.07400
H 	H 	0.73190 0.03930 0.06107 0.07700
H 	H 	0.03930 0.30740 0.89440 0.07800
H 	H 	0.46180 0.11790 0.73413 0.02200
H 	H 	0.40310 0.05210 0.54937 0.02800
H 	H 	0.88210 0.34390 0.06747 0.02200
H 	H 	0.73060 0.53060 0.77973 0.00600
H 	H 	0.73020 0.21360 0.92437 -0.00000
H 	H 	0.66500 0.83960 0.79353 0.02500
H 	H 	0.34390 0.46180 0.90080 0.02300
H 	H 	0.96610 0.26560 0.31500 0.07600
H 	H 	0.65490 0.78150 0.09313 0.08200
H 	H 	0.96070 0.69260 0.39440 0.07700
H 	H 	0.46940 0.20000 0.11307 0.00500
H 	H 	0.17460 0.33500 0.46020 0.02500
H 	H 	0.93750 0.60060 0.83130 0.03100
H 	H 	0.93470 0.25880 0.06827 0.07500
H 	H 	0.80610 0.64650 0.07073 0.02800
H 	H 	0.20090 0.12010 0.27653 0.07400
H 	H 	0.78150 0.12660 0.92647 0.08300
H 	H 	0.88650 0.54610 0.64363 0.02100
H 	H 	0.65960 0.11350 0.31030 0.02000
H 	H 	0.21370 0.33130 0.27653 0.08100
H 	H 	0.66310 0.06250 0.49797 0.03000
H 	H 	0.73440 0.70050 0.64833 0.07700
H 	H 	0.59690 0.94790 0.04937 0.02800
H 	H 	0.84860 0.78280 0.08153 0.07300
H 	H 	0.54610 0.65960 0.47697 0.02100
H 	H 	0.79910 0.87990 0.77653 0.07400
H 	H 	0.66870 0.88240 0.60987 0.08100
H 	H 	0.16040 0.82540 0.12687 0.02500
H 	H 	0.06250 0.39940 0.33130 0.03100
H 	H 	0.94210 0.68340 0.64053 0.07500
H 	H 	0.21720 0.06580 0.41487 0.07300
H 	H 	0.06530 0.74120 0.56827 0.07400
H 	H 	0.08080 0.20090 0.44320 0.07400
C 	C 	0.08450 0.99410 0.67783 -0.00300
C 	C 	0.34740 0.24620 0.00187 -0.13900
C 	C 	0.64370 0.89300 0.20593 -0.13100
C 	C 	0.28400 0.28520 0.69603 -0.12500
C 	C 	0.00490 0.77560 0.32310 0.07500
C 	C 	0.22630 0.43850 0.25153 0.06400
C 	C 	0.72890 0.00800 0.51157 -0.12300
C 	C 	0.86200 0.30000 0.03867 0.05400
C 	C 	0.35630 0.10700 0.70593 -0.13100
C 	C 	0.13160 0.30990 0.20713 0.08100
C 	C 	0.16520 0.92410 0.08777 -0.12400
C 	C 	0.71930 0.18530 0.57787 0.37800
C 	C 	0.37930 0.25380 0.23193 -0.12500
C 	C 	0.18430 0.32100 0.83070 0.08100
C 	C 	0.13100 0.23370 0.83260 -0.02600
C 	C 	0.77750 0.54890 0.28710 0.07100
C 	C 	0.17090 0.36870 0.78810 -0.13400
C 	C 	0.09040 0.08450 0.84450 -0.00200
C 	C 	0.92610 0.91070 0.51717 -0.00300
C 	C 	0.78780 0.22630 0.41820 0.06400
C 	C 	0.33600 0.11970 0.43627 0.04600
C 	C 	0.21960 0.20730 0.21193 0.07500
C 	C 	0.80630 0.85720 0.16333 -0.02500
C 	C 	0.13190 0.32080 0.43100 0.05100
C 	C 	0.67900 0.86330 0.16403 0.08100
C 	C 	0.91550 0.00590 0.17783 -0.00300
C 	C 	0.70630 0.06530 0.52157 0.05200
C 	C 	0.33320 0.76990 0.88010 0.34900
C 	C 	0.28520 0.00120 0.52937 -0.12500
C 	C 	0.80650 0.64380 0.74903 -0.13200
C 	C 	0.52420 0.71970 0.54587 -0.14000
C 	C 	0.28670 0.48600 0.82880 -0.14700
C 	C 	0.29370 0.93470 0.02157 0.04500
C 	C 	0.94420 0.30950 0.85610 0.05600
C 	C 	0.10270 0.86900 0.49927 -0.02600
C 	C 	0.21220 0.77370 0.91820 0.06400
C 	C 	0.62070 0.74620 0.73193 -0.12500
C 	C 	0.09730 0.22220 0.20093 -0.02500
C 	C 	0.77560 0.77070 0.15643 0.07500
C 	C 	0.45110 0.22860 0.62043 0.07100
C 	C 	0.28070 0.81470 0.07787 0.37700
C 	C 	0.24620 0.89880 0.83520 -0.13200
C 	C 	0.39070 0.11620 0.47737 -0.12800
C 	C 	0.14280 0.94910 0.49667 -0.02500
C 	C 	0.92410 0.75890 0.92110 -0.12300
C 	C 	0.69050 0.63470 0.18943 0.05600
C 	C 	0.89300 0.24930 0.03927 -0.13800
C 	C 	0.07390 0.08930 0.01717 -0.00300
C 	C 	0.12490 0.90270 0.86760 -0.02600
C 	C 	0.86600 0.82080 0.70253 -0.02400
C 	C 	0.79270 0.01230 0.54527 0.07400
C 	C 	0.54890 0.77140 0.12043 0.07100
C 	C 	0.69010 0.82170 0.54047 0.08100
C 	C 	0.17940 0.70240 0.30370 0.38300
C 	C 	0.66680 0.23010 0.38010 0.34900
C 	C 	0.76630 0.89730 0.16593 -0.02600
C 	C 	0.29530 0.86610 0.83770 0.06000
C 	C 	0.82170 0.13160 0.37380 0.08100
C 	C 	0.30990 0.17830 0.04047 0.08200
C 	C 	0.16270 0.80650 0.91570 -0.13100
C 	C 	0.27910 0.27110 0.17823 -0.12300
C 	C 	0.77140 0.22250 0.95377 0.07200
C 	C 	0.34050 0.57330 0.83170 0.36200
C 	C 	0.95480 0.13400 0.36920 -0.02400
C 	C 	0.08930 0.01540 0.85050 -0.00200
C 	C 	0.28030 0.80450 0.87920 -0.13900
C 	C 	0.85720 0.05090 0.99667 -0.02100
C 	C 	0.81570 0.67900 0.33070 0.08100
C 	C 	0.88380 0.27450 0.81070 -0.12800
C 	C 	0.36530 0.05580 0.52277 0.05600
C 	C 	0.05580 0.69050 0.35610 0.05500
C 	C 	0.25380 0.87450 0.06527 -0.12400
C 	C 	0.71480 0.99880 0.02937 -0.13100
C 	C 	0.81470 0.53400 0.91120 0.37800
C 	C 	0.57080 0.70470 0.50437 0.06000
C 	C 	0.48600 0.19930 0.66213 -0.14700
C 	C 	0.27450 0.39070 0.64403 -0.12800
C 	C 	0.99880 0.28400 0.86270 -0.12500
C 	C 	0.00800 0.27910 0.34490 -0.12200
C 	C 	0.04520 0.86600 0.86920 -0.02400
C 	C 	0.80070 0.28670 0.99547 -0.14300
C 	C 	0.52300 0.82060 0.97037 0.38900
C 	C 	0.23280 0.65950 0.49837 0.36200
C 	C 	0.71600 0.71480 0.19603 -0.12500
C 	C 	0.53400 0.71930 0.74453 0.37800
C 	C 	0.46600 0.28070 0.24453 0.37800
C 	C 	0.32080 0.18890 0.26433 0.05100
C 	C 	0.42920 0.29530 0.00437 0.05200
C 	C 	0.43670 0.66680 0.54677 0.34900
C 	C 	0.72550 0.60930 0.14403 -0.12900
C 	C 	0.01230 0.21960 0.37860 0.07500
C 	C 	0.71330 0.51400 0.32880 -0.14700
C 	C 	0.51400 0.80070 0.16213 -0.14800
C 	C 	0.11970 0.78370 0.26960 0.04600
C 	C 	0.11620 0.72550 0.31070 -0.12800
C 	C 	0.23010 0.56330 0.21343 0.34900
C 	C 	0.70240 0.52300 0.13703 0.38300
C 	C 	0.77070 0.99510 0.98977 0.08100
C 	C 	0.13670 0.81570 0.49737 0.08100
C 	C 	0.17830 0.86840 0.87380 0.08100
C 	C 	0.74620 0.12550 0.56527 -0.12500
C 	C 	0.17920 0.04520 0.03587 -0.02500
C 	C 	0.24930 0.35630 0.87260 -0.13100
C 	C 	0.19550 0.47580 0.21253 -0.14100
C 	C 	0.94910 0.80630 0.33000 -0.02500
C 	C 	0.18530 0.46600 0.41120 0.37800
C 	C 	0.12550 0.37930 0.39860 -0.12500
C 	C 	0.60930 0.88380 0.97737 -0.12300
C 	C 	0.57330 0.23280 0.66503 0.36200
C 	C 	0.21630 0.33600 0.60293 0.04600
C 	C 	0.70000 0.56200 0.37200 0.05900
C 	C 	0.64100 0.70630 0.68823 0.05200
C 	C 	0.01540 0.92610 0.68383 -0.00300
C 	C 	0.22440 0.22930 0.65643 0.07500
C 	C 	0.86810 0.67920 0.93100 0.05100
C 	C 	0.63130 0.80220 0.12143 -0.13500
C 	C 	0.42670 0.76720 0.16503 0.36200
C 	C 	0.30950 0.36530 0.68943 0.05600
C 	C 	0.00590 0.09040 0.01117 -0.00100
C 	C 	0.83480 0.07590 0.58777 -0.12300
C 	C 	0.64380 0.83730 0.58237 -0.13200
C 	C 	0.65260 0.75380 0.50187 -0.13200
C 	C 	0.47700 0.17940 0.47037 0.38300
C 	C 	0.98770 0.78040 0.87860 0.07500
C 	C 	0.81110 0.13190 0.59767 0.05100
C 	C 	0.43850 0.21220 0.08487 0.06300
C 	C 	0.86900 0.76630 0.33260 -0.02600
C 	C 	0.56150 0.78780 0.58487 0.06400
C 	C 	0.13400 0.17920 0.20253 -0.02400
C 	C 	0.32100 0.13670 0.66403 0.08100
C 	C 	0.90270 0.77780 0.70093 -0.02600
C 	C 	0.87450 0.62070 0.89860 -0.12400
C 	C 	0.74510 0.93630 0.94267 -0.12200
C 	C 	0.22250 0.45110 0.78710 0.07100
C 	C 	0.13390 0.42920 0.17103 0.06000
C 	C 	0.56330 0.33320 0.04677 0.34800
C 	C 	0.83730 0.19350 0.41570 -0.13200
C 	C 	0.98460 0.07390 0.18383 -0.00300
C 	C 	0.56200 0.86200 0.20533 0.05900
C 	C 	0.76990 0.43670 0.71343 0.34900
C 	C 	0.25490 0.06370 0.44267 -0.12200
C 	C 	0.00120 0.71600 0.36270 -0.12500
C 	C 	0.20730 0.98770 0.04527 0.07600
C 	C 	0.90960 0.91550 0.34450 -0.00300
C 	C 	0.93630 0.19120 0.77600 -0.12200
C 	C 	0.80220 0.17090 0.95477 -0.13600
C 	C 	0.86840 0.69010 0.70713 0.08100
C 	C 	0.89730 0.13100 0.99927 -0.02300
C 	C 	0.06530 0.35900 0.35490 0.05200
C 	C 	0.24110 0.16520 0.25443 -0.12300
C 	C 	0.19930 0.71330 0.49547 -0.14700
C 	C 	0.65950 0.42670 0.33170 0.36200
C 	C 	0.76720 0.34050 0.99837 0.36800
C 	C 	0.07590 0.24110 0.42110 -0.12300
C 	C 	0.78040 0.79270 0.71193 0.07500
C 	C 	0.86330 0.18430 0.99737 0.08800
C 	C 	0.86610 0.57080 0.67103 0.06000
C 	C 	0.77780 0.87510 0.53427 -0.02600
C 	C 	0.27110 0.99200 0.01157 -0.13000
C 	C 	0.43800 0.13800 0.70533 0.05900
C 	C 	0.22930 0.00490 0.48977 0.07500
C 	C 	0.23370 0.10270 0.66593 -0.02600
C 	C 	0.89880 0.65260 0.66853 -0.13200
C 	C 	0.67920 0.81110 0.76433 0.05100
C 	C 	0.35620 0.16270 0.08237 -0.13300
C 	C 	0.75890 0.83480 0.75443 -0.12300
C 	C 	0.80880 0.74510 0.10933 -0.12200
C 	C 	0.87510 0.09730 0.36760 -0.02600
C 	C 	0.35900 0.29370 0.18823 0.05200
C 	C 	0.82910 0.63130 0.28810 -0.13500
C 	C 	0.99410 0.90960 0.51117 -0.00300
C 	C 	0.88030 0.21630 0.76960 0.04600
C 	C 	0.71970 0.19550 0.37920 -0.14000
C 	C 	0.99510 0.22440 0.82310 0.07500
C 	C 	0.30000 0.43800 0.87200 0.05900
C 	C 	0.77370 0.56150 0.75153 0.06400
C 	C 	0.19350 0.35620 0.24903 -0.13200
C 	C 	0.22220 0.12490 0.03427 -0.02700
C 	C 	0.70470 0.13390 0.33770 0.06000
C 	C 	0.10120 0.34740 0.16853 -0.13200
C 	C 	0.99200 0.72090 0.84490 -0.12200
C 	C 	0.91070 0.98460 0.35050 -0.00300
C 	C 	0.19780 0.82910 0.45477 -0.13500
C 	C 	0.47580 0.28030 0.04587 -0.13800
C 	C 	0.78370 0.66400 0.10293 0.04600
C 	C 	0.66400 0.88030 0.93627 0.04600
C 	C 	0.93470 0.64100 0.85490 0.05200
C 	C 	0.63470 0.94420 0.02277 0.05000
C 	C 	0.22860 0.77750 0.45377 0.07100
C 	C 	0.36870 0.19780 0.62143 -0.13500
C 	C 	0.05090 0.19370 0.83000 -0.02400
C 	C 	0.13800 0.70000 0.53867 0.05900
C 	C 	0.06370 0.80880 0.27600 -0.12200
C 	C 	0.19120 0.25490 0.60933 -0.12200
C 	C 	0.82080 0.95480 0.53587 -0.02400
C 	C 	0.72090 0.72890 0.67823 -0.12300
C 	C 	0.29760 0.47700 0.63703 0.38300
C 	C 	0.18890 0.86810 0.09767 0.05000
C 	C 	0.19370 0.14280 0.66333 -0.02500
C 	C 	0.82060 0.29760 0.80370 0.38300
C 	C 	0.10700 0.75070 0.53927 -0.13100
C 	C 	0.75070 0.64370 0.37260 -0.13100
C 	C 	0.80450 0.52420 0.71253 -0.14000
C 	C 	0.75380 0.10120 0.33520 -0.13200
S 	S 	0.07612 0.07649 0.18942 -0.00200
S 	S 	0.83167 0.82426 0.52305 -0.00700
S 	S 	0.99799 0.82116 0.50681 -0.00700
S 	S 	0.92351 0.99963 0.52276 -0.00300
S 	S 	0.99710 0.91073 0.33573 -0.00300
S 	S 	0.82116 0.82317 0.34014 -0.00700
S 	S 	0.00201 0.17884 0.00681 -0.01300
S 	S 	0.82426 0.99259 0.35638 -0.00700
S 	S 	0.08637 0.99710 0.50240 -0.00300
S 	S 	0.17884 0.17683 0.84014 -0.00500
S 	S 	0.00290 0.08927 0.83573 -0.00200
S 	S 	0.08927 0.08637 0.66906 -0.00300
S 	S 	0.17683 0.99799 0.67347 -0.00700
S 	S 	0.99963 0.07612 0.35609 -0.00300
S 	S 	0.91363 0.00290 0.00240 -0.01100
S 	S 	0.82317 0.00201 0.17347 -0.00800
S 	S 	0.99259 0.16833 0.18971 -0.00800
S 	S 	0.92388 0.92351 0.68942 -0.00300
S 	S 	0.00741 0.83167 0.68971 -0.00700
S 	S 	0.16833 0.17574 0.02305 -0.01000
S 	S 	0.17574 0.00741 0.85638 -0.00600
S 	S 	0.91073 0.91363 0.16906 -0.00300
S 	S 	0.07649 0.00037 0.02276 -0.00500
S 	S 	0.00037 0.92388 0.85609 -0.00200
O 	O 	0.32880 0.81270 0.03967 -0.43800
O 	O 	0.73770 0.50790 0.09323 -0.46500
O 	O 	0.61550 0.21070 0.33590 -0.43600
O 	O 	0.38960 0.60310 0.87750 -0.42800
O 	O 	0.39690 0.78650 0.21083 -0.42900
O 	O 	0.82070 0.34820 0.84120 -0.42600
O 	O 	0.52160 0.74970 0.79473 -0.45100
O 	O 	0.28180 0.66240 0.45657 -0.51200
O 	O 	0.59520 0.38450 0.00257 -0.43800
O 	O 	0.18730 0.51610 0.37300 -0.43700
O 	O 	0.52750 0.17930 0.50787 -0.42600
O 	O 	0.67120 0.18730 0.53967 -0.43700
O 	O 	0.21350 0.61040 0.54417 -0.42900
O 	O 	0.48390 0.67120 0.70633 -0.43700
O 	O 	0.78930 0.40480 0.66923 -0.43500
O 	O 	0.47250 0.82070 0.00787 -0.43200
O 	O 	0.49210 0.22980 0.42657 -0.46400
O 	O 	0.26230 0.49210 0.59323 -0.46400
O 	O 	0.67350 0.28050 0.42390 -0.48600
O 	O 	0.47840 0.25030 0.29473 -0.45100
O 	O 	0.32650 0.71950 0.92390 -0.48300
O 	O 	0.17930 0.65180 0.34120 -0.42600
O 	O 	0.50790 0.77020 0.92657 -0.46400
O 	O 	0.66240 0.38060 0.28990 -0.51200
O 	O 	0.77020 0.26230 0.75990 -0.46400
O 	O 	0.78650 0.38960 0.04417 -0.43500
O 	O 	0.77190 0.52160 0.96140 -0.44800
O 	O 	0.40480 0.61550 0.50257 -0.43500
O 	O 	0.61940 0.28180 0.62323 -0.51100
O 	O 	0.71950 0.39300 0.75723 -0.48500
O 	O 	0.38450 0.78930 0.83590 -0.43500
O 	O 	0.60310 0.21350 0.71083 -0.42900
O 	O 	0.33760 0.61940 0.78990 -0.51100
O 	O 	0.21070 0.59520 0.16923 -0.43600
O 	O 	0.60700 0.32650 0.09057 -0.48600
O 	O 	0.28050 0.60700 0.25723 -0.48600
O 	O 	0.81270 0.48390 0.87300 -0.43600
O 	O 	0.51610 0.32880 0.20633 -0.43700
O 	O 	0.39300 0.67350 0.59057 -0.48600
O 	O 	0.71820 0.33760 0.95657 -0.51100
O 	O 	0.61040 0.39690 0.37750 -0.42900
O 	O 	0.22980 0.73770 0.25990 -0.46400
O 	O 	0.65180 0.47250 0.17453 -0.42700
O 	O 	0.34820 0.52750 0.67453 -0.42600
O 	O 	0.25030 0.77190 0.12807 -0.45100
O 	O 	0.38060 0.71820 0.12323 -0.51200
O 	O 	0.74970 0.22810 0.62807 -0.45100
O 	O 	0.22810 0.47840 0.46140 -0.45100
