data_crystal

_cell_length_a 8.53020
_cell_length_b 8.59020
_cell_length_c 16.15820
_cell_angle_alpha 89.30900
_cell_angle_beta  78.00400
_cell_angle_gamma 68.81200

_symmetry_space_group_name_	'P 1'
_symmetry_space_group_name_H-M	'P 1'

loop_
_symmetry_equiv_pos_as_xyz
  x,y,z

loop_
_atom_site_label
_atom_site_type_symbol
_atom_site_fract_x
_atom_site_fract_y
_atom_site_fract_z
_atom_site_charge
Li	Li	0.85200 0.78200 0.62130 0.56000
Li	Li	0.17500 0.81500 0.67800 0.55900
Li	Li	0.52300 0.79500 0.15000 0.56100
Li	Li	0.53080 0.75800 0.62220 0.55200
Zr	Zr	0.40307 0.26220 0.41405 3.20100
Zr	Zr	0.62219 0.34240 0.88835 3.20200
C 	C 	0.18400 0.56250 0.53960 0.25300
C 	C 	0.55400 0.98290 0.28130 0.35700
C 	C 	0.67850 0.56080 0.74370 0.26900
C 	C 	0.66440 0.57930 0.01980 0.16800
C 	C 	0.05840 0.54650 0.49110 0.24100
C 	C 	0.50900 0.48000 0.27950 0.32600
C 	C 	0.83420 0.03900 0.76100 0.27300
C 	C 	0.47500 0.63400 0.02630 0.23800
C 	C 	0.48850 0.56840 0.75100 0.29400
C 	C 	0.96570 0.06000 0.81070 0.20800
C 	C 	0.53800 0.03240 0.54990 0.23200
C 	C 	0.66170 0.42410 0.32570 0.26100
C 	C 	0.50500 0.14700 0.02860 0.21800
C 	C 	0.35480 0.03710 0.55900 0.22600
C 	C 	0.34690 0.04800 0.29160 0.24400
C 	C 	0.36700 0.19800 0.97660 0.27700
O 	O 	0.39380 0.42280 0.30940 -0.58900
O 	O 	0.29560 0.95800 0.61150 -0.30200
O 	O 	0.63770 0.18570 0.99220 -0.55600
O 	O 	0.65030 0.86590 0.22640 -0.24500
O 	O 	0.39770 0.65830 0.70770 -0.35700
O 	O 	0.13170 0.67950 0.59790 -0.32900
O 	O 	0.39670 0.27020 0.91130 -0.53100
O 	O 	0.68250 0.14620 0.78590 -0.56500
O 	O 	0.22780 0.16620 0.00090 -0.16000
O 	O 	0.44730 0.47630 0.80550 -0.53700
O 	O 	0.33960 0.46270 0.51590 -0.55300
O 	O 	0.27050 0.15780 0.33960 -0.55800
O 	O 	0.89130 0.93200 0.70470 -0.30300
O 	O 	0.49710 0.07200 0.09140 -0.22400
O 	O 	0.11490 0.96430 0.79300 -0.19700
O 	O 	0.57950 0.12490 0.49580 -0.53300
O 	O 	0.30120 0.96110 0.24490 -0.18600
O 	O 	0.75780 0.46860 0.79420 -0.54700
O 	O 	0.72940 0.64230 0.06040 -0.20300
O 	O 	0.50540 0.56460 0.22150 -0.25300
O 	O 	0.27400 0.13750 0.51000 -0.56200
O 	O 	0.12540 0.42420 0.43410 -0.50000
O 	O 	0.62810 0.94100 0.59530 -0.30400
O 	O 	0.62650 0.34180 0.39000 -0.52100
O 	O 	0.78340 0.45280 0.30410 -0.16500
O 	O 	0.90300 0.18090 0.86700 -0.47500
O 	O 	0.72970 0.64470 0.69020 -0.33900
O 	O 	0.59460 0.06000 0.32980 -0.64000
O 	O 	0.90980 0.64560 0.50970 -0.25400
O 	O 	0.43290 0.55020 0.96970 -0.53700
O 	O 	0.75930 0.44440 0.95850 -0.46800
O 	O 	0.37660 0.73710 0.07820 -0.22700
