data_crystal

_cell_length_a 10.88300
_cell_length_b 10.92580
_cell_length_c 14.06580
_cell_angle_alpha 92.41700
_cell_angle_beta  90.09900
_cell_angle_gamma 101.72300

_symmetry_space_group_name_	'P 1'
_symmetry_space_group_name_H-M	'P 1'

loop_
_symmetry_equiv_pos_as_xyz
  x,y,z

loop_
_atom_site_label
_atom_site_type_symbol
_atom_site_fract_x
_atom_site_fract_y
_atom_site_fract_z
_atom_site_charge
Zn	Zn	0.26504 0.34438 0.89078 1.21800
Zn	Zn	0.26209 0.33156 0.68186 1.21800
H 	H 	0.66180 0.35680 0.93060 0.05500
H 	H 	0.87370 0.34920 0.92980 0.05300
H 	H 	0.65400 0.32650 0.64390 0.05300
H 	H 	0.25520 0.71740 0.64370 0.04500
H 	H 	0.26520 0.74440 0.92710 0.04400
H 	H 	0.25030 0.95300 0.92420 0.05800
H 	H 	0.23780 0.92740 0.63930 0.05700
H 	H 	0.86570 0.31950 0.64330 0.05100
H 	H 	0.08490 0.31950 0.52130 -0.01000
H 	H 	0.07910 0.31480 0.35860 0.08700
H 	H 	0.44790 0.36230 0.35950 0.09200
H 	H 	0.44340 0.35850 0.52260 -0.00800
H 	H 	0.07500 0.32420 0.21220 0.07200
H 	H 	0.45120 0.35330 0.21440 0.07500
H 	H 	0.08190 0.32390 0.04960 0.00800
H 	H 	0.44550 0.35120 0.05160 0.00800
C 	C 	0.49970 0.34950 0.78760 0.38500
C 	C 	0.63630 0.34290 0.78790 -0.07600
C 	C 	0.70260 0.34920 0.87250 -0.01500
C 	C 	0.82910 0.34460 0.87200 -0.01600
C 	C 	0.69850 0.33130 0.70180 -0.01500
C 	C 	0.27930 0.57740 0.78760 0.39300
C 	C 	0.26660 0.71160 0.78600 -0.09700
C 	C 	0.25560 0.76530 0.70080 -0.00400
C 	C 	0.26180 0.78150 0.86830 -0.00100
C 	C 	0.24240 0.09850 0.77820 0.37200
C 	C 	0.24510 0.96120 0.78200 -0.06500
C 	C 	0.25210 0.90630 0.86670 -0.02800
C 	C 	0.24490 0.89120 0.69790 -0.03100
C 	C 	0.02790 0.32830 0.78720 0.38800
C 	C 	0.88950 0.33310 0.78720 -0.07600
C 	C 	0.82430 0.32680 0.70130 -0.01600
C 	C 	0.16070 0.32590 0.48820 0.10600
C 	C 	0.15690 0.32460 0.39020 -0.15900
C 	C 	0.26340 0.33720 0.33880 0.09100
C 	C 	0.37030 0.35120 0.39060 -0.15900
C 	C 	0.36710 0.34930 0.48900 0.10600
C 	C 	0.26290 0.33760 0.23440 0.03700
C 	C 	0.15230 0.32980 0.18120 -0.10900
C 	C 	0.37400 0.34690 0.18250 -0.11100
C 	C 	0.15740 0.33050 0.08390 0.06800
C 	C 	0.36990 0.34660 0.08480 0.07700
N 	N 	0.26380 0.33530 0.53700 -0.26300
N 	N 	0.26510 0.34020 0.03480 -0.24800
O 	O 	0.44970 0.35720 0.86690 -0.46700
O 	O 	0.44680 0.34500 0.70790 -0.46700
O 	O 	0.28390 0.53170 0.86770 -0.45900
O 	O 	0.28580 0.52110 0.71060 -0.46900
O 	O 	0.24390 0.15720 0.85770 -0.45500
O 	O 	0.23960 0.14500 0.69880 -0.45300
O 	O 	0.08050 0.33120 0.86590 -0.47000
O 	O 	0.07870 0.32380 0.70740 -0.46700
Zn	Zn	0.73496 0.65562 0.10922 1.21700
Zn	Zn	0.73791 0.66844 0.31814 1.21700
H 	H 	0.33820 0.64320 0.06940 0.05400
H 	H 	0.12630 0.65080 0.07020 0.05200
H 	H 	0.34600 0.67350 0.35610 0.05200
H 	H 	0.74480 0.28260 0.35630 0.04400
H 	H 	0.73480 0.25560 0.07290 0.04400
H 	H 	0.74970 0.04700 0.07580 0.05800
H 	H 	0.76220 0.07260 0.36070 0.05700
H 	H 	0.13430 0.68050 0.35670 0.05100
H 	H 	0.91510 0.68050 0.47870 -0.01000
H 	H 	0.92090 0.68520 0.64140 0.08700
H 	H 	0.55210 0.63770 0.64050 0.09200
H 	H 	0.55660 0.64150 0.47740 -0.00800
H 	H 	0.92500 0.67580 0.78780 0.07200
H 	H 	0.54880 0.64670 0.78560 0.07500
H 	H 	0.91810 0.67610 0.95040 0.00800
H 	H 	0.55450 0.64880 0.94840 0.00800
C 	C 	0.50030 0.65050 0.21240 0.38500
C 	C 	0.36370 0.65710 0.21210 -0.07600
C 	C 	0.29740 0.65080 0.12750 -0.01500
C 	C 	0.17090 0.65540 0.12800 -0.01600
C 	C 	0.30150 0.66870 0.29820 -0.01500
C 	C 	0.72070 0.42260 0.21240 0.39300
C 	C 	0.73340 0.28840 0.21400 -0.09700
C 	C 	0.74440 0.23470 0.29920 -0.00400
C 	C 	0.73820 0.21850 0.13170 -0.00100
C 	C 	0.75760 0.90150 0.22180 0.37200
C 	C 	0.75490 0.03880 0.21800 -0.06500
C 	C 	0.74790 0.09370 0.13330 -0.02800
C 	C 	0.75510 0.10880 0.30210 -0.03100
C 	C 	0.97210 0.67170 0.21280 0.38800
C 	C 	0.11050 0.66690 0.21280 -0.07600
C 	C 	0.17570 0.67320 0.29870 -0.01600
C 	C 	0.83930 0.67410 0.51180 0.10600
C 	C 	0.84310 0.67540 0.60980 -0.15900
C 	C 	0.73660 0.66280 0.66120 0.09100
C 	C 	0.62970 0.64880 0.60940 -0.15900
C 	C 	0.63290 0.65070 0.51100 0.10600
C 	C 	0.73710 0.66240 0.76560 0.03700
C 	C 	0.84770 0.67020 0.81880 -0.10900
C 	C 	0.62600 0.65310 0.81750 -0.11100
C 	C 	0.84260 0.66950 0.91610 0.06800
C 	C 	0.63010 0.65340 0.91520 0.07700
N 	N 	0.73620 0.66470 0.46300 -0.26300
N 	N 	0.73490 0.65980 0.96520 -0.24800
O 	O 	0.55030 0.64280 0.13310 -0.46700
O 	O 	0.55320 0.65500 0.29210 -0.46700
O 	O 	0.71610 0.46830 0.13230 -0.45900
O 	O 	0.71420 0.47890 0.28940 -0.46900
O 	O 	0.75610 0.84280 0.14230 -0.45500
O 	O 	0.76040 0.85500 0.30120 -0.45300
O 	O 	0.91950 0.66880 0.13410 -0.47000
O 	O 	0.92130 0.67620 0.29260 -0.46700
