data_crystal

_cell_length_a 9.15710
_cell_length_b 10.45710
_cell_length_c 10.45710
_cell_angle_alpha 95.89930
_cell_angle_beta  100.30500
_cell_angle_gamma 79.69510

_symmetry_space_group_name_	'P 1'
_symmetry_space_group_name_H-M	'P 1'

loop_
_symmetry_equiv_pos_as_xyz
  x,y,z

loop_
_atom_site_label
_atom_site_type_symbol
_atom_site_fract_x
_atom_site_fract_y
_atom_site_fract_z
_atom_site_charge
Zn	Zn	0.75000 0.02443 0.02443 1.23800
Zn	Zn	0.25000 0.97557 0.97557 1.23800
P 	P 	0.99153 0.20632 0.05526 0.46100
P 	P 	0.50847 0.05526 0.20632 0.47000
P 	P 	0.00847 0.79368 0.94474 0.46100
P 	P 	0.49153 0.94474 0.79368 0.47000
H 	H 	0.01320 0.23490 0.24750 0.27400
H 	H 	0.72640 0.34590 0.96250 0.28300
H 	H 	0.21440 0.36310 0.08630 0.11400
H 	H 	0.48680 0.24750 0.23490 0.27300
H 	H 	0.77360 0.96250 0.34590 0.28400
H 	H 	0.28560 0.08630 0.36310 0.11500
H 	H 	0.98680 0.76510 0.75250 0.27400
H 	H 	0.27360 0.65410 0.03750 0.28300
H 	H 	0.78560 0.63690 0.91370 0.11400
H 	H 	0.51320 0.75250 0.76510 0.27300
H 	H 	0.22640 0.03750 0.65410 0.28400
H 	H 	0.71440 0.91370 0.63690 0.11500
C 	C 	0.86100 0.45668 0.97332 0.23600
C 	C 	0.99010 0.37309 0.02575 -0.11200
C 	C 	0.12820 0.41820 0.05160 -0.11300
C 	C 	0.63900 0.97332 0.45668 0.23600
C 	C 	0.50990 0.02575 0.37309 -0.11000
C 	C 	0.37180 0.05160 0.41820 -0.11600
C 	C 	0.13900 0.54332 0.02668 0.23600
C 	C 	0.00990 0.62691 0.97425 -0.11200
C 	C 	0.87180 0.58180 0.94840 -0.11300
C 	C 	0.36100 0.02668 0.54332 0.23600
C 	C 	0.49010 0.97425 0.62691 -0.11000
C 	C 	0.62820 0.94840 0.58180 -0.11600
O 	O 	0.06210 0.18481 0.19931 -0.46600
O 	O 	0.82700 0.18768 0.02698 -0.45400
O 	O 	0.08930 0.12064 0.96892 -0.42700
O 	O 	0.72100 0.42088 0.94338 -0.41400
O 	O 	0.43790 0.19931 0.18481 -0.47000
O 	O 	0.67300 0.02698 0.18768 -0.45600
O 	O 	0.41070 0.96892 0.12064 -0.43300
O 	O 	0.77900 0.94338 0.42088 -0.41300
O 	O 	0.93790 0.81519 0.80069 -0.46600
O 	O 	0.17300 0.81232 0.97302 -0.45400
O 	O 	0.91070 0.87936 0.03108 -0.42700
O 	O 	0.27900 0.57912 0.05662 -0.41400
O 	O 	0.56210 0.80069 0.81519 -0.47000
O 	O 	0.32700 0.97302 0.81232 -0.45600
O 	O 	0.58930 0.03108 0.87936 -0.43300
O 	O 	0.22100 0.05662 0.57912 -0.41300
