data_crystal

_cell_length_a 6.94570
_cell_length_b 19.23070
_cell_length_c 19.66810
_cell_angle_alpha 71.65490
_cell_angle_beta  79.82980
_cell_angle_gamma 79.59600

_symmetry_space_group_name_	'P 1'
_symmetry_space_group_name_H-M	'P 1'

loop_
_symmetry_equiv_pos_as_xyz
  x,y,z

loop_
_atom_site_label
_atom_site_type_symbol
_atom_site_fract_x
_atom_site_fract_y
_atom_site_fract_z
_atom_site_charge
Er	Er	0.83728 0.61991 0.76589 1.36300
Er	Er	0.76823 0.38235 0.61059 1.49000
Er	Er	0.22308 0.88009 0.73411 1.36500
Er	Er	0.76117 0.11765 0.88941 1.48800
Er	Er	0.16272 0.38009 0.23411 1.36300
Er	Er	0.23177 0.61765 0.38941 1.49000
Er	Er	0.77692 0.11991 0.26589 1.36500
Er	Er	0.23883 0.88235 0.11059 1.48800
Cu	Cu	0.75010 0.48981 0.00235 0.87300
Cu	Cu	0.24226 0.01019 0.49765 0.87300
Cu	Cu	0.24990 0.51019 0.99765 0.87300
Cu	Cu	0.75774 0.98981 0.50235 0.87300
H 	H 	0.89010 0.73210 0.98050 0.03100
H 	H 	0.68240 0.34050 0.85510 0.01400
H 	H 	0.60270 0.76790 0.51950 0.03100
H 	H 	0.87800 0.15950 0.64490 0.01600
H 	H 	0.10990 0.26790 0.01950 0.03100
H 	H 	0.31760 0.65950 0.14490 0.01400
H 	H 	0.39730 0.23210 0.48050 0.03100
H 	H 	0.12200 0.84050 0.35510 0.01600
C 	C 	0.78170 0.58410 0.07930 0.28900
C 	C 	0.82420 0.62420 0.00260 -0.06700
C 	C 	0.87310 0.69380 0.96360 0.01200
C 	C 	0.89100 0.69140 0.89300 -0.05400
C 	C 	0.94850 0.74710 0.82150 0.37700
C 	C 	0.67530 0.35340 0.00560 0.29900
C 	C 	0.70910 0.39420 0.92940 -0.07500
C 	C 	0.70740 0.38280 0.86340 0.05200
C 	C 	0.74930 0.44850 0.81330 -0.08400
C 	C 	0.76100 0.47540 0.73420 0.41400
C 	C 	0.08430 0.48670 0.52290 0.24800
C 	C 	0.44510 0.91590 0.42070 0.28900
C 	C 	0.45100 0.87580 0.49740 -0.06900
C 	C 	0.53050 0.80620 0.53640 0.01400
C 	C 	0.47540 0.80860 0.60700 -0.05500
C 	C 	0.51710 0.75290 0.67850 0.38100
C 	C 	0.03430 0.14660 0.49440 0.29600
C 	C 	0.03270 0.10580 0.57060 -0.07000
C 	C 	0.95360 0.11720 0.63660 0.04500
C 	C 	0.01110 0.05150 0.68670 -0.07600
C 	C 	0.97060 0.02460 0.76580 0.40700
C 	C 	0.09390 0.01330 0.97710 0.24800
C 	C 	0.21830 0.41590 0.92070 0.28900
C 	C 	0.17580 0.37580 0.99740 -0.06700
C 	C 	0.12690 0.30620 0.03640 0.01200
C 	C 	0.10900 0.30860 0.10700 -0.05400
C 	C 	0.05150 0.25290 0.17850 0.37700
C 	C 	0.32470 0.64660 0.99440 0.29900
C 	C 	0.29090 0.60580 0.07060 -0.07500
C 	C 	0.29260 0.61720 0.13660 0.05200
C 	C 	0.25070 0.55150 0.18670 -0.08400
C 	C 	0.23900 0.52460 0.26580 0.41400
C 	C 	0.91570 0.51330 0.47710 0.24800
C 	C 	0.55490 0.08410 0.57930 0.28900
C 	C 	0.54900 0.12420 0.50260 -0.06900
C 	C 	0.46950 0.19380 0.46360 0.01400
C 	C 	0.52460 0.19140 0.39300 -0.05500
C 	C 	0.48290 0.24710 0.32150 0.38100
C 	C 	0.96570 0.85340 0.50560 0.29600
C 	C 	0.96730 0.89420 0.42940 -0.07000
C 	C 	0.04640 0.88280 0.36340 0.04500
C 	C 	0.98890 0.94850 0.31330 -0.07600
C 	C 	0.02940 0.97540 0.23420 0.40700
C 	C 	0.90610 0.98670 0.02290 0.24800
C 	C 	0.89200 0.25000 0.75000 0.22200
C 	C 	0.66800 0.25000 0.75000 0.31300
C 	C 	0.10800 0.75000 0.25000 0.22200
C 	C 	0.33200 0.75000 0.25000 0.31300
N 	N 	0.82050 0.58550 0.95690 -0.20400
N 	N 	0.85950 0.62700 0.88860 -0.16900
N 	N 	0.75310 0.46280 0.91680 -0.18900
N 	N 	0.77830 0.49670 0.84630 -0.16500
N 	N 	0.36290 0.91450 0.54310 -0.20300
N 	N 	0.37510 0.87300 0.61140 -0.16900
N 	N 	0.13270 0.03720 0.58320 -0.18900
N 	N 	0.12130 0.00330 0.65370 -0.16600
N 	N 	0.17950 0.41450 0.04310 -0.20400
N 	N 	0.14050 0.37300 0.11140 -0.16900
N 	N 	0.24690 0.53720 0.08320 -0.18900
N 	N 	0.22170 0.50330 0.15370 -0.16500
N 	N 	0.63710 0.08550 0.45690 -0.20300
N 	N 	0.62490 0.12700 0.38860 -0.16900
N 	N 	0.86730 0.96280 0.41680 -0.18900
N 	N 	0.87870 0.99670 0.34630 -0.16600
O 	O 	0.74960 0.51740 0.09040 -0.40700
O 	O 	0.77940 0.61190 0.12730 -0.25100
O 	O 	0.91370 0.73140 0.76760 -0.46200
O 	O 	0.02440 0.80070 0.82150 -0.42900
O 	O 	0.67040 0.39220 0.04940 -0.40500
O 	O 	0.65170 0.28790 0.02710 -0.27600
O 	O 	0.78600 0.54230 0.70490 -0.45800
O 	O 	0.74150 0.43160 0.70060 -0.46000
O 	O 	0.97290 0.29790 0.69890 -0.33800
O 	O 	0.59840 0.29220 0.69540 -0.41700
O 	O 	0.06050 0.43550 0.57950 -0.39600
O 	O 	0.23320 0.52030 0.49890 -0.42500
O 	O 	0.35740 0.98260 0.40960 -0.40800
O 	O 	0.51860 0.88810 0.37270 -0.25100
O 	O 	0.41270 0.76860 0.73240 -0.46200
O 	O 	0.64660 0.69930 0.67850 -0.43100
O 	O 	0.11200 0.10780 0.45060 -0.40500
O 	O 	0.96670 0.21210 0.47290 -0.27500
O 	O 	0.03320 0.95770 0.79510 -0.45400
O 	O 	0.87370 0.06840 0.79940 -0.45900
O 	O 	0.96970 0.20210 0.80110 -0.33900
O 	O 	0.58600 0.20780 0.80460 -0.41700
O 	O 	0.07550 0.06450 0.92050 -0.39600
O 	O 	0.25240 0.97970 0.00110 -0.42500
O 	O 	0.25040 0.48260 0.90960 -0.40700
O 	O 	0.22060 0.38810 0.87270 -0.25100
O 	O 	0.08630 0.26860 0.23240 -0.46200
O 	O 	0.97560 0.19930 0.17850 -0.42900
O 	O 	0.32960 0.60780 0.95060 -0.40500
O 	O 	0.34830 0.71210 0.97290 -0.27600
O 	O 	0.21400 0.45770 0.29510 -0.45800
O 	O 	0.25850 0.56840 0.29940 -0.46000
O 	O 	0.02710 0.70210 0.30110 -0.33800
O 	O 	0.40160 0.70780 0.30460 -0.41700
O 	O 	0.93950 0.56450 0.42050 -0.39600
O 	O 	0.76680 0.47970 0.50110 -0.42500
O 	O 	0.64260 0.01740 0.59040 -0.40800
O 	O 	0.48140 0.11190 0.62730 -0.25100
O 	O 	0.58730 0.23140 0.26760 -0.46200
O 	O 	0.35340 0.30070 0.32150 -0.43100
O 	O 	0.88800 0.89220 0.54940 -0.40500
O 	O 	0.03330 0.78790 0.52710 -0.27500
O 	O 	0.96680 0.04230 0.20490 -0.45400
O 	O 	0.12630 0.93160 0.20060 -0.45900
O 	O 	0.03030 0.79790 0.19890 -0.33900
O 	O 	0.41400 0.79220 0.19540 -0.41700
O 	O 	0.92450 0.93550 0.07950 -0.39600
O 	O 	0.74760 0.02030 0.99890 -0.42500
