data_crystal

_cell_length_a 10.70310
_cell_length_b 23.08050
_cell_length_c 7.23430
_cell_angle_alpha 90.00000
_cell_angle_beta  90.00000
_cell_angle_gamma 90.00000

_symmetry_space_group_name_	'P 1'
_symmetry_space_group_name_H-M	'P 1'

loop_
_symmetry_equiv_pos_as_xyz
  x,y,z

loop_
_atom_site_label
_atom_site_type_symbol
_atom_site_fract_x
_atom_site_fract_y
_atom_site_fract_z
_atom_site_charge
Sb	Sb	0.27440 0.25860 0.79884 0.55000
O 	O 	0.33580 0.35930 0.91680 -0.31000
O 	O 	0.46340 0.43182 0.84360 -0.50600
O 	O 	0.09170 0.27814 0.70540 -0.30400
O 	O 	0.96680 0.34121 0.56740 -0.18900
O 	O 	0.46910 0.23955 0.71750 -0.30500
O 	O 	0.59500 0.17154 0.60360 -0.27100
O 	O 	0.18040 0.16422 0.86150 -0.32600
O 	O 	0.57160 0.40784 0.23750 -0.50500
O 	O 	0.31020 0.43886 0.20780 -0.16000
O 	O 	0.31480 0.47030 0.28900 -0.25900
N 	N 	0.30570 0.32507 0.56310 -0.03800
N 	N 	0.26550 0.20215 0.53580 -0.04400
C 	C 	0.40700 0.36664 0.60750 -0.34000
H 	H 	0.40180 0.39950 0.52420 0.15400
H 	H 	0.48720 0.34800 0.58800 0.16100
C 	C 	0.39970 0.38810 0.80540 0.43500
C 	C 	0.18460 0.35700 0.53870 -0.25800
H 	H 	0.17380 0.36590 0.40870 0.13700
H 	H 	0.18940 0.39340 0.60520 0.11800
C 	C 	0.07180 0.32414 0.60520 0.26700
C 	C 	0.34120 0.29279 0.39200 -0.09500
H 	H 	0.42830 0.28140 0.39960 0.08800
H 	H 	0.33150 0.31790 0.28550 0.08700
C 	C 	0.26100 0.23946 0.36740 -0.06800
H 	H 	0.17530 0.25100 0.34380 0.06900
H 	H 	0.29030 0.21760 0.26150 0.06600
C 	C 	0.37890 0.16447 0.53660 -0.28500
H 	H 	0.39930 0.15380 0.41040 0.13200
H 	H 	0.36050 0.12910 0.60390 0.11600
C 	C 	0.49100 0.19369 0.62370 0.37400
C 	C 	0.15280 0.16439 0.53730 -0.32600
H 	H 	0.16220 0.13410 0.44540 0.10100
H 	H 	0.07980 0.18720 0.50530 0.12700
C 	C 	0.63430 0.36271 0.22570 0.44900
Sb	Sb	0.72560 0.74140 0.79884 0.56800
O 	O 	0.66420 0.64070 0.91680 -0.31000
O 	O 	0.53660 0.56818 0.84360 -0.50700
O 	O 	0.90830 0.72186 0.70540 -0.30400
O 	O 	0.03320 0.65879 0.56740 -0.36100
O 	O 	0.53090 0.76045 0.71750 -0.31000
O 	O 	0.40500 0.82846 0.60360 -0.26500
O 	O 	0.81960 0.83578 0.86150 -0.28200
O 	O 	0.42840 0.59216 0.23750 -0.50700
O 	O 	0.68980 0.56114 0.20780 -0.15400
O 	O 	0.68520 0.52970 0.28900 -0.24700
N 	N 	0.69430 0.67493 0.56310 -0.02800
N 	N 	0.73450 0.79785 0.53580 -0.03300
C 	C 	0.59300 0.63336 0.60750 -0.34400
H 	H 	0.59820 0.60050 0.52420 0.15600
H 	H 	0.51280 0.65200 0.58800 0.16200
C 	C 	0.60030 0.61190 0.80540 0.43800
C 	C 	0.81540 0.64300 0.53870 -0.37200
H 	H 	0.82620 0.63410 0.40870 0.19100
H 	H 	0.81060 0.60660 0.60520 0.17200
C 	C 	0.92820 0.67586 0.60520 0.49300
C 	C 	0.65880 0.70721 0.39200 -0.08400
H 	H 	0.57170 0.71860 0.39960 0.08400
H 	H 	0.66850 0.68210 0.28550 0.08300
C 	C 	0.73900 0.76054 0.36740 -0.09400
H 	H 	0.82470 0.74900 0.34380 0.10000
H 	H 	0.70970 0.78240 0.26150 0.08400
C 	C 	0.62110 0.83553 0.53660 -0.30600
H 	H 	0.60070 0.84620 0.41040 0.15300
H 	H 	0.63950 0.87090 0.60390 0.14500
C 	C 	0.50900 0.80631 0.62370 0.38500
C 	C 	0.84720 0.83561 0.53730 -0.35600
H 	H 	0.83780 0.86590 0.44540 0.15200
H 	H 	0.92020 0.81280 0.50530 0.18400
C 	C 	0.36570 0.63729 0.22570 0.44600
Sb	Sb	0.77440 0.24140 0.29884 0.56500
O 	O 	0.83580 0.14070 0.41680 -0.30700
O 	O 	0.96340 0.06818 0.34360 -0.49000
O 	O 	0.59170 0.22186 0.20540 -0.30700
O 	O 	0.46680 0.15879 0.06740 -0.28900
O 	O 	0.96910 0.26045 0.21750 -0.31000
O 	O 	0.09500 0.32846 0.10360 -0.35400
O 	O 	0.68040 0.33578 0.36150 -0.30700
O 	O 	0.07160 0.09216 0.73750 -0.55200
O 	O 	0.81020 0.06114 0.70780 -0.14400
O 	O 	0.81480 0.02970 0.78900 -0.27100
N 	N 	0.80570 0.17493 0.06310 -0.03100
N 	N 	0.76550 0.29785 0.03580 -0.03200
C 	C 	0.90700 0.13336 0.10750 -0.35600
H 	H 	0.90180 0.10050 0.02420 0.16500
H 	H 	0.98720 0.15200 0.08800 0.18700
C 	C 	0.89970 0.11190 0.30540 0.44600
C 	C 	0.68460 0.14300 0.03870 -0.32200
H 	H 	0.67380 0.13410 0.90870 0.16600
H 	H 	0.68940 0.10660 0.10520 0.13800
C 	C 	0.57180 0.17586 0.10520 0.38200
C 	C 	0.84120 0.20721 0.89200 -0.10200
H 	H 	0.92830 0.21860 0.89960 0.10900
H 	H 	0.83150 0.18210 0.78550 0.09900
C 	C 	0.76100 0.26054 0.86740 -0.06900
H 	H 	0.67530 0.24900 0.84380 0.08300
H 	H 	0.79030 0.28240 0.76150 0.07600
C 	C 	0.87890 0.33553 0.03660 -0.37100
H 	H 	0.89930 0.34620 0.91040 0.18500
H 	H 	0.86050 0.37090 0.10390 0.16000
C 	C 	0.99100 0.30631 0.12370 0.49500
C 	C 	0.65280 0.33561 0.03730 -0.36300
H 	H 	0.66220 0.36590 0.94540 0.14000
H 	H 	0.57980 0.31280 0.00530 0.16000
C 	C 	0.13430 0.13729 0.72570 0.43100
Sb	Sb	0.22560 0.75860 0.29884 0.54700
O 	O 	0.16420 0.85930 0.41680 -0.31600
O 	O 	0.03660 0.93182 0.34360 -0.50700
O 	O 	0.40830 0.77814 0.20540 -0.30500
O 	O 	0.53320 0.84121 0.06740 -0.27000
O 	O 	0.03090 0.73955 0.21750 -0.31100
O 	O 	0.90500 0.67154 0.10360 -0.19400
O 	O 	0.31960 0.66422 0.36150 -0.30800
O 	O 	0.92840 0.90784 0.73750 -0.43600
O 	O 	0.18980 0.93886 0.70780 -0.15800
O 	O 	0.18520 0.97030 0.78900 -0.21800
N 	N 	0.19430 0.82507 0.06310 -0.03800
N 	N 	0.23450 0.70215 0.03580 -0.04300
C 	C 	0.09300 0.86664 0.10750 -0.32600
H 	H 	0.09820 0.89950 0.02420 0.14400
H 	H 	0.01280 0.84800 0.08800 0.13400
C 	C 	0.10030 0.88810 0.30540 0.42400
C 	C 	0.31540 0.85700 0.03870 -0.33000
H 	H 	0.32620 0.86590 0.90870 0.17600
H 	H 	0.31060 0.89340 0.10520 0.15800
C 	C 	0.42820 0.82414 0.10520 0.38500
C 	C 	0.15880 0.79279 0.89200 -0.07300
H 	H 	0.07170 0.78140 0.89960 0.06600
H 	H 	0.16850 0.81790 0.78550 0.07400
C 	C 	0.23900 0.73946 0.86740 -0.08500
H 	H 	0.32470 0.75100 0.84380 0.08800
H 	H 	0.20970 0.71760 0.76150 0.07400
C 	C 	0.12110 0.66447 0.03660 -0.25500
H 	H 	0.10070 0.65380 0.91040 0.12000
H 	H 	0.13950 0.62910 0.10390 0.10700
C 	C 	0.00900 0.69369 0.12370 0.27500
C 	C 	0.34720 0.66439 0.03730 -0.35600
H 	H 	0.33780 0.63410 0.94540 0.13400
H 	H 	0.42020 0.68720 0.00530 0.15800
C 	C 	0.86570 0.86271 0.72570 0.45000
Pr	Pr	0.50000 0.50000 0.10300 2.04800
Pr	Pr	0.00000 0.00000 0.60300 1.98300
