data_crystal

_cell_length_a 12.40350
_cell_length_b 14.70040
_cell_length_c 12.69160
_cell_angle_alpha 90.00000
_cell_angle_beta  114.47500
_cell_angle_gamma 90.00000

_symmetry_space_group_name_	'P 1'
_symmetry_space_group_name_H-M	'P 1'

loop_
_symmetry_equiv_pos_as_xyz
  x,y,z

loop_
_atom_site_label
_atom_site_type_symbol
_atom_site_fract_x
_atom_site_fract_y
_atom_site_fract_z
_atom_site_charge
Mn	Mn	0.74606 0.63966 0.50020 1.26200
O 	O 	0.69176 0.67483 0.63304 -0.49500
O 	O 	0.56148 0.59023 0.38927 -0.41200
O 	O 	0.31393 0.86895 0.87099 -0.39600
O 	O 	0.70806 0.99725 0.97387 -0.38800
C 	C 	0.59671 0.67199 0.64544 0.41000
N 	N 	0.54338 0.56492 0.28119 -0.05300
C 	C 	0.57361 0.74643 0.71453 -0.14300
O 	O 	0.51718 0.61235 0.60548 -0.46400
O 	O 	0.82309 0.94899 0.88794 -0.39300
C 	C 	0.46764 0.61232 0.19036 -0.00300
C 	C 	0.60286 0.49352 0.26615 -0.01500
C 	C 	0.46658 0.74694 0.72578 0.06600
C 	C 	0.65782 0.81307 0.76929 0.07400
H 	H 	0.42730 0.66170 0.20240 0.00700
C 	C 	0.44930 0.58817 0.07945 -0.04200
C 	C 	0.58713 0.46720 0.15657 -0.02700
H 	H 	0.65510 0.46150 0.33020 0.05700
H 	H 	0.41060 0.70210 0.68940 0.03700
C 	C 	0.44230 0.81357 0.79073 -0.11100
C 	C 	0.63549 0.87936 0.83659 -0.11600
H 	H 	0.72900 0.81350 0.76110 0.02400
H 	H 	0.39660 0.62140 0.01710 0.00500
C 	C 	0.50937 0.51402 0.05965 -0.06400
H 	H 	0.62890 0.41760 0.14730 0.03700
C 	C 	0.52709 0.88014 0.84544 0.05500
C 	C 	0.32911 0.80942 0.80759 0.33800
C 	C 	0.72995 0.94735 0.90375 0.36500
H 	H 	0.51130 0.92550 0.88820 0.05200
O 	O 	0.25912 0.74463 0.76013 -0.28600
H 	H 	0.52000 0.64500 0.37700 0.01900
H 	H 	0.50380 0.64500 0.37700 0.35000
H 	H 	0.53380 0.64500 0.37700 -0.27100
Mn	Mn	0.75394 0.13966 0.99980 1.26400
O 	O 	0.80824 0.17483 0.86696 -0.49900
O 	O 	0.93852 0.09023 0.11073 -0.43100
O 	O 	0.18607 0.36895 0.62901 -0.44500
O 	O 	0.79194 0.49725 0.52613 -0.43900
C 	C 	0.90329 0.17199 0.85456 0.39500
N 	N 	0.95662 0.06492 0.21881 -0.05800
C 	C 	0.92639 0.24643 0.78547 -0.10100
O 	O 	0.98282 0.11235 0.89452 -0.43000
O 	O 	0.67691 0.44899 0.61206 -0.44200
C 	C 	0.03236 0.11232 0.30964 -0.02500
C 	C 	0.89714 0.99352 0.23385 0.05600
C 	C 	0.03342 0.24694 0.77422 0.02200
C 	C 	0.84218 0.31307 0.73071 0.07100
H 	H 	0.07270 0.16170 0.29760 0.00100
C 	C 	0.05070 0.08817 0.42055 -0.12200
C 	C 	0.91287 0.96720 0.34343 -0.02300
H 	H 	0.84490 0.96150 0.16980 0.03500
H 	H 	0.08940 0.20210 0.81060 0.04700
C 	C 	0.05770 0.31357 0.70927 -0.16300
C 	C 	0.86451 0.37936 0.66341 -0.14400
H 	H 	0.77100 0.31350 0.73890 0.01800
H 	H 	0.10340 0.12140 0.48290 0.04100
C 	C 	0.99063 0.01402 0.44035 0.00800
H 	H 	0.87110 0.91760 0.35270 0.05500
C 	C 	0.97291 0.38014 0.65456 0.12000
C 	C 	0.17089 0.30942 0.69241 0.35000
C 	C 	0.77005 0.44735 0.59625 0.37800
H 	H 	0.98870 0.42550 0.61180 0.02500
O 	O 	0.24088 0.24463 0.73987 -0.29200
H 	H 	0.98000 0.14500 0.12300 0.02500
H 	H 	0.99620 0.14500 0.12300 0.33300
H 	H 	0.96620 0.14500 0.12300 -0.24900
Mn	Mn	0.25394 0.36034 0.49980 1.25400
O 	O 	0.30824 0.32517 0.36696 -0.51400
O 	O 	0.43852 0.40977 0.61073 -0.40900
O 	O 	0.68607 0.13105 0.12901 -0.46600
O 	O 	0.29194 0.00275 0.02613 -0.49200
C 	C 	0.40329 0.32801 0.35456 0.41300
N 	N 	0.45662 0.43508 0.71881 -0.07800
C 	C 	0.42639 0.25357 0.28547 -0.17100
O 	O 	0.48282 0.38765 0.39452 -0.46900
O 	O 	0.17691 0.05101 0.11206 -0.47900
C 	C 	0.53236 0.38768 0.80964 0.07100
C 	C 	0.39714 0.50648 0.73385 0.05400
C 	C 	0.53342 0.25306 0.27422 0.08200
C 	C 	0.34218 0.18693 0.23071 0.09000
H 	H 	0.57270 0.33830 0.79760 -0.01400
C 	C 	0.55070 0.41183 0.92055 -0.15400
C 	C 	0.41287 0.53280 0.84343 -0.14100
H 	H 	0.34490 0.53850 0.66980 0.03200
H 	H 	0.58940 0.29790 0.31060 0.02800
C 	C 	0.55770 0.18643 0.20927 -0.15100
C 	C 	0.36451 0.12064 0.16341 -0.16800
H 	H 	0.27100 0.18650 0.23890 -0.00100
H 	H 	0.60340 0.37860 0.98290 0.08500
C 	C 	0.49063 0.48598 0.94035 0.14200
H 	H 	0.37110 0.58240 0.85270 0.10000
C 	C 	0.47291 0.11986 0.15456 0.07800
C 	C 	0.67089 0.19058 0.19241 0.34800
C 	C 	0.27005 0.05265 0.09625 0.38000
H 	H 	0.48870 0.07450 0.11180 0.00500
O 	O 	0.74088 0.25537 0.23987 -0.29300
H 	H 	0.48000 0.35500 0.62300 0.01800
H 	H 	0.49620 0.35500 0.62300 0.34400
H 	H 	0.46620 0.35500 0.62300 -0.26700
Mn	Mn	0.24606 0.86034 0.00020 1.24700
O 	O 	0.19176 0.82517 0.13304 -0.51000
O 	O 	0.06148 0.90977 0.88927 -0.37300
O 	O 	0.81393 0.63105 0.37099 -0.42400
O 	O 	0.20806 0.50275 0.47387 -0.44800
C 	C 	0.09671 0.82801 0.14544 0.42400
N 	N 	0.04338 0.93508 0.78119 -0.05900
C 	C 	0.07361 0.75357 0.21453 -0.21500
O 	O 	0.01718 0.88765 0.10548 -0.48800
O 	O 	0.32309 0.55101 0.38794 -0.44700
C 	C 	0.96764 0.88768 0.69036 0.08300
C 	C 	0.10286 0.00648 0.76615 -0.02600
C 	C 	0.96658 0.75306 0.22578 0.12900
C 	C 	0.15782 0.68693 0.26929 0.09400
H 	H 	0.92730 0.83830 0.70240 -0.00600
C 	C 	0.94930 0.91183 0.57945 -0.08700
C 	C 	0.08713 0.03280 0.65657 -0.15800
H 	H 	0.15510 0.03850 0.83020 0.05500
H 	H 	0.91060 0.79790 0.18940 0.01800
C 	C 	0.94230 0.68643 0.29073 -0.10100
C 	C 	0.13549 0.62064 0.33659 -0.14300
H 	H 	0.22900 0.68650 0.26110 0.00400
H 	H 	0.89660 0.87860 0.51710 0.05200
C 	C 	0.00937 0.98598 0.55965 0.08600
H 	H 	0.12890 0.08240 0.64730 0.08200
C 	C 	0.02709 0.61986 0.34544 0.01300
C 	C 	0.82911 0.69058 0.30759 0.33700
C 	C 	0.22995 0.55265 0.40375 0.37100
H 	H 	0.01130 0.57450 0.38820 0.02900
O 	O 	0.75912 0.75537 0.26013 -0.29000
H 	H 	0.02000 0.85500 0.87700 0.01700
H 	H 	0.00380 0.85500 0.87700 0.32700
H 	H 	0.03380 0.85500 0.87700 -0.25400
Mn	Mn	0.50000 0.50000 0.50000 1.30000
Mn	Mn	-0.00000 0.00000 -0.00000 1.24400
