data_crystal

_cell_length_a 15.95310
_cell_length_b 15.95310
_cell_length_c 21.63980
_cell_angle_alpha 68.37030
_cell_angle_beta  68.37030
_cell_angle_gamma 60.00000

_symmetry_space_group_name_	'P 1'
_symmetry_space_group_name_H-M	'P 1'

loop_
_symmetry_equiv_pos_as_xyz
  x,y,z

loop_
_atom_site_label
_atom_site_type_symbol
_atom_site_fract_x
_atom_site_fract_y
_atom_site_fract_z
_atom_site_charge
Zn	Zn	0.63568 0.45020 0.71920 1.21300
Zn	Zn	0.45020 0.19492 0.71920 1.21200
Zn	Zn	0.19492 0.63568 0.71920 1.21200
Zn	Zn	0.86432 0.30508 0.78080 1.21300
Zn	Zn	0.04980 0.86432 0.78080 1.21200
Zn	Zn	0.30508 0.04980 0.78080 1.21200
Zn	Zn	0.36432 0.54980 0.28080 1.21300
Zn	Zn	0.54980 0.80508 0.28080 1.21200
Zn	Zn	0.80508 0.36432 0.28080 1.21300
Zn	Zn	0.13568 0.69492 0.21920 1.21400
Zn	Zn	0.95020 0.13568 0.21920 1.21300
Zn	Zn	0.69492 0.95020 0.21920 1.21300
H 	H 	0.76680 0.49480 0.71260 0.27100
H 	H 	0.82350 0.71240 0.53380 0.04900
H 	H 	0.80910 0.80650 0.41530 0.03400
H 	H 	0.54100 0.54350 0.59080 0.04800
H 	H 	0.61100 0.42850 0.59050 0.04900
H 	H 	0.41640 0.59010 0.69340 0.02200
H 	H 	0.40190 0.50640 0.76030 0.02400
H 	H 	0.49480 0.02580 0.71260 0.27100
H 	H 	0.71240 0.93030 0.53380 0.04800
H 	H 	0.80650 0.96910 0.41530 0.03500
H 	H 	0.54350 0.32470 0.59080 0.04800
H 	H 	0.42850 0.37000 0.59050 0.04900
H 	H 	0.59010 0.30010 0.69340 0.02200
H 	H 	0.50640 0.33140 0.76030 0.02400
H 	H 	0.02580 0.76680 0.71260 0.27100
H 	H 	0.93030 0.82350 0.53380 0.04800
H 	H 	0.96910 0.80910 0.41530 0.03500
H 	H 	0.32470 0.54100 0.59080 0.04800
H 	H 	0.37000 0.61100 0.59050 0.04900
H 	H 	0.30010 0.41640 0.69340 0.02200
H 	H 	0.33140 0.40190 0.76030 0.02400
H 	H 	0.73320 0.47420 0.78740 0.27100
H 	H 	0.67650 0.56970 0.96620 0.04800
H 	H 	0.69090 0.53090 0.08470 0.03400
H 	H 	0.95900 0.17530 0.90920 0.04800
H 	H 	0.88900 0.13000 0.90950 0.04800
H 	H 	0.08360 0.19990 0.80660 0.02200
H 	H 	0.09810 0.16860 0.73970 0.02400
H 	H 	0.00520 0.73320 0.78740 0.27000
H 	H 	0.78760 0.67650 0.96620 0.04800
H 	H 	0.69350 0.69090 0.08470 0.03500
H 	H 	0.95650 0.95900 0.90920 0.05200
H 	H 	0.07150 0.88900 0.90950 0.05000
H 	H 	0.90990 0.08360 0.80660 0.02200
H 	H 	0.99360 0.09810 0.73970 0.02400
H 	H 	0.47420 0.00520 0.78740 0.27000
H 	H 	0.56970 0.78760 0.96620 0.04800
H 	H 	0.53090 0.69350 0.08470 0.03400
H 	H 	0.17530 0.95650 0.90920 0.04900
H 	H 	0.13000 0.07150 0.90950 0.04900
H 	H 	0.19990 0.90990 0.80660 0.02200
H 	H 	0.16860 0.99360 0.73970 0.02400
H 	H 	0.23320 0.50520 0.28740 0.27100
H 	H 	0.17650 0.28760 0.46620 0.04900
H 	H 	0.19090 0.19350 0.58470 0.03400
H 	H 	0.45900 0.45650 0.40920 0.04800
H 	H 	0.38900 0.57150 0.40950 0.04900
H 	H 	0.58360 0.40990 0.30660 0.02200
H 	H 	0.59810 0.49360 0.23970 0.02400
H 	H 	0.50520 0.97420 0.28740 0.27100
H 	H 	0.28760 0.06970 0.46620 0.04800
H 	H 	0.19350 0.03090 0.58470 0.03500
H 	H 	0.45650 0.67530 0.40920 0.04800
H 	H 	0.57150 0.63000 0.40950 0.04900
H 	H 	0.40990 0.69990 0.30660 0.02200
H 	H 	0.49360 0.66860 0.23970 0.02400
H 	H 	0.97420 0.23320 0.28740 0.27100
H 	H 	0.06970 0.17650 0.46620 0.04800
H 	H 	0.03090 0.19090 0.58470 0.03500
H 	H 	0.67530 0.45900 0.40920 0.04800
H 	H 	0.63000 0.38900 0.40950 0.04900
H 	H 	0.69990 0.58360 0.30660 0.02200
H 	H 	0.66860 0.59810 0.23970 0.02400
H 	H 	0.26680 0.52580 0.21260 0.27100
H 	H 	0.32350 0.43030 0.03380 0.04800
H 	H 	0.30910 0.46910 0.91530 0.03400
H 	H 	0.04100 0.82470 0.09080 0.04800
H 	H 	0.11100 0.87000 0.09050 0.04800
H 	H 	0.91640 0.80010 0.19340 0.02200
H 	H 	0.90190 0.83140 0.26030 0.02400
H 	H 	0.99480 0.26680 0.21260 0.27000
H 	H 	0.21240 0.32350 0.03380 0.04800
H 	H 	0.30650 0.30910 0.91530 0.03500
H 	H 	0.04350 0.04100 0.09080 0.05200
H 	H 	0.92850 0.11100 0.09050 0.05000
H 	H 	0.09010 0.91640 0.19340 0.02200
H 	H 	0.00640 0.90190 0.26030 0.02400
H 	H 	0.52580 0.99480 0.21260 0.27000
H 	H 	0.43030 0.21240 0.03380 0.04800
H 	H 	0.46910 0.30650 0.91530 0.03400
H 	H 	0.82470 0.04350 0.09080 0.04900
H 	H 	0.87000 0.92850 0.09050 0.04900
H 	H 	0.80010 0.09010 0.19340 0.02200
H 	H 	0.83140 0.00640 0.26030 0.02400
C 	C 	0.72396 0.58856 0.60832 0.35600
C 	C 	0.73181 0.65441 0.53827 -0.08800
C 	C 	0.78526 0.70976 0.51022 -0.01600
C 	C 	0.77775 0.76305 0.44215 0.00200
C 	C 	0.72010 0.74500 0.41950 -0.11000
C 	C 	0.69854 0.78494 0.35008 0.40000
C 	C 	0.54316 0.47586 0.60832 -0.02300
C 	C 	0.41879 0.52249 0.70963 -0.02300
C 	C 	0.58856 0.07916 0.60832 0.35600
C 	C 	0.65441 0.07551 0.53827 -0.09000
C 	C 	0.70976 0.99476 0.51022 -0.01300
C 	C 	0.76305 0.01705 0.44215 -0.00100
C 	C 	0.74500 0.11540 0.41950 -0.10900
C 	C 	0.78494 0.16644 0.35008 0.40000
C 	C 	0.47586 0.37266 0.60832 -0.02300
C 	C 	0.52249 0.34909 0.70963 -0.02300
C 	C 	0.07916 0.72396 0.60832 0.35600
C 	C 	0.07551 0.73181 0.53827 -0.09000
C 	C 	0.99476 0.78526 0.51022 -0.01200
C 	C 	0.01705 0.77775 0.44215 -0.00200
C 	C 	0.11540 0.72010 0.41950 -0.10900
C 	C 	0.16644 0.69854 0.35008 0.40000
C 	C 	0.37266 0.54316 0.60832 -0.02300
C 	C 	0.34909 0.41879 0.70963 -0.02300
C 	C 	0.77604 0.42084 0.89168 0.35600
C 	C 	0.76819 0.42449 0.96173 -0.08800
C 	C 	0.71474 0.50524 0.98978 -0.01500
C 	C 	0.72225 0.48295 0.05785 0.00000
C 	C 	0.77990 0.38460 0.08050 -0.11000
C 	C 	0.80146 0.33356 0.14992 0.40000
C 	C 	0.95684 0.12734 0.89168 -0.02200
C 	C 	0.08121 0.15091 0.79037 -0.02300
C 	C 	0.91144 0.77604 0.89168 0.35500
C 	C 	0.84559 0.76819 0.96173 -0.08600
C 	C 	0.79024 0.71474 0.98978 -0.01400
C 	C 	0.73695 0.72225 0.05785 -0.00200
C 	C 	0.75500 0.77990 0.08050 -0.10900
C 	C 	0.71506 0.80146 0.14992 0.39900
C 	C 	0.02414 0.95684 0.89168 -0.02800
C 	C 	0.97751 0.08121 0.79037 -0.02300
C 	C 	0.42084 0.91144 0.89168 0.35500
C 	C 	0.42449 0.84559 0.96173 -0.08800
C 	C 	0.50524 0.79024 0.98978 -0.01500
C 	C 	0.48295 0.73695 0.05785 -0.00000
C 	C 	0.38460 0.75500 0.08050 -0.10900
C 	C 	0.33356 0.71506 0.14992 0.40000
C 	C 	0.12734 0.02414 0.89168 -0.02400
C 	C 	0.15091 0.97751 0.79037 -0.02300
C 	C 	0.27604 0.41144 0.39168 0.35600
C 	C 	0.26819 0.34559 0.46173 -0.08800
C 	C 	0.21474 0.29024 0.48978 -0.01600
C 	C 	0.22225 0.23695 0.55785 0.00200
C 	C 	0.27990 0.25500 0.58050 -0.11000
C 	C 	0.30146 0.21506 0.64992 0.40000
C 	C 	0.45684 0.52414 0.39168 -0.02300
C 	C 	0.58121 0.47751 0.29037 -0.02300
C 	C 	0.41144 0.92084 0.39168 0.35600
C 	C 	0.34559 0.92449 0.46173 -0.09000
C 	C 	0.29024 0.00524 0.48978 -0.01300
C 	C 	0.23695 0.98295 0.55785 -0.00100
C 	C 	0.25500 0.88460 0.58050 -0.10900
C 	C 	0.21506 0.83356 0.64992 0.40000
C 	C 	0.52414 0.62734 0.39168 -0.02300
C 	C 	0.47751 0.65091 0.29037 -0.02300
C 	C 	0.92084 0.27604 0.39168 0.35600
C 	C 	0.92449 0.26819 0.46173 -0.09000
C 	C 	0.00524 0.21474 0.48978 -0.01200
C 	C 	0.98295 0.22225 0.55785 -0.00200
C 	C 	0.88460 0.27990 0.58050 -0.10900
C 	C 	0.83356 0.30146 0.64992 0.40000
C 	C 	0.62734 0.45684 0.39168 -0.02300
C 	C 	0.65091 0.58121 0.29037 -0.02300
C 	C 	0.22396 0.57916 0.10832 0.35600
C 	C 	0.23181 0.57551 0.03827 -0.08800
C 	C 	0.28526 0.49476 0.01022 -0.01500
C 	C 	0.27775 0.51705 0.94215 0.00000
C 	C 	0.22010 0.61540 0.91950 -0.11000
C 	C 	0.19854 0.66644 0.85008 0.40000
C 	C 	0.04316 0.87266 0.10832 -0.02200
C 	C 	0.91879 0.84909 0.20963 -0.02300
C 	C 	0.08856 0.22396 0.10832 0.35500
C 	C 	0.15441 0.23181 0.03827 -0.08600
C 	C 	0.20976 0.28526 0.01022 -0.01400
C 	C 	0.26305 0.27775 0.94215 -0.00200
C 	C 	0.24500 0.22010 0.91950 -0.10900
C 	C 	0.28494 0.19854 0.85008 0.39900
C 	C 	0.97586 0.04316 0.10832 -0.02800
C 	C 	0.02249 0.91879 0.20963 -0.02300
C 	C 	0.57916 0.08856 0.10832 0.35500
C 	C 	0.57551 0.15441 0.03827 -0.08800
C 	C 	0.49476 0.20976 0.01022 -0.01500
C 	C 	0.51705 0.26305 0.94215 -0.00000
C 	C 	0.61540 0.24500 0.91950 -0.10900
C 	C 	0.66644 0.28494 0.85008 0.40000
C 	C 	0.87266 0.97586 0.10832 -0.02400
C 	C 	0.84909 0.02249 0.20963 -0.02300
S 	S 	0.67203 0.66561 0.48178 0.06600
S 	S 	0.66561 0.18058 0.48178 0.06600
S 	S 	0.18058 0.67203 0.48178 0.06600
S 	S 	0.82797 0.31942 0.01822 0.06400
S 	S 	0.83439 0.82797 0.01822 0.06200
S 	S 	0.31942 0.83439 0.01822 0.06400
S 	S 	0.32797 0.33439 0.51822 0.06600
S 	S 	0.33439 0.81942 0.51822 0.06600
S 	S 	0.81942 0.32797 0.51822 0.06600
S 	S 	0.17203 0.68058 0.98178 0.06400
S 	S 	0.16561 0.17203 0.98178 0.06200
S 	S 	0.68058 0.16561 0.98178 0.06400
N 	N 	0.52095 0.45025 0.68515 -0.18300
N 	N 	0.45025 0.34365 0.68515 -0.18300
N 	N 	0.34365 0.52095 0.68515 -0.18300
N 	N 	0.97905 0.15635 0.81485 -0.18300
N 	N 	0.04975 0.97905 0.81485 -0.18300
N 	N 	0.15635 0.04975 0.81485 -0.18300
N 	N 	0.47905 0.54975 0.31485 -0.18300
N 	N 	0.54975 0.65635 0.31485 -0.18300
N 	N 	0.65635 0.47905 0.31485 -0.18300
N 	N 	0.02095 0.84365 0.18515 -0.18300
N 	N 	0.95025 0.02095 0.18515 -0.18300
N 	N 	0.84365 0.95025 0.18515 -0.18300
N 	N 	0.47202 0.47202 0.58394 -0.08600
N 	N 	0.02798 0.02798 0.91606 -0.08600
N 	N 	0.52798 0.52798 0.41606 -0.08600
N 	N 	0.97202 0.97202 0.08394 -0.08600
O 	O 	0.65563 0.55953 0.63022 -0.43100
O 	O 	0.78598 0.56838 0.63946 -0.32800
O 	O 	0.72704 0.85131 0.31111 -0.46200
O 	O 	0.65396 0.74865 0.33781 -0.44800
O 	O 	0.55953 0.15462 0.63022 -0.43100
O 	O 	0.56838 0.00618 0.63946 -0.32800
O 	O 	0.85131 0.11054 0.31111 -0.46200
O 	O 	0.74865 0.25958 0.33781 -0.44800
O 	O 	0.15462 0.65563 0.63022 -0.43200
O 	O 	0.00618 0.78598 0.63946 -0.32900
O 	O 	0.11054 0.72704 0.31111 -0.46200
O 	O 	0.25958 0.65396 0.33781 -0.44800
O 	O 	0.84437 0.34538 0.86978 -0.43100
O 	O 	0.71402 0.49382 0.86054 -0.32800
O 	O 	0.77296 0.38946 0.18889 -0.46200
O 	O 	0.84604 0.24042 0.16219 -0.44800
O 	O 	0.94047 0.84437 0.86978 -0.42900
O 	O 	0.93162 0.71402 0.86054 -0.32700
O 	O 	0.64869 0.77296 0.18889 -0.46200
O 	O 	0.75135 0.84604 0.16219 -0.44800
O 	O 	0.34538 0.94047 0.86978 -0.43100
O 	O 	0.49382 0.93162 0.86054 -0.32700
O 	O 	0.38946 0.64869 0.18889 -0.46200
O 	O 	0.24042 0.75135 0.16219 -0.44800
O 	O 	0.34437 0.44047 0.36978 -0.43100
O 	O 	0.21402 0.43162 0.36054 -0.32800
O 	O 	0.27296 0.14869 0.68889 -0.46200
O 	O 	0.34604 0.25135 0.66219 -0.44800
O 	O 	0.44047 0.84538 0.36978 -0.43100
O 	O 	0.43162 0.99382 0.36054 -0.32800
O 	O 	0.14869 0.88946 0.68889 -0.46200
O 	O 	0.25135 0.74042 0.66219 -0.44800
O 	O 	0.84538 0.34437 0.36978 -0.43200
O 	O 	0.99382 0.21402 0.36054 -0.32900
O 	O 	0.88946 0.27296 0.68889 -0.46200
O 	O 	0.74042 0.34604 0.66219 -0.44800
O 	O 	0.15563 0.65462 0.13022 -0.43100
O 	O 	0.28598 0.50618 0.13946 -0.32800
O 	O 	0.22704 0.61054 0.81111 -0.46200
O 	O 	0.15396 0.75958 0.83781 -0.44800
O 	O 	0.05953 0.15563 0.13022 -0.42900
O 	O 	0.06838 0.28598 0.13946 -0.32700
O 	O 	0.35131 0.22704 0.81111 -0.46200
O 	O 	0.24865 0.15396 0.83781 -0.44800
O 	O 	0.65462 0.05953 0.13022 -0.43100
O 	O 	0.50618 0.06838 0.13946 -0.32700
O 	O 	0.61054 0.35131 0.81111 -0.46200
O 	O 	0.75958 0.24865 0.83781 -0.44800
O 	O 	0.75000 0.44765 0.75000 -0.78100
O 	O 	0.44765 0.05235 0.75000 -0.78100
O 	O 	0.05235 0.75000 0.75000 -0.78100
O 	O 	0.25000 0.55235 0.25000 -0.78100
O 	O 	0.55235 0.94765 0.25000 -0.78100
O 	O 	0.94765 0.25000 0.25000 -0.78100
