data_crystal

_cell_length_a 9.95500
_cell_length_b 12.79500
_cell_length_c 13.80100
_cell_angle_alpha 69.41500
_cell_angle_beta  82.56200
_cell_angle_gamma 83.11700

_symmetry_space_group_name_	'P 1'
_symmetry_space_group_name_H-M	'P 1'

loop_
_symmetry_equiv_pos_as_xyz
  x,y,z

loop_
_atom_site_label
_atom_site_type_symbol
_atom_site_fract_x
_atom_site_fract_y
_atom_site_fract_z
_atom_site_charge
Tm	Tm	0.53019 0.64035 0.37481 1.48700
Tm	Tm	0.46981 0.35965 0.62519 1.48700
H 	H 	0.18970 0.93800 0.48650 0.20400
H 	H 	0.26140 0.95450 0.37460 0.21200
H 	H 	0.28550 0.84050 0.46500 0.22500
H 	H 	0.68930 0.76690 0.61760 0.19700
H 	H 	0.79490 0.85780 0.57470 0.18000
H 	H 	0.70520 0.84580 0.67960 0.18400
H 	H 	0.26830 0.43590 0.35340 0.19600
H 	H 	0.14590 0.40600 0.30980 0.18600
H 	H 	0.18370 0.53040 0.27300 0.19900
H 	H 	0.17930 0.64720 0.58720 0.20200
H 	H 	0.02980 0.67180 0.63030 0.18400
H 	H 	0.11460 0.56130 0.68940 0.18000
H 	H 	0.27510 0.89610 0.20200 0.21800
H 	H 	0.25420 0.02530 0.18130 0.19100
H 	H 	0.18610 0.97350 0.11420 0.19600
H 	H 	0.71520 0.77530 0.09410 0.17700
H 	H 	0.78050 0.83420 0.98090 0.16700
H 	H 	0.80360 0.87640 0.07080 0.16900
H 	H 	0.81030 0.06200 0.51350 0.20400
H 	H 	0.73860 0.04550 0.62540 0.21200
H 	H 	0.71450 0.15950 0.53500 0.22500
H 	H 	0.31070 0.23310 0.38240 0.19700
H 	H 	0.20510 0.14220 0.42530 0.18000
H 	H 	0.29480 0.15420 0.32040 0.18400
H 	H 	0.73170 0.56410 0.64660 0.19600
H 	H 	0.85410 0.59400 0.69020 0.18600
H 	H 	0.81630 0.46960 0.72700 0.19900
H 	H 	0.82070 0.35280 0.41280 0.20200
H 	H 	0.97020 0.32820 0.36970 0.18400
H 	H 	0.88540 0.43870 0.31060 0.18000
H 	H 	0.72490 0.10390 0.79800 0.21800
H 	H 	0.74580 0.97470 0.81870 0.19100
H 	H 	0.81390 0.02650 0.88580 0.19600
H 	H 	0.28480 0.22470 0.90590 0.17700
H 	H 	0.21950 0.16580 0.01910 0.16700
H 	H 	0.19640 0.12360 0.92920 0.16900
C 	C 	0.47440 0.76420 0.55630 0.40600
C 	C 	0.48860 0.88810 0.52650 -0.22000
C 	C 	0.38750 0.96250 0.47360 0.17100
C 	C 	0.27090 0.92020 0.44770 -0.65700
C 	C 	0.60080 0.92360 0.55320 0.13000
C 	C 	0.70710 0.84110 0.61150 -0.59000
C 	C 	0.26830 0.57300 0.45150 0.40200
C 	C 	0.12840 0.53430 0.47810 -0.24200
C 	C 	0.08510 0.48010 0.41830 0.13800
C 	C 	0.17930 0.46140 0.33070 -0.61400
C 	C 	0.04560 0.55560 0.55960 0.12800
C 	C 	0.09690 0.61420 0.62220 -0.60200
C 	C 	0.50520 0.81750 0.19370 0.35700
C 	C 	0.50180 0.91310 0.09200 -0.20300
C 	C 	0.38700 0.98610 0.07360 0.16000
C 	C 	0.26490 0.96870 0.14950 -0.62600
C 	C 	0.61390 0.92600 0.02080 0.11400
C 	C 	0.73990 0.84560 0.04370 -0.54600
C 	C 	0.52560 0.23580 0.44370 0.40600
C 	C 	0.51140 0.11190 0.47350 -0.22000
C 	C 	0.61250 0.03750 0.52640 0.17100
C 	C 	0.72910 0.07980 0.55230 -0.65700
C 	C 	0.39920 0.07640 0.44680 0.13000
C 	C 	0.29290 0.15890 0.38850 -0.59000
C 	C 	0.73170 0.42700 0.54850 0.40200
C 	C 	0.87160 0.46570 0.52190 -0.24200
C 	C 	0.91490 0.51990 0.58170 0.13800
C 	C 	0.82070 0.53860 0.66930 -0.61400
C 	C 	0.95440 0.44440 0.44040 0.12800
C 	C 	0.90310 0.38580 0.37780 -0.60200
C 	C 	0.49480 0.18250 0.80630 0.35700
C 	C 	0.49820 0.08690 0.90800 -0.20300
C 	C 	0.61300 0.01390 0.92640 0.16000
C 	C 	0.73510 0.03130 0.85050 -0.62600
C 	C 	0.38610 0.07400 0.97920 0.11400
C 	C 	0.26010 0.15440 0.95630 -0.54600
O 	O 	0.52850 0.71510 0.49440 -0.47900
O 	O 	0.41070 0.71560 0.63870 -0.33100
O 	O 	0.28970 0.66410 0.38250 -0.43600
O 	O 	0.36680 0.51310 0.49670 -0.55800
O 	O 	0.50790 0.83640 0.27650 -0.40700
O 	O 	0.50570 0.71940 0.19640 -0.44900
O 	O 	0.47150 0.28490 0.50560 -0.47900
O 	O 	0.58930 0.28440 0.36130 -0.33100
O 	O 	0.71030 0.33590 0.61750 -0.43600
O 	O 	0.63320 0.48690 0.50330 -0.55800
O 	O 	0.49210 0.16360 0.72350 -0.40700
O 	O 	0.49430 0.28060 0.80360 -0.44900
