data_crystal

_cell_length_a 6.88830
_cell_length_b 14.70740
_cell_length_c 14.98100
_cell_angle_alpha 90.00000
_cell_angle_beta  90.00000
_cell_angle_gamma 90.00000

_symmetry_space_group_name_	'P 1'
_symmetry_space_group_name_H-M	'P 1'

loop_
_symmetry_equiv_pos_as_xyz
  x,y,z

loop_
_atom_site_label
_atom_site_type_symbol
_atom_site_fract_x
_atom_site_fract_y
_atom_site_fract_z
_atom_site_charge
Sr	Sr	0.85538 0.30768 0.54664 1.51700
Sr	Sr	0.64462 0.69232 0.04664 1.51700
Sr	Sr	0.14462 0.80768 0.95336 1.51600
Sr	Sr	0.35538 0.19232 0.45336 1.51600
H 	H 	0.84450 0.15570 0.25160 0.02000
H 	H 	0.89310 0.04700 0.13980 0.03900
H 	H 	0.87610 0.99230 0.51440 0.06600
H 	H 	0.89430 0.73180 0.44120 0.03800
H 	H 	0.88890 0.77200 0.29380 0.05500
H 	H 	0.89110 0.84220 0.55120 0.02400
H 	H 	0.65550 0.84430 0.75160 0.02100
H 	H 	0.60690 0.95300 0.63980 0.03900
H 	H 	0.62390 0.00770 0.01440 0.06200
H 	H 	0.60570 0.26820 0.94120 0.03900
H 	H 	0.61110 0.22800 0.79380 0.05600
H 	H 	0.60890 0.15780 0.05120 0.02000
H 	H 	0.15550 0.65570 0.24840 0.02200
H 	H 	0.10690 0.54700 0.36020 0.03900
H 	H 	0.12390 0.49230 0.98560 0.06300
H 	H 	0.10570 0.23180 0.05880 0.03800
H 	H 	0.11110 0.27200 0.20620 0.05600
H 	H 	0.10890 0.34220 0.94880 0.02100
H 	H 	0.34450 0.34430 0.74840 0.02100
H 	H 	0.39310 0.45300 0.86020 0.03900
H 	H 	0.37610 0.50770 0.48560 0.06600
H 	H 	0.39430 0.76820 0.55880 0.03700
H 	H 	0.38890 0.72800 0.70620 0.05600
H 	H 	0.39110 0.65780 0.44880 0.02400
C 	C 	0.86580 0.07018 0.35494 -0.16800
C 	C 	0.87910 0.97788 0.37846 0.04800
C 	C 	0.86190 0.09500 0.26700 -0.01200
C 	C 	0.88480 0.90980 0.31150 0.02600
C 	C 	0.85800 0.14592 0.42336 0.38000
C 	C 	0.88430 0.02890 0.19920 -0.03100
C 	C 	0.89300 0.93870 0.22000 -0.11100
C 	C 	0.90970 0.87290 0.14180 0.39700
C 	C 	0.88040 0.94890 0.46930 -0.11400
C 	C 	0.89070 0.79290 0.42540 -0.04700
C 	C 	0.88830 0.81700 0.33740 -0.07600
C 	C 	0.88790 0.85920 0.49140 -0.01200
C 	C 	0.63420 0.92982 0.85494 -0.16700
C 	C 	0.62090 0.02212 0.87846 0.04800
C 	C 	0.63810 0.90500 0.76700 -0.01200
C 	C 	0.61520 0.09020 0.81150 0.02600
C 	C 	0.64200 0.85408 0.92336 0.38000
C 	C 	0.61570 0.97110 0.69920 -0.03100
C 	C 	0.60700 0.06130 0.72000 -0.11200
C 	C 	0.59030 0.12710 0.64180 0.40100
C 	C 	0.61960 0.05110 0.96930 -0.10900
C 	C 	0.60930 0.20710 0.92540 -0.05000
C 	C 	0.61170 0.18300 0.83740 -0.07500
C 	C 	0.61210 0.14080 0.99140 -0.00700
C 	C 	0.13420 0.57018 0.14506 -0.16500
C 	C 	0.12090 0.47788 0.12154 0.04600
C 	C 	0.13810 0.59500 0.23300 -0.01400
C 	C 	0.11520 0.40980 0.18850 0.02700
C 	C 	0.14200 0.64592 0.07664 0.37900
C 	C 	0.11570 0.52890 0.30080 -0.02800
C 	C 	0.10700 0.43870 0.28000 -0.11400
C 	C 	0.09030 0.37290 0.35820 0.40200
C 	C 	0.11960 0.44890 0.03070 -0.11000
C 	C 	0.10930 0.29290 0.07460 -0.04800
C 	C 	0.11170 0.31700 0.16260 -0.07600
C 	C 	0.11210 0.35920 0.00860 -0.01000
C 	C 	0.36580 0.42982 0.64506 -0.16700
C 	C 	0.37910 0.52212 0.62154 0.04700
C 	C 	0.36190 0.40500 0.73300 -0.01300
C 	C 	0.38480 0.59020 0.68850 0.02700
C 	C 	0.35800 0.35408 0.57664 0.38000
C 	C 	0.38430 0.47110 0.80080 -0.02900
C 	C 	0.39300 0.56130 0.78000 -0.11400
C 	C 	0.40970 0.62710 0.85820 0.40100
C 	C 	0.38040 0.55110 0.53070 -0.11300
C 	C 	0.39070 0.70710 0.57460 -0.04600
C 	C 	0.38830 0.68300 0.66260 -0.07700
C 	C 	0.38790 0.64080 0.50860 -0.01300
O 	O 	0.71910 0.20035 0.41966 -0.55100
O 	O 	0.99510 0.15251 0.47878 -0.53600
O 	O 	0.81630 0.79970 0.14500 -0.48400
O 	O 	0.01380 0.89820 0.07890 -0.46800
O 	O 	0.78090 0.79965 0.91966 -0.55000
O 	O 	0.50490 0.84749 0.97878 -0.53700
O 	O 	0.68370 0.20030 0.64500 -0.48400
O 	O 	0.48620 0.10180 0.57890 -0.47200
O 	O 	0.28090 0.70035 0.08034 -0.55100
O 	O 	0.00490 0.65251 0.02122 -0.53400
O 	O 	0.18370 0.29970 0.35500 -0.48500
O 	O 	0.98620 0.39820 0.42110 -0.47300
O 	O 	0.21910 0.29965 0.58034 -0.55200
O 	O 	0.49510 0.34749 0.52122 -0.53700
O 	O 	0.31630 0.70030 0.85500 -0.48500
O 	O 	0.51380 0.60180 0.92110 -0.47200
