data_crystal

_cell_length_a 20.55000
_cell_length_b 14.19000
_cell_length_c 6.71000
_cell_angle_alpha 90.00000
_cell_angle_beta  101.35000
_cell_angle_gamma 90.00000

_symmetry_space_group_name_	'P 1'
_symmetry_space_group_name_H-M	'P 1'

loop_
_symmetry_equiv_pos_as_xyz
  x,y,z

loop_
_atom_site_label
_atom_site_type_symbol
_atom_site_fract_x
_atom_site_fract_y
_atom_site_fract_z
_atom_site_charge
Ce	Ce	0.28460 0.59910 0.52100 2.18400
C 	C 	0.37800 0.44100 0.58200 0.45000
C 	C 	0.43500 0.37000 0.61600 -0.12100
C 	C 	0.19200 0.45200 0.54300 0.30000
C 	C 	0.38600 0.73400 0.48900 0.33900
C 	C 	0.44100 0.81400 0.46800 -0.04800
C 	C 	0.27200 0.65900 0.00200 0.31000
C 	C 	0.13600 0.72900 0.44800 0.35500
C 	C 	0.08400 0.65300 0.48600 -0.06400
O 	O 	0.34800 0.46800 0.41400 -0.54200
O 	O 	0.36000 0.47700 0.72000 -0.53700
O 	O 	0.20800 0.49300 0.71300 -0.43300
O 	O 	0.20300 0.47700 0.38500 -0.48200
O 	O 	0.40600 0.65000 0.52200 -0.42200
O 	O 	0.33100 0.76200 0.46200 -0.49300
O 	O 	0.27700 0.60300 0.16100 -0.51600
O 	O 	0.29800 0.64700 0.84300 -0.54400
O 	O 	0.11900 0.81600 0.41300 -0.30900
O 	O 	0.19500 0.69900 0.48800 -0.53100
K 	K 	0.23780 0.90160 0.44690 0.65700
K 	K 	0.41120 0.53700 0.10020 0.65300
O 	O 	0.49500 0.61100 0.84100 -0.21000
Ce	Ce	0.21540 0.09910 0.97900 2.18000
C 	C 	0.12200 0.94100 0.91800 0.44800
C 	C 	0.06500 0.87000 0.88400 -0.11800
C 	C 	0.30800 0.95200 0.95700 0.29800
C 	C 	0.11400 0.23400 0.01100 0.34800
C 	C 	0.05900 0.31400 0.03200 -0.04900
C 	C 	0.22800 0.15900 0.49800 0.30400
C 	C 	0.36400 0.22900 0.05200 0.35500
C 	C 	0.41600 0.15300 0.01400 -0.06000
O 	O 	0.15200 0.96800 0.08600 -0.53800
O 	O 	0.14000 0.97700 0.78000 -0.53300
O 	O 	0.29200 0.99300 0.78700 -0.43000
O 	O 	0.29700 0.97700 0.11500 -0.47900
O 	O 	0.09400 0.15000 0.97800 -0.43100
O 	O 	0.16900 0.26200 0.03800 -0.49300
O 	O 	0.22300 0.10300 0.33900 -0.51600
O 	O 	0.20200 0.14700 0.65700 -0.54300
O 	O 	0.38100 0.31600 0.08700 -0.30800
O 	O 	0.30500 0.19900 0.01200 -0.52700
K 	K 	0.26220 0.40160 0.05310 0.65700
K 	K 	0.08880 0.03700 0.39980 0.65200
O 	O 	0.00500 0.11100 0.65900 -0.21400
Ce	Ce	0.71540 0.40090 0.47900 2.18500
C 	C 	0.62200 0.55900 0.41800 0.45100
C 	C 	0.56500 0.63000 0.38400 -0.12100
C 	C 	0.80800 0.54800 0.45700 0.30000
C 	C 	0.61400 0.26600 0.51100 0.33900
C 	C 	0.55900 0.18600 0.53200 -0.04800
C 	C 	0.72800 0.34100 0.99800 0.31000
C 	C 	0.86400 0.27100 0.55200 0.35500
C 	C 	0.91600 0.34700 0.51400 -0.06400
O 	O 	0.65200 0.53200 0.58600 -0.54200
O 	O 	0.64000 0.52300 0.28000 -0.53700
O 	O 	0.79200 0.50700 0.28700 -0.43300
O 	O 	0.79700 0.52300 0.61500 -0.48200
O 	O 	0.59400 0.35000 0.47800 -0.42200
O 	O 	0.66900 0.23800 0.53800 -0.49300
O 	O 	0.72300 0.39700 0.83900 -0.51600
O 	O 	0.70200 0.35300 0.15700 -0.54400
O 	O 	0.88100 0.18400 0.58700 -0.30900
O 	O 	0.80500 0.30100 0.51200 -0.53100
K 	K 	0.76220 0.09840 0.55310 0.65700
K 	K 	0.58880 0.46300 0.89980 0.65300
O 	O 	0.50500 0.38900 0.15900 -0.21000
Ce	Ce	0.78460 0.90090 0.02100 2.18000
C 	C 	0.87800 0.05900 0.08200 0.44800
C 	C 	0.93500 0.13000 0.11600 -0.11800
C 	C 	0.69200 0.04800 0.04300 0.29800
C 	C 	0.88600 0.76600 0.98900 0.34800
C 	C 	0.94100 0.68600 0.96800 -0.04900
C 	C 	0.77200 0.84100 0.50200 0.30400
C 	C 	0.63600 0.77100 0.94800 0.35500
C 	C 	0.58400 0.84700 0.98600 -0.06000
O 	O 	0.84800 0.03200 0.91400 -0.53800
O 	O 	0.86000 0.02300 0.22000 -0.53300
O 	O 	0.70800 0.00700 0.21300 -0.43000
O 	O 	0.70300 0.02300 0.88500 -0.47900
O 	O 	0.90600 0.85000 0.02200 -0.43100
O 	O 	0.83100 0.73800 0.96200 -0.49300
O 	O 	0.77700 0.89700 0.66100 -0.51600
O 	O 	0.79800 0.85300 0.34300 -0.54300
O 	O 	0.61900 0.68400 0.91300 -0.30800
O 	O 	0.69500 0.80100 0.98800 -0.52700
K 	K 	0.73780 0.59840 0.94690 0.65700
K 	K 	0.91120 0.96300 0.60020 0.65200
O 	O 	0.99500 0.88900 0.34100 -0.21400
