data_crystal

_cell_length_a 12.44980
_cell_length_b 13.81570
_cell_length_c 14.57900
_cell_angle_alpha 71.09300
_cell_angle_beta  64.72400
_cell_angle_gamma 63.21990

_symmetry_space_group_name_	'P 1'
_symmetry_space_group_name_H-M	'P 1'

loop_
_symmetry_equiv_pos_as_xyz
  x,y,z

loop_
_atom_site_label
_atom_site_type_symbol
_atom_site_fract_x
_atom_site_fract_y
_atom_site_fract_z
_atom_site_charge
Cd	Cd	0.98614 0.04625 0.61003 1.21400
Cd	Cd	0.64242 0.45375 0.88997 1.21600
Cd	Cd	0.01386 0.95375 0.38997 1.21400
Cd	Cd	0.35758 0.54625 0.11003 1.21600
Cd	Cd	0.71735 0.25000 0.75000 1.24600
Cd	Cd	0.28265 0.75000 0.25000 1.24600
C 	C 	0.83640 0.20360 0.49500 0.38800
C 	C 	0.75500 0.28590 0.43130 -0.11700
C 	C 	0.66450 0.32790 0.30050 -0.00900
C 	C 	0.99190 0.04290 0.79510 0.36700
C 	C 	0.99660 0.02180 0.90120 -0.10600
C 	C 	0.74100 0.25260 0.35860 0.00500
C 	C 	0.51050 0.51730 0.25770 0.36800
C 	C 	0.60150 0.43610 0.31630 -0.08600
C 	C 	0.90430 0.09200 0.97040 -0.01100
C 	C 	0.69240 0.39500 0.44660 0.00600
C 	C 	0.61660 0.47010 0.38870 -0.00900
C 	C 	0.09230 0.93000 0.93040 0.00700
C 	C 	0.53500 0.29640 0.00500 0.39200
C 	C 	0.47220 0.21410 0.06870 -0.12000
C 	C 	0.29290 0.17210 0.19950 -0.01200
C 	C 	0.82990 0.45710 0.70490 0.37100
C 	C 	0.91960 0.47820 0.59880 -0.10000
C 	C 	0.35220 0.24740 0.14140 0.00700
C 	C 	0.28550 0.98270 0.24230 0.35600
C 	C 	0.35390 0.06390 0.18370 -0.07900
C 	C 	0.96670 0.40800 0.52960 -0.00600
C 	C 	0.53400 0.10500 0.05340 0.01200
C 	C 	0.47540 0.02990 0.11130 -0.01000
C 	C 	0.95270 0.57000 0.56960 -0.00200
C 	C 	0.16360 0.79640 0.50500 0.38700
C 	C 	0.24500 0.71410 0.56870 -0.11700
C 	C 	0.33550 0.67210 0.69950 -0.00900
C 	C 	0.00810 0.95710 0.20490 0.36700
C 	C 	0.00340 0.97820 0.09880 -0.10600
C 	C 	0.25900 0.74740 0.64140 0.00500
C 	C 	0.48950 0.48270 0.74230 0.36800
C 	C 	0.39850 0.56390 0.68370 -0.08600
C 	C 	0.09570 0.90800 0.02960 -0.01100
C 	C 	0.30760 0.60500 0.55340 0.00600
C 	C 	0.38340 0.52990 0.61130 -0.01000
C 	C 	0.90770 0.07000 0.06960 0.00700
C 	C 	0.46500 0.70360 0.99500 0.39200
C 	C 	0.52780 0.78590 0.93130 -0.12000
C 	C 	0.70710 0.82790 0.80050 -0.01200
C 	C 	0.17010 0.54290 0.29510 0.37100
C 	C 	0.08040 0.52180 0.40120 -0.10000
C 	C 	0.64780 0.75260 0.85860 0.00700
C 	C 	0.71450 0.01730 0.75770 0.35600
C 	C 	0.64610 0.93610 0.81630 -0.07900
C 	C 	0.03330 0.59200 0.47040 -0.00600
C 	C 	0.46600 0.89500 0.94660 0.01200
C 	C 	0.52460 0.97010 0.88870 -0.01000
C 	C 	0.04730 0.43000 0.43040 -0.00200
O 	O 	0.91319 0.11272 0.46630 -0.52800
O 	O 	0.82882 0.22686 0.57490 -0.50600
O 	O 	0.50790 0.48530 0.18810 -0.43400
O 	O 	0.90850 0.12700 0.76740 -0.50500
O 	O 	0.44500 0.61090 0.28490 -0.43600
O 	O 	0.07000 0.97420 0.73720 -0.42900
O 	O 	0.49221 0.38728 0.03370 -0.52700
O 	O 	0.63058 0.27314 0.92510 -0.50800
O 	O 	0.18130 0.01470 0.31190 -0.42500
O 	O 	0.80290 0.37300 0.73260 -0.50500
O 	O 	0.34080 0.88910 0.21510 -0.43400
O 	O 	0.78140 0.52580 0.76280 -0.43100
O 	O 	0.08681 0.88728 0.53370 -0.52800
O 	O 	0.17118 0.77314 0.42510 -0.50600
O 	O 	0.49210 0.51470 0.81190 -0.43400
O 	O 	0.09150 0.87300 0.23260 -0.50500
O 	O 	0.55500 0.38910 0.71510 -0.43600
O 	O 	0.93000 0.02580 0.26280 -0.42900
O 	O 	0.50779 0.61272 0.96630 -0.52700
O 	O 	0.36942 0.72686 0.07490 -0.50800
O 	O 	0.81870 0.98530 0.68810 -0.42500
O 	O 	0.19710 0.62700 0.26740 -0.50500
O 	O 	0.65920 0.11090 0.78490 -0.43400
O 	O 	0.21860 0.47420 0.23720 -0.43100
H 	H 	0.65382 0.30045 0.24007 0.03600
H 	H 	0.79224 0.16325 0.34623 0.02600
H 	H 	0.82608 0.16733 0.94608 0.02100
H 	H 	0.70373 0.42223 0.50681 0.03300
H 	H 	0.56647 0.55975 0.40012 0.04200
H 	H 	0.16821 0.87254 0.87316 0.03400
H 	H 	0.19434 0.19955 0.25993 0.03700
H 	H 	0.30173 0.33675 0.15377 0.02600
H 	H 	0.93948 0.33267 0.55392 0.02100
H 	H 	0.63277 0.07777 0.99319 0.02900
H 	H 	0.52634 0.94025 0.09988 0.04000
H 	H 	0.91390 0.62746 0.62684 0.03600
H 	H 	0.34618 0.69955 0.75993 0.03600
H 	H 	0.20767 0.83678 0.65365 0.02600
H 	H 	0.17417 0.83254 0.05345 0.02100
H 	H 	0.29627 0.57777 0.49319 0.03300
H 	H 	0.43353 0.44025 0.59988 0.04200
H 	H 	0.83189 0.12736 0.12696 0.03400
H 	H 	0.80566 0.80045 0.74007 0.03700
H 	H 	0.69811 0.66322 0.84635 0.02600
H 	H 	0.06052 0.66733 0.44608 0.02100
H 	H 	0.36723 0.92223 0.00681 0.02900
H 	H 	0.47351 0.05971 0.90023 0.04000
H 	H 	0.08620 0.37264 0.37304 0.03600
