data_crystal

_cell_length_a 10.83000
_cell_length_b 17.04900
_cell_length_c 17.29300
_cell_angle_alpha 90.00000
_cell_angle_beta  90.00000
_cell_angle_gamma 90.00000

_symmetry_space_group_name_	'P 1'
_symmetry_space_group_name_H-M	'P 1'

loop_
_symmetry_equiv_pos_as_xyz
  x,y,z

loop_
_atom_site_label
_atom_site_type_symbol
_atom_site_fract_x
_atom_site_fract_y
_atom_site_fract_z
_atom_site_charge
Zn	Zn	0.67571 0.78271 0.49535 1.22700
Zn	Zn	0.71365 0.60151 0.51127 1.21300
Zn	Zn	0.44309 0.64813 0.43190 1.22500
Zn	Zn	0.83081 0.90247 0.39254 1.22800
Zn	Zn	0.82429 0.21729 0.99535 1.22600
Zn	Zn	0.78635 0.39849 0.01127 1.21300
Zn	Zn	0.05691 0.35187 0.93190 1.22500
Zn	Zn	0.66919 0.09753 0.89254 1.22800
Zn	Zn	0.32429 0.28271 0.00465 1.22600
Zn	Zn	0.28635 0.10151 0.98873 1.21300
Zn	Zn	0.55691 0.14813 0.06810 1.22500
Zn	Zn	0.16919 0.40247 0.10746 1.22800
Zn	Zn	0.17571 0.71729 0.50465 1.22700
Zn	Zn	0.21365 0.89849 0.48873 1.21300
Zn	Zn	0.94309 0.85187 0.56810 1.22500
Zn	Zn	0.33081 0.59753 0.60746 1.22800
H 	H 	0.69300 0.65920 0.73620 0.05500
H 	H 	0.70460 0.67710 0.26480 0.05900
H 	H 	0.74280 0.59520 0.16090 0.02400
H 	H 	0.70930 0.56990 0.83530 0.04400
H 	H 	0.06140 0.52860 0.77630 0.05300
H 	H 	0.06740 0.53460 0.25220 0.02300
H 	H 	0.80700 0.34080 0.23620 0.05500
H 	H 	0.79540 0.32290 0.76480 0.05900
H 	H 	0.75720 0.40480 0.66090 0.02400
H 	H 	0.79070 0.43010 0.33530 0.04300
H 	H 	0.43860 0.47140 0.27630 0.05000
H 	H 	0.43260 0.46540 0.75220 0.02400
H 	H 	0.30700 0.15920 0.76380 0.05500
H 	H 	0.29540 0.17710 0.23520 0.05900
H 	H 	0.25720 0.09520 0.33910 0.02500
H 	H 	0.29070 0.06990 0.66470 0.04300
H 	H 	0.93860 0.02860 0.72370 0.04700
H 	H 	0.93260 0.03460 0.24780 0.02500
H 	H 	0.19300 0.84080 0.26380 0.05500
H 	H 	0.20460 0.82290 0.73520 0.05900
H 	H 	0.24280 0.90480 0.83910 0.02600
H 	H 	0.20930 0.93010 0.16470 0.04200
H 	H 	0.56140 0.97140 0.22370 0.04900
H 	H 	0.56740 0.96540 0.74780 0.02500
C 	C 	0.85080 0.73210 0.37070 0.38900
C 	C 	0.98340 0.61870 0.31040 -0.09800
C 	C 	0.08770 0.62520 0.65580 0.40600
C 	C 	0.86900 0.65140 0.70010 -0.05200
C 	C 	0.76770 0.63380 0.74530 -0.04200
C 	C 	0.85320 0.71530 0.64060 0.37500
C 	C 	0.97930 0.61100 0.70650 -0.09900
C 	C 	0.08090 0.63110 0.37040 0.36500
C 	C 	0.78130 0.65330 0.25910 -0.07100
C 	C 	0.87580 0.67060 0.30910 -0.03100
C 	C 	0.90610 0.55270 0.19730 -0.16600
C 	C 	0.80130 0.59980 0.20000 0.05300
C 	C 	0.88990 0.53940 0.81210 -0.09500
C 	C 	0.77600 0.58000 0.80290 0.00400
C 	C 	0.92470 0.49160 0.13910 0.45100
C 	C 	0.98740 0.55470 0.76750 0.03200
C 	C 	0.99600 0.56480 0.25370 0.07200
C 	C 	0.89960 0.47730 0.87730 0.39400
C 	C 	0.64920 0.26790 0.87070 0.38900
C 	C 	0.51660 0.38130 0.81040 -0.09700
C 	C 	0.41230 0.37480 0.15580 0.40600
C 	C 	0.63100 0.34860 0.20010 -0.05100
C 	C 	0.73230 0.36620 0.24530 -0.04300
C 	C 	0.64680 0.28470 0.14060 0.37500
C 	C 	0.52070 0.38900 0.20650 -0.10000
C 	C 	0.41910 0.36890 0.87040 0.36500
C 	C 	0.71870 0.34670 0.75910 -0.07000
C 	C 	0.62420 0.32940 0.80910 -0.03100
C 	C 	0.59390 0.44730 0.69730 -0.16500
C 	C 	0.69870 0.40020 0.70000 0.05200
C 	C 	0.61010 0.46060 0.31210 -0.09700
C 	C 	0.72400 0.42000 0.30290 0.00600
C 	C 	0.57530 0.50840 0.63910 0.44900
C 	C 	0.51260 0.44530 0.26750 0.03700
C 	C 	0.50400 0.43520 0.75370 0.06900
C 	C 	0.60040 0.52270 0.37730 0.39700
C 	C 	0.14920 0.23210 0.12930 0.38900
C 	C 	0.01660 0.11870 0.18960 -0.09700
C 	C 	0.91230 0.12520 0.84420 0.40400
C 	C 	0.13100 0.15140 0.79990 -0.05100
C 	C 	0.23230 0.13380 0.75470 -0.04400
C 	C 	0.14680 0.21530 0.85940 0.37500
C 	C 	0.02070 0.11100 0.79350 -0.09900
C 	C 	0.91910 0.13110 0.12960 0.36500
C 	C 	0.21870 0.15330 0.24090 -0.06900
C 	C 	0.12420 0.17060 0.19090 -0.03200
C 	C 	0.09390 0.05270 0.30270 -0.16200
C 	C 	0.19870 0.09980 0.30000 0.05100
C 	C 	0.11010 0.03940 0.68790 -0.09900
C 	C 	0.22400 0.08000 0.69710 0.00700
C 	C 	0.07530 0.99160 0.36090 0.44500
C 	C 	0.01260 0.05470 0.73250 0.04000
C 	C 	0.00400 0.06480 0.24630 0.06800
C 	C 	0.10040 0.97730 0.62270 0.39800
C 	C 	0.35080 0.76790 0.62930 0.38900
C 	C 	0.48340 0.88130 0.68960 -0.09600
C 	C 	0.58770 0.87480 0.34420 0.40600
C 	C 	0.36900 0.84860 0.29990 -0.05000
C 	C 	0.26770 0.86620 0.25470 -0.04500
C 	C 	0.35320 0.78470 0.35940 0.37500
C 	C 	0.47930 0.88900 0.29350 -0.10100
C 	C 	0.58090 0.86890 0.62960 0.36500
C 	C 	0.28130 0.84670 0.74090 -0.06900
C 	C 	0.37580 0.82940 0.69090 -0.03200
C 	C 	0.40610 0.94730 0.80270 -0.16200
C 	C 	0.30130 0.90020 0.80000 0.05100
C 	C 	0.38990 0.96060 0.18790 -0.10100
C 	C 	0.27600 0.92000 0.19710 0.00700
C 	C 	0.42470 0.00840 0.86090 0.44600
C 	C 	0.48740 0.94530 0.23250 0.03800
C 	C 	0.49600 0.93520 0.74630 0.06800
C 	C 	0.39960 0.02270 0.12270 0.39900
O 	O 	0.78300 0.70600 0.58000 -0.52600
O 	O 	0.56970 0.67780 0.50410 -0.65600
O 	O 	0.76980 0.71430 0.41990 -0.55200
O 	O 	0.83420 0.47620 0.09250 -0.47800
O 	O 	0.81410 0.46400 0.92110 -0.51300
O 	O 	0.05920 0.67530 0.42350 -0.44700
O 	O 	0.80040 0.87570 0.50090 -0.67600
O 	O 	0.16210 0.57760 0.37300 -0.28900
O 	O 	0.07100 0.66140 0.59390 -0.47700
O 	O 	0.90570 0.77860 0.65160 -0.46900
O 	O 	0.90130 0.79710 0.35930 -0.44600
O 	O 	0.00690 0.44360 0.87460 -0.47900
O 	O 	0.19160 0.59860 0.67330 -0.50100
O 	O 	0.02290 0.45440 0.13790 -0.53100
O 	O 	0.71700 0.29400 0.08000 -0.52500
O 	O 	0.93030 0.32220 0.00410 -0.65500
O 	O 	0.73020 0.28570 0.91990 -0.55200
O 	O 	0.66580 0.52380 0.59250 -0.47700
O 	O 	0.68590 0.53600 0.42110 -0.51400
O 	O 	0.44080 0.32470 0.92350 -0.44600
O 	O 	0.69960 0.12430 0.00090 -0.67500
O 	O 	0.33790 0.42240 0.87300 -0.28800
O 	O 	0.42900 0.33860 0.09390 -0.47700
O 	O 	0.59430 0.22140 0.15160 -0.46800
O 	O 	0.59870 0.20290 0.85930 -0.44600
O 	O 	0.49310 0.55640 0.37460 -0.48100
O 	O 	0.30840 0.40140 0.17330 -0.50100
O 	O 	0.47710 0.54560 0.63790 -0.52900
O 	O 	0.21700 0.20600 0.92000 -0.52500
O 	O 	0.43030 0.17780 0.99590 -0.65500
O 	O 	0.23020 0.21430 0.08010 -0.55200
O 	O 	0.16580 0.97620 0.40750 -0.47700
O 	O 	0.18590 0.96400 0.57890 -0.51400
O 	O 	0.94080 0.17530 0.07650 -0.44600
O 	O 	0.19960 0.37570 0.99910 -0.67400
O 	O 	0.83790 0.07760 0.12700 -0.28800
O 	O 	0.92900 0.16140 0.90610 -0.47800
O 	O 	0.09430 0.27860 0.84840 -0.46800
O 	O 	0.09870 0.29710 0.14070 -0.44600
O 	O 	0.99310 0.94360 0.62540 -0.48100
O 	O 	0.80840 0.09860 0.82670 -0.50200
O 	O 	0.97710 0.95440 0.36210 -0.52800
O 	O 	0.28300 0.79400 0.42000 -0.52500
O 	O 	0.06970 0.82220 0.49590 -0.65600
O 	O 	0.26980 0.78570 0.58010 -0.55200
O 	O 	0.33420 0.02380 0.90750 -0.47700
O 	O 	0.31410 0.03600 0.07890 -0.51400
O 	O 	0.55920 0.82470 0.57650 -0.44700
O 	O 	0.30040 0.62430 0.49910 -0.67600
O 	O 	0.66210 0.92240 0.62700 -0.28900
O 	O 	0.57100 0.83860 0.40610 -0.47700
O 	O 	0.40570 0.72140 0.34840 -0.46900
O 	O 	0.40130 0.70290 0.64070 -0.44600
O 	O 	0.50690 0.05640 0.12540 -0.48100
O 	O 	0.69160 0.90140 0.32670 -0.50200
O 	O 	0.52290 0.04560 0.86210 -0.52900
