data_crystal

_cell_length_a 10.19200
_cell_length_b 17.76400
_cell_length_c 24.43700
_cell_angle_alpha 90.00000
_cell_angle_beta  91.19000
_cell_angle_gamma 90.00000

_symmetry_space_group_name_	'P 1'
_symmetry_space_group_name_H-M	'P 1'

loop_
_symmetry_equiv_pos_as_xyz
  x,y,z

loop_
_atom_site_label
_atom_site_type_symbol
_atom_site_fract_x
_atom_site_fract_y
_atom_site_fract_z
_atom_site_charge
Zn	Zn	0.38811 0.60263 0.96190 1.16700
Zn	Zn	0.88747 0.56254 0.83331 1.20100
Zn	Zn	0.86934 0.75542 0.87182 1.19300
Zn	Zn	0.35137 0.89805 0.77475 1.16900
Zn	Zn	0.85468 0.95071 0.90470 1.20000
Zn	Zn	0.88811 0.89737 0.46190 1.16500
Zn	Zn	0.38747 0.93746 0.33331 1.20100
Zn	Zn	0.36934 0.74458 0.37182 1.19400
Zn	Zn	0.85137 0.60195 0.27475 1.16900
Zn	Zn	0.35468 0.54929 0.40470 1.20200
H 	H 	0.17250 0.52890 0.88890 -0.05800
H 	H 	0.16090 0.73350 0.94420 -0.02600
H 	H 	0.14620 0.77720 0.80940 -0.02400
H 	H 	0.14180 0.98830 0.85060 -0.04700
H 	H 	0.59240 0.72590 0.93220 -0.02500
H 	H 	0.60210 0.51830 0.88450 -0.04500
H 	H 	0.57380 0.77170 0.80280 -0.02900
H 	H 	0.57330 0.98280 0.84100 -0.04600
H 	H 	0.46800 0.89280 0.15400 0.02000
H 	H 	0.44580 0.69220 0.22800 0.02200
H 	H 	0.45180 0.63320 0.14380 0.05400
H 	H 	0.46730 0.83320 0.06930 0.06300
H 	H 	0.78500 0.70410 0.01550 0.02500
H 	H 	0.79900 0.90910 0.08480 0.02800
H 	H 	0.79350 0.85340 0.16990 0.04600
H 	H 	0.77990 0.64940 0.10130 0.05100
H 	H 	0.86700 0.32540 0.79380 0.03600
H 	H 	0.90070 0.31890 0.95760 0.03700
H 	H 	0.86080 0.19600 0.79120 0.05200
H 	H 	0.88760 0.18950 0.95500 0.05400
H 	H 	0.67250 0.97110 0.38890 -0.05800
H 	H 	0.66090 0.76650 0.44420 -0.02600
H 	H 	0.64620 0.72280 0.30940 -0.02500
H 	H 	0.64180 0.51170 0.35060 -0.04700
H 	H 	0.09240 0.77410 0.43220 -0.02500
H 	H 	0.10210 0.98170 0.38450 -0.04300
H 	H 	0.07380 0.72830 0.30280 -0.02900
H 	H 	0.07330 0.51720 0.34100 -0.04600
H 	H 	0.96800 0.60720 0.65400 0.02000
H 	H 	0.94580 0.80780 0.72800 0.02100
H 	H 	0.95180 0.86680 0.64380 0.05300
H 	H 	0.96730 0.66680 0.56930 0.06200
H 	H 	0.28500 0.79590 0.51550 0.02400
H 	H 	0.29900 0.59090 0.58480 0.02700
H 	H 	0.29350 0.64660 0.66990 0.04700
H 	H 	0.27990 0.85060 0.60130 0.05200
H 	H 	0.36700 0.17460 0.29380 0.03600
H 	H 	0.40070 0.18110 0.45760 0.03700
H 	H 	0.36080 0.30400 0.29120 0.05200
H 	H 	0.38760 0.31050 0.45500 0.05300
C 	C 	0.14550 0.57780 0.89630 0.10200
C 	C 	0.13900 0.68900 0.92620 0.11400
C 	C 	0.12120 0.82330 0.82400 0.10000
C 	C 	0.11850 0.93800 0.84670 0.11100
C 	C 	0.61840 0.68120 0.91595 0.10400
C 	C 	0.62360 0.56860 0.89010 0.09900
C 	C 	0.59900 0.81840 0.81656 0.11400
C 	C 	0.59810 0.93270 0.83730 0.10200
C 	C 	0.42260 0.83560 0.25292 0.38800
C 	C 	0.44930 0.79870 0.19909 -0.11900
C 	C 	0.46050 0.84070 0.15194 0.02500
C 	C 	0.44810 0.72070 0.19610 0.02000
C 	C 	0.45040 0.68550 0.14570 -0.05400
C 	C 	0.46060 0.80500 0.10120 -0.05700
C 	C 	0.45060 0.72700 0.09840 -0.03200
C 	C 	0.43180 0.68950 0.04360 0.29000
C 	C 	0.82250 0.84430 0.98558 0.40800
C 	C 	0.79840 0.81180 0.04147 -0.11000
C 	C 	0.78930 0.73420 0.04670 0.01200
C 	C 	0.79760 0.85690 0.08790 0.00900
C 	C 	0.79480 0.82320 0.13890 -0.04300
C 	C 	0.78660 0.70140 0.09810 -0.04300
C 	C 	0.79390 0.74600 0.14490 -0.04500
C 	C 	0.81070 0.70880 0.20030 0.31600
C 	C 	0.89910 0.41960 0.87740 0.32000
C 	C 	0.88800 0.33600 0.87596 -0.07400
C 	C 	0.87310 0.29810 0.82620 -0.01000
C 	C 	0.89240 0.29440 0.92410 -0.01100
C 	C 	0.86740 0.22070 0.82470 -0.02500
C 	C 	0.87160 0.17950 0.87290 -0.05800
C 	C 	0.88440 0.21690 0.92250 -0.02200
C 	C 	0.86400 0.09490 0.86980 0.32900
C 	C 	0.64550 0.92220 0.39630 0.10200
C 	C 	0.63900 0.81100 0.42620 0.11400
C 	C 	0.62120 0.67670 0.32400 0.10000
C 	C 	0.61850 0.56200 0.34670 0.11000
C 	C 	0.11840 0.81880 0.41595 0.10400
C 	C 	0.12360 0.93140 0.39010 0.09900
C 	C 	0.09900 0.68160 0.31656 0.11400
C 	C 	0.09810 0.56730 0.33730 0.10300
C 	C 	0.92260 0.66440 0.75292 0.38800
C 	C 	0.94930 0.70130 0.69909 -0.11900
C 	C 	0.96050 0.65930 0.65194 0.02500
C 	C 	0.94810 0.77930 0.69610 0.02000
C 	C 	0.95040 0.81450 0.64570 -0.05400
C 	C 	0.96060 0.69500 0.60120 -0.05700
C 	C 	0.95060 0.77300 0.59840 -0.03300
C 	C 	0.93180 0.81050 0.54360 0.29000
C 	C 	0.32250 0.65570 0.48558 0.41000
C 	C 	0.29840 0.68820 0.54147 -0.11300
C 	C 	0.28930 0.76580 0.54670 0.01400
C 	C 	0.29760 0.64310 0.58790 0.01100
C 	C 	0.29480 0.67680 0.63890 -0.04400
C 	C 	0.28660 0.79860 0.59810 -0.04400
C 	C 	0.29390 0.75400 0.64490 -0.04300
C 	C 	0.31070 0.79120 0.70030 0.31600
C 	C 	0.39910 0.08040 0.37740 0.32000
C 	C 	0.38800 0.16400 0.37596 -0.07400
C 	C 	0.37310 0.20190 0.32620 -0.01100
C 	C 	0.39240 0.20560 0.42410 -0.01200
C 	C 	0.36740 0.27930 0.32470 -0.02500
C 	C 	0.37160 0.32050 0.37290 -0.05900
C 	C 	0.38440 0.28310 0.42250 -0.02200
C 	C 	0.36400 0.40510 0.36980 0.32900
N 	N 	0.03530 0.60700 0.87775 -0.25100
N 	N 	0.03030 0.67950 0.89692 -0.21600
N 	N 	0.21510 0.62680 0.92722 -0.30600
N 	N 	0.01310 0.83380 0.85199 -0.23300
N 	N 	0.01220 0.90850 0.86718 -0.25000
N 	N 	0.19040 0.88710 0.81912 -0.30400
N 	N 	0.72840 0.60100 0.87040 -0.25200
N 	N 	0.72500 0.67450 0.88736 -0.23300
N 	N 	0.55080 0.61670 0.91939 -0.30900
N 	N 	0.70910 0.83000 0.84399 -0.21800
N 	N 	0.70810 0.90450 0.85806 -0.24500
N 	N 	0.52620 0.88100 0.81039 -0.30700
N 	N 	0.53530 0.89300 0.37775 -0.25100
N 	N 	0.53030 0.82050 0.39692 -0.21700
N 	N 	0.71510 0.87320 0.42722 -0.30600
N 	N 	0.51310 0.66620 0.35199 -0.23400
N 	N 	0.51220 0.59150 0.36718 -0.25200
N 	N 	0.69040 0.61290 0.31912 -0.30400
N 	N 	0.22840 0.89900 0.37040 -0.25100
N 	N 	0.22500 0.82550 0.38736 -0.23300
N 	N 	0.05080 0.88330 0.41939 -0.30700
N 	N 	0.20910 0.67000 0.34399 -0.21800
N 	N 	0.20810 0.59550 0.35806 -0.24400
N 	N 	0.02620 0.61900 0.31039 -0.30700
O 	O 	0.43120 0.90721 0.25701 -0.48600
O 	O 	0.38680 0.79596 0.29157 -0.50200
O 	O 	0.41130 0.72720 0.00174 -0.36200
O 	O 	0.43130 0.61650 0.04197 -0.47100
O 	O 	0.85100 0.80020 0.94897 -0.52300
O 	O 	0.81740 0.91510 0.97950 -0.48700
O 	O 	0.81140 0.63690 0.20033 -0.48000
O 	O 	0.82810 0.74680 0.24210 -0.34200
O 	O 	0.87560 0.45350 0.83144 -0.47700
O 	O 	0.92900 0.45226 0.92038 -0.32800
O 	O 	0.85350 0.05962 0.91457 -0.45800
O 	O 	0.87220 0.06320 0.82550 -0.33300
O 	O 	0.93120 0.59279 0.75701 -0.48700
O 	O 	0.88680 0.70404 0.79157 -0.50300
O 	O 	0.91130 0.77280 0.50174 -0.36400
O 	O 	0.93130 0.88350 0.54197 -0.47200
O 	O 	0.35100 0.69980 0.44897 -0.52200
O 	O 	0.31740 0.58490 0.47950 -0.48500
O 	O 	0.31140 0.86310 0.70033 -0.47900
O 	O 	0.32810 0.75320 0.74210 -0.34100
O 	O 	0.37560 0.04650 0.33144 -0.47800
O 	O 	0.42900 0.04774 0.42038 -0.32800
O 	O 	0.35350 0.44038 0.41457 -0.46100
O 	O 	0.37220 0.43680 0.32550 -0.33500
Zn	Zn	0.11189 0.10263 0.53810 1.16500
Zn	Zn	0.61253 0.06254 0.66669 1.20100
Zn	Zn	0.63066 0.25542 0.62818 1.19400
Zn	Zn	0.14863 0.39805 0.72525 1.16900
Zn	Zn	0.64532 0.45071 0.59530 1.20200
Zn	Zn	0.61189 0.39737 0.03810 1.16600
Zn	Zn	0.11253 0.43746 0.16669 1.20000
Zn	Zn	0.13066 0.24458 0.12818 1.19300
Zn	Zn	0.64863 0.10195 0.22525 1.16900
Zn	Zn	0.14532 0.04929 0.09530 1.20000
H 	H 	0.32750 0.02890 0.61110 -0.05800
H 	H 	0.33910 0.23350 0.55580 -0.02600
H 	H 	0.35380 0.27720 0.69060 -0.02500
H 	H 	0.35820 0.48830 0.64940 -0.04700
H 	H 	0.90760 0.22590 0.56780 -0.02500
H 	H 	0.89790 0.01830 0.61550 -0.04300
H 	H 	0.92620 0.27170 0.69720 -0.02900
H 	H 	0.92670 0.48280 0.65900 -0.04600
H 	H 	0.03200 0.39280 0.34600 0.02000
H 	H 	0.05420 0.19220 0.27200 0.02100
H 	H 	0.04820 0.13320 0.35620 0.05300
H 	H 	0.03270 0.33320 0.43070 0.06200
H 	H 	0.71500 0.20410 0.48450 0.02400
H 	H 	0.70100 0.40910 0.41520 0.02700
H 	H 	0.70650 0.35340 0.33010 0.04700
H 	H 	0.72010 0.14940 0.39870 0.05200
H 	H 	0.63300 0.82540 0.70620 0.03600
H 	H 	0.59930 0.81890 0.54240 0.03700
H 	H 	0.63920 0.69600 0.70880 0.05200
H 	H 	0.61240 0.68950 0.54500 0.05300
H 	H 	0.82750 0.47110 0.11110 -0.05800
H 	H 	0.83910 0.26650 0.05580 -0.02600
H 	H 	0.85380 0.22280 0.19060 -0.02400
H 	H 	0.85820 0.01170 0.14940 -0.04700
H 	H 	0.40760 0.27410 0.06780 -0.02500
H 	H 	0.39790 0.48170 0.11550 -0.04500
H 	H 	0.42620 0.22830 0.19720 -0.02900
H 	H 	0.42670 0.01720 0.15900 -0.04600
H 	H 	0.53200 0.10720 0.84600 0.02000
H 	H 	0.55420 0.30780 0.77200 0.02200
H 	H 	0.54820 0.36680 0.85620 0.05400
H 	H 	0.53270 0.16680 0.93070 0.06300
H 	H 	0.21500 0.29590 0.98450 0.02500
H 	H 	0.20100 0.09090 0.91520 0.02800
H 	H 	0.20650 0.14660 0.83010 0.04600
H 	H 	0.22010 0.35060 0.89870 0.05100
H 	H 	0.13300 0.67460 0.20620 0.03600
H 	H 	0.09930 0.68110 0.04240 0.03700
H 	H 	0.13920 0.80400 0.20880 0.05200
H 	H 	0.11240 0.81050 0.04500 0.05400
C 	C 	0.35450 0.07780 0.60370 0.10200
C 	C 	0.36100 0.18900 0.57380 0.11400
C 	C 	0.37880 0.32330 0.67600 0.10000
C 	C 	0.38150 0.43800 0.65330 0.11000
C 	C 	0.88160 0.18120 0.58405 0.10400
C 	C 	0.87640 0.06860 0.60990 0.09900
C 	C 	0.90100 0.31840 0.68344 0.11400
C 	C 	0.90190 0.43270 0.66270 0.10300
C 	C 	0.07740 0.33560 0.24708 0.38800
C 	C 	0.05070 0.29870 0.30091 -0.11900
C 	C 	0.03950 0.34070 0.34806 0.02500
C 	C 	0.05190 0.22070 0.30390 0.02000
C 	C 	0.04960 0.18550 0.35430 -0.05400
C 	C 	0.03940 0.30500 0.39880 -0.05700
C 	C 	0.04940 0.22700 0.40160 -0.03300
C 	C 	0.06820 0.18950 0.45640 0.29000
C 	C 	0.67750 0.34430 0.51442 0.41000
C 	C 	0.70160 0.31180 0.45853 -0.11300
C 	C 	0.71070 0.23420 0.45330 0.01400
C 	C 	0.70240 0.35690 0.41210 0.01100
C 	C 	0.70520 0.32320 0.36110 -0.04400
C 	C 	0.71340 0.20140 0.40190 -0.04400
C 	C 	0.70610 0.24600 0.35510 -0.04300
C 	C 	0.68930 0.20880 0.29970 0.31600
C 	C 	0.60090 0.91960 0.62260 0.32000
C 	C 	0.61200 0.83600 0.62404 -0.07400
C 	C 	0.62690 0.79810 0.67380 -0.01100
C 	C 	0.60760 0.79440 0.57590 -0.01200
C 	C 	0.63260 0.72070 0.67530 -0.02500
C 	C 	0.62840 0.67950 0.62710 -0.05900
C 	C 	0.61560 0.71690 0.57750 -0.02200
C 	C 	0.63600 0.59490 0.63020 0.32900
C 	C 	0.85450 0.42220 0.10370 0.10200
C 	C 	0.86100 0.31100 0.07380 0.11400
C 	C 	0.87880 0.17670 0.17600 0.10000
C 	C 	0.88150 0.06200 0.15330 0.11100
C 	C 	0.38160 0.31880 0.08405 0.10400
C 	C 	0.37640 0.43140 0.10990 0.09900
C 	C 	0.40100 0.18160 0.18344 0.11400
C 	C 	0.40190 0.06730 0.16270 0.10200
C 	C 	0.57740 0.16440 0.74708 0.38800
C 	C 	0.55070 0.20130 0.80091 -0.11900
C 	C 	0.53950 0.15930 0.84806 0.02500
C 	C 	0.55190 0.27930 0.80390 0.02000
C 	C 	0.54960 0.31450 0.85430 -0.05400
C 	C 	0.53940 0.19500 0.89880 -0.05700
C 	C 	0.54940 0.27300 0.90160 -0.03200
C 	C 	0.56820 0.31050 0.95640 0.29000
C 	C 	0.17750 0.15570 0.01442 0.40800
C 	C 	0.20160 0.18820 0.95853 -0.11000
C 	C 	0.21070 0.26580 0.95330 0.01200
C 	C 	0.20240 0.14310 0.91210 0.00900
C 	C 	0.20520 0.17680 0.86110 -0.04300
C 	C 	0.21340 0.29860 0.90190 -0.04300
C 	C 	0.20610 0.25400 0.85510 -0.04500
C 	C 	0.18930 0.29120 0.79970 0.31600
C 	C 	0.10090 0.58040 0.12260 0.32000
C 	C 	0.11200 0.66400 0.12404 -0.07400
C 	C 	0.12690 0.70190 0.17380 -0.01000
C 	C 	0.10760 0.70560 0.07590 -0.01100
C 	C 	0.13260 0.77930 0.17530 -0.02500
C 	C 	0.12840 0.82050 0.12710 -0.05800
C 	C 	0.11560 0.78310 0.07750 -0.02200
C 	C 	0.13600 0.90510 0.13020 0.32900
N 	N 	0.46470 0.10700 0.62225 -0.25100
N 	N 	0.46970 0.17950 0.60308 -0.21700
N 	N 	0.28490 0.12680 0.57278 -0.30600
N 	N 	0.48690 0.33380 0.64801 -0.23400
N 	N 	0.48780 0.40850 0.63282 -0.25200
N 	N 	0.30960 0.38710 0.68088 -0.30400
N 	N 	0.77160 0.10100 0.62960 -0.25100
N 	N 	0.77500 0.17450 0.61264 -0.23300
N 	N 	0.94920 0.11670 0.58061 -0.30700
N 	N 	0.79090 0.33000 0.65601 -0.21800
N 	N 	0.79190 0.40450 0.64194 -0.24400
N 	N 	0.97380 0.38100 0.68961 -0.30700
N 	N 	0.96470 0.39300 0.12225 -0.25100
N 	N 	0.96970 0.32050 0.10308 -0.21600
N 	N 	0.78490 0.37320 0.07278 -0.30600
N 	N 	0.98690 0.16620 0.14801 -0.23300
N 	N 	0.98780 0.09150 0.13282 -0.25000
N 	N 	0.80960 0.11290 0.18088 -0.30400
N 	N 	0.27160 0.39900 0.12960 -0.25200
N 	N 	0.27500 0.32550 0.11264 -0.23300
N 	N 	0.44920 0.38330 0.08061 -0.30900
N 	N 	0.29090 0.17000 0.15601 -0.21800
N 	N 	0.29190 0.09550 0.14194 -0.24500
N 	N 	0.47380 0.11900 0.18961 -0.30700
O 	O 	0.06880 0.40721 0.24299 -0.48700
O 	O 	0.11320 0.29596 0.20843 -0.50300
O 	O 	0.08870 0.22720 0.49826 -0.36400
O 	O 	0.06870 0.11650 0.45803 -0.47200
O 	O 	0.64900 0.30020 0.55103 -0.52200
O 	O 	0.68260 0.41510 0.52050 -0.48500
O 	O 	0.68860 0.13690 0.29967 -0.47900
O 	O 	0.67190 0.24680 0.25790 -0.34100
O 	O 	0.62440 0.95350 0.66856 -0.47800
O 	O 	0.57100 0.95226 0.57962 -0.32800
O 	O 	0.64650 0.55962 0.58543 -0.46100
O 	O 	0.62780 0.56320 0.67450 -0.33500
O 	O 	0.56880 0.09279 0.74299 -0.48600
O 	O 	0.61320 0.20404 0.70843 -0.50200
O 	O 	0.58870 0.27280 0.99826 -0.36200
O 	O 	0.56870 0.38350 0.95803 -0.47100
O 	O 	0.14900 0.19980 0.05103 -0.52300
O 	O 	0.18260 0.08490 0.02050 -0.48700
O 	O 	0.18860 0.36310 0.79967 -0.48000
O 	O 	0.17190 0.25320 0.75790 -0.34200
O 	O 	0.12440 0.54650 0.16856 -0.47700
O 	O 	0.07100 0.54774 0.07962 -0.32800
O 	O 	0.14650 0.94038 0.08543 -0.45800
O 	O 	0.12780 0.93680 0.17450 -0.33300
