data_crystal

_cell_length_a 15.04730
_cell_length_b 17.78920
_cell_length_c 17.78920
_cell_angle_alpha 90.00000
_cell_angle_beta  90.00000
_cell_angle_gamma 90.00000

_symmetry_space_group_name_	'P 1'
_symmetry_space_group_name_H-M	'P 1'

loop_
_symmetry_equiv_pos_as_xyz
  x,y,z

loop_
_atom_site_label
_atom_site_type_symbol
_atom_site_fract_x
_atom_site_fract_y
_atom_site_fract_z
_atom_site_charge
Zn	Zn	0.87156 0.75000 0.75000 1.26500
Zn	Zn	0.37156 0.75000 0.75000 1.26500
Si	Si	0.62147 0.75000 0.75000 3.36000
Si	Si	0.12147 0.75000 0.75000 3.36000
H 	H 	0.77110 0.82680 0.87810 0.04600
H 	H 	0.77260 0.84040 0.00750 0.08300
H 	H 	0.97670 0.69230 0.01540 0.08500
H 	H 	0.97300 0.68630 0.88520 0.04200
H 	H 	0.88010 0.66160 0.13060 0.06800
H 	H 	0.87520 0.89930 0.24370 0.06200
H 	H 	0.87070 0.88890 0.11460 0.04900
H 	H 	0.77110 0.67320 0.62190 0.04400
H 	H 	0.77260 0.65960 0.49250 0.08400
H 	H 	0.97670 0.80770 0.48460 0.08500
H 	H 	0.97300 0.81370 0.61480 0.04200
H 	H 	0.88010 0.83840 0.36940 0.06700
H 	H 	0.87520 0.60070 0.25630 0.06300
H 	H 	0.87070 0.61110 0.38540 0.04900
H 	H 	0.77110 0.62190 0.82680 0.04400
H 	H 	0.77260 0.49250 0.84040 0.08400
H 	H 	0.97670 0.48460 0.69230 0.08600
H 	H 	0.97300 0.61480 0.68630 0.04200
H 	H 	0.88010 0.36940 0.66160 0.06700
H 	H 	0.87520 0.25630 0.89930 0.06200
H 	H 	0.87070 0.38540 0.88890 0.04900
H 	H 	0.77110 0.87810 0.67320 0.04400
H 	H 	0.77260 0.00750 0.65960 0.08400
H 	H 	0.97670 0.01540 0.80770 0.08400
H 	H 	0.97300 0.88520 0.81370 0.04200
H 	H 	0.88010 0.13060 0.83840 0.06700
H 	H 	0.87520 0.24370 0.60070 0.06300
H 	H 	0.87070 0.11460 0.61110 0.05000
H 	H 	0.27110 0.82680 0.62190 0.04400
H 	H 	0.27260 0.84040 0.49250 0.08500
H 	H 	0.47670 0.69230 0.48460 0.08600
H 	H 	0.47300 0.68630 0.61480 0.04200
H 	H 	0.38010 0.66160 0.36940 0.06700
H 	H 	0.37520 0.89930 0.25630 0.06300
H 	H 	0.37070 0.88890 0.38540 0.04900
H 	H 	0.27110 0.67320 0.87810 0.04600
H 	H 	0.27260 0.65960 0.00750 0.07800
H 	H 	0.47670 0.80770 0.01540 0.07900
H 	H 	0.47300 0.81370 0.88520 0.04500
H 	H 	0.38010 0.83840 0.13060 0.06800
H 	H 	0.37520 0.60070 0.24370 0.06200
H 	H 	0.37070 0.61110 0.11460 0.05100
H 	H 	0.27110 0.62190 0.67320 0.04400
H 	H 	0.27260 0.49250 0.65960 0.08400
H 	H 	0.47670 0.48460 0.80770 0.08600
H 	H 	0.47300 0.61480 0.81370 0.04200
H 	H 	0.38010 0.36940 0.83840 0.06700
H 	H 	0.37520 0.25630 0.60070 0.06300
H 	H 	0.37070 0.38540 0.61110 0.04900
H 	H 	0.27110 0.87810 0.82680 0.04700
H 	H 	0.27260 0.00750 0.84040 0.07600
H 	H 	0.47670 0.01540 0.69230 0.08000
H 	H 	0.47300 0.88520 0.68630 0.04400
H 	H 	0.38010 0.13060 0.66160 0.06900
H 	H 	0.37520 0.24370 0.89930 0.06200
H 	H 	0.37070 0.11460 0.88890 0.05000
C 	C 	0.81400 0.79983 0.90653 0.09300
C 	C 	0.81380 0.80762 0.98369 -0.12100
C 	C 	0.87475 0.76680 0.02640 0.07300
C 	C 	0.93420 0.72110 0.98827 -0.12500
C 	C 	0.93130 0.71739 0.91061 0.09700
C 	C 	0.87629 0.77300 0.10940 0.00800
C 	C 	0.87827 0.70970 0.15379 -0.08400
C 	C 	0.87764 0.71450 0.23265 0.03500
C 	C 	0.87550 0.85090 0.22110 -0.06300
C 	C 	0.87370 0.84480 0.14460 -0.04200
C 	C 	0.81400 0.70017 0.59347 0.09500
C 	C 	0.81380 0.69238 0.51631 -0.12700
C 	C 	0.87475 0.73320 0.47360 0.07600
C 	C 	0.93420 0.77890 0.51173 -0.12700
C 	C 	0.93130 0.78261 0.58939 0.09800
C 	C 	0.87629 0.72700 0.39060 0.00600
C 	C 	0.87827 0.79030 0.34621 -0.08300
C 	C 	0.87764 0.78550 0.26735 0.03300
C 	C 	0.87550 0.64910 0.27890 -0.06400
C 	C 	0.87370 0.65520 0.35540 -0.04000
C 	C 	0.81400 0.59347 0.79983 0.09500
C 	C 	0.81380 0.51631 0.80762 -0.12600
C 	C 	0.87475 0.47360 0.76680 0.07600
C 	C 	0.93420 0.51173 0.72110 -0.12700
C 	C 	0.93130 0.58939 0.71739 0.09800
C 	C 	0.87629 0.39060 0.77300 0.00600
C 	C 	0.87827 0.34621 0.70970 -0.08300
C 	C 	0.87764 0.26735 0.71450 0.03400
C 	C 	0.87550 0.27890 0.85090 -0.06400
C 	C 	0.87370 0.35540 0.84480 -0.04100
C 	C 	0.81400 0.90653 0.70017 0.09400
C 	C 	0.81380 0.98369 0.69238 -0.12500
C 	C 	0.87475 0.02640 0.73320 0.07400
C 	C 	0.93420 0.98827 0.77890 -0.12400
C 	C 	0.93130 0.91061 0.78261 0.09700
C 	C 	0.87629 0.10940 0.72700 0.00700
C 	C 	0.87827 0.15379 0.79030 -0.08300
C 	C 	0.87764 0.23265 0.78550 0.03400
C 	C 	0.87550 0.22110 0.64910 -0.06300
C 	C 	0.87370 0.14460 0.65520 -0.04100
C 	C 	0.31400 0.79983 0.59347 0.09500
C 	C 	0.31380 0.80762 0.51631 -0.12700
C 	C 	0.37475 0.76680 0.47360 0.07700
C 	C 	0.43420 0.72110 0.51173 -0.12700
C 	C 	0.43130 0.71739 0.58939 0.09800
C 	C 	0.37629 0.77300 0.39060 0.00600
C 	C 	0.37827 0.70970 0.34621 -0.08200
C 	C 	0.37764 0.71450 0.26735 0.03200
C 	C 	0.37550 0.85090 0.27890 -0.06500
C 	C 	0.37370 0.84480 0.35540 -0.04000
C 	C 	0.31400 0.70017 0.90653 0.08800
C 	C 	0.31380 0.69238 0.98369 -0.11200
C 	C 	0.37475 0.73320 0.02640 0.06300
C 	C 	0.43420 0.77890 0.98827 -0.11200
C 	C 	0.43130 0.78261 0.91061 0.09100
C 	C 	0.37629 0.72700 0.10940 0.01300
C 	C 	0.37827 0.79030 0.15379 -0.08700
C 	C 	0.37764 0.78550 0.23265 0.03600
C 	C 	0.37550 0.64910 0.22110 -0.06100
C 	C 	0.37370 0.65520 0.14460 -0.04500
C 	C 	0.31400 0.59347 0.70017 0.09500
C 	C 	0.31380 0.51631 0.69238 -0.12700
C 	C 	0.37475 0.47360 0.73320 0.07700
C 	C 	0.43420 0.51173 0.77890 -0.12700
C 	C 	0.43130 0.58939 0.78261 0.09900
C 	C 	0.37629 0.39060 0.72700 0.00600
C 	C 	0.37827 0.34621 0.79030 -0.08200
C 	C 	0.37764 0.26735 0.78550 0.03200
C 	C 	0.37550 0.27890 0.64910 -0.06500
C 	C 	0.37370 0.35540 0.65520 -0.03900
C 	C 	0.31400 0.90653 0.79983 0.08700
C 	C 	0.31380 0.98369 0.80762 -0.10800
C 	C 	0.37475 0.02640 0.76680 0.06100
C 	C 	0.43420 0.98827 0.72110 -0.11300
C 	C 	0.43130 0.91061 0.71739 0.09200
C 	C 	0.37629 0.10940 0.77300 0.01300
C 	C 	0.37827 0.15379 0.70970 -0.08700
C 	C 	0.37764 0.23265 0.71450 0.03700
C 	C 	0.37550 0.22110 0.85090 -0.06100
C 	C 	0.37370 0.14460 0.84480 -0.04500
N 	N 	0.87193 0.75602 0.86984 -0.21600
N 	N 	0.87193 0.74398 0.63016 -0.21700
N 	N 	0.87193 0.63016 0.75602 -0.21600
N 	N 	0.87193 0.86984 0.74398 -0.21600
N 	N 	0.37193 0.75602 0.63016 -0.21600
N 	N 	0.37193 0.74398 0.86984 -0.21400
N 	N 	0.37193 0.63016 0.74398 -0.21600
N 	N 	0.37193 0.86984 0.75602 -0.21300
F 	F 	0.62137 0.69930 0.82896 -0.78800
F 	F 	0.62137 0.80070 0.67104 -0.78800
F 	F 	0.62137 0.67104 0.69930 -0.78800
F 	F 	0.62137 0.82896 0.80070 -0.78800
F 	F 	0.12137 0.69930 0.67104 -0.78800
F 	F 	0.12137 0.80070 0.82896 -0.78700
F 	F 	0.12137 0.67104 0.80070 -0.78800
F 	F 	0.12137 0.82896 0.69930 -0.78800
F 	F 	0.73430 0.75000 0.75000 -0.91200
F 	F 	0.50870 0.75000 0.75000 -0.91200
F 	F 	0.23430 0.75000 0.75000 -0.91200
F 	F 	0.00870 0.75000 0.75000 -0.91100
Zn	Zn	0.62844 0.25000 0.25000 1.26400
Zn	Zn	0.12844 0.25000 0.25000 1.26400
Si	Si	0.87853 0.25000 0.25000 3.35900
Si	Si	0.37853 0.25000 0.25000 3.35900
H 	H 	0.72890 0.17320 0.37810 0.04400
H 	H 	0.72740 0.15960 0.50750 0.08500
H 	H 	0.52330 0.30770 0.51540 0.08600
H 	H 	0.52700 0.31370 0.38520 0.04200
H 	H 	0.61990 0.33840 0.63060 0.06700
H 	H 	0.62480 0.10070 0.74370 0.06300
H 	H 	0.62930 0.11110 0.61460 0.04900
H 	H 	0.72890 0.32680 0.12190 0.04600
H 	H 	0.72740 0.34040 0.99250 0.07800
H 	H 	0.52330 0.19230 0.98460 0.07900
H 	H 	0.52700 0.18630 0.11480 0.04500
H 	H 	0.61990 0.16160 0.86940 0.06800
H 	H 	0.62480 0.39930 0.75630 0.06200
H 	H 	0.62930 0.38890 0.88540 0.05100
H 	H 	0.72890 0.37810 0.32680 0.04400
H 	H 	0.72740 0.50750 0.34040 0.08400
H 	H 	0.52330 0.51540 0.19230 0.08600
H 	H 	0.52700 0.38520 0.18630 0.04200
H 	H 	0.61990 0.63060 0.16160 0.06700
H 	H 	0.62480 0.74370 0.39930 0.06300
H 	H 	0.62930 0.61460 0.38890 0.04900
H 	H 	0.72890 0.12190 0.17320 0.04700
H 	H 	0.72740 0.99250 0.15960 0.07600
H 	H 	0.52330 0.98460 0.30770 0.08000
H 	H 	0.52700 0.11480 0.31370 0.04400
H 	H 	0.61990 0.86940 0.33840 0.06900
H 	H 	0.62480 0.75630 0.10070 0.06200
H 	H 	0.62930 0.88540 0.11110 0.05000
H 	H 	0.22890 0.17320 0.12190 0.04500
H 	H 	0.22740 0.15960 0.99250 0.08200
H 	H 	0.02330 0.30770 0.98460 0.08500
H 	H 	0.02700 0.31370 0.11480 0.04200
H 	H 	0.11990 0.33840 0.86940 0.06800
H 	H 	0.12480 0.10070 0.75630 0.06200
H 	H 	0.12930 0.11110 0.88540 0.04900
H 	H 	0.22890 0.32680 0.37810 0.04400
H 	H 	0.22740 0.34040 0.50750 0.08400
H 	H 	0.02330 0.19230 0.51540 0.08500
H 	H 	0.02700 0.18630 0.38520 0.04200
H 	H 	0.11990 0.16160 0.63060 0.06700
H 	H 	0.12480 0.39930 0.74370 0.06300
H 	H 	0.12930 0.38890 0.61460 0.04900
H 	H 	0.22890 0.37810 0.17320 0.04400
H 	H 	0.22740 0.50750 0.15960 0.08400
H 	H 	0.02330 0.51540 0.30770 0.08600
H 	H 	0.02700 0.38520 0.31370 0.04200
H 	H 	0.11990 0.63060 0.33840 0.06700
H 	H 	0.12480 0.74370 0.10070 0.06200
H 	H 	0.12930 0.61460 0.11110 0.04900
H 	H 	0.22890 0.12190 0.32680 0.04400
H 	H 	0.22740 0.99250 0.34040 0.08400
H 	H 	0.02330 0.98460 0.19230 0.08400
H 	H 	0.02700 0.11480 0.18630 0.04200
H 	H 	0.11990 0.86940 0.16160 0.06700
H 	H 	0.12480 0.75630 0.39930 0.06300
H 	H 	0.12930 0.88540 0.38890 0.05000
C 	C 	0.68600 0.20017 0.40653 0.09500
C 	C 	0.68620 0.19238 0.48369 -0.12700
C 	C 	0.62525 0.23320 0.52640 0.07700
C 	C 	0.56580 0.27890 0.48827 -0.12700
C 	C 	0.56870 0.28261 0.41061 0.09800
C 	C 	0.62371 0.22700 0.60940 0.00600
C 	C 	0.62173 0.29030 0.65379 -0.08200
C 	C 	0.62236 0.28550 0.73265 0.03200
C 	C 	0.62450 0.14910 0.72110 -0.06500
C 	C 	0.62630 0.15520 0.64460 -0.04000
C 	C 	0.68600 0.29983 0.09347 0.08800
C 	C 	0.68620 0.30762 0.01631 -0.11200
C 	C 	0.62525 0.26680 0.97360 0.06300
C 	C 	0.56580 0.22110 0.01173 -0.11200
C 	C 	0.56870 0.21739 0.08939 0.09100
C 	C 	0.62371 0.27300 0.89060 0.01300
C 	C 	0.62173 0.20970 0.84621 -0.08700
C 	C 	0.62236 0.21450 0.76735 0.03600
C 	C 	0.62450 0.35090 0.77890 -0.06100
C 	C 	0.62630 0.34480 0.85540 -0.04500
C 	C 	0.68600 0.40653 0.29983 0.09500
C 	C 	0.68620 0.48369 0.30762 -0.12700
C 	C 	0.62525 0.52640 0.26680 0.07700
C 	C 	0.56580 0.48827 0.22110 -0.12700
C 	C 	0.56870 0.41061 0.21739 0.09900
C 	C 	0.62371 0.60940 0.27300 0.00600
C 	C 	0.62173 0.65379 0.20970 -0.08200
C 	C 	0.62236 0.73265 0.21450 0.03200
C 	C 	0.62450 0.72110 0.35090 -0.06500
C 	C 	0.62630 0.64460 0.34480 -0.03900
C 	C 	0.68600 0.09347 0.20017 0.08700
C 	C 	0.68620 0.01631 0.19238 -0.10800
C 	C 	0.62525 0.97360 0.23320 0.06100
C 	C 	0.56580 0.01173 0.27890 -0.11300
C 	C 	0.56870 0.08939 0.28261 0.09200
C 	C 	0.62371 0.89060 0.22700 0.01300
C 	C 	0.62173 0.84621 0.29030 -0.08700
C 	C 	0.62236 0.76735 0.28550 0.03700
C 	C 	0.62450 0.77890 0.14910 -0.06100
C 	C 	0.62630 0.85540 0.15520 -0.04500
C 	C 	0.18600 0.20017 0.09347 0.09300
C 	C 	0.18620 0.19238 0.01631 -0.12100
C 	C 	0.12525 0.23320 0.97360 0.07300
C 	C 	0.06580 0.27890 0.01173 -0.12500
C 	C 	0.06870 0.28261 0.08939 0.09700
C 	C 	0.12371 0.22700 0.89060 0.00800
C 	C 	0.12173 0.29030 0.84621 -0.08400
C 	C 	0.12236 0.28550 0.76735 0.03500
C 	C 	0.12450 0.14910 0.77890 -0.06300
C 	C 	0.12630 0.15520 0.85540 -0.04200
C 	C 	0.18600 0.29983 0.40653 0.09500
C 	C 	0.18620 0.30762 0.48369 -0.12700
C 	C 	0.12525 0.26680 0.52640 0.07600
C 	C 	0.06580 0.22110 0.48827 -0.12700
C 	C 	0.06870 0.21739 0.41061 0.09800
C 	C 	0.12371 0.27300 0.60940 0.00600
C 	C 	0.12173 0.20970 0.65379 -0.08300
C 	C 	0.12236 0.21450 0.73265 0.03300
C 	C 	0.12450 0.35090 0.72110 -0.06400
C 	C 	0.12630 0.34480 0.64460 -0.04000
C 	C 	0.18600 0.40653 0.20017 0.09500
C 	C 	0.18620 0.48369 0.19238 -0.12600
C 	C 	0.12525 0.52640 0.23320 0.07600
C 	C 	0.06580 0.48827 0.27890 -0.12700
C 	C 	0.06870 0.41061 0.28261 0.09800
C 	C 	0.12371 0.60940 0.22700 0.00600
C 	C 	0.12173 0.65379 0.29030 -0.08300
C 	C 	0.12236 0.73265 0.28550 0.03400
C 	C 	0.12450 0.72110 0.14910 -0.06400
C 	C 	0.12630 0.64460 0.15520 -0.04100
C 	C 	0.18600 0.09347 0.29983 0.09400
C 	C 	0.18620 0.01631 0.30762 -0.12500
C 	C 	0.12525 0.97360 0.26680 0.07400
C 	C 	0.06580 0.01173 0.22110 -0.12400
C 	C 	0.06870 0.08939 0.21739 0.09700
C 	C 	0.12371 0.89060 0.27300 0.00700
C 	C 	0.12173 0.84621 0.20970 -0.08300
C 	C 	0.12236 0.76735 0.21450 0.03400
C 	C 	0.12450 0.77890 0.35090 -0.06300
C 	C 	0.12630 0.85540 0.34480 -0.04100
N 	N 	0.62807 0.24398 0.36984 -0.21600
N 	N 	0.62807 0.25602 0.13016 -0.21400
N 	N 	0.62807 0.36984 0.25602 -0.21600
N 	N 	0.62807 0.13016 0.24398 -0.21300
N 	N 	0.12807 0.24398 0.13016 -0.21600
N 	N 	0.12807 0.25602 0.36984 -0.21700
N 	N 	0.12807 0.36984 0.24398 -0.21600
N 	N 	0.12807 0.13016 0.25602 -0.21600
F 	F 	0.87863 0.30070 0.32896 -0.78800
F 	F 	0.87863 0.19930 0.17104 -0.78700
F 	F 	0.87863 0.32896 0.19930 -0.78800
F 	F 	0.87863 0.17104 0.30070 -0.78800
F 	F 	0.37863 0.30070 0.17104 -0.78800
F 	F 	0.37863 0.19930 0.32896 -0.78800
F 	F 	0.37863 0.32896 0.30070 -0.78800
F 	F 	0.37863 0.17104 0.19930 -0.78800
F 	F 	0.76570 0.25000 0.25000 -0.91200
F 	F 	0.99130 0.25000 0.25000 -0.91100
F 	F 	0.26570 0.25000 0.25000 -0.91200
F 	F 	0.49130 0.25000 0.25000 -0.91200
