data_crystal

_cell_length_a 13.86690
_cell_length_b 14.89320
_cell_length_c 15.02730
_cell_angle_alpha 119.18800
_cell_angle_beta  116.93300
_cell_angle_gamma 90.97630

_symmetry_space_group_name_	'P 1'
_symmetry_space_group_name_H-M	'P 1'

loop_
_symmetry_equiv_pos_as_xyz
  x,y,z

loop_
_atom_site_label
_atom_site_type_symbol
_atom_site_fract_x
_atom_site_fract_y
_atom_site_fract_z
_atom_site_charge
Mn	Mn	0.28716 0.03716 0.07432 1.23200
Mn	Mn	0.71284 0.96284 0.92568 1.33500
Mn	Mn	-0.00000 0.00000 -0.00000 1.17400
Mn	Mn	0.50000 0.00000 -0.00000 1.18400
H 	H 	0.35350 0.02980 0.40180 0.03800
H 	H 	0.06840 0.11550 0.27980 0.01100
H 	H 	0.04360 0.12960 0.43000 0.03800
H 	H 	0.05210 0.12890 0.61420 0.04000
H 	H 	0.09710 0.12020 0.77880 0.02700
H 	H 	0.37190 0.02870 0.78400 0.03100
H 	H 	0.39360 0.90600 0.59760 -0.01300
H 	H 	0.38900 0.90630 0.48960 -0.02400
H 	H 	0.18990 0.84500 0.38280 0.19000
H 	H 	0.24410 0.76230 0.41320 0.17500
H 	H 	0.19640 0.84170 0.49020 0.19700
H 	H 	0.50750 0.09460 0.62820 -0.03800
H 	H 	0.51240 0.09660 0.73760 -0.02600
H 	H 	0.43570 0.24370 0.77300 0.19800
H 	H 	0.56000 0.27080 0.79560 0.19400
H 	H 	0.45100 0.24620 0.67480 0.18600
H 	H 	0.54830 0.37200 0.40180 0.04700
H 	H 	0.71140 0.16430 0.27980 0.00600
H 	H 	0.88640 0.30040 0.43000 0.05700
H 	H 	0.06210 0.48530 0.61420 0.07000
H 	H 	0.18170 0.65860 0.77880 0.02500
H 	H 	0.91210 0.75530 0.78400 0.03000
H 	H 	0.70400 0.69160 0.59760 0.01800
H 	H 	0.60060 0.58330 0.48960 0.00500
H 	H 	0.69290 0.53780 0.38280 0.14200
H 	H 	0.66910 0.65090 0.41320 0.13900
H 	H 	0.79380 0.64850 0.49020 0.15400
H 	H 	0.62070 0.53360 0.62820 0.00300
H 	H 	0.72520 0.64100 0.73760 0.01600
H 	H 	0.83730 0.52930 0.77300 0.17900
H 	H 	0.73560 0.52480 0.79560 0.17500
H 	H 	0.72380 0.42860 0.67480 0.16500
H 	H 	0.64650 0.97020 0.59820 0.06300
H 	H 	0.93160 0.88450 0.72020 0.03900
H 	H 	0.95640 0.87040 0.57000 0.06600
H 	H 	0.94790 0.87110 0.38580 0.07000
H 	H 	0.90290 0.87980 0.22120 0.02900
H 	H 	0.62810 0.97130 0.21600 0.03800
H 	H 	0.60640 0.09400 0.40240 0.04400
H 	H 	0.61100 0.09370 0.51040 0.03600
H 	H 	0.81010 0.15500 0.61720 0.11400
H 	H 	0.75590 0.23770 0.58680 0.11700
H 	H 	0.80360 0.15830 0.50980 0.11600
H 	H 	0.49250 0.90540 0.37180 0.05100
H 	H 	0.48760 0.90340 0.26240 0.04900
H 	H 	0.56430 0.75630 0.22700 0.10100
H 	H 	0.44000 0.72920 0.20440 0.09300
H 	H 	0.54900 0.75380 0.32520 0.10700
H 	H 	0.45170 0.62800 0.59820 0.05500
H 	H 	0.28860 0.83570 0.72020 0.04300
H 	H 	0.11360 0.69960 0.57000 0.05000
H 	H 	0.93790 0.51470 0.38580 0.03300
H 	H 	0.81830 0.34140 0.22120 0.03100
H 	H 	0.08790 0.24470 0.21600 0.04000
H 	H 	0.29600 0.30840 0.40240 0.01200
H 	H 	0.39940 0.41670 0.51040 0.00400
H 	H 	0.30710 0.46220 0.61720 0.16400
H 	H 	0.33090 0.34910 0.58680 0.15600
H 	H 	0.20620 0.35150 0.50980 0.16200
H 	H 	0.37930 0.46640 0.37180 0.00700
H 	H 	0.27480 0.35900 0.26240 0.00200
H 	H 	0.16270 0.47070 0.22700 0.11800
H 	H 	0.26440 0.47520 0.20440 0.11000
H 	H 	0.27620 0.57140 0.32520 0.12800
C 	C 	0.22908 0.05948 0.22996 0.33000
C 	C 	0.21228 0.07108 0.32636 -0.11300
C 	C 	0.29070 0.04960 0.40740 -0.05500
C 	C 	0.27576 0.05756 0.49532 0.01700
C 	C 	0.12103 0.10083 0.33506 -0.01300
C 	C 	0.10604 0.10934 0.42408 -0.08900
C 	C 	0.18341 0.08791 0.50382 -0.01300
C 	C 	0.18826 0.08766 0.60392 -0.01400
C 	C 	0.11744 0.10974 0.64908 -0.08500
C 	C 	0.14391 0.10331 0.74602 0.00200
C 	C 	0.26217 0.06287 0.89794 0.34900
C 	C 	0.23658 0.07288 0.79576 -0.10100
C 	C 	0.30785 0.04975 0.75010 -0.05300
C 	C 	0.28355 0.05795 0.65490 0.02400
C 	C 	0.34762 0.03532 0.59064 -0.17000
C 	C 	0.34910 0.91760 0.53280 0.21700
C 	C 	0.23510 0.83450 0.44740 -0.55800
C 	C 	0.47040 0.11130 0.67500 0.17400
C 	C 	0.48010 0.22790 0.73460 -0.55600
C 	C 	0.50088 0.17048 0.22996 0.33700
C 	C 	0.61408 0.25528 0.32636 -0.11500
C 	C 	0.61670 0.35780 0.40740 -0.03100
C 	C 	0.71956 0.43776 0.49532 0.00200
C 	C 	0.71403 0.23423 0.33506 0.00300
C 	C 	0.81804 0.31474 0.42408 -0.08100
C 	C 	0.82041 0.41591 0.50382 -0.00800
C 	C 	0.91566 0.51626 0.60392 0.05500
C 	C 	0.03164 0.53934 0.64908 -0.14600
C 	C 	0.10211 0.64271 0.74602 0.05800
C 	C 	0.13577 0.83507 0.89794 0.36400
C 	C 	0.05918 0.72288 0.79576 -0.14200
C 	C 	0.94225 0.70035 0.75010 0.02300
C 	C 	0.87135 0.59695 0.65490 -0.02300
C 	C 	0.74302 0.55532 0.59064 -0.05500
C 	C 	0.68370 0.61520 0.53280 0.05900
C 	C 	0.71230 0.61290 0.44740 -0.43000
C 	C 	0.70460 0.56370 0.67500 0.08400
C 	C 	0.75450 0.50670 0.73460 -0.48100
C 	C 	0.77092 0.94052 0.77004 0.32800
C 	C 	0.78772 0.92892 0.67364 -0.08200
C 	C 	0.70930 0.95040 0.59260 -0.01500
C 	C 	0.72424 0.94244 0.50468 -0.01100
C 	C 	0.87897 0.89917 0.66494 0.00700
C 	C 	0.89396 0.89066 0.57592 -0.07300
C 	C 	0.81659 0.91209 0.49618 0.01500
C 	C 	0.81174 0.91234 0.39608 0.02800
C 	C 	0.88256 0.89026 0.35092 -0.09400
C 	C 	0.85609 0.89669 0.25398 0.03900
C 	C 	0.73783 0.93713 0.10206 0.37100
C 	C 	0.76342 0.92712 0.20424 -0.11900
C 	C 	0.69215 0.95025 0.24990 -0.00100
C 	C 	0.71645 0.94205 0.34510 -0.02200
C 	C 	0.65238 0.96468 0.40936 0.05300
C 	C 	0.65090 0.08240 0.46720 -0.08800
C 	C 	0.76490 0.16550 0.55260 -0.32400
C 	C 	0.52960 0.88870 0.32500 -0.04200
C 	C 	0.51990 0.77210 0.26540 -0.32000
C 	C 	0.49912 0.82952 0.77004 0.32200
C 	C 	0.38592 0.74472 0.67364 -0.08200
C 	C 	0.38330 0.64220 0.59260 -0.03900
C 	C 	0.28044 0.56224 0.50468 0.00400
C 	C 	0.28597 0.76577 0.66494 -0.00600
C 	C 	0.18196 0.68526 0.57592 -0.08400
C 	C 	0.17959 0.58409 0.49618 0.01400
C 	C 	0.08434 0.48374 0.39608 -0.05500
C 	C 	0.96836 0.46066 0.35092 -0.01700
C 	C 	0.89789 0.35729 0.25398 -0.03100
C 	C 	0.86423 0.16493 0.10206 0.35100
C 	C 	0.94082 0.27712 0.20424 -0.06300
C 	C 	0.05775 0.29965 0.24990 -0.10000
C 	C 	0.12865 0.40305 0.34510 0.03400
C 	C 	0.25698 0.44468 0.40936 -0.07000
C 	C 	0.31630 0.38480 0.46720 0.07900
C 	C 	0.28770 0.38710 0.55260 -0.46000
C 	C 	0.29540 0.43630 0.32500 0.05300
C 	C 	0.24550 0.49330 0.26540 -0.39600
O 	O 	0.30351 0.02061 0.21652 -0.46300
O 	O 	0.16648 0.08968 0.16276 -0.56100
O 	O 	0.33095 0.01235 0.92432 -0.51500
O 	O 	0.21454 0.10194 0.95574 -0.38300
O 	O 	0.41301 0.19591 0.21652 -0.44100
O 	O 	0.49628 0.07308 0.16276 -0.57100
O 	O 	0.09337 0.91197 0.92432 -0.47200
O 	O 	0.24120 0.85380 0.95574 -0.35200
O 	O 	0.69649 0.97939 0.78348 -0.37200
O 	O 	0.83352 0.91032 0.83724 -0.46300
O 	O 	0.66905 0.98765 0.07568 -0.53400
O 	O 	0.78546 0.89806 0.04426 -0.44600
O 	O 	0.58699 0.80409 0.78348 -0.39400
O 	O 	0.50372 0.92692 0.83724 -0.45700
O 	O 	0.90663 0.08803 0.07568 -0.58200
O 	O 	0.75880 0.14620 0.04426 -0.49200
