data_crystal

_cell_length_a 10.17210
_cell_length_b 11.64150
_cell_length_c 16.09200
_cell_angle_alpha 90.00000
_cell_angle_beta  90.00000
_cell_angle_gamma 105.70600

_symmetry_space_group_name_	'P 1'
_symmetry_space_group_name_H-M	'P 1'

loop_
_symmetry_equiv_pos_as_xyz
  x,y,z

loop_
_atom_site_label
_atom_site_type_symbol
_atom_site_fract_x
_atom_site_fract_y
_atom_site_fract_z
_atom_site_charge
Li	Li	0.40510 0.31860 0.39950 0.55000
Li	Li	0.59490 0.68140 0.60050 0.55000
Li	Li	0.09490 0.18140 0.89950 0.55000
Li	Li	0.90510 0.81860 0.10050 0.55000
Y 	Y 	0.74927 0.99915 0.99702 2.39200
Y 	Y 	0.25073 0.00085 0.00298 2.39200
Y 	Y 	0.24927 0.49915 0.50298 2.39500
Y 	Y 	0.75073 0.50085 0.49702 2.39500
H 	H 	0.21660 0.76550 0.68780 0.03800
H 	H 	0.73240 0.07720 0.51990 0.05800
H 	H 	0.76760 0.42280 0.01990 0.05700
H 	H 	0.46540 0.40350 0.12740 0.04500
H 	H 	0.13860 0.37330 0.98620 0.03300
H 	H 	0.63860 0.87330 0.51380 0.03300
H 	H 	0.71660 0.26550 0.81220 0.03800
H 	H 	0.70140 0.40440 0.71360 0.03500
H 	H 	0.91820 0.89570 0.62040 0.04600
H 	H 	0.29860 0.59560 0.28640 0.03500
H 	H 	0.20010 0.25280 0.18970 0.04100
H 	H 	0.18460 0.38970 0.29010 0.02100
H 	H 	0.58180 0.60430 0.12040 0.04500
H 	H 	0.08180 0.10430 0.37960 0.04600
H 	H 	0.96540 0.90350 0.37260 0.04400
H 	H 	0.36140 0.12670 0.48620 0.03300
H 	H 	0.86140 0.62670 0.01380 0.03300
H 	H 	0.29990 0.24720 0.68970 0.04300
H 	H 	0.81540 0.61030 0.70990 0.02100
H 	H 	0.31540 0.11030 0.79010 0.02000
H 	H 	0.79860 0.09560 0.21360 0.02900
H 	H 	0.79990 0.74720 0.81030 0.04100
H 	H 	0.28340 0.73450 0.18780 0.03800
H 	H 	0.26760 0.92280 0.48010 0.05800
H 	H 	0.78340 0.23450 0.31220 0.03800
H 	H 	0.53460 0.59650 0.87260 0.04500
H 	H 	0.70010 0.75280 0.31030 0.04300
H 	H 	0.41820 0.39570 0.87960 0.04500
H 	H 	0.23240 0.57720 0.98010 0.05700
H 	H 	0.68460 0.88970 0.20990 0.02000
H 	H 	0.20140 0.90440 0.78640 0.02900
H 	H 	0.03460 0.09650 0.62740 0.04400
C 	C 	0.06770 0.11990 0.50410 -0.07500
C 	C 	0.44330 0.87670 0.49730 -0.07900
C 	C 	0.51250 0.56840 0.37150 0.45600
C 	C 	0.88120 0.24440 0.00508 0.32600
C 	C 	0.13280 0.76190 0.71230 0.00600
C 	C 	0.37630 0.65470 0.27110 -0.01100
C 	C 	0.11650 0.24840 0.21477 -0.00900
C 	C 	0.01830 0.67250 0.68942 -0.13100
C 	C 	0.56770 0.61990 0.99590 -0.07400
C 	C 	0.88350 0.75160 0.78523 -0.00900
C 	C 	0.97970 0.94220 0.42370 -0.01200
C 	C 	0.52030 0.55780 0.92370 -0.01600
C 	C 	0.47080 0.91690 0.12429 0.49200
C 	C 	0.87630 0.15470 0.22890 -0.00100
C 	C 	0.38120 0.74440 0.49492 0.33800
C 	C 	0.43230 0.38010 0.00410 -0.07400
C 	C 	0.61880 0.25560 0.50508 0.33800
C 	C 	0.47970 0.44220 0.07630 -0.01600
C 	C 	0.95150 0.93760 0.57220 -0.03100
C 	C 	0.13890 0.54640 0.98830 -0.02100
C 	C 	0.91750 0.57590 0.00840 -0.01700
C 	C 	0.86110 0.45360 0.01170 -0.02100
C 	C 	0.98750 0.93160 0.87150 0.43700
C 	C 	0.54850 0.56240 0.07220 -0.02100
C 	C 	0.02920 0.58310 0.62429 0.49100
C 	C 	0.60680 0.83100 0.22582 0.00400
C 	C 	0.97080 0.41690 0.37571 0.49100
C 	C 	0.86720 0.23810 0.28770 0.00600
C 	C 	0.49850 0.34170 0.69215 -0.12400
C 	C 	0.36300 0.24930 0.00689 0.32800
C 	C 	0.94330 0.37670 0.00270 -0.07800
C 	C 	0.45150 0.43760 0.92780 -0.02100
C 	C 	0.63280 0.26190 0.78770 0.01200
C 	C 	0.00150 0.15830 0.19215 -0.13100
C 	C 	0.93230 0.88010 0.49590 -0.07500
C 	C 	0.36110 0.95360 0.48830 -0.01700
C 	C 	0.36720 0.73810 0.21230 0.01200
C 	C 	0.61650 0.74840 0.28523 -0.01300
C 	C 	0.38350 0.25160 0.71477 -0.01300
C 	C 	0.86300 0.74930 0.49311 0.34000
C 	C 	0.02030 0.05780 0.57630 -0.01200
C 	C 	0.39320 0.16900 0.77418 0.00400
C 	C 	0.51830 0.17250 0.81058 -0.13500
C 	C 	0.63890 0.04640 0.51170 -0.01700
C 	C 	0.99850 0.84170 0.80785 -0.13100
C 	C 	0.01250 0.06840 0.12850 0.43700
C 	C 	0.58250 0.92410 0.50840 -0.02200
C 	C 	0.50150 0.65830 0.30785 -0.12400
C 	C 	0.05670 0.62330 0.99730 -0.07800
C 	C 	0.48170 0.82750 0.18942 -0.13500
C 	C 	0.98170 0.32750 0.31058 -0.13100
C 	C 	0.13700 0.25070 0.50689 0.34000
C 	C 	0.12370 0.84530 0.77110 -0.00100
C 	C 	0.89320 0.66900 0.72582 -0.00400
C 	C 	0.63700 0.75070 0.99311 0.32800
C 	C 	0.48750 0.43160 0.62850 0.45600
C 	C 	0.08250 0.42410 0.99160 -0.01700
C 	C 	0.55670 0.12330 0.50270 -0.07900
C 	C 	0.52920 0.08310 0.87571 0.49200
C 	C 	0.10680 0.33100 0.27418 -0.00400
C 	C 	0.04850 0.06240 0.42780 -0.03100
C 	C 	0.11880 0.75560 0.99492 0.32600
C 	C 	0.41750 0.07590 0.49160 -0.02200
C 	C 	0.62370 0.34530 0.72890 -0.01100
O 	O 	0.73300 0.79490 0.04294 -0.53300
O 	O 	0.90310 0.68340 0.44256 -0.44900
O 	O 	0.55950 0.32470 0.46887 -0.56100
O 	O 	0.62850 0.56650 0.39629 -0.57400
O 	O 	0.35350 0.92870 0.10905 -0.55800
O 	O 	0.73030 0.29870 0.54140 -0.45700
O 	O 	0.37150 0.43350 0.60371 -0.57400
O 	O 	0.90330 0.99440 0.10352 -0.61400
O 	O 	0.94050 0.17530 0.96887 -0.54700
O 	O 	0.42260 0.02470 0.91164 -0.59600
O 	O 	0.76700 0.70510 0.54294 -0.54400
O 	O 	0.09670 0.00560 0.89648 -0.61400
O 	O 	0.40310 0.18340 0.05744 -0.45200
O 	O 	0.57740 0.97530 0.08836 -0.59600
O 	O 	0.64650 0.07130 0.89095 -0.55800
O 	O 	0.12850 0.06650 0.10371 -0.57800
O 	O 	0.44050 0.67530 0.53113 -0.56100
O 	O 	0.09690 0.31660 0.55744 -0.44900
O 	O 	0.05950 0.82470 0.03113 -0.54700
O 	O 	0.92260 0.52470 0.58836 -0.60400
O 	O 	0.23030 0.79870 0.95860 -0.45900
O 	O 	0.23300 0.29490 0.45706 -0.54400
O 	O 	0.87150 0.93350 0.89629 -0.57800
O 	O 	0.07740 0.47530 0.41164 -0.60400
O 	O 	0.26700 0.20510 0.95706 -0.53300
O 	O 	0.26970 0.70130 0.45860 -0.45700
O 	O 	0.59670 0.50560 0.60352 -0.62900
O 	O 	0.76970 0.20130 0.04140 -0.45900
O 	O 	0.59690 0.81660 0.94256 -0.45200
O 	O 	0.85350 0.42870 0.39095 -0.56600
O 	O 	0.40330 0.49440 0.39648 -0.62900
O 	O 	0.14650 0.57130 0.60905 -0.56600
