data_crystal

_cell_length_a 13.53280
_cell_length_b 13.91110
_cell_length_c 17.76340
_cell_angle_alpha 111.29200
_cell_angle_beta  90.00000
_cell_angle_gamma 90.00000

_symmetry_space_group_name_	'P 1'
_symmetry_space_group_name_H-M	'P 1'

loop_
_symmetry_equiv_pos_as_xyz
  x,y,z

loop_
_atom_site_label
_atom_site_type_symbol
_atom_site_fract_x
_atom_site_fract_y
_atom_site_fract_z
_atom_site_charge
Ni	Ni	0.01711 0.73855 0.92276 1.10200
Ni	Ni	0.51711 0.26145 0.57724 1.11500
Ni	Ni	0.98289 0.26145 0.07724 1.13200
Ni	Ni	0.48289 0.73855 0.42276 1.11700
Ni	Ni	-0.00000 0.00000 -0.00000 1.04700
Ni	Ni	0.50000 0.00000 0.50000 1.08200
H 	H 	0.13900 0.86000 0.00210 0.25700
H 	H 	0.13500 0.86400 0.92300 0.32900
H 	H 	0.88550 0.70220 0.06850 0.00500
H 	H 	0.85850 0.00540 0.15820 -0.04700
H 	H 	0.82240 0.89980 0.25820 0.08300
H 	H 	0.81070 0.77870 0.21350 0.07100
H 	H 	0.66420 0.80250 0.15170 0.05700
H 	H 	0.67750 0.92420 0.18980 0.07000
H 	H 	0.63180 0.01380 0.34350 -0.05200
H 	H 	0.60570 0.71150 0.25290 0.00400
H 	H 	0.10950 0.53750 0.04770 0.02900
H 	H 	0.27180 0.52990 0.23610 0.04300
H 	H 	0.26050 0.78970 0.18500 0.05100
H 	H 	0.63900 0.14000 0.49790 0.29200
H 	H 	0.63500 0.13600 0.57700 0.33700
H 	H 	0.38550 0.29780 0.43150 0.00500
H 	H 	0.35850 0.99460 0.34180 0.08200
H 	H 	0.32240 0.10020 0.24180 0.05300
H 	H 	0.31070 0.22130 0.28650 0.06300
H 	H 	0.16420 0.19750 0.34830 0.05300
H 	H 	0.17750 0.07580 0.31020 0.04400
H 	H 	0.13180 0.98620 0.15650 0.07700
H 	H 	0.10570 0.28850 0.24710 -0.00100
H 	H 	0.60950 0.46250 0.45230 0.04700
H 	H 	0.77180 0.47010 0.26390 0.04800
H 	H 	0.76050 0.21030 0.31500 0.04500
H 	H 	0.86100 0.14000 0.99790 0.32200
H 	H 	0.86500 0.13600 0.07700 0.34200
H 	H 	0.11450 0.29780 0.93150 0.00800
H 	H 	0.14150 0.99460 0.84180 0.07900
H 	H 	0.17760 0.10020 0.74180 0.04700
H 	H 	0.18930 0.22130 0.78650 0.05900
H 	H 	0.33580 0.19750 0.84830 0.06700
H 	H 	0.32250 0.07580 0.81020 0.05500
H 	H 	0.36820 0.98620 0.65650 0.08200
H 	H 	0.39430 0.28850 0.74710 0.00800
H 	H 	0.89050 0.46250 0.95230 0.06300
H 	H 	0.72820 0.47010 0.76390 0.04900
H 	H 	0.73950 0.21030 0.81500 0.04200
H 	H 	0.36100 0.86000 0.50210 0.29300
H 	H 	0.36500 0.86400 0.42300 0.33800
H 	H 	0.61450 0.70220 0.56850 0.00700
H 	H 	0.64150 0.00540 0.65820 -0.05100
H 	H 	0.67760 0.89980 0.75820 0.07700
H 	H 	0.68930 0.77870 0.71350 0.06700
H 	H 	0.83580 0.80250 0.65170 0.07100
H 	H 	0.82250 0.92420 0.68980 0.08100
H 	H 	0.86820 0.01380 0.84350 -0.04500
H 	H 	0.89430 0.71150 0.75290 0.01300
H 	H 	0.39050 0.53750 0.54770 0.04600
H 	H 	0.22820 0.52990 0.73610 0.04400
H 	H 	0.23950 0.78970 0.68500 0.04900
C 	C 	0.88990 0.77232 0.07528 0.11500
C 	C 	0.87510 0.93800 0.12421 0.19800
C 	C 	0.79860 0.84580 0.20878 -0.05900
C 	C 	0.68910 0.85960 0.19878 -0.04200
C 	C 	0.61570 0.94570 0.33733 0.20100
C 	C 	0.60150 0.78080 0.28787 0.11800
C 	C 	0.18450 0.67074 0.10578 -0.09200
C 	C 	0.15254 0.57016 0.09100 0.03700
C 	C 	0.18421 0.51838 0.14024 -0.10300
C 	C 	0.24738 0.56655 0.20475 0.04200
C 	C 	0.27440 0.66919 0.22287 -0.09600
C 	C 	0.24249 0.72047 0.17296 0.03400
C 	C 	0.15330 0.72570 0.05061 0.28800
C 	C 	0.15000 0.40920 0.12280 0.34400
C 	C 	0.33330 0.72599 0.29673 0.33000
C 	C 	0.38990 0.22768 0.42472 0.10800
C 	C 	0.37510 0.06200 0.37579 -0.00000
C 	C 	0.29860 0.15420 0.29122 -0.06400
C 	C 	0.18910 0.14040 0.30122 -0.05400
C 	C 	0.11570 0.05430 0.16267 -0.00300
C 	C 	0.10150 0.21920 0.21213 0.10800
C 	C 	0.68450 0.32926 0.39422 -0.09700
C 	C 	0.65254 0.42984 0.40900 0.04300
C 	C 	0.68421 0.48162 0.35976 -0.09100
C 	C 	0.74738 0.43345 0.29525 0.04300
C 	C 	0.77440 0.33081 0.27713 -0.09400
C 	C 	0.74249 0.27953 0.32704 0.04300
C 	C 	0.65330 0.27430 0.44939 0.33900
C 	C 	0.65000 0.59080 0.37720 0.33900
C 	C 	0.83330 0.27401 0.20327 0.33200
C 	C 	0.11010 0.22768 0.92472 0.10700
C 	C 	0.12490 0.06200 0.87579 0.00000
C 	C 	0.20140 0.15420 0.79122 -0.05600
C 	C 	0.31090 0.14040 0.80122 -0.06300
C 	C 	0.38430 0.05430 0.66267 0.00300
C 	C 	0.39850 0.21920 0.71213 0.11300
C 	C 	0.81550 0.32926 0.89422 -0.10100
C 	C 	0.84746 0.42984 0.90900 0.04800
C 	C 	0.81579 0.48162 0.85976 -0.08500
C 	C 	0.75262 0.43345 0.79525 0.04500
C 	C 	0.72560 0.33081 0.77713 -0.09600
C 	C 	0.75751 0.27953 0.82704 0.04900
C 	C 	0.84670 0.27430 0.94939 0.38100
C 	C 	0.85000 0.59080 0.87720 0.33700
C 	C 	0.66670 0.27401 0.70327 0.33400
C 	C 	0.61010 0.77232 0.57528 0.11400
C 	C 	0.62490 0.93800 0.62421 0.19700
C 	C 	0.70140 0.84580 0.70878 -0.05100
C 	C 	0.81090 0.85960 0.69878 -0.05100
C 	C 	0.88430 0.94570 0.83733 0.20500
C 	C 	0.89850 0.78080 0.78787 0.12200
C 	C 	0.31550 0.67074 0.60578 -0.09700
C 	C 	0.34746 0.57016 0.59100 0.04300
C 	C 	0.31579 0.51838 0.64024 -0.09600
C 	C 	0.25262 0.56655 0.70475 0.04400
C 	C 	0.22560 0.66919 0.72287 -0.09800
C 	C 	0.25751 0.72047 0.67296 0.04100
C 	C 	0.34670 0.72570 0.55061 0.33700
C 	C 	0.35000 0.40920 0.62280 0.34300
C 	C 	0.16670 0.72599 0.79673 0.33200
N 	N 	0.93311 0.80803 0.02523 -0.19500
N 	N 	0.92351 0.91410 0.05636 -0.19100
N 	N 	0.85230 0.85162 0.13856 -0.13900
N 	N 	0.63688 0.86191 0.27174 -0.14500
N 	N 	0.56955 0.91876 0.39115 -0.19900
N 	N 	0.56040 0.81278 0.35916 -0.19500
N 	N 	0.43311 0.19197 0.47477 -0.19600
N 	N 	0.42351 0.08590 0.44364 -0.18700
N 	N 	0.35230 0.14838 0.36144 -0.11500
N 	N 	0.13688 0.13809 0.22826 -0.11900
N 	N 	0.06955 0.08124 0.10885 -0.20000
N 	N 	0.06040 0.18722 0.14084 -0.21100
N 	N 	0.06689 0.19197 0.97477 -0.19400
N 	N 	0.07649 0.08590 0.94364 -0.18400
N 	N 	0.14770 0.14838 0.86144 -0.11700
N 	N 	0.36312 0.13809 0.72826 -0.11500
N 	N 	0.43045 0.08124 0.60885 -0.18900
N 	N 	0.43960 0.18722 0.64084 -0.19600
N 	N 	0.56689 0.80803 0.52523 -0.19400
N 	N 	0.57649 0.91410 0.55636 -0.19700
N 	N 	0.64770 0.85162 0.63856 -0.14100
N 	N 	0.86312 0.86191 0.77174 -0.14100
N 	N 	0.93045 0.91876 0.89115 -0.18200
N 	N 	0.93960 0.81278 0.85916 -0.18100
O 	O 	0.09969 0.87970 0.96622 -0.76400
O 	O 	0.10222 0.67667 0.99008 -0.35000
O 	O 	0.18025 0.81893 0.06966 -0.30200
O 	O 	0.05855 0.39436 0.11238 -0.41500
O 	O 	0.21264 0.34275 0.11870 -0.28200
O 	O 	0.39064 0.67573 0.32428 -0.38100
O 	O 	0.31960 0.82299 0.32810 -0.30900
O 	O 	0.59969 0.12030 0.53378 -0.83100
O 	O 	0.60222 0.32333 0.50992 -0.38100
O 	O 	0.68025 0.18107 0.43034 -0.31600
O 	O 	0.55855 0.60564 0.38762 -0.38500
O 	O 	0.71264 0.65725 0.38130 -0.25900
O 	O 	0.89064 0.32427 0.17572 -0.36700
O 	O 	0.81960 0.17701 0.17190 -0.31700
O 	O 	0.90031 0.12030 0.03378 -0.85400
O 	O 	0.89778 0.32333 0.00992 -0.40900
O 	O 	0.81975 0.18107 0.93034 -0.32100
O 	O 	0.94145 0.60564 0.88762 -0.35700
O 	O 	0.78736 0.65725 0.88130 -0.25300
O 	O 	0.60936 0.32427 0.67572 -0.37800
O 	O 	0.68040 0.17701 0.67190 -0.31600
O 	O 	0.40031 0.87970 0.46622 -0.80600
O 	O 	0.39778 0.67667 0.49008 -0.38300
O 	O 	0.31975 0.81893 0.56966 -0.30900
O 	O 	0.44145 0.39436 0.61238 -0.38400
O 	O 	0.28736 0.34275 0.61870 -0.27400
O 	O 	0.10936 0.67573 0.82428 -0.39000
O 	O 	0.18040 0.82299 0.82810 -0.30500
