data_crystal

_cell_length_a 9.98200
_cell_length_b 10.00000
_cell_length_c 9.57600
_cell_angle_alpha 97.96000
_cell_angle_beta  114.87000
_cell_angle_gamma 107.67000

_symmetry_space_group_name_	'P 1'
_symmetry_space_group_name_H-M	'P 1'

loop_
_symmetry_equiv_pos_as_xyz
  x,y,z

loop_
_atom_site_label
_atom_site_type_symbol
_atom_site_fract_x
_atom_site_fract_y
_atom_site_fract_z
_atom_site_charge
Ge	Ge	0.03306 0.11545 0.86359 1.08000
Zn	Zn	0.79116 0.34102 0.31218 1.23900
P 	P 	0.40020 0.22910 0.17460 0.57000
P 	P 	0.02840 0.65950 0.33620 0.56600
P 	P 	0.96990 0.19290 0.15390 0.55700
O 	O 	0.55730 0.28740 0.16950 -0.39700
O 	O 	0.39550 0.33380 0.30210 -0.37800
O 	O 	0.26380 0.19430 0.00520 -0.38800
O 	O 	0.38410 0.07860 0.21990 -0.20000
O 	O 	0.88750 0.54860 0.33920 -0.47000
O 	O 	0.99720 0.79540 0.30460 -0.39600
O 	O 	0.18640 0.70220 0.49370 -0.44300
O 	O 	0.04730 0.59150 0.18870 -0.32500
O 	O 	0.84070 0.22120 0.17870 -0.42900
O 	O 	0.11750 0.34810 0.22040 -0.37600
O 	O 	0.03640 0.09330 0.24450 -0.38400
O 	O 	0.90610 0.12940 0.97170 -0.38100
H 	H 	0.07760 0.50270 0.19220 0.17000
H 	H 	0.20550 0.44060 0.26010 0.18400
H 	H 	0.39240 0.39950 0.38160 0.20000
Ge	Ge	0.96694 0.88455 0.13641 1.08100
Zn	Zn	0.20884 0.65898 0.68782 1.24000
P 	P 	0.59980 0.77090 0.82540 0.57000
P 	P 	0.97160 0.34050 0.66380 0.56600
P 	P 	0.03010 0.80710 0.84610 0.55700
O 	O 	0.44270 0.71260 0.83050 -0.39700
O 	O 	0.60450 0.66620 0.69790 -0.37800
O 	O 	0.73620 0.80570 0.99480 -0.38800
O 	O 	0.61590 0.92140 0.78010 -0.20000
O 	O 	0.11250 0.45140 0.66080 -0.47000
O 	O 	0.00280 0.20460 0.69540 -0.39600
O 	O 	0.81360 0.29780 0.50630 -0.44300
O 	O 	0.95270 0.40850 0.81130 -0.32500
O 	O 	0.15930 0.77880 0.82130 -0.42900
O 	O 	0.88250 0.65190 0.77960 -0.37600
O 	O 	0.96360 0.90670 0.75550 -0.38400
O 	O 	0.09390 0.87060 0.02830 -0.38100
H 	H 	0.92240 0.49730 0.80780 0.17000
H 	H 	0.79450 0.55940 0.73990 0.18400
H 	H 	0.60760 0.60050 0.61840 0.20000
