data_crystal

_cell_length_a 17.89160
_cell_length_b 19.08800
_cell_length_c 19.67450
_cell_angle_alpha 90.00000
_cell_angle_beta  90.00000
_cell_angle_gamma 90.00000

_symmetry_space_group_name_	'P 1'
_symmetry_space_group_name_H-M	'P 1'

loop_
_symmetry_equiv_pos_as_xyz
  x,y,z

loop_
_atom_site_label
_atom_site_type_symbol
_atom_site_fract_x
_atom_site_fract_y
_atom_site_fract_z
_atom_site_charge
Co	Co	0.31841 0.76535 0.00004 1.11600
Co	Co	0.18159 0.26535 0.50004 1.11600
Co	Co	0.68159 0.26535 0.99996 1.11600
Co	Co	0.81841 0.76535 0.49996 1.11600
H 	H 	0.96090 0.66880 0.69860 0.10200
H 	H 	0.40640 0.14580 0.87320 0.02500
H 	H 	0.51950 0.46180 0.10300 0.09400
H 	H 	0.86270 0.98890 0.72740 -0.88100
H 	H 	0.61400 0.54120 0.71330 0.04900
H 	H 	0.20270 0.15980 0.82230 1.02700
H 	H 	0.70230 0.79410 0.39010 0.00900
H 	H 	0.17000 0.23760 0.74240 -0.92600
H 	H 	0.22250 0.66710 0.64220 0.46900
H 	H 	0.59910 0.23550 0.13230 0.00100
H 	H 	0.03910 0.16880 0.30140 0.10400
H 	H 	0.73360 0.55700 0.35400 0.08300
H 	H 	0.18110 0.43430 0.83670 0.33900
H 	H 	0.72400 0.90540 0.50170 -0.00200
H 	H 	0.23750 0.29770 0.27270 0.73600
H 	H 	0.38600 0.04120 0.28670 0.04800
H 	H 	0.90640 0.14580 0.62680 0.02700
H 	H 	0.90940 0.16430 0.13350 0.09700
H 	H 	0.72290 0.35680 0.77470 -0.41300
H 	H 	0.41650 0.78190 0.11980 0.02000
H 	H 	0.80110 0.69900 0.84520 0.47000
H 	H 	0.26410 0.48530 0.27140 0.97500
H 	H 	0.28800 0.28300 0.13800 -0.48100
H 	H 	0.28850 0.13640 0.25580 -0.20700
H 	H 	0.78560 0.67470 0.72700 -0.20900
H 	H 	0.98530 0.84990 0.32150 0.08900
H 	H 	0.51410 0.56870 0.24040 -0.78000
H 	H 	0.79040 0.80970 0.14150 0.77300
H 	H 	0.13340 0.41180 0.24780 -0.90800
H 	H 	0.55660 0.14440 0.02710 0.01200
H 	H 	0.44340 0.64440 0.97290 0.01000
H 	H 	0.26360 0.92700 0.82020 0.99600
H 	H 	0.40630 0.59380 0.34500 -1.03500
H 	H 	0.73750 0.29770 0.22730 0.73600
H 	H 	0.38150 0.45430 0.44730 0.07400
H 	H 	0.94510 0.39230 0.13790 0.07800
H 	H 	0.30910 0.96590 0.26470 0.34100
H 	H 	0.96710 0.39050 0.30780 0.08600
H 	H 	0.45980 0.53360 0.18920 -0.80700
H 	H 	0.69030 0.31900 0.29010 0.75200
H 	H 	0.17710 0.88340 0.73990 -0.70500
H 	H 	0.95980 0.53360 0.31080 -0.80900
H 	H 	0.23160 0.90730 0.68310 -0.70100
H 	H 	0.54020 0.03360 0.81080 -0.80900
H 	H 	0.22290 0.35680 0.72530 -0.41900
H 	H 	0.35070 0.11750 0.71260 0.06800
H 	H 	0.76840 0.40730 0.31690 -0.70200
H 	H 	0.16870 0.75790 0.70180 -0.45800
H 	H 	0.76410 0.48530 0.22860 0.97400
H 	H 	0.33130 0.25790 0.20180 -0.45900
H 	H 	0.21680 0.06400 0.18100 0.16500
H 	H 	0.79730 0.65980 0.17770 1.01500
H 	H 	0.22070 0.88320 0.27940 -0.46100
H 	H 	0.26250 0.79770 0.77270 0.73400
H 	H 	0.20230 0.79410 0.10990 0.00900
H 	H 	0.70960 0.30970 0.64150 0.77500
H 	H 	0.61120 0.84120 0.34890 0.08900
H 	H 	0.98050 0.96180 0.60300 0.09300
H 	H 	0.78320 0.56400 0.81900 0.16300
H 	H 	0.27930 0.38320 0.77940 -0.47000
H 	H 	0.03290 0.89050 0.69220 0.08700
H 	H 	0.85070 0.11750 0.78740 0.06900
H 	H 	0.71440 0.17470 0.22700 -0.21000
H 	H 	0.22400 0.90540 0.99830 -0.00100
H 	H 	0.88880 0.34120 0.84890 0.09000
H 	H 	0.61850 0.95430 0.55270 0.07300
H 	H 	0.78800 0.28300 0.36200 -0.48100
H 	H 	0.69890 0.19900 0.34520 0.47200
H 	H 	0.83130 0.25790 0.29820 -0.45900
H 	H 	0.04510 0.15530 0.81850 -1.00500
H 	H 	0.11850 0.95430 0.94730 0.07300
H 	H 	0.46090 0.66880 0.80140 0.10300
H 	H 	0.88150 0.45430 0.05270 0.07400
H 	H 	0.80970 0.81900 0.79010 0.75000
H 	H 	0.69970 0.05190 0.24260 0.16700
H 	H 	0.88570 0.77270 0.20770 -0.87500
H 	H 	0.26840 0.40730 0.18310 -0.70200
H 	H 	0.21200 0.78300 0.63800 -0.48000
H 	H 	0.58350 0.28190 0.88020 0.02000
H 	H 	0.70270 0.15980 0.67770 1.01700
H 	H 	0.28320 0.56400 0.68100 0.16300
H 	H 	0.23350 0.77170 0.31180 0.78400
H 	H 	0.20150 0.11760 0.55870 -0.00400
H 	H 	0.85260 0.58680 0.26150 1.07500
H 	H 	0.27600 0.40540 0.49830 -0.00100
H 	H 	0.83000 0.73760 0.25760 -0.91300
H 	H 	0.40090 0.73550 0.86770 0.00100
H 	H 	0.29730 0.65980 0.32230 1.01300
H 	H 	0.59360 0.64580 0.12680 0.02600
H 	H 	0.86570 0.46470 0.78930 0.07900
H 	H 	0.33880 0.97020 0.69900 -0.88800
H 	H 	0.29770 0.29410 0.60990 0.00900
H 	H 	0.73160 0.90730 0.81690 -0.70000
H 	H 	0.61520 0.41030 0.03210 -0.00900
H 	H 	0.67000 0.23760 0.75760 -0.91400
H 	H 	0.78850 0.13640 0.24420 -0.20600
H 	H 	0.13730 0.48890 0.27260 -0.88100
H 	H 	0.04230 0.01260 0.76530 -0.78800
H 	H 	0.38880 0.34120 0.65110 0.09000
H 	H 	0.05660 0.14440 0.47290 0.01100
H 	H 	0.05330 0.60060 0.47800 0.05600
H 	H 	0.98590 0.06870 0.74040 -0.78900
H 	H 	0.13430 0.96470 0.21070 0.08100
H 	H 	0.30030 0.55190 0.75740 0.16500
H 	H 	0.09910 0.23550 0.36770 0.00100
H 	H 	0.94670 0.10060 0.52200 0.05700
H 	H 	0.14740 0.08680 0.73850 1.08800
H 	H 	0.68110 0.43430 0.66330 0.33500
H 	H 	0.40900 0.64290 0.21360 1.13300
H 	H 	0.26650 0.27170 0.81180 0.79600
H 	H 	0.19090 0.46590 0.76470 0.34800
H 	H 	0.53290 0.89050 0.80780 0.08500
H 	H 	0.70150 0.11760 0.94130 -0.00400
H 	H 	0.23640 0.42700 0.32020 0.99800
H 	H 	0.11430 0.27270 0.79230 -0.88800
H 	H 	0.63340 0.41180 0.25220 -0.90800
H 	H 	0.11520 0.41030 0.46790 -0.00900
H 	H 	0.61430 0.27270 0.70770 -0.87600
H 	H 	0.88600 0.04120 0.21330 0.04700
H 	H 	0.64930 0.61750 0.28740 0.06800
H 	H 	0.59370 0.09380 0.65500 -1.03800
H 	H 	0.71200 0.78300 0.86200 -0.47900
H 	H 	0.82290 0.38340 0.26010 -0.70600
H 	H 	0.40940 0.16430 0.36650 0.09700
H 	H 	0.54230 0.01260 0.73470 -0.77900
H 	H 	0.77710 0.85680 0.27470 -0.41200
H 	H 	0.76650 0.27170 0.68820 0.78700
H 	H 	0.36270 0.98890 0.77260 -0.88100
H 	H 	0.72250 0.66710 0.85780 0.46800
H 	H 	0.14930 0.61750 0.21260 0.06800
H 	H 	0.19890 0.19900 0.15480 0.47200
H 	H 	0.09360 0.64580 0.37320 0.02600
H 	H 	0.20960 0.30970 0.85850 0.78300
H 	H 	0.28560 0.67470 0.77300 -0.20900
H 	H 	0.27750 0.16710 0.14220 0.47000
H 	H 	0.63730 0.48890 0.22740 -0.88100
H 	H 	0.19030 0.31900 0.20990 0.75200
H 	H 	0.19970 0.05190 0.25740 0.16700
H 	H 	0.11400 0.54120 0.78670 0.05000
H 	H 	0.90630 0.59380 0.15500 -1.03800
H 	H 	0.30110 0.69900 0.65480 0.47000
H 	H 	0.77600 0.40540 0.00170 -0.00100
H 	H 	0.73640 0.42700 0.17980 0.99800
H 	H 	0.77930 0.38320 0.72060 -0.46300
H 	H 	0.79770 0.29410 0.89010 0.00900
H 	H 	0.48050 0.96180 0.89700 0.09400
H 	H 	0.01950 0.46180 0.39700 0.09500
H 	H 	0.64740 0.08680 0.76150 1.07700
H 	H 	0.94340 0.64440 0.52710 0.01100
H 	H 	0.95490 0.65530 0.18150 -0.99200
H 	H 	0.38480 0.91030 0.96790 -0.00900
H 	H 	0.18250 0.72660 0.90490 0.01000
H 	H 	0.01410 0.56870 0.25960 -0.78100
H 	H 	0.44510 0.39230 0.36210 0.07800
H 	H 	0.80910 0.96590 0.23530 0.34100
H 	H 	0.81750 0.22660 0.09510 0.01000
H 	H 	0.54510 0.15530 0.68150 -0.99200
H 	H 	0.09100 0.14290 0.71360 1.14700
H 	H 	0.23360 0.55700 0.14600 0.08300
H 	H 	0.86660 0.91180 0.75220 -0.90600
H 	H 	0.44670 0.10060 0.97800 0.05700
H 	H 	0.73350 0.77170 0.18820 0.78600
H 	H 	0.21440 0.17470 0.27300 -0.21000
H 	H 	0.80030 0.55190 0.74260 0.16500
H 	H 	0.09060 0.66430 0.86650 0.09600
H 	H 	0.69090 0.46590 0.73530 0.34300
H 	H 	0.63430 0.96470 0.28930 0.08000
H 	H 	0.21150 0.63640 0.75580 -0.20600
H 	H 	0.23590 0.98530 0.77140 0.97200
H 	H 	0.38570 0.77270 0.29230 -0.87300
H 	H 	0.88480 0.91030 0.53210 -0.00900
H 	H 	0.36660 0.91180 0.74780 -0.90700
H 	H 	0.34750 0.69690 0.37550 1.04700
H 	H 	0.46710 0.39050 0.19220 0.08500
H 	H 	0.81890 0.93430 0.16330 0.33300
H 	H 	0.71680 0.06400 0.31900 0.16500
H 	H 	0.27710 0.85680 0.22530 -0.41100
H 	H 	0.53910 0.16880 0.19860 0.10400
H 	H 	0.66120 0.47020 0.30100 -0.88800
H 	H 	0.45490 0.65530 0.31850 -0.98900
H 	H 	0.66870 0.75790 0.79820 -0.45700
H 	H 	0.59100 0.14290 0.78640 1.13600
H 	H 	0.90900 0.64290 0.28640 1.13500
H 	H 	0.91650 0.78190 0.38020 0.02000
H 	H 	0.55330 0.60060 0.02200 0.05700
H 	H 	0.83880 0.97020 0.80100 -0.88700
H 	H 	0.32290 0.38340 0.23990 -0.70600
H 	H 	0.30970 0.81900 0.70990 0.75000
H 	H 	0.84750 0.69690 0.12450 1.04900
H 	H 	0.08350 0.28190 0.61980 0.02100
H 	H 	0.65250 0.19690 0.62450 1.05100
H 	H 	0.26640 0.05700 0.64600 0.08400
H 	H 	0.76360 0.92700 0.67980 0.99500
H 	H 	0.67710 0.88340 0.76010 -0.70400
H 	H 	0.31750 0.22660 0.40490 0.01000
H 	H 	0.16120 0.47020 0.19900 -0.88900
H 	H 	0.48590 0.06870 0.75960 -0.78200
H 	H 	0.33000 0.73760 0.24240 -0.91100
H 	H 	0.73590 0.98530 0.72860 0.97100
H 	H 	0.11120 0.84120 0.15110 0.08900
H 	H 	0.76640 0.05700 0.85400 0.08400
H 	H 	0.55490 0.89230 0.63790 0.07700
H 	H 	0.72070 0.88320 0.22060 -0.46300
H 	H 	0.45770 0.51260 0.26530 -0.77800
H 	H 	0.29040 0.80970 0.35850 0.77200
H 	H 	0.01470 0.34990 0.67850 0.09100
H 	H 	0.31890 0.93430 0.33670 0.33300
H 	H 	0.29850 0.61760 0.05870 -0.00400
H 	H 	0.71150 0.63640 0.74420 -0.20600
H 	H 	0.59060 0.66430 0.63350 0.09600
H 	H 	0.90090 0.73550 0.63230 0.00100
H 	H 	0.15250 0.19690 0.87550 1.06200
H 	H 	0.35260 0.58680 0.23850 1.07300
H 	H 	0.95770 0.51260 0.23470 -0.77900
H 	H 	0.05490 0.89230 0.86210 0.07800
H 	H 	0.48530 0.84990 0.17850 0.09200
H 	H 	0.77750 0.16710 0.35780 0.47000
H 	H 	0.04020 0.03360 0.68920 -0.81800
H 	H 	0.76250 0.79770 0.72730 0.73400
H 	H 	0.68250 0.72660 0.59510 0.01000
H 	H 	0.79850 0.61760 0.44130 -0.00400
H 	H 	0.36570 0.46470 0.71070 0.07800
H 	H 	0.51470 0.34990 0.82150 0.09200
H 	H 	0.09370 0.09380 0.84500 -1.05100
C 	C 	0.08280 0.28250 0.37320 0.02800
C 	C 	0.67760 0.42500 0.71060 -0.97900
C 	C 	0.40850 0.63160 0.31370 3.35200
C 	C 	0.02850 0.30720 0.32820 -0.04700
C 	C 	0.11000 0.75440 0.21070 0.13400
C 	C 	0.29260 0.24510 0.61660 0.05000
C 	C 	0.52670 0.63740 0.04360 -0.08800
C 	C 	0.03950 0.16360 0.51460 0.03500
C 	C 	0.51770 0.65280 0.71710 0.13500
C 	C 	0.11020 0.80340 0.87620 -0.04300
C 	C 	0.26460 0.64280 0.08660 0.06900
C 	C 	0.90870 0.32050 0.80890 -0.15000
C 	C 	0.66410 0.71270 0.33480 -0.03900
C 	C 	0.22060 0.29680 0.81300 -2.51400
C 	C 	0.07110 0.05220 0.21010 0.13900
C 	C 	0.50520 0.37240 0.16350 0.03100
C 	C 	0.92890 0.55220 0.78990 0.13300
C 	C 	0.98220 0.32560 0.70870 -0.13500
C 	C 	0.76050 0.81540 0.77240 -2.22300
C 	C 	0.67680 0.64100 0.32180 -0.00600
C 	C 	0.97150 0.80720 0.67180 -0.04500
C 	C 	0.98830 0.22210 0.63210 -0.06900
C 	C 	0.98990 0.69180 0.73240 -0.19600
C 	C 	0.27030 0.86740 0.27210 1.50100
C 	C 	0.45780 0.35940 0.73370 0.11600
C 	C 	0.73600 0.44320 0.22550 -3.05600
C 	C 	0.72060 0.29680 0.68700 -2.48500
C 	C 	0.03470 0.41460 0.39100 -0.07700
C 	C 	0.99930 0.76110 0.72780 0.13900
C 	C 	0.28320 0.26370 0.18230 1.64000
C 	C 	0.43460 0.18890 0.33130 -0.18100
C 	C 	0.90110 0.60580 0.25500 -3.38000
C 	C 	0.36610 0.40810 0.43600 -0.09800
C 	C 	0.97430 0.43280 0.77780 -0.01000
C 	C 	0.83900 0.74950 0.21140 2.96200
C 	C 	0.23540 0.14280 0.58660 0.06900
C 	C 	0.40670 0.37060 0.38790 -0.00600
C 	C 	0.93650 0.02600 0.21540 -0.04100
C 	C 	0.91570 0.48120 0.78610 -0.12300
C 	C 	0.19650 0.08440 0.22090 -0.44200
C 	C 	0.74750 0.19290 0.32670 -1.41600
C 	C 	0.00570 0.57450 0.78550 -0.06500
C 	C 	0.17680 0.64100 0.17820 -0.00600
C 	C 	0.22820 0.88870 0.72780 2.40500
C 	C 	0.96140 0.25690 0.69460 0.11200
C 	C 	0.43650 0.02600 0.28460 -0.04600
C 	C 	0.16450 0.40530 0.58400 0.12600
C 	C 	0.88980 0.30340 0.12380 -0.04300
C 	C 	0.32240 0.92500 0.28940 -0.97500
C 	C 	0.58280 0.28250 0.12680 0.02800
C 	C 	0.61000 0.75440 0.28930 0.13400
C 	C 	0.83550 0.90530 0.41600 0.12600
C 	C 	0.22970 0.36740 0.77210 1.52800
C 	C 	0.40870 0.32050 0.69110 -0.15100
C 	C 	0.33900 0.74950 0.28860 2.95400
C 	C 	0.73950 0.31540 0.27240 -2.22900
C 	C 	0.71680 0.76370 0.81770 1.63300
C 	C 	0.02570 0.93280 0.22220 -0.00300
C 	C 	0.83590 0.21270 0.83480 -0.03800
C 	C 	0.94920 0.16440 0.60470 0.00200
C 	C 	0.17130 0.77460 0.91200 0.00700
C 	C 	0.33590 0.21270 0.66520 -0.03900
C 	C 	0.69650 0.08440 0.27910 -0.44200
C 	C 	0.69480 0.87810 0.53220 0.02000
C 	C 	0.06350 0.52600 0.78460 -0.05500
C 	C 	0.59150 0.13160 0.68630 3.36300
C 	C 	0.46520 0.55020 0.23440 2.75400
C 	C 	0.44400 0.74480 0.09970 0.01800
C 	C 	0.52570 0.93280 0.27780 -0.00700
C 	C 	0.72040 0.12730 0.07490 0.11200
C 	C 	0.06540 0.68890 0.83130 -0.18000
C 	C 	0.49480 0.87240 0.83650 0.03100
C 	C 	0.99430 0.07450 0.21450 -0.06900
C 	C 	0.75250 0.69290 0.82670 -1.41100
C 	C 	0.46140 0.25690 0.80540 0.11300
C 	C 	0.72820 0.88870 0.77220 2.40300
C 	C 	0.47150 0.80720 0.82820 -0.04700
C 	C 	0.07040 0.75890 0.82590 0.13800
C 	C 	0.82240 0.92500 0.21060 -0.97700
C 	C 	0.30350 0.58440 0.72090 -0.44000
C 	C 	0.16100 0.24950 0.78860 3.00200
C 	C 	0.74040 0.14880 0.26080 0.73100
C 	C 	0.04890 0.45730 0.78080 0.04900
C 	C 	0.41720 0.78250 0.87320 0.02800
C 	C 	0.40110 0.60580 0.24500 -3.37300
C 	C 	0.03480 0.05020 0.73440 2.78900
C 	C 	0.51170 0.72210 0.13210 -0.07100
C 	C 	0.01770 0.65280 0.78290 0.13500
C 	C 	0.23950 0.31540 0.22760 -2.23000
C 	C 	0.77940 0.79680 0.18700 -2.48100
C 	C 	0.66060 0.45450 0.25510 3.02100
C 	C 	0.01010 0.19180 0.26760 -0.19900
C 	C 	0.21680 0.76370 0.68230 1.63500
C 	C 	0.24750 0.19290 0.17330 -1.41700
C 	C 	0.66450 0.40530 0.91600 0.12600
C 	C 	0.54890 0.45730 0.71920 0.05200
C 	C 	0.27530 0.10540 0.63850 -0.11800
C 	C 	0.01780 0.82560 0.29130 -0.13200
C 	C 	0.53950 0.16360 0.98540 0.03600
C 	C 	0.04220 0.85940 0.23370 0.11000
C 	C 	0.61020 0.80340 0.62380 -0.04300
C 	C 	0.77960 0.62730 0.57490 0.11200
C 	C 	0.54220 0.85940 0.26630 0.11300
C 	C 	0.34310 0.68390 0.32910 -3.33000
C 	C 	0.48990 0.69180 0.76760 -0.19600
C 	C 	0.05600 0.24480 0.59970 0.01500
C 	C 	0.33550 0.90530 0.08400 0.12600
C 	C 	0.78320 0.26370 0.31770 1.63900
C 	C 	0.55600 0.24480 0.90030 0.01800
C 	C 	0.32870 0.27460 0.41200 0.00700
C 	C 	0.09150 0.13160 0.81370 3.40300
C 	C 	0.09130 0.82050 0.19110 -0.14800
C 	C 	0.53470 0.41460 0.10900 -0.07700
C 	C 	0.52850 0.30720 0.17180 -0.04700
C 	C 	0.09370 0.38360 0.43210 0.04400
C 	C 	0.80520 0.37810 0.03220 0.02000
C 	C 	0.09330 0.87060 0.88790 -0.00600
C 	C 	0.19480 0.87810 0.96780 0.02000
C 	C 	0.48830 0.22210 0.86790 -0.07100
C 	C 	0.65690 0.18390 0.67090 -3.34100
C 	C 	0.42960 0.25890 0.32590 0.13800
C 	C 	0.96520 0.55020 0.26560 2.75900
C 	C 	0.98230 0.15280 0.21710 0.13900
C 	C 	0.59330 0.87060 0.61210 -0.00600
C 	C 	0.79260 0.24510 0.88340 0.05000
C 	C 	0.46050 0.66360 0.01460 0.03800
C 	C 	0.44920 0.16440 0.89530 0.00400
C 	C 	0.84310 0.68390 0.17090 -3.33800
C 	C 	0.57110 0.05220 0.28990 0.14000
C 	C 	0.22040 0.12730 0.42510 0.11200
C 	C 	0.86610 0.40810 0.06400 -0.09800
C 	C 	0.03860 0.75690 0.30540 0.11100
C 	C 	0.27960 0.62730 0.92510 0.11200
C 	C 	0.42890 0.55220 0.71010 0.13200
C 	C 	0.23600 0.44320 0.27450 -3.05700
C 	C 	0.33940 0.95450 0.74490 3.01800
C 	C 	0.25960 0.64880 0.73920 0.72700
C 	C 	0.32320 0.14100 0.67820 -0.00500
C 	C 	0.66100 0.24950 0.71140 2.96500
C 	C 	0.97330 0.13740 0.54360 -0.08500
C 	C 	0.83940 0.95450 0.75510 3.01400
C 	C 	0.56540 0.68890 0.66870 -0.18000
C 	C 	0.95780 0.35940 0.76630 0.11400
C 	C 	0.05080 0.66440 0.39530 0.00200
C 	C 	0.24040 0.14880 0.23920 0.73100
C 	C 	0.75960 0.64880 0.76080 0.72700
C 	C 	0.51010 0.19180 0.23240 -0.19700
C 	C 	0.41570 0.48120 0.71390 -0.12200
C 	C 	0.08430 0.98120 0.21390 -0.13200
C 	C 	0.26050 0.81540 0.72760 -2.22400
C 	C 	0.47330 0.13740 0.95640 -0.08800
C 	C 	0.76400 0.94320 0.72550 -3.04900
C 	C 	0.94400 0.74480 0.40030 0.01600
C 	C 	0.77030 0.86740 0.22790 1.50500
C 	C 	0.91720 0.78250 0.62680 0.02700
C 	C 	0.82870 0.27460 0.08800 0.00700
C 	C 	0.02670 0.63740 0.45640 -0.08700
C 	C 	0.49430 0.07450 0.28550 -0.06900
C 	C 	0.96050 0.66360 0.48540 0.03600
C 	C 	0.49930 0.76110 0.77220 0.14000
C 	C 	0.16060 0.45450 0.24490 3.02300
C 	C 	0.90670 0.37060 0.11210 -0.00600
C 	C 	0.63390 0.90810 0.56400 -0.09800
C 	C 	0.09890 0.10580 0.74500 -3.41800
C 	C 	0.50570 0.57450 0.71450 -0.06300
C 	C 	0.17760 0.42500 0.78940 -0.99200
C 	C 	0.53860 0.75690 0.19460 0.11200
C 	C 	0.51780 0.82560 0.20870 -0.13700
C 	C 	0.59370 0.38360 0.06790 0.04400
C 	C 	0.26400 0.94320 0.77450 -3.05100
C 	C 	0.92960 0.25890 0.17410 0.13900
C 	C 	0.40630 0.88360 0.93210 0.04400
C 	C 	0.95110 0.95730 0.21920 0.03700
C 	C 	0.99480 0.87240 0.66350 0.02800
C 	C 	0.90630 0.88360 0.56790 0.04300
C 	C 	0.82320 0.14100 0.82180 -0.00500
C 	C 	0.57040 0.75890 0.67410 0.13800
C 	C 	0.76460 0.64280 0.41340 0.06900
C 	C 	0.72470 0.60540 0.36150 -0.11800
C 	C 	0.38980 0.30340 0.37620 -0.04300
C 	C 	0.01170 0.72210 0.36790 -0.06900
C 	C 	0.27180 0.38870 0.22780 2.41000
C 	C 	0.16410 0.71270 0.16520 -0.03800
C 	C 	0.00070 0.26110 0.27220 0.14100
C 	C 	0.96530 0.91460 0.60900 -0.07600
C 	C 	0.70740 0.74510 0.38340 0.05000
C 	C 	0.72970 0.36740 0.72790 1.50700
C 	C 	0.77180 0.38870 0.27220 2.40900
C 	C 	0.47430 0.43280 0.72220 -0.01200
C 	C 	0.55080 0.66440 0.10470 0.00400
C 	C 	0.00520 0.37240 0.33650 0.03100
C 	C 	0.15690 0.18390 0.82910 -3.37900
C 	C 	0.45110 0.95730 0.28080 0.04300
C 	C 	0.59890 0.10580 0.75500 -3.38300
C 	C 	0.48220 0.32560 0.79130 -0.13800
C 	C 	0.73540 0.14280 0.91340 0.06900
C 	C 	0.67130 0.77460 0.58800 0.00700
C 	C 	0.80350 0.58440 0.77910 -0.43900
C 	C 	0.77530 0.10540 0.86150 -0.11700
C 	C 	0.89000 0.25440 0.78930 0.13500
C 	C 	0.59130 0.82050 0.30890 -0.14900
C 	C 	0.20740 0.74510 0.11660 0.05000
C 	C 	0.25250 0.69290 0.67330 -1.41200
C 	C 	0.56350 0.52600 0.71540 -0.05700
C 	C 	0.50070 0.26110 0.22780 0.14100
C 	C 	0.46530 0.91460 0.89100 -0.07700
C 	C 	0.93460 0.18890 0.16870 -0.18200
C 	C 	0.13390 0.90810 0.93600 -0.09800
C 	C 	0.30520 0.37810 0.46780 0.02000
C 	C 	0.90850 0.63160 0.18630 3.36000
C 	C 	0.48230 0.15280 0.28290 0.13800
C 	C 	0.39000 0.25440 0.71070 0.13500
C 	C 	0.22470 0.60540 0.13850 -0.11700
C 	C 	0.53480 0.05020 0.76560 2.76100
C 	C 	0.58430 0.98120 0.28610 -0.13200
C 	C 	0.27940 0.79680 0.31300 -2.47600
S 	S 	0.27142 0.05495 0.40611 -0.08700
S 	S 	0.72858 0.55495 0.59389 -0.08900
S 	S 	0.22858 0.55495 0.90611 -0.09000
S 	S 	0.64759 0.48611 0.88576 -0.09300
S 	S 	0.35241 0.98611 0.11424 -0.09700
S 	S 	0.14759 0.48611 0.61424 -0.09400
S 	S 	0.85241 0.98611 0.38576 -0.09800
S 	S 	0.77142 0.05495 0.09389 -0.08600
N 	N 	0.38780 0.81840 0.92450 -0.23600
N 	N 	0.80840 0.67670 0.56070 -0.27200
N 	N 	0.61220 0.31840 0.07550 -0.23600
N 	N 	0.24420 0.20860 0.57760 -0.22800
N 	N 	0.91390 0.22100 0.73680 -0.14500
N 	N 	0.88780 0.81840 0.57550 -0.23600
N 	N 	0.53930 0.79790 0.72340 -0.12400
N 	N 	0.58610 0.72100 0.23680 -0.14600
N 	N 	0.32720 0.85140 0.06570 -0.26700
N 	N 	0.92010 0.71790 0.45660 -0.21900
N 	N 	0.19160 0.17670 0.43930 -0.27200
N 	N 	0.74420 0.20860 0.92240 -0.22800
N 	N 	0.17280 0.35140 0.56570 -0.26700
N 	N 	0.07990 0.21790 0.54340 -0.21900
N 	N 	0.41390 0.22100 0.76320 -0.14600
N 	N 	0.96070 0.29790 0.22340 -0.12400
N 	N 	0.28400 0.31080 0.45500 -0.22600
N 	N 	0.75580 0.70860 0.42240 -0.22800
N 	N 	0.03930 0.79790 0.77660 -0.12300
N 	N 	0.69160 0.17670 0.06070 -0.27200
N 	N 	0.21600 0.81080 0.95500 -0.22600
N 	N 	0.57990 0.21790 0.95660 -0.21900
N 	N 	0.25580 0.70860 0.07760 -0.22800
N 	N 	0.46070 0.29790 0.27660 -0.12400
N 	N 	0.42010 0.71790 0.04340 -0.21900
N 	N 	0.67280 0.35140 0.93430 -0.26700
N 	N 	0.08610 0.72100 0.26320 -0.14500
N 	N 	0.11220 0.31840 0.42450 -0.23600
N 	N 	0.71600 0.81080 0.54500 -0.22600
N 	N 	0.30840 0.67670 0.93930 -0.27200
N 	N 	0.78400 0.31080 0.04500 -0.22600
N 	N 	0.82720 0.85140 0.43430 -0.26700
O 	O 	0.62220 0.10200 0.29310 -0.14700
O 	O 	0.39750 0.90650 0.27320 0.02100
O 	O 	0.89750 0.90650 0.22680 0.02200
O 	O 	0.87780 0.60200 0.79310 -0.14600
O 	O 	0.60250 0.40650 0.72680 0.02000
O 	O 	0.10250 0.40650 0.77320 0.02400
O 	O 	0.37780 0.60200 0.70690 -0.14600
O 	O 	0.12220 0.10200 0.20690 -0.14700
