data_crystal

_cell_length_a 12.20150
_cell_length_b 12.36780
_cell_length_c 13.52030
_cell_angle_alpha 102.22200
_cell_angle_beta  98.70400
_cell_angle_gamma 106.48000

_symmetry_space_group_name_	'P 1'
_symmetry_space_group_name_H-M	'P 1'

loop_
_symmetry_equiv_pos_as_xyz
  x,y,z

loop_
_atom_site_label
_atom_site_type_symbol
_atom_site_fract_x
_atom_site_fract_y
_atom_site_fract_z
_atom_site_charge
Ce	Ce	0.32514 0.48091 0.45396 2.10500
Ce	Ce	0.67486 0.51909 0.54604 2.10500
H 	H 	0.03750 0.35670 0.11180 0.06000
H 	H 	0.20220 0.69990 0.20580 0.04000
H 	H 	0.89410 0.27850 0.94410 0.05900
H 	H 	0.58510 0.22950 0.54380 0.01200
H 	H 	0.26100 0.05110 0.37890 0.02200
H 	H 	0.71180 0.12210 0.60910 0.06400
H 	H 	0.36680 0.46900 0.13420 0.05600
H 	H 	0.71280 0.53110 0.20840 0.01000
H 	H 	0.27410 0.46230 0.95550 0.07000
H 	H 	0.96250 0.64330 0.88820 0.06000
H 	H 	0.79780 0.30010 0.79420 0.04000
H 	H 	0.10590 0.72150 0.05590 0.05900
H 	H 	0.41490 0.77050 0.45620 0.01200
H 	H 	0.73900 0.94890 0.62110 0.02200
H 	H 	0.28820 0.87790 0.39090 0.06400
H 	H 	0.63320 0.53100 0.86580 0.05600
H 	H 	0.28720 0.46890 0.79160 0.01000
H 	H 	0.72590 0.53770 0.04450 0.07000
C 	C 	0.18850 0.50910 0.27180 0.29700
C 	C 	0.99000 0.44290 0.00470 0.02400
C 	C 	0.05160 0.43060 0.10060 -0.05400
C 	C 	0.12750 0.52330 0.17250 -0.06500
C 	C 	0.14860 0.63480 0.15630 -0.00300
C 	C 	0.91040 0.35260 0.93320 -0.09200
C 	C 	0.40220 0.26990 0.45270 0.43400
C 	C 	0.54460 0.05230 0.52310 0.01800
C 	C 	0.52550 0.15850 0.51320 -0.00700
C 	C 	0.42210 0.15720 0.46010 -0.14700
C 	C 	0.33260 0.05170 0.41470 0.04700
C 	C 	0.65130 0.05180 0.57770 -0.11200
C 	C 	0.52750 0.49390 0.29730 0.43800
C 	C 	0.44550 0.48860 0.01250 0.02700
C 	C 	0.43880 0.48320 0.11560 -0.02300
C 	C 	0.53650 0.49840 0.18680 -0.11700
C 	C 	0.64570 0.52010 0.15920 0.04200
C 	C 	0.34660 0.47500 0.93780 -0.11200
C 	C 	0.81150 0.49090 0.72820 0.29700
C 	C 	0.01000 0.55710 0.99530 0.02400
C 	C 	0.94840 0.56940 0.89940 -0.05400
C 	C 	0.87250 0.47670 0.82750 -0.06500
C 	C 	0.85140 0.36520 0.84370 -0.00300
C 	C 	0.08960 0.64740 0.06680 -0.09200
C 	C 	0.59780 0.73010 0.54730 0.43400
C 	C 	0.45540 0.94770 0.47690 0.01800
C 	C 	0.47450 0.84150 0.48680 -0.00700
C 	C 	0.57790 0.84280 0.53990 -0.14700
C 	C 	0.66740 0.94830 0.58530 0.04700
C 	C 	0.34870 0.94820 0.42230 -0.11200
C 	C 	0.47250 0.50610 0.70270 0.43800
C 	C 	0.55450 0.51140 0.98750 0.02700
C 	C 	0.56120 0.51680 0.88440 -0.02300
C 	C 	0.46350 0.50160 0.81320 -0.11700
C 	C 	0.35430 0.47990 0.84080 0.04200
C 	C 	0.65340 0.52500 0.06220 -0.11200
O 	O 	0.16590 0.40870 0.28750 -0.45100
O 	O 	0.26220 0.59880 0.33550 -0.45300
O 	O 	0.30190 0.26610 0.41430 -0.49400
O 	O 	0.48470 0.36370 0.48580 -0.63500
O 	O 	0.42620 0.46310 0.31220 -0.50900
O 	O 	0.62190 0.52070 0.36130 -0.55100
O 	O 	0.83410 0.59130 0.71250 -0.45100
O 	O 	0.73780 0.40120 0.66450 -0.45300
O 	O 	0.69810 0.73390 0.58570 -0.49400
O 	O 	0.51530 0.63630 0.51420 -0.63500
O 	O 	0.57380 0.53690 0.68780 -0.50900
O 	O 	0.37810 0.47930 0.63870 -0.55100
