data_crystal

_cell_length_a 10.08480
_cell_length_b 19.36800
_cell_length_c 16.21100
_cell_angle_alpha 114.70100
_cell_angle_beta  90.00000
_cell_angle_gamma 90.00000

_symmetry_space_group_name_	'P 1'
_symmetry_space_group_name_H-M	'P 1'

loop_
_symmetry_equiv_pos_as_xyz
  x,y,z

loop_
_atom_site_label
_atom_site_type_symbol
_atom_site_fract_x
_atom_site_fract_y
_atom_site_fract_z
_atom_site_charge
Zn	Zn	0.02808 0.54684 0.68154 1.18100
Zn	Zn	0.02000 0.99010 0.33609 1.18700
Zn	Zn	0.52808 0.45316 0.81846 1.18100
Zn	Zn	0.52000 0.00990 0.16391 1.18800
Zn	Zn	0.97192 0.45316 0.31846 1.18200
Zn	Zn	0.98000 0.00990 0.66391 1.18800
Zn	Zn	0.47192 0.54684 0.18154 1.18200
Zn	Zn	0.48000 0.99010 0.83609 1.18900
H 	H 	0.29580 0.96680 0.54010 0.01900
H 	H 	0.97490 0.64510 0.58870 0.00900
H 	H 	0.72680 0.58340 0.73340 0.00900
H 	H 	0.61950 0.77370 0.33130 0.03300
H 	H 	0.97720 0.87100 0.41210 -0.00300
H 	H 	0.58840 0.69920 0.59610 0.03600
H 	H 	0.55280 0.64180 0.69540 0.07400
H 	H 	0.76120 0.92910 0.24870 0.00300
H 	H 	0.59230 0.84930 0.24980 0.06800
H 	H 	0.59270 0.77970 0.56470 0.14800
H 	H 	0.59780 0.82090 0.50270 0.15200
H 	H 	0.16820 0.57000 0.97230 0.04400
H 	H 	0.79580 0.03320 0.95990 0.01900
H 	H 	0.47490 0.35490 0.91130 0.00800
H 	H 	0.22680 0.41660 0.76660 0.00900
H 	H 	0.11950 0.22630 0.16870 0.03400
H 	H 	0.47720 0.12900 0.08790 -0.00400
H 	H 	0.08840 0.30080 0.90390 0.03700
H 	H 	0.05280 0.35820 0.80460 0.07400
H 	H 	0.26120 0.07090 0.25130 0.00400
H 	H 	0.09230 0.15070 0.25020 0.06900
H 	H 	0.09270 0.22030 0.93530 0.14800
H 	H 	0.09780 0.17910 0.99730 0.15200
H 	H 	0.66820 0.43000 0.52770 0.04400
H 	H 	0.70420 0.03320 0.45990 0.01900
H 	H 	0.02510 0.35490 0.41130 0.00900
H 	H 	0.27320 0.41660 0.26660 0.00900
H 	H 	0.38050 0.22630 0.66870 0.03300
H 	H 	0.02280 0.12900 0.58790 -0.00300
H 	H 	0.41160 0.30080 0.40390 0.03600
H 	H 	0.44720 0.35820 0.30460 0.07400
H 	H 	0.23880 0.07090 0.75130 0.00300
H 	H 	0.40770 0.15070 0.75020 0.06800
H 	H 	0.40730 0.22030 0.43530 0.14800
H 	H 	0.40220 0.17910 0.49730 0.15200
H 	H 	0.83180 0.43000 0.02770 0.04400
H 	H 	0.20420 0.96680 0.04010 0.01900
H 	H 	0.52510 0.64510 0.08870 0.00800
H 	H 	0.77320 0.58340 0.23340 0.00900
H 	H 	0.88050 0.77370 0.83130 0.03400
H 	H 	0.52280 0.87100 0.91210 -0.00400
H 	H 	0.91160 0.69920 0.09610 0.03700
H 	H 	0.94720 0.64180 0.19540 0.07400
H 	H 	0.73880 0.92910 0.74870 0.00400
H 	H 	0.90770 0.84930 0.74980 0.06900
H 	H 	0.90730 0.77970 0.06470 0.14800
H 	H 	0.90220 0.82090 0.00270 0.15200
H 	H 	0.33180 0.57000 0.47230 0.04400
C 	C 	0.37900 0.98030 0.52360 0.00900
C 	C 	0.38550 0.00050 0.45130 -0.05300
C 	C 	0.97340 0.56490 0.86720 0.34100
C 	C 	0.88720 0.64340 0.60910 0.02200
C 	C 	0.25960 0.00740 0.40630 0.31800
C 	C 	0.78610 0.67680 0.58010 -0.04300
C 	C 	0.74270 0.60820 0.69470 0.05800
C 	C 	0.80290 0.81450 0.37920 -0.04900
C 	C 	0.68720 0.80790 0.33130 0.00600
C 	C 	0.83220 0.76640 0.42560 0.11400
C 	C 	0.89800 0.86590 0.37830 0.03400
C 	C 	0.66000 0.67620 0.61330 0.01200
C 	C 	0.63880 0.64190 0.67150 -0.09300
C 	C 	0.82230 0.70570 0.51340 0.11900
C 	C 	0.77160 0.90050 0.28370 0.05100
C 	C 	0.67150 0.85240 0.28290 -0.09100
C 	C 	0.98030 0.53110 0.93640 -0.04800
C 	C 	0.87790 0.49020 0.95470 -0.04100
C 	C 	0.74400 0.48040 0.90890 0.28900
C 	C 	0.50730 0.02070 0.42680 -0.06200
C 	C 	0.52580 0.03920 0.34560 0.34900
C 	C 	0.09990 0.54110 0.98310 -0.01200
C 	C 	0.87900 0.01970 0.97640 0.00700
C 	C 	0.88550 0.99950 0.04870 -0.05000
C 	C 	0.47340 0.43510 0.63280 0.34200
C 	C 	0.38720 0.35660 0.89090 0.02200
C 	C 	0.75960 0.99260 0.09370 0.31600
C 	C 	0.28610 0.32320 0.91990 -0.04300
C 	C 	0.24270 0.39180 0.80530 0.05800
C 	C 	0.30290 0.18550 0.12080 -0.04900
C 	C 	0.18720 0.19210 0.16870 0.00700
C 	C 	0.33220 0.23360 0.07440 0.11400
C 	C 	0.39800 0.13410 0.12170 0.03400
C 	C 	0.16000 0.32380 0.88670 0.01100
C 	C 	0.13880 0.35810 0.82850 -0.09300
C 	C 	0.32230 0.29430 0.98660 0.11800
C 	C 	0.27160 0.09950 0.21630 0.05200
C 	C 	0.17150 0.14760 0.21710 -0.09100
C 	C 	0.48030 0.46890 0.56360 -0.04900
C 	C 	0.37790 0.50980 0.54530 -0.04200
C 	C 	0.24400 0.51960 0.59110 0.28900
C 	C 	0.00730 0.97930 0.07320 -0.06400
C 	C 	0.02580 0.96080 0.15440 0.35000
C 	C 	0.59990 0.45890 0.51690 -0.01100
C 	C 	0.62100 0.01970 0.47640 0.00900
C 	C 	0.61450 0.99950 0.54870 -0.05300
C 	C 	0.02660 0.43510 0.13280 0.34100
C 	C 	0.11280 0.35660 0.39090 0.02200
C 	C 	0.74040 0.99260 0.59370 0.31800
C 	C 	0.21390 0.32320 0.41990 -0.04300
C 	C 	0.25730 0.39180 0.30530 0.05800
C 	C 	0.19710 0.18550 0.62080 -0.04900
C 	C 	0.31280 0.19210 0.66870 0.00600
C 	C 	0.16780 0.23360 0.57440 0.11400
C 	C 	0.10200 0.13410 0.62170 0.03400
C 	C 	0.34000 0.32380 0.38670 0.01200
C 	C 	0.36120 0.35810 0.32850 -0.09300
C 	C 	0.17770 0.29430 0.48660 0.11900
C 	C 	0.22840 0.09950 0.71630 0.05100
C 	C 	0.32850 0.14760 0.71710 -0.09100
C 	C 	0.01970 0.46890 0.06360 -0.04800
C 	C 	0.12210 0.50980 0.04530 -0.04100
C 	C 	0.25600 0.51960 0.09110 0.28900
C 	C 	0.49270 0.97930 0.57320 -0.06200
C 	C 	0.47420 0.96080 0.65440 0.34900
C 	C 	0.90010 0.45890 0.01690 -0.01200
C 	C 	0.12100 0.98030 0.02360 0.00700
C 	C 	0.11450 0.00050 0.95130 -0.05000
C 	C 	0.52660 0.56490 0.36720 0.34200
C 	C 	0.61280 0.64340 0.10910 0.02200
C 	C 	0.24040 0.00740 0.90630 0.31600
C 	C 	0.71390 0.67680 0.08010 -0.04300
C 	C 	0.75730 0.60820 0.19470 0.05800
C 	C 	0.69710 0.81450 0.87920 -0.04900
C 	C 	0.81280 0.80790 0.83130 0.00700
C 	C 	0.66780 0.76640 0.92560 0.11400
C 	C 	0.60200 0.86590 0.87830 0.03400
C 	C 	0.84000 0.67620 0.11330 0.01100
C 	C 	0.86120 0.64190 0.17150 -0.09300
C 	C 	0.67770 0.70570 0.01340 0.11800
C 	C 	0.72840 0.90050 0.78370 0.05200
C 	C 	0.82850 0.85240 0.78290 -0.09100
C 	C 	0.51970 0.53110 0.43640 -0.04900
C 	C 	0.62210 0.49020 0.45470 -0.04200
C 	C 	0.75600 0.48040 0.40890 0.28900
C 	C 	0.99270 0.02070 0.92680 -0.06400
C 	C 	0.97420 0.03920 0.84560 0.35000
C 	C 	0.40010 0.54110 0.48310 -0.01100
N 	N 	0.86670 0.60900 0.66430 -0.25300
N 	N 	0.88320 0.90910 0.33160 -0.25800
N 	N 	0.93990 0.72430 0.41170 -0.09900
N 	N 	0.93400 0.68710 0.46630 -0.10400
N 	N 	0.75530 0.75530 0.48860 -0.09600
N 	N 	0.63360 0.78950 0.52280 -0.22700
N 	N 	0.36670 0.39100 0.83570 -0.25300
N 	N 	0.38320 0.09090 0.16840 -0.25800
N 	N 	0.43990 0.27570 0.08830 -0.09900
N 	N 	0.43400 0.31290 0.03370 -0.10400
N 	N 	0.25530 0.24470 0.01140 -0.09600
N 	N 	0.13360 0.21050 0.97720 -0.22800
N 	N 	0.13330 0.39100 0.33570 -0.25300
N 	N 	0.11680 0.09090 0.66840 -0.25800
N 	N 	0.06010 0.27570 0.58830 -0.09900
N 	N 	0.06600 0.31290 0.53370 -0.10400
N 	N 	0.24470 0.24470 0.51140 -0.09600
N 	N 	0.36640 0.21050 0.47720 -0.22700
N 	N 	0.63330 0.60900 0.16430 -0.25300
N 	N 	0.61680 0.90910 0.83160 -0.25800
N 	N 	0.56010 0.72430 0.91170 -0.09900
N 	N 	0.56600 0.68710 0.96630 -0.10400
N 	N 	0.74470 0.75530 0.98860 -0.09600
N 	N 	0.86640 0.78950 0.02280 -0.22800
O 	O 	0.98990 0.51830 0.78530 -0.45100
O 	O 	0.24240 0.06170 0.38550 -0.34200
O 	O 	0.96720 0.63480 0.89600 -0.29100
O 	O 	0.16870 0.95880 0.39230 -0.46800
O 	O 	0.72200 0.50590 0.85150 -0.39800
O 	O 	0.65530 0.44410 0.93030 -0.40000
O 	O 	0.49010 0.98800 0.26980 -0.47200
O 	O 	0.57620 0.09860 0.35390 -0.33100
O 	O 	0.48990 0.48170 0.71470 -0.45100
O 	O 	0.74240 0.93830 0.11450 -0.34200
O 	O 	0.46720 0.36520 0.60400 -0.29200
O 	O 	0.66870 0.04120 0.10770 -0.46800
O 	O 	0.22200 0.49410 0.64850 -0.39800
O 	O 	0.15530 0.55590 0.56970 -0.40000
O 	O 	0.99010 0.01200 0.23020 -0.47300
O 	O 	0.07620 0.90140 0.14610 -0.33100
O 	O 	0.01010 0.48170 0.21470 -0.45100
O 	O 	0.75760 0.93830 0.61450 -0.34200
O 	O 	0.03280 0.36520 0.10400 -0.29100
O 	O 	0.83130 0.04120 0.60770 -0.46800
O 	O 	0.27800 0.49410 0.14850 -0.39800
O 	O 	0.34470 0.55590 0.06970 -0.40000
O 	O 	0.50990 0.01200 0.73020 -0.47200
O 	O 	0.42380 0.90140 0.64610 -0.33100
O 	O 	0.51010 0.51830 0.28530 -0.45100
O 	O 	0.25760 0.06170 0.88550 -0.34200
O 	O 	0.53280 0.63480 0.39600 -0.29200
O 	O 	0.33130 0.95880 0.89230 -0.46800
O 	O 	0.77800 0.50590 0.35150 -0.39800
O 	O 	0.84470 0.44410 0.43030 -0.40000
O 	O 	0.00990 0.98800 0.76980 -0.47300
O 	O 	0.92380 0.09860 0.85390 -0.33100
