data_crystal

_cell_length_a 7.27100
_cell_length_b 10.21200
_cell_length_c 18.06100
_cell_angle_alpha 90.00000
_cell_angle_beta  90.00000
_cell_angle_gamma 94.23400

_symmetry_space_group_name_	'P 1'
_symmetry_space_group_name_H-M	'P 1'

loop_
_symmetry_equiv_pos_as_xyz
  x,y,z

loop_
_atom_site_label
_atom_site_type_symbol
_atom_site_fract_x
_atom_site_fract_y
_atom_site_fract_z
_atom_site_charge
Cu	Cu	0.86315 0.21454 0.90555 0.92100
Cu	Cu	0.03655 0.92917 0.93160 0.93700
Cu	Cu	0.63685 0.28546 0.40555 0.92000
Cu	Cu	0.46345 0.57083 0.43160 0.94200
Cu	Cu	0.13685 0.78546 0.09445 0.92200
Cu	Cu	0.96345 0.07083 0.06840 0.93800
Cu	Cu	0.36315 0.71454 0.59445 0.92100
Cu	Cu	0.53655 0.42917 0.56840 0.94300
H 	H 	0.77760 0.16480 0.69160 0.04000
H 	H 	0.93350 0.79840 0.70650 0.02700
H 	H 	0.77290 0.93750 0.51130 0.02100
H 	H 	0.72240 0.33520 0.19160 0.03700
H 	H 	0.56650 0.70160 0.20650 0.02400
H 	H 	0.72710 0.56250 0.01130 0.02100
H 	H 	0.22240 0.83520 0.30840 0.04000
H 	H 	0.06650 0.20160 0.29350 0.02700
H 	H 	0.22710 0.06250 0.48870 0.02100
H 	H 	0.27760 0.66480 0.80840 0.03700
H 	H 	0.43350 0.29840 0.79350 0.02400
H 	H 	0.27290 0.43750 0.98870 0.02100
C 	C 	0.85470 0.84950 0.60410 -0.17300
C 	C 	0.76540 0.06930 0.59490 -0.15500
C 	C 	0.79830 0.08490 0.66950 0.08900
C 	C 	0.86120 0.98570 0.71260 -0.14700
C 	C 	0.89650 0.00830 0.79220 0.40100
C 	C 	0.89030 0.86650 0.67890 0.08900
C 	C 	0.79430 0.94960 0.56170 0.09200
C 	C 	0.69150 0.17910 0.55320 0.40800
C 	C 	0.64530 0.65050 0.10410 -0.17500
C 	C 	0.73460 0.43070 0.09490 -0.15400
C 	C 	0.70170 0.41510 0.16950 0.09700
C 	C 	0.63880 0.51430 0.21260 -0.15800
C 	C 	0.60350 0.49170 0.29220 0.41200
C 	C 	0.60970 0.63350 0.17890 0.09400
C 	C 	0.70570 0.55040 0.06170 0.08900
C 	C 	0.80850 0.32090 0.05320 0.40400
C 	C 	0.14530 0.15050 0.39590 -0.17300
C 	C 	0.23460 0.93070 0.40510 -0.15500
C 	C 	0.20170 0.91510 0.33050 0.08900
C 	C 	0.13880 0.01430 0.28740 -0.14700
C 	C 	0.10350 0.99170 0.20780 0.40100
C 	C 	0.10970 0.13350 0.32110 0.08900
C 	C 	0.20570 0.05040 0.43830 0.09200
C 	C 	0.30850 0.82090 0.44680 0.40800
C 	C 	0.35470 0.34950 0.89590 -0.17500
C 	C 	0.26540 0.56930 0.90510 -0.15400
C 	C 	0.29830 0.58490 0.83050 0.09700
C 	C 	0.36120 0.48570 0.78740 -0.15800
C 	C 	0.39650 0.50830 0.70780 0.41200
C 	C 	0.39030 0.36650 0.82110 0.09400
C 	C 	0.29430 0.44960 0.93830 0.08900
C 	C 	0.19150 0.67910 0.94680 0.40400
S 	S 	0.87220 0.69189 0.56484 0.58100
S 	S 	0.62780 0.80811 0.06484 0.57900
S 	S 	0.12780 0.30811 0.43516 0.58100
S 	S 	0.37220 0.19189 0.93516 0.57900
O 	O 	0.94290 0.91560 0.83200 -0.38400
O 	O 	0.86890 0.05730 0.96580 -0.48700
O 	O 	0.65500 0.16250 0.48580 -0.43300
O 	O 	0.87390 0.12290 0.81390 -0.41800
O 	O 	0.85270 0.70200 0.48680 -0.29700
O 	O 	0.67200 0.28220 0.58940 -0.40000
O 	O 	0.72440 0.61330 0.59850 -0.38400
O 	O 	0.04500 0.64910 0.58950 -0.32800
O 	O 	0.55710 0.58440 0.33200 -0.39100
O 	O 	0.63110 0.44270 0.46580 -0.48800
O 	O 	0.84500 0.33750 0.98580 -0.42800
O 	O 	0.62610 0.37710 0.31390 -0.42100
O 	O 	0.64730 0.79800 0.98680 -0.29700
O 	O 	0.82800 0.21780 0.08940 -0.40200
O 	O 	0.77560 0.88670 0.09850 -0.38200
O 	O 	0.45500 0.85090 0.08950 -0.32500
O 	O 	0.05710 0.08440 0.16800 -0.38400
O 	O 	0.13110 0.94270 0.03420 -0.48700
O 	O 	0.34500 0.83750 0.51420 -0.43300
O 	O 	0.12610 0.87710 0.18610 -0.41800
O 	O 	0.14730 0.29800 0.51320 -0.29700
O 	O 	0.32800 0.71780 0.41060 -0.40000
O 	O 	0.27560 0.38670 0.40150 -0.38400
O 	O 	0.95500 0.35090 0.41050 -0.32800
O 	O 	0.44290 0.41560 0.66800 -0.39100
O 	O 	0.36890 0.55730 0.53420 -0.48800
O 	O 	0.15500 0.66250 0.01420 -0.42800
O 	O 	0.37390 0.62290 0.68610 -0.42100
O 	O 	0.35270 0.20200 0.01320 -0.29700
O 	O 	0.17200 0.78220 0.91060 -0.40200
O 	O 	0.22440 0.11330 0.90150 -0.38200
O 	O 	0.54500 0.14910 0.91050 -0.32500
