data_crystal

_cell_length_a 11.73680
_cell_length_b 11.73680
_cell_length_c 15.46200
_cell_angle_alpha 82.00110
_cell_angle_beta  82.00110
_cell_angle_gamma 76.69060

_symmetry_space_group_name_	'P 1'
_symmetry_space_group_name_H-M	'P 1'

loop_
_symmetry_equiv_pos_as_xyz
  x,y,z

loop_
_atom_site_label
_atom_site_type_symbol
_atom_site_fract_x
_atom_site_fract_y
_atom_site_fract_z
_atom_site_charge
Cd	Cd	0.97196 0.46423 0.12845 1.22700
Cd	Cd	0.53577 0.02804 0.37155 1.22700
H 	H 	0.88490 0.40470 0.45360 0.08700
H 	H 	0.76740 0.36260 0.58120 -0.00300
H 	H 	0.57730 0.34290 0.57660 0.11600
H 	H 	0.61550 0.42290 0.31540 0.12000
H 	H 	0.31520 0.34600 0.49560 0.11100
H 	H 	0.39590 0.38310 0.55450 0.11600
H 	H 	0.81780 0.28320 0.11610 -0.00700
H 	H 	0.81050 0.09030 0.12450 0.09300
H 	H 	0.80950 0.91830 0.10910 0.08300
H 	H 	0.81020 0.72280 0.11590 -0.00300
H 	H 	0.13340 0.63520 0.16610 -0.00400
H 	H 	0.14360 0.82780 0.16060 0.07400
H 	H 	0.15360 0.00840 0.13100 0.08300
H 	H 	0.15040 0.20380 0.12490 -0.00500
H 	H 	0.59530 0.11510 0.04640 0.08600
H 	H 	0.63740 0.23260 0.91880 -0.00400
H 	H 	0.65710 0.42270 0.92340 0.11600
H 	H 	0.57710 0.38450 0.18460 0.12000
H 	H 	0.65400 0.68480 0.00440 0.11100
H 	H 	0.61690 0.60410 0.94550 0.11600
H 	H 	0.71680 0.18220 0.38390 -0.00700
H 	H 	0.90970 0.18950 0.37550 0.09300
H 	H 	0.08170 0.19050 0.39090 0.08300
H 	H 	0.27720 0.18980 0.38410 -0.00300
H 	H 	0.36480 0.86660 0.33390 -0.00400
H 	H 	0.17220 0.85640 0.33940 0.07400
H 	H 	0.99160 0.84640 0.36900 0.08300
H 	H 	0.79620 0.84960 0.37510 -0.00500
C 	C 	0.83720 0.44166 0.28658 0.25200
C 	C 	0.76161 0.41725 0.37127 0.03900
C 	C 	0.80760 0.39914 0.45131 -0.14000
C 	C 	0.73748 0.37288 0.52734 0.09700
C 	C 	0.62328 0.36152 0.52485 -0.21700
C 	C 	0.57769 0.37783 0.44535 0.21800
C 	C 	0.64696 0.40834 0.36886 -0.18400
C 	C 	0.39545 0.33261 0.50996 -0.21700
C 	C 	0.43270 0.20566 0.54794 0.38600
C 	C 	0.88792 0.22712 0.11910 0.09900
C 	C 	0.88276 0.11036 0.12370 -0.15700
C 	C 	0.98115 0.02481 0.12717 0.07800
C 	C 	0.97778 0.89850 0.13186 0.05400
C 	C 	0.87785 0.86265 0.11980 -0.13500
C 	C 	0.87917 0.74437 0.12370 0.08400
C 	C 	0.06763 0.69323 0.15300 0.08000
C 	C 	0.07421 0.80921 0.15020 -0.13400
C 	C 	0.08248 0.06268 0.12780 -0.15300
C 	C 	0.07971 0.18131 0.12380 0.09900
C 	C 	0.55834 0.16280 0.21342 0.25200
C 	C 	0.58275 0.23839 0.12873 0.03900
C 	C 	0.60086 0.19240 0.04869 -0.14100
C 	C 	0.62712 0.26252 0.97266 0.09800
C 	C 	0.63848 0.37672 0.97515 -0.21700
C 	C 	0.62217 0.42231 0.05465 0.21800
C 	C 	0.59166 0.35304 0.13114 -0.18400
C 	C 	0.66739 0.60455 0.99004 -0.21700
C 	C 	0.79434 0.56730 0.95206 0.38600
C 	C 	0.77288 0.11208 0.38090 0.10000
C 	C 	0.88964 0.11724 0.37630 -0.15700
C 	C 	0.97519 0.01885 0.37283 0.07900
C 	C 	0.10150 0.02222 0.36814 0.05400
C 	C 	0.13735 0.12215 0.38020 -0.13500
C 	C 	0.25563 0.12083 0.37630 0.08400
C 	C 	0.30677 0.93237 0.34700 0.08000
C 	C 	0.19079 0.92579 0.34980 -0.13400
C 	C 	0.93732 0.91752 0.37220 -0.15400
C 	C 	0.81869 0.92029 0.37620 0.09900
N 	N 	0.98434 0.26450 0.11859 -0.23800
N 	N 	0.97241 0.66003 0.13785 -0.23300
N 	N 	0.73550 0.01566 0.38141 -0.23800
N 	N 	0.33997 0.02759 0.36215 -0.23300
O 	O 	0.78844 0.48464 0.21839 -0.34500
O 	O 	0.94733 0.41333 0.28508 -0.35300
O 	O 	0.46799 0.36577 0.43357 -0.18000
O 	O 	0.47899 0.12697 0.49918 -0.49300
O 	O 	0.41014 0.18212 0.62939 -0.39300
O 	O 	0.51536 0.21156 0.28161 -0.34500
O 	O 	0.58667 0.05267 0.21492 -0.35300
O 	O 	0.63423 0.53201 0.06643 -0.18000
O 	O 	0.87303 0.52101 0.00082 -0.49400
O 	O 	0.81788 0.58986 0.87061 -0.39300
Cd	Cd	0.02804 0.53577 0.87155 1.22600
Cd	Cd	0.46423 0.97196 0.62845 1.22600
H 	H 	0.11510 0.59530 0.54640 0.08600
H 	H 	0.23260 0.63740 0.41880 -0.00400
H 	H 	0.42270 0.65710 0.42340 0.11600
H 	H 	0.38450 0.57710 0.68460 0.12000
H 	H 	0.68480 0.65400 0.50440 0.11100
H 	H 	0.60410 0.61690 0.44550 0.11600
H 	H 	0.18220 0.71680 0.88390 -0.00700
H 	H 	0.18950 0.90970 0.87550 0.09300
H 	H 	0.19050 0.08170 0.89090 0.08300
H 	H 	0.18980 0.27720 0.88410 -0.00300
H 	H 	0.86660 0.36480 0.83390 -0.00400
H 	H 	0.85640 0.17220 0.83940 0.07400
H 	H 	0.84640 0.99160 0.86900 0.08300
H 	H 	0.84960 0.79620 0.87510 -0.00500
H 	H 	0.40470 0.88490 0.95360 0.08600
H 	H 	0.36260 0.76740 0.08120 -0.00400
H 	H 	0.34290 0.57730 0.07660 0.11600
H 	H 	0.42290 0.61550 0.81540 0.12000
H 	H 	0.34600 0.31520 0.99560 0.11100
H 	H 	0.38310 0.39590 0.05450 0.11600
H 	H 	0.28320 0.81780 0.61610 -0.00700
H 	H 	0.09030 0.81050 0.62450 0.09300
H 	H 	0.91830 0.80950 0.60910 0.08300
H 	H 	0.72280 0.81020 0.61590 -0.00300
H 	H 	0.63520 0.13340 0.66610 -0.00400
H 	H 	0.82780 0.14360 0.66060 0.07400
H 	H 	0.00840 0.15360 0.63100 0.08300
H 	H 	0.20380 0.15040 0.62490 -0.00500
C 	C 	0.16280 0.55834 0.71342 0.25200
C 	C 	0.23839 0.58275 0.62873 0.03900
C 	C 	0.19240 0.60086 0.54869 -0.14000
C 	C 	0.26252 0.62712 0.47266 0.09700
C 	C 	0.37672 0.63848 0.47515 -0.21700
C 	C 	0.42231 0.62217 0.55465 0.21800
C 	C 	0.35304 0.59166 0.63114 -0.18400
C 	C 	0.60455 0.66739 0.49004 -0.21700
C 	C 	0.56730 0.79434 0.45206 0.38600
C 	C 	0.11208 0.77288 0.88090 0.09900
C 	C 	0.11724 0.88964 0.87630 -0.15700
C 	C 	0.01885 0.97519 0.87283 0.07800
C 	C 	0.02222 0.10150 0.86814 0.05400
C 	C 	0.12215 0.13735 0.88020 -0.13500
C 	C 	0.12083 0.25563 0.87630 0.08400
C 	C 	0.93237 0.30677 0.84700 0.08000
C 	C 	0.92579 0.19079 0.84980 -0.13400
C 	C 	0.91752 0.93732 0.87220 -0.15300
C 	C 	0.92029 0.81869 0.87620 0.09900
C 	C 	0.44166 0.83720 0.78658 0.25200
C 	C 	0.41725 0.76161 0.87127 0.03900
C 	C 	0.39914 0.80760 0.95131 -0.14100
C 	C 	0.37288 0.73748 0.02734 0.09800
C 	C 	0.36152 0.62328 0.02485 -0.21700
C 	C 	0.37783 0.57769 0.94535 0.21800
C 	C 	0.40834 0.64696 0.86886 -0.18400
C 	C 	0.33261 0.39545 0.00996 -0.21700
C 	C 	0.20566 0.43270 0.04794 0.38600
C 	C 	0.22712 0.88792 0.61910 0.10000
C 	C 	0.11036 0.88276 0.62370 -0.15700
C 	C 	0.02481 0.98115 0.62717 0.07900
C 	C 	0.89850 0.97778 0.63186 0.05400
C 	C 	0.86265 0.87785 0.61980 -0.13500
C 	C 	0.74437 0.87917 0.62370 0.08400
C 	C 	0.69323 0.06763 0.65300 0.08000
C 	C 	0.80921 0.07421 0.65020 -0.13400
C 	C 	0.06268 0.08248 0.62780 -0.15400
C 	C 	0.18131 0.07971 0.62380 0.09900
N 	N 	0.01566 0.73550 0.88141 -0.23800
N 	N 	0.02759 0.33997 0.86215 -0.23300
N 	N 	0.26450 0.98434 0.61859 -0.23800
N 	N 	0.66003 0.97241 0.63785 -0.23300
O 	O 	0.21156 0.51536 0.78161 -0.34500
O 	O 	0.05267 0.58667 0.71492 -0.35300
O 	O 	0.53201 0.63423 0.56643 -0.18000
O 	O 	0.52101 0.87303 0.50082 -0.49300
O 	O 	0.58986 0.81788 0.37061 -0.39300
O 	O 	0.48464 0.78844 0.71839 -0.34500
O 	O 	0.41333 0.94733 0.78508 -0.35300
O 	O 	0.36577 0.46799 0.93357 -0.18000
O 	O 	0.12697 0.47899 0.99918 -0.49400
O 	O 	0.18212 0.41014 0.12939 -0.39300
