data_crystal

_cell_length_a 8.63130
_cell_length_b 13.05270
_cell_length_c 13.76460
_cell_angle_alpha 118.30300
_cell_angle_beta  91.29690
_cell_angle_gamma 90.00000

_symmetry_space_group_name_	'P 1'
_symmetry_space_group_name_H-M	'P 1'

loop_
_symmetry_equiv_pos_as_xyz
  x,y,z

loop_
_atom_site_label
_atom_site_type_symbol
_atom_site_fract_x
_atom_site_fract_y
_atom_site_fract_z
_atom_site_charge
Cu	Cu	0.55394 0.99905 0.58950 0.91800
Cu	Cu	0.94606 0.40955 0.41050 0.91800
Cu	Cu	0.44606 0.00095 0.41050 0.91800
Cu	Cu	0.05394 0.59045 0.58950 0.91800
H 	H 	0.27530 0.65700 0.39460 0.18300
H 	H 	0.37100 0.62710 0.28660 0.17100
H 	H 	0.58540 0.57260 0.35680 -0.04400
H 	H 	0.50470 0.61610 0.47340 -0.02400
H 	H 	0.48350 0.41040 0.36740 0.18800
H 	H 	0.39520 0.42310 0.27020 0.17300
H 	H 	0.71790 0.82920 0.65140 0.01500
H 	H 	0.90740 0.82570 0.77200 0.09700
H 	H 	0.90000 0.17600 0.93600 0.08400
H 	H 	0.71210 0.17070 0.81160 0.00500
H 	H 	0.10810 0.93300 0.91620 0.07600
H 	H 	0.10640 0.07240 0.98060 0.07100
H 	H 	0.22470 0.26240 0.60540 0.18500
H 	H 	0.12900 0.34050 0.71340 0.17300
H 	H 	0.91460 0.21580 0.64320 -0.04700
H 	H 	0.99530 0.14270 0.52660 -0.02800
H 	H 	0.01650 0.04300 0.63260 0.19100
H 	H 	0.10480 0.15290 0.72980 0.17500
H 	H 	0.78210 0.17780 0.34860 0.01400
H 	H 	0.59260 0.05370 0.22800 0.09800
H 	H 	0.60000 0.24000 0.06400 0.08500
H 	H 	0.78790 0.35910 0.18840 0.00400
H 	H 	0.39190 0.01680 0.08380 0.08100
H 	H 	0.39360 0.09180 0.01940 0.07200
H 	H 	0.72470 0.34300 0.60540 0.18300
H 	H 	0.62900 0.37290 0.71340 0.17100
H 	H 	0.41460 0.42740 0.64320 -0.04400
H 	H 	0.49530 0.38390 0.52660 -0.02400
H 	H 	0.51650 0.58960 0.63260 0.18800
H 	H 	0.60480 0.57690 0.72980 0.17300
H 	H 	0.28210 0.17080 0.34860 0.01500
H 	H 	0.09260 0.17430 0.22800 0.09700
H 	H 	0.10000 0.82400 0.06400 0.08400
H 	H 	0.28790 0.82930 0.18840 0.00500
H 	H 	0.89190 0.06700 0.08380 0.07600
H 	H 	0.89360 0.92760 0.01940 0.07100
H 	H 	0.77530 0.73760 0.39460 0.18500
H 	H 	0.87100 0.65950 0.28660 0.17300
H 	H 	0.08540 0.78420 0.35680 -0.04700
H 	H 	0.00470 0.85730 0.47340 -0.02800
H 	H 	0.98350 0.95700 0.36740 0.19100
H 	H 	0.89520 0.84710 0.27020 0.17500
H 	H 	0.21790 0.82220 0.65140 0.01400
H 	H 	0.40740 0.94630 0.77200 0.09800
H 	H 	0.40000 0.76000 0.93600 0.08500
H 	H 	0.21210 0.64090 0.81160 0.00400
H 	H 	0.60810 0.98320 0.91620 0.08100
H 	H 	0.60640 0.90820 0.98060 0.07200
C 	C 	0.43260 0.78462 0.41764 0.46400
C 	C 	0.38000 0.65918 0.36776 -0.47600
C 	C 	0.48470 0.58034 0.39268 0.26200
C 	C 	0.41130 0.45966 0.35132 -0.48000
C 	C 	0.25740 0.46383 0.40406 0.46700
C 	C 	0.75480 0.90070 0.71040 0.09200
C 	C 	0.86820 0.89799 0.78218 -0.17200
C 	C 	0.92380 0.00118 0.86856 0.12700
C 	C 	0.86400 0.10324 0.87828 -0.18000
C 	C 	0.75160 0.09931 0.80382 0.08700
C 	C 	0.04040 0.00152 0.95224 -0.15200
C 	C 	0.06740 0.36698 0.58236 0.46600
C 	C 	0.12000 0.29142 0.63224 -0.48000
C 	C 	0.01530 0.18766 0.60732 0.27200
C 	C 	0.08870 0.10834 0.64868 -0.48500
C 	C 	0.24260 0.05977 0.59594 0.46900
C 	C 	0.74520 0.19030 0.28960 0.09400
C 	C 	0.63180 0.11581 0.21782 -0.17700
C 	C 	0.57620 0.13262 0.13144 0.13300
C 	C 	0.63600 0.22496 0.12172 -0.18400
C 	C 	0.74840 0.29549 0.19618 0.08900
C 	C 	0.45960 0.04928 0.04776 -0.16100
C 	C 	0.56740 0.21538 0.58236 0.46400
C 	C 	0.62000 0.34082 0.63224 -0.47600
C 	C 	0.51530 0.41966 0.60732 0.26200
C 	C 	0.58870 0.54034 0.64868 -0.48000
C 	C 	0.74260 0.53617 0.59594 0.46700
C 	C 	0.24520 0.09930 0.28960 0.09200
C 	C 	0.13180 0.10201 0.21782 -0.17200
C 	C 	0.07620 0.99882 0.13144 0.12700
C 	C 	0.13600 0.89676 0.12172 -0.18000
C 	C 	0.24840 0.90069 0.19618 0.08700
C 	C 	0.95960 0.99848 0.04776 -0.15200
C 	C 	0.93260 0.63302 0.41764 0.46600
C 	C 	0.88000 0.70858 0.36776 -0.48000
C 	C 	0.98470 0.81234 0.39268 0.27200
C 	C 	0.91130 0.89166 0.35132 -0.48500
C 	C 	0.75740 0.94023 0.40406 0.46900
C 	C 	0.25480 0.80970 0.71040 0.09400
C 	C 	0.36820 0.88419 0.78218 -0.17700
C 	C 	0.42380 0.86738 0.86856 0.13300
C 	C 	0.36400 0.77504 0.87828 -0.18400
C 	C 	0.25160 0.70451 0.80382 0.08900
C 	C 	0.54040 0.95072 0.95224 -0.16100
N 	N 	0.69550 0.99986 0.72098 -0.19900
N 	N 	0.80450 0.27888 0.27902 -0.20000
N 	N 	0.30450 0.00014 0.27902 -0.19900
N 	N 	0.19550 0.72112 0.72098 -0.20000
O 	O 	0.49270 0.83308 0.51336 -0.43400
O 	O 	0.40840 0.83471 0.36028 -0.44200
O 	O 	0.15360 0.39001 0.34678 -0.43400
O 	O 	0.24290 0.54084 0.50090 -0.44500
O 	O 	0.00730 0.31972 0.48664 -0.43400
O 	O 	0.09160 0.47443 0.63972 -0.44200
O 	O 	0.34640 0.04323 0.65322 -0.43400
O 	O 	0.25710 0.03994 0.49910 -0.44500
O 	O 	0.50730 0.16692 0.48664 -0.43400
O 	O 	0.59160 0.16529 0.63972 -0.44200
O 	O 	0.84640 0.60999 0.65322 -0.43400
O 	O 	0.75710 0.45916 0.49910 -0.44500
O 	O 	0.99270 0.68028 0.51336 -0.43400
O 	O 	0.90840 0.52557 0.36028 -0.44200
O 	O 	0.65360 0.95677 0.34678 -0.43400
O 	O 	0.74290 0.96006 0.50090 -0.44500
