data_crystal

_cell_length_a 23.91100
_cell_length_b 11.86850
_cell_length_c 9.20630
_cell_angle_alpha 90.00000
_cell_angle_beta  90.35000
_cell_angle_gamma 90.00000

_symmetry_space_group_name_	'P 1'
_symmetry_space_group_name_H-M	'P 1'

loop_
_symmetry_equiv_pos_as_xyz
  x,y,z

loop_
_atom_site_label
_atom_site_type_symbol
_atom_site_fract_x
_atom_site_fract_y
_atom_site_fract_z
_atom_site_charge
Cu	Cu	0.20499 0.22769 0.42146 0.91800
N 	N 	0.13981 0.16690 0.27590 -0.19900
O 	O 	0.23488 0.07520 0.45430 -0.44900
O 	O 	0.31199 0.11050 0.58470 -0.42700
O 	O 	0.33586 0.72610 0.89240 -0.43500
O 	O 	0.25811 0.75050 0.76130 -0.45300
C 	C 	0.27874 0.04490 0.52060 0.47400
C 	C 	0.28970 0.92020 0.52470 -0.49100
H 	H 	0.28930 0.89150 0.42380 0.19100
H 	H 	0.25850 0.88340 0.57670 0.19200
C 	C 	0.34443 0.88410 0.59650 0.26500
H 	H 	0.35090 0.93030 0.68450 -0.02800
H 	H 	0.37560 0.89840 0.52880 -0.04200
C 	C 	0.34438 0.75820 0.63930 -0.48800
H 	H 	0.32840 0.71270 0.55900 0.18000
H 	H 	0.38320 0.73250 0.65710 0.18000
C 	C 	0.31021 0.74230 0.77400 0.47200
C 	C 	0.14393 0.06410 0.21760 0.08700
H 	H 	0.17390 0.01700 0.24790 0.01000
C 	C 	0.10673 0.02320 0.11570 -0.17700
H 	H 	0.11190 0.95030 0.07550 0.09900
C 	C 	0.06149 0.08920 0.07180 0.13100
C 	C 	0.05680 0.19480 0.13240 -0.18100
H 	H 	0.02670 0.24290 0.10540 0.09000
C 	C 	0.09615 0.23030 0.23300 0.08900
H 	H 	0.09210 0.30330 0.27390 0.00600
C 	C 	0.01901 0.04440 0.96490 -0.16200
H 	H 	0.03860 0.01040 0.88130 0.07700
H 	H 	0.99580 0.10750 0.92810 0.07200
Cu	Cu	0.70499 0.72769 0.42146 0.91800
N 	N 	0.63981 0.66690 0.27590 -0.20000
O 	O 	0.73488 0.57520 0.45430 -0.44900
O 	O 	0.81199 0.61050 0.58470 -0.42700
O 	O 	0.83586 0.22610 0.89240 -0.43700
O 	O 	0.75811 0.25050 0.76130 -0.45300
C 	C 	0.77874 0.54490 0.52060 0.47400
C 	C 	0.78970 0.42020 0.52470 -0.49200
H 	H 	0.78930 0.39150 0.42380 0.19100
H 	H 	0.75850 0.38340 0.57670 0.19200
C 	C 	0.84443 0.38410 0.59650 0.26600
H 	H 	0.85090 0.43030 0.68450 -0.02800
H 	H 	0.87560 0.39840 0.52880 -0.04200
C 	C 	0.84438 0.25820 0.63930 -0.48900
H 	H 	0.82840 0.21270 0.55900 0.18000
H 	H 	0.88320 0.23250 0.65710 0.18000
C 	C 	0.81021 0.24230 0.77400 0.47200
C 	C 	0.64393 0.56410 0.21760 0.08900
H 	H 	0.67390 0.51700 0.24790 0.00900
C 	C 	0.60673 0.52320 0.11570 -0.18300
H 	H 	0.61190 0.45030 0.07550 0.10300
C 	C 	0.56149 0.58920 0.07180 0.13000
C 	C 	0.55680 0.69480 0.13240 -0.18100
H 	H 	0.52670 0.74290 0.10540 0.08900
C 	C 	0.59615 0.73030 0.23300 0.08900
H 	H 	0.59210 0.80330 0.27390 0.00600
C 	C 	0.51901 0.54440 0.96490 -0.16000
H 	H 	0.53860 0.51040 0.88130 0.07800
H 	H 	0.49580 0.60750 0.92810 0.07300
Cu	Cu	0.79501 0.22769 0.07854 0.91900
N 	N 	0.86019 0.16690 0.22410 -0.20000
O 	O 	0.76512 0.07520 0.04570 -0.44400
O 	O 	0.68801 0.11050 0.91530 -0.42500
O 	O 	0.66414 0.72610 0.60760 -0.43600
O 	O 	0.74189 0.75050 0.73870 -0.45300
C 	C 	0.72126 0.04490 0.97940 0.46400
C 	C 	0.71030 0.92020 0.97530 -0.47700
H 	H 	0.71070 0.89150 0.07620 0.18600
H 	H 	0.74150 0.88340 0.92330 0.18800
C 	C 	0.65557 0.88410 0.90350 0.25800
H 	H 	0.64910 0.93030 0.81550 -0.02500
H 	H 	0.62440 0.89840 0.97120 -0.03900
C 	C 	0.65562 0.75820 0.86070 -0.48500
H 	H 	0.67160 0.71270 0.94100 0.17900
H 	H 	0.61680 0.73250 0.84290 0.17900
C 	C 	0.68979 0.74230 0.72600 0.47100
C 	C 	0.85607 0.06410 0.28240 0.08900
H 	H 	0.82610 0.01700 0.25210 0.01000
C 	C 	0.89327 0.02320 0.38430 -0.18100
H 	H 	0.88810 0.95030 0.42450 0.10200
C 	C 	0.93851 0.08920 0.42820 0.13000
C 	C 	0.94320 0.19480 0.36760 -0.18000
H 	H 	0.97330 0.24290 0.39460 0.09000
C 	C 	0.90385 0.23030 0.26700 0.08900
H 	H 	0.90790 0.30330 0.22610 0.00600
C 	C 	0.98099 0.04440 0.53510 -0.16000
H 	H 	0.96140 0.01040 0.61870 0.07700
H 	H 	0.00420 0.10750 0.57190 0.07200
Cu	Cu	0.29501 0.72769 0.07854 0.91800
N 	N 	0.36019 0.66690 0.22410 -0.20000
O 	O 	0.26512 0.57520 0.04570 -0.45000
O 	O 	0.18801 0.61050 0.91530 -0.42700
O 	O 	0.16414 0.22610 0.60760 -0.43600
O 	O 	0.24189 0.25050 0.73870 -0.45300
C 	C 	0.22126 0.54490 0.97940 0.47500
C 	C 	0.21030 0.42020 0.97530 -0.49300
H 	H 	0.21070 0.39150 0.07620 0.19200
H 	H 	0.24150 0.38340 0.92330 0.19200
C 	C 	0.15557 0.38410 0.90350 0.26600
H 	H 	0.14910 0.43030 0.81550 -0.02800
H 	H 	0.12440 0.39840 0.97120 -0.04200
C 	C 	0.15562 0.25820 0.86070 -0.48900
H 	H 	0.17160 0.21270 0.94100 0.17900
H 	H 	0.11680 0.23250 0.84290 0.17900
C 	C 	0.18979 0.24230 0.72600 0.47200
C 	C 	0.35607 0.56410 0.28240 0.08900
H 	H 	0.32610 0.51700 0.25210 0.00900
C 	C 	0.39327 0.52320 0.38430 -0.18300
H 	H 	0.38810 0.45030 0.42450 0.10300
C 	C 	0.43851 0.58920 0.42820 0.13000
C 	C 	0.44320 0.69480 0.36760 -0.18100
H 	H 	0.47330 0.74290 0.39460 0.09000
C 	C 	0.40385 0.73030 0.26700 0.08900
H 	H 	0.40790 0.80330 0.22610 0.00500
C 	C 	0.48099 0.54440 0.53510 -0.16000
H 	H 	0.46140 0.51040 0.61870 0.07800
H 	H 	0.50420 0.60750 0.57190 0.07300
Cu	Cu	0.79501 0.77231 0.57854 0.91800
N 	N 	0.86019 0.83310 0.72410 -0.19900
O 	O 	0.76512 0.92480 0.54570 -0.44900
O 	O 	0.68801 0.88950 0.41530 -0.42700
O 	O 	0.66414 0.27390 0.10760 -0.43500
O 	O 	0.74189 0.24950 0.23870 -0.45300
C 	C 	0.72126 0.95510 0.47940 0.47400
C 	C 	0.71030 0.07980 0.47530 -0.49100
H 	H 	0.71070 0.10850 0.57620 0.19100
H 	H 	0.74150 0.11660 0.42330 0.19200
C 	C 	0.65557 0.11590 0.40350 0.26500
H 	H 	0.64910 0.06970 0.31550 -0.02800
H 	H 	0.62440 0.10160 0.47120 -0.04200
C 	C 	0.65562 0.24180 0.36070 -0.48800
H 	H 	0.67160 0.28730 0.44100 0.18000
H 	H 	0.61680 0.26750 0.34290 0.18000
C 	C 	0.68979 0.25770 0.22600 0.47200
C 	C 	0.85607 0.93590 0.78240 0.08700
H 	H 	0.82610 0.98300 0.75210 0.01000
C 	C 	0.89327 0.97680 0.88430 -0.17700
H 	H 	0.88810 0.04970 0.92450 0.09900
C 	C 	0.93851 0.91080 0.92820 0.13100
C 	C 	0.94320 0.80520 0.86760 -0.18100
H 	H 	0.97330 0.75710 0.89460 0.09000
C 	C 	0.90385 0.76970 0.76700 0.08900
H 	H 	0.90790 0.69670 0.72610 0.00600
C 	C 	0.98099 0.95560 0.03510 -0.16200
H 	H 	0.96140 0.98960 0.11870 0.07700
H 	H 	0.00420 0.89250 0.07190 0.07200
Cu	Cu	0.29501 0.27231 0.57854 0.91800
N 	N 	0.36019 0.33310 0.72410 -0.20000
O 	O 	0.26512 0.42480 0.54570 -0.44900
O 	O 	0.18801 0.38950 0.41530 -0.42700
O 	O 	0.16414 0.77390 0.10760 -0.43700
O 	O 	0.24189 0.74950 0.23870 -0.45300
C 	C 	0.22126 0.45510 0.47940 0.47400
C 	C 	0.21030 0.57980 0.47530 -0.49200
H 	H 	0.21070 0.60850 0.57620 0.19100
H 	H 	0.24150 0.61660 0.42330 0.19200
C 	C 	0.15557 0.61590 0.40350 0.26600
H 	H 	0.14910 0.56970 0.31550 -0.02800
H 	H 	0.12440 0.60160 0.47120 -0.04200
C 	C 	0.15562 0.74180 0.36070 -0.48900
H 	H 	0.17160 0.78730 0.44100 0.18000
H 	H 	0.11680 0.76750 0.34290 0.18000
C 	C 	0.18979 0.75770 0.22600 0.47200
C 	C 	0.35607 0.43590 0.78240 0.08900
H 	H 	0.32610 0.48300 0.75210 0.00900
C 	C 	0.39327 0.47680 0.88430 -0.18300
H 	H 	0.38810 0.54970 0.92450 0.10300
C 	C 	0.43851 0.41080 0.92820 0.13000
C 	C 	0.44320 0.30520 0.86760 -0.18100
H 	H 	0.47330 0.25710 0.89460 0.08900
C 	C 	0.40385 0.26970 0.76700 0.08900
H 	H 	0.40790 0.19670 0.72610 0.00600
C 	C 	0.48099 0.45560 0.03510 -0.16000
H 	H 	0.46140 0.48960 0.11870 0.07800
H 	H 	0.50420 0.39250 0.07190 0.07300
Cu	Cu	0.20499 0.77231 0.92146 0.91900
N 	N 	0.13981 0.83310 0.77590 -0.20000
O 	O 	0.23488 0.92480 0.95430 -0.44400
O 	O 	0.31199 0.88950 0.08470 -0.42500
O 	O 	0.33586 0.27390 0.39240 -0.43600
O 	O 	0.25811 0.24950 0.26130 -0.45300
C 	C 	0.27874 0.95510 0.02060 0.46400
C 	C 	0.28970 0.07980 0.02470 -0.47700
H 	H 	0.28930 0.10850 0.92380 0.18600
H 	H 	0.25850 0.11660 0.07670 0.18800
C 	C 	0.34443 0.11590 0.09650 0.25800
H 	H 	0.35090 0.06970 0.18450 -0.02500
H 	H 	0.37560 0.10160 0.02880 -0.03900
C 	C 	0.34438 0.24180 0.13930 -0.48500
H 	H 	0.32840 0.28730 0.05900 0.17900
H 	H 	0.38320 0.26750 0.15710 0.17900
C 	C 	0.31021 0.25770 0.27400 0.47100
C 	C 	0.14393 0.93590 0.71760 0.08900
H 	H 	0.17390 0.98300 0.74790 0.01000
C 	C 	0.10673 0.97680 0.61570 -0.18100
H 	H 	0.11190 0.04970 0.57550 0.10200
C 	C 	0.06149 0.91080 0.57180 0.13000
C 	C 	0.05680 0.80520 0.63240 -0.18000
H 	H 	0.02670 0.75710 0.60540 0.09000
C 	C 	0.09615 0.76970 0.73300 0.08900
H 	H 	0.09210 0.69670 0.77390 0.00600
C 	C 	0.01901 0.95560 0.46490 -0.16000
H 	H 	0.03860 0.98960 0.38130 0.07700
H 	H 	0.99580 0.89250 0.42810 0.07200
Cu	Cu	0.70499 0.27231 0.92146 0.91800
N 	N 	0.63981 0.33310 0.77590 -0.20000
O 	O 	0.73488 0.42480 0.95430 -0.45000
O 	O 	0.81199 0.38950 0.08470 -0.42700
O 	O 	0.83586 0.77390 0.39240 -0.43600
O 	O 	0.75811 0.74950 0.26130 -0.45300
C 	C 	0.77874 0.45510 0.02060 0.47500
C 	C 	0.78970 0.57980 0.02470 -0.49300
H 	H 	0.78930 0.60850 0.92380 0.19200
H 	H 	0.75850 0.61660 0.07670 0.19200
C 	C 	0.84443 0.61590 0.09650 0.26600
H 	H 	0.85090 0.56970 0.18450 -0.02800
H 	H 	0.87560 0.60160 0.02880 -0.04200
C 	C 	0.84438 0.74180 0.13930 -0.48900
H 	H 	0.82840 0.78730 0.05900 0.17900
H 	H 	0.88320 0.76750 0.15710 0.17900
C 	C 	0.81021 0.75770 0.27400 0.47200
C 	C 	0.64393 0.43590 0.71760 0.08900
H 	H 	0.67390 0.48300 0.74790 0.00900
C 	C 	0.60673 0.47680 0.61570 -0.18300
H 	H 	0.61190 0.54970 0.57550 0.10300
C 	C 	0.56149 0.41080 0.57180 0.13000
C 	C 	0.55680 0.30520 0.63240 -0.18100
H 	H 	0.52670 0.25710 0.60540 0.09000
C 	C 	0.59615 0.26970 0.73300 0.08900
H 	H 	0.59210 0.19670 0.77390 0.00500
C 	C 	0.51901 0.45560 0.46490 -0.16000
H 	H 	0.53860 0.48960 0.38130 0.07800
H 	H 	0.49580 0.39250 0.42810 0.07300
