data_crystal

_cell_length_a 16.82890
_cell_length_b 16.96250
_cell_length_c 17.03410
_cell_angle_alpha 94.81200
_cell_angle_beta  95.54900
_cell_angle_gamma 91.60900

_symmetry_space_group_name_	'P 1'
_symmetry_space_group_name_H-M	'P 1'

loop_
_symmetry_equiv_pos_as_xyz
  x,y,z

loop_
_atom_site_label
_atom_site_type_symbol
_atom_site_fract_x
_atom_site_fract_y
_atom_site_fract_z
_atom_site_charge
Zn	Zn	0.32934 0.23404 0.21228 1.21100
Zn	Zn	0.18474 0.35198 0.22890 1.17000
Zn	Zn	0.34782 0.36496 0.35456 1.21600
Zn	Zn	0.22972 0.22488 0.35457 1.21000
O 	O 	0.27379 0.29606 0.28625 -0.95700
O 	O 	0.35890 0.46897 0.31675 -0.48300
O 	O 	0.32541 0.37876 0.46580 -0.48300
O 	O 	0.23342 0.36225 0.12163 -0.50300
O 	O 	0.27213 0.11976 0.33289 -0.51000
O 	O 	0.22890 0.46401 0.27570 -0.48900
O 	O 	0.45349 0.31764 0.35955 -0.49500
O 	O 	0.74524 0.31210 0.46063 -0.15600
O 	O 	0.41120 0.30190 0.83753 -0.15700
O 	O 	0.31902 0.26530 0.10674 -0.50400
O 	O 	0.27250 0.25639 0.46427 -0.49500
O 	O 	0.11656 0.20790 0.36000 -0.47500
O 	O 	0.44563 0.24480 0.24263 -0.49100
O 	O 	0.31120 0.11931 0.21151 -0.49700
O 	O 	0.44393 0.75567 0.30990 -0.15700
O 	O 	0.11418 0.33310 0.33370 -0.47100
O 	O 	0.17310 0.74605 0.21490 -0.16700
O 	O 	0.81803 0.38847 0.30200 -0.16500
O 	O 	0.82359 0.12713 0.36610 -0.17400
O 	O 	0.35410 0.46674 0.76252 -0.16000
O 	O 	0.35310 0.82765 0.13773 -0.17600
O 	O 	0.73500 0.19730 0.20247 -0.16600
C 	C 	0.23810 0.70260 0.24140 0.14200
C 	C 	0.61370 0.29340 0.38660 -0.12600
H 	H 	0.58800 0.31460 0.42900 0.08700
C 	C 	0.32900 0.87520 0.20000 0.15300
C 	C 	0.48200 0.27660 0.30470 0.35800
C 	C 	0.29520 0.49910 0.28880 0.35300
C 	C 	0.31990 0.40640 0.71220 0.14300
C 	C 	0.86570 0.32850 0.32000 0.15400
C 	C 	0.60840 0.23260 0.25250 -0.12800
H 	H 	0.57870 0.21280 0.20570 0.08800
C 	C 	0.21560 0.36850 0.87340 0.14600
C 	C 	0.73630 0.25620 0.33080 -0.04400
C 	C 	0.30100 0.58570 0.27570 -0.01400
C 	C 	0.57070 0.26680 0.31580 -0.01100
C 	C 	0.37360 0.62780 0.29560 -0.13000
H 	H 	0.41920 0.60200 0.31270 0.08900
C 	C 	0.27960 0.33400 0.99640 -0.01900
C 	C 	0.34870 0.32190 0.88000 0.14400
C 	C 	0.30820 0.74730 0.26200 -0.04300
C 	C 	0.21410 0.36240 0.95490 -0.11900
H 	H 	0.16960 0.37720 0.98020 0.07000
C 	C 	0.34820 0.31360 0.95990 -0.11900
H 	H 	0.39240 0.29490 0.98880 0.08400
C 	C 	0.82500 0.25870 0.33550 -0.04800
C 	C 	0.86910 0.19340 0.35320 0.15000
C 	C 	0.30970 0.83450 0.26380 -0.04700
C 	C 	0.94860 0.33240 0.32440 -0.14200
H 	H 	0.97580 0.37870 0.31520 0.07800
C 	C 	0.27670 0.32020 0.08160 0.36000
C 	C 	0.28170 0.34870 0.83560 -0.04300
C 	C 	0.08000 0.41020 0.86050 -0.17000
H 	H 	0.04050 0.42570 0.82080 0.07400
H 	H 	0.09070 0.45270 0.90140 0.07200
H 	H 	0.06050 0.36420 0.88280 0.07500
C 	C 	0.28080 0.34720 0.74820 -0.04900
C 	C 	0.85590 0.45670 0.27710 -0.23100
H 	H 	0.81680 0.49570 0.26690 0.12700
H 	H 	0.88050 0.44250 0.22960 0.10100
H 	H 	0.89590 0.47810 0.31790 0.10600
C 	C 	0.69110 0.22880 0.26070 0.14700
C 	C 	0.37660 0.70860 0.28920 0.14000
C 	C 	0.23280 0.62210 0.24800 -0.12600
H 	H 	0.18490 0.59330 0.23420 0.07800
C 	C 	0.09980 0.70450 0.19270 -0.18600
H 	H 	0.06000 0.74090 0.17640 0.09100
H 	H 	0.08350 0.67880 0.23690 0.08800
H 	H 	0.10570 0.66550 0.14960 0.08100
C 	C 	0.69680 0.28790 0.39330 0.14200
C 	C 	0.51430 0.71910 0.34060 -0.25300
H 	H 	0.55690 0.75830 0.35270 0.12500
H 	H 	0.52920 0.67930 0.30190 0.12500
H 	H 	0.50400 0.69510 0.38790 0.11100
C 	C 	0.70710 0.34180 0.52900 -0.25600
H 	H 	0.74710 0.35760 0.57190 0.12700
H 	H 	0.67260 0.30100 0.54440 0.12500
H 	H 	0.67620 0.38650 0.51620 0.11300
C 	C 	0.86610 0.05790 0.38050 -0.18900
H 	H 	0.82920 0.01610 0.38950 0.08800
H 	H 	0.90390 0.06860 0.42630 0.08300
H 	H 	0.89380 0.04200 0.33540 0.08700
C 	C 	0.38720 0.53330 0.72820 -0.24300
H 	H 	0.40970 0.57160 0.76960 0.11700
H 	H 	0.34580 0.55680 0.69610 0.12100
H 	H 	0.42820 0.51580 0.69600 0.10700
C 	C 	0.37670 0.86700 0.07250 -0.19100
H 	H 	0.39170 0.82850 0.03250 0.08600
H 	H 	0.42130 0.90270 0.09020 0.08700
H 	H 	0.33290 0.89620 0.05100 0.08600
C 	C 	0.47930 0.26960 0.87950 -0.26000
H 	H 	0.51870 0.25750 0.84360 0.13800
H 	H 	0.46300 0.22220 0.90160 0.11500
H 	H 	0.50160 0.30760 0.92130 0.11600
C 	C 	0.69050 0.16810 0.12960 -0.20500
H 	H 	0.72640 0.14830 0.09280 0.09700
H 	H 	0.66100 0.21020 0.10790 0.09200
H 	H 	0.65400 0.12620 0.13910 0.09300
O 	O 	0.15212 0.39220 0.82515 -0.18000
C 	C 	0.98990 0.26590 0.34280 -0.00200
C 	C 	0.07910 0.26920 0.34530 0.29900
C 	C 	0.95170 0.19640 0.35760 -0.13900
H 	H 	0.98080 0.15270 0.37030 0.09000
C 	C 	0.32340 0.39960 0.62990 -0.13000
H 	H 	0.34870 0.43920 0.60570 0.08800
C 	C 	0.28930 0.33400 0.58550 -0.00800
C 	C 	0.29600 0.32270 0.49830 0.35300
C 	C 	0.24830 0.27560 0.61940 -0.13200
H 	H 	0.22420 0.23210 0.58830 0.08900
C 	C 	0.24400 0.28320 0.70100 0.15100
O 	O 	0.20590 0.22890 0.74016 -0.16800
C 	C 	0.16110 0.16720 0.69140 -0.20400
H 	H 	0.13550 0.13300 0.72420 0.09700
H 	H 	0.19640 0.13720 0.66050 0.09200
H 	H 	0.12130 0.18990 0.65670 0.09500
C 	C 	0.28400 0.87810 0.33000 0.15300
O 	O 	0.26630 0.83396 0.38940 -0.16100
C 	C 	0.28050 0.95940 0.33310 -0.13400
H 	H 	0.26520 0.98820 0.37770 0.09100
C 	C 	0.32460 0.95630 0.20190 -0.13500
H 	H 	0.33790 0.98290 0.15910 0.09000
C 	C 	0.30040 0.99740 0.26760 -0.00300
C 	C 	0.29310 0.08610 0.27160 0.35600
C 	C 	0.23650 0.87500 0.45700 -0.25100
H 	H 	0.22620 0.83800 0.49480 0.13500
H 	H 	0.18790 0.90010 0.44060 0.11100
H 	H 	0.27550 0.91450 0.48080 0.11500
Zn	Zn	0.67066 0.76596 0.78772 1.21000
Zn	Zn	0.81526 0.64802 0.77110 1.16900
Zn	Zn	0.65218 0.63504 0.64544 1.21500
Zn	Zn	0.77028 0.77512 0.64543 1.20900
O 	O 	0.72621 0.70394 0.71375 -0.95700
O 	O 	0.64110 0.53103 0.68325 -0.48300
O 	O 	0.67459 0.62124 0.53420 -0.48300
O 	O 	0.76658 0.63775 0.87837 -0.50300
O 	O 	0.72787 0.88024 0.66711 -0.51000
O 	O 	0.77110 0.53599 0.72430 -0.48900
O 	O 	0.54651 0.68236 0.64045 -0.49500
O 	O 	0.25476 0.68790 0.53937 -0.15600
O 	O 	0.58880 0.69810 0.16247 -0.15700
O 	O 	0.68098 0.73470 0.89326 -0.50400
O 	O 	0.72750 0.74361 0.53573 -0.49500
O 	O 	0.88344 0.79210 0.64000 -0.47500
O 	O 	0.55437 0.75520 0.75737 -0.49100
O 	O 	0.68880 0.88069 0.78849 -0.49700
O 	O 	0.55607 0.24433 0.69010 -0.15700
O 	O 	0.88582 0.66690 0.66630 -0.47100
O 	O 	0.82690 0.25395 0.78510 -0.16700
O 	O 	0.18197 0.61153 0.69800 -0.16500
O 	O 	0.17641 0.87287 0.63390 -0.17400
O 	O 	0.64590 0.53326 0.23748 -0.16000
O 	O 	0.64690 0.17235 0.86227 -0.17600
O 	O 	0.26500 0.80270 0.79753 -0.16600
C 	C 	0.76190 0.29740 0.75860 0.14200
C 	C 	0.38630 0.70660 0.61340 -0.12600
H 	H 	0.41200 0.68540 0.57100 0.08700
C 	C 	0.67100 0.12480 0.80000 0.15300
C 	C 	0.51800 0.72340 0.69530 0.35800
C 	C 	0.70480 0.50090 0.71120 0.35300
C 	C 	0.68010 0.59360 0.28780 0.14300
C 	C 	0.13430 0.67150 0.68000 0.15400
C 	C 	0.39160 0.76740 0.74750 -0.12800
H 	H 	0.42130 0.78720 0.79430 0.08800
C 	C 	0.78440 0.63150 0.12660 0.14600
C 	C 	0.26370 0.74380 0.66920 -0.04400
C 	C 	0.69900 0.41430 0.72430 -0.01400
C 	C 	0.42930 0.73320 0.68420 -0.01100
C 	C 	0.62640 0.37220 0.70440 -0.13000
H 	H 	0.58080 0.39800 0.68730 0.08900
C 	C 	0.72040 0.66600 0.00360 -0.01900
C 	C 	0.65130 0.67810 0.12000 0.14400
C 	C 	0.69180 0.25270 0.73800 -0.04300
C 	C 	0.78590 0.63760 0.04510 -0.11900
H 	H 	0.83040 0.62280 0.01980 0.07000
C 	C 	0.65180 0.68640 0.04010 -0.11900
H 	H 	0.60760 0.70510 0.01120 0.08400
C 	C 	0.17500 0.74130 0.66450 -0.04800
C 	C 	0.13090 0.80660 0.64680 0.15000
C 	C 	0.69030 0.16550 0.73620 -0.04700
C 	C 	0.05140 0.66760 0.67560 -0.14200
H 	H 	0.02420 0.62130 0.68480 0.07800
C 	C 	0.72330 0.67980 0.91840 0.36000
C 	C 	0.71830 0.65130 0.16440 -0.04300
C 	C 	0.92000 0.58980 0.13950 -0.17000
H 	H 	0.95950 0.57430 0.17920 0.07400
H 	H 	0.90930 0.54730 0.09860 0.07200
H 	H 	0.93950 0.63580 0.11720 0.07500
C 	C 	0.71920 0.65280 0.25180 -0.04900
C 	C 	0.14410 0.54330 0.72290 -0.23100
H 	H 	0.18320 0.50430 0.73310 0.12700
H 	H 	0.11950 0.55750 0.77040 0.10100
H 	H 	0.10410 0.52190 0.68210 0.10600
C 	C 	0.30890 0.77120 0.73930 0.14700
C 	C 	0.62340 0.29140 0.71080 0.14000
C 	C 	0.76720 0.37790 0.75200 -0.12600
H 	H 	0.81510 0.40670 0.76580 0.07800
C 	C 	0.90020 0.29550 0.80730 -0.18600
H 	H 	0.94000 0.25910 0.82360 0.09100
H 	H 	0.91650 0.32120 0.76310 0.08800
H 	H 	0.89430 0.33450 0.85040 0.08100
C 	C 	0.30320 0.71210 0.60670 0.14200
C 	C 	0.48570 0.28090 0.65940 -0.25300
H 	H 	0.44310 0.24170 0.64730 0.12500
H 	H 	0.47080 0.32070 0.69810 0.12500
H 	H 	0.49600 0.30490 0.61210 0.11100
C 	C 	0.29290 0.65820 0.47100 -0.25600
H 	H 	0.25290 0.64240 0.42810 0.12700
H 	H 	0.32740 0.69900 0.45560 0.12500
H 	H 	0.32380 0.61350 0.48380 0.11300
C 	C 	0.13390 0.94210 0.61950 -0.18900
H 	H 	0.17080 0.98390 0.61050 0.08800
H 	H 	0.09610 0.93140 0.57370 0.08300
H 	H 	0.10620 0.95800 0.66460 0.08700
C 	C 	0.61280 0.46670 0.27180 -0.24300
H 	H 	0.59030 0.42840 0.23040 0.11700
H 	H 	0.65420 0.44320 0.30390 0.12100
H 	H 	0.57180 0.48420 0.30400 0.10700
C 	C 	0.62330 0.13300 0.92750 -0.19100
H 	H 	0.60830 0.17150 0.96750 0.08600
H 	H 	0.57870 0.09730 0.90980 0.08700
H 	H 	0.66710 0.10380 0.94900 0.08600
C 	C 	0.52070 0.73040 0.12050 -0.26000
H 	H 	0.48130 0.74250 0.15640 0.13800
H 	H 	0.53700 0.77780 0.09840 0.11500
H 	H 	0.49840 0.69240 0.07870 0.11600
C 	C 	0.30950 0.83190 0.87040 -0.20500
H 	H 	0.27360 0.85170 0.90720 0.09700
H 	H 	0.33900 0.78980 0.89210 0.09200
H 	H 	0.34600 0.87380 0.86090 0.09300
O 	O 	0.84788 0.60780 0.17485 -0.18000
C 	C 	0.01010 0.73410 0.65720 -0.00200
C 	C 	0.92090 0.73080 0.65470 0.29900
C 	C 	0.04830 0.80360 0.64240 -0.13900
H 	H 	0.01920 0.84730 0.62970 0.09000
C 	C 	0.67660 0.60040 0.37010 -0.13000
H 	H 	0.65130 0.56080 0.39430 0.08800
C 	C 	0.71070 0.66600 0.41450 -0.00800
C 	C 	0.70400 0.67730 0.50170 0.35300
C 	C 	0.75170 0.72440 0.38060 -0.13200
H 	H 	0.77580 0.76790 0.41170 0.08900
C 	C 	0.75600 0.71680 0.29900 0.15100
O 	O 	0.79410 0.77110 0.25984 -0.16800
C 	C 	0.83890 0.83280 0.30860 -0.20400
H 	H 	0.86450 0.86700 0.27580 0.09700
H 	H 	0.80360 0.86280 0.33950 0.09200
H 	H 	0.87870 0.81010 0.34330 0.09500
C 	C 	0.71600 0.12190 0.67000 0.15300
O 	O 	0.73370 0.16604 0.61060 -0.16100
C 	C 	0.71950 0.04060 0.66690 -0.13400
H 	H 	0.73480 0.01180 0.62230 0.09100
C 	C 	0.67540 0.04370 0.79810 -0.13500
H 	H 	0.66210 0.01710 0.84090 0.09000
C 	C 	0.69960 0.00260 0.73240 -0.00300
C 	C 	0.70690 0.91390 0.72840 0.35600
C 	C 	0.76350 0.12500 0.54300 -0.25100
H 	H 	0.77380 0.16200 0.50520 0.13500
H 	H 	0.81210 0.09990 0.55940 0.11100
H 	H 	0.72450 0.08550 0.51920 0.11500
