data_crystal

_cell_length_a 18.20800
_cell_length_b 8.79700
_cell_length_c 20.66500
_cell_angle_alpha 90.00000
_cell_angle_beta  112.43000
_cell_angle_gamma 90.00000

_symmetry_space_group_name_	'P 1'
_symmetry_space_group_name_H-M	'P 1'

loop_
_symmetry_equiv_pos_as_xyz
  x,y,z

loop_
_atom_site_label
_atom_site_type_symbol
_atom_site_fract_x
_atom_site_fract_y
_atom_site_fract_z
_atom_site_charge
Ce	Ce	0.97806 0.47194 0.23361 2.09900
O 	O 	0.04420 0.24610 0.21170 -0.63000
O 	O 	0.95530 0.20720 0.29520 -0.63200
O 	O 	0.89330 0.41310 0.30580 -0.50700
O 	O 	0.98440 0.75190 0.17930 -0.65200
O 	O 	0.97130 0.54970 0.11220 -0.48900
O 	O 	0.87550 0.30890 0.14600 -0.54300
O 	O 	0.99540 0.69770 0.31260 -0.66600
Ce	Ce	0.00141 0.97290 0.25754 2.13400
C 	C 	0.08070 0.17070 0.18060 0.45900
C 	C 	0.91340 0.27770 0.32270 0.45500
C 	C 	0.87640 0.18900 0.11670 0.50700
O 	O 	0.09130 0.03080 0.18810 -0.46100
O 	O 	0.12370 0.09700 0.34580 -0.44500
O 	O 	0.14830 0.86110 0.32450 -0.43100
O 	O 	0.89850 0.05900 0.14560 -0.54000
O 	O 	0.01350 0.89640 0.38120 -0.47100
C 	C 	0.11330 0.25680 0.13360 -0.42200
C 	C 	0.89320 0.20020 0.37760 -0.40900
C 	C 	0.84880 0.18210 0.03730 -0.41700
H 	H 	0.09750 0.36260 0.13140 0.13500
H 	H 	0.17090 0.25270 0.15390 0.15000
C 	C 	0.08400 0.19220 0.06030 0.04800
H 	H 	0.89580 0.09090 0.37260 0.13900
H 	H 	0.83940 0.22640 0.37220 0.13700
C 	C 	0.95200 0.24900 0.45160 -0.03500
H 	H 	0.89080 0.13690 0.02580 0.15100
C 	C 	0.82640 0.33060 0.99950 0.02600
H 	H 	0.80320 0.11480 0.01970 0.15100
H 	H 	0.09770 0.09320 0.05370 0.00800
C 	C 	0.04000 0.27190 0.00620 -0.00100
C 	C 	0.93600 0.30500 0.50100 -0.00200
C 	C 	0.77910 0.34260 0.93480 0.02000
H 	H 	0.84780 0.41910 0.02400 0.03400
H 	H 	0.02850 0.37210 0.01330 0.04100
C 	C 	0.00660 0.20940 0.93200 -0.37200
C 	C 	0.99480 0.34840 0.56950 -0.42300
H 	H 	0.75390 0.25430 0.91260 0.01900
C 	C 	0.76080 0.48530 0.89200 -0.35800
H 	H 	0.03160 0.11220 0.93180 0.13900
H 	H 	0.95020 0.19110 0.91890 0.13400
C 	C 	0.01770 0.31070 0.87720 0.43200
H 	H 	0.98450 0.45180 0.57990 0.13700
H 	H 	0.04720 0.34620 0.56770 0.15300
C 	C 	0.99420 0.24480 0.62800 0.44500
C 	C 	0.67180 0.50930 0.85360 0.39100
H 	H 	0.78570 0.48030 0.85810 0.12400
H 	H 	0.78310 0.57150 0.92240 0.13800
C 	C 	0.91270 0.29300 0.44470 0.04900
C 	C 	0.97100 0.25900 0.49950 0.07300
Ce	Ce	0.52194 0.97194 0.26639 2.09700
O 	O 	0.45580 0.74610 0.28830 -0.63300
O 	O 	0.54470 0.70720 0.20480 -0.63300
O 	O 	0.60670 0.91310 0.19420 -0.51000
O 	O 	0.51560 0.25190 0.32070 -0.65600
O 	O 	0.52870 0.04970 0.38780 -0.49100
O 	O 	0.62450 0.80890 0.35400 -0.54600
O 	O 	0.50460 0.19770 0.18740 -0.67000
Ce	Ce	0.49859 0.47290 0.24246 2.14000
C 	C 	0.41930 0.67070 0.31940 0.45700
C 	C 	0.58660 0.77770 0.17730 0.45500
C 	C 	0.62360 0.68900 0.38330 0.51600
O 	O 	0.40870 0.53080 0.31190 -0.46600
O 	O 	0.37630 0.59700 0.15420 -0.46000
O 	O 	0.35170 0.36110 0.17550 -0.43400
O 	O 	0.60150 0.55900 0.35440 -0.54300
O 	O 	0.48650 0.39640 0.11880 -0.46800
C 	C 	0.38670 0.75680 0.36640 -0.41700
C 	C 	0.60680 0.70020 0.12240 -0.40700
C 	C 	0.65120 0.68210 0.46270 -0.44800
H 	H 	0.40250 0.86260 0.36860 0.13400
H 	H 	0.32910 0.75270 0.34610 0.14800
C 	C 	0.41600 0.69220 0.43970 0.03800
H 	H 	0.60420 0.59090 0.12740 0.13900
H 	H 	0.66060 0.72640 0.12780 0.13500
C 	C 	0.54800 0.74900 0.04840 -0.04700
H 	H 	0.60920 0.63690 0.47420 0.15900
C 	C 	0.67360 0.83060 0.50050 0.07200
H 	H 	0.69680 0.61480 0.48030 0.15900
H 	H 	0.40230 0.59320 0.44630 0.00900
C 	C 	0.46000 0.77190 0.49380 0.01400
C 	C 	0.56400 0.80500 0.99900 -0.00600
C 	C 	0.72090 0.84260 0.56520 -0.02000
H 	H 	0.65220 0.91910 0.47600 0.01800
H 	H 	0.47150 0.87210 0.48670 0.03800
C 	C 	0.49340 0.70940 0.56800 -0.40100
C 	C 	0.50520 0.84840 0.93050 -0.41900
H 	H 	0.74610 0.75430 0.58740 0.03400
C 	C 	0.73920 0.98530 0.60800 -0.30700
H 	H 	0.46840 0.61220 0.56820 0.14600
H 	H 	0.54980 0.69110 0.58110 0.14900
C 	C 	0.48230 0.81070 0.62280 0.44000
H 	H 	0.51550 0.95180 0.92010 0.13700
H 	H 	0.45280 0.84620 0.93230 0.15000
C 	C 	0.50580 0.74480 0.87200 0.44900
C 	C 	0.82820 0.00930 0.64640 0.36200
H 	H 	0.71430 0.98030 0.64190 0.11200
H 	H 	0.71690 0.07150 0.57760 0.12100
C 	C 	0.58730 0.79300 0.05530 0.05700
C 	C 	0.52900 0.75900 0.00050 0.07800
Ce	Ce	0.02194 0.52806 0.76639 2.09800
O 	O 	0.95580 0.75390 0.78830 -0.63100
O 	O 	0.04470 0.79280 0.70480 -0.63300
O 	O 	0.10670 0.58690 0.69420 -0.50800
O 	O 	0.01560 0.24810 0.82070 -0.65300
O 	O 	0.02870 0.45030 0.88780 -0.49000
O 	O 	0.12450 0.69110 0.85400 -0.54300
O 	O 	0.00460 0.30230 0.68740 -0.66600
Ce	Ce	0.99859 0.02710 0.74246 2.13400
C 	C 	0.91930 0.82930 0.81940 0.45900
C 	C 	0.08660 0.72230 0.67730 0.45500
C 	C 	0.12360 0.81100 0.88330 0.50700
O 	O 	0.90870 0.96920 0.81190 -0.46100
O 	O 	0.87630 0.90300 0.65420 -0.44500
O 	O 	0.85170 0.13890 0.67550 -0.43100
O 	O 	0.10150 0.94100 0.85440 -0.54000
O 	O 	0.98650 0.10360 0.61880 -0.47100
C 	C 	0.88670 0.74320 0.86640 -0.42200
C 	C 	0.10680 0.79980 0.62240 -0.40900
C 	C 	0.15120 0.81790 0.96270 -0.41700
H 	H 	0.90250 0.63740 0.86860 0.13500
H 	H 	0.82910 0.74730 0.84610 0.15000
C 	C 	0.91600 0.80780 0.93970 0.04800
H 	H 	0.10420 0.90910 0.62740 0.13900
H 	H 	0.16060 0.77360 0.62780 0.13700
C 	C 	0.04800 0.75100 0.54840 -0.03500
H 	H 	0.10920 0.86310 0.97420 0.15100
C 	C 	0.17360 0.66940 0.00050 0.02600
H 	H 	0.19680 0.88520 0.98030 0.15100
H 	H 	0.90230 0.90680 0.94630 0.00800
C 	C 	0.96000 0.72810 0.99380 -0.00100
C 	C 	0.06400 0.69500 0.49900 -0.00200
C 	C 	0.22090 0.65740 0.06520 0.02000
H 	H 	0.15220 0.58090 0.97600 0.03400
H 	H 	0.97150 0.62790 0.98670 0.04100
C 	C 	0.99340 0.79060 0.06800 -0.37200
C 	C 	0.00520 0.65160 0.43050 -0.42300
H 	H 	0.24610 0.74570 0.08740 0.01900
C 	C 	0.23920 0.51470 0.10800 -0.35800
H 	H 	0.96840 0.88780 0.06820 0.13900
H 	H 	0.04980 0.80890 0.08110 0.13400
C 	C 	0.98230 0.68930 0.12280 0.43200
H 	H 	0.01550 0.54820 0.42010 0.13700
H 	H 	0.95280 0.65380 0.43230 0.15300
C 	C 	0.00580 0.75520 0.37200 0.44500
C 	C 	0.32820 0.49070 0.14640 0.39100
H 	H 	0.21430 0.51970 0.14190 0.12400
H 	H 	0.21690 0.42850 0.07760 0.13800
C 	C 	0.08730 0.70700 0.55530 0.04900
C 	C 	0.02900 0.74100 0.50050 0.07300
Ce	Ce	0.47806 0.02806 0.73361 2.09700
O 	O 	0.54420 0.25390 0.71170 -0.63300
O 	O 	0.45530 0.29280 0.79520 -0.63300
O 	O 	0.39330 0.08690 0.80580 -0.51000
O 	O 	0.48440 0.74810 0.67930 -0.65600
O 	O 	0.47130 0.95030 0.61220 -0.49100
O 	O 	0.37550 0.19110 0.64600 -0.54600
O 	O 	0.49540 0.80230 0.81260 -0.67000
Ce	Ce	0.50141 0.52710 0.75754 2.14000
C 	C 	0.58070 0.32930 0.68060 0.45700
C 	C 	0.41340 0.22230 0.82270 0.45500
C 	C 	0.37640 0.31100 0.61670 0.51600
O 	O 	0.59130 0.46920 0.68810 -0.46600
O 	O 	0.62370 0.40300 0.84580 -0.46000
O 	O 	0.64830 0.63890 0.82450 -0.43400
O 	O 	0.39850 0.44100 0.64560 -0.54300
O 	O 	0.51350 0.60360 0.88120 -0.46800
C 	C 	0.61330 0.24320 0.63360 -0.41700
C 	C 	0.39320 0.29980 0.87760 -0.40700
C 	C 	0.34880 0.31790 0.53730 -0.44800
H 	H 	0.59750 0.13740 0.63140 0.13400
H 	H 	0.67090 0.24730 0.65390 0.14800
C 	C 	0.58400 0.30780 0.56030 0.03800
H 	H 	0.39580 0.40910 0.87260 0.13900
H 	H 	0.33940 0.27360 0.87220 0.13500
C 	C 	0.45200 0.25100 0.95160 -0.04700
H 	H 	0.39080 0.36310 0.52580 0.15900
C 	C 	0.32640 0.16940 0.49950 0.07200
H 	H 	0.30320 0.38520 0.51970 0.15900
H 	H 	0.59770 0.40680 0.55370 0.00900
C 	C 	0.54000 0.22810 0.50620 0.01400
C 	C 	0.43600 0.19500 0.00100 -0.00600
C 	C 	0.27910 0.15740 0.43480 -0.02000
H 	H 	0.34780 0.08090 0.52400 0.01800
H 	H 	0.52850 0.12790 0.51330 0.03800
C 	C 	0.50660 0.29060 0.43200 -0.40100
C 	C 	0.49480 0.15160 0.06950 -0.41900
H 	H 	0.25390 0.24570 0.41260 0.03400
C 	C 	0.26080 0.01470 0.39200 -0.30700
H 	H 	0.53160 0.38780 0.43180 0.14600
H 	H 	0.45020 0.30890 0.41890 0.14900
C 	C 	0.51770 0.18930 0.37720 0.44000
H 	H 	0.48450 0.04820 0.07990 0.13700
H 	H 	0.54720 0.15380 0.06770 0.15000
C 	C 	0.49420 0.25520 0.12800 0.44900
C 	C 	0.17180 0.99070 0.35360 0.36200
H 	H 	0.28570 0.01970 0.35810 0.11200
H 	H 	0.28310 0.92850 0.42240 0.12100
C 	C 	0.41270 0.20700 0.94470 0.05700
C 	C 	0.47100 0.24100 0.99950 0.07800
