data_crystal

_cell_length_a 10.16100
_cell_length_b 13.01900
_cell_length_c 18.70500
_cell_angle_alpha 90.00000
_cell_angle_beta  90.00000
_cell_angle_gamma 98.67000

_symmetry_space_group_name_	'P 1'
_symmetry_space_group_name_H-M	'P 1'

loop_
_symmetry_equiv_pos_as_xyz
  x,y,z

loop_
_atom_site_label
_atom_site_type_symbol
_atom_site_fract_x
_atom_site_fract_y
_atom_site_fract_z
_atom_site_charge
Zn	Zn	0.81972 0.14510 0.63882 1.22900
Zn	Zn	0.64719 0.32664 0.57585 1.16900
Zn	Zn	0.68028 0.35490 0.13882 1.22900
Zn	Zn	0.85281 0.17336 0.07585 1.16800
Zn	Zn	0.18028 0.85490 0.36118 1.22900
Zn	Zn	0.35281 0.67336 0.42415 1.16900
Zn	Zn	0.31972 0.64510 0.86118 1.22800
Zn	Zn	0.14719 0.82664 0.92415 1.16700
H 	H 	0.28830 0.13790 0.68760 0.07500
H 	H 	0.28190 0.13660 0.60200 0.07500
H 	H 	0.15730 0.99290 0.75870 0.05600
H 	H 	0.06810 0.89870 0.71790 0.06600
H 	H 	0.17920 0.76730 0.64950 0.06100
H 	H 	0.33850 0.77980 0.64580 0.07600
H 	H 	0.39050 0.00510 0.53190 0.06400
H 	H 	0.46680 0.92420 0.57390 0.07900
H 	H 	0.47850 0.92880 0.70900 0.07500
H 	H 	0.40860 0.01140 0.75300 0.06500
H 	H 	0.05720 0.89480 0.58400 0.07900
H 	H 	0.13890 0.98690 0.53770 0.07300
H 	H 	0.21170 0.36210 0.18760 0.07500
H 	H 	0.21810 0.36340 0.10200 0.07500
H 	H 	0.34270 0.50710 0.25870 0.05600
H 	H 	0.43190 0.60130 0.21790 0.06600
H 	H 	0.32080 0.73270 0.14950 0.06100
H 	H 	0.16150 0.72020 0.14580 0.07600
H 	H 	0.10950 0.49490 0.03190 0.06400
H 	H 	0.03320 0.57580 0.07390 0.07900
H 	H 	0.02150 0.57120 0.20900 0.07500
H 	H 	0.09140 0.48860 0.25300 0.06400
H 	H 	0.44280 0.60520 0.08400 0.07900
H 	H 	0.36110 0.51310 0.03770 0.07300
H 	H 	0.71170 0.86210 0.31240 0.07500
H 	H 	0.71810 0.86340 0.39800 0.07500
H 	H 	0.84270 0.00710 0.24130 0.05600
H 	H 	0.93190 0.10130 0.28210 0.06600
H 	H 	0.82080 0.23270 0.35050 0.06100
H 	H 	0.66150 0.22020 0.35420 0.07600
H 	H 	0.60950 0.99490 0.46810 0.06400
H 	H 	0.53320 0.07580 0.42610 0.07900
H 	H 	0.52150 0.07120 0.29100 0.07500
H 	H 	0.59140 0.98860 0.24700 0.06500
H 	H 	0.94280 0.10520 0.41600 0.07900
H 	H 	0.86110 0.01310 0.46230 0.07300
H 	H 	0.78830 0.63790 0.81240 0.07500
H 	H 	0.78190 0.63660 0.89800 0.07500
H 	H 	0.65730 0.49290 0.74130 0.05600
H 	H 	0.56810 0.39870 0.78210 0.06600
H 	H 	0.67920 0.26730 0.85050 0.06100
H 	H 	0.83850 0.27980 0.85420 0.07600
H 	H 	0.89050 0.50510 0.96810 0.06400
H 	H 	0.96680 0.42420 0.92610 0.07900
H 	H 	0.97850 0.42880 0.79100 0.07500
H 	H 	0.90860 0.51140 0.74700 0.06400
H 	H 	0.55720 0.39480 0.91600 0.07900
H 	H 	0.63890 0.48690 0.96230 0.07300
C 	C 	0.53280 0.10730 0.63640 0.34500
C 	C 	0.03200 0.07400 0.64800 0.26000
C 	C 	0.27670 0.82560 0.78200 0.36100
C 	C 	0.25920 0.81610 0.51360 0.34300
C 	C 	0.40200 0.03460 0.64260 0.00400
C 	C 	0.15270 0.01610 0.64800 0.03200
C 	C 	0.27160 0.88870 0.71340 -0.00400
C 	C 	0.26080 0.88570 0.57950 0.00500
C 	C 	0.28190 0.09230 0.64500 -0.14200
C 	C 	0.15200 0.94840 0.71560 -0.13600
C 	C 	0.26170 0.81840 0.64730 -0.12700
C 	C 	0.38980 0.96260 0.57580 -0.13800
C 	C 	0.40110 0.96670 0.71000 -0.13100
C 	C 	0.14090 0.94470 0.58160 -0.14700
C 	C 	0.96720 0.39270 0.13640 0.34400
C 	C 	0.46800 0.42600 0.14800 0.26100
C 	C 	0.22330 0.67440 0.28200 0.36100
C 	C 	0.24080 0.68390 0.01360 0.34400
C 	C 	0.09800 0.46540 0.14260 0.00400
C 	C 	0.34730 0.48390 0.14800 0.03100
C 	C 	0.22840 0.61130 0.21340 -0.00400
C 	C 	0.23920 0.61430 0.07950 0.00400
C 	C 	0.21810 0.40770 0.14500 -0.14100
C 	C 	0.34800 0.55160 0.21560 -0.13500
C 	C 	0.23830 0.68160 0.14730 -0.12700
C 	C 	0.11020 0.53740 0.07580 -0.13700
C 	C 	0.09890 0.53330 0.21000 -0.12900
C 	C 	0.35910 0.55530 0.08160 -0.14600
C 	C 	0.46720 0.89270 0.36360 0.34500
C 	C 	0.96800 0.92600 0.35200 0.26000
C 	C 	0.72330 0.17440 0.21800 0.36100
C 	C 	0.74080 0.18390 0.48640 0.34300
C 	C 	0.59800 0.96540 0.35740 0.00400
C 	C 	0.84730 0.98390 0.35200 0.03200
C 	C 	0.72840 0.11130 0.28660 -0.00400
C 	C 	0.73920 0.11430 0.42050 0.00500
C 	C 	0.71810 0.90770 0.35500 -0.14200
C 	C 	0.84800 0.05160 0.28440 -0.13600
C 	C 	0.73830 0.18160 0.35270 -0.12700
C 	C 	0.61020 0.03740 0.42420 -0.13800
C 	C 	0.59890 0.03330 0.29000 -0.13100
C 	C 	0.85910 0.05530 0.41840 -0.14700
C 	C 	0.03280 0.60730 0.86360 0.34400
C 	C 	0.53200 0.57400 0.85200 0.26100
C 	C 	0.77670 0.32560 0.71800 0.36100
C 	C 	0.75920 0.31610 0.98640 0.34400
C 	C 	0.90200 0.53460 0.85740 0.00400
C 	C 	0.65270 0.51610 0.85200 0.03100
C 	C 	0.77160 0.38870 0.78660 -0.00400
C 	C 	0.76080 0.38570 0.92050 0.00400
C 	C 	0.78190 0.59230 0.85500 -0.14100
C 	C 	0.65200 0.44840 0.78440 -0.13500
C 	C 	0.76170 0.31840 0.85270 -0.12700
C 	C 	0.88980 0.46260 0.92420 -0.13700
C 	C 	0.90110 0.46670 0.79000 -0.12900
C 	C 	0.64090 0.44470 0.91840 -0.14600
O 	O 	0.63710 0.06530 0.63890 -0.46100
O 	O 	0.53170 0.20280 0.62850 -0.48300
O 	O 	0.30780 0.73650 0.77860 -0.48500
O 	O 	0.25690 0.87070 0.84000 -0.54100
O 	O 	0.04670 0.17020 0.63670 -0.36500
O 	O 	0.91900 0.02380 0.65750 -0.41400
O 	O 	0.17520 0.82100 0.46500 -0.50500
O 	O 	0.34840 0.75850 0.51020 -0.51400
O 	O 	0.86290 0.43470 0.13890 -0.46100
O 	O 	0.96830 0.29720 0.12850 -0.48400
O 	O 	0.19220 0.76350 0.27860 -0.48400
O 	O 	0.24310 0.62930 0.34000 -0.54000
O 	O 	0.45330 0.32980 0.13670 -0.36500
O 	O 	0.58100 0.47620 0.15750 -0.41500
O 	O 	0.32480 0.67900 0.96500 -0.50600
O 	O 	0.15160 0.74150 0.01020 -0.51300
O 	O 	0.36290 0.93470 0.36110 -0.46100
O 	O 	0.46830 0.79720 0.37150 -0.48300
O 	O 	0.69220 0.26350 0.22140 -0.48500
O 	O 	0.74310 0.12930 0.16000 -0.54100
O 	O 	0.95330 0.82980 0.36330 -0.36500
O 	O 	0.08100 0.97620 0.34250 -0.41400
O 	O 	0.82480 0.17900 0.53500 -0.50500
O 	O 	0.65160 0.24150 0.48980 -0.51400
O 	O 	0.13710 0.56530 0.86110 -0.46100
O 	O 	0.03170 0.70280 0.87150 -0.48400
O 	O 	0.80780 0.23650 0.72140 -0.48400
O 	O 	0.75690 0.37070 0.66000 -0.54000
O 	O 	0.54670 0.67020 0.86330 -0.36500
O 	O 	0.41900 0.52380 0.84250 -0.41500
O 	O 	0.67520 0.32100 0.03500 -0.50600
O 	O 	0.84840 0.25850 0.98980 -0.51300
