data_crystal

_cell_length_a 5.16010
_cell_length_b 25.07500
_cell_length_c 14.98600
_cell_angle_alpha 90.00000
_cell_angle_beta  92.61000
_cell_angle_gamma 90.00000

_symmetry_space_group_name_	'P 1'
_symmetry_space_group_name_H-M	'P 1'

loop_
_symmetry_equiv_pos_as_xyz
  x,y,z

loop_
_atom_site_label
_atom_site_type_symbol
_atom_site_fract_x
_atom_site_fract_y
_atom_site_fract_z
_atom_site_charge
Zn	Zn	0.35124 0.21944 0.69890 1.21400
Zn	Zn	0.75148 0.20978 0.87726 1.22100
Zn	Zn	0.84345 0.25596 0.57310 1.21700
Zn	Zn	0.80910 0.04202 0.58568 1.23600
Zn	Zn	0.15862 0.38402 0.75142 1.07500
Zn	Zn	0.41420 0.38427 0.75630 1.08700
P 	P 	0.32420 0.32527 0.57902 0.55800
P 	P 	0.85260 0.15391 0.69447 0.53800
P 	P 	0.26840 0.27980 0.87534 0.59600
P 	P 	0.31000 0.97525 0.61578 0.53500
O 	O 	0.13170 0.16014 0.66600 -0.47800
O 	O 	0.70060 0.20523 0.66030 -0.66300
O 	O 	0.39800 0.23136 0.82740 -0.65300
O 	O 	0.19310 0.27648 0.62430 -0.68100
O 	O 	0.97890 0.27056 0.88040 -0.53500
O 	O 	0.19820 0.33018 0.48570 -0.47700
O 	O 	0.83930 0.15308 0.79600 -0.47600
O 	O 	0.40600 0.28296 0.96710 -0.51100
O 	O 	0.61430 0.31531 0.57730 -0.53200
O 	O 	0.60600 0.98265 0.62520 -0.46000
O 	O 	0.17760 0.02901 0.59690 -0.47400
O 	O 	0.72420 0.10522 0.65400 -0.43500
O 	O 	0.25080 0.93562 0.53930 -0.47100
O 	O 	0.32700 0.32947 0.82280 -0.68300
O 	O 	0.27020 0.37565 0.63120 -0.59200
O 	O 	0.21560 0.95177 0.70340 -0.59500
O 	O 	0.77740 0.38650 0.75910 -0.56000
Zn	Zn	0.14876 0.71944 0.80110 1.21200
Zn	Zn	0.74852 0.70978 0.62274 1.22400
Zn	Zn	0.65655 0.75596 0.92690 1.22000
Zn	Zn	0.69090 0.54202 0.91432 1.23800
Zn	Zn	0.34138 0.88402 0.74858 1.07500
Zn	Zn	0.08580 0.88427 0.74370 1.08600
P 	P 	0.17580 0.82527 0.92098 0.54900
P 	P 	0.64740 0.65391 0.80553 0.54300
P 	P 	0.23160 0.77980 0.62466 0.59100
P 	P 	0.19000 0.47525 0.88422 0.53400
O 	O 	0.36830 0.66014 0.83400 -0.48700
O 	O 	0.79940 0.70523 0.83970 -0.65900
O 	O 	0.10200 0.73136 0.67260 -0.65800
O 	O 	0.30690 0.77648 0.87570 -0.68500
O 	O 	0.52110 0.77056 0.61960 -0.52800
O 	O 	0.30180 0.83018 0.01430 -0.47800
O 	O 	0.66070 0.65308 0.70400 -0.47400
O 	O 	0.09400 0.78296 0.53290 -0.51400
O 	O 	0.88570 0.81531 0.92270 -0.52300
O 	O 	0.89400 0.48265 0.87480 -0.46000
O 	O 	0.32240 0.52901 0.90310 -0.47800
O 	O 	0.77580 0.60522 0.84600 -0.43400
O 	O 	0.24920 0.43562 0.96070 -0.47100
O 	O 	0.17300 0.82947 0.67720 -0.68500
O 	O 	0.22980 0.87565 0.86880 -0.59300
O 	O 	0.28440 0.45177 0.79660 -0.59500
O 	O 	0.72260 0.88650 0.74090 -0.55400
Zn	Zn	0.64876 0.78056 0.30110 1.21500
Zn	Zn	0.24852 0.79022 0.12274 1.22200
Zn	Zn	0.15655 0.74404 0.42690 1.21800
Zn	Zn	0.19090 0.95798 0.41432 1.23700
Zn	Zn	0.84138 0.61598 0.24858 1.07600
Zn	Zn	0.58580 0.61573 0.24370 1.08800
P 	P 	0.67580 0.67473 0.42098 0.55800
P 	P 	0.14740 0.84609 0.30553 0.53800
P 	P 	0.73160 0.72020 0.12466 0.59600
P 	P 	0.69000 0.02475 0.38422 0.53500
O 	O 	0.86830 0.83986 0.33400 -0.47800
O 	O 	0.29940 0.79477 0.33970 -0.66300
O 	O 	0.60200 0.76864 0.17260 -0.65300
O 	O 	0.80690 0.72352 0.37570 -0.68100
O 	O 	0.02110 0.72944 0.11960 -0.53500
O 	O 	0.80180 0.66982 0.51430 -0.47700
O 	O 	0.16070 0.84692 0.20400 -0.47600
O 	O 	0.59400 0.71704 0.03290 -0.51100
O 	O 	0.38570 0.68469 0.42270 -0.53200
O 	O 	0.39400 0.01735 0.37480 -0.46000
O 	O 	0.82240 0.97099 0.40310 -0.47400
O 	O 	0.27580 0.89478 0.34600 -0.43500
O 	O 	0.74920 0.06438 0.46070 -0.47100
O 	O 	0.67300 0.67053 0.17720 -0.68300
O 	O 	0.72980 0.62435 0.36880 -0.59200
O 	O 	0.78440 0.04823 0.29660 -0.59500
O 	O 	0.22260 0.61350 0.24090 -0.56000
Zn	Zn	0.85124 0.28056 0.19890 1.21200
Zn	Zn	0.25148 0.29022 0.37726 1.22400
Zn	Zn	0.34345 0.24404 0.07310 1.22000
Zn	Zn	0.30910 0.45798 0.08568 1.23800
Zn	Zn	0.65862 0.11598 0.25142 1.07500
Zn	Zn	0.91420 0.11573 0.25630 1.08600
P 	P 	0.82420 0.17473 0.07902 0.54900
P 	P 	0.35260 0.34609 0.19447 0.54300
P 	P 	0.76840 0.22020 0.37534 0.59100
P 	P 	0.81000 0.52475 0.11578 0.53400
O 	O 	0.63170 0.33986 0.16600 -0.48700
O 	O 	0.20060 0.29477 0.16030 -0.65900
O 	O 	0.89800 0.26864 0.32740 -0.65800
O 	O 	0.69310 0.22352 0.12430 -0.68500
O 	O 	0.47890 0.22944 0.38040 -0.52800
O 	O 	0.69820 0.16982 0.98570 -0.47800
O 	O 	0.33930 0.34692 0.29600 -0.47400
O 	O 	0.90600 0.21704 0.46710 -0.51400
O 	O 	0.11430 0.18469 0.07730 -0.52300
O 	O 	0.10600 0.51735 0.12520 -0.46000
O 	O 	0.67760 0.47099 0.09690 -0.47800
O 	O 	0.22420 0.39478 0.15400 -0.43400
O 	O 	0.75080 0.56438 0.03930 -0.47100
O 	O 	0.82700 0.17053 0.32280 -0.68500
O 	O 	0.77020 0.12435 0.13120 -0.59300
O 	O 	0.71560 0.54823 0.20340 -0.59500
O 	O 	0.27740 0.11350 0.25910 -0.55400
