data_crystal

_cell_length_a 5.81900
_cell_length_b 36.68000
_cell_length_c 33.07900
_cell_angle_alpha 90.00000
_cell_angle_beta  90.00000
_cell_angle_gamma 90.00000

_symmetry_space_group_name_	'P 1'
_symmetry_space_group_name_H-M	'P 1'

loop_
_symmetry_equiv_pos_as_xyz
  x,y,z

loop_
_atom_site_label
_atom_site_type_symbol
_atom_site_fract_x
_atom_site_fract_y
_atom_site_fract_z
_atom_site_charge
Cd	Cd	0.50276 0.73640 0.67149 1.18700
Cd	Cd	0.98934 0.26209 0.26865 1.18700
Cd	Cd	0.06630 0.48298 0.47169 1.17400
Cd	Cd	0.99724 0.23641 0.67149 1.18600
Cd	Cd	0.51066 0.76209 0.26865 1.18600
Cd	Cd	0.43370 0.98298 0.47169 1.17400
H 	H 	0.88000 0.77020 0.61730 -0.03500
H 	H 	0.08820 0.76230 0.55560 0.13700
H 	H 	0.75090 0.67320 0.53610 0.14600
H 	H 	0.51170 0.68580 0.58840 -0.04800
H 	H 	0.22040 0.73000 0.50450 0.15600
H 	H 	0.17810 0.68780 0.50750 0.15900
H 	H 	0.85870 0.69350 0.46510 -0.05900
H 	H 	0.08330 0.70680 0.44340 -0.06200
H 	H 	0.97780 0.76780 0.46410 0.14300
H 	H 	0.73750 0.75170 0.47590 0.14500
H 	H 	0.89860 0.79170 0.33020 -0.02100
H 	H 	0.05510 0.77970 0.39510 0.11500
H 	H 	0.50060 0.72150 0.42170 0.11200
H 	H 	0.37030 0.73160 0.35320 -0.01700
H 	H 	0.12020 0.50910 0.60690 0.12700
H 	H 	0.68650 0.48820 0.70110 0.19600
H 	H 	0.51750 0.45800 0.58820 0.14500
H 	H 	0.84380 0.57430 0.65170 0.13500
H 	H 	0.95080 0.63520 0.64940 -0.01100
H 	H 	0.55810 0.60990 0.70000 -0.01000
H 	H 	0.45100 0.54900 0.70220 0.15200
H 	H 	0.01480 0.42650 0.68250 0.15300
H 	H 	0.91230 0.36550 0.68650 0.00000
H 	H 	0.53290 0.33700 0.64360 -0.00100
H 	H 	0.63540 0.39800 0.63960 0.13100
H 	H 	0.12870 0.53280 0.33940 0.13400
H 	H 	0.69390 0.51610 0.24580 0.18400
H 	H 	0.52860 0.48110 0.35670 0.13400
H 	H 	0.85820 0.59950 0.29430 0.12200
H 	H 	0.95560 0.66140 0.29730 0.00900
H 	H 	0.55640 0.63510 0.24320 -0.00100
H 	H 	0.46340 0.57480 0.24570 0.14700
H 	H 	0.64650 0.42230 0.30570 0.13400
H 	H 	0.54050 0.36150 0.30110 -0.01200
H 	H 	0.92440 0.39130 0.25720 -0.00500
H 	H 	0.03040 0.45210 0.26190 0.15600
H 	H 	0.62000 0.27020 0.61730 -0.03400
H 	H 	0.41180 0.26230 0.55560 0.13700
H 	H 	0.74910 0.17320 0.53610 0.14100
H 	H 	0.98830 0.18580 0.58840 -0.04700
H 	H 	0.27960 0.23000 0.50450 0.14800
H 	H 	0.32190 0.18780 0.50750 0.15100
H 	H 	0.64130 0.19350 0.46510 -0.04900
H 	H 	0.41670 0.20680 0.44340 -0.04800
H 	H 	0.52220 0.26780 0.46410 0.13700
H 	H 	0.76250 0.25170 0.47590 0.14100
H 	H 	0.60140 0.29170 0.33020 -0.02400
H 	H 	0.44490 0.27970 0.39510 0.12200
H 	H 	0.99940 0.22150 0.42170 0.11300
H 	H 	0.12970 0.23160 0.35320 -0.01700
H 	H 	0.37980 0.00910 0.60690 0.13400
H 	H 	0.81350 0.98820 0.70110 0.19600
H 	H 	0.98250 0.95800 0.58820 0.14500
H 	H 	0.65620 0.07430 0.65170 0.14300
H 	H 	0.54920 0.13520 0.64940 -0.02300
H 	H 	0.94190 0.10990 0.70000 -0.02300
H 	H 	0.04900 0.04900 0.70220 0.16100
H 	H 	0.48520 0.92650 0.68250 0.15100
H 	H 	0.58770 0.86550 0.68650 0.00400
H 	H 	0.96710 0.83700 0.64360 -0.00000
H 	H 	0.86460 0.89800 0.63960 0.12800
H 	H 	0.37130 0.03280 0.33940 0.14300
H 	H 	0.80610 0.01610 0.24580 0.18600
H 	H 	0.97140 0.98110 0.35670 0.13700
H 	H 	0.64180 0.09950 0.29430 0.13200
H 	H 	0.54440 0.16140 0.29730 -0.00500
H 	H 	0.94360 0.13510 0.24320 -0.00500
H 	H 	0.03660 0.07480 0.24570 0.15100
H 	H 	0.85350 0.92230 0.30570 0.12300
H 	H 	0.95950 0.86150 0.30110 0.00300
H 	H 	0.57560 0.89130 0.25720 -0.00000
H 	H 	0.46960 0.95210 0.26190 0.15100
C 	C 	0.84240 0.75114 0.59998 0.15600
C 	C 	0.97720 0.74542 0.56320 -0.34500
C 	C 	0.94180 0.71747 0.54198 0.34500
C 	C 	0.77330 0.69417 0.55147 -0.35800
C 	C 	0.63560 0.70121 0.58347 0.19100
C 	C 	0.10240 0.71127 0.50471 -0.47600
C 	C 	0.97680 0.71217 0.46520 0.26500
C 	C 	0.86750 0.74881 0.45780 -0.42100
C 	C 	0.82380 0.77568 0.34753 0.13000
C 	C 	0.91130 0.77075 0.38788 -0.27200
C 	C 	0.78480 0.75364 0.41371 0.25400
C 	C 	0.58310 0.73561 0.40350 -0.24600
C 	C 	0.51170 0.74079 0.36140 0.10800
C 	C 	0.90740 0.47856 0.55042 0.23400
C 	C 	0.84140 0.48124 0.59272 0.10000
C 	C 	0.98430 0.49941 0.61707 -0.24900
C 	C 	0.92780 0.50395 0.65907 0.32000
C 	C 	0.72500 0.48717 0.67389 -0.37000
C 	C 	0.58820 0.46948 0.64662 0.32800
C 	C 	0.62560 0.46758 0.60598 -0.28300
C 	C 	0.13680 0.55560 0.67718 0.30400
C 	C 	0.98690 0.58144 0.66137 -0.28800
C 	C 	0.05110 0.61792 0.66001 0.16400
C 	C 	0.26510 0.62857 0.67448 -0.22600
C 	C 	0.41490 0.60273 0.69029 0.17100
C 	C 	0.35080 0.56625 0.69164 -0.29100
C 	C 	0.33920 0.66534 0.67377 0.37600
C 	C 	0.33520 0.41833 0.66062 0.29100
C 	C 	0.11860 0.40859 0.67470 -0.27100
C 	C 	0.05720 0.37204 0.67708 0.14200
C 	C 	0.21250 0.34521 0.66544 -0.17100
C 	C 	0.42910 0.35495 0.65140 0.13900
C 	C 	0.49040 0.39151 0.64900 -0.27600
C 	C 	0.14490 0.30586 0.66698 0.32500
C 	C 	0.92500 0.49990 0.39541 0.25400
C 	C 	0.85430 0.50468 0.35347 0.09000
C 	C 	0.99380 0.52325 0.32862 -0.25400
C 	C 	0.95090 0.52917 0.28832 0.31400
C 	C 	0.73650 0.51296 0.27266 -0.34000
C 	C 	0.60390 0.49359 0.29818 0.30300
C 	C 	0.63790 0.49099 0.33940 -0.25500
C 	C 	0.14350 0.58161 0.26625 0.28500
C 	C 	0.99790 0.60730 0.28370 -0.24600
C 	C 	0.05330 0.64417 0.28594 0.11200
C 	C 	0.26730 0.65320 0.26970 -0.16100
C 	C 	0.41600 0.62777 0.25390 0.15200
C 	C 	0.35730 0.59225 0.25402 -0.28300
C 	C 	0.33810 0.69360 0.27058 0.32700
C 	C 	0.34890 0.44325 0.28428 0.29700
C 	C 	0.50170 0.41611 0.29600 -0.29100
C 	C 	0.43830 0.37967 0.29321 0.16000
C 	C 	0.22200 0.37036 0.27867 -0.20200
C 	C 	0.06920 0.39749 0.26694 0.15600
C 	C 	0.13260 0.43394 0.26974 -0.28100
C 	C 	0.15390 0.33136 0.27423 0.37600
C 	C 	0.65760 0.25114 0.59998 0.15300
C 	C 	0.52280 0.24542 0.56320 -0.34000
C 	C 	0.55820 0.21747 0.54198 0.33000
C 	C 	0.72670 0.19417 0.55147 -0.34700
C 	C 	0.86440 0.20121 0.58347 0.18500
C 	C 	0.39760 0.21127 0.50471 -0.44500
C 	C 	0.52320 0.21217 0.46520 0.23000
C 	C 	0.63250 0.24881 0.45780 -0.40500
C 	C 	0.67620 0.27568 0.34753 0.13400
C 	C 	0.58870 0.27075 0.38788 -0.28200
C 	C 	0.71520 0.25364 0.41371 0.25300
C 	C 	0.91690 0.23561 0.40350 -0.24600
C 	C 	0.98830 0.24079 0.36140 0.10900
C 	C 	0.59260 0.97856 0.55042 0.22400
C 	C 	0.65860 0.98124 0.59272 0.10700
C 	C 	0.51570 0.99941 0.61707 -0.26300
C 	C 	0.57220 0.00395 0.65907 0.32400
C 	C 	0.77500 0.98717 0.67389 -0.37200
C 	C 	0.91180 0.96948 0.64662 0.32600
C 	C 	0.87440 0.96758 0.60598 -0.28600
C 	C 	0.36320 0.05560 0.67718 0.32400
C 	C 	0.51310 0.08144 0.66137 -0.31600
C 	C 	0.44890 0.11792 0.66001 0.19500
C 	C 	0.23490 0.12857 0.67448 -0.24800
C 	C 	0.08510 0.10273 0.69029 0.19900
C 	C 	0.14920 0.06625 0.69164 -0.31300
C 	C 	0.16080 0.16534 0.67377 0.39100
C 	C 	0.16480 0.91833 0.66062 0.28800
C 	C 	0.38140 0.90859 0.67470 -0.26500
C 	C 	0.44280 0.87204 0.67708 0.13400
C 	C 	0.28750 0.84521 0.66544 -0.16600
C 	C 	0.07090 0.85495 0.65140 0.13500
C 	C 	0.00960 0.89151 0.64900 -0.26900
C 	C 	0.35510 0.80586 0.66698 0.32000
C 	C 	0.57500 0.99990 0.39541 0.24100
C 	C 	0.64570 0.00468 0.35347 0.10000
C 	C 	0.50620 0.02325 0.32862 -0.27200
C 	C 	0.54910 0.02917 0.28832 0.32000
C 	C 	0.76350 0.01296 0.27266 -0.34500
C 	C 	0.89610 0.99359 0.29818 0.31000
C 	C 	0.86210 0.99099 0.33940 -0.26200
C 	C 	0.35650 0.08161 0.26625 0.30300
C 	C 	0.50210 0.10730 0.28370 -0.27700
C 	C 	0.44670 0.14417 0.28594 0.14500
C 	C 	0.23270 0.15320 0.26970 -0.17600
C 	C 	0.08400 0.12777 0.25390 0.16400
C 	C 	0.14270 0.09225 0.25402 -0.29800
C 	C 	0.16190 0.19360 0.27058 0.33200
C 	C 	0.15110 0.94325 0.28428 0.27800
C 	C 	0.99830 0.91611 0.29600 -0.25900
C 	C 	0.06170 0.87967 0.29321 0.12500
C 	C 	0.27800 0.87036 0.27867 -0.18500
C 	C 	0.43080 0.89749 0.26694 0.14000
C 	C 	0.36740 0.93394 0.26974 -0.26500
C 	C 	0.34610 0.83136 0.27423 0.36900
N 	N 	0.67110 0.72995 0.60874 -0.28000
N 	N 	0.64200 0.75822 0.33456 -0.25700
N 	N 	0.82890 0.22995 0.60874 -0.27800
N 	N 	0.85800 0.25822 0.33456 -0.25800
O 	O 	0.11340 0.47318 0.54089 -0.40400
O 	O 	0.76010 0.47728 0.52127 -0.38500
O 	O 	0.07540 0.52027 0.68496 -0.31900
O 	O 	0.19730 0.69159 0.66045 -0.39800
O 	O 	0.53020 0.67629 0.68238 -0.45400
O 	O 	0.38280 0.45526 0.66348 -0.30600
O 	O 	0.28820 0.28098 0.66004 -0.41600
O 	O 	0.93250 0.29963 0.67521 -0.40600
O 	O 	0.77230 0.49352 0.42285 -0.39600
O 	O 	0.12920 0.49973 0.40479 -0.41600
O 	O 	0.08570 0.54515 0.26036 -0.31200
O 	O 	0.20930 0.71720 0.28181 -0.41700
O 	O 	0.54910 0.70118 0.25766 -0.41100
O 	O 	0.38870 0.48021 0.28246 -0.30200
O 	O 	0.95400 0.32289 0.26584 -0.44800
O 	O 	0.29680 0.30638 0.28178 -0.41500
O 	O 	0.38660 0.97318 0.54089 -0.39800
O 	O 	0.73990 0.97728 0.52127 -0.38500
O 	O 	0.42460 0.02027 0.68496 -0.32300
O 	O 	0.30270 0.19159 0.66045 -0.39900
O 	O 	0.96980 0.17629 0.68238 -0.46100
O 	O 	0.11720 0.95526 0.66348 -0.30300
O 	O 	0.21180 0.78098 0.66004 -0.41600
O 	O 	0.56750 0.79963 0.67521 -0.40300
O 	O 	0.72770 0.99352 0.42285 -0.39500
O 	O 	0.37080 0.99973 0.40479 -0.41000
O 	O 	0.41430 0.04515 0.26036 -0.31600
O 	O 	0.29070 0.21720 0.28181 -0.41700
O 	O 	0.95090 0.20118 0.25766 -0.41200
O 	O 	0.11130 0.98021 0.28246 -0.30100
O 	O 	0.54600 0.82289 0.26584 -0.44600
O 	O 	0.20320 0.80638 0.28178 -0.41500
Cd	Cd	0.01066 0.73791 0.76865 1.18600
Cd	Cd	0.93370 0.51702 0.97169 1.16800
Cd	Cd	0.49724 0.26360 0.17149 1.18600
Cd	Cd	0.48934 0.23791 0.76865 1.18600
Cd	Cd	0.56630 0.01702 0.97169 1.16900
Cd	Cd	0.00276 0.76360 0.17149 1.18500
H 	H 	0.87980 0.49090 0.10690 0.12700
H 	H 	0.31350 0.51180 0.20110 0.19600
H 	H 	0.48250 0.54200 0.08820 0.14600
H 	H 	0.15620 0.42570 0.15170 0.13400
H 	H 	0.04920 0.36480 0.14940 -0.00900
H 	H 	0.44190 0.39010 0.20000 -0.01000
H 	H 	0.54900 0.45100 0.20220 0.15100
H 	H 	0.98520 0.57350 0.18250 0.15200
H 	H 	0.08770 0.63450 0.18650 0.00100
H 	H 	0.46710 0.66300 0.14360 -0.00100
H 	H 	0.36460 0.60200 0.13960 0.13200
H 	H 	0.87130 0.46720 0.83940 0.13300
H 	H 	0.30610 0.48390 0.74580 0.18300
H 	H 	0.47140 0.51890 0.85670 0.13300
H 	H 	0.14180 0.40050 0.79430 0.12000
H 	H 	0.04440 0.33860 0.79730 0.01000
H 	H 	0.44360 0.36490 0.74320 -0.00100
H 	H 	0.53660 0.42520 0.74570 0.14700
H 	H 	0.35350 0.57770 0.80570 0.13300
H 	H 	0.45950 0.63850 0.80110 -0.01200
H 	H 	0.07560 0.60870 0.75720 -0.00500
H 	H 	0.96960 0.54790 0.76190 0.15600
H 	H 	0.12000 0.22980 0.11730 -0.03300
H 	H 	0.91180 0.23770 0.05560 0.13500
H 	H 	0.24910 0.32680 0.03610 0.14600
H 	H 	0.48830 0.31420 0.08840 -0.04600
H 	H 	0.77960 0.27000 0.00450 0.15100
H 	H 	0.82190 0.31220 0.00750 0.15200
H 	H 	0.14130 0.30650 0.96510 -0.05100
H 	H 	0.91670 0.29320 0.94340 -0.05300
H 	H 	0.02220 0.23220 0.96410 0.13100
H 	H 	0.26250 0.24830 0.97590 0.13200
H 	H 	0.10140 0.20830 0.83020 -0.01900
H 	H 	0.94490 0.22030 0.89510 0.10900
H 	H 	0.49940 0.27850 0.92170 0.10700
H 	H 	0.62970 0.26840 0.85320 -0.01600
H 	H 	0.62020 0.99090 0.10690 0.13500
H 	H 	0.18650 0.01180 0.20110 0.19600
H 	H 	0.01750 0.04200 0.08820 0.14700
H 	H 	0.34380 0.92570 0.15170 0.14300
H 	H 	0.45080 0.86480 0.14940 -0.02300
H 	H 	0.05810 0.89010 0.20000 -0.02300
H 	H 	0.95100 0.95100 0.20220 0.16100
H 	H 	0.51480 0.07350 0.18250 0.15100
H 	H 	0.41230 0.13450 0.18650 0.00400
H 	H 	0.03290 0.16300 0.14360 0.00100
H 	H 	0.13540 0.10200 0.13960 0.12900
H 	H 	0.62870 0.96720 0.83940 0.14200
H 	H 	0.19390 0.98390 0.74580 0.18600
H 	H 	0.02860 0.01890 0.85670 0.13700
H 	H 	0.35820 0.90050 0.79430 0.13100
H 	H 	0.45560 0.83860 0.79730 -0.00500
H 	H 	0.05640 0.86490 0.74320 -0.00400
H 	H 	0.96340 0.92520 0.74570 0.15000
H 	H 	0.14650 0.07770 0.80570 0.12200
H 	H 	0.04050 0.13850 0.80110 0.00400
H 	H 	0.42440 0.10870 0.75720 0.00000
H 	H 	0.53040 0.04790 0.76190 0.15100
H 	H 	0.38000 0.72980 0.11730 -0.03200
H 	H 	0.58820 0.73770 0.05560 0.13600
H 	H 	0.25090 0.82680 0.03610 0.14000
H 	H 	0.01170 0.81420 0.08840 -0.04400
H 	H 	0.72040 0.77000 0.00450 0.14200
H 	H 	0.67810 0.81220 0.00750 0.14300
H 	H 	0.35870 0.80650 0.96510 -0.04000
H 	H 	0.58330 0.79320 0.94340 -0.03700
H 	H 	0.47780 0.73220 0.96410 0.12500
H 	H 	0.23750 0.74830 0.97590 0.12800
H 	H 	0.39860 0.70830 0.83020 -0.02200
H 	H 	0.55510 0.72030 0.89510 0.11700
H 	H 	0.00060 0.77850 0.92170 0.10800
H 	H 	0.87030 0.76840 0.85320 -0.01700
C 	C 	0.09260 0.52144 0.05042 0.23400
C 	C 	0.15860 0.51876 0.09272 0.10200
C 	C 	0.01570 0.50059 0.11707 -0.24900
C 	C 	0.07220 0.49605 0.15907 0.32100
C 	C 	0.27500 0.51283 0.17389 -0.37100
C 	C 	0.41180 0.53052 0.14662 0.32800
C 	C 	0.37440 0.53242 0.10598 -0.28300
C 	C 	0.86320 0.44440 0.17718 0.30300
C 	C 	0.01310 0.41856 0.16137 -0.28500
C 	C 	0.94890 0.38208 0.16001 0.16100
C 	C 	0.73490 0.37143 0.17448 -0.22400
C 	C 	0.58510 0.39727 0.19029 0.16900
C 	C 	0.64920 0.43375 0.19164 -0.28900
C 	C 	0.66080 0.33466 0.17377 0.37500
C 	C 	0.66480 0.58167 0.16062 0.29100
C 	C 	0.88140 0.59141 0.17470 -0.27000
C 	C 	0.94280 0.62796 0.17708 0.14100
C 	C 	0.78750 0.65479 0.16544 -0.17000
C 	C 	0.57090 0.64505 0.15140 0.14000
C 	C 	0.50960 0.60849 0.14900 -0.27500
C 	C 	0.85510 0.69414 0.16698 0.32400
C 	C 	0.07500 0.50010 0.89541 0.25500
C 	C 	0.14570 0.49532 0.85347 0.08800
C 	C 	0.00620 0.47675 0.82862 -0.25200
C 	C 	0.04910 0.47083 0.78832 0.31300
C 	C 	0.26350 0.48704 0.77266 -0.33900
C 	C 	0.39610 0.50641 0.79818 0.30200
C 	C 	0.36210 0.50901 0.83940 -0.25400
C 	C 	0.85650 0.41839 0.76625 0.28200
C 	C 	0.00210 0.39270 0.78370 -0.24300
C 	C 	0.94670 0.35583 0.78594 0.10900
C 	C 	0.73270 0.34680 0.76970 -0.15900
C 	C 	0.58400 0.37223 0.75390 0.15000
C 	C 	0.64270 0.40775 0.75402 -0.28100
C 	C 	0.66190 0.30640 0.77058 0.32600
C 	C 	0.65110 0.55675 0.78428 0.29600
C 	C 	0.49830 0.58389 0.79600 -0.29100
C 	C 	0.56170 0.62033 0.79321 0.15900
C 	C 	0.77800 0.62964 0.77867 -0.20200
C 	C 	0.93080 0.60251 0.76694 0.15400
C 	C 	0.86740 0.56606 0.76974 -0.28000
C 	C 	0.84610 0.66864 0.77423 0.37500
C 	C 	0.15760 0.24886 0.09998 0.15200
C 	C 	0.02280 0.25458 0.06320 -0.33400
C 	C 	0.05820 0.28253 0.04198 0.33400
C 	C 	0.22670 0.30583 0.05147 -0.34800
C 	C 	0.36440 0.29879 0.08347 0.18700
C 	C 	0.89760 0.28873 0.00471 -0.44000
C 	C 	0.02320 0.28783 0.96520 0.22500
C 	C 	0.13250 0.25119 0.95780 -0.39300
C 	C 	0.17620 0.22432 0.84753 0.12400
C 	C 	0.08870 0.22925 0.88788 -0.26100
C 	C 	0.21520 0.24636 0.91371 0.23900
C 	C 	0.41690 0.26439 0.90350 -0.23800
C 	C 	0.48830 0.25921 0.86140 0.10300
C 	C 	0.40740 0.02144 0.05042 0.22300
C 	C 	0.34140 0.01876 0.09272 0.10900
C 	C 	0.48430 0.00059 0.11707 -0.26400
C 	C 	0.42780 0.99605 0.15907 0.32500
C 	C 	0.22500 0.01283 0.17389 -0.37300
C 	C 	0.08820 0.03052 0.14662 0.32800
C 	C 	0.12560 0.03242 0.10598 -0.28700
C 	C 	0.63680 0.94440 0.17718 0.32300
C 	C 	0.48690 0.91856 0.16137 -0.31500
C 	C 	0.55110 0.88208 0.16001 0.19500
C 	C 	0.76510 0.87143 0.17448 -0.24700
C 	C 	0.91490 0.89727 0.19029 0.19800
C 	C 	0.85080 0.93375 0.19164 -0.31200
C 	C 	0.83920 0.83466 0.17377 0.39000
C 	C 	0.83520 0.08167 0.16062 0.28800
C 	C 	0.61860 0.09141 0.17470 -0.26500
C 	C 	0.55720 0.12796 0.17708 0.13400
C 	C 	0.71250 0.15479 0.16544 -0.16600
C 	C 	0.92910 0.14505 0.15140 0.13500
C 	C 	0.99040 0.10849 0.14900 -0.26900
C 	C 	0.64490 0.19414 0.16698 0.32000
C 	C 	0.42500 0.00010 0.89541 0.24200
C 	C 	0.35430 0.99532 0.85347 0.09900
C 	C 	0.49380 0.97675 0.82862 -0.27100
C 	C 	0.45090 0.97083 0.78832 0.31900
C 	C 	0.23650 0.98704 0.77266 -0.34500
C 	C 	0.10390 0.00641 0.79818 0.30900
C 	C 	0.13790 0.00901 0.83940 -0.26200
C 	C 	0.64350 0.91839 0.76625 0.30200
C 	C 	0.49790 0.89270 0.78370 -0.27600
C 	C 	0.55330 0.85583 0.78594 0.14400
C 	C 	0.76730 0.84680 0.76970 -0.17500
C 	C 	0.91600 0.87223 0.75390 0.16300
C 	C 	0.85730 0.90775 0.75402 -0.29700
C 	C 	0.83810 0.80640 0.77058 0.33100
C 	C 	0.84890 0.05675 0.78428 0.27600
C 	C 	0.00170 0.08389 0.79600 -0.25700
C 	C 	0.93830 0.12033 0.79321 0.12200
C 	C 	0.72200 0.12964 0.77867 -0.18400
C 	C 	0.56920 0.10251 0.76694 0.13900
C 	C 	0.63260 0.06606 0.76974 -0.26400
C 	C 	0.65390 0.16864 0.77423 0.36800
C 	C 	0.34240 0.74886 0.09998 0.15000
C 	C 	0.47720 0.75458 0.06320 -0.32900
C 	C 	0.44180 0.78253 0.04198 0.31700
C 	C 	0.27330 0.80583 0.05147 -0.33600
C 	C 	0.13560 0.79879 0.08347 0.18100
C 	C 	0.60240 0.78873 0.00471 -0.40400
C 	C 	0.47680 0.78783 0.96520 0.18400
C 	C 	0.36750 0.75119 0.95780 -0.37600
C 	C 	0.32380 0.72432 0.84753 0.12900
C 	C 	0.41130 0.72925 0.88788 -0.27200
C 	C 	0.28480 0.74636 0.91371 0.23900
C 	C 	0.08310 0.76439 0.90350 -0.23800
C 	C 	0.01170 0.75921 0.86140 0.10600
N 	N 	0.32890 0.27005 0.10874 -0.27800
N 	N 	0.35800 0.24178 0.83456 -0.25600
N 	N 	0.17110 0.77005 0.10874 -0.27600
N 	N 	0.14200 0.74178 0.83456 -0.25700
O 	O 	0.88660 0.52682 0.04089 -0.39900
O 	O 	0.23990 0.52272 0.02127 -0.37800
O 	O 	0.92460 0.47973 0.18496 -0.31900
O 	O 	0.80270 0.30841 0.16045 -0.39800
O 	O 	0.46980 0.32371 0.18238 -0.45400
O 	O 	0.61720 0.54474 0.16348 -0.30700
O 	O 	0.71180 0.71902 0.16004 -0.41600
O 	O 	0.06750 0.70037 0.17521 -0.40600
O 	O 	0.22770 0.50648 0.92285 -0.40100
O 	O 	0.87080 0.50027 0.90479 -0.41900
O 	O 	0.91430 0.45485 0.76036 -0.31200
O 	O 	0.79070 0.28280 0.78181 -0.41700
O 	O 	0.45090 0.29882 0.75766 -0.41100
O 	O 	0.61130 0.51979 0.78246 -0.30200
O 	O 	0.04600 0.67711 0.76584 -0.44800
O 	O 	0.70320 0.69362 0.78178 -0.41500
O 	O 	0.61340 0.02682 0.04089 -0.39300
O 	O 	0.26010 0.02272 0.02127 -0.37800
O 	O 	0.57540 0.97973 0.18496 -0.32300
O 	O 	0.69730 0.80841 0.16045 -0.39900
O 	O 	0.03020 0.82371 0.18238 -0.46100
O 	O 	0.88280 0.04474 0.16348 -0.30400
O 	O 	0.78820 0.21902 0.16004 -0.41600
O 	O 	0.43250 0.20037 0.17521 -0.40300
O 	O 	0.27230 0.00648 0.92285 -0.40000
O 	O 	0.62920 0.00027 0.90479 -0.41300
O 	O 	0.58570 0.95485 0.76036 -0.31600
O 	O 	0.70930 0.78280 0.78181 -0.41700
O 	O 	0.04910 0.79882 0.75766 -0.41200
O 	O 	0.88870 0.01979 0.78246 -0.30100
O 	O 	0.45400 0.17711 0.76584 -0.44600
O 	O 	0.79680 0.19362 0.78178 -0.41500
