data_crystal

_cell_length_a 9.01160
_cell_length_b 9.34010
_cell_length_c 23.21100
_cell_angle_alpha 93.92710
_cell_angle_beta  95.29680
_cell_angle_gamma 105.61800

_symmetry_space_group_name_	'P 1'
_symmetry_space_group_name_H-M	'P 1'

loop_
_symmetry_equiv_pos_as_xyz
  x,y,z

loop_
_atom_site_label
_atom_site_type_symbol
_atom_site_fract_x
_atom_site_fract_y
_atom_site_fract_z
_atom_site_charge
Ni	Ni	0.19696 0.29571 0.78090 1.04300
Ni	Ni	0.19818 0.55555 0.78687 1.05100
Ni	Ni	0.80285 0.49129 0.29655 1.06000
Ni	Ni	0.79114 0.74782 0.30998 1.06800
H 	H 	0.22165 0.78015 0.69088 0.04100
H 	H 	0.57454 0.36418 0.44101 0.04300
H 	H 	0.98450 0.74332 0.82082 0.08400
H 	H 	0.01102 0.17913 0.62525 -0.00400
H 	H 	0.20500 0.04142 0.68528 0.04400
H 	H 	0.02189 0.31803 0.36599 0.00500
H 	H 	0.72252 0.42871 0.11853 0.05100
H 	H 	0.99968 0.38331 0.17065 0.09200
H 	H 	0.43473 0.11536 0.75993 0.04500
H 	H 	0.10994 0.87952 0.16766 0.03300
H 	H 	0.85587 0.86089 0.51222 0.04200
H 	H 	0.41308 0.79280 0.04595 0.03800
H 	H 	0.40833 0.87229 0.84395 0.04700
H 	H 	0.58063 0.18772 0.25686 0.03200
H 	H 	0.59551 0.93771 0.34127 0.04700
H 	H 	0.15397 0.85154 0.05678 0.02800
H 	H 	0.67560 0.34075 0.90100 0.05200
H 	H 	0.58524 0.91200 0.25930 0.05500
H 	H 	0.23535 0.62553 0.59775 0.03400
H 	H 	0.01286 0.25866 0.51919 -0.00200
H 	H 	0.56394 0.26141 0.54101 0.03900
H 	H 	0.40617 0.12636 0.83640 0.04700
H 	H 	0.11503 0.70398 0.96629 0.03500
H 	H 	0.13190 0.22867 0.97020 0.03700
H 	H 	0.02690 0.05404 0.37090 0.00600
H 	H 	0.99620 0.98281 0.70471 0.07800
H 	H 	0.79480 0.22778 0.21556 0.02400
H 	H 	0.12874 0.07729 0.86643 0.04500
H 	H 	0.77962 0.95896 0.21423 0.05500
H 	H 	0.45508 0.27155 0.64442 0.04900
H 	H 	0.81386 0.56006 0.67580 0.05600
H 	H 	0.75794 0.34789 0.00996 0.04700
H 	H 	0.00364 0.26886 0.25265 0.00300
H 	H 	0.79558 0.74179 0.60981 0.04400
H 	H 	0.06628 0.22733 0.07800 0.03000
H 	H 	0.99049 0.01428 0.24745 0.06200
H 	H 	0.43448 0.85124 0.76196 0.04800
H 	H 	0.25201 0.72793 0.49706 0.03200
H 	H 	0.46735 0.76069 0.15701 0.04400
H 	H 	0.15266 0.82161 0.87552 0.04300
H 	H 	0.57739 0.19148 0.33674 0.04100
H 	H 	0.84568 0.26482 0.40482 0.03200
H 	H 	0.98915 0.45319 0.45245 0.06400
H 	H 	0.37682 0.73371 0.39719 0.04700
H 	H 	0.41630 0.68489 0.93846 0.04900
H 	H 	0.02248 0.72496 0.70939 0.01600
H 	H 	0.96680 0.00181 0.80507 0.07500
H 	H 	0.83659 0.00778 0.39874 0.04100
C 	C 	0.35404 0.05411 0.79248 -0.03200
C 	C 	0.95237 0.36641 0.72166 0.21700
C 	C 	0.08455 0.47561 0.08669 0.02600
C 	C 	0.64468 0.16079 0.29885 -0.03300
C 	C 	0.66635 0.51202 0.09853 -0.01300
C 	C 	0.13877 0.81335 0.72129 -0.02700
C 	C 	0.84234 0.48218 0.64090 -0.02000
C 	C 	0.65892 0.60588 0.20322 0.26400
C 	C 	0.05504 0.48756 0.14747 -0.08600
C 	C 	0.13500 0.43470 0.89467 0.25000
C 	C 	0.69585 0.43530 0.99330 -0.02200
C 	C 	0.34306 0.44653 0.62216 -0.04300
C 	C 	0.89901 0.23414 0.36397 0.01100
C 	C 	0.91509 0.64987 0.47117 -0.05200
C 	C 	0.30938 0.54719 0.58401 -0.02600
C 	C 	0.32697 0.64858 0.48531 -0.04500
C 	C 	0.95611 0.31216 0.55491 -0.00700
C 	C 	0.50393 0.44175 0.45683 -0.02600
C 	C 	0.06651 0.63095 0.17627 -0.01200
C 	C 	0.10018 0.76145 0.14421 -0.03100
C 	C 	0.62659 0.51248 0.03724 0.00700
C 	C 	0.29259 0.44713 0.68407 0.24200
C 	C 	0.48690 0.71259 0.06192 -0.03800
C 	C 	0.11694 0.45507 0.96034 -0.05600
C 	C 	0.87080 0.74353 0.51893 0.00100
C 	C 	0.84498 0.52792 0.58262 0.01100
C 	C 	0.10161 0.83682 0.82937 -0.06400
C 	C 	0.92593 0.67224 0.40710 0.27000
C 	C 	0.01235 0.64578 0.23598 0.14200
C 	C 	0.53081 0.51126 0.91362 -0.02500
C 	C 	0.49139 0.60977 0.95634 -0.02200
C 	C 	0.43312 0.34443 0.60947 -0.00900
C 	C 	0.36274 0.88755 0.79682 -0.02900
C 	C 	0.95284 0.27208 0.61179 0.03000
C 	C 	0.45307 0.43759 0.51495 0.00900
C 	C 	0.64676 0.98683 0.30079 -0.04800
C 	C 	0.46799 0.53805 0.41621 -0.04700
C 	C 	0.93853 0.51150 0.48586 -0.01800
C 	C 	0.87412 0.20394 0.25413 0.01800
C 	C 	0.91555 0.45182 0.54047 0.00500
C 	C 	0.08950 0.33774 0.05595 -0.06400
C 	C 	0.44498 0.49169 0.84878 0.22900
C 	C 	0.55648 0.56509 0.36219 0.24900
C 	C 	0.91229 0.36535 0.65677 -0.05400
C 	C 	0.10252 0.60153 0.05199 -0.01200
C 	C 	0.83037 0.67708 0.57003 -0.03700
C 	C 	0.87004 0.03523 0.25033 -0.04500
C 	C 	0.12389 0.97844 0.71702 -0.07900
C 	C 	0.09127 0.00158 0.82293 -0.08000
C 	C 	0.10565 0.59401 0.98814 -0.01800
C 	C 	0.35845 0.54189 0.52685 0.00400
C 	C 	0.63572 0.41677 0.93443 -0.01000
C 	C 	0.11984 0.74613 0.08433 -0.03600
C 	C 	0.61791 0.60954 0.13941 -0.05000
C 	C 	0.53699 0.61723 0.01896 0.01300
C 	C 	0.12066 0.33359 0.99672 -0.00400
C 	C 	0.52315 0.70825 0.12141 -0.00100
C 	C 	0.38713 0.65111 0.43111 -0.00900
C 	C 	0.90243 0.06581 0.36327 -0.00200
C 	C 	0.49285 0.34146 0.55621 -0.04300
N 	N 	0.18973 0.07112 0.77718 -0.17500
N 	N 	0.80955 0.26084 0.30731 -0.17000
N 	N 	0.81645 0.97616 0.30565 -0.16600
N 	N 	0.19734 0.78654 0.78328 -0.16500
O 	O 	0.41872 0.36115 0.81833 -0.37800
O 	O 	0.29258 0.57795 0.70986 -0.39400
O 	O 	0.89791 0.79130 0.38295 -0.42400
O 	O 	0.97498 0.50441 0.25269 -0.34200
O 	O 	0.66278 0.47721 0.22171 -0.39800
O 	O 	0.67027 0.73085 0.23713 -0.41500
O 	O 	0.40353 0.61182 0.82957 -0.38800
O 	O 	0.94024 0.55686 0.37637 -0.38900
O 	O 	0.16593 0.30896 0.87310 -0.37800
O 	O 	0.97809 0.49731 0.75427 -0.36000
O 	O 	0.98368 0.76245 0.25904 -0.33000
O 	O 	0.57780 0.70057 0.34582 -0.36200
O 	O 	0.27370 0.31590 0.70501 -0.41900
O 	O 	0.13084 0.54961 0.86586 -0.40900
O 	O 	0.61735 0.45982 0.33980 -0.41200
O 	O 	0.97696 0.24640 0.74632 -0.36700
