data_crystal

_cell_length_a 9.43440
_cell_length_b 18.51740
_cell_length_c 18.51740
_cell_angle_alpha 90.00000
_cell_angle_beta  90.00000
_cell_angle_gamma 90.00000

_symmetry_space_group_name_	'P 1'
_symmetry_space_group_name_H-M	'P 1'

loop_
_symmetry_equiv_pos_as_xyz
  x,y,z

loop_
_atom_site_label
_atom_site_type_symbol
_atom_site_fract_x
_atom_site_fract_y
_atom_site_fract_z
_atom_site_charge
Ni	Ni	0.69220 0.24837 0.25249 1.07600
Ni	Ni	0.43385 0.24733 0.25340 1.07500
Ni	Ni	0.30820 0.74858 0.75257 1.07600
Ni	Ni	0.56681 0.74717 0.75350 1.07500
H 	H 	0.19050 0.49821 0.48973 0.03800
H 	H 	0.81151 0.99947 0.51780 0.03700
H 	H 	0.18377 0.21654 0.13928 0.04300
H 	H 	0.33129 0.09231 0.09449 0.04700
H 	H 	0.79578 0.39914 0.09207 0.04300
H 	H 	0.05306 0.83243 0.67281 0.04100
H 	H 	0.05683 0.77209 0.86380 0.04000
H 	H 	0.05906 0.63615 0.71584 0.04300
H 	H 	0.19763 0.00101 0.49233 0.03700
H 	H 	0.80349 0.09956 0.41698 0.04200
H 	H 	0.79730 0.79414 0.85797 0.04300
H 	H 	0.81699 0.71528 0.63918 0.04300
H 	H 	0.19013 0.49934 0.01816 0.03700
H 	H 	0.91958 0.14960 0.31471 0.04200
H 	H 	0.20620 0.89927 0.59278 0.04300
H 	H 	0.79448 0.81416 0.65677 0.04300
H 	H 	0.20279 0.29321 0.35894 0.04300
H 	H 	0.81761 0.85812 0.78023 0.04100
H 	H 	0.32631 0.41412 0.10370 0.04600
H 	H 	0.33335 0.08687 0.40763 0.04700
H 	H 	0.19760 0.59966 0.91754 0.04200
H 	H 	0.20380 0.12961 0.23931 0.03900
H 	H 	0.92121 0.24134 0.13387 0.04000
H 	H 	0.80456 0.50491 0.51116 0.03800
H 	H 	0.81001 0.99797 0.99016 0.03700
H 	H 	0.82198 0.66471 0.83372 0.04100
H 	H 	0.17821 0.16441 0.33354 0.04100
H 	H 	0.19565 0.00483 0.01098 0.03700
H 	H 	0.80381 0.50087 0.99202 0.03800
H 	H 	0.80139 0.09729 0.09248 0.04300
H 	H 	0.67350 0.90897 0.90757 0.04600
H 	H 	0.18324 0.35802 0.28186 0.04100
H 	H 	0.79673 0.62933 0.73970 0.03900
H 	H 	0.66871 0.59232 0.59475 0.04700
H 	H 	0.20585 0.31529 0.15785 0.04300
H 	H 	0.94175 0.13670 0.21514 0.04300
H 	H 	0.20153 0.90356 0.91107 0.04200
H 	H 	0.07709 0.85197 0.80237 0.04200
H 	H 	0.67585 0.91457 0.60381 0.04600
H 	H 	0.94737 0.33331 0.17384 0.04100
H 	H 	0.66780 0.58701 0.90764 0.04700
H 	H 	0.79900 0.40379 0.41124 0.04100
H 	H 	0.94283 0.27174 0.36428 0.04000
H 	H 	0.08072 0.65001 0.81530 0.04200
H 	H 	0.32719 0.40950 0.40700 0.04600
H 	H 	0.92359 0.35189 0.30312 0.04200
H 	H 	0.19861 0.59720 0.59253 0.04300
H 	H 	0.07953 0.74011 0.63375 0.04000
C 	C 	0.43449 0.06922 0.06977 -0.01900
C 	C 	0.02008 0.79683 0.80922 -0.03300
C 	C 	0.70207 0.07256 0.43925 -0.00300
C 	C 	0.70335 0.01847 0.01342 -0.04300
C 	C 	0.97880 0.17095 0.26413 -0.03400
C 	C 	0.14436 0.17251 0.27391 -0.03000
C 	C 	0.01930 0.77248 0.67805 -0.03000
C 	C 	0.43577 0.65306 0.85027 0.26000
C 	C 	0.85608 0.67246 0.77407 -0.03000
C 	C 	0.29645 0.51934 0.99410 -0.04300
C 	C 	0.02169 0.67083 0.76446 -0.03400
C 	C 	0.56196 0.34455 0.34858 0.26300
C 	C 	0.56213 0.40326 0.40580 -0.04900
C 	C 	0.98118 0.27329 0.17856 -0.03000
C 	C 	0.14675 0.26354 0.17630 -0.03500
C 	C 	0.70503 0.01938 0.49386 -0.04400
C 	C 	0.42883 0.48831 0.02095 0.01000
C 	C 	0.29985 0.57180 0.56800 -0.00300
C 	C 	0.57186 0.93430 0.57727 -0.01900
C 	C 	0.42992 0.43412 0.07710 -0.01900
C 	C 	0.56951 0.93178 0.93153 -0.01800
C 	C 	0.56086 0.34505 0.15813 0.26000
C 	C 	0.56514 0.09701 0.09633 -0.04800
C 	C 	0.69782 0.48137 0.01680 -0.04400
C 	C 	0.44024 0.84517 0.65829 0.26000
C 	C 	0.56514 0.15301 0.35014 0.25900
C 	C 	0.43383 0.59642 0.90943 -0.04800
C 	C 	0.85464 0.80280 0.80318 -0.03400
C 	C 	0.57273 0.98844 0.52101 0.01000
C 	C 	0.14574 0.30252 0.30417 -0.03300
C 	C 	0.85377 0.76267 0.67574 -0.03400
C 	C 	0.42968 0.48820 0.48560 0.00900
C 	C 	0.56737 0.09615 0.40905 -0.04800
C 	C 	0.43610 0.01290 0.49067 0.01000
C 	C 	0.56438 0.56690 0.93444 -0.01900
C 	C 	0.43713 0.65357 0.65554 0.26000
C 	C 	0.69879 0.48382 0.48747 -0.04400
C 	C 	0.44120 0.90401 0.60131 -0.04800
C 	C 	0.56058 0.40389 0.10115 -0.04800
C 	C 	0.56559 0.56933 0.56990 -0.01900
C 	C 	0.98022 0.29666 0.30989 -0.03300
C 	C 	0.30364 0.98155 0.51711 -0.04300
C 	C 	0.69508 0.42748 0.07069 -0.00300
C 	C 	0.56291 0.15335 0.15558 0.26000
C 	C 	0.30659 0.92764 0.57102 -0.00300
C 	C 	0.57074 0.98792 0.98585 0.01000
C 	C 	0.30374 0.92917 0.93411 -0.00200
C 	C 	0.43394 0.01401 0.01468 0.01000
C 	C 	0.43837 0.84418 0.84888 0.26300
C 	C 	0.30144 0.98364 0.98741 -0.04300
C 	C 	0.29705 0.51869 0.51321 -0.04300
C 	C 	0.43848 0.90279 0.90616 -0.04900
C 	C 	0.70030 0.07171 0.06806 -0.00300
C 	C 	0.29925 0.57281 0.93977 -0.00300
C 	C 	0.69671 0.42948 0.43401 -0.00200
C 	C 	0.43108 0.43224 0.43107 -0.01800
C 	C 	0.43690 0.06668 0.43423 -0.01900
C 	C 	0.56536 0.51287 0.99064 0.01000
C 	C 	0.43484 0.59717 0.59636 -0.04800
C 	C 	0.56623 0.51420 0.51471 0.01100
N 	N 	0.07807 0.74704 0.75060 -0.16300
N 	N 	0.92237 0.24719 0.25085 -0.16300
N 	N 	0.20337 0.24605 0.25172 -0.16300
N 	N 	0.79709 0.74583 0.75130 -0.16300
O 	O 	0.68685 0.16644 0.18717 -0.40900
O 	O 	0.44082 0.16458 0.31835 -0.40700
O 	O 	0.43796 0.18352 0.17006 -0.40800
O 	O 	0.56229 0.68343 0.67015 -0.40800
O 	O 	0.68815 0.18568 0.33658 -0.40900
O 	O 	0.56111 0.81105 0.83673 -0.40800
O 	O 	0.31305 0.66696 0.68695 -0.40900
O 	O 	0.31272 0.68549 0.83650 -0.40900
O 	O 	0.43790 0.33163 0.19081 -0.40700
O 	O 	0.68519 0.33172 0.31609 -0.40900
O 	O 	0.68461 0.31256 0.16940 -0.40700
O 	O 	0.56006 0.66458 0.81843 -0.40700
O 	O 	0.43886 0.31169 0.33649 -0.40700
O 	O 	0.31512 0.83189 0.81622 -0.40900
O 	O 	0.31612 0.81303 0.66958 -0.40600
O 	O 	0.56315 0.83148 0.69094 -0.40700
