data_crystal

_cell_length_a 16.20680
_cell_length_b 16.20680
_cell_length_c 31.37730
_cell_angle_alpha 99.48390
_cell_angle_beta  99.48390
_cell_angle_gamma 96.25720

_symmetry_space_group_name_	'P 1'
_symmetry_space_group_name_H-M	'P 1'

loop_
_symmetry_equiv_pos_as_xyz
  x,y,z

loop_
_atom_site_label
_atom_site_type_symbol
_atom_site_fract_x
_atom_site_fract_y
_atom_site_fract_z
_atom_site_charge
Nd	Nd	0.81293 0.35659 0.79912 2.19800
Nd	Nd	0.97830 0.35936 0.91300 1.99000
Nd	Nd	0.64341 0.18707 0.70088 2.19900
Nd	Nd	0.64064 0.02170 0.58700 1.99200
Nd	Nd	0.18707 0.64341 0.20088 2.19800
Nd	Nd	0.02170 0.64064 0.08700 1.99000
Nd	Nd	0.35659 0.81293 0.29912 2.19800
Nd	Nd	0.35936 0.97830 0.41300 1.99100
H 	H 	0.98160 0.71540 0.66400 0.06200
H 	H 	0.03630 0.62430 0.71340 0.05500
H 	H 	0.20150 0.35670 0.69300 0.05900
H 	H 	0.29400 0.30920 0.64280 0.05700
H 	H 	0.36740 0.39740 0.49570 0.05800
H 	H 	0.29830 0.47790 0.44260 0.06100
H 	H 	0.03590 0.65390 0.43700 0.05900
H 	H 	0.94710 0.69710 0.48880 0.05600
H 	H 	0.17420 0.58020 0.75920 0.09300
H 	H 	0.13930 0.54390 0.82400 0.00500
H 	H 	0.99400 0.33140 0.75620 -0.01000
H 	H 	0.03130 0.36410 0.69080 0.08900
H 	H 	0.44930 0.41770 0.60860 0.10400
H 	H 	0.54410 0.32110 0.62410 -0.03000
H 	H 	0.38040 0.13660 0.54140 -0.00400
H 	H 	0.28750 0.23550 0.52820 0.10700
H 	H 	0.27570 0.67370 0.44650 0.12300
H 	H 	0.28900 0.70080 0.37790 -0.05500
H 	H 	0.09560 0.52320 0.32090 -0.02500
H 	H 	0.08090 0.49010 0.38800 0.12200
H 	H 	0.00990 0.82570 0.55790 0.08200
H 	H 	0.91520 0.92420 0.56390 -0.00100
H 	H 	0.75200 0.75320 0.60030 0.01100
H 	H 	0.84680 0.65460 0.59440 0.08500
H 	H 	0.80900 0.00500 0.56450 0.16800
H 	H 	0.02630 0.93770 0.83120 0.05200
H 	H 	0.08990 0.85210 0.88280 0.06300
H 	H 	0.31520 0.64120 0.88580 0.05900
H 	H 	0.40010 0.58470 0.83530 0.05600
H 	H 	0.10330 0.07890 0.78900 0.07600
H 	H 	0.00610 0.17750 0.78950 0.02300
H 	H 	0.28070 0.80730 0.93890 0.09100
H 	H 	0.23030 0.78470 0.00320 0.00700
H 	H 	0.03530 0.61910 0.93070 0.01200
H 	H 	0.07750 0.64850 0.86770 0.08600
H 	H 	0.52120 0.63800 0.79630 0.12400
H 	H 	0.61990 0.54270 0.79760 -0.03300
H 	H 	0.28460 0.01840 0.83600 0.06200
H 	H 	0.37570 0.96370 0.78660 0.05500
H 	H 	0.64330 0.79850 0.80700 0.05900
H 	H 	0.69080 0.70600 0.85720 0.05700
H 	H 	0.60260 0.63260 0.00430 0.05800
H 	H 	0.52210 0.70170 0.05740 0.06000
H 	H 	0.34610 0.96410 0.06300 0.05900
H 	H 	0.30290 0.05290 0.01120 0.05600
H 	H 	0.41980 0.82580 0.74080 0.09300
H 	H 	0.45610 0.86070 0.67600 0.00500
H 	H 	0.66860 0.00600 0.74380 -0.00900
H 	H 	0.63590 0.96870 0.80920 0.08900
H 	H 	0.58230 0.55070 0.89140 0.10400
H 	H 	0.67890 0.45590 0.87590 -0.03000
H 	H 	0.86340 0.61960 0.95860 -0.00400
H 	H 	0.76450 0.71250 0.97180 0.10700
H 	H 	0.32630 0.72430 0.05350 0.12300
H 	H 	0.29920 0.71100 0.12210 -0.05500
H 	H 	0.47680 0.90440 0.17910 -0.02400
H 	H 	0.50990 0.91910 0.11200 0.12200
H 	H 	0.17430 0.99010 0.94210 0.08200
H 	H 	0.07580 0.08480 0.93610 -0.00100
H 	H 	0.24680 0.24800 0.89970 0.01100
H 	H 	0.34540 0.15320 0.90560 0.08500
H 	H 	0.99500 0.19100 0.93550 0.16700
H 	H 	0.06230 0.97370 0.66880 0.05200
H 	H 	0.14790 0.91010 0.61720 0.06300
H 	H 	0.35880 0.68480 0.61420 0.05900
H 	H 	0.41530 0.59990 0.66470 0.05600
H 	H 	0.92110 0.89670 0.71100 0.07600
H 	H 	0.82250 0.99390 0.71050 0.02200
H 	H 	0.19270 0.71930 0.56110 0.09100
H 	H 	0.21530 0.76970 0.49680 0.00800
H 	H 	0.38090 0.96470 0.56930 0.01100
H 	H 	0.35150 0.92250 0.63230 0.08600
H 	H 	0.36200 0.47880 0.70370 0.12400
H 	H 	0.45730 0.38010 0.70240 -0.03200
H 	H 	0.01840 0.28460 0.33600 0.06200
H 	H 	0.96370 0.37570 0.28660 0.05500
H 	H 	0.79850 0.64330 0.30700 0.05900
H 	H 	0.70600 0.69080 0.35720 0.05700
H 	H 	0.63260 0.60260 0.50430 0.05800
H 	H 	0.70170 0.52210 0.55740 0.06100
H 	H 	0.96410 0.34610 0.56300 0.05900
H 	H 	0.05290 0.30290 0.51120 0.05600
H 	H 	0.82580 0.41980 0.24080 0.09300
H 	H 	0.86070 0.45610 0.17600 0.00500
H 	H 	0.00600 0.66860 0.24380 -0.01000
H 	H 	0.96870 0.63590 0.30920 0.08900
H 	H 	0.55070 0.58230 0.39140 0.10400
H 	H 	0.45590 0.67890 0.37590 -0.03000
H 	H 	0.61960 0.86340 0.45860 -0.00400
H 	H 	0.71250 0.76450 0.47180 0.10700
H 	H 	0.72430 0.32630 0.55350 0.12300
H 	H 	0.71100 0.29920 0.62210 -0.05500
H 	H 	0.90440 0.47680 0.67910 -0.02500
H 	H 	0.91910 0.50990 0.61200 0.12200
H 	H 	0.99010 0.17430 0.44210 0.08200
H 	H 	0.08480 0.07580 0.43610 -0.00100
H 	H 	0.24800 0.24680 0.39970 0.01100
H 	H 	0.15320 0.34540 0.40560 0.08500
H 	H 	0.19100 0.99500 0.43550 0.16800
H 	H 	0.97370 0.06230 0.16880 0.05200
H 	H 	0.91010 0.14790 0.11720 0.06300
H 	H 	0.68480 0.35880 0.11420 0.05900
H 	H 	0.59990 0.41530 0.16470 0.05600
H 	H 	0.89670 0.92110 0.21100 0.07600
H 	H 	0.99390 0.82250 0.21050 0.02300
H 	H 	0.71930 0.19270 0.06110 0.09100
H 	H 	0.76970 0.21530 0.99680 0.00700
H 	H 	0.96470 0.38090 0.06930 0.01200
H 	H 	0.92250 0.35150 0.13230 0.08600
H 	H 	0.47880 0.36200 0.20370 0.12400
H 	H 	0.38010 0.45730 0.20240 -0.03300
H 	H 	0.71540 0.98160 0.16400 0.06200
H 	H 	0.62430 0.03630 0.21340 0.05500
H 	H 	0.35670 0.20150 0.19300 0.05900
H 	H 	0.30920 0.29400 0.14280 0.05700
H 	H 	0.39740 0.36740 0.99570 0.05800
H 	H 	0.47790 0.29830 0.94260 0.06000
H 	H 	0.65390 0.03590 0.93700 0.05900
H 	H 	0.69710 0.94710 0.98880 0.05600
H 	H 	0.58020 0.17420 0.25920 0.09300
H 	H 	0.54390 0.13930 0.32400 0.00500
H 	H 	0.33140 0.99400 0.25620 -0.00900
H 	H 	0.36410 0.03130 0.19080 0.08900
H 	H 	0.41770 0.44930 0.10860 0.10400
H 	H 	0.32110 0.54410 0.12410 -0.03000
H 	H 	0.13660 0.38040 0.04140 -0.00400
H 	H 	0.23550 0.28750 0.02820 0.10700
H 	H 	0.67370 0.27570 0.94650 0.12300
H 	H 	0.70080 0.28900 0.87790 -0.05500
H 	H 	0.52320 0.09560 0.82090 -0.02400
H 	H 	0.49010 0.08090 0.88800 0.12200
H 	H 	0.82570 0.00990 0.05790 0.08200
H 	H 	0.92420 0.91520 0.06390 -0.00100
H 	H 	0.75320 0.75200 0.10030 0.01100
H 	H 	0.65460 0.84680 0.09440 0.08500
H 	H 	0.00500 0.80900 0.06450 0.16700
H 	H 	0.93770 0.02630 0.33120 0.05200
H 	H 	0.85210 0.08990 0.38280 0.06300
H 	H 	0.64120 0.31520 0.38580 0.05900
H 	H 	0.58470 0.40010 0.33530 0.05600
H 	H 	0.07890 0.10330 0.28900 0.07600
H 	H 	0.17750 0.00610 0.28950 0.02200
H 	H 	0.80730 0.28070 0.43890 0.09100
H 	H 	0.78470 0.23030 0.50320 0.00800
H 	H 	0.61910 0.03530 0.43070 0.01100
H 	H 	0.64850 0.07750 0.36770 0.08600
H 	H 	0.63800 0.52120 0.29630 0.12400
H 	H 	0.54270 0.61990 0.29760 -0.03200
Pt	Pt	0.14396 0.52832 0.57205 0.40600
Pt	Pt	0.47168 0.85604 0.92795 0.40600
Pt	Pt	0.85604 0.47168 0.42795 0.40600
Pt	Pt	0.52832 0.14396 0.07205 0.40600
Pt	Pt	0.22725 0.77275 0.75000 0.40300
Pt	Pt	0.77275 0.22725 0.25000 0.40300
C 	C 	0.03080 0.64220 0.61430 0.10000
C 	C 	0.01160 0.66960 0.65640 -0.08300
C 	C 	0.04240 0.62100 0.68360 -0.08400
C 	C 	0.08630 0.56270 0.65970 0.10700
C 	C 	0.12030 0.49710 0.67540 -0.13000
C 	C 	0.16880 0.44420 0.65320 0.10400
C 	C 	0.20860 0.37860 0.66730 -0.08600
C 	C 	0.25820 0.35120 0.63970 -0.08600
C 	C 	0.24730 0.39710 0.60470 0.11300
C 	C 	0.29060 0.39020 0.57000 -0.14600
C 	C 	0.27620 0.43400 0.53440 0.11200
C 	C 	0.32090 0.42750 0.49880 -0.08100
C 	C 	0.28400 0.47240 0.47020 -0.09000
C 	C 	0.21970 0.50990 0.48900 0.11800
C 	C 	0.16490 0.55930 0.46820 -0.15300
C 	C 	0.10150 0.59350 0.48650 0.11300
C 	C 	0.04050 0.64230 0.46600 -0.08900
C 	C 	0.99390 0.66730 0.49430 -0.07400
C 	C 	0.02430 0.64270 0.53500 0.09500
C 	C 	0.00050 0.67070 0.57540 -0.12000
C 	C 	0.10350 0.47650 0.71890 0.13300
C 	C 	0.13720 0.53000 0.75820 -0.18300
C 	C 	0.11520 0.50840 0.79650 0.09900
C 	C 	0.06040 0.43820 0.79570 -0.19100
C 	C 	0.02960 0.38240 0.75680 0.11100
C 	C 	0.05180 0.40200 0.71790 -0.17800
C 	C 	0.03130 0.42290 0.83730 0.40800
C 	C 	0.35540 0.33180 0.57200 0.17500
C 	C 	0.43330 0.35930 0.59670 -0.22500
C 	C 	0.49120 0.30200 0.60490 0.14200
C 	C 	0.47060 0.21940 0.58530 -0.24000
C 	C 	0.39460 0.19360 0.55640 0.12900
C 	C 	0.33820 0.25240 0.54930 -0.22300
C 	C 	0.52770 0.15730 0.59510 0.45000
C 	C 	0.17630 0.57630 0.42420 0.18700
C 	C 	0.23900 0.64180 0.42090 -0.25600
C 	C 	0.24580 0.65820 0.38020 0.20800
C 	C 	0.19320 0.61620 0.34280 -0.30600
C 	C 	0.13270 0.55370 0.34670 0.19500
C 	C 	0.12380 0.53380 0.38650 -0.26100
C 	C 	0.19820 0.63820 0.29910 0.54800
C 	C 	0.93730 0.73090 0.57560 0.11900
C 	C 	0.95760 0.81100 0.56653 -0.15700
C 	C 	0.90130 0.86950 0.57005 0.07400
C 	C 	0.82470 0.84790 0.58265 -0.14700
C 	C 	0.80434 0.76794 0.59173 0.07100
C 	C 	0.86070 0.70930 0.58820 -0.15900
C 	C 	0.76190 0.90930 0.58929 0.37100
C 	C 	0.10216 0.88084 0.78682 0.09600
C 	C 	0.06606 0.89994 0.82618 -0.06800
C 	C 	0.10100 0.85280 0.85410 -0.09600
C 	C 	0.15630 0.80530 0.83420 0.11700
C 	C 	0.20360 0.74900 0.85350 -0.13100
C 	C 	0.26400 0.70700 0.83640 0.10200
C 	C 	0.31490 0.65270 0.85710 -0.08200
C 	C 	0.36010 0.62210 0.82970 -0.07600
C 	C 	0.34000 0.65460 0.78770 0.11200
C 	C 	0.04710 0.06170 0.77330 -0.12400
C 	C 	0.98930 0.12110 0.77370 0.04400
C 	C 	0.18200 0.73220 0.89650 0.12700
C 	C 	0.22960 0.77100 0.93690 -0.17500
C 	C 	0.20020 0.75540 0.97530 0.09300
C 	C 	0.12940 0.69900 0.97330 -0.18000
C 	C 	0.08420 0.65860 0.93270 0.10000
C 	C 	0.11000 0.67600 0.89550 -0.17100
C 	C 	0.10130 0.67790 0.01590 0.50500
C 	C 	0.50810 0.58470 0.77700 -0.27000
C 	C 	0.56720 0.52800 0.77780 0.18100
C 	C 	0.35780 0.96920 0.88570 0.10000
C 	C 	0.33040 0.98840 0.84360 -0.08300
C 	C 	0.37900 0.95760 0.81640 -0.08400
C 	C 	0.43730 0.91370 0.84030 0.10700
C 	C 	0.50290 0.87970 0.82460 -0.13000
C 	C 	0.55580 0.83120 0.84680 0.10400
C 	C 	0.62140 0.79140 0.83270 -0.08600
C 	C 	0.64880 0.74180 0.86030 -0.08600
C 	C 	0.60290 0.75270 0.89530 0.11300
C 	C 	0.60980 0.70940 0.93000 -0.14700
C 	C 	0.56600 0.72380 0.96560 0.11200
C 	C 	0.57250 0.67910 0.00120 -0.08200
C 	C 	0.52760 0.71600 0.02980 -0.08900
C 	C 	0.49010 0.78030 0.01100 0.11800
C 	C 	0.44070 0.83510 0.03180 -0.15200
C 	C 	0.40650 0.89850 0.01350 0.11300
C 	C 	0.35770 0.95950 0.03400 -0.08900
C 	C 	0.33270 0.00610 0.00570 -0.07400
C 	C 	0.35730 0.97570 0.96500 0.09500
C 	C 	0.32930 0.99950 0.92460 -0.12000
C 	C 	0.52350 0.89650 0.78110 0.13300
C 	C 	0.47000 0.86280 0.74180 -0.18300
C 	C 	0.49160 0.88480 0.70350 0.09900
C 	C 	0.56180 0.93960 0.70430 -0.19100
C 	C 	0.61760 0.97040 0.74320 0.10900
C 	C 	0.59800 0.94820 0.78210 -0.17700
C 	C 	0.57710 0.96870 0.66270 0.40700
C 	C 	0.66820 0.64460 0.92800 0.17500
C 	C 	0.64070 0.56670 0.90330 -0.22500
C 	C 	0.69800 0.50880 0.89510 0.14200
C 	C 	0.78060 0.52940 0.91470 -0.24000
C 	C 	0.80640 0.60540 0.94360 0.12900
C 	C 	0.74760 0.66180 0.95070 -0.22300
C 	C 	0.84270 0.47230 0.90490 0.45000
C 	C 	0.42370 0.82370 0.07580 0.18700
C 	C 	0.35820 0.76100 0.07910 -0.25500
C 	C 	0.34180 0.75420 0.11980 0.20700
C 	C 	0.38380 0.80680 0.15720 -0.30600
C 	C 	0.44630 0.86730 0.15330 0.19400
C 	C 	0.46620 0.87620 0.11350 -0.26100
C 	C 	0.36180 0.80180 0.20090 0.54800
C 	C 	0.26910 0.06270 0.92440 0.11900
C 	C 	0.18900 0.04240 0.93347 -0.15800
C 	C 	0.13050 0.09870 0.92995 0.07400
C 	C 	0.15210 0.17530 0.91735 -0.14700
C 	C 	0.23206 0.19566 0.90827 0.07100
C 	C 	0.29070 0.13930 0.91180 -0.15900
C 	C 	0.09070 0.23810 0.91071 0.37100
C 	C 	0.11916 0.89784 0.71318 0.09600
C 	C 	0.10006 0.93394 0.67382 -0.06800
C 	C 	0.14720 0.89900 0.64590 -0.09600
C 	C 	0.19470 0.84370 0.66580 0.11700
C 	C 	0.25100 0.79640 0.64650 -0.13000
C 	C 	0.29300 0.73600 0.66360 0.10200
C 	C 	0.34730 0.68510 0.64290 -0.08200
C 	C 	0.37790 0.63990 0.67030 -0.07600
C 	C 	0.34540 0.66000 0.71230 0.11200
C 	C 	0.93830 0.95290 0.72670 -0.12600
C 	C 	0.87890 0.01070 0.72630 0.04600
C 	C 	0.26780 0.81800 0.60350 0.12700
C 	C 	0.22900 0.77040 0.56310 -0.17400
C 	C 	0.24460 0.79980 0.52470 0.09100
C 	C 	0.30100 0.87060 0.52670 -0.18100
C 	C 	0.34140 0.91580 0.56730 0.10000
C 	C 	0.32400 0.89000 0.60450 -0.17100
C 	C 	0.32210 0.89870 0.48410 0.50600
C 	C 	0.41530 0.49190 0.72300 -0.27000
C 	C 	0.47200 0.43280 0.72220 0.18100
C 	C 	0.96920 0.35780 0.38570 0.10000
C 	C 	0.98840 0.33040 0.34360 -0.08300
C 	C 	0.95760 0.37900 0.31640 -0.08400
C 	C 	0.91370 0.43730 0.34030 0.10700
C 	C 	0.87970 0.50290 0.32460 -0.13000
C 	C 	0.83120 0.55580 0.34680 0.10400
C 	C 	0.79140 0.62140 0.33270 -0.08600
C 	C 	0.74180 0.64880 0.36030 -0.08600
C 	C 	0.75270 0.60290 0.39530 0.11300
C 	C 	0.70940 0.60980 0.43000 -0.14600
C 	C 	0.72380 0.56600 0.46560 0.11200
C 	C 	0.67910 0.57250 0.50120 -0.08100
C 	C 	0.71600 0.52760 0.52980 -0.09000
C 	C 	0.78030 0.49010 0.51100 0.11800
C 	C 	0.83510 0.44070 0.53180 -0.15300
C 	C 	0.89850 0.40650 0.51350 0.11300
C 	C 	0.95950 0.35770 0.53400 -0.08900
C 	C 	0.00610 0.33270 0.50570 -0.07400
C 	C 	0.97570 0.35730 0.46500 0.09500
C 	C 	0.99950 0.32930 0.42460 -0.12000
C 	C 	0.89650 0.52350 0.28110 0.13300
C 	C 	0.86280 0.47000 0.24180 -0.18300
C 	C 	0.88480 0.49160 0.20350 0.09900
C 	C 	0.93960 0.56180 0.20430 -0.19100
C 	C 	0.97040 0.61760 0.24320 0.11100
C 	C 	0.94820 0.59800 0.28210 -0.17800
C 	C 	0.96870 0.57710 0.16270 0.40800
C 	C 	0.64460 0.66820 0.42800 0.17500
C 	C 	0.56670 0.64070 0.40330 -0.22500
C 	C 	0.50880 0.69800 0.39510 0.14200
C 	C 	0.52940 0.78060 0.41470 -0.24000
C 	C 	0.60540 0.80640 0.44360 0.12900
C 	C 	0.66180 0.74760 0.45070 -0.22300
C 	C 	0.47230 0.84270 0.40490 0.45000
C 	C 	0.82370 0.42370 0.57580 0.18700
C 	C 	0.76100 0.35820 0.57910 -0.25600
C 	C 	0.75420 0.34180 0.61980 0.20800
C 	C 	0.80680 0.38380 0.65720 -0.30600
C 	C 	0.86730 0.44630 0.65330 0.19500
C 	C 	0.87620 0.46620 0.61350 -0.26100
C 	C 	0.80180 0.36180 0.70090 0.54800
C 	C 	0.06270 0.26910 0.42440 0.11900
C 	C 	0.04240 0.18900 0.43347 -0.15700
C 	C 	0.09870 0.13050 0.42995 0.07400
C 	C 	0.17530 0.15210 0.41735 -0.14700
C 	C 	0.19566 0.23206 0.40827 0.07100
C 	C 	0.13930 0.29070 0.41180 -0.15900
C 	C 	0.23810 0.09070 0.41071 0.37100
C 	C 	0.89784 0.11916 0.21318 0.09600
C 	C 	0.93394 0.10006 0.17382 -0.06800
C 	C 	0.89900 0.14720 0.14590 -0.09600
C 	C 	0.84370 0.19470 0.16580 0.11700
C 	C 	0.79640 0.25100 0.14650 -0.13100
C 	C 	0.73600 0.29300 0.16360 0.10200
C 	C 	0.68510 0.34730 0.14290 -0.08200
C 	C 	0.63990 0.37790 0.17030 -0.07600
C 	C 	0.66000 0.34540 0.21230 0.11200
C 	C 	0.95290 0.93830 0.22670 -0.12400
C 	C 	0.01070 0.87890 0.22630 0.04400
C 	C 	0.81800 0.26780 0.10350 0.12700
C 	C 	0.77040 0.22900 0.06310 -0.17500
C 	C 	0.79980 0.24460 0.02470 0.09300
C 	C 	0.87060 0.30100 0.02670 -0.18000
C 	C 	0.91580 0.34140 0.06730 0.10000
C 	C 	0.89000 0.32400 0.10450 -0.17100
C 	C 	0.89870 0.32210 0.98410 0.50500
C 	C 	0.49190 0.41530 0.22300 -0.27000
C 	C 	0.43280 0.47200 0.22220 0.18100
C 	C 	0.64220 0.03080 0.11430 0.10000
C 	C 	0.66960 0.01160 0.15640 -0.08300
C 	C 	0.62100 0.04240 0.18360 -0.08400
C 	C 	0.56270 0.08630 0.15970 0.10700
C 	C 	0.49710 0.12030 0.17540 -0.13000
C 	C 	0.44420 0.16880 0.15320 0.10400
C 	C 	0.37860 0.20860 0.16730 -0.08600
C 	C 	0.35120 0.25820 0.13970 -0.08600
C 	C 	0.39710 0.24730 0.10470 0.11300
C 	C 	0.39020 0.29060 0.07000 -0.14700
C 	C 	0.43400 0.27620 0.03440 0.11200
C 	C 	0.42750 0.32090 0.99880 -0.08200
C 	C 	0.47240 0.28400 0.97020 -0.08900
C 	C 	0.50990 0.21970 0.98900 0.11800
C 	C 	0.55930 0.16490 0.96820 -0.15200
C 	C 	0.59350 0.10150 0.98650 0.11300
C 	C 	0.64230 0.04050 0.96600 -0.08900
C 	C 	0.66730 0.99390 0.99430 -0.07400
C 	C 	0.64270 0.02430 0.03500 0.09500
C 	C 	0.67070 0.00050 0.07540 -0.12000
C 	C 	0.47650 0.10350 0.21890 0.13300
C 	C 	0.53000 0.13720 0.25820 -0.18300
C 	C 	0.50840 0.11520 0.29650 0.09900
C 	C 	0.43820 0.06040 0.29570 -0.19100
C 	C 	0.38240 0.02960 0.25680 0.10900
C 	C 	0.40200 0.05180 0.21790 -0.17700
C 	C 	0.42290 0.03130 0.33730 0.40700
C 	C 	0.33180 0.35540 0.07200 0.17500
C 	C 	0.35930 0.43330 0.09670 -0.22500
C 	C 	0.30200 0.49120 0.10490 0.14200
C 	C 	0.21940 0.47060 0.08530 -0.24000
C 	C 	0.19360 0.39460 0.05640 0.12900
C 	C 	0.25240 0.33820 0.04930 -0.22300
C 	C 	0.15730 0.52770 0.09510 0.45000
C 	C 	0.57630 0.17630 0.92420 0.18700
C 	C 	0.64180 0.23900 0.92090 -0.25500
C 	C 	0.65820 0.24580 0.88020 0.20700
C 	C 	0.61620 0.19320 0.84280 -0.30600
C 	C 	0.55370 0.13270 0.84670 0.19400
C 	C 	0.53380 0.12380 0.88650 -0.26100
C 	C 	0.63820 0.19820 0.79910 0.54800
C 	C 	0.73090 0.93730 0.07560 0.11900
C 	C 	0.81100 0.95760 0.06653 -0.15800
C 	C 	0.86950 0.90130 0.07005 0.07400
C 	C 	0.84790 0.82470 0.08265 -0.14700
C 	C 	0.76794 0.80434 0.09173 0.07100
C 	C 	0.70930 0.86070 0.08820 -0.15900
C 	C 	0.90930 0.76190 0.08929 0.37100
C 	C 	0.88084 0.10216 0.28682 0.09600
C 	C 	0.89994 0.06606 0.32618 -0.06800
C 	C 	0.85280 0.10100 0.35410 -0.09600
C 	C 	0.80530 0.15630 0.33420 0.11700
C 	C 	0.74900 0.20360 0.35350 -0.13000
C 	C 	0.70700 0.26400 0.33640 0.10200
C 	C 	0.65270 0.31490 0.35710 -0.08200
C 	C 	0.62210 0.36010 0.32970 -0.07600
C 	C 	0.65460 0.34000 0.28770 0.11200
C 	C 	0.06170 0.04710 0.27330 -0.12600
C 	C 	0.12110 0.98930 0.27370 0.04600
C 	C 	0.73220 0.18200 0.39650 0.12700
C 	C 	0.77100 0.22960 0.43690 -0.17400
C 	C 	0.75540 0.20020 0.47530 0.09100
C 	C 	0.69900 0.12940 0.47330 -0.18100
C 	C 	0.65860 0.08420 0.43270 0.10000
C 	C 	0.67600 0.11000 0.39550 -0.17100
C 	C 	0.67790 0.10130 0.51590 0.50600
C 	C 	0.58470 0.50810 0.27700 -0.27000
C 	C 	0.52800 0.56720 0.27780 0.18100
C 	C 	0.08471 0.91529 0.75000 -0.11400
C 	C 	0.36980 0.63020 0.75000 -0.15600
C 	C 	0.02320 0.97680 0.75000 0.08400
C 	C 	0.90530 0.09470 0.75000 -0.16600
C 	C 	0.84210 0.15790 0.75000 0.48400
C 	C 	0.43450 0.56550 0.75000 0.21800
C 	C 	0.54900 0.45100 0.75000 -0.27100
C 	C 	0.61150 0.38850 0.75000 0.53200
C 	C 	0.91529 0.08471 0.25000 -0.11400
C 	C 	0.63020 0.36980 0.25000 -0.15600
C 	C 	0.97680 0.02320 0.25000 0.08400
C 	C 	0.09470 0.90530 0.25000 -0.16600
C 	C 	0.15790 0.84210 0.25000 0.48400
C 	C 	0.56550 0.43450 0.25000 0.21800
C 	C 	0.45100 0.54900 0.25000 -0.27100
C 	C 	0.38850 0.61150 0.25000 0.53200
N 	N 	0.08170 0.57970 0.61790 -0.17900
N 	N 	0.19130 0.45330 0.61300 -0.17700
N 	N 	0.21610 0.48590 0.52820 -0.18200
N 	N 	0.08830 0.59330 0.52880 -0.17900
N 	N 	0.15970 0.82390 0.79410 -0.17800
N 	N 	0.28100 0.70760 0.79360 -0.18000
N 	N 	0.42030 0.91830 0.88210 -0.17900
N 	N 	0.54670 0.80870 0.88700 -0.17700
N 	N 	0.51410 0.78390 0.97180 -0.18200
N 	N 	0.40670 0.91170 0.97120 -0.17900
N 	N 	0.17610 0.84030 0.70590 -0.17800
N 	N 	0.29240 0.71900 0.70640 -0.18000
N 	N 	0.91830 0.42030 0.38210 -0.17900
N 	N 	0.80870 0.54670 0.38700 -0.17700
N 	N 	0.78390 0.51410 0.47180 -0.18200
N 	N 	0.91170 0.40670 0.47120 -0.17900
N 	N 	0.84030 0.17610 0.20590 -0.17800
N 	N 	0.71900 0.29240 0.20640 -0.18000
N 	N 	0.57970 0.08170 0.11790 -0.17900
N 	N 	0.45330 0.19130 0.11300 -0.17700
N 	N 	0.48590 0.21610 0.02820 -0.18200
N 	N 	0.59330 0.08830 0.02880 -0.17900
N 	N 	0.82390 0.15970 0.29410 -0.17800
N 	N 	0.70760 0.28100 0.29360 -0.18000
O 	O 	0.96110 0.37150 0.83238 -0.66200
O 	O 	0.07120 0.45740 0.87430 -0.43500
O 	O 	0.50940 0.08200 0.57540 -0.50500
O 	O 	0.59570 0.18050 0.62299 -0.63400
O 	O 	0.15190 0.59610 0.26590 -0.56000
O 	O 	0.24990 0.70070 0.29613 -0.65100
O 	O 	0.72640 0.91600 0.61768 -0.47500
O 	O 	0.75780 0.96280 0.55982 -0.55500
O 	O 	0.86950 0.23130 0.77025 -0.55400
O 	O 	0.14120 0.70640 0.04840 -0.51000
O 	O 	0.03360 0.63380 0.01000 -0.51000
O 	O 	0.68370 0.41090 0.77390 -0.56000
O 	O 	0.62850 0.03890 0.66762 -0.66200
O 	O 	0.54260 0.92880 0.62570 -0.43500
O 	O 	0.91800 0.49060 0.92460 -0.50500
O 	O 	0.81950 0.40430 0.87701 -0.63400
O 	O 	0.40390 0.84810 0.23410 -0.56000
O 	O 	0.29930 0.75010 0.20387 -0.65100
O 	O 	0.08400 0.27360 0.88232 -0.47500
O 	O 	0.03720 0.24220 0.94018 -0.55300
O 	O 	0.76870 0.13050 0.72975 -0.55400
O 	O 	0.29360 0.85880 0.45160 -0.51000
O 	O 	0.36620 0.96640 0.49000 -0.51000
O 	O 	0.58910 0.31630 0.72610 -0.56000
O 	O 	0.03890 0.62850 0.16762 -0.66200
O 	O 	0.92880 0.54260 0.12570 -0.43500
O 	O 	0.49060 0.91800 0.42460 -0.50500
O 	O 	0.40430 0.81950 0.37701 -0.63400
O 	O 	0.84810 0.40390 0.73410 -0.56000
O 	O 	0.75010 0.29930 0.70387 -0.65100
O 	O 	0.27360 0.08400 0.38232 -0.47500
O 	O 	0.24220 0.03720 0.44018 -0.55500
O 	O 	0.13050 0.76870 0.22975 -0.55400
O 	O 	0.85880 0.29360 0.95160 -0.51000
O 	O 	0.96640 0.36620 0.99000 -0.51000
O 	O 	0.31630 0.58910 0.22610 -0.56000
O 	O 	0.37150 0.96110 0.33238 -0.66200
O 	O 	0.45740 0.07120 0.37430 -0.43500
O 	O 	0.08200 0.50940 0.07540 -0.50500
O 	O 	0.18050 0.59570 0.12299 -0.63400
O 	O 	0.59610 0.15190 0.76590 -0.56000
O 	O 	0.70070 0.24990 0.79613 -0.65100
O 	O 	0.91600 0.72640 0.11768 -0.47500
O 	O 	0.96280 0.75780 0.05982 -0.55300
O 	O 	0.23130 0.86950 0.27025 -0.55400
O 	O 	0.70640 0.14120 0.54840 -0.51000
O 	O 	0.63380 0.03360 0.51000 -0.51000
O 	O 	0.41090 0.68370 0.27390 -0.56000
