data_crystal

_cell_length_a 13.46640
_cell_length_b 14.44490
_cell_length_c 14.44490
_cell_angle_alpha 69.19740
_cell_angle_beta  71.89540
_cell_angle_gamma 108.10500

_symmetry_space_group_name_	'P 1'
_symmetry_space_group_name_H-M	'P 1'

loop_
_symmetry_equiv_pos_as_xyz
  x,y,z

loop_
_atom_site_label
_atom_site_type_symbol
_atom_site_fract_x
_atom_site_fract_y
_atom_site_fract_z
_atom_site_charge
Ga	Ga	0.14640 0.17390 0.37320 2.07100
Ga	Ga	0.19250 0.86420 0.54320 2.05500
Ga	Ga	0.51960 0.37320 0.45290 2.07100
Ga	Ga	0.73570 0.54320 0.59260 2.05500
Ga	Ga	0.97250 0.45290 0.17390 2.07000
Ga	Ga	0.32830 0.59260 0.86420 2.05400
Ga	Ga	0.85360 0.82610 0.62680 2.07000
Ga	Ga	0.80750 0.13580 0.45680 2.05400
Ga	Ga	0.48040 0.62680 0.54710 2.07000
Ga	Ga	0.26430 0.45680 0.40740 2.05400
Ga	Ga	0.02750 0.54710 0.82610 2.06900
Ga	Ga	0.67170 0.40740 0.13580 2.05300
P 	P 	0.06390 0.94660 0.39910 0.56800
P 	P 	0.06160 0.35230 0.33350 0.65300
P 	P 	0.46300 0.39910 0.65430 0.57000
P 	P 	0.39510 0.33350 0.31420 0.65000
P 	P 	0.11730 0.65430 0.94660 0.56200
P 	P 	0.70930 0.31420 0.35230 0.65000
P 	P 	0.93610 0.05340 0.60090 0.56800
P 	P 	0.93840 0.64770 0.66650 0.65300
P 	P 	0.53700 0.60090 0.34570 0.57000
P 	P 	0.60490 0.66650 0.68580 0.65000
P 	P 	0.88270 0.34570 0.05340 0.56200
P 	P 	0.29070 0.68580 0.64770 0.65000
H 	H 	0.32510 0.84740 0.39110 0.16200
H 	H 	0.25570 0.88740 0.34980 0.12900
H 	H 	0.30790 0.08230 0.45860 0.09000
H 	H 	0.11190 0.81720 0.75000 0.13700
H 	H 	0.04960 0.86940 0.70140 0.11100
H 	H 	0.46330 0.01600 0.26720 0.05000
H 	H 	0.36970 0.06750 0.29140 0.03200
H 	H 	0.37950 0.09350 0.57540 0.05700
H 	H 	0.35360 0.96870 0.62550 0.05100
H 	H 	0.49840 0.11350 0.36830 0.07900
H 	H 	0.45710 0.97740 0.45000 0.04300
H 	H 	0.19570 0.97090 0.74200 0.08000
H 	H 	0.17000 0.03530 0.64170 0.06300
H 	H 	0.71620 0.39110 0.76150 0.16200
H 	H 	0.60550 0.34980 0.76280 0.12900
H 	H 	0.76650 0.45860 0.45910 0.08900
H 	H 	0.86190 0.75000 0.43280 0.13800
H 	H 	0.75100 0.70140 0.42920 0.11400
H 	H 	0.73050 0.26720 0.71680 0.05100
H 	H 	0.66110 0.29140 0.64110 0.03200
H 	H 	0.95490 0.57540 0.33110 0.05900
H 	H 	0.97910 0.62550 0.40580 0.05500
H 	H 	0.86670 0.36830 0.51820 0.07900
H 	H 	0.90710 0.45000 0.57260 0.04400
H 	H 	0.93770 0.74200 0.28710 0.07800
H 	H 	0.81170 0.64170 0.32300 0.05900
H 	H 	0.47770 0.76150 0.84740 0.16200
H 	H 	0.36830 0.76280 0.88740 0.12800
H 	H 	0.22560 0.45910 0.08230 0.09100
H 	H 	0.29470 0.43280 0.81720 0.13700
H 	H 	0.18020 0.42920 0.86940 0.11200
H 	H 	0.44730 0.71680 0.01600 0.05000
H 	H 	0.30220 0.64110 0.06750 0.03300
H 	H 	0.28600 0.33110 0.09350 0.05300
H 	H 	0.38490 0.40580 0.96870 0.04600
H 	H 	0.38490 0.51820 0.11350 0.07800
H 	H 	0.47970 0.57260 0.97740 0.04200
H 	H 	0.22480 0.28710 0.97090 0.08700
H 	H 	0.13470 0.32300 0.03530 0.07300
H 	H 	0.67490 0.15260 0.60890 0.16200
H 	H 	0.74430 0.11260 0.65020 0.12900
H 	H 	0.69210 0.91770 0.54140 0.09000
H 	H 	0.88810 0.18280 0.25000 0.13700
H 	H 	0.95040 0.13060 0.29860 0.11100
H 	H 	0.53670 0.98400 0.73280 0.05000
H 	H 	0.63030 0.93250 0.70860 0.03200
H 	H 	0.62050 0.90650 0.42460 0.05700
H 	H 	0.64640 0.03130 0.37450 0.05100
H 	H 	0.50160 0.88650 0.63170 0.07900
H 	H 	0.54290 0.02260 0.55000 0.04300
H 	H 	0.80430 0.02910 0.25800 0.08000
H 	H 	0.83000 0.96470 0.35830 0.06300
H 	H 	0.28380 0.60890 0.23850 0.16200
H 	H 	0.39450 0.65020 0.23720 0.12900
H 	H 	0.23350 0.54140 0.54090 0.08900
H 	H 	0.13810 0.25000 0.56720 0.13800
H 	H 	0.24900 0.29860 0.57080 0.11400
H 	H 	0.26950 0.73280 0.28320 0.05100
H 	H 	0.33890 0.70860 0.35890 0.03200
H 	H 	0.04510 0.42460 0.66890 0.05900
H 	H 	0.02090 0.37450 0.59420 0.05500
H 	H 	0.13330 0.63170 0.48180 0.07900
H 	H 	0.09290 0.55000 0.42740 0.04400
H 	H 	0.06230 0.25800 0.71290 0.07800
H 	H 	0.18830 0.35830 0.67700 0.05900
H 	H 	0.52230 0.23850 0.15260 0.16200
H 	H 	0.63170 0.23720 0.11260 0.12800
H 	H 	0.77440 0.54090 0.91770 0.09100
H 	H 	0.70530 0.56720 0.18280 0.13700
H 	H 	0.81980 0.57080 0.13060 0.11200
H 	H 	0.55270 0.28320 0.98400 0.05000
H 	H 	0.69780 0.35890 0.93250 0.03300
H 	H 	0.71400 0.66890 0.90650 0.05300
H 	H 	0.61510 0.59420 0.03130 0.04600
H 	H 	0.61510 0.48180 0.88650 0.07800
H 	H 	0.52030 0.42740 0.02260 0.04200
H 	H 	0.77520 0.71290 0.02910 0.08700
H 	H 	0.86530 0.67700 0.96470 0.07300
C 	C 	0.39850 0.01010 0.32340 -0.06700
C 	C 	0.43250 0.03950 0.40320 -0.10900
C 	C 	0.32510 0.01990 0.59300 -0.10100
C 	C 	0.19960 0.98040 0.67350 -0.09900
C 	C 	0.72190 0.32340 0.66650 -0.06800
C 	C 	0.83570 0.40320 0.55730 -0.10900
C 	C 	0.91810 0.59300 0.38710 -0.11100
C 	C 	0.87310 0.67350 0.34610 -0.08800
C 	C 	0.38840 0.66650 0.01010 -0.06600
C 	C 	0.39300 0.55730 0.03950 -0.10700
C 	C 	0.30520 0.38710 0.01990 -0.08600
C 	C 	0.21920 0.34610 0.98040 -0.11900
C 	C 	0.60150 0.98990 0.67660 -0.06700
C 	C 	0.56750 0.96050 0.59680 -0.10900
C 	C 	0.67490 0.98010 0.40700 -0.10100
C 	C 	0.80040 0.01960 0.32650 -0.09900
C 	C 	0.27810 0.67660 0.33350 -0.06800
C 	C 	0.16430 0.59680 0.44270 -0.10900
C 	C 	0.08190 0.40700 0.61290 -0.11100
C 	C 	0.12690 0.32650 0.65390 -0.08800
C 	C 	0.61160 0.33350 0.98990 -0.06600
C 	C 	0.60700 0.44270 0.96050 -0.10700
C 	C 	0.69480 0.61290 0.98010 -0.08600
C 	C 	0.78080 0.65390 0.01960 -0.11900
N 	N 	0.29970 0.89370 0.38700 -0.45500
N 	N 	0.32510 0.01910 0.49200 -0.30600
N 	N 	0.12180 0.87270 0.68700 -0.43000
N 	N 	0.68670 0.38700 0.71930 -0.45500
N 	N 	0.81710 0.49200 0.48890 -0.30500
N 	N 	0.80880 0.68700 0.44030 -0.43200
N 	N 	0.40600 0.71930 0.89370 -0.45600
N 	N 	0.30600 0.48890 0.01910 -0.30700
N 	N 	0.24910 0.44030 0.87270 -0.42800
N 	N 	0.70030 0.10630 0.61300 -0.45500
N 	N 	0.67490 0.98090 0.50800 -0.30600
N 	N 	0.87820 0.12730 0.31300 -0.43000
N 	N 	0.31330 0.61300 0.28070 -0.45500
N 	N 	0.18290 0.50800 0.51110 -0.30500
N 	N 	0.19120 0.31300 0.55970 -0.43200
N 	N 	0.59400 0.28070 0.10630 -0.45600
N 	N 	0.69400 0.51110 0.98090 -0.30700
N 	N 	0.75090 0.55970 0.12730 -0.42800
O 	O 	0.11950 0.94660 0.47680 -0.70300
O 	O 	0.09060 0.07120 0.33200 -0.62600
O 	O 	0.92610 0.87360 0.47610 -0.65400
O 	O 	0.10670 0.90550 0.32200 -0.27900
O 	O 	0.11810 0.28550 0.29490 -0.68000
O 	O 	0.08150 0.44810 0.22440 -0.64200
O 	O 	0.11820 0.40150 0.39140 -0.59700
O 	O 	0.92840 0.27850 0.41030 -0.67800
O 	O 	0.59630 0.47680 0.57660 -0.70200
O 	O 	0.42260 0.33200 0.59680 -0.63000
O 	O 	0.40220 0.47610 0.65030 -0.65500
O 	O 	0.42870 0.32200 0.77250 -0.28100
O 	O 	0.41300 0.29490 0.41960 -0.68100
O 	O 	0.30590 0.22440 0.32750 -0.64400
O 	O 	0.50960 0.39140 0.20710 -0.59700
O 	O 	0.33870 0.41030 0.31120 -0.67500
O 	O 	0.17290 0.57660 0.94660 -0.70400
O 	O 	0.01940 0.59680 0.07120 -0.61900
O 	O 	0.05250 0.65030 0.87360 -0.65800
O 	O 	0.20120 0.77250 0.90550 -0.28300
O 	O 	0.83260 0.41960 0.28550 -0.68300
O 	O 	0.63340 0.32750 0.44810 -0.64400
O 	O 	0.71670 0.20710 0.40150 -0.59700
O 	O 	0.64990 0.31120 0.27850 -0.67500
O 	O 	0.88050 0.05340 0.52320 -0.70300
O 	O 	0.90940 0.92880 0.66800 -0.62600
O 	O 	0.07390 0.12640 0.52390 -0.65400
O 	O 	0.89330 0.09450 0.67800 -0.27900
O 	O 	0.88190 0.71450 0.70510 -0.68000
O 	O 	0.91850 0.55190 0.77560 -0.64200
O 	O 	0.88180 0.59850 0.60860 -0.59700
O 	O 	0.07160 0.72150 0.58970 -0.67800
O 	O 	0.40370 0.52320 0.42340 -0.70200
O 	O 	0.57740 0.66800 0.40320 -0.63000
O 	O 	0.59780 0.52390 0.34970 -0.65500
O 	O 	0.57130 0.67800 0.22750 -0.28100
O 	O 	0.58700 0.70510 0.58040 -0.68100
O 	O 	0.69410 0.77560 0.67250 -0.64400
O 	O 	0.49040 0.60860 0.79290 -0.59700
O 	O 	0.66130 0.58970 0.68880 -0.67500
O 	O 	0.82710 0.42340 0.05340 -0.70400
O 	O 	0.98060 0.40320 0.92880 -0.61900
O 	O 	0.94750 0.34970 0.12640 -0.65800
O 	O 	0.79880 0.22750 0.09450 -0.28300
O 	O 	0.16740 0.58040 0.71450 -0.68300
O 	O 	0.36660 0.67250 0.55190 -0.64400
O 	O 	0.28330 0.79290 0.59850 -0.59700
O 	O 	0.35010 0.68880 0.72150 -0.67500
