data_crystal

_cell_length_a 12.31110
_cell_length_b 20.01390
_cell_length_c 20.01390
_cell_angle_alpha 102.55200
_cell_angle_beta  95.12270
_cell_angle_gamma 95.12270

_symmetry_space_group_name_	'P 1'
_symmetry_space_group_name_H-M	'P 1'

loop_
_symmetry_equiv_pos_as_xyz
  x,y,z

loop_
_atom_site_label
_atom_site_type_symbol
_atom_site_fract_x
_atom_site_fract_y
_atom_site_fract_z
_atom_site_charge
Zn	Zn	0.40189 0.52985 0.01754 1.21300
Zn	Zn	0.09811 0.98246 0.47015 1.21100
Zn	Zn	0.79621 0.20835 0.94256 1.21400
Zn	Zn	0.29621 0.94256 0.20835 1.21400
Zn	Zn	0.59811 0.47015 0.98246 1.21300
Zn	Zn	0.90189 0.01754 0.52985 1.21100
Zn	Zn	0.70379 0.05744 0.79165 1.21400
Zn	Zn	0.20379 0.79165 0.05744 1.21400
H 	H 	0.21730 0.86200 0.61340 0.03600
H 	H 	0.16880 0.54540 0.95400 0.04200
H 	H 	0.97980 0.32800 0.96600 0.03200
H 	H 	0.84490 0.07050 0.67350 0.04100
H 	H 	0.39060 0.84700 0.29720 0.04000
H 	H 	0.41070 0.80980 0.88740 0.06900
H 	H 	0.96740 0.84230 0.90130 0.04800
H 	H 	0.56960 0.77870 0.30970 0.06600
H 	H 	0.28680 0.65360 0.99480 0.04700
H 	H 	0.65510 0.32650 0.92950 0.04200
H 	H 	0.33120 0.04600 0.45460 0.04100
H 	H 	0.26310 0.83310 0.29730 0.03100
H 	H 	0.03440 0.04250 0.75090 0.04100
H 	H 	0.78680 0.99480 0.65360 0.04900
H 	H 	0.54530 0.09650 0.52630 0.04400
H 	H 	0.23690 0.70270 0.16690 0.03100
H 	H 	0.28100 0.25390 0.95850 0.07100
H 	H 	0.76060 0.47340 0.87820 0.04500
H 	H 	0.71900 0.74610 0.04150 0.07100
H 	H 	0.23940 0.52660 0.12180 0.04500
H 	H 	0.55270 0.68010 0.20690 0.05700
H 	H 	0.15510 0.92950 0.32650 0.04100
H 	H 	0.93040 0.69030 0.22130 0.06700
H 	H 	0.22860 0.77990 0.81170 0.06400
H 	H 	0.58880 0.91040 0.20720 0.04600
H 	H 	0.10940 0.70280 0.15300 0.03900
H 	H 	0.50650 0.89130 0.40390 0.03900
H 	H 	0.02020 0.67200 0.03400 0.03200
H 	H 	0.41120 0.08960 0.79280 0.04600
H 	H 	0.47980 0.96600 0.32800 0.03300
H 	H 	0.46560 0.24910 0.95750 0.03700
H 	H 	0.52020 0.03400 0.67200 0.03300
H 	H 	0.08930 0.11260 0.19020 0.06600
H 	H 	0.65020 0.00370 0.49570 0.04000
H 	H 	0.68490 0.40350 0.85190 0.04400
H 	H 	0.73690 0.16690 0.70270 0.03100
H 	H 	0.71730 0.61340 0.86200 0.03600
H 	H 	0.00650 0.40390 0.89130 0.04300
H 	H 	0.28270 0.38660 0.13800 0.03600
H 	H 	0.26060 0.87820 0.47340 0.04400
H 	H 	0.59100 0.97280 0.65240 0.04100
H 	H 	0.71320 0.34640 0.00520 0.04700
H 	H 	0.53260 0.09870 0.15770 0.04400
H 	H 	0.76580 0.70050 0.80990 0.07000
H 	H 	0.91070 0.88740 0.80980 0.06600
H 	H 	0.73420 0.19010 0.29950 0.07000
H 	H 	0.73940 0.12180 0.52660 0.04400
H 	H 	0.05440 0.08510 0.30270 0.07000
H 	H 	0.17550 0.39210 0.86010 0.03300
H 	H 	0.76310 0.29730 0.83310 0.03100
H 	H 	0.45470 0.90350 0.47370 0.04400
H 	H 	0.23420 0.29950 0.19010 0.07000
H 	H 	0.66880 0.95400 0.54540 0.04100
H 	H 	0.04530 0.52630 0.09650 0.04500
H 	H 	0.82450 0.60790 0.13990 0.03300
H 	H 	0.43040 0.22130 0.69030 0.06600
H 	H 	0.44730 0.31990 0.79310 0.05700
H 	H 	0.32450 0.13990 0.60790 0.03400
H 	H 	0.91120 0.79280 0.08960 0.05000
H 	H 	0.46740 0.90130 0.84230 0.04400
H 	H 	0.99350 0.59610 0.10870 0.04300
H 	H 	0.94730 0.79310 0.31990 0.05800
H 	H 	0.78100 0.95850 0.25390 0.06900
H 	H 	0.84980 0.50430 0.99630 0.04000
H 	H 	0.05270 0.20690 0.68010 0.05800
H 	H 	0.95470 0.47370 0.90350 0.04500
H 	H 	0.83120 0.45460 0.04600 0.04200
H 	H 	0.03260 0.15770 0.09870 0.04800
H 	H 	0.58930 0.19020 0.11260 0.06900
H 	H 	0.26580 0.80990 0.70050 0.07000
H 	H 	0.94560 0.91490 0.69730 0.07000
H 	H 	0.49350 0.10870 0.59610 0.03900
H 	H 	0.60940 0.15300 0.70280 0.04000
H 	H 	0.15020 0.49570 0.00370 0.04000
H 	H 	0.31510 0.59650 0.14810 0.04400
H 	H 	0.96560 0.95750 0.24910 0.04100
H 	H 	0.44560 0.69730 0.91490 0.06600
H 	H 	0.53440 0.75090 0.04250 0.03700
H 	H 	0.90900 0.34760 0.02720 0.04200
H 	H 	0.18490 0.85190 0.40350 0.04400
H 	H 	0.09100 0.65240 0.97280 0.04200
H 	H 	0.55440 0.30270 0.08510 0.06600
H 	H 	0.72860 0.81170 0.77990 0.06300
H 	H 	0.27140 0.18830 0.22010 0.06300
H 	H 	0.77140 0.22010 0.18830 0.06400
H 	H 	0.34490 0.67350 0.07050 0.04200
H 	H 	0.21320 0.00520 0.34640 0.04900
H 	H 	0.67550 0.86010 0.39210 0.03400
H 	H 	0.78270 0.13800 0.38660 0.03600
H 	H 	0.34980 0.99630 0.50430 0.04000
H 	H 	0.81510 0.14810 0.59650 0.04400
H 	H 	0.06960 0.30970 0.77870 0.06700
H 	H 	0.21900 0.04150 0.74610 0.06900
H 	H 	0.40900 0.02720 0.34760 0.04100
H 	H 	0.89060 0.29720 0.84700 0.03900
H 	H 	0.08880 0.20720 0.91040 0.05000
C 	C 	0.00900 0.83923 0.86439 -0.00900
C 	C 	0.47550 0.81004 0.86688 -0.08500
C 	C 	0.97550 0.86688 0.81004 -0.07700
C 	C 	0.16580 0.80245 0.81129 -0.05900
C 	C 	0.87120 0.78988 0.31766 -0.03100
C 	C 	0.29820 0.29922 0.16858 -0.10200
C 	C 	0.57630 0.64744 0.89472 -0.09200
C 	C 	0.70880 0.82993 0.36007 0.02300
C 	C 	0.91630 0.35042 0.98000 -0.02500
C 	C 	0.36330 0.24477 0.16857 0.03800
C 	C 	0.61570 0.87771 0.17411 -0.02100
C 	C 	0.57730 0.16567 0.87285 0.40800
C 	C 	0.30760 0.26711 0.73709 0.02800
C 	C 	0.17640 0.16385 0.63675 -0.08800
C 	C 	0.60450 0.86508 0.80664 -0.06200
C 	C 	0.30650 0.22070 0.92536 -0.09800
C 	C 	0.73070 0.87682 0.17388 0.02400
C 	C 	0.14710 0.78342 0.92854 0.31500
C 	C 	0.05710 0.57417 0.09383 -0.01100
C 	C 	0.07630 0.89472 0.64744 -0.08900
C 	C 	0.26930 0.12318 0.82612 0.02400
C 	C 	0.64550 0.78080 0.31124 -0.09400
C 	C 	0.83870 0.45633 0.99853 -0.02200
C 	C 	0.35450 0.21920 0.68876 -0.09400
C 	C 	0.60940 0.58490 0.10628 0.38200
C 	C 	0.04390 0.12668 0.83164 -0.09900
C 	C 	0.23070 0.17388 0.87682 0.03000
C 	C 	0.12880 0.21012 0.68234 -0.03100
C 	C 	0.19350 0.07464 0.77930 -0.09100
C 	C 	0.88430 0.82589 0.12229 -0.02900
C 	C 	0.20180 0.83142 0.70078 -0.10200
C 	C 	0.66130 0.00147 0.54367 -0.02200
C 	C 	0.91650 0.92458 0.21824 0.02500
C 	C 	0.10940 0.10628 0.58490 0.38100
C 	C 	0.51060 0.69889 0.89457 -0.03300
C 	C 	0.98940 0.10543 0.30111 -0.03900
C 	C 	0.04690 0.93040 0.59060 0.38300
C 	C 	0.10450 0.80664 0.86508 -0.05800
C 	C 	0.82720 0.13765 0.35135 0.02400
C 	C 	0.17280 0.86235 0.64865 0.02400
C 	C 	0.70180 0.70078 0.83142 -0.10200
C 	C 	0.50900 0.86439 0.83923 0.00000
C 	C 	0.41650 0.21824 0.92458 0.03200
C 	C 	0.55710 0.09383 0.57417 -0.00500
C 	C 	0.86330 0.16857 0.24477 0.03900
C 	C 	0.27850 0.65071 0.04183 -0.04700
C 	C 	0.29120 0.17007 0.63993 0.02300
C 	C 	0.58370 0.02000 0.64958 -0.02300
C 	C 	0.49100 0.13561 0.16077 0.00000
C 	C 	0.79820 0.16858 0.29922 -0.10200
C 	C 	0.94290 0.42583 0.90617 -0.01100
C 	C 	0.69350 0.77930 0.07464 -0.09800
C 	C 	0.76930 0.82612 0.12318 0.03000
C 	C 	0.85290 0.21658 0.07146 0.31500
C 	C 	0.62880 0.68234 0.21012 -0.03000
C 	C 	0.03950 0.86420 0.75434 0.02000
C 	C 	0.69240 0.73289 0.26291 0.02800
C 	C 	0.99100 0.16077 0.13561 -0.00900
C 	C 	0.42370 0.35256 0.10528 -0.09200
C 	C 	0.44290 0.90617 0.42583 -0.00500
C 	C 	0.92370 0.10528 0.35256 -0.08900
C 	C 	0.22150 0.95817 0.34929 -0.05000
C 	C 	0.13670 0.83143 0.75523 0.03900
C 	C 	0.63670 0.75523 0.83143 0.03800
C 	C 	0.33870 0.99853 0.45633 -0.02200
C 	C 	0.77850 0.04183 0.65071 -0.05000
C 	C 	0.07730 0.87285 0.16567 0.40000
C 	C 	0.20880 0.36007 0.82993 0.02500
C 	C 	0.54690 0.59060 0.93040 0.39000
C 	C 	0.14550 0.31124 0.78080 -0.09600
C 	C 	0.32720 0.35135 0.13765 0.02600
C 	C 	0.01060 0.89457 0.69889 -0.03900
C 	C 	0.48940 0.30111 0.10543 -0.03300
C 	C 	0.45310 0.40940 0.06960 0.39000
C 	C 	0.58350 0.78176 0.07542 0.03200
C 	C 	0.32360 0.36325 0.83615 -0.08900
C 	C 	0.19240 0.26291 0.73289 0.03000
C 	C 	0.08370 0.64958 0.02000 -0.02500
C 	C 	0.74940 0.11838 0.57438 -0.02800
C 	C 	0.82840 0.32003 0.86301 -0.01800
C 	C 	0.95610 0.87332 0.16836 -0.09900
C 	C 	0.16130 0.54367 0.00147 -0.02200
C 	C 	0.85450 0.68876 0.21920 -0.09600
C 	C 	0.95310 0.06960 0.40940 0.38300
C 	C 	0.02450 0.13312 0.18996 -0.07700
C 	C 	0.67640 0.63675 0.16385 -0.08900
C 	C 	0.53950 0.75434 0.86420 0.02300
C 	C 	0.89550 0.19336 0.13492 -0.05800
C 	C 	0.42270 0.83433 0.12715 0.40800
C 	C 	0.41630 0.98000 0.35042 -0.02300
C 	C 	0.08350 0.07542 0.78176 0.02500
C 	C 	0.75060 0.42562 0.88162 -0.02900
C 	C 	0.54390 0.83164 0.12668 -0.10900
C 	C 	0.32840 0.86301 0.32003 -0.01900
C 	C 	0.82360 0.83615 0.36325 -0.08800
C 	C 	0.24940 0.57438 0.11838 -0.02900
C 	C 	0.83420 0.19755 0.18871 -0.05900
C 	C 	0.96050 0.13580 0.24566 0.02000
C 	C 	0.33420 0.18871 0.19755 -0.05600
C 	C 	0.35290 0.07146 0.21658 0.31700
C 	C 	0.39550 0.13492 0.19336 -0.06200
C 	C 	0.67280 0.64865 0.86235 0.02600
C 	C 	0.52450 0.18996 0.13312 -0.08500
C 	C 	0.72150 0.34929 0.95817 -0.04700
C 	C 	0.46050 0.24566 0.13580 0.02300
C 	C 	0.25060 0.88162 0.42562 -0.02800
C 	C 	0.67160 0.13699 0.67997 -0.01900
C 	C 	0.11570 0.17411 0.87771 -0.02900
C 	C 	0.79120 0.63993 0.17007 0.02500
C 	C 	0.80760 0.73709 0.26711 0.03000
C 	C 	0.37120 0.31766 0.78988 -0.03000
C 	C 	0.89060 0.89372 0.41510 0.38100
C 	C 	0.80650 0.92536 0.22070 -0.09100
C 	C 	0.38430 0.12229 0.82589 -0.02100
C 	C 	0.66580 0.81129 0.80245 -0.05600
C 	C 	0.17160 0.67997 0.13699 -0.01800
C 	C 	0.39060 0.41510 0.89372 0.38200
C 	C 	0.45610 0.16836 0.87332 -0.10900
C 	C 	0.92270 0.12715 0.83433 0.40000
C 	C 	0.64710 0.92854 0.78342 0.31700
N 	N 	0.31648 0.93502 0.31338 -0.19100
N 	N 	0.06640 0.57737 0.02323 -0.09300
N 	N 	0.65560 0.14153 0.60819 -0.09300
N 	N 	0.93360 0.42263 0.97677 -0.09300
N 	N 	0.34440 0.85847 0.39181 -0.09300
N 	N 	0.73602 0.42282 0.95438 -0.19400
N 	N 	0.56640 0.02323 0.57737 -0.09300
N 	N 	0.81648 0.31338 0.93502 -0.19100
N 	N 	0.18352 0.68662 0.06498 -0.19100
N 	N 	0.84440 0.39181 0.85847 -0.09200
N 	N 	0.68352 0.06498 0.68662 -0.19100
N 	N 	0.23602 0.95438 0.42282 -0.19500
N 	N 	0.76398 0.04562 0.57718 -0.19500
N 	N 	0.43360 0.97677 0.42263 -0.09300
N 	N 	0.15560 0.60819 0.14153 -0.09200
N 	N 	0.26398 0.57718 0.04562 -0.19400
O 	O 	0.61280 0.54589 0.93045 -0.46600
O 	O 	0.15980 0.06872 0.54214 -0.46400
O 	O 	0.86306 0.07394 0.80216 -0.50700
O 	O 	0.34020 0.45786 0.93128 -0.46600
O 	O 	0.22250 0.74711 0.92751 -0.33500
O 	O 	0.88720 0.06955 0.45411 -0.46500
O 	O 	0.49224 0.41183 0.90179 -0.45700
O 	O 	0.36306 0.80216 0.07394 -0.50800
O 	O 	0.38720 0.45411 0.06955 -0.46600
O 	O 	0.50776 0.58817 0.09821 -0.45700
O 	O 	0.60390 0.98243 0.80537 -0.46100
O 	O 	0.39610 0.01757 0.19463 -0.46100
O 	O 	0.63694 0.19784 0.92606 -0.50800
O 	O 	0.96090 0.95875 0.59189 -0.46900
O 	O 	0.61174 0.13310 0.81952 -0.51200
O 	O 	0.99224 0.90179 0.41183 -0.45500
O 	O 	0.00776 0.09821 0.58817 -0.45500
O 	O 	0.77750 0.25289 0.07249 -0.33500
O 	O 	0.65980 0.54214 0.06872 -0.46600
O 	O 	0.38826 0.86690 0.18048 -0.51200
O 	O 	0.03910 0.04125 0.40811 -0.46900
O 	O 	0.13694 0.92606 0.19784 -0.50700
O 	O 	0.27750 0.07249 0.25289 -0.33500
O 	O 	0.84020 0.93128 0.45786 -0.46400
O 	O 	0.11174 0.81952 0.13310 -0.51100
O 	O 	0.46090 0.59189 0.95875 -0.47400
O 	O 	0.53910 0.40811 0.04125 -0.47400
O 	O 	0.10390 0.80537 0.98243 -0.46100
O 	O 	0.88826 0.18048 0.86690 -0.51100
O 	O 	0.89610 0.19463 0.01757 -0.46100
O 	O 	0.72250 0.92751 0.74711 -0.33500
O 	O 	0.11280 0.93045 0.54589 -0.46500
