data_crystal

_cell_length_a 12.22410
_cell_length_b 24.89820
_cell_length_c 31.24820
_cell_angle_alpha 90.00000
_cell_angle_beta  90.00000
_cell_angle_gamma 97.84600

_symmetry_space_group_name_	'P 1'
_symmetry_space_group_name_H-M	'P 1'

loop_
_symmetry_equiv_pos_as_xyz
  x,y,z

loop_
_atom_site_label
_atom_site_type_symbol
_atom_site_fract_x
_atom_site_fract_y
_atom_site_fract_z
_atom_site_charge
Zn	Zn	0.69631 0.91518 0.87326 1.21400
Zn	Zn	0.20700 0.93228 0.13835 1.21700
Zn	Zn	0.38931 0.25502 0.73057 1.21100
Zn	Zn	0.41037 0.79138 0.25701 1.20900
Zn	Zn	0.80369 0.58482 0.37326 1.21300
Zn	Zn	0.19631 0.41518 0.62674 1.21300
Zn	Zn	0.29300 0.56772 0.63835 1.21600
Zn	Zn	0.58963 0.20862 0.74299 1.20900
Zn	Zn	0.70700 0.43228 0.36165 1.21600
Zn	Zn	0.30369 0.08482 0.12674 1.21300
Zn	Zn	0.11069 0.24498 0.23057 1.21100
Zn	Zn	0.91037 0.29138 0.24299 1.20900
Zn	Zn	0.88931 0.75502 0.76943 1.21100
Zn	Zn	0.79300 0.06772 0.86165 1.21600
Zn	Zn	0.08963 0.70862 0.75701 1.20900
Zn	Zn	0.61069 0.74498 0.26943 1.21100
H 	H 	0.76760 0.69530 0.21250 0.04300
H 	H 	0.35080 0.26500 0.19180 0.03500
H 	H 	0.71670 0.38410 0.63620 0.06600
H 	H 	0.47810 0.63710 0.68690 0.02700
H 	H 	0.56310 0.96050 0.25280 0.05800
H 	H 	0.72860 0.90140 0.15280 0.06500
H 	H 	0.16640 0.10630 0.71260 0.03700
H 	H 	0.06170 0.69160 0.61830 0.06500
H 	H 	0.73650 0.45080 0.26270 0.03000
H 	H 	0.73910 0.80590 0.99580 0.06200
H 	H 	0.39480 0.84170 0.04570 0.06800
H 	H 	0.08520 0.14850 0.03410 0.06800
H 	H 	0.55810 0.70060 0.39950 0.06500
H 	H 	0.14920 0.23500 0.69180 0.03500
H 	H 	0.83360 0.89370 0.28740 0.03700
H 	H 	0.63430 0.73310 0.75730 0.03600
H 	H 	0.18740 0.14640 0.26610 0.04500
H 	H 	0.16230 0.14390 0.18810 0.03900
H 	H 	0.27710 0.71110 0.52820 0.06100
H 	H 	0.68720 0.14310 0.23530 0.03600
H 	H 	0.44190 0.29940 0.60050 0.06500
H 	H 	0.55400 0.13970 0.02410 0.04600
H 	H 	0.99350 0.65470 0.32580 0.02900
H 	H 	0.54500 0.32780 0.20610 0.04000
H 	H 	0.39390 0.55800 0.72870 0.04000
H 	H 	0.81280 0.35690 0.73530 0.03600
H 	H 	0.44110 0.47700 0.21550 0.06100
H 	H 	0.46140 0.20230 0.27820 0.04200
H 	H 	0.45970 0.09680 0.85030 0.04000
H 	H 	0.60520 0.15830 0.95430 0.06800
H 	H 	0.10610 0.94200 0.22870 0.04000
H 	H 	0.75010 0.26420 0.03830 0.06500
H 	H 	0.04040 0.92310 0.73260 0.05500
H 	H 	0.94190 0.79940 0.89950 0.06600
H 	H 	0.42070 0.94010 0.75940 0.06200
H 	H 	0.52520 0.61860 0.53310 0.04500
H 	H 	0.99120 0.86740 0.26220 0.03600
H 	H 	0.96140 0.70230 0.22180 0.04300
H 	H 	0.23240 0.30470 0.78750 0.04300
H 	H 	0.45960 0.57690 0.23260 0.05500
H 	H 	0.22740 0.19070 0.15890 0.04000
H 	H 	0.52980 0.38650 0.63670 0.03800
H 	H 	0.28330 0.61590 0.36380 0.06600
H 	H 	0.97480 0.88140 0.03310 0.04500
H 	H 	0.31660 0.89200 0.28450 0.03900
H 	H 	0.56170 0.19160 0.88170 0.06600
H 	H 	0.49120 0.36740 0.23780 0.03700
H 	H 	0.95970 0.59680 0.64970 0.04100
H 	H 	0.28650 0.27630 0.43040 0.06600
H 	H 	0.79640 0.33620 0.31930 0.04000
H 	H 	0.73730 0.76090 0.14010 0.03700
H 	H 	0.71350 0.72370 0.56960 0.06600
H 	H 	0.03860 0.29770 0.77820 0.04300
H 	H 	0.06310 0.46050 0.24720 0.05800
H 	H 	0.04500 0.82780 0.29390 0.04000
H 	H 	0.13430 0.23310 0.74270 0.03600
H 	H 	0.52190 0.36290 0.31310 0.02700
H 	H 	0.82130 0.23800 0.78420 0.03900
H 	H 	0.57930 0.05990 0.24060 0.06200
H 	H 	0.14910 0.61250 0.70780 0.03400
H 	H 	0.98620 0.34250 0.75110 0.03900
H 	H 	0.65670 0.26470 0.23380 0.03800
H 	H 	0.43690 0.03950 0.74720 0.05800
H 	H 	0.66640 0.60630 0.78740 0.03700
H 	H 	0.68340 0.10800 0.71550 0.03900
H 	H 	0.51380 0.15750 0.25110 0.03800
H 	H 	0.78650 0.77630 0.06960 0.06600
H 	H 	0.42070 0.45020 0.34730 0.04200
H 	H 	0.60610 0.44200 0.27130 0.04000
H 	H 	0.00650 0.34530 0.67420 0.02900
H 	H 	0.59000 0.06740 0.14020 0.04600
H 	H 	0.74990 0.23580 0.53830 0.06500
H 	H 	0.07930 0.04980 0.84730 0.04100
H 	H 	0.77710 0.21110 0.97180 0.06100
H 	H 	0.73240 0.80470 0.71250 0.04300
H 	H 	0.10520 0.65830 0.54570 0.06800
H 	H 	0.45500 0.67220 0.79390 0.04000
H 	H 	0.02190 0.86290 0.18690 0.02800
H 	H 	0.23730 0.26090 0.35990 0.03700
H 	H 	0.93690 0.53950 0.75280 0.05800
H 	H 	0.49350 0.15470 0.17420 0.03000
H 	H 	0.74070 0.34300 0.19220 0.04000
H 	H 	0.97810 0.13710 0.81310 0.02800
H 	H 	0.85090 0.38750 0.29220 0.03400
H 	H 	0.26090 0.19410 0.00420 0.06200
H 	H 	0.47020 0.61350 0.36330 0.03800
H 	H 	0.34330 0.73530 0.76620 0.03800
H 	H 	0.91000 0.43260 0.64020 0.04600
H 	H 	0.02980 0.88650 0.86330 0.03700
H 	H 	0.42690 0.19730 0.15070 0.03500
H 	H 	0.73640 0.92050 0.77470 0.03100
H 	H 	0.72290 0.28890 0.47180 0.06100
H 	H 	0.07310 0.30270 0.65070 0.03400
H 	H 	0.32130 0.73800 0.71580 0.03800
H 	H 	0.91480 0.85150 0.96590 0.06800
H 	H 	0.64910 0.11250 0.79220 0.03500
H 	H 	0.81660 0.39200 0.21550 0.03900
H 	H 	0.29640 0.83620 0.18070 0.04000
H 	H 	0.22860 0.40140 0.34720 0.06500
H 	H 	0.05810 0.20060 0.10050 0.06600
H 	H 	0.92690 0.69730 0.34930 0.03400
H 	H 	0.83770 0.85610 0.81190 0.03900
H 	H 	0.84330 0.23530 0.73380 0.03800
H 	H 	0.31260 0.35360 0.76610 0.04500
H 	H 	0.26270 0.23910 0.85990 0.03700
H 	H 	0.50650 0.84530 0.82580 0.03000
H 	H 	0.07930 0.55990 0.25940 0.06300
H 	H 	0.09000 0.56740 0.35980 0.04600
H 	H 	0.85080 0.76500 0.30820 0.03500
H 	H 	0.17870 0.76200 0.21580 0.03900
H 	H 	0.48620 0.84250 0.74890 0.03800
H 	H 	0.05400 0.63970 0.47590 0.04600
H 	H 	0.77260 0.80930 0.84110 0.04000
H 	H 	0.23640 0.42050 0.72530 0.03100
H 	H 	0.25930 0.65700 0.80780 0.04000
H 	H 	0.57310 0.80270 0.84930 0.03500
H 	H 	0.15670 0.76470 0.26620 0.03800
H 	H 	0.20360 0.66380 0.68070 0.04000
H 	H 	0.43830 0.80840 0.11830 0.06600
H 	H 	0.67870 0.26200 0.28420 0.03800
H 	H 	0.60530 0.91660 0.78040 0.03800
H 	H 	0.77140 0.59860 0.65280 0.06500
H 	H 	0.19980 0.71300 0.89210 0.03800
H 	H 	0.53860 0.79770 0.72180 0.04200
H 	H 	0.50880 0.63260 0.76220 0.03700
H 	H 	0.57930 0.54980 0.65270 0.04200
H 	H 	0.93830 0.30840 0.38170 0.06500
H 	H 	0.24070 0.84300 0.30780 0.04000
H 	H 	0.02520 0.11860 0.96690 0.04500
H 	H 	0.59830 0.32090 0.33170 0.03500
H 	H 	0.95500 0.17220 0.70610 0.04000
H 	H 	0.23650 0.95080 0.23730 0.03000
H 	H 	0.76350 0.04920 0.76270 0.03000
H 	H 	0.09830 0.82090 0.16830 0.03500
H 	H 	0.18720 0.64310 0.26470 0.03600
H 	H 	0.00880 0.13260 0.73780 0.03600
H 	H 	0.44600 0.86030 0.97590 0.04600
H 	H 	0.89470 0.58340 0.28040 0.03700
H 	H 	0.41000 0.93260 0.85980 0.04600
H 	H 	0.89480 0.34170 0.45430 0.06800
H 	H 	0.75930 0.15700 0.69220 0.04000
H 	H 	0.54040 0.42310 0.76740 0.05500
H 	H 	0.97020 0.11350 0.13670 0.03700
H 	H 	0.76270 0.73910 0.64010 0.03700
H 	H 	0.30020 0.78700 0.39210 0.03800
H 	H 	0.18340 0.60800 0.78450 0.03900
H 	H 	0.23910 0.30590 0.50420 0.06200
H 	H 	0.27260 0.30930 0.65890 0.04000
H 	H 	0.94110 0.97700 0.28450 0.06100
H 	H 	0.27140 0.09860 0.84720 0.06500
H 	H 	0.95960 0.07690 0.26740 0.05500
H 	H 	0.92070 0.44010 0.74060 0.06300
H 	H 	0.33360 0.39370 0.21260 0.03700
H 	H 	0.81260 0.85360 0.73390 0.04500
H 	H 	0.41480 0.35150 0.53410 0.06700
H 	H 	0.76360 0.57950 0.27470 0.03100
H 	H 	0.68740 0.64640 0.23390 0.04500
H 	H 	0.33770 0.35610 0.68810 0.03900
H 	H 	0.25010 0.76420 0.46170 0.06500
H 	H 	0.72740 0.69070 0.34110 0.04000
H 	H 	0.94600 0.36030 0.52410 0.04600
H 	H 	0.10530 0.41660 0.71960 0.03700
H 	H 	0.39470 0.08340 0.21960 0.03800
H 	H 	0.64920 0.73500 0.80820 0.03500
H 	H 	0.78330 0.11590 0.13620 0.06600
H 	H 	0.04030 0.40320 0.35030 0.04100
H 	H 	0.05890 0.02300 0.71550 0.06100
H 	H 	0.47480 0.38140 0.46690 0.04500
H 	H 	0.24990 0.73580 0.96170 0.06500
H 	H 	0.54030 0.90320 0.14970 0.04000
H 	H 	0.26350 0.54920 0.73730 0.03000
H 	H 	0.21350 0.22370 0.93040 0.06600
H 	H 	0.31280 0.85690 0.76470 0.03600
H 	H 	0.21670 0.88410 0.86380 0.06600
H 	H 	0.90170 0.17910 0.83170 0.03500
H 	H 	0.36570 0.26690 0.24270 0.03600
H 	H 	0.01380 0.65750 0.24890 0.03900
H 	H 	0.26360 0.07950 0.22530 0.03100
H 	H 	0.66230 0.64390 0.31190 0.03900
H 	H 	0.22290 0.78890 0.02820 0.06100
H 	H 	0.35090 0.88750 0.20780 0.03500
H 	H 	0.70360 0.16380 0.81930 0.04000
H 	H 	0.86570 0.76690 0.25730 0.03600
H 	H 	0.76090 0.69410 0.49580 0.06200
H 	H 	0.69980 0.21300 0.60790 0.03800
H 	H 	0.89390 0.05800 0.77130 0.04000
H 	H 	0.58520 0.64850 0.46590 0.06700
H 	H 	0.26760 0.19530 0.28750 0.04300
H 	H 	0.80020 0.28700 0.10790 0.03800
H 	H 	0.92070 0.95020 0.15270 0.04100
H 	H 	0.40170 0.67910 0.66830 0.03500
H 	H 	0.55890 0.52300 0.78450 0.06100
C 	C 	0.18710 0.41933 0.23020 -0.08000
C 	C 	0.58180 0.78354 0.13612 -0.09000
C 	C 	0.53670 0.81266 0.06482 0.02200
C 	C 	0.09760 0.82797 0.75363 0.37400
C 	C 	0.84180 0.26444 0.09190 0.01800
C 	C 	0.25100 0.86427 0.28095 -0.02100
C 	C 	0.20120 0.43510 0.34980 -0.08500
C 	C 	0.10640 0.83823 0.03663 -0.05500
C 	C 	0.36480 0.47409 0.22221 -0.08300
C 	C 	0.23230 0.16884 0.18510 -0.03700
C 	C 	0.59760 0.32797 0.74637 0.37500
C 	C 	0.78450 0.36011 0.29494 -0.03100
C 	C 	0.34370 0.93731 0.75394 -0.08700
C 	C 	0.38110 0.96600 0.85734 -0.02400
C 	C 	0.83160 0.21325 0.76018 -0.01500
C 	C 	0.79680 0.48416 0.75711 0.03000
C 	C 	0.13520 0.02591 0.72221 -0.08300
C 	C 	0.38240 0.57312 0.23781 -0.02600
C 	C 	0.71590 0.78305 0.07915 -0.09400
C 	C 	0.89180 0.98341 0.14912 -0.01600
C 	C 	0.00470 0.65439 0.49468 -0.00300
C 	C 	0.45020 0.17815 0.25291 -0.00000
C 	C 	0.46260 0.53076 0.35490 -0.11000
C 	C 	0.04980 0.32185 0.75291 -0.00200
C 	C 	0.25690 0.17138 0.26208 -0.02700
C 	C 	0.67090 0.42300 0.26613 -0.01500
C 	C 	0.18950 0.91787 0.86067 -0.09100
C 	C 	0.15140 0.86124 0.07856 0.28700
C 	C 	0.17090 0.92300 0.23387 -0.01500
C 	C 	0.77970 0.38788 0.74303 0.01900
C 	C 	0.66740 0.89497 0.77836 -0.01300
C 	C 	0.14570 0.25758 0.71769 -0.01300
C 	C 	0.81050 0.08213 0.13933 -0.09100
C 	C 	0.64250 0.80241 0.04996 0.03500
C 	C 	0.87020 0.21535 0.02679 0.03200
C 	C 	0.81130 0.25037 0.05085 -0.09000
C 	C 	0.42070 0.58089 0.36013 0.03200
C 	C 	0.91020 0.56388 0.64868 0.02500
C 	C 	0.08980 0.43612 0.35132 0.02500
C 	C 	0.70120 0.93510 0.15020 -0.08500
C 	C 	0.96260 0.03076 0.14510 -0.11200
C 	C 	0.10820 0.01659 0.85088 -0.01600
C 	C 	0.55290 0.77518 0.18220 0.37800
C 	C 	0.68870 0.24963 0.55085 -0.09100
C 	C 	0.15630 0.56269 0.25394 -0.08700
C 	C 	0.65820 0.23556 0.59190 0.01900
C 	C 	0.08360 0.02977 0.14533 0.40000
C 	C 	0.06990 0.32465 0.67695 -0.01400
C 	C 	0.35430 0.24242 0.21769 -0.01300
C 	C 	0.68660 0.77391 0.12095 0.02100
C 	C 	0.68710 0.91933 0.26980 -0.08000
C 	C 	0.44710 0.22482 0.81780 0.37800
C 	C 	0.64570 0.75758 0.78231 -0.01300
C 	C 	0.18870 0.74963 0.94915 -0.09000
C 	C 	0.11980 0.36378 0.22993 0.37100
C 	C 	0.96330 0.68734 0.56482 0.02200
C 	C 	0.46510 0.83456 0.03604 -0.07800
C 	C 	0.56510 0.25434 0.61092 -0.08600
C 	C 	0.11760 0.92688 0.73781 -0.02600
C 	C 	0.53640 0.30374 0.54561 0.02200
C 	C 	0.29880 0.06490 0.84980 -0.08500
C 	C 	0.85750 0.69759 0.54996 0.03500
C 	C 	0.24900 0.63573 0.78095 -0.02100
C 	C 	0.92700 0.48787 0.35470 0.39200
C 	C 	0.90240 0.17203 0.24637 0.37400
C 	C 	0.31340 0.22609 0.87905 0.02100
C 	C 	0.53740 0.46924 0.64510 -0.11000
C 	C 	0.12980 0.78465 0.97321 0.03200
C 	C 	0.81290 0.58067 0.76980 -0.08000
C 	C 	0.65140 0.36124 0.42144 0.28700
C 	C 	0.78410 0.71695 0.57915 -0.09400
C 	C 	0.83800 0.19783 0.98509 -0.05300
C 	C 	0.45170 0.01334 0.85443 -0.10500
C 	C 	0.37020 0.71535 0.47321 0.03300
C 	C 	0.26530 0.96620 0.85668 0.02700
C 	C 	0.33470 0.61763 0.24882 -0.08600
C 	C 	0.33160 0.71325 0.73982 -0.01500
C 	C 	0.86480 0.97409 0.27779 -0.08300
C 	C 	0.60640 0.33823 0.46337 -0.05400
C 	C 	0.21550 0.63989 0.70506 -0.03100
C 	C 	0.93010 0.67535 0.32305 -0.01400
C 	C 	0.39180 0.48341 0.35088 -0.01600
C 	C 	0.31820 0.52115 0.23398 0.02300
C 	C 	0.73470 0.03380 0.14332 0.02700
C 	C 	0.32980 0.18639 0.99349 -0.05400
C 	C 	0.28410 0.21695 0.92085 -0.09400
C 	C 	0.76770 0.83116 0.81490 -0.03700
C 	C 	0.51340 0.35680 0.48207 -0.00500
C 	C 	0.74310 0.82862 0.73792 -0.02700
C 	C 	0.50470 0.15439 0.00532 -0.00300
C 	C 	0.41820 0.21646 0.86388 -0.09000
C 	C 	0.57930 0.41911 0.63987 0.03200
C 	C 	0.48660 0.64320 0.51793 -0.00500
C 	C 	0.52140 0.66059 0.47791 -0.07800
C 	C 	0.91820 0.71646 0.63612 -0.09100
C 	C 	0.93490 0.24566 0.11092 -0.08500
C 	C 	0.89360 0.16177 0.96337 -0.05500
C 	C 	0.61980 0.86378 0.27007 0.37100
C 	C 	0.72400 0.51657 0.64793 0.02200
C 	C 	0.73230 0.66884 0.31490 -0.03600
C 	C 	0.96510 0.33456 0.46396 -0.07900
C 	C 	0.32910 0.57700 0.73387 -0.01500
C 	C 	0.31130 0.75037 0.44915 -0.09100
C 	C 	0.86130 0.64558 0.43582 0.29000
C 	C 	0.38020 0.13622 0.72993 0.37100
C 	C 	0.00500 0.78738 0.91210 -0.03400
C 	C 	0.90110 0.66454 0.47952 -0.05600
C 	C 	0.79880 0.56490 0.65020 -0.08500
C 	C 	0.50500 0.28738 0.58790 -0.03200
C 	C 	0.91640 0.97023 0.85467 0.40000
C 	C 	0.55750 0.34944 0.23270 0.00100
C 	C 	0.97860 0.83941 0.97791 -0.07900
C 	C 	0.92070 0.08089 0.13987 0.03200
C 	C 	0.66530 0.38237 0.75118 -0.08600
C 	C 	0.41180 0.65478 0.69268 -0.01600
C 	C 	0.69890 0.57522 0.77953 0.01400
C 	C 	0.30110 0.42478 0.22047 0.01400
C 	C 	0.17020 0.31361 0.49349 -0.05400
C 	C 	0.05750 0.84944 0.26730 0.00300
C 	C 	0.95020 0.67815 0.24709 -0.00200
C 	C 	0.41020 0.06388 0.85132 0.02500
C 	C 	0.88110 0.46600 0.64266 -0.02400
C 	C 	0.99500 0.21262 0.08790 -0.03400
C 	C 	0.49500 0.71262 0.41210 -0.03200
C 	C 	0.07300 0.51213 0.64530 0.39200
C 	C 	0.20320 0.51584 0.24289 0.03000
C 	C 	0.35750 0.19759 0.95004 0.03500
C 	C 	0.83470 0.11763 0.25118 -0.08600
C 	C 	0.68180 0.47885 0.76602 0.02300
C 	C 	0.91180 0.15478 0.80732 -0.01600
C 	C 	0.08820 0.84522 0.19268 -0.01600
C 	C 	0.16740 0.39497 0.72164 -0.01300
C 	C 	0.83260 0.60503 0.27836 -0.01300
C 	C 	0.33260 0.10503 0.22164 -0.01300
C 	C 	0.40240 0.67203 0.25363 0.37500
C 	C 	0.06510 0.75434 0.88908 -0.08500
C 	C 	0.58360 0.52977 0.35467 0.39900
C 	C 	0.29680 0.98416 0.74289 0.03000
C 	C 	0.86020 0.53583 0.75905 -0.03200
C 	C 	0.94250 0.15056 0.73270 0.00300
C 	C 	0.71550 0.13989 0.79494 -0.03100
C 	C 	0.75100 0.36427 0.21905 -0.02100
C 	C 	0.47860 0.33941 0.52209 -0.07800
C 	C 	0.02140 0.16059 0.02209 -0.07900
C 	C 	0.58980 0.93612 0.14868 0.02500
C 	C 	0.80110 0.92478 0.27953 0.01400
C 	C 	0.34180 0.76444 0.40810 0.01900
C 	C 	0.43490 0.74566 0.38908 -0.08600
C 	C 	0.03520 0.74149 0.84344 0.37400
C 	C 	0.82910 0.07700 0.76613 -0.01500
C 	C 	0.49110 0.19771 0.89176 -0.03000
C 	C 	0.98660 0.14320 0.98207 -0.00400
C 	C 	0.34860 0.63876 0.57856 0.28700
C 	C 	0.26770 0.33116 0.68510 -0.03600
C 	C 	0.57300 0.01213 0.85470 0.39300
C 	C 	0.94710 0.72482 0.68220 0.38000
C 	C 	0.05290 0.27518 0.31780 0.38000
C 	C 	0.84370 0.43731 0.74606 -0.08700
C 	C 	0.08180 0.28354 0.36388 -0.09100
C 	C 	0.53520 0.24149 0.65656 0.37500
C 	C 	0.42700 0.98787 0.14530 0.39300
C 	C 	0.31290 0.08067 0.73020 -0.08000
C 	C 	0.60820 0.51659 0.64912 -0.01600
C 	C 	0.21590 0.28305 0.42085 -0.09400
C 	C 	0.84860 0.13876 0.92144 0.28700
C 	C 	0.95170 0.51334 0.64557 -0.10400
C 	C 	0.27970 0.88788 0.75697 0.01900
C 	C 	0.33800 0.69783 0.51491 -0.05400
C 	C 	0.46360 0.69626 0.45439 0.02200
C 	C 	0.18660 0.27391 0.37905 0.02200
C 	C 	0.27600 0.48343 0.35207 0.02200
C 	C 	0.66840 0.28675 0.26018 -0.01500
C 	C 	0.59890 0.83546 0.97952 -0.05600
C 	C 	0.46330 0.18734 0.93518 0.02200
C 	C 	0.11890 0.53400 0.35734 -0.02400
C 	C 	0.88240 0.07312 0.26219 -0.02600
C 	C 	0.16840 0.78675 0.23982 -0.01500
C 	C 	0.65630 0.06269 0.24606 -0.08700
C 	C 	0.63870 0.85442 0.93582 0.29000
C 	C 	0.70320 0.01584 0.25711 0.03000
C 	C 	0.23470 0.53380 0.35668 0.02700
C 	C 	0.66200 0.30217 0.48509 -0.05400
C 	C 	0.68950 0.41787 0.63933 -0.09000
C 	C 	0.61760 0.42688 0.76219 -0.02600
C 	C 	0.31050 0.58213 0.36067 -0.09000
C 	C 	0.63980 0.96417 0.25905 -0.03200
C 	C 	0.24310 0.32862 0.76208 -0.02700
C 	C 	0.46480 0.75851 0.34344 0.37500
C 	C 	0.07930 0.91911 0.86013 0.03200
C 	C 	0.19890 0.07522 0.72047 0.01400
C 	C 	0.96480 0.25851 0.15656 0.37400
C 	C 	0.13870 0.35442 0.56418 0.29000
C 	C 	0.67020 0.81361 0.00651 -0.05400
C 	C 	0.75690 0.67138 0.23792 -0.02700
C 	C 	0.62980 0.28465 0.52679 0.03300
C 	C 	0.76530 0.46620 0.64332 0.02700
C 	C 	0.81340 0.72609 0.62095 0.02200
C 	C 	0.16200 0.80217 0.01491 -0.05300
C 	C 	0.15820 0.73556 0.90810 0.01800
C 	C 	0.50890 0.80229 0.10824 -0.03000
C 	C 	0.88020 0.63622 0.77007 0.37100
C 	C 	0.09890 0.33546 0.52048 -0.05600
C 	C 	0.99530 0.34561 0.50532 -0.00300
C 	C 	0.54830 0.98666 0.14557 -0.10500
C 	C 	0.36130 0.14558 0.06418 0.29000
C 	C 	0.77600 0.98343 0.14793 0.02100
C 	C 	0.40110 0.16454 0.02048 -0.05600
C 	C 	0.16530 0.88237 0.74882 -0.08600
C 	C 	0.44250 0.65056 0.76730 0.00100
C 	C 	0.04830 0.48666 0.35443 -0.10400
C 	C 	0.54980 0.82185 0.74709 -0.00000
C 	C 	0.85430 0.74242 0.28231 -0.01300
C 	C 	0.43010 0.17535 0.17695 -0.01400
C 	C 	0.61890 0.03400 0.14266 -0.02400
C 	C 	0.36020 0.03583 0.74095 -0.03200
C 	C 	0.74900 0.13573 0.71905 -0.02100
C 	C 	0.96360 0.19626 0.04561 0.02200
C 	C 	0.22030 0.61212 0.25697 0.01900
C 	C 	0.72030 0.11212 0.24303 0.01900
C 	C 	0.82980 0.68639 0.50651 -0.05400
C 	C 	0.00890 0.30229 0.39176 -0.02900
C 	C 	0.03490 0.66544 0.53604 -0.07900
C 	C 	0.99110 0.69771 0.60824 -0.02900
C 	C 	0.56990 0.82465 0.82305 -0.01400
C 	C 	0.14250 0.30241 0.45004 0.03500
C 	C 	0.22400 0.01657 0.85207 0.02100
C 	C 	0.01340 0.85680 0.01793 -0.00400
C 	C 	0.03670 0.31266 0.43518 0.02200
C 	C 	0.13980 0.46417 0.24095 -0.03200
C 	C 	0.03640 0.80374 0.95439 0.02200
C 	C 	0.58820 0.34522 0.30732 -0.01600
C 	C 	0.53490 0.16544 0.96396 -0.07800
C 	C 	0.18180 0.97885 0.73398 0.02300
C 	C 	0.63520 0.52591 0.77779 -0.08300
C 	C 	0.28450 0.86011 0.20506 -0.03100
C 	C 	0.41640 0.47023 0.64533 0.39900
C 	C 	0.81820 0.02115 0.26602 0.02300
C 	C 	0.03740 0.96924 0.85490 -0.11200
C 	C 	0.39360 0.66177 0.53663 -0.05400
C 	C 	0.49530 0.84561 0.99468 -0.00300
N 	N 	0.65140 0.85983 0.74131 -0.09400
N 	N 	0.18750 0.88790 0.19608 -0.19900
N 	N 	0.25280 0.29464 0.72275 -0.19900
N 	N 	0.82590 0.63665 0.31902 -0.19500
N 	N 	0.67410 0.86335 0.81902 -0.19500
N 	N 	0.44700 0.21142 0.21407 -0.09600
N 	N 	0.17410 0.36335 0.68098 -0.19500
N 	N 	0.75280 0.79464 0.77725 -0.19900
N 	N 	0.55300 0.78858 0.78593 -0.09600
N 	N 	0.22940 0.67272 0.74473 -0.20100
N 	N 	0.92890 0.18676 0.76828 -0.09600
N 	N 	0.57110 0.31324 0.26828 -0.09600
N 	N 	0.15380 0.89122 0.27330 -0.09500
N 	N 	0.24720 0.20536 0.22275 -0.19900
N 	N 	0.68750 0.38790 0.30392 -0.19900
N 	N 	0.74720 0.70536 0.27725 -0.19900
N 	N 	0.32590 0.13665 0.18098 -0.19500
N 	N 	0.77060 0.32728 0.25527 -0.20100
N 	N 	0.34620 0.60878 0.77330 -0.09500
N 	N 	0.31250 0.61210 0.69608 -0.19900
N 	N 	0.84620 0.10878 0.72670 -0.09500
N 	N 	0.65380 0.39122 0.22670 -0.09500
N 	N 	0.15140 0.35983 0.75869 -0.09400
N 	N 	0.07110 0.81324 0.23172 -0.09600
N 	N 	0.34860 0.14017 0.25869 -0.09400
N 	N 	0.42890 0.68676 0.73172 -0.09600
N 	N 	0.81250 0.11210 0.80392 -0.19900
N 	N 	0.72940 0.17272 0.75527 -0.20100
N 	N 	0.05300 0.28858 0.71407 -0.09600
N 	N 	0.94700 0.71142 0.28593 -0.09600
N 	N 	0.27060 0.82728 0.24473 -0.20100
N 	N 	0.84860 0.64017 0.24131 -0.09400
O 	O 	0.77540 0.15853 0.90205 -0.32300
O 	O 	0.99429 0.82501 0.75386 -0.44900
O 	O 	0.35710 0.42866 0.63131 -0.49400
O 	O 	0.98100 0.63955 0.75982 -0.46100
O 	O 	0.95900 0.28359 0.30565 -0.45800
O 	O 	0.51900 0.86045 0.25982 -0.46200
O 	O 	0.61060 0.40349 0.40772 -0.44800
O 	O 	0.15150 0.78828 0.75697 -0.46500
O 	O 	0.86678 0.44358 0.36262 -0.49600
O 	O 	0.37932 0.51175 0.65950 -0.50600
O 	O 	0.54100 0.21641 0.80565 -0.45700
O 	O 	0.11060 0.90349 0.09228 -0.44800
O 	O 	0.59390 0.21224 0.67716 -0.45100
O 	O 	0.33040 0.17558 0.72031 -0.46000
O 	O 	0.64290 0.57134 0.36869 -0.49400
O 	O 	0.40610 0.78776 0.32284 -0.45100
O 	O 	0.10855 0.46824 0.65361 -0.50600
O 	O 	0.00571 0.17499 0.24614 -0.44900
O 	O 	0.12068 0.98825 0.15950 -0.50600
O 	O 	0.09390 0.71224 0.82284 -0.45100
O 	O 	0.34850 0.71172 0.25697 -0.46500
O 	O 	0.27540 0.65853 0.59795 -0.32300
O 	O 	0.83040 0.67558 0.77969 -0.46000
O 	O 	0.45900 0.78359 0.19435 -0.45700
O 	O 	0.72520 0.84198 0.92059 -0.35000
O 	O 	0.72460 0.34147 0.40205 -0.32300
O 	O 	0.12730 0.26099 0.29394 -0.46300
O 	O 	0.85710 0.92866 0.86869 -0.49500
O 	O 	0.87270 0.73901 0.70606 -0.46300
O 	O 	0.62730 0.76099 0.20606 -0.46300
O 	O 	0.36678 0.94358 0.13738 -0.49600
O 	O 	0.90610 0.28776 0.17716 -0.45100
O 	O 	0.87932 0.01175 0.84050 -0.50600
O 	O 	0.01900 0.36045 0.24018 -0.46100
O 	O 	0.77480 0.65802 0.42059 -0.35000
O 	O 	0.22460 0.84147 0.09795 -0.32300
O 	O 	0.66960 0.82442 0.27969 -0.46000
O 	O 	0.48100 0.13955 0.74018 -0.46200
O 	O 	0.37270 0.23901 0.79394 -0.46300
O 	O 	0.38940 0.59651 0.59228 -0.44800
O 	O 	0.14290 0.07134 0.13131 -0.49500
O 	O 	0.63322 0.05642 0.86262 -0.49600
O 	O 	0.13322 0.55642 0.63738 -0.49600
O 	O 	0.16960 0.32442 0.22031 -0.46000
O 	O 	0.22520 0.34198 0.57941 -0.35000
O 	O 	0.88940 0.09651 0.90772 -0.44800
O 	O 	0.62068 0.48825 0.34050 -0.50600
O 	O 	0.65150 0.28828 0.74303 -0.46500
O 	O 	0.58300 0.88652 0.91656 -0.43400
O 	O 	0.84850 0.21172 0.24303 -0.46500
O 	O 	0.54610 0.73886 0.32840 -0.47300
O 	O 	0.50571 0.67499 0.25386 -0.45000
O 	O 	0.39145 0.03176 0.15361 -0.50600
O 	O 	0.04610 0.23886 0.17160 -0.47200
O 	O 	0.91700 0.61348 0.41656 -0.43400
O 	O 	0.45390 0.26114 0.67160 -0.47300
O 	O 	0.04100 0.71641 0.69435 -0.45800
O 	O 	0.49429 0.32501 0.74614 -0.45000
O 	O 	0.41700 0.11348 0.08344 -0.43400
O 	O 	0.27480 0.15802 0.07941 -0.35000
O 	O 	0.08300 0.38652 0.58344 -0.43400
O 	O 	0.95390 0.76114 0.82840 -0.47200
O 	O 	0.60855 0.96824 0.84639 -0.50600
O 	O 	0.89145 0.53176 0.34639 -0.50600
