data_crystal

_cell_length_a 8.58860
_cell_length_b 9.40860
_cell_length_c 9.42820
_cell_angle_alpha 119.93100
_cell_angle_beta  116.51400
_cell_angle_gamma 90.00000

_symmetry_space_group_name_	'P 1'
_symmetry_space_group_name_H-M	'P 1'

loop_
_symmetry_equiv_pos_as_xyz
  x,y,z

loop_
_atom_site_label
_atom_site_type_symbol
_atom_site_fract_x
_atom_site_fract_y
_atom_site_fract_z
_atom_site_charge
Ba	Ba	0.75000 0.91920 -0.00000 1.36600
Ba	Ba	0.25000 0.08080 -0.00000 1.55100
H 	H 	0.42500 0.78300 0.02400 0.08700
H 	H 	0.34800 0.71070 0.83940 0.26700
H 	H 	0.07500 0.75900 0.97600 0.56700
H 	H 	0.15200 0.87130 0.16060 0.44000
H 	H 	0.57500 0.21700 0.97600 0.57300
H 	H 	0.65200 0.28930 0.16060 0.44000
H 	H 	0.92500 0.24100 0.02400 0.07500
H 	H 	0.84800 0.12870 0.83940 0.26100
C 	C 	0.31360 0.42320 0.49960 0.15800
C 	C 	0.18640 0.92360 0.50040 0.15500
C 	C 	0.68640 0.57680 0.50040 0.15200
C 	C 	0.81360 0.07640 0.49960 0.15600
N 	N 	0.48030 0.52620 0.56360 -0.13600
N 	N 	0.24320 0.47510 0.61080 -0.13300
N 	N 	0.08980 0.35110 0.51160 -0.05800
N 	N 	0.07040 0.23120 0.34780 -0.11500
N 	N 	0.21130 0.27320 0.33540 -0.19400
N 	N 	0.01970 0.96260 0.43640 -0.14600
N 	N 	0.25680 0.86430 0.38920 -0.17100
N 	N 	0.41020 0.83950 0.48840 -0.07600
N 	N 	0.42960 0.88340 0.65220 -0.10100
N 	N 	0.28870 0.93780 0.66460 -0.16900
N 	N 	0.51970 0.47380 0.43640 -0.16000
N 	N 	0.75680 0.52490 0.38920 -0.17500
N 	N 	0.91020 0.64890 0.48840 -0.08500
N 	N 	0.92960 0.76880 0.65220 -0.11700
N 	N 	0.78870 0.72680 0.66460 -0.16500
N 	N 	0.98030 0.03740 0.56360 -0.14700
N 	N 	0.74320 0.13570 0.61080 -0.13400
N 	N 	0.58980 0.16050 0.51160 -0.06200
N 	N 	0.57040 0.11660 0.34780 -0.12700
N 	N 	0.71130 0.06220 0.33540 -0.18900
O 	O 	0.40550 0.80470 0.94360 -0.55800
O 	O 	0.09450 0.86110 0.05640 -1.23600
O 	O 	0.59450 0.19530 0.05640 -1.24900
O 	O 	0.90550 0.13890 0.94360 -0.54500
