data_crystal

_cell_length_a 6.54340
_cell_length_b 6.93110
_cell_length_c 7.74650
_cell_angle_alpha 111.48700
_cell_angle_beta  95.64500
_cell_angle_gamma 90.83300

_symmetry_space_group_name_	'P 1'
_symmetry_space_group_name_H-M	'P 1'

loop_
_symmetry_equiv_pos_as_xyz
  x,y,z

loop_
_atom_site_label
_atom_site_type_symbol
_atom_site_fract_x
_atom_site_fract_y
_atom_site_fract_z
_atom_site_charge
Gd	Gd	0.87397 0.77948 0.06766 1.50500
Gd	Gd	0.12603 0.22052 0.93234 1.50500
P 	P 	0.32840 0.74792 0.97994 0.46800
P 	P 	0.67160 0.25208 0.02006 0.46800
H 	H 	0.36220 0.72040 0.79780 -0.05400
H 	H 	0.63780 0.27960 0.20220 -0.05400
C 	C 	0.05910 0.90580 0.50090 0.24900
C 	C 	0.94090 0.09420 0.49910 0.24900
O 	O 	0.19940 0.94150 0.03570 -0.49800
O 	O 	0.52800 0.77600 0.10480 -0.41900
O 	O 	0.18250 0.57210 0.97580 -0.50800
O 	O 	0.05180 0.75540 0.34830 -0.37000
O 	O 	0.84750 0.08340 0.34740 -0.37300
O 	O 	0.80060 0.05850 0.96430 -0.49800
O 	O 	0.47200 0.22400 0.89520 -0.41900
O 	O 	0.81750 0.42790 0.02420 -0.50800
O 	O 	0.94820 0.24460 0.65170 -0.37000
O 	O 	0.15250 0.91660 0.65260 -0.37300
