data_crystal

_cell_length_a 7.42670
_cell_length_b 12.90820
_cell_length_c 12.90820
_cell_angle_alpha 92.14510
_cell_angle_beta  94.53440
_cell_angle_gamma 85.46560

_symmetry_space_group_name_	'P 1'
_symmetry_space_group_name_H-M	'P 1'

loop_
_symmetry_equiv_pos_as_xyz
  x,y,z

loop_
_atom_site_label
_atom_site_type_symbol
_atom_site_fract_x
_atom_site_fract_y
_atom_site_fract_z
_atom_site_charge
Zn	Zn	0.72233 0.38986 0.78700 1.20500
Zn	Zn	0.27767 0.78700 0.38986 1.19100
Zn	Zn	0.27767 0.61014 0.21300 1.19100
Zn	Zn	0.72233 0.21300 0.61014 1.20500
Zn	Zn	0.50000 0.84553 0.84553 1.18400
Zn	Zn	0.50000 0.15447 0.15447 1.18400
Zn	Zn	0.00000 0.82075 0.82075 1.13600
Zn	Zn	-0.00000 0.17925 0.17925 1.13600
H 	H 	0.05820 0.50400 0.73120 0.10000
H 	H 	0.11570 0.60840 0.73660 0.08900
H 	H 	0.93840 0.73820 0.13060 0.15700
H 	H 	0.86850 0.78880 0.03660 0.14500
H 	H 	0.50290 0.59350 0.83590 -0.04000
H 	H 	0.51310 0.69220 0.04500 -0.02200
H 	H 	0.94180 0.73120 0.50400 0.14700
H 	H 	0.88430 0.73660 0.60840 0.11600
H 	H 	0.06160 0.13060 0.73820 0.11600
H 	H 	0.13150 0.03660 0.78880 0.12300
H 	H 	0.49710 0.83590 0.59350 -0.03500
H 	H 	0.48690 0.04500 0.69220 -0.02500
H 	H 	0.94180 0.49600 0.26880 0.14700
H 	H 	0.88430 0.39160 0.26340 0.11600
H 	H 	0.06160 0.26180 0.86940 0.11600
H 	H 	0.13150 0.21120 0.96340 0.12300
H 	H 	0.49710 0.40650 0.16410 -0.03500
H 	H 	0.48690 0.30780 0.95500 -0.02500
H 	H 	0.05820 0.26880 0.49600 0.10000
H 	H 	0.11570 0.26340 0.39160 0.08900
H 	H 	0.93840 0.86940 0.26180 0.15700
H 	H 	0.86850 0.96340 0.21120 0.14500
H 	H 	0.50290 0.16410 0.40650 -0.04000
H 	H 	0.51310 0.95500 0.30780 -0.02200
H 	H 	0.89600 0.35470 0.64530 0.29600
H 	H 	0.10400 0.64530 0.35470 0.24600
C 	C 	0.61810 0.61127 0.82365 0.09800
C 	C 	0.89240 0.59974 0.78910 0.24900
C 	C 	0.39230 0.71360 0.02766 0.10300
C 	C 	0.10800 0.73909 0.03359 0.07800
C 	C 	0.38190 0.82365 0.61127 0.09500
C 	C 	0.10760 0.78910 0.59974 0.07500
C 	C 	0.60770 0.02766 0.71360 0.09800
C 	C 	0.89200 0.03359 0.73909 0.24800
C 	C 	0.38190 0.38873 0.17635 0.09500
C 	C 	0.10760 0.40026 0.21090 0.07500
C 	C 	0.60770 0.28640 0.97234 0.09800
C 	C 	0.89200 0.26091 0.96641 0.24800
C 	C 	0.61810 0.17635 0.38873 0.09800
C 	C 	0.89240 0.21090 0.40026 0.24900
C 	C 	0.39230 0.97234 0.28640 0.10300
C 	C 	0.10800 0.96641 0.26091 0.07800
C 	C 	0.59020 0.97403 0.02597 0.23800
C 	C 	0.40980 0.02597 0.97403 0.20800
S 	S 	0.35188 0.31489 0.68511 0.72600
S 	S 	0.64812 0.68511 0.31489 0.71800
N 	N 	0.66300 0.70691 0.82481 -0.24200
N 	N 	0.84290 0.70033 0.80161 -0.26100
N 	N 	0.75600 0.54016 0.80288 -0.30900
N 	N 	0.06400 0.56165 0.77005 -0.34400
N 	N 	0.33770 0.76565 0.94479 -0.23300
N 	N 	0.15050 0.78357 0.94843 -0.28600
N 	N 	0.25630 0.69393 0.08557 -0.30200
N 	N 	0.93660 0.73532 0.06216 -0.26400
N 	N 	0.33700 0.82481 0.70691 -0.24600
N 	N 	0.15710 0.80161 0.70033 -0.27800
N 	N 	0.24400 0.80288 0.54016 -0.30500
N 	N 	0.93600 0.77005 0.56165 -0.25300
N 	N 	0.66230 0.94479 0.76565 -0.22400
N 	N 	0.84950 0.94843 0.78357 -0.26200
N 	N 	0.74370 0.08557 0.69393 -0.30700
N 	N 	0.06340 0.06216 0.73532 -0.36000
N 	N 	0.33700 0.29309 0.17519 -0.24600
N 	N 	0.15710 0.29967 0.19839 -0.27800
N 	N 	0.24400 0.45984 0.19712 -0.30500
N 	N 	0.93600 0.43835 0.22995 -0.25300
N 	N 	0.66230 0.23435 0.05521 -0.22400
N 	N 	0.84950 0.21643 0.05157 -0.26200
N 	N 	0.74370 0.30607 0.91443 -0.30700
N 	N 	0.06340 0.26468 0.93784 -0.36000
N 	N 	0.66300 0.17519 0.29309 -0.24200
N 	N 	0.84290 0.19839 0.29967 -0.26100
N 	N 	0.75600 0.19712 0.45984 -0.30900
N 	N 	0.06400 0.22995 0.43835 -0.34400
N 	N 	0.33770 0.05521 0.23435 -0.23300
N 	N 	0.15050 0.05157 0.21643 -0.28600
N 	N 	0.25630 0.91443 0.30607 -0.30200
N 	N 	0.93660 0.93784 0.26468 -0.26400
O 	O 	0.46180 0.39453 0.74027 -0.52500
O 	O 	0.65610 0.89261 0.98257 -0.41500
O 	O 	0.53820 0.74027 0.39453 -0.52200
O 	O 	0.34390 0.98257 0.89261 -0.42300
O 	O 	0.53820 0.60547 0.25973 -0.52200
O 	O 	0.34390 0.10739 0.01743 -0.42300
O 	O 	0.46180 0.25973 0.60547 -0.52500
O 	O 	0.65610 0.01743 0.10739 -0.41500
O 	O 	0.19200 0.36848 0.63152 -0.37100
O 	O 	0.30200 0.24176 0.75824 -0.35000
O 	O 	0.86010 0.31291 0.68709 -0.77800
O 	O 	0.80800 0.63152 0.36848 -0.31100
O 	O 	0.69800 0.75824 0.24176 -0.32900
O 	O 	0.13990 0.68709 0.31291 -0.83300
