data_crystal

_cell_length_a 16.82430
_cell_length_b 18.10940
_cell_length_c 17.26720
_cell_angle_alpha 110.95700
_cell_angle_beta  90.00000
_cell_angle_gamma 90.00000

_symmetry_space_group_name_	'P 1'
_symmetry_space_group_name_H-M	'P 1'

loop_
_symmetry_equiv_pos_as_xyz
  x,y,z

loop_
_atom_site_label
_atom_site_type_symbol
_atom_site_fract_x
_atom_site_fract_y
_atom_site_fract_z
_atom_site_charge
Co	Co	0.32987 0.14995 0.42774 1.08100
Co	Co	0.31734 0.84147 0.50418 1.19000
Co	Co	0.89971 0.67582 0.29437 1.18700
Co	Co	0.39971 0.32418 0.20563 1.18500
Co	Co	0.25848 0.59607 0.66036 1.08600
Co	Co	0.60029 0.67582 0.79437 1.18600
Co	Co	0.18266 0.84147 0.00418 1.17800
Co	Co	0.74152 0.40393 0.33964 1.08700
Co	Co	0.75848 0.40393 0.83964 1.08800
Co	Co	0.17013 0.14995 0.92774 1.08300
Co	Co	0.81734 0.15853 0.99582 1.19500
Co	Co	0.24152 0.59607 0.16036 1.08400
Co	Co	0.68266 0.15853 0.49582 1.18800
Co	Co	0.50000 0.00000 -0.00000 1.06100
Co	Co	0.82987 0.85005 0.07226 1.08600
Co	Co	0.67013 0.85005 0.57226 1.09000
Co	Co	-0.00000 -0.00000 0.50000 1.05600
Co	Co	0.10029 0.32418 0.70563 1.18400
H 	H 	0.71500 0.37500 0.13700 0.15700
H 	H 	0.78000 0.56800 0.62400 0.16200
H 	H 	0.00500 0.09100 0.84200 0.15900
H 	H 	0.11500 0.74300 0.23400 0.21300
H 	H 	0.29800 0.29800 0.96900 0.11200
H 	H 	0.61500 0.25700 0.26600 0.21500
H 	H 	0.28500 0.62500 0.86300 0.16200
H 	H 	0.22000 0.43200 0.37600 0.15700
H 	H 	0.19200 0.03800 0.48900 0.05400
H 	H 	0.20200 0.29800 0.46900 0.09800
H 	H 	0.38500 0.74300 0.73400 0.21700
H 	H 	0.30800 0.03800 0.98900 0.05800
H 	H 	0.72000 0.56800 0.12400 0.15700
H 	H 	0.49500 0.09100 0.34200 0.19300
H 	H 	0.21500 0.62500 0.36300 0.15800
H 	H 	0.70200 0.70200 0.03100 0.08900
H 	H 	0.28000 0.43200 0.87600 0.16300
H 	H 	0.79800 0.70200 0.53100 0.10300
H 	H 	0.80800 0.96200 0.51100 0.15100
H 	H 	0.99500 0.90900 0.15800 0.23600
H 	H 	0.50500 0.90900 0.65800 0.21000
H 	H 	0.78500 0.37500 0.63700 0.16000
H 	H 	0.69200 0.96200 0.01100 0.14100
H 	H 	0.88500 0.25700 0.76600 0.21800
C 	C 	0.39570 0.91810 0.66480 0.23500
C 	C 	0.77740 0.55690 0.20940 0.20500
C 	C 	0.40040 0.32620 0.03720 0.17600
C 	C 	0.79530 0.65730 0.15160 0.20900
C 	C 	0.78970 0.74250 0.43530 0.18500
C 	C 	0.20470 0.34270 0.84840 0.21000
C 	C 	0.26550 0.71640 0.34880 0.20600
C 	C 	0.97080 0.21140 0.69560 0.25500
C 	C 	0.56320 0.34500 0.27560 0.21700
C 	C 	0.82300 0.05920 0.49070 0.19800
C 	C 	0.09960 0.32620 0.53720 0.18900
C 	C 	0.47080 0.78860 0.80440 0.23300
C 	C 	0.52920 0.21140 0.19560 0.22800
C 	C 	0.60430 0.08190 0.33520 0.22200
C 	C 	0.75490 0.31860 0.03120 0.18100
C 	C 	0.32300 0.94080 0.00930 0.18300
C 	C 	0.25490 0.68140 0.46880 0.20900
C 	C 	0.28970 0.25750 0.06470 0.17700
C 	C 	0.59960 0.67380 0.96280 0.21300
C 	C 	0.89570 0.08190 0.83520 0.22200
C 	C 	0.17700 0.94080 0.50930 0.20300
C 	C 	0.48260 0.84170 0.55640 0.22500
C 	C 	0.06320 0.65500 0.22440 0.19600
C 	C 	0.43680 0.65500 0.72440 0.21900
C 	C 	0.22260 0.44310 0.79060 0.20500
C 	C 	0.29530 0.34270 0.34840 0.20800
C 	C 	0.74510 0.31860 0.53120 0.21000
C 	C 	0.79820 0.00790 0.02490 0.17000
C 	C 	0.23450 0.71640 0.84880 0.20900
C 	C 	0.90040 0.67380 0.46280 0.19800
C 	C 	0.01740 0.84170 0.05640 0.18700
C 	C 	0.76550 0.28360 0.15120 0.20400
C 	C 	0.24510 0.68140 0.96880 0.24400
C 	C 	0.27740 0.44310 0.29060 0.20300
C 	C 	0.93680 0.34500 0.77560 0.24100
C 	C 	0.20180 0.99210 0.97510 0.25700
C 	C 	0.71030 0.74250 0.93530 0.18800
C 	C 	0.70470 0.65730 0.65160 0.21200
C 	C 	0.51740 0.15830 0.44360 0.21700
C 	C 	0.72260 0.55690 0.70940 0.20600
C 	C 	0.67700 0.05920 0.99070 0.21100
C 	C 	0.29820 0.99210 0.47510 0.24900
C 	C 	0.02920 0.78860 0.30440 0.20800
C 	C 	0.70180 0.00790 0.52490 0.16900
C 	C 	0.10430 0.91810 0.16480 0.23300
C 	C 	0.21030 0.25750 0.56470 0.17900
C 	C 	0.73450 0.28360 0.65120 0.20600
C 	C 	0.98260 0.15830 0.94360 0.25000
N 	N 	0.66300 0.58110 0.76450 -0.23300
N 	N 	0.75750 0.77310 0.33030 -0.04800
N 	N 	0.69730 0.02410 0.25530 -0.07500
N 	N 	0.72690 0.78870 0.45800 -0.22900
N 	N 	0.33700 0.41890 0.23550 -0.23300
N 	N 	0.51140 0.38360 0.03200 -0.05400
N 	N 	0.80200 0.26940 0.90770 -0.05600
N 	N 	0.73610 0.30080 0.73300 -0.23300
N 	N 	0.22360 0.51670 0.72000 -0.17600
N 	N 	0.24250 0.22690 0.66970 -0.05500
N 	N 	0.75780 0.37230 0.49710 -0.13600
N 	N 	0.77340 0.33930 0.92030 -0.17000
N 	N 	0.21001 0.74590 0.02200 -0.24800
N 	N 	0.95820 0.77290 0.32770 -0.22500
N 	N 	0.83700 0.58110 0.26450 -0.23100
N 	N 	0.69800 0.21530 0.61230 -0.23400
N 	N 	0.08400 0.01210 0.94040 -0.09600
N 	N 	0.03060 0.89170 0.13530 -0.37900
N 	N 	0.54050 0.76300 0.44950 -0.04600
N 	N 	0.07500 0.73390 0.24540 -0.34300
N 	N 	0.34050 0.04250 0.45180 -0.26400
N 	N 	0.49350 0.37630 0.26470 -0.23400
N 	N 	0.56230 0.66020 0.89190 -0.23700
N 	N 	0.17520 0.81120 0.82680 -0.04200
N 	N 	0.82920 0.70970 0.48480 -0.23500
N 	N 	0.82760 0.75530 0.11950 -0.17100
N 	N 	0.04050 0.23700 0.05050 -0.07100
N 	N 	0.27310 0.21130 0.54200 -0.23300
N 	N 	0.44950 0.86250 0.84480 -0.12300
N 	N 	0.16610 0.46680 0.69060 -0.07600
N 	N 	0.54180 0.77290 0.82770 -0.23800
N 	N 	0.27640 0.51670 0.22000 -0.17600
N 	N 	0.21890 0.99870 0.49150 -0.22800
N 	N 	0.19800 0.73060 0.09230 -0.05900
N 	N 	0.25780 0.62770 0.00290 -0.15500
N 	N 	0.65950 0.95750 0.54820 -0.20800
N 	N 	0.80200 0.21530 0.11230 -0.23700
N 	N 	0.70790 0.80700 0.39030 -0.05000
N 	N 	0.49450 0.54440 0.70780 -0.04700
N 	N 	0.20790 0.19300 0.10970 -0.06500
N 	N 	0.25710 0.40830 0.34560 -0.28100
N 	N 	0.89960 0.05560 0.47440 -0.24300
N 	N 	0.77310 0.78870 0.95800 -0.22200
N 	N 	0.83390 0.53320 0.30940 -0.07100
N 	N 	0.72930 0.06320 0.32750 -0.05700
N 	N 	0.66610 0.53320 0.80940 -0.07200
N 	N 	0.23610 0.69920 0.76700 -0.23400
N 	N 	0.00650 0.37630 0.76470 -0.25600
N 	N 	0.76810 0.32930 0.61110 -0.27800
N 	N 	0.67520 0.18880 0.67320 -0.04700
N 	N 	0.84400 0.06570 0.01890 -0.23700
N 	N 	0.67240 0.75530 0.61950 -0.17000
N 	N 	0.32990 0.89930 0.62050 -0.23900
N 	N 	0.45950 0.23700 0.55050 -0.04800
N 	N 	0.05050 0.86250 0.34480 -0.13100
N 	N 	0.46570 0.76120 0.43330 -0.04300
N 	N 	0.42700 0.81160 0.49990 -0.23600
N 	N 	0.53060 0.10830 0.36470 -0.35100
N 	N 	0.69800 0.26940 0.40770 -0.05800
N 	N 	0.55610 0.64690 0.01110 -0.12500
N 	N 	0.30200 0.73060 0.59230 -0.05700
N 	N 	0.60040 0.05560 0.97440 -0.24600
N 	N 	0.30230 0.76070 0.25630 -0.05700
N 	N 	0.14800 0.83550 0.53200 -0.04300
N 	N 	0.78110 0.00130 0.50850 -0.30200
N 	N 	0.50650 0.62370 0.73530 -0.23300
N 	N 	0.27470 0.30450 0.39820 -0.13500
N 	N 	0.57500 0.26610 0.25460 -0.34900
N 	N 	0.17240 0.24470 0.88050 -0.17300
N 	N 	0.06230 0.33980 0.60810 -0.24500
N 	N 	0.58400 0.98790 0.55960 -0.03800
N 	N 	0.01140 0.61640 0.46800 -0.05500
N 	N 	0.72360 0.48330 0.78000 -0.17400
N 	N 	0.27340 0.66070 0.57970 -0.17300
N 	N 	0.94570 0.81460 0.02730 -0.22500
N 	N 	0.56710 0.83970 0.88780 -0.06400
N 	N 	0.05610 0.35310 0.48890 -0.12000
N 	N 	0.27070 0.93680 0.67250 -0.04600
N 	N 	0.17010 0.89930 0.12050 -0.24200
N 	N 	0.78999 0.25410 0.97800 -0.21900
N 	N 	0.79100 0.12560 0.48810 -0.23500
N 	N 	0.08140 0.94810 0.95750 -0.01600
N 	N 	0.22530 0.30450 0.89820 -0.13300
N 	N 	0.41860 0.94810 0.45750 -0.01900
N 	N 	0.71001 0.25410 0.47800 -0.23200
N 	N 	0.74220 0.37230 0.99710 -0.12100
N 	N 	0.79210 0.80700 0.89030 -0.04500
N 	N 	0.93770 0.66020 0.39190 -0.22600
N 	N 	0.07300 0.81160 0.99990 -0.21800
N 	N 	0.91600 0.98790 0.05960 -0.04000
N 	N 	0.31010 0.26880 0.14290 -0.23200
N 	N 	0.64220 0.69140 0.69810 -0.23500
N 	N 	0.65600 0.06570 0.51890 -0.23200
N 	N 	0.22690 0.21130 0.04200 -0.23900
N 	N 	0.94950 0.13750 0.65520 -0.12500
N 	N 	0.96570 0.23880 0.06670 -0.03300
N 	N 	0.98780 0.89150 0.39690 -0.14600
N 	N 	0.84050 0.95750 0.04820 -0.21200
N 	N 	0.98860 0.38360 0.53200 -0.03200
N 	N 	0.32480 0.81120 0.32680 -0.04200
N 	N 	0.45820 0.22710 0.17230 -0.24000
N 	N 	0.18990 0.26880 0.64290 -0.23200
N 	N 	0.72660 0.33930 0.42030 -0.17200
N 	N 	0.11660 0.59900 0.19190 -0.23200
N 	N 	0.15950 0.04250 0.95180 -0.26500
N 	N 	0.35200 0.83550 0.03200 -0.04600
N 	N 	0.77640 0.48330 0.28000 -0.17500
N 	N 	0.61660 0.40100 0.30810 -0.23300
N 	N 	0.73190 0.32930 0.11110 -0.27400
N 	N 	0.23190 0.67070 0.38890 -0.27800
N 	N 	0.82480 0.18880 0.17320 -0.04600
N 	N 	0.15600 0.93430 0.98110 -0.23100
N 	N 	0.34400 0.93430 0.48110 -0.23700
N 	N 	0.85780 0.69140 0.19810 -0.23400
N 	N 	0.46940 0.89170 0.63530 -0.35700
N 	N 	0.07750 0.52980 0.18150 -0.06500
N 	N 	0.33390 0.46680 0.19060 -0.07500
N 	N 	0.22660 0.66070 0.07970 -0.17500
N 	N 	0.76390 0.30080 0.23300 -0.23200
N 	N 	0.92500 0.26610 0.75460 -0.35500
N 	N 	0.67080 0.70970 0.98480 -0.22500
N 	N 	0.99350 0.62370 0.23530 -0.21200
N 	N 	0.12230 0.24560 0.82350 -0.07900
N 	N 	0.04180 0.22710 0.67230 -0.25500
N 	N 	0.30200 0.78470 0.38770 -0.23400
N 	N 	0.99450 0.45560 0.79220 -0.03200
N 	N 	0.72530 0.69550 0.60180 -0.13200
N 	N 	0.48860 0.61640 0.96800 -0.03200
N 	N 	0.58140 0.05190 0.54250 -0.06600
N 	N 	0.11750 0.96570 0.24300 -0.11900
N 	N 	0.42250 0.52980 0.68150 -0.06000
N 	N 	0.29100 0.87440 0.01190 -0.23700
N 	N 	0.28110 0.99870 0.99150 -0.21600
N 	N 	0.76180 0.49600 0.71630 -0.12500
N 	N 	0.00760 0.62380 0.39620 -0.05900
N 	N 	0.50550 0.45560 0.29220 -0.04700
N 	N 	0.25750 0.22690 0.16970 -0.05600
N 	N 	0.29210 0.19300 0.60970 -0.06100
N 	N 	0.88340 0.40100 0.80810 -0.23400
N 	N 	0.32920 0.29030 0.01520 -0.24500
N 	N 	0.80270 0.02410 0.75530 -0.07400
N 	N 	0.92250 0.47020 0.81850 -0.05500
N 	N 	0.73820 0.49600 0.21630 -0.12600
N 	N 	0.91860 0.05190 0.04250 -0.06200
N 	N 	0.53430 0.23880 0.56670 -0.04500
N 	N 	0.24290 0.40830 0.84560 -0.28200
N 	N 	0.44390 0.35310 0.98890 -0.09100
N 	N 	0.69770 0.23930 0.74370 -0.05900
N 	N 	0.08420 0.87570 0.53880 -0.06400
N 	N 	0.06710 0.16030 0.61220 -0.07700
N 	N 	0.37770 0.24560 0.32350 -0.07600
N 	N 	0.22930 0.93680 0.17250 -0.04700
N 	N 	0.01220 0.10850 0.60310 -0.18900
N 	N 	0.99240 0.37620 0.60380 -0.03600
N 	N 	0.61750 0.03430 0.25700 -0.13200
N 	N 	0.91580 0.12430 0.46120 -0.06300
N 	N 	0.57750 0.47020 0.31850 -0.06000
N 	N 	0.68990 0.73120 0.85710 -0.23200
N 	N 	0.10040 0.94440 0.52560 -0.22600
N 	N 	0.55430 0.81460 0.52730 -0.23000
N 	N 	0.39960 0.94440 0.02560 -0.22600
N 	N 	0.51220 0.89150 0.89690 -0.15300
N 	N 	0.38250 0.96570 0.74300 -0.11300
N 	N 	0.96940 0.10830 0.86470 -0.32100
N 	N 	0.85200 0.16450 0.46800 -0.04300
N 	N 	0.74250 0.77310 0.83030 -0.04600
N 	N 	0.26810 0.67070 0.88890 -0.28300
N 	N 	0.43290 0.16030 0.11220 -0.07700
N 	N 	0.24220 0.62770 0.50290 -0.13700
N 	N 	0.14220 0.30860 0.80190 -0.23700
N 	N 	0.43770 0.33980 0.10810 -0.23400
N 	N 	0.19730 0.97590 0.24470 -0.05500
N 	N 	0.67010 0.10070 0.37950 -0.24000
N 	N 	0.05430 0.18540 0.97270 -0.23700
N 	N 	0.44570 0.18540 0.47270 -0.23100
N 	N 	0.32760 0.24470 0.38050 -0.17500
N 	N 	0.70900 0.12560 0.98810 -0.23300
N 	N 	0.49240 0.62380 0.89620 -0.04600
N 	N 	0.75710 0.59170 0.15440 -0.28100
N 	N 	0.77070 0.06320 0.82750 -0.05700
N 	N 	0.95950 0.76300 0.94950 -0.02600
N 	N 	0.19770 0.76070 0.75630 -0.05800
N 	N 	0.64800 0.16450 0.96800 -0.04200
N 	N 	0.38340 0.59900 0.69190 -0.23300
N 	N 	0.55050 0.13750 0.15520 -0.13400
N 	N 	0.92700 0.18840 0.00010 -0.25000
N 	N 	0.88250 0.03430 0.75700 -0.12600
N 	N 	0.20900 0.87440 0.51190 -0.23500
N 	N 	0.23820 0.50400 0.28370 -0.12600
N 	N 	0.93290 0.83970 0.38780 -0.06500
N 	N 	0.87770 0.75440 0.17650 -0.06900
N 	N 	0.03430 0.76120 0.93330 -0.05100
N 	N 	0.57300 0.18840 0.50010 -0.23700
N 	N 	0.30270 0.97590 0.74470 -0.05200
N 	N 	0.42500 0.73390 0.74540 -0.34900
N 	N 	0.35780 0.30860 0.30190 -0.23600
N 	N 	0.17080 0.29030 0.51520 -0.23600
N 	N 	0.26180 0.50400 0.78370 -0.12500
N 	N 	0.16300 0.41890 0.73550 -0.23400
N 	N 	0.48780 0.10850 0.10310 -0.17800
N 	N 	0.28999 0.74590 0.52200 -0.23200
N 	N 	0.41600 0.01210 0.44040 -0.09100
N 	N 	0.94390 0.64690 0.51110 -0.09500
N 	N 	0.50760 0.37620 0.10380 -0.05000
N 	N 	0.19800 0.78470 0.88770 -0.23000
N 	N 	0.80230 0.23930 0.24370 -0.05800
N 	N 	0.81010 0.73120 0.35710 -0.23200
N 	N 	0.41580 0.87570 0.03880 -0.06400
N 	N 	0.82990 0.10070 0.87950 -0.23900
N 	N 	0.26390 0.69920 0.26700 -0.23300
N 	N 	0.74290 0.59170 0.65440 -0.28200
N 	N 	0.71890 0.00130 0.00850 -0.30700
N 	N 	0.62230 0.75440 0.67650 -0.07200
N 	N 	0.58420 0.12430 0.96120 -0.06600
N 	N 	0.00550 0.54440 0.20780 -0.06300
N 	N 	0.77470 0.69550 0.10180 -0.13400
