data_crystal

_cell_length_a 13.65500
_cell_length_b 15.18900
_cell_length_c 20.91210
_cell_angle_alpha 90.00000
_cell_angle_beta  102.48800
_cell_angle_gamma 90.00000

_symmetry_space_group_name_	'P 1'
_symmetry_space_group_name_H-M	'P 1'

loop_
_symmetry_equiv_pos_as_xyz
  x,y,z

loop_
_atom_site_label
_atom_site_type_symbol
_atom_site_fract_x
_atom_site_fract_y
_atom_site_fract_z
_atom_site_charge
Co	Co	0.24474 0.25907 0.46109 1.10600
Co	Co	0.81889 0.25703 0.60305 1.10700
Co	Co	0.29857 0.36575 0.79981 1.13300
Co	Co	0.25526 0.75907 0.03891 1.10600
Co	Co	0.68111 0.75703 0.89695 1.10700
Co	Co	0.20143 0.86575 0.70019 1.13300
Co	Co	0.75526 0.74093 0.53891 1.10600
Co	Co	0.18111 0.74297 0.39695 1.10700
Co	Co	0.70143 0.63425 0.20019 1.13300
Co	Co	0.74474 0.24093 0.96109 1.10600
Co	Co	0.31889 0.24297 0.10305 1.10700
Co	Co	0.79857 0.13425 0.29981 1.13300
H 	H 	0.45030 0.34950 0.69640 0.02300
H 	H 	0.43330 0.31980 0.58590 0.00800
H 	H 	0.00360 0.23010 0.41010 0.01000
H 	H 	0.86300 0.23270 0.45640 0.01200
H 	H 	0.91410 0.30550 0.76070 0.00800
H 	H 	0.07030 0.33720 0.82380 0.02100
H 	H 	0.04970 0.84950 0.80360 0.02200
H 	H 	0.06670 0.81980 0.91410 0.00700
H 	H 	0.49640 0.73010 0.08990 0.00900
H 	H 	0.63700 0.73270 0.04360 0.01100
H 	H 	0.58590 0.80550 0.73930 0.00700
H 	H 	0.42970 0.83720 0.67620 0.02000
H 	H 	0.54970 0.65050 0.30360 0.02200
H 	H 	0.56670 0.68020 0.41410 0.00700
H 	H 	0.99640 0.76990 0.58990 0.00900
H 	H 	0.13700 0.76730 0.54360 0.01100
H 	H 	0.08590 0.69450 0.23930 0.00700
H 	H 	0.92970 0.66280 0.17620 0.02000
H 	H 	0.95030 0.15050 0.19640 0.02200
H 	H 	0.93330 0.18020 0.08590 0.00700
H 	H 	0.50360 0.26990 0.91010 0.00900
H 	H 	0.36300 0.26730 0.95640 0.01100
H 	H 	0.41410 0.19450 0.26070 0.00700
H 	H 	0.57030 0.16280 0.32380 0.02000
C 	C 	0.31780 0.14320 0.81180 0.02200
C 	C 	0.20770 0.29720 0.59450 0.00900
C 	C 	0.10810 0.27520 0.55490 0.00600
C 	C 	0.02640 0.27480 0.58220 0.01000
C 	C 	0.03700 0.29530 0.65140 0.00400
C 	C 	0.13010 0.31550 0.69050 0.02500
C 	C 	0.21940 0.31660 0.66030 0.01700
C 	C 	0.38580 0.33580 0.67070 0.00500
C 	C 	0.37580 0.31690 0.60460 0.00100
C 	C 	0.01210 0.24260 0.45550 0.00700
C 	C 	0.92720 0.24280 0.48370 0.00200
C 	C 	0.96980 0.30790 0.74030 0.00700
C 	C 	0.06380 0.32690 0.77830 0.00700
C 	C 	0.27200 0.05830 0.50930 0.18500
C 	C 	0.24240 0.43930 0.92740 0.16800
C 	C 	0.15520 0.23540 0.31000 0.17500
C 	C 	0.68010 0.26910 0.70620 0.15600
C 	C 	0.46920 0.25330 0.44220 0.14600
C 	C 	0.63680 0.23920 0.48190 0.16300
C 	C 	0.87610 0.05600 0.64000 0.17300
C 	C 	0.52250 0.44220 0.83570 0.17400
C 	C 	0.18220 0.64320 0.68820 0.02200
C 	C 	0.29230 0.79720 0.90550 0.00900
C 	C 	0.39190 0.77520 0.94510 0.00700
C 	C 	0.47360 0.77480 0.91780 0.01000
C 	C 	0.46300 0.79530 0.84860 0.00400
C 	C 	0.36990 0.81550 0.80950 0.02500
C 	C 	0.28060 0.81660 0.83970 0.01700
C 	C 	0.11420 0.83580 0.82930 0.00500
C 	C 	0.12420 0.81690 0.89540 0.00100
C 	C 	0.48790 0.74260 0.04450 0.00700
C 	C 	0.57280 0.74280 0.01630 0.00100
C 	C 	0.53020 0.80790 0.75970 0.00800
C 	C 	0.43620 0.82690 0.72170 0.00600
C 	C 	0.22800 0.55830 0.99070 0.18600
C 	C 	0.25760 0.93930 0.57260 0.16800
C 	C 	0.34480 0.73540 0.19000 0.17500
C 	C 	0.81990 0.76910 0.79380 0.15600
C 	C 	0.03080 0.75330 0.05780 0.14400
C 	C 	0.86320 0.73920 0.01810 0.16300
C 	C 	0.62390 0.55600 0.86000 0.17300
C 	C 	0.97750 0.94220 0.66430 0.17300
C 	C 	0.68220 0.85680 0.18820 0.02200
C 	C 	0.79230 0.70280 0.40550 0.00900
C 	C 	0.89190 0.72480 0.44510 0.00600
C 	C 	0.97360 0.72520 0.41780 0.01000
C 	C 	0.96300 0.70470 0.34860 0.00400
C 	C 	0.86990 0.68450 0.30950 0.02500
C 	C 	0.78060 0.68340 0.33970 0.01700
C 	C 	0.61420 0.66420 0.32930 0.00500
C 	C 	0.62420 0.68310 0.39540 0.00100
C 	C 	0.98790 0.75740 0.54450 0.00700
C 	C 	0.07280 0.75720 0.51630 0.00200
C 	C 	0.03020 0.69210 0.25970 0.00700
C 	C 	0.93620 0.67310 0.22170 0.00700
C 	C 	0.72800 0.94170 0.49070 0.18500
C 	C 	0.75760 0.56070 0.07260 0.16800
C 	C 	0.84480 0.76460 0.69000 0.17500
C 	C 	0.31990 0.73090 0.29380 0.15600
C 	C 	0.53080 0.74670 0.55780 0.14600
C 	C 	0.36320 0.76080 0.51810 0.16300
C 	C 	0.12390 0.94400 0.36000 0.17300
C 	C 	0.47750 0.55780 0.16430 0.17400
C 	C 	0.81780 0.35680 0.31180 0.02200
C 	C 	0.70770 0.20280 0.09450 0.00900
C 	C 	0.60810 0.22480 0.05490 0.00700
C 	C 	0.52640 0.22520 0.08220 0.01000
C 	C 	0.53700 0.20470 0.15140 0.00400
C 	C 	0.63010 0.18450 0.19050 0.02500
C 	C 	0.71940 0.18340 0.16030 0.01700
C 	C 	0.88580 0.16420 0.17070 0.00500
C 	C 	0.87580 0.18310 0.10460 0.00100
C 	C 	0.51210 0.25740 0.95550 0.00700
C 	C 	0.42720 0.25720 0.98370 0.00100
C 	C 	0.46980 0.19210 0.24030 0.00800
C 	C 	0.56380 0.17310 0.27830 0.00600
C 	C 	0.77200 0.44170 0.00930 0.18600
C 	C 	0.74240 0.06070 0.42740 0.16800
C 	C 	0.65520 0.26460 0.81000 0.17500
C 	C 	0.18010 0.23090 0.20620 0.15600
C 	C 	0.96920 0.24670 0.94220 0.14400
C 	C 	0.13680 0.26080 0.98190 0.16300
C 	C 	0.37610 0.44400 0.14000 0.17300
C 	C 	0.02250 0.05780 0.33570 0.17300
N 	N 	0.28670 0.29460 0.56620 -0.21700
N 	N 	0.10230 0.25910 0.48980 -0.22400
N 	N 	0.93410 0.25670 0.54670 -0.22400
N 	N 	0.95500 0.29300 0.67690 -0.21900
N 	N 	0.14460 0.33110 0.75330 -0.21000
N 	N 	0.30740 0.33510 0.69910 -0.20800
N 	N 	0.26020 0.12890 0.48890 -0.28700
N 	N 	0.28840 0.97950 0.52370 -0.19700
N 	N 	0.26260 0.39910 0.88680 -0.29000
N 	N 	0.17920 0.24360 0.36360 -0.30800
N 	N 	0.11830 0.22330 0.24660 -0.19000
N 	N 	0.72590 0.26580 0.66680 -0.30400
N 	N 	0.38800 0.26500 0.44610 -0.29800
N 	N 	0.56170 0.26500 0.43030 -0.18000
N 	N 	0.70530 0.24260 0.52070 -0.30200
N 	N 	0.84760 0.12630 0.62340 -0.28500
N 	N 	0.89140 0.97620 0.65550 -0.20000
N 	N 	0.44970 0.40130 0.82490 -0.28400
N 	N 	0.32570 0.23730 0.82480 -0.23700
N 	N 	0.25450 0.49150 0.76460 -0.22100
N 	N 	0.21330 0.79460 0.93380 -0.21700
N 	N 	0.39770 0.75910 0.01020 -0.22400
N 	N 	0.56590 0.75670 0.95330 -0.22300
N 	N 	0.54500 0.79300 0.82310 -0.21900
N 	N 	0.35540 0.83110 0.74670 -0.21000
N 	N 	0.19260 0.83510 0.80090 -0.20800
N 	N 	0.23980 0.62890 0.01110 -0.28800
N 	N 	0.21160 0.47950 0.97630 -0.19700
N 	N 	0.23740 0.89910 0.61320 -0.29000
N 	N 	0.32080 0.74360 0.13640 -0.30800
N 	N 	0.38170 0.72330 0.25340 -0.19000
N 	N 	0.77410 0.76580 0.83320 -0.30400
N 	N 	0.11200 0.76500 0.05390 -0.29800
N 	N 	0.93830 0.76500 0.06970 -0.18000
N 	N 	0.79470 0.74260 0.97930 -0.30200
N 	N 	0.65240 0.62630 0.87660 -0.28500
N 	N 	0.60860 0.47620 0.84450 -0.20000
N 	N 	0.05030 0.90130 0.67510 -0.28300
N 	N 	0.17430 0.73730 0.67520 -0.23700
N 	N 	0.24550 0.99150 0.73540 -0.22100
N 	N 	0.71330 0.70540 0.43380 -0.21700
N 	N 	0.89770 0.74090 0.51020 -0.22400
N 	N 	0.06590 0.74330 0.45330 -0.22400
N 	N 	0.04500 0.70700 0.32310 -0.21900
N 	N 	0.85540 0.66890 0.24670 -0.21000
N 	N 	0.69260 0.66490 0.30090 -0.20800
N 	N 	0.73980 0.87110 0.51110 -0.28700
N 	N 	0.71160 0.02050 0.47630 -0.19700
N 	N 	0.73740 0.60090 0.11320 -0.29000
N 	N 	0.82080 0.75640 0.63640 -0.30800
N 	N 	0.88170 0.77670 0.75340 -0.19000
N 	N 	0.27410 0.73420 0.33320 -0.30400
N 	N 	0.61200 0.73500 0.55390 -0.29800
N 	N 	0.43830 0.73500 0.56970 -0.18000
N 	N 	0.29470 0.75740 0.47930 -0.30200
N 	N 	0.15240 0.87370 0.37660 -0.28500
N 	N 	0.10860 0.02380 0.34450 -0.20000
N 	N 	0.55030 0.59870 0.17510 -0.28400
N 	N 	0.67430 0.76270 0.17520 -0.23700
N 	N 	0.74550 0.50850 0.23540 -0.22100
N 	N 	0.78670 0.20540 0.06620 -0.21700
N 	N 	0.60230 0.24090 0.98980 -0.22400
N 	N 	0.43410 0.24330 0.04670 -0.22300
N 	N 	0.45500 0.20700 0.17690 -0.21900
N 	N 	0.64460 0.16890 0.25330 -0.21000
N 	N 	0.80740 0.16490 0.19910 -0.20800
N 	N 	0.76020 0.37110 0.98890 -0.28800
N 	N 	0.78840 0.52050 0.02370 -0.19700
N 	N 	0.76260 0.10090 0.38680 -0.29000
N 	N 	0.67920 0.25640 0.86360 -0.30800
N 	N 	0.61830 0.27670 0.74660 -0.19000
N 	N 	0.22590 0.23420 0.16680 -0.30400
N 	N 	0.88800 0.23500 0.94610 -0.29800
N 	N 	0.06170 0.23500 0.93030 -0.18000
N 	N 	0.20530 0.25740 0.02070 -0.30200
N 	N 	0.34760 0.37370 0.12340 -0.28500
N 	N 	0.39140 0.52380 0.15550 -0.20000
N 	N 	0.94970 0.09870 0.32490 -0.28300
N 	N 	0.82570 0.26270 0.32480 -0.23700
N 	N 	0.75450 0.00850 0.26460 -0.22100
