data_crystal

_cell_length_a 14.02400
_cell_length_b 23.25300
_cell_length_c 23.45500
_cell_angle_alpha 107.68000
_cell_angle_beta  90.00000
_cell_angle_gamma 90.00000

_symmetry_space_group_name_	'P 1'
_symmetry_space_group_name_H-M	'P 1'

loop_
_symmetry_equiv_pos_as_xyz
  x,y,z

loop_
_atom_site_label
_atom_site_type_symbol
_atom_site_fract_x
_atom_site_fract_y
_atom_site_fract_z
_atom_site_charge
Ce	Ce	0.55728 0.75250 0.20764 2.04200
Ce	Ce	0.79717 0.48888 0.22636 2.04500
Ce	Ce	0.44272 0.24750 0.79236 2.04200
Ce	Ce	0.80049 0.22312 0.99638 2.04200
Ce	Ce	0.14470 0.25780 0.20924 2.04500
Ce	Ce	0.94272 0.25250 0.70764 2.04200
Ce	Ce	0.29717 0.01112 0.27365 2.04500
Ce	Ce	0.64470 0.24220 0.29076 2.04500
Ce	Ce	0.19951 0.77688 0.00362 2.04200
Ce	Ce	0.20283 0.51112 0.77365 2.04500
Ce	Ce	0.69951 0.72312 0.49639 2.04500
Ce	Ce	0.85530 0.74220 0.79076 2.04600
Ce	Ce	0.05728 0.74750 0.29236 2.04300
Ce	Ce	0.70283 0.98888 0.72635 2.04600
Ce	Ce	0.30049 0.27688 0.50362 2.04500
Ce	Ce	0.35530 0.75780 0.70924 2.04600
H 	H 	0.15480 0.27320 0.63250 -0.05500
H 	H 	0.71760 0.13510 0.46050 0.10700
H 	H 	0.39710 0.59960 0.60650 0.01100
H 	H 	0.44340 0.42730 0.10260 0.02000
H 	H 	0.32950 0.36730 0.91090 -0.00400
H 	H 	0.90260 0.30490 0.27190 -0.04000
H 	H 	0.36370 0.37390 0.74560 -0.05600
H 	H 	0.72650 0.04780 0.60910 -0.01400
H 	H 	0.27350 0.95220 0.39090 -0.01400
H 	H 	0.67830 0.54530 0.60590 0.15400
H 	H 	0.37000 0.30680 0.03560 0.01500
H 	H 	0.73580 0.36200 0.11020 -0.06300
H 	H 	0.42290 0.70560 0.46680 0.00800
H 	H 	0.90560 0.83210 0.53320 0.00700
H 	H 	0.14810 0.62900 0.45360 0.09400
H 	H 	0.05220 0.17260 0.80040 0.00500
H 	H 	0.59550 0.11080 0.17480 -0.01100
H 	H 	0.09770 0.15420 0.68580 -0.02600
H 	H 	0.49140 0.78850 0.84910 0.00100
H 	H 	0.99140 0.71150 0.65090 0.00100
H 	H 	0.53550 0.65610 0.04150 0.00200
H 	H 	0.31460 0.39160 0.65250 -0.05700
H 	H 	0.46450 0.34390 0.95850 0.00200
H 	H 	0.68540 0.60840 0.34750 -0.05700
H 	H 	0.95830 0.45610 0.09430 0.00100
H 	H 	0.21220 0.19500 0.83930 0.01400
H 	H 	0.08130 0.10800 0.26310 -0.03800
H 	H 	0.54370 0.06450 0.84630 -0.00000
H 	H 	0.84520 0.72680 0.36750 -0.05500
H 	H 	0.74650 0.63930 0.61270 -0.04100
H 	H 	0.14070 0.77170 0.62760 0.00400
H 	H 	0.50860 0.21150 0.15090 0.00100
H 	H 	0.94010 0.50620 0.77310 0.01100
H 	H 	0.39720 0.51050 0.87940 0.00500
H 	H 	0.90450 0.61080 0.67480 -0.01100
H 	H 	0.09440 0.16790 0.46680 0.00700
H 	H 	0.24650 0.86070 0.88730 -0.04100
H 	H 	0.76420 0.86200 0.61020 -0.06300
H 	H 	0.22710 0.73700 0.83850 -0.05600
H 	H 	0.06870 0.76130 0.88370 -0.07300
H 	H 	0.80160 0.87430 0.09540 0.01500
H 	H 	0.07710 0.20560 0.96680 0.01400
H 	H 	0.78780 0.80500 0.16070 0.01400
H 	H 	0.40450 0.88920 0.82520 -0.01100
H 	H 	0.28780 0.69500 0.33930 0.01400
H 	H 	0.95760 0.30580 0.57980 -0.03600
H 	H 	0.55220 0.32740 0.69960 0.00200
H 	H 	0.17050 0.86730 0.41090 -0.00400
H 	H 	0.13630 0.87390 0.24560 -0.05600
H 	H 	0.94780 0.82740 0.19960 0.00500
H 	H 	0.06430 0.28530 0.45230 -0.00400
H 	H 	0.56430 0.21470 0.04770 -0.00300
H 	H 	0.34520 0.77320 0.13250 -0.05500
H 	H 	0.27290 0.23700 0.33850 -0.05600
H 	H 	0.93130 0.23870 0.11630 -0.07300
H 	H 	0.02840 0.86510 0.81040 0.00100
H 	H 	0.19620 0.85890 0.76960 -0.02000
H 	H 	0.03610 0.65150 0.98730 -0.00500
H 	H 	0.09740 0.69510 0.72810 -0.04000
H 	H 	0.83100 0.28030 0.86180 -0.05300
H 	H 	0.43570 0.78530 0.95230 -0.00300
H 	H 	0.93570 0.71470 0.54770 -0.00400
H 	H 	0.27400 0.13840 0.70300 -0.00600
H 	H 	0.23580 0.13800 0.38980 -0.06300
H 	H 	0.59770 0.34580 0.81420 -0.02700
H 	H 	0.28240 0.86490 0.53950 0.10700
H 	H 	0.59440 0.33210 0.03320 0.00800
H 	H 	0.19580 0.19660 0.04930 -0.00200
H 	H 	0.39060 0.87090 0.27280 -0.05500
H 	H 	0.40260 0.19510 0.22810 -0.04000
H 	H 	0.60940 0.12910 0.72720 -0.05500
H 	H 	0.69840 0.37430 0.59540 0.01400
H 	H 	0.54170 0.95610 0.59430 0.00100
H 	H 	0.82950 0.13270 0.58910 -0.00400
H 	H 	0.08760 0.99720 0.97480 0.00200
H 	H 	0.70100 0.19480 0.71380 -0.04500
H 	H 	0.30160 0.62570 0.40460 0.01400
H 	H 	0.58130 0.39200 0.23690 -0.03800
H 	H 	0.05890 0.87520 0.68010 0.10300
H 	H 	0.00860 0.28850 0.34910 0.00100
H 	H 	0.19840 0.12570 0.90460 0.01500
H 	H 	0.63000 0.69320 0.96440 0.01500
H 	H 	0.09550 0.38920 0.32520 -0.01100
H 	H 	0.22650 0.45220 0.89090 -0.01400
H 	H 	0.75350 0.13930 0.11270 -0.04100
H 	H 	0.89060 0.62910 0.22720 -0.05600
H 	H 	0.90230 0.84580 0.31420 -0.02600
H 	H 	0.81460 0.10840 0.84750 -0.05700
H 	H 	0.15650 0.00460 0.12780 0.00200
H 	H 	0.98330 0.15640 0.89850 -0.01700
H 	H 	0.55660 0.57270 0.89740 0.02000
H 	H 	0.92290 0.79440 0.03320 0.01400
H 	H 	0.72710 0.76300 0.66150 -0.05600
H 	H 	0.63590 0.13150 0.37410 -0.04100
H 	H 	0.30380 0.35890 0.26960 -0.02100
H 	H 	0.26420 0.63800 0.88980 -0.06300
H 	H 	0.43130 0.26130 0.38370 -0.07200
H 	H 	0.47160 0.36510 0.31040 -0.00000
H 	H 	0.89720 0.98950 0.62060 0.00500
H 	H 	0.26740 0.14310 0.24550 -0.08000
H 	H 	0.13590 0.36850 0.12590 -0.04200
H 	H 	0.94340 0.07270 0.39740 0.02000
H 	H 	0.96390 0.34850 0.01270 -0.00500
H 	H 	0.94110 0.12480 0.31990 0.10300
H 	H 	0.52840 0.63490 0.68960 -0.00000
H 	H 	0.96450 0.15610 0.54150 0.00200
H 	H 	0.55990 0.00620 0.27310 0.01100
H 	H 	0.54240 0.80580 0.07980 -0.03600
H 	H 	0.86370 0.12610 0.75440 -0.05600
H 	H 	0.76740 0.35690 0.25450 -0.08000
H 	H 	0.89710 0.90040 0.89350 0.01000
H 	H 	0.55890 0.62480 0.81990 0.10300
H 	H 	0.64810 0.87100 0.04640 0.09500
H 	H 	0.05580 0.54380 0.66470 -0.00300
H 	H 	0.03550 0.84390 0.45850 0.00200
H 	H 	0.52990 0.86010 0.66620 -0.04900
H 	H 	0.73260 0.85690 0.75450 -0.08000
H 	H 	0.40560 0.66790 0.96680 0.00800
H 	H 	0.18540 0.89160 0.15250 -0.05700
H 	H 	0.78240 0.63510 0.96050 0.10600
H 	H 	0.30420 0.69660 0.54930 -0.00100
H 	H 	0.58760 0.50280 0.52520 0.00500
H 	H 	0.44420 0.04380 0.16470 -0.00200
H 	H 	0.35190 0.12900 0.95360 0.09500
H 	H 	0.05660 0.92730 0.60260 0.02000
H 	H 	0.77400 0.36160 0.79700 -0.00700
H 	H 	0.22600 0.63840 0.20300 -0.00700
H 	H 	0.51670 0.65640 0.39850 -0.01600
H 	H 	0.04170 0.54390 0.90570 0.00100
H 	H 	0.01670 0.84360 0.10150 -0.01700
H 	H 	0.66900 0.78030 0.36180 -0.05300
H 	H 	0.63630 0.62610 0.25440 -0.05600
H 	H 	0.36410 0.86850 0.62590 -0.04100
H 	H 	0.47010 0.13990 0.33380 -0.04900
H 	H 	0.08750 0.36470 0.55100 -0.00500
H 	H 	0.67050 0.63270 0.08910 -0.00400
H 	H 	0.84240 0.40930 0.73890 0.00600
H 	H 	0.60280 0.48950 0.12060 0.00500
H 	H 	0.57710 0.29440 0.53320 0.00800
H 	H 	0.71220 0.30500 0.66070 0.01400
H 	H 	0.44010 0.99380 0.72690 0.01100
H 	H 	0.32170 0.45470 0.39410 0.15400
H 	H 	0.44110 0.37520 0.18010 0.10300
H 	H 	0.41330 0.42370 0.53550 -0.00200
H 	H 	0.45630 0.93550 0.15370 -0.00000
H 	H 	0.97010 0.36010 0.16620 -0.04900
H 	H 	0.13000 0.80680 0.53560 0.01500
H 	H 	0.55580 0.95620 0.83530 -0.00200
H 	H 	0.65760 0.90930 0.23890 0.00600
H 	H 	0.08670 0.92370 0.03550 0.00100
H 	H 	0.29900 0.80520 0.28620 -0.04500
H 	H 	0.23260 0.64310 0.74550 -0.08000
H 	H 	0.58750 0.13530 0.94900 -0.00500
H 	H 	0.44780 0.67260 0.30040 0.00200
H 	H 	0.10940 0.37090 0.77280 -0.05600
H 	H 	0.02990 0.63990 0.83380 -0.04900
H 	H 	0.53610 0.84850 0.51270 -0.00700
H 	H 	0.79900 0.69480 0.21380 -0.04500
H 	H 	0.56870 0.73870 0.61630 -0.07200
H 	H 	0.15760 0.59070 0.26110 0.00600
H 	H 	0.91240 0.00280 0.02520 0.00200
H 	H 	0.41870 0.60800 0.76310 -0.03800
H 	H 	0.97160 0.13490 0.18960 0.00100
H 	H 	0.34350 0.50460 0.62780 0.00200
H 	H 	0.64070 0.72830 0.87240 0.00400
H 	H 	0.25350 0.36070 0.38730 -0.04100
H 	H 	0.85190 0.37100 0.54640 0.09400
H 	H 	0.45760 0.19420 0.92020 -0.03600
H 	H 	0.77290 0.26300 0.16150 -0.05600
H 	H 	0.86410 0.63150 0.87410 -0.04200
H 	H 	0.85930 0.22830 0.37240 0.00400
H 	H 	0.48330 0.34360 0.60150 -0.01600
H 	H 	0.04370 0.43550 0.65370 0.00000
H 	H 	0.45830 0.04390 0.40570 0.00100
H 	H 	0.40230 0.65420 0.18580 -0.02700
H 	H 	0.33100 0.21970 0.63820 -0.05300
H 	H 	0.95630 0.56450 0.34630 0.00000
H 	H 	0.05990 0.49380 0.22690 0.01100
H 	H 	0.84350 0.99540 0.87220 0.00200
H 	H 	0.60290 0.40040 0.39350 0.01100
H 	H 	0.21760 0.36490 0.03950 0.10600
H 	H 	0.87000 0.19320 0.46440 0.01500
H 	H 	0.72600 0.86160 0.29700 -0.00600
H 	H 	0.91330 0.07630 0.96450 0.00100
H 	H 	0.82170 0.04530 0.10590 0.15500
H 	H 	0.16900 0.71970 0.13820 -0.05300
H 	H 	0.58670 0.57630 0.46450 -0.00200
H 	H 	0.59740 0.80490 0.77190 -0.04000
H 	H 	0.69580 0.30340 0.45070 -0.00100
H 	H 	0.94420 0.45620 0.33530 -0.00300
H 	H 	0.04240 0.69420 0.42020 -0.03600
H 	H 	0.10290 0.09960 0.10650 0.01000
H 	H 	0.34240 0.09070 0.76110 0.00600
H 	H 	0.35930 0.27170 0.12760 0.00400
H 	H 	0.41250 0.86470 0.05100 -0.00500
H 	H 	0.77350 0.54780 0.10910 -0.01400
H 	H 	0.80420 0.80340 0.95070 -0.00200
H 	H 	0.41240 0.49720 0.47480 0.00500
H 	H 	0.17830 0.95470 0.89410 0.15500
H 	H 	0.65650 0.49540 0.37220 0.00200
H 	H 	0.69620 0.64110 0.73040 -0.02100
H 	H 	0.91250 0.63530 0.44900 -0.00500
H 	H 	0.91870 0.89200 0.73690 -0.03800
H 	H 	0.46390 0.15150 0.48730 -0.00700
H 	H 	0.10280 0.01050 0.37940 0.00500
H 	H 	0.20100 0.30520 0.78620 -0.04500
H 	H 	0.80380 0.14110 0.23040 -0.02000
H 	H 	0.65480 0.22680 0.86750 -0.05500
C 	C 	0.74290 0.81460 0.13400 -0.02000
C 	C 	0.26400 0.67272 0.21646 0.00500
C 	C 	0.06350 0.21100 0.00817 -0.00700
C 	C 	0.89020 0.31080 0.58910 0.09200
C 	C 	0.75710 0.31460 0.63400 -0.02000
C 	C 	0.51530 0.72692 0.58899 0.07000
C 	C 	0.46860 0.07131 0.19998 -0.01500
C 	C 	0.14170 0.18100 0.70632 -0.03700
C 	C 	0.75120 0.85020 0.09830 0.01400
C 	C 	0.09050 0.58655 0.25260 -0.01000
C 	C 	0.24290 0.68540 0.36600 -0.02000
C 	C 	0.58420 0.86649 0.54334 -0.01200
C 	C 	0.03140 0.57131 0.69998 -0.01200
C 	C 	0.04770 0.39260 0.29502 -0.02100
C 	C 	0.50570 0.69249 0.32665 -0.02400
C 	C 	0.14290 0.09518 0.13686 -0.01200
C 	C 	0.06340 0.83037 0.78721 -0.00200
C 	C 	0.43270 0.78010 0.86232 -0.01000
C 	C 	0.67880 0.68270 0.93470 0.02100
C 	C 	0.23510 0.12172 0.21318 0.07500
C 	C 	0.84430 0.17222 0.23282 -0.03000
C 	C 	0.67320 0.45533 0.35093 -0.00400
C 	C 	0.09020 0.18777 0.51165 -0.01200
C 	C 	0.24880 0.14980 0.90170 0.01400
C 	C 	0.48430 0.12374 0.29205 0.08200
C 	C 	0.67280 0.61952 0.12607 -0.02500
C 	C 	0.59020 0.31223 0.98835 -0.01400
C 	C 	0.25710 0.18540 0.86600 -0.02000
C 	C 	0.43660 0.33037 0.28721 -0.00200
C 	C 	0.11770 0.96270 0.96910 0.05300
C 	C 	0.12320 0.74734 0.14052 0.09800
C 	C 	0.93650 0.78900 0.99183 -0.00700
C 	C 	0.07570 0.04060 0.35920 -0.01700
C 	C 	0.82720 0.11952 0.62607 -0.02500
C 	C 	0.12410 0.21060 0.05310 -0.00800
C 	C 	0.65360 0.61418 0.21485 0.08500
C 	C 	0.81700 0.20280 0.38590 -0.02300
C 	C 	0.17280 0.88048 0.37393 -0.02500
C 	C 	0.46100 0.31609 0.62242 -0.00900
C 	C 	0.58660 0.92209 0.58552 -0.01100
C 	C 	0.62810 0.11981 0.91686 -0.01500
C 	C 	0.31700 0.29720 0.11410 -0.02300
C 	C 	0.99270 0.07140 0.36890 0.01600
C 	C 	0.32120 0.31730 0.06530 0.02100
C 	C 	0.26860 0.42479 0.86645 -0.00500
C 	C 	0.73510 0.37828 0.28682 0.07600
C 	C 	0.43650 0.71100 0.50817 0.00400
C 	C 	0.64170 0.31900 0.79368 -0.03700
C 	C 	0.87830 0.75429 0.39998 0.07100
C 	C 	0.39950 0.23766 0.24505 0.08800
C 	C 	0.76400 0.82728 0.28354 0.00500
C 	C 	0.80870 0.65060 0.88410 0.10900
C 	C 	0.73140 0.57521 0.13355 -0.00500
C 	C 	0.90980 0.81223 0.48835 -0.01200
C 	C 	0.04160 0.53360 0.23100 -0.01900
C 	C 	0.00730 0.92860 0.63110 0.01600
C 	C 	0.37830 0.74571 0.10002 0.07100
C 	C 	0.37190 0.88019 0.08314 -0.01500
C 	C 	0.01530 0.77308 0.91101 0.07400
C 	C 	0.88230 0.03730 0.03090 0.05300
C 	C 	0.87680 0.25266 0.85948 0.09800
C 	C 	0.42430 0.54060 0.85920 -0.01400
C 	C 	0.55180 0.10636 0.73077 0.05200
C 	C 	0.25120 0.64980 0.40170 0.01400
C 	C 	0.39020 0.18920 0.91090 0.09300
C 	C 	0.87670 0.07790 0.99990 -0.04000
C 	C 	0.08660 0.57791 0.91448 -0.01000
C 	C 	0.23140 0.92479 0.36645 -0.00600
C 	C 	0.20530 0.88720 0.92040 0.11900
C 	C 	0.19800 0.26425 0.76198 0.09500
C 	C 	0.76860 0.07521 0.63355 -0.00600
C 	C 	0.56730 0.21990 0.13768 -0.01000
C 	C 	0.69800 0.23575 0.73802 0.09500
C 	C 	0.23600 0.17272 0.71646 0.00500
C 	C 	0.10440 0.41914 0.63734 -0.01700
C 	C 	0.79470 0.11280 0.07960 0.11900
C 	C 	0.01570 0.62374 0.79205 0.08500
C 	C 	0.59050 0.91345 0.24740 -0.01000
C 	C 	0.91340 0.42209 0.08552 -0.01000
C 	C 	0.53140 0.92869 0.80002 -0.01500
C 	C 	0.62330 0.57790 0.49990 -0.02900
C 	C 	0.03900 0.81609 0.12242 -0.00800
C 	C 	0.87590 0.78940 0.94690 -0.00800
C 	C 	0.18300 0.79720 0.61410 -0.02300
C 	C 	0.49270 0.42860 0.13110 0.01300
C 	C 	0.10980 0.68920 0.41090 0.09200
C 	C 	0.60050 0.76234 0.75495 0.08800
C 	C 	0.28830 0.75016 0.85596 0.07700
C 	C 	0.32720 0.38048 0.87393 -0.02500
C 	C 	0.93270 0.71990 0.63768 -0.01000
C 	C 	0.52080 0.31896 0.94981 -0.00100
C 	C 	0.49430 0.30751 0.67335 -0.02400
C 	C 	0.34430 0.32778 0.26718 -0.03000
C 	C 	0.41580 0.13351 0.45666 -0.01200
C 	C 	0.95230 0.60740 0.70498 -0.02100
C 	C 	0.85710 0.90482 0.86314 -0.01200
C 	C 	0.62320 0.75266 0.35948 0.09800
C 	C 	0.78830 0.74984 0.64404 0.07700
C 	C 	0.37680 0.24734 0.64052 0.09800
C 	C 	0.84640 0.11418 0.71485 0.08500
C 	C 	0.80200 0.73575 0.23802 0.09500
C 	C 	0.70530 0.61280 0.57960 0.11900
C 	C 	0.90410 0.72337 0.58307 -0.01300
C 	C 	0.87190 0.61981 0.41686 -0.01500
C 	C 	0.06910 0.08870 0.29420 0.09100
C 	C 	0.45230 0.89260 0.79502 -0.01800
C 	C 	0.82120 0.18270 0.43470 0.02200
C 	C 	0.30200 0.76425 0.26198 0.09500
C 	C 	0.05180 0.39364 0.76923 0.05500
C 	C 	0.35710 0.59518 0.63686 -0.01100
C 	C 	0.76490 0.87828 0.78682 0.07500
C 	C 	0.00570 0.80751 0.17335 -0.02900
C 	C 	0.73600 0.32728 0.78354 0.00500
C 	C 	0.28900 0.12754 0.40468 0.07800
C 	C 	0.02080 0.18104 0.55019 -0.00100
C 	C 	0.34640 0.38582 0.78515 0.08500
C 	C 	0.35830 0.68100 0.20632 -0.03700
C 	C 	0.21100 0.62754 0.90468 0.07800
C 	C 	0.26490 0.62172 0.71318 0.07600
C 	C 	0.96860 0.42869 0.30002 -0.01200
C 	C 	0.65570 0.67222 0.73282 -0.03000
C 	C 	0.12330 0.92210 0.00010 -0.04000
C 	C 	0.54160 0.96640 0.26900 -0.01700
C 	C 	0.97920 0.81896 0.44981 -0.00100
C 	C 	0.08420 0.63351 0.95666 -0.01200
C 	C 	0.93660 0.16963 0.21279 -0.00200
C 	C 	0.85830 0.81900 0.29368 -0.03700
C 	C 	0.15570 0.82778 0.76718 -0.03000
C 	C 	0.89950 0.26234 0.25495 0.08900
C 	C 	0.60980 0.81080 0.08910 0.09300
C 	C 	0.29470 0.38720 0.42040 0.11900
C 	C 	0.71100 0.87246 0.59532 0.07800
C 	C 	0.78900 0.37246 0.09532 0.07800
C 	C 	0.39560 0.91914 0.13734 -0.01700
C 	C 	0.32680 0.54467 0.64907 -0.00400
C 	C 	0.89560 0.58086 0.36266 -0.01700
C 	C 	0.12810 0.38019 0.58314 -0.01500
C 	C 	0.62410 0.28940 0.44690 -0.01100
C 	C 	0.06730 0.28010 0.36232 -0.01000
C 	C 	0.40950 0.08655 0.75260 -0.01000
C 	C 	0.37590 0.71060 0.55310 -0.01100
C 	C 	0.50730 0.57140 0.86890 0.01300
C 	C 	0.12170 0.24571 0.60002 0.07100
C 	C 	0.54770 0.10740 0.20498 -0.01800
C 	C 	0.38230 0.46270 0.46910 0.04200
C 	C 	0.56350 0.28900 0.49183 0.00400
C 	C 	0.51570 0.87626 0.70795 0.08200
C 	C 	0.68300 0.70280 0.88590 -0.02300
C 	C 	0.60440 0.08086 0.86266 -0.01700
C 	C 	0.10050 0.73766 0.74505 0.08900
C 	C 	0.71170 0.24984 0.14404 0.07700
C 	C 	0.21170 0.25016 0.35596 0.07700
C 	C 	0.40980 0.68777 0.01165 -0.01400
C 	C 	0.98430 0.37626 0.20795 0.08500
C 	C 	0.61770 0.53730 0.53090 0.04200
C 	C 	0.43090 0.58870 0.79420 0.09200
C 	C 	0.44820 0.89364 0.26923 0.05200
C 	C 	0.37670 0.42210 0.50010 -0.02900
C 	C 	0.47920 0.68104 0.05019 -0.00100
C 	C 	0.25170 0.39554 0.63823 0.07900
C 	C 	0.53900 0.68391 0.37758 -0.00900
C 	C 	0.64290 0.40482 0.36314 -0.01100
C 	C 	0.24830 0.89554 0.13823 0.07900
C 	C 	0.62170 0.25429 0.89998 0.07100
C 	C 	0.45840 0.03360 0.73100 -0.01700
C 	C 	0.75170 0.10446 0.86177 0.07900
C 	C 	0.17320 0.04467 0.14907 -0.00500
C 	C 	0.17880 0.81730 0.56530 0.02200
C 	C 	0.90950 0.41345 0.74740 -0.01000
C 	C 	0.82680 0.95533 0.85093 -0.00500
C 	C 	0.56340 0.66963 0.71279 -0.00200
C 	C 	0.96100 0.18391 0.87758 -0.00800
C 	C 	0.91580 0.36649 0.04334 -0.01200
C 	C 	0.95840 0.46640 0.76900 -0.01900
C 	C 	0.09590 0.27663 0.41693 -0.01300
C 	C 	0.57570 0.45940 0.14080 -0.01400
C 	C 	0.94820 0.60636 0.23077 0.05500
C 	C 	0.74880 0.35020 0.59830 0.01400
C 	C 	0.15360 0.88582 0.28515 0.08500
C 	C 	0.41340 0.07791 0.41448 -0.01100
C 	C 	0.93090 0.91130 0.70580 0.09100
C 	C 	0.59590 0.22337 0.08307 -0.01300
C 	C 	0.30870 0.84940 0.61590 0.10900
C 	C 	0.48470 0.27308 0.41101 0.07000
C 	C 	0.98470 0.22692 0.08899 0.07400
C 	C 	0.99430 0.19249 0.82665 -0.02900
C 	C 	0.40410 0.77663 0.91693 -0.01300
C 	C 	0.74830 0.60446 0.36177 0.07900
C 	C 	0.92430 0.95940 0.64080 -0.01700
C 	C 	0.19130 0.34940 0.11590 0.10900
C 	C 	0.56910 0.41130 0.20580 0.09200
C 	C 	0.69130 0.15060 0.38410 0.10900
N 	N 	0.65250 0.78960 0.12831 -0.27600
N 	N 	0.74080 0.14871 0.43245 -0.20300
N 	N 	0.18470 0.42965 0.67339 -0.29400
N 	N 	0.62230 0.64436 0.17823 -0.29000
N 	N 	0.26680 0.56114 0.69841 -0.28900
N 	N 	0.72770 0.77400 0.24740 -0.29300
N 	N 	0.31530 0.92965 0.17339 -0.29400
N 	N 	0.16970 0.93979 0.91876 -0.25900
N 	N 	0.72000 0.57177 0.19084 -0.29400
N 	N 	0.48960 0.39823 0.17300 -0.19000
N 	N 	0.02790 0.77266 0.77287 -0.28300
N 	N 	0.07160 0.58156 0.75576 -0.28300
N 	N 	0.67850 0.62609 0.53111 -0.27800
N 	N 	0.64200 0.23718 0.17769 -0.28100
N 	N 	0.22290 0.36441 0.58285 -0.29100
N 	N 	0.61670 0.25971 0.76470 -0.28700
N 	N 	0.81790 0.85452 0.82161 -0.29400
N 	N 	0.32000 0.26839 0.23992 -0.28900
N 	N 	0.15250 0.71040 0.37169 -0.27600
N 	N 	0.53080 0.86576 0.24769 -0.29500
N 	N 	0.31110 0.75800 0.91322 -0.29000
N 	N 	0.24080 0.35129 0.06755 -0.20300
N 	N 	0.96040 0.78131 0.39267 -0.27800
N 	N 	0.81110 0.74200 0.58678 -0.29000
N 	N 	0.44960 0.95406 0.28323 -0.28000
N 	N 	0.66420 0.83431 0.54939 -0.29400
N 	N 	0.34750 0.21040 0.87169 -0.27600
N 	N 	0.78000 0.07177 0.69084 -0.29400
N 	N 	0.55760 0.14137 0.26408 -0.29200
N 	N 	0.96920 0.36576 0.74769 -0.29700
N 	N 	0.33400 0.15237 0.93032 -0.18900
N 	N 	0.23320 0.06114 0.19841 -0.28900
N 	N 	0.93980 0.23761 0.81401 -0.28000
N 	N 	0.73320 0.43886 0.30159 -0.28900
N 	N 	0.18210 0.14548 0.17839 -0.29400
N 	N 	0.52720 0.72141 0.53079 -0.29100
N 	N 	0.33150 0.07393 0.38037 -0.29600
N 	N 	0.84430 0.77075 0.45633 -0.27700
N 	N 	0.92580 0.77914 0.89439 -0.29500
N 	N 	0.12230 0.85564 0.32177 -0.29100
N 	N 	0.03080 0.63424 0.25231 -0.29700
N 	N 	0.73470 0.18245 0.35398 -0.27500
N 	N 	0.53960 0.28131 0.89267 -0.27800
N 	N 	0.22770 0.72600 0.25260 -0.29300
N 	N 	0.83400 0.34763 0.56968 -0.18900
N 	N 	0.76530 0.68245 0.85398 -0.27500
N 	N 	0.56020 0.73761 0.31401 -0.28000
N 	N 	0.33030 0.43979 0.41876 -0.25600
N 	N 	0.11670 0.24029 0.73530 -0.28700
N 	N 	0.76680 0.93886 0.80159 -0.28900
N 	N 	0.18000 0.76839 0.73992 -0.28900
N 	N 	0.47280 0.27859 0.46921 -0.29100
N 	N 	0.75920 0.64871 0.93245 -0.20300
N 	N 	0.43980 0.26239 0.68599 -0.28000
N 	N 	0.16420 0.66569 0.95061 -0.29400
N 	N 	0.62440 0.44834 0.18773 -0.27700
N 	N 	0.88330 0.75971 0.26470 -0.28700
N 	N 	0.83030 0.06021 0.08124 -0.25900
N 	N 	0.57160 0.91844 0.74424 -0.28300
N 	N 	0.72290 0.13559 0.91715 -0.29100
N 	N 	0.66850 0.92607 0.61963 -0.29600
N 	N 	0.77230 0.27400 0.74740 -0.29300
N 	N 	0.28000 0.42823 0.80916 -0.29400
N 	N 	0.38650 0.27720 0.60058 -0.29500
N 	N 	0.87560 0.94834 0.68773 -0.27700
N 	N 	0.31790 0.64548 0.67839 -0.29400
N 	N 	0.46920 0.13424 0.75231 -0.29500
N 	N 	0.47210 0.27266 0.27287 -0.28400
N 	N 	0.03960 0.21869 0.60733 -0.27800
N 	N 	0.37770 0.35564 0.82177 -0.29000
N 	N 	0.68210 0.35452 0.32161 -0.29400
N 	N 	0.85800 0.73718 0.67769 -0.28100
N 	N 	0.83150 0.42607 0.11963 -0.29600
N 	N 	0.11350 0.77720 0.10058 -0.29600
N 	N 	0.57420 0.27914 0.39439 -0.29200
N 	N 	0.42840 0.08156 0.25576 -0.28300
N 	N 	0.82150 0.12609 0.03111 -0.27500
N 	N 	0.12440 0.05166 0.31227 -0.27700
N 	N 	0.68890 0.24200 0.08678 -0.29000
N 	N 	0.27230 0.22600 0.75260 -0.29300
N 	N 	0.94240 0.64137 0.76408 -0.29300
N 	N 	0.98960 0.10177 0.32700 -0.18900
N 	N 	0.88650 0.22280 0.89942 -0.29600
N 	N 	0.82000 0.23161 0.26008 -0.28900
N 	N 	0.84750 0.28960 0.62831 -0.27600
N 	N 	0.38330 0.74029 0.23530 -0.28700
N 	N 	0.51040 0.60177 0.82700 -0.19000
N 	N 	0.17850 0.87391 0.96889 -0.27500
N 	N 	0.97280 0.22141 0.03079 -0.28700
N 	N 	0.68470 0.07035 0.82661 -0.29400
N 	N 	0.32150 0.37391 0.46889 -0.27800
N 	N 	0.66600 0.84763 0.06968 -0.18900
N 	N 	0.27710 0.86441 0.08285 -0.29100
N 	N 	0.35800 0.76282 0.82231 -0.28100
N 	N 	0.42580 0.72086 0.60561 -0.29200
N 	N 	0.34430 0.72925 0.04367 -0.27800
N 	N 	0.87770 0.14436 0.67823 -0.29100
N 	N 	0.26530 0.81755 0.64602 -0.27500
N 	N 	0.94960 0.54594 0.21677 -0.27900
N 	N 	0.02720 0.77859 0.96921 -0.28700
N 	N 	0.16850 0.57393 0.88037 -0.29600
N 	N 	0.46040 0.71869 0.10733 -0.27800
N 	N 	0.06020 0.76239 0.18599 -0.28000
N 	N 	0.33580 0.16569 0.45061 -0.29400
N 	N 	0.68000 0.73161 0.76008 -0.28900
N 	N 	0.66970 0.56021 0.58124 -0.25600
N 	N 	0.23470 0.31755 0.14602 -0.27500
N 	N 	0.01040 0.89823 0.67300 -0.18900
N 	N 	0.81530 0.57035 0.32661 -0.29400
N 	N 	0.37560 0.55166 0.81227 -0.27700
N 	N 	0.15570 0.22925 0.54367 -0.27700
N 	N 	0.16600 0.65237 0.43032 -0.18900
N 	N 	0.61350 0.72280 0.39942 -0.29500
N 	N 	0.52790 0.72734 0.72713 -0.28400
N 	N 	0.14200 0.26282 0.32231 -0.28100
N 	N 	0.25920 0.85129 0.56755 -0.20300
N 	N 	0.77710 0.63559 0.41715 -0.29100
N 	N 	0.18890 0.25800 0.41322 -0.29000
N 	N 	0.07420 0.22086 0.10561 -0.29500
N 	N 	0.05040 0.45406 0.78323 -0.27900
N 	N 	0.92840 0.41844 0.24424 -0.28300
N 	N 	0.83580 0.33431 0.04939 -0.29400
N 	N 	0.05760 0.35863 0.23592 -0.29300
N 	N 	0.22000 0.92823 0.30916 -0.29400
N 	N 	0.55040 0.04594 0.71677 -0.28000
N 	N 	0.44240 0.85863 0.73592 -0.29200
N 	N 	0.97210 0.22734 0.22713 -0.28300
N 	N 	0.65570 0.27075 0.95633 -0.27800
