data_crystal

_cell_length_a 18.92800
_cell_length_b 19.71100
_cell_length_c 23.09950
_cell_angle_alpha 112.90600
_cell_angle_beta  90.00000
_cell_angle_gamma 90.00000

_symmetry_space_group_name_	'P 1'
_symmetry_space_group_name_H-M	'P 1'

loop_
_symmetry_equiv_pos_as_xyz
  x,y,z

loop_
_atom_site_label
_atom_site_type_symbol
_atom_site_fract_x
_atom_site_fract_y
_atom_site_fract_z
_atom_site_charge
Ce	Ce	0.01376 0.62042 0.02416 2.12200
Ce	Ce	0.99605 0.88609 0.98359 2.12200
Ce	Ce	0.51376 0.87958 0.47584 2.12600
Ce	Ce	0.49605 0.61391 0.51641 2.12500
Ce	Ce	0.98624 0.37958 0.97584 2.12200
Ce	Ce	0.00395 0.11391 0.01641 2.12200
Ce	Ce	0.48624 0.12042 0.52416 2.12500
Ce	Ce	0.50395 0.38609 0.48359 2.12400
H 	H 	0.96740 0.94550 0.17490 0.02100
H 	H 	0.84480 0.76600 0.13610 0.03500
H 	H 	0.90090 0.01040 0.26330 0.07800
H 	H 	0.80950 0.06620 0.35000 0.08500
H 	H 	0.64170 0.89000 0.34710 -0.01500
H 	H 	0.71770 0.09680 0.42240 0.02400
H 	H 	0.17890 0.36300 0.83040 0.03300
H 	H 	0.11210 0.56680 0.85530 0.03300
H 	H 	0.26370 0.36680 0.75870 0.09100
H 	H 	0.34680 0.39080 0.68500 0.06000
H 	H 	0.30560 0.61820 0.67300 0.06200
H 	H 	0.41670 0.42900 0.62200 0.00300
H 	H 	0.70370 0.43480 0.60400 0.02500
H 	H 	0.68220 0.65350 0.65650 0.04600
H 	H 	0.79880 0.45160 0.67050 0.08500
H 	H 	0.89290 0.49430 0.75970 0.08200
H 	H 	0.91460 0.75140 0.84310 0.02500
H 	H 	0.97330 0.55280 0.84080 0.01700
H 	H 	0.46740 0.55450 0.32510 0.01800
H 	H 	0.34480 0.73400 0.36390 0.03500
H 	H 	0.40090 0.48960 0.23670 0.07900
H 	H 	0.30950 0.43380 0.15000 0.08400
H 	H 	0.14170 0.61000 0.15290 -0.01600
H 	H 	0.21770 0.40320 0.07760 0.02300
H 	H 	0.67890 0.13700 0.66960 0.03200
H 	H 	0.61210 0.93320 0.64470 0.03200
H 	H 	0.76370 0.13320 0.74130 0.09000
H 	H 	0.84680 0.10920 0.81500 0.06100
H 	H 	0.80560 0.88180 0.82700 0.06100
H 	H 	0.91670 0.07100 0.87800 0.00100
H 	H 	0.20370 0.06520 0.89600 0.02500
H 	H 	0.18220 0.84650 0.84350 0.04700
H 	H 	0.29880 0.04840 0.82950 0.08500
H 	H 	0.39290 0.00570 0.74030 0.08300
H 	H 	0.41460 0.74860 0.65690 0.02700
H 	H 	0.47330 0.94720 0.65920 0.02000
H 	H 	0.03260 0.05450 0.82510 0.02100
H 	H 	0.15520 0.23400 0.86390 0.03500
H 	H 	0.09910 0.98960 0.73670 0.07800
H 	H 	0.19050 0.93380 0.65000 0.08500
H 	H 	0.35830 0.11000 0.65290 -0.01500
H 	H 	0.28230 0.90320 0.57760 0.02400
H 	H 	0.82110 0.63700 0.16960 0.03300
H 	H 	0.88790 0.43320 0.14470 0.03300
H 	H 	0.73630 0.63320 0.24130 0.09100
H 	H 	0.65320 0.60920 0.31500 0.06000
H 	H 	0.69440 0.38180 0.32700 0.06200
H 	H 	0.58330 0.57100 0.37800 0.00300
H 	H 	0.29630 0.56520 0.39600 0.02500
H 	H 	0.31780 0.34650 0.34350 0.04600
H 	H 	0.20120 0.54840 0.32950 0.08500
H 	H 	0.10710 0.50570 0.24030 0.08200
H 	H 	0.08540 0.24860 0.15690 0.02500
H 	H 	0.02670 0.44720 0.15920 0.01700
H 	H 	0.53260 0.44550 0.67490 0.01800
H 	H 	0.65520 0.26600 0.63610 0.03500
H 	H 	0.59910 0.51040 0.76330 0.07900
H 	H 	0.69050 0.56620 0.85000 0.08400
H 	H 	0.85830 0.39000 0.84710 -0.01600
H 	H 	0.78230 0.59680 0.92240 0.02300
H 	H 	0.32110 0.86300 0.33040 0.03200
H 	H 	0.38790 0.06680 0.35530 0.03200
H 	H 	0.23630 0.86680 0.25870 0.09000
H 	H 	0.15320 0.89080 0.18500 0.06100
H 	H 	0.19440 0.11820 0.17300 0.06100
H 	H 	0.08330 0.92900 0.12200 0.00100
H 	H 	0.79630 0.93480 0.10400 0.02500
H 	H 	0.81780 0.15350 0.15650 0.04700
H 	H 	0.70120 0.95160 0.17050 0.08500
H 	H 	0.60710 0.99430 0.25970 0.08300
H 	H 	0.58540 0.25140 0.34310 0.02700
H 	H 	0.52670 0.05280 0.34080 0.02000
C 	C 	0.95840 0.80690 0.09050 0.41100
C 	C 	0.91390 0.84940 0.14750 -0.15100
C 	C 	0.92930 0.92260 0.18530 0.05600
C 	C 	0.85600 0.81450 0.16090 0.04700
C 	C 	0.88920 0.96210 0.23790 -0.11100
C 	C 	0.81570 0.85550 0.21310 -0.08000
C 	C 	0.83160 0.92820 0.25180 0.04100
C 	C 	0.77960 0.95990 0.30370 0.05500
C 	C 	0.72750 0.90890 0.30400 -0.10100
C 	C 	0.77600 0.03120 0.34880 -0.13000
C 	C 	0.67430 0.92550 0.34740 0.07300
C 	C 	0.72080 0.04890 0.39230 0.07700
C 	C 	0.67080 0.99820 0.39240 -0.17000
C 	C 	0.61160 0.02240 0.43950 0.43900
C 	C 	0.08920 0.46480 0.90240 0.46700
C 	C 	0.13860 0.46470 0.85140 -0.15800
C 	C 	0.18270 0.40470 0.82100 0.07000
C 	C 	0.14110 0.52630 0.83550 0.05600
C 	C 	0.18790 0.52490 0.78960 -0.08000
C 	C 	0.23440 0.46700 0.75990 0.05200
C 	C 	0.23250 0.40590 0.77670 -0.11900
C 	C 	0.28310 0.48030 0.71610 0.03100
C 	C 	0.27250 0.54890 0.71180 -0.05700
C 	C 	0.33820 0.43600 0.68230 -0.09900
C 	C 	0.31370 0.57270 0.67500 0.03500
C 	C 	0.38010 0.45910 0.64470 0.03400
C 	C 	0.36860 0.52690 0.64010 -0.12300
C 	C 	0.41410 0.55140 0.59830 0.38200
C 	C 	0.61630 0.52880 0.58350 0.42100
C 	C 	0.68180 0.54220 0.62440 -0.13100
C 	C 	0.71840 0.48240 0.62860 0.05600
C 	C 	0.70520 0.61310 0.65920 0.04500
C 	C 	0.76350 0.62300 0.69790 -0.06900
C 	C 	0.77570 0.49210 0.66830 -0.11200
C 	C 	0.79840 0.56280 0.70490 0.04300
C 	C 	0.85470 0.58680 0.75300 0.04900
C 	C 	0.89680 0.54540 0.77640 -0.11300
C 	C 	0.86270 0.66410 0.78020 -0.07500
C 	C 	0.91020 0.70030 0.82730 0.05500
C 	C 	0.94530 0.58070 0.82530 0.06900
C 	C 	0.95140 0.65780 0.85060 -0.15600
C 	C 	0.00210 0.69730 0.90380 0.44400
C 	C 	0.45840 0.69310 0.40950 0.40200
C 	C 	0.41390 0.65060 0.35250 -0.15100
C 	C 	0.42930 0.57740 0.31470 0.05600
C 	C 	0.35600 0.68550 0.33910 0.04700
C 	C 	0.38920 0.53790 0.26210 -0.11400
C 	C 	0.31570 0.64450 0.28690 -0.08100
C 	C 	0.33160 0.57180 0.24820 0.04200
C 	C 	0.27960 0.54010 0.19630 0.05400
C 	C 	0.22750 0.59110 0.19600 -0.10100
C 	C 	0.27600 0.46880 0.15120 -0.12900
C 	C 	0.17430 0.57450 0.15260 0.07400
C 	C 	0.22080 0.45110 0.10770 0.07700
C 	C 	0.17080 0.50180 0.10760 -0.17100
C 	C 	0.11160 0.47760 0.06050 0.44100
C 	C 	0.58920 0.03520 0.59760 0.46700
C 	C 	0.63860 0.03530 0.64860 -0.15900
C 	C 	0.68270 0.09530 0.67900 0.07000
C 	C 	0.64110 0.97370 0.66450 0.05500
C 	C 	0.68790 0.97510 0.71040 -0.08100
C 	C 	0.73440 0.03300 0.74010 0.05200
C 	C 	0.73250 0.09410 0.72330 -0.11900
C 	C 	0.78310 0.01970 0.78390 0.03400
C 	C 	0.77250 0.95110 0.78820 -0.06100
C 	C 	0.83820 0.06400 0.81770 -0.10300
C 	C 	0.81370 0.92730 0.82500 0.03800
C 	C 	0.88010 0.04090 0.85530 0.03900
C 	C 	0.86860 0.97310 0.85990 -0.12800
C 	C 	0.91410 0.94860 0.90170 0.38300
C 	C 	0.11630 0.97120 0.91650 0.41800
C 	C 	0.18180 0.95780 0.87560 -0.13100
C 	C 	0.21840 0.01760 0.87140 0.05600
C 	C 	0.20520 0.88690 0.84080 0.04500
C 	C 	0.26350 0.87700 0.80210 -0.06800
C 	C 	0.27570 0.00790 0.83170 -0.11000
C 	C 	0.29840 0.93720 0.79510 0.04100
C 	C 	0.35470 0.91320 0.74700 0.04900
C 	C 	0.39680 0.95460 0.72360 -0.11300
C 	C 	0.36270 0.83590 0.71980 -0.07400
C 	C 	0.41020 0.79970 0.67270 0.05200
C 	C 	0.44530 0.91930 0.67470 0.06600
C 	C 	0.45140 0.84220 0.64940 -0.14800
C 	C 	0.50210 0.80270 0.59620 0.43700
C 	C 	0.04160 0.19310 0.90950 0.41100
C 	C 	0.08610 0.15060 0.85250 -0.15100
C 	C 	0.07070 0.07740 0.81470 0.05600
C 	C 	0.14400 0.18550 0.83910 0.04700
C 	C 	0.11080 0.03790 0.76210 -0.11100
C 	C 	0.18430 0.14450 0.78690 -0.08000
C 	C 	0.16840 0.07180 0.74820 0.04100
C 	C 	0.22040 0.04010 0.69630 0.05500
C 	C 	0.27250 0.09110 0.69600 -0.10100
C 	C 	0.22400 0.96880 0.65120 -0.13000
C 	C 	0.32570 0.07450 0.65260 0.07300
C 	C 	0.27920 0.95110 0.60770 0.07700
C 	C 	0.32920 0.00180 0.60760 -0.17000
C 	C 	0.38840 0.97760 0.56050 0.43900
C 	C 	0.91080 0.53520 0.09760 0.46700
C 	C 	0.86140 0.53530 0.14860 -0.15800
C 	C 	0.81730 0.59530 0.17900 0.07000
C 	C 	0.85890 0.47370 0.16450 0.05600
C 	C 	0.81210 0.47510 0.21040 -0.08000
C 	C 	0.76560 0.53300 0.24010 0.05200
C 	C 	0.76750 0.59410 0.22330 -0.11900
C 	C 	0.71690 0.51970 0.28390 0.03100
C 	C 	0.72750 0.45110 0.28820 -0.05700
C 	C 	0.66180 0.56400 0.31770 -0.09900
C 	C 	0.68630 0.42730 0.32500 0.03500
C 	C 	0.61990 0.54090 0.35530 0.03400
C 	C 	0.63140 0.47310 0.35990 -0.12300
C 	C 	0.58590 0.44860 0.40170 0.38200
C 	C 	0.38370 0.47120 0.41650 0.42100
C 	C 	0.31820 0.45780 0.37560 -0.13100
C 	C 	0.28160 0.51760 0.37140 0.05600
C 	C 	0.29480 0.38690 0.34080 0.04500
C 	C 	0.23650 0.37700 0.30210 -0.06900
C 	C 	0.22430 0.50790 0.33170 -0.11200
C 	C 	0.20160 0.43720 0.29510 0.04300
C 	C 	0.14530 0.41320 0.24700 0.04900
C 	C 	0.10320 0.45460 0.22360 -0.11300
C 	C 	0.13730 0.33590 0.21980 -0.07500
C 	C 	0.08980 0.29970 0.17270 0.05500
C 	C 	0.05470 0.41930 0.17470 0.06900
C 	C 	0.04860 0.34220 0.14940 -0.15600
C 	C 	0.99790 0.30270 0.09620 0.44400
C 	C 	0.54160 0.30690 0.59050 0.40200
C 	C 	0.58610 0.34940 0.64750 -0.15100
C 	C 	0.57070 0.42260 0.68530 0.05600
C 	C 	0.64400 0.31450 0.66090 0.04700
C 	C 	0.61080 0.46210 0.73790 -0.11400
C 	C 	0.68430 0.35550 0.71310 -0.08100
C 	C 	0.66840 0.42820 0.75180 0.04200
C 	C 	0.72040 0.45990 0.80370 0.05400
C 	C 	0.77250 0.40890 0.80400 -0.10100
C 	C 	0.72400 0.53120 0.84880 -0.12900
C 	C 	0.82570 0.42550 0.84740 0.07400
C 	C 	0.77920 0.54890 0.89230 0.07700
C 	C 	0.82920 0.49820 0.89240 -0.17100
C 	C 	0.88840 0.52240 0.93950 0.44100
C 	C 	0.41080 0.96480 0.40240 0.46700
C 	C 	0.36140 0.96470 0.35140 -0.15900
C 	C 	0.31730 0.90470 0.32100 0.07000
C 	C 	0.35890 0.02630 0.33550 0.05500
C 	C 	0.31210 0.02490 0.28960 -0.08100
C 	C 	0.26560 0.96700 0.25990 0.05200
C 	C 	0.26750 0.90590 0.27670 -0.11900
C 	C 	0.21690 0.98030 0.21610 0.03400
C 	C 	0.22750 0.04890 0.21180 -0.06100
C 	C 	0.16180 0.93600 0.18230 -0.10300
C 	C 	0.18630 0.07270 0.17500 0.03800
C 	C 	0.11990 0.95910 0.14470 0.03900
C 	C 	0.13140 0.02690 0.14010 -0.12800
C 	C 	0.08590 0.05140 0.09830 0.38300
C 	C 	0.88370 0.02880 0.08350 0.41800
C 	C 	0.81820 0.04220 0.12440 -0.13100
C 	C 	0.78160 0.98240 0.12860 0.05600
C 	C 	0.79480 0.11310 0.15920 0.04500
C 	C 	0.73650 0.12300 0.19790 -0.06800
C 	C 	0.72430 0.99210 0.16830 -0.11000
C 	C 	0.70160 0.06280 0.20490 0.04100
C 	C 	0.64530 0.08680 0.25300 0.04900
C 	C 	0.60320 0.04540 0.27640 -0.11300
C 	C 	0.63730 0.16410 0.28020 -0.07400
C 	C 	0.58980 0.20030 0.32730 0.05200
C 	C 	0.55470 0.08070 0.32530 0.06600
C 	C 	0.54860 0.15780 0.35060 -0.14800
C 	C 	0.49790 0.19730 0.40380 0.43700
S 	S 	0.73873 0.82431 0.23875 0.32500
S 	S 	0.19791 0.59398 0.75846 0.32200
S 	S 	0.80402 0.70727 0.74555 0.32300
S 	S 	0.23873 0.67569 0.26125 0.32500
S 	S 	0.69791 0.90602 0.74154 0.32200
S 	S 	0.30402 0.79273 0.75445 0.32200
S 	S 	0.26127 0.17569 0.76125 0.32500
S 	S 	0.80209 0.40602 0.24154 0.32200
S 	S 	0.19598 0.29273 0.25445 0.32300
S 	S 	0.76127 0.32431 0.73875 0.32500
S 	S 	0.30209 0.09398 0.25846 0.32200
S 	S 	0.69598 0.20727 0.24555 0.32200
O 	O 	0.00050 0.84286 0.07096 -0.54000
O 	O 	0.95210 0.73751 0.06731 -0.52200
O 	O 	0.57460 0.97180 0.44490 -0.56300
O 	O 	0.60200 0.08850 0.46960 -0.47500
O 	O 	0.68170 0.81190 0.19400 -0.22300
O 	O 	0.75510 0.76560 0.25850 -0.23600
O 	O 	0.07550 0.40552 0.90742 -0.49400
O 	O 	0.06080 0.52420 0.93440 -0.55200
O 	O 	0.41400 0.61807 0.60627 -0.44600
O 	O 	0.13850 0.59180 0.71790 -0.19700
O 	O 	0.21580 0.66344 0.80674 -0.20200
O 	O 	0.60060 0.46364 0.55044 -0.50900
O 	O 	0.58220 0.58567 0.58727 -0.48200
O 	O 	0.75540 0.75530 0.79060 -0.20800
O 	O 	0.84370 0.73730 0.70720 -0.19600
O 	O 	0.02330 0.66282 0.93622 -0.50400
O 	O 	0.02070 0.76122 0.91122 -0.52100
O 	O 	0.45190 0.50294 0.55644 -0.59100
O 	O 	0.50050 0.65714 0.42904 -0.53300
O 	O 	0.45210 0.76249 0.43269 -0.52400
O 	O 	0.07460 0.52820 0.05510 -0.56600
O 	O 	0.10200 0.41150 0.03040 -0.47800
O 	O 	0.18170 0.68810 0.30600 -0.22400
O 	O 	0.25510 0.73440 0.24150 -0.23700
O 	O 	0.57550 0.09448 0.59258 -0.49800
O 	O 	0.56080 0.97580 0.56560 -0.55700
O 	O 	0.91400 0.88193 0.89373 -0.44900
O 	O 	0.63850 0.90820 0.78210 -0.19800
O 	O 	0.71580 0.83656 0.69326 -0.20300
O 	O 	0.10060 0.03636 0.94956 -0.50200
O 	O 	0.08220 0.91433 0.91273 -0.47800
O 	O 	0.25540 0.74470 0.70940 -0.20700
O 	O 	0.34370 0.76270 0.79280 -0.19600
O 	O 	0.52330 0.83718 0.56378 -0.50700
O 	O 	0.52070 0.73878 0.58878 -0.52300
O 	O 	0.95190 0.99706 0.94356 -0.59500
O 	O 	0.99950 0.15714 0.92904 -0.54000
O 	O 	0.04790 0.26249 0.93269 -0.52200
O 	O 	0.42540 0.02820 0.55510 -0.56300
O 	O 	0.39800 0.91150 0.53040 -0.47500
O 	O 	0.31830 0.18810 0.80600 -0.22300
O 	O 	0.24490 0.23440 0.74150 -0.23600
O 	O 	0.92450 0.59448 0.09258 -0.49400
O 	O 	0.93920 0.47580 0.06560 -0.55200
O 	O 	0.58600 0.38193 0.39373 -0.44600
O 	O 	0.86150 0.40820 0.28210 -0.19700
O 	O 	0.78420 0.33656 0.19326 -0.20200
O 	O 	0.39940 0.53636 0.44956 -0.50900
O 	O 	0.41780 0.41433 0.41273 -0.48200
O 	O 	0.24460 0.24470 0.20940 -0.20800
O 	O 	0.15630 0.26270 0.29280 -0.19600
O 	O 	0.97670 0.33718 0.06378 -0.50400
O 	O 	0.97930 0.23878 0.08878 -0.52100
O 	O 	0.54810 0.49706 0.44356 -0.59100
O 	O 	0.49950 0.34286 0.57096 -0.53300
O 	O 	0.54790 0.23751 0.56731 -0.52400
O 	O 	0.92540 0.47180 0.94490 -0.56600
O 	O 	0.89800 0.58850 0.96960 -0.47800
O 	O 	0.81830 0.31190 0.69400 -0.22400
O 	O 	0.74490 0.26560 0.75850 -0.23700
O 	O 	0.42450 0.90552 0.40742 -0.49800
O 	O 	0.43920 0.02420 0.43440 -0.55700
O 	O 	0.08600 0.11807 0.10627 -0.44900
O 	O 	0.36150 0.09180 0.21790 -0.19800
O 	O 	0.28420 0.16344 0.30674 -0.20300
O 	O 	0.89940 0.96364 0.05044 -0.50200
O 	O 	0.91780 0.08567 0.08727 -0.47800
O 	O 	0.74460 0.25530 0.29060 -0.20700
O 	O 	0.65630 0.23730 0.20720 -0.19600
O 	O 	0.47670 0.16282 0.43622 -0.50700
O 	O 	0.47930 0.26122 0.41122 -0.52300
O 	O 	0.04810 0.00294 0.05644 -0.59500
