data_crystal

_cell_length_a 18.82350
_cell_length_b 18.82350
_cell_length_c 18.82350
_cell_angle_alpha 90.00000
_cell_angle_beta  90.00000
_cell_angle_gamma 90.00000

_symmetry_space_group_name_	'P 1'
_symmetry_space_group_name_H-M	'P 1'

loop_
_symmetry_equiv_pos_as_xyz
  x,y,z

loop_
_atom_site_label
_atom_site_type_symbol
_atom_site_fract_x
_atom_site_fract_y
_atom_site_fract_z
_atom_site_charge
Fe	Fe	0.14071 0.00000 0.50000 0.97300
Fe	Fe	0.85929 0.00000 0.50000 0.99400
Fe	Fe	0.50000 0.14071 1.00000 0.97300
Fe	Fe	0.50000 0.85929 1.00000 0.99400
Fe	Fe	0.00000 0.50000 0.14071 0.99400
Fe	Fe	0.00000 0.50000 0.85929 0.97300
Fe	Fe	0.00000 0.14071 0.50000 0.97300
Fe	Fe	0.00000 0.85929 0.50000 0.99400
Fe	Fe	0.14071 0.50000 1.00000 0.97300
Fe	Fe	0.85929 0.50000 1.00000 0.99400
Fe	Fe	0.50000 0.00000 0.85929 0.97300
Fe	Fe	0.50000 0.00000 0.14071 0.99400
H 	H 	0.10810 0.26070 0.73930 0.03400
H 	H 	0.89190 0.73930 0.73930 0.08200
H 	H 	0.89190 0.26070 0.26070 0.08200
H 	H 	0.10810 0.73930 0.26070 0.04700
H 	H 	0.73930 0.10810 0.26070 0.04700
H 	H 	0.73930 0.89190 0.73930 0.08200
H 	H 	0.26070 0.89190 0.26070 0.08200
H 	H 	0.26070 0.10810 0.73930 0.03400
H 	H 	0.26070 0.73930 0.10810 0.08200
H 	H 	0.73930 0.73930 0.89190 0.04700
H 	H 	0.26070 0.26070 0.89190 0.03400
H 	H 	0.73930 0.26070 0.10810 0.08200
H 	H 	0.26070 0.10810 0.26070 0.04000
H 	H 	0.73930 0.89190 0.26070 0.08700
H 	H 	0.26070 0.89190 0.73930 0.07400
H 	H 	0.73930 0.10810 0.73930 0.04000
H 	H 	0.10810 0.73930 0.73930 0.04000
H 	H 	0.89190 0.73930 0.26070 0.08700
H 	H 	0.89190 0.26070 0.73930 0.07400
H 	H 	0.10810 0.26070 0.26070 0.04000
H 	H 	0.73930 0.26070 0.89190 0.04000
H 	H 	0.73930 0.73930 0.10810 0.08700
H 	H 	0.26070 0.26070 0.10810 0.07400
H 	H 	0.26070 0.73930 0.89190 0.04000
C 	C 	0.14956 0.24031 0.75969 -0.06400
C 	C 	0.85044 0.75969 0.75969 -0.07000
C 	C 	0.85044 0.24031 0.24031 -0.07000
C 	C 	0.14956 0.75969 0.24031 -0.06900
C 	C 	0.75969 0.14956 0.24031 -0.06900
C 	C 	0.75969 0.85044 0.75969 -0.07000
C 	C 	0.24031 0.85044 0.24031 -0.07000
C 	C 	0.24031 0.14956 0.75969 -0.06400
C 	C 	0.24031 0.75969 0.14956 -0.07000
C 	C 	0.75969 0.75969 0.85044 -0.06900
C 	C 	0.24031 0.24031 0.85044 -0.06400
C 	C 	0.75969 0.24031 0.14956 -0.07000
C 	C 	0.24031 0.14956 0.24031 -0.06700
C 	C 	0.75969 0.85044 0.24031 -0.07300
C 	C 	0.24031 0.85044 0.75969 -0.06800
C 	C 	0.75969 0.14956 0.75969 -0.06700
C 	C 	0.14956 0.75969 0.75969 -0.06700
C 	C 	0.85044 0.75969 0.24031 -0.07300
C 	C 	0.85044 0.24031 0.75969 -0.06800
C 	C 	0.14956 0.24031 0.24031 -0.06700
C 	C 	0.75969 0.24031 0.85044 -0.06700
C 	C 	0.75969 0.75969 0.14956 -0.07300
C 	C 	0.24031 0.24031 0.14956 -0.06800
C 	C 	0.24031 0.75969 0.85044 -0.06700
C 	C 	0.14881 0.14881 0.66572 0.09200
C 	C 	0.18003 0.18003 0.72942 -0.02200
C 	C 	0.85119 0.85119 0.66572 0.11800
C 	C 	0.81997 0.81997 0.72942 0.02500
C 	C 	0.85119 0.14881 0.33428 0.10700
C 	C 	0.81997 0.18003 0.27058 0.01300
C 	C 	0.14881 0.85119 0.33428 0.10700
C 	C 	0.18003 0.81997 0.27058 0.01300
C 	C 	0.66572 0.14881 0.14881 0.10700
C 	C 	0.72942 0.18003 0.18003 0.01300
C 	C 	0.66572 0.85119 0.85119 0.10700
C 	C 	0.72942 0.81997 0.81997 0.01300
C 	C 	0.33428 0.85119 0.14881 0.11800
C 	C 	0.27058 0.81997 0.18003 0.02500
C 	C 	0.33428 0.14881 0.85119 0.09200
C 	C 	0.27058 0.18003 0.81997 -0.02200
C 	C 	0.14881 0.66572 0.14881 0.10700
C 	C 	0.18003 0.72942 0.18003 0.01300
C 	C 	0.85119 0.66572 0.85119 0.10700
C 	C 	0.81997 0.72942 0.81997 0.01300
C 	C 	0.14881 0.33428 0.85119 0.09200
C 	C 	0.18003 0.27058 0.81997 -0.02200
C 	C 	0.85119 0.33428 0.14881 0.11800
C 	C 	0.81997 0.27058 0.18003 0.02500
C 	C 	0.14881 0.14881 0.33428 0.09400
C 	C 	0.18003 0.18003 0.27058 -0.01100
C 	C 	0.85119 0.85119 0.33428 0.12000
C 	C 	0.81997 0.81997 0.27058 0.03600
C 	C 	0.14881 0.85119 0.66572 0.10500
C 	C 	0.18003 0.81997 0.72942 0.00100
C 	C 	0.85119 0.14881 0.66572 0.10500
C 	C 	0.81997 0.18003 0.72942 0.00100
C 	C 	0.14881 0.66572 0.85119 0.09400
C 	C 	0.18003 0.72942 0.81997 -0.01100
C 	C 	0.85119 0.66572 0.14881 0.12000
C 	C 	0.81997 0.72942 0.18003 0.03600
C 	C 	0.85119 0.33428 0.85119 0.10500
C 	C 	0.81997 0.27058 0.81997 0.00100
C 	C 	0.14881 0.33428 0.14881 0.10500
C 	C 	0.18003 0.27058 0.18003 0.00100
C 	C 	0.66572 0.14881 0.85119 0.09400
C 	C 	0.72942 0.18003 0.81997 -0.01100
C 	C 	0.66572 0.85119 0.14881 0.12000
C 	C 	0.72942 0.81997 0.18003 0.03600
C 	C 	0.33428 0.14881 0.14881 0.10500
C 	C 	0.27058 0.18003 0.18003 0.00100
C 	C 	0.33428 0.85119 0.85119 0.10500
C 	C 	0.27058 0.81997 0.81997 0.00100
N 	N 	0.13083 0.08129 0.57831 -0.21900
N 	N 	0.17458 0.09125 0.63333 -0.13400
N 	N 	0.86917 0.91871 0.57831 -0.15900
N 	N 	0.82542 0.90875 0.63333 -0.08800
N 	N 	0.86917 0.08129 0.42169 -0.20400
N 	N 	0.82542 0.09125 0.36667 -0.12500
N 	N 	0.13083 0.91871 0.42169 -0.17200
N 	N 	0.17458 0.90875 0.36667 -0.09200
N 	N 	0.57831 0.13083 0.08129 -0.17200
N 	N 	0.63333 0.17458 0.09125 -0.09200
N 	N 	0.57831 0.86917 0.91871 -0.20400
N 	N 	0.63333 0.82542 0.90875 -0.12500
N 	N 	0.42169 0.86917 0.08129 -0.15900
N 	N 	0.36667 0.82542 0.09125 -0.08800
N 	N 	0.42169 0.13083 0.91871 -0.21900
N 	N 	0.36667 0.17458 0.90875 -0.13400
N 	N 	0.08129 0.57831 0.13083 -0.20400
N 	N 	0.09125 0.63333 0.17458 -0.12500
N 	N 	0.91871 0.57831 0.86917 -0.17200
N 	N 	0.90875 0.63333 0.82542 -0.09200
N 	N 	0.08129 0.42169 0.86917 -0.21900
N 	N 	0.09125 0.36667 0.82542 -0.13400
N 	N 	0.91871 0.42169 0.13083 -0.15900
N 	N 	0.90875 0.36667 0.17458 -0.08800
N 	N 	0.08129 0.13083 0.42169 -0.21800
N 	N 	0.09125 0.17458 0.36667 -0.13200
N 	N 	0.91871 0.86917 0.42169 -0.15800
N 	N 	0.90875 0.82542 0.36667 -0.08600
N 	N 	0.08129 0.86917 0.57831 -0.20500
N 	N 	0.09125 0.82542 0.63333 -0.12800
N 	N 	0.91871 0.13083 0.57831 -0.17300
N 	N 	0.90875 0.17458 0.63333 -0.09500
N 	N 	0.13083 0.57831 0.91871 -0.21800
N 	N 	0.17458 0.63333 0.90875 -0.13200
N 	N 	0.86917 0.57831 0.08129 -0.15800
N 	N 	0.82542 0.63333 0.09125 -0.08600
N 	N 	0.86917 0.42169 0.91871 -0.20500
N 	N 	0.82542 0.36667 0.90875 -0.12800
N 	N 	0.13083 0.42169 0.08129 -0.17300
N 	N 	0.17458 0.36667 0.09125 -0.09500
N 	N 	0.57831 0.08129 0.86917 -0.21800
N 	N 	0.63333 0.09125 0.82542 -0.13200
N 	N 	0.57831 0.91871 0.13083 -0.15800
N 	N 	0.63333 0.90875 0.17458 -0.08600
N 	N 	0.42169 0.08129 0.13083 -0.20500
N 	N 	0.36667 0.09125 0.17458 -0.12800
N 	N 	0.42169 0.91871 0.86917 -0.17300
N 	N 	0.36667 0.90875 0.82542 -0.09500
N 	N 	0.86917 0.91871 0.42169 -0.15800
N 	N 	0.82542 0.90875 0.36667 -0.08600
N 	N 	0.13083 0.08129 0.42169 -0.21800
N 	N 	0.17458 0.09125 0.36667 -0.13200
N 	N 	0.13083 0.91871 0.57831 -0.17300
N 	N 	0.17458 0.90875 0.63333 -0.09500
N 	N 	0.86917 0.08129 0.57831 -0.20500
N 	N 	0.82542 0.09125 0.63333 -0.12800
N 	N 	0.42169 0.86917 0.91871 -0.20500
N 	N 	0.36667 0.82542 0.90875 -0.12800
N 	N 	0.42169 0.13083 0.08129 -0.17300
N 	N 	0.36667 0.17458 0.09125 -0.09500
N 	N 	0.57831 0.13083 0.91871 -0.21800
N 	N 	0.63333 0.17458 0.90875 -0.13200
N 	N 	0.57831 0.86917 0.08129 -0.15800
N 	N 	0.63333 0.82542 0.09125 -0.08600
N 	N 	0.91871 0.42169 0.86917 -0.17300
N 	N 	0.90875 0.36667 0.82542 -0.09500
N 	N 	0.08129 0.42169 0.13083 -0.20500
N 	N 	0.09125 0.36667 0.17458 -0.12800
N 	N 	0.91871 0.57831 0.13083 -0.15800
N 	N 	0.90875 0.63333 0.17458 -0.08600
N 	N 	0.08129 0.57831 0.86917 -0.21800
N 	N 	0.09125 0.63333 0.82542 -0.13200
N 	N 	0.91871 0.86917 0.57831 -0.15900
N 	N 	0.90875 0.82542 0.63333 -0.08800
N 	N 	0.08129 0.13083 0.57831 -0.21900
N 	N 	0.09125 0.17458 0.63333 -0.13400
N 	N 	0.91871 0.13083 0.42169 -0.17200
N 	N 	0.90875 0.17458 0.36667 -0.09200
N 	N 	0.08129 0.86917 0.42169 -0.20400
N 	N 	0.09125 0.82542 0.36667 -0.12500
N 	N 	0.86917 0.42169 0.08129 -0.15900
N 	N 	0.82542 0.36667 0.09125 -0.08800
N 	N 	0.13083 0.42169 0.91871 -0.21900
N 	N 	0.17458 0.36667 0.90875 -0.13400
N 	N 	0.13083 0.57831 0.08129 -0.17200
N 	N 	0.17458 0.63333 0.09125 -0.09200
N 	N 	0.86917 0.57831 0.91871 -0.20400
N 	N 	0.82542 0.63333 0.90875 -0.12500
N 	N 	0.42169 0.91871 0.13083 -0.15900
N 	N 	0.36667 0.90875 0.17458 -0.08800
N 	N 	0.42169 0.08129 0.86917 -0.21900
N 	N 	0.36667 0.09125 0.82542 -0.13400
N 	N 	0.57831 0.91871 0.86917 -0.17200
N 	N 	0.63333 0.90875 0.82542 -0.09200
N 	N 	0.57831 0.08129 0.13083 -0.20400
N 	N 	0.63333 0.09125 0.17458 -0.12500
