data_crystal

_cell_length_a 7.70080
_cell_length_b 9.91550
_cell_length_c 14.98990
_cell_angle_alpha 90.00000
_cell_angle_beta  98.46600
_cell_angle_gamma 90.00000

_symmetry_space_group_name_	'P 1'
_symmetry_space_group_name_H-M	'P 1'

loop_
_symmetry_equiv_pos_as_xyz
  x,y,z

loop_
_atom_site_label
_atom_site_type_symbol
_atom_site_fract_x
_atom_site_fract_y
_atom_site_fract_z
_atom_site_charge
Nd	Nd	0.85508 0.54385 0.64001 2.21700
Nd	Nd	0.64492 0.04385 0.85999 2.19600
Nd	Nd	0.14492 0.45615 0.35999 2.21600
Nd	Nd	0.35508 0.95615 0.14001 2.19500
H 	H 	0.82610 0.11090 0.63390 -0.06400
H 	H 	0.79600 0.10900 0.36470 -0.04700
H 	H 	0.61730 0.80140 0.48440 -0.02100
H 	H 	0.67390 0.61090 0.86610 -0.06700
H 	H 	0.70400 0.60900 0.13530 -0.04900
H 	H 	0.88270 0.30140 0.01560 -0.02300
H 	H 	0.17390 0.88910 0.36610 -0.06400
H 	H 	0.20400 0.89100 0.63530 -0.04700
H 	H 	0.38270 0.19860 0.51560 -0.02100
H 	H 	0.32610 0.38910 0.13390 -0.06700
H 	H 	0.29600 0.39100 0.86470 -0.04900
H 	H 	0.11730 0.69860 0.98440 -0.02300
C 	C 	0.69160 0.86300 0.65488 0.53100
C 	C 	0.72030 0.94150 0.57306 -0.28200
C 	C 	0.79580 0.06870 0.57844 0.21100
C 	C 	0.82540 0.13200 0.49911 -0.29000
C 	C 	0.91120 0.26790 0.50097 0.59000
C 	C 	0.77370 0.06720 0.41737 0.16600
C 	C 	0.67000 0.88600 0.48792 0.16300
C 	C 	0.45730 0.46820 0.53867 0.26800
C 	C 	0.80840 0.36300 0.84512 0.53600
C 	C 	0.77970 0.44150 0.92694 -0.29800
C 	C 	0.70420 0.56870 0.92156 0.22700
C 	C 	0.67460 0.63200 0.00089 -0.30300
C 	C 	0.58880 0.76790 0.99903 0.60000
C 	C 	0.72630 0.56720 0.08263 0.17300
C 	C 	0.83000 0.38600 0.01208 0.17100
C 	C 	0.04270 0.96820 0.96133 0.26600
C 	C 	0.30840 0.13700 0.34512 0.53100
C 	C 	0.27970 0.05850 0.42694 -0.28200
C 	C 	0.20420 0.93130 0.42156 0.21100
C 	C 	0.17460 0.86800 0.50089 -0.29000
C 	C 	0.08880 0.73210 0.49903 0.59000
C 	C 	0.22630 0.93280 0.58263 0.16600
C 	C 	0.33000 0.11400 0.51208 0.16300
C 	C 	0.54270 0.53180 0.46133 0.26800
C 	C 	0.19160 0.63700 0.15488 0.53600
C 	C 	0.22030 0.55850 0.07306 -0.29800
C 	C 	0.29580 0.43130 0.07844 0.22700
C 	C 	0.32540 0.36800 0.99911 -0.30300
C 	C 	0.41120 0.23210 0.00097 0.60000
C 	C 	0.27370 0.43280 0.91737 0.17300
C 	C 	0.17000 0.61400 0.98792 0.17100
C 	C 	0.95730 0.03180 0.03867 0.26600
N 	N 	0.69260 0.94650 0.41098 -0.19400
N 	N 	0.80740 0.44650 0.08902 -0.19700
N 	N 	0.30740 0.05350 0.58902 -0.19400
N 	N 	0.19260 0.55350 0.91098 -0.19700
O 	O 	0.66430 0.73741 0.64542 -0.55300
O 	O 	0.69610 0.92370 0.72829 -0.58800
O 	O 	0.91410 0.33680 0.57129 -0.60400
O 	O 	0.97450 0.30380 0.43276 -0.61700
O 	O 	0.55240 0.44930 0.61227 -0.44100
O 	O 	0.29680 0.43930 0.52049 -0.43900
O 	O 	0.83570 0.23741 0.85458 -0.55600
O 	O 	0.80390 0.42370 0.77171 -0.59500
O 	O 	0.58590 0.83680 0.92871 -0.60000
O 	O 	0.52550 0.80380 0.06724 -0.62000
O 	O 	0.94760 0.94930 0.88773 -0.43300
O 	O 	0.20320 0.93930 0.97951 -0.43300
O 	O 	0.33570 0.26259 0.35458 -0.55300
O 	O 	0.30390 0.07630 0.27171 -0.58800
O 	O 	0.08590 0.66320 0.42871 -0.60400
O 	O 	0.02550 0.69620 0.56724 -0.61700
O 	O 	0.44760 0.55070 0.38773 -0.44100
O 	O 	0.70320 0.56070 0.47951 -0.43900
O 	O 	0.16430 0.76259 0.14542 -0.55600
O 	O 	0.19610 0.57630 0.22829 -0.59500
O 	O 	0.41410 0.16320 0.07129 -0.60000
O 	O 	0.47450 0.19620 0.93276 -0.62000
O 	O 	0.05240 0.05070 0.11227 -0.43300
O 	O 	0.79680 0.06070 0.02049 -0.43300
