data_crystal

_cell_length_a 9.96910
_cell_length_b 12.40130
_cell_length_c 17.34100
_cell_angle_alpha 90.00000
_cell_angle_beta  103.76200
_cell_angle_gamma 90.00000

_symmetry_space_group_name_	'P 1'
_symmetry_space_group_name_H-M	'P 1'

loop_
_symmetry_equiv_pos_as_xyz
  x,y,z

loop_
_atom_site_label
_atom_site_type_symbol
_atom_site_fract_x
_atom_site_fract_y
_atom_site_fract_z
_atom_site_charge
Fe	Fe	0.86640 0.35340 0.92390 1.21900
Fe	Fe	0.24530 0.42210 0.77970 1.31100
Fe	Fe	0.05970 0.97390 0.86920 1.26100
Fe	Fe	0.52930 0.10980 0.79200 1.26100
P 	P 	0.91570 0.45930 0.10670 0.55500
P 	P 	0.56190 0.37260 0.80800 0.55600
P 	P 	0.21970 0.15450 0.79570 0.52900
P 	P 	0.80360 0.08790 0.94180 0.57000
O 	O 	0.83990 0.20830 0.95660 -0.43000
O 	O 	0.85810 0.40080 0.02870 -0.37900
O 	O 	0.68260 0.40530 0.87780 -0.37700
O 	O 	0.05250 0.51500 0.10360 -0.42900
O 	O 	0.42930 0.38250 0.83790 -0.36900
O 	O 	0.81070 0.54530 0.11960 -0.36500
F 	F 	0.28590 0.40820 0.67260 -0.59600
O 	O 	0.17590 0.26970 0.77010 -0.32700
F 	F 	0.05190 0.46090 0.72070 -0.59900
O 	O 	0.18960 0.07850 0.72390 -0.34300
O 	O 	0.89460 0.03630 0.89400 -0.43000
O 	O 	0.82030 0.03110 0.02170 -0.36000
O 	O 	0.13080 0.11950 0.85420 -0.35600
O 	O 	0.55820 0.45090 0.73950 -0.38900
O 	O 	0.58740 0.25830 0.78290 -0.43100
O 	O 	0.37470 0.14890 0.83780 -0.35500
O 	O 	0.65120 0.07830 0.89770 -0.35600
O 	O 	0.94440 0.37660 0.17390 -0.37400
Fe	Fe	0.63360 0.85340 0.57610 1.22000
Fe	Fe	0.25470 0.92210 0.72030 1.31000
Fe	Fe	0.44030 0.47390 0.63080 1.26200
Fe	Fe	0.97070 0.60980 0.70800 1.26100
P 	P 	0.58430 0.95930 0.39330 0.55500
P 	P 	0.93810 0.87260 0.69200 0.55800
P 	P 	0.28030 0.65450 0.70430 0.52900
P 	P 	0.69640 0.58790 0.55820 0.57100
O 	O 	0.66010 0.70830 0.54340 -0.42800
O 	O 	0.64190 0.90080 0.47130 -0.37900
O 	O 	0.81740 0.90530 0.62220 -0.37600
O 	O 	0.44750 0.01500 0.39640 -0.42800
O 	O 	0.07070 0.88250 0.66210 -0.37100
O 	O 	0.68930 0.04530 0.38040 -0.36600
F 	F 	0.21410 0.90820 0.82740 -0.59600
O 	O 	0.32410 0.76970 0.72990 -0.32700
F 	F 	0.44810 0.96090 0.77930 -0.60000
O 	O 	0.31040 0.57850 0.77610 -0.34500
O 	O 	0.60540 0.53630 0.60600 -0.42800
O 	O 	0.67970 0.53110 0.47830 -0.35900
O 	O 	0.36920 0.61950 0.64580 -0.35800
O 	O 	0.94180 0.95090 0.76050 -0.38700
O 	O 	0.91260 0.75830 0.71710 -0.43000
O 	O 	0.12530 0.64890 0.66220 -0.35500
O 	O 	0.84880 0.57830 0.60230 -0.35600
O 	O 	0.55560 0.87660 0.32610 -0.37400
Fe	Fe	0.13360 0.64660 0.07610 1.21900
Fe	Fe	0.75470 0.57790 0.22030 1.31100
Fe	Fe	0.94030 0.02610 0.13080 1.26100
Fe	Fe	0.47070 0.89020 0.20800 1.26100
P 	P 	0.08430 0.54070 0.89330 0.55500
P 	P 	0.43810 0.62740 0.19200 0.55600
P 	P 	0.78030 0.84550 0.20430 0.52900
P 	P 	0.19640 0.91210 0.05820 0.57000
O 	O 	0.16010 0.79170 0.04340 -0.43000
O 	O 	0.14190 0.59920 0.97130 -0.37900
O 	O 	0.31740 0.59470 0.12220 -0.37700
O 	O 	0.94750 0.48500 0.89640 -0.42900
O 	O 	0.57070 0.61750 0.16210 -0.36900
O 	O 	0.18930 0.45470 0.88040 -0.36500
F 	F 	0.71410 0.59180 0.32740 -0.59600
O 	O 	0.82410 0.73030 0.22990 -0.32700
F 	F 	0.94810 0.53910 0.27930 -0.59900
O 	O 	0.81040 0.92150 0.27610 -0.34300
O 	O 	0.10540 0.96370 0.10600 -0.43000
O 	O 	0.17970 0.96890 0.97830 -0.36000
O 	O 	0.86920 0.88050 0.14580 -0.35600
O 	O 	0.44180 0.54910 0.26050 -0.38900
O 	O 	0.41260 0.74170 0.21710 -0.43100
O 	O 	0.62530 0.85110 0.16220 -0.35500
O 	O 	0.34880 0.92170 0.10230 -0.35600
O 	O 	0.05560 0.62340 0.82610 -0.37400
Fe	Fe	0.36640 0.14660 0.42390 1.22000
Fe	Fe	0.74530 0.07790 0.27970 1.31000
Fe	Fe	0.55970 0.52610 0.36920 1.26200
Fe	Fe	0.02930 0.39020 0.29200 1.26100
P 	P 	0.41570 0.04070 0.60670 0.55500
P 	P 	0.06190 0.12740 0.30800 0.55800
P 	P 	0.71970 0.34550 0.29570 0.52900
P 	P 	0.30360 0.41210 0.44180 0.57100
O 	O 	0.33990 0.29170 0.45660 -0.42800
O 	O 	0.35810 0.09920 0.52870 -0.37900
O 	O 	0.18260 0.09470 0.37780 -0.37600
O 	O 	0.55250 0.98500 0.60360 -0.42800
O 	O 	0.92930 0.11750 0.33790 -0.37100
O 	O 	0.31070 0.95470 0.61960 -0.36600
F 	F 	0.78590 0.09180 0.17260 -0.59600
O 	O 	0.67590 0.23030 0.27010 -0.32700
F 	F 	0.55190 0.03910 0.22070 -0.60000
O 	O 	0.68960 0.42150 0.22390 -0.34500
O 	O 	0.39460 0.46370 0.39400 -0.42800
O 	O 	0.32030 0.46890 0.52170 -0.35900
O 	O 	0.63080 0.38050 0.35420 -0.35800
O 	O 	0.05820 0.04910 0.23950 -0.38700
O 	O 	0.08740 0.24170 0.28290 -0.43000
O 	O 	0.87470 0.35110 0.33780 -0.35500
O 	O 	0.15120 0.42170 0.39770 -0.35600
O 	O 	0.44440 0.12340 0.67390 -0.37400
