data_crystal

_cell_length_a 14.50490
_cell_length_b 17.16160
_cell_length_c 18.13890
_cell_angle_alpha 90.00000
_cell_angle_beta  90.00000
_cell_angle_gamma 90.00000

_symmetry_space_group_name_	'P 1'
_symmetry_space_group_name_H-M	'P 1'

loop_
_symmetry_equiv_pos_as_xyz
  x,y,z

loop_
_atom_site_label
_atom_site_type_symbol
_atom_site_fract_x
_atom_site_fract_y
_atom_site_fract_z
_atom_site_charge
Zn	Zn	0.55479 0.93828 0.45225 1.18000
Zn	Zn	0.34670 0.94612 0.39756 1.22500
Zn	Zn	0.44521 0.43828 0.04775 1.18000
Zn	Zn	0.65330 0.44612 0.10244 1.22600
Zn	Zn	0.44521 0.06172 0.54775 1.18000
Zn	Zn	0.65330 0.05388 0.60244 1.22500
Zn	Zn	0.55479 0.56172 0.95225 1.18100
Zn	Zn	0.34670 0.55388 0.89756 1.22700
H 	H 	0.07860 0.06230 0.40650 0.05300
H 	H 	0.06340 0.89120 0.55570 0.04900
H 	H 	0.33800 0.73080 0.26510 0.04600
H 	H 	0.59510 0.72320 0.34630 0.04100
H 	H 	0.62510 0.61410 0.27700 0.04600
H 	H 	0.36710 0.62150 0.19620 0.03600
H 	H 	0.39100 0.93800 0.51900 0.33400
H 	H 	0.92140 0.56230 0.09350 0.05300
H 	H 	0.93660 0.39120 0.94430 0.05100
H 	H 	0.66200 0.23080 0.23490 0.04600
H 	H 	0.40490 0.22320 0.15370 0.04100
H 	H 	0.37490 0.11410 0.22300 0.04600
H 	H 	0.63290 0.12150 0.30380 0.03700
H 	H 	0.60900 0.43800 0.98100 0.33200
H 	H 	0.92140 0.93770 0.59350 0.05300
H 	H 	0.93660 0.10880 0.44430 0.04900
H 	H 	0.66200 0.26920 0.73490 0.04600
H 	H 	0.40490 0.27680 0.65370 0.04100
H 	H 	0.37490 0.38590 0.72300 0.04600
H 	H 	0.63290 0.37850 0.80380 0.03600
H 	H 	0.60900 0.06200 0.48100 0.33400
H 	H 	0.07860 0.43770 0.90650 0.05300
H 	H 	0.06340 0.60880 0.05570 0.05100
H 	H 	0.33800 0.76920 0.76510 0.04600
H 	H 	0.59510 0.77680 0.84630 0.04100
H 	H 	0.62510 0.88590 0.77700 0.04600
H 	H 	0.36710 0.87850 0.69620 0.03700
H 	H 	0.39100 0.56200 0.01900 0.33200
C 	C 	0.18070 0.94440 0.45650 0.31600
C 	C 	0.08680 0.97290 0.47790 -0.07500
C 	C 	0.04740 0.03720 0.44440 -0.01800
C 	C 	0.03840 0.93510 0.53340 -0.03000
C 	C 	0.44760 0.81350 0.35510 0.38500
C 	C 	0.46350 0.73980 0.31190 -0.08700
C 	C 	0.39590 0.70760 0.26720 -0.02000
C 	C 	0.54960 0.70310 0.31570 -0.02100
C 	C 	0.52130 0.53920 0.17910 0.37800
C 	C 	0.49980 0.60620 0.22860 -0.09500
C 	C 	0.56740 0.63760 0.27440 -0.01700
C 	C 	0.41320 0.64210 0.22600 -0.01700
C 	C 	0.81930 0.44440 0.04350 0.31300
C 	C 	0.91320 0.47290 0.02210 -0.06400
C 	C 	0.95260 0.53720 0.05560 -0.01800
C 	C 	0.96160 0.43510 0.96660 -0.04000
C 	C 	0.55240 0.31350 0.14490 0.38500
C 	C 	0.53650 0.23980 0.18810 -0.08700
C 	C 	0.60410 0.20760 0.23280 -0.02000
C 	C 	0.45040 0.20310 0.18430 -0.02000
C 	C 	0.47870 0.03920 0.32090 0.37700
C 	C 	0.50020 0.10620 0.27140 -0.09500
C 	C 	0.43260 0.13760 0.22560 -0.01700
C 	C 	0.58680 0.14210 0.27400 -0.01700
C 	C 	0.81930 0.05560 0.54350 0.31600
C 	C 	0.91320 0.02710 0.52210 -0.07500
C 	C 	0.95260 0.96280 0.55560 -0.01800
C 	C 	0.96160 0.06490 0.46660 -0.03000
C 	C 	0.55240 0.18650 0.64490 0.38500
C 	C 	0.53650 0.26020 0.68810 -0.08700
C 	C 	0.60410 0.29240 0.73280 -0.02000
C 	C 	0.45040 0.29690 0.68430 -0.02100
C 	C 	0.47870 0.46080 0.82090 0.37800
C 	C 	0.50020 0.39380 0.77140 -0.09500
C 	C 	0.43260 0.36240 0.72560 -0.01700
C 	C 	0.58680 0.35790 0.77400 -0.01700
C 	C 	0.18070 0.55560 0.95650 0.31300
C 	C 	0.08680 0.52710 0.97790 -0.06400
C 	C 	0.04740 0.46280 0.94440 -0.01800
C 	C 	0.03840 0.56490 0.03340 -0.04000
C 	C 	0.44760 0.68650 0.85510 0.38500
C 	C 	0.46350 0.76020 0.81190 -0.08700
C 	C 	0.39590 0.79240 0.76720 -0.02000
C 	C 	0.54960 0.79690 0.81570 -0.02000
C 	C 	0.52130 0.96080 0.67910 0.37700
C 	C 	0.49980 0.89380 0.72860 -0.09500
C 	C 	0.56740 0.86240 0.77440 -0.01700
C 	C 	0.41320 0.85790 0.72600 -0.01700
O 	O 	0.51450 0.84120 0.38870 -0.50100
O 	O 	0.36670 0.84174 0.35350 -0.46900
O 	O 	0.21880 0.97950 0.40270 -0.45900
O 	O 	0.21680 0.89030 0.48920 -0.35200
O 	O 	0.45780 0.51274 0.13956 -0.49400
O 	O 	0.60310 0.51450 0.18011 -0.48000
O 	O 	0.41880 0.96085 0.48710 -0.96000
O 	O 	0.48550 0.34120 0.11130 -0.50100
O 	O 	0.63330 0.34174 0.14650 -0.46800
O 	O 	0.78120 0.47950 0.09730 -0.45700
O 	O 	0.78320 0.39030 0.01080 -0.34900
O 	O 	0.54220 0.01274 0.36044 -0.49400
O 	O 	0.39690 0.01450 0.31989 -0.47900
O 	O 	0.58120 0.46085 0.01290 -0.95800
O 	O 	0.48550 0.15880 0.61130 -0.50100
O 	O 	0.63330 0.15826 0.64650 -0.46900
O 	O 	0.78120 0.02050 0.59730 -0.45900
O 	O 	0.78320 0.10970 0.51080 -0.35200
O 	O 	0.54220 0.48726 0.86044 -0.49400
O 	O 	0.39690 0.48550 0.81989 -0.48000
O 	O 	0.58120 0.03915 0.51290 -0.96000
O 	O 	0.51450 0.65880 0.88870 -0.50100
O 	O 	0.36670 0.65826 0.85350 -0.46800
O 	O 	0.21880 0.52050 0.90270 -0.45700
O 	O 	0.21680 0.60970 0.98920 -0.34900
O 	O 	0.45780 0.98726 0.63956 -0.49400
O 	O 	0.60310 0.98550 0.68011 -0.47900
O 	O 	0.41880 0.53915 0.98710 -0.95800
Zn	Zn	0.94521 0.06172 0.95225 1.17800
Zn	Zn	0.15330 0.05388 0.89756 1.22700
Zn	Zn	0.05479 0.56172 0.54775 1.18100
Zn	Zn	0.84670 0.55388 0.60244 1.22600
Zn	Zn	0.05479 0.93828 0.04775 1.17800
Zn	Zn	0.84670 0.94612 0.10244 1.22700
Zn	Zn	0.94521 0.43828 0.45225 1.18100
Zn	Zn	0.15330 0.44612 0.39756 1.22600
H 	H 	0.42140 0.93770 0.90650 0.05400
H 	H 	0.43660 0.10880 0.05570 0.04700
H 	H 	0.16200 0.26920 0.76510 0.04500
H 	H 	0.90490 0.27680 0.84630 0.04000
H 	H 	0.87490 0.38590 0.77700 0.04800
H 	H 	0.13290 0.37850 0.69620 0.03800
H 	H 	0.10900 0.06200 0.01900 0.33100
H 	H 	0.57860 0.43770 0.59350 0.05500
H 	H 	0.56340 0.60880 0.44430 0.04800
H 	H 	0.83800 0.76920 0.73490 0.04600
H 	H 	0.09510 0.77680 0.65370 0.04100
H 	H 	0.12510 0.88590 0.72300 0.04600
H 	H 	0.86710 0.87850 0.80380 0.03700
H 	H 	0.89100 0.56200 0.48100 0.33400
H 	H 	0.57860 0.06230 0.09350 0.05400
H 	H 	0.56340 0.89120 0.94430 0.04700
H 	H 	0.83800 0.73080 0.23490 0.04500
H 	H 	0.09510 0.72320 0.15370 0.04000
H 	H 	0.12510 0.61410 0.22300 0.04800
H 	H 	0.86710 0.62150 0.30380 0.03800
H 	H 	0.89100 0.93800 0.98100 0.33100
H 	H 	0.42140 0.56230 0.40650 0.05500
H 	H 	0.43660 0.39120 0.55570 0.04800
H 	H 	0.16200 0.23080 0.26510 0.04600
H 	H 	0.90490 0.22320 0.34630 0.04100
H 	H 	0.87490 0.11410 0.27700 0.04600
H 	H 	0.13290 0.12150 0.19620 0.03700
H 	H 	0.10900 0.43800 0.51900 0.33400
C 	C 	0.31930 0.05560 0.95650 0.31600
C 	C 	0.41320 0.02710 0.97790 -0.07400
C 	C 	0.45260 0.96280 0.94440 -0.02400
C 	C 	0.46160 0.06490 0.03340 -0.02400
C 	C 	0.05240 0.18650 0.85510 0.39300
C 	C 	0.03650 0.26020 0.81190 -0.08600
C 	C 	0.10410 0.29240 0.76720 -0.01700
C 	C 	0.95040 0.29690 0.81570 -0.02300
C 	C 	0.97870 0.46080 0.67910 0.37100
C 	C 	0.00020 0.39380 0.72860 -0.08700
C 	C 	0.93260 0.36240 0.77440 -0.02300
C 	C 	0.08680 0.35790 0.72600 -0.02100
C 	C 	0.68070 0.55560 0.54350 0.31500
C 	C 	0.58680 0.52710 0.52210 -0.07000
C 	C 	0.54740 0.46280 0.55560 -0.02700
C 	C 	0.53840 0.56490 0.46660 -0.02600
C 	C 	0.94760 0.68650 0.64490 0.38500
C 	C 	0.96350 0.76020 0.68810 -0.08700
C 	C 	0.89590 0.79240 0.73280 -0.02000
C 	C 	0.04960 0.79690 0.68430 -0.02000
C 	C 	0.02130 0.96080 0.82090 0.37800
C 	C 	0.99980 0.89380 0.77140 -0.09500
C 	C 	0.06740 0.86240 0.72560 -0.01700
C 	C 	0.91320 0.85790 0.77400 -0.01700
C 	C 	0.68070 0.94440 0.04350 0.31600
C 	C 	0.58680 0.97290 0.02210 -0.07400
C 	C 	0.54740 0.03720 0.05560 -0.02400
C 	C 	0.53840 0.93510 0.96660 -0.02400
C 	C 	0.94760 0.81350 0.14490 0.39300
C 	C 	0.96350 0.73980 0.18810 -0.08600
C 	C 	0.89590 0.70760 0.23280 -0.01700
C 	C 	0.04960 0.70310 0.18430 -0.02300
C 	C 	0.02130 0.53920 0.32090 0.37100
C 	C 	0.99980 0.60620 0.27140 -0.08700
C 	C 	0.06740 0.63760 0.22560 -0.02300
C 	C 	0.91320 0.64210 0.27400 -0.02100
C 	C 	0.31930 0.44440 0.45650 0.31500
C 	C 	0.41320 0.47290 0.47790 -0.07000
C 	C 	0.45260 0.53720 0.44440 -0.02700
C 	C 	0.46160 0.43510 0.53340 -0.02600
C 	C 	0.05240 0.31350 0.35510 0.38500
C 	C 	0.03650 0.23980 0.31190 -0.08700
C 	C 	0.10410 0.20760 0.26720 -0.02000
C 	C 	0.95040 0.20310 0.31570 -0.02000
C 	C 	0.97870 0.03920 0.17910 0.37800
C 	C 	0.00020 0.10620 0.22860 -0.09500
C 	C 	0.93260 0.13760 0.27440 -0.01700
C 	C 	0.08680 0.14210 0.22600 -0.01700
O 	O 	0.98550 0.15880 0.88870 -0.50900
O 	O 	0.13330 0.15826 0.85350 -0.46900
O 	O 	0.28120 0.02050 0.90270 -0.45700
O 	O 	0.28320 0.10970 0.98920 -0.35100
O 	O 	0.04220 0.48726 0.63956 -0.49100
O 	O 	0.89690 0.48550 0.68011 -0.47900
O 	O 	0.08120 0.03915 0.98710 -0.95400
O 	O 	0.01450 0.65880 0.61130 -0.50100
O 	O 	0.86670 0.65826 0.64650 -0.46800
O 	O 	0.71880 0.52050 0.59730 -0.45700
O 	O 	0.71680 0.60970 0.51080 -0.35100
O 	O 	0.95780 0.98726 0.86044 -0.49300
O 	O 	0.10310 0.98550 0.81989 -0.48000
O 	O 	0.91880 0.53915 0.51290 -0.96000
O 	O 	0.01450 0.84120 0.11130 -0.50900
O 	O 	0.86670 0.84174 0.14650 -0.46900
O 	O 	0.71880 0.97950 0.09730 -0.45700
O 	O 	0.71680 0.89030 0.01080 -0.35100
O 	O 	0.95780 0.51274 0.36044 -0.49100
O 	O 	0.10310 0.51450 0.31989 -0.47900
O 	O 	0.91880 0.96085 0.01290 -0.95400
O 	O 	0.98550 0.34120 0.38870 -0.50100
O 	O 	0.13330 0.34174 0.35350 -0.46800
O 	O 	0.28120 0.47950 0.40270 -0.45700
O 	O 	0.28320 0.39030 0.48920 -0.35100
O 	O 	0.04220 0.01274 0.13956 -0.49300
O 	O 	0.89690 0.01450 0.18011 -0.48000
O 	O 	0.08120 0.46085 0.48710 -0.96000
