data_crystal

_cell_length_a 6.60800
_cell_length_b 7.79980
_cell_length_c 10.61700
_cell_angle_alpha 111.55100
_cell_angle_beta  104.75000
_cell_angle_gamma 90.00000

_symmetry_space_group_name_	'P 1'
_symmetry_space_group_name_H-M	'P 1'

loop_
_symmetry_equiv_pos_as_xyz
  x,y,z

loop_
_atom_site_label
_atom_site_type_symbol
_atom_site_fract_x
_atom_site_fract_y
_atom_site_fract_z
_atom_site_charge
Al	Al	-0.00000 0.00000 -0.00000 2.34600
Al	Al	0.50000 0.00000 -0.00000 2.36100
C 	C 	0.90800 0.94900 0.35800 0.10000
C 	C 	0.12400 0.95200 0.42400 -0.18700
C 	C 	0.19000 0.97500 0.57000 0.52400
C 	C 	0.04800 0.01400 0.64800 -0.77500
C 	C 	0.83200 0.01100 0.58200 0.01200
C 	C 	0.77000 0.98000 0.44000 0.25300
C 	C 	0.84400 0.91700 0.21400 0.50100
C 	C 	0.11200 0.03600 0.79200 0.46200
C 	C 	0.40800 0.40900 0.35800 -0.34500
C 	C 	0.62400 0.47200 0.42400 0.16400
C 	C 	0.69000 0.59500 0.57000 -0.03900
C 	C 	0.54800 0.63400 0.64800 -0.06300
C 	C 	0.33200 0.57100 0.58200 -0.06400
C 	C 	0.27000 0.46000 0.44000 0.07900
C 	C 	0.34400 0.29700 0.21400 0.63200
C 	C 	0.61200 0.75600 0.79200 0.55500
N 	N 	0.27600 0.91300 0.34600 -0.12400
N 	N 	0.77600 0.43300 0.34600 -0.19900
O 	O 	0.97400 0.89200 0.14400 -0.45300
O 	O 	0.65600 0.92200 0.15600 -0.56600
O 	O 	0.30000 0.03700 0.85000 -0.69300
O 	O 	0.98200 0.06600 0.86200 -0.48700
O 	O 	0.26625 0.89234 0.00528 -1.02000
O 	O 	0.47400 0.25200 0.14400 -0.82300
O 	O 	0.15600 0.23400 0.15600 -0.92200
O 	O 	0.80000 0.81300 0.85000 -0.36500
O 	O 	0.48200 0.79600 0.86200 -0.52200
O 	O 	0.76625 0.11294 0.00528 -1.31500
H 	H 	0.36019 0.96067 0.62015 0.05100
H 	H 	0.71226 0.03391 0.64573 -0.02300
H 	H 	0.59725 0.97931 0.38545 0.02200
H 	H 	0.86019 0.65948 0.62015 0.16700
H 	H 	0.21226 0.61182 0.64573 0.04100
H 	H 	0.09725 0.40613 0.38545 -0.13300
H 	H 	0.22872 0.82153 0.23268 0.03800
H 	H 	0.44182 0.97405 0.39849 0.13400
H 	H 	0.72872 0.34153 0.23268 0.08600
H 	H 	0.94182 0.49405 0.39849 0.19000
H 	H 	0.76625 0.25079 0.04248 0.28400
H 	H 	0.26625 0.75449 -0.03192 0.11600
