data_crystal

_cell_length_a 13.43190
_cell_length_b 16.21600
_cell_length_c 16.29110
_cell_angle_alpha 108.09900
_cell_angle_beta  102.65200
_cell_angle_gamma 106.18800

_symmetry_space_group_name_	'P 1'
_symmetry_space_group_name_H-M	'P 1'

loop_
_symmetry_equiv_pos_as_xyz
  x,y,z

loop_
_atom_site_label
_atom_site_type_symbol
_atom_site_fract_x
_atom_site_fract_y
_atom_site_fract_z
_atom_site_charge
Mn	Mn	0.20488 0.37799 0.39936 1.31000
Mn	Mn	0.79512 0.62201 0.60064 1.31000
Mn	Mn	0.50000 0.50000 0.50000 1.31400
H 	H 	0.32980 0.10800 0.87460 0.05000
H 	H 	0.44550 0.18880 0.94310 0.05000
H 	H 	0.54050 0.32990 0.25060 -0.01200
H 	H 	0.55140 0.22390 0.11910 0.14200
H 	H 	0.22410 0.09540 0.02720 0.13900
H 	H 	0.53790 0.21770 0.70390 0.13000
H 	H 	0.20310 0.64160 0.63060 0.00400
H 	H 	0.51770 0.30510 0.61720 -0.00700
H 	H 	0.61100 0.05420 0.88220 0.04900
H 	H 	0.55980 0.05370 0.96240 0.05100
H 	H 	0.52530 0.09540 0.75750 0.04900
H 	H 	0.52500 0.18920 0.82940 0.04200
H 	H 	0.26620 0.79930 0.72590 0.12800
H 	H 	0.72690 0.08240 0.04010 0.12700
H 	H 	0.46010 0.69520 0.53760 -0.00600
H 	H 	0.52530 0.85070 0.63570 0.13000
H 	H 	0.88230 0.14420 0.16960 0.00400
H 	H 	0.31910 0.96060 0.76830 0.04700
H 	H 	0.38620 0.93740 0.84710 0.03900
H 	H 	0.21550 0.19890 0.15710 -0.01400
H 	H 	0.75260 0.34370 0.06820 0.12600
H 	H 	0.91480 0.40570 0.19270 0.01100
H 	H 	0.20950 0.10700 0.63710 0.13600
H 	H 	0.18830 0.19850 0.55420 -0.00200
H 	H 	0.67020 0.89200 0.12540 0.05000
H 	H 	0.55450 0.81120 0.05690 0.05000
H 	H 	0.45950 0.67010 0.74940 -0.01200
H 	H 	0.44860 0.77610 0.88090 0.14200
H 	H 	0.77590 0.90460 0.97280 0.13900
H 	H 	0.46210 0.78230 0.29610 0.13000
H 	H 	0.79690 0.35840 0.36940 0.00400
H 	H 	0.48230 0.69490 0.38280 -0.00700
H 	H 	0.38900 0.94580 0.11780 0.04900
H 	H 	0.44020 0.94630 0.03760 0.05100
H 	H 	0.47470 0.90460 0.24250 0.04900
H 	H 	0.47500 0.81080 0.17060 0.04200
H 	H 	0.73380 0.20070 0.27410 0.12800
H 	H 	0.27310 0.91760 0.95990 0.12700
H 	H 	0.53990 0.30480 0.46240 -0.00600
H 	H 	0.47470 0.14930 0.36430 0.13000
H 	H 	0.11770 0.85580 0.83040 0.00400
H 	H 	0.68090 0.03940 0.23170 0.04700
H 	H 	0.61380 0.06260 0.15290 0.03900
H 	H 	0.78450 0.80110 0.84290 -0.01400
H 	H 	0.24740 0.65630 0.93180 0.12600
H 	H 	0.08520 0.59430 0.80730 0.01100
H 	H 	0.79050 0.89300 0.36290 0.13600
H 	H 	0.81170 0.80150 0.44580 -0.00200
C 	C 	0.36890 0.34510 0.29970 0.46100
C 	C 	0.40400 0.12030 0.91460 0.00200
C 	C 	0.47500 0.28230 0.20480 0.18400
C 	C 	0.48190 0.21840 0.12640 -0.28400
C 	C 	0.38850 0.14890 0.06120 0.30400
C 	C 	0.28990 0.14300 0.07260 -0.29700
C 	C 	0.46680 0.21430 0.67400 -0.27300
C 	C 	0.37490 0.15770 0.68180 0.28800
C 	C 	0.72550 0.20870 0.04240 0.26700
C 	C 	0.32590 0.65150 0.57450 -0.19500
C 	C 	0.26860 0.68420 0.63140 0.14800
C 	C 	0.46290 0.07280 0.85800 0.01700
C 	C 	0.45420 0.26580 0.62230 0.16600
C 	C 	0.57160 0.08400 0.91930 0.01000
C 	C 	0.48270 0.12140 0.79380 0.01500
C 	C 	0.30630 0.77770 0.68850 -0.25900
C 	C 	0.76400 0.14820 0.07190 -0.25200
C 	C 	0.40230 0.83930 0.69100 0.27900
C 	C 	0.42110 0.71570 0.57670 0.14800
C 	C 	0.45950 0.80790 0.63440 -0.24900
C 	C 	0.85690 0.18540 0.14820 0.12600
C 	C 	0.01770 0.32000 0.27480 0.32300
C 	C 	0.91370 0.27990 0.19400 -0.15800
C 	C 	0.37810 0.27690 0.21570 -0.23500
C 	C 	0.28630 0.55210 0.51610 0.37600
C 	C 	0.34000 0.32270 0.52630 0.43000
C 	C 	0.35240 0.26210 0.57790 -0.20900
C 	C 	0.39350 0.96940 0.80460 0.01500
C 	C 	0.28490 0.20520 0.14940 0.18900
C 	C 	0.78030 0.30270 0.08800 -0.24300
C 	C 	0.87580 0.33990 0.16300 0.12200
C 	C 	0.27270 0.14970 0.63490 -0.26500
C 	C 	0.25970 0.20260 0.58430 0.15900
C 	C 	0.63110 0.65490 0.70030 0.46100
C 	C 	0.59600 0.87970 0.08540 0.00200
C 	C 	0.52500 0.71770 0.79520 0.18400
C 	C 	0.51810 0.78160 0.87360 -0.28400
C 	C 	0.61150 0.85110 0.93880 0.30400
C 	C 	0.71010 0.85700 0.92740 -0.29700
C 	C 	0.53320 0.78570 0.32600 -0.27300
C 	C 	0.62510 0.84230 0.31820 0.28800
C 	C 	0.27450 0.79130 0.95760 0.26700
C 	C 	0.67410 0.34850 0.42550 -0.19500
C 	C 	0.73140 0.31580 0.36860 0.14800
C 	C 	0.53710 0.92720 0.14200 0.01700
C 	C 	0.54580 0.73420 0.37770 0.16600
C 	C 	0.42840 0.91600 0.08070 0.01000
C 	C 	0.51730 0.87860 0.20620 0.01500
C 	C 	0.69370 0.22230 0.31150 -0.25900
C 	C 	0.23600 0.85180 0.92810 -0.25200
C 	C 	0.59770 0.16070 0.30900 0.27900
C 	C 	0.57890 0.28430 0.42330 0.14800
C 	C 	0.54050 0.19210 0.36560 -0.24900
C 	C 	0.14310 0.81460 0.85180 0.12600
C 	C 	0.98230 0.68000 0.72520 0.32300
C 	C 	0.08630 0.72010 0.80600 -0.15800
C 	C 	0.62190 0.72310 0.78430 -0.23500
C 	C 	0.71370 0.44790 0.48390 0.37600
C 	C 	0.66000 0.67730 0.47370 0.43000
C 	C 	0.64760 0.73790 0.42210 -0.20900
C 	C 	0.60650 0.03060 0.19540 0.01500
C 	C 	0.71510 0.79480 0.85060 0.18900
C 	C 	0.21970 0.69730 0.91200 -0.24300
C 	C 	0.12420 0.66010 0.83700 0.12200
C 	C 	0.72730 0.85030 0.36510 -0.26500
C 	C 	0.74030 0.79740 0.41570 0.15900
O 	O 	0.45640 0.40794 0.35825 -0.45300
O 	O 	0.63480 0.18161 0.96881 -0.24600
O 	O 	0.39410 0.08509 0.98599 -0.25400
O 	O 	0.44830 0.93179 0.74545 -0.24400
O 	O 	0.37770 0.10607 0.73426 -0.24400
O 	O 	0.19660 0.49606 0.50984 -0.39300
O 	O 	0.27590 0.33140 0.30401 -0.48600
O 	O 	0.34120 0.52166 0.46698 -0.51400
O 	O 	0.42570 0.38263 0.53183 -0.46000
O 	O 	0.03820 0.26880 0.31463 -0.37600
O 	O 	0.08420 0.40280 0.29838 -0.36300
O 	O 	0.24300 0.30890 0.48304 -0.45700
O 	O 	0.54360 0.59206 0.64175 -0.45300
O 	O 	0.36520 0.81839 0.03119 -0.24600
O 	O 	0.60590 0.91491 0.01401 -0.25400
O 	O 	0.55170 0.06821 0.25455 -0.24400
O 	O 	0.62230 0.89393 0.26574 -0.24400
O 	O 	0.80340 0.50394 0.49016 -0.39300
O 	O 	0.72410 0.66860 0.69599 -0.48600
O 	O 	0.65880 0.47834 0.53302 -0.51400
O 	O 	0.57430 0.61737 0.46817 -0.46000
O 	O 	0.96180 0.73120 0.68537 -0.37600
O 	O 	0.91580 0.59720 0.70162 -0.36300
O 	O 	0.75700 0.69110 0.51696 -0.45700
