data_crystal

_cell_length_a 17.11930
_cell_length_b 17.11930
_cell_length_c 17.11930
_cell_angle_alpha 98.28570
_cell_angle_beta  115.33700
_cell_angle_gamma 115.33700

_symmetry_space_group_name_	'P 1'
_symmetry_space_group_name_H-M	'P 1'

loop_
_symmetry_equiv_pos_as_xyz
  x,y,z

loop_
_atom_site_label
_atom_site_type_symbol
_atom_site_fract_x
_atom_site_fract_y
_atom_site_fract_z
_atom_site_charge
Zn	Zn	0.38449 0.78687 0.84800 1.21200
Zn	Zn	0.88449 0.03649 0.59762 1.21000
H 	H 	0.32400 0.88610 0.96090 -0.00900
H 	H 	0.22240 0.81580 0.69280 0.01800
H 	H 	0.09640 0.88300 0.64480 0.03400
H 	H 	0.10980 0.98170 0.79570 0.11800
H 	H 	0.53190 0.99020 0.87550 -0.00800
H 	H 	0.47180 0.75860 0.71480 0.03600
H 	H 	0.61490 0.83720 0.66850 0.04000
H 	H 	0.71240 0.02970 0.73350 0.12900
H 	H 	0.21150 0.93660 0.89470 0.14700
H 	H 	0.64160 0.03240 0.82000 0.15600
H 	H 	0.82400 0.86310 0.43790 -0.00800
H 	H 	0.72240 0.02960 0.40660 0.01100
H 	H 	0.59640 0.95160 0.21340 0.03400
H 	H 	0.60980 0.81410 0.12810 0.12500
H 	H 	0.03190 0.15640 0.54170 -0.00900
H 	H 	0.97180 0.25700 0.71320 0.03000
H 	H 	0.11490 0.44640 0.77770 0.03800
H 	H 	0.21240 0.47890 0.68270 0.13200
H 	H 	0.71150 0.81680 0.27490 0.14900
H 	H 	0.14160 0.32160 0.60920 0.15600
C 	C 	0.28970 0.87873 0.89843 0.13400
C 	C 	0.23370 0.84052 0.75142 -0.01800
C 	C 	0.18930 0.88444 0.76894 0.05300
C 	C 	0.12020 0.90632 0.70832 0.01600
C 	C 	0.08670 0.95577 0.73267 -0.22500
C 	C 	0.01330 0.97068 0.66198 0.37100
C 	C 	0.53370 0.94862 0.83592 0.12400
C 	C 	0.50100 0.82206 0.74766 -0.02100
C 	C 	0.57690 0.89505 0.74835 0.06300
C 	C 	0.62960 0.89507 0.70127 0.01400
C 	C 	0.69730 0.97144 0.70114 -0.21500
C 	C 	0.75000 0.96853 0.65193 0.37900
C 	C 	0.78970 0.89127 0.41097 0.13600
C 	C 	0.73370 0.98228 0.39318 -0.00500
C 	C 	0.68930 0.92036 0.30486 0.04900
C 	C 	0.62020 0.91188 0.21388 0.02600
C 	C 	0.58670 0.85403 0.13093 -0.23300
C 	C 	0.51330 0.85132 0.04262 0.39300
C 	C 	0.03370 0.19778 0.58508 0.12900
C 	C 	0.00100 0.25334 0.67894 -0.00900
C 	C 	0.07690 0.32855 0.68185 0.05700
C 	C 	0.12960 0.42833 0.73453 0.01900
C 	C 	0.19730 0.49616 0.72586 -0.22000
C 	C 	0.25000 0.59807 0.78147 0.37600
N 	N 	0.29750 0.83800 0.83262 -0.27100
N 	N 	0.22653 0.90794 0.86355 -0.21900
N 	N 	0.47388 0.85603 0.80295 -0.26100
N 	N 	0.59645 0.97520 0.80595 -0.21900
N 	N 	0.79750 0.96488 0.45950 -0.27100
N 	N 	0.72653 0.86298 0.31859 -0.21800
N 	N 	0.97388 0.17093 0.61785 -0.26700
N 	N 	0.09645 0.29050 0.62125 -0.21900
O 	O 	0.98491 0.01971 0.69348 -0.46900
O 	O 	0.98248 0.94072 0.57880 -0.32600
O 	O 	0.80798 0.04748 0.65386 -0.46000
O 	O 	0.73724 0.89336 0.61238 -0.33800
O 	O 	0.48491 0.79143 0.96520 -0.47300
O 	O 	0.48248 0.90368 0.04176 -0.33600
O 	O 	0.30798 0.65412 0.76050 -0.45600
O 	O 	0.23724 0.62486 0.84388 -0.33900
Zn	Zn	0.11551 0.96351 0.40238 1.20900
Zn	Zn	0.61551 0.21313 0.15200 1.21100
H 	H 	0.17600 0.13690 0.56210 -0.00800
H 	H 	0.27760 0.97040 0.59340 0.01100
H 	H 	0.40360 0.04840 0.78660 0.03400
H 	H 	0.39020 0.18590 0.87190 0.12500
H 	H 	0.96810 0.84360 0.45830 -0.00900
H 	H 	0.02820 0.74300 0.28680 0.03000
H 	H 	0.88510 0.55360 0.22230 0.03800
H 	H 	0.78760 0.52110 0.31730 0.13200
H 	H 	0.28850 0.18320 0.72510 0.14900
H 	H 	0.85840 0.67840 0.39080 0.15600
H 	H 	0.67600 0.11390 0.03910 -0.00900
H 	H 	0.77760 0.18420 0.30720 0.01800
H 	H 	0.90360 0.11700 0.35520 0.03400
H 	H 	0.89020 0.01830 0.20430 0.11800
H 	H 	0.46810 0.00980 0.12450 -0.00800
H 	H 	0.52820 0.24140 0.28520 0.03600
H 	H 	0.38510 0.16280 0.33150 0.04000
H 	H 	0.28760 0.97030 0.26650 0.12900
H 	H 	0.78850 0.06340 0.10530 0.14700
H 	H 	0.35840 0.96760 0.18000 0.15600
C 	C 	0.21030 0.10873 0.58903 0.13600
C 	C 	0.26630 0.01772 0.60682 -0.00500
C 	C 	0.31070 0.07964 0.69514 0.04900
C 	C 	0.37980 0.08812 0.78612 0.02600
C 	C 	0.41330 0.14597 0.86907 -0.23300
C 	C 	0.48670 0.14868 0.95738 0.39300
C 	C 	0.96630 0.80222 0.41492 0.12900
C 	C 	0.99900 0.74666 0.32106 -0.00900
C 	C 	0.92310 0.67145 0.31815 0.05700
C 	C 	0.87040 0.57167 0.26547 0.01900
C 	C 	0.80270 0.50384 0.27414 -0.22000
C 	C 	0.75000 0.40193 0.21853 0.37600
C 	C 	0.71030 0.12127 0.10157 0.13400
C 	C 	0.76630 0.15948 0.24858 -0.01800
C 	C 	0.81070 0.11556 0.23106 0.05300
C 	C 	0.87980 0.09368 0.29168 0.01600
C 	C 	0.91330 0.04423 0.26733 -0.22500
C 	C 	0.98670 0.02932 0.33802 0.37100
C 	C 	0.46630 0.05138 0.16408 0.12400
C 	C 	0.49900 0.17794 0.25234 -0.02100
C 	C 	0.42310 0.10495 0.25165 0.06300
C 	C 	0.37040 0.10493 0.29873 0.01400
C 	C 	0.30270 0.02856 0.29886 -0.21500
C 	C 	0.25000 0.03147 0.34807 0.37900
N 	N 	0.20250 0.03512 0.54050 -0.27100
N 	N 	0.27347 0.13702 0.68141 -0.21800
N 	N 	0.02612 0.82907 0.38215 -0.26700
N 	N 	0.90355 0.70950 0.37875 -0.21900
N 	N 	0.70250 0.16200 0.16738 -0.27100
N 	N 	0.77347 0.09206 0.13645 -0.21900
N 	N 	0.52612 0.14397 0.19705 -0.26100
N 	N 	0.40355 0.02480 0.19405 -0.21900
O 	O 	0.51509 0.20857 0.03480 -0.47300
O 	O 	0.51752 0.09632 0.95824 -0.33600
O 	O 	0.69202 0.34588 0.23950 -0.45600
O 	O 	0.76276 0.37514 0.15612 -0.33900
O 	O 	0.01509 0.98029 0.30652 -0.46900
O 	O 	0.01752 0.05928 0.42120 -0.32600
O 	O 	0.19202 0.95252 0.34614 -0.46000
O 	O 	0.26276 0.10664 0.38762 -0.33800
Zn	Zn	0.06113 0.84800 0.96351 1.20800
Zn	Zn	0.56113 0.59762 0.21313 1.21100
H 	H 	0.07480 0.96090 0.13690 -0.00700
H 	H 	0.87700 0.69280 0.97040 0.02000
H 	H 	0.76180 0.64480 0.04840 0.03400
H 	H 	0.81400 0.79570 0.18590 0.12500
H 	H 	0.88530 0.87550 0.84360 -0.00700
H 	H 	0.95620 0.71480 0.74300 0.03700
H 	H 	0.83130 0.66850 0.55360 0.04000
H 	H 	0.70380 0.73350 0.52110 0.13200
H 	H 	0.95810 0.89470 0.18320 0.15100
H 	H 	0.78760 0.82000 0.67840 0.15600
H 	H 	0.57480 0.43790 0.11390 -0.00800
H 	H 	0.37700 0.40660 0.18420 0.01800
H 	H 	0.26180 0.21340 0.11700 0.03300
H 	H 	0.31400 0.12810 0.01830 0.12600
H 	H 	0.38530 0.54170 0.00980 -0.00700
H 	H 	0.45620 0.71320 0.24140 0.03600
H 	H 	0.33130 0.77770 0.16280 0.04000
H 	H 	0.20380 0.68270 0.97030 0.12700
H 	H 	0.45810 0.27490 0.06340 0.14800
H 	H 	0.28760 0.60920 0.96760 0.15400
C 	C 	0.01970 0.89843 0.10873 0.12800
C 	C 	0.91090 0.75142 0.01772 -0.01800
C 	C 	0.88450 0.76894 0.07964 0.05300
C 	C 	0.80200 0.70832 0.08812 0.02200
C 	C 	0.77690 0.73267 0.14597 -0.23100
C 	C 	0.69130 0.66198 0.14868 0.38900
C 	C 	0.88730 0.83592 0.80222 0.12500
C 	C 	0.92560 0.74766 0.74666 -0.02000
C 	C 	0.85330 0.74835 0.67145 0.06300
C 	C 	0.80620 0.70127 0.57167 0.01500
C 	C 	0.72970 0.70114 0.50384 -0.21800
C 	C 	0.68340 0.65193 0.40193 0.37600
C 	C 	0.51970 0.41097 0.12127 0.13500
C 	C 	0.41090 0.39318 0.15948 -0.01600
C 	C 	0.38450 0.30486 0.11556 0.05100
C 	C 	0.30200 0.21388 0.09368 0.02500
C 	C 	0.27690 0.13093 0.04423 -0.23500
C 	C 	0.19130 0.04262 0.02932 0.39800
C 	C 	0.38730 0.58508 0.05138 0.12300
C 	C 	0.42560 0.67894 0.17794 -0.02100
C 	C 	0.35330 0.68185 0.10495 0.06300
C 	C 	0.30620 0.73453 0.10493 0.01200
C 	C 	0.22970 0.72586 0.02856 -0.21200
C 	C 	0.18340 0.78147 0.03147 0.37900
N 	N 	0.99462 0.83262 0.03512 -0.26600
N 	N 	0.95561 0.86355 0.13702 -0.21600
N 	N 	0.94692 0.80295 0.82907 -0.25800
N 	N 	0.83075 0.80595 0.70950 -0.21900
N 	N 	0.49462 0.45950 0.16200 -0.27100
N 	N 	0.45561 0.31859 0.09206 -0.21800
N 	N 	0.44692 0.61785 0.14397 -0.26000
N 	N 	0.33075 0.62125 0.02480 -0.21700
O 	O 	0.67377 0.69348 0.20857 -0.47000
O 	O 	0.63808 0.57880 0.09632 -0.33800
O 	O 	0.60638 0.65386 0.34588 -0.45600
O 	O 	0.71902 0.61238 0.37514 -0.33800
O 	O 	0.17377 0.96520 0.98029 -0.47900
O 	O 	0.13808 0.04176 0.05928 -0.33800
O 	O 	0.10638 0.76050 0.95252 -0.46100
O 	O 	0.21902 0.84388 0.10664 -0.33900
Zn	Zn	0.43887 0.40238 0.78687 1.21100
Zn	Zn	0.93887 0.15200 0.03649 1.20800
H 	H 	0.42520 0.56210 0.88610 -0.00800
H 	H 	0.62300 0.59340 0.81580 0.01800
H 	H 	0.73820 0.78660 0.88300 0.03300
H 	H 	0.68600 0.87190 0.98170 0.12600
H 	H 	0.61470 0.45830 0.99020 -0.00700
H 	H 	0.54380 0.28680 0.75860 0.03600
H 	H 	0.66870 0.22230 0.83720 0.04000
H 	H 	0.79620 0.31730 0.02970 0.12700
H 	H 	0.54190 0.72510 0.93660 0.14800
H 	H 	0.71240 0.39080 0.03240 0.15400
H 	H 	0.92520 0.03910 0.86310 -0.00700
H 	H 	0.12300 0.30720 0.02960 0.02000
H 	H 	0.23820 0.35520 0.95160 0.03400
H 	H 	0.18600 0.20430 0.81410 0.12500
H 	H 	0.11470 0.12450 0.15640 -0.00700
H 	H 	0.04380 0.28520 0.25700 0.03700
H 	H 	0.16870 0.33150 0.44640 0.04000
H 	H 	0.29620 0.26650 0.47890 0.13200
H 	H 	0.04190 0.10530 0.81680 0.15100
H 	H 	0.21240 0.18000 0.32160 0.15600
C 	C 	0.48030 0.58903 0.87873 0.13500
C 	C 	0.58910 0.60682 0.84052 -0.01600
C 	C 	0.61550 0.69514 0.88444 0.05100
C 	C 	0.69800 0.78612 0.90632 0.02500
C 	C 	0.72310 0.86907 0.95577 -0.23500
C 	C 	0.80870 0.95738 0.97068 0.39800
C 	C 	0.61270 0.41492 0.94862 0.12300
C 	C 	0.57440 0.32106 0.82206 -0.02100
C 	C 	0.64670 0.31815 0.89505 0.06300
C 	C 	0.69380 0.26547 0.89507 0.01200
C 	C 	0.77030 0.27414 0.97144 -0.21200
C 	C 	0.81660 0.21853 0.96853 0.37900
C 	C 	0.98030 0.10157 0.89127 0.12800
C 	C 	0.08910 0.24858 0.98228 -0.01800
C 	C 	0.11550 0.23106 0.92036 0.05300
C 	C 	0.19800 0.29168 0.91188 0.02200
C 	C 	0.22310 0.26733 0.85403 -0.23100
C 	C 	0.30870 0.33802 0.85132 0.38900
C 	C 	0.11270 0.16408 0.19778 0.12500
C 	C 	0.07440 0.25234 0.25334 -0.02000
C 	C 	0.14670 0.25165 0.32855 0.06300
C 	C 	0.19380 0.29873 0.42833 0.01500
C 	C 	0.27030 0.29886 0.49616 -0.21800
C 	C 	0.31660 0.34807 0.59807 0.37600
N 	N 	0.50538 0.54050 0.83800 -0.27100
N 	N 	0.54439 0.68141 0.90794 -0.21800
N 	N 	0.55308 0.38215 0.85603 -0.26000
N 	N 	0.66925 0.37875 0.97520 -0.21700
N 	N 	0.00538 0.16738 0.96488 -0.26600
N 	N 	0.04439 0.13645 0.86298 -0.21600
N 	N 	0.05308 0.19705 0.17093 -0.25800
N 	N 	0.16925 0.19405 0.29050 -0.21900
O 	O 	0.82623 0.03480 0.01971 -0.47900
O 	O 	0.86192 0.95824 0.94072 -0.33800
O 	O 	0.89362 0.23950 0.04748 -0.46100
O 	O 	0.78098 0.15612 0.89336 -0.33900
O 	O 	0.32623 0.30652 0.79143 -0.47000
O 	O 	0.36192 0.42120 0.90368 -0.33800
O 	O 	0.39362 0.34614 0.65412 -0.45600
O 	O 	0.28098 0.38762 0.62486 -0.33800
