data_crystal

_cell_length_a 10.81950
_cell_length_b 14.00400
_cell_length_c 21.68200
_cell_angle_alpha 87.57000
_cell_angle_beta  86.55700
_cell_angle_gamma 88.08300

_symmetry_space_group_name_	'P 1'
_symmetry_space_group_name_H-M	'P 1'

loop_
_symmetry_equiv_pos_as_xyz
  x,y,z

loop_
_atom_site_label
_atom_site_type_symbol
_atom_site_fract_x
_atom_site_fract_y
_atom_site_fract_z
_atom_site_charge
Cu	Cu	0.22874 0.30490 0.66777 0.91800
Cu	Cu	0.23700 0.11567 0.67291 0.91900
Cu	Cu	0.19832 0.30278 0.16879 0.91800
Cu	Cu	0.20715 0.11335 0.17392 0.91800
H 	H 	0.20560 0.35380 0.86360 0.05300
H 	H 	0.19310 0.35410 0.97010 0.05400
H 	H 	0.24600 0.06810 0.97760 0.05700
H 	H 	0.25560 0.06950 0.87090 0.05100
H 	H 	0.84590 0.06740 0.68120 0.05800
H 	H 	0.63240 0.06540 0.67710 0.05400
H 	H 	0.61860 0.35210 0.65960 0.05400
H 	H 	0.83220 0.35560 0.66560 0.05500
H 	H 	0.25920 0.06990 0.47520 0.06100
H 	H 	0.24430 0.06940 0.37080 0.04800
H 	H 	0.16880 0.35340 0.36570 0.05100
H 	H 	0.17890 0.35350 0.47220 0.05800
H 	H 	0.81640 0.06330 0.18200 0.05700
H 	H 	0.60150 0.06190 0.18320 0.05600
H 	H 	0.58870 0.35070 0.15960 0.05500
H 	H 	0.80360 0.35140 0.16190 0.05300
H 	H 	0.38290 0.47200 0.61680 0.00500
H 	H 	0.39030 0.63470 0.61340 0.08700
H 	H 	0.07270 0.63950 0.71710 0.09400
H 	H 	0.07380 0.47660 0.71510 0.00200
H 	H 	0.41870 0.94010 0.66440 0.01500
H 	H 	0.42010 0.77690 0.66170 0.07900
H 	H 	0.04900 0.79000 0.67160 0.07900
H 	H 	0.05700 0.95200 0.67520 0.02000
H 	H 	0.38740 0.93820 0.16720 0.01300
H 	H 	0.39010 0.77480 0.16190 0.08100
H 	H 	0.02020 0.78840 0.16740 0.08300
H 	H 	0.02900 0.95020 0.16940 0.01500
H 	H 	0.35730 0.47000 0.11500 0.01400
H 	H 	0.36830 0.63260 0.11640 0.07900
H 	H 	0.03400 0.63970 0.20720 0.08900
H 	H 	0.03820 0.47550 0.20830 0.00400
C 	C 	0.23360 0.21080 0.78683 0.34800
C 	C 	0.99840 0.21130 0.67424 0.33400
C 	C 	0.22960 0.21260 0.55375 0.34500
C 	C 	0.46630 0.20880 0.66700 0.35200
C 	C 	0.20080 0.21050 0.28817 0.35000
C 	C 	0.96870 0.20880 0.17293 0.34800
C 	C 	0.21270 0.20990 0.05386 0.35400
C 	C 	0.43610 0.20440 0.16906 0.35000
C 	C 	0.23200 0.21160 0.85651 -0.07100
C 	C 	0.21360 0.29580 0.88660 -0.02100
C 	C 	0.20690 0.29600 0.95020 -0.01600
C 	C 	0.22040 0.21150 0.98538 -0.07100
C 	C 	0.23800 0.12640 0.95480 -0.01800
C 	C 	0.24360 0.12750 0.89110 -0.01700
C 	C 	0.86120 0.21110 0.67293 -0.06300
C 	C 	0.80010 0.12530 0.67690 -0.02000
C 	C 	0.67290 0.12390 0.67460 -0.01600
C 	C 	0.60550 0.20850 0.66867 -0.06700
C 	C 	0.66500 0.29460 0.66450 -0.01600
C 	C 	0.79240 0.29680 0.66740 -0.02000
C 	C 	0.22050 0.21300 0.48470 -0.05700
C 	C 	0.24030 0.12720 0.45310 -0.02900
C 	C 	0.23230 0.12720 0.39120 -0.00700
C 	C 	0.20650 0.21070 0.35686 -0.07800
C 	C 	0.18660 0.29610 0.38800 -0.01400
C 	C 	0.19320 0.29620 0.45150 -0.02500
C 	C 	0.83070 0.20790 0.17162 -0.06800
C 	C 	0.77020 0.12110 0.17780 -0.01700
C 	C 	0.64240 0.12010 0.17780 -0.01900
C 	C 	0.57440 0.20570 0.16977 -0.06600
C 	C 	0.63460 0.29290 0.16410 -0.01900
C 	C 	0.76270 0.29310 0.16530 -0.01700
C 	C 	0.31800 0.50670 0.63720 0.10400
C 	C 	0.32380 0.60430 0.63520 -0.15200
C 	C 	0.23260 0.65700 0.66500 0.07800
C 	C 	0.13790 0.60670 0.69550 -0.15100
C 	C 	0.13940 0.50940 0.69430 0.09800
C 	C 	0.34270 0.90920 0.66620 0.08000
C 	C 	0.34410 0.81140 0.66440 -0.12200
C 	C 	0.23460 0.76350 0.66650 0.05000
C 	C 	0.12620 0.81910 0.67040 -0.11900
C 	C 	0.13170 0.91580 0.67240 0.07600
C 	C 	0.31170 0.90700 0.16750 0.08600
C 	C 	0.31380 0.80900 0.16420 -0.12900
C 	C 	0.20540 0.76070 0.16422 0.06100
C 	C 	0.09760 0.81700 0.16700 -0.12900
C 	C 	0.10350 0.91370 0.16910 0.08800
C 	C 	0.29280 0.50480 0.13560 0.07800
C 	C 	0.29900 0.60200 0.13540 -0.12900
C 	C 	0.20280 0.65550 0.16330 0.06300
C 	C 	0.10320 0.60640 0.18940 -0.13900
C 	C 	0.10610 0.50770 0.18920 0.09300
N 	N 	0.22910 0.45890 0.66527 -0.20100
N 	N 	0.23860 0.96210 0.67054 -0.19000
N 	N 	0.20800 0.95880 0.17089 -0.19500
N 	N 	0.19740 0.45620 0.16424 -0.19300
O 	O 	0.23140 0.29010 0.75828 -0.40200
O 	O 	0.23410 0.13100 0.76269 -0.40100
O 	O 	0.04820 0.29250 0.67427 -0.39100
O 	O 	0.05660 0.13230 0.67606 -0.39600
O 	O 	0.22590 0.29280 0.57820 -0.39300
O 	O 	0.24030 0.13350 0.58211 -0.39300
O 	O 	0.40990 0.28720 0.66262 -0.40200
O 	O 	0.41610 0.12830 0.66919 -0.39700
O 	O 	0.19680 0.29050 0.25941 -0.39900
O 	O 	0.20020 0.13120 0.26422 -0.40100
O 	O 	0.01770 0.28830 0.17253 -0.40100
O 	O 	0.02660 0.12950 0.17470 -0.39800
O 	O 	0.20320 0.29020 0.07892 -0.39200
O 	O 	0.21710 0.13170 0.08300 -0.39700
O 	O 	0.37890 0.28450 0.16591 -0.39800
O 	O 	0.38580 0.12530 0.17309 -0.40100
Cu	Cu	0.77126 0.69510 0.33223 0.91800
Cu	Cu	0.76300 0.88433 0.32709 0.91900
Cu	Cu	0.80168 0.69722 0.83121 0.91800
Cu	Cu	0.79285 0.88665 0.82608 0.91800
H 	H 	0.79440 0.64620 0.13640 0.05300
H 	H 	0.80690 0.64590 0.02990 0.05400
H 	H 	0.75400 0.93190 0.02240 0.05700
H 	H 	0.74440 0.93050 0.12910 0.05100
H 	H 	0.15410 0.93260 0.31880 0.05800
H 	H 	0.36760 0.93460 0.32290 0.05400
H 	H 	0.38140 0.64790 0.34040 0.05400
H 	H 	0.16780 0.64440 0.33440 0.05500
H 	H 	0.74080 0.93010 0.52480 0.06100
H 	H 	0.75570 0.93060 0.62920 0.04800
H 	H 	0.83120 0.64660 0.63430 0.05100
H 	H 	0.82110 0.64650 0.52780 0.05800
H 	H 	0.18360 0.93670 0.81800 0.05700
H 	H 	0.39850 0.93810 0.81680 0.05600
H 	H 	0.41130 0.64930 0.84040 0.05500
H 	H 	0.19640 0.64860 0.83810 0.05300
H 	H 	0.61710 0.52800 0.38320 0.00500
H 	H 	0.60970 0.36530 0.38660 0.08700
H 	H 	0.92730 0.36050 0.28290 0.09400
H 	H 	0.92620 0.52340 0.28490 0.00200
H 	H 	0.58130 0.05990 0.33560 0.01500
H 	H 	0.57990 0.22310 0.33830 0.07900
H 	H 	0.95100 0.21000 0.32840 0.07900
H 	H 	0.94300 0.04800 0.32480 0.02000
H 	H 	0.61260 0.06180 0.83280 0.01300
H 	H 	0.60990 0.22520 0.83810 0.08100
H 	H 	0.97980 0.21160 0.83260 0.08300
H 	H 	0.97100 0.04980 0.83060 0.01500
H 	H 	0.64270 0.53000 0.88500 0.01400
H 	H 	0.63170 0.36740 0.88360 0.07900
H 	H 	0.96600 0.36030 0.79280 0.08900
H 	H 	0.96180 0.52450 0.79170 0.00400
C 	C 	0.76640 0.78920 0.21317 0.34800
C 	C 	0.00160 0.78870 0.32576 0.33400
C 	C 	0.77040 0.78740 0.44625 0.34500
C 	C 	0.53370 0.79120 0.33300 0.35200
C 	C 	0.79920 0.78950 0.71183 0.35000
C 	C 	0.03130 0.79120 0.82707 0.34800
C 	C 	0.78730 0.79010 0.94614 0.35400
C 	C 	0.56390 0.79560 0.83094 0.35000
C 	C 	0.76800 0.78840 0.14349 -0.07100
C 	C 	0.78640 0.70420 0.11340 -0.02100
C 	C 	0.79310 0.70400 0.04980 -0.01600
C 	C 	0.77960 0.78850 0.01462 -0.07100
C 	C 	0.76200 0.87360 0.04520 -0.01800
C 	C 	0.75640 0.87250 0.10890 -0.01700
C 	C 	0.13880 0.78890 0.32707 -0.06300
C 	C 	0.19990 0.87470 0.32310 -0.02000
C 	C 	0.32710 0.87610 0.32540 -0.01600
C 	C 	0.39450 0.79150 0.33133 -0.06700
C 	C 	0.33500 0.70540 0.33550 -0.01600
C 	C 	0.20760 0.70320 0.33260 -0.02000
C 	C 	0.77950 0.78700 0.51530 -0.05700
C 	C 	0.75970 0.87280 0.54690 -0.02900
C 	C 	0.76770 0.87280 0.60880 -0.00700
C 	C 	0.79350 0.78930 0.64314 -0.07800
C 	C 	0.81340 0.70390 0.61200 -0.01400
C 	C 	0.80680 0.70380 0.54850 -0.02500
C 	C 	0.16930 0.79210 0.82838 -0.06800
C 	C 	0.22980 0.87890 0.82220 -0.01700
C 	C 	0.35760 0.87990 0.82220 -0.01900
C 	C 	0.42560 0.79430 0.83023 -0.06600
C 	C 	0.36540 0.70710 0.83590 -0.01900
C 	C 	0.23730 0.70690 0.83470 -0.01700
C 	C 	0.68200 0.49330 0.36280 0.10400
C 	C 	0.67620 0.39570 0.36480 -0.15200
C 	C 	0.76740 0.34300 0.33500 0.07800
C 	C 	0.86210 0.39330 0.30450 -0.15100
C 	C 	0.86060 0.49060 0.30570 0.09800
C 	C 	0.65730 0.09080 0.33380 0.08000
C 	C 	0.65590 0.18860 0.33560 -0.12200
C 	C 	0.76540 0.23650 0.33350 0.05000
C 	C 	0.87380 0.18090 0.32960 -0.11900
C 	C 	0.86830 0.08420 0.32760 0.07600
C 	C 	0.68830 0.09300 0.83250 0.08600
C 	C 	0.68620 0.19100 0.83580 -0.12900
C 	C 	0.79460 0.23930 0.83578 0.06100
C 	C 	0.90240 0.18300 0.83300 -0.12900
C 	C 	0.89650 0.08630 0.83090 0.08800
C 	C 	0.70720 0.49520 0.86440 0.07800
C 	C 	0.70100 0.39800 0.86460 -0.12900
C 	C 	0.79720 0.34450 0.83670 0.06300
C 	C 	0.89680 0.39360 0.81060 -0.13900
C 	C 	0.89390 0.49230 0.81080 0.09300
N 	N 	0.77090 0.54110 0.33473 -0.20100
N 	N 	0.76140 0.03790 0.32946 -0.19000
N 	N 	0.79200 0.04120 0.82911 -0.19500
N 	N 	0.80260 0.54380 0.83576 -0.19300
O 	O 	0.76860 0.70990 0.24172 -0.40200
O 	O 	0.76590 0.86900 0.23731 -0.40100
O 	O 	0.95180 0.70750 0.32573 -0.39100
O 	O 	0.94340 0.86770 0.32394 -0.39600
O 	O 	0.77410 0.70720 0.42180 -0.39300
O 	O 	0.75970 0.86650 0.41789 -0.39300
O 	O 	0.59010 0.71280 0.33738 -0.40200
O 	O 	0.58390 0.87170 0.33081 -0.39700
O 	O 	0.80320 0.70950 0.74059 -0.39900
O 	O 	0.79980 0.86880 0.73578 -0.40100
O 	O 	0.98230 0.71170 0.82747 -0.40100
O 	O 	0.97340 0.87050 0.82530 -0.39800
O 	O 	0.79680 0.70980 0.92108 -0.39200
O 	O 	0.78290 0.86830 0.91700 -0.39700
O 	O 	0.62110 0.71550 0.83409 -0.39800
O 	O 	0.61420 0.87470 0.82691 -0.40100
