data_crystal

_cell_length_a 7.62300
_cell_length_b 11.18900
_cell_length_c 16.87300
_cell_angle_alpha 90.00000
_cell_angle_beta  90.00000
_cell_angle_gamma 90.00000

_symmetry_space_group_name_	'P 1'
_symmetry_space_group_name_H-M	'P 1'

loop_
_symmetry_equiv_pos_as_xyz
  x,y,z

loop_
_atom_site_label
_atom_site_type_symbol
_atom_site_fract_x
_atom_site_fract_y
_atom_site_fract_z
_atom_site_charge
Zn	Zn	0.10140 0.64180 0.03870 1.21000
Zn	Zn	0.39860 0.35820 0.53870 1.21000
Zn	Zn	0.89860 0.14180 0.46130 1.21000
Zn	Zn	0.60140 0.85820 0.96130 1.21000
C 	C 	0.41740 0.43380 0.39590 0.30000
C 	C 	0.39040 0.45450 0.30700 -0.08300
C 	C 	0.44110 0.56440 0.27510 0.02800
C 	C 	0.41340 0.58460 0.19530 -0.08900
C 	C 	0.33460 0.49560 0.14980 0.07400
C 	C 	0.28540 0.38740 0.18060 -0.08300
C 	C 	0.31670 0.36510 0.26110 0.02300
C 	C 	0.87360 0.38430 0.39530 0.34900
C 	C 	0.87060 0.44160 0.31400 -0.10700
C 	C 	0.80130 0.38200 0.24860 0.03400
C 	C 	0.79760 0.43090 0.17480 -0.07700
C 	C 	0.86510 0.55540 0.16460 0.06900
C 	C 	0.93920 0.61000 0.22960 -0.10300
C 	C 	0.94120 0.55780 0.30240 0.04100
C 	C 	0.08260 0.56620 0.89590 0.29900
C 	C 	0.10960 0.54550 0.80700 -0.08300
C 	C 	0.05890 0.43560 0.77510 0.03000
C 	C 	0.08660 0.41540 0.69530 -0.09000
C 	C 	0.16540 0.50440 0.64980 0.07500
C 	C 	0.21460 0.61260 0.68060 -0.08300
C 	C 	0.18330 0.63490 0.76110 0.02300
C 	C 	0.62640 0.61570 0.89530 0.34900
C 	C 	0.62940 0.55840 0.81400 -0.10700
C 	C 	0.69870 0.61800 0.74860 0.03400
C 	C 	0.70240 0.56910 0.67480 -0.07800
C 	C 	0.63490 0.44460 0.66460 0.06900
C 	C 	0.56080 0.39000 0.72960 -0.10600
C 	C 	0.55880 0.44220 0.80240 0.04100
C 	C 	0.58260 0.93380 0.10410 0.29900
C 	C 	0.60960 0.95450 0.19300 -0.08200
C 	C 	0.55890 0.06440 0.22490 0.02800
C 	C 	0.58660 0.08460 0.30470 -0.09000
C 	C 	0.66540 0.99560 0.35020 0.07500
C 	C 	0.71460 0.88740 0.31940 -0.08200
C 	C 	0.68330 0.86510 0.23890 0.02300
C 	C 	0.12640 0.88430 0.10470 0.35000
C 	C 	0.12940 0.94160 0.18600 -0.11100
C 	C 	0.19870 0.88200 0.25140 0.03600
C 	C 	0.20240 0.93090 0.32520 -0.08200
C 	C 	0.13490 0.05540 0.33540 0.07200
C 	C 	0.06080 0.11000 0.27040 -0.10700
C 	C 	0.05880 0.05780 0.19760 0.04500
C 	C 	0.91740 0.06620 0.60410 0.29600
C 	C 	0.89040 0.04550 0.69300 -0.08500
C 	C 	0.94110 0.93560 0.72490 0.03100
C 	C 	0.91340 0.91540 0.80470 -0.08800
C 	C 	0.83460 0.00440 0.85020 0.07100
C 	C 	0.78540 0.11260 0.81940 -0.08200
C 	C 	0.81670 0.13490 0.73890 0.02200
C 	C 	0.37360 0.11570 0.60470 0.34900
C 	C 	0.37060 0.05840 0.68600 -0.10500
C 	C 	0.30130 0.11800 0.75140 0.03300
C 	C 	0.29760 0.06910 0.82520 -0.07600
C 	C 	0.36510 0.94460 0.83540 0.06700
C 	C 	0.43920 0.89000 0.77040 -0.10500
C 	C 	0.44120 0.94220 0.69760 0.03900
N 	N 	0.29650 0.52050 0.06420 -0.22400
N 	N 	0.85870 0.60890 0.08680 -0.23000
N 	N 	0.20350 0.47950 0.56420 -0.22400
N 	N 	0.64130 0.39110 0.58680 -0.23200
N 	N 	0.70350 0.02050 0.43580 -0.22400
N 	N 	0.14130 0.10890 0.41320 -0.23100
N 	N 	0.79650 0.97950 0.93580 -0.22300
N 	N 	0.35870 0.89110 0.91320 -0.23100
O 	O 	0.48180 0.51170 0.43830 -0.32900
O 	O 	0.36520 0.33130 0.42380 -0.42900
O 	O 	0.82270 0.27640 0.39710 -0.47400
O 	O 	0.91990 0.44460 0.45400 -0.27300
O 	O 	0.01820 0.48830 0.93830 -0.32800
O 	O 	0.13480 0.66870 0.92380 -0.42900
O 	O 	0.67730 0.72360 0.89710 -0.47400
O 	O 	0.58010 0.55540 0.95400 -0.27300
O 	O 	0.51820 0.01170 0.06170 -0.32900
O 	O 	0.63480 0.83130 0.07620 -0.42800
O 	O 	0.17730 0.77640 0.10290 -0.47500
O 	O 	0.08010 0.94460 0.04600 -0.27500
O 	O 	0.98180 0.98830 0.56170 -0.32700
O 	O 	0.86520 0.16870 0.57620 -0.42900
O 	O 	0.32270 0.22360 0.60290 -0.47300
O 	O 	0.41990 0.05540 0.54600 -0.27200
H 	H 	0.50378 0.63501 0.31473 0.04000
H 	H 	0.45484 0.67310 0.16755 0.06400
H 	H 	0.22050 0.31778 0.14093 0.05700
H 	H 	0.28156 0.27456 0.28772 0.04000
H 	H 	0.74462 0.28833 0.25574 0.03000
H 	H 	0.74401 0.37712 0.12277 0.06300
H 	H 	0.00168 0.70210 0.22344 0.04600
H 	H 	0.00007 0.60736 0.35510 0.03500
H 	H 	0.99622 0.36499 0.81473 0.03900
H 	H 	0.04516 0.32690 0.66755 0.06500
H 	H 	0.27950 0.68222 0.64093 0.05700
H 	H 	0.21744 0.72480 0.78891 0.04000
H 	H 	0.75538 0.71167 0.75574 0.03000
H 	H 	0.75599 0.62288 0.62277 0.06300
H 	H 	0.49832 0.29790 0.72344 0.04800
H 	H 	0.49993 0.39264 0.85510 0.03500
H 	H 	0.49622 0.13501 0.18527 0.04000
H 	H 	0.54516 0.17310 0.33245 0.06500
H 	H 	0.77950 0.81778 0.35907 0.05700
H 	H 	0.71744 0.77520 0.21109 0.04100
H 	H 	0.25538 0.78833 0.24426 0.02900
H 	H 	0.25599 0.87712 0.37723 0.06300
H 	H 	0.99832 0.20210 0.27656 0.04800
H 	H 	0.99993 0.10736 0.14490 0.03400
H 	H 	0.00378 0.86499 0.68527 0.03900
H 	H 	0.95484 0.82690 0.83245 0.06400
H 	H 	0.72050 0.18222 0.85907 0.05600
H 	H 	0.78256 0.22480 0.71109 0.04000
H 	H 	0.24462 0.21167 0.74426 0.03000
H 	H 	0.24401 0.12288 0.87723 0.06400
H 	H 	0.50168 0.79790 0.77656 0.04800
H 	H 	0.50007 0.89264 0.64490 0.03600
