data_crystal

_cell_length_a 10.90510
_cell_length_b 10.90510
_cell_length_c 19.69800
_cell_angle_alpha 75.63850
_cell_angle_beta  75.63850
_cell_angle_gamma 64.55430

_symmetry_space_group_name_	'P 1'
_symmetry_space_group_name_H-M	'P 1'

loop_
_symmetry_equiv_pos_as_xyz
  x,y,z

loop_
_atom_site_label
_atom_site_type_symbol
_atom_site_fract_x
_atom_site_fract_y
_atom_site_fract_z
_atom_site_charge
Ho	Ho	0.25461 0.59547 0.08316 1.60700
Ho	Ho	0.40453 0.74539 0.41684 1.60700
Ho	Ho	0.74539 0.40453 0.91684 1.60700
Ho	Ho	0.59547 0.25461 0.58316 1.60700
H 	H 	0.48080 0.65740 0.17310 0.02000
H 	H 	0.79630 0.69110 0.22380 0.03700
H 	H 	0.83160 0.59960 0.03290 0.02600
H 	H 	0.34260 0.51920 0.32690 0.01800
H 	H 	0.30890 0.20370 0.27620 0.03600
H 	H 	0.40040 0.16840 0.46710 0.02700
H 	H 	0.51920 0.34260 0.82690 0.01900
H 	H 	0.20370 0.30890 0.77620 0.03600
H 	H 	0.16840 0.40040 0.96710 0.02600
H 	H 	0.65740 0.48080 0.67310 0.01800
H 	H 	0.69110 0.79630 0.72380 0.03600
H 	H 	0.59960 0.83160 0.53290 0.02700
C 	C 	0.98250 0.63390 0.10830 0.34000
C 	C 	0.54560 0.70300 0.28250 0.34300
C 	C 	0.58600 0.59400 0.04380 0.46700
C 	C 	0.64500 0.62240 0.09450 -0.19600
C 	C 	0.57040 0.65340 0.16100 0.08700
C 	C 	0.62710 0.67830 0.21010 -0.13200
C 	C 	0.75810 0.67410 0.19170 0.06200
C 	C 	0.83510 0.64490 0.12560 -0.13200
C 	C 	0.77990 0.61910 0.07700 0.08100
C 	C 	0.36610 0.01750 0.39170 0.34500
C 	C 	0.29700 0.45440 0.21750 0.34300
C 	C 	0.40600 0.41400 0.45620 0.46800
C 	C 	0.37760 0.35500 0.40550 -0.19700
C 	C 	0.34660 0.42960 0.33900 0.08800
C 	C 	0.32170 0.37290 0.28990 -0.13200
C 	C 	0.32590 0.24190 0.30830 0.06300
C 	C 	0.35510 0.16490 0.37440 -0.13300
C 	C 	0.38090 0.22010 0.42300 0.08200
C 	C 	0.01750 0.36610 0.89170 0.34000
C 	C 	0.45440 0.29700 0.71750 0.34300
C 	C 	0.41400 0.40600 0.95620 0.46700
C 	C 	0.35500 0.37760 0.90550 -0.19600
C 	C 	0.42960 0.34660 0.83900 0.08700
C 	C 	0.37290 0.32170 0.78990 -0.13200
C 	C 	0.24190 0.32590 0.80830 0.06200
C 	C 	0.16490 0.35510 0.87440 -0.13200
C 	C 	0.22010 0.38090 0.92300 0.08100
C 	C 	0.63390 0.98250 0.60830 0.34500
C 	C 	0.70300 0.54560 0.78250 0.34300
C 	C 	0.59400 0.58600 0.54380 0.46800
C 	C 	0.62240 0.64500 0.59450 -0.19700
C 	C 	0.65340 0.57040 0.66100 0.08800
C 	C 	0.67830 0.62710 0.71010 -0.13200
C 	C 	0.67410 0.75810 0.69170 0.06300
C 	C 	0.64490 0.83510 0.62560 -0.13300
C 	C 	0.61910 0.77990 0.57700 0.08200
O 	O 	0.05610 0.59430 0.05260 -0.42000
O 	O 	0.02680 0.66560 0.15080 -0.41500
O 	O 	0.60440 0.70620 0.32920 -0.39000
O 	O 	0.42280 0.71780 0.29650 -0.39600
O 	O 	0.47310 0.58030 0.06630 -0.51600
O 	O 	0.64940 0.58280 0.98180 -0.47200
O 	O 	0.40570 0.94390 0.44740 -0.42200
O 	O 	0.33440 0.97320 0.34920 -0.41800
O 	O 	0.29380 0.39560 0.17080 -0.39000
O 	O 	0.28220 0.57720 0.20350 -0.39600
O 	O 	0.41970 0.52690 0.43370 -0.51600
O 	O 	0.41720 0.35060 0.51820 -0.47300
O 	O 	0.94390 0.40570 0.94740 -0.42000
O 	O 	0.97320 0.33440 0.84920 -0.41500
O 	O 	0.39560 0.29380 0.67080 -0.39000
O 	O 	0.57720 0.28220 0.70350 -0.39600
O 	O 	0.52690 0.41970 0.93370 -0.51600
O 	O 	0.35060 0.41720 0.01820 -0.47200
O 	O 	0.59430 0.05610 0.55260 -0.42200
O 	O 	0.66560 0.02680 0.65080 -0.41800
O 	O 	0.70620 0.60440 0.82920 -0.39000
O 	O 	0.71780 0.42280 0.79650 -0.39600
O 	O 	0.58030 0.47310 0.56630 -0.51600
O 	O 	0.58280 0.64940 0.48180 -0.47300
