data_crystal

_cell_length_a 15.36900
_cell_length_b 15.40300
_cell_length_c 20.10400
_cell_angle_alpha 84.83500
_cell_angle_beta  89.82800
_cell_angle_gamma 74.46000

_symmetry_space_group_name_	'P 1'
_symmetry_space_group_name_H-M	'P 1'

loop_
_symmetry_equiv_pos_as_xyz
  x,y,z

loop_
_atom_site_label
_atom_site_type_symbol
_atom_site_fract_x
_atom_site_fract_y
_atom_site_fract_z
_atom_site_charge
Ce	Ce	0.35975 0.36248 0.50151 2.03100
Ce	Ce	0.64672 0.30881 0.86178 2.02000
Ce	Ce	0.35328 0.69119 0.13822 2.02000
Ce	Ce	0.64025 0.63752 0.49849 2.03100
Mn	Mn	0.93069 0.93077 0.50095 1.29200
Mn	Mn	0.90514 0.08616 0.60840 1.27000
Mn	Mn	0.09486 0.91384 0.39160 1.27000
Mn	Mn	0.06931 0.06923 0.49905 1.29200
P 	P 	0.26390 0.71510 0.75940 0.58500
P 	P 	0.91440 0.09600 0.37420 0.53000
P 	P 	0.73610 0.28490 0.24060 0.58500
P 	P 	0.08560 0.90400 0.62580 0.53000
H 	H 	0.21750 0.96940 0.10310 -0.02200
H 	H 	0.26990 0.05940 0.38120 0.05500
H 	H 	0.84510 0.73980 0.45680 0.01400
H 	H 	0.08720 0.78420 0.11930 0.00800
H 	H 	0.11600 0.05750 0.03270 0.04700
H 	H 	0.10120 0.52410 0.53690 0.02100
H 	H 	0.30340 0.01190 0.27410 0.02800
H 	H 	0.45860 0.23390 0.72220 0.00200
H 	H 	0.89880 0.47590 0.46310 0.02100
H 	H 	0.73010 0.94060 0.61880 0.05500
H 	H 	0.25890 0.16270 0.44990 0.00800
H 	H 	0.00930 0.47030 0.38520 0.05200
H 	H 	0.99070 0.52970 0.61480 0.05200
H 	H 	0.46190 0.13580 0.64360 0.03400
H 	H 	0.97890 0.86770 0.03870 0.01700
H 	H 	0.47340 0.89440 0.53380 0.02000
H 	H 	0.78250 0.03060 0.89690 -0.02200
H 	H 	0.53800 0.99640 0.39200 0.05400
H 	H 	0.88400 0.94250 0.96730 0.04700
H 	H 	0.74110 0.83730 0.55010 0.00800
H 	H 	0.88840 0.53370 0.68090 0.04100
H 	H 	0.15490 0.26020 0.54320 0.01400
H 	H 	0.69660 0.98810 0.72590 0.02800
H 	H 	0.53810 0.86420 0.35640 0.03400
H 	H 	0.84160 0.26680 0.77070 0.00900
H 	H 	0.21530 0.46890 0.23800 0.00600
H 	H 	0.11160 0.46630 0.31910 0.04100
H 	H 	0.52660 0.10560 0.46620 0.02000
H 	H 	0.78470 0.53110 0.76200 0.00600
H 	H 	0.03740 0.26620 0.62040 0.04500
H 	H 	0.15840 0.73320 0.22930 0.00900
H 	H 	0.31080 0.90560 0.20100 0.01200
H 	H 	0.95640 0.26820 0.69470 0.04900
H 	H 	0.91280 0.21580 0.88070 0.00800
H 	H 	0.54140 0.76610 0.27780 0.00200
H 	H 	0.02110 0.13230 0.96130 0.01700
H 	H 	0.04360 0.73180 0.30530 0.04900
H 	H 	0.46200 0.00360 0.60800 0.05400
H 	H 	0.96260 0.73380 0.37960 0.04500
H 	H 	0.68920 0.09440 0.79900 0.01200
W 	W 	0.45044 0.52602 0.78023 1.33300
W 	W 	0.76012 0.96264 0.37390 1.01100
W 	W 	0.73096 0.12197 0.48225 0.97600
W 	W 	0.40456 0.86368 0.74698 1.05700
W 	W 	0.88562 0.42177 0.24583 1.07400
W 	W 	0.08466 0.75284 0.87386 1.02600
W 	W 	0.11438 0.57823 0.75417 1.07400
W 	W 	0.43240 0.70544 0.63921 1.39200
W 	W 	0.91534 0.24716 0.12614 1.02600
W 	W 	0.77758 0.11163 0.12939 1.01300
W 	W 	0.11925 0.73004 0.52015 0.99500
W 	W 	0.04839 0.24887 0.36902 1.00700
W 	W 	0.26904 0.87803 0.51775 0.97600
W 	W 	0.05899 0.05957 0.74732 0.96700
W 	W 	0.57670 0.31230 0.10984 0.90600
W 	W 	0.54956 0.47398 0.21977 1.33300
W 	W 	0.94101 0.94043 0.25268 0.96700
W 	W 	0.28134 0.54933 0.89415 0.98500
W 	W 	0.59544 0.13632 0.25302 1.05700
W 	W 	0.07833 0.07725 0.25027 0.98400
W 	W 	0.95161 0.75113 0.63098 1.00700
W 	W 	0.72002 0.44364 0.35752 1.34900
W 	W 	0.88075 0.26996 0.47985 0.99500
W 	W 	0.42330 0.68770 0.89016 0.90600
W 	W 	0.27998 0.55636 0.64248 1.34900
W 	W 	0.23988 0.03736 0.62610 1.01100
W 	W 	0.92167 0.92275 0.74973 0.98400
W 	W 	0.22242 0.88837 0.87061 1.01300
W 	W 	0.56760 0.29456 0.36079 1.39200
W 	W 	0.71866 0.45067 0.10585 0.98500
C 	C 	0.81800 0.47600 0.74800 0.02400
C 	C 	0.52530 0.90400 0.55200 0.03200
C 	C 	0.10960 0.00070 0.04780 -0.15800
C 	C 	0.50600 0.18100 0.72310 0.00500
C 	C 	0.35300 0.96100 0.27600 -0.08100
C 	C 	0.67710 0.93070 0.60300 -0.10800
C 	C 	0.41550 0.94970 0.32600 0.00600
C 	C 	0.87830 0.68520 0.44230 0.00500
C 	C 	0.11800 0.52170 0.30100 -0.13300
C 	C 	0.08930 0.47090 0.55500 0.02900
C 	C 	0.00300 0.39710 0.62900 0.00200
C 	C 	0.05100 0.31970 0.60510 -0.09300
C 	C 	0.50860 0.12500 0.67510 -0.12400
C 	C 	0.59380 0.98370 0.62620 0.01300
C 	C 	0.12170 0.31480 0.55770 0.00500
C 	C 	0.68430 0.87080 0.56200 0.01900
C 	C 	0.03900 0.97400 0.02460 0.04400
C 	C 	0.49140 0.87500 0.32490 -0.12400
C 	C 	0.64700 0.03900 0.72400 -0.08100
C 	C 	0.93390 0.40030 0.67700 0.03000
C 	C 	0.51890 0.96900 0.59720 -0.08700
C 	C 	0.97710 0.52610 0.39840 -0.08200
C 	C 	0.91070 0.52910 0.44500 0.02900
C 	C 	0.16800 0.94970 0.09040 0.05100
C 	C 	0.94900 0.68030 0.39490 -0.09300
C 	C 	0.90700 0.16100 0.90040 -0.00300
C 	C 	0.97300 0.11100 0.94820 -0.07900
C 	C 	0.89040 0.99930 0.95220 -0.15800
C 	C 	0.08010 0.67700 0.29350 -0.11600
C 	C 	0.18200 0.52400 0.25200 0.02400
C 	C 	0.88200 0.47830 0.69900 -0.13300
C 	C 	0.31570 0.12920 0.43800 0.01900
C 	C 	0.96100 0.02600 0.97540 0.04400
C 	C 	0.83200 0.05030 0.90960 0.05100
C 	C 	0.85300 0.32090 0.75410 -0.02400
C 	C 	0.99700 0.60290 0.37100 0.00200
C 	C 	0.58450 0.05030 0.67400 0.00600
C 	C 	0.64200 0.09900 0.76900 -0.03300
C 	C 	0.49400 0.81900 0.27690 0.00500
C 	C 	0.02700 0.88900 0.05180 -0.07900
C 	C 	0.02290 0.47390 0.60160 -0.08200
C 	C 	0.48110 0.03100 0.40280 -0.08700
C 	C 	0.32290 0.06930 0.39700 -0.10800
C 	C 	0.14700 0.67910 0.24590 -0.02400
C 	C 	0.09300 0.83900 0.09960 -0.00300
C 	C 	0.35800 0.90100 0.23100 -0.03300
C 	C 	0.40620 0.01630 0.37380 0.01300
C 	C 	0.47470 0.09600 0.44800 0.03200
C 	C 	0.06610 0.59970 0.32300 0.03000
C 	C 	0.91990 0.32300 0.70650 -0.11600
N 	N 	0.16060 0.86800 0.11730 -0.07200
N 	N 	0.19590 0.59680 0.22490 -0.07000
N 	N 	0.39290 0.14440 0.46470 -0.06600
N 	N 	0.80410 0.40320 0.77510 -0.07000
N 	N 	0.60710 0.85560 0.53530 -0.06600
N 	N 	0.83940 0.13200 0.88270 -0.07200
N 	N 	0.56600 0.16420 0.77090 -0.04700
N 	N 	0.13600 0.39220 0.53630 -0.06000
N 	N 	0.86400 0.60780 0.46370 -0.06000
N 	N 	0.43400 0.83580 0.22910 -0.04700
O 	O 	0.06000 0.18900 0.29100 -0.44900
O 	O 	0.19040 0.65170 0.90970 -0.45000
O 	O 	0.04460 0.64700 0.68950 -0.43800
O 	O 	0.81850 0.08600 0.38700 -0.34300
O 	O 	0.21190 0.52840 0.82530 -0.44400
O 	O 	0.30250 0.97460 0.55320 -0.43100
O 	O 	0.96380 0.01620 0.78680 -0.41700
O 	O 	0.63170 0.49430 0.28030 -0.48500
O 	O 	0.85070 0.90070 0.42850 -0.52400
O 	O 	0.61290 0.79790 0.48840 -0.44100
O 	O 	0.94270 0.07350 0.30270 -0.33400
O 	O 	0.86970 0.99280 0.67780 -0.54300
O 	O 	0.94000 0.81100 0.70900 -0.44900
O 	O 	0.19250 0.63130 0.58710 -0.47000
O 	O 	0.02090 0.69310 0.55740 -0.43200
O 	O 	0.36830 0.50570 0.71970 -0.48500
O 	O 	0.64600 0.38920 0.06510 -0.50900
O 	O 	0.13030 0.00720 0.32220 -0.54300
O 	O 	0.99360 0.11610 0.67520 -0.52900
O 	O 	0.00640 0.88390 0.32480 -0.52900
O 	O 	0.54160 0.43320 0.78120 -0.64500
O 	O 	0.35900 0.63140 0.62480 -0.55700
O 	O 	0.49650 0.59070 0.84140 -0.49600
O 	O 	0.01150 0.84280 0.82040 -0.42100
O 	O 	0.16870 0.94830 0.47080 -0.63100
O 	O 	0.19600 0.51060 0.69510 -0.48200
O 	O 	0.03620 0.98380 0.21320 -0.41700
O 	O 	0.20000 0.77930 0.80100 -0.33100
O 	O 	0.78810 0.47160 0.17470 -0.44400
O 	O 	0.85920 0.17090 0.08160 -0.44500
O 	O 	0.01820 0.97570 0.57310 -0.62200
O 	O 	0.97910 0.30690 0.44260 -0.43200
O 	O 	0.80960 0.34830 0.09030 -0.45000
O 	O 	0.98180 0.02430 0.42690 -0.62200
O 	O 	0.67790 0.23820 0.28320 -0.36200
O 	O 	0.32040 0.47090 0.59120 -0.68200
O 	O 	0.92640 0.33350 0.18490 -0.46700
O 	O 	0.64100 0.36860 0.37520 -0.55700
O 	O 	0.74850 0.40410 0.82900 -0.41900
O 	O 	0.98850 0.15720 0.17960 -0.42100
O 	O 	0.14930 0.09930 0.57150 -0.52400
O 	O 	0.47850 0.78390 0.69050 -0.47600
O 	O 	0.80000 0.22070 0.19900 -0.33100
O 	O 	0.78450 0.33920 0.27740 -0.36400
O 	O 	0.33910 0.93950 0.68150 -0.43200
O 	O 	0.52320 0.38870 0.28360 -0.48100
O 	O 	0.77650 0.18380 0.84070 -0.41600
O 	O 	0.22350 0.81620 0.15930 -0.41600
O 	O 	0.33130 0.64550 0.81300 -0.38200
O 	O 	0.05230 0.83320 0.47300 -0.63400
O 	O 	0.47680 0.61130 0.71640 -0.48100
O 	O 	0.68760 0.09970 0.19110 -0.46900
O 	O 	0.82430 0.95550 0.29530 -0.45100
O 	O 	0.52390 0.66660 0.59120 -0.68800
O 	O 	0.17570 0.04450 0.70470 -0.45100
O 	O 	0.31240 0.90030 0.80890 -0.46900
O 	O 	0.55280 0.24010 0.18420 -0.43300
O 	O 	0.47610 0.33340 0.40880 -0.68800
O 	O 	0.38710 0.20210 0.51160 -0.44100
O 	O 	0.52150 0.21610 0.30950 -0.47600
O 	O 	0.50350 0.40930 0.15860 -0.49600
O 	O 	0.14080 0.82910 0.91840 -0.44500
O 	O 	0.19900 0.39070 0.49110 -0.43600
O 	O 	0.69750 0.02540 0.44680 -0.43100
O 	O 	0.68150 0.22230 0.09150 -0.45700
O 	O 	0.92320 0.18910 0.38480 -0.34700
O 	O 	0.83130 0.05170 0.52920 -0.63100
O 	O 	0.44330 0.78080 0.18400 -0.43900
O 	O 	0.66870 0.35450 0.18700 -0.38200
O 	O 	0.38070 0.47790 0.84370 -0.51100
O 	O 	0.32210 0.76180 0.71680 -0.36200
O 	O 	0.25150 0.59590 0.17100 -0.41900
O 	O 	0.80750 0.36870 0.41290 -0.47000
O 	O 	0.21550 0.66080 0.72260 -0.36400
O 	O 	0.80400 0.48940 0.30490 -0.48200
O 	O 	0.10430 0.15420 0.42240 -0.52500
O 	O 	0.44720 0.75990 0.81580 -0.43300
O 	O 	0.80100 0.60930 0.50890 -0.43600
O 	O 	0.63660 0.20310 0.41500 -0.48200
O 	O 	0.21950 0.77690 0.52450 -0.48600
O 	O 	0.18150 0.91400 0.61300 -0.34300
O 	O 	0.61930 0.52210 0.15630 -0.51100
O 	O 	0.05730 0.92650 0.69730 -0.33400
O 	O 	0.67960 0.52910 0.40880 -0.68200
O 	O 	0.78050 0.22310 0.47550 -0.48600
O 	O 	0.36340 0.79690 0.58500 -0.48200
O 	O 	0.07680 0.81090 0.61520 -0.34700
O 	O 	0.66090 0.06050 0.31850 -0.43200
O 	O 	0.55670 0.21920 0.81600 -0.43900
O 	O 	0.07360 0.66650 0.81510 -0.46700
O 	O 	0.31850 0.77770 0.90850 -0.45700
O 	O 	0.35400 0.61080 0.93490 -0.50900
O 	O 	0.45840 0.56680 0.21880 -0.64500
O 	O 	0.89570 0.84580 0.57760 -0.52500
O 	O 	0.86360 0.03380 0.18100 -0.41900
O 	O 	0.13640 0.96620 0.81900 -0.41900
O 	O 	0.95540 0.35300 0.31050 -0.43800
O 	O 	0.94770 0.16680 0.52700 -0.63400
