data_crystal

_cell_length_a 8.50900
_cell_length_b 17.15790
_cell_length_c 17.15790
_cell_angle_alpha 118.70800
_cell_angle_beta  97.49450
_cell_angle_gamma 82.50550

_symmetry_space_group_name_	'P 1'
_symmetry_space_group_name_H-M	'P 1'

loop_
_symmetry_equiv_pos_as_xyz
  x,y,z

loop_
_atom_site_label
_atom_site_type_symbol
_atom_site_fract_x
_atom_site_fract_y
_atom_site_fract_z
_atom_site_charge
Ce	Ce	0.25000 0.99093 0.99093 2.03300
Ce	Ce	0.75000 0.00907 0.00907 2.03300
H 	H 	0.86970 0.10350 0.64950 0.13600
H 	H 	0.95520 0.80390 0.25010 0.06800
H 	H 	0.84300 0.87490 0.25150 0.05500
H 	H 	0.81360 0.79530 0.32150 0.04600
H 	H 	0.78820 0.89700 0.39260 0.04300
H 	H 	0.02510 0.80830 0.51150 -0.09600
H 	H 	0.83490 0.78740 0.46220 -0.06700
H 	H 	0.79320 0.94620 0.53980 0.42400
H 	H 	0.82600 0.91520 0.59780 0.35400
H 	H 	0.07390 0.95820 0.63680 -0.10000
H 	H 	0.06490 0.99310 0.56590 -0.06600
H 	H 	0.17120 0.86630 0.20770 0.01100
H 	H 	0.23780 0.97060 0.28340 0.00200
H 	H 	0.92540 0.94860 0.18340 0.14100
H 	H 	0.98830 0.03990 0.25230 0.07300
H 	H 	0.11550 0.71960 0.29940 0.02300
H 	H 	0.04630 0.69570 0.36230 0.00900
H 	H 	0.21140 0.77710 0.47890 0.09000
H 	H 	0.33110 0.69240 0.38400 0.08000
H 	H 	0.63030 0.64950 0.10350 0.13600
H 	H 	0.54480 0.25010 0.80390 0.06800
H 	H 	0.65700 0.25150 0.87490 0.05500
H 	H 	0.68640 0.32150 0.79530 0.04600
H 	H 	0.71180 0.39260 0.89700 0.04300
H 	H 	0.47490 0.51150 0.80830 -0.09900
H 	H 	0.66510 0.46220 0.78740 -0.06900
H 	H 	0.70680 0.53980 0.94620 0.43600
H 	H 	0.67400 0.59780 0.91520 0.36400
H 	H 	0.42610 0.63680 0.95820 -0.10600
H 	H 	0.43510 0.56590 0.99310 -0.07100
H 	H 	0.32880 0.20770 0.86630 0.01000
H 	H 	0.26220 0.28340 0.97060 -0.00000
H 	H 	0.57460 0.18340 0.94860 0.14400
H 	H 	0.51170 0.25230 0.03990 0.07700
H 	H 	0.38450 0.29940 0.71960 0.02300
H 	H 	0.45370 0.36230 0.69570 0.00800
H 	H 	0.28860 0.47890 0.77710 0.09100
H 	H 	0.16890 0.38400 0.69240 0.08000
H 	H 	0.13030 0.89650 0.35050 0.13600
H 	H 	0.04480 0.19610 0.74990 0.06800
H 	H 	0.15700 0.12510 0.74850 0.05500
H 	H 	0.18640 0.20470 0.67850 0.04600
H 	H 	0.21180 0.10300 0.60740 0.04300
H 	H 	0.97490 0.19170 0.48850 -0.09600
H 	H 	0.16510 0.21260 0.53780 -0.06700
H 	H 	0.20680 0.05380 0.46020 0.42400
H 	H 	0.17400 0.08480 0.40220 0.35400
H 	H 	0.92610 0.04180 0.36320 -0.10000
H 	H 	0.93510 0.00690 0.43410 -0.06600
H 	H 	0.82880 0.13370 0.79230 0.01100
H 	H 	0.76220 0.02940 0.71660 0.00200
H 	H 	0.07460 0.05140 0.81660 0.14100
H 	H 	0.01170 0.96010 0.74770 0.07300
H 	H 	0.88450 0.28040 0.70060 0.02300
H 	H 	0.95370 0.30430 0.63770 0.00900
H 	H 	0.78860 0.22290 0.52110 0.09000
H 	H 	0.66890 0.30760 0.61600 0.08000
H 	H 	0.36970 0.35050 0.89650 0.13600
H 	H 	0.45520 0.74990 0.19610 0.06800
H 	H 	0.34300 0.74850 0.12510 0.05500
H 	H 	0.31360 0.67850 0.20470 0.04600
H 	H 	0.28820 0.60740 0.10300 0.04300
H 	H 	0.52510 0.48850 0.19170 -0.09900
H 	H 	0.33490 0.53780 0.21260 -0.06900
H 	H 	0.29320 0.46020 0.05380 0.43600
H 	H 	0.32600 0.40220 0.08480 0.36400
H 	H 	0.57390 0.36320 0.04180 -0.10600
H 	H 	0.56490 0.43410 0.00690 -0.07100
H 	H 	0.67120 0.79230 0.13370 0.01000
H 	H 	0.73780 0.71660 0.02940 -0.00000
H 	H 	0.42540 0.81660 0.05140 0.14400
H 	H 	0.48830 0.74770 0.96010 0.07700
H 	H 	0.61550 0.70060 0.28040 0.02300
H 	H 	0.54630 0.63770 0.30430 0.00800
H 	H 	0.71140 0.52110 0.22290 0.09100
H 	H 	0.83110 0.61600 0.30760 0.08000
C 	C 	0.07200 0.13700 0.71500 -0.08700
C 	C 	0.12800 0.15650 0.64610 -0.03800
C 	C 	0.06800 0.16940 0.51140 0.36100
C 	C 	0.13000 0.07890 0.44310 -0.98300
C 	C 	0.99600 0.01790 0.39490 0.37700
C 	C 	0.86600 0.06790 0.74650 0.10000
C 	C 	0.97600 0.02660 0.79540 -0.38600
C 	C 	0.89610 0.02800 0.86860 0.44100
C 	C 	0.10500 0.75180 0.36740 0.03900
C 	C 	0.26800 0.75740 0.41840 -0.24000
C 	C 	0.36600 0.82700 0.42360 0.34900
C 	C 	0.42800 0.71500 0.13700 -0.08600
C 	C 	0.37200 0.64610 0.15650 -0.03800
C 	C 	0.43200 0.51140 0.16940 0.37300
C 	C 	0.37000 0.44310 0.07890 -1.01400
C 	C 	0.50400 0.39490 0.01790 0.39600
C 	C 	0.63400 0.74650 0.06790 0.10300
C 	C 	0.52400 0.79540 0.02660 -0.39400
C 	C 	0.60390 0.86860 0.02800 0.44300
C 	C 	0.39500 0.36740 0.75180 0.04000
C 	C 	0.23200 0.41840 0.75740 -0.24100
C 	C 	0.13400 0.42360 0.82700 0.35000
C 	C 	0.92800 0.86300 0.28500 -0.08700
C 	C 	0.87200 0.84350 0.35390 -0.03800
C 	C 	0.93200 0.83060 0.48860 0.36100
C 	C 	0.87000 0.92110 0.55690 -0.98300
C 	C 	0.00400 0.98210 0.60510 0.37700
C 	C 	0.13400 0.93210 0.25350 0.10000
C 	C 	0.02400 0.97340 0.20460 -0.38600
C 	C 	0.10390 0.97200 0.13140 0.44100
C 	C 	0.89500 0.24820 0.63260 0.03900
C 	C 	0.73200 0.24260 0.58160 -0.24000
C 	C 	0.63400 0.17300 0.57640 0.34900
C 	C 	0.57200 0.28500 0.86300 -0.08600
C 	C 	0.62800 0.35390 0.84350 -0.03800
C 	C 	0.56800 0.48860 0.83060 0.37300
C 	C 	0.63000 0.55690 0.92110 -1.01400
C 	C 	0.49600 0.60510 0.98210 0.39600
C 	C 	0.36600 0.25350 0.93210 0.10300
C 	C 	0.47600 0.20460 0.97340 -0.39400
C 	C 	0.39610 0.13140 0.97200 0.44300
C 	C 	0.60500 0.63260 0.24820 0.04000
C 	C 	0.76800 0.58160 0.24260 -0.24100
C 	C 	0.86600 0.57640 0.17300 0.35000
N 	N 	0.94590 0.07150 0.67470 -0.20800
N 	N 	0.00100 0.16760 0.58660 -0.14900
N 	N 	0.55410 0.67470 0.07150 -0.21200
N 	N 	0.49900 0.58660 0.16760 -0.15000
N 	N 	0.05410 0.92850 0.32530 -0.20800
N 	N 	0.99900 0.83240 0.41340 -0.14900
N 	N 	0.44590 0.32530 0.92850 -0.21200
N 	N 	0.50100 0.41340 0.83240 -0.15000
O 	O 	0.98510 0.00940 0.92540 -0.73600
O 	O 	0.24980 0.95790 0.12510 -0.51400
O 	O 	0.32990 0.86020 0.37200 -0.28600
O 	O 	0.48600 0.84630 0.47870 -0.28200
O 	O 	0.51490 0.92540 0.00940 -0.73700
O 	O 	0.25020 0.12510 0.95790 -0.51500
O 	O 	0.17010 0.37200 0.86020 -0.28700
O 	O 	0.01400 0.47870 0.84630 -0.28400
O 	O 	0.01490 0.99060 0.07460 -0.73600
O 	O 	0.75020 0.04210 0.87490 -0.51400
O 	O 	0.67010 0.13980 0.62800 -0.28600
O 	O 	0.51400 0.15370 0.52130 -0.28200
O 	O 	0.48510 0.07460 0.99060 -0.73700
O 	O 	0.74980 0.87490 0.04210 -0.51500
O 	O 	0.82990 0.62800 0.13980 -0.28700
O 	O 	0.98600 0.52130 0.15370 -0.28400
