data_crystal

_cell_length_a 9.88550
_cell_length_b 11.40820
_cell_length_c 14.80510
_cell_angle_alpha 91.41070
_cell_angle_beta  90.00000
_cell_angle_gamma 90.00000

_symmetry_space_group_name_	'P 1'
_symmetry_space_group_name_H-M	'P 1'

loop_
_symmetry_equiv_pos_as_xyz
  x,y,z

loop_
_atom_site_label
_atom_site_type_symbol
_atom_site_fract_x
_atom_site_fract_y
_atom_site_fract_z
_atom_site_charge
Fe	Fe	0.92392 0.75654 0.13291 1.25200
Fe	Fe	0.88601 0.26019 0.69176 1.23500
Fe	Fe	0.42392 0.74346 0.36709 1.19600
Fe	Fe	0.38601 0.23981 0.80824 1.21300
Fe	Fe	0.07608 0.24346 0.86709 1.14100
Fe	Fe	0.11399 0.73981 0.30824 1.18900
Fe	Fe	0.57608 0.25654 0.63291 1.19600
Fe	Fe	0.61399 0.76019 0.19176 1.21000
Fe	Fe	-0.00000 0.50000 -0.00000 1.10700
Fe	Fe	0.50000 1.00000 0.50000 1.22100
Fe	Fe	-0.00000 0.00000 -0.00000 1.11000
Fe	Fe	0.50000 0.50000 0.50000 1.22400
H 	H 	0.76210 0.85480 0.36830 -0.10800
H 	H 	0.04290 0.47650 0.26020 -0.14200
H 	H 	0.62020 0.55810 0.04430 -0.13800
H 	H 	0.20530 0.97700 0.22340 -0.14300
H 	H 	0.16030 0.69680 0.92960 -0.16300
H 	H 	0.70540 0.99480 0.01870 -0.13300
H 	H 	0.26210 0.64520 0.13170 -0.14300
H 	H 	0.54290 0.02350 0.23980 -0.10600
H 	H 	0.12020 0.94190 0.45570 -0.14000
H 	H 	0.70530 0.52300 0.27660 -0.11000
H 	H 	0.66030 0.80320 0.57040 -0.09600
H 	H 	0.20540 0.50520 0.48130 -0.12300
H 	H 	0.23790 0.14520 0.63170 -0.12800
H 	H 	0.95710 0.52350 0.73980 -0.07200
H 	H 	0.37980 0.44190 0.95570 -0.06900
H 	H 	0.79470 0.02300 0.77660 -0.10600
H 	H 	0.83970 0.30320 0.07040 -0.03100
H 	H 	0.29460 0.00520 0.98130 -0.06200
H 	H 	0.73790 0.35480 0.86830 -0.08900
H 	H 	0.45710 0.97650 0.76020 -0.10900
H 	H 	0.87980 0.05810 0.54430 -0.06900
H 	H 	0.29470 0.47700 0.72340 -0.14200
H 	H 	0.33970 0.19680 0.42960 -0.11400
H 	H 	0.79460 0.49480 0.51870 -0.08200
C 	C 	0.83180 0.82554 0.33204 0.48000
C 	C 	0.02050 0.51610 0.20810 0.52400
C 	C 	0.71180 0.57530 0.05010 0.51000
C 	C 	0.14130 0.95100 0.18150 0.51500
C 	C 	0.10420 0.74180 0.96710 0.67400
C 	C 	0.72240 0.93469 0.05849 0.48500
C 	C 	0.33180 0.67446 0.16796 0.49700
C 	C 	0.52050 0.98390 0.29190 0.48900
C 	C 	0.21180 0.92470 0.44990 0.50300
C 	C 	0.64130 0.54900 0.31850 0.50100
C 	C 	0.60420 0.75820 0.53290 0.48700
C 	C 	0.22240 0.56531 0.44151 0.49700
C 	C 	0.16820 0.17446 0.66796 0.50100
C 	C 	0.97950 0.48390 0.79190 0.46600
C 	C 	0.28820 0.42470 0.94990 0.46600
C 	C 	0.85870 0.04900 0.81850 0.49300
C 	C 	0.89580 0.25820 0.03290 0.27800
C 	C 	0.27760 0.06531 0.94151 0.47700
C 	C 	0.66820 0.32554 0.83204 0.48200
C 	C 	0.47950 0.01610 0.70810 0.51100
C 	C 	0.78820 0.07530 0.55010 0.48500
C 	C 	0.35870 0.45100 0.68150 0.51300
C 	C 	0.39580 0.24180 0.46710 0.49200
C 	C 	0.77760 0.43469 0.55849 0.47600
O 	O 	0.80484 0.80744 0.24872 -0.53100
O 	O 	0.94178 0.80799 0.36939 -0.36600
O 	O 	0.01012 0.62746 0.21546 -0.61000
O 	O 	0.00396 0.45612 0.13912 -0.50600
O 	O 	0.74417 0.65429 0.10850 -0.54500
O 	O 	0.79031 0.51925 0.00025 -0.45600
O 	O 	0.08752 0.85140 0.19505 -0.60700
O 	O 	0.11708 0.01614 0.11844 -0.49900
O 	O 	0.02909 0.68659 0.02279 -0.71400
O 	O 	0.10852 0.84915 0.95905 -0.46200
O 	O 	0.84483 0.90042 0.06470 -0.53700
O 	O 	0.62403 0.89630 0.09990 -0.45000
O 	O 	0.30484 0.69256 0.25128 -0.56100
O 	O 	0.44178 0.69201 0.13061 -0.46100
O 	O 	0.51012 0.87254 0.28454 -0.55500
O 	O 	0.50396 0.04388 0.36088 -0.42800
O 	O 	0.24417 0.84571 0.39150 -0.56700
O 	O 	0.29031 0.98075 0.49975 -0.44700
O 	O 	0.58752 0.64860 0.30495 -0.55500
O 	O 	0.61708 0.48386 0.38156 -0.43100
O 	O 	0.52909 0.81341 0.47721 -0.54800
O 	O 	0.60852 0.65085 0.54095 -0.43000
O 	O 	0.34483 0.59958 0.43530 -0.56100
O 	O 	0.12403 0.60370 0.40010 -0.46400
O 	O 	0.19516 0.19256 0.75128 -0.58200
O 	O 	0.05822 0.19201 0.63061 -0.50700
O 	O 	0.98988 0.37254 0.78454 -0.49400
O 	O 	0.99604 0.54388 0.86088 -0.32400
O 	O 	0.25583 0.34571 0.89150 -0.55200
O 	O 	0.20969 0.48075 0.99975 -0.37300
O 	O 	0.91248 0.14860 0.80495 -0.50300
O 	O 	0.88292 0.98386 0.88156 -0.34700
O 	O 	0.97091 0.31341 0.97721 -0.34000
O 	O 	0.89148 0.15085 0.04095 -0.36700
O 	O 	0.15517 0.09958 0.93530 -0.53800
O 	O 	0.37597 0.10370 0.90010 -0.40700
O 	O 	0.69516 0.30744 0.74872 -0.55000
O 	O 	0.55822 0.30799 0.86939 -0.40800
O 	O 	0.48988 0.12746 0.71546 -0.55600
O 	O 	0.49604 0.95612 0.63912 -0.43700
O 	O 	0.75583 0.15429 0.60850 -0.53800
O 	O 	0.70969 0.01925 0.50025 -0.41900
O 	O 	0.41248 0.35140 0.69505 -0.56200
O 	O 	0.38292 0.51614 0.61844 -0.44700
O 	O 	0.47091 0.18659 0.52279 -0.54900
O 	O 	0.39148 0.34915 0.45905 -0.44400
O 	O 	0.65517 0.40042 0.56470 -0.54700
O 	O 	0.87597 0.39630 0.59990 -0.39600
