data_crystal

_cell_length_a 15.01000
_cell_length_b 16.62000
_cell_length_c 19.29000
_cell_angle_alpha 102.28800
_cell_angle_beta  91.78600
_cell_angle_gamma 93.30000

_symmetry_space_group_name_	'P 1'
_symmetry_space_group_name_H-M	'P 1'

loop_
_symmetry_equiv_pos_as_xyz
  x,y,z

loop_
_atom_site_label
_atom_site_type_symbol
_atom_site_fract_x
_atom_site_fract_y
_atom_site_fract_z
_atom_site_charge
Cu	Cu	0.47274 0.45714 0.04716 0.89800
Cu	Cu	0.52726 0.54286 0.95284 0.89800
Cu	Cu	0.45642 0.49336 0.55771 0.90400
Cu	Cu	0.54358 0.50664 0.44229 0.90400
H 	H 	0.98430 0.54920 0.18860 0.04100
H 	H 	0.65060 0.11030 0.89050 0.09100
H 	H 	0.90630 0.82060 0.25220 0.02000
H 	H 	0.14510 0.83660 0.23590 0.02900
H 	H 	0.12380 0.82560 0.38320 0.02200
H 	H 	0.69050 0.53290 0.20480 0.03400
H 	H 	0.44600 0.01240 0.33040 0.03800
H 	H 	0.09370 0.17940 0.74780 0.02000
H 	H 	0.88990 0.72430 0.13460 0.07000
H 	H 	0.55400 0.98760 0.66960 0.03800
H 	H 	0.18880 0.40470 0.71930 0.08400
H 	H 	0.90800 0.33680 0.52910 0.07900
H 	H 	0.30950 0.46710 0.79520 0.03400
H 	H 	0.01980 0.97540 0.71150 0.19100
H 	H 	0.72780 0.87600 0.56560 0.07600
H 	H 	0.85490 0.16340 0.76410 0.02900
H 	H 	0.57180 0.71970 0.70320 0.02300
H 	H 	0.06910 0.94200 0.43450 0.20300
H 	H 	0.58760 0.22590 0.95720 0.02700
H 	H 	0.03310 0.04380 0.58240 0.20100
H 	H 	0.66590 0.35980 0.81440 0.02300
H 	H 	0.34350 0.25200 0.48810 0.02300
H 	H 	0.72880 0.24410 0.74770 0.07800
H 	H 	0.46210 0.92570 0.27690 0.04000
H 	H 	0.04340 0.02560 0.41260 0.20100
H 	H 	0.02860 0.06130 0.76820 0.19200
H 	H 	0.97140 0.93870 0.23180 0.19200
H 	H 	0.78390 0.39290 0.48580 0.03000
H 	H 	0.08480 0.56100 0.22490 0.03700
H 	H 	0.64300 0.84770 0.75690 0.09400
H 	H 	0.09200 0.66320 0.47090 0.07900
H 	H 	0.81120 0.59530 0.28070 0.08400
H 	H 	0.95660 0.97440 0.58740 0.20100
H 	H 	0.23070 0.33820 0.94130 0.03500
H 	H 	0.42820 0.28030 0.29680 0.02300
H 	H 	0.35700 0.15230 0.24310 0.09400
H 	H 	0.53790 0.07430 0.72310 0.04000
H 	H 	0.27220 0.12400 0.43440 0.07600
H 	H 	0.96690 0.95620 0.41760 0.20100
H 	H 	0.14960 0.06700 0.35940 0.01300
H 	H 	0.78950 0.34430 0.71600 0.07400
H 	H 	0.33470 0.59970 0.32730 0.02800
H 	H 	0.85040 0.93300 0.64060 0.01300
H 	H 	0.66530 0.40030 0.67270 0.02800
H 	H 	0.09340 0.04580 0.70310 0.18800
H 	H 	0.27120 0.75590 0.25230 0.07800
H 	H 	0.98020 0.02460 0.28850 0.19100
H 	H 	0.93090 0.05800 0.56550 0.20300
H 	H 	0.87620 0.17440 0.61680 0.02200
H 	H 	0.21610 0.60710 0.51420 0.03000
H 	H 	0.41240 0.77410 0.04280 0.02700
H 	H 	0.91520 0.43900 0.77510 0.03700
H 	H 	0.76930 0.66180 0.05870 0.03500
H 	H 	0.65650 0.74800 0.51190 0.02300
H 	H 	0.33410 0.64020 0.18560 0.02300
H 	H 	0.21050 0.65570 0.28400 0.07400
H 	H 	0.11010 0.27570 0.86540 0.07000
H 	H 	0.34940 0.88970 0.10950 0.09100
H 	H 	0.90660 0.95420 0.29690 0.18800
H 	H 	0.01570 0.45080 0.81140 0.04100
C 	C 	0.05270 0.20760 0.72480 0.00800
C 	C 	0.70010 0.24050 0.79020 -0.14500
C 	C 	0.01650 0.83660 0.31930 -0.10300
C 	C 	0.93260 0.29010 0.65720 -0.07500
C 	C 	0.73860 0.95560 0.69700 -0.10000
C 	C 	0.30200 0.98490 0.25460 0.15900
C 	C 	0.06180 0.29300 0.73510 -0.07700
C 	C 	0.26900 0.42830 0.80950 0.03700
C 	C 	0.71290 0.40190 0.57520 -0.11400
C 	C 	0.78830 0.35410 0.66930 -0.13200
C 	C 	0.14120 0.65030 0.44170 -0.13100
C 	C 	0.54480 0.01460 0.71950 -0.00200
C 	C 	0.34630 0.83910 0.12500 -0.14000
C 	C 	0.82260 0.97360 0.67370 0.01500
C 	C 	0.37920 0.69630 0.10790 -0.12500
C 	C 	0.84940 0.68540 0.14890 -0.12400
C 	C 	0.86600 0.05100 0.69870 -0.09600
C 	C 	0.69610 0.84430 0.59360 -0.14800
C 	C 	0.92350 0.20460 0.64690 0.00300
C 	C 	0.03850 0.92750 0.32940 0.28400
C 	C 	0.28150 0.40850 0.87540 -0.08500
C 	C 	0.57950 0.37340 0.93140 0.31400
C 	C 	0.69800 0.01510 0.74540 0.15900
C 	C 	0.13400 0.94900 0.30130 -0.09600
C 	C 	0.19730 0.39120 0.76440 -0.12300
C 	C 	0.62080 0.30370 0.89210 -0.12500
C 	C 	0.45520 0.98540 0.28050 -0.00200
C 	C 	0.17740 0.02640 0.32630 0.01500
C 	C 	0.64030 0.55770 0.07230 0.29900
C 	C 	0.96710 0.96500 0.28200 -0.57700
C 	C 	0.35420 0.17250 0.29280 -0.14700
C 	C 	0.94730 0.79240 0.27520 0.00800
C 	C 	0.02210 0.54160 0.22940 -0.00000
C 	C 	0.21500 0.61700 0.46740 0.05100
C 	C 	0.97790 0.45840 0.77060 -0.00000
C 	C 	0.85880 0.34970 0.55830 -0.13100
C 	C 	0.33730 0.69090 0.17020 0.06100
C 	C 	0.98350 0.16340 0.68070 -0.10300
C 	C 	0.56900 0.63770 0.56520 0.37000
C 	C 	0.28710 0.59810 0.42480 -0.11400
C 	C 	0.66270 0.30910 0.82980 0.06100
C 	C 	0.39660 0.24860 0.32470 0.06700
C 	C 	0.61630 0.22960 0.91470 0.06100
C 	C 	0.30790 0.12610 0.33370 0.11700
C 	C 	0.97130 0.03390 0.59510 -0.63600
C 	C 	0.13960 0.66470 0.37340 0.10100
C 	C 	0.26140 0.04440 0.30300 -0.10000
C 	C 	0.93820 0.70700 0.26490 -0.07700
C 	C 	0.28540 0.61260 0.35640 0.05100
C 	C 	0.71460 0.38740 0.64360 0.05100
C 	C 	0.78500 0.38300 0.53260 0.05100
C 	C 	0.43100 0.36230 0.43480 0.37000
C 	C 	0.17470 0.88950 0.25300 0.01000
C 	C 	0.29990 0.75950 0.20980 -0.14500
C 	C 	0.07650 0.79540 0.35310 0.00300
C 	C 	0.15060 0.31460 0.85110 -0.12400
C 	C 	0.34620 0.23180 0.43830 0.06300
C 	C 	0.03290 0.03500 0.71800 -0.57700
C 	C 	0.63880 0.43490 0.54830 0.28500
C 	C 	0.86040 0.33530 0.62660 0.10100
C 	C 	0.86190 0.66560 0.21480 0.09100
C 	C 	0.13810 0.33440 0.78520 0.09100
C 	C 	0.69210 0.87390 0.66630 0.11700
C 	C 	0.42050 0.62660 0.06860 0.31400
C 	C 	0.39250 0.27820 0.39750 -0.12800
C 	C 	0.65370 0.16090 0.87500 -0.14000
C 	C 	0.30390 0.15570 0.40640 -0.14800
C 	C 	0.65380 0.76820 0.56170 0.06300
C 	C 	0.36120 0.56510 0.45170 0.28500
C 	C 	0.38370 0.77040 0.08530 0.06100
C 	C 	0.21170 0.64590 0.33070 -0.13200
C 	C 	0.30440 0.83370 0.18720 0.11000
C 	C 	0.60750 0.72180 0.60250 -0.12800
C 	C 	0.06740 0.70990 0.34280 -0.07500
C 	C 	0.77780 0.64830 0.10380 0.03100
C 	C 	0.35970 0.44230 0.92770 0.29900
C 	C 	0.64580 0.82750 0.70720 -0.14700
C 	C 	0.71850 0.59150 0.12460 -0.08500
C 	C 	0.69560 0.16630 0.81280 0.11000
C 	C 	0.82530 0.11050 0.74700 0.01000
C 	C 	0.80270 0.60880 0.23560 -0.12300
C 	C 	0.96150 0.07250 0.67060 0.28400
C 	C 	0.73100 0.57170 0.19050 0.03700
C 	C 	0.22220 0.35170 0.89620 0.03100
C 	C 	0.25870 0.90750 0.22960 -0.09100
C 	C 	0.60340 0.75140 0.67530 0.06700
C 	C 	0.00170 0.33430 0.70130 0.11800
C 	C 	0.02870 0.96610 0.40490 -0.63600
C 	C 	0.74130 0.09250 0.77040 -0.09100
C 	C 	0.99830 0.66570 0.29870 0.11800
O 	O 	0.01220 0.42350 0.70430 -0.19200
O 	O 	0.64330 0.45740 0.48290 -0.36000
O 	O 	0.56420 0.44440 0.58350 -0.37400
O 	O 	0.38440 0.00010 0.23230 -0.21500
O 	O 	0.98780 0.57650 0.29570 -0.19200
O 	O 	0.46200 0.63490 0.00910 -0.37000
O 	O 	0.35670 0.54260 0.51710 -0.36000
O 	O 	0.61560 0.99990 0.76770 -0.21500
O 	O 	0.58040 0.44210 0.90970 -0.39500
O 	O 	0.41490 0.49740 0.89630 -0.35500
O 	O 	0.58250 0.61290 0.50440 -0.43400
O 	O 	0.58510 0.50260 0.10370 -0.35500
O 	O 	0.53800 0.36510 0.99090 -0.37000
O 	O 	0.36950 0.42130 0.98290 -0.41000
O 	O 	0.63050 0.57870 0.01710 -0.41000
O 	O 	0.51280 0.60120 0.60400 -0.38900
O 	O 	0.41750 0.38710 0.49560 -0.43400
O 	O 	0.43580 0.55560 0.41650 -0.37400
O 	O 	0.48720 0.39880 0.39600 -0.38900
O 	O 	0.41960 0.55790 0.09030 -0.39500
