data_crystal

_cell_length_a 9.29740
_cell_length_b 15.88160
_cell_length_c 25.28700
_cell_angle_alpha 90.00000
_cell_angle_beta  90.00000
_cell_angle_gamma 90.00000

_symmetry_space_group_name_	'P 1'
_symmetry_space_group_name_H-M	'P 1'

loop_
_symmetry_equiv_pos_as_xyz
  x,y,z

loop_
_atom_site_label
_atom_site_type_symbol
_atom_site_fract_x
_atom_site_fract_y
_atom_site_fract_z
_atom_site_charge
Zn	Zn	0.10353 0.57014 0.99106 1.19500
Zn	Zn	0.89647 0.92986 0.49106 1.19500
Zn	Zn	0.89647 0.42986 0.00894 1.19600
Zn	Zn	0.10353 0.07014 0.50894 1.19600
H 	H 	0.61790 0.98090 0.62850 0.01200
H 	H 	0.48170 0.03050 0.69930 0.07800
H 	H 	0.77340 0.21520 0.72370 0.08100
H 	H 	0.91120 0.16280 0.65410 0.01900
H 	H 	0.33210 0.44000 0.87340 0.01200
H 	H 	0.46130 0.36210 0.81220 0.08000
H 	H 	0.28290 0.14790 0.86790 0.08800
H 	H 	0.14650 0.22680 0.92780 0.00900
H 	H 	0.38210 0.51910 0.12850 0.01500
H 	H 	0.51830 0.46950 0.19930 0.07700
H 	H 	0.22660 0.28480 0.22370 0.08000
H 	H 	0.08880 0.33720 0.15410 0.01900
H 	H 	0.66790 0.06000 0.37340 0.01200
H 	H 	0.53870 0.13790 0.31220 0.07900
H 	H 	0.71710 0.35210 0.36790 0.08800
H 	H 	0.85350 0.27320 0.42780 0.00900
H 	H 	0.38210 0.01910 0.37150 0.01200
H 	H 	0.51830 0.96950 0.30070 0.07800
H 	H 	0.22660 0.78480 0.27630 0.08100
H 	H 	0.08880 0.83720 0.34590 0.01900
H 	H 	0.66790 0.56000 0.12660 0.01200
H 	H 	0.53870 0.63790 0.18780 0.08000
H 	H 	0.71710 0.85210 0.13210 0.08800
H 	H 	0.85350 0.77320 0.07220 0.00900
H 	H 	0.61790 0.48090 0.87150 0.01500
H 	H 	0.48170 0.53050 0.80070 0.07700
H 	H 	0.77340 0.71520 0.77630 0.08000
H 	H 	0.91120 0.66280 0.84590 0.01900
H 	H 	0.33210 0.94000 0.62660 0.01200
H 	H 	0.46130 0.86210 0.68780 0.07900
H 	H 	0.28290 0.64790 0.63210 0.08800
H 	H 	0.14650 0.72680 0.57220 0.00900
C 	C 	0.85930 0.04090 0.58510 0.41200
C 	C 	0.77470 0.06850 0.63310 -0.14900
C 	C 	0.64940 0.02900 0.64750 0.07200
C 	C 	0.56810 0.05860 0.68980 -0.14300
C 	C 	0.61210 0.12920 0.71820 0.08800
C 	C 	0.74080 0.16750 0.70440 -0.14100
C 	C 	0.82220 0.13680 0.66260 0.06700
C 	C 	0.52860 0.16440 0.76030 -0.03200
C 	C 	0.13880 0.39260 0.94481 0.41700
C 	C 	0.22480 0.34120 0.90575 -0.15100
C 	C 	0.32010 0.38070 0.87180 0.07700
C 	C 	0.39750 0.33420 0.83580 -0.14500
C 	C 	0.38370 0.24740 0.83332 0.09500
C 	C 	0.29130 0.20750 0.86840 -0.14500
C 	C 	0.21090 0.25430 0.90430 0.07300
C 	C 	0.46330 0.19990 0.79440 -0.03300
C 	C 	0.14070 0.45910 0.08510 0.40800
C 	C 	0.22530 0.43150 0.13310 -0.14600
C 	C 	0.35060 0.47100 0.14750 0.06500
C 	C 	0.43190 0.44140 0.18980 -0.13900
C 	C 	0.38790 0.37080 0.21820 0.08500
C 	C 	0.25920 0.33250 0.20440 -0.13900
C 	C 	0.17780 0.36320 0.16260 0.06400
C 	C 	0.47140 0.33560 0.26030 -0.03100
C 	C 	0.86120 0.10740 0.44481 0.41600
C 	C 	0.77520 0.15880 0.40575 -0.15100
C 	C 	0.67990 0.11930 0.37180 0.07700
C 	C 	0.60250 0.16580 0.33580 -0.14500
C 	C 	0.61630 0.25260 0.33332 0.09500
C 	C 	0.70870 0.29250 0.36840 -0.14500
C 	C 	0.78910 0.24570 0.40430 0.07300
C 	C 	0.53670 0.30010 0.29440 -0.03300
C 	C 	0.14070 0.95910 0.41490 0.41200
C 	C 	0.22530 0.93150 0.36690 -0.14900
C 	C 	0.35060 0.97100 0.35250 0.07200
C 	C 	0.43190 0.94140 0.31020 -0.14300
C 	C 	0.38790 0.87080 0.28180 0.08800
C 	C 	0.25920 0.83250 0.29560 -0.14100
C 	C 	0.17780 0.86320 0.33740 0.06700
C 	C 	0.47140 0.83560 0.23970 -0.03200
C 	C 	0.86120 0.60740 0.05519 0.41700
C 	C 	0.77520 0.65880 0.09425 -0.15100
C 	C 	0.67990 0.61930 0.12820 0.07700
C 	C 	0.60250 0.66580 0.16420 -0.14500
C 	C 	0.61630 0.75260 0.16668 0.09500
C 	C 	0.70870 0.79250 0.13160 -0.14500
C 	C 	0.78910 0.74570 0.09570 0.07300
C 	C 	0.53670 0.80010 0.20560 -0.03300
C 	C 	0.85930 0.54090 0.91490 0.40800
C 	C 	0.77470 0.56850 0.86690 -0.14600
C 	C 	0.64940 0.52900 0.85250 0.06500
C 	C 	0.56810 0.55860 0.81020 -0.13900
C 	C 	0.61210 0.62920 0.78180 0.08500
C 	C 	0.74080 0.66750 0.79560 -0.13900
C 	C 	0.82220 0.63680 0.83740 0.06400
C 	C 	0.52860 0.66440 0.73970 -0.03100
C 	C 	0.13880 0.89260 0.55519 0.41600
C 	C 	0.22480 0.84120 0.59425 -0.15100
C 	C 	0.32010 0.88070 0.62820 0.07700
C 	C 	0.39750 0.83420 0.66420 -0.14500
C 	C 	0.38370 0.74740 0.66668 0.09500
C 	C 	0.29130 0.70750 0.63160 -0.14500
C 	C 	0.21090 0.75430 0.59570 0.07300
C 	C 	0.46330 0.69990 0.70560 -0.03300
O 	O 	0.97070 0.08250 0.57427 -0.47300
O 	O 	0.81160 0.98000 0.55938 -0.48300
O 	O 	0.03260 0.35860 0.96645 -0.48500
O 	O 	0.17930 0.46680 0.95181 -0.49500
O 	O 	0.02930 0.41750 0.07427 -0.47300
O 	O 	0.18840 0.52000 0.05938 -0.47900
O 	O 	0.96740 0.14140 0.46645 -0.48400
O 	O 	0.82070 0.03320 0.45181 -0.49400
O 	O 	0.02930 0.91750 0.42573 -0.47300
O 	O 	0.18840 0.02000 0.44062 -0.48300
O 	O 	0.96740 0.64140 0.03355 -0.48500
O 	O 	0.82070 0.53320 0.04819 -0.49500
O 	O 	0.97070 0.58250 0.92573 -0.47300
O 	O 	0.81160 0.48000 0.94062 -0.47900
O 	O 	0.03260 0.85860 0.53355 -0.48400
O 	O 	0.17930 0.96680 0.54819 -0.49400
Zn	Zn	0.60353 0.42986 0.50894 1.19700
Zn	Zn	0.39647 0.07014 0.00894 1.19500
Zn	Zn	0.39647 0.57014 0.49106 1.19700
Zn	Zn	0.60353 0.92986 0.99106 1.19500
H 	H 	0.11790 0.01910 0.87150 0.01900
H 	H 	0.98170 0.96950 0.80070 0.07000
H 	H 	0.27340 0.78480 0.77630 0.07900
H 	H 	0.41120 0.83720 0.84590 0.02000
H 	H 	0.83210 0.56000 0.62660 0.01200
H 	H 	0.96130 0.63790 0.68780 0.08000
H 	H 	0.78290 0.85210 0.63210 0.08800
H 	H 	0.64650 0.77320 0.57220 0.00900
H 	H 	0.88210 0.48090 0.37150 0.01500
H 	H 	0.01830 0.53050 0.30070 0.07800
H 	H 	0.72660 0.71520 0.27630 0.08100
H 	H 	0.58880 0.66280 0.34590 0.01900
H 	H 	0.16790 0.94000 0.12660 0.01400
H 	H 	0.03870 0.86210 0.18780 0.08000
H 	H 	0.21710 0.64790 0.13210 0.08700
H 	H 	0.35350 0.72680 0.07220 0.01000
H 	H 	0.88210 0.98090 0.12850 0.01900
H 	H 	0.01830 0.03050 0.19930 0.07000
H 	H 	0.72660 0.21520 0.22370 0.07900
H 	H 	0.58880 0.16280 0.15410 0.02000
H 	H 	0.16790 0.44000 0.37340 0.01200
H 	H 	0.03870 0.36210 0.31220 0.08000
H 	H 	0.21710 0.14790 0.36790 0.08800
H 	H 	0.35350 0.22680 0.42780 0.00900
H 	H 	0.11790 0.51910 0.62850 0.01500
H 	H 	0.98170 0.46950 0.69930 0.07800
H 	H 	0.27340 0.28480 0.72370 0.08100
H 	H 	0.41120 0.33720 0.65410 0.01900
H 	H 	0.83210 0.06000 0.87340 0.01400
H 	H 	0.96130 0.13790 0.81220 0.08000
H 	H 	0.78290 0.35210 0.86790 0.08700
H 	H 	0.64650 0.27320 0.92780 0.01000
C 	C 	0.35930 0.95910 0.91490 0.40300
C 	C 	0.27470 0.93150 0.86690 -0.14100
C 	C 	0.14940 0.97100 0.85250 0.05600
C 	C 	0.06810 0.94140 0.81020 -0.12800
C 	C 	0.11210 0.87080 0.78180 0.07800
C 	C 	0.24080 0.83250 0.79560 -0.13300
C 	C 	0.32220 0.86320 0.83740 0.05900
C 	C 	0.02860 0.83560 0.73970 -0.02400
C 	C 	0.63880 0.60740 0.55519 0.41700
C 	C 	0.72480 0.65880 0.59425 -0.15200
C 	C 	0.82010 0.61930 0.62820 0.07800
C 	C 	0.89750 0.66580 0.66420 -0.14800
C 	C 	0.88370 0.75260 0.66668 0.09800
C 	C 	0.79130 0.79250 0.63160 -0.14700
C 	C 	0.71090 0.74570 0.59570 0.07400
C 	C 	0.96330 0.80010 0.70560 -0.03900
C 	C 	0.64070 0.54090 0.41490 0.40800
C 	C 	0.72530 0.56850 0.36690 -0.14700
C 	C 	0.85060 0.52900 0.35250 0.06700
C 	C 	0.93190 0.55860 0.31020 -0.14100
C 	C 	0.88790 0.62920 0.28180 0.08700
C 	C 	0.75920 0.66750 0.29560 -0.14000
C 	C 	0.67780 0.63680 0.33740 0.06500
C 	C 	0.97140 0.66440 0.23970 -0.03400
C 	C 	0.36120 0.89260 0.05519 0.41600
C 	C 	0.27520 0.84120 0.09425 -0.15000
C 	C 	0.17990 0.88070 0.12820 0.07600
C 	C 	0.10250 0.83420 0.16420 -0.14400
C 	C 	0.11630 0.74740 0.16668 0.09300
C 	C 	0.20870 0.70750 0.13160 -0.14400
C 	C 	0.28910 0.75430 0.09570 0.07200
C 	C 	0.03670 0.69990 0.20560 -0.03000
C 	C 	0.64070 0.04090 0.08510 0.40300
C 	C 	0.72530 0.06850 0.13310 -0.14100
C 	C 	0.85060 0.02900 0.14750 0.05600
C 	C 	0.93190 0.05860 0.18980 -0.12800
C 	C 	0.88790 0.12920 0.21820 0.07800
C 	C 	0.75920 0.16750 0.20440 -0.13300
C 	C 	0.67780 0.13680 0.16260 0.05900
C 	C 	0.97140 0.16440 0.26030 -0.02400
C 	C 	0.36120 0.39260 0.44481 0.41700
C 	C 	0.27520 0.34120 0.40575 -0.15200
C 	C 	0.17990 0.38070 0.37180 0.07800
C 	C 	0.10250 0.33420 0.33580 -0.14800
C 	C 	0.11630 0.24740 0.33332 0.09800
C 	C 	0.20870 0.20750 0.36840 -0.14700
C 	C 	0.28910 0.25430 0.40430 0.07400
C 	C 	0.03670 0.19990 0.29440 -0.03900
C 	C 	0.35930 0.45910 0.58510 0.40800
C 	C 	0.27470 0.43150 0.63310 -0.14700
C 	C 	0.14940 0.47100 0.64750 0.06700
C 	C 	0.06810 0.44140 0.68980 -0.14100
C 	C 	0.11210 0.37080 0.71820 0.08700
C 	C 	0.24080 0.33250 0.70440 -0.14000
C 	C 	0.32220 0.36320 0.66260 0.06500
C 	C 	0.02860 0.33560 0.76030 -0.03400
C 	C 	0.63880 0.10740 0.94481 0.41600
C 	C 	0.72480 0.15880 0.90575 -0.15000
C 	C 	0.82010 0.11930 0.87180 0.07600
C 	C 	0.89750 0.16580 0.83580 -0.14400
C 	C 	0.88370 0.25260 0.83332 0.09300
C 	C 	0.79130 0.29250 0.86840 -0.14400
C 	C 	0.71090 0.24570 0.90430 0.07200
C 	C 	0.96330 0.30010 0.79440 -0.03000
O 	O 	0.47070 0.91750 0.92573 -0.47300
O 	O 	0.31160 0.02000 0.94062 -0.47600
O 	O 	0.53260 0.64140 0.53355 -0.48500
O 	O 	0.67930 0.53320 0.54819 -0.49500
O 	O 	0.52930 0.58250 0.42573 -0.47300
O 	O 	0.68840 0.48000 0.44062 -0.48000
O 	O 	0.46740 0.85860 0.03355 -0.48300
O 	O 	0.32070 0.96680 0.04819 -0.49200
O 	O 	0.52930 0.08250 0.07427 -0.47300
O 	O 	0.68840 0.98000 0.05938 -0.47600
O 	O 	0.46740 0.35860 0.46645 -0.48500
O 	O 	0.32070 0.46680 0.45181 -0.49500
O 	O 	0.47070 0.41750 0.57427 -0.47300
O 	O 	0.31160 0.52000 0.55938 -0.48000
O 	O 	0.53260 0.14140 0.96645 -0.48300
O 	O 	0.67930 0.03320 0.95181 -0.49200
