data_crystal

_cell_length_a 10.42990
_cell_length_b 13.52190
_cell_length_c 31.66420
_cell_angle_alpha 90.00000
_cell_angle_beta  97.62080
_cell_angle_gamma 90.00000

_symmetry_space_group_name_	'P 1'
_symmetry_space_group_name_H-M	'P 1'

loop_
_symmetry_equiv_pos_as_xyz
  x,y,z

loop_
_atom_site_label
_atom_site_type_symbol
_atom_site_fract_x
_atom_site_fract_y
_atom_site_fract_z
_atom_site_charge
Eu	Eu	0.91552 0.90392 0.53900 1.79800
Eu	Eu	0.08448 0.40392 0.96100 1.80700
Eu	Eu	0.08448 0.09608 0.46100 1.79800
Eu	Eu	0.91552 0.59608 0.03900 1.80700
H 	H 	0.78010 0.01960 0.35480 0.01500
H 	H 	0.63510 0.96910 0.29650 0.09000
H 	H 	0.46010 0.78770 0.37000 0.08600
H 	H 	0.60800 0.83580 0.43020 -0.00900
H 	H 	0.75760 0.20980 0.87760 0.02700
H 	H 	0.62520 0.14880 0.81860 0.06900
H 	H 	0.82660 0.30600 0.74180 0.07100
H 	H 	0.96790 0.36110 0.80030 0.03200
H 	H 	0.14740 0.74170 0.52330 -0.01300
H 	H 	0.26860 0.59220 0.53450 0.08400
H 	H 	0.46550 0.67060 0.43720 0.07800
H 	H 	0.34330 0.81660 0.42940 0.00800
H 	H 	0.21990 0.51960 0.14520 0.00900
H 	H 	0.36490 0.46910 0.20350 0.09300
H 	H 	0.53990 0.28770 0.13000 0.08800
H 	H 	0.39200 0.33580 0.06980 -0.01100
H 	H 	0.24240 0.70980 0.62240 0.02700
H 	H 	0.37480 0.64880 0.68140 0.06900
H 	H 	0.17340 0.80600 0.75820 0.07100
H 	H 	0.03210 0.86110 0.69970 0.03300
H 	H 	0.85260 0.24170 0.97670 -0.01400
H 	H 	0.73140 0.09220 0.96550 0.08400
H 	H 	0.53450 0.17060 0.06280 0.07800
H 	H 	0.65670 0.31660 0.07060 0.00800
H 	H 	0.21990 0.98040 0.64520 0.01500
H 	H 	0.36490 0.03090 0.70350 0.09000
H 	H 	0.53990 0.21230 0.63000 0.08600
H 	H 	0.39200 0.16420 0.56980 -0.00900
H 	H 	0.24240 0.79020 0.12240 0.02700
H 	H 	0.37480 0.85120 0.18140 0.06900
H 	H 	0.17340 0.69400 0.25820 0.07100
H 	H 	0.03210 0.63890 0.19970 0.03200
H 	H 	0.85260 0.25830 0.47670 -0.01300
H 	H 	0.73140 0.40780 0.46550 0.08400
H 	H 	0.53450 0.32940 0.56280 0.07800
H 	H 	0.65670 0.18340 0.57060 0.00800
H 	H 	0.78010 0.48040 0.85480 0.00900
H 	H 	0.63510 0.53090 0.79650 0.09300
H 	H 	0.46010 0.71230 0.87000 0.08800
H 	H 	0.60800 0.66420 0.93020 -0.01100
H 	H 	0.75760 0.29020 0.37760 0.02700
H 	H 	0.62520 0.35120 0.31860 0.06900
H 	H 	0.82660 0.19400 0.24180 0.07100
H 	H 	0.96790 0.13890 0.30030 0.03300
H 	H 	0.14740 0.75830 0.02330 -0.01400
H 	H 	0.26860 0.90780 0.03450 0.08400
H 	H 	0.46550 0.82940 0.93720 0.07800
H 	H 	0.34330 0.68340 0.92940 0.00800
C 	C 	0.19770 0.04010 0.56370 0.46900
C 	C 	0.29380 0.06970 0.60190 -0.19100
C 	C 	0.28440 0.02830 0.64180 0.09400
C 	C 	0.37070 0.05840 0.67630 -0.17000
C 	C 	0.46270 0.12550 0.67200 0.11700
C 	C 	0.52620 0.83450 0.36700 -0.16800
C 	C 	0.61420 0.86350 0.40300 0.10100
C 	C 	0.55020 0.16200 0.70930 -0.04500
C 	C 	0.97520 0.31760 0.88310 0.33700
C 	C 	0.88330 0.28340 0.84480 -0.10200
C 	C 	0.77520 0.22610 0.84980 0.03800
C 	C 	0.69380 0.19280 0.81500 -0.11800
C 	C 	0.71290 0.22440 0.77420 0.07000
C 	C 	0.81400 0.28500 0.76960 -0.11700
C 	C 	0.89950 0.31700 0.80420 0.03400
C 	C 	0.62630 0.18980 0.73800 -0.02100
C 	C 	0.16100 0.88550 0.46960 0.43400
C 	C 	0.23600 0.79090 0.47610 -0.19900
C 	C 	0.21350 0.72760 0.50620 0.10600
C 	C 	0.28720 0.63810 0.51350 -0.17200
C 	C 	0.38280 0.62050 0.49010 0.09800
C 	C 	0.40360 0.68540 0.45580 -0.16300
C 	C 	0.32890 0.77070 0.45100 0.09400
C 	C 	0.46530 0.53660 0.49750 -0.04800
C 	C 	0.80230 0.54010 0.93630 0.47900
C 	C 	0.70620 0.56970 0.89810 -0.19900
C 	C 	0.71560 0.52830 0.85820 0.10800
C 	C 	0.62930 0.55840 0.82370 -0.17900
C 	C 	0.53730 0.62550 0.82800 0.12200
C 	C 	0.47380 0.33450 0.13300 -0.17300
C 	C 	0.38580 0.36350 0.09700 0.10700
C 	C 	0.44980 0.66200 0.79070 -0.04800
C 	C 	0.02480 0.81760 0.61690 0.34000
C 	C 	0.11670 0.78340 0.65520 -0.10300
C 	C 	0.22480 0.72610 0.65020 0.03800
C 	C 	0.30620 0.69280 0.68500 -0.11800
C 	C 	0.28710 0.72440 0.72580 0.06900
C 	C 	0.18600 0.78500 0.73040 -0.11700
C 	C 	0.10050 0.81700 0.69580 0.03400
C 	C 	0.37370 0.68980 0.76200 -0.02000
C 	C 	0.83900 0.38550 0.03040 0.43500
C 	C 	0.76400 0.29090 0.02390 -0.20100
C 	C 	0.78650 0.22760 0.99380 0.10800
C 	C 	0.71280 0.13810 0.98650 -0.17300
C 	C 	0.61720 0.12050 0.00990 0.09900
C 	C 	0.59640 0.18540 0.04420 -0.16400
C 	C 	0.67110 0.27070 0.04900 0.09600
C 	C 	0.53470 0.03660 0.00250 -0.04800
C 	C 	0.80230 0.95990 0.43630 0.46900
C 	C 	0.70620 0.93030 0.39810 -0.19100
C 	C 	0.71560 0.97170 0.35820 0.09400
C 	C 	0.62930 0.94160 0.32370 -0.17000
C 	C 	0.53730 0.87450 0.32800 0.11700
C 	C 	0.47380 0.16550 0.63300 -0.16800
C 	C 	0.38580 0.13650 0.59700 0.10100
C 	C 	0.44980 0.83800 0.29070 -0.04500
C 	C 	0.02480 0.68240 0.11690 0.33700
C 	C 	0.11670 0.71660 0.15520 -0.10200
C 	C 	0.22480 0.77390 0.15020 0.03800
C 	C 	0.30620 0.80720 0.18500 -0.11800
C 	C 	0.28710 0.77560 0.22580 0.07000
C 	C 	0.18600 0.71500 0.23040 -0.11700
C 	C 	0.10050 0.68300 0.19580 0.03400
C 	C 	0.37370 0.81020 0.26200 -0.02100
C 	C 	0.83900 0.11450 0.53040 0.43400
C 	C 	0.76400 0.20910 0.52390 -0.19900
C 	C 	0.78650 0.27240 0.49380 0.10600
C 	C 	0.71280 0.36190 0.48650 -0.17200
C 	C 	0.61720 0.37950 0.50990 0.09800
C 	C 	0.59640 0.31460 0.54420 -0.16300
C 	C 	0.67110 0.22930 0.54900 0.09400
C 	C 	0.53470 0.46340 0.50250 -0.04800
C 	C 	0.19770 0.45990 0.06370 0.47900
C 	C 	0.29380 0.43030 0.10190 -0.19900
C 	C 	0.28440 0.47170 0.14180 0.10800
C 	C 	0.37070 0.44160 0.17630 -0.17900
C 	C 	0.46270 0.37450 0.17200 0.12200
C 	C 	0.52620 0.66550 0.86700 -0.17300
C 	C 	0.61420 0.63650 0.90300 0.10700
C 	C 	0.55020 0.33800 0.20930 -0.04800
C 	C 	0.97520 0.18240 0.38310 0.34000
C 	C 	0.88330 0.21660 0.34480 -0.10300
C 	C 	0.77520 0.27390 0.34980 0.03800
C 	C 	0.69380 0.30720 0.31500 -0.11800
C 	C 	0.71290 0.27560 0.27420 0.06900
C 	C 	0.81400 0.21500 0.26960 -0.11700
C 	C 	0.89950 0.18300 0.30420 0.03400
C 	C 	0.62630 0.31020 0.23800 -0.02000
C 	C 	0.16100 0.61450 0.96960 0.43500
C 	C 	0.23600 0.70910 0.97610 -0.20100
C 	C 	0.21350 0.77240 0.00620 0.10800
C 	C 	0.28720 0.86190 0.01350 -0.17300
C 	C 	0.38280 0.87950 0.99010 0.09900
C 	C 	0.40360 0.81460 0.95580 -0.16400
C 	C 	0.32890 0.72930 0.95100 0.09600
C 	C 	0.46530 0.96340 0.99750 -0.04800
O 	O 	0.10090 0.99080 0.57225 -0.46100
O 	O 	0.78310 0.93160 0.47200 -0.51700
O 	O 	0.06000 0.37990 0.87930 -0.39300
O 	O 	0.95780 0.28060 0.91820 -0.44100
O 	O 	0.06920 0.90170 0.49100 -0.54700
O 	O 	0.19250 0.94700 0.44270 -0.45600
O 	O 	0.89910 0.49080 0.92775 -0.46800
O 	O 	0.21690 0.43160 0.02800 -0.51900
O 	O 	0.94000 0.87990 0.62070 -0.39500
O 	O 	0.04220 0.78060 0.58180 -0.44100
O 	O 	0.93080 0.40170 0.00900 -0.55100
O 	O 	0.80750 0.44700 0.05730 -0.45900
O 	O 	0.89910 0.00920 0.42775 -0.46100
O 	O 	0.21690 0.06840 0.52800 -0.51700
O 	O 	0.94000 0.62010 0.12070 -0.39300
O 	O 	0.04220 0.71940 0.08180 -0.44100
O 	O 	0.93080 0.09830 0.50900 -0.54700
O 	O 	0.80750 0.05300 0.55730 -0.45600
O 	O 	0.10090 0.50920 0.07225 -0.46800
O 	O 	0.78310 0.56840 0.97200 -0.51900
O 	O 	0.06000 0.12010 0.37930 -0.39500
O 	O 	0.95780 0.21940 0.41820 -0.44100
O 	O 	0.06920 0.59830 0.99100 -0.55100
O 	O 	0.19250 0.55300 0.94270 -0.45900
