data_crystal

_cell_length_a 13.01300
_cell_length_b 13.84600
_cell_length_c 28.02900
_cell_angle_alpha 75.71000
_cell_angle_beta  79.28000
_cell_angle_gamma 85.59000

_symmetry_space_group_name_	'P 1'
_symmetry_space_group_name_H-M	'P 1'

loop_
_symmetry_equiv_pos_as_xyz
  x,y,z

loop_
_atom_site_label
_atom_site_type_symbol
_atom_site_fract_x
_atom_site_fract_y
_atom_site_fract_z
_atom_site_charge
Eu	Eu	0.47158 0.53808 0.41513 1.68300
Eu	Eu	0.03064 0.87534 0.06060 1.82400
Eu	Eu	0.51721 0.48092 0.91410 1.69800
Eu	Eu	0.88045 0.02113 0.55413 1.80300
O 	O 	0.94470 0.93210 0.47240 -0.53200
O 	O 	0.79890 0.89890 0.52615 -0.44800
O 	O 	0.60000 0.56710 0.45682 -0.53200
O 	O 	0.62460 0.59060 0.52898 -0.53800
O 	O 	0.04470 0.88890 0.14483 -0.44600
O 	O 	0.93050 0.78590 0.14101 -0.42800
O 	O 	0.63980 0.51700 0.35810 -0.39200
O 	O 	0.59570 0.39190 0.42349 -0.40000
O 	O 	0.86880 0.13530 0.47613 -0.51000
O 	O 	0.01880 0.12690 0.42219 -0.44300
O 	O 	0.25940 0.65960 0.14720 -0.34600
O 	O 	0.32460 0.50820 0.14131 -0.49100
O 	O 	0.88920 0.98420 0.07753 -0.47800
O 	O 	0.87640 0.12750 0.02166 -0.51200
O 	O 	0.50400 0.35080 0.13824 -0.41700
O 	O 	0.61290 0.38670 0.06686 -0.41400
O 	O 	0.49080 0.69450 0.36314 -0.51400
O 	O 	0.44330 0.81500 0.40310 -0.33500
O 	O 	0.59820 0.57200 0.95505 -0.53600
O 	O 	0.61130 0.60710 0.02570 -0.55500
O 	O 	0.90160 0.96760 0.96699 -0.54200
O 	O 	0.89260 0.82690 0.02565 -0.48600
O 	O 	0.77960 0.93550 0.63574 -0.42400
O 	O 	0.91290 0.01790 0.63864 -0.44800
C 	C 	0.82450 0.82280 0.45760 -0.16900
C 	C 	0.75080 0.75220 0.48170 0.10100
H 	H 	0.72520 0.74430 0.51570 0.01100
C 	C 	0.71480 0.69310 0.45530 -0.18500
C 	C 	0.75300 0.70520 0.40460 0.05700
H 	H 	0.72790 0.66610 0.38690 0.01700
C 	C 	0.82940 0.77640 0.37930 -0.08400
C 	C 	0.86510 0.83340 0.40690 0.04500
H 	H 	0.91670 0.87930 0.39150 0.01900
C 	C 	0.86720 0.78840 0.32440 0.12100
C 	C 	0.96200 0.83210 0.30170 -0.16600
H 	H 	0.00310 0.85340 0.32070 0.08600
C 	C 	0.99530 0.84400 0.25060 0.09900
H 	H 	0.05920 0.87290 0.23590 0.00100
C 	C 	0.93670 0.81450 0.22130 -0.15400
C 	C 	0.84710 0.76400 0.24450 0.08900
H 	H 	0.80870 0.73830 0.22580 0.00700
C 	C 	0.81400 0.75120 0.29540 -0.17700
H 	H 	0.75360 0.71630 0.31050 0.09900
C 	C 	0.85920 0.88830 0.48670 0.42400
C 	C 	0.63950 0.61180 0.48230 0.48000
C 	C 	0.97320 0.83090 0.16560 0.37200
C 	C 	0.76620 0.38380 0.37480 -0.09700
C 	C 	0.79560 0.29990 0.40820 0.04000
H 	H 	0.75040 0.27400 0.43780 0.02500
C 	C 	0.89390 0.25370 0.39740 -0.13000
C 	C 	0.96090 0.29380 0.35360 0.00900
H 	H 	0.02570 0.26240 0.34650 0.04200
C 	C 	0.93410 0.37950 0.31990 -0.05600
C 	C 	0.83590 0.42330 0.33130 0.00000
H 	H 	0.81610 0.48070 0.30930 0.03800
C 	C 	0.01030 0.42740 0.27590 0.10700
C 	C 	0.01680 0.52970 0.26000 -0.17100
H 	H 	0.96790 0.56950 0.27580 0.09200
C 	C 	0.09360 0.57550 0.22150 0.08000
H 	H 	0.09630 0.64470 0.21200 0.00400
C 	C 	0.16650 0.51680 0.19720 -0.16800
C 	C 	0.15940 0.41600 0.21120 0.08900
H 	H 	0.20710 0.37660 0.19460 0.01100
C 	C 	0.08180 0.37070 0.25000 -0.16800
H 	H 	0.07800 0.30160 0.25860 0.09500
C 	C 	0.66090 0.43280 0.38580 0.30500
C 	C 	0.92950 0.16440 0.43540 0.42800
C 	C 	0.25570 0.56560 0.15880 0.37800
C 	C 	0.76100 0.10300 0.10020 -0.15600
C 	C 	0.71450 0.19720 0.08780 0.06100
H 	H 	0.73820 0.24060 0.05730 0.01100
C 	C 	0.63250 0.22650 0.12110 -0.11400
C 	C 	0.59740 0.16140 0.16600 0.01500
H 	H 	0.54170 0.18130 0.18790 0.03200
C 	C 	0.64270 0.06700 0.17940 -0.06800
C 	C 	0.72660 0.03820 0.14570 0.02300
H 	H 	0.75910 0.97560 0.15410 0.03700
C 	C 	0.60090 0.99550 0.22750 0.12200
C 	C 	0.59860 0.89570 0.22960 -0.18000
H 	H 	0.62400 0.87260 0.20110 0.08900
C 	C 	0.55890 0.82840 0.27390 0.10000
H 	H 	0.55880 0.76090 0.27450 -0.00500
C 	C 	0.52000 0.85980 0.31660 -0.17300
C 	C 	0.52000 0.95990 0.31530 0.09600
H 	H 	0.49270 0.98290 0.34380 0.00700
C 	C 	0.56150 0.02690 0.27090 -0.17500
H 	H 	0.56270 0.09420 0.27040 0.09100
C 	C 	0.84820 0.06830 0.06360 0.45800
C 	C 	0.57970 0.32790 0.10800 0.32100
C 	C 	0.48040 0.78480 0.36490 0.40500
C 	C 	0.69950 0.70820 0.95220 -0.21900
C 	C 	0.75290 0.75290 0.97930 0.12700
H 	H 	0.74720 0.72830 0.01370 -0.00600
C 	C 	0.81470 0.83440 0.95510 -0.20400
C 	C 	0.82360 0.86920 0.90410 0.07600
H 	H 	0.86290 0.92510 0.88820 0.01100
C 	C 	0.77540 0.82290 0.87580 -0.10400
C 	C 	0.71310 0.74200 0.89990 0.07900
H 	H 	0.68030 0.71030 0.88150 0.01100
C 	C 	0.79100 0.85830 0.82040 0.12200
C 	C 	0.71380 0.85080 0.79350 -0.17200
H 	H 	0.65020 0.82380 0.81050 0.09600
C 	C 	0.72900 0.88230 0.74190 0.08200
H 	H 	0.67610 0.87570 0.72480 0.01200
C 	C 	0.82210 0.92350 0.71560 -0.14600
C 	C 	0.90000 0.93100 0.74140 0.07800
H 	H 	0.96350 0.95790 0.72410 0.01900
C 	C 	0.88480 0.89880 0.79320 -0.16600
H 	H 	0.93850 0.90440 0.81000 0.09700
C 	C 	0.63080 0.62390 0.97920 0.51800
C 	C 	0.87310 0.88000 0.98510 0.48400
C 	C 	0.83920 0.96140 0.65960 0.37000
Tb	Tb	0.11955 0.97887 0.44587 1.69100
Eu	Eu	0.52842 0.46192 0.58487 1.68200
Eu	Eu	0.96936 0.12466 0.93940 1.81800
Eu	Eu	0.48279 0.51908 0.08590 1.69800
O 	O 	0.05530 0.06790 0.52760 -0.54300
O 	O 	0.20110 0.10110 0.47385 -0.43700
O 	O 	0.40000 0.43290 0.54318 -0.53200
O 	O 	0.37540 0.40940 0.47102 -0.53800
O 	O 	0.95530 0.11110 0.85517 -0.44800
O 	O 	0.06950 0.21410 0.85899 -0.42800
O 	O 	0.36020 0.48300 0.64190 -0.39200
O 	O 	0.40430 0.60810 0.57651 -0.39900
O 	O 	0.13120 0.86470 0.52387 -0.49400
O 	O 	0.98120 0.87310 0.57781 -0.45700
O 	O 	0.74060 0.34040 0.85280 -0.34700
O 	O 	0.67540 0.49180 0.85869 -0.49100
O 	O 	0.11080 0.01580 0.92247 -0.48000
O 	O 	0.12360 0.87250 0.97834 -0.51300
O 	O 	0.49600 0.64920 0.86176 -0.41700
O 	O 	0.38710 0.61330 0.93314 -0.41400
O 	O 	0.50920 0.30550 0.63686 -0.51400
O 	O 	0.55670 0.18500 0.59690 -0.33800
O 	O 	0.40180 0.42800 0.04495 -0.53600
O 	O 	0.38870 0.39290 0.97430 -0.55400
O 	O 	0.09840 0.03240 0.03301 -0.54400
O 	O 	0.10740 0.17310 0.97435 -0.48600
O 	O 	0.22040 0.06450 0.36426 -0.41000
O 	O 	0.08710 0.98210 0.36136 -0.43000
C 	C 	0.17550 0.17720 0.54240 -0.17400
C 	C 	0.24920 0.24780 0.51830 0.10300
H 	H 	0.27480 0.25570 0.48430 0.01000
C 	C 	0.28520 0.30690 0.54470 -0.18600
C 	C 	0.24700 0.29480 0.59540 0.05800
H 	H 	0.27210 0.33390 0.61310 0.01700
C 	C 	0.17060 0.22360 0.62070 -0.08600
C 	C 	0.13490 0.16660 0.59310 0.04800
H 	H 	0.08330 0.12070 0.60850 0.01700
C 	C 	0.13280 0.21160 0.67560 0.12100
C 	C 	0.03800 0.16790 0.69830 -0.16600
H 	H 	0.99690 0.14660 0.67930 0.08400
C 	C 	0.00470 0.15600 0.74940 0.10200
H 	H 	0.94080 0.12710 0.76410 -0.00100
C 	C 	0.06330 0.18550 0.77870 -0.15600
C 	C 	0.15290 0.23600 0.75550 0.09000
H 	H 	0.19130 0.26170 0.77420 0.00600
C 	C 	0.18600 0.24880 0.70460 -0.17800
H 	H 	0.24640 0.28370 0.68950 0.10000
C 	C 	0.14080 0.11170 0.51330 0.42900
C 	C 	0.36050 0.38820 0.51770 0.48000
C 	C 	0.02680 0.16910 0.83440 0.37500
C 	C 	0.23380 0.61620 0.62520 -0.09600
C 	C 	0.20440 0.70010 0.59180 0.04100
H 	H 	0.24960 0.72600 0.56220 0.02600
C 	C 	0.10610 0.74630 0.60260 -0.13100
C 	C 	0.03910 0.70620 0.64640 0.01300
H 	H 	0.97430 0.73760 0.65350 0.04000
C 	C 	0.06590 0.62050 0.68010 -0.05700
C 	C 	0.16410 0.57670 0.66870 0.00100
H 	H 	0.18390 0.51930 0.69070 0.03800
C 	C 	0.98970 0.57260 0.72410 0.10800
C 	C 	0.98320 0.47030 0.74000 -0.17600
H 	H 	0.03210 0.43050 0.72420 0.09400
C 	C 	0.90640 0.42450 0.77850 0.08300
H 	H 	0.90370 0.35530 0.78800 0.00200
C 	C 	0.83350 0.48320 0.80280 -0.17000
C 	C 	0.84060 0.58400 0.78880 0.09000
H 	H 	0.79290 0.62340 0.80540 0.01100
C 	C 	0.91820 0.62930 0.75000 -0.17000
H 	H 	0.92200 0.69840 0.74140 0.09500
C 	C 	0.33910 0.56720 0.61420 0.30500
C 	C 	0.07050 0.83560 0.56460 0.43100
C 	C 	0.74430 0.43440 0.84120 0.37800
C 	C 	0.23900 0.89700 0.89980 -0.15700
C 	C 	0.28550 0.80280 0.91220 0.06100
H 	H 	0.26180 0.75940 0.94270 0.01100
C 	C 	0.36750 0.77350 0.87890 -0.11300
C 	C 	0.40260 0.83860 0.83400 0.01200
H 	H 	0.45830 0.81870 0.81210 0.03400
C 	C 	0.35730 0.93300 0.82060 -0.06100
C 	C 	0.27340 0.96180 0.85430 0.02700
H 	H 	0.24090 0.02440 0.84590 0.03400
C 	C 	0.39910 0.00450 0.77250 0.10700
C 	C 	0.40140 0.10430 0.77040 -0.16900
H 	H 	0.37600 0.12740 0.79890 0.08500
C 	C 	0.44110 0.17160 0.72610 0.09000
H 	H 	0.44120 0.23910 0.72550 -0.00200
C 	C 	0.48000 0.14020 0.68340 -0.16600
C 	C 	0.48000 0.04010 0.68470 0.08100
H 	H 	0.50730 0.01710 0.65620 0.01000
C 	C 	0.43850 0.97310 0.72910 -0.15700
H 	H 	0.43730 0.90580 0.72960 0.08600
C 	C 	0.15180 0.93170 0.93640 0.46200
C 	C 	0.42030 0.67210 0.89200 0.32000
C 	C 	0.51960 0.21520 0.63510 0.40200
C 	C 	0.30050 0.29180 0.04780 -0.21900
C 	C 	0.24710 0.24710 0.02070 0.12700
H 	H 	0.25280 0.27170 0.98630 -0.00600
C 	C 	0.18530 0.16560 0.04490 -0.20400
C 	C 	0.17640 0.13080 0.09590 0.07600
H 	H 	0.13710 0.07490 0.11180 0.01000
C 	C 	0.22460 0.17710 0.12420 -0.10400
C 	C 	0.28690 0.25800 0.10010 0.07900
H 	H 	0.31970 0.28970 0.11850 0.01100
C 	C 	0.20900 0.14170 0.17960 0.12100
C 	C 	0.28620 0.14920 0.20650 -0.17100
H 	H 	0.34980 0.17620 0.18950 0.09600
C 	C 	0.27100 0.11770 0.25810 0.08000
H 	H 	0.32390 0.12430 0.27520 0.01300
C 	C 	0.17790 0.07650 0.28440 -0.14400
C 	C 	0.10000 0.06900 0.25860 0.07600
H 	H 	0.03650 0.04210 0.27590 0.01900
C 	C 	0.11520 0.10120 0.20680 -0.16500
H 	H 	0.06150 0.09560 0.19000 0.09600
C 	C 	0.36920 0.37610 0.02080 0.51800
C 	C 	0.12690 0.12000 0.01490 0.48500
C 	C 	0.16080 0.03860 0.34040 0.36400
