data_crystal

_cell_length_a 11.24020
_cell_length_b 11.53660
_cell_length_c 16.19630
_cell_angle_alpha 104.94500
_cell_angle_beta  110.30400
_cell_angle_gamma 90.00000

_symmetry_space_group_name_	'P 1'
_symmetry_space_group_name_H-M	'P 1'

loop_
_symmetry_equiv_pos_as_xyz
  x,y,z

loop_
_atom_site_label
_atom_site_type_symbol
_atom_site_fract_x
_atom_site_fract_y
_atom_site_fract_z
_atom_site_charge
V 	V 	0.19527 0.17863 0.21366 1.72800
V 	V 	0.05129 0.43583 0.28966 1.71700
V 	V 	0.98161 0.32137 0.78634 1.76700
V 	V 	0.76163 0.06417 0.71034 1.72000
V 	V 	0.80473 0.82137 0.78634 1.74400
V 	V 	0.94871 0.56417 0.71034 1.75300
V 	V 	0.01839 0.67863 0.21366 1.69900
V 	V 	0.23837 0.93583 0.28966 1.74800
Ni	Ni	-0.00000 0.50000 0.50000 1.04100
Ni	Ni	0.50000 0.00000 0.50000 1.05300
Ni	Ni	0.00000 0.50000 -0.00000 0.93500
Ni	Ni	-0.00000 0.00000 -0.00000 0.91100
H 	H 	0.14000 0.35900 0.64000 -0.10500
H 	H 	0.32600 0.36300 0.73600 0.09900
H 	H 	0.47300 0.63600 0.68200 0.03900
H 	H 	0.26400 0.64000 0.57800 0.00100
H 	H 	0.56700 0.31000 0.76400 0.01300
H 	H 	0.78100 0.32200 0.87000 -0.07300
H 	H 	0.80600 0.66900 0.94200 0.00700
H 	H 	0.61700 0.67100 0.84400 0.03300
H 	H 	0.87700 0.31300 0.56000 -0.04300
H 	H 	0.87700 0.12300 0.57400 0.06500
H 	H 	0.10130 0.06550 0.40700 0.05800
H 	H 	0.08200 0.25600 0.40000 -0.03400
H 	H 	0.50000 0.14100 0.36000 -0.07500
H 	H 	0.59000 0.13700 0.26400 0.07300
H 	H 	0.79100 0.86400 0.31800 0.04200
H 	H 	0.68600 0.86000 0.42200 0.00100
H 	H 	0.80300 0.19000 0.23600 0.02100
H 	H 	0.91100 0.17800 0.13000 -0.06500
H 	H 	0.86400 0.83100 0.05800 -0.05300
H 	H 	0.77300 0.82900 0.15600 -0.00500
H 	H 	0.31700 0.18700 0.44000 -0.03500
H 	H 	0.30300 0.37700 0.42600 0.03800
H 	H 	0.69430 0.43450 0.59300 0.03300
H 	H 	0.68200 0.24400 0.60000 -0.02800
H 	H 	0.86000 0.64100 0.36000 -0.04200
H 	H 	0.67400 0.63700 0.26400 0.09100
H 	H 	0.52700 0.36400 0.31800 0.03300
H 	H 	0.73600 0.36000 0.42200 0.00700
H 	H 	0.43300 0.69000 0.23600 0.02000
H 	H 	0.21900 0.67800 0.13000 -0.11800
H 	H 	0.19400 0.33100 0.05800 -0.07300
H 	H 	0.38300 0.32900 0.15600 0.02000
H 	H 	0.12300 0.68700 0.44000 -0.00600
H 	H 	0.12300 0.87700 0.42600 0.00800
H 	H 	0.89870 0.93450 0.59300 0.00800
H 	H 	0.91800 0.74400 0.60000 -0.02000
H 	H 	0.50000 0.85900 0.64000 -0.07500
H 	H 	0.41000 0.86300 0.73600 0.11700
H 	H 	0.20900 0.13600 0.68200 0.03200
H 	H 	0.31400 0.14000 0.57800 0.00600
H 	H 	0.19700 0.81000 0.76400 0.01300
H 	H 	0.08900 0.82200 0.87000 -0.11300
H 	H 	0.13600 0.16900 0.94200 -0.00100
H 	H 	0.22700 0.17100 0.84400 0.05900
H 	H 	0.68300 0.81300 0.56000 -0.01400
H 	H 	0.69700 0.62300 0.57400 0.03700
H 	H 	0.30570 0.56550 0.40700 0.03300
H 	H 	0.31800 0.75600 0.40000 -0.02600
C 	C 	0.21110 0.41890 0.64760 0.06400
C 	C 	0.32950 0.41420 0.71120 -0.24500
C 	C 	0.42990 0.49710 0.72880 0.07700
C 	C 	0.40450 0.58330 0.67920 -0.13400
C 	C 	0.28420 0.58050 0.61640 0.04900
C 	C 	0.55910 0.49470 0.79540 0.01900
C 	C 	0.61020 0.38810 0.80700 -0.11100
C 	C 	0.73330 0.39240 0.86740 0.03400
C 	C 	0.75810 0.59700 0.90560 0.02400
C 	C 	0.63550 0.60110 0.84760 -0.13700
C 	C 	0.91675 0.25720 0.52770 0.11200
C 	C 	0.92340 0.14090 0.53620 -0.21600
C 	C 	0.99202 0.06200 0.49404 0.26000
C 	C 	0.04520 0.10600 0.44200 -0.27000
C 	C 	0.03290 0.22360 0.43480 0.00400
C 	C 	0.56350 0.08110 0.35240 0.03400
C 	C 	0.61830 0.08580 0.28880 -0.21000
C 	C 	0.70110 0.00290 0.27120 0.00300
C 	C 	0.72530 0.91670 0.32080 -0.05800
C 	C 	0.66780 0.91950 0.38360 0.09700
C 	C 	0.76370 0.00530 0.20460 -0.05000
C 	C 	0.80320 0.11190 0.19300 -0.09700
C 	C 	0.86590 0.10760 0.13260 0.00500
C 	C 	0.85250 0.90300 0.09440 0.07000
C 	C 	0.78790 0.89890 0.15240 -0.05500
C 	C 	0.38905 0.24280 0.47230 0.03700
C 	C 	0.38720 0.35910 0.46380 -0.11800
C 	C 	0.49798 0.43800 0.50596 0.03500
C 	C 	0.60320 0.39400 0.55800 -0.08900
C 	C 	0.59810 0.27640 0.56520 0.03900
C 	C 	0.78890 0.58110 0.35240 0.06200
C 	C 	0.67050 0.58580 0.28880 -0.22700
C 	C 	0.57010 0.50290 0.27120 0.05800
C 	C 	0.59550 0.41670 0.32080 -0.12700
C 	C 	0.71580 0.41950 0.38360 0.04900
C 	C 	0.44090 0.50530 0.20460 0.02400
C 	C 	0.38980 0.61190 0.19300 -0.13400
C 	C 	0.26670 0.60760 0.13260 0.02300
C 	C 	0.24190 0.40300 0.09440 0.02100
C 	C 	0.36450 0.39890 0.15240 -0.17100
C 	C 	0.08325 0.74280 0.47230 -0.04100
C 	C 	0.07660 0.85910 0.46380 -0.01400
C 	C 	0.00798 0.93800 0.50596 -0.19700
C 	C 	0.95480 0.89400 0.55800 0.10300
C 	C 	0.96710 0.77640 0.56520 0.07600
C 	C 	0.43650 0.91890 0.64760 0.09200
C 	C 	0.38170 0.91420 0.71120 -0.26400
C 	C 	0.29890 0.99710 0.72880 0.13200
C 	C 	0.27470 0.08330 0.67920 -0.20200
C 	C 	0.33220 0.08050 0.61640 0.00100
C 	C 	0.23630 0.99470 0.79540 0.09000
C 	C 	0.19680 0.88810 0.80700 -0.14400
C 	C 	0.13410 0.89240 0.86740 0.05200
C 	C 	0.14750 0.09700 0.90560 -0.02300
C 	C 	0.21210 0.10110 0.84760 -0.24700
C 	C 	0.61095 0.75720 0.52770 0.03500
C 	C 	0.61280 0.64090 0.53620 -0.11300
C 	C 	0.50202 0.56200 0.49404 0.03300
C 	C 	0.39680 0.60600 0.44200 -0.08700
C 	C 	0.40190 0.72360 0.43480 0.03900
N 	N 	0.18718 0.49880 0.59916 -0.25500
N 	N 	0.97184 0.30170 0.47948 -0.16700
N 	N 	0.80819 0.49510 0.91698 -0.21900
N 	N 	0.58802 0.00120 0.40084 -0.28100
N 	N 	0.49236 0.19830 0.52052 -0.22200
N 	N 	0.89121 0.00490 0.08302 -0.28400
N 	N 	0.81282 0.50120 0.40084 -0.22100
N 	N 	0.02816 0.69830 0.52052 -0.25600
N 	N 	0.19181 0.50490 0.08302 -0.28900
N 	N 	0.41198 0.99880 0.59916 -0.20000
N 	N 	0.50764 0.80170 0.47948 -0.20500
N 	N 	0.10879 0.99510 0.91698 -0.20700
O 	O 	0.07469 0.47190 0.40058 -0.76200
O 	O 	0.12186 0.13660 0.10052 -0.86300
O 	O 	0.09965 0.56560 0.26310 -0.91400
O 	O 	0.14641 0.31790 0.26482 -0.89600
O 	O 	0.67411 0.02810 0.59942 -0.77100
O 	O 	0.02134 0.36340 0.89948 -0.81000
O 	O 	0.83655 0.93440 0.73690 -0.83000
O 	O 	0.88159 0.18210 0.73518 -0.86300
O 	O 	0.92531 0.52810 0.59942 -0.69800
O 	O 	0.87814 0.86340 0.89948 -0.69700
O 	O 	0.90035 0.43440 0.73690 -0.86200
O 	O 	0.85359 0.68210 0.73518 -0.85600
O 	O 	0.32589 0.97190 0.40058 -0.69500
O 	O 	0.97866 0.63660 0.10052 -0.73300
O 	O 	0.16345 0.06560 0.26310 -0.94200
O 	O 	0.11841 0.81790 0.26482 -0.89300
