data_crystal

_cell_length_a 14.72690
_cell_length_b 14.72690
_cell_length_c 14.72690
_cell_angle_alpha 109.47100
_cell_angle_beta  109.47100
_cell_angle_gamma 109.47100

_symmetry_space_group_name_	'P 1'
_symmetry_space_group_name_H-M	'P 1'

loop_
_symmetry_equiv_pos_as_xyz
  x,y,z

loop_
_atom_site_label
_atom_site_type_symbol
_atom_site_fract_x
_atom_site_fract_y
_atom_site_fract_z
_atom_site_charge
Zn	Zn	0.75000 0.50000 0.25000 1.17400
Zn	Zn	0.25000 0.50000 0.75000 1.17400
Zn	Zn	0.25000 0.75000 0.50000 1.17500
Zn	Zn	0.75000 0.25000 0.50000 1.17500
Zn	Zn	0.50000 0.75000 0.25000 1.17500
Zn	Zn	0.50000 0.25000 0.75000 1.17500
C 	C 	0.67799 0.46715 0.41062 -0.00700
C 	C 	0.05653 0.26737 0.58938 -0.00300
C 	C 	0.94347 0.53285 0.21084 -0.01200
C 	C 	0.32201 0.73263 0.78916 -0.00900
C 	C 	0.21084 0.94347 0.53285 -0.01300
C 	C 	0.78916 0.32201 0.73263 -0.00800
C 	C 	0.41062 0.67799 0.46715 -0.00700
C 	C 	0.58938 0.05653 0.26737 -0.00300
C 	C 	0.26737 0.58938 0.05653 0.00300
C 	C 	0.46715 0.41062 0.67799 -0.00800
C 	C 	0.73263 0.78916 0.32201 -0.00800
C 	C 	0.53285 0.21084 0.94347 -0.01800
C 	C 	0.26737 0.05653 0.58938 -0.00300
C 	C 	0.46715 0.67799 0.41062 -0.00800
C 	C 	0.73263 0.32201 0.78916 -0.00800
C 	C 	0.53285 0.94347 0.21084 -0.01200
C 	C 	0.67799 0.41062 0.46715 -0.00800
C 	C 	0.05653 0.58938 0.26737 -0.00300
C 	C 	0.94347 0.21084 0.53285 -0.01200
C 	C 	0.32201 0.78916 0.73263 -0.00800
C 	C 	0.21084 0.53285 0.94347 -0.01800
C 	C 	0.78916 0.73263 0.32201 -0.00800
C 	C 	0.41062 0.46715 0.67799 -0.00800
C 	C 	0.58938 0.26737 0.05653 0.00300
C 	C 	0.81580 0.32380 0.32380 -0.23300
C 	C 	0.75766 0.37236 0.37236 0.12700
C 	C 	-0.00000 0.49200 0.67620 -0.23000
C 	C 	-0.00000 0.38530 0.62764 0.12800
C 	C 	0.00000 0.67620 0.49200 -0.23100
C 	C 	-0.00000 0.62764 0.38530 0.12900
C 	C 	0.18420 0.50800 0.50800 -0.23300
C 	C 	0.24234 0.61470 0.61470 0.12500
C 	C 	0.49200 0.00000 0.67620 -0.23000
C 	C 	0.38530 0.00000 0.62764 0.12800
C 	C 	0.50800 0.18420 0.50800 -0.23400
C 	C 	0.61470 0.24234 0.61470 0.12600
C 	C 	0.32380 0.81580 0.32380 -0.23600
C 	C 	0.37236 0.75766 0.37236 0.12700
C 	C 	0.67620 0.00000 0.49200 -0.22900
C 	C 	0.62764 0.00000 0.38530 0.12900
C 	C 	0.49200 0.67620 -0.00000 -0.21600
C 	C 	0.38530 0.62764 -0.00000 0.12900
C 	C 	0.32380 0.32380 0.81580 -0.23200
C 	C 	0.37236 0.37236 0.75766 0.12600
C 	C 	0.50800 0.50800 0.18420 -0.23400
C 	C 	0.61470 0.61470 0.24234 0.12600
C 	C 	0.67620 0.49200 -0.00000 -0.22900
C 	C 	0.62764 0.38530 -0.00000 0.13300
N 	N 	0.72854 0.44296 0.35038 -0.29100
N 	N 	0.09258 0.37816 0.64962 -0.29200
N 	N 	0.90742 0.55704 0.28558 -0.29200
N 	N 	0.27146 0.62184 0.71442 -0.29100
N 	N 	0.28558 0.90742 0.55704 -0.29200
N 	N 	0.71442 0.27146 0.62184 -0.29100
N 	N 	0.35038 0.72854 0.44296 -0.29100
N 	N 	0.64962 0.09258 0.37816 -0.29200
N 	N 	0.37816 0.64962 0.09258 -0.29200
N 	N 	0.44296 0.35038 0.72854 -0.29100
N 	N 	0.62184 0.71442 0.27146 -0.29100
N 	N 	0.55704 0.28558 0.90742 -0.29300
N 	N 	0.37816 0.09258 0.64962 -0.29200
N 	N 	0.44296 0.72854 0.35038 -0.29100
N 	N 	0.62184 0.27146 0.71442 -0.29100
N 	N 	0.55704 0.90742 0.28558 -0.29200
N 	N 	0.72854 0.35038 0.44296 -0.29100
N 	N 	0.09258 0.64962 0.37816 -0.29200
N 	N 	0.90742 0.28558 0.55704 -0.29200
N 	N 	0.27146 0.71442 0.62184 -0.29100
N 	N 	0.28558 0.55704 0.90742 -0.29300
N 	N 	0.71442 0.62184 0.27146 -0.29100
N 	N 	0.35038 0.44296 0.72854 -0.29100
N 	N 	0.64962 0.37816 0.09258 -0.29300
H 	H 	0.63956 0.52294 0.41901 0.00000
H 	H 	0.10393 0.22055 0.58099 0.00000
H 	H 	0.89607 0.47706 0.11662 0.00100
H 	H 	0.36044 0.77945 0.88338 -0.00200
H 	H 	0.11662 0.89607 0.47706 0.00000
H 	H 	0.88338 0.36044 0.77945 -0.00100
H 	H 	0.41901 0.63956 0.52294 0.00000
H 	H 	0.58099 0.10393 0.22055 0.00100
H 	H 	0.22055 0.58099 0.10393 -0.00000
H 	H 	0.52294 0.41901 0.63956 0.00000
H 	H 	0.77945 0.88338 0.36044 -0.00100
H 	H 	0.47706 0.11662 0.89607 0.00100
H 	H 	0.22055 0.10393 0.58099 0.00000
H 	H 	0.52294 0.63956 0.41901 -0.00000
H 	H 	0.77945 0.36044 0.88338 -0.00200
H 	H 	0.47706 0.89607 0.11662 0.00300
H 	H 	0.63956 0.41901 0.52294 0.00000
H 	H 	0.10393 0.58099 0.22055 -0.00100
H 	H 	0.89607 0.11662 0.47706 0.00200
H 	H 	0.36044 0.88338 0.77945 -0.00100
H 	H 	0.11662 0.47706 0.89607 0.00100
H 	H 	0.88338 0.77945 0.36044 -0.00100
H 	H 	0.41901 0.52294 0.63956 0.00000
H 	H 	0.79670 0.32218 0.24144 0.03200
H 	H 	0.78575 0.23544 0.30902 0.03500
H 	H 	0.90933 0.37672 0.38388 0.04900
H 	H 	0.91357 0.47340 0.66294 0.02600
H 	H 	0.02349 0.54046 0.63365 0.04800
H 	H 	0.06294 0.54357 0.76907 0.03800
H 	H 	0.91106 0.65095 0.47369 0.02600
H 	H 	0.05217 0.77073 0.53717 0.04200
H 	H 	0.03677 0.64398 0.54657 0.04700
H 	H 	0.21425 0.44969 0.52328 0.03600
H 	H 	0.20330 0.52548 0.44474 0.03200
H 	H 	0.09067 0.46740 0.47455 0.05000
H 	H 	0.53888 0.02015 0.63133 0.04800
H 	H 	0.47350 0.91451 0.66597 0.02600
H 	H 	0.54504 0.06534 0.76836 0.03700
H 	H 	0.47624 0.09096 0.46578 0.05100
H 	H 	0.52261 0.21664 0.45096 0.03700
H 	H 	0.44372 0.20063 0.52583 0.03200
H 	H 	0.22928 0.76222 0.27404 0.04500
H 	H 	0.35607 0.83051 0.26669 0.02900
H 	H 	0.34899 0.89904 0.39361 0.04600
H 	H 	0.76202 0.07714 0.55270 0.03300
H 	H 	0.68389 0.92232 0.47540 0.03000
H 	H 	0.61975 0.00054 0.52933 0.05000
H 	H 	0.47739 0.69403 0.92835 0.02800
H 	H 	0.52376 0.61472 0.98955 0.04100
H 	H 	0.55627 0.75691 0.08210 0.02900
H 	H 	0.31611 0.23843 0.79151 0.03300
H 	H 	0.23798 0.31512 0.79069 0.03300
H 	H 	0.38025 0.38079 0.90958 0.04700
H 	H 	0.52650 0.44100 0.19247 0.03100
H 	H 	0.46112 0.48127 0.09245 0.05100
H 	H 	0.45495 0.52029 0.22331 0.03900
H 	H 	0.64393 0.47444 0.91062 0.02300
H 	H 	0.77072 0.53294 0.04477 0.04400
H 	H 	0.65101 0.55004 0.04462 0.04700
