data_crystal

_cell_length_a 8.38480
_cell_length_b 17.23430
_cell_length_c 17.23430
_cell_angle_alpha 62.57740
_cell_angle_beta  80.66700
_cell_angle_gamma 99.33300

_symmetry_space_group_name_	'P 1'
_symmetry_space_group_name_H-M	'P 1'

loop_
_symmetry_equiv_pos_as_xyz
  x,y,z

loop_
_atom_site_label
_atom_site_type_symbol
_atom_site_fract_x
_atom_site_fract_y
_atom_site_fract_z
_atom_site_charge
Co	Co	0.34499 0.77937 0.06674 1.17500
Co	Co	0.03645 0.21929 0.93323 1.14900
Co	Co	0.41173 0.06674 0.15389 1.17700
Co	Co	0.96968 0.93323 0.84748 1.16000
Co	Co	0.56562 0.15389 0.77937 1.16700
Co	Co	0.81716 0.84748 0.21929 1.16500
H 	H 	0.70890 0.52010 0.03160 0.20800
H 	H 	0.75470 0.59880 0.10430 0.33000
H 	H 	0.92590 0.67440 0.05630 0.35300
H 	H 	0.90350 0.58700 0.14950 0.34300
H 	H 	0.72140 0.36690 0.97170 0.31800
H 	H 	0.75370 0.45990 0.88260 0.31400
H 	H 	0.62120 0.43630 0.97120 0.30200
H 	H 	0.98010 0.39650 0.89120 0.03700
H 	H 	0.17170 0.42530 0.88370 0.03400
H 	H 	0.35390 0.45750 0.99450 0.21900
H 	H 	0.40120 0.56220 0.95910 0.23300
H 	H 	0.36210 0.52620 0.89370 0.23300
H 	H 	0.30440 0.56220 0.07430 0.00500
H 	H 	0.16840 0.59580 0.11360 -0.00900
H 	H 	0.21260 0.70420 0.90640 0.13900
H 	H 	0.38410 0.77920 0.86350 0.13100
H 	H 	0.54130 0.68430 0.92460 0.12900
H 	H 	0.55520 0.66010 0.02280 0.13600
H 	H 	0.85190 0.31110 0.07430 0.13800
H 	H 	0.93230 0.23480 0.13000 0.12800
H 	H 	0.20440 0.31430 0.07420 0.11300
H 	H 	0.29830 0.33690 0.97650 0.08900
H 	H 	0.74050 0.03160 0.44830 0.18800
H 	H 	0.85900 0.10430 0.29690 0.28800
H 	H 	0.98220 0.05630 0.26930 0.30900
H 	H 	0.05300 0.14950 0.26350 0.27900
H 	H 	0.69310 0.97170 0.66140 0.29600
H 	H 	0.63630 0.88260 0.65750 0.29200
H 	H 	0.59240 0.97120 0.59250 0.28200
H 	H 	0.87130 0.89120 0.71230 0.01200
H 	H 	0.05540 0.88370 0.69100 0.01000
H 	H 	0.34840 0.99450 0.54800 0.20700
H 	H 	0.36030 0.95910 0.47870 0.22000
H 	H 	0.25580 0.89370 0.58010 0.21900
H 	H 	0.37870 0.07430 0.36350 0.01500
H 	H 	0.28200 0.11360 0.29060 0.00300
H 	H 	0.11900 0.90640 0.38940 0.13300
H 	H 	0.24760 0.86350 0.35730 0.12500
H 	H 	0.46590 0.92460 0.39110 0.12900
H 	H 	0.57800 0.02280 0.31710 0.13800
H 	H 	0.92620 0.07430 0.61460 0.12400
H 	H 	0.06230 0.13000 0.63520 0.09300
H 	H 	0.27860 0.07420 0.61150 0.11400
H 	H 	0.27480 0.97650 0.68660 0.08800
H 	H 	0.18880 0.44830 0.52010 0.20700
H 	H 	0.15590 0.29690 0.59880 0.31400
H 	H 	0.25150 0.26930 0.67440 0.32800
H 	H 	0.31650 0.26350 0.58700 0.32700
H 	H 	0.35450 0.66140 0.36690 0.33100
H 	H 	0.29380 0.65750 0.45990 0.31800
H 	H 	0.18490 0.59250 0.43630 0.31000
H 	H 	0.58360 0.71230 0.39650 0.01000
H 	H 	0.74640 0.69100 0.42530 0.02000
H 	H 	0.89640 0.54800 0.45750 0.24400
H 	H 	0.83900 0.47870 0.56220 0.25600
H 	H 	0.83590 0.58010 0.52620 0.25100
H 	H 	0.74220 0.36350 0.56220 0.00700
H 	H 	0.57260 0.29060 0.59580 0.00200
H 	H 	0.50840 0.38940 0.70420 0.14500
H 	H 	0.60490 0.35730 0.77920 0.13000
H 	H 	0.85700 0.39110 0.68430 0.11900
H 	H 	0.89510 0.31710 0.66010 0.11200
H 	H 	0.54080 0.61460 0.31110 0.13100
H 	H 	0.69750 0.63520 0.23480 0.12600
H 	H 	0.89010 0.61150 0.31430 0.11800
H 	H 	0.96140 0.68660 0.33690 0.11000
C 	C 	0.10380 0.55890 0.02690 -0.31100
C 	C 	0.14590 0.50870 0.98480 0.30600
C 	C 	0.02640 0.46330 0.96250 -0.30400
C 	C 	0.86020 0.47210 0.97490 0.47800
C 	C 	0.81990 0.51860 0.01810 -0.55600
C 	C 	0.93570 0.56370 0.04310 0.50900
C 	C 	0.87450 0.61030 0.09270 -1.05200
C 	C 	0.72730 0.43000 0.94780 -1.01100
C 	C 	0.06000 0.39990 0.92520 -0.04900
C 	C 	0.33360 0.51420 0.95520 -0.74000
C 	C 	0.22880 0.60050 0.05800 0.06500
C 	C 	0.28560 0.74750 0.91520 -0.35900
C 	C 	0.19510 0.81490 0.91840 0.41400
C 	C 	0.62610 0.80060 0.93320 0.41500
C 	C 	0.52230 0.70150 0.97090 -0.37800
C 	C 	0.89950 0.26350 0.07410 -0.32500
C 	C 	0.76280 0.19340 0.07480 0.38900
C 	C 	0.21420 0.19680 0.06770 0.38800
C 	C 	0.20250 0.29650 0.02850 -0.29000
C 	C 	0.13070 0.02690 0.41420 -0.27000
C 	C 	0.13070 0.98480 0.50650 0.26200
C 	C 	0.98890 0.96250 0.57420 -0.25500
C 	C 	0.83510 0.97490 0.55300 0.41700
C 	C 	0.83800 0.01810 0.46330 -0.49300
C 	C 	0.97880 0.04310 0.39320 0.44400
C 	C 	0.96720 0.09270 0.29700 -0.90100
C 	C 	0.67510 0.94780 0.62220 -0.94100
C 	C 	0.98520 0.92520 0.67490 0.00900
C 	C 	0.28880 0.95520 0.53060 -0.69800
C 	C 	0.28680 0.05800 0.34150 0.03900
C 	C 	0.20080 0.91520 0.33730 -0.34600
C 	C 	0.11350 0.91840 0.26670 0.39000
C 	C 	0.55930 0.93320 0.26620 0.41500
C 	C 	0.49320 0.97090 0.32760 -0.38000
C 	C 	0.97360 0.07410 0.66240 -0.27700
C 	C 	0.83760 0.07480 0.73180 0.37800
C 	C 	0.28190 0.06770 0.73550 0.39000
C 	C 	0.23100 0.02850 0.67500 -0.28700
C 	C 	0.54490 0.41420 0.55890 -0.31700
C 	C 	0.63720 0.50650 0.50870 0.34500
C 	C 	0.56310 0.57420 0.46330 -0.31500
C 	C 	0.38810 0.55300 0.47210 0.50500
C 	C 	0.30130 0.46330 0.51860 -0.58900
C 	C 	0.37200 0.39320 0.56370 0.48700
C 	C 	0.26420 0.29700 0.61030 -1.01700
C 	C 	0.29730 0.62220 0.43000 -1.03900
C 	C 	0.66010 0.67490 0.39990 0.01000
C 	C 	0.81940 0.53060 0.51420 -0.79000
C 	C 	0.62830 0.34150 0.60050 0.04600
C 	C 	0.53810 0.33730 0.74750 -0.35700
C 	C 	0.38020 0.26670 0.81490 0.41600
C 	C 	0.82550 0.26620 0.80060 0.40300
C 	C 	0.82080 0.32760 0.70150 -0.33100
C 	C 	0.63600 0.66240 0.26350 -0.34200
C 	C 	0.56940 0.73180 0.19340 0.39000
C 	C 	0.01740 0.73550 0.19680 0.35700
C 	C 	0.90600 0.67500 0.29650 -0.30500
N 	N 	0.33800 0.69760 0.99880 -0.12900
N 	N 	0.04610 0.30450 0.00050 -0.09900
N 	N 	0.33680 0.99880 0.30360 -0.12700
N 	N 	0.04660 0.00050 0.69500 -0.11600
N 	N 	0.64040 0.30360 0.69760 -0.12200
N 	N 	0.74160 0.69500 0.30450 -0.10200
O 	O 	0.21590 0.84270 0.97170 -0.48300
O 	O 	0.11490 0.84400 0.85930 -0.45700
O 	O 	0.57540 0.84310 0.96820 -0.47500
O 	O 	0.76870 0.82330 0.87850 -0.44200
O 	O 	0.80110 0.16220 0.02200 -0.43000
O 	O 	0.62990 0.16180 0.13590 -0.43000
O 	O 	0.15320 0.15350 0.03460 -0.44500
O 	O 	0.30450 0.17230 0.12300 -0.44400
O 	O 	0.18760 0.97170 0.18560 -0.47000
O 	O 	0.97420 0.85930 0.29670 -0.42900
O 	O 	0.54360 0.96820 0.18870 -0.46800
O 	O 	0.64720 0.87850 0.29820 -0.44100
O 	O 	0.82310 0.02200 0.81580 -0.43600
O 	O 	0.76580 0.13590 0.70230 -0.42800
O 	O 	0.18780 0.03460 0.81190 -0.45300
O 	O 	0.42750 0.12300 0.70470 -0.44600
O 	O 	0.37320 0.18560 0.84270 -0.46800
O 	O 	0.27090 0.29670 0.84400 -0.45200
O 	O 	0.73230 0.18870 0.84310 -0.45800
O 	O 	0.94540 0.29820 0.82330 -0.42900
O 	O 	0.63890 0.81580 0.16220 -0.45000
O 	O 	0.46810 0.70230 0.16180 -0.43600
O 	O 	0.99970 0.81190 0.15350 -0.42800
O 	O 	0.13220 0.70470 0.17230 -0.44500
