data_crystal

_cell_length_a 9.57410
_cell_length_b 14.50440
_cell_length_c 13.73290
_cell_angle_alpha 90.00000
_cell_angle_beta  100.58200
_cell_angle_gamma 90.00000

_symmetry_space_group_name_	'P 1'
_symmetry_space_group_name_H-M	'P 1'

loop_
_symmetry_equiv_pos_as_xyz
  x,y,z

loop_
_atom_site_label
_atom_site_type_symbol
_atom_site_fract_x
_atom_site_fract_y
_atom_site_fract_z
_atom_site_charge
Zn	Zn	0.46232 0.64207 0.36047 1.24600
O 	O 	0.45870 0.77785 0.37400 -0.38200
O 	O 	0.56820 0.11970 0.28270 -0.40100
O 	O 	0.33200 0.56040 0.41670 -0.39300
C 	C 	0.10190 0.54360 0.45450 -0.02500
C 	C 	0.20650 0.59220 0.40190 0.32400
C 	C 	0.95730 0.55640 0.42000 -0.01100
H 	H 	0.92830 0.59550 0.36640 0.07800
O 	O 	0.16770 0.65710 0.34710 -0.26800
O 	O 	0.64950 0.60500 0.43790 -0.38600
O 	O 	0.34310 0.14950 0.29430 -0.24900
C 	C 	0.70220 0.52870 0.41700 0.31900
C 	C 	0.48640 0.90410 0.48490 -0.01800
C 	C 	0.47190 0.80280 0.46640 0.29900
C 	C 	0.46100 0.11730 0.32510 0.33600
C 	C 	0.46980 0.96490 0.40450 -0.01500
H 	H 	0.44790 0.94170 0.34040 0.08500
O 	O 	0.63620 0.47030 0.35820 -0.24500
O 	O 	0.47210 0.74890 0.53550 -0.24600
C 	C 	0.85500 0.51280 0.46300 -0.02000
C 	C 	0.48570 0.06040 0.41930 -0.02500
Zn	Zn	0.53768 0.14207 0.13953 1.24500
O 	O 	0.54130 0.27785 0.12600 -0.38300
O 	O 	0.43180 0.61970 0.21730 -0.40000
O 	O 	0.66800 0.06040 0.08330 -0.39300
C 	C 	0.89810 0.04360 0.04550 -0.02500
C 	C 	0.79350 0.09220 0.09810 0.32300
C 	C 	0.04270 0.05640 0.08000 -0.01200
H 	H 	0.07170 0.09550 0.13360 0.07900
O 	O 	0.83230 0.15710 0.15290 -0.26900
O 	O 	0.35050 0.10500 0.06210 -0.38600
O 	O 	0.65690 0.64950 0.20570 -0.24900
C 	C 	0.29780 0.02870 0.08300 0.31600
C 	C 	0.51360 0.40410 0.01510 -0.01800
C 	C 	0.52810 0.30280 0.03360 0.29600
C 	C 	0.53900 0.61730 0.17490 0.33600
C 	C 	0.53020 0.46490 0.09550 -0.01600
H 	H 	0.55210 0.44170 0.15960 0.08400
O 	O 	0.36380 0.97030 0.14180 -0.24100
O 	O 	0.52790 0.24890 0.96450 -0.24400
C 	C 	0.14500 0.01280 0.03700 -0.02100
C 	C 	0.51430 0.56040 0.08070 -0.02400
Zn	Zn	0.53768 0.35793 0.63953 1.24500
O 	O 	0.54130 0.22215 0.62600 -0.38300
O 	O 	0.43180 0.88030 0.71730 -0.40100
O 	O 	0.66800 0.43960 0.58330 -0.39300
C 	C 	0.89810 0.45640 0.54550 -0.02500
C 	C 	0.79350 0.40780 0.59810 0.32400
C 	C 	0.04270 0.44360 0.58000 -0.01100
H 	H 	0.07170 0.40450 0.63360 0.07800
O 	O 	0.83230 0.34290 0.65290 -0.26800
O 	O 	0.35050 0.39500 0.56210 -0.38600
O 	O 	0.65690 0.85050 0.70570 -0.24900
C 	C 	0.29780 0.47130 0.58300 0.31900
C 	C 	0.51360 0.09590 0.51510 -0.01800
C 	C 	0.52810 0.19720 0.53360 0.29900
C 	C 	0.53900 0.88270 0.67490 0.33600
C 	C 	0.53020 0.03510 0.59550 -0.01500
H 	H 	0.55210 0.05830 0.65960 0.08500
O 	O 	0.36380 0.52970 0.64180 -0.24500
O 	O 	0.52790 0.25110 0.46450 -0.24600
C 	C 	0.14500 0.48720 0.53700 -0.02000
C 	C 	0.51430 0.93960 0.58070 -0.02500
Zn	Zn	0.46232 0.85793 0.86047 1.24500
O 	O 	0.45870 0.72215 0.87400 -0.38300
O 	O 	0.56820 0.38030 0.78270 -0.40000
O 	O 	0.33200 0.93960 0.91670 -0.39300
C 	C 	0.10190 0.95640 0.95450 -0.02500
C 	C 	0.20650 0.90780 0.90190 0.32300
C 	C 	0.95730 0.94360 0.92000 -0.01200
H 	H 	0.92830 0.90450 0.86640 0.07900
O 	O 	0.16770 0.84290 0.84710 -0.26900
O 	O 	0.64950 0.89500 0.93790 -0.38600
O 	O 	0.34310 0.35050 0.79430 -0.24900
C 	C 	0.70220 0.97130 0.91700 0.31600
C 	C 	0.48640 0.59590 0.98490 -0.01800
C 	C 	0.47190 0.69720 0.96640 0.29600
C 	C 	0.46100 0.38270 0.82510 0.33600
C 	C 	0.46980 0.53510 0.90450 -0.01600
H 	H 	0.44790 0.55830 0.84040 0.08400
O 	O 	0.63620 0.02970 0.85820 -0.24100
O 	O 	0.47210 0.75110 0.03550 -0.24400
C 	C 	0.85500 0.98720 0.96300 -0.02100
C 	C 	0.48570 0.43960 0.91930 -0.02400
