data_crystal

_cell_length_a 9.98700
_cell_length_b 13.17200
_cell_length_c 14.29000
_cell_angle_alpha 90.00000
_cell_angle_beta  90.00000
_cell_angle_gamma 90.00000

_symmetry_space_group_name_	'P 1'
_symmetry_space_group_name_H-M	'P 1'

loop_
_symmetry_equiv_pos_as_xyz
  x,y,z

loop_
_atom_site_label
_atom_site_type_symbol
_atom_site_fract_x
_atom_site_fract_y
_atom_site_fract_z
_atom_site_charge
Tb	Tb	0.00089 0.84388 0.69639 1.91700
O 	O 	0.22910 0.97190 0.68900 -0.32600
O 	O 	0.06730 0.99330 0.79250 -0.39000
O 	O 	0.34530 0.28860 0.08480 -0.52400
O 	O 	0.15540 0.20350 0.07770 -0.50300
O 	O 	0.84710 0.80410 0.81570 -0.48300
O 	O 	0.65920 0.71490 0.80500 -0.50300
O 	O 	0.52990 0.49360 0.08580 -0.36600
O 	O 	0.68230 0.48080 0.19630 -0.36600
C 	C 	0.26490 0.09240 0.81140 -0.13800
C 	C 	0.22670 0.12470 0.90100 0.09600
H 	H 	0.14770 0.10100 0.92760 0.02200
C 	C 	0.30700 0.19200 0.94950 -0.20000
C 	C 	0.42330 0.22690 0.90990 0.11400
H 	H 	0.47790 0.27120 0.94330 0.00700
C 	C 	0.45960 0.19720 0.82170 -0.15800
H 	H 	0.53780 0.22230 0.79500 0.09100
C 	C 	0.38050 0.13030 0.77210 0.07400
H 	H 	0.40520 0.11070 0.71200 0.02000
C 	C 	0.18180 0.01480 0.76060 0.33600
C 	C 	0.26640 0.22950 0.04700 0.52600
C 	C 	0.77170 0.71870 0.95050 -0.16800
C 	C 	0.69560 0.63940 0.98990 0.08700
H 	H 	0.63410 0.60460 0.95300 0.02200
C 	C 	0.71150 0.61270 0.08250 -0.12300
C 	C 	0.79720 0.66760 0.13820 0.04300
H 	H 	0.80590 0.65030 0.20100 0.02900
C 	C 	0.87130 0.74850 0.10300 -0.10900
H 	H 	0.92910 0.78490 0.14140 0.07600
C 	C 	0.85710 0.77350 0.00960 0.04000
H 	H 	0.90530 0.82790 0.98540 0.04700
C 	C 	0.75720 0.74770 0.85210 0.48100
C 	C 	0.63690 0.52350 0.12500 0.32200
Tb	Tb	0.99911 0.15612 0.19639 1.91100
O 	O 	0.77090 0.02810 0.18900 -0.32800
O 	O 	0.93270 0.00670 0.29250 -0.39000
O 	O 	0.65470 0.71140 0.58480 -0.52400
O 	O 	0.84460 0.79650 0.57770 -0.50400
O 	O 	0.15290 0.19590 0.31570 -0.48600
O 	O 	0.34080 0.28510 0.30500 -0.50500
O 	O 	0.47010 0.50640 0.58580 -0.36400
O 	O 	0.31770 0.51920 0.69630 -0.36600
C 	C 	0.73510 0.90760 0.31140 -0.13900
C 	C 	0.77330 0.87530 0.40100 0.09700
H 	H 	0.85230 0.89900 0.42760 0.02300
C 	C 	0.69300 0.80800 0.44950 -0.20000
C 	C 	0.57670 0.77310 0.40990 0.11500
H 	H 	0.52210 0.72880 0.44330 0.00600
C 	C 	0.54040 0.80280 0.32170 -0.15900
H 	H 	0.46220 0.77770 0.29500 0.09100
C 	C 	0.61950 0.86970 0.27210 0.07500
H 	H 	0.59480 0.88930 0.21200 0.01900
C 	C 	0.81820 0.98520 0.26060 0.33800
C 	C 	0.73360 0.77050 0.54700 0.52700
C 	C 	0.22830 0.28130 0.45050 -0.19900
C 	C 	0.30440 0.36060 0.48990 0.09300
H 	H 	0.36590 0.39540 0.45300 0.01900
C 	C 	0.28850 0.38730 0.58250 -0.12700
C 	C 	0.20280 0.33240 0.63820 0.06200
H 	H 	0.19410 0.34970 0.70100 0.02300
C 	C 	0.12870 0.25150 0.60300 -0.14300
H 	H 	0.07090 0.21510 0.64140 0.09000
C 	C 	0.14290 0.22650 0.50960 0.09900
H 	H 	0.09470 0.17210 0.48540 0.01900
C 	C 	0.24280 0.25230 0.35210 0.49200
C 	C 	0.36310 0.47650 0.62500 0.32400
Tb	Tb	0.50089 0.65612 0.69639 1.93100
O 	O 	0.72910 0.52810 0.68900 -0.32100
O 	O 	0.56730 0.50670 0.79250 -0.38300
O 	O 	0.84530 0.21140 0.08480 -0.52400
O 	O 	0.65540 0.29650 0.07770 -0.50700
O 	O 	0.34710 0.69590 0.81570 -0.49000
O 	O 	0.15920 0.78510 0.80500 -0.50400
O 	O 	0.02990 0.00640 0.08580 -0.34800
O 	O 	0.18230 0.01920 0.19630 -0.35200
C 	C 	0.76490 0.40760 0.81140 -0.12900
C 	C 	0.72670 0.37530 0.90100 0.08800
H 	H 	0.64770 0.39900 0.92760 0.02600
C 	C 	0.80700 0.30800 0.94950 -0.18800
C 	C 	0.92330 0.27310 0.90990 0.10500
H 	H 	0.97790 0.22880 0.94330 0.01200
C 	C 	0.95960 0.30280 0.82170 -0.14700
H 	H 	0.03780 0.27770 0.79500 0.08700
C 	C 	0.88050 0.36970 0.77210 0.06600
H 	H 	0.90520 0.38930 0.71200 0.02300
C 	C 	0.68180 0.48520 0.76060 0.32600
C 	C 	0.76640 0.27050 0.04700 0.51800
C 	C 	0.27170 0.78130 0.95050 -0.18500
C 	C 	0.19560 0.86060 0.98990 0.08600
H 	H 	0.13410 0.89540 0.95300 0.02000
C 	C 	0.21150 0.88730 0.08250 -0.11900
C 	C 	0.29720 0.83240 0.13820 0.04900
H 	H 	0.30590 0.84970 0.20100 0.02700
C 	C 	0.37130 0.75150 0.10300 -0.12600
H 	H 	0.42910 0.71510 0.14140 0.08200
C 	C 	0.35710 0.72650 0.00960 0.07200
H 	H 	0.40530 0.67210 0.98540 0.02900
C 	C 	0.25720 0.75230 0.85210 0.48700
C 	C 	0.13690 0.97650 0.12500 0.30100
Tb	Tb	0.49911 0.34388 0.19639 1.93100
O 	O 	0.27090 0.47190 0.18900 -0.32200
O 	O 	0.43270 0.49330 0.29250 -0.38300
O 	O 	0.15470 0.78860 0.58480 -0.52400
O 	O 	0.34460 0.70350 0.57770 -0.50800
O 	O 	0.65290 0.30410 0.31570 -0.49100
O 	O 	0.84080 0.21490 0.30500 -0.50500
O 	O 	0.97010 0.99360 0.58580 -0.35000
O 	O 	0.81770 0.98080 0.69630 -0.35400
C 	C 	0.23510 0.59240 0.31140 -0.13600
C 	C 	0.27330 0.62470 0.40100 0.09600
H 	H 	0.35230 0.60100 0.42760 0.02200
C 	C 	0.19300 0.69200 0.44950 -0.20100
C 	C 	0.07670 0.72690 0.40990 0.11600
H 	H 	0.02210 0.77120 0.44330 0.00500
C 	C 	0.04040 0.69720 0.32170 -0.15900
H 	H 	0.96220 0.72230 0.29500 0.09300
C 	C 	0.11950 0.63030 0.27210 0.07400
H 	H 	0.09480 0.61070 0.21200 0.02000
C 	C 	0.31820 0.51480 0.26060 0.32800
C 	C 	0.23360 0.72950 0.54700 0.52800
C 	C 	0.72830 0.21870 0.45050 -0.19800
C 	C 	0.80440 0.13940 0.48990 0.08800
H 	H 	0.86590 0.10460 0.45300 0.01900
C 	C 	0.78850 0.11270 0.58250 -0.12100
C 	C 	0.70280 0.16760 0.63820 0.05700
H 	H 	0.69410 0.15030 0.70100 0.02400
C 	C 	0.62870 0.24850 0.60300 -0.14000
H 	H 	0.57090 0.28490 0.64140 0.08800
C 	C 	0.64290 0.27350 0.50960 0.09600
H 	H 	0.59470 0.32790 0.48540 0.01800
C 	C 	0.74280 0.24770 0.35210 0.49100
C 	C 	0.86310 0.02350 0.62500 0.30400
