data_crystal

_cell_length_a 9.01670
_cell_length_b 15.13130
_cell_length_c 16.82840
_cell_angle_alpha 90.00000
_cell_angle_beta  90.00000
_cell_angle_gamma 103.84100

_symmetry_space_group_name_	'P 1'
_symmetry_space_group_name_H-M	'P 1'

loop_
_symmetry_equiv_pos_as_xyz
  x,y,z

loop_
_atom_site_label
_atom_site_type_symbol
_atom_site_fract_x
_atom_site_fract_y
_atom_site_fract_z
_atom_site_charge
Pr	Pr	0.43271 0.03854 0.89087 2.07700
Pr	Pr	0.06729 0.96146 0.39087 2.07600
Pr	Pr	0.56729 0.96146 0.10913 2.07800
Pr	Pr	0.93271 0.03854 0.60913 2.07700
H 	H 	0.99560 0.86150 0.99120 0.14000
H 	H 	0.96690 0.91190 0.06900 0.15400
H 	H 	0.14630 0.78370 0.94670 0.05300
H 	H 	0.24230 0.66560 0.90000 0.08000
H 	H 	0.13460 0.53220 0.10510 0.06300
H 	H 	0.03480 0.64870 0.15100 0.06800
H 	H 	0.15120 0.42050 0.04360 -0.00700
H 	H 	0.65160 0.36570 0.76000 0.09800
H 	H 	0.56820 0.49270 0.79170 0.02200
H 	H 	0.45030 0.26960 0.05310 0.15400
H 	H 	0.28860 0.20180 0.05840 0.14100
H 	H 	0.65210 0.24020 0.72160 0.13300
H 	H 	0.77810 0.22550 0.78120 0.13400
H 	H 	0.50440 0.13850 0.49120 0.11800
H 	H 	0.53310 0.08810 0.56900 0.13600
H 	H 	0.35370 0.21630 0.44670 0.06200
H 	H 	0.25770 0.33440 0.40000 0.07400
H 	H 	0.36540 0.46780 0.60510 0.05700
H 	H 	0.46520 0.35130 0.65100 0.07600
H 	H 	0.34880 0.57950 0.54360 -0.00600
H 	H 	0.84840 0.63430 0.26000 0.10100
H 	H 	0.93180 0.50730 0.29170 0.02000
H 	H 	0.04970 0.73040 0.55310 0.15500
H 	H 	0.21140 0.79820 0.55840 0.14200
H 	H 	0.84790 0.75980 0.22160 0.13400
H 	H 	0.72190 0.77450 0.28120 0.13500
H 	H 	0.00440 0.13850 0.00880 0.14000
H 	H 	0.03310 0.08810 0.93100 0.15400
H 	H 	0.85370 0.21630 0.05330 0.05300
H 	H 	0.75770 0.33440 0.10000 0.08000
H 	H 	0.86540 0.46780 0.89490 0.06300
H 	H 	0.96520 0.35130 0.84900 0.06800
H 	H 	0.84880 0.57950 0.95640 -0.00700
H 	H 	0.34840 0.63430 0.24000 0.09800
H 	H 	0.43180 0.50730 0.20830 0.02200
H 	H 	0.54970 0.73040 0.94690 0.15400
H 	H 	0.71140 0.79820 0.94160 0.14100
H 	H 	0.34790 0.75980 0.27840 0.13300
H 	H 	0.22190 0.77450 0.21880 0.13400
H 	H 	0.49560 0.86150 0.50880 0.11800
H 	H 	0.46690 0.91190 0.43100 0.13600
H 	H 	0.64630 0.78370 0.55330 0.06200
H 	H 	0.74230 0.66560 0.60000 0.07400
H 	H 	0.63460 0.53220 0.39490 0.05700
H 	H 	0.53480 0.64870 0.34900 0.07600
H 	H 	0.65120 0.42050 0.45640 -0.00600
H 	H 	0.15160 0.36570 0.74000 0.10100
H 	H 	0.06820 0.49270 0.70830 0.02000
H 	H 	0.95030 0.26960 0.44690 0.15500
H 	H 	0.78860 0.20180 0.44160 0.14200
H 	H 	0.15210 0.24020 0.77840 0.13400
H 	H 	0.27810 0.22550 0.71880 0.13500
C 	C 	0.19400 0.93770 0.03970 0.44600
C 	C 	0.03280 0.87740 0.04470 -0.29300
C 	C 	0.08290 0.72960 0.05460 0.12800
C 	C 	0.14410 0.73340 0.97890 -0.07100
C 	C 	0.20210 0.66210 0.95110 -0.07700
C 	C 	0.20220 0.58560 0.99690 0.08800
C 	C 	0.13770 0.58240 0.07280 -0.07200
C 	C 	0.07840 0.65280 0.10060 -0.08600
C 	C 	0.37770 0.52050 0.90390 0.21800
C 	C 	0.26640 0.50910 0.96840 -0.14200
C 	C 	0.22320 0.42680 0.00310 0.15800
C 	C 	0.37780 0.35770 0.92480 0.16100
C 	C 	0.43190 0.28010 0.90890 -0.01000
C 	C 	0.53040 0.28310 0.84490 0.15100
C 	C 	0.58280 0.36370 0.80150 -0.18300
C 	C 	0.53230 0.43940 0.82050 0.07400
C 	C 	0.42850 0.43840 0.88170 -0.13500
C 	C 	0.39170 0.20940 0.03820 -0.26900
C 	C 	0.46370 0.13770 0.07370 0.42900
C 	C 	0.67350 0.20170 0.76410 -0.27200
C 	C 	0.65460 0.10590 0.73370 0.48900
C 	C 	0.30600 0.06230 0.53970 0.44900
C 	C 	0.46720 0.12260 0.54470 -0.24600
C 	C 	0.41710 0.27040 0.55460 0.15300
C 	C 	0.35590 0.26660 0.47890 -0.09800
C 	C 	0.29790 0.33790 0.45110 -0.05900
C 	C 	0.29780 0.41440 0.49690 0.07100
C 	C 	0.36230 0.41760 0.57280 -0.05100
C 	C 	0.42160 0.34720 0.60060 -0.10500
C 	C 	0.12230 0.47950 0.40390 0.21800
C 	C 	0.23360 0.49090 0.46840 -0.13700
C 	C 	0.27680 0.57320 0.50310 0.15600
C 	C 	0.12220 0.64230 0.42480 0.16400
C 	C 	0.06810 0.71990 0.40890 -0.01700
C 	C 	0.96960 0.71690 0.34490 0.15800
C 	C 	0.91720 0.63630 0.30150 -0.18800
C 	C 	0.96770 0.56060 0.32050 0.08100
C 	C 	0.07150 0.56160 0.38170 -0.14000
C 	C 	0.10830 0.79060 0.53820 -0.27400
C 	C 	0.03630 0.86230 0.57370 0.42300
C 	C 	0.82650 0.79830 0.26410 -0.27200
C 	C 	0.84540 0.89410 0.23370 0.48900
C 	C 	0.80600 0.06230 0.96030 0.44600
C 	C 	0.96720 0.12260 0.95530 -0.29300
C 	C 	0.91710 0.27040 0.94540 0.12800
C 	C 	0.85590 0.26660 0.02110 -0.07100
C 	C 	0.79790 0.33790 0.04890 -0.07700
C 	C 	0.79780 0.41440 0.00310 0.08800
C 	C 	0.86230 0.41760 0.92720 -0.07200
C 	C 	0.92160 0.34720 0.89940 -0.08600
C 	C 	0.62230 0.47950 0.09610 0.21800
C 	C 	0.73360 0.49090 0.03160 -0.14200
C 	C 	0.77680 0.57320 0.99690 0.15800
C 	C 	0.62220 0.64230 0.07520 0.16100
C 	C 	0.56810 0.71990 0.09110 -0.01000
C 	C 	0.46960 0.71690 0.15510 0.15100
C 	C 	0.41720 0.63630 0.19850 -0.18300
C 	C 	0.46770 0.56060 0.17950 0.07400
C 	C 	0.57150 0.56160 0.11830 -0.13500
C 	C 	0.60830 0.79060 0.96180 -0.26900
C 	C 	0.53630 0.86230 0.92630 0.42900
C 	C 	0.32650 0.79830 0.23590 -0.27200
C 	C 	0.34540 0.89410 0.26630 0.48900
C 	C 	0.69400 0.93770 0.46030 0.44900
C 	C 	0.53280 0.87740 0.45530 -0.24600
C 	C 	0.58290 0.72960 0.44540 0.15300
C 	C 	0.64410 0.73340 0.52110 -0.09800
C 	C 	0.70210 0.66210 0.54890 -0.05900
C 	C 	0.70220 0.58560 0.50310 0.07100
C 	C 	0.63770 0.58240 0.42720 -0.05100
C 	C 	0.57840 0.65280 0.39940 -0.10500
C 	C 	0.87770 0.52050 0.59610 0.21800
C 	C 	0.76640 0.50910 0.53160 -0.13700
C 	C 	0.72320 0.42680 0.49690 0.15600
C 	C 	0.87780 0.35770 0.57520 0.16400
C 	C 	0.93190 0.28010 0.59110 -0.01700
C 	C 	0.03040 0.28310 0.65510 0.15800
C 	C 	0.08280 0.36370 0.69850 -0.18800
C 	C 	0.03230 0.43940 0.67950 0.08100
C 	C 	0.92850 0.43840 0.61830 -0.14000
C 	C 	0.89170 0.20940 0.46180 -0.27400
C 	C 	0.96370 0.13770 0.42630 0.42300
C 	C 	0.17350 0.20170 0.73590 -0.27200
C 	C 	0.15460 0.10590 0.76630 0.48900
O 	O 	0.21820 0.99270 0.98290 -0.49800
O 	O 	0.28670 0.93010 0.09330 -0.46600
O 	O 	0.02210 0.79530 0.08925 -0.14600
O 	O 	0.42960 0.59290 0.86910 -0.23100
O 	O 	0.27460 0.35200 0.98453 -0.23800
O 	O 	0.38800 0.20080 0.95140 -0.21300
O 	O 	0.46300 0.12930 0.14560 -0.38000
O 	O 	0.52210 0.09040 0.02730 -0.61200
O 	O 	0.57210 0.20345 0.82935 -0.26700
O 	O 	0.74800 0.09890 0.68040 -0.50800
O 	O 	0.54820 0.04420 0.75841 -0.49000
O 	O 	0.28180 0.00730 0.48290 -0.50200
O 	O 	0.21330 0.06990 0.59330 -0.46200
O 	O 	0.47790 0.20470 0.58925 -0.15500
O 	O 	0.07040 0.40710 0.36910 -0.23100
O 	O 	0.22540 0.64800 0.48453 -0.23800
O 	O 	0.11200 0.79920 0.45140 -0.20900
O 	O 	0.03700 0.87070 0.64560 -0.38200
O 	O 	0.97790 0.90960 0.52730 -0.61100
O 	O 	0.92790 0.79655 0.32935 -0.26700
O 	O 	0.75200 0.90110 0.18040 -0.50600
O 	O 	0.95180 0.95580 0.25841 -0.48600
O 	O 	0.78180 0.00730 0.01710 -0.49800
O 	O 	0.71330 0.06990 0.90670 -0.46600
O 	O 	0.97790 0.20470 0.91075 -0.14600
O 	O 	0.57040 0.40710 0.13090 -0.23100
O 	O 	0.72540 0.64800 0.01547 -0.23800
O 	O 	0.61200 0.79920 0.04860 -0.21300
O 	O 	0.53700 0.87070 0.85440 -0.38000
O 	O 	0.47790 0.90960 0.97270 -0.61200
O 	O 	0.42790 0.79655 0.17065 -0.26700
O 	O 	0.25200 0.90110 0.31960 -0.50800
O 	O 	0.45180 0.95580 0.24159 -0.49000
O 	O 	0.71820 0.99270 0.51710 -0.50200
O 	O 	0.78670 0.93010 0.40670 -0.46200
O 	O 	0.52210 0.79530 0.41075 -0.15500
O 	O 	0.92960 0.59290 0.63090 -0.23100
O 	O 	0.77460 0.35200 0.51547 -0.23800
O 	O 	0.88800 0.20080 0.54860 -0.20900
O 	O 	0.96300 0.12930 0.35440 -0.38200
O 	O 	0.02210 0.09040 0.47270 -0.61100
O 	O 	0.07210 0.20345 0.67065 -0.26700
O 	O 	0.24800 0.09890 0.81960 -0.50600
O 	O 	0.04820 0.04420 0.74159 -0.48600
