data_crystal

_cell_length_a 8.01000
_cell_length_b 12.17800
_cell_length_c 14.62200
_cell_angle_alpha 90.00000
_cell_angle_beta  90.00000
_cell_angle_gamma 90.00000

_symmetry_space_group_name_	'P 1'
_symmetry_space_group_name_H-M	'P 1'

loop_
_symmetry_equiv_pos_as_xyz
  x,y,z

loop_
_atom_site_label
_atom_site_type_symbol
_atom_site_fract_x
_atom_site_fract_y
_atom_site_fract_z
_atom_site_charge
Ag	Ag	0.93563 0.56852 0.68119 0.54300
Ag	Ag	0.06437 0.43148 0.18119 0.54600
Ag	Ag	0.56437 0.06852 0.68119 0.54400
Ag	Ag	0.43563 0.93148 0.18119 0.54500
H 	H 	0.95980 0.31290 0.38490 0.03300
H 	H 	0.92220 0.66790 0.46970 0.03900
H 	H 	0.96000 0.62280 0.32250 0.03000
H 	H 	0.21940 0.16300 0.58530 0.03500
H 	H 	0.56030 0.33490 0.71160 0.03400
H 	H 	0.38430 0.48370 0.71380 0.02900
H 	H 	0.04020 0.68710 0.88490 0.02600
H 	H 	0.07780 0.33210 0.96970 0.04100
H 	H 	0.04000 0.37720 0.82250 0.02600
H 	H 	0.78060 0.83700 0.08530 0.03600
H 	H 	0.43970 0.66510 0.21160 0.03500
H 	H 	0.61570 0.51630 0.21380 0.03000
H 	H 	0.54020 0.81290 0.38490 0.03300
H 	H 	0.57780 0.16790 0.46970 0.04000
H 	H 	0.54000 0.12280 0.32250 0.03000
H 	H 	0.28060 0.66300 0.58530 0.03400
H 	H 	0.93970 0.83490 0.71160 0.03100
H 	H 	0.11570 0.98370 0.71380 0.03000
H 	H 	0.45980 0.18710 0.88490 0.02500
H 	H 	0.42220 0.83210 0.96970 0.04100
H 	H 	0.46000 0.87720 0.82250 0.02600
H 	H 	0.71940 0.33700 0.08530 0.03600
H 	H 	0.06030 0.16510 0.21160 0.03400
H 	H 	0.88430 0.01630 0.21380 0.03100
C 	C 	0.95440 0.38650 0.40160 0.01200
C 	C 	0.93970 0.41240 0.49000 -0.00500
C 	C 	0.93150 0.59410 0.45430 -0.00100
C 	C 	0.95220 0.56640 0.36520 0.01300
C 	C 	0.14720 0.31790 0.61610 -0.00700
C 	C 	0.25410 0.22760 0.61350 0.01200
C 	C 	0.45390 0.32820 0.68670 0.00400
C 	C 	0.34760 0.41850 0.68750 0.00800
C 	C 	0.04560 0.61350 0.90160 0.02500
C 	C 	0.06030 0.58760 0.99000 -0.03600
C 	C 	0.06850 0.40590 0.95430 -0.02300
C 	C 	0.04780 0.43360 0.86520 0.02200
C 	C 	0.85280 0.68210 0.11610 -0.00900
C 	C 	0.74590 0.77240 0.11350 0.01600
C 	C 	0.54610 0.67180 0.18670 0.00600
C 	C 	0.65240 0.58150 0.18750 0.00900
C 	C 	0.54560 0.88650 0.40160 0.01200
C 	C 	0.56030 0.91240 0.49000 -0.00700
C 	C 	0.56850 0.09410 0.45430 -0.00100
C 	C 	0.54780 0.06640 0.36520 0.01500
C 	C 	0.35280 0.81790 0.61610 -0.00800
C 	C 	0.24590 0.72760 0.61350 0.01300
C 	C 	0.04610 0.82820 0.68670 0.00900
C 	C 	0.15240 0.91850 0.68750 0.00600
C 	C 	0.45440 0.11350 0.90160 0.02500
C 	C 	0.43970 0.08760 0.99000 -0.03700
C 	C 	0.43150 0.90590 0.95430 -0.02300
C 	C 	0.45220 0.93360 0.86520 0.02100
C 	C 	0.64720 0.18210 0.11610 -0.00900
C 	C 	0.75410 0.27240 0.11350 0.01600
C 	C 	0.95390 0.17180 0.18670 0.00800
C 	C 	0.84760 0.08150 0.18750 0.00800
S 	S 	0.94190 0.31040 0.57652 0.28600
S 	S 	0.05810 0.68960 0.07652 0.30600
S 	S 	0.55810 0.81040 0.57652 0.28700
S 	S 	0.44190 0.18960 0.07652 0.30700
N 	N 	0.96180 0.46440 0.33530 -0.15200
N 	N 	0.92390 0.51750 0.52180 -0.13600
N 	N 	0.40730 0.23270 0.65150 -0.15000
N 	N 	0.19440 0.41450 0.65140 -0.12500
N 	N 	0.03820 0.53560 0.83530 -0.15700
N 	N 	0.07610 0.48250 0.02180 -0.11600
N 	N 	0.59270 0.76730 0.15150 -0.15000
N 	N 	0.80560 0.58550 0.15140 -0.12300
N 	N 	0.53820 0.96440 0.33530 -0.15300
N 	N 	0.57610 0.01750 0.52180 -0.13500
N 	N 	0.09270 0.73270 0.65150 -0.15100
N 	N 	0.30560 0.91450 0.65140 -0.12400
N 	N 	0.46180 0.03560 0.83530 -0.15600
N 	N 	0.42390 0.98250 0.02180 -0.11700
N 	N 	0.90730 0.26730 0.15150 -0.15000
N 	N 	0.69440 0.08550 0.15140 -0.12200
O 	O 	0.83780 0.34430 0.65000 -0.27000
O 	O 	0.91690 0.20570 0.53470 -0.23800
O 	O 	0.16220 0.65570 0.15000 -0.27100
O 	O 	0.08310 0.79430 0.03470 -0.23400
O 	O 	0.66220 0.84430 0.65000 -0.27000
O 	O 	0.58310 0.70570 0.53470 -0.23800
O 	O 	0.33780 0.15570 0.15000 -0.27100
O 	O 	0.41690 0.29430 0.03470 -0.23400
