data_crystal

_cell_length_a 17.85000
_cell_length_b 17.85000
_cell_length_c 13.06400
_cell_angle_alpha 90.00000
_cell_angle_beta  90.00000
_cell_angle_gamma 120.00000

_symmetry_space_group_name_	'P 1'
_symmetry_space_group_name_H-M	'P 1'

loop_
_symmetry_equiv_pos_as_xyz
  x,y,z

loop_
_atom_site_label
_atom_site_type_symbol
_atom_site_fract_x
_atom_site_fract_y
_atom_site_fract_z
_atom_site_charge
Cu	Cu	0.58090 0.44520 0.13214 0.90500
Cu	Cu	0.57940 0.44410 0.38840 0.90500
O 	O 	0.64180 0.46610 0.25340 -0.51000
O 	O 	0.55640 0.32170 0.13730 -0.50000
O 	O 	0.49470 0.20000 0.03050 -0.32100
O 	O 	0.43680 0.67460 0.89240 -0.51800
O 	O 	0.51490 0.80500 0.96600 -0.32200
O 	O 	0.42400 0.44620 0.90500 -0.29200
O 	O 	0.57160 0.55600 0.11310 -0.33500
N 	N 	0.50450 0.40470 0.01050 -0.19000
N 	N 	0.50940 0.60200 0.98860 -0.22600
C 	C 	0.50230 0.27080 0.06100 0.28400
C 	C 	0.48900 0.45800 0.99100 0.03500
C 	C 	0.52770 0.54510 0.03960 0.17600
C 	C 	0.47800 0.71400 0.96700 0.31300
C 	C 	0.52080 0.68300 0.03800 -0.11800
H 	H 	0.58110 0.72650 0.05920 0.07700
C 	C 	0.45250 0.65420 0.12030 -0.04100
H 	H 	0.44290 0.70360 0.10840 0.02200
H 	H 	0.49560 0.67530 0.17630 0.05200
C 	C 	0.37700 0.61000 0.19300 -0.15800
H 	H 	0.32530 0.59190 0.14950 0.06600
H 	H 	0.38100 0.65770 0.23640 0.06100
C 	C 	0.28300 0.41600 0.21400 -0.41600
H 	H 	0.30540 0.42320 0.14390 0.15200
H 	H 	0.22180 0.39990 0.21160 0.14400
H 	H 	0.28860 0.37030 0.24840 0.13600
S 	S 	0.32000 0.18170 0.20000 0.04100
C 	C 	0.45250 0.31110 0.00200 -0.07700
H 	H 	0.46560 0.30330 0.93000 0.06100
C 	C 	0.36300 0.24500 0.00700 -0.04500
H 	H 	0.35340 0.22550 0.93510 0.03500
H 	H 	0.33600 0.28210 0.01190 0.05200
C 	C 	0.29190 0.16370 0.05800 -0.12500
H 	H 	0.29260 0.11170 0.03270 0.07000
H 	H 	0.23420 0.15680 0.04490 0.04900
C 	C 	0.23800 0.21900 0.17500 -0.36700
H 	H 	0.26840 0.27980 0.15440 0.12200
H 	H 	0.20450 0.21190 0.23740 0.12300
H 	H 	0.19840 0.18380 0.12000 0.12400
S 	S 	0.34470 0.51790 0.28420 0.06700
Cu	Cu	0.55480 0.13570 0.13214 0.90400
Cu	Cu	0.55590 0.13530 0.38840 0.90500
O 	O 	0.53390 0.17570 0.25340 -0.51100
O 	O 	0.67830 0.23470 0.13730 -0.50100
O 	O 	0.80000 0.29470 0.03050 -0.32200
O 	O 	0.32540 0.76220 0.89240 -0.51800
O 	O 	0.19500 0.70990 0.96600 -0.32200
O 	O 	0.55380 0.97780 0.90500 -0.29000
O 	O 	0.44400 0.01560 0.11310 -0.33100
N 	N 	0.59530 0.09980 0.01050 -0.18800
N 	N 	0.39800 0.90740 0.98860 -0.22300
C 	C 	0.72920 0.23150 0.06100 0.28400
C 	C 	0.54200 0.03100 0.99100 0.03200
C 	C 	0.45490 0.98260 0.03960 0.17000
C 	C 	0.28600 0.76400 0.96700 0.31500
C 	C 	0.31700 0.83780 0.03800 -0.12300
H 	H 	0.27350 0.85460 0.05920 0.07800
C 	C 	0.34580 0.79830 0.12030 -0.04000
H 	H 	0.29640 0.73930 0.10840 0.02100
H 	H 	0.32470 0.82030 0.17630 0.05100
C 	C 	0.39000 0.76700 0.19300 -0.15900
H 	H 	0.40810 0.73340 0.14950 0.06600
H 	H 	0.34230 0.72330 0.23640 0.06100
C 	C 	0.58400 0.86700 0.21400 -0.41600
H 	H 	0.57680 0.88220 0.14390 0.15200
H 	H 	0.60010 0.82190 0.21160 0.14400
H 	H 	0.62970 0.91830 0.24840 0.13600
S 	S 	0.81830 0.13830 0.20000 0.04000
C 	C 	0.68890 0.14140 0.00200 -0.07600
H 	H 	0.69670 0.16230 0.93000 0.05900
C 	C 	0.75500 0.11800 0.00700 -0.03900
H 	H 	0.77450 0.12790 0.93510 0.03200
H 	H 	0.71790 0.05390 0.01190 0.05200
C 	C 	0.83630 0.12820 0.05800 -0.12700
H 	H 	0.88830 0.18090 0.03270 0.07200
H 	H 	0.84320 0.07740 0.04490 0.05100
C 	C 	0.78100 0.01900 0.17500 -0.35400
H 	H 	0.72020 0.98860 0.15440 0.11700
H 	H 	0.78810 0.99260 0.23740 0.11800
H 	H 	0.81620 0.01460 0.12000 0.12100
S 	S 	0.48210 0.82680 0.28420 0.06700
Cu	Cu	0.86430 0.41910 0.13214 0.90400
Cu	Cu	0.86470 0.42060 0.38840 0.90500
O 	O 	0.82430 0.35820 0.25340 -0.51100
O 	O 	0.76530 0.44360 0.13730 -0.50100
O 	O 	0.70530 0.50530 0.03050 -0.32200
O 	O 	0.23780 0.56320 0.89240 -0.51800
O 	O 	0.29010 0.48510 0.96600 -0.32300
O 	O 	0.02220 0.57600 0.90500 -0.29000
O 	O 	0.98440 0.42840 0.11310 -0.33100
N 	N 	0.90020 0.49550 0.01050 -0.18800
N 	N 	0.09260 0.49060 0.98860 -0.22400
C 	C 	0.76850 0.49770 0.06100 0.28400
C 	C 	0.96900 0.51100 0.99100 0.03200
C 	C 	0.01740 0.47230 0.03960 0.17000
C 	C 	0.23600 0.52200 0.96700 0.31400
C 	C 	0.16220 0.47920 0.03800 -0.12100
H 	H 	0.14540 0.41890 0.05920 0.07800
C 	C 	0.20170 0.54750 0.12030 -0.04100
H 	H 	0.26070 0.55710 0.10840 0.02200
H 	H 	0.17970 0.50440 0.17630 0.05200
C 	C 	0.23300 0.62300 0.19300 -0.15800
H 	H 	0.26660 0.67470 0.14950 0.06600
H 	H 	0.27670 0.61900 0.23640 0.06100
C 	C 	0.13300 0.71700 0.21400 -0.41500
H 	H 	0.11780 0.69460 0.14390 0.15100
H 	H 	0.17810 0.77820 0.21160 0.14400
H 	H 	0.08170 0.71140 0.24840 0.13600
S 	S 	0.86170 0.68000 0.20000 0.04000
C 	C 	0.85860 0.54750 0.00200 -0.07600
H 	H 	0.83770 0.53440 0.93000 0.06000
C 	C 	0.88200 0.63700 0.00700 -0.04400
H 	H 	0.87210 0.64660 0.93510 0.03500
H 	H 	0.94610 0.66400 0.01190 0.05300
C 	C 	0.87180 0.70810 0.05800 -0.12500
H 	H 	0.81910 0.70740 0.03270 0.07000
H 	H 	0.92260 0.76580 0.04490 0.04900
C 	C 	0.98100 0.76200 0.17500 -0.35300
H 	H 	0.01140 0.73160 0.15440 0.11600
H 	H 	0.00740 0.79550 0.23740 0.11700
H 	H 	0.98540 0.80160 0.12000 0.12000
S 	S 	0.17320 0.65530 0.28420 0.06700
Cu	Cu	0.41910 0.55480 0.63214 0.90300
Cu	Cu	0.42060 0.55590 0.88840 0.90400
O 	O 	0.35820 0.53390 0.75340 -0.51100
O 	O 	0.44360 0.67830 0.63730 -0.50200
O 	O 	0.50530 0.80000 0.53050 -0.32700
O 	O 	0.56320 0.32540 0.39240 -0.52000
O 	O 	0.48510 0.19500 0.46600 -0.32000
O 	O 	0.57600 0.55380 0.40500 -0.29200
O 	O 	0.42840 0.44400 0.61310 -0.33000
N 	N 	0.49550 0.59530 0.51050 -0.20100
N 	N 	0.49060 0.39800 0.48860 -0.21500
C 	C 	0.49770 0.72920 0.56100 0.28500
C 	C 	0.51100 0.54200 0.49100 0.05900
C 	C 	0.47230 0.45490 0.53960 0.15400
C 	C 	0.52200 0.28600 0.46700 0.32500
C 	C 	0.47920 0.31700 0.53800 -0.13600
H 	H 	0.41890 0.27350 0.55920 0.08000
C 	C 	0.54750 0.34580 0.62030 -0.03700
H 	H 	0.55710 0.29640 0.60840 0.01900
H 	H 	0.50440 0.32470 0.67630 0.05100
C 	C 	0.62300 0.39000 0.69300 -0.16000
H 	H 	0.67470 0.40810 0.64950 0.06600
H 	H 	0.61900 0.34230 0.73640 0.06100
C 	C 	0.71700 0.58400 0.71400 -0.41200
H 	H 	0.69460 0.57680 0.64390 0.14900
H 	H 	0.77820 0.60010 0.71160 0.14200
H 	H 	0.71140 0.62970 0.74840 0.13400
S 	S 	0.68000 0.81830 0.70000 0.03700
C 	C 	0.54750 0.68890 0.50200 -0.08400
H 	H 	0.53440 0.69670 0.43000 0.07000
C 	C 	0.63700 0.75500 0.50700 -0.06300
H 	H 	0.64660 0.77450 0.43510 0.04800
H 	H 	0.66400 0.71790 0.51190 0.05400
C 	C 	0.70810 0.83630 0.55800 -0.11700
H 	H 	0.70740 0.88830 0.53270 0.06500
H 	H 	0.76580 0.84320 0.54490 0.04400
C 	C 	0.76200 0.78100 0.67500 -0.36500
H 	H 	0.73160 0.72020 0.65440 0.12100
H 	H 	0.79550 0.78810 0.73740 0.12100
H 	H 	0.80160 0.81620 0.62000 0.12200
S 	S 	0.65530 0.48210 0.78420 0.06300
Cu	Cu	0.44520 0.86430 0.63214 0.90300
Cu	Cu	0.44410 0.86470 0.88840 0.90400
O 	O 	0.46610 0.82430 0.75340 -0.51100
O 	O 	0.32170 0.76530 0.63730 -0.50200
O 	O 	0.20000 0.70530 0.53050 -0.32700
O 	O 	0.67460 0.23780 0.39240 -0.52000
O 	O 	0.80500 0.29010 0.46600 -0.32000
O 	O 	0.44620 0.02220 0.40500 -0.29200
O 	O 	0.55600 0.98440 0.61310 -0.33000
N 	N 	0.40470 0.90020 0.51050 -0.20100
N 	N 	0.60200 0.09260 0.48860 -0.21500
C 	C 	0.27080 0.76850 0.56100 0.28500
C 	C 	0.45800 0.96900 0.49100 0.05900
C 	C 	0.54510 0.01740 0.53960 0.15400
C 	C 	0.71400 0.23600 0.46700 0.32500
C 	C 	0.68300 0.16220 0.53800 -0.13600
H 	H 	0.72650 0.14540 0.55920 0.08000
C 	C 	0.65420 0.20170 0.62030 -0.03700
H 	H 	0.70360 0.26070 0.60840 0.01900
H 	H 	0.67530 0.17970 0.67630 0.05100
C 	C 	0.61000 0.23300 0.69300 -0.16000
H 	H 	0.59190 0.26660 0.64950 0.06600
H 	H 	0.65770 0.27670 0.73640 0.06100
C 	C 	0.41600 0.13300 0.71400 -0.41200
H 	H 	0.42320 0.11780 0.64390 0.14900
H 	H 	0.39990 0.17810 0.71160 0.14200
H 	H 	0.37030 0.08170 0.74840 0.13400
S 	S 	0.18170 0.86170 0.70000 0.03800
C 	C 	0.31110 0.85860 0.50200 -0.08500
H 	H 	0.30330 0.83770 0.43000 0.07000
C 	C 	0.24500 0.88200 0.50700 -0.06200
H 	H 	0.22550 0.87210 0.43510 0.04700
H 	H 	0.28210 0.94610 0.51190 0.05400
C 	C 	0.16370 0.87180 0.55800 -0.11700
H 	H 	0.11170 0.81910 0.53270 0.06500
H 	H 	0.15680 0.92260 0.54490 0.04500
C 	C 	0.21900 0.98100 0.67500 -0.36000
H 	H 	0.27980 0.01140 0.65440 0.11900
H 	H 	0.21190 0.00740 0.73740 0.11900
H 	H 	0.18380 0.98540 0.62000 0.12100
S 	S 	0.51790 0.17320 0.78420 0.06200
Cu	Cu	0.13570 0.58090 0.63214 0.90300
Cu	Cu	0.13530 0.57940 0.88840 0.90400
O 	O 	0.17570 0.64180 0.75340 -0.51100
O 	O 	0.23470 0.55640 0.63730 -0.50200
O 	O 	0.29470 0.49470 0.53050 -0.32700
O 	O 	0.76220 0.43680 0.39240 -0.52000
O 	O 	0.70990 0.51490 0.46600 -0.32000
O 	O 	0.97780 0.42400 0.40500 -0.29200
O 	O 	0.01560 0.57160 0.61310 -0.33000
N 	N 	0.09980 0.50450 0.51050 -0.20100
N 	N 	0.90740 0.50940 0.48860 -0.21500
C 	C 	0.23150 0.50230 0.56100 0.28500
C 	C 	0.03100 0.48900 0.49100 0.05900
C 	C 	0.98260 0.52770 0.53960 0.15400
C 	C 	0.76400 0.47800 0.46700 0.32500
C 	C 	0.83780 0.52080 0.53800 -0.13600
H 	H 	0.85460 0.58110 0.55920 0.08000
C 	C 	0.79830 0.45250 0.62030 -0.03700
H 	H 	0.73930 0.44290 0.60840 0.01900
H 	H 	0.82030 0.49560 0.67630 0.05100
C 	C 	0.76700 0.37700 0.69300 -0.16000
H 	H 	0.73340 0.32530 0.64950 0.06600
H 	H 	0.72330 0.38100 0.73640 0.06100
C 	C 	0.86700 0.28300 0.71400 -0.41100
H 	H 	0.88220 0.30540 0.64390 0.14900
H 	H 	0.82190 0.22180 0.71160 0.14200
H 	H 	0.91830 0.28860 0.74840 0.13300
S 	S 	0.13830 0.32000 0.70000 0.03700
C 	C 	0.14140 0.45250 0.50200 -0.08400
H 	H 	0.16230 0.46560 0.43000 0.07000
C 	C 	0.11800 0.36300 0.50700 -0.06200
H 	H 	0.12790 0.35340 0.43510 0.04700
H 	H 	0.05390 0.33600 0.51190 0.05400
C 	C 	0.12820 0.29190 0.55800 -0.11700
H 	H 	0.18090 0.29260 0.53270 0.06500
H 	H 	0.07740 0.23420 0.54490 0.04500
C 	C 	0.01900 0.23800 0.67500 -0.36000
H 	H 	0.98860 0.26840 0.65440 0.11900
H 	H 	0.99260 0.20450 0.73740 0.11800
H 	H 	0.01460 0.19840 0.62000 0.12100
S 	S 	0.82680 0.34470 0.78420 0.06200
Ca	Ca	0.66667 0.33333 0.25410 1.51100
Ca	Ca	0.33333 0.66667 0.75410 1.51100
