data_crystal

_cell_length_a 11.43600
_cell_length_b 13.37170
_cell_length_c 18.38600
_cell_angle_alpha 100.38900
_cell_angle_beta  90.00000
_cell_angle_gamma 115.31700

_symmetry_space_group_name_	'P 1'
_symmetry_space_group_name_H-M	'P 1'

loop_
_symmetry_equiv_pos_as_xyz
  x,y,z

loop_
_atom_site_label
_atom_site_type_symbol
_atom_site_fract_x
_atom_site_fract_y
_atom_site_fract_z
_atom_site_charge
Zn	Zn	0.97375 0.39302 0.40319 1.22000
Zn	Zn	0.58073 0.60698 0.09681 1.22000
Zn	Zn	0.02625 0.60698 0.59681 1.22000
Zn	Zn	0.41927 0.39302 0.90319 1.22000
H 	H 	0.15510 0.65160 0.30480 0.00400
H 	H 	0.23350 0.79300 0.23740 0.11800
H 	H 	0.25090 0.01880 0.41840 0.11200
H 	H 	0.16790 0.87580 0.48560 0.00400
H 	H 	0.81440 0.32860 0.13050 0.00400
H 	H 	0.65900 0.20420 0.03680 0.11000
H 	H 	0.58330 0.95700 0.14740 0.11700
H 	H 	0.73350 0.08320 0.24240 0.00900
H 	H 	0.13970 0.29560 0.47750 0.00600
H 	H 	0.33920 0.29360 0.47440 0.07800
H 	H 	0.41410 0.46840 0.31130 0.10100
H 	H 	0.21270 0.46460 0.31790 0.00300
H 	H 	0.49100 0.23840 0.42190 0.07900
H 	H 	0.69730 0.25500 0.42880 -0.00200
H 	H 	0.83190 0.54560 0.37070 -0.00300
H 	H 	0.62890 0.53840 0.36120 0.09500
H 	H 	0.50350 0.34840 0.19520 0.00400
H 	H 	0.44050 0.20700 0.26260 0.11800
H 	H 	0.23210 0.98120 0.08160 0.11100
H 	H 	0.29210 0.12420 0.01440 0.00400
H 	H 	0.48580 0.67140 0.36950 0.00500
H 	H 	0.45480 0.79580 0.46320 0.10900
H 	H 	0.62630 0.04300 0.35260 0.11600
H 	H 	0.65030 0.91680 0.25760 0.01000
H 	H 	0.84410 0.70440 0.02250 0.00700
H 	H 	0.04560 0.70640 0.02560 0.07500
H 	H 	0.94570 0.53160 0.18870 0.10000
H 	H 	0.74810 0.53540 0.18210 0.00300
H 	H 	0.25260 0.76160 0.07810 0.07900
H 	H 	0.44230 0.74500 0.07120 -0.00300
H 	H 	0.28630 0.45440 0.12930 -0.00400
H 	H 	0.09050 0.46160 0.13880 0.09500
H 	H 	0.84490 0.34840 0.69520 0.00400
H 	H 	0.76650 0.20700 0.76260 0.11800
H 	H 	0.74910 0.98120 0.58160 0.11200
H 	H 	0.83210 0.12420 0.51440 0.00400
H 	H 	0.18560 0.67140 0.86950 0.00400
H 	H 	0.34100 0.79580 0.96320 0.11000
H 	H 	0.41670 0.04300 0.85260 0.11700
H 	H 	0.26650 0.91680 0.75760 0.00900
H 	H 	0.86030 0.70440 0.52250 0.00600
H 	H 	0.66080 0.70640 0.52560 0.07800
H 	H 	0.58590 0.53160 0.68870 0.10100
H 	H 	0.78730 0.53540 0.68210 0.00300
H 	H 	0.50900 0.76160 0.57810 0.07900
H 	H 	0.30270 0.74500 0.57120 -0.00200
H 	H 	0.16810 0.45440 0.62930 -0.00300
H 	H 	0.37110 0.46160 0.63880 0.09500
H 	H 	0.49650 0.65160 0.80480 0.00400
H 	H 	0.55950 0.79300 0.73740 0.11800
H 	H 	0.76790 0.01880 0.91840 0.11100
H 	H 	0.70790 0.87580 0.98560 0.00400
H 	H 	0.51420 0.32860 0.63050 0.00500
H 	H 	0.54520 0.20420 0.53680 0.10900
H 	H 	0.37370 0.95700 0.64740 0.11600
H 	H 	0.34970 0.08320 0.74240 0.01000
H 	H 	0.15590 0.29560 0.97750 0.00700
H 	H 	0.95440 0.29360 0.97440 0.07500
H 	H 	0.05430 0.46840 0.81130 0.10000
H 	H 	0.25190 0.46460 0.81790 0.00300
H 	H 	0.74740 0.23840 0.92190 0.07900
H 	H 	0.55770 0.25500 0.92880 -0.00300
H 	H 	0.71370 0.54560 0.87070 -0.00400
H 	H 	0.90950 0.53840 0.86120 0.09500
C 	C 	0.09285 0.65550 0.44393 0.44700
C 	C 	0.15006 0.74872 0.40124 -0.19300
C 	C 	0.17258 0.72516 0.32734 0.12800
C 	C 	0.22048 0.80956 0.28722 -0.20600
C 	C 	0.24948 0.92016 0.32160 0.18400
C 	C 	0.23039 0.94478 0.39543 -0.20500
C 	C 	0.18070 0.85920 0.43571 0.12700
C 	C 	0.88545 0.29990 0.26088 0.34500
C 	C 	0.78943 0.21846 0.19682 -0.15500
C 	C 	0.76703 0.25366 0.13460 0.10500
C 	C 	0.67468 0.17896 0.07810 -0.20100
C 	C 	0.60615 0.06770 0.08287 0.18300
C 	C 	0.62882 0.03224 0.14380 -0.20800
C 	C 	0.71986 0.10832 0.20060 0.11400
C 	C 	0.19574 0.33108 0.44381 0.08000
C 	C 	0.31598 0.32996 0.44250 -0.13300
C 	C 	0.40216 0.38332 0.39323 0.06200
C 	C 	0.36029 0.43318 0.34592 -0.14500
C 	C 	0.23898 0.43056 0.35017 0.08700
C 	C 	0.53462 0.38904 0.39356 0.06100
C 	C 	0.55917 0.30314 0.41220 -0.14100
C 	C 	0.68369 0.31378 0.41630 0.08100
C 	C 	0.76224 0.48368 0.38220 0.09000
C 	C 	0.64021 0.48022 0.37640 -0.14500
C 	C 	0.43735 0.34450 0.05607 0.44700
C 	C 	0.40134 0.25128 0.09876 -0.19200
C 	C 	0.44742 0.27484 0.17266 0.12800
C 	C 	0.41092 0.19044 0.21278 -0.20500
C 	C 	0.32932 0.07984 0.17840 0.18300
C 	C 	0.28561 0.05522 0.10457 -0.20300
C 	C 	0.32150 0.14080 0.06429 0.12600
C 	C 	0.58555 0.70010 0.23912 0.34500
C 	C 	0.57097 0.78154 0.30318 -0.15500
C 	C 	0.51337 0.74634 0.36540 0.10400
C 	C 	0.49572 0.82104 0.42190 -0.20000
C 	C 	0.53845 0.93230 0.41713 0.18200
C 	C 	0.59658 0.96776 0.35620 -0.20600
C 	C 	0.61154 0.89168 0.29940 0.11300
C 	C 	0.86466 0.66892 0.05619 0.07700
C 	C 	0.98602 0.67004 0.05750 -0.12700
C 	C 	0.01884 0.61668 0.10677 0.05700
C 	C 	0.92711 0.56682 0.15408 -0.14100
C 	C 	0.80842 0.56944 0.14983 0.08600
C 	C 	0.14558 0.61096 0.10644 0.06300
C 	C 	0.25603 0.69686 0.08780 -0.14300
C 	C 	0.36991 0.68622 0.08370 0.08200
C 	C 	0.27856 0.51632 0.11780 0.09100
C 	C 	0.15999 0.51978 0.12360 -0.14700
C 	C 	0.90715 0.34450 0.55607 0.44700
C 	C 	0.84994 0.25128 0.59876 -0.19300
C 	C 	0.82742 0.27484 0.67266 0.12800
C 	C 	0.77952 0.19044 0.71278 -0.20600
C 	C 	0.75052 0.07984 0.67840 0.18400
C 	C 	0.76961 0.05522 0.60457 -0.20500
C 	C 	0.81930 0.14080 0.56429 0.12700
C 	C 	0.11455 0.70010 0.73912 0.34500
C 	C 	0.21057 0.78154 0.80318 -0.15500
C 	C 	0.23297 0.74634 0.86540 0.10500
C 	C 	0.32532 0.82104 0.92190 -0.20100
C 	C 	0.39385 0.93230 0.91713 0.18300
C 	C 	0.37118 0.96776 0.85620 -0.20800
C 	C 	0.28014 0.89168 0.79940 0.11400
C 	C 	0.80426 0.66892 0.55619 0.08000
C 	C 	0.68402 0.67004 0.55750 -0.13300
C 	C 	0.59784 0.61668 0.60677 0.06200
C 	C 	0.63971 0.56682 0.65408 -0.14500
C 	C 	0.76102 0.56944 0.64983 0.08700
C 	C 	0.46538 0.61096 0.60644 0.06100
C 	C 	0.44083 0.69686 0.58780 -0.14100
C 	C 	0.31631 0.68622 0.58370 0.08100
C 	C 	0.23776 0.51632 0.61780 0.09000
C 	C 	0.35979 0.51978 0.62360 -0.14500
C 	C 	0.56265 0.65550 0.94393 0.44700
C 	C 	0.59866 0.74872 0.90124 -0.19200
C 	C 	0.55258 0.72516 0.82734 0.12800
C 	C 	0.58908 0.80956 0.78722 -0.20500
C 	C 	0.67068 0.92016 0.82160 0.18300
C 	C 	0.71439 0.94478 0.89543 -0.20300
C 	C 	0.67850 0.85920 0.93571 0.12600
C 	C 	0.41445 0.29990 0.76088 0.34500
C 	C 	0.42903 0.21846 0.69682 -0.15500
C 	C 	0.48663 0.25366 0.63460 0.10400
C 	C 	0.50428 0.17896 0.57810 -0.20000
C 	C 	0.46155 0.06770 0.58287 0.18200
C 	C 	0.40342 0.03224 0.64380 -0.20600
C 	C 	0.38846 0.10832 0.70060 0.11300
C 	C 	0.13534 0.33108 0.94381 0.07700
C 	C 	0.01398 0.32996 0.94250 -0.12700
C 	C 	0.98116 0.38332 0.89323 0.05700
C 	C 	0.07289 0.43318 0.84592 -0.14100
C 	C 	0.19158 0.43056 0.85017 0.08600
C 	C 	0.85442 0.38904 0.89356 0.06300
C 	C 	0.74397 0.30314 0.91220 -0.14300
C 	C 	0.63009 0.31378 0.91630 0.08200
C 	C 	0.72144 0.48368 0.88220 0.09100
C 	C 	0.84001 0.48022 0.87640 -0.14700
N 	N 	0.15665 0.38110 0.39873 -0.23000
N 	N 	0.78642 0.40384 0.40328 -0.23500
N 	N 	0.29675 0.01410 0.28461 -0.10100
N 	N 	0.50714 0.98188 0.02741 -0.10200
N 	N 	0.77555 0.61890 0.10127 -0.22900
N 	N 	0.38258 0.59616 0.09672 -0.23500
N 	N 	0.28265 0.98590 0.21539 -0.10200
N 	N 	0.52526 0.01812 0.47259 -0.10200
N 	N 	0.84335 0.61890 0.60127 -0.23000
N 	N 	0.21358 0.59616 0.59672 -0.23500
N 	N 	0.70325 0.98590 0.71539 -0.10100
N 	N 	0.49286 0.01812 0.97259 -0.10200
N 	N 	0.22445 0.38110 0.89873 -0.22900
N 	N 	0.61742 0.40384 0.90328 -0.23500
N 	N 	0.71735 0.01410 0.78461 -0.10200
N 	N 	0.47474 0.98188 0.52741 -0.10200
O 	O 	0.07663 0.55946 0.41201 -0.50200
O 	O 	0.95442 0.39764 0.25520 -0.33000
O 	O 	0.88515 0.26084 0.31911 -0.42900
O 	O 	0.06548 0.68140 0.50884 -0.48700
O 	O 	0.51717 0.44054 0.08799 -0.50200
O 	O 	0.55678 0.60236 0.24480 -0.33000
O 	O 	0.62431 0.73916 0.18089 -0.42800
O 	O 	0.38408 0.31860 0.99116 -0.48700
O 	O 	0.92337 0.44054 0.58799 -0.50200
O 	O 	0.04558 0.60236 0.74480 -0.33000
O 	O 	0.11485 0.73916 0.68089 -0.42900
O 	O 	0.93452 0.31860 0.49116 -0.48700
O 	O 	0.48283 0.55946 0.91201 -0.50200
O 	O 	0.44322 0.39764 0.75520 -0.33000
O 	O 	0.37569 0.26084 0.81911 -0.42800
O 	O 	0.61592 0.68140 0.00884 -0.48700
