data_crystal

_cell_length_a 26.32050
_cell_length_b 12.27480
_cell_length_c 19.60850
_cell_angle_alpha 90.00000
_cell_angle_beta  122.97200
_cell_angle_gamma 90.00000

_symmetry_space_group_name_	'P 1'
_symmetry_space_group_name_H-M	'P 1'

loop_
_symmetry_equiv_pos_as_xyz
  x,y,z

loop_
_atom_site_label
_atom_site_type_symbol
_atom_site_fract_x
_atom_site_fract_y
_atom_site_fract_z
_atom_site_charge
Er	Er	0.99936 0.52458 0.12599 1.70100
O 	O 	0.06098 0.42300 0.10300 -0.57800
O 	O 	0.04844 0.37250 0.98790 -0.60700
O 	O 	0.40078 0.05970 0.25120 -0.45800
O 	O 	0.42225 0.14380 0.36210 -0.43700
O 	O 	0.99010 0.67480 0.18730 -0.55000
O 	O 	0.01210 0.37960 0.20490 -0.59700
S 	S 	0.18090 0.35310 0.21680 -0.13900
S 	S 	0.31200 0.25340 0.30990 -0.11400
S 	S 	0.00560 0.90430 0.17590 -0.12800
S 	S 	0.01010 0.15740 0.18430 -0.06200
C 	C 	0.07740 0.37670 0.06210 0.67200
C 	C 	0.38580 0.12370 0.28730 0.49000
C 	C 	0.13690 0.32400 0.10930 -0.54100
C 	C 	0.16790 0.25960 0.08740 0.58200
C 	C 	0.22720 0.22810 0.14750 -0.36800
C 	C 	0.23860 0.27420 0.22180 -0.20200
C 	C 	0.32640 0.17180 0.24710 -0.49300
C 	C 	0.27900 0.16840 0.16800 0.60800
C 	C 	0.14410 0.22250 0.00590 -0.61500
H 	H 	0.12230 0.15570 0.99680 0.20000
H 	H 	0.17680 0.21020 0.99860 0.19800
H 	H 	0.11730 0.27660 0.96800 0.22800
C 	C 	0.27820 0.10830 0.10590 -0.67400
H 	H 	0.29530 0.15160 0.08240 0.23100
H 	H 	0.23720 0.08960 0.06460 0.21200
H 	H 	0.30160 0.04300 0.12850 0.23300
C 	C 	0.99390 0.91700 0.29840 0.43600
C 	C 	0.99600 0.02900 0.28600 -0.07800
C 	C 	0.00300 0.02800 0.21900 -0.12700
C 	C 	0.99600 0.14000 0.30200 0.37800
C 	C 	0.98740 0.88550 0.36770 -0.67200
H 	H 	0.98810 0.80740 0.37150 0.25600
H 	H 	0.94950 0.91240 0.35700 0.21600
H 	H 	0.01990 0.91540 0.41800 0.20300
C 	C 	0.98750 0.15850 0.37200 -0.71900
H 	H 	0.02100 0.12710 0.42070 0.20900
H 	H 	0.95040 0.12630 0.36080 0.22700
H 	H 	0.98640 0.23560 0.37930 0.24100
S 	S 	0.15370 0.24960 0.04250 -0.20900
S 	S 	0.28190 0.14380 0.13640 -0.22000
C 	C 	0.18200 0.32900 0.19300 0.47500
C 	C 	0.29900 0.23400 0.27900 0.43600
C 	C 	0.17550 0.38800 0.25500 -0.67300
H 	H 	0.18750 0.46250 0.25820 0.23600
H 	H 	0.20090 0.35390 0.30720 0.20200
H 	H 	0.13410 0.38510 0.23980 0.25000
C 	C 	0.31620 0.27600 0.36000 -0.64000
H 	H 	0.33850 0.22090 0.40100 0.20100
H 	H 	0.28020 0.29370 0.35920 0.19000
H 	H 	0.34080 0.33970 0.37340 0.20800
Er	Er	0.49936 0.02458 0.12599 1.68400
O 	O 	0.56098 0.92300 0.10300 -0.57400
O 	O 	0.54844 0.87250 0.98790 -0.60600
O 	O 	0.90078 0.55970 0.25120 -0.45500
O 	O 	0.92225 0.64380 0.36210 -0.43300
O 	O 	0.49010 0.17480 0.18730 -0.55500
O 	O 	0.51210 0.87960 0.20490 -0.59500
S 	S 	0.68090 0.85310 0.21680 -0.14000
S 	S 	0.81200 0.75340 0.30990 -0.11400
S 	S 	0.50560 0.40430 0.17590 -0.12300
S 	S 	0.51010 0.65740 0.18430 -0.06000
C 	C 	0.57740 0.87670 0.06210 0.67100
C 	C 	0.88580 0.62370 0.28730 0.49000
C 	C 	0.63690 0.82400 0.10930 -0.54400
C 	C 	0.66790 0.75960 0.08740 0.59300
C 	C 	0.72720 0.72810 0.14750 -0.37200
C 	C 	0.73860 0.77420 0.22180 -0.20200
C 	C 	0.82640 0.67180 0.24710 -0.49400
C 	C 	0.77900 0.66840 0.16800 0.61100
C 	C 	0.64410 0.72250 0.00590 -0.62700
H 	H 	0.62230 0.65570 0.99680 0.20500
H 	H 	0.67680 0.71020 0.99860 0.20300
H 	H 	0.61730 0.77660 0.96800 0.23400
C 	C 	0.77820 0.60830 0.10590 -0.67600
H 	H 	0.79530 0.65160 0.08240 0.23200
H 	H 	0.73720 0.58960 0.06460 0.21300
H 	H 	0.80160 0.54300 0.12850 0.23400
C 	C 	0.49390 0.41700 0.29840 0.44200
C 	C 	0.49600 0.52900 0.28600 -0.08300
C 	C 	0.50300 0.52800 0.21900 -0.12200
C 	C 	0.49600 0.64000 0.30200 0.38500
C 	C 	0.48740 0.38550 0.36770 -0.68800
H 	H 	0.48810 0.30740 0.37150 0.25800
H 	H 	0.44950 0.41240 0.35700 0.21900
H 	H 	0.51990 0.41540 0.41800 0.21200
C 	C 	0.48750 0.65850 0.37200 -0.74100
H 	H 	0.52100 0.62710 0.42070 0.22000
H 	H 	0.45040 0.62630 0.36080 0.23300
H 	H 	0.48640 0.73560 0.37930 0.24500
S 	S 	0.65370 0.74960 0.04250 -0.21600
S 	S 	0.78190 0.64380 0.13640 -0.22000
C 	C 	0.68200 0.82900 0.19300 0.47700
C 	C 	0.79900 0.73400 0.27900 0.43700
C 	C 	0.67550 0.88800 0.25500 -0.67500
H 	H 	0.68750 0.96250 0.25820 0.23700
H 	H 	0.70090 0.85390 0.30720 0.20300
H 	H 	0.63410 0.88510 0.23980 0.25100
C 	C 	0.81620 0.77600 0.36000 -0.64100
H 	H 	0.83850 0.72090 0.40100 0.20200
H 	H 	0.78020 0.79370 0.35920 0.19000
H 	H 	0.84080 0.83970 0.37340 0.20900
Er	Er	0.00064 0.52458 0.37401 1.67200
O 	O 	0.93902 0.42300 0.39700 -0.57100
O 	O 	0.95156 0.37250 0.51210 -0.60400
O 	O 	0.59922 0.05970 0.24880 -0.45800
O 	O 	0.57775 0.14380 0.13790 -0.43700
O 	O 	0.00990 0.67480 0.31270 -0.55500
O 	O 	0.98790 0.37960 0.29510 -0.58600
S 	S 	0.81910 0.35310 0.28320 -0.13900
S 	S 	0.68800 0.25340 0.19010 -0.11300
S 	S 	0.99440 0.90430 0.32410 -0.11500
S 	S 	0.98990 0.15740 0.31570 -0.05200
C 	C 	0.92260 0.37670 0.43790 0.66900
C 	C 	0.61420 0.12370 0.21270 0.49000
C 	C 	0.86310 0.32400 0.39070 -0.54400
C 	C 	0.83210 0.25960 0.41260 0.59400
C 	C 	0.77280 0.22810 0.35250 -0.37300
C 	C 	0.76140 0.27420 0.27820 -0.20100
C 	C 	0.67360 0.17180 0.25290 -0.49500
C 	C 	0.72100 0.16840 0.33200 0.61100
C 	C 	0.85590 0.22250 0.49410 -0.62800
H 	H 	0.87770 0.15570 0.50320 0.20600
H 	H 	0.82320 0.21020 0.50140 0.20400
H 	H 	0.88270 0.27660 0.53200 0.23400
C 	C 	0.72180 0.10830 0.39410 -0.67800
H 	H 	0.70470 0.15160 0.41760 0.23200
H 	H 	0.76280 0.08960 0.43540 0.21400
H 	H 	0.69840 0.04300 0.37150 0.23400
C 	C 	0.00610 0.91700 0.20160 0.45500
C 	C 	0.00400 0.02900 0.21400 -0.09000
C 	C 	0.99700 0.02800 0.28100 -0.11900
C 	C 	0.00400 0.14000 0.19800 0.39500
C 	C 	0.01260 0.88550 0.13230 -0.71100
H 	H 	0.01190 0.80740 0.12850 0.26300
H 	H 	0.05050 0.91240 0.14300 0.22600
H 	H 	0.98010 0.91540 0.08200 0.22300
C 	C 	0.01250 0.15850 0.12800 -0.76200
H 	H 	0.97900 0.12710 0.07930 0.22900
H 	H 	0.04960 0.12630 0.13920 0.23800
H 	H 	0.01360 0.23560 0.12070 0.25000
S 	S 	0.84630 0.24960 0.45750 -0.21600
S 	S 	0.71810 0.14380 0.36360 -0.22000
C 	C 	0.81800 0.32900 0.30700 0.47600
C 	C 	0.70100 0.23400 0.22100 0.43500
C 	C 	0.82450 0.38800 0.24500 -0.67400
H 	H 	0.81250 0.46250 0.24180 0.23600
H 	H 	0.79910 0.35390 0.19280 0.20200
H 	H 	0.86590 0.38510 0.26020 0.25100
C 	C 	0.68380 0.27600 0.14000 -0.64000
H 	H 	0.66150 0.22090 0.09900 0.20000
H 	H 	0.71980 0.29370 0.14080 0.18900
H 	H 	0.65920 0.33970 0.12660 0.20700
Er	Er	0.50064 0.02458 0.37401 1.68600
O 	O 	0.43902 0.92300 0.39700 -0.57400
O 	O 	0.45156 0.87250 0.51210 -0.60500
O 	O 	0.09922 0.55970 0.24880 -0.46000
O 	O 	0.07775 0.64380 0.13790 -0.43900
O 	O 	0.50990 0.17480 0.31270 -0.55500
O 	O 	0.48790 0.87960 0.29510 -0.59500
S 	S 	0.31910 0.85310 0.28320 -0.14000
S 	S 	0.18800 0.75340 0.19010 -0.11400
S 	S 	0.49440 0.40430 0.32410 -0.12300
S 	S 	0.48990 0.65740 0.31570 -0.06000
C 	C 	0.42260 0.87670 0.43790 0.67000
C 	C 	0.11420 0.62370 0.21270 0.49100
C 	C 	0.36310 0.82400 0.39070 -0.54400
C 	C 	0.33210 0.75960 0.41260 0.59300
C 	C 	0.27280 0.72810 0.35250 -0.37200
C 	C 	0.26140 0.77420 0.27820 -0.20200
C 	C 	0.17360 0.67180 0.25290 -0.49500
C 	C 	0.22100 0.66840 0.33200 0.61200
C 	C 	0.35590 0.72250 0.49410 -0.62700
H 	H 	0.37770 0.65570 0.50320 0.20500
H 	H 	0.32320 0.71020 0.50140 0.20300
H 	H 	0.38270 0.77660 0.53200 0.23400
C 	C 	0.22180 0.60830 0.39410 -0.67800
H 	H 	0.20470 0.65160 0.41760 0.23200
H 	H 	0.26280 0.58960 0.43540 0.21300
H 	H 	0.19840 0.54300 0.37150 0.23400
C 	C 	0.50610 0.41700 0.20160 0.44200
C 	C 	0.50400 0.52900 0.21400 -0.08300
C 	C 	0.49700 0.52800 0.28100 -0.12200
C 	C 	0.50400 0.64000 0.19800 0.38600
C 	C 	0.51260 0.38550 0.13230 -0.68800
H 	H 	0.51190 0.30740 0.12850 0.25800
H 	H 	0.55050 0.41240 0.14300 0.21900
H 	H 	0.48010 0.41540 0.08200 0.21200
C 	C 	0.51250 0.65850 0.12800 -0.74200
H 	H 	0.47900 0.62710 0.07930 0.22000
H 	H 	0.54960 0.62630 0.13920 0.23300
H 	H 	0.51360 0.73560 0.12070 0.24600
S 	S 	0.34630 0.74960 0.45750 -0.21600
S 	S 	0.21810 0.64380 0.36360 -0.22000
C 	C 	0.31800 0.82900 0.30700 0.47700
C 	C 	0.20100 0.73400 0.22100 0.43700
C 	C 	0.32450 0.88800 0.24500 -0.67500
H 	H 	0.31250 0.96250 0.24180 0.23700
H 	H 	0.29910 0.85390 0.19280 0.20300
H 	H 	0.36590 0.88510 0.26020 0.25100
C 	C 	0.18380 0.77600 0.14000 -0.64200
H 	H 	0.16150 0.72090 0.09900 0.20200
H 	H 	0.21980 0.79370 0.14080 0.19000
H 	H 	0.15920 0.83970 0.12660 0.20900
Er	Er	0.00064 0.47542 0.87401 1.66200
O 	O 	0.93902 0.57700 0.89700 -0.56900
O 	O 	0.95156 0.62750 0.01210 -0.60600
O 	O 	0.59922 0.94030 0.74880 -0.45800
O 	O 	0.57775 0.85620 0.63790 -0.43700
O 	O 	0.00990 0.32520 0.81270 -0.55400
O 	O 	0.98790 0.62040 0.79510 -0.58100
S 	S 	0.81910 0.64690 0.78320 -0.14000
S 	S 	0.68800 0.74660 0.69010 -0.11400
S 	S 	0.99440 0.09570 0.82410 -0.11100
S 	S 	0.98990 0.84260 0.81570 -0.04800
C 	C 	0.92260 0.62330 0.93790 0.67100
C 	C 	0.61420 0.87630 0.71270 0.49000
C 	C 	0.86310 0.67600 0.89070 -0.54100
C 	C 	0.83210 0.74040 0.91260 0.58600
C 	C 	0.77280 0.77190 0.85250 -0.36900
C 	C 	0.76140 0.72580 0.77820 -0.20200
C 	C 	0.67360 0.82820 0.75290 -0.49400
C 	C 	0.72100 0.83160 0.83200 0.60900
C 	C 	0.85590 0.77750 0.99410 -0.61900
H 	H 	0.87770 0.84430 0.00320 0.20200
H 	H 	0.82320 0.78980 0.00140 0.20000
H 	H 	0.88270 0.72340 0.03200 0.23000
C 	C 	0.72180 0.89170 0.89410 -0.67500
H 	H 	0.70470 0.84840 0.91760 0.23100
H 	H 	0.76280 0.91040 0.93540 0.21300
H 	H 	0.69840 0.95700 0.87150 0.23300
C 	C 	0.00610 0.08300 0.70160 0.46300
C 	C 	0.00400 0.97100 0.71400 -0.09400
C 	C 	0.99700 0.97200 0.78100 -0.11700
C 	C 	0.00400 0.86000 0.69800 0.40500
C 	C 	0.01260 0.11450 0.63230 -0.72500
H 	H 	0.01190 0.19260 0.62850 0.26600
H 	H 	0.05050 0.08760 0.64300 0.22900
H 	H 	0.98010 0.08460 0.58200 0.23000
C 	C 	0.01250 0.84150 0.62800 -0.78300
H 	H 	0.97900 0.87290 0.57930 0.23900
H 	H 	0.04960 0.87370 0.63920 0.24400
H 	H 	0.01360 0.76440 0.62070 0.25600
S 	S 	0.84630 0.75040 0.95750 -0.21100
S 	S 	0.71810 0.85620 0.86360 -0.22000
C 	C 	0.81800 0.67100 0.80700 0.47600
C 	C 	0.70100 0.76600 0.72100 0.43600
C 	C 	0.82450 0.61200 0.74500 -0.67400
H 	H 	0.81250 0.53750 0.74180 0.23600
H 	H 	0.79910 0.64610 0.69280 0.20300
H 	H 	0.86590 0.61490 0.76020 0.25100
C 	C 	0.68380 0.72400 0.64000 -0.64100
H 	H 	0.66150 0.77910 0.59900 0.20100
H 	H 	0.71980 0.70630 0.64080 0.19000
H 	H 	0.65920 0.66030 0.62660 0.20800
Er	Er	0.50064 0.97542 0.87401 1.68400
O 	O 	0.43902 0.07700 0.89700 -0.57400
O 	O 	0.45156 0.12750 0.01210 -0.60600
O 	O 	0.09922 0.44030 0.74880 -0.46200
O 	O 	0.07775 0.35620 0.63790 -0.44200
O 	O 	0.50990 0.82520 0.81270 -0.55500
O 	O 	0.48790 0.12040 0.79510 -0.59500
S 	S 	0.31910 0.14690 0.78320 -0.14000
S 	S 	0.18800 0.24660 0.69010 -0.11300
S 	S 	0.49440 0.59570 0.82410 -0.12300
S 	S 	0.48990 0.34260 0.81570 -0.06000
C 	C 	0.42260 0.12330 0.93790 0.67100
C 	C 	0.11420 0.37630 0.71270 0.49100
C 	C 	0.36310 0.17600 0.89070 -0.54500
C 	C 	0.33210 0.24040 0.91260 0.59400
C 	C 	0.27280 0.27190 0.85250 -0.37300
C 	C 	0.26140 0.22580 0.77820 -0.20100
C 	C 	0.17360 0.32820 0.75290 -0.49500
C 	C 	0.22100 0.33160 0.83200 0.61100
C 	C 	0.35590 0.27750 0.99410 -0.62900
H 	H 	0.37770 0.34430 0.00320 0.20600
H 	H 	0.32320 0.28980 0.00140 0.20400
H 	H 	0.38270 0.22340 0.03200 0.23400
C 	C 	0.22180 0.39170 0.89410 -0.67700
H 	H 	0.20470 0.34840 0.91760 0.23200
H 	H 	0.26280 0.41040 0.93540 0.21300
H 	H 	0.19840 0.45700 0.87150 0.23400
C 	C 	0.50610 0.58300 0.70160 0.44200
C 	C 	0.50400 0.47100 0.71400 -0.08300
C 	C 	0.49700 0.47200 0.78100 -0.12200
C 	C 	0.50400 0.36000 0.69800 0.38500
C 	C 	0.51260 0.61450 0.63230 -0.68800
H 	H 	0.51190 0.69260 0.62850 0.25800
H 	H 	0.55050 0.58760 0.64300 0.21900
H 	H 	0.48010 0.58460 0.58200 0.21200
C 	C 	0.51250 0.34150 0.62800 -0.74100
H 	H 	0.47900 0.37290 0.57930 0.22000
H 	H 	0.54960 0.37370 0.63920 0.23300
H 	H 	0.51360 0.26440 0.62070 0.24500
S 	S 	0.34630 0.25040 0.95750 -0.21700
S 	S 	0.21810 0.35620 0.86360 -0.22000
C 	C 	0.31800 0.17100 0.80700 0.47700
C 	C 	0.20100 0.26600 0.72100 0.43500
C 	C 	0.32450 0.11200 0.74500 -0.67500
H 	H 	0.31250 0.03750 0.74180 0.23700
H 	H 	0.29910 0.14610 0.69280 0.20300
H 	H 	0.36590 0.11490 0.76020 0.25100
C 	C 	0.18380 0.22400 0.64000 -0.64000
H 	H 	0.16150 0.27910 0.59900 0.20100
H 	H 	0.21980 0.20630 0.64080 0.19000
H 	H 	0.15920 0.16030 0.62660 0.20700
Er	Er	0.99936 0.47542 0.62599 1.70900
O 	O 	0.06098 0.57700 0.60300 -0.58000
O 	O 	0.04844 0.62750 0.48790 -0.60600
O 	O 	0.40078 0.94030 0.75120 -0.45800
O 	O 	0.42225 0.85620 0.86210 -0.43700
O 	O 	0.99010 0.32520 0.68730 -0.54600
O 	O 	0.01210 0.62040 0.70490 -0.59900
S 	S 	0.18090 0.64690 0.71680 -0.13900
S 	S 	0.31200 0.74660 0.80990 -0.11300
S 	S 	0.00560 0.09570 0.67590 -0.13000
S 	S 	0.01010 0.84260 0.68430 -0.06500
C 	C 	0.07740 0.62330 0.56210 0.67000
C 	C 	0.38580 0.87630 0.78730 0.49000
C 	C 	0.13690 0.67600 0.60930 -0.54400
C 	C 	0.16790 0.74040 0.58740 0.59300
C 	C 	0.22720 0.77190 0.64750 -0.37200
C 	C 	0.23860 0.72580 0.72180 -0.20100
C 	C 	0.32640 0.82820 0.74710 -0.49400
C 	C 	0.27900 0.83160 0.66800 0.61100
C 	C 	0.14410 0.77750 0.50590 -0.62700
H 	H 	0.12230 0.84430 0.49680 0.20500
H 	H 	0.17680 0.78980 0.49860 0.20300
H 	H 	0.11730 0.72340 0.46800 0.23400
C 	C 	0.27820 0.89170 0.60590 -0.67700
H 	H 	0.29530 0.84840 0.58240 0.23200
H 	H 	0.23720 0.91040 0.56460 0.21300
H 	H 	0.30160 0.95700 0.62850 0.23400
C 	C 	0.99390 0.08300 0.79840 0.43400
C 	C 	0.99600 0.97100 0.78600 -0.07400
C 	C 	0.00300 0.97200 0.71900 -0.13000
C 	C 	0.99600 0.86000 0.80200 0.37400
C 	C 	0.98740 0.11450 0.86770 -0.66600
H 	H 	0.98810 0.19260 0.87150 0.25600
H 	H 	0.94950 0.08760 0.85700 0.21400
H 	H 	0.01990 0.08460 0.91800 0.19900
C 	C 	0.98750 0.84150 0.87200 -0.70700
H 	H 	0.02100 0.87290 0.92070 0.20100
H 	H 	0.95040 0.87370 0.86080 0.22300
H 	H 	0.98640 0.76440 0.87930 0.23800
S 	S 	0.15370 0.75040 0.54250 -0.21600
S 	S 	0.28190 0.85620 0.63640 -0.22000
C 	C 	0.18200 0.67100 0.69300 0.47500
C 	C 	0.29900 0.76600 0.77900 0.43500
C 	C 	0.17550 0.61200 0.75500 -0.67300
H 	H 	0.18750 0.53750 0.75820 0.23600
H 	H 	0.20090 0.64610 0.80720 0.20200
H 	H 	0.13410 0.61490 0.73980 0.24900
C 	C 	0.31620 0.72400 0.86000 -0.63900
H 	H 	0.33850 0.77910 0.90100 0.20000
H 	H 	0.28020 0.70630 0.85920 0.18900
H 	H 	0.34080 0.66030 0.87340 0.20700
Er	Er	0.49936 0.97542 0.62599 1.68600
O 	O 	0.56098 0.07700 0.60300 -0.57400
O 	O 	0.54844 0.12750 0.48790 -0.60500
O 	O 	0.90078 0.44030 0.75120 -0.45400
O 	O 	0.92225 0.35620 0.86210 -0.43100
O 	O 	0.49010 0.82520 0.68730 -0.55500
O 	O 	0.51210 0.12040 0.70490 -0.59500
S 	S 	0.68090 0.14690 0.71680 -0.14000
S 	S 	0.81200 0.24660 0.80990 -0.11500
S 	S 	0.50560 0.59570 0.67590 -0.12300
S 	S 	0.51010 0.34260 0.68430 -0.06000
C 	C 	0.57740 0.12330 0.56210 0.67000
C 	C 	0.88580 0.37630 0.78730 0.49000
C 	C 	0.63690 0.17600 0.60930 -0.54400
C 	C 	0.66790 0.24040 0.58740 0.59300
C 	C 	0.72720 0.27190 0.64750 -0.37200
C 	C 	0.73860 0.22580 0.72180 -0.20200
C 	C 	0.82640 0.32820 0.74710 -0.49400
C 	C 	0.77900 0.33160 0.66800 0.61100
C 	C 	0.64410 0.27750 0.50590 -0.62700
H 	H 	0.62230 0.34430 0.49680 0.20500
H 	H 	0.67680 0.28980 0.49860 0.20300
H 	H 	0.61730 0.22340 0.46800 0.23400
C 	C 	0.77820 0.39170 0.60590 -0.67700
H 	H 	0.79530 0.34840 0.58240 0.23200
H 	H 	0.73720 0.41040 0.56460 0.21300
H 	H 	0.80160 0.45700 0.62850 0.23400
C 	C 	0.49390 0.58300 0.79840 0.44200
C 	C 	0.49600 0.47100 0.78600 -0.08300
C 	C 	0.50300 0.47200 0.71900 -0.12200
C 	C 	0.49600 0.36000 0.80200 0.38600
C 	C 	0.48740 0.61450 0.86770 -0.68800
H 	H 	0.48810 0.69260 0.87150 0.25800
H 	H 	0.44950 0.58760 0.85700 0.21900
H 	H 	0.51990 0.58460 0.91800 0.21200
C 	C 	0.48750 0.34150 0.87200 -0.74100
H 	H 	0.52100 0.37290 0.92070 0.22000
H 	H 	0.45040 0.37370 0.86080 0.23300
H 	H 	0.48640 0.26440 0.87930 0.24500
S 	S 	0.65370 0.25040 0.54250 -0.21600
S 	S 	0.78190 0.35620 0.63640 -0.22000
C 	C 	0.68200 0.17100 0.69300 0.47700
C 	C 	0.79900 0.26600 0.77900 0.43800
C 	C 	0.67550 0.11200 0.75500 -0.67500
H 	H 	0.68750 0.03750 0.75820 0.23700
H 	H 	0.70090 0.14610 0.80720 0.20300
H 	H 	0.63410 0.11490 0.73980 0.25100
C 	C 	0.81620 0.22400 0.86000 -0.64300
H 	H 	0.83850 0.27910 0.90100 0.20300
H 	H 	0.78020 0.20630 0.85920 0.19100
H 	H 	0.84080 0.16030 0.87340 0.21000
C 	C 	-0.00000 0.72170 0.25000 0.60800
C 	C 	0.00000 0.33320 0.25000 0.62100
C 	C 	-0.00000 0.84160 0.25000 -0.45700
C 	C 	-0.00000 0.21320 0.25000 -0.44600
C 	C 	0.50000 0.22170 0.25000 0.61200
C 	C 	0.50000 0.83320 0.25000 0.62700
C 	C 	0.50000 0.34160 0.25000 -0.45100
C 	C 	0.50000 0.71320 0.25000 -0.44200
C 	C 	-0.00000 0.27830 0.75000 0.60400
C 	C 	-0.00000 0.66680 0.75000 0.61700
C 	C 	-0.00000 0.15840 0.75000 -0.46100
C 	C 	-0.00000 0.78680 0.75000 -0.45100
C 	C 	0.50000 0.77830 0.75000 0.61200
C 	C 	0.50000 0.16680 0.75000 0.62700
C 	C 	0.50000 0.65840 0.75000 -0.45100
C 	C 	0.50000 0.28680 0.75000 -0.44200
