data_crystal

_cell_length_a 11.17400
_cell_length_b 12.83650
_cell_length_c 12.83650
_cell_angle_alpha 117.85200
_cell_angle_beta  96.11970
_cell_angle_gamma 83.88030

_symmetry_space_group_name_	'P 1'
_symmetry_space_group_name_H-M	'P 1'

loop_
_symmetry_equiv_pos_as_xyz
  x,y,z

loop_
_atom_site_label
_atom_site_type_symbol
_atom_site_fract_x
_atom_site_fract_y
_atom_site_fract_z
_atom_site_charge
Zn	Zn	0.86561 0.49841 0.97321 1.22000
Zn	Zn	0.63439 0.97321 0.49841 1.22000
Zn	Zn	0.13439 0.50159 0.02679 1.22000
Zn	Zn	0.36561 0.02679 0.50159 1.22000
H 	H 	0.76510 0.79670 0.30950 0.01400
H 	H 	0.11090 0.74620 0.39780 0.02000
H 	H 	0.08110 0.88920 0.58900 0.09900
H 	H 	0.18070 0.80360 0.96160 0.02100
H 	H 	0.84670 0.74080 0.82740 -0.00500
H 	H 	0.85030 0.87980 0.76380 0.11800
H 	H 	0.73490 0.30950 0.79670 0.01400
H 	H 	0.38910 0.39780 0.74620 0.02000
H 	H 	0.41890 0.58900 0.88920 0.10000
H 	H 	0.31930 0.96160 0.80360 0.02100
H 	H 	0.65330 0.82740 0.74080 -0.00500
H 	H 	0.64970 0.76380 0.87980 0.11600
H 	H 	0.23490 0.20330 0.69050 0.01400
H 	H 	0.88910 0.25380 0.60220 0.02000
H 	H 	0.91890 0.11080 0.41100 0.09900
H 	H 	0.81930 0.19640 0.03840 0.02100
H 	H 	0.15330 0.25920 0.17260 -0.00500
H 	H 	0.14970 0.12020 0.23620 0.11800
H 	H 	0.26510 0.69050 0.20330 0.01400
H 	H 	0.61090 0.60220 0.25380 0.02000
H 	H 	0.58110 0.41100 0.11080 0.10000
H 	H 	0.68070 0.03840 0.19640 0.02100
H 	H 	0.34670 0.17260 0.25920 -0.00500
H 	H 	0.35030 0.23620 0.12020 0.11600
C 	C 	0.95480 0.66060 0.21000 0.41600
C 	C 	0.94000 0.75490 0.33330 -0.15500
C 	C 	0.82970 0.81590 0.36590 0.09200
C 	C 	0.03510 0.78450 0.41770 0.09600
C 	C 	0.01800 0.87000 0.53120 -0.16300
C 	C 	0.90470 0.92730 0.55750 0.11000
C 	C 	0.01200 0.92750 0.83530 0.15000
C 	C 	0.11180 0.81810 0.92170 0.11400
C 	C 	0.01360 0.75210 0.89850 -0.18800
C 	C 	0.91640 0.78060 0.84240 0.14500
C 	C 	0.01420 0.65990 0.93630 0.42800
C 	C 	0.91650 0.86580 0.80700 -0.22000
C 	C 	0.54520 0.21000 0.66060 0.41600
C 	C 	0.56000 0.33330 0.75490 -0.15500
C 	C 	0.67030 0.36590 0.81590 0.09200
C 	C 	0.46490 0.41770 0.78450 0.09700
C 	C 	0.48200 0.53120 0.87000 -0.16600
C 	C 	0.59530 0.55750 0.92730 0.11300
C 	C 	0.48800 0.83530 0.92750 0.14500
C 	C 	0.38820 0.92170 0.81810 0.11400
C 	C 	0.48640 0.89850 0.75210 -0.18900
C 	C 	0.58360 0.84240 0.78060 0.14600
C 	C 	0.48580 0.93630 0.65990 0.42600
C 	C 	0.58350 0.80700 0.86580 -0.21500
C 	C 	0.04520 0.33940 0.79000 0.41600
C 	C 	0.06000 0.24510 0.66670 -0.15500
C 	C 	0.17030 0.18410 0.63410 0.09200
C 	C 	0.96490 0.21550 0.58230 0.09600
C 	C 	0.98200 0.13000 0.46880 -0.16300
C 	C 	0.09530 0.07270 0.44250 0.11000
C 	C 	0.98800 0.07250 0.16470 0.15000
C 	C 	0.88820 0.18190 0.07830 0.11400
C 	C 	0.98640 0.24790 0.10150 -0.18800
C 	C 	0.08360 0.21940 0.15760 0.14500
C 	C 	0.98580 0.34010 0.06370 0.42800
C 	C 	0.08350 0.13420 0.19300 -0.22000
C 	C 	0.45480 0.79000 0.33940 0.41600
C 	C 	0.44000 0.66670 0.24510 -0.15500
C 	C 	0.32970 0.63410 0.18410 0.09200
C 	C 	0.53510 0.58230 0.21550 0.09700
C 	C 	0.51800 0.46880 0.13000 -0.16600
C 	C 	0.40470 0.44250 0.07270 0.11300
C 	C 	0.51200 0.16470 0.07250 0.14500
C 	C 	0.61180 0.07830 0.18190 0.11400
C 	C 	0.51360 0.10150 0.24790 -0.18900
C 	C 	0.41640 0.15760 0.21940 0.14600
C 	C 	0.51420 0.06370 0.34010 0.42600
C 	C 	0.41650 0.19300 0.13420 -0.21500
S 	S 	0.02025 0.04631 0.80157 -0.01700
S 	S 	0.86831 0.04051 0.69987 -0.04500
S 	S 	0.47975 0.80157 0.04631 -0.01400
S 	S 	0.63169 0.69987 0.04051 -0.04700
S 	S 	0.97975 0.95369 0.19843 -0.01700
S 	S 	0.13169 0.95949 0.30013 -0.04500
S 	S 	0.52025 0.19843 0.95369 -0.01400
S 	S 	0.36831 0.30013 0.95949 -0.04700
N 	N 	0.11030 0.90490 0.88750 -0.14200
N 	N 	0.81170 0.90230 0.47610 -0.24900
N 	N 	0.38970 0.88750 0.90490 -0.14200
N 	N 	0.68830 0.47610 0.90230 -0.24900
N 	N 	0.88970 0.09510 0.11250 -0.14200
N 	N 	0.18830 0.09770 0.52390 -0.24900
N 	N 	0.61030 0.11250 0.09510 -0.14200
N 	N 	0.31170 0.52390 0.09770 -0.24900
O 	O 	0.11340 0.62740 0.97300 -0.46300
O 	O 	0.91420 0.62010 0.92970 -0.47500
O 	O 	0.06090 0.62560 0.18140 -0.46200
O 	O 	0.86170 0.62220 0.14380 -0.46000
O 	O 	0.38660 0.97300 0.62740 -0.46300
O 	O 	0.58580 0.92970 0.62010 -0.47300
O 	O 	0.43910 0.18140 0.62560 -0.46100
O 	O 	0.63830 0.14380 0.62220 -0.46000
O 	O 	0.88660 0.37260 0.02700 -0.46300
O 	O 	0.08580 0.37990 0.07030 -0.47500
O 	O 	0.93910 0.37440 0.81860 -0.46200
O 	O 	0.13830 0.37780 0.85620 -0.46000
O 	O 	0.61340 0.02700 0.37260 -0.46300
O 	O 	0.41420 0.07030 0.37990 -0.47300
O 	O 	0.56090 0.81860 0.37440 -0.46100
O 	O 	0.36170 0.85620 0.37780 -0.46000
