data_crystal

_cell_length_a 15.59700
_cell_length_b 18.49200
_cell_length_c 23.29500
_cell_angle_alpha 91.82200
_cell_angle_beta  90.00000
_cell_angle_gamma 90.00000

_symmetry_space_group_name_	'P 1'
_symmetry_space_group_name_H-M	'P 1'

loop_
_symmetry_equiv_pos_as_xyz
  x,y,z

loop_
_atom_site_label
_atom_site_type_symbol
_atom_site_fract_x
_atom_site_fract_y
_atom_site_fract_z
_atom_site_charge
Cu	Cu	0.34302 0.79754 0.02977 0.85200
Cu	Cu	0.84302 0.70246 0.47023 0.85900
Cu	Cu	0.65698 0.20246 0.97023 0.86100
Cu	Cu	0.15698 0.29754 0.52977 0.85600
Cu	Cu	0.50000 0.00000 0.50000 0.84600
Cu	Cu	-0.00000 0.50000 -0.00000 0.84500
H 	H 	0.31940 0.85390 0.90700 -0.00700
H 	H 	0.52560 0.87040 0.00110 0.02300
H 	H 	0.56530 0.89690 0.90380 0.03600
H 	H 	0.30610 0.91940 0.82770 0.07500
H 	H 	0.28970 0.93930 0.73140 0.06200
H 	H 	0.53290 0.88110 0.70300 0.05500
H 	H 	0.55050 0.86410 0.80070 0.06100
H 	H 	0.27240 0.90390 0.63050 0.02900
H 	H 	0.30540 0.94830 0.53500 0.01100
H 	H 	0.51510 0.96970 0.62730 -0.01900
H 	H 	0.23600 0.78400 0.14460 -0.01400
H 	H 	0.31550 0.62820 0.03920 -0.00300
H 	H 	0.22880 0.57190 0.11300 0.03100
H 	H 	0.22230 0.73300 0.24870 0.05500
H 	H 	0.12920 0.71610 0.32650 0.06800
H 	H 	0.98420 0.58520 0.23090 0.08500
H 	H 	0.07160 0.60700 0.15120 0.05200
H 	H 	0.97610 0.73800 0.36840 -0.01400
H 	H 	0.87920 0.55230 0.41290 0.02200
H 	H 	0.97030 0.52770 0.32940 0.04000
H 	H 	0.19170 0.74210 0.93320 0.01100
H 	H 	0.06540 0.81790 0.91620 0.02700
H 	H 	0.20980 0.91390 0.03500 -0.01300
H 	H 	0.14530 0.01950 0.00480 0.09000
H 	H 	0.94980 0.88700 0.97100 0.08400
H 	H 	0.63970 0.11240 0.55090 -0.02300
H 	H 	0.39440 0.14170 0.52790 0.00600
H 	H 	0.45440 0.25990 0.55160 0.03800
H 	H 	0.60530 0.29780 0.63970 0.05000
H 	H 	0.70140 0.39410 0.64240 0.09000
H 	H 	0.78570 0.33540 0.48680 0.08300
H 	H 	0.68730 0.24010 0.48310 0.04600
H 	H 	0.81940 0.64610 0.59300 -0.00800
H 	H 	0.02560 0.62960 0.49890 0.01300
H 	H 	0.06530 0.60310 0.59620 0.04300
H 	H 	0.80610 0.58060 0.67230 0.07000
H 	H 	0.78970 0.56070 0.76860 0.06000
H 	H 	0.03290 0.61890 0.79700 0.04400
H 	H 	0.05050 0.63590 0.69930 0.04700
H 	H 	0.77240 0.59610 0.86950 0.02900
H 	H 	0.80540 0.55170 0.96500 0.01100
H 	H 	0.01510 0.53030 0.87270 -0.03600
H 	H 	0.73600 0.71600 0.35540 -0.01400
H 	H 	0.81550 0.87180 0.46080 0.00400
H 	H 	0.72880 0.92810 0.38700 0.03700
H 	H 	0.72230 0.76700 0.25130 0.05900
H 	H 	0.62920 0.78390 0.17350 0.06700
H 	H 	0.48420 0.91480 0.26910 0.06900
H 	H 	0.57160 0.89300 0.34880 0.06400
H 	H 	0.47610 0.76200 0.13160 -0.01900
H 	H 	0.37920 0.94770 0.08710 0.02400
H 	H 	0.47030 0.97230 0.17060 0.04200
H 	H 	0.69170 0.75790 0.56680 0.01100
H 	H 	0.56540 0.68210 0.58380 0.02900
H 	H 	0.70980 0.58610 0.46500 -0.02200
H 	H 	0.64530 0.48050 0.49520 0.07200
H 	H 	0.44980 0.61300 0.52900 0.06300
H 	H 	0.13970 0.38760 0.94910 -0.01900
H 	H 	0.89440 0.35830 0.97210 0.00900
H 	H 	0.95440 0.24010 0.94840 0.03900
H 	H 	0.10530 0.20220 0.86030 0.04700
H 	H 	0.20140 0.10590 0.85760 0.08600
H 	H 	0.28570 0.16460 0.01320 0.06900
H 	H 	0.18730 0.25990 0.01690 0.03200
H 	H 	0.68060 0.14610 0.09300 -0.01000
H 	H 	0.47440 0.12960 0.99890 0.05600
H 	H 	0.43470 0.10310 0.09620 0.01700
H 	H 	0.69390 0.08060 0.17230 0.06900
H 	H 	0.71030 0.06070 0.26860 0.05600
H 	H 	0.46710 0.11890 0.29700 0.05100
H 	H 	0.44950 0.13590 0.19930 0.05700
H 	H 	0.72760 0.09610 0.36950 0.02800
H 	H 	0.69460 0.05170 0.46500 0.00500
H 	H 	0.48490 0.03030 0.37270 -0.02800
H 	H 	0.76400 0.21600 0.85540 -0.01500
H 	H 	0.68450 0.37180 0.96080 0.00200
H 	H 	0.77120 0.42810 0.88700 0.03100
H 	H 	0.77770 0.26700 0.75130 0.06000
H 	H 	0.87080 0.28390 0.67350 0.06600
H 	H 	0.01580 0.41480 0.76910 0.05000
H 	H 	0.92840 0.39300 0.84880 0.06800
H 	H 	0.02390 0.26200 0.63160 -0.02100
H 	H 	0.12080 0.44770 0.58710 0.02200
H 	H 	0.02970 0.47230 0.67060 0.03400
H 	H 	0.80830 0.25790 0.06680 0.00800
H 	H 	0.93460 0.18210 0.08380 0.03200
H 	H 	0.79020 0.08610 0.96500 -0.02900
H 	H 	0.85470 0.98050 0.99520 0.05500
H 	H 	0.05020 0.11300 0.02900 0.04200
H 	H 	0.36030 0.88760 0.44910 -0.01900
H 	H 	0.60560 0.85830 0.47210 0.01100
H 	H 	0.54560 0.74010 0.44840 0.03800
H 	H 	0.39470 0.70220 0.36030 0.05000
H 	H 	0.29860 0.60590 0.35760 0.09000
H 	H 	0.21430 0.66460 0.51320 0.08200
H 	H 	0.31270 0.75990 0.51690 0.04600
H 	H 	0.18060 0.35390 0.40700 -0.00900
H 	H 	0.97440 0.37040 0.50110 0.06800
H 	H 	0.93470 0.39690 0.40380 0.00900
H 	H 	0.19390 0.41940 0.32770 0.07300
H 	H 	0.21030 0.43930 0.23140 0.05800
H 	H 	0.96710 0.38110 0.20300 0.06500
H 	H 	0.94950 0.36410 0.30070 0.07100
H 	H 	0.22760 0.40390 0.13050 0.02700
H 	H 	0.19460 0.44830 0.03500 0.00500
H 	H 	0.98490 0.46970 0.12730 -0.00800
H 	H 	0.26400 0.28400 0.64460 -0.01400
H 	H 	0.18450 0.12820 0.53920 -0.00400
H 	H 	0.27120 0.07190 0.61300 0.02500
H 	H 	0.27770 0.23300 0.74870 0.05700
H 	H 	0.37080 0.21610 0.82650 0.06800
H 	H 	0.51580 0.08520 0.73090 0.06200
H 	H 	0.42840 0.10700 0.65120 0.05800
H 	H 	0.52390 0.23800 0.86840 -0.01700
H 	H 	0.62080 0.05230 0.91290 0.01900
H 	H 	0.52970 0.02770 0.82940 0.03100
H 	H 	0.30830 0.24210 0.43320 0.00700
H 	H 	0.43460 0.31790 0.41620 0.02900
H 	H 	0.29020 0.41390 0.53500 -0.02200
H 	H 	0.35470 0.51950 0.50480 0.07200
H 	H 	0.55020 0.38700 0.47100 0.06300
H 	H 	0.86030 0.61240 0.05090 -0.02300
H 	H 	0.10560 0.64170 0.02790 0.00900
H 	H 	0.04560 0.75990 0.05160 0.03600
H 	H 	0.89470 0.79780 0.13970 0.05300
H 	H 	0.79860 0.89410 0.14240 0.09400
H 	H 	0.71430 0.83540 0.98680 0.09600
H 	H 	0.81270 0.74010 0.98310 0.05800
C 	C 	0.37600 0.86070 0.91850 0.10400
C 	C 	0.48870 0.86980 0.96970 0.02500
C 	C 	0.51070 0.88470 0.91630 0.00600
C 	C 	0.43060 0.88960 0.82360 0.09800
C 	C 	0.35210 0.91230 0.80270 -0.07800
C 	C 	0.34230 0.92410 0.74550 -0.07100
C 	C 	0.41020 0.91360 0.70900 0.08900
C 	C 	0.48780 0.88980 0.72840 -0.07500
C 	C 	0.49770 0.87880 0.78670 -0.08400
C 	C 	0.32480 0.92190 0.61830 -0.00400
C 	C 	0.34350 0.94690 0.56570 0.00700
C 	C 	0.45930 0.95870 0.61600 0.09100
C 	C 	0.24510 0.73880 0.12710 0.09100
C 	C 	0.28870 0.65270 0.06970 -0.00300
C 	C 	0.24050 0.62100 0.11000 -0.00500
C 	C 	0.15690 0.66700 0.19410 0.07500
C 	C 	0.17470 0.70290 0.24490 -0.06400
C 	C 	0.11900 0.69270 0.29120 -0.09500
C 	C 	0.04990 0.64840 0.28420 0.11200
C 	C 	0.03170 0.61540 0.23450 -0.12500
C 	C 	0.08540 0.62700 0.18720 -0.05200
C 	C 	0.96380 0.68890 0.36970 0.10200
C 	C 	0.91100 0.58660 0.39380 0.00300
C 	C 	0.96060 0.57260 0.34730 0.01500
C 	C 	0.17950 0.78630 0.95160 0.00400
C 	C 	0.10960 0.82780 0.94210 0.00600
C 	C 	0.19000 0.88020 0.00760 0.08200
C 	C 	0.05650 0.94470 0.98770 0.15200
C 	C 	0.08650 0.01130 0.00320 -0.16500
C 	C 	0.97030 0.93230 0.98310 -0.11900
C 	C 	0.58620 0.13410 0.54760 0.09800
C 	C 	0.45200 0.15100 0.53540 0.00400
C 	C 	0.48420 0.21630 0.54830 -0.00600
C 	C 	0.63540 0.26210 0.56060 0.06100
C 	C 	0.64080 0.30580 0.60850 -0.04300
C 	C 	0.69930 0.36230 0.61070 -0.12700
C 	C 	0.75340 0.37030 0.56600 0.15800
C 	C 	0.74940 0.32740 0.51760 -0.12900
C 	C 	0.69000 0.27120 0.51530 -0.04500
C 	C 	0.87600 0.63930 0.58150 0.10200
C 	C 	0.98870 0.63020 0.53030 0.05100
C 	C 	0.01070 0.61530 0.58370 -0.03300
C 	C 	0.93060 0.61040 0.67640 0.08900
C 	C 	0.85210 0.58770 0.69730 -0.07400
C 	C 	0.84230 0.57590 0.75450 -0.07400
C 	C 	0.91020 0.58640 0.79100 0.08700
C 	C 	0.98780 0.61020 0.77160 -0.06600
C 	C 	0.99770 0.62120 0.71330 -0.06700
C 	C 	0.82480 0.57810 0.88170 -0.00500
C 	C 	0.84350 0.55310 0.93430 0.00600
C 	C 	0.95930 0.54130 0.88400 0.10700
C 	C 	0.74510 0.76120 0.37290 0.09300
C 	C 	0.78870 0.84730 0.43030 -0.00000
C 	C 	0.74050 0.87900 0.39000 -0.00300
C 	C 	0.65690 0.83300 0.30590 0.08700
C 	C 	0.67470 0.79710 0.25510 -0.07200
C 	C 	0.61900 0.80730 0.20880 -0.08600
C 	C 	0.54990 0.85160 0.21580 0.10700
C 	C 	0.53170 0.88460 0.26550 -0.08900
C 	C 	0.58540 0.87300 0.31280 -0.07000
C 	C 	0.46380 0.81110 0.13030 0.10000
C 	C 	0.41100 0.91340 0.10620 0.00200
C 	C 	0.46060 0.92740 0.15270 0.01500
C 	C 	0.67950 0.71370 0.54840 0.00300
C 	C 	0.60960 0.67220 0.55790 0.00200
C 	C 	0.69000 0.61980 0.49240 0.10600
C 	C 	0.55650 0.55530 0.51230 0.09300
C 	C 	0.58650 0.48870 0.49680 -0.08300
C 	C 	0.47030 0.56770 0.51690 -0.07600
C 	C 	0.08620 0.36590 0.95240 0.09800
C 	C 	0.95200 0.34900 0.96460 0.01200
C 	C 	0.98420 0.28370 0.95170 0.00200
C 	C 	0.13540 0.23790 0.93940 0.05600
C 	C 	0.14080 0.19420 0.89150 -0.04100
C 	C 	0.19930 0.13770 0.88930 -0.12700
C 	C 	0.25340 0.12970 0.93400 0.15400
C 	C 	0.24940 0.17260 0.98240 -0.11500
C 	C 	0.19000 0.22880 0.98470 -0.02800
C 	C 	0.62400 0.13930 0.08150 0.09800
C 	C 	0.51130 0.13020 0.03030 -0.03500
C 	C 	0.48930 0.11530 0.08370 0.03000
C 	C 	0.56940 0.11040 0.17640 0.09300
C 	C 	0.64790 0.08770 0.19730 -0.08100
C 	C 	0.65770 0.07590 0.25450 -0.07300
C 	C 	0.58980 0.08640 0.29100 0.08300
C 	C 	0.51220 0.11020 0.27160 -0.07700
C 	C 	0.50230 0.12120 0.21330 -0.08800
C 	C 	0.67520 0.07810 0.38170 -0.00800
C 	C 	0.65650 0.05310 0.43430 0.00300
C 	C 	0.54070 0.04130 0.38400 0.08500
C 	C 	0.75490 0.26120 0.87290 0.09300
C 	C 	0.71130 0.34730 0.93030 -0.00200
C 	C 	0.75950 0.37900 0.89000 -0.00300
C 	C 	0.84310 0.33300 0.80590 0.09200
C 	C 	0.82530 0.29710 0.75510 -0.07900
C 	C 	0.88100 0.30730 0.70880 -0.08100
C 	C 	0.95010 0.35160 0.71580 0.10300
C 	C 	0.96830 0.38460 0.76550 -0.06400
C 	C 	0.91460 0.37300 0.81280 -0.08500
C 	C 	0.03620 0.31110 0.63030 0.09800
C 	C 	0.08900 0.41340 0.60620 -0.00100
C 	C 	0.03940 0.42740 0.65270 0.01300
C 	C 	0.82050 0.21370 0.04840 0.00300
C 	C 	0.89040 0.17220 0.05790 -0.00200
C 	C 	0.81000 0.11980 0.99240 0.12100
C 	C 	0.94350 0.05530 0.01230 0.03900
C 	C 	0.91350 0.98870 0.99680 -0.00300
C 	C 	0.02970 0.06770 0.01690 -0.03600
C 	C 	0.41380 0.86590 0.45240 0.09800
C 	C 	0.54800 0.84900 0.46460 0.00500
C 	C 	0.51580 0.78370 0.45170 -0.00500
C 	C 	0.36460 0.73790 0.43940 0.06100
C 	C 	0.35920 0.69420 0.39150 -0.04200
C 	C 	0.30070 0.63770 0.38930 -0.12800
C 	C 	0.24660 0.62970 0.43400 0.15800
C 	C 	0.25060 0.67260 0.48240 -0.12900
C 	C 	0.31000 0.72880 0.48470 -0.04500
C 	C 	0.12400 0.36070 0.41850 0.10000
C 	C 	0.01130 0.36980 0.46970 -0.06400
C 	C 	0.98930 0.38470 0.41630 0.07100
C 	C 	0.06940 0.38960 0.32360 0.10100
C 	C 	0.14790 0.41230 0.30270 -0.08400
C 	C 	0.15770 0.42410 0.24550 -0.07100
C 	C 	0.08980 0.41360 0.20900 0.08700
C 	C 	0.01220 0.38980 0.22840 -0.09000
C 	C 	0.00230 0.37880 0.28670 -0.10600
C 	C 	0.17520 0.42190 0.11830 -0.00700
C 	C 	0.15650 0.44690 0.06570 0.00400
C 	C 	0.04070 0.45870 0.11600 0.06400
C 	C 	0.25490 0.23880 0.62710 0.09100
C 	C 	0.21130 0.15270 0.56970 -0.00400
C 	C 	0.25950 0.12100 0.61000 -0.00500
C 	C 	0.34310 0.16700 0.69410 0.08300
C 	C 	0.32530 0.20290 0.74490 -0.07200
C 	C 	0.38100 0.19270 0.79120 -0.08800
C 	C 	0.45010 0.14840 0.78420 0.10500
C 	C 	0.46830 0.11540 0.73450 -0.09300
C 	C 	0.41460 0.12700 0.68720 -0.07100
C 	C 	0.53620 0.18890 0.86970 0.10000
C 	C 	0.58900 0.08660 0.89380 0.00000
C 	C 	0.53940 0.07260 0.84730 0.01300
C 	C 	0.32050 0.28630 0.45160 0.00300
C 	C 	0.39040 0.32780 0.44210 0.00100
C 	C 	0.31000 0.38020 0.50760 0.10600
C 	C 	0.44350 0.44470 0.48770 0.09200
C 	C 	0.41350 0.51130 0.50320 -0.08300
C 	C 	0.52970 0.43230 0.48310 -0.07600
C 	C 	0.91380 0.63410 0.04760 0.09800
C 	C 	0.04800 0.65100 0.03540 -0.00600
C 	C 	0.01580 0.71630 0.04830 -0.01600
C 	C 	0.86460 0.76210 0.06060 0.06500
C 	C 	0.85920 0.80580 0.10850 -0.04200
C 	C 	0.80070 0.86230 0.11070 -0.12900
C 	C 	0.74660 0.87030 0.06600 0.16300
C 	C 	0.75060 0.82740 0.01760 -0.14400
C 	C 	0.81000 0.77120 0.01530 -0.05700
Br	Br	0.83234 0.44746 0.56748 -0.28600
Br	Br	0.33234 0.05254 0.93252 -0.29600
Br	Br	0.16766 0.55254 0.43252 -0.29200
Br	Br	0.66766 0.94746 0.06748 -0.28200
N 	N 	0.40400 0.85350 0.97140 -0.22800
N 	N 	0.43990 0.87910 0.88350 -0.13600
N 	N 	0.39920 0.92850 0.65020 -0.13500
N 	N 	0.42740 0.97020 0.56450 -0.23000
N 	N 	0.29250 0.72600 0.07990 -0.23900
N 	N 	0.21270 0.67610 0.14530 -0.13400
N 	N 	0.99370 0.63730 0.33190 -0.13400
N 	N 	0.91460 0.65890 0.40850 -0.23100
N 	N 	0.22970 0.82050 0.99330 -0.21900
N 	N 	0.11730 0.88700 0.97810 -0.13800
N 	N 	0.51500 0.09960 0.53460 -0.23600
N 	N 	0.57100 0.20560 0.55560 -0.13300
N 	N 	0.90400 0.64650 0.52860 -0.23600
N 	N 	0.93990 0.62090 0.61650 -0.12500
N 	N 	0.89920 0.57150 0.84980 -0.13700
N 	N 	0.92740 0.52980 0.93550 -0.23300
N 	N 	0.79250 0.77400 0.42010 -0.23700
N 	N 	0.71270 0.82390 0.35470 -0.13500
N 	N 	0.49370 0.86270 0.16810 -0.13700
N 	N 	0.41460 0.84110 0.09150 -0.23300
N 	N 	0.72970 0.67950 0.50670 -0.23100
N 	N 	0.61730 0.61300 0.52190 -0.13900
N 	N 	0.01500 0.40040 0.96540 -0.23600
N 	N 	0.07100 0.29440 0.94440 -0.13500
N 	N 	0.59600 0.14650 0.02860 -0.22700
N 	N 	0.56010 0.12090 0.11650 -0.14200
N 	N 	0.60080 0.07150 0.34980 -0.13600
N 	N 	0.57260 0.02980 0.43550 -0.23800
N 	N 	0.70750 0.27400 0.92010 -0.23700
N 	N 	0.78730 0.32390 0.85470 -0.13700
N 	N 	0.00630 0.36270 0.66810 -0.14100
N 	N 	0.08540 0.34110 0.59150 -0.23300
N 	N 	0.77030 0.17950 0.00670 -0.24100
N 	N 	0.88270 0.11300 0.02190 -0.13700
N 	N 	0.48500 0.90040 0.46540 -0.22900
N 	N 	0.42900 0.79440 0.44440 -0.13200
N 	N 	0.09600 0.35350 0.47140 -0.22000
N 	N 	0.06010 0.37910 0.38350 -0.15300
N 	N 	0.10080 0.42850 0.15020 -0.13300
N 	N 	0.07260 0.47020 0.06450 -0.23400
N 	N 	0.20750 0.22600 0.57990 -0.23900
N 	N 	0.28730 0.17610 0.64530 -0.13600
N 	N 	0.50630 0.13730 0.83190 -0.13800
N 	N 	0.58540 0.15890 0.90850 -0.23100
N 	N 	0.27030 0.32050 0.49330 -0.23200
N 	N 	0.38270 0.38700 0.47810 -0.13900
N 	N 	0.98500 0.59960 0.03460 -0.22600
N 	N 	0.92900 0.70560 0.05560 -0.12800
