data_crystal

_cell_length_a 10.57830
_cell_length_b 12.32880
_cell_length_c 17.23600
_cell_angle_alpha 90.00000
_cell_angle_beta  93.71400
_cell_angle_gamma 90.00000

_symmetry_space_group_name_	'P 1'
_symmetry_space_group_name_H-M	'P 1'

loop_
_symmetry_equiv_pos_as_xyz
  x,y,z

loop_
_atom_site_label
_atom_site_type_symbol
_atom_site_fract_x
_atom_site_fract_y
_atom_site_fract_z
_atom_site_charge
Zn	Zn	0.28301 0.25956 0.40675 1.17300
Zn	Zn	0.29448 0.24400 0.05438 1.17400
Zn	Zn	0.21699 0.75956 0.09325 1.17300
Zn	Zn	0.20552 0.74400 0.44562 1.17400
Zn	Zn	0.71699 0.74044 0.59325 1.17300
Zn	Zn	0.70552 0.75600 0.94562 1.17400
Zn	Zn	0.78301 0.24044 0.90675 1.17300
Zn	Zn	0.79448 0.25600 0.55438 1.17400
H 	H 	0.44360 0.13870 0.28980 0.15900
H 	H 	0.49950 0.19370 0.21520 0.16000
H 	H 	0.40010 0.09610 0.20450 0.16700
H 	H 	0.00350 0.42580 0.16010 0.10900
H 	H 	0.12310 0.48130 0.12430 0.08600
H 	H 	0.04400 0.19270 0.84680 0.15400
H 	H 	0.15970 0.15180 0.90370 0.16600
H 	H 	0.17120 0.26290 0.85670 0.17500
H 	H 	0.01040 0.98340 0.35590 0.16800
H 	H 	0.06270 0.08110 0.30590 0.16100
H 	H 	0.15700 0.01590 0.36530 0.14700
H 	H 	0.04820 0.37130 0.58120 0.09300
H 	H 	0.18200 0.31050 0.58900 0.09700
H 	H 	0.38890 0.61020 0.35970 0.16000
H 	H 	0.46350 0.50140 0.38420 0.16400
H 	H 	0.35230 0.49840 0.31670 0.16700
H 	H 	0.05640 0.63870 0.21020 0.15800
H 	H 	0.00050 0.69370 0.28480 0.16000
H 	H 	0.09990 0.59610 0.29550 0.16700
H 	H 	0.49650 0.92580 0.33990 0.10900
H 	H 	0.37690 0.98130 0.37570 0.08600
H 	H 	0.45600 0.69270 0.65320 0.15200
H 	H 	0.34030 0.65180 0.59630 0.16400
H 	H 	0.32880 0.76290 0.64330 0.17400
H 	H 	0.48960 0.48340 0.14410 0.17000
H 	H 	0.43730 0.58110 0.19410 0.16200
H 	H 	0.34300 0.51590 0.13470 0.14800
H 	H 	0.45180 0.87130 0.91880 0.09200
H 	H 	0.31800 0.81050 0.91100 0.09600
H 	H 	0.11110 0.11020 0.14030 0.15900
H 	H 	0.03650 0.00140 0.11580 0.16300
H 	H 	0.14770 0.99840 0.18330 0.16500
H 	H 	0.55640 0.86130 0.71020 0.15900
H 	H 	0.50050 0.80630 0.78480 0.16000
H 	H 	0.59990 0.90390 0.79550 0.16700
H 	H 	0.99650 0.57420 0.83990 0.10900
H 	H 	0.87690 0.51870 0.87570 0.08600
H 	H 	0.95600 0.80730 0.15320 0.15400
H 	H 	0.84030 0.84820 0.09630 0.16600
H 	H 	0.82880 0.73710 0.14330 0.17500
H 	H 	0.98960 0.01660 0.64410 0.16800
H 	H 	0.93730 0.91890 0.69410 0.16100
H 	H 	0.84300 0.98410 0.63470 0.14700
H 	H 	0.95180 0.62870 0.41880 0.09300
H 	H 	0.81800 0.68950 0.41100 0.09700
H 	H 	0.61110 0.38980 0.64030 0.16000
H 	H 	0.53650 0.49860 0.61580 0.16400
H 	H 	0.64770 0.50160 0.68330 0.16700
H 	H 	0.94360 0.36130 0.78980 0.15800
H 	H 	0.99950 0.30630 0.71520 0.16000
H 	H 	0.90010 0.40390 0.70450 0.16700
H 	H 	0.50350 0.07420 0.66010 0.10900
H 	H 	0.62310 0.01870 0.62430 0.08600
H 	H 	0.54400 0.30730 0.34680 0.15200
H 	H 	0.65970 0.34820 0.40370 0.16400
H 	H 	0.67120 0.23710 0.35670 0.17400
H 	H 	0.51040 0.51660 0.85590 0.17000
H 	H 	0.56270 0.41890 0.80590 0.16200
H 	H 	0.65700 0.48410 0.86530 0.14800
H 	H 	0.54820 0.12870 0.08120 0.09200
H 	H 	0.68200 0.18950 0.08900 0.09600
H 	H 	0.88890 0.88980 0.85970 0.15900
H 	H 	0.96350 0.99860 0.88420 0.16300
H 	H 	0.85230 0.00160 0.81670 0.16500
C 	C 	0.42440 0.16030 0.23558 -0.60700
C 	C 	0.31780 0.23990 0.23139 0.21500
C 	C 	0.16980 0.34500 0.18806 0.14500
C 	C 	0.08220 0.41080 0.13382 -0.33200
C 	C 	0.04720 0.35810 0.05680 0.15900
C 	C 	0.06110 0.27610 0.94888 0.22000
C 	C 	0.11350 0.21570 0.88342 -0.61500
C 	C 	0.07060 0.04380 0.35620 -0.57300
C 	C 	0.04310 0.12100 0.41886 0.23000
C 	C 	0.06250 0.24961 0.50164 0.16200
C 	C 	0.11630 0.34010 0.55130 -0.35700
C 	C 	0.17340 0.42840 0.50523 0.16200
C 	C 	0.28700 0.50880 0.42544 0.22200
C 	C 	0.38100 0.53170 0.36643 -0.60400
C 	C 	0.07560 0.66030 0.26442 -0.60600
C 	C 	0.18220 0.73990 0.26861 0.21400
C 	C 	0.33020 0.84500 0.31194 0.14500
C 	C 	0.41780 0.91080 0.36618 -0.33200
C 	C 	0.45280 0.85810 0.44320 0.15900
C 	C 	0.43890 0.77610 0.55112 0.21800
C 	C 	0.38650 0.71570 0.61658 -0.61200
C 	C 	0.42940 0.54380 0.14380 -0.57800
C 	C 	0.45690 0.62100 0.08114 0.23000
C 	C 	0.43750 0.74961 0.99836 0.16100
C 	C 	0.38370 0.84010 0.94870 -0.35600
C 	C 	0.32660 0.92840 0.99477 0.16100
C 	C 	0.21300 0.00880 0.07456 0.22100
C 	C 	0.11900 0.03170 0.13357 -0.60100
C 	C 	0.57560 0.83970 0.76442 -0.60700
C 	C 	0.68220 0.76010 0.76861 0.21500
C 	C 	0.83020 0.65500 0.81194 0.14500
C 	C 	0.91780 0.58920 0.86618 -0.33200
C 	C 	0.95280 0.64190 0.94320 0.15900
C 	C 	0.93890 0.72390 0.05112 0.22000
C 	C 	0.88650 0.78430 0.11658 -0.61500
C 	C 	0.92940 0.95620 0.64380 -0.57300
C 	C 	0.95690 0.87900 0.58114 0.23000
C 	C 	0.93750 0.75039 0.49836 0.16200
C 	C 	0.88370 0.65990 0.44870 -0.35700
C 	C 	0.82660 0.57160 0.49477 0.16200
C 	C 	0.71300 0.49120 0.57456 0.22200
C 	C 	0.61900 0.46830 0.63357 -0.60400
C 	C 	0.92440 0.33970 0.73558 -0.60600
C 	C 	0.81780 0.26010 0.73139 0.21400
C 	C 	0.66980 0.15500 0.68806 0.14500
C 	C 	0.58220 0.08920 0.63382 -0.33200
C 	C 	0.54720 0.14190 0.55680 0.15900
C 	C 	0.56110 0.22390 0.44888 0.21800
C 	C 	0.61350 0.28430 0.38342 -0.61200
C 	C 	0.57060 0.45620 0.85620 -0.57800
C 	C 	0.54310 0.37900 0.91886 0.23000
C 	C 	0.56250 0.25039 0.00164 0.16100
C 	C 	0.61630 0.15990 0.05130 -0.35600
C 	C 	0.67340 0.07160 0.00523 0.16100
C 	C 	0.78700 0.99120 0.92544 0.22100
C 	C 	0.88100 0.96830 0.86643 -0.60100
N 	N 	0.12560 0.19832 0.44721 -0.33200
N 	N 	0.93560 0.12279 0.45325 -0.16100
N 	N 	0.94810 0.20706 0.50688 -0.28400
N 	N 	0.25970 0.40884 0.45108 -0.32900
N 	N 	0.14830 0.53189 0.51336 -0.14500
N 	N 	0.22240 0.58396 0.46075 -0.29200
N 	N 	0.94100 0.30571 0.95316 -0.29800
N 	N 	0.93170 0.35959 0.02361 -0.14700
N 	N 	0.13130 0.30801 0.01251 -0.33300
N 	N 	0.26550 0.28116 0.16471 -0.33700
N 	N 	0.16350 0.34565 0.26392 -0.15000
N 	N 	0.26050 0.27671 0.29203 -0.29600
N 	N 	0.37440 0.69832 0.05279 -0.33200
N 	N 	0.56440 0.62279 0.04675 -0.16000
N 	N 	0.55190 0.70706 0.99312 -0.28300
N 	N 	0.24030 0.90884 0.04892 -0.32900
N 	N 	0.35170 0.03189 0.98664 -0.14400
N 	N 	0.27760 0.08396 0.03925 -0.29200
N 	N 	0.55900 0.80571 0.54684 -0.29600
N 	N 	0.56830 0.85959 0.47639 -0.14800
N 	N 	0.36870 0.80801 0.48749 -0.33200
N 	N 	0.23450 0.78116 0.33529 -0.33700
N 	N 	0.33650 0.84565 0.23608 -0.15000
N 	N 	0.23950 0.77671 0.20797 -0.29600
N 	N 	0.87440 0.80168 0.55279 -0.33200
N 	N 	0.06440 0.87721 0.54675 -0.16100
N 	N 	0.05190 0.79294 0.49312 -0.28400
N 	N 	0.74030 0.59116 0.54892 -0.32900
N 	N 	0.85170 0.46811 0.48664 -0.14500
N 	N 	0.77760 0.41604 0.53925 -0.29200
N 	N 	0.05900 0.69429 0.04684 -0.29800
N 	N 	0.06830 0.64041 0.97639 -0.14700
N 	N 	0.86870 0.69199 0.98749 -0.33300
N 	N 	0.73450 0.71884 0.83529 -0.33700
N 	N 	0.83650 0.65435 0.73608 -0.15000
N 	N 	0.73950 0.72329 0.70797 -0.29600
N 	N 	0.62560 0.30168 0.94721 -0.33200
N 	N 	0.43560 0.37721 0.95325 -0.16000
N 	N 	0.44810 0.29294 0.00688 -0.28300
N 	N 	0.75970 0.09116 0.95108 -0.32900
N 	N 	0.64830 0.96811 0.01336 -0.14400
N 	N 	0.72240 0.91604 0.96075 -0.29200
N 	N 	0.44100 0.19429 0.45316 -0.29600
N 	N 	0.43170 0.14041 0.52361 -0.14800
N 	N 	0.63130 0.19199 0.51251 -0.33200
N 	N 	0.76550 0.21884 0.66471 -0.33700
N 	N 	0.66350 0.15435 0.76392 -0.15000
N 	N 	0.76050 0.22329 0.79203 -0.29600
