data_crystal

_cell_length_a 16.11590
_cell_length_b 16.44220
_cell_length_c 16.44220
_cell_angle_alpha 76.10300
_cell_angle_beta  60.65420
_cell_angle_gamma 60.65430

_symmetry_space_group_name_	'P 1'
_symmetry_space_group_name_H-M	'P 1'

loop_
_symmetry_equiv_pos_as_xyz
  x,y,z

loop_
_atom_site_label
_atom_site_type_symbol
_atom_site_fract_x
_atom_site_fract_y
_atom_site_fract_z
_atom_site_charge
Gd	Gd	0.91548 0.96807 0.37923 1.37300
Gd	Gd	0.35039 0.61337 0.02367 1.48700
Gd	Gd	0.76278 0.53193 0.12077 1.38600
Gd	Gd	0.48743 0.88663 0.47633 1.49100
Gd	Gd	0.29471 0.62077 0.46807 1.38800
Gd	Gd	0.37406 0.97633 0.11337 1.48500
Gd	Gd	0.88355 0.87923 0.03193 1.36700
Gd	Gd	0.96376 0.52367 0.38663 1.48600
Gd	Gd	0.08452 0.03193 0.62077 1.37400
Gd	Gd	0.64961 0.38663 0.97633 1.48800
Gd	Gd	0.23722 0.46807 0.87923 1.38600
Gd	Gd	0.51257 0.11337 0.52367 1.49100
Gd	Gd	0.70529 0.37923 0.53193 1.38800
Gd	Gd	0.62594 0.02367 0.88663 1.48500
Gd	Gd	0.11645 0.12077 0.96807 1.36700
Gd	Gd	0.03624 0.47633 0.61337 1.48600
H 	H 	0.19200 0.74600 0.26000 -0.01900
H 	H 	0.01700 0.72200 0.39400 -0.03800
H 	H 	0.69800 0.75400 0.24000 -0.01900
H 	H 	0.63300 0.77800 0.10600 -0.04200
H 	H 	0.45200 0.74000 0.24600 -0.01900
H 	H 	0.41100 0.60600 0.22200 -0.04200
H 	H 	0.93800 0.76000 0.25400 -0.02000
H 	H 	0.73900 0.89400 0.27800 -0.04200
H 	H 	0.80800 0.25400 0.74000 -0.01900
H 	H 	0.98300 0.27800 0.60600 -0.03800
H 	H 	0.30200 0.24600 0.76000 -0.01900
H 	H 	0.36700 0.22200 0.89400 -0.04200
H 	H 	0.54800 0.26000 0.75400 -0.01900
H 	H 	0.58900 0.39400 0.77800 -0.04200
H 	H 	0.06200 0.24000 0.74600 -0.02000
H 	H 	0.26100 0.10600 0.72200 -0.04200
C 	C 	0.15330 0.77730 0.21730 0.11700
C 	C 	0.03450 0.86870 0.17110 -0.06200
C 	C 	0.11190 0.79690 0.10550 -0.05300
C 	C 	0.12980 0.77640 0.01540 0.35300
C 	C 	0.93490 0.94770 0.17890 0.35000
C 	C 	0.94640 0.74150 0.41390 0.13500
C 	C 	0.78540 0.83660 0.44220 -0.04200
C 	C 	0.79770 0.74580 0.45020 -0.06200
C 	C 	0.72680 0.70580 0.46760 0.37800
C 	C 	0.69790 0.93080 0.45360 0.33800
C 	C 	0.64790 0.72270 0.28270 0.11700
C 	C 	0.57430 0.63130 0.32890 -0.07200
C 	C 	0.51430 0.70310 0.39450 -0.05200
C 	C 	0.42160 0.72360 0.48460 0.35700
C 	C 	0.56150 0.55230 0.32110 0.36900
C 	C 	0.60180 0.75850 0.08610 0.14000
C 	C 	0.56420 0.66340 0.05780 -0.04200
C 	C 	0.49370 0.75420 0.04980 -0.06300
C 	C 	0.40020 0.79420 0.03240 0.37700
C 	C 	0.58230 0.56920 0.04640 0.33800
C 	C 	0.37060 0.78270 0.27730 0.11700
C 	C 	0.20560 0.82890 0.36870 -0.07200
C 	C 	0.21740 0.89450 0.29690 -0.05000
C 	C 	0.14520 0.98460 0.27640 0.35000
C 	C 	0.11380 0.82110 0.44770 0.36800
C 	C 	0.36030 0.58610 0.24150 0.14100
C 	C 	0.22760 0.55780 0.33660 -0.04200
C 	C 	0.24790 0.54980 0.24580 -0.06200
C 	C 	0.19440 0.53240 0.20580 0.37800
C 	C 	0.15150 0.54640 0.43080 0.33800
C 	C 	0.93060 0.71730 0.22270 0.11600
C 	C 	0.90320 0.67110 0.13130 -0.06900
C 	C 	0.90880 0.60550 0.20310 -0.05400
C 	C 	0.90620 0.51540 0.22360 0.35700
C 	C 	0.88260 0.67890 0.05230 0.35600
C 	C 	0.68790 0.91390 0.25850 0.14000
C 	C 	0.62200 0.94220 0.16340 -0.04300
C 	C 	0.54350 0.95020 0.25420 -0.06200
C 	C 	0.43260 0.96760 0.29420 0.37800
C 	C 	0.62870 0.95360 0.06920 0.33800
C 	C 	0.84670 0.22270 0.78270 0.11700
C 	C 	0.96550 0.13130 0.82890 -0.06200
C 	C 	0.88810 0.20310 0.89450 -0.05300
C 	C 	0.87020 0.22360 0.98460 0.35300
C 	C 	0.06510 0.05230 0.82110 0.35000
C 	C 	0.05360 0.25850 0.58610 0.13500
C 	C 	0.21460 0.16340 0.55780 -0.04200
C 	C 	0.20230 0.25420 0.54980 -0.06200
C 	C 	0.27320 0.29420 0.53240 0.37800
C 	C 	0.30210 0.06920 0.54640 0.33800
C 	C 	0.35210 0.27730 0.71730 0.11700
C 	C 	0.42570 0.36870 0.67110 -0.07200
C 	C 	0.48570 0.29690 0.60550 -0.05200
C 	C 	0.57840 0.27640 0.51540 0.35700
C 	C 	0.43850 0.44770 0.67890 0.36900
C 	C 	0.39820 0.24150 0.91390 0.14000
C 	C 	0.43580 0.33660 0.94220 -0.04200
C 	C 	0.50630 0.24580 0.95020 -0.06300
C 	C 	0.59980 0.20580 0.96760 0.37700
C 	C 	0.41770 0.43080 0.95360 0.33800
C 	C 	0.62940 0.21730 0.72270 0.11700
C 	C 	0.79440 0.17110 0.63130 -0.07200
C 	C 	0.78260 0.10550 0.70310 -0.05000
C 	C 	0.85480 0.01540 0.72360 0.35000
C 	C 	0.88620 0.17890 0.55230 0.36800
C 	C 	0.63970 0.41390 0.75850 0.14100
C 	C 	0.77240 0.44220 0.66340 -0.04200
C 	C 	0.75210 0.45020 0.75420 -0.06200
C 	C 	0.80560 0.46760 0.79420 0.37800
C 	C 	0.84850 0.45360 0.56920 0.33800
C 	C 	0.06940 0.28270 0.77730 0.11600
C 	C 	0.09680 0.32890 0.86870 -0.06900
C 	C 	0.09120 0.39450 0.79690 -0.05400
C 	C 	0.09380 0.48460 0.77640 0.35700
C 	C 	0.11740 0.32110 0.94770 0.35600
C 	C 	0.31210 0.08610 0.74150 0.14000
C 	C 	0.37800 0.05780 0.83660 -0.04300
C 	C 	0.45650 0.04980 0.74580 -0.06200
C 	C 	0.56740 0.03240 0.70580 0.37800
C 	C 	0.37130 0.04640 0.93080 0.33800
N 	N 	0.18770 0.73940 0.13600 -0.19300
N 	N 	0.06240 0.85460 0.24200 -0.19200
N 	N 	0.88250 0.83290 0.41750 -0.22000
N 	N 	0.90080 0.68590 0.43170 -0.21200
N 	N 	0.56310 0.76060 0.36400 -0.19400
N 	N 	0.65900 0.64540 0.25800 -0.19100
N 	N 	0.63290 0.66710 0.08250 -0.22100
N 	N 	0.51840 0.81410 0.06830 -0.21300
N 	N 	0.32370 0.86400 0.23940 -0.19400
N 	N 	0.30440 0.75800 0.35460 -0.19200
N 	N 	0.30000 0.58250 0.33290 -0.22100
N 	N 	0.33250 0.56830 0.18590 -0.21300
N 	N 	0.92710 0.63600 0.26060 -0.19300
N 	N 	0.91700 0.74200 0.14540 -0.19300
N 	N 	0.71540 0.91750 0.16710 -0.22000
N 	N 	0.58670 0.93170 0.31410 -0.21300
N 	N 	0.81230 0.26060 0.86400 -0.19300
N 	N 	0.93760 0.14540 0.75800 -0.19200
N 	N 	0.11750 0.16710 0.58250 -0.22000
N 	N 	0.09920 0.31410 0.56830 -0.21200
N 	N 	0.43690 0.23940 0.63600 -0.19400
N 	N 	0.34100 0.35460 0.74200 -0.19100
N 	N 	0.36710 0.33290 0.91750 -0.22100
N 	N 	0.48160 0.18590 0.93170 -0.21300
N 	N 	0.67630 0.13600 0.76060 -0.19400
N 	N 	0.69560 0.24200 0.64540 -0.19200
N 	N 	0.70000 0.41750 0.66710 -0.22100
N 	N 	0.66750 0.43170 0.81410 -0.21300
N 	N 	0.07290 0.36400 0.73940 -0.19300
N 	N 	0.08300 0.25800 0.85460 -0.19300
N 	N 	0.28460 0.08250 0.83290 -0.22000
N 	N 	0.41330 0.06830 0.68590 -0.21300
O 	O 	0.21860 0.70730 0.96990 -0.40700
O 	O 	0.06370 0.82110 0.98210 -0.42300
O 	O 	0.89360 0.95470 0.12850 -0.43000
O 	O 	0.89190 0.00780 0.24080 -0.40100
O 	O 	0.77110 0.61830 0.45730 -0.40400
O 	O 	0.62960 0.75630 0.49410 -0.43900
O 	O 	0.60170 0.94460 0.48540 -0.49200
O 	O 	0.71980 0.99900 0.43200 -0.43900
O 	O 	0.39580 0.79270 0.53010 -0.40900
O 	O 	0.36690 0.67890 0.51790 -0.43200
O 	O 	0.47680 0.54530 0.37150 -0.43300
O 	O 	0.64050 0.49220 0.25920 -0.41500
O 	O 	0.34670 0.88170 0.04270 -0.40400
O 	O 	0.38000 0.74370 0.00590 -0.44000
O 	O 	0.53170 0.55540 0.01460 -0.49300
O 	O 	0.65080 0.50100 0.06800 -0.43900
O 	O 	0.18850 0.03010 0.20730 -0.40200
O 	O 	0.04580 0.01790 0.32110 -0.42600
O 	O 	0.02210 0.87150 0.45470 -0.43000
O 	O 	0.13270 0.75920 0.50780 -0.41400
O 	O 	0.22840 0.54270 0.11830 -0.40200
O 	O 	0.12370 0.50590 0.25630 -0.43700
O 	O 	0.08710 0.51460 0.44460 -0.49200
O 	O 	0.15180 0.56800 0.49900 -0.43800
O 	O 	0.92590 0.46990 0.29270 -0.41000
O 	O 	0.88480 0.48210 0.17890 -0.43200
O 	O 	0.84830 0.62850 0.04530 -0.43100
O 	O 	0.89970 0.74080 0.99220 -0.40000
O 	O 	0.38940 0.95730 0.38170 -0.40300
O 	O 	0.38590 0.99410 0.24370 -0.43900
O 	O 	0.54630 0.98540 0.05540 -0.49400
O 	O 	0.71880 0.93200 0.00100 -0.44200
O 	O 	0.78140 0.29270 0.03010 -0.40700
O 	O 	0.93630 0.17890 0.01790 -0.42300
O 	O 	0.10640 0.04530 0.87150 -0.43000
O 	O 	0.10810 0.99220 0.75920 -0.40100
O 	O 	0.22890 0.38170 0.54270 -0.40400
O 	O 	0.37040 0.24370 0.50590 -0.43900
O 	O 	0.39830 0.05540 0.51460 -0.49200
O 	O 	0.28020 0.00100 0.56800 -0.43900
O 	O 	0.60420 0.20730 0.46990 -0.40900
O 	O 	0.63310 0.32110 0.48210 -0.43200
O 	O 	0.52320 0.45470 0.62850 -0.43300
O 	O 	0.35950 0.50780 0.74080 -0.41500
O 	O 	0.65330 0.11830 0.95730 -0.40400
O 	O 	0.62000 0.25630 0.99410 -0.44000
O 	O 	0.46830 0.44460 0.98540 -0.49300
O 	O 	0.34920 0.49900 0.93200 -0.43900
O 	O 	0.81150 0.96990 0.79270 -0.40200
O 	O 	0.95420 0.98210 0.67890 -0.42600
O 	O 	0.97790 0.12850 0.54530 -0.43000
O 	O 	0.86730 0.24080 0.49220 -0.41400
O 	O 	0.77160 0.45730 0.88170 -0.40200
O 	O 	0.87630 0.49410 0.74370 -0.43700
O 	O 	0.91290 0.48540 0.55540 -0.49200
O 	O 	0.84820 0.43200 0.50100 -0.43800
O 	O 	0.07410 0.53010 0.70730 -0.41000
O 	O 	0.11520 0.51790 0.82110 -0.43200
O 	O 	0.15170 0.37150 0.95470 -0.43100
O 	O 	0.10030 0.25920 0.00780 -0.40000
O 	O 	0.61060 0.04270 0.61830 -0.40300
O 	O 	0.61410 0.00590 0.75630 -0.43900
O 	O 	0.45370 0.01460 0.94460 -0.49400
O 	O 	0.28120 0.06800 0.99900 -0.44200
