data_crystal

_cell_length_a 17.83720
_cell_length_b 21.16400
_cell_length_c 21.72100
_cell_angle_alpha 90.00000
_cell_angle_beta  90.30000
_cell_angle_gamma 90.00000

_symmetry_space_group_name_	'P 1'
_symmetry_space_group_name_H-M	'P 1'

loop_
_symmetry_equiv_pos_as_xyz
  x,y,z

loop_
_atom_site_label
_atom_site_type_symbol
_atom_site_fract_x
_atom_site_fract_y
_atom_site_fract_z
_atom_site_charge
Cd	Cd	0.60199 0.34068 0.51448 1.22100
Cd	Cd	0.20036 0.91585 0.48289 1.20700
Cd	Cd	0.39801 0.84068 0.98552 1.22000
Cd	Cd	0.79964 0.41585 0.01711 1.20700
Cd	Cd	0.39801 0.65932 0.48552 1.22100
Cd	Cd	0.79964 0.08415 0.51711 1.20700
Cd	Cd	0.60199 0.15932 0.01448 1.22000
Cd	Cd	0.20036 0.58415 0.98289 1.20700
H 	H 	0.38150 0.89450 0.50860 0.05500
H 	H 	0.41300 0.96210 0.52930 0.06600
H 	H 	0.31840 0.97210 0.60360 0.05000
H 	H 	0.36290 0.90750 0.61520 0.06200
H 	H 	0.31280 0.81860 0.55670 0.05000
H 	H 	0.27840 0.81250 0.62410 0.06500
H 	H 	0.21560 0.74400 0.55830 0.08400
H 	H 	0.15820 0.79670 0.58180 0.05200
H 	H 	0.28990 0.78450 0.46570 0.05100
H 	H 	0.22890 0.73440 0.44250 0.06900
H 	H 	0.27730 0.79150 0.36050 0.07000
H 	H 	0.18890 0.80190 0.36640 0.04700
H 	H 	0.35390 0.86130 0.41680 0.06000
H 	H 	0.35010 0.88860 0.34830 0.06800
H 	H 	0.40450 0.96260 0.41570 0.06000
H 	H 	0.32910 0.99050 0.38580 0.04900
H 	H 	0.44340 0.18650 0.40230 0.00800
H 	H 	0.35370 0.10760 0.40300 0.08900
H 	H 	0.40040 0.06780 0.57910 0.08900
H 	H 	0.48570 0.14950 0.58170 0.00300
H 	H 	0.27600 0.03940 0.53080 0.07100
H 	H 	0.26540 0.05110 0.45890 0.07600
H 	H 	0.24540 0.80990 0.80960 0.01400
H 	H 	0.19670 0.82000 0.71320 0.07900
H 	H 	0.27780 0.99950 0.70140 0.07500
H 	H 	0.31880 0.99150 0.80320 0.02500
H 	H 	0.15690 0.88990 0.62930 0.06900
H 	H 	0.19050 0.95980 0.62500 0.07600
H 	H 	0.95790 0.94410 0.41840 0.02300
H 	H 	0.04580 0.86540 0.40080 0.06800
H 	H 	0.03030 0.81350 0.58100 0.07000
H 	H 	0.94210 0.89410 0.59590 0.02300
H 	H 	0.09690 0.74550 0.50620 0.08200
H 	H 	0.10240 0.76590 0.43540 0.07600
H 	H 	0.23420 0.80580 0.15740 0.01100
H 	H 	0.18580 0.82210 0.25520 0.08000
H 	H 	0.30160 0.98430 0.26870 0.08300
H 	H 	0.35640 0.96580 0.17290 0.01600
H 	H 	0.21330 0.96130 0.34470 0.07500
H 	H 	0.15710 0.90330 0.33550 0.06700
H 	H 	0.61850 0.39450 0.99140 0.05400
H 	H 	0.58700 0.46210 0.97070 0.06500
H 	H 	0.68160 0.47210 0.89640 0.04900
H 	H 	0.63710 0.40750 0.88480 0.06100
H 	H 	0.68720 0.31860 0.94330 0.04900
H 	H 	0.72160 0.31250 0.87590 0.06500
H 	H 	0.78440 0.24400 0.94170 0.08400
H 	H 	0.84180 0.29670 0.91820 0.05100
H 	H 	0.71010 0.28450 0.03430 0.05100
H 	H 	0.77110 0.23440 0.05750 0.06900
H 	H 	0.72270 0.29150 0.13950 0.07000
H 	H 	0.81110 0.30190 0.13360 0.04700
H 	H 	0.64610 0.36130 0.08320 0.06000
H 	H 	0.64990 0.38860 0.15170 0.06700
H 	H 	0.59550 0.46260 0.08430 0.06000
H 	H 	0.67090 0.49050 0.11420 0.04900
H 	H 	0.55660 0.68650 0.09770 0.00800
H 	H 	0.64630 0.60760 0.09700 0.08900
H 	H 	0.59960 0.56780 0.92090 0.08800
H 	H 	0.51430 0.64950 0.91830 0.00300
H 	H 	0.72400 0.53940 0.96920 0.07100
H 	H 	0.73460 0.55110 0.04110 0.07700
H 	H 	0.75460 0.30990 0.69040 0.01400
H 	H 	0.80330 0.32000 0.78680 0.07900
H 	H 	0.72220 0.49950 0.79860 0.07500
H 	H 	0.68120 0.49150 0.69680 0.02500
H 	H 	0.84310 0.38990 0.87070 0.06900
H 	H 	0.80950 0.45980 0.87500 0.07700
H 	H 	0.04210 0.44410 0.08160 0.02200
H 	H 	0.95420 0.36540 0.09920 0.06800
H 	H 	0.96970 0.31350 0.91900 0.06900
H 	H 	0.05790 0.39410 0.90410 0.02300
H 	H 	0.90310 0.24550 0.99380 0.08400
H 	H 	0.89760 0.26590 0.06460 0.07600
H 	H 	0.76580 0.30580 0.34260 0.01100
H 	H 	0.81420 0.32210 0.24480 0.08000
H 	H 	0.69840 0.48430 0.23130 0.08300
H 	H 	0.64360 0.46580 0.32710 0.01600
H 	H 	0.78670 0.46130 0.15530 0.07500
H 	H 	0.84290 0.40330 0.16450 0.06700
H 	H 	0.61850 0.10550 0.49140 0.05400
H 	H 	0.58700 0.03790 0.47070 0.06500
H 	H 	0.68160 0.02790 0.39640 0.04900
H 	H 	0.63710 0.09250 0.38480 0.06100
H 	H 	0.68720 0.18140 0.44330 0.04900
H 	H 	0.72160 0.18750 0.37590 0.06400
H 	H 	0.78440 0.25600 0.44170 0.08400
H 	H 	0.84180 0.20330 0.41820 0.05200
H 	H 	0.71010 0.21550 0.53430 0.05100
H 	H 	0.77110 0.26560 0.55750 0.06900
H 	H 	0.72270 0.20850 0.63950 0.07000
H 	H 	0.81110 0.19810 0.63360 0.04700
H 	H 	0.64610 0.13870 0.58320 0.06000
H 	H 	0.64990 0.11140 0.65170 0.06800
H 	H 	0.59550 0.03740 0.58430 0.06000
H 	H 	0.67090 0.00950 0.61420 0.04900
H 	H 	0.55660 0.81350 0.59770 0.00800
H 	H 	0.64630 0.89240 0.59700 0.08900
H 	H 	0.59960 0.93220 0.42090 0.08900
H 	H 	0.51430 0.85050 0.41830 0.00300
H 	H 	0.72400 0.96060 0.46920 0.07100
H 	H 	0.73460 0.94890 0.54110 0.07600
H 	H 	0.75460 0.19010 0.19040 0.01400
H 	H 	0.80330 0.18000 0.28680 0.07900
H 	H 	0.72220 0.00050 0.29860 0.07500
H 	H 	0.68120 0.00850 0.19680 0.02500
H 	H 	0.84310 0.11010 0.37070 0.06900
H 	H 	0.80950 0.04020 0.37500 0.07600
H 	H 	0.04210 0.05590 0.58160 0.02300
H 	H 	0.95420 0.13460 0.59920 0.06800
H 	H 	0.96970 0.18650 0.41900 0.07000
H 	H 	0.05790 0.10590 0.40410 0.02300
H 	H 	0.90310 0.25450 0.49380 0.08200
H 	H 	0.89760 0.23410 0.56460 0.07600
H 	H 	0.76580 0.19420 0.84260 0.01100
H 	H 	0.81420 0.17790 0.74480 0.08000
H 	H 	0.69840 0.01570 0.73130 0.08300
H 	H 	0.64360 0.03420 0.82710 0.01600
H 	H 	0.78670 0.03870 0.65530 0.07500
H 	H 	0.84290 0.09670 0.66450 0.06700
H 	H 	0.38150 0.60550 0.00860 0.05400
H 	H 	0.41300 0.53790 0.02930 0.06500
H 	H 	0.31840 0.52790 0.10360 0.04900
H 	H 	0.36290 0.59250 0.11520 0.06100
H 	H 	0.31280 0.68140 0.05670 0.04900
H 	H 	0.27840 0.68750 0.12410 0.06500
H 	H 	0.21560 0.75600 0.05830 0.08400
H 	H 	0.15820 0.70330 0.08180 0.05100
H 	H 	0.28990 0.71550 0.96570 0.05100
H 	H 	0.22890 0.76560 0.94250 0.06900
H 	H 	0.27730 0.70850 0.86050 0.07000
H 	H 	0.18890 0.69810 0.86640 0.04700
H 	H 	0.35390 0.63870 0.91680 0.06000
H 	H 	0.35010 0.61140 0.84830 0.06700
H 	H 	0.40450 0.53740 0.91570 0.06000
H 	H 	0.32910 0.50950 0.88580 0.04900
H 	H 	0.44340 0.31350 0.90230 0.00800
H 	H 	0.35370 0.39240 0.90300 0.08900
H 	H 	0.40040 0.43220 0.07910 0.08800
H 	H 	0.48570 0.35050 0.08170 0.00300
H 	H 	0.27600 0.46060 0.03080 0.07100
H 	H 	0.26540 0.44890 0.95890 0.07700
H 	H 	0.24540 0.69010 0.30960 0.01400
H 	H 	0.19670 0.68000 0.21320 0.07900
H 	H 	0.27780 0.50050 0.20140 0.07500
H 	H 	0.31880 0.50850 0.30320 0.02500
H 	H 	0.15690 0.61010 0.12930 0.06900
H 	H 	0.19050 0.54020 0.12500 0.07700
H 	H 	0.95790 0.55590 0.91840 0.02200
H 	H 	0.04580 0.63460 0.90080 0.06800
H 	H 	0.03030 0.68650 0.08100 0.06900
H 	H 	0.94210 0.60590 0.09590 0.02300
H 	H 	0.09690 0.75450 0.00620 0.08400
H 	H 	0.10240 0.73410 0.93540 0.07600
H 	H 	0.23420 0.69420 0.65740 0.01100
H 	H 	0.18580 0.67790 0.75520 0.08000
H 	H 	0.30160 0.51570 0.76870 0.08300
H 	H 	0.35640 0.53420 0.67290 0.01600
H 	H 	0.21330 0.53870 0.84470 0.07500
H 	H 	0.15710 0.59670 0.83550 0.06700
C 	C 	0.36690 0.93670 0.52410 -0.10200
C 	C 	0.32830 0.92950 0.58660 -0.09200
C 	C 	0.26780 0.82730 0.58180 -0.08300
C 	C 	0.20310 0.78950 0.55610 -0.11900
C 	C 	0.23920 0.78010 0.44760 -0.10000
C 	C 	0.23780 0.81080 0.38640 -0.09500
C 	C 	0.32940 0.89330 0.39020 -0.09900
C 	C 	0.34930 0.95800 0.41410 -0.09400
C 	C 	0.52650 0.23120 0.49630 0.37400
C 	C 	0.47430 0.17550 0.49210 -0.16500
C 	C 	0.43430 0.16310 0.43880 0.09600
C 	C 	0.38090 0.11600 0.43980 -0.18800
C 	C 	0.36480 0.08040 0.49120 0.15800
C 	C 	0.40740 0.09290 0.54330 -0.19000
C 	C 	0.45950 0.14040 0.54450 0.09400
C 	C 	0.30140 0.03630 0.49050 -0.19500
C 	C 	0.32850 0.88910 0.87990 0.34800
C 	C 	0.29300 0.89680 0.81600 -0.12000
C 	C 	0.25290 0.84820 0.78780 0.07000
C 	C 	0.22420 0.85410 0.73050 -0.16300
C 	C 	0.23400 0.90890 0.69590 0.12500
C 	C 	0.27110 0.96120 0.72370 -0.14900
C 	C 	0.29740 0.95570 0.78340 0.05200
C 	C 	0.20370 0.91500 0.63250 -0.17300
C 	C 	0.89290 0.98210 0.51890 0.31800
C 	C 	0.94510 0.92870 0.50870 -0.12500
C 	C 	0.97380 0.91820 0.45170 0.06500
C 	C 	0.02550 0.87080 0.44080 -0.17400
C 	C 	0.04760 0.83120 0.48840 0.07700
C 	C 	0.01610 0.84020 0.54770 -0.14500
C 	C 	0.96440 0.88860 0.55660 0.05400
C 	C 	0.10620 0.78160 0.47820 -0.17500
C 	C 	0.33210 0.87210 0.09170 0.35400
C 	C 	0.29890 0.88490 0.15410 -0.13700
C 	C 	0.24900 0.84220 0.18010 0.07500
C 	C 	0.22040 0.85160 0.23860 -0.16800
C 	C 	0.24200 0.90420 0.27340 0.14100
C 	C 	0.28940 0.94680 0.24690 -0.17200
C 	C 	0.32050 0.93690 0.18870 0.07500
C 	C 	0.21070 0.91550 0.33590 -0.18400
C 	C 	0.63310 0.43670 0.97590 -0.10100
C 	C 	0.67170 0.42950 0.91340 -0.09200
C 	C 	0.73220 0.32730 0.91820 -0.08400
C 	C 	0.79690 0.28950 0.94390 -0.11800
C 	C 	0.76080 0.28010 0.05240 -0.10000
C 	C 	0.76220 0.31080 0.11360 -0.09400
C 	C 	0.67060 0.39330 0.10980 -0.09900
C 	C 	0.65070 0.45800 0.08590 -0.09400
C 	C 	0.47350 0.73120 0.00370 0.37500
C 	C 	0.52570 0.67550 0.00790 -0.16400
C 	C 	0.56570 0.66310 0.06120 0.09600
C 	C 	0.61910 0.61600 0.06020 -0.18800
C 	C 	0.63520 0.58040 0.00880 0.15800
C 	C 	0.59260 0.59290 0.95670 -0.19000
C 	C 	0.54050 0.64040 0.95550 0.09400
C 	C 	0.69860 0.53630 0.00950 -0.19600
C 	C 	0.67150 0.38910 0.62010 0.34800
C 	C 	0.70700 0.39680 0.68400 -0.12000
C 	C 	0.74710 0.34820 0.71220 0.07000
C 	C 	0.77580 0.35410 0.76950 -0.16300
C 	C 	0.76600 0.40890 0.80410 0.12500
C 	C 	0.72890 0.46120 0.77630 -0.14900
C 	C 	0.70260 0.45570 0.71660 0.05200
C 	C 	0.79630 0.41500 0.86750 -0.17400
C 	C 	0.10710 0.48210 0.98110 0.31700
C 	C 	0.05490 0.42870 0.99130 -0.12600
C 	C 	0.02620 0.41820 0.04830 0.06900
C 	C 	0.97450 0.37080 0.05920 -0.17700
C 	C 	0.95240 0.33120 0.01160 0.07600
C 	C 	0.98390 0.34020 0.95230 -0.14100
C 	C 	0.03560 0.38860 0.94340 0.05200
C 	C 	0.89380 0.28160 0.02180 -0.17800
C 	C 	0.66790 0.37210 0.40830 0.35400
C 	C 	0.70110 0.38490 0.34590 -0.13700
C 	C 	0.75100 0.34220 0.31990 0.07500
C 	C 	0.77960 0.35160 0.26140 -0.16800
C 	C 	0.75800 0.40420 0.22660 0.14100
C 	C 	0.71060 0.44680 0.25310 -0.17200
C 	C 	0.67950 0.43690 0.31130 0.07500
C 	C 	0.78930 0.41550 0.16410 -0.18400
C 	C 	0.63310 0.06330 0.47590 -0.10200
C 	C 	0.67170 0.07050 0.41340 -0.09200
C 	C 	0.73220 0.17270 0.41820 -0.08300
C 	C 	0.79690 0.21050 0.44390 -0.11900
C 	C 	0.76080 0.21990 0.55240 -0.10000
C 	C 	0.76220 0.18920 0.61360 -0.09500
C 	C 	0.67060 0.10670 0.60980 -0.09900
C 	C 	0.65070 0.04200 0.58590 -0.09400
C 	C 	0.47350 0.76880 0.50370 0.37400
C 	C 	0.52570 0.82450 0.50790 -0.16500
C 	C 	0.56570 0.83690 0.56120 0.09600
C 	C 	0.61910 0.88400 0.56020 -0.18800
C 	C 	0.63520 0.91960 0.50880 0.15800
C 	C 	0.59260 0.90710 0.45670 -0.19000
C 	C 	0.54050 0.85960 0.45550 0.09400
C 	C 	0.69860 0.96370 0.50950 -0.19500
C 	C 	0.67150 0.11090 0.12010 0.34800
C 	C 	0.70700 0.10320 0.18400 -0.12000
C 	C 	0.74710 0.15180 0.21220 0.07000
C 	C 	0.77580 0.14590 0.26950 -0.16300
C 	C 	0.76600 0.09110 0.30410 0.12500
C 	C 	0.72890 0.03880 0.27630 -0.14900
C 	C 	0.70260 0.04430 0.21660 0.05200
C 	C 	0.79630 0.08500 0.36750 -0.17300
C 	C 	0.10710 0.01790 0.48110 0.31800
C 	C 	0.05490 0.07130 0.49130 -0.12500
C 	C 	0.02620 0.08180 0.54830 0.06500
C 	C 	0.97450 0.12920 0.55920 -0.17400
C 	C 	0.95240 0.16880 0.51160 0.07700
C 	C 	0.98390 0.15980 0.45230 -0.14500
C 	C 	0.03560 0.11140 0.44340 0.05400
C 	C 	0.89380 0.21840 0.52180 -0.17500
C 	C 	0.66790 0.12790 0.90830 0.35400
C 	C 	0.70110 0.11510 0.84590 -0.13700
C 	C 	0.75100 0.15780 0.81990 0.07500
C 	C 	0.77960 0.14840 0.76140 -0.16800
C 	C 	0.75800 0.09580 0.72660 0.14100
C 	C 	0.71060 0.05320 0.75310 -0.17200
C 	C 	0.67950 0.06310 0.81130 0.07500
C 	C 	0.78930 0.08450 0.66410 -0.18400
C 	C 	0.36690 0.56330 0.02410 -0.10100
C 	C 	0.32830 0.57050 0.08660 -0.09200
C 	C 	0.26780 0.67270 0.08180 -0.08400
C 	C 	0.20310 0.71050 0.05610 -0.11800
C 	C 	0.23920 0.71990 0.94760 -0.10000
C 	C 	0.23780 0.68920 0.88640 -0.09400
C 	C 	0.32940 0.60670 0.89020 -0.09900
C 	C 	0.34930 0.54200 0.91410 -0.09400
C 	C 	0.52650 0.26880 0.99630 0.37500
C 	C 	0.47430 0.32450 0.99210 -0.16400
C 	C 	0.43430 0.33690 0.93880 0.09600
C 	C 	0.38090 0.38400 0.93980 -0.18800
C 	C 	0.36480 0.41960 0.99120 0.15800
C 	C 	0.40740 0.40710 0.04330 -0.19000
C 	C 	0.45950 0.35960 0.04450 0.09400
C 	C 	0.30140 0.46370 0.99050 -0.19600
C 	C 	0.32850 0.61090 0.37990 0.34800
C 	C 	0.29300 0.60320 0.31600 -0.12000
C 	C 	0.25290 0.65180 0.28780 0.07000
C 	C 	0.22420 0.64590 0.23050 -0.16300
C 	C 	0.23400 0.59110 0.19590 0.12500
C 	C 	0.27110 0.53880 0.22370 -0.14900
C 	C 	0.29740 0.54430 0.28340 0.05200
C 	C 	0.20370 0.58500 0.13250 -0.17400
C 	C 	0.89290 0.51790 0.01890 0.31700
C 	C 	0.94510 0.57130 0.00870 -0.12600
C 	C 	0.97380 0.58180 0.95170 0.06900
C 	C 	0.02550 0.62920 0.94080 -0.17700
C 	C 	0.04760 0.66880 0.98840 0.07600
C 	C 	0.01610 0.65980 0.04770 -0.14100
C 	C 	0.96440 0.61140 0.05660 0.05200
C 	C 	0.10620 0.71840 0.97820 -0.17800
C 	C 	0.33210 0.62790 0.59170 0.35400
C 	C 	0.29890 0.61510 0.65410 -0.13700
C 	C 	0.24900 0.65780 0.68010 0.07500
C 	C 	0.22040 0.64840 0.73860 -0.16800
C 	C 	0.24200 0.59580 0.77340 0.14100
C 	C 	0.28940 0.55320 0.74690 -0.17200
C 	C 	0.32050 0.56310 0.68870 0.07500
C 	C 	0.21070 0.58450 0.83590 -0.18400
N 	N 	0.25610 0.89370 0.58337 -0.15000
N 	N 	0.31690 0.96780 0.47842 -0.15700
N 	N 	0.18470 0.80681 0.48960 -0.16600
N 	N 	0.24950 0.88040 0.38791 -0.15900
N 	N 	0.74390 0.39370 0.91663 -0.15000
N 	N 	0.68310 0.46780 0.02158 -0.15700
N 	N 	0.81530 0.30681 0.01040 -0.16600
N 	N 	0.75050 0.38040 0.11209 -0.15900
N 	N 	0.74390 0.10630 0.41663 -0.15000
N 	N 	0.68310 0.03220 0.52158 -0.15700
N 	N 	0.81530 0.19319 0.51040 -0.16600
N 	N 	0.75050 0.11960 0.61209 -0.15900
N 	N 	0.25610 0.60630 0.08337 -0.15000
N 	N 	0.31690 0.53220 0.97842 -0.15700
N 	N 	0.18470 0.69319 0.98960 -0.16600
N 	N 	0.24950 0.61960 0.88791 -0.15900
O 	O 	0.51790 0.27690 0.45840 -0.39100
O 	O 	0.57360 0.23310 0.53360 -0.42300
O 	O 	0.35020 0.93830 0.90610 -0.34000
O 	O 	0.32840 0.83630 0.90062 -0.43500
O 	O 	0.86440 0.99327 0.57002 -0.37200
O 	O 	0.87530 0.01488 0.47126 -0.41100
O 	O 	0.31010 0.82520 0.06300 -0.39900
O 	O 	0.38080 0.90776 0.07123 -0.39400
O 	O 	0.48210 0.77690 0.04160 -0.39100
O 	O 	0.42640 0.73310 0.96640 -0.42400
O 	O 	0.64980 0.43830 0.59390 -0.34000
O 	O 	0.67160 0.33630 0.59938 -0.43500
O 	O 	0.13560 0.49327 0.92998 -0.37200
O 	O 	0.12470 0.51488 0.02874 -0.40900
O 	O 	0.68990 0.32520 0.43700 -0.40000
O 	O 	0.61920 0.40776 0.42877 -0.39500
O 	O 	0.48210 0.72310 0.54160 -0.39100
O 	O 	0.42640 0.76690 0.46640 -0.42300
O 	O 	0.64980 0.06170 0.09390 -0.34000
O 	O 	0.67160 0.16370 0.09938 -0.43500
O 	O 	0.13560 0.00673 0.42998 -0.37200
O 	O 	0.12470 0.98512 0.52874 -0.41100
O 	O 	0.68990 0.17480 0.93700 -0.39900
O 	O 	0.61920 0.09224 0.92877 -0.39400
O 	O 	0.51790 0.22310 0.95840 -0.39100
O 	O 	0.57360 0.26690 0.03360 -0.42400
O 	O 	0.35020 0.56170 0.40610 -0.34000
O 	O 	0.32840 0.66370 0.40062 -0.43500
O 	O 	0.86440 0.50673 0.07002 -0.37200
O 	O 	0.87530 0.48512 0.97126 -0.40900
O 	O 	0.31010 0.67480 0.56300 -0.40000
O 	O 	0.38080 0.59224 0.57123 -0.39500
