data_crystal

_cell_length_a 12.49030
_cell_length_b 12.49030
_cell_length_c 22.48550
_cell_angle_alpha 82.41790
_cell_angle_beta  81.50900
_cell_angle_gamma 119.77900

_symmetry_space_group_name_	'P 1'
_symmetry_space_group_name_H-M	'P 1'

loop_
_symmetry_equiv_pos_as_xyz
  x,y,z

loop_
_atom_site_label
_atom_site_type_symbol
_atom_site_fract_x
_atom_site_fract_y
_atom_site_fract_z
_atom_site_charge
Dy	Dy	0.90601 0.42845 0.13999 1.68000
Dy	Dy	0.93156 0.95400 0.63999 1.67800
Cu	Cu	0.42201 0.20861 0.92106 0.89800
Cu	Cu	0.37033 0.65693 0.42106 0.89800
H 	H 	0.30400 0.52530 0.98850 0.07700
H 	H 	0.43120 0.46750 0.93490 0.00600
H 	H 	0.05550 0.15550 0.06940 0.07200
H 	H 	0.01570 0.95870 0.07680 0.05900
H 	H 	0.15870 0.75360 0.02350 0.07000
H 	H 	0.33280 0.93500 0.96160 0.05000
H 	H 	0.38300 0.34760 0.71580 0.06100
H 	H 	0.18920 0.99660 0.87740 0.01600
H 	H 	0.10150 0.98690 0.79420 0.07800
H 	H 	0.55240 0.51290 0.72670 0.07200
H 	H 	0.80550 0.63870 0.83060 0.07800
H 	H 	0.68360 0.44570 0.90010 0.03000
H 	H 	0.98620 0.70750 0.48850 0.07500
H 	H 	0.09760 0.63390 0.43490 0.00700
H 	H 	0.27510 0.87510 0.56940 0.07300
H 	H 	0.46450 0.90750 0.57680 0.06000
H 	H 	0.72290 0.81780 0.52350 0.07100
H 	H 	0.60340 0.70560 0.46160 0.04900
H 	H 	0.43660 0.90120 0.21580 0.06100
H 	H 	0.62600 0.93340 0.37740 0.01600
H 	H 	0.71890 0.10430 0.29420 0.07500
H 	H 	0.26040 0.72090 0.22670 0.07200
H 	H 	0.03070 0.36390 0.33060 0.07800
H 	H 	0.15420 0.41630 0.40010 0.02900
C 	C 	0.07530 0.37710 0.06980 0.27500
C 	C 	0.16390 0.34600 0.03450 -0.00400
C 	C 	0.27850 0.44020 0.99410 -0.09500
C 	C 	0.35430 0.40450 0.96220 0.06300
C 	C 	0.13130 0.22020 0.04210 -0.08500
C 	C 	0.21240 0.19250 0.00890 0.05800
C 	C 	0.18720 0.06120 0.01460 0.03500
C 	C 	0.07930 0.95270 0.05300 -0.04500
C 	C 	0.16380 0.83090 0.02150 -0.03300
C 	C 	0.06720 0.83620 0.05560 -0.05300
C 	C 	0.26740 0.93970 0.98450 0.03500
C 	C 	0.94980 0.71440 0.09580 0.37900
C 	C 	0.17870 0.16140 0.68830 0.37300
C 	C 	0.23210 0.16590 0.74560 -0.03700
C 	C 	0.34230 0.27530 0.74820 -0.06100
C 	C 	0.39000 0.27430 0.79970 0.04900
C 	C 	0.22850 0.06780 0.84450 0.05300
C 	C 	0.17510 0.06120 0.79470 -0.06200
C 	C 	0.50960 0.38620 0.80540 0.04500
C 	C 	0.57990 0.50050 0.76180 -0.07600
C 	C 	0.69150 0.59620 0.77070 -0.01400
C 	C 	0.73070 0.57550 0.82360 -0.07600
C 	C 	0.65680 0.46010 0.86510 0.05000
C 	C 	0.77240 0.72220 0.72380 0.30200
C 	C 	0.05310 0.85490 0.56980 0.28000
C 	C 	0.11950 0.80160 0.53450 -0.00700
C 	C 	0.06570 0.72740 0.49410 -0.09000
C 	C 	0.13330 0.68350 0.46220 0.06100
C 	C 	0.23770 0.82660 0.54210 -0.08200
C 	C 	0.29860 0.77870 0.50890 0.05700
C 	C 	0.42420 0.79820 0.51460 0.04300
C 	C 	0.49430 0.86770 0.55300 -0.05300
C 	C 	0.64760 0.81470 0.52150 -0.03900
C 	C 	0.60820 0.87720 0.55560 -0.05100
C 	C 	0.57580 0.74810 0.48450 0.04000
C 	C 	0.68980 0.95440 0.59580 0.37900
C 	C 	0.65030 0.13300 0.18830 0.37400
C 	C 	0.58850 0.02230 0.24560 -0.03900
C 	C 	0.47650 0.90950 0.24820 -0.05900
C 	C 	0.42600 0.81030 0.29970 0.04800
C 	C 	0.58770 0.92700 0.34450 0.05200
C 	C 	0.64410 0.03020 0.29470 -0.05800
C 	C 	0.30840 0.68500 0.30540 0.04500
C 	C 	0.23770 0.65830 0.26180 -0.07700
C 	C 	0.13310 0.53780 0.27070 -0.01400
C 	C 	0.10090 0.44570 0.32360 -0.07700
C 	C 	0.17480 0.47810 0.36510 0.05000
C 	C 	0.05400 0.50380 0.22380 0.30200
N 	N 	0.32260 0.28370 0.96870 -0.19700
N 	N 	0.27905 0.05280 0.97975 -0.20200
N 	N 	0.33513 0.17310 0.84777 -0.20300
N 	N 	0.54717 0.36680 0.85723 -0.21200
N 	N 	0.24760 0.70870 0.46870 -0.19700
N 	N 	0.46745 0.74120 0.47975 -0.20400
N 	N 	0.47913 0.81710 0.34777 -0.20300
N 	N 	0.27597 0.59560 0.35723 -0.21200
Cl	Cl	0.56456 0.20695 0.97419 -0.44300
Cl	Cl	0.31886 0.46125 0.47419 -0.44300
O 	O 	0.09440 0.48786 0.05574 -0.36800
O 	O 	0.98410 0.29230 0.11320 -0.38000
O 	O 	0.87240 0.72060 0.13300 -0.29600
O 	O 	0.94297 0.61385 0.08618 -0.48000
O 	O 	0.07070 0.06720 0.69430 -0.47300
O 	O 	0.24430 0.24790 0.64120 -0.29000
O 	O 	0.73750 0.74190 0.67720 -0.38000
O 	O 	0.87440 0.80340 0.73320 -0.39800
O 	O 	0.95640 0.84986 0.55574 -0.37000
O 	O 	0.09450 0.90270 0.61320 -0.38100
O 	O 	0.64640 0.99460 0.63300 -0.29600
O 	O 	0.79997 0.97085 0.58618 -0.48000
O 	O 	0.73850 0.23500 0.19430 -0.47300
O 	O 	0.61090 0.11450 0.14120 -0.29100
O 	O 	0.08090 0.58530 0.17720 -0.38000
O 	O 	0.96340 0.39240 0.23320 -0.39700
Dy	Dy	0.06844 0.04600 0.36001 1.67700
Dy	Dy	0.09399 0.57155 0.86001 1.67900
Cu	Cu	0.62967 0.34307 0.57894 0.89800
Cu	Cu	0.57799 0.79139 0.07894 0.89800
H 	H 	0.01380 0.29250 0.51150 0.07500
H 	H 	0.90240 0.36610 0.56510 0.00700
H 	H 	0.72490 0.12490 0.43060 0.07300
H 	H 	0.53550 0.09250 0.42320 0.06000
H 	H 	0.27710 0.18220 0.47650 0.07100
H 	H 	0.39660 0.29440 0.53840 0.04900
H 	H 	0.56340 0.09880 0.78420 0.06100
H 	H 	0.37400 0.06660 0.62260 0.01600
H 	H 	0.28110 0.89570 0.70580 0.07500
H 	H 	0.73960 0.27910 0.77330 0.07200
H 	H 	0.96930 0.63610 0.66940 0.07800
H 	H 	0.84580 0.58370 0.59990 0.02900
H 	H 	0.69600 0.47470 0.01150 0.07700
H 	H 	0.56880 0.53250 0.06510 0.00600
H 	H 	0.94450 0.84450 0.93060 0.07200
H 	H 	0.98430 0.04130 0.92320 0.05900
H 	H 	0.84130 0.24640 0.97650 0.07000
H 	H 	0.66720 0.06500 0.03840 0.05000
H 	H 	0.61700 0.65240 0.28420 0.06100
H 	H 	0.81080 0.00340 0.12260 0.01600
H 	H 	0.89850 0.01310 0.20580 0.07800
H 	H 	0.44760 0.48710 0.27330 0.07200
H 	H 	0.19450 0.36130 0.16940 0.07800
H 	H 	0.31640 0.55430 0.09990 0.03000
C 	C 	0.94690 0.14510 0.43020 0.28000
C 	C 	0.88050 0.19840 0.46550 -0.00700
C 	C 	0.93430 0.27260 0.50590 -0.09000
C 	C 	0.86670 0.31650 0.53780 0.06100
C 	C 	0.76230 0.17340 0.45790 -0.08200
C 	C 	0.70140 0.22130 0.49110 0.05700
C 	C 	0.57580 0.20180 0.48540 0.04300
C 	C 	0.50570 0.13230 0.44700 -0.05300
C 	C 	0.35240 0.18530 0.47850 -0.03900
C 	C 	0.39180 0.12280 0.44440 -0.05100
C 	C 	0.42420 0.25190 0.51550 0.04000
C 	C 	0.31020 0.04560 0.40420 0.37900
C 	C 	0.34970 0.86700 0.81170 0.37400
C 	C 	0.41150 0.97770 0.75440 -0.03900
C 	C 	0.52350 0.09050 0.75180 -0.05900
C 	C 	0.57400 0.18970 0.70030 0.04800
C 	C 	0.41230 0.07300 0.65550 0.05200
C 	C 	0.35590 0.96980 0.70530 -0.05800
C 	C 	0.69160 0.31500 0.69460 0.04500
C 	C 	0.76230 0.34170 0.73820 -0.07700
C 	C 	0.86690 0.46220 0.72930 -0.01400
C 	C 	0.89910 0.55430 0.67640 -0.07700
C 	C 	0.82520 0.52190 0.63490 0.05000
C 	C 	0.94600 0.49620 0.77620 0.30200
C 	C 	0.92470 0.62290 0.93020 0.27500
C 	C 	0.83610 0.65400 0.96550 -0.00400
C 	C 	0.72150 0.55980 0.00590 -0.09500
C 	C 	0.64570 0.59550 0.03780 0.06300
C 	C 	0.86870 0.77980 0.95790 -0.08500
C 	C 	0.78760 0.80750 0.99110 0.05800
C 	C 	0.81280 0.93880 0.98540 0.03500
C 	C 	0.92070 0.04730 0.94700 -0.04500
C 	C 	0.83620 0.16910 0.97850 -0.03300
C 	C 	0.93280 0.16380 0.94440 -0.05300
C 	C 	0.73260 0.06030 0.01550 0.03500
C 	C 	0.05020 0.28560 0.90420 0.37900
C 	C 	0.82130 0.83860 0.31170 0.37300
C 	C 	0.76790 0.83410 0.25440 -0.03700
C 	C 	0.65770 0.72470 0.25180 -0.06100
C 	C 	0.61000 0.72570 0.20030 0.04900
C 	C 	0.77150 0.93220 0.15550 0.05300
C 	C 	0.82490 0.93880 0.20530 -0.06200
C 	C 	0.49040 0.61380 0.19460 0.04500
C 	C 	0.42010 0.49950 0.23820 -0.07600
C 	C 	0.30850 0.40380 0.22930 -0.01400
C 	C 	0.26930 0.42450 0.17640 -0.07600
C 	C 	0.34320 0.53990 0.13490 0.05000
C 	C 	0.22760 0.27780 0.27620 0.30200
N 	N 	0.75240 0.29130 0.53130 -0.19700
N 	N 	0.53255 0.25880 0.52025 -0.20400
N 	N 	0.52087 0.18290 0.65223 -0.20300
N 	N 	0.72403 0.40440 0.64277 -0.21200
N 	N 	0.67740 0.71630 0.03130 -0.19700
N 	N 	0.72095 0.94720 0.02025 -0.20200
N 	N 	0.66487 0.82690 0.15223 -0.20300
N 	N 	0.45283 0.63320 0.14277 -0.21200
Cl	Cl	0.68114 0.53875 0.52581 -0.44300
Cl	Cl	0.43544 0.79305 0.02581 -0.44300
O 	O 	0.04360 0.15014 0.44426 -0.37000
O 	O 	0.90550 0.09730 0.38680 -0.38100
O 	O 	0.35360 0.00540 0.36700 -0.29600
O 	O 	0.20003 0.02915 0.41382 -0.48000
O 	O 	0.26150 0.76500 0.80570 -0.47300
O 	O 	0.38910 0.88550 0.85880 -0.29100
O 	O 	0.91910 0.41470 0.82280 -0.38000
O 	O 	0.03660 0.60760 0.76680 -0.39700
O 	O 	0.90560 0.51214 0.94426 -0.36800
O 	O 	0.01590 0.70770 0.88680 -0.38000
O 	O 	0.12760 0.27940 0.86700 -0.29600
O 	O 	0.05703 0.38615 0.91382 -0.48000
O 	O 	0.92930 0.93280 0.30570 -0.47300
O 	O 	0.75570 0.75210 0.35880 -0.29000
O 	O 	0.26250 0.25810 0.32280 -0.38000
O 	O 	0.12560 0.19660 0.26680 -0.39800
