data_crystal

_cell_length_a 9.21330
_cell_length_b 14.51870
_cell_length_c 20.64860
_cell_angle_alpha 110.58300
_cell_angle_beta  97.67420
_cell_angle_gamma 90.00000

_symmetry_space_group_name_	'P 1'
_symmetry_space_group_name_H-M	'P 1'

loop_
_symmetry_equiv_pos_as_xyz
  x,y,z

loop_
_atom_site_label
_atom_site_type_symbol
_atom_site_fract_x
_atom_site_fract_y
_atom_site_fract_z
_atom_site_charge
Cd	Cd	0.60119 0.16238 0.79254 1.21700
Cd	Cd	0.89881 0.36984 0.20746 1.21700
Cd	Cd	0.39881 0.83762 0.20746 1.21600
Cd	Cd	0.10119 0.63016 0.79254 1.21600
H 	H 	0.53560 0.16770 0.55680 0.05400
H 	H 	0.50810 0.89770 0.56480 0.05200
H 	H 	0.14350 0.25740 0.88460 0.05200
H 	H 	0.50190 0.32820 0.02820 0.04900
H 	H 	0.88780 0.16030 0.71300 -0.00300
H 	H 	0.81600 0.37840 0.88000 0.03000
H 	H 	0.01500 0.43200 0.83280 0.03000
H 	H 	0.13630 0.35750 0.71940 0.08400
H 	H 	0.19280 0.26230 0.73160 0.08800
H 	H 	0.86290 0.28310 0.62620 0.08100
H 	H 	0.81110 0.20410 0.50720 0.03700
H 	H 	0.19760 0.07910 0.50660 0.04100
H 	H 	0.25040 0.15910 0.62500 0.08200
H 	H 	0.75290 0.06890 0.40480 0.04600
H 	H 	0.71120 0.00410 0.28480 0.06000
H 	H 	0.13850 0.02890 0.27820 0.06100
H 	H 	0.18170 0.09440 0.39780 0.04800
H 	H 	0.80630 0.92650 0.17340 0.08500
H 	H 	0.97450 0.93880 0.17040 0.06900
H 	H 	0.92420 0.17540 0.24660 0.00500
H 	H 	0.71580 0.15640 0.06320 0.02300
H 	H 	0.71250 0.98900 0.07200 0.03600
H 	H 	0.96440 0.61090 0.44320 0.05400
H 	H 	0.99190 0.33290 0.43520 0.05200
H 	H 	0.35650 0.37280 0.11540 0.05200
H 	H 	0.99810 0.30000 0.97180 0.04900
H 	H 	0.61220 0.44730 0.28700 -0.00300
H 	H 	0.68400 0.49840 0.12000 0.03000
H 	H 	0.48500 0.59920 0.16720 0.03000
H 	H 	0.36370 0.63810 0.28060 0.08400
H 	H 	0.30720 0.53070 0.26840 0.08800
H 	H 	0.63710 0.65690 0.37380 0.08100
H 	H 	0.68890 0.69690 0.49280 0.03700
H 	H 	0.30240 0.57250 0.49340 0.04100
H 	H 	0.24960 0.53410 0.37500 0.08200
H 	H 	0.74710 0.66410 0.59520 0.04600
H 	H 	0.78880 0.71930 0.71520 0.06000
H 	H 	0.36150 0.75070 0.72180 0.06100
H 	H 	0.31830 0.69660 0.60220 0.04800
H 	H 	0.69370 0.75310 0.82660 0.08500
H 	H 	0.52550 0.76840 0.82960 0.06900
H 	H 	0.57580 0.92880 0.75340 0.00500
H 	H 	0.78420 0.09320 0.93680 0.02300
H 	H 	0.78750 0.91700 0.92800 0.03600
H 	H 	0.46440 0.83230 0.44320 0.05400
H 	H 	0.49190 0.10230 0.43520 0.05200
H 	H 	0.85650 0.74260 0.11540 0.05200
H 	H 	0.49810 0.67180 0.97180 0.04900
H 	H 	0.11220 0.83970 0.28700 -0.00300
H 	H 	0.18400 0.62160 0.12000 0.03000
H 	H 	0.98500 0.56800 0.16720 0.03000
H 	H 	0.86370 0.64250 0.28060 0.08400
H 	H 	0.80720 0.73770 0.26840 0.08800
H 	H 	0.13710 0.71690 0.37380 0.08100
H 	H 	0.18890 0.79590 0.49280 0.03700
H 	H 	0.80240 0.92090 0.49340 0.04100
H 	H 	0.74960 0.84090 0.37500 0.08200
H 	H 	0.24710 0.93110 0.59520 0.04600
H 	H 	0.28880 0.99590 0.71520 0.06000
H 	H 	0.86150 0.97110 0.72180 0.06100
H 	H 	0.81830 0.90560 0.60220 0.04800
H 	H 	0.19370 0.07350 0.82660 0.08500
H 	H 	0.02550 0.06120 0.82960 0.06900
H 	H 	0.07580 0.82460 0.75340 0.00500
H 	H 	0.28420 0.84360 0.93680 0.02300
H 	H 	0.28750 0.01100 0.92800 0.03600
H 	H 	0.03560 0.38910 0.55680 0.05400
H 	H 	0.00810 0.66710 0.56480 0.05200
H 	H 	0.64350 0.62720 0.88460 0.05200
H 	H 	0.00190 0.70000 0.02820 0.04900
H 	H 	0.38780 0.55270 0.71300 -0.00300
H 	H 	0.31600 0.50160 0.88000 0.03000
H 	H 	0.51500 0.40080 0.83280 0.03000
H 	H 	0.63630 0.36190 0.71940 0.08400
H 	H 	0.69280 0.46930 0.73160 0.08800
H 	H 	0.36290 0.34310 0.62620 0.08100
H 	H 	0.31110 0.30310 0.50720 0.03700
H 	H 	0.69760 0.42750 0.50660 0.04100
H 	H 	0.75040 0.46590 0.62500 0.08200
H 	H 	0.25290 0.33590 0.40480 0.04600
H 	H 	0.21120 0.28070 0.28480 0.06000
H 	H 	0.63850 0.24930 0.27820 0.06100
H 	H 	0.68170 0.30340 0.39780 0.04800
H 	H 	0.30630 0.24690 0.17340 0.08500
H 	H 	0.47450 0.23160 0.17040 0.06900
H 	H 	0.42420 0.07120 0.24660 0.00500
H 	H 	0.21580 0.90680 0.06320 0.02300
H 	H 	0.21250 0.08300 0.07200 0.03600
C 	C 	0.54670 0.08372 0.65124 0.29900
C 	C 	0.52350 0.03953 0.57226 -0.05800
C 	C 	0.52070 0.10000 0.53400 -0.03000
C 	C 	0.50440 0.93907 0.53894 -0.03100
C 	C 	0.43220 0.25393 0.89066 0.29500
C 	C 	0.33710 0.28771 0.94682 -0.06000
C 	C 	0.18680 0.28011 0.93102 -0.02800
C 	C 	0.40030 0.32268 0.01676 -0.02500
C 	C 	0.89540 0.22114 0.74928 0.07800
C 	C 	0.85570 0.34073 0.84046 0.00300
C 	C 	0.96590 0.37045 0.81470 -0.00900
C 	C 	0.10770 0.29074 0.71428 -0.15700
C 	C 	0.06380 0.23267 0.63854 0.10600
C 	C 	0.93180 0.24332 0.60224 -0.11600
C 	C 	0.90070 0.19574 0.53068 -0.01400
C 	C 	0.00170 0.13499 0.49278 -0.01100
C 	C 	0.13060 0.12146 0.53012 -0.01000
C 	C 	0.16220 0.16927 0.60134 -0.12300
C 	C 	0.97300 0.09052 0.41604 0.00800
C 	C 	0.83170 0.06159 0.37978 -0.03300
C 	C 	0.80650 0.02234 0.30768 -0.09100
C 	C 	0.92070 0.00984 0.26908 0.08000
C 	C 	0.06020 0.03710 0.30360 -0.09600
C 	C 	0.08590 0.07658 0.37556 -0.03000
C 	C 	0.89070 0.97282 0.18964 -0.13700
C 	C 	0.88660 0.14957 0.19934 0.09100
C 	C 	0.76240 0.13890 0.10140 -0.00700
C 	C 	0.76740 0.04720 0.10360 -0.01000
C 	C 	0.95330 0.43248 0.34876 0.29900
C 	C 	0.97650 0.46727 0.42774 -0.05800
C 	C 	0.97930 0.56600 0.46600 -0.03000
C 	C 	0.99560 0.40013 0.46106 -0.03000
C 	C 	0.06780 0.36327 0.10934 0.29500
C 	C 	0.16290 0.34089 0.05318 -0.05900
C 	C 	0.31320 0.34909 0.06898 -0.02800
C 	C 	0.09970 0.30592 0.98324 -0.02500
C 	C 	0.60460 0.47186 0.25072 0.07800
C 	C 	0.64430 0.50027 0.15954 0.00400
C 	C 	0.53410 0.55575 0.18530 -0.00900
C 	C 	0.39230 0.57646 0.28572 -0.15700
C 	C 	0.43620 0.59413 0.36146 0.10600
C 	C 	0.56820 0.64108 0.39776 -0.11700
C 	C 	0.59930 0.66506 0.46932 -0.01300
C 	C 	0.49830 0.64221 0.50722 -0.01200
C 	C 	0.36940 0.59134 0.46988 -0.01000
C 	C 	0.33780 0.56793 0.39866 -0.12300
C 	C 	0.52700 0.67448 0.58396 0.00900
C 	C 	0.66830 0.68181 0.62022 -0.03300
C 	C 	0.69350 0.71466 0.69232 -0.09100
C 	C 	0.57930 0.74076 0.73092 0.08100
C 	C 	0.43980 0.73350 0.69640 -0.09700
C 	C 	0.41410 0.70102 0.62444 -0.03000
C 	C 	0.60930 0.78318 0.81036 -0.13700
C 	C 	0.61340 0.95023 0.80066 0.09100
C 	C 	0.73760 0.03750 0.89860 -0.00700
C 	C 	0.73260 0.94360 0.89640 -0.01000
C 	C 	0.45330 0.91628 0.34876 0.29900
C 	C 	0.47650 0.96047 0.42774 -0.05800
C 	C 	0.47930 0.90000 0.46600 -0.03000
C 	C 	0.49560 0.06093 0.46106 -0.03100
C 	C 	0.56780 0.74607 0.10934 0.29500
C 	C 	0.66290 0.71229 0.05318 -0.06000
C 	C 	0.81320 0.71989 0.06898 -0.02800
C 	C 	0.59970 0.67732 0.98324 -0.02500
C 	C 	0.10460 0.77886 0.25072 0.07800
C 	C 	0.14430 0.65927 0.15954 0.00300
C 	C 	0.03410 0.62955 0.18530 -0.00900
C 	C 	0.89230 0.70926 0.28572 -0.15700
C 	C 	0.93620 0.76733 0.36146 0.10600
C 	C 	0.06820 0.75668 0.39776 -0.11600
C 	C 	0.09930 0.80426 0.46932 -0.01400
C 	C 	0.99830 0.86501 0.50722 -0.01100
C 	C 	0.86940 0.87854 0.46988 -0.01000
C 	C 	0.83780 0.83073 0.39866 -0.12300
C 	C 	0.02700 0.90948 0.58396 0.00800
C 	C 	0.16830 0.93841 0.62022 -0.03300
C 	C 	0.19350 0.97766 0.69232 -0.09100
C 	C 	0.07930 0.99016 0.73092 0.08000
C 	C 	0.93980 0.96290 0.69640 -0.09600
C 	C 	0.91410 0.92342 0.62444 -0.03000
C 	C 	0.10930 0.02718 0.81036 -0.13700
C 	C 	0.11340 0.85043 0.80066 0.09100
C 	C 	0.23760 0.86110 0.89860 -0.00700
C 	C 	0.23260 0.95280 0.89640 -0.01000
C 	C 	0.04670 0.56752 0.65124 0.29900
C 	C 	0.02350 0.53273 0.57226 -0.05800
C 	C 	0.02070 0.43400 0.53400 -0.03000
C 	C 	0.00440 0.59987 0.53894 -0.03000
C 	C 	0.93220 0.63673 0.89066 0.29500
C 	C 	0.83710 0.65911 0.94682 -0.05900
C 	C 	0.68680 0.65091 0.93102 -0.02800
C 	C 	0.90030 0.69408 0.01676 -0.02500
C 	C 	0.39540 0.52814 0.74928 0.07800
C 	C 	0.35570 0.49973 0.84046 0.00400
C 	C 	0.46590 0.44425 0.81470 -0.00900
C 	C 	0.60770 0.42354 0.71428 -0.15700
C 	C 	0.56380 0.40587 0.63854 0.10600
C 	C 	0.43180 0.35892 0.60224 -0.11700
C 	C 	0.40070 0.33494 0.53068 -0.01300
C 	C 	0.50170 0.35779 0.49278 -0.01200
C 	C 	0.63060 0.40866 0.53012 -0.01000
C 	C 	0.66220 0.43207 0.60134 -0.12300
C 	C 	0.47300 0.32552 0.41604 0.00900
C 	C 	0.33170 0.31819 0.37978 -0.03300
C 	C 	0.30650 0.28534 0.30768 -0.09100
C 	C 	0.42070 0.25924 0.26908 0.08100
C 	C 	0.56020 0.26650 0.30360 -0.09700
C 	C 	0.58590 0.29898 0.37556 -0.03000
C 	C 	0.39070 0.21682 0.18964 -0.13700
C 	C 	0.38660 0.04977 0.19934 0.09100
C 	C 	0.26240 0.96250 0.10140 -0.00700
C 	C 	0.26740 0.05640 0.10360 -0.01000
N 	N 	0.81170 0.24631 0.79922 -0.23700
N 	N 	0.99260 0.29409 0.75718 -0.10000
N 	N 	0.85500 0.20516 0.16312 -0.23600
N 	N 	0.86280 0.05482 0.16584 -0.10500
N 	N 	0.68830 0.44709 0.20078 -0.23700
N 	N 	0.50740 0.53691 0.24282 -0.10000
N 	N 	0.64500 0.04204 0.83688 -0.23600
N 	N 	0.63720 0.88898 0.83416 -0.10500
N 	N 	0.18830 0.75369 0.20078 -0.23700
N 	N 	0.00740 0.70591 0.24282 -0.10000
N 	N 	0.14500 0.79484 0.83688 -0.23600
N 	N 	0.13720 0.94518 0.83416 -0.10500
N 	N 	0.31170 0.55291 0.79922 -0.23700
N 	N 	0.49260 0.46309 0.75718 -0.10000
N 	N 	0.35500 0.95796 0.16312 -0.23600
N 	N 	0.36280 0.11102 0.16584 -0.10500
O 	O 	0.57720 0.02840 0.68500 -0.38600
O 	O 	0.53390 0.17423 0.68046 -0.38200
O 	O 	0.56540 0.27746 0.90352 -0.37800
O 	O 	0.37400 0.20092 0.82944 -0.38800
O 	O 	0.92280 0.34340 0.31500 -0.38600
O 	O 	0.96610 0.49377 0.31954 -0.38200
O 	O 	0.93460 0.37394 0.09648 -0.37800
O 	O 	0.12600 0.37148 0.17056 -0.38800
O 	O 	0.42280 0.97160 0.31500 -0.38600
O 	O 	0.46610 0.82577 0.31954 -0.38200
O 	O 	0.43460 0.72254 0.09648 -0.37800
O 	O 	0.62600 0.79908 0.17056 -0.38800
O 	O 	0.07720 0.65660 0.68500 -0.38600
O 	O 	0.03390 0.50623 0.68046 -0.38200
O 	O 	0.06540 0.62606 0.90352 -0.37800
O 	O 	0.87400 0.62852 0.82944 -0.38800
