data_crystal

_cell_length_a 12.26240
_cell_length_b 12.26240
_cell_length_c 16.37500
_cell_angle_alpha 77.62670
_cell_angle_beta  70.52710
_cell_angle_gamma 105.58600

_symmetry_space_group_name_	'P 1'
_symmetry_space_group_name_H-M	'P 1'

loop_
_symmetry_equiv_pos_as_xyz
  x,y,z

loop_
_atom_site_label
_atom_site_type_symbol
_atom_site_fract_x
_atom_site_fract_y
_atom_site_fract_z
_atom_site_charge
Cd	Cd	0.83095 0.45691 0.36856 1.21100
Cd	Cd	0.32547 0.19951 0.13144 1.21200
Cd	Cd	0.16905 0.54309 0.63144 1.21200
Cd	Cd	0.67453 0.80049 0.86856 1.21300
H 	H 	0.14530 0.68810 0.41640 0.00600
H 	H 	0.29710 0.84580 0.42610 0.06400
H 	H 	0.36180 0.04030 0.32050 0.03700
H 	H 	0.55290 0.28660 0.50990 0.00000
H 	H 	0.75550 0.58550 0.51720 0.01700
H 	H 	0.55830 0.51570 0.64140 0.05300
H 	H 	0.35870 0.23550 0.62720 0.05400
H 	H 	0.33360 0.33420 0.66980 0.04400
H 	H 	0.41160 0.27180 0.78100 0.07100
H 	H 	0.30150 0.16260 0.79090 0.07200
H 	H 	0.05270 0.94400 0.44630 0.07200
H 	H 	0.12340 0.05560 0.46480 0.07200
H 	H 	0.12690 0.12160 0.31750 0.01300
H 	H 	0.98260 0.06040 0.35580 0.04200
H 	H 	0.86720 0.19610 0.37590 0.00400
H 	H 	0.11160 0.47460 0.37480 0.00500
H 	H 	0.20030 0.32040 0.37050 0.05300
H 	H 	0.60450 0.56170 0.08360 0.00600
H 	H 	0.77190 0.72320 0.07390 0.06500
H 	H 	0.86080 0.68230 0.17950 0.03400
H 	H 	0.29650 0.06280 0.99010 0.00000
H 	H 	0.60270 0.27270 0.98280 0.01800
H 	H 	0.65710 0.19970 0.85860 0.05300
H 	H 	0.36270 0.98590 0.87280 0.05400
H 	H 	0.50400 0.00340 0.83020 0.04400
H 	H 	0.55280 0.19260 0.71900 0.07100
H 	H 	0.45350 0.09240 0.70910 0.07200
H 	H 	0.89030 0.49900 0.05370 0.07400
H 	H 	0.02040 0.58820 0.03520 0.07200
H 	H 	0.93910 0.44440 0.18250 0.01400
H 	H 	0.91620 0.33840 0.14420 0.04500
H 	H 	0.07200 0.24310 0.12410 0.00500
H 	H 	0.34940 0.48640 0.12520 0.00500
H 	H 	0.19090 0.57080 0.12950 0.05200
H 	H 	0.85470 0.31190 0.58360 0.00600
H 	H 	0.70290 0.15420 0.57390 0.06400
H 	H 	0.63820 0.95970 0.67950 0.03700
H 	H 	0.44710 0.71340 0.49010 0.00000
H 	H 	0.24450 0.41450 0.48280 0.01700
H 	H 	0.44170 0.48430 0.35860 0.05300
H 	H 	0.64130 0.76450 0.37280 0.05400
H 	H 	0.66640 0.66580 0.33020 0.04400
H 	H 	0.58840 0.72820 0.21900 0.07100
H 	H 	0.69850 0.83740 0.20910 0.07200
H 	H 	0.94730 0.05600 0.55370 0.07200
H 	H 	0.87660 0.94440 0.53520 0.07200
H 	H 	0.87310 0.87840 0.68250 0.01300
H 	H 	0.01740 0.93960 0.64420 0.04200
H 	H 	0.13280 0.80390 0.62410 0.00400
H 	H 	0.88840 0.52540 0.62520 0.00500
H 	H 	0.79970 0.67960 0.62950 0.05300
H 	H 	0.39550 0.43830 0.91640 0.00600
H 	H 	0.22810 0.27680 0.92610 0.06500
H 	H 	0.13920 0.31770 0.82050 0.03400
H 	H 	0.70350 0.93720 0.00990 0.00000
H 	H 	0.39730 0.72730 0.01720 0.01800
H 	H 	0.34290 0.80030 0.14140 0.05300
H 	H 	0.63730 0.01410 0.12720 0.05400
H 	H 	0.49600 0.99660 0.16980 0.04400
H 	H 	0.44720 0.80740 0.28100 0.07100
H 	H 	0.54650 0.90760 0.29090 0.07200
H 	H 	0.10970 0.50100 0.94630 0.07400
H 	H 	0.97960 0.41180 0.96480 0.07200
H 	H 	0.06090 0.55560 0.81750 0.01400
H 	H 	0.08380 0.66160 0.85580 0.04500
H 	H 	0.92800 0.75690 0.87590 0.00500
H 	H 	0.65060 0.51360 0.87480 0.00500
H 	H 	0.80910 0.42920 0.87050 0.05200
C 	C 	0.02680 0.68960 0.30680 0.46900
C 	C 	0.12260 0.79720 0.31060 -0.10800
C 	C 	0.17280 0.76690 0.37810 0.02800
C 	C 	0.26310 0.85940 0.38370 -0.09900
C 	C 	0.30020 0.97820 0.31900 0.02100
C 	C 	0.15910 0.92180 0.24790 0.00400
C 	C 	0.10380 0.96680 0.18240 0.22600
C 	C 	0.57730 0.35220 0.52850 0.10200
C 	C 	0.68880 0.51550 0.53230 0.04000
C 	C 	0.58320 0.47870 0.59830 -0.03000
C 	C 	0.38890 0.29060 0.65630 -0.04600
C 	C 	0.38710 0.21500 0.75130 -0.10500
C 	C 	0.04760 0.01680 0.45880 -0.10100
C 	C 	0.04930 0.10450 0.36900 -0.02800
C 	C 	0.93920 0.24700 0.37520 0.08400
C 	C 	0.07230 0.39830 0.37480 0.03100
C 	C 	0.12240 0.31430 0.37210 -0.01900
C 	C 	0.49640 0.33360 0.19320 0.47100
C 	C 	0.60780 0.43320 0.18940 -0.10900
C 	C 	0.64500 0.55090 0.12190 0.03000
C 	C 	0.74310 0.64680 0.11630 -0.10200
C 	C 	0.79720 0.61920 0.18100 0.02600
C 	C 	0.66970 0.40700 0.25210 0.00500
C 	C 	0.64920 0.28620 0.31760 0.22900
C 	C 	0.38070 0.10580 0.97150 0.10000
C 	C 	0.54780 0.22110 0.96770 0.03900
C 	C 	0.57700 0.18150 0.90170 -0.02900
C 	C 	0.44690 0.04520 0.84370 -0.04700
C 	C 	0.46630 0.13840 0.74870 -0.10500
C 	C 	0.97560 0.50640 0.04120 -0.10400
C 	C 	0.97350 0.41830 0.13100 -0.03300
C 	C 	0.12220 0.31440 0.12480 0.08600
C 	C 	0.27310 0.44710 0.12520 0.03000
C 	C 	0.18640 0.49450 0.12790 -0.01900
C 	C 	0.97320 0.31040 0.69320 0.46900
C 	C 	0.87740 0.20280 0.68940 -0.10800
C 	C 	0.82720 0.23310 0.62190 0.02800
C 	C 	0.73690 0.14060 0.61630 -0.09900
C 	C 	0.69980 0.02180 0.68100 0.02100
C 	C 	0.84090 0.07820 0.75210 0.00400
C 	C 	0.89620 0.03320 0.81760 0.22600
C 	C 	0.42270 0.64780 0.47150 0.10200
C 	C 	0.31120 0.48450 0.46770 0.04000
C 	C 	0.41680 0.52130 0.40170 -0.03000
C 	C 	0.61110 0.70940 0.34370 -0.04600
C 	C 	0.61290 0.78500 0.24870 -0.10500
C 	C 	0.95240 0.98320 0.54120 -0.10100
C 	C 	0.95070 0.89550 0.63100 -0.02800
C 	C 	0.06080 0.75300 0.62480 0.08400
C 	C 	0.92770 0.60170 0.62520 0.03100
C 	C 	0.87760 0.68570 0.62790 -0.01900
C 	C 	0.50360 0.66640 0.80680 0.47100
C 	C 	0.39220 0.56680 0.81060 -0.10900
C 	C 	0.35500 0.44910 0.87810 0.03000
C 	C 	0.25690 0.35320 0.88370 -0.10200
C 	C 	0.20280 0.38080 0.81900 0.02600
C 	C 	0.33030 0.59300 0.74790 0.00500
C 	C 	0.35080 0.71380 0.68240 0.22900
C 	C 	0.61930 0.89420 0.02850 0.10000
C 	C 	0.45220 0.77890 0.03230 0.03900
C 	C 	0.42300 0.81850 0.09830 -0.02900
C 	C 	0.55310 0.95480 0.15630 -0.04700
C 	C 	0.53370 0.86160 0.25130 -0.10500
C 	C 	0.02440 0.49360 0.95880 -0.10400
C 	C 	0.02650 0.58170 0.86900 -0.03300
C 	C 	0.87780 0.68560 0.87520 0.08600
C 	C 	0.72690 0.55290 0.87480 0.03000
C 	C 	0.81360 0.50550 0.87210 -0.01900
N 	N 	0.68770 0.43900 0.48950 -0.26700
N 	N 	0.51180 0.37370 0.59450 -0.11800
N 	N 	0.03710 0.21940 0.37210 -0.11600
N 	N 	0.95840 0.35770 0.37750 -0.24300
N 	N 	0.25110 0.00870 0.25320 -0.19800
N 	N 	0.42850 0.17720 0.01050 -0.26600
N 	N 	0.46820 0.10630 0.90550 -0.11800
N 	N 	0.09150 0.40920 0.12790 -0.11600
N 	N 	0.23520 0.33590 0.12250 -0.24300
N 	N 	0.76190 0.50430 0.24680 -0.20000
N 	N 	0.31230 0.56100 0.51050 -0.26700
N 	N 	0.48820 0.62630 0.40550 -0.11800
N 	N 	0.96290 0.78060 0.62790 -0.11600
N 	N 	0.04160 0.64230 0.62250 -0.24300
N 	N 	0.74890 0.99130 0.74680 -0.19800
N 	N 	0.57150 0.82280 0.98950 -0.26600
N 	N 	0.53180 0.89370 0.09450 -0.11800
N 	N 	0.90850 0.59080 0.87210 -0.11600
N 	N 	0.76480 0.66410 0.87750 -0.24300
N 	N 	0.23810 0.49570 0.75320 -0.20000
O 	O 	0.93290 0.63770 0.36940 -0.48200
O 	O 	0.05310 0.66030 0.24160 -0.37800
O 	O 	0.15350 0.07330 0.11840 -0.34500
O 	O 	0.00300 0.89530 0.19010 -0.21300
O 	O 	0.50710 0.30230 0.13060 -0.48300
O 	O 	0.40190 0.29470 0.25840 -0.37800
O 	O 	0.69170 0.27190 0.38160 -0.34800
O 	O 	0.58540 0.19310 0.30990 -0.21200
O 	O 	0.06710 0.36230 0.63060 -0.48200
O 	O 	0.94690 0.33970 0.75840 -0.37800
O 	O 	0.84650 0.92670 0.88160 -0.34500
O 	O 	0.99700 0.10470 0.80990 -0.21300
O 	O 	0.49290 0.69770 0.86940 -0.48300
O 	O 	0.59810 0.70530 0.74160 -0.37800
O 	O 	0.30830 0.72810 0.61840 -0.34800
O 	O 	0.41460 0.80690 0.69010 -0.21200
