data_crystal

_cell_length_a 13.84000
_cell_length_b 15.65270
_cell_length_c 20.32820
_cell_angle_alpha 73.33680
_cell_angle_beta  70.09790
_cell_angle_gamma 63.76240

_symmetry_space_group_name_	'P 1'
_symmetry_space_group_name_H-M	'P 1'

loop_
_symmetry_equiv_pos_as_xyz
  x,y,z

loop_
_atom_site_label
_atom_site_type_symbol
_atom_site_fract_x
_atom_site_fract_y
_atom_site_fract_z
_atom_site_charge
Co	Co	0.02502 0.08519 0.50505 1.15900
Co	Co	0.76954 0.14544 0.55664 1.15700
Co	Co	0.61526 0.41481 0.99495 1.16100
Co	Co	0.47162 0.35456 0.94336 1.15700
Co	Co	0.97498 0.91481 0.49495 1.15900
Co	Co	0.23046 0.85456 0.44336 1.15700
Co	Co	0.38474 0.58519 0.00505 1.16100
Co	Co	0.52838 0.64544 0.05664 1.15700
H 	H 	0.65920 0.18710 0.44030 0.00800
H 	H 	0.50700 0.17980 0.42520 0.08400
H 	H 	0.39470 0.13490 0.63670 0.07800
H 	H 	0.55290 0.13860 0.64620 0.00000
H 	H 	0.23350 0.17310 0.61830 0.07500
H 	H 	0.09220 0.14350 0.60770 0.00400
H 	H 	0.25910 0.07070 0.42110 0.00300
H 	H 	0.40610 0.09810 0.42590 0.08500
H 	H 	0.18000 0.21560 0.30780 0.00800
H 	H 	0.23630 0.32440 0.21680 0.11500
H 	H 	0.10760 0.44960 0.16020 -0.01400
H 	H 	0.92690 0.46320 0.19160 0.13200
H 	H 	0.44780 0.38530 0.38870 0.14600
H 	H 	0.28050 0.36840 0.41640 -0.01200
H 	H 	0.18030 0.42170 0.33070 0.10200
H 	H 	0.24440 0.49910 0.22130 0.00100
H 	H 	0.00600 0.36130 0.46550 -0.00400
H 	H 	0.00780 0.51380 0.41580 0.11100
H 	H 	0.84400 0.64220 0.40520 -0.02900
H 	H 	0.68080 0.62020 0.43720 0.15100
H 	H 	0.81200 0.32240 0.33140 0.17600
H 	H 	0.57180 0.48840 0.22940 0.17500
H 	H 	0.64810 0.40380 0.51300 0.18600
H 	H 	0.28660 0.31290 0.05970 0.00800
H 	H 	0.11200 0.32020 0.07480 0.08300
H 	H 	0.16630 0.36510 0.86330 0.07700
H 	H 	0.33770 0.36140 0.85380 0.00100
H 	H 	0.02490 0.32690 0.88170 0.07300
H 	H 	0.84340 0.35650 0.89230 0.00700
H 	H 	0.75090 0.42930 0.07890 0.00300
H 	H 	0.93010 0.40190 0.07410 0.08500
H 	H 	0.70340 0.28440 0.19220 0.01000
H 	H 	0.77750 0.17560 0.28320 0.11400
H 	H 	0.71740 0.05040 0.33980 -0.01300
H 	H 	0.58170 0.03680 0.30840 0.13100
H 	H 	0.22180 0.11470 0.11130 0.14100
H 	H 	0.06530 0.13160 0.08360 -0.00400
H 	H 	0.93270 0.07830 0.16930 0.09200
H 	H 	0.96480 0.00090 0.27870 0.01400
H 	H 	0.83280 0.13870 0.03450 -0.00600
H 	H 	0.93740 0.98620 0.08420 0.11400
H 	H 	0.89140 0.85780 0.09480 -0.03400
H 	H 	0.73820 0.87980 0.06280 0.15600
H 	H 	0.46580 0.17760 0.16860 0.17600
H 	H 	0.28960 0.01160 0.27060 0.17400
H 	H 	0.56490 0.09620 0.98700 0.18500
H 	H 	0.34080 0.81290 0.55970 0.00800
H 	H 	0.49300 0.82020 0.57480 0.08400
H 	H 	0.60530 0.86510 0.36330 0.07800
H 	H 	0.44710 0.86140 0.35380 0.00000
H 	H 	0.76650 0.82690 0.38170 0.07500
H 	H 	0.90780 0.85650 0.39230 0.00400
H 	H 	0.74090 0.92930 0.57890 0.00300
H 	H 	0.59390 0.90190 0.57410 0.08500
H 	H 	0.82000 0.78440 0.69220 0.00800
H 	H 	0.76370 0.67560 0.78320 0.11500
H 	H 	0.89240 0.55040 0.83980 -0.01400
H 	H 	0.07310 0.53680 0.80840 0.13200
H 	H 	0.55220 0.61470 0.61130 0.14600
H 	H 	0.71950 0.63160 0.58360 -0.01200
H 	H 	0.81970 0.57830 0.66930 0.10200
H 	H 	0.75560 0.50090 0.77870 0.00100
H 	H 	0.99400 0.63870 0.53450 -0.00400
H 	H 	0.99220 0.48620 0.58420 0.11100
H 	H 	0.15600 0.35780 0.59480 -0.02900
H 	H 	0.31920 0.37980 0.56280 0.15100
H 	H 	0.18800 0.67760 0.66860 0.17600
H 	H 	0.42820 0.51160 0.77060 0.17500
H 	H 	0.35190 0.59620 0.48700 0.18600
H 	H 	0.71340 0.68710 0.94030 0.00800
H 	H 	0.88800 0.67980 0.92520 0.08300
H 	H 	0.83370 0.63490 0.13670 0.07700
H 	H 	0.66230 0.63860 0.14620 0.00100
H 	H 	0.97510 0.67310 0.11830 0.07300
H 	H 	0.15660 0.64350 0.10770 0.00700
H 	H 	0.24910 0.57070 0.92110 0.00300
H 	H 	0.06990 0.59810 0.92590 0.08500
H 	H 	0.29660 0.71560 0.80780 0.01000
H 	H 	0.22250 0.82440 0.71680 0.11400
H 	H 	0.28260 0.94960 0.66020 -0.01300
H 	H 	0.41830 0.96320 0.69160 0.13100
H 	H 	0.77820 0.88530 0.88870 0.14100
H 	H 	0.93470 0.86840 0.91640 -0.00400
H 	H 	0.06730 0.92170 0.83070 0.09200
H 	H 	0.03520 0.99910 0.72130 0.01400
H 	H 	0.16720 0.86130 0.96550 -0.00600
H 	H 	0.06260 0.01380 0.91580 0.11400
H 	H 	0.10860 0.14220 0.90520 -0.03400
H 	H 	0.26180 0.12020 0.93720 0.15600
H 	H 	0.53420 0.82240 0.83140 0.17600
H 	H 	0.71040 0.98840 0.72940 0.17400
H 	H 	0.43510 0.90380 0.01300 0.18500
C 	C 	0.60644 0.17412 0.48020 0.08400
C 	C 	0.51505 0.17020 0.47070 -0.13100
C 	C 	0.43422 0.15174 0.52962 0.05600
C 	C 	0.44894 0.14294 0.59598 -0.12900
C 	C 	0.54382 0.14626 0.60130 0.08600
C 	C 	0.33874 0.13783 0.52309 0.05300
C 	C 	0.24106 0.15178 0.57790 -0.13300
C 	C 	0.15652 0.13376 0.57100 0.08200
C 	C 	0.25464 0.09092 0.46120 0.07100
C 	C 	0.34346 0.10738 0.46370 -0.12700
C 	C 	0.98970 0.19519 0.36321 0.37100
C 	C 	0.01967 0.27062 0.30444 -0.19800
C 	C 	0.12852 0.26486 0.28430 0.12400
C 	C 	0.16250 0.33040 0.23020 -0.19900
C 	C 	0.08570 0.40480 0.19620 0.13500
C 	C 	0.97750 0.41290 0.21510 -0.23800
C 	C 	0.94193 0.34674 0.26920 0.22000
C 	C 	0.74723 0.41314 0.26000 0.17900
C 	C 	0.63692 0.40356 0.30340 0.17200
C 	C 	0.45040 0.44810 0.28690 0.23300
C 	C 	0.40810 0.40680 0.35440 -0.24400
C 	C 	0.30760 0.39710 0.37110 0.13800
C 	C 	0.24670 0.43020 0.32020 -0.20100
C 	C 	0.28630 0.47520 0.25460 0.13100
C 	C 	0.38673 0.48641 0.23613 -0.20900
C 	C 	0.41809 0.54055 0.16387 0.40300
C 	C 	0.84901 0.29608 0.51030 0.42200
C 	C 	0.84085 0.39740 0.48130 -0.22900
C 	C 	0.94000 0.41310 0.45990 0.14400
C 	C 	0.94130 0.50440 0.43060 -0.22700
C 	C 	0.84360 0.58060 0.42360 0.17200
C 	C 	0.74580 0.56780 0.44320 -0.27200
C 	C 	0.74236 0.47668 0.47220 0.24800
C 	C 	0.54181 0.52448 0.48550 0.18300
C 	C 	0.26076 0.32588 0.01980 0.08400
C 	C 	0.15595 0.32980 0.02930 -0.13000
C 	C 	0.11558 0.34826 0.97038 0.05400
C 	C 	0.18786 0.35706 0.90402 -0.12800
C 	C 	0.29138 0.35374 0.89870 0.08500
C 	C 	0.99966 0.36217 0.97691 0.05400
C 	C 	0.97074 0.34822 0.92210 -0.12900
C 	C 	0.86128 0.36624 0.92900 0.08100
C 	C 	0.80676 0.40908 0.03880 0.07200
C 	C 	0.91454 0.39262 0.03630 -0.12600
C 	C 	0.54810 0.30481 0.13679 0.36400
C 	C 	0.59473 0.22938 0.19556 -0.19200
C 	C 	0.67768 0.23514 0.21570 0.12000
C 	C 	0.72310 0.16960 0.26980 -0.19500
C 	C 	0.68670 0.09520 0.30380 0.13300
C 	C 	0.60550 0.08710 0.28490 -0.23600
C 	C 	0.55787 0.15326 0.23080 0.21600
C 	C 	0.42037 0.08686 0.24000 0.17900
C 	C 	0.34388 0.09644 0.19660 0.17100
C 	C 	0.18540 0.05190 0.21310 0.22300
C 	C 	0.16930 0.09320 0.14560 -0.22700
C 	C 	0.07580 0.10290 0.12890 0.11200
C 	C 	0.99710 0.06980 0.17980 -0.16700
C 	C 	0.01610 0.02480 0.24540 0.09900
C 	C 	0.10927 0.01359 0.26387 -0.19700
C 	C 	0.12251 0.95945 0.33613 0.40100
C 	C 	0.65539 0.20392 0.98970 0.42300
C 	C 	0.71955 0.10260 0.01870 -0.23500
C 	C 	0.81300 0.08690 0.04010 0.15600
C 	C 	0.87630 0.99560 0.06940 -0.24200
C 	C 	0.84780 0.91940 0.07640 0.18300
C 	C 	0.75680 0.93220 0.05680 -0.28500
C 	C 	0.69124 0.02332 0.02780 0.25700
C 	C 	0.55179 0.97552 0.01450 0.18200
C 	C 	0.39356 0.82588 0.51980 0.08400
C 	C 	0.48495 0.82980 0.52930 -0.13100
C 	C 	0.56578 0.84826 0.47038 0.05600
C 	C 	0.55106 0.85706 0.40402 -0.12900
C 	C 	0.45618 0.85374 0.39870 0.08600
C 	C 	0.66126 0.86217 0.47691 0.05300
C 	C 	0.75894 0.84822 0.42210 -0.13300
C 	C 	0.84348 0.86624 0.42900 0.08200
C 	C 	0.74536 0.90908 0.53880 0.07100
C 	C 	0.65654 0.89262 0.53630 -0.12700
C 	C 	0.01030 0.80481 0.63679 0.37100
C 	C 	0.98033 0.72938 0.69556 -0.19800
C 	C 	0.87148 0.73514 0.71570 0.12400
C 	C 	0.83750 0.66960 0.76980 -0.19900
C 	C 	0.91430 0.59520 0.80380 0.13500
C 	C 	0.02250 0.58710 0.78490 -0.23800
C 	C 	0.05807 0.65326 0.73080 0.22000
C 	C 	0.25277 0.58686 0.74000 0.17900
C 	C 	0.36308 0.59644 0.69660 0.17200
C 	C 	0.54960 0.55190 0.71310 0.23300
C 	C 	0.59190 0.59320 0.64560 -0.24400
C 	C 	0.69240 0.60290 0.62890 0.13800
C 	C 	0.75330 0.56980 0.67980 -0.20100
C 	C 	0.71370 0.52480 0.74540 0.13100
C 	C 	0.61327 0.51359 0.76387 -0.20900
C 	C 	0.58191 0.45945 0.83613 0.40300
C 	C 	0.15099 0.70392 0.48970 0.42200
C 	C 	0.15915 0.60260 0.51870 -0.22900
C 	C 	0.06000 0.58690 0.54010 0.14400
C 	C 	0.05870 0.49560 0.56940 -0.22700
C 	C 	0.15640 0.41940 0.57640 0.17200
C 	C 	0.25420 0.43220 0.55680 -0.27200
C 	C 	0.25764 0.52332 0.52780 0.24800
C 	C 	0.45819 0.47552 0.51450 0.18300
C 	C 	0.73924 0.67412 0.98020 0.08400
C 	C 	0.84405 0.67020 0.97070 -0.13000
C 	C 	0.88442 0.65174 0.02962 0.05400
C 	C 	0.81214 0.64294 0.09598 -0.12800
C 	C 	0.70862 0.64626 0.10130 0.08500
C 	C 	0.00034 0.63783 0.02309 0.05400
C 	C 	0.02926 0.65178 0.07790 -0.12900
C 	C 	0.13872 0.63376 0.07100 0.08100
C 	C 	0.19324 0.59092 0.96120 0.07200
C 	C 	0.08546 0.60738 0.96370 -0.12600
C 	C 	0.45190 0.69519 0.86321 0.36400
C 	C 	0.40527 0.77062 0.80444 -0.19200
C 	C 	0.32232 0.76486 0.78430 0.12000
C 	C 	0.27690 0.83040 0.73020 -0.19500
C 	C 	0.31330 0.90480 0.69620 0.13300
C 	C 	0.39450 0.91290 0.71510 -0.23600
C 	C 	0.44213 0.84674 0.76920 0.21600
C 	C 	0.57963 0.91314 0.76000 0.17900
C 	C 	0.65612 0.90356 0.80340 0.17100
C 	C 	0.81460 0.94810 0.78690 0.22300
C 	C 	0.83070 0.90680 0.85440 -0.22700
C 	C 	0.92420 0.89710 0.87110 0.11200
C 	C 	0.00290 0.93020 0.82020 -0.16700
C 	C 	0.98390 0.97520 0.75460 0.09900
C 	C 	0.89073 0.98641 0.73613 -0.19700
C 	C 	0.87749 0.04055 0.66387 0.40100
C 	C 	0.34461 0.79608 0.01030 0.42300
C 	C 	0.28045 0.89740 0.98130 -0.23500
C 	C 	0.18700 0.91310 0.95990 0.15600
C 	C 	0.12370 0.00440 0.93060 -0.24200
C 	C 	0.15220 0.08060 0.92360 0.18300
C 	C 	0.24320 0.06780 0.94320 -0.28500
C 	C 	0.30876 0.97668 0.97220 0.25700
C 	C 	0.44821 0.02448 0.98550 0.18200
N 	N 	0.62331 0.16001 0.54453 -0.25000
N 	N 	0.16189 0.10300 0.51454 -0.22700
N 	N 	0.82983 0.35710 0.29164 -0.25800
N 	N 	0.55637 0.45120 0.26826 -0.25500
N 	N 	0.64340 0.46130 0.49290 -0.26400
N 	N 	0.32785 0.33999 0.95547 -0.25000
N 	N 	0.77943 0.39700 0.98546 -0.22600
N 	N 	0.47857 0.14290 0.20836 -0.25700
N 	N 	0.27583 0.04880 0.23174 -0.25300
N 	N 	0.59760 0.03870 0.00710 -0.26300
N 	N 	0.37669 0.83999 0.45547 -0.25000
N 	N 	0.83811 0.89700 0.48546 -0.22700
N 	N 	0.17017 0.64290 0.70836 -0.25800
N 	N 	0.44363 0.54880 0.73174 -0.25500
N 	N 	0.35660 0.53870 0.50710 -0.26400
N 	N 	0.67215 0.66001 0.04453 -0.25000
N 	N 	0.22057 0.60300 0.01454 -0.22600
N 	N 	0.52143 0.85710 0.79164 -0.25700
N 	N 	0.72417 0.95120 0.76826 -0.25300
N 	N 	0.40240 0.96130 0.99290 -0.26300
O 	O 	0.10712 0.93759 0.50687 -0.59300
O 	O 	0.06497 0.13563 0.39473 -0.40500
O 	O 	0.89413 0.19505 0.37821 -0.29800
O 	O 	0.49495 0.57172 0.15156 -0.47100
O 	O 	0.36605 0.55550 0.11912 -0.44300
O 	O 	0.62883 0.35692 0.36302 -0.22200
O 	O 	0.75412 0.46434 0.20202 -0.23600
O 	O 	0.75991 0.27939 0.53071 -0.47200
O 	O 	0.94216 0.23248 0.51352 -0.45100
O 	O 	0.51457 0.60976 0.46030 -0.22700
O 	O 	0.55158 0.56241 0.99313 -0.59400
O 	O 	0.59533 0.36437 0.10527 -0.40100
O 	O 	0.46739 0.30495 0.12179 -0.29700
O 	O 	0.21823 0.92828 0.34844 -0.46900
O 	O 	0.04067 0.94450 0.38088 -0.44100
O 	O 	0.34877 0.14308 0.13698 -0.22100
O 	O 	0.42048 0.03566 0.29798 -0.23600
O 	O 	0.57001 0.22061 0.96929 -0.47200
O 	O 	0.68816 0.26752 0.98648 -0.45300
O 	O 	0.58463 0.89024 0.03970 -0.22700
O 	O 	0.89288 0.06241 0.49313 -0.59300
O 	O 	0.93503 0.86437 0.60527 -0.40500
O 	O 	0.10587 0.80495 0.62179 -0.29800
O 	O 	0.50505 0.42828 0.84844 -0.47100
O 	O 	0.63395 0.44450 0.88088 -0.44300
O 	O 	0.37117 0.64308 0.63698 -0.22200
O 	O 	0.24588 0.53566 0.79798 -0.23600
O 	O 	0.24009 0.72061 0.46929 -0.47200
O 	O 	0.05784 0.76752 0.48648 -0.45100
O 	O 	0.48543 0.39024 0.53970 -0.22700
O 	O 	0.44842 0.43759 0.00687 -0.59400
O 	O 	0.40467 0.63563 0.89473 -0.40100
O 	O 	0.53261 0.69505 0.87821 -0.29700
O 	O 	0.78177 0.07172 0.65156 -0.46900
O 	O 	0.95933 0.05550 0.61912 -0.44100
O 	O 	0.65123 0.85692 0.86302 -0.22100
O 	O 	0.57952 0.96434 0.70202 -0.23600
O 	O 	0.42999 0.77939 0.03071 -0.47200
O 	O 	0.31184 0.73248 0.01352 -0.45300
O 	O 	0.41537 0.10976 0.96030 -0.22700
