data_crystal

_cell_length_a 10.36300
_cell_length_b 12.74280
_cell_length_c 12.74280
_cell_angle_alpha 107.82200
_cell_angle_beta  93.20490
_cell_angle_gamma 86.79510

_symmetry_space_group_name_	'P 1'
_symmetry_space_group_name_H-M	'P 1'

loop_
_symmetry_equiv_pos_as_xyz
  x,y,z

loop_
_atom_site_label
_atom_site_type_symbol
_atom_site_fract_x
_atom_site_fract_y
_atom_site_fract_z
_atom_site_charge
Zn	Zn	0.89971 0.57995 0.97815 1.21300
Zn	Zn	0.60029 0.97815 0.57995 1.21700
Zn	Zn	0.10029 0.42005 0.02185 1.21300
Zn	Zn	0.39971 0.02185 0.42005 1.21700
H 	H 	0.77820 0.38210 0.64770 -0.01100
H 	H 	0.73830 0.25930 0.47590 0.13200
H 	H 	0.07230 0.09300 0.50720 0.14700
H 	H 	0.10680 0.21310 0.68170 -0.00900
H 	H 	0.74310 0.15380 0.30640 0.09400
H 	H 	0.77220 0.02930 0.24290 0.10200
H 	H 	0.73490 0.66840 0.82020 -0.02100
H 	H 	0.58160 0.80580 0.82440 0.11300
H 	H 	0.56340 0.86190 0.14790 0.11800
H 	H 	0.71840 0.72350 0.13630 -0.01300
H 	H 	0.40850 0.93210 0.92670 0.08500
H 	H 	0.40870 0.95940 0.05560 0.08400
H 	H 	0.72180 0.64770 0.38210 -0.01100
H 	H 	0.76170 0.47590 0.25930 0.13100
H 	H 	0.42770 0.50720 0.09300 0.14500
H 	H 	0.39320 0.68170 0.21310 -0.00800
H 	H 	0.75690 0.30640 0.15380 0.09400
H 	H 	0.72780 0.24290 0.02930 0.10200
H 	H 	0.76510 0.82020 0.66840 -0.01800
H 	H 	0.91840 0.82440 0.80580 0.10600
H 	H 	0.93660 0.14790 0.86190 0.11000
H 	H 	0.78160 0.13630 0.72350 -0.00900
H 	H 	0.09150 0.92670 0.93210 0.08200
H 	H 	0.09130 0.05560 0.95940 0.08200
H 	H 	0.22180 0.61790 0.35230 -0.01100
H 	H 	0.26170 0.74070 0.52410 0.13200
H 	H 	0.92770 0.90700 0.49280 0.14700
H 	H 	0.89320 0.78690 0.31830 -0.00900
H 	H 	0.25690 0.84620 0.69360 0.09400
H 	H 	0.22780 0.97070 0.75710 0.10200
H 	H 	0.26510 0.33160 0.17980 -0.02100
H 	H 	0.41840 0.19420 0.17560 0.11300
H 	H 	0.43660 0.13810 0.85210 0.11800
H 	H 	0.28160 0.27650 0.86370 -0.01300
H 	H 	0.59150 0.06790 0.07330 0.08500
H 	H 	0.59130 0.04060 0.94440 0.08400
H 	H 	0.27820 0.35230 0.61790 -0.01100
H 	H 	0.23830 0.52410 0.74070 0.13100
H 	H 	0.57230 0.49280 0.90700 0.14500
H 	H 	0.60680 0.31830 0.78690 -0.00800
H 	H 	0.24310 0.69360 0.84620 0.09400
H 	H 	0.27220 0.75710 0.97070 0.10200
H 	H 	0.23490 0.17980 0.33160 -0.01800
H 	H 	0.08160 0.17560 0.19420 0.10600
H 	H 	0.06340 0.85210 0.13810 0.11000
H 	H 	0.21840 0.86370 0.27650 -0.00900
H 	H 	0.90850 0.07330 0.06790 0.08200
H 	H 	0.90870 0.94440 0.04060 0.08200
C 	C 	0.96760 0.38800 0.79680 0.41900
C 	C 	0.94630 0.31130 0.68410 -0.21800
C 	C 	0.83680 0.32330 0.62010 0.16900
C 	C 	0.81290 0.25030 0.51690 -0.27200
C 	C 	0.90110 0.16280 0.47440 0.27700
C 	C 	0.01220 0.15020 0.53580 -0.27500
C 	C 	0.03320 0.22310 0.64010 0.17300
C 	C 	0.76540 0.08220 0.31580 -0.19000
C 	C 	0.65700 0.04990 0.37410 0.40400
C 	C 	0.70170 0.70900 0.88760 0.12900
C 	C 	0.60910 0.79130 0.88950 -0.21900
C 	C 	0.55760 0.85160 0.98720 0.17700
C 	C 	0.59840 0.82450 0.08030 -0.21900
C 	C 	0.69180 0.74130 0.07270 0.13400
C 	C 	0.46340 0.94800 0.99340 -0.18200
C 	C 	0.53240 0.79680 0.38800 0.42600
C 	C 	0.55370 0.68410 0.31130 -0.21500
C 	C 	0.66320 0.62010 0.32330 0.16700
C 	C 	0.68710 0.51690 0.25030 -0.26900
C 	C 	0.59890 0.47440 0.16280 0.27400
C 	C 	0.48780 0.53580 0.15020 -0.27000
C 	C 	0.46680 0.64010 0.22310 0.16700
C 	C 	0.73460 0.31580 0.08220 -0.18900
C 	C 	0.84300 0.37410 0.04990 0.40400
C 	C 	0.79830 0.88760 0.70900 0.12200
C 	C 	0.89090 0.88950 0.79130 -0.20700
C 	C 	0.94240 0.98720 0.85160 0.15600
C 	C 	0.90160 0.08030 0.82450 -0.20500
C 	C 	0.80820 0.07270 0.74130 0.12200
C 	C 	0.03660 0.99340 0.94800 -0.16700
C 	C 	0.03240 0.61200 0.20320 0.41900
C 	C 	0.05370 0.68870 0.31590 -0.21800
C 	C 	0.16320 0.67670 0.37990 0.16900
C 	C 	0.18710 0.74970 0.48310 -0.27200
C 	C 	0.09890 0.83720 0.52560 0.27700
C 	C 	0.98780 0.84980 0.46420 -0.27500
C 	C 	0.96680 0.77690 0.35990 0.17300
C 	C 	0.23460 0.91780 0.68420 -0.19000
C 	C 	0.34300 0.95010 0.62590 0.40400
C 	C 	0.29830 0.29100 0.11240 0.12900
C 	C 	0.39090 0.20870 0.11050 -0.21900
C 	C 	0.44240 0.14840 0.01280 0.17700
C 	C 	0.40160 0.17550 0.91970 -0.21900
C 	C 	0.30820 0.25870 0.92730 0.13400
C 	C 	0.53660 0.05200 0.00660 -0.18200
C 	C 	0.46760 0.20320 0.61200 0.42600
C 	C 	0.44630 0.31590 0.68870 -0.21500
C 	C 	0.33680 0.37990 0.67670 0.16700
C 	C 	0.31290 0.48310 0.74970 -0.26900
C 	C 	0.40110 0.52560 0.83720 0.27400
C 	C 	0.51220 0.46420 0.84980 -0.27000
C 	C 	0.53320 0.35990 0.77690 0.16700
C 	C 	0.26540 0.68420 0.91780 -0.18900
C 	C 	0.15700 0.62590 0.95010 0.40400
C 	C 	0.20170 0.11240 0.29100 0.12200
C 	C 	0.10910 0.11050 0.20870 -0.20700
C 	C 	0.05760 0.01280 0.14840 0.15600
C 	C 	0.09840 0.91970 0.17550 -0.20500
C 	C 	0.19180 0.92730 0.25870 0.12200
C 	C 	0.96340 0.00660 0.05200 -0.16700
N 	N 	0.74570 0.68509 0.97831 -0.27600
N 	N 	0.75430 0.97831 0.68509 -0.27100
N 	N 	0.25430 0.31491 0.02169 -0.27600
N 	N 	0.24570 0.02169 0.31491 -0.27100
O 	O 	0.90390 0.47864 0.82264 -0.47200
O 	O 	0.04820 0.35637 0.86033 -0.47400
O 	O 	0.88730 0.08679 0.37283 -0.19500
O 	O 	0.54490 0.05796 0.33284 -0.45600
O 	O 	0.68780 0.01642 0.45430 -0.47000
O 	O 	0.59610 0.82264 0.47864 -0.47100
O 	O 	0.45180 0.86033 0.35637 -0.48100
O 	O 	0.61270 0.37283 0.08679 -0.19600
O 	O 	0.95510 0.33284 0.05796 -0.45100
O 	O 	0.81220 0.45430 0.01642 -0.46700
O 	O 	0.09610 0.52136 0.17736 -0.47200
O 	O 	0.95180 0.64363 0.13967 -0.47400
O 	O 	0.11270 0.91321 0.62717 -0.19500
O 	O 	0.45510 0.94204 0.66716 -0.45600
O 	O 	0.31220 0.98358 0.54570 -0.47000
O 	O 	0.40390 0.17736 0.52136 -0.47100
O 	O 	0.54820 0.13967 0.64363 -0.48100
O 	O 	0.38730 0.62717 0.91321 -0.19600
O 	O 	0.04490 0.66716 0.94204 -0.45100
O 	O 	0.18780 0.54570 0.98358 -0.46700
