data_crystal

_cell_length_a 13.54220
_cell_length_b 21.15730
_cell_length_c 24.01120
_cell_angle_alpha 90.00000
_cell_angle_beta  90.00000
_cell_angle_gamma 90.00000

_symmetry_space_group_name_	'P 1'
_symmetry_space_group_name_H-M	'P 1'

loop_
_symmetry_equiv_pos_as_xyz
  x,y,z

loop_
_atom_site_label
_atom_site_type_symbol
_atom_site_fract_x
_atom_site_fract_y
_atom_site_fract_z
_atom_site_charge
Co	Co	0.36270 0.03143 0.19840 1.13900
Co	Co	0.36636 0.18047 0.12407 1.14000
Co	Co	0.63730 0.96857 0.69840 1.13900
Co	Co	0.63364 0.81953 0.62407 1.14000
Co	Co	0.13730 0.53143 0.19840 1.14000
Co	Co	0.13364 0.68047 0.12407 1.14000
Co	Co	0.86270 0.46857 0.69840 1.13900
Co	Co	0.86636 0.31953 0.62407 1.14000
H 	H 	0.49220 0.09020 0.13680 0.16500
H 	H 	0.48500 0.12650 0.19330 0.16900
H 	H 	0.11210 0.97010 0.10530 0.09900
H 	H 	0.92870 0.00500 0.97690 0.14300
H 	H 	0.15000 0.12650 0.01310 0.10500
H 	H 	0.14250 0.09260 0.31230 0.10600
H 	H 	0.91940 0.21450 0.34020 0.13200
H 	H 	0.10400 0.24080 0.21080 0.10100
H 	H 	0.73500 0.99240 0.80840 -0.03000
H 	H 	0.79080 0.06890 0.86670 0.16100
H 	H 	0.74250 0.19390 0.74600 0.13800
H 	H 	0.68660 0.11390 0.69050 -0.04800
H 	H 	0.87070 0.19200 0.85940 0.17900
H 	H 	0.78620 0.23480 0.83550 0.15700
H 	H 	0.77470 0.22220 0.93450 -0.02700
H 	H 	0.75510 0.14980 0.92550 -0.02300
H 	H 	0.63060 0.24700 0.88970 0.16500
H 	H 	0.61220 0.17560 0.87560 0.16400
H 	H 	0.01600 0.55450 0.75470 -0.03200
H 	H 	0.10480 0.56530 0.83500 0.14400
H 	H 	0.01720 0.39020 0.87560 0.13700
H 	H 	0.93200 0.38650 0.79580 -0.04300
H 	H 	0.09630 0.50880 0.94480 0.15200
H 	H 	0.19390 0.50550 0.90990 0.16000
H 	H 	0.09650 0.39910 0.95600 -0.01800
H 	H 	0.18900 0.39290 0.91710 -0.01300
H 	H 	0.19170 0.45540 0.01830 0.10400
H 	H 	0.28370 0.44390 0.98020 0.14600
H 	H 	0.44160 0.09910 0.02340 -0.02500
H 	H 	0.52830 0.10940 0.94280 0.10800
H 	H 	0.61810 0.27890 0.99300 0.13500
H 	H 	0.52940 0.26590 0.07270 -0.01000
H 	H 	0.28590 0.21620 0.00750 -0.00400
H 	H 	0.24530 0.30500 0.95860 0.10300
H 	H 	0.23750 0.40160 0.09990 0.10300
H 	H 	0.28950 0.31310 0.14460 -0.03100
H 	H 	0.50780 0.90980 0.63680 0.16700
H 	H 	0.51500 0.87350 0.69330 0.16900
H 	H 	0.88790 0.02990 0.60530 0.09900
H 	H 	0.07130 0.99500 0.47690 0.14300
H 	H 	0.85000 0.87350 0.51310 0.10000
H 	H 	0.85750 0.90740 0.81230 0.10400
H 	H 	0.08060 0.78550 0.84020 0.13000
H 	H 	0.89600 0.75920 0.71080 0.10000
H 	H 	0.26500 0.00760 0.30840 -0.03000
H 	H 	0.20920 0.93110 0.36670 0.16200
H 	H 	0.25750 0.80610 0.24600 0.13900
H 	H 	0.31340 0.88610 0.19050 -0.04900
H 	H 	0.12930 0.80800 0.35940 0.18400
H 	H 	0.21380 0.76520 0.33550 0.16300
H 	H 	0.22530 0.77780 0.43450 -0.04000
H 	H 	0.24490 0.85020 0.42550 -0.03500
H 	H 	0.36940 0.75300 0.38970 0.17800
H 	H 	0.38780 0.82440 0.37560 0.17700
H 	H 	0.98400 0.44550 0.25470 -0.03800
H 	H 	0.89520 0.43470 0.33500 0.15300
H 	H 	0.98280 0.60980 0.37560 0.15000
H 	H 	0.06800 0.61350 0.29580 -0.05100
H 	H 	0.90370 0.49120 0.44480 0.17600
H 	H 	0.80610 0.49450 0.40990 0.18800
H 	H 	0.90350 0.60090 0.45600 -0.07700
H 	H 	0.81100 0.60710 0.41710 -0.06900
H 	H 	0.80830 0.54460 0.51830 0.19100
H 	H 	0.71630 0.55610 0.48020 0.21200
H 	H 	0.55840 0.90090 0.52340 -0.04300
H 	H 	0.47170 0.89060 0.44280 0.12900
H 	H 	0.38190 0.72110 0.49300 0.15500
H 	H 	0.47060 0.73410 0.57270 -0.02800
H 	H 	0.71410 0.78380 0.50750 -0.03700
H 	H 	0.75470 0.69500 0.45860 0.16500
H 	H 	0.76250 0.59840 0.59990 0.14800
H 	H 	0.71050 0.68690 0.64460 -0.05600
H 	H 	0.00780 0.59020 0.13680 0.16500
H 	H 	0.01500 0.62650 0.19330 0.16900
H 	H 	0.38790 0.47010 0.10530 0.09800
H 	H 	0.57130 0.50500 0.97690 0.14100
H 	H 	0.35000 0.62650 0.01310 0.10400
H 	H 	0.35750 0.59260 0.31230 0.10600
H 	H 	0.58060 0.71450 0.34020 0.13100
H 	H 	0.39600 0.74080 0.21080 0.10100
H 	H 	0.76500 0.49240 0.80840 -0.02900
H 	H 	0.70920 0.56890 0.86670 0.16100
H 	H 	0.75750 0.69390 0.74600 0.13800
H 	H 	0.81340 0.61390 0.69050 -0.04800
H 	H 	0.62930 0.69200 0.85940 0.17900
H 	H 	0.71380 0.73480 0.83550 0.15800
H 	H 	0.72530 0.72220 0.93450 -0.02700
H 	H 	0.74490 0.64980 0.92550 -0.02400
H 	H 	0.86940 0.74700 0.88970 0.16500
H 	H 	0.88780 0.67560 0.87560 0.16400
H 	H 	0.48400 0.05450 0.75470 -0.03200
H 	H 	0.39520 0.06530 0.83500 0.14400
H 	H 	0.48280 0.89020 0.87560 0.13800
H 	H 	0.56800 0.88650 0.79580 -0.04400
H 	H 	0.40370 0.00880 0.94480 0.15200
H 	H 	0.30610 0.00550 0.90990 0.16100
H 	H 	0.40350 0.89910 0.95600 -0.01900
H 	H 	0.31100 0.89290 0.91710 -0.01400
H 	H 	0.30830 0.95540 0.01830 0.10400
H 	H 	0.21630 0.94390 0.98020 0.14700
H 	H 	0.05840 0.59910 0.02340 -0.02600
H 	H 	0.97170 0.60940 0.94280 0.10800
H 	H 	0.88190 0.77890 0.99300 0.13600
H 	H 	0.97060 0.76590 0.07270 -0.01100
H 	H 	0.21410 0.71620 0.00750 -0.00400
H 	H 	0.25470 0.80500 0.95860 0.10200
H 	H 	0.26250 0.90160 0.09990 0.10300
H 	H 	0.21050 0.81310 0.14460 -0.03100
H 	H 	0.99220 0.40980 0.63680 0.16600
H 	H 	0.98500 0.37350 0.69330 0.16900
H 	H 	0.61210 0.52990 0.60530 0.10000
H 	H 	0.42870 0.49500 0.47690 0.14500
H 	H 	0.65000 0.37350 0.51310 0.10100
H 	H 	0.64250 0.40740 0.81230 0.10600
H 	H 	0.41940 0.28550 0.84020 0.13300
H 	H 	0.60400 0.25920 0.71080 0.10200
H 	H 	0.23500 0.50760 0.30840 -0.03100
H 	H 	0.29080 0.43110 0.36670 0.16200
H 	H 	0.24250 0.30610 0.24600 0.13900
H 	H 	0.18660 0.38610 0.19050 -0.04900
H 	H 	0.37070 0.30800 0.35940 0.18400
H 	H 	0.28620 0.26520 0.33550 0.16300
H 	H 	0.27470 0.27780 0.43450 -0.04000
H 	H 	0.25510 0.35020 0.42550 -0.03500
H 	H 	0.13060 0.25300 0.38970 0.17800
H 	H 	0.11220 0.32440 0.37560 0.17700
H 	H 	0.51600 0.94550 0.25470 -0.03800
H 	H 	0.60480 0.93470 0.33500 0.15300
H 	H 	0.51720 0.10980 0.37560 0.14900
H 	H 	0.43200 0.11350 0.29580 -0.05000
H 	H 	0.59630 0.99120 0.44480 0.17500
H 	H 	0.69390 0.99450 0.40990 0.18600
H 	H 	0.59650 0.10090 0.45600 -0.07600
H 	H 	0.68900 0.10710 0.41710 -0.06800
H 	H 	0.69170 0.04460 0.51830 0.19100
H 	H 	0.78370 0.05610 0.48020 0.21200
H 	H 	0.94160 0.40090 0.52340 -0.04200
H 	H 	0.02830 0.39060 0.44280 0.12900
H 	H 	0.11810 0.22110 0.49300 0.15500
H 	H 	0.02940 0.23410 0.57270 -0.02800
H 	H 	0.78590 0.28380 0.50750 -0.03700
H 	H 	0.74530 0.19500 0.45860 0.16400
H 	H 	0.73750 0.09840 0.59990 0.14800
H 	H 	0.78950 0.18690 0.64460 -0.05600
C 	C 	0.23660 0.06650 0.09610 0.35000
C 	C 	0.14580 0.05080 0.06400 -0.00400
C 	C 	0.09340 0.99600 0.07580 -0.12500
C 	C 	0.01270 0.98060 0.04280 0.13500
C 	C 	0.98190 0.01690 0.99910 -0.17500
C 	C 	0.03330 0.07190 0.98970 0.17800
C 	C 	0.11590 0.08940 0.02110 -0.15400
C 	C 	0.23090 0.14620 0.22450 0.35000
C 	C 	0.13900 0.16450 0.25680 -0.00000
C 	C 	0.10840 0.12900 0.30210 -0.13400
C 	C 	0.02770 0.14800 0.33170 0.15000
C 	C 	0.97350 0.20170 0.31910 -0.19900
C 	C 	0.00590 0.23500 0.27280 0.14900
C 	C 	0.08570 0.21730 0.24180 -0.13600
C 	C 	0.73680 0.03380 0.79550 0.17800
C 	C 	0.76940 0.07940 0.83110 -0.30000
C 	C 	0.77020 0.14160 0.81330 0.28900
C 	C 	0.74070 0.15290 0.75990 -0.30400
C 	C 	0.70840 0.10450 0.72630 0.17600
C 	C 	0.80010 0.19440 0.85290 -0.43200
C 	C 	0.74600 0.19140 0.90930 0.22300
C 	C 	0.63940 0.20420 0.90330 -0.41900
C 	C 	0.01590 0.52130 0.78010 0.15700
C 	C 	0.07050 0.52800 0.82800 -0.28100
C 	C 	0.07350 0.47820 0.86580 0.26700
C 	C 	0.01840 0.42490 0.85170 -0.28900
C 	C 	0.96700 0.42320 0.80390 0.17300
C 	C 	0.13280 0.48350 0.91810 -0.40600
C 	C 	0.15730 0.41960 0.94470 0.17100
C 	C 	0.22160 0.42580 0.99250 -0.30700
C 	C 	0.47660 0.13630 0.01730 0.10000
C 	C 	0.52890 0.14220 0.96850 -0.21500
C 	C 	0.58240 0.19650 0.95710 0.23600
C 	C 	0.58170 0.24210 0.99800 -0.20900
C 	C 	0.52820 0.23390 0.04610 0.09300
C 	C 	0.28030 0.25450 0.02640 0.08500
C 	C 	0.25480 0.30770 0.99680 -0.14800
C 	C 	0.24330 0.36510 0.02340 0.16600
C 	C 	0.25150 0.36520 0.07960 -0.21800
C 	C 	0.28060 0.31120 0.10620 0.12400
C 	C 	0.76340 0.93350 0.59610 0.35300
C 	C 	0.85420 0.94920 0.56400 -0.01500
C 	C 	0.90660 0.00400 0.57580 -0.12400
C 	C 	0.98730 0.01940 0.54280 0.15300
C 	C 	0.01810 0.98310 0.49910 -0.19100
C 	C 	0.96670 0.92810 0.48970 0.15000
C 	C 	0.88410 0.91060 0.52110 -0.12000
C 	C 	0.76910 0.85380 0.72450 0.35100
C 	C 	0.86100 0.83550 0.75680 -0.00400
C 	C 	0.89160 0.87100 0.80210 -0.12800
C 	C 	0.97230 0.85200 0.83170 0.14400
C 	C 	0.02650 0.79830 0.81910 -0.18800
C 	C 	0.99410 0.76500 0.77280 0.14200
C 	C 	0.91430 0.78270 0.74180 -0.13100
C 	C 	0.26320 0.96620 0.29550 0.17800
C 	C 	0.23060 0.92060 0.33110 -0.30500
C 	C 	0.22980 0.85840 0.31330 0.29600
C 	C 	0.25930 0.84710 0.25990 -0.31000
C 	C 	0.29160 0.89550 0.22630 0.17900
C 	C 	0.19990 0.80560 0.35290 -0.45200
C 	C 	0.25400 0.80860 0.40930 0.25700
C 	C 	0.36060 0.79580 0.40330 -0.46700
C 	C 	0.98410 0.47870 0.28010 0.17100
C 	C 	0.92950 0.47200 0.32800 -0.31300
C 	C 	0.92650 0.52180 0.36580 0.31300
C 	C 	0.98160 0.57510 0.35170 -0.32600
C 	C 	0.03300 0.57680 0.30390 0.19500
C 	C 	0.86720 0.51650 0.41810 -0.51300
C 	C 	0.84270 0.58040 0.44470 0.35000
C 	C 	0.77840 0.57420 0.49250 -0.56000
C 	C 	0.52340 0.86370 0.51730 0.16200
C 	C 	0.47110 0.85780 0.46850 -0.29200
C 	C 	0.41760 0.80350 0.45710 0.29000
C 	C 	0.41830 0.75790 0.49800 -0.28500
C 	C 	0.47180 0.76610 0.54610 0.15300
C 	C 	0.71970 0.74550 0.52640 0.19900
C 	C 	0.74520 0.69230 0.49680 -0.33200
C 	C 	0.75670 0.63490 0.52340 0.35600
C 	C 	0.74850 0.63480 0.57960 -0.34700
C 	C 	0.71940 0.68880 0.60620 0.19900
C 	C 	0.26340 0.56650 0.09610 0.35100
C 	C 	0.35420 0.55080 0.06400 -0.00700
C 	C 	0.40660 0.49600 0.07580 -0.12100
C 	C 	0.48730 0.48060 0.04280 0.13000
C 	C 	0.51810 0.51690 0.99910 -0.16800
C 	C 	0.46670 0.57190 0.98970 0.17300
C 	C 	0.38410 0.58940 0.02110 -0.15100
C 	C 	0.26910 0.64620 0.22450 0.35000
C 	C 	0.36100 0.66450 0.25680 -0.00100
C 	C 	0.39160 0.62900 0.30210 -0.13300
C 	C 	0.47230 0.64800 0.33170 0.14900
C 	C 	0.52650 0.70170 0.31910 -0.19800
C 	C 	0.49410 0.73500 0.27280 0.14800
C 	C 	0.41430 0.71730 0.24180 -0.13500
C 	C 	0.76320 0.53380 0.79550 0.17700
C 	C 	0.73060 0.57940 0.83110 -0.29900
C 	C 	0.72980 0.64160 0.81330 0.28900
C 	C 	0.75930 0.65290 0.75990 -0.30400
C 	C 	0.79160 0.60450 0.72630 0.17600
C 	C 	0.69990 0.69440 0.85290 -0.43300
C 	C 	0.75400 0.69140 0.90930 0.22300
C 	C 	0.86060 0.70420 0.90330 -0.42000
C 	C 	0.48410 0.02130 0.78010 0.15600
C 	C 	0.42950 0.02800 0.82800 -0.28200
C 	C 	0.42650 0.97820 0.86580 0.26800
C 	C 	0.48160 0.92490 0.85170 -0.29300
C 	C 	0.53300 0.92320 0.80390 0.17800
C 	C 	0.36720 0.98350 0.91810 -0.40800
C 	C 	0.34270 0.91960 0.94470 0.17300
C 	C 	0.27840 0.92580 0.99250 -0.30800
C 	C 	0.02340 0.63630 0.01730 0.10200
C 	C 	0.97110 0.64220 0.96850 -0.21900
C 	C 	0.91760 0.69650 0.95710 0.23700
C 	C 	0.91830 0.74210 0.99800 -0.21200
C 	C 	0.97180 0.73390 0.04610 0.09500
C 	C 	0.21970 0.75450 0.02640 0.08500
C 	C 	0.24520 0.80770 0.99680 -0.14700
C 	C 	0.25670 0.86510 0.02340 0.16600
C 	C 	0.24850 0.86520 0.07960 -0.21800
C 	C 	0.21940 0.81120 0.10620 0.12400
C 	C 	0.73660 0.43350 0.59610 0.35200
C 	C 	0.64580 0.44920 0.56400 -0.01200
C 	C 	0.59340 0.50400 0.57580 -0.12800
C 	C 	0.51270 0.51940 0.54280 0.15700
C 	C 	0.48190 0.48310 0.49910 -0.19600
C 	C 	0.53330 0.42810 0.48970 0.15400
C 	C 	0.61590 0.41060 0.52110 -0.12300
C 	C 	0.73090 0.35380 0.72450 0.34900
C 	C 	0.63900 0.33550 0.75680 0.00100
C 	C 	0.60840 0.37100 0.80210 -0.13400
C 	C 	0.52770 0.35200 0.83170 0.15200
C 	C 	0.47350 0.29830 0.81910 -0.19900
C 	C 	0.50590 0.26500 0.77280 0.15000
C 	C 	0.58570 0.28270 0.74180 -0.13600
C 	C 	0.23680 0.46620 0.29550 0.17900
C 	C 	0.26940 0.42060 0.33110 -0.30500
C 	C 	0.27020 0.35840 0.31330 0.29700
C 	C 	0.24070 0.34710 0.25990 -0.31000
C 	C 	0.20840 0.39550 0.22630 0.17900
C 	C 	0.30010 0.30560 0.35290 -0.45200
C 	C 	0.24600 0.30860 0.40930 0.25600
C 	C 	0.13940 0.29580 0.40330 -0.46700
C 	C 	0.51590 0.97870 0.28010 0.17000
C 	C 	0.57050 0.97200 0.32800 -0.31300
C 	C 	0.57350 0.02180 0.36580 0.31200
C 	C 	0.51840 0.07510 0.35170 -0.32400
C 	C 	0.46700 0.07680 0.30390 0.19400
C 	C 	0.63280 0.01650 0.41810 -0.50900
C 	C 	0.65730 0.08040 0.44470 0.34700
C 	C 	0.72160 0.07420 0.49250 -0.55800
C 	C 	0.97660 0.36370 0.51730 0.16000
C 	C 	0.02890 0.35780 0.46850 -0.29000
C 	C 	0.08240 0.30350 0.45710 0.28900
C 	C 	0.08170 0.25790 0.49800 -0.28400
C 	C 	0.02820 0.26610 0.54610 0.15400
C 	C 	0.78030 0.24550 0.52640 0.19900
C 	C 	0.75480 0.19230 0.49680 -0.33100
C 	C 	0.74330 0.13490 0.52340 0.35600
C 	C 	0.75150 0.13480 0.57960 -0.34600
C 	C 	0.78060 0.18880 0.60620 0.19900
N 	N 	0.96030 0.92020 0.05310 -0.01300
N 	N 	0.00350 0.11330 0.94380 -0.01700
N 	N 	0.99570 0.10930 0.37950 -0.01700
N 	N 	0.95290 0.29420 0.25960 -0.01600
N 	N 	0.70730 0.04450 0.74324 -0.27200
N 	N 	0.96280 0.47000 0.76760 -0.28000
N 	N 	0.47340 0.18130 0.05660 -0.25000
N 	N 	0.29710 0.25580 0.08086 -0.25000
N 	N 	0.03970 0.07980 0.55310 -0.01500
N 	N 	0.99650 0.88670 0.44380 -0.01600
N 	N 	0.00430 0.89070 0.87950 -0.01400
N 	N 	0.04710 0.70580 0.75960 -0.01500
N 	N 	0.29270 0.95550 0.24324 -0.27200
N 	N 	0.03720 0.53000 0.26760 -0.28600
N 	N 	0.52660 0.81870 0.55660 -0.26900
N 	N 	0.70290 0.74420 0.58086 -0.28300
N 	N 	0.53970 0.42020 0.05310 -0.01300
N 	N 	0.49650 0.61330 0.94380 -0.01800
N 	N 	0.50430 0.60930 0.37950 -0.01600
N 	N 	0.54710 0.79420 0.25960 -0.01600
N 	N 	0.79270 0.54450 0.74324 -0.27200
N 	N 	0.53720 0.97000 0.76760 -0.28000
N 	N 	0.02660 0.68130 0.05660 -0.25100
N 	N 	0.20290 0.75580 0.08086 -0.25000
N 	N 	0.46030 0.57980 0.55310 -0.01600
N 	N 	0.50350 0.38670 0.44380 -0.01600
N 	N 	0.49570 0.39070 0.87950 -0.01700
N 	N 	0.45290 0.20580 0.75960 -0.01600
N 	N 	0.20730 0.45550 0.24324 -0.27300
N 	N 	0.46280 0.03000 0.26760 -0.28500
N 	N 	0.97340 0.31870 0.55660 -0.26900
N 	N 	0.79710 0.24420 0.58086 -0.28300
O 	O 	0.44620 0.10772 0.16366 -0.67800
O 	O 	0.26050 0.02922 0.13446 -0.44400
O 	O 	0.28230 0.11508 0.08118 -0.43300
O 	O 	0.89940 0.90340 0.01860 -0.13000
O 	O 	0.98030 0.89100 0.09490 -0.13400
O 	O 	0.94260 0.09290 0.91170 -0.12900
O 	O 	0.04140 0.16500 0.93970 -0.12200
O 	O 	0.27340 0.09616 0.23925 -0.42500
O 	O 	0.25740 0.18278 0.18666 -0.43600
O 	O 	0.93340 0.13060 0.41010 -0.12400
O 	O 	0.03320 0.05870 0.38650 -0.11500
O 	O 	0.88910 0.31320 0.29050 -0.13100
O 	O 	0.97910 0.32250 0.21840 -0.13700
O 	O 	0.55380 0.89228 0.66366 -0.67800
O 	O 	0.73950 0.97078 0.63446 -0.44700
O 	O 	0.71770 0.88492 0.58118 -0.43300
O 	O 	0.10060 0.09660 0.51860 -0.11800
O 	O 	0.01970 0.10900 0.59490 -0.13000
O 	O 	0.05740 0.90710 0.41170 -0.12900
O 	O 	0.95860 0.83500 0.43970 -0.12900
O 	O 	0.72660 0.90384 0.73925 -0.42500
O 	O 	0.74260 0.81722 0.68666 -0.43600
O 	O 	0.06660 0.86940 0.91010 -0.11700
O 	O 	0.96680 0.94130 0.88650 -0.11400
O 	O 	0.11090 0.68680 0.79050 -0.12900
O 	O 	0.02090 0.67750 0.71840 -0.13400
O 	O 	0.05380 0.60772 0.16366 -0.67800
O 	O 	0.23950 0.52922 0.13446 -0.44400
O 	O 	0.21770 0.61508 0.08118 -0.43400
O 	O 	0.60060 0.40340 0.01860 -0.13000
O 	O 	0.51970 0.39100 0.09490 -0.13300
O 	O 	0.55740 0.59290 0.91170 -0.12800
O 	O 	0.45860 0.66500 0.93970 -0.12200
O 	O 	0.22660 0.59616 0.23925 -0.42500
O 	O 	0.24260 0.68278 0.18666 -0.43600
O 	O 	0.56660 0.63060 0.41010 -0.12300
O 	O 	0.46680 0.55870 0.38650 -0.11600
O 	O 	0.61090 0.81320 0.29050 -0.13100
O 	O 	0.52090 0.82250 0.21840 -0.13700
O 	O 	0.94620 0.39228 0.66366 -0.67800
O 	O 	0.76050 0.47078 0.63446 -0.44600
O 	O 	0.78230 0.38492 0.58118 -0.43200
O 	O 	0.39940 0.59660 0.51860 -0.11800
O 	O 	0.48030 0.60900 0.59490 -0.13000
O 	O 	0.44260 0.40710 0.41170 -0.13000
O 	O 	0.54140 0.33500 0.43970 -0.12900
O 	O 	0.77340 0.40384 0.73925 -0.42500
O 	O 	0.75740 0.31722 0.68666 -0.43500
O 	O 	0.43340 0.36940 0.91010 -0.11700
O 	O 	0.53320 0.44130 0.88650 -0.11200
O 	O 	0.38910 0.18680 0.79050 -0.12900
O 	O 	0.47910 0.17750 0.71840 -0.13500
