data_crystal

_cell_length_a 6.22260
_cell_length_b 14.70200
_cell_length_c 17.50450
_cell_angle_alpha 102.23300
_cell_angle_beta  90.00000
_cell_angle_gamma 102.21800

_symmetry_space_group_name_	'P 1'
_symmetry_space_group_name_H-M	'P 1'

loop_
_symmetry_equiv_pos_as_xyz
  x,y,z

loop_
_atom_site_label
_atom_site_type_symbol
_atom_site_fract_x
_atom_site_fract_y
_atom_site_fract_z
_atom_site_charge
Zn	Zn	0.43648 -0.00000 0.25000 1.18000
Zn	Zn	0.56352 -0.00000 0.75000 1.18000
H 	H 	0.02170 0.19060 0.36200 0.02300
H 	H 	0.88620 0.31700 0.43120 0.08600
H 	H 	0.46260 0.49200 0.41520 0.08600
H 	H 	0.59750 0.36760 0.34500 0.02100
H 	H 	0.17820 0.56100 0.48110 0.06100
H 	H 	0.88900 0.09840 0.21500 0.00500
H 	H 	0.12850 0.09780 0.11600 0.06800
H 	H 	0.66510 0.89920 0.97830 0.06500
H 	H 	0.43430 0.91620 0.07970 -0.01800
H 	H 	0.83110 0.80940 0.13800 0.04200
H 	H 	0.56920 0.68300 0.06880 0.08500
H 	H 	0.97060 0.50800 0.08480 0.08200
H 	H 	0.22990 0.63240 0.15500 0.02600
H 	H 	0.61720 0.43900 0.01890 0.05700
H 	H 	0.79060 0.90160 0.28500 0.04300
H 	H 	0.03070 0.90220 0.38400 0.02200
H 	H 	0.76590 0.10080 0.52170 0.02800
H 	H 	0.51810 0.08380 0.42030 0.03300
H 	H 	0.97830 0.80940 0.63800 0.03800
H 	H 	0.11380 0.68300 0.56880 0.09000
H 	H 	0.53740 0.50800 0.58480 0.08400
H 	H 	0.40250 0.63240 0.65500 0.02500
H 	H 	0.82180 0.43900 0.51890 0.06000
H 	H 	0.11100 0.90160 0.78500 0.04600
H 	H 	0.87150 0.90220 0.88400 0.01600
H 	H 	0.33490 0.10080 0.02170 0.03100
H 	H 	0.56570 0.08380 0.92030 0.03200
H 	H 	0.16890 0.19060 0.86200 0.02100
H 	H 	0.43080 0.31700 0.93120 0.09100
H 	H 	0.02940 0.49200 0.91520 0.08800
H 	H 	0.77010 0.36760 0.84500 0.02000
H 	H 	0.38280 0.56100 0.98110 0.06400
H 	H 	0.20940 0.09840 0.71500 0.00700
H 	H 	0.96930 0.09780 0.61600 0.06300
H 	H 	0.23410 0.89920 0.47830 0.06800
H 	H 	0.48190 0.91620 0.57970 -0.01900
C 	C 	0.41210 0.18240 0.30370 0.35000
C 	C 	0.32210 0.26540 0.34630 -0.13100
C 	C 	0.11090 0.25140 0.37260 0.07000
C 	C 	0.02980 0.32740 0.41480 -0.14400
C 	C 	0.16150 0.41820 0.43260 0.10400
C 	C 	0.37340 0.43100 0.40480 -0.15300
C 	C 	0.45520 0.35680 0.36250 0.06500
C 	C 	0.08900 0.50120 0.47990 -0.08100
C 	C 	0.84350 0.05820 0.16650 0.04800
C 	C 	0.98850 0.05880 0.10700 -0.13000
C 	C 	0.92430 0.00000 0.03270 -0.00300
C 	C 	0.71440 0.94260 0.02500 -0.05200
C 	C 	0.57920 0.95060 0.08790 0.17100
C 	C 	0.22970 0.81760 0.19630 0.33400
C 	C 	0.05670 0.73460 0.15370 -0.11000
C 	C 	0.85950 0.74860 0.12740 0.05300
C 	C 	0.70240 0.67260 0.08520 -0.13200
C 	C 	0.74330 0.58180 0.06740 0.09500
C 	C 	0.94240 0.56900 0.09520 -0.14300
C 	C 	0.09840 0.64320 0.13750 0.05400
C 	C 	0.58780 0.49880 0.02010 -0.07200
C 	C 	0.78530 0.94180 0.33350 0.00400
C 	C 	0.92970 0.94120 0.39300 0.06800
C 	C 	0.92430 0.00000 0.46730 -0.10700
C 	C 	0.77180 0.05740 0.47500 -0.02100
C 	C 	0.62860 0.04940 0.41210 -0.08900
C 	C 	0.58790 0.81760 0.69630 0.33600
C 	C 	0.67790 0.73460 0.65370 -0.11600
C 	C 	0.88910 0.74860 0.62740 0.06300
C 	C 	0.97020 0.67260 0.58520 -0.14400
C 	C 	0.83850 0.58180 0.56740 0.10300
C 	C 	0.62660 0.56900 0.59520 -0.14800
C 	C 	0.54480 0.64320 0.63750 0.05800
C 	C 	0.91100 0.49880 0.52010 -0.08600
C 	C 	0.15650 0.94180 0.83350 0.00100
C 	C 	0.01150 0.94120 0.89300 0.07600
C 	C 	0.07570 0.00000 0.96730 -0.10700
C 	C 	0.28560 0.05740 0.97500 -0.02300
C 	C 	0.42080 0.04940 0.91210 -0.08700
C 	C 	0.77030 0.18240 0.80370 0.35200
C 	C 	0.94330 0.26540 0.84630 -0.13700
C 	C 	0.14050 0.25140 0.87260 0.07800
C 	C 	0.29760 0.32740 0.91480 -0.15400
C 	C 	0.25670 0.41820 0.93260 0.11200
C 	C 	0.05760 0.43100 0.90480 -0.15700
C 	C 	0.90160 0.35680 0.86250 0.06800
C 	C 	0.41220 0.50120 0.97990 -0.09500
C 	C 	0.21470 0.05820 0.66650 0.04500
C 	C 	0.07030 0.05880 0.60700 -0.12300
C 	C 	0.07570 0.00000 0.53270 -0.00500
C 	C 	0.22820 0.94260 0.52500 -0.05300
C 	C 	0.37140 0.95060 0.58790 0.17300
N 	N 	0.63910 0.00260 0.15800 -0.32600
N 	N 	0.63650 0.99740 0.34200 -0.16000
N 	N 	0.36090 0.99740 0.84200 -0.16000
N 	N 	0.36350 0.00260 0.65800 -0.32600
O 	O 	0.28183 0.10166 0.29110 -0.48300
O 	O 	0.60640 0.19400 0.28680 -0.33700
O 	O 	0.18017 0.89834 0.20890 -0.41500
O 	O 	0.41240 0.80600 0.21320 -0.31600
O 	O 	0.71817 0.89834 0.70890 -0.41700
O 	O 	0.39360 0.80600 0.71320 -0.31700
O 	O 	0.81983 0.10166 0.79110 -0.48400
O 	O 	0.58760 0.19400 0.78680 -0.33700
