data_crystal

_cell_length_a 9.11370
_cell_length_b 9.66390
_cell_length_c 22.25900
_cell_angle_alpha 90.00000
_cell_angle_beta  90.00000
_cell_angle_gamma 117.96000

_symmetry_space_group_name_	'P 1'
_symmetry_space_group_name_H-M	'P 1'

loop_
_symmetry_equiv_pos_as_xyz
  x,y,z

loop_
_atom_site_label
_atom_site_type_symbol
_atom_site_fract_x
_atom_site_fract_y
_atom_site_fract_z
_atom_site_charge
Ho	Ho	0.61922 0.35460 0.00827 1.95700
Ho	Ho	0.88078 0.64540 0.50827 1.95900
Ho	Ho	0.38078 0.64540 0.99173 1.95700
Ho	Ho	0.11922 0.35460 0.49173 1.95900
Ag	Ag	0.01177 0.67984 0.85168 0.55100
Ag	Ag	0.48823 0.32016 0.35168 0.55300
Ag	Ag	0.98823 0.32016 0.14832 0.55100
Ag	Ag	0.51177 0.67984 0.64832 0.55300
H 	H 	0.94520 0.22720 0.92890 -0.00200
H 	H 	0.74600 0.03680 0.86780 0.11000
H 	H 	0.77530 0.82320 0.84110 -0.02100
H 	H 	0.18250 0.97110 0.93500 -0.00700
H 	H 	0.98510 0.63800 0.71590 -0.00700
H 	H 	0.10180 0.30950 0.65990 0.00300
H 	H 	0.13870 0.26250 0.75980 0.09200
H 	H 	0.10840 0.41220 0.83340 -0.00000
H 	H 	0.55480 0.77280 0.42890 -0.00300
H 	H 	0.75400 0.96320 0.36780 0.11200
H 	H 	0.72470 0.17680 0.34110 -0.02000
H 	H 	0.31750 0.02890 0.43500 -0.00800
H 	H 	0.51490 0.36200 0.21590 -0.01200
H 	H 	0.39820 0.69050 0.15990 0.00200
H 	H 	0.36130 0.73750 0.25980 0.09300
H 	H 	0.39160 0.58780 0.33340 -0.00000
H 	H 	0.05480 0.77280 0.07110 -0.00100
H 	H 	0.25400 0.96320 0.13220 0.11100
H 	H 	0.22470 0.17680 0.15890 -0.02000
H 	H 	0.81750 0.02890 0.06500 -0.00600
H 	H 	0.01490 0.36200 0.28410 -0.00700
H 	H 	0.89820 0.69050 0.34010 0.00300
H 	H 	0.86130 0.73750 0.24020 0.09200
H 	H 	0.89160 0.58780 0.16660 -0.00000
H 	H 	0.44520 0.22720 0.57110 -0.00300
H 	H 	0.24600 0.03680 0.63220 0.11200
H 	H 	0.27530 0.82320 0.65890 -0.02000
H 	H 	0.68250 0.97110 0.56500 -0.00800
H 	H 	0.48510 0.63800 0.78410 -0.01200
H 	H 	0.60180 0.30950 0.84010 0.00200
H 	H 	0.63870 0.26250 0.74020 0.09300
H 	H 	0.60840 0.41220 0.66660 -0.00000
C 	C 	0.22440 0.24610 0.97436 0.48900
C 	C 	0.08810 0.11970 0.93770 -0.20000
C 	C 	0.95490 0.13910 0.91787 0.12600
C 	C 	0.83650 0.02600 0.88140 -0.18200
C 	C 	0.85480 0.89830 0.86590 0.11100
C 	C 	0.09500 0.98610 0.92080 0.11300
C 	C 	0.01840 0.56270 0.72449 0.10300
C 	C 	0.03940 0.48110 0.67720 -0.21100
C 	C 	0.08630 0.36690 0.69050 0.10100
C 	C 	0.10970 0.33990 0.74980 -0.17700
C 	C 	0.08940 0.42900 0.79370 0.09500
C 	C 	0.01080 0.51680 0.61420 0.48400
C 	C 	0.50810 0.00750 0.96559 0.26200
C 	C 	0.99780 0.52000 0.96683 0.26000
C 	C 	0.27560 0.75390 0.47436 0.49100
C 	C 	0.41190 0.88030 0.43770 -0.20700
C 	C 	0.54510 0.86090 0.41787 0.12800
C 	C 	0.66350 0.97400 0.38140 -0.18300
C 	C 	0.64520 0.10170 0.36590 0.11000
C 	C 	0.40500 0.01390 0.42080 0.12500
C 	C 	0.48160 0.43730 0.22449 0.11100
C 	C 	0.46060 0.51890 0.17720 -0.21400
C 	C 	0.41370 0.63310 0.19050 0.10400
C 	C 	0.39030 0.66010 0.24980 -0.17800
C 	C 	0.41060 0.57100 0.29370 0.09700
C 	C 	0.48920 0.48320 0.11420 0.48800
C 	C 	0.99190 0.99250 0.46559 0.26000
C 	C 	0.50220 0.48000 0.46683 0.25700
C 	C 	0.77560 0.75390 0.02564 0.48900
C 	C 	0.91190 0.88030 0.06230 -0.20000
C 	C 	0.04510 0.86090 0.08213 0.12600
C 	C 	0.16350 0.97400 0.11860 -0.18200
C 	C 	0.14520 0.10170 0.13410 0.11100
C 	C 	0.90500 0.01390 0.07920 0.11300
C 	C 	0.98160 0.43730 0.27551 0.10300
C 	C 	0.96060 0.51890 0.32280 -0.21100
C 	C 	0.91370 0.63310 0.30950 0.10100
C 	C 	0.89030 0.66010 0.25020 -0.17700
C 	C 	0.91060 0.57100 0.20630 0.09500
C 	C 	0.98920 0.48320 0.38580 0.48400
C 	C 	0.49190 0.99250 0.03441 0.26200
C 	C 	0.00220 0.48000 0.03317 0.26000
C 	C 	0.72440 0.24610 0.52564 0.49100
C 	C 	0.58810 0.11970 0.56230 -0.20700
C 	C 	0.45490 0.13910 0.58213 0.12800
C 	C 	0.33650 0.02600 0.61860 -0.18300
C 	C 	0.35480 0.89830 0.63410 0.11000
C 	C 	0.59500 0.98610 0.57920 0.12500
C 	C 	0.51840 0.56270 0.77551 0.11100
C 	C 	0.53940 0.48110 0.82280 -0.21400
C 	C 	0.58630 0.36690 0.80950 0.10400
C 	C 	0.60970 0.33990 0.75020 -0.17800
C 	C 	0.58940 0.42900 0.70630 0.09700
C 	C 	0.51080 0.51680 0.88580 0.48800
C 	C 	0.00810 0.00750 0.53441 0.26000
C 	C 	0.49780 0.52000 0.53317 0.25700
N 	N 	0.98190 0.87600 0.88476 -0.20500
N 	N 	0.04330 0.53950 0.78198 -0.20400
N 	N 	0.51810 0.12400 0.38476 -0.20900
N 	N 	0.45670 0.46050 0.28198 -0.20500
N 	N 	0.01810 0.12400 0.11524 -0.20500
N 	N 	0.95670 0.46050 0.21802 -0.20400
N 	N 	0.48190 0.87600 0.61524 -0.20900
N 	N 	0.54330 0.53950 0.71802 -0.20500
O 	O 	0.32800 0.21260 0.99912 -0.48100
O 	O 	0.22350 0.37450 0.97613 -0.49900
O 	O 	0.94920 0.60760 0.60668 -0.47800
O 	O 	0.04820 0.45170 0.57264 -0.54600
O 	O 	0.13400 0.61490 0.94346 -0.44200
O 	O 	0.86050 0.45690 0.94095 -0.40500
O 	O 	0.57810 0.14370 0.94439 -0.40500
O 	O 	0.45070 0.88260 0.93619 -0.39000
O 	O 	0.17200 0.78740 0.49912 -0.48400
O 	O 	0.27650 0.62550 0.47613 -0.49900
O 	O 	0.55080 0.39240 0.10668 -0.48000
O 	O 	0.45180 0.54830 0.07264 -0.54600
O 	O 	0.36600 0.38510 0.44346 -0.44000
O 	O 	0.63950 0.54310 0.44095 -0.40600
O 	O 	0.92190 0.85630 0.44439 -0.40500
O 	O 	0.04930 0.11740 0.43619 -0.38800
O 	O 	0.67200 0.78740 0.00088 -0.48100
O 	O 	0.77650 0.62550 0.02387 -0.49900
O 	O 	0.05080 0.39240 0.39332 -0.47800
O 	O 	0.95180 0.54830 0.42736 -0.54600
O 	O 	0.86600 0.38510 0.05654 -0.44200
O 	O 	0.13950 0.54310 0.05905 -0.40500
O 	O 	0.42190 0.85630 0.05561 -0.40500
O 	O 	0.54930 0.11740 0.06381 -0.39000
O 	O 	0.82800 0.21260 0.50088 -0.48400
O 	O 	0.72350 0.37450 0.52387 -0.49900
O 	O 	0.44920 0.60760 0.89332 -0.48000
O 	O 	0.54820 0.45170 0.92736 -0.54600
O 	O 	0.63400 0.61490 0.55654 -0.44000
O 	O 	0.36050 0.45690 0.55905 -0.40600
O 	O 	0.07810 0.14370 0.55561 -0.40500
O 	O 	0.95070 0.88260 0.56381 -0.38800
