data_crystal

_cell_length_a 7.50900
_cell_length_b 11.88100
_cell_length_c 20.94200
_cell_angle_alpha 96.62300
_cell_angle_beta  92.47400
_cell_angle_gamma 102.01500

_symmetry_space_group_name_	'P 1'
_symmetry_space_group_name_H-M	'P 1'

loop_
_symmetry_equiv_pos_as_xyz
  x,y,z

loop_
_atom_site_label
_atom_site_type_symbol
_atom_site_fract_x
_atom_site_fract_y
_atom_site_fract_z
_atom_site_charge
Cd	Cd	0.65169 0.85364 0.09578 1.22800
Cd	Cd	0.74880 0.01980 0.47812 1.21500
Cd	Cd	0.39373 0.17181 0.08465 1.23000
Cd	Cd	0.34831 0.14636 0.90422 1.22900
Cd	Cd	0.25120 0.98020 0.52188 1.23000
Cd	Cd	0.60627 0.82819 0.91535 1.23800
Cd	Cd	-0.00000 0.00000 -0.00000 1.19800
H 	H 	0.05460 0.79380 0.14210 -0.01000
H 	H 	0.59930 0.56150 0.12800 0.02100
H 	H 	0.84040 0.46920 0.16300 0.03800
H 	H 	0.22480 0.54840 0.15860 0.09300
H 	H 	0.28530 0.68360 0.16560 0.09700
H 	H 	0.98820 0.65940 0.27270 0.10700
H 	H 	0.13840 0.77160 0.27140 0.10400
H 	H 	0.96850 0.57240 0.39050 0.06500
H 	H 	0.03030 0.68470 0.49600 0.01300
H 	H 	0.26770 0.88210 0.37530 0.01400
H 	H 	0.06850 0.46480 0.26160 0.08000
H 	H 	0.21100 0.50580 0.32080 0.09200
H 	H 	0.52670 0.43860 0.31240 0.04700
H 	H 	0.17460 0.35110 0.16080 -0.00700
H 	H 	0.63600 0.30340 0.23440 0.02500
H 	H 	0.62690 0.89160 0.32560 0.01700
H 	H 	0.64440 0.72280 0.47400 0.04200
H 	H 	0.47310 0.58640 0.38730 0.04100
H 	H 	0.46830 0.74560 0.24160 0.09300
H 	H 	0.51230 0.62470 0.24840 0.08600
H 	H 	0.93650 0.05960 0.26950 0.07400
H 	H 	0.55110 0.07040 0.29770 0.02300
H 	H 	0.29490 0.48130 0.02020 0.02000
H 	H 	0.66100 0.01200 0.01900 0.19800
H 	H 	0.94540 0.20620 0.85790 0.02100
H 	H 	0.40070 0.43850 0.87200 0.01900
H 	H 	0.15960 0.53080 0.83700 0.04400
H 	H 	0.77520 0.45160 0.84140 0.09500
H 	H 	0.71470 0.31640 0.83440 0.09500
H 	H 	0.01180 0.34060 0.72730 0.06900
H 	H 	0.86160 0.22840 0.72860 0.08100
H 	H 	0.03150 0.42760 0.60950 0.02400
H 	H 	0.96970 0.31530 0.50400 0.03100
H 	H 	0.73230 0.11790 0.62470 -0.00700
H 	H 	0.93150 0.53520 0.73840 0.08700
H 	H 	0.78900 0.49420 0.67920 0.09300
H 	H 	0.47330 0.56140 0.68760 0.04600
H 	H 	0.82540 0.64890 0.83920 -0.00100
H 	H 	0.36400 0.69660 0.76560 0.02300
H 	H 	0.37310 0.10840 0.67440 -0.00300
H 	H 	0.35560 0.27720 0.52600 0.03800
H 	H 	0.52690 0.41360 0.61270 0.04200
H 	H 	0.53170 0.25440 0.75840 0.08500
H 	H 	0.48770 0.37530 0.75160 0.08300
H 	H 	0.06350 0.94040 0.73050 0.03100
H 	H 	0.44890 0.92960 0.70230 0.06300
H 	H 	0.70510 0.51870 0.97980 0.06100
H 	H 	0.33900 0.98800 0.98100 0.28000
C 	C 	0.97000 0.72460 0.14286 0.11500
C 	C 	0.72190 0.59780 0.13540 0.00200
C 	C 	0.85450 0.54560 0.15450 -0.00300
C 	C 	0.20010 0.61990 0.17998 -0.16800
C 	C 	0.23880 0.62320 0.25423 0.13800
C 	C 	0.11330 0.69670 0.28720 -0.18400
C 	C 	0.03670 0.64790 0.40000 -0.05800
C 	C 	0.07040 0.71070 0.45780 0.04700
C 	C 	0.20090 0.81870 0.39220 0.07900
C 	C 	0.19560 0.49970 0.27420 -0.15800
C 	C 	0.46920 0.40510 0.27250 -0.01300
C 	C 	0.27650 0.35610 0.18870 0.08300
C 	C 	0.52900 0.33020 0.22930 0.01500
C 	C 	0.60990 0.83290 0.35200 0.08500
C 	C 	0.61830 0.73990 0.43290 0.00400
C 	C 	0.52500 0.66400 0.38530 -0.00100
C 	C 	0.44420 0.68040 0.26629 -0.15800
C 	C 	0.43800 0.13140 0.40920 0.34900
C 	C 	0.33140 0.09280 0.34478 -0.08900
C 	C 	0.14220 0.08330 0.33708 -0.03800
C 	C 	0.06040 0.06050 0.27520 -0.05200
C 	C 	0.15510 0.03900 0.22112 -0.04500
C 	C 	0.34160 0.03650 0.22932 -0.14400
C 	C 	0.42660 0.06720 0.29177 0.04300
C 	C 	0.44980 0.99190 0.17712 0.43500
C 	C 	0.04730 0.01560 0.15670 0.31500
C 	C 	0.02370 0.08570 0.39340 0.30600
C 	C 	0.31150 0.69490 0.00580 0.35800
C 	C 	0.14530 0.59680 0.00378 -0.12500
C 	C 	0.96630 0.60920 0.99112 -0.00100
C 	C 	0.17570 0.48910 0.01210 0.04700
C 	C 	0.91740 0.72370 0.98590 0.40800
C 	C 	0.03000 0.27540 0.85714 0.04900
C 	C 	0.27810 0.40220 0.86460 0.02500
C 	C 	0.14550 0.45440 0.84550 -0.03000
C 	C 	0.79990 0.38010 0.82002 -0.16400
C 	C 	0.76120 0.37680 0.74577 0.12200
C 	C 	0.88670 0.30330 0.71280 -0.12100
C 	C 	0.96330 0.35210 0.60000 0.00600
C 	C 	0.92960 0.28930 0.54220 0.01500
C 	C 	0.79910 0.18130 0.60780 0.08300
C 	C 	0.80440 0.50030 0.72580 -0.15300
C 	C 	0.53080 0.59490 0.72750 -0.01300
C 	C 	0.72350 0.64390 0.81130 0.08400
C 	C 	0.47100 0.66980 0.77070 0.01500
C 	C 	0.39010 0.16710 0.64800 0.08100
C 	C 	0.38170 0.26010 0.56710 0.00000
C 	C 	0.47500 0.33600 0.61470 -0.00300
C 	C 	0.55580 0.31960 0.73371 -0.14900
C 	C 	0.56200 0.86860 0.59080 0.32800
C 	C 	0.66860 0.90720 0.65522 -0.02900
C 	C 	0.85780 0.91670 0.66292 -0.09100
C 	C 	0.93960 0.93950 0.72480 0.07100
C 	C 	0.84490 0.96100 0.77888 -0.13300
C 	C 	0.65840 0.96350 0.77068 -0.01000
C 	C 	0.57340 0.93280 0.70823 -0.03200
C 	C 	0.55020 0.00810 0.82288 0.27100
C 	C 	0.95270 0.98440 0.84330 0.45500
C 	C 	0.97630 0.91430 0.60660 0.35700
C 	C 	0.68850 0.30510 0.99420 0.40700
C 	C 	0.85470 0.40320 0.99622 0.01100
C 	C 	0.03370 0.39080 0.00888 -0.13200
C 	C 	0.82430 0.51090 0.98790 -0.03400
C 	C 	0.08260 0.27630 0.01410 0.32400
N 	N 	0.79170 0.71170 0.12832 -0.22800
N 	N 	0.01430 0.62740 0.15871 -0.11400
N 	N 	0.30780 0.42220 0.24647 -0.10000
N 	N 	0.40480 0.30030 0.17647 -0.22000
N 	N 	0.67040 0.84690 0.41279 -0.21500
N 	N 	0.51990 0.72250 0.33242 -0.09500
N 	N 	0.17120 0.81770 0.45321 -0.23500
N 	N 	0.12360 0.71740 0.35695 -0.08500
N 	N 	0.20830 0.28830 0.87168 -0.21700
N 	N 	0.98570 0.37260 0.84129 -0.07800
N 	N 	0.69220 0.57780 0.75353 -0.10000
N 	N 	0.59520 0.69970 0.82353 -0.22000
N 	N 	0.32960 0.15310 0.58721 -0.23100
N 	N 	0.48010 0.27750 0.66758 -0.09800
N 	N 	0.82880 0.18230 0.54679 -0.23500
N 	N 	0.87640 0.28260 0.64305 -0.10300
O 	O 	0.08220 0.07250 0.44740 -0.47500
O 	O 	0.86010 0.09560 0.38153 -0.36000
O 	O 	0.49570 0.23700 0.42244 -0.27600
O 	O 	0.46820 0.05310 0.44219 -0.50300
O 	O 	0.88020 0.97940 0.15708 -0.38600
O 	O 	0.13150 0.03460 0.10693 -0.52800
O 	O 	0.46800 0.88950 0.17855 -0.40800
O 	O 	0.52440 0.05280 0.13706 -0.52300
O 	O 	0.40620 0.71820 0.05728 -0.44300
O 	O 	0.34520 0.73880 0.95417 -0.40700
O 	O 	0.76020 0.71730 0.96157 -0.47500
O 	O 	0.02940 0.81480 0.00632 -0.48800
O 	O 	0.69550 0.94740 0.01155 -0.73600
O 	O 	0.91780 0.92750 0.55260 -0.45900
O 	O 	0.13990 0.90440 0.61847 -0.37500
O 	O 	0.50430 0.76300 0.57756 -0.26900
O 	O 	0.53180 0.94690 0.55781 -0.46900
O 	O 	0.11980 0.02060 0.84292 -0.48900
O 	O 	0.86850 0.96540 0.89307 -0.52200
O 	O 	0.53200 0.11050 0.82145 -0.37900
O 	O 	0.47560 0.94720 0.86294 -0.43300
O 	O 	0.59380 0.28180 0.94272 -0.44600
O 	O 	0.65480 0.26120 0.04583 -0.46400
O 	O 	0.23980 0.28270 0.03843 -0.47700
O 	O 	0.97060 0.18520 0.99368 -0.39700
O 	O 	0.30450 0.05260 0.98845 -0.78200
