data_crystal

_cell_length_a 8.84940
_cell_length_b 10.37280
_cell_length_c 16.94710
_cell_angle_alpha 90.00000
_cell_angle_beta  92.86900
_cell_angle_gamma 90.00000

_symmetry_space_group_name_	'P 1'
_symmetry_space_group_name_H-M	'P 1'

loop_
_symmetry_equiv_pos_as_xyz
  x,y,z

loop_
_atom_site_label
_atom_site_type_symbol
_atom_site_fract_x
_atom_site_fract_y
_atom_site_fract_z
_atom_site_charge
O 	O 	0.50480 0.18290 0.30780 -0.35100
O 	O 	0.96230 0.36550 0.16840 -0.36100
O 	O 	0.71490 0.34200 0.23550 -0.36200
O 	O 	0.96330 0.29740 0.50360 -0.35300
O 	O 	0.83080 0.50230 0.45590 -0.36600
O 	O 	0.72900 0.29320 0.08900 -0.34300
O 	O 	0.42610 0.19480 0.16090 -0.38300
O 	O 	0.76030 0.28610 0.39720 -0.33800
O 	O 	0.01320 0.39710 0.37070 -0.43100
O 	O 	0.32340 0.01700 0.24580 -0.35300
O 	O 	0.74670 0.52100 0.13700 -0.31800
O 	O 	0.24560 0.24840 0.26380 -0.35600
Fe	Fe	0.72850 0.18230 0.30150 1.31400
Fe	Fe	0.07070 0.34920 0.26850 1.28300
Fe	Fe	0.59080 0.15100 0.09610 1.27700
P 	P 	0.37720 0.15840 0.24430 0.55600
P 	P 	0.78740 0.38080 0.15860 0.52700
P 	P 	0.89170 0.36880 0.43160 0.54200
F 	F 	0.95130 0.18300 0.28440 -0.57200
F 	F 	0.70550 0.08940 0.19720 -0.60400
O 	O 	0.99520 0.68290 0.19220 -0.35200
O 	O 	0.53770 0.86550 0.33160 -0.36400
O 	O 	0.78510 0.84200 0.26450 -0.36400
O 	O 	0.53670 0.79740 0.99640 -0.35400
O 	O 	0.66920 0.00230 0.04410 -0.36300
O 	O 	0.77100 0.79320 0.41100 -0.34500
O 	O 	0.07390 0.69480 0.33910 -0.38200
O 	O 	0.73970 0.78610 0.10280 -0.33800
O 	O 	0.48680 0.89710 0.12930 -0.43000
O 	O 	0.17660 0.51700 0.25420 -0.35300
O 	O 	0.75330 0.02100 0.36300 -0.31600
O 	O 	0.25440 0.74840 0.23620 -0.35500
Fe	Fe	0.77150 0.68230 0.19850 1.31300
Fe	Fe	0.42930 0.84920 0.23150 1.28400
Fe	Fe	0.90920 0.65100 0.40390 1.27600
P 	P 	0.12280 0.65840 0.25570 0.55600
P 	P 	0.71260 0.88080 0.34140 0.52500
P 	P 	0.60830 0.86880 0.06840 0.53600
F 	F 	0.54870 0.68300 0.21560 -0.57400
F 	F 	0.79450 0.58940 0.30280 -0.60500
O 	O 	0.49520 0.81710 0.69220 -0.35200
O 	O 	0.03770 0.63450 0.83160 -0.36200
O 	O 	0.28510 0.65800 0.76450 -0.36300
O 	O 	0.03670 0.70260 0.49640 -0.35400
O 	O 	0.16920 0.49770 0.54410 -0.36700
O 	O 	0.27100 0.70680 0.91100 -0.34400
O 	O 	0.57390 0.80520 0.83910 -0.38300
O 	O 	0.23970 0.71390 0.60280 -0.33800
O 	O 	0.98680 0.60290 0.62930 -0.43100
O 	O 	0.67660 0.98300 0.75420 -0.35300
O 	O 	0.25330 0.47900 0.86300 -0.31800
O 	O 	0.75440 0.75160 0.73620 -0.35600
Fe	Fe	0.27150 0.81770 0.69850 1.31400
Fe	Fe	0.92930 0.65080 0.73150 1.28300
Fe	Fe	0.40920 0.84900 0.90390 1.27700
P 	P 	0.62280 0.84160 0.75570 0.55600
P 	P 	0.21260 0.61920 0.84140 0.52700
P 	P 	0.10830 0.63120 0.56840 0.54200
F 	F 	0.04870 0.81700 0.71560 -0.57200
F 	F 	0.29450 0.91060 0.80280 -0.60400
O 	O 	0.00480 0.31710 0.80780 -0.35200
O 	O 	0.46230 0.13450 0.66840 -0.36400
O 	O 	0.21490 0.15800 0.73550 -0.36400
O 	O 	0.46330 0.20260 0.00360 -0.35400
O 	O 	0.33080 0.99770 0.95590 -0.36300
O 	O 	0.22900 0.20680 0.58900 -0.34500
O 	O 	0.92610 0.30520 0.66090 -0.38200
O 	O 	0.26030 0.21390 0.89720 -0.33800
O 	O 	0.51320 0.10290 0.87070 -0.43000
O 	O 	0.82340 0.48300 0.74580 -0.35300
O 	O 	0.24670 0.97900 0.63700 -0.31600
O 	O 	0.74560 0.25160 0.76380 -0.35500
Fe	Fe	0.22850 0.31770 0.80150 1.31300
Fe	Fe	0.57070 0.15080 0.76850 1.28400
Fe	Fe	0.09080 0.34900 0.59610 1.27600
P 	P 	0.87720 0.34160 0.74430 0.55600
P 	P 	0.28740 0.11920 0.65860 0.52500
P 	P 	0.39170 0.13120 0.93160 0.53600
F 	F 	0.45130 0.31700 0.78440 -0.57400
F 	F 	0.20550 0.41060 0.69720 -0.60500
