data_crystal

_cell_length_a 7.73000
_cell_length_b 21.26000
_cell_length_c 21.26000
_cell_angle_alpha 120.00000
_cell_angle_beta  90.00000
_cell_angle_gamma 90.00000

_symmetry_space_group_name_	'P 1'
_symmetry_space_group_name_H-M	'P 1'

loop_
_symmetry_equiv_pos_as_xyz
  x,y,z

loop_
_atom_site_label
_atom_site_type_symbol
_atom_site_fract_x
_atom_site_fract_y
_atom_site_fract_z
_atom_site_charge
Zn	Zn	-0.00000 0.29909 0.70092 1.22500
Zn	Zn	0.66667 0.40183 0.70091 1.23000
Zn	Zn	0.33333 0.29909 0.59818 1.22900
Zn	Zn	0.00000 0.70091 0.29908 1.22600
Zn	Zn	0.66667 0.59817 0.29908 1.23000
Zn	Zn	0.33333 0.70092 0.40183 1.22800
H 	H 	0.10960 0.15340 0.40760 0.04300
H 	H 	0.56530 0.07050 0.41320 0.19000
H 	H 	0.69250 0.15710 0.51930 -0.02100
H 	H 	0.98920 0.06480 0.30150 0.29200
H 	H 	0.77627 0.25420 0.84660 0.02100
H 	H 	0.23197 0.34270 0.92950 0.18100
H 	H 	0.35917 0.36220 0.84290 -0.03600
H 	H 	0.65587 0.23670 0.93520 0.28800
H 	H 	0.44293 0.59240 0.74580 0.00400
H 	H 	0.89863 0.58680 0.65730 0.22500
H 	H 	0.02583 0.48070 0.63780 -0.05800
H 	H 	0.32253 0.69850 0.76330 0.31400
H 	H 	0.10960 0.84660 0.59240 0.04700
H 	H 	0.56530 0.92950 0.58680 0.16800
H 	H 	0.69250 0.84290 0.48070 -0.01700
H 	H 	0.98920 0.93520 0.69850 0.26700
H 	H 	0.77627 0.74580 0.15340 0.01500
H 	H 	0.23197 0.65730 0.07050 0.20600
H 	H 	0.35917 0.63780 0.15710 -0.04100
H 	H 	0.65587 0.76330 0.06480 0.31400
H 	H 	0.44293 0.40760 0.25420 0.00500
H 	H 	0.89863 0.41320 0.34270 0.22500
H 	H 	0.02583 0.51930 0.36220 -0.05800
H 	H 	0.32253 0.30150 0.23670 0.31500
H 	H 	0.55707 0.74580 0.59240 0.01000
H 	H 	0.10137 0.65730 0.58680 0.18900
H 	H 	0.97417 0.63780 0.48070 -0.03600
H 	H 	0.67747 0.76330 0.69850 0.30800
H 	H 	0.89040 0.40760 0.15340 -0.01100
H 	H 	0.43470 0.41320 0.07050 0.22000
H 	H 	0.30750 0.51930 0.15710 -0.05700
H 	H 	0.01080 0.30150 0.06480 0.32900
H 	H 	0.22373 0.84660 0.25420 0.01600
H 	H 	0.76803 0.92950 0.34270 0.18500
H 	H 	0.64083 0.84290 0.36220 -0.03600
H 	H 	0.34413 0.93520 0.23670 0.28500
H 	H 	0.55707 0.25420 0.40760 0.01000
H 	H 	0.10137 0.34270 0.41320 0.18900
H 	H 	0.97417 0.36220 0.51930 -0.03500
H 	H 	0.67747 0.23670 0.30150 0.31000
H 	H 	0.89040 0.59240 0.84660 -0.00600
H 	H 	0.43470 0.58680 0.92950 0.19700
H 	H 	0.30750 0.48070 0.84290 -0.05300
H 	H 	0.01080 0.69850 0.93520 0.30400
H 	H 	0.22373 0.15340 0.74580 0.01000
H 	H 	0.76803 0.07050 0.65730 0.20800
H 	H 	0.64083 0.15710 0.63780 -0.04200
H 	H 	0.34413 0.06480 0.76330 0.31000
C 	C 	0.00380 0.21890 0.54130 0.45100
C 	C 	0.00020 0.13580 0.40880 0.19300
C 	C 	0.67640 0.08630 0.41150 -0.32600
C 	C 	0.75210 0.13870 0.47570 0.21900
C 	C 	0.91740 0.16350 0.47430 -0.21600
C 	C 	0.92810 0.08310 0.34490 -0.27600
C 	C 	0.75920 0.05690 0.34560 0.39700
C 	C 	0.54090 0.04240 0.25500 0.99200
C 	C 	0.67047 0.32240 0.78110 0.49600
C 	C 	0.66687 0.27300 0.86420 0.26200
C 	C 	0.34307 0.32520 0.91370 -0.35000
C 	C 	0.41877 0.33700 0.86130 0.24900
C 	C 	0.58407 0.31080 0.83650 -0.28100
C 	C 	0.59477 0.26180 0.91690 -0.32600
C 	C 	0.42587 0.28870 0.94310 0.38700
C 	C 	0.20757 0.21260 0.95760 0.97300
C 	C 	0.33713 0.45870 0.67760 0.51200
C 	C 	0.33353 0.59120 0.72700 0.30900
C 	C 	0.00973 0.58850 0.67480 -0.42800
C 	C 	0.08543 0.52430 0.66300 0.30700
C 	C 	0.25073 0.52570 0.68920 -0.31900
C 	C 	0.26143 0.65510 0.73820 -0.37900
C 	C 	0.09253 0.65440 0.71130 0.46700
C 	C 	0.87423 0.74500 0.78740 1.01900
C 	C 	0.00380 0.78110 0.45870 0.44600
C 	C 	0.00020 0.86420 0.59120 0.17200
C 	C 	0.67640 0.91370 0.58850 -0.30500
C 	C 	0.75210 0.86130 0.52430 0.19700
C 	C 	0.91740 0.83650 0.52570 -0.20700
C 	C 	0.92810 0.91690 0.65510 -0.25700
C 	C 	0.75920 0.94310 0.65440 0.35100
C 	C 	0.54090 0.95760 0.74500 0.97000
C 	C 	0.67047 0.67760 0.21890 0.50500
C 	C 	0.66687 0.72700 0.13580 0.28900
C 	C 	0.34307 0.67480 0.08630 -0.37600
C 	C 	0.41877 0.66300 0.13870 0.27700
C 	C 	0.58407 0.68920 0.16350 -0.29500
C 	C 	0.59477 0.73820 0.08310 -0.35000
C 	C 	0.42587 0.71130 0.05690 0.44000
C 	C 	0.20757 0.78740 0.04240 0.99900
C 	C 	0.33713 0.54130 0.32240 0.51200
C 	C 	0.33353 0.40880 0.27300 0.30900
C 	C 	0.00973 0.41150 0.32520 -0.42800
C 	C 	0.08543 0.47570 0.33700 0.30600
C 	C 	0.25073 0.47430 0.31080 -0.31900
C 	C 	0.26143 0.34490 0.26180 -0.37900
C 	C 	0.09253 0.34560 0.28870 0.46700
C 	C 	0.87423 0.25500 0.21260 1.01800
C 	C 	0.66287 0.67760 0.45870 0.50400
C 	C 	0.66647 0.72700 0.59120 0.29100
C 	C 	0.99027 0.67480 0.58850 -0.36200
C 	C 	0.91457 0.66300 0.52430 0.26900
C 	C 	0.74927 0.68920 0.52570 -0.29500
C 	C 	0.73857 0.73820 0.65510 -0.36100
C 	C 	0.90747 0.71130 0.65440 0.45200
C 	C 	0.12577 0.78740 0.74500 1.01200
C 	C 	0.99620 0.54130 0.21890 0.55000
C 	C 	0.99980 0.40880 0.13580 0.36500
C 	C 	0.32360 0.41150 0.08630 -0.41200
C 	C 	0.24790 0.47570 0.13870 0.32200
C 	C 	0.08260 0.47430 0.16350 -0.35900
C 	C 	0.07190 0.34490 0.08310 -0.40600
C 	C 	0.24080 0.34560 0.05690 0.46700
C 	C 	0.45910 0.25500 0.04240 0.99700
C 	C 	0.32953 0.78110 0.32240 0.49800
C 	C 	0.33313 0.86420 0.27300 0.26200
C 	C 	0.65693 0.91370 0.32520 -0.34700
C 	C 	0.58123 0.86130 0.33700 0.25000
C 	C 	0.41593 0.83650 0.31080 -0.28300
C 	C 	0.40523 0.91690 0.26180 -0.32500
C 	C 	0.57413 0.94310 0.28870 0.38300
C 	C 	0.79243 0.95760 0.21260 0.96700
C 	C 	0.66287 0.32240 0.54130 0.50400
C 	C 	0.66647 0.27300 0.40880 0.29000
C 	C 	0.99027 0.32520 0.41150 -0.36200
C 	C 	0.91457 0.33700 0.47570 0.26900
C 	C 	0.74927 0.31080 0.47430 -0.29500
C 	C 	0.73857 0.26180 0.34490 -0.36100
C 	C 	0.90747 0.28870 0.34560 0.45200
C 	C 	0.12577 0.21260 0.25500 1.01000
C 	C 	0.99620 0.45870 0.78110 0.54400
C 	C 	0.99980 0.59120 0.86420 0.34300
C 	C 	0.32360 0.58850 0.91370 -0.38900
C 	C 	0.24790 0.52430 0.86130 0.29800
C 	C 	0.08260 0.52570 0.83650 -0.34900
C 	C 	0.07190 0.65510 0.91690 -0.38600
C 	C 	0.24080 0.65440 0.94310 0.41900
C 	C 	0.45910 0.74500 0.95760 0.97400
C 	C 	0.32953 0.21890 0.67760 0.50600
C 	C 	0.33313 0.13580 0.72700 0.28800
C 	C 	0.65693 0.08630 0.67480 -0.37300
C 	C 	0.58123 0.13870 0.66300 0.27700
C 	C 	0.41593 0.16350 0.68920 -0.29700
C 	C 	0.40523 0.08310 0.73820 -0.34800
C 	C 	0.57413 0.05690 0.71130 0.43300
C 	C 	0.79243 0.04240 0.78740 0.99200
C 	C 	0.66667 -0.00000 0.27650 -0.48900
C 	C 	0.33333 0.27650 -0.00000 -0.51000
C 	C 	0.00000 0.72350 0.72350 -0.58700
C 	C 	0.66667 0.00000 0.72350 -0.49200
C 	C 	0.33333 0.72350 -0.00000 -0.51300
C 	C 	0.00000 0.27650 0.27650 -0.58600
O 	O 	0.92580 0.23900 0.60060 -0.50100
O 	O 	0.14620 0.24210 0.53560 -0.49800
O 	O 	0.59247 0.36160 0.76100 -0.52400
O 	O 	0.81287 0.29350 0.75790 -0.50300
O 	O 	0.25913 0.39940 0.63840 -0.53000
O 	O 	0.47953 0.46440 0.70650 -0.51100
O 	O 	0.92580 0.76100 0.39940 -0.50200
O 	O 	0.14620 0.75790 0.46440 -0.49800
O 	O 	0.59247 0.63840 0.23900 -0.52400
O 	O 	0.81287 0.70650 0.24210 -0.50400
O 	O 	0.25913 0.60060 0.36160 -0.53000
O 	O 	0.47953 0.53560 0.29350 -0.51000
O 	O 	0.74087 0.63840 0.39940 -0.52300
O 	O 	0.52047 0.70650 0.46440 -0.51100
O 	O 	0.07420 0.60060 0.23900 -0.54300
O 	O 	0.85380 0.53560 0.24210 -0.51700
O 	O 	0.40753 0.76100 0.36160 -0.52700
O 	O 	0.18713 0.75790 0.29350 -0.51100
O 	O 	0.74087 0.36160 0.60060 -0.52300
O 	O 	0.52047 0.29350 0.53560 -0.51000
O 	O 	0.07420 0.39940 0.76100 -0.54500
O 	O 	0.85380 0.46440 0.75790 -0.51700
O 	O 	0.40753 0.23900 0.63840 -0.52700
O 	O 	0.18713 0.24210 0.70650 -0.51300
F 	F 	0.41570 0.07130 0.30180 -0.49100
F 	F 	0.46910 0.00360 0.19000 -0.34600
F 	F 	0.62530 0.09760 0.25340 -0.38500
F 	F 	0.08237 0.23050 0.92870 -0.50300
F 	F 	0.13577 0.18640 0.99640 -0.37800
F 	F 	0.29197 0.15580 0.90240 -0.39100
F 	F 	0.74903 0.69820 0.76950 -0.50100
F 	F 	0.80243 0.81000 0.81360 -0.37200
F 	F 	0.95863 0.74660 0.84420 -0.39500
F 	F 	0.41570 0.92870 0.69820 -0.50000
F 	F 	0.46910 0.99640 0.81000 -0.38000
F 	F 	0.62530 0.90240 0.74660 -0.39300
F 	F 	0.08237 0.76950 0.07130 -0.49600
F 	F 	0.13577 0.81360 0.00360 -0.35500
F 	F 	0.29197 0.84420 0.09760 -0.39300
F 	F 	0.74903 0.30180 0.23050 -0.49900
F 	F 	0.80243 0.19000 0.18640 -0.35900
F 	F 	0.95863 0.25340 0.15580 -0.38600
F 	F 	0.25097 0.76950 0.69820 -0.50200
F 	F 	0.19757 0.81360 0.81000 -0.37500
F 	F 	0.04137 0.84420 0.74660 -0.40400
F 	F 	0.58430 0.30180 0.07130 -0.49000
F 	F 	0.53090 0.19000 0.00360 -0.34500
F 	F 	0.37470 0.25340 0.09760 -0.38700
F 	F 	0.91763 0.92870 0.23050 -0.49400
F 	F 	0.86423 0.99640 0.18640 -0.37000
F 	F 	0.70803 0.90240 0.15580 -0.38800
F 	F 	0.25097 0.23050 0.30180 -0.50000
F 	F 	0.19757 0.18640 0.19000 -0.36300
F 	F 	0.04137 0.15580 0.25340 -0.39400
F 	F 	0.58430 0.69820 0.92870 -0.49900
F 	F 	0.53090 0.81000 0.99640 -0.38000
F 	F 	0.37470 0.74660 0.90240 -0.39500
F 	F 	0.91763 0.07130 0.76950 -0.48700
F 	F 	0.86423 0.00360 0.81360 -0.34800
F 	F 	0.70803 0.09760 0.84420 -0.39000
