data_crystal

_cell_length_a 12.45800
_cell_length_b 17.20890
_cell_length_c 28.38730
_cell_angle_alpha 81.60040
_cell_angle_beta  77.32450
_cell_angle_gamma 68.77910

_symmetry_space_group_name_	'P 1'
_symmetry_space_group_name_H-M	'P 1'

loop_
_symmetry_equiv_pos_as_xyz
  x,y,z

loop_
_atom_site_label
_atom_site_type_symbol
_atom_site_fract_x
_atom_site_fract_y
_atom_site_fract_z
_atom_site_charge
Zn	Zn	0.72055 0.86369 0.82821 1.23200
Zn	Zn	0.79628 0.43084 0.25622 1.19600
Zn	Zn	0.58755 0.36369 0.32821 1.23300
Zn	Zn	0.51666 0.93084 0.75622 1.19700
H 	H 	0.88140 0.04730 0.76050 0.00000
H 	H 	0.94100 0.15790 0.72050 0.12000
H 	H 	0.64120 0.25160 0.66460 0.12400
H 	H 	0.58440 0.13990 0.70510 -0.01500
H 	H 	0.95720 0.29090 0.68510 0.03600
H 	H 	0.99870 0.22590 0.64390 0.03400
H 	H 	0.63470 0.70580 0.68720 -0.00500
H 	H 	0.71560 0.57860 0.65300 0.12300
H 	H 	0.97170 0.50720 0.73400 0.10000
H 	H 	0.88820 0.63580 0.76820 -0.02100
H 	H 	0.36340 0.22480 0.42980 0.00600
H 	H 	0.23380 0.20010 0.50010 0.11700
H 	H 	0.22680 0.40920 0.55060 0.11900
H 	H 	0.34840 0.43390 0.48090 0.00800
H 	H 	0.71990 0.34070 0.44190 -0.00800
H 	H 	0.78150 0.32940 0.51480 0.12400
H 	H 	0.01380 0.44300 0.44940 0.13600
H 	H 	0.95430 0.45210 0.37610 -0.00400
H 	H 	0.81900 0.34970 0.57950 0.04000
H 	H 	0.94200 0.27660 0.56500 0.04500
H 	H 	0.10410 0.34660 0.63200 0.03800
H 	H 	0.07230 0.40610 0.58430 0.04000
H 	H 	0.78410 0.43390 0.64530 0.05000
H 	H 	0.86110 0.47950 0.60650 0.04000
H 	H 	0.31080 0.54730 0.26050 0.00000
H 	H 	0.18060 0.65790 0.22050 0.12000
H 	H 	0.44260 0.75160 0.16460 0.12400
H 	H 	0.57060 0.63990 0.20510 -0.01500
H 	H 	0.06680 0.79090 0.18510 0.03600
H 	H 	0.13150 0.72590 0.14390 0.03400
H 	H 	0.97230 0.20580 0.18720 -0.00600
H 	H 	0.05280 0.07860 0.15300 0.12400
H 	H 	0.78710 0.00720 0.23400 0.10000
H 	H 	0.70780 0.13580 0.26820 -0.02100
H 	H 	0.98200 0.72480 0.92980 0.00600
H 	H 	0.06600 0.70010 0.00010 0.11700
H 	H 	0.81340 0.90920 0.05060 0.11900
H 	H 	0.73680 0.93390 0.98090 0.00800
H 	H 	0.49750 0.84070 0.94190 -0.00800
H 	H 	0.37430 0.82940 0.01480 0.12500
H 	H 	0.09380 0.94300 0.94940 0.13600
H 	H 	0.21750 0.95210 0.87610 -0.00400
H 	H 	0.25180 0.84970 0.07950 0.04000
H 	H 	0.21640 0.77660 0.06500 0.04500
H 	H 	0.91730 0.84660 0.13200 0.03800
H 	H 	0.93730 0.90610 0.08430 0.04100
H 	H 	0.13670 0.93390 0.14530 0.05000
H 	H 	0.05290 0.97950 0.10650 0.04100
C 	C 	0.68892 0.01204 0.76132 0.43800
C 	C 	0.72669 0.08350 0.73692 -0.21000
C 	C 	0.83280 0.08879 0.74101 0.15100
C 	C 	0.86915 0.15388 0.71702 -0.25000
C 	C 	0.79800 0.21294 0.68786 0.26700
C 	C 	0.69051 0.20964 0.68374 -0.24600
C 	C 	0.65669 0.14363 0.70819 0.14700
C 	C 	0.94081 0.27997 0.65461 0.02100
C 	C 	0.94636 0.35074 0.61554 0.00800
C 	C 	0.70518 0.76723 0.75161 0.43500
C 	C 	0.75430 0.68487 0.73053 -0.20600
C 	C 	0.70366 0.66554 0.69654 0.14900
C 	C 	0.75114 0.59000 0.67632 -0.25600
C 	C 	0.85028 0.53077 0.68987 0.26000
C 	C 	0.90318 0.54771 0.72453 -0.23400
C 	C 	0.85376 0.62435 0.74453 0.13600
C 	C 	0.44941 0.35041 0.40297 0.33700
C 	C 	0.36659 0.33227 0.44855 -0.15900
C 	C 	0.33407 0.26305 0.45441 0.11200
C 	C 	0.25747 0.24764 0.49642 -0.22500
C 	C 	0.21825 0.30306 0.53184 0.25600
C 	C 	0.25338 0.37147 0.52577 -0.24100
C 	C 	0.32589 0.38587 0.48455 0.12800
C 	C 	0.79330 0.40121 0.35479 0.44700
C 	C 	0.78000 0.36146 0.44334 0.16000
C 	C 	0.81563 0.35541 0.48673 -0.26500
C 	C 	0.90145 0.38732 0.48938 0.27800
C 	C 	0.95357 0.42237 0.44789 -0.26300
C 	C 	0.91832 0.42763 0.40433 0.15700
C 	C 	0.90503 0.33602 0.57232 0.01900
C 	C 	0.07204 0.35227 0.60225 0.02100
C 	C 	0.86424 0.43555 0.63337 0.01300
C 	C 	0.83136 0.39768 0.40140 -0.22000
C 	C 	0.53772 0.51204 0.26132 0.43900
C 	C 	0.45289 0.58350 0.23692 -0.21100
C 	C 	0.33740 0.58879 0.24101 0.15200
C 	C 	0.25995 0.65388 0.21702 -0.25000
C 	C 	0.30120 0.71294 0.18786 0.26700
C 	C 	0.41611 0.70964 0.18374 -0.24600
C 	C 	0.49149 0.64363 0.20819 0.14700
C 	C 	0.12461 0.77997 0.15461 0.02100
C 	C 	0.08736 0.85074 0.11554 0.00800
C 	C 	0.77598 0.26723 0.25161 0.43500
C 	C 	0.83030 0.18487 0.23053 -0.20600
C 	C 	0.93426 0.16554 0.19654 0.14900
C 	C 	0.98254 0.09000 0.17632 -0.25700
C 	C 	0.92908 0.03077 0.18987 0.25900
C 	C 	0.82458 0.04771 0.22453 -0.23400
C 	C 	0.77736 0.12435 0.24453 0.13600
C 	C 	0.79721 0.85041 0.90297 0.33700
C 	C 	0.85259 0.83227 0.94855 -0.15900
C 	C 	0.94847 0.76305 0.95441 0.11100
C 	C 	0.99847 0.74764 0.99642 -0.22500
C 	C 	0.94685 0.80306 0.03184 0.25600
C 	C 	0.84938 0.87147 0.02577 -0.24100
C 	C 	0.80369 0.88587 0.98455 0.12700
C 	C 	0.45070 0.90121 0.85479 0.44700
C 	C 	0.41520 0.86146 0.94334 0.16100
C 	C 	0.34223 0.85541 0.98673 -0.26600
C 	C 	0.22185 0.88732 0.98938 0.27800
C 	C 	0.17617 0.92237 0.94789 -0.26300
C 	C 	0.24972 0.92763 0.90433 0.15700
C 	C 	0.18663 0.83602 0.07232 0.01900
C 	C 	0.97344 0.85227 0.10225 0.02100
C 	C 	0.06684 0.93555 0.13337 0.01100
C 	C 	0.36956 0.89768 0.90140 -0.22000
O 	O 	0.75908 0.78024 0.78040 -0.49300
O 	O 	0.75241 0.95857 0.78853 -0.49300
O 	O 	0.90734 0.45385 0.67165 -0.24500
O 	O 	0.71847 0.36785 0.35495 -0.51800
O 	O 	0.83929 0.43517 0.31763 -0.51300
O 	O 	0.14338 0.28422 0.57262 -0.23400
O 	O 	0.46456 0.41870 0.39758 -0.36400
O 	O 	0.93712 0.38898 0.53122 -0.24200
O 	O 	0.59390 0.01062 0.75318 -0.54200
O 	O 	0.49797 0.29628 0.37338 -0.42500
O 	O 	0.61230 0.82013 0.73807 -0.52500
O 	O 	0.82437 0.27858 0.66142 -0.24700
O 	O 	0.68028 0.28024 0.28040 -0.49300
O 	O 	0.50049 0.45857 0.28853 -0.49300
O 	O 	0.96716 0.95385 0.17165 -0.24300
O 	O 	0.55873 0.86785 0.85495 -0.51800
O 	O 	0.40791 0.93517 0.81763 -0.51300
O 	O 	0.99978 0.78422 0.07262 -0.23400
O 	O 	0.71916 0.91870 0.89758 -0.36400
O 	O 	0.14268 0.88898 0.03122 -0.24200
O 	O 	0.64230 0.51062 0.25318 -0.54300
O 	O 	0.83237 0.79628 0.87338 -0.42500
O 	O 	0.82950 0.32013 0.23807 -0.52500
O 	O 	0.23563 0.77858 0.16142 -0.24700
Zn	Zn	0.41245 0.63631 0.67179 1.23300
Zn	Zn	0.48334 0.06916 0.24378 1.19700
Zn	Zn	0.27945 0.13631 0.17179 1.23300
Zn	Zn	0.20372 0.56916 0.74378 1.19700
H 	H 	0.68920 0.45270 0.73950 0.00000
H 	H 	0.81940 0.34210 0.77950 0.12000
H 	H 	0.55740 0.24840 0.83540 0.12400
H 	H 	0.42940 0.36010 0.79490 -0.01500
H 	H 	0.93320 0.20910 0.81490 0.03600
H 	H 	0.86850 0.27410 0.85610 0.03400
H 	H 	0.02770 0.79420 0.81280 -0.00600
H 	H 	0.94720 0.92140 0.84700 0.12400
H 	H 	0.21290 0.99280 0.76600 0.10000
H 	H 	0.29220 0.86420 0.73180 -0.02100
H 	H 	0.01800 0.27520 0.07020 0.00600
H 	H 	0.93400 0.29990 0.99990 0.11700
H 	H 	0.18660 0.09080 0.94940 0.11900
H 	H 	0.26320 0.06610 0.01910 0.00800
H 	H 	0.50250 0.15930 0.05810 -0.00800
H 	H 	0.62570 0.17060 0.98520 0.12500
H 	H 	0.90620 0.05700 0.05060 0.13600
H 	H 	0.78250 0.04790 0.12390 -0.00400
H 	H 	0.74820 0.15030 0.92050 0.04000
H 	H 	0.78360 0.22340 0.93500 0.04500
H 	H 	0.08270 0.15340 0.86800 0.03800
H 	H 	0.06270 0.09390 0.91570 0.04100
H 	H 	0.86330 0.06610 0.85470 0.05000
H 	H 	0.94710 0.02050 0.89350 0.04100
H 	H 	0.11860 0.95270 0.23950 0.00000
H 	H 	0.05900 0.84210 0.27950 0.12000
H 	H 	0.35880 0.74840 0.33540 0.12400
H 	H 	0.41560 0.86010 0.29490 -0.01500
H 	H 	0.04280 0.70910 0.31490 0.03600
H 	H 	0.00130 0.77410 0.35610 0.03400
H 	H 	0.36530 0.29420 0.31280 -0.00500
H 	H 	0.28440 0.42140 0.34700 0.12300
H 	H 	0.02830 0.49280 0.26600 0.10000
H 	H 	0.11180 0.36420 0.23180 -0.02100
H 	H 	0.63660 0.77520 0.57020 0.00600
H 	H 	0.76620 0.79990 0.49990 0.11700
H 	H 	0.77320 0.59080 0.44940 0.11900
H 	H 	0.65160 0.56610 0.51910 0.00800
H 	H 	0.28010 0.65930 0.55810 -0.00800
H 	H 	0.21850 0.67060 0.48520 0.12400
H 	H 	0.98620 0.55700 0.55060 0.13600
H 	H 	0.04570 0.54790 0.62390 -0.00400
H 	H 	0.18100 0.65030 0.42050 0.04000
H 	H 	0.05800 0.72340 0.43500 0.04500
H 	H 	0.89590 0.65340 0.36800 0.03800
H 	H 	0.92770 0.59390 0.41570 0.04000
H 	H 	0.21590 0.56610 0.35470 0.05000
H 	H 	0.13890 0.52050 0.39350 0.04000
C 	C 	0.46228 0.48796 0.73868 0.43900
C 	C 	0.54711 0.41650 0.76308 -0.21100
C 	C 	0.66260 0.41121 0.75899 0.15200
C 	C 	0.74005 0.34612 0.78298 -0.25000
C 	C 	0.69880 0.28706 0.81214 0.26700
C 	C 	0.58389 0.29036 0.81626 -0.24600
C 	C 	0.50851 0.35637 0.79181 0.14700
C 	C 	0.87539 0.22003 0.84539 0.02100
C 	C 	0.91264 0.14926 0.88446 0.00800
C 	C 	0.22402 0.73277 0.74839 0.43500
C 	C 	0.16970 0.81513 0.76947 -0.20600
C 	C 	0.06574 0.83446 0.80346 0.14900
C 	C 	0.01746 0.91000 0.82368 -0.25700
C 	C 	0.07092 0.96923 0.81013 0.25900
C 	C 	0.17542 0.95229 0.77547 -0.23400
C 	C 	0.22264 0.87565 0.75547 0.13600
C 	C 	0.20279 0.14959 0.09703 0.33700
C 	C 	0.14741 0.16773 0.05145 -0.15900
C 	C 	0.05153 0.23695 0.04559 0.11100
C 	C 	0.00153 0.25236 0.00358 -0.22500
C 	C 	0.05315 0.19694 0.96816 0.25600
C 	C 	0.15062 0.12853 0.97423 -0.24100
C 	C 	0.19631 0.11413 0.01545 0.12700
C 	C 	0.54930 0.09879 0.14521 0.44700
C 	C 	0.58480 0.13854 0.05666 0.16100
C 	C 	0.65777 0.14459 0.01327 -0.26600
C 	C 	0.77815 0.11268 0.01062 0.27800
C 	C 	0.82383 0.07763 0.05211 -0.26300
C 	C 	0.75028 0.07237 0.09567 0.15700
C 	C 	0.81337 0.16398 0.92768 0.01900
C 	C 	0.02656 0.14773 0.89775 0.02100
C 	C 	0.93316 0.06445 0.86663 0.01100
C 	C 	0.63044 0.10232 0.09860 -0.22000
C 	C 	0.31108 0.98796 0.23868 0.43800
C 	C 	0.27331 0.91650 0.26308 -0.21000
C 	C 	0.16720 0.91121 0.25899 0.15100
C 	C 	0.13085 0.84612 0.28298 -0.25000
C 	C 	0.20200 0.78706 0.31214 0.26700
C 	C 	0.30949 0.79036 0.31626 -0.24600
C 	C 	0.34331 0.85637 0.29181 0.14700
C 	C 	0.05919 0.72003 0.34539 0.02100
C 	C 	0.05364 0.64926 0.38446 0.00800
C 	C 	0.29482 0.23277 0.24839 0.43500
C 	C 	0.24570 0.31513 0.26947 -0.20600
C 	C 	0.29634 0.33446 0.30346 0.14900
C 	C 	0.24886 0.41000 0.32368 -0.25600
C 	C 	0.14972 0.46923 0.31013 0.26000
C 	C 	0.09682 0.45229 0.27547 -0.23400
C 	C 	0.14624 0.37565 0.25547 0.13600
C 	C 	0.55059 0.64959 0.59703 0.33700
C 	C 	0.63341 0.66773 0.55145 -0.15900
C 	C 	0.66593 0.73695 0.54559 0.11200
C 	C 	0.74253 0.75236 0.50358 -0.22500
C 	C 	0.78175 0.69694 0.46816 0.25600
C 	C 	0.74662 0.62853 0.47423 -0.24100
C 	C 	0.67411 0.61413 0.51545 0.12800
C 	C 	0.20670 0.59879 0.64521 0.44700
C 	C 	0.22000 0.63854 0.55666 0.16000
C 	C 	0.18437 0.64459 0.51327 -0.26500
C 	C 	0.09855 0.61268 0.51062 0.27800
C 	C 	0.04643 0.57763 0.55211 -0.26300
C 	C 	0.08168 0.57237 0.59567 0.15700
C 	C 	0.09497 0.66398 0.42768 0.01900
C 	C 	0.92796 0.64773 0.39775 0.02100
C 	C 	0.13576 0.56445 0.36663 0.01300
C 	C 	0.16864 0.60232 0.59860 -0.22000
O 	O 	0.31972 0.71976 0.71960 -0.49300
O 	O 	0.49951 0.54143 0.71147 -0.49300
O 	O 	0.03284 0.04615 0.82835 -0.24300
O 	O 	0.44127 0.13215 0.14505 -0.51800
O 	O 	0.59209 0.06483 0.18237 -0.51300
O 	O 	0.00022 0.21578 0.92738 -0.23400
O 	O 	0.28084 0.08130 0.10242 -0.36400
O 	O 	0.85732 0.11102 0.96878 -0.24200
O 	O 	0.35770 0.48938 0.74682 -0.54300
O 	O 	0.16763 0.20372 0.12662 -0.42500
O 	O 	0.17050 0.67987 0.76193 -0.52500
O 	O 	0.76437 0.22142 0.83858 -0.24700
O 	O 	0.24092 0.21976 0.21960 -0.49300
O 	O 	0.24759 0.04143 0.21147 -0.49300
O 	O 	0.09266 0.54615 0.32835 -0.24500
O 	O 	0.28153 0.63215 0.64505 -0.51800
O 	O 	0.16071 0.56483 0.68237 -0.51300
O 	O 	0.85662 0.71578 0.42738 -0.23400
O 	O 	0.53544 0.58130 0.60242 -0.36400
O 	O 	0.06288 0.61102 0.46878 -0.24200
O 	O 	0.40610 0.98938 0.24682 -0.54200
O 	O 	0.50203 0.70372 0.62662 -0.42500
O 	O 	0.38770 0.17987 0.26193 -0.52500
O 	O 	0.17563 0.72142 0.33858 -0.24700
