data_crystal

_cell_length_a 10.07250
_cell_length_b 10.22970
_cell_length_c 23.50000
_cell_angle_alpha 90.00000
_cell_angle_beta  90.00000
_cell_angle_gamma 90.00000

_symmetry_space_group_name_	'P 1'
_symmetry_space_group_name_H-M	'P 1'

loop_
_symmetry_equiv_pos_as_xyz
  x,y,z

loop_
_atom_site_label
_atom_site_type_symbol
_atom_site_fract_x
_atom_site_fract_y
_atom_site_fract_z
_atom_site_charge
H 	H 	0.61280 0.09280 0.12540 0.06400
H 	H 	0.78810 0.88680 0.09430 0.07900
H 	H 	0.75980 0.01010 0.05670 0.06900
H 	H 	0.87280 0.93210 0.19880 0.08600
H 	H 	0.04860 0.04070 0.24010 -0.03400
H 	H 	0.09940 0.25590 0.21310 0.05100
H 	H 	0.93440 0.37830 0.16890 -0.02800
H 	H 	0.74530 0.27350 0.13530 0.05700
C 	C 	0.61600 0.94500 0.18020 0.36000
C 	C 	0.67700 0.02600 0.13700 -0.17500
C 	C 	0.72000 0.94900 0.08360 -0.25200
C 	C 	0.61000 0.87900 0.05490 0.35500
C 	C 	0.79900 0.09270 0.15940 0.12900
C 	C 	0.88600 0.02100 0.19240 -0.20800
C 	C 	0.99200 0.08500 0.21540 0.06400
C 	C 	0.01900 0.21800 0.20260 -0.17400
C 	C 	0.92400 0.28900 0.17420 0.06100
C 	C 	0.81200 0.22560 0.15340 -0.20900
O 	O 	0.53320 0.99000 0.21550 -0.45500
O 	O 	0.64450 0.81980 0.18000 -0.44000
O 	O 	0.49110 0.90500 0.06930 -0.44200
O 	O 	0.63520 0.80420 0.01160 -0.46400
H 	H 	0.38720 0.59280 0.37460 0.06400
H 	H 	0.21190 0.38680 0.40570 0.08100
H 	H 	0.24020 0.51010 0.44330 0.07100
H 	H 	0.12720 0.43210 0.30120 0.08500
H 	H 	0.95140 0.54070 0.25990 -0.03300
H 	H 	0.90060 0.75590 0.28690 0.05100
H 	H 	0.06560 0.87830 0.33110 -0.02700
H 	H 	0.25470 0.77350 0.36470 0.05700
C 	C 	0.38400 0.44500 0.31980 0.36000
C 	C 	0.32300 0.52600 0.36300 -0.17300
C 	C 	0.28000 0.44900 0.41640 -0.25400
C 	C 	0.39000 0.37900 0.44510 0.35600
C 	C 	0.20100 0.59270 0.34060 0.12700
C 	C 	0.11400 0.52100 0.30760 -0.20500
C 	C 	0.00800 0.58500 0.28460 0.06200
C 	C 	0.98100 0.71800 0.29740 -0.17200
C 	C 	0.07600 0.78900 0.32580 0.05900
C 	C 	0.18800 0.72560 0.34660 -0.20700
O 	O 	0.46680 0.49000 0.28450 -0.45500
O 	O 	0.35550 0.31980 0.32000 -0.44000
O 	O 	0.50890 0.40500 0.43070 -0.44200
O 	O 	0.36480 0.30420 0.48840 -0.46500
H 	H 	0.88720 0.90720 0.62540 0.06400
H 	H 	0.71190 0.11320 0.59430 0.08100
H 	H 	0.74020 0.98990 0.55670 0.07200
H 	H 	0.62720 0.06790 0.69880 0.08500
H 	H 	0.45140 0.95930 0.74010 -0.03400
H 	H 	0.40060 0.74410 0.71310 0.05200
H 	H 	0.56560 0.62170 0.66890 -0.02800
H 	H 	0.75470 0.72650 0.63530 0.05700
C 	C 	0.88400 0.05500 0.68020 0.35800
C 	C 	0.82300 0.97400 0.63700 -0.17100
C 	C 	0.78000 0.05100 0.58360 -0.25600
C 	C 	0.89000 0.12100 0.55490 0.35500
C 	C 	0.70100 0.90730 0.65940 0.12700
C 	C 	0.61400 0.97900 0.69240 -0.20600
C 	C 	0.50800 0.91500 0.71540 0.06500
C 	C 	0.48100 0.78200 0.70260 -0.17500
C 	C 	0.57600 0.71100 0.67420 0.06200
C 	C 	0.68800 0.77440 0.65340 -0.20900
O 	O 	0.96680 0.01000 0.71550 -0.45600
O 	O 	0.85550 0.18020 0.68000 -0.44000
O 	O 	0.00890 0.09500 0.56930 -0.44000
O 	O 	0.86480 0.19580 0.51160 -0.46500
H 	H 	0.11280 0.40720 0.87460 0.06500
H 	H 	0.28810 0.61320 0.90570 0.08100
H 	H 	0.25980 0.48990 0.94330 0.07100
H 	H 	0.37280 0.56790 0.80120 0.08700
H 	H 	0.54860 0.45930 0.75990 -0.03500
H 	H 	0.59940 0.24410 0.78690 0.05300
H 	H 	0.43440 0.12170 0.83110 -0.02900
H 	H 	0.24530 0.22650 0.86470 0.05800
C 	C 	0.11600 0.55500 0.81980 0.36000
C 	C 	0.17700 0.47400 0.86300 -0.17500
C 	C 	0.22000 0.55100 0.91640 -0.25300
C 	C 	0.11000 0.62100 0.94510 0.35700
C 	C 	0.29900 0.40730 0.84060 0.13000
C 	C 	0.38600 0.47900 0.80760 -0.20900
C 	C 	0.49200 0.41500 0.78460 0.06800
C 	C 	0.51900 0.28200 0.79740 -0.17700
C 	C 	0.42400 0.21100 0.82580 0.06400
C 	C 	0.31200 0.27440 0.84660 -0.21100
O 	O 	0.03320 0.51000 0.78450 -0.45400
O 	O 	0.14450 0.68020 0.82000 -0.44000
O 	O 	0.99110 0.59500 0.93070 -0.44300
O 	O 	0.13520 0.69580 0.98840 -0.46400
Sn	Sn	0.32601 0.80032 0.02513 1.35300
H 	H 	0.10880 0.91710 0.05840 0.26000
H 	H 	0.16510 0.83950 0.11070 0.26000
H 	H 	0.22640 0.97510 0.09410 0.26900
H 	H 	0.27670 0.86850 0.92420 0.29200
H 	H 	0.37950 0.96750 0.94970 0.29600
H 	H 	0.42720 0.83060 0.92790 0.29600
H 	H 	0.48730 0.61290 0.06130 0.25200
H 	H 	0.34330 0.57510 0.08070 0.24700
H 	H 	0.38870 0.54900 0.01790 0.25700
C 	C 	0.18800 0.89600 0.07960 -0.99200
C 	C 	0.35600 0.87700 0.94630 -1.09300
C 	C 	0.39600 0.60700 0.04970 -0.96400
Sn	Sn	0.54726 0.67807 0.23539 1.35900
H 	H 	0.31870 0.62650 0.19150 0.27600
H 	H 	0.29870 0.73770 0.23660 0.28900
H 	H 	0.35410 0.77140 0.17600 0.27800
H 	H 	0.54170 0.76870 0.34030 0.25500
H 	H 	0.68010 0.70170 0.33140 0.27000
H 	H 	0.65510 0.84300 0.30800 0.26400
H 	H 	0.69170 0.56230 0.16180 0.28200
H 	H 	0.75240 0.53510 0.22210 0.29800
H 	H 	0.62860 0.45540 0.20120 0.28200
C 	C 	0.35350 0.70700 0.20590 -1.04400
C 	C 	0.61600 0.75900 0.31480 -0.98500
C 	C 	0.67200 0.53900 0.20050 -1.05900
Sn	Sn	0.45274 0.17807 0.26461 1.35900
H 	H 	0.68130 0.12650 0.30850 0.27600
H 	H 	0.70130 0.23770 0.26340 0.28900
H 	H 	0.64590 0.27140 0.32400 0.27900
H 	H 	0.45830 0.26870 0.15970 0.25500
H 	H 	0.31990 0.20170 0.16860 0.27000
H 	H 	0.34490 0.34300 0.19200 0.26400
H 	H 	0.30830 0.06230 0.33820 0.28200
H 	H 	0.24760 0.03510 0.27790 0.29800
H 	H 	0.37140 0.95540 0.29880 0.28100
C 	C 	0.64650 0.20700 0.29410 -1.04400
C 	C 	0.38400 0.25900 0.18520 -0.98600
C 	C 	0.32800 0.03900 0.29950 -1.05600
Sn	Sn	0.67399 0.30032 0.47487 1.35300
H 	H 	0.89120 0.41710 0.44160 0.26000
H 	H 	0.83490 0.33950 0.38930 0.26100
H 	H 	0.77360 0.47510 0.40590 0.27000
H 	H 	0.72330 0.36850 0.57580 0.29200
H 	H 	0.62050 0.46750 0.55030 0.29600
H 	H 	0.57280 0.33060 0.57210 0.29600
H 	H 	0.51270 0.11290 0.43870 0.25100
H 	H 	0.65670 0.07510 0.41930 0.24700
H 	H 	0.61130 0.04900 0.48210 0.25700
C 	C 	0.81200 0.39600 0.42040 -0.99200
C 	C 	0.64400 0.37700 0.55370 -1.09400
C 	C 	0.60400 0.10700 0.45030 -0.96300
Sn	Sn	0.17399 0.19968 0.52513 1.35400
H 	H 	0.39120 0.08290 0.55840 0.26000
H 	H 	0.33490 0.16050 0.61070 0.26100
H 	H 	0.27360 0.02490 0.59410 0.27000
H 	H 	0.22330 0.13150 0.42420 0.29300
H 	H 	0.12050 0.03250 0.44970 0.29600
H 	H 	0.07280 0.16940 0.42790 0.29600
H 	H 	0.01270 0.38710 0.56130 0.25200
H 	H 	0.15670 0.42490 0.58070 0.24700
H 	H 	0.11130 0.45100 0.51790 0.25700
C 	C 	0.31200 0.10400 0.57960 -0.99200
C 	C 	0.14400 0.12300 0.44630 -1.09400
C 	C 	0.10400 0.39300 0.54970 -0.96400
Sn	Sn	0.95274 0.32193 0.73539 1.35900
H 	H 	0.18130 0.37350 0.69150 0.27600
H 	H 	0.20130 0.26230 0.73660 0.28900
H 	H 	0.14590 0.22860 0.67600 0.27900
H 	H 	0.95830 0.23130 0.84030 0.25400
H 	H 	0.81990 0.29830 0.83140 0.27000
H 	H 	0.84490 0.15700 0.80800 0.26400
H 	H 	0.80830 0.43770 0.66180 0.28200
H 	H 	0.74760 0.46490 0.72210 0.29800
H 	H 	0.87140 0.54460 0.70120 0.28200
C 	C 	0.14650 0.29300 0.70590 -1.04300
C 	C 	0.88400 0.24100 0.81480 -0.98500
C 	C 	0.82800 0.46100 0.70050 -1.05900
Sn	Sn	0.04726 0.82193 0.76461 1.35900
H 	H 	0.81870 0.87350 0.80850 0.27600
H 	H 	0.79870 0.76230 0.76340 0.29000
H 	H 	0.85410 0.72860 0.82400 0.27900
H 	H 	0.04170 0.73130 0.65970 0.25500
H 	H 	0.18010 0.79830 0.66860 0.27000
H 	H 	0.15510 0.65700 0.69200 0.26400
H 	H 	0.19170 0.93770 0.83820 0.28300
H 	H 	0.25240 0.96490 0.77790 0.29900
H 	H 	0.12860 0.04460 0.79880 0.28300
C 	C 	0.85350 0.79300 0.79410 -1.04400
C 	C 	0.11600 0.74100 0.68520 -0.98500
C 	C 	0.17200 0.96100 0.79950 -1.06100
Sn	Sn	0.82601 0.69968 0.97487 1.35300
H 	H 	0.60880 0.58290 0.94160 0.26100
H 	H 	0.66510 0.66050 0.88930 0.26100
H 	H 	0.72640 0.52490 0.90590 0.27000
H 	H 	0.77670 0.63150 0.07580 0.29200
H 	H 	0.87950 0.53250 0.05030 0.29600
H 	H 	0.92720 0.66940 0.07210 0.29600
H 	H 	0.98730 0.88710 0.93870 0.25200
H 	H 	0.84330 0.92490 0.91930 0.24700
H 	H 	0.88870 0.95100 0.98210 0.25700
C 	C 	0.68800 0.60400 0.92040 -0.99200
C 	C 	0.85600 0.62300 0.05370 -1.09400
C 	C 	0.89600 0.89300 0.95030 -0.96400
