data_crystal

_cell_length_a 10.37490
_cell_length_b 13.89830
_cell_length_c 17.94600
_cell_angle_alpha 99.71700
_cell_angle_beta  90.00000
_cell_angle_gamma 90.00000

_symmetry_space_group_name_	'P 1'
_symmetry_space_group_name_H-M	'P 1'

loop_
_symmetry_equiv_pos_as_xyz
  x,y,z

loop_
_atom_site_label
_atom_site_type_symbol
_atom_site_fract_x
_atom_site_fract_y
_atom_site_fract_z
_atom_site_charge
Eu	Eu	0.75099 0.39801 0.70851 1.91300
Eu	Eu	0.72998 0.34817 0.34413 2.00900
Eu	Eu	0.25099 0.10199 0.79149 1.91300
Eu	Eu	0.22998 0.15183 0.15587 2.01000
Eu	Eu	0.24901 0.60199 0.29149 1.91300
Eu	Eu	0.27002 0.65183 0.65587 2.00900
Eu	Eu	0.74901 0.89801 0.20851 1.91300
Eu	Eu	0.77002 0.84817 0.84413 2.01000
H 	H 	0.60680 0.63600 0.50930 0.02900
H 	H 	0.98150 0.63110 0.53190 0.02500
H 	H 	0.48680 0.63810 0.92680 0.02500
H 	H 	0.34590 0.37430 0.89810 0.03100
H 	H 	0.55100 0.17000 0.56880 0.02200
H 	H 	0.35520 0.09320 0.38260 0.01500
H 	H 	0.10680 0.86400 0.99070 0.02700
H 	H 	0.48150 0.86890 0.96810 0.02400
H 	H 	0.98680 0.86190 0.57320 0.02300
H 	H 	0.84590 0.12570 0.60190 0.03100
H 	H 	0.05100 0.33000 0.93120 0.02300
H 	H 	0.85520 0.40680 0.11740 0.01500
H 	H 	0.39320 0.36400 0.49070 0.02800
H 	H 	0.01850 0.36890 0.46810 0.02400
H 	H 	0.51320 0.36190 0.07320 0.02400
H 	H 	0.65410 0.62570 0.10190 0.03000
H 	H 	0.44900 0.83000 0.43120 0.02200
H 	H 	0.64480 0.90680 0.61740 0.01500
H 	H 	0.89320 0.13600 0.00930 0.02700
H 	H 	0.51850 0.13110 0.03190 0.02400
H 	H 	0.01320 0.13810 0.42680 0.02300
H 	H 	0.15410 0.87430 0.39810 0.03100
H 	H 	0.94900 0.67000 0.06880 0.02300
H 	H 	0.14480 0.59320 0.88260 0.01500
C 	C 	0.66800 0.55040 0.58210 -0.06400
C 	C 	0.68060 0.61430 0.53080 0.06200
C 	C 	0.89950 0.61180 0.54440 0.07000
C 	C 	0.88550 0.54930 0.59620 -0.08600
C 	C 	0.54040 0.51430 0.60890 0.39100
C 	C 	0.99660 0.50960 0.63600 0.45800
C 	C 	0.57500 0.54570 0.84510 -0.10400
C 	C 	0.48750 0.57360 0.90230 0.06800
C 	C 	0.40420 0.41960 0.88520 0.05700
C 	C 	0.49010 0.39120 0.82680 -0.08400
C 	C 	0.67390 0.60990 0.81880 0.43700
C 	C 	0.49370 0.29150 0.77860 0.40700
C 	C 	0.61060 0.23470 0.48350 -0.07800
C 	C 	0.53580 0.17350 0.51820 0.06100
C 	C 	0.42020 0.12960 0.40970 0.07200
C 	C 	0.49040 0.19230 0.37490 -0.09800
C 	C 	0.71900 0.29850 0.52020 0.42700
C 	C 	0.46860 0.21360 0.29640 0.44100
C 	C 	0.16800 0.94960 0.91790 -0.06300
C 	C 	0.18060 0.88570 0.96920 0.06100
C 	C 	0.39950 0.88820 0.95560 0.07000
C 	C 	0.38550 0.95070 0.90380 -0.08600
C 	C 	0.04040 0.98570 0.89110 0.38400
C 	C 	0.49660 0.99040 0.86400 0.45900
C 	C 	0.07500 0.95430 0.65490 -0.10900
C 	C 	0.98750 0.92640 0.59770 0.07300
C 	C 	0.90420 0.08040 0.61480 0.05500
C 	C 	0.99010 0.10880 0.67320 -0.08500
C 	C 	0.17390 0.89010 0.68120 0.43900
C 	C 	0.99370 0.20850 0.72140 0.40700
C 	C 	0.11060 0.26530 0.01650 -0.07300
C 	C 	0.03580 0.32650 0.98180 0.05700
C 	C 	0.92020 0.37040 0.09030 0.07200
C 	C 	0.99040 0.30770 0.12510 -0.09900
C 	C 	0.21900 0.20150 0.97980 0.42200
C 	C 	0.96860 0.28640 0.20360 0.43900
C 	C 	0.33200 0.44960 0.41790 -0.06400
C 	C 	0.31940 0.38570 0.46920 0.06200
C 	C 	0.10050 0.38820 0.45560 0.07000
C 	C 	0.11450 0.45070 0.40380 -0.08600
C 	C 	0.45960 0.48570 0.39110 0.39100
C 	C 	0.00340 0.49040 0.36400 0.45800
C 	C 	0.42500 0.45430 0.15490 -0.10400
C 	C 	0.51250 0.42640 0.09770 0.06800
C 	C 	0.59580 0.58040 0.11480 0.05700
C 	C 	0.50990 0.60880 0.17320 -0.08400
C 	C 	0.32610 0.39010 0.18120 0.43700
C 	C 	0.50630 0.70850 0.22140 0.40700
C 	C 	0.38940 0.76530 0.51650 -0.07800
C 	C 	0.46420 0.82650 0.48180 0.06100
C 	C 	0.57980 0.87040 0.59030 0.07200
C 	C 	0.50960 0.80770 0.62510 -0.09800
C 	C 	0.28100 0.70150 0.47980 0.42700
C 	C 	0.53140 0.78640 0.70360 0.44100
C 	C 	0.83200 0.05040 0.08210 -0.06300
C 	C 	0.81940 0.11430 0.03080 0.06100
C 	C 	0.60050 0.11180 0.04440 0.07000
C 	C 	0.61450 0.04930 0.09620 -0.08600
C 	C 	0.95960 0.01430 0.10890 0.38400
C 	C 	0.50340 0.00960 0.13600 0.45900
C 	C 	0.92500 0.04570 0.34510 -0.10900
C 	C 	0.01250 0.07360 0.40230 0.07300
C 	C 	0.09580 0.91960 0.38520 0.05500
C 	C 	0.00990 0.89120 0.32680 -0.08500
C 	C 	0.82610 0.10990 0.31880 0.43900
C 	C 	0.00630 0.79150 0.27860 0.40700
C 	C 	0.88940 0.73470 0.98350 -0.07300
C 	C 	0.96420 0.67350 0.01820 0.05700
C 	C 	0.07980 0.62960 0.90970 0.07200
C 	C 	0.00960 0.69230 0.87490 -0.09900
C 	C 	0.78100 0.79850 0.02020 0.42200
C 	C 	0.03140 0.71360 0.79640 0.43900
N 	N 	0.77040 0.51640 0.61370 -0.16100
N 	N 	0.79480 0.64530 0.51170 -0.12300
N 	N 	0.57650 0.45390 0.80730 -0.17700
N 	N 	0.40320 0.51050 0.92350 -0.12400
N 	N 	0.58780 0.24320 0.41170 -0.16900
N 	N 	0.44140 0.11880 0.48140 -0.12700
N 	N 	0.27040 0.98360 0.88630 -0.16100
N 	N 	0.29480 0.85470 0.98830 -0.12300
N 	N 	0.07650 0.04610 0.69270 -0.17500
N 	N 	0.90320 0.98950 0.57650 -0.12400
N 	N 	0.08780 0.25680 0.08830 -0.16800
N 	N 	0.94140 0.38120 0.01860 -0.12700
N 	N 	0.22960 0.48360 0.38630 -0.16100
N 	N 	0.20520 0.35470 0.48830 -0.12300
N 	N 	0.42350 0.54610 0.19270 -0.17700
N 	N 	0.59680 0.48950 0.07650 -0.12400
N 	N 	0.41220 0.75680 0.58830 -0.16900
N 	N 	0.55860 0.88120 0.51860 -0.12700
N 	N 	0.72960 0.01640 0.11370 -0.16100
N 	N 	0.70520 0.14530 0.01170 -0.12300
N 	N 	0.92350 0.95390 0.30730 -0.17500
N 	N 	0.09680 0.01050 0.42350 -0.12400
N 	N 	0.91220 0.74320 0.91170 -0.16800
N 	N 	0.05860 0.61880 0.98140 -0.12700
O 	O 	0.54650 0.45100 0.65050 -0.44100
O 	O 	0.43910 0.55260 0.58810 -0.46500
O 	O 	0.96710 0.45470 0.68100 -0.46100
O 	O 	0.10730 0.53550 0.62150 -0.49900
O 	O 	0.75230 0.57100 0.77050 -0.48000
O 	O 	0.67040 0.69860 0.84810 -0.49200
O 	O 	0.58820 0.27560 0.73310 -0.43900
O 	O 	0.40380 0.23460 0.78820 -0.45300
O 	O 	0.77770 0.34750 0.47850 -0.43900
O 	O 	0.74110 0.29770 0.58850 -0.46700
O 	O 	0.54780 0.27030 0.27300 -0.49100
O 	O 	0.37250 0.17310 0.26130 -0.49600
O 	O 	0.04650 0.04900 0.84950 -0.43900
O 	O 	0.93910 0.94740 0.91190 -0.46000
O 	O 	0.46710 0.04530 0.81900 -0.46200
O 	O 	0.60730 0.96450 0.87850 -0.49800
O 	O 	0.25230 0.92900 0.72950 -0.48100
O 	O 	0.17040 0.80140 0.65190 -0.49300
O 	O 	0.08820 0.22440 0.76690 -0.43900
O 	O 	0.90380 0.26540 0.71180 -0.45200
O 	O 	0.27770 0.15250 0.02150 -0.43700
O 	O 	0.24110 0.20230 0.91150 -0.46600
O 	O 	0.04780 0.22970 0.22700 -0.48800
O 	O 	0.87250 0.32690 0.23870 -0.49600
O 	O 	0.45350 0.54900 0.34950 -0.44100
O 	O 	0.56090 0.44740 0.41190 -0.46500
O 	O 	0.03290 0.54530 0.31900 -0.46100
O 	O 	0.89270 0.46450 0.37850 -0.49900
O 	O 	0.24770 0.42900 0.22950 -0.48000
O 	O 	0.32960 0.30140 0.15190 -0.49200
O 	O 	0.41180 0.72440 0.26690 -0.43900
O 	O 	0.59620 0.76540 0.21180 -0.45300
O 	O 	0.22230 0.65250 0.52150 -0.43900
O 	O 	0.25890 0.70230 0.41150 -0.46700
O 	O 	0.45220 0.72970 0.72700 -0.49100
O 	O 	0.62750 0.82690 0.73870 -0.49600
O 	O 	0.95350 0.95100 0.15050 -0.43900
O 	O 	0.06090 0.05260 0.08810 -0.46000
O 	O 	0.53290 0.95470 0.18100 -0.46200
O 	O 	0.39270 0.03550 0.12150 -0.49800
O 	O 	0.74770 0.07100 0.27050 -0.48100
O 	O 	0.82960 0.19860 0.34810 -0.49300
O 	O 	0.91180 0.77560 0.23310 -0.43900
O 	O 	0.09620 0.73460 0.28820 -0.45200
O 	O 	0.72230 0.84750 0.97850 -0.43700
O 	O 	0.75890 0.79770 0.08850 -0.46600
O 	O 	0.95220 0.77030 0.77300 -0.48800
O 	O 	0.12750 0.67310 0.76130 -0.49600
