data_crystal

_cell_length_a 7.62380
_cell_length_b 12.34160
_cell_length_c 12.34160
_cell_angle_alpha 96.33890
_cell_angle_beta  94.16000
_cell_angle_gamma 85.84000

_symmetry_space_group_name_	'P 1'
_symmetry_space_group_name_H-M	'P 1'

loop_
_symmetry_equiv_pos_as_xyz
  x,y,z

loop_
_atom_site_label
_atom_site_type_symbol
_atom_site_fract_x
_atom_site_fract_y
_atom_site_fract_z
_atom_site_charge
Zn	Zn	0.43682 0.29722 0.76522 1.23500
Zn	Zn	0.06318 0.76522 0.29722 1.23500
Zn	Zn	0.56318 0.70278 0.23478 1.23500
Zn	Zn	0.93682 0.23478 0.70278 1.23500
H 	H 	0.71080 0.45710 0.05290 0.05100
H 	H 	0.19610 0.43490 0.20350 0.07400
H 	H 	0.06650 0.21680 0.94620 0.07300
H 	H 	0.48400 0.36420 0.14040 0.06500
H 	H 	0.41380 0.29900 0.22940 0.06000
H 	H 	0.51270 0.12090 0.00450 0.10600
H 	H 	0.78920 0.05290 0.45710 0.05200
H 	H 	0.30390 0.20350 0.43490 0.07500
H 	H 	0.43350 0.94620 0.21680 0.07400
H 	H 	0.01600 0.14040 0.36420 0.06400
H 	H 	0.08620 0.22940 0.29900 0.05900
H 	H 	0.98730 0.00450 0.12090 0.10400
H 	H 	0.28920 0.54290 0.94710 0.05100
H 	H 	0.80390 0.56510 0.79650 0.07400
H 	H 	0.93350 0.78320 0.05380 0.07300
H 	H 	0.51600 0.63580 0.85960 0.06500
H 	H 	0.58620 0.70100 0.77060 0.06000
H 	H 	0.48730 0.87910 0.99550 0.10600
H 	H 	0.21080 0.94710 0.54290 0.05200
H 	H 	0.69610 0.79650 0.56510 0.07500
H 	H 	0.56650 0.05380 0.78320 0.07400
H 	H 	0.98400 0.85960 0.63580 0.06400
H 	H 	0.91380 0.77060 0.70100 0.05900
H 	H 	0.01270 0.99550 0.87910 0.10400
H 	H 	0.75000 0.99120 0.99120 0.01800
H 	H 	0.75000 0.27330 0.27330 0.10300
H 	H 	0.25000 0.00880 0.00880 0.01800
H 	H 	0.25000 0.72670 0.72670 0.10300
C 	C 	0.87080 0.33230 0.98430 -0.07100
C 	C 	0.82320 0.42270 0.05810 0.00900
C 	C 	0.94610 0.45900 0.13800 -0.07400
C 	C 	0.11450 0.40830 0.14910 -0.09900
C 	C 	0.15810 0.31750 0.07730 0.15900
C 	C 	0.03680 0.27800 0.99400 -0.10000
C 	C 	0.74350 0.29370 0.89310 0.35300
C 	C 	0.45100 0.29310 0.15530 -0.07400
C 	C 	0.60550 0.20880 0.14140 0.14000
C 	C 	0.60740 0.12530 0.05630 -0.15800
C 	C 	0.89630 0.55880 0.21500 0.41400
C 	C 	0.62920 0.98430 0.33230 -0.06400
C 	C 	0.67680 0.05810 0.42270 0.00300
C 	C 	0.55390 0.13800 0.45900 -0.07100
C 	C 	0.38550 0.14910 0.40830 -0.10400
C 	C 	0.34190 0.07730 0.31750 0.16300
C 	C 	0.46320 0.99400 0.27800 -0.10900
C 	C 	0.75650 0.89310 0.29370 0.35100
C 	C 	0.04900 0.15530 0.29310 -0.07000
C 	C 	0.89450 0.14140 0.20880 0.13700
C 	C 	0.89260 0.05630 0.12530 -0.15800
C 	C 	0.60370 0.21500 0.55880 0.41100
C 	C 	0.12920 0.66770 0.01570 -0.07100
C 	C 	0.17680 0.57730 0.94190 0.00900
C 	C 	0.05390 0.54100 0.86200 -0.07400
C 	C 	0.88550 0.59170 0.85090 -0.09900
C 	C 	0.84190 0.68250 0.92270 0.15900
C 	C 	0.96320 0.72200 0.00600 -0.10000
C 	C 	0.25650 0.70630 0.10690 0.35300
C 	C 	0.54900 0.70690 0.84470 -0.07400
C 	C 	0.39450 0.79120 0.85860 0.14000
C 	C 	0.39260 0.87470 0.94370 -0.15800
C 	C 	0.10370 0.44120 0.78500 0.41400
C 	C 	0.37080 0.01570 0.66770 -0.06400
C 	C 	0.32320 0.94190 0.57730 0.00300
C 	C 	0.44610 0.86200 0.54100 -0.07100
C 	C 	0.61450 0.85090 0.59170 -0.10400
C 	C 	0.65810 0.92270 0.68250 0.16300
C 	C 	0.53680 0.00600 0.72200 -0.10900
C 	C 	0.24350 0.10690 0.70630 0.35100
C 	C 	0.95100 0.84470 0.70690 -0.07000
C 	C 	0.10550 0.85860 0.79120 0.13700
C 	C 	0.10740 0.94370 0.87470 -0.15800
C 	C 	0.39630 0.78500 0.44120 0.41100
C 	C 	0.75000 0.04770 0.04770 0.07500
C 	C 	0.75000 0.21680 0.21680 -0.19300
C 	C 	0.25000 0.95230 0.95230 0.07500
C 	C 	0.25000 0.78320 0.78320 -0.19300
O 	O 	0.59030 0.34134 0.89106 -0.46000
O 	O 	0.78720 0.21812 0.82176 -0.50300
O 	O 	0.73630 0.57900 0.22620 -0.49300
O 	O 	0.01980 0.61230 0.26128 -0.50200
O 	O 	0.31320 0.25644 0.07972 -0.20300
O 	O 	0.90970 0.89106 0.34134 -0.45800
O 	O 	0.71280 0.82176 0.21812 -0.50100
O 	O 	0.76370 0.22620 0.57900 -0.49300
O 	O 	0.48020 0.26128 0.61230 -0.50100
O 	O 	0.18680 0.07972 0.25644 -0.20400
O 	O 	0.40970 0.65866 0.10894 -0.46000
O 	O 	0.21280 0.78188 0.17824 -0.50300
O 	O 	0.26370 0.42100 0.77380 -0.49300
O 	O 	0.98020 0.38770 0.73872 -0.50200
O 	O 	0.68680 0.74356 0.92028 -0.20300
O 	O 	0.09030 0.10894 0.65866 -0.45800
O 	O 	0.28720 0.17824 0.78188 -0.50100
O 	O 	0.23630 0.77380 0.42100 -0.49300
O 	O 	0.51980 0.73872 0.38770 -0.50100
O 	O 	0.81320 0.92028 0.74356 -0.20400
