data_crystal

_cell_length_a 11.32800
_cell_length_b 13.62400
_cell_length_c 24.95100
_cell_angle_alpha 90.00000
_cell_angle_beta  90.00000
_cell_angle_gamma 114.07300

_symmetry_space_group_name_	'P 1'
_symmetry_space_group_name_H-M	'P 1'

loop_
_symmetry_equiv_pos_as_xyz
  x,y,z

loop_
_atom_site_label
_atom_site_type_symbol
_atom_site_fract_x
_atom_site_fract_y
_atom_site_fract_z
_atom_site_charge
Cd	Cd	0.35246 0.17473 0.84023 1.21700
Cd	Cd	0.85246 0.67473 0.65977 1.21700
Cd	Cd	0.64754 0.82527 0.15977 1.21700
Cd	Cd	0.14754 0.32527 0.34023 1.21700
H 	H 	0.18250 0.79150 0.69730 0.03100
H 	H 	0.43870 0.61470 0.84820 0.03700
H 	H 	0.36630 0.87670 0.84520 0.06700
H 	H 	0.39600 0.43250 0.06010 0.13600
H 	H 	0.04820 0.15840 0.22960 0.03500
H 	H 	0.13370 0.62330 0.34520 0.06700
H 	H 	0.99080 0.93600 0.62560 -0.01300
H 	H 	0.89000 0.41940 0.20330 0.04700
H 	H 	0.66170 0.02530 0.32400 0.04100
H 	H 	0.89490 0.04210 0.08810 -0.01700
H 	H 	0.37520 0.16700 0.67570 0.15900
H 	H 	0.83030 0.21250 0.61980 0.04100
H 	H 	0.16970 0.78750 0.38020 0.04100
H 	H 	0.86630 0.37670 0.65480 0.06700
H 	H 	0.80600 0.82720 0.04090 -0.01200
H 	H 	0.60510 0.45790 0.58810 -0.01700
H 	H 	0.07660 0.17500 0.72250 0.08000
H 	H 	0.53250 0.31290 0.03130 0.02700
H 	H 	0.70010 0.97240 0.66470 0.04700
H 	H 	0.56250 0.24360 0.94480 0.02800
H 	H 	0.43750 0.75640 0.05520 0.02800
H 	H 	0.49080 0.43600 0.87440 -0.01300
H 	H 	0.62480 0.83300 0.32430 0.15900
H 	H 	0.54820 0.65840 0.27040 0.03500
H 	H 	0.13450 0.12470 0.06300 0.13700
H 	H 	0.39490 0.54210 0.41190 -0.01700
H 	H 	0.06250 0.74360 0.55520 0.02800
H 	H 	0.20010 0.47240 0.83530 0.04700
H 	H 	0.79990 0.52760 0.16470 0.04700
H 	H 	0.64290 0.50940 0.74210 0.03300
H 	H 	0.92340 0.82500 0.27750 0.08000
H 	H 	0.11000 0.58060 0.79670 0.04700
H 	H 	0.19400 0.17280 0.95910 -0.01200
H 	H 	0.10400 0.06750 0.56010 0.13600
H 	H 	0.30600 0.32720 0.45910 -0.01200
H 	H 	0.63450 0.62470 0.43700 0.13700
H 	H 	0.60400 0.56750 0.93990 0.13600
H 	H 	0.39000 0.91940 0.29670 0.04700
H 	H 	0.89600 0.93250 0.43990 0.13600
H 	H 	0.00920 0.06400 0.37440 -0.01300
H 	H 	0.93750 0.25640 0.44480 0.02800
H 	H 	0.33030 0.71250 0.88020 0.04100
H 	H 	0.46750 0.68710 0.96870 0.02700
H 	H 	0.10510 0.95790 0.91190 -0.01700
H 	H 	0.56130 0.38530 0.15180 0.03800
H 	H 	0.14290 0.00940 0.75790 0.03300
H 	H 	0.42340 0.32500 0.22250 0.08000
H 	H 	0.16170 0.52530 0.17600 0.04100
H 	H 	0.35710 0.49060 0.25790 0.03300
H 	H 	0.57660 0.67500 0.77750 0.08000
H 	H 	0.03250 0.81290 0.46870 0.02700
H 	H 	0.12480 0.33300 0.17570 0.15900
H 	H 	0.33830 0.97470 0.67600 0.04100
H 	H 	0.45180 0.34160 0.72960 0.03500
H 	H 	0.36550 0.37530 0.56300 0.13700
H 	H 	0.81750 0.20850 0.30270 0.03200
H 	H 	0.96750 0.18710 0.53130 0.02700
H 	H 	0.31750 0.70850 0.19730 0.03200
H 	H 	0.66970 0.28750 0.11980 0.04100
H 	H 	0.87520 0.66700 0.82430 0.15900
H 	H 	0.06130 0.88530 0.34820 0.03800
H 	H 	0.69400 0.67280 0.54090 -0.01200
H 	H 	0.85710 0.99060 0.24210 0.03300
H 	H 	0.50920 0.56400 0.12560 -0.01300
H 	H 	0.95180 0.84160 0.77040 0.03500
H 	H 	0.63370 0.12330 0.15480 0.06700
H 	H 	0.93870 0.11470 0.65180 0.03800
H 	H 	0.68250 0.29150 0.80270 0.03200
H 	H 	0.83830 0.47470 0.82400 0.04100
H 	H 	0.86550 0.87530 0.93700 0.13700
H 	H 	0.61000 0.08060 0.70330 0.04700
H 	H 	0.29990 0.02760 0.33530 0.04700
C 	C 	0.82540 0.87830 0.42387 -0.28800
C 	C 	0.61110 0.47730 0.70920 -0.00600
C 	C 	0.96830 0.77630 0.49360 0.01600
C 	C 	0.77510 0.77470 0.44461 0.23200
C 	C 	0.22490 0.22530 0.55539 0.23200
C 	C 	0.29120 0.20690 0.30720 0.30900
C 	C 	0.90910 0.33720 0.66910 -0.06800
C 	C 	0.11190 0.21770 0.12253 0.23800
C 	C 	0.97960 0.51790 0.26415 -0.07800
C 	C 	0.16810 0.19350 0.07762 -0.28400
C 	C 	0.83670 0.15610 0.31980 0.00200
C 	C 	0.13730 0.35370 0.78130 -0.07900
C 	C 	0.90860 0.05000 0.12489 0.11000
C 	C 	0.11160 0.76040 0.35200 -0.03100
C 	C 	0.00500 0.88460 0.79720 0.01900
C 	C 	0.24970 0.55490 0.16830 0.00900
C 	C 	0.34800 0.05020 0.30400 -0.01800
C 	C 	0.02040 0.48210 0.73585 -0.07800
C 	C 	0.66180 0.81870 0.35501 -0.29300
C 	C 	0.38840 0.73960 0.85200 -0.03100
C 	C 	0.79120 0.70690 0.19280 0.30900
C 	C 	0.86270 0.64630 0.21870 -0.07900
C 	C 	0.49500 0.61540 0.29720 0.01800
C 	C 	0.46830 0.27630 0.00640 0.01500
C 	C 	0.51620 0.76170 0.04140 -0.00700
C 	C 	0.94280 0.68470 0.26520 0.04700
C 	C 	0.27510 0.27470 0.05539 0.23200
C 	C 	0.48380 0.23830 0.95860 -0.00700
C 	C 	0.23160 0.10080 0.62108 0.23500
C 	C 	0.03440 0.21640 0.70990 -0.08200
C 	C 	0.95210 0.18020 0.66760 -0.01700
C 	C 	0.97020 0.55940 0.71116 0.31100
C 	C 	0.52040 0.98210 0.76415 -0.07800
C 	C 	0.17460 0.12170 0.57613 -0.28800
C 	C 	0.71770 0.80100 0.03404 0.10800
C 	C 	0.70880 0.79310 0.69280 0.30900
C 	C 	0.11110 0.97730 0.79080 -0.00600
C 	C 	0.66810 0.69350 0.42238 -0.28400
C 	C 	0.47020 0.05940 0.78884 0.31100
C 	C 	0.88840 0.23960 0.64800 -0.03100
C 	C 	0.02980 0.44060 0.28884 0.31100
C 	C 	0.75030 0.44510 0.83170 0.00900
C 	C 	0.54790 0.31980 0.16760 -0.01600
C 	C 	0.09090 0.66280 0.33090 -0.06800
C 	C 	0.50500 0.38460 0.70280 0.01800
C 	C 	0.88890 0.02270 0.20920 -0.00600
C 	C 	0.36270 0.14630 0.28130 -0.07900
C 	C 	0.15200 0.44980 0.80400 -0.01800
C 	C 	0.55750 0.42240 0.85920 0.10000
C 	C 	0.61160 0.26040 0.14800 -0.03100
C 	C 	0.32540 0.37830 0.07613 -0.28800
C 	C 	0.96560 0.78360 0.29010 -0.08200
C 	C 	0.52980 0.94060 0.21116 0.31100
C 	C 	0.28230 0.19900 0.96596 0.10800
C 	C 	0.45210 0.68020 0.83240 -0.01600
C 	C 	0.50400 0.12020 0.21305 0.03700
C 	C 	0.46560 0.28360 0.20990 -0.08200
C 	C 	0.25030 0.94510 0.66830 0.00900
C 	C 	0.66330 0.34390 0.81980 0.00200
C 	C 	0.33670 0.65610 0.18020 0.00200
C 	C 	0.21770 0.30100 0.46596 0.10800
C 	C 	0.59600 0.01470 0.71890 -0.02100
C 	C 	0.44250 0.57760 0.14080 0.10000
C 	C 	0.05750 0.92240 0.64080 0.10100
C 	C 	0.47960 0.01790 0.23585 -0.07800
C 	C 	0.74970 0.05490 0.33170 0.00900
C 	C 	0.33820 0.18130 0.64499 -0.29300
C 	C 	0.59090 0.16280 0.16910 -0.06900
C 	C 	0.67460 0.62170 0.92387 -0.28800
C 	C 	0.04790 0.81980 0.33240 -0.01700
C 	C 	0.53440 0.71640 0.79010 -0.08200
C 	C 	0.55720 0.81530 0.76520 0.04700
C 	C 	0.00400 0.62020 0.28695 0.03700
C 	C 	0.99500 0.11540 0.20280 0.01900
C 	C 	0.38890 0.52270 0.29080 -0.00600
C 	C 	0.44280 0.18470 0.23480 0.04700
C 	C 	0.09140 0.95000 0.87511 0.11000
C 	C 	0.40910 0.83720 0.83090 -0.06900
C 	C 	0.33190 0.30650 0.57762 -0.28400
C 	C 	0.16180 0.31870 0.14499 -0.29300
C 	C 	0.03170 0.22370 0.50640 0.01600
C 	C 	0.72490 0.72530 0.94461 0.23200
C 	C 	0.38810 0.28230 0.62253 0.23800
C 	C 	0.83190 0.80650 0.92238 -0.28400
C 	C 	0.40860 0.55000 0.37511 0.11000
C 	C 	0.49600 0.87980 0.78695 0.03700
C 	C 	0.40400 0.98530 0.28110 -0.02100
C 	C 	0.99600 0.37980 0.71305 0.03700
C 	C 	0.16330 0.84390 0.68020 0.00200
C 	C 	0.63730 0.85370 0.71870 -0.07900
C 	C 	0.73160 0.60080 0.87892 0.23500
C 	C 	0.83820 0.68130 0.85501 -0.29300
C 	C 	0.01620 0.26170 0.45860 -0.00800
C 	C 	0.78230 0.69900 0.53404 0.10800
C 	C 	0.76840 0.89920 0.37892 0.23500
C 	C 	0.20880 0.29310 0.80720 0.30900
C 	C 	0.61190 0.71770 0.37747 0.23800
C 	C 	0.05720 0.31530 0.73480 0.04700
C 	C 	0.53170 0.72370 0.99360 0.01500
C 	C 	0.88810 0.78230 0.87747 0.23800
C 	C 	0.65200 0.94980 0.69600 -0.01800
C 	C 	0.98380 0.73830 0.54140 -0.00800
C 	C 	0.84800 0.55020 0.19600 -0.01800
C 	C 	0.59140 0.45000 0.62489 0.11000
C 	C 	0.26840 0.39920 0.12108 0.23500
C 	C 	0.94250 0.07760 0.35920 0.10100
C 	C 	0.90400 0.48530 0.21890 -0.02100
C 	C 	0.09600 0.51470 0.78110 -0.02100
N 	N 	0.13270 0.30950 0.43276 -0.22600
N 	N 	0.18230 0.99470 0.64270 -0.16000
N 	N 	0.68230 0.49470 0.85730 -0.16000
N 	N 	0.83510 0.98280 0.16080 -0.22400
N 	N 	0.81770 0.00530 0.35730 -0.16000
N 	N 	0.86730 0.69050 0.56724 -0.22600
N 	N 	0.83910 0.75040 0.48877 -0.16200
N 	N 	0.04240 0.83110 0.66298 -0.22100
N 	N 	0.45760 0.66890 0.16298 -0.22100
N 	N 	0.16490 0.01720 0.83920 -0.22400
N 	N 	0.33910 0.25040 0.01123 -0.16200
N 	N 	0.33510 0.48280 0.33920 -0.22400
N 	N 	0.66090 0.74960 0.98877 -0.16200
N 	N 	0.16090 0.24960 0.51123 -0.16200
N 	N 	0.31770 0.50530 0.14270 -0.16000
N 	N 	0.54240 0.33110 0.83702 -0.22100
N 	N 	0.95760 0.16890 0.33702 -0.22100
N 	N 	0.49220 0.36710 0.64856 -0.16100
N 	N 	0.00780 0.13290 0.14856 -0.16200
N 	N 	0.66490 0.51720 0.66080 -0.22400
N 	N 	0.99220 0.86710 0.85144 -0.16200
N 	N 	0.50780 0.63290 0.35144 -0.16100
N 	N 	0.63270 0.80950 0.06724 -0.22600
N 	N 	0.36730 0.19050 0.93276 -0.22600
O 	O 	0.75410 0.74230 0.72241 -0.38600
O 	O 	0.24590 0.25770 0.27759 -0.38600
O 	O 	0.74590 0.75770 0.22241 -0.38600
O 	O 	0.25410 0.24230 0.77759 -0.38600
O 	O 	0.97510 0.56980 0.66096 -0.37700
O 	O 	0.77940 0.70350 0.14313 -0.33800
O 	O 	0.47510 0.06980 0.83904 -0.37700
O 	O 	0.52490 0.93020 0.16096 -0.37700
O 	O 	0.92750 0.61020 0.74045 -0.36700
O 	O 	0.02490 0.43020 0.33904 -0.37700
O 	O 	0.72060 0.79650 0.64313 -0.33800
O 	O 	0.42750 0.11020 0.75955 -0.36700
O 	O 	0.27940 0.20350 0.35687 -0.33800
O 	O 	0.07250 0.38980 0.25955 -0.36700
O 	O 	0.57250 0.88980 0.24045 -0.36700
O 	O 	0.22060 0.29650 0.85687 -0.33800
