data_crystal

_cell_length_a 10.48400
_cell_length_b 24.00800
_cell_length_c 24.99700
_cell_angle_alpha 90.00000
_cell_angle_beta  94.47000
_cell_angle_gamma 90.00000

_symmetry_space_group_name_	'P 1'
_symmetry_space_group_name_H-M	'P 1'

loop_
_symmetry_equiv_pos_as_xyz
  x,y,z

loop_
_atom_site_label
_atom_site_type_symbol
_atom_site_fract_x
_atom_site_fract_y
_atom_site_fract_z
_atom_site_charge
Cu	Cu	0.62467 0.50372 0.50659 0.90200
Cu	Cu	0.50757 0.26151 0.24078 0.83900
Cu	Cu	0.37533 0.00372 0.99341 0.90100
Cu	Cu	0.49243 0.76151 0.25922 0.83900
Cu	Cu	0.37533 0.49628 0.49341 0.90200
Cu	Cu	0.49243 0.73849 0.75922 0.83900
Cu	Cu	0.62467 0.99628 0.00659 0.90100
Cu	Cu	0.50757 0.23849 0.74078 0.83900
H 	H 	0.57360 0.43890 0.14940 0.02600
H 	H 	0.56550 0.36870 0.07530 0.02400
H 	H 	0.72730 0.43190 0.35530 0.00400
H 	H 	0.34430 0.44030 0.33410 -0.00600
H 	H 	0.77430 0.38120 0.22300 -0.05000
H 	H 	0.75720 0.30310 0.28940 0.14800
H 	H 	0.89230 0.31040 0.26460 0.16000
H 	H 	0.87280 0.33330 0.32360 0.17200
H 	H 	0.89280 0.44160 0.31340 0.18400
H 	H 	0.97500 0.41610 0.26790 0.17200
H 	H 	0.87180 0.46380 0.25300 0.18300
H 	H 	0.32730 0.38670 0.19960 -0.09700
H 	H 	0.28450 0.48190 0.20670 0.23100
H 	H 	0.15140 0.44900 0.20230 0.21600
H 	H 	0.20940 0.47190 0.25920 0.22200
H 	H 	0.13640 0.35710 0.23690 0.21400
H 	H 	0.26040 0.32020 0.25340 0.20000
H 	H 	0.21040 0.36440 0.29490 0.22600
H 	H 	0.70060 0.15310 0.07780 0.00500
H 	H 	0.32310 0.17370 0.04980 0.00400
H 	H 	0.76810 0.28580 0.14330 -0.07100
H 	H 	0.79530 0.17010 0.16560 0.19100
H 	H 	0.92390 0.20610 0.17330 0.18300
H 	H 	0.80510 0.22080 0.20720 0.17200
H 	H 	0.83500 0.28520 0.05890 0.20500
H 	H 	0.95150 0.25950 0.09610 0.19000
H 	H 	0.85820 0.21930 0.06000 0.20400
H 	H 	0.31720 0.31410 0.10040 -0.07100
H 	H 	0.15830 0.24090 0.03470 0.20500
H 	H 	0.14510 0.30710 0.03930 0.20300
H 	H 	0.25950 0.28060 0.00890 0.21700
H 	H 	0.18200 0.21590 0.12880 0.18500
H 	H 	0.27120 0.25160 0.17080 0.16200
H 	H 	0.14290 0.27830 0.14280 0.17800
H 	H 	0.42640 0.93890 0.35060 0.02500
H 	H 	0.43450 0.86870 0.42470 0.02300
H 	H 	0.27270 0.93190 0.14470 0.00300
H 	H 	0.65570 0.94030 0.16590 -0.00700
H 	H 	0.22570 0.88120 0.27700 -0.05100
H 	H 	0.24280 0.80310 0.21060 0.14700
H 	H 	0.10770 0.81040 0.23540 0.15900
H 	H 	0.12720 0.83330 0.17640 0.17100
H 	H 	0.10720 0.94160 0.18660 0.18300
H 	H 	0.02500 0.91610 0.23210 0.17100
H 	H 	0.12820 0.96380 0.24700 0.18300
H 	H 	0.67270 0.88670 0.30040 -0.09700
H 	H 	0.71550 0.98190 0.29330 0.23100
H 	H 	0.84860 0.94900 0.29770 0.21600
H 	H 	0.79060 0.97190 0.24080 0.22100
H 	H 	0.86360 0.85710 0.26310 0.21400
H 	H 	0.73960 0.82020 0.24660 0.20000
H 	H 	0.78960 0.86440 0.20510 0.22500
H 	H 	0.29940 0.65310 0.42220 0.00500
H 	H 	0.67690 0.67370 0.45020 0.00400
H 	H 	0.23190 0.78580 0.35670 -0.07000
H 	H 	0.20470 0.67010 0.33440 0.19000
H 	H 	0.07610 0.70610 0.32670 0.18300
H 	H 	0.19490 0.72080 0.29280 0.17200
H 	H 	0.16500 0.78520 0.44110 0.20500
H 	H 	0.04850 0.75950 0.40390 0.19000
H 	H 	0.14180 0.71930 0.44000 0.20400
H 	H 	0.68280 0.81410 0.39960 -0.07100
H 	H 	0.84170 0.74090 0.46530 0.20400
H 	H 	0.85490 0.80710 0.46070 0.20300
H 	H 	0.74050 0.78060 0.49110 0.21700
H 	H 	0.81800 0.71590 0.37120 0.18500
H 	H 	0.72880 0.75160 0.32920 0.16200
H 	H 	0.85710 0.77830 0.35720 0.17800
H 	H 	0.42640 0.56110 0.85060 0.02500
H 	H 	0.43450 0.63130 0.92470 0.02300
H 	H 	0.27270 0.56810 0.64470 0.00300
H 	H 	0.65570 0.55970 0.66590 -0.00700
H 	H 	0.22570 0.61880 0.77700 -0.05100
H 	H 	0.24280 0.69690 0.71060 0.14700
H 	H 	0.10770 0.68960 0.73540 0.15900
H 	H 	0.12720 0.66670 0.67640 0.17100
H 	H 	0.10720 0.55840 0.68660 0.18300
H 	H 	0.02500 0.58390 0.73210 0.17100
H 	H 	0.12820 0.53620 0.74700 0.18300
H 	H 	0.67270 0.61330 0.80040 -0.09700
H 	H 	0.71550 0.51810 0.79330 0.23100
H 	H 	0.84860 0.55100 0.79770 0.21600
H 	H 	0.79060 0.52810 0.74080 0.22200
H 	H 	0.86360 0.64290 0.76310 0.21400
H 	H 	0.73960 0.67980 0.74660 0.20000
H 	H 	0.78960 0.63560 0.70510 0.22600
H 	H 	0.29940 0.84690 0.92220 0.00500
H 	H 	0.67690 0.82630 0.95020 0.00400
H 	H 	0.23190 0.71420 0.85670 -0.07100
H 	H 	0.20470 0.82990 0.83440 0.19100
H 	H 	0.07610 0.79390 0.82670 0.18300
H 	H 	0.19490 0.77920 0.79280 0.17200
H 	H 	0.16500 0.71480 0.94110 0.20500
H 	H 	0.04850 0.74050 0.90390 0.19000
H 	H 	0.14180 0.78070 0.94000 0.20400
H 	H 	0.68280 0.68590 0.89960 -0.07100
H 	H 	0.84170 0.75910 0.96530 0.20500
H 	H 	0.85490 0.69290 0.96070 0.20300
H 	H 	0.74050 0.71940 0.99110 0.21700
H 	H 	0.81800 0.78410 0.87120 0.18500
H 	H 	0.72880 0.74840 0.82920 0.16200
H 	H 	0.85710 0.72170 0.85720 0.17800
H 	H 	0.57360 0.06110 0.64940 0.02500
H 	H 	0.56550 0.13130 0.57530 0.02300
H 	H 	0.72730 0.06810 0.85530 0.00300
H 	H 	0.34430 0.05970 0.83410 -0.00700
H 	H 	0.77430 0.11880 0.72300 -0.05100
H 	H 	0.75720 0.19690 0.78940 0.14700
H 	H 	0.89230 0.18960 0.76460 0.15900
H 	H 	0.87280 0.16670 0.82360 0.17100
H 	H 	0.89280 0.05840 0.81340 0.18300
H 	H 	0.97500 0.08390 0.76790 0.17100
H 	H 	0.87180 0.03620 0.75300 0.18300
H 	H 	0.32730 0.11330 0.69960 -0.09700
H 	H 	0.28450 0.01810 0.70670 0.23100
H 	H 	0.15140 0.05100 0.70230 0.21600
H 	H 	0.20940 0.02810 0.75920 0.22100
H 	H 	0.13640 0.14290 0.73690 0.21400
H 	H 	0.26040 0.17980 0.75340 0.20000
H 	H 	0.21040 0.13560 0.79490 0.22500
H 	H 	0.70060 0.34690 0.57780 0.00500
H 	H 	0.32310 0.32630 0.54980 0.00400
H 	H 	0.76810 0.21420 0.64330 -0.07000
H 	H 	0.79530 0.32990 0.66560 0.19000
H 	H 	0.92390 0.29390 0.67330 0.18300
H 	H 	0.80510 0.27920 0.70720 0.17200
H 	H 	0.83500 0.21480 0.55890 0.20500
H 	H 	0.95150 0.24050 0.59610 0.19000
H 	H 	0.85820 0.28070 0.56000 0.20400
H 	H 	0.31720 0.18590 0.60040 -0.07100
H 	H 	0.15830 0.25910 0.53470 0.20400
H 	H 	0.14510 0.19290 0.53930 0.20300
H 	H 	0.25950 0.21940 0.50890 0.21700
H 	H 	0.18200 0.28410 0.62880 0.18500
H 	H 	0.27120 0.24840 0.67080 0.16200
H 	H 	0.14290 0.22170 0.64280 0.17800
C 	C 	0.53630 0.31630 0.19040 -0.17100
C 	C 	0.56330 0.39980 0.15260 0.00300
C 	C 	0.55820 0.36170 0.11230 0.00700
C 	C 	0.54720 0.39380 0.25210 0.11600
C 	C 	0.65930 0.40200 0.28260 -0.17000
C 	C 	0.65100 0.42480 0.33330 0.08300
C 	C 	0.53380 0.43730 0.35260 -0.16400
C 	C 	0.42320 0.43000 0.32060 0.10500
C 	C 	0.42160 0.40790 0.26900 -0.22600
C 	C 	0.78640 0.38560 0.26290 0.26700
C 	C 	0.83150 0.32760 0.28750 -0.54000
C 	C 	0.89130 0.43100 0.27550 -0.57400
C 	C 	0.30300 0.40040 0.23520 0.42700
C 	C 	0.23050 0.45590 0.22490 -0.71600
C 	C 	0.22050 0.35680 0.25700 -0.73300
C 	C 	0.52520 0.46180 0.40750 0.37800
C 	C 	0.52970 0.25850 0.10770 0.11000
C 	C 	0.63960 0.22740 0.10430 -0.16700
C 	C 	0.62690 0.17560 0.08060 0.06900
C 	C 	0.51040 0.15630 0.06130 -0.14600
C 	C 	0.40310 0.18800 0.06410 0.08100
C 	C 	0.40750 0.24060 0.08730 -0.18700
C 	C 	0.77750 0.24810 0.12720 0.31700
C 	C 	0.83040 0.20750 0.17260 -0.61100
C 	C 	0.86310 0.25350 0.08150 -0.64500
C 	C 	0.28990 0.27500 0.09170 0.34600
C 	C 	0.20560 0.27600 0.03890 -0.66300
C 	C 	0.21470 0.25320 0.13770 -0.61200
C 	C 	0.50390 0.09690 0.03680 0.37800
C 	C 	0.46370 0.81630 0.30960 -0.17100
C 	C 	0.43670 0.89980 0.34740 0.00300
C 	C 	0.44180 0.86170 0.38770 0.00700
C 	C 	0.45280 0.89380 0.24790 0.11600
C 	C 	0.34070 0.90200 0.21740 -0.17000
C 	C 	0.34900 0.92480 0.16670 0.08300
C 	C 	0.46620 0.93730 0.14740 -0.16400
C 	C 	0.57680 0.93000 0.17940 0.10500
C 	C 	0.57840 0.90790 0.23100 -0.22600
C 	C 	0.21360 0.88560 0.23710 0.26800
C 	C 	0.16850 0.82760 0.21250 -0.54000
C 	C 	0.10870 0.93100 0.22450 -0.57400
C 	C 	0.69700 0.90040 0.26480 0.42700
C 	C 	0.76950 0.95590 0.27510 -0.71500
C 	C 	0.77950 0.85680 0.24300 -0.73200
C 	C 	0.47480 0.96180 0.09250 0.37700
C 	C 	0.47030 0.75850 0.39230 0.11000
C 	C 	0.36040 0.72740 0.39570 -0.16700
C 	C 	0.37310 0.67560 0.41940 0.06900
C 	C 	0.48960 0.65630 0.43870 -0.14600
C 	C 	0.59690 0.68800 0.43590 0.08100
C 	C 	0.59250 0.74060 0.41270 -0.18600
C 	C 	0.22250 0.74810 0.37280 0.31600
C 	C 	0.16960 0.70750 0.32740 -0.61000
C 	C 	0.13690 0.75350 0.41850 -0.64500
C 	C 	0.71010 0.77500 0.40830 0.34500
C 	C 	0.79440 0.77600 0.46110 -0.66200
C 	C 	0.78530 0.75320 0.36230 -0.61200
C 	C 	0.49610 0.59690 0.46320 0.37800
C 	C 	0.46370 0.68370 0.80960 -0.17100
C 	C 	0.43670 0.60020 0.84740 0.00300
C 	C 	0.44180 0.63830 0.88770 0.00700
C 	C 	0.45280 0.60620 0.74790 0.11600
C 	C 	0.34070 0.59800 0.71740 -0.17000
C 	C 	0.34900 0.57520 0.66670 0.08300
C 	C 	0.46620 0.56270 0.64740 -0.16400
C 	C 	0.57680 0.57000 0.67940 0.10500
C 	C 	0.57840 0.59210 0.73100 -0.22600
C 	C 	0.21360 0.61440 0.73710 0.26700
C 	C 	0.16850 0.67240 0.71250 -0.54000
C 	C 	0.10870 0.56900 0.72450 -0.57400
C 	C 	0.69700 0.59960 0.76480 0.42700
C 	C 	0.76950 0.54410 0.77510 -0.71600
C 	C 	0.77950 0.64320 0.74300 -0.73300
C 	C 	0.47480 0.53820 0.59250 0.37800
C 	C 	0.47030 0.74150 0.89230 0.11000
C 	C 	0.36040 0.77260 0.89570 -0.16700
C 	C 	0.37310 0.82440 0.91940 0.06900
C 	C 	0.48960 0.84370 0.93870 -0.14600
C 	C 	0.59690 0.81200 0.93590 0.08100
C 	C 	0.59250 0.75940 0.91270 -0.18700
C 	C 	0.22250 0.75190 0.87280 0.31700
C 	C 	0.16960 0.79250 0.82740 -0.61100
C 	C 	0.13690 0.74650 0.91850 -0.64500
C 	C 	0.71010 0.72500 0.90830 0.34600
C 	C 	0.79440 0.72400 0.96110 -0.66300
C 	C 	0.78530 0.74680 0.86230 -0.61200
C 	C 	0.49610 0.90310 0.96320 0.37800
C 	C 	0.53630 0.18370 0.69040 -0.17100
C 	C 	0.56330 0.10020 0.65260 0.00300
C 	C 	0.55820 0.13830 0.61230 0.00700
C 	C 	0.54720 0.10620 0.75210 0.11600
C 	C 	0.65930 0.09800 0.78260 -0.17000
C 	C 	0.65100 0.07520 0.83330 0.08300
C 	C 	0.53380 0.06270 0.85260 -0.16400
C 	C 	0.42320 0.07000 0.82060 0.10500
C 	C 	0.42160 0.09210 0.76900 -0.22600
C 	C 	0.78640 0.11440 0.76290 0.26800
C 	C 	0.83150 0.17240 0.78750 -0.54000
C 	C 	0.89130 0.06900 0.77550 -0.57400
C 	C 	0.30300 0.09960 0.73520 0.42700
C 	C 	0.23050 0.04410 0.72490 -0.71500
C 	C 	0.22050 0.14320 0.75700 -0.73200
C 	C 	0.52520 0.03820 0.90750 0.37700
C 	C 	0.52970 0.24150 0.60770 0.11000
C 	C 	0.63960 0.27260 0.60430 -0.16700
C 	C 	0.62690 0.32440 0.58060 0.06900
C 	C 	0.51040 0.34370 0.56130 -0.14600
C 	C 	0.40310 0.31200 0.56410 0.08100
C 	C 	0.40750 0.25940 0.58730 -0.18600
C 	C 	0.77750 0.25190 0.62720 0.31600
C 	C 	0.83040 0.29250 0.67260 -0.61000
C 	C 	0.86310 0.24650 0.58150 -0.64500
C 	C 	0.28990 0.22500 0.59170 0.34500
C 	C 	0.20560 0.22400 0.53890 -0.66200
C 	C 	0.21470 0.24680 0.63770 -0.61200
C 	C 	0.50390 0.40310 0.53680 0.37800
N 	N 	0.55040 0.37040 0.19890 -0.11000
N 	N 	0.54060 0.31170 0.13580 -0.11100
N 	N 	0.44960 0.87040 0.30110 -0.11000
N 	N 	0.45940 0.81170 0.36420 -0.11100
N 	N 	0.44960 0.62960 0.80110 -0.11000
N 	N 	0.45940 0.68830 0.86420 -0.11100
N 	N 	0.55040 0.12960 0.69890 -0.11000
N 	N 	0.54060 0.18830 0.63580 -0.11100
Cl	Cl	0.47560 0.20388 0.30131 -0.56500
Cl	Cl	0.52440 0.70388 0.19869 -0.56600
Cl	Cl	0.52440 0.79612 0.69869 -0.56500
Cl	Cl	0.47560 0.29612 0.80131 -0.56600
O 	O 	0.62830 0.47412 0.43328 -0.41900
O 	O 	0.41410 0.46750 0.42367 -0.42600
O 	O 	0.60600 0.07218 0.03289 -0.43400
O 	O 	0.39300 0.07877 0.02296 -0.41900
O 	O 	0.37170 0.97412 0.06672 -0.41900
O 	O 	0.58590 0.96750 0.07633 -0.42700
O 	O 	0.39400 0.57218 0.46711 -0.43500
O 	O 	0.60700 0.57877 0.47704 -0.42000
O 	O 	0.37170 0.52588 0.56672 -0.41900
O 	O 	0.58590 0.53250 0.57633 -0.42600
O 	O 	0.39400 0.92782 0.96711 -0.43400
O 	O 	0.60700 0.92123 0.97704 -0.41900
O 	O 	0.62830 0.02588 0.93328 -0.41900
O 	O 	0.41410 0.03250 0.92367 -0.42700
O 	O 	0.60600 0.42782 0.53289 -0.43500
O 	O 	0.39300 0.42123 0.52296 -0.42000
