data_crystal

_cell_length_a 10.93570
_cell_length_b 10.93570
_cell_length_c 12.45490
_cell_angle_alpha 101.57200
_cell_angle_beta  101.57200
_cell_angle_gamma 99.22710

_symmetry_space_group_name_	'P 1'
_symmetry_space_group_name_H-M	'P 1'

loop_
_symmetry_equiv_pos_as_xyz
  x,y,z

loop_
_atom_site_label
_atom_site_type_symbol
_atom_site_fract_x
_atom_site_fract_y
_atom_site_fract_z
_atom_site_charge
Zn	Zn	0.73604 0.34081 0.37630 1.21600
Zn	Zn	0.65919 0.26396 0.12370 1.21600
H 	H 	0.06700 0.39100 0.79900 0.12600
H 	H 	0.98300 0.26700 0.83800 0.11300
H 	H 	0.05300 0.23700 0.72600 0.11400
H 	H 	0.51790 0.25410 0.50600 -0.34600
H 	H 	0.51480 0.25320 0.61800 -0.33800
H 	H 	0.53130 0.36930 0.58600 -0.33800
H 	H 	0.94630 0.35970 0.57710 0.17500
H 	H 	0.03720 0.24480 0.08800 0.05500
H 	H 	0.23890 0.22310 0.07700 0.04400
H 	H 	0.36530 0.37470 0.41100 0.06500
H 	H 	0.15860 0.37580 0.42200 0.06300
H 	H 	0.60900 0.93300 0.70100 0.12500
H 	H 	0.73300 0.01700 0.66200 0.11300
H 	H 	0.76300 0.94700 0.77400 0.11400
H 	H 	0.74590 0.48210 0.99400 -0.34600
H 	H 	0.74680 0.48520 0.88200 -0.33800
H 	H 	0.63070 0.46870 0.91400 -0.33800
H 	H 	0.64030 0.05370 0.92290 0.17500
H 	H 	0.75520 0.96280 0.41200 0.05500
H 	H 	0.77690 0.76110 0.42300 0.04400
H 	H 	0.62530 0.63470 0.08900 0.06500
H 	H 	0.62420 0.84140 0.07800 0.06300
C 	C 	0.76487 0.28249 0.70451 0.02200
C 	C 	0.93950 0.31804 0.26770 0.36700
C 	C 	0.07399 0.31081 0.25910 -0.06000
C 	C 	0.09880 0.26720 0.15480 -0.02900
C 	C 	0.22310 0.26170 0.14730 0.00300
C 	C 	0.32296 0.29924 0.24260 -0.08000
C 	C 	0.45782 0.29158 0.23550 0.37900
C 	C 	0.29797 0.34323 0.34650 -0.00300
C 	C 	0.17394 0.34786 0.35500 -0.03600
C 	C 	0.88750 0.30890 0.69230 0.16400
C 	C 	0.00630 0.30030 0.76950 -0.32400
C 	C 	0.54850 0.29450 0.57580 1.06300
C 	C 	0.68890 0.30590 0.60540 -0.22400
C 	C 	0.71751 0.23513 0.79549 0.02200
C 	C 	0.68196 0.06050 0.23230 0.36600
C 	C 	0.68919 0.92601 0.24090 -0.06000
C 	C 	0.73280 0.90120 0.34520 -0.02900
C 	C 	0.73830 0.77690 0.35270 0.00300
C 	C 	0.70076 0.67704 0.25740 -0.08000
C 	C 	0.70842 0.54218 0.26450 0.37900
C 	C 	0.65677 0.70203 0.15350 -0.00300
C 	C 	0.65214 0.82606 0.14500 -0.03600
C 	C 	0.69110 0.11250 0.80770 0.16500
C 	C 	0.69970 0.99370 0.73050 -0.32400
C 	C 	0.70550 0.45150 0.92420 1.06300
C 	C 	0.69410 0.31110 0.89460 -0.22400
N 	N 	0.76970 0.33712 0.54133 -0.14200
N 	N 	0.88720 0.34120 0.59760 -0.24100
N 	N 	0.66288 0.23030 0.95867 -0.14200
N 	N 	0.65880 0.11280 0.90240 -0.24100
O 	O 	0.85424 0.28788 0.17847 -0.46600
O 	O 	0.92239 0.35671 0.36565 -0.44000
O 	O 	0.54234 0.32422 0.32542 -0.45700
O 	O 	0.47519 0.25025 0.13830 -0.44400
O 	O 	0.71212 0.14576 0.32153 -0.46600
O 	O 	0.64329 0.07761 0.13435 -0.44000
O 	O 	0.67578 0.45766 0.17458 -0.45700
O 	O 	0.74975 0.52481 0.36170 -0.44300
Zn	Zn	0.26396 0.65919 0.62370 1.21500
Zn	Zn	0.34081 0.73604 0.87630 1.21500
H 	H 	0.93300 0.60900 0.20100 0.12500
H 	H 	0.01700 0.73300 0.16200 0.11200
H 	H 	0.94700 0.76300 0.27400 0.11400
H 	H 	0.48210 0.74590 0.49400 -0.34600
H 	H 	0.48520 0.74680 0.38200 -0.33800
H 	H 	0.46870 0.63070 0.41400 -0.33800
H 	H 	0.05370 0.64030 0.42290 0.17500
H 	H 	0.96280 0.75520 0.91200 0.05500
H 	H 	0.76110 0.77690 0.92300 0.04400
H 	H 	0.63470 0.62530 0.58900 0.06500
H 	H 	0.84140 0.62420 0.57800 0.06300
H 	H 	0.39100 0.06700 0.29900 0.12500
H 	H 	0.26700 0.98300 0.33800 0.11300
H 	H 	0.23700 0.05300 0.22600 0.11400
H 	H 	0.25410 0.51790 0.00600 -0.34600
H 	H 	0.25320 0.51480 0.11800 -0.33800
H 	H 	0.36930 0.53130 0.08600 -0.33800
H 	H 	0.35970 0.94630 0.07710 0.17500
H 	H 	0.24480 0.03720 0.58800 0.05500
H 	H 	0.22310 0.23890 0.57700 0.04400
H 	H 	0.37470 0.36530 0.91100 0.06500
H 	H 	0.37580 0.15860 0.92200 0.06300
C 	C 	0.23513 0.71751 0.29549 0.02200
C 	C 	0.06050 0.68196 0.73230 0.36700
C 	C 	0.92601 0.68919 0.74090 -0.06000
C 	C 	0.90120 0.73280 0.84520 -0.02900
C 	C 	0.77690 0.73830 0.85270 0.00300
C 	C 	0.67704 0.70076 0.75740 -0.08000
C 	C 	0.54218 0.70842 0.76450 0.37900
C 	C 	0.70203 0.65677 0.65350 -0.00300
C 	C 	0.82606 0.65214 0.64500 -0.03600
C 	C 	0.11250 0.69110 0.30770 0.16400
C 	C 	0.99370 0.69970 0.23050 -0.32400
C 	C 	0.45150 0.70550 0.42420 1.06300
C 	C 	0.31110 0.69410 0.39460 -0.22400
C 	C 	0.28249 0.76487 0.20451 0.02200
C 	C 	0.31804 0.93950 0.76770 0.36600
C 	C 	0.31081 0.07399 0.75910 -0.06000
C 	C 	0.26720 0.09880 0.65480 -0.02900
C 	C 	0.26170 0.22310 0.64730 0.00300
C 	C 	0.29924 0.32296 0.74260 -0.08000
C 	C 	0.29158 0.45782 0.73550 0.37900
C 	C 	0.34323 0.29797 0.84650 -0.00300
C 	C 	0.34786 0.17394 0.85500 -0.03600
C 	C 	0.30890 0.88750 0.19230 0.16500
C 	C 	0.30030 0.00630 0.26950 -0.32400
C 	C 	0.29450 0.54850 0.07580 1.06300
C 	C 	0.30590 0.68890 0.10540 -0.22400
N 	N 	0.23030 0.66288 0.45867 -0.14200
N 	N 	0.11280 0.65880 0.40240 -0.24100
N 	N 	0.33712 0.76970 0.04133 -0.14200
N 	N 	0.34120 0.88720 0.09760 -0.24100
O 	O 	0.14576 0.71212 0.82153 -0.46600
O 	O 	0.07761 0.64329 0.63435 -0.44000
O 	O 	0.45766 0.67578 0.67458 -0.45700
O 	O 	0.52481 0.74975 0.86170 -0.44400
O 	O 	0.28788 0.85424 0.67847 -0.46600
O 	O 	0.35671 0.92239 0.86565 -0.44000
O 	O 	0.32422 0.54234 0.82542 -0.45700
O 	O 	0.25025 0.47519 0.63830 -0.44300
