data_crystal

_cell_length_a 8.59580
_cell_length_b 15.80000
_cell_length_c 18.46000
_cell_angle_alpha 90.00000
_cell_angle_beta  90.00000
_cell_angle_gamma 90.00000

_symmetry_space_group_name_	'P 1'
_symmetry_space_group_name_H-M	'P 1'

loop_
_symmetry_equiv_pos_as_xyz
  x,y,z

loop_
_atom_site_label
_atom_site_type_symbol
_atom_site_fract_x
_atom_site_fract_y
_atom_site_fract_z
_atom_site_charge
Li	Li	0.60560 0.08205 0.67227 0.55200
Li	Li	0.58840 0.95560 0.54540 0.55300
Li	Li	0.89440 0.41795 0.17227 0.55200
Li	Li	0.91160 0.54440 0.04540 0.55300
Li	Li	0.60560 0.91795 0.82773 0.55300
Li	Li	0.58840 0.04440 0.95460 0.55400
Li	Li	0.89440 0.58205 0.32773 0.55300
Li	Li	0.91160 0.45560 0.45460 0.55400
Li	Li	0.39440 0.91795 0.32773 0.55300
Li	Li	0.41160 0.04440 0.45460 0.55400
Li	Li	0.10560 0.58205 0.82773 0.55300
Li	Li	0.08840 0.45560 0.95460 0.55400
Li	Li	0.39440 0.08205 0.17227 0.55300
Li	Li	0.41160 0.95560 0.04540 0.55400
Li	Li	0.10560 0.41795 0.67227 0.55300
Li	Li	0.08840 0.54440 0.54540 0.55400
H 	H 	0.80860 0.74440 0.70060 0.06500
H 	H 	0.71550 0.78520 0.45900 0.00600
H 	H 	0.86260 0.63600 0.61950 0.01300
H 	H 	0.69140 0.75560 0.20060 0.06400
H 	H 	0.78450 0.71480 0.95900 0.00700
H 	H 	0.63740 0.86400 0.11950 0.01300
H 	H 	0.80860 0.25560 0.79940 0.06500
H 	H 	0.71550 0.21480 0.04100 0.00300
H 	H 	0.86260 0.36400 0.88050 0.01300
H 	H 	0.69140 0.24440 0.29940 0.06400
H 	H 	0.78450 0.28520 0.54100 0.00600
H 	H 	0.63740 0.13600 0.38050 0.01200
H 	H 	0.19140 0.25560 0.29940 0.06500
H 	H 	0.28450 0.21480 0.54100 0.00600
H 	H 	0.13740 0.36400 0.38050 0.01300
H 	H 	0.30860 0.24440 0.79940 0.06400
H 	H 	0.21550 0.28520 0.04100 0.00700
H 	H 	0.36260 0.13600 0.88050 0.01300
H 	H 	0.19140 0.74440 0.20060 0.06500
H 	H 	0.28450 0.78520 0.95900 0.00300
H 	H 	0.13740 0.63600 0.11950 0.01300
H 	H 	0.30860 0.75560 0.70060 0.06400
H 	H 	0.21550 0.71480 0.45900 0.00600
H 	H 	0.36260 0.86400 0.61950 0.01200
C 	C 	0.68197 0.89711 0.67634 0.34400
C 	C 	0.83187 0.63099 0.47498 0.38300
C 	C 	0.79555 0.69911 0.52989 -0.14000
C 	C 	0.72809 0.82624 0.62503 -0.01700
C 	C 	0.78970 0.75135 0.65137 -0.07400
C 	C 	0.73440 0.77665 0.50805 0.08900
C 	C 	0.82250 0.68710 0.60294 0.04200
C 	C 	0.81803 0.60289 0.17634 0.34400
C 	C 	0.66813 0.86901 0.97498 0.37900
C 	C 	0.70445 0.80089 0.02989 -0.13800
C 	C 	0.77191 0.67376 0.12503 -0.01700
C 	C 	0.71030 0.74865 0.15137 -0.07300
C 	C 	0.76560 0.72335 0.00805 0.08700
C 	C 	0.67750 0.81290 0.10294 0.04100
C 	C 	0.68197 0.10289 0.82366 0.34400
C 	C 	0.83187 0.36901 0.02502 0.37800
C 	C 	0.79555 0.30089 0.97011 -0.13800
C 	C 	0.72809 0.17376 0.87497 -0.01600
C 	C 	0.78970 0.24865 0.84863 -0.07300
C 	C 	0.73440 0.22335 0.99195 0.09300
C 	C 	0.82250 0.31290 0.89706 0.04200
C 	C 	0.81803 0.39711 0.32366 0.34400
C 	C 	0.66813 0.13099 0.52502 0.38300
C 	C 	0.70445 0.19911 0.47011 -0.14000
C 	C 	0.77191 0.32624 0.37497 -0.01700
C 	C 	0.71030 0.25135 0.34863 -0.07400
C 	C 	0.76560 0.27665 0.49195 0.08900
C 	C 	0.67750 0.18710 0.39706 0.04200
C 	C 	0.31803 0.10289 0.32366 0.34400
C 	C 	0.16813 0.36901 0.52502 0.38300
C 	C 	0.20445 0.30089 0.47011 -0.14000
C 	C 	0.27191 0.17376 0.37497 -0.01700
C 	C 	0.21030 0.24865 0.34863 -0.07400
C 	C 	0.26560 0.22335 0.49195 0.08900
C 	C 	0.17750 0.31290 0.39706 0.04200
C 	C 	0.18197 0.39711 0.82366 0.34400
C 	C 	0.33187 0.13099 0.02502 0.37900
C 	C 	0.29555 0.19911 0.97011 -0.13800
C 	C 	0.22809 0.32624 0.87497 -0.01700
C 	C 	0.28970 0.25135 0.84863 -0.07300
C 	C 	0.23440 0.27665 0.99195 0.08700
C 	C 	0.32250 0.18710 0.89706 0.04100
C 	C 	0.31803 0.89711 0.17634 0.34400
C 	C 	0.16813 0.63099 0.97498 0.37800
C 	C 	0.20445 0.69911 0.02989 -0.13800
C 	C 	0.27191 0.82624 0.12503 -0.01600
C 	C 	0.21030 0.75135 0.15137 -0.07300
C 	C 	0.26560 0.77665 0.00805 0.09300
C 	C 	0.17750 0.68710 0.10294 0.04200
C 	C 	0.18197 0.60289 0.67634 0.34400
C 	C 	0.33187 0.86901 0.47498 0.38300
C 	C 	0.29555 0.80089 0.52989 -0.14000
C 	C 	0.22809 0.67376 0.62503 -0.01700
C 	C 	0.28970 0.74865 0.65137 -0.07400
C 	C 	0.23440 0.72335 0.50805 0.08900
C 	C 	0.32250 0.81290 0.60294 0.04200
N 	N 	0.70164 0.83961 0.55422 -0.16800
N 	N 	0.79836 0.66039 0.05422 -0.16800
N 	N 	0.70164 0.16039 0.94578 -0.16800
N 	N 	0.79836 0.33961 0.44578 -0.16800
N 	N 	0.29836 0.16039 0.44578 -0.16800
N 	N 	0.20164 0.33961 0.94578 -0.16800
N 	N 	0.29836 0.83961 0.05422 -0.16800
N 	N 	0.20164 0.66039 0.55422 -0.16800
O 	O 	0.61970 0.96125 0.64794 -0.44700
O 	O 	0.70767 0.88531 0.74142 -0.36700
O 	O 	0.80667 0.64555 0.41047 -0.37300
O 	O 	0.88678 0.56255 0.50037 -0.46300
O 	O 	0.88030 0.53875 0.14794 -0.44800
O 	O 	0.79233 0.61469 0.24142 -0.36700
O 	O 	0.69333 0.85445 0.91047 -0.37200
O 	O 	0.61322 0.93745 0.00037 -0.46100
O 	O 	0.61970 0.03875 0.85206 -0.44600
O 	O 	0.70767 0.11469 0.75858 -0.36600
O 	O 	0.80667 0.35445 0.08953 -0.37200
O 	O 	0.88678 0.43745 0.99963 -0.46000
O 	O 	0.88030 0.46125 0.35206 -0.44700
O 	O 	0.79233 0.38531 0.25858 -0.36700
O 	O 	0.69333 0.14555 0.58953 -0.37300
O 	O 	0.61322 0.06255 0.49963 -0.46300
O 	O 	0.38030 0.03875 0.35206 -0.44700
O 	O 	0.29233 0.11469 0.25858 -0.36700
O 	O 	0.19333 0.35445 0.58953 -0.37300
O 	O 	0.11322 0.43745 0.49963 -0.46300
O 	O 	0.11970 0.46125 0.85206 -0.44800
O 	O 	0.20767 0.38531 0.75858 -0.36700
O 	O 	0.30667 0.14555 0.08953 -0.37200
O 	O 	0.38678 0.06255 0.99963 -0.46100
O 	O 	0.38030 0.96125 0.14794 -0.44600
O 	O 	0.29233 0.88531 0.24142 -0.36600
O 	O 	0.19333 0.64555 0.91047 -0.37200
O 	O 	0.11322 0.56255 0.00037 -0.46000
O 	O 	0.11970 0.53875 0.64794 -0.44700
O 	O 	0.20767 0.61469 0.74142 -0.36700
O 	O 	0.30667 0.85445 0.41047 -0.37300
O 	O 	0.38678 0.93745 0.50037 -0.46300
