data_crystal

_cell_length_a 5.85950
_cell_length_b 11.53820
_cell_length_c 11.53820
_cell_angle_alpha 94.10910
_cell_angle_beta  101.72100
_cell_angle_gamma 78.27920

_symmetry_space_group_name_	'P 1'
_symmetry_space_group_name_H-M	'P 1'

loop_
_symmetry_equiv_pos_as_xyz
  x,y,z

loop_
_atom_site_label
_atom_site_type_symbol
_atom_site_fract_x
_atom_site_fract_y
_atom_site_fract_z
_atom_site_charge
Cu	Cu	0.85151 0.26013 0.99107 0.90300
Cu	Cu	0.64849 0.99107 0.26013 0.90500
Cu	Cu	0.14849 0.73987 0.00893 0.90400
Cu	Cu	0.35151 0.00893 0.73987 0.90600
Cu	Cu	0.75000 0.99122 0.99122 0.90800
Cu	Cu	0.25000 0.00878 0.00878 0.90800
H 	H 	0.92750 0.09510 0.86150 0.32100
H 	H 	0.84180 0.45850 0.73670 0.02600
H 	H 	0.16600 0.30520 0.75740 0.09800
H 	H 	0.57250 0.86150 0.09510 0.32100
H 	H 	0.65820 0.73670 0.45850 0.02500
H 	H 	0.33400 0.75740 0.30520 0.09800
H 	H 	0.07250 0.90490 0.13850 0.32100
H 	H 	0.15820 0.54150 0.26330 0.02600
H 	H 	0.83400 0.69480 0.24260 0.09800
H 	H 	0.42750 0.13850 0.90490 0.32100
H 	H 	0.34180 0.26330 0.54150 0.02500
H 	H 	0.66600 0.24260 0.69480 0.09800
C 	C 	0.78660 0.66600 0.86160 0.31600
C 	C 	0.99530 0.56500 0.86280 -0.07300
C 	C 	0.97930 0.46430 0.79170 0.04900
C 	C 	0.17260 0.37360 0.80480 -0.19300
C 	C 	0.38030 0.38100 0.88820 0.20100
C 	C 	0.39420 0.48911 0.95593 -0.01900
C 	C 	0.71340 0.86160 0.66600 0.31600
C 	C 	0.50470 0.86280 0.56500 -0.07100
C 	C 	0.52070 0.79170 0.46430 0.05400
C 	C 	0.32740 0.80480 0.37360 -0.19700
C 	C 	0.11970 0.88820 0.38100 0.20000
C 	C 	0.10580 0.95593 0.48911 -0.01900
C 	C 	0.21340 0.33400 0.13840 0.31600
C 	C 	0.00470 0.43500 0.13720 -0.07300
C 	C 	0.02070 0.53570 0.20830 0.04900
C 	C 	0.82740 0.62640 0.19520 -0.19300
C 	C 	0.61970 0.61900 0.11180 0.20100
C 	C 	0.60580 0.51089 0.04407 -0.01900
C 	C 	0.28660 0.13840 0.33400 0.31600
C 	C 	0.49530 0.13720 0.43500 -0.07100
C 	C 	0.47930 0.20830 0.53570 0.05400
C 	C 	0.67260 0.19520 0.62640 -0.19700
C 	C 	0.88030 0.11180 0.61900 0.20000
C 	C 	0.89420 0.04407 0.51089 -0.01900
N 	N 	0.19640 0.57731 0.93973 -0.17700
N 	N 	0.30360 0.93973 0.57731 -0.17900
N 	N 	0.80360 0.42269 0.06027 -0.17700
N 	N 	0.69640 0.06027 0.42269 -0.17900
O 	O 	0.93320 0.09251 0.93299 -0.78200
O 	O 	0.82290 0.75292 0.93330 -0.44200
O 	O 	0.59390 0.65902 0.79692 -0.26500
O 	O 	0.54700 0.28380 0.89750 -0.42000
O 	O 	0.56680 0.93299 0.09251 -0.78000
O 	O 	0.67710 0.93330 0.75292 -0.44100
O 	O 	0.90610 0.79692 0.65902 -0.26600
O 	O 	0.95300 0.89750 0.28380 -0.41800
O 	O 	0.06680 0.90749 0.06701 -0.78200
O 	O 	0.17710 0.24708 0.06670 -0.44200
O 	O 	0.40610 0.34098 0.20308 -0.26500
O 	O 	0.45300 0.71620 0.10250 -0.42000
O 	O 	0.43320 0.06701 0.90749 -0.78000
O 	O 	0.32290 0.06670 0.24708 -0.44100
O 	O 	0.09390 0.20308 0.34098 -0.26600
O 	O 	0.04700 0.10250 0.71620 -0.41800
