data_crystal

_cell_length_a 11.09200
_cell_length_b 12.19900
_cell_length_c 28.76700
_cell_angle_alpha 97.64000
_cell_angle_beta  92.01000
_cell_angle_gamma 115.93600

_symmetry_space_group_name_	'P 1'
_symmetry_space_group_name_H-M	'P 1'

loop_
_symmetry_equiv_pos_as_xyz
  x,y,z

loop_
_atom_site_label
_atom_site_type_symbol
_atom_site_fract_x
_atom_site_fract_y
_atom_site_fract_z
_atom_site_charge
C 	C 	0.27030 0.94680 0.85240 0.09000
H 	H 	0.21560 0.98330 0.84510 -0.01700
C 	C 	0.40740 0.01750 0.85790 -0.16000
H 	H 	0.44390 0.09990 0.85400 0.09600
C 	C 	0.49080 0.96610 0.86914 0.07600
C 	C 	0.43230 0.84590 0.87620 -0.14700
H 	H 	0.48540 0.80950 0.88560 0.08400
C 	C 	0.29330 0.77880 0.86930 0.09400
H 	H 	0.25490 0.69640 0.87330 -0.00300
C 	C 	0.63930 0.03990 0.87087 0.06100
C 	C 	0.69220 0.11500 0.83808 -0.14200
H 	H 	0.63430 0.12040 0.81530 0.09900
C 	C 	0.82890 0.18250 0.83806 0.09100
H 	H 	0.86260 0.23340 0.81560 0.01600
C 	C 	0.73050 0.03520 0.90440 -0.13600
H 	H 	0.69920 0.98460 0.92710 0.08100
C 	C 	0.86660 0.10530 0.90370 0.08400
H 	H 	0.92710 0.10430 0.92660 0.01200
C 	C 	0.05760 0.24730 0.86818 0.15300
C 	C 	0.13210 0.35630 0.89840 -0.07600
H 	H 	0.09380 0.38060 0.92350 0.06500
C 	C 	0.26510 0.43020 0.89140 0.02100
H 	H 	0.31150 0.50890 0.90900 0.02800
C 	C 	0.32520 0.38980 0.86030 -0.13200
C 	C 	0.25830 0.27000 0.83390 0.03200
H 	H 	0.30580 0.23680 0.81570 0.02300
C 	C 	0.12190 0.20240 0.83530 -0.09100
H 	H 	0.07340 0.12820 0.81490 0.07500
C 	C 	0.47220 0.47040 0.85300 0.40900
C 	C 	0.02220 0.86700 0.58020 0.08100
H 	H 	0.07570 0.82610 0.57570 0.00000
C 	C 	0.88540 0.79940 0.58320 -0.13800
H 	H 	0.84880 0.71430 0.58220 0.08300
C 	C 	0.80270 0.85840 0.58768 0.06800
C 	C 	0.86090 0.98040 0.58160 -0.18400
H 	H 	0.80750 0.02100 0.57890 0.10100
C 	C 	0.99970 0.04330 0.57950 0.06400
H 	H 	0.03670 0.12510 0.57480 -0.00100
C 	C 	0.65590 0.78770 0.59146 0.05300
C 	C 	0.61020 0.69190 0.61773 -0.12900
H 	H 	0.67120 0.67050 0.63220 0.08200
C 	C 	0.47510 0.62910 0.62230 0.08100
H 	H 	0.44530 0.56550 0.64000 0.01800
C 	C 	0.42720 0.74910 0.57544 0.08400
H 	H 	0.36410 0.76750 0.56060 0.01300
C 	C 	0.56200 0.81550 0.57025 -0.12700
H 	H 	0.58930 0.87900 0.55240 0.07900
C 	C 	0.24310 0.59490 0.60909 0.18800
C 	C 	0.18240 0.46870 0.60638 -0.20700
H 	H 	0.22980 0.42290 0.59930 0.11600
C 	C 	0.04720 0.41140 0.61465 0.10500
H 	H 	0.00290 0.32600 0.61250 0.01200
C 	C 	0.97900 0.48050 0.62598 -0.14400
C 	C 	0.04300 0.60650 0.62889 0.11500
H 	H 	0.99670 0.65300 0.63660 0.00300
C 	C 	0.17730 0.66440 0.62036 -0.22400
H 	H 	0.22160 0.74980 0.62240 0.13200
C 	C 	0.83140 0.41720 0.63500 0.32400
C 	C 	0.71270 0.86670 0.77728 0.33700
C 	C 	0.63950 0.90470 0.74258 -0.06500
C 	C 	0.49950 0.85100 0.73782 -0.02500
H 	H 	0.45130 0.79020 0.75540 0.05500
C 	C 	0.43150 0.88790 0.70691 -0.01200
H 	H 	0.33780 0.85160 0.70380 0.04800
C 	C 	0.50300 0.97950 0.68027 -0.07700
C 	C 	0.64350 0.03340 0.68479 -0.02100
H 	H 	0.69170 0.09490 0.66750 0.05300
C 	C 	0.71180 0.99430 0.71564 -0.02300
H 	H 	0.80530 0.02820 0.71810 0.05000
C 	C 	0.42660 0.02050 0.64818 0.35600
C 	C 	0.33100 0.30200 0.67358 0.35600
C 	C 	0.24920 0.35190 0.70183 -0.07800
C 	C 	0.11230 0.27650 0.70376 -0.01800
H 	H 	0.07370 0.19510 0.68840 0.05000
C 	C 	0.03280 0.32100 0.72820 -0.01600
H 	H 	0.94170 0.26990 0.72890 0.05300
C 	C 	0.09050 0.44260 0.75163 -0.07600
C 	C 	0.22650 0.51800 0.75020 -0.01600
H 	H 	0.26490 0.59960 0.76540 0.05000
C 	C 	0.30500 0.47300 0.72630 -0.01600
H 	H 	0.39660 0.52380 0.72640 0.04400
C 	C 	0.00510 0.49190 0.77873 0.38300
C 	C 	0.44140 0.31020 0.55788 0.35300
C 	C 	0.46960 0.40790 0.52741 -0.07000
C 	C 	0.60370 0.48050 0.52013 -0.02200
H 	H 	0.67250 0.46670 0.53330 0.05600
C 	C 	0.63330 0.57350 0.49304 -0.01500
H 	H 	0.72230 0.62330 0.48860 0.04900
C 	C 	0.91260 0.52740 0.90751 0.37900
C 	C 	0.95780 0.51420 0.95581 -0.08000
C 	C 	0.07090 0.60880 0.98242 -0.01700
H 	H 	0.11830 0.68190 0.97080 0.05000
C 	C 	0.11440 0.59550 0.02636 -0.02400
H 	H 	0.19100 0.65900 0.04380 0.05700
C 	C 	0.88910 0.84190 0.90988 0.36300
C 	C 	0.94650 0.92050 0.95744 -0.08100
C 	C 	0.08460 0.99630 0.96609 -0.01100
H 	H 	0.14080 0.99310 0.94320 0.04600
C 	C 	0.13950 0.07680 0.00852 -0.02700
H 	H 	0.23170 0.12790 0.01420 0.05300
C 	C 	0.57120 0.26050 0.74579 0.52500
H 	H 	0.49620 0.18800 0.73250 -0.14500
N 	N 	0.91270 0.17520 0.86995 -0.15800
N 	N 	0.21180 0.82720 0.85720 -0.23800
N 	N 	0.07910 0.99120 0.58377 -0.24800
N 	N 	0.38580 0.65850 0.60148 -0.16000
O 	O 	0.50240 0.57680 0.85013 -0.49400
O 	O 	0.55420 0.42580 0.85610 -0.42100
O 	O 	0.77300 0.48370 0.64578 -0.36900
O 	O 	0.77360 0.30190 0.63055 -0.36700
O 	O 	0.63810 0.78110 0.79881 -0.46000
O 	O 	0.83780 0.92330 0.78410 -0.30300
O 	O 	0.30310 0.95640 0.63769 -0.38900
O 	O 	0.48830 0.11880 0.63173 -0.52400
O 	O 	0.27520 0.18890 0.65713 -0.44700
O 	O 	0.44930 0.37740 0.66720 -0.43000
O 	O 	0.89360 0.41480 0.78894 -0.44400
O 	O 	0.05410 0.60710 0.78973 -0.47500
O 	O 	0.32020 0.23840 0.56086 -0.44500
O 	O 	0.54200 0.30630 0.57820 -0.44900
O 	O 	0.80900 0.43780 0.88542 -0.45700
O 	O 	0.98310 0.62520 0.89280 -0.47000
O 	O 	0.76280 0.77210 0.90397 -0.46900
O 	O 	0.96690 0.85150 0.87844 -0.47200
O 	O 	0.79030 0.60980 0.81060 -0.79900
H 	H 	0.77980 0.59780 0.77670 0.17500
O 	O 	0.63280 0.32820 0.71913 -0.51700
O 	O 	0.59820 0.27810 0.78978 -0.48600
O 	O 	0.32320 0.99830 0.53583 -0.38700
H 	H 	0.42080 0.00560 0.52480 0.12700
Zn	Zn	0.68440 0.68858 0.83989 1.22900
Zn	Zn	0.74020 0.43871 0.82139 1.23300
Zn	Zn	0.99922 0.71540 0.83516 1.20600
Zn	Zn	0.29018 0.09178 0.59387 1.22400
Zn	Zn	0.58611 0.30869 0.64770 1.24000
C 	C 	0.02250 0.94590 0.63030 -0.03200
C 	C 	0.88780 0.87270 0.63120 -0.03200
H 	H 	0.85250 0.83500 0.65690 0.04200
C 	C 	0.99600 0.98600 0.55800 0.04400
H 	H 	0.02570 0.03550 0.53480 -0.00300
C 	C 	0.85870 0.92000 0.55590 0.02300
H 	H 	0.80520 0.92030 0.53030 0.03000
C 	C 	0.27820 0.26500 0.86550 0.01300
H 	H 	0.33790 0.23050 0.86690 0.03300
C 	C 	0.14120 0.19360 0.86860 -0.09200
H 	H 	0.10810 0.11030 0.87100 0.07000
C 	C 	0.23800 0.44120 0.86350 0.03300
H 	H 	0.27020 0.52540 0.86300 0.02900
C 	C 	0.10290 0.37110 0.86760 -0.10500
H 	H 	0.04410 0.40700 0.86980 0.07400
H 	H 	0.08100 0.96890 0.65770 0.05000
C 	C 	0.72970 0.05320 0.14760 0.09100
H 	H 	0.78440 0.01670 0.15490 -0.01600
C 	C 	0.59260 0.98250 0.14210 -0.15900
H 	H 	0.55610 0.90010 0.14600 0.09700
C 	C 	0.50920 0.03390 0.13086 0.07600
C 	C 	0.56770 0.15410 0.12380 -0.14700
H 	H 	0.51460 0.19050 0.11440 0.08400
C 	C 	0.70670 0.22120 0.13070 0.09400
H 	H 	0.74510 0.30360 0.12670 -0.00300
C 	C 	0.36070 0.96010 0.12913 0.06100
C 	C 	0.30780 0.88500 0.16192 -0.14200
H 	H 	0.36570 0.87960 0.18470 0.09900
C 	C 	0.17110 0.81750 0.16194 0.09100
H 	H 	0.13740 0.76660 0.18440 0.01600
C 	C 	0.26950 0.96480 0.09560 -0.13600
H 	H 	0.30080 0.01540 0.07290 0.08100
C 	C 	0.13340 0.89470 0.09630 0.08400
H 	H 	0.07290 0.89570 0.07340 0.01200
C 	C 	0.94240 0.75270 0.13182 0.15300
C 	C 	0.86790 0.64370 0.10160 -0.07600
H 	H 	0.90620 0.61940 0.07650 0.06500
C 	C 	0.73490 0.56980 0.10860 0.02100
H 	H 	0.68850 0.49110 0.09100 0.02800
C 	C 	0.67480 0.61020 0.13970 -0.13200
C 	C 	0.74170 0.73000 0.16610 0.03200
H 	H 	0.69420 0.76320 0.18430 0.02300
C 	C 	0.87810 0.79760 0.16470 -0.09100
H 	H 	0.92660 0.87180 0.18510 0.07500
C 	C 	0.52780 0.52960 0.14700 0.40900
C 	C 	0.97780 0.13300 0.41980 0.08100
H 	H 	0.92430 0.17390 0.42430 0.00000
C 	C 	0.11460 0.20060 0.41680 -0.13800
H 	H 	0.15120 0.28570 0.41780 0.08300
C 	C 	0.19730 0.14160 0.41232 0.06800
C 	C 	0.13910 0.01960 0.41840 -0.18400
H 	H 	0.19250 0.97900 0.42110 0.10100
C 	C 	0.00030 0.95670 0.42050 0.06400
H 	H 	0.96330 0.87490 0.42520 -0.00100
C 	C 	0.34410 0.21230 0.40854 0.05300
C 	C 	0.38980 0.30810 0.38227 -0.12900
H 	H 	0.32880 0.32950 0.36780 0.08200
C 	C 	0.52490 0.37090 0.37770 0.08100
H 	H 	0.55470 0.43450 0.36000 0.01800
C 	C 	0.57280 0.25090 0.42456 0.08400
H 	H 	0.63590 0.23250 0.43940 0.01300
C 	C 	0.43800 0.18450 0.42975 -0.12700
H 	H 	0.41070 0.12100 0.44760 0.07900
C 	C 	0.75690 0.40510 0.39091 0.18800
C 	C 	0.81760 0.53130 0.39362 -0.20700
H 	H 	0.77020 0.57710 0.40070 0.11600
C 	C 	0.95280 0.58860 0.38535 0.10500
H 	H 	0.99710 0.67400 0.38750 0.01200
C 	C 	0.02100 0.51950 0.37402 -0.14400
C 	C 	0.95700 0.39350 0.37111 0.11500
H 	H 	0.00330 0.34700 0.36340 0.00300
C 	C 	0.82270 0.33560 0.37964 -0.22400
H 	H 	0.77840 0.25020 0.37760 0.13200
C 	C 	0.16860 0.58280 0.36500 0.32400
C 	C 	0.28730 0.13330 0.22272 0.33700
C 	C 	0.36050 0.09530 0.25742 -0.06500
C 	C 	0.50050 0.14900 0.26218 -0.02500
H 	H 	0.54870 0.20980 0.24460 0.05500
C 	C 	0.56850 0.11210 0.29309 -0.01200
H 	H 	0.66220 0.14840 0.29620 0.04800
C 	C 	0.49700 0.02050 0.31973 -0.07700
C 	C 	0.35650 0.96660 0.31521 -0.02100
H 	H 	0.30830 0.90510 0.33250 0.05300
C 	C 	0.28820 0.00570 0.28436 -0.02300
H 	H 	0.19470 0.97180 0.28190 0.05000
C 	C 	0.57340 0.97950 0.35182 0.35600
C 	C 	0.66900 0.69800 0.32642 0.35600
C 	C 	0.75080 0.64810 0.29817 -0.07800
C 	C 	0.88770 0.72350 0.29624 -0.01800
H 	H 	0.92630 0.80490 0.31160 0.05000
C 	C 	0.96720 0.67900 0.27180 -0.01600
H 	H 	0.05830 0.73010 0.27110 0.05300
C 	C 	0.90950 0.55740 0.24837 -0.07600
C 	C 	0.77350 0.48200 0.24980 -0.01600
H 	H 	0.73510 0.40040 0.23460 0.05000
C 	C 	0.69500 0.52700 0.27370 -0.01600
H 	H 	0.60340 0.47620 0.27360 0.04400
C 	C 	0.99490 0.50810 0.22127 0.38300
C 	C 	0.55860 0.68980 0.44212 0.35300
C 	C 	0.53040 0.59210 0.47259 -0.07000
C 	C 	0.39630 0.51950 0.47987 -0.02200
H 	H 	0.32750 0.53330 0.46670 0.05600
C 	C 	0.36670 0.42650 0.50696 -0.01500
H 	H 	0.27770 0.37670 0.51140 0.04900
C 	C 	0.08740 0.47260 0.09249 0.37900
C 	C 	0.04220 0.48580 0.04419 -0.08000
C 	C 	0.92910 0.39120 0.01758 -0.01700
H 	H 	0.88170 0.31810 0.02920 0.05000
C 	C 	0.88560 0.40450 0.97364 -0.02400
H 	H 	0.80900 0.34100 0.95620 0.05700
C 	C 	0.11090 0.15810 0.09012 0.36300
C 	C 	0.05350 0.07950 0.04256 -0.08100
C 	C 	0.91540 0.00370 0.03391 -0.01100
H 	H 	0.85920 0.00690 0.05680 0.04600
C 	C 	0.86050 0.92320 0.99148 -0.02700
H 	H 	0.76830 0.87210 0.98580 0.05300
C 	C 	0.42880 0.73950 0.25421 0.52500
H 	H 	0.50380 0.81200 0.26750 -0.14500
N 	N 	0.08730 0.82480 0.13005 -0.15800
N 	N 	0.78820 0.17280 0.14280 -0.23800
N 	N 	0.92090 0.00880 0.41623 -0.24800
N 	N 	0.61420 0.34150 0.39852 -0.16000
O 	O 	0.49760 0.42320 0.14987 -0.49400
O 	O 	0.44580 0.57420 0.14390 -0.42100
O 	O 	0.22700 0.51630 0.35422 -0.36900
O 	O 	0.22640 0.69810 0.36945 -0.36700
O 	O 	0.36190 0.21890 0.20119 -0.46000
O 	O 	0.16220 0.07670 0.21590 -0.30300
O 	O 	0.69690 0.04360 0.36231 -0.38900
O 	O 	0.51170 0.88120 0.36827 -0.52400
O 	O 	0.72480 0.81110 0.34287 -0.44700
O 	O 	0.55070 0.62260 0.33280 -0.43000
O 	O 	0.10640 0.58520 0.21106 -0.44400
O 	O 	0.94590 0.39290 0.21027 -0.47500
O 	O 	0.67980 0.76160 0.43914 -0.44500
O 	O 	0.45800 0.69370 0.42180 -0.44900
O 	O 	0.19100 0.56220 0.11458 -0.45700
O 	O 	0.01690 0.37480 0.10720 -0.47000
O 	O 	0.23720 0.22790 0.09603 -0.46900
O 	O 	0.03310 0.14850 0.12156 -0.47200
O 	O 	0.20970 0.39020 0.18940 -0.79900
H 	H 	0.22020 0.40220 0.22330 0.17500
O 	O 	0.36720 0.67180 0.28087 -0.51700
O 	O 	0.40180 0.72190 0.21022 -0.48600
O 	O 	0.67680 0.00170 0.46417 -0.38700
H 	H 	0.57920 0.99440 0.47520 0.12700
Zn	Zn	0.31560 0.31142 0.16011 1.22900
Zn	Zn	0.25980 0.56129 0.17861 1.23300
Zn	Zn	0.00078 0.28460 0.16484 1.20600
Zn	Zn	0.70982 0.90822 0.40613 1.22400
Zn	Zn	0.41389 0.69131 0.35230 1.24000
C 	C 	0.97750 0.05410 0.36970 -0.03200
C 	C 	0.11220 0.12730 0.36880 -0.03200
H 	H 	0.14750 0.16500 0.34310 0.04200
C 	C 	0.00400 0.01400 0.44200 0.04400
H 	H 	0.97430 0.96450 0.46520 -0.00300
C 	C 	0.14130 0.08000 0.44410 0.02300
H 	H 	0.19480 0.07970 0.46970 0.03000
C 	C 	0.72180 0.73500 0.13450 0.01300
H 	H 	0.66210 0.76950 0.13310 0.03300
C 	C 	0.85880 0.80640 0.13140 -0.09200
H 	H 	0.89190 0.88970 0.12900 0.07000
C 	C 	0.76200 0.55880 0.13650 0.03300
H 	H 	0.72980 0.47460 0.13700 0.02900
C 	C 	0.89710 0.62890 0.13240 -0.10500
H 	H 	0.95590 0.59300 0.13020 0.07400
H 	H 	0.91900 0.03110 0.34230 0.05000
