data_crystal

_cell_length_a 10.12090
_cell_length_b 13.97530
_cell_length_c 18.00910
_cell_angle_alpha 90.00000
_cell_angle_beta  90.00000
_cell_angle_gamma 90.00000

_symmetry_space_group_name_	'P 1'
_symmetry_space_group_name_H-M	'P 1'

loop_
_symmetry_equiv_pos_as_xyz
  x,y,z

loop_
_atom_site_label
_atom_site_type_symbol
_atom_site_fract_x
_atom_site_fract_y
_atom_site_fract_z
_atom_site_charge
Zn	Zn	0.55520 0.47648 0.58743 1.18700
Zn	Zn	0.76020 0.63590 0.65909 1.22900
Zn	Zn	0.94480 0.52352 0.08743 1.18700
Zn	Zn	0.73980 0.36410 0.15909 1.23000
Zn	Zn	0.44480 0.97648 0.91257 1.18700
Zn	Zn	0.23980 0.13590 0.84091 1.23000
Zn	Zn	0.05520 0.02352 0.41257 1.18800
Zn	Zn	0.26020 0.86410 0.34091 1.23100
H 	H 	0.39070 0.77420 0.76030 0.06200
H 	H 	0.46570 0.84240 0.70250 0.06600
H 	H 	0.23410 0.64610 0.71260 0.07400
H 	H 	0.21180 0.63490 0.62480 0.08200
H 	H 	0.33300 0.74260 0.53440 0.06600
H 	H 	0.43180 0.82320 0.56500 0.06800
H 	H 	0.06340 0.87160 0.73340 0.07900
H 	H 	0.14290 0.79210 0.77950 0.06800
H 	H 	0.18190 0.97870 0.64480 0.07800
H 	H 	0.33850 0.96970 0.63320 0.06400
H 	H 	0.08520 0.76010 0.55390 0.06800
H 	H 	0.02890 0.85250 0.59620 0.07700
H 	H 	0.10930 0.22580 0.26030 0.06200
H 	H 	0.03430 0.15760 0.20250 0.06600
H 	H 	0.26590 0.35390 0.21260 0.07400
H 	H 	0.28820 0.36510 0.12480 0.08200
H 	H 	0.16700 0.25740 0.03440 0.06500
H 	H 	0.06820 0.17680 0.06500 0.06700
H 	H 	0.43660 0.12840 0.23340 0.07800
H 	H 	0.35710 0.20790 0.27950 0.06800
H 	H 	0.31810 0.02130 0.14480 0.07700
H 	H 	0.16150 0.03030 0.13320 0.06300
H 	H 	0.41480 0.23990 0.05390 0.06700
H 	H 	0.47110 0.14750 0.09620 0.07600
H 	H 	0.60930 0.27420 0.73970 0.06200
H 	H 	0.53430 0.34240 0.79750 0.06600
H 	H 	0.76590 0.14610 0.78740 0.07500
H 	H 	0.78820 0.13490 0.87520 0.08300
H 	H 	0.66700 0.24260 0.96560 0.06600
H 	H 	0.56820 0.32320 0.93500 0.06800
H 	H 	0.93660 0.37160 0.76660 0.07900
H 	H 	0.85710 0.29210 0.72050 0.06900
H 	H 	0.81810 0.47870 0.85520 0.07800
H 	H 	0.66150 0.46970 0.86680 0.06400
H 	H 	0.91480 0.26010 0.94610 0.06800
H 	H 	0.97110 0.35250 0.90380 0.07700
H 	H 	0.89070 0.72580 0.23970 0.06200
H 	H 	0.96570 0.65760 0.29750 0.06600
H 	H 	0.73410 0.85390 0.28740 0.07400
H 	H 	0.71180 0.86510 0.37520 0.08200
H 	H 	0.83300 0.75740 0.46560 0.06500
H 	H 	0.93180 0.67680 0.43500 0.06800
H 	H 	0.56340 0.62840 0.26660 0.07900
H 	H 	0.64290 0.70790 0.22050 0.06800
H 	H 	0.68190 0.52130 0.35520 0.07800
H 	H 	0.83850 0.53030 0.36680 0.06400
H 	H 	0.58520 0.73990 0.44610 0.06700
H 	H 	0.52890 0.64750 0.40380 0.07600
C 	C 	0.47230 0.66560 0.64440 0.36500
C 	C 	0.29380 0.95050 0.77840 0.36500
C 	C 	0.98140 0.70050 0.67730 0.25000
C 	C 	0.21450 0.91140 0.50380 0.38400
C 	C 	0.35780 0.73500 0.65060 -0.00800
C 	C 	0.26800 0.87960 0.71630 -0.00700
C 	C 	0.11330 0.75290 0.66880 0.03700
C 	C 	0.23370 0.86030 0.57830 -0.00900
C 	C 	0.38210 0.80780 0.71220 -0.12000
C 	C 	0.22790 0.68160 0.66510 -0.14100
C 	C 	0.34800 0.78890 0.57510 -0.12100
C 	C 	0.13770 0.82560 0.73110 -0.14100
C 	C 	0.25660 0.93300 0.64250 -0.12000
C 	C 	0.10310 0.80640 0.59430 -0.14500
C 	C 	0.02770 0.33440 0.14440 0.36500
C 	C 	0.20620 0.04950 0.27840 0.36300
C 	C 	0.51860 0.29950 0.17730 0.25100
C 	C 	0.28550 0.08860 0.00380 0.38200
C 	C 	0.14220 0.26500 0.15060 -0.00800
C 	C 	0.23200 0.12040 0.21630 -0.00700
C 	C 	0.38670 0.24710 0.16880 0.03600
C 	C 	0.26630 0.13970 0.07830 -0.00900
C 	C 	0.11790 0.19220 0.21220 -0.12000
C 	C 	0.27210 0.31840 0.16510 -0.14100
C 	C 	0.15200 0.21110 0.07510 -0.12100
C 	C 	0.36230 0.17440 0.23110 -0.14100
C 	C 	0.24340 0.06700 0.14250 -0.12000
C 	C 	0.39690 0.19360 0.09430 -0.14500
C 	C 	0.52770 0.16560 0.85560 0.36500
C 	C 	0.70620 0.45050 0.72160 0.36600
C 	C 	0.01860 0.20050 0.82270 0.24900
C 	C 	0.78550 0.41140 0.99620 0.38500
C 	C 	0.64220 0.23500 0.84940 -0.00700
C 	C 	0.73200 0.37960 0.78370 -0.00700
C 	C 	0.88670 0.25290 0.83120 0.03800
C 	C 	0.76630 0.36030 0.92170 -0.00900
C 	C 	0.61790 0.30780 0.78780 -0.12000
C 	C 	0.77210 0.18160 0.83490 -0.14200
C 	C 	0.65200 0.28890 0.92490 -0.12200
C 	C 	0.86230 0.32560 0.76890 -0.14200
C 	C 	0.74340 0.43300 0.85750 -0.12000
C 	C 	0.89690 0.30640 0.90570 -0.14600
C 	C 	0.97230 0.83440 0.35560 0.36300
C 	C 	0.79380 0.54950 0.22160 0.36600
C 	C 	0.48140 0.79950 0.32270 0.25100
C 	C 	0.71450 0.58860 0.49620 0.38400
C 	C 	0.85780 0.76500 0.34940 -0.00700
C 	C 	0.76800 0.62040 0.28370 -0.00800
C 	C 	0.61330 0.74710 0.33120 0.03600
C 	C 	0.73370 0.63970 0.42170 -0.00900
C 	C 	0.88210 0.69220 0.28780 -0.12000
C 	C 	0.72790 0.81840 0.33490 -0.14100
C 	C 	0.84800 0.71110 0.42490 -0.12100
C 	C 	0.63770 0.67440 0.26890 -0.14100
C 	C 	0.75660 0.56700 0.35750 -0.12000
C 	C 	0.60310 0.69360 0.40570 -0.14500
O 	O 	0.44910 0.58180 0.62510 -0.52700
O 	O 	0.58600 0.69980 0.65820 -0.47900
O 	O 	0.33690 0.91510 0.83880 -0.53700
O 	O 	0.27080 0.03590 0.76760 -0.50200
O 	O 	0.87720 0.74830 0.68670 -0.40900
O 	O 	0.97700 0.61170 0.66920 -0.36300
O 	O 	0.13380 0.97930 0.50350 -0.52800
O 	O 	0.27460 0.88110 0.44930 -0.51100
O 	O 	0.05090 0.41820 0.12510 -0.52700
O 	O 	0.91400 0.30020 0.15820 -0.47900
O 	O 	0.16310 0.08490 0.33880 -0.53600
O 	O 	0.22920 0.96410 0.26760 -0.50000
O 	O 	0.62280 0.25170 0.18670 -0.40800
O 	O 	0.52300 0.38830 0.16920 -0.36300
O 	O 	0.36620 0.02070 0.00350 -0.52900
O 	O 	0.22540 0.11890 0.94930 -0.51000
O 	O 	0.55090 0.08180 0.87490 -0.52600
O 	O 	0.41400 0.19980 0.84180 -0.47900
O 	O 	0.66310 0.41510 0.66120 -0.53600
O 	O 	0.72920 0.53590 0.73240 -0.50300
O 	O 	0.12280 0.24830 0.81330 -0.40800
O 	O 	0.02300 0.11170 0.83080 -0.36300
O 	O 	0.86620 0.47930 0.99650 -0.52900
O 	O 	0.72540 0.38110 0.05070 -0.51200
O 	O 	0.94910 0.91820 0.37490 -0.52700
O 	O 	0.08600 0.80020 0.34180 -0.47700
O 	O 	0.83690 0.58490 0.16120 -0.53700
O 	O 	0.77080 0.46410 0.23240 -0.50300
O 	O 	0.37720 0.75170 0.31330 -0.40800
O 	O 	0.47700 0.88830 0.33080 -0.36300
O 	O 	0.63380 0.52070 0.49650 -0.52900
O 	O 	0.77460 0.61890 0.55070 -0.51200
