data_crystal

_cell_length_a 10.33700
_cell_length_b 14.43700
_cell_length_c 19.42000
_cell_angle_alpha 90.00000
_cell_angle_beta  89.73100
_cell_angle_gamma 90.00000

_symmetry_space_group_name_	'P 1'
_symmetry_space_group_name_H-M	'P 1'

loop_
_symmetry_equiv_pos_as_xyz
  x,y,z

loop_
_atom_site_label
_atom_site_type_symbol
_atom_site_fract_x
_atom_site_fract_y
_atom_site_fract_z
_atom_site_charge
Zn	Zn	0.65443 0.91599 0.75145 1.22700
Zn	Zn	0.96915 0.98504 0.75029 1.21900
Zn	Zn	0.15505 0.78010 0.74861 1.22400
Zn	Zn	0.46994 0.71062 0.74971 1.20100
Zn	Zn	0.34557 0.41599 0.24855 1.22800
Zn	Zn	0.03085 0.48504 0.24971 1.22700
Zn	Zn	0.84495 0.28010 0.25139 1.22400
Zn	Zn	0.53006 0.21062 0.25029 1.20300
H 	H 	0.95530 0.08670 0.94970 0.04400
H 	H 	0.92360 0.17550 0.05440 0.05600
H 	H 	0.55890 0.05650 0.05820 0.05300
H 	H 	0.57380 0.05300 0.93460 0.04700
H 	H 	0.57500 0.05110 0.56310 0.05400
H 	H 	0.54990 0.08020 0.44930 0.04400
H 	H 	0.93280 0.17490 0.45050 0.04700
H 	H 	0.94700 0.09380 0.55650 0.05700
H 	H 	0.28600 0.07930 0.72010 0.00400
H 	H 	0.27160 0.06080 0.79840 -0.00100
H 	H 	0.04470 0.58670 0.05030 0.04400
H 	H 	0.07640 0.67550 0.94560 0.05300
H 	H 	0.44110 0.55650 0.94180 0.04800
H 	H 	0.42620 0.55300 0.06540 0.04300
H 	H 	0.42500 0.55110 0.43690 0.04900
H 	H 	0.45010 0.58020 0.55070 0.04000
H 	H 	0.06720 0.67490 0.54950 0.04500
H 	H 	0.05300 0.59380 0.44350 0.05500
H 	H 	0.71400 0.57930 0.27990 0.01600
H 	H 	0.72840 0.56080 0.20160 0.01000
C 	C 	0.79180 0.02670 0.86940 0.38000
C 	C 	0.76920 0.06630 0.93800 -0.10300
C 	C 	0.87360 0.09560 0.96880 0.00200
C 	C 	0.85570 0.14300 0.03450 -0.03500
C 	C 	0.73430 0.13870 0.06720 -0.05600
C 	C 	0.72150 0.16910 0.14430 0.40100
C 	C 	0.62870 0.08000 0.03340 -0.04000
C 	C 	0.64400 0.06430 0.96310 0.00300
C 	C 	0.79230 0.02480 0.64330 0.46800
C 	C 	0.75640 0.06490 0.56590 -0.06500
C 	C 	0.64710 0.06750 0.53700 -0.01400
C 	C 	0.62790 0.09250 0.47120 -0.01700
C 	C 	0.73110 0.13870 0.43570 -0.08300
C 	C 	0.72400 0.17250 0.36170 0.40400
C 	C 	0.86230 0.14460 0.47020 -0.01700
C 	C 	0.86780 0.10000 0.53450 -0.03000
C 	C 	0.23100 0.04930 0.75410 0.20400
C 	C 	0.36490 0.91890 0.74530 0.51800
C 	C 	0.86600 0.79180 0.75290 0.36500
C 	C 	0.24300 0.96900 0.74420 -0.26700
C 	C 	0.20820 0.52670 0.13060 0.35700
C 	C 	0.23080 0.56630 0.06200 -0.09700
C 	C 	0.12640 0.59560 0.03120 -0.00600
C 	C 	0.14430 0.64300 0.96550 -0.03200
C 	C 	0.26570 0.63870 0.93280 -0.06100
C 	C 	0.27850 0.66910 0.85570 0.40100
C 	C 	0.37130 0.58000 0.96660 -0.03700
C 	C 	0.35600 0.56430 0.03690 -0.00700
C 	C 	0.20770 0.52480 0.35670 0.44000
C 	C 	0.24360 0.56490 0.43410 -0.06300
C 	C 	0.35290 0.56750 0.46300 -0.02000
C 	C 	0.37210 0.59250 0.52880 -0.01600
C 	C 	0.26890 0.63870 0.56430 -0.08700
C 	C 	0.27600 0.67250 0.63830 0.40400
C 	C 	0.13770 0.64460 0.52980 -0.01700
C 	C 	0.13220 0.60000 0.46550 -0.03400
C 	C 	0.76900 0.54930 0.24590 0.13600
C 	C 	0.63510 0.41890 0.25470 0.49900
C 	C 	0.13400 0.29180 0.24710 0.36700
C 	C 	0.75700 0.46900 0.25580 -0.21400
N 	N 	0.13170 0.91440 0.75420 -0.34700
N 	N 	0.62640 0.78250 0.74670 -0.42500
N 	N 	0.86830 0.41440 0.24580 -0.35100
N 	N 	0.37360 0.28250 0.25330 -0.42300
O 	O 	0.89650 0.03160 0.83790 -0.46200
O 	O 	0.68980 0.98790 0.83520 -0.46900
O 	O 	0.60590 0.16330 0.16430 -0.51400
O 	O 	0.81690 0.21070 0.16300 -0.48900
O 	O 	0.89510 0.03600 0.66570 -0.52500
O 	O 	0.69140 0.98730 0.66720 -0.51500
O 	O 	0.60490 0.16860 0.33670 -0.50000
O 	O 	0.81480 0.21200 0.33810 -0.50500
O 	O 	0.11170 0.10220 0.75510 -0.30200
O 	O 	0.35690 0.83340 0.75010 -0.62300
O 	O 	0.46370 0.96150 0.74680 -0.50300
O 	O 	0.97100 0.73980 0.75060 -0.45500
O 	O 	0.85300 0.87100 0.74960 -0.63800
O 	O 	0.10350 0.53160 0.16210 -0.46700
O 	O 	0.31020 0.48790 0.16480 -0.44900
O 	O 	0.39410 0.66330 0.83570 -0.51700
O 	O 	0.18310 0.71070 0.83700 -0.49100
O 	O 	0.10490 0.53600 0.33430 -0.52700
O 	O 	0.30860 0.48730 0.33280 -0.49200
O 	O 	0.39510 0.66860 0.66330 -0.50200
O 	O 	0.18520 0.71200 0.66190 -0.50700
O 	O 	0.88830 0.60220 0.24490 -0.30000
O 	O 	0.64310 0.33340 0.24990 -0.61700
O 	O 	0.53630 0.46150 0.25320 -0.49200
O 	O 	0.02900 0.23980 0.24940 -0.45200
O 	O 	0.14700 0.37100 0.25040 -0.63300
