data_crystal

_cell_length_a 10.15200
_cell_length_b 17.44000
_cell_length_c 17.71500
_cell_angle_alpha 90.00000
_cell_angle_beta  90.00000
_cell_angle_gamma 90.00000

_symmetry_space_group_name_	'P 1'
_symmetry_space_group_name_H-M	'P 1'

loop_
_symmetry_equiv_pos_as_xyz
  x,y,z

loop_
_atom_site_label
_atom_site_type_symbol
_atom_site_fract_x
_atom_site_fract_y
_atom_site_fract_z
_atom_site_charge
Tb	Tb	0.33876 0.47912 0.24096 1.92900
Tb	Tb	0.11769 0.67890 0.22713 1.96900
Tb	Tb	0.66124 0.52088 0.74096 1.92700
Tb	Tb	0.88231 0.32110 0.72713 1.96700
Tb	Tb	0.16124 0.97912 0.24096 1.92400
Tb	Tb	0.38231 0.17890 0.22713 1.97100
Tb	Tb	0.83876 0.02088 0.74096 1.92400
Tb	Tb	0.61769 0.82110 0.72713 1.96800
H 	H 	0.88470 0.62420 0.54590 0.04100
H 	H 	0.97750 0.64060 0.42140 0.02500
H 	H 	0.63830 0.21350 0.92310 0.05400
H 	H 	0.54360 0.20730 0.04980 0.00300
H 	H 	0.61400 0.54880 0.93630 0.02900
H 	H 	0.51810 0.53300 0.06160 0.01800
H 	H 	0.11530 0.37580 0.04590 0.03600
H 	H 	0.02250 0.35940 0.92140 0.03200
H 	H 	0.36170 0.78650 0.42310 0.04700
H 	H 	0.45640 0.79270 0.54980 0.00700
H 	H 	0.38600 0.45120 0.43630 0.02200
H 	H 	0.48190 0.46700 0.56160 0.02100
H 	H 	0.61530 0.12420 0.54590 0.04000
H 	H 	0.52250 0.14060 0.42140 0.02500
H 	H 	0.86170 0.71350 0.92310 0.05300
H 	H 	0.95640 0.70730 0.04980 0.00500
H 	H 	0.88600 0.04880 0.93630 0.02700
H 	H 	0.98190 0.03300 0.06160 0.01900
H 	H 	0.38470 0.87580 0.04590 0.03600
H 	H 	0.47750 0.85940 0.92140 0.03200
H 	H 	0.13830 0.28650 0.42310 0.04700
H 	H 	0.04360 0.29270 0.54980 0.00800
H 	H 	0.11400 0.95120 0.43630 0.02000
H 	H 	0.01810 0.96700 0.56160 0.02200
C 	C 	0.95080 0.51610 0.54980 -0.13500
C 	C 	0.93020 0.58570 0.52060 -0.00400
C 	C 	0.98350 0.59520 0.44880 0.01400
C 	C 	0.04460 0.53170 0.42320 -0.15800
C 	C 	0.11070 0.52100 0.35040 0.47000
C 	C 	0.90560 0.48360 0.62310 0.45600
C 	C 	0.59110 0.32720 0.91770 -0.12600
C 	C 	0.60090 0.25520 0.94790 -0.04000
C 	C 	0.54730 0.25190 0.02110 0.05300
C 	C 	0.50140 0.32130 0.04560 -0.16800
C 	C 	0.44430 0.33840 0.12090 0.51400
C 	C 	0.63560 0.35610 0.84330 0.45500
C 	C 	0.52230 0.65190 0.92550 -0.15800
C 	C 	0.55840 0.58450 0.95880 -0.01200
C 	C 	0.50230 0.57510 0.03060 0.02000
C 	C 	0.42190 0.63460 0.05000 -0.14300
C 	C 	0.34450 0.64250 0.12010 0.45800
C 	C 	0.56260 0.67890 0.84990 0.48000
C 	C 	0.04920 0.48390 0.04980 -0.13200
C 	C 	0.06980 0.41430 0.02060 0.01800
C 	C 	0.01650 0.40480 0.94880 -0.01100
C 	C 	0.95540 0.46830 0.92320 -0.14800
C 	C 	0.88930 0.47900 0.85040 0.46500
C 	C 	0.09440 0.51640 0.12310 0.45600
C 	C 	0.40890 0.67280 0.41770 -0.13500
C 	C 	0.39910 0.74480 0.44790 -0.01700
C 	C 	0.45270 0.74810 0.52110 0.03300
C 	C 	0.49860 0.67870 0.54560 -0.17300
C 	C 	0.55570 0.66160 0.62090 0.51300
C 	C 	0.36440 0.64390 0.34330 0.45900
C 	C 	0.47770 0.34810 0.42550 -0.16600
C 	C 	0.44160 0.41550 0.45880 0.01000
C 	C 	0.49770 0.42490 0.53060 0.00000
C 	C 	0.57810 0.36540 0.55000 -0.14800
C 	C 	0.65550 0.35750 0.62010 0.45700
C 	C 	0.43740 0.32110 0.34990 0.48400
C 	C 	0.54920 0.01610 0.54980 -0.13500
C 	C 	0.56980 0.08570 0.52060 -0.00300
C 	C 	0.51650 0.09520 0.44880 0.01300
C 	C 	0.45540 0.03170 0.42320 -0.15700
C 	C 	0.38930 0.02100 0.35040 0.47200
C 	C 	0.59440 0.98360 0.62310 0.45700
C 	C 	0.90890 0.82720 0.91770 -0.12700
C 	C 	0.89910 0.75520 0.94790 -0.03600
C 	C 	0.95270 0.75190 0.02110 0.05000
C 	C 	0.99860 0.82130 0.04560 -0.16600
C 	C 	0.05570 0.83840 0.12090 0.51100
C 	C 	0.86440 0.85610 0.84330 0.45600
C 	C 	0.97770 0.15190 0.92550 -0.16000
C 	C 	0.94160 0.08450 0.95880 -0.01000
C 	C 	0.99770 0.07510 0.03060 0.01400
C 	C 	0.07810 0.13460 0.05000 -0.13800
C 	C 	0.15550 0.14250 0.12010 0.45600
C 	C 	0.93740 0.17890 0.84990 0.48000
C 	C 	0.45080 0.98390 0.04980 -0.13400
C 	C 	0.43020 0.91430 0.02060 0.01700
C 	C 	0.48350 0.90480 0.94880 -0.01000
C 	C 	0.54460 0.96830 0.92320 -0.14800
C 	C 	0.61070 0.97900 0.85040 0.46700
C 	C 	0.40560 0.01640 0.12310 0.46100
C 	C 	0.09110 0.17280 0.41770 -0.13500
C 	C 	0.10090 0.24480 0.44790 -0.01600
C 	C 	0.04730 0.24810 0.52110 0.03200
C 	C 	0.00140 0.17870 0.54560 -0.17100
C 	C 	0.94430 0.16160 0.62090 0.51100
C 	C 	0.13560 0.14390 0.34330 0.45900
C 	C 	0.02230 0.84810 0.42550 -0.17000
C 	C 	0.05840 0.91550 0.45880 0.01300
C 	C 	0.00230 0.92490 0.53060 -0.00700
C 	C 	0.92190 0.86540 0.55000 -0.14300
C 	C 	0.84450 0.85750 0.62010 0.45600
C 	C 	0.06260 0.82110 0.34990 0.48400
S 	S 	0.03820 0.45885 0.48802 0.07200
S 	S 	0.51830 0.38999 0.97846 0.05800
S 	S 	0.41830 0.70328 0.98130 0.06200
S 	S 	0.96180 0.54115 0.98802 0.05800
S 	S 	0.48170 0.61001 0.47846 0.07400
S 	S 	0.58170 0.29672 0.48130 0.07700
S 	S 	0.46180 0.95885 0.48802 0.07200
S 	S 	0.98170 0.88999 0.97846 0.06200
S 	S 	0.08170 0.20328 0.98130 0.06300
S 	S 	0.53820 0.04115 0.98802 0.05800
S 	S 	0.01830 0.11001 0.47846 0.07600
S 	S 	0.91830 0.79672 0.48130 0.07900
O 	O 	0.17530 0.46120 0.33790 -0.46200
O 	O 	0.10710 0.57620 0.30450 -0.58000
O 	O 	0.93200 0.41400 0.63520 -0.51800
O 	O 	0.84860 0.53000 0.66750 -0.50100
O 	O 	0.41080 0.40750 0.13460 -0.50400
O 	O 	0.44610 0.28590 0.16730 -0.57500
O 	O 	0.61570 0.42520 0.82940 -0.52800
O 	O 	0.69120 0.30750 0.79970 -0.48900
O 	O 	0.27730 0.70050 0.13190 -0.47900
O 	O 	0.34800 0.58560 0.16550 -0.56000
O 	O 	0.54540 0.74790 0.83220 -0.50200
O 	O 	0.61550 0.63030 0.80630 -0.53700
O 	O 	0.82470 0.53880 0.83790 -0.46200
O 	O 	0.89290 0.42380 0.80450 -0.57800
O 	O 	0.06800 0.58600 0.13520 -0.51700
O 	O 	0.15140 0.47000 0.16750 -0.50100
O 	O 	0.58920 0.59250 0.63460 -0.50600
O 	O 	0.55390 0.71410 0.66730 -0.57500
O 	O 	0.38430 0.57480 0.32940 -0.52900
O 	O 	0.30880 0.69250 0.29970 -0.49000
O 	O 	0.72270 0.29950 0.63190 -0.48000
O 	O 	0.65200 0.41440 0.66550 -0.56000
O 	O 	0.45460 0.25210 0.33220 -0.50300
O 	O 	0.38450 0.36970 0.30630 -0.53800
O 	O 	0.32470 0.96120 0.33790 -0.46300
O 	O 	0.39290 0.07620 0.30450 -0.57900
O 	O 	0.56800 0.91400 0.63520 -0.51800
O 	O 	0.65140 0.03000 0.66750 -0.50200
O 	O 	0.08920 0.90750 0.13460 -0.50500
O 	O 	0.05390 0.78590 0.16730 -0.57500
O 	O 	0.88430 0.92520 0.82940 -0.52600
O 	O 	0.80880 0.80750 0.79970 -0.48900
O 	O 	0.22270 0.20050 0.13190 -0.47800
O 	O 	0.15200 0.08560 0.16550 -0.55800
O 	O 	0.95460 0.24790 0.83220 -0.50200
O 	O 	0.88450 0.13030 0.80630 -0.53700
O 	O 	0.67530 0.03880 0.83790 -0.46200
O 	O 	0.60710 0.92380 0.80450 -0.57800
O 	O 	0.43200 0.08600 0.13520 -0.51700
O 	O 	0.34860 0.97000 0.16750 -0.50300
O 	O 	0.91080 0.09250 0.63460 -0.50600
O 	O 	0.94610 0.21410 0.66730 -0.57500
O 	O 	0.11570 0.07480 0.32940 -0.52700
O 	O 	0.19120 0.19250 0.29970 -0.49000
O 	O 	0.77730 0.79950 0.63190 -0.48000
O 	O 	0.84800 0.91440 0.66550 -0.55800
O 	O 	0.04540 0.75210 0.33220 -0.50300
O 	O 	0.11550 0.86970 0.30630 -0.53800
