data_crystal

_cell_length_a 9.27700
_cell_length_b 13.61930
_cell_length_c 14.72880
_cell_angle_alpha 90.00000
_cell_angle_beta  90.27400
_cell_angle_gamma 90.00000

_symmetry_space_group_name_	'P 1'
_symmetry_space_group_name_H-M	'P 1'

loop_
_symmetry_equiv_pos_as_xyz
  x,y,z

loop_
_atom_site_label
_atom_site_type_symbol
_atom_site_fract_x
_atom_site_fract_y
_atom_site_fract_z
_atom_site_charge
Pr	Pr	0.25116 0.99685 0.09263 2.07700
C 	C 	0.49350 0.10470 0.33660 -0.02200
C 	C 	0.46740 0.19760 0.37240 -0.01900
H 	H 	0.39700 0.23910 0.34520 0.06000
C 	C 	0.54460 0.22950 0.44790 -0.07600
C 	C 	0.64340 0.16630 0.49000 -0.10400
H 	H 	0.69660 0.18820 0.54140 0.08300
C 	C 	0.66430 0.07220 0.45730 0.15500
C 	C 	0.59180 0.04340 0.37990 -0.12700
H 	H 	0.60940 0.97990 0.35540 0.09500
C 	C 	0.75920 0.00310 0.50980 -0.38300
H 	H 	0.69700 0.97100 0.54900 0.16400
H 	H 	0.82300 0.04000 0.54900 0.15400
C 	C 	0.84380 0.92960 0.45480 0.15700
C 	C 	0.91100 0.95480 0.37390 -0.13300
H 	H 	0.89400 0.01790 0.34850 0.09800
C 	C 	0.00210 0.89020 0.32910 -0.01900
C 	C 	0.02630 0.79670 0.36550 -0.02400
H 	H 	0.09110 0.75280 0.33660 0.06300
C 	C 	0.95480 0.76800 0.44460 -0.06700
C 	C 	0.86460 0.83490 0.48820 -0.10700
H 	H 	0.81620 0.81540 0.54200 0.08500
C 	C 	0.41480 0.06740 0.25420 0.27900
C 	C 	0.52530 0.33190 0.48670 0.45200
C 	C 	0.08060 0.92490 0.24630 0.27900
C 	C 	0.97390 0.66750 0.48510 0.41300
O 	O 	0.47120 0.99750 0.20830 -0.36300
O 	O 	0.29570 0.10490 0.23280 -0.38100
O 	O 	0.41970 0.37990 0.46070 -0.53200
O 	O 	0.61830 0.36150 0.54150 -0.50900
O 	O 	0.02400 0.99110 0.19830 -0.38000
O 	O 	0.20140 0.88710 0.22860 -0.38600
O 	O 	0.06130 0.61020 0.44890 -0.51300
O 	O 	0.90230 0.64600 0.55390 -0.47400
Pr	Pr	0.24884 0.49685 0.40737 2.08000
C 	C 	0.00650 0.60470 0.16340 -0.01300
C 	C 	0.03260 0.69760 0.12760 -0.02300
H 	H 	0.10300 0.73910 0.15480 0.06200
C 	C 	0.95540 0.72950 0.05210 -0.06800
C 	C 	0.85660 0.66630 0.01000 -0.11900
H 	H 	0.80340 0.68820 0.95860 0.09100
C 	C 	0.83570 0.57220 0.04270 0.16000
C 	C 	0.90820 0.54340 0.12010 -0.13900
H 	H 	0.89060 0.47990 0.14460 0.09900
C 	C 	0.74080 0.50310 0.99020 -0.37700
H 	H 	0.80300 0.47100 0.95100 0.16200
H 	H 	0.67700 0.54000 0.95100 0.15300
C 	C 	0.65620 0.42960 0.04520 0.15000
C 	C 	0.58900 0.45480 0.12610 -0.12800
H 	H 	0.60600 0.51790 0.15150 0.09500
C 	C 	0.49790 0.39020 0.17090 -0.02100
C 	C 	0.47370 0.29670 0.13450 -0.02000
H 	H 	0.40890 0.25280 0.16340 0.06200
C 	C 	0.54520 0.26800 0.05540 -0.07200
C 	C 	0.63540 0.33490 0.01180 -0.10000
H 	H 	0.68380 0.31540 0.95800 0.08200
C 	C 	0.08520 0.56740 0.24580 0.27100
C 	C 	0.97470 0.83190 0.01330 0.43400
C 	C 	0.41940 0.42490 0.25370 0.28000
C 	C 	0.52610 0.16750 0.01490 0.42100
O 	O 	0.02880 0.49750 0.29170 -0.35800
O 	O 	0.20430 0.60490 0.26720 -0.38200
O 	O 	0.08030 0.87990 0.03930 -0.52800
O 	O 	0.88170 0.86150 0.95850 -0.49700
O 	O 	0.47600 0.49110 0.30170 -0.37900
O 	O 	0.29860 0.38710 0.27140 -0.38600
O 	O 	0.43870 0.11020 0.05110 -0.51100
O 	O 	0.59770 0.14600 0.94610 -0.47900
Pr	Pr	0.74884 0.00315 0.90737 2.07800
C 	C 	0.50650 0.89530 0.66340 -0.02100
C 	C 	0.53260 0.80240 0.62760 -0.01800
H 	H 	0.60300 0.76090 0.65480 0.06100
C 	C 	0.45540 0.77050 0.55210 -0.07500
C 	C 	0.35660 0.83370 0.51000 -0.10300
H 	H 	0.30340 0.81180 0.45860 0.08300
C 	C 	0.33570 0.92780 0.54270 0.15500
C 	C 	0.40820 0.95660 0.62010 -0.12700
H 	H 	0.39060 0.02010 0.64460 0.09500
C 	C 	0.24080 0.99690 0.49020 -0.38300
H 	H 	0.30300 0.02900 0.45100 0.16400
H 	H 	0.17700 0.96000 0.45100 0.15400
C 	C 	0.15620 0.07040 0.54520 0.15700
C 	C 	0.08900 0.04520 0.62610 -0.13300
H 	H 	0.10600 0.98210 0.65150 0.09800
C 	C 	0.99790 0.10980 0.67090 -0.01900
C 	C 	0.97370 0.20330 0.63450 -0.02400
H 	H 	0.90890 0.24720 0.66340 0.06300
C 	C 	0.04520 0.23200 0.55540 -0.06700
C 	C 	0.13540 0.16510 0.51180 -0.10700
H 	H 	0.18380 0.18460 0.45800 0.08500
C 	C 	0.58520 0.93260 0.74580 0.27900
C 	C 	0.47470 0.66810 0.51330 0.45200
C 	C 	0.91940 0.07510 0.75370 0.27900
C 	C 	0.02610 0.33250 0.51490 0.41300
O 	O 	0.52880 0.00250 0.79170 -0.36300
O 	O 	0.70430 0.89510 0.76720 -0.38100
O 	O 	0.58030 0.62010 0.53930 -0.53200
O 	O 	0.38170 0.63850 0.45850 -0.50900
O 	O 	0.97600 0.00890 0.80170 -0.38000
O 	O 	0.79860 0.11290 0.77140 -0.38600
O 	O 	0.93870 0.38980 0.55110 -0.51300
O 	O 	0.09770 0.35400 0.44610 -0.47400
Pr	Pr	0.75116 0.50315 0.59263 2.08000
C 	C 	0.99350 0.39530 0.83660 -0.01300
C 	C 	0.96740 0.30240 0.87240 -0.02300
H 	H 	0.89700 0.26090 0.84520 0.06200
C 	C 	0.04460 0.27050 0.94790 -0.06800
C 	C 	0.14340 0.33370 0.99000 -0.11900
H 	H 	0.19660 0.31180 0.04140 0.09100
C 	C 	0.16430 0.42780 0.95730 0.16000
C 	C 	0.09180 0.45660 0.87990 -0.13900
H 	H 	0.10940 0.52010 0.85540 0.09900
C 	C 	0.25920 0.49690 0.00980 -0.37700
H 	H 	0.19700 0.52900 0.04900 0.16200
H 	H 	0.32300 0.46000 0.04900 0.15300
C 	C 	0.34380 0.57040 0.95480 0.15000
C 	C 	0.41100 0.54520 0.87390 -0.12800
H 	H 	0.39400 0.48210 0.84850 0.09500
C 	C 	0.50210 0.60980 0.82910 -0.02100
C 	C 	0.52630 0.70330 0.86550 -0.02000
H 	H 	0.59110 0.74720 0.83660 0.06200
C 	C 	0.45480 0.73200 0.94460 -0.07200
C 	C 	0.36460 0.66510 0.98820 -0.10000
H 	H 	0.31620 0.68460 0.04200 0.08200
C 	C 	0.91480 0.43260 0.75420 0.27100
C 	C 	0.02530 0.16810 0.98670 0.43400
C 	C 	0.58060 0.57510 0.74630 0.28000
C 	C 	0.47390 0.83250 0.98510 0.42100
O 	O 	0.97120 0.50250 0.70830 -0.35800
O 	O 	0.79570 0.39510 0.73280 -0.38200
O 	O 	0.91970 0.12010 0.96070 -0.52800
O 	O 	0.11830 0.13850 0.04150 -0.49700
O 	O 	0.52400 0.50890 0.69830 -0.37900
O 	O 	0.70140 0.61290 0.72860 -0.38600
O 	O 	0.56130 0.88980 0.94890 -0.51100
O 	O 	0.40230 0.85400 0.05390 -0.47900
