data_crystal

_cell_length_a 15.69580
_cell_length_b 10.69840
_cell_length_c 23.26440
_cell_angle_alpha 90.00000
_cell_angle_beta  90.00000
_cell_angle_gamma 90.00000

_symmetry_space_group_name_	'P 1'
_symmetry_space_group_name_H-M	'P 1'

loop_
_symmetry_equiv_pos_as_xyz
  x,y,z

loop_
_atom_site_label
_atom_site_type_symbol
_atom_site_fract_x
_atom_site_fract_y
_atom_site_fract_z
_atom_site_charge
Tm	Tm	0.54784 0.03063 0.08413 1.56600
C 	C 	0.40597 0.25010 0.20308 -0.02800
C 	C 	0.38275 0.20290 0.25600 -0.02400
H 	H 	0.40030 0.12140 0.26700 0.05000
C 	C 	0.33362 0.27490 0.29325 -0.04900
C 	C 	0.30754 0.39290 0.27620 -0.09000
H 	H 	0.27150 0.44020 0.30080 0.07800
C 	C 	0.33299 0.44380 0.22371 0.11000
C 	C 	0.38220 0.37130 0.18731 -0.09900
H 	H 	0.40000 0.40410 0.15130 0.09100
C 	C 	0.30960 0.57790 0.20910 -0.25500
H 	H 	0.25340 0.59650 0.22650 0.10900
H 	H 	0.35180 0.63390 0.22740 0.10700
C 	C 	0.30529 0.60980 0.14590 0.09700
C 	C 	0.23550 0.57290 0.11281 -0.07300
H 	H 	0.19080 0.52640 0.13020 0.07000
C 	C 	0.23047 0.60310 0.05457 -0.05900
C 	C 	0.29650 0.67130 0.02919 0.00900
H 	H 	0.29450 0.68990 0.98930 0.07300
C 	C 	0.36495 0.71170 0.06201 -0.06300
C 	C 	0.36922 0.68060 0.12003 -0.07200
H 	H 	0.41640 0.70790 0.14230 0.06500
C 	C 	0.45715 0.17420 0.16140 0.28300
C 	C 	0.30770 0.22190 0.35073 0.33500
C 	C 	0.15502 0.56670 0.01886 0.36700
C 	C 	0.43058 0.79530 0.03476 0.38000
O 	O 	0.49112 0.22620 0.11940 -0.33500
O 	O 	0.46495 0.05630 0.16900 -0.37500
O 	O 	0.65783 0.12270 0.13257 -0.39500
O 	O 	0.25138 0.27700 0.37920 -0.24400
O 	O 	0.41593 0.05420 0.04274 -0.43700
O 	O 	0.66683 0.94860 0.03448 -0.37000
O 	O 	0.57971 0.17900 0.01735 -0.40300
O 	O 	0.49058 0.83430 0.06598 -0.41700
Tm	Tm	0.95216 0.46937 0.58413 1.56700
C 	C 	0.09403 0.24990 0.70308 -0.02700
C 	C 	0.11725 0.29710 0.75600 -0.02500
H 	H 	0.09970 0.37860 0.76700 0.05000
C 	C 	0.16638 0.22510 0.79325 -0.04900
C 	C 	0.19246 0.10710 0.77620 -0.09200
H 	H 	0.22850 0.05980 0.80080 0.07800
C 	C 	0.16701 0.05620 0.72371 0.11200
C 	C 	0.11780 0.12870 0.68731 -0.10000
H 	H 	0.10000 0.09590 0.65130 0.09100
C 	C 	0.19040 0.92210 0.70910 -0.25800
H 	H 	0.24660 0.90350 0.72650 0.10900
H 	H 	0.14820 0.86610 0.72740 0.10700
C 	C 	0.19471 0.89020 0.64590 0.09900
C 	C 	0.26450 0.92710 0.61281 -0.07500
H 	H 	0.30920 0.97360 0.63020 0.07000
C 	C 	0.26953 0.89690 0.55457 -0.05600
C 	C 	0.20350 0.82870 0.52919 0.00500
H 	H 	0.20550 0.81010 0.48930 0.07600
C 	C 	0.13505 0.78830 0.56201 -0.06100
C 	C 	0.13078 0.81940 0.62003 -0.07400
H 	H 	0.08360 0.79210 0.64230 0.06600
C 	C 	0.04285 0.32580 0.66140 0.28300
C 	C 	0.19230 0.27810 0.85073 0.33500
C 	C 	0.34498 0.93330 0.51886 0.36400
C 	C 	0.06942 0.70470 0.53476 0.37800
O 	O 	0.00888 0.27380 0.61940 -0.33500
O 	O 	0.03505 0.44370 0.66900 -0.37500
O 	O 	0.84217 0.37730 0.63257 -0.39400
O 	O 	0.24862 0.22300 0.87920 -0.24400
O 	O 	0.08407 0.44580 0.54274 -0.43700
O 	O 	0.83317 0.55140 0.53448 -0.37200
O 	O 	0.92029 0.32100 0.51735 -0.40100
O 	O 	0.00942 0.66570 0.56598 -0.41700
Tm	Tm	0.45216 0.03063 0.41587 1.56600
C 	C 	0.59403 0.25010 0.29692 -0.02800
C 	C 	0.61725 0.20290 0.24400 -0.02400
H 	H 	0.59970 0.12140 0.23300 0.05000
C 	C 	0.66638 0.27490 0.20675 -0.04900
C 	C 	0.69246 0.39290 0.22380 -0.09100
H 	H 	0.72850 0.44020 0.19920 0.07800
C 	C 	0.66701 0.44380 0.27629 0.11000
C 	C 	0.61780 0.37130 0.31269 -0.09900
H 	H 	0.60000 0.40410 0.34870 0.09100
C 	C 	0.69040 0.57790 0.29090 -0.25600
H 	H 	0.74660 0.59650 0.27350 0.10900
H 	H 	0.64820 0.63390 0.27260 0.10700
C 	C 	0.69471 0.60980 0.35410 0.09800
C 	C 	0.76450 0.57290 0.38719 -0.07400
H 	H 	0.80920 0.52640 0.36980 0.07000
C 	C 	0.76953 0.60310 0.44543 -0.05700
C 	C 	0.70350 0.67130 0.47081 0.00500
H 	H 	0.70550 0.68990 0.51070 0.07500
C 	C 	0.63505 0.71170 0.43799 -0.06100
C 	C 	0.63078 0.68060 0.37997 -0.07300
H 	H 	0.58360 0.70790 0.35770 0.06600
C 	C 	0.54285 0.17420 0.33860 0.28300
C 	C 	0.69230 0.22190 0.14927 0.33600
C 	C 	0.84498 0.56670 0.48114 0.36500
C 	C 	0.56942 0.79530 0.46524 0.37800
O 	O 	0.50888 0.22620 0.38060 -0.33400
O 	O 	0.53505 0.05630 0.33100 -0.37500
O 	O 	0.34217 0.12270 0.36743 -0.39400
O 	O 	0.74862 0.27700 0.12080 -0.24400
O 	O 	0.58407 0.05420 0.45726 -0.43700
O 	O 	0.33317 0.94860 0.46552 -0.37200
O 	O 	0.42029 0.17900 0.48265 -0.40100
O 	O 	0.50942 0.83430 0.43402 -0.41700
Tm	Tm	0.04784 0.46937 0.91587 1.56600
C 	C 	0.90597 0.24990 0.79692 -0.02700
C 	C 	0.88275 0.29710 0.74400 -0.02500
H 	H 	0.90030 0.37860 0.73300 0.05100
C 	C 	0.83362 0.22510 0.70675 -0.04800
C 	C 	0.80754 0.10710 0.72380 -0.09200
H 	H 	0.77150 0.05980 0.69920 0.07900
C 	C 	0.83299 0.05620 0.77629 0.11300
C 	C 	0.88220 0.12870 0.81269 -0.10000
H 	H 	0.90000 0.09590 0.84870 0.09200
C 	C 	0.80960 0.92210 0.79090 -0.25900
H 	H 	0.75340 0.90350 0.77350 0.11000
H 	H 	0.85180 0.86610 0.77260 0.10800
C 	C 	0.80529 0.89020 0.85410 0.09900
C 	C 	0.73550 0.92710 0.88719 -0.07600
H 	H 	0.69080 0.97360 0.86980 0.07100
C 	C 	0.73047 0.89690 0.94543 -0.05500
C 	C 	0.79650 0.82870 0.97081 0.00300
H 	H 	0.79450 0.81010 0.01070 0.07600
C 	C 	0.86495 0.78830 0.93799 -0.06100
C 	C 	0.86922 0.81940 0.87997 -0.07500
H 	H 	0.91640 0.79210 0.85770 0.06600
C 	C 	0.95715 0.32580 0.83860 0.28200
C 	C 	0.80770 0.27810 0.64927 0.33500
C 	C 	0.65502 0.93330 0.98114 0.36200
C 	C 	0.93058 0.70470 0.96524 0.37800
O 	O 	0.99112 0.27380 0.88060 -0.33400
O 	O 	0.96495 0.44370 0.83100 -0.37400
O 	O 	0.15783 0.37730 0.86743 -0.39400
O 	O 	0.75138 0.22300 0.62080 -0.24400
O 	O 	0.91593 0.44580 0.95726 -0.43700
O 	O 	0.16683 0.55140 0.96552 -0.37300
O 	O 	0.07971 0.32100 0.98265 -0.40100
O 	O 	0.99058 0.66570 0.93402 -0.41700
Tm	Tm	0.45216 0.96937 0.91587 1.56600
C 	C 	0.59403 0.74990 0.79692 -0.02800
C 	C 	0.61725 0.79710 0.74400 -0.02400
H 	H 	0.59970 0.87860 0.73300 0.05000
C 	C 	0.66638 0.72510 0.70675 -0.04900
C 	C 	0.69246 0.60710 0.72380 -0.09000
H 	H 	0.72850 0.55980 0.69920 0.07800
C 	C 	0.66701 0.55620 0.77629 0.11000
C 	C 	0.61780 0.62870 0.81269 -0.09900
H 	H 	0.60000 0.59590 0.84870 0.09100
C 	C 	0.69040 0.42210 0.79090 -0.25500
H 	H 	0.74660 0.40350 0.77350 0.10900
H 	H 	0.64820 0.36610 0.77260 0.10700
C 	C 	0.69471 0.39020 0.85410 0.09700
C 	C 	0.76450 0.42710 0.88719 -0.07300
H 	H 	0.80920 0.47360 0.86980 0.07000
C 	C 	0.76953 0.39690 0.94543 -0.05900
C 	C 	0.70350 0.32870 0.97081 0.00900
H 	H 	0.70550 0.31010 0.01070 0.07300
C 	C 	0.63505 0.28830 0.93799 -0.06300
C 	C 	0.63078 0.31940 0.87997 -0.07200
H 	H 	0.58360 0.29210 0.85770 0.06500
C 	C 	0.54285 0.82580 0.83860 0.28300
C 	C 	0.69230 0.77810 0.64927 0.33500
C 	C 	0.84498 0.43330 0.98114 0.36700
C 	C 	0.56942 0.20470 0.96524 0.38000
O 	O 	0.50888 0.77380 0.88060 -0.33500
O 	O 	0.53505 0.94370 0.83100 -0.37500
O 	O 	0.34217 0.87730 0.86743 -0.39500
O 	O 	0.74862 0.72300 0.62080 -0.24400
O 	O 	0.58407 0.94580 0.95726 -0.43700
O 	O 	0.33317 0.05140 0.96552 -0.37000
O 	O 	0.42029 0.82100 0.98265 -0.40300
O 	O 	0.50942 0.16570 0.93402 -0.41700
Tm	Tm	0.04784 0.53063 0.41587 1.56700
C 	C 	0.90597 0.75010 0.29692 -0.02700
C 	C 	0.88275 0.70290 0.24400 -0.02500
H 	H 	0.90030 0.62140 0.23300 0.05000
C 	C 	0.83362 0.77490 0.20675 -0.04900
C 	C 	0.80754 0.89290 0.22380 -0.09200
H 	H 	0.77150 0.94020 0.19920 0.07800
C 	C 	0.83299 0.94380 0.27629 0.11200
C 	C 	0.88220 0.87130 0.31269 -0.10000
H 	H 	0.90000 0.90410 0.34870 0.09100
C 	C 	0.80960 0.07790 0.29090 -0.25800
H 	H 	0.75340 0.09650 0.27350 0.10900
H 	H 	0.85180 0.13390 0.27260 0.10700
C 	C 	0.80529 0.10980 0.35410 0.09900
C 	C 	0.73550 0.07290 0.38719 -0.07500
H 	H 	0.69080 0.02640 0.36980 0.07000
C 	C 	0.73047 0.10310 0.44543 -0.05600
C 	C 	0.79650 0.17130 0.47081 0.00500
H 	H 	0.79450 0.18990 0.51070 0.07600
C 	C 	0.86495 0.21170 0.43799 -0.06100
C 	C 	0.86922 0.18060 0.37997 -0.07400
H 	H 	0.91640 0.20790 0.35770 0.06600
C 	C 	0.95715 0.67420 0.33860 0.28300
C 	C 	0.80770 0.72190 0.14927 0.33500
C 	C 	0.65502 0.06670 0.48114 0.36400
C 	C 	0.93058 0.29530 0.46524 0.37800
O 	O 	0.99112 0.72620 0.38060 -0.33500
O 	O 	0.96495 0.55630 0.33100 -0.37500
O 	O 	0.15783 0.62270 0.36743 -0.39400
O 	O 	0.75138 0.77700 0.12080 -0.24400
O 	O 	0.91593 0.55420 0.45726 -0.43700
O 	O 	0.16683 0.44860 0.46552 -0.37200
O 	O 	0.07971 0.67900 0.48265 -0.40100
O 	O 	0.99058 0.33430 0.43402 -0.41700
Tm	Tm	0.54784 0.96937 0.58413 1.56600
C 	C 	0.40597 0.74990 0.70308 -0.02800
C 	C 	0.38275 0.79710 0.75600 -0.02400
H 	H 	0.40030 0.87860 0.76700 0.05000
C 	C 	0.33362 0.72510 0.79325 -0.04900
C 	C 	0.30754 0.60710 0.77620 -0.09100
H 	H 	0.27150 0.55980 0.80080 0.07800
C 	C 	0.33299 0.55620 0.72371 0.11000
C 	C 	0.38220 0.62870 0.68731 -0.09900
H 	H 	0.40000 0.59590 0.65130 0.09100
C 	C 	0.30960 0.42210 0.70910 -0.25600
H 	H 	0.25340 0.40350 0.72650 0.10900
H 	H 	0.35180 0.36610 0.72740 0.10700
C 	C 	0.30529 0.39020 0.64590 0.09800
C 	C 	0.23550 0.42710 0.61281 -0.07400
H 	H 	0.19080 0.47360 0.63020 0.07000
C 	C 	0.23047 0.39690 0.55457 -0.05700
C 	C 	0.29650 0.32870 0.52919 0.00500
H 	H 	0.29450 0.31010 0.48930 0.07500
C 	C 	0.36495 0.28830 0.56201 -0.06100
C 	C 	0.36922 0.31940 0.62003 -0.07300
H 	H 	0.41640 0.29210 0.64230 0.06600
C 	C 	0.45715 0.82580 0.66140 0.28300
C 	C 	0.30770 0.77810 0.85073 0.33600
C 	C 	0.15502 0.43330 0.51886 0.36500
C 	C 	0.43058 0.20470 0.53476 0.37800
O 	O 	0.49112 0.77380 0.61940 -0.33400
O 	O 	0.46495 0.94370 0.66900 -0.37500
O 	O 	0.65783 0.87730 0.63257 -0.39400
O 	O 	0.25138 0.72300 0.87920 -0.24400
O 	O 	0.41593 0.94580 0.54274 -0.43700
O 	O 	0.66683 0.05140 0.53448 -0.37200
O 	O 	0.57971 0.82100 0.51735 -0.40100
O 	O 	0.49058 0.16570 0.56598 -0.41700
Tm	Tm	0.95216 0.53063 0.08413 1.56600
C 	C 	0.09403 0.75010 0.20308 -0.02700
C 	C 	0.11725 0.70290 0.25600 -0.02500
H 	H 	0.09970 0.62140 0.26700 0.05100
C 	C 	0.16638 0.77490 0.29325 -0.04800
C 	C 	0.19246 0.89290 0.27620 -0.09200
H 	H 	0.22850 0.94020 0.30080 0.07900
C 	C 	0.16701 0.94380 0.22371 0.11300
C 	C 	0.11780 0.87130 0.18731 -0.10000
H 	H 	0.10000 0.90410 0.15130 0.09200
C 	C 	0.19040 0.07790 0.20910 -0.25900
H 	H 	0.24660 0.09650 0.22650 0.11000
H 	H 	0.14820 0.13390 0.22740 0.10800
C 	C 	0.19471 0.10980 0.14590 0.09900
C 	C 	0.26450 0.07290 0.11281 -0.07600
H 	H 	0.30920 0.02640 0.13020 0.07100
C 	C 	0.26953 0.10310 0.05457 -0.05500
C 	C 	0.20350 0.17130 0.02919 0.00300
H 	H 	0.20550 0.18990 0.98930 0.07600
C 	C 	0.13505 0.21170 0.06201 -0.06100
C 	C 	0.13078 0.18060 0.12003 -0.07500
H 	H 	0.08360 0.20790 0.14230 0.06600
C 	C 	0.04285 0.67420 0.16140 0.28200
C 	C 	0.19230 0.72190 0.35073 0.33500
C 	C 	0.34498 0.06670 0.01886 0.36200
C 	C 	0.06942 0.29530 0.03476 0.37800
O 	O 	0.00888 0.72620 0.11940 -0.33400
O 	O 	0.03505 0.55630 0.16900 -0.37400
O 	O 	0.84217 0.62270 0.13257 -0.39400
O 	O 	0.24862 0.77700 0.37920 -0.24400
O 	O 	0.08407 0.55420 0.04274 -0.43700
O 	O 	0.83317 0.44860 0.03448 -0.37300
O 	O 	0.92029 0.67900 0.01735 -0.40100
O 	O 	0.00942 0.33430 0.06598 -0.41700
