data_crystal

_cell_length_a 6.81520
_cell_length_b 45.46150
_cell_length_c 45.46150
_cell_angle_alpha 60.24750
_cell_angle_beta  87.13570
_cell_angle_gamma 92.86430

_symmetry_space_group_name_	'P 1'
_symmetry_space_group_name_H-M	'P 1'

loop_
_symmetry_equiv_pos_as_xyz
  x,y,z

loop_
_atom_site_label
_atom_site_type_symbol
_atom_site_fract_x
_atom_site_fract_y
_atom_site_fract_z
_atom_site_charge
Zn	Zn	0.05571 0.36019 0.32532 1.24700
Zn	Zn	0.98906 0.64156 0.66900 1.24600
Zn	Zn	0.38103 0.32532 0.31449 1.25100
Zn	Zn	0.65806 0.66900 0.68944 1.25100
Zn	Zn	0.69552 0.31449 0.36019 1.25100
Zn	Zn	0.34750 0.68944 0.64156 1.25100
H 	H 	0.94364 0.50567 0.50029 0.06600
H 	H 	0.13760 0.50019 0.52661 0.06500
H 	H 	0.11715 0.54054 0.49028 0.07200
H 	H 	0.59270 0.45284 0.42751 0.07300
H 	H 	0.55767 0.49254 0.39104 0.06700
H 	H 	0.75946 0.48898 0.41562 0.06900
H 	H 	0.16615 0.38322 0.49247 0.06100
H 	H 	0.20353 0.41995 0.49569 0.06800
H 	H 	0.95676 0.40164 0.50018 0.06400
H 	H 	0.87132 0.48537 0.33812 0.07000
H 	H 	0.11375 0.50602 0.33099 0.06400
H 	H 	0.08517 0.46679 0.33187 0.06600
H 	H 	0.71065 0.51342 0.44855 0.03800
H 	H 	0.94437 0.57915 0.48299 0.03700
H 	H 	0.21824 0.50283 0.37994 0.04600
H 	H 	0.90849 0.38730 0.44999 0.03900
H 	H 	0.49799 0.59272 0.57879 0.06600
H 	H 	0.70022 0.61041 0.60917 -0.00300
H 	H 	0.00598 0.63684 0.59780 0.10400
H 	H 	0.04551 0.38102 0.38782 0.08600
H 	H 	0.36874 0.41432 0.36211 0.00000
H 	H 	0.58069 0.44202 0.38285 0.06400
H 	H 	0.17084 0.63282 0.53369 0.04100
H 	H 	0.73894 0.52819 0.59175 0.04400
H 	H 	0.99599 0.47829 0.47009 0.04300
H 	H 	0.33148 0.50636 0.53299 0.04100
H 	H 	0.82856 0.56496 0.64184 0.06600
H 	H 	0.73978 0.52765 0.64254 0.06200
H 	H 	0.98825 0.53201 0.65047 0.05700
H 	H 	0.06331 0.61472 0.47659 0.07300
H 	H 	0.81965 0.62635 0.48063 0.07000
H 	H 	0.02846 0.64967 0.48241 0.07400
H 	H 	0.29131 0.53267 0.56911 0.07100
H 	H 	0.47109 0.50333 0.59092 0.06300
H 	H 	0.50671 0.54645 0.58058 0.07000
H 	H 	0.84883 0.53996 0.44035 0.06200
H 	H 	0.67559 0.57191 0.42259 0.06500
H 	H 	0.91406 0.58159 0.43170 0.06000
H 	H 	0.44393 0.50029 0.99404 0.07000
H 	H 	0.66421 0.52661 0.97320 0.06400
H 	H 	0.60743 0.49028 0.96918 0.07200
H 	H 	0.02021 0.42751 0.11965 0.07000
H 	H 	0.94871 0.39104 0.11642 0.06600
H 	H 	0.17508 0.41562 0.09540 0.06700
H 	H 	0.65862 0.49247 0.12431 0.06200
H 	H 	0.69922 0.49569 0.08436 0.06800
H 	H 	0.45694 0.50018 0.09818 0.06100
H 	H 	0.20944 0.33812 0.17651 0.06400
H 	H 	0.44474 0.33099 0.16299 0.06300
H 	H 	0.41704 0.33187 0.20134 0.06700
H 	H 	0.15920 0.44855 0.03803 0.03400
H 	H 	0.42736 0.48299 0.93786 0.03700
H 	H 	0.59818 0.37994 0.11723 0.04600
H 	H 	0.35848 0.44999 0.16271 0.03700
H 	H 	0.07678 0.57879 0.82849 0.06000
H 	H 	0.30939 0.60917 0.78042 0.00600
H 	H 	0.60378 0.59780 0.76536 0.09200
H 	H 	0.43333 0.38782 0.23116 0.09800
H 	H 	0.73085 0.36211 0.22357 -0.00200
H 	H 	0.96354 0.38285 0.17513 0.07600
H 	H 	0.70453 0.53369 0.83349 0.04000
H 	H 	0.33069 0.59175 0.88006 0.04600
H 	H 	0.46608 0.47009 0.05162 0.04500
H 	H 	0.86447 0.53299 0.96065 0.04800
H 	H 	0.47040 0.64184 0.79320 0.07000
H 	H 	0.38232 0.64254 0.82981 0.06500
H 	H 	0.63872 0.65047 0.81752 0.06100
H 	H 	0.53990 0.47659 0.90869 0.06000
H 	H 	0.30028 0.48063 0.89302 0.06700
H 	H 	0.51087 0.48241 0.86792 0.06200
H 	H 	0.86042 0.56911 0.89822 0.06000
H 	H 	0.06201 0.59092 0.90575 0.06300
H 	H 	0.08729 0.58058 0.87297 0.07000
H 	H 	0.28918 0.44035 0.01969 0.06000
H 	H 	0.09818 0.42259 0.00550 0.06400
H 	H 	0.34576 0.43170 0.98671 0.06000
H 	H 	0.43797 0.99404 0.50567 0.06900
H 	H 	0.63741 0.97320 0.50019 0.06400
H 	H 	0.57661 0.96918 0.54054 0.07100
H 	H 	0.13986 0.11965 0.45284 0.07200
H 	H 	0.06513 0.11642 0.49254 0.06600
H 	H 	0.27048 0.09540 0.48898 0.06900
H 	H 	0.78293 0.12431 0.38322 0.06300
H 	H 	0.78358 0.08436 0.41995 0.06800
H 	H 	0.55512 0.09818 0.40164 0.06100
H 	H 	0.38595 0.17651 0.48537 0.06400
H 	H 	0.60773 0.16299 0.50602 0.06400
H 	H 	0.61838 0.20134 0.46679 0.06800
H 	H 	0.19723 0.03803 0.51342 0.03800
H 	H 	0.36522 0.93786 0.57915 0.03800
H 	H 	0.71541 0.11723 0.50283 0.04700
H 	H 	0.52119 0.16271 0.38730 0.03800
H 	H 	0.90527 0.82849 0.59272 0.05900
H 	H 	0.08981 0.78042 0.61041 0.01700
H 	H 	0.36914 0.76536 0.63684 0.09700
H 	H 	0.66449 0.23116 0.38102 0.09800
H 	H 	0.95442 0.22357 0.41432 0.01300
H 	H 	0.13867 0.17513 0.44202 0.06100
H 	H 	0.53802 0.83349 0.63282 0.04100
H 	H 	0.21075 0.88006 0.52819 0.04900
H 	H 	0.51770 0.05162 0.47829 0.04300
H 	H 	0.82512 0.96065 0.50636 0.04600
H 	H 	0.26360 0.79320 0.56496 0.07300
H 	H 	0.21213 0.82981 0.52765 0.06700
H 	H 	0.45624 0.81752 0.53201 0.06400
H 	H 	0.44859 0.90869 0.61472 0.06100
H 	H 	0.19330 0.89302 0.62635 0.06800
H 	H 	0.37879 0.86792 0.64967 0.06300
H 	H 	0.75864 0.89822 0.53267 0.07100
H 	H 	0.96776 0.90575 0.50333 0.06300
H 	H 	0.96026 0.87297 0.54645 0.06900
H 	H 	0.30887 0.01969 0.53996 0.06100
H 	H 	0.10368 0.00550 0.57191 0.06400
H 	H 	0.33247 0.98671 0.58159 0.06100
C 	C 	0.10067 0.51316 0.50034 -0.19300
C 	C 	0.60296 0.48031 0.41685 -0.20100
C 	C 	0.10457 0.40714 0.48651 -0.19300
C 	C 	0.02799 0.48127 0.34320 -0.21600
C 	C 	0.55414 0.50616 0.45284 -0.07500
C 	C 	0.43785 0.51406 0.47337 -0.01200
C 	C 	0.23338 0.50429 0.47944 0.05000
C 	C 	0.80516 0.56471 0.49324 -0.07700
C 	C 	0.47165 0.48881 0.43813 0.05300
C 	C 	0.26795 0.47885 0.44437 -0.01800
C 	C 	0.04505 0.46239 0.38027 0.07100
C 	C 	0.15271 0.47743 0.39510 -0.09500
C 	C 	0.17159 0.46046 0.42958 -0.00000
C 	C 	0.08573 0.42736 0.44952 0.03300
C 	C 	0.97759 0.41246 0.43465 -0.04600
C 	C 	0.95386 0.42981 0.40040 -0.06100
C 	C 	0.54951 0.61687 0.60705 0.12600
C 	C 	0.43197 0.60581 0.59017 -0.15700
C 	C 	0.23209 0.61127 0.58819 0.11000
C 	C 	0.15657 0.63055 0.60102 -0.21500
C 	C 	0.78020 0.37226 0.36901 0.25900
C 	C 	0.58229 0.38077 0.36222 -0.30200
C 	C 	0.44312 0.36595 0.34812 0.48500
C 	C 	0.60832 0.64346 0.64144 0.48600
C 	C 	0.47418 0.63508 0.62148 -0.30500
C 	C 	0.27281 0.64237 0.61770 0.26600
C 	C 	0.89845 0.38846 0.38149 -0.20300
C 	C 	0.82872 0.41361 0.38648 0.11700
C 	C 	0.63719 0.42254 0.37924 -0.16000
C 	C 	0.51578 0.40634 0.36745 0.12400
C 	C 	0.05866 0.59145 0.58175 -0.03700
C 	C 	0.07364 0.61026 0.54641 -0.05500
C 	C 	0.96278 0.60076 0.52719 0.03800
C 	C 	0.84343 0.57034 0.54366 -0.00600
C 	C 	0.83100 0.55137 0.57899 -0.08900
C 	C 	0.92601 0.56270 0.59815 0.05300
C 	C 	0.72826 0.55787 0.52486 -0.01600
C 	C 	0.55079 0.53740 0.53877 0.05600
C 	C 	0.15142 0.48653 0.46504 -0.07600
C 	C 	0.70878 0.55218 0.47513 0.04700
C 	C 	0.53642 0.53076 0.48971 -0.01000
C 	C 	0.46142 0.52337 0.52147 -0.07800
C 	C 	0.86834 0.54584 0.63529 -0.20100
C 	C 	0.96885 0.62407 0.48960 -0.21700
C 	C 	0.45084 0.52963 0.57174 -0.20200
C 	C 	0.79155 0.56191 0.44052 -0.19300
C 	C 	0.60101 0.50034 0.98650 -0.20200
C 	C 	0.01981 0.41685 0.10284 -0.19900
C 	C 	0.59108 0.48651 0.10635 -0.19000
C 	C 	0.37119 0.34320 0.17553 -0.21000
C 	C 	0.00698 0.45284 0.04100 -0.05900
C 	C 	0.91122 0.47337 0.01257 -0.03600
C 	C 	0.71282 0.47944 0.01627 0.06000
C 	C 	0.29840 0.49324 0.94205 -0.06600
C 	C 	0.90978 0.43813 0.07306 0.04400
C 	C 	0.71232 0.44437 0.07678 -0.01200
C 	C 	0.42532 0.38027 0.15734 0.08000
C 	C 	0.54781 0.39510 0.12747 -0.09600
C 	C 	0.60117 0.42958 0.10996 -0.00100
C 	C 	0.53525 0.44952 0.12312 0.03900
C 	C 	0.41224 0.43465 0.15289 -0.04800
C 	C 	0.35426 0.40040 0.16979 -0.07500
C 	C 	0.15656 0.60705 0.77608 0.10300
C 	C 	0.02214 0.59017 0.80402 -0.12100
C 	C 	0.82028 0.58819 0.80054 0.07900
C 	C 	0.75759 0.60102 0.76843 -0.19800
C 	C 	0.14921 0.36901 0.25873 0.25600
C 	C 	0.94451 0.36222 0.25701 -0.29700
C 	C 	0.79124 0.34812 0.28593 0.48400
C 	C 	0.24976 0.64144 0.71510 0.47500
C 	C 	0.09566 0.62148 0.74344 -0.26800
C 	C 	0.89051 0.61770 0.73993 0.23000
C 	C 	0.27994 0.38149 0.23005 -0.22400
C 	C 	0.21520 0.38648 0.19991 0.13200
C 	C 	0.01643 0.37924 0.19822 -0.18800
C 	C 	0.88323 0.36745 0.22621 0.14000
C 	C 	0.64041 0.58175 0.82680 -0.04800
C 	C 	0.62005 0.54641 0.84333 -0.06300
C 	C 	0.48997 0.52719 0.87205 0.04200
C 	C 	0.38709 0.54366 0.88600 0.00000
C 	C 	0.40999 0.57899 0.86964 -0.09400
C 	C 	0.52416 0.59815 0.83915 0.06900
C 	C 	0.25312 0.52486 0.91727 -0.02500
C 	C 	0.08956 0.53877 0.92383 0.07500
C 	C 	0.61646 0.46504 0.04843 -0.08300
C 	C 	0.18391 0.47513 0.97269 0.03400
C 	C 	0.02613 0.48971 0.97953 0.02100
C 	C 	0.98289 0.52147 0.95516 -0.11100
C 	C 	0.50363 0.63529 0.81887 -0.20800
C 	C 	0.45845 0.48960 0.88633 -0.19200
C 	C 	0.02258 0.57174 0.89863 -0.19300
C 	C 	0.23207 0.44052 0.99757 -0.18500
C 	C 	0.58751 0.98650 0.51316 -0.19800
C 	C 	0.12265 0.10284 0.48031 -0.20600
C 	C 	0.69743 0.10635 0.40714 -0.19100
C 	C 	0.54672 0.17553 0.48127 -0.21000
C 	C 	0.04798 0.04100 0.50616 -0.07700
C 	C 	0.92379 0.01257 0.51406 -0.01800
C 	C 	0.72909 0.01627 0.50429 0.05200
C 	C 	0.24045 0.94205 0.56471 -0.06900
C 	C 	0.98284 0.07306 0.48881 0.05900
C 	C 	0.78910 0.07678 0.47885 -0.01800
C 	C 	0.58266 0.15734 0.46239 0.07900
C 	C 	0.67528 0.12747 0.47743 -0.09600
C 	C 	0.71113 0.10996 0.46046 0.00100
C 	C 	0.65837 0.12312 0.42736 0.03900
C 	C 	0.56513 0.15289 0.41246 -0.05000
C 	C 	0.52405 0.16979 0.42981 -0.07000
C 	C 	0.93264 0.77608 0.61687 0.09400
C 	C 	0.82616 0.80402 0.60581 -0.14700
C 	C 	0.62082 0.80054 0.61127 0.10700
C 	C 	0.52602 0.76843 0.63055 -0.21300
C 	C 	0.40794 0.25873 0.37226 0.26100
C 	C 	0.20152 0.25701 0.38077 -0.29500
C 	C 	0.07717 0.28593 0.36595 0.46600
C 	C 	0.96486 0.71510 0.64346 0.45600
C 	C 	0.83910 0.74344 0.63508 -0.29000
C 	C 	0.63044 0.73993 0.64237 0.25700
C 	C 	0.50999 0.23005 0.38846 -0.21900
C 	C 	0.41511 0.19991 0.41361 0.12100
C 	C 	0.21465 0.19822 0.42254 -0.15700
C 	C 	0.10944 0.22621 0.40634 0.10600
C 	C 	0.46721 0.82680 0.59145 -0.05500
C 	C 	0.46338 0.84333 0.61026 -0.05900
C 	C 	0.36202 0.87205 0.60076 0.04100
C 	C 	0.27309 0.88600 0.57034 0.00300
C 	C 	0.27963 0.86964 0.55137 -0.09600
C 	C 	0.36331 0.83915 0.56270 0.07600
C 	C 	0.17039 0.91727 0.55787 -0.02500
C 	C 	0.01339 0.92383 0.53740 0.07900
C 	C 	0.66489 0.04843 0.48653 -0.07700
C 	C 	0.15660 0.97269 0.55218 0.04000
C 	C 	0.00566 0.97953 0.53076 0.00600
C 	C 	0.93805 0.95516 0.52337 -0.10000
C 	C 	0.32250 0.81887 0.54584 -0.21100
C 	C 	0.34478 0.88633 0.62407 -0.19100
C 	C 	0.92121 0.89863 0.52963 -0.21700
C 	C 	0.22964 0.99757 0.56191 -0.18800
O 	O 	0.86414 0.34711 0.36558 -0.54800
O 	O 	0.49540 0.34422 0.34070 -0.66100
O 	O 	0.26874 0.37550 0.34354 -0.49100
O 	O 	0.78184 0.63356 0.64465 -0.49600
O 	O 	0.55251 0.66005 0.65512 -0.66100
O 	O 	0.18341 0.66263 0.62800 -0.54800
O 	O 	0.22972 0.36558 0.28731 -0.55500
O 	O 	0.83610 0.34070 0.31508 -0.65600
O 	O 	0.61228 0.34354 0.28096 -0.48800
O 	O 	0.42649 0.64465 0.72179 -0.48700
O 	O 	0.20763 0.65512 0.68483 -0.65000
O 	O 	0.81141 0.62800 0.70937 -0.55100
O 	O 	0.51703 0.28731 0.34711 -0.55400
O 	O 	0.15118 0.31508 0.34422 -0.66000
O 	O 	0.89324 0.28096 0.37550 -0.47500
O 	O 	0.14828 0.72179 0.63356 -0.47200
O 	O 	0.89246 0.68483 0.66005 -0.65900
O 	O 	0.52078 0.70937 0.66263 -0.55300
