data_crystal

_cell_length_a 6.98860
_cell_length_b 53.14420
_cell_length_c 53.14420
_cell_angle_alpha 60.19050
_cell_angle_beta  87.48770
_cell_angle_gamma 92.51230

_symmetry_space_group_name_	'P 1'
_symmetry_space_group_name_H-M	'P 1'

loop_
_symmetry_equiv_pos_as_xyz
  x,y,z

loop_
_atom_site_label
_atom_site_type_symbol
_atom_site_fract_x
_atom_site_fract_y
_atom_site_fract_z
_atom_site_charge
Mg	Mg	0.90551 0.35272 0.33585 1.47300
Mg	Mg	0.88499 0.64354 0.67311 1.47500
Mg	Mg	0.24136 0.33585 0.31143 1.47700
Mg	Mg	0.55810 0.67311 0.68335 1.47700
Mg	Mg	0.55279 0.31143 0.35272 1.47700
Mg	Mg	0.24145 0.68335 0.64354 1.47700
H 	H 	0.85925 0.51462 0.35723 0.05100
H 	H 	0.02912 0.52092 0.37805 0.08000
H 	H 	0.88470 0.48680 0.39400 0.05300
H 	H 	0.59563 0.51283 0.39099 0.02200
H 	H 	0.73508 0.54690 0.37340 0.01700
H 	H 	0.67293 0.53448 0.42272 0.03600
H 	H 	0.91768 0.52974 0.41867 0.03000
H 	H 	0.87009 0.47757 0.44594 0.03200
H 	H 	0.62165 0.47777 0.44110 0.03600
H 	H 	0.58954 0.50313 0.47114 0.03600
H 	H 	0.83052 0.49701 0.47909 0.02900
H 	H 	0.76541 0.44739 0.51128 0.03900
H 	H 	0.58836 0.44300 0.49135 0.04800
H 	H 	0.05096 0.36732 0.56003 0.06300
H 	H 	0.24769 0.38869 0.56148 0.06300
H 	H 	0.00933 0.39886 0.56277 0.06800
H 	H 	0.16822 0.44609 0.41512 0.07300
H 	H 	0.17028 0.47886 0.41744 0.06700
H 	H 	0.37924 0.45983 0.42253 0.06200
H 	H 	0.08205 0.34519 0.50292 0.06100
H 	H 	0.16229 0.33681 0.47567 0.05900
H 	H 	0.26963 0.36797 0.47578 0.05900
H 	H 	0.63751 0.45228 0.39464 0.05700
H 	H 	0.63798 0.42985 0.37830 0.06000
H 	H 	0.45704 0.42337 0.40638 0.06900
H 	H 	0.17390 0.58931 0.57823 0.02900
H 	H 	0.60474 0.52901 0.63958 0.04600
H 	H 	0.69907 0.47987 0.53383 0.03800
H 	H 	0.31706 0.47339 0.46441 0.04700
H 	H 	0.95230 0.37761 0.51467 0.01200
H 	H 	0.38095 0.57331 0.62262 0.06700
H 	H 	0.58811 0.60312 0.63377 -0.00300
H 	H 	0.90929 0.61808 0.62821 0.06400
H 	H 	0.86584 0.35559 0.39509 0.08400
H 	H 	0.17526 0.35951 0.40189 0.00500
H 	H 	0.36848 0.37512 0.42833 0.07200
H 	H 	0.56393 0.56290 0.55449 0.04000
H 	H 	0.58167 0.45570 0.60434 0.04100
H 	H 	0.02352 0.44901 0.54089 0.05000
H 	H 	0.80917 0.43964 0.43525 0.03900
H 	H 	0.90044 0.34208 0.44842 0.02400
H 	H 	0.78043 0.57196 0.66669 0.05300
H 	H 	0.68153 0.53602 0.67809 0.05800
H 	H 	0.93024 0.54227 0.67933 0.04900
H 	H 	0.90367 0.57075 0.53840 0.02600
H 	H 	0.14545 0.57197 0.54607 0.04500
H 	H 	0.01577 0.53734 0.55986 0.05400
H 	H 	0.73861 0.45452 0.64291 0.05300
H 	H 	0.90690 0.48549 0.63026 0.05600
H 	H 	0.68814 0.48244 0.65073 0.05900
H 	H 	0.40294 0.56379 0.51653 0.05800
H 	H 	0.46949 0.53629 0.50829 0.06300
H 	H 	0.24525 0.53201 0.52765 0.06900
H 	H 	0.14172 0.48254 0.58624 0.05100
H 	H 	0.96624 0.48028 0.56475 0.02500
H 	H 	0.88982 0.44043 0.61406 0.00300
H 	H 	0.96394 0.42511 0.59280 -0.00300
H 	H 	0.11018 0.39921 0.63638 0.04100
H 	H 	0.29726 0.42378 0.61154 0.04400
H 	H 	0.24255 0.45753 0.63191 0.04200
H 	H 	0.05950 0.43208 0.65701 0.04300
H 	H 	0.47171 0.41682 0.65372 0.02300
H 	H 	0.38745 0.43112 0.67603 0.02400
H 	H 	0.14194 0.38856 0.70154 0.05500
H 	H 	0.24264 0.37328 0.68062 0.05200
H 	H 	0.38123 0.37822 0.70551 0.04800
H 	H 	0.21648 0.35723 0.12815 0.05400
H 	H 	0.40717 0.37805 0.10103 0.05200
H 	H 	0.27870 0.39400 0.11920 0.05500
H 	H 	0.98662 0.39099 0.09618 -0.00400
H 	H 	0.10848 0.37340 0.07970 0.01900
H 	H 	0.09565 0.42272 0.04280 0.04200
H 	H 	0.33635 0.41867 0.05159 0.03800
H 	H 	0.31603 0.44594 0.07649 0.04000
H 	H 	0.06275 0.44110 0.08113 0.04400
H 	H 	0.06068 0.47114 0.02573 0.04000
H 	H 	0.30961 0.47909 0.02390 0.03300
H 	H 	0.27669 0.51128 0.04133 0.04900
H 	H 	0.07971 0.49135 0.06565 0.05900
H 	H 	0.61099 0.56003 0.07265 0.05700
H 	H 	0.80917 0.56148 0.04983 0.06000
H 	H 	0.57210 0.56277 0.03837 0.06200
H 	H 	0.58334 0.41512 0.13879 0.06100
H 	H 	0.58772 0.41744 0.10370 0.05700
H 	H 	0.80177 0.42253 0.11764 0.05300
H 	H 	0.58497 0.50292 0.15189 0.05900
H 	H 	0.63796 0.47567 0.18752 0.05600
H 	H 	0.74541 0.47578 0.15625 0.06000
H 	H 	0.03215 0.39464 0.15308 0.05600
H 	H 	0.01628 0.37830 0.19185 0.06100
H 	H 	0.86342 0.40638 0.17025 0.03800
H 	H 	0.75213 0.57823 0.83246 0.03100
H 	H 	0.24432 0.63958 0.83141 0.04800
H 	H 	0.23290 0.53383 0.98630 0.03600
H 	H 	0.78147 0.46441 0.06220 0.03800
H 	H 	0.46697 0.51467 0.10772 0.04400
H 	H 	0.00357 0.62262 0.80407 0.10600
H 	H 	0.22188 0.63377 0.76311 -0.01600
H 	H 	0.53750 0.62821 0.75371 0.10100
H 	H 	0.26093 0.39509 0.24932 0.08300
H 	H 	0.57715 0.40189 0.23860 -0.00600
H 	H 	0.79681 0.42833 0.19655 0.07200
H 	H 	0.11842 0.55449 0.88261 0.04700
H 	H 	0.18601 0.60434 0.93996 0.04800
H 	H 	0.56441 0.54089 0.01010 0.04100
H 	H 	0.24442 0.43525 0.12511 0.04600
H 	H 	0.34886 0.44842 0.20950 0.03800
H 	H 	0.44712 0.66669 0.76135 0.06100
H 	H 	0.35962 0.67809 0.78589 0.06300
H 	H 	0.60957 0.67933 0.77840 0.05800
H 	H 	0.44207 0.53840 0.89085 0.06200
H 	H 	0.69152 0.54607 0.88196 0.05600
H 	H 	0.57563 0.55986 0.90280 0.06100
H 	H 	0.38152 0.64291 0.90257 0.05800
H 	H 	0.53716 0.63026 0.88425 0.06400
H 	H 	0.33887 0.65073 0.86683 0.06200
H 	H 	0.91947 0.51653 0.91968 0.05400
H 	H 	0.97778 0.50829 0.95542 0.05900
H 	H 	0.77290 0.52765 0.94034 0.06500
H 	H 	0.72796 0.58624 0.93122 0.04500
H 	H 	0.53099 0.56475 0.95497 0.04500
H 	H 	0.50388 0.61406 0.94551 0.03300
H 	H 	0.55674 0.59280 0.98209 0.03200
H 	H 	0.74656 0.63638 0.96441 0.02800
H 	H 	0.90880 0.61154 0.96468 0.03300
H 	H 	0.87446 0.63191 0.91056 0.04100
H 	H 	0.71651 0.65701 0.91091 0.04100
H 	H 	0.12543 0.65372 0.92946 0.01800
H 	H 	0.06348 0.67603 0.89285 0.01700
H 	H 	0.84348 0.70154 0.90990 0.05800
H 	H 	0.92326 0.68062 0.94610 0.05800
H 	H 	0.08674 0.70551 0.91627 0.06900
H 	H 	0.34463 0.12815 0.51462 0.04700
H 	H 	0.50820 0.10103 0.52092 0.04700
H 	H 	0.39790 0.11920 0.48680 0.05000
H 	H 	0.08280 0.09618 0.51283 0.03000
H 	H 	0.18818 0.07970 0.54690 0.02500
H 	H 	0.13845 0.04280 0.53448 0.03800
H 	H 	0.38794 0.05159 0.52974 0.03500
H 	H 	0.39252 0.07649 0.47757 0.04100
H 	H 	0.14388 0.08113 0.47777 0.04400
H 	H 	0.08641 0.02573 0.50313 0.04000
H 	H 	0.33351 0.02390 0.49701 0.03300
H 	H 	0.31802 0.04133 0.44739 0.04900
H 	H 	0.14536 0.06565 0.44300 0.05900
H 	H 	0.68364 0.07265 0.36732 0.05600
H 	H 	0.85900 0.04983 0.38869 0.05900
H 	H 	0.61047 0.03837 0.39886 0.06200
H 	H 	0.72213 0.13879 0.44609 0.05700
H 	H 	0.69142 0.10370 0.47886 0.05500
H 	H 	0.91941 0.11764 0.45983 0.04800
H 	H 	0.73686 0.15189 0.34519 0.05800
H 	H 	0.82548 0.18752 0.33681 0.05400
H 	H 	0.90166 0.15625 0.36797 0.05900
H 	H 	0.18523 0.15308 0.45228 0.06200
H 	H 	0.20813 0.19185 0.42985 0.06400
H 	H 	0.03367 0.17025 0.42337 0.07800
H 	H 	0.58459 0.83246 0.58931 0.03400
H 	H 	0.07573 0.83141 0.52901 0.05100
H 	H 	0.21920 0.98630 0.47987 0.04000
H 	H 	0.84367 0.06220 0.47339 0.03800
H 	H 	0.57469 0.10772 0.37761 0.04300
H 	H 	0.80764 0.80407 0.57331 0.06300
H 	H 	0.98499 0.76311 0.60312 -0.01600
H 	H 	0.29121 0.75371 0.61808 0.10300
H 	H 	0.51025 0.24932 0.35559 0.07700
H 	H 	0.81575 0.23860 0.35951 0.03600
H 	H 	0.99336 0.19655 0.37512 0.00400
H 	H 	0.00103 0.88261 0.56290 0.04200
H 	H 	0.12597 0.93996 0.45570 0.04200
H 	H 	0.57451 0.01010 0.44901 0.04000
H 	H 	0.36953 0.12511 0.43964 0.04500
H 	H 	0.55836 0.20950 0.34208 0.03900
H 	H 	0.20847 0.76135 0.57196 0.06600
H 	H 	0.14551 0.78589 0.53602 0.06700
H 	H 	0.38797 0.77840 0.54227 0.06100
H 	H 	0.33292 0.89085 0.57075 0.06400
H 	H 	0.57348 0.88196 0.57197 0.05800
H 	H 	0.47843 0.90280 0.53734 0.06300
H 	H 	0.28409 0.90257 0.45452 0.05900
H 	H 	0.42141 0.88425 0.48549 0.06400
H 	H 	0.20570 0.86683 0.48244 0.06400
H 	H 	0.83915 0.91968 0.56379 0.04800
H 	H 	0.93320 0.95542 0.53629 0.05400
H 	H 	0.71324 0.94034 0.53201 0.06100
H 	H 	0.65918 0.93122 0.48254 0.04700
H 	H 	0.48596 0.95497 0.48028 0.04500
H 	H 	0.44939 0.94551 0.44043 0.03200
H 	H 	0.53883 0.98209 0.42511 0.03100
H 	H 	0.71097 0.96441 0.39921 0.03100
H 	H 	0.87348 0.96468 0.42378 0.03500
H 	H 	0.78502 0.91056 0.45753 0.03500
H 	H 	0.62742 0.91091 0.43208 0.03500
H 	H 	0.05489 0.92946 0.41682 0.04200
H 	H 	0.95633 0.89285 0.43112 0.01900
H 	H 	0.75338 0.90990 0.38856 0.05400
H 	H 	0.86936 0.94610 0.37328 0.05000
H 	H 	0.00301 0.91627 0.37822 0.06600
C 	C 	0.88740 0.51060 0.37925 -0.19900
C 	C 	0.73653 0.52345 0.38979 -0.02100
C 	C 	0.77250 0.52071 0.41933 -0.08400
C 	C 	0.74228 0.48916 0.44481 -0.06700
C 	C 	0.70231 0.48836 0.47383 -0.05600
C 	C 	0.64076 0.45753 0.49931 -0.09500
C 	C 	0.10690 0.38988 0.55295 -0.18400
C 	C 	0.22371 0.45700 0.42669 -0.19300
C 	C 	0.13411 0.35490 0.47978 -0.14500
C 	C 	0.60835 0.42969 0.39908 -0.20100
C 	C 	0.05010 0.57598 0.59172 -0.00200
C 	C 	0.94074 0.55986 0.58265 -0.04100
C 	C 	0.84521 0.55704 0.63617 0.04000
C 	C 	0.72941 0.54216 0.62627 -0.09100
C 	C 	0.77656 0.54312 0.59984 0.01900
C 	C 	0.00410 0.57496 0.61815 -0.03900
C 	C 	0.55220 0.47233 0.53592 -0.06700
C 	C 	0.49401 0.45921 0.51995 0.01900
C 	C 	0.30044 0.44999 0.52231 -0.00300
C 	C 	0.17373 0.44016 0.45902 0.05100
C 	C 	0.24378 0.45194 0.47548 -0.07400
C 	C 	0.22389 0.43633 0.50595 -0.00800
C 	C 	0.12377 0.40858 0.52026 0.03700
C 	C 	0.03970 0.39790 0.50370 -0.03700
C 	C 	0.06420 0.41317 0.47322 0.00200
C 	C 	0.43990 0.60643 0.63354 0.12800
C 	C 	0.32135 0.58921 0.62709 -0.15700
C 	C 	0.12783 0.59237 0.62644 0.11300
C 	C 	0.05592 0.61389 0.63113 -0.18900
C 	C 	0.60594 0.34631 0.38134 0.28600
C 	C 	0.40623 0.34845 0.38195 -0.32700
C 	C 	0.28011 0.34466 0.36211 0.52200
C 	C 	0.50306 0.64058 0.65179 0.52100
C 	C 	0.36938 0.62703 0.64013 -0.31900
C 	C 	0.17196 0.63115 0.63813 0.26900
C 	C 	0.71535 0.35679 0.39599 -0.24700
C 	C 	0.63266 0.36836 0.41203 0.13200
C 	C 	0.43648 0.36768 0.41492 -0.17000
C 	C 	0.32553 0.35823 0.39992 0.13800
C 	C 	0.66046 0.52526 0.59107 -0.02400
C 	C 	0.56583 0.53943 0.56558 -0.06900
C 	C 	0.48366 0.52390 0.55338 0.04400
C 	C 	0.49210 0.49347 0.56744 -0.01400
C 	C 	0.57693 0.47907 0.59375 -0.07500
C 	C 	0.66027 0.49459 0.60594 0.04700
C 	C 	0.42338 0.47675 0.55381 -0.00500
C 	C 	0.23172 0.46717 0.55656 0.02300
C 	C 	0.17239 0.45483 0.54002 -0.06500
C 	C 	0.74984 0.38059 0.42642 -0.07600
C 	C 	0.96227 0.40149 0.45689 -0.02200
C 	C 	0.83099 0.41852 0.43783 -0.08800
C 	C 	0.72930 0.40890 0.42185 0.06900
C 	C 	0.99047 0.37378 0.46035 -0.00100
C 	C 	0.88275 0.36360 0.44522 -0.04000
C 	C 	0.80668 0.55161 0.66668 -0.18700
C 	C 	0.00501 0.56001 0.55517 -0.09400
C 	C 	0.75429 0.47838 0.63395 -0.18700
C 	C 	0.39539 0.53999 0.52486 -0.18900
C 	C 	0.08705 0.46912 0.57717 -0.08400
C 	C 	0.01431 0.43864 0.60207 0.00800
C 	C 	0.16232 0.42250 0.62355 -0.08300
C 	C 	0.19432 0.43409 0.64453 -0.07100
C 	C 	0.34438 0.41823 0.66569 -0.03400
C 	C 	0.27210 0.38771 0.68974 -0.15800
C 	C 	0.26665 0.37925 0.11015 -0.17000
C 	C 	0.12632 0.38979 0.08676 0.00300
C 	C 	0.19183 0.41933 0.05996 -0.08800
C 	C 	0.18709 0.44481 0.06603 -0.06700
C 	C 	0.17614 0.47383 0.03781 -0.05200
C 	C 	0.14007 0.49931 0.04316 -0.10100
C 	C 	0.65985 0.55295 0.05717 -0.18600
C 	C 	0.65040 0.42669 0.11631 -0.18900
C 	C 	0.61389 0.47978 0.16532 -0.18000
C 	C 	0.00743 0.39908 0.17123 -0.15500
C 	C 	0.64182 0.59172 0.83230 -0.04100
C 	C 	0.52339 0.58265 0.85749 0.03100
C 	C 	0.48138 0.63617 0.80679 0.07700
C 	C 	0.35568 0.62627 0.83157 -0.09200
C 	C 	0.37640 0.59984 0.85704 0.00200
C 	C 	0.62225 0.61815 0.80689 -0.08300
C 	C 	0.08812 0.53592 0.99175 -0.04000
C 	C 	0.01396 0.51995 0.02084 0.03800
C 	C 	0.82275 0.52231 0.02770 -0.02500
C 	C 	0.63275 0.45902 0.10082 0.04400
C 	C 	0.71926 0.47548 0.07258 -0.07900
C 	C 	0.72984 0.50595 0.05772 -0.01100
C 	C 	0.64403 0.52026 0.07116 0.04200
C 	C 	0.54340 0.50370 0.09840 -0.07200
C 	C 	0.53742 0.47322 0.11361 -0.01500
C 	C 	0.07344 0.63354 0.76003 0.18600
C 	C 	0.94844 0.62709 0.78370 -0.24900
C 	C 	0.75427 0.62644 0.78119 0.15800
C 	C 	0.68705 0.63113 0.75498 -0.25300
C 	C 	0.98728 0.38134 0.27235 0.20500
C 	C 	0.78818 0.38195 0.26960 -0.31500
C 	C 	0.64222 0.36211 0.29323 0.51500
C 	C 	0.15485 0.65179 0.70763 0.52200
C 	C 	0.00951 0.64013 0.73284 -0.31000
C 	C 	0.81009 0.63813 0.73072 0.26300
C 	C 	0.11134 0.39599 0.24722 -0.19000
C 	C 	0.04469 0.41203 0.21961 0.15700
C 	C 	0.85140 0.41492 0.21740 -0.21000
C 	C 	0.72545 0.39992 0.24185 0.13800
C 	C 	0.25153 0.59107 0.88367 -0.01400
C 	C 	0.13141 0.56558 0.89499 -0.07300
C 	C 	0.03704 0.55338 0.92272 0.05900
C 	C 	0.05954 0.56744 0.93909 0.01200
C 	C 	0.17068 0.59375 0.92718 -0.08100
C 	C 	0.26621 0.60594 0.89947 0.05000
C 	C 	0.97719 0.55381 0.96944 -0.04800
C 	C 	0.78828 0.55656 0.97627 0.03100
C 	C 	0.71241 0.54002 0.00515 -0.06800
C 	C 	0.17626 0.42642 0.19299 -0.06800
C 	C 	0.41916 0.45689 0.14162 -0.00200
C 	C 	0.26882 0.43783 0.14365 -0.08200
C 	C 	0.15115 0.42185 0.16925 0.06600
C 	C 	0.45082 0.46035 0.16587 0.03300
C 	C 	0.32797 0.44522 0.19118 -0.04400
C 	C 	0.47336 0.66668 0.78171 -0.20200
C 	C 	0.56018 0.55517 0.88482 -0.18100
C 	C 	0.38824 0.63395 0.88767 -0.18900
C 	C 	0.92025 0.52486 0.93515 -0.20600
C 	C 	0.66422 0.57717 0.95371 -0.09900
C 	C 	0.61638 0.60207 0.95929 -0.05500
C 	C 	0.78587 0.62355 0.95395 -0.05500
C 	C 	0.83885 0.64453 0.92138 -0.10600
C 	C 	0.01007 0.66569 0.91608 0.01500
C 	C 	0.96184 0.68974 0.92255 -0.21000
C 	C 	0.37680 0.11015 0.51060 -0.15500
C 	C 	0.21308 0.08676 0.52345 -0.03600
C 	C 	0.25179 0.05996 0.52071 -0.07500
C 	C 	0.25312 0.06603 0.48916 -0.07200
C 	C 	0.21395 0.03781 0.48836 -0.04900
C 	C 	0.18323 0.04316 0.45753 -0.10400
C 	C 	0.71702 0.05717 0.38988 -0.18600
C 	C 	0.76671 0.11631 0.45700 -0.18700
C 	C 	0.77921 0.16532 0.35490 -0.18100
C 	C 	0.17866 0.17123 0.42969 -0.19800
C 	C 	0.47412 0.83230 0.57598 -0.04400
C 	C 	0.38088 0.85749 0.55986 0.03300
C 	C 	0.28817 0.80679 0.55704 0.07700
C 	C 	0.18725 0.83157 0.54216 -0.08900
C 	C 	0.23344 0.85704 0.54312 0.00400
C 	C 	0.42914 0.80689 0.57496 -0.07100
C 	C 	0.07987 0.99175 0.47233 -0.04900
C 	C 	0.03480 0.02084 0.45921 0.04500
C 	C 	0.85045 0.02770 0.44999 -0.03000
C 	C 	0.73357 0.10082 0.44016 0.04300
C 	C 	0.79184 0.07258 0.45194 -0.07900
C 	C 	0.78756 0.05772 0.43633 -0.01000
C 	C 	0.71519 0.07116 0.40858 0.04100
C 	C 	0.64180 0.09840 0.39790 -0.07200
C 	C 	0.65103 0.11361 0.41317 -0.01400
C 	C 	0.83347 0.76003 0.60643 0.12900
C 	C 	0.73214 0.78370 0.58921 -0.17200
C 	C 	0.53546 0.78119 0.59237 0.13300
C 	C 	0.44203 0.75498 0.61389 -0.24600
C 	C 	0.25963 0.27235 0.34631 0.22300
C 	C 	0.05778 0.26960 0.34845 -0.17900
C 	C 	0.93545 0.29323 0.34466 0.40000
C 	C 	0.86248 0.70763 0.64058 0.48400
C 	C 	0.74235 0.73284 0.62703 -0.32100
C 	C 	0.54081 0.73072 0.63115 0.28300
C 	C 	0.35856 0.24722 0.35679 -0.18600
C 	C 	0.26430 0.21961 0.36836 0.05700
C 	C 	0.06880 0.21740 0.36768 -0.01100
C 	C 	0.96730 0.24185 0.35823 -0.03700
C 	C 	0.13520 0.88367 0.52526 -0.01900
C 	C 	0.02640 0.89499 0.53943 -0.04200
C 	C 	0.95976 0.92272 0.52390 0.01700
C 	C 	0.99863 0.93909 0.49347 -0.02700
C 	C 	0.09786 0.92718 0.47907 -0.05200
C 	C 	0.16568 0.89947 0.49459 0.04600
C 	C 	0.94663 0.96944 0.47675 -0.02400
C 	C 	0.76455 0.97627 0.46717 0.02300
C 	C 	0.71756 0.00515 0.45483 -0.06300
C 	C 	0.36925 0.19299 0.38059 -0.03900
C 	C 	0.56078 0.14162 0.40149 -0.00500
C 	C 	0.41247 0.14365 0.41852 -0.08200
C 	C 	0.32040 0.16925 0.40890 0.06200
C 	C 	0.61669 0.16587 0.37378 0.03800
C 	C 	0.51915 0.19118 0.36360 -0.05900
C 	C 	0.25507 0.78171 0.55161 -0.20200
C 	C 	0.44500 0.88482 0.56001 -0.18200
C 	C 	0.27591 0.88767 0.47838 -0.18700
C 	C 	0.85540 0.93515 0.53999 -0.17700
C 	C 	0.61793 0.95371 0.46912 -0.09700
C 	C 	0.57567 0.95929 0.43864 -0.05200
C 	C 	0.73982 0.95395 0.42250 -0.06600
C 	C 	0.76023 0.92138 0.43409 -0.07300
C 	C 	0.92615 0.91608 0.41823 -0.05100
C 	C 	0.88439 0.92255 0.38771 -0.17700
O 	O 	0.69912 0.33158 0.36931 -0.64400
O 	O 	0.34455 0.33604 0.34518 -0.75100
O 	O 	0.10801 0.35118 0.36170 -0.53700
O 	O 	0.67450 0.63343 0.65472 -0.55700
O 	O 	0.44557 0.65815 0.65967 -0.75200
O 	O 	0.08682 0.65351 0.64000 -0.62000
O 	O 	0.06843 0.36931 0.29911 -0.59400
O 	O 	0.68973 0.34518 0.31878 -0.75900
O 	O 	0.46971 0.36170 0.28712 -0.55000
O 	O 	0.32922 0.65472 0.71185 -0.55100
O 	O 	0.10524 0.65967 0.68218 -0.74100
O 	O 	0.72682 0.64000 0.70649 -0.63800
O 	O 	0.36754 0.29911 0.33158 -0.62000
O 	O 	0.00851 0.31878 0.33604 -0.69000
O 	O 	0.75683 0.28712 0.35118 -0.52800
O 	O 	0.04107 0.71185 0.63343 -0.52000
O 	O 	0.78742 0.68218 0.65815 -0.75200
O 	O 	0.43331 0.70649 0.65351 -0.63500
