data_crystal

_cell_length_a 18.27660
_cell_length_b 24.64010
_cell_length_c 24.64010
_cell_angle_alpha 65.90170
_cell_angle_beta  75.68530
_cell_angle_gamma 104.31500

_symmetry_space_group_name_	'P 1'
_symmetry_space_group_name_H-M	'P 1'

loop_
_symmetry_equiv_pos_as_xyz
  x,y,z

loop_
_atom_site_label
_atom_site_type_symbol
_atom_site_fract_x
_atom_site_fract_y
_atom_site_fract_z
_atom_site_charge
Cu	Cu	0.86716 0.16711 0.28268 0.89900
Cu	Cu	0.87996 0.35089 0.21176 0.87700
Cu	Cu	0.79246 0.96090 0.39894 0.87900
Cu	Cu	0.96029 0.55694 0.10916 0.89800
Cu	Cu	0.14984 0.28268 0.55021 0.90000
Cu	Cu	0.09172 0.21176 0.43735 0.87800
Cu	Cu	0.19140 0.39894 0.64016 0.88000
Cu	Cu	0.06945 0.10916 0.33390 0.89900
Cu	Cu	0.70005 0.55021 0.16711 0.90000
Cu	Cu	0.52907 0.43735 0.35089 0.87800
Cu	Cu	0.83156 0.64016 0.96090 0.88000
Cu	Cu	0.40335 0.33390 0.55694 0.89900
Cu	Cu	0.13284 0.83289 0.71732 0.90000
Cu	Cu	0.12004 0.64911 0.78824 0.87800
Cu	Cu	0.20754 0.03910 0.60106 0.88000
Cu	Cu	0.03971 0.44306 0.89084 0.89900
Cu	Cu	0.85016 0.71732 0.44979 0.90000
Cu	Cu	0.90828 0.78824 0.56265 0.87800
Cu	Cu	0.80860 0.60106 0.35984 0.88000
Cu	Cu	0.93055 0.89084 0.66610 0.89900
Cu	Cu	0.29995 0.44979 0.83289 0.90000
Cu	Cu	0.47093 0.56265 0.64911 0.87800
Cu	Cu	0.16844 0.35984 0.03910 0.88000
Cu	Cu	0.59665 0.66610 0.44306 0.89900
H 	H 	0.05520 0.70000 0.99390 0.01600
H 	H 	0.16190 0.75480 0.89330 0.07500
H 	H 	0.22560 0.69710 0.85930 0.00700
H 	H 	0.18010 0.58630 0.92460 0.08400
H 	H 	0.68130 0.81570 0.51000 0.02200
H 	H 	0.54910 0.75920 0.58610 0.07400
H 	H 	0.46810 0.81440 0.59960 0.02900
H 	H 	0.51850 0.92600 0.53060 0.08300
H 	H 	0.70400 0.29630 0.31740 0.01300
H 	H 	0.03180 0.22000 0.15980 -0.00100
H 	H 	0.04910 0.99390 0.30610 0.01600
H 	H 	0.05520 0.89330 0.35190 0.07500
H 	H 	0.08490 0.85930 0.44360 0.00700
H 	H 	0.10470 0.92460 0.48910 0.08400
H 	H 	0.19130 0.51000 0.67430 0.02200
H 	H 	0.13520 0.58610 0.65470 0.07400
H 	H 	0.06770 0.59960 0.58600 0.02900
H 	H 	0.04910 0.53060 0.54340 0.08300
H 	H 	0.02140 0.31740 0.38630 0.01200
H 	H 	0.19160 0.15980 0.62020 -0.00100
H 	H 	0.35520 0.30610 0.70000 0.01700
H 	H 	0.40710 0.35190 0.75480 0.07400
H 	H 	0.52850 0.44360 0.69710 0.00800
H 	H 	0.59380 0.48910 0.58630 0.08300
H 	H 	0.86560 0.67430 0.81570 0.02200
H 	H 	0.78990 0.65470 0.75920 0.07400
H 	H 	0.65370 0.58600 0.81440 0.02900
H 	H 	0.59250 0.54340 0.92600 0.08300
H 	H 	0.40770 0.38630 0.29630 0.01200
H 	H 	0.81180 0.62020 0.22000 -0.00100
H 	H 	0.94480 0.30000 0.00610 0.01600
H 	H 	0.83810 0.24520 0.10670 0.07500
H 	H 	0.77440 0.30290 0.14070 0.00700
H 	H 	0.81990 0.41370 0.07540 0.08400
H 	H 	0.31870 0.18430 0.49000 0.02200
H 	H 	0.45090 0.24080 0.41390 0.07400
H 	H 	0.53190 0.18560 0.40040 0.02900
H 	H 	0.48150 0.07400 0.46940 0.08300
H 	H 	0.29600 0.70370 0.68260 0.01300
H 	H 	0.96820 0.78000 0.84020 -0.00100
H 	H 	0.95090 0.00610 0.69390 0.01600
H 	H 	0.94480 0.10670 0.64810 0.07500
H 	H 	0.91510 0.14070 0.55640 0.00700
H 	H 	0.89530 0.07540 0.51090 0.08400
H 	H 	0.80870 0.49000 0.32570 0.02200
H 	H 	0.86480 0.41390 0.34530 0.07400
H 	H 	0.93230 0.40040 0.41400 0.02900
H 	H 	0.95090 0.46940 0.45660 0.08300
H 	H 	0.97860 0.68260 0.61370 0.01200
H 	H 	0.80840 0.84020 0.37980 -0.00100
H 	H 	0.64480 0.69390 0.30000 0.01700
H 	H 	0.59290 0.64810 0.24520 0.07400
H 	H 	0.47150 0.55640 0.30290 0.00800
H 	H 	0.40620 0.51090 0.41370 0.08300
H 	H 	0.13440 0.32570 0.18430 0.02200
H 	H 	0.21010 0.34530 0.24080 0.07400
H 	H 	0.34630 0.41400 0.18560 0.02900
H 	H 	0.40750 0.45660 0.07400 0.08300
H 	H 	0.59230 0.61370 0.70370 0.01200
H 	H 	0.18820 0.37980 0.78000 -0.00100
C 	C 	0.08005 0.67688 0.97963 0.08000
C 	C 	0.14447 0.71032 0.91941 -0.13100
C 	C 	0.18197 0.67563 0.89942 0.03800
C 	C 	0.15557 0.61018 0.93777 -0.12800
C 	C 	0.09119 0.58093 0.99696 0.05700
C 	C 	0.05588 0.51135 0.04441 0.07000
C 	C 	0.02590 0.41368 0.09788 0.05100
C 	C 	0.01300 0.34568 0.12768 0.07500
C 	C 	0.64776 0.83792 0.51404 0.06200
C 	C 	0.56920 0.80400 0.56010 -0.11400
C 	C 	0.52090 0.83640 0.56760 0.03600
C 	C 	0.55090 0.90300 0.52680 -0.11200
C 	C 	0.63013 0.93392 0.48053 0.05400
C 	C 	0.67064 0.00476 0.43554 0.07200
C 	C 	0.70693 0.10288 0.38279 0.07600
C 	C 	0.71982 0.17068 0.35222 0.07600
C 	C 	0.72003 0.26241 0.32092 0.09100
C 	C 	0.01571 0.25347 0.15784 0.10700
C 	C 	0.05968 0.97963 0.34349 0.08100
C 	C 	0.06388 0.91941 0.37027 -0.13200
C 	C 	0.08139 0.89942 0.42495 0.03800
C 	C 	0.09334 0.93777 0.45205 -0.12800
C 	C 	0.08815 0.99696 0.42211 0.05800
C 	C 	0.10029 0.04441 0.44424 0.07000
C 	C 	0.12378 0.09788 0.48844 0.05100
C 	C 	0.14068 0.12768 0.52664 0.07600
C 	C 	0.16180 0.51404 0.64804 0.06200
C 	C 	0.12930 0.56010 0.63590 -0.11400
C 	C 	0.08850 0.56760 0.59600 0.03600
C 	C 	0.07770 0.52680 0.57020 -0.11200
C 	C 	0.11066 0.48053 0.58555 0.05400
C 	C 	0.10618 0.43554 0.55970 0.07200
C 	C 	0.08972 0.38279 0.51433 0.07600
C 	C 	0.07204 0.35222 0.47710 0.07600
C 	C 	0.04095 0.32092 0.41667 0.09100
C 	C 	0.17355 0.15784 0.58869 0.10900
C 	C 	0.40317 0.34349 0.67688 0.07900
C 	C 	0.43415 0.37027 0.71032 -0.13000
C 	C 	0.50634 0.42495 0.67563 0.03600
C 	C 	0.54539 0.45205 0.61018 -0.12600
C 	C 	0.51026 0.42211 0.58093 0.05500
C 	C 	0.54453 0.44424 0.51135 0.07200
C 	C 	0.61222 0.48844 0.41368 0.05100
C 	C 	0.66732 0.52664 0.34568 0.07600
C 	C 	0.80984 0.64804 0.83792 0.06200
C 	C 	0.76520 0.63590 0.80400 -0.11400
C 	C 	0.68450 0.59600 0.83640 0.03600
C 	C 	0.64790 0.57020 0.90300 -0.11200
C 	C 	0.69621 0.58555 0.93392 0.05400
C 	C 	0.66588 0.55970 0.00476 0.07200
C 	C 	0.60405 0.51433 0.10288 0.07600
C 	C 	0.54914 0.47710 0.17068 0.07600
C 	C 	0.45762 0.41667 0.26241 0.09100
C 	C 	0.76224 0.58869 0.25347 0.10900
C 	C 	0.91995 0.32312 0.02037 0.08000
C 	C 	0.85553 0.28968 0.08059 -0.13100
C 	C 	0.81803 0.32437 0.10058 0.03800
C 	C 	0.84443 0.38982 0.06223 -0.12800
C 	C 	0.90881 0.41907 0.00304 0.05700
C 	C 	0.94412 0.48865 0.95559 0.07000
C 	C 	0.97410 0.58632 0.90212 0.05100
C 	C 	0.98700 0.65432 0.87232 0.07500
C 	C 	0.35224 0.16208 0.48596 0.06200
C 	C 	0.43080 0.19600 0.43990 -0.11400
C 	C 	0.47910 0.16360 0.43240 0.03600
C 	C 	0.44910 0.09700 0.47320 -0.11200
C 	C 	0.36987 0.06608 0.51947 0.05400
C 	C 	0.32936 0.99524 0.56446 0.07200
C 	C 	0.29307 0.89712 0.61721 0.07600
C 	C 	0.28018 0.82932 0.64778 0.07600
C 	C 	0.27997 0.73759 0.67908 0.09100
C 	C 	0.98429 0.74653 0.84216 0.10700
C 	C 	0.94032 0.02037 0.65651 0.08100
C 	C 	0.93612 0.08059 0.62973 -0.13200
C 	C 	0.91861 0.10058 0.57505 0.03800
C 	C 	0.90666 0.06223 0.54795 -0.12800
C 	C 	0.91185 0.00304 0.57789 0.05800
C 	C 	0.89971 0.95559 0.55576 0.07000
C 	C 	0.87622 0.90212 0.51156 0.05100
C 	C 	0.85932 0.87232 0.47336 0.07600
C 	C 	0.83820 0.48596 0.35196 0.06200
C 	C 	0.87070 0.43990 0.36410 -0.11400
C 	C 	0.91150 0.43240 0.40400 0.03600
C 	C 	0.92230 0.47320 0.42980 -0.11200
C 	C 	0.88934 0.51947 0.41445 0.05400
C 	C 	0.89382 0.56446 0.44030 0.07200
C 	C 	0.91028 0.61721 0.48567 0.07600
C 	C 	0.92796 0.64778 0.52290 0.07600
C 	C 	0.95905 0.67908 0.58333 0.09100
C 	C 	0.82645 0.84216 0.41131 0.10900
C 	C 	0.59683 0.65651 0.32312 0.07900
C 	C 	0.56585 0.62973 0.28968 -0.13000
C 	C 	0.49366 0.57505 0.32437 0.03600
C 	C 	0.45461 0.54795 0.38982 -0.12600
C 	C 	0.48974 0.57789 0.41907 0.05500
C 	C 	0.45547 0.55576 0.48865 0.07200
C 	C 	0.38778 0.51156 0.58632 0.05100
C 	C 	0.33268 0.47336 0.65432 0.07600
C 	C 	0.19016 0.35196 0.16208 0.06200
C 	C 	0.23480 0.36410 0.19600 -0.11400
C 	C 	0.31550 0.40400 0.16360 0.03600
C 	C 	0.35210 0.42980 0.09700 -0.11200
C 	C 	0.30379 0.41445 0.06608 0.05400
C 	C 	0.33412 0.44030 0.99524 0.07200
C 	C 	0.39595 0.48567 0.89712 0.07600
C 	C 	0.45086 0.52290 0.82932 0.07600
C 	C 	0.54238 0.58333 0.73759 0.09100
C 	C 	0.23776 0.41131 0.74653 0.10900
S 	S 	0.01016 0.21479 0.33687 0.70600
S 	S 	0.95006 0.06979 0.27635 0.72500
S 	S 	0.34703 0.33687 0.44834 0.70800
S 	S 	0.22641 0.27635 0.65386 0.72400
S 	S 	0.79537 0.44834 0.21479 0.70800
S 	S 	0.88027 0.65386 0.06979 0.72300
S 	S 	0.98984 0.78521 0.66313 0.70600
S 	S 	0.04994 0.93021 0.72365 0.72500
S 	S 	0.65297 0.66313 0.55166 0.70800
S 	S 	0.77359 0.72365 0.34614 0.72400
S 	S 	0.20463 0.55166 0.78521 0.70800
S 	S 	0.11973 0.34614 0.93021 0.72300
N 	N 	0.05251 0.61346 0.01773 -0.21800
N 	N 	0.98984 0.49006 0.09674 -0.19200
N 	N 	0.96958 0.42602 0.13272 -0.18900
N 	N 	0.08183 0.46510 0.04241 -0.13700
N 	N 	0.94716 0.30571 0.18155 -0.19100
N 	N 	0.94882 0.24547 0.20117 -0.19000
N 	N 	0.67852 0.90278 0.47402 -0.22100
N 	N 	0.74602 0.02567 0.39231 -0.19400
N 	N 	0.76979 0.09082 0.35708 -0.18200
N 	N 	0.64231 0.05094 0.43171 -0.12300
N 	N 	0.79182 0.21088 0.30212 -0.19100
N 	N 	0.79181 0.27100 0.28157 -0.20300
N 	N 	0.67279 0.20025 0.36628 -0.12800
N 	N 	0.05821 0.31572 0.11041 -0.23100
N 	N 	0.07024 0.01773 0.36881 -0.21800
N 	N 	0.08658 0.09674 0.41320 -0.19300
N 	N 	0.10230 0.13272 0.44126 -0.18900
N 	N 	0.12424 0.04241 0.49249 -0.13800
N 	N 	0.12871 0.18155 0.51274 -0.19200
N 	N 	0.14999 0.20117 0.55336 -0.19100
N 	N 	0.15254 0.47402 0.62320 -0.22100
N 	N 	0.13833 0.39231 0.58202 -0.19500
N 	N 	0.12687 0.35708 0.55210 -0.18200
N 	N 	0.07402 0.43171 0.51735 -0.12300
N 	N 	0.09394 0.30212 0.48700 -0.19100
N 	N 	0.07338 0.28157 0.44743 -0.20300
N 	N 	0.03907 0.36628 0.43347 -0.12800
N 	N 	0.16862 0.11041 0.57387 -0.23100
N 	N 	0.43905 0.36881 0.61346 -0.21600
N 	N 	0.49978 0.41320 0.49006 -0.19300
N 	N 	0.54356 0.44126 0.42602 -0.18900
N 	N 	0.61673 0.49249 0.46510 -0.13700
N 	N 	0.64145 0.51274 0.30571 -0.19200
N 	N 	0.70335 0.55336 0.24547 -0.19100
N 	N 	0.77574 0.62320 0.90278 -0.22100
N 	N 	0.72035 0.58202 0.02567 -0.19400
N 	N 	0.67897 0.55210 0.09082 -0.18200
N 	N 	0.59137 0.51735 0.05094 -0.12300
N 	N 	0.58094 0.48700 0.21088 -0.19100
N 	N 	0.52081 0.44743 0.27100 -0.20300
N 	N 	0.47254 0.43347 0.20025 -0.12800
N 	N 	0.74249 0.57387 0.31572 -0.23100
N 	N 	0.94749 0.38654 0.98227 -0.21800
N 	N 	0.01016 0.50994 0.90326 -0.19200
N 	N 	0.03042 0.57398 0.86728 -0.18900
N 	N 	0.91817 0.53490 0.95759 -0.13700
N 	N 	0.05284 0.69429 0.81845 -0.19100
N 	N 	0.05118 0.75453 0.79883 -0.19000
N 	N 	0.32148 0.09722 0.52598 -0.22100
N 	N 	0.25398 0.97433 0.60769 -0.19400
N 	N 	0.23021 0.90918 0.64292 -0.18200
N 	N 	0.35769 0.94906 0.56829 -0.12300
N 	N 	0.20818 0.78912 0.69788 -0.19100
N 	N 	0.20819 0.72900 0.71843 -0.20300
N 	N 	0.32721 0.79975 0.63372 -0.12800
N 	N 	0.94179 0.68428 0.88959 -0.23100
N 	N 	0.92976 0.98227 0.63119 -0.21800
N 	N 	0.91342 0.90326 0.58680 -0.19300
N 	N 	0.89770 0.86728 0.55874 -0.18900
N 	N 	0.87576 0.95759 0.50751 -0.13800
N 	N 	0.87129 0.81845 0.48726 -0.19200
N 	N 	0.85001 0.79883 0.44664 -0.19100
N 	N 	0.84746 0.52598 0.37680 -0.22100
N 	N 	0.86167 0.60769 0.41798 -0.19500
N 	N 	0.87313 0.64292 0.44790 -0.18200
N 	N 	0.92598 0.56829 0.48265 -0.12300
N 	N 	0.90606 0.69788 0.51300 -0.19100
N 	N 	0.92662 0.71843 0.55257 -0.20300
N 	N 	0.96093 0.63372 0.56653 -0.12800
N 	N 	0.83138 0.88959 0.42613 -0.23100
N 	N 	0.56095 0.63119 0.38654 -0.21600
N 	N 	0.50022 0.58680 0.50994 -0.19300
N 	N 	0.45644 0.55874 0.57398 -0.18900
N 	N 	0.38327 0.50751 0.53490 -0.13700
N 	N 	0.35855 0.48726 0.69429 -0.19200
N 	N 	0.29665 0.44664 0.75453 -0.19100
N 	N 	0.22426 0.37680 0.09722 -0.22100
N 	N 	0.27965 0.41798 0.97433 -0.19400
N 	N 	0.32103 0.44790 0.90918 -0.18200
N 	N 	0.40863 0.48265 0.94906 -0.12300
N 	N 	0.41906 0.51300 0.78912 -0.19100
N 	N 	0.47919 0.55257 0.72900 -0.20300
N 	N 	0.52746 0.56653 0.79975 -0.12800
N 	N 	0.25751 0.42613 0.68428 -0.23100
O 	O 	0.90569 0.02634 0.34693 -0.47200
O 	O 	0.95355 0.03461 0.24216 -0.30300
O 	O 	0.90922 0.11379 0.25168 -0.43600
O 	O 	0.03001 0.28323 0.29425 -0.32300
O 	O 	0.07579 0.19738 0.30794 -0.44800
O 	O 	0.00783 0.20385 0.40138 -0.43900
O 	O 	0.03414 0.10858 0.26528 -0.43100
O 	O 	0.93023 0.17258 0.34764 -0.40800
O 	O 	0.25262 0.34693 0.62673 -0.47200
O 	O 	0.19571 0.24216 0.72323 -0.30400
O 	O 	0.16090 0.25168 0.63453 -0.43600
O 	O 	0.32426 0.29425 0.42252 -0.32300
O 	O 	0.38373 0.30794 0.49468 -0.44800
O 	O 	0.40921 0.40138 0.39477 -0.43900
O 	O 	0.29942 0.26528 0.62614 -0.42900
O 	O 	0.27787 0.34764 0.47978 -0.40900
O 	O 	0.87935 0.62673 0.02634 -0.47200
O 	O 	0.91894 0.72323 0.03461 -0.30300
O 	O 	0.79543 0.63453 0.11379 -0.43500
O 	O 	0.74678 0.42252 0.28323 -0.32300
O 	O 	0.87841 0.49468 0.19738 -0.44800
O 	O 	0.80398 0.39477 0.20385 -0.43900
O 	O 	0.92556 0.62614 0.10858 -0.42900
O 	O 	0.75765 0.47978 0.17258 -0.40900
O 	O 	0.09431 0.97366 0.65307 -0.47200
O 	O 	0.04645 0.96539 0.75784 -0.30300
O 	O 	0.09078 0.88621 0.74832 -0.43600
O 	O 	0.96999 0.71677 0.70575 -0.32300
O 	O 	0.92421 0.80262 0.69206 -0.44800
O 	O 	0.99217 0.79615 0.59862 -0.43900
O 	O 	0.96586 0.89142 0.73472 -0.43100
O 	O 	0.06977 0.82742 0.65236 -0.40800
O 	O 	0.74738 0.65307 0.37327 -0.47200
O 	O 	0.80429 0.75784 0.27677 -0.30400
O 	O 	0.83910 0.74832 0.36547 -0.43600
O 	O 	0.67574 0.70575 0.57748 -0.32300
O 	O 	0.61627 0.69206 0.50532 -0.44800
O 	O 	0.59079 0.59862 0.60523 -0.43900
O 	O 	0.70058 0.73472 0.37386 -0.42900
O 	O 	0.72213 0.65236 0.52022 -0.40900
O 	O 	0.12065 0.37327 0.97366 -0.47200
O 	O 	0.08106 0.27677 0.96539 -0.30300
O 	O 	0.20457 0.36547 0.88621 -0.43500
O 	O 	0.25322 0.57748 0.71677 -0.32300
O 	O 	0.12159 0.50532 0.80262 -0.44800
O 	O 	0.19602 0.60523 0.79615 -0.43900
O 	O 	0.07444 0.37386 0.89142 -0.42900
O 	O 	0.24235 0.52022 0.82742 -0.40900
