data_crystal

_cell_length_a 6.40500
_cell_length_b 14.16400
_cell_length_c 20.09800
_cell_angle_alpha 90.00000
_cell_angle_beta  95.29000
_cell_angle_gamma 90.00000

_symmetry_space_group_name_	'P 1'
_symmetry_space_group_name_H-M	'P 1'

loop_
_symmetry_equiv_pos_as_xyz
  x,y,z

loop_
_atom_site_label
_atom_site_type_symbol
_atom_site_fract_x
_atom_site_fract_y
_atom_site_fract_z
_atom_site_charge
Zn	Zn	0.98554 0.19286 0.94185 1.23500
Zn	Zn	0.51452 0.60197 0.54392 1.24900
Zn	Zn	0.01446 0.69286 0.55815 1.24100
Zn	Zn	0.48548 0.10197 0.95608 1.24500
Zn	Zn	0.01446 0.80714 0.05815 1.23700
Zn	Zn	0.48548 0.39803 0.45608 1.24700
Zn	Zn	0.98554 0.30714 0.44185 1.23200
Zn	Zn	0.51452 0.89803 0.04392 1.25200
Zn	Zn	1.00000 0.50000 0.50000 1.24500
Zn	Zn	-0.00000 0.00000 -0.00000 1.22000
H 	H 	0.13620 0.29740 0.67530 0.04000
H 	H 	0.26230 0.21640 0.77140 0.02600
H 	H 	0.83710 0.32300 0.75480 0.04300
H 	H 	0.71480 0.39730 0.65650 0.01700
H 	H 	0.71130 0.37450 0.97360 0.06900
H 	H 	0.15530 0.47350 0.01990 0.08200
H 	H 	0.22200 0.63100 0.47200 0.41600
H 	H 	0.84200 0.57400 0.59840 0.75000
H 	H 	0.86380 0.79740 0.82470 0.04400
H 	H 	0.73770 0.71640 0.72860 0.02800
H 	H 	0.16290 0.82300 0.74520 0.05000
H 	H 	0.28520 0.89730 0.84350 0.02700
H 	H 	0.28870 0.87450 0.52640 -0.02400
H 	H 	0.84470 0.97350 0.48010 -0.00300
H 	H 	0.77800 0.13100 0.02800 0.35600
H 	H 	0.15800 0.07400 0.90160 0.73100
H 	H 	0.86380 0.70260 0.32470 0.03800
H 	H 	0.73770 0.78360 0.22860 0.03400
H 	H 	0.16290 0.67700 0.24520 0.04800
H 	H 	0.28520 0.60270 0.34350 0.01800
H 	H 	0.28870 0.62550 0.02640 -0.00300
H 	H 	0.84470 0.52650 0.98010 0.01800
H 	H 	0.77800 0.36900 0.52800 0.41200
H 	H 	0.15800 0.42600 0.40160 0.75000
H 	H 	0.13620 0.20260 0.17530 0.03400
H 	H 	0.26230 0.28360 0.27140 0.03000
H 	H 	0.83710 0.17700 0.25480 0.04200
H 	H 	0.71480 0.10270 0.15650 0.00700
H 	H 	0.71130 0.12550 0.47360 0.09000
H 	H 	0.15530 0.02650 0.51990 0.10400
H 	H 	0.22200 0.86900 0.97200 0.46700
H 	H 	0.84200 0.92600 0.09840 0.76500
C 	C 	0.33120 0.41470 0.59601 0.36800
C 	C 	0.41170 0.35750 0.65595 -0.09700
C 	C 	0.27710 0.30220 0.69090 -0.01600
C 	C 	0.35250 0.25380 0.74900 -0.01500
C 	C 	0.56360 0.26170 0.77339 -0.09200
C 	C 	0.69690 0.31680 0.73860 -0.02300
C 	C 	0.62250 0.36270 0.68000 -0.01200
C 	C 	0.64450 0.21410 0.83757 0.37900
C 	C 	0.32590 0.30980 0.98933 0.34800
C 	C 	0.41790 0.40810 0.99590 0.02500
C 	C 	0.62620 0.42450 0.98410 -0.10400
C 	C 	0.29400 0.48400 0.01180 -0.15000
C 	C 	0.66880 0.91470 0.90399 0.36700
C 	C 	0.58830 0.85750 0.84405 -0.08600
C 	C 	0.72290 0.80220 0.80910 -0.01500
C 	C 	0.64750 0.75380 0.75100 -0.01100
C 	C 	0.43640 0.76170 0.72661 -0.08600
C 	C 	0.30310 0.81680 0.76140 -0.01600
C 	C 	0.37750 0.86270 0.82000 -0.01000
C 	C 	0.35550 0.71410 0.66243 0.38100
C 	C 	0.67410 0.80980 0.51067 0.42500
C 	C 	0.58210 0.90810 0.50410 -0.20300
C 	C 	0.37380 0.92450 0.51590 0.18200
C 	C 	0.70600 0.98400 0.48820 0.17800
C 	C 	0.66880 0.58530 0.40399 0.37100
C 	C 	0.58830 0.64250 0.34405 -0.10100
C 	C 	0.72290 0.69780 0.30910 -0.00900
C 	C 	0.64750 0.74620 0.25100 -0.01800
C 	C 	0.43640 0.73830 0.22661 -0.08200
C 	C 	0.30310 0.68320 0.26140 -0.02500
C 	C 	0.37750 0.63730 0.32000 -0.00600
C 	C 	0.35550 0.78590 0.16243 0.37900
C 	C 	0.67410 0.69020 0.01067 0.41100
C 	C 	0.58210 0.59190 0.00410 -0.19400
C 	C 	0.37380 0.57550 0.01590 0.08400
C 	C 	0.70600 0.51600 0.98820 0.11200
C 	C 	0.33120 0.08530 0.09601 0.37100
C 	C 	0.41170 0.14250 0.15595 -0.11200
C 	C 	0.27710 0.19780 0.19090 -0.01200
C 	C 	0.35250 0.24620 0.24900 -0.02300
C 	C 	0.56360 0.23830 0.27339 -0.08800
C 	C 	0.69690 0.18320 0.23860 -0.03100
C 	C 	0.62250 0.13730 0.18000 -0.00800
C 	C 	0.64450 0.28590 0.33757 0.37800
C 	C 	0.32590 0.19020 0.48933 0.33500
C 	C 	0.41790 0.09190 0.49590 0.03200
C 	C 	0.62620 0.07550 0.48410 -0.20500
C 	C 	0.29400 0.01600 0.51180 -0.21100
O 	O 	0.46690 0.45254 0.56158 -0.53900
O 	O 	0.13680 0.42324 0.58341 -0.46200
O 	O 	0.82440 0.24054 0.86211 -0.49600
O 	O 	0.53290 0.15140 0.86132 -0.48600
O 	O 	0.44980 0.24200 0.99218 -0.43600
O 	O 	0.12700 0.30430 0.98029 -0.45400
O 	O 	0.20630 0.61687 0.50818 -0.96800
O 	O 	0.82640 0.58358 0.56643 -1.38400
O 	O 	0.53310 0.95254 0.93842 -0.50400
O 	O 	0.86320 0.92324 0.91659 -0.43800
O 	O 	0.17560 0.74054 0.63789 -0.48400
O 	O 	0.46710 0.65140 0.63868 -0.47300
O 	O 	0.55020 0.74200 0.50782 -0.46700
O 	O 	0.87300 0.80430 0.51971 -0.48300
O 	O 	0.79370 0.11687 0.99182 -0.91600
O 	O 	0.17360 0.08358 0.93357 -1.36700
O 	O 	0.53310 0.54746 0.43842 -0.53900
O 	O 	0.86320 0.57676 0.41659 -0.47000
O 	O 	0.17560 0.75946 0.13789 -0.48700
O 	O 	0.46710 0.84860 0.13868 -0.46100
O 	O 	0.55020 0.75800 0.00782 -0.47600
O 	O 	0.87300 0.69570 0.01971 -0.49200
O 	O 	0.79370 0.38313 0.49182 -0.97400
O 	O 	0.17360 0.41642 0.43357 -1.37700
O 	O 	0.46690 0.04746 0.06158 -0.57400
O 	O 	0.13680 0.07676 0.08341 -0.48800
O 	O 	0.82440 0.25946 0.36211 -0.49800
O 	O 	0.53290 0.34860 0.36132 -0.47500
O 	O 	0.44980 0.25800 0.49218 -0.44700
O 	O 	0.12700 0.19570 0.48029 -0.46600
O 	O 	0.20630 0.88313 0.00818 -1.01600
O 	O 	0.82640 0.91642 0.06643 -1.37700
