data_crystal

_cell_length_a 8.14710
_cell_length_b 11.69770
_cell_length_c 11.69770
_cell_angle_alpha 109.55300
_cell_angle_beta  104.73400
_cell_angle_gamma 75.26580

_symmetry_space_group_name_	'P 1'
_symmetry_space_group_name_H-M	'P 1'

loop_
_symmetry_equiv_pos_as_xyz
  x,y,z

loop_
_atom_site_label
_atom_site_type_symbol
_atom_site_fract_x
_atom_site_fract_y
_atom_site_fract_z
_atom_site_charge
Zn	Zn	0.43687 0.07863 0.90023 1.28300
Zn	Zn	0.06313 0.90023 0.07863 1.28100
Zn	Zn	0.56313 0.92137 0.09977 1.28400
Zn	Zn	0.93687 0.09977 0.92137 1.28200
Zn	Zn	0.75000 0.13198 0.13198 1.27800
Zn	Zn	0.25000 0.86802 0.86802 1.27800
H 	H 	0.76600 0.68910 0.96490 0.04200
H 	H 	0.52090 0.74280 0.22960 0.01700
H 	H 	0.59650 0.53750 0.22010 0.07400
H 	H 	0.84180 0.48210 0.94510 0.06500
H 	H 	0.73400 0.96490 0.68910 0.04700
H 	H 	0.97910 0.22960 0.74280 0.01500
H 	H 	0.90350 0.22010 0.53750 0.07500
H 	H 	0.65820 0.94510 0.48210 0.07300
H 	H 	0.23400 0.31090 0.03510 0.04200
H 	H 	0.47910 0.25720 0.77040 0.01700
H 	H 	0.40350 0.46250 0.77990 0.07400
H 	H 	0.15820 0.51790 0.05490 0.06500
H 	H 	0.26600 0.03510 0.31090 0.04700
H 	H 	0.02090 0.77040 0.25720 0.01500
H 	H 	0.09650 0.77990 0.46250 0.07500
H 	H 	0.34180 0.05490 0.51790 0.07300
C 	C 	0.73070 0.65815 0.01645 0.04400
C 	C 	0.58760 0.68965 0.17235 0.05100
C 	C 	0.63200 0.56623 0.16697 -0.06200
C 	C 	0.77780 0.53372 0.00468 -0.04800
C 	C 	0.72970 0.48592 0.08168 -0.03800
C 	C 	0.78050 0.34883 0.06977 0.37300
C 	C 	0.76930 0.01645 0.65815 0.03900
C 	C 	0.91240 0.17235 0.68965 0.05200
C 	C 	0.86800 0.16697 0.56623 -0.06600
C 	C 	0.72220 0.00468 0.53372 -0.06100
C 	C 	0.77030 0.08168 0.48592 -0.03100
C 	C 	0.71950 0.06977 0.34883 0.36300
C 	C 	0.26930 0.34185 0.98355 0.04400
C 	C 	0.41240 0.31035 0.82765 0.05100
C 	C 	0.36800 0.43377 0.83303 -0.06200
C 	C 	0.22220 0.46628 0.99532 -0.04800
C 	C 	0.27030 0.51408 0.91832 -0.03800
C 	C 	0.21950 0.65117 0.93023 0.37300
C 	C 	0.23070 0.98355 0.34185 0.03900
C 	C 	0.08760 0.82765 0.31035 0.05200
C 	C 	0.13200 0.83303 0.43377 -0.06600
C 	C 	0.27780 0.99532 0.46628 -0.06100
C 	C 	0.22970 0.91832 0.51408 -0.03100
C 	C 	0.28050 0.93023 0.65117 0.36300
N 	N 	0.63650 0.73632 0.09874 -0.20900
N 	N 	0.86350 0.09874 0.73632 -0.21000
N 	N 	0.36350 0.26368 0.90126 -0.20900
N 	N 	0.13650 0.90126 0.26368 -0.21000
O 	O 	0.72200 0.31105 0.13733 -0.41100
O 	O 	0.87530 0.28689 0.99213 -0.42000
O 	O 	0.77800 0.13733 0.31105 -0.40900
O 	O 	0.62470 0.99213 0.28689 -0.41200
O 	O 	0.27800 0.68895 0.86267 -0.41100
O 	O 	0.12470 0.71311 0.00787 -0.42000
O 	O 	0.22200 0.86267 0.68895 -0.40900
O 	O 	0.37530 0.00787 0.71311 -0.41200
F 	F 	0.50500 0.10884 0.09052 -0.69800
F 	F 	0.69140 0.08530 0.92556 -0.70400
F 	F 	0.99500 0.09052 0.10884 -0.69600
F 	F 	0.80860 0.92556 0.08530 -0.69800
F 	F 	0.49500 0.89116 0.90948 -0.69800
F 	F 	0.30860 0.91470 0.07444 -0.70400
F 	F 	0.00500 0.90948 0.89116 -0.69600
F 	F 	0.19140 0.07444 0.91470 -0.69800
