data_crystal

_cell_length_a 12.13800
_cell_length_b 13.14600
_cell_length_c 14.32100
_cell_angle_alpha 91.15800
_cell_angle_beta  98.91100
_cell_angle_gamma 90.56700

_symmetry_space_group_name_	'P 1'
_symmetry_space_group_name_H-M	'P 1'

loop_
_symmetry_equiv_pos_as_xyz
  x,y,z

loop_
_atom_site_label
_atom_site_type_symbol
_atom_site_fract_x
_atom_site_fract_y
_atom_site_fract_z
_atom_site_charge
Cd	Cd	0.30160 0.07406 0.32508 1.20300
Cd	Cd	0.43600 0.77442 0.28136 1.19900
Cd	Cd	0.69840 0.92594 0.67492 1.20300
Cd	Cd	0.56400 0.22558 0.71864 1.19900
H 	H 	0.28940 0.37330 0.86280 0.04300
H 	H 	0.34450 0.43760 0.79040 0.01600
H 	H 	0.15440 0.34360 0.75450 0.15400
H 	H 	0.97150 0.30770 0.69010 -0.04800
H 	H 	0.83580 0.42740 0.68790 0.12400
H 	H 	0.06270 0.62470 0.82380 0.16300
H 	H 	0.71330 0.54760 0.76840 -0.00900
H 	H 	0.93280 0.74350 0.70880 -0.01300
H 	H 	0.41200 0.57760 0.77680 0.01900
H 	H 	0.52090 0.64420 0.80890 0.02200
H 	H 	0.20950 0.78180 0.87340 0.17200
H 	H 	0.09170 0.87180 0.76480 -0.06100
H 	H 	0.13670 0.89790 0.61620 0.16100
H 	H 	0.41830 0.74270 0.68640 0.15700
H 	H 	0.32940 0.00150 0.55030 -0.01100
H 	H 	0.32170 0.71440 0.47970 -0.03800
H 	H 	0.64340 0.72380 0.02250 0.04400
H 	H 	0.62400 0.70220 0.91260 0.04600
H 	H 	0.75560 0.82230 0.92030 0.15300
H 	H 	0.90610 0.93110 0.92070 -0.03800
H 	H 	0.08290 0.88110 0.98670 0.13400
H 	H 	0.95990 0.60970 0.04280 0.16400
H 	H 	0.19170 0.83120 0.16120 0.00200
H 	H 	0.17700 0.57090 0.02160 0.01900
H 	H 	0.99190 0.91430 0.44730 0.05700
H 	H 	0.81410 0.85120 0.44090 0.03100
H 	H 	0.77070 0.85820 0.15750 0.04900
H 	H 	0.95070 0.91810 0.16360 0.05900
H 	H 	0.50080 0.15250 0.07990 0.06300
H 	H 	0.56560 0.14550 0.93750 0.03000
H 	H 	0.71060 0.62670 0.13720 0.04300
H 	H 	0.65550 0.56240 0.20960 0.01600
H 	H 	0.84560 0.65640 0.24550 0.15400
H 	H 	0.02850 0.69230 0.30990 -0.04800
H 	H 	0.16420 0.57260 0.31210 0.12400
H 	H 	0.93730 0.37530 0.17620 0.16300
H 	H 	0.28670 0.45240 0.23160 -0.00900
H 	H 	0.06720 0.25650 0.29120 -0.01300
H 	H 	0.58800 0.42240 0.22320 0.01900
H 	H 	0.47910 0.35580 0.19110 0.02200
H 	H 	0.79050 0.21820 0.12660 0.17200
H 	H 	0.90830 0.12820 0.23520 -0.06100
H 	H 	0.86330 0.10210 0.38380 0.16100
H 	H 	0.58170 0.25730 0.31360 0.15700
H 	H 	0.67060 0.99850 0.44970 -0.01100
H 	H 	0.67830 0.28560 0.52030 -0.03800
H 	H 	0.35660 0.27620 0.97750 0.04400
H 	H 	0.37600 0.29780 0.08740 0.04600
H 	H 	0.24440 0.17770 0.07970 0.15300
H 	H 	0.09390 0.06890 0.07930 -0.03800
H 	H 	0.91710 0.11890 0.01330 0.13400
H 	H 	0.04010 0.39030 0.95720 0.16400
H 	H 	0.80830 0.16880 0.83880 0.00200
H 	H 	0.82300 0.42910 0.97840 0.01900
H 	H 	0.00810 0.08570 0.55270 0.05700
H 	H 	0.18590 0.14880 0.55910 0.03100
H 	H 	0.22930 0.14180 0.84250 0.04900
H 	H 	0.04930 0.08190 0.83640 0.05900
H 	H 	0.49920 0.84750 0.92010 0.06300
H 	H 	0.43440 0.85450 0.06250 0.03000
C 	C 	0.41120 0.47310 0.92940 0.00700
C 	C 	0.48110 0.55370 0.91660 -0.00500
C 	C 	0.57110 0.58210 0.98680 0.01100
C 	C 	0.31720 0.44030 0.85050 0.02500
C 	C 	0.12670 0.48590 0.79970 0.31800
C 	C 	0.09990 0.39240 0.75670 -0.33200
C 	C 	0.99010 0.37200 0.71650 0.22600
C 	C 	0.90910 0.44280 0.71460 -0.30500
C 	C 	0.93810 0.53750 0.75290 0.25100
C 	C 	0.04510 0.56060 0.79670 -0.32800
C 	C 	0.74670 0.60760 0.75300 0.11000
C 	C 	0.86650 0.71390 0.72060 0.11500
C 	C 	0.45360 0.61730 0.82860 0.03800
C 	C 	0.32410 0.74960 0.79000 0.36600
C 	C 	0.22740 0.79110 0.81330 -0.36700
C 	C 	0.15740 0.84570 0.74870 0.27000
C 	C 	0.18410 0.86190 0.66070 -0.34000
C 	C 	0.28220 0.82390 0.63960 0.28200
C 	C 	0.35240 0.76790 0.70260 -0.38000
C 	C 	0.33300 0.94100 0.51620 0.10000
C 	C 	0.32810 0.78490 0.47800 0.09600
C 	C 	0.64700 0.67220 0.97380 -0.00100
C 	C 	0.84290 0.70430 0.97930 0.31700
C 	C 	0.82700 0.80120 0.94460 -0.32400
C 	C 	0.91680 0.86680 0.94600 0.20400
C 	C 	0.02220 0.83700 0.98500 -0.28500
C 	C 	0.03630 0.74150 0.02120 0.24000
C 	C 	0.94850 0.67450 0.01850 -0.32400
C 	C 	0.20920 0.76710 0.13950 0.09800
C 	C 	0.20130 0.62440 0.06350 0.10800
C 	C 	0.09760 0.98390 0.31050 0.29800
C 	C 	0.98790 0.92780 0.30680 -0.04800
C 	C 	0.94690 0.90420 0.38900 -0.04500
C 	C 	0.84080 0.86610 0.38520 -0.00400
C 	C 	0.77340 0.84970 0.29990 -0.08000
C 	C 	0.81540 0.87000 0.21560 -0.01500
C 	C 	0.92220 0.90690 0.21920 -0.03700
C 	C 	0.65360 0.81820 0.29440 0.30800
C 	C 	0.41670 0.01110 0.17860 0.36100
C 	C 	0.46130 0.00380 0.08630 -0.09000
C 	C 	0.50060 0.09050 0.04740 -0.02700
C 	C 	0.53930 0.08670 0.96200 0.00000
C 	C 	0.58880 0.52690 0.07060 0.00700
C 	C 	0.51890 0.44630 0.08340 -0.00500
C 	C 	0.42890 0.41790 0.01320 0.01100
C 	C 	0.68280 0.55970 0.14950 0.02500
C 	C 	0.87330 0.51410 0.20030 0.31800
C 	C 	0.90010 0.60760 0.24330 -0.33200
C 	C 	0.00990 0.62800 0.28350 0.22600
C 	C 	0.09090 0.55720 0.28540 -0.30500
C 	C 	0.06190 0.46250 0.24710 0.25100
C 	C 	0.95490 0.43940 0.20330 -0.32800
C 	C 	0.25330 0.39240 0.24700 0.11000
C 	C 	0.13350 0.28610 0.27940 0.11500
C 	C 	0.54640 0.38270 0.17140 0.03800
C 	C 	0.67590 0.25040 0.21000 0.36600
C 	C 	0.77260 0.20890 0.18670 -0.36700
C 	C 	0.84260 0.15430 0.25130 0.27000
C 	C 	0.81590 0.13810 0.33930 -0.34000
C 	C 	0.71780 0.17610 0.36040 0.28200
C 	C 	0.64760 0.23210 0.29740 -0.38000
C 	C 	0.66700 0.05900 0.48380 0.10000
C 	C 	0.67190 0.21510 0.52200 0.09600
C 	C 	0.35300 0.32780 0.02620 -0.00100
C 	C 	0.15710 0.29570 0.02070 0.31700
C 	C 	0.17300 0.19880 0.05540 -0.32400
C 	C 	0.08320 0.13320 0.05400 0.20400
C 	C 	0.97780 0.16300 0.01500 -0.28500
C 	C 	0.96370 0.25850 0.97880 0.24000
C 	C 	0.05150 0.32550 0.98150 -0.32400
C 	C 	0.79080 0.23290 0.86050 0.09800
C 	C 	0.79870 0.37560 0.93650 0.10800
C 	C 	0.90240 0.01610 0.68950 0.29800
C 	C 	0.01210 0.07220 0.69320 -0.04800
C 	C 	0.05310 0.09580 0.61100 -0.04500
C 	C 	0.15920 0.13390 0.61480 -0.00400
C 	C 	0.22660 0.15030 0.70010 -0.08000
C 	C 	0.18460 0.13000 0.78440 -0.01500
C 	C 	0.07780 0.09310 0.78080 -0.03700
C 	C 	0.34640 0.18180 0.70560 0.30800
C 	C 	0.58330 0.98890 0.82140 0.36100
C 	C 	0.53870 0.99620 0.91370 -0.09000
C 	C 	0.49940 0.90950 0.95260 -0.02700
C 	C 	0.46070 0.91330 0.03800 0.00000
N 	N 	0.85560 0.61630 0.74510 -0.18200
N 	N 	0.77270 0.76110 0.71580 -0.19900
N 	N 	0.69360 0.69190 0.73670 -0.12400
N 	N 	0.31300 0.84910 0.55020 -0.18900
N 	N 	0.35700 0.93730 0.43340 -0.20800
N 	N 	0.35270 0.83440 0.40640 -0.22200
N 	N 	0.14490 0.71200 0.06940 -0.17400
N 	N 	0.29810 0.71730 0.17160 -0.22700
N 	N 	0.29330 0.62410 0.12310 -0.11000
N 	N 	0.14440 0.38370 0.25490 -0.18200
N 	N 	0.22730 0.23890 0.28420 -0.19900
N 	N 	0.30640 0.30810 0.26330 -0.12400
N 	N 	0.68700 0.15090 0.44980 -0.18900
N 	N 	0.64300 0.06270 0.56660 -0.20800
N 	N 	0.64730 0.16560 0.59360 -0.22200
N 	N 	0.85510 0.28800 0.93060 -0.17400
N 	N 	0.70190 0.28270 0.82840 -0.22700
N 	N 	0.70670 0.37590 0.87690 -0.11000
O 	O 	0.22920 0.51380 0.84770 -0.24300
O 	O 	0.38720 0.69740 0.85870 -0.26500
O 	O 	0.75950 0.63380 0.98020 -0.24500
O 	O 	0.13360 0.03550 0.38360 -0.38700
O 	O 	0.14790 0.97860 0.24120 -0.37500
O 	O 	0.60480 0.83980 0.36370 -0.41300
O 	O 	0.60390 0.77580 0.22130 -0.40200
O 	O 	0.40100 0.09850 0.21020 -0.43500
O 	O 	0.39120 0.93250 0.21830 -0.47800
O 	O 	0.77080 0.48620 0.15230 -0.24300
O 	O 	0.61280 0.30260 0.14130 -0.26500
O 	O 	0.24050 0.36620 0.01980 -0.24500
O 	O 	0.86640 0.96450 0.61640 -0.38700
O 	O 	0.85210 0.02140 0.75880 -0.37500
O 	O 	0.39520 0.16020 0.63630 -0.41300
O 	O 	0.39610 0.22420 0.77870 -0.40200
O 	O 	0.59900 0.90150 0.78980 -0.43500
O 	O 	0.60880 0.06750 0.78170 -0.47800
