data_crystal

_cell_length_a 14.95000
_cell_length_b 18.82840
_cell_length_c 30.34800
_cell_angle_alpha 99.27970
_cell_angle_beta  90.00000
_cell_angle_gamma 113.39100

_symmetry_space_group_name_	'P 1'
_symmetry_space_group_name_H-M	'P 1'

loop_
_symmetry_equiv_pos_as_xyz
  x,y,z

loop_
_atom_site_label
_atom_site_type_symbol
_atom_site_fract_x
_atom_site_fract_y
_atom_site_fract_z
_atom_site_charge
Zn	Zn	0.22673 0.25928 0.05641 1.16500
Zn	Zn	0.29138 0.83466 0.90566 1.16500
Zn	Zn	0.96618 0.65494 0.72997 1.16300
Zn	Zn	0.03255 0.25928 0.55641 1.16500
Zn	Zn	0.54328 0.83466 0.40566 1.16500
Zn	Zn	0.68876 0.65494 0.22997 1.16400
H 	H 	0.10490 0.16080 0.11630 -0.01600
H 	H 	0.95550 0.06280 0.11830 0.08600
H 	H 	0.89980 0.05340 0.98830 0.07600
H 	H 	0.05230 0.15420 0.98810 0.00100
H 	H 	0.57160 0.66860 0.15440 -0.01700
H 	H 	0.58410 0.74700 0.10160 0.09300
H 	H 	0.85760 0.87140 0.14960 0.10000
H 	H 	0.84300 0.77680 0.19090 -0.04300
H 	H 	0.49680 0.96540 0.93260 -0.01200
H 	H 	0.63640 0.98600 0.97190 0.07900
H 	H 	0.48090 0.79300 0.02490 0.08400
H 	H 	0.35010 0.77560 0.97930 -0.01900
H 	H 	0.46520 0.81960 0.86390 -0.00700
H 	H 	0.51070 0.73760 0.81540 0.09800
H 	H 	0.22450 0.60980 0.77700 0.08000
H 	H 	0.18760 0.68740 0.83540 -0.01000
H 	H 	0.82910 0.71900 0.77010 -0.02100
H 	H 	0.66840 0.69820 0.76930 0.08900
H 	H 	0.61630 0.51780 0.66670 0.08200
H 	H 	0.77910 0.53980 0.67520 -0.01400
H 	H 	0.05040 0.37920 0.63890 -0.00200
H 	H 	0.17170 0.47640 0.69080 0.09200
H 	H 	0.37440 0.42560 0.61970 0.08800
H 	H 	0.24830 0.33160 0.57110 -0.00300
H 	H 	0.05590 0.16080 0.61630 -0.01700
H 	H 	0.10730 0.06280 0.61830 0.08800
H 	H 	0.15360 0.05340 0.48830 0.07800
H 	H 	0.10190 0.15420 0.48810 -0.00200
H 	H 	0.09700 0.66860 0.65440 -0.01600
H 	H 	0.16290 0.74700 0.60160 0.09200
H 	H 	0.01380 0.87140 0.64960 0.09900
H 	H 	0.93380 0.77680 0.69090 -0.04100
H 	H 	0.46860 0.96540 0.43260 -0.01200
H 	H 	0.34960 0.98600 0.47190 0.08000
H 	H 	0.31210 0.79300 0.52490 0.08400
H 	H 	0.42550 0.77560 0.47930 -0.01900
H 	H 	0.35440 0.81960 0.36390 -0.00700
H 	H 	0.22690 0.73760 0.31540 0.09800
H 	H 	0.38530 0.60980 0.27700 0.08000
H 	H 	0.49980 0.68740 0.33540 -0.01000
H 	H 	0.88990 0.71900 0.27010 -0.02000
H 	H 	0.02980 0.69820 0.26930 0.09000
H 	H 	0.90150 0.51780 0.16670 0.08300
H 	H 	0.76070 0.53980 0.17520 -0.01400
H 	H 	0.32880 0.37920 0.13890 -0.00200
H 	H 	0.30470 0.47640 0.19080 0.09200
H 	H 	0.05120 0.42560 0.11970 0.08800
H 	H 	0.08330 0.33160 0.07110 -0.00400
C 	C 	0.06290 0.13880 0.08970 0.07600
C 	C 	0.97640 0.07880 0.09050 -0.12100
C 	C 	0.91610 0.04000 0.05240 0.05200
C 	C 	0.94280 0.07300 0.01460 -0.11000
C 	C 	0.03210 0.13480 0.01500 0.06200
C 	C 	0.82120 0.97160 0.05280 0.08700
C 	C 	0.73190 0.87100 0.08610 0.09200
C 	C 	0.66360 0.90400 0.03100 0.08600
C 	C 	0.63190 0.71160 0.15300 0.08900
C 	C 	0.63870 0.75880 0.12180 -0.14200
C 	C 	0.72200 0.82100 0.11980 0.09800
C 	C 	0.79650 0.82800 0.14850 -0.17000
C 	C 	0.78620 0.77460 0.17570 0.14700
C 	C 	0.49560 0.92780 0.95030 0.08700
C 	C 	0.57840 0.94180 0.97440 -0.13400
C 	C 	0.57860 0.89180 0.00240 0.06000
C 	C 	0.48740 0.82820 0.00470 -0.12900
C 	C 	0.41020 0.81900 0.97770 0.08600
C 	C 	0.41530 0.77300 0.84800 0.08500
C 	C 	0.44370 0.72840 0.81730 -0.13200
C 	C 	0.37190 0.66820 0.78850 0.06400
C 	C 	0.27540 0.65200 0.79560 -0.12900
C 	C 	0.25430 0.69840 0.83070 0.06900
C 	C 	0.39880 0.62020 0.75100 0.10300
C 	C 	0.51820 0.59300 0.71650 0.11000
C 	C 	0.35830 0.52240 0.69130 0.08100
C 	C 	0.78430 0.67640 0.74930 0.08700
C 	C 	0.68940 0.66560 0.74850 -0.13300
C 	C 	0.62320 0.60660 0.71700 0.06300
C 	C 	0.65860 0.55920 0.68890 -0.12800
C 	C 	0.75580 0.57340 0.69380 0.08100
C 	C 	0.11700 0.38820 0.63560 0.06500
C 	C 	0.18890 0.44680 0.66650 -0.12400
C 	C 	0.28380 0.45940 0.66040 0.05200
C 	C 	0.30820 0.41660 0.62450 -0.12500
C 	C 	0.23240 0.36060 0.59620 0.08200
C 	C 	0.07590 0.13880 0.58970 0.08300
C 	C 	0.10240 0.07880 0.59050 -0.12900
C 	C 	0.12390 0.04000 0.55240 0.05300
C 	C 	0.13020 0.07300 0.51460 -0.11900
C 	C 	0.10270 0.13480 0.51500 0.07100
C 	C 	0.15040 0.97160 0.55280 0.08900
C 	C 	0.13910 0.87100 0.58610 0.09300
C 	C 	0.24040 0.90400 0.53100 0.08600
C 	C 	0.07970 0.71160 0.65300 0.08800
C 	C 	0.12010 0.75880 0.62180 -0.13900
C 	C 	0.09900 0.82100 0.61980 0.09600
C 	C 	0.03150 0.82800 0.64850 -0.16300
C 	C 	0.98840 0.77460 0.67570 0.13900
C 	C 	0.43220 0.92780 0.45030 0.08700
C 	C 	0.36340 0.94180 0.47440 -0.13300
C 	C 	0.31320 0.89180 0.50240 0.06000
C 	C 	0.34080 0.82820 0.50470 -0.12800
C 	C 	0.40880 0.81900 0.47770 0.08500
C 	C 	0.35770 0.77300 0.34800 0.08500
C 	C 	0.28470 0.72840 0.31730 -0.13200
C 	C 	0.29630 0.66820 0.28850 0.06400
C 	C 	0.37660 0.65200 0.29560 -0.12900
C 	C 	0.44410 0.69840 0.33070 0.06900
C 	C 	0.22140 0.62020 0.25100 0.10300
C 	C 	0.07480 0.59300 0.21650 0.11000
C 	C 	0.16410 0.52240 0.19130 0.08100
C 	C 	0.89210 0.67640 0.24930 0.08700
C 	C 	0.97620 0.66560 0.24850 -0.13300
C 	C 	0.98340 0.60660 0.21700 0.06400
C 	C 	0.90060 0.55920 0.18890 -0.12800
C 	C 	0.81760 0.57340 0.19380 0.08100
C 	C 	0.27120 0.38820 0.13560 0.06500
C 	C 	0.25790 0.44680 0.16650 -0.12400
C 	C 	0.17560 0.45940 0.16040 0.05200
C 	C 	0.10840 0.41660 0.12450 -0.12500
C 	C 	0.12820 0.36060 0.09620 0.08200
I 	I 	0.24876 0.30424 0.98247 -0.37700
I 	I 	0.34094 0.21742 0.09657 -0.38200
I 	I 	0.31972 0.95120 0.86706 -0.35100
I 	I 	0.14406 0.75872 0.94483 -0.37600
I 	I 	0.03098 0.74064 0.80584 -0.40400
I 	I 	0.99654 0.53242 0.70462 -0.38100
I 	I 	0.05548 0.30424 0.48247 -0.37800
I 	I 	0.87648 0.21742 0.59657 -0.38000
I 	I 	0.63148 0.95120 0.36706 -0.35200
I 	I 	0.61466 0.75872 0.44483 -0.37700
I 	I 	0.70966 0.74064 0.30584 -0.40700
I 	I 	0.53588 0.53242 0.20462 -0.38000
N 	N 	0.09190 0.16840 0.05280 -0.27100
N 	N 	0.81870 0.92760 0.08460 -0.13300
N 	N 	0.65030 0.85700 0.06090 -0.13300
N 	N 	0.74930 0.96120 0.02380 -0.14600
N 	N 	0.70690 0.72400 0.18130 -0.29700
N 	N 	0.41210 0.86520 0.94950 -0.27900
N 	N 	0.32260 0.75820 0.85850 -0.27400
N 	N 	0.49560 0.63920 0.74890 -0.13400
N 	N 	0.45640 0.53680 0.68800 -0.13900
N 	N 	0.32950 0.56300 0.72480 -0.14100
N 	N 	0.81880 0.63200 0.72330 -0.27900
N 	N 	0.13930 0.34440 0.60150 -0.27300
N 	N 	0.07650 0.16840 0.55280 -0.27400
N 	N 	0.10890 0.92760 0.58460 -0.13200
N 	N 	0.20670 0.85700 0.56090 -0.13300
N 	N 	0.21190 0.96120 0.52380 -0.14500
N 	N 	0.01710 0.72400 0.68130 -0.29400
N 	N 	0.45310 0.86520 0.44950 -0.27900
N 	N 	0.43560 0.75820 0.35850 -0.27400
N 	N 	0.14360 0.63920 0.24890 -0.13400
N 	N 	0.08040 0.53680 0.18800 -0.13900
N 	N 	0.23350 0.56300 0.22480 -0.14100
N 	N 	0.81320 0.63200 0.22330 -0.27900
N 	N 	0.20510 0.34440 0.10150 -0.27300
Zn	Zn	0.96745 0.74072 0.44359 1.16600
Zn	Zn	0.45672 0.16534 0.59434 1.16600
Zn	Zn	0.31124 0.34506 0.77003 1.16500
Zn	Zn	0.77327 0.74072 0.94359 1.16600
Zn	Zn	0.70862 0.16534 0.09434 1.16600
Zn	Zn	0.03382 0.34506 0.27003 1.16400
H 	H 	0.94410 0.83920 0.38370 -0.01700
H 	H 	0.89270 0.93720 0.38170 0.08800
H 	H 	0.84640 0.94660 0.51170 0.07800
H 	H 	0.89810 0.84580 0.51190 -0.00200
H 	H 	0.90300 0.33140 0.34560 -0.01600
H 	H 	0.83710 0.25300 0.39840 0.09200
H 	H 	0.98620 0.12860 0.35040 0.09900
H 	H 	0.06620 0.22320 0.30910 -0.04100
H 	H 	0.53140 0.03460 0.56740 -0.01200
H 	H 	0.65040 0.01400 0.52810 0.08000
H 	H 	0.68790 0.20700 0.47510 0.08400
H 	H 	0.57450 0.22440 0.52070 -0.01900
H 	H 	0.64560 0.18040 0.63610 -0.00700
H 	H 	0.77310 0.26240 0.68460 0.09800
H 	H 	0.61470 0.39020 0.72300 0.08000
H 	H 	0.50020 0.31260 0.66460 -0.01000
H 	H 	0.11010 0.28100 0.72990 -0.02000
H 	H 	0.97020 0.30180 0.73070 0.09000
H 	H 	0.09850 0.48220 0.83330 0.08300
H 	H 	0.23930 0.46020 0.82480 -0.01400
H 	H 	0.67120 0.62080 0.86110 -0.00200
H 	H 	0.69530 0.52360 0.80920 0.09200
H 	H 	0.94880 0.57440 0.88030 0.08800
H 	H 	0.91670 0.66840 0.92890 -0.00400
H 	H 	0.89510 0.83920 0.88370 -0.01500
H 	H 	0.04450 0.93720 0.88170 0.08700
H 	H 	0.10020 0.94660 0.01170 0.07600
H 	H 	0.94770 0.84580 0.01190 0.00100
H 	H 	0.42840 0.33140 0.84560 -0.01700
H 	H 	0.41590 0.25300 0.89840 0.09300
H 	H 	0.14240 0.12860 0.85040 0.10000
H 	H 	0.15700 0.22320 0.80910 -0.04300
H 	H 	0.50320 0.03460 0.06740 -0.01200
H 	H 	0.36360 0.01400 0.02810 0.07900
H 	H 	0.51910 0.20700 0.97510 0.08400
H 	H 	0.64990 0.22440 0.02070 -0.01900
H 	H 	0.53480 0.18040 0.13610 -0.00700
H 	H 	0.48930 0.26240 0.18460 0.09800
H 	H 	0.77550 0.39020 0.22300 0.08000
H 	H 	0.81240 0.31260 0.16460 -0.01000
H 	H 	0.17090 0.28100 0.22990 -0.02100
H 	H 	0.33160 0.30180 0.23070 0.08900
H 	H 	0.38370 0.48220 0.33330 0.08200
H 	H 	0.22090 0.46020 0.32480 -0.01400
H 	H 	0.94960 0.62080 0.36110 -0.00200
H 	H 	0.82830 0.52360 0.30920 0.09200
H 	H 	0.62560 0.57440 0.38030 0.08800
H 	H 	0.75170 0.66840 0.42890 -0.00300
C 	C 	0.92410 0.86120 0.41030 0.08300
C 	C 	0.89760 0.92120 0.40950 -0.12900
C 	C 	0.87610 0.96000 0.44760 0.05300
C 	C 	0.86980 0.92700 0.48540 -0.11900
C 	C 	0.89730 0.86520 0.48500 0.07100
C 	C 	0.84960 0.02840 0.44720 0.08900
C 	C 	0.86090 0.12900 0.41390 0.09300
C 	C 	0.75960 0.09600 0.46900 0.08600
C 	C 	0.92030 0.28840 0.34700 0.08800
C 	C 	0.87990 0.24120 0.37820 -0.13900
C 	C 	0.90100 0.17900 0.38020 0.09600
C 	C 	0.96850 0.17200 0.35150 -0.16300
C 	C 	0.01160 0.22540 0.32430 0.13900
C 	C 	0.56780 0.07220 0.54970 0.08700
C 	C 	0.63660 0.05820 0.52560 -0.13300
C 	C 	0.68680 0.10820 0.49760 0.06000
C 	C 	0.65920 0.17180 0.49530 -0.12800
C 	C 	0.59120 0.18100 0.52230 0.08500
C 	C 	0.64230 0.22700 0.65200 0.08500
C 	C 	0.71530 0.27160 0.68270 -0.13200
C 	C 	0.70370 0.33180 0.71150 0.06400
C 	C 	0.62340 0.34800 0.70440 -0.12900
C 	C 	0.55590 0.30160 0.66930 0.06900
C 	C 	0.77860 0.37980 0.74900 0.10300
C 	C 	0.92520 0.40700 0.78350 0.11000
C 	C 	0.83590 0.47760 0.80870 0.08100
C 	C 	0.10790 0.32360 0.75070 0.08700
C 	C 	0.02380 0.33440 0.75150 -0.13300
C 	C 	0.01660 0.39340 0.78300 0.06400
C 	C 	0.09940 0.44080 0.81110 -0.12800
C 	C 	0.18240 0.42660 0.80620 0.08100
C 	C 	0.72880 0.61180 0.86440 0.06500
C 	C 	0.74210 0.55320 0.83350 -0.12400
C 	C 	0.82440 0.54060 0.83960 0.05200
C 	C 	0.89160 0.58340 0.87550 -0.12500
C 	C 	0.87180 0.63940 0.90380 0.08200
C 	C 	0.93710 0.86120 0.91030 0.07600
C 	C 	0.02360 0.92120 0.90950 -0.12100
C 	C 	0.08390 0.96000 0.94760 0.05200
C 	C 	0.05720 0.92700 0.98540 -0.11000
C 	C 	0.96790 0.86520 0.98500 0.06200
C 	C 	0.17880 0.02840 0.94720 0.08700
C 	C 	0.26810 0.12900 0.91390 0.09200
C 	C 	0.33640 0.09600 0.96900 0.08600
C 	C 	0.36810 0.28840 0.84700 0.08900
C 	C 	0.36130 0.24120 0.87820 -0.14200
C 	C 	0.27800 0.17900 0.88020 0.09800
C 	C 	0.20350 0.17200 0.85150 -0.17000
C 	C 	0.21380 0.22540 0.82430 0.14700
C 	C 	0.50440 0.07220 0.04970 0.08700
C 	C 	0.42160 0.05820 0.02560 -0.13400
C 	C 	0.42140 0.10820 0.99760 0.06000
C 	C 	0.51260 0.17180 0.99530 -0.12900
C 	C 	0.58980 0.18100 0.02230 0.08600
C 	C 	0.58470 0.22700 0.15200 0.08500
C 	C 	0.55630 0.27160 0.18270 -0.13200
C 	C 	0.62810 0.33180 0.21150 0.06400
C 	C 	0.72460 0.34800 0.20440 -0.12900
C 	C 	0.74570 0.30160 0.16930 0.06900
C 	C 	0.60120 0.37980 0.24900 0.10300
C 	C 	0.48180 0.40700 0.28350 0.11000
C 	C 	0.64170 0.47760 0.30870 0.08100
C 	C 	0.21570 0.32360 0.25070 0.08700
C 	C 	0.31060 0.33440 0.25150 -0.13300
C 	C 	0.37680 0.39340 0.28300 0.06300
C 	C 	0.34140 0.44080 0.31110 -0.12800
C 	C 	0.24420 0.42660 0.30620 0.08100
C 	C 	0.88300 0.61180 0.36440 0.06500
C 	C 	0.81110 0.55320 0.33350 -0.12400
C 	C 	0.71620 0.54060 0.33960 0.05200
C 	C 	0.69180 0.58340 0.37550 -0.12500
C 	C 	0.76760 0.63940 0.40380 0.08200
I 	I 	0.94452 0.69576 0.51753 -0.37800
I 	I 	0.12352 0.78258 0.40343 -0.38000
I 	I 	0.36852 0.04880 0.63294 -0.35200
I 	I 	0.38534 0.24128 0.55517 -0.37700
I 	I 	0.29034 0.25936 0.69416 -0.40700
I 	I 	0.46412 0.46758 0.79538 -0.38000
I 	I 	0.75124 0.69576 0.01753 -0.37700
I 	I 	0.65906 0.78258 0.90343 -0.38200
I 	I 	0.68028 0.04880 0.13294 -0.35100
I 	I 	0.85594 0.24128 0.05517 -0.37600
I 	I 	0.96902 0.25936 0.19416 -0.40400
I 	I 	0.00346 0.46758 0.29538 -0.38100
N 	N 	0.92350 0.83160 0.44720 -0.27400
N 	N 	0.89110 0.07240 0.41540 -0.13200
N 	N 	0.79330 0.14300 0.43910 -0.13300
N 	N 	0.78810 0.03880 0.47620 -0.14500
N 	N 	0.98290 0.27600 0.31870 -0.29400
N 	N 	0.54690 0.13480 0.55050 -0.27900
N 	N 	0.56440 0.24180 0.64150 -0.27400
N 	N 	0.85640 0.36080 0.75110 -0.13400
N 	N 	0.91960 0.46320 0.81200 -0.13900
N 	N 	0.76650 0.43700 0.77520 -0.14100
N 	N 	0.18680 0.36800 0.77670 -0.27900
N 	N 	0.79490 0.65560 0.89850 -0.27300
N 	N 	0.90810 0.83160 0.94720 -0.27100
N 	N 	0.18130 0.07240 0.91540 -0.13300
N 	N 	0.34970 0.14300 0.93910 -0.13300
N 	N 	0.25070 0.03880 0.97620 -0.14600
N 	N 	0.29310 0.27600 0.81870 -0.29700
N 	N 	0.58790 0.13480 0.05050 -0.27900
N 	N 	0.67740 0.24180 0.14150 -0.27400
N 	N 	0.50440 0.36080 0.25110 -0.13400
N 	N 	0.54360 0.46320 0.31200 -0.13900
N 	N 	0.67050 0.43700 0.27520 -0.14100
N 	N 	0.18120 0.36800 0.27670 -0.27900
N 	N 	0.86070 0.65560 0.39850 -0.27300
