data_crystal

_cell_length_a 14.90700
_cell_length_b 18.60800
_cell_length_c 32.92000
_cell_angle_alpha 103.26900
_cell_angle_beta  93.08900
_cell_angle_gamma 108.97000

_symmetry_space_group_name_	'P 1'
_symmetry_space_group_name_H-M	'P 1'

loop_
_symmetry_equiv_pos_as_xyz
  x,y,z

loop_
_atom_site_label
_atom_site_type_symbol
_atom_site_fract_x
_atom_site_fract_y
_atom_site_fract_z
_atom_site_charge
Zn	Zn	0.20144 0.73505 0.06710 1.16400
Zn	Zn	0.67197 0.16433 0.22129 1.16200
Zn	Zn	0.29991 0.33012 0.89888 1.16600
Zn	Zn	0.96467 0.14478 0.72896 1.16000
Zn	Zn	0.48076 0.22937 0.42815 1.16300
Zn	Zn	0.04417 0.73926 0.55287 1.16400
H 	H 	0.31850 0.88050 0.13610 -0.01400
H 	H 	0.30190 0.98220 0.18430 0.10000
H 	H 	0.02770 0.90950 0.13220 0.08600
H 	H 	0.05620 0.81220 0.08280 -0.00300
H 	H 	0.27890 0.21740 0.39590 0.00800
H 	H 	0.17560 0.17230 0.33400 0.09100
H 	H 	0.38830 0.13470 0.27220 0.07500
H 	H 	0.49150 0.18660 0.33570 -0.00600
H 	H 	0.75570 0.05320 0.16940 -0.01600
H 	H 	0.89230 0.02280 0.17160 0.08000
H 	H 	0.01590 0.21130 0.27020 0.08500
H 	H 	0.86590 0.22700 0.27000 -0.01400
H 	H 	0.79920 0.31170 0.20900 -0.02900
H 	H 	0.82380 0.39250 0.16400 0.09300
H 	H 	0.58320 0.24270 0.09380 0.09900
H 	H 	0.57080 0.16340 0.13800 -0.02800
H 	H 	0.03210 0.62120 0.00390 -0.00600
H 	H 	0.88470 0.52710 0.00250 0.07300
H 	H 	0.94230 0.56040 0.12790 0.08500
H 	H 	0.08960 0.65590 0.12610 -0.01200
H 	H 	0.35870 0.26460 0.96640 -0.00800
H 	H 	0.49120 0.27880 0.01080 0.07800
H 	H 	0.63090 0.48260 0.98210 0.07100
H 	H 	0.49970 0.45610 0.93170 -0.00200
H 	H 	0.46250 0.29070 0.87070 -0.00400
H 	H 	0.50740 0.21180 0.81700 0.09600
H 	H 	0.22650 0.08750 0.77600 0.08600
H 	H 	0.19110 0.17630 0.82980 -0.01100
H 	H 	0.78130 0.02410 0.67260 -0.01300
H 	H 	0.61730 0.99590 0.66980 0.08000
H 	H 	0.66360 0.16720 0.77720 0.08200
H 	H 	0.82360 0.19730 0.77650 -0.01000
H 	H 	0.06140 0.85540 0.63670 -0.00900
H 	H 	0.17260 0.94640 0.69020 0.09500
H 	H 	0.37960 0.89540 0.62670 0.07500
H 	H 	0.25620 0.79880 0.57470 -0.01500
H 	H 	0.08280 0.13960 0.65810 -0.00900
H 	H 	0.15010 0.21490 0.61420 0.07800
H 	H 	0.00600 0.36270 0.65680 0.07400
H 	H 	0.94960 0.28420 0.70520 -0.01300
H 	H 	0.45000 0.38390 0.46370 -0.01900
H 	H 	0.35860 0.43260 0.50520 0.08600
H 	H 	0.24700 0.22310 0.53050 0.08300
H 	H 	0.34660 0.17780 0.48940 -0.01200
H 	H 	0.03170 0.63810 0.61130 -0.01900
H 	H 	0.05850 0.52620 0.61890 0.08500
H 	H 	0.15000 0.50560 0.50390 0.08000
H 	H 	0.10980 0.61730 0.50010 -0.01500
C 	C 	0.25700 0.88530 0.13610 0.09900
C 	C 	0.24840 0.94670 0.16450 -0.14700
C 	C 	0.16260 0.95700 0.16440 0.06000
C 	C 	0.08900 0.90440 0.13370 -0.12900
C 	C 	0.10530 0.84510 0.10540 0.07800
C 	C 	0.14880 0.02110 0.19540 0.08900
C 	C 	0.20230 0.11430 0.25650 0.10100
C 	C 	0.06120 0.09360 0.22180 0.10700
C 	C 	0.30200 0.20080 0.37040 0.05500
C 	C 	0.23990 0.17400 0.33360 -0.11300
C 	C 	0.27140 0.14950 0.29630 0.05200
C 	C 	0.36520 0.15270 0.29750 -0.11200
C 	C 	0.42630 0.18250 0.33580 0.06100
C 	C 	0.80720 0.08410 0.19130 0.07500
C 	C 	0.89050 0.06780 0.19170 -0.12500
C 	C 	0.97050 0.11290 0.21940 0.06000
C 	C 	0.96300 0.17630 0.24990 -0.12100
C 	C 	0.87250 0.18560 0.24870 0.07200
C 	C 	0.75450 0.29700 0.18420 0.09500
C 	C 	0.76930 0.34570 0.15780 -0.14300
C 	C 	0.70420 0.32610 0.12220 0.09300
C 	C 	0.63160 0.25880 0.11730 -0.16300
C 	C 	0.62280 0.21200 0.14420 0.12600
C 	C 	0.71530 0.37180 0.09020 0.10600
C 	C 	0.80770 0.46460 0.06380 0.10000
C 	C 	0.65680 0.39880 0.03610 0.10000
C 	C 	0.01300 0.60960 0.02940 0.06600
C 	C 	0.92680 0.55210 0.02830 -0.11000
C 	C 	0.90070 0.53010 0.06510 0.04600
C 	C 	0.95950 0.57110 0.10200 -0.11300
C 	C 	0.04630 0.62960 0.10080 0.07000
C 	C 	0.41550 0.30830 0.96860 0.05900
C 	C 	0.49290 0.31790 0.99640 -0.11100
C 	C 	0.57280 0.38420 0.00330 0.04500
C 	C 	0.57590 0.43690 0.97870 -0.10700
C 	C 	0.49660 0.42110 0.94900 0.06000
C 	C 	0.41370 0.24970 0.85070 0.07300
C 	C 	0.44150 0.20310 0.81910 -0.12400
C 	C 	0.37000 0.14250 0.79010 0.06700
C 	C 	0.27650 0.13030 0.79460 -0.13400
C 	C 	0.25630 0.18290 0.82740 0.07700
C 	C 	0.39820 0.09060 0.75540 0.09600
C 	C 	0.51620 0.06140 0.72350 0.10300
C 	C 	0.36380 0.99030 0.69640 0.08100
C 	C 	0.75700 0.05450 0.69340 0.06700
C 	C 	0.65940 0.03740 0.69200 -0.11400
C 	C 	0.62120 0.08010 0.72300 0.05300
C 	C 	0.68610 0.13850 0.75480 -0.11300
C 	C 	0.78080 0.15530 0.75470 0.05600
C 	C 	0.12710 0.86450 0.63420 0.07800
C 	C 	0.19210 0.91870 0.66640 -0.13300
C 	C 	0.28910 0.93210 0.66300 0.05800
C 	C 	0.31420 0.88820 0.62910 -0.11400
C 	C 	0.23980 0.83140 0.59760 0.06700
C 	C 	0.06770 0.18540 0.65800 0.06400
C 	C 	0.10650 0.22950 0.63150 -0.10500
C 	C 	0.08370 0.29630 0.62900 0.04400
C 	C 	0.02340 0.31780 0.65670 -0.09100
C 	C 	0.98820 0.26940 0.68520 0.04800
C 	C 	0.12550 0.34140 0.60020 0.11000
C 	C 	0.22320 0.35870 0.55010 0.09000
C 	C 	0.14050 0.44080 0.56920 0.09900
C 	C 	0.40720 0.35030 0.47750 0.08600
C 	C 	0.35400 0.37930 0.50170 -0.13000
C 	C 	0.28840 0.33010 0.52300 0.06700
C 	C 	0.28890 0.25750 0.51690 -0.12800
C 	C 	0.34700 0.22980 0.49190 0.07100
C 	C 	0.05570 0.61020 0.58920 0.08200
C 	C 	0.07330 0.54480 0.59460 -0.12200
C 	C 	0.11280 0.50740 0.56370 0.06200
C 	C 	0.12620 0.53220 0.52660 -0.11800
C 	C 	0.10200 0.59940 0.52490 0.08600
I 	I 	0.32843 0.70150 0.10322 -0.39200
I 	I 	0.21229 0.75712 0.99385 -0.36300
I 	I 	0.53017 0.03892 0.18940 -0.38000
I 	I 	0.67843 0.25035 0.29478 -0.37100
I 	I 	0.15581 0.27297 0.93257 -0.37900
I 	I 	0.32759 0.44172 0.86321 -0.35300
I 	I 	0.03527 0.24113 0.80167 -0.39600
I 	I 	0.01394 0.02345 0.70947 -0.37600
I 	I 	0.63914 0.33026 0.42521 -0.37400
I 	I 	0.46911 0.09226 0.43642 -0.36100
I 	I 	0.88270 0.72657 0.57748 -0.38300
I 	I 	0.07970 0.76753 0.48241 -0.36900
N 	N 	0.18740 0.83190 0.10850 -0.28000
N 	N 	0.21890 0.05900 0.22770 -0.14100
N 	N 	0.12670 0.13730 0.25510 -0.13500
N 	N 	0.06800 0.03680 0.19070 -0.13900
N 	N 	0.39630 0.20520 0.37220 -0.27100
N 	N 	0.79610 0.14200 0.22070 -0.28400
N 	N 	0.68130 0.23100 0.17690 -0.28900
N 	N 	0.80410 0.42800 0.09330 -0.13200
N 	N 	0.73840 0.45500 0.03340 -0.15000
N 	N 	0.64240 0.35530 0.06290 -0.13900
N 	N 	0.07030 0.64960 0.06560 -0.26900
N 	N 	0.41560 0.35810 0.94400 -0.26800
N 	N 	0.32310 0.24150 0.85540 -0.27500
N 	N 	0.49370 0.10880 0.75490 -0.13300
N 	N 	0.45470 0.00280 0.69280 -0.13800
N 	N 	0.32900 0.03460 0.72770 -0.13700
N 	N 	0.81800 0.11420 0.72430 -0.27200
N 	N 	0.14750 0.82260 0.59930 -0.27600
N 	N 	0.00910 0.20480 0.68380 -0.26700
N 	N 	0.18710 0.31680 0.57730 -0.13700
N 	N 	0.20040 0.42050 0.54360 -0.13600
N 	N 	0.10300 0.40440 0.59770 -0.13600
N 	N 	0.40480 0.27530 0.47080 -0.27900
N 	N 	0.07010 0.63730 0.55510 -0.27800
Zn	Zn	0.79856 0.26495 0.93290 1.16500
Zn	Zn	0.32803 0.83567 0.77871 1.16300
Zn	Zn	0.70009 0.66988 0.10112 1.16700
Zn	Zn	0.03533 0.85522 0.27104 1.16100
Zn	Zn	0.51924 0.77063 0.57185 1.16300
Zn	Zn	0.95583 0.26074 0.44713 1.16400
H 	H 	0.68150 0.11950 0.86390 -0.01400
H 	H 	0.69810 0.01780 0.81570 0.10000
H 	H 	0.97230 0.09050 0.86780 0.08600
H 	H 	0.94380 0.18780 0.91720 -0.00300
H 	H 	0.72110 0.78260 0.60410 0.00800
H 	H 	0.82440 0.82770 0.66600 0.09100
H 	H 	0.61170 0.86530 0.72780 0.07500
H 	H 	0.50850 0.81340 0.66430 -0.00600
H 	H 	0.24430 0.94680 0.83060 -0.01600
H 	H 	0.10770 0.97720 0.82840 0.08000
H 	H 	0.98410 0.78870 0.72980 0.08500
H 	H 	0.13410 0.77300 0.73000 -0.01400
H 	H 	0.20080 0.68830 0.79100 -0.02900
H 	H 	0.17620 0.60750 0.83600 0.09300
H 	H 	0.41680 0.75730 0.90620 0.09900
H 	H 	0.42920 0.83660 0.86200 -0.02800
H 	H 	0.96790 0.37880 0.99610 -0.00600
H 	H 	0.11530 0.47290 0.99750 0.07300
H 	H 	0.05770 0.43960 0.87210 0.08500
H 	H 	0.91040 0.34410 0.87390 -0.01200
H 	H 	0.64130 0.73540 0.03360 -0.00800
H 	H 	0.50880 0.72120 0.98920 0.07800
H 	H 	0.36910 0.51740 0.01790 0.07100
H 	H 	0.50030 0.54390 0.06830 -0.00200
H 	H 	0.53750 0.70930 0.12930 -0.00400
H 	H 	0.49260 0.78820 0.18300 0.09600
H 	H 	0.77350 0.91250 0.22400 0.08600
H 	H 	0.80890 0.82370 0.17020 -0.01100
H 	H 	0.21870 0.97590 0.32740 -0.01300
H 	H 	0.38270 0.00410 0.33020 0.08000
H 	H 	0.33640 0.83280 0.22280 0.08200
H 	H 	0.17640 0.80270 0.22350 -0.01000
H 	H 	0.93860 0.14460 0.36330 -0.00900
H 	H 	0.82740 0.05360 0.30980 0.09500
H 	H 	0.62040 0.10460 0.37330 0.07500
H 	H 	0.74380 0.20120 0.42530 -0.01500
H 	H 	0.91720 0.86040 0.34190 -0.00900
H 	H 	0.84990 0.78510 0.38580 0.07800
H 	H 	0.99400 0.63730 0.34320 0.07400
H 	H 	0.05040 0.71580 0.29480 -0.01300
H 	H 	0.55000 0.61610 0.53630 -0.01900
H 	H 	0.64140 0.56740 0.49480 0.08600
H 	H 	0.75300 0.77690 0.46950 0.08300
H 	H 	0.65340 0.82220 0.51060 -0.01200
H 	H 	0.96830 0.36190 0.38870 -0.01900
H 	H 	0.94150 0.47380 0.38110 0.08500
H 	H 	0.85000 0.49440 0.49610 0.08000
H 	H 	0.89020 0.38270 0.49990 -0.01500
C 	C 	0.74300 0.11470 0.86390 0.09900
C 	C 	0.75160 0.05330 0.83550 -0.14700
C 	C 	0.83740 0.04300 0.83560 0.06000
C 	C 	0.91100 0.09560 0.86630 -0.12900
C 	C 	0.89470 0.15490 0.89460 0.07800
C 	C 	0.85120 0.97890 0.80460 0.08900
C 	C 	0.79770 0.88570 0.74350 0.10100
C 	C 	0.93880 0.90640 0.77820 0.10700
C 	C 	0.69800 0.79920 0.62960 0.05500
C 	C 	0.76010 0.82600 0.66640 -0.11300
C 	C 	0.72860 0.85050 0.70370 0.05200
C 	C 	0.63480 0.84730 0.70250 -0.11200
C 	C 	0.57370 0.81750 0.66420 0.06100
C 	C 	0.19280 0.91590 0.80870 0.07500
C 	C 	0.10950 0.93220 0.80830 -0.12500
C 	C 	0.02950 0.88710 0.78060 0.06000
C 	C 	0.03700 0.82370 0.75010 -0.12100
C 	C 	0.12750 0.81440 0.75130 0.07200
C 	C 	0.24550 0.70300 0.81580 0.09500
C 	C 	0.23070 0.65430 0.84220 -0.14300
C 	C 	0.29580 0.67390 0.87780 0.09300
C 	C 	0.36840 0.74120 0.88270 -0.16300
C 	C 	0.37720 0.78800 0.85580 0.12600
C 	C 	0.28470 0.62820 0.90980 0.10600
C 	C 	0.19230 0.53540 0.93620 0.10000
C 	C 	0.34320 0.60120 0.96390 0.10000
C 	C 	0.98700 0.39040 0.97060 0.06600
C 	C 	0.07320 0.44790 0.97170 -0.11000
C 	C 	0.09930 0.46990 0.93490 0.04600
C 	C 	0.04050 0.42890 0.89800 -0.11300
C 	C 	0.95370 0.37040 0.89920 0.07000
C 	C 	0.58450 0.69170 0.03140 0.05900
C 	C 	0.50710 0.68210 0.00360 -0.11100
C 	C 	0.42720 0.61580 0.99670 0.04500
C 	C 	0.42410 0.56310 0.02130 -0.10700
C 	C 	0.50340 0.57890 0.05100 0.06000
C 	C 	0.58630 0.75030 0.14930 0.07300
C 	C 	0.55850 0.79690 0.18090 -0.12400
C 	C 	0.63000 0.85750 0.20990 0.06700
C 	C 	0.72350 0.86970 0.20540 -0.13400
C 	C 	0.74370 0.81710 0.17260 0.07700
C 	C 	0.60180 0.90940 0.24460 0.09600
C 	C 	0.48380 0.93860 0.27650 0.10300
C 	C 	0.63620 0.00970 0.30360 0.08100
C 	C 	0.24300 0.94550 0.30660 0.06700
C 	C 	0.34060 0.96260 0.30800 -0.11400
C 	C 	0.37880 0.91990 0.27700 0.05300
C 	C 	0.31390 0.86150 0.24520 -0.11300
C 	C 	0.21920 0.84470 0.24530 0.05600
C 	C 	0.87290 0.13550 0.36580 0.07800
C 	C 	0.80790 0.08130 0.33360 -0.13300
C 	C 	0.71090 0.06790 0.33700 0.05800
C 	C 	0.68580 0.11180 0.37090 -0.11400
C 	C 	0.76020 0.16860 0.40240 0.06700
C 	C 	0.93230 0.81460 0.34200 0.06400
C 	C 	0.89350 0.77050 0.36850 -0.10500
C 	C 	0.91630 0.70370 0.37100 0.04400
C 	C 	0.97660 0.68220 0.34330 -0.09100
C 	C 	0.01180 0.73060 0.31480 0.04800
C 	C 	0.87450 0.65860 0.39980 0.11000
C 	C 	0.77680 0.64130 0.44990 0.09000
C 	C 	0.85950 0.55920 0.43080 0.09900
C 	C 	0.59280 0.64970 0.52250 0.08600
C 	C 	0.64600 0.62070 0.49830 -0.13000
C 	C 	0.71160 0.66990 0.47700 0.06700
C 	C 	0.71110 0.74250 0.48310 -0.12800
C 	C 	0.65300 0.77020 0.50810 0.07100
C 	C 	0.94430 0.38980 0.41080 0.08200
C 	C 	0.92670 0.45520 0.40540 -0.12200
C 	C 	0.88720 0.49260 0.43630 0.06200
C 	C 	0.87380 0.46780 0.47340 -0.11800
C 	C 	0.89800 0.40060 0.47510 0.08600
I 	I 	0.67157 0.29850 0.89678 -0.39200
I 	I 	0.78771 0.24288 0.00615 -0.36300
I 	I 	0.46983 0.96108 0.81060 -0.38000
I 	I 	0.32157 0.74965 0.70522 -0.37100
I 	I 	0.84419 0.72703 0.06743 -0.37900
I 	I 	0.67241 0.55828 0.13679 -0.35300
I 	I 	0.96473 0.75887 0.19833 -0.39600
I 	I 	0.98606 0.97655 0.29053 -0.37600
I 	I 	0.36086 0.66974 0.57479 -0.37400
I 	I 	0.53089 0.90774 0.56358 -0.36100
I 	I 	0.11730 0.27343 0.42252 -0.38300
I 	I 	0.92030 0.23247 0.51759 -0.36900
N 	N 	0.81260 0.16810 0.89150 -0.28000
N 	N 	0.78110 0.94100 0.77230 -0.14100
N 	N 	0.87330 0.86270 0.74490 -0.13500
N 	N 	0.93200 0.96320 0.80930 -0.13900
N 	N 	0.60370 0.79480 0.62780 -0.27100
N 	N 	0.20390 0.85800 0.77930 -0.28400
N 	N 	0.31870 0.76900 0.82310 -0.28900
N 	N 	0.19590 0.57200 0.90670 -0.13200
N 	N 	0.26160 0.54500 0.96660 -0.15000
N 	N 	0.35760 0.64470 0.93710 -0.13900
N 	N 	0.92970 0.35040 0.93440 -0.26900
N 	N 	0.58440 0.64190 0.05600 -0.26800
N 	N 	0.67690 0.75850 0.14460 -0.27500
N 	N 	0.50630 0.89120 0.24510 -0.13300
N 	N 	0.54530 0.99720 0.30720 -0.13800
N 	N 	0.67100 0.96540 0.27230 -0.13700
N 	N 	0.18200 0.88580 0.27570 -0.27200
N 	N 	0.85250 0.17740 0.40070 -0.27600
N 	N 	0.99090 0.79520 0.31620 -0.26700
N 	N 	0.81290 0.68320 0.42270 -0.13700
N 	N 	0.79960 0.57950 0.45640 -0.13600
N 	N 	0.89700 0.59560 0.40230 -0.13600
N 	N 	0.59520 0.72470 0.52920 -0.27900
N 	N 	0.92990 0.36270 0.44490 -0.27800
