data_crystal

_cell_length_a 14.87900
_cell_length_b 19.29300
_cell_length_c 30.53800
_cell_angle_alpha 102.12000
_cell_angle_beta  90.00000
_cell_angle_gamma 112.68100

_symmetry_space_group_name_	'P 1'
_symmetry_space_group_name_H-M	'P 1'

loop_
_symmetry_equiv_pos_as_xyz
  x,y,z

loop_
_atom_site_label
_atom_site_type_symbol
_atom_site_fract_x
_atom_site_fract_y
_atom_site_fract_z
_atom_site_charge
Zn	Zn	0.54185 0.82996 0.41172 1.16400
Zn	Zn	0.02446 0.23952 0.55775 1.16600
Zn	Zn	0.96184 0.65460 0.73153 1.16200
Zn	Zn	0.28811 0.82996 0.91172 1.16400
Zn	Zn	0.21506 0.23952 0.05775 1.16600
Zn	Zn	0.69276 0.65460 0.23153 1.16200
H 	H 	0.41500 0.76520 0.48080 -0.01700
H 	H 	0.30820 0.78760 0.53110 0.08500
H 	H 	0.34030 0.97440 0.48360 0.07600
H 	H 	0.45700 0.95320 0.44010 -0.01400
H 	H 	0.92880 0.77820 0.69590 -0.01700
H 	H 	0.99490 0.85840 0.64790 0.08100
H 	H 	0.19750 0.77060 0.62470 0.08200
H 	H 	0.12180 0.68540 0.66910 -0.01200
H 	H 	0.10110 0.13280 0.49580 -0.00400
H 	H 	0.14900 0.03420 0.49720 0.07700
H 	H 	0.07860 0.04580 0.62610 0.08300
H 	H 	0.02470 0.13980 0.61860 -0.01300
H 	H 	0.04050 0.35780 0.64550 0.00300
H 	H 	0.16140 0.46100 0.69330 0.08800
H 	H 	0.36730 0.41820 0.61980 0.07900
H 	H 	0.23910 0.32240 0.56730 0.00700
H 	H 	0.45650 0.80020 0.87820 0.00400
H 	H 	0.50220 0.72620 0.81720 0.09200
H 	H 	0.21430 0.60460 0.77940 0.08400
H 	H 	0.17900 0.68060 0.84160 -0.02100
H 	H 	0.77080 0.53180 0.67700 -0.00700
H 	H 	0.60800 0.51400 0.66780 0.07800
H 	H 	0.66120 0.69860 0.76820 0.08400
H 	H 	0.82470 0.72400 0.76840 -0.01700
H 	H 	0.35020 0.76520 0.98080 -0.01600
H 	H 	0.47940 0.78760 0.03110 0.08600
H 	H 	0.63410 0.97440 0.98360 0.07600
H 	H 	0.49620 0.95320 0.94010 -0.01300
H 	H 	0.84940 0.77820 0.19590 -0.01900
H 	H 	0.86350 0.85840 0.14790 0.08800
H 	H 	0.57310 0.77060 0.12470 0.08400
H 	H 	0.56360 0.68540 0.16910 -0.01200
H 	H 	0.03170 0.13280 0.99580 -0.00100
H 	H 	0.88520 0.03420 0.99720 0.07500
H 	H 	0.96720 0.04580 0.12610 0.08200
H 	H 	0.11510 0.13980 0.11860 -0.01100
H 	H 	0.31730 0.35780 0.14550 0.00300
H 	H 	0.29960 0.46100 0.19330 0.08800
H 	H 	0.05090 0.41820 0.11980 0.07900
H 	H 	0.08330 0.32240 0.06730 0.00600
H 	H 	0.34370 0.80020 0.37820 0.00400
H 	H 	0.22400 0.72620 0.31720 0.09200
H 	H 	0.39030 0.60460 0.27940 0.08400
H 	H 	0.50160 0.68060 0.34160 -0.02100
H 	H 	0.76100 0.53180 0.17700 -0.00700
H 	H 	0.90600 0.51400 0.16780 0.07900
H 	H 	0.03740 0.69860 0.26820 0.08400
H 	H 	0.89930 0.72400 0.26840 -0.01700
C 	C 	0.40120 0.80980 0.48250 0.07900
C 	C 	0.33550 0.82080 0.51130 -0.13100
C 	C 	0.31030 0.88200 0.51030 0.06700
C 	C 	0.35590 0.93120 0.48400 -0.13500
C 	C 	0.42440 0.91780 0.45800 0.08700
C 	C 	0.23650 0.89640 0.54130 0.09500
C 	C 	0.14360 0.86960 0.59770 0.10900
C 	C 	0.14320 0.96160 0.56350 0.09800
C 	C 	0.98280 0.77480 0.68030 0.07500
C 	C 	0.02250 0.82280 0.65160 -0.11300
C 	C 	0.09820 0.82140 0.62880 0.06400
C 	C 	0.13960 0.77080 0.63770 -0.11200
C 	C 	0.09610 0.72200 0.66510 0.06800
C 	C 	0.09600 0.11460 0.52270 0.07800
C 	C 	0.12380 0.05500 0.52290 -0.12300
C 	C 	0.11530 0.02540 0.56040 0.04400
C 	C 	0.08130 0.06140 0.59840 -0.11300
C 	C 	0.05290 0.11920 0.59400 0.07000
C 	C 	0.10690 0.37060 0.63950 0.05800
C 	C 	0.17910 0.43180 0.66830 -0.11400
C 	C 	0.27650 0.45100 0.66130 0.04000
C 	C 	0.30080 0.40820 0.62460 -0.09900
C 	C 	0.22350 0.34860 0.59420 0.05200
C 	C 	0.35150 0.51460 0.69280 0.08500
C 	C 	0.38960 0.61300 0.75360 0.10100
C 	C 	0.50920 0.58440 0.71790 0.09900
C 	C 	0.40720 0.76020 0.85710 0.05300
C 	C 	0.43540 0.71640 0.82100 -0.11100
C 	C 	0.36210 0.65900 0.79190 0.06200
C 	C 	0.26590 0.64500 0.79920 -0.14000
C 	C 	0.24550 0.69160 0.83620 0.09700
C 	C 	0.74880 0.56800 0.69460 0.06400
C 	C 	0.65090 0.55560 0.69040 -0.11700
C 	C 	0.61420 0.60240 0.71850 0.05900
C 	C 	0.68220 0.66440 0.74790 -0.12200
C 	C 	0.77970 0.67840 0.74880 0.07100
C 	C 	0.40860 0.80980 0.98250 0.07900
C 	C 	0.48530 0.82080 0.01130 -0.13100
C 	C 	0.57170 0.88200 0.01030 0.06700
C 	C 	0.57530 0.93120 0.98400 -0.13500
C 	C 	0.49340 0.91780 0.95800 0.08700
C 	C 	0.65990 0.89640 0.04130 0.09400
C 	C 	0.72600 0.86960 0.09770 0.10600
C 	C 	0.81840 0.96160 0.06350 0.09500
C 	C 	0.79200 0.77480 0.18030 0.08600
C 	C 	0.80030 0.82280 0.15160 -0.12700
C 	C 	0.72320 0.82140 0.12880 0.07000
C 	C 	0.63120 0.77080 0.13770 -0.11700
C 	C 	0.62590 0.72200 0.16510 0.07000
C 	C 	0.01860 0.11460 0.02270 0.06900
C 	C 	0.93120 0.05500 0.02290 -0.11400
C 	C 	0.91010 0.02540 0.06040 0.04300
C 	C 	0.98010 0.06140 0.09840 -0.10600
C 	C 	0.06630 0.11920 0.09400 0.06400
C 	C 	0.26370 0.37060 0.13950 0.05800
C 	C 	0.25270 0.43180 0.16830 -0.11400
C 	C 	0.17450 0.45100 0.16130 0.03900
C 	C 	0.10740 0.40820 0.12460 -0.10000
C 	C 	0.12510 0.34860 0.09420 0.05200
C 	C 	0.16310 0.51460 0.19280 0.08500
C 	C 	0.22340 0.61300 0.25360 0.10100
C 	C 	0.07520 0.58440 0.21790 0.09900
C 	C 	0.35300 0.76020 0.35710 0.05300
C 	C 	0.28100 0.71640 0.32100 -0.11100
C 	C 	0.29690 0.65900 0.29190 0.06200
C 	C 	0.37910 0.64500 0.29920 -0.14000
C 	C 	0.44610 0.69160 0.33620 0.09700
C 	C 	0.81920 0.56800 0.19460 0.06400
C 	C 	0.90470 0.55560 0.19040 -0.11700
C 	C 	0.98820 0.60240 0.21850 0.06100
C 	C 	0.98220 0.66440 0.24790 -0.12200
C 	C 	0.89870 0.67840 0.24880 0.07200
I 	I 	0.62970 0.76996 0.45113 -0.38700
I 	I 	0.61606 0.93946 0.37229 -0.35300
I 	I 	0.86450 0.21108 0.59448 -0.37900
I 	I 	0.05182 0.27092 0.48141 -0.36600
I 	I 	0.99421 0.53352 0.70249 -0.37700
I 	I 	0.02574 0.74122 0.80959 -0.39900
I 	I 	0.14026 0.76996 0.95113 -0.38500
I 	I 	0.32340 0.93946 0.87229 -0.35200
I 	I 	0.34658 0.21108 0.09448 -0.38000
I 	I 	0.21910 0.27092 0.98141 -0.36500
I 	I 	0.53931 0.53352 0.20249 -0.37600
I 	I 	0.71548 0.74122 0.30959 -0.40200
N 	N 	0.44770 0.85820 0.45660 -0.27300
N 	N 	0.20880 0.85400 0.57160 -0.13500
N 	N 	0.11030 0.92420 0.59610 -0.13300
N 	N 	0.20330 0.94780 0.53350 -0.14900
N 	N 	0.01810 0.72420 0.68670 -0.27100
N 	N 	0.06190 0.14920 0.55740 -0.27900
N 	N 	0.12860 0.32820 0.60270 -0.26700
N 	N 	0.32050 0.55360 0.72700 -0.14100
N 	N 	0.48590 0.63200 0.75260 -0.13200
N 	N 	0.44800 0.52760 0.68710 -0.13800
N 	N 	0.31120 0.74720 0.86280 -0.27300
N 	N 	0.81380 0.63100 0.72350 -0.27200
N 	N 	0.41050 0.85820 0.95660 -0.27300
N 	N 	0.64520 0.85400 0.07160 -0.13500
N 	N 	0.81390 0.92420 0.09610 -0.13400
N 	N 	0.74450 0.94780 0.03350 -0.14900
N 	N 	0.70610 0.72420 0.18670 -0.27500
N 	N 	0.08730 0.14920 0.05740 -0.27600
N 	N 	0.19960 0.32820 0.10270 -0.26700
N 	N 	0.23310 0.55360 0.22700 -0.14100
N 	N 	0.14610 0.63200 0.25260 -0.13200
N 	N 	0.07960 0.52760 0.18710 -0.13800
N 	N 	0.43600 0.74720 0.36280 -0.27300
N 	N 	0.81720 0.63100 0.22350 -0.27200
Zn	Zn	0.71189 0.17004 0.08828 1.16500
Zn	Zn	0.78494 0.76048 0.94225 1.16700
Zn	Zn	0.30724 0.34540 0.76847 1.16300
Zn	Zn	0.45815 0.17004 0.58828 1.16500
Zn	Zn	0.97554 0.76048 0.44225 1.16700
Zn	Zn	0.03816 0.34540 0.26847 1.16300
H 	H 	0.64980 0.23480 0.01920 -0.01600
H 	H 	0.52060 0.21240 0.96890 0.08600
H 	H 	0.36590 0.02560 0.01640 0.07600
H 	H 	0.50380 0.04680 0.05990 -0.01300
H 	H 	0.15060 0.22180 0.80410 -0.01900
H 	H 	0.13650 0.14160 0.85210 0.08800
H 	H 	0.42690 0.22940 0.87530 0.08400
H 	H 	0.43640 0.31460 0.83090 -0.01200
H 	H 	0.96830 0.86720 0.00420 -0.00100
H 	H 	0.11480 0.96580 0.00280 0.07500
H 	H 	0.03280 0.95420 0.87390 0.08200
H 	H 	0.88490 0.86020 0.88140 -0.01100
H 	H 	0.68270 0.64220 0.85450 0.00300
H 	H 	0.70040 0.53900 0.80670 0.08800
H 	H 	0.94910 0.58180 0.88020 0.07900
H 	H 	0.91670 0.67760 0.93270 0.00600
H 	H 	0.65630 0.19980 0.62180 0.00400
H 	H 	0.77600 0.27380 0.68280 0.09200
H 	H 	0.60970 0.39540 0.72060 0.08400
H 	H 	0.49840 0.31940 0.65840 -0.02100
H 	H 	0.23900 0.46820 0.82300 -0.00700
H 	H 	0.09400 0.48600 0.83220 0.07900
H 	H 	0.96260 0.30140 0.73180 0.08400
H 	H 	0.10070 0.27600 0.73160 -0.01700
H 	H 	0.58500 0.23480 0.51920 -0.01600
H 	H 	0.69180 0.21240 0.46890 0.08600
H 	H 	0.65970 0.02560 0.51640 0.07700
H 	H 	0.54300 0.04680 0.55990 -0.01300
H 	H 	0.07120 0.22180 0.30410 -0.01600
H 	H 	0.00510 0.14160 0.35210 0.08200
H 	H 	0.80250 0.22940 0.37530 0.08300
H 	H 	0.87820 0.31460 0.33090 -0.01100
H 	H 	0.89890 0.86720 0.50420 -0.00400
H 	H 	0.85100 0.96580 0.50280 0.07700
H 	H 	0.92140 0.95420 0.37390 0.08300
H 	H 	0.97530 0.86020 0.38140 -0.01300
H 	H 	0.95950 0.64220 0.35450 0.00300
H 	H 	0.83860 0.53900 0.30670 0.08800
H 	H 	0.63270 0.58180 0.38020 0.07900
H 	H 	0.76090 0.67760 0.43270 0.00700
H 	H 	0.54350 0.19980 0.12180 0.00400
H 	H 	0.49780 0.27380 0.18280 0.09200
H 	H 	0.78570 0.39540 0.22060 0.08400
H 	H 	0.82100 0.31940 0.15840 -0.02100
H 	H 	0.22920 0.46820 0.32300 -0.00700
H 	H 	0.39200 0.48600 0.33220 0.07800
H 	H 	0.33880 0.30140 0.23180 0.08400
H 	H 	0.17530 0.27600 0.23160 -0.01700
C 	C 	0.59140 0.19020 0.01750 0.07900
C 	C 	0.51470 0.17920 0.98870 -0.13100
C 	C 	0.42830 0.11800 0.98970 0.06700
C 	C 	0.42470 0.06880 0.01600 -0.13500
C 	C 	0.50660 0.08220 0.04200 0.08700
C 	C 	0.34010 0.10360 0.95870 0.09400
C 	C 	0.27400 0.13040 0.90230 0.10600
C 	C 	0.18160 0.03840 0.93650 0.09500
C 	C 	0.20800 0.22520 0.81970 0.08600
C 	C 	0.19970 0.17720 0.84840 -0.12700
C 	C 	0.27680 0.17860 0.87120 0.07000
C 	C 	0.36880 0.22920 0.86230 -0.11700
C 	C 	0.37410 0.27800 0.83490 0.07000
C 	C 	0.98140 0.88540 0.97730 0.06900
C 	C 	0.06880 0.94500 0.97710 -0.11400
C 	C 	0.08990 0.97460 0.93960 0.04300
C 	C 	0.01990 0.93860 0.90160 -0.10600
C 	C 	0.93370 0.88080 0.90600 0.06400
C 	C 	0.73630 0.62940 0.86050 0.05800
C 	C 	0.74730 0.56820 0.83170 -0.11400
C 	C 	0.82550 0.54900 0.83870 0.03900
C 	C 	0.89260 0.59180 0.87540 -0.10000
C 	C 	0.87490 0.65140 0.90580 0.05200
C 	C 	0.83690 0.48540 0.80720 0.08500
C 	C 	0.77660 0.38700 0.74640 0.10100
C 	C 	0.92480 0.41560 0.78210 0.09900
C 	C 	0.64700 0.23980 0.64290 0.05300
C 	C 	0.71900 0.28360 0.67900 -0.11100
C 	C 	0.70310 0.34100 0.70810 0.06200
C 	C 	0.62090 0.35500 0.70080 -0.14000
C 	C 	0.55390 0.30840 0.66380 0.09700
C 	C 	0.18080 0.43200 0.80540 0.06400
C 	C 	0.09530 0.44440 0.80960 -0.11700
C 	C 	0.01180 0.39760 0.78150 0.06100
C 	C 	0.01780 0.33560 0.75210 -0.12200
C 	C 	0.10130 0.32160 0.75120 0.07200
C 	C 	0.59880 0.19020 0.51750 0.07900
C 	C 	0.66450 0.17920 0.48870 -0.13100
C 	C 	0.68970 0.11800 0.48970 0.06700
C 	C 	0.64410 0.06880 0.51600 -0.13500
C 	C 	0.57560 0.08220 0.54200 0.08700
C 	C 	0.76350 0.10360 0.45870 0.09500
C 	C 	0.85640 0.13040 0.40230 0.10900
C 	C 	0.85680 0.03840 0.43650 0.09800
C 	C 	0.01720 0.22520 0.31970 0.07500
C 	C 	0.97750 0.17720 0.34840 -0.11300
C 	C 	0.90180 0.17860 0.37120 0.06400
C 	C 	0.86040 0.22920 0.36230 -0.11200
C 	C 	0.90390 0.27800 0.33490 0.06800
C 	C 	0.90400 0.88540 0.47730 0.07800
C 	C 	0.87620 0.94500 0.47710 -0.12300
C 	C 	0.88470 0.97460 0.43960 0.04400
C 	C 	0.91870 0.93860 0.40160 -0.11300
C 	C 	0.94710 0.88080 0.40600 0.07000
C 	C 	0.89310 0.62940 0.36050 0.05800
C 	C 	0.82090 0.56820 0.33170 -0.11400
C 	C 	0.72350 0.54900 0.33870 0.04000
C 	C 	0.69920 0.59180 0.37540 -0.09900
C 	C 	0.77650 0.65140 0.40580 0.05200
C 	C 	0.64850 0.48540 0.30720 0.08500
C 	C 	0.61040 0.38700 0.24640 0.10100
C 	C 	0.49080 0.41560 0.28210 0.09900
C 	C 	0.59280 0.23980 0.14290 0.05300
C 	C 	0.56460 0.28360 0.17900 -0.11100
C 	C 	0.63790 0.34100 0.20810 0.06200
C 	C 	0.73410 0.35500 0.20080 -0.14000
C 	C 	0.75450 0.30840 0.16380 0.09700
C 	C 	0.25120 0.43200 0.30540 0.06400
C 	C 	0.34910 0.44440 0.30960 -0.11700
C 	C 	0.38580 0.39760 0.28150 0.05900
C 	C 	0.31780 0.33560 0.25210 -0.12200
C 	C 	0.22030 0.32160 0.25120 0.07100
I 	I 	0.85974 0.23004 0.04887 -0.38500
I 	I 	0.67660 0.06054 0.12771 -0.35200
I 	I 	0.65342 0.78892 0.90552 -0.38000
I 	I 	0.78090 0.72908 0.01859 -0.36500
I 	I 	0.46069 0.46648 0.79751 -0.37600
I 	I 	0.28452 0.25878 0.69041 -0.40200
I 	I 	0.37030 0.23004 0.54887 -0.38700
I 	I 	0.38394 0.06054 0.62771 -0.35300
I 	I 	0.13550 0.78892 0.40552 -0.37900
I 	I 	0.94818 0.72908 0.51859 -0.36600
I 	I 	0.00579 0.46648 0.29751 -0.37700
I 	I 	0.97426 0.25878 0.19041 -0.39900
N 	N 	0.58950 0.14180 0.04340 -0.27300
N 	N 	0.35480 0.14600 0.92840 -0.13500
N 	N 	0.18610 0.07580 0.90390 -0.13400
N 	N 	0.25550 0.05220 0.96650 -0.14900
N 	N 	0.29390 0.27580 0.81330 -0.27500
N 	N 	0.91270 0.85080 0.94260 -0.27600
N 	N 	0.80040 0.67180 0.89730 -0.26700
N 	N 	0.76690 0.44640 0.77300 -0.14100
N 	N 	0.85390 0.36800 0.74740 -0.13200
N 	N 	0.92040 0.47240 0.81290 -0.13800
N 	N 	0.56400 0.25280 0.63720 -0.27300
N 	N 	0.18280 0.36900 0.77650 -0.27200
N 	N 	0.55230 0.14180 0.54340 -0.27300
N 	N 	0.79120 0.14600 0.42840 -0.13500
N 	N 	0.88970 0.07580 0.40390 -0.13300
N 	N 	0.79670 0.05220 0.46650 -0.14900
N 	N 	0.98190 0.27580 0.31330 -0.27100
N 	N 	0.93810 0.85080 0.44260 -0.27900
N 	N 	0.87140 0.67180 0.39730 -0.26700
N 	N 	0.67950 0.44640 0.27300 -0.14100
N 	N 	0.51410 0.36800 0.24740 -0.13200
N 	N 	0.55200 0.47240 0.31290 -0.13800
N 	N 	0.68880 0.25280 0.13720 -0.27300
N 	N 	0.18620 0.36900 0.27650 -0.27200
