data_crystal

_cell_length_a 9.38980
_cell_length_b 17.09170
_cell_length_c 19.86010
_cell_angle_alpha 90.00000
_cell_angle_beta  90.00000
_cell_angle_gamma 100.42800

_symmetry_space_group_name_	'P 1'
_symmetry_space_group_name_H-M	'P 1'

loop_
_symmetry_equiv_pos_as_xyz
  x,y,z

loop_
_atom_site_label
_atom_site_type_symbol
_atom_site_fract_x
_atom_site_fract_y
_atom_site_fract_z
_atom_site_charge
Zn	Zn	0.06707 0.27810 0.81870 1.20700
Zn	Zn	0.43293 0.22190 0.31870 1.20800
Zn	Zn	0.93293 0.72190 0.18130 1.20700
Zn	Zn	0.56707 0.77810 0.68130 1.20800
H 	H 	0.78330 0.05810 0.76700 0.06700
H 	H 	0.38100 0.94230 0.80940 0.09200
H 	H 	0.53350 0.15300 0.89650 0.09600
H 	H 	0.16310 0.96930 0.85400 0.03500
H 	H 	0.25160 0.93020 0.90780 0.03500
H 	H 	0.94670 0.01510 0.88720 0.05800
H 	H 	0.21490 0.96340 0.03050 0.05900
H 	H 	0.11920 0.12540 0.75820 -0.02100
H 	H 	0.25980 0.07780 0.68030 0.11300
H 	H 	0.48690 0.29630 0.66000 0.11700
H 	H 	0.34090 0.33840 0.73940 -0.02100
H 	H 	0.42080 0.15520 0.56120 0.09800
H 	H 	0.48130 0.09910 0.61210 0.09500
H 	H 	0.69010 0.13340 0.52780 0.05300
H 	H 	0.62440 0.20310 0.49580 0.05200
H 	H 	0.82540 0.29430 0.53100 0.06100
H 	H 	0.87390 0.23010 0.48400 0.06700
H 	H 	0.92030 0.21700 0.68170 0.04100
H 	H 	0.85560 0.28760 0.65080 0.05300
H 	H 	0.66750 0.19120 0.69350 0.06200
H 	H 	0.71560 0.12620 0.64720 0.06400
H 	H 	0.06170 0.32130 0.57650 0.09400
H 	H 	0.12050 0.25620 0.61810 0.09500
H 	H 	0.05000 0.14140 0.49070 0.11300
H 	H 	0.19490 0.12230 0.40180 -0.01700
H 	H 	0.44480 0.32430 0.43490 -0.02700
H 	H 	0.30980 0.34920 0.52510 0.11400
H 	H 	0.71670 0.44190 0.26700 0.06800
H 	H 	0.11900 0.55770 0.30940 0.09300
H 	H 	0.96650 0.34700 0.39650 0.09700
H 	H 	0.33690 0.53070 0.35400 0.03700
H 	H 	0.24840 0.56980 0.40780 0.03600
H 	H 	0.55330 0.48490 0.38720 0.05800
H 	H 	0.28510 0.53660 0.53050 0.05900
H 	H 	0.38080 0.37460 0.25820 -0.02100
H 	H 	0.24020 0.42220 0.18030 0.11300
H 	H 	0.01310 0.20370 0.16000 0.11700
H 	H 	0.15910 0.16160 0.23940 -0.02100
H 	H 	0.07920 0.34480 0.06120 0.09800
H 	H 	0.01870 0.40090 0.11210 0.09500
H 	H 	0.80990 0.36660 0.02780 0.05300
H 	H 	0.87560 0.29690 0.99580 0.05300
H 	H 	0.67460 0.20570 0.03100 0.06000
H 	H 	0.62610 0.26990 0.98400 0.06700
H 	H 	0.57970 0.28300 0.18170 0.04000
H 	H 	0.64440 0.21240 0.15080 0.05300
H 	H 	0.83250 0.30880 0.19350 0.06200
H 	H 	0.78440 0.37380 0.14720 0.06400
H 	H 	0.43830 0.17870 0.07650 0.09400
H 	H 	0.37950 0.24380 0.11810 0.09500
H 	H 	0.45000 0.35860 0.99070 0.11400
H 	H 	0.30510 0.37770 0.90180 -0.01700
H 	H 	0.05520 0.17570 0.93490 -0.02700
H 	H 	0.19020 0.15080 0.02510 0.11400
H 	H 	0.21670 0.94190 0.23300 0.06800
H 	H 	0.61900 0.05770 0.19060 0.09300
H 	H 	0.46650 0.84700 0.10350 0.09700
H 	H 	0.83690 0.03070 0.14600 0.03600
H 	H 	0.74840 0.06980 0.09220 0.03500
H 	H 	0.05330 0.98490 0.11280 0.05800
H 	H 	0.78510 0.03660 0.96950 0.05900
H 	H 	0.88080 0.87460 0.24180 -0.02100
H 	H 	0.74020 0.92220 0.31970 0.11300
H 	H 	0.51310 0.70370 0.34000 0.11700
H 	H 	0.65910 0.66160 0.26060 -0.02100
H 	H 	0.57920 0.84480 0.43880 0.09800
H 	H 	0.51870 0.90090 0.38790 0.09500
H 	H 	0.30990 0.86660 0.47220 0.05300
H 	H 	0.37560 0.79690 0.50420 0.05200
H 	H 	0.17460 0.70570 0.46900 0.06100
H 	H 	0.12610 0.76990 0.51600 0.06700
H 	H 	0.07970 0.78300 0.31830 0.04100
H 	H 	0.14440 0.71240 0.34920 0.05300
H 	H 	0.33250 0.80880 0.30650 0.06200
H 	H 	0.28440 0.87380 0.35280 0.06400
H 	H 	0.93830 0.67870 0.42350 0.09400
H 	H 	0.87950 0.74380 0.38190 0.09500
H 	H 	0.95000 0.85860 0.50930 0.11300
H 	H 	0.80510 0.87770 0.59820 -0.01700
H 	H 	0.55520 0.67570 0.56510 -0.02700
H 	H 	0.69020 0.65080 0.47490 0.11400
H 	H 	0.28330 0.55810 0.73300 0.06800
H 	H 	0.88100 0.44230 0.69060 0.09300
H 	H 	0.03350 0.65300 0.60350 0.09700
H 	H 	0.66310 0.46930 0.64600 0.03700
H 	H 	0.75160 0.43020 0.59220 0.03600
H 	H 	0.44670 0.51510 0.61280 0.05800
H 	H 	0.71490 0.46340 0.46950 0.05900
H 	H 	0.61920 0.62540 0.74180 -0.02100
H 	H 	0.75980 0.57780 0.81970 0.11300
H 	H 	0.98690 0.79630 0.84000 0.11700
H 	H 	0.84090 0.83840 0.76060 -0.02100
H 	H 	0.92080 0.65520 0.93880 0.09800
H 	H 	0.98130 0.59910 0.88790 0.09500
H 	H 	0.19010 0.63340 0.97220 0.05300
H 	H 	0.12440 0.70310 0.00420 0.05300
H 	H 	0.32540 0.79430 0.96900 0.06000
H 	H 	0.37390 0.73010 0.01600 0.06700
H 	H 	0.42030 0.71700 0.81830 0.04000
H 	H 	0.35560 0.78760 0.84920 0.05300
H 	H 	0.16750 0.69120 0.80650 0.06200
H 	H 	0.21560 0.62620 0.85280 0.06400
H 	H 	0.56170 0.82130 0.92350 0.09400
H 	H 	0.62050 0.75620 0.88190 0.09500
H 	H 	0.55000 0.64140 0.00930 0.11400
H 	H 	0.69490 0.62230 0.09820 -0.01700
H 	H 	0.94480 0.82430 0.06510 -0.02700
H 	H 	0.80980 0.84920 0.97490 0.11400
C 	C 	0.79510 0.18800 0.84250 0.32000
C 	C 	0.67700 0.11720 0.83290 -0.02500
C 	C 	0.69560 0.05590 0.78940 -0.04600
C 	C 	0.58460 0.99190 0.77920 -0.02100
C 	C 	0.60700 0.92730 0.73150 0.30100
C 	C 	0.45480 0.98600 0.81520 -0.14200
C 	C 	0.43820 0.04640 0.85940 0.18300
C 	C 	0.54730 0.11220 0.86760 -0.13400
C 	C 	0.20900 0.97650 0.89780 -0.01000
C 	C 	0.09980 0.98740 0.95100 0.03400
C 	C 	0.96850 0.00910 0.93240 -0.06300
C 	C 	0.12810 0.97830 0.01800 -0.06000
C 	C 	0.19380 0.16080 0.73790 0.13300
C 	C 	0.27740 0.13170 0.69070 -0.23400
C 	C 	0.38800 0.18260 0.65870 0.19500
C 	C 	0.41140 0.26010 0.67870 -0.23100
C 	C 	0.32300 0.28510 0.72680 0.12200
C 	C 	0.47260 0.15390 0.60330 -0.21800
C 	C 	0.68410 0.18920 0.53220 -0.05900
C 	C 	0.83210 0.23850 0.52750 -0.07100
C 	C 	0.86050 0.23170 0.64570 -0.05700
C 	C 	0.70980 0.18220 0.65030 -0.07300
C 	C 	0.06940 0.26540 0.57730 -0.20700
C 	C 	0.15880 0.24890 0.51790 0.18100
C 	C 	0.12950 0.18040 0.48010 -0.22000
C 	C 	0.21720 0.16910 0.42640 0.11900
C 	C 	0.36320 0.28710 0.44600 0.12800
C 	C 	0.28210 0.30270 0.50030 -0.22200
C 	C 	0.70490 0.31200 0.34250 0.32000
C 	C 	0.82300 0.38280 0.33290 -0.02500
C 	C 	0.80440 0.44410 0.28940 -0.04700
C 	C 	0.91540 0.50810 0.27920 -0.02100
C 	C 	0.89300 0.57270 0.23150 0.30100
C 	C 	0.04520 0.51400 0.31520 -0.14100
C 	C 	0.06180 0.45360 0.35940 0.18300
C 	C 	0.95270 0.38780 0.36760 -0.13400
C 	C 	0.29100 0.52350 0.39780 -0.01200
C 	C 	0.40020 0.51260 0.45100 0.03600
C 	C 	0.53150 0.49090 0.43240 -0.06500
C 	C 	0.37190 0.52170 0.51800 -0.06100
C 	C 	0.30620 0.33920 0.23790 0.13300
C 	C 	0.22260 0.36830 0.19070 -0.23400
C 	C 	0.11200 0.31740 0.15870 0.19500
C 	C 	0.08860 0.23990 0.17870 -0.23100
C 	C 	0.17700 0.21490 0.22680 0.12200
C 	C 	0.02740 0.34610 0.10330 -0.21800
C 	C 	0.81590 0.31080 0.03220 -0.06100
C 	C 	0.66790 0.26150 0.02750 -0.07100
C 	C 	0.63950 0.26830 0.14570 -0.05600
C 	C 	0.79020 0.31780 0.15030 -0.07300
C 	C 	0.43060 0.23460 0.07730 -0.20600
C 	C 	0.34120 0.25110 0.01790 0.18000
C 	C 	0.37050 0.31960 0.98010 -0.22000
C 	C 	0.28280 0.33090 0.92640 0.11800
C 	C 	0.13680 0.21290 0.94600 0.12700
C 	C 	0.21790 0.19730 0.00030 -0.22000
C 	C 	0.20490 0.81200 0.15750 0.32000
C 	C 	0.32300 0.88280 0.16710 -0.02500
C 	C 	0.30440 0.94410 0.21060 -0.04600
C 	C 	0.41540 0.00810 0.22080 -0.02100
C 	C 	0.39300 0.07270 0.26850 0.30100
C 	C 	0.54520 0.01400 0.18480 -0.14200
C 	C 	0.56180 0.95360 0.14060 0.18300
C 	C 	0.45270 0.88780 0.13240 -0.13400
C 	C 	0.79100 0.02350 0.10220 -0.01000
C 	C 	0.90020 0.01260 0.04900 0.03400
C 	C 	0.03150 0.99090 0.06760 -0.06300
C 	C 	0.87190 0.02170 0.98200 -0.06000
C 	C 	0.80620 0.83920 0.26210 0.13300
C 	C 	0.72260 0.86830 0.30930 -0.23400
C 	C 	0.61200 0.81740 0.34130 0.19500
C 	C 	0.58860 0.73990 0.32130 -0.23100
C 	C 	0.67700 0.71490 0.27320 0.12200
C 	C 	0.52740 0.84610 0.39670 -0.21800
C 	C 	0.31590 0.81080 0.46780 -0.05900
C 	C 	0.16790 0.76150 0.47250 -0.07100
C 	C 	0.13950 0.76830 0.35430 -0.05700
C 	C 	0.29020 0.81780 0.34970 -0.07300
C 	C 	0.93060 0.73460 0.42270 -0.20700
C 	C 	0.84120 0.75110 0.48210 0.18100
C 	C 	0.87050 0.81960 0.51990 -0.22000
C 	C 	0.78280 0.83090 0.57360 0.11900
C 	C 	0.63680 0.71290 0.55400 0.12800
C 	C 	0.71790 0.69730 0.49970 -0.22200
C 	C 	0.29510 0.68800 0.65750 0.32000
C 	C 	0.17700 0.61720 0.66710 -0.02500
C 	C 	0.19560 0.55590 0.71060 -0.04700
C 	C 	0.08460 0.49190 0.72080 -0.02100
C 	C 	0.10700 0.42730 0.76850 0.30100
C 	C 	0.95480 0.48600 0.68480 -0.14100
C 	C 	0.93820 0.54640 0.64060 0.18300
C 	C 	0.04730 0.61220 0.63240 -0.13400
C 	C 	0.70900 0.47650 0.60220 -0.01200
C 	C 	0.59980 0.48740 0.54900 0.03600
C 	C 	0.46850 0.50910 0.56760 -0.06500
C 	C 	0.62810 0.47830 0.48200 -0.06100
C 	C 	0.69380 0.66080 0.76210 0.13300
C 	C 	0.77740 0.63170 0.80930 -0.23400
C 	C 	0.88800 0.68260 0.84130 0.19500
C 	C 	0.91140 0.76010 0.82130 -0.23100
C 	C 	0.82300 0.78510 0.77320 0.12200
C 	C 	0.97260 0.65390 0.89670 -0.21800
C 	C 	0.18410 0.68920 0.96780 -0.06100
C 	C 	0.33210 0.73850 0.97250 -0.07100
C 	C 	0.36050 0.73170 0.85430 -0.05600
C 	C 	0.20980 0.68220 0.84970 -0.07300
C 	C 	0.56940 0.76540 0.92270 -0.20600
C 	C 	0.65880 0.74890 0.98210 0.18000
C 	C 	0.62950 0.68040 0.01990 -0.22000
C 	C 	0.71720 0.66910 0.07360 0.11800
C 	C 	0.86320 0.78710 0.05400 0.12700
C 	C 	0.78210 0.80270 0.99970 -0.22000
N 	N 	0.21350 0.23660 0.75600 -0.28100
N 	N 	0.61850 0.20270 0.59690 -0.06900
N 	N 	0.92550 0.21860 0.58020 -0.06800
N 	N 	0.33200 0.22230 0.40863 -0.29300
N 	N 	0.28650 0.26340 0.25600 -0.28100
N 	N 	0.88150 0.29730 0.09690 -0.06900
N 	N 	0.57450 0.28140 0.08020 -0.06800
N 	N 	0.16800 0.27770 0.90863 -0.29300
N 	N 	0.78650 0.76340 0.24400 -0.28100
N 	N 	0.38150 0.79730 0.40310 -0.06900
N 	N 	0.07450 0.78140 0.41980 -0.06800
N 	N 	0.66800 0.77770 0.59137 -0.29300
N 	N 	0.71350 0.73660 0.74400 -0.28100
N 	N 	0.11850 0.70270 0.90310 -0.06900
N 	N 	0.42550 0.71860 0.91980 -0.06800
N 	N 	0.83200 0.72230 0.09137 -0.29300
O 	O 	0.91531 0.18361 0.81498 -0.45700
O 	O 	0.77380 0.24570 0.87500 -0.31400
O 	O 	0.71890 0.93380 0.69790 -0.32000
O 	O 	0.50797 0.86577 0.72915 -0.45600
O 	O 	0.31660 0.04590 0.89830 -0.22100
O 	O 	0.58469 0.31639 0.31498 -0.45800
O 	O 	0.72620 0.25430 0.37500 -0.31500
O 	O 	0.78110 0.56620 0.19790 -0.32000
O 	O 	0.99203 0.63423 0.22915 -0.45700
O 	O 	0.18340 0.45410 0.39830 -0.22100
O 	O 	0.08469 0.81639 0.18502 -0.45700
O 	O 	0.22620 0.75430 0.12500 -0.31400
O 	O 	0.28110 0.06620 0.30210 -0.32000
O 	O 	0.49203 0.13423 0.27085 -0.45600
O 	O 	0.68340 0.95410 0.10170 -0.22100
O 	O 	0.41531 0.68361 0.68502 -0.45800
O 	O 	0.27380 0.74570 0.62500 -0.31500
O 	O 	0.21890 0.43380 0.80210 -0.32000
O 	O 	0.00797 0.36577 0.77085 -0.45700
O 	O 	0.81660 0.54590 0.60170 -0.22100
