data_crystal

_cell_length_a 13.78100
_cell_length_b 25.03690
_cell_length_c 25.03690
_cell_angle_alpha 73.23330
_cell_angle_beta  74.02520
_cell_angle_gamma 74.02510

_symmetry_space_group_name_	'P 1'
_symmetry_space_group_name_H-M	'P 1'

loop_
_symmetry_equiv_pos_as_xyz
  x,y,z

loop_
_atom_site_label
_atom_site_type_symbol
_atom_site_fract_x
_atom_site_fract_y
_atom_site_fract_z
_atom_site_charge
Cu	Cu	0.55862 0.12118 0.91814 0.90200
Cu	Cu	0.44138 0.08186 0.87882 0.90200
Cu	Cu	0.90206 0.62118 0.41814 0.90300
Cu	Cu	0.09794 0.58186 0.37882 0.90300
H 	H 	0.60070 0.10350 0.70030 0.05400
H 	H 	0.08680 0.40770 0.39650 0.03200
H 	H 	0.84050 0.21700 0.66760 0.04700
H 	H 	0.76430 0.17880 0.76060 0.05700
H 	H 	0.96920 0.24710 0.41750 0.08400
H 	H 	0.70380 0.13340 0.61340 0.04600
H 	H 	0.77810 0.36710 0.51190 0.07000
H 	H 	0.07320 0.30990 0.42590 0.07000
H 	H 	0.66280 0.16490 0.41030 0.04700
H 	H 	0.81900 0.21520 0.39740 0.06000
H 	H 	0.83520 0.27470 0.57590 0.08100
H 	H 	0.85310 0.12620 0.54260 0.09000
H 	H 	0.80620 0.46010 0.49190 0.02800
H 	H 	0.07790 0.09970 0.52270 0.06600
H 	H 	0.21830 0.03470 0.52790 0.03900
H 	H 	0.39930 0.29970 0.89650 0.05400
H 	H 	0.91320 0.60350 0.59230 0.03200
H 	H 	0.15950 0.33240 0.78300 0.04700
H 	H 	0.23570 0.23940 0.82120 0.05700
H 	H 	0.03080 0.58250 0.75290 0.08400
H 	H 	0.29620 0.38660 0.86660 0.04600
H 	H 	0.22190 0.48810 0.63290 0.07000
H 	H 	0.92680 0.57410 0.69010 0.07000
H 	H 	0.33720 0.58970 0.83510 0.04700
H 	H 	0.18100 0.60260 0.78480 0.06000
H 	H 	0.16480 0.42410 0.72530 0.08100
H 	H 	0.14690 0.45740 0.87380 0.09000
H 	H 	0.19380 0.50810 0.53990 0.02800
H 	H 	0.92210 0.47730 0.90030 0.06600
H 	H 	0.78170 0.47210 0.96530 0.03900
H 	H 	0.09550 0.60350 0.20030 0.05300
H 	H 	0.60900 0.90770 0.89650 0.03200
H 	H 	0.77490 0.71700 0.16760 0.04600
H 	H 	0.79630 0.67880 0.26060 0.05700
H 	H 	0.86620 0.74710 0.91750 0.08600
H 	H 	0.04940 0.63340 0.11340 0.04500
H 	H 	0.84290 0.86710 0.01190 0.06400
H 	H 	0.69100 0.80990 0.92590 0.06900
H 	H 	0.26200 0.66490 0.91030 0.04700
H 	H 	0.06840 0.71520 0.89740 0.06100
H 	H 	0.81420 0.77470 0.07590 0.08300
H 	H 	0.97810 0.62620 0.04260 0.09200
H 	H 	0.74180 0.96010 0.99190 0.02900
H 	H 	0.79970 0.59970 0.02270 0.06700
H 	H 	0.71910 0.53470 0.02790 0.03000
H 	H 	0.90450 0.79970 0.39650 0.05300
H 	H 	0.39100 0.10350 0.09230 0.03200
H 	H 	0.22510 0.83240 0.28300 0.04600
H 	H 	0.20370 0.73940 0.32120 0.05700
H 	H 	0.13380 0.08250 0.25290 0.08600
H 	H 	0.95060 0.88660 0.36660 0.04500
H 	H 	0.15710 0.98810 0.13290 0.06400
H 	H 	0.30900 0.07410 0.19010 0.06900
H 	H 	0.73800 0.08970 0.33510 0.04700
H 	H 	0.93160 0.10260 0.28480 0.06100
H 	H 	0.18580 0.92410 0.22530 0.08300
H 	H 	0.02190 0.95740 0.37380 0.09200
H 	H 	0.25820 0.00810 0.03990 0.02900
H 	H 	0.20030 0.97730 0.40030 0.06700
H 	H 	0.28090 0.97210 0.46530 0.03000
C 	C 	0.97210 0.50030 0.42110 0.41900
C 	C 	0.65090 0.12370 0.69570 -0.02700
C 	C 	0.67100 0.14060 0.73980 -0.03800
C 	C 	0.95010 0.44230 0.43930 -0.13100
C 	C 	0.02700 0.39820 0.42140 0.04500
C 	C 	0.80200 0.18980 0.67400 -0.04600
C 	C 	0.74860 0.17110 0.73010 -0.02800
C 	C 	0.93890 0.23340 0.45540 -0.14900
C 	C 	0.71790 0.14190 0.64390 -0.04400
C 	C 	0.96803 0.13667 0.43787 -0.06400
C 	C 	0.84200 0.37540 0.49220 -0.11100
C 	C 	0.02160 0.33930 0.43830 -0.11000
C 	C 	0.73100 0.15490 0.39130 -0.04100
C 	C 	0.84100 0.19440 0.57040 0.09000
C 	C 	0.91920 0.26690 0.49630 0.06300
C 	C 	0.92140 0.14320 0.39560 0.02900
C 	C 	0.06840 0.09620 0.45120 0.03600
C 	C 	0.61200 0.12670 0.80430 0.30900
C 	C 	0.82850 0.17750 0.39530 -0.07500
C 	C 	0.86064 0.24956 0.55176 -0.14100
C 	C 	0.80170 0.17000 0.62660 -0.02000
C 	C 	0.86680 0.16260 0.53060 -0.16000
C 	C 	0.92570 0.33190 0.47690 0.03900
C 	C 	0.85610 0.43120 0.47740 0.04700
C 	C 	0.91312 0.18098 0.47198 0.10000
C 	C 	0.10710 0.08070 0.49330 -0.08800
C 	C 	0.18490 0.04000 0.49860 -0.02600
C 	C 	0.02790 0.57890 0.49970 0.41900
C 	C 	0.34910 0.30430 0.87630 -0.02700
C 	C 	0.32900 0.26020 0.85940 -0.03800
C 	C 	0.04990 0.56070 0.55770 -0.13100
C 	C 	0.97300 0.57860 0.60180 0.04500
C 	C 	0.19800 0.32600 0.81020 -0.04600
C 	C 	0.25140 0.26990 0.82890 -0.02800
C 	C 	0.06110 0.54460 0.76660 -0.14900
C 	C 	0.28210 0.35610 0.85810 -0.04400
C 	C 	0.03197 0.56213 0.86333 -0.06400
C 	C 	0.15800 0.50780 0.62460 -0.11100
C 	C 	0.97840 0.56170 0.66070 -0.11000
C 	C 	0.26900 0.60870 0.84510 -0.04100
C 	C 	0.15900 0.42960 0.80560 0.09000
C 	C 	0.08080 0.50370 0.73310 0.06300
C 	C 	0.07860 0.60440 0.85680 0.02900
C 	C 	0.93160 0.54880 0.90380 0.03600
C 	C 	0.38800 0.19570 0.87330 0.30900
C 	C 	0.17150 0.60470 0.82250 -0.07500
C 	C 	0.13936 0.44824 0.75044 -0.14100
C 	C 	0.19830 0.37340 0.83000 -0.02000
C 	C 	0.13320 0.46940 0.83740 -0.16000
C 	C 	0.07430 0.52310 0.66810 0.03900
C 	C 	0.14390 0.52260 0.56880 0.04700
C 	C 	0.08688 0.52802 0.81902 0.10000
C 	C 	0.89290 0.50670 0.91930 -0.08800
C 	C 	0.81510 0.50140 0.96000 -0.02600
C 	C 	0.60650 0.00030 0.92110 0.42100
C 	C 	0.02970 0.62370 0.19570 -0.02800
C 	C 	0.94860 0.64060 0.23980 -0.03700
C 	C 	0.66830 0.94230 0.93930 -0.13200
C 	C 	0.65340 0.89820 0.92140 0.04400
C 	C 	0.83420 0.68980 0.17400 -0.04400
C 	C 	0.85020 0.67110 0.23010 -0.03000
C 	C 	0.87230 0.73340 0.95540 -0.15600
C 	C 	0.99630 0.64190 0.14390 -0.04200
C 	C 	0.95743 0.63667 0.93787 -0.06800
C 	C 	0.79040 0.87540 0.99220 -0.10100
C 	C 	0.70080 0.83930 0.93830 -0.10800
C 	C 	0.22280 0.65490 0.89130 -0.04100
C 	C 	0.89420 0.69440 0.07040 0.09700
C 	C 	0.81760 0.76690 0.99630 0.07200
C 	C 	0.03980 0.64320 0.89560 0.03100
C 	C 	0.88420 0.59620 0.95120 0.04200
C 	C 	0.95700 0.62670 0.30430 0.30800
C 	C 	0.09870 0.67750 0.89530 -0.07600
C 	C 	0.83804 0.74956 0.05176 -0.15100
C 	C 	0.90170 0.67000 0.12660 -0.02500
C 	C 	0.94000 0.66260 0.03060 -0.17000
C 	C 	0.76550 0.83190 0.97690 0.03400
C 	C 	0.73530 0.93120 0.97740 0.04300
C 	C 	0.93392 0.68098 0.97198 0.10800
C 	C 	0.81890 0.58070 0.99330 -0.09800
C 	C 	0.77650 0.54000 0.99860 -0.00700
C 	C 	0.39350 0.07890 0.99970 0.42100
C 	C 	0.97030 0.80430 0.37630 -0.02800
C 	C 	0.05140 0.76020 0.35940 -0.03700
C 	C 	0.33170 0.06070 0.05770 -0.13200
C 	C 	0.34660 0.07860 0.10180 0.04400
C 	C 	0.16580 0.82600 0.31020 -0.04400
C 	C 	0.14980 0.76990 0.32890 -0.03000
C 	C 	0.12770 0.04460 0.26660 -0.15600
C 	C 	0.00370 0.85610 0.35810 -0.04200
C 	C 	0.04257 0.06213 0.36333 -0.06800
C 	C 	0.20960 0.00780 0.12460 -0.10100
C 	C 	0.29920 0.06170 0.16070 -0.10800
C 	C 	0.77720 0.10870 0.34510 -0.04100
C 	C 	0.10580 0.92960 0.30560 0.09700
C 	C 	0.18240 0.00370 0.23310 0.07200
C 	C 	0.96020 0.10440 0.35680 0.03100
C 	C 	0.11580 0.04880 0.40380 0.04200
C 	C 	0.04300 0.69570 0.37330 0.30800
C 	C 	0.90130 0.10470 0.32250 -0.07600
C 	C 	0.16196 0.94824 0.25044 -0.15100
C 	C 	0.09830 0.87340 0.33000 -0.02500
C 	C 	0.06000 0.96940 0.33740 -0.17000
C 	C 	0.23450 0.02310 0.16810 0.03400
C 	C 	0.26470 0.02260 0.06880 0.04300
C 	C 	0.06608 0.02802 0.31902 0.10800
C 	C 	0.18110 0.00670 0.41930 -0.09800
C 	C 	0.22350 0.00140 0.46000 -0.00700
O 	O 	0.05663 0.50624 0.39770 -0.43600
O 	O 	0.53332 0.10138 0.80798 -0.38900
O 	O 	0.64284 0.13499 0.84073 -0.40600
O 	O 	0.89518 0.54027 0.43157 -0.42000
O 	O 	0.94337 0.60230 0.49376 -0.43600
O 	O 	0.46668 0.19202 0.89862 -0.38900
O 	O 	0.35716 0.15927 0.86501 -0.40600
O 	O 	0.10482 0.56843 0.45973 -0.42000
O 	O 	0.53943 0.00624 0.89770 -0.43500
O 	O 	0.05732 0.60138 0.30798 -0.38900
O 	O 	0.88144 0.63499 0.34073 -0.40700
O 	O 	0.63298 0.04027 0.93157 -0.41900
O 	O 	0.46057 0.10230 0.99376 -0.43500
O 	O 	0.94268 0.69202 0.39862 -0.38900
O 	O 	0.11856 0.65927 0.36501 -0.40700
O 	O 	0.36702 0.06843 0.95973 -0.41900
