data_crystal

_cell_length_a 23.00510
_cell_length_b 23.00510
_cell_length_c 15.76080
_cell_angle_alpha 90.00000
_cell_angle_beta  90.00000
_cell_angle_gamma 120.00000

_symmetry_space_group_name_	'P 1'
_symmetry_space_group_name_H-M	'P 1'

loop_
_symmetry_equiv_pos_as_xyz
  x,y,z

loop_
_atom_site_label
_atom_site_type_symbol
_atom_site_fract_x
_atom_site_fract_y
_atom_site_fract_z
_atom_site_charge
N 	N 	0.96844 0.31790 0.42521 -0.30700
C 	C 	0.99094 0.35809 0.49264 0.08800
H 	H 	0.98461 0.39474 0.49887 -0.04700
N 	N 	0.02340 0.34252 0.55122 -0.29600
C 	C 	0.98962 0.27128 0.43890 0.03200
C 	C 	0.98063 0.21726 0.39130 -0.10500
H 	H 	0.95835 0.20704 0.33954 0.03600
C 	C 	0.00628 0.17939 0.42342 -0.02500
H 	H 	0.00146 0.14286 0.39244 0.03200
C 	C 	0.03978 0.19419 0.50285 -0.02100
H 	H 	0.05663 0.16737 0.52254 0.03200
C 	C 	0.02290 0.28607 0.51774 0.05400
C 	C 	0.04783 0.24717 0.55086 -0.11200
H 	H 	0.06904 0.25663 0.60345 0.04600
N 	N 	0.92601 0.41563 0.35376 -0.26600
C 	C 	0.94710 0.47651 0.32463 0.12100
H 	H 	0.97576 0.49313 0.27827 -0.04900
N 	N 	0.92576 0.51288 0.36392 -0.31300
C 	C 	0.88498 0.47106 0.42680 0.04200
C 	C 	0.84796 0.48132 0.49211 -0.11700
H 	H 	0.84896 0.52200 0.49709 0.03400
C 	C 	0.88449 0.41149 0.42193 0.02500
C 	C 	0.84632 0.35688 0.47996 -0.09000
H 	H 	0.84639 0.31656 0.47632 0.03100
C 	C 	0.81122 0.43028 0.54673 -0.01300
H 	H 	0.78646 0.43658 0.58865 0.02600
C 	C 	0.80948 0.36780 0.54198 -0.04200
H 	H 	0.78360 0.33391 0.58033 0.03700
Zn	Zn	0.93425 0.32844 0.32063 1.17600
N 	N 	0.63511 0.65123 0.75854 -0.30700
C 	C 	0.65761 0.69142 0.82597 0.08700
H 	H 	0.65128 0.72807 0.83220 -0.04800
N 	N 	0.69007 0.67585 0.88455 -0.29700
C 	C 	0.65629 0.60461 0.77223 0.03000
C 	C 	0.64730 0.55059 0.72463 -0.10500
H 	H 	0.62502 0.54037 0.67287 0.03500
C 	C 	0.67295 0.51272 0.75675 -0.02800
H 	H 	0.66813 0.47619 0.72577 0.03100
C 	C 	0.70645 0.52752 0.83618 -0.02100
H 	H 	0.72330 0.50070 0.85587 0.03200
C 	C 	0.68957 0.61940 0.85107 0.05400
C 	C 	0.71450 0.58050 0.88419 -0.11300
H 	H 	0.73571 0.58996 0.93678 0.04600
N 	N 	0.59268 0.74896 0.68709 -0.26600
C 	C 	0.61377 0.80984 0.65796 0.12100
H 	H 	0.64243 0.82646 0.61160 -0.04900
N 	N 	0.59243 0.84621 0.69725 -0.31300
C 	C 	0.55165 0.80439 0.76013 0.04200
C 	C 	0.51463 0.81465 0.82544 -0.11700
H 	H 	0.51563 0.85533 0.83042 0.03400
C 	C 	0.55116 0.74482 0.75526 0.02500
C 	C 	0.51299 0.69021 0.81329 -0.09000
H 	H 	0.51306 0.64989 0.80965 0.03100
C 	C 	0.47789 0.76361 0.88006 -0.01300
H 	H 	0.45313 0.76991 0.92198 0.02600
C 	C 	0.47615 0.70113 0.87531 -0.04200
H 	H 	0.45027 0.66724 0.91366 0.03600
Zn	Zn	0.60092 0.66177 0.65396 1.17600
N 	N 	0.30177 0.98457 0.09188 -0.30500
C 	C 	0.32427 0.02476 0.15931 0.08400
H 	H 	0.31794 0.06141 0.16554 -0.04700
N 	N 	0.35673 0.00919 0.21789 -0.29800
C 	C 	0.32295 0.93795 0.10557 0.03000
C 	C 	0.31396 0.88393 0.05797 -0.10500
H 	H 	0.29168 0.87371 0.00621 0.03600
C 	C 	0.33961 0.84606 0.09009 -0.02800
H 	H 	0.33479 0.80953 0.05911 0.03200
C 	C 	0.37311 0.86086 0.16952 -0.02000
H 	H 	0.38996 0.83404 0.18921 0.03200
C 	C 	0.35623 0.95274 0.18441 0.05600
C 	C 	0.38116 0.91384 0.21753 -0.11300
H 	H 	0.40237 0.92330 0.27012 0.04700
N 	N 	0.25934 0.08230 0.02043 -0.26700
C 	C 	0.28043 0.14318 0.99130 0.12300
H 	H 	0.30909 0.15980 0.94494 -0.04900
N 	N 	0.25909 0.17955 0.03059 -0.31400
C 	C 	0.21831 0.13773 0.09347 0.04100
C 	C 	0.18129 0.14799 0.15878 -0.11500
H 	H 	0.18229 0.18867 0.16376 0.03400
C 	C 	0.21782 0.07816 0.08860 0.02700
C 	C 	0.17965 0.02355 0.14663 -0.09500
H 	H 	0.17972 0.98323 0.14299 0.03500
C 	C 	0.14455 0.09695 0.21340 -0.01500
H 	H 	0.11979 0.10325 0.25532 0.02700
C 	C 	0.14281 0.03447 0.20865 -0.03800
H 	H 	0.11693 0.00058 0.24700 0.03500
Zn	Zn	0.26758 0.99511 0.98730 1.17500
N 	N 	0.68210 0.65054 0.42521 -0.30700
C 	C 	0.64191 0.63285 0.49264 0.08700
H 	H 	0.60526 0.58987 0.49887 -0.04800
N 	N 	0.65748 0.68088 0.55122 -0.29700
C 	C 	0.72872 0.71834 0.43890 0.03000
C 	C 	0.78274 0.76337 0.39130 -0.10500
H 	H 	0.79296 0.75131 0.33954 0.03500
C 	C 	0.82061 0.82689 0.42342 -0.02800
H 	H 	0.85714 0.85860 0.39244 0.03100
C 	C 	0.80581 0.84559 0.50285 -0.02100
H 	H 	0.83263 0.88926 0.52254 0.03200
C 	C 	0.71393 0.73683 0.51774 0.05400
C 	C 	0.75283 0.80066 0.55086 -0.11300
H 	H 	0.74337 0.81241 0.60345 0.04600
N 	N 	0.58437 0.51038 0.35376 -0.26600
C 	C 	0.52349 0.47059 0.32463 0.12100
H 	H 	0.50687 0.48263 0.27827 -0.04900
N 	N 	0.48712 0.41288 0.36392 -0.31300
C 	C 	0.52894 0.41392 0.42680 0.04200
C 	C 	0.51868 0.36664 0.49211 -0.11700
H 	H 	0.47800 0.32696 0.49709 0.03400
C 	C 	0.58851 0.47300 0.42193 0.02500
C 	C 	0.64312 0.48944 0.47996 -0.09000
H 	H 	0.68344 0.52983 0.47632 0.03100
C 	C 	0.56972 0.38094 0.54673 -0.01300
H 	H 	0.56342 0.34988 0.58865 0.02600
C 	C 	0.63220 0.44168 0.54198 -0.04200
H 	H 	0.66609 0.44969 0.58033 0.03700
Zn	Zn	0.67156 0.60581 0.32063 1.17600
N 	N 	0.34877 0.98387 0.75854 -0.30800
C 	C 	0.30858 0.96618 0.82597 0.08400
H 	H 	0.27193 0.92320 0.83220 -0.04700
N 	N 	0.32415 0.01421 0.88455 -0.29600
C 	C 	0.39539 0.05167 0.77223 0.03200
C 	C 	0.44941 0.09670 0.72463 -0.10600
H 	H 	0.45963 0.08464 0.67287 0.03500
C 	C 	0.48728 0.16022 0.75675 -0.02700
H 	H 	0.52381 0.19193 0.72577 0.03100
C 	C 	0.47248 0.17892 0.83618 -0.02100
H 	H 	0.49930 0.22259 0.85587 0.03200
C 	C 	0.38060 0.07016 0.85107 0.05400
C 	C 	0.41950 0.13399 0.88419 -0.11200
H 	H 	0.41004 0.14574 0.93678 0.04600
N 	N 	0.25104 0.84371 0.68709 -0.26600
C 	C 	0.19016 0.80392 0.65796 0.12100
H 	H 	0.17354 0.81596 0.61160 -0.04900
N 	N 	0.15379 0.74621 0.69725 -0.31300
C 	C 	0.19561 0.74725 0.76013 0.04200
C 	C 	0.18535 0.69997 0.82544 -0.11700
H 	H 	0.14467 0.66029 0.83042 0.03400
C 	C 	0.25518 0.80633 0.75526 0.02500
C 	C 	0.30979 0.82277 0.81329 -0.09000
H 	H 	0.35011 0.86316 0.80965 0.03100
C 	C 	0.23639 0.71427 0.88006 -0.01300
H 	H 	0.23009 0.68321 0.92198 0.02600
C 	C 	0.29887 0.77501 0.87531 -0.04200
H 	H 	0.33276 0.78302 0.91366 0.03600
Zn	Zn	0.33823 0.93914 0.65396 1.17600
N 	N 	0.01543 0.31721 0.09188 -0.30600
C 	C 	0.97524 0.29952 0.15931 0.08400
H 	H 	0.93859 0.25654 0.16554 -0.04700
N 	N 	0.99081 0.34755 0.21789 -0.29800
C 	C 	0.06205 0.38501 0.10557 0.03000
C 	C 	0.11607 0.43004 0.05797 -0.10500
H 	H 	0.12629 0.41798 0.00621 0.03500
C 	C 	0.15394 0.49356 0.09009 -0.02800
H 	H 	0.19047 0.52527 0.05911 0.03200
C 	C 	0.13914 0.51226 0.16952 -0.02000
H 	H 	0.16596 0.55593 0.18921 0.03200
C 	C 	0.04726 0.40350 0.18441 0.05600
C 	C 	0.08616 0.46733 0.21753 -0.11400
H 	H 	0.07670 0.47908 0.27012 0.04700
N 	N 	0.91770 0.17705 0.02043 -0.26900
C 	C 	0.85682 0.13726 0.99130 0.13000
H 	H 	0.84020 0.14930 0.94494 -0.05100
N 	N 	0.82045 0.07955 0.03059 -0.31700
C 	C 	0.86227 0.08059 0.09347 0.04300
C 	C 	0.85201 0.03331 0.15878 -0.12100
H 	H 	0.81133 0.99363 0.16376 0.03700
C 	C 	0.92184 0.13967 0.08860 0.02500
C 	C 	0.97645 0.15611 0.14663 -0.09300
H 	H 	0.01677 0.19650 0.14299 0.03300
C 	C 	0.90305 0.04761 0.21340 -0.01100
H 	H 	0.89675 0.01655 0.25532 0.02500
C 	C 	0.96553 0.10835 0.20865 -0.04100
H 	H 	0.99942 0.11636 0.24700 0.03600
Zn	Zn	0.00489 0.27248 0.98730 1.17600
N 	N 	0.34946 0.03156 0.42521 -0.30800
C 	C 	0.36715 0.00906 0.49264 0.08700
H 	H 	0.41013 0.01539 0.49887 -0.04800
N 	N 	0.31912 0.97660 0.55122 -0.29700
C 	C 	0.28166 0.01038 0.43890 0.03100
C 	C 	0.23663 0.01937 0.39130 -0.10700
H 	H 	0.24869 0.04165 0.33954 0.03500
C 	C 	0.17311 0.99372 0.42342 -0.02600
H 	H 	0.14140 0.99854 0.39244 0.03100
C 	C 	0.15441 0.96022 0.50285 -0.02200
H 	H 	0.11074 0.94337 0.52254 0.03200
C 	C 	0.26317 0.97710 0.51774 0.05400
C 	C 	0.19934 0.95217 0.55086 -0.11200
H 	H 	0.18759 0.93096 0.60345 0.04600
N 	N 	0.48962 0.07399 0.35376 -0.26600
C 	C 	0.52941 0.05290 0.32463 0.12100
H 	H 	0.51737 0.02424 0.27827 -0.04900
N 	N 	0.58712 0.07424 0.36392 -0.31400
C 	C 	0.58608 0.11502 0.42680 0.04200
C 	C 	0.63336 0.15204 0.49211 -0.11700
H 	H 	0.67304 0.15104 0.49709 0.03400
C 	C 	0.52700 0.11551 0.42193 0.02500
C 	C 	0.51056 0.15368 0.47996 -0.09000
H 	H 	0.47017 0.15361 0.47632 0.03100
C 	C 	0.61906 0.18878 0.54673 -0.01300
H 	H 	0.65012 0.21354 0.58865 0.02600
C 	C 	0.55832 0.19052 0.54198 -0.04200
H 	H 	0.55031 0.21640 0.58033 0.03700
Zn	Zn	0.39419 0.06575 0.32063 1.17600
N 	N 	0.01613 0.36489 0.75854 -0.30800
C 	C 	0.03382 0.34239 0.82597 0.08400
H 	H 	0.07680 0.34872 0.83220 -0.04700
N 	N 	0.98579 0.30993 0.88455 -0.29600
C 	C 	0.94833 0.34371 0.77223 0.03200
C 	C 	0.90330 0.35270 0.72463 -0.10600
H 	H 	0.91536 0.37498 0.67287 0.03500
C 	C 	0.83978 0.32705 0.75675 -0.02700
H 	H 	0.80807 0.33187 0.72577 0.03100
C 	C 	0.82108 0.29355 0.83618 -0.02100
H 	H 	0.77741 0.27670 0.85587 0.03200
C 	C 	0.92984 0.31043 0.85107 0.05400
C 	C 	0.86601 0.28550 0.88419 -0.11200
H 	H 	0.85426 0.26429 0.93678 0.04700
N 	N 	0.15629 0.40732 0.68709 -0.26600
C 	C 	0.19608 0.38623 0.65796 0.12100
H 	H 	0.18404 0.35757 0.61160 -0.04900
N 	N 	0.25379 0.40757 0.69725 -0.31300
C 	C 	0.25275 0.44835 0.76013 0.04200
C 	C 	0.30003 0.48537 0.82544 -0.11700
H 	H 	0.33971 0.48437 0.83042 0.03400
C 	C 	0.19367 0.44884 0.75526 0.02500
C 	C 	0.17723 0.48701 0.81329 -0.09000
H 	H 	0.13684 0.48694 0.80965 0.03100
C 	C 	0.28573 0.52211 0.88006 -0.01300
H 	H 	0.31679 0.54687 0.92198 0.02600
C 	C 	0.22499 0.52385 0.87531 -0.04200
H 	H 	0.21698 0.54973 0.91366 0.03600
Zn	Zn	0.06086 0.39908 0.65396 1.17600
N 	N 	0.68279 0.69823 0.09188 -0.30700
C 	C 	0.70048 0.67573 0.15931 0.08700
H 	H 	0.74346 0.68206 0.16554 -0.04800
N 	N 	0.65245 0.64327 0.21789 -0.29700
C 	C 	0.61499 0.67705 0.10557 0.03000
C 	C 	0.56996 0.68604 0.05797 -0.10500
H 	H 	0.58202 0.70832 0.00621 0.03500
C 	C 	0.50644 0.66039 0.09009 -0.02800
H 	H 	0.47473 0.66521 0.05911 0.03200
C 	C 	0.48774 0.62689 0.16952 -0.02100
H 	H 	0.44407 0.61004 0.18921 0.03200
C 	C 	0.59650 0.64377 0.18441 0.05400
C 	C 	0.53267 0.61884 0.21753 -0.11300
H 	H 	0.52092 0.59763 0.27012 0.04600
N 	N 	0.82295 0.74066 0.02043 -0.26600
C 	C 	0.86274 0.71957 0.99130 0.12300
H 	H 	0.85070 0.69091 0.94494 -0.04900
N 	N 	0.92045 0.74091 0.03059 -0.31400
C 	C 	0.91941 0.78169 0.09347 0.04500
C 	C 	0.96669 0.81871 0.15878 -0.12300
H 	H 	0.00637 0.81771 0.16376 0.03800
C 	C 	0.86033 0.78218 0.08860 0.02400
C 	C 	0.84389 0.82035 0.14663 -0.08800
H 	H 	0.80350 0.82028 0.14299 0.03000
C 	C 	0.95239 0.85545 0.21340 -0.00900
H 	H 	0.98345 0.88021 0.25532 0.02400
C 	C 	0.89165 0.85719 0.20865 -0.04500
H 	H 	0.88364 0.88307 0.24700 0.03800
Zn	Zn	0.72752 0.73242 0.98730 1.17700
N 	N 	0.03156 0.68210 0.57479 -0.30800
C 	C 	0.00906 0.64191 0.50736 0.08700
H 	H 	0.01539 0.60526 0.50113 -0.04800
N 	N 	0.97660 0.65748 0.44878 -0.29700
C 	C 	0.01038 0.72872 0.56110 0.03100
C 	C 	0.01937 0.78274 0.60870 -0.10600
H 	H 	0.04165 0.79296 0.66046 0.03500
C 	C 	0.99372 0.82061 0.57658 -0.02600
H 	H 	0.99854 0.85714 0.60756 0.03100
C 	C 	0.96022 0.80581 0.49715 -0.02200
H 	H 	0.94337 0.83263 0.47746 0.03200
C 	C 	0.97710 0.71393 0.48226 0.05400
C 	C 	0.95217 0.75283 0.44914 -0.11200
H 	H 	0.93096 0.74337 0.39655 0.04600
N 	N 	0.07399 0.58437 0.64624 -0.26600
C 	C 	0.05290 0.52349 0.67537 0.12100
H 	H 	0.02424 0.50687 0.72173 -0.04900
N 	N 	0.07424 0.48712 0.63608 -0.31300
C 	C 	0.11502 0.52894 0.57320 0.04200
C 	C 	0.15204 0.51868 0.50789 -0.11700
H 	H 	0.15104 0.47800 0.50291 0.03400
C 	C 	0.11551 0.58851 0.57807 0.02500
C 	C 	0.15368 0.64312 0.52004 -0.09000
H 	H 	0.15361 0.68344 0.52368 0.03100
C 	C 	0.18878 0.56972 0.45327 -0.01300
H 	H 	0.21354 0.56342 0.41135 0.02600
C 	C 	0.19052 0.63220 0.45802 -0.04200
H 	H 	0.21640 0.66609 0.41967 0.03700
Zn	Zn	0.06575 0.67156 0.67937 1.17600
N 	N 	0.69823 0.01543 0.90812 -0.30500
C 	C 	0.67573 0.97524 0.84069 0.08400
H 	H 	0.68206 0.93859 0.83446 -0.04700
N 	N 	0.64327 0.99081 0.78211 -0.29800
C 	C 	0.67705 0.06205 0.89443 0.03000
C 	C 	0.68604 0.11607 0.94203 -0.10500
H 	H 	0.70832 0.12629 0.99379 0.03600
C 	C 	0.66039 0.15394 0.90991 -0.02800
H 	H 	0.66521 0.19047 0.94089 0.03200
C 	C 	0.62689 0.13914 0.83048 -0.02000
H 	H 	0.61004 0.16596 0.81079 0.03200
C 	C 	0.64377 0.04726 0.81559 0.05600
C 	C 	0.61884 0.08616 0.78247 -0.11300
H 	H 	0.59763 0.07670 0.72988 0.04700
N 	N 	0.74066 0.91770 0.97957 -0.26700
C 	C 	0.71957 0.85682 0.00870 0.12300
H 	H 	0.69091 0.84020 0.05506 -0.04900
N 	N 	0.74091 0.82045 0.96941 -0.31400
C 	C 	0.78169 0.86227 0.90653 0.04100
C 	C 	0.81871 0.85201 0.84122 -0.11500
H 	H 	0.81771 0.81133 0.83624 0.03400
C 	C 	0.78218 0.92184 0.91140 0.02700
C 	C 	0.82035 0.97645 0.85337 -0.09500
H 	H 	0.82028 0.01677 0.85701 0.03500
C 	C 	0.85545 0.90305 0.78660 -0.01500
H 	H 	0.88021 0.89675 0.74468 0.02700
C 	C 	0.85719 0.96553 0.79135 -0.03800
H 	H 	0.88307 0.99942 0.75300 0.03500
Zn	Zn	0.73242 0.00489 0.01270 1.17500
N 	N 	0.36489 0.34877 0.24146 -0.30700
C 	C 	0.34239 0.30858 0.17403 0.08700
H 	H 	0.34872 0.27193 0.16780 -0.04800
N 	N 	0.30993 0.32415 0.11545 -0.29700
C 	C 	0.34371 0.39539 0.22777 0.03000
C 	C 	0.35270 0.44941 0.27537 -0.10500
H 	H 	0.37498 0.45963 0.32713 0.03500
C 	C 	0.32705 0.48728 0.24325 -0.02800
H 	H 	0.33187 0.52381 0.27423 0.03100
C 	C 	0.29355 0.47248 0.16382 -0.02100
H 	H 	0.27670 0.49930 0.14413 0.03200
C 	C 	0.31043 0.38060 0.14893 0.05400
C 	C 	0.28550 0.41950 0.11581 -0.11300
H 	H 	0.26429 0.41004 0.06322 0.04600
N 	N 	0.40732 0.25104 0.31291 -0.26600
C 	C 	0.38623 0.19016 0.34204 0.12100
H 	H 	0.35757 0.17354 0.38840 -0.04900
N 	N 	0.40757 0.15379 0.30275 -0.31300
C 	C 	0.44835 0.19561 0.23987 0.04200
C 	C 	0.48537 0.18535 0.17456 -0.11700
H 	H 	0.48437 0.14467 0.16958 0.03400
C 	C 	0.44884 0.25518 0.24474 0.02500
C 	C 	0.48701 0.30979 0.18671 -0.09000
H 	H 	0.48694 0.35011 0.19035 0.03100
C 	C 	0.52211 0.23639 0.11994 -0.01300
H 	H 	0.54687 0.23009 0.07802 0.02600
C 	C 	0.52385 0.29887 0.12469 -0.04200
H 	H 	0.54973 0.33276 0.08634 0.03600
Zn	Zn	0.39908 0.33823 0.34604 1.17600
N 	N 	0.31790 0.34946 0.57479 -0.30700
C 	C 	0.35809 0.36715 0.50736 0.08700
H 	H 	0.39474 0.41013 0.50113 -0.04800
N 	N 	0.34252 0.31912 0.44878 -0.29700
C 	C 	0.27128 0.28166 0.56110 0.03000
C 	C 	0.21726 0.23663 0.60870 -0.10500
H 	H 	0.20704 0.24869 0.66046 0.03500
C 	C 	0.17939 0.17311 0.57658 -0.02800
H 	H 	0.14286 0.14140 0.60756 0.03100
C 	C 	0.19419 0.15441 0.49715 -0.02100
H 	H 	0.16737 0.11074 0.47746 0.03200
C 	C 	0.28607 0.26317 0.48226 0.05400
C 	C 	0.24717 0.19934 0.44914 -0.11300
H 	H 	0.25663 0.18759 0.39655 0.04600
N 	N 	0.41563 0.48962 0.64624 -0.26600
C 	C 	0.47651 0.52941 0.67537 0.12100
H 	H 	0.49313 0.51737 0.72173 -0.04900
N 	N 	0.51288 0.58712 0.63608 -0.31300
C 	C 	0.47106 0.58608 0.57320 0.04200
C 	C 	0.48132 0.63336 0.50789 -0.11700
H 	H 	0.52200 0.67304 0.50291 0.03400
C 	C 	0.41149 0.52700 0.57807 0.02500
C 	C 	0.35688 0.51056 0.52004 -0.09000
H 	H 	0.31656 0.47017 0.52368 0.03100
C 	C 	0.43028 0.61906 0.45327 -0.01300
H 	H 	0.43658 0.65012 0.41135 0.02600
C 	C 	0.36780 0.55832 0.45802 -0.04200
H 	H 	0.33391 0.55031 0.41967 0.03700
Zn	Zn	0.32844 0.39419 0.67937 1.17600
N 	N 	0.98457 0.68279 0.90812 -0.30600
C 	C 	0.02476 0.70048 0.84069 0.08400
H 	H 	0.06141 0.74346 0.83446 -0.04700
N 	N 	0.00919 0.65245 0.78211 -0.29800
C 	C 	0.93795 0.61499 0.89443 0.03000
C 	C 	0.88393 0.56996 0.94203 -0.10500
H 	H 	0.87371 0.58202 0.99379 0.03500
C 	C 	0.84606 0.50644 0.90991 -0.02800
H 	H 	0.80953 0.47473 0.94089 0.03200
C 	C 	0.86086 0.48774 0.83048 -0.02000
H 	H 	0.83404 0.44407 0.81079 0.03200
C 	C 	0.95274 0.59650 0.81559 0.05600
C 	C 	0.91384 0.53267 0.78247 -0.11400
H 	H 	0.92330 0.52092 0.72988 0.04700
N 	N 	0.08230 0.82295 0.97957 -0.26900
C 	C 	0.14318 0.86274 0.00870 0.13000
H 	H 	0.15980 0.85070 0.05506 -0.05100
N 	N 	0.17955 0.92045 0.96941 -0.31700
C 	C 	0.13773 0.91941 0.90653 0.04300
C 	C 	0.14799 0.96669 0.84122 -0.12100
H 	H 	0.18867 0.00637 0.83624 0.03700
C 	C 	0.07816 0.86033 0.91140 0.02500
C 	C 	0.02355 0.84389 0.85337 -0.09300
H 	H 	0.98323 0.80350 0.85701 0.03300
C 	C 	0.09695 0.95239 0.78660 -0.01100
H 	H 	0.10325 0.98345 0.74468 0.02500
C 	C 	0.03447 0.89165 0.79135 -0.04100
H 	H 	0.00058 0.88364 0.75300 0.03600
Zn	Zn	0.99511 0.72752 0.01270 1.17600
N 	N 	0.65123 0.01613 0.24146 -0.30800
C 	C 	0.69142 0.03382 0.17403 0.08400
H 	H 	0.72807 0.07680 0.16780 -0.04700
N 	N 	0.67585 0.98579 0.11545 -0.29600
C 	C 	0.60461 0.94833 0.22777 0.03200
C 	C 	0.55059 0.90330 0.27537 -0.10600
H 	H 	0.54037 0.91536 0.32713 0.03500
C 	C 	0.51272 0.83978 0.24325 -0.02700
H 	H 	0.47619 0.80807 0.27423 0.03100
C 	C 	0.52752 0.82108 0.16382 -0.02100
H 	H 	0.50070 0.77741 0.14413 0.03200
C 	C 	0.61940 0.92984 0.14893 0.05400
C 	C 	0.58050 0.86601 0.11581 -0.11200
H 	H 	0.58996 0.85426 0.06322 0.04600
N 	N 	0.74896 0.15629 0.31291 -0.26600
C 	C 	0.80984 0.19608 0.34204 0.12100
H 	H 	0.82646 0.18404 0.38840 -0.04900
N 	N 	0.84621 0.25379 0.30275 -0.31300
C 	C 	0.80439 0.25275 0.23987 0.04200
C 	C 	0.81465 0.30003 0.17456 -0.11700
H 	H 	0.85533 0.33971 0.16958 0.03400
C 	C 	0.74482 0.19367 0.24474 0.02500
C 	C 	0.69021 0.17723 0.18671 -0.09000
H 	H 	0.64989 0.13684 0.19035 0.03100
C 	C 	0.76361 0.28573 0.11994 -0.01300
H 	H 	0.76991 0.31679 0.07802 0.02600
C 	C 	0.70113 0.22499 0.12469 -0.04200
H 	H 	0.66724 0.21698 0.08634 0.03600
Zn	Zn	0.66177 0.06086 0.34604 1.17600
N 	N 	0.65054 0.96844 0.57479 -0.30800
C 	C 	0.63285 0.99094 0.50736 0.08700
H 	H 	0.58987 0.98461 0.50113 -0.04800
N 	N 	0.68088 0.02340 0.44878 -0.29700
C 	C 	0.71834 0.98962 0.56110 0.03100
C 	C 	0.76337 0.98063 0.60870 -0.10700
H 	H 	0.75131 0.95835 0.66046 0.03500
C 	C 	0.82689 0.00628 0.57658 -0.02600
H 	H 	0.85860 0.00146 0.60756 0.03100
C 	C 	0.84559 0.03978 0.49715 -0.02200
H 	H 	0.88926 0.05663 0.47746 0.03200
C 	C 	0.73683 0.02290 0.48226 0.05400
C 	C 	0.80066 0.04783 0.44914 -0.11200
H 	H 	0.81241 0.06904 0.39655 0.04600
N 	N 	0.51038 0.92601 0.64624 -0.26600
C 	C 	0.47059 0.94710 0.67537 0.12100
H 	H 	0.48263 0.97576 0.72173 -0.04900
N 	N 	0.41288 0.92576 0.63608 -0.31400
C 	C 	0.41392 0.88498 0.57320 0.04200
C 	C 	0.36664 0.84796 0.50789 -0.11700
H 	H 	0.32696 0.84896 0.50291 0.03400
C 	C 	0.47300 0.88449 0.57807 0.02500
C 	C 	0.48944 0.84632 0.52004 -0.09000
H 	H 	0.52983 0.84639 0.52368 0.03100
C 	C 	0.38094 0.81122 0.45327 -0.01300
H 	H 	0.34988 0.78646 0.41135 0.02600
C 	C 	0.44168 0.80948 0.45802 -0.04200
H 	H 	0.44969 0.78360 0.41967 0.03700
Zn	Zn	0.60581 0.93425 0.67937 1.17600
N 	N 	0.31721 0.30177 0.90812 -0.30700
C 	C 	0.29952 0.32427 0.84069 0.08700
H 	H 	0.25654 0.31794 0.83446 -0.04800
N 	N 	0.34755 0.35673 0.78211 -0.29700
C 	C 	0.38501 0.32295 0.89443 0.03000
C 	C 	0.43004 0.31396 0.94203 -0.10500
H 	H 	0.41798 0.29168 0.99379 0.03500
C 	C 	0.49356 0.33961 0.90991 -0.02800
H 	H 	0.52527 0.33479 0.94089 0.03200
C 	C 	0.51226 0.37311 0.83048 -0.02100
H 	H 	0.55593 0.38996 0.81079 0.03200
C 	C 	0.40350 0.35623 0.81559 0.05400
C 	C 	0.46733 0.38116 0.78247 -0.11300
H 	H 	0.47908 0.40237 0.72988 0.04600
N 	N 	0.17705 0.25934 0.97957 -0.26600
C 	C 	0.13726 0.28043 0.00870 0.12300
H 	H 	0.14930 0.30909 0.05506 -0.04900
N 	N 	0.07955 0.25909 0.96941 -0.31400
C 	C 	0.08059 0.21831 0.90653 0.04500
C 	C 	0.03331 0.18129 0.84122 -0.12300
H 	H 	0.99363 0.18229 0.83624 0.03800
C 	C 	0.13967 0.21782 0.91140 0.02400
C 	C 	0.15611 0.17965 0.85337 -0.08800
H 	H 	0.19650 0.17972 0.85701 0.03000
C 	C 	0.04761 0.14455 0.78660 -0.00900
H 	H 	0.01655 0.11979 0.74468 0.02400
C 	C 	0.10835 0.14281 0.79135 -0.04500
H 	H 	0.11636 0.11693 0.75300 0.03800
Zn	Zn	0.27248 0.26758 0.01270 1.17700
N 	N 	0.98387 0.63511 0.24146 -0.30800
C 	C 	0.96618 0.65761 0.17403 0.08400
H 	H 	0.92320 0.65128 0.16780 -0.04700
N 	N 	0.01421 0.69007 0.11545 -0.29600
C 	C 	0.05167 0.65629 0.22777 0.03200
C 	C 	0.09670 0.64730 0.27537 -0.10600
H 	H 	0.08464 0.62502 0.32713 0.03500
C 	C 	0.16022 0.67295 0.24325 -0.02700
H 	H 	0.19193 0.66813 0.27423 0.03100
C 	C 	0.17892 0.70645 0.16382 -0.02100
H 	H 	0.22259 0.72330 0.14413 0.03200
C 	C 	0.07016 0.68957 0.14893 0.05400
C 	C 	0.13399 0.71450 0.11581 -0.11200
H 	H 	0.14574 0.73571 0.06322 0.04700
N 	N 	0.84371 0.59268 0.31291 -0.26600
C 	C 	0.80392 0.61377 0.34204 0.12100
H 	H 	0.81596 0.64243 0.38840 -0.04900
N 	N 	0.74621 0.59243 0.30275 -0.31300
C 	C 	0.74725 0.55165 0.23987 0.04200
C 	C 	0.69997 0.51463 0.17456 -0.11700
H 	H 	0.66029 0.51563 0.16958 0.03400
C 	C 	0.80633 0.55116 0.24474 0.02500
C 	C 	0.82277 0.51299 0.18671 -0.09000
H 	H 	0.86316 0.51306 0.19035 0.03100
C 	C 	0.71427 0.47789 0.11994 -0.01300
H 	H 	0.68321 0.45313 0.07802 0.02600
C 	C 	0.77501 0.47615 0.12469 -0.04200
H 	H 	0.78302 0.45027 0.08634 0.03600
Zn	Zn	0.93914 0.60092 0.34604 1.17600
