data_crystal

_cell_length_a 8.22220
_cell_length_b 16.22470
_cell_length_c 16.46140
_cell_angle_alpha 93.27500
_cell_angle_beta  95.79700
_cell_angle_gamma 97.89500

_symmetry_space_group_name_	'P 1'
_symmetry_space_group_name_H-M	'P 1'

loop_
_symmetry_equiv_pos_as_xyz
  x,y,z

loop_
_atom_site_label
_atom_site_type_symbol
_atom_site_fract_x
_atom_site_fract_y
_atom_site_fract_z
_atom_site_charge
Ag	Ag	0.54569 0.76279 0.68416 0.51200
Ag	Ag	0.47232 0.36038 0.72300 0.59700
C 	C 	0.54130 0.58100 0.74000 0.34100
C 	C 	0.55280 0.59900 0.82940 -0.16500
C 	C 	0.42930 0.56150 0.87290 0.12500
H 	H 	0.34350 0.52340 0.84580 0.03300
C 	C 	0.43340 0.58060 0.95630 -0.16200
H 	H 	0.34810 0.55810 0.98500 0.21800
C 	C 	0.56750 0.63390 0.99570 0.12200
C 	C 	0.69390 0.67160 0.95300 -0.11900
H 	H 	0.78220 0.70760 0.98090 0.15500
C 	C 	0.68650 0.65510 0.86940 0.12300
H 	H 	0.76820 0.68050 0.84010 -0.00200
C 	C 	0.56890 0.65020 0.08380 0.17000
C 	C 	0.50640 0.72130 0.45840 0.34100
C 	C 	0.50720 0.80480 0.42610 -0.15900
C 	C 	0.40040 0.85670 0.45660 0.08900
H 	H 	0.33400 0.83910 0.49660 -0.01800
C 	C 	0.39500 0.93450 0.42630 -0.11000
H 	H 	0.32350 0.96870 0.44580 0.08900
C 	C 	0.49470 0.96170 0.36750 0.07200
C 	C 	0.60370 0.91000 0.33780 -0.10400
H 	H 	0.67200 0.92790 0.29870 0.12700
C 	C 	0.60740 0.83200 0.36780 0.08300
H 	H 	0.67850 0.79750 0.34840 0.03300
C 	C 	0.48850 0.04360 0.34050 0.08100
N 	N 	0.56480 0.65950 0.15250 -0.13000
N 	N 	0.48050 0.10950 0.32020 -0.19600
O 	O 	0.46230 0.51200 0.70770 -0.41300
O 	O 	0.61130 0.63490 0.69630 -0.46500
O 	O 	0.47470 0.71020 0.52970 -0.46000
O 	O 	0.54150 0.66160 0.41190 -0.44000
Ag	Ag	0.45431 0.23721 0.31584 0.51100
Ag	Ag	0.52768 0.63962 0.27700 0.59600
C 	C 	0.45870 0.41900 0.26000 0.34100
C 	C 	0.44720 0.40100 0.17060 -0.16500
C 	C 	0.57070 0.43850 0.12710 0.12500
H 	H 	0.65650 0.47660 0.15420 0.03300
C 	C 	0.56660 0.41940 0.04370 -0.16200
H 	H 	0.65190 0.44190 0.01500 0.21800
C 	C 	0.43250 0.36610 0.00430 0.12200
C 	C 	0.30610 0.32840 0.04700 -0.11900
H 	H 	0.21780 0.29240 0.01910 0.15500
C 	C 	0.31350 0.34490 0.13060 0.12300
H 	H 	0.23180 0.31950 0.15990 -0.00200
C 	C 	0.43110 0.34980 0.91620 0.17000
C 	C 	0.49360 0.27870 0.54160 0.34100
C 	C 	0.49280 0.19520 0.57390 -0.15900
C 	C 	0.59960 0.14330 0.54340 0.08900
H 	H 	0.66600 0.16090 0.50340 -0.01800
C 	C 	0.60500 0.06550 0.57370 -0.11000
H 	H 	0.67650 0.03130 0.55420 0.08900
C 	C 	0.50530 0.03830 0.63250 0.07200
C 	C 	0.39630 0.09000 0.66220 -0.10400
H 	H 	0.32800 0.07210 0.70130 0.12700
C 	C 	0.39260 0.16800 0.63220 0.08300
H 	H 	0.32150 0.20250 0.65160 0.03300
C 	C 	0.51150 0.95640 0.65950 0.08100
N 	N 	0.43520 0.34050 0.84750 -0.13000
N 	N 	0.51950 0.89050 0.67980 -0.19600
O 	O 	0.53770 0.48800 0.29230 -0.41300
O 	O 	0.38870 0.36510 0.30370 -0.46500
O 	O 	0.52530 0.28980 0.47030 -0.46000
O 	O 	0.45850 0.33840 0.58810 -0.44000
Ag	Ag	0.52053 0.56661 0.55714 0.45800
Ag	Ag	0.86810 0.60514 0.63444 0.38500
Ag	Ag	0.81738 0.41957 0.60770 0.45100
Ag	Ag	0.81583 0.34626 0.44151 0.36500
Ag	Ag	0.83327 0.49037 0.34775 0.42400
Ag	Ag	0.84632 0.63660 0.45633 0.41900
C 	C 	0.76460 0.52530 0.52600 -0.36400
C 	C 	0.77060 0.47290 0.47050 -0.35400
C 	C 	0.03540 0.73200 0.32880 0.11200
C 	C 	0.03750 0.79970 0.26820 0.93200
C 	C 	0.05340 0.53840 0.21200 0.06100
C 	C 	0.05980 0.54930 0.12030 1.10500
F 	F 	0.01440 0.87360 0.30910 -0.46900
F 	F 	0.91830 0.79530 0.21680 -0.41500
F 	F 	0.18390 0.82450 0.24560 -0.45900
F 	F 	0.95800 0.59400 0.09100 -0.23200
F 	F 	0.19600 0.56190 0.09530 -0.27100
F 	F 	0.99400 0.47090 0.08140 -0.34900
O 	O 	0.89820 0.71370 0.35370 -0.28800
O 	O 	0.16340 0.70260 0.34190 -0.26400
O 	O 	0.91370 0.53120 0.23440 -0.25200
O 	O 	0.19040 0.53600 0.25400 -0.25600
F 	F 	0.15900 0.63090 0.11410 -0.31300
F 	F 	0.16000 0.51190 0.08840 -0.30600
F 	F 	0.92800 0.56000 0.08100 -0.26000
F 	F 	0.98500 0.75000 0.19000 -0.22700
Ag	Ag	0.47947 0.43339 0.44286 0.45800
Ag	Ag	0.13190 0.39486 0.36556 0.38500
Ag	Ag	0.18262 0.58043 0.39230 0.45100
Ag	Ag	0.18417 0.65374 0.55849 0.36500
Ag	Ag	0.16673 0.50963 0.65225 0.42400
Ag	Ag	0.15368 0.36340 0.54367 0.41900
C 	C 	0.23540 0.47470 0.47400 -0.36400
C 	C 	0.22940 0.52710 0.52950 -0.35400
C 	C 	0.96460 0.26800 0.67120 0.11200
C 	C 	0.96250 0.20030 0.73180 0.93200
C 	C 	0.94660 0.46160 0.78800 0.06100
C 	C 	0.94020 0.45070 0.87970 1.10500
F 	F 	0.98560 0.12640 0.69090 -0.46900
F 	F 	0.08170 0.20470 0.78320 -0.41500
F 	F 	0.81610 0.17550 0.75440 -0.45900
F 	F 	0.04200 0.40600 0.90900 -0.23200
F 	F 	0.80400 0.43810 0.90470 -0.27100
F 	F 	0.00600 0.52910 0.91860 -0.34900
O 	O 	0.10180 0.28630 0.64630 -0.28800
O 	O 	0.83660 0.29740 0.65810 -0.26400
O 	O 	0.08630 0.46880 0.76560 -0.25200
O 	O 	0.80960 0.46400 0.74600 -0.25600
F 	F 	0.84100 0.36910 0.88590 -0.31300
F 	F 	0.84000 0.48810 0.91160 -0.30600
F 	F 	0.07200 0.44000 0.91900 -0.26000
F 	F 	0.01500 0.25000 0.81000 -0.22700
