data_crystal

_cell_length_a 8.67150
_cell_length_b 13.34030
_cell_length_c 27.44120
_cell_angle_alpha 93.87420
_cell_angle_beta  90.00000
_cell_angle_gamma 108.96600

_symmetry_space_group_name_	'P 1'
_symmetry_space_group_name_H-M	'P 1'

loop_
_symmetry_equiv_pos_as_xyz
  x,y,z

loop_
_atom_site_label
_atom_site_type_symbol
_atom_site_fract_x
_atom_site_fract_y
_atom_site_fract_z
_atom_site_charge
Mn	Mn	0.87750 0.54192 0.20252 1.26900
Mn	Mn	0.33558 0.45808 0.29748 1.27000
Mn	Mn	0.12250 0.45808 0.79748 1.27000
Mn	Mn	0.66442 0.54192 0.70252 1.27100
H 	H 	0.44720 0.48980 0.11400 0.14900
H 	H 	0.30730 0.59880 0.13800 0.12900
H 	H 	0.14480 0.50560 0.12600 0.12300
H 	H 	0.91950 0.33340 0.08010 0.04100
H 	H 	0.75880 0.34540 0.01460 0.07400
H 	H 	0.87120 0.38080 0.93900 0.03400
H 	H 	0.30810 0.39140 0.99280 0.05200
H 	H 	0.92030 0.32080 0.22930 -0.02000
H 	H 	0.80500 0.14060 0.21810 0.08100
H 	H 	0.50010 0.18280 0.11930 0.09600
H 	H 	0.61630 0.36280 0.13620 -0.00300
H 	H 	0.73800 0.97900 0.19070 0.07500
H 	H 	0.61880 0.80120 0.17410 0.00400
H 	H 	0.25820 0.84080 0.10190 0.02100
H 	H 	0.36770 0.02280 0.11740 0.07300
H 	H 	0.02530 0.71680 0.28860 0.00600
H 	H 	0.10380 0.89480 0.31010 0.09000
H 	H 	0.03220 0.94360 0.17370 0.08400
H 	H 	0.94480 0.76360 0.15750 -0.01000
H 	H 	0.95740 0.51020 0.38600 0.14800
H 	H 	0.70850 0.40120 0.36200 0.12900
H 	H 	0.63920 0.49440 0.37400 0.12300
H 	H 	0.58610 0.66660 0.41990 0.04100
H 	H 	0.41340 0.65460 0.48540 0.07300
H 	H 	0.49040 0.61920 0.56100 0.03400
H 	H 	0.91670 0.60860 0.50720 0.05200
H 	H 	0.59950 0.67920 0.27070 -0.01900
H 	H 	0.66440 0.85940 0.28190 0.08100
H 	H 	0.31730 0.81720 0.38070 0.09600
H 	H 	0.25350 0.63720 0.36380 -0.00200
H 	H 	0.75900 0.02100 0.30930 0.07500
H 	H 	0.81760 0.19880 0.32590 0.00400
H 	H 	0.41740 0.15920 0.39810 0.02000
H 	H 	0.34490 0.97720 0.38260 0.07400
H 	H 	0.30850 0.28320 0.21140 0.00600
H 	H 	0.20900 0.10520 0.18990 0.09000
H 	H 	0.08860 0.05640 0.32630 0.08500
H 	H 	0.18120 0.23640 0.34250 -0.01100
H 	H 	0.55280 0.51020 0.88600 0.14900
H 	H 	0.69270 0.40120 0.86200 0.12900
H 	H 	0.85520 0.49440 0.87400 0.12300
H 	H 	0.08050 0.66660 0.91990 0.04100
H 	H 	0.24120 0.65460 0.98540 0.07400
H 	H 	0.12880 0.61920 0.06100 0.03400
H 	H 	0.69190 0.60860 0.00720 0.05200
H 	H 	0.07970 0.67920 0.77070 -0.02000
H 	H 	0.19500 0.85940 0.78190 0.08100
H 	H 	0.49990 0.81720 0.88070 0.09600
H 	H 	0.38370 0.63720 0.86380 -0.00300
H 	H 	0.26200 0.02100 0.80930 0.07500
H 	H 	0.38120 0.19880 0.82590 0.00400
H 	H 	0.74180 0.15920 0.89810 0.02100
H 	H 	0.63230 0.97720 0.88260 0.07300
H 	H 	0.97470 0.28320 0.71140 0.00600
H 	H 	0.89620 0.10520 0.68990 0.09000
H 	H 	0.96780 0.05640 0.82630 0.08400
H 	H 	0.05520 0.23640 0.84250 -0.01000
H 	H 	0.04260 0.48980 0.61400 0.14800
H 	H 	0.29150 0.59880 0.63800 0.12900
H 	H 	0.36080 0.50560 0.62600 0.12300
H 	H 	0.41390 0.33340 0.58010 0.04100
H 	H 	0.58660 0.34540 0.51460 0.07300
H 	H 	0.50960 0.38080 0.43900 0.03400
H 	H 	0.08330 0.39140 0.49280 0.05200
H 	H 	0.40050 0.32080 0.72930 -0.01900
H 	H 	0.33560 0.14060 0.71810 0.08100
H 	H 	0.68270 0.18280 0.61930 0.09600
H 	H 	0.74650 0.36280 0.63620 -0.00200
H 	H 	0.24100 0.97900 0.69070 0.07500
H 	H 	0.18240 0.80120 0.67410 0.00400
H 	H 	0.58260 0.84080 0.60190 0.02000
H 	H 	0.65510 0.02280 0.61740 0.07400
H 	H 	0.69150 0.71680 0.78860 0.00600
H 	H 	0.79100 0.89480 0.81010 0.09000
H 	H 	0.91140 0.94360 0.67370 0.08500
H 	H 	0.81880 0.76360 0.65750 -0.01100
C 	C 	0.22854 0.50728 0.19614 0.44300
C 	C 	0.25154 0.52388 0.14165 -0.27800
C 	C 	0.12716 0.35912 0.04224 -0.06600
C 	C 	0.96429 0.34678 0.04944 0.01000
C 	C 	0.86886 0.35452 0.01032 -0.08400
C 	C 	0.93629 0.37578 0.96500 0.02700
C 	C 	0.10117 0.38974 0.95791 -0.09700
C 	C 	0.19788 0.38176 0.99690 0.02000
C 	C 	0.17639 0.41438 0.90895 0.34600
C 	C 	0.83050 0.29300 0.20810 0.10100
C 	C 	0.76360 0.18400 0.20060 -0.14400
C 	C 	0.63650 0.13880 0.16770 0.07100
C 	C 	0.58320 0.20860 0.14290 -0.14100
C 	C 	0.65446 0.31752 0.15340 0.08700
C 	C 	0.56640 0.02180 0.15770 0.05000
C 	C 	0.63990 0.95340 0.17300 -0.13300
C 	C 	0.56790 0.84580 0.16190 0.08700
C 	C 	0.35580 0.86940 0.11970 0.05800
C 	C 	0.42000 0.97840 0.12930 -0.11500
C 	C 	0.02680 0.76280 0.26440 0.10300
C 	C 	0.07740 0.87100 0.27760 -0.14900
C 	C 	0.08852 0.94204 0.24378 0.06700
C 	C 	0.03450 0.89980 0.19840 -0.15000
C 	C 	0.98240 0.79040 0.18910 0.08900
C 	C 	0.72126 0.49272 0.30386 0.44300
C 	C 	0.72766 0.47612 0.35835 -0.27900
C 	C 	0.76804 0.64088 0.45776 -0.06700
C 	C 	0.61751 0.65322 0.45056 0.01100
C 	C 	0.51434 0.64548 0.48968 -0.08300
C 	C 	0.56051 0.62422 0.53500 0.02500
C 	C 	0.71143 0.61026 0.54209 -0.09600
C 	C 	0.81612 0.61824 0.50310 0.02000
C 	C 	0.76201 0.58562 0.59105 0.34600
C 	C 	0.53750 0.70700 0.29190 0.10100
C 	C 	0.57960 0.81600 0.29940 -0.14300
C 	C 	0.49770 0.86120 0.33230 0.07100
C 	C 	0.37460 0.79140 0.35710 -0.14000
C 	C 	0.33694 0.68248 0.34660 0.08700
C 	C 	0.54460 0.97820 0.34230 0.05200
C 	C 	0.68650 0.04660 0.32700 -0.13400
C 	C 	0.72210 0.15420 0.33810 0.08800
C 	C 	0.48640 0.13060 0.38030 0.05900
C 	C 	0.44160 0.02160 0.37070 -0.11600
C 	C 	0.26400 0.23720 0.23560 0.10100
C 	C 	0.20640 0.12900 0.22240 -0.15000
C 	C 	0.14648 0.05796 0.25622 0.06900
C 	C 	0.13470 0.10020 0.30160 -0.15500
C 	C 	0.19200 0.20960 0.31090 0.09500
C 	C 	0.77146 0.49272 0.80386 0.44300
C 	C 	0.74846 0.47612 0.85835 -0.27800
C 	C 	0.87284 0.64088 0.95776 -0.06600
C 	C 	0.03571 0.65322 0.95056 0.01000
C 	C 	0.13114 0.64548 0.98968 -0.08400
C 	C 	0.06371 0.62422 0.03500 0.02700
C 	C 	0.89883 0.61026 0.04209 -0.09700
C 	C 	0.80212 0.61824 0.00310 0.02000
C 	C 	0.82361 0.58562 0.09105 0.34600
C 	C 	0.16950 0.70700 0.79190 0.10100
C 	C 	0.23640 0.81600 0.79940 -0.14400
C 	C 	0.36350 0.86120 0.83230 0.07100
C 	C 	0.41680 0.79140 0.85710 -0.14100
C 	C 	0.34554 0.68248 0.84660 0.08700
C 	C 	0.43360 0.97820 0.84230 0.05000
C 	C 	0.36010 0.04660 0.82700 -0.13300
C 	C 	0.43210 0.15420 0.83810 0.08700
C 	C 	0.64420 0.13060 0.88030 0.05800
C 	C 	0.58000 0.02160 0.87070 -0.11500
C 	C 	0.97320 0.23720 0.73560 0.10300
C 	C 	0.92260 0.12900 0.72240 -0.14900
C 	C 	0.91148 0.05796 0.75622 0.06700
C 	C 	0.96550 0.10020 0.80160 -0.15000
C 	C 	0.01760 0.20960 0.81090 0.08900
C 	C 	0.27874 0.50728 0.69614 0.44300
C 	C 	0.27234 0.52388 0.64165 -0.27900
C 	C 	0.23196 0.35912 0.54224 -0.06700
C 	C 	0.38249 0.34678 0.54944 0.01100
C 	C 	0.48566 0.35452 0.51032 -0.08300
C 	C 	0.43949 0.37578 0.46500 0.02500
C 	C 	0.28857 0.38974 0.45791 -0.09600
C 	C 	0.18388 0.38176 0.49690 0.02000
C 	C 	0.23799 0.41438 0.40895 0.34600
C 	C 	0.46250 0.29300 0.70810 0.10100
C 	C 	0.42040 0.18400 0.70060 -0.14300
C 	C 	0.50230 0.13880 0.66770 0.07100
C 	C 	0.62540 0.20860 0.64290 -0.14000
C 	C 	0.66306 0.31752 0.65340 0.08700
C 	C 	0.45540 0.02180 0.65770 0.05200
C 	C 	0.31350 0.95340 0.67300 -0.13400
C 	C 	0.27790 0.84580 0.66190 0.08800
C 	C 	0.51360 0.86940 0.61970 0.05900
C 	C 	0.55840 0.97840 0.62930 -0.11600
C 	C 	0.73600 0.76280 0.76440 0.10100
C 	C 	0.79360 0.87100 0.77760 -0.15000
C 	C 	0.85352 0.94204 0.74378 0.06900
C 	C 	0.86530 0.89980 0.69840 -0.15500
C 	C 	0.80800 0.79040 0.68910 0.09500
S 	S 	0.25143 0.34582 0.09117 0.37300
S 	S 	0.90561 0.65418 0.40883 0.37200
S 	S 	0.74857 0.65418 0.90883 0.37300
S 	S 	0.09439 0.34582 0.59117 0.37200
N 	N 	0.34307 0.46274 0.11591 -0.18100
N 	N 	0.77318 0.36056 0.18639 -0.24000
N 	N 	0.43500 0.80140 0.13620 -0.13100
N 	N 	0.98191 0.72222 0.22084 -0.24700
N 	N 	0.88033 0.53726 0.38409 -0.18100
N 	N 	0.41262 0.63944 0.31361 -0.24000
N 	N 	0.63360 0.19860 0.36380 -0.13100
N 	N 	0.25969 0.27778 0.27916 -0.24600
N 	N 	0.65693 0.53726 0.88409 -0.18100
N 	N 	0.22682 0.63944 0.81361 -0.24000
N 	N 	0.56500 0.19860 0.86380 -0.13100
N 	N 	0.01809 0.27778 0.77916 -0.24700
N 	N 	0.11967 0.46274 0.61591 -0.18100
N 	N 	0.58738 0.36056 0.68639 -0.24000
N 	N 	0.36640 0.80140 0.63620 -0.13100
N 	N 	0.74031 0.72222 0.72084 -0.24600
O 	O 	0.11299 0.52958 0.21527 -0.49000
O 	O 	0.33081 0.47822 0.21896 -0.44600
O 	O 	0.14145 0.28750 0.12647 -0.23900
O 	O 	0.37516 0.30692 0.07062 -0.24200
O 	O 	0.32055 0.41470 0.90411 -0.29300
O 	O 	0.09085 0.43250 0.87595 -0.43600
O 	O 	0.58341 0.47042 0.28473 -0.49200
O 	O 	0.85259 0.52178 0.28104 -0.44700
O 	O 	0.85395 0.71250 0.37353 -0.24000
O 	O 	0.06824 0.69308 0.42938 -0.24100
O 	O 	0.90585 0.58530 0.59589 -0.29200
O 	O 	0.65835 0.56750 0.62405 -0.43500
O 	O 	0.88701 0.47042 0.78473 -0.49000
O 	O 	0.66919 0.52178 0.78104 -0.44600
O 	O 	0.85855 0.71250 0.87353 -0.23900
O 	O 	0.62484 0.69308 0.92938 -0.24200
O 	O 	0.67945 0.58530 0.09589 -0.29300
O 	O 	0.90915 0.56750 0.12405 -0.43600
O 	O 	0.41659 0.52958 0.71527 -0.49200
O 	O 	0.14741 0.47822 0.71896 -0.44700
O 	O 	0.14605 0.28750 0.62647 -0.24000
O 	O 	0.93176 0.30692 0.57062 -0.24100
O 	O 	0.09415 0.41470 0.40411 -0.29200
O 	O 	0.34165 0.43250 0.37595 -0.43500
