data_crystal

_cell_length_a 7.49330
_cell_length_b 14.06050
_cell_length_c 14.06050
_cell_angle_alpha 97.71360
_cell_angle_beta  101.34100
_cell_angle_gamma 101.34100

_symmetry_space_group_name_	'P 1'
_symmetry_space_group_name_H-M	'P 1'

loop_
_symmetry_equiv_pos_as_xyz
  x,y,z

loop_
_atom_site_label
_atom_site_type_symbol
_atom_site_fract_x
_atom_site_fract_y
_atom_site_fract_z
_atom_site_charge
Ni	Ni	0.75000 0.41123 0.58877 1.05600
Ni	Ni	0.25000 0.58877 0.41123 1.05000
Ni	Ni	0.50000 0.00000 -0.00000 0.97500
Ni	Ni	-0.00000 0.00000 -0.00000 0.96400
H 	H 	0.63100 0.13530 0.36830 0.05900
H 	H 	0.58230 0.01940 0.22860 -0.03200
H 	H 	0.59930 0.33950 0.19710 0.06500
H 	H 	0.54520 0.21710 0.06210 -0.02300
H 	H 	0.88400 0.23690 0.61910 -0.00500
H 	H 	0.89760 0.12290 0.72870 0.05800
H 	H 	0.86900 0.63170 0.86470 0.09100
H 	H 	0.91770 0.77140 0.98060 0.06900
H 	H 	0.90070 0.80290 0.66050 0.08300
H 	H 	0.95480 0.93790 0.78290 0.07100
H 	H 	0.61600 0.38090 0.76310 0.00100
H 	H 	0.60240 0.27130 0.87710 0.10200
H 	H 	0.36900 0.86470 0.63170 0.08500
H 	H 	0.41770 0.98060 0.77140 0.06300
H 	H 	0.40070 0.66050 0.80290 0.07400
H 	H 	0.45480 0.78290 0.93790 0.06600
H 	H 	0.11600 0.76310 0.38090 -0.00200
H 	H 	0.10240 0.87710 0.27130 0.09600
H 	H 	0.13100 0.36830 0.13530 0.05300
H 	H 	0.08230 0.22860 0.01940 -0.03800
H 	H 	0.09930 0.19710 0.33950 0.05600
H 	H 	0.04520 0.06210 0.21710 -0.02900
H 	H 	0.38400 0.61910 0.23690 -0.00900
H 	H 	0.39760 0.72870 0.12290 0.05200
C 	C 	0.61520 0.15398 0.30674 -0.08700
C 	C 	0.62180 0.25192 0.29858 -0.01300
C 	C 	0.58470 0.08459 0.22205 0.05100
C 	C 	0.65870 0.33108 0.38818 0.29900
C 	C 	0.59570 0.27468 0.20562 -0.08100
C 	C 	0.56380 0.20039 0.12447 0.05000
C 	C 	0.83210 0.24002 0.67398 0.05500
C 	C 	0.83680 0.17394 0.73786 -0.07700
C 	C 	0.88480 0.69326 0.84602 -0.06300
C 	C 	0.87820 0.70142 0.74808 -0.01200
C 	C 	0.91530 0.77795 0.91541 0.05900
C 	C 	0.84130 0.61182 0.66892 0.30100
C 	C 	0.90430 0.79438 0.72532 -0.06000
C 	C 	0.93620 0.87553 0.79961 0.05100
C 	C 	0.66790 0.32602 0.75998 0.06600
C 	C 	0.66320 0.26214 0.82606 -0.07900
C 	C 	0.38480 0.84602 0.69326 -0.06500
C 	C 	0.37820 0.74808 0.70142 -0.02200
C 	C 	0.41530 0.91541 0.77795 0.05200
C 	C 	0.34130 0.66892 0.61182 0.29900
C 	C 	0.40430 0.72532 0.79438 -0.06100
C 	C 	0.43620 0.79961 0.87553 0.04200
C 	C 	0.16790 0.75998 0.32602 0.06100
C 	C 	0.16320 0.82606 0.26214 -0.07900
C 	C 	0.11520 0.30674 0.15398 -0.08900
C 	C 	0.12180 0.29858 0.25192 -0.02400
C 	C 	0.08470 0.22205 0.08459 0.04300
C 	C 	0.15870 0.38818 0.33108 0.29800
C 	C 	0.09570 0.20562 0.27468 -0.08300
C 	C 	0.06380 0.12447 0.20039 0.04000
C 	C 	0.33210 0.67398 0.24002 0.05000
C 	C 	0.33680 0.73786 0.17394 -0.07700
C 	C 	0.75000 0.11314 0.88686 0.33800
C 	C 	0.75000 0.18426 0.81574 -0.01900
C 	C 	0.25000 0.88686 0.11314 0.33700
C 	C 	0.25000 0.81574 0.18426 -0.02700
N 	N 	0.55870 0.10617 0.13145 -0.24800
N 	N 	0.94130 0.86855 0.89383 -0.15600
N 	N 	0.44130 0.89383 0.86855 -0.16200
N 	N 	0.05870 0.13145 0.10617 -0.25300
N 	N 	0.75000 0.31582 0.68418 -0.24100
N 	N 	0.25000 0.68418 0.31582 -0.24300
N 	N 	0.25000 0.04645 0.95355 -0.24300
N 	N 	0.25000 0.10234 0.89766 -0.04100
N 	N 	0.25000 0.15630 0.84370 -0.07900
N 	N 	0.75000 0.95355 0.04645 -0.23000
N 	N 	0.75000 0.89766 0.10234 -0.03300
N 	N 	0.75000 0.84370 0.15630 -0.06400
O 	O 	0.62640 0.10943 0.93573 -0.37400
O 	O 	0.67070 0.41879 0.37653 -0.31300
O 	O 	0.67610 0.30313 0.47075 -0.42800
O 	O 	0.87360 0.06427 0.89057 -0.40200
O 	O 	0.82930 0.62347 0.58121 -0.30600
O 	O 	0.82390 0.52925 0.69687 -0.41200
O 	O 	0.37360 0.89057 0.06427 -0.41400
O 	O 	0.32930 0.58121 0.62347 -0.32000
O 	O 	0.32390 0.69687 0.52925 -0.41900
O 	O 	0.12640 0.93573 0.10943 -0.38200
O 	O 	0.17070 0.37653 0.41879 -0.32700
O 	O 	0.17610 0.47075 0.30313 -0.43500
