data_crystal

_cell_length_a 8.93670
_cell_length_b 9.49440
_cell_length_c 11.97690
_cell_angle_alpha 83.96700
_cell_angle_beta  73.74000
_cell_angle_gamma 67.59800

_symmetry_space_group_name_	'P 1'
_symmetry_space_group_name_H-M	'P 1'

loop_
_symmetry_equiv_pos_as_xyz
  x,y,z

loop_
_atom_site_label
_atom_site_type_symbol
_atom_site_fract_x
_atom_site_fract_y
_atom_site_fract_z
_atom_site_charge
U 	U 	0.57955 0.71034 0.82113 -0.00100
U 	U 	0.42045 0.28966 0.17887 -0.00200
U 	U 	0.50000 -0.00000 0.50000 0.01900
H 	H 	0.76360 0.12580 0.96000 0.08800
H 	H 	0.01960 0.94450 0.36300 0.08200
H 	H 	0.29240 0.73660 0.25710 0.08800
H 	H 	0.98250 0.08100 0.14340 0.07700
H 	H 	0.42580 0.78490 0.15690 0.08100
H 	H 	0.23640 0.87420 0.04000 0.08800
H 	H 	0.99650 0.22400 0.78420 0.08300
H 	H 	0.98910 0.12050 0.33370 0.07700
H 	H 	0.97430 0.84810 0.09280 0.06900
H 	H 	0.01090 0.87950 0.66630 0.07600
H 	H 	0.01750 0.91900 0.85660 0.07700
H 	H 	0.70760 0.26340 0.74290 0.08800
H 	H 	0.98040 0.05550 0.63700 0.08000
H 	H 	0.57420 0.21510 0.84310 0.08000
H 	H 	0.02570 0.15190 0.90720 0.06900
H 	H 	0.75790 0.95270 0.81920 0.08900
H 	H 	0.24210 0.04730 0.18080 0.08700
H 	H 	0.00350 0.77600 0.21580 0.08300
C 	C 	0.30470 0.81090 0.19420 -0.07600
C 	C 	0.03840 0.01690 0.29980 -0.06100
C 	C 	0.31770 0.98590 0.33040 0.27500
C 	C 	0.02740 0.84910 0.15480 -0.07500
C 	C 	0.29560 0.64120 0.05380 0.28800
C 	C 	0.21640 0.80230 0.10450 -0.09200
C 	C 	0.78360 0.19770 0.89550 -0.09200
C 	C 	0.22680 0.97490 0.24600 -0.10100
C 	C 	0.23340 0.93540 0.75290 0.28800
C 	C 	0.77320 0.02510 0.75400 -0.10500
C 	C 	0.69530 0.18910 0.80580 -0.07400
C 	C 	0.97260 0.15090 0.84520 -0.07500
C 	C 	0.70440 0.35880 0.94620 0.28800
C 	C 	0.96160 0.98310 0.70020 -0.05600
C 	C 	0.04570 0.98850 0.79240 -0.09800
C 	C 	0.68230 0.01410 0.66960 0.27500
C 	C 	0.76660 0.06460 0.24710 0.28800
C 	C 	0.95430 0.01150 0.20760 -0.09700
O 	O 	0.30380 0.92630 0.64610 -0.17200
O 	O 	0.38230 0.61870 0.95040 -0.18100
O 	O 	0.68460 0.08900 0.57800 -0.18600
O 	O 	0.69620 0.07370 0.35390 -0.17200
O 	O 	0.61770 0.38130 0.04960 -0.18100
O 	O 	0.31020 0.89850 0.83190 -0.19500
O 	O 	0.68980 0.10150 0.16810 -0.19500
O 	O 	0.40280 0.07310 0.30940 -0.16400
O 	O 	0.26550 0.53730 0.11890 -0.19200
O 	O 	0.59720 0.92690 0.69060 -0.16300
O 	O 	0.73450 0.46270 0.88110 -0.19200
O 	O 	0.31540 0.91100 0.42200 -0.18500
