data_crystal

_cell_length_a 6.95800
_cell_length_b 11.15200
_cell_length_c 26.11800
_cell_angle_alpha 97.89600
_cell_angle_beta  90.00000
_cell_angle_gamma 90.00000

_symmetry_space_group_name_	'P 1'
_symmetry_space_group_name_H-M	'P 1'

loop_
_symmetry_equiv_pos_as_xyz
  x,y,z

loop_
_atom_site_label
_atom_site_type_symbol
_atom_site_fract_x
_atom_site_fract_y
_atom_site_fract_z
_atom_site_charge
Cd	Cd	0.83239 0.62995 0.87361 1.21800
Cd	Cd	0.33239 0.37005 0.62639 1.21700
Cd	Cd	0.16761 0.37005 0.12639 1.21800
Cd	Cd	0.66761 0.62995 0.37361 1.21700
Co	Co	0.08231 0.49576 0.75020 1.09700
Co	Co	0.58231 0.50424 0.74980 1.09900
Co	Co	0.91769 0.50424 0.24980 1.09800
Co	Co	0.41769 0.49576 0.25020 1.10000
H 	H 	0.23980 0.53080 0.96470 0.04300
H 	H 	0.95110 0.05980 0.81680 0.05000
H 	H 	0.36470 0.77050 0.08880 0.04500
H 	H 	0.17990 0.31810 0.92150 0.04200
H 	H 	0.43780 0.85990 0.94660 0.03800
H 	H 	0.44880 0.91050 0.03500 0.05400
H 	H 	0.16490 0.18860 0.98340 0.06600
H 	H 	0.05320 0.99340 0.96070 0.04800
H 	H 	0.73980 0.46920 0.53530 0.04400
H 	H 	0.45110 0.94020 0.68320 0.05000
H 	H 	0.86470 0.22950 0.41120 0.04300
H 	H 	0.67990 0.68190 0.57850 0.04400
H 	H 	0.93780 0.14010 0.55340 0.03900
H 	H 	0.94880 0.08950 0.46500 0.05400
H 	H 	0.66490 0.81140 0.51660 0.06600
H 	H 	0.55320 0.00660 0.53930 0.04700
H 	H 	0.76020 0.46920 0.03530 0.04300
H 	H 	0.04890 0.94020 0.18320 0.05000
H 	H 	0.63530 0.22950 0.91120 0.04500
H 	H 	0.82010 0.68190 0.07850 0.04200
H 	H 	0.56220 0.14010 0.05340 0.03800
H 	H 	0.55120 0.08950 0.96500 0.05400
H 	H 	0.83510 0.81140 0.01660 0.06600
H 	H 	0.94680 0.00660 0.03930 0.04800
H 	H 	0.26020 0.53080 0.46470 0.04400
H 	H 	0.54890 0.05980 0.31680 0.05000
H 	H 	0.13530 0.77050 0.58880 0.04300
H 	H 	0.32010 0.31810 0.42150 0.04400
H 	H 	0.06220 0.85990 0.44660 0.03900
H 	H 	0.05120 0.91050 0.53500 0.05400
H 	H 	0.33510 0.18860 0.48340 0.06600
H 	H 	0.44680 0.99340 0.46070 0.04700
C 	C 	0.33350 0.65370 0.89028 0.12300
C 	C 	0.28340 0.60690 0.97893 -0.00500
C 	C 	0.98910 0.00690 0.88683 -0.06400
C 	C 	0.99490 0.08500 0.85015 -0.01100
C 	C 	0.29470 0.63580 0.03203 -0.07100
C 	C 	0.33660 0.69030 0.94668 -0.05500
C 	C 	0.24210 0.54260 0.06577 0.30900
C 	C 	0.35720 0.75000 0.05316 0.00000
C 	C 	0.13150 0.24020 0.91302 -0.02100
C 	C 	0.06660 0.20130 0.86345 -0.03800
C 	C 	0.40050 0.80390 0.96800 -0.01900
C 	C 	0.40850 0.83360 0.02081 -0.06000
C 	C 	0.06920 0.28260 0.82503 0.09200
C 	C 	0.91150 0.88030 0.87382 0.30300
C 	C 	0.12410 0.16290 0.94977 -0.05800
C 	C 	0.05510 0.04630 0.93609 -0.01100
C 	C 	0.83350 0.34630 0.60972 0.12400
C 	C 	0.78340 0.39310 0.52107 -0.00400
C 	C 	0.48910 0.99310 0.61317 -0.06600
C 	C 	0.49490 0.91500 0.64985 -0.01800
C 	C 	0.79470 0.36420 0.46797 -0.07200
C 	C 	0.83660 0.30970 0.55332 -0.05500
C 	C 	0.74210 0.45740 0.43423 0.30900
C 	C 	0.85720 0.25000 0.44684 0.00000
C 	C 	0.63150 0.75980 0.58698 -0.02300
C 	C 	0.56660 0.79870 0.63655 -0.03100
C 	C 	0.90050 0.19610 0.53200 -0.01900
C 	C 	0.90850 0.16640 0.47919 -0.06000
C 	C 	0.56920 0.71740 0.67497 0.09300
C 	C 	0.41150 0.11970 0.62618 0.30300
C 	C 	0.62410 0.83710 0.55023 -0.05800
C 	C 	0.55510 0.95370 0.56391 -0.00600
C 	C 	0.66650 0.34630 0.10972 0.12300
C 	C 	0.71660 0.39310 0.02107 -0.00500
C 	C 	0.01090 0.99310 0.11317 -0.06400
C 	C 	0.00510 0.91500 0.14985 -0.01100
C 	C 	0.70530 0.36420 0.96797 -0.07100
C 	C 	0.66340 0.30970 0.05332 -0.05500
C 	C 	0.75790 0.45740 0.93423 0.30900
C 	C 	0.64280 0.25000 0.94684 0.00000
C 	C 	0.86850 0.75980 0.08698 -0.02100
C 	C 	0.93340 0.79870 0.13655 -0.03800
C 	C 	0.59950 0.19610 0.03200 -0.01900
C 	C 	0.59150 0.16640 0.97919 -0.06000
C 	C 	0.93080 0.71740 0.17497 0.09200
C 	C 	0.08850 0.11970 0.12618 0.30300
C 	C 	0.87590 0.83710 0.05023 -0.05800
C 	C 	0.94490 0.95370 0.06391 -0.01100
C 	C 	0.16650 0.65370 0.39028 0.12400
C 	C 	0.21660 0.60690 0.47893 -0.00400
C 	C 	0.51090 0.00690 0.38683 -0.06600
C 	C 	0.50510 0.08500 0.35015 -0.01800
C 	C 	0.20530 0.63580 0.53203 -0.07200
C 	C 	0.16340 0.69030 0.44668 -0.05500
C 	C 	0.25790 0.54260 0.56577 0.30900
C 	C 	0.14280 0.75000 0.55316 0.00000
C 	C 	0.36850 0.24020 0.41302 -0.02300
C 	C 	0.43340 0.20130 0.36345 -0.03100
C 	C 	0.09950 0.80390 0.46800 -0.01900
C 	C 	0.09150 0.83360 0.52081 -0.06000
C 	C 	0.43080 0.28260 0.32503 0.09300
C 	C 	0.58850 0.88030 0.37382 0.30300
C 	C 	0.37590 0.16290 0.44977 -0.05800
C 	C 	0.44490 0.04630 0.43609 -0.00600
N 	N 	0.49010 0.64390 0.86052 -0.19000
N 	N 	0.23920 0.58960 0.81401 -0.18400
N 	N 	0.17580 0.62060 0.86236 -0.19200
N 	N 	0.42490 0.60240 0.81274 -0.18200
N 	N 	0.06960 0.34730 0.79484 -0.26400
N 	N 	0.99010 0.35610 0.63948 -0.18800
N 	N 	0.73920 0.41040 0.68599 -0.18300
N 	N 	0.67580 0.37940 0.63764 -0.19100
N 	N 	0.92490 0.39760 0.68726 -0.18000
N 	N 	0.56960 0.65270 0.70516 -0.26200
N 	N 	0.50990 0.35610 0.13948 -0.19000
N 	N 	0.76080 0.41040 0.18599 -0.18400
N 	N 	0.82420 0.37940 0.13764 -0.19200
N 	N 	0.57510 0.39760 0.18726 -0.18200
N 	N 	0.93040 0.65270 0.20516 -0.26400
N 	N 	0.00990 0.64390 0.36052 -0.18800
N 	N 	0.26080 0.58960 0.31401 -0.18300
N 	N 	0.32420 0.62060 0.36236 -0.19100
N 	N 	0.07510 0.60240 0.31274 -0.18000
N 	N 	0.43040 0.34730 0.29484 -0.26200
O 	O 	0.24240 0.57130 0.11430 -0.39900
O 	O 	0.19790 0.43810 0.04587 -0.37900
O 	O 	0.88620 0.83830 0.82703 -0.31800
O 	O 	0.87850 0.82160 0.91049 -0.39900
O 	O 	0.83410 0.57413 0.78440 -0.61000
O 	O 	0.74240 0.42870 0.38570 -0.40100
O 	O 	0.69790 0.56190 0.45413 -0.38000
O 	O 	0.38620 0.16170 0.67297 -0.32000
O 	O 	0.37850 0.17840 0.58951 -0.40100
O 	O 	0.33410 0.42587 0.71560 -0.61300
O 	O 	0.75760 0.42870 0.88570 -0.39900
O 	O 	0.80210 0.56190 0.95413 -0.37900
O 	O 	0.11380 0.16170 0.17297 -0.31800
O 	O 	0.12150 0.17840 0.08951 -0.39900
O 	O 	0.16590 0.42587 0.21560 -0.61000
O 	O 	0.25760 0.57130 0.61430 -0.40100
O 	O 	0.30210 0.43810 0.54587 -0.38000
O 	O 	0.61380 0.83830 0.32703 -0.32000
O 	O 	0.62150 0.82160 0.41049 -0.40100
O 	O 	0.66590 0.57413 0.28440 -0.61300
