data_crystal

_cell_length_a 9.37600
_cell_length_b 9.94000
_cell_length_c 11.37700
_cell_angle_alpha 92.97900
_cell_angle_beta  97.83600
_cell_angle_gamma 110.33000

_symmetry_space_group_name_	'P 1'
_symmetry_space_group_name_H-M	'P 1'

loop_
_symmetry_equiv_pos_as_xyz
  x,y,z

loop_
_atom_site_label
_atom_site_type_symbol
_atom_site_fract_x
_atom_site_fract_y
_atom_site_fract_z
_atom_site_charge
La	La	0.71556 0.95229 0.01678 1.60200
La	La	0.28444 0.04771 0.98322 1.60200
H 	H 	0.31730 0.49790 0.04010 0.04900
H 	H 	0.19220 0.78270 0.22190 0.06600
H 	H 	0.91380 0.36490 0.16320 0.09900
H 	H 	0.17000 0.59660 0.42900 0.13500
H 	H 	0.26120 0.72200 0.61890 -0.01100
H 	H 	0.93030 0.89390 0.57370 -0.01400
H 	H 	0.83980 0.76970 0.38420 0.14800
H 	H 	0.68270 0.50210 0.95990 0.04900
H 	H 	0.80780 0.21730 0.77810 0.06600
H 	H 	0.08620 0.63510 0.83680 0.09900
H 	H 	0.83000 0.40340 0.57100 0.13500
H 	H 	0.73880 0.27800 0.38110 -0.01100
H 	H 	0.06970 0.10610 0.42630 -0.01400
H 	H 	0.16020 0.23030 0.61580 0.14800
C 	C 	0.07430 0.25950 0.02990 0.35100
C 	C 	0.10700 0.40680 0.08870 -0.05500
C 	C 	0.24580 0.51890 0.07970 -0.01200
C 	C 	0.27850 0.65700 0.12700 -0.06100
C 	C 	0.42300 0.77220 0.10630 0.32900
C 	C 	0.17410 0.68860 0.19110 -0.12000
C 	C 	0.04350 0.57610 0.20710 0.18500
C 	C 	0.00560 0.43690 0.15460 -0.13300
C 	C 	0.00060 0.67690 0.38880 0.28700
C 	C 	0.12400 0.65790 0.45780 -0.27700
C 	C 	0.17770 0.73230 0.57100 0.14900
C 	C 	0.10550 0.82300 0.61300 -0.18600
C 	C 	0.17120 0.90870 0.73260 0.34500
C 	C 	0.97940 0.83580 0.54420 0.14300
C 	C 	0.92540 0.76200 0.43110 -0.27700
C 	C 	0.92570 0.74050 0.97010 0.35100
C 	C 	0.89300 0.59320 0.91130 -0.05500
C 	C 	0.75420 0.48110 0.92030 -0.01200
C 	C 	0.72150 0.34300 0.87300 -0.06100
C 	C 	0.57700 0.22780 0.89370 0.32900
C 	C 	0.82590 0.31140 0.80890 -0.12000
C 	C 	0.95650 0.42390 0.79290 0.18500
C 	C 	0.99440 0.56310 0.84540 -0.13300
C 	C 	0.99940 0.32310 0.61120 0.28700
C 	C 	0.87600 0.34210 0.54220 -0.27700
C 	C 	0.82230 0.26770 0.42900 0.14900
C 	C 	0.89450 0.17700 0.38700 -0.18600
C 	C 	0.82880 0.09130 0.26740 0.34500
C 	C 	0.02060 0.16420 0.45580 0.14300
C 	C 	0.07460 0.23800 0.56890 -0.27700
O 	O 	0.94070 0.16420 0.03110 -0.42900
O 	O 	0.17760 0.23520 0.98250 -0.43400
O 	O 	0.54490 0.74750 0.11820 -0.38200
O 	O 	0.41790 0.89360 0.07860 -0.48800
O 	O 	0.93920 0.60340 0.27410 -0.27400
O 	O 	0.28540 0.89580 0.79630 -0.38600
O 	O 	0.11400 0.99880 0.77070 -0.34900
O 	O 	0.05930 0.83580 0.96890 -0.42900
O 	O 	0.82240 0.76480 0.01750 -0.43400
O 	O 	0.45510 0.25250 0.88180 -0.38200
O 	O 	0.58210 0.10640 0.92140 -0.48800
O 	O 	0.06080 0.39660 0.72590 -0.27400
O 	O 	0.71460 0.10420 0.20370 -0.38600
O 	O 	0.88600 0.00120 0.22930 -0.34900
