data_crystal

_cell_length_a 13.54300
_cell_length_b 19.34010
_cell_length_c 23.22300
_cell_angle_alpha 90.00000
_cell_angle_beta  123.45200
_cell_angle_gamma 90.00000

_symmetry_space_group_name_	'P 1'
_symmetry_space_group_name_H-M	'P 1'

loop_
_symmetry_equiv_pos_as_xyz
  x,y,z

loop_
_atom_site_label
_atom_site_type_symbol
_atom_site_fract_x
_atom_site_fract_y
_atom_site_fract_z
_atom_site_charge
Fe	Fe	0.60984 0.23067 0.26542 1.21300
O 	O 	0.93200 0.65090 0.19220 -0.51100
O 	O 	0.10760 0.60620 0.25360 -0.34600
C 	C 	0.00200 0.60200 0.22710 0.39000
Fe	Fe	0.12897 0.23704 0.28948 1.20300
C 	C 	0.09500 0.22950 0.14880 0.41100
O 	O 	0.24250 0.25100 0.90150 -0.43900
O 	O 	0.49140 0.25490 0.15330 -0.39300
O 	O 	0.31780 0.26670 0.84180 -0.47300
O 	O 	0.97570 0.29510 0.26620 -0.45500
O 	O 	0.68030 0.25040 0.20510 -0.45900
O 	O 	0.11510 0.34840 0.26770 -0.39100
O 	O 	0.51900 0.67190 0.22700 -0.45000
C 	C 	0.87190 0.26330 0.96340 -0.18300
C 	C 	0.88060 0.24200 0.08020 0.05000
H 	H 	0.88410 0.23340 0.12070 0.02100
C 	C 	0.55950 0.43040 0.26770 -0.11400
C 	C 	0.00470 0.47540 0.24330 0.08200
H 	H 	0.07310 0.47310 0.24310 0.03100
O 	O 	0.57390 0.31370 0.29810 -0.47900
C 	C 	0.76880 0.26530 0.96210 0.05000
H 	H 	0.69680 0.27380 0.92090 0.01300
C 	C 	0.98080 0.24120 0.08290 -0.16700
O 	O 	0.96300 0.27510 0.90250 -0.41700
O 	O 	0.41700 0.62170 0.26010 -0.38100
O 	O 	0.77370 0.28450 0.84490 -0.50200
C 	C 	0.58050 0.25600 0.15160 0.37100
C 	C 	0.33160 0.25780 0.89800 0.37700
C 	C 	0.80420 0.48250 0.24570 -0.03100
C 	C 	0.86090 0.42090 0.25280 0.02600
H 	H 	0.83030 0.38050 0.25880 0.02900
C 	C 	0.95860 0.41650 0.25140 -0.14200
C 	C 	0.95220 0.53750 0.23560 -0.15000
C 	C 	0.70100 0.48660 0.25130 0.00400
C 	C 	0.97850 0.25140 0.02390 0.11200
H 	H 	0.04800 0.25020 0.02480 0.00200
C 	C 	0.46200 0.25820 0.02450 0.07100
H 	H 	0.39450 0.25730 0.02580 0.01300
C 	C 	0.56950 0.25970 0.08430 -0.12400
C 	C 	0.64570 0.54750 0.24530 -0.01200
H 	H 	0.67350 0.58770 0.23690 0.04100
C 	C 	0.45000 0.25780 0.96220 -0.14000
C 	C 	0.65640 0.42860 0.26200 -0.00600
H 	H 	0.69200 0.38620 0.26570 0.03000
O 	O 	0.18780 0.24350 0.15320 -0.35700
C 	C 	0.02030 0.35130 0.26220 0.37100
C 	C 	0.85130 0.54020 0.23600 0.02500
H 	H 	0.81390 0.58250 0.22940 0.01900
C 	C 	0.49290 0.61920 0.24670 0.35400
C 	C 	0.55090 0.55170 0.25120 -0.09900
O 	O 	0.09270 0.20680 0.19830 -0.46200
C 	C 	0.66840 0.25940 0.08180 0.00000
H 	H 	0.74240 0.26070 0.12310 0.04000
C 	C 	0.50660 0.49320 0.26240 0.04200
H 	H 	0.44200 0.49580 0.26630 0.05100
O 	O 	0.41280 0.36820 0.26870 -0.34700
C 	C 	0.50990 0.36560 0.27820 0.40300
C 	C 	0.77250 0.25470 0.02150 -0.04300
C 	C 	0.86970 0.27440 0.89980 0.43900
C 	C 	0.66290 0.25730 0.02180 0.00000
C 	C 	0.55010 0.25610 0.96080 0.00700
H 	H 	0.54270 0.25390 0.91860 0.03500
Na	Na	0.87190 0.21381 0.28198 0.59100
Na	Na	0.35350 0.25600 0.26014 0.59200
Na	Na	0.84870 0.65999 0.05722 0.56800
Fe	Fe	0.39016 0.73067 0.23458 1.21300
O 	O 	0.06800 0.15090 0.30780 -0.51100
O 	O 	0.89240 0.10620 0.24640 -0.34500
C 	C 	0.99800 0.10200 0.27290 0.38800
Fe	Fe	0.87103 0.73704 0.21052 1.20300
C 	C 	0.90500 0.72950 0.35120 0.41000
O 	O 	0.75750 0.75100 0.59850 -0.43900
O 	O 	0.50860 0.75490 0.34670 -0.39300
O 	O 	0.68220 0.76670 0.65820 -0.47200
O 	O 	0.02430 0.79510 0.23380 -0.45200
O 	O 	0.31970 0.75040 0.29490 -0.45900
O 	O 	0.88490 0.84840 0.23230 -0.38900
O 	O 	0.48100 0.17190 0.27300 -0.45000
C 	C 	0.12810 0.76330 0.53660 -0.18500
C 	C 	0.11940 0.74200 0.41980 0.05100
H 	H 	0.11590 0.73340 0.37930 0.02000
C 	C 	0.44050 0.93040 0.23230 -0.11600
C 	C 	0.99530 0.97540 0.25670 0.06900
H 	H 	0.92690 0.97310 0.25690 0.03500
O 	O 	0.42610 0.81370 0.20190 -0.48000
C 	C 	0.23120 0.76530 0.53790 0.05000
H 	H 	0.30320 0.77380 0.57910 0.01200
C 	C 	0.01920 0.74120 0.41710 -0.16800
O 	O 	0.03700 0.77510 0.59750 -0.41700
O 	O 	0.58300 0.12170 0.23990 -0.38100
O 	O 	0.22630 0.78450 0.65510 -0.50200
C 	C 	0.41950 0.75600 0.34840 0.37100
C 	C 	0.66840 0.75780 0.60200 0.37700
C 	C 	0.19580 0.98250 0.25430 -0.02300
C 	C 	0.13910 0.92090 0.24720 0.01700
H 	H 	0.16970 0.88050 0.24120 0.03200
C 	C 	0.04140 0.91650 0.24860 -0.13000
C 	C 	0.04780 0.03750 0.26440 -0.14300
C 	C 	0.29900 0.98660 0.24870 0.00000
C 	C 	0.02150 0.75140 0.47610 0.11400
H 	H 	0.95200 0.75020 0.47520 0.00000
C 	C 	0.53800 0.75820 0.47550 0.07000
H 	H 	0.60550 0.75730 0.47420 0.01300
C 	C 	0.43050 0.75970 0.41570 -0.12300
C 	C 	0.35430 0.04750 0.25470 -0.01100
H 	H 	0.32650 0.08770 0.26310 0.04000
C 	C 	0.55000 0.75780 0.53780 -0.13900
C 	C 	0.34360 0.92860 0.23800 -0.00400
H 	H 	0.30800 0.88620 0.23430 0.02900
O 	O 	0.81220 0.74350 0.34680 -0.35700
C 	C 	0.97970 0.85130 0.23780 0.36400
C 	C 	0.14870 0.04020 0.26400 0.01700
H 	H 	0.18610 0.08250 0.27060 0.02100
C 	C 	0.50710 0.11920 0.25330 0.35400
C 	C 	0.44910 0.05170 0.24880 -0.10000
O 	O 	0.90730 0.70680 0.30170 -0.46200
C 	C 	0.33160 0.75940 0.41820 -0.00000
H 	H 	0.25760 0.76070 0.37690 0.04000
C 	C 	0.49340 0.99320 0.23760 0.04300
H 	H 	0.55800 0.99580 0.23370 0.05000
O 	O 	0.58720 0.86820 0.23130 -0.34800
C 	C 	0.49010 0.86560 0.22180 0.40400
C 	C 	0.22750 0.75470 0.47850 -0.04400
C 	C 	0.13030 0.77440 0.60020 0.44000
C 	C 	0.33710 0.75730 0.47820 0.00000
C 	C 	0.44990 0.75610 0.53920 0.00700
H 	H 	0.45730 0.75390 0.58140 0.03500
Na	Na	0.12810 0.71381 0.21802 0.59000
Na	Na	0.64650 0.75600 0.23986 0.59200
Na	Na	0.15130 0.15999 0.44278 0.56800
Fe	Fe	0.39016 0.76933 0.73458 1.21300
O 	O 	0.06800 0.34910 0.80780 -0.51100
O 	O 	0.89240 0.39380 0.74640 -0.34600
C 	C 	0.99800 0.39800 0.77290 0.39000
Fe	Fe	0.87103 0.76296 0.71052 1.20300
C 	C 	0.90500 0.77050 0.85120 0.41100
O 	O 	0.75750 0.74900 0.09850 -0.43900
O 	O 	0.50860 0.74510 0.84670 -0.39300
O 	O 	0.68220 0.73330 0.15820 -0.47300
O 	O 	0.02430 0.70490 0.73380 -0.45500
O 	O 	0.31970 0.74960 0.79490 -0.45900
O 	O 	0.88490 0.65160 0.73230 -0.39100
O 	O 	0.48100 0.32810 0.77300 -0.45000
C 	C 	0.12810 0.73670 0.03660 -0.18300
C 	C 	0.11940 0.75800 0.91980 0.05000
H 	H 	0.11590 0.76660 0.87930 0.02100
C 	C 	0.44050 0.56960 0.73230 -0.11400
C 	C 	0.99530 0.52460 0.75670 0.08200
H 	H 	0.92690 0.52690 0.75690 0.03100
O 	O 	0.42610 0.68630 0.70190 -0.47900
C 	C 	0.23120 0.73470 0.03790 0.05000
H 	H 	0.30320 0.72620 0.07910 0.01300
C 	C 	0.01920 0.75880 0.91710 -0.16700
O 	O 	0.03700 0.72490 0.09750 -0.41700
O 	O 	0.58300 0.37830 0.73990 -0.38100
O 	O 	0.22630 0.71550 0.15510 -0.50200
C 	C 	0.41950 0.74400 0.84840 0.37100
C 	C 	0.66840 0.74220 0.10200 0.37700
C 	C 	0.19580 0.51750 0.75430 -0.03100
C 	C 	0.13910 0.57910 0.74720 0.02600
H 	H 	0.16970 0.61950 0.74120 0.02900
C 	C 	0.04140 0.58350 0.74860 -0.14200
C 	C 	0.04780 0.46250 0.76440 -0.15000
C 	C 	0.29900 0.51340 0.74870 0.00400
C 	C 	0.02150 0.74860 0.97610 0.11200
H 	H 	0.95200 0.74980 0.97520 0.00200
C 	C 	0.53800 0.74180 0.97550 0.07100
H 	H 	0.60550 0.74270 0.97420 0.01300
C 	C 	0.43050 0.74030 0.91570 -0.12400
C 	C 	0.35430 0.45250 0.75470 -0.01200
H 	H 	0.32650 0.41230 0.76310 0.04100
C 	C 	0.55000 0.74220 0.03780 -0.14000
C 	C 	0.34360 0.57140 0.73800 -0.00600
H 	H 	0.30800 0.61380 0.73430 0.03000
O 	O 	0.81220 0.75650 0.84680 -0.35700
C 	C 	0.97970 0.64870 0.73780 0.37100
C 	C 	0.14870 0.45980 0.76400 0.02500
H 	H 	0.18610 0.41750 0.77060 0.01900
C 	C 	0.50710 0.38080 0.75330 0.35400
C 	C 	0.44910 0.44830 0.74880 -0.09900
O 	O 	0.90730 0.79320 0.80170 -0.46200
C 	C 	0.33160 0.74060 0.91820 0.00000
H 	H 	0.25760 0.73930 0.87690 0.04000
C 	C 	0.49340 0.50680 0.73760 0.04200
H 	H 	0.55800 0.50420 0.73370 0.05100
O 	O 	0.58720 0.63180 0.73130 -0.34700
C 	C 	0.49010 0.63440 0.72180 0.40300
C 	C 	0.22750 0.74530 0.97850 -0.04300
C 	C 	0.13030 0.72560 0.10020 0.43900
C 	C 	0.33710 0.74270 0.97820 0.00000
C 	C 	0.44990 0.74390 0.03920 0.00700
H 	H 	0.45730 0.74610 0.08140 0.03500
Na	Na	0.12810 0.78619 0.71802 0.59100
Na	Na	0.64650 0.74400 0.73986 0.59200
Na	Na	0.15130 0.34001 0.94278 0.56800
Fe	Fe	0.60984 0.26933 0.76542 1.21300
O 	O 	0.93200 0.84910 0.69220 -0.51100
O 	O 	0.10760 0.89380 0.75360 -0.34500
C 	C 	0.00200 0.89800 0.72710 0.38800
Fe	Fe	0.12897 0.26296 0.78948 1.20300
C 	C 	0.09500 0.27050 0.64880 0.41000
O 	O 	0.24250 0.24900 0.40150 -0.43900
O 	O 	0.49140 0.24510 0.65330 -0.39300
O 	O 	0.31780 0.23330 0.34180 -0.47200
O 	O 	0.97570 0.20490 0.76620 -0.45200
O 	O 	0.68030 0.24960 0.70510 -0.45900
O 	O 	0.11510 0.15160 0.76770 -0.38900
O 	O 	0.51900 0.82810 0.72700 -0.45000
C 	C 	0.87190 0.23670 0.46340 -0.18500
C 	C 	0.88060 0.25800 0.58020 0.05100
H 	H 	0.88410 0.26660 0.62070 0.02000
C 	C 	0.55950 0.06960 0.76770 -0.11600
C 	C 	0.00470 0.02460 0.74330 0.06900
H 	H 	0.07310 0.02690 0.74310 0.03500
O 	O 	0.57390 0.18630 0.79810 -0.48000
C 	C 	0.76880 0.23470 0.46210 0.05000
H 	H 	0.69680 0.22620 0.42090 0.01200
C 	C 	0.98080 0.25880 0.58290 -0.16800
O 	O 	0.96300 0.22490 0.40250 -0.41700
O 	O 	0.41700 0.87830 0.76010 -0.38100
O 	O 	0.77370 0.21550 0.34490 -0.50200
C 	C 	0.58050 0.24400 0.65160 0.37100
C 	C 	0.33160 0.24220 0.39800 0.37700
C 	C 	0.80420 0.01750 0.74570 -0.02300
C 	C 	0.86090 0.07910 0.75280 0.01700
H 	H 	0.83030 0.11950 0.75880 0.03200
C 	C 	0.95860 0.08350 0.75140 -0.13000
C 	C 	0.95220 0.96250 0.73560 -0.14300
C 	C 	0.70100 0.01340 0.75130 0.00000
C 	C 	0.97850 0.24860 0.52390 0.11400
H 	H 	0.04800 0.24980 0.52480 0.00000
C 	C 	0.46200 0.24180 0.52450 0.07000
H 	H 	0.39450 0.24270 0.52580 0.01300
C 	C 	0.56950 0.24030 0.58430 -0.12300
C 	C 	0.64570 0.95250 0.74530 -0.01100
H 	H 	0.67350 0.91230 0.73690 0.04000
C 	C 	0.45000 0.24220 0.46220 -0.13900
C 	C 	0.65640 0.07140 0.76200 -0.00400
H 	H 	0.69200 0.11380 0.76570 0.02900
O 	O 	0.18780 0.25650 0.65320 -0.35700
C 	C 	0.02030 0.14870 0.76220 0.36400
C 	C 	0.85130 0.95980 0.73600 0.01700
H 	H 	0.81390 0.91750 0.72940 0.02100
C 	C 	0.49290 0.88080 0.74670 0.35400
C 	C 	0.55090 0.94830 0.75120 -0.10000
O 	O 	0.09270 0.29320 0.69830 -0.46200
C 	C 	0.66840 0.24060 0.58180 -0.00000
H 	H 	0.74240 0.23930 0.62310 0.04000
C 	C 	0.50660 0.00680 0.76240 0.04300
H 	H 	0.44200 0.00420 0.76630 0.05000
O 	O 	0.41280 0.13180 0.76870 -0.34800
C 	C 	0.50990 0.13440 0.77820 0.40400
C 	C 	0.77250 0.24530 0.52150 -0.04400
C 	C 	0.86970 0.22560 0.39980 0.44000
C 	C 	0.66290 0.24270 0.52180 0.00000
C 	C 	0.55010 0.24390 0.46080 0.00700
H 	H 	0.54270 0.24610 0.41860 0.03500
Na	Na	0.87190 0.28619 0.78198 0.59000
Na	Na	0.35350 0.24400 0.76014 0.59200
Na	Na	0.84870 0.84001 0.55722 0.56800
