data_crystal

_cell_length_a 17.22400
_cell_length_b 6.63000
_cell_length_c 23.18100
_cell_angle_alpha 90.00000
_cell_angle_beta  94.53000
_cell_angle_gamma 90.00000

_symmetry_space_group_name_	'P 1'
_symmetry_space_group_name_H-M	'P 1'

loop_
_symmetry_equiv_pos_as_xyz
  x,y,z

loop_
_atom_site_label
_atom_site_type_symbol
_atom_site_fract_x
_atom_site_fract_y
_atom_site_fract_z
_atom_site_charge
Zr	Zr	0.35917 0.99850 0.29975 3.21000
Zr	Zr	0.22013 0.49450 0.42539 3.21700
P 	P 	0.30802 0.49860 0.29312 0.77800
P 	P 	0.26907 0.99730 0.43044 0.74300
P 	P 	0.44220 0.07250 0.16599 0.77000
F 	F 	0.33030 0.48540 0.45850 -0.75700
O 	O 	0.36250 0.68240 0.29320 -0.67900
O 	O 	0.25310 0.49540 0.23730 -0.76000
O 	O 	0.25990 0.50980 0.34520 -0.78100
O 	O 	0.35910 0.30940 0.29650 -0.70800
O 	O 	0.31620 0.00960 0.48980 -0.64900
O 	O 	0.21850 0.80890 0.42800 -0.68500
O 	O 	0.32600 0.99140 0.38290 -0.73000
O 	O 	0.21560 0.18140 0.42230 -0.68200
O 	O 	0.40750 0.99780 0.22020 -0.75600
O 	O 	0.39520 0.00500 0.11070 -0.64200
O 	O 	0.52600 0.99880 0.16410 -0.68600
O 	O 	0.44010 0.30800 0.16380 -0.42700
H 	H 	0.45520 0.38600 0.19460 0.23000
Zr	Zr	0.85917 0.49850 0.29975 3.21300
Zr	Zr	0.72013 0.99450 0.42539 3.21600
P 	P 	0.80802 0.99860 0.29312 0.74100
P 	P 	0.76907 0.49730 0.43044 0.75300
P 	P 	0.94220 0.57250 0.16599 0.72900
F 	F 	0.83030 0.98540 0.45850 -0.76200
O 	O 	0.86250 0.18240 0.29320 -0.65700
O 	O 	0.75310 0.99540 0.23730 -0.76800
O 	O 	0.75990 0.00980 0.34520 -0.75600
O 	O 	0.85910 0.80940 0.29650 -0.71800
O 	O 	0.81620 0.50960 0.48980 -0.65300
O 	O 	0.71850 0.30890 0.42800 -0.68300
O 	O 	0.82600 0.49140 0.38290 -0.72600
O 	O 	0.71560 0.68140 0.42230 -0.69500
O 	O 	0.90750 0.49780 0.22020 -0.72800
O 	O 	0.89520 0.50500 0.11070 -0.64800
O 	O 	0.02600 0.49880 0.16410 -0.66200
O 	O 	0.94010 0.80800 0.16380 -0.42500
H 	H 	0.95520 0.88600 0.19460 0.22000
Zr	Zr	0.64083 0.99850 0.20025 3.21100
Zr	Zr	0.77987 0.49450 0.07461 3.21800
P 	P 	0.69198 0.49860 0.20688 0.77900
P 	P 	0.73093 0.99730 0.06956 0.73700
P 	P 	0.55780 0.07250 0.33401 0.76900
F 	F 	0.66970 0.48540 0.04150 -0.75700
O 	O 	0.63750 0.68240 0.20680 -0.67900
O 	O 	0.74690 0.49540 0.26270 -0.76000
O 	O 	0.74010 0.50980 0.15480 -0.78100
O 	O 	0.64090 0.30940 0.20350 -0.70700
O 	O 	0.68380 0.00960 0.01020 -0.64500
O 	O 	0.78150 0.80890 0.07200 -0.68500
O 	O 	0.67400 0.99140 0.11710 -0.73100
O 	O 	0.78440 0.18140 0.07770 -0.67800
O 	O 	0.59250 0.99780 0.27980 -0.75500
O 	O 	0.60480 0.00500 0.38930 -0.64400
O 	O 	0.47400 0.99880 0.33590 -0.68400
O 	O 	0.55990 0.30800 0.33620 -0.42600
H 	H 	0.54480 0.38600 0.30540 0.23000
Zr	Zr	0.14083 0.49850 0.20025 3.21300
Zr	Zr	0.27987 0.99450 0.07461 3.21500
P 	P 	0.19198 0.99860 0.20688 0.73900
P 	P 	0.23093 0.49730 0.06956 0.75300
P 	P 	0.05780 0.57250 0.33401 0.73000
F 	F 	0.16970 0.98540 0.04150 -0.76500
O 	O 	0.13750 0.18240 0.20680 -0.65600
O 	O 	0.24690 0.99540 0.26270 -0.76800
O 	O 	0.24010 0.00980 0.15480 -0.75400
O 	O 	0.14090 0.80940 0.20350 -0.71800
O 	O 	0.18380 0.50960 0.01020 -0.65300
O 	O 	0.28150 0.30890 0.07200 -0.68300
O 	O 	0.17400 0.49140 0.11710 -0.72600
O 	O 	0.28440 0.68140 0.07770 -0.69700
O 	O 	0.09250 0.49780 0.27980 -0.72800
O 	O 	0.10480 0.50500 0.38930 -0.64800
O 	O 	0.97400 0.49880 0.33590 -0.66300
O 	O 	0.05990 0.80800 0.33620 -0.42400
H 	H 	0.04480 0.88600 0.30540 0.22100
Zr	Zr	0.64083 0.00150 0.70025 3.21100
Zr	Zr	0.77987 0.50550 0.57461 3.21800
P 	P 	0.69198 0.50140 0.70688 0.77900
P 	P 	0.73093 0.00270 0.56956 0.74400
P 	P 	0.55780 0.92750 0.83401 0.77100
F 	F 	0.66970 0.51460 0.54150 -0.75600
O 	O 	0.63750 0.31760 0.70680 -0.67900
O 	O 	0.74690 0.50460 0.76270 -0.76000
O 	O 	0.74010 0.49020 0.65480 -0.78100
O 	O 	0.64090 0.69060 0.70350 -0.70800
O 	O 	0.68380 0.99040 0.51020 -0.64900
O 	O 	0.78150 0.19110 0.57200 -0.68500
O 	O 	0.67400 0.00860 0.61710 -0.73000
O 	O 	0.78440 0.81860 0.57770 -0.68200
O 	O 	0.59250 0.00220 0.77980 -0.75600
O 	O 	0.60480 0.99500 0.88930 -0.64200
O 	O 	0.47400 0.00120 0.83590 -0.68600
O 	O 	0.55990 0.69200 0.83620 -0.42700
H 	H 	0.54480 0.61400 0.80540 0.23000
Zr	Zr	0.14083 0.50150 0.70025 3.21300
Zr	Zr	0.27987 0.00550 0.57461 3.21600
P 	P 	0.19198 0.00140 0.70688 0.74100
P 	P 	0.23093 0.50270 0.56956 0.75300
P 	P 	0.05780 0.42750 0.83401 0.72900
F 	F 	0.16970 0.01460 0.54150 -0.76200
O 	O 	0.13750 0.81760 0.70680 -0.65700
O 	O 	0.24690 0.00460 0.76270 -0.76800
O 	O 	0.24010 0.99020 0.65480 -0.75600
O 	O 	0.14090 0.19060 0.70350 -0.71800
O 	O 	0.18380 0.49040 0.51020 -0.65300
O 	O 	0.28150 0.69110 0.57200 -0.68300
O 	O 	0.17400 0.50860 0.61710 -0.72600
O 	O 	0.28440 0.31860 0.57770 -0.69500
O 	O 	0.09250 0.50220 0.77980 -0.72800
O 	O 	0.10480 0.49500 0.88930 -0.64800
O 	O 	0.97400 0.50120 0.83590 -0.66200
O 	O 	0.05990 0.19200 0.83620 -0.42500
H 	H 	0.04480 0.11400 0.80540 0.22000
Zr	Zr	0.35917 0.00150 0.79975 3.21100
Zr	Zr	0.22013 0.50550 0.92539 3.21800
P 	P 	0.30802 0.50140 0.79312 0.77900
P 	P 	0.26907 0.00270 0.93044 0.73700
P 	P 	0.44220 0.92750 0.66599 0.76900
F 	F 	0.33030 0.51460 0.95850 -0.75700
O 	O 	0.36250 0.31760 0.79320 -0.67900
O 	O 	0.25310 0.50460 0.73730 -0.76000
O 	O 	0.25990 0.49020 0.84520 -0.78100
O 	O 	0.35910 0.69060 0.79650 -0.70700
O 	O 	0.31620 0.99040 0.98980 -0.64500
O 	O 	0.21850 0.19110 0.92800 -0.68500
O 	O 	0.32600 0.00860 0.88290 -0.73100
O 	O 	0.21560 0.81860 0.92230 -0.67800
O 	O 	0.40750 0.00220 0.72020 -0.75500
O 	O 	0.39520 0.99500 0.61070 -0.64400
O 	O 	0.52600 0.00120 0.66410 -0.68400
O 	O 	0.44010 0.69200 0.66380 -0.42600
H 	H 	0.45520 0.61400 0.69460 0.23000
Zr	Zr	0.85917 0.50150 0.79975 3.21300
Zr	Zr	0.72013 0.00550 0.92539 3.21500
P 	P 	0.80802 0.00140 0.79312 0.73900
P 	P 	0.76907 0.50270 0.93044 0.75300
P 	P 	0.94220 0.42750 0.66599 0.73000
F 	F 	0.83030 0.01460 0.95850 -0.76500
O 	O 	0.86250 0.81760 0.79320 -0.65600
O 	O 	0.75310 0.00460 0.73730 -0.76800
O 	O 	0.75990 0.99020 0.84520 -0.75400
O 	O 	0.85910 0.19060 0.79650 -0.71800
O 	O 	0.81620 0.49040 0.98980 -0.65300
O 	O 	0.71850 0.69110 0.92800 -0.68300
O 	O 	0.82600 0.50860 0.88290 -0.72600
O 	O 	0.71560 0.31860 0.92230 -0.69700
O 	O 	0.90750 0.50220 0.72020 -0.72800
O 	O 	0.89520 0.49500 0.61070 -0.64800
O 	O 	0.02600 0.50120 0.66410 -0.66300
O 	O 	0.94010 0.19200 0.66380 -0.42400
H 	H 	0.95520 0.11400 0.69460 0.22100
