data_crystal

_cell_length_a 11.07110
_cell_length_b 11.07110
_cell_length_c 11.62240
_cell_angle_alpha 117.99800
_cell_angle_beta  117.99800
_cell_angle_gamma 90.82340

_symmetry_space_group_name_	'P 1'
_symmetry_space_group_name_H-M	'P 1'

loop_
_symmetry_equiv_pos_as_xyz
  x,y,z

loop_
_atom_site_label
_atom_site_type_symbol
_atom_site_fract_x
_atom_site_fract_y
_atom_site_fract_z
_atom_site_charge
Sr	Sr	0.73354 0.26646 -0.00000 1.47800
Sr	Sr	0.98354 0.01646 0.50000 1.50100
H 	H 	0.74870 0.86050 0.60640 -0.19700
H 	H 	0.80690 0.86650 0.87480 0.33500
H 	H 	0.92550 0.87830 0.83560 0.31800
H 	H 	0.79520 0.73360 0.72640 0.30400
H 	H 	0.54120 0.74940 0.57400 0.27700
H 	H 	0.53080 0.89420 0.57580 0.27900
H 	H 	0.56990 0.89230 0.72600 0.29900
H 	H 	0.13950 0.25130 0.39360 -0.17200
H 	H 	0.13350 0.19310 0.12520 0.23100
H 	H 	0.12170 0.07450 0.16440 0.25500
H 	H 	0.26640 0.20480 0.27360 0.24800
H 	H 	0.25060 0.45880 0.42600 0.26600
H 	H 	0.10580 0.46920 0.42420 0.28000
H 	H 	0.10770 0.43010 0.27400 0.26800
H 	H 	0.99590 0.60770 0.10640 -0.20900
H 	H 	0.25830 0.81790 0.37480 0.26400
H 	H 	0.20730 0.66010 0.33560 0.26900
H 	H 	0.24280 0.68120 0.22640 0.24400
H 	H 	0.07460 0.78280 0.07400 0.21300
H 	H 	0.93160 0.79500 0.07580 0.21900
H 	H 	0.08370 0.90610 0.22600 0.24700
H 	H 	0.39230 0.00410 0.89360 -0.13600
H 	H 	0.18210 0.74170 0.62520 0.29300
H 	H 	0.33990 0.79270 0.66440 0.29200
H 	H 	0.31880 0.75720 0.77360 0.29800
H 	H 	0.21720 0.92540 0.92600 0.33600
H 	H 	0.20500 0.06840 0.92420 0.36600
H 	H 	0.09390 0.91630 0.77400 0.32500
C 	C 	0.87900 0.11700 0.21780 0.38400
C 	C 	0.73700 0.89440 0.69580 0.72000
C 	C 	0.82350 0.83850 0.79120 -1.03900
C 	C 	0.58140 0.85400 0.63800 -0.99700
C 	C 	0.88300 0.12100 0.78220 0.35700
C 	C 	0.10560 0.26300 0.30420 0.68600
C 	C 	0.16150 0.17650 0.20880 -0.91900
C 	C 	0.14600 0.41860 0.36200 -0.95500
C 	C 	0.35080 0.08880 0.71780 0.36400
C 	C 	0.05140 0.70880 0.19580 0.67900
C 	C 	0.20270 0.71770 0.29120 -0.93600
C 	C 	0.03400 0.80660 0.13800 -0.88500
C 	C 	0.91120 0.64920 0.28220 0.37400
C 	C 	0.29120 0.94860 0.80420 0.69900
C 	C 	0.28230 0.79730 0.70880 -0.99500
C 	C 	0.19340 0.96600 0.86200 -1.10800
S 	S 	0.69835 0.05391 0.08846 -0.44900
S 	S 	0.94609 0.30165 0.91154 -0.25200
S 	S 	0.28455 0.14011 0.58846 -0.32300
S 	S 	0.85989 0.71545 0.41154 -0.38500
O 	O 	0.94770 0.08850 0.31420 -0.50700
O 	O 	0.94720 0.21140 0.20660 -0.53900
O 	O 	0.91150 0.05230 0.68580 -0.48700
O 	O 	0.78860 0.05280 0.79340 -0.47700
O 	O 	0.47570 0.11650 0.81420 -0.45500
O 	O 	0.24520 0.00940 0.70660 -0.48700
O 	O 	0.88350 0.52430 0.18580 -0.53400
O 	O 	0.99060 0.75480 0.29340 -0.52500
