data_crystal

_cell_length_a 7.28000
_cell_length_b 16.26730
_cell_length_c 16.28730
_cell_angle_alpha 106.00100
_cell_angle_beta  90.00000
_cell_angle_gamma 90.00000

_symmetry_space_group_name_	'P 1'
_symmetry_space_group_name_H-M	'P 1'

loop_
_symmetry_equiv_pos_as_xyz
  x,y,z

loop_
_atom_site_label
_atom_site_type_symbol
_atom_site_fract_x
_atom_site_fract_y
_atom_site_fract_z
_atom_site_charge
Cd	Cd	0.27410 0.78123 0.57706 1.21600
Cd	Cd	0.72590 0.21877 0.42294 1.21600
Cd	Cd	0.77410 0.21877 0.92294 1.21600
Cd	Cd	0.22590 0.78123 0.07706 1.21600
H 	H 	0.07420 0.32680 0.68310 0.06100
H 	H 	0.42480 0.30400 0.55700 -0.02700
H 	H 	0.25240 0.97280 0.13310 0.02200
H 	H 	0.89590 0.44760 0.43200 0.08400
H 	H 	0.17360 0.08090 0.56590 0.08100
H 	H 	0.55830 0.36910 0.35280 -0.01700
H 	H 	0.92580 0.67320 0.31690 0.06000
H 	H 	0.88750 0.44090 0.52630 0.08100
H 	H 	0.77970 0.09950 0.15280 0.03600
H 	H 	0.67360 0.91910 0.93410 0.08100
H 	H 	0.44170 0.63090 0.64720 -0.01800
H 	H 	0.12740 0.02970 0.36910 0.08900
H 	H 	0.60410 0.44760 0.93200 0.08300
H 	H 	0.07520 0.30400 0.05700 -0.02800
H 	H 	0.87260 0.97030 0.63090 0.08900
H 	H 	0.39590 0.55240 0.06800 0.08300
H 	H 	0.20280 0.40600 0.58940 0.10600
H 	H 	0.57520 0.69600 0.44300 -0.02800
H 	H 	0.33810 0.47300 0.38000 0.10200
H 	H 	0.29230 0.15400 0.39420 -0.00200
H 	H 	0.38750 0.55910 0.97370 0.08100
H 	H 	0.27970 0.90050 0.34720 0.03700
H 	H 	0.92480 0.69600 0.94300 -0.02800
H 	H 	0.20770 0.15400 0.89420 -0.00300
H 	H 	0.72030 0.09950 0.65280 0.03700
H 	H 	0.32640 0.08090 0.06590 0.08100
H 	H 	0.05830 0.63090 0.14720 -0.01800
H 	H 	0.10410 0.55240 0.56800 0.08300
H 	H 	0.37260 0.02970 0.86910 0.09000
H 	H 	0.57420 0.67320 0.81690 0.06000
H 	H 	0.74760 0.02720 0.86690 0.02100
H 	H 	0.17580 0.32940 0.27080 0.03400
H 	H 	0.83810 0.52700 0.12000 0.10200
H 	H 	0.66190 0.52700 0.62000 0.10200
H 	H 	0.16190 0.47300 0.88000 0.10200
H 	H 	0.94170 0.36910 0.85280 -0.01800
H 	H 	0.67580 0.67060 0.22920 0.03400
H 	H 	0.11250 0.55910 0.47370 0.08100
H 	H 	0.32420 0.32940 0.77080 0.03400
H 	H 	0.75240 0.02720 0.36690 0.02100
H 	H 	0.82640 0.91910 0.43410 0.08000
H 	H 	0.42580 0.32680 0.18310 0.06000
H 	H 	0.24760 0.97280 0.63310 0.02100
H 	H 	0.70280 0.59400 0.91060 0.10600
H 	H 	0.61250 0.44090 0.02630 0.08100
H 	H 	0.79230 0.84600 0.10580 -0.00300
H 	H 	0.62740 0.97030 0.13090 0.09000
H 	H 	0.82420 0.67060 0.72920 0.03400
H 	H 	0.29720 0.40600 0.08940 0.10600
H 	H 	0.79720 0.59400 0.41060 0.10600
H 	H 	0.70770 0.84600 0.60580 -0.00200
H 	H 	0.22030 0.90050 0.84720 0.03600
C 	C 	0.85490 0.87000 0.83920 0.06500
C 	C 	0.14730 0.43930 0.91720 -0.20900
C 	C 	0.35440 0.10220 0.38380 0.06800
C 	C 	0.95540 0.21120 0.29000 0.33000
C 	C 	0.14510 0.13000 0.16080 0.06500
C 	C 	0.22670 0.39970 0.04040 -0.21000
C 	C 	0.40520 0.52000 0.00840 -0.18200
C 	C 	0.64430 0.72240 0.82290 -0.06500
C 	C 	0.35490 0.13000 0.66080 0.06500
C 	C 	0.90080 0.79700 0.38520 -0.02800
C 	C 	0.27330 0.39970 0.54040 -0.21000
C 	C 	0.79330 0.72110 0.77000 0.00700
C 	C 	0.39710 0.20600 0.72330 -0.10600
C 	C 	0.46350 0.05080 0.64710 -0.03100
C 	C 	0.90680 0.66180 0.97960 0.11600
C 	C 	0.64560 0.89780 0.61620 0.06800
C 	C 	0.77330 0.60030 0.95960 -0.21000
C 	C 	0.09480 0.52000 0.50840 -0.18200
C 	C 	0.35570 0.27760 0.17710 -0.06500
C 	C 	0.03650 0.05080 0.14710 -0.03000
C 	C 	0.64510 0.87000 0.33920 0.06500
C 	C 	0.40080 0.20300 0.11480 -0.02700
C 	C 	0.74490 0.97200 0.63060 -0.10200
C 	C 	0.59320 0.66180 0.47960 0.11500
C 	C 	0.09920 0.20300 0.61480 -0.02800
C 	C 	0.64730 0.56070 0.58280 -0.20900
C 	C 	0.25510 0.02800 0.36940 -0.10200
C 	C 	0.51520 0.62380 0.59910 0.11100
C 	C 	0.45540 0.78880 0.21000 0.33000
C 	C 	0.29330 0.27890 0.73000 0.00600
C 	C 	0.53650 0.94920 0.35290 -0.03100
C 	C 	0.01520 0.37620 0.90090 0.11100
C 	C 	0.35270 0.43930 0.41720 -0.20900
C 	C 	0.89710 0.79400 0.77670 -0.10600
C 	C 	0.14560 0.10220 0.88380 0.07000
C 	C 	0.09320 0.33820 0.02040 0.11600
C 	C 	0.90520 0.48000 0.49160 -0.18200
C 	C 	0.85270 0.56070 0.08280 -0.20900
C 	C 	0.24490 0.02800 0.86940 -0.10900
C 	C 	0.40680 0.33820 0.52040 0.11500
C 	C 	0.59920 0.79700 0.88520 -0.02700
C 	C 	0.85440 0.89780 0.11620 0.07000
C 	C 	0.85570 0.72240 0.32290 -0.06400
C 	C 	0.60290 0.79400 0.27670 -0.10600
C 	C 	0.44640 0.79790 0.94800 0.29200
C 	C 	0.96350 0.94920 0.85290 -0.03000
C 	C 	0.75760 0.54730 0.51190 0.16000
C 	C 	0.94640 0.20210 0.55200 0.29300
C 	C 	0.29600 0.13090 0.10760 -0.09100
C 	C 	0.75510 0.97200 0.13060 -0.10900
C 	C 	0.59480 0.48000 0.99160 -0.18200
C 	C 	0.54460 0.21120 0.79000 0.33000
C 	C 	0.12470 0.97300 0.13220 0.02400
C 	C 	0.72670 0.60030 0.45960 -0.21000
C 	C 	0.05360 0.79790 0.44800 0.29300
C 	C 	0.84580 0.04900 0.14480 0.01100
C 	C 	0.37530 0.97300 0.63220 0.02700
C 	C 	0.87530 0.02700 0.86780 0.02400
C 	C 	0.25760 0.45270 0.98810 0.16000
C 	C 	0.34580 0.95100 0.35520 0.00500
C 	C 	0.14430 0.27760 0.67710 -0.06400
C 	C 	0.20400 0.13090 0.60760 -0.09100
C 	C 	0.98480 0.62380 0.09910 0.11100
C 	C 	0.65420 0.04900 0.64480 0.00500
C 	C 	0.62470 0.02700 0.36780 0.02700
C 	C 	0.70670 0.72110 0.27000 0.00600
C 	C 	0.79600 0.86910 0.39240 -0.09100
C 	C 	0.15420 0.95100 0.85520 0.01100
C 	C 	0.04460 0.78880 0.71000 0.33000
C 	C 	0.55360 0.20210 0.05200 0.29200
C 	C 	0.24240 0.45270 0.48810 0.16000
C 	C 	0.48480 0.37620 0.40090 0.11100
C 	C 	0.10290 0.20600 0.22330 -0.10600
C 	C 	0.70400 0.86910 0.89240 -0.09100
C 	C 	0.20670 0.27890 0.23000 0.00700
C 	C 	0.74240 0.54730 0.01190 0.16000
N 	N 	0.01230 0.67520 0.04910 -0.26400
N 	N 	0.51230 0.32480 0.45090 -0.26300
N 	N 	0.48770 0.67520 0.54910 -0.26300
N 	N 	0.03800 0.89770 0.11650 -0.23200
N 	N 	0.98770 0.32480 0.95090 -0.26400
N 	N 	0.96200 0.10230 0.88350 -0.23200
N 	N 	0.46200 0.89770 0.61650 -0.23200
N 	N 	0.53800 0.10230 0.38350 -0.23200
O 	O 	0.62570 0.27208 0.05057 -0.39500
O 	O 	0.05510 0.84640 0.67443 -0.39600
O 	O 	0.44490 0.84640 0.17443 -0.39600
O 	O 	0.35370 0.72491 0.18950 -0.38100
O 	O 	0.60070 0.13350 0.00280 -0.35200
O 	O 	0.87430 0.27208 0.55057 -0.39500
O 	O 	0.85370 0.27509 0.31050 -0.38000
O 	O 	0.14630 0.72491 0.68950 -0.38000
O 	O 	0.39930 0.86650 0.99720 -0.35200
O 	O 	0.10070 0.86650 0.49720 -0.35300
O 	O 	0.55510 0.15360 0.82557 -0.39600
O 	O 	0.94490 0.15360 0.32557 -0.39600
O 	O 	0.89930 0.13350 0.50280 -0.35300
O 	O 	0.12570 0.72792 0.44943 -0.39500
O 	O 	0.64630 0.27509 0.81050 -0.38100
O 	O 	0.37430 0.72792 0.94943 -0.39500
