data_crystal

_cell_length_a 10.83040
_cell_length_b 11.99850
_cell_length_c 15.49600
_cell_angle_alpha 90.00000
_cell_angle_beta  95.22700
_cell_angle_gamma 90.00000

_symmetry_space_group_name_	'P 1'
_symmetry_space_group_name_H-M	'P 1'

loop_
_symmetry_equiv_pos_as_xyz
  x,y,z

loop_
_atom_site_label
_atom_site_type_symbol
_atom_site_fract_x
_atom_site_fract_y
_atom_site_fract_z
_atom_site_charge
Cu	Cu	0.02377 0.62882 0.65866 0.91000
Cu	Cu	0.52377 0.87118 0.15866 0.91100
Cu	Cu	0.36370 0.00379 0.00584 0.92600
Cu	Cu	0.97623 0.37118 0.34134 0.91000
Cu	Cu	0.47623 0.12882 0.84134 0.91100
Cu	Cu	0.63630 0.99621 0.99416 0.92600
Cu	Cu	0.86370 0.49621 0.50584 0.93100
Cu	Cu	0.13630 0.50379 0.49416 0.93100
H 	H 	0.51160 0.58890 0.57860 0.04400
H 	H 	0.99680 0.67230 0.49950 0.16000
H 	H 	0.01160 0.91110 0.07860 0.04500
H 	H 	0.98840 0.08890 0.92140 0.04500
H 	H 	0.34900 0.78030 0.75080 0.03100
H 	H 	0.27980 0.21140 0.25590 0.03200
H 	H 	0.22020 0.71140 0.24410 0.03300
H 	H 	0.00320 0.32770 0.50050 0.16000
H 	H 	0.72020 0.78860 0.74410 0.03200
H 	H 	0.50320 0.17230 0.00050 0.15500
H 	H 	0.49680 0.82770 0.99950 0.15500
H 	H 	0.77980 0.28860 0.75590 0.03300
H 	H 	0.15100 0.28030 0.74920 0.03200
H 	H 	0.65100 0.21970 0.24920 0.03100
H 	H 	0.84900 0.71970 0.25080 0.03200
H 	H 	0.48840 0.41110 0.42140 0.04400
C 	C 	0.75020 0.64040 0.62020 0.38100
C 	C 	0.41090 0.67670 0.66028 -0.13100
C 	C 	0.36560 0.31830 0.34400 -0.12800
C 	C 	0.25020 0.85960 0.12020 0.38000
C 	C 	0.35860 0.23960 0.27740 0.06100
C 	C 	0.85860 0.26040 0.77740 0.06000
C 	C 	0.95710 0.38890 0.67360 0.33400
C 	C 	0.98200 0.14130 0.87520 0.06400
C 	C 	0.57830 0.24450 0.27340 0.06100
C 	C 	0.54290 0.88890 0.82640 0.33600
C 	C 	0.92170 0.74450 0.22660 0.06000
C 	C 	0.96390 0.29860 0.74160 -0.12100
C 	C 	0.46390 0.20140 0.24160 -0.12200
C 	C 	0.63440 0.68170 0.65600 -0.12800
C 	C 	0.28490 0.63450 0.62622 0.39000
C 	C 	0.71510 0.36550 0.37378 0.39000
C 	C 	0.08910 0.17670 0.83972 -0.12800
C 	C 	0.64140 0.76040 0.72260 0.06100
C 	C 	0.21510 0.13450 0.87378 0.38900
C 	C 	0.13440 0.81830 0.15600 -0.12600
C 	C 	0.07830 0.25550 0.77340 0.06000
C 	C 	0.14140 0.73960 0.22260 0.06000
C 	C 	0.74980 0.14040 0.87980 0.38000
C 	C 	0.48200 0.35870 0.37520 0.06500
C 	C 	0.51800 0.64130 0.62480 0.06500
C 	C 	0.01800 0.85870 0.12480 0.06400
C 	C 	0.04290 0.61110 0.32640 0.33400
C 	C 	0.78490 0.86550 0.12622 0.38900
C 	C 	0.53610 0.79860 0.75840 -0.12200
C 	C 	0.91090 0.82330 0.16028 -0.12800
C 	C 	0.45710 0.11110 0.17360 0.33600
C 	C 	0.58910 0.32330 0.33972 -0.13100
C 	C 	0.86560 0.18170 0.84400 -0.12600
C 	C 	0.03610 0.70140 0.25840 -0.12100
C 	C 	0.42170 0.75550 0.72660 0.06100
C 	C 	0.24980 0.35960 0.37980 0.38100
O 	O 	0.44930 0.95100 0.82584 -0.40100
O 	O 	0.65157 0.15340 0.83122 -0.43200
O 	O 	0.30410 0.17130 0.83612 -0.43400
O 	O 	0.85976 0.39711 0.62387 -0.36000
O 	O 	0.80410 0.32870 0.33612 -0.43600
O 	O 	0.73872 0.59634 0.54642 -0.39100
O 	O 	0.34843 0.84660 0.16878 -0.43200
O 	O 	0.49380 0.10172 0.96625 -0.60300
O 	O 	0.23872 0.90366 0.04642 -0.38800
O 	O 	0.99380 0.39828 0.46625 -0.61000
O 	O 	0.19590 0.67130 0.66388 -0.43600
O 	O 	0.64024 0.89711 0.87613 -0.36300
O 	O 	0.27990 0.56970 0.56303 -0.39400
O 	O 	0.94930 0.54900 0.32584 -0.39800
O 	O 	0.26128 0.40366 0.45358 -0.39100
O 	O 	0.15157 0.34660 0.33122 -0.43400
O 	O 	0.55070 0.04900 0.17416 -0.40100
O 	O 	0.72010 0.43030 0.43697 -0.39400
O 	O 	0.84843 0.65340 0.66878 -0.43400
O 	O 	0.76128 0.09634 0.95358 -0.38800
O 	O 	0.77990 0.93030 0.06303 -0.39100
O 	O 	0.35976 0.10289 0.12387 -0.36300
O 	O 	0.22010 0.06970 0.93697 -0.39100
O 	O 	0.00620 0.60172 0.53375 -0.61000
O 	O 	0.69590 0.82870 0.16388 -0.43400
O 	O 	0.14024 0.60289 0.37613 -0.36000
O 	O 	0.50620 0.89828 0.03375 -0.60300
O 	O 	0.05070 0.45100 0.67416 -0.39800
