data_crystal

_cell_length_a 13.32700
_cell_length_b 14.15100
_cell_length_c 26.53200
_cell_angle_alpha 90.00000
_cell_angle_beta  101.51200
_cell_angle_gamma 90.00000

_symmetry_space_group_name_	'P 1'
_symmetry_space_group_name_H-M	'P 1'

loop_
_symmetry_equiv_pos_as_xyz
  x,y,z

loop_
_atom_site_label
_atom_site_type_symbol
_atom_site_fract_x
_atom_site_fract_y
_atom_site_fract_z
_atom_site_charge
Co	Co	0.01706 0.86675 0.26907 1.07700
Co	Co	0.01055 0.11352 0.24393 1.07600
Co	Co	0.98294 0.36675 0.23093 1.07600
Co	Co	0.98945 0.61352 0.25607 1.07500
Co	Co	0.98294 0.13325 0.73093 1.07600
Co	Co	0.98945 0.88648 0.75607 1.07500
Co	Co	0.01706 0.63325 0.76907 1.07600
Co	Co	0.01055 0.38648 0.74393 1.07500
H 	H 	0.26980 0.85930 0.29550 -0.00600
H 	H 	0.24220 0.11890 0.23280 -0.00700
H 	H 	0.79380 0.86520 0.29450 -0.00800
H 	H 	0.76550 0.12260 0.22980 -0.01700
H 	H 	0.61860 0.86470 0.29900 0.04500
H 	H 	0.44690 0.87090 0.30280 0.04200
H 	H 	0.41500 0.11740 0.22650 0.04300
H 	H 	0.58930 0.12210 0.22970 0.04400
H 	H 	0.97520 0.58430 0.37630 0.00200
H 	H 	0.01700 0.86260 0.38900 -0.00100
H 	H 	0.92870 0.85630 0.45730 0.04400
H 	H 	0.92430 0.86460 0.54590 0.04500
H 	H 	0.01560 0.59330 0.56210 0.04400
H 	H 	0.03070 0.58790 0.47510 0.04500
H 	H 	0.00700 0.60100 0.64990 -0.01800
H 	H 	0.93070 0.87610 0.63190 -0.01300
H 	H 	0.73020 0.35930 0.20450 -0.00600
H 	H 	0.75780 0.61890 0.26720 -0.00700
H 	H 	0.20620 0.36520 0.20550 -0.00800
H 	H 	0.23450 0.62260 0.27020 -0.01700
H 	H 	0.38140 0.36470 0.20100 0.04500
H 	H 	0.55310 0.37090 0.19720 0.04200
H 	H 	0.58500 0.61740 0.27350 0.04300
H 	H 	0.41070 0.62210 0.27030 0.04400
H 	H 	0.02480 0.08430 0.12370 0.00200
H 	H 	0.98300 0.36260 0.11100 -0.00100
H 	H 	0.07130 0.35630 0.04270 0.04400
H 	H 	0.07570 0.36460 0.95410 0.04500
H 	H 	0.98440 0.09330 0.93790 0.04400
H 	H 	0.96930 0.08790 0.02490 0.04500
H 	H 	0.99300 0.10100 0.85010 -0.01900
H 	H 	0.06930 0.37610 0.86810 -0.01300
H 	H 	0.73020 0.14070 0.70450 -0.00600
H 	H 	0.75780 0.88110 0.76720 -0.00700
H 	H 	0.20620 0.13480 0.70550 -0.00800
H 	H 	0.23450 0.87740 0.77020 -0.01700
H 	H 	0.38140 0.13530 0.70100 0.04500
H 	H 	0.55310 0.12910 0.69720 0.04200
H 	H 	0.58500 0.88260 0.77350 0.04300
H 	H 	0.41070 0.87790 0.77030 0.04400
H 	H 	0.02480 0.41570 0.62370 0.00200
H 	H 	0.98300 0.13740 0.61100 -0.00100
H 	H 	0.07130 0.14370 0.54270 0.04400
H 	H 	0.07570 0.13540 0.45410 0.04500
H 	H 	0.98440 0.40670 0.43790 0.04400
H 	H 	0.96930 0.41210 0.52490 0.04500
H 	H 	0.99300 0.39900 0.35010 -0.01800
H 	H 	0.06930 0.12390 0.36810 -0.01300
H 	H 	0.26980 0.64070 0.79550 -0.00600
H 	H 	0.24220 0.38110 0.73280 -0.00700
H 	H 	0.79380 0.63480 0.79450 -0.00800
H 	H 	0.76550 0.37740 0.72980 -0.01700
H 	H 	0.61860 0.63530 0.79900 0.04500
H 	H 	0.44690 0.62910 0.80280 0.04200
H 	H 	0.41500 0.38260 0.72650 0.04300
H 	H 	0.58930 0.37790 0.72970 0.04400
H 	H 	0.97520 0.91570 0.87630 0.00200
H 	H 	0.01700 0.63740 0.88900 -0.00100
H 	H 	0.92870 0.64370 0.95730 0.04400
H 	H 	0.92430 0.63540 0.04590 0.04500
H 	H 	0.01560 0.90670 0.06210 0.04400
H 	H 	0.03070 0.91210 0.97510 0.04500
H 	H 	0.00700 0.89900 0.14990 -0.01900
H 	H 	0.93070 0.62390 0.13190 -0.01300
C 	C 	0.24280 0.91730 0.28050 0.00900
C 	C 	0.29930 0.99200 0.26350 -0.03900
C 	C 	0.22760 0.05950 0.24640 0.02000
C 	C 	0.80790 0.92270 0.27880 0.03100
C 	C 	0.73200 0.99390 0.26120 -0.05100
C 	C 	0.79130 0.06340 0.24350 0.02700
C 	C 	0.62450 0.99350 0.26470 0.03300
C 	C 	0.57880 0.91800 0.28550 -0.06400
C 	C 	0.47560 0.92110 0.28650 -0.05600
C 	C 	0.41280 0.99320 0.26530 0.02400
C 	C 	0.45700 0.06740 0.24270 -0.05600
C 	C 	0.56040 0.06910 0.24360 -0.06200
C 	C 	0.98410 0.64880 0.36840 -0.00200
C 	C 	0.98870 0.72360 0.40300 -0.02600
C 	C 	0.00720 0.80040 0.37540 -0.00300
C 	C 	0.98140 0.72270 0.45890 0.02500
C 	C 	0.94880 0.80320 0.47880 -0.05900
C 	C 	0.94470 0.80760 0.53190 -0.06500
C 	C 	0.96960 0.73200 0.56250 0.03300
C 	C 	0.00010 0.64770 0.54110 -0.06200
C 	C 	0.00780 0.64380 0.48910 -0.06000
C 	C 	0.99360 0.66540 0.65630 0.02000
C 	C 	0.97100 0.73860 0.61840 -0.04500
C 	C 	0.95260 0.81630 0.64620 0.02600
C 	C 	0.75720 0.41730 0.21950 0.00800
C 	C 	0.70070 0.49200 0.23650 -0.03700
C 	C 	0.77240 0.55950 0.25360 0.01900
C 	C 	0.19210 0.42270 0.22120 0.03200
C 	C 	0.26800 0.49390 0.23880 -0.05200
C 	C 	0.20870 0.56340 0.25650 0.02800
C 	C 	0.37550 0.49350 0.23530 0.03300
C 	C 	0.42120 0.41800 0.21450 -0.06400
C 	C 	0.52440 0.42110 0.21350 -0.05600
C 	C 	0.58720 0.49320 0.23470 0.02400
C 	C 	0.54300 0.56740 0.25730 -0.05600
C 	C 	0.43960 0.56910 0.25640 -0.06200
C 	C 	0.01590 0.14880 0.13160 -0.00200
C 	C 	0.01130 0.22360 0.09700 -0.02600
C 	C 	0.99280 0.30040 0.12460 -0.00300
C 	C 	0.01860 0.22270 0.04110 0.02600
C 	C 	0.05120 0.30320 0.02120 -0.06000
C 	C 	0.05530 0.30760 0.96810 -0.06500
C 	C 	0.03040 0.23200 0.93750 0.03300
C 	C 	0.99990 0.14770 0.95890 -0.06200
C 	C 	0.99220 0.14380 0.01090 -0.06100
C 	C 	0.00640 0.16540 0.84370 0.02200
C 	C 	0.02900 0.23860 0.88160 -0.04600
C 	C 	0.04740 0.31630 0.85380 0.02600
C 	C 	0.75720 0.08270 0.71950 0.00900
C 	C 	0.70070 0.00800 0.73650 -0.03900
C 	C 	0.77240 0.94050 0.75360 0.02000
C 	C 	0.19210 0.07730 0.72120 0.03100
C 	C 	0.26800 0.00610 0.73880 -0.05100
C 	C 	0.20870 0.93660 0.75650 0.02700
C 	C 	0.37550 0.00650 0.73530 0.03300
C 	C 	0.42120 0.08200 0.71450 -0.06400
C 	C 	0.52440 0.07890 0.71350 -0.05600
C 	C 	0.58720 0.00680 0.73470 0.02400
C 	C 	0.54300 0.93260 0.75730 -0.05600
C 	C 	0.43960 0.93090 0.75640 -0.06200
C 	C 	0.01590 0.35120 0.63160 -0.00200
C 	C 	0.01130 0.27640 0.59700 -0.02600
C 	C 	0.99280 0.19960 0.62460 -0.00300
C 	C 	0.01860 0.27730 0.54110 0.02500
C 	C 	0.05120 0.19680 0.52120 -0.05900
C 	C 	0.05530 0.19240 0.46810 -0.06500
C 	C 	0.03040 0.26800 0.43750 0.03300
C 	C 	0.99990 0.35230 0.45890 -0.06200
C 	C 	0.99220 0.35620 0.51090 -0.06000
C 	C 	0.00640 0.33460 0.34370 0.02000
C 	C 	0.02900 0.26140 0.38160 -0.04500
C 	C 	0.04740 0.18370 0.35380 0.02600
C 	C 	0.24280 0.58270 0.78050 0.00800
C 	C 	0.29930 0.50800 0.76350 -0.03700
C 	C 	0.22760 0.44050 0.74640 0.01900
C 	C 	0.80790 0.57730 0.77880 0.03200
C 	C 	0.73200 0.50610 0.76120 -0.05200
C 	C 	0.79130 0.43660 0.74350 0.02800
C 	C 	0.62450 0.50650 0.76470 0.03300
C 	C 	0.57880 0.58200 0.78550 -0.06400
C 	C 	0.47560 0.57890 0.78650 -0.05600
C 	C 	0.41280 0.50680 0.76530 0.02400
C 	C 	0.45700 0.43260 0.74270 -0.05600
C 	C 	0.56040 0.43090 0.74360 -0.06200
C 	C 	0.98410 0.85120 0.86840 -0.00200
C 	C 	0.98870 0.77640 0.90300 -0.02600
C 	C 	0.00720 0.69960 0.87540 -0.00300
C 	C 	0.98140 0.77730 0.95890 0.02600
C 	C 	0.94880 0.69680 0.97880 -0.06000
C 	C 	0.94470 0.69240 0.03190 -0.06500
C 	C 	0.96960 0.76800 0.06250 0.03300
C 	C 	0.00010 0.85230 0.04110 -0.06200
C 	C 	0.00780 0.85620 0.98910 -0.06100
C 	C 	0.99360 0.83460 0.15630 0.02200
C 	C 	0.97100 0.76140 0.11840 -0.04600
C 	C 	0.95260 0.68370 0.14620 0.02600
N 	N 	0.14330 0.94440 0.27140 -0.24900
N 	N 	0.13370 0.03140 0.25110 -0.25500
N 	N 	0.89920 0.94600 0.27060 -0.26600
N 	N 	0.88840 0.03630 0.24820 -0.26300
N 	N 	0.99460 0.68320 0.32010 -0.25100
N 	N 	0.01010 0.77630 0.32410 -0.25500
N 	N 	0.99250 0.70390 0.70180 -0.24900
N 	N 	0.96980 0.79570 0.69600 -0.24600
N 	N 	0.85670 0.44440 0.22860 -0.24900
N 	N 	0.86630 0.53140 0.24890 -0.25500
N 	N 	0.10080 0.44600 0.22940 -0.26600
N 	N 	0.11160 0.53630 0.25180 -0.26200
N 	N 	0.00540 0.18320 0.17990 -0.25100
N 	N 	0.98990 0.27630 0.17590 -0.25500
N 	N 	0.00750 0.20390 0.79820 -0.24900
N 	N 	0.03020 0.29570 0.80400 -0.24600
N 	N 	0.85670 0.05560 0.72860 -0.24900
N 	N 	0.86630 0.96860 0.74890 -0.25500
N 	N 	0.10080 0.05400 0.72940 -0.26600
N 	N 	0.11160 0.96370 0.75180 -0.26300
N 	N 	0.00540 0.31680 0.67990 -0.25100
N 	N 	0.98990 0.22370 0.67590 -0.25500
N 	N 	0.00750 0.29610 0.29820 -0.24900
N 	N 	0.03020 0.20430 0.30400 -0.24600
N 	N 	0.14330 0.55560 0.77140 -0.24900
N 	N 	0.13370 0.46860 0.75110 -0.25500
N 	N 	0.89920 0.55400 0.77060 -0.26600
N 	N 	0.88840 0.46370 0.74820 -0.26200
N 	N 	0.99460 0.81680 0.82010 -0.25100
N 	N 	0.01010 0.72370 0.82410 -0.25500
N 	N 	0.99250 0.79610 0.20180 -0.24900
N 	N 	0.96980 0.70430 0.19600 -0.24600
