data_crystal

_cell_length_a 20.92590
_cell_length_b 20.92590
_cell_length_c 9.63220
_cell_angle_alpha 90.00000
_cell_angle_beta  90.00000
_cell_angle_gamma 90.00000

_symmetry_space_group_name_	'P 1'
_symmetry_space_group_name_H-M	'P 1'

loop_
_symmetry_equiv_pos_as_xyz
  x,y,z

loop_
_atom_site_label
_atom_site_type_symbol
_atom_site_fract_x
_atom_site_fract_y
_atom_site_fract_z
_atom_site_charge
K 	K 	0.33809 0.98095 0.14419 0.63600
C 	C 	0.27490 0.88904 0.74480 0.03600
C 	C 	0.22670 0.90770 0.83430 -0.10800
H 	H 	0.23430 0.93880 0.90120 0.05100
C 	C 	0.16650 0.87930 0.82310 0.04700
H 	H 	0.13470 0.89200 0.88470 0.01600
C 	C 	0.26050 0.84230 0.64780 -0.12000
H 	H 	0.29170 0.82810 0.58630 0.07600
C 	C 	0.19990 0.81720 0.64340 0.05900
H 	H 	0.19130 0.78600 0.57730 0.00400
C 	C 	0.33970 0.91947 0.74990 0.09600
C 	C 	0.48420 0.12580 0.02100 0.03600
C 	C 	0.54220 0.15740 0.02540 -0.11200
H 	H 	0.57560 0.14490 0.96770 0.06500
C 	C 	0.55010 0.20760 0.11640 0.06500
H 	H 	0.58950 0.22820 0.11860 0.00400
C 	C 	0.43610 0.14750 0.10880 -0.11200
H 	H 	0.39620 0.12810 0.10880 0.05400
C 	C 	0.44850 0.19830 0.19600 0.06400
H 	H 	0.41590 0.21230 0.25430 -0.00700
C 	C 	0.47340 0.07031 0.92550 0.10300
C 	C 	0.59421 0.91660 0.48820 0.03800
C 	C 	0.58550 0.86550 0.39850 -0.11400
H 	H 	0.54740 0.84260 0.39920 0.07400
C 	C 	0.63400 0.84910 0.30820 0.06700
H 	H 	0.62690 0.81520 0.24760 0.02000
C 	C 	0.65270 0.94790 0.48050 -0.10900
H 	H 	0.66100 0.98250 0.53850 0.05600
C 	C 	0.69790 0.92790 0.38790 0.06200
H 	H 	0.73640 0.95010 0.38420 0.01800
C 	C 	0.54226 0.93736 0.58340 0.10100
C 	C 	0.43963 0.92609 0.65840 0.17000
C 	C 	0.40420 0.99570 0.84440 0.15100
C 	C 	0.45180 0.97625 0.75090 -0.14700
C 	C 	0.51130 0.00592 0.75480 0.15400
N 	N 	0.15233 0.83500 0.72880 -0.16500
N 	N 	0.50440 0.22824 0.20120 -0.17800
N 	N 	0.69000 0.87820 0.30200 -0.12900
N 	N 	0.38175 0.89792 0.65490 -0.15300
N 	N 	0.34697 0.96484 0.84670 -0.18300
N 	N 	0.41510 0.04367 0.93260 -0.18200
N 	N 	0.52260 0.05444 0.84470 -0.17700
N 	N 	0.55849 0.98545 0.67040 -0.18200
N 	N 	0.48643 0.90682 0.57150 -0.15100
K 	K 	0.16191 0.51905 0.14419 0.63700
C 	C 	0.22510 0.61096 0.74480 0.03700
C 	C 	0.27330 0.59230 0.83430 -0.10700
H 	H 	0.26570 0.56120 0.90120 0.05200
C 	C 	0.33350 0.62070 0.82310 0.04800
H 	H 	0.36530 0.60800 0.88470 0.01700
C 	C 	0.23950 0.65770 0.64780 -0.11900
H 	H 	0.20830 0.67190 0.58630 0.07700
C 	C 	0.30010 0.68280 0.64340 0.05900
H 	H 	0.30870 0.71400 0.57730 0.00400
C 	C 	0.16030 0.58053 0.74990 0.09600
C 	C 	0.01580 0.37420 0.02100 0.03300
C 	C 	0.95780 0.34260 0.02540 -0.10800
H 	H 	0.92440 0.35510 0.96770 0.06300
C 	C 	0.94990 0.29240 0.11640 0.06300
H 	H 	0.91050 0.27180 0.11860 0.00500
C 	C 	0.06390 0.35250 0.10880 -0.11000
H 	H 	0.10380 0.37190 0.10880 0.05300
C 	C 	0.05150 0.30170 0.19600 0.06300
H 	H 	0.08410 0.28770 0.25430 -0.00700
C 	C 	0.02660 0.42969 0.92550 0.10500
C 	C 	0.90579 0.58340 0.48820 0.03800
C 	C 	0.91450 0.63450 0.39850 -0.11400
H 	H 	0.95260 0.65740 0.39920 0.07400
C 	C 	0.86600 0.65090 0.30820 0.06700
H 	H 	0.87310 0.68480 0.24760 0.02000
C 	C 	0.84730 0.55210 0.48050 -0.10900
H 	H 	0.83900 0.51750 0.53850 0.05500
C 	C 	0.80210 0.57210 0.38790 0.06200
H 	H 	0.76360 0.54990 0.38420 0.01800
C 	C 	0.95774 0.56264 0.58340 0.10100
C 	C 	0.06037 0.57391 0.65840 0.17000
C 	C 	0.09580 0.50430 0.84440 0.15100
C 	C 	0.04820 0.52375 0.75090 -0.14700
C 	C 	0.98870 0.49408 0.75480 0.15400
N 	N 	0.34767 0.66500 0.72880 -0.16500
N 	N 	0.99560 0.27176 0.20120 -0.17700
N 	N 	0.81000 0.62180 0.30200 -0.12900
N 	N 	0.11825 0.60208 0.65490 -0.15300
N 	N 	0.15303 0.53516 0.84670 -0.18300
N 	N 	0.08490 0.45633 0.93260 -0.18200
N 	N 	0.97740 0.44556 0.84470 -0.17700
N 	N 	0.94151 0.51455 0.67040 -0.18200
N 	N 	0.01357 0.59318 0.57150 -0.15100
K 	K 	0.01905 0.83809 0.64419 0.63700
C 	C 	0.11096 0.77490 0.24480 0.03700
C 	C 	0.09230 0.72670 0.33430 -0.10700
H 	H 	0.06120 0.73430 0.40120 0.05200
C 	C 	0.12070 0.66650 0.32310 0.04800
H 	H 	0.10800 0.63470 0.38470 0.01700
C 	C 	0.15770 0.76050 0.14780 -0.11900
H 	H 	0.17190 0.79170 0.08630 0.07700
C 	C 	0.18280 0.69990 0.14340 0.05900
H 	H 	0.21400 0.69130 0.07730 0.00400
C 	C 	0.08053 0.83970 0.24990 0.09600
C 	C 	0.87420 0.98420 0.52100 0.03800
C 	C 	0.84260 0.04220 0.52540 -0.11400
H 	H 	0.85510 0.07560 0.46770 0.06600
C 	C 	0.79240 0.05010 0.61640 0.06600
H 	H 	0.77180 0.08950 0.61860 0.00400
C 	C 	0.85250 0.93610 0.60880 -0.11300
H 	H 	0.87190 0.89620 0.60880 0.05400
C 	C 	0.80170 0.94850 0.69600 0.06500
H 	H 	0.78770 0.91590 0.75430 -0.00800
C 	C 	0.92969 0.97340 0.42550 0.10400
C 	C 	0.08340 0.09421 0.98820 0.03800
C 	C 	0.13450 0.08550 0.89850 -0.11400
H 	H 	0.15740 0.04740 0.89920 0.07400
C 	C 	0.15090 0.13400 0.80820 0.06700
H 	H 	0.18480 0.12690 0.74760 0.02000
C 	C 	0.05210 0.15270 0.98050 -0.10700
H 	H 	0.01750 0.16100 0.03850 0.05400
C 	C 	0.07210 0.19790 0.88790 0.06100
H 	H 	0.04990 0.23640 0.88420 0.01900
C 	C 	0.06264 0.04226 0.08340 0.10100
C 	C 	0.07391 0.93963 0.15840 0.17000
C 	C 	0.00430 0.90420 0.34440 0.15000
C 	C 	0.02375 0.95180 0.25090 -0.14800
C 	C 	0.99408 0.01130 0.25480 0.15500
N 	N 	0.16500 0.65233 0.22880 -0.16500
N 	N 	0.77176 0.00440 0.70120 -0.17800
N 	N 	0.12180 0.19000 0.80200 -0.12900
N 	N 	0.10208 0.88175 0.15490 -0.15300
N 	N 	0.03516 0.84697 0.34670 -0.18300
N 	N 	0.95633 0.91510 0.43260 -0.18100
N 	N 	0.94556 0.02260 0.34470 -0.17700
N 	N 	0.01455 0.05849 0.17040 -0.18200
N 	N 	0.09318 0.98643 0.07150 -0.15200
K 	K 	0.48095 0.66191 0.64419 0.63700
C 	C 	0.38904 0.72510 0.24480 0.03700
C 	C 	0.40770 0.77330 0.33430 -0.10700
H 	H 	0.43880 0.76570 0.40120 0.05200
C 	C 	0.37930 0.83350 0.32310 0.04800
H 	H 	0.39200 0.86530 0.38470 0.01600
C 	C 	0.34230 0.73950 0.14780 -0.11900
H 	H 	0.32810 0.70830 0.08630 0.07700
C 	C 	0.31720 0.80010 0.14340 0.05900
H 	H 	0.28600 0.80870 0.07730 0.00400
C 	C 	0.41947 0.66030 0.24990 0.09600
C 	C 	0.62580 0.51580 0.52100 0.03600
C 	C 	0.65740 0.45780 0.52540 -0.11300
H 	H 	0.64490 0.42440 0.46770 0.06500
C 	C 	0.70760 0.44990 0.61640 0.06600
H 	H 	0.72820 0.41050 0.61860 0.00400
C 	C 	0.64750 0.56390 0.60880 -0.11200
H 	H 	0.62810 0.60380 0.60880 0.05400
C 	C 	0.69830 0.55150 0.69600 0.06400
H 	H 	0.71230 0.58410 0.75430 -0.00700
C 	C 	0.57031 0.52660 0.42550 0.10300
C 	C 	0.41660 0.40579 0.98820 0.03800
C 	C 	0.36550 0.41450 0.89850 -0.11400
H 	H 	0.34260 0.45260 0.89920 0.07400
C 	C 	0.34910 0.36600 0.80820 0.06700
H 	H 	0.31520 0.37310 0.74760 0.02000
C 	C 	0.44790 0.34730 0.98050 -0.10900
H 	H 	0.48250 0.33900 0.03850 0.05500
C 	C 	0.42790 0.30210 0.88790 0.06200
H 	H 	0.45010 0.26360 0.88420 0.01800
C 	C 	0.43736 0.45774 0.08340 0.10000
C 	C 	0.42609 0.56037 0.15840 0.17000
C 	C 	0.49570 0.59580 0.34440 0.15000
C 	C 	0.47625 0.54820 0.25090 -0.14700
C 	C 	0.50592 0.48870 0.25480 0.15400
N 	N 	0.33500 0.84767 0.22880 -0.16500
N 	N 	0.72824 0.49560 0.70120 -0.17800
N 	N 	0.37820 0.31000 0.80200 -0.13000
N 	N 	0.39792 0.61825 0.15490 -0.15300
N 	N 	0.46484 0.65303 0.34670 -0.18300
N 	N 	0.54367 0.58490 0.43260 -0.18200
N 	N 	0.55444 0.47740 0.34470 -0.17700
N 	N 	0.48545 0.44151 0.17040 -0.18200
N 	N 	0.40682 0.51357 0.07150 -0.15100
K 	K 	0.66191 0.01905 0.85581 0.63700
C 	C 	0.72510 0.11096 0.25520 0.03700
C 	C 	0.77330 0.09230 0.16570 -0.10700
H 	H 	0.76570 0.06120 0.09880 0.05200
C 	C 	0.83350 0.12070 0.17690 0.04800
H 	H 	0.86530 0.10800 0.11530 0.01700
C 	C 	0.73950 0.15770 0.35220 -0.11900
H 	H 	0.70830 0.17190 0.41370 0.07700
C 	C 	0.80010 0.18280 0.35660 0.05900
H 	H 	0.80870 0.21400 0.42270 0.00400
C 	C 	0.66030 0.08053 0.25010 0.09600
C 	C 	0.51580 0.87420 0.97900 0.03600
C 	C 	0.45780 0.84260 0.97460 -0.11200
H 	H 	0.42440 0.85510 0.03230 0.06500
C 	C 	0.44990 0.79240 0.88360 0.06500
H 	H 	0.41050 0.77180 0.88140 0.00400
C 	C 	0.56390 0.85250 0.89120 -0.11200
H 	H 	0.60380 0.87190 0.89120 0.05400
C 	C 	0.55150 0.80170 0.80400 0.06400
H 	H 	0.58410 0.78770 0.74570 -0.00700
C 	C 	0.52660 0.92969 0.07450 0.10300
C 	C 	0.40579 0.08340 0.51180 0.03800
C 	C 	0.41450 0.13450 0.60150 -0.11400
H 	H 	0.45260 0.15740 0.60080 0.07400
C 	C 	0.36600 0.15090 0.69180 0.06700
H 	H 	0.37310 0.18480 0.75240 0.02000
C 	C 	0.34730 0.05210 0.51950 -0.10900
H 	H 	0.33900 0.01750 0.46150 0.05600
C 	C 	0.30210 0.07210 0.61210 0.06200
H 	H 	0.26360 0.04990 0.61580 0.01800
C 	C 	0.45774 0.06264 0.41660 0.10100
C 	C 	0.56037 0.07391 0.34160 0.17000
C 	C 	0.59580 0.00430 0.15560 0.15100
C 	C 	0.54820 0.02375 0.24910 -0.14700
C 	C 	0.48870 0.99408 0.24520 0.15400
N 	N 	0.84767 0.16500 0.27120 -0.16500
N 	N 	0.49560 0.77176 0.79880 -0.17800
N 	N 	0.31000 0.12180 0.69800 -0.12900
N 	N 	0.61825 0.10208 0.34510 -0.15300
N 	N 	0.65303 0.03516 0.15330 -0.18300
N 	N 	0.58490 0.95633 0.06740 -0.18200
N 	N 	0.47740 0.94556 0.15530 -0.17700
N 	N 	0.44151 0.01455 0.32960 -0.18200
N 	N 	0.51357 0.09318 0.42850 -0.15100
K 	K 	0.83809 0.48095 0.85581 0.63700
C 	C 	0.77490 0.38904 0.25520 0.03700
C 	C 	0.72670 0.40770 0.16570 -0.10700
H 	H 	0.73430 0.43880 0.09880 0.05200
C 	C 	0.66650 0.37930 0.17690 0.04800
H 	H 	0.63470 0.39200 0.11530 0.01700
C 	C 	0.76050 0.34230 0.35220 -0.11900
H 	H 	0.79170 0.32810 0.41370 0.07700
C 	C 	0.69990 0.31720 0.35660 0.05900
H 	H 	0.69130 0.28600 0.42270 0.00400
C 	C 	0.83970 0.41947 0.25010 0.09600
C 	C 	0.98420 0.62580 0.97900 0.03300
C 	C 	0.04220 0.65740 0.97460 -0.10800
H 	H 	0.07560 0.64490 0.03230 0.06300
C 	C 	0.05010 0.70760 0.88360 0.06300
H 	H 	0.08950 0.72820 0.88140 0.00500
C 	C 	0.93610 0.64750 0.89120 -0.11000
H 	H 	0.89620 0.62810 0.89120 0.05300
C 	C 	0.94850 0.69830 0.80400 0.06300
H 	H 	0.91590 0.71230 0.74570 -0.00700
C 	C 	0.97340 0.57031 0.07450 0.10500
C 	C 	0.09421 0.41660 0.51180 0.03800
C 	C 	0.08550 0.36550 0.60150 -0.11400
H 	H 	0.04740 0.34260 0.60080 0.07400
C 	C 	0.13400 0.34910 0.69180 0.06700
H 	H 	0.12690 0.31520 0.75240 0.02000
C 	C 	0.15270 0.44790 0.51950 -0.10900
H 	H 	0.16100 0.48250 0.46150 0.05500
C 	C 	0.19790 0.42790 0.61210 0.06200
H 	H 	0.23640 0.45010 0.61580 0.01800
C 	C 	0.04226 0.43736 0.41660 0.10100
C 	C 	0.93963 0.42609 0.34160 0.17000
C 	C 	0.90420 0.49570 0.15560 0.15100
C 	C 	0.95180 0.47625 0.24910 -0.14700
C 	C 	0.01130 0.50592 0.24520 0.15400
N 	N 	0.65233 0.33500 0.27120 -0.16500
N 	N 	0.00440 0.72824 0.79880 -0.17700
N 	N 	0.19000 0.37820 0.69800 -0.12900
N 	N 	0.88175 0.39792 0.34510 -0.15300
N 	N 	0.84697 0.46484 0.15330 -0.18300
N 	N 	0.91510 0.54367 0.06740 -0.18200
N 	N 	0.02260 0.55444 0.15530 -0.17700
N 	N 	0.05849 0.48545 0.32960 -0.18200
N 	N 	0.98643 0.40682 0.42850 -0.15100
K 	K 	0.98095 0.16191 0.35581 0.63700
C 	C 	0.88904 0.22510 0.75520 0.03700
C 	C 	0.90770 0.27330 0.66570 -0.10700
H 	H 	0.93880 0.26570 0.59880 0.05200
C 	C 	0.87930 0.33350 0.67690 0.04800
H 	H 	0.89200 0.36530 0.61530 0.01700
C 	C 	0.84230 0.23950 0.85220 -0.11900
H 	H 	0.82810 0.20830 0.91370 0.07700
C 	C 	0.81720 0.30010 0.85660 0.05900
H 	H 	0.78600 0.30870 0.92270 0.00400
C 	C 	0.91947 0.16030 0.75010 0.09600
C 	C 	0.12580 0.01580 0.47900 0.03800
C 	C 	0.15740 0.95780 0.47460 -0.11400
H 	H 	0.14490 0.92440 0.53230 0.06600
C 	C 	0.20760 0.94990 0.38360 0.06600
H 	H 	0.22820 0.91050 0.38140 0.00400
C 	C 	0.14750 0.06390 0.39120 -0.11300
H 	H 	0.12810 0.10380 0.39120 0.05400
C 	C 	0.19830 0.05150 0.30400 0.06500
H 	H 	0.21230 0.08410 0.24570 -0.00800
C 	C 	0.07031 0.02660 0.57450 0.10400
C 	C 	0.91660 0.90579 0.01180 0.03800
C 	C 	0.86550 0.91450 0.10150 -0.11400
H 	H 	0.84260 0.95260 0.10080 0.07400
C 	C 	0.84910 0.86600 0.19180 0.06700
H 	H 	0.81520 0.87310 0.25240 0.02000
C 	C 	0.94790 0.84730 0.01950 -0.10700
H 	H 	0.98250 0.83900 0.96150 0.05400
C 	C 	0.92790 0.80210 0.11210 0.06100
H 	H 	0.95010 0.76360 0.11580 0.01900
C 	C 	0.93736 0.95774 0.91660 0.10100
C 	C 	0.92609 0.06037 0.84160 0.17000
C 	C 	0.99570 0.09580 0.65560 0.15000
C 	C 	0.97625 0.04820 0.74910 -0.14800
C 	C 	0.00592 0.98870 0.74520 0.15500
N 	N 	0.83500 0.34767 0.77120 -0.16500
N 	N 	0.22824 0.99560 0.29880 -0.17800
N 	N 	0.87820 0.81000 0.19800 -0.12900
N 	N 	0.89792 0.11825 0.84510 -0.15300
N 	N 	0.96484 0.15303 0.65330 -0.18300
N 	N 	0.04367 0.08490 0.56740 -0.18100
N 	N 	0.05444 0.97740 0.65530 -0.17700
N 	N 	0.98545 0.94151 0.82960 -0.18200
N 	N 	0.90682 0.01357 0.92850 -0.15200
K 	K 	0.51905 0.33809 0.35581 0.63700
C 	C 	0.61096 0.27490 0.75520 0.03700
C 	C 	0.59230 0.22670 0.66570 -0.10700
H 	H 	0.56120 0.23430 0.59880 0.05200
C 	C 	0.62070 0.16650 0.67690 0.04800
H 	H 	0.60800 0.13470 0.61530 0.01600
C 	C 	0.65770 0.26050 0.85220 -0.11900
H 	H 	0.67190 0.29170 0.91370 0.07700
C 	C 	0.68280 0.19990 0.85660 0.05900
H 	H 	0.71400 0.19130 0.92270 0.00400
C 	C 	0.58053 0.33970 0.75010 0.09600
C 	C 	0.37420 0.48420 0.47900 0.03600
C 	C 	0.34260 0.54220 0.47460 -0.11300
H 	H 	0.35510 0.57560 0.53230 0.06500
C 	C 	0.29240 0.55010 0.38360 0.06600
H 	H 	0.27180 0.58950 0.38140 0.00400
C 	C 	0.35250 0.43610 0.39120 -0.11200
H 	H 	0.37190 0.39620 0.39120 0.05400
C 	C 	0.30170 0.44850 0.30400 0.06400
H 	H 	0.28770 0.41590 0.24570 -0.00700
C 	C 	0.42969 0.47340 0.57450 0.10300
C 	C 	0.58340 0.59421 0.01180 0.03800
C 	C 	0.63450 0.58550 0.10150 -0.11400
H 	H 	0.65740 0.54740 0.10080 0.07400
C 	C 	0.65090 0.63400 0.19180 0.06700
H 	H 	0.68480 0.62690 0.25240 0.02000
C 	C 	0.55210 0.65270 0.01950 -0.10900
H 	H 	0.51750 0.66100 0.96150 0.05500
C 	C 	0.57210 0.69790 0.11210 0.06200
H 	H 	0.54990 0.73640 0.11580 0.01800
C 	C 	0.56264 0.54226 0.91660 0.10000
C 	C 	0.57391 0.43963 0.84160 0.17000
C 	C 	0.50430 0.40420 0.65560 0.15000
C 	C 	0.52375 0.45180 0.74910 -0.14700
C 	C 	0.49408 0.51130 0.74520 0.15400
N 	N 	0.66500 0.15233 0.77120 -0.16500
N 	N 	0.27176 0.50440 0.29880 -0.17800
N 	N 	0.62180 0.69000 0.19800 -0.13000
N 	N 	0.60208 0.38175 0.84510 -0.15300
N 	N 	0.53516 0.34697 0.65330 -0.18300
N 	N 	0.45633 0.41510 0.56740 -0.18200
N 	N 	0.44556 0.52260 0.65530 -0.17700
N 	N 	0.51455 0.55849 0.82960 -0.18200
N 	N 	0.59318 0.48643 0.92850 -0.15100
