data_crystal

_cell_length_a 24.36000
_cell_length_b 24.36000
_cell_length_c 16.90900
_cell_angle_alpha 90.00000
_cell_angle_beta  90.00000
_cell_angle_gamma 90.00000

_symmetry_space_group_name_	'P 1'
_symmetry_space_group_name_H-M	'P 1'

loop_
_symmetry_equiv_pos_as_xyz
  x,y,z

loop_
_atom_site_label
_atom_site_type_symbol
_atom_site_fract_x
_atom_site_fract_y
_atom_site_fract_z
_atom_site_charge
C 	C 	0.34069 0.21081 -0.01531 0.04800
C 	C 	0.36042 0.23281 -0.08703 -0.09200
C 	C 	0.39996 0.27508 -0.08717 0.04800
C 	C 	0.41929 0.29524 -0.01425 -0.09100
C 	C 	0.39987 0.27425 0.05814 0.04800
C 	C 	0.36074 0.23165 0.05696 -0.09100
H 	H 	0.34597 0.21610 -0.14265 0.05600
H 	H 	0.44996 0.32749 -0.01381 0.05500
H 	H 	0.34637 0.21423 0.11217 0.05600
C 	C 	0.80051 0.67030 0.98517 0.04800
C 	C 	0.77913 0.65010 0.91303 -0.08900
C 	C 	0.74177 0.60605 0.91186 0.04900
C 	C 	0.72387 0.58356 0.98405 -0.08800
C 	C 	0.74445 0.60272 1.05674 0.04900
C 	C 	0.78319 0.64558 1.05663 -0.08900
H 	H 	0.79242 0.66784 0.85749 0.05300
H 	H 	0.69428 0.55032 0.98356 0.06000
H 	H 	0.80064 0.65889 1.11234 0.05700
C 	C 	0.31319 0.71147 0.48476 0.04900
C 	C 	0.29187 0.73198 0.41301 -0.09000
C 	C 	0.24867 0.77043 0.41291 0.04800
C 	C 	0.22808 0.78939 0.48587 -0.08900
C 	C 	0.24883 0.76956 0.55823 0.04900
C 	C 	0.29154 0.73062 0.55705 -0.09000
H 	H 	0.30778 0.71673 0.35734 0.05500
H 	H 	0.19505 0.81921 0.48633 0.05900
H 	H 	0.30733 0.71452 0.61229 0.05500
C 	C 	0.84875 0.16625 0.48450 0.04800
C 	C 	0.86841 0.14392 0.55634 -0.08900
C 	C 	0.90939 0.10315 0.55672 0.04900
C 	C 	0.93094 0.08480 0.48416 -0.08800
C 	C 	0.91234 0.10651 0.41187 0.04800
C 	C 	0.87267 0.14845 0.41272 -0.08900
H 	H 	0.85058 0.15685 0.61199 0.05400
H 	H 	0.96177 0.05271 0.48386 0.06000
H 	H 	0.85898 0.16577 0.35710 0.05600
Zn	Zn	0.06268 1.00997 0.98336 1.24200
Zn	Zn	0.15201 0.92221 0.98554 1.24100
Zn	Zn	0.04520 0.90440 1.07251 1.24900
Zn	Zn	0.04608 0.90252 0.89794 1.24900
O 	O 	0.07684 0.93508 0.98484 -1.01600
O 	O 	0.12562 1.04969 0.98192 -0.52000
O 	O 	0.17409 0.88422 1.07392 -0.51300
O 	O 	0.01320 0.95450 1.13429 -0.52900
O 	O 	0.19076 0.98617 0.98568 -0.51700
O 	O 	0.02493 1.03324 1.07127 -0.51300
O 	O 	0.09463 0.87094 1.13470 -0.52500
O 	O 	-0.00503 0.85096 0.92058 -0.52400
O 	O 	0.17514 0.88378 0.89779 -0.51100
O 	O 	-0.00769 0.85438 1.05101 -0.52200
O 	O 	0.09604 0.86967 0.83666 -0.52900
O 	O 	0.01270 0.95128 0.83487 -0.52600
O 	O 	0.02394 1.03107 0.89543 -0.51400
C 	C 	0.17622 1.03646 0.98362 0.39200
C 	C 	0.14649 0.86519 1.13202 0.39400
C 	C 	0.00690 1.00618 1.13046 0.39400
C 	C 	-0.02506 0.83488 0.98596 0.39400
C 	C 	0.14786 0.86430 0.83966 0.39000
C 	C 	0.00575 1.00296 0.83734 0.38700
Zn	Zn	0.59172 0.50997 0.48341 1.24300
Zn	Zn	0.50140 0.42353 0.48558 1.24200
Zn	Zn	0.60685 0.40242 0.39777 1.24800
Zn	Zn	0.60786 0.40416 0.57269 1.24800
O 	O 	0.57666 0.43530 0.48489 -1.01600
O 	O 	0.52937 0.55059 0.48195 -0.52000
O 	O 	0.47768 0.38560 0.39801 -0.51300
O 	O 	0.64116 0.45072 0.33491 -0.52700
O 	O 	0.46344 0.48793 0.48585 -0.51800
O 	O 	0.63068 0.53057 0.39559 -0.51500
O 	O 	0.55628 0.37071 0.33602 -0.52800
O 	O 	0.65975 0.35304 0.55098 -0.52200
O 	O 	0.47883 0.38594 0.57370 -0.51500
O 	O 	0.65684 0.34982 0.42049 -0.52300
O 	O 	0.55779 0.37178 0.63537 -0.52500
O 	O 	0.64083 0.45388 0.63427 -0.52800
O 	O 	0.62976 0.53271 0.57120 -0.51400
C 	C 	0.47861 0.53802 0.48373 0.39000
C 	C 	0.50438 0.36616 0.33934 0.39100
C 	C 	0.64862 0.50233 0.33750 0.38700
C 	C 	0.67655 0.33319 0.48581 0.39400
C 	C 	0.50584 0.36688 0.63231 0.39400
C 	C 	0.64761 0.50550 0.63035 0.39300
C 	C 	0.71843 0.24719 0.43035 -0.02500
C 	C 	0.71983 0.29004 0.48579 -0.09800
C 	C 	0.76261 0.29106 0.54133 0.01000
C 	C 	0.80401 0.25104 0.53997 -0.04300
C 	C 	0.80299 0.20770 0.48473 -0.03000
C 	C 	0.75819 0.20516 0.43087 0.06100
N 	N 	0.75031 0.15895 0.37955 -0.19000
H 	H 	0.68480 0.24509 0.38849 0.04500
H 	H 	0.83738 0.25435 0.58201 0.03900
H 	H 	0.72022 0.15991 0.33557 0.08100
H 	H 	0.76985 0.12149 0.38963 0.08400
C 	C 	0.94712 0.00258 0.25093 -0.02600
C 	C 	0.97862 0.03403 0.19789 -0.09900
C 	C 	0.98463 0.09049 0.21293 0.01100
C 	C 	0.96170 0.11423 0.28131 -0.04300
C 	C 	0.93191 0.08219 0.33576 -0.03100
C 	C 	0.92318 0.02605 0.31847 0.06200
N 	N 	0.88907 -0.00756 0.36778 -0.19000
H 	H 	0.94074 -0.04074 0.23971 0.04900
H 	H 	0.96856 0.15741 0.29296 0.04100
H 	H 	0.88616 -0.04980 0.35803 0.08100
H 	H 	0.86300 0.00956 0.41002 0.08200
C 	C 	0.94956 -0.00261 0.71305 -0.02900
C 	C 	0.97686 0.02989 0.76955 -0.09000
C 	C 	0.97797 0.08706 0.75811 0.00500
C 	C 	0.95432 0.11072 0.69025 -0.04000
C 	C 	0.92877 0.07791 0.63240 -0.03300
C 	C 	0.92509 0.02067 0.64567 0.06400
N 	N 	0.89563 -0.01439 0.59242 -0.19000
H 	H 	0.94701 -0.04665 0.72124 0.05300
H 	H 	0.95748 0.15467 0.68164 0.04000
H 	H 	0.89643 -0.05698 0.59953 0.08300
H 	H 	0.86938 0.00153 0.54946 0.08400
C 	C 	0.34229 0.61405 0.50486 -0.04200
C 	C 	0.35648 0.66811 0.48423 -0.03200
C 	C 	0.41152 0.67956 0.46313 0.06300
C 	C 	0.45083 0.63702 0.46339 -0.02800
C 	C 	0.43645 0.58276 0.48351 -0.09500
C 	C 	0.38155 0.57189 0.50395 0.00600
H 	H 	0.30039 0.60436 0.52117 0.04000
H 	H 	0.49285 0.64647 0.44740 0.04900
N 	N 	0.42847 0.73410 0.44260 -0.19000
H 	H 	0.40140 0.76728 0.44431 0.08500
H 	H 	0.46907 0.74206 0.42637 0.08100
C 	C 	0.25625 0.81700 0.69029 -0.04100
C 	C 	0.22405 0.78854 0.63453 -0.03200
C 	C 	0.16747 0.78138 0.65038 0.06300
C 	C 	0.14396 0.80538 0.71795 -0.02800
C 	C 	0.17565 0.83566 0.77227 -0.09400
C 	C 	0.23241 0.84016 0.75848 0.00600
H 	H 	0.29971 0.82282 0.67972 0.04000
H 	H 	0.10035 0.80017 0.72800 0.05000
N 	N 	0.13338 0.74890 0.59951 -0.19000
H 	H 	0.15015 0.72304 0.55672 0.08300
H 	H 	0.09099 0.74708 0.60837 0.08100
C 	C 	0.14257 0.80752 0.25514 -0.02700
C 	C 	0.17422 0.83683 0.19975 -0.10000
C 	C 	0.23118 0.84053 0.21242 0.00700
C 	C 	0.25533 0.81742 0.28039 -0.04300
C 	C 	0.22327 0.78977 0.33714 -0.03200
C 	C 	0.16639 0.78347 0.32249 0.06200
N 	N 	0.13230 0.75163 0.37419 -0.19000
H 	H 	0.09879 0.80295 0.24598 0.04900
H 	H 	0.29900 0.82256 0.28992 0.03900
H 	H 	0.08979 0.75059 0.36635 0.08100
H 	H 	0.14909 0.72530 0.41636 0.08300
C 	C 	0.69996 0.61001 1.19049 -0.04300
C 	C 	0.72543 0.57726 1.13249 -0.03100
C 	C 	0.72927 0.52001 1.14578 0.06400
C 	C 	0.70488 0.49668 1.21322 -0.02800
C 	C 	0.67762 0.52917 1.26977 -0.09200
C 	C 	0.67647 0.58633 1.25838 0.01200
H 	H 	0.69668 0.65396 1.18192 0.04000
H 	H 	0.70746 0.45265 1.22143 0.05300
N 	N 	0.75887 0.48503 1.09260 -0.19000
H 	H 	0.78530 0.50102 1.04994 0.08400
H 	H 	0.75809 0.44244 1.09963 0.08300
C 	C 	0.69332 0.61359 0.78065 -0.04200
C 	C 	0.72270 0.58154 0.83555 -0.03200
C 	C 	0.73113 0.52527 0.81864 0.06300
C 	C 	0.70719 0.50175 0.75110 -0.02700
C 	C 	0.67606 0.53325 0.69769 -0.09600
C 	C 	0.67045 0.58980 0.71230 0.00700
H 	H 	0.68662 0.65683 0.79198 0.04000
H 	H 	0.71327 0.45834 0.74017 0.05000
N 	N 	0.76495 0.49160 0.86825 -0.19000
H 	H 	0.79122 0.50871 0.91023 0.08300
H 	H 	0.76752 0.44930 0.85887 0.08200
C 	C 	0.84342 0.75866 1.04044 0.05900
C 	C 	0.84354 0.71459 0.98529 -0.02800
C 	C 	0.88688 0.71193 0.93011 -0.04400
C 	C 	0.92899 0.75115 0.92972 0.01100
C 	C 	0.93020 0.79325 0.98625 -0.09900
C 	C 	0.88744 0.79625 1.04180 -0.01700
N 	N 	0.79787 0.76794 1.09248 -0.18400
H 	H 	0.96142 0.74781 0.88617 0.03400
C 	C 	0.41804 0.33995 0.26366 -0.02800
C 	C 	0.47557 0.33897 0.27155 -0.09500
C 	C 	0.50650 0.31441 0.21084 0.00700
C 	C 	0.48113 0.29284 0.14352 -0.04200
C 	C 	0.42389 0.29492 0.13407 -0.03200
C 	C 	0.39193 0.31862 0.19547 0.06300
N 	N 	0.33354 0.32407 0.18820 -0.19000
H 	H 	0.39336 0.35907 0.30928 0.04900
H 	H 	0.50658 0.27484 0.09780 0.03800
H 	H 	0.31034 0.34013 0.23469 0.08200
H 	H 	0.31289 0.31468 0.13590 0.08500
C 	C 	0.41938 0.34053 -0.29264 -0.02800
C 	C 	0.47698 0.33993 -0.29971 -0.09900
C 	C 	0.50766 0.31604 -0.23823 0.00000
C 	C 	0.48190 0.29454 -0.17111 -0.04000
C 	C 	0.42453 0.29614 -0.16259 -0.03200
C 	C 	0.39290 0.31939 -0.22467 0.06200
N 	N 	0.33443 0.32461 -0.21834 -0.19000
H 	H 	0.39488 0.35921 -0.33883 0.04600
H 	H 	0.50714 0.27688 -0.12488 0.03800
H 	H 	0.31147 0.34009 -0.26550 0.08000
H 	H 	0.31349 0.31591 -0.16603 0.08400
C 	C 	0.24483 0.17684 -0.03493 -0.04000
C 	C 	0.29974 0.16526 -0.01592 -0.03400
C 	C 	0.31444 0.11049 0.00245 0.06400
C 	C 	0.27412 0.06888 0.00159 -0.02900
C 	C 	0.21895 0.08068 -0.01662 -0.09500
C 	C 	0.20493 0.13530 -0.03477 -0.00000
H 	H 	0.23270 0.21845 -0.04930 0.03700
H 	H 	0.28599 0.02717 0.01575 0.04900
N 	N 	0.37007 0.09616 0.02099 -0.19000
H 	H 	0.40171 0.12502 0.01960 0.08600
H 	H 	0.38043 0.05576 0.03531 0.08200
H 	H 	0.76479 0.32371 0.58470 0.03400
H 	H 	0.99857 0.11336 0.80035 0.03900
H 	H 	0.36895 0.53075 0.52006 0.03800
H 	H 	0.25808 0.86313 0.79895 0.03800
H 	H 	0.25686 0.86275 0.17110 0.03500
H 	H 	0.64675 0.61526 0.67243 0.03700
H 	H 	0.88869 0.67884 0.88744 0.04000
H 	H 	0.55084 0.31257 0.21455 0.03900
H 	H 	0.65589 0.61262 0.30067 0.03300
H 	H 	0.88704 0.82949 0.08438 0.03800
H 	H 	1.00861 1.11590 0.17334 0.03300
H 	H 	0.55204 0.31457 0.75871 0.04500
H 	H 	0.16299 0.14599 0.95064 0.04300
H 	H 	0.75973 0.74963 0.08291 0.07900
H 	H 	0.80027 0.79762 0.13693 0.07600
