data_crystal

_cell_length_a 13.50000
_cell_length_b 14.70200
_cell_length_c 21.24500
_cell_angle_alpha 90.00000
_cell_angle_beta  90.00000
_cell_angle_gamma 90.00000

_symmetry_space_group_name_	'P 1'
_symmetry_space_group_name_H-M	'P 1'

loop_
_symmetry_equiv_pos_as_xyz
  x,y,z

loop_
_atom_site_label
_atom_site_type_symbol
_atom_site_fract_x
_atom_site_fract_y
_atom_site_fract_z
_atom_site_charge
Zn	Zn	0.50187 0.39481 0.56855 1.22400
Zn	Zn	0.49813 0.89481 0.93145 1.22300
Zn	Zn	0.49813 0.60519 0.43145 1.22400
Zn	Zn	0.50187 0.10519 0.06855 1.22400
H 	H 	0.67410 0.47190 0.65110 -0.00400
H 	H 	0.83900 0.50830 0.64410 0.09300
H 	H 	0.85240 0.36720 0.48410 0.09900
H 	H 	0.68760 0.33440 0.49570 0.00300
H 	H 	0.99440 0.51290 0.58540 0.04900
H 	H 	0.30760 0.46300 0.63300 -0.00300
H 	H 	0.14300 0.48260 0.61370 0.09000
H 	H 	0.17470 0.32750 0.46030 0.10500
H 	H 	0.33790 0.30990 0.48620 -0.00600
H 	H 	0.00680 0.37880 0.49100 0.06800
H 	H 	0.51700 0.13840 0.69020 0.09600
H 	H 	0.50560 0.28270 0.77180 0.06200
H 	H 	0.51640 0.09430 0.80150 0.01100
H 	H 	0.50000 0.23770 0.88290 0.15600
H 	H 	0.32590 0.97190 0.84890 -0.00500
H 	H 	0.16100 0.00830 0.85590 0.09100
H 	H 	0.14760 0.86720 0.01590 0.09900
H 	H 	0.31240 0.83440 0.00430 0.00500
H 	H 	0.00560 0.01290 0.91460 0.04400
H 	H 	0.69240 0.96300 0.86700 -0.00300
H 	H 	0.85700 0.98260 0.88630 0.09600
H 	H 	0.82530 0.82750 0.03970 0.10600
H 	H 	0.66210 0.80990 0.01380 -0.00700
H 	H 	0.99320 0.87880 0.00900 0.06800
H 	H 	0.48300 0.63840 0.80980 0.09600
H 	H 	0.49440 0.78270 0.72820 0.06100
H 	H 	0.48360 0.59430 0.69850 0.01000
H 	H 	0.50000 0.73770 0.61710 0.15600
H 	H 	0.32590 0.52810 0.34890 -0.00400
H 	H 	0.16100 0.49170 0.35590 0.09200
H 	H 	0.14760 0.63280 0.51590 0.09300
H 	H 	0.31240 0.66560 0.50430 0.00300
H 	H 	0.00560 0.48710 0.41460 0.04700
H 	H 	0.69240 0.53700 0.36700 -0.00200
H 	H 	0.85700 0.51740 0.38630 0.09600
H 	H 	0.82530 0.67250 0.53970 0.10500
H 	H 	0.66210 0.69010 0.51380 -0.00600
H 	H 	0.99320 0.62120 0.50900 0.07000
H 	H 	0.48300 0.86160 0.30980 0.09600
H 	H 	0.49440 0.71730 0.22820 0.06200
H 	H 	0.48360 0.90570 0.19850 0.01100
H 	H 	0.50000 0.76230 0.11710 0.15600
H 	H 	0.67410 0.02810 0.15110 -0.00300
H 	H 	0.83900 0.99170 0.14410 0.08900
H 	H 	0.85240 0.13280 0.98410 0.10400
H 	H 	0.68760 0.16560 0.99570 0.00600
H 	H 	0.99440 0.98710 0.08540 0.04500
H 	H 	0.30760 0.03700 0.13300 -0.00400
H 	H 	0.14300 0.01740 0.11370 0.09100
H 	H 	0.17470 0.17250 0.96030 0.10600
H 	H 	0.33790 0.19010 0.98620 -0.00700
H 	H 	0.00680 0.12120 0.99100 0.06500
H 	H 	0.51700 0.36160 0.19020 0.09600
H 	H 	0.50560 0.21730 0.27180 0.06200
H 	H 	0.51640 0.40570 0.30150 0.01100
H 	H 	0.50000 0.26230 0.38290 0.15600
C 	C 	0.70980 0.45260 0.61620 0.10600
C 	C 	0.80910 0.47510 0.61210 -0.17300
C 	C 	0.86390 0.44830 0.56030 0.11300
C 	C 	0.81720 0.39180 0.51760 -0.16500
C 	C 	0.71810 0.37210 0.52500 0.08800
C 	C 	0.96340 0.49000 0.54690 -0.05000
C 	C 	0.28080 0.43670 0.59700 0.10100
C 	C 	0.18160 0.44950 0.58550 -0.17800
C 	C 	0.13940 0.41290 0.53180 0.12600
C 	C 	0.20020 0.35760 0.49520 -0.18000
C 	C 	0.29900 0.34770 0.51120 0.10300
C 	C 	0.03840 0.43450 0.50650 -0.08900
C 	C 	0.50760 0.26890 0.64980 0.33100
C 	C 	0.51200 0.19950 0.70120 -0.16800
C 	C 	0.50910 0.22130 0.76130 -0.03800
C 	C 	0.51110 0.15540 0.81210 0.10700
C 	C 	0.50580 0.17660 0.87210 -0.32300
C 	C 	0.50870 0.10860 0.92340 0.52100
C 	C 	0.29020 0.95260 0.88380 0.10500
C 	C 	0.19090 0.97510 0.88790 -0.17300
C 	C 	0.13610 0.94830 0.93970 0.11400
C 	C 	0.18280 0.89180 0.98240 -0.17300
C 	C 	0.28190 0.87210 0.97500 0.08600
C 	C 	0.03660 0.99000 0.95310 -0.06400
C 	C 	0.71920 0.93670 0.90300 0.10200
C 	C 	0.81840 0.94950 0.91450 -0.17800
C 	C 	0.86060 0.91290 0.96820 0.12800
C 	C 	0.79980 0.85760 0.00480 -0.18200
C 	C 	0.70100 0.84770 0.98880 0.10500
C 	C 	0.96160 0.93450 0.99350 -0.07300
C 	C 	0.49240 0.76890 0.85020 0.33100
C 	C 	0.48800 0.69950 0.79880 -0.16800
C 	C 	0.49090 0.72130 0.73870 -0.03900
C 	C 	0.48890 0.65540 0.68790 0.10700
C 	C 	0.49420 0.67660 0.62790 -0.32400
C 	C 	0.49130 0.60860 0.57660 0.52100
C 	C 	0.29020 0.54740 0.38380 0.10600
C 	C 	0.19090 0.52490 0.38790 -0.17400
C 	C 	0.13610 0.55170 0.43970 0.11200
C 	C 	0.18280 0.60820 0.48240 -0.16700
C 	C 	0.28190 0.62790 0.47500 0.08700
C 	C 	0.03660 0.51000 0.45310 -0.06600
C 	C 	0.71920 0.56330 0.40300 0.10100
C 	C 	0.81840 0.55050 0.41450 -0.17600
C 	C 	0.86060 0.58710 0.46820 0.12500
C 	C 	0.79980 0.64240 0.50480 -0.17900
C 	C 	0.70100 0.65230 0.48880 0.10300
C 	C 	0.96160 0.56550 0.49350 -0.07300
C 	C 	0.49240 0.73110 0.35020 0.33100
C 	C 	0.48800 0.80050 0.29880 -0.16800
C 	C 	0.49090 0.77870 0.23870 -0.03900
C 	C 	0.48890 0.84460 0.18790 0.10700
C 	C 	0.49420 0.82340 0.12790 -0.32400
C 	C 	0.49130 0.89140 0.07660 0.52100
C 	C 	0.70980 0.04740 0.11620 0.10400
C 	C 	0.80910 0.02490 0.11210 -0.16700
C 	C 	0.86390 0.05170 0.06030 0.11100
C 	C 	0.81720 0.10820 0.01760 -0.17000
C 	C 	0.71810 0.12790 0.02500 0.08600
C 	C 	0.96340 0.01000 0.04690 -0.04600
C 	C 	0.28080 0.06330 0.09700 0.10200
C 	C 	0.18160 0.05050 0.08550 -0.18000
C 	C 	0.13940 0.08710 0.03180 0.12900
C 	C 	0.20020 0.14240 0.99520 -0.18300
C 	C 	0.29900 0.15230 0.01120 0.10600
C 	C 	0.03840 0.06550 0.00650 -0.08800
C 	C 	0.50760 0.23110 0.14980 0.33100
C 	C 	0.51200 0.30050 0.20120 -0.16800
C 	C 	0.50910 0.27870 0.26130 -0.03800
C 	C 	0.51110 0.34460 0.31210 0.10700
C 	C 	0.50580 0.32340 0.37210 -0.32400
C 	C 	0.50870 0.39140 0.42340 0.52200
N 	N 	0.66360 0.40500 0.57280 -0.23600
N 	N 	0.34180 0.38840 0.55960 -0.24100
N 	N 	0.33640 0.90500 0.92720 -0.23600
N 	N 	0.65820 0.88840 0.94040 -0.24200
N 	N 	0.33640 0.59500 0.42720 -0.23600
N 	N 	0.65820 0.61160 0.44040 -0.24100
N 	N 	0.66360 0.09500 0.07280 -0.23500
N 	N 	0.34180 0.11160 0.05960 -0.24200
O 	O 	0.49890 0.35200 0.66364 -0.39600
O 	O 	0.51110 0.24200 0.59430 -0.37500
O 	O 	0.51330 0.14210 0.97744 -0.50600
O 	O 	0.50790 0.02770 0.90880 -0.51300
O 	O 	0.50110 0.85200 0.83636 -0.39700
O 	O 	0.48890 0.74200 0.90570 -0.37600
O 	O 	0.48670 0.64210 0.52256 -0.50700
O 	O 	0.49210 0.52770 0.59120 -0.51500
O 	O 	0.50110 0.64800 0.33636 -0.39600
O 	O 	0.48890 0.75800 0.40570 -0.37500
O 	O 	0.48670 0.85790 0.02256 -0.50600
O 	O 	0.49210 0.97230 0.09120 -0.51400
O 	O 	0.49890 0.14800 0.16364 -0.39700
O 	O 	0.51110 0.25800 0.09430 -0.37500
O 	O 	0.51330 0.35790 0.47744 -0.50700
O 	O 	0.50790 0.47230 0.40880 -0.51400
Zn	Zn	0.99813 0.60519 0.06855 1.22700
Zn	Zn	0.00187 0.10519 0.43145 1.22000
Zn	Zn	0.00187 0.39481 0.93145 1.21900
Zn	Zn	0.99813 0.89481 0.56855 1.22800
H 	H 	0.82590 0.52810 0.15110 -0.00100
H 	H 	0.66100 0.49170 0.14410 0.09200
H 	H 	0.64760 0.63280 0.98410 0.09500
H 	H 	0.81240 0.66560 0.99570 0.00500
H 	H 	0.50560 0.48710 0.08540 0.04700
H 	H 	0.19240 0.53700 0.13300 -0.00400
H 	H 	0.35700 0.51740 0.11370 0.09500
H 	H 	0.32530 0.67250 0.96030 0.10900
H 	H 	0.16210 0.69010 0.98620 -0.01600
H 	H 	0.49320 0.62120 0.99100 0.06900
H 	H 	0.98300 0.86160 0.19020 0.10100
H 	H 	0.99440 0.71730 0.27180 0.06000
H 	H 	0.98360 0.90570 0.30150 0.01800
H 	H 	0.00000 0.76230 0.38290 0.13900
H 	H 	0.17410 0.02810 0.34890 -0.00800
H 	H 	0.33900 0.99170 0.35590 0.09400
H 	H 	0.35240 0.13280 0.51590 0.09600
H 	H 	0.18760 0.16560 0.50430 0.00200
H 	H 	0.49440 0.98710 0.41460 0.04800
H 	H 	0.80760 0.03700 0.36700 -0.00100
H 	H 	0.64300 0.01740 0.38630 0.09300
H 	H 	0.67470 0.17250 0.53970 0.10500
H 	H 	0.83790 0.19010 0.51380 -0.00200
H 	H 	0.50680 0.12120 0.50900 0.06800
H 	H 	0.01700 0.36160 0.30980 0.09200
H 	H 	0.00560 0.21730 0.22820 0.06000
H 	H 	0.01640 0.40570 0.19850 0.00900
H 	H 	-0.00000 0.26230 0.11710 0.15500
H 	H 	0.17410 0.47190 0.84890 -0.00800
H 	H 	0.33900 0.50830 0.85590 0.09100
H 	H 	0.35240 0.36720 0.01590 0.09600
H 	H 	0.18760 0.33440 0.00430 0.00500
H 	H 	0.49440 0.51290 0.91460 0.04700
H 	H 	0.80760 0.46300 0.86700 -0.00300
H 	H 	0.64300 0.48260 0.88630 0.09500
H 	H 	0.67470 0.32750 0.03970 0.11000
H 	H 	0.83790 0.30990 0.01380 -0.01000
H 	H 	0.50680 0.37880 0.00900 0.06900
H 	H 	0.01700 0.13840 0.80980 0.09100
H 	H 	0.00560 0.28270 0.72820 0.06100
H 	H 	0.01640 0.09430 0.69850 0.00700
H 	H 	-0.00000 0.23770 0.61710 0.15500
H 	H 	0.82590 0.97190 0.65110 -0.00300
H 	H 	0.66100 0.00830 0.64410 0.09700
H 	H 	0.64760 0.86720 0.48410 0.09600
H 	H 	0.81240 0.83440 0.49570 0.00200
H 	H 	0.50560 0.01290 0.58540 0.05000
H 	H 	0.19240 0.96300 0.63300 -0.00300
H 	H 	0.35700 0.98260 0.61370 0.09200
H 	H 	0.32530 0.82750 0.46030 0.10500
H 	H 	0.16210 0.80990 0.48620 -0.00800
H 	H 	0.49320 0.87880 0.49100 0.06800
H 	H 	0.98300 0.63840 0.69020 0.10300
H 	H 	0.99440 0.78270 0.77180 0.05800
H 	H 	0.98360 0.59430 0.80150 0.02200
H 	H 	-0.00000 0.73770 0.88290 0.13000
C 	C 	0.79020 0.54740 0.11620 0.10500
C 	C 	0.69090 0.52490 0.11210 -0.17200
C 	C 	0.63610 0.55170 0.06030 0.11000
C 	C 	0.68280 0.60820 0.01760 -0.16500
C 	C 	0.78190 0.62790 0.02500 0.08400
C 	C 	0.53660 0.51000 0.04690 -0.05700
C 	C 	0.21920 0.56330 0.09700 0.10500
C 	C 	0.31840 0.55050 0.08550 -0.18300
C 	C 	0.36060 0.58710 0.03180 0.13400
C 	C 	0.29980 0.64240 0.99520 -0.19300
C 	C 	0.20100 0.65230 0.01120 0.11700
C 	C 	0.46160 0.56550 0.00650 -0.08300
C 	C 	0.99240 0.73110 0.14980 0.34500
C 	C 	0.98800 0.80050 0.20120 -0.17900
C 	C 	0.99090 0.77870 0.26130 -0.02200
C 	C 	0.98890 0.84460 0.31210 0.08700
C 	C 	0.99420 0.82340 0.37210 -0.29400
C 	C 	0.99130 0.89140 0.42340 0.51100
C 	C 	0.20980 0.04740 0.38380 0.10800
C 	C 	0.30910 0.02490 0.38790 -0.17800
C 	C 	0.36390 0.05170 0.43970 0.11400
C 	C 	0.31720 0.10820 0.48240 -0.16800
C 	C 	0.21810 0.12790 0.47500 0.08800
C 	C 	0.46340 0.01000 0.45310 -0.06000
C 	C 	0.78080 0.06330 0.40300 0.10100
C 	C 	0.68160 0.05050 0.41450 -0.17500
C 	C 	0.63940 0.08710 0.46820 0.12500
C 	C 	0.70020 0.14240 0.50480 -0.17700
C 	C 	0.79900 0.15230 0.48880 0.10300
C 	C 	0.53840 0.06550 0.49350 -0.07700
C 	C 	0.00760 0.23110 0.35020 0.31200
C 	C 	0.01200 0.30050 0.29880 -0.16100
C 	C 	0.00910 0.27870 0.23870 -0.04600
C 	C 	0.01110 0.34460 0.18790 0.10900
C 	C 	0.00580 0.32340 0.12790 -0.32800
C 	C 	0.00870 0.39140 0.07660 0.52200
C 	C 	0.20980 0.45260 0.88380 0.10500
C 	C 	0.30910 0.47510 0.88790 -0.17400
C 	C 	0.36390 0.44830 0.93970 0.11100
C 	C 	0.31720 0.39180 0.98240 -0.16600
C 	C 	0.21810 0.37210 0.97500 0.08400
C 	C 	0.46340 0.49000 0.95310 -0.05700
C 	C 	0.78080 0.43670 0.90300 0.10500
C 	C 	0.68160 0.44950 0.91450 -0.18200
C 	C 	0.63940 0.41290 0.96820 0.13300
C 	C 	0.70020 0.35760 0.00480 -0.19200
C 	C 	0.79900 0.34770 0.98880 0.11700
C 	C 	0.53840 0.43450 0.99350 -0.08300
C 	C 	0.00760 0.26890 0.85020 0.30900
C 	C 	0.01200 0.19950 0.79880 -0.16000
C 	C 	0.00910 0.22130 0.73870 -0.04800
C 	C 	0.01110 0.15540 0.68790 0.11000
C 	C 	0.00580 0.17660 0.62790 -0.32900
C 	C 	0.00870 0.10860 0.57660 0.52200
C 	C 	0.79020 0.95260 0.61620 0.11000
C 	C 	0.69090 0.97510 0.61210 -0.18100
C 	C 	0.63610 0.94830 0.56030 0.11600
C 	C 	0.68280 0.89180 0.51760 -0.16900
C 	C 	0.78190 0.87210 0.52500 0.08900
C 	C 	0.53660 0.99000 0.54690 -0.06400
C 	C 	0.21920 0.93670 0.59700 0.10100
C 	C 	0.31840 0.94950 0.58550 -0.17600
C 	C 	0.36060 0.91290 0.53180 0.12500
C 	C 	0.29980 0.85760 0.49520 -0.17900
C 	C 	0.20100 0.84770 0.51120 0.10200
C 	C 	0.46160 0.93450 0.50650 -0.07800
C 	C 	0.99240 0.76890 0.64980 0.35000
C 	C 	0.98800 0.69950 0.70120 -0.18400
C 	C 	0.99090 0.72130 0.76130 -0.01400
C 	C 	0.98890 0.65540 0.81210 0.07700
C 	C 	0.99420 0.67660 0.87210 -0.27900
C 	C 	0.99130 0.60860 0.92340 0.50600
N 	N 	0.83640 0.59500 0.07280 -0.23400
N 	N 	0.15820 0.61160 0.05960 -0.24600
N 	N 	0.16360 0.09500 0.42720 -0.23800
N 	N 	0.84180 0.11160 0.44040 -0.23800
N 	N 	0.16360 0.40500 0.92720 -0.23700
N 	N 	0.84180 0.38840 0.94040 -0.24100
N 	N 	0.83640 0.90500 0.57280 -0.23600
N 	N 	0.15820 0.88840 0.55960 -0.24300
O 	O 	0.00110 0.64800 0.16364 -0.40700
O 	O 	0.98890 0.75800 0.09430 -0.37700
O 	O 	0.98670 0.85790 0.47744 -0.50000
O 	O 	0.99210 0.97230 0.40880 -0.50900
O 	O 	0.99890 0.14800 0.33636 -0.37800
O 	O 	0.01110 0.25800 0.40570 -0.37400
O 	O 	0.01330 0.35790 0.02256 -0.50900
O 	O 	0.00790 0.47230 0.09120 -0.51800
O 	O 	0.99890 0.35200 0.83636 -0.37600
O 	O 	0.01110 0.24200 0.90570 -0.37400
O 	O 	0.01330 0.14210 0.52256 -0.51200
O 	O 	0.00790 0.02770 0.59120 -0.52100
O 	O 	0.00110 0.85200 0.66364 -0.41000
O 	O 	0.98890 0.74200 0.59430 -0.37700
O 	O 	0.98670 0.64210 0.97744 -0.49600
O 	O 	0.99210 0.52770 0.90880 -0.50400
