data_crystal

_cell_length_a 13.08840
_cell_length_b 26.61860
_cell_length_c 26.61860
_cell_angle_alpha 65.27790
_cell_angle_beta  75.76790
_cell_angle_gamma 75.76800

_symmetry_space_group_name_	'P 1'
_symmetry_space_group_name_H-M	'P 1'

loop_
_symmetry_equiv_pos_as_xyz
  x,y,z

loop_
_atom_site_label
_atom_site_type_symbol
_atom_site_fract_x
_atom_site_fract_y
_atom_site_fract_z
_atom_site_charge
Zn	Zn	0.15882 0.48896 0.36284 1.22400
Zn	Zn	0.97858 0.57644 0.28738 1.18800
Zn	Zn	0.98938 0.86284 0.98896 1.21000
Zn	Zn	0.15760 0.78738 0.07644 1.18900
Zn	Zn	0.34118 0.63716 0.51104 1.22300
Zn	Zn	0.52142 0.71262 0.42356 1.18800
Zn	Zn	0.51062 0.01104 0.13716 1.21100
Zn	Zn	0.34240 0.92356 0.21262 1.18900
H 	H 	0.02680 0.27170 0.36690 0.08100
H 	H 	0.07190 0.35110 0.36770 0.01400
H 	H 	0.85280 0.44810 0.26770 0.01300
H 	H 	0.79890 0.36660 0.27820 0.08300
H 	H 	0.01050 0.20990 0.32810 0.03400
H 	H 	0.71720 0.29450 0.33550 0.04800
H 	H 	0.95180 0.13010 0.33850 0.05600
H 	H 	0.54220 0.31770 0.29150 0.05200
H 	H 	0.41380 0.38660 0.31460 0.03200
H 	H 	0.35460 0.27560 0.47440 0.03400
H 	H 	0.48290 0.20680 0.45140 0.06000
H 	H 	0.49670 0.16140 0.37600 0.09000
H 	H 	0.80590 0.94080 0.11380 0.05100
H 	H 	0.77080 0.98360 0.17940 0.07400
H 	H 	0.07630 0.92980 0.20620 0.02600
H 	H 	0.11610 0.88900 0.14120 0.00700
H 	H 	0.78940 0.05360 0.20480 0.08300
H 	H 	0.75930 0.09510 0.26830 0.01700
H 	H 	0.99080 0.92520 0.29400 0.07400
H 	H 	0.96750 0.95800 0.45440 0.06900
H 	H 	0.16740 0.93630 0.32610 0.08400
H 	H 	0.96860 0.85410 0.46110 0.09900
H 	H 	0.29840 0.85770 0.34790 -0.00900
H 	H 	0.09680 0.77740 0.47940 0.00700
H 	H 	0.48450 0.02860 0.38940 -0.06400
H 	H 	0.45260 0.09040 0.39040 -0.06400
H 	H 	0.41520 0.09170 0.30750 0.19800
H 	H 	0.50560 0.12920 0.29200 0.20600
H 	H 	0.53760 0.06760 0.29100 0.20600
H 	H 	0.88060 0.98220 0.51800 -0.08000
H 	H 	0.83230 0.03600 0.53480 -0.12100
H 	H 	0.01190 0.01760 0.52560 0.28700
H 	H 	0.01860 0.02480 0.46220 0.29700
H 	H 	0.97120 0.07730 0.48030 0.30400
H 	H 	0.33460 0.86690 0.77170 0.07600
H 	H 	0.20930 0.86770 0.85110 0.02500
H 	H 	0.43140 0.76770 0.94810 0.00800
H 	H 	0.55630 0.77820 0.86660 0.07700
H 	H 	0.45150 0.82810 0.70990 0.03700
H 	H 	0.65280 0.83550 0.79450 0.05100
H 	H 	0.57960 0.83850 0.63010 0.05800
H 	H 	0.84860 0.79150 0.81770 0.05500
H 	H 	0.88500 0.81460 0.88660 0.02700
H 	H 	0.89540 0.97440 0.77560 0.03900
H 	H 	0.85890 0.95140 0.70680 0.06900
H 	H 	0.96590 0.87600 0.66140 0.08900
H 	H 	0.13950 0.61380 0.44080 0.04300
H 	H 	0.06620 0.67940 0.48360 0.07300
H 	H 	0.78770 0.70620 0.42980 0.03200
H 	H 	0.85370 0.64120 0.38900 0.00100
H 	H 	0.95220 0.70480 0.55360 0.05100
H 	H 	0.87730 0.76830 0.59510 0.04800
H 	H 	0.79000 0.79400 0.42520 0.04900
H 	H 	0.62010 0.95440 0.45800 0.10600
H 	H 	0.57020 0.82610 0.43630 0.06900
H 	H 	0.71620 0.96110 0.35410 0.10300
H 	H 	0.49600 0.84790 0.35770 -0.00100
H 	H 	0.64640 0.97940 0.27740 0.02200
H 	H 	0.09750 0.88940 0.52860 -0.04700
H 	H 	0.06660 0.89040 0.59040 -0.05700
H 	H 	0.18560 0.80750 0.59170 0.20600
H 	H 	0.07320 0.79200 0.62920 0.21000
H 	H 	0.10380 0.79100 0.56760 0.21700
H 	H 	0.61920 0.01800 0.48220 -0.01900
H 	H 	0.59690 0.03480 0.53600 -0.02500
H 	H 	0.44490 0.02560 0.51760 0.12900
H 	H 	0.49440 0.96220 0.52480 0.16900
H 	H 	0.47120 0.98030 0.57730 0.17300
H 	H 	0.47320 0.63310 0.72830 0.07400
H 	H 	0.42810 0.63230 0.64890 0.01900
H 	H 	0.64720 0.73230 0.55190 0.01700
H 	H 	0.70110 0.72180 0.63340 0.08000
H 	H 	0.48950 0.67190 0.79010 0.03200
H 	H 	0.78280 0.66450 0.70550 0.04900
H 	H 	0.54820 0.66150 0.86990 0.05700
H 	H 	0.95780 0.70850 0.68230 0.05300
H 	H 	0.08620 0.68540 0.61340 0.03100
H 	H 	0.14540 0.52560 0.72440 0.03500
H 	H 	0.01710 0.54860 0.79320 0.06000
H 	H 	0.00330 0.62400 0.83860 0.09600
H 	H 	0.69410 0.88620 0.05920 0.05100
H 	H 	0.72920 0.82060 0.01640 0.07400
H 	H 	0.42370 0.79380 0.07020 0.02600
H 	H 	0.38390 0.85880 0.11100 0.00700
H 	H 	0.71060 0.79520 0.94640 0.08400
H 	H 	0.74070 0.73170 0.90490 0.01700
H 	H 	0.50920 0.70600 0.07480 0.07600
H 	H 	0.53250 0.54560 0.04200 0.06900
H 	H 	0.33260 0.67390 0.06370 0.08400
H 	H 	0.53140 0.53890 0.14590 0.10500
H 	H 	0.20160 0.65210 0.14230 -0.01000
H 	H 	0.40320 0.52060 0.22260 0.00400
H 	H 	0.01550 0.61060 0.97140 -0.04200
H 	H 	0.04740 0.60960 0.90960 -0.04400
H 	H 	0.08480 0.69250 0.90830 0.17400
H 	H 	0.99440 0.70800 0.87080 0.17800
H 	H 	0.96240 0.70900 0.93240 0.17900
H 	H 	0.61940 0.48200 0.01780 -0.07300
H 	H 	0.66770 0.46520 0.96400 -0.11400
H 	H 	0.48810 0.47440 0.98240 0.27700
H 	H 	0.48140 0.53780 0.97520 0.28700
H 	H 	0.52880 0.51970 0.92270 0.29600
H 	H 	0.16540 0.22830 0.13310 0.07600
H 	H 	0.29070 0.14890 0.13230 0.02400
H 	H 	0.06860 0.05190 0.23230 0.00900
H 	H 	0.94370 0.13340 0.22180 0.07600
H 	H 	0.04850 0.29010 0.17190 0.04000
H 	H 	0.84720 0.20550 0.16450 0.05100
H 	H 	0.92040 0.36990 0.16150 0.05700
H 	H 	0.65140 0.18230 0.20850 0.05500
H 	H 	0.61500 0.11340 0.18540 0.02600
H 	H 	0.60460 0.22440 0.02560 0.03900
H 	H 	0.64110 0.29320 0.04860 0.06900
H 	H 	0.53410 0.33860 0.12400 0.09000
H 	H 	0.36050 0.55920 0.38620 0.04000
H 	H 	0.43380 0.51640 0.32060 0.07600
H 	H 	0.71230 0.57020 0.29380 0.03500
H 	H 	0.64630 0.61100 0.35880 -0.00200
H 	H 	0.54780 0.44640 0.29520 0.05200
H 	H 	0.62270 0.40490 0.23170 0.04900
H 	H 	0.71000 0.57480 0.20600 0.04800
H 	H 	0.87990 0.54200 0.04560 0.10500
H 	H 	0.92980 0.56370 0.17390 0.06600
H 	H 	0.78380 0.64590 0.03890 0.10100
H 	H 	0.00400 0.64230 0.15210 0.00500
H 	H 	0.85360 0.72260 0.02060 0.02500
H 	H 	0.40250 0.47140 0.11060 -0.04600
H 	H 	0.43340 0.40960 0.10960 -0.05600
H 	H 	0.31440 0.40830 0.19250 0.20400
H 	H 	0.42680 0.37080 0.20800 0.20600
H 	H 	0.39620 0.43240 0.20900 0.21400
H 	H 	0.88080 0.51780 0.98200 -0.02000
H 	H 	0.90310 0.46400 0.96520 -0.02600
H 	H 	0.05510 0.48240 0.97440 0.13200
H 	H 	0.00560 0.47520 0.03780 0.17000
H 	H 	0.02880 0.42270 0.01970 0.17500
C 	C 	0.90743 0.31107 0.32387 0.09700
C 	C 	0.98810 0.30760 0.34840 -0.16200
C 	C 	0.01750 0.35520 0.34760 0.09300
C 	C 	0.96708 0.40792 0.31812 -0.18200
C 	C 	0.88675 0.41245 0.29005 0.08800
C 	C 	0.85711 0.36349 0.29529 -0.15300
C 	C 	0.86961 0.26029 0.32989 -0.02200
C 	C 	0.93597 0.21093 0.33193 -0.02800
C 	C 	0.76487 0.26083 0.33703 -0.04700
C 	C 	0.72173 0.21237 0.34697 -0.02500
C 	C 	0.90192 0.16248 0.33928 -0.07800
C 	C 	0.79096 0.16264 0.34804 0.05600
C 	C 	0.60362 0.20788 0.36108 0.04300
C 	C 	0.52456 0.25574 0.36934 0.02800
C 	C 	0.50409 0.30921 0.32861 -0.09200
C 	C 	0.42790 0.35010 0.34230 0.00800
C 	C 	0.37218 0.33762 0.39662 -0.08100
C 	C 	0.39265 0.28415 0.43735 0.01400
C 	C 	0.46880 0.24330 0.42370 -0.09100
C 	C 	0.57120 0.16230 0.36830 -0.17800
C 	C 	0.64616 0.11294 0.36494 0.19500
C 	C 	0.75321 0.11299 0.35699 -0.07800
C 	C 	0.86083 0.93897 0.13237 0.01000
C 	C 	0.96346 0.91114 0.12154 -0.09400
C 	C 	0.84033 0.96427 0.17147 -0.07200
C 	C 	0.92028 0.96132 0.19872 0.00200
C 	C 	0.02197 0.93233 0.18693 -0.06600
C 	C 	0.04595 0.90785 0.14905 0.00600
C 	C 	0.89847 0.98593 0.24293 0.11500
C 	C 	0.82530 0.03630 0.23630 -0.18000
C 	C 	0.80543 0.06017 0.27477 0.03700
C 	C 	0.94500 0.96010 0.28890 -0.15500
C 	C 	0.92751 0.98369 0.33089 0.10000
C 	C 	0.85070 0.03480 0.32320 -0.08400
C 	C 	0.82484 0.05766 0.36506 0.02100
C 	C 	0.87373 0.02847 0.41347 0.09300
C 	C 	0.94122 0.97838 0.41998 -0.06800
C 	C 	0.97211 0.95679 0.37959 -0.05600
C 	C 	0.05329 0.90471 0.39011 0.11800
C 	C 	0.15179 0.90381 0.35821 -0.18600
C 	C 	0.03568 0.85542 0.43702 -0.16800
C 	C 	0.23056 0.85654 0.37134 0.10000
C 	C 	0.11166 0.81054 0.44814 0.09700
C 	C 	0.21413 0.81087 0.41467 -0.17900
C 	C 	0.50230 0.06700 0.37100 0.29000
C 	C 	0.48900 0.09100 0.31000 -0.61900
C 	C 	0.87739 0.02321 0.50521 0.51600
C 	C 	0.97670 0.03660 0.49240 -0.96000
C 	C 	0.30042 0.75948 0.43088 0.42100
C 	C 	0.98930 0.88630 0.07550 0.34000
C 	C 	0.00113 0.45857 0.31597 0.46000
C 	C 	0.30070 0.39000 0.40780 0.33900
C 	C 	0.45763 0.82387 0.81107 0.08200
C 	C 	0.35590 0.84840 0.80760 -0.13700
C 	C 	0.27970 0.84760 0.85520 0.06500
C 	C 	0.30688 0.81812 0.90792 -0.15400
C 	C 	0.41075 0.79005 0.91245 0.06600
C 	C 	0.48411 0.79529 0.86349 -0.13900
C 	C 	0.54021 0.82989 0.76029 -0.01100
C 	C 	0.52117 0.83193 0.71093 -0.03000
C 	C 	0.63727 0.83703 0.76083 -0.05300
C 	C 	0.71893 0.84697 0.71237 -0.01600
C 	C 	0.59632 0.83928 0.66248 -0.07000
C 	C 	0.69836 0.84804 0.66264 0.04600
C 	C 	0.82742 0.86108 0.70788 0.03800
C 	C 	0.85036 0.86934 0.75574 0.03400
C 	C 	0.85809 0.82861 0.80921 -0.09700
C 	C 	0.87970 0.84230 0.85010 0.01300
C 	C 	0.89358 0.89662 0.83762 -0.08600
C 	C 	0.88585 0.93735 0.78415 0.01900
C 	C 	0.86420 0.92370 0.74330 -0.09400
C 	C 	0.89820 0.86830 0.66230 -0.17000
C 	C 	0.87596 0.86494 0.61294 0.18600
C 	C 	0.77681 0.85699 0.61299 -0.05800
C 	C 	0.06783 0.63237 0.43897 0.01800
C 	C 	0.00386 0.62154 0.41114 -0.10000
C 	C 	0.02393 0.67147 0.46427 -0.09300
C 	C 	0.91968 0.69872 0.46132 0.03500
C 	C 	0.85877 0.68693 0.43233 -0.09400
C 	C 	0.89715 0.64905 0.40785 0.01000
C 	C 	0.87267 0.74293 0.48593 0.01500
C 	C 	0.90210 0.73630 0.53630 -0.06000
C 	C 	0.85963 0.77477 0.56017 -0.05300
C 	C 	0.80600 0.78890 0.46010 -0.07800
C 	C 	0.75791 0.83089 0.48369 -0.00300
C 	C 	0.79130 0.82320 0.53480 0.01900
C 	C 	0.75244 0.86506 0.55766 -0.02500
C 	C 	0.68433 0.91347 0.52847 0.16100
C 	C 	0.66042 0.91998 0.47838 -0.15900
C 	C 	0.69151 0.87959 0.45679 0.01600
C 	C 	0.65189 0.89011 0.40471 0.07900
C 	C 	0.58619 0.85821 0.40381 -0.15500
C 	C 	0.67188 0.93702 0.35542 -0.14600
C 	C 	0.54156 0.87134 0.35654 0.07700
C 	C 	0.62966 0.94814 0.31054 0.08100
C 	C 	0.56033 0.91467 0.31087 -0.15900
C 	C 	0.05970 0.87100 0.56700 0.29000
C 	C 	0.11000 0.81000 0.59100 -0.62600
C 	C 	0.59419 0.00521 0.52321 0.19500
C 	C 	0.49430 0.99240 0.53660 -0.45000
C 	C 	0.50922 0.93088 0.25948 0.41400
C 	C 	0.04890 0.57550 0.38630 0.34800
C 	C 	0.22433 0.81597 0.95857 0.40000
C 	C 	0.90150 0.90780 0.89000 0.34200
C 	C 	0.59257 0.67613 0.68893 0.08700
C 	C 	0.51190 0.65160 0.69240 -0.14400
C 	C 	0.48250 0.65240 0.64480 0.07500
C 	C 	0.53292 0.68188 0.59208 -0.16800
C 	C 	0.61325 0.70995 0.58755 0.07800
C 	C 	0.64289 0.70471 0.63651 -0.14400
C 	C 	0.63039 0.67011 0.73971 -0.01900
C 	C 	0.56403 0.66807 0.78907 -0.02600
C 	C 	0.73513 0.66297 0.73917 -0.04800
C 	C 	0.77827 0.65303 0.78763 -0.02600
C 	C 	0.59808 0.66072 0.83752 -0.07900
C 	C 	0.70904 0.65196 0.83736 0.05700
C 	C 	0.89638 0.63892 0.79212 0.04600
C 	C 	0.97544 0.63066 0.74426 0.02200
C 	C 	0.99591 0.67139 0.69079 -0.09600
C 	C 	0.07210 0.65770 0.64990 0.01400
C 	C 	0.12782 0.60338 0.66238 -0.08200
C 	C 	0.10735 0.56265 0.71585 0.01300
C 	C 	0.03120 0.57630 0.75670 -0.08500
C 	C 	0.92880 0.63170 0.83770 -0.18700
C 	C 	0.85384 0.63506 0.88706 0.19400
C 	C 	0.74679 0.64301 0.88701 -0.07800
C 	C 	0.63917 0.86763 0.06103 0.00900
C 	C 	0.53654 0.87846 0.08886 -0.09000
C 	C 	0.65967 0.82853 0.03573 -0.07200
C 	C 	0.57972 0.80128 0.03868 0.00500
C 	C 	0.47803 0.81307 0.06767 -0.06900
C 	C 	0.45405 0.85095 0.09215 0.00300
C 	C 	0.60153 0.75707 0.01407 0.11700
C 	C 	0.67470 0.76370 0.96370 -0.18300
C 	C 	0.69457 0.72523 0.93983 0.03900
C 	C 	0.55500 0.71110 0.03990 -0.15600
C 	C 	0.57249 0.66911 0.01631 0.10300
C 	C 	0.64930 0.67680 0.96520 -0.08700
C 	C 	0.67516 0.63494 0.94234 0.02300
C 	C 	0.62627 0.58653 0.97153 0.09000
C 	C 	0.55878 0.58002 0.02162 -0.06500
C 	C 	0.52789 0.62041 0.04321 -0.05500
C 	C 	0.44671 0.60989 0.09529 0.11800
C 	C 	0.34821 0.64179 0.09619 -0.18700
C 	C 	0.46432 0.56298 0.14458 -0.17800
C 	C 	0.26944 0.62866 0.14346 0.10200
C 	C 	0.38834 0.55186 0.18946 0.10300
C 	C 	0.28587 0.58533 0.18913 -0.18200
C 	C 	0.99770 0.62900 0.93300 0.22900
C 	C 	0.01100 0.69000 0.90900 -0.53300
C 	C 	0.62261 0.49479 0.97679 0.49400
C 	C 	0.52330 0.50760 0.96340 -0.92900
C 	C 	0.19958 0.56912 0.24052 0.42200
C 	C 	0.51070 0.92450 0.11370 0.34300
C 	C 	0.49887 0.68403 0.54143 0.45000
C 	C 	0.19930 0.59220 0.61000 0.34000
C 	C 	0.04237 0.18893 0.17613 0.08100
C 	C 	0.14410 0.19240 0.15160 -0.13600
C 	C 	0.22030 0.14480 0.15240 0.06400
C 	C 	0.19312 0.09208 0.18188 -0.15400
C 	C 	0.08925 0.08755 0.20995 0.06400
C 	C 	0.01589 0.13651 0.20471 -0.13600
C 	C 	0.95979 0.23971 0.17011 -0.01100
C 	C 	0.97883 0.28907 0.16807 -0.03500
C 	C 	0.86273 0.23917 0.16297 -0.05400
C 	C 	0.78107 0.28763 0.15303 -0.01500
C 	C 	0.90368 0.33752 0.16072 -0.06700
C 	C 	0.80164 0.33736 0.15196 0.04500
C 	C 	0.67258 0.29212 0.13892 0.03700
C 	C 	0.64964 0.24426 0.13066 0.03400
C 	C 	0.64191 0.19079 0.17139 -0.09700
C 	C 	0.62030 0.14990 0.15770 0.01300
C 	C 	0.60642 0.16238 0.10338 -0.08500
C 	C 	0.61415 0.21585 0.06265 0.01900
C 	C 	0.63580 0.25670 0.07630 -0.09400
C 	C 	0.60180 0.33770 0.13170 -0.16900
C 	C 	0.62404 0.38706 0.13506 0.18500
C 	C 	0.72319 0.38701 0.14301 -0.05700
C 	C 	0.43217 0.56103 0.36763 0.02500
C 	C 	0.49614 0.58886 0.37846 -0.10800
C 	C 	0.47607 0.53573 0.32853 -0.10400
C 	C 	0.58032 0.53868 0.30128 0.04400
C 	C 	0.64123 0.56767 0.31307 -0.10200
C 	C 	0.60285 0.59215 0.35095 0.02100
C 	C 	0.62733 0.51407 0.25707 0.01100
C 	C 	0.59790 0.46370 0.26370 -0.05700
C 	C 	0.64037 0.43983 0.22523 -0.05500
C 	C 	0.69400 0.53990 0.21110 -0.07400
C 	C 	0.74209 0.51631 0.16911 -0.00500
C 	C 	0.70870 0.46520 0.17680 0.02100
C 	C 	0.74756 0.44234 0.13494 -0.02700
C 	C 	0.81567 0.47153 0.08653 0.16100
C 	C 	0.83958 0.52162 0.08002 -0.16100
C 	C 	0.80849 0.54321 0.12041 0.01900
C 	C 	0.84811 0.59529 0.10989 0.07300
C 	C 	0.91381 0.59619 0.14179 -0.14700
C 	C 	0.82812 0.64458 0.06298 -0.14000
C 	C 	0.95844 0.64346 0.12866 0.06300
C 	C 	0.87034 0.68946 0.05186 0.07500
C 	C 	0.93967 0.68913 0.08533 -0.15200
C 	C 	0.44030 0.43300 0.12900 0.28300
C 	C 	0.39000 0.40900 0.19000 -0.61900
C 	C 	0.90581 0.47679 0.99479 0.19500
C 	C 	0.00570 0.46340 0.00760 -0.45400
C 	C 	0.99078 0.74052 0.06912 0.40700
C 	C 	0.45110 0.61370 0.42450 0.34700
C 	C 	0.27567 0.04143 0.18403 0.39700
C 	C 	0.59850 0.11000 0.09220 0.34200
O 	O 	0.83707 0.05303 0.45243 -0.29100
O 	O 	0.61202 0.06538 0.37578 -0.28700
O 	O 	0.39415 0.76692 0.40658 -0.53300
O 	O 	0.27069 0.71501 0.46661 -0.48200
O 	O 	0.94942 0.50478 0.29138 -0.52600
O 	O 	0.07596 0.45084 0.34084 -0.52100
O 	O 	0.91700 0.89190 0.05010 -0.44500
O 	O 	0.08642 0.86128 0.06888 -0.54900
O 	O 	0.29030 0.43400 0.37300 -0.46800
O 	O 	0.21840 0.37010 0.45170 -0.26800
O 	O 	0.65747 0.95243 0.55303 -0.22400
O 	O 	0.94682 0.87578 0.56538 -0.27500
O 	O 	0.43235 0.90658 0.26692 -0.52800
O 	O 	0.54769 0.96661 0.21501 -0.46500
O 	O 	0.25442 0.79138 0.00478 -0.48000
O 	O 	0.13236 0.84084 0.95084 -0.51400
O 	O 	0.14100 0.55010 0.39190 -0.46100
O 	O 	0.98342 0.56888 0.36128 -0.56600
O 	O 	0.90270 0.87300 0.93400 -0.48300
O 	O 	0.95980 0.95170 0.87010 -0.26900
O 	O 	0.66293 0.54757 0.94697 -0.28600
O 	O 	0.88798 0.62422 0.93462 -0.27800
O 	O 	0.10585 0.59342 0.23308 -0.53300
O 	O 	0.22931 0.53339 0.28499 -0.48200
O 	O 	0.55058 0.70862 0.49522 -0.52100
O 	O 	0.42404 0.65916 0.54916 -0.51900
O 	O 	0.58300 0.94990 0.10810 -0.44600
O 	O 	0.41358 0.93112 0.13872 -0.55200
O 	O 	0.20970 0.62700 0.56600 -0.46800
O 	O 	0.28160 0.54830 0.62990 -0.26900
O 	O 	0.84253 0.44697 0.04757 -0.22500
O 	O 	0.55318 0.43462 0.12422 -0.27100
O 	O 	0.06765 0.73308 0.09342 -0.52500
O 	O 	0.95231 0.78499 0.03339 -0.46400
O 	O 	0.24558 0.99522 0.20862 -0.47800
O 	O 	0.36764 0.04916 0.15916 -0.51600
O 	O 	0.35900 0.60810 0.44990 -0.46100
O 	O 	0.51658 0.63872 0.43112 -0.56300
O 	O 	0.59730 0.06600 0.12700 -0.48200
O 	O 	0.54020 0.12990 0.04830 -0.26700
