data_crystal

_cell_length_a 5.25040
_cell_length_b 8.28960
_cell_length_c 16.46290
_cell_angle_alpha 90.00000
_cell_angle_beta  93.91200
_cell_angle_gamma 90.00000

_symmetry_space_group_name_	'P 1'
_symmetry_space_group_name_H-M	'P 1'

loop_
_symmetry_equiv_pos_as_xyz
  x,y,z

loop_
_atom_site_label
_atom_site_type_symbol
_atom_site_fract_x
_atom_site_fract_y
_atom_site_fract_z
_atom_site_charge
Pu	Pu	0.85179 0.15709 0.63277 0.04300
Pu	Pu	0.64821 0.65709 0.86723 0.04200
Pu	Pu	0.14821 0.84291 0.36723 0.04300
Pu	Pu	0.35179 0.34291 0.13277 0.04200
P 	P 	0.12352 0.82105 0.74333 0.44100
P 	P 	0.34315 0.88924 0.57891 0.44300
P 	P 	0.37648 0.32105 0.75667 0.44300
P 	P 	0.15685 0.38924 0.92109 0.44100
P 	P 	0.87648 0.17895 0.25667 0.44100
P 	P 	0.65685 0.11076 0.42109 0.44300
P 	P 	0.62352 0.67895 0.24333 0.44300
P 	P 	0.84315 0.61076 0.07891 0.44100
H 	H 	0.03920 0.70890 0.61620 0.18300
H 	H 	0.31500 0.65540 0.65300 0.18400
H 	H 	0.46080 0.20890 0.88380 0.18300
H 	H 	0.18500 0.15540 0.84700 0.18300
H 	H 	0.96080 0.29110 0.38380 0.18300
H 	H 	0.68500 0.34460 0.34700 0.18400
H 	H 	0.53920 0.79110 0.11620 0.18300
H 	H 	0.81500 0.84460 0.15300 0.18300
C 	C 	0.19890 0.74890 0.64480 -0.35300
C 	C 	0.30110 0.24890 0.85520 -0.35300
C 	C 	0.80110 0.25110 0.35520 -0.35300
C 	C 	0.69890 0.75110 0.14480 -0.35300
O 	O 	0.36370 0.82370 0.80051 -0.16100
O 	O 	0.17420 0.04060 0.57524 -0.14400
O 	O 	0.61480 0.92680 0.61183 -0.15900
O 	O 	0.01220 0.99060 0.73256 -0.16400
O 	O 	0.92570 0.70440 0.77423 -0.15000
O 	O 	0.34070 0.80790 0.49565 -0.16200
O 	O 	0.13630 0.32370 0.69949 -0.16200
O 	O 	0.32580 0.54060 0.92476 -0.14500
O 	O 	0.88520 0.42680 0.88817 -0.15800
O 	O 	0.48780 0.49060 0.76744 -0.16200
O 	O 	0.57430 0.20440 0.72577 -0.15200
O 	O 	0.15930 0.30790 0.00435 -0.16100
O 	O 	0.63630 0.17630 0.19949 -0.16100
O 	O 	0.82580 0.95940 0.42476 -0.14400
O 	O 	0.38520 0.07320 0.38817 -0.15900
O 	O 	0.98780 0.00940 0.26744 -0.16400
O 	O 	0.07430 0.29560 0.22577 -0.15000
O 	O 	0.65930 0.19210 0.50435 -0.16200
O 	O 	0.86370 0.67630 0.30051 -0.16200
O 	O 	0.67420 0.45940 0.07524 -0.14500
O 	O 	0.11480 0.57320 0.11183 -0.15800
O 	O 	0.51220 0.50940 0.23256 -0.16200
O 	O 	0.42570 0.79560 0.27423 -0.15200
O 	O 	0.84070 0.69210 0.99565 -0.16100
