data_crystal

_cell_length_a 8.58200
_cell_length_b 11.74500
_cell_length_c 12.97900
_cell_angle_alpha 90.00000
_cell_angle_beta  90.00000
_cell_angle_gamma 101.10000

_symmetry_space_group_name_	'P 1'
_symmetry_space_group_name_H-M	'P 1'

loop_
_symmetry_equiv_pos_as_xyz
  x,y,z

loop_
_atom_site_label
_atom_site_type_symbol
_atom_site_fract_x
_atom_site_fract_y
_atom_site_fract_z
_atom_site_charge
Cu	Cu	0.95589 0.64621 0.80131 0.79900
Cu	Cu	0.05193 0.90119 0.48973 0.77900
Cu	Cu	0.54411 0.85379 0.30131 0.80000
Cu	Cu	0.44807 0.59881 0.98973 0.78100
Cu	Cu	0.04411 0.35379 0.19869 0.80000
Cu	Cu	0.94807 0.09881 0.51027 0.78000
Cu	Cu	0.45589 0.14621 0.69869 0.80000
Cu	Cu	0.55193 0.40119 0.01027 0.78100
C 	C 	0.63840 0.57850 0.91410 -0.34900
C 	C 	0.98150 0.73400 0.67700 -0.28000
C 	C 	0.13380 0.61640 0.87370 -0.28300
C 	C 	0.86160 0.92150 0.41410 -0.34600
C 	C 	0.51850 0.76600 0.17700 -0.28000
C 	C 	0.36620 0.88360 0.37370 -0.28400
C 	C 	0.36160 0.42150 0.08590 -0.34900
C 	C 	0.01850 0.26600 0.32300 -0.28000
C 	C 	0.86620 0.38360 0.12630 -0.28300
C 	C 	0.13840 0.07850 0.58590 -0.34600
C 	C 	0.48150 0.23400 0.82300 -0.28000
C 	C 	0.63380 0.11640 0.62630 -0.28400
N 	N 	0.75120 0.59700 0.86700 -0.22100
N 	N 	0.00720 0.79300 0.60780 -0.22300
N 	N 	0.25100 0.60800 0.91540 -0.22500
N 	N 	0.74880 0.90300 0.36700 -0.22100
N 	N 	0.49280 0.70700 0.10780 -0.22200
N 	N 	0.24900 0.89200 0.41540 -0.22600
N 	N 	0.24880 0.40300 0.13300 -0.22100
N 	N 	0.99280 0.20700 0.39220 -0.22300
N 	N 	0.74900 0.39200 0.08460 -0.22500
N 	N 	0.25120 0.09700 0.63300 -0.22100
N 	N 	0.50720 0.29300 0.89220 -0.22200
N 	N 	0.75100 0.10800 0.58460 -0.22600
