data_crystal

_cell_length_a 9.85610
_cell_length_b 11.95380
_cell_length_c 22.84630
_cell_angle_alpha 90.00000
_cell_angle_beta  95.50600
_cell_angle_gamma 90.00000

_symmetry_space_group_name_	'P 1'
_symmetry_space_group_name_H-M	'P 1'

loop_
_symmetry_equiv_pos_as_xyz
  x,y,z

loop_
_atom_site_label
_atom_site_type_symbol
_atom_site_fract_x
_atom_site_fract_y
_atom_site_fract_z
_atom_site_charge
Zn	Zn	0.73465 0.21990 0.96334 1.21800
Zn	Zn	0.23465 0.28010 0.46335 1.21900
H 	H 	0.40600 0.54800 0.74260 0.11900
H 	H 	0.57660 0.98870 0.78550 0.10900
H 	H 	0.59130 0.14320 0.84650 -0.01000
H 	H 	0.87080 0.99700 0.95530 -0.00100
H 	H 	0.86280 0.83800 0.89710 0.09600
H 	H 	0.74990 0.72840 0.81910 0.09200
H 	H 	0.77680 0.80650 0.76460 0.09900
H 	H 	0.64800 0.72800 0.68960 0.07000
H 	H 	0.63600 0.62190 0.73160 0.06800
H 	H 	0.40750 0.73580 0.67250 0.07500
H 	H 	0.46340 0.61710 0.65240 0.06700
H 	H 	0.54450 0.64470 0.82540 0.06700
H 	H 	0.48840 0.76450 0.84330 0.06300
H 	H 	0.30710 0.75180 0.76840 0.05200
H 	H 	0.30480 0.64420 0.81020 0.05200
H 	H 	0.18650 0.52790 0.73170 0.07800
H 	H 	0.17500 0.64020 0.69350 0.08100
H 	H 	0.11430 0.60910 0.59490 0.09800
H 	H 	0.12160 0.50480 0.50950 -0.01800
H 	H 	0.35740 0.37660 0.68040 0.08800
H 	H 	0.43180 0.48340 0.08030 0.04000
H 	H 	0.28440 0.23490 0.97110 0.04200
H 	H 	0.02480 0.42980 0.05310 0.05300
H 	H 	0.35480 0.27850 0.59320 0.00200
H 	H 	0.90600 0.95200 0.24260 0.11800
H 	H 	0.07660 0.51130 0.28550 0.10900
H 	H 	0.09130 0.35680 0.34650 -0.01100
H 	H 	0.37080 0.50300 0.45530 -0.00100
H 	H 	0.36280 0.66200 0.39710 0.09600
H 	H 	0.24990 0.77160 0.31910 0.09200
H 	H 	0.27680 0.69350 0.26460 0.09900
H 	H 	0.14800 0.77200 0.18960 0.06900
H 	H 	0.13600 0.87810 0.23160 0.06800
H 	H 	0.90750 0.76420 0.17250 0.07500
H 	H 	0.96340 0.88290 0.15240 0.06600
H 	H 	0.04450 0.85530 0.32540 0.06700
H 	H 	0.98840 0.73550 0.34330 0.06300
H 	H 	0.80710 0.74820 0.26840 0.05200
H 	H 	0.80480 0.85580 0.31020 0.05200
H 	H 	0.68650 0.97210 0.23170 0.07700
H 	H 	0.67500 0.85980 0.19350 0.08100
H 	H 	0.61430 0.89090 0.09490 0.09900
H 	H 	0.62160 0.99520 0.00950 -0.01900
H 	H 	0.85740 0.12340 0.18040 0.08800
H 	H 	0.93180 0.01660 0.58030 0.04000
H 	H 	0.78440 0.26510 0.47110 0.04100
H 	H 	0.52480 0.07020 0.55310 0.05200
H 	H 	0.85480 0.22150 0.09320 0.00200
C 	C 	0.63740 0.98790 0.82040 -0.18400
C 	C 	0.64670 0.08000 0.85711 0.10100
C 	C 	0.80950 0.99500 0.92059 0.09900
C 	C 	0.80530 0.89980 0.88591 -0.18300
C 	C 	0.71690 0.89460 0.83463 0.15800
C 	C 	0.71480 0.79360 0.79555 -0.17900
C 	C 	0.59080 0.69220 0.71761 -0.06700
C 	C 	0.45330 0.66590 0.68677 -0.05500
C 	C 	0.49760 0.71330 0.80985 -0.07100
C 	C 	0.35700 0.68290 0.78128 -0.04800
C 	C 	0.23120 0.57260 0.70257 -0.16100
C 	C 	0.23590 0.50480 0.64728 0.14300
C 	C 	0.16520 0.54150 0.59565 -0.18100
C 	C 	0.16970 0.47820 0.54479 0.11100
C 	C 	0.30770 0.40470 0.64586 -0.17600
C 	C 	0.22480 0.46830 0.07258 -0.10800
C 	C 	0.35720 0.44240 0.06169 0.03900
C 	C 	0.37960 0.35530 0.02294 -0.09400
C 	C 	0.52390 0.32580 0.01226 0.31900
C 	C 	0.26920 0.29500 0.99684 0.04100
C 	C 	0.13740 0.32170 0.00802 -0.09600
C 	C 	0.01690 0.25320 0.98250 0.34500
C 	C 	0.11500 0.41000 0.04582 0.04300
C 	C 	0.30570 0.34680 0.59359 0.09700
C 	C 	0.13740 0.51210 0.32040 -0.18500
C 	C 	0.14670 0.42000 0.35711 0.10200
C 	C 	0.30950 0.50500 0.42059 0.09800
C 	C 	0.30530 0.60020 0.38591 -0.18300
C 	C 	0.21690 0.60540 0.33463 0.15800
C 	C 	0.21480 0.70640 0.29555 -0.17900
C 	C 	0.09080 0.80780 0.21761 -0.06700
C 	C 	0.95330 0.83410 0.18677 -0.05600
C 	C 	0.99760 0.78670 0.30985 -0.07100
C 	C 	0.85700 0.81710 0.28128 -0.04800
C 	C 	0.73120 0.92740 0.20257 -0.16100
C 	C 	0.73590 0.99520 0.14728 0.14300
C 	C 	0.66520 0.95850 0.09565 -0.18300
C 	C 	0.66970 0.02180 0.04479 0.11300
C 	C 	0.80770 0.09530 0.14586 -0.17600
C 	C 	0.72480 0.03170 0.57258 -0.10900
C 	C 	0.85720 0.05760 0.56169 0.04000
C 	C 	0.87960 0.14470 0.52294 -0.09500
C 	C 	0.02390 0.17420 0.51226 0.31900
C 	C 	0.76920 0.20500 0.49684 0.04300
C 	C 	0.63740 0.17830 0.50802 -0.09800
C 	C 	0.51690 0.24680 0.48250 0.34600
C 	C 	0.61500 0.09000 0.54582 0.04400
C 	C 	0.80570 0.15320 0.09359 0.09700
S 	S 	0.19425 0.56961 0.12673 0.49400
S 	S 	0.69425 0.93039 0.62673 0.49400
N 	N 	0.73010 0.08460 0.90700 -0.26400
N 	N 	0.57920 0.76710 0.76770 -0.06400
N 	N 	0.36940 0.60780 0.72907 -0.14900
N 	N 	0.23740 0.38260 0.54293 -0.24100
N 	N 	0.23010 0.41540 0.40700 -0.26400
N 	N 	0.07920 0.73290 0.26770 -0.06400
N 	N 	0.86940 0.89220 0.22907 -0.14900
N 	N 	0.73740 0.11740 0.04293 -0.24200
O 	O 	0.90140 0.29328 0.99319 -0.44400
O 	O 	0.03650 0.16595 0.95603 -0.30200
O 	O 	0.53840 0.26113 0.96791 -0.42300
O 	O 	0.62020 0.36281 0.04492 -0.29700
O 	O 	0.27890 0.66721 0.11618 -0.37700
O 	O 	0.04950 0.59198 0.12091 -0.26100
O 	O 	0.24070 0.51665 0.18281 -0.26100
O 	O 	0.40140 0.20672 0.49319 -0.44500
O 	O 	0.53650 0.33405 0.45603 -0.30200
O 	O 	0.03840 0.23887 0.46791 -0.42300
O 	O 	0.12020 0.13719 0.54492 -0.29700
O 	O 	0.77890 0.83279 0.61618 -0.37700
O 	O 	0.54950 0.90802 0.62091 -0.26100
O 	O 	0.74070 0.98335 0.68281 -0.26100
Zn	Zn	0.76535 0.71990 0.53666 1.21900
Zn	Zn	0.26535 0.78010 0.03666 1.21900
H 	H 	0.09400 0.04800 0.75740 0.11800
H 	H 	0.92340 0.48870 0.71450 0.10900
H 	H 	0.90870 0.64320 0.65350 -0.01100
H 	H 	0.62920 0.49700 0.54470 -0.00100
H 	H 	0.63720 0.33800 0.60290 0.09600
H 	H 	0.75010 0.22840 0.68090 0.09200
H 	H 	0.72320 0.30650 0.73540 0.09900
H 	H 	0.85200 0.22800 0.81040 0.06900
H 	H 	0.86400 0.12190 0.76840 0.06800
H 	H 	0.09250 0.23580 0.82750 0.07500
H 	H 	0.03660 0.11710 0.84760 0.06600
H 	H 	0.95550 0.14470 0.67460 0.06700
H 	H 	0.01160 0.26450 0.65670 0.06300
H 	H 	0.19290 0.25180 0.73160 0.05200
H 	H 	0.19520 0.14420 0.68980 0.05200
H 	H 	0.31350 0.02790 0.76830 0.07700
H 	H 	0.32500 0.14020 0.80650 0.08100
H 	H 	0.38570 0.10910 0.90510 0.09900
H 	H 	0.37840 0.00480 0.99050 -0.01900
H 	H 	0.14260 0.87660 0.81960 0.08800
H 	H 	0.06820 0.98340 0.41970 0.04000
H 	H 	0.21560 0.73490 0.52890 0.04100
H 	H 	0.47520 0.92980 0.44690 0.05200
H 	H 	0.14520 0.77850 0.90680 0.00200
H 	H 	0.59400 0.45200 0.25740 0.11900
H 	H 	0.42340 0.01130 0.21450 0.10900
H 	H 	0.40870 0.85680 0.15350 -0.01000
H 	H 	0.12920 0.00300 0.04470 -0.00100
H 	H 	0.13720 0.16200 0.10290 0.09600
H 	H 	0.25010 0.27160 0.18090 0.09200
H 	H 	0.22320 0.19350 0.23540 0.09900
H 	H 	0.35200 0.27200 0.31040 0.07000
H 	H 	0.36400 0.37810 0.26840 0.06800
H 	H 	0.59250 0.26420 0.32750 0.07500
H 	H 	0.53660 0.38290 0.34760 0.06700
H 	H 	0.45550 0.35530 0.17460 0.06700
H 	H 	0.51160 0.23550 0.15670 0.06300
H 	H 	0.69290 0.24820 0.23160 0.05200
H 	H 	0.69520 0.35580 0.18980 0.05200
H 	H 	0.81350 0.47210 0.26830 0.07800
H 	H 	0.82500 0.35980 0.30650 0.08100
H 	H 	0.88570 0.39090 0.40510 0.09800
H 	H 	0.87840 0.49520 0.49050 -0.01800
H 	H 	0.64260 0.62340 0.31960 0.08800
H 	H 	0.56820 0.51660 0.91970 0.04000
H 	H 	0.71560 0.76510 0.02890 0.04200
H 	H 	0.97520 0.57020 0.94690 0.05300
H 	H 	0.64520 0.72150 0.40680 0.00200
C 	C 	0.86260 0.48790 0.67960 -0.18500
C 	C 	0.85330 0.58000 0.64289 0.10200
C 	C 	0.69050 0.49500 0.57941 0.09800
C 	C 	0.69470 0.39980 0.61409 -0.18300
C 	C 	0.78310 0.39460 0.66537 0.15800
C 	C 	0.78520 0.29360 0.70445 -0.17900
C 	C 	0.90920 0.19220 0.78239 -0.06700
C 	C 	0.04670 0.16590 0.81323 -0.05600
C 	C 	0.00240 0.21330 0.69015 -0.07100
C 	C 	0.14300 0.18290 0.71872 -0.04800
C 	C 	0.26880 0.07260 0.79743 -0.16100
C 	C 	0.26410 0.00480 0.85272 0.14300
C 	C 	0.33480 0.04150 0.90435 -0.18300
C 	C 	0.33030 0.97820 0.95521 0.11300
C 	C 	0.19230 0.90470 0.85414 -0.17600
C 	C 	0.27520 0.96830 0.42742 -0.10900
C 	C 	0.14280 0.94240 0.43831 0.04000
C 	C 	0.12040 0.85530 0.47706 -0.09500
C 	C 	0.97610 0.82580 0.48774 0.31900
C 	C 	0.23080 0.79500 0.50316 0.04300
C 	C 	0.36260 0.82170 0.49198 -0.09800
C 	C 	0.48310 0.75320 0.51750 0.34600
C 	C 	0.38500 0.91000 0.45418 0.04400
C 	C 	0.19430 0.84680 0.90641 0.09700
C 	C 	0.36260 0.01210 0.17960 -0.18400
C 	C 	0.35330 0.92000 0.14289 0.10100
C 	C 	0.19050 0.00500 0.07941 0.09900
C 	C 	0.19470 0.10020 0.11409 -0.18300
C 	C 	0.28310 0.10540 0.16537 0.15800
C 	C 	0.28520 0.20640 0.20445 -0.17900
C 	C 	0.40920 0.30780 0.28239 -0.06700
C 	C 	0.54670 0.33410 0.31323 -0.05500
C 	C 	0.50240 0.28670 0.19015 -0.07100
C 	C 	0.64300 0.31710 0.21872 -0.04800
C 	C 	0.76880 0.42740 0.29743 -0.16100
C 	C 	0.76410 0.49520 0.35272 0.14300
C 	C 	0.83480 0.45850 0.40435 -0.18100
C 	C 	0.83030 0.52180 0.45521 0.11100
C 	C 	0.69230 0.59530 0.35414 -0.17600
C 	C 	0.77520 0.53170 0.92742 -0.10800
C 	C 	0.64280 0.55760 0.93831 0.03900
C 	C 	0.62040 0.64470 0.97706 -0.09400
C 	C 	0.47610 0.67420 0.98774 0.31900
C 	C 	0.73080 0.70500 0.00316 0.04100
C 	C 	0.86260 0.67830 0.99198 -0.09600
C 	C 	0.98310 0.74680 0.01750 0.34500
C 	C 	0.88500 0.59000 0.95418 0.04300
C 	C 	0.69430 0.65320 0.40641 0.09800
S 	S 	0.30575 0.06961 0.37327 0.49400
S 	S 	0.80575 0.43039 0.87327 0.49400
N 	N 	0.76990 0.58460 0.59300 -0.26400
N 	N 	0.92080 0.26710 0.73230 -0.06400
N 	N 	0.13060 0.10780 0.77093 -0.14900
N 	N 	0.26260 0.88260 0.95707 -0.24200
N 	N 	0.26990 0.91540 0.09300 -0.26400
N 	N 	0.42080 0.23290 0.23230 -0.06400
N 	N 	0.63060 0.39220 0.27093 -0.14900
N 	N 	0.76260 0.61740 0.45707 -0.24100
O 	O 	0.59860 0.79328 0.50681 -0.44500
O 	O 	0.46350 0.66595 0.54397 -0.30200
O 	O 	0.96160 0.76113 0.53209 -0.42300
O 	O 	0.87980 0.86281 0.45508 -0.29700
O 	O 	0.22110 0.16721 0.38382 -0.37700
O 	O 	0.45050 0.09198 0.37909 -0.26100
O 	O 	0.25930 0.01665 0.31719 -0.26100
O 	O 	0.09860 0.70672 0.00681 -0.44400
O 	O 	0.96350 0.83405 0.04397 -0.30200
O 	O 	0.46160 0.73887 0.03209 -0.42300
O 	O 	0.37980 0.63719 0.95508 -0.29700
O 	O 	0.72110 0.33279 0.88382 -0.37700
O 	O 	0.95050 0.40802 0.87909 -0.26100
O 	O 	0.75930 0.48335 0.81719 -0.26100
