data_crystal

_cell_length_a 17.51760
_cell_length_b 17.51760
_cell_length_c 17.51760
_cell_angle_alpha 95.71880
_cell_angle_beta  116.75500
_cell_angle_gamma 116.75500

_symmetry_space_group_name_	'P 1'
_symmetry_space_group_name_H-M	'P 1'

loop_
_symmetry_equiv_pos_as_xyz
  x,y,z

loop_
_atom_site_label
_atom_site_type_symbol
_atom_site_fract_x
_atom_site_fract_y
_atom_site_fract_z
_atom_site_charge
Zn	Zn	0.01132 0.45092 0.77238 1.21500
Zn	Zn	0.48868 0.26106 0.43960 1.21500
Zn	Zn	0.67854 0.22762 0.73894 1.21500
Zn	Zn	0.82146 0.56040 0.54908 1.21500
H 	H 	0.87340 0.53410 0.93110 0.05200
H 	H 	0.01420 0.68390 0.02430 0.05200
H 	H 	0.14950 0.74110 0.99900 0.07000
H 	H 	0.18830 0.44460 0.81370 -0.03400
H 	H 	0.25000 0.35190 0.84430 0.15800
H 	H 	0.99690 0.17660 0.83370 0.17300
H 	H 	0.94570 0.27360 0.80010 -0.04100
H 	H 	0.30230 0.26360 0.91010 0.04400
H 	H 	0.23570 0.20980 0.80250 0.04200
H 	H 	0.62660 0.55770 0.66070 0.05400
H 	H 	0.48580 0.51010 0.66970 0.05100
H 	H 	0.35050 0.34950 0.59160 0.07000
H 	H 	0.31170 0.12540 0.25630 -0.03400
H 	H 	0.25000 0.09430 0.10190 0.15800
H 	H 	0.50310 0.33680 0.17970 0.16900
H 	H 	0.55430 0.35440 0.32790 -0.04200
H 	H 	0.19770 0.10780 0.96130 0.04400
H 	H 	0.26430 0.06680 0.97410 0.04200
H 	H 	0.60300 0.06890 0.44230 0.05500
H 	H 	0.65960 0.97570 0.48990 0.04900
H 	H 	0.74210 0.00100 0.65050 0.07100
H 	H 	0.63090 0.18630 0.87460 -0.03400
H 	H 	0.50760 0.15570 0.90570 0.15700
H 	H 	0.34290 0.16630 0.66320 0.16900
H 	H 	0.47350 0.19990 0.64560 -0.04200
H 	H 	0.35350 0.08990 0.89220 0.04400
H 	H 	0.40730 0.19750 0.93320 0.04200
H 	H 	0.89700 0.33930 0.46590 0.05400
H 	H 	0.84040 0.33030 0.31610 0.05100
H 	H 	0.75790 0.40840 0.25890 0.07000
H 	H 	0.86910 0.74370 0.55540 -0.03200
H 	H 	0.99240 0.89810 0.64810 0.15400
H 	H 	0.15710 0.82030 0.82340 0.16800
H 	H 	0.02650 0.67210 0.72640 -0.04200
H 	H 	0.14650 0.03870 0.73640 0.04500
H 	H 	0.09270 0.02590 0.79020 0.04300
C 	C 	0.85080 0.39830 0.81130 0.31900
C 	C 	0.93200 0.50010 0.86930 -0.01900
C 	C 	0.93060 0.55690 0.92770 -0.03000
C 	C 	0.01200 0.64630 0.98090 -0.03500
C 	C 	0.09400 0.67970 0.96690 -0.03100
C 	C 	0.08920 0.62040 0.90620 -0.02700
C 	C 	0.16900 0.64280 0.88600 0.28400
C 	C 	0.14940 0.38980 0.81820 0.19000
C 	C 	0.18710 0.33410 0.83560 -0.31800
C 	C 	0.12850 0.25220 0.83950 0.33600
C 	C 	0.03750 0.23040 0.82890 -0.32800
C 	C 	0.00930 0.29060 0.81110 0.19400
C 	C 	0.24160 0.20600 0.85960 0.03100
C 	C 	0.64920 0.46050 0.54750 0.31800
C 	C 	0.56800 0.43730 0.56810 -0.01900
C 	C 	0.56940 0.49710 0.62630 -0.03300
C 	C 	0.48800 0.46890 0.63430 -0.03100
C 	C 	0.40600 0.37290 0.58570 -0.03300
C 	C 	0.41080 0.31700 0.53120 -0.02600
C 	C 	0.33100 0.21700 0.47380 0.28400
C 	C 	0.35060 0.16880 0.24040 0.18900
C 	C 	0.31290 0.14850 0.14700 -0.31600
C 	C 	0.37150 0.21100 0.12370 0.33400
C 	C 	0.46250 0.29140 0.19290 -0.32200
C 	C 	0.49070 0.30180 0.28130 0.19500
C 	C 	0.25840 0.11800 0.96440 0.02900
C 	C 	0.58700 0.18870 0.53950 0.31800
C 	C 	0.63080 0.13070 0.56270 -0.01800
C 	C 	0.62920 0.07230 0.50290 -0.03500
C 	C 	0.66540 0.01910 0.53110 -0.02800
C 	C 	0.71280 0.03310 0.62710 -0.03500
C 	C 	0.71420 0.09380 0.68300 -0.02500
C 	C 	0.75680 0.11400 0.78300 0.28300
C 	C 	0.57160 0.18180 0.83120 0.18900
C 	C 	0.49850 0.16440 0.85150 -0.31600
C 	C 	0.41270 0.16050 0.78900 0.33400
C 	C 	0.40150 0.17110 0.70860 -0.32200
C 	C 	0.47950 0.18890 0.69820 0.19500
C 	C 	0.34640 0.14040 0.88200 0.03000
C 	C 	0.91300 0.45250 0.60170 0.31800
C 	C 	0.86920 0.43190 0.49990 -0.01900
C 	C 	0.87080 0.37370 0.44310 -0.03300
C 	C 	0.83460 0.36570 0.35370 -0.03100
C 	C 	0.78720 0.41430 0.32030 -0.03400
C 	C 	0.78580 0.46880 0.37960 -0.02600
C 	C 	0.74320 0.52620 0.35720 0.28400
C 	C 	0.92840 0.75960 0.61020 0.18300
C 	C 	0.00150 0.85300 0.66590 -0.30700
C 	C 	0.08730 0.87630 0.74780 0.33000
C 	C 	0.09850 0.80710 0.76960 -0.31900
C 	C 	0.02050 0.71870 0.70940 0.19400
C 	C 	0.15360 0.03560 0.79400 0.02600
C 	C 	0.25000 0.12500 0.87500 0.00600
N 	N 	0.06380 0.37070 0.80790 -0.31500
N 	N 	0.00870 0.53220 0.86010 -0.22100
N 	N 	0.43620 0.24410 0.30690 -0.31400
N 	N 	0.49130 0.35140 0.52350 -0.22100
N 	N 	0.56280 0.19210 0.75590 -0.31400
N 	N 	0.67210 0.13990 0.64860 -0.22100
N 	N 	0.93720 0.69310 0.62930 -0.31300
N 	N 	0.82790 0.47650 0.46780 -0.22100
O 	O 	0.86440 0.35837 0.76177 -0.43600
O 	O 	0.77380 0.36117 0.81677 -0.43400
O 	O 	0.15160 0.57850 0.82790 -0.39500
O 	O 	0.24480 0.72580 0.92460 -0.23500
O 	O 	0.15330 0.19036 0.85506 -0.26400
O 	O 	0.63560 0.39737 0.49397 -0.43700
O 	O 	0.72620 0.54297 0.58737 -0.43400
O 	O 	0.34840 0.17630 0.42690 -0.39500
O 	O 	0.25520 0.17980 0.48100 -0.23600
O 	O 	0.34670 0.20176 0.03706 -0.26100
O 	O 	0.59660 0.23823 0.60263 -0.43700
O 	O 	0.54440 0.18323 0.45703 -0.43400
O 	O 	0.75060 0.17210 0.82370 -0.39500
O 	O 	0.80120 0.07540 0.82020 -0.23500
O 	O 	0.33530 0.14494 0.79824 -0.26300
O 	O 	0.90340 0.50603 0.64163 -0.43600
O 	O 	0.95560 0.41263 0.63883 -0.43400
O 	O 	0.74940 0.57310 0.42150 -0.39500
O 	O 	0.69880 0.51900 0.27420 -0.23500
O 	O 	0.16470 0.96294 0.80964 -0.25900
Zn	Zn	0.32146 0.77238 0.26106 1.21600
Zn	Zn	0.17854 0.43960 0.45092 1.21600
Zn	Zn	0.98868 0.54908 0.22762 1.21600
Zn	Zn	0.51132 0.73894 0.56040 1.21600
H 	H 	0.39700 0.93110 0.55770 0.05500
H 	H 	0.34040 0.02430 0.51010 0.04900
H 	H 	0.25790 0.99900 0.34950 0.07100
H 	H 	0.36910 0.81370 0.12540 -0.03400
H 	H 	0.49240 0.84430 0.09430 0.15700
H 	H 	0.65710 0.83370 0.33680 0.16900
H 	H 	0.52650 0.80010 0.35440 -0.04200
H 	H 	0.64650 0.91010 0.10780 0.04400
H 	H 	0.59270 0.80250 0.06680 0.04200
H 	H 	0.10300 0.66070 0.53410 0.05400
H 	H 	0.15960 0.66970 0.68390 0.05100
H 	H 	0.24210 0.59160 0.74110 0.07000
H 	H 	0.13090 0.25630 0.44460 -0.03200
H 	H 	0.00760 0.10190 0.35190 0.15400
H 	H 	0.84290 0.17970 0.17660 0.16800
H 	H 	0.97350 0.32790 0.27360 -0.04200
H 	H 	0.85350 0.96130 0.26360 0.04500
H 	H 	0.90730 0.97410 0.20980 0.04300
H 	H 	0.12660 0.46590 0.06890 0.05300
H 	H 	0.98580 0.31610 0.97570 0.05300
H 	H 	0.85050 0.25890 0.00100 0.07000
H 	H 	0.81170 0.55540 0.18630 -0.03400
H 	H 	0.75000 0.64810 0.15570 0.15800
H 	H 	0.00310 0.82340 0.16630 0.17300
H 	H 	0.05430 0.72640 0.19990 -0.04100
H 	H 	0.69770 0.73640 0.08990 0.04400
H 	H 	0.76430 0.79020 0.19750 0.04200
H 	H 	0.37340 0.44230 0.33930 0.05400
H 	H 	0.51420 0.48990 0.33030 0.05100
H 	H 	0.64950 0.65050 0.40840 0.07000
H 	H 	0.68830 0.87460 0.74370 -0.03400
H 	H 	0.75000 0.90570 0.89810 0.15800
H 	H 	0.49690 0.66320 0.82030 0.16900
H 	H 	0.44570 0.64560 0.67210 -0.04200
H 	H 	0.80230 0.89220 0.03870 0.04400
H 	H 	0.73570 0.93320 0.02590 0.04200
C 	C 	0.41300 0.81130 0.46050 0.31800
C 	C 	0.36920 0.86930 0.43730 -0.01800
C 	C 	0.37080 0.92770 0.49710 -0.03500
C 	C 	0.33460 0.98090 0.46890 -0.02800
C 	C 	0.28720 0.96690 0.37290 -0.03500
C 	C 	0.28580 0.90620 0.31700 -0.02500
C 	C 	0.24320 0.88600 0.21700 0.28300
C 	C 	0.42840 0.81820 0.16880 0.18900
C 	C 	0.50150 0.83560 0.14850 -0.31600
C 	C 	0.58730 0.83950 0.21100 0.33400
C 	C 	0.59850 0.82890 0.29140 -0.32200
C 	C 	0.52050 0.81110 0.30180 0.19500
C 	C 	0.65360 0.85960 0.11800 0.03000
C 	C 	0.08700 0.54750 0.39830 0.31800
C 	C 	0.13080 0.56810 0.50010 -0.01900
C 	C 	0.12920 0.62630 0.55690 -0.03300
C 	C 	0.16540 0.63430 0.64630 -0.03100
C 	C 	0.21280 0.58570 0.67970 -0.03400
C 	C 	0.21420 0.53120 0.62040 -0.02600
C 	C 	0.25680 0.47380 0.64280 0.28400
C 	C 	0.07160 0.24040 0.38980 0.18300
C 	C 	0.99850 0.14700 0.33410 -0.30700
C 	C 	0.91270 0.12370 0.25220 0.33000
C 	C 	0.90150 0.19290 0.23040 -0.31900
C 	C 	0.97950 0.28130 0.29060 0.19400
C 	C 	0.84640 0.96440 0.20600 0.02600
C 	C 	0.14920 0.60170 0.18870 0.31900
C 	C 	0.06800 0.49990 0.13070 -0.01900
C 	C 	0.06940 0.44310 0.07230 -0.03000
C 	C 	0.98800 0.35370 0.01910 -0.03500
C 	C 	0.90600 0.32030 0.03310 -0.03100
C 	C 	0.91080 0.37960 0.09380 -0.02700
C 	C 	0.83100 0.35720 0.11400 0.28400
C 	C 	0.85060 0.61020 0.18180 0.19000
C 	C 	0.81290 0.66590 0.16440 -0.31800
C 	C 	0.87150 0.74780 0.16050 0.33600
C 	C 	0.96250 0.76960 0.17110 -0.32800
C 	C 	0.99070 0.70940 0.18890 0.19400
C 	C 	0.75840 0.79400 0.14040 0.03100
C 	C 	0.35080 0.53950 0.45250 0.31800
C 	C 	0.43200 0.56270 0.43190 -0.01900
C 	C 	0.43060 0.50290 0.37370 -0.03300
C 	C 	0.51200 0.53110 0.36570 -0.03100
C 	C 	0.59400 0.62710 0.41430 -0.03300
C 	C 	0.58920 0.68300 0.46880 -0.02600
C 	C 	0.66900 0.78300 0.52620 0.28400
C 	C 	0.64940 0.83120 0.75960 0.18900
C 	C 	0.68710 0.85150 0.85300 -0.31600
C 	C 	0.62850 0.78900 0.87630 0.33400
C 	C 	0.53750 0.70860 0.80710 -0.32200
C 	C 	0.50930 0.69820 0.71870 0.19500
C 	C 	0.74160 0.88200 0.03560 0.02900
C 	C 	0.75000 0.87500 0.12500 0.00600
N 	N 	0.43720 0.80790 0.24410 -0.31400
N 	N 	0.32790 0.86010 0.35140 -0.22100
N 	N 	0.06280 0.30690 0.37070 -0.31300
N 	N 	0.17210 0.52350 0.53220 -0.22100
N 	N 	0.93620 0.62930 0.19210 -0.31500
N 	N 	0.99130 0.46780 0.13990 -0.22100
N 	N 	0.56380 0.75590 0.69310 -0.31400
N 	N 	0.50870 0.64860 0.47650 -0.22100
O 	O 	0.40340 0.76177 0.39737 -0.43700
O 	O 	0.45560 0.81677 0.54297 -0.43400
O 	O 	0.24940 0.82790 0.17630 -0.39500
O 	O 	0.19880 0.92460 0.17980 -0.23500
O 	O 	0.66470 0.85506 0.20176 -0.26300
O 	O 	0.09660 0.49397 0.35837 -0.43600
O 	O 	0.04440 0.58737 0.36117 -0.43400
O 	O 	0.25060 0.42690 0.57850 -0.39500
O 	O 	0.30120 0.48100 0.72580 -0.23500
O 	O 	0.83530 0.03706 0.19036 -0.25900
O 	O 	0.13560 0.64163 0.23823 -0.43600
O 	O 	0.22620 0.63883 0.18323 -0.43400
O 	O 	0.84840 0.42150 0.17210 -0.39500
O 	O 	0.75520 0.27420 0.07540 -0.23500
O 	O 	0.84670 0.80964 0.14494 -0.26400
O 	O 	0.36440 0.60263 0.50603 -0.43700
O 	O 	0.27380 0.45703 0.41263 -0.43400
O 	O 	0.65160 0.82370 0.57310 -0.39500
O 	O 	0.74480 0.82020 0.51900 -0.23600
O 	O 	0.65330 0.79824 0.96294 -0.26100
