data_crystal

_cell_length_a 14.48900
_cell_length_b 18.11500
_cell_length_c 22.11300
_cell_angle_alpha 90.00000
_cell_angle_beta  90.00000
_cell_angle_gamma 90.00000

_symmetry_space_group_name_	'P 1'
_symmetry_space_group_name_H-M	'P 1'

loop_
_symmetry_equiv_pos_as_xyz
  x,y,z

loop_
_atom_site_label
_atom_site_type_symbol
_atom_site_fract_x
_atom_site_fract_y
_atom_site_fract_z
_atom_site_charge
Zn	Zn	0.49217 0.32999 0.75068 1.20900
Zn	Zn	0.65568 0.25283 0.82918 1.17300
Zn	Zn	0.64066 0.23710 0.68419 1.20900
Zn	Zn	0.49512 0.15543 0.77457 1.16700
Zn	Zn	0.50783 0.67001 0.25068 1.21000
Zn	Zn	0.34432 0.74717 0.32918 1.17400
Zn	Zn	0.35934 0.76290 0.18419 1.21100
Zn	Zn	0.50488 0.84457 0.27457 1.16900
H 	H 	0.12790 0.15160 0.84340 0.27300
H 	H 	0.21480 0.20190 0.85270 0.30300
H 	H 	0.22310 0.12840 0.81560 0.30100
H 	H 	0.58130 0.32120 0.97920 0.18100
H 	H 	0.52800 0.32800 0.04070 0.18300
H 	H 	0.61640 0.37590 0.02920 0.18300
H 	H 	0.53040 0.40610 0.11580 0.25400
H 	H 	0.45830 0.43910 0.16120 0.26000
H 	H 	0.55440 0.47750 0.15270 0.26600
H 	H 	0.32810 0.04540 0.96540 0.23500
H 	H 	0.37710 0.05940 0.90330 0.23600
H 	H 	0.34180 0.12630 0.94180 0.25300
H 	H 	0.02210 0.15490 0.83920 0.31200
H 	H 	0.93000 0.12270 0.81290 0.33700
H 	H 	0.92950 0.19850 0.84720 0.32700
H 	H 	0.30070 0.92540 0.06950 0.28100
H 	H 	0.31970 0.94490 0.00160 0.26100
H 	H 	0.28480 0.00610 0.04610 0.26500
H 	H 	0.87210 0.84840 0.34340 0.27800
H 	H 	0.78520 0.79810 0.35270 0.30900
H 	H 	0.77690 0.87160 0.31560 0.30500
H 	H 	0.41870 0.67880 0.47920 0.31500
H 	H 	0.47200 0.67200 0.54070 0.28700
H 	H 	0.38360 0.62410 0.52920 0.28600
H 	H 	0.46960 0.59390 0.61580 0.26600
H 	H 	0.54170 0.56090 0.66120 0.27600
H 	H 	0.44560 0.52250 0.65270 0.28100
H 	H 	0.67190 0.95460 0.46540 0.27000
H 	H 	0.62290 0.94060 0.40330 0.26000
H 	H 	0.65820 0.87370 0.44180 0.28100
H 	H 	0.97790 0.84510 0.33920 0.32800
H 	H 	0.07000 0.87730 0.31290 0.35000
H 	H 	0.07050 0.80150 0.34720 0.34100
H 	H 	0.69930 0.07460 0.56950 0.27300
H 	H 	0.68030 0.05510 0.50160 0.24300
H 	H 	0.71520 0.99390 0.54610 0.25000
C 	C 	0.33120 0.25430 0.74300 0.39700
C 	C 	0.22740 0.24750 0.73390 -0.22900
C 	C 	0.16190 0.20840 0.77120 0.40200
C 	C 	0.18370 0.16940 0.82510 -0.95900
C 	C 	0.51300 0.37780 0.86940 0.46300
C 	C 	0.48260 0.42160 0.92280 -0.18300
C 	C 	0.50440 0.41400 0.98460 0.16500
C 	C 	0.46640 0.47300 0.02020 -0.11400
C 	C 	0.41920 0.52310 0.98480 -0.04800
C 	C 	0.46590 0.49840 0.08210 0.29000
C 	C 	0.42570 0.56430 0.08900 -0.25000
C 	C 	0.56270 0.35450 0.01070 -0.52700
C 	C 	0.50600 0.45090 0.13260 -0.78200
C 	C 	0.55790 0.16460 0.90590 0.40100
C 	C 	0.53540 0.12040 0.96170 -0.26200
C 	C 	0.45850 0.08160 0.97460 0.29400
C 	C 	0.36850 0.07790 0.94360 -0.79300
C 	C 	0.81410 0.22280 0.73080 0.45600
C 	C 	0.91340 0.23000 0.72560 -0.31300
C 	C 	0.98040 0.20410 0.76590 0.47100
C 	C 	0.07200 0.22230 0.74680 -0.34200
C 	C 	0.06970 0.26290 0.69690 0.07300
C 	C 	0.96420 0.16710 0.82060 -1.06700
C 	C 	0.46600 0.88640 0.14380 0.36300
C 	C 	0.48030 0.94940 0.10230 -0.20500
C 	C 	0.42430 0.98260 0.05840 0.27800
C 	C 	0.47580 0.03770 0.02780 -0.18700
C 	C 	0.56220 0.04650 0.05320 0.03400
C 	C 	0.32260 0.96290 0.04240 -0.79800
C 	C 	0.42670 0.61630 0.13610 0.41600
C 	C 	0.66880 0.74570 0.24300 0.39900
C 	C 	0.77260 0.75250 0.23390 -0.23100
C 	C 	0.83810 0.79160 0.27120 0.40900
C 	C 	0.81630 0.83060 0.32510 -0.97100
C 	C 	0.48700 0.62220 0.36940 0.49200
C 	C 	0.51740 0.57840 0.42280 -0.24600
C 	C 	0.49560 0.58600 0.48460 0.35700
C 	C 	0.53360 0.52700 0.52020 -0.25800
C 	C 	0.58080 0.47690 0.48480 0.04400
C 	C 	0.53410 0.50160 0.58210 0.34500
C 	C 	0.57430 0.43570 0.58900 -0.26700
C 	C 	0.43730 0.64550 0.51070 -0.90900
C 	C 	0.49400 0.54910 0.63260 -0.83900
C 	C 	0.44210 0.83540 0.40590 0.40100
C 	C 	0.46460 0.87960 0.46170 -0.25100
C 	C 	0.54150 0.91840 0.47460 0.35000
C 	C 	0.63150 0.92210 0.44360 -0.86700
C 	C 	0.18590 0.77720 0.23080 0.45800
C 	C 	0.08660 0.77000 0.22560 -0.31700
C 	C 	0.01960 0.79590 0.26590 0.48200
C 	C 	0.92800 0.77770 0.24680 -0.34500
C 	C 	0.93030 0.73710 0.19690 0.07800
C 	C 	0.03580 0.83290 0.32060 -1.10700
C 	C 	0.53400 0.11360 0.64380 0.36200
C 	C 	0.51970 0.05060 0.60230 -0.20800
C 	C 	0.57570 0.01740 0.55840 0.28600
C 	C 	0.52420 0.96230 0.52780 -0.23700
C 	C 	0.43780 0.95350 0.55320 0.04800
C 	C 	0.67740 0.03710 0.54240 -0.78100
C 	C 	0.57330 0.38370 0.63610 0.42300
S 	S 	0.17970 0.29390 0.67150 0.01300
S 	S 	0.41890 0.50100 0.90820 -0.02200
S 	S 	0.38230 0.60060 0.02110 0.05100
S 	S 	0.62850 0.10820 0.01230 0.06000
S 	S 	0.96340 0.27790 0.66460 0.01800
S 	S 	0.58650 0.98880 0.11050 0.00900
S 	S 	0.82030 0.70610 0.17150 0.02000
S 	S 	0.58110 0.49900 0.40820 -0.01900
S 	S 	0.61770 0.39940 0.52110 -0.00200
S 	S 	0.37150 0.89180 0.51230 0.01500
S 	S 	0.03660 0.72210 0.16460 0.02200
S 	S 	0.41350 0.01120 0.61050 0.00300
O 	O 	0.57550 0.24750 0.75780 -0.95000
O 	O 	0.36980 0.21120 0.77730 -0.51900
O 	O 	0.36910 0.31020 0.71480 -0.46400
O 	O 	0.47160 0.39030 0.82170 -0.53000
O 	O 	0.57650 0.33650 0.87890 -0.52700
O 	O 	0.63970 0.18920 0.89850 -0.52500
O 	O 	0.49470 0.17260 0.86680 -0.52800
O 	O 	0.77650 0.19940 0.77470 -0.54900
O 	O 	0.77350 0.25050 0.68380 -0.50400
O 	O 	0.38260 0.84940 0.13640 -0.48500
O 	O 	0.52290 0.86740 0.18070 -0.50700
O 	O 	0.46180 0.59710 0.18980 -0.48800
O 	O 	0.39020 0.67770 0.12780 -0.48900
O 	O 	0.42450 0.75250 0.25780 -0.95000
O 	O 	0.63020 0.78880 0.27730 -0.51900
O 	O 	0.63090 0.68980 0.21480 -0.46300
O 	O 	0.52840 0.60970 0.32170 -0.53500
O 	O 	0.42350 0.66350 0.37890 -0.53900
O 	O 	0.36030 0.81080 0.39850 -0.52000
O 	O 	0.50530 0.82740 0.36680 -0.52800
O 	O 	0.22350 0.80060 0.27470 -0.54800
O 	O 	0.22650 0.74950 0.18380 -0.50200
O 	O 	0.61740 0.15060 0.63640 -0.48700
O 	O 	0.47710 0.13260 0.68070 -0.50800
O 	O 	0.53820 0.40290 0.68980 -0.49200
O 	O 	0.60980 0.32230 0.62780 -0.49100
Zn	Zn	0.00783 0.82999 0.75068 1.20900
Zn	Zn	0.84432 0.75283 0.82918 1.17500
Zn	Zn	0.85934 0.73710 0.68419 1.21100
Zn	Zn	0.00488 0.65543 0.77457 1.16800
Zn	Zn	0.99217 0.17001 0.25068 1.21100
Zn	Zn	0.15568 0.24717 0.32918 1.17500
Zn	Zn	0.14066 0.26290 0.18419 1.21100
Zn	Zn	0.99512 0.34457 0.27457 1.16900
H 	H 	0.37210 0.65160 0.84340 0.27200
H 	H 	0.28520 0.70190 0.85270 0.30200
H 	H 	0.27690 0.62840 0.81560 0.30000
H 	H 	0.91870 0.82120 0.97920 0.18900
H 	H 	0.97200 0.82800 0.04070 0.19100
H 	H 	0.88360 0.87590 0.02920 0.19000
H 	H 	0.96960 0.90610 0.11580 0.24600
H 	H 	0.04170 0.93910 0.16120 0.25000
H 	H 	0.94560 0.97750 0.15270 0.25900
H 	H 	0.17190 0.54540 0.96540 0.23300
H 	H 	0.12290 0.55940 0.90330 0.23400
H 	H 	0.15820 0.62630 0.94180 0.25200
H 	H 	0.47790 0.65490 0.83920 0.31400
H 	H 	0.57000 0.62270 0.81290 0.33900
H 	H 	0.57050 0.69850 0.84720 0.32800
H 	H 	0.19930 0.42540 0.06950 0.27900
H 	H 	0.18030 0.44490 0.00160 0.26000
H 	H 	0.21520 0.50610 0.04610 0.26200
H 	H 	0.62790 0.34840 0.34340 0.27800
H 	H 	0.71480 0.29810 0.35270 0.31000
H 	H 	0.72310 0.37160 0.31560 0.30600
H 	H 	0.08130 0.17880 0.47920 0.31300
H 	H 	0.02800 0.17200 0.54070 0.28500
H 	H 	0.11640 0.12410 0.52920 0.28400
H 	H 	0.03040 0.09390 0.61580 0.26900
H 	H 	0.95830 0.06090 0.66120 0.28000
H 	H 	0.05440 0.02250 0.65270 0.28400
H 	H 	0.82810 0.45460 0.46540 0.27100
H 	H 	0.87710 0.44060 0.40330 0.26100
H 	H 	0.84180 0.37370 0.44180 0.28200
H 	H 	0.52210 0.34510 0.33920 0.32300
H 	H 	0.43000 0.37730 0.31290 0.34700
H 	H 	0.42950 0.30150 0.34720 0.33800
H 	H 	0.80070 0.57460 0.56950 0.27400
H 	H 	0.81970 0.55510 0.50160 0.24400
H 	H 	0.78480 0.49390 0.54610 0.25200
C 	C 	0.16880 0.75430 0.74300 0.39700
C 	C 	0.27260 0.74750 0.73390 -0.22900
C 	C 	0.33810 0.70840 0.77120 0.40200
C 	C 	0.31630 0.66940 0.82510 -0.95800
C 	C 	0.98700 0.87780 0.86940 0.47500
C 	C 	0.01740 0.92160 0.92280 -0.19700
C 	C 	0.99560 0.91400 0.98460 0.18200
C 	C 	0.03360 0.97300 0.02020 -0.12300
C 	C 	0.08080 0.02310 0.98480 -0.04300
C 	C 	0.03410 0.99840 0.08210 0.27900
C 	C 	0.07430 0.06430 0.08900 -0.24400
C 	C 	0.93730 0.85450 0.01070 -0.55000
C 	C 	0.99400 0.95090 0.13260 -0.75500
C 	C 	0.94210 0.66460 0.90590 0.40300
C 	C 	0.96460 0.62040 0.96170 -0.25900
C 	C 	0.04150 0.58160 0.97460 0.29000
C 	C 	0.13150 0.57790 0.94360 -0.78800
C 	C 	0.68590 0.72280 0.73080 0.45500
C 	C 	0.58660 0.73000 0.72560 -0.31300
C 	C 	0.51960 0.70410 0.76590 0.47100
C 	C 	0.42800 0.72230 0.74680 -0.34100
C 	C 	0.43030 0.76290 0.69690 0.07400
C 	C 	0.53580 0.66710 0.82060 -1.07300
C 	C 	0.03400 0.38640 0.14380 0.36000
C 	C 	0.01970 0.44940 0.10230 -0.20700
C 	C 	0.07570 0.48260 0.05840 0.27900
C 	C 	0.02420 0.53770 0.02780 -0.19000
C 	C 	0.93780 0.54650 0.05320 0.03500
C 	C 	0.17740 0.46290 0.04240 -0.79200
C 	C 	0.07330 0.11630 0.13610 0.41300
C 	C 	0.83120 0.24570 0.24300 0.39900
C 	C 	0.72740 0.25250 0.23390 -0.23100
C 	C 	0.66190 0.29160 0.27120 0.41000
C 	C 	0.68370 0.33060 0.32510 -0.97300
C 	C 	0.01300 0.12220 0.36940 0.48700
C 	C 	0.98260 0.07840 0.42280 -0.24100
C 	C 	0.00440 0.08600 0.48460 0.35200
C 	C 	0.96640 0.02700 0.52020 -0.25600
C 	C 	0.91920 0.97690 0.48480 0.04300
C 	C 	0.96590 0.00160 0.58210 0.34900
C 	C 	0.92570 0.93570 0.58900 -0.26900
C 	C 	0.06270 0.14550 0.51070 -0.90300
C 	C 	0.00600 0.04910 0.63260 -0.85000
C 	C 	0.05790 0.33540 0.40590 0.39900
C 	C 	0.03540 0.37960 0.46170 -0.25400
C 	C 	0.95850 0.41840 0.47460 0.35200
C 	C 	0.86850 0.42210 0.44360 -0.87100
C 	C 	0.31410 0.27720 0.23080 0.45800
C 	C 	0.41340 0.27000 0.22560 -0.31700
C 	C 	0.48040 0.29590 0.26590 0.48100
C 	C 	0.57200 0.27770 0.24680 -0.34600
C 	C 	0.56970 0.23710 0.19690 0.07500
C 	C 	0.46420 0.33290 0.32060 -1.09400
C 	C 	0.96600 0.61360 0.64380 0.36500
C 	C 	0.98030 0.55060 0.60230 -0.20600
C 	C 	0.92430 0.51740 0.55840 0.28400
C 	C 	0.97580 0.46230 0.52780 -0.23500
C 	C 	0.06220 0.45350 0.55320 0.04700
C 	C 	0.82260 0.53710 0.54240 -0.78400
C 	C 	0.92670 0.88370 0.63610 0.42400
S 	S 	0.32030 0.79390 0.67150 0.01200
S 	S 	0.08110 0.00100 0.90820 -0.01900
S 	S 	0.11770 0.10060 0.02110 0.04800
S 	S 	0.87150 0.60820 0.01230 0.05900
S 	S 	0.53660 0.77790 0.66460 0.01500
S 	S 	0.91350 0.48880 0.11050 0.01300
S 	S 	0.67970 0.20610 0.17150 0.02100
S 	S 	0.91890 0.99900 0.40820 -0.02000
S 	S 	0.88230 0.89940 0.52110 -0.00100
S 	S 	0.12850 0.39180 0.51230 0.01600
S 	S 	0.46340 0.22210 0.16460 0.02600
S 	S 	0.08650 0.51120 0.61050 -0.00100
O 	O 	0.92450 0.74750 0.75780 -0.94800
O 	O 	0.13020 0.71120 0.77730 -0.51900
O 	O 	0.13090 0.81020 0.71480 -0.46500
O 	O 	0.02840 0.89030 0.82170 -0.53600
O 	O 	0.92350 0.83650 0.87890 -0.53000
O 	O 	0.86030 0.68920 0.89850 -0.52600
O 	O 	0.00530 0.67260 0.86680 -0.53000
O 	O 	0.72350 0.69940 0.77470 -0.54900
O 	O 	0.72650 0.75050 0.68380 -0.50400
O 	O 	0.11740 0.34940 0.13640 -0.48400
O 	O 	0.97710 0.36740 0.18070 -0.50400
O 	O 	0.03820 0.09710 0.18980 -0.48700
O 	O 	0.10980 0.17770 0.12780 -0.48800
O 	O 	0.07550 0.25250 0.25780 -0.95100
O 	O 	0.86980 0.28880 0.27730 -0.51800
O 	O 	0.86910 0.18980 0.21480 -0.46200
O 	O 	0.97160 0.10970 0.32170 -0.53200
O 	O 	0.07650 0.16350 0.37890 -0.53700
O 	O 	0.13970 0.31080 0.39850 -0.51900
O 	O 	0.99470 0.32740 0.36680 -0.52600
O 	O 	0.27650 0.30060 0.27470 -0.54800
O 	O 	0.27350 0.24950 0.18380 -0.50200
O 	O 	0.88260 0.65060 0.63640 -0.48700
O 	O 	0.02290 0.63260 0.68070 -0.51000
O 	O 	0.96180 0.90290 0.68980 -0.49100
O 	O 	0.89020 0.82230 0.62780 -0.49100
