data_crystal

_cell_length_a 9.82500
_cell_length_b 11.29580
_cell_length_c 14.73290
_cell_angle_alpha 91.49430
_cell_angle_beta  90.00000
_cell_angle_gamma 90.00000

_symmetry_space_group_name_	'P 1'
_symmetry_space_group_name_H-M	'P 1'

loop_
_symmetry_equiv_pos_as_xyz
  x,y,z

loop_
_atom_site_label
_atom_site_type_symbol
_atom_site_fract_x
_atom_site_fract_y
_atom_site_fract_z
_atom_site_charge
Zn	Zn	0.92633 0.75695 0.13171 1.28200
Zn	Zn	0.11504 0.74172 0.30792 1.23500
Zn	Zn	0.42633 0.74305 0.36829 1.24500
Zn	Zn	0.61504 0.75828 0.19208 1.25000
Zn	Zn	0.07367 0.24305 0.86829 1.20800
Zn	Zn	0.88496 0.25828 0.69208 1.26500
Zn	Zn	0.57367 0.25695 0.63171 1.24600
Zn	Zn	0.38496 0.24172 0.80792 1.25100
Zn	Zn	-0.00000 0.50000 -0.00000 1.17900
Zn	Zn	0.50000 1.00000 0.50000 1.25400
Zn	Zn	-0.00000 0.00000 -0.00000 1.18100
Zn	Zn	0.50000 0.50000 0.50000 1.25600
H 	H 	0.76270 0.85550 0.36820 -0.09700
H 	H 	0.04980 0.47810 0.25990 -0.13800
H 	H 	0.61810 0.56080 0.04620 -0.12700
H 	H 	0.20740 0.97910 0.22280 -0.13400
H 	H 	0.16360 0.69580 0.92880 -0.15700
H 	H 	0.70650 0.99810 0.02180 -0.12600
H 	H 	0.26270 0.64450 0.13180 -0.13500
H 	H 	0.54980 0.02190 0.24010 -0.10300
H 	H 	0.11810 0.93920 0.45380 -0.13200
H 	H 	0.70740 0.52090 0.27720 -0.09700
H 	H 	0.66360 0.80420 0.57120 -0.08700
H 	H 	0.20650 0.50190 0.47820 -0.11400
H 	H 	0.23730 0.14450 0.63180 -0.11900
H 	H 	0.95020 0.52190 0.74010 -0.06600
H 	H 	0.38190 0.43920 0.95380 -0.05700
H 	H 	0.79260 0.02090 0.77720 -0.09300
H 	H 	0.83640 0.30420 0.07120 -0.02700
H 	H 	0.29350 0.00190 0.97820 -0.05400
H 	H 	0.73730 0.35550 0.86820 -0.07800
H 	H 	0.45020 0.97810 0.75990 -0.10100
H 	H 	0.88190 0.06080 0.54620 -0.05300
H 	H 	0.29260 0.47910 0.72280 -0.13100
H 	H 	0.33640 0.19580 0.42880 -0.10700
H 	H 	0.79350 0.49810 0.52180 -0.07100
C 	C 	0.83460 0.82650 0.33080 0.48200
C 	C 	0.02360 0.51900 0.20710 0.53900
C 	C 	0.71270 0.57670 0.05210 0.50000
C 	C 	0.14190 0.95220 0.17950 0.51800
C 	C 	0.10570 0.74160 0.96760 0.68800
C 	C 	0.72480 0.93430 0.06070 0.49000
C 	C 	0.33460 0.67350 0.16920 0.49900
C 	C 	0.52360 0.98100 0.29290 0.50800
C 	C 	0.21270 0.92330 0.44790 0.49200
C 	C 	0.64190 0.54780 0.32050 0.50100
C 	C 	0.60570 0.75840 0.53240 0.49400
C 	C 	0.22480 0.56570 0.43930 0.50300
C 	C 	0.16540 0.17350 0.66920 0.50400
C 	C 	0.97640 0.48100 0.79290 0.48300
C 	C 	0.28730 0.42330 0.94790 0.46000
C 	C 	0.85810 0.04780 0.82050 0.49400
C 	C 	0.89430 0.25840 0.03240 0.28700
C 	C 	0.27520 0.06570 0.93930 0.48800
C 	C 	0.66540 0.32650 0.83080 0.48600
C 	C 	0.47640 0.01900 0.70710 0.52000
C 	C 	0.78730 0.07670 0.55210 0.47600
C 	C 	0.35810 0.45220 0.67950 0.51200
C 	C 	0.39430 0.24160 0.46760 0.49900
C 	C 	0.77520 0.43430 0.56070 0.48200
O 	O 	0.80720 0.80729 0.24739 -0.54000
O 	O 	0.94650 0.81079 0.36809 -0.37200
O 	O 	0.01280 0.63001 0.21531 -0.64200
O 	O 	0.00360 0.45780 0.13760 -0.53100
O 	O 	0.74830 0.65500 0.11210 -0.56100
O 	O 	0.79080 0.51993 0.00093 -0.46700
O 	O 	0.08730 0.85116 0.19316 -0.62900
O 	O 	0.11850 0.01780 0.11630 -0.52200
O 	O 	0.02930 0.68501 0.02351 -0.75400
O 	O 	0.10940 0.84928 0.96078 -0.48300
O 	O 	0.84850 0.89969 0.06489 -0.56300
O 	O 	0.62660 0.89376 0.10186 -0.46400
O 	O 	0.30720 0.69271 0.25261 -0.57700
O 	O 	0.44650 0.68921 0.13191 -0.47600
O 	O 	0.51280 0.86999 0.28469 -0.58500
O 	O 	0.50360 0.04220 0.36240 -0.44200
O 	O 	0.24830 0.84500 0.38790 -0.58900
O 	O 	0.29080 0.98007 0.49907 -0.45000
O 	O 	0.58730 0.64884 0.30684 -0.57300
O 	O 	0.61850 0.48220 0.38370 -0.44000
O 	O 	0.52930 0.81499 0.47649 -0.57300
O 	O 	0.60940 0.65072 0.53922 -0.44300
O 	O 	0.34850 0.60031 0.43511 -0.58700
O 	O 	0.12660 0.60624 0.39814 -0.48200
O 	O 	0.19280 0.19271 0.75261 -0.60200
O 	O 	0.05350 0.18921 0.63191 -0.52700
O 	O 	0.98720 0.36999 0.78469 -0.52100
O 	O 	0.99640 0.54220 0.86240 -0.33400
O 	O 	0.25170 0.34500 0.88790 -0.58000
O 	O 	0.20920 0.48007 0.99907 -0.38100
O 	O 	0.91270 0.14884 0.80684 -0.51900
O 	O 	0.88150 0.98220 0.88370 -0.35500
O 	O 	0.97070 0.31499 0.97649 -0.36300
O 	O 	0.89060 0.15072 0.03922 -0.38700
O 	O 	0.15150 0.10031 0.93511 -0.57500
O 	O 	0.37340 0.10624 0.89814 -0.42300
O 	O 	0.69280 0.30729 0.74739 -0.56400
O 	O 	0.55350 0.31079 0.86809 -0.42000
O 	O 	0.48720 0.13001 0.71531 -0.58400
O 	O 	0.49640 0.95780 0.63760 -0.44700
O 	O 	0.75170 0.15500 0.61210 -0.55700
O 	O 	0.70920 0.01993 0.50093 -0.42200
O 	O 	0.41270 0.35116 0.69316 -0.58000
O 	O 	0.38150 0.51780 0.61630 -0.45700
O 	O 	0.47070 0.18501 0.52351 -0.57400
O 	O 	0.39060 0.34928 0.46078 -0.45800
O 	O 	0.65150 0.39969 0.56489 -0.57200
O 	O 	0.87340 0.39376 0.60186 -0.40600
