data_crystal

_cell_length_a 9.38240
_cell_length_b 13.61130
_cell_length_c 18.27010
_cell_angle_alpha 74.73190
_cell_angle_beta  86.38240
_cell_angle_gamma 88.51070

_symmetry_space_group_name_	'P 1'
_symmetry_space_group_name_H-M	'P 1'

loop_
_symmetry_equiv_pos_as_xyz
  x,y,z

loop_
_atom_site_label
_atom_site_type_symbol
_atom_site_fract_x
_atom_site_fract_y
_atom_site_fract_z
_atom_site_charge
Eu	Eu	0.22305 0.03201 0.99712 2.10000
Eu	Eu	0.77695 0.96799 0.00288 2.10000
H 	H 	0.33660 0.80950 0.02980 0.24700
H 	H 	0.75990 0.02180 0.18560 0.00700
H 	H 	0.67420 0.03160 0.30550 0.07700
H 	H 	0.98850 0.23030 0.30670 0.07000
H 	H 	0.07810 0.21420 0.18910 0.01100
H 	H 	0.50730 0.12160 0.52220 0.05800
H 	H 	0.98030 0.12310 0.43270 0.06100
H 	H 	0.49970 0.19760 0.62450 0.08200
H 	H 	0.41670 0.16100 0.75010 -0.00100
H 	H 	0.73280 0.95270 0.80790 0.01100
H 	H 	0.81440 0.98650 0.68070 0.08200
H 	H 	0.01180 0.04590 0.59950 0.04500
H 	H 	0.94620 0.14610 0.62000 0.05200
H 	H 	0.28120 0.22100 0.54080 0.09600
H 	H 	0.18960 0.18760 0.62000 0.08800
H 	H 	0.25530 0.10280 0.58100 0.08800
H 	H 	0.46250 0.08750 0.37840 0.04700
H 	H 	0.54480 0.18300 0.32280 0.04500
H 	H 	0.21750 0.27170 0.38380 0.09100
H 	H 	0.30160 0.25670 0.30850 0.08200
H 	H 	0.24100 0.15990 0.37210 0.08600
H 	H 	0.18740 0.26530 0.79520 -0.00300
H 	H 	0.19730 0.38100 0.67580 0.09700
H 	H 	0.78370 0.32400 0.65290 0.08800
H 	H 	0.77570 0.20580 0.77140 0.00600
H 	H 	0.91020 0.33590 0.52530 0.06800
H 	H 	0.05500 0.54590 0.67010 0.04600
H 	H 	0.07530 0.65410 0.60880 0.05000
H 	H 	0.40760 0.57160 0.68840 0.09500
H 	H 	0.30620 0.67030 0.67460 0.09700
H 	H 	0.25240 0.56520 0.73100 0.08600
H 	H 	0.66340 0.19050 0.97020 0.24800
H 	H 	0.24010 0.97820 0.81440 0.00800
H 	H 	0.32580 0.96840 0.69450 0.07800
H 	H 	0.01150 0.76970 0.69330 0.07100
H 	H 	0.92190 0.78580 0.81090 0.01100
H 	H 	0.49270 0.87840 0.47780 0.05800
H 	H 	0.01970 0.87690 0.56730 0.06100
H 	H 	0.50030 0.80240 0.37550 0.08200
H 	H 	0.58330 0.83900 0.24990 -0.00100
H 	H 	0.26720 0.04730 0.19210 0.01100
H 	H 	0.18560 0.01350 0.31930 0.08200
H 	H 	0.98820 0.95410 0.40050 0.04500
H 	H 	0.05380 0.85390 0.38000 0.05200
H 	H 	0.71880 0.77900 0.45920 0.09600
H 	H 	0.81040 0.81240 0.38000 0.08800
H 	H 	0.74470 0.89720 0.41900 0.08800
H 	H 	0.53750 0.91250 0.62160 0.04700
H 	H 	0.45520 0.81700 0.67720 0.04500
H 	H 	0.78250 0.72830 0.61620 0.09100
H 	H 	0.69840 0.74330 0.69150 0.08200
H 	H 	0.75900 0.84010 0.62790 0.08600
H 	H 	0.81260 0.73470 0.20480 -0.00300
H 	H 	0.80270 0.61900 0.32420 0.09700
H 	H 	0.21630 0.67600 0.34710 0.08800
H 	H 	0.22430 0.79420 0.22860 0.00600
H 	H 	0.08980 0.66410 0.47470 0.06800
H 	H 	0.94500 0.45410 0.32990 0.04600
H 	H 	0.92470 0.34590 0.39120 0.05000
H 	H 	0.59240 0.42840 0.31160 0.09500
H 	H 	0.69380 0.32970 0.32540 0.09700
H 	H 	0.74760 0.43480 0.26900 0.08600
C 	C 	0.99040 0.10170 0.10170 0.45700
C 	C 	0.92820 0.11640 0.17600 -0.17700
C 	C 	0.80760 0.06300 0.21080 0.08600
C 	C 	0.75620 0.06930 0.28200 -0.14800
C 	C 	0.82390 0.13110 0.32020 0.07600
C 	C 	0.94290 0.18620 0.28310 -0.14700
C 	C 	0.99520 0.17770 0.21260 0.07600
C 	C 	0.77850 0.13020 0.40030 -0.03000
C 	C 	0.63350 0.13320 0.42720 0.02900
C 	C 	0.60440 0.12190 0.50400 -0.05900
C 	C 	0.71070 0.11070 0.55670 -0.03600
C 	C 	0.85370 0.11470 0.52940 0.03300
C 	C 	0.88330 0.12280 0.45110 -0.06500
C 	C 	0.66470 0.09420 0.63830 0.09000
C 	C 	0.54660 0.14670 0.66130 -0.16500
C 	C 	0.49800 0.12540 0.73610 0.09700
C 	C 	0.56540 0.05300 0.79160 -0.20100
C 	C 	0.68450 0.00180 0.77040 0.09100
C 	C 	0.73310 0.02220 0.69450 -0.16000
C 	C 	0.51020 0.02800 0.87390 0.50600
C 	C 	0.97710 0.11620 0.57770 -0.04100
C 	C 	0.21290 0.17130 0.57150 -0.18600
C 	C 	0.50980 0.15250 0.37600 -0.03700
C 	C 	0.28340 0.22730 0.36320 -0.18000
C 	C 	0.97680 0.15040 0.87320 0.50300
C 	C 	0.98020 0.22520 0.79570 -0.19900
C 	C 	0.10500 0.27720 0.76630 0.10000
C 	C 	0.11090 0.34620 0.69540 -0.17300
C 	C 	0.98970 0.36480 0.65270 0.10400
C 	C 	0.86630 0.31220 0.68170 -0.16500
C 	C 	0.86110 0.24220 0.75250 0.09800
C 	C 	0.94630 0.40300 0.51510 -0.06800
C 	C 	0.99530 0.43670 0.57470 -0.02900
C 	C 	0.05100 0.53520 0.55860 0.03900
C 	C 	0.10110 0.58090 0.62010 -0.04400
C 	C 	0.30850 0.59610 0.68390 -0.19500
C 	C 	0.00960 0.89830 0.89830 0.45700
C 	C 	0.07180 0.88360 0.82400 -0.17700
C 	C 	0.19240 0.93700 0.78920 0.08600
C 	C 	0.24380 0.93070 0.71800 -0.14800
C 	C 	0.17610 0.86890 0.67980 0.07600
C 	C 	0.05710 0.81380 0.71690 -0.14700
C 	C 	0.00480 0.82230 0.78740 0.07600
C 	C 	0.22150 0.86980 0.59970 -0.03000
C 	C 	0.36650 0.86680 0.57280 0.02900
C 	C 	0.39560 0.87810 0.49600 -0.05900
C 	C 	0.28930 0.88930 0.44330 -0.03600
C 	C 	0.14630 0.88530 0.47060 0.03300
C 	C 	0.11670 0.87720 0.54890 -0.06500
C 	C 	0.33530 0.90580 0.36170 0.09000
C 	C 	0.45340 0.85330 0.33870 -0.16500
C 	C 	0.50200 0.87460 0.26390 0.09700
C 	C 	0.43460 0.94700 0.20840 -0.20100
C 	C 	0.31550 0.99820 0.22960 0.09100
C 	C 	0.26690 0.97780 0.30550 -0.16000
C 	C 	0.48980 0.97200 0.12610 0.50600
C 	C 	0.02290 0.88380 0.42230 -0.04100
C 	C 	0.78710 0.82870 0.42850 -0.18600
C 	C 	0.49020 0.84750 0.62400 -0.03700
C 	C 	0.71660 0.77270 0.63680 -0.18000
C 	C 	0.02320 0.84960 0.12680 0.50300
C 	C 	0.01980 0.77480 0.20430 -0.19900
C 	C 	0.89500 0.72280 0.23370 0.10000
C 	C 	0.88910 0.65380 0.30460 -0.17300
C 	C 	0.01030 0.63520 0.34730 0.10400
C 	C 	0.13370 0.68780 0.31830 -0.16500
C 	C 	0.13890 0.75780 0.24750 0.09800
C 	C 	0.05370 0.59700 0.48490 -0.06800
C 	C 	0.00470 0.56330 0.42530 -0.02900
C 	C 	0.94900 0.46480 0.44140 0.03900
C 	C 	0.89890 0.41910 0.37990 -0.04400
C 	C 	0.69150 0.40390 0.31610 -0.19500
O 	O 	0.11760 0.12870 0.08210 -0.47800
O 	O 	0.91570 0.06020 0.06350 -0.54300
O 	O 	0.41380 0.21810 0.39970 -0.14500
O 	O 	0.08720 0.17480 0.53220 -0.14500
O 	O 	0.38970 0.06060 0.88880 -0.51600
O 	O 	0.58820 0.97420 0.92190 -0.51000
O 	O 	0.86690 0.09660 0.89450 -0.51400
O 	O 	0.08340 0.14870 0.91120 -0.54500
O 	O 	0.24900 0.56840 0.62160 -0.13800
O 	O 	0.35210 0.86940 0.00200 -0.50300
O 	O 	0.88240 0.87130 0.91790 -0.47800
O 	O 	0.08430 0.93980 0.93650 -0.54300
O 	O 	0.58620 0.78190 0.60030 -0.14500
O 	O 	0.91280 0.82520 0.46780 -0.14500
O 	O 	0.61030 0.93940 0.11120 -0.51600
O 	O 	0.41180 0.02580 0.07810 -0.51000
O 	O 	0.13310 0.90340 0.10550 -0.51400
O 	O 	0.91660 0.85130 0.08880 -0.54500
O 	O 	0.75100 0.43160 0.37840 -0.13800
O 	O 	0.64790 0.13060 0.99800 -0.50300
