data_crystal

_cell_length_a 12.41760
_cell_length_b 22.53460
_cell_length_c 10.16440
_cell_angle_alpha 90.00000
_cell_angle_beta  107.05400
_cell_angle_gamma 90.00000

_symmetry_space_group_name_	'P 1'
_symmetry_space_group_name_H-M	'P 1'

loop_
_symmetry_equiv_pos_as_xyz
  x,y,z

loop_
_atom_site_label
_atom_site_type_symbol
_atom_site_fract_x
_atom_site_fract_y
_atom_site_fract_z
_atom_site_charge
C 	C 	0.15780 0.64303 0.88400 0.45200
C 	C 	0.11610 0.70667 0.85900 -0.27100
H 	H 	0.16100 0.72760 0.80730 0.12200
H 	H 	0.03680 0.70620 0.80050 0.12600
C 	C 	0.03990 0.74712 0.04150 0.06400
H 	H 	0.96630 0.73090 0.00800 -0.01000
C 	C 	0.21690 0.77000 0.06380 -0.05500
H 	H 	0.28840 0.77210 0.04760 0.03500
C 	C 	0.18770 0.79530 0.16830 0.02300
H 	H 	0.23480 0.81910 0.23940 0.02800
C 	C 	0.01120 0.79910 0.24410 -0.19400
H 	H 	0.06010 0.79740 0.34050 0.09900
H 	H 	0.94920 0.77040 0.23510 0.07900
C 	C 	0.96130 0.86091 0.21610 0.37100
C 	C 	0.54980 0.48951 0.88410 0.47200
C 	C 	0.65920 0.49700 0.84590 -0.28800
H 	H 	0.65470 0.47300 0.76270 0.12600
H 	H 	0.66730 0.53910 0.82280 0.13200
C 	C 	0.80900 0.42393 0.97460 0.09000
H 	H 	0.78670 0.39040 0.91630 0.01400
C 	C 	0.89570 0.42639 0.09160 -0.09500
H 	H 	0.94690 0.39530 0.13020 0.05800
C 	C 	0.81200 0.51405 0.06030 0.02000
H 	H 	0.79350 0.55420 0.07260 0.02200
C 	C 	0.98300 0.50770 0.26030 -0.30300
H 	H 	0.99540 0.48130 0.34110 0.12400
H 	H 	0.95900 0.54700 0.28500 0.12100
C 	C 	0.09210 0.51418 0.22180 0.43500
N 	N 	0.12270 0.74027 0.98450 -0.03300
N 	N 	0.07730 0.78048 0.15320 -0.08900
N 	N 	0.75900 0.47900 0.95580 -0.05500
N 	N 	0.89530 0.48298 0.14430 -0.05500
O 	O 	0.91210 0.87796 0.30160 -0.41800
O 	O 	0.35590 0.54702 0.99350 -0.65200
H 	H 	0.38400 0.57950 0.02800 0.22200
O 	O 	0.27580 0.54084 0.60110 -0.73500
H 	H 	0.22500 0.56540 0.56400 0.28900
O 	O 	0.17280 0.62125 0.00250 -0.45400
O 	O 	0.16820 0.61713 0.78040 -0.39800
O 	O 	0.97230 0.88844 0.11350 -0.41700
O 	O 	0.55780 0.48169 0.00960 -0.45600
O 	O 	0.46120 0.49278 0.78690 -0.47500
O 	O 	0.08120 0.52689 0.09790 -0.42200
O 	O 	0.18350 0.50755 0.31380 -0.48300
Cu	Cu	0.42268 0.46962 0.06485 0.92500
Cu	Cu	0.31085 0.55299 0.79600 0.93800
Cu	Cu	0.21609 0.53871 0.04069 0.91400
C 	C 	0.65780 0.14303 0.88400 0.45500
C 	C 	0.61610 0.20667 0.85900 -0.27300
H 	H 	0.66100 0.22760 0.80730 0.12200
H 	H 	0.53680 0.20620 0.80050 0.12300
C 	C 	0.53990 0.24712 0.04150 0.02200
H 	H 	0.46630 0.23090 0.00800 0.01900
C 	C 	0.71690 0.27000 0.06380 -0.05700
H 	H 	0.78840 0.27210 0.04760 0.03300
C 	C 	0.68770 0.29530 0.16830 0.01900
H 	H 	0.73480 0.31910 0.23940 0.02700
C 	C 	0.51120 0.29910 0.24410 -0.25600
H 	H 	0.56010 0.29740 0.34050 0.11200
H 	H 	0.44920 0.27040 0.23510 0.10800
C 	C 	0.46130 0.36091 0.21610 0.40100
C 	C 	0.04980 0.98951 0.88410 0.48700
C 	C 	0.15920 0.99700 0.84590 -0.29600
H 	H 	0.15470 0.97300 0.76270 0.13000
H 	H 	0.16730 0.03910 0.82280 0.13600
C 	C 	0.30900 0.92393 0.97460 0.08500
H 	H 	0.28670 0.89040 0.91630 0.01700
C 	C 	0.39570 0.92639 0.09160 -0.08700
H 	H 	0.44690 0.89530 0.13020 0.06100
C 	C 	0.31200 0.01405 0.06030 0.02700
H 	H 	0.29350 0.05420 0.07260 0.02300
C 	C 	0.48300 0.00770 0.26030 -0.28000
H 	H 	0.49540 0.98130 0.34110 0.12300
H 	H 	0.45900 0.04700 0.28500 0.11900
C 	C 	0.59210 0.01418 0.22180 0.41700
N 	N 	0.62270 0.24027 0.98450 -0.02400
N 	N 	0.57730 0.28048 0.15320 -0.07600
N 	N 	0.25900 0.97900 0.95580 -0.05500
N 	N 	0.39530 0.98298 0.14430 -0.05700
O 	O 	0.41210 0.37796 0.30160 -0.42200
O 	O 	0.85590 0.04702 0.99350 -0.64900
H 	H 	0.88400 0.07950 0.02800 0.21600
O 	O 	0.77580 0.04084 0.60110 -0.73400
H 	H 	0.72500 0.06540 0.56400 0.28700
O 	O 	0.67280 0.12125 0.00250 -0.46000
O 	O 	0.66820 0.11713 0.78040 -0.40200
O 	O 	0.47230 0.38844 0.11350 -0.41600
O 	O 	0.05780 0.98169 0.00960 -0.44900
O 	O 	0.96120 0.99278 0.78690 -0.48900
O 	O 	0.58120 0.02689 0.09790 -0.42500
O 	O 	0.68350 0.00755 0.31380 -0.48000
Cu	Cu	0.92268 0.96962 0.06485 0.92000
Cu	Cu	0.81085 0.05299 0.79600 0.93800
Cu	Cu	0.71609 0.03871 0.04069 0.91200
C 	C 	0.15780 0.35697 0.38400 0.38800
C 	C 	0.11610 0.29333 0.35900 -0.24000
H 	H 	0.16100 0.27240 0.30730 0.10400
H 	H 	0.03680 0.29380 0.30050 0.10900
C 	C 	0.03990 0.25288 0.54150 0.10800
H 	H 	0.96630 0.26910 0.50800 -0.00600
C 	C 	0.21690 0.23000 0.56380 -0.00000
H 	H 	0.28840 0.22790 0.54760 0.03200
C 	C 	0.18770 0.20470 0.66830 0.00800
H 	H 	0.23480 0.18090 0.73940 0.04200
C 	C 	0.01120 0.20090 0.74410 -0.20400
H 	H 	0.06010 0.20260 0.84050 0.11100
H 	H 	0.94920 0.22960 0.73510 0.09100
C 	C 	0.96130 0.13909 0.71610 0.37700
C 	C 	0.54980 0.51049 0.38410 0.41000
C 	C 	0.65920 0.50300 0.34590 -0.26900
H 	H 	0.65470 0.52700 0.26270 0.11700
H 	H 	0.66730 0.46090 0.32280 0.11800
C 	C 	0.80900 0.57607 0.47460 -0.00000
H 	H 	0.78670 0.60960 0.41630 0.03000
C 	C 	0.89570 0.57361 0.59160 -0.00800
H 	H 	0.94690 0.60470 0.63020 0.03800
C 	C 	0.81200 0.48595 0.56030 0.07200
H 	H 	0.79350 0.44580 0.57260 0.01800
C 	C 	0.98300 0.49230 0.76030 -0.29600
H 	H 	0.99540 0.51870 0.84110 0.13400
H 	H 	0.95900 0.45300 0.78500 0.12800
C 	C 	0.09210 0.48582 0.72180 0.43100
N 	N 	0.12270 0.25973 0.48450 -0.08600
N 	N 	0.07730 0.21952 0.65320 -0.08800
N 	N 	0.75900 0.52100 0.45580 -0.07500
N 	N 	0.89530 0.51702 0.64430 -0.07100
O 	O 	0.91210 0.12204 0.80160 -0.40800
O 	O 	0.35590 0.45298 0.49350 -0.73500
H 	H 	0.38400 0.42050 0.52800 0.28600
O 	O 	0.27580 0.45916 0.10110 -0.74300
H 	H 	0.22500 0.43460 0.06400 0.28100
O 	O 	0.17280 0.37875 0.50250 -0.40300
O 	O 	0.16820 0.38287 0.28040 -0.38900
O 	O 	0.97230 0.11156 0.61350 -0.40800
O 	O 	0.55780 0.51831 0.50960 -0.40600
O 	O 	0.46120 0.50722 0.28690 -0.46700
O 	O 	0.08120 0.47311 0.59790 -0.41000
O 	O 	0.18350 0.49245 0.81380 -0.46900
Cu	Cu	0.42268 0.53038 0.56485 0.93700
Cu	Cu	0.31085 0.44701 0.29600 0.93600
Cu	Cu	0.21609 0.46129 0.54069 0.92900
C 	C 	0.65780 0.85697 0.38400 0.38600
C 	C 	0.61610 0.79333 0.35900 -0.24100
H 	H 	0.66100 0.77240 0.30730 0.10200
H 	H 	0.53680 0.79380 0.30050 0.10300
C 	C 	0.53990 0.75288 0.54150 0.07400
H 	H 	0.46630 0.76910 0.50800 0.01600
C 	C 	0.71690 0.73000 0.56380 0.00100
H 	H 	0.78840 0.72790 0.54760 0.03000
C 	C 	0.68770 0.70470 0.66830 0.00300
H 	H 	0.73480 0.68090 0.73940 0.04200
C 	C 	0.51120 0.70090 0.74410 -0.25600
H 	H 	0.56010 0.70260 0.84050 0.12200
H 	H 	0.44920 0.72960 0.73510 0.11500
C 	C 	0.46130 0.63909 0.71610 0.40300
C 	C 	0.04980 0.01049 0.38410 0.43400
C 	C 	0.15920 0.00300 0.34590 -0.27800
H 	H 	0.15470 0.02700 0.26270 0.12300
H 	H 	0.16730 0.96090 0.32280 0.12400
C 	C 	0.30900 0.07607 0.47460 0.00000
H 	H 	0.28670 0.10960 0.41630 0.03200
C 	C 	0.39570 0.07361 0.59160 -0.00500
H 	H 	0.44690 0.10470 0.63020 0.04200
C 	C 	0.31200 0.98595 0.56030 0.07200
H 	H 	0.29350 0.94580 0.57260 0.01900
C 	C 	0.48300 0.99230 0.76030 -0.28000
H 	H 	0.49540 0.01870 0.84110 0.13600
H 	H 	0.45900 0.95300 0.78500 0.12700
C 	C 	0.59210 0.98582 0.72180 0.41700
N 	N 	0.62270 0.75973 0.48450 -0.08200
N 	N 	0.57730 0.71952 0.65320 -0.07700
N 	N 	0.25900 0.02100 0.45580 -0.07400
N 	N 	0.39530 0.01702 0.64430 -0.07100
O 	O 	0.41210 0.62204 0.80160 -0.41100
O 	O 	0.85590 0.95298 0.49350 -0.73700
H 	H 	0.88400 0.92050 0.52800 0.28300
O 	O 	0.77580 0.95916 0.10110 -0.74400
H 	H 	0.72500 0.93460 0.06400 0.27900
O 	O 	0.67280 0.87875 0.50250 -0.40600
O 	O 	0.66820 0.88287 0.28040 -0.39300
O 	O 	0.47230 0.61156 0.61350 -0.40700
O 	O 	0.05780 0.01831 0.50960 -0.40400
O 	O 	0.96120 0.00722 0.28690 -0.48500
O 	O 	0.58120 0.97311 0.59790 -0.41300
O 	O 	0.68350 0.99245 0.81380 -0.46700
Cu	Cu	0.92268 0.03038 0.56485 0.93400
Cu	Cu	0.81085 0.94701 0.29600 0.93500
Cu	Cu	0.71609 0.96129 0.54069 0.92800
