data_crystal

_cell_length_a 12.37500
_cell_length_b 23.37600
_cell_length_c 8.58930
_cell_angle_alpha 90.00000
_cell_angle_beta  104.46000
_cell_angle_gamma 90.00000

_symmetry_space_group_name_	'P 1'
_symmetry_space_group_name_H-M	'P 1'

loop_
_symmetry_equiv_pos_as_xyz
  x,y,z

loop_
_atom_site_label
_atom_site_type_symbol
_atom_site_fract_x
_atom_site_fract_y
_atom_site_fract_z
_atom_site_charge
Cd	Cd	0.23929 0.21877 0.45246 1.25100
O 	O 	0.09410 0.93850 0.34620 -0.24200
O 	O 	0.24840 0.78280 0.62890 -0.25600
O 	O 	0.44320 0.94810 0.67320 -0.23500
O 	O 	0.21640 0.14190 0.61670 -0.41200
O 	O 	0.25560 0.11850 0.39390 -0.38000
O 	O 	0.89570 0.78450 0.10880 -0.42100
O 	O 	0.95140 0.70910 0.24380 -0.36100
O 	O 	0.70690 0.77350 0.78540 -0.50100
O 	O 	0.59440 0.76240 0.93740 -0.44100
N 	N 	0.16690 0.86010 0.48640 -0.21100
N 	N 	0.34540 0.86510 0.65480 -0.21700
N 	N 	0.27040 0.94380 0.50390 -0.21500
C 	C 	0.17070 0.91640 0.43840 0.29700
C 	C 	0.25340 0.83250 0.59290 0.29600
C 	C 	0.35690 0.92140 0.61140 0.28700
C 	C 	0.06270 0.82680 0.42380 0.17100
H 	H 	0.99990 0.85270 0.39070 0.01100
H 	H 	0.04910 0.80220 0.50780 -0.00200
C 	C 	0.07390 0.79110 0.28270 -0.48000
H 	H 	0.13350 0.76340 0.31780 0.21100
H 	H 	0.09310 0.81550 0.20230 0.21200
C 	C 	0.96610 0.76010 0.20990 0.46000
C 	C 	0.43720 0.83710 0.77330 0.20100
H 	H 	0.40740 0.80590 0.82410 0.00500
H 	H 	0.47090 0.86450 0.85620 0.00200
C 	C 	0.52420 0.81460 0.69700 -0.52400
H 	H 	0.55900 0.84650 0.65550 0.20500
H 	H 	0.48900 0.79040 0.60690 0.20900
C 	C 	0.61340 0.78060 0.81280 0.50200
C 	C 	0.27970 0.00510 0.46500 0.15000
H 	H 	0.24260 0.01150 0.35280 0.02700
H 	H 	0.35780 0.01490 0.48050 0.02200
C 	C 	0.22870 0.04320 0.56790 -0.45500
H 	H 	0.26810 0.03810 0.67980 0.19400
H 	H 	0.15160 0.03220 0.55630 0.19700
C 	C 	0.23330 0.10540 0.52340 0.44500
Cd	Cd	0.76071 0.71877 0.04754 1.24900
O 	O 	0.90590 0.43850 0.15380 -0.24400
O 	O 	0.75160 0.28280 0.87110 -0.25700
O 	O 	0.55680 0.44810 0.82680 -0.23600
O 	O 	0.78360 0.64190 0.88330 -0.41200
O 	O 	0.74440 0.61850 0.10610 -0.38300
O 	O 	0.10430 0.28450 0.39120 -0.42000
O 	O 	0.04860 0.20910 0.25620 -0.36000
O 	O 	0.29310 0.27350 0.71460 -0.50200
O 	O 	0.40560 0.26240 0.56260 -0.44200
N 	N 	0.83310 0.36010 0.01360 -0.21000
N 	N 	0.65460 0.36510 0.84520 -0.21700
N 	N 	0.72960 0.44380 0.99610 -0.21500
C 	C 	0.82930 0.41640 0.06160 0.29700
C 	C 	0.74660 0.33250 0.90710 0.29500
C 	C 	0.64310 0.42140 0.88860 0.28700
C 	C 	0.93730 0.32680 0.07620 0.16900
H 	H 	0.00010 0.35270 0.10930 0.01400
H 	H 	0.95090 0.30220 0.99220 -0.00100
C 	C 	0.92610 0.29110 0.21730 -0.48100
H 	H 	0.86650 0.26340 0.18220 0.21200
H 	H 	0.90690 0.31550 0.29770 0.21200
C 	C 	0.03390 0.26010 0.29010 0.46200
C 	C 	0.56280 0.33710 0.72670 0.20100
H 	H 	0.59260 0.30590 0.67590 0.00500
H 	H 	0.52910 0.36450 0.64380 0.00100
C 	C 	0.47580 0.31460 0.80300 -0.52400
H 	H 	0.44100 0.34650 0.84450 0.20500
H 	H 	0.51100 0.29040 0.89310 0.20900
C 	C 	0.38660 0.28060 0.68720 0.50200
C 	C 	0.72030 0.50510 0.03500 0.14900
H 	H 	0.75740 0.51150 0.14720 0.02700
H 	H 	0.64220 0.51490 0.01950 0.02200
C 	C 	0.77130 0.54320 0.93210 -0.45600
H 	H 	0.73190 0.53810 0.82020 0.19500
H 	H 	0.84840 0.53220 0.94370 0.19800
C 	C 	0.76670 0.60540 0.97660 0.44900
Cd	Cd	0.76071 0.78123 0.54754 1.25000
O 	O 	0.90590 0.06150 0.65380 -0.24300
O 	O 	0.75160 0.21720 0.37110 -0.25700
O 	O 	0.55680 0.05190 0.32680 -0.23600
O 	O 	0.78360 0.85810 0.38330 -0.41200
O 	O 	0.74440 0.88150 0.60610 -0.38000
O 	O 	0.10430 0.21550 0.89120 -0.42100
O 	O 	0.04860 0.29090 0.75620 -0.36100
O 	O 	0.29310 0.22650 0.21460 -0.50100
O 	O 	0.40560 0.23760 0.06260 -0.44100
N 	N 	0.83310 0.13990 0.51360 -0.21100
N 	N 	0.65460 0.13490 0.34520 -0.21700
N 	N 	0.72960 0.05620 0.49610 -0.21500
C 	C 	0.82930 0.08360 0.56160 0.29700
C 	C 	0.74660 0.16750 0.40710 0.29600
C 	C 	0.64310 0.07860 0.38860 0.28700
C 	C 	0.93730 0.17320 0.57620 0.17100
H 	H 	0.00010 0.14730 0.60930 0.01100
H 	H 	0.95090 0.19780 0.49220 -0.00200
C 	C 	0.92610 0.20890 0.71730 -0.48000
H 	H 	0.86650 0.23660 0.68220 0.21100
H 	H 	0.90690 0.18450 0.79770 0.21200
C 	C 	0.03390 0.23990 0.79010 0.46000
C 	C 	0.56280 0.16290 0.22670 0.20100
H 	H 	0.59260 0.19410 0.17590 0.00500
H 	H 	0.52910 0.13550 0.14380 0.00200
C 	C 	0.47580 0.18540 0.30300 -0.52400
H 	H 	0.44100 0.15350 0.34450 0.20500
H 	H 	0.51100 0.20960 0.39310 0.20900
C 	C 	0.38660 0.21940 0.18720 0.50200
C 	C 	0.72030 0.99490 0.53500 0.15000
H 	H 	0.75740 0.98850 0.64720 0.02700
H 	H 	0.64220 0.98510 0.51950 0.02200
C 	C 	0.77130 0.95680 0.43210 -0.45500
H 	H 	0.73190 0.96190 0.32020 0.19400
H 	H 	0.84840 0.96780 0.44370 0.19700
C 	C 	0.76670 0.89460 0.47660 0.44500
Cd	Cd	0.23929 0.28123 0.95246 1.24900
O 	O 	0.09410 0.56150 0.84620 -0.24400
O 	O 	0.24840 0.71720 0.12890 -0.25700
O 	O 	0.44320 0.55190 0.17320 -0.23600
O 	O 	0.21640 0.35810 0.11670 -0.41200
O 	O 	0.25560 0.38150 0.89390 -0.38300
O 	O 	0.89570 0.71550 0.60880 -0.42000
O 	O 	0.95140 0.79090 0.74380 -0.36000
O 	O 	0.70690 0.72650 0.28540 -0.50200
O 	O 	0.59440 0.73760 0.43740 -0.44200
N 	N 	0.16690 0.63990 0.98640 -0.21000
N 	N 	0.34540 0.63490 0.15480 -0.21700
N 	N 	0.27040 0.55620 0.00390 -0.21500
C 	C 	0.17070 0.58360 0.93840 0.29700
C 	C 	0.25340 0.66750 0.09290 0.29500
C 	C 	0.35690 0.57860 0.11140 0.28700
C 	C 	0.06270 0.67320 0.92380 0.16900
H 	H 	0.99990 0.64730 0.89070 0.01400
H 	H 	0.04910 0.69780 0.00780 -0.00100
C 	C 	0.07390 0.70890 0.78270 -0.48100
H 	H 	0.13350 0.73660 0.81780 0.21200
H 	H 	0.09310 0.68450 0.70230 0.21200
C 	C 	0.96610 0.73990 0.70990 0.46200
C 	C 	0.43720 0.66290 0.27330 0.20100
H 	H 	0.40740 0.69410 0.32410 0.00500
H 	H 	0.47090 0.63550 0.35620 0.00100
C 	C 	0.52420 0.68540 0.19700 -0.52400
H 	H 	0.55900 0.65350 0.15550 0.20500
H 	H 	0.48900 0.70960 0.10690 0.20900
C 	C 	0.61340 0.71940 0.31280 0.50200
C 	C 	0.27970 0.49490 0.96500 0.14900
H 	H 	0.24260 0.48850 0.85280 0.02700
H 	H 	0.35780 0.48510 0.98050 0.02200
C 	C 	0.22870 0.45680 0.06790 -0.45600
H 	H 	0.26810 0.46190 0.17980 0.19500
H 	H 	0.15160 0.46780 0.05630 0.19800
C 	C 	0.23330 0.39460 0.02340 0.44900
