data_crystal

_cell_length_a 9.97190
_cell_length_b 21.62000
_cell_length_c 14.04530
_cell_angle_alpha 91.58400
_cell_angle_beta  90.00000
_cell_angle_gamma 90.00000

_symmetry_space_group_name_	'P 1'
_symmetry_space_group_name_H-M	'P 1'

loop_
_symmetry_equiv_pos_as_xyz
  x,y,z

loop_
_atom_site_label
_atom_site_type_symbol
_atom_site_fract_x
_atom_site_fract_y
_atom_site_fract_z
_atom_site_charge
Er	Er	0.43344 0.74146 0.72636 1.80200
Er	Er	0.24572 0.75006 0.97417 1.94300
Er	Er	0.93344 0.25854 0.77364 1.80200
Er	Er	0.74572 0.24994 0.52583 1.94300
Er	Er	0.56656 0.25854 0.27364 1.80200
Er	Er	0.75428 0.24994 0.02583 1.94300
Er	Er	0.06656 0.74146 0.22636 1.80200
Er	Er	0.25428 0.75006 0.47417 1.94300
H 	H 	0.64400 0.53750 0.86490 0.08100
H 	H 	0.70280 0.43910 0.81400 0.06700
H 	H 	0.32080 0.38720 0.82280 0.05500
H 	H 	0.26070 0.48490 0.87320 0.08300
H 	H 	0.31710 0.57970 0.94560 0.19600
H 	H 	0.46700 0.59480 0.96870 0.19500
H 	H 	0.61420 0.33840 0.72790 0.18200
H 	H 	0.48030 0.31310 0.77080 0.16900
H 	H 	0.82160 0.90720 0.79420 0.05700
H 	H 	0.76750 0.99760 0.87440 0.07700
H 	H 	0.15220 0.04410 0.88270 0.07300
H 	H 	0.20800 0.95260 0.80800 0.07100
H 	H 	0.10660 0.86990 0.68290 0.20600
H 	H 	0.97560 0.83910 0.72060 0.19000
H 	H 	0.82510 0.08860 0.95710 0.20600
H 	H 	0.97360 0.09590 0.99140 0.20200
H 	H 	0.58570 0.52810 0.35540 0.07300
H 	H 	0.50690 0.56840 0.62960 0.08700
H 	H 	0.63660 0.62960 0.41300 0.19400
H 	H 	0.70350 0.62380 0.51370 0.19700
H 	H 	0.45010 0.97960 0.84230 0.07700
H 	H 	0.59650 0.92530 0.09080 0.06400
H 	H 	0.57020 0.88420 0.84550 0.19500
H 	H 	0.64410 0.86460 0.93830 0.17900
H 	H 	0.14400 0.46250 0.63510 0.08100
H 	H 	0.20280 0.56090 0.68600 0.06700
H 	H 	0.82080 0.61280 0.67720 0.05500
H 	H 	0.76070 0.51510 0.62680 0.08300
H 	H 	0.81710 0.42030 0.55440 0.19600
H 	H 	0.96700 0.40520 0.53130 0.19500
H 	H 	0.11420 0.66160 0.77210 0.18200
H 	H 	0.98030 0.68690 0.72920 0.16900
H 	H 	0.32160 0.09280 0.70580 0.05800
H 	H 	0.26750 0.00240 0.62560 0.07600
H 	H 	0.65220 0.95590 0.61730 0.07300
H 	H 	0.70800 0.04740 0.69200 0.07100
H 	H 	0.60660 0.13010 0.81710 0.20600
H 	H 	0.47560 0.16090 0.77940 0.19000
H 	H 	0.32510 0.91140 0.54290 0.20600
H 	H 	0.47360 0.90410 0.50860 0.20100
H 	H 	0.08570 0.47190 0.14460 0.07300
H 	H 	0.00690 0.43160 0.87040 0.08800
H 	H 	0.13660 0.37040 0.08700 0.19400
H 	H 	0.20350 0.37620 0.98630 0.19700
H 	H 	0.95010 0.02040 0.65770 0.07700
H 	H 	0.09650 0.07470 0.40920 0.06400
H 	H 	0.07020 0.11580 0.65450 0.19500
H 	H 	0.14410 0.13540 0.56170 0.17900
H 	H 	0.35600 0.46250 0.13510 0.08100
H 	H 	0.29720 0.56090 0.18600 0.06700
H 	H 	0.67920 0.61280 0.17720 0.05500
H 	H 	0.73930 0.51510 0.12680 0.08300
H 	H 	0.68290 0.42030 0.05440 0.19600
H 	H 	0.53300 0.40520 0.03130 0.19500
H 	H 	0.38580 0.66160 0.27210 0.18200
H 	H 	0.51970 0.68690 0.22920 0.16900
H 	H 	0.17840 0.09280 0.20580 0.05700
H 	H 	0.23250 0.00240 0.12560 0.07700
H 	H 	0.84780 0.95590 0.11730 0.07300
H 	H 	0.79200 0.04740 0.19200 0.07100
H 	H 	0.89340 0.13010 0.31710 0.20600
H 	H 	0.02440 0.16090 0.27940 0.19000
H 	H 	0.17490 0.91140 0.04290 0.20600
H 	H 	0.02640 0.90410 0.00860 0.20200
H 	H 	0.41430 0.47190 0.64460 0.07300
H 	H 	0.49310 0.43160 0.37040 0.08700
H 	H 	0.36340 0.37040 0.58700 0.19400
H 	H 	0.29650 0.37620 0.48630 0.19700
H 	H 	0.54990 0.02040 0.15770 0.07700
H 	H 	0.40350 0.07470 0.90920 0.06400
H 	H 	0.42980 0.11580 0.15450 0.19500
H 	H 	0.35590 0.13540 0.06170 0.17900
H 	H 	0.85600 0.53750 0.36490 0.08100
H 	H 	0.79720 0.43910 0.31400 0.06700
H 	H 	0.17920 0.38720 0.32280 0.05500
H 	H 	0.23930 0.48490 0.37320 0.08300
H 	H 	0.18290 0.57970 0.44560 0.19600
H 	H 	0.03300 0.59480 0.46870 0.19500
H 	H 	0.88580 0.33840 0.22790 0.18200
H 	H 	0.01970 0.31310 0.27080 0.16900
H 	H 	0.67840 0.90720 0.29420 0.05800
H 	H 	0.73250 0.99760 0.37440 0.07600
H 	H 	0.34780 0.04410 0.38270 0.07300
H 	H 	0.29200 0.95260 0.30800 0.07100
H 	H 	0.39340 0.86990 0.18290 0.20600
H 	H 	0.52440 0.83910 0.22060 0.19000
H 	H 	0.67490 0.08860 0.45710 0.20600
H 	H 	0.52640 0.09590 0.49140 0.20100
H 	H 	0.91430 0.52810 0.85540 0.07300
H 	H 	0.99310 0.56840 0.12960 0.08800
H 	H 	0.86340 0.62960 0.91300 0.19400
H 	H 	0.79650 0.62380 0.01370 0.19700
H 	H 	0.04990 0.97960 0.34230 0.07700
H 	H 	0.90350 0.92530 0.59080 0.06400
H 	H 	0.92980 0.88420 0.34550 0.19500
H 	H 	0.85590 0.86460 0.43830 0.17900
C 	C 	0.44650 0.52150 0.87600 0.21500
C 	C 	0.57830 0.50730 0.85700 -0.14200
C 	C 	0.61320 0.44820 0.82630 -0.09800
C 	C 	0.51880 0.40270 0.81380 0.15200
C 	C 	0.38650 0.41740 0.83150 -0.09600
C 	C 	0.35060 0.47580 0.86190 -0.15100
C 	C 	0.40540 0.58390 0.91750 -0.57800
C 	C 	0.40110 0.63580 0.85160 0.57900
C 	C 	0.55970 0.33760 0.78500 -0.49900
C 	C 	0.63690 0.30840 0.86250 0.50400
C 	C 	0.02090 0.91950 0.79210 0.18800
C 	C 	0.88950 0.93460 0.81250 -0.11300
C 	C 	0.85670 0.98940 0.85930 -0.14200
C 	C 	0.95310 0.03180 0.88390 0.20600
C 	C 	0.08460 0.01650 0.86470 -0.12600
C 	C 	0.11830 0.96160 0.81990 -0.11900
C 	C 	0.05740 0.86010 0.74010 -0.57100
C 	C 	0.14080 0.81660 0.79800 0.61700
C 	C 	0.91710 0.09160 0.93530 -0.56500
C 	C 	0.93050 0.14930 0.87920 0.57500
C 	C 	0.55450 0.55920 0.48980 0.18300
C 	C 	0.55070 0.51700 0.41380 -0.12200
C 	C 	0.50390 0.54110 0.57720 -0.12300
C 	C 	0.61880 0.62240 0.47960 -0.56400
C 	C 	0.52600 0.67190 0.51960 0.62000
C 	C 	0.53140 0.94230 0.95860 0.19100
C 	C 	0.47110 0.98770 0.90590 -0.12600
C 	C 	0.55810 0.95550 0.05370 -0.11100
C 	C 	0.55990 0.87990 0.91360 -0.54200
C 	C 	0.45190 0.83330 0.93160 0.55100
C 	C 	0.94650 0.47850 0.62400 0.21500
C 	C 	0.07830 0.49270 0.64300 -0.14300
C 	C 	0.11320 0.55180 0.67370 -0.09700
C 	C 	0.01880 0.59730 0.68620 0.15200
C 	C 	0.88650 0.58260 0.66850 -0.09600
C 	C 	0.85060 0.52420 0.63810 -0.15100
C 	C 	0.90540 0.41610 0.58250 -0.57800
C 	C 	0.90110 0.36420 0.64840 0.57900
C 	C 	0.05970 0.66240 0.71500 -0.49900
C 	C 	0.13690 0.69160 0.63750 0.50400
C 	C 	0.52090 0.08050 0.70790 0.19000
C 	C 	0.38950 0.06540 0.68750 -0.11500
C 	C 	0.35670 0.01060 0.64070 -0.13900
C 	C 	0.45310 0.96820 0.61610 0.20300
C 	C 	0.58460 0.98350 0.63530 -0.12500
C 	C 	0.61830 0.03840 0.68010 -0.11900
C 	C 	0.55740 0.13990 0.75990 -0.57100
C 	C 	0.64080 0.18340 0.70200 0.61800
C 	C 	0.41710 0.90840 0.56470 -0.56300
C 	C 	0.43050 0.85070 0.62080 0.57400
C 	C 	0.05450 0.44080 0.01020 0.18400
C 	C 	0.05070 0.48300 0.08620 -0.12100
C 	C 	0.00390 0.45890 0.92280 -0.12400
C 	C 	0.11880 0.37760 0.02040 -0.56300
C 	C 	0.02600 0.32810 0.98040 0.62000
C 	C 	0.03140 0.05770 0.54140 0.19100
C 	C 	0.97110 0.01230 0.59410 -0.12500
C 	C 	0.05810 0.04450 0.44630 -0.11300
C 	C 	0.05990 0.12010 0.58640 -0.54300
C 	C 	0.95190 0.16670 0.56840 0.55100
C 	C 	0.55350 0.47850 0.12400 0.21500
C 	C 	0.42170 0.49270 0.14300 -0.14200
C 	C 	0.38680 0.55180 0.17370 -0.09800
C 	C 	0.48120 0.59730 0.18620 0.15200
C 	C 	0.61350 0.58260 0.16850 -0.09600
C 	C 	0.64940 0.52420 0.13810 -0.15100
C 	C 	0.59460 0.41610 0.08250 -0.57800
C 	C 	0.59890 0.36420 0.14840 0.57900
C 	C 	0.44030 0.66240 0.21500 -0.49900
C 	C 	0.36310 0.69160 0.13750 0.50400
C 	C 	0.97910 0.08050 0.20790 0.18800
C 	C 	0.11050 0.06540 0.18750 -0.11300
C 	C 	0.14330 0.01060 0.14070 -0.14200
C 	C 	0.04690 0.96820 0.11610 0.20600
C 	C 	0.91540 0.98350 0.13530 -0.12600
C 	C 	0.88170 0.03840 0.18010 -0.11900
C 	C 	0.94260 0.13990 0.25990 -0.57100
C 	C 	0.85920 0.18340 0.20200 0.61700
C 	C 	0.08290 0.90840 0.06470 -0.56500
C 	C 	0.06950 0.85070 0.12080 0.57500
C 	C 	0.44550 0.44080 0.51020 0.18300
C 	C 	0.44930 0.48300 0.58620 -0.12200
C 	C 	0.49610 0.45890 0.42280 -0.12300
C 	C 	0.38120 0.37760 0.52040 -0.56400
C 	C 	0.47400 0.32810 0.48040 0.62000
C 	C 	0.46860 0.05770 0.04140 0.19100
C 	C 	0.52890 0.01230 0.09410 -0.12600
C 	C 	0.44190 0.04450 0.94630 -0.11100
C 	C 	0.44010 0.12010 0.08640 -0.54200
C 	C 	0.54810 0.16670 0.06840 0.55100
C 	C 	0.05350 0.52150 0.37600 0.21500
C 	C 	0.92170 0.50730 0.35700 -0.14300
C 	C 	0.88680 0.44820 0.32630 -0.09700
C 	C 	0.98120 0.40270 0.31380 0.15200
C 	C 	0.11350 0.41740 0.33150 -0.09600
C 	C 	0.14940 0.47580 0.36190 -0.15100
C 	C 	0.09460 0.58390 0.41750 -0.57800
C 	C 	0.09890 0.63580 0.35160 0.57900
C 	C 	0.94030 0.33760 0.28500 -0.49900
C 	C 	0.86310 0.30840 0.36250 0.50400
C 	C 	0.47910 0.91950 0.29210 0.19000
C 	C 	0.61050 0.93460 0.31250 -0.11500
C 	C 	0.64330 0.98940 0.35930 -0.13900
C 	C 	0.54690 0.03180 0.38390 0.20300
C 	C 	0.41540 0.01650 0.36470 -0.12500
C 	C 	0.38170 0.96160 0.31990 -0.11900
C 	C 	0.44260 0.86010 0.24010 -0.57100
C 	C 	0.35920 0.81660 0.29800 0.61800
C 	C 	0.58290 0.09160 0.43530 -0.56300
C 	C 	0.56950 0.14930 0.37920 0.57400
C 	C 	0.94550 0.55920 0.98980 0.18400
C 	C 	0.94930 0.51700 0.91380 -0.12100
C 	C 	0.99610 0.54110 0.07720 -0.12400
C 	C 	0.88120 0.62240 0.97960 -0.56300
C 	C 	0.97400 0.67190 0.01960 0.62000
C 	C 	0.96860 0.94230 0.45860 0.19100
C 	C 	0.02890 0.98770 0.40590 -0.12500
C 	C 	0.94190 0.95550 0.55370 -0.11300
C 	C 	0.94010 0.87990 0.41360 -0.54300
C 	C 	0.04810 0.83330 0.43160 0.55100
O 	O 	0.48120 0.64130 0.78480 -0.50200
O 	O 	0.31560 0.67810 0.86450 -0.62400
O 	O 	0.76360 0.30980 0.86510 -0.55500
O 	O 	0.57460 0.28590 0.93120 -0.49500
O 	O 	0.23380 0.78970 0.76020 -0.59000
O 	O 	0.10690 0.80770 0.88230 -0.54500
O 	O 	0.98600 0.15070 0.80180 -0.50900
O 	O 	0.88010 0.19910 0.91420 -0.64200
O 	O 	0.43630 0.68960 0.46550 -0.56900
O 	O 	0.54630 0.69110 0.60280 -0.54900
O 	O 	0.45240 0.78280 0.88400 -0.61200
O 	O 	0.36670 0.84210 0.99350 -0.52200
O 	O 	0.98120 0.35870 0.71520 -0.50200
O 	O 	0.81560 0.32190 0.63550 -0.62400
O 	O 	0.26360 0.69020 0.63490 -0.55600
O 	O 	0.07460 0.71410 0.56880 -0.49600
O 	O 	0.73380 0.21030 0.73980 -0.59000
O 	O 	0.60690 0.19230 0.61770 -0.54500
O 	O 	0.48600 0.84930 0.69820 -0.50900
O 	O 	0.38010 0.80090 0.58580 -0.64300
O 	O 	0.93630 0.31040 0.03450 -0.56900
O 	O 	0.04630 0.30890 0.89720 -0.54900
O 	O 	0.95240 0.21720 0.61600 -0.61200
O 	O 	0.86670 0.15790 0.50650 -0.52200
O 	O 	0.51880 0.35870 0.21520 -0.50200
O 	O 	0.68440 0.32190 0.13550 -0.62400
O 	O 	0.23640 0.69020 0.13490 -0.55500
O 	O 	0.42540 0.71410 0.06880 -0.49500
O 	O 	0.76620 0.21030 0.23980 -0.59000
O 	O 	0.89310 0.19230 0.11770 -0.54500
O 	O 	0.01400 0.84930 0.19820 -0.50900
O 	O 	0.11990 0.80090 0.08580 -0.64200
O 	O 	0.56370 0.31040 0.53450 -0.56900
O 	O 	0.45370 0.30890 0.39720 -0.54900
O 	O 	0.54760 0.21720 0.11600 -0.61200
O 	O 	0.63330 0.15790 0.00650 -0.52200
O 	O 	0.01880 0.64130 0.28480 -0.50200
O 	O 	0.18440 0.67810 0.36450 -0.62400
O 	O 	0.73640 0.30980 0.36510 -0.55600
O 	O 	0.92540 0.28590 0.43120 -0.49600
O 	O 	0.26620 0.78970 0.26020 -0.59000
O 	O 	0.39310 0.80770 0.38230 -0.54500
O 	O 	0.51400 0.15070 0.30180 -0.50900
O 	O 	0.61990 0.19910 0.41420 -0.64300
O 	O 	0.06370 0.68960 0.96550 -0.56900
O 	O 	0.95370 0.69110 0.10280 -0.54900
O 	O 	0.04760 0.78280 0.38400 -0.61200
O 	O 	0.13330 0.84210 0.49350 -0.52200
