data_crystal

_cell_length_a 3.55210
_cell_length_b 12.99770
_cell_length_c 15.86650
_cell_angle_alpha 90.00000
_cell_angle_beta  90.00000
_cell_angle_gamma 95.28500

_symmetry_space_group_name_	'P 1'
_symmetry_space_group_name_H-M	'P 1'

loop_
_symmetry_equiv_pos_as_xyz
  x,y,z

loop_
_atom_site_label
_atom_site_type_symbol
_atom_site_fract_x
_atom_site_fract_y
_atom_site_fract_z
_atom_site_charge
Cu	Cu	0.73444 0.50430 0.42254 0.91700
Cu	Cu	0.76556 0.99570 0.92254 0.91600
Cu	Cu	0.26556 0.49570 0.57746 0.91800
Cu	Cu	0.23444 0.00430 0.07746 0.91700
H 	H 	0.69000 0.36750 0.51500 0.30500
H 	H 	0.02270 0.09430 0.37570 0.07300
H 	H 	0.16370 0.33510 0.21810 0.06600
H 	H 	0.16150 0.98890 0.26630 0.01700
H 	H 	0.30020 0.22340 0.11340 0.00800
H 	H 	0.81000 0.13250 0.01500 0.30400
H 	H 	0.47730 0.40570 0.87570 0.07600
H 	H 	0.33630 0.16490 0.71810 0.06900
H 	H 	0.33850 0.51110 0.76630 0.01200
H 	H 	0.19980 0.27660 0.61340 0.00800
H 	H 	0.31000 0.63250 0.48500 0.30500
H 	H 	0.97730 0.90570 0.62430 0.07300
H 	H 	0.83630 0.66490 0.78190 0.06600
H 	H 	0.83850 0.01110 0.73370 0.01700
H 	H 	0.69980 0.77660 0.88660 0.00800
H 	H 	0.19000 0.86750 0.98500 0.30400
H 	H 	0.52270 0.59430 0.12430 0.07600
H 	H 	0.66370 0.83510 0.28190 0.06900
H 	H 	0.66150 0.48890 0.23370 0.01200
H 	H 	0.80020 0.72340 0.38660 0.00800
C 	C 	0.94640 0.29764 0.37784 0.31200
C 	C 	0.06690 0.22717 0.30846 -0.02100
C 	C 	0.07390 0.12204 0.32250 -0.07200
C 	C 	0.15760 0.26473 0.22922 -0.07000
C 	C 	0.15790 0.05931 0.25633 0.04700
C 	C 	0.23900 0.19712 0.16663 0.04300
C 	C 	0.55360 0.20236 0.87784 0.30700
C 	C 	0.43310 0.27283 0.80846 -0.01400
C 	C 	0.42610 0.37796 0.82250 -0.07800
C 	C 	0.34240 0.23527 0.72922 -0.07400
C 	C 	0.34210 0.44069 0.75633 0.05600
C 	C 	0.26100 0.30288 0.66663 0.04600
C 	C 	0.05360 0.70236 0.62216 0.31200
C 	C 	0.93310 0.77283 0.69154 -0.02100
C 	C 	0.92610 0.87796 0.67750 -0.07200
C 	C 	0.84240 0.73527 0.77078 -0.07000
C 	C 	0.84210 0.94069 0.74367 0.04700
C 	C 	0.76100 0.80288 0.83337 0.04300
C 	C 	0.44640 0.79764 0.12216 0.30700
C 	C 	0.56690 0.72717 0.19154 -0.01400
C 	C 	0.57390 0.62204 0.17750 -0.07800
C 	C 	0.65760 0.76473 0.27078 -0.07400
C 	C 	0.65790 0.55931 0.24367 0.05600
C 	C 	0.73900 0.69712 0.33337 0.04600
N 	N 	0.23410 0.09479 0.17886 -0.20900
N 	N 	0.26590 0.40521 0.67886 -0.21100
N 	N 	0.76590 0.90521 0.82114 -0.20900
N 	N 	0.73410 0.59479 0.32114 -0.21100
O 	O 	0.69360 0.43012 0.52842 -0.71300
O 	O 	0.96410 0.39266 0.35873 -0.40600
O 	O 	0.83690 0.25785 0.44540 -0.30000
O 	O 	0.80640 0.06988 0.02842 -0.71200
O 	O 	0.53590 0.10734 0.85873 -0.40400
O 	O 	0.66310 0.24215 0.94540 -0.29900
O 	O 	0.30640 0.56988 0.47158 -0.71300
O 	O 	0.03590 0.60734 0.64127 -0.40600
O 	O 	0.16310 0.74215 0.55460 -0.30000
O 	O 	0.19360 0.93012 0.97158 -0.71200
O 	O 	0.46410 0.89266 0.14127 -0.40400
O 	O 	0.33690 0.75785 0.05460 -0.29900
