data_crystal

_cell_length_a 12.14700
_cell_length_b 12.14700
_cell_length_c 24.74400
_cell_angle_alpha 90.00000
_cell_angle_beta  90.00000
_cell_angle_gamma 90.00000

_symmetry_space_group_name_	'P 1'
_symmetry_space_group_name_H-M	'P 1'

loop_
_symmetry_equiv_pos_as_xyz
  x,y,z

loop_
_atom_site_label
_atom_site_type_symbol
_atom_site_fract_x
_atom_site_fract_y
_atom_site_fract_z
_atom_site_charge
Fe	Fe	0.75000 0.75000 0.92112 1.09700
Fe	Fe	0.25000 0.25000 0.42112 1.09700
H 	H 	0.58440 0.56900 0.87630 -0.03800
H 	H 	0.56710 0.43100 0.81460 0.13900
H 	H 	0.86040 0.51740 0.75450 0.13700
H 	H 	0.87130 0.64940 0.82030 -0.03700
H 	H 	0.80260 0.41100 0.68320 0.04100
H 	H 	0.85490 0.32960 0.72560 0.04600
H 	H 	0.81880 0.15900 0.60950 0.04300
H 	H 	0.90080 0.17440 0.65810 0.04100
H 	H 	0.08960 0.11180 0.49480 -0.05000
H 	H 	0.96350 0.12110 0.56340 0.14000
H 	H 	0.00740 0.44430 0.56460 0.14600
H 	H 	0.13010 0.42440 0.49490 -0.04000
H 	H 	0.53070 0.87470 0.91710 0.06200
H 	H 	0.91560 0.93100 0.87630 -0.03700
H 	H 	0.93290 0.06900 0.81460 0.14100
H 	H 	0.63960 0.98260 0.75450 0.13800
H 	H 	0.62870 0.85060 0.82030 -0.03600
H 	H 	0.69740 0.08900 0.68320 0.04200
H 	H 	0.64510 0.17040 0.72560 0.04700
H 	H 	0.68120 0.34100 0.60950 0.04400
H 	H 	0.59920 0.32560 0.65810 0.04200
H 	H 	0.41040 0.38820 0.49480 -0.04900
H 	H 	0.53650 0.37890 0.56340 0.14100
H 	H 	0.49260 0.05570 0.56460 0.14700
H 	H 	0.36990 0.07560 0.49490 -0.03900
H 	H 	0.96930 0.62530 0.91710 0.06200
H 	H 	0.43100 0.08440 0.37630 -0.03700
H 	H 	0.56900 0.06710 0.31460 0.14000
H 	H 	0.48260 0.36040 0.25450 0.13800
H 	H 	0.35060 0.37130 0.32030 -0.03600
H 	H 	0.58900 0.30260 0.18320 0.04200
H 	H 	0.67040 0.35490 0.22560 0.04700
H 	H 	0.84100 0.31880 0.10950 0.04400
H 	H 	0.82560 0.40080 0.15810 0.04200
H 	H 	0.88820 0.58960 0.99480 -0.04800
H 	H 	0.87890 0.46350 0.06340 0.14000
H 	H 	0.55570 0.50740 0.06460 0.14600
H 	H 	0.57560 0.63010 0.99490 -0.03800
H 	H 	0.12530 0.03070 0.41710 0.06200
H 	H 	0.06900 0.41560 0.37630 -0.03700
H 	H 	0.93100 0.43290 0.31460 0.14000
H 	H 	0.01740 0.13960 0.25450 0.13800
H 	H 	0.14940 0.12870 0.32030 -0.03600
H 	H 	0.91100 0.19740 0.18320 0.04200
H 	H 	0.82960 0.14510 0.22560 0.04700
H 	H 	0.65900 0.18120 0.10950 0.04400
H 	H 	0.67440 0.09920 0.15810 0.04200
H 	H 	0.61180 0.91040 0.99480 -0.04700
H 	H 	0.62110 0.03650 0.06340 0.14000
H 	H 	0.94430 0.99260 0.06460 0.14500
H 	H 	0.92440 0.86990 0.99490 -0.03600
H 	H 	0.37470 0.46930 0.41710 0.06200
C 	C 	0.64190 0.55710 0.85212 0.15500
C 	C 	0.63030 0.47430 0.81514 -0.28500
C 	C 	0.71480 0.45600 0.77830 0.29700
C 	C 	0.80400 0.52460 0.77972 -0.29200
C 	C 	0.80920 0.60480 0.81920 0.15500
C 	C 	0.78810 0.34780 0.70612 0.01600
C 	C 	0.84560 0.21100 0.63622 0.01900
C 	C 	0.07180 0.18080 0.50856 0.17700
C 	C 	0.99500 0.18530 0.55000 -0.31300
C 	C 	0.96640 0.28550 0.57077 0.32400
C 	C 	0.02070 0.37470 0.55041 -0.30300
C 	C 	0.09580 0.36180 0.50859 0.16600
C 	C 	0.85810 0.94290 0.85212 0.15600
C 	C 	0.86970 0.02570 0.81514 -0.28600
C 	C 	0.78520 0.04400 0.77830 0.29600
C 	C 	0.69600 0.97540 0.77972 -0.29100
C 	C 	0.69080 0.89520 0.81920 0.15500
C 	C 	0.71190 0.15220 0.70612 0.01600
C 	C 	0.65440 0.28900 0.63622 0.01900
C 	C 	0.42820 0.31920 0.50856 0.17700
C 	C 	0.50500 0.31470 0.55000 -0.31300
C 	C 	0.53360 0.21450 0.57077 0.32400
C 	C 	0.47930 0.12530 0.55041 -0.30300
C 	C 	0.40420 0.13820 0.50859 0.16600
C 	C 	0.44290 0.14190 0.35212 0.15500
C 	C 	0.52570 0.13030 0.31514 -0.28500
C 	C 	0.54400 0.21480 0.27830 0.29700
C 	C 	0.47540 0.30400 0.27972 -0.29200
C 	C 	0.39520 0.30920 0.31920 0.15500
C 	C 	0.65220 0.28810 0.20612 0.01600
C 	C 	0.78900 0.34560 0.13622 0.01900
C 	C 	0.81920 0.57180 0.00856 0.17400
C 	C 	0.81470 0.49500 0.05000 -0.31100
C 	C 	0.71450 0.46640 0.07077 0.32300
C 	C 	0.62530 0.52070 0.05041 -0.30100
C 	C 	0.63820 0.59580 0.00859 0.16400
C 	C 	0.05710 0.35810 0.35212 0.15500
C 	C 	0.97430 0.36970 0.31514 -0.28600
C 	C 	0.95600 0.28520 0.27830 0.29600
C 	C 	0.02460 0.19600 0.27972 -0.29100
C 	C 	0.10480 0.19080 0.31920 0.15500
C 	C 	0.84780 0.21190 0.20612 0.01600
C 	C 	0.71100 0.15440 0.13622 0.01900
C 	C 	0.68080 0.92820 0.00856 0.17100
C 	C 	0.68530 0.00500 0.05000 -0.30800
C 	C 	0.78550 0.03360 0.07077 0.32200
C 	C 	0.87470 0.97930 0.05041 -0.30000
C 	C 	0.86180 0.90420 0.00859 0.16100
C 	C 	0.75000 0.25000 0.67220 0.01500
C 	C 	0.75000 0.25000 0.17220 0.01500
S 	S 	0.55028 0.77796 0.91936 -0.25700
S 	S 	0.94972 0.72204 0.91936 -0.25600
S 	S 	0.22204 0.05028 0.41936 -0.25700
S 	S 	0.27796 0.44972 0.41936 -0.25700
N 	N 	0.73040 0.62220 0.85590 -0.26600
N 	N 	0.12120 0.26610 0.48733 -0.27500
N 	N 	0.76960 0.87780 0.85590 -0.26600
N 	N 	0.37880 0.23390 0.48733 -0.27500
N 	N 	0.37780 0.23040 0.35590 -0.26600
N 	N 	0.73390 0.62120 0.98733 -0.27300
N 	N 	0.12220 0.26960 0.35590 -0.26600
N 	N 	0.76610 0.87880 0.98733 -0.27200
O 	O 	0.89240 0.30340 0.61009 -0.26400
O 	O 	0.70040 0.37150 0.74310 -0.25100
O 	O 	0.60760 0.19660 0.61009 -0.26400
O 	O 	0.79960 0.12850 0.74310 -0.25100
O 	O 	0.69660 0.39240 0.11009 -0.26400
O 	O 	0.62850 0.20040 0.24310 -0.25100
O 	O 	0.80340 0.10760 0.11009 -0.26400
O 	O 	0.87150 0.29960 0.24310 -0.25100
Fe	Fe	0.25000 0.25000 0.07888 1.09800
Fe	Fe	0.75000 0.75000 0.57888 1.09800
H 	H 	0.41560 0.43100 0.12370 -0.03700
H 	H 	0.43290 0.56900 0.18540 0.14000
H 	H 	0.13960 0.48260 0.24550 0.13800
H 	H 	0.12870 0.35060 0.17970 -0.03600
H 	H 	0.19740 0.58900 0.31680 0.04200
H 	H 	0.14510 0.67040 0.27440 0.04700
H 	H 	0.18120 0.84100 0.39050 0.04400
H 	H 	0.09920 0.82560 0.34190 0.04200
H 	H 	0.91040 0.88820 0.50520 -0.04900
H 	H 	0.03650 0.87890 0.43660 0.14100
H 	H 	0.99260 0.55570 0.43540 0.14700
H 	H 	0.86990 0.57560 0.50510 -0.03900
H 	H 	0.46930 0.12530 0.08290 0.06200
H 	H 	0.08440 0.06900 0.12370 -0.03700
H 	H 	0.06710 0.93100 0.18540 0.14100
H 	H 	0.36040 0.01740 0.24550 0.13800
H 	H 	0.37130 0.14940 0.17970 -0.03600
H 	H 	0.30260 0.91100 0.31680 0.04200
H 	H 	0.35490 0.82960 0.27440 0.04700
H 	H 	0.31880 0.65900 0.39050 0.04400
H 	H 	0.40080 0.67440 0.34190 0.04200
H 	H 	0.58960 0.61180 0.50520 -0.04900
H 	H 	0.46350 0.62110 0.43660 0.14100
H 	H 	0.50740 0.94430 0.43540 0.14700
H 	H 	0.63010 0.92440 0.50510 -0.03900
H 	H 	0.03070 0.37470 0.08290 0.06200
H 	H 	0.56900 0.91560 0.62370 -0.03700
H 	H 	0.43100 0.93290 0.68540 0.14000
H 	H 	0.51740 0.63960 0.74550 0.13800
H 	H 	0.64940 0.62870 0.67970 -0.03600
H 	H 	0.41100 0.69740 0.81680 0.04200
H 	H 	0.32960 0.64510 0.77440 0.04700
H 	H 	0.15900 0.68120 0.89050 0.04400
H 	H 	0.17440 0.59920 0.84190 0.04200
H 	H 	0.11180 0.41040 0.00520 -0.04800
H 	H 	0.12110 0.53650 0.93660 0.14000
H 	H 	0.44430 0.49260 0.93540 0.14600
H 	H 	0.42440 0.36990 0.00510 -0.03800
H 	H 	0.87470 0.96930 0.58290 0.06200
H 	H 	0.93100 0.58440 0.62370 -0.03700
H 	H 	0.06900 0.56710 0.68540 0.14000
H 	H 	0.98260 0.86040 0.74550 0.13800
H 	H 	0.85060 0.87130 0.67970 -0.03600
H 	H 	0.08900 0.80260 0.81680 0.04200
H 	H 	0.17040 0.85490 0.77440 0.04700
H 	H 	0.34100 0.81880 0.89050 0.04400
H 	H 	0.32560 0.90080 0.84190 0.04200
H 	H 	0.38820 0.08960 0.00520 -0.04700
H 	H 	0.37890 0.96350 0.93660 0.14000
H 	H 	0.05570 0.00740 0.93540 0.14500
H 	H 	0.07560 0.13010 0.00510 -0.03600
H 	H 	0.62530 0.53070 0.58290 0.06200
C 	C 	0.35810 0.44290 0.14788 0.15500
C 	C 	0.36970 0.52570 0.18486 -0.28500
C 	C 	0.28520 0.54400 0.22170 0.29700
C 	C 	0.19600 0.47540 0.22028 -0.29200
C 	C 	0.19080 0.39520 0.18080 0.15500
C 	C 	0.21190 0.65220 0.29388 0.01600
C 	C 	0.15440 0.78900 0.36378 0.01900
C 	C 	0.92820 0.81920 0.49144 0.17700
C 	C 	0.00500 0.81470 0.45000 -0.31300
C 	C 	0.03360 0.71450 0.42923 0.32400
C 	C 	0.97930 0.62530 0.44959 -0.30300
C 	C 	0.90420 0.63820 0.49141 0.16600
C 	C 	0.14190 0.05710 0.14788 0.15600
C 	C 	0.13030 0.97430 0.18486 -0.28600
C 	C 	0.21480 0.95600 0.22170 0.29600
C 	C 	0.30400 0.02460 0.22028 -0.29100
C 	C 	0.30920 0.10480 0.18080 0.15500
C 	C 	0.28810 0.84780 0.29388 0.01600
C 	C 	0.34560 0.71100 0.36378 0.01900
C 	C 	0.57180 0.68080 0.49144 0.17700
C 	C 	0.49500 0.68530 0.45000 -0.31300
C 	C 	0.46640 0.78550 0.42923 0.32400
C 	C 	0.52070 0.87470 0.44959 -0.30300
C 	C 	0.59580 0.86180 0.49141 0.16600
C 	C 	0.55710 0.85810 0.64788 0.15500
C 	C 	0.47430 0.86970 0.68486 -0.28500
C 	C 	0.45600 0.78520 0.72170 0.29700
C 	C 	0.52460 0.69600 0.72028 -0.29200
C 	C 	0.60480 0.69080 0.68080 0.15500
C 	C 	0.34780 0.71190 0.79388 0.01600
C 	C 	0.21100 0.65440 0.86378 0.01900
C 	C 	0.18080 0.42820 0.99144 0.17400
C 	C 	0.18530 0.50500 0.95000 -0.31100
C 	C 	0.28550 0.53360 0.92923 0.32300
C 	C 	0.37470 0.47930 0.94959 -0.30100
C 	C 	0.36180 0.40420 0.99141 0.16400
C 	C 	0.94290 0.64190 0.64788 0.15500
C 	C 	0.02570 0.63030 0.68486 -0.28600
C 	C 	0.04400 0.71480 0.72170 0.29600
C 	C 	0.97540 0.80400 0.72028 -0.29100
C 	C 	0.89520 0.80920 0.68080 0.15500
C 	C 	0.15220 0.78810 0.79388 0.01600
C 	C 	0.28900 0.84560 0.86378 0.01900
C 	C 	0.31920 0.07180 0.99144 0.17100
C 	C 	0.31470 0.99500 0.95000 -0.30800
C 	C 	0.21450 0.96640 0.92923 0.32200
C 	C 	0.12530 0.02070 0.94959 -0.30000
C 	C 	0.13820 0.09580 0.99141 0.16100
C 	C 	0.25000 0.75000 0.32780 0.01500
C 	C 	0.25000 0.75000 0.82780 0.01500
S 	S 	0.44972 0.22204 0.08064 -0.25700
S 	S 	0.05028 0.27796 0.08064 -0.25600
S 	S 	0.77796 0.94972 0.58064 -0.25700
S 	S 	0.72204 0.55028 0.58064 -0.25700
N 	N 	0.26960 0.37780 0.14410 -0.26600
N 	N 	0.87880 0.73390 0.51267 -0.27500
N 	N 	0.23040 0.12220 0.14410 -0.26600
N 	N 	0.62120 0.76610 0.51267 -0.27500
N 	N 	0.62220 0.76960 0.64410 -0.26600
N 	N 	0.26610 0.37880 0.01267 -0.27300
N 	N 	0.87780 0.73040 0.64410 -0.26600
N 	N 	0.23390 0.12120 0.01267 -0.27200
O 	O 	0.10760 0.69660 0.38991 -0.26400
O 	O 	0.29960 0.62850 0.25690 -0.25100
O 	O 	0.39240 0.80340 0.38991 -0.26400
O 	O 	0.20040 0.87150 0.25690 -0.25100
O 	O 	0.30340 0.60760 0.88991 -0.26400
O 	O 	0.37150 0.79960 0.75690 -0.25100
O 	O 	0.19660 0.89240 0.88991 -0.26400
O 	O 	0.12850 0.70040 0.75690 -0.25100
