data_crystal

_cell_length_a 18.15350
_cell_length_b 18.30330
_cell_length_c 25.23540
_cell_angle_alpha 90.00000
_cell_angle_beta  90.00000
_cell_angle_gamma 90.00000

_symmetry_space_group_name_	'P 1'
_symmetry_space_group_name_H-M	'P 1'

loop_
_symmetry_equiv_pos_as_xyz
  x,y,z

loop_
_atom_site_label
_atom_site_type_symbol
_atom_site_fract_x
_atom_site_fract_y
_atom_site_fract_z
_atom_site_charge
Cd	Cd	0.48868 0.49708 0.68825 1.13000
Cd	Cd	0.98868 0.00292 0.31175 1.13000
H 	H 	0.32480 0.56340 0.65260 -0.04300
H 	H 	0.35570 0.36490 0.70590 0.00000
H 	H 	0.22180 0.37700 0.68260 0.00600
H 	H 	0.02950 0.01570 0.44180 -0.02700
H 	H 	0.03080 0.92530 0.51620 0.03500
H 	H 	0.96900 0.83230 0.38130 -0.03800
H 	H 	0.65520 0.51710 0.63630 -0.03300
H 	H 	0.61960 0.52810 0.78890 -0.01000
H 	H 	0.75310 0.54340 0.77550 0.02400
H 	H 	0.12920 0.41790 0.63560 0.02700
H 	H 	0.02140 0.46310 0.60220 0.04800
H 	H 	0.10680 0.66290 0.60120 0.05800
H 	H 	0.21360 0.61950 0.63860 0.04700
H 	H 	0.94730 0.63770 0.67070 0.06000
H 	H 	0.84240 0.61110 0.72380 0.05200
H 	H 	0.76870 0.48570 0.60240 0.03400
H 	H 	0.87780 0.50750 0.55730 0.04900
H 	H 	0.03240 0.61530 0.48700 0.05900
H 	H 	0.03360 0.71640 0.42760 0.04400
H 	H 	0.93540 0.82990 0.54710 0.05400
H 	H 	0.93580 0.72690 0.60060 0.06400
H 	H 	0.82480 0.93660 0.34740 -0.04400
H 	H 	0.85570 0.13510 0.29410 -0.00100
H 	H 	0.72180 0.12300 0.31740 0.00500
H 	H 	0.52950 0.48430 0.55820 -0.03000
H 	H 	0.53080 0.57470 0.48380 0.03500
H 	H 	0.46900 0.66770 0.61870 -0.03900
H 	H 	0.15520 0.98290 0.36370 -0.03400
H 	H 	0.11960 0.97190 0.21110 -0.01100
H 	H 	0.25310 0.95660 0.22450 0.02400
H 	H 	0.62920 0.08210 0.36440 0.02800
H 	H 	0.52140 0.03690 0.39780 0.04700
H 	H 	0.60680 0.83710 0.39880 0.05800
H 	H 	0.71360 0.88050 0.36140 0.04700
H 	H 	0.44730 0.86230 0.32930 0.05900
H 	H 	0.34240 0.88890 0.27620 0.05200
H 	H 	0.26870 0.01430 0.39760 0.03500
H 	H 	0.37780 0.99250 0.44270 0.04900
H 	H 	0.53240 0.88470 0.51300 0.05900
H 	H 	0.53360 0.78360 0.57240 0.04400
H 	H 	0.43540 0.67010 0.45290 0.05400
H 	H 	0.43580 0.77310 0.39940 0.06400
C 	C 	0.31600 0.51560 0.66346 0.10200
C 	C 	0.33240 0.40640 0.69270 -0.03100
C 	C 	0.25800 0.41270 0.67950 0.01000
C 	C 	0.01760 0.96650 0.43874 0.01600
C 	C 	0.01790 0.91750 0.48102 -0.01700
C 	C 	0.98420 0.86730 0.40565 0.10000
C 	C 	0.66260 0.51960 0.67273 0.08000
C 	C 	0.64380 0.52600 0.75650 -0.01700
C 	C 	0.71790 0.53550 0.74939 -0.00100
C 	C 	0.18360 0.51240 0.64214 0.07600
C 	C 	0.12510 0.46780 0.62967 -0.06500
C 	C 	0.06030 0.49500 0.60860 -0.09600
C 	C 	0.05210 0.56680 0.59710 0.09000
C 	C 	0.11110 0.61330 0.60860 -0.08600
C 	C 	0.17540 0.58730 0.63093 -0.06800
C 	C 	0.91850 0.57690 0.60983 0.09500
C 	C 	0.91100 0.60660 0.65800 -0.09700
C 	C 	0.84790 0.59140 0.69010 -0.07100
C 	C 	0.79670 0.54650 0.66853 0.07200
C 	C 	0.80520 0.51510 0.61696 -0.06500
C 	C 	0.86900 0.53000 0.58969 -0.10100
C 	C 	0.98320 0.66040 0.54904 0.10100
C 	C 	0.01260 0.65940 0.49851 -0.09600
C 	C 	0.01560 0.71940 0.46200 -0.06500
C 	C 	0.98690 0.78530 0.48619 0.07000
C 	C 	0.95630 0.78680 0.53467 -0.06600
C 	C 	0.95560 0.72430 0.56660 -0.09800
C 	C 	0.81600 0.98440 0.33654 0.10400
C 	C 	0.83240 0.09360 0.30730 -0.03100
C 	C 	0.75800 0.08730 0.32050 0.01000
C 	C 	0.51760 0.53350 0.56126 0.02000
C 	C 	0.51790 0.58250 0.51898 -0.01800
C 	C 	0.48420 0.63270 0.59435 0.09900
C 	C 	0.16260 0.98040 0.32727 0.08000
C 	C 	0.14380 0.97400 0.24350 -0.01700
C 	C 	0.21790 0.96450 0.25061 -0.00100
C 	C 	0.68360 0.98760 0.35786 0.07700
C 	C 	0.62510 0.03220 0.37033 -0.06600
C 	C 	0.56030 0.00500 0.39140 -0.09600
C 	C 	0.55210 0.93320 0.40290 0.09000
C 	C 	0.61110 0.88670 0.39140 -0.08600
C 	C 	0.67540 0.91270 0.36907 -0.06900
C 	C 	0.41850 0.92310 0.39017 0.09400
C 	C 	0.41100 0.89340 0.34200 -0.09600
C 	C 	0.34790 0.90860 0.30990 -0.07100
C 	C 	0.29670 0.95350 0.33147 0.07300
C 	C 	0.30520 0.98490 0.38304 -0.06700
C 	C 	0.36900 0.97000 0.41031 -0.09900
C 	C 	0.48320 0.83960 0.45096 0.10100
C 	C 	0.51260 0.84060 0.50149 -0.09600
C 	C 	0.51560 0.78060 0.53800 -0.06400
C 	C 	0.48690 0.71470 0.51381 0.06800
C 	C 	0.45630 0.71320 0.46533 -0.06500
C 	C 	0.45560 0.77570 0.43340 -0.09800
N 	N 	0.36540 0.47340 0.68243 -0.27900
N 	N 	0.24930 0.48270 0.66105 -0.14400
N 	N 	0.98420 0.59630 0.57902 -0.15900
N 	N 	0.99860 0.93510 0.39420 -0.25500
N 	N 	0.99440 0.85530 0.45711 -0.13400
N 	N 	0.60980 0.51260 0.70789 -0.27900
N 	N 	0.72940 0.53080 0.69569 -0.13700
N 	N 	0.86540 0.02660 0.31757 -0.28000
N 	N 	0.74930 0.01730 0.33895 -0.14500
N 	N 	0.48420 0.90370 0.42098 -0.15900
N 	N 	0.49860 0.56490 0.60580 -0.25700
N 	N 	0.49440 0.64470 0.54289 -0.13500
N 	N 	0.10980 0.98740 0.29211 -0.27900
N 	N 	0.22940 0.96920 0.30431 -0.13700
Cd	Cd	0.01132 0.50292 0.18825 1.12900
Cd	Cd	0.51132 0.99708 0.81175 1.12900
H 	H 	0.17520 0.43660 0.15260 -0.04400
H 	H 	0.14430 0.63510 0.20590 -0.00100
H 	H 	0.27820 0.62300 0.18260 0.00500
H 	H 	0.47050 0.98430 0.94180 -0.03100
H 	H 	0.46920 0.07470 0.01620 0.03400
H 	H 	0.53100 0.16770 0.88130 -0.03900
H 	H 	0.84480 0.48290 0.13630 -0.03400
H 	H 	0.88040 0.47190 0.28890 -0.01100
H 	H 	0.74690 0.45660 0.27550 0.02400
H 	H 	0.37080 0.58210 0.13560 0.02700
H 	H 	0.47860 0.53690 0.10220 0.04800
H 	H 	0.39320 0.33710 0.10120 0.05800
H 	H 	0.28640 0.38050 0.13860 0.04700
H 	H 	0.55270 0.36230 0.17070 0.06000
H 	H 	0.65760 0.38890 0.22380 0.05200
H 	H 	0.73130 0.51430 0.10240 0.03400
H 	H 	0.62220 0.49250 0.05730 0.04900
H 	H 	0.46760 0.38470 0.98700 0.05900
H 	H 	0.46640 0.28360 0.92760 0.04400
H 	H 	0.56460 0.17010 0.04710 0.05400
H 	H 	0.56420 0.27310 0.10060 0.06400
H 	H 	0.67520 0.06340 0.84740 -0.04400
H 	H 	0.64430 0.86490 0.79410 -0.00100
H 	H 	0.77820 0.87700 0.81740 0.00500
H 	H 	0.97050 0.51570 0.05820 -0.03000
H 	H 	0.96920 0.42530 0.98380 0.03400
H 	H 	0.03100 0.33230 0.11870 -0.03900
H 	H 	0.34480 0.01710 0.86370 -0.03300
H 	H 	0.38040 0.02810 0.71110 -0.01100
H 	H 	0.24690 0.04340 0.72450 0.02500
H 	H 	0.87080 0.91790 0.86440 0.02700
H 	H 	0.97860 0.96310 0.89780 0.04700
H 	H 	0.89320 0.16290 0.89880 0.05800
H 	H 	0.78640 0.11950 0.86140 0.04700
H 	H 	0.05270 0.13770 0.82930 0.06000
H 	H 	0.15760 0.11110 0.77620 0.05100
H 	H 	0.23130 0.98570 0.89760 0.03100
H 	H 	0.12220 0.00750 0.94270 0.05100
H 	H 	0.96760 0.11530 0.01300 0.05900
H 	H 	0.96640 0.21640 0.07240 0.04400
H 	H 	0.06460 0.32990 0.95290 0.05300
H 	H 	0.06420 0.22690 0.89940 0.06400
C 	C 	0.18400 0.48440 0.16346 0.10200
C 	C 	0.16760 0.59360 0.19270 -0.03100
C 	C 	0.24200 0.58730 0.17950 0.01000
C 	C 	0.48240 0.03350 0.93874 0.02200
C 	C 	0.48210 0.08250 0.98102 -0.01800
C 	C 	0.51580 0.13270 0.90565 0.09900
C 	C 	0.83740 0.48040 0.17273 0.08000
C 	C 	0.85620 0.47400 0.25650 -0.01700
C 	C 	0.78210 0.46450 0.24939 -0.00100
C 	C 	0.31640 0.48760 0.14214 0.07600
C 	C 	0.37490 0.53220 0.12967 -0.06500
C 	C 	0.43970 0.50500 0.10860 -0.09600
C 	C 	0.44790 0.43320 0.09710 0.09100
C 	C 	0.38890 0.38670 0.10860 -0.08600
C 	C 	0.32460 0.41270 0.13093 -0.06800
C 	C 	0.58150 0.42310 0.10983 0.09500
C 	C 	0.58900 0.39340 0.15800 -0.09600
C 	C 	0.65210 0.40860 0.19010 -0.07100
C 	C 	0.70330 0.45350 0.16853 0.07300
C 	C 	0.69480 0.48490 0.11696 -0.06600
C 	C 	0.63100 0.47000 0.08969 -0.10000
C 	C 	0.51680 0.33960 0.04904 0.10100
C 	C 	0.48740 0.34060 0.99851 -0.09600
C 	C 	0.48440 0.28060 0.96200 -0.06400
C 	C 	0.51310 0.21470 0.98619 0.06800
C 	C 	0.54370 0.21320 0.03467 -0.06500
C 	C 	0.54440 0.27570 0.06660 -0.09800
C 	C 	0.68400 0.01560 0.83654 0.10200
C 	C 	0.66760 0.90640 0.80730 -0.03100
C 	C 	0.74200 0.91270 0.82050 0.01000
C 	C 	0.98240 0.46650 0.06126 0.02100
C 	C 	0.98210 0.41750 0.01898 -0.01600
C 	C 	0.01580 0.36730 0.09435 0.09900
C 	C 	0.33740 0.01960 0.82727 0.08000
C 	C 	0.35620 0.02600 0.74350 -0.01700
C 	C 	0.28210 0.03550 0.75061 -0.00100
C 	C 	0.81640 0.01240 0.85786 0.07600
C 	C 	0.87490 0.96780 0.87033 -0.06500
C 	C 	0.93970 0.99500 0.89140 -0.09500
C 	C 	0.94790 0.06680 0.90290 0.08900
C 	C 	0.88890 0.11330 0.89140 -0.08500
C 	C 	0.82460 0.08730 0.86907 -0.06900
C 	C 	0.08150 0.07690 0.89017 0.09700
C 	C 	0.08900 0.10660 0.84200 -0.09800
C 	C 	0.15210 0.09140 0.80990 -0.06900
C 	C 	0.20330 0.04650 0.83147 0.07100
C 	C 	0.19480 0.01510 0.88304 -0.06200
C 	C 	0.13100 0.03000 0.91031 -0.10300
C 	C 	0.01680 0.16040 0.95096 0.10200
C 	C 	0.98740 0.15940 0.00149 -0.09700
C 	C 	0.98440 0.21940 0.03800 -0.06300
C 	C 	0.01310 0.28530 0.01381 0.06700
C 	C 	0.04370 0.28680 0.96533 -0.06400
C 	C 	0.04440 0.22430 0.93340 -0.09900
N 	N 	0.13460 0.52660 0.18243 -0.27900
N 	N 	0.25070 0.51730 0.16105 -0.14400
N 	N 	0.51580 0.40370 0.07902 -0.15900
N 	N 	0.50140 0.06490 0.89420 -0.25700
N 	N 	0.50560 0.14470 0.95711 -0.13500
N 	N 	0.89020 0.48740 0.20789 -0.27900
N 	N 	0.77060 0.46920 0.19569 -0.13700
N 	N 	0.63460 0.97340 0.81757 -0.27900
N 	N 	0.75070 0.98270 0.83895 -0.14400
N 	N 	0.01580 0.09630 0.92098 -0.15900
N 	N 	0.00140 0.43510 0.10580 -0.25700
N 	N 	0.00560 0.35530 0.04289 -0.13500
N 	N 	0.39020 0.01260 0.79211 -0.27900
N 	N 	0.27060 0.03080 0.80431 -0.13600
Cd	Cd	0.21458 0.21850 0.57052 1.12900
Cd	Cd	0.28542 0.78150 0.07052 1.12900
H 	H 	0.36690 0.31700 0.58130 -0.03300
H 	H 	0.39320 0.44380 0.54590 0.01400
H 	H 	0.18610 0.38900 0.52290 -0.05600
H 	H 	0.12030 0.81270 0.13130 -0.03000
H 	H 	0.08500 0.79860 0.22470 0.00400
H 	H 	0.30060 0.75980 0.20490 -0.03700
H 	H 	0.13360 0.09040 0.65930 -0.00400
H 	H 	0.14500 0.95680 0.64780 0.02400
H 	H 	0.20800 0.05200 0.51790 -0.04500
H 	H 	0.34220 0.56710 0.55680 0.05200
H 	H 	0.31660 0.68390 0.52560 0.06200
H 	H 	0.15850 0.60800 0.43040 0.05300
H 	H 	0.18900 0.48680 0.45670 0.03800
H 	H 	0.13630 0.81220 0.40430 0.07400
H 	H 	0.12730 0.83650 0.31560 0.02900
H 	H 	0.28300 0.68510 0.28560 0.04700
H 	H 	0.30090 0.67230 0.37890 0.06500
H 	H 	0.15490 0.74340 0.54580 0.07100
H 	H 	0.13290 0.84870 0.59130 0.04400
H 	H 	0.27230 0.95800 0.49630 0.03700
H 	H 	0.27520 0.85770 0.44090 0.07700
H 	H 	0.13310 0.68300 0.08130 -0.03300
H 	H 	0.10680 0.55620 0.04590 0.01400
H 	H 	0.31390 0.61100 0.02290 -0.05600
H 	H 	0.37970 0.18730 0.63130 -0.03000
H 	H 	0.41500 0.20140 0.72470 0.00400
H 	H 	0.19940 0.24020 0.70490 -0.03700
H 	H 	0.36640 0.90960 0.15930 -0.00300
H 	H 	0.35500 0.04320 0.14780 0.02300
H 	H 	0.29200 0.94800 0.01790 -0.04500
H 	H 	0.15780 0.43290 0.05680 0.05200
H 	H 	0.18340 0.31610 0.02560 0.06200
H 	H 	0.34150 0.39200 0.93040 0.05300
H 	H 	0.31100 0.51320 0.95670 0.03800
H 	H 	0.36370 0.18780 0.90430 0.07400
H 	H 	0.37270 0.16350 0.81560 0.02900
H 	H 	0.21700 0.31490 0.78560 0.04700
H 	H 	0.19910 0.32770 0.87890 0.06500
H 	H 	0.34510 0.25660 0.04580 0.07000
H 	H 	0.36710 0.15130 0.09130 0.04400
H 	H 	0.22770 0.04200 0.99630 0.03800
H 	H 	0.22480 0.14230 0.94090 0.07700
C 	C 	0.33370 0.34760 0.56420 0.01800
C 	C 	0.34820 0.41950 0.54630 -0.02800
C 	C 	0.23520 0.38800 0.53341 0.10200
C 	C 	0.15240 0.79980 0.15849 0.01300
C 	C 	0.13160 0.79270 0.21000 -0.03000
C 	C 	0.25140 0.77110 0.19844 0.08800
C 	C 	0.15220 0.06750 0.62930 0.00300
C 	C 	0.15710 0.99240 0.62297 -0.00800
C 	C 	0.19260 0.04590 0.55275 0.06400
C 	C 	0.26670 0.51820 0.51143 0.07700
C 	C 	0.30600 0.57460 0.53130 -0.07100
C 	C 	0.29050 0.64410 0.51238 -0.08600
C 	C 	0.23740 0.65530 0.47465 0.08400
C 	C 	0.19620 0.59920 0.45448 -0.08900
C 	C 	0.21280 0.52690 0.47140 -0.07200
C 	C 	0.21670 0.73850 0.40050 0.11100
C 	C 	0.16710 0.78760 0.38082 -0.11800
C 	C 	0.16110 0.80210 0.32753 -0.04500
C 	C 	0.20690 0.76440 0.29034 0.06300
C 	C 	0.25560 0.71310 0.30920 -0.06800
C 	C 	0.26410 0.70270 0.36590 -0.10500
C 	C 	0.21720 0.78880 0.48913 0.11400
C 	C 	0.17530 0.78720 0.53419 -0.10800
C 	C 	0.16370 0.84970 0.56184 -0.05000
C 	C 	0.19660 0.91530 0.54723 0.05600
C 	C 	0.24470 0.91660 0.50386 -0.05000
C 	C 	0.24990 0.85540 0.47290 -0.10700
C 	C 	0.16630 0.65240 0.06420 0.01800
C 	C 	0.15180 0.58050 0.04630 -0.02800
C 	C 	0.26480 0.61200 0.03341 0.10200
C 	C 	0.34760 0.20020 0.65849 0.01300
C 	C 	0.36840 0.20730 0.71000 -0.03000
C 	C 	0.24860 0.22890 0.69844 0.08800
C 	C 	0.34780 0.93250 0.12930 0.00100
C 	C 	0.34290 0.00760 0.12297 -0.00600
C 	C 	0.30740 0.95410 0.05275 0.06300
C 	C 	0.23330 0.48180 0.01143 0.07600
C 	C 	0.19400 0.42540 0.03130 -0.07100
C 	C 	0.20950 0.35590 0.01238 -0.08600
C 	C 	0.26260 0.34470 0.97465 0.08500
C 	C 	0.30380 0.40080 0.95448 -0.08900
C 	C 	0.28720 0.47310 0.97140 -0.07200
C 	C 	0.28330 0.26150 0.90050 0.11100
C 	C 	0.33290 0.21240 0.88082 -0.11800
C 	C 	0.33890 0.19790 0.82753 -0.04500
C 	C 	0.29310 0.23560 0.79034 0.06300
C 	C 	0.24440 0.28690 0.80920 -0.06800
C 	C 	0.23590 0.29730 0.86590 -0.10500
C 	C 	0.28280 0.21120 0.98913 0.11400
C 	C 	0.32470 0.21280 0.03419 -0.10800
C 	C 	0.33630 0.15030 0.06184 -0.05100
C 	C 	0.30340 0.08470 0.04723 0.05800
C 	C 	0.25530 0.08340 0.00386 -0.05300
C 	C 	0.25010 0.14460 0.97290 -0.10500
N 	N 	0.26710 0.33230 0.55277 -0.28200
N 	N 	0.28120 0.44510 0.52990 -0.13800
N 	N 	0.22220 0.73110 0.45500 -0.16100
N 	N 	0.22370 0.78640 0.15147 -0.26000
N 	N 	0.19840 0.77410 0.23573 -0.13500
N 	N 	0.17790 0.10320 0.58637 -0.28000
N 	N 	0.18250 0.98167 0.57484 -0.13600
N 	N 	0.23290 0.66770 0.05277 -0.28200
N 	N 	0.21880 0.55490 0.02990 -0.13800
N 	N 	0.27780 0.26890 0.95500 -0.16100
N 	N 	0.27630 0.21360 0.65147 -0.26000
N 	N 	0.30160 0.22590 0.73573 -0.13500
N 	N 	0.32210 0.89680 0.08637 -0.27900
N 	N 	0.31750 0.01833 0.07484 -0.13600
Cd	Cd	0.78542 0.71850 0.92948 1.12800
Cd	Cd	0.71458 0.28150 0.42948 1.12900
H 	H 	0.63310 0.81700 0.91870 -0.03300
H 	H 	0.60680 0.94380 0.95410 0.01400
H 	H 	0.81390 0.88900 0.97710 -0.05600
H 	H 	0.87970 0.31270 0.36870 -0.03000
H 	H 	0.91500 0.29860 0.27530 0.00400
H 	H 	0.69940 0.25980 0.29510 -0.03700
H 	H 	0.86640 0.59040 0.84070 -0.00300
H 	H 	0.85500 0.45680 0.85220 0.02300
H 	H 	0.79200 0.55200 0.98210 -0.04500
H 	H 	0.65780 0.06710 0.94320 0.05300
H 	H 	0.68340 0.18390 0.97440 0.06200
H 	H 	0.84150 0.10800 0.06960 0.05200
H 	H 	0.81100 0.98680 0.04330 0.04000
H 	H 	0.86370 0.31220 0.09570 0.07400
H 	H 	0.87270 0.33650 0.18440 0.02900
H 	H 	0.71700 0.18510 0.21440 0.04600
H 	H 	0.69910 0.17230 0.12110 0.06500
H 	H 	0.84510 0.24340 0.95420 0.07000
H 	H 	0.86710 0.34870 0.90870 0.04400
H 	H 	0.72770 0.45800 0.00370 0.03800
H 	H 	0.72480 0.35770 0.05910 0.07700
H 	H 	0.86690 0.18300 0.41870 -0.03300
H 	H 	0.89320 0.05620 0.45410 0.01400
H 	H 	0.68610 0.11100 0.47710 -0.05600
H 	H 	0.62030 0.68730 0.86870 -0.03000
H 	H 	0.58500 0.70140 0.77530 0.00400
H 	H 	0.80060 0.74020 0.79510 -0.03700
H 	H 	0.63360 0.40960 0.34070 -0.00300
H 	H 	0.64500 0.54320 0.35220 0.02400
H 	H 	0.70800 0.44800 0.48210 -0.04500
H 	H 	0.84220 0.93290 0.44320 0.05200
H 	H 	0.81660 0.81610 0.47440 0.06200
H 	H 	0.65850 0.89200 0.56960 0.05300
H 	H 	0.68900 0.01320 0.54330 0.03800
H 	H 	0.63630 0.68780 0.59570 0.07400
H 	H 	0.62730 0.66350 0.68440 0.02900
H 	H 	0.78300 0.81490 0.71440 0.04700
H 	H 	0.80090 0.82770 0.62110 0.06500
H 	H 	0.65490 0.75660 0.45420 0.07100
H 	H 	0.63290 0.65130 0.40870 0.04400
H 	H 	0.77230 0.54200 0.50370 0.03700
H 	H 	0.77520 0.64230 0.55910 0.07700
C 	C 	0.66630 0.84760 0.93580 0.01800
C 	C 	0.65180 0.91950 0.95370 -0.02800
C 	C 	0.76480 0.88800 0.96659 0.10200
C 	C 	0.84760 0.29980 0.34151 0.01300
C 	C 	0.86840 0.29270 0.29000 -0.03000
C 	C 	0.74860 0.27110 0.30156 0.08800
C 	C 	0.84780 0.56750 0.87070 0.00100
C 	C 	0.84290 0.49240 0.87703 -0.00600
C 	C 	0.80740 0.54590 0.94725 0.06300
C 	C 	0.73330 0.01820 0.98857 0.07800
C 	C 	0.69400 0.07460 0.96870 -0.07200
C 	C 	0.70950 0.14410 0.98762 -0.08500
C 	C 	0.76260 0.15530 0.02535 0.08300
C 	C 	0.80380 0.09920 0.04552 -0.08600
C 	C 	0.78720 0.02690 0.02860 -0.07600
C 	C 	0.78330 0.23850 0.09950 0.11100
C 	C 	0.83290 0.28760 0.11918 -0.11800
C 	C 	0.83890 0.30210 0.17247 -0.04500
C 	C 	0.79310 0.26440 0.20966 0.06300
C 	C 	0.74440 0.21310 0.19080 -0.06800
C 	C 	0.73590 0.20270 0.13410 -0.10500
C 	C 	0.78280 0.28880 0.01087 0.11400
C 	C 	0.82470 0.28720 0.96581 -0.10800
C 	C 	0.83630 0.34970 0.93816 -0.05100
C 	C 	0.80340 0.41530 0.95277 0.05700
C 	C 	0.75530 0.41660 0.99614 -0.05200
C 	C 	0.75010 0.35540 0.02710 -0.10600
C 	C 	0.83370 0.15240 0.43580 0.01800
C 	C 	0.84820 0.08050 0.45370 -0.02800
C 	C 	0.73520 0.11200 0.46659 0.10200
C 	C 	0.65240 0.70020 0.84151 0.01300
C 	C 	0.63160 0.70730 0.79000 -0.03000
C 	C 	0.75140 0.72890 0.80156 0.08800
C 	C 	0.65220 0.43250 0.37070 0.00100
C 	C 	0.65710 0.50760 0.37703 -0.00600
C 	C 	0.69260 0.45410 0.44725 0.06300
C 	C 	0.76670 0.98180 0.48857 0.07700
C 	C 	0.80600 0.92540 0.46870 -0.07100
C 	C 	0.79050 0.85590 0.48762 -0.08600
C 	C 	0.73740 0.84470 0.52535 0.08500
C 	C 	0.69620 0.90080 0.54552 -0.08900
C 	C 	0.71280 0.97310 0.52860 -0.07200
C 	C 	0.71670 0.76150 0.59950 0.11100
C 	C 	0.66710 0.71240 0.61918 -0.11800
C 	C 	0.66110 0.69790 0.67247 -0.04500
C 	C 	0.70690 0.73560 0.70966 0.06300
C 	C 	0.75560 0.78690 0.69080 -0.06800
C 	C 	0.76410 0.79730 0.63410 -0.10500
C 	C 	0.71720 0.71120 0.51087 0.11400
C 	C 	0.67530 0.71280 0.46581 -0.10800
C 	C 	0.66370 0.65030 0.43816 -0.05000
C 	C 	0.69660 0.58470 0.45277 0.05700
C 	C 	0.74470 0.58340 0.49614 -0.05000
C 	C 	0.74990 0.64460 0.52710 -0.10700
N 	N 	0.73290 0.83230 0.94723 -0.28200
N 	N 	0.71880 0.94510 0.97010 -0.13800
N 	N 	0.77780 0.23110 0.04500 -0.16100
N 	N 	0.77630 0.28640 0.34853 -0.26000
N 	N 	0.80160 0.27410 0.26427 -0.13500
N 	N 	0.82210 0.60320 0.91363 -0.27900
N 	N 	0.81750 0.48167 0.92516 -0.13600
N 	N 	0.76710 0.16770 0.44723 -0.28200
N 	N 	0.78120 0.05490 0.47010 -0.13800
N 	N 	0.72220 0.76890 0.54500 -0.16100
N 	N 	0.72370 0.71360 0.84853 -0.26000
N 	N 	0.69840 0.72590 0.76427 -0.13500
N 	N 	0.67790 0.39680 0.41363 -0.27900
N 	N 	0.68250 0.51833 0.42516 -0.13600
