data_crystal

_cell_length_a 6.69730
_cell_length_b 8.24970
_cell_length_c 20.38220
_cell_angle_alpha 90.00000
_cell_angle_beta  90.00000
_cell_angle_gamma 90.00000

_symmetry_space_group_name_	'P 1'
_symmetry_space_group_name_H-M	'P 1'

loop_
_symmetry_equiv_pos_as_xyz
  x,y,z

loop_
_atom_site_label
_atom_site_type_symbol
_atom_site_fract_x
_atom_site_fract_y
_atom_site_fract_z
_atom_site_charge
Er	Er	0.49861 0.43402 0.61915 2.04500
O 	O 	0.52080 0.56260 0.72340 -0.50400
O 	O 	0.48570 0.72050 0.81096 -0.53400
O 	O 	0.33620 0.23160 0.55895 -0.52300
O 	O 	0.18960 0.10780 0.47490 -0.52500
O 	O 	0.16920 0.46350 0.65290 -0.50400
O 	O 	0.84070 0.44740 0.65120 -0.48600
O 	O 	0.54110 0.71080 0.59520 -0.41100
O 	O 	0.32350 0.60090 0.52900 -0.35900
C 	C 	0.43180 0.65720 0.75860 0.70500
H 	H 	0.30510 0.68640 0.74420 -0.17900
C 	C 	0.25350 0.22660 0.50540 0.67300
H 	H 	0.23620 0.32610 0.48470 -0.19100
C 	C 	0.00380 0.46890 0.62460 0.64600
H 	H 	0.00390 0.49110 0.57990 -0.17500
C 	C 	0.42020 0.71970 0.54760 0.37800
H 	H 	0.40390 0.81820 0.52610 -0.04600
Er	Er	0.00139 0.56598 0.11915 2.01600
O 	O 	0.97920 0.43740 0.22340 -0.49600
O 	O 	0.01430 0.27950 0.31096 -0.52600
O 	O 	0.16380 0.76840 0.05895 -0.52400
O 	O 	0.31040 0.89220 0.97490 -0.53100
O 	O 	0.33080 0.53650 0.15290 -0.49900
O 	O 	0.65930 0.55260 0.15120 -0.47500
O 	O 	0.95890 0.28920 0.09520 -0.39500
O 	O 	0.17650 0.39910 0.02900 -0.35700
C 	C 	0.06820 0.34280 0.25860 0.69600
H 	H 	0.19490 0.31360 0.24420 -0.17600
C 	C 	0.24650 0.77340 0.00540 0.67000
H 	H 	0.26380 0.67390 0.98470 -0.19200
C 	C 	0.49620 0.53110 0.12460 0.63200
H 	H 	0.49610 0.50890 0.07990 -0.17200
C 	C 	0.07980 0.28030 0.04760 0.36100
H 	H 	0.09610 0.18180 0.02610 -0.04300
Er	Er	0.50139 0.93402 0.88085 2.03300
O 	O 	0.47920 0.06260 0.77660 -0.50000
O 	O 	0.51430 0.22050 0.68904 -0.53400
O 	O 	0.66380 0.73160 0.94105 -0.51900
O 	O 	0.81040 0.60780 0.02510 -0.51900
O 	O 	0.83080 0.96350 0.84710 -0.50500
O 	O 	0.15930 0.94740 0.84880 -0.48700
O 	O 	0.45890 0.21080 0.90480 -0.40700
O 	O 	0.67650 0.10090 0.97100 -0.35600
C 	C 	0.56820 0.15720 0.74140 0.70400
H 	H 	0.69490 0.18640 0.75580 -0.17800
C 	C 	0.74650 0.72660 0.99460 0.66300
H 	H 	0.76380 0.82610 0.01530 -0.18700
C 	C 	0.99620 0.96890 0.87540 0.64500
H 	H 	0.99610 0.99110 0.92010 -0.17600
C 	C 	0.57980 0.21970 0.95240 0.37800
H 	H 	0.59610 0.31820 0.97390 -0.04600
Er	Er	0.99861 0.06598 0.38085 2.02200
O 	O 	0.02080 0.93740 0.27660 -0.50200
O 	O 	0.98570 0.77950 0.18904 -0.52600
O 	O 	0.83620 0.26840 0.44105 -0.52400
O 	O 	0.68960 0.39220 0.52510 -0.53200
O 	O 	0.66920 0.03650 0.34710 -0.50100
O 	O 	0.34070 0.05260 0.34880 -0.47700
O 	O 	0.04110 0.78920 0.40480 -0.39900
O 	O 	0.82350 0.89910 0.47100 -0.35600
C 	C 	0.93180 0.84280 0.24140 0.70400
H 	H 	0.80510 0.81360 0.25580 -0.17800
C 	C 	0.75350 0.27340 0.49460 0.67400
H 	H 	0.73620 0.17390 0.51530 -0.19500
C 	C 	0.50380 0.03110 0.37540 0.63300
H 	H 	0.50390 0.00890 0.42010 -0.17300
C 	C 	0.92020 0.78030 0.45240 0.36700
H 	H 	0.90390 0.68180 0.47390 -0.04500
