data_crystal

_cell_length_a 18.27250
_cell_length_b 22.16800
_cell_length_c 22.16800
_cell_angle_alpha 80.22060
_cell_angle_beta  65.66090
_cell_angle_gamma 65.66100

_symmetry_space_group_name_	'P 1'
_symmetry_space_group_name_H-M	'P 1'

loop_
_symmetry_equiv_pos_as_xyz
  x,y,z

loop_
_atom_site_label
_atom_site_type_symbol
_atom_site_fract_x
_atom_site_fract_y
_atom_site_fract_z
_atom_site_charge
Cu	Cu	0.25885 0.99115 0.49115 0.84800
Cu	Cu	0.24115 0.50885 0.00885 0.84800
Cu	Cu	0.75000 0.49115 0.50885 0.84800
Cu	Cu	0.25000 0.00885 0.99115 0.84800
H 	H 	0.22310 0.92170 0.62090 -0.02200
H 	H 	0.21760 0.92750 0.72550 0.07000
H 	H 	0.27740 0.08790 0.66850 0.07200
H 	H 	0.28140 0.07910 0.56530 -0.02200
H 	H 	0.34240 0.04510 0.85210 -0.02100
H 	H 	0.34660 0.04230 0.74750 0.07300
H 	H 	0.14740 0.98390 0.82650 0.07300
H 	H 	0.14510 0.99010 0.92950 -0.02400
H 	H 	0.26570 0.57830 0.87910 -0.02200
H 	H 	0.37060 0.57250 0.77450 0.07000
H 	H 	0.53380 0.41210 0.83150 0.07200
H 	H 	0.42580 0.42090 0.93470 -0.02200
H 	H 	0.73960 0.45490 0.64790 -0.02100
H 	H 	0.63640 0.45770 0.75250 0.07300
H 	H 	0.45780 0.51610 0.67350 0.07300
H 	H 	0.56470 0.50990 0.57050 -0.02400
H 	H 	0.23430 0.12090 0.42170 -0.02200
H 	H 	0.12940 0.22550 0.42750 0.07000
H 	H 	0.96620 0.16850 0.58790 0.07200
H 	H 	0.07420 0.06530 0.57910 -0.02200
H 	H 	0.76040 0.35210 0.54510 -0.02100
H 	H 	0.86360 0.24750 0.54230 0.07300
H 	H 	0.04220 0.32650 0.48390 0.07400
H 	H 	0.93530 0.42950 0.49010 -0.02300
H 	H 	0.27690 0.37910 0.07830 -0.02100
H 	H 	0.28240 0.27450 0.07250 0.07100
H 	H 	0.22260 0.33150 0.91210 0.07300
H 	H 	0.21860 0.43470 0.92090 -0.02100
H 	H 	0.15760 0.14790 0.95490 -0.02000
H 	H 	0.15340 0.25250 0.95770 0.07300
H 	H 	0.35260 0.17350 0.01610 0.07400
H 	H 	0.35490 0.07050 0.00990 -0.02300
H 	H 	0.65600 0.62090 0.57830 -0.02100
H 	H 	0.55690 0.72550 0.57250 0.07100
H 	H 	0.55410 0.66850 0.41210 0.07300
H 	H 	0.65330 0.56530 0.42090 -0.02100
H 	H 	0.30550 0.85210 0.45490 -0.02000
H 	H 	0.40590 0.74750 0.45770 0.07400
H 	H 	0.52610 0.82650 0.51610 0.07400
H 	H 	0.42540 0.92950 0.50990 -0.02300
H 	H 	0.35520 0.87910 0.92170 -0.02100
H 	H 	0.35490 0.77450 0.92750 0.07100
H 	H 	0.13470 0.83150 0.08790 0.07300
H 	H 	0.13950 0.93470 0.07910 -0.02100
H 	H 	0.11250 0.64790 0.04510 -0.02000
H 	H 	0.11110 0.75250 0.04230 0.07400
H 	H 	0.36870 0.67350 0.98390 0.07400
H 	H 	0.36480 0.57050 0.99010 -0.02300
H 	H 	0.14480 0.07830 0.12090 -0.02100
H 	H 	0.14510 0.07250 0.22550 0.07100
H 	H 	0.36530 0.91210 0.16850 0.07300
H 	H 	0.36050 0.92090 0.06530 -0.02100
H 	H 	0.38750 0.95490 0.35210 -0.02000
H 	H 	0.38890 0.95770 0.24750 0.07400
H 	H 	0.13130 0.01610 0.32650 0.07400
H 	H 	0.13520 0.00990 0.42950 -0.02300
H 	H 	0.84400 0.42170 0.37910 -0.02100
H 	H 	0.94310 0.42750 0.27450 0.07100
H 	H 	0.94590 0.58790 0.33150 0.07300
H 	H 	0.84670 0.57910 0.43470 -0.02100
H 	H 	0.19450 0.54510 0.14790 -0.02000
H 	H 	0.09410 0.54230 0.25250 0.07400
H 	H 	0.97390 0.48390 0.17350 0.07300
H 	H 	0.07460 0.49010 0.07050 -0.02300
C 	C 	0.23379 0.95563 0.63079 0.07300
C 	C 	0.23093 0.95859 0.69355 -0.13700
C 	C 	0.24830 0.00903 0.70837 0.05200
C 	C 	0.26628 0.05357 0.65987 -0.13900
C 	C 	0.26829 0.04839 0.59783 0.07400
C 	C 	0.30301 0.03219 0.84679 0.07700
C 	C 	0.30563 0.03089 0.78385 -0.14400
C 	C 	0.24666 0.01240 0.77548 0.06000
C 	C 	0.18766 0.99664 0.83064 -0.14500
C 	C 	0.18725 0.99951 0.89239 0.07900
C 	C 	0.32021 0.54437 0.86921 0.07300
C 	C 	0.38307 0.54141 0.80645 -0.13700
C 	C 	0.46570 0.49097 0.79163 0.05200
C 	C 	0.47972 0.44643 0.84013 -0.13900
C 	C 	0.41451 0.45161 0.90217 0.07400
C 	C 	0.68199 0.46781 0.65321 0.07700
C 	C 	0.62037 0.46911 0.71615 -0.14400
C 	C 	0.53454 0.48760 0.72452 0.06000
C 	C 	0.51494 0.50336 0.66936 -0.14500
C 	C 	0.57915 0.50049 0.60761 0.07900
C 	C 	0.17979 0.13079 0.45563 0.07300
C 	C 	0.11693 0.19355 0.45859 -0.13600
C 	C 	0.03430 0.20837 0.50903 0.05200
C 	C 	0.02028 0.15987 0.55357 -0.13900
C 	C 	0.08549 0.09783 0.54839 0.07400
C 	C 	0.81801 0.34679 0.53219 0.07700
C 	C 	0.87963 0.28385 0.53089 -0.14400
C 	C 	0.96546 0.27548 0.51240 0.06000
C 	C 	0.98506 0.33064 0.49664 -0.14600
C 	C 	0.92085 0.39239 0.49951 0.07900
C 	C 	0.26621 0.36921 0.04437 0.07300
C 	C 	0.26907 0.30645 0.04141 -0.13600
C 	C 	0.25170 0.29163 0.99097 0.05200
C 	C 	0.23372 0.34013 0.94643 -0.13900
C 	C 	0.23171 0.40217 0.95161 0.07400
C 	C 	0.19699 0.15321 0.96781 0.07600
C 	C 	0.19437 0.21615 0.96911 -0.14400
C 	C 	0.25334 0.22452 0.98760 0.05900
C 	C 	0.31234 0.16936 0.00336 -0.14500
C 	C 	0.31275 0.10761 0.00049 0.07900
C 	C 	0.63542 0.63079 0.54437 0.07300
C 	C 	0.57552 0.69355 0.54141 -0.13700
C 	C 	0.54333 0.70837 0.49097 0.05200
C 	C 	0.57385 0.65987 0.44643 -0.13900
C 	C 	0.63388 0.59783 0.45161 0.07400
C 	C 	0.35020 0.84679 0.46781 0.07700
C 	C 	0.41052 0.78385 0.46911 -0.14400
C 	C 	0.47786 0.77548 0.48760 0.06000
C 	C 	0.48170 0.83064 0.50336 -0.14500
C 	C 	0.42036 0.89239 0.50049 0.07900
C 	C 	0.31058 0.86921 0.95563 0.07300
C 	C 	0.31048 0.80645 0.95859 -0.13700
C 	C 	0.24267 0.79163 0.00903 0.05200
C 	C 	0.18015 0.84013 0.05357 -0.13900
C 	C 	0.18332 0.90217 0.04839 0.07400
C 	C 	0.16480 0.65321 0.03219 0.07700
C 	C 	0.16348 0.71615 0.03089 -0.14400
C 	C 	0.24094 0.72452 0.01240 0.06000
C 	C 	0.31570 0.66936 0.99664 -0.14500
C 	C 	0.31324 0.60761 0.99951 0.07900
C 	C 	0.18942 0.04437 0.13079 0.07300
C 	C 	0.18952 0.04141 0.19355 -0.13600
C 	C 	0.25733 0.99097 0.20837 0.05200
C 	C 	0.31985 0.94643 0.15987 -0.13900
C 	C 	0.31668 0.95161 0.09783 0.07400
C 	C 	0.33520 0.96781 0.34679 0.07600
C 	C 	0.33652 0.96911 0.28385 -0.14400
C 	C 	0.25906 0.98760 0.27548 0.05900
C 	C 	0.18430 0.00336 0.33064 -0.14500
C 	C 	0.18676 0.00049 0.39239 0.07900
C 	C 	0.86458 0.45563 0.36921 0.07300
C 	C 	0.92448 0.45859 0.30645 -0.13700
C 	C 	0.95667 0.50903 0.29163 0.05200
C 	C 	0.92615 0.55357 0.34013 -0.13900
C 	C 	0.86612 0.54839 0.40217 0.07400
C 	C 	0.14980 0.53219 0.15321 0.07600
C 	C 	0.08948 0.53089 0.21615 -0.14400
C 	C 	0.02214 0.51240 0.22452 0.05900
C 	C 	0.01830 0.49664 0.16936 -0.14500
C 	C 	0.07964 0.49951 0.10761 0.07800
N 	N 	0.25160 0.00011 0.58349 -0.23700
N 	N 	0.24571 0.01551 0.90047 -0.24200
N 	N 	0.33520 0.49989 0.91651 -0.23700
N 	N 	0.66169 0.48449 0.59953 -0.24200
N 	N 	0.16480 0.08349 0.50011 -0.23700
N 	N 	0.83831 0.40047 0.51551 -0.24200
N 	N 	0.24840 0.41651 0.99989 -0.23700
N 	N 	0.25429 0.09953 0.98449 -0.24200
N 	N 	0.66491 0.58349 0.49989 -0.23700
N 	N 	0.35382 0.90047 0.48449 -0.24200
N 	N 	0.24829 0.91651 0.00011 -0.23700
N 	N 	0.23878 0.59953 0.01551 -0.24200
N 	N 	0.25171 0.99989 0.08349 -0.23700
N 	N 	0.26122 0.98449 0.40047 -0.24200
N 	N 	0.83509 0.50011 0.41651 -0.23700
N 	N 	0.14618 0.51551 0.09953 -0.24200
Cu	Cu	0.25000 0.50885 0.49115 0.84900
Cu	Cu	0.75000 0.99115 0.00885 0.84900
Cu	Cu	0.74115 0.00885 0.50885 0.84900
Cu	Cu	0.75885 0.49115 0.99115 0.84900
H 	H 	0.34400 0.37910 0.42170 -0.02100
H 	H 	0.44310 0.27450 0.42750 0.07100
H 	H 	0.44590 0.33150 0.58790 0.07300
H 	H 	0.34670 0.43470 0.57910 -0.02100
H 	H 	0.69450 0.14790 0.54510 -0.02000
H 	H 	0.59410 0.25250 0.54230 0.07400
H 	H 	0.47390 0.17350 0.48390 0.07400
H 	H 	0.57460 0.07050 0.49010 -0.02300
H 	H 	0.64480 0.12090 0.07830 -0.02100
H 	H 	0.64510 0.22550 0.07250 0.07100
H 	H 	0.86530 0.16850 0.91210 0.07300
H 	H 	0.86050 0.06530 0.92090 -0.02100
H 	H 	0.88750 0.35210 0.95490 -0.02000
H 	H 	0.88890 0.24750 0.95770 0.07400
H 	H 	0.63130 0.32650 0.01610 0.07400
H 	H 	0.63520 0.42950 0.00990 -0.02300
H 	H 	0.85520 0.92170 0.87910 -0.02100
H 	H 	0.85490 0.92750 0.77450 0.07100
H 	H 	0.63470 0.08790 0.83150 0.07300
H 	H 	0.63950 0.07910 0.93470 -0.02100
H 	H 	0.61250 0.04510 0.64790 -0.02000
H 	H 	0.61110 0.04230 0.75250 0.07400
H 	H 	0.86870 0.98390 0.67350 0.07400
H 	H 	0.86480 0.99010 0.57050 -0.02300
H 	H 	0.15600 0.57830 0.62090 -0.02100
H 	H 	0.05690 0.57250 0.72550 0.07100
H 	H 	0.05410 0.41210 0.66850 0.07300
H 	H 	0.15330 0.42090 0.56530 -0.02100
H 	H 	0.80550 0.45490 0.85210 -0.02000
H 	H 	0.90590 0.45770 0.74750 0.07400
H 	H 	0.02610 0.51610 0.82650 0.07300
H 	H 	0.92540 0.50990 0.92950 -0.02300
H 	H 	0.77690 0.07830 0.37910 -0.02100
H 	H 	0.78240 0.07250 0.27450 0.07100
H 	H 	0.72260 0.91210 0.33150 0.07300
H 	H 	0.71860 0.92090 0.43470 -0.02100
H 	H 	0.65760 0.95490 0.14790 -0.02000
H 	H 	0.65340 0.95770 0.25250 0.07400
H 	H 	0.85260 0.01610 0.17350 0.07400
H 	H 	0.85490 0.00990 0.07050 -0.02300
H 	H 	0.73430 0.42170 0.12090 -0.02100
H 	H 	0.62940 0.42750 0.22550 0.07100
H 	H 	0.46620 0.58790 0.16850 0.07300
H 	H 	0.57420 0.57910 0.06530 -0.02100
H 	H 	0.26040 0.54510 0.35210 -0.02000
H 	H 	0.36360 0.54230 0.24750 0.07400
H 	H 	0.54220 0.48390 0.32650 0.07400
H 	H 	0.43530 0.49010 0.42950 -0.02300
H 	H 	0.76570 0.87910 0.57830 -0.02100
H 	H 	0.87060 0.77450 0.57250 0.07100
H 	H 	0.03380 0.83150 0.41210 0.07300
H 	H 	0.92580 0.93470 0.42090 -0.02100
H 	H 	0.23960 0.64790 0.45490 -0.02000
H 	H 	0.13640 0.75250 0.45770 0.07400
H 	H 	0.95780 0.67350 0.51610 0.07400
H 	H 	0.06470 0.57050 0.50990 -0.02300
H 	H 	0.72310 0.62090 0.92170 -0.02100
H 	H 	0.71760 0.72550 0.92750 0.07100
H 	H 	0.77740 0.66850 0.08790 0.07300
H 	H 	0.78140 0.56530 0.07910 -0.02100
H 	H 	0.84240 0.85210 0.04510 -0.02000
H 	H 	0.84660 0.74750 0.04230 0.07300
H 	H 	0.64740 0.82650 0.98390 0.07400
H 	H 	0.64510 0.92950 0.99010 -0.02300
C 	C 	0.36458 0.36921 0.45563 0.07300
C 	C 	0.42448 0.30645 0.45859 -0.13700
C 	C 	0.45667 0.29163 0.50903 0.05200
C 	C 	0.42615 0.34013 0.55357 -0.13900
C 	C 	0.36612 0.40217 0.54839 0.07400
C 	C 	0.64980 0.15321 0.53219 0.07700
C 	C 	0.58948 0.21615 0.53089 -0.14400
C 	C 	0.52214 0.22452 0.51240 0.06000
C 	C 	0.51830 0.16936 0.49664 -0.14500
C 	C 	0.57964 0.10761 0.49951 0.07900
C 	C 	0.68942 0.13079 0.04437 0.07300
C 	C 	0.68952 0.19355 0.04141 -0.13700
C 	C 	0.75733 0.20837 0.99097 0.05200
C 	C 	0.81985 0.15987 0.94643 -0.13900
C 	C 	0.81668 0.09783 0.95161 0.07400
C 	C 	0.83520 0.34679 0.96781 0.07700
C 	C 	0.83652 0.28385 0.96911 -0.14400
C 	C 	0.75906 0.27548 0.98760 0.06000
C 	C 	0.68430 0.33064 0.00336 -0.14500
C 	C 	0.68676 0.39239 0.00049 0.07900
C 	C 	0.81058 0.95563 0.86921 0.07300
C 	C 	0.81048 0.95859 0.80645 -0.13600
C 	C 	0.74267 0.00903 0.79163 0.05200
C 	C 	0.68015 0.05357 0.84013 -0.13900
C 	C 	0.68332 0.04839 0.90217 0.07400
C 	C 	0.66480 0.03219 0.65321 0.07600
C 	C 	0.66348 0.03089 0.71615 -0.14400
C 	C 	0.74094 0.01240 0.72452 0.05900
C 	C 	0.81570 0.99664 0.66936 -0.14500
C 	C 	0.81324 0.99951 0.60761 0.07900
C 	C 	0.13542 0.54437 0.63079 0.07300
C 	C 	0.07552 0.54141 0.69355 -0.13700
C 	C 	0.04333 0.49097 0.70837 0.05200
C 	C 	0.07385 0.44643 0.65987 -0.13900
C 	C 	0.13388 0.45161 0.59783 0.07400
C 	C 	0.85020 0.46781 0.84679 0.07600
C 	C 	0.91052 0.46911 0.78385 -0.14400
C 	C 	0.97786 0.48760 0.77548 0.05900
C 	C 	0.98170 0.50336 0.83064 -0.14500
C 	C 	0.92036 0.50049 0.89239 0.07800
C 	C 	0.76621 0.04437 0.36921 0.07300
C 	C 	0.76907 0.04141 0.30645 -0.13700
C 	C 	0.75170 0.99097 0.29163 0.05200
C 	C 	0.73372 0.94643 0.34013 -0.13900
C 	C 	0.73171 0.95161 0.40217 0.07400
C 	C 	0.69699 0.96781 0.15321 0.07700
C 	C 	0.69437 0.96911 0.21615 -0.14400
C 	C 	0.75334 0.98760 0.22452 0.06000
C 	C 	0.81234 0.00336 0.16936 -0.14500
C 	C 	0.81275 0.00049 0.10761 0.07900
C 	C 	0.67979 0.45563 0.13079 0.07300
C 	C 	0.61693 0.45859 0.19355 -0.13700
C 	C 	0.53430 0.50903 0.20837 0.05200
C 	C 	0.52028 0.55357 0.15987 -0.13900
C 	C 	0.58549 0.54839 0.09783 0.07400
C 	C 	0.31801 0.53219 0.34679 0.07700
C 	C 	0.37963 0.53089 0.28385 -0.14400
C 	C 	0.46546 0.51240 0.27548 0.06000
C 	C 	0.48506 0.49664 0.33064 -0.14500
C 	C 	0.42085 0.49951 0.39239 0.07900
C 	C 	0.82021 0.86921 0.54437 0.07300
C 	C 	0.88307 0.80645 0.54141 -0.13600
C 	C 	0.96570 0.79163 0.49097 0.05200
C 	C 	0.97972 0.84013 0.44643 -0.13900
C 	C 	0.91451 0.90217 0.45161 0.07400
C 	C 	0.18199 0.65321 0.46781 0.07700
C 	C 	0.12037 0.71615 0.46911 -0.14400
C 	C 	0.03454 0.72452 0.48760 0.06000
C 	C 	0.01494 0.66936 0.50336 -0.14600
C 	C 	0.07915 0.60761 0.50049 0.07900
C 	C 	0.73379 0.63079 0.95563 0.07300
C 	C 	0.73093 0.69355 0.95859 -0.13600
C 	C 	0.74830 0.70837 0.00903 0.05200
C 	C 	0.76628 0.65987 0.05357 -0.13900
C 	C 	0.76829 0.59783 0.04839 0.07400
C 	C 	0.80301 0.84679 0.03219 0.07600
C 	C 	0.80563 0.78385 0.03089 -0.14400
C 	C 	0.74666 0.77548 0.01240 0.05900
C 	C 	0.68766 0.83064 0.99664 -0.14500
C 	C 	0.68725 0.89239 0.99951 0.07900
N 	N 	0.33509 0.41651 0.50011 -0.23700
N 	N 	0.64618 0.09953 0.51551 -0.24200
N 	N 	0.75171 0.08349 0.99989 -0.23700
N 	N 	0.76122 0.40047 0.98449 -0.24200
N 	N 	0.74829 0.00011 0.91651 -0.23700
N 	N 	0.73878 0.01551 0.59953 -0.24200
N 	N 	0.16491 0.49989 0.58349 -0.23700
N 	N 	0.85382 0.48449 0.90047 -0.24200
N 	N 	0.74840 0.99989 0.41651 -0.23700
N 	N 	0.75429 0.98449 0.09953 -0.24200
N 	N 	0.66480 0.50011 0.08349 -0.23700
N 	N 	0.33831 0.51551 0.40047 -0.24200
N 	N 	0.83520 0.91651 0.49989 -0.23700
N 	N 	0.16169 0.59953 0.48449 -0.24200
N 	N 	0.75160 0.58349 0.00011 -0.23700
N 	N 	0.74571 0.90047 0.01551 -0.24200
