data_crystal

_cell_length_a 10.40000
_cell_length_b 11.80300
_cell_length_c 13.93700
_cell_angle_alpha 71.84500
_cell_angle_beta  71.97500
_cell_angle_gamma 85.85500

_symmetry_space_group_name_	'P 1'
_symmetry_space_group_name_H-M	'P 1'

loop_
_symmetry_equiv_pos_as_xyz
  x,y,z

loop_
_atom_site_label
_atom_site_type_symbol
_atom_site_fract_x
_atom_site_fract_y
_atom_site_fract_z
_atom_site_charge
Ni	Ni	0.42498 0.69808 0.25506 1.11100
Ni	Ni	0.57502 0.30192 0.74494 1.11100
Ni	Ni	0.00000 -0.00000 0.50000 0.99300
H 	H 	0.51020 0.72830 0.02150 0.00000
H 	H 	0.27270 0.95200 0.14330 0.04300
H 	H 	0.32240 0.03060 0.94990 -0.00300
H 	H 	0.51320 0.96760 0.79090 0.10900
H 	H 	0.57940 0.84410 0.82540 0.09900
H 	H 	0.30000 0.98650 0.77450 0.10500
H 	H 	0.22430 0.88720 0.87760 0.09800
H 	H 	0.23390 0.00790 0.60760 -0.05300
H 	H 	0.04650 0.74810 0.86030 0.02600
H 	H 	0.92550 0.78580 0.72970 0.06000
H 	H 	0.27910 0.67860 0.84530 0.08700
H 	H 	0.33230 0.69440 0.93380 0.08900
H 	H 	0.61580 0.63310 0.89740 0.04200
H 	H 	0.71120 0.45580 0.85110 0.03100
H 	H 	0.37160 0.51180 0.78090 0.01000
H 	H 	0.44720 0.91910 0.63300 0.12600
H 	H 	0.42510 0.78230 0.65710 0.10700
H 	H 	0.68140 0.99330 0.61190 0.02900
H 	H 	0.65020 0.65560 0.62890 0.04700
H 	H 	0.88840 0.72040 0.54920 0.02700
H 	H 	0.98100 0.56490 0.40540 0.18000
H 	H 	0.53960 0.65200 0.48900 -0.00100
H 	H 	0.73550 0.75560 0.37200 0.18300
H 	H 	0.73780 0.62590 0.36470 0.20200
H 	H 	0.40700 0.56900 0.42700 0.25000
H 	H 	0.48980 0.27170 0.97850 -0.00200
H 	H 	0.72730 0.04800 0.85670 -0.00500
H 	H 	0.67760 0.96940 0.05010 0.11800
H 	H 	0.48680 0.03240 0.20910 0.08600
H 	H 	0.42060 0.15590 0.17460 0.09000
H 	H 	0.70000 0.01350 0.22550 0.08300
H 	H 	0.77570 0.11280 0.12240 0.09700
H 	H 	0.76610 0.99210 0.39240 0.05300
H 	H 	0.95350 0.25190 0.13970 0.06400
H 	H 	0.07450 0.21420 0.27030 -0.03000
H 	H 	0.72090 0.32140 0.15470 0.09100
H 	H 	0.66770 0.30560 0.06620 0.09200
H 	H 	0.38420 0.36690 0.10260 0.03800
H 	H 	0.28880 0.54420 0.14890 0.02500
H 	H 	0.62840 0.48820 0.21910 0.01200
H 	H 	0.55280 0.08090 0.36700 0.10500
H 	H 	0.57490 0.21770 0.34290 0.10300
H 	H 	0.31860 0.00670 0.38810 -0.00200
H 	H 	0.34980 0.34440 0.37110 0.04700
H 	H 	0.11160 0.27960 0.45080 0.00900
H 	H 	0.01900 0.43510 0.59460 0.01200
H 	H 	0.46040 0.34800 0.51100 0.00000
H 	H 	0.26450 0.24440 0.62800 0.17400
H 	H 	0.26220 0.37410 0.63530 0.20300
H 	H 	0.59300 0.43100 0.57300 0.24800
C 	C 	0.45630 0.79350 0.02820 0.08700
C 	C 	0.32670 0.91620 0.09450 -0.00500
C 	C 	0.35370 0.96030 0.98740 0.06700
C 	C 	0.49420 0.88500 0.83400 -0.17200
C 	C 	0.40150 0.82830 0.79300 0.14900
C 	C 	0.27270 0.90280 0.80290 -0.17000
C 	C 	0.17200 0.94720 0.65400 0.15700
C 	C 	0.07030 0.80470 0.79370 0.01500
C 	C 	0.00390 0.82620 0.72100 -0.05300
C 	C 	0.35860 0.69880 0.85960 -0.16200
C 	C 	0.57840 0.58790 0.86820 -0.00900
C 	C 	0.63030 0.48960 0.84260 0.01100
C 	C 	0.44470 0.51980 0.80360 0.08600
C 	C 	0.46760 0.84100 0.67400 -0.17900
C 	C 	0.70450 0.91740 0.60660 0.07000
C 	C 	0.68540 0.73090 0.61640 -0.00700
C 	C 	0.81730 0.76760 0.57210 0.00200
C 	C 	0.17450 0.57820 0.41980 0.40900
C 	C 	0.03020 0.53690 0.45330 -0.32400
C 	C 	0.47390 0.80300 0.39490 0.21400
C 	C 	0.54620 0.68380 0.41370 0.17100
C 	C 	0.69390 0.70190 0.34920 -0.46700
C 	C 	0.72100 0.75170 0.23010 0.42400
C 	C 	0.54370 0.20650 0.97180 0.08300
C 	C 	0.67330 0.08380 0.90550 0.07700
C 	C 	0.64630 0.03970 0.01260 -0.11800
C 	C 	0.50580 0.11500 0.16600 -0.17300
C 	C 	0.59850 0.17170 0.20700 0.14500
C 	C 	0.72730 0.09720 0.19710 -0.17400
C 	C 	0.82800 0.05280 0.34600 0.01400
C 	C 	0.92970 0.19530 0.20630 -0.05400
C 	C 	0.99610 0.17380 0.27900 0.08600
C 	C 	0.64140 0.30120 0.14040 -0.16300
C 	C 	0.42160 0.41210 0.13180 -0.01000
C 	C 	0.36970 0.51040 0.15740 0.01100
C 	C 	0.55530 0.48020 0.19640 0.08600
C 	C 	0.53240 0.15900 0.32600 -0.16900
C 	C 	0.29550 0.08260 0.39340 0.06900
C 	C 	0.31460 0.26910 0.38360 -0.01100
C 	C 	0.18270 0.23240 0.42790 0.00200
C 	C 	0.82550 0.42180 0.58020 0.27800
C 	C 	0.96980 0.46310 0.54670 0.06500
C 	C 	0.52610 0.19700 0.60510 0.21600
C 	C 	0.45380 0.31620 0.58630 0.16700
C 	C 	0.30610 0.29810 0.65080 -0.46600
C 	C 	0.27900 0.24830 0.76990 0.41900
N 	N 	0.39180 0.81070 0.11910 -0.21400
N 	N 	0.43620 0.88040 0.94590 -0.10800
N 	N 	0.17930 0.88240 0.75060 -0.11300
N 	N 	0.06870 0.91600 0.63240 -0.23800
N 	N 	0.54600 0.44670 0.80200 -0.21700
N 	N 	0.45960 0.60860 0.84260 -0.09600
N 	N 	0.83030 0.88600 0.56610 -0.22700
N 	N 	0.61460 0.82680 0.63890 -0.08600
N 	N 	0.60820 0.18930 0.88090 -0.23000
N 	N 	0.56380 0.11960 0.05410 -0.08600
N 	N 	0.82070 0.11760 0.24940 -0.08200
N 	N 	0.93130 0.08400 0.36760 -0.23900
N 	N 	0.45400 0.55330 0.19800 -0.21700
N 	N 	0.54040 0.39140 0.15740 -0.09600
N 	N 	0.16970 0.11400 0.43390 -0.25200
N 	N 	0.38540 0.17320 0.36110 -0.09000
O 	O 	0.23830 0.54450 0.48610 -0.33300
O 	O 	0.22220 0.64280 0.32530 -0.42100
O 	O 	0.39360 0.82000 0.33850 -0.34800
O 	O 	0.50090 0.87620 0.43340 -0.22200
O 	O 	0.84790 0.76540 0.17610 -0.25300
O 	O 	0.63180 0.75060 0.18750 -0.39900
O 	O 	0.48680 0.59810 0.38460 -0.48200
O 	O 	0.76170 0.45550 0.51390 -0.29700
O 	O 	0.77780 0.35720 0.67470 -0.37800
O 	O 	0.60640 0.18000 0.66150 -0.36800
O 	O 	0.49910 0.12380 0.56660 -0.25300
O 	O 	0.15210 0.23460 0.82390 -0.28100
O 	O 	0.36820 0.24940 0.81250 -0.40700
O 	O 	0.51320 0.40190 0.61540 -0.48000
