data_crystal

_cell_length_a 9.58310
_cell_length_b 10.10450
_cell_length_c 20.17350
_cell_angle_alpha 103.26200
_cell_angle_beta  90.00000
_cell_angle_gamma 90.00000

_symmetry_space_group_name_	'P 1'
_symmetry_space_group_name_H-M	'P 1'

loop_
_symmetry_equiv_pos_as_xyz
  x,y,z

loop_
_atom_site_label
_atom_site_type_symbol
_atom_site_fract_x
_atom_site_fract_y
_atom_site_fract_z
_atom_site_charge
Gd	Gd	0.42944 0.76877 0.79855 1.60000
Gd	Gd	0.92944 0.73123 0.70145 1.59700
Gd	Gd	0.57056 0.23123 0.20145 1.60100
Gd	Gd	0.07056 0.26877 0.29855 1.59800
Zn	Zn	0.86150 0.30367 0.66379 1.17600
Zn	Zn	0.36150 0.19633 0.83621 1.17700
Zn	Zn	0.13850 0.69633 0.33621 1.17600
Zn	Zn	0.63850 0.80367 0.16379 1.17700
H 	H 	0.00770 0.94430 0.15350 -0.00400
H 	H 	0.90160 0.82350 0.05650 0.04300
H 	H 	0.01870 0.77920 0.95430 0.01800
H 	H 	0.35170 0.98360 0.04680 0.01800
H 	H 	0.62730 0.10180 0.72020 -0.02800
H 	H 	0.50770 0.55570 0.34650 -0.00600
H 	H 	0.40160 0.67650 0.44350 0.04700
H 	H 	0.51870 0.72080 0.54570 0.01400
H 	H 	0.85170 0.51640 0.45320 0.01700
H 	H 	0.12730 0.39820 0.77980 -0.02700
H 	H 	0.99230 0.05570 0.84650 -0.00400
H 	H 	0.09840 0.17650 0.94350 0.04300
H 	H 	0.98130 0.22080 0.04570 0.01800
H 	H 	0.64830 0.01640 0.95320 0.01800
H 	H 	0.37270 0.89820 0.27980 -0.02800
H 	H 	0.49230 0.44430 0.65350 -0.00600
H 	H 	0.59840 0.32350 0.55650 0.04700
H 	H 	0.48130 0.27920 0.45430 0.01400
H 	H 	0.14830 0.48360 0.54680 0.01700
H 	H 	0.87270 0.60180 0.22020 -0.02700
C 	C 	0.19150 0.97520 0.11060 -0.18700
C 	C 	0.05590 0.92710 0.11240 0.06800
C 	C 	0.99230 0.85490 0.05450 -0.12500
C 	C 	0.06220 0.82850 0.99340 0.05200
C 	C 	0.19790 0.87570 0.99000 -0.12800
C 	C 	0.26170 0.95030 0.04890 0.06800
C 	C 	0.27420 0.84440 0.92360 0.32700
C 	C 	0.25930 0.05430 0.17460 0.45500
C 	C 	0.70180 0.53630 0.73920 0.36600
C 	C 	0.63870 0.41170 0.75280 -0.07200
C 	C 	0.53650 0.38650 0.79540 -0.05300
C 	C 	0.44840 0.47390 0.84830 0.33700
C 	C 	0.61480 0.19470 0.73710 0.12000
C 	C 	0.69150 0.52480 0.38940 -0.19200
C 	C 	0.55590 0.57290 0.38760 0.08000
C 	C 	0.49230 0.64510 0.44550 -0.13800
C 	C 	0.56220 0.67150 0.50660 0.06100
C 	C 	0.69790 0.62430 0.51000 -0.13600
C 	C 	0.76170 0.54970 0.45110 0.07700
C 	C 	0.77420 0.65560 0.57640 0.33000
C 	C 	0.75930 0.44570 0.32540 0.45600
C 	C 	0.20180 0.96370 0.76080 0.36700
C 	C 	0.13870 0.08830 0.74720 -0.07200
C 	C 	0.03650 0.11350 0.70460 -0.04900
C 	C 	0.94840 0.02610 0.65170 0.33200
C 	C 	0.11480 0.30530 0.76290 0.12100
C 	C 	0.80850 0.02480 0.88940 -0.18700
C 	C 	0.94410 0.07290 0.88760 0.06800
C 	C 	0.00770 0.14510 0.94550 -0.12500
C 	C 	0.93780 0.17150 0.00660 0.05200
C 	C 	0.80210 0.12430 0.01000 -0.12800
C 	C 	0.73830 0.04970 0.95110 0.06800
C 	C 	0.72580 0.15560 0.07640 0.32700
C 	C 	0.74070 0.94570 0.82540 0.45500
C 	C 	0.29820 0.46370 0.26080 0.36600
C 	C 	0.36130 0.58830 0.24720 -0.07200
C 	C 	0.46350 0.61350 0.20460 -0.05300
C 	C 	0.55160 0.52610 0.15170 0.33700
C 	C 	0.38520 0.80530 0.26290 0.12000
C 	C 	0.30850 0.47520 0.61060 -0.19200
C 	C 	0.44410 0.42710 0.61240 0.08000
C 	C 	0.50770 0.35490 0.55450 -0.13800
C 	C 	0.43780 0.32850 0.49340 0.06100
C 	C 	0.30210 0.37570 0.49000 -0.13600
C 	C 	0.23830 0.45030 0.54890 0.07700
C 	C 	0.22580 0.34440 0.42360 0.33000
C 	C 	0.24070 0.55430 0.67460 0.45600
C 	C 	0.79820 0.03630 0.23920 0.36700
C 	C 	0.86130 0.91170 0.25280 -0.07200
C 	C 	0.96350 0.88650 0.29540 -0.04900
C 	C 	0.05160 0.97390 0.34830 0.33200
C 	C 	0.88520 0.69470 0.23710 0.12100
N 	N 	0.68690 0.28990 0.71580 -0.26000
N 	N 	0.52180 0.24810 0.78580 -0.27300
N 	N 	0.18690 0.21010 0.78420 -0.25900
N 	N 	0.02180 0.25190 0.71420 -0.27200
N 	N 	0.31310 0.71010 0.28420 -0.26000
N 	N 	0.47820 0.75190 0.21420 -0.27300
N 	N 	0.81310 0.78990 0.21580 -0.25900
N 	N 	0.97820 0.74810 0.28580 -0.27200
O 	O 	0.21950 0.77188 0.87148 -0.37200
O 	O 	0.39710 0.89046 0.92056 -0.37200
O 	O 	0.38690 0.07955 0.17145 -0.48300
O 	O 	0.18610 0.08801 0.22751 -0.47300
O 	O 	0.64990 0.65020 0.75930 -0.44400
O 	O 	0.81400 0.51643 0.70393 -0.56700
O 	O 	0.46670 0.60126 0.86206 -0.38800
O 	O 	0.36180 0.41489 0.87799 -0.42400
O 	O 	0.71950 0.72812 0.62852 -0.37300
O 	O 	0.89710 0.60954 0.57944 -0.37200
O 	O 	0.88690 0.42045 0.32855 -0.48300
O 	O 	0.68610 0.41199 0.27249 -0.47300
O 	O 	0.14990 0.84980 0.74070 -0.44300
O 	O 	0.31400 0.98357 0.79607 -0.56700
O 	O 	0.96670 0.89874 0.63794 -0.38600
O 	O 	0.86180 0.08511 0.62201 -0.42400
O 	O 	0.78050 0.22812 0.12852 -0.37200
O 	O 	0.60290 0.10954 0.07944 -0.37200
O 	O 	0.61310 0.92045 0.82855 -0.48300
O 	O 	0.81390 0.91199 0.77249 -0.47300
O 	O 	0.35010 0.34980 0.24070 -0.44400
O 	O 	0.18600 0.48357 0.29607 -0.56700
O 	O 	0.53330 0.39874 0.13794 -0.38800
O 	O 	0.63820 0.58511 0.12201 -0.42400
O 	O 	0.28050 0.27188 0.37148 -0.37300
O 	O 	0.10290 0.39046 0.42056 -0.37200
O 	O 	0.11310 0.57955 0.67145 -0.48300
O 	O 	0.31390 0.58801 0.72751 -0.47300
O 	O 	0.85010 0.15020 0.25930 -0.44300
O 	O 	0.68600 0.01643 0.20393 -0.56700
O 	O 	0.03330 0.10126 0.36206 -0.38600
O 	O 	0.13820 0.91489 0.37799 -0.42400
