data_crystal

_cell_length_a 12.03200
_cell_length_b 15.08700
_cell_length_c 15.08700
_cell_angle_alpha 120.00000
_cell_angle_beta  90.00000
_cell_angle_gamma 90.00000

_symmetry_space_group_name_	'P 1'
_symmetry_space_group_name_H-M	'P 1'

loop_
_symmetry_equiv_pos_as_xyz
  x,y,z

loop_
_atom_site_label
_atom_site_type_symbol
_atom_site_fract_x
_atom_site_fract_y
_atom_site_fract_z
_atom_site_charge
In	In	-0.00000 0.50000 0.50000 1.97900
In	In	0.66667 -0.00000 0.50000 1.97100
In	In	0.33333 0.50000 -0.00000 1.97100
C 	C 	0.84830 0.49050 0.61920 0.29300
C 	C 	0.75370 0.49550 0.68920 -0.03800
C 	C 	0.71360 0.58620 0.76550 0.00800
C 	C 	0.70910 0.40040 0.67160 -0.00400
C 	C 	0.51497 0.12870 0.50950 0.29400
C 	C 	0.42037 0.19370 0.50450 -0.06400
C 	C 	0.38027 0.17930 0.41380 -0.01400
C 	C 	0.37577 0.27120 0.59960 -0.01100
C 	C 	0.18163 0.38080 0.87130 0.25500
C 	C 	0.08703 0.31080 0.80630 0.04300
C 	C 	0.04693 0.23450 0.82070 -0.15700
C 	C 	0.04243 0.32840 0.72880 -0.17300
C 	C 	0.84830 0.50950 0.38080 0.28700
C 	C 	0.75370 0.50450 0.31080 -0.04200
C 	C 	0.71360 0.41380 0.23450 -0.01400
C 	C 	0.70910 0.59960 0.32840 -0.01200
C 	C 	0.51497 0.87130 0.49050 0.28700
C 	C 	0.42037 0.80630 0.49550 -0.03500
C 	C 	0.38027 0.82070 0.58620 -0.00200
C 	C 	0.37577 0.72880 0.40040 -0.01100
C 	C 	0.18163 0.61920 0.12870 0.26600
C 	C 	0.08703 0.68920 0.19370 0.02100
C 	C 	0.04693 0.76550 0.17930 -0.15600
C 	C 	0.04243 0.67160 0.27120 -0.17200
C 	C 	0.81837 0.87130 0.38080 0.31800
C 	C 	0.91297 0.80630 0.31080 -0.12000
C 	C 	0.95307 0.82070 0.23450 0.14900
C 	C 	0.95757 0.72880 0.32840 0.15600
C 	C 	0.15170 0.61920 0.49050 0.29700
C 	C 	0.24630 0.68920 0.49550 -0.05600
C 	C 	0.28640 0.76550 0.58620 0.00700
C 	C 	0.29090 0.67160 0.40040 -0.00400
C 	C 	0.48503 0.50950 0.12870 0.29700
C 	C 	0.57963 0.50450 0.19370 -0.06400
C 	C 	0.61973 0.41380 0.17930 -0.00600
C 	C 	0.62423 0.59960 0.27120 -0.00500
C 	C 	0.81837 0.12870 0.61920 0.32900
C 	C 	0.91297 0.19370 0.68920 -0.14100
C 	C 	0.95307 0.17930 0.76550 0.15000
C 	C 	0.95757 0.27120 0.67160 0.15700
C 	C 	0.15170 0.38080 0.50950 0.29200
C 	C 	0.24630 0.31080 0.50450 -0.06100
C 	C 	0.28640 0.23450 0.41380 -0.01500
C 	C 	0.29090 0.32840 0.59960 -0.01200
C 	C 	0.48503 0.49050 0.87130 0.29000
C 	C 	0.57963 0.49550 0.80630 -0.03400
C 	C 	0.61973 0.58620 0.82070 0.00700
C 	C 	0.62423 0.40040 0.72880 -0.00500
O 	O 	0.89710 0.57840 0.64520 -0.36700
O 	O 	0.87420 0.41350 0.54160 -0.41700
O 	O 	0.56377 0.06680 0.42160 -0.46200
O 	O 	0.54087 0.12810 0.58650 -0.46300
O 	O 	0.23043 0.35480 0.93320 -0.36900
O 	O 	0.20753 0.45840 0.87190 -0.39800
O 	O 	0.89710 0.42160 0.35480 -0.39500
O 	O 	0.87420 0.58650 0.45840 -0.40500
O 	O 	0.56377 0.93320 0.57840 -0.35500
O 	O 	0.54087 0.87190 0.41350 -0.40700
O 	O 	0.23043 0.64520 0.06680 -0.44900
O 	O 	0.20753 0.54160 0.12810 -0.46500
O 	O 	0.76957 0.93320 0.35480 -0.37100
O 	O 	0.79247 0.87190 0.45840 -0.40300
O 	O 	0.10290 0.64520 0.57840 -0.42700
O 	O 	0.12580 0.54160 0.41350 -0.46500
O 	O 	0.43623 0.42160 0.06680 -0.46500
O 	O 	0.45913 0.58650 0.12810 -0.46200
O 	O 	0.76957 0.06680 0.64520 -0.45100
O 	O 	0.79247 0.12810 0.54160 -0.47000
O 	O 	0.10290 0.35480 0.42160 -0.45500
O 	O 	0.12580 0.45840 0.58650 -0.45300
O 	O 	0.43623 0.57840 0.93320 -0.35800
O 	O 	0.45913 0.41350 0.87190 -0.40600
H 	H 	0.75623 0.66097 0.78389 0.08900
H 	H 	0.74583 0.32526 0.60919 0.06100
H 	H 	0.42290 0.12292 0.33903 0.03100
H 	H 	0.41250 0.28393 0.67474 0.05700
H 	H 	0.08956 0.21611 0.87708 0.08300
H 	H 	0.07916 0.39081 0.71608 0.08500
H 	H 	0.75623 0.33903 0.21611 0.04800
H 	H 	0.74583 0.67474 0.39081 0.06700
H 	H 	0.42290 0.87708 0.66097 0.08700
H 	H 	0.41250 0.71607 0.32526 0.06300
H 	H 	0.08956 0.78389 0.12292 0.06900
H 	H 	0.07916 0.60919 0.28392 0.07500
H 	H 	0.91128 0.87683 0.21529 0.05100
H 	H 	0.92144 0.71546 0.39062 0.04500
H 	H 	0.24460 0.78472 0.66155 0.07200
H 	H 	0.25477 0.60938 0.32484 0.05400
H 	H 	0.57710 0.33903 0.12292 0.03300
H 	H 	0.58750 0.67474 0.28393 0.05800
H 	H 	0.91128 0.12317 0.78471 0.03700
H 	H 	0.92144 0.28454 0.60938 0.03600
H 	H 	0.24460 0.21528 0.33845 0.03000
H 	H 	0.25477 0.39062 0.67516 0.05900
H 	H 	0.57793 0.66155 0.87683 0.08900
H 	H 	0.58810 0.32484 0.71546 0.06300
