data_crystal

_cell_length_a 6.25800
_cell_length_b 15.52600
_cell_length_c 15.52600
_cell_angle_alpha 120.00000
_cell_angle_beta  90.00000
_cell_angle_gamma 90.00000

_symmetry_space_group_name_	'P 1'
_symmetry_space_group_name_H-M	'P 1'

loop_
_symmetry_equiv_pos_as_xyz
  x,y,z

loop_
_atom_site_label
_atom_site_type_symbol
_atom_site_fract_x
_atom_site_fract_y
_atom_site_fract_z
_atom_site_charge
Zn	Zn	0.95155 0.16673 0.33334 1.18900
Zn	Zn	0.61822 0.16661 0.83327 1.20600
Zn	Zn	0.28488 0.66666 0.83339 1.21000
C 	C 	0.85010 0.98120 0.18890 0.22700
C 	C 	0.84870 0.35170 0.47770 0.23100
C 	C 	0.70790 0.90250 0.10720 -0.03300
C 	C 	0.39050 0.85270 0.01090 0.04800
C 	C 	0.70930 0.43090 0.55840 -0.03700
C 	C 	0.78800 0.52780 0.61970 -0.04300
C 	C 	0.50760 0.92790 0.09140 -0.03000
C 	C 	0.50780 0.40660 0.57590 -0.02400
C 	C 	0.78740 0.80570 0.04660 -0.03600
C 	C 	0.38960 0.48020 0.65420 0.03200
C 	C 	0.65950 0.73670 0.96870 0.02000
C 	C 	0.66080 0.59460 0.69670 0.02900
C 	C 	0.51677 0.20770 0.01880 0.32700
C 	C 	0.51537 0.12600 0.64830 0.31900
C 	C 	0.37457 0.20470 0.09750 -0.04800
C 	C 	0.05717 0.15820 0.14730 0.11000
C 	C 	0.37597 0.12750 0.56910 -0.04600
C 	C 	0.45467 0.09190 0.47220 -0.02700
C 	C 	0.17427 0.16350 0.07210 -0.02700
C 	C 	0.17447 0.16930 0.59340 -0.03600
C 	C 	0.45407 0.24090 0.19430 -0.02400
C 	C 	0.05627 0.17400 0.51980 0.10800
C 	C 	0.32617 0.23200 0.26330 0.02900
C 	C 	0.32747 0.10210 0.40540 0.03400
C 	C 	0.18343 0.81110 0.79230 0.30800
C 	C 	0.18203 0.52230 0.87400 0.30800
C 	C 	0.04123 0.89280 0.79530 -0.00000
C 	C 	0.72383 0.98910 0.84180 0.03300
C 	C 	0.04263 0.44160 0.87250 -0.00600
C 	C 	0.12133 0.38030 0.90810 0.06000
C 	C 	0.84093 0.90860 0.83650 -0.08500
C 	C 	0.84113 0.42410 0.83070 -0.08200
C 	C 	0.12073 0.95340 0.75910 0.05400
C 	C 	0.72293 0.34580 0.82600 0.03400
C 	C 	0.99283 0.03130 0.76800 -0.11000
C 	C 	0.99413 0.30330 0.89790 -0.11300
N 	N 	0.46460 0.76180 0.95280 -0.25100
N 	N 	0.46500 0.57220 0.71410 -0.24800
N 	N 	0.13127 0.19100 0.23820 -0.24600
N 	N 	0.13167 0.14190 0.42780 -0.24600
N 	N 	0.79793 0.04720 0.80900 -0.23500
N 	N 	0.79833 0.28590 0.85810 -0.23600
O 	O 	0.75190 0.27120 0.41920 -0.44300
O 	O 	0.75150 0.06150 0.24780 -0.43800
O 	O 	0.04000 0.36810 0.47590 -0.24100
O 	O 	0.04020 0.96560 0.19060 -0.24200
O 	O 	0.41857 0.14800 0.72880 -0.45100
O 	O 	0.41817 0.18630 0.93850 -0.45300
O 	O 	0.70667 0.10780 0.63190 -0.33300
O 	O 	0.70687 0.22500 0.03440 -0.33600
O 	O 	0.08523 0.58080 0.85200 -0.42300
O 	O 	0.08483 0.75220 0.81370 -0.42000
O 	O 	0.37333 0.52410 0.89220 -0.31200
O 	O 	0.37353 0.80940 0.77500 -0.31400
H 	H 	0.22350 0.86918 0.99352 0.01600
H 	H 	0.95268 0.54910 0.60496 0.02200
H 	H 	0.43450 0.00481 0.13916 0.05900
H 	H 	0.44278 0.32821 0.52692 0.05600
H 	H 	0.95258 0.78504 0.06153 0.02100
H 	H 	0.22109 0.46338 0.66958 0.02500
H 	H 	0.72065 0.65796 0.91775 0.00900
H 	H 	0.72129 0.67311 0.74914 0.00700
H 	H 	0.89017 0.12433 0.13082 -0.03700
H 	H 	0.61935 0.05586 0.45090 0.03700
H 	H 	0.11042 0.13572 0.99379 0.07000
H 	H 	0.10945 0.19870 0.67179 0.07500
H 	H 	0.61925 0.27649 0.21496 0.03600
H 	H 	0.88776 0.20620 0.53662 -0.03500
H 	H 	0.38732 0.25979 0.34204 0.02000
H 	H 	0.38796 0.07603 0.32689 0.01900
H 	H 	0.55683 0.00648 0.87567 0.01100
H 	H 	0.28601 0.39504 0.94414 0.02800
H 	H 	0.76783 0.86084 0.86565 0.05500
H 	H 	0.77611 0.47308 0.80130 0.05500
H 	H 	0.28591 0.93847 0.72351 0.02900
H 	H 	0.55442 0.33042 0.79380 0.01200
H 	H 	0.05398 0.08225 0.74021 0.08500
H 	H 	0.05462 0.25086 0.92397 0.08400
