data_crystal

_cell_length_a 18.83130
_cell_length_b 18.83130
_cell_length_c 18.83130
_cell_angle_alpha 61.45600
_cell_angle_beta  61.45600
_cell_angle_gamma 61.45600

_symmetry_space_group_name_	'P 1'
_symmetry_space_group_name_H-M	'P 1'

loop_
_symmetry_equiv_pos_as_xyz
  x,y,z

loop_
_atom_site_label
_atom_site_type_symbol
_atom_site_fract_x
_atom_site_fract_y
_atom_site_fract_z
_atom_site_charge
Fe	Fe	0.34882 0.15118 0.25000 1.23000
Fe	Fe	0.25000 0.34882 0.15118 1.23000
Fe	Fe	0.15118 0.25000 0.34882 1.22900
Fe	Fe	0.65118 0.84882 0.75000 1.22900
Fe	Fe	0.75000 0.65118 0.84882 1.22900
Fe	Fe	0.84882 0.75000 0.65118 1.22900
H 	H 	0.48110 0.03110 0.34800 0.03400
H 	H 	0.49640 0.91800 0.47490 0.07700
H 	H 	0.55090 0.88590 0.57820 0.02600
H 	H 	0.79200 0.82510 0.41530 0.02900
H 	H 	0.73770 0.85890 0.31010 0.07200
H 	H 	0.34800 0.48110 0.03110 0.03400
H 	H 	0.47490 0.49640 0.91800 0.07700
H 	H 	0.57820 0.55090 0.88590 0.02600
H 	H 	0.41530 0.79200 0.82510 0.02900
H 	H 	0.31010 0.73770 0.85890 0.07200
H 	H 	0.03110 0.34800 0.48110 0.03400
H 	H 	0.91800 0.47490 0.49640 0.07700
H 	H 	0.88590 0.57820 0.55090 0.02600
H 	H 	0.82510 0.41530 0.79200 0.02900
H 	H 	0.85890 0.31010 0.73770 0.07200
H 	H 	0.46890 0.01890 0.15200 0.03400
H 	H 	0.58200 0.00360 0.02510 0.07700
H 	H 	0.61410 0.94910 0.92180 0.02600
H 	H 	0.67490 0.70800 0.08470 0.02900
H 	H 	0.64110 0.76230 0.18990 0.07200
H 	H 	0.01890 0.15200 0.46890 0.03400
H 	H 	0.00360 0.02510 0.58200 0.07700
H 	H 	0.94910 0.92180 0.61410 0.02600
H 	H 	0.70800 0.08470 0.67490 0.02900
H 	H 	0.76230 0.18990 0.64110 0.07200
H 	H 	0.15200 0.46890 0.01890 0.03400
H 	H 	0.02510 0.58200 0.00360 0.07700
H 	H 	0.92180 0.61410 0.94910 0.02600
H 	H 	0.08470 0.67490 0.70800 0.02900
H 	H 	0.18990 0.64110 0.76230 0.07200
H 	H 	0.51890 0.96890 0.65200 0.03400
H 	H 	0.50360 0.08200 0.52510 0.07700
H 	H 	0.44910 0.11410 0.42180 0.02600
H 	H 	0.20800 0.17490 0.58470 0.02900
H 	H 	0.26230 0.14110 0.68990 0.07200
H 	H 	0.65200 0.51890 0.96890 0.03400
H 	H 	0.52510 0.50360 0.08200 0.07700
H 	H 	0.42180 0.44910 0.11410 0.02600
H 	H 	0.58470 0.20800 0.17490 0.02900
H 	H 	0.68990 0.26230 0.14110 0.07200
H 	H 	0.96890 0.65200 0.51890 0.03400
H 	H 	0.08200 0.52510 0.50360 0.07700
H 	H 	0.11410 0.42180 0.44910 0.02600
H 	H 	0.17490 0.58470 0.20800 0.02900
H 	H 	0.14110 0.68990 0.26230 0.07200
H 	H 	0.53110 0.98110 0.84800 0.03400
H 	H 	0.41800 0.99640 0.97490 0.07700
H 	H 	0.38590 0.05090 0.07820 0.02600
H 	H 	0.32510 0.29200 0.91530 0.02900
H 	H 	0.35890 0.23770 0.81010 0.07200
H 	H 	0.98110 0.84800 0.53110 0.03400
H 	H 	0.99640 0.97490 0.41800 0.07700
H 	H 	0.05090 0.07820 0.38590 0.02600
H 	H 	0.29200 0.91530 0.32510 0.02900
H 	H 	0.23770 0.81010 0.35890 0.07200
H 	H 	0.84800 0.53110 0.98110 0.03400
H 	H 	0.97490 0.41800 0.99640 0.07700
H 	H 	0.07820 0.38590 0.05090 0.02600
H 	H 	0.91530 0.32510 0.29200 0.02900
H 	H 	0.81010 0.35890 0.23770 0.07200
H 	H 	0.65805 0.84195 0.25000 0.04500
H 	H 	0.25000 0.65805 0.84195 0.04500
H 	H 	0.84195 0.25000 0.65805 0.04500
H 	H 	0.34195 0.15805 0.75000 0.04500
H 	H 	0.75000 0.34195 0.15805 0.04500
H 	H 	0.15805 0.75000 0.34195 0.04500
C 	C 	0.50371 0.00371 0.30691 0.02400
C 	C 	0.57694 0.93154 0.30924 -0.02500
C 	C 	0.71257 0.83835 0.57091 0.37500
C 	C 	0.61039 0.89459 0.38189 0.07000
C 	C 	0.55650 0.90010 0.46210 -0.12300
C 	C 	0.58894 0.88004 0.52394 0.05200
C 	C 	0.67602 0.85162 0.50752 -0.11800
C 	C 	0.73209 0.84419 0.42699 0.04500
C 	C 	0.69987 0.86487 0.36437 -0.11600
C 	C 	0.30691 0.50371 0.00371 0.02400
C 	C 	0.30924 0.57694 0.93154 -0.02500
C 	C 	0.57091 0.71257 0.83835 0.37500
C 	C 	0.38189 0.61039 0.89459 0.07000
C 	C 	0.46210 0.55650 0.90010 -0.12300
C 	C 	0.52394 0.58894 0.88004 0.05200
C 	C 	0.50752 0.67602 0.85162 -0.11800
C 	C 	0.42699 0.73209 0.84419 0.04500
C 	C 	0.36437 0.69987 0.86487 -0.11600
C 	C 	0.00371 0.30691 0.50371 0.02400
C 	C 	0.93154 0.30924 0.57694 -0.02500
C 	C 	0.83835 0.57091 0.71257 0.37500
C 	C 	0.89459 0.38189 0.61039 0.07000
C 	C 	0.90010 0.46210 0.55650 -0.12300
C 	C 	0.88004 0.52394 0.58894 0.05200
C 	C 	0.85162 0.50752 0.67602 -0.11800
C 	C 	0.84419 0.42699 0.73209 0.04500
C 	C 	0.86487 0.36437 0.69987 -0.11600
C 	C 	0.49629 0.99629 0.19309 0.02500
C 	C 	0.56846 0.92306 0.19076 -0.02500
C 	C 	0.66165 0.78743 0.92909 0.37500
C 	C 	0.60541 0.88961 0.11811 0.07000
C 	C 	0.59990 0.94350 0.03790 -0.12200
C 	C 	0.61996 0.91106 0.97606 0.05100
C 	C 	0.64838 0.82398 0.99248 -0.11800
C 	C 	0.65581 0.76791 0.07301 0.04500
C 	C 	0.63513 0.80013 0.13563 -0.11600
C 	C 	0.99629 0.19309 0.49629 0.02500
C 	C 	0.92306 0.19076 0.56846 -0.02500
C 	C 	0.78743 0.92909 0.66165 0.37500
C 	C 	0.88961 0.11811 0.60541 0.07000
C 	C 	0.94350 0.03790 0.59990 -0.12200
C 	C 	0.91106 0.97606 0.61996 0.05100
C 	C 	0.82398 0.99248 0.64838 -0.11800
C 	C 	0.76791 0.07301 0.65581 0.04500
C 	C 	0.80013 0.13563 0.63513 -0.11600
C 	C 	0.19309 0.49629 0.99629 0.02500
C 	C 	0.19076 0.56846 0.92306 -0.02500
C 	C 	0.92909 0.66165 0.78743 0.37500
C 	C 	0.11811 0.60541 0.88961 0.07000
C 	C 	0.03790 0.59990 0.94350 -0.12200
C 	C 	0.97606 0.61996 0.91106 0.05100
C 	C 	0.99248 0.64838 0.82398 -0.11800
C 	C 	0.07301 0.65581 0.76791 0.04500
C 	C 	0.13563 0.63513 0.80013 -0.11600
C 	C 	0.49629 0.99629 0.69309 0.02400
C 	C 	0.42306 0.06846 0.69076 -0.02500
C 	C 	0.28743 0.16165 0.42909 0.37500
C 	C 	0.38961 0.10541 0.61811 0.07000
C 	C 	0.44350 0.09990 0.53790 -0.12300
C 	C 	0.41106 0.11996 0.47606 0.05200
C 	C 	0.32398 0.14838 0.49248 -0.11800
C 	C 	0.26791 0.15581 0.57301 0.04500
C 	C 	0.30013 0.13513 0.63563 -0.11600
C 	C 	0.69309 0.49629 0.99629 0.02400
C 	C 	0.69076 0.42306 0.06846 -0.02500
C 	C 	0.42909 0.28743 0.16165 0.37500
C 	C 	0.61811 0.38961 0.10541 0.07000
C 	C 	0.53790 0.44350 0.09990 -0.12300
C 	C 	0.47606 0.41106 0.11996 0.05200
C 	C 	0.49248 0.32398 0.14838 -0.11800
C 	C 	0.57301 0.26791 0.15581 0.04500
C 	C 	0.63563 0.30013 0.13513 -0.11600
C 	C 	0.99629 0.69309 0.49629 0.02400
C 	C 	0.06846 0.69076 0.42306 -0.02500
C 	C 	0.16165 0.42909 0.28743 0.37500
C 	C 	0.10541 0.61811 0.38961 0.07000
C 	C 	0.09990 0.53790 0.44350 -0.12300
C 	C 	0.11996 0.47606 0.41106 0.05200
C 	C 	0.14838 0.49248 0.32398 -0.11800
C 	C 	0.15581 0.57301 0.26791 0.04500
C 	C 	0.13513 0.63563 0.30013 -0.11600
C 	C 	0.50371 0.00371 0.80691 0.02500
C 	C 	0.43154 0.07694 0.80924 -0.02500
C 	C 	0.33835 0.21257 0.07091 0.37500
C 	C 	0.39459 0.11039 0.88189 0.07000
C 	C 	0.40010 0.05650 0.96210 -0.12200
C 	C 	0.38004 0.08894 0.02394 0.05100
C 	C 	0.35162 0.17602 0.00752 -0.11800
C 	C 	0.34419 0.23209 0.92699 0.04500
C 	C 	0.36487 0.19987 0.86437 -0.11600
C 	C 	0.00371 0.80691 0.50371 0.02500
C 	C 	0.07694 0.80924 0.43154 -0.02500
C 	C 	0.21257 0.07091 0.33835 0.37500
C 	C 	0.11039 0.88189 0.39459 0.07000
C 	C 	0.05650 0.96210 0.40010 -0.12200
C 	C 	0.08894 0.02394 0.38004 0.05100
C 	C 	0.17602 0.00752 0.35162 -0.11800
C 	C 	0.23209 0.92699 0.34419 0.04500
C 	C 	0.19987 0.86437 0.36487 -0.11600
C 	C 	0.80691 0.50371 0.00371 0.02500
C 	C 	0.80924 0.43154 0.07694 -0.02500
C 	C 	0.07091 0.33835 0.21257 0.37500
C 	C 	0.88189 0.39459 0.11039 0.07000
C 	C 	0.96210 0.40010 0.05650 -0.12200
C 	C 	0.02394 0.38004 0.08894 0.05100
C 	C 	0.00752 0.35162 0.17602 -0.11800
C 	C 	0.92699 0.34419 0.23209 0.04500
C 	C 	0.86437 0.36487 0.19987 -0.11600
C 	C 	0.60875 0.89125 0.25000 -0.04000
C 	C 	0.25000 0.60875 0.89125 -0.04000
C 	C 	0.89125 0.25000 0.60875 -0.04000
C 	C 	0.39125 0.10875 0.75000 -0.04000
C 	C 	0.75000 0.39125 0.10875 -0.04000
C 	C 	0.10875 0.75000 0.39125 -0.04000
N 	N 	0.46375 0.03625 0.25000 -0.18100
N 	N 	0.25000 0.46375 0.03625 -0.18100
N 	N 	0.03625 0.25000 0.46375 -0.18100
N 	N 	0.53625 0.96375 0.75000 -0.18100
N 	N 	0.75000 0.53625 0.96375 -0.18100
N 	N 	0.96375 0.75000 0.53625 -0.18100
O 	O 	0.66204 0.87496 0.62677 -0.42200
O 	O 	0.78693 0.78697 0.56848 -0.41600
O 	O 	0.62677 0.66204 0.87496 -0.42200
O 	O 	0.56848 0.78693 0.78697 -0.41600
O 	O 	0.87496 0.62677 0.66204 -0.42200
O 	O 	0.78697 0.56848 0.78693 -0.41600
O 	O 	0.62504 0.83796 0.87323 -0.42200
O 	O 	0.71303 0.71307 0.93152 -0.41600
O 	O 	0.83796 0.87323 0.62504 -0.42200
O 	O 	0.71307 0.93152 0.71303 -0.41600
O 	O 	0.87323 0.62504 0.83796 -0.42200
O 	O 	0.93152 0.71303 0.71307 -0.41600
O 	O 	0.33796 0.12504 0.37323 -0.42200
O 	O 	0.21307 0.21303 0.43152 -0.41600
O 	O 	0.37323 0.33796 0.12504 -0.42200
O 	O 	0.43152 0.21307 0.21303 -0.41600
O 	O 	0.12504 0.37323 0.33796 -0.42200
O 	O 	0.21303 0.43152 0.21307 -0.41600
O 	O 	0.37496 0.16204 0.12677 -0.42200
O 	O 	0.28697 0.28693 0.06848 -0.41600
O 	O 	0.16204 0.12677 0.37496 -0.42200
O 	O 	0.28693 0.06848 0.28697 -0.41600
O 	O 	0.12677 0.37496 0.16204 -0.42200
O 	O 	0.06848 0.28697 0.28693 -0.41600
O 	O 	0.25000 0.25000 0.25000 -0.66700
O 	O 	0.75000 0.75000 0.75000 -0.66700
