data_crystal

_cell_length_a 16.44100
_cell_length_b 17.30900
_cell_length_c 18.12800
_cell_angle_alpha 92.43900
_cell_angle_beta  90.00000
_cell_angle_gamma 90.00000

_symmetry_space_group_name_	'P 1'
_symmetry_space_group_name_H-M	'P 1'

loop_
_symmetry_equiv_pos_as_xyz
  x,y,z

loop_
_atom_site_label
_atom_site_type_symbol
_atom_site_fract_x
_atom_site_fract_y
_atom_site_fract_z
_atom_site_charge
Zn	Zn	0.49907 0.72403 0.22756 1.20900
Zn	Zn	0.00625 0.70831 0.79086 1.20900
Zn	Zn	0.00093 0.22403 0.72756 1.20800
Zn	Zn	0.49375 0.20831 0.29086 1.21000
H 	H 	0.82750 0.69360 0.52470 0.06500
H 	H 	0.82120 0.78350 0.53860 0.07500
H 	H 	0.69890 0.75570 0.61070 0.06000
H 	H 	0.73120 0.67040 0.61000 0.05100
H 	H 	0.77150 0.84770 0.30420 0.05000
H 	H 	0.81900 0.75520 0.39610 0.06000
H 	H 	0.78270 0.67130 0.39140 0.05200
H 	H 	0.82360 0.58650 0.60250 0.07100
H 	H 	0.24870 0.02180 0.75420 0.14800
H 	H 	0.52190 0.14500 0.53890 -0.00800
H 	H 	0.68680 0.70170 0.47880 0.06200
H 	H 	0.70370 0.79060 0.47420 0.07200
H 	H 	0.86310 0.85870 0.79450 0.01900
H 	H 	0.14740 0.93720 0.78490 -0.01900
H 	H 	0.48430 0.08450 0.64500 0.14700
H 	H 	0.15680 0.44100 0.72040 -0.01600
H 	H 	0.26400 0.52410 0.74410 0.14600
H 	H 	0.31740 0.50110 0.96270 0.14200
H 	H 	0.29620 0.98690 0.53650 0.13900
H 	H 	0.99830 0.44150 0.66200 0.09300
H 	H 	0.68360 0.59500 0.40090 0.07300
H 	H 	0.22590 0.78410 0.62900 -0.01600
H 	H 	0.23620 0.30230 0.87560 -0.01300
H 	H 	0.04560 0.53640 0.74460 0.00100
H 	H 	0.75060 0.85020 0.70530 0.05200
H 	H 	0.33100 0.86730 0.60070 0.15500
H 	H 	0.60900 0.48250 0.41480 0.00900
H 	H 	0.34750 0.38220 0.89700 0.14800
H 	H 	0.49450 0.60400 0.85310 0.15100
H 	H 	0.33470 0.04840 0.43120 -0.01300
H 	H 	0.88670 0.46700 0.59030 0.01300
H 	H 	0.65400 0.86060 0.22120 0.02000
H 	H 	0.35960 0.56440 0.07100 -0.01400
H 	H 	0.44520 0.56020 0.27500 -0.00400
H 	H 	0.48830 0.46540 0.35000 0.09200
H 	H 	0.53460 0.66900 0.96020 -0.01100
H 	H 	0.67250 0.19360 0.02470 0.06600
H 	H 	0.67880 0.28350 0.03860 0.07700
H 	H 	0.80110 0.25570 0.11070 0.05800
H 	H 	0.76880 0.17040 0.11000 0.05000
H 	H 	0.72850 0.34770 0.80420 0.05100
H 	H 	0.68100 0.25520 0.89610 0.06100
H 	H 	0.71730 0.17130 0.89140 0.05300
H 	H 	0.67640 0.08650 0.10250 0.07100
H 	H 	0.25130 0.52180 0.25420 0.14900
H 	H 	0.97810 0.64500 0.03890 -0.02100
H 	H 	0.81320 0.20170 0.97880 0.06200
H 	H 	0.79630 0.29060 0.97420 0.07100
H 	H 	0.63690 0.35870 0.29450 0.01800
H 	H 	0.35260 0.43720 0.28490 -0.01900
H 	H 	0.01570 0.58450 0.14500 0.15300
H 	H 	0.34320 0.94100 0.22040 -0.01500
H 	H 	0.23600 0.02410 0.24410 0.14400
H 	H 	0.18260 0.00110 0.46270 0.14100
H 	H 	0.20380 0.48690 0.03650 0.13900
H 	H 	0.50170 0.94150 0.16200 0.09400
H 	H 	0.81640 0.09500 0.90090 0.06900
H 	H 	0.27410 0.28410 0.12900 -0.01600
H 	H 	0.26380 0.80230 0.37560 -0.01200
H 	H 	0.45440 0.03640 0.24460 -0.00100
H 	H 	0.74940 0.35020 0.20530 0.05200
H 	H 	0.16900 0.36730 0.10070 0.15600
H 	H 	0.89100 0.98250 0.91480 0.01400
H 	H 	0.15250 0.88220 0.39700 0.14900
H 	H 	0.00550 0.10400 0.35310 0.15100
H 	H 	0.16530 0.54840 0.93120 -0.01300
H 	H 	0.61330 0.96700 0.09030 0.01200
H 	H 	0.84600 0.36060 0.72120 0.02000
H 	H 	0.14040 0.06440 0.57100 -0.01300
H 	H 	0.05480 0.06020 0.77500 0.00300
H 	H 	0.01170 0.96540 0.85000 0.07900
H 	H 	0.96540 0.16900 0.46020 -0.01100
C 	C 	0.64490 0.71570 0.31244 0.06300
C 	C 	0.45300 0.14390 0.40560 0.33500
C 	C 	0.79000 0.73590 0.53510 -0.11000
C 	C 	0.74770 0.72410 0.60801 -0.05100
C 	C 	0.86550 0.70780 0.69926 0.06500
C 	C 	0.72760 0.81400 0.29920 -0.01400
C 	C 	0.76890 0.72570 0.39779 -0.05500
C 	C 	0.89920 0.63080 0.68102 0.05800
C 	C 	0.11250 0.79580 0.73430 0.35900
C 	C 	0.17590 0.85130 0.71050 -0.20600
C 	C 	0.18500 0.36310 0.79520 -0.20300
C 	C 	0.40270 0.54490 0.89800 0.32600
C 	C 	0.47360 0.66740 0.09730 0.34800
C 	C 	0.30000 0.95120 0.67580 0.32200
C 	C 	0.38590 0.03060 0.60120 0.32100
C 	C 	0.86890 0.57580 0.63100 -0.11600
C 	C 	0.24480 0.97350 0.73000 -0.30200
C 	C 	0.47600 0.11340 0.53830 0.16400
C 	C 	0.72910 0.74000 0.47241 -0.10400
C 	C 	0.31520 0.46110 0.82340 0.31400
C 	C 	0.60500 0.64300 0.33119 0.05900
C 	C 	0.85320 0.81770 0.76090 0.03300
C 	C 	0.45070 0.62410 0.02730 -0.20500
C 	C 	0.18390 0.92310 0.74750 0.17500
C 	C 	0.45370 0.07730 0.60210 -0.29300
C 	C 	0.19460 0.42950 0.75650 0.17200
C 	C 	0.25870 0.47920 0.77020 -0.29300
C 	C 	0.36180 0.53430 0.96220 -0.31700
C 	C 	0.34150 0.01910 0.53740 -0.30700
C 	C 	0.97260 0.48940 0.66610 -0.13800
C 	C 	0.63450 0.58750 0.37610 -0.12200
C 	C 	0.43140 0.10340 0.47390 -0.19700
C 	C 	0.23110 0.83140 0.65490 0.18200
C 	C 	0.24230 0.34650 0.84860 0.17500
C 	C 	0.00090 0.54680 0.71520 0.09600
C 	C 	0.79100 0.81350 0.71140 -0.01400
C 	C 	0.29380 0.88110 0.63750 -0.32600
C 	C 	0.59040 0.52030 0.38400 0.06300
C 	C 	0.30840 0.39450 0.86230 -0.31800
C 	C 	0.46720 0.59600 0.89710 -0.29900
C 	C 	0.36490 0.05600 0.47430 0.17000
C 	C 	0.90650 0.50460 0.62390 0.05900
C 	C 	0.66240 0.82070 0.25310 0.03300
C 	C 	0.38670 0.57310 0.02710 0.17800
C 	C 	0.49320 0.56750 0.30160 0.10800
C 	C 	0.51880 0.51030 0.34580 -0.14900
C 	C 	0.49090 0.63490 0.96120 0.17100
C 	C 	0.11620 0.30870 0.77710 0.35900
C 	C 	0.85510 0.21570 0.81244 0.06500
C 	C 	0.04700 0.64390 0.90560 0.33500
C 	C 	0.71000 0.23590 0.03510 -0.11700
C 	C 	0.75230 0.22410 0.10801 -0.04800
C 	C 	0.63450 0.20780 0.19926 0.06400
C 	C 	0.77240 0.31400 0.79920 -0.01400
C 	C 	0.73110 0.22570 0.89779 -0.05700
C 	C 	0.60080 0.13080 0.18102 0.05900
C 	C 	0.38750 0.29580 0.23430 0.35900
C 	C 	0.32410 0.35130 0.21050 -0.20700
C 	C 	0.31500 0.86310 0.29520 -0.20200
C 	C 	0.09730 0.04490 0.39800 0.32500
C 	C 	0.02640 0.16740 0.59730 0.34600
C 	C 	0.20000 0.45120 0.17580 0.32300
C 	C 	0.11410 0.53060 0.10120 0.32700
C 	C 	0.63110 0.07580 0.13100 -0.11800
C 	C 	0.25520 0.47350 0.23000 -0.30300
C 	C 	0.02400 0.61340 0.03830 0.18900
C 	C 	0.77090 0.24000 0.97241 -0.09800
C 	C 	0.18480 0.96110 0.32340 0.31400
C 	C 	0.89500 0.14300 0.83119 0.05500
C 	C 	0.64680 0.31770 0.26090 0.03200
C 	C 	0.04930 0.12410 0.52730 -0.20400
C 	C 	0.31610 0.42310 0.24750 0.17600
C 	C 	0.04630 0.57730 0.10210 -0.30600
C 	C 	0.30540 0.92950 0.25650 0.17100
C 	C 	0.24130 0.97920 0.27020 -0.29100
C 	C 	0.13820 0.03430 0.46220 -0.31400
C 	C 	0.15850 0.51910 0.03740 -0.30700
C 	C 	0.52740 0.98940 0.16610 -0.14300
C 	C 	0.86550 0.08750 0.87610 -0.11100
C 	C 	0.06860 0.60340 0.97390 -0.21000
C 	C 	0.26890 0.33140 0.15490 0.18300
C 	C 	0.25770 0.84650 0.34860 0.17500
C 	C 	0.49910 0.04680 0.21520 0.10200
C 	C 	0.70900 0.31350 0.21140 -0.01400
C 	C 	0.20620 0.38110 0.13750 -0.32700
C 	C 	0.90960 0.02030 0.88400 0.04700
C 	C 	0.19160 0.89450 0.36230 -0.31700
C 	C 	0.03280 0.09600 0.39710 -0.29700
C 	C 	0.13510 0.55600 0.97430 0.17100
C 	C 	0.59350 0.00460 0.12390 0.06000
C 	C 	0.83760 0.32070 0.75310 0.03300
C 	C 	0.11330 0.07310 0.52710 0.17500
C 	C 	0.00680 0.06750 0.80160 0.08500
C 	C 	0.98120 0.01030 0.84580 -0.11900
C 	C 	0.00910 0.13490 0.46120 0.17000
C 	C 	0.38380 0.80870 0.27710 0.35900
N 	N 	0.79982 0.74419 0.67217 -0.10500
N 	N 	0.71538 0.74767 0.33674 -0.10500
N 	N 	0.96636 0.61595 0.72173 -0.24100
N 	N 	0.53370 0.63285 0.29487 -0.24400
N 	N 	0.61170 0.75924 0.26147 -0.25000
N 	N 	0.89869 0.75176 0.75318 -0.24500
N 	N 	0.70018 0.24419 0.17217 -0.10500
N 	N 	0.78462 0.24767 0.83674 -0.10500
N 	N 	0.53364 0.11595 0.22173 -0.24300
N 	N 	0.96630 0.13285 0.79487 -0.23600
N 	N 	0.88830 0.25924 0.76147 -0.24900
N 	N 	0.60131 0.25176 0.25318 -0.24500
O 	O 	0.51630 0.18637 0.40457 -0.40600
O 	O 	0.36644 0.00044 0.66821 -0.32600
O 	O 	0.40861 0.13614 0.34937 -0.39500
O 	O 	0.07397 0.81035 0.79354 -0.42700
O 	O 	0.38245 0.50975 0.83038 -0.32300
O 	O 	0.09910 0.73530 0.69737 -0.37300
O 	O 	0.52720 0.71810 0.09891 -0.37200
O 	O 	0.43500 0.65171 0.15544 -0.42300
O 	O 	0.06827 0.32400 0.72590 -0.43800
O 	O 	0.10700 0.24900 0.81210 -0.37300
O 	O 	0.98370 0.68637 0.90457 -0.40100
O 	O 	0.13356 0.50044 0.16821 -0.32600
O 	O 	0.09139 0.63614 0.84937 -0.39600
O 	O 	0.42603 0.31035 0.29354 -0.42700
O 	O 	0.11755 0.00975 0.33038 -0.32300
O 	O 	0.40090 0.23530 0.19737 -0.37300
O 	O 	0.97280 0.21810 0.59891 -0.37000
O 	O 	0.06500 0.15171 0.65544 -0.42300
O 	O 	0.43173 0.82400 0.22590 -0.43700
O 	O 	0.39300 0.74900 0.31210 -0.37200
Zn	Zn	0.99907 0.77597 0.27244 1.20900
Zn	Zn	0.50625 0.79169 0.70914 1.21100
Zn	Zn	0.50093 0.27597 0.77244 1.21000
Zn	Zn	0.99375 0.29169 0.20914 1.21000
H 	H 	0.32750 0.80640 0.97530 0.06600
H 	H 	0.32120 0.71650 0.96140 0.07700
H 	H 	0.19890 0.74430 0.88930 0.05800
H 	H 	0.23120 0.82960 0.89000 0.05000
H 	H 	0.27150 0.65230 0.19580 0.05100
H 	H 	0.31900 0.74480 0.10390 0.06100
H 	H 	0.28270 0.82870 0.10860 0.05300
H 	H 	0.32360 0.91350 0.89750 0.07100
H 	H 	0.74870 0.47820 0.74580 0.14900
H 	H 	0.02190 0.35500 0.96110 -0.02100
H 	H 	0.18680 0.79830 0.02120 0.06200
H 	H 	0.20370 0.70940 0.02580 0.07100
H 	H 	0.36310 0.64130 0.70550 0.01800
H 	H 	0.64740 0.56280 0.71510 -0.01900
H 	H 	0.98430 0.41550 0.85500 0.15300
H 	H 	0.65680 0.05900 0.77960 -0.01500
H 	H 	0.76400 0.97590 0.75590 0.14400
H 	H 	0.81740 0.99890 0.53730 0.14100
H 	H 	0.79620 0.51310 0.96350 0.13900
H 	H 	0.49830 0.05850 0.83800 0.09400
H 	H 	0.18360 0.90500 0.09910 0.06900
H 	H 	0.72590 0.71590 0.87100 -0.01600
H 	H 	0.73620 0.19770 0.62440 -0.01200
H 	H 	0.54560 0.96360 0.75540 -0.00100
H 	H 	0.25060 0.64980 0.79470 0.05200
H 	H 	0.83100 0.63270 0.89930 0.15600
H 	H 	0.10900 0.01750 0.08520 0.01400
H 	H 	0.84750 0.11780 0.60300 0.14900
H 	H 	0.99450 0.89600 0.64690 0.15100
H 	H 	0.83470 0.45160 0.06880 -0.01300
H 	H 	0.38670 0.03300 0.90970 0.01200
H 	H 	0.15400 0.63940 0.27880 0.02000
H 	H 	0.85960 0.93560 0.42900 -0.01300
H 	H 	0.94520 0.93980 0.22500 0.00300
H 	H 	0.98830 0.03460 0.15000 0.07900
H 	H 	0.03460 0.83100 0.53980 -0.01100
H 	H 	0.17250 0.30640 0.47530 0.06500
H 	H 	0.17880 0.21650 0.46140 0.07500
H 	H 	0.30110 0.24430 0.38930 0.06000
H 	H 	0.26880 0.32960 0.39000 0.05100
H 	H 	0.22850 0.15230 0.69580 0.05000
H 	H 	0.18100 0.24480 0.60390 0.06000
H 	H 	0.21730 0.32870 0.60860 0.05200
H 	H 	0.17640 0.41350 0.39750 0.07100
H 	H 	0.75130 0.97820 0.24580 0.14800
H 	H 	0.47810 0.85500 0.46110 -0.00800
H 	H 	0.31320 0.29830 0.52120 0.06200
H 	H 	0.29630 0.20940 0.52580 0.07200
H 	H 	0.13690 0.14130 0.20550 0.01900
H 	H 	0.85260 0.06280 0.21510 -0.01900
H 	H 	0.51570 0.91550 0.35500 0.14700
H 	H 	0.84320 0.55900 0.27960 -0.01600
H 	H 	0.73600 0.47590 0.25590 0.14600
H 	H 	0.68260 0.49890 0.03730 0.14200
H 	H 	0.70380 0.01310 0.46350 0.13900
H 	H 	0.00170 0.55850 0.33800 0.09300
H 	H 	0.31640 0.40500 0.59910 0.07300
H 	H 	0.77410 0.21590 0.37100 -0.01600
H 	H 	0.76380 0.69770 0.12440 -0.01300
H 	H 	0.95440 0.46360 0.25540 0.00100
H 	H 	0.24940 0.14980 0.29470 0.05200
H 	H 	0.66900 0.13270 0.39930 0.15500
H 	H 	0.39100 0.51750 0.58520 0.00900
H 	H 	0.65250 0.61780 0.10300 0.14800
H 	H 	0.50550 0.39600 0.14690 0.15100
H 	H 	0.66530 0.95160 0.56880 -0.01300
H 	H 	0.11330 0.53300 0.40970 0.01300
H 	H 	0.34600 0.13940 0.77880 0.02000
H 	H 	0.64040 0.43560 0.92900 -0.01400
H 	H 	0.55480 0.43980 0.72500 -0.00400
H 	H 	0.51170 0.53460 0.65000 0.09200
H 	H 	0.46540 0.33100 0.03980 -0.01100
C 	C 	0.14490 0.78430 0.18756 0.06500
C 	C 	0.95300 0.35610 0.09440 0.33500
C 	C 	0.29000 0.76410 0.96490 -0.11700
C 	C 	0.24770 0.77590 0.89199 -0.04800
C 	C 	0.36550 0.79220 0.80074 0.06400
C 	C 	0.22760 0.68600 0.20080 -0.01400
C 	C 	0.26890 0.77430 0.10221 -0.05700
C 	C 	0.39920 0.86920 0.81898 0.05900
C 	C 	0.61250 0.70420 0.76570 0.35900
C 	C 	0.67590 0.64870 0.78950 -0.20700
C 	C 	0.68500 0.13690 0.70480 -0.20200
C 	C 	0.90270 0.95510 0.60200 0.32500
C 	C 	0.97360 0.83260 0.40270 0.34600
C 	C 	0.80000 0.54880 0.82420 0.32300
C 	C 	0.88590 0.46940 0.89880 0.32700
C 	C 	0.36890 0.92420 0.86900 -0.11800
C 	C 	0.74480 0.52650 0.77000 -0.30300
C 	C 	0.97600 0.38660 0.96170 0.18900
C 	C 	0.22910 0.76000 0.02759 -0.09800
C 	C 	0.81520 0.03890 0.67660 0.31400
C 	C 	0.10500 0.85700 0.16881 0.05500
C 	C 	0.35320 0.68230 0.73910 0.03200
C 	C 	0.95070 0.87590 0.47270 -0.20400
C 	C 	0.68390 0.57690 0.75250 0.17600
C 	C 	0.95370 0.42270 0.89790 -0.30600
C 	C 	0.69460 0.07050 0.74350 0.17100
C 	C 	0.75870 0.02080 0.72980 -0.29100
C 	C 	0.86180 0.96570 0.53780 -0.31400
C 	C 	0.84150 0.48090 0.96260 -0.30700
C 	C 	0.47260 0.01060 0.83390 -0.14300
C 	C 	0.13450 0.91250 0.12390 -0.11100
C 	C 	0.93140 0.39660 0.02610 -0.21000
C 	C 	0.73110 0.66860 0.84510 0.18300
C 	C 	0.74230 0.15350 0.65140 0.17500
C 	C 	0.50090 0.95320 0.78480 0.10200
C 	C 	0.29100 0.68650 0.78860 -0.01400
C 	C 	0.79380 0.61890 0.86250 -0.32700
C 	C 	0.09040 0.97970 0.11600 0.04700
C 	C 	0.80840 0.10550 0.63770 -0.31700
C 	C 	0.96720 0.90400 0.60290 -0.29700
C 	C 	0.86490 0.44400 0.02570 0.17100
C 	C 	0.40650 0.99540 0.87610 0.06000
C 	C 	0.16240 0.67930 0.24690 0.03300
C 	C 	0.88670 0.92690 0.47290 0.17500
C 	C 	0.99320 0.93250 0.19840 0.08500
C 	C 	0.01880 0.98970 0.15420 -0.11900
C 	C 	0.99090 0.86510 0.53880 0.17000
C 	C 	0.61620 0.19130 0.72290 0.35900
C 	C 	0.35510 0.28430 0.68756 0.06300
C 	C 	0.54700 0.85610 0.59440 0.33500
C 	C 	0.21000 0.26410 0.46490 -0.11000
C 	C 	0.25230 0.27590 0.39199 -0.05100
C 	C 	0.13450 0.29220 0.30074 0.06500
C 	C 	0.27240 0.18600 0.70080 -0.01400
C 	C 	0.23110 0.27430 0.60221 -0.05500
C 	C 	0.10080 0.36920 0.31898 0.05800
C 	C 	0.88750 0.20420 0.26570 0.35900
C 	C 	0.82410 0.14870 0.28950 -0.20600
C 	C 	0.81500 0.63690 0.20480 -0.20300
C 	C 	0.59730 0.45510 0.10200 0.32600
C 	C 	0.52640 0.33260 0.90270 0.34800
C 	C 	0.70000 0.04880 0.32420 0.32200
C 	C 	0.61410 0.96940 0.39880 0.32100
C 	C 	0.13110 0.42420 0.36900 -0.11600
C 	C 	0.75520 0.02650 0.27000 -0.30200
C 	C 	0.52400 0.88660 0.46170 0.16400
C 	C 	0.27090 0.26000 0.52759 -0.10400
C 	C 	0.68480 0.53890 0.17660 0.31400
C 	C 	0.39500 0.35700 0.66881 0.05900
C 	C 	0.14680 0.18230 0.23910 0.03300
C 	C 	0.54930 0.37590 0.97270 -0.20500
C 	C 	0.81610 0.07690 0.25250 0.17500
C 	C 	0.54630 0.92270 0.39790 -0.29300
C 	C 	0.80540 0.57050 0.24350 0.17200
C 	C 	0.74130 0.52080 0.22980 -0.29300
C 	C 	0.63820 0.46570 0.03780 -0.31700
C 	C 	0.65850 0.98090 0.46260 -0.30700
C 	C 	0.02740 0.51060 0.33390 -0.13800
C 	C 	0.36550 0.41250 0.62390 -0.12200
C 	C 	0.56860 0.89660 0.52610 -0.19700
C 	C 	0.76890 0.16860 0.34510 0.18200
C 	C 	0.75770 0.65350 0.15140 0.17500
C 	C 	0.99910 0.45320 0.28480 0.09600
C 	C 	0.20900 0.18650 0.28860 -0.01400
C 	C 	0.70620 0.11890 0.36250 -0.32600
C 	C 	0.40960 0.47970 0.61600 0.06300
C 	C 	0.69160 0.60550 0.13770 -0.31800
C 	C 	0.53280 0.40400 0.10290 -0.29900
C 	C 	0.63510 0.94400 0.52570 0.17000
C 	C 	0.09350 0.49540 0.37610 0.05900
C 	C 	0.33760 0.17930 0.74690 0.03300
C 	C 	0.61330 0.42690 0.97290 0.17800
C 	C 	0.50680 0.43250 0.69840 0.10800
C 	C 	0.48120 0.48970 0.65420 -0.14900
C 	C 	0.50910 0.36510 0.03880 0.17100
C 	C 	0.88380 0.69130 0.22290 0.35900
N 	N 	0.29982 0.75581 0.82783 -0.10500
N 	N 	0.21538 0.75233 0.16326 -0.10500
N 	N 	0.46636 0.88405 0.77827 -0.24300
N 	N 	0.03370 0.86715 0.20513 -0.23600
N 	N 	0.11170 0.74076 0.23853 -0.24900
N 	N 	0.39869 0.74824 0.74682 -0.24500
N 	N 	0.20018 0.25581 0.32783 -0.10500
N 	N 	0.28462 0.25233 0.66326 -0.10500
N 	N 	0.03364 0.38405 0.27827 -0.24100
N 	N 	0.46630 0.36715 0.70513 -0.24400
N 	N 	0.38830 0.24076 0.73853 -0.25000
N 	N 	0.10131 0.24824 0.24682 -0.24500
O 	O 	0.01630 0.31363 0.09543 -0.40100
O 	O 	0.86644 0.49956 0.83179 -0.32600
O 	O 	0.90861 0.36386 0.15063 -0.39600
O 	O 	0.57397 0.68965 0.70646 -0.42700
O 	O 	0.88245 0.99025 0.66962 -0.32300
O 	O 	0.59910 0.76470 0.80263 -0.37300
O 	O 	0.02720 0.78190 0.40109 -0.37000
O 	O 	0.93500 0.84829 0.34456 -0.42300
O 	O 	0.56827 0.17600 0.77410 -0.43700
O 	O 	0.60700 0.25100 0.68790 -0.37200
O 	O 	0.48370 0.81363 0.59543 -0.40600
O 	O 	0.63356 0.99956 0.33179 -0.32600
O 	O 	0.59139 0.86386 0.65063 -0.39500
O 	O 	0.92603 0.18965 0.20646 -0.42700
O 	O 	0.61755 0.49025 0.16962 -0.32300
O 	O 	0.90090 0.26470 0.30263 -0.37300
O 	O 	0.47280 0.28190 0.90109 -0.37200
O 	O 	0.56500 0.34829 0.84456 -0.42300
O 	O 	0.93173 0.67600 0.27410 -0.43800
O 	O 	0.89300 0.75100 0.18790 -0.37300
