data_crystal

_cell_length_a 6.76810
_cell_length_b 30.98400
_cell_length_c 30.98400
_cell_angle_alpha 90.00000
_cell_angle_beta  90.00000
_cell_angle_gamma 90.00000

_symmetry_space_group_name_	'P 1'
_symmetry_space_group_name_H-M	'P 1'

loop_
_symmetry_equiv_pos_as_xyz
  x,y,z

loop_
_atom_site_label
_atom_site_type_symbol
_atom_site_fract_x
_atom_site_fract_y
_atom_site_fract_z
_atom_site_charge
Ag	Ag	0.07533 0.55872 0.52025 0.51000
Ag	Ag	0.63725 0.54329 0.49046 0.51400
Ag	Ag	0.07533 0.94128 0.97975 0.51000
Ag	Ag	0.63725 0.95671 0.00954 0.51400
Ag	Ag	0.42467 0.52025 0.94128 0.51000
Ag	Ag	0.86275 0.49046 0.95671 0.51400
Ag	Ag	0.42467 0.97975 0.55872 0.51000
Ag	Ag	0.86275 0.00954 0.54329 0.51400
H 	H 	0.05030 0.70080 0.44980 -0.01900
H 	H 	0.95240 0.76610 0.41970 0.24000
H 	H 	0.43650 0.71330 0.38440 0.28000
H 	H 	0.53360 0.64880 0.41370 -0.02500
H 	H 	0.62760 0.79500 0.46640 0.16300
H 	H 	0.65430 0.85250 0.51320 -0.03200
H 	H 	0.78320 0.93040 0.41380 -0.04500
H 	H 	0.73620 0.87460 0.36650 0.22100
H 	H 	0.05030 0.79920 0.05020 -0.01800
H 	H 	0.95240 0.73390 0.08030 0.24000
H 	H 	0.43650 0.78670 0.11560 0.28000
H 	H 	0.53360 0.85120 0.08630 -0.02500
H 	H 	0.62760 0.70500 0.03360 0.16300
H 	H 	0.65430 0.64750 0.98680 -0.03200
H 	H 	0.78320 0.56960 0.08620 -0.04400
H 	H 	0.73620 0.62540 0.13350 0.22200
H 	H 	0.44970 0.44980 0.79920 -0.02100
H 	H 	0.54760 0.41970 0.73390 0.24200
H 	H 	0.06350 0.38440 0.78670 0.27200
H 	H 	0.96640 0.41370 0.85120 -0.01900
H 	H 	0.87240 0.46640 0.70500 0.16400
H 	H 	0.84570 0.51320 0.64750 -0.03000
H 	H 	0.71680 0.41380 0.56960 -0.04300
H 	H 	0.76380 0.36650 0.62540 0.22200
H 	H 	0.44970 0.05020 0.70080 -0.02100
H 	H 	0.54760 0.08030 0.76610 0.24200
H 	H 	0.06350 0.11560 0.71330 0.27200
H 	H 	0.96640 0.08630 0.64880 -0.02000
H 	H 	0.87240 0.03360 0.79500 0.16400
H 	H 	0.84570 0.98680 0.85250 -0.03000
H 	H 	0.71680 0.08620 0.93040 -0.04300
H 	H 	0.76380 0.13350 0.87460 0.22200
C 	C 	0.84880 0.62519 0.45500 0.38500
C 	C 	0.80090 0.66783 0.43506 -0.22500
C 	C 	0.92700 0.70324 0.43680 0.25400
C 	C 	0.86740 0.74251 0.41888 -0.33800
C 	C 	0.68160 0.74684 0.39968 0.44600
C 	C 	0.55940 0.71112 0.39769 -0.34700
C 	C 	0.61800 0.67239 0.41519 0.28800
C 	C 	0.62700 0.79091 0.38021 -0.52600
C 	C 	0.40430 0.79480 0.37076 0.98400
C 	C 	0.73970 0.79409 0.33653 0.97300
C 	C 	0.67680 0.82837 0.41099 0.39400
C 	C 	0.65460 0.82242 0.45563 -0.31600
C 	C 	0.67250 0.85676 0.48379 0.21200
C 	C 	0.71780 0.89781 0.46816 -0.24400
C 	C 	0.72230 0.93535 0.49807 0.35000
C 	C 	0.74670 0.90340 0.42427 0.22900
C 	C 	0.72230 0.86980 0.39596 -0.31000
C 	C 	0.84880 0.87481 0.04500 0.38500
C 	C 	0.80090 0.83217 0.06494 -0.22400
C 	C 	0.92700 0.79676 0.06320 0.25300
C 	C 	0.86740 0.75749 0.08112 -0.33700
C 	C 	0.68160 0.75316 0.10032 0.44500
C 	C 	0.55940 0.78888 0.10231 -0.34700
C 	C 	0.61800 0.82761 0.08481 0.28800
C 	C 	0.62700 0.70909 0.11979 -0.52600
C 	C 	0.40430 0.70520 0.12924 0.98400
C 	C 	0.73970 0.70591 0.16347 0.97300
C 	C 	0.67680 0.67163 0.08901 0.39400
C 	C 	0.65460 0.67758 0.04437 -0.31600
C 	C 	0.67250 0.64324 0.01621 0.21200
C 	C 	0.71780 0.60219 0.03184 -0.24400
C 	C 	0.72230 0.56465 0.00193 0.35000
C 	C 	0.74670 0.59660 0.07573 0.22900
C 	C 	0.72230 0.63020 0.10404 -0.31000
C 	C 	0.65120 0.45500 0.87481 0.38500
C 	C 	0.69910 0.43506 0.83217 -0.22200
C 	C 	0.57300 0.43680 0.79676 0.25700
C 	C 	0.63260 0.41888 0.75749 -0.33600
C 	C 	0.81840 0.39968 0.75316 0.44000
C 	C 	0.94060 0.39769 0.78888 -0.33200
C 	C 	0.88200 0.41519 0.82761 0.28000
C 	C 	0.87300 0.38021 0.70909 -0.51900
C 	C 	0.09570 0.37076 0.70520 0.97800
C 	C 	0.76030 0.33653 0.70591 0.97200
C 	C 	0.82320 0.41099 0.67163 0.39300
C 	C 	0.84540 0.45563 0.67758 -0.31400
C 	C 	0.82750 0.48379 0.64324 0.21100
C 	C 	0.78220 0.46816 0.60219 -0.24300
C 	C 	0.77770 0.49807 0.56465 0.35000
C 	C 	0.75330 0.42427 0.59660 0.22800
C 	C 	0.77770 0.39596 0.63020 -0.30800
C 	C 	0.65120 0.04500 0.62519 0.38500
C 	C 	0.69910 0.06494 0.66783 -0.22200
C 	C 	0.57300 0.06320 0.70324 0.25700
C 	C 	0.63260 0.08112 0.74251 -0.33600
C 	C 	0.81840 0.10032 0.74684 0.44000
C 	C 	0.94060 0.10231 0.71112 -0.33200
C 	C 	0.88200 0.08481 0.67239 0.28100
C 	C 	0.87300 0.11979 0.79091 -0.52000
C 	C 	0.09570 0.12924 0.79480 0.97800
C 	C 	0.76030 0.16347 0.79409 0.97200
C 	C 	0.82320 0.08901 0.82837 0.39200
C 	C 	0.84540 0.04437 0.82242 -0.31400
C 	C 	0.82750 0.01621 0.85676 0.21100
C 	C 	0.78220 0.03184 0.89781 -0.24300
C 	C 	0.77770 0.00193 0.93535 0.35000
C 	C 	0.75330 0.07573 0.90340 0.22800
C 	C 	0.77770 0.10404 0.86980 -0.30700
O 	O 	0.73800 0.59388 0.44500 -0.34400
O 	O 	0.99050 0.62195 0.48104 -0.35200
O 	O 	0.66510 0.93077 0.53607 -0.38700
O 	O 	0.78500 0.97173 0.48256 -0.45900
O 	O 	0.73800 0.90612 0.05500 -0.34400
O 	O 	0.99050 0.87805 0.01896 -0.35200
O 	O 	0.66510 0.56923 0.96393 -0.38700
O 	O 	0.78500 0.52827 0.01744 -0.45900
O 	O 	0.76200 0.44500 0.90612 -0.34300
O 	O 	0.50950 0.48104 0.87805 -0.35100
O 	O 	0.83490 0.53607 0.56923 -0.38700
O 	O 	0.71500 0.48256 0.52827 -0.45900
O 	O 	0.76200 0.05500 0.59388 -0.34300
O 	O 	0.50950 0.01896 0.62195 -0.35100
O 	O 	0.83490 0.96393 0.93077 -0.38700
O 	O 	0.71500 0.01744 0.97173 -0.45800
F 	F 	0.34380 0.76977 0.33836 -0.36200
F 	F 	0.29880 0.78386 0.40572 -0.51200
F 	F 	0.35140 0.83504 0.36056 -0.44800
F 	F 	0.72830 0.75751 0.31445 -0.34300
F 	F 	0.93030 0.80296 0.34286 -0.42200
F 	F 	0.66710 0.82549 0.31085 -0.40100
F 	F 	0.34380 0.73023 0.16164 -0.36200
F 	F 	0.29880 0.71614 0.09428 -0.51200
F 	F 	0.35140 0.66496 0.13944 -0.44800
F 	F 	0.72830 0.74249 0.18555 -0.34300
F 	F 	0.93030 0.69704 0.15714 -0.42200
F 	F 	0.66710 0.67451 0.18915 -0.40100
F 	F 	0.15620 0.33836 0.73023 -0.36300
F 	F 	0.20120 0.40572 0.71614 -0.51300
F 	F 	0.14860 0.36056 0.66496 -0.44900
F 	F 	0.77170 0.31445 0.74249 -0.34100
F 	F 	0.56970 0.34286 0.69704 -0.41900
F 	F 	0.83290 0.31085 0.67451 -0.39900
F 	F 	0.15620 0.16164 0.76977 -0.36300
F 	F 	0.20120 0.09428 0.78386 -0.51300
F 	F 	0.14860 0.13944 0.83504 -0.44900
F 	F 	0.77170 0.18555 0.75751 -0.34100
F 	F 	0.56970 0.15714 0.80296 -0.41900
F 	F 	0.83290 0.18915 0.82549 -0.39900
Ag	Ag	0.57533 0.47975 0.05872 0.51100
Ag	Ag	0.13725 0.50954 0.04328 0.51500
Ag	Ag	0.57533 0.02025 0.44128 0.51100
Ag	Ag	0.13725 0.99046 0.45671 0.51500
Ag	Ag	0.92467 0.44128 0.47975 0.51100
Ag	Ag	0.36275 0.45671 0.50954 0.51500
Ag	Ag	0.92467 0.05872 0.02025 0.51100
Ag	Ag	0.36275 0.04328 0.99046 0.51500
H 	H 	0.55030 0.55020 0.20080 -0.02100
H 	H 	0.45240 0.58030 0.26610 0.24200
H 	H 	0.93650 0.61560 0.21330 0.27200
H 	H 	0.03360 0.58630 0.14880 -0.01900
H 	H 	0.12760 0.53360 0.29500 0.16400
H 	H 	0.15430 0.48680 0.35250 -0.03000
H 	H 	0.28320 0.58620 0.43040 -0.04300
H 	H 	0.23620 0.63350 0.37460 0.22200
H 	H 	0.55030 0.94980 0.29920 -0.02100
H 	H 	0.45240 0.91970 0.23390 0.24200
H 	H 	0.93650 0.88440 0.28670 0.27200
H 	H 	0.03360 0.91370 0.35120 -0.02000
H 	H 	0.12760 0.96640 0.20500 0.16400
H 	H 	0.15430 0.01320 0.14750 -0.03000
H 	H 	0.28320 0.91380 0.06960 -0.04300
H 	H 	0.23620 0.86650 0.12540 0.22200
H 	H 	0.94970 0.29920 0.55020 -0.01800
H 	H 	0.04760 0.23390 0.58030 0.24100
H 	H 	0.56350 0.28670 0.61560 0.28100
H 	H 	0.46640 0.35120 0.58630 -0.02400
H 	H 	0.37240 0.20500 0.53360 0.16400
H 	H 	0.34570 0.14750 0.48680 -0.03100
H 	H 	0.21680 0.06960 0.58620 -0.04400
H 	H 	0.26380 0.12540 0.63350 0.22200
H 	H 	0.94970 0.20080 0.94980 -0.01700
H 	H 	0.04760 0.26610 0.91970 0.24100
H 	H 	0.56350 0.21330 0.88440 0.28100
H 	H 	0.46640 0.14880 0.91370 -0.02400
H 	H 	0.37240 0.29500 0.96640 0.16400
H 	H 	0.34570 0.35250 0.01320 -0.03100
H 	H 	0.21680 0.43040 0.91380 -0.04400
H 	H 	0.26380 0.37460 0.86650 0.22200
C 	C 	0.34880 0.54500 0.12519 0.38500
C 	C 	0.30090 0.56494 0.16783 -0.22200
C 	C 	0.42700 0.56320 0.20324 0.25700
C 	C 	0.36740 0.58112 0.24251 -0.33600
C 	C 	0.18160 0.60032 0.24684 0.44000
C 	C 	0.05940 0.60231 0.21112 -0.33200
C 	C 	0.11800 0.58481 0.17239 0.28000
C 	C 	0.12700 0.61979 0.29091 -0.51900
C 	C 	0.90430 0.62924 0.29480 0.97800
C 	C 	0.23970 0.66347 0.29409 0.97200
C 	C 	0.17680 0.58901 0.32837 0.39300
C 	C 	0.15460 0.54437 0.32242 -0.31400
C 	C 	0.17250 0.51621 0.35676 0.21100
C 	C 	0.21780 0.53184 0.39781 -0.24300
C 	C 	0.22230 0.50193 0.43535 0.35000
C 	C 	0.24670 0.57573 0.40340 0.22800
C 	C 	0.22230 0.60404 0.36980 -0.30800
C 	C 	0.34880 0.95500 0.37481 0.38500
C 	C 	0.30090 0.93506 0.33217 -0.22200
C 	C 	0.42700 0.93680 0.29676 0.25700
C 	C 	0.36740 0.91888 0.25749 -0.33600
C 	C 	0.18160 0.89968 0.25316 0.44000
C 	C 	0.05940 0.89769 0.28888 -0.33200
C 	C 	0.11800 0.91519 0.32761 0.28100
C 	C 	0.12700 0.88021 0.20909 -0.52000
C 	C 	0.90430 0.87076 0.20520 0.97800
C 	C 	0.23970 0.83653 0.20591 0.97200
C 	C 	0.17680 0.91099 0.17163 0.39200
C 	C 	0.15460 0.95563 0.17758 -0.31400
C 	C 	0.17250 0.98379 0.14324 0.21100
C 	C 	0.21780 0.96816 0.10219 -0.24300
C 	C 	0.22230 0.99807 0.06465 0.35000
C 	C 	0.24670 0.92427 0.09660 0.22800
C 	C 	0.22230 0.89596 0.13020 -0.30700
C 	C 	0.15120 0.37481 0.54500 0.38500
C 	C 	0.19910 0.33217 0.56494 -0.22500
C 	C 	0.07300 0.29676 0.56320 0.25400
C 	C 	0.13260 0.25749 0.58112 -0.33800
C 	C 	0.31840 0.25316 0.60032 0.44600
C 	C 	0.44060 0.28888 0.60231 -0.34700
C 	C 	0.38200 0.32761 0.58481 0.28800
C 	C 	0.37300 0.20909 0.61979 -0.52600
C 	C 	0.59570 0.20520 0.62924 0.98400
C 	C 	0.26030 0.20591 0.66347 0.97300
C 	C 	0.32320 0.17163 0.58901 0.39400
C 	C 	0.34540 0.17758 0.54437 -0.31600
C 	C 	0.32750 0.14324 0.51621 0.21200
C 	C 	0.28220 0.10219 0.53184 -0.24400
C 	C 	0.27770 0.06465 0.50193 0.35000
C 	C 	0.25330 0.09660 0.57573 0.22900
C 	C 	0.27770 0.13020 0.60404 -0.31000
C 	C 	0.15120 0.12519 0.95500 0.38500
C 	C 	0.19910 0.16783 0.93506 -0.22400
C 	C 	0.07300 0.20324 0.93680 0.25300
C 	C 	0.13260 0.24251 0.91888 -0.33700
C 	C 	0.31840 0.24684 0.89968 0.44500
C 	C 	0.44060 0.21112 0.89769 -0.34700
C 	C 	0.38200 0.17239 0.91519 0.28800
C 	C 	0.37300 0.29091 0.88021 -0.52600
C 	C 	0.59570 0.29480 0.87076 0.98400
C 	C 	0.26030 0.29409 0.83653 0.97300
C 	C 	0.32320 0.32837 0.91099 0.39400
C 	C 	0.34540 0.32242 0.95563 -0.31600
C 	C 	0.32750 0.35676 0.98379 0.21200
C 	C 	0.28220 0.39781 0.96816 -0.24400
C 	C 	0.27770 0.43535 0.99807 0.35000
C 	C 	0.25330 0.40340 0.92427 0.22900
C 	C 	0.27770 0.36980 0.89596 -0.31000
O 	O 	0.23800 0.55500 0.09388 -0.34300
O 	O 	0.49050 0.51896 0.12195 -0.35100
O 	O 	0.16510 0.46393 0.43077 -0.38700
O 	O 	0.28500 0.51744 0.47173 -0.45900
O 	O 	0.23800 0.94500 0.40612 -0.34300
O 	O 	0.49050 0.98104 0.37805 -0.35100
O 	O 	0.16510 0.03607 0.06923 -0.38700
O 	O 	0.28500 0.98256 0.02827 -0.45800
O 	O 	0.26200 0.40612 0.55500 -0.34400
O 	O 	0.00950 0.37805 0.51896 -0.35200
O 	O 	0.33490 0.06923 0.46393 -0.38700
O 	O 	0.21500 0.02827 0.51744 -0.45900
O 	O 	0.26200 0.09388 0.94500 -0.34400
O 	O 	0.00950 0.12195 0.98104 -0.35200
O 	O 	0.33490 0.43077 0.03607 -0.38700
O 	O 	0.21500 0.47173 0.98256 -0.45900
F 	F 	0.84380 0.66164 0.26977 -0.36300
F 	F 	0.79880 0.59428 0.28386 -0.51300
F 	F 	0.85140 0.63944 0.33504 -0.44900
F 	F 	0.22830 0.68555 0.25751 -0.34100
F 	F 	0.43030 0.65714 0.30296 -0.41900
F 	F 	0.16710 0.68915 0.32549 -0.39900
F 	F 	0.84380 0.83836 0.23023 -0.36300
F 	F 	0.79880 0.90572 0.21614 -0.51300
F 	F 	0.85140 0.86056 0.16496 -0.44900
F 	F 	0.22830 0.81445 0.24249 -0.34100
F 	F 	0.43030 0.84286 0.19704 -0.41900
F 	F 	0.16710 0.81085 0.17451 -0.39900
F 	F 	0.65620 0.23023 0.66164 -0.36200
F 	F 	0.70120 0.21614 0.59428 -0.51200
F 	F 	0.64860 0.16496 0.63944 -0.44800
F 	F 	0.27170 0.24249 0.68555 -0.34300
F 	F 	0.06970 0.19704 0.65714 -0.42200
F 	F 	0.33290 0.17451 0.68915 -0.40100
F 	F 	0.65620 0.26977 0.83836 -0.36200
F 	F 	0.70120 0.28386 0.90572 -0.51200
F 	F 	0.64860 0.33504 0.86056 -0.44800
F 	F 	0.27170 0.25751 0.81445 -0.34300
F 	F 	0.06970 0.30296 0.84286 -0.42200
F 	F 	0.33290 0.32549 0.81085 -0.40100
