data_crystal

_cell_length_a 18.65690
_cell_length_b 18.73590
_cell_length_c 9.43310
_cell_angle_alpha 90.00000
_cell_angle_beta  94.42430
_cell_angle_gamma 90.00000

_symmetry_space_group_name_	'P 1'
_symmetry_space_group_name_H-M	'P 1'

loop_
_symmetry_equiv_pos_as_xyz
  x,y,z

loop_
_atom_site_label
_atom_site_type_symbol
_atom_site_fract_x
_atom_site_fract_y
_atom_site_fract_z
_atom_site_charge
O 	O 	0.32222 0.17891 0.39185 -0.43800
O 	O 	0.17308 0.17423 0.60421 -0.42800
O 	O 	0.18425 0.17502 0.36879 -0.43600
O 	O 	0.30364 0.17346 0.62489 -0.41900
C 	C 	0.15350 0.15029 0.47794 0.34000
C 	C 	0.09756 0.09838 0.46894 -0.09700
C 	C 	0.05618 0.07613 0.58229 -0.00500
H 	H 	0.06358 0.10361 0.68356 0.04100
C 	C 	0.41760 0.05685 0.67237 -0.00000
H 	H 	0.39318 0.07283 0.76765 0.03700
C 	C 	0.96281 0.99761 0.67601 -0.05800
H 	H 	0.96796 0.02589 0.77625 0.04300
C 	C 	0.00480 0.01872 0.56514 0.01100
H 	H 	0.35023 0.29726 0.10768 0.03600
H 	H 	0.34964 0.20273 0.86052 0.04500
C 	C 	0.33499 0.14871 0.51580 0.31400
C 	C 	0.39103 0.08547 0.53988 -0.05800
C 	C 	0.42587 0.06088 0.41920 -0.02600
H 	H 	0.40555 0.07921 0.31534 0.04800
C 	C 	0.08622 0.06015 0.34006 0.01500
H 	H 	0.11609 0.07476 0.25052 0.03600
C 	C 	0.47656 0.00876 0.68593 -0.05500
H 	H 	0.49414 0.98921 0.79079 0.04200
C 	C 	0.48699 0.01308 0.43261 0.01400
C 	C 	0.20885 0.18669 0.04911 -0.03100
H 	H 	0.23438 0.13682 0.09233 0.03700
H 	H 	0.15215 0.18492 0.07849 0.03700
C 	C 	0.20782 0.18694 0.87816 -0.03900
H 	H 	0.15061 0.18568 0.83379 0.04500
H 	H 	0.23222 0.13721 0.84010 0.05200
O 	O 	0.67778 0.67891 0.60815 -0.43900
O 	O 	0.82692 0.67423 0.39579 -0.42900
O 	O 	0.81575 0.67502 0.63121 -0.43700
O 	O 	0.69636 0.67346 0.37511 -0.42000
C 	C 	0.84650 0.65029 0.52206 0.33900
C 	C 	0.90244 0.59838 0.53106 -0.09800
C 	C 	0.94382 0.57613 0.41771 -0.00500
H 	H 	0.93642 0.60361 0.31644 0.04100
C 	C 	0.58240 0.55685 0.32763 -0.00000
H 	H 	0.60682 0.57283 0.23235 0.03700
C 	C 	0.03719 0.49761 0.32399 -0.05900
H 	H 	0.03204 0.52589 0.22375 0.04300
C 	C 	0.99520 0.51872 0.43486 0.01100
H 	H 	0.64977 0.79726 0.89232 0.03600
H 	H 	0.65036 0.70273 0.13948 0.04500
C 	C 	0.66501 0.64871 0.48420 0.31400
C 	C 	0.60897 0.58547 0.46012 -0.05800
C 	C 	0.57413 0.56088 0.58080 -0.02600
H 	H 	0.59445 0.57921 0.68466 0.04800
C 	C 	0.91378 0.56015 0.65994 0.01500
H 	H 	0.88391 0.57476 0.74948 0.03600
C 	C 	0.52344 0.50876 0.31407 -0.05500
H 	H 	0.50586 0.48921 0.20921 0.04300
C 	C 	0.51301 0.51308 0.56739 0.01400
C 	C 	0.79115 0.68669 0.95089 -0.03100
H 	H 	0.76562 0.63682 0.90767 0.03700
H 	H 	0.84785 0.68492 0.92151 0.03700
C 	C 	0.79218 0.68694 0.12184 -0.03900
H 	H 	0.84939 0.68568 0.16621 0.04500
H 	H 	0.76778 0.63721 0.15990 0.05200
O 	O 	0.67778 0.82109 0.60815 -0.43900
O 	O 	0.82692 0.82577 0.39579 -0.42900
O 	O 	0.81575 0.82498 0.63121 -0.43700
O 	O 	0.69636 0.82654 0.37511 -0.42000
C 	C 	0.84650 0.84971 0.52206 0.33900
C 	C 	0.90244 0.90162 0.53106 -0.09800
C 	C 	0.94382 0.92387 0.41771 -0.00500
H 	H 	0.93642 0.89639 0.31644 0.04100
C 	C 	0.58240 0.94315 0.32763 -0.00000
H 	H 	0.60682 0.92717 0.23235 0.03700
C 	C 	0.03719 0.00239 0.32399 -0.05800
H 	H 	0.03204 0.97411 0.22375 0.04300
C 	C 	0.99520 0.98128 0.43486 0.01100
H 	H 	0.64977 0.70274 0.89232 0.03600
H 	H 	0.65036 0.79727 0.13948 0.04500
C 	C 	0.66501 0.85129 0.48420 0.31400
C 	C 	0.60897 0.91453 0.46012 -0.05800
C 	C 	0.57413 0.93912 0.58080 -0.02600
H 	H 	0.59445 0.92079 0.68466 0.04800
C 	C 	0.91378 0.93985 0.65994 0.01500
H 	H 	0.88391 0.92524 0.74948 0.03600
C 	C 	0.52344 0.99124 0.31407 -0.05500
H 	H 	0.50586 0.01079 0.20921 0.04200
C 	C 	0.51301 0.98692 0.56739 0.01400
C 	C 	0.79115 0.81331 0.95089 -0.03100
H 	H 	0.76562 0.86318 0.90767 0.03700
H 	H 	0.84785 0.81508 0.92151 0.03700
C 	C 	0.79218 0.81306 0.12184 -0.03900
H 	H 	0.84939 0.81432 0.16621 0.04500
H 	H 	0.76778 0.86279 0.15990 0.05200
O 	O 	0.32222 0.32109 0.39185 -0.43900
O 	O 	0.17308 0.32577 0.60421 -0.42900
O 	O 	0.18425 0.32498 0.36879 -0.43700
O 	O 	0.30364 0.32654 0.62489 -0.42000
C 	C 	0.15350 0.34971 0.47794 0.33900
C 	C 	0.09756 0.40162 0.46894 -0.09800
C 	C 	0.05618 0.42387 0.58229 -0.00500
H 	H 	0.06358 0.39639 0.68356 0.04100
C 	C 	0.41760 0.44315 0.67237 -0.00000
H 	H 	0.39318 0.42717 0.76765 0.03700
C 	C 	0.96281 0.50239 0.67601 -0.05900
H 	H 	0.96796 0.47411 0.77625 0.04300
C 	C 	0.00480 0.48128 0.56514 0.01100
H 	H 	0.35023 0.20274 0.10768 0.03600
H 	H 	0.34964 0.29727 0.86052 0.04500
C 	C 	0.33499 0.35129 0.51580 0.31400
C 	C 	0.39103 0.41453 0.53988 -0.05800
C 	C 	0.42587 0.43912 0.41920 -0.02600
H 	H 	0.40555 0.42079 0.31534 0.04800
C 	C 	0.08622 0.43985 0.34006 0.01500
H 	H 	0.11609 0.42524 0.25052 0.03600
C 	C 	0.47656 0.49124 0.68593 -0.05500
H 	H 	0.49414 0.51079 0.79079 0.04300
C 	C 	0.48699 0.48692 0.43261 0.01400
C 	C 	0.20885 0.31331 0.04911 -0.03100
H 	H 	0.23438 0.36318 0.09233 0.03700
H 	H 	0.15215 0.31508 0.07849 0.03700
C 	C 	0.20782 0.31306 0.87816 -0.03900
H 	H 	0.15061 0.31432 0.83379 0.04500
H 	H 	0.23222 0.36279 0.84010 0.05200
Ni	Ni	0.23755 0.25000 0.61872 1.12300
Ni	Ni	0.25551 0.25000 0.34987 1.10700
N 	N 	0.24503 0.25000 0.81946 -0.18700
N 	N 	0.24617 0.25000 0.11850 -0.16900
C 	C 	0.31977 0.25000 0.06489 -0.03900
C 	C 	0.31920 0.25000 0.89420 -0.03200
Ni	Ni	0.76245 0.75000 0.38128 1.12300
Ni	Ni	0.74449 0.75000 0.65013 1.10700
N 	N 	0.75497 0.75000 0.18054 -0.18700
N 	N 	0.75383 0.75000 0.88150 -0.16900
C 	C 	0.68023 0.75000 0.93511 -0.03900
C 	C 	0.68080 0.75000 0.10580 -0.03200
