data_crystal

_cell_length_a 9.26540
_cell_length_b 15.64200
_cell_length_c 22.28700
_cell_angle_alpha 102.15000
_cell_angle_beta  101.48000
_cell_angle_gamma 104.44000

_symmetry_space_group_name_	'P 1'
_symmetry_space_group_name_H-M	'P 1'

loop_
_symmetry_equiv_pos_as_xyz
  x,y,z

loop_
_atom_site_label
_atom_site_type_symbol
_atom_site_fract_x
_atom_site_fract_y
_atom_site_fract_z
_atom_site_charge
Gd	Gd	0.51414 0.86011 0.80226 1.71900
Gd	Gd	0.03054 0.91215 0.85650 1.59300
Gd	Gd	0.48586 0.13989 0.19774 1.71900
Gd	Gd	0.96946 0.08785 0.14350 1.59300
H 	H 	0.87090 0.83390 0.66630 0.01200
H 	H 	0.74690 0.83340 0.56650 0.10100
H 	H 	0.28110 0.91370 0.62660 0.06800
H 	H 	0.66670 0.79160 0.45780 0.16100
H 	H 	0.67310 0.89510 0.47700 0.16100
H 	H 	0.68300 0.84970 0.40880 0.15800
H 	H 	0.98570 0.84580 0.36830 0.08800
H 	H 	0.97020 0.90870 0.28230 0.02800
H 	H 	0.43010 0.01290 0.33180 0.01200
H 	H 	0.44390 0.95410 0.41840 0.08500
H 	H 	0.00380 0.66440 0.90940 0.02700
H 	H 	0.94530 0.52090 0.92780 0.08200
H 	H 	0.27430 0.46340 0.84770 0.08800
H 	H 	0.33810 0.60980 0.83360 0.03600
H 	H 	0.12240 0.26380 0.02080 0.07200
H 	H 	0.50860 0.19100 0.03220 0.01400
H 	H 	0.59450 0.29180 0.97460 0.09600
H 	H 	0.68110 0.44180 0.96370 0.16100
H 	H 	0.61060 0.36620 0.89830 0.15900
H 	H 	0.61970 0.46860 0.90170 0.15900
H 	H 	0.59350 0.56230 0.80230 0.08600
H 	H 	0.99390 0.56270 0.70640 0.08800
H 	H 	0.92530 0.69590 0.73380 0.03500
H 	H 	0.96630 0.41700 0.65620 0.15600
H 	H 	0.08230 0.42640 0.72060 0.15600
H 	H 	0.97580 0.32920 0.67800 0.16300
H 	H 	0.26090 0.27180 0.79140 0.09200
H 	H 	0.22750 0.15340 0.83960 0.03000
H 	H 	0.58990 0.09380 0.79080 0.02900
H 	H 	0.62220 0.20960 0.74000 0.08200
H 	H 	0.52080 0.74210 0.70140 0.29200
H 	H 	0.48060 0.82080 0.69560 0.24000
H 	H 	0.12910 0.16610 0.33370 0.01100
H 	H 	0.25310 0.16660 0.43350 0.10000
H 	H 	0.71890 0.08630 0.37340 0.06700
H 	H 	0.33330 0.20840 0.54220 0.16000
H 	H 	0.32690 0.10490 0.52300 0.16100
H 	H 	0.31700 0.15030 0.59120 0.15800
H 	H 	0.01430 0.15420 0.63170 0.08800
H 	H 	0.02980 0.09130 0.71770 0.02800
H 	H 	0.56990 0.98710 0.66820 0.01200
H 	H 	0.55610 0.04590 0.58160 0.08500
H 	H 	0.99620 0.33560 0.09060 0.02700
H 	H 	0.05470 0.47910 0.07220 0.08200
H 	H 	0.72570 0.53660 0.15230 0.08800
H 	H 	0.66190 0.39020 0.16640 0.03600
H 	H 	0.87760 0.73620 0.97920 0.07200
H 	H 	0.49140 0.80900 0.96780 0.01400
H 	H 	0.40550 0.70820 0.02540 0.09600
H 	H 	0.31890 0.55820 0.03630 0.16100
H 	H 	0.38940 0.63380 0.10170 0.15900
H 	H 	0.38030 0.53140 0.09830 0.15900
H 	H 	0.40650 0.43770 0.19770 0.08600
H 	H 	0.00610 0.43730 0.29360 0.08800
H 	H 	0.07470 0.30410 0.26620 0.03500
H 	H 	0.03370 0.58300 0.34380 0.15600
H 	H 	0.91770 0.57360 0.27940 0.15600
H 	H 	0.02420 0.67080 0.32200 0.16300
H 	H 	0.73910 0.72820 0.20860 0.09200
H 	H 	0.77250 0.84660 0.16040 0.03000
H 	H 	0.41010 0.90620 0.20920 0.02900
H 	H 	0.37780 0.79040 0.26000 0.08200
H 	H 	0.47920 0.25790 0.29860 0.29200
H 	H 	0.51940 0.17920 0.30440 0.24000
C 	C 	0.17080 0.87650 0.72370 0.44300
C 	C 	0.08870 0.87550 0.65830 -0.12800
C 	C 	0.92860 0.85070 0.63870 0.08500
C 	C 	0.85430 0.85080 0.57880 -0.15700
C 	C 	0.93620 0.87620 0.53620 0.12300
C 	C 	0.09590 0.89880 0.55580 0.09500
C 	C 	0.17380 0.89870 0.61510 -0.03100
C 	C 	0.71110 0.85130 0.45300 -0.32500
C 	C 	0.21500 0.89510 0.40090 0.00600
C 	C 	0.07490 0.88020 0.36110 -0.09200
C 	C 	0.06590 0.91700 0.30950 0.06100
C 	C 	0.20000 0.96600 0.29860 -0.16100
C 	C 	0.34020 0.97970 0.33910 0.07000
C 	C 	0.34860 0.94450 0.39060 -0.09600
C 	C 	0.18890 0.00420 0.24120 0.47000
C 	C 	0.20850 0.74340 0.85550 0.46100
C 	C 	0.17610 0.64940 0.86720 -0.14600
C 	C 	0.05780 0.62400 0.89710 0.04600
C 	C 	0.02290 0.53850 0.90800 -0.08000
C 	C 	0.10380 0.47930 0.88940 -0.00600
C 	C 	0.22100 0.50400 0.86050 -0.07900
C 	C 	0.25670 0.59110 0.85120 0.05100
C 	C 	0.27130 0.33180 0.98140 0.10400
C 	C 	0.21860 0.27040 0.01270 -0.05500
C 	C 	0.30790 0.21760 0.03240 -0.12200
C 	C 	0.44820 0.22630 0.01870 0.06200
C 	C 	0.50080 0.28750 0.98470 -0.14500
C 	C 	0.41390 0.34100 0.96650 0.10600
C 	C 	0.25020 0.15460 0.07000 0.41400
C 	C 	0.60360 0.42200 0.92380 -0.32600
C 	C 	0.70570 0.72690 0.78880 0.35100
C 	C 	0.75370 0.64380 0.77150 -0.08700
C 	C 	0.67390 0.56280 0.78300 -0.07400
C 	C 	0.71350 0.48490 0.76590 0.12200
C 	C 	0.83420 0.48360 0.73690 0.09200
C 	C 	0.91320 0.56260 0.72540 -0.11900
C 	C 	0.87240 0.64280 0.74230 0.03200
C 	C 	0.98210 0.39270 0.69220 -0.32600
C 	C 	0.44590 0.25240 0.76190 -0.01700
C 	C 	0.32710 0.23590 0.79130 -0.08300
C 	C 	0.30780 0.16550 0.82040 0.05500
C 	C 	0.40810 0.11320 0.82080 -0.15000
C 	C 	0.52380 0.12980 0.79080 0.05200
C 	C 	0.54420 0.19920 0.76060 -0.07500
C 	C 	0.38870 0.03760 0.85370 0.45500
C 	C 	0.82920 0.12350 0.27630 0.44300
C 	C 	0.91130 0.12450 0.34170 -0.12800
C 	C 	0.07140 0.14930 0.36130 0.08500
C 	C 	0.14570 0.14920 0.42120 -0.15700
C 	C 	0.06380 0.12380 0.46380 0.12300
C 	C 	0.90410 0.10120 0.44420 0.09500
C 	C 	0.82620 0.10130 0.38490 -0.03100
C 	C 	0.28890 0.14870 0.54700 -0.32500
C 	C 	0.78500 0.10490 0.59910 0.00600
C 	C 	0.92510 0.11980 0.63890 -0.09200
C 	C 	0.93410 0.08300 0.69050 0.06100
C 	C 	0.80000 0.03400 0.70140 -0.16100
C 	C 	0.65980 0.02030 0.66090 0.07000
C 	C 	0.65140 0.05550 0.60940 -0.09600
C 	C 	0.81110 0.99580 0.75880 0.47000
C 	C 	0.79150 0.25660 0.14450 0.46100
C 	C 	0.82390 0.35060 0.13280 -0.14600
C 	C 	0.94220 0.37600 0.10290 0.04600
C 	C 	0.97710 0.46150 0.09200 -0.08000
C 	C 	0.89620 0.52070 0.11060 -0.00600
C 	C 	0.77900 0.49600 0.13950 -0.07900
C 	C 	0.74330 0.40890 0.14880 0.05100
C 	C 	0.72870 0.66820 0.01860 0.10400
C 	C 	0.78140 0.72960 0.98730 -0.05500
C 	C 	0.69210 0.78240 0.96760 -0.12200
C 	C 	0.55180 0.77370 0.98130 0.06200
C 	C 	0.49920 0.71250 0.01530 -0.14500
C 	C 	0.58610 0.65900 0.03350 0.10600
C 	C 	0.74980 0.84540 0.93000 0.41400
C 	C 	0.39640 0.57800 0.07620 -0.32600
C 	C 	0.29430 0.27310 0.21120 0.35100
C 	C 	0.24630 0.35620 0.22850 -0.08700
C 	C 	0.32610 0.43720 0.21700 -0.07400
C 	C 	0.28650 0.51510 0.23410 0.12200
C 	C 	0.16580 0.51640 0.26310 0.09200
C 	C 	0.08680 0.43740 0.27460 -0.11900
C 	C 	0.12760 0.35720 0.25770 0.03200
C 	C 	0.01790 0.60730 0.30780 -0.32600
C 	C 	0.55410 0.74760 0.23810 -0.01700
C 	C 	0.67290 0.76410 0.20870 -0.08300
C 	C 	0.69220 0.83450 0.17960 0.05500
C 	C 	0.59190 0.88680 0.17920 -0.15000
C 	C 	0.47620 0.87020 0.20920 0.05200
C 	C 	0.45580 0.80080 0.23940 -0.07500
C 	C 	0.61130 0.96240 0.14630 0.45500
S 	S 	0.22550 0.84930 0.46751 0.42100
S 	S 	0.06010 0.36970 0.90277 0.43000
S 	S 	0.47540 0.34430 0.72869 0.43500
S 	S 	0.77450 0.15070 0.53249 0.42100
S 	S 	0.93990 0.63030 0.09723 0.43000
S 	S 	0.52460 0.65570 0.27131 0.43500
O 	O 	0.08960 0.86090 0.76160 -0.44400
O 	O 	0.31500 0.88980 0.73520 -0.45100
O 	O 	0.87570 0.87740 0.47570 -0.11700
O 	O 	0.18210 0.92670 0.51380 -0.23400
O 	O 	0.10840 0.76340 0.45180 -0.23400
O 	O 	0.38210 0.85550 0.49470 -0.24600
O 	O 	0.06040 0.00130 0.21010 -0.45700
O 	O 	0.31490 0.03740 0.22930 -0.50500
O 	O 	0.13220 0.79350 0.87320 -0.46500
O 	O 	0.30920 0.76300 0.82560 -0.45100
O 	O 	0.91380 0.34950 0.91730 -0.24700
O 	O 	0.08790 0.30360 0.85590 -0.24700
O 	O 	0.19020 0.39450 0.96840 -0.24700
O 	O 	0.49420 0.00030 0.86130 -0.43700
O 	O 	0.27040 0.01700 0.87240 -0.47500
O 	O 	0.11810 0.14570 0.07660 -0.46200
O 	O 	0.34240 0.11480 0.09540 -0.46600
O 	O 	0.36310 0.39140 0.73680 -0.25100
O 	O 	0.63570 0.40460 0.77910 -0.24600
O 	O 	0.44750 0.76430 0.69330 -0.66800
O 	O 	0.57620 0.71880 0.80090 -0.40500
O 	O 	0.45360 0.40620 0.93510 -0.12100
O 	O 	0.79090 0.80540 0.79010 -0.45900
O 	O 	0.86520 0.40090 0.72500 -0.11100
O 	O 	0.50210 0.31820 0.66840 -0.24300
O 	O 	0.91040 0.13910 0.23840 -0.44400
O 	O 	0.68500 0.11020 0.26480 -0.45100
O 	O 	0.12430 0.12260 0.52430 -0.11700
O 	O 	0.81790 0.07330 0.48620 -0.23400
O 	O 	0.89160 0.23660 0.54820 -0.23400
O 	O 	0.61790 0.14450 0.50530 -0.24600
O 	O 	0.93960 0.99870 0.78990 -0.45700
O 	O 	0.68510 0.96260 0.77070 -0.50500
O 	O 	0.86780 0.20650 0.12680 -0.46500
O 	O 	0.69080 0.23700 0.17440 -0.45100
O 	O 	0.08620 0.65050 0.08270 -0.24700
O 	O 	0.91210 0.69640 0.14410 -0.24700
O 	O 	0.80980 0.60550 0.03160 -0.24700
O 	O 	0.50580 0.99970 0.13870 -0.43700
O 	O 	0.72960 0.98300 0.12760 -0.47500
O 	O 	0.88190 0.85430 0.92340 -0.46200
O 	O 	0.65760 0.88520 0.90460 -0.46600
O 	O 	0.63690 0.60860 0.26320 -0.25100
O 	O 	0.36430 0.59540 0.22090 -0.24600
O 	O 	0.55250 0.23570 0.30670 -0.66800
O 	O 	0.42380 0.28120 0.19910 -0.40500
O 	O 	0.54640 0.59380 0.06490 -0.12100
O 	O 	0.20910 0.19460 0.20990 -0.45900
O 	O 	0.13480 0.59910 0.27500 -0.11100
O 	O 	0.49790 0.68180 0.33160 -0.24300
