data_crystal

_cell_length_a 11.69000
_cell_length_b 14.17300
_cell_length_c 17.99800
_cell_angle_alpha 90.00000
_cell_angle_beta  90.00000
_cell_angle_gamma 111.01300

_symmetry_space_group_name_	'P 1'
_symmetry_space_group_name_H-M	'P 1'

loop_
_symmetry_equiv_pos_as_xyz
  x,y,z

loop_
_atom_site_label
_atom_site_type_symbol
_atom_site_fract_x
_atom_site_fract_y
_atom_site_fract_z
_atom_site_charge
Zn	Zn	0.93659 0.11334 0.16658 1.20400
Zn	Zn	0.84906 0.86125 0.14486 1.22500
Zn	Zn	0.87185 0.39412 0.40581 1.21400
Zn	Zn	0.56341 0.38666 0.66658 1.20400
Zn	Zn	0.65094 0.63875 0.64486 1.22300
Zn	Zn	0.62815 0.10588 0.90581 1.21400
Zn	Zn	0.06341 0.88666 0.83342 1.20300
Zn	Zn	0.15094 0.13875 0.85514 1.22400
Zn	Zn	0.12815 0.60588 0.59419 1.21400
Zn	Zn	0.43659 0.61334 0.33342 1.20400
Zn	Zn	0.34906 0.36125 0.35514 1.22300
Zn	Zn	0.37185 0.89412 0.09419 1.21400
H 	H 	0.91250 0.98400 0.24510 0.25200
H 	H 	0.80350 0.25310 0.25220 -0.02000
H 	H 	0.99120 0.57540 0.42440 0.12200
H 	H 	0.80170 0.57520 0.44450 0.05400
H 	H 	0.77620 0.56180 0.35900 0.05400
H 	H 	0.14170 0.11870 0.03810 -0.02800
H 	H 	0.93950 0.54770 0.27600 0.03600
H 	H 	0.06390 0.55330 0.31190 0.03500
H 	H 	0.81920 0.72800 0.38980 0.03300
H 	H 	0.94400 0.73470 0.42610 0.04300
H 	H 	0.11050 0.72200 0.34190 0.06100
H 	H 	0.08200 0.70800 0.25640 0.05500
H 	H 	0.97900 0.79970 0.31120 0.12300
H 	H 	0.89230 0.70820 0.27820 0.14500
H 	H 	0.58750 0.51600 0.74510 0.25100
H 	H 	0.69650 0.24690 0.75220 -0.02000
H 	H 	0.50880 0.92460 0.92440 0.12200
H 	H 	0.69830 0.92480 0.94450 0.05500
H 	H 	0.72380 0.93820 0.85900 0.05500
H 	H 	0.35830 0.38130 0.53810 -0.02700
H 	H 	0.56050 0.95230 0.77600 0.03700
H 	H 	0.43610 0.94670 0.81190 0.03600
H 	H 	0.68080 0.77200 0.88980 0.03300
H 	H 	0.55600 0.76530 0.92610 0.04200
H 	H 	0.38950 0.77800 0.84190 0.06100
H 	H 	0.41800 0.79200 0.75640 0.05400
H 	H 	0.52100 0.70030 0.81120 0.12300
H 	H 	0.60770 0.79180 0.77820 0.14500
H 	H 	0.08750 0.01600 0.75490 0.25200
H 	H 	0.19650 0.74690 0.74780 -0.02000
H 	H 	0.00880 0.42460 0.57560 0.12200
H 	H 	0.19830 0.42480 0.55550 0.05400
H 	H 	0.22380 0.43820 0.64100 0.05400
H 	H 	0.85830 0.88130 0.96190 -0.02800
H 	H 	0.06050 0.45230 0.72400 0.03600
H 	H 	0.93610 0.44670 0.68810 0.03500
H 	H 	0.18080 0.27200 0.61020 0.03300
H 	H 	0.05600 0.26530 0.57390 0.04300
H 	H 	0.88950 0.27800 0.65810 0.06100
H 	H 	0.91800 0.29200 0.74360 0.05500
H 	H 	0.02100 0.20030 0.68880 0.12300
H 	H 	0.10770 0.29180 0.72180 0.14500
H 	H 	0.41250 0.48400 0.25490 0.25100
H 	H 	0.30350 0.75310 0.24780 -0.02000
H 	H 	0.49120 0.07540 0.07560 0.12200
H 	H 	0.30170 0.07520 0.05550 0.05500
H 	H 	0.27620 0.06180 0.14100 0.05500
H 	H 	0.64170 0.61870 0.46190 -0.02700
H 	H 	0.43950 0.04770 0.22400 0.03700
H 	H 	0.56390 0.05330 0.18810 0.03600
H 	H 	0.31920 0.22800 0.11020 0.03300
H 	H 	0.44400 0.23470 0.07390 0.04200
H 	H 	0.61050 0.22200 0.15810 0.06100
H 	H 	0.58200 0.20800 0.24360 0.05400
H 	H 	0.47900 0.29970 0.18880 0.12300
H 	H 	0.39230 0.20820 0.22180 0.14500
C 	C 	0.05740 0.24900 0.28530 -0.06500
C 	C 	0.88000 0.26070 0.27160 0.11600
C 	C 	0.10470 0.36090 0.40840 0.34200
C 	C 	0.03820 0.30970 0.34140 -0.06600
C 	C 	0.89750 0.14440 0.86380 0.32800
C 	C 	0.93710 0.13470 0.94110 -0.06400
C 	C 	0.83930 0.59180 0.39590 -0.07900
C 	C 	0.15430 0.21090 0.26130 0.32400
C 	C 	0.06990 0.12280 0.01860 0.12100
C 	C 	0.99700 0.57830 0.31570 -0.05800
C 	C 	0.88660 0.70350 0.38650 -0.00800
C 	C 	0.04650 0.69140 0.30560 -0.03900
C 	C 	0.77590 0.13510 0.04620 0.35200
C 	C 	0.88920 0.12880 0.01180 -0.07200
C 	C 	0.44260 0.25100 0.78530 -0.06700
C 	C 	0.62000 0.23930 0.77160 0.11600
C 	C 	0.39530 0.13910 0.90840 0.34200
C 	C 	0.46180 0.19030 0.84140 -0.06600
C 	C 	0.60250 0.35560 0.36380 0.32800
C 	C 	0.56290 0.36530 0.44110 -0.06200
C 	C 	0.66070 0.90820 0.89590 -0.08000
C 	C 	0.34570 0.28910 0.76130 0.32400
C 	C 	0.43010 0.37720 0.51860 0.11700
C 	C 	0.50300 0.92170 0.81570 -0.05900
C 	C 	0.61340 0.79650 0.88650 -0.00700
C 	C 	0.45350 0.80860 0.80560 -0.03800
C 	C 	0.72410 0.36490 0.54620 0.35200
C 	C 	0.61080 0.37120 0.51180 -0.07200
C 	C 	0.94260 0.75100 0.71470 -0.06500
C 	C 	0.12000 0.73930 0.72840 0.11600
C 	C 	0.89530 0.63910 0.59160 0.34200
C 	C 	0.96180 0.69030 0.65860 -0.06600
C 	C 	0.10250 0.85560 0.13620 0.32800
C 	C 	0.06290 0.86530 0.05890 -0.06400
C 	C 	0.16070 0.40820 0.60410 -0.07900
C 	C 	0.84570 0.78910 0.73870 0.32400
C 	C 	0.93010 0.87720 0.98140 0.12100
C 	C 	0.00300 0.42170 0.68430 -0.05800
C 	C 	0.11340 0.29650 0.61350 -0.00800
C 	C 	0.95350 0.30860 0.69440 -0.03900
C 	C 	0.22410 0.86490 0.95380 0.35200
C 	C 	0.11080 0.87120 0.98820 -0.07200
C 	C 	0.55740 0.74900 0.21470 -0.06700
C 	C 	0.38000 0.76070 0.22840 0.11600
C 	C 	0.60470 0.86090 0.09160 0.34200
C 	C 	0.53820 0.80970 0.15860 -0.06600
C 	C 	0.39750 0.64440 0.63620 0.32800
C 	C 	0.43710 0.63470 0.55890 -0.06200
C 	C 	0.33930 0.09180 0.10410 -0.08000
C 	C 	0.65430 0.71090 0.23870 0.32400
C 	C 	0.56990 0.62280 0.48140 0.11700
C 	C 	0.49700 0.07830 0.18430 -0.05900
C 	C 	0.38660 0.20350 0.11350 -0.00700
C 	C 	0.54650 0.19140 0.19440 -0.03800
C 	C 	0.27590 0.63510 0.45380 0.35200
C 	C 	0.38920 0.62880 0.48820 -0.07200
N 	N 	0.95430 0.21810 0.24150 -0.26500
N 	N 	0.05150 0.13070 0.94690 -0.25600
N 	N 	0.92580 0.31470 0.33180 -0.25300
N 	N 	0.93430 0.54690 0.38860 -0.27100
N 	N 	0.94760 0.73190 0.31480 -0.23700
N 	N 	0.97510 0.12130 0.05980 -0.27300
N 	N 	0.54570 0.28190 0.74150 -0.26400
N 	N 	0.44850 0.36930 0.44690 -0.25600
N 	N 	0.57420 0.18530 0.83180 -0.25300
N 	N 	0.56570 0.95310 0.88860 -0.27100
N 	N 	0.55240 0.76810 0.81480 -0.23700
N 	N 	0.52490 0.37870 0.55980 -0.27100
N 	N 	0.04570 0.78190 0.75850 -0.26500
N 	N 	0.94850 0.86930 0.05310 -0.25600
N 	N 	0.07420 0.68530 0.66820 -0.25300
N 	N 	0.06570 0.45310 0.61140 -0.27100
N 	N 	0.05240 0.26810 0.68520 -0.23700
N 	N 	0.02490 0.87870 0.94020 -0.27300
N 	N 	0.45430 0.71810 0.25850 -0.26400
N 	N 	0.55150 0.63070 0.55310 -0.25600
N 	N 	0.42580 0.81470 0.16820 -0.25300
N 	N 	0.43430 0.04690 0.11140 -0.27100
N 	N 	0.44760 0.23190 0.18520 -0.23700
N 	N 	0.47510 0.62130 0.44020 -0.27100
O 	O 	0.86760 0.97780 0.20650 -0.75600
O 	O 	0.12910 0.15010 0.20880 -0.41100
O 	O 	0.20740 0.35690 0.42340 -0.44700
O 	O 	0.04860 0.40070 0.44910 -0.41500
O 	O 	0.69080 0.14320 0.00720 -0.46100
O 	O 	0.25910 0.24080 0.29350 -0.44200
O 	O 	0.79200 0.14170 0.84950 -0.44100
O 	O 	0.97660 0.15340 0.81380 -0.39700
O 	O 	0.77270 0.13150 0.11470 -0.41400
O 	O 	0.63240 0.52220 0.70650 -0.75600
O 	O 	0.37090 0.34990 0.70880 -0.41200
O 	O 	0.29260 0.14310 0.92340 -0.44700
O 	O 	0.45140 0.09930 0.94910 -0.41600
O 	O 	0.80920 0.35680 0.50720 -0.46100
O 	O 	0.24090 0.25920 0.79350 -0.44200
O 	O 	0.70800 0.35830 0.34950 -0.44000
O 	O 	0.52340 0.34660 0.31380 -0.39600
O 	O 	0.72730 0.36850 0.61470 -0.41400
O 	O 	0.13240 0.02220 0.79350 -0.75600
O 	O 	0.87090 0.84990 0.79120 -0.41100
O 	O 	0.79260 0.64310 0.57660 -0.44700
O 	O 	0.95140 0.59930 0.55090 -0.41500
O 	O 	0.30920 0.85680 0.99280 -0.46100
O 	O 	0.74090 0.75920 0.70650 -0.44200
O 	O 	0.20800 0.85830 0.15050 -0.44100
O 	O 	0.02340 0.84660 0.18620 -0.39700
O 	O 	0.22730 0.86850 0.88530 -0.41400
O 	O 	0.36760 0.47780 0.29350 -0.75600
O 	O 	0.62910 0.65010 0.29120 -0.41200
O 	O 	0.70740 0.85690 0.07660 -0.44700
O 	O 	0.54860 0.90070 0.05090 -0.41600
O 	O 	0.19080 0.64320 0.49280 -0.46100
O 	O 	0.75910 0.74080 0.20650 -0.44200
O 	O 	0.29200 0.64170 0.65050 -0.44000
O 	O 	0.47660 0.65340 0.68620 -0.39600
O 	O 	0.27270 0.63150 0.38530 -0.41400
