data_crystal

_cell_length_a 17.60180
_cell_length_b 17.60180
_cell_length_c 21.06330
_cell_angle_alpha 90.00000
_cell_angle_beta  90.00000
_cell_angle_gamma 120.00000

_symmetry_space_group_name_	'P 1'
_symmetry_space_group_name_H-M	'P 1'

loop_
_symmetry_equiv_pos_as_xyz
  x,y,z

loop_
_atom_site_label
_atom_site_type_symbol
_atom_site_fract_x
_atom_site_fract_y
_atom_site_fract_z
_atom_site_charge
N 	N 	0.19790 0.43260 0.56030 -0.10400
N 	N 	0.26030 0.42360 0.52840 -0.03500
N 	N 	0.31170 0.49140 0.49360 -0.06500
N 	N 	0.28650 0.54990 0.50310 -0.19400
C 	C 	0.21880 0.51310 0.54480 0.09600
H 	H 	0.19040 0.54160 0.56070 -0.00300
N 	N 	0.04670 0.22870 0.38740 -0.13100
N 	N 	0.12210 0.22810 0.38710 -0.03800
N 	N 	0.11780 0.16140 0.35650 -0.06900
N 	N 	0.03670 0.11530 0.33600 -0.22100
C 	C 	0.99530 0.15740 0.35660 0.16900
H 	H 	0.93610 0.13750 0.34940 -0.02100
N 	N 	0.43670 0.23250 0.99090 -0.12000
N 	N 	0.42460 0.16460 0.02590 -0.03500
N 	N 	0.48960 0.18130 0.06300 -0.06400
N 	N 	0.54970 0.26340 0.05110 -0.20300
C 	C 	0.51600 0.29300 0.00780 0.13600
H 	H 	0.54500 0.34970 0.99150 -0.02700
N 	N 	0.22050 0.18620 0.16260 -0.10500
N 	N 	0.23030 0.11830 0.16690 -0.03700
N 	N 	0.16870 0.05190 0.19960 -0.07200
N 	N 	0.11590 0.07910 0.21850 -0.20000
C 	C 	0.14920 0.16180 0.19670 0.09700
H 	H 	0.12480 0.19720 0.20480 -0.00500
C 	C 	0.26540 0.34320 0.53030 -0.17300
H 	H 	0.26320 0.32470 0.57400 0.04400
H 	H 	0.32040 0.35390 0.51190 0.09600
C 	C 	0.18810 0.27100 0.49280 -0.04500
H 	H 	0.13360 0.26630 0.50740 0.04300
H 	H 	0.18490 0.21510 0.50000 0.04000
C 	C 	0.20010 0.29290 0.42110 -0.18000
H 	H 	0.20870 0.35110 0.41420 0.03300
H 	H 	0.25140 0.29190 0.40550 0.09100
H 	H 	0.54510 0.96250 0.21490 0.13300
H 	H 	0.64730 0.01870 0.22380 0.05500
C 	C 	0.61200 0.98600 0.13030 0.04400
H 	H 	0.66270 0.03590 0.11160 -0.00400
H 	H 	0.62390 0.93800 0.13260 0.01200
H 	H 	0.50710 0.98850 0.11070 0.14400
H 	H 	0.56340 0.99880 0.05260 0.10000
C 	C 	0.34260 0.07950 0.02670 -0.12100
H 	H 	0.35250 0.03560 0.04670 0.08600
H 	H 	0.32250 0.06080 0.98360 0.02100
C 	C 	0.27440 0.08910 0.06310 0.04900
H 	H 	0.26680 0.13470 0.04340 0.01300
H 	H 	0.21890 0.03460 0.06020 0.00600
C 	C 	0.29660 0.11130 0.13150 -0.17600
H 	H 	0.30570 0.06650 0.15090 0.10500
H 	H 	0.35130 0.16660 0.13440 0.04500
H 	H 	0.35180 0.03640 0.00470 0.03000
H 	H 	0.29760 0.08500 0.00410 0.06400
C 	C 	0.31100 0.04740 0.09370 -0.22800
H 	H 	0.25630 0.99190 0.09160 0.10900
H 	H 	0.35380 0.03740 0.11520 0.08000
H 	H 	0.34370 0.13160 0.16230 0.04300
H 	H 	0.31560 0.15950 0.10170 0.08400
N 	N 	0.86457 0.76593 0.89363 -0.10300
N 	N 	0.92697 0.75693 0.86173 -0.03400
N 	N 	0.97837 0.82473 0.82693 -0.05900
N 	N 	0.95317 0.88323 0.83643 -0.18300
C 	C 	0.88547 0.84643 0.87813 0.09700
H 	H 	0.85707 0.87493 0.89403 0.00200
N 	N 	0.71337 0.56203 0.72073 -0.10700
N 	N 	0.78877 0.56143 0.72043 -0.03500
N 	N 	0.78447 0.49473 0.68983 -0.06500
N 	N 	0.70337 0.44863 0.66933 -0.19500
C 	C 	0.66197 0.49073 0.68993 0.11000
H 	H 	0.60277 0.47083 0.68273 -0.00300
N 	N 	0.10337 0.56583 0.32423 -0.10800
N 	N 	0.09127 0.49793 0.35923 -0.01800
N 	N 	0.15627 0.51463 0.39633 -0.06600
N 	N 	0.21637 0.59673 0.38443 -0.19900
C 	C 	0.18267 0.62633 0.34113 0.10000
H 	H 	0.21167 0.68303 0.32483 -0.00400
N 	N 	0.88717 0.51953 0.49593 -0.10200
N 	N 	0.89697 0.45163 0.50023 -0.02600
N 	N 	0.83537 0.38523 0.53293 -0.06300
N 	N 	0.78257 0.41243 0.55183 -0.19400
C 	C 	0.81587 0.49513 0.53003 0.10100
H 	H 	0.79147 0.53053 0.53813 0.00000
C 	C 	0.93207 0.67653 0.86363 -0.17600
H 	H 	0.92987 0.65803 0.90733 0.04600
H 	H 	0.98707 0.68723 0.84523 0.10300
C 	C 	0.85477 0.60433 0.82613 -0.03900
H 	H 	0.80027 0.59963 0.84073 0.04400
H 	H 	0.85157 0.54843 0.83333 0.04300
C 	C 	0.86677 0.62623 0.75443 -0.18000
H 	H 	0.87537 0.68443 0.74753 0.03400
H 	H 	0.91807 0.62523 0.73883 0.09600
H 	H 	0.21177 0.29583 0.54823 0.08300
H 	H 	0.31397 0.35203 0.55713 0.03700
C 	C 	0.27867 0.31933 0.46363 -0.11400
H 	H 	0.32937 0.36923 0.44493 0.05600
H 	H 	0.29057 0.27133 0.46593 0.05300
H 	H 	0.17377 0.32183 0.44403 0.10100
H 	H 	0.23007 0.33213 0.38593 0.05400
C 	C 	0.00927 0.41283 0.36003 -0.33500
H 	H 	0.01917 0.36893 0.38003 0.10400
H 	H 	0.98917 0.39413 0.31693 0.08200
C 	C 	0.94107 0.42243 0.39643 -0.06800
H 	H 	0.93347 0.46803 0.37673 0.05000
H 	H 	0.88557 0.36793 0.39353 0.04900
C 	C 	0.96327 0.44463 0.46483 -0.20400
H 	H 	0.97237 0.39983 0.48423 0.09200
H 	H 	0.01797 0.49993 0.46773 0.02000
H 	H 	0.01847 0.36973 0.33803 0.05800
H 	H 	0.96427 0.41833 0.33743 0.12800
C 	C 	0.97767 0.38073 0.42703 0.07700
H 	H 	0.92297 0.32523 0.42493 0.00400
H 	H 	0.02047 0.37073 0.44853 -0.02100
H 	H 	0.01037 0.46493 0.49563 0.05100
H 	H 	0.98227 0.49283 0.43503 0.12400
N 	N 	0.53123 0.09927 0.22697 -0.10700
N 	N 	0.59363 0.09027 0.19507 -0.01800
N 	N 	0.64503 0.15807 0.16027 -0.06700
N 	N 	0.61983 0.21657 0.16977 -0.19400
C 	C 	0.55213 0.17977 0.21147 0.09400
H 	H 	0.52373 0.20827 0.22737 -0.00200
N 	N 	0.38003 0.89537 0.05407 -0.10400
N 	N 	0.45543 0.89477 0.05377 -0.02500
N 	N 	0.45113 0.82807 0.02317 -0.06400
N 	N 	0.37003 0.78197 0.00267 -0.19200
C 	C 	0.32863 0.82407 0.02327 0.11300
H 	H 	0.26943 0.80417 0.01607 -0.00100
N 	N 	0.77003 0.89917 0.65757 -0.10800
N 	N 	0.75793 0.83127 0.69257 -0.03300
N 	N 	0.82293 0.84797 0.72967 -0.06200
N 	N 	0.88303 0.93007 0.71777 -0.19300
C 	C 	0.84933 0.95967 0.67447 0.14000
H 	H 	0.87833 0.01637 0.65817 -0.02400
N 	N 	0.55383 0.85287 0.82927 -0.10100
N 	N 	0.56363 0.78497 0.83357 -0.03000
N 	N 	0.50203 0.71857 0.86627 -0.06600
N 	N 	0.44923 0.74577 0.88517 -0.19600
C 	C 	0.48253 0.82847 0.86337 0.10000
H 	H 	0.45813 0.86387 0.87147 0.00100
C 	C 	0.59873 0.00987 0.19697 -0.33800
H 	H 	0.59653 0.99137 0.24067 0.08600
H 	H 	0.65373 0.02057 0.17857 0.11200
C 	C 	0.52143 0.93767 0.15947 -0.05700
H 	H 	0.46693 0.93297 0.17407 0.05000
H 	H 	0.51823 0.88177 0.16667 0.04700
C 	C 	0.53343 0.95957 0.08777 -0.24400
H 	H 	0.54203 0.01777 0.08087 -0.00200
H 	H 	0.58473 0.95857 0.07217 0.09200
H 	H 	0.87843 0.62917 0.88157 0.08400
H 	H 	0.98063 0.68537 0.89047 0.04000
C 	C 	0.94533 0.65267 0.79697 -0.12800
H 	H 	0.99603 0.70257 0.77827 0.06700
H 	H 	0.95723 0.60467 0.79927 0.06300
H 	H 	0.84043 0.65517 0.77737 0.10100
H 	H 	0.89673 0.66547 0.71927 0.05700
C 	C 	0.67593 0.74617 0.69337 -0.17400
H 	H 	0.68583 0.70227 0.71337 0.09200
H 	H 	0.65583 0.72747 0.65027 0.04600
C 	C 	0.60773 0.75577 0.72977 0.00400
H 	H 	0.60013 0.80137 0.71007 0.02800
H 	H 	0.55223 0.70127 0.72687 0.02900
C 	C 	0.62993 0.77797 0.79817 -0.20400
H 	H 	0.63903 0.73317 0.81757 0.10200
H 	H 	0.68463 0.83327 0.80107 0.04600
H 	H 	0.68513 0.70307 0.67137 0.03800
H 	H 	0.63093 0.75167 0.67077 0.07400
C 	C 	0.64433 0.71407 0.76037 -0.11800
H 	H 	0.58963 0.65857 0.75827 0.05700
H 	H 	0.68713 0.70407 0.78187 0.05300
H 	H 	0.67703 0.79827 0.82897 0.05400
H 	H 	0.64893 0.82617 0.76837 0.09900
N 	N 	0.56740 0.76530 0.56030 -0.10300
N 	N 	0.57640 0.83670 0.52840 -0.03100
N 	N 	0.50860 0.82030 0.49360 -0.06500
N 	N 	0.45010 0.73660 0.50310 -0.19400
C 	C 	0.48690 0.70570 0.54480 0.09500
H 	H 	0.45840 0.64880 0.56070 -0.00200
N 	N 	0.77130 0.81800 0.38740 -0.10700
N 	N 	0.77190 0.89400 0.38710 -0.03200
N 	N 	0.83860 0.95640 0.35650 -0.05900
N 	N 	0.88470 0.92140 0.33600 -0.18500
C 	C 	0.84260 0.83790 0.35660 0.11200
H 	H 	0.86250 0.79860 0.34940 0.00200
N 	N 	0.76750 0.20420 0.99090 -0.12000
N 	N 	0.83540 0.26000 0.02590 -0.02600
N 	N 	0.81870 0.30830 0.06300 -0.06200
N 	N 	0.73660 0.28630 0.05110 -0.20300
C 	C 	0.70700 0.22300 0.00780 0.13500
H 	H 	0.65030 0.19530 0.99150 -0.02800
N 	N 	0.81380 0.03430 0.16260 -0.12100
N 	N 	0.88170 0.11200 0.16690 -0.03000
N 	N 	0.94810 0.11680 0.19960 -0.05900
N 	N 	0.92090 0.03680 0.21850 -0.20400
C 	C 	0.83820 0.98740 0.19670 0.14200
H 	H 	0.80280 0.92760 0.20480 -0.01000
C 	C 	0.65680 0.92220 0.53030 -0.20600
H 	H 	0.67530 0.93850 0.57400 0.04900
H 	H 	0.64610 0.96650 0.51190 0.09800
C 	C 	0.72900 0.91710 0.49280 -0.07400
H 	H 	0.73370 0.86730 0.50740 0.05600
H 	H 	0.78490 0.96980 0.50000 0.06200
C 	C 	0.70710 0.90720 0.42110 -0.19500
H 	H 	0.64890 0.85760 0.41420 0.03100
H 	H 	0.70810 0.95950 0.40550 0.09400
H 	H 	0.03750 0.58260 0.21490 0.03100
H 	H 	0.98130 0.62860 0.22380 0.01700
C 	C 	0.01400 0.62600 0.13030 -0.28800
H 	H 	0.96410 0.62680 0.11160 0.12400
H 	H 	0.06200 0.68590 0.13260 0.10300
H 	H 	0.01150 0.51860 0.11070 0.05500
H 	H 	0.00120 0.56460 0.05260 0.00900
C 	C 	0.92050 0.26310 0.02670 -0.19200
H 	H 	0.96440 0.31690 0.04670 0.08000
H 	H 	0.93920 0.26170 0.98360 0.02800
C 	C 	0.91090 0.18530 0.06310 -0.09000
H 	H 	0.86530 0.13210 0.04340 0.05500
H 	H 	0.96540 0.18430 0.06020 0.06800
C 	C 	0.88870 0.18530 0.13150 -0.20700
H 	H 	0.93350 0.23920 0.15090 0.09000
H 	H 	0.83340 0.18470 0.13440 0.03700
H 	H 	0.96360 0.31540 0.00470 0.06400
H 	H 	0.91500 0.21260 0.00410 0.10200
C 	C 	0.95260 0.26360 0.09370 0.01300
H 	H 	0.00810 0.26440 0.09160 -0.00100
H 	H 	0.96260 0.31640 0.11520 0.02100
H 	H 	0.86840 0.21210 0.16230 0.06100
H 	H 	0.84050 0.15610 0.10170 0.11000
N 	N 	0.23407 0.09863 0.89363 -0.09900
N 	N 	0.24307 0.17003 0.86173 -0.03700
N 	N 	0.17527 0.15363 0.82693 -0.06700
N 	N 	0.11677 0.06993 0.83643 -0.19400
C 	C 	0.15357 0.03903 0.87813 0.04600
H 	H 	0.12507 0.98213 0.89403 0.02400
N 	N 	0.43797 0.15133 0.72073 -0.11200
N 	N 	0.43857 0.22733 0.72043 -0.03800
N 	N 	0.50527 0.28973 0.68983 -0.06700
N 	N 	0.55137 0.25473 0.66933 -0.19600
C 	C 	0.50927 0.17123 0.68993 0.10900
H 	H 	0.52917 0.13193 0.68273 -0.00700
N 	N 	0.43417 0.53753 0.32423 -0.10400
N 	N 	0.50207 0.59333 0.35923 -0.03300
N 	N 	0.48537 0.64163 0.39633 -0.06400
N 	N 	0.40327 0.61963 0.38443 -0.19800
C 	C 	0.37367 0.55633 0.34113 0.10100
H 	H 	0.31697 0.52863 0.32483 -0.00600
N 	N 	0.48047 0.36763 0.49593 -0.10600
N 	N 	0.54837 0.44533 0.50023 -0.03100
N 	N 	0.61477 0.45013 0.53293 -0.06500
N 	N 	0.58757 0.37013 0.55183 -0.19500
C 	C 	0.50487 0.32073 0.53003 0.10000
H 	H 	0.46947 0.26093 0.53813 -0.00300
C 	C 	0.32347 0.25553 0.86363 -0.16700
H 	H 	0.34197 0.27183 0.90733 0.04200
H 	H 	0.31277 0.29983 0.84523 0.09500
C 	C 	0.39567 0.25043 0.82613 -0.05000
H 	H 	0.40037 0.20063 0.84073 0.04500
H 	H 	0.45157 0.30313 0.83333 0.04500
C 	C 	0.37377 0.24053 0.75443 -0.16900
H 	H 	0.31557 0.19093 0.74753 0.03000
H 	H 	0.37477 0.29283 0.73883 0.08900
H 	H 	0.70417 0.91593 0.54823 0.09900
H 	H 	0.64797 0.96193 0.55713 0.05100
C 	C 	0.68067 0.95933 0.46363 -0.04300
H 	H 	0.63077 0.96013 0.44493 0.04000
H 	H 	0.72867 0.01923 0.46593 0.01900
H 	H 	0.67817 0.85193 0.44403 0.10800
H 	H 	0.66787 0.89793 0.38593 0.06100
C 	C 	0.58717 0.59643 0.36003 -0.17400
H 	H 	0.63107 0.65023 0.38003 0.09300
H 	H 	0.60587 0.59503 0.31693 0.04600
C 	C 	0.57757 0.51863 0.39643 0.00900
H 	H 	0.53197 0.46543 0.37673 0.02500
H 	H 	0.63207 0.51763 0.39353 0.02800
C 	C 	0.55537 0.51863 0.46483 -0.20100
H 	H 	0.60017 0.57253 0.48423 0.10300
H 	H 	0.50007 0.51803 0.46773 0.04400
H 	H 	0.63027 0.64873 0.33803 0.03800
H 	H 	0.58167 0.54593 0.33743 0.07300
C 	C 	0.61927 0.59693 0.42703 -0.12400
H 	H 	0.67477 0.59773 0.42493 0.06000
H 	H 	0.62927 0.64973 0.44853 0.05500
H 	H 	0.53507 0.54543 0.49563 0.05200
H 	H 	0.50717 0.48943 0.43503 0.09600
N 	N 	0.90073 0.43197 0.22697 -0.09800
N 	N 	0.90973 0.50337 0.19507 -0.05400
N 	N 	0.84193 0.48697 0.16027 -0.06300
N 	N 	0.78343 0.40327 0.16977 -0.19400
C 	C 	0.82023 0.37237 0.21147 0.09600
H 	H 	0.79173 0.31547 0.22737 -0.00200
N 	N 	0.10463 0.48467 0.05407 -0.10900
N 	N 	0.10523 0.56067 0.05377 -0.04600
N 	N 	0.17193 0.62307 0.02317 -0.06500
N 	N 	0.21803 0.58807 0.00267 -0.19300
C 	C 	0.17593 0.50457 0.02327 0.11000
H 	H 	0.19583 0.46527 0.01607 -0.00200
N 	N 	0.10083 0.87087 0.65757 -0.09800
N 	N 	0.16873 0.92667 0.69257 -0.03200
N 	N 	0.15203 0.97497 0.72967 -0.05900
N 	N 	0.06993 0.95297 0.71777 -0.18800
C 	C 	0.04033 0.88967 0.67447 0.05700
H 	H 	0.98363 0.86197 0.65817 0.02800
N 	N 	0.14713 0.70097 0.82927 -0.11100
N 	N 	0.21503 0.77867 0.83357 -0.03200
N 	N 	0.28143 0.78347 0.86627 -0.06600
N 	N 	0.25423 0.70347 0.88517 -0.19600
C 	C 	0.17153 0.65407 0.86337 0.09700
H 	H 	0.13613 0.59427 0.87147 -0.00700
C 	C 	0.99013 0.58887 0.19697 0.01100
H 	H 	0.00863 0.60517 0.24067 -0.00100
H 	H 	0.97943 0.63317 0.17857 0.07900
C 	C 	0.06233 0.58377 0.15947 -0.04300
H 	H 	0.06703 0.53397 0.17407 0.04500
H 	H 	0.11823 0.63647 0.16667 0.04500
C 	C 	0.04043 0.57387 0.08777 -0.10500
H 	H 	0.98223 0.52427 0.08087 0.07000
H 	H 	0.04143 0.62617 0.07217 0.09300
H 	H 	0.37083 0.24927 0.88157 0.08300
H 	H 	0.31463 0.29527 0.89047 0.03400
C 	C 	0.34733 0.29267 0.79697 -0.11800
H 	H 	0.29743 0.29347 0.77827 0.05700
H 	H 	0.39533 0.35257 0.79927 0.05500
H 	H 	0.34483 0.18527 0.77737 0.09600
H 	H 	0.33453 0.23127 0.71927 0.05200
C 	C 	0.25383 0.92977 0.69337 -0.18100
H 	H 	0.29773 0.98357 0.71337 0.10000
H 	H 	0.27253 0.92837 0.65027 0.05000
C 	C 	0.24423 0.85197 0.72977 0.02700
H 	H 	0.19863 0.79877 0.71007 0.01800
H 	H 	0.29873 0.85097 0.72687 0.02300
C 	C 	0.22203 0.85197 0.79817 -0.20000
H 	H 	0.26683 0.90587 0.81757 0.10600
H 	H 	0.16673 0.85137 0.80107 0.04200
H 	H 	0.29693 0.98207 0.67137 0.04100
H 	H 	0.24833 0.87927 0.67077 0.07200
C 	C 	0.28593 0.93027 0.76037 -0.14200
H 	H 	0.34143 0.93107 0.75827 0.06800
H 	H 	0.29593 0.98307 0.78187 0.06600
H 	H 	0.20173 0.87877 0.82897 0.05100
H 	H 	0.17383 0.82277 0.76837 0.09200
N 	N 	0.23470 0.80210 0.56030 -0.10200
N 	N 	0.16330 0.73970 0.52840 -0.04100
N 	N 	0.17970 0.68830 0.49360 -0.06600
N 	N 	0.26340 0.71350 0.50310 -0.19400
C 	C 	0.29430 0.78120 0.54480 0.09500
H 	H 	0.35120 0.80960 0.56070 -0.00100
N 	N 	0.18200 0.95330 0.38740 -0.08600
N 	N 	0.10600 0.87790 0.38710 -0.04000
N 	N 	0.04360 0.88220 0.35650 -0.07000
N 	N 	0.07860 0.96330 0.33600 -0.17500
C 	C 	0.16210 0.00470 0.35660 0.05600
H 	H 	0.20140 0.06390 0.34940 0.01000
N 	N 	0.79580 0.56330 0.99090 -0.11800
N 	N 	0.74000 0.57540 0.02590 -0.03200
N 	N 	0.69170 0.51040 0.06300 -0.06300
N 	N 	0.71370 0.45030 0.05110 -0.20300
C 	C 	0.77700 0.48400 0.00780 0.13400
H 	H 	0.80470 0.45500 0.99150 -0.02300
N 	N 	0.96570 0.77950 0.16260 -0.08600
N 	N 	0.88800 0.76970 0.16690 -0.03200
N 	N 	0.88320 0.83130 0.19960 -0.06200
N 	N 	0.96320 0.88410 0.21850 -0.16900
C 	C 	0.01260 0.85080 0.19670 0.05600
H 	H 	0.07240 0.87520 0.20480 0.01600
C 	C 	0.07780 0.73460 0.53030 -0.12800
H 	H 	0.06150 0.73680 0.57400 0.03800
H 	H 	0.03350 0.67960 0.51190 0.09300
C 	C 	0.08290 0.81190 0.49280 -0.03300
H 	H 	0.13270 0.86640 0.50740 0.04400
H 	H 	0.03020 0.81510 0.50000 0.03500
C 	C 	0.09280 0.79990 0.42110 -0.14300
H 	H 	0.14240 0.79130 0.41420 0.03200
H 	H 	0.04050 0.74860 0.40550 0.08600
H 	H 	0.41740 0.45490 0.21490 0.08400
H 	H 	0.37140 0.35270 0.22380 0.03600
C 	C 	0.37400 0.38800 0.13030 -0.11400
H 	H 	0.37320 0.33730 0.11160 0.05700
H 	H 	0.31410 0.37610 0.13260 0.05400
H 	H 	0.48140 0.49290 0.11070 0.10100
H 	H 	0.43540 0.43660 0.05260 0.05600
C 	C 	0.73690 0.65740 0.02670 -0.15100
H 	H 	0.68310 0.64750 0.04670 0.08200
H 	H 	0.73830 0.67750 0.98360 0.02300
C 	C 	0.81470 0.72560 0.06310 -0.03200
H 	H 	0.86790 0.73320 0.04340 0.04200
H 	H 	0.81570 0.78110 0.06020 0.04400
C 	C 	0.81470 0.70340 0.13150 -0.18100
H 	H 	0.76080 0.69430 0.15090 0.09500
H 	H 	0.81530 0.64870 0.13440 0.03800
H 	H 	0.68460 0.64820 0.00470 0.04600
H 	H 	0.78740 0.70240 0.00410 0.08400
C 	C 	0.73640 0.68900 0.09370 -0.10900
H 	H 	0.73560 0.74370 0.09160 0.05700
H 	H 	0.68360 0.64620 0.11520 0.05200
H 	H 	0.78790 0.65630 0.16230 0.05100
H 	H 	0.84390 0.68440 0.10170 0.09600
N 	N 	0.90137 0.13543 0.89363 -0.11100
N 	N 	0.82997 0.07303 0.86173 -0.03800
N 	N 	0.84637 0.02163 0.82693 -0.06900
N 	N 	0.93007 0.04683 0.83643 -0.19800
C 	C 	0.96097 0.11453 0.87813 0.14900
H 	H 	0.01787 0.14293 0.89403 -0.04300
N 	N 	0.84867 0.28663 0.72073 -0.10200
N 	N 	0.77267 0.21123 0.72043 -0.03600
N 	N 	0.71027 0.21553 0.68983 -0.06700
N 	N 	0.74527 0.29663 0.66933 -0.19500
C 	C 	0.82877 0.33803 0.68993 0.11100
H 	H 	0.86807 0.39723 0.68273 0.00200
N 	N 	0.46247 0.89663 0.32423 -0.10000
N 	N 	0.40667 0.90873 0.35923 -0.04800
N 	N 	0.35837 0.84373 0.39633 -0.06200
N 	N 	0.38037 0.78363 0.38443 -0.19800
C 	C 	0.44367 0.81733 0.34113 0.10100
H 	H 	0.47137 0.78833 0.32483 -0.00500
N 	N 	0.63237 0.11283 0.49593 -0.10700
N 	N 	0.55467 0.10303 0.50023 -0.03600
N 	N 	0.54987 0.16463 0.53293 -0.06700
N 	N 	0.62987 0.21743 0.55183 -0.19400
C 	C 	0.67927 0.18413 0.53003 0.09800
H 	H 	0.73907 0.20853 0.53813 0.00100
C 	C 	0.74447 0.06793 0.86363 -0.16100
H 	H 	0.72817 0.07013 0.90733 0.03900
H 	H 	0.70017 0.01293 0.84523 0.08800
C 	C 	0.74957 0.14523 0.82613 -0.06200
H 	H 	0.79937 0.19973 0.84073 0.05300
H 	H 	0.69687 0.14843 0.83333 0.04800
C 	C 	0.75947 0.13323 0.75443 -0.17400
H 	H 	0.80907 0.12463 0.74753 0.03300
H 	H 	0.70717 0.08193 0.73883 0.08700
H 	H 	0.08407 0.78823 0.54823 0.06900
H 	H 	0.03807 0.68603 0.55713 0.02100
C 	C 	0.04067 0.72133 0.46363 -0.19600
H 	H 	0.03987 0.67063 0.44493 0.07600
H 	H 	0.98077 0.70943 0.46593 0.09800
H 	H 	0.14807 0.82623 0.44403 0.09000
H 	H 	0.10207 0.76993 0.38593 0.04500
C 	C 	0.40357 0.99073 0.36003 -0.02900
H 	H 	0.34977 0.98083 0.38003 0.08100
H 	H 	0.40497 0.01083 0.31693 0.01300
C 	C 	0.48137 0.05893 0.39643 0.07200
H 	H 	0.53457 0.06653 0.37673 0.00400
H 	H 	0.48237 0.11443 0.39353 0.01000
C 	C 	0.48137 0.03673 0.46483 -0.19500
H 	H 	0.42747 0.02763 0.48423 0.11000
H 	H 	0.48197 0.98203 0.46773 0.06400
H 	H 	0.35127 0.98153 0.33803 0.01900
H 	H 	0.45407 0.03573 0.33743 0.02400
C 	C 	0.40307 0.02233 0.42703 -0.29800
H 	H 	0.40227 0.07703 0.42493 0.10700
H 	H 	0.35027 0.97953 0.44853 0.12000
H 	H 	0.45457 0.98963 0.49563 0.05300
H 	H 	0.51057 0.01773 0.43503 0.07200
N 	N 	0.56803 0.46877 0.22697 -0.10200
N 	N 	0.49663 0.40637 0.19507 -0.03500
N 	N 	0.51303 0.35497 0.16027 -0.06500
N 	N 	0.59673 0.38017 0.16977 -0.19400
C 	C 	0.62763 0.44787 0.21147 0.09500
H 	H 	0.68453 0.47627 0.22737 -0.00100
N 	N 	0.51533 0.61997 0.05407 -0.10600
N 	N 	0.43933 0.54457 0.05377 -0.03500
N 	N 	0.37693 0.54887 0.02317 -0.06500
N 	N 	0.41193 0.62997 0.00267 -0.19200
C 	C 	0.49543 0.67137 0.02327 0.11100
H 	H 	0.53473 0.73057 0.01607 0.00100
N 	N 	0.12913 0.22997 0.65757 -0.10500
N 	N 	0.07333 0.24207 0.69257 -0.03600
N 	N 	0.02503 0.17707 0.72967 -0.07100
N 	N 	0.04703 0.11697 0.71777 -0.20500
C 	C 	0.11033 0.15067 0.67447 0.09800
H 	H 	0.13803 0.12167 0.65817 -0.01100
N 	N 	0.29903 0.44617 0.82927 -0.10600
N 	N 	0.22133 0.43637 0.83357 -0.03400
N 	N 	0.21653 0.49797 0.86627 -0.06800
N 	N 	0.29653 0.55077 0.88517 -0.19600
C 	C 	0.34593 0.51747 0.86337 0.09800
H 	H 	0.40573 0.54187 0.87147 -0.00300
C 	C 	0.41113 0.40127 0.19697 -0.17100
H 	H 	0.39483 0.40347 0.24067 0.04400
H 	H 	0.36683 0.34627 0.17857 0.09600
C 	C 	0.41623 0.47857 0.15947 -0.05000
H 	H 	0.46603 0.53307 0.17407 0.04800
H 	H 	0.36353 0.48177 0.16667 0.04600
C 	C 	0.42613 0.46657 0.08777 -0.17800
H 	H 	0.47573 0.45797 0.08087 0.03300
H 	H 	0.37383 0.41527 0.07217 0.09200
H 	H 	0.75073 0.12157 0.88157 0.08300
H 	H 	0.70473 0.01937 0.89047 0.03100
C 	C 	0.70733 0.05467 0.79697 -0.10200
H 	H 	0.70653 0.00397 0.77827 0.04700
H 	H 	0.64743 0.04277 0.79927 0.04700
H 	H 	0.81473 0.15957 0.77737 0.10300
H 	H 	0.76873 0.10327 0.71927 0.05300
C 	C 	0.07023 0.32407 0.69337 -0.16400
H 	H 	0.01643 0.31417 0.71337 0.08300
H 	H 	0.07163 0.34417 0.65027 0.04100
C 	C 	0.14803 0.39227 0.72977 -0.01600
H 	H 	0.20123 0.39987 0.71007 0.03200
H 	H 	0.14903 0.44777 0.72687 0.03400
C 	C 	0.14803 0.37007 0.79817 -0.19100
H 	H 	0.09413 0.36097 0.81757 0.09400
H 	H 	0.14863 0.31537 0.80107 0.04100
H 	H 	0.01793 0.31487 0.67137 0.03300
H 	H 	0.12073 0.36907 0.67077 0.07300
C 	C 	0.06973 0.35567 0.76037 -0.10200
H 	H 	0.06893 0.41037 0.75827 0.04900
H 	H 	0.01693 0.31287 0.78187 0.04100
H 	H 	0.12123 0.32297 0.82897 0.04900
H 	H 	0.17723 0.35107 0.76837 0.09600
Fe	Fe	-0.00000 0.00000 0.27688 1.10500
Fe	Fe	0.66667 0.33333 0.61021 1.12900
Fe	Fe	0.33333 0.66667 0.94355 1.12300
Fe	Fe	0.33333 0.66667 0.44315 1.12700
Fe	Fe	0.00000 -0.00000 0.77648 1.10200
Fe	Fe	0.66667 0.33333 0.10982 1.12800
