data_crystal

_cell_length_a 18.03520
_cell_length_b 25.86760
_cell_length_c 18.05840
_cell_angle_alpha 90.00000
_cell_angle_beta  118.86100
_cell_angle_gamma 90.00000

_symmetry_space_group_name_	'P 1'
_symmetry_space_group_name_H-M	'P 1'

loop_
_symmetry_equiv_pos_as_xyz
  x,y,z

loop_
_atom_site_label
_atom_site_type_symbol
_atom_site_fract_x
_atom_site_fract_y
_atom_site_fract_z
_atom_site_charge
Mn	Mn	0.92690 0.08314 0.80158 1.29100
Mn	Mn	0.89337 0.00004 0.10682 1.31300
Mn	Mn	0.80174 0.08320 0.92708 1.29200
S 	S 	0.53421 0.90386 0.53407 0.26900
S 	S 	0.43971 0.82377 0.77180 0.26700
S 	S 	0.77240 0.82386 0.44001 0.28100
O 	O 	0.91579 0.04786 0.02127 -0.58800
O 	O 	0.02073 0.04811 0.91508 -0.58500
O 	O 	0.89050 0.96758 0.89010 -0.41500
O 	O 	0.62930 0.65311 0.55920 -0.47100
O 	O 	0.23030 0.88629 0.98130 -0.44500
O 	O 	0.72040 0.01703 0.90460 -0.47100
O 	O 	0.83730 0.04624 0.83710 -0.57700
O 	O 	0.55910 0.65322 0.62900 -0.46800
O 	O 	0.98190 0.88561 0.23110 -0.43400
O 	O 	0.90500 0.01695 0.72110 -0.48800
O 	O 	0.19200 0.94820 0.88770 -0.46100
O 	O 	0.88720 0.94830 0.19180 -0.45400
O 	O 	0.79310 0.95812 0.00420 -0.45000
O 	O 	0.00350 0.95819 0.79250 -0.47000
O 	O 	0.54040 0.91909 0.46060 -0.21100
O 	O 	0.46100 0.91918 0.54000 -0.21200
O 	O 	0.39610 0.83130 0.68120 -0.21300
O 	O 	0.47020 0.77321 0.80500 -0.21500
O 	O 	0.68420 0.82970 0.39770 -0.22000
O 	O 	0.80510 0.77263 0.46980 -0.21600
C 	C 	0.83570 0.99622 0.83550 0.35500
C 	C 	0.76110 0.97305 0.76130 -0.08300
C 	C 	0.69990 0.00270 0.69990 -0.02400
H 	H 	0.70530 0.03850 0.70510 0.02900
C 	C 	0.63040 0.98249 0.63050 -0.02100
H 	H 	0.58960 0.00380 0.58970 0.06100
C 	C 	0.62380 0.92861 0.62390 -0.01300
C 	C 	0.68560 0.89773 0.68520 -0.06000
H 	H 	0.68130 0.86190 0.68040 0.06200
C 	C 	0.75230 0.91975 0.75210 0.01100
H 	H 	0.79330 0.89860 0.79300 0.05200
C 	C 	0.54520 0.83693 0.54520 0.02400
C 	C 	0.51370 0.81048 0.59040 -0.11000
H 	H 	0.48430 0.82820 0.61290 0.10000
C 	C 	0.52570 0.75839 0.60240 0.06700
H 	H 	0.50260 0.74080 0.63130 0.03600
C 	C 	0.57190 0.73137 0.57200 -0.15200
C 	C 	0.60300 0.75818 0.52620 0.06300
H 	H 	0.63270 0.74050 0.50390 0.03800
C 	C 	0.59030 0.81079 0.51330 -0.10800
H 	H 	0.61220 0.82850 0.48330 0.09900
C 	C 	0.58780 0.67495 0.58750 0.44800
C 	C 	0.73170 0.97360 0.93890 0.43200
C 	C 	0.65760 0.93700 0.89570 -0.10600
C 	C 	0.59240 0.94560 0.81410 0.03200
H 	H 	0.59290 0.97560 0.78600 0.04300
C 	C 	0.52570 0.91030 0.77300 -0.07800
H 	H 	0.48340 0.91670 0.71790 0.08100
C 	C 	0.52300 0.86700 0.81390 0.00300
C 	C 	0.58650 0.85700 0.89440 -0.06900
H 	H 	0.58370 0.82700 0.92130 0.07300
C 	C 	0.65760 0.89150 0.93880 0.02200
H 	H 	0.70100 0.88410 0.99290 0.05000
C 	C 	0.37580 0.84570 0.81370 0.01600
C 	C 	0.32100 0.88460 0.77410 -0.08800
H 	H 	0.31500 0.89740 0.72330 0.07800
C 	C 	0.27360 0.90570 0.80830 0.04300
H 	H 	0.23860 0.93400 0.78300 0.03600
C 	C 	0.27940 0.88370 0.88130 -0.12400
C 	C 	0.33090 0.84380 0.91840 0.04700
H 	H 	0.33380 0.82900 0.96670 0.04700
C 	C 	0.38100 0.82400 0.88460 -0.08200
H 	H 	0.41730 0.79630 0.91050 0.07800
C 	C 	0.22960 0.90790 0.92020 0.43700
C 	C 	0.91960 0.90780 0.22880 0.42000
C 	C 	0.88190 0.88350 0.27970 -0.11400
C 	C 	0.81040 0.90450 0.27350 0.03600
H 	H 	0.78570 0.93280 0.23820 0.04000
C 	C 	0.77330 0.88410 0.31990 -0.08000
H 	H 	0.72210 0.89710 0.31260 0.07500
C 	C 	0.81270 0.84570 0.37470 0.00900
C 	C 	0.88450 0.82420 0.38230 -0.07300
H 	H 	0.91110 0.79740 0.42040 0.07400
C 	C 	0.91930 0.84340 0.33080 0.03600
H 	H 	0.96700 0.82810 0.33310 0.05200
C 	C 	0.81410 0.86730 0.52300 0.00100
C 	C 	0.77410 0.91030 0.52650 -0.08100
H 	H 	0.71900 0.91690 0.48450 0.08200
C 	C 	0.81600 0.94510 0.59410 0.04000
H 	H 	0.78790 0.97510 0.59510 0.04100
C 	C 	0.89650 0.93670 0.65870 -0.11600
C 	C 	0.94010 0.89200 0.65780 0.02800
H 	H 	0.99470 0.88490 0.70060 0.04900
C 	C 	0.89500 0.85730 0.58600 -0.07000
H 	H 	0.92180 0.82730 0.58290 0.07300
C 	C 	0.94010 0.97430 0.73210 0.46500
Mn	Mn	0.57310 0.58314 0.69842 1.29000
Mn	Mn	0.60663 0.50004 0.39318 1.32000
Mn	Mn	0.69826 0.58320 0.57292 1.29000
S 	S 	0.96579 0.40386 0.96593 0.29000
S 	S 	0.06029 0.32377 0.72820 0.25700
S 	S 	0.72760 0.32386 0.05999 0.27000
O 	O 	0.58421 0.54786 0.47873 -0.58500
O 	O 	0.47927 0.54811 0.58492 -0.58500
O 	O 	0.60950 0.46758 0.60990 -0.42900
O 	O 	0.87070 0.15311 0.94080 -0.46300
O 	O 	0.26970 0.38629 0.51870 -0.45700
O 	O 	0.77960 0.51703 0.59540 -0.45900
O 	O 	0.66270 0.54624 0.66290 -0.57600
O 	O 	0.94090 0.15322 0.87100 -0.46100
O 	O 	0.51810 0.38561 0.26890 -0.44900
O 	O 	0.59500 0.51695 0.77890 -0.47100
O 	O 	0.30800 0.44820 0.61230 -0.46700
O 	O 	0.61280 0.44830 0.30820 -0.46400
O 	O 	0.70690 0.45812 0.49580 -0.44000
O 	O 	0.49650 0.45819 0.70750 -0.45000
O 	O 	0.95960 0.41909 0.03940 -0.21700
O 	O 	0.03900 0.41918 0.96000 -0.21700
O 	O 	0.10390 0.33130 0.81880 -0.20900
O 	O 	0.02980 0.27321 0.69500 -0.21800
O 	O 	0.81580 0.32970 0.10230 -0.21700
O 	O 	0.69490 0.27263 0.03020 -0.22000
C 	C 	0.66430 0.49622 0.66450 0.36100
C 	C 	0.73890 0.47305 0.73870 -0.13600
C 	C 	0.80010 0.50270 0.80010 0.06100
H 	H 	0.79470 0.53850 0.79490 0.00400
C 	C 	0.86960 0.48249 0.86950 -0.10400
H 	H 	0.91040 0.50380 0.91030 0.10300
C 	C 	0.87620 0.42861 0.87610 0.02200
C 	C 	0.81440 0.39773 0.81480 -0.09900
H 	H 	0.81870 0.36190 0.81960 0.07400
C 	C 	0.74770 0.41975 0.74790 0.05400
H 	H 	0.70670 0.39860 0.70700 0.03500
C 	C 	0.95480 0.33693 0.95480 -0.00800
C 	C 	0.98630 0.31048 0.90960 -0.05900
H 	H 	0.01570 0.32820 0.88710 0.07600
C 	C 	0.97430 0.25839 0.89760 0.03000
H 	H 	0.99740 0.24080 0.86870 0.05300
C 	C 	0.92810 0.23137 0.92800 -0.12200
C 	C 	0.89700 0.25818 0.97380 0.02700
H 	H 	0.86730 0.24050 0.99610 0.05500
C 	C 	0.90970 0.31079 0.98670 -0.05400
H 	H 	0.88780 0.32850 0.01670 0.07400
C 	C 	0.91220 0.17495 0.91250 0.43700
C 	C 	0.76830 0.47360 0.56110 0.40400
C 	C 	0.84240 0.43700 0.60430 -0.09500
C 	C 	0.90760 0.44560 0.68590 0.01400
H 	H 	0.90710 0.47560 0.71400 0.04700
C 	C 	0.97430 0.41030 0.72700 -0.05000
H 	H 	0.01660 0.41670 0.78210 0.06300
C 	C 	0.97700 0.36700 0.68610 0.00300
C 	C 	0.91350 0.35700 0.60560 -0.06500
H 	H 	0.91630 0.32700 0.57870 0.07300
C 	C 	0.84240 0.39150 0.56120 0.01300
H 	H 	0.79900 0.38410 0.50710 0.04900
C 	C 	0.12420 0.34570 0.68630 0.01900
C 	C 	0.17900 0.38460 0.72590 -0.09300
H 	H 	0.18500 0.39740 0.77670 0.08000
C 	C 	0.22640 0.40570 0.69170 0.04700
H 	H 	0.26140 0.43400 0.71700 0.03400
C 	C 	0.22060 0.38370 0.61870 -0.13100
C 	C 	0.16910 0.34380 0.58160 0.05100
H 	H 	0.16620 0.32900 0.53330 0.04000
C 	C 	0.11900 0.32400 0.61540 -0.08800
H 	H 	0.08270 0.29630 0.58950 0.07600
C 	C 	0.27040 0.40790 0.57980 0.43900
C 	C 	0.58040 0.40780 0.27120 0.42400
C 	C 	0.61810 0.38350 0.22030 -0.12200
C 	C 	0.68960 0.40450 0.22650 0.04200
H 	H 	0.71430 0.43280 0.26180 0.03700
C 	C 	0.72670 0.38410 0.18010 -0.08800
H 	H 	0.77790 0.39710 0.18740 0.07800
C 	C 	0.68730 0.34570 0.12530 0.01200
C 	C 	0.61550 0.32420 0.11770 -0.08000
H 	H 	0.58890 0.29740 0.07960 0.07200
C 	C 	0.58070 0.34340 0.16920 0.04000
H 	H 	0.53300 0.32810 0.16690 0.04400
C 	C 	0.68590 0.36730 0.97700 0.00100
C 	C 	0.72590 0.41030 0.97350 -0.04900
H 	H 	0.78100 0.41690 0.01550 0.06200
C 	C 	0.68400 0.44510 0.90590 0.01700
H 	H 	0.71210 0.47510 0.90490 0.04600
C 	C 	0.60350 0.43670 0.84130 -0.10000
C 	C 	0.55990 0.39200 0.84220 0.01600
H 	H 	0.50530 0.38490 0.79940 0.04800
C 	C 	0.60500 0.35730 0.91400 -0.06500
H 	H 	0.57820 0.32730 0.91710 0.07300
C 	C 	0.55990 0.47430 0.76790 0.42700
Mn	Mn	0.07310 0.91686 0.19842 1.28300
Mn	Mn	0.10663 0.99996 0.89318 1.32400
Mn	Mn	0.19826 0.91680 0.07292 1.28400
S 	S 	0.46579 0.09614 0.46593 0.23400
S 	S 	0.56029 0.17623 0.22820 0.26800
S 	S 	0.22760 0.17614 0.55999 0.28200
O 	O 	0.08421 0.95214 0.97873 -0.57100
O 	O 	0.97927 0.95189 0.08492 -0.56500
O 	O 	0.10950 0.03242 0.10990 -0.44700
O 	O 	0.37070 0.34689 0.44080 -0.47300
O 	O 	0.76970 0.11371 0.01870 -0.46300
O 	O 	0.27960 0.98297 0.09540 -0.44200
O 	O 	0.16270 0.95376 0.16290 -0.57600
O 	O 	0.44090 0.34678 0.37100 -0.47000
O 	O 	0.01810 0.11439 0.76890 -0.45300
O 	O 	0.09500 0.98305 0.27890 -0.45600
O 	O 	0.80800 0.05180 0.11230 -0.47200
O 	O 	0.11280 0.05170 0.80820 -0.46800
O 	O 	0.20690 0.04188 0.99580 -0.41000
O 	O 	0.99650 0.04181 0.20750 -0.42500
O 	O 	0.45960 0.08091 0.53940 -0.20700
O 	O 	0.53900 0.08082 0.46000 -0.20800
O 	O 	0.60390 0.16870 0.31880 -0.21200
O 	O 	0.52980 0.22679 0.19500 -0.21800
O 	O 	0.31580 0.17030 0.60230 -0.22000
O 	O 	0.19490 0.22737 0.53020 -0.21800
C 	C 	0.16430 0.00378 0.16450 0.37100
C 	C 	0.23890 0.02695 0.23870 -0.20500
C 	C 	0.30010 0.99730 0.30010 0.16700
H 	H 	0.29470 0.96150 0.29490 -0.03300
C 	C 	0.36960 0.01751 0.36950 -0.21300
H 	H 	0.41040 0.99620 0.41030 0.14500
C 	C 	0.37620 0.07139 0.37610 0.07900
C 	C 	0.31440 0.10227 0.31480 -0.16100
H 	H 	0.31870 0.13810 0.31960 0.09400
C 	C 	0.24770 0.08025 0.24790 0.11500
H 	H 	0.20670 0.10140 0.20700 0.01000
C 	C 	0.45480 0.16307 0.45480 0.03700
C 	C 	0.48630 0.18952 0.40960 -0.12100
H 	H 	0.51570 0.17180 0.38710 0.10300
C 	C 	0.47430 0.24161 0.39760 0.07400
H 	H 	0.49740 0.25920 0.36870 0.03300
C 	C 	0.42810 0.26863 0.42800 -0.15900
C 	C 	0.39700 0.24182 0.47380 0.07000
H 	H 	0.36730 0.25950 0.49610 0.03500
C 	C 	0.40970 0.18921 0.48670 -0.11800
H 	H 	0.38780 0.17150 0.51670 0.10300
C 	C 	0.41220 0.32505 0.41250 0.44900
C 	C 	0.26830 0.02640 0.06110 0.35400
C 	C 	0.34240 0.06300 0.10430 -0.08900
C 	C 	0.40760 0.05440 0.18590 0.01500
H 	H 	0.40710 0.02440 0.21400 0.04000
C 	C 	0.47430 0.08970 0.22700 -0.07100
H 	H 	0.51660 0.08330 0.28210 0.07500
C 	C 	0.47700 0.13300 0.18610 -0.00600
C 	C 	0.41350 0.14300 0.10560 -0.06400
H 	H 	0.41630 0.17300 0.07870 0.06400
C 	C 	0.34240 0.10850 0.06120 0.00300
H 	H 	0.29900 0.11590 0.00710 0.04200
C 	C 	0.62420 0.15430 0.18630 0.01700
C 	C 	0.67900 0.11540 0.22590 -0.09200
H 	H 	0.68500 0.10260 0.27670 0.07800
C 	C 	0.72640 0.09430 0.19170 0.04600
H 	H 	0.76140 0.06600 0.21700 0.03200
C 	C 	0.72060 0.11630 0.11870 -0.13200
C 	C 	0.66910 0.15620 0.08160 0.05100
H 	H 	0.66620 0.17100 0.03330 0.03800
C 	C 	0.61900 0.17600 0.11540 -0.08700
H 	H 	0.58270 0.20370 0.08950 0.07600
C 	C 	0.77040 0.09210 0.07980 0.44100
C 	C 	0.08040 0.09220 0.77120 0.42600
C 	C 	0.11810 0.11650 0.72030 -0.12300
C 	C 	0.18960 0.09550 0.72650 0.04100
H 	H 	0.21430 0.06720 0.76180 0.03600
C 	C 	0.22670 0.11590 0.68010 -0.08500
H 	H 	0.27790 0.10290 0.68740 0.07600
C 	C 	0.18730 0.15430 0.62530 0.01000
C 	C 	0.11550 0.17580 0.61770 -0.07800
H 	H 	0.08890 0.20260 0.57960 0.07200
C 	C 	0.08070 0.15660 0.66920 0.04000
H 	H 	0.03300 0.17190 0.66690 0.04300
C 	C 	0.18590 0.13270 0.47700 -0.00800
C 	C 	0.22590 0.08970 0.47350 -0.07200
H 	H 	0.28100 0.08310 0.51550 0.07600
C 	C 	0.18400 0.05490 0.40590 0.02000
H 	H 	0.21210 0.02490 0.40490 0.03900
C 	C 	0.10350 0.06330 0.34130 -0.09700
C 	C 	0.05990 0.10800 0.34220 0.00800
H 	H 	0.00530 0.11510 0.29940 0.04100
C 	C 	0.10500 0.14270 0.41400 -0.06400
H 	H 	0.07820 0.17270 0.41710 0.06400
C 	C 	0.05990 0.02570 0.26790 0.38200
Mn	Mn	0.42690 0.41686 0.30158 1.28900
Mn	Mn	0.39337 0.49996 0.60682 1.32000
Mn	Mn	0.30174 0.41680 0.42708 1.28900
S 	S 	0.03421 0.59614 0.03407 0.15000
S 	S 	0.93971 0.67623 0.27180 0.28000
S 	S 	0.27240 0.67614 0.94001 0.29400
O 	O 	0.41579 0.45214 0.52127 -0.58500
O 	O 	0.52073 0.45189 0.41508 -0.58500
O 	O 	0.39050 0.53242 0.39010 -0.43100
O 	O 	0.12930 0.84689 0.05920 -0.48800
O 	O 	0.73030 0.61371 0.48130 -0.45500
O 	O 	0.22040 0.48297 0.40460 -0.46400
O 	O 	0.33730 0.45376 0.33710 -0.57900
O 	O 	0.05910 0.84678 0.12900 -0.48600
O 	O 	0.48190 0.61439 0.73110 -0.44600
O 	O 	0.40500 0.48305 0.22110 -0.47600
O 	O 	0.69200 0.55180 0.38770 -0.46600
O 	O 	0.38720 0.55170 0.69180 -0.46300
O 	O 	0.29310 0.54188 0.50420 -0.44200
O 	O 	0.50350 0.54181 0.29250 -0.45300
O 	O 	0.04040 0.58091 0.96060 -0.17700
O 	O 	0.96100 0.58082 0.04000 -0.17600
O 	O 	0.89610 0.66870 0.18120 -0.21500
O 	O 	0.97020 0.72679 0.30500 -0.21100
O 	O 	0.18420 0.67030 0.89770 -0.22300
O 	O 	0.30510 0.72737 0.96980 -0.21300
C 	C 	0.33570 0.50378 0.33550 0.36800
C 	C 	0.26110 0.52695 0.26130 -0.15300
C 	C 	0.19990 0.49730 0.19990 0.08100
H 	H 	0.20530 0.46150 0.20510 -0.00800
C 	C 	0.13040 0.51751 0.13050 -0.13500
H 	H 	0.08960 0.49620 0.08970 0.09900
C 	C 	0.12380 0.57139 0.12390 0.05600
C 	C 	0.18560 0.60227 0.18520 -0.13200
H 	H 	0.18130 0.63810 0.18040 0.08500
C 	C 	0.25230 0.58025 0.25210 0.07700
H 	H 	0.29330 0.60140 0.29300 0.02700
C 	C 	0.04520 0.66307 0.04520 0.12400
C 	C 	0.01370 0.68952 0.09040 -0.25500
H 	H 	0.98430 0.67180 0.11290 0.16600
C 	C 	0.02570 0.74161 0.10240 0.16800
H 	H 	0.00260 0.75920 0.13130 -0.00800
C 	C 	0.07190 0.76863 0.07200 -0.23100
C 	C 	0.10300 0.74182 0.02620 0.15900
H 	H 	0.13270 0.75950 0.00390 -0.00400
C 	C 	0.09030 0.68921 0.01330 -0.24600
H 	H 	0.11220 0.67150 0.98330 0.16200
C 	C 	0.08780 0.82505 0.08750 0.47600
C 	C 	0.23170 0.52640 0.43890 0.41100
C 	C 	0.15760 0.56300 0.39570 -0.11500
C 	C 	0.09240 0.55440 0.31410 0.05400
H 	H 	0.09290 0.52440 0.28600 0.02600
C 	C 	0.02570 0.58970 0.27300 -0.13000
H 	H 	0.98340 0.58330 0.21790 0.11000
C 	C 	0.02300 0.63300 0.31390 0.00000
C 	C 	0.08650 0.64300 0.39440 -0.07500
H 	H 	0.08370 0.67300 0.42130 0.06600
C 	C 	0.15760 0.60850 0.43880 0.02300
H 	H 	0.20100 0.61590 0.49290 0.04300
C 	C 	0.87580 0.65430 0.31370 0.01500
C 	C 	0.82100 0.61540 0.27410 -0.08700
H 	H 	0.81500 0.60260 0.22330 0.07700
C 	C 	0.77360 0.59430 0.30830 0.04300
H 	H 	0.73860 0.56600 0.28300 0.03400
C 	C 	0.77940 0.61630 0.38130 -0.12700
C 	C 	0.83090 0.65620 0.41840 0.04900
H 	H 	0.83380 0.67100 0.46670 0.04400
C 	C 	0.88100 0.67600 0.38460 -0.08200
H 	H 	0.91730 0.70370 0.41050 0.07900
C 	C 	0.72960 0.59210 0.42020 0.43900
C 	C 	0.41960 0.59220 0.72880 0.42300
C 	C 	0.38190 0.61650 0.77970 -0.11800
C 	C 	0.31040 0.59550 0.77350 0.03800
H 	H 	0.28570 0.56720 0.73820 0.03700
C 	C 	0.27330 0.61590 0.81990 -0.08100
H 	H 	0.22210 0.60290 0.81260 0.07400
C 	C 	0.31270 0.65430 0.87470 0.00800
C 	C 	0.38450 0.67580 0.88230 -0.07300
H 	H 	0.41110 0.70260 0.92040 0.07500
C 	C 	0.41930 0.65660 0.83080 0.03800
H 	H 	0.46700 0.67190 0.83310 0.04800
C 	C 	0.31410 0.63270 0.02300 -0.00100
C 	C 	0.27410 0.58970 0.02650 -0.13100
H 	H 	0.21900 0.58310 0.98450 0.11000
C 	C 	0.31600 0.55490 0.09410 0.05900
H 	H 	0.28790 0.52490 0.09510 0.02500
C 	C 	0.39650 0.56330 0.15870 -0.12200
C 	C 	0.44010 0.60800 0.15780 0.02700
H 	H 	0.49470 0.61510 0.20060 0.04200
C 	C 	0.39500 0.64270 0.08600 -0.07600
H 	H 	0.42180 0.67270 0.08290 0.06600
C 	C 	0.44010 0.52570 0.23210 0.43400
Mn	Mn	-0.00000 0.00000 -0.00000 1.28400
Mn	Mn	0.50000 0.50000 0.50000 1.30600
