data_crystal

_cell_length_a 17.37140
_cell_length_b 19.31010
_cell_length_c 18.19030
_cell_angle_alpha 99.34600
_cell_angle_beta  90.00000
_cell_angle_gamma 90.00000

_symmetry_space_group_name_	'P 1'
_symmetry_space_group_name_H-M	'P 1'

loop_
_symmetry_equiv_pos_as_xyz
  x,y,z

loop_
_atom_site_label
_atom_site_type_symbol
_atom_site_fract_x
_atom_site_fract_y
_atom_site_fract_z
_atom_site_charge
Ag	Ag	0.86448 0.74271 0.74470 0.45900
Ag	Ag	0.97894 0.61062 0.65912 0.48500
Ag	Ag	0.92820 0.23864 0.24021 0.45300
Ag	Ag	0.05295 0.10674 0.15644 0.48300
Ag	Ag	0.36448 0.25729 0.75530 0.45900
Ag	Ag	0.47894 0.38938 0.84088 0.48600
Ag	Ag	0.42820 0.76136 0.25979 0.45300
Ag	Ag	0.55295 0.89326 0.34356 0.48400
Ag	Ag	0.13552 0.25729 0.25530 0.45900
Ag	Ag	0.02106 0.38938 0.34088 0.48500
Ag	Ag	0.07180 0.76136 0.75979 0.45200
Ag	Ag	0.94705 0.89326 0.84356 0.48200
Ag	Ag	0.63552 0.74271 0.24470 0.45800
Ag	Ag	0.52106 0.61062 0.15912 0.48500
Ag	Ag	0.57180 0.23864 0.74021 0.45200
Ag	Ag	0.44705 0.10674 0.65644 0.48300
H 	H 	0.81420 0.68240 0.88720 -0.02400
H 	H 	0.83500 0.58950 0.95110 0.06200
H 	H 	0.98070 0.51590 0.78850 0.01500
H 	H 	0.09200 0.16670 0.01090 -0.00900
H 	H 	0.05970 0.25600 0.94470 0.05000
H 	H 	0.92060 0.33120 0.11160 0.00400
H 	H 	0.03490 0.46370 0.87060 0.03400
H 	H 	0.06410 0.36730 0.92730 0.04300
H 	H 	0.85880 0.38560 0.02890 0.04900
H 	H 	0.82980 0.47810 0.97190 0.03700
H 	H 	0.04230 0.33700 0.49160 -0.00500
H 	H 	0.02240 0.24390 0.55340 0.05500
H 	H 	0.91950 0.14590 0.36880 0.00400
H 	H 	0.81760 0.79600 0.59780 -0.02100
H 	H 	0.83620 0.88940 0.53270 0.05700
H 	H 	0.94940 0.98400 0.71230 0.01200
H 	H 	0.03950 0.13370 0.57550 0.03900
H 	H 	0.01370 0.03730 0.63290 0.03500
H 	H 	0.82230 0.99590 0.50600 0.03800
H 	H 	0.85210 0.09160 0.44650 0.04800
H 	H 	0.95430 0.45650 0.68070 -0.01300
H 	H 	0.87380 0.36690 0.64470 0.06000
H 	H 	0.84530 0.42750 0.45060 0.02200
H 	H 	0.66440 0.00730 0.30030 -0.00300
H 	H 	0.71810 0.10990 0.33960 0.04800
H 	H 	0.62960 0.11230 0.54240 0.01700
H 	H 	0.81330 0.31910 0.40860 0.02400
H 	H 	0.74750 0.21570 0.36840 0.03000
H 	H 	0.70770 0.19640 0.58050 0.02700
H 	H 	0.77670 0.29650 0.62140 0.03200
H 	H 	0.31420 0.31760 0.61280 -0.02400
H 	H 	0.33500 0.41050 0.54890 0.06200
H 	H 	0.48070 0.48410 0.71150 0.01500
H 	H 	0.59200 0.83330 0.48910 -0.00900
H 	H 	0.55970 0.74400 0.55530 0.05100
H 	H 	0.42060 0.66880 0.38840 0.00400
H 	H 	0.53490 0.53630 0.62940 0.03500
H 	H 	0.56410 0.63270 0.57270 0.04200
H 	H 	0.35880 0.61440 0.47110 0.04900
H 	H 	0.32980 0.52190 0.52810 0.03700
H 	H 	0.54230 0.66300 0.00840 -0.00600
H 	H 	0.52240 0.75610 0.94660 0.05500
H 	H 	0.41950 0.85410 0.13120 0.00400
H 	H 	0.31760 0.20400 0.90220 -0.02200
H 	H 	0.33620 0.11060 0.96730 0.05700
H 	H 	0.44940 0.01600 0.78770 0.01300
H 	H 	0.53950 0.86630 0.92450 0.04000
H 	H 	0.51370 0.96270 0.86710 0.03800
H 	H 	0.32230 0.00410 0.99400 0.04000
H 	H 	0.35210 0.90840 0.05350 0.04600
H 	H 	0.45430 0.54350 0.81930 -0.01300
H 	H 	0.37380 0.63310 0.85530 0.06000
H 	H 	0.34530 0.57250 0.04940 0.02200
H 	H 	0.16440 0.99270 0.19970 -0.00200
H 	H 	0.21810 0.89010 0.16040 0.04800
H 	H 	0.12960 0.88770 0.95760 0.01600
H 	H 	0.31330 0.68090 0.09140 0.02300
H 	H 	0.24750 0.78430 0.13160 0.03100
H 	H 	0.20770 0.80360 0.91950 0.02800
H 	H 	0.27670 0.70350 0.87860 0.03100
H 	H 	0.18580 0.31760 0.11280 -0.02400
H 	H 	0.16500 0.41050 0.04890 0.06200
H 	H 	0.01930 0.48410 0.21150 0.01500
H 	H 	0.90800 0.83330 0.98910 -0.00900
H 	H 	0.94030 0.74400 0.05530 0.05000
H 	H 	0.07940 0.66880 0.88840 0.00400
H 	H 	0.96510 0.53630 0.12940 0.03400
H 	H 	0.93590 0.63270 0.07270 0.04300
H 	H 	0.14120 0.61440 0.97110 0.04900
H 	H 	0.17020 0.52190 0.02810 0.03700
H 	H 	0.95770 0.66300 0.50840 -0.00500
H 	H 	0.97760 0.75610 0.44660 0.05500
H 	H 	0.08050 0.85410 0.63120 0.00400
H 	H 	0.18240 0.20400 0.40220 -0.02100
H 	H 	0.16380 0.11060 0.46730 0.05700
H 	H 	0.05060 0.01600 0.28770 0.01200
H 	H 	0.96050 0.86630 0.42450 0.03900
H 	H 	0.98630 0.96270 0.36710 0.03500
H 	H 	0.17770 0.00410 0.49400 0.03800
H 	H 	0.14790 0.90840 0.55350 0.04800
H 	H 	0.04570 0.54350 0.31930 -0.01300
H 	H 	0.12620 0.63310 0.35530 0.06000
H 	H 	0.15470 0.57250 0.54940 0.02200
H 	H 	0.33560 0.99270 0.69970 -0.00300
H 	H 	0.28190 0.89010 0.66040 0.04800
H 	H 	0.37040 0.88770 0.45760 0.01700
H 	H 	0.18670 0.68090 0.59140 0.02400
H 	H 	0.25250 0.78430 0.63160 0.03000
H 	H 	0.29230 0.80360 0.41950 0.02700
H 	H 	0.22330 0.70350 0.37860 0.03200
H 	H 	0.68580 0.68240 0.38720 -0.02400
H 	H 	0.66500 0.58950 0.45110 0.06200
H 	H 	0.51930 0.51590 0.28850 0.01500
H 	H 	0.40800 0.16670 0.51090 -0.00900
H 	H 	0.44030 0.25600 0.44470 0.05100
H 	H 	0.57940 0.33120 0.61160 0.00400
H 	H 	0.46510 0.46370 0.37060 0.03500
H 	H 	0.43590 0.36730 0.42730 0.04200
H 	H 	0.64120 0.38560 0.52890 0.04900
H 	H 	0.67020 0.47810 0.47190 0.03700
H 	H 	0.45770 0.33700 0.99160 -0.00600
H 	H 	0.47760 0.24390 0.05340 0.05500
H 	H 	0.58050 0.14590 0.86880 0.00400
H 	H 	0.68240 0.79600 0.09780 -0.02200
H 	H 	0.66380 0.88940 0.03270 0.05700
H 	H 	0.55060 0.98400 0.21230 0.01300
H 	H 	0.46050 0.13370 0.07550 0.04000
H 	H 	0.48630 0.03730 0.13290 0.03800
H 	H 	0.67770 0.99590 0.00600 0.04000
H 	H 	0.64790 0.09160 0.94650 0.04600
H 	H 	0.54570 0.45650 0.18070 -0.01300
H 	H 	0.62620 0.36690 0.14470 0.06000
H 	H 	0.65470 0.42750 0.95060 0.02200
H 	H 	0.83560 0.00730 0.80030 -0.00200
H 	H 	0.78190 0.10990 0.83960 0.04800
H 	H 	0.87040 0.11230 0.04240 0.01600
H 	H 	0.68670 0.31910 0.90860 0.02300
H 	H 	0.75250 0.21570 0.86840 0.03100
H 	H 	0.79230 0.19640 0.08050 0.02800
H 	H 	0.72330 0.29650 0.12140 0.03100
C 	C 	0.84950 0.64750 0.86710 0.07300
C 	C 	0.86080 0.59140 0.90610 -0.12100
C 	C 	0.91010 0.54000 0.87660 0.03000
C 	C 	0.94530 0.54980 0.81050 -0.02000
C 	C 	0.05540 0.20050 0.03070 0.03800
C 	C 	0.03690 0.25450 0.99130 -0.09100
C 	C 	0.98550 0.30520 0.02060 0.00700
C 	C 	0.95510 0.29680 0.08880 0.00800
C 	C 	0.92770 0.47970 0.91230 -0.00400
C 	C 	0.99830 0.44710 0.90170 -0.03900
C 	C 	0.01620 0.38970 0.93640 -0.06700
C 	C 	0.96530 0.36580 0.98330 0.02400
C 	C 	0.89460 0.40070 0.99610 -0.06600
C 	C 	0.87750 0.45540 0.96190 -0.04000
C 	C 	0.01790 0.29660 0.46630 0.04700
C 	C 	0.00480 0.24190 0.50420 -0.09800
C 	C 	0.96540 0.18410 0.46900 0.01500
C 	C 	0.94470 0.18530 0.39530 0.00500
C 	C 	0.84640 0.83490 0.62040 0.06300
C 	C 	0.85650 0.89120 0.58090 -0.11000
C 	C 	0.89600 0.94780 0.61410 0.02000
C 	C 	0.92280 0.94500 0.68670 -0.01100
C 	C 	0.94860 0.12260 0.50700 0.01700
C 	C 	0.99570 0.10610 0.56160 -0.05600
C 	C 	0.97980 0.04930 0.59680 -0.04400
C 	C 	0.91260 0.00950 0.57820 0.00400
C 	C 	0.86560 0.02400 0.52070 -0.04700
C 	C 	0.88360 0.08110 0.48520 -0.06000
C 	C 	0.92570 0.45430 0.63650 0.06100
C 	C 	0.88120 0.39940 0.61210 -0.11100
C 	C 	0.84460 0.38530 0.54340 0.02300
C 	C 	0.86210 0.43400 0.50030 -0.02700
C 	C 	0.65490 0.03040 0.34900 0.04000
C 	C 	0.68760 0.08960 0.37310 -0.09600
C 	C 	0.68030 0.12590 0.44670 0.01200
C 	C 	0.63510 0.09270 0.49190 -0.00800
C 	C 	0.80120 0.31940 0.51850 0.00300
C 	C 	0.79220 0.29400 0.44400 -0.04400
C 	C 	0.75260 0.23220 0.41980 -0.05800
C 	C 	0.72020 0.19420 0.47120 0.01000
C 	C 	0.72980 0.22070 0.54500 -0.05000
C 	C 	0.77010 0.28110 0.57000 -0.05500
C 	C 	0.34950 0.35250 0.63290 0.07300
C 	C 	0.36080 0.40860 0.59390 -0.12000
C 	C 	0.41010 0.46000 0.62340 0.02900
C 	C 	0.44530 0.45020 0.68950 -0.01900
C 	C 	0.55540 0.79950 0.46930 0.03800
C 	C 	0.53690 0.74550 0.50870 -0.09000
C 	C 	0.48550 0.69480 0.47940 0.00700
C 	C 	0.45510 0.70320 0.41120 0.00800
C 	C 	0.42770 0.52030 0.58770 -0.00200
C 	C 	0.49830 0.55290 0.59830 -0.04200
C 	C 	0.51620 0.61030 0.56360 -0.06300
C 	C 	0.46530 0.63420 0.51670 0.02200
C 	C 	0.39460 0.59930 0.50390 -0.06400
C 	C 	0.37750 0.54460 0.53810 -0.04100
C 	C 	0.51790 0.70340 0.03370 0.04800
C 	C 	0.50480 0.75810 0.99580 -0.09900
C 	C 	0.46540 0.81590 0.03100 0.01500
C 	C 	0.44470 0.81470 0.10470 0.00500
C 	C 	0.34640 0.16510 0.87960 0.06300
C 	C 	0.35650 0.10880 0.91910 -0.11000
C 	C 	0.39600 0.05220 0.88590 0.02100
C 	C 	0.42280 0.05500 0.81330 -0.01100
C 	C 	0.44860 0.87740 0.99300 0.01500
C 	C 	0.49570 0.89390 0.93840 -0.05600
C 	C 	0.47980 0.95070 0.90320 -0.04900
C 	C 	0.41260 0.99050 0.92180 0.00500
C 	C 	0.36560 0.97600 0.97930 -0.05200
C 	C 	0.38360 0.91890 0.01480 -0.05700
C 	C 	0.42570 0.54570 0.86350 0.06100
C 	C 	0.38120 0.60060 0.88790 -0.11200
C 	C 	0.34460 0.61470 0.95660 0.02400
C 	C 	0.36210 0.56600 0.99970 -0.02800
C 	C 	0.15490 0.96960 0.15100 0.03900
C 	C 	0.18760 0.91040 0.12690 -0.09500
C 	C 	0.18030 0.87410 0.05330 0.01100
C 	C 	0.13510 0.90730 0.00810 -0.00700
C 	C 	0.30120 0.68060 0.98150 0.00100
C 	C 	0.29220 0.70600 0.05600 -0.04300
C 	C 	0.25260 0.76780 0.08020 -0.06000
C 	C 	0.22020 0.80580 0.02880 0.01200
C 	C 	0.22980 0.77930 0.95500 -0.05300
C 	C 	0.27010 0.71890 0.93000 -0.05400
C 	C 	0.15050 0.35250 0.13290 0.07300
C 	C 	0.13920 0.40860 0.09390 -0.12100
C 	C 	0.08990 0.46000 0.12340 0.03000
C 	C 	0.05470 0.45020 0.18950 -0.02000
C 	C 	0.94460 0.79950 0.96930 0.03800
C 	C 	0.96310 0.74550 0.00870 -0.09100
C 	C 	0.01450 0.69480 0.97940 0.00700
C 	C 	0.04490 0.70320 0.91120 0.00800
C 	C 	0.07230 0.52030 0.08770 -0.00400
C 	C 	0.00170 0.55290 0.09830 -0.03900
C 	C 	0.98380 0.61030 0.06360 -0.06700
C 	C 	0.03470 0.63420 0.01670 0.02400
C 	C 	0.10540 0.59930 0.00390 -0.06600
C 	C 	0.12250 0.54460 0.03810 -0.04000
C 	C 	0.98210 0.70340 0.53370 0.04700
C 	C 	0.99520 0.75810 0.49580 -0.09800
C 	C 	0.03460 0.81590 0.53100 0.01500
C 	C 	0.05530 0.81470 0.60470 0.00500
C 	C 	0.15360 0.16510 0.37960 0.06300
C 	C 	0.14350 0.10880 0.41910 -0.11000
C 	C 	0.10400 0.05220 0.38590 0.02000
C 	C 	0.07720 0.05500 0.31330 -0.01100
C 	C 	0.05140 0.87740 0.49300 0.01700
C 	C 	0.00430 0.89390 0.43840 -0.05600
C 	C 	0.02020 0.95070 0.40320 -0.04400
C 	C 	0.08740 0.99050 0.42180 0.00400
C 	C 	0.13440 0.97600 0.47930 -0.04700
C 	C 	0.11640 0.91890 0.51480 -0.06000
C 	C 	0.07430 0.54570 0.36350 0.06100
C 	C 	0.11880 0.60060 0.38790 -0.11100
C 	C 	0.15540 0.61470 0.45660 0.02300
C 	C 	0.13790 0.56600 0.49970 -0.02700
C 	C 	0.34510 0.96960 0.65100 0.04000
C 	C 	0.31240 0.91040 0.62690 -0.09600
C 	C 	0.31970 0.87410 0.55330 0.01200
C 	C 	0.36490 0.90730 0.50810 -0.00800
C 	C 	0.19880 0.68060 0.48150 0.00300
C 	C 	0.20780 0.70600 0.55600 -0.04400
C 	C 	0.24740 0.76780 0.58020 -0.05800
C 	C 	0.27980 0.80580 0.52880 0.01000
C 	C 	0.27020 0.77930 0.45500 -0.05000
C 	C 	0.22990 0.71890 0.43000 -0.05500
C 	C 	0.65050 0.64750 0.36710 0.07300
C 	C 	0.63920 0.59140 0.40610 -0.12000
C 	C 	0.58990 0.54000 0.37660 0.02900
C 	C 	0.55470 0.54980 0.31050 -0.01900
C 	C 	0.44460 0.20050 0.53070 0.03800
C 	C 	0.46310 0.25450 0.49130 -0.09000
C 	C 	0.51450 0.30520 0.52060 0.00700
C 	C 	0.54490 0.29680 0.58880 0.00800
C 	C 	0.57230 0.47970 0.41230 -0.00200
C 	C 	0.50170 0.44710 0.40170 -0.04200
C 	C 	0.48380 0.38970 0.43640 -0.06300
C 	C 	0.53470 0.36580 0.48330 0.02200
C 	C 	0.60540 0.40070 0.49610 -0.06400
C 	C 	0.62250 0.45540 0.46190 -0.04100
C 	C 	0.48210 0.29660 0.96630 0.04800
C 	C 	0.49520 0.24190 0.00420 -0.09900
C 	C 	0.53460 0.18410 0.96900 0.01500
C 	C 	0.55530 0.18530 0.89530 0.00500
C 	C 	0.65360 0.83490 0.12040 0.06300
C 	C 	0.64350 0.89120 0.08090 -0.11000
C 	C 	0.60400 0.94780 0.11410 0.02100
C 	C 	0.57720 0.94500 0.18670 -0.01100
C 	C 	0.55140 0.12260 0.00700 0.01500
C 	C 	0.50430 0.10610 0.06160 -0.05600
C 	C 	0.52020 0.04930 0.09680 -0.04900
C 	C 	0.58740 0.00950 0.07820 0.00500
C 	C 	0.63440 0.02400 0.02070 -0.05200
C 	C 	0.61640 0.08110 0.98520 -0.05700
C 	C 	0.57430 0.45430 0.13650 0.06100
C 	C 	0.61880 0.39940 0.11210 -0.11200
C 	C 	0.65540 0.38530 0.04340 0.02400
C 	C 	0.63790 0.43400 0.00030 -0.02800
C 	C 	0.84510 0.03040 0.84900 0.03900
C 	C 	0.81240 0.08960 0.87310 -0.09500
C 	C 	0.81970 0.12590 0.94670 0.01100
C 	C 	0.86490 0.09270 0.99190 -0.00700
C 	C 	0.69880 0.31940 0.01850 0.00100
C 	C 	0.70780 0.29400 0.94400 -0.04300
C 	C 	0.74740 0.23220 0.91980 -0.06000
C 	C 	0.77980 0.19420 0.97120 0.01200
C 	C 	0.77020 0.22070 0.04500 -0.05300
C 	C 	0.72990 0.28110 0.07000 -0.05400
N 	N 	0.88320 0.65510 0.80650 -0.17900
N 	N 	0.93100 0.60560 0.77640 -0.15300
N 	N 	0.02240 0.19570 0.09590 -0.17400
N 	N 	0.97090 0.24420 0.12430 -0.16400
N 	N 	0.99790 0.29550 0.39560 -0.17500
N 	N 	0.95880 0.23900 0.36070 -0.16400
N 	N 	0.87450 0.83390 0.68570 -0.17700
N 	N 	0.91220 0.88990 0.72050 -0.15700
N 	N 	0.92860 0.50450 0.59780 -0.15000
N 	N 	0.90520 0.49450 0.52880 -0.08900
N 	N 	0.60700 0.00160 0.39400 -0.14600
N 	N 	0.59730 0.03080 0.46460 -0.09500
N 	N 	0.38320 0.34490 0.69350 -0.17900
N 	N 	0.43100 0.39440 0.72360 -0.15300
N 	N 	0.52240 0.80430 0.40410 -0.17300
N 	N 	0.47090 0.75580 0.37570 -0.16500
N 	N 	0.49790 0.70450 0.10440 -0.17600
N 	N 	0.45880 0.76100 0.13930 -0.16400
N 	N 	0.37450 0.16610 0.81430 -0.17600
N 	N 	0.41220 0.11010 0.77950 -0.15600
N 	N 	0.42860 0.49550 0.90220 -0.15000
N 	N 	0.40520 0.50550 0.97120 -0.08900
N 	N 	0.10700 0.99840 0.10600 -0.14500
N 	N 	0.09730 0.96920 0.03540 -0.09500
N 	N 	0.11680 0.34490 0.19350 -0.17900
N 	N 	0.06900 0.39440 0.22360 -0.15300
N 	N 	0.97760 0.80430 0.90410 -0.17400
N 	N 	0.02910 0.75580 0.87570 -0.16400
N 	N 	0.00210 0.70450 0.60440 -0.17500
N 	N 	0.04120 0.76100 0.63930 -0.16400
N 	N 	0.12550 0.16610 0.31430 -0.17700
N 	N 	0.08780 0.11010 0.27950 -0.15700
N 	N 	0.07140 0.49550 0.40220 -0.15000
N 	N 	0.09480 0.50550 0.47120 -0.08900
N 	N 	0.39300 0.99840 0.60600 -0.14600
N 	N 	0.40270 0.96920 0.53540 -0.09500
N 	N 	0.61680 0.65510 0.30650 -0.17900
N 	N 	0.56900 0.60560 0.27640 -0.15300
N 	N 	0.47760 0.19570 0.59590 -0.17300
N 	N 	0.52910 0.24420 0.62430 -0.16500
N 	N 	0.50210 0.29550 0.89560 -0.17600
N 	N 	0.54120 0.23900 0.86070 -0.16400
N 	N 	0.62550 0.83390 0.18570 -0.17600
N 	N 	0.58780 0.88990 0.22050 -0.15600
N 	N 	0.57140 0.50450 0.09780 -0.15000
N 	N 	0.59480 0.49450 0.02880 -0.08900
N 	N 	0.89300 0.00160 0.89400 -0.14500
N 	N 	0.90270 0.03080 0.96460 -0.09500
