data_crystal

_cell_length_a 25.61250
_cell_length_b 25.61250
_cell_length_c 6.80360
_cell_angle_alpha 90.00000
_cell_angle_beta  90.00000
_cell_angle_gamma 120.00000

_symmetry_space_group_name_	'P 1'
_symmetry_space_group_name_H-M	'P 1'

loop_
_symmetry_equiv_pos_as_xyz
  x,y,z

loop_
_atom_site_label
_atom_site_type_symbol
_atom_site_fract_x
_atom_site_fract_y
_atom_site_fract_z
_atom_site_charge
Fe	Fe	0.38929 0.35113 0.15399 1.16700
O 	O 	0.32300 0.29715 0.35550 -0.53900
O 	O 	0.30090 0.22839 0.59400 -0.43500
O 	O 	0.35534 0.27280 0.99890 -0.51000
C 	C 	0.31640 0.24670 0.41510 0.37100
C 	C 	0.32600 0.20520 0.28810 -0.20100
C 	C 	0.34310 0.22020 0.09220 0.13800
C 	C 	0.34920 0.17950 0.95650 0.00800
Fe	Fe	0.05596 0.68446 0.48732 1.16900
O 	O 	0.98967 0.63048 0.68883 -0.53800
O 	O 	0.96757 0.56172 0.92733 -0.43300
O 	O 	0.02201 0.60613 0.33223 -0.51100
C 	C 	0.98307 0.58003 0.74843 0.37200
C 	C 	0.99267 0.53853 0.62143 -0.20300
C 	C 	0.00977 0.55353 0.42553 0.14200
C 	C 	0.01587 0.51283 0.28983 0.00400
Fe	Fe	0.72262 0.01780 0.82066 1.16900
O 	O 	0.65633 0.96382 0.02217 -0.53900
O 	O 	0.63423 0.89506 0.26067 -0.43500
O 	O 	0.68867 0.93947 0.66557 -0.51200
C 	C 	0.64973 0.91337 0.08177 0.37500
C 	C 	0.65933 0.87187 0.95477 -0.20900
C 	C 	0.67643 0.88687 0.75887 0.14400
C 	C 	0.68253 0.84617 0.62317 0.00200
Fe	Fe	0.64887 0.03816 0.15399 1.16700
O 	O 	0.70285 0.02585 0.35550 -0.53800
O 	O 	0.77161 0.07251 0.59400 -0.43300
O 	O 	0.72720 0.08254 0.99890 -0.50700
C 	C 	0.75330 0.06970 0.41510 0.37100
C 	C 	0.79480 0.12080 0.28810 -0.20000
C 	C 	0.77980 0.12290 0.09220 0.13500
C 	C 	0.82050 0.16970 0.95650 0.01100
Fe	Fe	0.31554 0.37149 0.48732 1.16900
O 	O 	0.36952 0.35918 0.68883 -0.53800
O 	O 	0.43828 0.40584 0.92733 -0.43400
O 	O 	0.39387 0.41587 0.33223 -0.51100
C 	C 	0.41997 0.40303 0.74843 0.37200
C 	C 	0.46147 0.45413 0.62143 -0.20300
C 	C 	0.44647 0.45623 0.42553 0.14200
C 	C 	0.48717 0.50303 0.28983 0.00300
Fe	Fe	0.98220 0.70483 0.82066 1.16900
O 	O 	0.03618 0.69252 0.02217 -0.53800
O 	O 	0.10494 0.73918 0.26067 -0.43500
O 	O 	0.06053 0.74921 0.66557 -0.51200
C 	C 	0.08663 0.73637 0.08177 0.37700
C 	C 	0.12813 0.78747 0.95477 -0.21200
C 	C 	0.11313 0.78957 0.75887 0.14500
C 	C 	0.15383 0.83637 0.62317 0.00100
Fe	Fe	0.96184 0.61071 0.15399 1.16800
O 	O 	0.97415 0.67700 0.35550 -0.53800
O 	O 	0.92749 0.69910 0.59400 -0.43400
O 	O 	0.91746 0.64466 0.99890 -0.50900
C 	C 	0.93030 0.68360 0.41510 0.37100
C 	C 	0.87920 0.67400 0.28810 -0.20100
C 	C 	0.87710 0.65690 0.09220 0.13700
C 	C 	0.83030 0.65080 0.95650 0.00800
Fe	Fe	0.62851 0.94404 0.48732 1.16900
O 	O 	0.64082 0.01033 0.68883 -0.53800
O 	O 	0.59416 0.03243 0.92733 -0.43300
O 	O 	0.58413 0.97799 0.33223 -0.51100
C 	C 	0.59697 0.01693 0.74843 0.37200
C 	C 	0.54587 0.00733 0.62143 -0.20300
C 	C 	0.54377 0.99023 0.42553 0.14200
C 	C 	0.49697 0.98413 0.28983 0.00300
Fe	Fe	0.29517 0.27738 0.82066 1.16900
O 	O 	0.30748 0.34367 0.02217 -0.53900
O 	O 	0.26082 0.36577 0.26067 -0.43400
O 	O 	0.25079 0.31133 0.66557 -0.51100
C 	C 	0.26363 0.35027 0.08177 0.37500
C 	C 	0.21253 0.34067 0.95477 -0.20800
C 	C 	0.21043 0.32357 0.75887 0.14400
C 	C 	0.16363 0.31747 0.62317 0.00200
Fe	Fe	0.61071 0.64887 0.84601 1.16800
O 	O 	0.67700 0.70285 0.64450 -0.53800
O 	O 	0.69910 0.77161 0.40600 -0.43400
O 	O 	0.64466 0.72720 0.00110 -0.50900
C 	C 	0.68360 0.75330 0.58490 0.37100
C 	C 	0.67400 0.79480 0.71190 -0.20100
C 	C 	0.65690 0.77980 0.90780 0.13800
C 	C 	0.65080 0.82050 0.04350 0.00800
Fe	Fe	0.27738 0.98220 0.17934 1.16900
O 	O 	0.34367 0.03618 0.97783 -0.53900
O 	O 	0.36577 0.10494 0.73933 -0.43500
O 	O 	0.31133 0.06053 0.33443 -0.51200
C 	C 	0.35027 0.08663 0.91823 0.37500
C 	C 	0.34067 0.12813 0.04523 -0.20900
C 	C 	0.32357 0.11313 0.24113 0.14400
C 	C 	0.31747 0.15383 0.37683 0.00200
Fe	Fe	0.94404 0.31554 0.51268 1.16900
O 	O 	0.01033 0.36952 0.31117 -0.53800
O 	O 	0.03243 0.43828 0.07267 -0.43300
O 	O 	0.97799 0.39387 0.66777 -0.51100
C 	C 	0.01693 0.41997 0.25157 0.37200
C 	C 	0.00733 0.46147 0.37857 -0.20300
C 	C 	0.99023 0.44647 0.57447 0.14200
C 	C 	0.98413 0.48717 0.71017 0.00400
Fe	Fe	0.35113 0.96184 0.84601 1.16700
O 	O 	0.29715 0.97415 0.64450 -0.53800
O 	O 	0.22839 0.92749 0.40600 -0.43300
O 	O 	0.27280 0.91746 0.00110 -0.50700
C 	C 	0.24670 0.93030 0.58490 0.37100
C 	C 	0.20520 0.87920 0.71190 -0.20000
C 	C 	0.22020 0.87710 0.90780 0.13500
C 	C 	0.17950 0.83030 0.04350 0.01100
Fe	Fe	0.01780 0.29517 0.17934 1.16900
O 	O 	0.96382 0.30748 0.97783 -0.53800
O 	O 	0.89506 0.26082 0.73933 -0.43500
O 	O 	0.93947 0.25079 0.33443 -0.51200
C 	C 	0.91337 0.26363 0.91823 0.37700
C 	C 	0.87187 0.21253 0.04523 -0.21200
C 	C 	0.88687 0.21043 0.24113 0.14500
C 	C 	0.84617 0.16363 0.37683 0.00100
Fe	Fe	0.68446 0.62851 0.51268 1.16900
O 	O 	0.63048 0.64082 0.31117 -0.53800
O 	O 	0.56172 0.59416 0.07267 -0.43400
O 	O 	0.60613 0.58413 0.66777 -0.51100
C 	C 	0.58003 0.59697 0.25157 0.37200
C 	C 	0.53853 0.54587 0.37857 -0.20300
C 	C 	0.55353 0.54377 0.57447 0.14200
C 	C 	0.51283 0.49697 0.71017 0.00300
Fe	Fe	0.03816 0.38929 0.84601 1.16800
O 	O 	0.02585 0.32300 0.64450 -0.53800
O 	O 	0.07251 0.30090 0.40600 -0.43400
O 	O 	0.08254 0.35534 0.00110 -0.50900
C 	C 	0.06970 0.31640 0.58490 0.37100
C 	C 	0.12080 0.32600 0.71190 -0.20100
C 	C 	0.12290 0.34310 0.90780 0.13700
C 	C 	0.16970 0.34920 0.04350 0.00800
Fe	Fe	0.70483 0.72262 0.17934 1.16900
O 	O 	0.69252 0.65633 0.97783 -0.53900
O 	O 	0.73918 0.63423 0.73933 -0.43400
O 	O 	0.74921 0.68867 0.33443 -0.51100
C 	C 	0.73637 0.64973 0.91823 0.37500
C 	C 	0.78747 0.65933 0.04523 -0.20800
C 	C 	0.78957 0.67643 0.24113 0.14400
C 	C 	0.83637 0.68253 0.37683 0.00200
Fe	Fe	0.37149 0.05596 0.51268 1.16900
O 	O 	0.35918 0.98967 0.31117 -0.53800
O 	O 	0.40584 0.96757 0.07267 -0.43300
O 	O 	0.41587 0.02201 0.66777 -0.51100
C 	C 	0.40303 0.98307 0.25157 0.37200
C 	C 	0.45413 0.99267 0.37857 -0.20300
C 	C 	0.45623 0.00977 0.57447 0.14200
C 	C 	0.50303 0.01587 0.71017 0.00300
