data_crystal

_cell_length_a 19.27800
_cell_length_b 19.59300
_cell_length_c 20.04600
_cell_angle_alpha 70.65000
_cell_angle_beta  70.05000
_cell_angle_gamma 69.86000

_symmetry_space_group_name_	'P 1'
_symmetry_space_group_name_H-M	'P 1'

loop_
_symmetry_equiv_pos_as_xyz
  x,y,z

loop_
_atom_site_label
_atom_site_type_symbol
_atom_site_fract_x
_atom_site_fract_y
_atom_site_fract_z
_atom_site_charge
Zn	Zn	0.62542 0.96252 0.64227 1.21800
Zn	Zn	0.05795 0.53071 0.22475 1.22200
Zn	Zn	0.18755 0.54172 0.07652 1.21100
Zn	Zn	0.21662 0.54682 0.22407 1.21600
Zn	Zn	0.63617 0.11752 0.66458 1.19800
Zn	Zn	0.64438 0.96572 0.78882 1.21100
Zn	Zn	0.20700 0.39467 0.20803 1.21300
Zn	Zn	0.77950 0.97259 0.65219 1.20700
H 	H 	0.93060 0.66910 0.35160 0.04600
H 	H 	0.47220 0.74020 0.04620 0.06100
H 	H 	0.44960 0.13380 0.38640 0.06300
H 	H 	0.31530 0.24170 0.07530 0.06200
H 	H 	0.91890 0.82990 0.52150 0.05900
H 	H 	0.51210 0.06550 0.47510 0.04100
H 	H 	0.32290 0.43010 0.91150 0.03000
H 	H 	0.40410 0.37230 0.47770 0.05700
H 	H 	0.46430 0.23810 0.80030 0.04200
H 	H 	0.38190 0.11670 0.04560 0.05800
H 	H 	0.79740 0.73020 0.42800 0.05800
H 	H 	0.32650 0.67700 0.94090 0.05400
H 	H 	0.11780 0.69660 0.37110 0.02600
H 	H 	0.92150 0.10560 0.46660 0.05800
H 	H 	0.79150 0.76260 0.06410 0.06700
H 	H 	0.04590 0.76280 0.45670 0.07000
H 	H 	0.09570 0.22820 0.29570 0.04000
H 	H 	0.40070 0.36250 0.82880 0.05800
H 	H 	0.46480 0.04950 0.96250 0.04100
H 	H 	0.79850 0.36040 0.44850 0.05600
H 	H 	0.03280 0.13760 0.37630 0.06500
H 	H 	0.33350 0.44270 0.39340 0.03500
H 	H 	0.48220 0.25200 0.53500 0.05100
H 	H 	0.95770 0.86150 0.76520 0.03600
H 	H 	0.38140 0.75280 0.81860 0.06100
H 	H 	0.77300 0.83770 0.93880 0.05800
H 	H 	0.72620 0.81130 0.49790 0.04200
H 	H 	0.39030 0.66580 0.11710 0.03700
H 	H 	0.90980 0.39230 0.35810 0.04500
H 	H 	0.05630 0.70850 0.96150 0.04600
H 	H 	0.03710 0.78580 0.83870 0.06100
H 	H 	0.87300 0.67590 0.12850 0.03300
H 	H 	0.52890 0.81250 0.92150 0.05600
H 	H 	0.46200 0.82480 0.74600 0.03500
H 	H 	0.36600 0.25380 0.33150 0.05800
H 	H 	0.73560 0.26980 0.52900 0.02700
C 	C 	0.06390 0.70450 0.38590 0.03900
C 	C 	0.45870 0.80700 0.79690 0.02200
C 	C 	0.47260 0.22840 0.50580 -0.03100
C 	C 	0.82230 0.75210 0.44570 -0.07800
C 	C 	0.77070 0.87720 0.57090 0.39600
C 	C 	0.38210 0.33770 0.87820 -0.09400
C 	C 	0.31110 0.34200 0.00250 -0.10200
C 	C 	0.37440 0.27840 0.36060 -0.03000
C 	C 	0.82260 0.17920 0.50540 -0.08700
C 	C 	0.87060 0.78320 0.96470 0.02900
C 	C 	0.50220 0.15240 0.51340 -0.08900
C 	C 	0.33160 0.26520 0.02500 -0.03400
C 	C 	0.53380 0.09340 0.82200 0.37500
C 	C 	0.44870 0.10260 0.94710 0.01900
C 	C 	0.95340 0.68880 0.37370 -0.00600
C 	C 	0.35470 0.39040 0.39760 0.01400
C 	C 	0.44980 0.21420 0.85070 -0.02600
C 	C 	0.81780 0.82430 0.52200 -0.08700
C 	C 	0.02070 0.74550 0.43470 -0.10700
C 	C 	0.33760 0.37700 0.92710 0.02700
C 	C 	0.07530 0.62410 0.30500 0.41200
C 	C 	0.80280 0.90270 0.80010 0.34300
C 	C 	0.39350 0.68500 0.06620 0.01100
C 	C 	0.89740 0.28680 0.40970 0.01200
C 	C 	0.84450 0.74960 0.04060 -0.09700
C 	C 	0.44270 0.72820 0.02430 -0.08200
C 	C 	0.85440 0.85580 0.84700 -0.08500
C 	C 	0.34320 0.35460 0.35180 -0.09300
C 	C 	0.40210 0.73570 0.91600 0.02800
C 	C 	0.47640 0.13860 0.87290 -0.10200
C 	C 	0.89520 0.80860 0.50180 -0.03800
C 	C 	0.90360 0.73450 0.42410 0.00600
C 	C 	0.78030 0.79690 0.48870 0.01300
C 	C 	0.93390 0.21110 0.41500 0.03700
C 	C 	0.55850 0.87330 0.78110 0.39100
C 	C 	0.45310 0.15850 0.41820 -0.08700
C 	C 	0.27000 0.38760 0.05930 0.41000
C 	C 	0.39670 0.34810 0.44760 -0.08800
C 	C 	0.44970 0.75520 0.94730 0.01900
C 	C 	0.00250 0.71740 0.98080 -0.02000
C 	C 	0.78720 0.11810 0.55870 0.37300
C 	C 	0.98330 0.79770 0.85870 -0.08600
C 	C 	0.37580 0.22140 0.97550 0.02400
C 	C 	0.49180 0.11810 0.46950 0.02100
C 	C 	0.94140 0.76410 0.45490 0.03800
C 	C 	0.50440 0.82520 0.82850 -0.09400
C 	C 	0.40000 0.14230 0.99650 -0.08200
C 	C 	0.05450 0.37250 0.27830 0.38400
C 	C 	0.29610 0.39820 0.29910 0.37500
C 	C 	0.41720 0.23680 0.40970 0.02500
C 	C 	0.40160 0.25760 0.90030 0.01700
C 	C 	0.78610 0.25480 0.50000 0.01300
C 	C 	0.41110 0.76440 0.84060 -0.09100
C 	C 	0.35500 0.69180 0.96150 -0.03600
C 	C 	0.93730 0.84080 0.81540 0.01100
C 	C 	0.93480 0.34060 0.36180 -0.01500
C 	C 	0.02770 0.67300 0.35670 -0.12000
C 	C 	0.97160 0.68080 0.05290 -0.10800
C 	C 	0.04520 0.24310 0.32470 0.03400
C 	C 	0.49860 0.79960 0.90120 -0.02500
C 	C 	0.82690 0.82650 0.91930 -0.03900
C 	C 	0.02680 0.62880 0.09860 0.41000
C 	C 	0.82350 0.30860 0.45210 -0.08400
C 	C 	0.42850 0.27200 0.45580 0.02300
C 	C 	0.00870 0.31870 0.31930 -0.11200
C 	C 	0.89650 0.15730 0.46290 -0.04600
C 	C 	0.95190 0.76860 0.93650 0.01000
C 	C 	0.29340 0.62210 0.08150 0.35500
C 	C 	0.89380 0.69960 0.07940 0.03500
C 	C 	0.54880 0.10750 0.56880 0.38100
C 	C 	0.34660 0.66830 0.03470 -0.08600
C 	C 	0.00780 0.18930 0.37260 -0.10200
O 	O 	0.25810 0.35320 0.12390 -0.51800
O 	O 	0.14420 0.61310 0.28610 -0.51100
O 	O 	0.70000 0.89640 0.58180 -0.50400
O 	O 	0.71880 0.14410 0.58160 -0.53600
O 	O 	0.26030 0.60000 0.05060 -0.49500
O 	O 	0.72910 0.91910 0.83160 -0.49500
O 	O 	0.80700 0.89450 0.60190 -0.50900
O 	O 	0.56640 0.02670 0.85010 -0.49500
O 	O 	0.24680 0.45770 0.03470 -0.53500
O 	O 	0.03960 0.58820 0.28900 -0.52900
O 	O 	0.09520 0.62360 0.06910 -0.54100
O 	O 	0.28650 0.60390 0.15180 -0.47400
O 	O 	0.16890 0.50370 0.18370 -0.94300
O 	O 	0.02350 0.44190 0.26170 -0.52200
O 	O 	0.82780 0.04950 0.57870 -0.48300
O 	O 	0.27500 0.46950 0.28900 -0.49500
O 	O 	0.12690 0.34290 0.26280 -0.49100
O 	O 	0.60160 0.88140 0.81220 -0.49900
O 	O 	0.67020 0.00520 0.68520 -0.95800
O 	O 	0.27780 0.36230 0.26840 -0.49800
O 	O 	0.83010 0.92110 0.73080 -0.49800
O 	O 	0.55830 0.90130 0.71620 -0.50200
O 	O 	0.56630 0.14080 0.60100 -0.48400
O 	O 	0.54770 0.12370 0.75460 -0.51600
O 	O 	0.99630 0.59670 0.16070 -0.51300
O 	O 	0.56550 0.03570 0.57860 -0.48500
Zn	Zn	0.37458 0.03748 0.35773 1.21700
Zn	Zn	0.35562 0.03428 0.21118 1.21000
Zn	Zn	0.78338 0.45318 0.77593 1.21500
Zn	Zn	0.94205 0.46929 0.77525 1.22100
Zn	Zn	0.79300 0.60533 0.79197 1.21300
Zn	Zn	0.22050 0.02741 0.34781 1.20700
Zn	Zn	0.36383 0.88248 0.33542 1.19700
Zn	Zn	0.81245 0.45828 0.92348 1.21000
H 	H 	0.67710 0.56990 0.08850 0.03000
H 	H 	0.90430 0.77180 0.70430 0.04000
H 	H 	0.12700 0.32410 0.87150 0.03300
H 	H 	0.22700 0.16230 0.06120 0.05800
H 	H 	0.47110 0.18750 0.07850 0.05600
H 	H 	0.20850 0.23740 0.93590 0.06700
H 	H 	0.96290 0.21420 0.16130 0.06100
H 	H 	0.52780 0.25980 0.95380 0.06100
H 	H 	0.61810 0.88330 0.95440 0.05800
H 	H 	0.59590 0.62770 0.52230 0.05700
H 	H 	0.66650 0.55730 0.60660 0.03500
H 	H 	0.61860 0.24720 0.18140 0.06100
H 	H 	0.88220 0.30340 0.62890 0.02600
H 	H 	0.53570 0.76190 0.19970 0.04200
H 	H 	0.67350 0.32300 0.05910 0.05400
H 	H 	0.59930 0.63750 0.17120 0.05800
H 	H 	0.20150 0.63960 0.55150 0.05600
H 	H 	0.94370 0.29150 0.03850 0.04600
H 	H 	0.53520 0.95050 0.03750 0.04100
H 	H 	0.60970 0.33420 0.88290 0.03700
H 	H 	0.27380 0.18870 0.50210 0.04200
H 	H 	0.68470 0.75830 0.92470 0.06200
H 	H 	0.07850 0.89440 0.53340 0.05800
H 	H 	0.48790 0.93450 0.52490 0.04100
H 	H 	0.55040 0.86620 0.61360 0.06300
H 	H 	0.06940 0.33090 0.64840 0.04600
H 	H 	0.51780 0.74800 0.46500 0.05100
H 	H 	0.63400 0.74620 0.66850 0.05800
H 	H 	0.96720 0.86240 0.62370 0.06500
H 	H 	0.09020 0.60770 0.64190 0.04500
H 	H 	0.04230 0.13850 0.23480 0.03600
H 	H 	0.95410 0.23720 0.54330 0.07000
H 	H 	0.26440 0.73020 0.47100 0.02700
H 	H 	0.20260 0.26980 0.57200 0.05800
H 	H 	0.08110 0.17010 0.47850 0.05900
H 	H 	0.53800 0.17520 0.25400 0.03500
C 	C 	0.99130 0.68130 0.68070 -0.11200
C 	C 	0.62560 0.72160 0.63940 -0.03000
C 	C 	0.19720 0.09730 0.19990 0.34300
C 	C 	0.17740 0.82080 0.49460 -0.08700
C 	C 	0.17310 0.17350 0.08070 -0.03900
C 	C 	0.21280 0.88190 0.44130 0.37300
C 	C 	0.52740 0.77160 0.49420 -0.03100
C 	C 	0.64530 0.60960 0.60240 0.01400
C 	C 	0.66240 0.62300 0.07290 0.02700
C 	C 	0.55130 0.89740 0.05290 0.01900
C 	C 	0.45120 0.89250 0.43120 0.38100
C 	C 	0.58280 0.76320 0.59030 0.02500
C 	C 	0.60330 0.65190 0.55240 -0.08800
C 	C 	0.46620 0.90660 0.17800 0.37500
C 	C 	0.10260 0.71320 0.59030 0.01200
C 	C 	0.95480 0.75690 0.67530 0.03400
C 	C 	0.06520 0.65940 0.63820 -0.01500
C 	C 	0.57150 0.72800 0.54420 0.02300
C 	C 	0.97230 0.32700 0.64330 -0.12000
C 	C 	0.70390 0.60180 0.70090 0.37500
C 	C 	0.99220 0.81070 0.62740 -0.10200
C 	C 	0.65340 0.33170 0.96530 -0.08600
C 	C 	0.55020 0.78580 0.14930 -0.02600
C 	C 	0.21970 0.20310 0.51130 0.01300
C 	C 	0.04810 0.23140 0.06350 0.01000
C 	C 	0.06610 0.78890 0.58500 0.03700
C 	C 	0.49780 0.84760 0.48660 -0.08900
C 	C 	0.50140 0.20040 0.09880 -0.02500
C 	C 	0.17770 0.24790 0.55430 -0.07800
C 	C 	0.64500 0.30820 0.03850 -0.03600
C 	C 	0.06270 0.15920 0.18460 0.01100
C 	C 	0.10350 0.84270 0.53710 -0.04600
C 	C 	0.62420 0.77860 0.02450 0.02400
C 	C 	0.18220 0.17570 0.47800 -0.08700
C 	C 	0.09640 0.26550 0.57590 0.00600
C 	C 	0.10480 0.19140 0.49820 -0.03800
C 	C 	0.54130 0.19300 0.20310 0.02200
C 	C 	0.99750 0.28260 0.01920 -0.02000
C 	C 	0.93610 0.29550 0.61410 0.03900
C 	C 	0.92470 0.37590 0.69500 0.41200
C 	C 	0.66840 0.73480 0.97500 -0.03400
C 	C 	0.59840 0.74240 0.09970 0.01700
C 	C 	0.05860 0.23590 0.54510 0.03800
C 	C 	0.12940 0.21680 0.03530 0.02900
C 	C 	0.44150 0.12670 0.21890 0.39100
C 	C 	0.70660 0.37790 0.91850 0.35500
C 	C 	0.60650 0.31500 0.93380 0.01100
C 	C 	0.49560 0.17480 0.17150 -0.09400
C 	C 	0.55730 0.27180 0.97570 -0.08200
C 	C 	0.94550 0.62750 0.72170 0.38400
C 	C 	0.73000 0.61240 0.94070 0.41000
C 	C 	0.50820 0.88190 0.53050 0.02100
C 	C 	0.97930 0.25450 0.56530 -0.10700
C 	C 	0.04660 0.31120 0.62630 -0.00600
C 	C 	0.52360 0.86140 0.12710 -0.10200
C 	C 	0.55030 0.24480 0.05270 0.01900
C 	C 	0.22930 0.12280 0.42910 0.39600
C 	C 	0.14560 0.14420 0.15300 -0.08500
C 	C 	0.15550 0.25040 0.95940 -0.09700
C 	C 	0.97320 0.37120 0.90140 0.41000
C 	C 	0.61790 0.66230 0.12180 -0.09400
C 	C 	0.58890 0.23560 0.15940 -0.09100
C 	C 	0.54690 0.84150 0.58180 -0.08700
C 	C 	0.21390 0.74520 0.50000 0.01300
C 	C 	0.59790 0.26430 0.08400 0.02800
C 	C 	0.17650 0.69140 0.54790 -0.08400
C 	C 	0.10620 0.30040 0.92060 0.03500
C 	C 	0.01670 0.20230 0.14130 -0.08600
C 	C 	0.60000 0.85770 0.00350 -0.08200
C 	C 	0.68890 0.65800 0.99750 -0.10200
C 	C 	0.65680 0.64540 0.64820 -0.09300
C 	C 	0.02840 0.31920 0.94710 -0.10800
O 	O 	0.75320 0.54230 0.96530 -0.53500
O 	O 	0.00370 0.40330 0.83930 -0.51300
O 	O 	0.19300 0.10550 0.39810 -0.50900
O 	O 	0.27090 0.08090 0.16840 -0.49500
O 	O 	0.72220 0.63770 0.73160 -0.49800
O 	O 	0.83110 0.49630 0.81630 -0.94300
O 	O 	0.43450 0.96430 0.42140 -0.48500
O 	O 	0.44170 0.09870 0.28380 -0.50200
O 	O 	0.30000 0.10360 0.41820 -0.50400
O 	O 	0.16990 0.07890 0.26920 -0.49800
O 	O 	0.73970 0.40000 0.94940 -0.49500
O 	O 	0.43360 0.97330 0.14990 -0.49500
O 	O 	0.17220 0.95050 0.42130 -0.48300
O 	O 	0.97650 0.55810 0.73830 -0.52200
O 	O 	0.74190 0.64680 0.87610 -0.51800
O 	O 	0.90480 0.37640 0.93090 -0.54100
O 	O 	0.43370 0.85920 0.39900 -0.48400
O 	O 	0.45230 0.87630 0.24540 -0.51600
O 	O 	0.32980 0.99480 0.31480 -0.95800
O 	O 	0.39840 0.11860 0.18780 -0.49900
O 	O 	0.87310 0.65710 0.73720 -0.49100
O 	O 	0.71350 0.39610 0.84820 -0.47400
O 	O 	0.96040 0.41180 0.71100 -0.52900
O 	O 	0.85580 0.38690 0.71390 -0.51100
O 	O 	0.72500 0.53050 0.71100 -0.49500
O 	O 	0.28120 0.85590 0.41840 -0.53600
