data_crystal

_cell_length_a 15.71250
_cell_length_b 15.71250
_cell_length_c 26.13590
_cell_angle_alpha 107.49300
_cell_angle_beta  107.49300
_cell_angle_gamma 90.00000

_symmetry_space_group_name_	'P 1'
_symmetry_space_group_name_H-M	'P 1'

loop_
_symmetry_equiv_pos_as_xyz
  x,y,z

loop_
_atom_site_label
_atom_site_type_symbol
_atom_site_fract_x
_atom_site_fract_y
_atom_site_fract_z
_atom_site_charge
Cu	Cu	0.30330 0.29646 0.71826 0.90300
Cu	Cu	0.41496 0.42180 0.71826 0.90300
Cu	Cu	0.54646 0.16496 0.21826 0.90300
Cu	Cu	0.67180 0.05330 0.21826 0.90100
Cu	Cu	0.83504 0.45354 0.78174 0.90300
Cu	Cu	0.94670 0.32820 0.78174 0.90100
Cu	Cu	0.57820 0.58504 0.28174 0.90300
Cu	Cu	0.70354 0.69670 0.28174 0.90300
H 	H 	0.40270 0.60690 0.87860 0.04500
H 	H 	0.00750 0.64180 0.93760 0.09200
H 	H 	0.15740 0.47270 0.82000 0.07400
H 	H 	0.36910 0.70070 0.95280 0.07400
H 	H 	0.47590 0.27170 0.87860 0.04300
H 	H 	0.93010 0.29580 0.93760 0.08700
H 	H 	0.66260 0.34730 0.82000 0.07300
H 	H 	0.58370 0.25210 0.95280 0.07300
H 	H 	0.85690 0.22590 0.37860 0.04200
H 	H 	0.89180 0.68010 0.43760 0.08700
H 	H 	0.72270 0.41260 0.32000 0.07300
H 	H 	0.95070 0.33370 0.45280 0.07100
H 	H 	0.52170 0.15270 0.37860 0.03700
H 	H 	0.54580 0.75750 0.43760 0.09100
H 	H 	0.59730 0.90740 0.32000 0.06700
H 	H 	0.50210 0.11910 0.45280 0.08100
H 	H 	0.77410 0.14310 0.62140 0.04200
H 	H 	0.31990 0.10820 0.56240 0.08700
H 	H 	0.58740 0.27730 0.68000 0.07300
H 	H 	0.66630 0.04930 0.54720 0.07100
H 	H 	0.84730 0.47830 0.62140 0.03700
H 	H 	0.24250 0.45420 0.56240 0.09100
H 	H 	0.09260 0.40270 0.68000 0.06700
H 	H 	0.88090 0.49790 0.54720 0.08100
H 	H 	0.72830 0.52410 0.12140 0.04300
H 	H 	0.70420 0.06990 0.06240 0.08700
H 	H 	0.65270 0.33740 0.18000 0.07300
H 	H 	0.74790 0.41630 0.04720 0.07300
H 	H 	0.39310 0.59730 0.12140 0.04400
H 	H 	0.35820 0.99250 0.06240 0.09100
H 	H 	0.52730 0.84260 0.18000 0.07400
H 	H 	0.29930 0.63090 0.04720 0.07400
C 	C 	0.34630 0.59980 0.88220 0.01500
C 	C 	0.28274 0.52974 0.84188 -0.07100
C 	C 	0.08757 0.57747 0.89574 -0.05000
C 	C 	0.21757 0.71207 0.97694 -0.03300
C 	C 	0.17446 0.58026 0.89092 0.02700
C 	C 	0.23983 0.65123 0.93226 0.03600
C 	C 	0.13063 0.70773 0.97826 0.15300
C 	C 	0.06645 0.64205 0.93710 -0.10200
C 	C 	0.01322 0.50712 0.85464 0.35700
C 	C 	0.19870 0.51960 0.84640 -0.03400
C 	C 	0.32536 0.65656 0.92592 -0.08500
C 	C 	0.30864 0.46634 0.79468 0.35400
C 	C 	0.02230 0.80300 0.01280 0.08000
C 	C 	0.02300 0.88850 0.05780 0.00100
C 	C 	0.53590 0.28240 0.88220 0.01500
C 	C 	0.55914 0.31214 0.84188 -0.07200
C 	C 	0.80817 0.31827 0.89574 -0.05000
C 	C 	0.75937 0.26487 0.97694 -0.03300
C 	C 	0.71646 0.31066 0.89092 0.02500
C 	C 	0.69243 0.28103 0.93226 0.03600
C 	C 	0.84763 0.27053 0.97826 0.15200
C 	C 	0.87065 0.29505 0.93710 -0.10400
C 	C 	0.84142 0.34752 0.85464 0.34800
C 	C 	0.64770 0.32680 0.84640 -0.03400
C 	C 	0.60056 0.26936 0.92592 -0.08600
C 	C 	0.48604 0.32834 0.79468 0.35400
C 	C 	0.99050 0.20980 0.01280 0.06800
C 	C 	0.03480 0.16930 0.05780 0.00200
C 	C 	0.84980 0.28590 0.38220 0.01500
C 	C 	0.77974 0.30914 0.34188 -0.07300
C 	C 	0.82747 0.55817 0.39574 -0.05000
C 	C 	0.96207 0.50937 0.47694 -0.03600
C 	C 	0.83026 0.46646 0.39092 0.02500
C 	C 	0.90123 0.44243 0.43226 0.03500
C 	C 	0.95773 0.59763 0.47826 0.14500
C 	C 	0.89205 0.62065 0.43710 -0.10100
C 	C 	0.75712 0.59142 0.35464 0.34800
C 	C 	0.76960 0.39770 0.34640 -0.03400
C 	C 	0.90656 0.35056 0.42592 -0.08700
C 	C 	0.71634 0.23604 0.29468 0.35400
C 	C 	0.05300 0.74050 0.51280 0.08100
C 	C 	0.13850 0.78480 0.55780 -0.00200
C 	C 	0.53240 0.09630 0.38220 0.03400
C 	C 	0.56214 0.03274 0.34188 -0.09300
C 	C 	0.56827 0.83757 0.39574 -0.04300
C 	C 	0.51487 0.96757 0.47694 -0.03300
C 	C 	0.56066 0.92446 0.39092 0.01400
C 	C 	0.53103 0.98983 0.43226 0.05400
C 	C 	0.52053 0.88063 0.47826 0.15500
C 	C 	0.54505 0.81645 0.43710 -0.10800
C 	C 	0.59752 0.76322 0.35464 0.34600
C 	C 	0.57680 0.94870 0.34640 -0.01100
C 	C 	0.51936 0.07536 0.42592 -0.11000
C 	C 	0.57834 0.05864 0.29468 0.36000
C 	C 	0.45980 0.77230 0.51280 0.07800
C 	C 	0.41930 0.77300 0.55780 -0.00300
C 	C 	0.71410 0.15020 0.61780 0.01500
C 	C 	0.69086 0.22026 0.65812 -0.07300
C 	C 	0.44183 0.17253 0.60426 -0.05000
C 	C 	0.49063 0.03793 0.52306 -0.03600
C 	C 	0.53354 0.16974 0.60908 0.02500
C 	C 	0.55757 0.09877 0.56774 0.03500
C 	C 	0.40237 0.04227 0.52174 0.14500
C 	C 	0.37935 0.10795 0.56290 -0.10100
C 	C 	0.40858 0.24288 0.64536 0.34800
C 	C 	0.60230 0.23040 0.65360 -0.03400
C 	C 	0.64944 0.09344 0.57408 -0.08700
C 	C 	0.76396 0.28366 0.70532 0.35400
C 	C 	0.25950 0.94700 0.48720 0.08100
C 	C 	0.21520 0.86150 0.44220 -0.00200
C 	C 	0.90370 0.46760 0.61780 0.03400
C 	C 	0.96726 0.43786 0.65812 -0.09300
C 	C 	0.16243 0.43173 0.60426 -0.04300
C 	C 	0.03243 0.48513 0.52306 -0.03300
C 	C 	0.07554 0.43934 0.60908 0.01400
C 	C 	0.01017 0.46897 0.56774 0.05400
C 	C 	0.11937 0.47947 0.52174 0.15500
C 	C 	0.18355 0.45495 0.56290 -0.10800
C 	C 	0.23678 0.40248 0.64536 0.34600
C 	C 	0.05130 0.42320 0.65360 -0.01100
C 	C 	0.92464 0.48064 0.57408 -0.11000
C 	C 	0.94136 0.42166 0.70532 0.36000
C 	C 	0.22770 0.54020 0.48720 0.07800
C 	C 	0.22700 0.58070 0.44220 -0.00300
C 	C 	0.71760 0.46410 0.11780 0.01500
C 	C 	0.68786 0.44086 0.15812 -0.07200
C 	C 	0.68173 0.19183 0.10426 -0.05000
C 	C 	0.73513 0.24063 0.02306 -0.03300
C 	C 	0.68934 0.28354 0.10908 0.02500
C 	C 	0.71897 0.30757 0.06774 0.03600
C 	C 	0.72947 0.15237 0.02174 0.15200
C 	C 	0.70495 0.12935 0.06290 -0.10400
C 	C 	0.65248 0.15858 0.14536 0.34800
C 	C 	0.67320 0.35230 0.15360 -0.03400
C 	C 	0.73064 0.39944 0.07408 -0.08600
C 	C 	0.67166 0.51396 0.20532 0.35400
C 	C 	0.79020 0.00950 0.98720 0.06800
C 	C 	0.83070 0.96520 0.94220 0.00200
C 	C 	0.40020 0.65370 0.11780 0.01500
C 	C 	0.47026 0.71726 0.15812 -0.07100
C 	C 	0.42253 0.91243 0.10426 -0.05000
C 	C 	0.28793 0.78243 0.02306 -0.03300
C 	C 	0.41974 0.82554 0.10908 0.02700
C 	C 	0.34877 0.76017 0.06774 0.03600
C 	C 	0.29227 0.86937 0.02174 0.15300
C 	C 	0.35795 0.93355 0.06290 -0.10200
C 	C 	0.49288 0.98678 0.14536 0.35700
C 	C 	0.48040 0.80130 0.15360 -0.03400
C 	C 	0.34344 0.67464 0.07408 -0.08500
C 	C 	0.53366 0.69136 0.20532 0.35400
C 	C 	0.19700 0.97770 0.98720 0.08000
C 	C 	0.11150 0.97700 0.94220 0.00100
O 	O 	0.26283 0.39090 0.77064 -0.40200
O 	O 	0.37387 0.49038 0.78260 -0.40300
O 	O 	0.03023 0.42723 0.84444 -0.39600
O 	O 	0.93958 0.53470 0.83458 -0.41100
O 	O 	0.11353 0.77083 0.02246 -0.20200
O 	O 	0.50781 0.37974 0.77064 -0.40200
O 	O 	0.40873 0.29222 0.78260 -0.40300
O 	O 	0.81421 0.41721 0.84444 -0.39800
O 	O 	0.89500 0.29988 0.83458 -0.40600
O 	O 	0.90893 0.25163 0.02246 -0.20300
O 	O 	0.64090 0.25781 0.27064 -0.40300
O 	O 	0.74038 0.15873 0.28260 -0.40500
O 	O 	0.67723 0.56421 0.34444 -0.39800
O 	O 	0.78470 0.64500 0.33458 -0.40500
O 	O 	0.02083 0.65893 0.52246 -0.19700
O 	O 	0.62974 0.01283 0.27064 -0.40800
O 	O 	0.54222 0.12387 0.28260 -0.40500
O 	O 	0.66721 0.78023 0.34444 -0.39600
O 	O 	0.54988 0.68958 0.33458 -0.40300
O 	O 	0.50163 0.86353 0.52246 -0.20200
O 	O 	0.74219 0.35910 0.72936 -0.40300
O 	O 	0.84127 0.25962 0.71740 -0.40500
O 	O 	0.43579 0.32277 0.65556 -0.39800
O 	O 	0.35500 0.21530 0.66542 -0.40500
O 	O 	0.34107 0.97917 0.47754 -0.19700
O 	O 	0.98717 0.37026 0.72936 -0.40800
O 	O 	0.87613 0.45778 0.71740 -0.40500
O 	O 	0.21977 0.33279 0.65556 -0.39600
O 	O 	0.31042 0.45012 0.66542 -0.40300
O 	O 	0.13647 0.49837 0.47754 -0.20200
O 	O 	0.62026 0.49219 0.22936 -0.40200
O 	O 	0.70778 0.59127 0.21740 -0.40300
O 	O 	0.58279 0.18579 0.15556 -0.39800
O 	O 	0.70012 0.10500 0.16542 -0.40600
O 	O 	0.74837 0.09107 0.97754 -0.20300
O 	O 	0.60910 0.73717 0.22936 -0.40200
O 	O 	0.50962 0.62613 0.21740 -0.40300
O 	O 	0.57277 0.96977 0.15556 -0.39600
O 	O 	0.46530 0.06042 0.16542 -0.41100
O 	O 	0.22917 0.88647 0.97754 -0.20200
