data_crystal

_cell_length_a 30.94920
_cell_length_b 30.94920
_cell_length_c 45.91360
_cell_angle_alpha 70.30350
_cell_angle_beta  70.30350
_cell_angle_gamma 89.99990

_symmetry_space_group_name_	'P 1'
_symmetry_space_group_name_H-M	'P 1'

loop_
_symmetry_equiv_pos_as_xyz
  x,y,z

loop_
_atom_site_label
_atom_site_type_symbol
_atom_site_fract_x
_atom_site_fract_y
_atom_site_fract_z
_atom_site_charge
Cu	Cu	0.63888 0.08158 0.78024 0.90300
Cu	Cu	0.58088 0.13818 0.78024 0.90300
Cu	Cu	0.83158 0.83088 0.28024 0.90300
Cu	Cu	0.88818 0.88888 0.28024 0.90300
Cu	Cu	0.16912 0.16842 0.71976 0.90300
Cu	Cu	0.11112 0.11182 0.71976 0.90300
Cu	Cu	0.86182 0.41912 0.21976 0.90300
Cu	Cu	0.91842 0.36112 0.21976 0.90300
H 	H 	0.71320 0.12650 0.88800 0.08700
H 	H 	0.69130 0.10330 0.85140 0.01800
H 	H 	0.59680 0.19230 0.85240 0.01500
H 	H 	0.61880 0.21570 0.88880 0.09000
H 	H 	0.92920 0.15110 0.83540 0.08800
H 	H 	0.98190 0.13360 0.79260 0.01300
H 	H 	0.08500 0.20520 0.79840 0.02000
H 	H 	0.03230 0.22280 0.84120 0.08800
H 	H 	0.67250 0.20070 0.97380 0.10500
H 	H 	0.80780 0.18440 0.89880 0.05800
H 	H 	0.90960 0.21870 0.92580 0.05300
H 	H 	0.85470 0.23240 0.97040 0.05800
H 	H 	0.74250 0.16300 0.91020 0.04800
H 	H 	0.66250 0.20780 0.92580 0.06800
H 	H 	0.88730 0.17570 0.86640 0.04400
H 	H 	0.95600 0.21840 0.88040 0.06800
H 	H 	0.39880 0.98550 0.88800 0.08700
H 	H 	0.45730 0.04530 0.85140 0.01700
H 	H 	0.55080 0.95530 0.85240 0.01500
H 	H 	0.49240 0.89550 0.88880 0.09000
H 	H 	0.23540 0.01350 0.83540 0.08800
H 	H 	0.22550 0.07380 0.79260 0.01400
H 	H 	0.11660 0.99640 0.79840 0.02000
H 	H 	0.12650 0.93600 0.84120 0.08700
H 	H 	0.35370 0.82550 0.97380 0.10600
H 	H 	0.29340 0.91680 0.89880 0.05900
H 	H 	0.16460 0.85550 0.92580 0.05400
H 	H 	0.17490 0.79720 0.97040 0.05900
H 	H 	0.34730 0.92680 0.91020 0.04900
H 	H 	0.41170 0.86640 0.92580 0.06900
H 	H 	0.24630 0.95790 0.86640 0.04500
H 	H 	0.16360 0.90120 0.88040 0.06900
H 	H 	0.87650 0.64880 0.38800 0.08800
H 	H 	0.85330 0.70730 0.35140 0.01900
H 	H 	0.94230 0.80080 0.35240 0.01600
H 	H 	0.96570 0.74240 0.38880 0.09100
H 	H 	0.90110 0.48540 0.33540 0.08900
H 	H 	0.88360 0.47550 0.29260 0.01500
H 	H 	0.95520 0.36660 0.29840 0.02100
H 	H 	0.97280 0.37650 0.34120 0.08900
H 	H 	0.95070 0.60370 0.47380 0.10600
H 	H 	0.93440 0.54340 0.39880 0.05900
H 	H 	0.96870 0.41460 0.42580 0.05400
H 	H 	0.98240 0.42490 0.47040 0.05900
H 	H 	0.91300 0.59730 0.41020 0.04900
H 	H 	0.95780 0.66170 0.42580 0.06900
H 	H 	0.92570 0.49630 0.36640 0.04500
H 	H 	0.96840 0.41360 0.38040 0.06900
H 	H 	0.73550 0.96320 0.38800 0.08800
H 	H 	0.79530 0.94130 0.35140 0.01900
H 	H 	0.70530 0.84680 0.35240 0.01600
H 	H 	0.64550 0.86880 0.38880 0.09100
H 	H 	0.76350 0.17920 0.33540 0.08900
H 	H 	0.82380 0.23190 0.29260 0.01500
H 	H 	0.74640 0.33500 0.29840 0.02100
H 	H 	0.68600 0.28230 0.34120 0.08800
H 	H 	0.57550 0.92250 0.47380 0.10500
H 	H 	0.66680 0.05780 0.39880 0.05900
H 	H 	0.60550 0.15960 0.42580 0.05500
H 	H 	0.54720 0.10470 0.47040 0.05900
H 	H 	0.67680 0.99250 0.41020 0.04900
H 	H 	0.61640 0.91250 0.42580 0.06900
H 	H 	0.70790 0.13730 0.36640 0.04500
H 	H 	0.65120 0.20600 0.38040 0.06900
H 	H 	0.35120 0.12350 0.61200 0.08800
H 	H 	0.29270 0.14670 0.64860 0.01900
H 	H 	0.19920 0.05770 0.64760 0.01600
H 	H 	0.25760 0.03430 0.61120 0.09100
H 	H 	0.51460 0.09890 0.66460 0.08900
H 	H 	0.52450 0.11640 0.70740 0.01500
H 	H 	0.63340 0.04480 0.70160 0.02100
H 	H 	0.62350 0.02720 0.65880 0.08900
H 	H 	0.39630 0.04930 0.52620 0.10600
H 	H 	0.45660 0.06560 0.60120 0.05900
H 	H 	0.58540 0.03130 0.57420 0.05400
H 	H 	0.57510 0.01760 0.52960 0.05900
H 	H 	0.40270 0.08700 0.58980 0.04900
H 	H 	0.33830 0.04220 0.57420 0.06900
H 	H 	0.50370 0.07430 0.63360 0.04500
H 	H 	0.58640 0.03160 0.61960 0.06900
H 	H 	0.03680 0.26450 0.61200 0.08800
H 	H 	0.05870 0.20470 0.64860 0.01900
H 	H 	0.15320 0.29470 0.64760 0.01600
H 	H 	0.13120 0.35450 0.61120 0.09100
H 	H 	0.82080 0.23650 0.66460 0.08900
H 	H 	0.76810 0.17620 0.70740 0.01500
H 	H 	0.66500 0.25360 0.70160 0.02100
H 	H 	0.71770 0.31400 0.65880 0.08800
H 	H 	0.07750 0.42450 0.52620 0.10500
H 	H 	0.94220 0.33320 0.60120 0.05900
H 	H 	0.84040 0.39450 0.57420 0.05500
H 	H 	0.89530 0.45280 0.52960 0.05900
H 	H 	0.00750 0.32320 0.58980 0.04900
H 	H 	0.08750 0.38360 0.57420 0.06900
H 	H 	0.86270 0.29210 0.63360 0.04500
H 	H 	0.79400 0.34880 0.61960 0.06900
H 	H 	0.01450 0.60120 0.11200 0.08800
H 	H 	0.95470 0.54270 0.14860 0.01800
H 	H 	0.04470 0.44920 0.14760 0.01600
H 	H 	0.10450 0.50760 0.11120 0.09100
H 	H 	0.98650 0.76460 0.16460 0.08900
H 	H 	0.92620 0.77450 0.20740 0.01500
H 	H 	0.00360 0.88340 0.20160 0.02100
H 	H 	0.06400 0.87350 0.15880 0.08800
H 	H 	0.17450 0.64630 0.02620 0.10600
H 	H 	0.08320 0.70660 0.10120 0.05900
H 	H 	0.14450 0.83540 0.07420 0.05400
H 	H 	0.20280 0.82510 0.02960 0.05900
H 	H 	0.07320 0.65270 0.08980 0.04900
H 	H 	0.13360 0.58830 0.07420 0.06900
H 	H 	0.04210 0.75370 0.13360 0.04500
H 	H 	0.09880 0.83640 0.11960 0.06900
H 	H 	0.87350 0.28680 0.11200 0.08800
H 	H 	0.89670 0.30870 0.14860 0.01900
H 	H 	0.80770 0.40320 0.14760 0.01600
H 	H 	0.78430 0.38120 0.11120 0.09100
H 	H 	0.84890 0.07080 0.16460 0.08900
H 	H 	0.86640 0.01810 0.20740 0.01400
H 	H 	0.79480 0.91500 0.20160 0.02100
H 	H 	0.77720 0.96770 0.15880 0.08900
H 	H 	0.79930 0.32750 0.02620 0.10600
H 	H 	0.81560 0.19220 0.10120 0.05900
H 	H 	0.78130 0.09040 0.07420 0.05400
H 	H 	0.76760 0.14530 0.02960 0.05900
H 	H 	0.83700 0.25750 0.08980 0.04900
H 	H 	0.79220 0.33750 0.07420 0.06900
H 	H 	0.82430 0.11270 0.13360 0.04500
H 	H 	0.78160 0.04400 0.11960 0.06900
C 	C 	0.66816 0.17346 0.89208 0.12100
C 	C 	0.68990 0.13980 0.88080 -0.16100
C 	C 	0.67670 0.12570 0.85900 0.08200
C 	C 	0.64186 0.14546 0.84828 -0.14900
C 	C 	0.62020 0.17920 0.85940 0.08500
C 	C 	0.63330 0.19310 0.88140 -0.16500
C 	C 	0.64190 0.22820 0.01840 0.08700
C 	C 	0.64470 0.26360 0.98460 -0.02400
C 	C 	0.97553 0.18873 0.84254 0.12400
C 	C 	0.96040 0.16200 0.82800 -0.16600
C 	C 	0.99200 0.15140 0.80240 0.08500
C 	C 	0.03868 0.16768 0.79124 -0.14800
C 	C 	0.05380 0.19440 0.80580 0.08000
C 	C 	0.02220 0.20490 0.83140 -0.16400
C 	C 	0.62890 0.13020 0.82560 0.35700
C 	C 	0.07430 0.15670 0.76580 0.35200
C 	C 	0.76440 0.22520 0.98720 -0.04600
C 	C 	0.71766 0.21946 0.99188 0.19500
C 	C 	0.70380 0.20460 0.97060 -0.18900
C 	C 	0.73661 0.19551 0.94478 0.06900
C 	C 	0.78331 0.20121 0.94018 -0.01700
C 	C 	0.79720 0.21610 0.96140 0.03900
C 	C 	0.81760 0.19370 0.91300 -0.08100
C 	C 	0.86530 0.19930 0.90700 0.04400
C 	C 	0.87840 0.21430 0.92900 -0.06400
C 	C 	0.84510 0.22270 0.95620 -0.05500
C 	C 	0.72310 0.17990 0.92120 -0.05800
C 	C 	0.68170 0.19030 0.91520 -0.10100
C 	C 	0.89780 0.18970 0.87820 -0.04700
C 	C 	0.94470 0.20260 0.87000 -0.10800
C 	C 	0.43976 0.93446 0.89208 0.12100
C 	C 	0.42930 0.97940 0.88080 -0.16200
C 	C 	0.46430 0.01530 0.85900 0.08200
C 	C 	0.50986 0.00626 0.84828 -0.14900
C 	C 	0.52040 0.96140 0.85940 0.08500
C 	C 	0.48530 0.92550 0.88140 -0.16500
C 	C 	0.33970 0.75340 0.01840 0.08700
C 	C 	0.37070 0.75180 0.98460 -0.02400
C 	C 	0.18193 0.96873 0.84254 0.12300
C 	C 	0.21160 0.01000 0.82800 -0.16500
C 	C 	0.20560 0.04620 0.80240 0.08400
C 	C 	0.17008 0.04108 0.79124 -0.14600
C 	C 	0.14040 0.99980 0.80580 0.07900
C 	C 	0.14640 0.96370 0.83140 -0.16200
C 	C 	0.54550 0.04420 0.82560 0.35700
C 	C 	0.15990 0.07750 0.76580 0.35100
C 	C 	0.24840 0.78760 0.98720 -0.04600
C 	C 	0.29046 0.78866 0.99188 0.19400
C 	C 	0.32560 0.82480 0.97060 -0.18900
C 	C 	0.31861 0.85971 0.94478 0.06900
C 	C 	0.27651 0.85861 0.94018 -0.01700
C 	C 	0.24140 0.82250 0.96140 0.03800
C 	C 	0.26940 0.89330 0.91300 -0.08100
C 	C 	0.22770 0.89370 0.90700 0.04400
C 	C 	0.19260 0.85670 0.92900 -0.06400
C 	C 	0.19870 0.82110 0.95620 -0.05500
C 	C 	0.35570 0.89890 0.92120 -0.05800
C 	C 	0.40310 0.89450 0.91520 -0.10100
C 	C 	0.22400 0.93210 0.87820 -0.04800
C 	C 	0.18530 0.92740 0.87000 -0.10700
C 	C 	0.92346 0.68976 0.39208 0.12100
C 	C 	0.88980 0.67930 0.38080 -0.16100
C 	C 	0.87570 0.71430 0.35900 0.08200
C 	C 	0.89546 0.75986 0.34828 -0.14900
C 	C 	0.92920 0.77040 0.35940 0.08500
C 	C 	0.94310 0.73530 0.38140 -0.16500
C 	C 	0.97820 0.58970 0.51840 0.08700
C 	C 	0.01360 0.62070 0.48460 -0.02400
C 	C 	0.93873 0.43193 0.34254 0.12400
C 	C 	0.91200 0.46160 0.32800 -0.16600
C 	C 	0.90140 0.45560 0.30240 0.08500
C 	C 	0.91768 0.42008 0.29124 -0.14700
C 	C 	0.94440 0.39040 0.30580 0.08000
C 	C 	0.95490 0.39640 0.33140 -0.16300
C 	C 	0.88020 0.79550 0.32560 0.35700
C 	C 	0.90670 0.40990 0.26580 0.35200
C 	C 	0.97520 0.49840 0.48720 -0.04600
C 	C 	0.96946 0.54046 0.49188 0.19500
C 	C 	0.95460 0.57560 0.47060 -0.18900
C 	C 	0.94551 0.56861 0.44478 0.06900
C 	C 	0.95121 0.52651 0.44018 -0.01700
C 	C 	0.96610 0.49140 0.46140 0.03900
C 	C 	0.94370 0.51940 0.41300 -0.08100
C 	C 	0.94930 0.47770 0.40700 0.04400
C 	C 	0.96430 0.44260 0.42900 -0.06400
C 	C 	0.97270 0.44870 0.45620 -0.05500
C 	C 	0.92990 0.60570 0.42120 -0.05800
C 	C 	0.94030 0.65310 0.41520 -0.10100
C 	C 	0.93970 0.47400 0.37820 -0.04700
C 	C 	0.95260 0.43530 0.37000 -0.10700
C 	C 	0.68446 0.91816 0.39208 0.12100
C 	C 	0.72940 0.93990 0.38080 -0.16100
C 	C 	0.76530 0.92670 0.35900 0.08200
C 	C 	0.75626 0.89186 0.34828 -0.14900
C 	C 	0.71140 0.87020 0.35940 0.08500
C 	C 	0.67550 0.88330 0.38140 -0.16600
C 	C 	0.50340 0.89190 0.51840 0.08700
C 	C 	0.50180 0.89470 0.48460 -0.02400
C 	C 	0.71873 0.22553 0.34254 0.12400
C 	C 	0.76000 0.21040 0.32800 -0.16600
C 	C 	0.79620 0.24200 0.30240 0.08500
C 	C 	0.79108 0.28868 0.29124 -0.14700
C 	C 	0.74980 0.30380 0.30580 0.08000
C 	C 	0.71370 0.27220 0.33140 -0.16300
C 	C 	0.79420 0.87890 0.32560 0.35700
C 	C 	0.82750 0.32430 0.26580 0.35200
C 	C 	0.53760 0.01440 0.48720 -0.04500
C 	C 	0.53866 0.96766 0.49188 0.19400
C 	C 	0.57480 0.95380 0.47060 -0.18900
C 	C 	0.60971 0.98661 0.44478 0.06800
C 	C 	0.60861 0.03331 0.44018 -0.01700
C 	C 	0.57250 0.04720 0.46140 0.03800
C 	C 	0.64330 0.06760 0.41300 -0.08100
C 	C 	0.64370 0.11530 0.40700 0.04400
C 	C 	0.60670 0.12840 0.42900 -0.06500
C 	C 	0.57110 0.09510 0.45620 -0.05400
C 	C 	0.64890 0.97310 0.42120 -0.05800
C 	C 	0.64450 0.93170 0.41520 -0.10100
C 	C 	0.68210 0.14780 0.37820 -0.04700
C 	C 	0.67740 0.19470 0.37000 -0.10700
C 	C 	0.31024 0.07654 0.60792 0.12100
C 	C 	0.32070 0.11020 0.61920 -0.16100
C 	C 	0.28570 0.12430 0.64100 0.08200
C 	C 	0.24014 0.10454 0.65172 -0.14900
C 	C 	0.22960 0.07080 0.64060 0.08500
C 	C 	0.26470 0.05690 0.61860 -0.16500
C 	C 	0.41030 0.02180 0.48160 0.08700
C 	C 	0.37930 0.98640 0.51540 -0.02400
C 	C 	0.56807 0.06127 0.65746 0.12400
C 	C 	0.53840 0.08800 0.67200 -0.16600
C 	C 	0.54440 0.09860 0.69760 0.08500
C 	C 	0.57992 0.08232 0.70876 -0.14700
C 	C 	0.60960 0.05560 0.69420 0.08000
C 	C 	0.60360 0.04510 0.66860 -0.16300
C 	C 	0.20450 0.11980 0.67440 0.35700
C 	C 	0.59010 0.09330 0.73420 0.35200
C 	C 	0.50160 0.02480 0.51280 -0.04600
C 	C 	0.45954 0.03054 0.50812 0.19500
C 	C 	0.42440 0.04540 0.52940 -0.18900
C 	C 	0.43139 0.05449 0.55522 0.06900
C 	C 	0.47349 0.04879 0.55982 -0.01700
C 	C 	0.50860 0.03390 0.53860 0.03900
C 	C 	0.48060 0.05630 0.58700 -0.08100
C 	C 	0.52230 0.05070 0.59300 0.04400
C 	C 	0.55740 0.03570 0.57100 -0.06400
C 	C 	0.55130 0.02730 0.54380 -0.05500
C 	C 	0.39430 0.07010 0.57880 -0.05800
C 	C 	0.34690 0.05970 0.58480 -0.10100
C 	C 	0.52600 0.06030 0.62180 -0.04700
C 	C 	0.56470 0.04740 0.63000 -0.10700
C 	C 	0.08184 0.31554 0.60792 0.12100
C 	C 	0.06010 0.27060 0.61920 -0.16100
C 	C 	0.07330 0.23470 0.64100 0.08200
C 	C 	0.10814 0.24374 0.65172 -0.14900
C 	C 	0.12980 0.28860 0.64060 0.08500
C 	C 	0.11670 0.32450 0.61860 -0.16600
C 	C 	0.10810 0.49660 0.48160 0.08700
C 	C 	0.10530 0.49820 0.51540 -0.02400
C 	C 	0.77447 0.28127 0.65746 0.12400
C 	C 	0.78960 0.24000 0.67200 -0.16600
C 	C 	0.75800 0.20380 0.69760 0.08500
C 	C 	0.71132 0.20892 0.70876 -0.14700
C 	C 	0.69620 0.25020 0.69420 0.08000
C 	C 	0.72780 0.28630 0.66860 -0.16300
C 	C 	0.12110 0.20580 0.67440 0.35700
C 	C 	0.67570 0.17250 0.73420 0.35200
C 	C 	0.98560 0.46240 0.51280 -0.04500
C 	C 	0.03234 0.46134 0.50812 0.19400
C 	C 	0.04620 0.42520 0.52940 -0.18900
C 	C 	0.01339 0.39029 0.55522 0.06800
C 	C 	0.96669 0.39139 0.55982 -0.01700
C 	C 	0.95280 0.42750 0.53860 0.03800
C 	C 	0.93240 0.35670 0.58700 -0.08100
C 	C 	0.88470 0.35630 0.59300 0.04400
C 	C 	0.87160 0.39330 0.57100 -0.06500
C 	C 	0.90490 0.42890 0.54380 -0.05400
C 	C 	0.02690 0.35110 0.57880 -0.05800
C 	C 	0.06830 0.35550 0.58480 -0.10100
C 	C 	0.85220 0.31790 0.62180 -0.04700
C 	C 	0.80530 0.32260 0.63000 -0.10700
C 	C 	0.06554 0.56024 0.10792 0.12100
C 	C 	0.02060 0.57070 0.11920 -0.16200
C 	C 	0.98470 0.53570 0.14100 0.08200
C 	C 	0.99374 0.49014 0.15172 -0.14900
C 	C 	0.03860 0.47960 0.14060 0.08500
C 	C 	0.07450 0.51470 0.11860 -0.16500
C 	C 	0.24660 0.66030 0.98160 0.08700
C 	C 	0.24820 0.62930 0.01540 -0.02400
C 	C 	0.03127 0.81807 0.15746 0.12300
C 	C 	0.99000 0.78840 0.17200 -0.16500
C 	C 	0.95380 0.79440 0.19760 0.08400
C 	C 	0.95892 0.82992 0.20876 -0.14600
C 	C 	0.00020 0.85960 0.19420 0.07900
C 	C 	0.03630 0.85360 0.16860 -0.16200
C 	C 	0.95580 0.45450 0.17440 0.35700
C 	C 	0.92250 0.84010 0.23420 0.35100
C 	C 	0.21240 0.75160 0.01280 -0.04600
C 	C 	0.21134 0.70954 0.00812 0.19400
C 	C 	0.17520 0.67440 0.02940 -0.18900
C 	C 	0.14029 0.68139 0.05522 0.06900
C 	C 	0.14139 0.72349 0.05982 -0.01700
C 	C 	0.17750 0.75860 0.03860 0.03800
C 	C 	0.10670 0.73060 0.08700 -0.08100
C 	C 	0.10630 0.77230 0.09300 0.04400
C 	C 	0.14330 0.80740 0.07100 -0.06400
C 	C 	0.17890 0.80130 0.04380 -0.05500
C 	C 	0.10110 0.64430 0.07880 -0.05800
C 	C 	0.10550 0.59690 0.08480 -0.10100
C 	C 	0.06790 0.77600 0.12180 -0.04800
C 	C 	0.07260 0.81470 0.13000 -0.10700
C 	C 	0.82654 0.33184 0.10792 0.12100
C 	C 	0.86020 0.31010 0.11920 -0.16100
C 	C 	0.87430 0.32330 0.14100 0.08200
C 	C 	0.85454 0.35814 0.15172 -0.14900
C 	C 	0.82080 0.37980 0.14060 0.08500
C 	C 	0.80690 0.36670 0.11860 -0.16500
C 	C 	0.77180 0.35810 0.98160 0.08700
C 	C 	0.73640 0.35530 0.01540 -0.02400
C 	C 	0.81127 0.02447 0.15746 0.12400
C 	C 	0.83800 0.03960 0.17200 -0.16600
C 	C 	0.84860 0.00800 0.19760 0.08500
C 	C 	0.83232 0.96132 0.20876 -0.14800
C 	C 	0.80560 0.94620 0.19420 0.08000
C 	C 	0.79510 0.97780 0.16860 -0.16400
C 	C 	0.86980 0.37110 0.17440 0.35700
C 	C 	0.84330 0.92570 0.23420 0.35200
C 	C 	0.77480 0.23560 0.01280 -0.04600
C 	C 	0.78054 0.28234 0.00812 0.19500
C 	C 	0.79540 0.29620 0.02940 -0.18900
C 	C 	0.80449 0.26339 0.05522 0.06900
C 	C 	0.79879 0.21669 0.05982 -0.01700
C 	C 	0.78390 0.20280 0.03860 0.03900
C 	C 	0.80630 0.18240 0.08700 -0.08100
C 	C 	0.80070 0.13470 0.09300 0.04400
C 	C 	0.78570 0.12160 0.07100 -0.06400
C 	C 	0.77730 0.15490 0.04380 -0.05500
C 	C 	0.82010 0.27690 0.07880 -0.05800
C 	C 	0.80970 0.31830 0.08480 -0.10100
C 	C 	0.81030 0.10220 0.12180 -0.04700
C 	C 	0.79740 0.05530 0.13000 -0.10800
O 	O 	0.64800 0.09730 0.81660 -0.38400
O 	O 	0.59830 0.14870 0.81380 -0.40700
O 	O 	0.11710 0.17440 0.75700 -0.39100
O 	O 	0.06600 0.13060 0.75120 -0.40700
O 	O 	0.68790 0.22620 0.01820 -0.22600
O 	O 	0.53540 0.08610 0.81660 -0.38400
O 	O 	0.58790 0.03750 0.81380 -0.40700
O 	O 	0.12590 0.06860 0.75700 -0.39000
O 	O 	0.18280 0.11820 0.75120 -0.40700
O 	O 	0.29390 0.75560 0.01820 -0.22600
O 	O 	0.84730 0.78540 0.31660 -0.38400
O 	O 	0.89870 0.83790 0.31380 -0.40700
O 	O 	0.92440 0.37590 0.25700 -0.39000
O 	O 	0.88060 0.43280 0.25120 -0.40700
O 	O 	0.97620 0.54390 0.51820 -0.22600
O 	O 	0.83610 0.89800 0.31660 -0.38400
O 	O 	0.78750 0.84830 0.31380 -0.40700
O 	O 	0.81860 0.36710 0.25700 -0.39000
O 	O 	0.86820 0.31600 0.25120 -0.40700
O 	O 	0.50560 0.93790 0.51820 -0.22600
O 	O 	0.21460 0.15270 0.68340 -0.38400
O 	O 	0.16210 0.10130 0.68620 -0.40700
O 	O 	0.62410 0.07560 0.74300 -0.39000
O 	O 	0.56720 0.11940 0.74880 -0.40700
O 	O 	0.45610 0.02380 0.48180 -0.22600
O 	O 	0.10200 0.16390 0.68340 -0.38400
O 	O 	0.15170 0.21250 0.68620 -0.40700
O 	O 	0.63290 0.18140 0.74300 -0.39000
O 	O 	0.68400 0.13180 0.74880 -0.40700
O 	O 	0.06210 0.49440 0.48180 -0.22600
O 	O 	0.91390 0.46460 0.18340 -0.38400
O 	O 	0.96250 0.41210 0.18620 -0.40700
O 	O 	0.93140 0.87410 0.24300 -0.39000
O 	O 	0.88180 0.81720 0.24880 -0.40700
O 	O 	0.24440 0.70610 0.98180 -0.22600
O 	O 	0.90270 0.35200 0.18340 -0.38400
O 	O 	0.85130 0.40170 0.18620 -0.40700
O 	O 	0.82560 0.88290 0.24300 -0.39100
O 	O 	0.86940 0.93400 0.24880 -0.40700
O 	O 	0.77380 0.31210 0.98180 -0.22600
