data_crystal

_cell_length_a 30.78160
_cell_length_b 30.78160
_cell_length_c 46.24410
_cell_angle_alpha 109.44000
_cell_angle_beta  109.44000
_cell_angle_gamma 90.00020

_symmetry_space_group_name_	'P 1'
_symmetry_space_group_name_H-M	'P 1'

loop_
_symmetry_equiv_pos_as_xyz
  x,y,z

loop_
_atom_site_label
_atom_site_type_symbol
_atom_site_fract_x
_atom_site_fract_y
_atom_site_fract_z
_atom_site_charge
Cu	Cu	0.41777 0.86227 0.77874 0.91400
Cu	Cu	0.36097 0.91647 0.77874 0.91400
Cu	Cu	0.11227 0.11097 0.27874 0.91500
Cu	Cu	0.16647 0.16777 0.27874 0.91500
Cu	Cu	0.88903 0.88773 0.72126 0.91500
Cu	Cu	0.83223 0.83353 0.72126 0.91500
Cu	Cu	0.08353 0.63903 0.22126 0.91500
Cu	Cu	0.13773 0.58223 0.22126 0.91500
H 	H 	0.60570 0.01070 0.88840 0.08500
H 	H 	0.54730 0.95170 0.85040 0.02700
H 	H 	0.45350 0.04240 0.85320 0.02500
H 	H 	0.51200 0.10140 0.89120 0.08800
H 	H 	0.76400 0.98730 0.83420 0.09200
H 	H 	0.77310 0.92680 0.79140 0.01100
H 	H 	0.88380 0.00290 0.79720 0.02000
H 	H 	0.87470 0.06330 0.84000 0.09100
H 	H 	0.64830 0.16820 0.97180 0.10700
H 	H 	0.70830 0.08090 0.89700 0.06200
H 	H 	0.83690 0.14180 0.92280 0.05800
H 	H 	0.82660 0.19910 0.96800 0.05700
H 	H 	0.65490 0.06940 0.90660 0.04700
H 	H 	0.59290 0.12860 0.92860 0.07100
H 	H 	0.75360 0.04110 0.86480 0.04800
H 	H 	0.83790 0.09840 0.88060 0.06700
H 	H 	0.28270 0.87770 0.88840 0.08500
H 	H 	0.30310 0.89870 0.85040 0.02700
H 	H 	0.39970 0.81080 0.85320 0.02500
H 	H 	0.37920 0.78980 0.89120 0.08800
H 	H 	0.07020 0.84690 0.83420 0.09100
H 	H 	0.01830 0.86460 0.79140 0.01200
H 	H 	0.91340 0.79430 0.79720 0.01900
H 	H 	0.96530 0.77670 0.84000 0.09100
H 	H 	0.32350 0.80360 0.97180 0.10700
H 	H 	0.18870 0.81610 0.89700 0.06200
H 	H 	0.08590 0.78100 0.92280 0.05800
H 	H 	0.14140 0.76890 0.96800 0.05700
H 	H 	0.25170 0.83720 0.90660 0.04700
H 	H 	0.33570 0.80000 0.92860 0.07100
H 	H 	0.11120 0.82370 0.86480 0.04800
H 	H 	0.04270 0.78220 0.88060 0.06700
H 	H 	0.26070 0.03270 0.38840 0.08500
H 	H 	0.20170 0.05310 0.35040 0.02700
H 	H 	0.29240 0.14970 0.35320 0.02500
H 	H 	0.35140 0.12920 0.39120 0.08800
H 	H 	0.23730 0.82020 0.33420 0.09200
H 	H 	0.17680 0.76830 0.29140 0.01100
H 	H 	0.25290 0.66340 0.29720 0.01900
H 	H 	0.31330 0.71530 0.34000 0.09100
H 	H 	0.41820 0.07350 0.47180 0.10800
H 	H 	0.33090 0.93870 0.39700 0.06100
H 	H 	0.39180 0.83590 0.42280 0.05700
H 	H 	0.44910 0.89140 0.46800 0.05700
H 	H 	0.31940 0.00170 0.40660 0.04700
H 	H 	0.37860 0.08570 0.42860 0.07100
H 	H 	0.29110 0.86120 0.36480 0.04700
H 	H 	0.34840 0.79270 0.38060 0.06800
H 	H 	0.12770 0.35570 0.38840 0.08500
H 	H 	0.14870 0.29730 0.35040 0.02700
H 	H 	0.06080 0.20350 0.35320 0.02500
H 	H 	0.03980 0.26200 0.39120 0.08800
H 	H 	0.09690 0.51400 0.33420 0.09200
H 	H 	0.11460 0.52310 0.29140 0.01100
H 	H 	0.04430 0.63380 0.29720 0.01900
H 	H 	0.02670 0.62470 0.34000 0.09100
H 	H 	0.05360 0.39830 0.47180 0.10700
H 	H 	0.06610 0.45830 0.39700 0.06200
H 	H 	0.03100 0.58690 0.42280 0.05800
H 	H 	0.01890 0.57660 0.46800 0.05700
H 	H 	0.08720 0.40490 0.40660 0.04700
H 	H 	0.05000 0.34290 0.42860 0.07100
H 	H 	0.07370 0.50360 0.36480 0.04800
H 	H 	0.03220 0.58790 0.38060 0.06700
H 	H 	0.96730 0.73930 0.61160 0.08500
H 	H 	0.94690 0.79830 0.64960 0.02700
H 	H 	0.85030 0.70760 0.64680 0.02500
H 	H 	0.87080 0.64860 0.60880 0.08800
H 	H 	0.17980 0.76270 0.66580 0.09200
H 	H 	0.23170 0.82320 0.70860 0.01100
H 	H 	0.33660 0.74710 0.70280 0.01900
H 	H 	0.28470 0.68670 0.66000 0.09100
H 	H 	0.92650 0.58180 0.52820 0.10800
H 	H 	0.06130 0.66910 0.60300 0.06100
H 	H 	0.16410 0.60820 0.57720 0.05700
H 	H 	0.10860 0.55090 0.53200 0.05700
H 	H 	0.99830 0.68060 0.59340 0.04700
H 	H 	0.91430 0.62140 0.57140 0.07100
H 	H 	0.13880 0.70890 0.63520 0.04700
H 	H 	0.20730 0.65160 0.61940 0.06800
H 	H 	0.64430 0.87230 0.61160 0.08500
H 	H 	0.70270 0.85130 0.64960 0.02700
H 	H 	0.79650 0.93920 0.64680 0.02500
H 	H 	0.73800 0.96020 0.60880 0.08800
H 	H 	0.48600 0.90310 0.66580 0.09200
H 	H 	0.47690 0.88540 0.70860 0.01100
H 	H 	0.36620 0.95570 0.70280 0.01900
H 	H 	0.37530 0.97330 0.66000 0.09100
H 	H 	0.60170 0.94640 0.52820 0.10700
H 	H 	0.54170 0.93390 0.60300 0.06200
H 	H 	0.41310 0.96900 0.57720 0.05800
H 	H 	0.42340 0.98110 0.53200 0.05700
H 	H 	0.59510 0.91280 0.59340 0.04700
H 	H 	0.65710 0.95000 0.57140 0.07100
H 	H 	0.49640 0.92630 0.63520 0.04800
H 	H 	0.41210 0.96780 0.61940 0.06700
H 	H 	0.12230 0.71730 0.11160 0.08500
H 	H 	0.10130 0.69690 0.14960 0.02700
H 	H 	0.18920 0.60030 0.14680 0.02500
H 	H 	0.21020 0.62080 0.10880 0.08800
H 	H 	0.15310 0.92980 0.16580 0.09100
H 	H 	0.13540 0.98170 0.20860 0.01200
H 	H 	0.20570 0.08660 0.20280 0.01900
H 	H 	0.22330 0.03470 0.16000 0.09100
H 	H 	0.19640 0.67650 0.02820 0.10700
H 	H 	0.18390 0.81130 0.10300 0.06200
H 	H 	0.21900 0.91410 0.07720 0.05800
H 	H 	0.23110 0.85860 0.03200 0.05700
H 	H 	0.16280 0.74830 0.09340 0.04700
H 	H 	0.20000 0.66430 0.07140 0.07100
H 	H 	0.17630 0.88880 0.13520 0.04800
H 	H 	0.21780 0.95730 0.11940 0.06700
H 	H 	0.98930 0.39430 0.11160 0.08500
H 	H 	0.04830 0.45270 0.14960 0.02700
H 	H 	0.95760 0.54650 0.14680 0.02500
H 	H 	0.89860 0.48800 0.10880 0.08800
H 	H 	0.01270 0.23600 0.16580 0.09200
H 	H 	0.07320 0.22690 0.20860 0.01100
H 	H 	0.99710 0.11620 0.20280 0.02000
H 	H 	0.93670 0.12530 0.16000 0.09100
H 	H 	0.83180 0.35170 0.02820 0.10700
H 	H 	0.91910 0.29170 0.10300 0.06200
H 	H 	0.85820 0.16310 0.07720 0.05800
H 	H 	0.80090 0.17340 0.03200 0.05700
H 	H 	0.93060 0.34510 0.09340 0.04700
H 	H 	0.87140 0.40710 0.07140 0.07100
H 	H 	0.95890 0.24640 0.13520 0.04800
H 	H 	0.90160 0.16210 0.11940 0.06700
C 	C 	0.56464 0.06184 0.89348 0.11500
C 	C 	0.57520 0.01710 0.88140 -0.14900
C 	C 	0.54020 0.98170 0.85860 0.06000
C 	C 	0.49463 0.99123 0.84806 -0.11400
C 	C 	0.48400 0.03600 0.86020 0.06200
C 	C 	0.51900 0.07140 0.88300 -0.15100
C 	C 	0.45490 0.95140 0.82280 0.36600
C 	C 	0.81839 0.03129 0.84138 0.12600
C 	C 	0.78800 0.99040 0.82680 -0.17200
C 	C 	0.79350 0.95420 0.80120 0.09500
C 	C 	0.82934 0.95884 0.79008 -0.16000
C 	C 	0.85980 0.99970 0.80460 0.08600
C 	C 	0.85430 0.03590 0.83020 -0.16600
C 	C 	0.83860 0.92340 0.76340 0.38300
C 	C 	0.75379 0.20819 0.98598 -0.04300
C 	C 	0.71153 0.20583 0.99046 0.17600
C 	C 	0.67650 0.16980 0.96880 -0.17300
C 	C 	0.68398 0.13608 0.94276 0.06100
C 	C 	0.72625 0.13845 0.93830 -0.00800
C 	C 	0.76110 0.17440 0.95980 0.03300
C 	C 	0.73250 0.10430 0.91120 -0.08900
C 	C 	0.77430 0.10480 0.90520 0.05600
C 	C 	0.80900 0.14040 0.92640 -0.07300
C 	C 	0.80250 0.17530 0.95380 -0.04800
C 	C 	0.64710 0.09660 0.91920 -0.05200
C 	C 	0.60080 0.10130 0.91640 -0.10200
C 	C 	0.77630 0.06660 0.87680 -0.05400
C 	C 	0.81580 0.07230 0.86940 -0.10300
C 	C 	0.32884 0.83164 0.89348 0.11500
C 	C 	0.30620 0.86430 0.88140 -0.15000
C 	C 	0.31840 0.87690 0.85860 0.06000
C 	C 	0.35343 0.85683 0.84806 -0.11400
C 	C 	0.37620 0.82420 0.86020 0.06100
C 	C 	0.36400 0.81160 0.88300 -0.15100
C 	C 	0.36790 0.87140 0.82280 0.36600
C 	C 	0.02299 0.81009 0.84138 0.12500
C 	C 	0.03880 0.83640 0.82680 -0.17000
C 	C 	0.00770 0.84700 0.80120 0.09300
C 	C 	0.96074 0.83124 0.79008 -0.15900
C 	C 	0.94480 0.80490 0.80460 0.08700
C 	C 	0.97590 0.79430 0.83020 -0.16600
C 	C 	0.92480 0.84000 0.76340 0.38200
C 	C 	0.23219 0.77779 0.98598 -0.04300
C 	C 	0.27893 0.78463 0.99046 0.17600
C 	C 	0.29230 0.79900 0.96880 -0.17300
C 	C 	0.25878 0.80668 0.94276 0.06100
C 	C 	0.21205 0.79985 0.93830 -0.00800
C 	C 	0.19870 0.78540 0.95980 0.03300
C 	C 	0.17870 0.80690 0.91120 -0.08900
C 	C 	0.13090 0.80040 0.90520 0.05600
C 	C 	0.11740 0.78600 0.92640 -0.07300
C 	C 	0.15130 0.77850 0.95380 -0.04800
C 	C 	0.27210 0.82260 0.91920 -0.05200
C 	C 	0.31560 0.81510 0.91640 -0.10200
C 	C 	0.10050 0.81020 0.87680 -0.05400
C 	C 	0.05360 0.79710 0.86940 -0.10300
C 	C 	0.31184 0.07884 0.39348 0.11500
C 	C 	0.26710 0.05620 0.38140 -0.14900
C 	C 	0.23170 0.06840 0.35860 0.06000
C 	C 	0.24123 0.10343 0.34806 -0.11400
C 	C 	0.28600 0.12620 0.36020 0.06100
C 	C 	0.32140 0.11400 0.38300 -0.15100
C 	C 	0.20140 0.11790 0.32280 0.36600
C 	C 	0.28129 0.77299 0.34138 0.12600
C 	C 	0.24040 0.78880 0.32680 -0.17200
C 	C 	0.20420 0.75770 0.30120 0.09500
C 	C 	0.20884 0.71074 0.29008 -0.16000
C 	C 	0.24970 0.69480 0.30460 0.08800
C 	C 	0.28590 0.72590 0.33020 -0.16700
C 	C 	0.17340 0.67480 0.26340 0.38300
C 	C 	0.45819 0.98219 0.48598 -0.04400
C 	C 	0.45583 0.02893 0.49046 0.17700
C 	C 	0.41980 0.04230 0.46880 -0.17400
C 	C 	0.38608 0.00878 0.44276 0.06200
C 	C 	0.38845 0.96205 0.43830 -0.00900
C 	C 	0.42440 0.94870 0.45980 0.03400
C 	C 	0.35430 0.92870 0.41120 -0.08800
C 	C 	0.35480 0.88090 0.40520 0.05500
C 	C 	0.39040 0.86740 0.42640 -0.07300
C 	C 	0.42530 0.90130 0.45380 -0.04900
C 	C 	0.34660 0.02210 0.41920 -0.05200
C 	C 	0.35130 0.06560 0.41640 -0.10200
C 	C 	0.31660 0.85050 0.37680 -0.05400
C 	C 	0.32230 0.80360 0.36940 -0.10300
C 	C 	0.08164 0.31464 0.39348 0.11500
C 	C 	0.11430 0.32520 0.38140 -0.15000
C 	C 	0.12690 0.29020 0.35860 0.06000
C 	C 	0.10683 0.24463 0.34806 -0.11400
C 	C 	0.07420 0.23400 0.36020 0.06100
C 	C 	0.06160 0.26900 0.38300 -0.15100
C 	C 	0.12140 0.20490 0.32280 0.36600
C 	C 	0.06009 0.56839 0.34138 0.12600
C 	C 	0.08640 0.53800 0.32680 -0.17200
C 	C 	0.09700 0.54350 0.30120 0.09500
C 	C 	0.08124 0.57934 0.29008 -0.16000
C 	C 	0.05490 0.60980 0.30460 0.08800
C 	C 	0.04430 0.60430 0.33020 -0.16700
C 	C 	0.09000 0.58860 0.26340 0.38300
C 	C 	0.02779 0.50379 0.48598 -0.04300
C 	C 	0.03463 0.46153 0.49046 0.17600
C 	C 	0.04900 0.42650 0.46880 -0.17300
C 	C 	0.05668 0.43398 0.44276 0.06100
C 	C 	0.04985 0.47625 0.43830 -0.00800
C 	C 	0.03540 0.51110 0.45980 0.03300
C 	C 	0.05690 0.48250 0.41120 -0.08900
C 	C 	0.05040 0.52430 0.40520 0.05600
C 	C 	0.03600 0.55900 0.42640 -0.07300
C 	C 	0.02850 0.55250 0.45380 -0.04800
C 	C 	0.07260 0.39710 0.41920 -0.05200
C 	C 	0.06510 0.35080 0.41640 -0.10200
C 	C 	0.06020 0.52630 0.37680 -0.05400
C 	C 	0.04710 0.56580 0.36940 -0.10300
C 	C 	0.92116 0.68816 0.60652 0.11500
C 	C 	0.94380 0.73290 0.61860 -0.14900
C 	C 	0.93160 0.76830 0.64140 0.06000
C 	C 	0.89657 0.75877 0.65194 -0.11400
C 	C 	0.87380 0.71400 0.63980 0.06100
C 	C 	0.88600 0.67860 0.61700 -0.15100
C 	C 	0.88210 0.79860 0.67720 0.36600
C 	C 	0.22701 0.71871 0.65862 0.12600
C 	C 	0.21120 0.75960 0.67320 -0.17200
C 	C 	0.24230 0.79580 0.69880 0.09500
C 	C 	0.28926 0.79116 0.70992 -0.16000
C 	C 	0.30520 0.75030 0.69540 0.08800
C 	C 	0.27410 0.71410 0.66980 -0.16700
C 	C 	0.32520 0.82660 0.73660 0.38300
C 	C 	0.01781 0.54181 0.51402 -0.04400
C 	C 	0.97107 0.54417 0.50954 0.17700
C 	C 	0.95770 0.58020 0.53120 -0.17400
C 	C 	0.99122 0.61392 0.55724 0.06200
C 	C 	0.03795 0.61155 0.56170 -0.00900
C 	C 	0.05130 0.57560 0.54020 0.03400
C 	C 	0.07130 0.64570 0.58880 -0.08800
C 	C 	0.11910 0.64520 0.59480 0.05500
C 	C 	0.13260 0.60960 0.57360 -0.07300
C 	C 	0.09870 0.57470 0.54620 -0.04900
C 	C 	0.97790 0.65340 0.58080 -0.05200
C 	C 	0.93440 0.64870 0.58360 -0.10200
C 	C 	0.14950 0.68340 0.62320 -0.05400
C 	C 	0.19640 0.67770 0.63060 -0.10300
C 	C 	0.68536 0.91836 0.60652 0.11500
C 	C 	0.67480 0.88570 0.61860 -0.15000
C 	C 	0.70980 0.87310 0.64140 0.06000
C 	C 	0.75537 0.89317 0.65194 -0.11400
C 	C 	0.76600 0.92580 0.63980 0.06100
C 	C 	0.73100 0.93840 0.61700 -0.15100
C 	C 	0.79510 0.87860 0.67720 0.36600
C 	C 	0.43161 0.93991 0.65862 0.12600
C 	C 	0.46200 0.91360 0.67320 -0.17200
C 	C 	0.45650 0.90300 0.69880 0.09500
C 	C 	0.42066 0.91876 0.70992 -0.16000
C 	C 	0.39020 0.94510 0.69540 0.08800
C 	C 	0.39570 0.95570 0.66980 -0.16700
C 	C 	0.41140 0.91000 0.73660 0.38300
C 	C 	0.49621 0.97221 0.51402 -0.04300
C 	C 	0.53847 0.96537 0.50954 0.17600
C 	C 	0.57350 0.95100 0.53120 -0.17300
C 	C 	0.56602 0.94332 0.55724 0.06100
C 	C 	0.52375 0.95015 0.56170 -0.00800
C 	C 	0.48890 0.96460 0.54020 0.03300
C 	C 	0.51750 0.94310 0.58880 -0.08900
C 	C 	0.47570 0.94960 0.59480 0.05600
C 	C 	0.44100 0.96400 0.57360 -0.07300
C 	C 	0.44750 0.97150 0.54620 -0.04800
C 	C 	0.60290 0.92740 0.58080 -0.05200
C 	C 	0.64920 0.93490 0.58360 -0.10200
C 	C 	0.47370 0.93980 0.62320 -0.05400
C 	C 	0.43420 0.95290 0.63060 -0.10300
C 	C 	0.16836 0.67116 0.10652 0.11500
C 	C 	0.13570 0.69380 0.11860 -0.15000
C 	C 	0.12310 0.68160 0.14140 0.06000
C 	C 	0.14317 0.64657 0.15194 -0.11400
C 	C 	0.17580 0.62380 0.13980 0.06100
C 	C 	0.18840 0.63600 0.11700 -0.15100
C 	C 	0.12860 0.63210 0.17720 0.36600
C 	C 	0.18991 0.97701 0.15862 0.12500
C 	C 	0.16360 0.96120 0.17320 -0.17000
C 	C 	0.15300 0.99230 0.19880 0.09300
C 	C 	0.16876 0.03926 0.20992 -0.15900
C 	C 	0.19510 0.05520 0.19540 0.08700
C 	C 	0.20570 0.02410 0.16980 -0.16600
C 	C 	0.16000 0.07520 0.23660 0.38200
C 	C 	0.22221 0.76781 0.01402 -0.04300
C 	C 	0.21537 0.72107 0.00954 0.17600
C 	C 	0.20100 0.70770 0.03120 -0.17300
C 	C 	0.19332 0.74122 0.05724 0.06100
C 	C 	0.20015 0.78795 0.06170 -0.00800
C 	C 	0.21460 0.80130 0.04020 0.03300
C 	C 	0.19310 0.82130 0.08880 -0.08900
C 	C 	0.19960 0.86910 0.09480 0.05600
C 	C 	0.21400 0.88260 0.07360 -0.07300
C 	C 	0.22150 0.84870 0.04620 -0.04800
C 	C 	0.17740 0.72790 0.08080 -0.05200
C 	C 	0.18490 0.68440 0.08360 -0.10200
C 	C 	0.18980 0.89950 0.12320 -0.05400
C 	C 	0.20290 0.94640 0.13060 -0.10300
C 	C 	0.93816 0.43536 0.10652 0.11500
C 	C 	0.98290 0.42480 0.11860 -0.14900
C 	C 	0.01830 0.45980 0.14140 0.06000
C 	C 	0.00877 0.50537 0.15194 -0.11400
C 	C 	0.96400 0.51600 0.13980 0.06200
C 	C 	0.92860 0.48100 0.11700 -0.15100
C 	C 	0.04860 0.54510 0.17720 0.36600
C 	C 	0.96871 0.18161 0.15862 0.12600
C 	C 	0.00960 0.21200 0.17320 -0.17200
C 	C 	0.04580 0.20650 0.19880 0.09500
C 	C 	0.04116 0.17066 0.20992 -0.16000
C 	C 	0.00030 0.14020 0.19540 0.08600
C 	C 	0.96410 0.14570 0.16980 -0.16600
C 	C 	0.07660 0.16140 0.23660 0.38300
C 	C 	0.79181 0.24621 0.01402 -0.04300
C 	C 	0.79417 0.28847 0.00954 0.17600
C 	C 	0.83020 0.32350 0.03120 -0.17300
C 	C 	0.86392 0.31602 0.05724 0.06100
C 	C 	0.86155 0.27375 0.06170 -0.00800
C 	C 	0.82560 0.23890 0.04020 0.03300
C 	C 	0.89570 0.26750 0.08880 -0.08900
C 	C 	0.89520 0.22570 0.09480 0.05600
C 	C 	0.85960 0.19100 0.07360 -0.07300
C 	C 	0.82470 0.19750 0.04620 -0.04800
C 	C 	0.90340 0.35290 0.08080 -0.05200
C 	C 	0.89870 0.39920 0.08360 -0.10200
C 	C 	0.93340 0.22370 0.12320 -0.05400
C 	C 	0.92770 0.18420 0.13060 -0.10300
O 	O 	0.46600 0.91020 0.81400 -0.38400
O 	O 	0.41440 0.95890 0.81200 -0.41800
O 	O 	0.87340 0.93160 0.75540 -0.41400
O 	O 	0.81550 0.88380 0.74780 -0.43300
O 	O 	0.70340 0.23960 0.01520 -0.18200
O 	O 	0.34800 0.90380 0.81400 -0.38400
O 	O 	0.39760 0.85310 0.81200 -0.41800
O 	O 	0.88200 0.82380 0.75540 -0.41300
O 	O 	0.93230 0.86400 0.74780 -0.43300
O 	O 	0.31180 0.77560 0.01520 -0.18200
O 	O 	0.16020 0.09800 0.31400 -0.38400
O 	O 	0.20890 0.14760 0.31200 -0.41800
O 	O 	0.18160 0.63200 0.25540 -0.41400
O 	O 	0.13380 0.68230 0.24780 -0.43300
O 	O 	0.48960 0.06180 0.51520 -0.18200
O 	O 	0.15380 0.21600 0.31400 -0.38400
O 	O 	0.10310 0.16440 0.31200 -0.41800
O 	O 	0.07380 0.62340 0.25540 -0.41400
O 	O 	0.11400 0.56550 0.24780 -0.43300
O 	O 	0.02560 0.45340 0.51520 -0.18200
O 	O 	0.90200 0.83980 0.68600 -0.38400
O 	O 	0.85240 0.79110 0.68800 -0.41800
O 	O 	0.36800 0.81840 0.74460 -0.41400
O 	O 	0.31770 0.86620 0.75220 -0.43300
O 	O 	0.93820 0.51040 0.48480 -0.18200
O 	O 	0.78400 0.84620 0.68600 -0.38400
O 	O 	0.83560 0.89690 0.68800 -0.41800
O 	O 	0.37660 0.92620 0.74460 -0.41400
O 	O 	0.43450 0.88600 0.75220 -0.43300
O 	O 	0.54660 0.97440 0.48480 -0.18200
O 	O 	0.09620 0.65200 0.18600 -0.38400
O 	O 	0.14690 0.60240 0.18800 -0.41800
O 	O 	0.17620 0.11800 0.24460 -0.41300
O 	O 	0.13600 0.06770 0.25220 -0.43300
O 	O 	0.22440 0.68820 0.98480 -0.18200
O 	O 	0.08980 0.53400 0.18600 -0.38400
O 	O 	0.04110 0.58560 0.18800 -0.41800
O 	O 	0.06840 0.12660 0.24460 -0.41400
O 	O 	0.11620 0.18450 0.25220 -0.43300
O 	O 	0.76040 0.29660 0.98480 -0.18200
