data_crystal

_cell_length_a 17.11680
_cell_length_b 17.22150
_cell_length_c 17.22150
_cell_angle_alpha 90.00000
_cell_angle_beta  90.00000
_cell_angle_gamma 90.00000

_symmetry_space_group_name_	'P 1'
_symmetry_space_group_name_H-M	'P 1'

loop_
_symmetry_equiv_pos_as_xyz
  x,y,z

loop_
_atom_site_label
_atom_site_type_symbol
_atom_site_fract_x
_atom_site_fract_y
_atom_site_fract_z
_atom_site_charge
Zn	Zn	0.05519 0.93462 0.43462 1.20900
Zn	Zn	0.05519 0.06538 0.56538 1.21100
Zn	Zn	0.18439 0.93437 0.56563 1.21000
Zn	Zn	0.18439 0.06563 0.43437 1.21300
H 	H 	0.04505 0.89789 0.19781 0.03400
H 	H 	0.04846 0.89642 0.05068 0.05400
H 	H 	0.18544 0.10013 0.20162 0.04000
H 	H 	0.50465 0.88967 0.69860 0.03200
H 	H 	0.26401 0.21327 0.04224 0.04400
H 	H 	0.26992 0.14597 0.12663 0.03900
H 	H 	0.18226 0.20856 0.11338 0.03700
H 	H 	0.04505 0.10211 0.80219 0.04000
H 	H 	0.04846 0.10358 0.94932 0.04800
H 	H 	0.18603 0.89909 0.80007 0.04600
H 	H 	0.20754 0.76744 0.93846 0.03900
H 	H 	0.29520 0.83003 0.92521 0.03800
H 	H 	0.21345 0.83474 0.85407 0.03200
H 	H 	0.04505 0.30219 0.60211 0.03800
H 	H 	0.04846 0.44932 0.60358 0.03900
H 	H 	0.18603 0.30007 0.39909 0.04400
H 	H 	0.54635 0.79894 0.65693 0.03700
H 	H 	0.21345 0.35407 0.33474 0.03100
H 	H 	0.29520 0.42521 0.33003 0.04000
H 	H 	0.20754 0.43846 0.26744 0.04100
H 	H 	0.04505 0.69781 0.39789 0.02900
H 	H 	0.04846 0.55068 0.39642 0.06300
H 	H 	0.18544 0.70162 0.60013 0.02700
H 	H 	0.81840 0.09066 0.59066 0.04100
H 	H 	0.66990 0.08921 0.58921 0.04800
H 	H 	0.81840 0.90934 0.40934 0.04100
H 	H 	0.66990 0.91079 0.41079 0.04600
H 	H 	0.41865 0.90881 0.59119 0.06300
H 	H 	0.46295 0.84800 0.60787 0.02600
H 	H 	0.41865 0.09119 0.40881 0.05500
C 	C 	0.11730 0.00050 0.29080 0.42400
C 	C 	0.11530 0.99950 0.20450 -0.15200
C 	C 	0.07870 0.94500 0.16550 0.04100
C 	C 	0.08050 0.94400 0.08390 -0.05000
C 	C 	0.11860 0.99710 0.04420 -0.01000
C 	C 	0.15430 0.05060 0.08170 0.08400
C 	C 	0.15350 0.05290 0.16780 0.01500
C 	C 	0.22910 0.17340 0.08210 -0.02200
C 	C 	0.11730 0.99950 0.70920 0.36000
C 	C 	0.11530 0.00050 0.79550 -0.08000
C 	C 	0.07870 0.05500 0.83450 0.01600
C 	C 	0.08050 0.05600 0.91610 -0.04700
C 	C 	0.11860 0.00290 0.95580 0.01500
C 	C 	0.15430 0.94940 0.91830 0.06500
C 	C 	0.15350 0.94710 0.83220 -0.02900
C 	C 	0.22910 0.82660 0.91790 -0.01800
C 	C 	0.11730 0.20920 0.49950 0.38800
C 	C 	0.11530 0.29550 0.50050 -0.10600
C 	C 	0.07870 0.33450 0.55500 0.01300
C 	C 	0.08050 0.41610 0.55600 -0.03100
C 	C 	0.11860 0.45580 0.50290 -0.05400
C 	C 	0.15430 0.41830 0.44940 0.09400
C 	C 	0.15350 0.33220 0.44710 -0.01900
C 	C 	0.22910 0.41790 0.32660 -0.01700
C 	C 	0.11730 0.79080 0.50050 0.40700
C 	C 	0.11530 0.70450 0.49950 -0.16100
C 	C 	0.07870 0.66550 0.44500 0.06900
C 	C 	0.08050 0.58390 0.44400 -0.10000
C 	C 	0.11860 0.54420 0.49710 0.09200
C 	C 	0.15430 0.58170 0.55060 -0.10000
C 	C 	0.15350 0.66780 0.55290 0.06100
C 	C 	0.78590 0.04980 0.54980 0.01400
C 	C 	0.70400 0.04900 0.54900 -0.06400
C 	C 	0.78590 0.95020 0.45020 0.00600
C 	C 	0.70400 0.95100 0.45100 -0.07400
C 	C 	0.53240 0.95094 0.54906 0.12800
C 	C 	0.45080 0.94980 0.55020 -0.09600
C 	C 	0.51890 0.85750 0.64250 -0.00100
C 	C 	0.53240 0.04906 0.45094 -0.00900
C 	C 	0.45080 0.05020 0.44980 -0.04400
C 	C 	0.90860 -0.00000 0.50000 0.22800
C 	C 	0.82820 -0.00000 0.50000 -0.06300
C 	C 	0.65980 -0.00000 0.50000 0.06900
C 	C 	0.57850 -0.00000 0.50000 -0.05600
C 	C 	0.41530 -0.00000 0.50000 0.02000
C 	C 	0.32370 -0.00000 0.50000 0.18000
O 	O 	0.07200 0.95040 0.32523 -0.51000
O 	O 	0.15770 0.04830 0.32540 -0.52100
O 	O 	0.19310 0.11410 0.03730 -0.17600
O 	O 	0.07200 0.04960 0.67477 -0.48200
O 	O 	0.15770 0.95170 0.67460 -0.51000
O 	O 	0.19310 0.88590 0.96270 -0.18300
O 	O 	0.07200 0.17477 0.54960 -0.49500
O 	O 	0.15770 0.17460 0.45170 -0.51300
O 	O 	0.19310 0.46270 0.38590 -0.18700
O 	O 	0.07200 0.82523 0.45040 -0.50000
O 	O 	0.15770 0.82540 0.54830 -0.52100
O 	O 	0.94420 0.94750 0.44750 -0.44100
O 	O 	0.94420 0.05250 0.55250 -0.43600
O 	O 	0.29100 0.94600 0.55400 -0.46000
O 	O 	0.57070 0.90100 0.59900 -0.20600
O 	O 	0.29100 0.05400 0.44600 -0.45100
O 	O 	0.11900 -0.00000 0.50000 -0.96100
Zn	Zn	0.94481 0.43462 0.06538 1.21200
Zn	Zn	0.94481 0.56538 0.93462 1.21000
Zn	Zn	0.81561 0.56563 0.06563 1.21300
Zn	Zn	0.81561 0.43437 0.93437 1.21000
H 	H 	0.95495 0.19781 0.10211 0.03900
H 	H 	0.95154 0.05068 0.10358 0.05900
H 	H 	0.81397 0.19993 0.89909 0.04600
H 	H 	0.51943 0.67852 0.10209 0.03400
H 	H 	0.81657 0.09951 0.78167 0.04000
H 	H 	0.74397 0.13651 0.85316 0.03600
H 	H 	0.72327 0.04623 0.79738 0.04500
H 	H 	0.95495 0.80219 0.89789 0.03500
H 	H 	0.95154 0.94932 0.89642 0.04400
H 	H 	0.81397 0.80007 0.10091 0.03900
H 	H 	0.79927 0.85806 0.17590 0.03200
H 	H 	0.70597 0.91134 0.16020 0.03800
H 	H 	0.77857 0.94834 0.23169 0.03800
H 	H 	0.95495 0.60211 0.69781 0.02700
H 	H 	0.95154 0.60358 0.55068 0.06300
H 	H 	0.81456 0.39987 0.70162 0.02700
H 	H 	0.44719 0.68279 0.18279 0.03900
H 	H 	0.95495 0.39789 0.30219 0.03900
H 	H 	0.95154 0.39642 0.44932 0.03900
H 	H 	0.81397 0.60091 0.30007 0.04400
H 	H 	0.70597 0.66020 0.41134 0.03800
H 	H 	0.79927 0.67590 0.35806 0.03200
H 	H 	0.77857 0.73169 0.44834 0.04100
H 	H 	0.18160 0.59066 0.90934 0.04200
H 	H 	0.33010 0.58921 0.91079 0.04600
H 	H 	0.18160 0.40934 0.09066 0.04100
H 	H 	0.33010 0.41079 0.08921 0.04700
H 	H 	0.58135 0.59119 0.09119 0.06400
H 	H 	0.51943 0.60209 0.17852 0.03200
H 	H 	0.58135 0.40881 0.90881 0.05400
C 	C 	0.88270 0.29080 0.99950 0.36000
C 	C 	0.88470 0.20450 0.00050 -0.08300
C 	C 	0.92130 0.16550 0.05500 0.02500
C 	C 	0.91950 0.08390 0.05600 -0.06100
C 	C 	0.88140 0.04420 0.00290 0.05000
C 	C 	0.84570 0.08170 0.94940 0.05300
C 	C 	0.84650 0.16780 0.94710 -0.02400
C 	C 	0.77090 0.08210 0.82660 -0.02300
C 	C 	0.88270 0.70920 0.00050 0.42400
C 	C 	0.88470 0.79550 0.99950 -0.14800
C 	C 	0.92130 0.83450 0.94500 0.03300
C 	C 	0.91950 0.91610 0.94400 -0.03700
C 	C 	0.88140 0.95580 0.99710 -0.04600
C 	C 	0.84570 0.91830 0.05060 0.09700
C 	C 	0.84650 0.83220 0.05290 0.01000
C 	C 	0.77090 0.91790 0.17340 -0.01800
C 	C 	0.88270 0.49950 0.79080 0.40700
C 	C 	0.88470 0.50050 0.70450 -0.16100
C 	C 	0.92130 0.55500 0.66550 0.06800
C 	C 	0.91950 0.55600 0.58390 -0.10000
C 	C 	0.88140 0.50290 0.54420 0.09300
C 	C 	0.84570 0.44940 0.58170 -0.10100
C 	C 	0.84650 0.44710 0.66780 0.06100
C 	C 	0.88270 0.50050 0.20920 0.38800
C 	C 	0.88470 0.49950 0.29550 -0.10500
C 	C 	0.92130 0.44500 0.33450 0.01400
C 	C 	0.91950 0.44400 0.41610 -0.03000
C 	C 	0.88140 0.49710 0.45580 -0.05500
C 	C 	0.84570 0.55060 0.41830 0.09500
C 	C 	0.84650 0.55290 0.33220 -0.01900
C 	C 	0.77090 0.67340 0.41790 -0.01800
C 	C 	0.21410 0.54980 0.95020 0.00500
C 	C 	0.29600 0.54900 0.95100 -0.07400
C 	C 	0.21410 0.45020 0.04980 0.01400
C 	C 	0.29600 0.45100 0.04900 -0.06400
C 	C 	0.46760 0.54906 0.04906 0.13700
C 	C 	0.54920 0.55020 0.05020 -0.08900
C 	C 	0.48110 0.64250 0.14250 -0.00500
C 	C 	0.46760 0.45094 0.95094 -0.01900
C 	C 	0.54920 0.44980 0.94980 -0.05400
C 	C 	0.09140 0.50000 -0.00000 0.22900
C 	C 	0.17180 0.50000 -0.00000 -0.06200
C 	C 	0.34020 0.50000 -0.00000 0.06900
C 	C 	0.42150 0.50000 -0.00000 -0.05500
C 	C 	0.58470 0.50000 -0.00000 0.02200
C 	C 	0.67630 0.50000 -0.00000 0.18100
O 	O 	0.92800 0.32523 0.04960 -0.48200
O 	O 	0.84230 0.32540 0.95170 -0.51000
O 	O 	0.80690 0.03730 0.88590 -0.17300
O 	O 	0.92800 0.67477 0.95040 -0.51100
O 	O 	0.84230 0.67460 0.04830 -0.52100
O 	O 	0.80690 0.96270 0.11410 -0.18600
O 	O 	0.92800 0.54960 0.82523 -0.50100
O 	O 	0.84230 0.45170 0.82540 -0.52100
O 	O 	0.92800 0.45040 0.17477 -0.49400
O 	O 	0.84230 0.54830 0.17460 -0.51300
O 	O 	0.80690 0.61410 0.46270 -0.18700
O 	O 	0.05580 0.44750 0.05250 -0.43500
O 	O 	0.05580 0.55250 0.94750 -0.44300
O 	O 	0.70900 0.55400 0.05400 -0.45100
O 	O 	0.42930 0.59900 0.09900 -0.20300
O 	O 	0.70900 0.44600 0.94600 -0.46000
O 	O 	0.88100 0.50000 -0.00000 -0.96000
H 	H 	0.18753 0.54891 0.59767 0.05400
H 	H 	0.56684 0.08912 0.41088 0.03300
H 	H 	0.81247 0.40233 0.54891 0.05500
H 	H 	0.43316 0.41088 0.91088 0.03200
