data_crystal

_cell_length_a 15.09580
_cell_length_b 17.00710
_cell_length_c 17.48420
_cell_angle_alpha 90.00000
_cell_angle_beta  90.00000
_cell_angle_gamma 90.00000

_symmetry_space_group_name_	'P 1'
_symmetry_space_group_name_H-M	'P 1'

loop_
_symmetry_equiv_pos_as_xyz
  x,y,z

loop_
_atom_site_label
_atom_site_type_symbol
_atom_site_fract_x
_atom_site_fract_y
_atom_site_fract_z
_atom_site_charge
Ni	Ni	0.51660 0.93150 0.83710 1.00600
Ni	Ni	0.99190 0.43380 0.93540 1.00400
Ni	Ni	0.98340 0.93150 0.33710 1.00500
Ni	Ni	0.50810 0.43380 0.43540 1.00900
H 	H 	0.17930 0.09010 0.64810 0.10800
H 	H 	0.70300 0.25730 0.69270 0.11900
H 	H 	0.79830 0.75280 0.08620 0.11700
H 	H 	0.31150 0.60980 0.13420 0.11600
H 	H 	0.97240 0.06090 0.47310 -0.01100
H 	H 	0.05040 0.09740 0.57880 0.08100
H 	H 	0.24520 0.94870 0.51360 0.09200
H 	H 	0.16070 0.91750 0.40890 -0.03800
H 	H 	0.40080 0.07200 0.80660 -0.02500
H 	H 	0.29130 0.11850 0.72900 0.08400
H 	H 	0.29310 0.91030 0.61710 0.09100
H 	H 	0.40600 0.87120 0.69730 -0.04600
H 	H 	0.54490 0.03660 0.69920 -0.02700
H 	H 	0.60890 0.15240 0.66260 0.08800
H 	H 	0.72180 0.16590 0.87250 0.08900
H 	H 	0.65440 0.04870 0.90120 -0.02800
H 	H 	0.80470 0.37380 0.94570 -0.04600
H 	H 	0.70260 0.29820 0.88140 0.09600
H 	H 	0.85780 0.31260 0.69410 0.09300
H 	H 	0.95490 0.38850 0.76350 -0.02700
H 	H 	0.70810 0.87950 0.83410 -0.02800
H 	H 	0.80660 0.80080 0.89760 0.07600
H 	H 	0.64640 0.81460 0.08290 0.04600
H 	H 	0.55230 0.89190 0.01220 0.03900
H 	H 	0.85180 0.55220 0.87060 -0.03300
H 	H 	0.78380 0.66850 0.90220 0.10600
H 	H 	0.88530 0.64320 0.11500 0.10000
H 	H 	0.95080 0.53000 0.07570 -0.04100
H 	H 	0.09480 0.58360 0.96860 -0.06500
H 	H 	0.19840 0.63440 0.05080 0.10700
H 	H 	0.21610 0.42010 0.15060 0.09800
H 	H 	0.10980 0.37710 0.06590 -0.04800
H 	H 	0.52530 0.56220 0.30180 -0.02700
H 	H 	0.44750 0.60580 0.19770 0.08900
H 	H 	0.24810 0.46050 0.25960 0.09900
H 	H 	0.33150 0.42410 0.36290 -0.04300
H 	H 	0.32070 0.09010 0.14810 0.10800
H 	H 	0.79700 0.25730 0.19270 0.12000
H 	H 	0.70170 0.75280 0.58620 0.11800
H 	H 	0.18850 0.60980 0.63420 0.11200
H 	H 	0.52760 0.06090 0.97310 -0.01000
H 	H 	0.44960 0.09740 0.07880 0.06700
H 	H 	0.25480 0.94870 0.01360 0.08000
H 	H 	0.33930 0.91750 0.90890 -0.02300
H 	H 	0.09920 0.07200 0.30660 -0.02400
H 	H 	0.20870 0.11850 0.22900 0.08400
H 	H 	0.20690 0.91030 0.11710 0.09300
H 	H 	0.09400 0.87120 0.19730 -0.04300
H 	H 	0.95510 0.03660 0.19920 -0.02400
H 	H 	0.89110 0.15240 0.16260 0.09100
H 	H 	0.77820 0.16590 0.37250 0.09300
H 	H 	0.84560 0.04870 0.40120 -0.02400
H 	H 	0.69530 0.37380 0.44570 -0.03900
H 	H 	0.79740 0.29820 0.38140 0.09900
H 	H 	0.64220 0.31260 0.19410 0.09400
H 	H 	0.54510 0.38850 0.26350 -0.02700
H 	H 	0.79190 0.87950 0.33410 -0.03900
H 	H 	0.69340 0.80080 0.39760 0.09700
H 	H 	0.85360 0.81460 0.58290 0.09200
H 	H 	0.94770 0.89190 0.51220 -0.02500
H 	H 	0.64820 0.55220 0.37060 -0.02600
H 	H 	0.71620 0.66850 0.40220 0.09100
H 	H 	0.61470 0.64320 0.61500 0.08900
H 	H 	0.54920 0.53000 0.57570 -0.02900
H 	H 	0.40520 0.58360 0.46860 -0.02600
H 	H 	0.30160 0.63440 0.55080 0.08900
H 	H 	0.28390 0.42010 0.65060 0.09400
H 	H 	0.39020 0.37710 0.56590 -0.05000
H 	H 	0.97470 0.56220 0.80180 -0.02500
H 	H 	0.05250 0.60580 0.69770 0.08700
H 	H 	0.25190 0.46050 0.75960 0.09800
H 	H 	0.16850 0.42410 0.86290 -0.04700
C 	C 	0.02720 0.03750 0.48170 0.08700
C 	C 	0.07370 0.05990 0.54580 -0.19500
C 	C 	0.15740 0.02550 0.56150 0.16900
C 	C 	0.18980 0.97170 0.50730 -0.19200
C 	C 	0.13780 0.95310 0.44410 0.08700
C 	C 	0.37880 0.03920 0.76860 0.10300
C 	C 	0.31210 0.06740 0.72240 -0.20600
C 	C 	0.27510 0.01890 0.66500 0.17100
C 	C 	0.31310 0.94390 0.65540 -0.19500
C 	C 	0.38140 0.92080 0.70450 0.09700
C 	C 	0.58010 0.06310 0.73440 0.10000
C 	C 	0.61860 0.13300 0.71160 -0.20200
C 	C 	0.67330 0.17490 0.76370 0.17600
C 	C 	0.68620 0.14130 0.83640 -0.20900
C 	C 	0.64440 0.07040 0.85310 0.10500
C 	C 	0.81600 0.36060 0.89510 0.08700
C 	C 	0.75420 0.31430 0.85690 -0.21200
C 	C 	0.77060 0.29240 0.78120 0.17400
C 	C 	0.84660 0.32310 0.74540 -0.21300
C 	C 	0.90460 0.36910 0.78780 0.08900
C 	C 	0.69460 0.86440 0.88380 0.05200
C 	C 	0.75460 0.81690 0.92150 -0.15600
C 	C 	0.73520 0.79320 0.99760 0.07700
C 	C 	0.65910 0.82500 0.03190 -0.06900
C 	C 	0.60290 0.87200 0.98870 -0.04500
C 	C 	0.86000 0.57170 0.91970 0.12600
C 	C 	0.81800 0.64210 0.93830 -0.25800
C 	C 	0.82830 0.67280 0.01280 0.21800
C 	C 	0.87870 0.62700 0.06460 -0.23500
C 	C 	0.91790 0.55850 0.04030 0.14400
C 	C 	0.11960 0.55070 0.00530 0.17400
C 	C 	0.18280 0.58160 0.05410 -0.24400
C 	C 	0.22360 0.53240 0.10890 0.19400
C 	C 	0.19340 0.45420 0.11380 -0.21400
C 	C 	0.12890 0.42900 0.06260 0.11200
C 	C 	0.46940 0.54120 0.29280 0.11100
C 	C 	0.42300 0.56780 0.22960 -0.21200
C 	C 	0.33790 0.53660 0.21380 0.18500
C 	C 	0.30430 0.48180 0.26630 -0.21200
C 	C 	0.35570 0.45970 0.32840 0.10200
C 	C 	0.47280 0.03750 0.98170 0.04700
C 	C 	0.42630 0.05990 0.04580 -0.14000
C 	C 	0.34260 0.02550 0.06150 0.14300
C 	C 	0.31020 0.97170 0.00730 -0.13300
C 	C 	0.36220 0.95310 0.94410 0.03300
C 	C 	0.12120 0.03920 0.26860 0.09800
C 	C 	0.18790 0.06740 0.22240 -0.20200
C 	C 	0.22490 0.01890 0.16500 0.16900
C 	C 	0.18690 0.94390 0.15540 -0.19100
C 	C 	0.11860 0.92080 0.20450 0.09700
C 	C 	0.91990 0.06310 0.23440 0.10100
C 	C 	0.88140 0.13300 0.21160 -0.20300
C 	C 	0.82670 0.17490 0.26370 0.17800
C 	C 	0.81380 0.14130 0.33640 -0.20900
C 	C 	0.85560 0.07040 0.35310 0.10600
C 	C 	0.68400 0.36060 0.39510 0.08700
C 	C 	0.74580 0.31430 0.35690 -0.21100
C 	C 	0.72940 0.29240 0.28120 0.17500
C 	C 	0.65340 0.32310 0.24540 -0.21300
C 	C 	0.59540 0.36910 0.28780 0.08900
C 	C 	0.80540 0.86440 0.38380 0.08600
C 	C 	0.74540 0.81690 0.42150 -0.20600
C 	C 	0.76480 0.79320 0.49760 0.16900
C 	C 	0.84090 0.82500 0.53190 -0.21000
C 	C 	0.89710 0.87200 0.48870 0.08600
C 	C 	0.64000 0.57170 0.41970 0.10800
C 	C 	0.68200 0.64210 0.43830 -0.20800
C 	C 	0.67170 0.67280 0.51280 0.17600
C 	C 	0.62130 0.62700 0.56460 -0.20500
C 	C 	0.58210 0.55850 0.54030 0.10100
C 	C 	0.38040 0.55070 0.50530 0.11100
C 	C 	0.31720 0.58160 0.55410 -0.21300
C 	C 	0.27640 0.53240 0.60890 0.17900
C 	C 	0.30660 0.45420 0.61380 -0.20400
C 	C 	0.37110 0.42900 0.56260 0.10300
C 	C 	0.03060 0.54120 0.79280 0.10800
C 	C 	0.07700 0.56780 0.72960 -0.21000
C 	C 	0.16210 0.53660 0.71380 0.18300
C 	C 	0.19570 0.48180 0.76630 -0.21200
C 	C 	0.14430 0.45970 0.82840 0.10000
N 	N 	0.05600 0.98340 0.42990 -0.24900
N 	N 	0.20150 0.04900 0.62690 -0.24400
N 	N 	0.41420 0.96590 0.76180 -0.26700
N 	N 	0.59030 0.03060 0.80500 -0.26400
N 	N 	0.71370 0.24320 0.73900 -0.25000
N 	N 	0.89210 0.38750 0.86260 -0.26900
N 	N 	0.61720 0.89070 0.91410 -0.24000
N 	N 	0.78890 0.74100 0.03910 -0.23000
N 	N 	0.91170 0.52970 0.96750 -0.28400
N 	N 	0.09210 0.47500 0.00820 -0.27400
N 	N 	0.29330 0.56490 0.15050 -0.25300
N 	N 	0.43840 0.48620 0.34230 -0.26100
N 	N 	0.44400 0.98340 0.92990 -0.24000
N 	N 	0.29850 0.04900 0.12690 -0.23800
N 	N 	0.08580 0.96590 0.26180 -0.26400
N 	N 	0.90970 0.03060 0.30500 -0.26200
N 	N 	0.78630 0.24320 0.23900 -0.25000
N 	N 	0.60790 0.38750 0.36260 -0.26800
N 	N 	0.88280 0.89070 0.41410 -0.26500
N 	N 	0.71110 0.74100 0.53910 -0.25000
N 	N 	0.58830 0.52970 0.46750 -0.26200
N 	N 	0.40790 0.47500 0.50820 -0.27000
N 	N 	0.20670 0.56490 0.65050 -0.25000
N 	N 	0.06160 0.48620 0.84230 -0.26300
Ni	Ni	0.48340 0.06850 0.33710 1.00600
Ni	Ni	0.00810 0.56620 0.43540 1.00800
Ni	Ni	0.01660 0.06850 0.83710 1.00200
Ni	Ni	0.49190 0.56620 0.93540 1.00200
H 	H 	0.82070 0.90990 0.14810 0.10700
H 	H 	0.29700 0.74270 0.19270 0.12000
H 	H 	0.20170 0.24720 0.58620 0.11800
H 	H 	0.68850 0.39020 0.63420 0.11200
H 	H 	0.02760 0.93910 0.97310 -0.00300
H 	H 	0.94960 0.90260 0.07880 0.06400
H 	H 	0.75480 0.05130 0.01360 0.07800
H 	H 	0.83930 0.08250 0.90890 -0.02200
H 	H 	0.59920 0.92800 0.30660 -0.02500
H 	H 	0.70870 0.88150 0.22900 0.08500
H 	H 	0.70690 0.08970 0.11710 0.09400
H 	H 	0.59400 0.12880 0.19730 -0.04400
H 	H 	0.45510 0.96340 0.19920 -0.02600
H 	H 	0.39110 0.84760 0.16260 0.09000
H 	H 	0.27820 0.83410 0.37250 0.09300
H 	H 	0.34560 0.95130 0.40120 -0.02400
H 	H 	0.19530 0.62620 0.44570 -0.03900
H 	H 	0.29740 0.70180 0.38140 0.09800
H 	H 	0.14220 0.68740 0.19410 0.09500
H 	H 	0.04510 0.61150 0.26350 -0.02700
H 	H 	0.29190 0.12050 0.33410 -0.03900
H 	H 	0.19340 0.19920 0.39760 0.09600
H 	H 	0.35360 0.18540 0.58290 0.09200
H 	H 	0.44770 0.10810 0.51220 -0.02400
H 	H 	0.14820 0.44780 0.37060 -0.02600
H 	H 	0.21620 0.33150 0.40220 0.09100
H 	H 	0.11470 0.35680 0.61500 0.08800
H 	H 	0.04920 0.47000 0.57570 -0.02900
H 	H 	0.90520 0.41640 0.46860 -0.02600
H 	H 	0.80160 0.36560 0.55080 0.08900
H 	H 	0.78390 0.57990 0.65060 0.09400
H 	H 	0.89020 0.62290 0.56590 -0.05000
H 	H 	0.47470 0.43780 0.80180 -0.02700
H 	H 	0.55250 0.39420 0.69770 0.08700
H 	H 	0.75190 0.53950 0.75960 0.09900
H 	H 	0.66850 0.57590 0.86290 -0.04700
H 	H 	0.67930 0.90990 0.64810 0.10800
H 	H 	0.20300 0.74270 0.69270 0.11800
H 	H 	0.29830 0.24720 0.08620 0.11600
H 	H 	0.81150 0.39020 0.13420 0.11600
H 	H 	0.47240 0.93910 0.47310 -0.02400
H 	H 	0.55040 0.90260 0.57880 0.08600
H 	H 	0.74520 0.05130 0.51360 0.09400
H 	H 	0.66070 0.08250 0.40890 -0.03900
H 	H 	0.90080 0.92800 0.80660 -0.02400
H 	H 	0.79130 0.88150 0.72900 0.08300
H 	H 	0.79310 0.08970 0.61710 0.09000
H 	H 	0.90600 0.12880 0.69730 -0.04400
H 	H 	0.04490 0.96340 0.69920 -0.02500
H 	H 	0.10890 0.84760 0.66260 0.08800
H 	H 	0.22180 0.83410 0.87250 0.08900
H 	H 	0.15440 0.95130 0.90120 -0.02800
H 	H 	0.30470 0.62620 0.94570 -0.04700
H 	H 	0.20260 0.70180 0.88140 0.09600
H 	H 	0.35780 0.68740 0.69410 0.09300
H 	H 	0.45490 0.61150 0.76350 -0.02800
H 	H 	0.20810 0.12050 0.83410 -0.02800
H 	H 	0.30660 0.19920 0.89760 0.07600
H 	H 	0.14640 0.18540 0.08290 0.04600
H 	H 	0.05230 0.10810 0.01220 0.03800
H 	H 	0.35180 0.44780 0.87060 -0.03300
H 	H 	0.28380 0.33150 0.90220 0.10600
H 	H 	0.38530 0.35680 0.11500 0.10100
H 	H 	0.45080 0.47000 0.07570 -0.04200
H 	H 	0.59480 0.41640 0.96860 -0.06500
H 	H 	0.69840 0.36560 0.05080 0.10600
H 	H 	0.71610 0.57990 0.15060 0.09800
H 	H 	0.60980 0.62290 0.06590 -0.04800
H 	H 	0.02530 0.43780 0.30180 -0.02900
H 	H 	0.94750 0.39420 0.19770 0.09000
H 	H 	0.74810 0.53950 0.25960 0.09900
H 	H 	0.83150 0.57590 0.36290 -0.04300
C 	C 	0.97280 0.96250 0.98170 0.03500
C 	C 	0.92630 0.94010 0.04580 -0.13400
C 	C 	0.84260 0.97450 0.06150 0.13800
C 	C 	0.81020 0.02830 0.00730 -0.12900
C 	C 	0.86220 0.04690 0.94410 0.03200
C 	C 	0.62120 0.96080 0.26860 0.10300
C 	C 	0.68790 0.93260 0.22240 -0.20500
C 	C 	0.72490 0.98110 0.16500 0.17100
C 	C 	0.68690 0.05610 0.15540 -0.19300
C 	C 	0.61860 0.07920 0.20450 0.09800
C 	C 	0.41990 0.93690 0.23440 0.10100
C 	C 	0.38140 0.86700 0.21160 -0.20300
C 	C 	0.32670 0.82510 0.26370 0.17800
C 	C 	0.31380 0.85870 0.33640 -0.20900
C 	C 	0.35560 0.92960 0.35310 0.10600
C 	C 	0.18400 0.63940 0.39510 0.08700
C 	C 	0.24580 0.68570 0.35690 -0.21100
C 	C 	0.22940 0.70760 0.28120 0.17500
C 	C 	0.15340 0.67690 0.24540 -0.21300
C 	C 	0.09540 0.63090 0.28780 0.09000
C 	C 	0.30540 0.13560 0.38380 0.08600
C 	C 	0.24540 0.18310 0.42150 -0.20600
C 	C 	0.26480 0.20680 0.49760 0.16900
C 	C 	0.34090 0.17500 0.53190 -0.21000
C 	C 	0.39710 0.12800 0.48870 0.08700
C 	C 	0.14000 0.42830 0.41970 0.10800
C 	C 	0.18200 0.35790 0.43830 -0.20800
C 	C 	0.17170 0.32720 0.51280 0.17500
C 	C 	0.12130 0.37300 0.56460 -0.20500
C 	C 	0.08210 0.44150 0.54030 0.10000
C 	C 	0.88040 0.44930 0.50530 0.11100
C 	C 	0.81720 0.41840 0.55410 -0.21300
C 	C 	0.77640 0.46760 0.60890 0.17900
C 	C 	0.80660 0.54580 0.61380 -0.20400
C 	C 	0.87110 0.57100 0.56260 0.10300
C 	C 	0.53060 0.45880 0.79280 0.11000
C 	C 	0.57700 0.43220 0.72960 -0.21100
C 	C 	0.66210 0.46340 0.71380 0.18400
C 	C 	0.69570 0.51820 0.76630 -0.21200
C 	C 	0.64430 0.54030 0.82840 0.10100
C 	C 	0.52720 0.96250 0.48170 0.10800
C 	C 	0.57370 0.94010 0.54580 -0.20700
C 	C 	0.65740 0.97450 0.56150 0.17600
C 	C 	0.68980 0.02830 0.50730 -0.19900
C 	C 	0.63780 0.04690 0.44410 0.09000
C 	C 	0.87880 0.96080 0.76860 0.09700
C 	C 	0.81210 0.93260 0.72240 -0.20300
C 	C 	0.77510 0.98110 0.66500 0.16900
C 	C 	0.81310 0.05610 0.65540 -0.19200
C 	C 	0.88140 0.07920 0.70450 0.09600
C 	C 	0.08010 0.93690 0.73440 0.10000
C 	C 	0.11860 0.86700 0.71160 -0.20200
C 	C 	0.17330 0.82510 0.76370 0.17600
C 	C 	0.18620 0.85870 0.83640 -0.20900
C 	C 	0.14440 0.92960 0.85310 0.10500
C 	C 	0.31600 0.63940 0.89510 0.08700
C 	C 	0.25420 0.68570 0.85690 -0.21300
C 	C 	0.27060 0.70760 0.78120 0.17400
C 	C 	0.34660 0.67690 0.74540 -0.21300
C 	C 	0.40460 0.63090 0.78780 0.08800
C 	C 	0.19460 0.13560 0.88380 0.05200
C 	C 	0.25460 0.18310 0.92150 -0.15500
C 	C 	0.23520 0.20680 0.99760 0.07500
C 	C 	0.15910 0.17500 0.03190 -0.06800
C 	C 	0.10290 0.12800 0.98870 -0.04700
C 	C 	0.36000 0.42830 0.91970 0.12600
C 	C 	0.31800 0.35790 0.93830 -0.25900
C 	C 	0.32830 0.32720 0.01280 0.22000
C 	C 	0.37870 0.37300 0.06460 -0.23600
C 	C 	0.41790 0.44150 0.04030 0.14600
C 	C 	0.61960 0.44930 0.00530 0.17400
C 	C 	0.68280 0.41840 0.05410 -0.24400
C 	C 	0.72360 0.46760 0.10890 0.19400
C 	C 	0.69340 0.54580 0.11380 -0.21400
C 	C 	0.62890 0.57100 0.06260 0.11200
C 	C 	0.96940 0.45880 0.29280 0.11600
C 	C 	0.92300 0.43220 0.22960 -0.21400
C 	C 	0.83790 0.46340 0.21380 0.18700
C 	C 	0.80430 0.51820 0.26630 -0.21300
C 	C 	0.85570 0.54030 0.32840 0.10200
N 	N 	0.94400 0.01660 0.92990 -0.23500
N 	N 	0.79850 0.95100 0.12690 -0.23700
N 	N 	0.58580 0.03410 0.26180 -0.26600
N 	N 	0.40970 0.96940 0.30500 -0.26400
N 	N 	0.28630 0.75680 0.23900 -0.25000
N 	N 	0.10790 0.61250 0.36260 -0.26800
N 	N 	0.38280 0.10930 0.41410 -0.26500
N 	N 	0.21110 0.25900 0.53910 -0.25000
N 	N 	0.08830 0.47030 0.46750 -0.26200
N 	N 	0.90790 0.52500 0.50820 -0.27000
N 	N 	0.70670 0.43510 0.65050 -0.25000
N 	N 	0.56160 0.51380 0.84230 -0.26300
N 	N 	0.55600 0.01660 0.42990 -0.25600
N 	N 	0.70150 0.95100 0.62690 -0.24500
N 	N 	0.91420 0.03410 0.76180 -0.26300
N 	N 	0.09030 0.96940 0.80500 -0.26300
N 	N 	0.21370 0.75680 0.73900 -0.25000
N 	N 	0.39210 0.61250 0.86260 -0.27000
N 	N 	0.11720 0.10930 0.91410 -0.24000
N 	N 	0.28890 0.25900 0.03910 -0.23000
N 	N 	0.41170 0.47030 0.96750 -0.28400
N 	N 	0.59210 0.52500 0.00820 -0.27400
N 	N 	0.79330 0.43510 0.15050 -0.25300
N 	N 	0.93840 0.51380 0.34230 -0.26200
