data_crystal

_cell_length_a 13.30700
_cell_length_b 23.94700
_cell_length_c 30.21700
_cell_angle_alpha 90.00000
_cell_angle_beta  90.00000
_cell_angle_gamma 98.15500

_symmetry_space_group_name_	'P 1'
_symmetry_space_group_name_H-M	'P 1'

loop_
_symmetry_equiv_pos_as_xyz
  x,y,z

loop_
_atom_site_label
_atom_site_type_symbol
_atom_site_fract_x
_atom_site_fract_y
_atom_site_fract_z
_atom_site_charge
Gd	Gd	0.85481 0.72965 0.77127 1.50900
Gd	Gd	0.15186 0.79020 0.74855 1.50900
Gd	Gd	0.64519 0.77035 0.27127 1.50900
Gd	Gd	0.34814 0.70980 0.24855 1.50900
Gd	Gd	0.14519 0.27035 0.22873 1.50900
Gd	Gd	0.84814 0.20980 0.25145 1.50900
Gd	Gd	0.35481 0.22965 0.72873 1.50900
Gd	Gd	0.65186 0.29020 0.75145 1.50900
H 	H 	0.18000 0.65330 0.72260 0.07800
H 	H 	0.99060 0.54930 0.79750 0.10300
H 	H 	0.50120 0.46160 0.79370 0.10000
H 	H 	0.32210 0.36570 0.70680 0.07600
H 	H 	0.83460 0.68170 0.39020 0.12000
H 	H 	0.78710 0.83980 0.41210 0.11900
H 	H 	0.80310 0.70700 0.62650 0.09100
H 	H 	0.07660 0.78910 0.60040 0.09700
H 	H 	0.92740 0.72480 0.91740 0.09300
H 	H 	0.20970 0.79860 0.89430 0.08600
H 	H 	0.20630 0.64450 0.10220 0.12100
H 	H 	0.16700 0.80180 0.13290 0.12400
H 	H 	0.32000 0.84670 0.22260 0.07800
H 	H 	0.50940 0.95070 0.29750 0.10300
H 	H 	0.99880 0.03840 0.29370 0.10000
H 	H 	0.17790 0.13430 0.20680 0.07600
H 	H 	0.66540 0.81830 0.89020 0.12000
H 	H 	0.71290 0.66020 0.91210 0.11900
H 	H 	0.69690 0.79300 0.12650 0.09100
H 	H 	0.42340 0.71090 0.10040 0.09800
H 	H 	0.57260 0.77520 0.41740 0.09300
H 	H 	0.29030 0.70140 0.39430 0.08600
H 	H 	0.29370 0.85550 0.60220 0.12100
H 	H 	0.33300 0.69820 0.63290 0.12500
H 	H 	0.82000 0.34670 0.27740 0.07800
H 	H 	0.00940 0.45070 0.20250 0.10300
H 	H 	0.49880 0.53840 0.20630 0.10000
H 	H 	0.67790 0.63430 0.29320 0.07600
H 	H 	0.16540 0.31830 0.60980 0.12000
H 	H 	0.21290 0.16020 0.58790 0.11900
H 	H 	0.19690 0.29300 0.37350 0.09100
H 	H 	0.92340 0.21090 0.39960 0.09700
H 	H 	0.07260 0.27520 0.08260 0.09300
H 	H 	0.79030 0.20140 0.10570 0.08600
H 	H 	0.79370 0.35550 0.89780 0.12100
H 	H 	0.83300 0.19820 0.86710 0.12400
H 	H 	0.68000 0.15330 0.77740 0.07800
H 	H 	0.49060 0.04930 0.70250 0.10300
H 	H 	0.00120 0.96160 0.70630 0.10000
H 	H 	0.82210 0.86570 0.79320 0.07600
H 	H 	0.33460 0.18170 0.10980 0.12000
H 	H 	0.28710 0.33980 0.08790 0.11900
H 	H 	0.30310 0.20700 0.87350 0.09100
H 	H 	0.57660 0.28910 0.89960 0.09800
H 	H 	0.42740 0.22480 0.58260 0.09300
H 	H 	0.70970 0.29860 0.60570 0.08600
H 	H 	0.70630 0.14450 0.39780 0.12100
H 	H 	0.66700 0.30180 0.36710 0.12500
C 	C 	0.00680 0.65260 0.76580 0.36700
C 	C 	0.07530 0.60890 0.76120 -0.03900
C 	C 	0.16300 0.61910 0.73730 -0.05900
C 	C 	0.22810 0.57710 0.73500 0.09100
C 	C 	0.20470 0.52590 0.75630 -0.00400
C 	C 	0.11770 0.51840 0.77990 0.10400
C 	C 	0.05130 0.55750 0.78200 -0.06700
C 	C 	0.27820 0.48200 0.75450 0.00600
C 	C 	0.37060 0.48970 0.77830 0.09400
C 	C 	0.44180 0.45410 0.77720 -0.05900
C 	C 	0.42300 0.40580 0.75040 -0.05100
C 	C 	0.33510 0.39700 0.72520 -0.05600
C 	C 	0.26630 0.43590 0.72780 0.08800
C 	C 	0.49540 0.36540 0.74930 0.36300
C 	C 	0.76260 0.76650 0.34750 0.28700
C 	C 	0.80230 0.76170 0.39280 0.02000
C 	C 	0.83480 0.71270 0.40870 -0.09400
C 	C 	0.86800 0.71030 0.45300 0.11800
C 	C 	0.86700 0.75290 0.48260 -0.01100
C 	C 	0.83710 0.80210 0.46570 0.12200
C 	C 	0.80600 0.80600 0.42200 -0.09700
C 	C 	0.89700 0.74920 0.53120 0.00300
C 	C 	0.82640 0.72590 0.56270 0.10100
C 	C 	0.85090 0.72420 0.60660 -0.06300
C 	C 	0.94440 0.74730 0.62150 -0.03200
C 	C 	0.01280 0.77210 0.59120 -0.06300
C 	C 	0.98720 0.77190 0.54720 0.10400
C 	C 	0.97210 0.75110 0.67040 0.39900
C 	C 	0.04180 0.76740 0.84920 0.40800
C 	C 	0.06470 0.76390 0.89800 -0.04400
C 	C 	0.99250 0.73830 0.92730 -0.05500
C 	C 	0.01670 0.73310 0.97040 0.09600
C 	C 	0.11140 0.75070 0.98930 0.01400
C 	C 	0.18090 0.77530 0.95810 0.09300
C 	C 	0.15940 0.78190 0.91340 -0.05100
C 	C 	0.13670 0.74090 0.03670 -0.01700
C 	C 	0.16170 0.69020 0.05090 0.12600
C 	C 	0.19010 0.67970 0.09430 -0.10100
C 	C 	0.19350 0.72210 0.12470 0.02500
C 	C 	0.16560 0.77280 0.11230 -0.10900
C 	C 	0.13560 0.78080 0.06990 0.12700
C 	C 	0.23060 0.71410 0.17040 0.29300
C 	C 	0.49320 0.84740 0.26580 0.36700
C 	C 	0.42470 0.89110 0.26120 -0.03900
C 	C 	0.33700 0.88090 0.23730 -0.05900
C 	C 	0.27190 0.92290 0.23500 0.09100
C 	C 	0.29530 0.97410 0.25630 -0.00400
C 	C 	0.38230 0.98160 0.27990 0.10300
C 	C 	0.44870 0.94250 0.28200 -0.06700
C 	C 	0.22180 0.01800 0.25450 0.00500
C 	C 	0.12940 0.01030 0.27830 0.09400
C 	C 	0.05820 0.04590 0.27720 -0.06000
C 	C 	0.07700 0.09420 0.25040 -0.05100
C 	C 	0.16490 0.10300 0.22520 -0.05700
C 	C 	0.23370 0.06410 0.22780 0.08800
C 	C 	0.00460 0.13460 0.24930 0.36300
C 	C 	0.73740 0.73350 0.84750 0.28700
C 	C 	0.69770 0.73830 0.89280 0.02000
C 	C 	0.66520 0.78730 0.90870 -0.09400
C 	C 	0.63200 0.78970 0.95300 0.11800
C 	C 	0.63300 0.74710 0.98260 -0.01100
C 	C 	0.66290 0.69790 0.96570 0.12200
C 	C 	0.69400 0.69400 0.92200 -0.09700
C 	C 	0.60300 0.75080 0.03120 0.00300
C 	C 	0.67360 0.77410 0.06270 0.10100
C 	C 	0.64910 0.77580 0.10660 -0.06300
C 	C 	0.55560 0.75270 0.12150 -0.03200
C 	C 	0.48720 0.72790 0.09120 -0.06400
C 	C 	0.51280 0.72810 0.04720 0.10500
C 	C 	0.52790 0.74890 0.17040 0.40000
C 	C 	0.45820 0.73260 0.34920 0.40800
C 	C 	0.43530 0.73610 0.39800 -0.04400
C 	C 	0.50750 0.76170 0.42730 -0.05400
C 	C 	0.48330 0.76690 0.47040 0.09500
C 	C 	0.38860 0.74930 0.48930 0.01400
C 	C 	0.31910 0.72470 0.45810 0.09300
C 	C 	0.34060 0.71810 0.41340 -0.05100
C 	C 	0.36330 0.75910 0.53670 -0.01800
C 	C 	0.33830 0.80980 0.55090 0.12600
C 	C 	0.30990 0.82030 0.59430 -0.10100
C 	C 	0.30650 0.77790 0.62470 0.02600
C 	C 	0.33440 0.72720 0.61230 -0.10900
C 	C 	0.36440 0.71920 0.56990 0.12700
C 	C 	0.26940 0.78590 0.67040 0.29300
C 	C 	0.99320 0.34740 0.23420 0.36700
C 	C 	0.92470 0.39110 0.23880 -0.03900
C 	C 	0.83700 0.38090 0.26270 -0.05900
C 	C 	0.77190 0.42290 0.26500 0.09100
C 	C 	0.79530 0.47410 0.24370 -0.00400
C 	C 	0.88230 0.48160 0.22010 0.10400
C 	C 	0.94870 0.44250 0.21800 -0.06700
C 	C 	0.72180 0.51800 0.24550 0.00600
C 	C 	0.62940 0.51030 0.22170 0.09400
C 	C 	0.55820 0.54590 0.22280 -0.05900
C 	C 	0.57700 0.59420 0.24960 -0.05100
C 	C 	0.66490 0.60300 0.27480 -0.05600
C 	C 	0.73370 0.56410 0.27220 0.08800
C 	C 	0.50460 0.63460 0.25070 0.36300
C 	C 	0.23740 0.23350 0.65250 0.28700
C 	C 	0.19770 0.23830 0.60720 0.02000
C 	C 	0.16520 0.28730 0.59130 -0.09400
C 	C 	0.13200 0.28970 0.54700 0.11800
C 	C 	0.13300 0.24710 0.51740 -0.01100
C 	C 	0.16290 0.19790 0.53430 0.12200
C 	C 	0.19400 0.19400 0.57800 -0.09700
C 	C 	0.10300 0.25080 0.46880 0.00300
C 	C 	0.17360 0.27410 0.43730 0.10100
C 	C 	0.14910 0.27580 0.39340 -0.06300
C 	C 	0.05560 0.25270 0.37850 -0.03200
C 	C 	0.98720 0.22790 0.40880 -0.06300
C 	C 	0.01280 0.22810 0.45280 0.10400
C 	C 	0.02790 0.24890 0.32960 0.39900
C 	C 	0.95820 0.23260 0.15080 0.40800
C 	C 	0.93530 0.23610 0.10200 -0.04400
C 	C 	0.00750 0.26170 0.07270 -0.05500
C 	C 	0.98330 0.26690 0.02960 0.09600
C 	C 	0.88860 0.24930 0.01070 0.01400
C 	C 	0.81910 0.22470 0.04190 0.09300
C 	C 	0.84060 0.21810 0.08660 -0.05100
C 	C 	0.86330 0.25910 0.96330 -0.01700
C 	C 	0.83830 0.30980 0.94910 0.12600
C 	C 	0.80990 0.32030 0.90570 -0.10100
C 	C 	0.80650 0.27790 0.87530 0.02500
C 	C 	0.83440 0.22720 0.88770 -0.10900
C 	C 	0.86440 0.21920 0.93010 0.12700
C 	C 	0.76940 0.28590 0.82960 0.29300
C 	C 	0.50680 0.15260 0.73420 0.36700
C 	C 	0.57530 0.10890 0.73880 -0.03900
C 	C 	0.66300 0.11910 0.76270 -0.05900
C 	C 	0.72810 0.07710 0.76500 0.09100
C 	C 	0.70470 0.02590 0.74370 -0.00400
C 	C 	0.61770 0.01840 0.72010 0.10300
C 	C 	0.55130 0.05750 0.71800 -0.06700
C 	C 	0.77820 0.98200 0.74550 0.00500
C 	C 	0.87060 0.98970 0.72170 0.09400
C 	C 	0.94180 0.95410 0.72280 -0.06000
C 	C 	0.92300 0.90580 0.74960 -0.05100
C 	C 	0.83510 0.89700 0.77480 -0.05700
C 	C 	0.76630 0.93590 0.77220 0.08800
C 	C 	0.99540 0.86540 0.75070 0.36300
C 	C 	0.26260 0.26650 0.15250 0.28700
C 	C 	0.30230 0.26170 0.10720 0.02000
C 	C 	0.33480 0.21270 0.09130 -0.09400
C 	C 	0.36800 0.21030 0.04700 0.11800
C 	C 	0.36700 0.25290 0.01740 -0.01100
C 	C 	0.33710 0.30210 0.03430 0.12200
C 	C 	0.30600 0.30600 0.07800 -0.09700
C 	C 	0.39700 0.24920 0.96880 0.00300
C 	C 	0.32640 0.22590 0.93730 0.10100
C 	C 	0.35090 0.22420 0.89340 -0.06300
C 	C 	0.44440 0.24730 0.87850 -0.03200
C 	C 	0.51280 0.27210 0.90880 -0.06400
C 	C 	0.48720 0.27190 0.95280 0.10500
C 	C 	0.47210 0.25110 0.82960 0.40000
C 	C 	0.54180 0.26740 0.65080 0.40800
C 	C 	0.56470 0.26390 0.60200 -0.04400
C 	C 	0.49250 0.23830 0.57270 -0.05400
C 	C 	0.51670 0.23310 0.52960 0.09500
C 	C 	0.61140 0.25070 0.51070 0.01400
C 	C 	0.68090 0.27530 0.54190 0.09300
C 	C 	0.65940 0.28190 0.58660 -0.05100
C 	C 	0.63670 0.24090 0.46330 -0.01800
C 	C 	0.66170 0.19020 0.44910 0.12600
C 	C 	0.69010 0.17970 0.40570 -0.10100
C 	C 	0.69350 0.22210 0.37530 0.02600
C 	C 	0.66560 0.27280 0.38770 -0.10900
C 	C 	0.63560 0.28080 0.43010 0.12700
C 	C 	0.73060 0.21410 0.32960 0.29300
N 	N 	0.32260 0.58860 0.70880 -0.00100
N 	N 	0.08950 0.46560 0.80440 -0.00500
N 	N 	0.39620 0.54060 0.80810 0.00200
N 	N 	0.17630 0.42380 0.69980 0.00100
N 	N 	0.90280 0.65580 0.46570 -0.00500
N 	N 	0.84070 0.85160 0.49330 -0.00600
N 	N 	0.72200 0.70120 0.55090 -0.00200
N 	N 	0.06510 0.80380 0.51810 -0.00600
N 	N 	0.93820 0.70210 0.00060 -0.00500
N 	N 	0.28590 0.79680 0.97320 -0.00400
N 	N 	0.15870 0.64180 0.02070 -0.00700
N 	N 	0.10240 0.83570 0.05910 -0.00800
N 	N 	0.17740 0.91140 0.20880 -0.00100
N 	N 	0.41050 0.03440 0.30440 -0.00500
N 	N 	0.10380 0.95940 0.30810 0.00200
N 	N 	0.32370 0.07620 0.19980 0.00100
N 	N 	0.59720 0.84420 0.96570 -0.00500
N 	N 	0.65930 0.64840 0.99330 -0.00600
N 	N 	0.77800 0.79880 0.05090 -0.00200
N 	N 	0.43490 0.69620 0.01810 -0.00700
N 	N 	0.56180 0.79790 0.50060 -0.00500
N 	N 	0.21410 0.70320 0.47320 -0.00400
N 	N 	0.34130 0.85820 0.52070 -0.00800
N 	N 	0.39760 0.66430 0.55910 -0.00800
N 	N 	0.67740 0.41140 0.29120 -0.00100
N 	N 	0.91050 0.53440 0.19560 -0.00500
N 	N 	0.60380 0.45940 0.19190 0.00200
N 	N 	0.82370 0.57620 0.30020 0.00100
N 	N 	0.09720 0.34420 0.53430 -0.00500
N 	N 	0.15930 0.14840 0.50670 -0.00600
N 	N 	0.27800 0.29880 0.44910 -0.00200
N 	N 	0.93490 0.19620 0.48190 -0.00600
N 	N 	0.06180 0.29790 0.99940 -0.00500
N 	N 	0.71410 0.20320 0.02680 -0.00400
N 	N 	0.84130 0.35820 0.97930 -0.00700
N 	N 	0.89760 0.16430 0.94090 -0.00800
N 	N 	0.82260 0.08860 0.79120 -0.00100
N 	N 	0.58950 0.96560 0.69560 -0.00500
N 	N 	0.89620 0.04060 0.69190 0.00200
N 	N 	0.67630 0.92380 0.80020 0.00100
N 	N 	0.40280 0.15580 0.03430 -0.00500
N 	N 	0.34070 0.35160 0.00670 -0.00600
N 	N 	0.22200 0.20120 0.94910 -0.00200
N 	N 	0.56510 0.30380 0.98190 -0.00700
N 	N 	0.43820 0.20210 0.49940 -0.00500
N 	N 	0.78590 0.29680 0.52680 -0.00400
N 	N 	0.65870 0.14180 0.47930 -0.00800
N 	N 	0.60240 0.33570 0.44090 -0.00800
O 	O 	0.91700 0.63830 0.77520 -0.37700
O 	O 	0.04600 0.70390 0.75800 -0.46600
O 	O 	0.58760 0.38130 0.75890 -0.36200
O 	O 	0.46480 0.31490 0.73800 -0.47500
O 	O 	0.35860 0.63510 0.70350 -0.09900
O 	O 	0.35380 0.55230 0.68890 -0.08000
O 	O 	0.00030 0.45130 0.81230 -0.08700
O 	O 	0.15100 0.43800 0.81740 -0.08300
O 	O 	0.33080 0.55950 0.82530 -0.08400
O 	O 	0.48270 0.55820 0.81160 -0.09100
O 	O 	0.09930 0.43510 0.71170 -0.08900
O 	O 	0.17540 0.39920 0.66800 -0.08900
O 	O 	0.73810 0.72160 0.32610 -0.35500
O 	O 	0.74820 0.81380 0.33390 -0.33900
O 	O 	0.89860 0.72640 0.69570 -0.42200
O 	O 	0.05220 0.77630 0.68120 -0.40500
O 	O 	0.90380 0.62000 0.43810 -0.06900
O 	O 	0.93540 0.65180 0.50200 -0.06900
O 	O 	0.83660 0.84910 0.53220 -0.07000
O 	O 	0.85160 0.89540 0.47730 -0.06300
O 	O 	0.70070 0.69690 0.51350 -0.07600
O 	O 	0.65840 0.69190 0.57840 -0.07700
O 	O 	0.06230 0.79520 0.47850 -0.06800
O 	O 	0.12750 0.84060 0.53450 -0.07500
O 	O 	0.95630 0.74260 0.83680 -0.39500
O 	O 	0.11000 0.79150 0.82500 -0.43500
O 	O 	0.25330 0.75780 0.19430 -0.35500
O 	O 	0.24800 0.66760 0.18360 -0.33400
O 	O 	0.87680 0.66220 0.97970 -0.07500
O 	O 	0.93940 0.70250 0.03730 -0.06900
O 	O 	0.34940 0.81370 0.94350 -0.07700
O 	O 	0.31040 0.79330 0.01130 -0.07500
O 	O 	0.16910 0.65040 0.98140 -0.06900
O 	O 	0.15000 0.59520 0.03570 -0.06400
O 	O 	0.08450 0.84790 0.02260 -0.07000
O 	O 	0.07840 0.86240 0.09030 -0.06800
O 	O 	0.58300 0.86170 0.27520 -0.37700
O 	O 	0.45400 0.79610 0.25800 -0.46600
O 	O 	0.91240 0.11870 0.25890 -0.36200
O 	O 	0.03520 0.18510 0.23800 -0.47500
O 	O 	0.14140 0.86490 0.20350 -0.09900
O 	O 	0.14620 0.94770 0.18890 -0.08000
O 	O 	0.49970 0.04870 0.31230 -0.08700
O 	O 	0.34900 0.06200 0.31740 -0.08300
O 	O 	0.16920 0.94050 0.32530 -0.08400
O 	O 	0.01730 0.94180 0.31160 -0.09100
O 	O 	0.40070 0.06490 0.21170 -0.08900
O 	O 	0.32460 0.10080 0.16800 -0.08900
O 	O 	0.76190 0.77840 0.82610 -0.35500
O 	O 	0.75180 0.68620 0.83390 -0.33900
O 	O 	0.60140 0.77360 0.19570 -0.42200
O 	O 	0.44780 0.72370 0.18120 -0.40500
O 	O 	0.59620 0.88000 0.93810 -0.06900
O 	O 	0.56460 0.84820 0.00200 -0.06900
O 	O 	0.66340 0.65090 0.03220 -0.07000
O 	O 	0.64840 0.60460 0.97730 -0.06300
O 	O 	0.79930 0.80310 0.01350 -0.07600
O 	O 	0.84160 0.80810 0.07840 -0.07700
O 	O 	0.43770 0.70480 0.97850 -0.06800
O 	O 	0.37250 0.65940 0.03450 -0.07500
O 	O 	0.54370 0.75740 0.33680 -0.39400
O 	O 	0.39000 0.70850 0.32500 -0.43500
O 	O 	0.24670 0.74220 0.69430 -0.35500
O 	O 	0.25200 0.83240 0.68360 -0.33400
O 	O 	0.62320 0.83780 0.47970 -0.07500
O 	O 	0.56060 0.79750 0.53730 -0.06900
O 	O 	0.15060 0.68630 0.44350 -0.07700
O 	O 	0.18960 0.70670 0.51130 -0.07500
O 	O 	0.33090 0.84960 0.48140 -0.06900
O 	O 	0.35000 0.90480 0.53570 -0.06400
O 	O 	0.41550 0.65210 0.52260 -0.07000
O 	O 	0.42160 0.63760 0.59030 -0.06800
O 	O 	0.08300 0.36170 0.22480 -0.37700
O 	O 	0.95400 0.29610 0.24200 -0.46600
O 	O 	0.41240 0.61870 0.24110 -0.36200
O 	O 	0.53520 0.68510 0.26200 -0.47500
O 	O 	0.64140 0.36490 0.29650 -0.09900
O 	O 	0.64620 0.44770 0.31110 -0.08000
O 	O 	0.99970 0.54870 0.18770 -0.08700
O 	O 	0.84900 0.56200 0.18260 -0.08300
O 	O 	0.66920 0.44050 0.17470 -0.08400
O 	O 	0.51730 0.44180 0.18840 -0.09100
O 	O 	0.90070 0.56490 0.28830 -0.08900
O 	O 	0.82460 0.60080 0.33200 -0.08900
O 	O 	0.26190 0.27840 0.67390 -0.35500
O 	O 	0.25180 0.18620 0.66610 -0.33900
O 	O 	0.10140 0.27360 0.30430 -0.42200
O 	O 	0.94780 0.22370 0.31880 -0.40500
O 	O 	0.09620 0.38000 0.56190 -0.06900
O 	O 	0.06460 0.34820 0.49800 -0.06900
O 	O 	0.16340 0.15090 0.46780 -0.07000
O 	O 	0.14840 0.10460 0.52270 -0.06300
O 	O 	0.29930 0.30310 0.48650 -0.07600
O 	O 	0.34160 0.30810 0.42160 -0.07700
O 	O 	0.93770 0.20480 0.52150 -0.06800
O 	O 	0.87250 0.15940 0.46550 -0.07500
O 	O 	0.04370 0.25740 0.16320 -0.39500
O 	O 	0.89000 0.20850 0.17500 -0.43500
O 	O 	0.74670 0.24220 0.80570 -0.35500
O 	O 	0.75200 0.33240 0.81640 -0.33400
O 	O 	0.12320 0.33780 0.02030 -0.07500
O 	O 	0.06060 0.29750 0.96270 -0.06900
O 	O 	0.65060 0.18630 0.05650 -0.07700
O 	O 	0.68960 0.20670 0.98870 -0.07500
O 	O 	0.83090 0.34960 0.01860 -0.06900
O 	O 	0.85000 0.40480 0.96430 -0.06400
O 	O 	0.91550 0.15210 0.97740 -0.07000
O 	O 	0.92160 0.13760 0.90970 -0.06800
O 	O 	0.41700 0.13830 0.72480 -0.37700
O 	O 	0.54600 0.20390 0.74200 -0.46600
O 	O 	0.08760 0.88130 0.74110 -0.36200
O 	O 	0.96480 0.81490 0.76200 -0.47500
O 	O 	0.85860 0.13510 0.79650 -0.09900
O 	O 	0.85380 0.05230 0.81110 -0.08000
O 	O 	0.50030 0.95130 0.68770 -0.08700
O 	O 	0.65100 0.93800 0.68260 -0.08300
O 	O 	0.83080 0.05950 0.67470 -0.08400
O 	O 	0.98270 0.05820 0.68840 -0.09100
O 	O 	0.59930 0.93510 0.78830 -0.08900
O 	O 	0.67540 0.89920 0.83200 -0.08900
O 	O 	0.23810 0.22160 0.17390 -0.35500
O 	O 	0.24820 0.31380 0.16610 -0.33900
O 	O 	0.39860 0.22640 0.80430 -0.42200
O 	O 	0.55220 0.27630 0.81880 -0.40500
O 	O 	0.40380 0.12000 0.06190 -0.06900
O 	O 	0.43540 0.15180 0.99800 -0.06900
O 	O 	0.33660 0.34910 0.96780 -0.07000
O 	O 	0.35160 0.39540 0.02270 -0.06300
O 	O 	0.20070 0.19690 0.98650 -0.07600
O 	O 	0.15840 0.19190 0.92160 -0.07700
O 	O 	0.56230 0.29520 0.02150 -0.06800
O 	O 	0.62750 0.34060 0.96550 -0.07500
O 	O 	0.45630 0.24260 0.66320 -0.39400
O 	O 	0.61000 0.29150 0.67500 -0.43500
O 	O 	0.75330 0.25780 0.30570 -0.35500
O 	O 	0.74800 0.16760 0.31640 -0.33400
O 	O 	0.37680 0.16220 0.52030 -0.07500
O 	O 	0.43940 0.20250 0.46270 -0.06900
O 	O 	0.84940 0.31370 0.55650 -0.07700
O 	O 	0.81040 0.29330 0.48870 -0.07500
O 	O 	0.66910 0.15040 0.51860 -0.06900
O 	O 	0.65000 0.09520 0.46430 -0.06400
O 	O 	0.58450 0.34790 0.47740 -0.07000
O 	O 	0.57840 0.36240 0.40970 -0.06800
