data_crystal

_cell_length_a 13.10300
_cell_length_b 23.43400
_cell_length_c 30.42400
_cell_angle_alpha 90.00000
_cell_angle_beta  90.00000
_cell_angle_gamma 101.39200

_symmetry_space_group_name_	'P 1'
_symmetry_space_group_name_H-M	'P 1'

loop_
_symmetry_equiv_pos_as_xyz
  x,y,z

loop_
_atom_site_label
_atom_site_type_symbol
_atom_site_fract_x
_atom_site_fract_y
_atom_site_fract_z
_atom_site_charge
Gd	Gd	0.85047 0.72851 0.76933 1.50400
Gd	Gd	0.15218 0.79659 0.74169 1.48900
Gd	Gd	0.64953 0.77149 0.26933 1.50400
Gd	Gd	0.34782 0.70341 0.24169 1.48900
Gd	Gd	0.14953 0.27149 0.23067 1.50400
Gd	Gd	0.84782 0.20341 0.25831 1.48900
Gd	Gd	0.35047 0.22851 0.73067 1.50400
Gd	Gd	0.65218 0.29659 0.75831 1.48900
H 	H 	0.18980 0.65590 0.72890 0.08300
H 	H 	0.96840 0.54620 0.79490 0.10200
H 	H 	0.48580 0.46140 0.80800 0.10400
H 	H 	0.31940 0.36720 0.71310 0.08000
H 	H 	0.07200 0.78470 0.59870 0.09600
H 	H 	0.78810 0.69180 0.62460 0.09100
H 	H 	0.82540 0.67810 0.38570 0.12700
H 	H 	0.79660 0.84110 0.41360 0.12300
H 	H 	0.93080 0.72800 0.91250 0.09500
H 	H 	0.22320 0.80840 0.88870 0.09100
H 	H 	0.18760 0.64780 0.09650 0.12500
H 	H 	0.19530 0.81510 0.12630 0.12400
H 	H 	0.31020 0.84410 0.22890 0.08200
H 	H 	0.53160 0.95380 0.29490 0.10100
H 	H 	0.01420 0.03860 0.30800 0.10300
H 	H 	0.18060 0.13280 0.21310 0.07900
H 	H 	0.42800 0.71530 0.09870 0.09600
H 	H 	0.71190 0.80820 0.12460 0.09100
H 	H 	0.67460 0.82190 0.88570 0.12700
H 	H 	0.70340 0.65890 0.91360 0.12300
H 	H 	0.56920 0.77200 0.41250 0.09400
H 	H 	0.27680 0.69160 0.38870 0.09100
H 	H 	0.31240 0.85220 0.59650 0.12500
H 	H 	0.30470 0.68490 0.62630 0.12400
H 	H 	0.81020 0.34410 0.27110 0.08200
H 	H 	0.03160 0.45380 0.20510 0.10100
H 	H 	0.51420 0.53860 0.19200 0.10300
H 	H 	0.68060 0.63280 0.28690 0.07900
H 	H 	0.92800 0.21530 0.40130 0.09600
H 	H 	0.21190 0.30820 0.37540 0.09100
H 	H 	0.17460 0.32190 0.61430 0.12700
H 	H 	0.20340 0.15890 0.58640 0.12300
H 	H 	0.06920 0.27200 0.08750 0.09500
H 	H 	0.77680 0.19160 0.11130 0.09100
H 	H 	0.81240 0.35220 0.90350 0.12500
H 	H 	0.80470 0.18490 0.87370 0.12400
H 	H 	0.68980 0.15590 0.77110 0.08200
H 	H 	0.46840 0.04620 0.70510 0.10100
H 	H 	0.98580 0.96140 0.69200 0.10300
H 	H 	0.81940 0.86720 0.78690 0.07900
H 	H 	0.57200 0.28470 0.90130 0.09600
H 	H 	0.28810 0.19180 0.87540 0.09100
H 	H 	0.32540 0.17810 0.11430 0.12700
H 	H 	0.29660 0.34110 0.08640 0.12300
H 	H 	0.43080 0.22800 0.58750 0.09400
H 	H 	0.72320 0.30840 0.61130 0.09100
H 	H 	0.68760 0.14780 0.40350 0.12500
H 	H 	0.69530 0.31510 0.37370 0.12400
C 	C 	0.00270 0.65340 0.76417 0.37200
C 	C 	0.07000 0.60880 0.76286 -0.03800
C 	C 	0.16600 0.62020 0.74243 -0.06200
C 	C 	0.22660 0.57800 0.74226 0.09200
C 	C 	0.19630 0.52410 0.76357 0.00200
C 	C 	0.09910 0.51440 0.78337 0.10100
C 	C 	0.03450 0.55500 0.78250 -0.06500
C 	C 	0.26720 0.48090 0.76452 -0.00100
C 	C 	0.35460 0.48920 0.79116 0.10300
C 	C 	0.42770 0.45400 0.78982 -0.07100
C 	C 	0.41270 0.40710 0.76069 -0.03400
C 	C 	0.32850 0.39770 0.73317 -0.07000
C 	C 	0.25670 0.43400 0.73536 0.09600
C 	C 	0.49280 0.36830 0.75868 0.35900
C 	C 	0.95610 0.74360 0.66808 0.39100
C 	C 	0.93250 0.73880 0.61916 -0.03300
C 	C 	0.00670 0.76570 0.58918 -0.05900
C 	C 	0.98220 0.76380 0.54502 0.10000
C 	C 	0.88620 0.73720 0.52833 0.01000
C 	C 	0.81400 0.71070 0.56002 0.09900
C 	C 	0.83730 0.71080 0.60477 -0.06000
C 	C 	0.85810 0.74460 0.48099 -0.01500
C 	C 	0.85570 0.70090 0.44872 0.12900
C 	C 	0.82770 0.70820 0.40587 -0.11100
C 	C 	0.80300 0.76030 0.39265 0.03200
C 	C 	0.80970 0.80530 0.42244 -0.10600
C 	C 	0.83600 0.79650 0.46587 0.12600
C 	C 	0.76580 0.76810 0.34683 0.27800
C 	C 	0.04730 0.77040 0.84444 0.40600
C 	C 	0.07330 0.76950 0.89335 -0.03600
C 	C 	0.99780 0.74320 0.92236 -0.05800
C 	C 	0.02250 0.73960 0.96644 0.09900
C 	C 	0.12170 0.76100 0.98358 0.01000
C 	C 	0.19500 0.78630 0.95247 0.09800
C 	C 	0.17180 0.79090 0.90815 -0.05800
C 	C 	0.14610 0.75090 0.03066 -0.01500
C 	C 	0.15840 0.69670 0.04528 0.12700
C 	C 	0.18330 0.68540 0.08811 -0.10700
C 	C 	0.20170 0.73010 0.11838 0.03500
C 	C 	0.18570 0.78480 0.10609 -0.11000
C 	C 	0.15540 0.79370 0.06369 0.12700
C 	C 	0.24180 0.72060 0.16374 0.27300
C 	C 	0.49730 0.84660 0.26417 0.37200
C 	C 	0.43000 0.89120 0.26286 -0.03900
C 	C 	0.33400 0.87980 0.24243 -0.06200
C 	C 	0.27340 0.92200 0.24226 0.09200
C 	C 	0.30370 0.97590 0.26357 0.00200
C 	C 	0.40090 0.98560 0.28337 0.10100
C 	C 	0.46550 0.94500 0.28250 -0.06400
C 	C 	0.23280 0.01910 0.26452 -0.00200
C 	C 	0.14540 0.01080 0.29116 0.10300
C 	C 	0.07230 0.04600 0.28982 -0.07100
C 	C 	0.08730 0.09290 0.26069 -0.03400
C 	C 	0.17150 0.10230 0.23317 -0.07000
C 	C 	0.24330 0.06600 0.23536 0.09600
C 	C 	0.00720 0.13170 0.25868 0.35800
C 	C 	0.54390 0.75640 0.16808 0.39100
C 	C 	0.56750 0.76120 0.11916 -0.03300
C 	C 	0.49330 0.73430 0.08918 -0.06000
C 	C 	0.51780 0.73620 0.04502 0.10000
C 	C 	0.61380 0.76280 0.02833 0.01000
C 	C 	0.68600 0.78930 0.06002 0.09900
C 	C 	0.66270 0.78920 0.10477 -0.06000
C 	C 	0.64190 0.75540 0.98099 -0.01500
C 	C 	0.64430 0.79910 0.94872 0.12900
C 	C 	0.67230 0.79180 0.90587 -0.11100
C 	C 	0.69700 0.73970 0.89265 0.03200
C 	C 	0.69030 0.69470 0.92244 -0.10600
C 	C 	0.66400 0.70350 0.96587 0.12600
C 	C 	0.73420 0.73190 0.84683 0.27800
C 	C 	0.45270 0.72960 0.34444 0.40600
C 	C 	0.42670 0.73050 0.39335 -0.03600
C 	C 	0.50220 0.75680 0.42236 -0.05800
C 	C 	0.47750 0.76040 0.46644 0.09900
C 	C 	0.37830 0.73900 0.48358 0.01000
C 	C 	0.30500 0.71370 0.45247 0.09800
C 	C 	0.32820 0.70910 0.40815 -0.05800
C 	C 	0.35390 0.74910 0.53066 -0.01500
C 	C 	0.34160 0.80330 0.54528 0.12700
C 	C 	0.31670 0.81460 0.58811 -0.10700
C 	C 	0.29830 0.76990 0.61838 0.03500
C 	C 	0.31430 0.71520 0.60609 -0.11000
C 	C 	0.34460 0.70630 0.56369 0.12700
C 	C 	0.25820 0.77940 0.66374 0.27300
C 	C 	0.99730 0.34660 0.23583 0.37200
C 	C 	0.93000 0.39120 0.23714 -0.03800
C 	C 	0.83400 0.37980 0.25757 -0.06200
C 	C 	0.77340 0.42200 0.25774 0.09200
C 	C 	0.80370 0.47590 0.23643 0.00200
C 	C 	0.90090 0.48560 0.21663 0.10100
C 	C 	0.96550 0.44500 0.21750 -0.06500
C 	C 	0.73280 0.51910 0.23548 -0.00100
C 	C 	0.64540 0.51080 0.20884 0.10300
C 	C 	0.57230 0.54600 0.21018 -0.07100
C 	C 	0.58730 0.59290 0.23931 -0.03400
C 	C 	0.67150 0.60230 0.26683 -0.07000
C 	C 	0.74330 0.56600 0.26464 0.09600
C 	C 	0.50720 0.63170 0.24132 0.35900
C 	C 	0.04390 0.25640 0.33192 0.39100
C 	C 	0.06750 0.26120 0.38084 -0.03300
C 	C 	0.99330 0.23430 0.41082 -0.05900
C 	C 	0.01780 0.23620 0.45498 0.10000
C 	C 	0.11380 0.26280 0.47167 0.01000
C 	C 	0.18600 0.28930 0.43998 0.09900
C 	C 	0.16270 0.28920 0.39523 -0.06000
C 	C 	0.14190 0.25540 0.51901 -0.01500
C 	C 	0.14430 0.29910 0.55128 0.12900
C 	C 	0.17230 0.29180 0.59413 -0.11100
C 	C 	0.19700 0.23970 0.60735 0.03200
C 	C 	0.19030 0.19470 0.57756 -0.10600
C 	C 	0.16400 0.20350 0.53413 0.12600
C 	C 	0.23420 0.23190 0.65317 0.27800
C 	C 	0.95270 0.22960 0.15556 0.40600
C 	C 	0.92670 0.23050 0.10665 -0.03600
C 	C 	0.00220 0.25680 0.07764 -0.05800
C 	C 	0.97750 0.26040 0.03356 0.09900
C 	C 	0.87830 0.23900 0.01642 0.01000
C 	C 	0.80500 0.21370 0.04753 0.09800
C 	C 	0.82820 0.20910 0.09185 -0.05800
C 	C 	0.85390 0.24910 0.96934 -0.01500
C 	C 	0.84160 0.30330 0.95472 0.12700
C 	C 	0.81670 0.31460 0.91189 -0.10700
C 	C 	0.79830 0.26990 0.88162 0.03500
C 	C 	0.81430 0.21520 0.89391 -0.11000
C 	C 	0.84460 0.20630 0.93631 0.12700
C 	C 	0.75820 0.27940 0.83626 0.27300
C 	C 	0.50270 0.15340 0.73583 0.37200
C 	C 	0.57000 0.10880 0.73714 -0.03900
C 	C 	0.66600 0.12020 0.75757 -0.06200
C 	C 	0.72660 0.07800 0.75774 0.09200
C 	C 	0.69630 0.02410 0.73643 0.00200
C 	C 	0.59910 0.01440 0.71663 0.10100
C 	C 	0.53450 0.05500 0.71750 -0.06400
C 	C 	0.76720 0.98090 0.73548 -0.00200
C 	C 	0.85460 0.98920 0.70884 0.10300
C 	C 	0.92770 0.95400 0.71018 -0.07100
C 	C 	0.91270 0.90710 0.73931 -0.03400
C 	C 	0.82850 0.89770 0.76683 -0.07000
C 	C 	0.75670 0.93400 0.76464 0.09600
C 	C 	0.99280 0.86830 0.74132 0.35800
C 	C 	0.45610 0.24360 0.83192 0.39100
C 	C 	0.43250 0.23880 0.88084 -0.03300
C 	C 	0.50670 0.26570 0.91082 -0.06000
C 	C 	0.48220 0.26380 0.95498 0.10000
C 	C 	0.38620 0.23720 0.97167 0.01000
C 	C 	0.31400 0.21070 0.93998 0.09900
C 	C 	0.33730 0.21080 0.89523 -0.06000
C 	C 	0.35810 0.24460 0.01901 -0.01500
C 	C 	0.35570 0.20090 0.05128 0.12900
C 	C 	0.32770 0.20820 0.09413 -0.11100
C 	C 	0.30300 0.26030 0.10735 0.03200
C 	C 	0.30970 0.30530 0.07756 -0.10600
C 	C 	0.33600 0.29650 0.03413 0.12600
C 	C 	0.26580 0.26810 0.15317 0.27800
C 	C 	0.54730 0.27040 0.65556 0.40600
C 	C 	0.57330 0.26950 0.60665 -0.03600
C 	C 	0.49780 0.24320 0.57764 -0.05800
C 	C 	0.52250 0.23960 0.53356 0.09900
C 	C 	0.62170 0.26100 0.51642 0.01000
C 	C 	0.69500 0.28630 0.54753 0.09800
C 	C 	0.67180 0.29090 0.59185 -0.05800
C 	C 	0.64610 0.25090 0.46934 -0.01500
C 	C 	0.65840 0.19670 0.45472 0.12700
C 	C 	0.68330 0.18540 0.41189 -0.10700
C 	C 	0.70170 0.23010 0.38162 0.03500
C 	C 	0.68570 0.28480 0.39391 -0.11000
C 	C 	0.65540 0.29370 0.43631 0.12700
C 	C 	0.74180 0.22060 0.33626 0.27300
N 	N 	0.32560 0.59200 0.71792 -0.00300
N 	N 	0.06040 0.46130 0.80838 -0.00600
N 	N 	0.37510 0.53960 0.82078 -0.00900
N 	N 	0.16860 0.42230 0.70450 -0.00700
N 	N 	0.06360 0.79520 0.51540 -0.00700
N 	N 	0.70670 0.68440 0.54736 -0.00600
N 	N 	0.88350 0.64500 0.46047 -0.01000
N 	N 	0.83930 0.84590 0.49593 -0.01000
N 	N 	0.93930 0.70920 0.99534 -0.00900
N 	N 	0.30400 0.81040 0.96531 -0.00400
N 	N 	0.14450 0.64610 0.01454 -0.00900
N 	N 	0.13480 0.85180 0.05281 -0.00600
N 	N 	0.17440 0.90800 0.21792 -0.00300
N 	N 	0.43960 0.03870 0.30838 -0.00600
N 	N 	0.12490 0.96040 0.32078 -0.00900
N 	N 	0.33140 0.07770 0.20450 -0.00700
N 	N 	0.43640 0.70480 0.01540 -0.00700
N 	N 	0.79330 0.81560 0.04736 -0.00600
N 	N 	0.61650 0.85500 0.96047 -0.01000
N 	N 	0.66070 0.65410 0.99593 -0.01000
N 	N 	0.56070 0.79080 0.49534 -0.00900
N 	N 	0.19600 0.68960 0.46531 -0.00400
N 	N 	0.35550 0.85390 0.51454 -0.00900
N 	N 	0.36520 0.64820 0.55281 -0.00600
N 	N 	0.67440 0.40800 0.28208 -0.00300
N 	N 	0.93960 0.53870 0.19162 -0.00600
N 	N 	0.62490 0.46040 0.17922 -0.00900
N 	N 	0.83140 0.57770 0.29550 -0.00700
N 	N 	0.93640 0.20480 0.48460 -0.00700
N 	N 	0.29330 0.31560 0.45264 -0.00600
N 	N 	0.11650 0.35500 0.53953 -0.01000
N 	N 	0.16070 0.15410 0.50407 -0.01000
N 	N 	0.06070 0.29080 0.00466 -0.00900
N 	N 	0.69600 0.18960 0.03469 -0.00400
N 	N 	0.85550 0.35390 0.98546 -0.00900
N 	N 	0.86520 0.14820 0.94719 -0.00600
N 	N 	0.82560 0.09200 0.78208 -0.00300
N 	N 	0.56040 0.96130 0.69162 -0.00600
N 	N 	0.87510 0.03960 0.67922 -0.00900
N 	N 	0.66860 0.92230 0.79550 -0.00700
N 	N 	0.56360 0.29520 0.98460 -0.00700
N 	N 	0.20670 0.18440 0.95264 -0.00600
N 	N 	0.38350 0.14500 0.03953 -0.01000
N 	N 	0.33930 0.34590 0.00407 -0.01000
N 	N 	0.43930 0.20920 0.50466 -0.00900
N 	N 	0.80400 0.31040 0.53469 -0.00400
N 	N 	0.64450 0.14610 0.48546 -0.00900
N 	N 	0.63480 0.35180 0.44719 -0.00600
O 	O 	0.90770 0.63734 0.77227 -0.38100
O 	O 	0.04340 0.70594 0.75622 -0.46700
O 	O 	0.46600 0.31853 0.74132 -0.48000
O 	O 	0.58120 0.38650 0.77359 -0.36100
O 	O 	0.36390 0.64180 0.71280 -0.10400
O 	O 	0.36330 0.55220 0.70400 -0.08500
O 	O 	0.12310 0.43510 0.82440 -0.08200
O 	O 	0.96800 0.44580 0.81410 -0.09200
O 	O 	0.30220 0.55480 0.83875 -0.07800
O 	O 	0.46640 0.56470 0.82462 -0.08800
O 	O 	0.08220 0.42590 0.71930 -0.09400
O 	O 	0.18180 0.40410 0.66916 -0.08700
O 	O 	0.88870 0.71537 0.69307 -0.42200
O 	O 	0.03940 0.77699 0.67863 -0.39000
O 	O 	0.74760 0.81704 0.33602 -0.32200
O 	O 	0.74930 0.72503 0.32133 -0.35800
O 	O 	0.12950 0.83384 0.53159 -0.07700
O 	O 	0.06190 0.78150 0.47684 -0.06900
O 	O 	0.64060 0.67450 0.57656 -0.07600
O 	O 	0.68760 0.67210 0.50932 -0.07200
O 	O 	0.92100 0.63960 0.49645 -0.06500
O 	O 	0.86920 0.60650 0.43315 -0.06400
O 	O 	0.81900 0.83700 0.53451 -0.07100
O 	O 	0.86460 0.89460 0.48021 -0.06400
O 	O 	0.95710 0.74741 0.83385 -0.39900
O 	O 	0.11980 0.79495 0.81995 -0.42200
O 	O 	0.24140 0.66889 0.17612 -0.33100
O 	O 	0.27640 0.76451 0.18666 -0.34000
O 	O 	0.87740 0.66710 0.97980 -0.07300
O 	O 	0.93650 0.72470 0.03295 -0.06900
O 	O 	0.36730 0.82560 0.93616 -0.07700
O 	O 	0.32600 0.81160 0.00414 -0.07300
O 	O 	0.17090 0.65480 0.97650 -0.06900
O 	O 	0.10680 0.59820 0.02998 -0.06300
O 	O 	0.10390 0.86100 0.01754 -0.06700
O 	O 	0.14200 0.88620 0.08120 -0.06800
O 	O 	0.59230 0.86266 0.27227 -0.38100
O 	O 	0.45660 0.79406 0.25622 -0.46700
O 	O 	0.03400 0.18147 0.24132 -0.48000
O 	O 	0.91880 0.11350 0.27359 -0.36000
O 	O 	0.13610 0.85820 0.21280 -0.10400
O 	O 	0.13670 0.94780 0.20400 -0.08500
O 	O 	0.37690 0.06490 0.32440 -0.08200
O 	O 	0.53200 0.05420 0.31410 -0.09200
O 	O 	0.19780 0.94520 0.33875 -0.07800
O 	O 	0.03360 0.93530 0.32462 -0.08700
O 	O 	0.41780 0.07410 0.21930 -0.09400
O 	O 	0.31820 0.09590 0.16916 -0.08700
O 	O 	0.61130 0.78463 0.19307 -0.42200
O 	O 	0.46060 0.72301 0.17863 -0.39100
O 	O 	0.75240 0.68296 0.83602 -0.32200
O 	O 	0.75070 0.77497 0.82133 -0.35800
O 	O 	0.37050 0.66616 0.03159 -0.07700
O 	O 	0.43810 0.71850 0.97684 -0.06900
O 	O 	0.85940 0.82550 0.07656 -0.07600
O 	O 	0.81240 0.82790 0.00932 -0.07200
O 	O 	0.57900 0.86040 0.99645 -0.06500
O 	O 	0.63080 0.89350 0.93315 -0.06500
O 	O 	0.68100 0.66300 0.03451 -0.07100
O 	O 	0.63540 0.60540 0.98021 -0.06400
O 	O 	0.54290 0.75259 0.33385 -0.39900
O 	O 	0.38020 0.70505 0.31995 -0.42200
O 	O 	0.25860 0.83111 0.67612 -0.33100
O 	O 	0.22360 0.73549 0.68666 -0.34000
O 	O 	0.62260 0.83290 0.47980 -0.07300
O 	O 	0.56350 0.77530 0.53295 -0.06900
O 	O 	0.13270 0.67440 0.43616 -0.07700
O 	O 	0.17400 0.68840 0.50414 -0.07200
O 	O 	0.32910 0.84520 0.47650 -0.06800
O 	O 	0.39320 0.90180 0.52998 -0.06300
O 	O 	0.39610 0.63900 0.51754 -0.06700
O 	O 	0.35800 0.61380 0.58120 -0.06800
O 	O 	0.09230 0.36266 0.22773 -0.38100
O 	O 	0.95660 0.29406 0.24378 -0.46700
O 	O 	0.53400 0.68147 0.25868 -0.48000
O 	O 	0.41880 0.61350 0.22641 -0.36100
O 	O 	0.63610 0.35820 0.28720 -0.10400
O 	O 	0.63670 0.44780 0.29600 -0.08500
O 	O 	0.87690 0.56490 0.17560 -0.08200
O 	O 	0.03200 0.55420 0.18590 -0.09200
O 	O 	0.69780 0.44520 0.16125 -0.07800
O 	O 	0.53360 0.43530 0.17538 -0.08800
O 	O 	0.91780 0.57410 0.28070 -0.09400
O 	O 	0.81820 0.59590 0.33084 -0.08700
O 	O 	0.11130 0.28463 0.30693 -0.42200
O 	O 	0.96060 0.22301 0.32137 -0.39000
O 	O 	0.25240 0.18296 0.66398 -0.32200
O 	O 	0.25070 0.27497 0.67867 -0.35800
O 	O 	0.87050 0.16616 0.46841 -0.07700
O 	O 	0.93810 0.21850 0.52316 -0.06900
O 	O 	0.35940 0.32550 0.42344 -0.07600
O 	O 	0.31240 0.32790 0.49068 -0.07200
O 	O 	0.07900 0.36040 0.50355 -0.06500
O 	O 	0.13080 0.39350 0.56685 -0.06400
O 	O 	0.18100 0.16300 0.46549 -0.07100
O 	O 	0.13540 0.10540 0.51979 -0.06400
O 	O 	0.04290 0.25259 0.16615 -0.39900
O 	O 	0.88020 0.20505 0.18005 -0.42200
O 	O 	0.75860 0.33111 0.82388 -0.33100
O 	O 	0.72360 0.23549 0.81334 -0.34000
O 	O 	0.12260 0.33290 0.02020 -0.07300
O 	O 	0.06350 0.27530 0.96705 -0.06900
O 	O 	0.63270 0.17440 0.06384 -0.07700
O 	O 	0.67400 0.18840 0.99586 -0.07300
O 	O 	0.82910 0.34520 0.02350 -0.06900
O 	O 	0.89320 0.40180 0.97002 -0.06300
O 	O 	0.89610 0.13900 0.98246 -0.06700
O 	O 	0.85800 0.11380 0.91880 -0.06800
O 	O 	0.40770 0.13734 0.72773 -0.38100
O 	O 	0.54340 0.20594 0.74378 -0.46700
O 	O 	0.96600 0.81853 0.75868 -0.48000
O 	O 	0.08120 0.88650 0.72641 -0.36000
O 	O 	0.86390 0.14180 0.78720 -0.10400
O 	O 	0.86330 0.05220 0.79600 -0.08500
O 	O 	0.62310 0.93510 0.67560 -0.08200
O 	O 	0.46800 0.94580 0.68590 -0.09200
O 	O 	0.80220 0.05480 0.66125 -0.07800
O 	O 	0.96640 0.06470 0.67538 -0.08700
O 	O 	0.58220 0.92590 0.78070 -0.09400
O 	O 	0.68180 0.90410 0.83084 -0.08700
O 	O 	0.38870 0.21537 0.80693 -0.42200
O 	O 	0.53940 0.27699 0.82137 -0.39100
O 	O 	0.24760 0.31704 0.16398 -0.32200
O 	O 	0.24930 0.22503 0.17867 -0.35800
O 	O 	0.62950 0.33384 0.96841 -0.07700
O 	O 	0.56190 0.28150 0.02316 -0.06900
O 	O 	0.14060 0.17450 0.92344 -0.07600
O 	O 	0.18760 0.17210 0.99068 -0.07200
O 	O 	0.42100 0.13960 0.00355 -0.06500
O 	O 	0.36920 0.10650 0.06685 -0.06500
O 	O 	0.31900 0.33700 0.96549 -0.07100
O 	O 	0.36460 0.39460 0.01979 -0.06400
O 	O 	0.45710 0.24741 0.66615 -0.39900
O 	O 	0.61980 0.29495 0.68005 -0.42200
O 	O 	0.74140 0.16889 0.32388 -0.33100
O 	O 	0.77640 0.26451 0.31334 -0.34000
O 	O 	0.37740 0.16710 0.52020 -0.07300
O 	O 	0.43650 0.22470 0.46705 -0.06900
O 	O 	0.86730 0.32560 0.56384 -0.07700
O 	O 	0.82600 0.31160 0.49586 -0.07200
O 	O 	0.67090 0.15480 0.52350 -0.06800
O 	O 	0.60680 0.09820 0.47002 -0.06300
O 	O 	0.60390 0.36100 0.48246 -0.06700
O 	O 	0.64200 0.38620 0.41880 -0.06800
