data_crystal

_cell_length_a 6.80400
_cell_length_b 10.34700
_cell_length_c 11.49800
_cell_angle_alpha 68.14500
_cell_angle_beta  77.49200
_cell_angle_gamma 73.83700

_symmetry_space_group_name_	'P 1'
_symmetry_space_group_name_H-M	'P 1'

loop_
_symmetry_equiv_pos_as_xyz
  x,y,z

loop_
_atom_site_label
_atom_site_type_symbol
_atom_site_fract_x
_atom_site_fract_y
_atom_site_fract_z
_atom_site_charge
Cd	Cd	0.89000 0.57719 0.62964 1.22100
Cd	Cd	0.63799 0.32123 0.92237 1.20300
Cd	Cd	0.11000 0.42281 0.37036 1.22100
Cd	Cd	0.36201 0.67877 0.07763 1.20300
H 	H 	0.32910 0.94500 0.67270 0.00900
H 	H 	0.19880 0.95610 0.34350 0.01000
H 	H 	0.40360 0.58000 0.60410 -0.01100
H 	H 	0.19200 0.19500 0.14400 0.14700
H 	H 	0.98700 0.20600 0.14000 0.15300
H 	H 	0.67090 0.05500 0.32730 0.00900
H 	H 	0.80120 0.04390 0.65650 0.01000
H 	H 	0.59640 0.42000 0.39590 -0.01100
H 	H 	0.80800 0.80500 0.85600 0.14700
H 	H 	0.01300 0.79400 0.86000 0.15300
C 	C 	0.37540 0.74990 0.65720 -0.19900
C 	C 	0.32110 0.89820 0.61930 0.10400
C 	C 	0.25500 0.97640 0.50140 -0.14600
C 	C 	0.24050 0.90460 0.42300 0.10100
C 	C 	0.28840 0.75620 0.46380 -0.18900
C 	C 	0.36270 0.67890 0.57940 0.08300
C 	C 	0.45500 0.66770 0.78330 0.41700
C 	C 	0.20120 0.13680 0.45600 0.33900
C 	C 	0.24890 0.67790 0.38700 0.42200
C 	C 	0.12300 0.29020 0.98120 0.18000
C 	C 	0.62460 0.25010 0.34280 -0.19900
C 	C 	0.67890 0.10180 0.38070 0.10400
C 	C 	0.74500 0.02360 0.49860 -0.14600
C 	C 	0.75950 0.09540 0.57700 0.10100
C 	C 	0.71160 0.24380 0.53620 -0.18900
C 	C 	0.63730 0.32110 0.42060 0.08300
C 	C 	0.54500 0.33230 0.21670 0.41700
C 	C 	0.79880 0.86320 0.54400 0.33900
C 	C 	0.75110 0.32210 0.61300 0.42200
C 	C 	0.87700 0.70980 0.01880 0.18000
N 	N 	0.97370 0.34340 0.90600 -0.22100
N 	N 	0.05620 0.42930 0.79860 -0.17000
N 	N 	0.24390 0.43110 0.80620 -0.08400
N 	N 	0.29440 0.34200 0.92130 -0.22400
N 	N 	0.10880 0.19070 0.09940 -0.33000
N 	N 	0.02630 0.65660 0.09400 -0.22100
N 	N 	0.94380 0.57070 0.20140 -0.17000
N 	N 	0.75610 0.56890 0.19380 -0.08400
N 	N 	0.70560 0.65800 0.07870 -0.22400
N 	N 	0.89120 0.80930 0.90060 -0.33000
O 	O 	0.60190 0.55760 0.79100 -0.54700
O 	O 	0.36570 0.71150 0.87270 -0.48100
O 	O 	0.20320 0.20080 0.53020 -0.38100
O 	O 	0.15900 0.20330 0.34650 -0.40600
O 	O 	0.28730 0.72250 0.27160 -0.46300
O 	O 	0.17940 0.56500 0.45320 -0.53700
O 	O 	0.39810 0.44240 0.20900 -0.54700
O 	O 	0.63430 0.28850 0.12730 -0.48100
O 	O 	0.79680 0.79920 0.46980 -0.38100
O 	O 	0.84100 0.79670 0.65350 -0.40600
O 	O 	0.71270 0.27750 0.72840 -0.46300
O 	O 	0.82060 0.43500 0.54680 -0.53700
