data_crystal

_cell_length_a 6.74600
_cell_length_b 22.33400
_cell_length_c 7.59700
_cell_angle_alpha 90.00000
_cell_angle_beta  90.00000
_cell_angle_gamma 90.00000

_symmetry_space_group_name_	'P 1'
_symmetry_space_group_name_H-M	'P 1'

loop_
_symmetry_equiv_pos_as_xyz
  x,y,z

loop_
_atom_site_label
_atom_site_type_symbol
_atom_site_fract_x
_atom_site_fract_y
_atom_site_fract_z
_atom_site_charge
Co	Co	0.46466 0.28910 0.24849 1.19800
Co	Co	0.53534 0.71090 0.24849 1.19800
Co	Co	0.96466 0.21090 0.75151 1.19400
Co	Co	0.03534 0.78910 0.75151 1.19400
H 	H 	0.37250 0.11480 0.36870 0.15900
H 	H 	0.18000 0.12150 0.24870 0.15900
H 	H 	0.47700 0.12860 0.08430 0.01000
H 	H 	0.71420 0.18520 0.24380 0.19200
H 	H 	0.04570 0.33320 0.33630 0.01400
H 	H 	0.84740 0.41820 0.31900 0.08300
H 	H 	0.30480 0.50440 0.09070 0.07200
H 	H 	0.47880 0.41510 0.08890 0.00200
H 	H 	0.62750 0.88520 0.36870 0.15900
H 	H 	0.82000 0.87850 0.24870 0.15900
H 	H 	0.52300 0.87140 0.08430 0.01000
H 	H 	0.28580 0.81480 0.24380 0.19200
H 	H 	0.95430 0.66680 0.33630 0.01400
H 	H 	0.15260 0.58180 0.31900 0.08300
H 	H 	0.69520 0.49560 0.09070 0.07200
H 	H 	0.52120 0.58490 0.08890 0.00200
H 	H 	0.87250 0.38520 0.63130 0.15700
H 	H 	0.68000 0.37850 0.75130 0.15700
H 	H 	0.97700 0.37140 0.91570 0.01200
H 	H 	0.21420 0.31480 0.75620 0.19200
H 	H 	0.54570 0.16680 0.66370 0.01400
H 	H 	0.34740 0.08180 0.68100 0.08000
H 	H 	0.80480 0.99560 0.90930 0.07300
H 	H 	0.97880 0.08490 0.91110 0.00100
H 	H 	0.12750 0.61480 0.63130 0.15700
H 	H 	0.32000 0.62150 0.75130 0.15700
H 	H 	0.02300 0.62860 0.91570 0.01200
H 	H 	0.78580 0.68520 0.75620 0.19200
H 	H 	0.45430 0.83320 0.66370 0.01400
H 	H 	0.65260 0.91820 0.68100 0.08000
H 	H 	0.19520 0.00440 0.90930 0.07300
H 	H 	0.02120 0.91510 0.91110 0.00100
C 	C 	0.21410 0.19139 0.42270 0.46800
C 	C 	0.29430 0.14362 0.29820 -0.42100
C 	C 	0.42230 0.16448 0.14630 0.11900
C 	C 	0.30040 0.20122 0.01540 0.27200
C 	C 	0.09910 0.36860 0.28590 0.07900
C 	C 	0.98030 0.41950 0.27780 -0.13700
C 	C 	0.05850 0.47220 0.20880 0.05700
C 	C 	0.24690 0.46960 0.14090 -0.13000
C 	C 	0.35320 0.41650 0.14530 0.07600
C 	C 	0.78590 0.80861 0.42270 0.46800
C 	C 	0.70570 0.85638 0.29820 -0.42100
C 	C 	0.57770 0.83552 0.14630 0.11900
C 	C 	0.69960 0.79878 0.01540 0.27200
C 	C 	0.90090 0.63140 0.28590 0.07900
C 	C 	0.01970 0.58050 0.27780 -0.13700
C 	C 	0.94150 0.52780 0.20880 0.05700
C 	C 	0.75310 0.53040 0.14090 -0.13000
C 	C 	0.64680 0.58350 0.14530 0.07600
C 	C 	0.71410 0.30861 0.57730 0.46600
C 	C 	0.79430 0.35638 0.70180 -0.41700
C 	C 	0.92230 0.33552 0.85370 0.10700
C 	C 	0.80040 0.29878 0.98460 0.27700
C 	C 	0.59910 0.13140 0.71410 0.06800
C 	C 	0.48030 0.08050 0.72220 -0.12300
C 	C 	0.55850 0.02780 0.79120 0.05100
C 	C 	0.74690 0.03040 0.85910 -0.12900
C 	C 	0.85320 0.08350 0.85470 0.07400
C 	C 	0.28590 0.69139 0.57730 0.46600
C 	C 	0.20570 0.64362 0.70180 -0.41700
C 	C 	0.07770 0.66448 0.85370 0.10700
C 	C 	0.19960 0.70122 0.98460 0.27700
C 	C 	0.40090 0.86860 0.71410 0.06800
C 	C 	0.51970 0.91950 0.72220 -0.12300
C 	C 	0.44150 0.97220 0.79120 0.05100
C 	C 	0.25310 0.96960 0.85910 -0.12900
C 	C 	0.14680 0.91650 0.85470 0.07400
N 	N 	0.28700 0.36748 0.22500 -0.21900
N 	N 	0.71300 0.63252 0.22500 -0.21900
N 	N 	0.78700 0.13252 0.77500 -0.21800
N 	N 	0.21300 0.86748 0.77500 -0.21800
O 	O 	0.25330 0.24597 0.40020 -0.44600
O 	O 	0.10780 0.17148 0.54460 -0.44500
O 	O 	0.58420 0.19879 0.21690 -0.41400
O 	O 	0.32450 0.25767 0.01850 -0.36600
O 	O 	0.18240 0.17374 0.91840 -0.37000
O 	O 	0.74670 0.75403 0.40020 -0.44600
O 	O 	0.89220 0.82852 0.54460 -0.44500
O 	O 	0.41580 0.80121 0.21690 -0.41400
O 	O 	0.67550 0.74233 0.01850 -0.36600
O 	O 	0.81760 0.82626 0.91840 -0.37000
O 	O 	0.75330 0.25403 0.59980 -0.44900
O 	O 	0.60780 0.32852 0.45540 -0.44900
O 	O 	0.08420 0.30121 0.78310 -0.40300
O 	O 	0.82450 0.24233 0.98150 -0.37000
O 	O 	0.68240 0.32626 0.08160 -0.37700
O 	O 	0.24670 0.74597 0.59980 -0.44900
O 	O 	0.39220 0.67148 0.45540 -0.44900
O 	O 	0.91580 0.69879 0.78310 -0.40300
O 	O 	0.17550 0.75767 0.98150 -0.37000
O 	O 	0.31760 0.67374 0.08160 -0.37700
