data_crystal

_cell_length_a 13.54880
_cell_length_b 21.11400
_cell_length_c 21.11400
_cell_angle_alpha 84.09120
_cell_angle_beta  71.28570
_cell_angle_gamma 71.28560

_symmetry_space_group_name_	'P 1'
_symmetry_space_group_name_H-M	'P 1'

loop_
_symmetry_equiv_pos_as_xyz
  x,y,z

loop_
_atom_site_label
_atom_site_type_symbol
_atom_site_fract_x
_atom_site_fract_y
_atom_site_fract_z
_atom_site_charge
Ca	Ca	0.37206 0.81467 0.19513 1.49400
Ca	Ca	0.88186 0.68533 0.30487 1.49400
Ca	Ca	0.56719 0.80487 0.31467 1.49300
Ca	Ca	0.18673 0.69513 0.18533 1.49300
H 	H 	0.78410 0.75430 0.18390 -0.00200
H 	H 	0.02070 0.74120 0.00580 0.06100
H 	H 	0.70990 0.76930 0.00970 0.06300
H 	H 	0.87650 0.91250 0.80550 0.04900
H 	H 	0.04200 0.59060 0.81100 0.05600
H 	H 	0.22230 0.74570 0.31610 -0.00200
H 	H 	0.26770 0.75880 0.49420 0.06400
H 	H 	0.98890 0.73070 0.49030 0.06400
H 	H 	0.09450 0.58750 0.69450 0.04900
H 	H 	0.94360 0.90940 0.68900 0.05600
H 	H 	0.96800 0.81610 0.25430 -0.00400
H 	H 	0.02650 0.99420 0.24120 0.06000
H 	H 	0.71960 0.99030 0.26930 0.06200
H 	H 	0.68200 0.19450 0.41250 0.04900
H 	H 	0.85300 0.18900 0.09060 0.05600
H 	H 	0.53840 0.68390 0.24570 -0.00200
H 	H 	0.76190 0.50580 0.25880 0.06400
H 	H 	0.47920 0.50970 0.23070 0.06400
H 	H 	0.78900 0.30550 0.08750 0.04900
H 	H 	0.63260 0.31100 0.40940 0.05600
C 	C 	0.60970 0.77954 0.14006 0.39900
C 	C 	0.00097 0.73235 0.13531 0.38600
C 	C 	0.72789 0.76537 0.10245 -0.11200
C 	C 	0.80631 0.75458 0.13640 0.05400
C 	C 	0.91625 0.74447 0.10043 -0.10700
C 	C 	0.94689 0.74558 0.03104 -0.03000
C 	C 	0.86960 0.75306 0.99874 0.09500
C 	C 	0.76155 0.76342 0.03308 -0.03500
C 	C 	0.94960 0.68980 0.89460 0.22300
C 	C 	0.88800 0.81400 0.89280 0.21900
C 	C 	0.91190 0.87080 0.78300 -0.02400
C 	C 	0.92606 0.81167 0.81881 -0.06100
C 	C 	0.03220 0.63140 0.78680 -0.02300
C 	C 	0.98570 0.69010 0.82170 -0.06500
C 	C 	0.97460 0.74980 0.78600 0.03200
C 	C 	0.02930 0.72046 0.35994 0.39800
C 	C 	0.36863 0.76765 0.36469 0.38800
C 	C 	0.09571 0.73463 0.39755 -0.11000
C 	C 	0.19729 0.74542 0.36360 0.05300
C 	C 	0.26115 0.75553 0.39957 -0.10600
C 	C 	0.22351 0.75442 0.46896 -0.03500
C 	C 	0.12140 0.74694 0.50126 0.09900
C 	C 	0.05805 0.73658 0.46692 -0.03800
C 	C 	0.03400 0.81020 0.60540 0.22300
C 	C 	0.09480 0.68600 0.60720 0.21900
C 	C 	0.06570 0.62920 0.71700 -0.02500
C 	C 	0.05654 0.68833 0.68119 -0.06100
C 	C 	0.95040 0.86860 0.71320 -0.02400
C 	C 	0.99750 0.80990 0.67830 -0.06400
C 	C 	0.01040 0.75020 0.71400 0.03200
C 	C 	0.74976 0.85994 0.27954 0.40000
C 	C 	0.13628 0.86469 0.23235 0.39000
C 	C 	0.83034 0.89755 0.26537 -0.11300
C 	C 	0.94271 0.86360 0.25458 0.05900
C 	C 	0.01668 0.89957 0.24447 -0.11300
C 	C 	0.97793 0.96896 0.24558 -0.02700
C 	C 	0.86834 0.00126 0.25306 0.09400
C 	C 	0.79463 0.96692 0.26342 -0.03300
C 	C 	0.84420 0.10540 0.18980 0.22300
C 	C 	0.78080 0.10720 0.31400 0.21900
C 	C 	0.69490 0.21700 0.37080 -0.02400
C 	C 	0.74487 0.18119 0.31167 -0.06100
C 	C 	0.81900 0.21320 0.13140 -0.02400
C 	C 	0.80740 0.17830 0.19010 -0.06400
C 	C 	0.76060 0.21400 0.24980 0.03200
C 	C 	0.38924 0.64006 0.22046 0.39900
C 	C 	0.73332 0.63531 0.26765 0.38800
C 	C 	0.49326 0.60245 0.23463 -0.11000
C 	C 	0.56089 0.63640 0.24542 0.05400
C 	C 	0.66072 0.60043 0.25553 -0.10600
C 	C 	0.69247 0.53104 0.25442 -0.03500
C 	C 	0.62266 0.49874 0.24694 0.09800
C 	C 	0.52497 0.53308 0.23658 -0.03700
C 	C 	0.63940 0.39460 0.31020 0.22300
C 	C 	0.70200 0.39280 0.18600 0.21900
C 	C 	0.78270 0.28300 0.12920 -0.02400
C 	C 	0.73773 0.31881 0.18833 -0.06100
C 	C 	0.66360 0.28680 0.36860 -0.02400
C 	C 	0.67580 0.32170 0.30990 -0.06400
C 	C 	0.72440 0.28600 0.25020 0.03200
N 	N 	0.90664 0.75127 0.92545 -0.17900
N 	N 	0.08336 0.74873 0.57455 -0.17900
N 	N 	0.83209 0.07455 0.25127 -0.17900
N 	N 	0.65791 0.42545 0.24873 -0.17900
O 	O 	0.57854 0.79415 0.20097 -0.55000
O 	O 	0.54570 0.77821 0.10999 -0.47300
O 	O 	0.97841 0.71127 0.19491 -0.55500
O 	O 	0.08948 0.74104 0.10420 -0.46300
O 	O 	0.95669 0.63927 0.92735 -0.22300
O 	O 	0.84604 0.86490 0.92402 -0.23000
O 	O 	0.07366 0.70585 0.29903 -0.55000
O 	O 	0.93390 0.72179 0.39001 -0.47200
O 	O 	0.38459 0.78873 0.30509 -0.55600
O 	O 	0.43472 0.75896 0.39580 -0.46300
O 	O 	0.02331 0.86073 0.57265 -0.22300
O 	O 	0.13496 0.63510 0.57598 -0.23000
O 	O 	0.77951 0.79903 0.29415 -0.55000
O 	O 	0.65569 0.89001 0.27821 -0.47300
O 	O 	0.17332 0.80509 0.21127 -0.55700
O 	O 	0.19368 0.89580 0.24104 -0.46300
O 	O 	0.88404 0.07265 0.13927 -0.22200
O 	O 	0.77006 0.07598 0.36490 -0.23100
O 	O 	0.37269 0.70097 0.20585 -0.55000
O 	O 	0.32391 0.60999 0.22179 -0.47300
O 	O 	0.68968 0.69491 0.28873 -0.55600
O 	O 	0.83052 0.60420 0.25896 -0.46300
O 	O 	0.59596 0.42735 0.36073 -0.22300
O 	O 	0.71094 0.42402 0.13510 -0.23000
Ca	Ca	0.62794 0.18533 0.80487 1.49300
Ca	Ca	0.11814 0.31467 0.69513 1.49300
Ca	Ca	0.43281 0.19513 0.68533 1.49300
Ca	Ca	0.81327 0.30487 0.81467 1.49300
H 	H 	0.21590 0.24570 0.81610 -0.00200
H 	H 	0.97930 0.25880 0.99420 0.06100
H 	H 	0.29010 0.23070 0.99030 0.06300
H 	H 	0.12350 0.08750 0.19450 0.04900
H 	H 	0.95800 0.40940 0.18900 0.05600
H 	H 	0.77770 0.25430 0.68390 -0.00200
H 	H 	0.73230 0.24120 0.50580 0.06400
H 	H 	0.01110 0.26930 0.50970 0.06400
H 	H 	0.90550 0.41250 0.30550 0.04900
H 	H 	0.05640 0.09060 0.31100 0.05600
H 	H 	0.03200 0.18390 0.74570 -0.00400
H 	H 	0.97350 0.00580 0.75880 0.06000
H 	H 	0.28040 0.00970 0.73070 0.06200
H 	H 	0.31800 0.80550 0.58750 0.04900
H 	H 	0.14700 0.81100 0.90940 0.05600
H 	H 	0.46160 0.31610 0.75430 -0.00200
H 	H 	0.23810 0.49420 0.74120 0.06400
H 	H 	0.52080 0.49030 0.76930 0.06400
H 	H 	0.21100 0.69450 0.91250 0.04900
H 	H 	0.36740 0.68900 0.59060 0.05600
C 	C 	0.39030 0.22046 0.85994 0.39900
C 	C 	0.99903 0.26765 0.86469 0.38600
C 	C 	0.27211 0.23463 0.89755 -0.11200
C 	C 	0.19369 0.24542 0.86360 0.05400
C 	C 	0.08375 0.25553 0.89957 -0.10700
C 	C 	0.05311 0.25442 0.96896 -0.03000
C 	C 	0.13040 0.24694 0.00126 0.09500
C 	C 	0.23845 0.23658 0.96692 -0.03500
C 	C 	0.05040 0.31020 0.10540 0.22300
C 	C 	0.11200 0.18600 0.10720 0.21900
C 	C 	0.08810 0.12920 0.21700 -0.02400
C 	C 	0.07394 0.18833 0.18119 -0.06100
C 	C 	0.96780 0.36860 0.21320 -0.02300
C 	C 	0.01430 0.30990 0.17830 -0.06500
C 	C 	0.02540 0.25020 0.21400 0.03200
C 	C 	0.97070 0.27954 0.64006 0.39800
C 	C 	0.63137 0.23235 0.63531 0.38800
C 	C 	0.90429 0.26537 0.60245 -0.11000
C 	C 	0.80271 0.25458 0.63640 0.05300
C 	C 	0.73885 0.24447 0.60043 -0.10600
C 	C 	0.77649 0.24558 0.53104 -0.03500
C 	C 	0.87860 0.25306 0.49874 0.09900
C 	C 	0.94195 0.26342 0.53308 -0.03800
C 	C 	0.96600 0.18980 0.39460 0.22300
C 	C 	0.90520 0.31400 0.39280 0.21900
C 	C 	0.93430 0.37080 0.28300 -0.02500
C 	C 	0.94346 0.31167 0.31881 -0.06100
C 	C 	0.04960 0.13140 0.28680 -0.02400
C 	C 	0.00250 0.19010 0.32170 -0.06400
C 	C 	0.98960 0.24980 0.28600 0.03200
C 	C 	0.25024 0.14006 0.72046 0.40000
C 	C 	0.86372 0.13531 0.76765 0.39000
C 	C 	0.16966 0.10245 0.73463 -0.11300
C 	C 	0.05729 0.13640 0.74542 0.05900
C 	C 	0.98332 0.10043 0.75553 -0.11300
C 	C 	0.02207 0.03104 0.75442 -0.02700
C 	C 	0.13166 0.99874 0.74694 0.09400
C 	C 	0.20537 0.03308 0.73658 -0.03300
C 	C 	0.15580 0.89460 0.81020 0.22300
C 	C 	0.21920 0.89280 0.68600 0.21900
C 	C 	0.30510 0.78300 0.62920 -0.02400
C 	C 	0.25513 0.81881 0.68833 -0.06100
C 	C 	0.18100 0.78680 0.86860 -0.02400
C 	C 	0.19260 0.82170 0.80990 -0.06400
C 	C 	0.23940 0.78600 0.75020 0.03200
C 	C 	0.61076 0.35994 0.77954 0.39900
C 	C 	0.26668 0.36469 0.73235 0.38800
C 	C 	0.50674 0.39755 0.76537 -0.11000
C 	C 	0.43911 0.36360 0.75458 0.05400
C 	C 	0.33928 0.39957 0.74447 -0.10600
C 	C 	0.30753 0.46896 0.74558 -0.03500
C 	C 	0.37734 0.50126 0.75306 0.09800
C 	C 	0.47503 0.46692 0.76342 -0.03700
C 	C 	0.36060 0.60540 0.68980 0.22300
C 	C 	0.29800 0.60720 0.81400 0.21900
C 	C 	0.21730 0.71700 0.87080 -0.02400
C 	C 	0.26227 0.68119 0.81167 -0.06100
C 	C 	0.33640 0.71320 0.63140 -0.02400
C 	C 	0.32420 0.67830 0.69010 -0.06400
C 	C 	0.27560 0.71400 0.74980 0.03200
N 	N 	0.09336 0.24873 0.07455 -0.17900
N 	N 	0.91664 0.25127 0.42545 -0.17900
N 	N 	0.16791 0.92545 0.74873 -0.17900
N 	N 	0.34209 0.57455 0.75127 -0.17900
O 	O 	0.42146 0.20585 0.79903 -0.55000
O 	O 	0.45430 0.22179 0.89001 -0.47300
O 	O 	0.02159 0.28873 0.80509 -0.55500
O 	O 	0.91052 0.25896 0.89580 -0.46300
O 	O 	0.04331 0.36073 0.07265 -0.22300
O 	O 	0.15396 0.13510 0.07598 -0.23000
O 	O 	0.92634 0.29415 0.70097 -0.55000
O 	O 	0.06610 0.27821 0.60999 -0.47200
O 	O 	0.61541 0.21127 0.69491 -0.55600
O 	O 	0.56528 0.24104 0.60420 -0.46300
O 	O 	0.97669 0.13927 0.42735 -0.22300
O 	O 	0.86504 0.36490 0.42402 -0.23000
O 	O 	0.22049 0.20097 0.70585 -0.55000
O 	O 	0.34431 0.10999 0.72179 -0.47300
O 	O 	0.82668 0.19491 0.78873 -0.55700
O 	O 	0.80632 0.10420 0.75896 -0.46300
O 	O 	0.11596 0.92735 0.86073 -0.22200
O 	O 	0.22994 0.92402 0.63510 -0.23100
O 	O 	0.62731 0.29903 0.79415 -0.55000
O 	O 	0.67609 0.39001 0.77821 -0.47300
O 	O 	0.31032 0.30509 0.71127 -0.55600
O 	O 	0.16948 0.39580 0.74104 -0.46300
O 	O 	0.40404 0.57265 0.63927 -0.22300
O 	O 	0.28906 0.57598 0.86490 -0.23000
