data_crystal

_cell_length_a 9.98700
_cell_length_b 11.66400
_cell_length_c 22.77100
_cell_angle_alpha 90.00000
_cell_angle_beta  90.00000
_cell_angle_gamma 100.58800

_symmetry_space_group_name_	'P 1'
_symmetry_space_group_name_H-M	'P 1'

loop_
_symmetry_equiv_pos_as_xyz
  x,y,z

loop_
_atom_site_label
_atom_site_type_symbol
_atom_site_fract_x
_atom_site_fract_y
_atom_site_fract_z
_atom_site_charge
Mn	Mn	0.58444 0.88356 0.94987 1.28400
Mn	Mn	0.41556 0.61644 0.44987 1.28400
Mn	Mn	0.41556 0.11644 0.05013 1.28400
Mn	Mn	0.58444 0.38356 0.55013 1.28400
H 	H 	0.85450 0.01390 0.00460 -0.01700
H 	H 	0.01060 0.18200 0.00670 0.11000
H 	H 	0.79670 0.30730 0.88150 0.09300
H 	H 	0.64600 0.13480 0.88380 -0.01200
H 	H 	0.00030 0.43450 0.91720 0.04700
H 	H 	0.15040 0.34880 0.00130 0.08400
H 	H 	0.34110 0.48750 0.04050 0.10300
H 	H 	0.49680 0.65860 0.03320 -0.02100
H 	H 	0.31460 0.75110 0.89730 -0.01900
H 	H 	0.15290 0.58590 0.90140 0.09200
H 	H 	0.01090 0.81030 0.88110 0.01400
H 	H 	0.15250 0.74630 0.81430 0.09000
H 	H 	0.69290 0.62930 0.79760 0.03400
H 	H 	0.10950 0.49720 0.80850 0.34800
H 	H 	0.25960 0.47660 0.80210 0.34500
H 	H 	0.13940 0.38850 0.77390 0.35100
H 	H 	0.32850 0.45720 0.69070 0.15500
H 	H 	0.20590 0.69020 0.58790 0.10100
H 	H 	0.06030 0.72780 0.65940 -0.02100
H 	H 	0.14550 0.48610 0.50460 -0.01600
H 	H 	0.98940 0.31800 0.50670 0.11300
H 	H 	0.20330 0.19270 0.38150 0.09300
H 	H 	0.35400 0.36520 0.38380 -0.01200
H 	H 	0.99970 0.06550 0.41720 0.04700
H 	H 	0.84960 0.15120 0.50130 0.08500
H 	H 	0.65890 0.01250 0.54050 0.10300
H 	H 	0.50320 0.84140 0.53320 -0.02100
H 	H 	0.68540 0.74890 0.39730 -0.01900
H 	H 	0.84710 0.91410 0.40140 0.09200
H 	H 	0.98910 0.68970 0.38110 0.01000
H 	H 	0.84750 0.75370 0.31430 0.09200
H 	H 	0.30710 0.87070 0.29760 0.03300
H 	H 	0.89050 0.00280 0.30850 0.34800
H 	H 	0.74040 0.02340 0.30210 0.34400
H 	H 	0.86060 0.11150 0.27390 0.35100
H 	H 	0.67150 0.04280 0.19070 0.15500
H 	H 	0.79410 0.80980 0.08790 0.10100
H 	H 	0.93970 0.77220 0.15940 -0.02100
H 	H 	0.14550 0.98610 0.99540 -0.01700
H 	H 	0.98940 0.81800 0.99330 0.11000
H 	H 	0.20330 0.69270 0.11850 0.09300
H 	H 	0.35400 0.86520 0.11620 -0.01200
H 	H 	0.99970 0.56550 0.08280 0.04700
H 	H 	0.84960 0.65120 0.99870 0.08400
H 	H 	0.65890 0.51250 0.95950 0.10300
H 	H 	0.50320 0.34140 0.96680 -0.02100
H 	H 	0.68540 0.24890 0.10270 -0.01900
H 	H 	0.84710 0.41410 0.09860 0.09200
H 	H 	0.98910 0.18970 0.11890 0.01400
H 	H 	0.84750 0.25370 0.18570 0.09000
H 	H 	0.30710 0.37070 0.20240 0.03400
H 	H 	0.89050 0.50280 0.19150 0.34800
H 	H 	0.74040 0.52340 0.19790 0.34500
H 	H 	0.86060 0.61150 0.22610 0.35100
H 	H 	0.67150 0.54280 0.30930 0.15500
H 	H 	0.79410 0.30980 0.41210 0.10100
H 	H 	0.93970 0.27220 0.34060 -0.02100
H 	H 	0.85450 0.51390 0.49540 -0.01600
H 	H 	0.01060 0.68200 0.49330 0.11300
H 	H 	0.79670 0.80730 0.61850 0.09300
H 	H 	0.64600 0.63480 0.61620 -0.01200
H 	H 	0.00030 0.93450 0.58280 0.04700
H 	H 	0.15040 0.84880 0.49870 0.08500
H 	H 	0.34110 0.98750 0.45950 0.10300
H 	H 	0.49680 0.15860 0.46680 -0.02100
H 	H 	0.31460 0.25110 0.60270 -0.01900
H 	H 	0.15290 0.08590 0.59860 0.09200
H 	H 	0.01090 0.31030 0.61890 0.01000
H 	H 	0.15250 0.24630 0.68570 0.09200
H 	H 	0.69290 0.12930 0.70240 0.03300
H 	H 	0.10950 0.99720 0.69150 0.34800
H 	H 	0.25960 0.97660 0.69790 0.34400
H 	H 	0.13940 0.88850 0.72610 0.35100
H 	H 	0.32850 0.95720 0.80930 0.15500
H 	H 	0.20590 0.19020 0.91210 0.10100
H 	H 	0.06030 0.22780 0.84060 -0.02100
C 	C 	0.84270 0.07390 0.97940 0.11300
C 	C 	0.93670 0.17490 0.98120 -0.19200
C 	C 	0.92100 0.26610 0.94490 0.12800
C 	C 	0.81040 0.24890 0.90740 -0.18400
C 	C 	0.72090 0.14430 0.90880 0.10500
C 	C 	0.01930 0.37780 0.94300 -0.07200
C 	C 	0.13160 0.40420 0.97460 -0.12600
C 	C 	0.22830 0.51420 0.97060 0.15800
C 	C 	0.33310 0.53960 0.01040 -0.21200
C 	C 	0.42720 0.64290 0.00560 0.12700
C 	C 	0.32050 0.69670 0.92660 0.12000
C 	C 	0.22320 0.59710 0.92870 -0.21100
C 	C 	0.74310 0.77870 0.88510 0.32600
C 	C 	0.83750 0.73060 0.84480 -0.12200
C 	C 	0.97410 0.76220 0.85040 0.07200
C 	C 	0.05880 0.72270 0.81020 -0.19500
C 	C 	0.01040 0.65010 0.76450 0.12200
C 	C 	0.78650 0.65440 0.80070 0.01700
C 	C 	0.87240 0.61390 0.76040 -0.06600
C 	C 	0.10480 0.61800 0.71950 -0.25800
C 	C 	0.18780 0.53650 0.72930 0.44900
C 	C 	0.17280 0.46900 0.78300 -1.07300
C 	C 	0.27450 0.51320 0.68450 -0.33800
C 	C 	0.28250 0.56950 0.63220 0.08300
C 	C 	0.37730 0.54420 0.58500 0.33400
C 	C 	0.20180 0.65020 0.62340 -0.18300
C 	C 	0.11480 0.67270 0.66660 0.13200
C 	C 	0.15730 0.42610 0.47940 0.11200
C 	C 	0.06330 0.32510 0.48120 -0.19600
C 	C 	0.07900 0.23390 0.44490 0.12800
C 	C 	0.18960 0.25110 0.40740 -0.18500
C 	C 	0.27910 0.35570 0.40880 0.10500
C 	C 	0.98070 0.12220 0.44300 -0.07000
C 	C 	0.86840 0.09580 0.47460 -0.12700
C 	C 	0.77170 0.98580 0.47060 0.15800
C 	C 	0.66690 0.96040 0.51040 -0.21200
C 	C 	0.57280 0.85710 0.50560 0.12700
C 	C 	0.67950 0.80330 0.42660 0.12000
C 	C 	0.77680 0.90290 0.42870 -0.21100
C 	C 	0.25690 0.72130 0.38510 0.32800
C 	C 	0.16250 0.76940 0.34480 -0.12600
C 	C 	0.02590 0.73780 0.35040 0.08000
C 	C 	0.94120 0.77730 0.31020 -0.20100
C 	C 	0.98960 0.84990 0.26450 0.12300
C 	C 	0.21350 0.84560 0.30070 0.01900
C 	C 	0.12760 0.88610 0.26040 -0.06500
C 	C 	0.89520 0.88200 0.21950 -0.25700
C 	C 	0.81220 0.96350 0.22930 0.44800
C 	C 	0.82720 0.03100 0.28300 -1.07200
C 	C 	0.72550 0.98680 0.18450 -0.33600
C 	C 	0.71750 0.93050 0.13220 0.08200
C 	C 	0.62270 0.95580 0.08500 0.33600
C 	C 	0.79820 0.84980 0.12340 -0.18200
C 	C 	0.88520 0.82730 0.16660 0.13100
C 	C 	0.15730 0.92610 0.02060 0.11300
C 	C 	0.06330 0.82510 0.01880 -0.19200
C 	C 	0.07900 0.73390 0.05510 0.12800
C 	C 	0.18960 0.75110 0.09260 -0.18400
C 	C 	0.27910 0.85570 0.09120 0.10500
C 	C 	0.98070 0.62220 0.05700 -0.07200
C 	C 	0.86840 0.59580 0.02540 -0.12600
C 	C 	0.77170 0.48580 0.02940 0.15800
C 	C 	0.66690 0.46040 0.98960 -0.21200
C 	C 	0.57280 0.35710 0.99440 0.12700
C 	C 	0.67950 0.30330 0.07340 0.12000
C 	C 	0.77680 0.40290 0.07130 -0.21100
C 	C 	0.25690 0.22130 0.11490 0.32600
C 	C 	0.16250 0.26940 0.15520 -0.12200
C 	C 	0.02590 0.23780 0.14960 0.07200
C 	C 	0.94120 0.27730 0.18980 -0.19500
C 	C 	0.98960 0.34990 0.23550 0.12200
C 	C 	0.21350 0.34560 0.19930 0.01700
C 	C 	0.12760 0.38610 0.23960 -0.06600
C 	C 	0.89520 0.38200 0.28050 -0.25800
C 	C 	0.81220 0.46350 0.27070 0.44900
C 	C 	0.82720 0.53100 0.21700 -1.07300
C 	C 	0.72550 0.48680 0.31550 -0.33800
C 	C 	0.71750 0.43050 0.36780 0.08300
C 	C 	0.62270 0.45580 0.41500 0.33400
C 	C 	0.79820 0.34980 0.37660 -0.18300
C 	C 	0.88520 0.32730 0.33340 0.13200
C 	C 	0.84270 0.57390 0.52060 0.11200
C 	C 	0.93670 0.67490 0.51880 -0.19600
C 	C 	0.92100 0.76610 0.55510 0.12800
C 	C 	0.81040 0.74890 0.59260 -0.18500
C 	C 	0.72090 0.64430 0.59120 0.10500
C 	C 	0.01930 0.87780 0.55700 -0.07000
C 	C 	0.13160 0.90420 0.52540 -0.12700
C 	C 	0.22830 0.01420 0.52940 0.15800
C 	C 	0.33310 0.03960 0.48960 -0.21200
C 	C 	0.42720 0.14290 0.49440 0.12700
C 	C 	0.32050 0.19670 0.57340 0.12000
C 	C 	0.22320 0.09710 0.57130 -0.21100
C 	C 	0.74310 0.27870 0.61490 0.32800
C 	C 	0.83750 0.23060 0.65520 -0.12600
C 	C 	0.97410 0.26220 0.64960 0.08000
C 	C 	0.05880 0.22270 0.68980 -0.20100
C 	C 	0.01040 0.15010 0.73550 0.12300
C 	C 	0.78650 0.15440 0.69930 0.01900
C 	C 	0.87240 0.11390 0.73960 -0.06500
C 	C 	0.10480 0.11800 0.78050 -0.25700
C 	C 	0.18780 0.03650 0.77070 0.44800
C 	C 	0.17280 0.96900 0.71700 -1.07200
C 	C 	0.27450 0.01320 0.81550 -0.33600
C 	C 	0.28250 0.06950 0.86780 0.08200
C 	C 	0.37730 0.04420 0.91500 0.33600
C 	C 	0.20180 0.15020 0.87660 -0.18200
C 	C 	0.11480 0.17270 0.83340 0.13100
N 	N 	0.42170 0.71830 0.96425 -0.24900
N 	N 	0.73490 0.05580 0.94371 -0.24900
N 	N 	0.57830 0.78170 0.46425 -0.24900
N 	N 	0.26510 0.44420 0.44371 -0.24900
N 	N 	0.57830 0.28170 0.03575 -0.24900
N 	N 	0.26510 0.94420 0.05629 -0.24900
N 	N 	0.42170 0.21830 0.53575 -0.24900
N 	N 	0.73490 0.55580 0.55629 -0.24900
O 	O 	0.63310 0.80110 0.86457 -0.39000
O 	O 	0.77380 0.79910 0.93683 -0.40200
O 	O 	0.43490 0.45830 0.59237 -0.45700
O 	O 	0.39270 0.61000 0.54080 -0.47000
O 	O 	0.36690 0.69890 0.36457 -0.39000
O 	O 	0.22620 0.70090 0.43683 -0.40200
O 	O 	0.56510 0.04170 0.09237 -0.45800
O 	O 	0.60730 0.89000 0.04080 -0.46900
O 	O 	0.36690 0.19890 0.13543 -0.39000
O 	O 	0.22620 0.20090 0.06317 -0.40200
O 	O 	0.56510 0.54170 0.40763 -0.45700
O 	O 	0.60730 0.39000 0.45920 -0.47000
O 	O 	0.63310 0.30110 0.63543 -0.39000
O 	O 	0.77380 0.29910 0.56317 -0.40200
O 	O 	0.43490 0.95830 0.90763 -0.45800
O 	O 	0.39270 0.11000 0.95920 -0.46900
