data_crystal

_cell_length_a 11.72100
_cell_length_b 14.95460
_cell_length_c 14.95460
_cell_angle_alpha 96.44850
_cell_angle_beta  107.06000
_cell_angle_gamma 107.06000

_symmetry_space_group_name_	'P 1'
_symmetry_space_group_name_H-M	'P 1'

loop_
_symmetry_equiv_pos_as_xyz
  x,y,z

loop_
_atom_site_label
_atom_site_type_symbol
_atom_site_fract_x
_atom_site_fract_y
_atom_site_fract_z
_atom_site_charge
Zn	Zn	0.88190 0.80543 0.56081 1.21400
Zn	Zn	0.88190 0.56081 0.80543 1.21400
H 	H 	0.08050 0.74040 0.50980 -0.01000
H 	H 	0.29300 0.79570 0.53070 0.08900
H 	H 	0.31480 0.05030 0.66150 0.09600
H 	H 	0.10490 0.98870 0.63950 -0.00600
H 	H 	0.49550 0.84690 0.56850 0.07300
H 	H 	0.80740 0.08260 0.65760 0.07400
H 	H 	0.95160 0.37980 0.84800 -0.00700
H 	H 	0.87160 0.21650 0.79510 0.08700
H 	H 	0.55490 0.24390 0.62450 0.09600
H 	H 	0.64460 0.40490 0.67810 0.00200
H 	H 	0.08050 0.50980 0.74040 -0.01000
H 	H 	0.29300 0.53070 0.79570 0.08900
H 	H 	0.31480 0.66150 0.05030 0.09600
H 	H 	0.10490 0.63950 0.98870 -0.00600
H 	H 	0.49550 0.56850 0.84690 0.07300
H 	H 	0.80740 0.65760 0.08260 0.07400
H 	H 	0.95160 0.84800 0.37980 -0.00700
H 	H 	0.87160 0.79510 0.21650 0.08700
H 	H 	0.55490 0.62450 0.24390 0.09600
H 	H 	0.64460 0.67810 0.40490 0.00200
C 	C 	0.12860 0.80370 0.54130 0.09300
C 	C 	0.25660 0.83660 0.55340 -0.15000
C 	C 	0.33030 0.93040 0.59960 0.08600
C 	C 	0.26950 0.98650 0.63070 -0.14800
C 	C 	0.14310 0.94910 0.61690 0.09900
C 	C 	0.46840 0.97110 0.61350 0.05500
C 	C 	0.53590 0.91260 0.59220 -0.07400
C 	C 	0.66380 0.95550 0.60710 -0.00500
C 	C 	0.72100 0.05270 0.64530 -0.07700
C 	C 	0.64790 0.10550 0.66490 0.05300
C 	C 	0.87120 0.35180 0.80140 0.08500
C 	C 	0.82360 0.25350 0.77050 -0.14600
C 	C 	0.70290 0.21030 0.70190 0.07700
C 	C 	0.63670 0.27000 0.66920 -0.14800
C 	C 	0.69060 0.36650 0.70230 0.09000
C 	C 	0.74040 0.89620 0.58340 0.28700
C 	C 	0.12860 0.54130 0.80370 0.09300
C 	C 	0.25660 0.55340 0.83660 -0.15000
C 	C 	0.33030 0.59960 0.93040 0.08600
C 	C 	0.26950 0.63070 0.98650 -0.14800
C 	C 	0.14310 0.61690 0.94910 0.09900
C 	C 	0.46840 0.61350 0.97110 0.05500
C 	C 	0.53590 0.59220 0.91260 -0.07400
C 	C 	0.66380 0.60710 0.95550 -0.00500
C 	C 	0.72100 0.64530 0.05270 -0.07700
C 	C 	0.64790 0.66490 0.10550 0.05300
C 	C 	0.87120 0.80140 0.35180 0.08500
C 	C 	0.82360 0.77050 0.25350 -0.14600
C 	C 	0.70290 0.70190 0.21030 0.07700
C 	C 	0.63670 0.66920 0.27000 -0.14800
C 	C 	0.69060 0.70230 0.36650 0.09000
C 	C 	0.74040 0.58340 0.89620 0.28700
C 	C 	0.91240 0.72740 0.72740 0.22600
C 	C 	0.86670 0.64180 0.64180 0.21500
N 	N 	0.07160 0.85878 0.57278 -0.26100
N 	N 	0.52300 0.06523 0.64837 -0.12000
N 	N 	0.80740 0.40898 0.76808 -0.24900
N 	N 	0.07160 0.57278 0.85878 -0.26100
N 	N 	0.52300 0.64837 0.06523 -0.12000
N 	N 	0.80740 0.76808 0.40898 -0.24900
O 	O 	0.68980 0.80780 0.55960 -0.36100
O 	O 	0.85200 0.93956 0.58828 -0.38600
O 	O 	0.92930 0.80817 0.70865 -0.35900
O 	O 	0.85000 0.65988 0.55982 -0.36900
O 	O 	0.68980 0.55960 0.80780 -0.36100
O 	O 	0.85200 0.58828 0.93956 -0.38600
O 	O 	0.92930 0.70865 0.80817 -0.35900
O 	O 	0.85000 0.55982 0.65988 -0.36900
Zn	Zn	0.11810 0.43919 0.19457 1.21300
Zn	Zn	0.11810 0.19457 0.43919 1.21300
H 	H 	0.91950 0.49020 0.25960 -0.01000
H 	H 	0.70700 0.46930 0.20430 0.08900
H 	H 	0.68520 0.33850 0.94970 0.09600
H 	H 	0.89510 0.36050 0.01130 -0.00600
H 	H 	0.50450 0.43150 0.15310 0.07300
H 	H 	0.19260 0.34240 0.91740 0.07400
H 	H 	0.04840 0.15200 0.62020 -0.00700
H 	H 	0.12840 0.20490 0.78350 0.08700
H 	H 	0.44510 0.37550 0.75610 0.09600
H 	H 	0.35540 0.32190 0.59510 0.00200
H 	H 	0.91950 0.25960 0.49020 -0.01000
H 	H 	0.70700 0.20430 0.46930 0.08900
H 	H 	0.68520 0.94970 0.33850 0.09600
H 	H 	0.89510 0.01130 0.36050 -0.00600
H 	H 	0.50450 0.15310 0.43150 0.07300
H 	H 	0.19260 0.91740 0.34240 0.07400
H 	H 	0.04840 0.62020 0.15200 -0.00700
H 	H 	0.12840 0.78350 0.20490 0.08700
H 	H 	0.44510 0.75610 0.37550 0.09600
H 	H 	0.35540 0.59510 0.32190 0.00200
C 	C 	0.87140 0.45870 0.19630 0.09300
C 	C 	0.74340 0.44660 0.16340 -0.15000
C 	C 	0.66970 0.40040 0.06960 0.08600
C 	C 	0.73050 0.36930 0.01350 -0.14800
C 	C 	0.85690 0.38310 0.05090 0.09900
C 	C 	0.53160 0.38650 0.02890 0.05500
C 	C 	0.46410 0.40780 0.08740 -0.07400
C 	C 	0.33620 0.39290 0.04450 -0.00500
C 	C 	0.27900 0.35470 0.94730 -0.07700
C 	C 	0.35210 0.33510 0.89450 0.05300
C 	C 	0.12880 0.19860 0.64820 0.08500
C 	C 	0.17640 0.22950 0.74650 -0.14600
C 	C 	0.29710 0.29810 0.78970 0.07700
C 	C 	0.36330 0.33080 0.73000 -0.14800
C 	C 	0.30940 0.29770 0.63350 0.09000
C 	C 	0.25960 0.41660 0.10380 0.28700
C 	C 	0.87140 0.19630 0.45870 0.09300
C 	C 	0.74340 0.16340 0.44660 -0.15000
C 	C 	0.66970 0.06960 0.40040 0.08600
C 	C 	0.73050 0.01350 0.36930 -0.14800
C 	C 	0.85690 0.05090 0.38310 0.09900
C 	C 	0.53160 0.02890 0.38650 0.05500
C 	C 	0.46410 0.08740 0.40780 -0.07400
C 	C 	0.33620 0.04450 0.39290 -0.00500
C 	C 	0.27900 0.94730 0.35470 -0.07700
C 	C 	0.35210 0.89450 0.33510 0.05300
C 	C 	0.12880 0.64820 0.19860 0.08500
C 	C 	0.17640 0.74650 0.22950 -0.14600
C 	C 	0.29710 0.78970 0.29810 0.07700
C 	C 	0.36330 0.73000 0.33080 -0.14800
C 	C 	0.30940 0.63350 0.29770 0.09000
C 	C 	0.25960 0.10380 0.41660 0.28700
C 	C 	0.08760 0.27260 0.27260 0.22600
C 	C 	0.13330 0.35820 0.35820 0.21500
N 	N 	0.92840 0.42722 0.14122 -0.26100
N 	N 	0.47700 0.35163 0.93477 -0.12000
N 	N 	0.19260 0.23192 0.59102 -0.24900
N 	N 	0.92840 0.14122 0.42722 -0.26100
N 	N 	0.47700 0.93477 0.35163 -0.12000
N 	N 	0.19260 0.59102 0.23192 -0.24900
O 	O 	0.31020 0.44040 0.19220 -0.36100
O 	O 	0.14800 0.41172 0.06044 -0.38600
O 	O 	0.07070 0.29135 0.19183 -0.35900
O 	O 	0.15000 0.44018 0.34012 -0.36900
O 	O 	0.31020 0.19220 0.44040 -0.36100
O 	O 	0.14800 0.06044 0.41172 -0.38600
O 	O 	0.07070 0.19183 0.29135 -0.35900
O 	O 	0.15000 0.34012 0.44018 -0.36900
