data_crystal

_cell_length_a 14.55200
_cell_length_b 15.63900
_cell_length_c 16.76400
_cell_angle_alpha 90.00000
_cell_angle_beta  90.00000
_cell_angle_gamma 90.00000

_symmetry_space_group_name_	'P 1'
_symmetry_space_group_name_H-M	'P 1'

loop_
_symmetry_equiv_pos_as_xyz
  x,y,z

loop_
_atom_site_label
_atom_site_type_symbol
_atom_site_fract_x
_atom_site_fract_y
_atom_site_fract_z
_atom_site_charge
Zn	Zn	0.65608 0.47633 0.21036 1.20900
Zn	Zn	0.91323 0.97403 0.26238 1.20500
Zn	Zn	0.15608 0.02367 0.78964 1.20900
Zn	Zn	0.41323 0.52597 0.73762 1.20700
H 	H 	0.73480 0.71230 0.38430 0.10500
H 	H 	0.80810 0.71010 0.23320 0.09200
H 	H 	0.54900 0.50370 0.96590 0.08900
H 	H 	0.56380 0.33440 0.92760 0.10300
H 	H 	0.77320 0.31610 0.14540 0.03100
H 	H 	0.90190 0.25200 0.21780 0.06200
H 	H 	0.80130 0.44150 0.34530 -0.00100
H 	H 	0.99540 0.29940 0.34380 0.09400
H 	H 	0.95770 0.37670 0.39330 0.08600
H 	H 	0.90260 0.34660 0.52220 0.06600
H 	H 	0.86510 0.24980 0.62130 0.06000
H 	H 	0.86270 0.06030 0.46180 0.04700
H 	H 	0.89780 0.15770 0.36060 0.05300
H 	H 	0.83940 0.02370 0.59220 0.07100
H 	H 	0.77960 0.09190 0.63700 0.06800
H 	H 	0.99380 0.14810 0.83720 0.02600
H 	H 	0.85330 0.17040 0.76030 0.04300
H 	H 	0.00830 0.00140 0.64740 -0.00500
H 	H 	0.98520 0.89110 0.42990 0.02600
H 	H 	0.10890 0.95250 0.50910 0.06400
H 	H 	0.07590 0.09210 0.31490 0.00700
H 	H 	0.23610 0.07150 0.47590 0.09200
H 	H 	0.22160 0.12500 0.39790 0.08500
H 	H 	0.13750 0.10960 0.59590 0.06000
H 	H 	0.09480 0.22420 0.67500 0.04700
H 	H 	0.12160 0.38100 0.48740 0.05300
H 	H 	0.16040 0.26560 0.40720 0.06800
H 	H 	0.02800 0.37620 0.67420 0.06400
H 	H 	0.06530 0.43930 0.60900 0.07000
H 	H 	0.29290 0.39220 0.83460 0.02300
H 	H 	0.14280 0.33650 0.79280 0.03600
H 	H 	0.23180 0.49740 0.62950 -0.00500
H 	H 	0.23480 0.78770 0.61570 0.10500
H 	H 	0.30810 0.78990 0.76680 0.09300
H 	H 	0.04900 0.99630 0.03410 0.08300
H 	H 	0.06380 0.16560 0.07240 0.10800
H 	H 	0.27320 0.18390 0.85460 0.03000
H 	H 	0.40190 0.24800 0.78220 0.06200
H 	H 	0.30130 0.05850 0.65470 -0.00200
H 	H 	0.49540 0.20060 0.65620 0.09400
H 	H 	0.45770 0.12330 0.60670 0.08500
H 	H 	0.40260 0.15340 0.47780 0.06600
H 	H 	0.36510 0.25020 0.37870 0.06000
H 	H 	0.36270 0.43970 0.53820 0.04700
H 	H 	0.39780 0.34230 0.63940 0.05300
H 	H 	0.33940 0.47630 0.40780 0.07100
H 	H 	0.27960 0.40810 0.36300 0.06800
H 	H 	0.49380 0.35190 0.16280 0.02700
H 	H 	0.35330 0.32960 0.23970 0.04300
H 	H 	0.50830 0.49860 0.35260 -0.00100
H 	H 	0.48520 0.60890 0.57010 0.02900
H 	H 	0.60890 0.54750 0.49090 0.06300
H 	H 	0.57590 0.40790 0.68510 0.00700
H 	H 	0.73610 0.42850 0.52410 0.09200
H 	H 	0.72160 0.37500 0.60210 0.08500
H 	H 	0.63750 0.39040 0.40410 0.06000
H 	H 	0.59480 0.27580 0.32500 0.04700
H 	H 	0.62160 0.11900 0.51260 0.05300
H 	H 	0.66040 0.23440 0.59280 0.06800
H 	H 	0.52800 0.12380 0.32580 0.06400
H 	H 	0.56530 0.06070 0.39100 0.07000
H 	H 	0.79290 0.10780 0.16540 0.02400
H 	H 	0.64280 0.16350 0.20720 0.03700
H 	H 	0.73180 0.00260 0.37050 -0.00500
C 	C 	0.70060 0.60860 0.31000 0.36200
C 	C 	0.74440 0.69090 0.33320 -0.14400
C 	C 	0.79680 0.73450 0.28290 -0.10800
C 	C 	0.83890 0.81910 0.29950 0.32300
C 	C 	0.61420 0.42710 0.05240 0.33600
C 	C 	0.56610 0.44730 0.97500 -0.11500
C 	C 	0.54680 0.39110 0.91980 -0.13100
C 	C 	0.49860 0.41520 0.84530 0.33700
C 	C 	0.79490 0.33350 0.19500 0.01200
C 	C 	0.86570 0.29740 0.23490 -0.02600
C 	C 	0.80960 0.40200 0.30440 0.08800
C 	C 	0.94060 0.32320 0.36810 -0.15400
C 	C 	0.90660 0.26200 0.43180 0.08300
C 	C 	0.89530 0.28910 0.50960 -0.08500
C 	C 	0.87310 0.23080 0.56920 -0.06000
C 	C 	0.86280 0.14550 0.55200 0.06000
C 	C 	0.87130 0.11780 0.47400 -0.06400
C 	C 	0.89280 0.17630 0.41310 -0.07300
C 	C 	0.84040 0.08030 0.61600 -0.11900
C 	C 	0.97890 0.12130 0.78940 0.00200
C 	C 	0.90120 0.13360 0.74730 -0.00900
C 	C 	0.98730 0.04020 0.68520 0.09900
C 	C 	0.01900 0.93960 0.41680 0.01900
C 	C 	0.08720 0.97280 0.46050 -0.02300
C 	C 	0.06830 0.04960 0.35320 0.07700
C 	C 	0.19090 0.10270 0.44490 -0.15500
C 	C 	0.15640 0.17630 0.49370 0.08800
C 	C 	0.13470 0.16420 0.57400 -0.08300
C 	C 	0.10920 0.23280 0.62160 -0.05300
C 	C 	0.10510 0.31510 0.58870 0.05500
C 	C 	0.12460 0.32650 0.50940 -0.05800
C 	C 	0.14910 0.25720 0.46130 -0.08800
C 	C 	0.08100 0.39040 0.64180 -0.11900
C 	C 	0.26200 0.40660 0.78800 0.00300
C 	C 	0.17900 0.37550 0.76510 -0.00200
C 	C 	0.22900 0.46450 0.67560 0.09800
C 	C 	0.20060 0.89140 0.69000 0.36200
C 	C 	0.24440 0.80910 0.66680 -0.14300
C 	C 	0.29680 0.76550 0.71710 -0.10700
C 	C 	0.33890 0.68090 0.70050 0.32300
C 	C 	0.11420 0.07290 0.94760 0.32700
C 	C 	0.06610 0.05270 0.02500 -0.09800
C 	C 	0.04680 0.10890 0.08020 -0.14200
C 	C 	0.99860 0.08480 0.15470 0.34300
C 	C 	0.29490 0.16650 0.80500 0.01200
C 	C 	0.36570 0.20260 0.76510 -0.02600
C 	C 	0.30960 0.09800 0.69560 0.08800
C 	C 	0.44060 0.17680 0.63190 -0.15400
C 	C 	0.40660 0.23800 0.56820 0.08300
C 	C 	0.39530 0.21090 0.49040 -0.08500
C 	C 	0.37310 0.26920 0.43080 -0.06000
C 	C 	0.36280 0.35450 0.44800 0.06000
C 	C 	0.37130 0.38220 0.52600 -0.06400
C 	C 	0.39280 0.32370 0.58690 -0.07300
C 	C 	0.34040 0.41970 0.38400 -0.12000
C 	C 	0.47890 0.37870 0.21060 -0.00000
C 	C 	0.40120 0.36640 0.25270 -0.00700
C 	C 	0.48730 0.45980 0.31480 0.09300
C 	C 	0.51900 0.56040 0.58320 0.01500
C 	C 	0.58720 0.52720 0.53950 -0.02300
C 	C 	0.56830 0.45040 0.64680 0.07900
C 	C 	0.69090 0.39730 0.55510 -0.15500
C 	C 	0.65640 0.32370 0.50630 0.08800
C 	C 	0.63470 0.33580 0.42600 -0.08300
C 	C 	0.60920 0.26720 0.37840 -0.05300
C 	C 	0.60510 0.18490 0.41130 0.05500
C 	C 	0.62460 0.17350 0.49060 -0.05800
C 	C 	0.64910 0.24280 0.53870 -0.08800
C 	C 	0.58100 0.10960 0.35820 -0.11900
C 	C 	0.76200 0.09340 0.21200 0.00400
C 	C 	0.67900 0.12450 0.23490 -0.00200
C 	C 	0.72900 0.03550 0.32440 0.09900
N 	N 	0.76000 0.40010 0.23950 -0.26900
N 	N 	0.87330 0.34100 0.30520 -0.10100
N 	N 	0.03310 0.06230 0.74970 -0.26800
N 	N 	0.90630 0.08100 0.68120 -0.10500
N 	N 	0.00660 0.98850 0.34910 -0.26400
N 	N 	0.11880 0.04290 0.41930 -0.09800
N 	N 	0.29310 0.46320 0.73063 -0.26300
N 	N 	0.15890 0.41240 0.69390 -0.10700
N 	N 	0.26000 0.09990 0.76050 -0.27000
N 	N 	0.37330 0.15900 0.69480 -0.10100
N 	N 	0.53310 0.43770 0.25030 -0.26400
N 	N 	0.40630 0.41900 0.31880 -0.10400
N 	N 	0.50660 0.51150 0.65090 -0.26500
N 	N 	0.61880 0.45710 0.58070 -0.09800
N 	N 	0.79310 0.03680 0.26937 -0.26200
N 	N 	0.65890 0.08760 0.30610 -0.10700
O 	O 	0.69640 0.59167 0.23663 -0.47000
O 	O 	0.67500 0.55840 0.36230 -0.33300
O 	O 	0.87780 0.85459 0.23950 -0.45000
O 	O 	0.83210 0.85418 0.36623 -0.31500
O 	O 	0.62710 0.49240 0.09722 -0.45900
O 	O 	0.63470 0.35280 0.07060 -0.30200
O 	O 	0.46530 0.49190 0.84172 -0.45100
O 	O 	0.49370 0.36209 0.79130 -0.32000
O 	O 	0.19640 0.90833 0.76337 -0.46800
O 	O 	0.17500 0.94160 0.63770 -0.33100
O 	O 	0.37780 0.64541 0.76050 -0.44900
O 	O 	0.33210 0.64582 0.63377 -0.31500
O 	O 	0.12710 0.00760 0.90278 -0.46000
O 	O 	0.13470 0.14720 0.92940 -0.30200
O 	O 	0.96530 0.00810 0.15828 -0.44900
O 	O 	0.99370 0.13791 0.20870 -0.32100
Zn	Zn	0.84392 0.52367 0.71036 1.21000
Zn	Zn	0.58677 0.02597 0.76238 1.20700
Zn	Zn	0.34392 0.97633 0.28964 1.21000
Zn	Zn	0.08677 0.47403 0.23762 1.20700
H 	H 	0.76520 0.28770 0.88430 0.10500
H 	H 	0.69190 0.28990 0.73320 0.09300
H 	H 	0.95100 0.49630 0.46590 0.08900
H 	H 	0.93620 0.66560 0.42760 0.10400
H 	H 	0.72680 0.68390 0.64540 0.03000
H 	H 	0.59810 0.74800 0.71780 0.06200
H 	H 	0.69870 0.55850 0.84530 -0.00100
H 	H 	0.50460 0.70060 0.84380 0.09500
H 	H 	0.54230 0.62330 0.89330 0.08700
H 	H 	0.59740 0.65340 0.02220 0.06900
H 	H 	0.63490 0.75020 0.12130 0.05700
H 	H 	0.63730 0.93970 0.96180 0.04500
H 	H 	0.60220 0.84230 0.86060 0.05500
H 	H 	0.66060 0.97630 0.09220 0.06800
H 	H 	0.72040 0.90810 0.13700 0.06600
H 	H 	0.50620 0.85190 0.33720 0.02700
H 	H 	0.64670 0.82960 0.26030 0.04200
H 	H 	0.49170 0.99860 0.14740 -0.00200
H 	H 	0.51480 0.10890 0.92990 0.02500
H 	H 	0.39110 0.04750 0.00910 0.07300
H 	H 	0.42410 0.90790 0.81490 0.00600
H 	H 	0.26390 0.92850 0.97590 0.09500
H 	H 	0.27840 0.87500 0.89790 0.08700
H 	H 	0.36250 0.89040 0.09590 0.06100
H 	H 	0.40520 0.77580 0.17500 0.04600
H 	H 	0.37840 0.61900 0.98740 0.05400
H 	H 	0.33960 0.73440 0.90720 0.06800
H 	H 	0.47200 0.62380 0.17420 0.06400
H 	H 	0.43470 0.56070 0.10900 0.07000
H 	H 	0.20710 0.60780 0.33460 0.02300
H 	H 	0.35720 0.66350 0.29280 0.03700
H 	H 	0.26820 0.50260 0.12950 -0.00500
H 	H 	0.26520 0.21230 0.11570 0.10600
H 	H 	0.19190 0.21010 0.26680 0.09200
H 	H 	0.45100 0.00370 0.53410 0.08700
H 	H 	0.43620 0.83440 0.57240 0.10500
H 	H 	0.22680 0.81610 0.35460 0.03000
H 	H 	0.09810 0.75200 0.28220 0.06200
H 	H 	0.19870 0.94150 0.15470 -0.00200
H 	H 	0.00460 0.79940 0.15620 0.09400
H 	H 	0.04230 0.87670 0.10670 0.08500
H 	H 	0.09740 0.84660 0.97780 0.06600
H 	H 	0.13490 0.74980 0.87870 0.06100
H 	H 	0.13730 0.56030 0.03820 0.04800
H 	H 	0.10220 0.65770 0.13940 0.05200
H 	H 	0.16060 0.52370 0.90780 0.07100
H 	H 	0.22040 0.59190 0.86300 0.06900
H 	H 	0.00620 0.64810 0.66280 0.02700
H 	H 	0.14670 0.67040 0.73970 0.04300
H 	H 	0.99170 0.50140 0.85260 -0.00200
H 	H 	0.01480 0.39110 0.07010 0.02900
H 	H 	0.89110 0.45250 0.99090 0.06200
H 	H 	0.92410 0.59210 0.18510 0.00700
H 	H 	0.76390 0.57150 0.02410 0.09300
H 	H 	0.77840 0.62500 0.10210 0.08600
H 	H 	0.86250 0.60960 0.90410 0.06200
H 	H 	0.90520 0.72420 0.82500 0.04500
H 	H 	0.87840 0.88100 0.01260 0.04600
H 	H 	0.83960 0.76560 0.09280 0.07200
H 	H 	0.97200 0.87620 0.82580 0.06300
H 	H 	0.93470 0.93930 0.89100 0.06900
H 	H 	0.70710 0.89220 0.66540 0.02300
H 	H 	0.85720 0.83650 0.70720 0.03700
H 	H 	0.76820 0.99740 0.87050 -0.00500
C 	C 	0.79940 0.39140 0.81000 0.36200
C 	C 	0.75560 0.30910 0.83320 -0.14300
C 	C 	0.70320 0.26550 0.78290 -0.10800
C 	C 	0.66110 0.18090 0.79950 0.32300
C 	C 	0.88580 0.57290 0.55240 0.33400
C 	C 	0.93390 0.55270 0.47500 -0.11100
C 	C 	0.95320 0.60890 0.41980 -0.13300
C 	C 	0.00140 0.58480 0.34530 0.33800
C 	C 	0.70510 0.66650 0.69500 0.01200
C 	C 	0.63430 0.70260 0.73490 -0.02600
C 	C 	0.69040 0.59800 0.80440 0.08800
C 	C 	0.55940 0.67680 0.86810 -0.15700
C 	C 	0.59340 0.73800 0.93180 0.08900
C 	C 	0.60470 0.71090 0.00960 -0.09300
C 	C 	0.62690 0.76920 0.06920 -0.05300
C 	C 	0.63720 0.85450 0.05200 0.05200
C 	C 	0.62870 0.88220 0.97400 -0.05600
C 	C 	0.60720 0.82370 0.91310 -0.07900
C 	C 	0.65960 0.91970 0.11600 -0.11500
C 	C 	0.52110 0.87870 0.28940 -0.00100
C 	C 	0.59880 0.86640 0.24730 -0.00800
C 	C 	0.51270 0.95980 0.18520 0.09300
C 	C 	0.48100 0.06040 0.91680 0.02300
C 	C 	0.41280 0.02720 0.96050 -0.04100
C 	C 	0.43170 0.95040 0.85320 0.08300
C 	C 	0.30910 0.89730 0.94490 -0.15800
C 	C 	0.34360 0.82370 0.99370 0.09200
C 	C 	0.36530 0.83580 0.07400 -0.08700
C 	C 	0.39080 0.76720 0.12160 -0.05100
C 	C 	0.39490 0.68490 0.08870 0.05500
C 	C 	0.37540 0.67350 0.00940 -0.06000
C 	C 	0.35090 0.74280 0.96130 -0.08800
C 	C 	0.41900 0.60960 0.14180 -0.11900
C 	C 	0.23800 0.59340 0.28800 0.00300
C 	C 	0.32100 0.62450 0.26510 -0.00200
C 	C 	0.27100 0.53550 0.17560 0.09800
C 	C 	0.29940 0.10860 0.19000 0.36200
C 	C 	0.25560 0.19090 0.16680 -0.14400
C 	C 	0.20320 0.23450 0.21710 -0.10700
C 	C 	0.16110 0.31910 0.20050 0.32300
C 	C 	0.38580 0.92710 0.44760 0.33400
C 	C 	0.43390 0.94730 0.52500 -0.10900
C 	C 	0.45320 0.89110 0.58020 -0.13300
C 	C 	0.50140 0.91520 0.65470 0.33800
C 	C 	0.20510 0.83350 0.30500 0.01200
C 	C 	0.13430 0.79740 0.26510 -0.02600
C 	C 	0.19040 0.90200 0.19560 0.08800
C 	C 	0.05940 0.82320 0.13190 -0.15200
C 	C 	0.09340 0.76200 0.06820 0.07800
C 	C 	0.10470 0.78910 0.99040 -0.08000
C 	C 	0.12690 0.73080 0.93080 -0.06300
C 	C 	0.13720 0.64550 0.94800 0.06300
C 	C 	0.12870 0.61780 0.02600 -0.06800
C 	C 	0.10720 0.67630 0.08690 -0.07000
C 	C 	0.15960 0.58030 0.88400 -0.12100
C 	C 	0.02110 0.62130 0.71060 0.00000
C 	C 	0.09880 0.63360 0.75270 -0.00800
C 	C 	0.01270 0.54020 0.81480 0.09400
C 	C 	0.98100 0.43960 0.08320 0.01500
C 	C 	0.91280 0.47280 0.03950 -0.02100
C 	C 	0.93170 0.54960 0.14680 0.07800
C 	C 	0.80910 0.60270 0.05510 -0.15700
C 	C 	0.84360 0.67630 0.00630 0.09200
C 	C 	0.86530 0.66420 0.92600 -0.08700
C 	C 	0.89080 0.73280 0.87840 -0.04800
C 	C 	0.89490 0.81510 0.91130 0.04900
C 	C 	0.87540 0.82650 0.99060 -0.04500
C 	C 	0.85090 0.75720 0.03870 -0.09800
C 	C 	0.91900 0.89040 0.85820 -0.11500
C 	C 	0.73800 0.90660 0.71200 0.00300
C 	C 	0.82100 0.87550 0.73490 -0.00200
C 	C 	0.77100 0.96450 0.82440 0.09900
N 	N 	0.74000 0.59990 0.73950 -0.26900
N 	N 	0.62670 0.65900 0.80520 -0.10100
N 	N 	0.46690 0.93770 0.24970 -0.26500
N 	N 	0.59370 0.91900 0.18120 -0.10500
N 	N 	0.49340 0.01150 0.84910 -0.26800
N 	N 	0.38120 0.95710 0.91930 -0.09300
N 	N 	0.20690 0.53680 0.23063 -0.26300
N 	N 	0.34110 0.58760 0.19390 -0.10700
N 	N 	0.24000 0.90010 0.26050 -0.27000
N 	N 	0.12670 0.84100 0.19480 -0.10100
N 	N 	0.96690 0.56230 0.75030 -0.26500
N 	N 	0.09370 0.58100 0.81880 -0.10400
N 	N 	0.99340 0.48850 0.15090 -0.26500
N 	N 	0.88120 0.54290 0.08070 -0.09800
N 	N 	0.70690 0.96320 0.76937 -0.26300
N 	N 	0.84110 0.91240 0.80610 -0.10700
O 	O 	0.80360 0.40833 0.73663 -0.47000
O 	O 	0.82500 0.44160 0.86230 -0.33300
O 	O 	0.62220 0.14541 0.73950 -0.44900
O 	O 	0.66790 0.14582 0.86623 -0.31600
O 	O 	0.87290 0.50760 0.59722 -0.45900
O 	O 	0.86530 0.64720 0.57060 -0.30300
O 	O 	0.03470 0.50810 0.34172 -0.45100
O 	O 	0.00630 0.63791 0.29130 -0.32000
O 	O 	0.30360 0.09167 0.26337 -0.47000
O 	O 	0.32500 0.05840 0.13770 -0.33200
O 	O 	0.12220 0.35459 0.26050 -0.44900
O 	O 	0.16790 0.35418 0.13377 -0.31500
O 	O 	0.37290 0.99240 0.40278 -0.45800
O 	O 	0.36530 0.85280 0.42940 -0.30200
O 	O 	0.53470 0.99190 0.65828 -0.45000
O 	O 	0.50630 0.86209 0.70870 -0.32000
