data_crystal

_cell_length_a 12.38960
_cell_length_b 12.44010
_cell_length_c 16.57870
_cell_angle_alpha 83.98040
_cell_angle_beta  77.84290
_cell_angle_gamma 60.13430

_symmetry_space_group_name_	'P 1'
_symmetry_space_group_name_H-M	'P 1'

loop_
_symmetry_equiv_pos_as_xyz
  x,y,z

loop_
_atom_site_label
_atom_site_type_symbol
_atom_site_fract_x
_atom_site_fract_y
_atom_site_fract_z
_atom_site_charge
La	La	0.48528 0.09346 0.59992 1.67300
La	La	0.42126 0.09346 0.90008 1.66300
La	La	0.51472 0.90654 0.40008 1.67200
La	La	0.57874 0.90654 0.09992 1.66200
H 	H 	0.78580 0.66420 0.45450 0.02400
H 	H 	0.07090 0.24380 0.64530 0.05000
H 	H 	0.89430 0.25220 0.58830 0.07100
H 	H 	0.88290 0.07480 0.11270 0.07400
H 	H 	0.74780 0.07800 0.25090 0.05800
H 	H 	0.91810 0.73700 0.62950 0.03200
H 	H 	0.91340 0.45920 0.38290 0.06300
H 	H 	0.04920 0.23380 0.88980 0.02100
H 	H 	0.86260 0.07420 0.45770 0.02700
H 	H 	0.80890 0.58540 0.77040 0.04200
H 	H 	0.69100 0.59740 0.83640 0.04300
H 	H 	0.70350 0.78860 0.82620 0.13900
H 	H 	0.55000 0.66420 0.04550 0.02600
H 	H 	0.68530 0.24380 0.85470 0.04500
H 	H 	0.85350 0.25220 0.91170 0.06400
H 	H 	0.04230 0.07480 0.38730 0.07500
H 	H 	0.17420 0.07800 0.24910 0.05900
H 	H 	0.34490 0.73700 0.87050 0.03300
H 	H 	0.62740 0.45920 0.11710 0.06200
H 	H 	0.71700 0.23380 0.61020 0.01800
H 	H 	0.06320 0.07420 0.04230 0.03100
H 	H 	0.60570 0.58540 0.72960 0.04200
H 	H 	0.71160 0.59740 0.66360 0.04300
H 	H 	0.50790 0.78860 0.67380 0.13900
H 	H 	0.21420 0.33580 0.54550 0.02400
H 	H 	0.92910 0.75620 0.35470 0.05000
H 	H 	0.10570 0.74780 0.41170 0.07100
H 	H 	0.11710 0.92520 0.88730 0.07400
H 	H 	0.25220 0.92200 0.74910 0.05800
H 	H 	0.08190 0.26300 0.37050 0.03200
H 	H 	0.08660 0.54080 0.61710 0.06300
H 	H 	0.95080 0.76620 0.11020 0.02100
H 	H 	0.13740 0.92580 0.54230 0.02700
H 	H 	0.19110 0.41460 0.22960 0.04200
H 	H 	0.30900 0.40260 0.16360 0.04300
H 	H 	0.29650 0.21140 0.17380 0.13900
H 	H 	0.45000 0.33580 0.95450 0.02600
H 	H 	0.31470 0.75620 0.14530 0.04500
H 	H 	0.14650 0.74780 0.08830 0.06400
H 	H 	0.95770 0.92520 0.61270 0.07500
H 	H 	0.82580 0.92200 0.75090 0.05900
H 	H 	0.65510 0.26300 0.12950 0.03300
H 	H 	0.37260 0.54080 0.88290 0.06200
H 	H 	0.28300 0.76620 0.38980 0.01800
H 	H 	0.93680 0.92580 0.95770 0.03100
H 	H 	0.39430 0.41460 0.27040 0.04200
H 	H 	0.28840 0.40260 0.33640 0.04300
H 	H 	0.49210 0.21140 0.32620 0.13900
C 	C 	0.71860 0.84340 0.55560 0.36700
C 	C 	0.83330 0.71840 0.54230 -0.11400
C 	C 	0.95320 0.51840 0.47560 0.01800
C 	C 	0.08020 0.23440 0.76510 -0.11800
C 	C 	0.21440 0.21180 0.75140 0.42700
C 	C 	0.84750 0.63900 0.48670 -0.01800
C 	C 	0.02780 0.24260 0.69830 -0.02700
C 	C 	0.85520 0.24720 0.64190 -0.11200
C 	C 	0.93990 0.07540 0.14100 -0.10500
C 	C 	0.67220 0.07560 0.41030 0.38300
C 	C 	0.78790 0.07620 0.36020 -0.10600
C 	C 	0.80750 0.07720 0.27720 -0.02800
C 	C 	0.91750 0.07680 0.22840 0.02700
C 	C 	0.90750 0.24920 0.70970 0.03200
C 	C 	0.92610 0.68220 0.59170 0.02500
C 	C 	0.97230 0.43440 0.41710 -0.10000
C 	C 	0.01330 0.23800 0.84490 0.02900
C 	C 	0.87720 0.07520 0.40030 0.03200
C 	C 	0.71740 0.63200 0.78600 -0.03100
C 	C 	0.43800 0.84340 0.94440 0.36500
C 	C 	0.44830 0.71840 0.95770 -0.10600
C 	C 	0.52840 0.51840 0.02440 0.02000
C 	C 	0.68540 0.23440 0.73490 -0.12700
C 	C 	0.57380 0.21180 0.74860 0.43000
C 	C 	0.51350 0.63900 0.01330 -0.02700
C 	C 	0.72960 0.24260 0.80170 -0.01500
C 	C 	0.89760 0.24720 0.85810 -0.09600
C 	C 	0.98470 0.07540 0.35900 -0.10800
C 	C 	0.25220 0.07560 0.08970 0.38100
C 	C 	0.13590 0.07620 0.13980 -0.10300
C 	C 	0.11530 0.07720 0.22280 -0.03200
C 	C 	0.00570 0.07680 0.27160 0.03400
C 	C 	0.84330 0.24920 0.79030 0.01800
C 	C 	0.39170 0.68220 0.90830 0.02100
C 	C 	0.59330 0.43440 0.08290 -0.09700
C 	C 	0.74870 0.23800 0.65510 0.04500
C 	C 	0.04760 0.07520 0.09970 0.03100
C 	C 	0.65060 0.63200 0.71400 -0.03000
C 	C 	0.28140 0.15660 0.44440 0.36700
C 	C 	0.16670 0.28160 0.45770 -0.11400
C 	C 	0.04680 0.48160 0.52440 0.01800
C 	C 	0.91980 0.76560 0.23490 -0.11800
C 	C 	0.78560 0.78820 0.24860 0.42700
C 	C 	0.15250 0.36100 0.51330 -0.01800
C 	C 	0.97220 0.75740 0.30170 -0.02700
C 	C 	0.14480 0.75280 0.35810 -0.11200
C 	C 	0.06010 0.92460 0.85900 -0.10500
C 	C 	0.32780 0.92440 0.58970 0.38300
C 	C 	0.21210 0.92380 0.63980 -0.10600
C 	C 	0.19250 0.92280 0.72280 -0.02800
C 	C 	0.08250 0.92320 0.77160 0.02700
C 	C 	0.09250 0.75080 0.29030 0.03200
C 	C 	0.07390 0.31780 0.40830 0.02500
C 	C 	0.02770 0.56560 0.58290 -0.10000
C 	C 	0.98670 0.76200 0.15510 0.02900
C 	C 	0.12280 0.92480 0.59970 0.03200
C 	C 	0.28260 0.36800 0.21400 -0.03100
C 	C 	0.56200 0.15660 0.05560 0.36500
C 	C 	0.55170 0.28160 0.04230 -0.10600
C 	C 	0.47160 0.48160 0.97560 0.02000
C 	C 	0.31460 0.76560 0.26510 -0.12700
C 	C 	0.42620 0.78820 0.25140 0.43000
C 	C 	0.48650 0.36100 0.98670 -0.02700
C 	C 	0.27040 0.75740 0.19830 -0.01500
C 	C 	0.10240 0.75280 0.14190 -0.09600
C 	C 	0.01530 0.92460 0.64100 -0.10800
C 	C 	0.74780 0.92440 0.91030 0.38100
C 	C 	0.86410 0.92380 0.86020 -0.10300
C 	C 	0.88470 0.92280 0.77720 -0.03200
C 	C 	0.99430 0.92320 0.72840 0.03400
C 	C 	0.15670 0.75080 0.20970 0.01800
C 	C 	0.60830 0.31780 0.09170 0.02100
C 	C 	0.40670 0.56560 0.91710 -0.09700
C 	C 	0.25130 0.76200 0.34490 0.04500
C 	C 	0.95240 0.92480 0.90030 0.03100
C 	C 	0.34940 0.36800 0.28600 -0.03000
C 	C 	0.57950 0.84100 0.75000 0.23900
C 	C 	0.42050 0.15900 0.25000 0.23900
N 	N 	0.67410 0.76180 0.79540 -0.21500
N 	N 	0.56410 0.76180 0.70460 -0.21600
N 	N 	0.32590 0.23820 0.20460 -0.21500
N 	N 	0.43590 0.23820 0.29540 -0.21600
O 	O 	0.63404 0.87612 0.51300 -0.49300
O 	O 	0.70720 0.91320 0.60990 -0.37800
O 	O 	0.26850 0.21880 0.68130 -0.44400
O 	O 	0.26150 0.19020 0.81450 -0.46200
O 	O 	0.64140 0.10760 0.48360 -0.43200
O 	O 	0.61140 0.04520 0.37410 -0.42300
O 	O 	0.48984 0.87612 0.98700 -0.48800
O 	O 	0.37960 0.91320 0.89010 -0.37500
O 	O 	0.51270 0.21880 0.81870 -0.44600
O 	O 	0.54830 0.19020 0.68550 -0.46200
O 	O 	0.25100 0.10760 0.01640 -0.42700
O 	O 	0.34340 0.04520 0.12590 -0.42000
O 	O 	0.36596 0.12388 0.48700 -0.49300
O 	O 	0.29280 0.08680 0.39010 -0.37800
O 	O 	0.73150 0.78120 0.31870 -0.44400
O 	O 	0.73850 0.80980 0.18550 -0.46200
O 	O 	0.35860 0.89240 0.51640 -0.43200
O 	O 	0.38860 0.95480 0.62590 -0.42300
O 	O 	0.51016 0.12388 0.01300 -0.48800
O 	O 	0.62040 0.08680 0.10990 -0.37500
O 	O 	0.48730 0.78120 0.18130 -0.44600
O 	O 	0.45170 0.80980 0.31450 -0.46200
O 	O 	0.74900 0.89240 0.98360 -0.42700
O 	O 	0.65660 0.95480 0.87410 -0.42000
O 	O 	0.51400 0.97200 0.75000 -0.35900
O 	O 	0.48600 0.02800 0.25000 -0.35900
