data_crystal

_cell_length_a 14.46690
_cell_length_b 17.04600
_cell_length_c 18.02000
_cell_angle_alpha 90.00000
_cell_angle_beta  90.00000
_cell_angle_gamma 90.00000

_symmetry_space_group_name_	'P 1'
_symmetry_space_group_name_H-M	'P 1'

loop_
_symmetry_equiv_pos_as_xyz
  x,y,z

loop_
_atom_site_label
_atom_site_type_symbol
_atom_site_fract_x
_atom_site_fract_y
_atom_site_fract_z
_atom_site_charge
Zn	Zn	0.84644 0.94473 0.60166 1.22600
Zn	Zn	0.05399 0.93639 0.54667 1.17800
Zn	Zn	0.15356 0.44473 0.89834 1.22600
Zn	Zn	0.94601 0.43639 0.95333 1.17800
Zn	Zn	0.15356 0.05527 0.39834 1.22500
Zn	Zn	0.94601 0.06361 0.45333 1.17700
Zn	Zn	0.84644 0.55527 0.10166 1.22500
Zn	Zn	0.05399 0.56361 0.04667 1.17700
H 	H 	0.13340 0.12120 0.69390 0.05700
H 	H 	0.16380 0.23040 0.76600 0.03900
H 	H 	0.90910 0.22020 0.84710 0.03300
H 	H 	0.87740 0.11110 0.77920 0.06100
H 	H 	0.57880 0.06460 0.59230 0.05600
H 	H 	0.56310 0.89200 0.44430 0.05000
H 	H 	0.86660 0.62120 0.80610 0.05300
H 	H 	0.83620 0.73040 0.73400 0.04100
H 	H 	0.09090 0.72020 0.65290 0.03500
H 	H 	0.12260 0.61110 0.72080 0.05500
H 	H 	0.42120 0.56460 0.90770 0.05600
H 	H 	0.43690 0.39200 0.05570 0.05000
H 	H 	0.86660 0.87880 0.30610 0.05700
H 	H 	0.83620 0.76960 0.23400 0.03900
H 	H 	0.09090 0.77980 0.15290 0.03300
H 	H 	0.12260 0.88890 0.22080 0.06100
H 	H 	0.42120 0.93540 0.40770 0.05600
H 	H 	0.43690 0.10800 0.55570 0.05000
H 	H 	0.13340 0.37880 0.19390 0.05300
H 	H 	0.16380 0.26960 0.26600 0.04100
H 	H 	0.90910 0.27980 0.34710 0.03500
H 	H 	0.87740 0.38890 0.27920 0.05500
H 	H 	0.57880 0.43540 0.09230 0.05600
H 	H 	0.56310 0.60800 0.94430 0.05000
C 	C 	0.98080 0.03540 0.67790 0.35600
C 	C 	0.00160 0.10410 0.72760 -0.05600
C 	C 	0.08760 0.14110 0.72480 -0.04600
C 	C 	0.10570 0.20720 0.76760 0.01100
C 	C 	0.03840 0.23820 0.81200 -0.11200
C 	C 	0.95440 0.20030 0.81570 0.00800
C 	C 	0.93500 0.13500 0.77520 -0.05100
C 	C 	0.05310 0.31110 0.85500 0.40400
C 	C 	0.68130 0.94370 0.54380 0.30700
C 	C 	0.58680 0.97330 0.52270 -0.06300
C 	C 	0.54740 0.03800 0.55490 -0.02700
C 	C 	0.53770 0.93590 0.46720 -0.02600
C 	C 	0.01920 0.53540 0.82210 0.37300
C 	C 	0.99840 0.60410 0.77240 -0.07600
C 	C 	0.91240 0.64110 0.77520 -0.03500
C 	C 	0.89430 0.70720 0.73240 0.00300
C 	C 	0.96160 0.73820 0.68800 -0.11000
C 	C 	0.04560 0.70030 0.68430 0.00200
C 	C 	0.06500 0.63500 0.72480 -0.03400
C 	C 	0.94690 0.81110 0.64500 0.40000
C 	C 	0.31870 0.44370 0.95620 0.30700
C 	C 	0.41320 0.47330 0.97730 -0.06200
C 	C 	0.45260 0.53800 0.94510 -0.02600
C 	C 	0.46230 0.43590 0.03280 -0.02700
C 	C 	0.01920 0.96460 0.32210 0.35600
C 	C 	0.99840 0.89590 0.27240 -0.05600
C 	C 	0.91240 0.85890 0.27520 -0.04600
C 	C 	0.89430 0.79280 0.23240 0.01100
C 	C 	0.96160 0.76180 0.18800 -0.11200
C 	C 	0.04560 0.79970 0.18430 0.00800
C 	C 	0.06500 0.86500 0.22480 -0.05100
C 	C 	0.94690 0.68890 0.14500 0.40400
C 	C 	0.31870 0.05630 0.45620 0.30700
C 	C 	0.41320 0.02670 0.47730 -0.06300
C 	C 	0.45260 0.96200 0.44510 -0.02700
C 	C 	0.46230 0.06410 0.53280 -0.02600
C 	C 	0.98080 0.46460 0.17790 0.37300
C 	C 	0.00160 0.39590 0.22760 -0.07600
C 	C 	0.08760 0.35890 0.22480 -0.03500
C 	C 	0.10570 0.29280 0.26760 0.00300
C 	C 	0.03840 0.26180 0.31200 -0.11000
C 	C 	0.95440 0.29970 0.31570 0.00200
C 	C 	0.93500 0.36500 0.27520 -0.03400
C 	C 	0.05310 0.18890 0.35500 0.40000
C 	C 	0.68130 0.55630 0.04380 0.30700
C 	C 	0.58680 0.52670 0.02270 -0.06200
C 	C 	0.54740 0.46200 0.05490 -0.02600
C 	C 	0.53770 0.56410 0.96720 -0.02700
O 	O 	0.91800 0.96150 0.51110 -0.68400
O 	O 	0.89800 0.01190 0.68030 -0.47800
O 	O 	0.04430 0.00990 0.63860 -0.47800
O 	O 	0.98790 0.33890 0.89030 -0.51100
O 	O 	0.13460 0.34060 0.85340 -0.46800
O 	O 	0.71990 0.98010 0.59750 -0.45300
O 	O 	0.71710 0.88970 0.50980 -0.32900
O 	O 	0.08200 0.46150 0.98890 -0.68300
O 	O 	0.10200 0.51190 0.81970 -0.48000
O 	O 	0.95570 0.50990 0.86140 -0.48700
O 	O 	0.01210 0.83890 0.60970 -0.50900
O 	O 	0.86540 0.84060 0.64660 -0.46700
O 	O 	0.28010 0.48010 0.90250 -0.45200
O 	O 	0.28290 0.38970 0.99020 -0.32800
O 	O 	0.08200 0.03850 0.48890 -0.68400
O 	O 	0.10200 0.98810 0.31970 -0.47800
O 	O 	0.95570 0.99010 0.36140 -0.47800
O 	O 	0.01210 0.66110 0.10970 -0.51100
O 	O 	0.86540 0.65940 0.14660 -0.46800
O 	O 	0.28010 0.01990 0.40250 -0.45300
O 	O 	0.28290 0.11030 0.49020 -0.32900
O 	O 	0.91800 0.53850 0.01110 -0.68300
O 	O 	0.89800 0.48810 0.18030 -0.48000
O 	O 	0.04430 0.49010 0.13860 -0.48700
O 	O 	0.98790 0.16110 0.39030 -0.50900
O 	O 	0.13460 0.15940 0.35340 -0.46700
O 	O 	0.71990 0.51990 0.09750 -0.45200
O 	O 	0.71710 0.61030 0.00980 -0.32800
Zn	Zn	0.65356 0.05527 0.10166 1.22400
Zn	Zn	0.44601 0.06361 0.04667 1.17700
Zn	Zn	0.34644 0.55527 0.39834 1.22500
Zn	Zn	0.55399 0.56361 0.45333 1.17800
Zn	Zn	0.34644 0.94473 0.89834 1.22400
Zn	Zn	0.55399 0.93639 0.95333 1.17700
Zn	Zn	0.65356 0.44473 0.60166 1.22500
Zn	Zn	0.44601 0.43639 0.54667 1.17800
H 	H 	0.36660 0.87880 0.19390 0.05400
H 	H 	0.33620 0.76960 0.26600 0.04000
H 	H 	0.59090 0.77980 0.34710 0.03500
H 	H 	0.62260 0.88890 0.27920 0.05700
H 	H 	0.92120 0.93540 0.09230 0.05100
H 	H 	0.93690 0.10800 0.94430 0.05300
H 	H 	0.63340 0.37880 0.30610 0.05400
H 	H 	0.66380 0.26960 0.23400 0.04000
H 	H 	0.40910 0.27980 0.15290 0.03400
H 	H 	0.37740 0.38890 0.22080 0.05700
H 	H 	0.07880 0.43540 0.40770 0.05600
H 	H 	0.06310 0.60800 0.55570 0.05000
H 	H 	0.63340 0.12120 0.80610 0.05400
H 	H 	0.66380 0.23040 0.73400 0.04000
H 	H 	0.40910 0.22020 0.65290 0.03500
H 	H 	0.37740 0.11110 0.72080 0.05700
H 	H 	0.07880 0.06460 0.90770 0.05100
H 	H 	0.06310 0.89200 0.05570 0.05300
H 	H 	0.36660 0.62120 0.69390 0.05400
H 	H 	0.33620 0.73040 0.76600 0.04000
H 	H 	0.59090 0.72020 0.84710 0.03400
H 	H 	0.62260 0.61110 0.77920 0.05700
H 	H 	0.92120 0.56460 0.59230 0.05600
H 	H 	0.93690 0.39200 0.44430 0.05000
C 	C 	0.51920 0.96460 0.17790 0.36800
C 	C 	0.49840 0.89590 0.22760 -0.07000
C 	C 	0.41240 0.85890 0.22480 -0.03900
C 	C 	0.39430 0.79280 0.26760 0.00600
C 	C 	0.46160 0.76180 0.31200 -0.11200
C 	C 	0.54560 0.79970 0.31570 0.00600
C 	C 	0.56500 0.86500 0.27520 -0.04000
C 	C 	0.44690 0.68890 0.35500 0.39900
C 	C 	0.81870 0.05630 0.04380 0.31000
C 	C 	0.91320 0.02670 0.02270 -0.07200
C 	C 	0.95260 0.96200 0.05490 -0.00700
C 	C 	0.96230 0.06410 0.96720 -0.03400
C 	C 	0.48080 0.46460 0.32210 0.36800
C 	C 	0.50160 0.39590 0.27240 -0.07100
C 	C 	0.58760 0.35890 0.27520 -0.03900
C 	C 	0.60570 0.29280 0.23240 0.00600
C 	C 	0.53840 0.26180 0.18800 -0.11200
C 	C 	0.45440 0.29970 0.18430 0.00600
C 	C 	0.43500 0.36500 0.22480 -0.03900
C 	C 	0.55310 0.18890 0.14500 0.39900
C 	C 	0.18130 0.55630 0.45620 0.30700
C 	C 	0.08680 0.52670 0.47730 -0.06300
C 	C 	0.04740 0.46200 0.44510 -0.02600
C 	C 	0.03770 0.56410 0.53280 -0.02600
C 	C 	0.48080 0.03540 0.82210 0.36800
C 	C 	0.50160 0.10410 0.77240 -0.07000
C 	C 	0.58760 0.14110 0.77520 -0.03900
C 	C 	0.60570 0.20720 0.73240 0.00600
C 	C 	0.53840 0.23820 0.68800 -0.11200
C 	C 	0.45440 0.20030 0.68430 0.00600
C 	C 	0.43500 0.13500 0.72480 -0.04000
C 	C 	0.55310 0.31110 0.64500 0.39900
C 	C 	0.18130 0.94370 0.95620 0.31000
C 	C 	0.08680 0.97330 0.97730 -0.07200
C 	C 	0.04740 0.03800 0.94510 -0.00700
C 	C 	0.03770 0.93590 0.03280 -0.03400
C 	C 	0.51920 0.53540 0.67790 0.36800
C 	C 	0.49840 0.60410 0.72760 -0.07100
C 	C 	0.41240 0.64110 0.72480 -0.03900
C 	C 	0.39430 0.70720 0.76760 0.00600
C 	C 	0.46160 0.73820 0.81200 -0.11200
C 	C 	0.54560 0.70030 0.81570 0.00600
C 	C 	0.56500 0.63500 0.77520 -0.03900
C 	C 	0.44690 0.81110 0.85500 0.39900
C 	C 	0.81870 0.44370 0.54380 0.30700
C 	C 	0.91320 0.47330 0.52270 -0.06300
C 	C 	0.95260 0.53800 0.55490 -0.02600
C 	C 	0.96230 0.43590 0.46720 -0.02600
O 	O 	0.58200 0.03850 0.01110 -0.68700
O 	O 	0.60200 0.98810 0.18030 -0.47700
O 	O 	0.45570 0.99010 0.13860 -0.48300
O 	O 	0.51210 0.66110 0.39030 -0.50700
O 	O 	0.36540 0.65940 0.35340 -0.46700
O 	O 	0.78010 0.01990 0.09750 -0.45600
O 	O 	0.78290 0.11030 0.00980 -0.33100
O 	O 	0.41800 0.53850 0.48890 -0.68500
O 	O 	0.39800 0.48810 0.31970 -0.47900
O 	O 	0.54430 0.49010 0.36140 -0.48400
O 	O 	0.48790 0.16110 0.10970 -0.50800
O 	O 	0.63460 0.15940 0.14660 -0.46800
O 	O 	0.21990 0.51990 0.40250 -0.45300
O 	O 	0.21710 0.61030 0.49020 -0.33000
O 	O 	0.41800 0.96150 0.98890 -0.68700
O 	O 	0.39800 0.01190 0.81970 -0.47700
O 	O 	0.54430 0.00990 0.86140 -0.48300
O 	O 	0.48790 0.33890 0.60970 -0.50700
O 	O 	0.63460 0.34060 0.64660 -0.46700
O 	O 	0.21990 0.98010 0.90250 -0.45600
O 	O 	0.21710 0.88970 0.99020 -0.33100
O 	O 	0.58200 0.46150 0.51110 -0.68500
O 	O 	0.60200 0.51190 0.68030 -0.47900
O 	O 	0.45570 0.50990 0.63860 -0.48400
O 	O 	0.51210 0.83890 0.89030 -0.50800
O 	O 	0.36540 0.84060 0.85340 -0.46800
O 	O 	0.78010 0.48010 0.59750 -0.45300
O 	O 	0.78290 0.38970 0.50980 -0.33000
