data_crystal

_cell_length_a 11.08600
_cell_length_b 17.97800
_cell_length_c 17.97800
_cell_angle_alpha 90.00000
_cell_angle_beta  90.00000
_cell_angle_gamma 90.00000

_symmetry_space_group_name_	'P 1'
_symmetry_space_group_name_H-M	'P 1'

loop_
_symmetry_equiv_pos_as_xyz
  x,y,z

loop_
_atom_site_label
_atom_site_type_symbol
_atom_site_fract_x
_atom_site_fract_y
_atom_site_fract_z
_atom_site_charge
V 	V 	0.09509 0.55968 0.96267 1.71700
V 	V 	0.59509 0.44032 0.03733 1.71800
V 	V 	0.84509 0.53733 0.05968 1.71800
V 	V 	0.34509 0.46267 0.94032 1.71800
V 	V 	0.65491 0.94032 0.46267 1.71900
V 	V 	0.15491 0.05968 0.53733 1.71800
V 	V 	0.90491 0.96267 0.55968 1.72000
V 	V 	0.40491 0.03733 0.44032 1.71800
V 	V 	0.00000 0.96063 0.96063 1.82900
V 	V 	0.50000 0.03937 0.03937 1.83100
V 	V 	0.75000 0.53937 0.46063 1.83400
V 	V 	0.25000 0.46063 0.53937 1.83500
V 	V 	0.25000 0.06713 0.93287 1.61900
V 	V 	0.75000 0.93287 0.06713 1.62000
V 	V 	1.00000 0.56713 0.56713 1.62100
V 	V 	0.50000 0.43287 0.43287 1.61900
Ni	Ni	0.07769 0.76463 0.97094 1.02500
Ni	Ni	0.57769 0.23537 0.02906 1.02600
Ni	Ni	0.82769 0.52906 0.26463 1.02700
Ni	Ni	0.32769 0.47094 0.73537 1.02600
Ni	Ni	0.67231 0.73537 0.47094 1.02700
Ni	Ni	0.17231 0.26463 0.52906 1.02500
Ni	Ni	0.92231 0.97094 0.76463 1.02800
Ni	Ni	0.42231 0.02906 0.23537 1.02600
H 	H 	0.03730 0.65350 0.10950 -0.05200
H 	H 	0.05140 0.68730 0.24080 0.00800
H 	H 	0.10690 0.86620 0.11870 -0.02700
H 	H 	0.16430 0.87500 0.26130 0.05600
H 	H 	0.02590 0.86800 0.27780 0.00600
H 	H 	0.05780 0.76540 0.35220 -0.00700
H 	H 	0.19470 0.76290 0.32990 0.05200
H 	H 	0.22520 0.87780 0.38930 0.06500
H 	H 	0.08890 0.87980 0.41190 -0.00100
H 	H 	0.11860 0.77590 0.48900 -0.06900
H 	H 	0.19830 0.84320 0.51420 -0.05300
H 	H 	0.23350 0.65140 0.46580 -0.01500
H 	H 	0.44490 0.61640 0.46190 -0.02500
H 	H 	0.43240 0.83330 0.47430 -0.02400
H 	H 	0.53730 0.34650 0.89050 -0.05200
H 	H 	0.55140 0.31270 0.75920 0.00900
H 	H 	0.60690 0.13380 0.88130 -0.02700
H 	H 	0.66430 0.12500 0.73870 0.05500
H 	H 	0.52590 0.13200 0.72220 0.00600
H 	H 	0.55780 0.23460 0.64780 -0.00600
H 	H 	0.69470 0.23710 0.67010 0.05200
H 	H 	0.72520 0.12220 0.61070 0.06500
H 	H 	0.58890 0.12020 0.58810 -0.00100
H 	H 	0.61860 0.22410 0.51100 -0.06700
H 	H 	0.69830 0.15680 0.48580 -0.05300
H 	H 	0.73350 0.34860 0.53420 -0.01400
H 	H 	0.94490 0.38360 0.53810 -0.02300
H 	H 	0.93240 0.16670 0.52570 -0.02200
H 	H 	0.78730 0.39050 0.15350 -0.05200
H 	H 	0.80140 0.25920 0.18730 0.00900
H 	H 	0.85690 0.38130 0.36620 -0.02800
H 	H 	0.91430 0.23870 0.37500 0.05500
H 	H 	0.77590 0.22220 0.36800 0.00500
H 	H 	0.80780 0.14780 0.26540 -0.00500
H 	H 	0.94470 0.17010 0.26290 0.05400
H 	H 	0.97520 0.11070 0.37780 0.06500
H 	H 	0.83890 0.08810 0.37980 -0.00200
H 	H 	0.86860 0.01100 0.27590 -0.06600
H 	H 	0.94830 0.98580 0.34320 -0.04700
H 	H 	0.98350 0.03420 0.15140 -0.01200
H 	H 	0.19490 0.03810 0.11640 -0.02700
H 	H 	0.18240 0.02570 0.33330 -0.02400
H 	H 	0.28730 0.60950 0.84650 -0.05300
H 	H 	0.30140 0.74080 0.81270 0.00800
H 	H 	0.35690 0.61870 0.63380 -0.02800
H 	H 	0.41430 0.76130 0.62500 0.05500
H 	H 	0.27590 0.77780 0.63200 0.00500
H 	H 	0.30780 0.85220 0.73460 -0.00700
H 	H 	0.44470 0.82990 0.73710 0.05200
H 	H 	0.47520 0.88930 0.62220 0.06400
H 	H 	0.33890 0.91190 0.62020 -0.00100
H 	H 	0.36860 0.98900 0.72410 -0.06800
H 	H 	0.44830 0.01420 0.65680 -0.05200
H 	H 	0.48350 0.96580 0.84860 -0.01500
H 	H 	0.69490 0.96190 0.88360 -0.02500
H 	H 	0.68240 0.97430 0.66670 -0.02400
H 	H 	0.71270 0.84650 0.60950 -0.05200
H 	H 	0.69860 0.81270 0.74080 0.00900
H 	H 	0.64310 0.63380 0.61870 -0.02800
H 	H 	0.58570 0.62500 0.76130 0.05500
H 	H 	0.72410 0.63200 0.77780 0.00600
H 	H 	0.69220 0.73460 0.85220 -0.00500
H 	H 	0.55530 0.73710 0.82990 0.05200
H 	H 	0.52480 0.62220 0.88930 0.06500
H 	H 	0.66110 0.62020 0.91190 0.00000
H 	H 	0.63140 0.72410 0.98900 -0.06700
H 	H 	0.55170 0.65680 0.01420 -0.05300
H 	H 	0.51650 0.84860 0.96580 -0.01500
H 	H 	0.30510 0.88360 0.96190 -0.02600
H 	H 	0.31760 0.66670 0.97430 -0.02400
H 	H 	0.21270 0.15350 0.39050 -0.05300
H 	H 	0.19860 0.18730 0.25920 0.00800
H 	H 	0.14310 0.36620 0.38130 -0.02900
H 	H 	0.08570 0.37500 0.23870 0.05500
H 	H 	0.22410 0.36800 0.22220 0.00600
H 	H 	0.19220 0.26540 0.14780 -0.00700
H 	H 	0.05530 0.26290 0.17010 0.05100
H 	H 	0.02480 0.37780 0.11070 0.06500
H 	H 	0.16110 0.37980 0.08810 -0.00000
H 	H 	0.13140 0.27590 0.01100 -0.06900
H 	H 	0.05170 0.34320 0.98580 -0.05600
H 	H 	0.01650 0.15140 0.03420 -0.01700
H 	H 	0.80510 0.11640 0.03810 -0.02600
H 	H 	0.81760 0.33330 0.02570 -0.02400
H 	H 	0.96270 0.10950 0.65350 -0.05100
H 	H 	0.94860 0.24080 0.68730 0.00900
H 	H 	0.89310 0.11870 0.86620 -0.02600
H 	H 	0.83570 0.26130 0.87500 0.05800
H 	H 	0.97410 0.27780 0.86800 0.01000
H 	H 	0.94220 0.35220 0.76540 -0.00500
H 	H 	0.80530 0.32990 0.76290 0.05100
H 	H 	0.77480 0.38930 0.87780 0.06700
H 	H 	0.91110 0.41190 0.87980 0.00300
H 	H 	0.88140 0.48900 0.77590 -0.06600
H 	H 	0.80170 0.51420 0.84320 -0.05200
H 	H 	0.76650 0.46580 0.65140 -0.01400
H 	H 	0.55510 0.46190 0.61640 -0.02500
H 	H 	0.56760 0.47430 0.83330 -0.02400
H 	H 	0.46270 0.89050 0.34650 -0.05200
H 	H 	0.44860 0.75920 0.31270 0.00900
H 	H 	0.39310 0.88130 0.13380 -0.02700
H 	H 	0.33570 0.73870 0.12500 0.05600
H 	H 	0.47410 0.72220 0.13200 0.00600
H 	H 	0.44220 0.64780 0.23460 -0.00600
H 	H 	0.30530 0.67010 0.23710 0.05200
H 	H 	0.27480 0.61070 0.12220 0.06500
H 	H 	0.41110 0.58810 0.12020 -0.00100
H 	H 	0.38140 0.51100 0.22410 -0.06700
H 	H 	0.30170 0.48580 0.15680 -0.05300
H 	H 	0.26650 0.53420 0.34860 -0.01400
H 	H 	0.05510 0.53810 0.38360 -0.02600
H 	H 	0.06760 0.52570 0.16670 -0.02400
C 	C 	0.05280 0.70095 0.12780 -0.01900
C 	C 	0.06070 0.71918 0.20053 -0.04100
C 	C 	0.09090 0.81728 0.13248 0.05000
C 	C 	0.09940 0.83981 0.26988 -0.06900
C 	C 	0.12700 0.79578 0.33920 -0.06100
C 	C 	0.15700 0.84707 0.40323 -0.15600
C 	C 	0.18677 0.80672 0.47517 0.02900
C 	C 	0.29900 0.68363 0.46680 -0.02300
C 	C 	0.41600 0.66489 0.46478 -0.00100
C 	C 	0.40987 0.78359 0.47143 0.08000
C 	C 	0.55280 0.29905 0.87220 -0.01900
C 	C 	0.56070 0.28082 0.79947 -0.04100
C 	C 	0.59090 0.18272 0.86752 0.05000
C 	C 	0.59940 0.16019 0.73012 -0.06900
C 	C 	0.62700 0.20422 0.66080 -0.06200
C 	C 	0.65700 0.15293 0.59677 -0.15400
C 	C 	0.68677 0.19328 0.52483 0.02800
C 	C 	0.79900 0.31637 0.53320 -0.02300
C 	C 	0.91600 0.33511 0.53522 -0.00000
C 	C 	0.90987 0.21641 0.52857 0.08000
C 	C 	0.80280 0.37220 0.20095 -0.01900
C 	C 	0.81070 0.29947 0.21918 -0.04000
C 	C 	0.84090 0.36752 0.31728 0.05000
C 	C 	0.84940 0.23012 0.33981 -0.06800
C 	C 	0.87700 0.16080 0.29578 -0.06400
C 	C 	0.90700 0.09677 0.34707 -0.15100
C 	C 	0.93677 0.02483 0.30672 0.02200
C 	C 	0.04900 0.03320 0.18363 -0.02900
C 	C 	0.16600 0.03522 0.16489 0.00100
C 	C 	0.15987 0.02857 0.28359 0.07900
C 	C 	0.30280 0.62780 0.79905 -0.02000
C 	C 	0.31070 0.70053 0.78082 -0.04100
C 	C 	0.34090 0.63248 0.68272 0.04900
C 	C 	0.34940 0.76988 0.66019 -0.06900
C 	C 	0.37700 0.83920 0.70422 -0.06200
C 	C 	0.40700 0.90323 0.65293 -0.15400
C 	C 	0.43677 0.97517 0.69328 0.02700
C 	C 	0.54900 0.96680 0.81637 -0.02300
C 	C 	0.66600 0.96478 0.83511 -0.00100
C 	C 	0.65987 0.97143 0.71641 0.08000
C 	C 	0.69720 0.79905 0.62780 -0.01900
C 	C 	0.68930 0.78082 0.70053 -0.04000
C 	C 	0.65910 0.68272 0.63248 0.05000
C 	C 	0.65060 0.66019 0.76988 -0.06900
C 	C 	0.62300 0.70422 0.83920 -0.06200
C 	C 	0.59300 0.65293 0.90323 -0.15500
C 	C 	0.56323 0.69328 0.97517 0.02900
C 	C 	0.45100 0.81637 0.96680 -0.02300
C 	C 	0.33400 0.83511 0.96478 -0.00100
C 	C 	0.34013 0.71641 0.97143 0.08000
C 	C 	0.19720 0.20095 0.37220 -0.01900
C 	C 	0.18930 0.21918 0.29947 -0.04100
C 	C 	0.15910 0.31728 0.36752 0.04900
C 	C 	0.15060 0.33981 0.23012 -0.06900
C 	C 	0.12300 0.29578 0.16080 -0.06100
C 	C 	0.09300 0.34707 0.09677 -0.15600
C 	C 	0.06323 0.30672 0.02483 0.03000
C 	C 	0.95100 0.18363 0.03320 -0.02200
C 	C 	0.83400 0.16489 0.03522 -0.00200
C 	C 	0.84013 0.28359 0.02857 0.07900
C 	C 	0.94720 0.12780 0.70095 -0.01800
C 	C 	0.93930 0.20053 0.71918 -0.04000
C 	C 	0.90910 0.13248 0.81728 0.05100
C 	C 	0.90060 0.26988 0.83981 -0.07200
C 	C 	0.87300 0.33920 0.79578 -0.05900
C 	C 	0.84300 0.40323 0.84707 -0.15700
C 	C 	0.81323 0.47517 0.80672 0.02800
C 	C 	0.70100 0.46680 0.68363 -0.02300
C 	C 	0.58400 0.46478 0.66489 -0.00100
C 	C 	0.59013 0.47143 0.78359 0.08000
C 	C 	0.44720 0.87220 0.29905 -0.01900
C 	C 	0.43930 0.79947 0.28082 -0.04000
C 	C 	0.40910 0.86752 0.18272 0.05000
C 	C 	0.40060 0.73012 0.16019 -0.06900
C 	C 	0.37300 0.66080 0.20422 -0.06200
C 	C 	0.34300 0.59677 0.15293 -0.15500
C 	C 	0.31323 0.52483 0.19328 0.02800
C 	C 	0.20100 0.53320 0.31637 -0.02300
C 	C 	0.08400 0.53522 0.33511 -0.00100
C 	C 	0.09013 0.52857 0.21641 0.08000
N 	N 	0.07127 0.76293 0.08529 -0.25800
N 	N 	0.08476 0.79325 0.20336 -0.12400
N 	N 	0.29508 0.75962 0.47060 -0.13700
N 	N 	0.48705 0.72739 0.46759 -0.24200
N 	N 	0.57127 0.23707 0.91471 -0.25800
N 	N 	0.58476 0.20675 0.79664 -0.12400
N 	N 	0.79508 0.24038 0.52940 -0.13700
N 	N 	0.98705 0.27261 0.53241 -0.24000
N 	N 	0.82127 0.41471 0.26293 -0.25900
N 	N 	0.83476 0.29664 0.29325 -0.12400
N 	N 	0.04508 0.02940 0.25962 -0.13700
N 	N 	0.23705 0.03241 0.22739 -0.24300
N 	N 	0.32127 0.58529 0.73707 -0.26000
N 	N 	0.33476 0.70336 0.70675 -0.12500
N 	N 	0.54508 0.97060 0.74038 -0.13700
N 	N 	0.73705 0.96759 0.77261 -0.24200
N 	N 	0.67873 0.73707 0.58529 -0.26000
N 	N 	0.66524 0.70675 0.70336 -0.12400
N 	N 	0.45492 0.74038 0.97060 -0.13700
N 	N 	0.26295 0.77261 0.96759 -0.24300
N 	N 	0.17873 0.26293 0.41471 -0.26000
N 	N 	0.16524 0.29325 0.29664 -0.12400
N 	N 	0.95492 0.25962 0.02940 -0.13800
N 	N 	0.76295 0.22739 0.03241 -0.24300
N 	N 	0.92873 0.08529 0.76293 -0.25900
N 	N 	0.91524 0.20336 0.79325 -0.12300
N 	N 	0.70492 0.47060 0.75962 -0.13700
N 	N 	0.51295 0.46759 0.72739 -0.24200
N 	N 	0.42873 0.91471 0.23707 -0.25800
N 	N 	0.41524 0.79664 0.20675 -0.12400
N 	N 	0.20492 0.52940 0.24038 -0.13700
N 	N 	0.01295 0.53241 0.27261 -0.24300
O 	O 	0.24820 0.53300 0.97939 -0.88900
O 	O 	0.05566 0.87684 0.97071 -0.81300
O 	O 	0.11699 0.02746 0.97428 -0.89300
O 	O 	0.08875 0.65094 0.96613 -0.82600
O 	O 	0.74820 0.46700 0.02061 -0.89000
O 	O 	0.55566 0.12316 0.02929 -0.81100
O 	O 	0.61699 0.97254 0.02572 -0.89000
O 	O 	0.58875 0.34906 0.03387 -0.82400
O 	O 	0.99820 0.52061 0.03300 -0.88800
O 	O 	0.80566 0.52929 0.37684 -0.80800
O 	O 	0.86699 0.52572 0.52746 -0.89200
O 	O 	0.83875 0.53387 0.15094 -0.82200
O 	O 	0.49820 0.47939 0.96700 -0.88700
O 	O 	0.30566 0.47071 0.62316 -0.81000
O 	O 	0.36699 0.47428 0.47254 -0.89400
O 	O 	0.33875 0.46613 0.84906 -0.82400
O 	O 	0.50180 0.96700 0.47939 -0.88800
O 	O 	0.69434 0.62316 0.47071 -0.80800
O 	O 	0.63301 0.47254 0.47428 -0.89400
O 	O 	0.66125 0.84906 0.46613 -0.82200
O 	O 	0.00180 0.03300 0.52061 -0.89300
O 	O 	0.19434 0.37684 0.52929 -0.81000
O 	O 	0.13301 0.52746 0.52572 -0.89600
O 	O 	0.16125 0.15094 0.53387 -0.82500
O 	O 	0.75180 0.97939 0.53300 -0.88800
O 	O 	0.94434 0.97071 0.87684 -0.80400
O 	O 	0.88301 0.97428 0.02746 -0.88900
O 	O 	0.91125 0.96613 0.65094 -0.82100
O 	O 	0.25180 0.02061 0.46700 -0.88900
O 	O 	0.44434 0.02929 0.12316 -0.81100
O 	O 	0.38301 0.02572 0.97254 -0.89000
O 	O 	0.41125 0.03387 0.34906 -0.82400
