data_crystal

_cell_length_a 13.65700
_cell_length_b 18.77700
_cell_length_c 19.98300
_cell_angle_alpha 90.00000
_cell_angle_beta  90.00000
_cell_angle_gamma 90.00000

_symmetry_space_group_name_	'P 1'
_symmetry_space_group_name_H-M	'P 1'

loop_
_symmetry_equiv_pos_as_xyz
  x,y,z

loop_
_atom_site_label
_atom_site_type_symbol
_atom_site_fract_x
_atom_site_fract_y
_atom_site_fract_z
_atom_site_charge
Zn	Zn	0.36632 0.06072 0.10727 1.23300
Zn	Zn	0.40652 0.95108 0.99030 1.22000
Zn	Zn	0.63368 0.43928 0.60727 1.23300
Zn	Zn	0.59348 0.54892 0.49030 1.22100
Zn	Zn	0.63368 0.93928 0.89273 1.23300
Zn	Zn	0.59348 0.04892 0.00970 1.22000
Zn	Zn	0.36632 0.56072 0.39273 1.23300
Zn	Zn	0.40652 0.45108 0.50970 1.22100
H 	H 	0.41030 0.68800 0.21480 0.07100
H 	H 	0.41890 0.77600 0.13470 0.04400
H 	H 	0.39760 0.92520 0.27450 0.04900
H 	H 	0.38520 0.83860 0.35500 0.06300
H 	H 	0.04150 0.06070 0.09610 0.05100
H 	H 	0.11850 0.94900 0.93440 0.04800
H 	H 	0.39940 0.78670 0.02040 0.01600
H 	H 	0.38170 0.67820 0.96300 0.07700
H 	H 	0.36020 0.68100 0.84860 0.04000
H 	H 	0.32760 0.99980 0.70450 0.04800
H 	H 	0.33210 0.09650 0.77300 0.08700
H 	H 	0.36430 0.08170 0.88550 -0.00300
H 	H 	0.56600 0.91000 0.99500 0.38200
H 	H 	0.58970 0.81200 0.71480 0.07100
H 	H 	0.58110 0.72400 0.63470 0.04400
H 	H 	0.60240 0.57480 0.77450 0.04800
H 	H 	0.61480 0.66140 0.85500 0.06300
H 	H 	0.95850 0.43930 0.59610 0.05000
H 	H 	0.88150 0.55100 0.43440 0.05100
H 	H 	0.60060 0.71330 0.52040 0.01200
H 	H 	0.61830 0.82180 0.46300 0.07800
H 	H 	0.63980 0.81900 0.34860 0.04000
H 	H 	0.67240 0.50020 0.20450 0.04600
H 	H 	0.66790 0.40350 0.27300 0.08800
H 	H 	0.63570 0.41830 0.38550 -0.00400
H 	H 	0.43400 0.59000 0.49500 0.38200
H 	H 	0.58970 0.31200 0.78520 0.07100
H 	H 	0.58110 0.22400 0.86530 0.04400
H 	H 	0.60240 0.07480 0.72550 0.04900
H 	H 	0.61480 0.16140 0.64500 0.06300
H 	H 	0.95850 0.93930 0.90390 0.05100
H 	H 	0.88150 0.05100 0.06560 0.04800
H 	H 	0.60060 0.21330 0.97960 0.01600
H 	H 	0.61830 0.32180 0.03700 0.07700
H 	H 	0.63980 0.31900 0.15140 0.04000
H 	H 	0.67240 0.00020 0.29550 0.04800
H 	H 	0.66790 0.90350 0.22700 0.08700
H 	H 	0.63570 0.91830 0.11450 -0.00300
H 	H 	0.43400 0.09000 0.00500 0.38200
H 	H 	0.41030 0.18800 0.28520 0.07100
H 	H 	0.41890 0.27600 0.36530 0.04400
H 	H 	0.39760 0.42520 0.22550 0.04800
H 	H 	0.38520 0.33860 0.14500 0.06300
H 	H 	0.04150 0.56070 0.40390 0.05000
H 	H 	0.11850 0.44900 0.56560 0.05100
H 	H 	0.39940 0.28670 0.47960 0.01200
H 	H 	0.38170 0.17820 0.53700 0.07800
H 	H 	0.36020 0.18100 0.65140 0.04000
H 	H 	0.32760 0.49980 0.79550 0.04600
H 	H 	0.33210 0.59650 0.72700 0.08800
H 	H 	0.36430 0.58170 0.61450 -0.00400
H 	H 	0.56600 0.41000 0.50500 0.38200
C 	C 	0.39550 0.75410 0.29310 -0.03600
C 	C 	0.40650 0.73570 0.22730 -0.03700
C 	C 	0.41190 0.78910 0.17930 0.02200
C 	C 	0.40730 0.85940 0.19440 -0.09100
C 	C 	0.39870 0.87750 0.26210 0.00900
C 	C 	0.39210 0.82560 0.31040 -0.04400
C 	C 	0.38540 0.69790 0.34730 0.33200
C 	C 	0.40940 0.91600 0.14160 0.39700
C 	C 	0.20410 0.00750 0.03850 0.38200
C 	C 	0.09730 0.00330 0.01960 -0.07900
C 	C 	0.02480 0.03560 0.05760 -0.02100
C 	C 	0.07040 0.96920 0.96130 -0.00400
C 	C 	0.39010 0.78710 0.97430 0.06600
C 	C 	0.37960 0.72120 0.94010 -0.10000
C 	C 	0.36650 0.72320 0.87260 0.02400
C 	C 	0.36240 0.78720 0.84020 -0.05600
C 	C 	0.35100 0.78780 0.76770 0.13000
C 	C 	0.34840 0.86040 0.73390 0.09600
C 	C 	0.35140 0.92630 0.77710 -0.02700
C 	C 	0.33860 0.99420 0.75020 0.00400
C 	C 	0.34210 0.05110 0.79030 -0.10200
C 	C 	0.36110 0.04170 0.85810 0.07100
C 	C 	0.36680 0.91920 0.84400 0.01900
C 	C 	0.37360 0.84850 0.87710 0.05000
C 	C 	0.60450 0.74590 0.79310 -0.03600
C 	C 	0.59350 0.76430 0.72730 -0.03700
C 	C 	0.58810 0.71090 0.67930 0.02200
C 	C 	0.59270 0.64060 0.69440 -0.09200
C 	C 	0.60130 0.62250 0.76210 0.01000
C 	C 	0.60790 0.67440 0.81040 -0.04400
C 	C 	0.61460 0.80210 0.84730 0.33200
C 	C 	0.59060 0.58400 0.64160 0.39700
C 	C 	0.79590 0.49250 0.53850 0.38900
C 	C 	0.90270 0.49670 0.51960 -0.07700
C 	C 	0.97520 0.46440 0.55760 -0.01400
C 	C 	0.92960 0.53080 0.46130 -0.01200
C 	C 	0.60990 0.71290 0.47430 0.07200
C 	C 	0.62040 0.77880 0.44010 -0.10400
C 	C 	0.63350 0.77680 0.37260 0.02600
C 	C 	0.63760 0.71280 0.34020 -0.05700
C 	C 	0.64900 0.71220 0.26770 0.13000
C 	C 	0.65160 0.63960 0.23390 0.09600
C 	C 	0.64860 0.57370 0.27710 -0.02800
C 	C 	0.66140 0.50580 0.25020 0.01000
C 	C 	0.65790 0.44890 0.29030 -0.10700
C 	C 	0.63890 0.45830 0.35810 0.06900
C 	C 	0.63320 0.58080 0.34400 0.02000
C 	C 	0.62640 0.65150 0.37710 0.05000
C 	C 	0.60450 0.24590 0.70690 -0.03600
C 	C 	0.59350 0.26430 0.77270 -0.03700
C 	C 	0.58810 0.21090 0.82070 0.02200
C 	C 	0.59270 0.14060 0.80560 -0.09100
C 	C 	0.60130 0.12250 0.73790 0.00900
C 	C 	0.60790 0.17440 0.68960 -0.04400
C 	C 	0.61460 0.30210 0.65270 0.33200
C 	C 	0.59060 0.08400 0.85840 0.39700
C 	C 	0.79590 0.99250 0.96150 0.38200
C 	C 	0.90270 0.99670 0.98040 -0.07900
C 	C 	0.97520 0.96440 0.94240 -0.02100
C 	C 	0.92960 0.03080 0.03870 -0.00400
C 	C 	0.60990 0.21290 0.02570 0.06600
C 	C 	0.62040 0.27880 0.05990 -0.10000
C 	C 	0.63350 0.27680 0.12740 0.02400
C 	C 	0.63760 0.21280 0.15980 -0.05600
C 	C 	0.64900 0.21220 0.23230 0.13000
C 	C 	0.65160 0.13960 0.26610 0.09600
C 	C 	0.64860 0.07370 0.22290 -0.02700
C 	C 	0.66140 0.00580 0.24980 0.00400
C 	C 	0.65790 0.94890 0.20970 -0.10200
C 	C 	0.63890 0.95830 0.14190 0.07100
C 	C 	0.63320 0.08080 0.15600 0.01900
C 	C 	0.62640 0.15150 0.12290 0.05000
C 	C 	0.39550 0.25410 0.20690 -0.03600
C 	C 	0.40650 0.23570 0.27270 -0.03700
C 	C 	0.41190 0.28910 0.32070 0.02200
C 	C 	0.40730 0.35940 0.30560 -0.09200
C 	C 	0.39870 0.37750 0.23790 0.01000
C 	C 	0.39210 0.32560 0.18960 -0.04400
C 	C 	0.38540 0.19790 0.15270 0.33200
C 	C 	0.40940 0.41600 0.35840 0.39700
C 	C 	0.20410 0.50750 0.46150 0.38900
C 	C 	0.09730 0.50330 0.48040 -0.07700
C 	C 	0.02480 0.53560 0.44240 -0.01400
C 	C 	0.07040 0.46920 0.53870 -0.01200
C 	C 	0.39010 0.28710 0.52570 0.07200
C 	C 	0.37960 0.22120 0.55990 -0.10400
C 	C 	0.36650 0.22320 0.62740 0.02600
C 	C 	0.36240 0.28720 0.65980 -0.05700
C 	C 	0.35100 0.28780 0.73230 0.13000
C 	C 	0.34840 0.36040 0.76610 0.09600
C 	C 	0.35140 0.42630 0.72290 -0.02800
C 	C 	0.33860 0.49420 0.74980 0.01000
C 	C 	0.34210 0.55110 0.70970 -0.10700
C 	C 	0.36110 0.54170 0.64190 0.06900
C 	C 	0.36680 0.41920 0.65600 0.02000
C 	C 	0.37360 0.34850 0.62290 0.05000
N 	N 	0.38690 0.84880 0.94290 -0.23100
N 	N 	0.37510 0.97680 0.88590 -0.23000
N 	N 	0.61310 0.65120 0.44290 -0.23100
N 	N 	0.62490 0.52320 0.38590 -0.22800
N 	N 	0.61310 0.15120 0.05710 -0.23100
N 	N 	0.62490 0.02320 0.11410 -0.23000
N 	N 	0.38690 0.34880 0.55710 -0.23100
N 	N 	0.37510 0.47680 0.61410 -0.22800
O 	O 	0.38980 0.63340 0.32720 -0.44900
O 	O 	0.37200 0.71720 0.40400 -0.31400
O 	O 	0.42450 0.89820 0.08280 -0.46700
O 	O 	0.39410 0.97820 0.16370 -0.46600
O 	O 	0.26010 0.96630 0.00870 -0.46300
O 	O 	0.22730 0.05120 0.08380 -0.47200
O 	O 	0.34220 0.73540 0.73410 -0.19600
O 	O 	0.34290 0.86670 0.67210 -0.17400
O 	O 	0.55910 0.94630 0.97650 -0.97000
O 	O 	0.61020 0.86660 0.82720 -0.44900
O 	O 	0.62800 0.78280 0.90400 -0.31500
O 	O 	0.57550 0.60180 0.58280 -0.46900
O 	O 	0.60590 0.52180 0.66370 -0.46800
O 	O 	0.73990 0.53370 0.50870 -0.47000
O 	O 	0.77270 0.44880 0.58380 -0.47300
O 	O 	0.65780 0.76460 0.23410 -0.19600
O 	O 	0.65710 0.63330 0.17210 -0.17300
O 	O 	0.44090 0.55370 0.47650 -0.96900
O 	O 	0.61020 0.36660 0.67280 -0.44900
O 	O 	0.62800 0.28280 0.59600 -0.31400
O 	O 	0.57550 0.10180 0.91720 -0.46700
O 	O 	0.60590 0.02180 0.83630 -0.46600
O 	O 	0.73990 0.03370 0.99130 -0.46300
O 	O 	0.77270 0.94880 0.91620 -0.47200
O 	O 	0.65780 0.26460 0.26590 -0.19600
O 	O 	0.65710 0.13330 0.32790 -0.17400
O 	O 	0.44090 0.05370 0.02350 -0.97000
O 	O 	0.38980 0.13340 0.17280 -0.44900
O 	O 	0.37200 0.21720 0.09600 -0.31500
O 	O 	0.42450 0.39820 0.41720 -0.46900
O 	O 	0.39410 0.47820 0.33630 -0.46800
O 	O 	0.26010 0.46630 0.49130 -0.47000
O 	O 	0.22730 0.55120 0.41620 -0.47300
O 	O 	0.34220 0.23540 0.76590 -0.19600
O 	O 	0.34290 0.36670 0.82790 -0.17300
O 	O 	0.55910 0.44630 0.52350 -0.96900
Zn	Zn	0.86632 0.93928 0.39273 1.23300
Zn	Zn	0.90652 0.04892 0.50970 1.22100
Zn	Zn	0.13368 0.56072 0.89273 1.23300
Zn	Zn	0.09348 0.45108 0.00970 1.22000
Zn	Zn	0.13368 0.06072 0.60727 1.23300
Zn	Zn	0.09348 0.95108 0.49030 1.22100
Zn	Zn	0.86632 0.43928 0.10727 1.23300
Zn	Zn	0.90652 0.54892 0.99030 1.22000
H 	H 	0.91030 0.31200 0.28520 0.07100
H 	H 	0.91890 0.22400 0.36530 0.04400
H 	H 	0.89760 0.07480 0.22550 0.04800
H 	H 	0.88520 0.16140 0.14500 0.06300
H 	H 	0.54150 0.93930 0.40390 0.05000
H 	H 	0.61850 0.05100 0.56560 0.05100
H 	H 	0.89940 0.21330 0.47960 0.01200
H 	H 	0.88170 0.32180 0.53700 0.07800
H 	H 	0.86020 0.31900 0.65140 0.04000
H 	H 	0.82760 0.00020 0.79550 0.04600
H 	H 	0.83210 0.90350 0.72700 0.09000
H 	H 	0.86430 0.91830 0.61450 -0.00500
H 	H 	0.06600 0.09000 0.50500 0.38200
H 	H 	0.08970 0.18800 0.78520 0.07200
H 	H 	0.08110 0.27600 0.86530 0.04400
H 	H 	0.10240 0.42520 0.72550 0.04900
H 	H 	0.11480 0.33860 0.64500 0.06300
H 	H 	0.45850 0.56070 0.90390 0.05000
H 	H 	0.38150 0.44900 0.06560 0.05100
H 	H 	0.10060 0.28670 0.97960 0.02000
H 	H 	0.11830 0.17820 0.03700 0.07500
H 	H 	0.13980 0.18100 0.15140 0.04100
H 	H 	0.17240 0.49980 0.29550 0.04600
H 	H 	0.16790 0.59650 0.22700 0.08800
H 	H 	0.13570 0.58170 0.11450 -0.00400
H 	H 	0.93400 0.41000 0.00500 0.38300
H 	H 	0.08970 0.68800 0.71480 0.07100
H 	H 	0.08110 0.77600 0.63470 0.04400
H 	H 	0.10240 0.92520 0.77450 0.04800
H 	H 	0.11480 0.83860 0.85500 0.06300
H 	H 	0.45850 0.06070 0.59610 0.05000
H 	H 	0.38150 0.94900 0.43440 0.05100
H 	H 	0.10060 0.78670 0.52040 0.01200
H 	H 	0.11830 0.67820 0.46300 0.07800
H 	H 	0.13980 0.68100 0.34860 0.04000
H 	H 	0.17240 0.99980 0.20450 0.04600
H 	H 	0.16790 0.09650 0.27300 0.09000
H 	H 	0.13570 0.08170 0.38550 -0.00500
H 	H 	0.93400 0.91000 0.49500 0.38200
H 	H 	0.91030 0.81200 0.21480 0.07200
H 	H 	0.91890 0.72400 0.13470 0.04400
H 	H 	0.89760 0.57480 0.27450 0.04900
H 	H 	0.88520 0.66140 0.35500 0.06300
H 	H 	0.54150 0.43930 0.09610 0.05000
H 	H 	0.61850 0.55100 0.93440 0.05100
H 	H 	0.89940 0.71330 0.02040 0.02000
H 	H 	0.88170 0.82180 0.96300 0.07500
H 	H 	0.86020 0.81900 0.84860 0.04100
H 	H 	0.82760 0.50020 0.70450 0.04600
H 	H 	0.83210 0.40350 0.77300 0.08800
H 	H 	0.86430 0.41830 0.88550 -0.00400
H 	H 	0.06600 0.59000 0.99500 0.38300
C 	C 	0.89550 0.24590 0.20690 -0.03500
C 	C 	0.90650 0.26430 0.27270 -0.03800
C 	C 	0.91190 0.21090 0.32070 0.02300
C 	C 	0.90730 0.14060 0.30560 -0.09200
C 	C 	0.89870 0.12250 0.23790 0.01000
C 	C 	0.89210 0.17440 0.18960 -0.04400
C 	C 	0.88540 0.30210 0.15270 0.33200
C 	C 	0.90940 0.08400 0.35840 0.39800
C 	C 	0.70410 0.99250 0.46150 0.38900
C 	C 	0.59730 0.99670 0.48040 -0.07700
C 	C 	0.52480 0.96440 0.44240 -0.01400
C 	C 	0.57040 0.03080 0.53870 -0.01300
C 	C 	0.89010 0.21290 0.52570 0.07200
C 	C 	0.87960 0.27880 0.55990 -0.10400
C 	C 	0.86650 0.27680 0.62740 0.02600
C 	C 	0.86240 0.21280 0.65980 -0.05700
C 	C 	0.85100 0.21220 0.73230 0.13000
C 	C 	0.84840 0.13960 0.76610 0.09700
C 	C 	0.85140 0.07370 0.72290 -0.03000
C 	C 	0.83860 0.00580 0.74980 0.01700
C 	C 	0.84210 0.94890 0.70970 -0.11400
C 	C 	0.86110 0.95830 0.64190 0.07000
C 	C 	0.86680 0.08080 0.65600 0.02200
C 	C 	0.87360 0.15150 0.62290 0.05000
C 	C 	0.10450 0.25410 0.70690 -0.03500
C 	C 	0.09350 0.23570 0.77270 -0.03700
C 	C 	0.08810 0.28910 0.82070 0.02300
C 	C 	0.09270 0.35940 0.80560 -0.09100
C 	C 	0.10130 0.37750 0.73790 0.01000
C 	C 	0.10790 0.32560 0.68960 -0.04400
C 	C 	0.11460 0.19790 0.65270 0.33100
C 	C 	0.09060 0.41600 0.85840 0.39700
C 	C 	0.29590 0.50750 0.96150 0.38800
C 	C 	0.40270 0.50330 0.98040 -0.07500
C 	C 	0.47520 0.53560 0.94240 -0.01400
C 	C 	0.42960 0.46920 0.03870 -0.01300
C 	C 	0.10990 0.28710 0.02570 0.06000
C 	C 	0.12040 0.22120 0.05990 -0.09700
C 	C 	0.13350 0.22320 0.12740 0.02100
C 	C 	0.13760 0.28720 0.15980 -0.05500
C 	C 	0.14900 0.28780 0.23230 0.13000
C 	C 	0.15160 0.36040 0.26610 0.09600
C 	C 	0.14860 0.42630 0.22290 -0.02900
C 	C 	0.16140 0.49420 0.24980 0.01000
C 	C 	0.15790 0.55110 0.20970 -0.10700
C 	C 	0.13890 0.54170 0.14190 0.06800
C 	C 	0.13320 0.41920 0.15600 0.02000
C 	C 	0.12640 0.34850 0.12290 0.04900
C 	C 	0.10450 0.75410 0.79310 -0.03500
C 	C 	0.09350 0.73570 0.72730 -0.03800
C 	C 	0.08810 0.78910 0.67930 0.02300
C 	C 	0.09270 0.85940 0.69440 -0.09200
C 	C 	0.10130 0.87750 0.76210 0.01000
C 	C 	0.10790 0.82560 0.81040 -0.04400
C 	C 	0.11460 0.69790 0.84730 0.33200
C 	C 	0.09060 0.91600 0.64160 0.39800
C 	C 	0.29590 0.00750 0.53850 0.38900
C 	C 	0.40270 0.00330 0.51960 -0.07700
C 	C 	0.47520 0.03560 0.55760 -0.01400
C 	C 	0.42960 0.96920 0.46130 -0.01300
C 	C 	0.10990 0.78710 0.47430 0.07200
C 	C 	0.12040 0.72120 0.44010 -0.10400
C 	C 	0.13350 0.72320 0.37260 0.02600
C 	C 	0.13760 0.78720 0.34020 -0.05700
C 	C 	0.14900 0.78780 0.26770 0.13000
C 	C 	0.15160 0.86040 0.23390 0.09700
C 	C 	0.14860 0.92630 0.27710 -0.03000
C 	C 	0.16140 0.99420 0.25020 0.01700
C 	C 	0.15790 0.05110 0.29030 -0.11400
C 	C 	0.13890 0.04170 0.35810 0.07000
C 	C 	0.13320 0.91920 0.34400 0.02200
C 	C 	0.12640 0.84850 0.37710 0.05000
C 	C 	0.89550 0.74590 0.29310 -0.03500
C 	C 	0.90650 0.76430 0.22730 -0.03700
C 	C 	0.91190 0.71090 0.17930 0.02300
C 	C 	0.90730 0.64060 0.19440 -0.09100
C 	C 	0.89870 0.62250 0.26210 0.01000
C 	C 	0.89210 0.67440 0.31040 -0.04400
C 	C 	0.88540 0.80210 0.34730 0.33100
C 	C 	0.90940 0.58400 0.14160 0.39700
C 	C 	0.70410 0.49250 0.03850 0.38800
C 	C 	0.59730 0.49670 0.01960 -0.07500
C 	C 	0.52480 0.46440 0.05760 -0.01400
C 	C 	0.57040 0.53080 0.96130 -0.01300
C 	C 	0.89010 0.71290 0.97430 0.06000
C 	C 	0.87960 0.77880 0.94010 -0.09700
C 	C 	0.86650 0.77680 0.87260 0.02100
C 	C 	0.86240 0.71280 0.84020 -0.05500
C 	C 	0.85100 0.71220 0.76770 0.13000
C 	C 	0.84840 0.63960 0.73390 0.09600
C 	C 	0.85140 0.57370 0.77710 -0.02900
C 	C 	0.83860 0.50580 0.75020 0.01000
C 	C 	0.84210 0.44890 0.79030 -0.10700
C 	C 	0.86110 0.45830 0.85810 0.06800
C 	C 	0.86680 0.58080 0.84400 0.02000
C 	C 	0.87360 0.65150 0.87710 0.04900
N 	N 	0.88690 0.15120 0.55710 -0.23100
N 	N 	0.87510 0.02320 0.61410 -0.22800
N 	N 	0.11310 0.34880 0.05710 -0.23000
N 	N 	0.12490 0.47680 0.11410 -0.22900
N 	N 	0.11310 0.84880 0.44290 -0.23100
N 	N 	0.12490 0.97680 0.38590 -0.22800
N 	N 	0.88690 0.65120 0.94290 -0.23000
N 	N 	0.87510 0.52320 0.88590 -0.22900
O 	O 	0.88980 0.36660 0.17280 -0.44800
O 	O 	0.87200 0.28280 0.09600 -0.31400
O 	O 	0.92450 0.10180 0.41720 -0.46900
O 	O 	0.89410 0.02180 0.33630 -0.46800
O 	O 	0.76010 0.03370 0.49130 -0.47000
O 	O 	0.72730 0.94880 0.41620 -0.47300
O 	O 	0.84220 0.26460 0.76590 -0.19600
O 	O 	0.84290 0.13330 0.82790 -0.17300
O 	O 	0.05910 0.05370 0.52350 -0.96900
O 	O 	0.11020 0.13340 0.67280 -0.44800
O 	O 	0.12800 0.21720 0.59600 -0.31400
O 	O 	0.07550 0.39820 0.91720 -0.46800
O 	O 	0.10590 0.47820 0.83630 -0.46800
O 	O 	0.23990 0.46630 0.99130 -0.46900
O 	O 	0.27270 0.55120 0.91620 -0.47300
O 	O 	0.15780 0.23540 0.26590 -0.19600
O 	O 	0.15710 0.36670 0.32790 -0.17400
O 	O 	0.94090 0.44630 0.02350 -0.96700
O 	O 	0.11020 0.63340 0.82720 -0.44800
O 	O 	0.12800 0.71720 0.90400 -0.31400
O 	O 	0.07550 0.89820 0.58280 -0.46900
O 	O 	0.10590 0.97820 0.66370 -0.46800
O 	O 	0.23990 0.96630 0.50870 -0.47000
O 	O 	0.27270 0.05120 0.58380 -0.47300
O 	O 	0.15780 0.73540 0.23410 -0.19600
O 	O 	0.15710 0.86670 0.17210 -0.17300
O 	O 	0.94090 0.94630 0.47650 -0.96900
O 	O 	0.88980 0.86660 0.32720 -0.44800
O 	O 	0.87200 0.78280 0.40400 -0.31400
O 	O 	0.92450 0.60180 0.08280 -0.46800
O 	O 	0.89410 0.52180 0.16370 -0.46800
O 	O 	0.76010 0.53370 0.00870 -0.46900
O 	O 	0.72730 0.44880 0.08380 -0.47300
O 	O 	0.84220 0.76460 0.73410 -0.19600
O 	O 	0.84290 0.63330 0.67210 -0.17400
O 	O 	0.05910 0.55370 0.97650 -0.96700
