data_crystal

_cell_length_a 12.81600
_cell_length_b 18.39290
_cell_length_c 24.81600
_cell_angle_alpha 90.00000
_cell_angle_beta  90.00000
_cell_angle_gamma 110.38900

_symmetry_space_group_name_	'P 1'
_symmetry_space_group_name_H-M	'P 1'

loop_
_symmetry_equiv_pos_as_xyz
  x,y,z

loop_
_atom_site_label
_atom_site_type_symbol
_atom_site_fract_x
_atom_site_fract_y
_atom_site_fract_z
_atom_site_charge
Gd	Gd	0.23105 0.77008 0.78572 1.59200
Gd	Gd	0.76895 0.22992 0.28572 1.59200
Gd	Gd	0.53903 0.77008 0.71428 1.59200
Gd	Gd	0.46097 0.22992 0.21428 1.59200
H 	H 	0.07370 0.89020 0.76500 -0.01200
H 	H 	0.04270 0.99780 0.80010 0.11600
H 	H 	0.14340 0.06160 0.87430 0.03700
H 	H 	0.27500 0.01780 0.91350 0.07500
H 	H 	0.30600 0.91020 0.87830 0.01300
H 	H 	0.06970 0.54800 0.90350 0.09300
H 	H 	0.06460 0.79460 0.93500 0.14800
H 	H 	0.91630 0.78180 0.07890 0.12300
H 	H 	0.90340 0.65440 0.08810 0.02600
H 	H 	0.98820 0.42140 0.90840 -0.10000
H 	H 	0.09940 0.43160 0.93970 -0.08900
H 	H 	0.99500 0.29800 0.93030 0.31800
H 	H 	0.00520 0.32020 0.99160 0.33000
H 	H 	0.89460 0.31000 0.96030 0.32000
H 	H 	0.67980 0.36960 0.09230 0.07600
H 	H 	0.92150 0.43900 0.24010 0.15600
H 	H 	0.18050 0.61960 0.18630 0.12700
H 	H 	0.09430 0.61720 0.10610 -0.00700
H 	H 	0.72440 0.34440 0.00040 -0.13700
H 	H 	0.61800 0.36800 0.99470 -0.13800
H 	H 	0.67240 0.33920 0.90980 0.34900
H 	H 	0.68370 0.42680 0.91190 0.38400
H 	H 	0.78970 0.40340 0.91760 0.39100
H 	H 	0.40710 0.84040 0.90880 0.08500
H 	H 	0.71230 0.98080 0.80320 0.15900
H 	H 	0.90660 0.14180 0.90350 0.12900
H 	H 	0.78600 0.09340 0.97320 0.02300
H 	H 	0.27950 0.83740 0.97790 -0.29300
H 	H 	0.34810 0.78340 0.99060 -0.30600
H 	H 	0.20910 0.76340 0.05170 0.58700
H 	H 	0.32470 0.79760 0.08060 0.57300
H 	H 	0.25590 0.85120 0.06780 0.59100
H 	H 	0.92630 0.10980 0.26500 -0.01200
H 	H 	0.95730 0.00220 0.30010 0.11600
H 	H 	0.85660 0.93840 0.37430 0.03700
H 	H 	0.72500 0.98220 0.41350 0.07600
H 	H 	0.69400 0.08980 0.37830 0.01200
H 	H 	0.93030 0.45200 0.40350 0.09200
H 	H 	0.93540 0.20540 0.43500 0.14900
H 	H 	0.08370 0.21820 0.57890 0.12300
H 	H 	0.09660 0.34560 0.58810 0.02600
H 	H 	0.01180 0.57860 0.40840 -0.09900
H 	H 	0.90060 0.56840 0.43970 -0.08800
H 	H 	0.00500 0.70200 0.43030 0.31700
H 	H 	0.99480 0.67980 0.49160 0.32900
H 	H 	0.10540 0.69000 0.46030 0.31900
H 	H 	0.32020 0.63040 0.59230 0.07600
H 	H 	0.07850 0.56100 0.74010 0.15600
H 	H 	0.81950 0.38040 0.68630 0.12600
H 	H 	0.90570 0.38280 0.60610 -0.00700
H 	H 	0.27560 0.65560 0.50040 -0.13700
H 	H 	0.38200 0.63200 0.49470 -0.13800
H 	H 	0.32760 0.66080 0.40980 0.35000
H 	H 	0.31630 0.57320 0.41190 0.38400
H 	H 	0.21030 0.59660 0.41760 0.39100
H 	H 	0.59290 0.15960 0.40880 0.08600
H 	H 	0.28770 0.01920 0.30320 0.15900
H 	H 	0.09340 0.85820 0.40350 0.12900
H 	H 	0.21400 0.90660 0.47320 0.02400
H 	H 	0.72050 0.16260 0.47790 -0.29400
H 	H 	0.65190 0.21660 0.49060 -0.30800
H 	H 	0.79090 0.23660 0.55170 0.58800
H 	H 	0.67530 0.20240 0.58060 0.57400
H 	H 	0.74410 0.14880 0.56780 0.59200
H 	H 	0.81650 0.89020 0.73500 -0.01200
H 	H 	0.95510 0.99780 0.69990 0.11600
H 	H 	0.91820 0.06160 0.62570 0.03700
H 	H 	0.74280 0.01780 0.58650 0.07600
H 	H 	0.60420 0.91020 0.62170 0.01200
H 	H 	0.47830 0.54800 0.59650 0.09300
H 	H 	0.73000 0.79460 0.56500 0.14800
H 	H 	0.86550 0.78180 0.42110 0.12300
H 	H 	0.75100 0.65440 0.41190 0.02600
H 	H 	0.43320 0.42140 0.59160 -0.10200
H 	H 	0.33220 0.43160 0.56030 -0.09100
H 	H 	0.30300 0.29800 0.56970 0.32000
H 	H 	0.31500 0.32020 0.50840 0.33300
H 	H 	0.41540 0.31000 0.53970 0.32200
H 	H 	0.68980 0.36960 0.40770 0.07600
H 	H 	0.51750 0.43900 0.25990 0.15600
H 	H 	0.43910 0.61960 0.31370 0.12700
H 	H 	0.52290 0.61720 0.39390 -0.00700
H 	H 	0.62000 0.34440 0.49960 -0.13700
H 	H 	0.75000 0.36800 0.50530 -0.13800
H 	H 	0.66680 0.33920 0.59020 0.35000
H 	H 	0.74310 0.42680 0.58810 0.38400
H 	H 	0.61370 0.40340 0.58240 0.39100
H 	H 	0.43330 0.84040 0.59120 0.08600
H 	H 	0.26850 0.98080 0.69680 0.15800
H 	H 	0.23520 0.14180 0.59650 0.12900
H 	H 	0.30740 0.09340 0.52680 0.02400
H 	H 	0.55790 0.83740 0.52210 -0.29400
H 	H 	0.43530 0.78340 0.50940 -0.30800
H 	H 	0.55430 0.76340 0.44830 0.58800
H 	H 	0.47290 0.79760 0.41940 0.57400
H 	H 	0.59530 0.85120 0.43220 0.59200
H 	H 	0.18350 0.10980 0.23500 -0.01200
H 	H 	0.04490 0.00220 0.19990 0.11600
H 	H 	0.08180 0.93840 0.12570 0.03700
H 	H 	0.25720 0.98220 0.08650 0.07500
H 	H 	0.39580 0.08980 0.12170 0.01300
H 	H 	0.52170 0.45200 0.09650 0.09300
H 	H 	0.27000 0.20540 0.06500 0.14800
H 	H 	0.13450 0.21820 0.92110 0.12300
H 	H 	0.24900 0.34560 0.91190 0.02600
H 	H 	0.56680 0.57860 0.09160 -0.10200
H 	H 	0.66780 0.56840 0.06030 -0.09100
H 	H 	0.69700 0.70200 0.06970 0.32000
H 	H 	0.68500 0.67980 0.00840 0.33300
H 	H 	0.58460 0.69000 0.03970 0.32200
H 	H 	0.31020 0.63040 0.90770 0.07600
H 	H 	0.48250 0.56100 0.75990 0.15600
H 	H 	0.56090 0.38040 0.81370 0.12700
H 	H 	0.47710 0.38280 0.89390 -0.00700
H 	H 	0.38000 0.65560 0.99960 -0.13700
H 	H 	0.25000 0.63200 0.00530 -0.13800
H 	H 	0.33320 0.66080 0.09020 0.35000
H 	H 	0.25690 0.57320 0.08810 0.38400
H 	H 	0.38630 0.59660 0.08240 0.39100
H 	H 	0.56670 0.15960 0.09120 0.08500
H 	H 	0.73150 0.01920 0.19680 0.15900
H 	H 	0.76480 0.85820 0.09650 0.12900
H 	H 	0.69260 0.90660 0.02680 0.02300
H 	H 	0.44210 0.16260 0.02210 -0.29200
H 	H 	0.56470 0.21660 0.00940 -0.30600
H 	H 	0.44570 0.23660 0.94830 0.58600
H 	H 	0.52710 0.20240 0.91940 0.57300
H 	H 	0.40470 0.14880 0.93220 0.59000
C 	C 	0.11410 0.91580 0.79470 0.08700
C 	C 	0.09550 0.98020 0.81580 -0.12700
C 	C 	0.15570 0.01840 0.86030 0.06600
C 	C 	0.23460 0.99220 0.88370 -0.11700
C 	C 	0.25320 0.92780 0.86260 0.08000
C 	C 	0.96393 0.56506 0.02030 -0.02000
C 	C 	0.00086 0.53072 0.97860 0.16700
C 	C 	0.04805 0.57270 0.93180 -0.10100
C 	C 	0.06215 0.65050 0.92790 -0.06900
C 	C 	0.02575 0.68790 0.96940 0.10500
C 	C 	0.03251 0.76582 0.96530 -0.23900
C 	C 	0.99193 0.79946 0.00590 0.25500
C 	C 	0.94329 0.75798 0.05190 -0.22300
C 	C 	0.93527 0.68174 0.05720 0.03800
C 	C 	0.97525 0.64430 0.01610 -0.05100
C 	C 	0.11790 0.69320 0.87780 0.31600
C 	C 	0.01880 0.41320 0.94260 0.45200
C 	C 	0.97430 0.32740 0.95760 -0.94200
C 	C 	0.90654 0.51588 0.06720 -0.00600
C 	C 	0.80295 0.45950 0.05840 0.15800
C 	C 	0.74952 0.40644 0.09910 -0.07100
C 	C 	0.79721 0.40762 0.14790 -0.12200
C 	C 	0.90200 0.46580 0.16030 0.13400
C 	C 	0.95541 0.47302 0.21240 -0.25000
C 	C 	0.05560 0.53000 0.22050 0.28900
C 	C 	0.11040 0.58280 0.18000 -0.23000
C 	C 	0.06000 0.57960 0.13170 0.06700
C 	C 	0.95556 0.52052 0.11840 -0.06000
C 	C 	0.73818 0.34376 0.18750 0.43900
C 	C 	0.69640 0.38300 0.98580 0.57500
C 	C 	0.71200 0.38860 0.92590 -1.11400
C 	C 	0.59170 0.97980 0.97330 -0.02000
C 	C 	0.49650 0.91780 0.96490 0.21200
C 	C 	0.47250 0.88240 0.91400 -0.10000
C 	C 	0.54541 0.90942 0.87170 -0.13300
C 	C 	0.64670 0.97120 0.87940 0.14600
C 	C 	0.72500 0.00180 0.83770 -0.27200
C 	C 	0.81820 0.06180 0.84880 0.28800
C 	C 	0.84230 0.09900 0.89850 -0.22200
C 	C 	0.76920 0.07080 0.93930 0.07500
C 	C 	0.66660 0.00720 0.93180 -0.05300
C 	C 	0.50910 0.86820 0.81890 0.45400
C 	C 	0.32950 0.82700 0.00370 1.13000
C 	C 	0.27530 0.80820 0.05520 -1.83000
C 	C 	0.88590 0.08420 0.29470 0.08800
C 	C 	0.90450 0.01980 0.31580 -0.12800
C 	C 	0.84430 0.98160 0.36030 0.06800
C 	C 	0.76540 0.00780 0.38370 -0.11900
C 	C 	0.74680 0.07220 0.36260 0.08100
C 	C 	0.03607 0.43494 0.52030 -0.01900
C 	C 	0.99914 0.46928 0.47860 0.16600
C 	C 	0.95195 0.42730 0.43180 -0.10000
C 	C 	0.93785 0.34950 0.42790 -0.06900
C 	C 	0.97425 0.31210 0.46940 0.10500
C 	C 	0.96749 0.23418 0.46530 -0.24000
C 	C 	0.00807 0.20054 0.50590 0.25600
C 	C 	0.05671 0.24202 0.55190 -0.22300
C 	C 	0.06473 0.31826 0.55720 0.03900
C 	C 	0.02475 0.35570 0.51610 -0.05100
C 	C 	0.88210 0.30680 0.37780 0.31600
C 	C 	0.98120 0.58680 0.44260 0.45000
C 	C 	0.02570 0.67260 0.45760 -0.93900
C 	C 	0.09346 0.48412 0.56720 -0.00700
C 	C 	0.19705 0.54050 0.55840 0.15800
C 	C 	0.25048 0.59356 0.59910 -0.07100
C 	C 	0.20279 0.59238 0.64790 -0.12200
C 	C 	0.09800 0.53420 0.66030 0.13400
C 	C 	0.04459 0.52698 0.71240 -0.25000
C 	C 	0.94440 0.47000 0.72050 0.28900
C 	C 	0.88960 0.41720 0.68000 -0.22900
C 	C 	0.94000 0.42040 0.63170 0.06700
C 	C 	0.04444 0.47948 0.61840 -0.05900
C 	C 	0.26182 0.65624 0.68750 0.43900
C 	C 	0.30360 0.61700 0.48580 0.57500
C 	C 	0.28800 0.61140 0.42590 -1.11400
C 	C 	0.40830 0.02020 0.47330 -0.02100
C 	C 	0.50350 0.08220 0.46490 0.21200
C 	C 	0.52750 0.11760 0.41400 -0.10100
C 	C 	0.45459 0.09058 0.37170 -0.13200
C 	C 	0.35330 0.02880 0.37940 0.14500
C 	C 	0.27500 0.99820 0.33770 -0.27100
C 	C 	0.18180 0.93820 0.34880 0.28700
C 	C 	0.15770 0.90100 0.39850 -0.22100
C 	C 	0.23080 0.92920 0.43930 0.07400
C 	C 	0.33340 0.99280 0.43180 -0.05200
C 	C 	0.49090 0.13180 0.31890 0.45400
C 	C 	0.67050 0.17300 0.50370 1.13400
C 	C 	0.72470 0.19180 0.55520 -1.83400
C 	C 	0.80170 0.91580 0.70530 0.08800
C 	C 	0.88470 0.98020 0.68420 -0.12700
C 	C 	0.86270 0.01840 0.63970 0.06700
C 	C 	0.75760 0.99220 0.61630 -0.11900
C 	C 	0.67460 0.92780 0.63740 0.08100
C 	C 	0.60113 0.56506 0.47970 -0.02100
C 	C 	0.52986 0.53072 0.52140 0.16900
C 	C 	0.52465 0.57270 0.56820 -0.10200
C 	C 	0.58835 0.65050 0.57210 -0.06800
C 	C 	0.66215 0.68790 0.53060 0.10500
C 	C 	0.73331 0.76582 0.53470 -0.23800
C 	C 	0.80753 0.79946 0.49410 0.25500
C 	C 	0.81469 0.75798 0.44810 -0.22300
C 	C 	0.74647 0.68174 0.44280 0.03800
C 	C 	0.66905 0.64430 0.48390 -0.05100
C 	C 	0.57530 0.69320 0.62220 0.31600
C 	C 	0.39440 0.41320 0.55740 0.45800
C 	C 	0.35310 0.32740 0.54240 -0.95000
C 	C 	0.60934 0.51588 0.43280 -0.00600
C 	C 	0.65655 0.45950 0.44160 0.15700
C 	C 	0.65692 0.40644 0.40090 -0.07100
C 	C 	0.61041 0.40762 0.35210 -0.12200
C 	C 	0.56380 0.46580 0.33970 0.13400
C 	C 	0.51761 0.47302 0.28760 -0.25000
C 	C 	0.47440 0.53000 0.27950 0.29000
C 	C 	0.47240 0.58280 0.32000 -0.23000
C 	C 	0.51960 0.57960 0.36830 0.06800
C 	C 	0.56496 0.52052 0.38160 -0.06000
C 	C 	0.60558 0.34376 0.31250 0.43900
C 	C 	0.68660 0.38300 0.51420 0.57500
C 	C 	0.67660 0.38860 0.57410 -1.11400
C 	C 	0.38810 0.97980 0.52670 -0.02100
C 	C 	0.42130 0.91780 0.53510 0.21200
C 	C 	0.40990 0.88240 0.58600 -0.10100
C 	C 	0.36401 0.90942 0.62830 -0.13200
C 	C 	0.32450 0.97120 0.62060 0.14400
C 	C 	0.27680 0.00180 0.66230 -0.27000
C 	C 	0.24360 0.06180 0.65120 0.28700
C 	C 	0.25670 0.09900 0.60150 -0.22100
C 	C 	0.30160 0.07080 0.56070 0.07400
C 	C 	0.34060 0.00720 0.56820 -0.05100
C 	C 	0.35910 0.86820 0.68110 0.45400
C 	C 	0.49750 0.82700 0.49630 1.13400
C 	C 	0.53290 0.80820 0.44480 -1.83500
C 	C 	0.19830 0.08420 0.20530 0.08700
C 	C 	0.11530 0.01980 0.18420 -0.12600
C 	C 	0.13730 0.98160 0.13970 0.06500
C 	C 	0.24240 0.00780 0.11630 -0.11700
C 	C 	0.32540 0.07220 0.13740 0.08000
C 	C 	0.39887 0.43494 0.97970 -0.02100
C 	C 	0.47014 0.46928 0.02140 0.16900
C 	C 	0.47535 0.42730 0.06820 -0.10200
C 	C 	0.41165 0.34950 0.07210 -0.06800
C 	C 	0.33785 0.31210 0.03060 0.10500
C 	C 	0.26669 0.23418 0.03470 -0.23700
C 	C 	0.19247 0.20054 0.99410 0.25400
C 	C 	0.18531 0.24202 0.94810 -0.22300
C 	C 	0.25353 0.31826 0.94280 0.03800
C 	C 	0.33095 0.35570 0.98390 -0.05100
C 	C 	0.42470 0.30680 0.12220 0.31600
C 	C 	0.60560 0.58680 0.05740 0.45800
C 	C 	0.64690 0.67260 0.04240 -0.95000
C 	C 	0.39066 0.48412 0.93280 -0.00600
C 	C 	0.34345 0.54050 0.94160 0.15700
C 	C 	0.34308 0.59356 0.90090 -0.07100
C 	C 	0.38959 0.59238 0.85210 -0.12200
C 	C 	0.43620 0.53420 0.83970 0.13500
C 	C 	0.48239 0.52698 0.78760 -0.25000
C 	C 	0.52560 0.47000 0.77950 0.29000
C 	C 	0.52760 0.41720 0.82000 -0.23000
C 	C 	0.48040 0.42040 0.86830 0.06800
C 	C 	0.43504 0.47948 0.88160 -0.06000
C 	C 	0.39442 0.65624 0.81250 0.43900
C 	C 	0.31340 0.61700 0.01420 0.57500
C 	C 	0.32340 0.61140 0.07410 -1.11400
C 	C 	0.61190 0.02020 0.02670 -0.02000
C 	C 	0.57870 0.08220 0.03510 0.21200
C 	C 	0.59010 0.11760 0.08600 -0.10000
C 	C 	0.63599 0.09058 0.12830 -0.13300
C 	C 	0.67550 0.02880 0.12060 0.14600
C 	C 	0.72320 0.99820 0.16230 -0.27100
C 	C 	0.75640 0.93820 0.15120 0.28800
C 	C 	0.74330 0.90100 0.10150 -0.22200
C 	C 	0.69840 0.92920 0.06070 0.07400
C 	C 	0.65940 0.99280 0.06820 -0.05200
C 	C 	0.64090 0.13180 0.18110 0.45400
C 	C 	0.50250 0.17300 0.99630 1.12900
C 	C 	0.46710 0.19180 0.94480 -1.82900
N 	N 	0.19288 0.88956 0.81820 -0.20900
N 	N 	0.80712 0.11044 0.31820 -0.20900
N 	N 	0.69668 0.88956 0.68180 -0.20900
N 	N 	0.30332 0.11044 0.18180 -0.20900
Cl	Cl	0.99581 0.89542 0.00022 -0.34600
Cl	Cl	0.11974 0.53644 0.28393 -0.36600
Cl	Cl	0.91557 0.10154 0.79650 -0.36600
Cl	Cl	0.00419 0.10458 0.50022 -0.34500
Cl	Cl	0.88026 0.46356 0.78393 -0.36600
Cl	Cl	0.08443 0.89846 0.29650 -0.36500
Cl	Cl	0.89961 0.89542 0.49978 -0.34600
Cl	Cl	0.41670 0.53644 0.21607 -0.36600
Cl	Cl	0.18597 0.10154 0.70350 -0.36500
Cl	Cl	0.10039 0.10458 0.99978 -0.34600
Cl	Cl	0.58330 0.46356 0.71607 -0.36600
Cl	Cl	0.81403 0.89846 0.20350 -0.36600
O 	O 	0.19503 0.75646 0.88242 -0.37700
O 	O 	0.08369 0.66378 0.83261 -0.35800
O 	O 	0.98533 0.45366 0.98490 -0.29300
O 	O 	0.63453 0.32106 0.18750 -0.43500
O 	O 	0.79817 0.31554 0.21490 -0.46000
O 	O 	0.75727 0.45814 0.00803 -0.30500
O 	O 	0.40656 0.84352 0.80990 -0.48300
O 	O 	0.58062 0.85924 0.78820 -0.45000
O 	O 	0.42588 0.89176 0.00820 -0.45600
O 	O 	0.80497 0.24354 0.38242 -0.37700
O 	O 	0.91631 0.33622 0.33261 -0.35800
O 	O 	0.01467 0.54634 0.48490 -0.29200
O 	O 	0.36547 0.67894 0.68750 -0.43500
O 	O 	0.20183 0.68446 0.71490 -0.46000
O 	O 	0.24273 0.54186 0.50803 -0.30500
O 	O 	0.59344 0.15648 0.30990 -0.48300
O 	O 	0.41938 0.14076 0.28820 -0.45000
O 	O 	0.57412 0.10824 0.50820 -0.45600
O 	O 	0.56143 0.75646 0.61758 -0.37700
O 	O 	0.58009 0.66378 0.66739 -0.35800
O 	O 	0.46833 0.45366 0.51510 -0.29500
O 	O 	0.68653 0.32106 0.31250 -0.43500
O 	O 	0.51737 0.31554 0.28510 -0.46000
O 	O 	0.70087 0.45814 0.49197 -0.30500
O 	O 	0.43696 0.84352 0.69010 -0.48300
O 	O 	0.27862 0.85924 0.71180 -0.45000
O 	O 	0.46588 0.89176 0.49180 -0.45700
O 	O 	0.43857 0.24354 0.11758 -0.37700
O 	O 	0.41991 0.33622 0.16739 -0.35800
O 	O 	0.53167 0.54634 0.01510 -0.29500
O 	O 	0.31347 0.67894 0.81250 -0.43500
O 	O 	0.48263 0.68446 0.78510 -0.46000
O 	O 	0.29913 0.54186 0.99197 -0.30500
O 	O 	0.56304 0.15648 0.19010 -0.48300
O 	O 	0.72138 0.14076 0.21180 -0.45000
O 	O 	0.53412 0.10824 0.99180 -0.45600
