data_crystal

_cell_length_a 16.15800
_cell_length_b 22.45610
_cell_length_c 26.48070
_cell_angle_alpha 74.61960
_cell_angle_beta  72.23640
_cell_angle_gamma 68.91410

_symmetry_space_group_name_	'P 1'
_symmetry_space_group_name_H-M	'P 1'

loop_
_symmetry_equiv_pos_as_xyz
  x,y,z

loop_
_atom_site_label
_atom_site_type_symbol
_atom_site_fract_x
_atom_site_fract_y
_atom_site_fract_z
_atom_site_charge
K 	K 	0.57480 0.08420 0.83460 0.63800
K 	K 	0.74740 0.52150 0.87950 0.64700
K 	K 	0.49360 0.41580 0.66540 0.63900
K 	K 	0.14840 0.97850 0.62050 0.64800
K 	K 	0.42520 0.91580 0.16540 0.63900
K 	K 	0.25260 0.47850 0.12050 0.64800
K 	K 	0.50640 0.58420 0.33460 0.63900
K 	K 	0.85160 0.02150 0.37950 0.64800
Cr	Cr	0.79391 0.96668 0.77890 1.55800
Cr	Cr	0.97900 0.00870 0.74770 1.58700
Cr	Cr	0.95012 0.88956 0.84780 1.57700
Cr	Cr	0.53949 0.53332 0.72110 1.55800
Cr	Cr	0.73540 0.49130 0.75230 1.58800
Cr	Cr	0.68748 0.61044 0.65220 1.57700
Cr	Cr	0.20609 0.03332 0.22110 1.55800
Cr	Cr	0.02100 0.99130 0.25230 1.58700
Cr	Cr	0.04988 0.11044 0.15220 1.57700
Cr	Cr	0.46051 0.46668 0.27890 1.55800
Cr	Cr	0.26460 0.50870 0.24770 1.58800
Cr	Cr	0.31252 0.38956 0.34780 1.57700
Co	Co	0.39462 0.78906 0.96410 1.20500
Co	Co	0.14778 0.71094 0.53590 1.20500
Co	Co	0.60538 0.21094 0.03590 1.20500
Co	Co	0.85222 0.28906 0.46410 1.20500
H 	H 	0.78230 0.19920 0.74400 0.38100
H 	H 	0.70020 0.18130 0.78770 0.35900
H 	H 	0.70830 0.18450 0.72650 0.36000
H 	H 	0.23290 0.80380 0.76700 0.41500
H 	H 	0.25930 0.86690 0.73670 0.40800
H 	H 	0.21880 0.83430 0.70850 0.41300
H 	H 	0.91780 0.72690 0.80050 0.38800
H 	H 	0.88870 0.76800 0.74740 0.38000
H 	H 	0.81410 0.75660 0.79980 0.37900
H 	H 	0.01210 0.07730 0.87410 0.36100
H 	H 	0.94760 0.04820 0.92420 0.33000
H 	H 	0.05290 0.01330 0.91170 0.35100
H 	H 	0.86580 0.97280 0.60560 0.39900
H 	H 	0.97210 0.95510 0.59450 0.40400
H 	H 	0.91200 0.02800 0.58760 0.39300
H 	H 	0.70370 0.92460 0.98140 0.39100
H 	H 	0.63070 0.92940 0.95160 0.38600
H 	H 	0.64890 0.99250 0.95410 0.39200
H 	H 	0.72550 0.30080 0.75600 0.38100
H 	H 	0.66920 0.31870 0.71230 0.35900
H 	H 	0.61930 0.31550 0.77350 0.36000
H 	H 	0.80370 0.69620 0.73300 0.41400
H 	H 	0.86290 0.63310 0.76330 0.40800
H 	H 	0.76160 0.66570 0.79150 0.41300
H 	H 	0.44520 0.77310 0.69950 0.38900
H 	H 	0.40410 0.73200 0.75260 0.38100
H 	H 	0.37050 0.74340 0.70020 0.37900
H 	H 	0.96350 0.42270 0.62590 0.36800
H 	H 	0.92000 0.45180 0.57580 0.34200
H 	H 	0.97790 0.48670 0.58830 0.35900
H 	H 	0.44420 0.52720 0.89440 0.40000
H 	H 	0.52170 0.54490 0.90550 0.40500
H 	H 	0.52760 0.47200 0.91240 0.39600
H 	H 	0.60970 0.57540 0.51860 0.39100
H 	H 	0.51170 0.57060 0.54840 0.38600
H 	H 	0.59550 0.50750 0.54590 0.39200
H 	H 	0.21770 0.80080 0.25600 0.38100
H 	H 	0.29980 0.81870 0.21230 0.35900
H 	H 	0.29170 0.81550 0.27350 0.36000
H 	H 	0.76710 0.19620 0.23300 0.41500
H 	H 	0.74070 0.13310 0.26330 0.40800
H 	H 	0.78120 0.16570 0.29150 0.41300
H 	H 	0.08220 0.27310 0.19950 0.38800
H 	H 	0.11130 0.23200 0.25260 0.38000
H 	H 	0.18590 0.24340 0.20020 0.37900
H 	H 	0.98790 0.92270 0.12590 0.36100
H 	H 	0.05240 0.95180 0.07580 0.33000
H 	H 	0.94710 0.98670 0.08830 0.35100
H 	H 	0.13420 0.02720 0.39440 0.39900
H 	H 	0.02790 0.04490 0.40550 0.40400
H 	H 	0.08800 0.97200 0.41240 0.39300
H 	H 	0.29630 0.07540 0.01860 0.39100
H 	H 	0.36930 0.07060 0.04840 0.38600
H 	H 	0.35110 0.00750 0.04590 0.39200
H 	H 	0.27450 0.69920 0.24400 0.38100
H 	H 	0.33080 0.68130 0.28770 0.35900
H 	H 	0.38070 0.68450 0.22650 0.36000
H 	H 	0.19630 0.30380 0.26700 0.41400
H 	H 	0.13710 0.36690 0.23670 0.40800
H 	H 	0.23840 0.33430 0.20850 0.41300
H 	H 	0.55480 0.22690 0.30050 0.38900
H 	H 	0.59590 0.26800 0.24740 0.38100
H 	H 	0.62950 0.25660 0.29980 0.37900
H 	H 	0.03650 0.57730 0.37410 0.36800
H 	H 	0.08000 0.54820 0.42420 0.34200
H 	H 	0.02210 0.51330 0.41170 0.35900
H 	H 	0.55580 0.47280 0.10560 0.40000
H 	H 	0.47830 0.45510 0.09450 0.40500
H 	H 	0.47240 0.52800 0.08760 0.39600
H 	H 	0.39030 0.42460 0.48140 0.39100
H 	H 	0.48830 0.42940 0.45160 0.38600
H 	H 	0.40450 0.49250 0.45410 0.39200
W 	W 	0.45252 0.93330 0.91198 1.26000
W 	W 	0.49228 0.83448 0.04360 1.23600
W 	W 	0.42923 0.70218 0.09172 0.99800
W 	W 	0.28610 0.73815 0.89453 0.99300
W 	W 	0.23491 0.94460 0.95362 0.96000
W 	W 	0.56538 0.63994 0.96546 1.24300
W 	W 	0.27462 0.84569 0.08587 0.96100
W 	W 	0.62996 0.77188 0.91762 0.99000
W 	W 	0.16505 0.79556 0.00606 0.99000
W 	W 	0.35486 0.88802 0.84214 0.97300
W 	W 	0.53236 0.72609 0.84799 0.95300
W 	W 	0.32033 0.65161 0.01175 1.26300
W 	W 	0.29780 0.56670 0.58802 1.26000
W 	W 	0.37036 0.66552 0.45640 1.23600
W 	W 	0.22313 0.79782 0.40828 0.99800
W 	W 	0.91878 0.76185 0.60547 0.99400
W 	W 	0.13313 0.55540 0.54638 0.95700
W 	W 	0.17078 0.86006 0.53454 1.24300
W 	W 	0.20618 0.65431 0.41413 0.96200
W 	W 	0.31946 0.72812 0.58238 0.99000
W 	W 	0.96667 0.70444 0.49394 0.99600
W 	W 	0.08502 0.61198 0.65786 0.97400
W 	W 	0.10644 0.77391 0.65201 0.95300
W 	W 	0.98369 0.84839 0.48825 1.26700
W 	W 	0.54748 0.06670 0.08802 1.26000
W 	W 	0.50772 0.16552 0.95640 1.23600
W 	W 	0.57077 0.29782 0.90828 0.99800
W 	W 	0.71390 0.26185 0.10547 0.99300
W 	W 	0.76509 0.05540 0.04638 0.96000
W 	W 	0.43462 0.36006 0.03454 1.24300
W 	W 	0.72538 0.15431 0.91413 0.96100
W 	W 	0.37004 0.22812 0.08238 0.99000
W 	W 	0.83495 0.20444 0.99394 0.99000
W 	W 	0.64514 0.11198 0.15786 0.97300
W 	W 	0.46764 0.27391 0.15201 0.95300
W 	W 	0.67967 0.34839 0.98825 1.26300
W 	W 	0.70220 0.43330 0.41198 1.26000
W 	W 	0.62964 0.33448 0.54360 1.23600
W 	W 	0.77687 0.20218 0.59172 0.99800
W 	W 	0.08122 0.23815 0.39453 0.99400
W 	W 	0.86687 0.44460 0.45362 0.95700
W 	W 	0.82922 0.13994 0.46546 1.24300
W 	W 	0.79382 0.34569 0.58587 0.96200
W 	W 	0.68054 0.27188 0.41762 0.99000
W 	W 	0.03333 0.29556 0.50606 0.99600
W 	W 	0.91498 0.38802 0.34214 0.97400
W 	W 	0.89356 0.22609 0.34799 0.95300
W 	W 	0.01631 0.15161 0.51175 1.26700
C 	C 	0.12350 0.88360 0.76480 0.84300
C 	C 	0.90620 0.98580 0.66780 0.71800
C 	C 	0.99000 0.99860 0.86140 0.70600
C 	C 	0.74150 0.17320 0.75380 -1.21900
C 	C 	0.75100 0.94030 0.89770 0.70700
C 	C 	0.21710 0.84360 0.74220 -1.38500
C 	C 	0.87340 0.76330 0.78590 -1.27400
C 	C 	0.86960 0.82330 0.80150 0.76300
C 	C 	0.00200 0.03790 0.89610 -1.12900
C 	C 	0.79640 0.10260 0.75860 0.72900
C 	C 	0.91520 0.98540 0.60820 -1.20600
C 	C 	0.67660 0.94740 0.95140 -1.17400
C 	C 	0.77190 0.61640 0.73520 0.84300
C 	C 	0.55980 0.51420 0.83220 0.71700
C 	C 	0.85000 0.50140 0.63860 0.71800
C 	C 	0.66850 0.32680 0.74620 -1.21800
C 	C 	0.58900 0.55970 0.60230 0.70600
C 	C 	0.80290 0.65640 0.75780 -1.38500
C 	C 	0.42260 0.73670 0.71410 -1.27500
C 	C 	0.49440 0.67670 0.69850 0.76300
C 	C 	0.93600 0.46210 0.60390 -1.15800
C 	C 	0.65760 0.39740 0.74140 0.72900
C 	C 	0.50880 0.51460 0.89180 -1.21000
C 	C 	0.57540 0.55260 0.54860 -1.17400
C 	C 	0.87650 0.11640 0.23520 0.84300
C 	C 	0.09380 0.01420 0.33220 0.71800
C 	C 	0.01000 0.00140 0.13860 0.70600
C 	C 	0.25850 0.82680 0.24620 -1.21900
C 	C 	0.24900 0.05970 0.10230 0.70700
C 	C 	0.78290 0.15640 0.25780 -1.38500
C 	C 	0.12660 0.23670 0.21410 -1.27400
C 	C 	0.13040 0.17670 0.19850 0.76300
C 	C 	0.99800 0.96210 0.10390 -1.12900
C 	C 	0.20360 0.89740 0.24140 0.72900
C 	C 	0.08480 0.01460 0.39180 -1.20600
C 	C 	0.32340 0.05260 0.04860 -1.17400
C 	C 	0.22810 0.38360 0.26480 0.84300
C 	C 	0.44020 0.48580 0.16780 0.71700
C 	C 	0.15000 0.49860 0.36140 0.71800
C 	C 	0.33150 0.67320 0.25380 -1.21800
C 	C 	0.41100 0.44030 0.39770 0.70600
C 	C 	0.19710 0.34360 0.24220 -1.38500
C 	C 	0.57740 0.26330 0.28590 -1.27500
C 	C 	0.50560 0.32330 0.30150 0.76300
C 	C 	0.06400 0.53790 0.39610 -1.15800
C 	C 	0.34240 0.60260 0.25860 0.72900
C 	C 	0.49120 0.48540 0.10820 -1.21000
C 	C 	0.42460 0.44740 0.45140 -1.17400
O 	O 	0.50170 0.99370 0.89430 -0.46100
O 	O 	0.75210 0.06200 0.77120 -0.67500
O 	O 	0.17970 0.87590 0.96910 -0.46500
O 	O 	0.30510 0.57860 0.04340 -0.43500
O 	O 	0.88140 0.08860 0.74760 -0.62000
O 	O 	0.55440 0.85830 0.89730 -0.48000
O 	O 	0.83690 0.97270 0.70030 -0.62300
O 	O 	0.32120 0.76100 0.12780 -0.45100
O 	O 	0.96600 0.00030 0.67810 -0.63100
O 	O 	0.25570 0.91150 0.02430 -0.47300
O 	O 	0.81410 0.87450 0.78310 -0.63800
O 	O 	0.92580 0.82070 0.82670 -0.63800
O 	O 	0.20860 0.80750 0.06130 -0.45700
O 	O 	0.63350 0.56220 0.97920 -0.43500
O 	O 	0.32890 0.98500 0.93600 -0.45400
O 	O 	0.29580 0.65840 0.94260 -0.45700
O 	O 	0.52430 0.66450 0.03350 -0.48000
O 	O 	0.63560 0.75290 0.85030 -0.45500
O 	O 	0.41630 0.71290 0.86870 -0.47300
O 	O 	0.42930 0.93930 0.84350 -0.44900
O 	O 	0.19460 0.70420 0.03560 -0.43800
O 	O 	0.45860 0.90170 0.98630 -0.51000
O 	O 	0.58150 0.78920 0.98980 -0.48000
O 	O 	0.24770 0.94920 0.87740 -0.43000
O 	O 	0.30740 0.75340 0.96680 -0.56200
O 	O 	0.50640 0.74120 0.93100 -0.56600
O 	O 	0.09430 0.93700 0.73680 -0.67600
O 	O 	0.29290 0.82310 0.86450 -0.46500
O 	O 	0.55220 0.86400 0.06900 -0.43700
O 	O 	0.97560 0.94720 0.87900 -0.64400
O 	O 	0.07670 0.86230 0.80770 -0.66800
O 	O 	0.16630 0.77610 0.93870 -0.42500
O 	O 	0.37470 0.87010 0.09130 -0.49300
O 	O 	0.46400 0.81720 0.83220 -0.45700
O 	O 	0.44670 0.63020 0.97840 -0.50800
O 	O 	0.39860 0.79110 0.03170 -0.56600
O 	O 	0.83340 0.90530 0.90030 -0.60500
O 	O 	0.05920 0.06560 0.70000 -0.33300
O 	O 	0.58520 0.64340 0.88900 -0.49200
O 	O 	0.66240 0.68020 0.94680 -0.45100
O 	O 	0.72810 0.96570 0.85510 -0.65600
O 	O 	0.36360 0.87200 0.92440 -0.55800
O 	O 	0.90820 0.95400 0.79260 -0.83800
O 	O 	0.35340 0.67510 0.06510 -0.47700
O 	O 	0.00500 0.02590 0.81090 -0.55800
O 	O 	0.50160 0.75160 0.09400 -0.46200
O 	O 	0.38970 0.50630 0.60570 -0.46100
O 	O 	0.58530 0.43800 0.72880 -0.67400
O 	O 	0.02470 0.62410 0.53090 -0.46800
O 	O 	0.92710 0.92140 0.45660 -0.43400
O 	O 	0.71760 0.41140 0.75240 -0.61900
O 	O 	0.31000 0.64170 0.60270 -0.48000
O 	O 	0.50990 0.52730 0.79970 -0.62300
O 	O 	0.21000 0.73900 0.37220 -0.45100
O 	O 	0.64440 0.49970 0.82190 -0.62900
O 	O 	0.19150 0.58850 0.47570 -0.47200
O 	O 	0.47170 0.62550 0.71690 -0.63800
O 	O 	0.57320 0.67930 0.67330 -0.63800
O 	O 	0.07740 0.69250 0.43870 -0.45800
O 	O 	0.17490 0.93780 0.52080 -0.43500
O 	O 	0.24990 0.51500 0.56400 -0.45400
O 	O 	0.89680 0.84160 0.55740 -0.45800
O 	O 	0.22230 0.83550 0.46650 -0.48000
O 	O 	0.23880 0.74710 0.64970 -0.45500
O 	O 	0.99790 0.78710 0.63130 -0.47300
O 	O 	0.21210 0.56070 0.65650 -0.44900
O 	O 	0.93440 0.79580 0.46440 -0.43800
O 	O 	0.34660 0.59830 0.51370 -0.51100
O 	O 	0.36050 0.71080 0.51020 -0.48000
O 	O 	0.07430 0.55080 0.62260 -0.43000
O 	O 	0.02760 0.74660 0.53320 -0.56400
O 	O 	0.17860 0.75880 0.56900 -0.56600
O 	O 	0.76810 0.56300 0.76320 -0.67600
O 	O 	0.98050 0.67690 0.63550 -0.46600
O 	O 	0.48520 0.63600 0.43100 -0.43700
O 	O 	0.80180 0.55280 0.62100 -0.64700
O 	O 	0.74670 0.63770 0.69230 -0.66800
O 	O 	0.88110 0.72390 0.56130 -0.42800
O 	O 	0.33610 0.62990 0.40870 -0.49300
O 	O 	0.11340 0.68280 0.66780 -0.45700
O 	O 	0.05530 0.86980 0.52160 -0.50900
O 	O 	0.22140 0.70890 0.46830 -0.56500
O 	O 	0.63900 0.59470 0.59970 -0.60400
O 	O 	0.82480 0.43440 0.80000 -0.33400
O 	O 	0.11760 0.85660 0.61100 -0.49200
O 	O 	0.28940 0.81980 0.55320 -0.45100
O 	O 	0.54890 0.53430 0.64490 -0.65700
O 	O 	0.16000 0.62800 0.57560 -0.55800
O 	O 	0.65480 0.54600 0.70740 -0.83800
O 	O 	0.09360 0.82490 0.43490 -0.47800
O 	O 	0.84180 0.47410 0.68910 -0.56300
O 	O 	0.34720 0.74840 0.40600 -0.46200
O 	O 	0.49830 0.00630 0.10570 -0.46100
O 	O 	0.24790 0.93800 0.22880 -0.67500
O 	O 	0.82030 0.12410 0.03090 -0.46500
O 	O 	0.69490 0.42140 0.95660 -0.43500
O 	O 	0.11860 0.91140 0.25240 -0.62000
O 	O 	0.44560 0.14170 0.10270 -0.48000
O 	O 	0.16310 0.02730 0.29970 -0.62300
O 	O 	0.67880 0.23900 0.87220 -0.45100
O 	O 	0.03400 0.99970 0.32190 -0.63100
O 	O 	0.74430 0.08850 0.97570 -0.47300
O 	O 	0.18590 0.12550 0.21690 -0.63800
O 	O 	0.07420 0.17930 0.17330 -0.63800
O 	O 	0.79140 0.19250 0.93870 -0.45700
O 	O 	0.36650 0.43780 0.02080 -0.43500
O 	O 	0.67110 0.01500 0.06400 -0.45400
O 	O 	0.70420 0.34160 0.05740 -0.45700
O 	O 	0.47570 0.33550 0.96650 -0.48000
O 	O 	0.36440 0.24710 0.14970 -0.45500
O 	O 	0.58370 0.28710 0.13130 -0.47300
O 	O 	0.57070 0.06070 0.15650 -0.44900
O 	O 	0.80540 0.29580 0.96440 -0.43800
O 	O 	0.54140 0.09830 0.01370 -0.51000
O 	O 	0.41850 0.21080 0.01020 -0.48000
O 	O 	0.75230 0.05080 0.12260 -0.43000
O 	O 	0.69260 0.24660 0.03320 -0.56200
O 	O 	0.49360 0.25880 0.06900 -0.56600
O 	O 	0.90570 0.06300 0.26320 -0.67600
O 	O 	0.70710 0.17690 0.13550 -0.46500
O 	O 	0.44780 0.13600 0.93100 -0.43700
O 	O 	0.02440 0.05280 0.12100 -0.64400
O 	O 	0.92330 0.13770 0.19230 -0.66800
O 	O 	0.83370 0.22390 0.06130 -0.42500
O 	O 	0.62530 0.12990 0.90870 -0.49300
O 	O 	0.53600 0.18280 0.16780 -0.45700
O 	O 	0.55330 0.36980 0.02160 -0.50800
O 	O 	0.60140 0.20890 0.96830 -0.56600
O 	O 	0.16660 0.09470 0.09970 -0.60500
O 	O 	0.94080 0.93440 0.30000 -0.33300
O 	O 	0.41480 0.35660 0.11100 -0.49200
O 	O 	0.33760 0.31980 0.05320 -0.45100
O 	O 	0.27190 0.03430 0.14490 -0.65600
O 	O 	0.63640 0.12800 0.07560 -0.55800
O 	O 	0.09180 0.04600 0.20740 -0.83800
O 	O 	0.64660 0.32490 0.93490 -0.47700
O 	O 	0.99500 0.97410 0.18910 -0.55800
O 	O 	0.49840 0.24840 0.90600 -0.46200
O 	O 	0.61030 0.49370 0.39430 -0.46100
O 	O 	0.41470 0.56200 0.27120 -0.67400
O 	O 	0.97530 0.37590 0.46910 -0.46800
O 	O 	0.07290 0.07860 0.54340 -0.43400
O 	O 	0.28240 0.58860 0.24760 -0.61900
O 	O 	0.69000 0.35830 0.39730 -0.48000
O 	O 	0.49010 0.47270 0.20030 -0.62300
O 	O 	0.79000 0.26100 0.62780 -0.45100
O 	O 	0.35560 0.50030 0.17810 -0.62900
O 	O 	0.80850 0.41150 0.52430 -0.47200
O 	O 	0.52830 0.37450 0.28310 -0.63800
O 	O 	0.42680 0.32070 0.32670 -0.63800
O 	O 	0.92260 0.30750 0.56130 -0.45800
O 	O 	0.82510 0.06220 0.47920 -0.43500
O 	O 	0.75010 0.48500 0.43600 -0.45400
O 	O 	0.10320 0.15840 0.44260 -0.45800
O 	O 	0.77770 0.16450 0.53350 -0.48000
O 	O 	0.76120 0.25290 0.35030 -0.45500
O 	O 	0.00210 0.21290 0.36870 -0.47300
O 	O 	0.78790 0.43930 0.34350 -0.44900
O 	O 	0.06560 0.20420 0.53560 -0.43800
O 	O 	0.65340 0.40170 0.48630 -0.51100
O 	O 	0.63950 0.28920 0.48980 -0.48000
O 	O 	0.92570 0.44920 0.37740 -0.43000
O 	O 	0.97240 0.25340 0.46680 -0.56400
O 	O 	0.82140 0.24120 0.43100 -0.56600
O 	O 	0.23190 0.43700 0.23680 -0.67600
O 	O 	0.01950 0.32310 0.36450 -0.46600
O 	O 	0.51480 0.36400 0.56900 -0.43700
O 	O 	0.19820 0.44720 0.37900 -0.64700
O 	O 	0.25330 0.36230 0.30770 -0.66800
O 	O 	0.11890 0.27610 0.43870 -0.42800
O 	O 	0.66390 0.37010 0.59130 -0.49300
O 	O 	0.88660 0.31720 0.33220 -0.45700
O 	O 	0.94470 0.13020 0.47840 -0.50900
O 	O 	0.77860 0.29110 0.53170 -0.56500
O 	O 	0.36100 0.40530 0.40030 -0.60400
O 	O 	0.17520 0.56560 0.20000 -0.33400
O 	O 	0.88240 0.14340 0.38900 -0.49200
O 	O 	0.71060 0.18020 0.44680 -0.45100
O 	O 	0.45110 0.46570 0.35510 -0.65700
O 	O 	0.84000 0.37200 0.42440 -0.55800
O 	O 	0.34520 0.45400 0.29260 -0.83800
O 	O 	0.90640 0.17510 0.56510 -0.47800
O 	O 	0.15820 0.52590 0.31090 -0.56300
O 	O 	0.65280 0.25160 0.59400 -0.46200
