data_crystal

_cell_length_a 8.62220
_cell_length_b 9.56830
_cell_length_c 9.57120
_cell_angle_alpha 109.38800
_cell_angle_beta  98.50800
_cell_angle_gamma 102.36100

_symmetry_space_group_name_	'P 1'
_symmetry_space_group_name_H-M	'P 1'

loop_
_symmetry_equiv_pos_as_xyz
  x,y,z

loop_
_atom_site_label
_atom_site_type_symbol
_atom_site_fract_x
_atom_site_fract_y
_atom_site_fract_z
_atom_site_charge
Nd	Nd	0.16140 0.22834 0.34985 2.23200
O 	O 	0.09760 0.19890 0.07950 -0.42700
O 	O 	0.20390 0.06780 0.49850 -0.42600
O 	O 	0.34400 0.46510 0.34530 -0.42200
O 	O 	0.98240 0.39200 0.31030 -0.40400
O 	O 	0.56850 0.65970 0.45600 -0.40900
O 	O 	0.86180 0.57200 0.41180 -0.39800
O 	O 	0.08360 0.87800 0.56800 -0.41300
O 	O 	0.00130 0.04000 0.83470 -0.41400
C 	C 	0.02860 0.06990 0.97670 0.25300
C 	C 	0.08260 0.98360 0.51930 0.28200
C 	C 	0.47490 0.53560 0.44200 0.27200
C 	C 	0.95520 0.48770 0.41950 0.27400
Nd	Nd	0.83860 0.77166 0.65015 2.23200
O 	O 	0.90240 0.80110 0.92050 -0.42700
O 	O 	0.79610 0.93220 0.50150 -0.42600
O 	O 	0.65600 0.53490 0.65470 -0.42200
O 	O 	0.01760 0.60800 0.68970 -0.40400
O 	O 	0.43150 0.34030 0.54400 -0.40900
O 	O 	0.13820 0.42800 0.58820 -0.39800
O 	O 	0.91640 0.12200 0.43200 -0.41300
O 	O 	0.99870 0.96000 0.16530 -0.41400
C 	C 	0.97140 0.93010 0.02330 0.25300
C 	C 	0.91740 0.01640 0.48070 0.28200
C 	C 	0.52510 0.46440 0.55800 0.27200
C 	C 	0.04480 0.51230 0.58050 0.27400
