data_crystal

_cell_length_a 17.07500
_cell_length_b 20.20500
_cell_length_c 20.51900
_cell_angle_alpha 90.00000
_cell_angle_beta  90.00000
_cell_angle_gamma 90.12000

_symmetry_space_group_name_	'P 1'
_symmetry_space_group_name_H-M	'P 1'

loop_
_symmetry_equiv_pos_as_xyz
  x,y,z

loop_
_atom_site_label
_atom_site_type_symbol
_atom_site_fract_x
_atom_site_fract_y
_atom_site_fract_z
_atom_site_charge
Na	Na	0.39050 0.23300 0.64450 0.59000
Na	Na	0.10950 0.26700 0.14450 0.58800
Na	Na	0.60950 0.76700 0.35550 0.59000
Na	Na	0.89050 0.73300 0.85550 0.59100
Zn	Zn	0.65113 0.37481 0.00557 1.22900
Zn	Zn	0.84887 0.12519 0.50557 1.23400
Zn	Zn	0.34887 0.62519 0.99443 1.23800
Zn	Zn	0.15113 0.87481 0.49443 1.23400
Zn	Zn	0.50000 0.50000 -0.00000 1.23800
Zn	Zn	-0.00000 0.00000 0.50000 1.23300
H 	H 	0.53880 0.27930 0.17540 0.02400
H 	H 	0.49160 0.25120 0.27840 0.07100
H 	H 	0.41450 0.43820 0.30320 0.07300
H 	H 	0.46170 0.46620 0.20030 0.03100
H 	H 	0.13920 0.13480 0.49290 0.02100
H 	H 	0.20580 0.23390 0.47460 0.08600
H 	H 	0.39950 0.13160 0.42470 0.08700
H 	H 	0.33290 0.03250 0.44300 0.01300
H 	H 	0.61690 0.37420 0.78990 0.02000
H 	H 	0.57450 0.39220 0.68350 0.08900
H 	H 	0.36070 0.44250 0.75080 0.08900
H 	H 	0.40310 0.42440 0.85730 0.01400
H 	H 	0.36560 0.73350 0.61940 0.03100
H 	H 	0.41250 0.62630 0.63450 0.07200
H 	H 	0.27410 0.56160 0.48820 0.06600
H 	H 	0.22720 0.66880 0.47310 0.03000
H 	H 	0.45270 0.41370 0.40790 0.05400
H 	H 	0.37920 0.23530 0.34360 0.03900
H 	H 	0.40750 0.52990 0.66600 0.04700
H 	H 	0.35510 0.48350 0.47970 0.05100
H 	H 	0.21740 0.33000 0.52670 0.02400
H 	H 	0.27230 0.37220 0.57330 0.04000
H 	H 	0.58440 0.31900 0.59630 0.03900
H 	H 	0.54660 0.34500 0.53030 0.04100
H 	H 	0.16970 0.32810 0.63360 0.03700
H 	H 	0.19240 0.25550 0.61060 0.04000
H 	H 	0.50040 0.24420 0.50410 0.04400
H 	H 	0.58780 0.23230 0.52650 0.04300
H 	H 	0.18940 0.30260 0.74600 0.03900
H 	H 	0.20760 0.22800 0.72620 0.04300
H 	H 	0.61110 0.14890 0.60610 0.04400
H 	H 	0.60260 0.21520 0.64690 0.04900
H 	H 	0.31090 0.31350 0.79240 0.04200
H 	H 	0.26900 0.25100 0.82360 0.03600
H 	H 	0.51490 0.09860 0.67060 0.03600
H 	H 	0.58410 0.12500 0.71580 0.03500
H 	H 	0.44450 0.26820 0.81660 0.05400
H 	H 	0.39840 0.21150 0.85470 0.04400
H 	H 	0.52270 0.17870 0.80970 0.02900
H 	H 	0.45120 0.13140 0.79380 0.03000
H 	H 	0.96120 0.22070 0.67540 0.02100
H 	H 	0.00840 0.24880 0.77840 0.07900
H 	H 	0.08550 0.06180 0.80320 0.06900
H 	H 	0.03830 0.03380 0.70030 0.02900
H 	H 	0.36080 0.36520 0.99290 0.02300
H 	H 	0.29420 0.26610 0.97460 0.09600
H 	H 	0.10050 0.36840 0.92470 0.09200
H 	H 	0.16710 0.46750 0.94300 0.01300
H 	H 	0.88310 0.12580 0.28990 0.03600
H 	H 	0.92550 0.10780 0.18350 0.06400
H 	H 	0.13930 0.05750 0.25080 0.06600
H 	H 	0.09690 0.07560 0.35730 0.03300
H 	H 	0.13440 0.76650 0.11940 0.03900
H 	H 	0.08750 0.87370 0.13450 0.05300
H 	H 	0.22590 0.93840 0.98820 0.07500
H 	H 	0.27280 0.83120 0.97310 0.06300
H 	H 	0.04730 0.08630 0.90790 0.04400
H 	H 	0.12080 0.26470 0.84360 0.03400
H 	H 	0.09250 0.97010 0.16600 0.09800
H 	H 	0.14490 0.01650 0.97970 0.09200
H 	H 	0.28260 0.17000 0.02670 0.01400
H 	H 	0.22770 0.12780 0.07330 0.03400
H 	H 	0.91560 0.18100 0.09630 0.03300
H 	H 	0.95340 0.15500 0.03030 0.03300
H 	H 	0.33030 0.17190 0.13360 0.03800
H 	H 	0.30760 0.24450 0.11060 0.04000
H 	H 	0.99960 0.25580 0.00410 0.04600
H 	H 	0.91220 0.26770 0.02650 0.04100
H 	H 	0.31060 0.19740 0.24600 0.03900
H 	H 	0.29240 0.27200 0.22620 0.04400
H 	H 	0.88890 0.35110 0.10610 0.04600
H 	H 	0.89740 0.28480 0.14690 0.05200
H 	H 	0.18910 0.18650 0.29240 0.04100
H 	H 	0.23100 0.24900 0.32360 0.03400
H 	H 	0.98510 0.40140 0.17060 0.03800
H 	H 	0.91590 0.37500 0.21580 0.03400
H 	H 	0.05550 0.23180 0.31660 0.04100
H 	H 	0.10160 0.28850 0.35470 0.03300
H 	H 	0.97730 0.32130 0.30970 0.05400
H 	H 	0.04880 0.36860 0.29380 0.03800
H 	H 	0.46120 0.72070 0.82460 0.02700
H 	H 	0.50840 0.74880 0.72160 0.07400
H 	H 	0.58550 0.56180 0.69680 0.07400
H 	H 	0.53830 0.53380 0.79970 0.03200
H 	H 	0.86080 0.86520 0.50710 0.02300
H 	H 	0.79420 0.76610 0.52540 0.08900
H 	H 	0.60050 0.86840 0.57530 0.09200
H 	H 	0.66710 0.96750 0.55700 0.02000
H 	H 	0.38310 0.62580 0.21010 0.01700
H 	H 	0.42550 0.60780 0.31650 0.08900
H 	H 	0.63930 0.55750 0.24920 0.09100
H 	H 	0.59690 0.57560 0.14270 0.01200
H 	H 	0.63440 0.26650 0.38060 0.02900
H 	H 	0.58750 0.37370 0.36550 0.07300
H 	H 	0.72590 0.43840 0.51180 0.06900
H 	H 	0.77280 0.33120 0.52690 0.03300
H 	H 	0.54730 0.58630 0.59210 0.05400
H 	H 	0.62080 0.76470 0.65640 0.04000
H 	H 	0.59250 0.47010 0.33400 0.04700
H 	H 	0.64490 0.51650 0.52030 0.05200
H 	H 	0.78260 0.67000 0.47330 0.02600
H 	H 	0.72770 0.62780 0.42670 0.04100
H 	H 	0.41560 0.68100 0.40370 0.03800
H 	H 	0.45340 0.65500 0.46970 0.04100
H 	H 	0.83030 0.67190 0.36640 0.04200
H 	H 	0.80760 0.74450 0.38940 0.04500
H 	H 	0.49960 0.75580 0.49590 0.04600
H 	H 	0.41220 0.76770 0.47350 0.04400
H 	H 	0.81060 0.69740 0.25400 0.04100
H 	H 	0.79240 0.77200 0.27380 0.04600
H 	H 	0.38890 0.85110 0.39390 0.04600
H 	H 	0.39740 0.78480 0.35310 0.04800
H 	H 	0.68910 0.68650 0.20760 0.04200
H 	H 	0.73100 0.74900 0.17640 0.03500
H 	H 	0.48510 0.90140 0.32940 0.04300
H 	H 	0.41590 0.87500 0.28420 0.03900
H 	H 	0.55550 0.73180 0.18340 0.05200
H 	H 	0.60160 0.78850 0.14530 0.04100
H 	H 	0.47730 0.82130 0.19030 0.03000
H 	H 	0.54880 0.86860 0.20620 0.03300
H 	H 	0.03880 0.77930 0.32460 0.03000
H 	H 	0.99160 0.75120 0.22160 0.06700
H 	H 	0.91450 0.93820 0.19680 0.07800
H 	H 	0.96170 0.96620 0.29970 0.03400
H 	H 	0.63920 0.63480 0.00710 0.02200
H 	H 	0.70580 0.73390 0.02540 0.07900
H 	H 	0.89950 0.63160 0.07530 0.08600
H 	H 	0.83290 0.53250 0.05700 0.02000
H 	H 	0.11690 0.87420 0.71010 0.00100
H 	H 	0.07450 0.89220 0.81650 0.11500
H 	H 	0.86070 0.94250 0.74920 0.11400
H 	H 	0.90310 0.92440 0.64270 -0.00700
H 	H 	0.86560 0.23350 0.88060 0.02200
H 	H 	0.91250 0.12630 0.86550 0.09200
H 	H 	0.77410 0.06160 0.01180 0.05700
H 	H 	0.72720 0.16880 0.02690 -0.00200
H 	H 	0.95270 0.91370 0.09210 0.06200
H 	H 	0.87920 0.73530 0.15640 0.04500
H 	H 	0.90750 0.02990 0.83400 0.00100
H 	H 	0.85510 0.98350 0.02030 0.00900
H 	H 	0.71740 0.83000 0.97330 0.03700
H 	H 	0.77230 0.87220 0.92670 0.04700
H 	H 	0.08440 0.81900 0.90370 0.04500
H 	H 	0.04660 0.84500 0.96970 0.05000
H 	H 	0.66970 0.82810 0.86640 0.04100
H 	H 	0.69240 0.75550 0.88940 0.04500
H 	H 	0.00040 0.74420 0.99590 0.04300
H 	H 	0.08780 0.73230 0.97350 0.04600
H 	H 	0.68940 0.80260 0.75400 0.04100
H 	H 	0.70760 0.72800 0.77380 0.04600
H 	H 	0.11110 0.64890 0.89390 0.04300
H 	H 	0.10260 0.71520 0.85310 0.04500
H 	H 	0.81090 0.81350 0.70760 0.04400
H 	H 	0.76900 0.75100 0.67640 0.03700
H 	H 	0.01490 0.59860 0.82940 0.04100
H 	H 	0.08410 0.62500 0.78420 0.04000
H 	H 	0.94450 0.76820 0.68340 0.06500
H 	H 	0.89840 0.71150 0.64530 0.05300
H 	H 	0.02270 0.67870 0.69030 0.00500
H 	H 	0.95120 0.63140 0.70620 0.02400
C 	C 	0.50480 0.37550 0.17790 -0.13200
C 	C 	0.51370 0.31130 0.20120 0.05100
C 	C 	0.48560 0.29460 0.26260 -0.12700
C 	C 	0.44850 0.34200 0.30070 0.06300
C 	C 	0.43960 0.40610 0.27740 -0.12400
C 	C 	0.46770 0.42290 0.21600 0.04900
C 	C 	0.53370 0.39340 0.11630 0.31600
C 	C 	0.22960 0.07410 0.46970 -0.15200
C 	C 	0.19170 0.13420 0.47910 0.06600
C 	C 	0.23150 0.19330 0.46820 -0.15100
C 	C 	0.30910 0.19230 0.44790 0.11300
C 	C 	0.34700 0.13220 0.43840 -0.16100
C 	C 	0.30730 0.07320 0.44930 0.07500
C 	C 	0.18950 0.01660 0.48380 0.30100
C 	C 	0.51410 0.39760 0.83390 -0.15900
C 	C 	0.56520 0.38800 0.78200 0.08000
C 	C 	0.53990 0.39870 0.71850 -0.15600
C 	C 	0.46350 0.41910 0.70690 0.11500
C 	C 	0.41240 0.42870 0.75870 -0.15700
C 	C 	0.43770 0.41790 0.82220 0.07900
C 	C 	0.26500 0.77530 0.53570 0.26900
C 	C 	0.29190 0.71150 0.54480 -0.11300
C 	C 	0.34710 0.69880 0.59300 0.03600
C 	C 	0.37510 0.63490 0.60200 -0.11600
C 	C 	0.34780 0.58360 0.56280 0.05800
C 	C 	0.29250 0.59630 0.51470 -0.11600
C 	C 	0.26460 0.66020 0.50570 0.03500
C 	C 	0.53830 0.39040 0.89800 0.32300
C 	C 	0.39450 0.36010 0.47630 -0.02000
C 	C 	0.42690 0.37330 0.41550 -0.06300
C 	C 	0.42120 0.32660 0.36590 -0.01000
C 	C 	0.38300 0.26690 0.37710 -0.03800
C 	C 	0.35070 0.25370 0.43790 -0.07500
C 	C 	0.35640 0.30040 0.48750 0.12200
C 	C 	0.40470 0.40800 0.53010 -0.01800
C 	C 	0.43500 0.39010 0.59050 0.12100
C 	C 	0.43600 0.43570 0.64130 -0.06800
C 	C 	0.40680 0.49910 0.63170 -0.04400
C 	C 	0.37660 0.51700 0.57130 -0.00400
C 	C 	0.37560 0.47140 0.52050 -0.06300
C 	C 	0.25390 0.32730 0.56340 0.01500
C 	C 	0.53980 0.31410 0.56660 -0.00600
C 	C 	0.21340 0.29950 0.62080 -0.02100
C 	C 	0.53570 0.24520 0.54180 -0.00300
C 	C 	0.23090 0.27190 0.73300 -0.02600
C 	C 	0.57420 0.17600 0.63060 -0.02000
C 	C 	0.29170 0.26870 0.78330 -0.00000
C 	C 	0.54200 0.13840 0.68600 -0.00800
C 	C 	0.41870 0.22510 0.81210 -0.03500
C 	C 	0.47290 0.17560 0.78610 0.02500
C 	C 	0.99520 0.12450 0.67790 -0.11700
C 	C 	0.98630 0.18870 0.70120 0.07900
C 	C 	0.01440 0.20540 0.76260 -0.16000
C 	C 	0.05150 0.15800 0.80070 0.07200
C 	C 	0.06040 0.09390 0.77740 -0.12500
C 	C 	0.03230 0.07710 0.71600 0.02500
C 	C 	0.96630 0.10660 0.61630 0.31500
C 	C 	0.27040 0.42590 0.96970 -0.16800
C 	C 	0.30830 0.36580 0.97910 0.08400
C 	C 	0.26850 0.30670 0.96820 -0.16200
C 	C 	0.19090 0.30770 0.94790 0.12900
C 	C 	0.15300 0.36780 0.93840 -0.17200
C 	C 	0.19270 0.42680 0.94930 0.09200
C 	C 	0.31050 0.48340 0.98380 0.34100
C 	C 	0.98590 0.10240 0.33390 -0.10700
C 	C 	0.93480 0.11200 0.28200 0.02500
C 	C 	0.96010 0.10130 0.21850 -0.08000
C 	C 	0.03650 0.08090 0.20690 0.03500
C 	C 	0.08760 0.07130 0.25870 -0.09900
C 	C 	0.06230 0.08210 0.32220 0.00900
C 	C 	0.23500 0.72470 0.03570 0.23600
C 	C 	0.20810 0.78850 0.04480 -0.07600
C 	C 	0.15290 0.80120 0.09300 -0.00200
C 	C 	0.12490 0.86510 0.10200 -0.07400
C 	C 	0.15220 0.91640 0.06280 0.00300
C 	C 	0.20750 0.90370 0.01470 -0.09400
C 	C 	0.23540 0.83980 0.00570 -0.02300
C 	C 	0.96170 0.10960 0.39800 0.32200
C 	C 	0.10550 0.13990 0.97630 -0.03300
C 	C 	0.07310 0.12670 0.91550 -0.05100
C 	C 	0.07880 0.17340 0.86590 -0.02400
C 	C 	0.11700 0.23310 0.87710 -0.02500
C 	C 	0.14930 0.24630 0.93790 -0.09000
C 	C 	0.14360 0.19960 0.98750 0.15000
C 	C 	0.09530 0.09200 0.03010 0.01700
C 	C 	0.06500 0.10990 0.09050 0.08000
C 	C 	0.06400 0.06430 0.14130 -0.00100
C 	C 	0.09320 0.00090 0.13170 -0.16700
C 	C 	0.12340 0.98300 0.07130 0.10200
C 	C 	0.12440 0.02860 0.02050 -0.17400
C 	C 	0.24610 0.17270 0.06340 0.02600
C 	C 	0.96020 0.18590 0.06660 0.01400
C 	C 	0.28660 0.20050 0.12080 -0.02800
C 	C 	0.96430 0.25480 0.04180 -0.01200
C 	C 	0.26910 0.22810 0.23300 -0.02900
C 	C 	0.92580 0.32400 0.13060 -0.02600
C 	C 	0.20830 0.23130 0.28330 0.00400
C 	C 	0.95800 0.36160 0.18600 0.00700
C 	C 	0.08130 0.27490 0.31210 -0.00900
C 	C 	0.02710 0.32440 0.28610 -0.01900
C 	C 	0.49520 0.62450 0.82210 -0.12900
C 	C 	0.48630 0.68870 0.79880 0.05100
C 	C 	0.51440 0.70540 0.73740 -0.12600
C 	C 	0.55150 0.65800 0.69930 0.06300
C 	C 	0.56040 0.59390 0.72260 -0.12300
C 	C 	0.53230 0.57710 0.78400 0.04900
C 	C 	0.46630 0.60660 0.88370 0.31700
C 	C 	0.77040 0.92590 0.53030 -0.16100
C 	C 	0.80830 0.86580 0.52090 0.07500
C 	C 	0.76850 0.80670 0.53180 -0.15500
C 	C 	0.69090 0.80770 0.55210 0.11700
C 	C 	0.65300 0.86780 0.56160 -0.16400
C 	C 	0.69270 0.92680 0.55070 0.08600
C 	C 	0.81050 0.98340 0.51620 0.33500
C 	C 	0.48590 0.60240 0.16610 -0.16500
C 	C 	0.43480 0.61200 0.21800 0.08300
C 	C 	0.46010 0.60130 0.28150 -0.15900
C 	C 	0.53650 0.58090 0.29310 0.11700
C 	C 	0.58760 0.57130 0.24130 -0.16000
C 	C 	0.56230 0.58210 0.17780 0.08300
C 	C 	0.73500 0.22470 0.46430 0.27000
C 	C 	0.70810 0.28850 0.45520 -0.11300
C 	C 	0.65290 0.30120 0.40700 0.03700
C 	C 	0.62490 0.36510 0.39800 -0.11600
C 	C 	0.65220 0.41640 0.43720 0.05900
C 	C 	0.70750 0.40370 0.48530 -0.11500
C 	C 	0.73540 0.33980 0.49430 0.03600
C 	C 	0.46170 0.60960 0.10200 0.32700
C 	C 	0.60550 0.63990 0.52370 -0.02000
C 	C 	0.57310 0.62670 0.58450 -0.06300
C 	C 	0.57880 0.67340 0.63410 -0.00900
C 	C 	0.61700 0.73310 0.62290 -0.03700
C 	C 	0.64930 0.74630 0.56210 -0.07600
C 	C 	0.64360 0.69960 0.51250 0.12300
C 	C 	0.59530 0.59200 0.46990 -0.01800
C 	C 	0.56500 0.60990 0.40950 0.12200
C 	C 	0.56400 0.56430 0.35870 -0.06900
C 	C 	0.59320 0.50090 0.36830 -0.04300
C 	C 	0.62340 0.48300 0.42870 -0.00400
C 	C 	0.62440 0.52860 0.47950 -0.06300
C 	C 	0.74610 0.67270 0.43660 0.01600
C 	C 	0.46020 0.68590 0.43340 -0.00500
C 	C 	0.78660 0.70050 0.37920 -0.02500
C 	C 	0.46430 0.75480 0.45820 -0.00500
C 	C 	0.76910 0.72810 0.26700 -0.03000
C 	C 	0.42580 0.82400 0.36940 -0.01800
C 	C 	0.70830 0.73130 0.21670 0.00200
C 	C 	0.45800 0.86160 0.31400 -0.01200
C 	C 	0.58130 0.77490 0.18790 -0.03200
C 	C 	0.52710 0.82440 0.21390 0.02200
C 	C 	0.00480 0.87550 0.32210 -0.14200
C 	C 	0.01370 0.81130 0.29880 0.02600
C 	C 	0.98560 0.79460 0.23740 -0.09700
C 	C 	0.94850 0.84200 0.19930 0.05500
C 	C 	0.93960 0.90610 0.22260 -0.12200
C 	C 	0.96770 0.92290 0.28400 0.06900
C 	C 	0.03370 0.89340 0.38370 0.31700
C 	C 	0.72960 0.57410 0.03030 -0.14500
C 	C 	0.69170 0.63420 0.02090 0.05800
C 	C 	0.73150 0.69330 0.03180 -0.14400
C 	C 	0.80910 0.69230 0.05210 0.10100
C 	C 	0.84700 0.63220 0.06160 -0.15300
C 	C 	0.80730 0.57320 0.05070 0.06900
C 	C 	0.68950 0.51660 0.01620 0.29700
C 	C 	0.01410 0.89760 0.66610 -0.21700
C 	C 	0.06520 0.88800 0.71800 0.13700
C 	C 	0.03990 0.89870 0.78150 -0.23400
C 	C 	0.96350 0.91910 0.79310 0.19500
C 	C 	0.91240 0.92870 0.74130 -0.21700
C 	C 	0.93770 0.91790 0.67780 0.15200
C 	C 	0.76500 0.27530 0.96430 0.30400
C 	C 	0.79190 0.21150 0.95520 -0.14900
C 	C 	0.84710 0.19880 0.90700 0.07400
C 	C 	0.87510 0.13490 0.89800 -0.15500
C 	C 	0.84780 0.08360 0.93720 0.11000
C 	C 	0.79250 0.09630 0.98530 -0.13200
C 	C 	0.76460 0.16020 0.99430 0.09500
C 	C 	0.03830 0.89040 0.60200 0.32800
C 	C 	0.89450 0.86010 0.02370 -0.01000
C 	C 	0.92690 0.87330 0.08450 -0.07400
C 	C 	0.92120 0.82660 0.13410 0.00300
C 	C 	0.88300 0.76690 0.12290 -0.04900
C 	C 	0.85070 0.75370 0.06210 -0.06000
C 	C 	0.85640 0.80040 0.01250 0.09400
C 	C 	0.90470 0.90800 0.96990 -0.04900
C 	C 	0.93500 0.89010 0.90950 0.16000
C 	C 	0.93600 0.93570 0.85870 -0.13200
C 	C 	0.90680 0.99910 0.86830 0.07200
C 	C 	0.87660 0.01700 0.92870 -0.10300
C 	C 	0.87560 0.97140 0.97950 0.04600
C 	C 	0.75390 0.82730 0.93660 0.00400
C 	C 	0.03980 0.81410 0.93340 -0.02800
C 	C 	0.71340 0.79950 0.87920 -0.01900
C 	C 	0.03570 0.74520 0.95820 0.00500
C 	C 	0.73090 0.77190 0.76700 -0.02700
C 	C 	0.07420 0.67600 0.86940 -0.01100
C 	C 	0.79170 0.76870 0.71670 -0.00200
C 	C 	0.04200 0.63840 0.81400 -0.02800
C 	C 	0.91870 0.72510 0.68790 -0.05800
C 	C 	0.97290 0.67560 0.71390 0.06700
O 	O 	0.51850 0.45290 0.08740 -0.40400
O 	O 	0.58390 0.35500 0.08170 -0.42100
O 	O 	0.11920 0.01020 0.51520 -0.42500
O 	O 	0.21540 0.95480 0.46930 -0.38900
O 	O 	0.20860 0.79090 0.49200 -0.40000
O 	O 	0.29090 0.83070 0.56740 -0.24400
O 	O 	0.49850 0.40830 0.95240 -0.40200
O 	O 	0.60990 0.37070 0.91650 -0.41000
O 	O 	0.31950 0.28640 0.54600 -0.23800
O 	O 	0.46650 0.32800 0.60100 -0.23500
O 	O 	0.26960 0.29520 0.67290 -0.20500
O 	O 	0.50980 0.19790 0.58720 -0.21200
O 	O 	0.35580 0.22800 0.76370 -0.20500
O 	O 	0.48720 0.18350 0.71880 -0.21700
O 	O 	0.98150 0.04710 0.58740 -0.39600
O 	O 	0.91610 0.14500 0.58170 -0.41500
O 	O 	0.38080 0.48980 0.01520 -0.43800
O 	O 	0.28460 0.54520 0.96930 -0.40400
O 	O 	0.29140 0.70910 0.99200 -0.37900
O 	O 	0.20910 0.66930 0.06740 -0.24900
O 	O 	0.00150 0.09170 0.45240 -0.42700
O 	O 	0.89010 0.12930 0.41650 -0.41600
O 	O 	0.18050 0.21360 0.04600 -0.25800
O 	O 	0.03350 0.17200 0.10100 -0.24100
O 	O 	0.23040 0.20480 0.17290 -0.20400
O 	O 	0.99020 0.30210 0.08720 -0.20400
O 	O 	0.14420 0.27200 0.26370 -0.21100
O 	O 	0.01280 0.31650 0.21880 -0.22400
O 	O 	0.48150 0.54710 0.91260 -0.39500
O 	O 	0.41610 0.64500 0.91830 -0.41300
O 	O 	0.88080 0.98980 0.48480 -0.40800
O 	O 	0.78460 0.04520 0.53070 -0.41900
O 	O 	0.79140 0.20910 0.50800 -0.39800
O 	O 	0.70910 0.16930 0.43260 -0.25000
O 	O 	0.50150 0.59170 0.04760 -0.41700
O 	O 	0.39010 0.62930 0.08350 -0.42500
O 	O 	0.68050 0.71360 0.45400 -0.23800
O 	O 	0.53350 0.67200 0.39900 -0.23500
O 	O 	0.73040 0.70480 0.32710 -0.20300
O 	O 	0.49020 0.80210 0.41280 -0.21000
O 	O 	0.64420 0.77200 0.23630 -0.20500
O 	O 	0.51280 0.81650 0.28120 -0.21500
O 	O 	0.01850 0.95290 0.41260 -0.40000
O 	O 	0.08390 0.85500 0.41830 -0.42000
O 	O 	0.61920 0.51020 0.98480 -0.39500
O 	O 	0.71540 0.45480 0.03070 -0.40500
O 	O 	0.70860 0.29090 0.00800 -0.42000
O 	O 	0.79090 0.33070 0.93260 -0.24500
O 	O 	0.99850 0.90830 0.54760 -0.39300
O 	O 	0.10990 0.87070 0.58350 -0.41900
O 	O 	0.81950 0.78640 0.95400 -0.21700
O 	O 	0.96650 0.82800 0.89900 -0.22600
O 	O 	0.76960 0.79520 0.82710 -0.20400
O 	O 	0.00980 0.69790 0.91280 -0.21900
O 	O 	0.85580 0.72800 0.73630 -0.20000
O 	O 	0.98720 0.68350 0.78120 -0.20800
