data_crystal

_cell_length_a 5.47330
_cell_length_b 11.73040
_cell_length_c 13.45800
_cell_angle_alpha 90.00000
_cell_angle_beta  90.00000
_cell_angle_gamma 101.16600

_symmetry_space_group_name_	'P 1'
_symmetry_space_group_name_H-M	'P 1'

loop_
_symmetry_equiv_pos_as_xyz
  x,y,z

loop_
_atom_site_label
_atom_site_type_symbol
_atom_site_fract_x
_atom_site_fract_y
_atom_site_fract_z
_atom_site_charge
Li	Li	0.92250 0.73970 0.01620 0.55300
Li	Li	0.55790 0.76040 0.15560 0.55500
Li	Li	0.07750 0.26030 0.51620 0.55600
Li	Li	0.44210 0.23960 0.65560 0.55700
H 	H 	0.39170 0.94850 0.34220 0.05700
H 	H 	0.38040 0.09790 0.45180 0.01400
H 	H 	0.79440 0.17120 0.32200 0.01900
H 	H 	0.78390 0.02270 0.20900 0.05200
H 	H 	0.90430 0.45260 0.32790 0.05600
H 	H 	0.87660 0.59650 0.21620 0.01500
H 	H 	0.29710 0.52130 0.46520 0.05700
H 	H 	0.29730 0.66940 0.35210 0.02300
H 	H 	0.60830 0.05150 0.84220 0.05900
H 	H 	0.61960 0.90210 0.95180 0.01900
H 	H 	0.20560 0.82880 0.82200 0.02100
H 	H 	0.21610 0.97730 0.70900 0.05600
H 	H 	0.09570 0.54740 0.82790 0.05500
H 	H 	0.12340 0.40350 0.71620 0.01800
H 	H 	0.70290 0.47870 0.96520 0.06100
H 	H 	0.70270 0.33060 0.85210 0.02500
C 	C 	0.09890 0.87020 0.18920 0.37000
C 	C 	0.08710 0.96720 0.26320 -0.06300
C 	C 	0.26720 0.99200 0.33690 -0.05400
C 	C 	0.25930 0.08250 0.40250 0.03400
C 	C 	0.91470 0.12520 0.32630 0.03500
C 	C 	0.90690 0.03610 0.25760 -0.05500
C 	C 	0.62370 0.37520 0.48470 0.37100
C 	C 	0.60240 0.46910 0.40960 -0.06100
C 	C 	0.77710 0.49450 0.33380 -0.05300
C 	C 	0.76040 0.58210 0.26740 0.03400
C 	C 	0.41810 0.53560 0.41590 -0.05500
C 	C 	0.41880 0.62420 0.34660 0.03300
C 	C 	0.90110 0.12980 0.68920 0.37200
C 	C 	0.91290 0.03280 0.76320 -0.05900
C 	C 	0.73280 0.00800 0.83690 -0.05400
C 	C 	0.74070 0.91750 0.90250 0.03800
C 	C 	0.08530 0.87480 0.82630 0.03600
C 	C 	0.09310 0.96390 0.75760 -0.05600
C 	C 	0.37630 0.62480 0.98470 0.39900
C 	C 	0.39760 0.53090 0.90960 -0.06700
C 	C 	0.22290 0.50550 0.83380 -0.04700
C 	C 	0.23960 0.41790 0.76740 0.03300
C 	C 	0.58190 0.46440 0.91590 -0.04800
C 	C 	0.58120 0.37580 0.84660 0.03300
N 	N 	0.08580 0.14860 0.39835 -0.16700
N 	N 	0.58510 0.64780 0.27255 -0.16300
N 	N 	0.91420 0.85140 0.89835 -0.16200
N 	N 	0.41490 0.35220 0.77255 -0.16200
O 	O 	0.90940 0.83526 0.13615 -0.43400
O 	O 	0.29660 0.83392 0.18627 -0.39200
O 	O 	0.43220 0.33501 0.53543 -0.42700
O 	O 	0.82830 0.34610 0.49073 -0.38500
O 	O 	0.09060 0.16474 0.63615 -0.42900
O 	O 	0.70340 0.16608 0.68627 -0.38800
O 	O 	0.56780 0.66499 0.03543 -0.45200
O 	O 	0.17170 0.65390 0.99073 -0.38300
