data_crystal

_cell_length_a 14.53200
_cell_length_b 18.18400
_cell_length_c 25.03700
_cell_angle_alpha 90.00000
_cell_angle_beta  90.00000
_cell_angle_gamma 90.00000

_symmetry_space_group_name_	'P 1'
_symmetry_space_group_name_H-M	'P 1'

loop_
_symmetry_equiv_pos_as_xyz
  x,y,z

loop_
_atom_site_label
_atom_site_type_symbol
_atom_site_fract_x
_atom_site_fract_y
_atom_site_fract_z
_atom_site_charge
Zn	Zn	0.53536 0.94315 0.64808 1.22900
Zn	Zn	0.46464 0.55685 0.64808 1.22900
Zn	Zn	0.03536 0.55685 0.14808 1.22900
Zn	Zn	0.96464 0.94315 0.14808 1.22600
Zn	Zn	0.50000 0.75000 0.64837 1.28700
Zn	Zn	1.00000 0.75000 0.14837 1.28600
H 	H 	0.47880 0.06600 0.57460 0.00300
H 	H 	0.46280 0.19150 0.57350 0.07800
H 	H 	0.55400 0.19840 0.72360 0.08200
H 	H 	0.56950 0.07220 0.72110 -0.01000
H 	H 	0.63090 0.52150 0.50870 0.03100
H 	H 	0.71540 0.52460 0.43060 0.04900
H 	H 	0.73100 0.74420 0.43970 0.04900
H 	H 	0.64660 0.74230 0.51810 0.03400
H 	H 	0.82180 0.53150 0.37590 0.14300
H 	H 	0.76540 0.73790 0.35640 0.13700
H 	H 	0.83940 0.91740 0.67160 0.00200
H 	H 	0.98420 0.87010 0.67490 0.07900
H 	H 	0.88650 0.66970 0.65110 0.07800
H 	H 	0.73940 0.71760 0.64340 0.01200
H 	H 	0.90090 0.53110 0.29740 -0.05200
H 	H 	0.85950 0.73880 0.28270 -0.04700
H 	H 	0.52120 0.43400 0.57460 0.00300
H 	H 	0.53720 0.30850 0.57350 0.07800
H 	H 	0.44600 0.30160 0.72360 0.08200
H 	H 	0.43050 0.42780 0.72110 -0.01000
H 	H 	0.36910 0.97850 0.50870 0.03100
H 	H 	0.28460 0.97540 0.43060 0.05000
H 	H 	0.26900 0.75580 0.43970 0.05000
H 	H 	0.35340 0.75770 0.51810 0.03400
H 	H 	0.17820 0.96850 0.37590 0.14300
H 	H 	0.23460 0.76210 0.35640 0.13700
H 	H 	0.16060 0.58260 0.67160 0.00100
H 	H 	0.01580 0.62990 0.67490 0.08400
H 	H 	0.11350 0.83030 0.65110 0.08200
H 	H 	0.26060 0.78240 0.64340 0.01000
H 	H 	0.09910 0.96890 0.29740 -0.05000
H 	H 	0.14050 0.76120 0.28270 -0.04600
H 	H 	0.97880 0.43400 0.07460 0.00400
H 	H 	0.96280 0.30850 0.07350 0.07700
H 	H 	0.05400 0.30160 0.22360 0.08000
H 	H 	0.06950 0.42780 0.22110 -0.00900
H 	H 	0.13090 0.97850 0.00870 0.03400
H 	H 	0.21540 0.97540 0.93060 0.04800
H 	H 	0.23100 0.75580 0.93970 0.04900
H 	H 	0.14660 0.75770 0.01810 0.03500
H 	H 	0.32180 0.96850 0.87590 0.14400
H 	H 	0.26540 0.76210 0.85640 0.13800
H 	H 	0.33940 0.58260 0.17160 0.00200
H 	H 	0.48420 0.62990 0.17490 0.08200
H 	H 	0.38650 0.83030 0.15110 0.08000
H 	H 	0.23940 0.78240 0.14340 0.01100
H 	H 	0.40090 0.96890 0.79740 -0.05200
H 	H 	0.35950 0.76120 0.78270 -0.04700
H 	H 	0.02120 0.06600 0.07460 0.00200
H 	H 	0.03720 0.19150 0.07350 0.08000
H 	H 	0.94600 0.19840 0.22360 0.08300
H 	H 	0.93050 0.07220 0.22110 -0.01000
H 	H 	0.86910 0.52150 0.00870 0.02800
H 	H 	0.78460 0.52460 0.93060 0.05000
H 	H 	0.76900 0.74420 0.93970 0.04900
H 	H 	0.85340 0.74230 0.01810 0.03300
H 	H 	0.67820 0.53150 0.87590 0.14300
H 	H 	0.73460 0.73790 0.85640 0.13700
H 	H 	0.66060 0.91740 0.17160 0.00100
H 	H 	0.51580 0.87010 0.17490 0.08300
H 	H 	0.61350 0.66970 0.15110 0.08000
H 	H 	0.76060 0.71760 0.14340 0.01100
H 	H 	0.59910 0.53110 0.79740 -0.05200
H 	H 	0.64050 0.73880 0.78270 -0.04600
C 	C 	0.49410 0.09290 0.60490 0.07400
C 	C 	0.48400 0.16830 0.60430 -0.13300
C 	C 	0.50490 0.20950 0.64860 0.05800
C 	C 	0.53800 0.17260 0.69290 -0.13900
C 	C 	0.54720 0.09660 0.69110 0.08700
C 	C 	0.62680 0.63240 0.52010 -0.13500
C 	C 	0.65000 0.56630 0.49460 0.02700
C 	C 	0.70170 0.56830 0.44820 -0.07100
C 	C 	0.73350 0.63480 0.42720 -0.03400
C 	C 	0.71100 0.69950 0.45360 -0.06500
C 	C 	0.65930 0.69860 0.50030 0.02800
C 	C 	0.78800 0.63550 0.37710 0.21800
C 	C 	0.82720 0.57540 0.35710 -0.31400
C 	C 	0.79610 0.69510 0.34670 -0.30700
C 	C 	0.67820 0.85340 0.65120 0.51700
C 	C 	0.77380 0.82280 0.65570 -0.20300
C 	C 	0.84830 0.86730 0.66610 0.10600
C 	C 	0.93500 0.83870 0.66830 -0.15300
C 	C 	0.95200 0.76510 0.66110 0.05900
C 	C 	0.87770 0.72030 0.65370 -0.14500
C 	C 	0.78880 0.74890 0.64990 0.09900
C 	C 	0.93690 0.63240 0.22920 0.59800
C 	C 	0.88760 0.63430 0.28060 -0.36800
C 	C 	0.87580 0.57520 0.30940 0.28100
C 	C 	0.84980 0.69460 0.30040 0.26900
C 	C 	0.56750 0.63170 0.56900 0.46700
C 	C 	0.50590 0.40710 0.60490 0.07500
C 	C 	0.51600 0.33170 0.60430 -0.13300
C 	C 	0.49510 0.29050 0.64860 0.05800
C 	C 	0.46200 0.32740 0.69290 -0.13900
C 	C 	0.45280 0.40340 0.69110 0.08700
C 	C 	0.37320 0.86760 0.52010 -0.13600
C 	C 	0.35000 0.93370 0.49460 0.02800
C 	C 	0.29830 0.93170 0.44820 -0.07100
C 	C 	0.26650 0.86520 0.42720 -0.03200
C 	C 	0.28900 0.80050 0.45360 -0.06600
C 	C 	0.34070 0.80140 0.50030 0.02800
C 	C 	0.21200 0.86450 0.37710 0.21600
C 	C 	0.17280 0.92460 0.35710 -0.31200
C 	C 	0.20390 0.80490 0.34670 -0.30400
C 	C 	0.32180 0.64660 0.65120 0.51900
C 	C 	0.22620 0.67720 0.65570 -0.20700
C 	C 	0.15170 0.63270 0.66610 0.11300
C 	C 	0.06500 0.66130 0.66830 -0.16000
C 	C 	0.04800 0.73490 0.66110 0.07100
C 	C 	0.12230 0.77970 0.65370 -0.15300
C 	C 	0.21120 0.75110 0.64990 0.10500
C 	C 	0.06310 0.86760 0.22920 0.59700
C 	C 	0.11240 0.86570 0.28060 -0.36400
C 	C 	0.12420 0.92480 0.30940 0.27800
C 	C 	0.15020 0.80540 0.30040 0.26700
C 	C 	0.43250 0.86830 0.56900 0.46800
C 	C 	0.99410 0.40710 0.10490 0.07200
C 	C 	0.98400 0.33170 0.10430 -0.12700
C 	C 	0.00490 0.29050 0.14860 0.05200
C 	C 	0.03800 0.32740 0.19290 -0.13500
C 	C 	0.04720 0.40340 0.19110 0.08500
C 	C 	0.12680 0.86760 0.02010 -0.13100
C 	C 	0.15000 0.93370 0.99460 0.02200
C 	C 	0.20170 0.93170 0.94820 -0.06700
C 	C 	0.23350 0.86520 0.92720 -0.03500
C 	C 	0.21100 0.80050 0.95360 -0.06500
C 	C 	0.15930 0.80140 0.00030 0.02700
C 	C 	0.28800 0.86450 0.87710 0.21900
C 	C 	0.32720 0.92460 0.85710 -0.31500
C 	C 	0.29610 0.80490 0.84670 -0.30700
C 	C 	0.17820 0.64660 0.15120 0.51700
C 	C 	0.27380 0.67720 0.15570 -0.20400
C 	C 	0.34830 0.63270 0.16610 0.10900
C 	C 	0.43500 0.66130 0.16830 -0.15600
C 	C 	0.45200 0.73490 0.16110 0.06400
C 	C 	0.37770 0.77970 0.15370 -0.14800
C 	C 	0.28880 0.75110 0.14990 0.10200
C 	C 	0.43690 0.86760 0.72920 0.59800
C 	C 	0.38760 0.86570 0.78060 -0.36700
C 	C 	0.37580 0.92480 0.80940 0.28100
C 	C 	0.34980 0.80540 0.80040 0.27000
C 	C 	0.06750 0.86830 0.06900 0.46600
C 	C 	0.00590 0.09290 0.10490 0.07300
C 	C 	0.01600 0.16830 0.10430 -0.13800
C 	C 	0.99510 0.20950 0.14860 0.06500
C 	C 	0.96200 0.17260 0.19290 -0.14200
C 	C 	0.95280 0.09660 0.19110 0.08900
C 	C 	0.87320 0.63240 0.02010 -0.13900
C 	C 	0.85000 0.56630 0.99460 0.03300
C 	C 	0.79830 0.56830 0.94820 -0.07400
C 	C 	0.76650 0.63480 0.92720 -0.03200
C 	C 	0.78900 0.69950 0.95360 -0.06600
C 	C 	0.84070 0.69860 0.00030 0.02800
C 	C 	0.71200 0.63550 0.87710 0.21600
C 	C 	0.67280 0.57540 0.85710 -0.31200
C 	C 	0.70390 0.69510 0.84670 -0.30500
C 	C 	0.82180 0.85340 0.15120 0.51800
C 	C 	0.72620 0.82280 0.15570 -0.20600
C 	C 	0.65170 0.86730 0.16610 0.11000
C 	C 	0.56500 0.83870 0.16830 -0.15700
C 	C 	0.54800 0.76510 0.16110 0.06500
C 	C 	0.62230 0.72030 0.15370 -0.14900
C 	C 	0.71120 0.74890 0.14990 0.10300
C 	C 	0.56310 0.63240 0.72920 0.59800
C 	C 	0.61240 0.63430 0.78060 -0.36600
C 	C 	0.62420 0.57520 0.80940 0.27900
C 	C 	0.65020 0.69460 0.80040 0.26800
C 	C 	0.93250 0.63170 0.06900 0.46900
N 	N 	0.52520 0.05720 0.64819 -0.24800
N 	N 	0.47480 0.44280 0.64819 -0.24800
N 	N 	0.02520 0.44280 0.14819 -0.24700
N 	N 	0.97480 0.05720 0.14819 -0.24700
O 	O 	0.66640 0.92060 0.65290 -0.51500
O 	O 	0.97000 0.57400 0.21437 -0.54800
O 	O 	0.53270 0.57220 0.58261 -0.51000
O 	O 	0.55600 0.68880 0.59220 -0.48700
O 	O 	0.61520 0.81460 0.64530 -0.53500
O 	O 	0.94460 0.68760 0.20420 -0.53400
O 	O 	0.33360 0.57940 0.65290 -0.51500
O 	O 	0.03000 0.92600 0.21437 -0.54400
O 	O 	0.46730 0.92780 0.58261 -0.51000
O 	O 	0.44400 0.81120 0.59220 -0.48700
O 	O 	0.38480 0.68540 0.64530 -0.53500
O 	O 	0.05540 0.81240 0.20420 -0.53100
O 	O 	0.16640 0.57940 0.15290 -0.51400
O 	O 	0.47000 0.92600 0.71437 -0.54700
O 	O 	0.03270 0.92780 0.08261 -0.50700
O 	O 	0.05600 0.81120 0.09220 -0.48400
O 	O 	0.11520 0.68540 0.14530 -0.53400
O 	O 	0.44460 0.81240 0.70420 -0.53300
O 	O 	0.83360 0.92060 0.15290 -0.51700
O 	O 	0.53000 0.57400 0.71437 -0.54700
O 	O 	0.96730 0.57220 0.08261 -0.51100
O 	O 	0.94400 0.68880 0.09220 -0.48800
O 	O 	0.88480 0.81460 0.14530 -0.53600
O 	O 	0.55540 0.68760 0.70420 -0.53300
Zn	Zn	0.96464 0.44315 0.85192 1.23000
Zn	Zn	0.03536 0.05685 0.85192 1.22700
Zn	Zn	0.46464 0.05685 0.35192 1.23000
Zn	Zn	0.53536 0.44315 0.35192 1.23000
Zn	Zn	-0.00000 0.25000 0.85163 1.28600
Zn	Zn	0.50000 0.25000 0.35163 1.28700
H 	H 	0.02120 0.56600 0.92540 0.00400
H 	H 	0.03720 0.69150 0.92650 0.07700
H 	H 	0.94600 0.69840 0.77640 0.08000
H 	H 	0.93050 0.57220 0.77890 -0.00900
H 	H 	0.86910 0.02150 0.99130 0.03400
H 	H 	0.78460 0.02460 0.06940 0.04800
H 	H 	0.76900 0.24420 0.06030 0.04900
H 	H 	0.85340 0.24230 0.98190 0.03500
H 	H 	0.67820 0.03150 0.12410 0.14400
H 	H 	0.73460 0.23790 0.14360 0.13800
H 	H 	0.66060 0.41740 0.82840 0.00200
H 	H 	0.51580 0.37010 0.82510 0.08200
H 	H 	0.61350 0.16970 0.84890 0.08000
H 	H 	0.76060 0.21760 0.85660 0.01100
H 	H 	0.59910 0.03110 0.20260 -0.05200
H 	H 	0.64050 0.23880 0.21730 -0.04700
H 	H 	0.97880 0.93400 0.92540 0.00200
H 	H 	0.96280 0.80850 0.92650 0.08000
H 	H 	0.05400 0.80160 0.77640 0.08300
H 	H 	0.06950 0.92780 0.77890 -0.01000
H 	H 	0.13090 0.47850 0.99130 0.02800
H 	H 	0.21540 0.47540 0.06940 0.05000
H 	H 	0.23100 0.25580 0.06030 0.04900
H 	H 	0.14660 0.25770 0.98190 0.03300
H 	H 	0.32180 0.46850 0.12410 0.14300
H 	H 	0.26540 0.26210 0.14360 0.13700
H 	H 	0.33940 0.08260 0.82840 0.00100
H 	H 	0.48420 0.12990 0.82510 0.08300
H 	H 	0.38650 0.33030 0.84890 0.08000
H 	H 	0.23940 0.28240 0.85660 0.01100
H 	H 	0.40090 0.46890 0.20260 -0.05200
H 	H 	0.35950 0.26120 0.21730 -0.04600
H 	H 	0.52120 0.93400 0.42540 0.00300
H 	H 	0.53720 0.80850 0.42650 0.07800
H 	H 	0.44600 0.80160 0.27640 0.08200
H 	H 	0.43050 0.92780 0.27890 -0.01000
H 	H 	0.36910 0.47850 0.49130 0.03100
H 	H 	0.28460 0.47540 0.56940 0.04900
H 	H 	0.26900 0.25580 0.56030 0.04900
H 	H 	0.35340 0.25770 0.48190 0.03400
H 	H 	0.17820 0.46850 0.62410 0.14300
H 	H 	0.23460 0.26210 0.64360 0.13700
H 	H 	0.16060 0.08260 0.32840 0.00200
H 	H 	0.01580 0.12990 0.32510 0.07900
H 	H 	0.11350 0.33030 0.34890 0.07800
H 	H 	0.26060 0.28240 0.35660 0.01200
H 	H 	0.09910 0.46890 0.70260 -0.05200
H 	H 	0.14050 0.26120 0.71730 -0.04700
H 	H 	0.47880 0.56600 0.42540 0.00300
H 	H 	0.46280 0.69150 0.42650 0.07800
H 	H 	0.55400 0.69840 0.27640 0.08200
H 	H 	0.56950 0.57220 0.27890 -0.01000
H 	H 	0.63090 0.02150 0.49130 0.03100
H 	H 	0.71540 0.02460 0.56940 0.05000
H 	H 	0.73100 0.24420 0.56030 0.05000
H 	H 	0.64660 0.24230 0.48190 0.03400
H 	H 	0.82180 0.03150 0.62410 0.14300
H 	H 	0.76540 0.23790 0.64360 0.13700
H 	H 	0.83940 0.41740 0.32840 0.00100
H 	H 	0.98420 0.37010 0.32510 0.08400
H 	H 	0.88650 0.16970 0.34890 0.08200
H 	H 	0.73940 0.21760 0.35660 0.01000
H 	H 	0.90090 0.03110 0.70260 -0.05000
H 	H 	0.85950 0.23880 0.71730 -0.04600
C 	C 	0.00590 0.59290 0.89510 0.07200
C 	C 	0.01600 0.66830 0.89570 -0.12700
C 	C 	0.99510 0.70950 0.85140 0.05200
C 	C 	0.96200 0.67260 0.80710 -0.13500
C 	C 	0.95280 0.59660 0.80890 0.08500
C 	C 	0.87320 0.13240 0.97990 -0.13100
C 	C 	0.85000 0.06630 0.00540 0.02200
C 	C 	0.79830 0.06830 0.05180 -0.06700
C 	C 	0.76650 0.13480 0.07280 -0.03500
C 	C 	0.78900 0.19950 0.04640 -0.06500
C 	C 	0.84070 0.19860 0.99970 0.02700
C 	C 	0.71200 0.13550 0.12290 0.21900
C 	C 	0.67280 0.07540 0.14290 -0.31500
C 	C 	0.70390 0.19510 0.15330 -0.30700
C 	C 	0.82180 0.35340 0.84880 0.51700
C 	C 	0.72620 0.32280 0.84430 -0.20400
C 	C 	0.65170 0.36730 0.83390 0.10900
C 	C 	0.56500 0.33870 0.83170 -0.15600
C 	C 	0.54800 0.26510 0.83890 0.06400
C 	C 	0.62230 0.22030 0.84630 -0.14800
C 	C 	0.71120 0.24890 0.85010 0.10200
C 	C 	0.56310 0.13240 0.27080 0.59800
C 	C 	0.61240 0.13430 0.21940 -0.36700
C 	C 	0.62420 0.07520 0.19060 0.28100
C 	C 	0.65020 0.19460 0.19960 0.27000
C 	C 	0.93250 0.13170 0.93100 0.46600
C 	C 	0.99410 0.90710 0.89510 0.07300
C 	C 	0.98400 0.83170 0.89570 -0.13800
C 	C 	0.00490 0.79050 0.85140 0.06500
C 	C 	0.03800 0.82740 0.80710 -0.14200
C 	C 	0.04720 0.90340 0.80890 0.08900
C 	C 	0.12680 0.36760 0.97990 -0.13900
C 	C 	0.15000 0.43370 0.00540 0.03300
C 	C 	0.20170 0.43170 0.05180 -0.07400
C 	C 	0.23350 0.36520 0.07280 -0.03200
C 	C 	0.21100 0.30050 0.04640 -0.06600
C 	C 	0.15930 0.30140 0.99970 0.02800
C 	C 	0.28800 0.36450 0.12290 0.21600
C 	C 	0.32720 0.42460 0.14290 -0.31200
C 	C 	0.29610 0.30490 0.15330 -0.30500
C 	C 	0.17820 0.14660 0.84880 0.51800
C 	C 	0.27380 0.17720 0.84430 -0.20600
C 	C 	0.34830 0.13270 0.83390 0.11000
C 	C 	0.43500 0.16130 0.83170 -0.15700
C 	C 	0.45200 0.23490 0.83890 0.06500
C 	C 	0.37770 0.27970 0.84630 -0.14900
C 	C 	0.28880 0.25110 0.85010 0.10300
C 	C 	0.43690 0.36760 0.27080 0.59800
C 	C 	0.38760 0.36570 0.21940 -0.36600
C 	C 	0.37580 0.42480 0.19060 0.27900
C 	C 	0.34980 0.30540 0.19960 0.26800
C 	C 	0.06750 0.36830 0.93100 0.46900
C 	C 	0.50590 0.90710 0.39510 0.07400
C 	C 	0.51600 0.83170 0.39570 -0.13300
C 	C 	0.49510 0.79050 0.35140 0.05800
C 	C 	0.46200 0.82740 0.30710 -0.13900
C 	C 	0.45280 0.90340 0.30890 0.08700
C 	C 	0.37320 0.36760 0.47990 -0.13500
C 	C 	0.35000 0.43370 0.50540 0.02700
C 	C 	0.29830 0.43170 0.55180 -0.07100
C 	C 	0.26650 0.36520 0.57280 -0.03400
C 	C 	0.28900 0.30050 0.54640 -0.06500
C 	C 	0.34070 0.30140 0.49970 0.02800
C 	C 	0.21200 0.36450 0.62290 0.21800
C 	C 	0.17280 0.42460 0.64290 -0.31400
C 	C 	0.20390 0.30490 0.65330 -0.30700
C 	C 	0.32180 0.14660 0.34880 0.51700
C 	C 	0.22620 0.17720 0.34430 -0.20300
C 	C 	0.15170 0.13270 0.33390 0.10600
C 	C 	0.06500 0.16130 0.33170 -0.15300
C 	C 	0.04800 0.23490 0.33890 0.05900
C 	C 	0.12230 0.27970 0.34630 -0.14500
C 	C 	0.21120 0.25110 0.35010 0.09900
C 	C 	0.06310 0.36760 0.77080 0.59800
C 	C 	0.11240 0.36570 0.71940 -0.36800
C 	C 	0.12420 0.42480 0.69060 0.28100
C 	C 	0.15020 0.30540 0.69960 0.26900
C 	C 	0.43250 0.36830 0.43100 0.46700
C 	C 	0.49410 0.59290 0.39510 0.07500
C 	C 	0.48400 0.66830 0.39570 -0.13300
C 	C 	0.50490 0.70950 0.35140 0.05800
C 	C 	0.53800 0.67260 0.30710 -0.13900
C 	C 	0.54720 0.59660 0.30890 0.08700
C 	C 	0.62680 0.13240 0.47990 -0.13600
C 	C 	0.65000 0.06630 0.50540 0.02800
C 	C 	0.70170 0.06830 0.55180 -0.07100
C 	C 	0.73350 0.13480 0.57280 -0.03200
C 	C 	0.71100 0.19950 0.54640 -0.06600
C 	C 	0.65930 0.19860 0.49970 0.02800
C 	C 	0.78800 0.13550 0.62290 0.21600
C 	C 	0.82720 0.07540 0.64290 -0.31200
C 	C 	0.79610 0.19510 0.65330 -0.30400
C 	C 	0.67820 0.35340 0.34880 0.51900
C 	C 	0.77380 0.32280 0.34430 -0.20700
C 	C 	0.84830 0.36730 0.33390 0.11300
C 	C 	0.93500 0.33870 0.33170 -0.16000
C 	C 	0.95200 0.26510 0.33890 0.07100
C 	C 	0.87770 0.22030 0.34630 -0.15300
C 	C 	0.78880 0.24890 0.35010 0.10500
C 	C 	0.93690 0.13240 0.77080 0.59700
C 	C 	0.88760 0.13430 0.71940 -0.36400
C 	C 	0.87580 0.07520 0.69060 0.27800
C 	C 	0.84980 0.19460 0.69960 0.26700
C 	C 	0.56750 0.13170 0.43100 0.46800
N 	N 	0.97480 0.55720 0.85181 -0.24700
N 	N 	0.02520 0.94280 0.85181 -0.24700
N 	N 	0.47480 0.94280 0.35181 -0.24800
N 	N 	0.52520 0.55720 0.35181 -0.24800
O 	O 	0.83360 0.42060 0.84710 -0.51400
O 	O 	0.53000 0.07400 0.28563 -0.54700
O 	O 	0.96730 0.07220 0.91739 -0.50700
O 	O 	0.94400 0.18880 0.90780 -0.48400
O 	O 	0.88480 0.31460 0.85470 -0.53400
O 	O 	0.55540 0.18760 0.29580 -0.53300
O 	O 	0.16640 0.07940 0.84710 -0.51700
O 	O 	0.47000 0.42600 0.28563 -0.54700
O 	O 	0.03270 0.42780 0.91739 -0.51100
O 	O 	0.05600 0.31120 0.90780 -0.48800
O 	O 	0.11520 0.18540 0.85470 -0.53600
O 	O 	0.44460 0.31240 0.29580 -0.53300
O 	O 	0.33360 0.07940 0.34710 -0.51500
O 	O 	0.03000 0.42600 0.78563 -0.54800
O 	O 	0.46730 0.42780 0.41739 -0.51000
O 	O 	0.44400 0.31120 0.40780 -0.48700
O 	O 	0.38480 0.18540 0.35470 -0.53500
O 	O 	0.05540 0.31240 0.79580 -0.53400
O 	O 	0.66640 0.42060 0.34710 -0.51500
O 	O 	0.97000 0.07400 0.78563 -0.54400
O 	O 	0.53270 0.07220 0.41739 -0.51000
O 	O 	0.55600 0.18880 0.40780 -0.48700
O 	O 	0.61520 0.31460 0.35470 -0.53500
O 	O 	0.94460 0.18760 0.79580 -0.53100
