data_crystal

_cell_length_a 12.09950
_cell_length_b 14.00770
_cell_length_c 14.00770
_cell_angle_alpha 97.54620
_cell_angle_beta  100.08300
_cell_angle_gamma 79.91680

_symmetry_space_group_name_	'P 1'
_symmetry_space_group_name_H-M	'P 1'

loop_
_symmetry_equiv_pos_as_xyz
  x,y,z

loop_
_atom_site_label
_atom_site_type_symbol
_atom_site_fract_x
_atom_site_fract_y
_atom_site_fract_z
_atom_site_charge
Zn	Zn	0.10065 0.23015 0.81609 1.21000
Zn	Zn	0.39935 0.81609 0.23015 1.21000
Zn	Zn	0.89935 0.76985 0.18391 1.21000
Zn	Zn	0.60065 0.18391 0.76985 1.21000
H 	H 	0.03580 0.33810 0.15330 0.00100
H 	H 	0.94430 0.32330 0.28130 0.11900
H 	H 	0.68190 0.24100 0.09260 0.11700
H 	H 	0.87750 0.34450 0.76950 -0.00500
H 	H 	0.77370 0.43900 0.65540 0.10100
H 	H 	0.00400 0.34440 0.48200 0.09200
H 	H 	0.10840 0.25500 0.60400 -0.01400
H 	H 	0.83500 0.44030 0.41650 0.08400
H 	H 	0.83420 0.53090 0.49450 0.07400
H 	H 	0.34200 0.20730 0.91010 -0.02200
H 	H 	0.48610 0.29650 0.96110 0.10600
H 	H 	0.28160 0.52720 0.85920 0.11900
H 	H 	0.14060 0.43450 0.81450 -0.02700
H 	H 	0.48020 0.54110 0.91150 0.08600
H 	H 	0.56690 0.44630 0.93330 0.09000
H 	H 	0.46420 0.15330 0.33810 0.00200
H 	H 	0.55570 0.28130 0.32330 0.11800
H 	H 	0.81810 0.09260 0.24100 0.11800
H 	H 	0.62250 0.76950 0.34450 -0.00500
H 	H 	0.72630 0.65540 0.43900 0.10100
H 	H 	0.49600 0.48200 0.34440 0.09500
H 	H 	0.39160 0.60400 0.25500 -0.01500
H 	H 	0.66500 0.41650 0.44030 0.08500
H 	H 	0.66580 0.49450 0.53090 0.07500
H 	H 	0.15800 0.91010 0.20730 -0.02100
H 	H 	0.01390 0.96110 0.29650 0.10600
H 	H 	0.21840 0.85920 0.52720 0.11900
H 	H 	0.35940 0.81450 0.43450 -0.02700
H 	H 	0.01980 0.91150 0.54110 0.08500
H 	H 	0.93310 0.93330 0.44630 0.08700
H 	H 	0.96420 0.66190 0.84670 0.00100
H 	H 	0.05570 0.67670 0.71870 0.11900
H 	H 	0.31810 0.75900 0.90740 0.11700
H 	H 	0.12250 0.65550 0.23050 -0.00500
H 	H 	0.22630 0.56100 0.34460 0.10100
H 	H 	0.99600 0.65560 0.51800 0.09200
H 	H 	0.89160 0.74500 0.39600 -0.01400
H 	H 	0.16500 0.55970 0.58350 0.08400
H 	H 	0.16580 0.46910 0.50550 0.07400
H 	H 	0.65800 0.79270 0.08990 -0.02200
H 	H 	0.51390 0.70350 0.03890 0.10600
H 	H 	0.71840 0.47280 0.14080 0.11900
H 	H 	0.85940 0.56550 0.18550 -0.02700
H 	H 	0.51980 0.45890 0.08850 0.08600
H 	H 	0.43310 0.55370 0.06670 0.09000
H 	H 	0.53580 0.84670 0.66190 0.00200
H 	H 	0.44430 0.71870 0.67670 0.11800
H 	H 	0.18190 0.90740 0.75900 0.11800
H 	H 	0.37750 0.23050 0.65550 -0.00500
H 	H 	0.27370 0.34460 0.56100 0.10100
H 	H 	0.50400 0.51800 0.65560 0.09500
H 	H 	0.60840 0.39600 0.74500 -0.01500
H 	H 	0.33500 0.58350 0.55970 0.08500
H 	H 	0.33420 0.50550 0.46910 0.07500
H 	H 	0.84200 0.08990 0.79270 -0.02100
H 	H 	0.98610 0.03890 0.70350 0.10600
H 	H 	0.78160 0.14080 0.47280 0.11900
H 	H 	0.64060 0.18550 0.56550 -0.02700
H 	H 	0.98020 0.08850 0.45890 0.08500
H 	H 	0.06690 0.06670 0.55370 0.08700
C 	C 	0.80780 0.26874 0.02706 0.04900
C 	C 	0.91460 0.29620 0.04500 -0.12400
C 	C 	0.96510 0.31770 0.14070 0.10900
C 	C 	0.91020 0.30900 0.21740 -0.24100
C 	C 	0.80600 0.27917 0.19903 0.25300
C 	C 	0.75350 0.25998 0.10462 -0.20900
C 	C 	0.74180 0.26173 0.92647 0.29200
C 	C 	0.98160 0.30090 0.96530 0.36100
C 	C 	0.90540 0.34550 0.71190 0.11300
C 	C 	0.84190 0.40140 0.64280 -0.20200
C 	C 	0.87720 0.40280 0.55480 0.15500
C 	C 	0.97700 0.34690 0.54070 -0.20200
C 	C 	0.03960 0.29284 0.61476 0.10200
C 	C 	0.81180 0.46680 0.47880 -0.16900
C 	C 	0.32910 0.27290 0.90010 0.12700
C 	C 	0.41660 0.32590 0.92990 -0.23300
C 	C 	0.40110 0.42330 0.91330 0.17500
C 	C 	0.29620 0.46190 0.87050 -0.22500
C 	C 	0.21150 0.40560 0.84360 0.14100
C 	C 	0.49530 0.48430 0.94730 -0.18300
C 	C 	0.69220 0.02706 0.26874 0.05000
C 	C 	0.58540 0.04500 0.29620 -0.12300
C 	C 	0.53490 0.14070 0.31770 0.10700
C 	C 	0.58980 0.21740 0.30900 -0.24000
C 	C 	0.69400 0.19903 0.27917 0.25300
C 	C 	0.74650 0.10462 0.25998 -0.20900
C 	C 	0.75820 0.92647 0.26173 0.29100
C 	C 	0.51840 0.96530 0.30090 0.35900
C 	C 	0.59460 0.71190 0.34550 0.11300
C 	C 	0.65810 0.64280 0.40140 -0.20400
C 	C 	0.62280 0.55480 0.40280 0.15800
C 	C 	0.52300 0.54070 0.34690 -0.20700
C 	C 	0.46040 0.61476 0.29284 0.10500
C 	C 	0.68820 0.47880 0.46680 -0.17200
C 	C 	0.17090 0.90010 0.27290 0.12700
C 	C 	0.08340 0.92990 0.32590 -0.23200
C 	C 	0.09890 0.91330 0.42330 0.17400
C 	C 	0.20380 0.87050 0.46190 -0.22400
C 	C 	0.28850 0.84360 0.40560 0.14100
C 	C 	0.00470 0.94730 0.48430 -0.17900
C 	C 	0.19220 0.73126 0.97294 0.04900
C 	C 	0.08540 0.70380 0.95500 -0.12400
C 	C 	0.03490 0.68230 0.85930 0.10900
C 	C 	0.08980 0.69100 0.78260 -0.24100
C 	C 	0.19400 0.72083 0.80097 0.25300
C 	C 	0.24650 0.74002 0.89538 -0.20900
C 	C 	0.25820 0.73827 0.07353 0.29200
C 	C 	0.01840 0.69910 0.03470 0.36100
C 	C 	0.09460 0.65450 0.28810 0.11300
C 	C 	0.15810 0.59860 0.35720 -0.20200
C 	C 	0.12280 0.59720 0.44520 0.15500
C 	C 	0.02300 0.65310 0.45930 -0.20200
C 	C 	0.96040 0.70716 0.38524 0.10200
C 	C 	0.18820 0.53320 0.52120 -0.16900
C 	C 	0.67090 0.72710 0.09990 0.12700
C 	C 	0.58340 0.67410 0.07010 -0.23300
C 	C 	0.59890 0.57670 0.08670 0.17500
C 	C 	0.70380 0.53810 0.12950 -0.22500
C 	C 	0.78850 0.59440 0.15640 0.14100
C 	C 	0.50470 0.51570 0.05270 -0.18300
C 	C 	0.30780 0.97294 0.73126 0.05000
C 	C 	0.41460 0.95500 0.70380 -0.12300
C 	C 	0.46510 0.85930 0.68230 0.10700
C 	C 	0.41020 0.78260 0.69100 -0.24000
C 	C 	0.30600 0.80097 0.72083 0.25300
C 	C 	0.25350 0.89538 0.74002 -0.20900
C 	C 	0.24180 0.07353 0.73827 0.29100
C 	C 	0.48160 0.03470 0.69910 0.35900
C 	C 	0.40540 0.28810 0.65450 0.11300
C 	C 	0.34190 0.35720 0.59860 -0.20400
C 	C 	0.37720 0.44520 0.59720 0.15800
C 	C 	0.47700 0.45930 0.65310 -0.20700
C 	C 	0.53960 0.38524 0.70716 0.10500
C 	C 	0.31180 0.52120 0.53320 -0.17200
C 	C 	0.82910 0.09990 0.72710 0.12700
C 	C 	0.91660 0.07010 0.67410 -0.23200
C 	C 	0.90110 0.08670 0.57670 0.17400
C 	C 	0.79620 0.12950 0.53810 -0.22400
C 	C 	0.71150 0.15640 0.59440 0.14100
C 	C 	0.99530 0.05270 0.51570 -0.17900
N 	N 	0.00480 0.29292 0.70028 -0.28300
N 	N 	0.22640 0.31130 0.85734 -0.28700
N 	N 	0.49520 0.70028 0.29292 -0.28300
N 	N 	0.27360 0.85734 0.31130 -0.28700
N 	N 	0.99520 0.70708 0.29972 -0.28300
N 	N 	0.77360 0.68870 0.14266 -0.28700
N 	N 	0.50480 0.29972 0.70708 -0.28300
N 	N 	0.72640 0.14266 0.68870 -0.28700
O 	O 	0.67820 0.19534 0.90500 -0.43900
O 	O 	0.74820 0.31884 0.86998 -0.30400
O 	O 	0.99590 0.22475 0.90669 -0.45100
O 	O 	0.01650 0.37590 0.95790 -0.30700
O 	O 	0.82180 0.90500 0.19534 -0.44000
O 	O 	0.75180 0.86998 0.31884 -0.30500
O 	O 	0.50410 0.90669 0.22475 -0.45100
O 	O 	0.48350 0.95790 0.37590 -0.30500
O 	O 	0.32180 0.80466 0.09500 -0.43900
O 	O 	0.25180 0.68116 0.13002 -0.30400
O 	O 	0.00410 0.77525 0.09331 -0.45100
O 	O 	0.98350 0.62410 0.04210 -0.30700
O 	O 	0.17820 0.09500 0.80466 -0.44000
O 	O 	0.24820 0.13002 0.68116 -0.30500
O 	O 	0.49590 0.09331 0.77525 -0.45100
O 	O 	0.51650 0.04210 0.62410 -0.30500
O 	O 	0.75000 0.27810 0.27810 -0.29900
O 	O 	0.25000 0.72190 0.72190 -0.29900
