data_crystal

_cell_length_a 13.04780
_cell_length_b 15.06930
_cell_length_c 15.06930
_cell_angle_alpha 67.97260
_cell_angle_beta  73.22480
_cell_angle_gamma 106.77500

_symmetry_space_group_name_	'P 1'
_symmetry_space_group_name_H-M	'P 1'

loop_
_symmetry_equiv_pos_as_xyz
  x,y,z

loop_
_atom_site_label
_atom_site_type_symbol
_atom_site_fract_x
_atom_site_fract_y
_atom_site_fract_z
_atom_site_charge
Zn	Zn	0.96987 0.71449 0.80881 1.18700
Zn	Zn	0.77868 0.80881 0.47670 1.18900
Zn	Zn	0.25538 0.47670 0.71449 1.18800
Zn	Zn	0.03013 0.28551 0.19119 1.18600
Zn	Zn	0.22132 0.19119 0.52330 1.18800
Zn	Zn	0.74462 0.52330 0.28551 1.18800
H 	H 	0.26560 0.75290 0.72530 0.15700
H 	H 	0.30040 0.65820 0.75720 0.13400
H 	H 	0.15730 0.58160 0.93950 -0.03200
H 	H 	0.26310 0.69270 0.89760 -0.02900
H 	H 	0.15480 0.74200 0.00720 -0.02700
H 	H 	0.05620 0.62310 0.06530 -0.02600
H 	H 	0.97140 0.73350 0.09860 0.11800
H 	H 	0.01480 0.80370 0.97530 0.13300
H 	H 	0.99090 0.72530 0.52180 0.15100
H 	H 	0.05760 0.75720 0.58460 0.13100
H 	H 	0.09680 0.93950 0.47890 -0.03000
H 	H 	0.16070 0.89760 0.40970 -0.02700
H 	H 	0.16200 0.00720 0.25080 -0.03000
H 	H 	0.12150 0.06530 0.31160 -0.02800
H 	H 	0.07000 0.09860 0.16790 0.12000
H 	H 	0.99010 0.97530 0.22100 0.13500
H 	H 	0.51270 0.52180 0.75290 0.15700
H 	H 	0.64220 0.58460 0.65820 0.13500
H 	H 	0.57570 0.47890 0.58160 -0.03300
H 	H 	0.57040 0.40970 0.69270 -0.03000
H 	H 	0.41280 0.25080 0.74200 -0.02800
H 	H 	0.43310 0.31160 0.62310 -0.02600
H 	H 	0.23790 0.16790 0.73350 0.11600
H 	H 	0.21110 0.22100 0.80370 0.12800
H 	H 	0.73440 0.24710 0.27470 0.15700
H 	H 	0.69960 0.34180 0.24280 0.13400
H 	H 	0.84270 0.41840 0.06050 -0.03200
H 	H 	0.73690 0.30730 0.10240 -0.02900
H 	H 	0.84520 0.25800 0.99280 -0.02700
H 	H 	0.94380 0.37690 0.93470 -0.02600
H 	H 	0.02860 0.26650 0.90140 0.11800
H 	H 	0.98520 0.19630 0.02470 0.13300
H 	H 	0.00910 0.27470 0.47820 0.15100
H 	H 	0.94240 0.24280 0.41540 0.13100
H 	H 	0.90320 0.06050 0.52110 -0.03000
H 	H 	0.83930 0.10240 0.59030 -0.02700
H 	H 	0.83800 0.99280 0.74920 -0.03000
H 	H 	0.87850 0.93470 0.68840 -0.02800
H 	H 	0.93000 0.90140 0.83210 0.12000
H 	H 	0.00990 0.02470 0.77900 0.13500
H 	H 	0.48730 0.47820 0.24710 0.15700
H 	H 	0.35780 0.41540 0.34180 0.13500
H 	H 	0.42430 0.52110 0.41840 -0.03300
H 	H 	0.42960 0.59030 0.30730 -0.03000
H 	H 	0.58720 0.74920 0.25800 -0.02800
H 	H 	0.56690 0.68840 0.37690 -0.02600
H 	H 	0.76210 0.83210 0.26650 0.11600
H 	H 	0.78890 0.77900 0.19630 0.12800
C 	C 	0.13640 0.61380 0.75900 0.20900
C 	C 	0.23530 0.67730 0.77450 -0.40500
C 	C 	0.19470 0.65780 0.88880 0.22000
C 	C 	0.08380 0.69550 0.00930 0.20000
C 	C 	0.98710 0.73180 0.03240 -0.40000
C 	C 	0.87400 0.65860 0.04200 0.21000
C 	C 	0.89540 0.75900 0.62720 0.20200
C 	C 	0.00980 0.77450 0.54820 -0.39000
C 	C 	0.08350 0.88880 0.45340 0.21400
C 	C 	0.09310 0.00930 0.29520 0.20700
C 	C 	0.01950 0.03240 0.23580 -0.41600
C 	C 	0.91600 0.04200 0.29940 0.21900
C 	C 	0.52260 0.62720 0.61380 0.20900
C 	C 	0.55800 0.54820 0.67730 -0.40700
C 	C 	0.53690 0.45340 0.65780 0.22300
C 	C 	0.38830 0.29520 0.69550 0.20600
C 	C 	0.25530 0.23580 0.73180 -0.39700
C 	C 	0.21540 0.29940 0.65860 0.20600
C 	C 	0.86360 0.38620 0.24100 0.20900
C 	C 	0.76470 0.32270 0.22550 -0.40500
C 	C 	0.80530 0.34220 0.11120 0.22000
C 	C 	0.91620 0.30450 0.99070 0.20000
C 	C 	0.01290 0.26820 0.96760 -0.40000
C 	C 	0.12600 0.34140 0.95800 0.21000
C 	C 	0.10460 0.24100 0.37280 0.20200
C 	C 	0.99020 0.22550 0.45180 -0.39000
C 	C 	0.91650 0.11120 0.54660 0.21400
C 	C 	0.90690 0.99070 0.70480 0.20700
C 	C 	0.98050 0.96760 0.76420 -0.41600
C 	C 	0.08400 0.95800 0.70060 0.21900
C 	C 	0.47740 0.37280 0.38620 0.20900
C 	C 	0.44200 0.45180 0.32270 -0.40700
C 	C 	0.46310 0.54660 0.34220 0.22300
C 	C 	0.61170 0.70480 0.30450 0.20600
C 	C 	0.74470 0.76420 0.26820 -0.39700
C 	C 	0.78460 0.70060 0.34140 0.20600
N 	N 	0.03360 0.62120 0.77330 -0.26200
N 	N 	0.97060 0.54990 0.75060 -0.07000
N 	N 	0.03150 0.50230 0.72490 -0.05900
N 	N 	0.13772 0.54144 0.72918 -0.25500
N 	N 	0.85880 0.65310 0.96060 -0.27100
N 	N 	0.74610 0.57440 0.00280 -0.06200
N 	N 	0.69700 0.53570 0.10480 -0.07000
N 	N 	0.77575 0.58885 0.13140 -0.26500
N 	N 	0.80690 0.77330 0.60550 -0.26300
N 	N 	0.72120 0.75060 0.69950 -0.06800
N 	N 	0.75640 0.72490 0.77280 -0.06100
N 	N 	0.86690 0.72918 0.72938 -0.25500
N 	N 	0.81940 0.96060 0.38630 -0.27300
N 	N 	0.74890 0.00280 0.42280 -0.06300
N 	N 	0.80180 0.10480 0.35950 -0.07000
N 	N 	0.90715 0.13140 0.27975 -0.26600
N 	N 	0.41240 0.60550 0.62120 -0.26400
N 	N 	0.42070 0.69950 0.54990 -0.06800
N 	N 	0.52920 0.77280 0.50230 -0.06100
N 	N 	0.59628 0.72938 0.54144 -0.25500
N 	N 	0.20570 0.38630 0.65310 -0.26700
N 	N 	0.17170 0.42280 0.57440 -0.06400
N 	N 	0.16130 0.35950 0.53570 -0.07000
N 	N 	0.18690 0.27975 0.58885 -0.26500
N 	N 	0.96640 0.37880 0.22670 -0.26200
N 	N 	0.02940 0.45010 0.24940 -0.07000
N 	N 	0.96850 0.49770 0.27510 -0.05900
N 	N 	0.86228 0.45856 0.27082 -0.25500
N 	N 	0.14120 0.34690 0.03940 -0.27100
N 	N 	0.25390 0.42560 0.99720 -0.06200
N 	N 	0.30300 0.46430 0.89520 -0.07000
N 	N 	0.22425 0.41115 0.86860 -0.26500
N 	N 	0.19310 0.22670 0.39450 -0.26300
N 	N 	0.27880 0.24940 0.30050 -0.06800
N 	N 	0.24360 0.27510 0.22720 -0.06100
N 	N 	0.13310 0.27082 0.27062 -0.25500
N 	N 	0.18060 0.03940 0.61370 -0.27300
N 	N 	0.25110 0.99720 0.57720 -0.06300
N 	N 	0.19820 0.89520 0.64050 -0.07000
N 	N 	0.09285 0.86860 0.72025 -0.26600
N 	N 	0.58760 0.39450 0.37880 -0.26400
N 	N 	0.57930 0.30050 0.45010 -0.06800
N 	N 	0.47080 0.22720 0.49770 -0.06100
N 	N 	0.40372 0.27062 0.45856 -0.25500
N 	N 	0.79430 0.61370 0.34690 -0.26700
N 	N 	0.82830 0.57720 0.42560 -0.06400
N 	N 	0.83870 0.64050 0.46430 -0.07000
N 	N 	0.81310 0.72025 0.41115 -0.26500
O 	O 	0.11189 0.69971 0.90854 -0.33000
O 	O 	0.02043 0.90854 0.39175 -0.33000
O 	O 	0.41218 0.39175 0.69971 -0.33500
O 	O 	0.88811 0.30029 0.09146 -0.33000
O 	O 	0.97957 0.09146 0.60825 -0.33000
O 	O 	0.58782 0.60825 0.30029 -0.33500
