data_crystal

_cell_length_a 8.85600
_cell_length_b 9.06900
_cell_length_c 15.53500
_cell_angle_alpha 90.00000
_cell_angle_beta  90.00000
_cell_angle_gamma 114.43000

_symmetry_space_group_name_	'P 1'
_symmetry_space_group_name_H-M	'P 1'

loop_
_symmetry_equiv_pos_as_xyz
  x,y,z

loop_
_atom_site_label
_atom_site_type_symbol
_atom_site_fract_x
_atom_site_fract_y
_atom_site_fract_z
_atom_site_charge
Np	Np	0.24759 0.37432 0.35839 0.03600
Np	Np	0.76785 0.64318 0.37264 0.03700
Np	Np	0.25241 0.12568 0.85839 0.03600
Np	Np	0.73215 0.85682 0.87264 0.03700
Np	Np	0.75241 0.62568 0.64161 0.03600
Np	Np	0.23215 0.35682 0.62736 0.03700
Np	Np	0.74759 0.87432 0.14161 0.03600
Np	Np	0.26785 0.14318 0.12736 0.03700
C 	C 	0.12900 0.96800 0.42080 0.29100
C 	C 	0.16800 0.70600 0.39360 0.30400
C 	C 	0.19400 0.84800 0.45560 -0.02200
C 	C 	0.37100 0.53200 0.92080 0.29700
C 	C 	0.33200 0.79400 0.89360 0.30400
C 	C 	0.30600 0.65200 0.95560 -0.02300
C 	C 	0.87100 0.03200 0.57920 0.29100
C 	C 	0.83200 0.29400 0.60640 0.30400
C 	C 	0.80600 0.15200 0.54440 -0.02200
C 	C 	0.62900 0.46800 0.07920 0.29700
C 	C 	0.66800 0.20600 0.10640 0.30400
C 	C 	0.69400 0.34800 0.04440 -0.02300
O 	O 	0.47440 0.45590 0.37130 -0.01500
O 	O 	0.78400 0.60000 0.48730 -0.02800
O 	O 	0.75550 0.69180 0.25840 -0.02100
O 	O 	0.22800 0.11520 0.42250 -0.14000
O 	O 	0.98070 0.91820 0.39580 -0.14300
O 	O 	0.28080 0.65590 0.39250 -0.14400
O 	O 	0.04000 0.64700 0.35010 -0.15500
O 	O 	0.02560 0.04410 0.87130 -0.01500
O 	O 	0.71600 0.90000 0.98730 -0.02800
O 	O 	0.74450 0.80820 0.75840 -0.02100
O 	O 	0.27200 0.38480 0.92250 -0.14200
O 	O 	0.51930 0.58180 0.89580 -0.14600
O 	O 	0.21920 0.84410 0.89250 -0.14500
O 	O 	0.46000 0.85300 0.85010 -0.15400
O 	O 	0.52560 0.54410 0.62870 -0.01500
O 	O 	0.21600 0.40000 0.51270 -0.02800
O 	O 	0.24450 0.30820 0.74160 -0.02100
O 	O 	0.77200 0.88480 0.57750 -0.14000
O 	O 	0.01930 0.08180 0.60420 -0.14300
O 	O 	0.71920 0.34410 0.60750 -0.14400
O 	O 	0.96000 0.35300 0.64990 -0.15500
O 	O 	0.97440 0.95590 0.12870 -0.01500
O 	O 	0.28400 0.10000 0.01270 -0.02800
O 	O 	0.25550 0.19180 0.24160 -0.02100
O 	O 	0.72800 0.61520 0.07750 -0.14200
O 	O 	0.48070 0.41820 0.10420 -0.14600
O 	O 	0.78080 0.15590 0.10750 -0.14500
O 	O 	0.54000 0.14700 0.14990 -0.15400
