data_crystal

_cell_length_a 11.05800
_cell_length_b 12.03400
_cell_length_c 16.16780
_cell_angle_alpha 99.94670
_cell_angle_beta  109.99700
_cell_angle_gamma 90.00000

_symmetry_space_group_name_	'P 1'
_symmetry_space_group_name_H-M	'P 1'

loop_
_symmetry_equiv_pos_as_xyz
  x,y,z

loop_
_atom_site_label
_atom_site_type_symbol
_atom_site_fract_x
_atom_site_fract_y
_atom_site_fract_z
_atom_site_charge
Co	Co	0.20475 0.52844 0.22572 1.15100
Co	Co	0.97903 0.97156 0.77428 1.14900
Co	Co	0.79525 0.47156 0.77428 1.15100
Co	Co	0.02097 0.02844 0.22572 1.15100
Co	Co	0.05244 0.75000 -0.00000 1.16300
Co	Co	0.94756 0.25000 -0.00000 1.16100
H 	H 	0.74790 0.40530 0.17820 0.02600
H 	H 	0.65820 0.52380 0.26560 0.07500
H 	H 	0.71980 0.71510 0.30180 0.03700
H 	H 	0.37490 0.68350 0.16860 -0.01800
H 	H 	0.50260 0.67170 0.08360 0.07900
H 	H 	0.36550 0.35200 0.98220 0.20100
H 	H 	0.24040 0.37250 0.07060 -0.02900
H 	H 	0.09450 0.35510 0.30200 0.01300
H 	H 	0.00850 0.33920 0.40920 0.06700
H 	H 	0.05640 0.67320 0.48720 0.07600
H 	H 	0.13410 0.68070 0.37360 -0.00800
H 	H 	0.56970 0.09470 0.82180 0.03300
H 	H 	0.39260 0.97620 0.73440 0.07500
H 	H 	0.41800 0.78490 0.69820 0.03500
H 	H 	0.20630 0.81650 0.83140 -0.00300
H 	H 	0.41900 0.82830 0.91640 0.07700
H 	H 	0.38330 0.14800 0.01780 -0.04400
H 	H 	0.16980 0.12750 0.92940 0.06300
H 	H 	0.79250 0.14490 0.69800 0.01200
H 	H 	0.59930 0.16080 0.59080 0.06500
H 	H 	0.56920 0.82680 0.51280 0.07400
H 	H 	0.76050 0.81930 0.62640 -0.00800
H 	H 	0.25210 0.59470 0.82180 0.03400
H 	H 	0.34180 0.47620 0.73440 0.07500
H 	H 	0.28020 0.28490 0.69820 0.03600
H 	H 	0.62510 0.31650 0.83140 -0.00500
H 	H 	0.49740 0.32830 0.91640 0.07900
H 	H 	0.63450 0.64800 0.01780 -0.03700
H 	H 	0.75960 0.62750 0.92940 0.06000
H 	H 	0.90550 0.64490 0.69800 0.01300
H 	H 	0.99150 0.66080 0.59080 0.06300
H 	H 	0.94360 0.32680 0.51280 0.07200
H 	H 	0.86590 0.31930 0.62640 -0.00800
H 	H 	0.43030 0.90530 0.17820 0.02200
H 	H 	0.60740 0.02380 0.26560 0.07800
H 	H 	0.58200 0.21510 0.30180 0.03400
H 	H 	0.79370 0.18350 0.16860 -0.01800
H 	H 	0.58100 0.17170 0.08360 0.07800
H 	H 	0.61670 0.85200 0.98220 0.19200
H 	H 	0.83020 0.87250 0.07060 -0.02700
H 	H 	0.20750 0.85510 0.30200 0.01300
H 	H 	0.40070 0.83920 0.40920 0.06400
H 	H 	0.43080 0.17320 0.48720 0.07300
H 	H 	0.23950 0.18070 0.37360 -0.00700
C 	C 	0.90770 0.63670 0.18820 -0.04000
C 	C 	0.86640 0.52150 0.16520 -0.10900
C 	C 	0.77390 0.48180 0.19400 0.03400
C 	C 	0.71930 0.55210 0.24560 -0.09700
C 	C 	0.75690 0.66660 0.26720 0.01200
C 	C 	0.84810 0.70990 0.23880 -0.07000
C 	C 	0.01000 0.67820 0.15500 0.37000
C 	C 	0.92550 0.43870 0.11220 0.35600
C 	C 	0.88480 0.83490 0.26460 0.33500
C 	C 	0.37460 0.61480 0.13180 0.09000
C 	C 	0.45240 0.60840 0.08140 -0.15900
C 	C 	0.45600 0.50560 0.02580 0.08200
C 	C 	0.37190 0.41990 0.02140 -0.32000
C 	C 	0.29570 0.43310 0.07460 0.16100
C 	C 	0.08720 0.42030 0.33980 0.07300
C 	C 	0.03680 0.41020 0.40500 -0.13000
C 	C 	0.02760 0.50400 0.46460 0.06200
C 	C 	0.06380 0.60660 0.45080 -0.13300
C 	C 	0.11130 0.61040 0.38240 0.08100
C 	C 	0.71950 0.86330 0.81180 -0.02800
C 	C 	0.70120 0.97850 0.83480 -0.09700
C 	C 	0.57990 0.01820 0.80600 0.04300
C 	C 	0.47370 0.94790 0.75440 -0.09900
C 	C 	0.48970 0.83340 0.73280 0.01700
C 	C 	0.60930 0.79010 0.76120 -0.07200
C 	C 	0.85500 0.82180 0.84500 0.35600
C 	C 	0.81330 0.06130 0.88780 0.35800
C 	C 	0.62020 0.66510 0.73540 0.33800
C 	C 	0.24280 0.88520 0.86820 0.06500
C 	C 	0.37100 0.89160 0.91860 -0.08800
C 	C 	0.43020 0.99440 0.97420 0.03200
C 	C 	0.35050 0.08010 0.97860 0.07900
C 	C 	0.22110 0.06690 0.92540 -0.00300
C 	C 	0.74740 0.07970 0.66020 0.07100
C 	C 	0.63180 0.08980 0.59500 -0.12900
C 	C 	0.56300 0.99600 0.53540 0.05800
C 	C 	0.61300 0.89340 0.54920 -0.13200
C 	C 	0.72890 0.88960 0.61760 0.07900
C 	C 	0.09230 0.36330 0.81180 -0.02200
C 	C 	0.13360 0.47850 0.83480 -0.09500
C 	C 	0.22610 0.51820 0.80600 0.03800
C 	C 	0.28070 0.44790 0.75440 -0.09500
C 	C 	0.24310 0.33340 0.73280 0.01600
C 	C 	0.15190 0.29010 0.76120 -0.07200
C 	C 	0.99000 0.32180 0.84500 0.34600
C 	C 	0.07450 0.56130 0.88780 0.36200
C 	C 	0.11520 0.16510 0.73540 0.33800
C 	C 	0.62540 0.38520 0.86820 0.06700
C 	C 	0.54760 0.39160 0.91860 -0.09200
C 	C 	0.54400 0.49440 0.97420 0.03900
C 	C 	0.62810 0.58010 0.97860 0.06500
C 	C 	0.70430 0.56690 0.92540 0.00100
C 	C 	0.91280 0.57970 0.66020 0.06800
C 	C 	0.96320 0.58980 0.59500 -0.12400
C 	C 	0.97240 0.49600 0.53540 0.05100
C 	C 	0.93620 0.39340 0.54920 -0.12700
C 	C 	0.88870 0.38960 0.61760 0.07600
C 	C 	0.28050 0.13670 0.18820 -0.03300
C 	C 	0.29880 0.02150 0.16520 -0.12000
C 	C 	0.42010 0.98180 0.19400 0.04900
C 	C 	0.52630 0.05210 0.24560 -0.11000
C 	C 	0.51030 0.16660 0.26720 0.02100
C 	C 	0.39070 0.20990 0.23880 -0.07500
C 	C 	0.14500 0.17820 0.15500 0.36600
C 	C 	0.18670 0.93870 0.11220 0.36200
C 	C 	0.37980 0.33490 0.26460 0.33700
C 	C 	0.75720 0.11480 0.13180 0.08800
C 	C 	0.62900 0.10840 0.08140 -0.15600
C 	C 	0.56980 0.00560 0.02580 0.07700
C 	C 	0.64950 0.91990 0.02140 -0.30400
C 	C 	0.77890 0.93310 0.07460 0.15700
C 	C 	0.25260 0.92030 0.33980 0.07100
C 	C 	0.36820 0.91020 0.40500 -0.12500
C 	C 	0.43700 0.00400 0.46460 0.05400
C 	C 	0.38700 0.10660 0.45080 -0.12900
C 	C 	0.27110 0.11040 0.38240 0.07800
N 	N 	0.29830 0.52840 0.13180 -0.25800
N 	N 	0.12610 0.51900 0.32880 -0.23600
N 	N 	0.16650 0.97160 0.86820 -0.21500
N 	N 	0.79730 0.98100 0.67120 -0.23700
N 	N 	0.70170 0.47160 0.86820 -0.21600
N 	N 	0.87390 0.48100 0.67120 -0.23600
N 	N 	0.83350 0.02840 0.13180 -0.25800
N 	N 	0.20270 0.01900 0.32880 -0.23600
O 	O 	0.96564 0.69920 0.07688 -0.44700
O 	O 	0.12598 0.68120 0.20176 -0.44800
O 	O 	0.97033 0.86890 0.23826 -0.41000
O 	O 	0.82990 0.89620 0.30860 -0.29400
O 	O 	0.04221 0.45010 0.12142 -0.45900
O 	O 	0.85340 0.35600 0.05960 -0.45100
O 	O 	0.88876 0.80080 0.92312 -0.38800
O 	O 	0.92422 0.81880 0.79824 -0.44000
O 	O 	0.73207 0.63110 0.76174 -0.41000
O 	O 	0.52130 0.60380 0.69140 -0.29500
O 	O 	0.92079 0.04990 0.87858 -0.43600
O 	O 	0.79380 0.14400 0.94040 -0.38300
O 	O 	0.03436 0.30080 0.92312 -0.37900
O 	O 	0.87402 0.31880 0.79824 -0.43700
O 	O 	0.02967 0.13110 0.76174 -0.40700
O 	O 	0.17010 0.10380 0.69140 -0.29400
O 	O 	0.95779 0.54990 0.87858 -0.43900
O 	O 	0.14660 0.64400 0.94040 -0.38300
O 	O 	0.11124 0.19920 0.07688 -0.44600
O 	O 	0.07578 0.18120 0.20176 -0.44700
O 	O 	0.26793 0.36890 0.23826 -0.41100
O 	O 	0.47870 0.39620 0.30860 -0.29500
O 	O 	0.07921 0.95010 0.12142 -0.46000
O 	O 	0.20620 0.85600 0.05960 -0.45100
