data_crystal

_cell_length_a 11.34690
_cell_length_b 12.28710
_cell_length_c 12.28710
_cell_angle_alpha 69.03100
_cell_angle_beta  72.07160
_cell_angle_gamma 107.92800

_symmetry_space_group_name_	'P 1'
_symmetry_space_group_name_H-M	'P 1'

loop_
_symmetry_equiv_pos_as_xyz
  x,y,z

loop_
_atom_site_label
_atom_site_type_symbol
_atom_site_fract_x
_atom_site_fract_y
_atom_site_fract_z
_atom_site_charge
Zn	Zn	0.68762 0.53524 0.93775 1.11500
Zn	Zn	0.62537 0.93775 0.52701 1.11500
Zn	Zn	0.15238 0.52701 0.53524 1.11500
Zn	Zn	0.31238 0.46476 0.06225 1.11500
Zn	Zn	0.37463 0.06225 0.47299 1.11600
Zn	Zn	0.84762 0.47299 0.46476 1.11600
H 	H 	0.26860 0.67060 0.91810 0.13200
H 	H 	0.36160 0.82370 0.82430 0.14900
H 	H 	0.31910 0.73260 0.76590 0.14800
H 	H 	0.87120 0.75990 0.68220 0.10500
H 	H 	0.84690 0.81480 0.55920 0.11000
H 	H 	0.88340 0.90140 0.62330 0.11700
H 	H 	0.18670 0.91810 0.41130 0.13100
H 	H 	0.18590 0.82430 0.35200 0.14800
H 	H 	0.08500 0.76590 0.50150 0.14800
H 	H 	0.55340 0.68220 0.55790 0.10700
H 	H 	0.40610 0.55920 0.62600 0.11200
H 	H 	0.50670 0.62330 0.47530 0.11900
H 	H 	0.59800 0.41130 0.67060 0.13000
H 	H 	0.53790 0.35200 0.82370 0.14800
H 	H 	0.58650 0.50150 0.73260 0.14600
H 	H 	0.11130 0.55790 0.75990 0.10000
H 	H 	0.03210 0.62600 0.81480 0.10600
H 	H 	0.98200 0.47530 0.90140 0.11000
H 	H 	0.73140 0.32940 0.08190 0.13200
H 	H 	0.63840 0.17630 0.17570 0.14900
H 	H 	0.68090 0.26740 0.23410 0.14800
H 	H 	0.12880 0.24010 0.31780 0.10500
H 	H 	0.15310 0.18520 0.44080 0.11000
H 	H 	0.11660 0.09860 0.37670 0.11700
H 	H 	0.81330 0.08190 0.58870 0.13100
H 	H 	0.81410 0.17570 0.64800 0.14800
H 	H 	0.91500 0.23410 0.49850 0.14800
H 	H 	0.44660 0.31780 0.44210 0.10700
H 	H 	0.59390 0.44080 0.37400 0.11200
H 	H 	0.49330 0.37670 0.52470 0.11900
H 	H 	0.40200 0.58870 0.32940 0.13000
H 	H 	0.46210 0.64800 0.17630 0.14800
H 	H 	0.41350 0.49850 0.26740 0.14600
H 	H 	0.88870 0.44210 0.24010 0.10000
H 	H 	0.96790 0.37400 0.18520 0.10600
H 	H 	0.01800 0.52470 0.09860 0.11000
C 	C 	0.34410 0.73910 0.83210 -0.65800
C 	C 	0.47240 0.72410 0.81320 0.20100
C 	C 	0.68280 0.75640 0.72970 0.16900
C 	C 	0.83450 0.81320 0.64070 -0.58200
C 	C 	0.17620 0.83210 0.42880 -0.65700
C 	C 	0.28560 0.81320 0.46270 0.20000
C 	C 	0.41250 0.72970 0.51390 0.17000
C 	C 	0.47520 0.64070 0.54610 -0.58500
C 	C 	0.60500 0.42880 0.73910 -0.65500
C 	C 	0.74830 0.46270 0.72410 0.19900
C 	C 	0.92640 0.51390 0.75640 0.16200
C 	C 	0.02130 0.54610 0.81320 -0.56200
C 	C 	0.65590 0.26090 0.16790 -0.65800
C 	C 	0.52760 0.27590 0.18680 0.20100
C 	C 	0.31720 0.24360 0.27030 0.16900
C 	C 	0.16550 0.18680 0.35930 -0.58200
C 	C 	0.82380 0.16790 0.57120 -0.65700
C 	C 	0.71440 0.18680 0.53730 0.20000
C 	C 	0.58750 0.27030 0.48610 0.17000
C 	C 	0.52480 0.35930 0.45390 -0.58500
C 	C 	0.39500 0.57120 0.26090 -0.65500
C 	C 	0.25170 0.53730 0.27590 0.19900
C 	C 	0.07360 0.48610 0.24360 0.16200
C 	C 	0.97870 0.45390 0.18680 -0.56200
N 	N 	0.61460 0.64980 0.84720 -0.31900
N 	N 	0.47810 0.62940 0.90090 -0.32600
N 	N 	0.59720 0.80590 0.70270 -0.36000
N 	N 	0.46180 0.84720 0.50300 -0.31900
N 	N 	0.37900 0.90090 0.46970 -0.32600
N 	N 	0.29990 0.70270 0.49140 -0.36000
N 	N 	0.96480 0.50300 0.64980 -0.31800
N 	N 	0.84870 0.46970 0.62940 -0.32700
N 	N 	0.79130 0.49140 0.80590 -0.35900
N 	N 	0.38540 0.35020 0.15280 -0.31900
N 	N 	0.52190 0.37060 0.09910 -0.32600
N 	N 	0.40280 0.19410 0.29730 -0.36000
N 	N 	0.53820 0.15280 0.49700 -0.31900
N 	N 	0.62100 0.09910 0.53030 -0.32600
N 	N 	0.70010 0.29730 0.50860 -0.36000
N 	N 	0.03520 0.49700 0.35020 -0.31800
N 	N 	0.15130 0.53030 0.37060 -0.32700
N 	N 	0.20870 0.50860 0.19410 -0.35900
