data_crystal

_cell_length_a 8.12560
_cell_length_b 10.50210
_cell_length_c 11.38170
_cell_angle_alpha 62.52510
_cell_angle_beta  84.32930
_cell_angle_gamma 77.63300

_symmetry_space_group_name_	'P 1'
_symmetry_space_group_name_H-M	'P 1'

loop_
_symmetry_equiv_pos_as_xyz
  x,y,z

loop_
_atom_site_label
_atom_site_type_symbol
_atom_site_fract_x
_atom_site_fract_y
_atom_site_fract_z
_atom_site_charge
Fe	Fe	0.35798 0.24441 0.50780 1.10500
Fe	Fe	0.85798 0.75221 0.49220 1.09100
H 	H 	0.57270 0.94990 0.54260 -0.10000
H 	H 	0.27550 0.93690 0.63160 -0.03400
H 	H 	0.26940 0.73380 0.82980 0.08500
H 	H 	0.45250 0.93140 0.00140 0.05500
H 	H 	0.45550 0.12800 0.79780 -0.00400
H 	H 	0.29100 0.54380 0.01100 0.08200
H 	H 	0.29040 0.34790 0.21520 -0.01900
H 	H 	0.40680 0.76770 0.18640 0.08200
H 	H 	0.40620 0.56360 0.38460 -0.04000
H 	H 	0.07270 0.49250 0.45740 -0.16400
H 	H 	0.77550 0.56850 0.36840 -0.05000
H 	H 	0.76940 0.56360 0.17020 0.06800
H 	H 	0.95250 0.93280 0.99860 0.07300
H 	H 	0.95550 0.92580 0.20220 -0.02900
H 	H 	0.79100 0.55480 0.98900 0.06800
H 	H 	0.79040 0.56310 0.78480 -0.02900
H 	H 	0.90680 0.95410 0.81360 0.06800
H 	H 	0.90620 0.94820 0.61540 -0.04000
C 	C 	0.59510 0.01216 0.45528 0.31700
C 	C 	0.31130 0.93607 0.70706 0.13000
C 	C 	0.30670 0.81315 0.82650 -0.14100
C 	C 	0.35760 0.80826 0.94128 0.04300
C 	C 	0.41500 0.92967 0.92766 -0.05100
C 	C 	0.41630 0.04796 0.80448 0.00000
C 	C 	0.35210 0.68011 0.07278 0.07500
C 	C 	0.31540 0.55083 0.08574 -0.14500
C 	C 	0.31530 0.43313 0.20914 0.09200
C 	C 	0.38430 0.68320 0.18900 -0.15200
C 	C 	0.38260 0.55978 0.30804 0.09100
C 	C 	0.09510 0.46744 0.54472 0.48400
C 	C 	0.81130 0.64313 0.29294 0.08000
C 	C 	0.80670 0.63965 0.17350 -0.15400
C 	C 	0.85760 0.74954 0.05872 0.05300
C 	C 	0.91500 0.85733 0.07234 -0.14900
C 	C 	0.91630 0.85244 0.19552 0.07900
C 	C 	0.85210 0.75289 0.92722 0.05200
C 	C 	0.81540 0.63657 0.91426 -0.14500
C 	C 	0.81530 0.64227 0.79086 0.07500
C 	C 	0.88430 0.87220 0.81100 -0.15000
C 	C 	0.88260 0.86782 0.69196 0.07400
N 	N 	0.34910 0.43536 0.32048 -0.25400
N 	N 	0.36400 0.05347 0.69406 -0.26800
N 	N 	0.84910 0.75584 0.67952 -0.25800
N 	N 	0.86400 0.74753 0.30594 -0.26300
O 	O 	0.50770 0.13779 0.40542 -0.45200
O 	O 	0.70980 0.96322 0.39776 -0.41300
O 	O 	0.00770 0.54321 0.59458 -0.44200
O 	O 	0.20980 0.36098 0.60224 -0.47600
