data_crystal

_cell_length_a 16.78530
_cell_length_b 19.50110
_cell_length_c 24.29500
_cell_angle_alpha 112.89100
_cell_angle_beta  90.00000
_cell_angle_gamma 90.00000

_symmetry_space_group_name_	'P 1'
_symmetry_space_group_name_H-M	'P 1'

loop_
_symmetry_equiv_pos_as_xyz
  x,y,z

loop_
_atom_site_label
_atom_site_type_symbol
_atom_site_fract_x
_atom_site_fract_y
_atom_site_fract_z
_atom_site_charge
La	La	0.51580 0.88680 0.96851 1.62000
La	La	0.52195 0.61755 0.01912 1.62400
La	La	0.01580 0.61320 0.53149 1.61900
La	La	0.02195 0.88244 0.48088 1.62100
La	La	0.48420 0.11320 0.03149 1.62000
La	La	0.47805 0.38244 0.98088 1.62400
La	La	0.98420 0.38680 0.46851 1.61900
La	La	0.97805 0.11755 0.51912 1.62100
H 	H 	0.48670 0.53730 0.84000 0.02500
H 	H 	0.30770 0.07990 0.32280 0.08600
H 	H 	0.39610 0.02620 0.22750 0.07800
H 	H 	0.23920 0.15390 0.76350 0.08700
H 	H 	0.42150 0.46790 0.75160 0.07800
H 	H 	0.33160 0.41060 0.65730 0.07700
H 	H 	0.46450 0.95880 0.14000 0.02200
H 	H 	0.21720 0.10490 0.40120 0.03400
H 	H 	0.32820 0.86930 0.79450 0.06200
H 	H 	0.31540 0.12530 0.84000 0.06000
H 	H 	0.39490 0.72720 0.83740 0.04300
H 	H 	0.13960 0.93630 0.61330 0.01600
H 	H 	0.39740 0.76580 0.15100 0.03900
H 	H 	0.16050 0.16020 0.68730 0.04600
H 	H 	0.24260 0.38080 0.57870 0.04400
H 	H 	0.20240 0.88640 0.36930 0.01000
H 	H 	0.38320 0.08090 0.90240 0.01800
H 	H 	0.19640 0.59910 0.62140 0.01900
H 	H 	0.98670 0.96270 0.66000 0.02700
H 	H 	0.80770 0.42010 0.17720 0.08600
H 	H 	0.89610 0.47380 0.27250 0.07800
H 	H 	0.73920 0.34610 0.73650 0.08700
H 	H 	0.92150 0.03210 0.74840 0.07300
H 	H 	0.83160 0.08940 0.84270 0.07800
H 	H 	0.96450 0.54120 0.36000 0.02200
H 	H 	0.71720 0.39510 0.09880 0.03600
H 	H 	0.82820 0.63070 0.70550 0.06400
H 	H 	0.81540 0.37470 0.66000 0.05800
H 	H 	0.89490 0.77280 0.66260 0.04400
H 	H 	0.63960 0.56370 0.88670 0.01500
H 	H 	0.89740 0.73420 0.34900 0.03900
H 	H 	0.66050 0.33980 0.81270 0.04500
H 	H 	0.74260 0.11920 0.92130 0.04300
H 	H 	0.70240 0.61360 0.13070 0.01200
H 	H 	0.88320 0.41910 0.59760 0.01900
H 	H 	0.69640 0.90090 0.87860 0.01800
H 	H 	0.51330 0.46270 0.16000 0.02500
H 	H 	0.69230 0.92010 0.67720 0.08600
H 	H 	0.60390 0.97380 0.77250 0.07800
H 	H 	0.76080 0.84610 0.23650 0.08700
H 	H 	0.57850 0.53210 0.24840 0.07800
H 	H 	0.66840 0.58940 0.34270 0.07700
H 	H 	0.53550 0.04120 0.86000 0.02200
H 	H 	0.78280 0.89510 0.59880 0.03400
H 	H 	0.67180 0.13070 0.20550 0.06200
H 	H 	0.68460 0.87470 0.16000 0.06000
H 	H 	0.60510 0.27280 0.16260 0.04300
H 	H 	0.86040 0.06370 0.38670 0.01600
H 	H 	0.60260 0.23420 0.84900 0.03900
H 	H 	0.83950 0.83980 0.31270 0.04600
H 	H 	0.75740 0.61920 0.42130 0.04400
H 	H 	0.79760 0.11360 0.63070 0.01000
H 	H 	0.61680 0.91910 0.09760 0.01800
H 	H 	0.80360 0.40090 0.37860 0.01900
H 	H 	0.01330 0.03730 0.34000 0.02700
H 	H 	0.19230 0.57990 0.82280 0.08600
H 	H 	0.10390 0.52620 0.72750 0.07800
H 	H 	0.26080 0.65390 0.26350 0.08700
H 	H 	0.07850 0.96790 0.25160 0.07300
H 	H 	0.16840 0.91060 0.15730 0.07800
H 	H 	0.03550 0.45880 0.64000 0.02200
H 	H 	0.28280 0.60490 0.90120 0.03600
H 	H 	0.17180 0.36930 0.29450 0.06400
H 	H 	0.18460 0.62530 0.34000 0.05800
H 	H 	0.10510 0.22720 0.33740 0.04400
H 	H 	0.36040 0.43630 0.11330 0.01500
H 	H 	0.10260 0.26580 0.65100 0.03900
H 	H 	0.33950 0.66020 0.18730 0.04500
H 	H 	0.25740 0.88080 0.07870 0.04300
H 	H 	0.29760 0.38640 0.86930 0.01200
H 	H 	0.11680 0.58090 0.40240 0.01900
H 	H 	0.30360 0.09910 0.12140 0.01800
C 	C 	0.49200 0.68410 0.90410 0.42000
C 	C 	0.44890 0.63910 0.84750 -0.13300
C 	C 	0.45520 0.56140 0.82160 0.05700
C 	C 	0.35590 0.93790 0.24270 0.04200
C 	C 	0.28590 0.04120 0.33120 -0.11200
C 	C 	0.43560 0.85550 0.13530 -0.13000
C 	C 	0.39600 0.97440 0.21260 -0.10700
C 	C 	0.21930 0.11070 0.73390 -0.10500
C 	C 	0.41530 0.51930 0.76880 -0.10900
C 	C 	0.28210 0.02430 0.77910 0.03200
C 	C 	0.30420 0.44810 0.65060 -0.09500
C 	C 	0.14120 0.05000 0.64300 -0.12900
C 	C 	0.20650 0.97800 0.68830 -0.08000
C 	C 	0.43650 0.93370 0.15950 0.04900
C 	C 	0.30580 0.96800 0.29700 0.04800
C 	C 	0.23600 0.04150 0.73460 0.05200
C 	C 	0.36620 0.55500 0.74220 0.04600
C 	C 	0.23220 0.05600 0.37880 0.05700
C 	C 	0.32700 0.92020 0.80350 0.02300
C 	C 	0.20940 0.48670 0.59180 -0.10100
C 	C 	0.31840 0.07440 0.83070 -0.08900
C 	C 	0.40030 0.67570 0.82080 0.04700
C 	C 	0.15910 0.97970 0.64280 0.04700
C 	C 	0.39710 0.81750 0.16570 0.04100
C 	C 	0.31590 0.52220 0.68790 0.03800
C 	C 	0.20070 0.99880 0.39330 -0.13500
C 	C 	0.35840 0.85870 0.21840 -0.07400
C 	C 	0.36430 0.97020 0.85430 -0.09700
C 	C 	0.17210 0.11400 0.68810 0.05400
C 	C 	0.13850 0.01290 0.44160 0.39500
C 	C 	0.28790 0.94840 0.76650 -0.05600
C 	C 	0.08810 0.05990 0.59690 0.37700
C 	C 	0.36080 0.63310 0.76930 -0.07200
C 	C 	0.27400 0.57690 0.67540 -0.07200
C 	C 	0.27330 0.91190 0.31270 -0.08400
C 	C 	0.14670 0.47020 0.54470 0.32400
C 	C 	0.25100 0.43040 0.60330 0.03200
C 	C 	0.22200 0.92510 0.36000 0.05400
C 	C 	0.35910 0.04750 0.86800 0.02600
C 	C 	0.41160 0.94400 0.89510 0.32400
C 	C 	0.22230 0.56120 0.62850 0.03500
C 	C 	0.47390 0.81290 0.07610 0.38500
C 	C 	0.99200 0.81590 0.59590 0.42300
C 	C 	0.94890 0.86090 0.65250 -0.13100
C 	C 	0.95520 0.93860 0.67840 0.05400
C 	C 	0.85590 0.56210 0.25730 0.04300
C 	C 	0.78590 0.45880 0.16880 -0.11000
C 	C 	0.93560 0.64450 0.36470 -0.13000
C 	C 	0.89600 0.52560 0.28740 -0.10600
C 	C 	0.71930 0.38930 0.76610 -0.10600
C 	C 	0.91530 0.98070 0.73120 -0.10100
C 	C 	0.78210 0.47570 0.72090 0.02800
C 	C 	0.80420 0.05190 0.84940 -0.10000
C 	C 	0.64120 0.45000 0.85700 -0.13300
C 	C 	0.70650 0.52200 0.81170 -0.07900
C 	C 	0.93650 0.56630 0.34050 0.04900
C 	C 	0.80580 0.53200 0.20300 0.04800
C 	C 	0.73600 0.45850 0.76540 0.05100
C 	C 	0.86620 0.94500 0.75780 0.04300
C 	C 	0.73220 0.44400 0.12120 0.05200
C 	C 	0.82700 0.57980 0.69650 0.02000
C 	C 	0.70940 0.01330 0.90820 -0.10400
C 	C 	0.81840 0.42560 0.66930 -0.08600
C 	C 	0.90030 0.82430 0.67920 0.04500
C 	C 	0.65910 0.52030 0.85720 0.05100
C 	C 	0.89710 0.68250 0.33430 0.04100
C 	C 	0.81590 0.97780 0.81210 0.04300
C 	C 	0.70070 0.50120 0.10670 -0.12800
C 	C 	0.85840 0.64130 0.28160 -0.07400
C 	C 	0.86430 0.52980 0.64570 -0.09300
C 	C 	0.67210 0.38600 0.81190 0.05500
C 	C 	0.63850 0.48710 0.05840 0.38900
C 	C 	0.78790 0.55160 0.73350 -0.05300
C 	C 	0.58810 0.44010 0.90310 0.37800
C 	C 	0.86080 0.86690 0.73070 -0.07000
C 	C 	0.77400 0.92310 0.82460 -0.07400
C 	C 	0.77330 0.58810 0.18730 -0.08200
C 	C 	0.64670 0.02980 0.95530 0.32500
C 	C 	0.75100 0.06960 0.89670 0.03600
C 	C 	0.72200 0.57490 0.14000 0.05100
C 	C 	0.85910 0.45250 0.63200 0.02100
C 	C 	0.91160 0.55600 0.60490 0.32300
C 	C 	0.72230 0.93880 0.87150 0.03800
C 	C 	0.97390 0.68710 0.42390 0.38600
C 	C 	0.50800 0.31590 0.09590 0.42000
C 	C 	0.55110 0.36090 0.15250 -0.13300
C 	C 	0.54480 0.43860 0.17840 0.05700
C 	C 	0.64410 0.06210 0.75730 0.04200
C 	C 	0.71410 0.95880 0.66880 -0.11200
C 	C 	0.56440 0.14450 0.86470 -0.13000
C 	C 	0.60400 0.02560 0.78740 -0.10700
C 	C 	0.78070 0.88930 0.26610 -0.10500
C 	C 	0.58470 0.48070 0.23120 -0.10900
C 	C 	0.71790 0.97570 0.22090 0.03200
C 	C 	0.69580 0.55190 0.34940 -0.09500
C 	C 	0.85880 0.95000 0.35700 -0.12900
C 	C 	0.79350 0.02200 0.31170 -0.08000
C 	C 	0.56350 0.06630 0.84050 0.04900
C 	C 	0.69420 0.03200 0.70300 0.04800
C 	C 	0.76400 0.95850 0.26540 0.05200
C 	C 	0.63380 0.44500 0.25780 0.04600
C 	C 	0.76780 0.94400 0.62120 0.05700
C 	C 	0.67300 0.07980 0.19650 0.02300
C 	C 	0.79060 0.51330 0.40820 -0.10100
C 	C 	0.68160 0.92560 0.16930 -0.08900
C 	C 	0.59970 0.32430 0.17920 0.04700
C 	C 	0.84090 0.02030 0.35720 0.04700
C 	C 	0.60290 0.18250 0.83430 0.04100
C 	C 	0.68410 0.47780 0.31210 0.03800
C 	C 	0.79930 0.00120 0.60670 -0.13500
C 	C 	0.64160 0.14130 0.78160 -0.07400
C 	C 	0.63570 0.02980 0.14570 -0.09700
C 	C 	0.82790 0.88600 0.31190 0.05400
C 	C 	0.86150 0.98710 0.55840 0.39500
C 	C 	0.71210 0.05160 0.23350 -0.05600
C 	C 	0.91190 0.94010 0.40310 0.37700
C 	C 	0.63920 0.36690 0.23070 -0.07200
C 	C 	0.72600 0.42310 0.32460 -0.07200
C 	C 	0.72670 0.08810 0.68730 -0.08400
C 	C 	0.85330 0.52980 0.45530 0.32400
C 	C 	0.74900 0.56960 0.39670 0.03200
C 	C 	0.77800 0.07490 0.64000 0.05400
C 	C 	0.64090 0.95250 0.13200 0.02600
C 	C 	0.58840 0.05600 0.10490 0.32400
C 	C 	0.77770 0.43880 0.37150 0.03500
C 	C 	0.52610 0.18710 0.92390 0.38500
C 	C 	0.00800 0.18410 0.40410 0.42300
C 	C 	0.05110 0.13910 0.34750 -0.13100
C 	C 	0.04480 0.06140 0.32160 0.05400
C 	C 	0.14410 0.43790 0.74270 0.04300
C 	C 	0.21410 0.54120 0.83120 -0.11000
C 	C 	0.06440 0.35550 0.63530 -0.13000
C 	C 	0.10400 0.47440 0.71260 -0.10600
C 	C 	0.28070 0.61070 0.23390 -0.10600
C 	C 	0.08470 0.01930 0.26880 -0.10100
C 	C 	0.21790 0.52430 0.27910 0.02800
C 	C 	0.19580 0.94810 0.15060 -0.10000
C 	C 	0.35880 0.55000 0.14300 -0.13300
C 	C 	0.29350 0.47800 0.18830 -0.07900
C 	C 	0.06350 0.43370 0.65950 0.04900
C 	C 	0.19420 0.46800 0.79700 0.04800
C 	C 	0.26400 0.54150 0.23460 0.05100
C 	C 	0.13380 0.05500 0.24220 0.04300
C 	C 	0.26780 0.55600 0.87880 0.05200
C 	C 	0.17300 0.42020 0.30350 0.02000
C 	C 	0.29060 0.98670 0.09180 -0.10400
C 	C 	0.18160 0.57440 0.33070 -0.08600
C 	C 	0.09970 0.17570 0.32080 0.04500
C 	C 	0.34090 0.47970 0.14280 0.05100
C 	C 	0.10290 0.31750 0.66570 0.04100
C 	C 	0.18410 0.02220 0.18790 0.04300
C 	C 	0.29930 0.49880 0.89330 -0.12800
C 	C 	0.14160 0.35870 0.71840 -0.07400
C 	C 	0.13570 0.47020 0.35430 -0.09300
C 	C 	0.32790 0.61400 0.18810 0.05500
C 	C 	0.36150 0.51290 0.94160 0.38900
C 	C 	0.21210 0.44840 0.26650 -0.05300
C 	C 	0.41190 0.55990 0.09690 0.37800
C 	C 	0.13920 0.13310 0.26930 -0.07000
C 	C 	0.22600 0.07690 0.17540 -0.07400
C 	C 	0.22670 0.41190 0.81270 -0.08200
C 	C 	0.35330 0.97020 0.04470 0.32500
C 	C 	0.24900 0.93040 0.10330 0.03600
C 	C 	0.27800 0.42510 0.86000 0.05100
C 	C 	0.14090 0.54750 0.36800 0.02100
C 	C 	0.08840 0.44400 0.39510 0.32300
C 	C 	0.27770 0.06120 0.12850 0.03800
C 	C 	0.02610 0.31290 0.57610 0.38600
S 	S 	0.23756 0.89654 0.69846 0.32200
S 	S 	0.30400 0.82283 0.26297 0.31900
S 	S 	0.29346 0.66681 0.72953 0.31700
S 	S 	0.73756 0.60346 0.80154 0.32100
S 	S 	0.80400 0.67717 0.23703 0.31900
S 	S 	0.79346 0.83319 0.77047 0.31700
S 	S 	0.76244 0.10346 0.30154 0.32200
S 	S 	0.69600 0.17717 0.73703 0.31900
S 	S 	0.70654 0.33319 0.27047 0.31700
S 	S 	0.26244 0.39654 0.19846 0.32100
S 	S 	0.19600 0.32283 0.76297 0.31900
S 	S 	0.20654 0.16681 0.22953 0.31700
O 	O 	0.51670 0.84590 0.05168 -0.43400
O 	O 	0.52930 0.65040 0.93066 -0.43200
O 	O 	0.40430 0.87830 0.89010 -0.35700
O 	O 	0.48760 0.75380 0.92040 -0.43700
O 	O 	0.10820 0.07670 0.46400 -0.38800
O 	O 	0.46210 0.74230 0.05470 -0.41500
O 	O 	0.08580 0.12210 0.59420 -0.39300
O 	O 	0.22240 0.69630 0.76450 -0.21000
O 	O 	0.23690 0.77920 0.23080 -0.22400
O 	O 	0.04230 0.00820 0.56590 -0.45500
O 	O 	0.33350 0.71340 0.70490 -0.20100
O 	O 	0.12610 0.96070 0.45880 -0.44600
O 	O 	0.17020 0.85770 0.70900 -0.21100
O 	O 	0.12300 0.40440 0.51820 -0.36100
O 	O 	0.35620 0.78880 0.29200 -0.22200
O 	O 	0.29330 0.85450 0.65300 -0.20900
O 	O 	0.46070 0.99030 0.93260 -0.45700
O 	O 	0.12590 0.53010 0.53390 -0.42200
O 	O 	0.01670 0.65410 0.44832 -0.43600
O 	O 	0.02930 0.84960 0.56934 -0.43500
O 	O 	0.90430 0.62170 0.60990 -0.35600
O 	O 	0.98760 0.74620 0.57960 -0.43700
O 	O 	0.60820 0.42330 0.03600 -0.38700
O 	O 	0.96210 0.75770 0.44530 -0.41400
O 	O 	0.58580 0.37790 0.90580 -0.39400
O 	O 	0.72240 0.80370 0.73550 -0.21000
O 	O 	0.73690 0.72080 0.26920 -0.22400
O 	O 	0.54230 0.49180 0.93410 -0.45700
O 	O 	0.83350 0.78660 0.79510 -0.20100
O 	O 	0.62610 0.53930 0.04120 -0.44200
O 	O 	0.67020 0.64230 0.79100 -0.21000
O 	O 	0.62300 0.09560 0.98180 -0.36100
O 	O 	0.85620 0.71120 0.20800 -0.22100
O 	O 	0.79330 0.64550 0.84700 -0.20800
O 	O 	0.96070 0.50970 0.56740 -0.45600
O 	O 	0.62590 0.96990 0.96610 -0.42200
O 	O 	0.48330 0.15410 0.94832 -0.43400
O 	O 	0.47070 0.34960 0.06934 -0.43200
O 	O 	0.59570 0.12170 0.10990 -0.35700
O 	O 	0.51240 0.24620 0.07960 -0.43700
O 	O 	0.89180 0.92330 0.53600 -0.38800
O 	O 	0.53790 0.25770 0.94530 -0.41500
O 	O 	0.91420 0.87790 0.40580 -0.39300
O 	O 	0.77760 0.30370 0.23550 -0.21000
O 	O 	0.76310 0.22080 0.76920 -0.22400
O 	O 	0.95770 0.99180 0.43410 -0.45500
O 	O 	0.66650 0.28660 0.29510 -0.20100
O 	O 	0.87390 0.03930 0.54120 -0.44600
O 	O 	0.82980 0.14230 0.29100 -0.21100
O 	O 	0.87700 0.59560 0.48180 -0.36100
O 	O 	0.64380 0.21120 0.70800 -0.22200
O 	O 	0.70670 0.14550 0.34700 -0.20900
O 	O 	0.53930 0.00970 0.06740 -0.45700
O 	O 	0.87410 0.46990 0.46610 -0.42200
O 	O 	0.98330 0.34590 0.55168 -0.43600
O 	O 	0.97070 0.15040 0.43066 -0.43500
O 	O 	0.09570 0.37830 0.39010 -0.35600
O 	O 	0.01240 0.25380 0.42040 -0.43700
O 	O 	0.39180 0.57670 0.96400 -0.38700
O 	O 	0.03790 0.24230 0.55470 -0.41400
O 	O 	0.41420 0.62210 0.09420 -0.39400
O 	O 	0.27760 0.19630 0.26450 -0.21000
O 	O 	0.26310 0.27920 0.73080 -0.22400
O 	O 	0.45770 0.50820 0.06590 -0.45700
O 	O 	0.16650 0.21340 0.20490 -0.20100
O 	O 	0.37390 0.46070 0.95880 -0.44200
O 	O 	0.32980 0.35770 0.20900 -0.21000
O 	O 	0.37700 0.90440 0.01820 -0.36100
O 	O 	0.14380 0.28880 0.79200 -0.22100
O 	O 	0.20670 0.35450 0.15300 -0.20800
O 	O 	0.03930 0.49030 0.43260 -0.45600
O 	O 	0.37410 0.03010 0.03390 -0.42200
