data_crystal

_cell_length_a 14.93510
_cell_length_b 19.03320
_cell_length_c 30.34110
_cell_angle_alpha 96.82390
_cell_angle_beta  90.00000
_cell_angle_gamma 113.10000

_symmetry_space_group_name_	'P 1'
_symmetry_space_group_name_H-M	'P 1'

loop_
_symmetry_equiv_pos_as_xyz
  x,y,z

loop_
_atom_site_label
_atom_site_type_symbol
_atom_site_fract_x
_atom_site_fract_y
_atom_site_fract_z
_atom_site_charge
Pr	Pr	0.37576 0.82961 0.15835 2.03700
Pr	Pr	0.37848 0.58642 0.64450 2.04200
Pr	Pr	0.45385 0.82961 0.65835 2.03700
Pr	Pr	0.20794 0.58642 0.14450 2.04200
H 	H 	0.36820 0.06820 0.23640 0.05500
H 	H 	0.23710 0.33580 0.10390 0.05800
H 	H 	0.96250 0.62640 0.14570 -0.00500
H 	H 	0.32920 0.05840 0.10330 0.06800
H 	H 	0.30260 0.29860 0.24840 0.06100
H 	H 	0.33920 0.17960 0.24830 0.06700
H 	H 	0.23670 0.59980 0.51460 0.02800
H 	H 	0.39660 0.81060 0.31140 0.02000
H 	H 	0.45510 0.80560 0.50540 0.03600
H 	H 	0.26470 0.40240 0.23680 0.05800
H 	H 	0.17990 0.59260 0.44240 0.08900
H 	H 	0.54150 0.57500 0.13850 0.03000
H 	H 	0.16230 0.61020 0.28680 0.02300
H 	H 	0.15370 0.59620 0.36180 0.09100
H 	H 	0.57850 0.79960 0.15510 -0.06600
H 	H 	0.74600 0.83820 0.15610 0.07900
H 	H 	0.07580 0.85940 0.16250 0.03300
H 	H 	0.92140 0.85940 0.16180 0.07400
H 	H 	0.70000 0.06820 0.73640 0.05400
H 	H 	0.09870 0.33580 0.60390 0.05800
H 	H 	0.66390 0.62640 0.64570 -0.00500
H 	H 	0.72920 0.05840 0.60330 0.06700
H 	H 	0.99600 0.29860 0.74840 0.06000
H 	H 	0.84040 0.17960 0.74830 0.06700
H 	H 	0.36310 0.59980 0.01460 0.02800
H 	H 	0.41400 0.81060 0.81140 0.02000
H 	H 	0.35050 0.80560 0.00540 0.03600
H 	H 	0.13770 0.40240 0.73680 0.05800
H 	H 	0.41270 0.59260 0.94240 0.08900
H 	H 	0.03350 0.57500 0.63850 0.03000
H 	H 	0.44790 0.61020 0.78680 0.02300
H 	H 	0.44250 0.59620 0.86180 0.09100
H 	H 	0.22110 0.79960 0.65510 -0.06600
H 	H 	0.09220 0.83820 0.65610 0.07900
H 	H 	0.78360 0.85940 0.66250 0.03300
H 	H 	0.93800 0.85940 0.66180 0.07400
C 	C 	0.35426 0.08872 0.21221 0.00400
C 	C 	0.36897 0.97894 0.16237 0.30100
C 	C 	0.25062 0.32904 0.13266 0.00800
C 	C 	0.27514 0.69248 0.38105 0.06100
C 	C 	0.28960 0.69080 0.42914 0.05400
C 	C 	0.31583 0.18606 0.18316 0.03000
C 	C 	0.95522 0.67304 0.14882 0.06800
C 	C 	0.35122 0.05144 0.16905 -0.06400
C 	C 	0.54239 0.68298 0.14795 -0.17500
C 	C 	0.33100 0.08200 0.13213 0.00900
C 	C 	0.35256 0.70192 0.51720 -0.14300
C 	C 	0.27988 0.71136 0.29139 -0.15300
C 	C 	0.28108 0.71696 0.24240 0.44700
C 	C 	0.21971 0.44602 0.16273 0.30600
C 	C 	0.38812 0.70184 0.56315 0.42200
C 	C 	0.29011 0.30622 0.21972 -0.08000
C 	C 	0.31401 0.14862 0.14040 -0.05300
C 	C 	0.13834 0.74768 0.15264 0.43700
C 	C 	0.03536 0.74212 0.15354 -0.15500
C 	C 	0.33684 0.15548 0.21953 -0.07800
C 	C 	0.26988 0.63896 0.49775 0.05900
C 	C 	0.34927 0.76714 0.32097 0.06900
C 	C 	0.24650 0.37960 0.16950 -0.06500
C 	C 	0.37111 0.75362 0.44848 -0.07600
C 	C 	0.86253 0.67506 0.14882 -0.09000
C 	C 	0.68268 0.65356 0.14475 -0.09500
C 	C 	0.43467 0.66026 0.14909 0.42100
C 	C 	0.34576 0.75592 0.36532 -0.08800
C 	C 	0.40272 0.76184 0.49273 0.05100
C 	C 	0.26688 0.36816 0.21266 0.00200
C 	C 	0.23631 0.63342 0.45431 -0.10900
C 	C 	0.29460 0.25580 0.18344 0.03000
C 	C 	0.27527 0.26874 0.14061 -0.05700
C 	C 	0.58110 0.62720 0.14290 0.07500
C 	C 	0.20824 0.64748 0.30709 0.07400
C 	C 	0.74469 0.73118 0.15081 0.06300
C 	C 	0.20331 0.63782 0.35180 -0.11700
C 	C 	0.84957 0.74414 0.15331 0.04400
C 	C 	0.60525 0.76270 0.15260 0.09900
C 	C 	0.70556 0.78612 0.15360 -0.15200
C 	C 	0.02174 0.81288 0.15880 0.05700
C 	C 	0.92957 0.81314 0.15850 -0.11300
C 	C 	0.73446 0.08872 0.71221 0.00500
C 	C 	0.60997 0.97894 0.66237 0.30100
C 	C 	0.07842 0.32904 0.63266 0.00800
C 	C 	0.41734 0.69248 0.88105 0.06100
C 	C 	0.40120 0.69080 0.92914 0.05400
C 	C 	0.87023 0.18606 0.68316 0.03000
C 	C 	0.71782 0.67304 0.64882 0.06800
C 	C 	0.70022 0.05144 0.66905 -0.06500
C 	C 	0.14059 0.68298 0.64795 -0.17500
C 	C 	0.75100 0.08200 0.63213 0.00900
C 	C 	0.34936 0.70192 0.01720 -0.14400
C 	C 	0.43148 0.71136 0.79139 -0.15300
C 	C 	0.43588 0.71696 0.74240 0.44700
C 	C 	0.22631 0.44602 0.66273 0.30600
C 	C 	0.31372 0.70184 0.06315 0.42200
C 	C 	0.01611 0.30622 0.71972 -0.08000
C 	C 	0.83461 0.14862 0.64040 -0.05300
C 	C 	0.60934 0.74768 0.65264 0.43700
C 	C 	0.70676 0.74212 0.65354 -0.15500
C 	C 	0.81864 0.15548 0.71953 -0.07800
C 	C 	0.36908 0.63896 0.99775 0.06000
C 	C 	0.41787 0.76714 0.82097 0.06900
C 	C 	0.13310 0.37960 0.66950 -0.06500
C 	C 	0.38251 0.75362 0.94848 -0.07600
C 	C 	0.81253 0.67506 0.64882 -0.09000
C 	C 	0.97088 0.65356 0.64475 -0.09500
C 	C 	0.22559 0.66026 0.64909 0.42100
C 	C 	0.41016 0.75592 0.86532 -0.08800
C 	C 	0.35912 0.76184 0.99273 0.05200
C 	C 	0.10128 0.36816 0.71266 0.00200
C 	C 	0.39711 0.63342 0.95431 -0.10900
C 	C 	0.96120 0.25580 0.68344 0.03000
C 	C 	0.99347 0.26874 0.64061 -0.05700
C 	C 	0.04610 0.62720 0.64290 0.07500
C 	C 	0.43924 0.64748 0.80709 0.07400
C 	C 	0.98649 0.73118 0.65081 0.06300
C 	C 	0.43451 0.63782 0.85180 -0.11700
C 	C 	0.89457 0.74414 0.65331 0.04400
C 	C 	0.15745 0.76270 0.65260 0.09900
C 	C 	0.08056 0.78612 0.65360 -0.15200
C 	C 	0.79114 0.81288 0.65880 0.05700
C 	C 	0.88357 0.81314 0.65850 -0.11300
S 	S 	0.28365 0.19678 0.09991 0.31700
S 	S 	0.74928 0.59476 0.14411 0.33400
S 	S 	0.43122 0.81478 0.40873 0.33400
S 	S 	0.91313 0.19678 0.59991 0.31700
S 	S 	0.84548 0.59476 0.64411 0.33400
S 	S 	0.38356 0.81478 0.90873 0.33400
O 	O 	0.39360 0.95688 0.19663 -0.45200
O 	O 	0.32912 0.78124 0.22997 -0.51500
O 	O 	0.44628 0.76516 0.58372 -0.51200
O 	O 	0.35739 0.63738 0.57717 -0.51200
O 	O 	0.35817 0.94190 0.12424 -0.40200
O 	O 	0.19869 0.45276 0.12314 -0.44200
O 	O 	0.23376 0.65512 0.21763 -0.53200
O 	O 	0.40153 0.71238 0.15460 -0.60700
O 	O 	0.22033 0.49226 0.19543 -0.41000
O 	O 	0.36288 0.22756 0.07152 -0.21000
O 	O 	0.20555 0.81222 0.16304 -0.48600
O 	O 	0.37948 0.59042 0.14585 -0.44000
O 	O 	0.14882 0.68564 0.14052 -0.56700
O 	O 	0.19033 0.15006 0.07854 -0.20600
O 	O 	0.73736 0.54732 0.10227 -0.23000
O 	O 	0.52479 0.81318 0.40140 -0.22300
O 	O 	0.42759 0.88938 0.41807 -0.21700
O 	O 	0.73337 0.55674 0.18312 -0.22600
O 	O 	0.56328 0.95688 0.69663 -0.45200
O 	O 	0.45212 0.78124 0.72997 -0.51500
O 	O 	0.31888 0.76516 0.08372 -0.51200
O 	O 	0.27999 0.63738 0.07717 -0.51200
O 	O 	0.58373 0.94190 0.62424 -0.40200
O 	O 	0.25407 0.45276 0.62314 -0.44200
O 	O 	0.42136 0.65512 0.71763 -0.53200
O 	O 	0.31085 0.71238 0.65460 -0.60700
O 	O 	0.27193 0.49226 0.69543 -0.41000
O 	O 	0.86468 0.22756 0.57152 -0.21000
O 	O 	0.60667 0.81222 0.66304 -0.48600
O 	O 	0.21094 0.59042 0.64585 -0.44000
O 	O 	0.53682 0.68564 0.64052 -0.56700
O 	O 	0.95973 0.15006 0.57854 -0.20600
O 	O 	0.80996 0.54732 0.60227 -0.23000
O 	O 	0.28839 0.81318 0.90140 -0.22300
O 	O 	0.46179 0.88938 0.91807 -0.21700
O 	O 	0.82337 0.55674 0.68312 -0.22600
Pr	Pr	0.54615 0.17039 0.34165 2.03600
Pr	Pr	0.79206 0.41358 0.85550 2.04100
Pr	Pr	0.62424 0.17039 0.84165 2.03600
Pr	Pr	0.62152 0.41358 0.35550 2.04100
H 	H 	0.30000 0.93180 0.26360 0.05400
H 	H 	0.90130 0.66420 0.39610 0.05800
H 	H 	0.33610 0.37360 0.35430 -0.00500
H 	H 	0.27080 0.94160 0.39670 0.06700
H 	H 	0.00400 0.70140 0.25160 0.06000
H 	H 	0.15960 0.82040 0.25170 0.06700
H 	H 	0.63690 0.40020 0.98540 0.02800
H 	H 	0.58600 0.18940 0.18860 0.02000
H 	H 	0.64950 0.19440 0.99460 0.03600
H 	H 	0.86230 0.59760 0.26320 0.05800
H 	H 	0.58730 0.40740 0.05760 0.08900
H 	H 	0.96650 0.42500 0.36150 0.03000
H 	H 	0.55210 0.38980 0.21320 0.02300
H 	H 	0.55750 0.40380 0.13820 0.09100
H 	H 	0.77890 0.20040 0.34490 -0.06600
H 	H 	0.90780 0.16180 0.34390 0.07900
H 	H 	0.21640 0.14060 0.33750 0.03300
H 	H 	0.06200 0.14060 0.33820 0.07400
H 	H 	0.63180 0.93180 0.76360 0.05500
H 	H 	0.76290 0.66420 0.89610 0.05800
H 	H 	0.03750 0.37360 0.85430 -0.00500
H 	H 	0.67080 0.94160 0.89670 0.06800
H 	H 	0.69740 0.70140 0.75160 0.06100
H 	H 	0.66080 0.82040 0.75170 0.06700
H 	H 	0.76330 0.40020 0.48540 0.02800
H 	H 	0.60340 0.18940 0.68860 0.02000
H 	H 	0.54490 0.19440 0.49460 0.03600
H 	H 	0.73530 0.59760 0.76320 0.05800
H 	H 	0.82010 0.40740 0.55760 0.08900
H 	H 	0.45850 0.42500 0.86150 0.03000
H 	H 	0.83770 0.38980 0.71320 0.02300
H 	H 	0.84630 0.40380 0.63820 0.09100
H 	H 	0.42150 0.20040 0.84490 -0.06600
H 	H 	0.25400 0.16180 0.84390 0.07900
H 	H 	0.92420 0.14060 0.83750 0.03300
H 	H 	0.07860 0.14060 0.83820 0.07400
C 	C 	0.26554 0.91128 0.28779 0.00500
C 	C 	0.39003 0.02106 0.33763 0.30100
C 	C 	0.92158 0.67096 0.36734 0.00800
C 	C 	0.58266 0.30752 0.11895 0.06100
C 	C 	0.59880 0.30920 0.07086 0.05400
C 	C 	0.12977 0.81394 0.31684 0.03000
C 	C 	0.28218 0.32696 0.35118 0.06800
C 	C 	0.29978 0.94856 0.33095 -0.06500
C 	C 	0.85941 0.31702 0.35205 -0.17500
C 	C 	0.24900 0.91800 0.36787 0.00900
C 	C 	0.65064 0.29808 0.98280 -0.14400
C 	C 	0.56852 0.28864 0.20861 -0.15300
C 	C 	0.56412 0.28304 0.25760 0.44700
C 	C 	0.77369 0.55398 0.33727 0.30600
C 	C 	0.68628 0.29816 0.93685 0.42200
C 	C 	0.98389 0.69378 0.28028 -0.08000
C 	C 	0.16539 0.85138 0.35960 -0.05300
C 	C 	0.39066 0.25232 0.34736 0.43700
C 	C 	0.29324 0.25788 0.34646 -0.15500
C 	C 	0.18136 0.84452 0.28047 -0.07800
C 	C 	0.63092 0.36104 0.00225 0.06000
C 	C 	0.58213 0.23286 0.17903 0.06900
C 	C 	0.86690 0.62040 0.33050 -0.06500
C 	C 	0.61749 0.24638 0.05152 -0.07600
C 	C 	0.18747 0.32494 0.35118 -0.09000
C 	C 	0.02912 0.34644 0.35525 -0.09500
C 	C 	0.77441 0.33974 0.35091 0.42100
C 	C 	0.58984 0.24408 0.13468 -0.08800
C 	C 	0.64088 0.23816 0.00727 0.05200
C 	C 	0.89872 0.63184 0.28734 0.00200
C 	C 	0.60289 0.36658 0.04569 -0.10900
C 	C 	0.03880 0.74420 0.31656 0.03000
C 	C 	0.00653 0.73126 0.35939 -0.05700
C 	C 	0.95390 0.37280 0.35710 0.07500
C 	C 	0.56076 0.35252 0.19291 0.07400
C 	C 	0.01351 0.26882 0.34919 0.06300
C 	C 	0.56549 0.36218 0.14820 -0.11700
C 	C 	0.10543 0.25586 0.34669 0.04400
C 	C 	0.84255 0.23730 0.34740 0.09900
C 	C 	0.91944 0.21388 0.34640 -0.15200
C 	C 	0.20886 0.18712 0.34120 0.05700
C 	C 	0.11643 0.18686 0.34150 -0.11300
C 	C 	0.64574 0.91128 0.78779 0.00400
C 	C 	0.63103 0.02106 0.83763 0.30100
C 	C 	0.74938 0.67096 0.86734 0.00800
C 	C 	0.72486 0.30752 0.61895 0.06100
C 	C 	0.71040 0.30920 0.57086 0.05400
C 	C 	0.68417 0.81394 0.81684 0.03000
C 	C 	0.04478 0.32696 0.85118 0.06800
C 	C 	0.64878 0.94856 0.83095 -0.06400
C 	C 	0.45761 0.31702 0.85205 -0.17500
C 	C 	0.66900 0.91800 0.86787 0.00900
C 	C 	0.64744 0.29808 0.48280 -0.14300
C 	C 	0.72012 0.28864 0.70861 -0.15300
C 	C 	0.71892 0.28304 0.75760 0.44700
C 	C 	0.78029 0.55398 0.83727 0.30600
C 	C 	0.61188 0.29816 0.43685 0.42200
C 	C 	0.70989 0.69378 0.78028 -0.08000
C 	C 	0.68599 0.85138 0.85960 -0.05300
C 	C 	0.86166 0.25232 0.84736 0.43700
C 	C 	0.96464 0.25788 0.84646 -0.15500
C 	C 	0.66316 0.84452 0.78047 -0.07800
C 	C 	0.73012 0.36104 0.50225 0.05900
C 	C 	0.65073 0.23286 0.67903 0.06900
C 	C 	0.75350 0.62040 0.83050 -0.06500
C 	C 	0.62889 0.24638 0.55152 -0.07600
C 	C 	0.13747 0.32494 0.85118 -0.09000
C 	C 	0.31732 0.34644 0.85525 -0.09500
C 	C 	0.56533 0.33974 0.85091 0.42100
C 	C 	0.65424 0.24408 0.63468 -0.08800
C 	C 	0.59728 0.23816 0.50727 0.05100
C 	C 	0.73312 0.63184 0.78734 0.00200
C 	C 	0.76369 0.36658 0.54569 -0.10900
C 	C 	0.70540 0.74420 0.81656 0.03000
C 	C 	0.72473 0.73126 0.85939 -0.05700
C 	C 	0.41890 0.37280 0.85710 0.07500
C 	C 	0.79176 0.35252 0.69291 0.07400
C 	C 	0.25531 0.26882 0.84919 0.06300
C 	C 	0.79669 0.36218 0.64820 -0.11700
C 	C 	0.15043 0.25586 0.84669 0.04400
C 	C 	0.39475 0.23730 0.84740 0.09900
C 	C 	0.29444 0.21388 0.84640 -0.15200
C 	C 	0.97826 0.18712 0.84120 0.05700
C 	C 	0.07043 0.18686 0.84150 -0.11300
S 	S 	0.08687 0.80322 0.40009 0.31700
S 	S 	0.15452 0.40524 0.35589 0.33400
S 	S 	0.61644 0.18522 0.09127 0.33400
S 	S 	0.71635 0.80322 0.90009 0.31700
S 	S 	0.25072 0.40524 0.85589 0.33400
S 	S 	0.56878 0.18522 0.59127 0.33400
O 	O 	0.43672 0.04312 0.30337 -0.45200
O 	O 	0.54788 0.21876 0.27003 -0.51500
O 	O 	0.68112 0.23484 0.91628 -0.51200
O 	O 	0.72001 0.36262 0.92283 -0.51200
O 	O 	0.41627 0.05810 0.37576 -0.40200
O 	O 	0.74593 0.54724 0.37686 -0.44200
O 	O 	0.57864 0.34488 0.28237 -0.53200
O 	O 	0.68915 0.28762 0.34540 -0.60700
O 	O 	0.72807 0.50774 0.30457 -0.41000
O 	O 	0.13532 0.77244 0.42848 -0.21000
O 	O 	0.39333 0.18778 0.33696 -0.48600
O 	O 	0.78906 0.40958 0.35415 -0.44000
O 	O 	0.46318 0.31436 0.35948 -0.56700
O 	O 	0.04027 0.84994 0.42146 -0.20600
O 	O 	0.19004 0.45268 0.39773 -0.23000
O 	O 	0.71161 0.18682 0.09860 -0.22300
O 	O 	0.53821 0.11062 0.08193 -0.21700
O 	O 	0.17663 0.44326 0.31688 -0.22600
O 	O 	0.60640 0.04312 0.80337 -0.45200
O 	O 	0.67088 0.21876 0.77003 -0.51500
O 	O 	0.55372 0.23484 0.41628 -0.51200
O 	O 	0.64261 0.36262 0.42283 -0.51200
O 	O 	0.64183 0.05810 0.87576 -0.40200
O 	O 	0.80131 0.54724 0.87686 -0.44200
O 	O 	0.76624 0.34488 0.78237 -0.53200
O 	O 	0.59847 0.28762 0.84540 -0.60700
O 	O 	0.77967 0.50774 0.80457 -0.41000
O 	O 	0.63712 0.77244 0.92848 -0.21000
O 	O 	0.79445 0.18778 0.83696 -0.48600
O 	O 	0.62052 0.40958 0.85415 -0.44000
O 	O 	0.85118 0.31436 0.85948 -0.56700
O 	O 	0.80967 0.84994 0.92146 -0.20600
O 	O 	0.26264 0.45268 0.89773 -0.23000
O 	O 	0.47521 0.18682 0.59860 -0.22300
O 	O 	0.57241 0.11062 0.58193 -0.21700
O 	O 	0.26663 0.44326 0.81688 -0.22600
