data_crystal

_cell_length_a 11.75270
_cell_length_b 12.48290
_cell_length_c 16.60890
_cell_angle_alpha 90.00000
_cell_angle_beta  90.47700
_cell_angle_gamma 90.00000

_symmetry_space_group_name_	'P 1'
_symmetry_space_group_name_H-M	'P 1'

loop_
_symmetry_equiv_pos_as_xyz
  x,y,z

loop_
_atom_site_label
_atom_site_type_symbol
_atom_site_fract_x
_atom_site_fract_y
_atom_site_fract_z
_atom_site_charge
Zn	Zn	0.64865 0.75197 0.74947 1.21300
Zn	Zn	0.35135 0.24803 0.25053 1.21300
H 	H 	0.73570 0.73940 0.57730 0.00200
H 	H 	0.81950 0.92390 0.75700 0.00400
H 	H 	0.87860 0.80730 0.50070 0.15500
H 	H 	0.95920 0.00280 0.68370 0.13400
H 	H 	0.07710 0.00510 0.56640 0.11300
H 	H 	0.07070 0.90780 0.50660 0.13900
H 	H 	0.07500 0.48480 0.93390 0.11000
H 	H 	0.07840 0.58610 0.99000 0.10600
H 	H 	0.96350 0.50010 0.81210 0.14000
H 	H 	0.88680 0.69200 0.99680 0.16600
H 	H 	0.82330 0.58310 0.73820 0.02000
H 	H 	0.74610 0.76690 0.91880 0.04300
H 	H 	0.26430 0.26060 0.42270 0.00200
H 	H 	0.18050 0.07610 0.24300 0.00400
H 	H 	0.12140 0.19270 0.49930 0.15500
H 	H 	0.04080 0.99720 0.31630 0.13400
H 	H 	0.92290 0.99490 0.43360 0.11300
H 	H 	0.92930 0.09220 0.49340 0.13900
H 	H 	0.92500 0.51520 0.06610 0.11000
H 	H 	0.92160 0.41390 0.01000 0.10600
H 	H 	0.03650 0.49990 0.18790 0.14000
H 	H 	0.11320 0.30800 0.00320 0.16600
H 	H 	0.17670 0.41690 0.26180 0.02000
H 	H 	0.25390 0.23310 0.08120 0.04300
C 	C 	0.53330 0.66090 0.62750 0.41700
C 	C 	0.51470 0.57510 0.56390 -0.20600
C 	C 	0.41290 0.56490 0.52230 0.27000
C 	C 	0.39830 0.49220 0.46050 0.26900
C 	C 	0.52440 0.97580 0.07810 0.29100
C 	C 	0.54180 0.90120 0.01880 0.29400
C 	C 	0.51760 0.92310 0.93800 -0.19000
C 	C 	0.53710 0.83970 0.87280 0.43200
C 	C 	0.78260 0.79200 0.59940 0.15200
C 	C 	0.83100 0.90100 0.70450 0.13700
C 	C 	0.86750 0.83320 0.55260 -0.22000
C 	C 	0.91580 0.94810 0.66110 -0.22400
C 	C 	0.93650 0.91340 0.58270 0.22000
C 	C 	0.02630 0.96350 0.53230 -0.20700
C 	C 	0.02880 0.53230 0.96640 -0.19300
C 	C 	0.94100 0.58570 0.91400 0.18600
C 	C 	0.92040 0.55430 0.83520 -0.20200
C 	C 	0.87460 0.66740 0.94460 -0.21000
C 	C 	0.83500 0.60410 0.79130 0.12900
C 	C 	0.79010 0.71230 0.89710 0.13100
C 	C 	0.46670 0.33910 0.37250 0.41700
C 	C 	0.48530 0.42490 0.43610 -0.20600
C 	C 	0.58710 0.43510 0.47770 0.27000
C 	C 	0.60170 0.50780 0.53950 0.26900
C 	C 	0.47560 0.02420 0.92190 0.29100
C 	C 	0.45820 0.09880 0.98120 0.29400
C 	C 	0.48240 0.07690 0.06200 -0.19000
C 	C 	0.46290 0.16030 0.12720 0.43200
C 	C 	0.21740 0.20800 0.40060 0.15200
C 	C 	0.16900 0.09900 0.29550 0.13700
C 	C 	0.13250 0.16680 0.44740 -0.22000
C 	C 	0.08420 0.05190 0.33890 -0.22400
C 	C 	0.06350 0.08660 0.41730 0.22000
C 	C 	0.97370 0.03650 0.46770 -0.20700
C 	C 	0.97120 0.46770 0.03360 -0.19300
C 	C 	0.05900 0.41430 0.08600 0.18600
C 	C 	0.07960 0.44570 0.16480 -0.20200
C 	C 	0.12540 0.33260 0.05540 -0.21000
C 	C 	0.16500 0.39590 0.20870 0.12900
C 	C 	0.20990 0.28770 0.10290 0.13100
N 	N 	0.76360 0.82350 0.67510 -0.27600
N 	N 	0.76850 0.68090 0.82120 -0.27100
N 	N 	0.23640 0.17650 0.32490 -0.27600
N 	N 	0.23150 0.31910 0.17880 -0.27100
O 	O 	0.58740 0.62930 0.69070 -0.43500
O 	O 	0.50120 0.75300 0.61460 -0.31000
O 	O 	0.59320 0.87280 0.81247 -0.43100
O 	O 	0.50430 0.74750 0.88302 -0.31500
O 	O 	0.41260 0.37070 0.30930 -0.43500
O 	O 	0.49880 0.24700 0.38540 -0.31000
O 	O 	0.40680 0.12720 0.18753 -0.43100
O 	O 	0.49570 0.25250 0.11698 -0.31500
F 	F 	0.32220 0.62270 0.54464 -0.38600
F 	F 	0.29450 0.48640 0.42558 -0.41300
F 	F 	0.55140 0.94760 0.15429 -0.39300
F 	F 	0.58660 0.80610 0.03900 -0.39400
F 	F 	0.67780 0.37730 0.45536 -0.38600
F 	F 	0.70550 0.51360 0.57442 -0.41300
F 	F 	0.44860 0.05240 0.84571 -0.39300
F 	F 	0.41340 0.19390 0.96100 -0.39400
Zn	Zn	0.85135 0.25197 0.75053 1.21400
Zn	Zn	0.14865 0.74803 0.24947 1.21400
H 	H 	0.76430 0.23940 0.92270 0.00100
H 	H 	0.68050 0.42390 0.74300 0.00500
H 	H 	0.62140 0.30730 0.99930 0.15600
H 	H 	0.54080 0.50280 0.81630 0.13200
H 	H 	0.42290 0.50510 0.93360 0.11600
H 	H 	0.42930 0.40780 0.99340 0.14000
H 	H 	0.42500 0.98480 0.56610 0.11000
H 	H 	0.42160 0.08610 0.51000 0.10600
H 	H 	0.53650 0.00010 0.68790 0.14100
H 	H 	0.61320 0.19200 0.50320 0.16700
H 	H 	0.67670 0.08310 0.76180 0.02000
H 	H 	0.75390 0.26690 0.58120 0.04300
H 	H 	0.23570 0.76060 0.07730 0.00100
H 	H 	0.31950 0.57610 0.25700 0.00500
H 	H 	0.37860 0.69270 0.00070 0.15600
H 	H 	0.45920 0.49720 0.18370 0.13200
H 	H 	0.57710 0.49490 0.06640 0.11600
H 	H 	0.57070 0.59220 0.00660 0.14000
H 	H 	0.57500 0.01520 0.43390 0.11000
H 	H 	0.57840 0.91390 0.49000 0.10600
H 	H 	0.46350 0.99990 0.31210 0.14100
H 	H 	0.38680 0.80800 0.49680 0.16700
H 	H 	0.32330 0.91690 0.23820 0.02000
H 	H 	0.24610 0.73310 0.41880 0.04300
C 	C 	0.96670 0.16090 0.87250 0.41700
C 	C 	0.98530 0.07510 0.93610 -0.20500
C 	C 	0.08710 0.06490 0.97770 0.26900
C 	C 	0.10170 0.99220 0.03950 0.26900
C 	C 	0.97560 0.47580 0.42190 0.29100
C 	C 	0.95820 0.40120 0.48120 0.29400
C 	C 	0.98240 0.42310 0.56200 -0.18900
C 	C 	0.96290 0.33970 0.62720 0.43200
C 	C 	0.71740 0.29200 0.90060 0.15200
C 	C 	0.66900 0.40100 0.79550 0.13500
C 	C 	0.63250 0.33320 0.94740 -0.22100
C 	C 	0.58420 0.44810 0.83890 -0.22000
C 	C 	0.56350 0.41340 0.91730 0.22100
C 	C 	0.47370 0.46350 0.96770 -0.21200
C 	C 	0.47120 0.03230 0.53360 -0.19500
C 	C 	0.55900 0.08570 0.58600 0.18800
C 	C 	0.57960 0.05430 0.66480 -0.20300
C 	C 	0.62540 0.16740 0.55540 -0.21100
C 	C 	0.66500 0.10410 0.70870 0.13000
C 	C 	0.70990 0.21230 0.60290 0.13200
C 	C 	0.03330 0.83910 0.12750 0.41700
C 	C 	0.01470 0.92490 0.06390 -0.20500
C 	C 	0.91290 0.93510 0.02230 0.26900
C 	C 	0.89830 0.00780 0.96050 0.26900
C 	C 	0.02440 0.52420 0.57810 0.29100
C 	C 	0.04180 0.59880 0.51880 0.29400
C 	C 	0.01760 0.57690 0.43800 -0.18900
C 	C 	0.03710 0.66030 0.37280 0.43200
C 	C 	0.28260 0.70800 0.09940 0.15200
C 	C 	0.33100 0.59900 0.20450 0.13500
C 	C 	0.36750 0.66680 0.05260 -0.22100
C 	C 	0.41580 0.55190 0.16110 -0.22000
C 	C 	0.43650 0.58660 0.08270 0.22100
C 	C 	0.52630 0.53650 0.03230 -0.21200
C 	C 	0.52880 0.96770 0.46640 -0.19500
C 	C 	0.44100 0.91430 0.41400 0.18800
C 	C 	0.42040 0.94570 0.33520 -0.20300
C 	C 	0.37460 0.83260 0.44460 -0.21100
C 	C 	0.33500 0.89590 0.29130 0.13000
C 	C 	0.29010 0.78770 0.39710 0.13200
N 	N 	0.73640 0.32350 0.82490 -0.27600
N 	N 	0.73150 0.18090 0.67880 -0.27100
N 	N 	0.26360 0.67650 0.17510 -0.27600
N 	N 	0.26850 0.81910 0.32120 -0.27100
O 	O 	0.91260 0.12930 0.80930 -0.43500
O 	O 	0.99880 0.25300 0.88540 -0.31000
O 	O 	0.90680 0.37280 0.68753 -0.43100
O 	O 	0.99570 0.24750 0.61698 -0.31400
O 	O 	0.08740 0.87070 0.19070 -0.43500
O 	O 	0.00120 0.74700 0.11460 -0.31000
O 	O 	0.09320 0.62720 0.31247 -0.43100
O 	O 	0.00430 0.75250 0.38302 -0.31400
F 	F 	0.17780 0.12270 0.95536 -0.38600
F 	F 	0.20550 0.98640 0.07442 -0.41300
F 	F 	0.94860 0.44760 0.34571 -0.39200
F 	F 	0.91340 0.30610 0.46100 -0.39400
F 	F 	0.82220 0.87730 0.04464 -0.38600
F 	F 	0.79450 0.01360 0.92558 -0.41300
F 	F 	0.05140 0.55240 0.65429 -0.39200
F 	F 	0.08660 0.69390 0.53900 -0.39400
