data_crystal

_cell_length_a 23.58490
_cell_length_b 15.70310
_cell_length_c 16.13710
_cell_angle_alpha 90.00000
_cell_angle_beta  124.27400
_cell_angle_gamma 90.00000

_symmetry_space_group_name_	'P 1'
_symmetry_space_group_name_H-M	'P 1'

loop_
_symmetry_equiv_pos_as_xyz
  x,y,z

loop_
_atom_site_label
_atom_site_type_symbol
_atom_site_fract_x
_atom_site_fract_y
_atom_site_fract_z
_atom_site_charge
Eu	Eu	0.81039 0.32798 0.62190 1.83100
C 	C 	0.13010 0.96190 0.32490 -0.16500
C 	C 	0.14180 0.04440 0.36140 0.03200
H 	H 	0.17870 0.05560 0.42860 0.04500
C 	C 	0.10020 0.11080 0.30080 -0.01200
C 	C 	0.04600 0.09480 0.20190 0.18400
C 	C 	0.03290 0.01240 0.16680 -0.19300
H 	H 	0.99490 0.00090 0.10040 0.10700
C 	C 	0.07410 0.94660 0.22660 0.10300
H 	H 	0.06460 0.89020 0.20090 0.01000
C 	C 	0.01880 0.19110 0.07370 0.18600
C 	C 	0.96590 0.22790 0.98610 -0.12600
H 	H 	0.92100 0.23020 0.97200 0.11500
C 	C 	0.97880 0.26160 0.91840 -0.02400
C 	C 	0.04480 0.25870 0.93940 -0.00800
H 	H 	0.05350 0.28030 0.89260 0.02800
C 	C 	0.09770 0.22370 0.02970 -0.07500
C 	C 	0.08450 0.18880 0.09590 -0.10700
H 	H 	0.12060 0.16330 0.15650 0.09500
C 	C 	0.17730 0.89080 0.38850 0.46800
C 	C 	0.92030 0.29740 0.82070 0.29200
C 	C 	0.17070 0.22300 0.05920 0.40900
N 	N 	0.11660 0.19610 0.34380 0.01200
O 	O 	0.16920 0.82170 0.34460 -0.47200
O 	O 	0.22140 0.90680 0.47950 -0.50200
O 	O 	0.15220 0.20220 0.43520 -0.11100
O 	O 	0.09400 0.25710 0.28780 -0.10400
O 	O 	0.21398 0.18230 0.13570 -0.44800
O 	O 	0.18614 0.26190 0.00620 -0.55300
O 	O 	0.93167 0.32240 0.75670 -0.42600
O 	O 	0.86179 0.30020 0.80430 -0.37700
O 	O 	0.00255 0.15830 0.13780 -0.22300
Eu	Eu	0.31039 0.82798 0.62190 1.83200
C 	C 	0.63010 0.46190 0.32490 -0.16500
C 	C 	0.64180 0.54440 0.36140 0.03400
H 	H 	0.67870 0.55560 0.42860 0.04600
C 	C 	0.60020 0.61080 0.30080 -0.01200
C 	C 	0.54600 0.59480 0.20190 0.18600
C 	C 	0.53290 0.51240 0.16680 -0.19400
H 	H 	0.49490 0.50090 0.10040 0.11000
C 	C 	0.57410 0.44660 0.22660 0.10400
H 	H 	0.56460 0.39020 0.20090 0.01000
C 	C 	0.51880 0.69110 0.07370 0.19100
C 	C 	0.46590 0.72790 0.98610 -0.13000
H 	H 	0.42100 0.73020 0.97200 0.11600
C 	C 	0.47880 0.76160 0.91840 -0.02300
C 	C 	0.54480 0.75870 0.93940 -0.01100
H 	H 	0.55350 0.78030 0.89260 0.02900
C 	C 	0.59770 0.72370 0.02970 -0.07200
C 	C 	0.58450 0.68880 0.09590 -0.10900
H 	H 	0.62060 0.66330 0.15650 0.09600
C 	C 	0.67730 0.39080 0.38850 0.46800
C 	C 	0.42030 0.79740 0.82070 0.29100
C 	C 	0.67070 0.72300 0.05920 0.40800
N 	N 	0.61660 0.69610 0.34380 0.01200
O 	O 	0.66920 0.32170 0.34460 -0.47200
O 	O 	0.72140 0.40680 0.47950 -0.50200
O 	O 	0.65220 0.70220 0.43520 -0.11100
O 	O 	0.59400 0.75710 0.28780 -0.10400
O 	O 	0.71398 0.68230 0.13570 -0.44800
O 	O 	0.68614 0.76190 0.00620 -0.55200
O 	O 	0.43167 0.82240 0.75670 -0.42600
O 	O 	0.36179 0.80020 0.80430 -0.37700
O 	O 	0.50255 0.65830 0.13780 -0.22400
Eu	Eu	0.18961 0.32798 0.87810 1.83200
C 	C 	0.86990 0.96190 0.17510 -0.16400
C 	C 	0.85820 0.04440 0.13860 0.03200
H 	H 	0.82130 0.05560 0.07140 0.04600
C 	C 	0.89980 0.11080 0.19920 -0.01200
C 	C 	0.95400 0.09480 0.29810 0.18600
C 	C 	0.96710 0.01240 0.33320 -0.19800
H 	H 	0.00510 0.00090 0.39960 0.11200
C 	C 	0.92590 0.94660 0.27340 0.10600
H 	H 	0.93540 0.89020 0.29910 0.01000
C 	C 	0.98120 0.19110 0.42630 0.18800
C 	C 	0.03410 0.22790 0.51390 -0.12700
H 	H 	0.07900 0.23020 0.52800 0.11500
C 	C 	0.02120 0.26160 0.58160 -0.02500
C 	C 	0.95520 0.25870 0.56060 -0.00800
H 	H 	0.94650 0.28030 0.60740 0.02800
C 	C 	0.90230 0.22370 0.47030 -0.07500
C 	C 	0.91550 0.18880 0.40410 -0.10700
H 	H 	0.87940 0.16330 0.34350 0.09500
C 	C 	0.82270 0.89080 0.11150 0.46800
C 	C 	0.07970 0.29740 0.67930 0.29200
C 	C 	0.82930 0.22300 0.44080 0.40900
N 	N 	0.88340 0.19610 0.15620 0.01200
O 	O 	0.83080 0.82170 0.15540 -0.47200
O 	O 	0.77860 0.90680 0.02050 -0.50100
O 	O 	0.84780 0.20220 0.06480 -0.11200
O 	O 	0.90600 0.25710 0.21220 -0.10400
O 	O 	0.78602 0.18230 0.36430 -0.44800
O 	O 	0.81386 0.26190 0.49380 -0.55300
O 	O 	0.06833 0.32240 0.74330 -0.42600
O 	O 	0.13821 0.30020 0.69570 -0.37700
O 	O 	0.99745 0.15830 0.36220 -0.22400
Eu	Eu	0.68961 0.82798 0.87810 1.83000
C 	C 	0.36990 0.46190 0.17510 -0.16500
C 	C 	0.35820 0.54440 0.13860 0.03400
H 	H 	0.32130 0.55560 0.07140 0.04600
C 	C 	0.39980 0.61080 0.19920 -0.01200
C 	C 	0.45400 0.59480 0.29810 0.18600
C 	C 	0.46710 0.51240 0.33320 -0.19400
H 	H 	0.50510 0.50090 0.39960 0.11000
C 	C 	0.42590 0.44660 0.27340 0.10400
H 	H 	0.43540 0.39020 0.29910 0.01000
C 	C 	0.48120 0.69110 0.42630 0.18900
C 	C 	0.53410 0.72790 0.51390 -0.12700
H 	H 	0.57900 0.73020 0.52800 0.11600
C 	C 	0.52120 0.76160 0.58160 -0.02400
C 	C 	0.45520 0.75870 0.56060 -0.00800
H 	H 	0.44650 0.78030 0.60740 0.02800
C 	C 	0.40230 0.72370 0.47030 -0.07400
C 	C 	0.41550 0.68880 0.40410 -0.10700
H 	H 	0.37940 0.66330 0.34350 0.09600
C 	C 	0.32270 0.39080 0.11150 0.46800
C 	C 	0.57970 0.79740 0.67930 0.29200
C 	C 	0.32930 0.72300 0.44080 0.40900
N 	N 	0.38340 0.69610 0.15620 0.01200
O 	O 	0.33080 0.32170 0.15540 -0.47200
O 	O 	0.27860 0.40680 0.02050 -0.50200
O 	O 	0.34780 0.70220 0.06480 -0.11100
O 	O 	0.40600 0.75710 0.21220 -0.10300
O 	O 	0.28602 0.68230 0.36430 -0.44800
O 	O 	0.31386 0.76190 0.49380 -0.55200
O 	O 	0.56833 0.82240 0.74330 -0.42600
O 	O 	0.63821 0.80020 0.69570 -0.37700
O 	O 	0.49745 0.65830 0.36220 -0.22400
Eu	Eu	0.18961 0.67202 0.37810 1.83200
C 	C 	0.86990 0.03810 0.67510 -0.16400
C 	C 	0.85820 0.95560 0.63860 0.03300
H 	H 	0.82130 0.94440 0.57140 0.04600
C 	C 	0.89980 0.88920 0.69920 -0.01100
C 	C 	0.95400 0.90520 0.79810 0.18500
C 	C 	0.96710 0.98760 0.83320 -0.19200
H 	H 	0.00510 0.99910 0.89960 0.10800
C 	C 	0.92590 0.05340 0.77340 0.10400
H 	H 	0.93540 0.10980 0.79910 0.01100
C 	C 	0.98120 0.80890 0.92630 0.18700
C 	C 	0.03410 0.77210 0.01390 -0.12500
H 	H 	0.07900 0.76980 0.02800 0.11500
C 	C 	0.02120 0.73840 0.08160 -0.02400
C 	C 	0.95520 0.74130 0.06060 -0.00800
H 	H 	0.94650 0.71970 0.10740 0.02800
C 	C 	0.90230 0.77630 0.97030 -0.07500
C 	C 	0.91550 0.81120 0.90410 -0.10700
H 	H 	0.87940 0.83670 0.84350 0.09500
C 	C 	0.82270 0.10920 0.61150 0.46800
C 	C 	0.07970 0.70260 0.17930 0.29200
C 	C 	0.82930 0.77700 0.94080 0.40900
N 	N 	0.88340 0.80390 0.65620 0.01200
O 	O 	0.83080 0.17830 0.65540 -0.47200
O 	O 	0.77860 0.09320 0.52050 -0.50200
O 	O 	0.84780 0.79780 0.56480 -0.11100
O 	O 	0.90600 0.74290 0.71220 -0.10400
O 	O 	0.78602 0.81770 0.86430 -0.44800
O 	O 	0.81386 0.73810 0.99380 -0.55300
O 	O 	0.06833 0.67760 0.24330 -0.42600
O 	O 	0.13821 0.69980 0.19570 -0.37700
O 	O 	0.99745 0.84170 0.86220 -0.22300
Eu	Eu	0.68961 0.17202 0.37810 1.83200
C 	C 	0.36990 0.53810 0.67510 -0.16500
C 	C 	0.35820 0.45560 0.63860 0.03400
H 	H 	0.32130 0.44440 0.57140 0.04600
C 	C 	0.39980 0.38920 0.69920 -0.01200
C 	C 	0.45400 0.40520 0.79810 0.18600
C 	C 	0.46710 0.48760 0.83320 -0.19400
H 	H 	0.50510 0.49910 0.89960 0.11000
C 	C 	0.42590 0.55340 0.77340 0.10400
H 	H 	0.43540 0.60980 0.79910 0.01000
C 	C 	0.48120 0.30890 0.92630 0.19100
C 	C 	0.53410 0.27210 0.01390 -0.13000
H 	H 	0.57900 0.26980 0.02800 0.11600
C 	C 	0.52120 0.23840 0.08160 -0.02300
C 	C 	0.45520 0.24130 0.06060 -0.01100
H 	H 	0.44650 0.21970 0.10740 0.02900
C 	C 	0.40230 0.27630 0.97030 -0.07200
C 	C 	0.41550 0.31120 0.90410 -0.10900
H 	H 	0.37940 0.33670 0.84350 0.09600
C 	C 	0.32270 0.60920 0.61150 0.46800
C 	C 	0.57970 0.20260 0.17930 0.29100
C 	C 	0.32930 0.27700 0.94080 0.40800
N 	N 	0.38340 0.30390 0.65620 0.01200
O 	O 	0.33080 0.67830 0.65540 -0.47200
O 	O 	0.27860 0.59320 0.52050 -0.50200
O 	O 	0.34780 0.29780 0.56480 -0.11100
O 	O 	0.40600 0.24290 0.71220 -0.10400
O 	O 	0.28602 0.31770 0.86430 -0.44800
O 	O 	0.31386 0.23810 0.99380 -0.55200
O 	O 	0.56833 0.17760 0.24330 -0.42600
O 	O 	0.63821 0.19980 0.19570 -0.37700
O 	O 	0.49745 0.34170 0.86220 -0.22400
Eu	Eu	0.81039 0.67202 0.12190 1.83200
C 	C 	0.13010 0.03810 0.82490 -0.16400
C 	C 	0.14180 0.95560 0.86140 0.03200
H 	H 	0.17870 0.94440 0.92860 0.04600
C 	C 	0.10020 0.88920 0.80080 -0.01200
C 	C 	0.04600 0.90520 0.70190 0.18600
C 	C 	0.03290 0.98760 0.66680 -0.19800
H 	H 	0.99490 0.99910 0.60040 0.11200
C 	C 	0.07410 0.05340 0.72660 0.10600
H 	H 	0.06460 0.10980 0.70090 0.01000
C 	C 	0.01880 0.80890 0.57370 0.18800
C 	C 	0.96590 0.77210 0.48610 -0.12700
H 	H 	0.92100 0.76980 0.47200 0.11500
C 	C 	0.97880 0.73840 0.41840 -0.02500
C 	C 	0.04480 0.74130 0.43940 -0.00800
H 	H 	0.05350 0.71970 0.39260 0.02800
C 	C 	0.09770 0.77630 0.52970 -0.07500
C 	C 	0.08450 0.81120 0.59590 -0.10700
H 	H 	0.12060 0.83670 0.65650 0.09500
C 	C 	0.17730 0.10920 0.88850 0.46800
C 	C 	0.92030 0.70260 0.32070 0.29200
C 	C 	0.17070 0.77700 0.55920 0.40900
N 	N 	0.11660 0.80390 0.84380 0.01200
O 	O 	0.16920 0.17830 0.84460 -0.47200
O 	O 	0.22140 0.09320 0.97950 -0.50100
O 	O 	0.15220 0.79780 0.93520 -0.11200
O 	O 	0.09400 0.74290 0.78780 -0.10400
O 	O 	0.21398 0.81770 0.63570 -0.44800
O 	O 	0.18614 0.73810 0.50620 -0.55300
O 	O 	0.93167 0.67760 0.25670 -0.42600
O 	O 	0.86179 0.69980 0.30430 -0.37700
O 	O 	0.00255 0.84170 0.63780 -0.22400
Eu	Eu	0.31039 0.17202 0.12190 1.83000
C 	C 	0.63010 0.53810 0.82490 -0.16500
C 	C 	0.64180 0.45560 0.86140 0.03400
H 	H 	0.67870 0.44440 0.92860 0.04600
C 	C 	0.60020 0.38920 0.80080 -0.01200
C 	C 	0.54600 0.40520 0.70190 0.18600
C 	C 	0.53290 0.48760 0.66680 -0.19400
H 	H 	0.49490 0.49910 0.60040 0.11000
C 	C 	0.57410 0.55340 0.72660 0.10400
H 	H 	0.56460 0.60980 0.70090 0.01000
C 	C 	0.51880 0.30890 0.57370 0.18900
C 	C 	0.46590 0.27210 0.48610 -0.12700
H 	H 	0.42100 0.26980 0.47200 0.11600
C 	C 	0.47880 0.23840 0.41840 -0.02400
C 	C 	0.54480 0.24130 0.43940 -0.00800
H 	H 	0.55350 0.21970 0.39260 0.02800
C 	C 	0.59770 0.27630 0.52970 -0.07400
C 	C 	0.58450 0.31120 0.59590 -0.10700
H 	H 	0.62060 0.33670 0.65650 0.09600
C 	C 	0.67730 0.60920 0.88850 0.46800
C 	C 	0.42030 0.20260 0.32070 0.29200
C 	C 	0.67070 0.27700 0.55920 0.40900
N 	N 	0.61660 0.30390 0.84380 0.01200
O 	O 	0.66920 0.67830 0.84460 -0.47200
O 	O 	0.72140 0.59320 0.97950 -0.50200
O 	O 	0.65220 0.29780 0.93520 -0.11100
O 	O 	0.59400 0.24290 0.78780 -0.10300
O 	O 	0.71398 0.31770 0.63570 -0.44800
O 	O 	0.68614 0.23810 0.50620 -0.55200
O 	O 	0.43167 0.17760 0.25670 -0.42600
O 	O 	0.36179 0.19980 0.30430 -0.37700
O 	O 	0.50255 0.34170 0.63780 -0.22400
