data_crystal

_cell_length_a 12.82500
_cell_length_b 13.67200
_cell_length_c 14.22700
_cell_angle_alpha 66.18200
_cell_angle_beta  66.80000
_cell_angle_gamma 77.06400

_symmetry_space_group_name_	'P 1'
_symmetry_space_group_name_H-M	'P 1'

loop_
_symmetry_equiv_pos_as_xyz
  x,y,z

loop_
_atom_site_label
_atom_site_type_symbol
_atom_site_fract_x
_atom_site_fract_y
_atom_site_fract_z
_atom_site_charge
Dy	Dy	0.42861 0.38149 0.51149 1.90400
Dy	Dy	0.43190 0.32041 0.16495 1.84900
Dy	Dy	0.57139 0.61851 0.48851 1.90400
Dy	Dy	0.56810 0.67959 0.83505 1.84900
H 	H 	0.52010 0.27910 0.02680 0.49500
H 	H 	0.44850 0.19160 0.04490 0.74300
H 	H 	0.67500 0.17350 0.49470 0.00300
H 	H 	0.77940 0.86750 0.52620 0.01600
H 	H 	0.59500 0.02760 0.34200 0.00400
H 	H 	0.88210 0.14550 0.48740 0.08600
H 	H 	0.99380 0.14240 0.58090 0.01700
H 	H 	0.98220 0.00900 0.74890 0.07200
H 	H 	0.86000 0.87700 0.81890 0.02000
H 	H 	0.97580 0.73650 0.73730 0.10500
H 	H 	0.04600 0.76340 0.85010 -0.00100
H 	H 	0.22400 0.68730 0.85860 0.09500
H 	H 	0.32770 0.58030 0.75590 -0.01200
H 	H 	0.89150 0.62850 0.70780 0.01900
H 	H 	0.92570 0.62940 0.41480 0.01500
H 	H 	0.19450 0.63430 0.47430 0.01300
H 	H 	0.14630 0.48730 0.05690 0.00300
H 	H 	0.95530 0.54100 0.11110 0.09400
H 	H 	0.89170 0.68050 0.17820 0.00700
H 	H 	0.01960 0.76160 0.19560 0.09400
H 	H 	0.20480 0.87990 0.07760 0.01600
H 	H 	0.41750 0.84260 0.22680 0.00500
H 	H 	0.29850 0.58430 0.24990 0.01000
H 	H 	0.47990 0.72090 0.97320 0.49400
H 	H 	0.55150 0.80840 0.95510 0.74200
H 	H 	0.32500 0.82650 0.50530 0.00300
H 	H 	0.22060 0.13250 0.47380 0.01600
H 	H 	0.40500 0.97240 0.65800 0.00400
H 	H 	0.11790 0.85450 0.51260 0.08600
H 	H 	0.00620 0.85760 0.41910 0.01700
H 	H 	0.01780 0.99100 0.25110 0.07200
H 	H 	0.14000 0.12300 0.18110 0.02000
H 	H 	0.02420 0.26350 0.26270 0.10500
H 	H 	0.95400 0.23660 0.14990 -0.00100
H 	H 	0.77600 0.31270 0.14140 0.09500
H 	H 	0.67230 0.41970 0.24410 -0.01200
H 	H 	0.10850 0.37150 0.29220 0.01900
H 	H 	0.07430 0.37060 0.58520 0.01500
H 	H 	0.80550 0.36570 0.52570 0.01300
H 	H 	0.85370 0.51270 0.94310 0.00300
H 	H 	0.04470 0.45900 0.88890 0.09400
H 	H 	0.10830 0.31950 0.82180 0.00700
H 	H 	0.98040 0.23840 0.80440 0.09400
H 	H 	0.79520 0.12010 0.92240 0.01600
H 	H 	0.58250 0.15740 0.77320 0.00500
H 	H 	0.70150 0.41570 0.75010 0.01000
C 	C 	0.56110 0.21740 0.35730 0.50700
C 	C 	0.62530 0.11710 0.40900 -0.19700
C 	C 	0.67840 0.11310 0.47870 0.06700
C 	C 	0.73750 0.01700 0.52510 -0.07200
C 	C 	0.73890 0.93080 0.49770 0.05900
C 	C 	0.63090 0.02490 0.38850 0.11100
C 	C 	0.80210 0.01130 0.59510 0.10200
C 	C 	0.87720 0.09070 0.55400 -0.14200
C 	C 	0.94390 0.08920 0.61040 0.05300
C 	C 	0.93760 0.00940 0.71060 -0.11800
C 	C 	0.86440 0.93120 0.75190 0.04600
C 	C 	0.79590 0.93080 0.69590 -0.12800
C 	C 	0.71460 0.84430 0.75050 0.31200
C 	C 	0.29030 0.52240 0.62280 0.42900
C 	C 	0.21550 0.59600 0.68200 -0.19200
C 	C 	0.10710 0.64060 0.67670 0.13300
C 	C 	0.04700 0.70430 0.74050 -0.18300
C 	C 	0.08910 0.72130 0.80830 0.09300
C 	C 	0.19480 0.67580 0.81390 -0.17100
C 	C 	0.25700 0.61250 0.75140 0.10900
C 	C 	0.05490 0.63120 0.60390 -0.08900
C 	C 	0.93670 0.63020 0.63750 0.06900
C 	C 	0.88650 0.63200 0.56530 -0.19300
C 	C 	0.95830 0.63020 0.46240 0.11000
C 	C 	0.11610 0.63200 0.49850 0.06500
C 	C 	0.76030 0.63800 0.59620 0.51800
C 	C 	0.32460 0.56510 0.03710 0.48300
C 	C 	0.20070 0.59430 0.08940 -0.20900
C 	C 	0.12130 0.54350 0.08350 0.10400
C 	C 	0.00680 0.57520 0.11630 -0.16200
C 	C 	0.96870 0.65800 0.15710 0.08900
C 	C 	0.04600 0.70730 0.16640 -0.17400
C 	C 	0.16190 0.67730 0.13300 0.13800
C 	C 	0.23950 0.72490 0.15570 -0.08400
C 	C 	0.24720 0.83430 0.12090 0.05700
C 	C 	0.37230 0.81290 0.20930 0.10600
C 	C 	0.36960 0.70240 0.24990 -0.17200
C 	C 	0.30210 0.65820 0.22310 0.07200
C 	C 	0.43650 0.63230 0.32120 0.45400
C 	C 	0.43890 0.78260 0.64270 0.50700
C 	C 	0.37470 0.88290 0.59100 -0.19700
C 	C 	0.32160 0.88690 0.52130 0.06700
C 	C 	0.26250 0.98300 0.47490 -0.07200
C 	C 	0.26110 0.06920 0.50230 0.05900
C 	C 	0.36910 0.97510 0.61150 0.11100
C 	C 	0.19790 0.98870 0.40490 0.10200
C 	C 	0.12280 0.90930 0.44600 -0.14200
C 	C 	0.05610 0.91080 0.38960 0.05300
C 	C 	0.06240 0.99060 0.28940 -0.11800
C 	C 	0.13560 0.06880 0.24810 0.04600
C 	C 	0.20410 0.06920 0.30410 -0.12800
C 	C 	0.28540 0.15570 0.24950 0.31200
C 	C 	0.70970 0.47760 0.37720 0.42900
C 	C 	0.78450 0.40400 0.31800 -0.19200
C 	C 	0.89290 0.35940 0.32330 0.13300
C 	C 	0.95300 0.29570 0.25950 -0.18300
C 	C 	0.91090 0.27870 0.19170 0.09300
C 	C 	0.80520 0.32420 0.18610 -0.17100
C 	C 	0.74300 0.38750 0.24860 0.10900
C 	C 	0.94510 0.36880 0.39610 -0.08900
C 	C 	0.06330 0.36980 0.36250 0.06900
C 	C 	0.11350 0.36800 0.43470 -0.19300
C 	C 	0.04170 0.36980 0.53760 0.11000
C 	C 	0.88390 0.36800 0.50150 0.06500
C 	C 	0.23970 0.36200 0.40380 0.51800
C 	C 	0.67540 0.43490 0.96290 0.48300
C 	C 	0.79930 0.40570 0.91060 -0.20900
C 	C 	0.87870 0.45650 0.91650 0.10400
C 	C 	0.99320 0.42480 0.88370 -0.16200
C 	C 	0.03130 0.34200 0.84290 0.08900
C 	C 	0.95400 0.29270 0.83360 -0.17400
C 	C 	0.83810 0.32270 0.86700 0.13800
C 	C 	0.76050 0.27510 0.84430 -0.08400
C 	C 	0.75280 0.16570 0.87910 0.05700
C 	C 	0.62770 0.18710 0.79070 0.10600
C 	C 	0.63040 0.29760 0.75010 -0.17200
C 	C 	0.69790 0.34180 0.77690 0.07200
C 	C 	0.56350 0.36770 0.67880 0.45400
N 	N 	0.68540 0.93230 0.43220 -0.14800
N 	N 	0.07110 0.62950 0.42860 -0.13400
N 	N 	0.31220 0.87900 0.14540 -0.13400
N 	N 	0.31460 0.06770 0.56780 -0.14800
N 	N 	0.92890 0.37050 0.57140 -0.13400
N 	N 	0.68780 0.12100 0.85460 -0.13400
O 	O 	0.52560 0.28620 0.40350 -0.55200
O 	O 	0.54830 0.22770 0.27070 -0.50100
O 	O 	0.62110 0.86280 0.73500 -0.40400
O 	O 	0.74120 0.75330 0.81240 -0.38100
O 	O 	0.25620 0.43830 0.63500 -0.45100
O 	O 	0.39130 0.54670 0.56110 -0.57200
O 	O 	0.69960 0.64030 0.69060 -0.53200
O 	O 	0.72160 0.63990 0.52750 -0.51500
O 	O 	0.35620 0.46730 0.05050 -0.51200
O 	O 	0.38820 0.64010 0.97740 -0.53400
O 	O 	0.43110 0.53180 0.35270 -0.48000
O 	O 	0.49240 0.67630 0.34820 -0.49500
O 	O 	0.47580 0.23990 0.02890 -1.32600
O 	O 	0.47440 0.71380 0.59650 -0.55200
O 	O 	0.45170 0.77230 0.72930 -0.50100
O 	O 	0.37890 0.13720 0.26500 -0.40400
O 	O 	0.25880 0.24670 0.18760 -0.38100
O 	O 	0.74380 0.56170 0.36500 -0.45100
O 	O 	0.60870 0.45330 0.43890 -0.57200
O 	O 	0.30040 0.35970 0.30940 -0.53200
O 	O 	0.27840 0.36010 0.47250 -0.51500
O 	O 	0.64380 0.53270 0.94950 -0.51200
O 	O 	0.61180 0.35990 0.02260 -0.53400
O 	O 	0.56890 0.46820 0.64730 -0.48000
O 	O 	0.50760 0.32370 0.65180 -0.49500
O 	O 	0.52420 0.76010 0.97110 -1.32600
