data_crystal

_cell_length_a 11.96600
_cell_length_b 19.21550
_cell_length_c 19.21550
_cell_angle_alpha 84.43660
_cell_angle_beta  71.85860
_cell_angle_gamma 71.85860

_symmetry_space_group_name_	'P 1'
_symmetry_space_group_name_H-M	'P 1'

loop_
_symmetry_equiv_pos_as_xyz
  x,y,z

loop_
_atom_site_label
_atom_site_type_symbol
_atom_site_fract_x
_atom_site_fract_y
_atom_site_fract_z
_atom_site_charge
Tb	Tb	0.48132 0.20114 0.63722 2.11400
Tb	Tb	0.42976 0.02148 0.60530 1.96900
Tb	Tb	0.81967 0.29886 0.86278 2.11700
Tb	Tb	0.55654 0.47852 0.89470 1.97300
Tb	Tb	0.11853 0.36278 0.70115 2.11300
Tb	Tb	0.03506 0.39470 0.52148 1.97200
Tb	Tb	0.68246 0.13722 0.79885 2.11500
Tb	Tb	0.45124 0.10530 0.97852 1.95500
Tb	Tb	0.51868 0.79886 0.36278 2.11500
Tb	Tb	0.57024 0.97852 0.39470 1.97000
Tb	Tb	0.18033 0.70114 0.13722 2.11700
Tb	Tb	0.44346 0.52148 0.10530 1.97300
Tb	Tb	0.88147 0.63722 0.29885 2.11300
Tb	Tb	0.96494 0.60530 0.47852 1.97200
Tb	Tb	0.31754 0.86278 0.20115 2.11500
Tb	Tb	0.54876 0.89470 0.02148 1.95500
H 	H 	0.64870 0.21020 0.43960 0.14800
H 	H 	0.76570 0.14360 0.43740 0.15600
H 	H 	0.79930 0.09290 0.54990 0.13000
H 	H 	0.86090 0.15610 0.53570 0.13900
H 	H 	0.54350 0.94070 0.77530 0.12500
H 	H 	0.67660 0.91230 0.72130 0.13900
H 	H 	0.46130 0.83870 0.68270 0.12200
H 	H 	0.48390 0.84980 0.75660 0.12300
H 	H 	0.05280 0.15010 0.67050 0.15700
H 	H 	0.11780 0.09960 0.72480 0.14700
H 	H 	0.09910 0.07360 0.55160 0.13600
H 	H 	0.14660 0.14150 0.54830 0.13000
H 	H 	0.69350 0.23660 0.53020 0.08700
H 	H 	0.60960 0.88660 0.64260 0.08000
H 	H 	0.16910 0.02690 0.63590 0.08400
H 	H 	0.79850 0.28980 0.06040 0.14800
H 	H 	0.84670 0.35640 0.06260 0.15500
H 	H 	0.94210 0.40710 0.95010 0.12600
H 	H 	0.05270 0.34390 0.96430 0.12900
H 	H 	0.75950 0.55930 0.72470 0.12500
H 	H 	0.81020 0.58770 0.77870 0.14000
H 	H 	0.48270 0.66130 0.81730 0.12300
H 	H 	0.59030 0.65020 0.74340 0.12400
H 	H 	0.37340 0.34990 0.82950 0.15900
H 	H 	0.44220 0.40040 0.77520 0.14800
H 	H 	0.22430 0.42640 0.94840 0.13700
H 	H 	0.33640 0.35850 0.95170 0.13000
H 	H 	0.96030 0.26340 0.96980 0.08800
H 	H 	0.63880 0.61340 0.85740 0.08000
H 	H 	0.33190 0.47310 0.86410 0.08400
H 	H 	0.08830 0.56040 0.71020 0.14700
H 	H 	0.20310 0.56260 0.64360 0.15500
H 	H 	0.34920 0.45010 0.59290 0.13000
H 	H 	0.39660 0.46430 0.65610 0.13800
H 	H 	0.31880 0.22470 0.44070 0.12500
H 	H 	0.39790 0.27870 0.41230 0.14000
H 	H 	0.14400 0.31730 0.33870 0.12300
H 	H 	0.24050 0.24340 0.34980 0.12400
H 	H 	0.72330 0.32950 0.65010 0.15900
H 	H 	0.84260 0.27520 0.59960 0.14800
H 	H 	0.65070 0.44840 0.57360 0.13700
H 	H 	0.69490 0.45170 0.64150 0.13100
H 	H 	0.22370 0.46980 0.73660 0.08700
H 	H 	0.25220 0.35740 0.38660 0.08000
H 	H 	0.80500 0.36410 0.52690 0.08500
H 	H 	0.85890 0.93960 0.78980 0.14800
H 	H 	0.90930 0.93740 0.85640 0.15700
H 	H 	0.89220 0.04990 0.90710 0.12600
H 	H 	0.01700 0.03570 0.84390 0.13000
H 	H 	0.48420 0.27530 0.05930 0.12400
H 	H 	0.58890 0.22130 0.08770 0.13900
H 	H 	0.30000 0.18270 0.16130 0.12200
H 	H 	0.33370 0.25660 0.15020 0.12300
H 	H 	0.20290 0.17050 0.84990 0.15800
H 	H 	0.21740 0.22480 0.90040 0.14700
H 	H 	0.17270 0.05160 0.92640 0.13700
H 	H 	0.28810 0.04830 0.85850 0.13200
H 	H 	0.93010 0.03020 0.76340 0.08800
H 	H 	0.49620 0.14260 0.11340 0.08000
H 	H 	0.19600 0.13590 0.97310 0.08200
H 	H 	0.35130 0.78980 0.56040 0.14800
H 	H 	0.23430 0.85640 0.56260 0.15600
H 	H 	0.20070 0.90710 0.45010 0.13000
H 	H 	0.13910 0.84390 0.46430 0.13900
H 	H 	0.45650 0.05930 0.22470 0.12500
H 	H 	0.32340 0.08770 0.27870 0.13900
H 	H 	0.53870 0.16130 0.31730 0.12200
H 	H 	0.51610 0.15020 0.24340 0.12300
H 	H 	0.94720 0.84990 0.32950 0.15700
H 	H 	0.88220 0.90040 0.27520 0.14700
H 	H 	0.90090 0.92640 0.44840 0.13600
H 	H 	0.85340 0.85850 0.45170 0.13000
H 	H 	0.30650 0.76340 0.46980 0.08700
H 	H 	0.39040 0.11340 0.35740 0.08000
H 	H 	0.83090 0.97310 0.36410 0.08400
H 	H 	0.20150 0.71020 0.93960 0.14800
H 	H 	0.15330 0.64360 0.93740 0.15500
H 	H 	0.05790 0.59290 0.04990 0.12600
H 	H 	0.94730 0.65610 0.03570 0.12900
H 	H 	0.24050 0.44070 0.27530 0.12500
H 	H 	0.18980 0.41230 0.22130 0.14000
H 	H 	0.51730 0.33870 0.18270 0.12300
H 	H 	0.40970 0.34980 0.25660 0.12400
H 	H 	0.62660 0.65010 0.17050 0.15900
H 	H 	0.55780 0.59960 0.22480 0.14800
H 	H 	0.77570 0.57360 0.05160 0.13700
H 	H 	0.66360 0.64150 0.04830 0.13000
H 	H 	0.03970 0.73660 0.03020 0.08800
H 	H 	0.36120 0.38660 0.14260 0.08000
H 	H 	0.66810 0.52690 0.13590 0.08400
H 	H 	0.91170 0.43960 0.28980 0.14700
H 	H 	0.79690 0.43740 0.35640 0.15500
H 	H 	0.65080 0.54990 0.40710 0.13000
H 	H 	0.60340 0.53570 0.34390 0.13800
H 	H 	0.68120 0.77530 0.55930 0.12500
H 	H 	0.60210 0.72130 0.58770 0.14000
H 	H 	0.85600 0.68270 0.66130 0.12300
H 	H 	0.75950 0.75660 0.65020 0.12400
H 	H 	0.27670 0.67050 0.34990 0.15900
H 	H 	0.15740 0.72480 0.40040 0.14800
H 	H 	0.34930 0.55160 0.42640 0.13700
H 	H 	0.30510 0.54830 0.35850 0.13100
H 	H 	0.77630 0.53020 0.26340 0.08700
H 	H 	0.74780 0.64260 0.61340 0.08000
H 	H 	0.19500 0.63590 0.47310 0.08500
H 	H 	0.14110 0.06040 0.21020 0.14800
H 	H 	0.09070 0.06260 0.14360 0.15700
H 	H 	0.10780 0.95010 0.09290 0.12600
H 	H 	0.98300 0.96430 0.15610 0.13000
H 	H 	0.51580 0.72470 0.94070 0.12400
H 	H 	0.41110 0.77870 0.91230 0.13900
H 	H 	0.70000 0.81730 0.83870 0.12200
H 	H 	0.66630 0.74340 0.84980 0.12300
H 	H 	0.79710 0.82950 0.15010 0.15800
H 	H 	0.78260 0.77520 0.09960 0.14700
H 	H 	0.82730 0.94840 0.07360 0.13700
H 	H 	0.71190 0.95170 0.14150 0.13200
H 	H 	0.06990 0.96980 0.23660 0.08800
H 	H 	0.50380 0.85740 0.88660 0.08000
H 	H 	0.80400 0.86410 0.02690 0.08200
C 	C 	0.60570 0.11582 0.47778 0.55600
C 	C 	0.68207 0.16760 0.46646 -0.39100
C 	C 	0.78630 0.14330 0.56170 -0.34300
C 	C 	0.76168 0.15024 0.64260 0.44600
C 	C 	0.59957 0.02277 0.71189 0.55600
C 	C 	0.59410 0.94430 0.72530 -0.35400
C 	C 	0.45910 0.87500 0.71520 -0.32300
C 	C 	0.33160 0.92570 0.74130 0.41400
C 	C 	0.20702 0.17405 0.67251 0.59900
C 	C 	0.13210 0.12270 0.67690 -0.40600
C 	C 	0.16950 0.08850 0.55150 -0.34000
C 	C 	0.27500 0.05680 0.48540 0.45100
C 	C 	0.69930 0.38418 0.02222 0.55500
C 	C 	0.81613 0.33240 0.03354 -0.39100
C 	C 	0.99130 0.35670 0.93830 -0.32600
C 	C 	0.05452 0.34976 0.85740 0.43800
C 	C 	0.83423 0.47723 0.78811 0.55900
C 	C 	0.76370 0.55570 0.77470 -0.35800
C 	C 	0.54930 0.62500 0.78480 -0.32300
C 	C 	0.49860 0.57430 0.75870 0.41400
C 	C 	0.55358 0.32595 0.82749 0.59900
C 	C 	0.43170 0.37730 0.82310 -0.40700
C 	C 	0.30950 0.41150 0.94850 -0.34300
C 	C 	0.31720 0.44320 0.01460 0.45500
C 	C 	0.08348 0.52222 0.61582 0.55500
C 	C 	0.14853 0.53354 0.66760 -0.39100
C 	C 	0.34800 0.43830 0.64330 -0.34200
C 	C 	0.40428 0.35740 0.65024 0.44600
C 	C 	0.31146 0.28811 0.52277 0.55900
C 	C 	0.31940 0.27470 0.44430 -0.35800
C 	C 	0.17430 0.28480 0.37500 -0.32400
C 	C 	0.07290 0.25870 0.42570 0.41500
C 	C 	0.87953 0.32749 0.67405 0.59900
C 	C 	0.80900 0.32310 0.62270 -0.40700
C 	C 	0.72100 0.44850 0.58850 -0.34000
C 	C 	0.76040 0.51460 0.55680 0.45200
C 	C 	0.72152 0.97778 0.88418 0.56200
C 	C 	0.84967 0.96646 0.83240 -0.38900
C 	C 	0.92960 0.06170 0.85670 -0.33000
C 	C 	0.91192 0.14260 0.84976 0.44200
C 	C 	0.62234 0.21189 0.97723 0.55400
C 	C 	0.53840 0.22530 0.05570 -0.35300
C 	C 	0.33410 0.21520 0.12500 -0.32200
C 	C 	0.25730 0.24130 0.07430 0.41300
C 	C 	0.38107 0.17251 0.82595 0.59900
C 	C 	0.25480 0.17690 0.87730 -0.40700
C 	C 	0.25800 0.05150 0.91150 -0.35000
C 	C 	0.33180 0.98540 0.94320 0.45900
C 	C 	0.39430 0.88418 0.52222 0.55600
C 	C 	0.31793 0.83240 0.53354 -0.39100
C 	C 	0.21370 0.85670 0.43830 -0.34300
C 	C 	0.23832 0.84976 0.35740 0.44600
C 	C 	0.40043 0.97723 0.28811 0.55600
C 	C 	0.40590 0.05570 0.27470 -0.35400
C 	C 	0.54090 0.12500 0.28480 -0.32300
C 	C 	0.66840 0.07430 0.25870 0.41400
C 	C 	0.79298 0.82595 0.32749 0.59900
C 	C 	0.86790 0.87730 0.32310 -0.40600
C 	C 	0.83050 0.91150 0.44850 -0.34000
C 	C 	0.72500 0.94320 0.51460 0.45100
C 	C 	0.30070 0.61582 0.97778 0.55500
C 	C 	0.18387 0.66760 0.96646 -0.39100
C 	C 	0.00870 0.64330 0.06170 -0.32600
C 	C 	0.94548 0.65024 0.14260 0.43800
C 	C 	0.16577 0.52277 0.21189 0.55900
C 	C 	0.23630 0.44430 0.22530 -0.35800
C 	C 	0.45070 0.37500 0.21520 -0.32300
C 	C 	0.50140 0.42570 0.24130 0.41400
C 	C 	0.44642 0.67405 0.17251 0.59900
C 	C 	0.56830 0.62270 0.17690 -0.40700
C 	C 	0.69050 0.58850 0.05150 -0.34300
C 	C 	0.68280 0.55680 0.98540 0.45500
C 	C 	0.91652 0.47778 0.38418 0.55500
C 	C 	0.85147 0.46646 0.33240 -0.39100
C 	C 	0.65200 0.56170 0.35670 -0.34200
C 	C 	0.59572 0.64260 0.34976 0.44600
C 	C 	0.68854 0.71189 0.47723 0.55900
C 	C 	0.68060 0.72530 0.55570 -0.35800
C 	C 	0.82570 0.71520 0.62500 -0.32400
C 	C 	0.92710 0.74130 0.57430 0.41500
C 	C 	0.12047 0.67251 0.32595 0.59900
C 	C 	0.19100 0.67690 0.37730 -0.40700
C 	C 	0.27900 0.55150 0.41150 -0.34000
C 	C 	0.23960 0.48540 0.44320 0.45200
C 	C 	0.27848 0.02222 0.11582 0.56200
C 	C 	0.15033 0.03354 0.16760 -0.38900
C 	C 	0.07040 0.93830 0.14330 -0.33000
C 	C 	0.08808 0.85740 0.15024 0.44200
C 	C 	0.37766 0.78811 0.02277 0.55400
C 	C 	0.46160 0.77470 0.94430 -0.35300
C 	C 	0.66590 0.78480 0.87500 -0.32200
C 	C 	0.74270 0.75870 0.92570 0.41300
C 	C 	0.61893 0.82749 0.17405 0.59900
C 	C 	0.74520 0.82310 0.12270 -0.40700
C 	C 	0.74200 0.94850 0.08850 -0.35000
C 	C 	0.66820 0.01460 0.05680 0.45900
N 	N 	0.68353 0.19114 0.53700 -0.16400
N 	N 	0.54524 0.91692 0.67580 -0.15500
N 	N 	0.19776 0.06608 0.61960 -0.14800
N 	N 	0.91167 0.30886 0.96300 -0.16600
N 	N 	0.63796 0.58308 0.82420 -0.15500
N 	N 	0.38344 0.43392 0.88040 -0.14700
N 	N 	0.22053 0.46300 0.69114 -0.16400
N 	N 	0.22104 0.32420 0.41692 -0.15500
N 	N 	0.81736 0.38040 0.56608 -0.14800
N 	N 	0.87467 0.03700 0.80886 -0.16700
N 	N 	0.46216 0.17580 0.08308 -0.15500
N 	N 	0.26384 0.11960 0.93392 -0.14600
N 	N 	0.31647 0.80886 0.46300 -0.16400
N 	N 	0.45476 0.08308 0.32420 -0.15500
N 	N 	0.80224 0.93392 0.38040 -0.14800
N 	N 	0.08833 0.69114 0.03700 -0.16600
N 	N 	0.36204 0.41692 0.17580 -0.15500
N 	N 	0.61656 0.56608 0.11960 -0.14700
N 	N 	0.77947 0.53700 0.30886 -0.16400
N 	N 	0.77896 0.67580 0.58308 -0.15500
N 	N 	0.18264 0.61960 0.43392 -0.14800
N 	N 	0.12533 0.96300 0.19114 -0.16700
N 	N 	0.53784 0.82420 0.91692 -0.15500
N 	N 	0.73616 0.88040 0.06608 -0.14600
O 	O 	0.53850 0.10946 0.54194 -0.63300
O 	O 	0.61333 0.08317 0.42217 -0.53600
O 	O 	0.64980 0.18032 0.68068 -0.64400
O 	O 	0.84264 0.12597 0.67295 -0.45000
O 	O 	0.53185 0.06424 0.67586 -0.60900
O 	O 	0.66618 0.04025 0.74079 -0.55200
O 	O 	0.24840 0.89660 0.77620 -0.28100
O 	O 	0.31471 0.99128 0.72290 -0.47100
O 	O 	0.32322 0.14769 0.64487 -0.67300
O 	O 	0.15461 0.23620 0.69738 -0.57700
O 	O 	0.25440 0.04480 0.43000 -0.34800
O 	O 	0.38467 0.04434 0.48992 -0.61000
O 	O 	0.68990 0.39054 0.95806 -0.63400
O 	O 	0.61867 0.41683 0.07783 -0.53700
O 	O 	0.01080 0.31968 0.81932 -0.64400
O 	O 	0.14156 0.37403 0.82705 -0.44900
O 	O 	0.77195 0.43576 0.82414 -0.61000
O 	O 	0.94722 0.45975 0.75921 -0.55000
O 	O 	0.42120 0.60340 0.72380 -0.28200
O 	O 	0.52889 0.50872 0.77710 -0.47500
O 	O 	0.61578 0.35231 0.85513 -0.67300
O 	O 	0.58819 0.26380 0.80262 -0.57700
O 	O 	0.22920 0.45520 0.07000 -0.34800
O 	O 	0.41893 0.45566 0.01008 -0.61200
O 	O 	0.08044 0.45806 0.60946 -0.63400
O 	O 	0.03550 0.57783 0.58317 -0.53700
O 	O 	0.33048 0.31932 0.68032 -0.64400
O 	O 	0.51559 0.32705 0.62597 -0.45100
O 	O 	0.20771 0.32414 0.56424 -0.61000
O 	O 	0.40697 0.25921 0.54025 -0.55100
O 	O 	0.02460 0.22380 0.39660 -0.28200
O 	O 	0.03761 0.27710 0.49128 -0.47500
O 	O 	0.96809 0.35513 0.64769 -0.67200
O 	O 	0.85199 0.30262 0.73620 -0.57700
O 	O 	0.68440 0.57000 0.54480 -0.34800
O 	O 	0.87459 0.51008 0.54434 -0.61100
O 	O 	0.64796 0.04194 0.89054 -0.63700
O 	O 	0.69650 0.92217 0.91683 -0.53400
O 	O 	0.83012 0.18068 0.81968 -0.64300
O 	O 	0.96861 0.17295 0.87403 -0.44800
O 	O 	0.59609 0.17586 0.93576 -0.60800
O 	O 	0.70643 0.24079 0.95975 -0.55100
O 	O 	0.14500 0.27620 0.10340 -0.28000
O 	O 	0.30599 0.22290 0.00872 -0.46900
O 	O 	0.47091 0.14487 0.85231 -0.67200
O 	O 	0.39081 0.19738 0.76380 -0.57700
O 	O 	0.29920 0.93000 0.95520 -0.34700
O 	O 	0.42901 0.98992 0.95566 -0.60600
O 	O 	0.46150 0.89054 0.45806 -0.63300
O 	O 	0.38667 0.91683 0.57783 -0.53600
O 	O 	0.35020 0.81968 0.31932 -0.64400
O 	O 	0.15736 0.87403 0.32705 -0.45000
O 	O 	0.46815 0.93576 0.32414 -0.60900
O 	O 	0.33382 0.95975 0.25921 -0.55200
O 	O 	0.75160 0.10340 0.22380 -0.28100
O 	O 	0.68529 0.00872 0.27710 -0.47100
O 	O 	0.67678 0.85231 0.35513 -0.67300
O 	O 	0.84539 0.76380 0.30262 -0.57700
O 	O 	0.74560 0.95520 0.57000 -0.34800
O 	O 	0.61533 0.95566 0.51008 -0.61000
O 	O 	0.31010 0.60946 0.04194 -0.63400
O 	O 	0.38133 0.58317 0.92217 -0.53700
O 	O 	0.98920 0.68032 0.18068 -0.64400
O 	O 	0.85844 0.62597 0.17295 -0.44900
O 	O 	0.22805 0.56424 0.17586 -0.61000
O 	O 	0.05278 0.54025 0.24079 -0.55000
O 	O 	0.57880 0.39660 0.27620 -0.28200
O 	O 	0.47111 0.49128 0.22290 -0.47500
O 	O 	0.38422 0.64769 0.14487 -0.67300
O 	O 	0.41181 0.73620 0.19738 -0.57700
O 	O 	0.77080 0.54480 0.93000 -0.34800
O 	O 	0.58107 0.54434 0.98992 -0.61200
O 	O 	0.91956 0.54194 0.39054 -0.63400
O 	O 	0.96450 0.42217 0.41683 -0.53700
O 	O 	0.66952 0.68068 0.31968 -0.64400
O 	O 	0.48441 0.67295 0.37403 -0.45100
O 	O 	0.79229 0.67586 0.43576 -0.61000
O 	O 	0.59303 0.74079 0.45975 -0.55100
O 	O 	0.97540 0.77620 0.60340 -0.28200
O 	O 	0.96239 0.72290 0.50872 -0.47500
O 	O 	0.03191 0.64487 0.35231 -0.67200
O 	O 	0.14801 0.69738 0.26380 -0.57700
O 	O 	0.31560 0.43000 0.45520 -0.34800
O 	O 	0.12541 0.48992 0.45566 -0.61100
O 	O 	0.35204 0.95806 0.10946 -0.63700
O 	O 	0.30350 0.07783 0.08317 -0.53400
O 	O 	0.16988 0.81932 0.18032 -0.64300
O 	O 	0.03139 0.82705 0.12597 -0.44800
O 	O 	0.40391 0.82414 0.06424 -0.60800
O 	O 	0.29357 0.75921 0.04025 -0.55100
O 	O 	0.85500 0.72380 0.89660 -0.28000
O 	O 	0.69401 0.77710 0.99128 -0.46900
O 	O 	0.52909 0.85513 0.14769 -0.67200
O 	O 	0.60919 0.80262 0.23620 -0.57700
O 	O 	0.70080 0.07000 0.04480 -0.34700
O 	O 	0.57099 0.01008 0.04434 -0.60600
