data_crystal

_cell_length_a 10.59900
_cell_length_b 17.02180
_cell_length_c 18.30640
_cell_angle_alpha 106.07300
_cell_angle_beta  90.00000
_cell_angle_gamma 90.00000

_symmetry_space_group_name_	'P 1'
_symmetry_space_group_name_H-M	'P 1'

loop_
_symmetry_equiv_pos_as_xyz
  x,y,z

loop_
_atom_site_label
_atom_site_type_symbol
_atom_site_fract_x
_atom_site_fract_y
_atom_site_fract_z
_atom_site_charge
Co	Co	0.53495 0.11880 0.60276 1.11800
Co	Co	0.50009 0.86882 0.85284 1.12100
Co	Co	0.46505 0.61880 0.10276 1.11200
Co	Co	0.49991 0.36882 0.35284 1.12000
H 	H 	0.41570 0.97390 0.37240 0.03100
H 	H 	0.94520 0.90080 0.08890 0.06900
H 	H 	0.40620 0.38770 0.08440 0.06000
H 	H 	0.68120 0.95610 0.98050 0.04400
H 	H 	0.68170 0.27800 0.22530 0.00600
H 	H 	0.38170 0.41160 0.21370 -0.01200
H 	H 	0.40030 0.85280 0.12320 0.05000
H 	H 	0.93780 0.72090 0.88760 0.07700
H 	H 	0.70860 0.98910 0.11200 0.04900
H 	H 	0.71540 0.25250 0.09700 0.05700
H 	H 	0.88400 0.95800 0.85860 0.03500
H 	H 	0.39210 0.94810 0.24130 0.07400
H 	H 	0.77110 0.30040 0.98960 0.07200
H 	H 	0.11030 0.77690 0.84760 0.03200
H 	H 	0.38940 0.29720 0.96390 0.08100
H 	H 	0.06210 0.01740 0.81520 0.06900
H 	H 	0.76780 0.93560 0.21380 0.06400
H 	H 	0.44640 0.07440 0.74470 -0.00600
H 	H 	0.37960 0.82700 0.99140 0.03300
H 	H 	0.13760 0.94470 0.57370 0.07300
H 	H 	0.72460 0.72550 0.91760 0.06200
H 	H 	0.41600 0.25530 0.83140 0.03400
H 	H 	0.11170 0.96450 0.03810 0.03800
H 	H 	0.30610 0.01770 0.53870 0.00200
H 	H 	0.28080 0.00640 0.78640 0.07100
H 	H 	0.86860 0.78470 0.13090 0.06100
H 	H 	0.79260 0.26930 0.85720 0.03100
H 	H 	0.79630 0.95850 0.34500 0.02900
H 	H 	0.89740 0.77340 0.66270 0.03000
H 	H 	0.69690 0.72840 0.16940 0.01300
H 	H 	0.06750 0.83120 0.62410 0.06200
H 	H 	0.55920 0.66510 0.96120 -0.01000
H 	H 	0.58430 0.47390 0.87240 0.03800
H 	H 	0.05480 0.40080 0.58890 0.05500
H 	H 	0.59380 0.88770 0.58440 0.07700
H 	H 	0.31880 0.45610 0.48050 -0.00300
H 	H 	0.31830 0.77800 0.72530 0.00300
H 	H 	0.61830 0.91160 0.71370 -0.01500
H 	H 	0.59970 0.35280 0.62320 0.07300
H 	H 	0.06220 0.22090 0.38760 0.06500
H 	H 	0.29140 0.48910 0.61200 0.07300
H 	H 	0.28460 0.75250 0.59700 0.07000
H 	H 	0.11600 0.45800 0.35860 0.03400
H 	H 	0.60790 0.44810 0.74130 0.06900
H 	H 	0.22890 0.80040 0.48960 0.05500
H 	H 	0.88970 0.27690 0.34760 0.03500
H 	H 	0.61060 0.79720 0.46390 0.06600
H 	H 	0.93790 0.51740 0.31520 0.06700
H 	H 	0.23220 0.43560 0.71380 0.05800
H 	H 	0.55360 0.57440 0.24470 -0.00700
H 	H 	0.62040 0.32700 0.49140 -0.01200
H 	H 	0.86240 0.44470 0.07370 0.06800
H 	H 	0.27540 0.22550 0.41760 0.08100
H 	H 	0.58400 0.75530 0.33140 0.03900
H 	H 	0.88830 0.46450 0.53810 0.04000
H 	H 	0.69390 0.51770 0.03870 -0.00700
H 	H 	0.71920 0.50640 0.28640 0.07100
H 	H 	0.13140 0.28470 0.63090 0.07800
H 	H 	0.20740 0.76930 0.35720 0.03400
H 	H 	0.20370 0.45850 0.84500 0.03500
H 	H 	0.10260 0.27340 0.16270 0.02900
H 	H 	0.30310 0.22840 0.66940 0.00500
H 	H 	0.93250 0.33120 0.12410 0.05600
H 	H 	0.44080 0.16510 0.46120 -0.01400
C 	C 	0.48820 0.96740 0.34070 0.04200
C 	C 	0.97590 0.87680 0.03900 -0.12500
C 	C 	0.46330 0.36340 0.11180 -0.11600
C 	C 	0.24350 0.91310 0.91190 0.32800
C 	C 	0.76130 0.82440 0.79380 0.34100
C 	C 	0.56310 0.92340 0.13250 0.01700
C 	C 	0.07700 0.93290 0.71400 0.03400
C 	C 	0.92230 0.80440 0.99340 0.09000
C 	C 	0.62450 0.99830 0.45840 0.36300
C 	C 	0.62260 0.24280 0.74840 0.31400
C 	C 	0.62240 0.93550 0.00990 -0.01900
C 	C 	0.60720 0.97440 0.37250 -0.11200
C 	C 	0.62490 0.30010 0.19610 0.05000
C 	C 	0.12460 0.87630 0.93890 -0.07000
C 	C 	0.86960 0.85940 0.76570 -0.11500
C 	C 	0.44960 0.37780 0.18960 0.06700
C 	C 	0.45960 0.87480 0.09520 -0.07100
C 	C 	0.55700 0.31540 0.07470 0.02400
C 	C 	0.57960 0.93860 0.21560 0.05300
C 	C 	0.97430 0.76920 0.91980 -0.11300
C 	C 	0.64090 0.95440 0.08910 -0.06900
C 	C 	0.60790 0.26590 0.83300 -0.10300
C 	C 	0.64470 0.28400 0.12010 -0.10200
C 	C 	0.92000 0.93220 0.81050 0.03100
C 	C 	0.81280 0.76540 0.01950 -0.00700
C 	C 	0.47420 0.95100 0.26280 -0.10900
C 	C 	0.18390 0.97280 0.68620 0.05800
C 	C 	0.69830 0.29230 0.95810 -0.10400
C 	C 	0.57590 0.29770 0.99080 0.06400
C 	C 	0.07380 0.80330 0.89560 0.03300
C 	C 	0.47190 0.28890 0.94280 -0.10500
C 	C 	0.02650 0.96840 0.78390 -0.09500
C 	C 	0.69620 0.94310 0.24620 -0.10800
C 	C 	0.38230 0.04850 0.71000 0.06100
C 	C 	0.44750 0.86020 0.01640 -0.02600
C 	C 	0.19690 0.97260 0.61080 -0.12400
C 	C 	0.72060 0.72670 0.96970 -0.08500
C 	C 	0.48740 0.26800 0.86390 0.03500
C 	C 	0.07740 0.91390 0.00910 -0.00900
C 	C 	0.30070 0.01500 0.58980 0.07800
C 	C 	0.28210 0.00880 0.73520 -0.12200
C 	C 	0.80380 0.76190 0.09550 -0.09600
C 	C 	0.71070 0.27490 0.87910 0.03300
C 	C 	0.71400 0.95860 0.32440 0.03100
C 	C 	0.92930 0.82340 0.69440 0.03700
C 	C 	0.70420 0.72640 0.11720 0.04800
C 	C 	0.02870 0.85810 0.67120 -0.10100
C 	C 	0.62300 0.69010 0.99640 0.08500
C 	C 	0.51180 0.46740 0.84070 0.02900
C 	C 	0.02410 0.37680 0.53900 -0.07900
C 	C 	0.53670 0.86340 0.61180 -0.14200
C 	C 	0.75650 0.41310 0.41190 0.33200
C 	C 	0.23870 0.32440 0.29380 0.33900
C 	C 	0.43690 0.42340 0.63250 0.06300
C 	C 	0.92300 0.43290 0.21400 0.02900
C 	C 	0.07770 0.30440 0.49340 0.01500
C 	C 	0.37550 0.49830 0.95840 0.35700
C 	C 	0.37740 0.74280 0.24840 0.31000
C 	C 	0.37760 0.43550 0.50990 0.07600
C 	C 	0.39280 0.47440 0.87250 -0.10000
C 	C 	0.37510 0.80010 0.69610 0.06200
C 	C 	0.87540 0.37630 0.43890 -0.08900
C 	C 	0.13040 0.35940 0.26570 -0.11200
C 	C 	0.55040 0.87780 0.68960 0.08200
C 	C 	0.54040 0.37480 0.59520 -0.12700
C 	C 	0.44300 0.81540 0.57470 0.06900
C 	C 	0.42040 0.43860 0.71560 0.02800
C 	C 	0.02570 0.26920 0.41980 -0.08600
C 	C 	0.35910 0.45440 0.58910 -0.12900
C 	C 	0.39210 0.76590 0.33300 -0.09100
C 	C 	0.35530 0.78400 0.62010 -0.12200
C 	C 	0.08000 0.43220 0.31050 0.02500
C 	C 	0.18720 0.26540 0.51950 0.07500
C 	C 	0.52580 0.45100 0.76280 -0.09100
C 	C 	0.81610 0.47280 0.18620 0.05800
C 	C 	0.30170 0.79230 0.45810 -0.08100
C 	C 	0.42410 0.79770 0.49080 0.01800
C 	C 	0.92620 0.30330 0.39560 0.02300
C 	C 	0.52810 0.78890 0.44280 -0.08100
C 	C 	0.97350 0.46840 0.28390 -0.09000
C 	C 	0.30380 0.44310 0.74620 -0.09000
C 	C 	0.61770 0.54850 0.21000 0.06100
C 	C 	0.55250 0.36020 0.51640 0.06800
C 	C 	0.80310 0.47260 0.11080 -0.12800
C 	C 	0.27940 0.22670 0.46970 -0.14800
C 	C 	0.51260 0.76800 0.36390 0.01700
C 	C 	0.92260 0.41390 0.50910 0.01000
C 	C 	0.69930 0.51500 0.08980 0.07800
C 	C 	0.71790 0.50880 0.23520 -0.12200
C 	C 	0.19620 0.26190 0.59550 -0.13700
C 	C 	0.28930 0.77490 0.37910 0.01400
C 	C 	0.28600 0.45860 0.82440 0.01900
C 	C 	0.07070 0.32340 0.19440 0.02900
C 	C 	0.29580 0.22640 0.61720 0.07400
C 	C 	0.97130 0.35810 0.17120 -0.09400
C 	C 	0.37700 0.19010 0.49640 0.08500
N 	N 	0.52560 0.34740 0.23270 -0.23500
N 	N 	0.38810 0.05010 0.63720 -0.23500
N 	N 	0.61040 0.68680 0.06780 -0.24400
N 	N 	0.52780 0.89090 0.97460 -0.18800
N 	N 	0.47440 0.84740 0.73270 -0.23900
N 	N 	0.61190 0.55010 0.13720 -0.23700
N 	N 	0.38960 0.18680 0.56780 -0.23800
N 	N 	0.47220 0.39090 0.47460 -0.23800
O 	O 	0.53580 0.19670 0.71000 -0.43000
O 	O 	0.53770 0.03980 0.49520 -0.45200
O 	O 	0.68980 0.87450 0.84060 -0.43900
O 	O 	0.30950 0.86280 0.86440 -0.44100
O 	O 	0.71790 0.97310 0.48460 -0.30800
O 	O 	0.26650 0.98810 0.93730 -0.27800
O 	O 	0.74060 0.74900 0.76930 -0.28600
O 	O 	0.72160 0.26370 0.71880 -0.28400
O 	O 	0.46420 0.69670 0.21000 -0.43100
O 	O 	0.46230 0.53980 0.99520 -0.43700
O 	O 	0.31020 0.37450 0.34060 -0.44100
O 	O 	0.69050 0.36280 0.36440 -0.44300
O 	O 	0.28210 0.47310 0.98460 -0.29700
O 	O 	0.73350 0.48810 0.43730 -0.28800
O 	O 	0.25940 0.24900 0.26930 -0.28900
O 	O 	0.27840 0.76370 0.21880 -0.28700
