# Generated by pormake.
# Topology scu, (8,4)-cn, num edge types: 1
# Building blocks:
#     Node 0, Type 0, BuildingBlock: TAGTUT_clean_sbu_3, # of connection points: 8
#     Node 1, Type 1, BuildingBlock: ESEHIV_clean_sbu_0, # of connection points: 4
#     Node 2, Type 1, BuildingBlock: ESEHIV_clean_sbu_0, # of connection points: 4
#     Edge 3, Type (0, 1), BuildingBlock: KIFKEQ_clean_linker_1, # of connection points: 2
#     Edge 4, Type (0, 1), BuildingBlock: KIFKEQ_clean_linker_1, # of connection points: 2
#     Edge 5, Type (0, 1), BuildingBlock: KIFKEQ_clean_linker_1, # of connection points: 2
#     Edge 6, Type (0, 1), BuildingBlock: KIFKEQ_clean_linker_1, # of connection points: 2
#     Edge 7, Type (0, 1), BuildingBlock: KIFKEQ_clean_linker_1, # of connection points: 2
#     Edge 8, Type (0, 1), BuildingBlock: KIFKEQ_clean_linker_1, # of connection points: 2
#     Edge 9, Type (0, 1), BuildingBlock: KIFKEQ_clean_linker_1, # of connection points: 2
#     Edge 10, Type (0, 1), BuildingBlock: KIFKEQ_clean_linker_1, # of connection points: 2
# Relax obj value: 0.025
# Max RMSD: 0.106
# Mean RMSD: 0.103
data_MOF--net-scu--node1-TAGTUT_clean_sbu_3--node2-ESEHIV_clean_sbu_0--edge1-KIFKEQ_clean_linker_1
_symmetry_space_group_name_H-M    P1
_symmetry_Int_Tables_number       1
_symmetry_cell_setting            triclinic
loop_
_symmetry_equiv_pos_as_xyz
'x, y, z'
_cell_length_a     28.381116
_cell_length_b     24.352013
_cell_length_c     20.588352
_cell_angle_alpha  93.785708
_cell_angle_beta   96.34248
_cell_angle_gamma 89.472815
loop_
_atom_site_label
_atom_site_type_symbol
_atom_site_fract_x
_atom_site_fract_y
_atom_site_fract_z
_atom_type_partial_charge
C0 C 1.01409 0.90512 0.0734 0.0
C1 C 0.83496 0.97061 0.05338 0.0
C2 C 0.85857 0.01256 0.8609 0.0
Mg3 Mg 0.1031 0.95354 0.00951 0.0
Mg4 Mg 0.109 0.08628 0.9969 0.0
O5 O 0.07435 0.02181 0.97162 0.0
Mg6 Mg 1.00694 0.01687 0.99185 0.0
O7 O 0.94047 1.00484 0.01242 0.0
Mg8 Mg 0.92446 0.93109 0.96551 0.0
Mg9 Mg 0.89444 0.05965 0.99745 0.0
C10 C 1.01364 0.13392 0.92365 0.0
O11 O 1.01091 0.09023 0.07084 0.0
O12 O 0.16931 0.97119 0.95406 0.0
O13 O 0.93696 0.1256 0.05026 0.0
O14 O 0.14087 0.99844 0.10175 0.0
O15 O 0.16632 0.06264 0.9418 0.0
O16 O 0.13867 0.08951 0.09896 0.0
O17 O 0.99254 0.94518 0.91395 0.0
O18 O 0.06428 0.9068 0.91827 0.0
C19 C 1.02097 0.90877 0.89314 0.0
C20 C 0.18513 0.01516 0.93229 0.0
O21 O 0.99027 0.08842 0.92226 0.0
O22 O 0.85948 0.93153 0.02802 0.0
O23 O 0.05499 0.14168 0.95534 0.0
O24 O 0.87669 0.96769 0.88085 0.0
O25 O 0.84263 0.02161 0.04716 0.0
O26 O 0.86441 0.05773 0.89592 0.0
O27 O 0.03364 0.94938 0.0599 0.0
O28 O 0.97252 0.89175 0.04702 0.0
C29 C 0.15082 0.04625 0.12844 0.0
C30 C 0.97955 0.12817 0.07929 0.0
Cu31 Cu 0.03938 0.53805 0.49835 0.0
N32 N 0.05997 0.50229 0.57396 0.0
N33 N 0.0591 0.44293 0.65239 0.0
C34 C 0.03745 0.4597 0.59531 0.0
C35 C 0.09718 0.47634 0.66695 0.0
C36 C 0.09758 0.5129 0.61849 0.0
O37 O 1.01783 0.4822 0.42994 0.0
C38 C 0.96837 0.59319 0.56763 0.0
O39 O 0.96387 0.54698 0.59574 0.0
H40 H 1.00497 0.44253 0.56991 0.0
H41 H 0.12321 0.54509 0.61608 0.0
N42 N 0.08737 0.57739 0.46709 0.0
N43 N 0.1159 0.63981 0.40685 0.0
C44 C 0.07942 0.62538 0.43882 0.0
C45 C 0.1308 0.56102 0.45321 0.0
C46 C 0.14839 0.5994 0.41556 0.0
C47 C 0.04591 0.44155 0.42305 0.0
O48 O 0.08546 0.43984 0.46255 0.0
H49 H 0.0457 0.64672 0.43659 0.0
H50 H 0.14714 0.52226 0.46559 0.0
O51 O 0.99309 0.59377 0.51973 0.0
H52 H 0.12314 0.47465 0.70937 0.0
H53 H 0.18127 0.59639 0.39345 0.0
Cu54 Cu 0.52694 1.00182 0.51743 0.0
N55 N 0.51039 0.03272 0.59738 0.0
N56 N 0.46515 0.04187 0.67955 0.0
C57 C 0.4714 0.01562 0.62155 0.0
C58 C 0.50187 0.07712 0.69292 0.0
C59 C 0.52968 0.07172 0.64166 0.0
O60 O 0.47116 0.01331 0.45555 0.0
C61 C 0.57387 0.89504 0.55146 0.0
O62 O 0.56943 0.84122 0.54575 0.0
H63 H 0.44811 0.98398 0.59691 0.0
H64 H 0.56162 0.0944 0.63736 0.0
N65 N 0.57855 0.03076 0.48241 0.0
N66 N 0.63467 0.03046 0.41447 0.0
C67 C 0.59534 1.0059 0.42945 0.0
C68 C 0.60809 0.07314 0.50172 0.0
C69 C 0.64311 0.0728 0.45992 0.0
C70 C 0.43812 0.97816 0.44115 0.0
O71 O 0.44247 0.9296 0.46544 0.0
H72 H 0.57964 0.96922 0.4036 0.0
H73 H 0.60516 0.10136 0.54384 0.0
O74 O 0.53913 0.92339 0.52603 0.0
H75 H 0.50758 0.10548 0.73579 0.0
H76 H 0.67232 0.10142 0.46265 0.0
H77 H 0.91805 0.20355 0.12577 0.0
H78 H 0.06706 0.16185 0.1395 0.0
H79 H 0.93471 0.27964 0.20615 0.0
H80 H 0.08414 0.24013 0.21897 0.0
H81 H 0.08877 0.34155 0.41461 0.0
H82 H 0.07446 0.26814 0.32924 0.0
H83 H 0.96783 0.36817 0.22646 0.0
H84 H 0.98102 0.44105 0.3138 0.0
C85 C 0.95462 0.21102 0.14525 0.0
C86 C 0.99126 0.17626 0.12617 0.0
C87 C 0.96419 0.25517 0.19125 0.0
C88 C 1.01077 0.26635 0.21918 0.0
C89 C 0.04769 0.23227 0.19924 0.0
C90 C 0.03801 0.18753 0.15343 0.0
C91 C 0.06217 0.34791 0.37384 0.0
C92 C 0.03584 0.39705 0.37107 0.0
C93 C 0.0543 0.3059 0.32445 0.0
C94 C 1.02017 0.31211 0.27059 0.0
C95 C 0.99396 0.36154 0.26766 0.0
C96 C 1.00151 0.40343 0.3176 0.0
H97 H 0.84732 0.91354 0.16318 0.0
H98 H 0.74425 1.00597 0.04479 0.0
H99 H 0.79654 0.92013 0.2526 0.0
H100 H 0.69321 0.01169 0.13301 0.0
H101 H 0.60068 0.98529 0.29543 0.0
H102 H 0.64602 0.95639 0.20483 0.0
H103 H 0.77534 0.00808 0.32239 0.0
H104 H 0.72982 0.03695 0.4133 0.0
C105 C 0.81289 0.93306 0.15534 0.0
C106 C 0.79927 0.95872 0.0971 0.0
C107 C 0.78421 0.93755 0.20668 0.0
C108 C 0.74119 0.96687 0.19987 0.0
C109 C 0.72601 0.9886 0.13954 0.0
C110 C 0.75504 0.98509 0.08893 0.0
C111 C 0.63883 0.98998 0.30213 0.0
C112 C 0.66174 0.01358 0.36134 0.0
C113 C 0.66472 0.97354 0.25027 0.0
C114 C 0.71419 0.9796 0.25676 0.0
C115 C 0.73728 1.00223 0.31638 0.0
C116 C 0.71125 0.01944 0.36802 0.0
H117 H 0.07873 0.93232 0.17916 0.0
H118 H 1.00612 0.79393 0.0717 0.0
H119 H 0.11375 0.87085 0.26164 0.0
H120 H 0.04183 0.73272 0.15279 0.0
H121 H 0.14338 0.63201 0.28499 0.0
H122 H 0.12782 0.69932 0.20162 0.0
H123 H 0.06872 0.81113 0.34274 0.0
H124 H 0.08341 0.74326 0.4256 0.0
C125 C 0.07108 0.8887 0.17253 0.0
C126 C 0.03958 0.86788 0.11929 0.0
C127 C 0.09091 0.85367 0.21971 0.0
C128 C 0.08054 0.79709 0.21334 0.0
C129 C 0.05075 0.77607 0.15853 0.0
C130 C 0.0301 0.81115 0.1124 0.0
C131 C 0.12822 0.67153 0.29851 0.0
C132 C 0.11452 0.68257 0.36159 0.0
C133 C 0.1191 0.70983 0.25084 0.0
C134 C 0.09709 0.76032 0.26587 0.0
C135 C 0.0861 0.77272 0.33007 0.0
C136 C 0.09427 0.73394 0.37729 0.0
H137 H 0.22423 0.11795 0.16135 0.0
H138 H 0.15524 0.97896 0.22925 0.0
H139 H 0.29251 0.10499 0.24169 0.0
H140 H 0.22199 0.96761 0.31216 0.0
H141 H 0.37048 0.90855 0.37857 0.0
H142 H 0.29791 0.93183 0.31206 0.0
H143 H 0.33162 0.10481 0.34764 0.0
H144 H 0.40562 0.08094 0.41165 0.0
C145 C 0.22282 0.08608 0.1954 0.0
C146 C 0.18448 0.04933 0.18883 0.0
C147 C 0.26215 0.07839 0.2415 0.0
C148 C 0.26364 0.03426 0.28274 0.0
C149 C 0.22314 1.0008 0.27989 0.0
C150 C 0.18437 0.00783 0.23305 0.0
C151 C 0.36244 0.95155 0.37213 0.0
C152 C 0.39399 0.9928 0.40019 0.0
C153 C 0.32039 0.96511 0.33448 0.0
C154 C 0.30818 0.02045 0.32468 0.0
C155 C 0.33979 0.06176 0.35321 0.0
C156 C 0.38228 0.04808 0.39013 0.0
H157 H 0.93024 0.87114 0.85534 0.0
H158 H 0.07448 0.85491 0.80802 0.0
H159 H 0.90513 0.80048 0.76788 0.0
H160 H 0.04932 0.78573 0.72069 0.0
H161 H 0.92454 0.60984 0.67966 0.0
H162 H 0.92808 0.69345 0.75259 0.0
H163 H 0.99381 0.77981 0.61011 0.0
H164 H 0.99001 0.69691 0.53681 0.0
C165 C 0.9564 0.85304 0.8259 0.0
C166 C 1.0044 0.86831 0.8388 0.0
C167 C 0.94203 0.81265 0.77604 0.0
C168 C 0.97524 0.78809 0.7373 0.0
C169 C 1.02286 0.80453 0.74922 0.0
C170 C 0.03733 0.8438 0.79965 0.0
C171 C 0.93832 0.6471 0.66289 0.0
C172 C 0.95787 0.64627 0.6029 0.0
C173 C 0.94022 0.695 0.70468 0.0
C174 C 0.96197 0.74265 0.68732 0.0
C175 C 0.9774 0.74332 0.6249 0.0
C176 C 0.97505 0.69576 0.58288 0.0
H177 H 0.264 0.94849 0.94604 0.0
H178 H 0.19847 0.07668 0.83157 0.0
H179 H 0.33424 0.95189 0.88586 0.0
H180 H 0.2675 0.07922 0.77142 0.0
H181 H 0.37462 0.02113 0.63099 0.0
H182 H 0.30732 0.00833 0.69253 0.0
H183 H 0.39873 0.03296 0.87387 0.0
H184 H 0.46662 0.04613 0.81175 0.0
C185 C 0.26438 0.97671 0.90758 0.0
C186 C 0.22591 0.01233 0.89341 0.0
C187 C 0.30455 0.97898 0.87369 0.0
C188 C 0.30611 0.01589 0.82422 0.0
C189 C 0.26708 0.05027 0.80914 0.0
C190 C 0.22766 0.04884 0.84367 0.0
C191 C 0.38049 0.02335 0.68395 0.0
C192 C 0.4258 0.03469 0.71667 0.0
C193 C 0.34199 0.01616 0.7191 0.0
C194 C 0.348 0.0194 0.7878 0.0
C195 C 0.39339 0.02976 0.82084 0.0
C196 C 0.43197 0.03789 0.78549 0.0
H197 H 0.99503 0.12844 0.79126 0.0
H198 H 0.99882 0.23999 0.96311 0.0
H199 H 0.99852 0.20627 0.72303 0.0
H200 H 0.9999 0.31824 0.89523 0.0
H201 H 0.08601 0.42715 0.78085 0.0
H202 H 0.06192 0.35386 0.84374 0.0
H203 H 0.97042 0.28816 0.6754 0.0
H204 H 0.99675 0.35977 0.61106 0.0
C205 C 0.99398 0.16983 0.81388 0.0
C206 C 0.99648 0.17843 0.88219 0.0
C207 C 0.99635 0.21459 0.77492 0.0
C208 C 1.00083 0.26872 0.80373 0.0
C209 C 0.99804 0.27717 0.8715 0.0
C210 C 0.99647 0.23247 0.91037 0.0
C211 C 0.06107 0.39704 0.75676 0.0
C212 C 0.0437 0.39978 0.6904 0.0
C213 C 0.04646 0.35527 0.79339 0.0
C214 C 1.01367 0.31511 0.76507 0.0
C215 C 0.99585 0.31809 0.69891 0.0
C216 C 1.01074 0.35971 0.66206 0.0
H217 H 0.86102 0.9449 0.75036 0.0
H218 H 0.77542 0.06893 0.84046 0.0
H219 H 0.79568 0.92316 0.66588 0.0
H220 H 0.70876 0.04483 0.75944 0.0
H221 H 0.59408 1.00214 0.59902 0.0
H222 H 0.66616 0.03892 0.6589 0.0
H223 H 0.72657 0.87519 0.65385 0.0
H224 H 0.65585 0.84066 0.58831 0.0
C225 C 0.82833 0.96815 0.75137 0.0
C226 C 0.82341 0.00873 0.80191 0.0
C227 C 0.79039 0.95506 0.70353 0.0
C228 C 0.74592 0.98097 0.7061 0.0
C229 C 0.74215 0.02399 0.75471 0.0
C230 C 0.78056 0.03805 0.80152 0.0
C231 C 0.62302 0.97461 0.60852 0.0
C232 C 0.61866 0.91895 0.58708 0.0
C233 C 0.66462 0.99539 0.64443 0.0
C234 C 0.70305 0.96039 0.66204 0.0
C235 C 0.69875 0.90433 0.64043 0.0
C236 C 0.65751 0.88415 0.60323 0.0
loop_
_geom_bond_atom_site_label_1
_geom_bond_atom_site_label_2
_geom_bond_distance
_geom_bond_site_symmetry_2
_ccdc_geom_bond_type
C0 O27 1.312 1_655 S
C0 O28 1.208 . S
C1 O22 1.331 1_545 S
C1 O25 1.244 . S
C2 O24 1.264 1_545 S
C2 O26 1.273 . S
Mg3 O5 1.936 1_564 S
Mg3 O12 2.081 1_554 S
Mg3 O14 2.023 . S
Mg3 O18 2.031 1_554 S
Mg3 O27 2.291 . S
Mg4 O5 1.963 . S
Mg4 O15 1.942 . S
Mg4 O16 1.955 1_556 S
Mg4 O23 1.986 . S
O5 Mg3 1.936 1_546 S
O5 Mg4 1.963 . S
O5 Mg6 1.915 1_556 S
Mg6 O5 1.915 1_554 S
Mg6 O7 1.915 1_455 S
Mg6 O11 2.013 . S
Mg6 O17 2.114 1_444 S
Mg6 O21 2.013 1_454 S
Mg6 O27 2.114 1_545 S
O7 Mg6 1.915 1_655 S
O7 Mg8 1.936 1_544 S
O7 Mg9 1.963 . S
Mg8 O7 1.936 1_566 S
Mg8 O17 2.291 . S
Mg8 O22 2.081 1_556 S
Mg8 O24 2.023 . S
Mg8 O28 2.031 1_556 S
Mg9 O7 1.963 . S
Mg9 O13 1.986 . S
Mg9 O25 1.942 . S
Mg9 O26 1.955 1_554 S
C10 O21 1.191 1_455 S
C10 O23 1.307 . S
O11 Mg6 2.013 . S
O11 C30 1.191 1_455 S
O12 Mg3 2.081 1_556 S
O12 C20 1.331 . S
O13 Mg9 1.986 . S
O13 C30 1.307 . S
O14 Mg3 2.023 . S
O14 C29 1.264 1_565 S
O15 Mg4 1.942 . S
O15 C20 1.244 1_545 S
O16 Mg4 1.955 1_554 S
O16 C29 1.273 . S
O17 Mg6 2.114 1_666 S
O17 Mg8 2.291 . S
O17 C19 1.312 1_655 S
O18 Mg3 2.031 1_556 S
O18 C19 1.208 . S
C19 O17 1.312 1_455 S
C19 O18 1.208 . S
C20 O12 1.331 . S
C20 O15 1.244 1_565 S
O21 Mg6 2.013 1_656 S
O21 C10 1.191 1_655 S
O22 C1 1.331 1_565 S
O22 Mg8 2.081 1_554 S
O23 Mg4 1.986 . S
O23 C10 1.307 . S
O24 C2 1.264 1_565 S
O24 Mg8 2.023 . S
O25 C1 1.244 . S
O25 Mg9 1.942 . S
O26 C2 1.273 . S
O26 Mg9 1.955 1_556 S
O27 C0 1.312 1_455 S
O27 Mg3 2.291 . S
O27 Mg6 2.114 1_565 S
O28 C0 1.208 . S
O28 Mg8 2.031 1_554 S
C29 O14 1.264 1_545 S
C29 O16 1.273 . S
C30 O11 1.191 1_655 S
C30 O13 1.307 . S
Cu31 N32 1.999 . S
Cu31 O37 1.974 . S
Cu31 N42 1.985 . S
Cu31 O51 1.959 . S
N32 Cu31 1.999 . S
N32 C34 1.263 . S
N32 C36 1.389 . S
N33 C34 1.358 . S
N33 C35 1.400 . S
C34 N32 1.263 . S
C34 N33 1.358 . S
C34 H40 0.930 1_655 S
C35 N33 1.400 . S
C35 C36 1.351 . S
C35 H52 0.930 . S
C36 N32 1.389 . S
C36 C35 1.351 . S
C36 H41 0.930 . S
O37 Cu31 1.974 . S
O37 C47 1.282 1_655 S
C38 O39 1.261 . S
C38 O51 1.251 1_455 S
O39 C38 1.261 . S
H40 C34 0.930 1_455 S
H41 C36 0.930 . S
N42 Cu31 1.985 . S
N42 C44 1.335 . S
N42 C45 1.390 1_655 S
N43 C44 1.345 . S
N43 C46 1.336 1_655 S
C44 N42 1.335 . S
C44 N43 1.345 . S
C44 H49 0.930 . S
C45 N42 1.390 1_455 S
C45 C46 1.346 . S
C45 H50 0.930 . S
C46 N43 1.336 1_455 S
C46 C45 1.346 . S
C46 H53 0.929 . S
C47 O37 1.282 1_455 S
C47 O48 1.216 . S
O48 C47 1.216 . S
H49 C44 0.930 . S
H50 C45 0.930 . S
O51 Cu31 1.959 . S
O51 C38 1.251 1_655 S
H52 C35 0.930 . S
H53 C46 0.929 . S
Cu54 N55 1.999 . S
Cu54 O60 1.974 . S
Cu54 N65 1.985 . S
Cu54 O74 1.959 . S
N55 Cu54 1.999 . S
N55 C57 1.263 . S
N55 C59 1.389 . S
N56 C57 1.358 . S
N56 C58 1.400 . S
C57 N55 1.263 . S
C57 N56 1.358 . S
C57 H63 0.930 1_545 S
C58 N56 1.400 . S
C58 C59 1.351 . S
C58 H75 0.930 . S
C59 N55 1.389 . S
C59 C58 1.351 . S
C59 H64 0.930 . S
O60 Cu54 1.974 . S
O60 C70 1.282 1_545 S
C61 O62 1.261 . S
C61 O74 1.251 1_565 S
O62 C61 1.261 . S
H63 C57 0.930 1_565 S
H64 C59 0.930 . S
N65 Cu54 1.985 . S
N65 C67 1.335 . S
N65 C68 1.390 1_545 S
N66 C67 1.345 . S
N66 C69 1.336 1_545 S
C67 N65 1.335 . S
C67 N66 1.345 . S
C67 H72 0.930 . S
C68 N65 1.390 1_565 S
C68 C69 1.346 . S
C68 H73 0.930 . S
C69 N66 1.336 1_565 S
C69 C68 1.346 . S
C69 H76 0.929 . S
C70 O60 1.282 1_565 S
C70 O71 1.216 . S
O71 C70 1.216 . S
H72 C67 0.930 . S
H73 C68 0.930 . S
O74 Cu54 1.959 . S
O74 C61 1.251 1_545 S
H75 C58 0.930 . S
H76 C69 0.929 . S
H77 C85 0.950 . S
H78 C90 0.950 . S
H79 C87 0.950 . S
H80 C89 0.950 . S
H81 C91 0.950 . S
H82 C93 0.950 . S
H83 C95 0.950 . S
H84 C96 0.950 . S
C85 H77 0.950 . S
C85 C86 1.386 1_655 S
C85 C87 1.391 . S
C86 C85 1.386 1_455 S
C86 C90 1.393 . S
C87 H79 0.950 . S
C87 C85 1.391 . S
C87 C88 1.400 1_655 S
C88 C87 1.400 1_455 S
C88 C89 1.398 . S
C88 C94 1.491 . S
C89 H80 0.950 . S
C89 C88 1.398 . S
C89 C90 1.391 . S
C90 H78 0.950 . S
C90 C86 1.393 . S
C90 C89 1.391 . S
C91 H81 0.950 . S
C91 C92 1.386 . S
C91 C93 1.391 . S
C92 C91 1.386 . S
C92 C96 1.393 1_455 S
C93 H82 0.950 . S
C93 C91 1.391 . S
C93 C94 1.400 . S
C94 C88 1.491 . S
C94 C93 1.400 . S
C94 C95 1.398 1_455 S
C95 H83 0.950 . S
C95 C94 1.398 1_655 S
C95 C96 1.391 . S
C96 H84 0.950 . S
C96 C92 1.393 1_655 S
C96 C95 1.391 . S
H97 C105 0.950 . S
H98 C110 0.950 . S
H99 C107 0.950 . S
H100 C109 0.950 . S
H101 C111 0.950 . S
H102 C113 0.950 . S
H103 C115 0.950 . S
H104 C116 0.950 . S
C105 H97 0.950 . S
C105 C106 1.384 . S
C105 C107 1.391 . S
C106 C105 1.384 . S
C106 C110 1.395 1_545 S
C107 H99 0.950 . S
C107 C105 1.391 . S
C107 C108 1.400 . S
C108 C107 1.400 . S
C108 C109 1.398 1_545 S
C108 C114 1.491 . S
C109 H100 0.950 . S
C109 C108 1.398 1_565 S
C109 C110 1.391 . S
C110 H98 0.950 . S
C110 C106 1.395 1_565 S
C110 C109 1.391 . S
C111 H101 0.950 . S
C111 C112 1.386 1_565 S
C111 C113 1.391 . S
C112 C111 1.386 1_545 S
C112 C116 1.393 . S
C113 H102 0.950 . S
C113 C111 1.391 . S
C113 C114 1.400 1_565 S
C114 C108 1.491 . S
C114 C113 1.400 1_545 S
C114 C115 1.398 . S
C115 H103 0.950 . S
C115 C114 1.398 . S
C115 C116 1.391 . S
C116 H104 0.950 . S
C116 C112 1.393 . S
C116 C115 1.391 . S
H117 C125 0.950 . S
H118 C130 0.950 . S
H119 C127 0.950 . S
H120 C129 0.950 . S
H121 C131 0.950 . S
H122 C133 0.950 . S
H123 C135 0.950 . S
H124 C136 0.950 . S
C125 H117 0.950 . S
C125 C126 1.386 1_655 S
C125 C127 1.391 . S
C126 C125 1.386 1_455 S
C126 C130 1.393 . S
C127 H119 0.950 . S
C127 C125 1.391 . S
C127 C128 1.402 . S
C128 C127 1.402 . S
C128 C129 1.397 1_655 S
C128 C134 1.491 . S
C129 H120 0.950 . S
C129 C128 1.397 1_455 S
C129 C130 1.391 . S
C130 H118 0.950 . S
C130 C126 1.393 . S
C130 C129 1.391 . S
C131 H121 0.950 . S
C131 C132 1.386 1_455 S
C131 C133 1.391 . S
C132 C131 1.386 1_655 S
C132 C136 1.393 . S
C133 H122 0.950 . S
C133 C131 1.391 . S
C133 C134 1.400 1_455 S
C134 C128 1.491 . S
C134 C133 1.400 1_655 S
C134 C135 1.398 . S
C135 H123 0.950 . S
C135 C134 1.398 . S
C135 C136 1.391 . S
C136 H124 0.950 . S
C136 C132 1.393 . S
C136 C135 1.391 . S
H137 C145 0.950 . S
H138 C150 0.950 . S
H139 C147 0.950 . S
H140 C149 0.950 . S
H141 C151 0.950 . S
H142 C153 0.950 . S
H143 C155 0.950 . S
H144 C156 0.950 . S
C145 H137 0.950 . S
C145 C146 1.386 . S
C145 C147 1.391 . S
C146 C145 1.386 . S
C146 C150 1.393 1_545 S
C147 H139 0.950 . S
C147 C145 1.391 . S
C147 C148 1.400 . S
C148 C147 1.400 . S
C148 C149 1.398 1_545 S
C148 C154 1.491 . S
C149 H140 0.950 . S
C149 C148 1.398 1_565 S
C149 C150 1.391 . S
C150 H138 0.950 . S
C150 C146 1.393 1_565 S
C150 C149 1.391 . S
C151 H141 0.950 . S
C151 C152 1.386 . S
C151 C153 1.391 . S
C152 C151 1.386 . S
C152 C156 1.393 1_565 S
C153 H142 0.950 . S
C153 C151 1.391 . S
C153 C154 1.400 1_565 S
C154 C148 1.491 . S
C154 C153 1.400 1_545 S
C154 C155 1.398 . S
C155 H143 0.950 . S
C155 C154 1.398 . S
C155 C156 1.391 . S
C156 H144 0.950 . S
C156 C152 1.393 1_545 S
C156 C155 1.391 . S
H157 C165 0.950 . S
H158 C170 0.950 . S
H159 C167 0.950 . S
H160 C169 0.950 . S
H161 C171 0.950 . S
H162 C173 0.950 . S
H163 C175 0.950 . S
H164 C176 0.950 . S
C165 H157 0.950 . S
C165 C166 1.386 . S
C165 C167 1.391 . S
C166 C165 1.386 . S
C166 C170 1.393 1_655 S
C167 H159 0.950 . S
C167 C165 1.391 . S
C167 C168 1.400 1_655 S
C168 C167 1.400 1_455 S
C168 C169 1.398 . S
C168 C174 1.491 . S
C169 H160 0.950 . S
C169 C168 1.398 . S
C169 C170 1.391 . S
C170 H158 0.950 . S
C170 C166 1.393 1_455 S
C170 C169 1.391 . S
C171 H161 0.950 . S
C171 C172 1.386 . S
C171 C173 1.391 . S
C172 C171 1.386 . S
C172 C176 1.393 1_455 S
C173 H162 0.950 . S
C173 C171 1.391 . S
C173 C174 1.400 . S
C174 C168 1.491 . S
C174 C173 1.400 . S
C174 C175 1.398 1_455 S
C175 H163 0.950 . S
C175 C174 1.398 1_655 S
C175 C176 1.391 . S
C176 H164 0.950 . S
C176 C172 1.393 1_655 S
C176 C175 1.391 . S
H177 C185 0.950 . S
H178 C190 0.950 . S
H179 C187 0.950 . S
H180 C189 0.950 . S
H181 C191 0.950 . S
H182 C193 0.950 . S
H183 C195 0.950 . S
H184 C196 0.950 . S
C185 H177 0.950 . S
C185 C186 1.386 . S
C185 C187 1.391 . S
C186 C185 1.386 . S
C186 C190 1.393 1_565 S
C187 H179 0.950 . S
C187 C185 1.391 . S
C187 C188 1.400 1_565 S
C188 C187 1.400 1_545 S
C188 C189 1.398 . S
C188 C194 1.491 . S
C189 H180 0.950 . S
C189 C188 1.398 . S
C189 C190 1.391 . S
C190 H178 0.950 . S
C190 C186 1.393 1_545 S
C190 C189 1.391 . S
C191 H181 0.950 . S
C191 C192 1.386 . S
C191 C193 1.391 . S
C192 C191 1.386 . S
C192 C196 1.393 1_545 S
C193 H182 0.950 . S
C193 C191 1.391 . S
C193 C194 1.400 . S
C194 C188 1.491 . S
C194 C193 1.400 . S
C194 C195 1.398 1_545 S
C195 H183 0.950 . S
C195 C194 1.398 1_565 S
C195 C196 1.391 . S
C196 H184 0.950 . S
C196 C192 1.393 1_565 S
C196 C195 1.391 . S
H197 C205 0.950 . S
H198 C210 0.950 . S
H199 C207 0.950 . S
H200 C209 0.950 . S
H201 C211 0.950 . S
H202 C213 0.950 . S
H203 C215 0.951 . S
H204 C216 0.950 . S
C205 H197 0.950 . S
C205 C206 1.386 . S
C205 C207 1.391 . S
C206 C205 1.386 . S
C206 C210 1.393 . S
C207 H199 0.950 . S
C207 C205 1.391 . S
C207 C208 1.400 . S
C208 C207 1.400 . S
C208 C209 1.398 . S
C208 C214 1.491 . S
C209 H200 0.950 . S
C209 C208 1.398 . S
C209 C210 1.391 . S
C210 H198 0.950 . S
C210 C206 1.393 . S
C210 C209 1.391 . S
C211 H201 0.950 . S
C211 C212 1.386 . S
C211 C213 1.391 . S
C212 C211 1.386 . S
C212 C216 1.393 . S
C213 H202 0.950 . S
C213 C211 1.391 . S
C213 C214 1.400 . S
C214 C208 1.491 . S
C214 C213 1.400 . S
C214 C215 1.398 . S
C215 H203 0.951 . S
C215 C214 1.398 . S
C215 C216 1.391 . S
C216 H204 0.950 . S
C216 C212 1.393 . S
C216 C215 1.391 . S
H217 C225 0.950 . S
H218 C230 0.950 . S
H219 C227 0.950 . S
H220 C229 0.950 . S
H221 C231 0.950 . S
H222 C233 0.950 . S
H223 C235 0.950 . S
H224 C236 0.950 . S
C225 H217 0.950 . S
C225 C226 1.386 1_565 S
C225 C227 1.391 . S
C226 C225 1.386 1_545 S
C226 C230 1.393 . S
C227 H219 0.950 . S
C227 C225 1.391 . S
C227 C228 1.400 1_565 S
C228 C227 1.400 1_545 S
C228 C229 1.398 . S
C228 C234 1.491 . S
C229 H220 0.950 . S
C229 C228 1.398 . S
C229 C230 1.391 . S
C230 H218 0.950 . S
C230 C226 1.393 . S
C230 C229 1.391 . S
C231 H221 0.950 . S
C231 C232 1.386 1_545 S
C231 C233 1.391 . S
C232 C231 1.386 1_565 S
C232 C236 1.393 . S
C233 H222 0.950 . S
C233 C231 1.391 . S
C233 C234 1.411 . S
C234 C228 1.491 . S
C234 C233 1.411 . S
C234 C235 1.388 1_545 S
C235 H223 0.950 . S
C235 C234 1.388 1_565 S
C235 C236 1.391 . S
C236 H224 0.950 . S
C236 C232 1.393 . S
C236 C235 1.391 . S
C86 C30 1.391 1_455 S
C92 C47 1.411 . S
C106 C1 1.454 . S
C112 N66 1.462 . S
C126 C0 1.264 1_455 S
C132 N43 1.307 . S
C146 C29 1.627 . S
C152 C70 1.657 . S
C166 C19 1.409 1_655 S
C172 C38 1.475 . S
C186 C20 1.515 . S
C192 N56 1.502 . S
C212 N33 1.331 . S
C206 C10 1.329 1_655 S
C226 C2 1.643 . S
C232 C61 1.692 . S
