# Generated by pormake.
# Topology scu, (8,4)-cn, num edge types: 1
# Building blocks:
#     Node 0, Type 0, BuildingBlock: GIZVER_clean_sbu_0, # of connection points: 8
#     Node 1, Type 1, BuildingBlock: ESEHIV_clean_sbu_0, # of connection points: 4
#     Node 2, Type 1, BuildingBlock: ESEHIV_clean_sbu_0, # of connection points: 4
#     Edge 3, Type (0, 1), BuildingBlock: KIFKEQ_clean_linker_1, # of connection points: 2
#     Edge 4, Type (0, 1), BuildingBlock: KIFKEQ_clean_linker_1, # of connection points: 2
#     Edge 5, Type (0, 1), BuildingBlock: KIFKEQ_clean_linker_1, # of connection points: 2
#     Edge 6, Type (0, 1), BuildingBlock: KIFKEQ_clean_linker_1, # of connection points: 2
#     Edge 7, Type (0, 1), BuildingBlock: KIFKEQ_clean_linker_1, # of connection points: 2
#     Edge 8, Type (0, 1), BuildingBlock: KIFKEQ_clean_linker_1, # of connection points: 2
#     Edge 9, Type (0, 1), BuildingBlock: KIFKEQ_clean_linker_1, # of connection points: 2
#     Edge 10, Type (0, 1), BuildingBlock: KIFKEQ_clean_linker_1, # of connection points: 2
# Relax obj value: 0.031
# Max RMSD: 0.139
# Mean RMSD: 0.115
data_MOF--net-scu--node1-GIZVER_clean_sbu_0--node2-ESEHIV_clean_sbu_0--edge1-KIFKEQ_clean_linker_1
_symmetry_space_group_name_H-M    P1
_symmetry_Int_Tables_number       1
_symmetry_cell_setting            triclinic
loop_
_symmetry_equiv_pos_as_xyz
'x, y, z'
_cell_length_a     25.031199
_cell_length_b     26.056566
_cell_length_c     22.1643
_cell_angle_alpha  102.59153
_cell_angle_beta   85.905053
_cell_angle_gamma 112.93669
loop_
_atom_site_label
_atom_site_type_symbol
_atom_site_fract_x
_atom_site_fract_y
_atom_site_fract_z
_atom_type_partial_charge
Co0 Co 0.02778 0.96634 0.15775 0.0
Co1 Co 0.11149 0.05158 0.12426 0.0
Co2 Co 0.99956 1.01935 0.03992 0.0
O3 O 0.0486 0.9923 0.08157 0.0
H4 H 0.06269 0.96729 0.05221 0.0
O5 O 0.95163 0.04702 0.99699 0.0
Co6 Co 0.97574 0.06865 0.9186 0.0
Co7 Co 0.89045 0.9897 0.95299 0.0
H8 H 0.93842 0.07358 1.02495 0.0
O9 O 0.17808 0.03985 0.13333 0.0
O10 O 0.10143 1.02564 0.1969 0.0
O11 O 0.10896 0.12583 0.1431 0.0
O12 O 0.02329 0.09765 0.09643 0.0
O13 O 0.06548 0.04748 0.98384 0.0
O14 O 0.99696 0.09382 0.84934 0.0
O15 O 0.94885 0.12555 0.92881 0.0
O16 O 1.01169 1.01514 0.89879 0.0
O17 O 0.97487 0.94053 0.98385 0.0
O18 O 0.88864 0.91427 0.93927 0.0
O19 O 0.90047 1.01161 0.87768 0.0
O20 O 0.82488 1.00051 0.94374 0.0
C21 C 0.04125 0.90853 0.19873 0.0
C22 C 0.94187 1.01132 0.15568 0.0
C23 C 0.06494 0.135 0.13163 0.0
C24 C 0.15268 1.02457 0.1834 0.0
C25 C 0.97423 0.13012 0.87544 0.0
C26 C 0.06104 0.03256 0.92511 0.0
C27 C 0.93149 0.90335 0.9506 0.0
C28 C 0.84708 1.0076 0.88982 0.0
O29 O 1.01164 0.93827 0.22584 0.0
O30 O 0.06165 0.91443 0.14358 0.0
O31 O 0.93419 0.99244 0.0974 0.0
O32 O 0.98763 1.01625 0.18242 0.0
Cu33 Cu 0.05732 0.54422 0.54806 0.0
N34 N 0.0925 0.51465 0.59581 0.0
N35 N 0.09254 0.45608 0.65627 0.0
C36 C 0.06171 0.4668 0.61658 0.0
C37 C 0.14527 0.49907 0.66054 0.0
C38 C 0.14518 0.53517 0.62308 0.0
O39 O 0.02075 0.48155 0.47844 0.0
C40 C 0.04002 0.61572 0.64721 0.0
O41 O 0.09636 0.62924 0.64595 0.0
H42 H 1.01638 0.44179 0.60485 0.0
H43 H 0.18025 0.57449 0.61814 0.0
N44 N 0.1058 0.60544 0.51267 0.0
N45 N 0.12461 0.67145 0.4553 0.0
C46 C 0.0841 0.62584 0.47389 0.0
C47 C 0.16262 0.63894 0.51885 0.0
C48 C 0.17436 0.67972 0.48341 0.0
C49 C 0.05874 0.47247 0.44085 0.0
O50 O 0.11375 0.50431 0.45351 0.0
H51 H 0.03889 0.60706 0.45987 0.0
H52 H 0.19315 0.63487 0.54768 0.0
O53 O 1.00874 0.57498 0.60522 0.0
H54 H 0.18109 0.50448 0.68921 0.0
H55 H 0.21596 0.71363 0.48013 0.0
Cu56 Cu 0.51761 0.0615 0.54026 0.0
N57 N 0.48967 0.10416 0.60396 0.0
N58 N 0.42792 0.11982 0.67676 0.0
C59 C 0.43356 0.09298 0.6187 0.0
C60 C 0.48253 0.14972 0.69906 0.0
C61 C 0.52039 0.13981 0.65426 0.0
O62 O 0.45922 1.0216 0.47525 0.0
C63 C 0.58173 0.99705 0.56151 0.0
O64 O 0.60123 0.99968 0.50524 0.0
H65 H 0.39749 0.06166 0.59 0.0
H66 H 0.56663 0.15322 0.66037 0.0
N67 N 0.58367 0.10755 0.50409 0.0
N68 N 0.65801 0.12496 0.43841 0.0
C69 C 0.60254 0.09109 0.44763 0.0
C70 C 0.62795 0.15458 0.5312 0.0
C71 C 0.67368 0.16551 0.49087 0.0
C72 C 0.40851 0.98409 0.47808 0.0
O73 O 0.39229 0.96358 0.5285 0.0
H74 H 0.57717 0.05226 0.41615 0.0
H75 H 0.62885 0.17686 0.57852 0.0
O76 O 0.54105 1.01417 0.58023 0.0
H77 H 0.49414 0.17387 0.74585 0.0
H78 H 0.71659 0.19811 0.50176 0.0
H79 H 0.96458 0.15423 0.15692 0.0
H80 H 0.15019 0.23411 0.18724 0.0
H81 H 0.95333 0.23694 0.22524 0.0
H82 H 0.13895 0.31624 0.25481 0.0
H83 H 0.11497 0.47551 0.33294 0.0
H84 H 0.10988 0.39547 0.24989 0.0
H85 H 0.96797 0.28322 0.34049 0.0
H86 H 0.97266 0.36453 0.42407 0.0
C87 C 1.00305 0.18983 0.17718 0.0
C88 C 0.05842 0.18773 0.16633 0.0
C89 C 0.99646 0.2369 0.21673 0.0
C90 C 0.0452 0.28326 0.24521 0.0
C91 C 0.10054 0.28163 0.23291 0.0
C92 C 0.10703 0.23444 0.19427 0.0
C93 C 0.08172 0.43398 0.3345 0.0
C94 C 0.04461 0.42606 0.38524 0.0
C95 C 0.07906 0.38807 0.28707 0.0
C96 C 0.03948 0.33282 0.28931 0.0
C97 C 0.99901 0.32537 0.33753 0.0
C98 C 1.00151 0.37182 0.38526 0.0
H99 H 0.95808 0.07984 0.2707 0.0
H100 H 0.83103 0.9917 0.12259 0.0
H101 H 0.88845 0.11236 0.33239 0.0
H102 H 0.76115 1.0244 0.18471 0.0
H103 H 0.63933 1.02508 0.35507 0.0
H104 H 0.70738 1.00291 0.28157 0.0
H105 H 0.83288 0.17483 0.33638 0.0
H106 H 0.76423 0.19803 0.40967 0.0
C107 C 0.91528 0.06741 0.25124 0.0
C108 C 0.89984 0.03248 0.19201 0.0
C109 C 0.87558 0.08661 0.28639 0.0
C110 C 0.81926 0.07084 0.26348 0.0
C111 C 0.8041 0.03683 0.20378 0.0
C112 C 0.84412 1.01819 0.16822 0.0
C113 C 0.68068 0.0589 0.35105 0.0
C114 C 0.69602 0.11346 0.38953 0.0
C115 C 0.7199 0.04594 0.30855 0.0
C116 C 0.77566 0.08694 0.3035 0.0
C117 C 0.79046 0.14206 0.33994 0.0
C118 C 0.75101 0.15526 0.38213 0.0
H119 H 0.99854 0.8839 0.30961 0.0
H120 H 0.11677 0.8532 0.16805 0.0
H121 H 0.02289 0.82914 0.37044 0.0
H122 H 0.14046 0.7966 0.22918 0.0
H123 H 0.20517 0.74493 0.39159 0.0
H124 H 0.18772 0.80291 0.32786 0.0
H125 H 1.00459 0.73078 0.36493 0.0
H126 H 0.02188 0.67578 0.43024 0.0
C127 C 0.02938 0.86493 0.29102 0.0
C128 C 0.05496 0.87226 0.23334 0.0
C129 C 0.04327 0.83329 0.32601 0.0
C130 C 0.08307 0.80775 0.30444 0.0
C131 C 0.10963 0.81575 0.24717 0.0
C132 C 0.09556 0.84758 0.21183 0.0
C133 C 0.16127 0.74176 0.38652 0.0
C134 C 0.11505 0.70525 0.41637 0.0
C135 C 0.15122 0.77456 0.34937 0.0
C136 C 0.09476 0.77168 0.3414 0.0
C137 C 0.04875 0.73477 0.37065 0.0
C138 C 0.05872 0.7024 0.4077 0.0
H139 H 0.23631 0.98223 0.15044 0.0
H140 H 0.13371 1.01938 0.306 0.0
H141 H 0.29013 0.95527 0.21622 0.0
H142 H 0.18943 0.99447 0.37298 0.0
H143 H 0.43104 1.01294 0.36569 0.0
H144 H 0.36275 1.01062 0.29244 0.0
H145 H 0.22002 0.92562 0.40354 0.0
H146 H 0.28943 0.92975 0.4789 0.0
C147 C 0.22541 0.98486 0.1989 0.0
C148 C 0.18188 1.00445 0.22346 0.0
C149 C 0.25625 0.96931 0.23666 0.0
C150 C 0.24514 0.97391 0.30027 0.0
C151 C 0.19918 0.99031 0.3242 0.0
C152 C 0.16765 1.00521 0.28603 0.0
C153 C 0.38513 0.99292 0.3743 0.0
C154 C 0.36583 0.97216 0.42862 0.0
C155 C 0.34571 0.99116 0.33183 0.0
C156 C 0.28567 0.96823 0.3421 0.0
C157 C 0.26601 0.94441 0.39472 0.0
C158 C 0.30575 0.94627 0.43756 0.0
H159 H 1.00492 0.85424 0.97312 0.0
H160 H 0.86769 0.83045 0.84925 0.0
H161 H 0.02262 0.77515 0.90609 0.0
H162 H 0.88719 0.75334 0.78079 0.0
H163 H 0.92535 0.6006 0.67351 0.0
H164 H 0.89056 0.66028 0.755 0.0
H165 H 0.06807 0.76818 0.81027 0.0
H166 H 0.10196 0.70871 0.73191 0.0
C167 C 0.97809 0.83175 0.93197 0.0
C168 C 0.93545 0.84926 0.91628 0.0
C169 C 0.98848 0.78661 0.89316 0.0
C170 C 0.9573 0.75857 0.83702 0.0
C171 C 0.91197 0.77358 0.82356 0.0
C172 C 0.90096 0.81817 0.86288 0.0
C173 C 0.95662 0.63683 0.70359 0.0
C174 C 1.01638 0.64967 0.6961 0.0
C175 C 0.93681 0.67113 0.75018 0.0
C176 C 0.97644 0.71886 0.78997 0.0
C177 C 0.03599 0.73108 0.78211 0.0
C178 C 0.05554 0.69701 0.73627 0.0
H179 H 0.17204 0.09936 0.96416 0.0
H180 H 0.07072 0.99203 0.80137 0.0
H181 H 0.2594 0.12197 0.9033 0.0
H182 H 0.15906 1.01226 0.74045 0.0
H183 H 0.32166 0.10265 0.63624 0.0
H184 H 0.23199 0.08138 0.69535 0.0
H185 H 0.32561 0.08559 0.85423 0.0
H186 H 0.41473 0.10922 0.79592 0.0
C187 C 0.16852 0.07987 0.91539 0.0
C188 C 0.11435 0.04375 0.88767 0.0
C189 C 0.21888 0.09261 0.88036 0.0
C190 C 0.21681 0.06876 0.81671 0.0
C191 C 0.1625 0.03221 0.78904 0.0
C192 C 0.11181 1.02016 0.82405 0.0
C193 C 0.32274 0.09933 0.68396 0.0
C194 C 0.37525 0.10845 0.71175 0.0
C195 C 0.27136 0.0867 0.7178 0.0
C196 C 0.27122 0.08195 0.77997 0.0
C197 C 0.32392 0.09034 0.80717 0.0
C198 C 0.37523 0.10387 0.77371 0.0
H199 H 0.98626 0.12899 0.75275 0.0
H200 H 0.97712 0.23715 0.92766 0.0
H201 H 1.01108 0.20874 0.7016 0.0
H202 H 1.00207 0.31778 0.87598 0.0
H203 H 0.12776 0.45566 0.7694 0.0
H204 H 0.09141 0.37699 0.82444 0.0
H205 H 0.9721 0.27356 0.67319 0.0
H206 H 1.00912 0.35142 0.61789 0.0
C207 C 0.98868 0.16974 0.78016 0.0
C208 C 0.97983 0.17681 0.84429 0.0
C209 C 1.00275 0.21547 0.75074 0.0
C210 C 1.00893 0.26977 0.78471 0.0
C211 C 0.99821 0.27657 0.84865 0.0
C212 C 0.9833 0.23035 0.87812 0.0
C213 C 0.09403 0.41603 0.74782 0.0
C214 C 0.07156 0.40984 0.68908 0.0
C215 C 0.07263 0.37122 0.77971 0.0
C216 C 0.02873 0.31902 0.75328 0.0
C217 C 1.00612 0.31306 0.69474 0.0
C218 C 0.02714 0.35787 0.66317 0.0
H219 H 0.8765 0.03883 0.7773 0.0
H220 H 0.72927 0.96528 0.88922 0.0
H221 H 0.81045 0.03059 0.69616 0.0
H222 H 0.66387 0.95481 0.808 0.0
H223 H 0.56586 1.00895 0.68611 0.0
H224 H 0.63054 1.01038 0.76322 0.0
H225 H 0.73978 0.96571 0.61876 0.0
H226 H 0.67577 0.96649 0.54112 0.0
C227 C 0.83015 1.02065 0.78442 0.0
C228 C 0.80823 1.00333 0.83998 0.0
C229 C 0.79222 1.01543 0.73775 0.0
C230 C 0.73164 0.99219 0.7455 0.0
C231 C 0.7101 0.97405 0.80076 0.0
C232 C 0.7478 0.97995 0.84744 0.0
C233 C 0.60312 0.99852 0.67053 0.0
C234 C 0.61557 0.98769 0.6073 0.0
C235 C 0.64035 0.99925 0.71494 0.0
C236 C 0.69077 0.98846 0.69743 0.0
C237 C 0.70199 0.97528 0.63402 0.0
C238 C 0.66486 0.975 0.58946 0.0
loop_
_geom_bond_atom_site_label_1
_geom_bond_atom_site_label_2
_geom_bond_distance
_geom_bond_site_symmetry_2
_ccdc_geom_bond_type
Co0 O3 2.042 . S
Co0 O10 2.264 1_565 S
Co0 O29 2.286 1_455 S
Co0 O30 2.069 . S
Co0 O32 2.015 1_455 S
Co1 O3 2.122 1_545 S
Co1 O9 2.073 . S
Co1 O10 2.327 . S
Co1 O11 1.976 . S
Co2 O3 2.087 1_545 S
Co2 O5 2.087 1_454 S
Co2 O12 2.111 . S
Co2 O13 2.143 1_554 S
Co2 O17 2.111 1_444 S
Co2 O31 2.143 1_445 S
O3 Co0 2.042 . S
O3 Co1 2.122 1_565 S
O3 Co2 2.087 1_565 S
O3 H4 0.980 . S
H4 O3 0.980 . S
O5 Co2 2.087 1_656 S
O5 Co6 2.042 1_655 S
O5 Co7 2.122 1_545 S
O5 H8 0.980 . S
Co6 O5 2.042 1_455 S
Co6 O14 2.286 . S
Co6 O15 2.069 1_455 S
Co6 O16 2.015 . S
Co6 O19 2.264 1_455 S
Co7 O5 2.122 1_565 S
Co7 O18 1.976 . S
Co7 O19 2.327 1_565 S
Co7 O20 2.073 . S
H8 O5 0.980 . S
O9 Co1 2.073 . S
O9 C24 1.245 . S
O10 Co0 2.264 1_545 S
O10 Co1 2.327 . S
O10 C24 1.257 . S
O11 Co1 1.976 . S
O11 C23 1.251 . S
O12 Co2 2.111 . S
O12 C23 1.274 . S
O13 Co2 2.143 1_556 S
O13 C26 1.246 . S
O14 Co6 2.286 . S
O14 C25 1.259 1_455 S
O15 Co6 2.069 1_655 S
O15 C25 1.289 . S
O16 Co6 2.015 . S
O16 C26 1.257 . S
O17 Co2 2.111 1_666 S
O17 C27 1.274 . S
O18 Co7 1.976 . S
O18 C27 1.251 . S
O19 Co6 2.264 1_655 S
O19 Co7 2.327 1_545 S
O19 C28 1.257 . S
O20 Co7 2.073 . S
O20 C28 1.245 1_565 S
C21 O29 1.259 1_455 S
C21 O30 1.289 . S
C22 O31 1.246 . S
C22 O32 1.257 . S
C23 O11 1.251 . S
C23 O12 1.274 . S
C24 O9 1.245 . S
C24 O10 1.257 . S
C25 O14 1.259 1_655 S
C25 O15 1.289 . S
C26 O13 1.246 . S
C26 O16 1.257 . S
C27 O17 1.274 . S
C27 O18 1.251 . S
C28 O19 1.257 . S
C28 O20 1.245 1_545 S
O29 Co0 2.286 1_655 S
O29 C21 1.259 1_655 S
O30 Co0 2.069 . S
O30 C21 1.289 . S
O31 Co2 2.143 1_665 S
O31 C22 1.246 . S
O32 Co0 2.015 1_655 S
O32 C22 1.257 . S
Cu33 N34 1.999 . S
Cu33 O39 1.974 . S
Cu33 N44 1.985 . S
Cu33 O53 1.959 . S
N34 Cu33 1.999 . S
N34 C36 1.263 . S
N34 C38 1.389 . S
N35 C36 1.358 . S
N35 C37 1.400 . S
C36 N34 1.263 . S
C36 N35 1.358 . S
C36 H42 0.930 1_655 S
C37 N35 1.400 . S
C37 C38 1.351 . S
C37 H54 0.930 . S
C38 N34 1.389 . S
C38 C37 1.351 . S
C38 H43 0.930 . S
O39 Cu33 1.974 . S
O39 C49 1.282 1_655 S
C40 O41 1.261 . S
C40 O53 1.251 1_455 S
O41 C40 1.261 . S
H42 C36 0.930 1_455 S
H43 C38 0.930 . S
N44 Cu33 1.985 . S
N44 C46 1.335 . S
N44 C47 1.390 1_655 S
N45 C46 1.345 . S
N45 C48 1.336 1_655 S
C46 N44 1.335 . S
C46 N45 1.345 . S
C46 H51 0.930 . S
C47 N44 1.390 1_455 S
C47 C48 1.346 . S
C47 H52 0.930 . S
C48 N45 1.336 1_455 S
C48 C47 1.346 . S
C48 H55 0.929 . S
C49 O39 1.282 1_455 S
C49 O50 1.216 . S
O50 C49 1.216 . S
H51 C46 0.930 . S
H52 C47 0.930 . S
O53 Cu33 1.959 . S
O53 C40 1.251 1_655 S
H54 C37 0.930 . S
H55 C48 0.929 . S
Cu56 N57 1.999 . S
Cu56 O62 1.974 . S
Cu56 N67 1.985 . S
Cu56 O76 1.959 . S
N57 Cu56 1.999 . S
N57 C59 1.263 . S
N57 C61 1.389 . S
N58 C59 1.358 . S
N58 C60 1.400 . S
C59 N57 1.263 . S
C59 N58 1.358 . S
C59 H65 0.927 1_545 S
C60 N58 1.400 . S
C60 C61 1.351 . S
C60 H77 0.930 . S
C61 N57 1.389 . S
C61 C60 1.351 . S
C61 H66 0.930 . S
O62 Cu56 1.974 . S
O62 C72 1.282 1_545 S
C63 O64 1.261 . S
C63 O76 1.251 1_565 S
O64 C63 1.261 . S
H65 C59 0.927 1_565 S
H66 C61 0.930 . S
N67 Cu56 1.985 . S
N67 C69 1.335 . S
N67 C70 1.390 . S
N68 C69 1.345 . S
N68 C71 1.336 . S
C69 N67 1.335 . S
C69 N68 1.345 . S
C69 H74 0.930 . S
C70 N67 1.390 . S
C70 C71 1.346 . S
C70 H75 0.930 1_545 S
C71 N68 1.336 . S
C71 C70 1.346 . S
C71 H78 0.929 1_545 S
C72 O62 1.282 1_565 S
C72 O73 1.216 . S
O73 C72 1.216 . S
H74 C69 0.930 . S
H75 C70 0.930 1_565 S
O76 Cu56 1.959 . S
O76 C63 1.251 1_545 S
H77 C60 0.930 . S
H78 C71 0.929 1_565 S
H79 C87 0.950 . S
H80 C92 0.950 . S
H81 C89 0.950 1_655 S
H82 C91 0.950 . S
H83 C93 0.950 . S
H84 C95 0.950 . S
H85 C97 0.954 . S
H86 C98 0.950 . S
C87 H79 0.950 . S
C87 C88 1.386 1_655 S
C87 C89 1.391 1_655 S
C88 C87 1.386 1_455 S
C88 C92 1.393 . S
C89 H81 0.950 1_455 S
C89 C87 1.391 1_455 S
C89 C90 1.400 . S
C90 C89 1.400 . S
C90 C91 1.398 . S
C90 C96 1.491 . S
C91 H82 0.950 . S
C91 C90 1.398 . S
C91 C92 1.391 . S
C92 H80 0.950 . S
C92 C88 1.393 . S
C92 C91 1.391 . S
C93 H83 0.950 . S
C93 C94 1.386 . S
C93 C95 1.391 . S
C94 C93 1.386 . S
C94 C98 1.393 . S
C95 H84 0.950 . S
C95 C93 1.391 . S
C95 C96 1.400 . S
C96 C90 1.491 . S
C96 C95 1.400 . S
C96 C97 1.398 . S
C97 H85 0.954 . S
C97 C96 1.398 . S
C97 C98 1.391 . S
C98 H86 0.950 . S
C98 C94 1.393 . S
C98 C97 1.391 . S
H99 C107 0.950 . S
H100 C112 0.950 . S
H101 C109 0.950 . S
H102 C111 0.950 . S
H103 C113 0.950 . S
H104 C115 0.950 . S
H105 C117 0.950 . S
H106 C118 0.950 . S
C107 H99 0.950 . S
C107 C108 1.386 . S
C107 C109 1.391 . S
C108 C107 1.386 . S
C108 C112 1.393 1_545 S
C109 H101 0.950 . S
C109 C107 1.391 . S
C109 C110 1.400 . S
C110 C109 1.400 . S
C110 C111 1.398 1_545 S
C110 C116 1.491 . S
C111 H102 0.950 . S
C111 C110 1.398 1_565 S
C111 C112 1.391 . S
C112 H100 0.950 . S
C112 C108 1.393 1_565 S
C112 C111 1.391 . S
C113 H103 0.950 . S
C113 C114 1.386 1_565 S
C113 C115 1.391 . S
C114 C113 1.386 1_545 S
C114 C118 1.393 . S
C115 H104 0.950 . S
C115 C113 1.391 . S
C115 C116 1.400 1_565 S
C116 C110 1.491 . S
C116 C115 1.400 1_545 S
C116 C117 1.398 . S
C117 H105 0.950 . S
C117 C116 1.398 . S
C117 C118 1.391 . S
C118 H106 0.950 . S
C118 C114 1.393 . S
C118 C117 1.391 . S
H119 C127 0.950 . S
H120 C132 0.950 . S
H121 C129 0.950 . S
H122 C131 0.950 . S
H123 C133 0.950 . S
H124 C135 0.950 . S
H125 C137 0.950 . S
H126 C138 0.950 . S
C127 H119 0.950 . S
C127 C128 1.386 1_655 S
C127 C129 1.391 . S
C128 C127 1.386 1_455 S
C128 C132 1.393 . S
C129 H121 0.950 . S
C129 C127 1.391 . S
C129 C130 1.400 1_655 S
C130 C129 1.400 1_455 S
C130 C131 1.398 . S
C130 C136 1.491 . S
C131 H122 0.950 . S
C131 C130 1.398 . S
C131 C132 1.391 . S
C132 H120 0.950 . S
C132 C128 1.393 . S
C132 C131 1.391 . S
C133 H123 0.950 . S
C133 C134 1.386 1_455 S
C133 C135 1.391 . S
C134 C133 1.386 1_655 S
C134 C138 1.393 . S
C135 H124 0.950 . S
C135 C133 1.391 . S
C135 C136 1.400 . S
C136 C130 1.491 . S
C136 C135 1.400 . S
C136 C137 1.398 1_455 S
C137 H125 0.950 . S
C137 C136 1.398 1_655 S
C137 C138 1.391 . S
C138 H126 0.950 . S
C138 C134 1.393 . S
C138 C137 1.391 . S
H139 C147 0.950 . S
H140 C152 0.950 . S
H141 C149 0.950 . S
H142 C151 0.950 . S
H143 C153 0.950 . S
H144 C155 0.950 . S
H145 C157 0.950 . S
H146 C158 0.950 . S
C147 H139 0.950 . S
C147 C148 1.386 . S
C147 C149 1.391 . S
C148 C147 1.386 . S
C148 C152 1.393 1_565 S
C149 H141 0.950 . S
C149 C147 1.391 . S
C149 C150 1.400 . S
C150 C149 1.400 . S
C150 C151 1.398 1_565 S
C150 C156 1.491 . S
C151 H142 0.950 . S
C151 C150 1.398 1_545 S
C151 C152 1.391 . S
C152 H140 0.950 . S
C152 C148 1.393 1_545 S
C152 C151 1.391 . S
C153 H143 0.950 . S
C153 C154 1.386 1_545 S
C153 C155 1.391 . S
C154 C153 1.386 1_565 S
C154 C158 1.393 . S
C155 H144 0.950 . S
C155 C153 1.391 . S
C155 C156 1.400 1_545 S
C156 C150 1.491 . S
C156 C155 1.400 1_565 S
C156 C157 1.398 . S
C157 H145 0.950 . S
C157 C156 1.398 . S
C157 C158 1.391 . S
C158 H146 0.950 . S
C158 C154 1.393 . S
C158 C157 1.391 . S
H159 C167 0.950 . S
H160 C172 0.950 . S
H161 C169 0.950 . S
H162 C171 0.950 . S
H163 C173 0.950 . S
H164 C175 0.950 . S
H165 C177 0.950 . S
H166 C178 0.950 . S
C167 H159 0.950 . S
C167 C168 1.386 . S
C167 C169 1.391 . S
C168 C167 1.386 . S
C168 C172 1.393 1_455 S
C169 H161 0.950 . S
C169 C167 1.391 . S
C169 C170 1.400 . S
C170 C169 1.400 . S
C170 C171 1.398 1_455 S
C170 C176 1.491 . S
C171 H162 0.950 . S
C171 C170 1.398 1_655 S
C171 C172 1.391 . S
C172 H160 0.950 . S
C172 C168 1.393 1_655 S
C172 C171 1.391 . S
C173 H163 0.950 . S
C173 C174 1.386 1_655 S
C173 C175 1.391 . S
C174 C173 1.386 1_455 S
C174 C178 1.393 . S
C175 H164 0.950 . S
C175 C173 1.391 . S
C175 C176 1.400 1_655 S
C176 C170 1.491 . S
C176 C175 1.400 1_455 S
C176 C177 1.398 . S
C177 H165 0.950 . S
C177 C176 1.398 . S
C177 C178 1.391 . S
C178 H166 0.950 . S
C178 C174 1.393 . S
C178 C177 1.391 . S
H179 C187 0.950 . S
H180 C192 0.950 . S
H181 C189 0.950 . S
H182 C191 0.950 . S
H183 C193 0.950 . S
H184 C195 0.950 . S
H185 C197 0.950 . S
H186 C198 0.950 . S
C187 H179 0.950 . S
C187 C188 1.386 . S
C187 C189 1.391 . S
C188 C187 1.386 . S
C188 C192 1.393 . S
C189 H181 0.950 . S
C189 C187 1.391 . S
C189 C190 1.400 . S
C190 C189 1.400 . S
C190 C191 1.398 . S
C190 C196 1.491 . S
C191 H182 0.950 . S
C191 C190 1.398 . S
C191 C192 1.391 . S
C192 H180 0.950 . S
C192 C188 1.393 . S
C192 C191 1.391 . S
C193 H183 0.950 . S
C193 C194 1.386 . S
C193 C195 1.391 . S
C194 C193 1.386 . S
C194 C198 1.393 . S
C195 H184 0.950 . S
C195 C193 1.391 . S
C195 C196 1.400 . S
C196 C190 1.491 . S
C196 C195 1.400 . S
C196 C197 1.398 . S
C197 H185 0.950 . S
C197 C196 1.398 . S
C197 C198 1.391 . S
C198 H186 0.950 . S
C198 C194 1.393 . S
C198 C197 1.391 . S
H199 C207 0.955 . S
H200 C212 0.950 . S
H201 C209 0.950 1_455 S
H202 C211 0.950 . S
H203 C213 0.950 . S
H204 C215 0.950 . S
H205 C217 0.950 . S
H206 C218 0.950 . S
C207 H199 0.955 . S
C207 C208 1.386 . S
C207 C209 1.391 . S
C208 C207 1.386 . S
C208 C212 1.393 . S
C209 H201 0.950 1_655 S
C209 C207 1.391 . S
C209 C210 1.400 . S
C210 C209 1.400 . S
C210 C211 1.398 . S
C210 C216 1.491 . S
C211 H202 0.950 . S
C211 C210 1.398 . S
C211 C212 1.391 . S
C212 H200 0.950 . S
C212 C208 1.393 . S
C212 C211 1.391 . S
C213 H203 0.950 . S
C213 C214 1.386 . S
C213 C215 1.391 . S
C214 C213 1.386 . S
C214 C218 1.393 1_655 S
C215 H204 0.950 . S
C215 C213 1.391 . S
C215 C216 1.400 . S
C216 C210 1.491 . S
C216 C215 1.400 . S
C216 C217 1.398 1_655 S
C217 H205 0.950 . S
C217 C216 1.398 1_455 S
C217 C218 1.391 . S
C218 H206 0.950 . S
C218 C214 1.393 1_455 S
C218 C217 1.391 . S
H219 C227 0.950 . S
H220 C232 0.950 . S
H221 C229 0.950 . S
H222 C231 0.950 . S
H223 C233 0.950 . S
H224 C235 0.950 . S
H225 C237 0.950 . S
H226 C238 0.950 . S
C227 H219 0.950 . S
C227 C228 1.386 1_565 S
C227 C229 1.391 . S
C228 C227 1.386 1_545 S
C228 C232 1.393 . S
C229 H221 0.950 . S
C229 C227 1.391 . S
C229 C230 1.400 1_565 S
C230 C229 1.400 1_545 S
C230 C231 1.398 . S
C230 C236 1.491 . S
C231 H222 0.950 . S
C231 C230 1.398 . S
C231 C232 1.391 . S
C232 H220 0.950 . S
C232 C228 1.393 . S
C232 C231 1.391 . S
C233 H223 0.950 . S
C233 C234 1.387 . S
C233 C235 1.391 . S
C234 C233 1.387 . S
C234 C238 1.390 1_545 S
C235 H224 0.950 . S
C235 C233 1.391 . S
C235 C236 1.400 . S
C236 C230 1.491 . S
C236 C235 1.400 . S
C236 C237 1.398 1_545 S
C237 H225 0.950 . S
C237 C236 1.398 1_565 S
C237 C238 1.391 . S
C238 H226 0.950 . S
C238 C234 1.390 1_565 S
C238 C237 1.391 . S
C88 C23 1.380 . S
C94 C49 1.440 . S
C108 C22 1.412 1_545 S
C114 N68 1.408 . S
C128 C21 1.685 . S
C134 N45 1.659 . S
C148 C24 1.570 1_565 S
C154 C72 1.622 . S
C168 C27 1.420 1_455 S
C174 C40 1.500 . S
C188 C26 1.418 . S
C194 N58 1.415 . S
C214 N35 1.678 . S
C208 C25 1.711 . S
C228 C28 1.598 . S
C234 C63 1.682 1_545 S
