# Generated by pormake.
# Topology pts, (4,4)-cn, num edge types: 1
# Building blocks:
#     Node 0, Type 0, BuildingBlock: KOZSID_clean_sbu_0, # of connection points: 4
#     Node 1, Type 0, BuildingBlock: KOZSID_clean_sbu_0, # of connection points: 4
#     Node 2, Type 1, BuildingBlock: QUQFOY_clean_sbu_1, # of connection points: 4
#     Node 3, Type 1, BuildingBlock: QUQFOY_clean_sbu_1, # of connection points: 4
#     Edge 4, Type (0, 1), BuildingBlock: OJICUG_clean_linker_0, # of connection points: 2
#     Edge 5, Type (0, 1), BuildingBlock: OJICUG_clean_linker_0, # of connection points: 2
#     Edge 6, Type (0, 1), BuildingBlock: OJICUG_clean_linker_0, # of connection points: 2
#     Edge 7, Type (0, 1), BuildingBlock: OJICUG_clean_linker_0, # of connection points: 2
#     Edge 8, Type (0, 1), BuildingBlock: OJICUG_clean_linker_0, # of connection points: 2
#     Edge 9, Type (0, 1), BuildingBlock: OJICUG_clean_linker_0, # of connection points: 2
#     Edge 10, Type (0, 1), BuildingBlock: OJICUG_clean_linker_0, # of connection points: 2
#     Edge 11, Type (0, 1), BuildingBlock: OJICUG_clean_linker_0, # of connection points: 2
# Relax obj value: 0.093
# Max RMSD: 0.255
# Mean RMSD: 0.145
data_MOF--net-pts--node1-KOZSID_clean_sbu_0--node2-QUQFOY_clean_sbu_1--edge1-OJICUG_clean_linker_0
_symmetry_space_group_name_H-M    P1
_symmetry_Int_Tables_number       1
_symmetry_cell_setting            triclinic
loop_
_symmetry_equiv_pos_as_xyz
'x, y, z'
_cell_length_a     19.161078
_cell_length_b     21.802273
_cell_length_c     31.929418
_cell_angle_alpha  84.891334
_cell_angle_beta   95.666133
_cell_angle_gamma 90.139216
loop_
_atom_site_label
_atom_site_type_symbol
_atom_site_fract_x
_atom_site_fract_y
_atom_site_fract_z
_atom_type_partial_charge
C0 C 0.68101 0.14149 0.06131 0.0
C1 C 0.70493 0.1996 0.07021 0.0
C2 C 0.66315 0.24121 0.04508 0.0
C3 C 0.61671 0.20647 0.02203 0.0
N4 N 0.62634 0.14502 0.0307 0.0
Co5 Co 0.57204 0.07807 0.00305 0.0
N6 N 0.51089 0.1398 0.9659 0.0
C7 C 0.51476 0.20193 0.9649 0.0
C8 C 0.4688 0.23238 0.93461 0.0
C9 C 0.43304 0.18712 0.91508 0.0
C10 C 0.45878 0.1313 0.93506 0.0
N11 N 0.51775 0.01112 0.9754 0.0
C12 C 0.46307 0.01464 0.9448 0.0
C13 C 0.43918 0.95654 0.93588 0.0
C14 C 0.481 0.91493 0.96099 0.0
C15 C 0.52742 0.94966 0.98404 0.0
N16 N 0.63317 0.01634 0.04021 0.0
C17 C 0.62929 0.95421 0.04122 0.0
C18 C 0.6752 0.92376 0.07154 0.0
C19 C 0.71093 0.96901 0.09108 0.0
C20 C 0.68524 0.02484 0.07108 0.0
N21 N 0.50508 0.07685 0.04685 0.0
C22 C 0.40967 0.07452 0.10906 0.0
C23 C 0.44141 0.02052 0.09943 0.0
C24 C 0.48755 0.02262 0.06819 0.0
C25 C 0.42759 0.12994 0.08724 0.0
C26 C 0.47545 0.1301 0.05689 0.0
N27 N 0.639 0.07929 0.95925 0.0
C28 C 0.71654 0.02621 0.91888 0.0
C29 C 0.73434 0.08162 0.89699 0.0
C30 C 0.70253 0.13561 0.90659 0.0
C31 C 0.65643 0.13351 0.93785 0.0
C32 C 0.66871 0.02605 0.94925 0.0
H33 H 0.63578 0.17654 0.94409 0.0
H34 H 0.65703 0.98231 0.96443 0.0
H35 H 0.50814 0.97958 0.06191 0.0
H36 H 0.48722 0.17385 0.04176 0.0
C37 C 0.56441 0.23036 0.99155 0.0
C38 C 0.71231 0.0845 0.0825 0.0
C39 C 0.43172 0.07164 0.92364 0.0
C40 C 0.57969 0.92578 0.01454 0.0
H41 H 0.74837 0.21103 0.09237 0.0
H42 H 0.66658 0.29091 0.04353 0.0
H43 H 0.46288 0.28161 0.92713 0.0
H44 H 0.39293 0.19464 0.88881 0.0
H45 H 0.39573 0.9451 0.91373 0.0
H46 H 0.47758 0.86522 0.96253 0.0
H47 H 0.68111 0.87453 0.07903 0.0
H48 H 0.751 0.9615 0.11737 0.0
H49 H 0.43097 0.97634 0.11582 0.0
H50 H 0.40399 0.17317 0.09279 0.0
H51 H 0.74021 0.983 0.91337 0.0
H52 H 0.71288 0.17977 0.89015 0.0
C53 C 0.14459 0.48561 0.5714 0.0
C54 C 0.21051 0.46611 0.58955 0.0
C55 C 0.25804 0.50199 0.56981 0.0
C56 C 0.21865 0.54114 0.54085 0.0
N57 N 0.14868 0.53309 0.54126 0.0
Co58 Co 0.07237 0.57803 0.50308 0.0
N59 N 0.1426 0.62709 0.47153 0.0
C60 C 0.21336 0.6229 0.4783 0.0
C61 C 0.24766 0.66396 0.45264 0.0
C62 C 0.19578 0.69706 0.4284 0.0
C63 C 0.13262 0.67419 0.44083 0.0
N64 N 0.99606 0.62296 0.4649 0.0
C65 C 0.00014 0.6704 0.43474 0.0
C66 C 0.93423 0.68985 0.41655 0.0
C67 C 0.88669 0.65399 0.43629 0.0
C68 C 0.92609 0.61488 0.46529 0.0
N69 N 0.00214 0.52898 0.53463 0.0
C70 C 0.93137 0.53318 0.52787 0.0
C71 C 0.89708 0.49214 0.55355 0.0
C72 C 0.94895 0.45902 0.57778 0.0
C73 C 0.01211 0.48186 0.56533 0.0
N74 N 0.07103 0.64342 0.54272 0.0
C75 C 0.06817 0.7416 0.59432 0.0
C76 C 0.00663 0.71157 0.5811 0.0
C77 C 0.00913 0.66338 0.55518 0.0
C78 C 0.13132 0.72114 0.58206 0.0
C79 C 0.13168 0.67177 0.55698 0.0
N80 N 0.0737 0.51264 0.46344 0.0
C81 C 0.0134 0.43486 0.42416 0.0
C82 C 0.07653 0.41443 0.41186 0.0
C83 C 0.13807 0.4445 0.42503 0.0
C84 C 0.13559 0.4927 0.45094 0.0
C85 C 0.01305 0.48425 0.44923 0.0
H86 H 0.18454 0.51257 0.46079 0.0
H87 H 0.96309 0.49831 0.45688 0.0
H88 H 0.96017 0.64355 0.54529 0.0
H89 H 0.18165 0.65768 0.54934 0.0
C90 C 0.24589 0.5828 0.51095 0.0
C91 C 0.07996 0.45569 0.58244 0.0
C92 C 0.06477 0.70032 0.42368 0.0
C93 C 0.89885 0.57325 0.4952 0.0
H94 H 0.22295 0.4288 0.61382 0.0
H95 H 0.31464 0.49862 0.57502 0.0
H96 H 0.30368 0.67029 0.45246 0.0
H97 H 0.20353 0.73474 0.40489 0.0
H98 H 0.9218 0.72712 0.39224 0.0
H99 H 0.83009 0.65733 0.43106 0.0
H100 H 0.84106 0.48581 0.55373 0.0
H101 H 0.9412 0.42134 0.60128 0.0
H102 H 0.95652 0.72604 0.59001 0.0
H103 H 0.1804 0.74261 0.59227 0.0
H104 H 0.96432 0.41337 0.41399 0.0
H105 H 0.18817 0.43004 0.41609 0.0
O106 O 0.97869 0.02843 0.21927 0.0
Cd107 Cd 0.06797 0.00637 0.2587 0.0
Cd108 Cd 0.07312 0.13876 0.25649 0.0
O109 O 0.97923 0.13004 0.21939 0.0
O110 O 0.06307 0.91472 0.2678 0.0
O111 O 0.06631 0.97454 0.32014 0.0
C112 C 0.06353 0.91976 0.30767 0.0
C113 C 0.0771 0.21556 0.30361 0.0
C114 C 0.95137 0.08084 0.20728 0.0
C115 C 0.19004 0.07073 0.22166 0.0
O116 O 0.16489 0.1218 0.2298 0.0
O117 O 0.15987 0.02031 0.23151 0.0
O118 O 0.07993 0.22869 0.26371 0.0
O119 O 0.07206 0.15828 0.3172 0.0
O120 O 0.98415 0.13578 0.77454 0.0
Cd121 Cd 0.0761 0.14969 0.74741 0.0
Cd122 Cd 0.07094 0.0173 0.74964 0.0
O123 O 0.97912 0.0343 0.77626 0.0
O124 O 0.08114 0.24133 0.73829 0.0
O125 O 0.07787 0.18147 0.68597 0.0
C126 C 0.08074 0.23626 0.69843 0.0
C127 C 0.06713 0.94048 0.70254 0.0
C128 C 0.95395 0.08537 0.78438 0.0
C129 C 0.19262 0.07521 0.7989 0.0
O130 O 0.16477 0.02601 0.7868 0.0
O131 O 0.16532 0.12762 0.78688 0.0
O132 O 0.06417 0.92737 0.74243 0.0
O133 O 0.07217 0.99775 0.68895 0.0
C134 C 0.34815 0.1219 0.16506 0.0
C135 C 0.3565 0.07248 0.14034 0.0
H136 H 0.28904 0.16028 0.21024 0.0
C137 C 0.31198 0.02137 0.14484 0.0
H138 H 0.38217 0.16155 0.16323 0.0
C139 C 0.26031 0.01993 0.17273 0.0
C140 C 0.25048 0.07012 0.19624 0.0
H141 H 0.31521 0.98296 0.12584 0.0
H142 H 0.22608 0.98035 0.17449 0.0
C143 C 0.29524 0.12099 0.19239 0.0
C144 C 0.07638 0.34094 0.59647 0.0
C145 C 0.08288 0.39909 0.61199 0.0
H146 H 0.07095 0.24331 0.61173 0.0
C147 C 0.08983 0.4036 0.65565 0.0
H148 H 0.0707 0.33688 0.56274 0.0
C149 C 0.08971 0.35055 0.68361 0.0
C150 C 0.08272 0.29197 0.66837 0.0
H151 H 0.09463 0.44825 0.66805 0.0
H152 H 0.09469 0.35556 0.71722 0.0
C153 C 0.0765 0.28767 0.62446 0.0
C154 C 0.76982 0.11352 0.15225 0.0
C155 C 0.77444 0.08668 0.11417 0.0
H156 H 0.82372 0.13412 0.21165 0.0
C157 C 0.83797 0.05981 0.1067 0.0
H158 H 0.72108 0.13419 0.15868 0.0
C159 C 0.89517 0.0577 0.13738 0.0
C160 C 0.89059 0.08441 0.17539 0.0
H161 H 0.84277 0.03928 0.07743 0.0
H162 H 0.9433 0.0356 0.13131 0.0
C163 C 0.82806 0.11334 0.18243 0.0
C164 C 0.03562 0.78554 0.65944 0.0
C165 C 0.06659 0.79329 0.62132 0.0
H166 H 0.01235 0.82593 0.7152 0.0
C167 C 0.09637 0.85038 0.60938 0.0
H168 H 0.01254 0.74187 0.66936 0.0
C169 C 0.09501 0.89902 0.63517 0.0
C170 C 0.06539 0.89078 0.6738 0.0
H171 H 0.12025 0.85744 0.57997 0.0
H172 H 0.11849 0.94253 0.62535 0.0
C173 C 0.03573 0.83357 0.68565 0.0
C174 C 0.37421 0.04264 0.85389 0.0
C175 C 0.36958 0.06945 0.89198 0.0
H176 H 0.3203 0.02203 0.79449 0.0
C177 C 0.30603 0.09626 0.89948 0.0
H178 H 0.42296 0.02201 0.84745 0.0
C179 C 0.24882 0.09834 0.8688 0.0
C180 C 0.2534 0.07166 0.83079 0.0
H181 H 0.30123 0.11677 0.92876 0.0
H182 H 0.20067 0.1204 0.87489 0.0
C183 C 0.31595 0.04279 0.82372 0.0
C184 C 0.10891 0.37046 0.34671 0.0
C185 C 0.07808 0.36272 0.38488 0.0
H186 H 0.13194 0.33008 0.2909 0.0
C187 C 0.04831 0.30563 0.39685 0.0
H188 H 0.13197 0.41413 0.33677 0.0
C189 C 0.04954 0.257 0.37104 0.0
C190 C 0.07901 0.26524 0.33236 0.0
H191 H 0.02453 0.29858 0.4263 0.0
H192 H 0.02607 0.2135 0.38088 0.0
C193 C 0.10867 0.32245 0.32048 0.0
C194 C 0.83191 0.13481 0.86112 0.0
C195 C 0.78747 0.08365 0.8657 0.0
H196 H 0.91774 0.17586 0.83142 0.0
C197 C 0.79588 0.03418 0.84103 0.0
H198 H 0.82863 0.17326 0.88008 0.0
C199 C 0.84879 0.03509 0.81369 0.0
C200 C 0.89348 0.086 0.80978 0.0
H201 H 0.76193 0.9945 0.8429 0.0
H202 H 0.85505 0.99576 0.79589 0.0
C203 C 0.88358 0.13624 0.83323 0.0
C204 C 0.05543 0.75235 0.35047 0.0
C205 C 0.06182 0.7569 0.39412 0.0
H206 H 0.05088 0.80036 0.2889 0.0
C207 C 0.06764 0.8151 0.40962 0.0
H208 H 0.05116 0.70767 0.33808 0.0
C209 C 0.06741 0.86836 0.38163 0.0
C210 C 0.06172 0.86403 0.33773 0.0
H211 H 0.07287 0.81918 0.44336 0.0
H212 H 0.07242 0.91276 0.39436 0.0
C213 C 0.05542 0.80541 0.3225 0.0
loop_
_geom_bond_atom_site_label_1
_geom_bond_atom_site_label_2
_geom_bond_distance
_geom_bond_site_symmetry_2
_ccdc_geom_bond_type
C0 C1 1.443 . S
C0 N4 1.376 . S
C0 C38 1.389 . S
C1 C0 1.443 . S
C1 C2 1.340 . S
C1 H41 0.951 . S
C2 C1 1.340 . S
C2 C3 1.439 . S
C2 H42 0.950 . S
C3 C2 1.439 . S
C3 N4 1.374 . S
C3 C37 1.395 1_554 S
N4 C0 1.376 . S
N4 C3 1.374 . S
N4 Co5 2.008 . S
Co5 N4 2.008 . S
Co5 N6 1.995 1_554 S
Co5 N11 2.008 1_554 S
Co5 N16 1.995 . S
Co5 N21 2.282 . S
Co5 N27 2.282 1_554 S
N6 Co5 1.995 1_556 S
N6 C7 1.376 . S
N6 C10 1.383 . S
C7 N6 1.376 . S
C7 C8 1.446 . S
C7 C37 1.391 . S
C8 C7 1.446 . S
C8 C9 1.339 . S
C8 H43 0.949 . S
C9 C8 1.339 . S
C9 C10 1.439 . S
C9 H44 0.950 . S
C10 N6 1.383 . S
C10 C9 1.439 . S
C10 C39 1.392 . S
N11 Co5 2.008 1_556 S
N11 C12 1.376 . S
N11 C15 1.374 1_545 S
C12 N11 1.376 . S
C12 C13 1.443 1_545 S
C12 C39 1.389 . S
C13 C12 1.443 1_565 S
C13 C14 1.340 . S
C13 H45 0.951 . S
C14 C13 1.340 . S
C14 C15 1.439 . S
C14 H46 0.950 . S
C15 N11 1.374 1_565 S
C15 C14 1.439 . S
C15 C40 1.395 1_556 S
N16 Co5 1.995 . S
N16 C17 1.376 1_545 S
N16 C20 1.383 . S
C17 N16 1.376 1_565 S
C17 C18 1.446 . S
C17 C40 1.391 . S
C18 C17 1.446 . S
C18 C19 1.339 . S
C18 H47 0.949 . S
C19 C18 1.339 . S
C19 C20 1.439 1_565 S
C19 H48 0.950 . S
C20 N16 1.383 . S
C20 C19 1.439 1_545 S
C20 C38 1.392 . S
N21 Co5 2.282 . S
N21 C24 1.332 . S
N21 C26 1.332 . S
C22 C23 1.386 . S
C22 C25 1.388 . S
C23 C22 1.386 . S
C23 C24 1.382 . S
C23 H49 0.950 1_545 S
C24 N21 1.332 . S
C24 C23 1.382 . S
C24 H35 0.952 . S
C25 C22 1.388 . S
C25 C26 1.382 . S
C25 H50 0.950 . S
C26 N21 1.332 . S
C26 C25 1.382 . S
C26 H36 0.948 . S
N27 Co5 2.282 1_556 S
N27 C31 1.332 . S
N27 C32 1.332 . S
C28 C29 1.388 . S
C28 C32 1.382 . S
C28 H51 0.950 . S
C29 C28 1.388 . S
C29 C30 1.386 . S
C30 C29 1.386 . S
C30 C31 1.382 . S
C30 H52 0.950 . S
C31 N27 1.332 . S
C31 C30 1.382 . S
C31 H33 0.952 . S
C32 N27 1.332 . S
C32 C28 1.382 . S
C32 H34 0.941 1_545 S
H33 C31 0.952 . S
H34 C32 0.941 1_565 S
H35 C24 0.952 . S
H36 C26 0.948 . S
C37 C3 1.395 1_556 S
C37 C7 1.391 . S
C38 C0 1.389 . S
C38 C20 1.392 . S
C39 C10 1.392 . S
C39 C12 1.389 . S
C40 C15 1.395 1_554 S
C40 C17 1.391 . S
H41 C1 0.951 . S
H42 C2 0.950 . S
H43 C8 0.949 . S
H44 C9 0.950 . S
H45 C13 0.951 . S
H46 C14 0.950 . S
H47 C18 0.949 . S
H48 C19 0.950 . S
H49 C23 0.950 1_565 S
H50 C25 0.950 . S
H51 C28 0.950 . S
H52 C30 0.950 . S
C53 C54 1.443 . S
C53 N57 1.376 . S
C53 C91 1.389 . S
C54 C53 1.443 . S
C54 C55 1.340 . S
C54 H94 0.951 . S
C55 C54 1.340 . S
C55 C56 1.439 . S
C55 H95 0.950 . S
C56 C55 1.439 . S
C56 N57 1.374 . S
C56 C90 1.395 . S
N57 C53 1.376 . S
N57 C56 1.374 . S
N57 Co58 2.008 . S
Co58 N57 2.008 . S
Co58 N59 1.995 . S
Co58 N64 2.008 . S
Co58 N69 1.995 . S
Co58 N74 2.282 . S
Co58 N80 2.282 . S
N59 Co58 1.995 . S
N59 C60 1.376 . S
N59 C63 1.383 . S
C60 N59 1.376 . S
C60 C61 1.446 . S
C60 C90 1.391 . S
C61 C60 1.446 . S
C61 C62 1.339 . S
C61 H96 0.949 . S
C62 C61 1.339 . S
C62 C63 1.439 . S
C62 H97 0.950 . S
C63 N59 1.383 . S
C63 C62 1.439 . S
C63 C92 1.392 . S
N64 Co58 2.008 . S
N64 C65 1.376 . S
N64 C68 1.374 1_455 S
C65 N64 1.376 . S
C65 C66 1.443 1_455 S
C65 C92 1.389 . S
C66 C65 1.443 1_655 S
C66 C67 1.340 . S
C66 H98 0.951 . S
C67 C66 1.340 . S
C67 C68 1.439 . S
C67 H99 0.950 . S
C68 N64 1.374 1_655 S
C68 C67 1.439 . S
C68 C93 1.395 . S
N69 Co58 1.995 . S
N69 C70 1.376 1_455 S
N69 C73 1.383 . S
C70 N69 1.376 1_655 S
C70 C71 1.446 . S
C70 C93 1.391 . S
C71 C70 1.446 . S
C71 C72 1.339 . S
C71 H100 0.949 . S
C72 C71 1.339 . S
C72 C73 1.439 1_655 S
C72 H101 0.950 . S
C73 N69 1.383 . S
C73 C72 1.439 1_455 S
C73 C91 1.392 . S
N74 Co58 2.282 . S
N74 C77 1.332 . S
N74 C79 1.332 . S
C75 C76 1.386 . S
C75 C78 1.388 . S
C76 C75 1.386 . S
C76 C77 1.382 . S
C76 H102 0.950 1_455 S
C77 N74 1.332 . S
C77 C76 1.382 . S
C77 H88 0.952 1_455 S
C78 C75 1.388 . S
C78 C79 1.382 . S
C78 H103 0.950 . S
C79 N74 1.332 . S
C79 C78 1.382 . S
C79 H89 0.948 . S
N80 Co58 2.282 . S
N80 C84 1.332 . S
N80 C85 1.332 . S
C81 C82 1.388 . S
C81 C85 1.382 . S
C81 H104 0.950 1_455 S
C82 C81 1.388 . S
C82 C83 1.386 . S
C83 C82 1.386 . S
C83 C84 1.382 . S
C83 H105 0.950 . S
C84 N80 1.332 . S
C84 C83 1.382 . S
C84 H86 0.952 . S
C85 N80 1.332 . S
C85 C81 1.382 . S
C85 H87 0.948 1_455 S
H86 C84 0.952 . S
H87 C85 0.948 1_655 S
H88 C77 0.952 1_655 S
H89 C79 0.948 . S
C90 C56 1.395 . S
C90 C60 1.391 . S
C91 C53 1.389 . S
C91 C73 1.392 . S
C92 C63 1.392 . S
C92 C65 1.389 . S
C93 C68 1.395 . S
C93 C70 1.391 . S
H94 C54 0.951 . S
H95 C55 0.950 . S
H96 C61 0.949 . S
H97 C62 0.950 . S
H98 C66 0.951 . S
H99 C67 0.950 . S
H100 C71 0.949 . S
H101 C72 0.950 . S
H102 C76 0.950 1_655 S
H103 C78 0.950 . S
H104 C81 0.950 1_655 S
H105 C83 0.950 . S
O106 Cd107 2.223 . S
O106 C114 1.315 1_465 S
Cd107 O106 2.223 . S
Cd107 O110 2.297 . S
Cd107 O111 2.439 . S
Cd107 O117 2.240 1_565 S
Cd108 O109 2.240 1_455 S
Cd108 O116 2.223 . S
Cd108 O118 2.297 . S
Cd108 O119 2.439 . S
O109 Cd108 2.240 1_655 S
O109 C114 1.279 . S
O110 Cd107 2.297 . S
O110 C112 1.247 . S
O111 Cd107 2.439 . S
O111 C112 1.208 . S
C112 O110 1.247 . S
C112 O111 1.208 . S
C113 O118 1.247 . S
C113 O119 1.208 . S
C114 O106 1.315 1_645 S
C114 O109 1.279 . S
C115 O116 1.315 . S
C115 O117 1.279 . S
O116 Cd108 2.223 . S
O116 C115 1.315 . S
O117 Cd107 2.240 1_545 S
O117 C115 1.279 . S
O118 Cd108 2.297 . S
O118 C113 1.247 . S
O119 Cd108 2.439 . S
O119 C113 1.208 . S
O120 Cd121 2.223 . S
O120 C128 1.315 . S
Cd121 O120 2.223 . S
Cd121 O124 2.297 . S
Cd121 O125 2.439 . S
Cd121 O131 2.240 . S
Cd122 O123 2.225 1_565 S
Cd122 O130 2.220 1_565 S
Cd122 O132 2.310 . S
Cd122 O133 2.439 1_565 S
O123 Cd122 2.225 1_545 S
O123 C128 1.279 . S
O124 Cd121 2.297 . S
O124 C126 1.247 . S
O125 Cd121 2.439 . S
O125 C126 1.208 . S
C126 O124 1.247 . S
C126 O125 1.208 . S
C127 O132 1.247 . S
C127 O133 1.208 1_565 S
C128 O120 1.315 . S
C128 O123 1.279 . S
C129 O130 1.326 . S
C129 O131 1.279 . S
O130 Cd122 2.220 1_545 S
O130 C129 1.326 . S
O131 Cd121 2.240 . S
O131 C129 1.279 . S
O132 Cd122 2.310 . S
O132 C127 1.247 . S
O133 Cd122 2.439 1_545 S
O133 C127 1.208 1_545 S
C134 C135 1.387 . S
C134 H138 0.950 . S
C134 C143 1.390 . S
C135 C134 1.387 . S
C135 C137 1.387 . S
H136 C143 0.950 . S
C137 C135 1.387 . S
C137 C139 1.390 . S
C137 H141 0.950 1_545 S
H138 C134 0.950 . S
C139 C137 1.390 . S
C139 C140 1.387 . S
C139 H142 0.943 1_545 S
C140 C139 1.387 . S
C140 C143 1.387 . S
H141 C137 0.950 1_565 S
H142 C139 0.943 1_565 S
C143 C134 1.390 . S
C143 H136 0.950 . S
C143 C140 1.387 . S
C144 C145 1.387 . S
C144 H148 0.950 . S
C144 C153 1.390 . S
C145 C144 1.387 . S
C145 C147 1.387 . S
H146 C153 0.950 . S
C147 C145 1.387 . S
C147 C149 1.390 . S
C147 H151 0.950 . S
H148 C144 0.950 . S
C149 C147 1.390 . S
C149 C150 1.387 . S
C149 H152 0.950 . S
C150 C149 1.387 . S
C150 C153 1.387 . S
H151 C147 0.950 . S
H152 C149 0.950 . S
C153 C144 1.390 . S
C153 H146 0.950 . S
C153 C150 1.387 . S
C154 C155 1.387 . S
C154 H158 0.950 . S
C154 C163 1.390 . S
C155 C154 1.387 . S
C155 C157 1.387 . S
H156 C163 0.950 . S
C157 C155 1.387 . S
C157 C159 1.390 1_545 S
C157 H161 0.950 1_545 S
H158 C154 0.950 . S
C159 C157 1.390 1_565 S
C159 C160 1.387 1_565 S
C159 H162 0.950 . S
C160 C159 1.387 1_545 S
C160 C163 1.387 . S
H161 C157 0.950 1_565 S
H162 C159 0.950 . S
C163 C154 1.390 . S
C163 H156 0.950 . S
C163 C160 1.387 . S
C164 C165 1.387 . S
C164 H168 0.950 1_455 S
C164 C173 1.390 . S
C165 C164 1.387 . S
C165 C167 1.387 . S
H166 C173 0.950 . S
C167 C165 1.387 . S
C167 C169 1.390 . S
C167 H171 0.950 . S
H168 C164 0.950 1_655 S
C169 C167 1.390 . S
C169 C170 1.387 . S
C169 H172 0.950 . S
C170 C169 1.387 . S
C170 C173 1.387 . S
H171 C167 0.950 . S
H172 C169 0.950 . S
C173 C164 1.390 . S
C173 H166 0.950 . S
C173 C170 1.387 . S
C174 C175 1.387 . S
C174 H178 0.950 1_545 S
C174 C183 1.390 . S
C175 C174 1.387 . S
C175 C177 1.387 . S
H176 C183 0.950 1_565 S
C177 C175 1.387 . S
C177 C179 1.390 . S
C177 H181 0.950 . S
H178 C174 0.950 1_565 S
C179 C177 1.390 . S
C179 C180 1.387 . S
C179 H182 0.950 . S
C180 C179 1.387 . S
C180 C183 1.387 . S
H181 C177 0.950 . S
H182 C179 0.950 . S
C183 C174 1.390 . S
C183 H176 0.950 1_545 S
C183 C180 1.387 . S
C184 C185 1.387 . S
C184 H188 0.950 . S
C184 C193 1.390 . S
C185 C184 1.387 . S
C185 C187 1.387 . S
H186 C193 0.950 . S
C187 C185 1.387 . S
C187 C189 1.390 . S
C187 H191 0.950 1_455 S
H188 C184 0.950 . S
C189 C187 1.390 . S
C189 C190 1.387 . S
C189 H192 0.950 . S
C190 C189 1.387 . S
C190 C193 1.387 . S
H191 C187 0.950 1_655 S
H192 C189 0.950 . S
C193 C184 1.390 . S
C193 H186 0.950 . S
C193 C190 1.387 . S
C194 C195 1.387 . S
C194 H198 0.950 . S
C194 C203 1.390 . S
C195 C194 1.387 . S
C195 C197 1.387 . S
H196 C203 0.950 . S
C197 C195 1.387 . S
C197 C199 1.390 . S
C197 H201 0.950 . S
H198 C194 0.950 . S
C199 C197 1.390 . S
C199 C200 1.387 . S
C199 H202 0.950 . S
C200 C199 1.387 . S
C200 C203 1.387 . S
H201 C197 0.950 . S
H202 C199 0.950 . S
C203 C194 1.390 . S
C203 H196 0.950 . S
C203 C200 1.387 . S
C204 C205 1.387 . S
C204 H208 0.950 . S
C204 C213 1.390 . S
C205 C204 1.387 . S
C205 C207 1.387 . S
H206 C213 0.950 . S
C207 C205 1.387 . S
C207 C209 1.390 . S
C207 H211 0.950 . S
H208 C204 0.950 . S
C209 C207 1.390 . S
C209 C210 1.387 . S
C209 H212 0.950 1_455 S
C210 C209 1.387 . S
C210 C213 1.387 . S
H211 C207 0.950 . S
H212 C209 0.950 1_655 S
C213 C204 1.390 . S
C213 H206 0.950 . S
C213 C210 1.387 . S
C140 C115 1.590 . S
C135 C22 1.587 . S
C150 C126 1.536 . S
C145 C91 1.639 . S
C160 C114 1.643 . S
C155 C38 1.636 . S
C170 C127 1.514 . S
C165 C75 1.581 . S
C180 C129 1.643 . S
C175 C39 1.632 . S
C190 C113 1.511 . S
C185 C82 1.587 . S
C200 C128 1.586 1_655 S
C195 C29 1.584 . S
C205 C92 1.630 . S
C210 C112 1.544 . S
