# Generated by pormake.
# Topology tsx, (6,3)-cn, num edge types: 1
# Building blocks:
#     Node 0, Type 0, BuildingBlock: MIDCAF_clean_sbu_0, # of connection points: 6
#     Node 1, Type 0, BuildingBlock: MIDCAF_clean_sbu_0, # of connection points: 6
#     Node 2, Type 1, BuildingBlock: WUSLED_clean_sbu_0, # of connection points: 3
#     Node 3, Type 1, BuildingBlock: WUSLED_clean_sbu_0, # of connection points: 3
#     Node 4, Type 1, BuildingBlock: WUSLED_clean_sbu_0, # of connection points: 3
#     Node 5, Type 1, BuildingBlock: WUSLED_clean_sbu_0, # of connection points: 3
#     Edge 6, Type (0, 1), BuildingBlock: EYOCIG_clean_linker_4, # of connection points: 2
#     Edge 7, Type (0, 1), BuildingBlock: EYOCIG_clean_linker_4, # of connection points: 2
#     Edge 8, Type (0, 1), BuildingBlock: EYOCIG_clean_linker_4, # of connection points: 2
#     Edge 9, Type (0, 1), BuildingBlock: EYOCIG_clean_linker_4, # of connection points: 2
#     Edge 10, Type (0, 1), BuildingBlock: EYOCIG_clean_linker_4, # of connection points: 2
#     Edge 11, Type (0, 1), BuildingBlock: EYOCIG_clean_linker_4, # of connection points: 2
#     Edge 12, Type (0, 1), BuildingBlock: EYOCIG_clean_linker_4, # of connection points: 2
#     Edge 13, Type (0, 1), BuildingBlock: EYOCIG_clean_linker_4, # of connection points: 2
#     Edge 14, Type (0, 1), BuildingBlock: EYOCIG_clean_linker_4, # of connection points: 2
#     Edge 15, Type (0, 1), BuildingBlock: EYOCIG_clean_linker_4, # of connection points: 2
#     Edge 16, Type (0, 1), BuildingBlock: EYOCIG_clean_linker_4, # of connection points: 2
#     Edge 17, Type (0, 1), BuildingBlock: EYOCIG_clean_linker_4, # of connection points: 2
# Relax obj value: 0.113
# Max RMSD: 0.179
# Mean RMSD: 0.109
data_MOF--net-tsx--node1-MIDCAF_clean_sbu_0--node2-WUSLED_clean_sbu_0--edge1-EYOCIG_clean_linker_4
_symmetry_space_group_name_H-M    P1
_symmetry_Int_Tables_number       1
_symmetry_cell_setting            triclinic
loop_
_symmetry_equiv_pos_as_xyz
'x, y, z'
_cell_length_a     20.890254
_cell_length_b     22.817179
_cell_length_c     40.812976
_cell_angle_alpha  91.124327
_cell_angle_beta   95.026043
_cell_angle_gamma 89.470991
loop_
_atom_site_label
_atom_site_type_symbol
_atom_site_fract_x
_atom_site_fract_y
_atom_site_fract_z
_atom_type_partial_charge
Zn0 Zn 0.9575 0.00114 0.98991 0.0
Zn1 Zn 0.16005 -0.00124 0.05618 0.0
Zn2 Zn 0.05814 -0.00323 0.0251 0.0
C3 C 0.14602 0.10883 0.03537 0.0
C4 C 0.18014 0.91462 1.01246 0.0
O5 O 0.98982 0.93961 0.04844 0.0
O6 O 0.92069 0.9283 1.00454 0.0
C7 C 0.96573 0.10972 0.01651 0.0
O8 O 0.08808 0.08947 0.03154 0.0
O9 O 0.19233 0.07425 0.04222 0.0
O10 O 0.20189 0.92692 0.04147 0.0
O11 O 0.1296 0.94141 0.99951 0.0
O12 O 0.92146 0.07644 1.00469 0.0
O13 O 1.02339 0.08963 0.02249 0.0
O14 O 0.08294 0.96354 0.97651 0.0
O15 O 0.99766 0.00044 0.94794 0.0
C16 C 0.05286 0.97759 0.94882 0.0
O17 O 0.03813 0.96048 0.07322 0.0
O18 O 0.12539 -0.00092 0.09927 0.0
C19 C 0.94101 0.91359 0.03318 0.0
C20 C 0.07155 0.97517 0.10015 0.0
Zn21 Zn 0.66008 0.49734 0.55556 0.0
Zn22 Zn 0.45738 0.50071 0.49002 0.0
Zn23 Zn 0.55829 0.49618 0.52478 0.0
C24 C 0.5523 0.47811 0.44847 0.0
C25 C 0.46648 0.60936 0.51626 0.0
O26 O 0.53814 0.46053 0.57315 0.0
O27 O 0.62609 0.49856 0.59879 0.0
C28 C 0.67939 0.41325 0.51181 0.0
O29 O 0.58275 0.46353 0.47599 0.0
O30 O 0.49698 0.50062 0.44792 0.0
O31 O 0.4218 0.57606 0.50496 0.0
O32 O 0.52412 0.58911 0.522 0.0
O33 O 0.70111 0.42509 0.54088 0.0
O34 O 0.62916 0.44057 0.4989 0.0
O35 O 0.58888 0.5887 0.5314 0.0
O36 O 0.69307 0.57247 0.5415 0.0
C37 C 0.64705 0.60754 0.53502 0.0
O38 O 0.49024 0.43863 0.54825 0.0
O39 O 0.42073 0.42772 0.50447 0.0
C40 C 0.57193 0.47543 0.59995 0.0
C41 C 0.44141 0.41261 0.53299 0.0
C42 C 1.0122 0.15051 0.46984 0.0
C43 C 0.98571 0.18196 0.44258 0.0
C44 C 0.9078 0.22772 0.47616 0.0
C45 C 0.93386 0.22051 0.44579 0.0
C46 C 0.93526 0.19747 0.50355 0.0
C47 C 0.98716 0.15911 0.50038 0.0
U48 U 0.11627 0.05137 0.41836 0.0
O49 O 0.21433 0.01657 0.42911 0.0
O50 O 0.13227 0.95619 0.42252 0.0
C51 C 0.19474 0.96191 0.42848 0.0
C52 C 0.06187 0.10499 0.46649 0.0
C53 C 0.22851 0.92107 0.45156 0.0
C54 C 0.26975 0.88938 0.5061 0.0
C55 C 0.23186 0.92817 0.48601 0.0
C56 C 0.29869 0.83611 0.45751 0.0
C57 C 0.30418 0.8439 0.49168 0.0
C58 C 0.26121 0.87431 0.43767 0.0
C59 C 0.09303 0.06783 0.32297 0.0
C60 C 0.1284 0.00097 0.28079 0.0
C61 C 0.05009 0.07705 0.26602 0.0
C62 C 0.05376 0.09676 0.29871 0.0
C63 C 0.08577 0.02804 0.25704 0.0
C64 C 0.13187 0.02063 0.31379 0.0
C65 C 0.08534 0.08404 0.35755 0.0
O66 O 0.04062 0.05585 0.45242 0.0
O67 O 0.11666 0.12187 0.45623 0.0
O68 O 0.13551 0.10474 0.37569 0.0
O69 O 0.05111 0.04771 0.37326 0.0
H70 H 1.00411 0.17567 0.41875 0.0
H71 H 0.91333 0.24381 0.42444 0.0
H72 H 0.91593 0.20268 0.52723 0.0
H73 H 1.00679 0.13502 0.52163 0.0
H74 H 0.27311 0.89548 0.53259 0.0
H75 H 0.20649 0.96392 0.49717 0.0
H76 H 0.32455 0.80099 0.44601 0.0
H77 H 0.25896 0.86806 0.4112 0.0
H78 H 0.15694 0.96341 0.2741 0.0
H79 H 1.01739 0.0988 0.24799 0.0
H80 H 1.02348 0.13316 0.30533 0.0
H81 H 0.16261 -0.00228 0.33217 0.0
C82 C 0.94178 0.90231 0.57034 0.0
C83 C 0.91491 0.87227 0.59552 0.0
C84 C 0.83875 0.82567 0.55492 0.0
C85 C 0.86357 0.83384 0.58776 0.0
C86 C 0.86702 0.85406 0.52984 0.0
C87 C 0.91825 0.89213 0.53753 0.0
U88 U 0.04591 0.00588 0.62819 0.0
O89 O 0.14361 0.03843 0.62349 0.0
O90 O 0.06146 0.10022 0.62219 0.0
C91 C 0.12375 0.09319 0.62124 0.0
C92 C 0.9901 0.9483 0.57734 0.0
C93 C 0.15806 0.13367 0.60143 0.0
C94 C 0.20265 0.16555 0.55152 0.0
C95 C 0.1634 0.12698 0.56737 0.0
C96 C 0.22823 0.21777 0.60325 0.0
C97 C 0.23634 0.21023 0.56987 0.0
C98 C 0.18954 0.17996 0.61881 0.0
C99 C 0.03246 0.98922 0.72299 0.0
C100 C 0.09641 0.03052 0.77051 0.0
C101 C 1.01165 0.96158 0.77815 0.0
C102 C 0.9968 0.958 0.74423 0.0
C103 C 0.06248 -0.00349 0.79143 0.0
C104 C 0.08158 0.02677 0.73624 0.0
C105 C 1.01961 0.97682 0.6875 0.0
O106 O 0.96791 -0.00206 0.5888 0.0
O107 O 0.04572 0.93238 0.59226 0.0
O108 O 0.06679 0.95314 0.6724 0.0
O109 O 0.98584 0.01561 0.66983 0.0
H110 H 0.93244 0.87966 0.62103 0.0
H111 H 0.84246 0.81152 0.60735 0.0
H112 H 0.84873 0.84767 0.50436 0.0
H113 H 0.93842 0.91501 0.51787 0.0
H114 H 0.20806 0.1595 0.5255 0.0
H115 H 0.13885 0.09169 0.55343 0.0
H116 H 0.25351 0.25211 0.61769 0.0
H117 H 0.18571 0.18597 0.64498 0.0
H118 H 0.13545 0.05826 0.78054 0.0
H119 H 0.98467 0.93543 0.79396 0.0
H120 H 0.95872 0.92898 0.73445 0.0
H121 H 0.10947 0.05149 0.7202 0.0
C122 C 0.51185 0.65059 0.97028 0.0
C123 C 0.48562 0.68207 0.94298 0.0
C124 C 0.40794 0.72842 0.97644 0.0
C125 C 0.43403 0.72091 0.94612 0.0
C126 C 0.43515 0.69815 1.0039 0.0
C127 C 0.48682 0.65947 1.00081 0.0
U128 U 0.61572 0.55121 0.91882 0.0
O129 O 0.71364 0.51617 0.92966 0.0
O130 O 0.63146 0.45597 0.92297 0.0
C131 C 0.69392 0.46156 0.92904 0.0
C132 C 0.56125 0.6048 0.96695 0.0
C133 C 0.72744 0.42079 0.95228 0.0
C134 C 0.76774 0.38914 1.00698 0.0
C135 C 0.73006 0.42783 0.98671 0.0
C136 C 0.79798 0.33612 0.95857 0.0
C137 C 0.8027 0.34382 0.99274 0.0
C138 C 0.76071 0.37422 0.93857 0.0
C139 C 0.59329 0.56909 0.82336 0.0
C140 C 0.6289 0.50328 0.78074 0.0
C141 C 0.55088 0.5798 0.7664 0.0
C142 C 0.55432 0.59869 0.79924 0.0
C143 C 0.58648 0.53094 0.75711 0.0
C144 C 0.63213 0.52212 0.81389 0.0
C145 C 0.58543 0.58454 0.85805 0.0
O146 O 0.53977 0.55587 0.95272 0.0
O147 O 0.61624 0.62146 0.95684 0.0
O148 O 0.63549 0.60496 0.87639 0.0
O149 O 0.55104 0.54795 0.87351 0.0
H150 H 0.50401 0.67559 0.91916 0.0
H151 H 0.4137 0.74422 0.92473 0.0
H152 H 0.41579 0.70358 0.02757 0.0
H153 H 0.50629 0.63536 0.02209 0.0
H154 H 0.7705 0.39519 0.03347 0.0
H155 H 0.70427 0.46345 0.99774 0.0
H156 H 0.82426 0.30114 0.9472 0.0
H157 H 0.75905 0.36802 0.91211 0.0
H158 H 0.65738 0.46582 0.77384 0.0
H159 H 0.51835 0.60202 0.74848 0.0
H160 H 0.52408 0.63497 0.80607 0.0
H161 H 0.66269 0.49872 0.83214 0.0
C162 C 0.44125 0.40219 0.07002 0.0
C163 C 0.41427 0.37236 0.09524 0.0
C164 C 0.33721 0.32663 0.05476 0.0
C165 C 0.36242 0.33446 0.08756 0.0
C166 C 0.36553 0.35483 0.02964 0.0
C167 C 0.41727 0.39236 0.03725 0.0
U168 U 0.5458 0.50539 0.12782 0.0
O169 O 0.64348 0.53807 0.12313 0.0
O170 O 0.56117 0.59973 0.12186 0.0
C171 C 0.62349 0.59282 0.12101 0.0
C172 C 0.48995 0.44785 0.07697 0.0
C173 C 0.65797 0.6338 0.10163 0.0
C174 C 0.70231 0.66734 0.05203 0.0
C175 C 0.66326 0.62813 0.06752 0.0
C176 C 0.72784 0.71814 0.1042 0.0
C177 C 0.73584 0.71164 0.07075 0.0
C178 C 0.68934 0.67969 0.11943 0.0
C179 C 0.53186 0.49015 0.22256 0.0
C180 C 0.59504 0.53327 0.26983 0.0
C181 C 0.51091 0.46393 0.27793 0.0
C182 C 0.49636 0.45929 0.24402 0.0
C183 C 0.56132 0.49956 0.29099 0.0
C184 C 0.58048 0.52846 0.23557 0.0
C185 C 0.51915 0.47689 0.18716 0.0
O186 O 0.46804 0.49768 0.08832 0.0
O187 O 0.54541 0.4317 0.09198 0.0
O188 O 0.56649 0.45307 0.17223 0.0
O189 O 0.48531 0.51529 0.16925 0.0
H190 H 0.4321 0.37953 0.12073 0.0
H191 H 0.34128 0.31226 0.10718 0.0
H192 H 0.34693 0.34868 1.00418 0.0
H193 H 0.43748 0.41514 0.01756 0.0
H194 H 0.70769 0.6621 0.02596 0.0
H195 H 0.63876 0.59317 0.05327 0.0
H196 H 0.75302 0.75218 0.11894 0.0
H197 H 0.6855 0.68492 0.14564 0.0
H198 H 0.63378 0.56151 0.27968 0.0
H199 H 0.48411 0.43799 0.29392 0.0
H200 H 0.45861 0.42975 0.23444 0.0
H201 H 0.60821 0.55296 0.21936 0.0
C202 C 0.18922 0.21515 0.03525 0.0
C203 C 0.16014 0.16983 0.03398 0.0
C204 C 0.23642 0.25877 0.04051 0.0
C205 C 0.28236 0.28979 0.04672 0.0
C206 C 0.25459 0.83658 0.98656 0.0
C207 C 0.21549 0.87221 0.99461 0.0
C208 C 0.30641 0.79772 0.98179 0.0
C209 C 0.35264 0.76623 0.97918 0.0
C210 C 0.86993 0.82855 0.05158 0.0
C211 C 0.90726 0.86715 0.04726 0.0
C212 C 0.82245 0.78514 0.05334 0.0
C213 C 0.78201 0.74925 0.0576 0.0
C214 C 0.92347 0.21716 0.02423 0.0
C215 C 0.94994 0.17019 0.02225 0.0
C216 C 0.88293 0.267 0.02091 0.0
C217 C 0.84518 0.30497 1.01194 0.0
C218 C 0.69125 0.71358 0.53522 0.0
C219 C 0.66181 0.66844 0.53386 0.0
C220 C 0.7385 0.75717 0.54054 0.0
C221 C 0.7842 0.78848 0.54681 0.0
C222 C 0.75383 0.3354 0.48578 0.0
C223 C 0.71467 0.37098 0.49382 0.0
C224 C 0.80586 0.29663 0.48125 0.0
C225 C 0.85228 0.26523 0.47898 0.0
C226 C 0.3709 0.32663 0.55081 0.0
C227 C 0.40807 0.36557 0.54682 0.0
C228 C 0.32341 0.28305 0.55226 0.0
C229 C 0.28276 0.24729 0.55645 0.0
C230 C 0.42503 0.7172 0.52323 0.0
C231 C 0.45121 0.67005 0.52155 0.0
C232 C 0.38466 0.76709 0.51969 0.0
C233 C 0.3469 0.80503 0.5107 0.0
C234 C 0.05018 0.97371 0.1618 0.0
C235 C 0.04946 0.96906 0.13223 0.0
C236 C 0.0626 0.988 0.19571 0.0
C237 C 0.07501 0.00435 0.2239 0.0
C238 C 0.09114 0.97656 0.88969 0.0
C239 C 0.08199 0.973 0.91834 0.0
C240 C 0.08952 0.98656 0.85555 0.0
C241 C 0.08079 -0.00605 0.82629 0.0
C242 C 0.55091 0.47651 0.66173 0.0
C243 C 0.54993 0.47078 0.63218 0.0
C244 C 0.56338 0.49145 0.6956 0.0
C245 C 0.57559 0.50771 0.72384 0.0
C246 C 0.59002 0.47955 0.38923 0.0
C247 C 0.58117 0.47487 0.41787 0.0
C248 C 0.58828 0.49031 0.35515 0.0
C249 C 0.57974 0.49757 0.32586 0.0
loop_
_geom_bond_atom_site_label_1
_geom_bond_atom_site_label_2
_geom_bond_distance
_geom_bond_site_symmetry_2
_ccdc_geom_bond_type
Zn0 O6 1.920 1_545 S
Zn0 O12 1.898 . S
Zn0 O15 1.905 1_545 S
Zn1 O9 1.905 . S
Zn1 O10 1.898 1_545 S
Zn1 O18 1.920 1_545 S
Zn2 O5 2.080 1_445 S
Zn2 O8 2.114 . S
Zn2 O11 2.120 1_545 S
Zn2 O13 2.120 1_455 S
Zn2 O14 2.114 1_554 S
Zn2 O17 2.080 . S
C3 O8 1.166 . S
C3 O9 1.182 . S
C4 O10 1.167 . S
C4 O11 1.299 . S
O5 Zn2 2.080 1_665 S
O5 C19 1.305 . S
O6 Zn0 1.920 1_565 S
O6 C19 1.234 1_556 S
C7 O12 1.167 . S
C7 O13 1.299 1_556 S
O8 Zn2 2.114 . S
O8 C3 1.166 . S
O9 Zn1 1.905 . S
O9 C3 1.182 . S
O10 Zn1 1.898 1_565 S
O10 C4 1.167 . S
O11 Zn2 2.120 1_565 S
O11 C4 1.299 . S
O12 Zn0 1.898 . S
O12 C7 1.167 . S
O13 Zn2 2.120 1_655 S
O13 C7 1.299 1_554 S
O14 Zn2 2.114 1_556 S
O14 C16 1.166 1_545 S
O15 Zn0 1.905 1_565 S
O15 C16 1.182 1_655 S
C16 O14 1.166 1_565 S
C16 O15 1.182 1_455 S
O17 Zn2 2.080 . S
O17 C20 1.305 1_545 S
O18 Zn1 1.920 1_565 S
O18 C20 1.234 . S
C19 O5 1.305 . S
C19 O6 1.234 1_554 S
C20 O17 1.305 1_565 S
C20 O18 1.234 . S
Zn21 O27 1.920 . S
Zn21 O33 1.898 . S
Zn21 O36 1.905 . S
Zn22 O30 1.905 . S
Zn22 O31 1.898 . S
Zn22 O39 1.920 . S
Zn23 O26 2.080 . S
Zn23 O29 2.114 . S
Zn23 O32 2.120 . S
Zn23 O34 2.120 . S
Zn23 O35 2.114 . S
Zn23 O38 2.080 . S
C24 O29 1.166 . S
C24 O30 1.182 . S
C25 O31 1.167 . S
C25 O32 1.299 . S
O26 Zn23 2.080 . S
O26 C40 1.305 . S
O27 Zn21 1.920 . S
O27 C40 1.234 . S
C28 O33 1.167 . S
C28 O34 1.299 . S
O29 Zn23 2.114 . S
O29 C24 1.166 . S
O30 Zn22 1.905 . S
O30 C24 1.182 . S
O31 Zn22 1.898 . S
O31 C25 1.167 . S
O32 Zn23 2.120 . S
O32 C25 1.299 . S
O33 Zn21 1.898 . S
O33 C28 1.167 . S
O34 Zn23 2.120 . S
O34 C28 1.299 . S
O35 Zn23 2.114 . S
O35 C37 1.166 . S
O36 Zn21 1.905 . S
O36 C37 1.182 . S
C37 O35 1.166 . S
C37 O36 1.182 . S
O38 Zn23 2.080 . S
O38 C41 1.305 . S
O39 Zn22 1.920 . S
O39 C41 1.234 . S
C40 O26 1.305 . S
C40 O27 1.234 . S
C41 O38 1.305 . S
C41 O39 1.234 . S
C42 C43 1.264 . S
C42 C47 1.479 . S
C42 C52 1.465 1_655 S
C43 C42 1.264 . S
C43 C45 1.339 . S
C43 H70 0.931 . S
C44 C45 1.395 . S
C44 C46 1.320 . S
C45 C43 1.339 . S
C45 C44 1.395 . S
C45 H71 0.929 . S
C46 C44 1.320 . S
C46 C47 1.405 . S
C46 H72 0.930 . S
C47 C42 1.479 . S
C47 C46 1.405 . S
C47 H73 0.931 . S
U48 O49 2.454 . S
U48 O50 2.458 1_545 S
U48 C51 2.984 1_545 S
U48 C52 2.847 . S
U48 C65 2.882 . S
U48 O66 2.441 . S
U48 O67 2.420 . S
U48 O68 2.455 . S
U48 O69 2.449 . S
O49 U48 2.454 . S
O49 C51 1.353 1_545 S
O50 U48 2.458 1_565 S
O50 C51 1.286 . S
C51 U48 2.984 1_565 S
C51 O49 1.353 1_565 S
C51 O50 1.286 . S
C51 C53 1.363 . S
C52 C42 1.465 1_455 S
C52 U48 2.847 . S
C52 O66 1.249 . S
C52 O67 1.202 . S
C53 C51 1.363 . S
C53 C55 1.408 . S
C53 C58 1.342 . S
C54 C55 1.310 . S
C54 C57 1.461 . S
C54 H74 0.932 . S
C55 C53 1.408 . S
C55 C54 1.310 . S
C55 H75 0.930 . S
C56 C57 1.474 . S
C56 C58 1.285 . S
C56 H76 0.929 . S
C57 C54 1.461 . S
C57 C56 1.474 . S
C58 C53 1.342 . S
C58 C56 1.285 . S
C58 H77 0.930 . S
C59 C62 1.424 . S
C59 C64 1.245 . S
C59 C65 1.428 . S
C60 C63 1.260 . S
C60 C64 1.477 . S
C60 H78 0.932 . S
C61 C62 1.384 . S
C61 C63 1.479 . S
C61 H79 0.929 . S
C62 C59 1.424 . S
C62 C61 1.384 . S
C62 H80 0.928 . S
C63 C60 1.260 . S
C63 C61 1.479 . S
C64 C59 1.245 . S
C64 C60 1.477 . S
C64 H81 0.932 1_545 S
C65 U48 2.882 . S
C65 C59 1.428 . S
C65 O68 1.301 . S
C65 O69 1.282 . S
O66 U48 2.441 . S
O66 C52 1.249 . S
O67 U48 2.420 . S
O67 C52 1.202 . S
O68 U48 2.455 . S
O68 C65 1.301 . S
O69 U48 2.449 . S
O69 C65 1.282 . S
H70 C43 0.931 . S
H71 C45 0.929 . S
H72 C46 0.930 . S
H73 C47 0.931 . S
H74 C54 0.932 . S
H75 C55 0.930 . S
H76 C56 0.929 . S
H77 C58 0.930 . S
H78 C60 0.932 . S
H79 C61 0.929 . S
H80 C62 0.928 . S
H81 C64 0.932 1_565 S
C82 C83 1.264 . S
C82 C87 1.479 . S
C82 C92 1.465 . S
C83 C82 1.264 . S
C83 C85 1.339 . S
C83 H110 0.931 . S
C84 C85 1.395 . S
C84 C86 1.320 . S
C85 C83 1.339 . S
C85 C84 1.395 . S
C85 H111 0.929 . S
C86 C84 1.320 . S
C86 C87 1.405 . S
C86 H112 0.930 . S
C87 C82 1.479 . S
C87 C86 1.405 . S
C87 H113 0.931 . S
U88 O89 2.454 . S
U88 O90 2.458 . S
U88 C91 2.984 . S
U88 C92 2.847 1_445 S
U88 C105 2.882 . S
U88 O106 2.441 1_445 S
U88 O107 2.420 1_445 S
U88 O108 2.455 . S
U88 O109 2.449 1_545 S
O89 U88 2.454 . S
O89 C91 1.353 . S
O90 U88 2.458 . S
O90 C91 1.286 . S
C91 U88 2.984 . S
C91 O89 1.353 . S
C91 O90 1.286 . S
C91 C93 1.363 . S
C92 C82 1.465 . S
C92 U88 2.847 1_665 S
C92 O106 1.249 . S
C92 O107 1.202 . S
C93 C91 1.363 . S
C93 C95 1.408 . S
C93 C98 1.342 . S
C94 C95 1.310 . S
C94 C97 1.461 . S
C94 H114 0.932 . S
C95 C93 1.408 . S
C95 C94 1.310 . S
C95 H115 0.930 . S
C96 C97 1.474 . S
C96 C98 1.285 . S
C96 H116 0.929 . S
C97 C94 1.461 . S
C97 C96 1.474 . S
C98 C93 1.342 . S
C98 C96 1.285 . S
C98 H117 0.930 . S
C99 C102 1.424 1_445 S
C99 C104 1.245 . S
C99 C105 1.428 . S
C100 C103 1.260 . S
C100 C104 1.477 . S
C100 H118 0.932 . S
C101 C102 1.384 . S
C101 C103 1.479 1_665 S
C101 H119 0.929 . S
C102 C99 1.424 1_665 S
C102 C101 1.384 . S
C102 H120 0.928 . S
C103 C100 1.260 . S
C103 C101 1.479 1_445 S
C104 C99 1.245 . S
C104 C100 1.477 . S
C104 H121 0.932 . S
C105 U88 2.882 . S
C105 C99 1.428 . S
C105 O108 1.301 . S
C105 O109 1.282 1_545 S
O106 U88 2.441 1_665 S
O106 C92 1.249 . S
O107 U88 2.420 1_665 S
O107 C92 1.202 . S
O108 U88 2.455 . S
O108 C105 1.301 . S
O109 U88 2.449 1_565 S
O109 C105 1.282 1_565 S
H110 C83 0.931 . S
H111 C85 0.929 . S
H112 C86 0.930 . S
H113 C87 0.931 . S
H114 C94 0.932 . S
H115 C95 0.930 . S
H116 C96 0.929 . S
H117 C98 0.930 . S
H118 C100 0.932 . S
H119 C101 0.929 . S
H120 C102 0.928 . S
H121 C104 0.932 . S
C122 C123 1.264 . S
C122 C127 1.479 . S
C122 C132 1.465 . S
C123 C122 1.264 . S
C123 C125 1.339 . S
C123 H150 0.931 . S
C124 C125 1.395 . S
C124 C126 1.335 . S
C125 C123 1.339 . S
C125 C124 1.395 . S
C125 H151 0.929 . S
C126 C124 1.335 . S
C126 C127 1.416 . S
C126 H152 0.904 1_556 S
C127 C122 1.479 . S
C127 C126 1.416 . S
C127 H153 0.930 . S
U128 O129 2.454 . S
U128 O130 2.458 . S
U128 C131 2.984 . S
U128 C132 2.847 . S
U128 C145 2.882 . S
U128 O146 2.441 . S
U128 O147 2.420 . S
U128 O148 2.455 . S
U128 O149 2.449 . S
O129 U128 2.454 . S
O129 C131 1.353 . S
O130 U128 2.458 . S
O130 C131 1.286 . S
C131 U128 2.984 . S
C131 O129 1.353 . S
C131 O130 1.286 . S
C131 C133 1.363 . S
C132 C122 1.465 . S
C132 U128 2.847 . S
C132 O146 1.249 . S
C132 O147 1.202 . S
C133 C131 1.363 . S
C133 C135 1.408 . S
C133 C138 1.342 . S
C134 C135 1.310 1_554 S
C134 C137 1.461 1_554 S
C134 H154 0.932 . S
C135 C133 1.408 . S
C135 C134 1.310 1_556 S
C135 H155 0.931 1_556 S
C136 C137 1.474 . S
C136 C138 1.285 . S
C136 H156 0.929 . S
C137 C134 1.461 1_556 S
C137 C136 1.474 . S
C138 C133 1.342 . S
C138 C136 1.285 . S
C138 H157 0.930 . S
C139 C142 1.424 . S
C139 C144 1.245 . S
C139 C145 1.428 . S
C140 C143 1.260 . S
C140 C144 1.477 . S
C140 H158 0.932 . S
C141 C142 1.384 . S
C141 C143 1.479 . S
C141 H159 0.929 . S
C142 C139 1.424 . S
C142 C141 1.384 . S
C142 H160 0.928 . S
C143 C140 1.260 . S
C143 C141 1.479 . S
C144 C139 1.245 . S
C144 C140 1.477 . S
C144 H161 0.932 . S
C145 U128 2.882 . S
C145 C139 1.428 . S
C145 O148 1.301 . S
C145 O149 1.282 . S
O146 U128 2.441 . S
O146 C132 1.249 . S
O147 U128 2.420 . S
O147 C132 1.202 . S
O148 U128 2.455 . S
O148 C145 1.301 . S
O149 U128 2.449 . S
O149 C145 1.282 . S
H150 C123 0.931 . S
H151 C125 0.929 . S
H152 C126 0.904 1_554 S
H153 C127 0.930 . S
H154 C134 0.932 . S
H155 C135 0.931 1_554 S
H156 C136 0.929 . S
H157 C138 0.930 . S
H158 C140 0.932 . S
H159 C141 0.929 . S
H160 C142 0.928 . S
H161 C144 0.932 . S
C162 C163 1.264 . S
C162 C167 1.479 . S
C162 C172 1.465 . S
C163 C162 1.264 . S
C163 C165 1.339 . S
C163 H190 0.931 . S
C164 C165 1.395 . S
C164 C166 1.320 . S
C165 C163 1.339 . S
C165 C164 1.395 . S
C165 H191 0.929 . S
C166 C164 1.320 . S
C166 C167 1.405 . S
C166 H192 0.930 1_554 S
C167 C162 1.479 . S
C167 C166 1.405 . S
C167 H193 0.931 . S
U168 O169 2.454 . S
U168 O170 2.458 . S
U168 C171 2.984 . S
U168 C172 2.847 . S
U168 C185 2.882 . S
U168 O186 2.441 . S
U168 O187 2.420 . S
U168 O188 2.455 . S
U168 O189 2.449 . S
O169 U168 2.454 . S
O169 C171 1.353 . S
O170 U168 2.458 . S
O170 C171 1.286 . S
C171 U168 2.984 . S
C171 O169 1.353 . S
C171 O170 1.286 . S
C171 C173 1.363 . S
C172 C162 1.465 . S
C172 U168 2.847 . S
C172 O186 1.249 . S
C172 O187 1.202 . S
C173 C171 1.363 . S
C173 C175 1.408 . S
C173 C178 1.342 . S
C174 C175 1.310 . S
C174 C177 1.461 . S
C174 H194 0.928 1_554 S
C175 C173 1.408 . S
C175 C174 1.310 . S
C175 H195 0.930 . S
C176 C177 1.474 . S
C176 C178 1.285 . S
C176 H196 0.929 . S
C177 C174 1.461 . S
C177 C176 1.474 . S
C178 C173 1.342 . S
C178 C176 1.285 . S
C178 H197 0.930 . S
C179 C182 1.424 . S
C179 C184 1.245 . S
C179 C185 1.428 . S
C180 C183 1.260 . S
C180 C184 1.477 . S
C180 H198 0.932 . S
C181 C182 1.384 . S
C181 C183 1.479 . S
C181 H199 0.929 . S
C182 C179 1.424 . S
C182 C181 1.384 . S
C182 H200 0.928 . S
C183 C180 1.260 . S
C183 C181 1.479 . S
C184 C179 1.245 . S
C184 C180 1.477 . S
C184 H201 0.932 . S
C185 U168 2.882 . S
C185 C179 1.428 . S
C185 O188 1.301 . S
C185 O189 1.282 . S
O186 U168 2.441 . S
O186 C172 1.249 . S
O187 U168 2.420 . S
O187 C172 1.202 . S
O188 U168 2.455 . S
O188 C185 1.301 . S
O189 U168 2.449 . S
O189 C185 1.282 . S
H190 C163 0.931 . S
H191 C165 0.929 . S
H192 C166 0.930 1_556 S
H193 C167 0.931 . S
H194 C174 0.928 1_556 S
H195 C175 0.930 . S
H196 C176 0.929 . S
H197 C178 0.930 . S
H198 C180 0.932 . S
H199 C181 0.929 . S
H200 C182 0.928 . S
H201 C184 0.932 . S
C202 C203 1.170 . S
C202 C204 1.380 . S
C203 C202 1.170 . S
C204 C202 1.380 . S
C204 C205 1.170 . S
C205 C204 1.170 . S
C206 C207 1.170 . S
C206 C208 1.380 . S
C207 C206 1.170 . S
C208 C206 1.380 . S
C208 C209 1.170 . S
C209 C208 1.170 . S
C210 C211 1.170 . S
C210 C212 1.380 . S
C211 C210 1.170 . S
C212 C210 1.380 . S
C212 C213 1.170 . S
C213 C212 1.170 . S
C214 C215 1.170 . S
C214 C216 1.380 1_554 S
C215 C214 1.170 . S
C216 C214 1.380 1_556 S
C216 C217 1.172 . S
C217 C216 1.172 . S
C218 C219 1.170 . S
C218 C220 1.380 . S
C219 C218 1.170 . S
C220 C218 1.380 . S
C220 C221 1.170 . S
C221 C220 1.170 . S
C222 C223 1.170 . S
C222 C224 1.380 . S
C223 C222 1.170 . S
C224 C222 1.380 . S
C224 C225 1.170 . S
C225 C224 1.170 . S
C226 C227 1.170 . S
C226 C228 1.380 . S
C227 C226 1.170 . S
C228 C226 1.380 . S
C228 C229 1.170 . S
C229 C228 1.170 . S
C230 C231 1.170 . S
C230 C232 1.380 . S
C231 C230 1.170 . S
C232 C230 1.380 . S
C232 C233 1.170 . S
C233 C232 1.170 . S
C234 C235 1.170 . S
C234 C236 1.380 1_565 S
C235 C234 1.170 . S
C236 C234 1.380 1_545 S
C236 C237 1.170 . S
C237 C236 1.170 . S
C238 C239 1.170 . S
C238 C240 1.380 1_565 S
C239 C238 1.170 . S
C240 C238 1.380 1_545 S
C240 C241 1.170 . S
C241 C240 1.170 . S
C242 C243 1.170 . S
C242 C244 1.380 . S
C243 C242 1.170 . S
C244 C242 1.380 . S
C244 C245 1.170 . S
C245 C244 1.170 . S
C246 C247 1.170 . S
C246 C248 1.380 . S
C247 C246 1.170 . S
C248 C246 1.380 . S
C248 C249 1.170 . S
C249 C248 1.170 . S
C205 C164 1.342 . S
C203 C3 1.270 . S
C207 C4 1.504 1_556 S
C209 C124 1.674 . S
C211 C19 1.543 . S
C213 C177 1.650 . S
C215 C7 1.261 1_554 S
C217 C137 1.346 . S
C219 C37 1.215 . S
C221 C84 1.308 . S
C223 C28 1.504 . S
C225 C44 1.674 . S
C229 C97 1.674 . S
C227 C41 1.539 . S
C233 C57 1.319 . S
C231 C25 1.242 . S
C235 C20 1.338 . S
C237 C63 1.511 . S
C239 C16 1.388 . S
C241 C103 1.489 . S
C245 C143 1.510 . S
C243 C40 1.285 . S
C247 C24 1.339 . S
C249 C183 1.518 . S
