# Generated by pormake.
# Topology bcu-b, (8,8)-cn, num edge types: 1
# Building blocks:
#     Node 0, Type 0, BuildingBlock: TAGTUT_clean_sbu_1, # of connection points: 8
#     Node 1, Type 1, BuildingBlock: TAGTUT_clean_sbu_3, # of connection points: 8
#     Edge 2, Type (0, 1), BuildingBlock: AJUNOK_clean_linker_0, # of connection points: 2
#     Edge 3, Type (0, 1), BuildingBlock: AJUNOK_clean_linker_0, # of connection points: 2
#     Edge 4, Type (0, 1), BuildingBlock: AJUNOK_clean_linker_0, # of connection points: 2
#     Edge 5, Type (0, 1), BuildingBlock: AJUNOK_clean_linker_0, # of connection points: 2
#     Edge 6, Type (0, 1), BuildingBlock: AJUNOK_clean_linker_0, # of connection points: 2
#     Edge 7, Type (0, 1), BuildingBlock: AJUNOK_clean_linker_0, # of connection points: 2
#     Edge 8, Type (0, 1), BuildingBlock: AJUNOK_clean_linker_0, # of connection points: 2
#     Edge 9, Type (0, 1), BuildingBlock: AJUNOK_clean_linker_0, # of connection points: 2
# Relax obj value: 0.012
# Max RMSD: 0.078
# Mean RMSD: 0.066
data_MOF--net-bcu-b--node1-TAGTUT_clean_sbu_1--node2-TAGTUT_clean_sbu_3--edge1-AJUNOK_clean_linker_0
_symmetry_space_group_name_H-M    P1
_symmetry_Int_Tables_number       1
_symmetry_cell_setting            triclinic
loop_
_symmetry_equiv_pos_as_xyz
'x, y, z'
_cell_length_a     15.389355
_cell_length_b     14.711694
_cell_length_c     16.207835
_cell_angle_alpha  90.138112
_cell_angle_beta   90.873884
_cell_angle_gamma 109.13978
loop_
_atom_site_label
_atom_site_type_symbol
_atom_site_fract_x
_atom_site_fract_y
_atom_site_fract_z
_atom_type_partial_charge
C0 C 0.78816 0.19326 0.04089 0.0
C1 C 0.92402 0.18252 0.8109 0.0
C2 C 0.856 0.81001 0.8875 0.0
Mg3 Mg 0.98835 0.2066 -0.00786 0.0
O4 O 0.93416 0.0735 0.00906 0.0
Mg5 Mg 0.819 0.00293 0.94532 0.0
Mg6 Mg 0.00482 0.98506 -0.01436 0.0
O7 O 0.07322 0.89424 0.96362 0.0
Mg8 Mg 0.01319 0.76638 -0.00179 0.0
Mg9 Mg 0.19262 0.96647 0.01956 0.0
C10 C 0.15176 0.16023 0.09122 0.0
C11 C 0.17035 0.09043 0.86015 0.0
O12 O 0.75636 0.10948 0.00701 0.0
O13 O 0.87432 0.24215 0.04309 0.0
O14 O 0.86299 0.10463 0.8338 0.0
O15 O 0.98697 0.23226 0.86065 0.0
O16 O 0.11395 0.22218 0.06725 0.0
O17 O 0.11952 0.07125 0.07043 0.0
C18 C 0.83292 0.86994 0.10163 0.0
O19 O 0.91983 0.89128 0.09069 0.0
O20 O 0.7829 0.90348 0.05509 0.0
O21 O 0.24086 0.84502 0.96032 0.0
O22 O 0.11517 0.7124 0.9476 0.0
O23 O 0.16011 0.88131 0.13679 0.0
C24 C 0.20134 0.75629 0.9382 0.0
O25 O 0.02824 0.7597 0.13275 0.0
O26 O 0.88604 0.74735 0.92296 0.0
C27 C 0.09988 0.81259 0.17214 0.0
O28 O 0.8939 0.90058 0.89901 0.0
O29 O 0.08654 0.07685 0.87903 0.0
O30 O 0.22215 0.05512 0.90247 0.0
C31 C 0.66721 0.6378 0.59364 0.0
C32 C 0.76624 0.32583 0.54227 0.0
C33 C 0.62415 0.3231 0.30821 0.0
Mg34 Mg 0.48355 0.67871 0.5146 0.0
Mg35 Mg 0.29987 0.4852 0.50463 0.0
O36 O 0.41829 0.55102 0.46291 0.0
Mg37 Mg 0.50734 0.48273 0.48817 0.0
O38 O 0.5996 0.41795 0.51327 0.0
Mg39 Mg 0.70653 0.50221 0.44911 0.0
Mg40 Mg 0.56146 0.28598 0.48504 0.0
C41 C 0.33954 0.32988 0.38706 0.0
O42 O 0.41467 0.38418 0.5849 0.0
O43 O 0.3637 0.72202 0.4486 0.0
O44 O 0.43407 0.24198 0.55587 0.0
O45 O 0.40037 0.64882 0.62913 0.0
O46 O 0.24212 0.58481 0.44992 0.0
O47 O 0.29326 0.5061 0.63908 0.0
O48 O 0.60568 0.57253 0.39296 0.0
O49 O 0.57563 0.71033 0.40076 0.0
C50 C 0.62053 0.65926 0.37029 0.0
C51 C 0.27832 0.67387 0.43172 0.0
O52 O 0.42664 0.37113 0.39521 0.0
O53 O 0.78905 0.41305 0.51566 0.0
O54 O 0.28087 0.35238 0.43185 0.0
O55 O 0.67993 0.40132 0.33757 0.0
O56 O 0.68406 0.26642 0.53496 0.0
O57 O 0.56186 0.26686 0.3527 0.0
O58 O 0.58115 0.60319 0.57683 0.0
O59 O 0.72583 0.60681 0.55781 0.0
C60 C 0.33899 0.58808 0.67045 0.0
C61 C 0.39287 0.2926 0.594 0.0
C62 C 0.17578 0.15239 0.24135 0.0
C63 C 0.21281 0.18601 0.16403 0.0
C64 C 0.22059 0.19445 0.3147 0.0
C65 C 0.305 0.26964 0.31286 0.0
H66 H 0.10831 0.09829 0.24505 0.0
H67 H 0.1868 0.17147 0.37284 0.0
S68 S 0.43611 0.37339 0.12537 0.0
N69 N 0.3412 0.29206 0.08936 0.0
N70 N 0.42861 0.36868 0.22693 0.0
C71 C 0.34658 0.29758 0.23574 0.0
C72 C 0.29945 0.25654 0.16117 0.0
C73 C 0.65881 0.16222 0.13929 0.0
C74 C 0.72612 0.22801 0.09136 0.0
C75 C 0.61792 0.19393 0.20532 0.0
C76 C 0.64287 0.29243 0.22509 0.0
H77 H 0.64362 0.08549 0.13063 0.0
H78 H 0.57278 0.14052 0.24509 0.0
S79 S 0.79573 0.494 0.1035 0.0
N80 N 0.802 0.39596 0.05773 0.0
N81 N 0.72366 0.45599 0.1802 0.0
C82 C 0.70087 0.35905 0.17075 0.0
C83 C 0.74314 0.32671 0.10434 0.0
C84 C 0.69293 0.74901 0.15738 0.0
C85 C 0.78631 0.80451 0.16858 0.0
C86 C 0.64132 0.69702 0.22231 0.0
C87 C 0.68114 0.69829 0.30075 0.0
H88 H 0.65838 0.74823 0.09849 0.0
H89 H 0.56869 0.6588 0.21199 0.0
S90 S 0.92369 0.82535 0.36203 0.0
N91 N 0.91772 0.85238 0.2636 0.0
N92 N 0.8197 0.75404 0.38609 0.0
C93 C 0.77522 0.74891 0.31231 0.0
C94 C 0.82828 0.80196 0.24589 0.0
C95 C 0.0948 0.68807 0.27789 0.0
C96 C 0.1258 0.78498 0.25461 0.0
C97 C 0.1411 0.65455 0.33963 0.0
C98 C 0.2206 0.71647 0.38034 0.0
H99 H 0.03941 0.63613 0.24371 0.0
H100 H 0.1177 0.57789 0.35109 0.0
S101 S 0.31322 0.98152 0.35786 0.0
N102 N 0.22826 0.9463 0.28912 0.0
N103 N 0.31628 0.88259 0.40398 0.0
C104 C 0.24559 0.81534 0.36424 0.0
C105 C 0.1977 0.84973 0.30192 0.0
C106 C 0.31807 0.76523 0.83216 0.0
C107 C 0.25168 0.70856 0.88556 0.0
C108 C 0.34917 0.72381 0.76626 0.0
C109 C 0.31527 0.6236 0.75033 0.0
H110 H 0.3415 0.84301 0.83733 0.0
H111 H 0.39652 0.77254 0.72471 0.0
S112 S 0.1634 0.44156 0.88837 0.0
N113 N 0.16806 0.54579 0.92988 0.0
N114 N 0.22676 0.46745 0.80472 0.0
C115 C 0.25626 0.56504 0.80846 0.0
C116 C 0.22452 0.60763 0.87633 0.0
C117 C 0.26064 0.24356 0.79363 0.0
C118 C 0.20951 0.1454 0.78632 0.0
C119 C 0.31552 0.29259 0.72871 0.0
C120 C 0.32252 0.24421 0.65525 0.0
H121 H 0.26182 0.28132 0.85133 0.0
H122 H 0.35704 0.36723 0.73819 0.0
S123 S 0.19381 0.98904 0.60353 0.0
N124 N 0.16256 0.00335 0.69847 0.0
N125 N 0.26638 0.09459 0.57655 0.0
C126 C 0.26763 0.1471 0.64595 0.0
C127 C 0.21103 0.09781 0.71163 0.0
C128 C 0.85329 0.15945 0.66976 0.0
C129 C 0.91006 0.22193 0.72917 0.0
C130 C 0.81495 0.19473 0.60342 0.0
C131 C 0.83142 0.29405 0.59377 0.0
H132 H 0.83239 0.08228 0.67793 0.0
H133 H 0.7663 0.14319 0.56302 0.0
S134 S 0.98886 0.48909 0.72313 0.0
N135 N 0.99138 0.38878 0.76696 0.0
N136 N 0.91958 0.45504 0.64187 0.0
C137 C 0.89636 0.35779 0.64699 0.0
C138 C 0.93553 0.3217 0.71492 0.0
C139 C 0.71619 0.69634 0.8182 0.0
C140 C 0.79416 0.77918 0.81535 0.0
C141 C 0.66803 0.65624 0.7455 0.0
C142 C 0.69859 0.69635 0.66817 0.0
H143 H 0.69496 0.66011 0.87627 0.0
H144 H 0.61136 0.5892 0.74919 0.0
S145 S 0.89687 0.91431 0.62789 0.0
N146 N 0.89634 0.90305 0.72926 0.0
N147 N 0.80804 0.82444 0.5929 0.0
C148 C 0.77358 0.78134 0.66494 0.0
C149 C 0.82094 0.82369 0.73868 0.0
loop_
_geom_bond_atom_site_label_1
_geom_bond_atom_site_label_2
_geom_bond_distance
_geom_bond_site_symmetry_2
_ccdc_geom_bond_type
C0 O12 1.241 . S
C0 O13 1.280 . S
C1 O14 1.277 . S
C1 O15 1.245 . S
C2 O26 1.247 . S
C2 O28 1.289 . S
Mg3 O4 1.926 . S
Mg3 O13 1.984 . S
Mg3 O15 1.988 1_554 S
Mg3 O16 2.061 1_655 S
O4 Mg3 1.926 . S
O4 Mg5 1.986 1_545 S
O4 Mg6 1.924 1_655 S
Mg5 O4 1.986 1_565 S
Mg5 O12 2.042 1_565 S
Mg5 O14 2.041 1_564 S
Mg5 O20 2.038 . S
Mg5 O28 2.238 1_554 S
Mg6 O4 1.924 1_455 S
Mg6 O7 1.910 1_544 S
Mg6 O17 2.108 . S
Mg6 O19 2.075 1_445 S
Mg6 O28 2.105 1_444 S
Mg6 O29 2.083 1_554 S
O7 Mg6 1.910 1_566 S
O7 Mg8 1.926 . S
O7 Mg9 1.985 1_566 S
Mg8 O7 1.926 . S
Mg8 O22 1.984 . S
Mg8 O25 1.988 1_556 S
Mg8 O26 2.061 1_455 S
Mg9 O7 1.985 1_544 S
Mg9 O17 2.240 . S
Mg9 O21 2.039 1_544 S
Mg9 O23 2.045 1_545 S
Mg9 O30 2.035 1_554 S
C10 O16 1.247 . S
C10 O17 1.289 . S
C11 O29 1.245 . S
C11 O30 1.274 . S
O12 C0 1.241 . S
O12 Mg5 2.042 1_545 S
O13 C0 1.280 . S
O13 Mg3 1.984 . S
O14 C1 1.277 . S
O14 Mg5 2.041 1_546 S
O15 C1 1.245 . S
O15 Mg3 1.988 1_556 S
O16 Mg3 2.061 1_455 S
O16 C10 1.247 . S
O17 Mg6 2.108 . S
O17 Mg9 2.240 . S
O17 C10 1.289 . S
C18 O19 1.245 . S
C18 O20 1.274 . S
O19 Mg6 2.075 1_665 S
O19 C18 1.245 . S
O20 Mg5 2.038 . S
O20 C18 1.274 . S
O21 Mg9 2.039 1_566 S
O21 C24 1.241 . S
O22 Mg8 1.984 . S
O22 C24 1.280 . S
O23 Mg9 2.045 1_565 S
O23 C27 1.277 . S
C24 O21 1.241 . S
C24 O22 1.280 . S
O25 Mg8 1.988 1_554 S
O25 C27 1.245 . S
O26 C2 1.247 . S
O26 Mg8 2.061 1_655 S
C27 O23 1.277 . S
C27 O25 1.245 . S
O28 C2 1.289 . S
O28 Mg5 2.238 1_556 S
O28 Mg6 2.105 1_666 S
O29 Mg6 2.083 1_556 S
O29 C11 1.245 . S
O30 Mg9 2.035 1_556 S
O30 C11 1.274 . S
C31 O58 1.312 . S
C31 O59 1.208 . S
C32 O53 1.331 . S
C32 O56 1.244 . S
C33 O55 1.264 . S
C33 O57 1.273 . S
Mg34 O36 1.936 . S
Mg34 O43 2.081 . S
Mg34 O45 2.023 . S
Mg34 O49 2.031 . S
Mg34 O58 2.291 . S
Mg35 O36 1.963 . S
Mg35 O46 1.942 . S
Mg35 O47 1.955 . S
Mg35 O54 1.986 . S
O36 Mg34 1.936 . S
O36 Mg35 1.963 . S
O36 Mg37 1.915 . S
Mg37 O36 1.915 . S
Mg37 O38 1.915 . S
Mg37 O42 2.013 . S
Mg37 O48 2.114 . S
Mg37 O52 2.013 . S
Mg37 O58 2.114 . S
O38 Mg37 1.915 . S
O38 Mg39 1.936 . S
O38 Mg40 1.963 . S
Mg39 O38 1.936 . S
Mg39 O48 2.291 . S
Mg39 O53 2.081 . S
Mg39 O55 2.023 . S
Mg39 O59 2.031 . S
Mg40 O38 1.963 . S
Mg40 O44 1.986 . S
Mg40 O56 1.942 . S
Mg40 O57 1.955 . S
C41 O52 1.191 . S
C41 O54 1.307 . S
O42 Mg37 2.013 . S
O42 C61 1.191 . S
O43 Mg34 2.081 . S
O43 C51 1.331 . S
O44 Mg40 1.986 . S
O44 C61 1.307 . S
O45 Mg34 2.023 . S
O45 C60 1.264 . S
O46 Mg35 1.942 . S
O46 C51 1.244 . S
O47 Mg35 1.955 . S
O47 C60 1.273 . S
O48 Mg37 2.114 . S
O48 Mg39 2.291 . S
O48 C50 1.312 . S
O49 Mg34 2.031 . S
O49 C50 1.208 . S
C50 O48 1.312 . S
C50 O49 1.208 . S
C51 O43 1.331 . S
C51 O46 1.244 . S
O52 Mg37 2.013 . S
O52 C41 1.191 . S
O53 C32 1.331 . S
O53 Mg39 2.081 . S
O54 Mg35 1.986 . S
O54 C41 1.307 . S
O55 C33 1.264 . S
O55 Mg39 2.023 . S
O56 C32 1.244 . S
O56 Mg40 1.942 . S
O57 C33 1.273 . S
O57 Mg40 1.955 . S
O58 C31 1.312 . S
O58 Mg34 2.291 . S
O58 Mg37 2.114 . S
O59 C31 1.208 . S
O59 Mg39 2.031 . S
C60 O45 1.264 . S
C60 O47 1.273 . S
C61 O42 1.191 . S
C61 O44 1.307 . S
C62 C63 1.369 . S
C62 C64 1.419 . S
C62 H66 0.930 . S
C63 C62 1.369 . S
C63 C72 1.429 . S
C64 C62 1.419 . S
C64 C65 1.363 . S
C64 H67 0.929 . S
C65 C64 1.363 . S
C65 C71 1.428 . S
H66 C62 0.930 . S
H67 C64 0.929 . S
S68 N69 1.613 . S
S68 N70 1.610 . S
N69 S68 1.613 . S
N69 C72 1.350 . S
N70 S68 1.610 . S
N70 C71 1.351 . S
C71 C65 1.428 . S
C71 N70 1.351 . S
C71 C72 1.434 . S
C72 C63 1.429 . S
C72 N69 1.350 . S
C72 C71 1.434 . S
C73 C74 1.369 . S
C73 C75 1.419 . S
C73 H77 0.930 . S
C74 C73 1.369 . S
C74 C83 1.429 . S
C75 C73 1.419 . S
C75 C76 1.363 . S
C75 H78 0.929 . S
C76 C75 1.363 . S
C76 C82 1.428 . S
H77 C73 0.930 . S
H78 C75 0.929 . S
S79 N80 1.613 . S
S79 N81 1.610 . S
N80 S79 1.613 . S
N80 C83 1.350 . S
N81 S79 1.610 . S
N81 C82 1.351 . S
C82 C76 1.428 . S
C82 N81 1.351 . S
C82 C83 1.434 . S
C83 C74 1.429 . S
C83 N80 1.350 . S
C83 C82 1.434 . S
C84 C85 1.369 . S
C84 C86 1.419 . S
C84 H88 0.930 . S
C85 C84 1.369 . S
C85 C94 1.429 . S
C86 C84 1.419 . S
C86 C87 1.363 . S
C86 H89 0.929 . S
C87 C86 1.363 . S
C87 C93 1.428 . S
H88 C84 0.930 . S
H89 C86 0.929 . S
S90 N91 1.613 . S
S90 N92 1.610 . S
N91 S90 1.613 . S
N91 C94 1.350 . S
N92 S90 1.610 . S
N92 C93 1.351 . S
C93 C87 1.428 . S
C93 N92 1.351 . S
C93 C94 1.434 . S
C94 C85 1.429 . S
C94 N91 1.350 . S
C94 C93 1.434 . S
C95 C96 1.369 . S
C95 C97 1.419 . S
C95 H99 0.930 . S
C96 C95 1.369 . S
C96 C105 1.429 . S
C97 C95 1.419 . S
C97 C98 1.363 . S
C97 H100 0.929 . S
C98 C97 1.363 . S
C98 C104 1.428 . S
H99 C95 0.930 . S
H100 C97 0.929 . S
S101 N102 1.613 . S
S101 N103 1.610 . S
N102 S101 1.613 . S
N102 C105 1.350 . S
N103 S101 1.610 . S
N103 C104 1.351 . S
C104 C98 1.428 . S
C104 N103 1.351 . S
C104 C105 1.434 . S
C105 C96 1.429 . S
C105 N102 1.350 . S
C105 C104 1.434 . S
C106 C107 1.369 . S
C106 C108 1.419 . S
C106 H110 0.930 . S
C107 C106 1.369 . S
C107 C116 1.429 . S
C108 C106 1.419 . S
C108 C109 1.363 . S
C108 H111 0.929 . S
C109 C108 1.363 . S
C109 C115 1.428 . S
H110 C106 0.930 . S
H111 C108 0.929 . S
S112 N113 1.613 . S
S112 N114 1.610 . S
N113 S112 1.613 . S
N113 C116 1.350 . S
N114 S112 1.610 . S
N114 C115 1.351 . S
C115 C109 1.428 . S
C115 N114 1.351 . S
C115 C116 1.434 . S
C116 C107 1.429 . S
C116 N113 1.350 . S
C116 C115 1.434 . S
C117 C118 1.369 . S
C117 C119 1.419 . S
C117 H121 0.930 . S
C118 C117 1.369 . S
C118 C127 1.429 . S
C119 C117 1.419 . S
C119 C120 1.363 . S
C119 H122 0.929 . S
C120 C119 1.363 . S
C120 C126 1.428 . S
H121 C117 0.930 . S
H122 C119 0.929 . S
S123 N124 1.613 . S
S123 N125 1.610 . S
N124 S123 1.613 . S
N124 C127 1.350 . S
N125 S123 1.610 . S
N125 C126 1.351 . S
C126 C120 1.428 . S
C126 N125 1.351 . S
C126 C127 1.434 . S
C127 C118 1.429 . S
C127 N124 1.350 . S
C127 C126 1.434 . S
C128 C129 1.369 . S
C128 C130 1.419 . S
C128 H132 0.930 . S
C129 C128 1.369 . S
C129 C138 1.429 . S
C130 C128 1.419 . S
C130 C131 1.363 . S
C130 H133 0.929 . S
C131 C130 1.363 . S
C131 C137 1.428 . S
H132 C128 0.930 . S
H133 C130 0.929 . S
S134 N135 1.613 . S
S134 N136 1.610 . S
N135 S134 1.613 . S
N135 C138 1.350 . S
N136 S134 1.610 . S
N136 C137 1.351 . S
C137 C131 1.428 . S
C137 N136 1.351 . S
C137 C138 1.434 . S
C138 C129 1.429 . S
C138 N135 1.350 . S
C138 C137 1.434 . S
C139 C140 1.369 . S
C139 C141 1.419 . S
C139 H143 0.930 . S
C140 C139 1.369 . S
C140 C149 1.429 . S
C141 C139 1.419 . S
C141 C142 1.363 . S
C141 H144 0.929 . S
C142 C141 1.363 . S
C142 C148 1.428 . S
H143 C139 0.930 . S
H144 C141 0.929 . S
S145 N146 1.613 . S
S145 N147 1.610 . S
N146 S145 1.613 . S
N146 C149 1.350 . S
N147 S145 1.610 . S
N147 C148 1.351 . S
C148 C142 1.428 . S
C148 N147 1.351 . S
C148 C149 1.434 . S
C149 C140 1.429 . S
C149 N146 1.350 . S
C149 C148 1.434 . S
C63 C10 1.198 . S
C65 C41 1.207 . S
C74 C0 1.538 . S
C76 C33 1.563 . S
C85 C18 1.496 . S
C87 C50 1.483 . S
C96 C27 1.571 . S
C98 C51 1.571 . S
C107 C24 1.542 . S
C109 C60 1.574 . S
C120 C61 1.465 . S
C118 C11 1.446 . S
C129 C1 1.550 . S
C131 C32 1.553 . S
C142 C31 1.229 . S
C140 C2 1.244 . S
