# Generated by pormake.
# Topology bcu-b, (8,8)-cn, num edge types: 1
# Building blocks:
#     Node 0, Type 0, BuildingBlock: TAGTUT_clean_sbu_3, # of connection points: 8
#     Node 1, Type 1, BuildingBlock: VETTIZ_charged_sbu_0, # of connection points: 8
#     Edge 2, Type (0, 1), BuildingBlock: CIFDUS_clean_linker_0, # of connection points: 2
#     Edge 3, Type (0, 1), BuildingBlock: CIFDUS_clean_linker_0, # of connection points: 2
#     Edge 4, Type (0, 1), BuildingBlock: CIFDUS_clean_linker_0, # of connection points: 2
#     Edge 5, Type (0, 1), BuildingBlock: CIFDUS_clean_linker_0, # of connection points: 2
#     Edge 6, Type (0, 1), BuildingBlock: CIFDUS_clean_linker_0, # of connection points: 2
#     Edge 7, Type (0, 1), BuildingBlock: CIFDUS_clean_linker_0, # of connection points: 2
#     Edge 8, Type (0, 1), BuildingBlock: CIFDUS_clean_linker_0, # of connection points: 2
#     Edge 9, Type (0, 1), BuildingBlock: CIFDUS_clean_linker_0, # of connection points: 2
# Relax obj value: 0.020
# Max RMSD: 0.099
# Mean RMSD: 0.076
data_MOF--net-bcu-b--node1-TAGTUT_clean_sbu_3--node2-VETTIZ_charged_sbu_0--edge1-CIFDUS_clean_linker_0
_symmetry_space_group_name_H-M    P1
_symmetry_Int_Tables_number       1
_symmetry_cell_setting            triclinic
loop_
_symmetry_equiv_pos_as_xyz
'x, y, z'
_cell_length_a     17.767871
_cell_length_b     17.338884
_cell_length_c     18.345922
_cell_angle_alpha  89.909098
_cell_angle_beta   90.196683
_cell_angle_gamma 99.915256
loop_
_atom_site_label
_atom_site_type_symbol
_atom_site_fract_x
_atom_site_fract_y
_atom_site_fract_z
_atom_type_partial_charge
C0 C 0.12606 0.14371 0.08481 0.0
C1 C 0.23173 0.87244 0.08064 0.0
C2 C 0.14227 0.86063 0.86195 0.0
Mg3 Mg 0.97837 0.1886 0.00196 0.0
Mg4 Mg 0.83088 0.04994 0.97568 0.0
O5 O 0.93438 0.08529 0.95521 0.0
Mg6 Mg 0.00813 0.01816 0.99069 0.0
O7 O 0.08682 0.95736 0.02637 0.0
Mg8 Mg 0.17993 0.01593 0.97654 0.0
Mg9 Mg 0.06784 0.84777 0.01136 0.0
C10 C 0.87771 0.8966 0.90429 0.0
O11 O 0.92653 0.9488 0.07493 0.0
O12 O 0.88968 0.24125 0.92975 0.0
O13 O 0.95577 0.82722 0.06545 0.0
O14 O 0.89415 0.17677 0.09609 0.0
O15 O 0.79199 0.1409 0.9138 0.0
O16 O 0.80596 0.06963 0.0887 0.0
O17 O 0.09663 0.07968 0.91013 0.0
O18 O 0.06727 0.19993 0.9119 0.0
C19 C 0.10859 0.15132 0.88919 0.0
C20 C 0.82363 0.21227 0.90287 0.0
O21 O 0.94993 0.92179 0.91143 0.0
O22 O 0.24819 0.94106 0.05145 0.0
O23 O 0.82634 0.93262 0.93072 0.0
O24 O 0.17663 0.92593 0.8866 0.0
O25 O 0.16665 0.82818 0.07176 0.0
O26 O 0.08895 0.81877 0.89818 0.0
O27 O 0.05662 0.11877 0.06684 0.0
O28 O 0.18054 0.11037 0.06241 0.0
C29 C 0.83717 0.13102 0.12277 0.0
C30 C 0.9141 0.87512 0.09048 0.0
Fe31 Fe 0.53875 0.69509 0.5172 0.0
O32 O 0.51487 0.58101 0.52909 0.0
Fe33 Fe 0.59405 0.51275 0.49216 0.0
Fe34 Fe 0.42018 0.51547 0.48993 0.0
O35 O 0.52216 0.58071 0.52942 0.0
O36 O 0.49918 0.4487 0.45079 0.0
O37 O 0.49163 0.44871 0.45095 0.0
Fe38 Fe 0.47185 0.3346 0.46294 0.0
C39 C 0.37728 0.6521 0.58085 0.0
O40 O 0.46075 0.69971 0.43396 0.0
O41 O 0.4285 0.57722 0.39383 0.0
O42 O 0.56238 0.33733 0.3938 0.0
O43 O 0.656 0.43117 0.44507 0.0
O44 O 0.61009 0.57527 0.39647 0.0
O45 O 0.6231 0.69706 0.43935 0.0
O46 O 0.32927 0.43888 0.44172 0.0
O47 O 0.38772 0.3443 0.38784 0.0
C48 C 0.63362 0.64852 0.38985 0.0
O49 O 0.54917 0.32882 0.54585 0.0
O50 O 0.58361 0.45045 0.5882 0.0
O51 O 0.44655 0.69091 0.58742 0.0
O52 O 0.35665 0.59269 0.53777 0.0
C53 C 0.43313 0.65067 0.38509 0.0
C54 C 0.33154 0.38267 0.39534 0.0
C55 C 0.38373 0.3807 0.59226 0.0
O56 O 0.40806 0.45373 0.58615 0.0
O57 O 0.38821 0.33369 0.54007 0.0
C58 C 0.63301 0.37048 0.40323 0.0
O59 O 0.68364 0.58987 0.54371 0.0
O60 O 0.62315 0.68633 0.59267 0.0
C61 C 0.57725 0.37666 0.59545 0.0
C62 C 0.67935 0.64727 0.58877 0.0
H63 H 0.07924 0.1708 0.22113 0.0
H64 H 0.22254 0.27332 0.04502 0.0
H65 H 0.29012 0.3726 0.12716 0.0
H66 H 0.32743 0.40853 0.25253 0.0
H67 H 0.19261 0.30002 0.43123 0.0
H68 H 0.1017 0.22545 0.34546 0.0
C69 C 0.12323 0.21694 0.20067 0.0
C70 C 0.14688 0.21508 0.12794 0.0
C71 C 0.16417 0.27153 0.24908 0.0
C72 C 0.20422 0.27408 0.10129 0.0
C73 C 0.24308 0.33033 0.14822 0.0
C74 C 0.27641 0.37072 0.27221 0.0
C75 C 0.26608 0.35893 0.34718 0.0
C76 C 0.22656 0.32653 0.22283 0.0
C77 C 0.20072 0.30979 0.37322 0.0
C78 C 0.14939 0.26676 0.32426 0.0
H79 H 0.87877 0.26792 0.19625 0.0
H80 H 0.71438 0.05287 0.19838 0.0
H81 H 0.64172 0.10673 0.29264 0.0
H82 H 0.61689 0.21938 0.36225 0.0
H83 H 0.77623 0.4374 0.35553 0.0
H84 H 0.85991 0.37712 0.27532 0.0
C85 C 0.82768 0.23211 0.218 0.0
C86 C 0.80136 0.15671 0.18924 0.0
C87 C 0.78506 0.26429 0.27059 0.0
C88 C 0.73552 0.11118 0.21883 0.0
C89 C 0.69381 0.1421 0.27252 0.0
C90 C 0.67016 0.25388 0.3436 0.0
C91 C 0.68969 0.33334 0.36355 0.0
C92 C 0.71667 0.21943 0.2967 0.0
C93 C 0.75978 0.37638 0.3406 0.0
C94 C 0.80731 0.34198 0.29453 0.0
H95 H 0.85413 0.72261 0.11989 0.0
H96 H 0.83663 0.95928 0.18083 0.0
H97 H 0.74454 0.90996 0.27517 0.0
H98 H 0.67602 0.80005 0.34636 0.0
H99 H 0.69525 0.56321 0.28728 0.0
H100 H 0.77951 0.61233 0.18653 0.0
C101 C 0.82985 0.76351 0.15343 0.0
C102 C 0.85259 0.84472 0.14302 0.0
C103 C 0.77762 0.7347 0.20853 0.0
C104 C 0.81985 0.8966 0.18683 0.0
C105 C 0.76751 0.8684 0.24136 0.0
C106 C 0.69829 0.75902 0.31131 0.0
C107 C 0.67974 0.67801 0.32505 0.0
C108 C 0.74707 0.78763 0.25358 0.0
C109 C 0.70852 0.62585 0.27829 0.0
C110 C 0.75697 0.6539 0.22067 0.0
H111 H 0.23877 0.72174 0.11328 0.0
H112 H 0.34757 0.95847 0.16071 0.0
H113 H 0.42369 0.91015 0.25682 0.0
H114 H 0.45015 0.80123 0.33452 0.0
H115 H 0.34006 0.56494 0.28512 0.0
H116 H 0.27392 0.6127 0.18249 0.0
C117 C 0.2797 0.76286 0.14412 0.0
C118 C 0.28679 0.8437 0.13043 0.0
C119 C 0.32256 0.73476 0.19941 0.0
C120 C 0.341 0.89598 0.17008 0.0
C121 C 0.38411 0.86838 0.22539 0.0
C122 C 0.4121 0.76011 0.301 0.0
C123 C 0.39943 0.67963 0.31838 0.0
C124 C 0.37391 0.788 0.24175 0.0
C125 C 0.35079 0.62715 0.27352 0.0
C126 C 0.31268 0.65442 0.21477 0.0
H127 H 0.1305 0.70916 0.8121 0.0
H128 H 0.22595 0.94884 0.75937 0.0
H129 H 0.30458 0.90539 0.66554 0.0
H130 H 0.35867 0.80012 0.60859 0.0
H131 H 0.26135 0.5599 0.65371 0.0
H132 H 0.17157 0.60234 0.74003 0.0
C133 C 0.16692 0.75174 0.77871 0.0
C134 C 0.17308 0.83216 0.79392 0.0
C135 C 0.21313 0.72627 0.72443 0.0
C136 C 0.22059 0.88656 0.74981 0.0
C137 C 0.26614 0.86185 0.69615 0.0
C138 C 0.3173 0.75719 0.63694 0.0
C139 C 0.3176 0.67724 0.62639 0.0
C140 C 0.26508 0.78199 0.68495 0.0
C141 C 0.26265 0.62195 0.66189 0.0
C142 C 0.21132 0.6462 0.71114 0.0
H143 H 0.1767 0.30137 0.86848 0.0
H144 H 0.17884 0.06598 0.79391 0.0
H145 H 0.27027 0.11645 0.69839 0.0
H146 H 0.33954 0.22821 0.63 0.0
H147 H 0.33591 0.46369 0.7047 0.0
H148 H 0.25477 0.41222 0.80684 0.0
C149 C 0.19747 0.26099 0.83157 0.0
C150 C 0.17042 0.18006 0.8374 0.0
C151 C 0.24903 0.29052 0.77668 0.0
C152 C 0.19897 0.12841 0.7903 0.0
C153 C 0.25077 0.15734 0.73554 0.0
C154 C 0.32136 0.26839 0.66879 0.0
C155 C 0.34223 0.34983 0.6587 0.0
C156 C 0.27464 0.23841 0.72721 0.0
C157 C 0.31966 0.40088 0.71046 0.0
C158 C 0.27329 0.37148 0.76889 0.0
H159 H 0.68329 0.16984 0.84257 0.0
H160 H 0.87195 0.36321 0.85373 0.0
H161 H 0.80788 0.4357 0.76486 0.0
H162 H 0.70282 0.43871 0.67581 0.0
H163 H 0.51963 0.24038 0.66216 0.0
H164 H 0.57684 0.17558 0.76081 0.0
C165 C 0.71062 0.22807 0.82621 0.0
C166 C 0.78294 0.2605 0.85446 0.0
C167 C 0.67435 0.26849 0.77434 0.0
C168 C 0.81657 0.33646 0.83273 0.0
C169 C 0.77998 0.37791 0.78176 0.0
C170 C 0.67499 0.38191 0.69546 0.0
C171 C 0.60741 0.34401 0.6616 0.0
C172 C 0.7095 0.34381 0.75106 0.0
C173 C 0.57206 0.27023 0.68699 0.0
C174 C 0.60475 0.23316 0.7433 0.0
H175 H 0.92984 0.85471 0.77285 0.0
H176 H 0.76215 0.78079 0.93944 0.0
H177 H 0.69339 0.68194 0.85784 0.0
H178 H 0.66694 0.63638 0.73304 0.0
H179 H 0.82718 0.71539 0.56222 0.0
H180 H 0.91379 0.79119 0.65105 0.0
C181 C 0.87964 0.81513 0.79169 0.0
C182 C 0.85023 0.8254 0.86147 0.0
C183 C 0.83859 0.76019 0.74327 0.0
C184 C 0.78503 0.77432 0.88552 0.0
C185 C 0.74561 0.71802 0.83887 0.0
C186 C 0.72218 0.66806 0.71598 0.0
C187 C 0.74113 0.67077 0.64182 0.0
C188 C 0.76968 0.7133 0.76666 0.0
C189 C 0.81218 0.71216 0.61947 0.0
C190 C 0.86108 0.75614 0.67011 0.0
loop_
_geom_bond_atom_site_label_1
_geom_bond_atom_site_label_2
_geom_bond_distance
_geom_bond_site_symmetry_2
_ccdc_geom_bond_type
C0 O27 1.312 . S
C0 O28 1.208 . S
C1 O22 1.331 . S
C1 O25 1.244 . S
C2 O24 1.264 . S
C2 O26 1.273 . S
Mg3 O5 1.936 . S
Mg3 O12 2.081 . S
Mg3 O14 2.023 1_556 S
Mg3 O18 2.031 1_655 S
Mg3 O27 2.291 1_656 S
Mg4 O5 1.963 . S
Mg4 O15 1.942 . S
Mg4 O16 1.955 1_556 S
Mg4 O23 1.986 1_545 S
O5 Mg3 1.936 . S
O5 Mg4 1.963 . S
O5 Mg6 1.915 1_656 S
Mg6 O5 1.915 1_454 S
Mg6 O7 1.915 1_545 S
Mg6 O11 2.006 1_445 S
Mg6 O17 2.121 1_554 S
Mg6 O21 2.006 1_444 S
Mg6 O27 2.121 . S
O7 Mg6 1.915 1_565 S
O7 Mg8 1.936 . S
O7 Mg9 1.963 . S
Mg8 O7 1.936 . S
Mg8 O17 2.291 1_564 S
Mg8 O22 2.081 . S
Mg8 O24 2.023 1_554 S
Mg8 O28 2.031 1_565 S
Mg9 O7 1.963 . S
Mg9 O13 1.986 1_455 S
Mg9 O25 1.942 . S
Mg9 O26 1.955 1_554 S
C10 O21 1.191 . S
C10 O23 1.307 . S
O11 Mg6 2.006 1_665 S
O11 C30 1.191 . S
O12 Mg3 2.081 . S
O12 C20 1.331 . S
O13 Mg9 1.986 1_655 S
O13 C30 1.307 . S
O14 Mg3 2.023 1_554 S
O14 C29 1.264 . S
O15 Mg4 1.942 . S
O15 C20 1.244 . S
O16 Mg4 1.955 1_554 S
O16 C29 1.273 . S
O17 Mg6 2.121 1_556 S
O17 Mg8 2.291 1_546 S
O17 C19 1.312 . S
O18 Mg3 2.031 1_455 S
O18 C19 1.208 . S
C19 O17 1.312 . S
C19 O18 1.208 . S
C20 O12 1.331 . S
C20 O15 1.244 . S
O21 Mg6 2.006 1_666 S
O21 C10 1.191 . S
O22 C1 1.331 . S
O22 Mg8 2.081 . S
O23 Mg4 1.986 1_565 S
O23 C10 1.307 . S
O24 C2 1.264 . S
O24 Mg8 2.023 1_556 S
O25 C1 1.244 . S
O25 Mg9 1.942 . S
O26 C2 1.273 . S
O26 Mg9 1.955 1_556 S
O27 C0 1.312 . S
O27 Mg3 2.291 1_454 S
O27 Mg6 2.121 . S
O28 C0 1.208 . S
O28 Mg8 2.031 1_545 S
C29 O14 1.264 . S
C29 O16 1.273 . S
C30 O11 1.191 . S
C30 O13 1.307 . S
Fe31 O32 1.886 . S
Fe31 O35 1.715 . S
Fe31 O40 2.077 . S
Fe31 O45 1.935 . S
Fe31 O51 2.077 . S
Fe31 O60 1.935 . S
O32 Fe31 1.886 . S
O32 Fe34 1.715 . S
Fe33 O35 1.886 . S
Fe33 O36 1.715 . S
Fe33 O43 1.935 . S
Fe33 O44 2.077 . S
Fe33 O50 1.935 . S
Fe33 O59 2.077 . S
Fe34 O32 1.715 . S
Fe34 O37 1.886 . S
Fe34 O41 1.935 . S
Fe34 O46 2.077 . S
Fe34 O52 1.935 . S
Fe34 O56 2.077 . S
O35 Fe31 1.715 . S
O35 Fe33 1.886 . S
O36 Fe33 1.715 . S
O36 Fe38 1.886 . S
O37 Fe34 1.886 . S
O37 Fe38 1.715 . S
Fe38 O36 1.886 . S
Fe38 O37 1.715 . S
Fe38 O42 2.077 . S
Fe38 O47 1.935 . S
Fe38 O49 2.077 . S
Fe38 O57 1.935 . S
C39 O51 1.381 . S
C39 O52 1.421 . S
O40 Fe31 2.077 . S
O40 C53 1.381 . S
O41 Fe34 1.935 . S
O41 C53 1.421 . S
O42 Fe38 2.077 . S
O42 C58 1.381 . S
O43 Fe33 1.935 . S
O43 C58 1.421 . S
O44 Fe33 2.077 . S
O44 C48 1.381 . S
O45 Fe31 1.935 . S
O45 C48 1.421 . S
O46 Fe34 2.077 . S
O46 C54 1.381 . S
O47 Fe38 1.935 . S
O47 C54 1.421 . S
C48 O44 1.381 . S
C48 O45 1.421 . S
O49 Fe38 2.077 . S
O49 C61 1.381 . S
O50 Fe33 1.935 . S
O50 C61 1.421 . S
O51 Fe31 2.077 . S
O51 C39 1.381 . S
O52 Fe34 1.935 . S
O52 C39 1.421 . S
C53 O40 1.381 . S
C53 O41 1.421 . S
C54 O46 1.381 . S
C54 O47 1.421 . S
C55 O56 1.381 . S
C55 O57 1.421 . S
O56 Fe34 2.077 . S
O56 C55 1.381 . S
O57 Fe38 1.935 . S
O57 C55 1.421 . S
C58 O42 1.381 . S
C58 O43 1.421 . S
O59 Fe33 2.077 . S
O59 C62 1.381 . S
O60 Fe31 1.935 . S
O60 C62 1.421 . S
C61 O49 1.381 . S
C61 O50 1.421 . S
C62 O59 1.381 . S
C62 O60 1.421 . S
H63 C69 0.930 . S
H64 C72 0.930 . S
H65 C73 0.930 . S
H66 C74 0.930 . S
H67 C77 0.930 . S
H68 C78 0.930 . S
C69 H63 0.930 . S
C69 C70 1.355 . S
C69 C71 1.415 . S
C70 C69 1.355 . S
C70 C72 1.419 . S
C71 C69 1.415 . S
C71 C76 1.425 . S
C71 C78 1.409 . S
C72 H64 0.930 . S
C72 C70 1.419 . S
C72 C73 1.362 . S
C73 H65 0.930 . S
C73 C72 1.362 . S
C73 C76 1.409 . S
C74 H66 0.930 . S
C74 C75 1.355 . S
C74 C76 1.415 . S
C75 C74 1.355 . S
C75 C77 1.419 . S
C76 C71 1.425 . S
C76 C73 1.409 . S
C76 C74 1.415 . S
C77 H67 0.930 . S
C77 C75 1.419 . S
C77 C78 1.362 . S
C78 H68 0.930 . S
C78 C71 1.409 . S
C78 C77 1.362 . S
H79 C85 0.930 . S
H80 C88 0.930 . S
H81 C89 0.930 . S
H82 C90 0.930 . S
H83 C93 0.930 . S
H84 C94 0.930 . S
C85 H79 0.930 . S
C85 C86 1.355 . S
C85 C87 1.415 . S
C86 C85 1.355 . S
C86 C88 1.419 . S
C87 C85 1.415 . S
C87 C92 1.425 . S
C87 C94 1.409 . S
C88 H80 0.930 . S
C88 C86 1.419 . S
C88 C89 1.362 . S
C89 H81 0.930 . S
C89 C88 1.362 . S
C89 C92 1.409 . S
C90 H82 0.930 . S
C90 C91 1.355 . S
C90 C92 1.415 . S
C91 C90 1.355 . S
C91 C93 1.419 . S
C92 C87 1.425 . S
C92 C89 1.409 . S
C92 C90 1.415 . S
C93 H83 0.930 . S
C93 C91 1.419 . S
C93 C94 1.362 . S
C94 H84 0.930 . S
C94 C87 1.409 . S
C94 C93 1.362 . S
H95 C101 0.930 . S
H96 C104 0.930 . S
H97 C105 0.930 . S
H98 C106 0.930 . S
H99 C109 0.930 . S
H100 C110 0.930 . S
C101 H95 0.930 . S
C101 C102 1.355 . S
C101 C103 1.415 . S
C102 C101 1.355 . S
C102 C104 1.419 . S
C103 C101 1.415 . S
C103 C108 1.425 . S
C103 C110 1.409 . S
C104 H96 0.930 . S
C104 C102 1.419 . S
C104 C105 1.362 . S
C105 H97 0.930 . S
C105 C104 1.362 . S
C105 C108 1.409 . S
C106 H98 0.930 . S
C106 C107 1.355 . S
C106 C108 1.415 . S
C107 C106 1.355 . S
C107 C109 1.419 . S
C108 C103 1.425 . S
C108 C105 1.409 . S
C108 C106 1.415 . S
C109 H99 0.930 . S
C109 C107 1.419 . S
C109 C110 1.362 . S
C110 H100 0.930 . S
C110 C103 1.409 . S
C110 C109 1.362 . S
H111 C117 0.930 . S
H112 C120 0.930 . S
H113 C121 0.930 . S
H114 C122 0.930 . S
H115 C125 0.930 . S
H116 C126 0.930 . S
C117 H111 0.930 . S
C117 C118 1.355 . S
C117 C119 1.415 . S
C118 C117 1.355 . S
C118 C120 1.419 . S
C119 C117 1.415 . S
C119 C124 1.425 . S
C119 C126 1.409 . S
C120 H112 0.930 . S
C120 C118 1.419 . S
C120 C121 1.362 . S
C121 H113 0.930 . S
C121 C120 1.362 . S
C121 C124 1.409 . S
C122 H114 0.930 . S
C122 C123 1.355 . S
C122 C124 1.415 . S
C123 C122 1.355 . S
C123 C125 1.419 . S
C124 C119 1.425 . S
C124 C121 1.409 . S
C124 C122 1.415 . S
C125 H115 0.930 . S
C125 C123 1.419 . S
C125 C126 1.362 . S
C126 H116 0.930 . S
C126 C119 1.409 . S
C126 C125 1.362 . S
H127 C133 0.930 . S
H128 C136 0.930 . S
H129 C137 0.930 . S
H130 C138 0.930 . S
H131 C141 0.930 . S
H132 C142 0.930 . S
C133 H127 0.930 . S
C133 C134 1.355 . S
C133 C135 1.415 . S
C134 C133 1.355 . S
C134 C136 1.419 . S
C135 C133 1.415 . S
C135 C140 1.425 . S
C135 C142 1.409 . S
C136 H128 0.930 . S
C136 C134 1.419 . S
C136 C137 1.362 . S
C137 H129 0.930 . S
C137 C136 1.362 . S
C137 C140 1.409 . S
C138 H130 0.930 . S
C138 C139 1.355 . S
C138 C140 1.415 . S
C139 C138 1.355 . S
C139 C141 1.419 . S
C140 C135 1.425 . S
C140 C137 1.409 . S
C140 C138 1.415 . S
C141 H131 0.930 . S
C141 C139 1.419 . S
C141 C142 1.362 . S
C142 H132 0.930 . S
C142 C135 1.409 . S
C142 C141 1.362 . S
H143 C149 0.930 . S
H144 C152 0.930 . S
H145 C153 0.930 . S
H146 C154 0.930 . S
H147 C157 0.930 . S
H148 C158 0.930 . S
C149 H143 0.930 . S
C149 C150 1.355 . S
C149 C151 1.415 . S
C150 C149 1.355 . S
C150 C152 1.419 . S
C151 C149 1.415 . S
C151 C156 1.425 . S
C151 C158 1.409 . S
C152 H144 0.930 . S
C152 C150 1.419 . S
C152 C153 1.362 . S
C153 H145 0.930 . S
C153 C152 1.362 . S
C153 C156 1.409 . S
C154 H146 0.930 . S
C154 C155 1.355 . S
C154 C156 1.415 . S
C155 C154 1.355 . S
C155 C157 1.419 . S
C156 C151 1.425 . S
C156 C153 1.409 . S
C156 C154 1.415 . S
C157 H147 0.930 . S
C157 C155 1.419 . S
C157 C158 1.362 . S
C158 H148 0.930 . S
C158 C151 1.409 . S
C158 C157 1.362 . S
H159 C165 0.930 . S
H160 C168 0.930 . S
H161 C169 0.930 . S
H162 C170 0.930 . S
H163 C173 0.930 . S
H164 C174 0.930 . S
C165 H159 0.930 . S
C165 C166 1.355 . S
C165 C167 1.415 . S
C166 C165 1.355 . S
C166 C168 1.419 . S
C167 C165 1.415 . S
C167 C172 1.425 . S
C167 C174 1.409 . S
C168 H160 0.930 . S
C168 C166 1.419 . S
C168 C169 1.362 . S
C169 H161 0.930 . S
C169 C168 1.362 . S
C169 C172 1.409 . S
C170 H162 0.930 . S
C170 C171 1.355 . S
C170 C172 1.415 . S
C171 C170 1.355 . S
C171 C173 1.419 . S
C172 C167 1.425 . S
C172 C169 1.409 . S
C172 C170 1.415 . S
C173 H163 0.930 . S
C173 C171 1.419 . S
C173 C174 1.362 . S
C174 H164 0.930 . S
C174 C167 1.409 . S
C174 C173 1.362 . S
H175 C181 0.930 . S
H176 C184 0.930 . S
H177 C185 0.930 . S
H178 C186 0.930 . S
H179 C189 0.930 . S
H180 C190 0.930 . S
C181 H175 0.930 . S
C181 C182 1.355 . S
C181 C183 1.415 . S
C182 C181 1.355 . S
C182 C184 1.419 . S
C183 C181 1.415 . S
C183 C188 1.425 . S
C183 C190 1.409 . S
C184 H176 0.930 . S
C184 C182 1.419 . S
C184 C185 1.362 . S
C185 H177 0.930 . S
C185 C184 1.362 . S
C185 C188 1.409 . S
C186 H178 0.930 . S
C186 C187 1.355 . S
C186 C188 1.415 . S
C187 C186 1.355 . S
C187 C189 1.419 . S
C188 C183 1.425 . S
C188 C185 1.409 . S
C188 C186 1.415 . S
C189 H179 0.930 . S
C189 C187 1.419 . S
C189 C190 1.362 . S
C190 H180 0.930 . S
C190 C183 1.409 . S
C190 C189 1.362 . S
C70 C0 1.341 . S
C75 C54 1.373 . S
C86 C29 1.570 . S
C91 C58 1.545 . S
C102 C30 1.370 . S
C107 C48 1.384 . S
C118 C1 1.504 . S
C123 C53 1.510 . S
C134 C2 1.541 . S
C139 C39 1.522 . S
C155 C55 1.434 . S
C150 C19 1.407 . S
C166 C20 1.528 . S
C171 C61 1.522 . S
C187 C62 1.328 . S
C182 C10 1.322 . S
