# Generated by pormake.
# Topology scu, (8,4)-cn, num edge types: 1
# Building blocks:
#     Node 0, Type 0, BuildingBlock: GIZVER_clean_sbu_0, # of connection points: 8
#     Node 1, Type 1, BuildingBlock: ESEHIV_clean_sbu_0, # of connection points: 4
#     Node 2, Type 1, BuildingBlock: ESEHIV_clean_sbu_0, # of connection points: 4
#     Edge 3, Type (0, 1), BuildingBlock: AJUNOK_clean_linker_0, # of connection points: 2
#     Edge 4, Type (0, 1), BuildingBlock: AJUNOK_clean_linker_0, # of connection points: 2
#     Edge 5, Type (0, 1), BuildingBlock: AJUNOK_clean_linker_0, # of connection points: 2
#     Edge 6, Type (0, 1), BuildingBlock: AJUNOK_clean_linker_0, # of connection points: 2
#     Edge 7, Type (0, 1), BuildingBlock: AJUNOK_clean_linker_0, # of connection points: 2
#     Edge 8, Type (0, 1), BuildingBlock: AJUNOK_clean_linker_0, # of connection points: 2
#     Edge 9, Type (0, 1), BuildingBlock: AJUNOK_clean_linker_0, # of connection points: 2
#     Edge 10, Type (0, 1), BuildingBlock: AJUNOK_clean_linker_0, # of connection points: 2
# Relax obj value: 0.029
# Max RMSD: 0.142
# Mean RMSD: 0.113
data_MOF--net-scu--node1-GIZVER_clean_sbu_0--node2-ESEHIV_clean_sbu_0--edge1-AJUNOK_clean_linker_0
_symmetry_space_group_name_H-M    P1
_symmetry_Int_Tables_number       1
_symmetry_cell_setting            triclinic
loop_
_symmetry_equiv_pos_as_xyz
'x, y, z'
_cell_length_a     18.995862
_cell_length_b     19.862301
_cell_length_c     16.782091
_cell_angle_alpha  106.54716
_cell_angle_beta   83.289689
_cell_angle_gamma 113.53833
loop_
_atom_site_label
_atom_site_type_symbol
_atom_site_fract_x
_atom_site_fract_y
_atom_site_fract_z
_atom_type_partial_charge
Co0 Co 0.05033 0.99103 0.19365 0.0
Co1 Co 0.14182 0.11818 0.18871 0.0
Co2 Co 0.02356 0.06821 0.0423 0.0
O3 O 0.08749 0.03849 0.10333 0.0
H4 H 0.12116 1.01794 0.06624 0.0
O5 O 0.96469 0.10224 0.98296 0.0
Co6 Co 1.00601 0.13209 0.88313 0.0
Co7 Co 0.89315 1.02746 0.91313 0.0
H8 H 0.94269 0.13594 1.01997 0.0
O9 O 0.24117 0.13582 0.20507 0.0
O10 O 0.13386 0.07183 0.26953 0.0
O11 O 0.09933 0.19124 0.23437 0.0
O12 O 0.05559 0.17871 0.11184 0.0
O13 O 0.11159 0.09375 0.96249 0.0
O14 O 0.04433 0.1657 0.79453 0.0
O15 O 0.98541 0.218 0.90368 0.0
O16 O 0.04001 0.05071 0.84988 0.0
O17 O 0.98954 0.95848 0.97162 0.0
O18 O 0.89706 0.92866 0.88214 0.0
O19 O 0.90297 0.06883 0.82519 0.0
O20 O 0.8053 0.03866 0.91836 0.0
C21 C 0.0677 0.91236 0.23793 0.0
C22 C 0.92799 0.03666 0.19255 0.0
C23 C 0.06528 0.21026 0.18992 0.0
C24 C 0.20866 0.09944 0.2613 0.0
C25 C 0.02229 0.22063 0.83282 0.0
C26 C 0.10001 0.05897 0.8852 0.0
C27 C 0.94321 0.91101 0.91273 0.0
C28 C 0.83323 0.06279 0.85243 0.0
O29 O 1.0191 0.94319 0.27175 0.0
O30 O 0.10596 0.93048 0.17185 0.0
O31 O 0.93168 0.03685 0.11624 0.0
O32 O 0.98694 0.04681 0.23034 0.0
Cu33 Cu 0.06393 0.58486 0.55191 0.0
N34 N 0.11419 0.55136 0.61272 0.0
N35 N 0.11665 0.47646 0.68892 0.0
C36 C 0.07931 0.48326 0.63008 0.0
C37 C 0.17803 0.54259 0.70952 0.0
C38 C 0.17673 0.58875 0.66188 0.0
O39 O 1.01314 0.49528 0.46132 0.0
C40 C 0.03551 0.68098 0.69046 0.0
O41 O 0.11072 0.70535 0.68832 0.0
H42 H 0.02478 0.44117 0.60373 0.0
H43 H 0.21617 0.64676 0.6663 0.0
N44 N 0.12372 0.66507 0.50499 0.0
N45 N 0.14005 0.74795 0.43088 0.0
C46 C 0.08957 0.69106 0.46181 0.0
C47 C 0.19943 0.70634 0.501 0.0
C48 C 0.20969 0.75763 0.45492 0.0
C49 C 0.0442 0.48746 0.38923 0.0
O50 O 0.10348 0.545 0.37336 0.0
H51 H 0.02838 0.66571 0.45073 0.0
H52 H 0.2438 0.6994 0.52886 0.0
O53 O 0.99751 0.62485 0.63184 0.0
H54 H 0.21967 0.55698 0.75673 0.0
H55 H 0.26394 0.799 0.44078 0.0
Cu56 Cu 0.49922 1.0205 0.53802 0.0
N57 N 0.42068 0.96484 0.60033 0.0
N58 N 0.32159 0.94887 0.68891 0.0
C59 C 0.38408 0.99918 0.66129 0.0
C60 C 0.31895 0.87963 0.64426 0.0
C61 C 0.38064 0.88962 0.5896 0.0
O62 O 0.45462 0.07384 0.49206 0.0
C63 C 0.60457 0.03975 0.64245 0.0
O64 O 0.5672 0.9657 0.6185 0.0
H65 H 0.39961 0.06017 0.6804 0.0
H66 H 0.39256 0.84556 0.54217 0.0
N67 N 0.53911 0.96521 0.44835 0.0
N68 N 0.62981 0.95279 0.35419 0.0
C69 C 0.61487 0.98875 0.43124 0.0
C70 C 0.50454 0.91239 0.37916 0.0
C71 C 0.56058 0.90475 0.32071 0.0
C72 C 0.38798 1.03274 0.46092 0.0
O73 O 0.35668 0.96093 0.46192 0.0
H74 H 0.65795 0.03622 0.4718 0.0
H75 H 0.44313 0.88538 0.36961 0.0
O76 O 0.58432 0.0824 0.61426 0.0
H77 H 0.27393 0.82606 0.64849 0.0
H78 H 0.55112 0.86927 0.25749 0.0
C79 C 0.06588 0.33865 0.20019 0.0
C80 C 0.04184 0.27429 0.2309 0.0
C81 C 0.05965 0.4062 0.2496 0.0
C82 C 0.02858 0.41124 0.33084 0.0
H83 H 0.09476 0.33862 0.14057 0.0
H84 H 0.08392 0.45621 0.2259 0.0
S85 S 0.94251 0.25205 0.43131 0.0
N86 N 0.97531 0.21521 0.34115 0.0
N87 N 0.96256 0.3415 0.43353 0.0
C88 C 0.99691 0.34446 0.35816 0.0
C89 C 1.00408 0.27616 0.3083 0.0
C90 C 0.78565 1.00631 0.19594 0.0
C91 C 0.85226 1.01814 0.23651 0.0
C92 C 0.71286 0.9833 0.23373 0.0
C93 C 0.70383 0.97167 0.31372 0.0
H94 H 0.78949 1.01435 0.13415 0.0
H95 H 0.66342 0.97579 0.20079 0.0
S96 S 0.85727 0.98935 0.4451 0.0
N97 N 0.90256 1.01321 0.36113 0.0
N98 N 0.76599 0.9701 0.43091 0.0
C99 C 0.7693 0.98272 0.35486 0.0
C100 C 0.84334 1.00594 0.31667 0.0
C101 C 0.15252 0.85197 0.26904 0.0
C102 C 0.08335 0.864 0.28142 0.0
C103 C 0.17145 0.81491 0.31858 0.0
C104 C 0.1217 0.78816 0.38188 0.0
H105 H 0.1933 0.8732 0.22251 0.0
H106 H 0.22516 0.8068 0.30696 0.0
S107 S 0.9343 0.80696 0.44079 0.0
N108 N 0.96481 0.84533 0.36184 0.0
N109 N 1.00148 0.77905 0.45554 0.0
C110 C 0.05252 0.79999 0.3946 0.0
C111 C 0.03305 0.83686 0.34418 0.0
C112 C 0.22168 0.0477 0.37567 0.0
C113 C 0.25697 0.09179 0.31896 0.0
C114 C 0.26518 1.03191 0.42414 0.0
C115 C 0.34578 0.06147 0.4198 0.0
H116 H 0.15978 1.0229 0.38102 0.0
H117 H 0.23523 0.99463 0.46398 0.0
S118 S 0.46742 0.18714 0.28917 0.0
N119 N 0.37854 0.16968 0.26621 0.0
N120 N 0.45992 0.1412 0.35971 0.0
C121 C 0.38236 0.10962 0.3678 0.0
C122 C 0.33804 0.12456 0.31683 0.0
C123 C 0.91295 0.79271 0.79396 0.0
C124 C 0.95392 0.83912 0.86805 0.0
C125 C 0.93523 0.73637 0.73913 0.0
C126 C 0.99949 0.72475 0.75623 0.0
H127 H 0.86646 0.80318 0.77513 0.0
H128 H 0.90568 0.70607 0.68029 0.0
S129 S 0.11644 0.81888 0.94871 0.0
N130 N 0.05432 0.86003 0.9609 0.0
N131 N 0.09632 0.75531 0.85777 0.0
C132 C 0.03621 0.7654 0.83339 0.0
C133 C 1.01333 0.82216 0.8894 0.0
C134 C 0.23006 0.0513 0.86524 0.0
C135 C 0.15413 1.02463 0.83747 0.0
C136 C 0.28386 1.02414 0.8178 0.0
C137 C 0.2633 0.9678 0.74209 0.0
H138 H 0.24897 0.09554 0.92255 0.0
H139 H 0.34253 0.04839 0.83947 0.0
S140 S 0.07182 0.87591 0.64324 0.0
N141 N 0.06097 0.93633 0.72974 0.0
N142 N 0.16197 0.88458 0.64242 0.0
C143 C 0.18711 0.93827 0.7152 0.0
C144 C 0.13261 0.96688 0.76241 0.0
C145 C 0.0504 0.35866 0.84466 0.0
C146 C 0.04144 0.28536 0.795 0.0
C147 C 0.07639 0.42151 0.81014 0.0
C148 C 0.09242 0.41275 0.72461 0.0
H149 H 0.03942 0.36795 0.9109 0.0
H150 H 0.08339 0.47718 0.8502 0.0
S151 S 0.07742 0.23414 0.56708 0.0
N152 N 0.05156 0.20893 0.65504 0.0
N153 N 0.09671 0.3263 0.59117 0.0
C154 C 0.08217 0.34005 0.67421 0.0
C155 C 0.05769 0.2766 0.70914 0.0
C156 C 0.70165 0.05155 0.8284 0.0
C157 C 0.77951 0.0733 0.80378 0.0
C158 C 0.64596 0.0487 0.77893 0.0
C159 C 0.66569 0.06912 0.70377 0.0
H160 H 0.68209 1.0321 0.88416 0.0
H161 H 0.58617 1.02565 0.79711 0.0
S162 S 0.86148 0.14454 0.61789 0.0
N163 N 0.87423 0.12573 0.70372 0.0
N164 N 0.76819 0.12109 0.61108 0.0
C165 C 0.74346 0.09765 0.68151 0.0
C166 C 0.80076 0.09965 0.73152 0.0
loop_
_geom_bond_atom_site_label_1
_geom_bond_atom_site_label_2
_geom_bond_distance
_geom_bond_site_symmetry_2
_ccdc_geom_bond_type
Co0 O3 2.042 1_565 S
Co0 O10 2.264 1_565 S
Co0 O29 2.286 1_455 S
Co0 O30 2.069 . S
Co0 O32 2.015 1_455 S
Co1 O3 2.122 . S
Co1 O9 2.073 . S
Co1 O10 2.327 . S
Co1 O11 1.976 . S
Co2 O3 2.087 . S
Co2 O5 2.087 1_454 S
Co2 O12 2.111 . S
Co2 O13 2.143 1_554 S
Co2 O17 2.111 1_444 S
Co2 O31 2.143 1_445 S
O3 Co0 2.042 1_545 S
O3 Co1 2.122 . S
O3 Co2 2.087 . S
O3 H4 0.980 1_545 S
H4 O3 0.980 1_565 S
O5 Co2 2.087 1_656 S
O5 Co6 2.042 1_655 S
O5 Co7 2.122 1_545 S
O5 H8 0.980 . S
Co6 O5 2.042 1_455 S
Co6 O14 2.286 . S
Co6 O15 2.069 1_455 S
Co6 O16 2.015 . S
Co6 O19 2.264 1_455 S
Co7 O5 2.122 1_565 S
Co7 O18 1.976 . S
Co7 O19 2.327 1_565 S
Co7 O20 2.073 . S
H8 O5 0.980 . S
O9 Co1 2.073 . S
O9 C24 1.245 . S
O10 Co0 2.264 1_545 S
O10 Co1 2.327 . S
O10 C24 1.257 . S
O11 Co1 1.976 . S
O11 C23 1.251 . S
O12 Co2 2.111 . S
O12 C23 1.274 . S
O13 Co2 2.143 1_556 S
O13 C26 1.246 . S
O14 Co6 2.286 . S
O14 C25 1.259 1_455 S
O15 Co6 2.069 1_655 S
O15 C25 1.289 . S
O16 Co6 2.015 . S
O16 C26 1.257 . S
O17 Co2 2.111 1_666 S
O17 C27 1.274 . S
O18 Co7 1.976 . S
O18 C27 1.251 . S
O19 Co6 2.264 1_655 S
O19 Co7 2.327 1_545 S
O19 C28 1.257 . S
O20 Co7 2.073 . S
O20 C28 1.245 1_565 S
C21 O29 1.259 1_455 S
C21 O30 1.289 . S
C22 O31 1.246 1_545 S
C22 O32 1.257 1_545 S
C23 O11 1.251 . S
C23 O12 1.274 . S
C24 O9 1.245 . S
C24 O10 1.257 . S
C25 O14 1.259 1_655 S
C25 O15 1.289 . S
C26 O13 1.246 . S
C26 O16 1.257 . S
C27 O17 1.274 . S
C27 O18 1.251 . S
C28 O19 1.257 . S
C28 O20 1.245 1_545 S
O29 Co0 2.286 1_655 S
O29 C21 1.259 1_655 S
O30 Co0 2.069 . S
O30 C21 1.289 . S
O31 Co2 2.143 1_665 S
O31 C22 1.246 1_565 S
O32 Co0 2.015 1_655 S
O32 C22 1.257 1_565 S
Cu33 N34 1.999 . S
Cu33 O39 1.974 . S
Cu33 N44 1.985 . S
Cu33 O53 1.959 . S
N34 Cu33 1.999 . S
N34 C36 1.263 . S
N34 C38 1.389 . S
N35 C36 1.358 . S
N35 C37 1.400 . S
C36 N34 1.263 . S
C36 N35 1.358 . S
C36 H42 0.930 1_655 S
C37 N35 1.400 . S
C37 C38 1.351 . S
C37 H54 0.930 . S
C38 N34 1.389 . S
C38 C37 1.351 . S
C38 H43 0.930 . S
O39 Cu33 1.974 . S
O39 C49 1.282 1_655 S
C40 O41 1.261 . S
C40 O53 1.251 1_455 S
O41 C40 1.261 . S
H42 C36 0.930 1_455 S
H43 C38 0.930 . S
N44 Cu33 1.985 . S
N44 C46 1.335 . S
N44 C47 1.390 1_655 S
N45 C46 1.345 . S
N45 C48 1.336 1_655 S
C46 N44 1.335 . S
C46 N45 1.345 . S
C46 H51 0.930 . S
C47 N44 1.390 1_455 S
C47 C48 1.346 . S
C47 H52 0.930 . S
C48 N45 1.336 1_455 S
C48 C47 1.346 . S
C48 H55 0.929 . S
C49 O39 1.282 1_455 S
C49 O50 1.216 . S
O50 C49 1.216 . S
H51 C46 0.930 . S
H52 C47 0.930 . S
O53 Cu33 1.959 . S
O53 C40 1.251 1_655 S
H54 C37 0.930 . S
H55 C48 0.929 . S
Cu56 N57 1.999 . S
Cu56 O62 1.974 . S
Cu56 N67 1.985 . S
Cu56 O76 1.959 . S
N57 Cu56 1.999 . S
N57 C59 1.263 . S
N57 C61 1.389 . S
N58 C59 1.358 . S
N58 C60 1.400 . S
C59 N57 1.263 . S
C59 N58 1.358 . S
C59 H65 0.930 . S
C60 N58 1.400 . S
C60 C61 1.351 . S
C60 H77 0.930 . S
C61 N57 1.389 . S
C61 C60 1.351 . S
C61 H66 0.930 . S
O62 Cu56 1.974 . S
O62 C72 1.282 1_545 S
C63 O64 1.259 1_545 S
C63 O76 1.256 . S
O64 C63 1.259 1_565 S
H65 C59 0.930 . S
H66 C61 0.930 . S
N67 Cu56 1.985 . S
N67 C69 1.335 . S
N67 C70 1.390 . S
N68 C69 1.345 . S
N68 C71 1.336 . S
C69 N67 1.335 . S
C69 N68 1.345 . S
C69 H74 0.930 . S
C70 N67 1.390 . S
C70 C71 1.346 . S
C70 H75 0.930 1_545 S
C71 N68 1.336 . S
C71 C70 1.346 . S
C71 H78 0.929 1_545 S
C72 O62 1.282 1_565 S
C72 O73 1.216 . S
O73 C72 1.216 . S
H74 C69 0.930 . S
H75 C70 0.930 1_565 S
O76 Cu56 1.959 . S
O76 C63 1.256 . S
H77 C60 0.930 . S
H78 C71 0.929 1_565 S
C79 C80 1.369 . S
C79 C81 1.419 . S
C79 H83 0.930 1_455 S
C80 C79 1.369 . S
C80 C89 1.429 . S
C81 C79 1.419 . S
C81 C82 1.363 . S
C81 H84 0.929 1_455 S
C82 C81 1.363 . S
C82 C88 1.428 . S
H83 C79 0.930 1_655 S
H84 C81 0.929 1_655 S
S85 N86 1.613 . S
S85 N87 1.610 . S
N86 S85 1.613 . S
N86 C89 1.350 . S
N87 S85 1.610 . S
N87 C88 1.351 . S
C88 C82 1.428 . S
C88 N87 1.351 . S
C88 C89 1.434 . S
C89 C80 1.429 . S
C89 N86 1.350 . S
C89 C88 1.434 . S
C90 C91 1.369 . S
C90 C92 1.419 . S
C90 H94 0.930 . S
C91 C90 1.369 . S
C91 C100 1.429 1_545 S
C92 C90 1.419 . S
C92 C93 1.363 . S
C92 H95 0.929 . S
C93 C92 1.363 . S
C93 C99 1.428 . S
H94 C90 0.930 . S
H95 C92 0.929 . S
S96 N97 1.613 . S
S96 N98 1.610 . S
N97 S96 1.613 . S
N97 C100 1.350 . S
N98 S96 1.610 . S
N98 C99 1.351 1_565 S
C99 C93 1.428 . S
C99 N98 1.351 1_545 S
C99 C100 1.434 1_545 S
C100 C91 1.429 1_565 S
C100 N97 1.350 . S
C100 C99 1.434 1_565 S
C101 C102 1.369 . S
C101 C103 1.419 . S
C101 H105 0.930 . S
C102 C101 1.369 . S
C102 C111 1.429 1_455 S
C103 C101 1.419 . S
C103 C104 1.363 1_455 S
C103 H106 0.929 . S
C104 C103 1.363 1_655 S
C104 C110 1.428 . S
H105 C101 0.930 . S
H106 C103 0.929 . S
S107 N108 1.613 . S
S107 N109 1.610 . S
N108 S107 1.613 . S
N108 C111 1.350 . S
N109 S107 1.610 . S
N109 C110 1.351 . S
C110 C104 1.428 . S
C110 N109 1.351 . S
C110 C111 1.434 . S
C111 C102 1.429 1_655 S
C111 N108 1.350 . S
C111 C110 1.434 . S
C112 C113 1.369 . S
C112 C114 1.419 . S
C112 H116 0.930 . S
C113 C112 1.369 . S
C113 C122 1.429 1_545 S
C114 C112 1.419 . S
C114 C115 1.360 1_545 S
C114 H117 0.929 . S
C115 C114 1.360 1_565 S
C115 C121 1.430 . S
H116 C112 0.930 . S
H117 C114 0.929 . S
S118 N119 1.613 . S
S118 N120 1.610 . S
N119 S118 1.613 . S
N119 C122 1.350 . S
N120 S118 1.610 . S
N120 C121 1.351 . S
C121 C115 1.430 . S
C121 N120 1.351 . S
C121 C122 1.434 . S
C122 C113 1.429 1_565 S
C122 N119 1.350 . S
C122 C121 1.434 . S
C123 C124 1.369 1_655 S
C123 C125 1.419 . S
C123 H127 0.930 . S
C124 C123 1.369 1_455 S
C124 C133 1.429 . S
C125 C123 1.419 . S
C125 C126 1.363 1_655 S
C125 H128 0.929 . S
C126 C125 1.363 1_455 S
C126 C132 1.428 . S
H127 C123 0.930 . S
H128 C125 0.929 . S
S129 N130 1.613 . S
S129 N131 1.610 . S
N130 S129 1.613 . S
N130 C133 1.350 . S
N131 S129 1.610 . S
N131 C132 1.351 . S
C132 C126 1.428 . S
C132 N131 1.351 . S
C132 C133 1.434 . S
C133 C124 1.429 . S
C133 N130 1.350 . S
C133 C132 1.434 . S
C134 C135 1.369 . S
C134 C136 1.419 . S
C134 H138 0.930 . S
C135 C134 1.369 . S
C135 C144 1.429 1_545 S
C136 C134 1.419 . S
C136 C137 1.363 . S
C136 H139 0.929 . S
C137 C136 1.363 . S
C137 C143 1.428 1_545 S
H138 C134 0.930 . S
H139 C136 0.929 . S
S140 N141 1.613 . S
S140 N142 1.610 . S
N141 S140 1.613 . S
N141 C144 1.350 . S
N142 S140 1.610 . S
N142 C143 1.351 . S
C143 C137 1.428 1_565 S
C143 N142 1.351 . S
C143 C144 1.434 . S
C144 C135 1.429 1_565 S
C144 N141 1.350 . S
C144 C143 1.434 . S
C145 C146 1.369 . S
C145 C147 1.419 . S
C145 H149 0.930 . S
C146 C145 1.369 . S
C146 C155 1.429 1_655 S
C147 C145 1.419 . S
C147 C148 1.363 . S
C147 H150 0.929 . S
C148 C147 1.363 . S
C148 C154 1.428 1_655 S
H149 C145 0.930 . S
H150 C147 0.929 . S
S151 N152 1.613 . S
S151 N153 1.610 . S
N152 S151 1.613 . S
N152 C155 1.350 . S
N153 S151 1.610 . S
N153 C154 1.351 . S
C154 C148 1.428 1_455 S
C154 N153 1.351 . S
C154 C155 1.434 . S
C155 C146 1.429 1_455 S
C155 N152 1.350 . S
C155 C154 1.434 . S
C156 C157 1.369 . S
C156 C158 1.419 . S
C156 H160 0.930 . S
C157 C156 1.369 . S
C157 C166 1.429 . S
C158 C156 1.419 . S
C158 C159 1.363 . S
C158 H161 0.929 . S
C159 C158 1.363 . S
C159 C165 1.428 . S
H160 C156 0.930 . S
H161 C158 0.929 . S
S162 N163 1.613 . S
S162 N164 1.610 1_545 S
N163 S162 1.613 . S
N163 C166 1.350 . S
N164 S162 1.610 1_565 S
N164 C165 1.351 1_565 S
C165 C159 1.428 . S
C165 N164 1.351 1_545 S
C165 C166 1.434 . S
C166 C157 1.429 . S
C166 N163 1.350 . S
C166 C165 1.434 . S
C80 C23 1.394 . S
C82 C49 1.485 . S
C91 C22 1.420 . S
C93 N68 1.415 . S
C102 C21 1.599 . S
C104 N45 1.576 . S
C113 C24 1.586 . S
C115 C72 1.624 . S
C124 C27 1.481 1_455 S
C126 C40 1.531 . S
C135 C26 1.429 . S
C137 N58 1.451 . S
C148 N35 1.584 . S
C146 C25 1.611 . S
C157 C28 1.602 . S
C159 C63 1.680 . S
