# Generated by pormake.
# Topology scu, (8,4)-cn, num edge types: 1
# Building blocks:
#     Node 0, Type 0, BuildingBlock: VETTIZ_charged_sbu_0, # of connection points: 8
#     Node 1, Type 1, BuildingBlock: NAWXER_clean_sbu_0, # of connection points: 4
#     Node 2, Type 1, BuildingBlock: NAWXER_clean_sbu_0, # of connection points: 4
#     Edge 3, Type (0, 1), BuildingBlock: EYOCIG_clean_linker_4, # of connection points: 2
#     Edge 4, Type (0, 1), BuildingBlock: EYOCIG_clean_linker_4, # of connection points: 2
#     Edge 5, Type (0, 1), BuildingBlock: EYOCIG_clean_linker_4, # of connection points: 2
#     Edge 6, Type (0, 1), BuildingBlock: EYOCIG_clean_linker_4, # of connection points: 2
#     Edge 7, Type (0, 1), BuildingBlock: EYOCIG_clean_linker_4, # of connection points: 2
#     Edge 8, Type (0, 1), BuildingBlock: EYOCIG_clean_linker_4, # of connection points: 2
#     Edge 9, Type (0, 1), BuildingBlock: EYOCIG_clean_linker_4, # of connection points: 2
#     Edge 10, Type (0, 1), BuildingBlock: EYOCIG_clean_linker_4, # of connection points: 2
# Relax obj value: 0.013
# Max RMSD: 0.059
# Mean RMSD: 0.052
data_MOF--net-scu--node1-VETTIZ_charged_sbu_0--node2-NAWXER_clean_sbu_0--edge1-EYOCIG_clean_linker_4
_symmetry_space_group_name_H-M    P1
_symmetry_Int_Tables_number       1
_symmetry_cell_setting            triclinic
loop_
_symmetry_equiv_pos_as_xyz
'x, y, z'
_cell_length_a     20.732109
_cell_length_b     20.757702
_cell_length_c     16.197619
_cell_angle_alpha  89.985871
_cell_angle_beta   90.000101
_cell_angle_gamma 90.261732
loop_
_atom_site_label
_atom_site_type_symbol
_atom_site_fract_x
_atom_site_fract_y
_atom_site_fract_z
_atom_type_partial_charge
Fe0 Fe 0.99345 -0.00416 0.16479 0.0
O1 O 0.96952 0.02005 0.04087 0.0
Fe2 Fe 0.08838 0.90236 -0.00477 0.0
Fe3 Fe 0.90222 0.08687 0.98972 0.0
O4 O 0.01984 0.96983 0.04244 0.0
O5 O 0.02112 0.96923 0.94389 0.0
O6 O 0.97059 0.01927 0.9423 0.0
Fe7 Fe -0.00302 0.99331 0.81994 0.0
C8 C 0.84456 0.00737 0.13854 0.0
O9 O -0.00238 0.09373 0.17494 0.0
O10 O 0.94728 0.14617 0.07315 0.0
O11 O 0.0951 -0.00168 0.81026 0.0
O12 O 0.14752 0.94779 0.91202 0.0
O13 O 0.14598 0.94858 0.07972 0.0
O14 O 0.0913 0.00304 0.17596 0.0
O15 O 0.94784 0.14495 0.90547 0.0
O16 O 0.00284 0.09126 0.80876 0.0
C17 C 0.14319 0.98375 0.14349 0.0
O18 O 0.99188 0.89553 0.81022 0.0
O19 O 0.04347 0.84316 0.91118 0.0
O20 O 0.89567 0.98933 0.17398 0.0
O21 O 0.84321 0.04092 0.07319 0.0
C22 C 0.97954 0.1448 0.13949 0.0
C23 C 0.98274 0.14277 0.84141 0.0
C24 C 0.84697 0.00672 0.84133 0.0
O25 O 0.84445 0.04104 0.90575 0.0
O26 O 0.89877 0.98747 0.80837 0.0
C27 C 0.14621 0.98022 0.84585 0.0
O28 O 0.04267 0.84414 0.07887 0.0
O29 O 0.98847 0.89781 0.17618 0.0
C30 C 0.01058 0.84451 0.84525 0.0
C31 C 0.00812 0.84629 0.14315 0.0
C32 C -0.0036 0.58545 0.60237 0.0
C33 C 0.99505 0.4044 0.38098 0.0
O34 O 0.04989 0.56372 0.5766 0.0
Zn35 Zn 0.06614 0.49497 0.49171 0.0
O36 O 0.94306 0.56304 0.57654 0.0
Zn37 Zn 0.92415 0.49438 0.49222 0.0
O38 O 0.94047 0.42622 0.57793 0.0
O39 O 0.04729 0.42707 0.57719 0.0
O40 O 0.9417 0.42593 0.40742 0.0
O41 O 0.04854 0.42667 0.40656 0.0
O42 O 0.04837 0.56277 0.40587 0.0
O43 O 0.94154 0.56173 0.4058 0.0
C44 C 0.99409 0.40486 0.60378 0.0
C45 C 0.99483 0.58382 0.37933 0.0
C46 C 0.58469 0.99401 0.60456 0.0
C47 C 0.40518 -0.00238 0.38058 0.0
O48 O 0.56145 0.94135 0.57772 0.0
Zn49 Zn 0.4932 0.92398 0.49173 0.0
O50 O 0.5649 0.048 0.5782 0.0
Zn51 Zn 0.49768 0.06553 0.49205 0.0
O52 O 0.42918 0.04798 0.57766 0.0
O53 O 0.42542 0.94133 0.57724 0.0
O54 O 0.42903 0.05013 0.40688 0.0
O55 O 0.42507 0.9435 0.40652 0.0
O56 O 0.56169 0.93973 0.40643 0.0
O57 O 0.56595 0.04634 0.40684 0.0
C58 C 0.40559 -0.00476 0.6038 0.0
C59 C 0.58566 0.99228 0.38048 0.0
C60 C 0.99349 0.25216 0.2249 0.0
C61 C 0.98657 0.20378 0.18473 0.0
C62 C -0.00468 0.30641 0.27732 0.0
C63 C 0.99505 0.35116 0.32466 0.0
C64 C 0.73702 0.98947 0.2227 0.0
C65 C 0.78537 -0.00171 0.18292 0.0
C66 C 0.68296 0.98791 0.2756 0.0
C67 C 0.63853 0.99006 0.32349 0.0
C68 C 0.99341 0.73786 0.22626 0.0
C69 C -0.00012 0.7876 0.18875 0.0
C70 C 0.99295 0.68203 0.27597 0.0
C71 C 0.99428 0.63718 0.32317 0.0
C72 C 0.25066 0.00149 0.22799 0.0
C73 C 0.20152 0.99346 0.18954 0.0
C74 C 0.30619 0.00231 0.27838 0.0
C75 C 0.35139 -4e-05 0.32505 0.0
C76 C -0.00329 0.73776 0.75852 0.0
C77 C 0.0037 0.78574 0.79948 0.0
C78 C 0.99519 0.68381 0.70552 0.0
C79 C -0.00404 0.63889 0.65842 0.0
C80 C 0.25427 -0.00509 0.76168 0.0
C81 C 0.20551 0.98769 0.80119 0.0
C82 C 0.30861 -0.00289 0.70927 0.0
C83 C 0.35292 -0.00326 0.66111 0.0
C84 C -0.00343 0.25053 0.75657 0.0
C85 C 0.99043 0.20116 0.795 0.0
C86 C -0.00343 0.30608 0.70631 0.0
C87 C 0.99489 0.35118 0.6595 0.0
C88 C 0.73845 0.99114 0.75834 0.0
C89 C 0.78824 -0.00201 0.79577 0.0
C90 C 0.6826 0.99052 0.70853 0.0
C91 C 0.63789 0.9922 0.66105 0.0
loop_
_geom_bond_atom_site_label_1
_geom_bond_atom_site_label_2
_geom_bond_distance
_geom_bond_site_symmetry_2
_ccdc_geom_bond_type
Fe0 O1 1.895 . S
Fe0 O4 1.705 1_645 S
Fe0 O9 2.077 1_655 S
Fe0 O14 1.917 1_655 S
Fe0 O20 2.095 1_545 S
Fe0 O29 1.938 1_545 S
O1 Fe0 1.895 . S
O1 Fe3 1.715 1_554 S
Fe2 O4 1.886 . S
Fe2 O5 1.715 1_554 S
Fe2 O12 1.935 1_554 S
Fe2 O13 2.077 . S
Fe2 O19 1.935 1_554 S
Fe2 O28 2.077 . S
Fe3 O1 1.715 1_556 S
Fe3 O6 1.886 . S
Fe3 O10 1.935 1_556 S
Fe3 O15 2.077 . S
Fe3 O21 1.935 1_556 S
Fe3 O25 2.077 . S
O4 Fe0 1.705 1_465 S
O4 Fe2 1.886 . S
O5 Fe2 1.715 1_556 S
O5 Fe7 1.895 . S
O6 Fe3 1.886 . S
O6 Fe7 1.705 1_645 S
Fe7 O5 1.895 . S
Fe7 O6 1.705 1_465 S
Fe7 O11 2.077 1_565 S
Fe7 O16 1.917 1_565 S
Fe7 O18 2.095 1_455 S
Fe7 O26 1.938 1_455 S
C8 O20 1.381 1_545 S
C8 O21 1.421 . S
O9 Fe0 2.077 1_455 S
O9 C22 1.381 1_455 S
O10 Fe3 1.935 1_554 S
O10 C22 1.421 . S
O11 Fe7 2.077 1_545 S
O11 C27 1.381 1_545 S
O12 Fe2 1.935 1_556 S
O12 C27 1.421 . S
O13 Fe2 2.077 . S
O13 C17 1.381 . S
O14 Fe0 1.917 1_455 S
O14 C17 1.421 1_545 S
O15 Fe3 2.077 . S
O15 C23 1.381 . S
O16 Fe7 1.917 1_545 S
O16 C23 1.421 1_455 S
C17 O13 1.381 . S
C17 O14 1.421 1_565 S
O18 Fe7 2.095 1_655 S
O18 C30 1.381 1_655 S
O19 Fe2 1.935 1_556 S
O19 C30 1.421 . S
O20 Fe0 2.095 1_565 S
O20 C8 1.381 1_565 S
O21 Fe3 1.935 1_554 S
O21 C8 1.421 . S
C22 O9 1.381 1_655 S
C22 O10 1.421 . S
C23 O15 1.381 . S
C23 O16 1.421 1_655 S
C24 O25 1.381 . S
C24 O26 1.421 1_545 S
O25 Fe3 2.077 . S
O25 C24 1.381 . S
O26 Fe7 1.938 1_655 S
O26 C24 1.421 1_565 S
C27 O11 1.381 1_565 S
C27 O12 1.421 . S
O28 Fe2 2.077 . S
O28 C31 1.381 . S
O29 Fe0 1.938 1_565 S
O29 C31 1.421 1_655 S
C30 O18 1.381 1_455 S
C30 O19 1.421 . S
C31 O28 1.381 . S
C31 O29 1.421 1_455 S
C32 O34 1.251 . S
C32 O36 1.254 1_455 S
C33 O40 1.247 . S
C33 O41 1.258 1_655 S
O34 C32 1.251 . S
O34 Zn35 2.028 . S
Zn35 O34 2.028 . S
Zn35 O39 2.035 . S
Zn35 O41 2.035 . S
Zn35 O42 2.028 . S
O36 C32 1.254 1_655 S
O36 Zn37 2.035 . S
Zn37 O36 2.035 . S
Zn37 O38 2.028 . S
Zn37 O40 2.028 . S
Zn37 O43 2.035 . S
O38 Zn37 2.028 . S
O38 C44 1.247 . S
O39 Zn35 2.035 . S
O39 C44 1.258 1_455 S
O40 C33 1.247 . S
O40 Zn37 2.028 . S
O41 C33 1.258 1_455 S
O41 Zn35 2.035 . S
O42 Zn35 2.028 . S
O42 C45 1.251 . S
O43 Zn37 2.035 . S
O43 C45 1.254 1_655 S
C44 O38 1.247 . S
C44 O39 1.258 1_655 S
C45 O42 1.251 . S
C45 O43 1.254 1_455 S
C46 O48 1.247 . S
C46 O50 1.258 1_565 S
C47 O54 1.251 . S
C47 O55 1.254 1_545 S
O48 C46 1.247 . S
O48 Zn49 2.028 . S
Zn49 O48 2.028 . S
Zn49 O53 2.035 . S
Zn49 O55 2.035 . S
Zn49 O56 2.028 . S
O50 C46 1.258 1_545 S
O50 Zn51 2.035 . S
Zn51 O50 2.035 . S
Zn51 O52 2.028 . S
Zn51 O54 2.028 . S
Zn51 O57 2.035 . S
O52 Zn51 2.028 . S
O52 C58 1.251 . S
O53 Zn49 2.035 . S
O53 C58 1.254 1_565 S
O54 C47 1.251 . S
O54 Zn51 2.028 . S
O55 C47 1.254 1_565 S
O55 Zn49 2.035 . S
O56 Zn49 2.028 . S
O56 C59 1.247 . S
O57 Zn51 2.035 . S
O57 C59 1.258 1_545 S
C58 O52 1.251 . S
C58 O53 1.254 1_545 S
C59 O56 1.247 . S
C59 O57 1.258 1_565 S
C60 C61 1.170 . S
C60 C62 1.380 . S
C61 C60 1.170 . S
C62 C60 1.380 . S
C62 C63 1.170 . S
C63 C62 1.170 . S
C64 C65 1.170 . S
C64 C66 1.380 . S
C65 C64 1.170 . S
C66 C64 1.380 . S
C66 C67 1.170 . S
C67 C66 1.170 . S
C68 C69 1.170 . S
C68 C70 1.380 . S
C69 C68 1.170 . S
C70 C68 1.380 . S
C70 C71 1.170 . S
C71 C70 1.170 . S
C72 C73 1.170 . S
C72 C74 1.380 . S
C73 C72 1.170 . S
C74 C72 1.380 . S
C74 C75 1.170 . S
C75 C74 1.170 . S
C76 C77 1.170 . S
C76 C78 1.380 . S
C77 C76 1.170 . S
C78 C76 1.380 . S
C78 C79 1.170 . S
C79 C78 1.170 . S
C80 C81 1.170 . S
C80 C82 1.380 . S
C81 C80 1.170 . S
C82 C80 1.380 . S
C82 C83 1.170 . S
C83 C82 1.170 . S
C84 C85 1.170 . S
C84 C86 1.380 . S
C85 C84 1.170 . S
C86 C84 1.380 . S
C86 C87 1.170 . S
C87 C86 1.170 . S
C88 C89 1.170 . S
C88 C90 1.380 . S
C89 C88 1.170 . S
C90 C88 1.380 . S
C90 C91 1.170 . S
C91 C90 1.170 . S
C61 C22 1.396 . S
C63 C33 1.464 . S
C65 C8 1.435 1_565 S
C67 C59 1.464 . S
C69 C31 1.411 . S
C71 C45 1.464 . S
C73 C17 1.424 1_545 S
C75 C47 1.464 . S
C77 C30 1.398 . S
C79 C32 1.467 . S
C81 C27 1.407 . S
C83 C58 1.466 1_565 S
C87 C44 1.465 . S
C85 C23 1.411 . S
C89 C24 1.416 . S
C91 C46 1.466 1_545 S
