# Generated by pormake.
# Topology ftw, (4,12)-cn, num edge types: 1
# Building blocks:
#     Node 0, Type 0, BuildingBlock: ESEHIV_clean_sbu_0, # of connection points: 4
#     Node 1, Type 0, BuildingBlock: ESEHIV_clean_sbu_0, # of connection points: 4
#     Node 2, Type 0, BuildingBlock: ESEHIV_clean_sbu_0, # of connection points: 4
#     Node 3, Type 1, BuildingBlock: QEWDON_clean_sbu_0, # of connection points: 12
#     Edge 4, Type (0, 1), BuildingBlock: OJICUG_clean_linker_0, # of connection points: 2
#     Edge 5, Type (0, 1), BuildingBlock: OJICUG_clean_linker_0, # of connection points: 2
#     Edge 6, Type (0, 1), BuildingBlock: OJICUG_clean_linker_0, # of connection points: 2
#     Edge 7, Type (0, 1), BuildingBlock: OJICUG_clean_linker_0, # of connection points: 2
#     Edge 8, Type (0, 1), BuildingBlock: OJICUG_clean_linker_0, # of connection points: 2
#     Edge 9, Type (0, 1), BuildingBlock: OJICUG_clean_linker_0, # of connection points: 2
#     Edge 10, Type (0, 1), BuildingBlock: OJICUG_clean_linker_0, # of connection points: 2
#     Edge 11, Type (0, 1), BuildingBlock: OJICUG_clean_linker_0, # of connection points: 2
#     Edge 12, Type (0, 1), BuildingBlock: OJICUG_clean_linker_0, # of connection points: 2
#     Edge 13, Type (0, 1), BuildingBlock: OJICUG_clean_linker_0, # of connection points: 2
#     Edge 14, Type (0, 1), BuildingBlock: OJICUG_clean_linker_0, # of connection points: 2
#     Edge 15, Type (0, 1), BuildingBlock: OJICUG_clean_linker_0, # of connection points: 2
# Relax obj value: 0.061
# Max RMSD: 0.163
# Mean RMSD: 0.144
data_MOF--net-ftw--node1-ESEHIV_clean_sbu_0--node2-QEWDON_clean_sbu_0--edge1-OJICUG_clean_linker_0
_symmetry_space_group_name_H-M    P1
_symmetry_Int_Tables_number       1
_symmetry_cell_setting            triclinic
loop_
_symmetry_equiv_pos_as_xyz
'x, y, z'
_cell_length_a     20.167332
_cell_length_b     19.751016
_cell_length_c     17.778992
_cell_angle_alpha  86.415888
_cell_angle_beta   85.823215
_cell_angle_gamma 93.918355
loop_
_atom_site_label
_atom_site_type_symbol
_atom_site_fract_x
_atom_site_fract_y
_atom_site_fract_z
_atom_type_partial_charge
Cu0 Cu 0.00741 0.50009 0.55122 0.0
N1 N 0.03127 0.44154 0.4762 0.0
N2 N 0.04116 0.3614 0.39285 0.0
C3 C 0.00125 0.38645 0.44797 0.0
C4 C 0.09781 0.40249 0.38689 0.0
C5 C 0.09137 0.45148 0.43764 0.0
O6 O 0.05929 0.48421 0.63886 0.0
C7 C 0.97043 0.60201 0.45384 0.0
O8 O 0.92413 0.55323 0.44657 0.0
H9 H 0.95126 0.36595 0.46677 0.0
H10 H 0.12846 0.49174 0.44672 0.0
N11 N 0.92241 0.49059 0.60047 0.0
N12 N 0.88142 0.52519 0.7118 0.0
C13 C 0.90985 0.54388 0.6417 0.0
C14 C 0.89679 0.43561 0.6441 0.0
C15 C 0.87099 0.45672 0.71227 0.0
C16 C 0.07998 0.42546 0.65336 0.0
O17 O 0.09011 0.38602 0.59755 0.0
H18 H 0.93546 0.59334 0.62694 0.0
H19 H 0.90743 0.38393 0.63362 0.0
O20 O 0.01508 0.59098 0.49979 0.0
H21 H 0.14149 0.39736 0.34921 0.0
H22 H 0.85478 0.42314 0.76152 0.0
Cu23 Cu 0.52614 0.00991 0.45296 0.0
N24 N 0.58544 0.95245 0.49456 0.0
N25 N 0.65189 0.91141 0.57891 0.0
C26 C 0.60697 0.95705 0.56402 0.0
C27 C 0.65897 0.87668 0.51613 0.0
C28 C 0.61761 0.90195 0.46422 0.0
O29 O 0.57279 0.09469 0.41129 0.0
C30 C 0.42142 -0.00069 0.57156 0.0
O31 O 0.41301 0.93517 0.55642 0.0
H32 H 0.59081 -0.00577 0.6023 0.0
H33 H 0.61167 0.88488 0.40833 0.0
N34 N 0.47238 0.96979 0.38432 0.0
N35 N 0.38739 0.95959 0.31067 0.0
C36 C 0.42872 0.00277 0.34456 0.0
C37 C 0.45847 0.9033 0.37527 0.0
C38 C 0.40603 0.89684 0.32972 0.0
C39 C 0.62964 0.10986 0.376 0.0
O40 O 0.65113 0.17434 0.36751 0.0
H41 H 0.42457 0.05712 0.3447 0.0
H42 H 0.48226 0.86227 0.40311 0.0
O43 O 0.46724 0.03774 0.53446 0.0
H44 H 0.69103 0.83546 0.50863 0.0
H45 H 0.38231 0.84964 0.31371 0.0
Cu46 Cu 0.49037 0.47408 0.13262 0.0
N47 N 0.46493 0.55722 0.16263 0.0
N48 N 0.41775 0.6557 0.14927 0.0
C49 C 0.42766 0.59558 0.12034 0.0
C50 C 0.45129 0.65546 0.21248 0.0
C51 C 0.48107 0.5946 0.22016 0.0
O52 O 0.42589 0.44233 0.06515 0.0
C53 C 0.62805 0.49331 0.13113 0.0
O54 O 0.61426 0.47466 0.20296 0.0
H55 H 0.407 0.57846 0.06985 0.0
H56 H 0.51248 0.57907 0.26393 0.0
N57 N 0.48925 0.40627 0.20993 0.0
N58 N 0.53586 0.31435 0.25418 0.0
C59 C 0.51289 0.3467 0.19372 0.0
C60 C 0.49347 0.41067 0.28464 0.0
C61 C 0.52316 0.35405 0.31197 0.0
C62 C 0.36597 0.43849 0.09409 0.0
O63 O 0.35459 0.45604 0.16372 0.0
H64 H 0.52504 0.33414 0.1361 0.0
H65 H 0.48577 0.45599 0.31426 0.0
O66 O 0.5809 0.49172 0.08706 0.0
H67 H 0.4541 0.696 0.25058 0.0
H68 H 0.54283 0.34777 0.36684 0.0
Zn69 Zn 0.14015 0.1326 0.90733 0.0
Zn70 Zn 0.08835 0.14122 0.08198 0.0
O71 O 0.08166 0.08256 0.9941 0.0
H72 H 0.05266 0.04186 0.99196 0.0
C73 C -0.00607 0.26364 0.92828 0.0
O74 O 0.01591 0.20302 0.93922 0.0
Zn75 Zn 0.87059 0.83812 0.14257 0.0
Zn76 Zn 0.87622 0.8295 0.95888 0.0
O77 O 0.87786 0.89463 1.04315 0.0
H78 H 0.89283 0.94223 1.03527 0.0
Zn79 Zn 0.896 0.20478 0.05134 0.0
O80 O 0.89844 0.10295 1.03405 0.0
Zn81 Zn 0.85419 0.08033 0.13813 0.0
H82 H 0.93527 0.08121 1.01043 0.0
Zn83 Zn 0.06324 0.79328 1.0053 0.0
O84 O 0.03763 0.88484 1.04095 0.0
H85 H 0.01599 0.91883 1.01218 0.0
Zn86 Zn 0.10031 0.90107 0.1219 0.0
C87 C 0.97702 0.67999 0.94884 0.0
O88 O 0.98244 0.65166 1.01676 0.0
O89 O 0.18056 0.22502 0.93603 0.0
O90 O 0.12533 0.23675 0.04693 0.0
O91 O 0.84073 0.73397 0.99977 0.0
O92 O 0.83761 0.74086 0.12468 0.0
O93 O 0.81141 0.2261 0.11861 0.0
O94 O 0.76614 0.12107 0.1485 0.0
C95 C 0.16137 0.04122 0.15674 0.0
O96 O 0.1601 0.77242 1.02745 0.0
O97 O 0.18566 0.85795 0.09896 0.0
O98 O 0.84065 0.85877 0.85552 0.0
C99 C 0.16647 0.26014 0.99192 0.0
O100 O 0.19812 0.08036 0.83137 0.0
C101 C 0.80545 0.94459 0.21209 0.0
O102 O 0.94294 0.27833 0.96894 0.0
C103 C 0.82809 0.70721 0.0667 0.0
O104 O 0.00626 0.73864 0.93071 0.0
C105 C 0.96597 0.15092 0.2007 0.0
O106 O 0.15705 0.10483 0.14632 0.0
O107 O 0.11695 0.00182 0.13114 0.0
C108 C 0.763 0.18534 0.14771 0.0
O109 O 0.80473 0.88002 0.21574 0.0
O110 O 0.84625 0.9786 0.16366 0.0
C111 C 0.00309 0.82843 0.23073 0.0
O112 O 0.90529 0.12946 0.21252 0.0
O113 O -0.00209 0.13446 0.14084 0.0
C114 C 0.20146 0.80581 0.06492 0.0
O115 O 0.06319 0.85231 0.2196 0.0
O116 O 0.96311 0.84423 0.18119 0.0
C117 C 0.77954 0.87083 0.85554 0.0
O118 O 0.74353 0.86831 0.92044 0.0
C119 C 0.24462 0.11597 0.79195 0.0
O120 O 0.25214 0.18148 0.80107 0.0
C121 C 0.97531 0.25468 0.37146 0.0
C122 C 0.02696 0.30433 0.34777 0.0
H123 H 0.91709 0.16635 0.34452 0.0
C124 C 0.06397 0.29777 0.2783 0.0
H125 H 0.94669 0.25677 0.42501 0.0
C126 C 0.04769 0.24486 0.23247 0.0
C127 C -0.00626 0.1977 0.25444 0.0
H128 H 0.10396 0.3349 0.25738 0.0
H129 H 0.07502 0.24318 0.17826 0.0
C130 C 0.9589 0.20221 0.32543 0.0
C131 C 0.74247 0.07175 0.34437 0.0
C132 C 0.67299 0.05906 0.34538 0.0
H133 H 0.83851 0.0433 0.30372 0.0
C134 C 0.64716 0.00428 0.30703 0.0
H135 H 0.76384 0.11374 0.37328 0.0
C136 C 0.6903 0.96446 0.26619 0.0
C137 C 0.75962 0.97979 0.26232 0.0
H138 H 0.59389 -0.00558 0.30535 0.0
H139 H 0.66945 0.924 0.23469 0.0
C140 C 0.78524 0.03224 0.30373 0.0
C141 C 0.02406 0.71671 0.40647 0.0
C142 C 0.97251 0.66575 0.40433 0.0
H143 H 0.07272 0.80907 0.35452 0.0
C144 C 0.92477 0.67429 0.35085 0.0
H145 H 0.06116 0.7123 0.44726 0.0
C146 C 0.93115 0.73019 0.29744 0.0
C147 C 0.98549 0.77855 0.29635 0.0
H148 H 0.88383 0.63629 0.34806 0.0
H149 H 0.89585 0.73331 0.25459 0.0
C150 C 0.03041 0.77238 0.35324 0.0
C151 C 0.33356 0.04056 0.22786 0.0
C152 C 0.33152 0.9774 0.26902 0.0
H153 H 0.28199 0.10938 0.16003 0.0
C154 C 0.27323 0.93357 0.27115 0.0
H155 H 0.37783 0.07519 0.22444 0.0
C156 C 0.21799 0.95295 0.2334 0.0
C157 C 0.21992 0.01667 0.19332 0.0
H158 H 0.26965 0.88512 0.30369 0.0
H159 H 0.17336 0.91907 0.23764 0.0
C160 C 0.27854 0.05997 0.19076 0.0
C161 C 0.89676 0.53447 0.84893 0.0
C162 C 0.88967 0.56556 0.77668 0.0
H163 H 0.93016 0.54583 0.95945 0.0
C164 C 0.90159 0.63691 0.76648 0.0
H165 H 0.8869 0.48025 0.86045 0.0
C166 C 0.92755 0.67452 0.82326 0.0
C167 C 0.94086 0.64212 0.89256 0.0
H168 H 0.89416 0.66351 0.71304 0.0
H169 H 0.9393 0.72869 0.8118 0.0
C170 C 0.9221 0.57225 0.90603 0.0
C171 C 0.32496 -0.01283 0.67085 0.0
C172 C 0.37669 0.02797 0.62942 0.0
H173 H 0.24251 -0.01723 0.75484 0.0
C174 C 0.38477 0.09736 0.64269 0.0
H175 H 0.31736 0.93353 0.66202 0.0
C176 C 0.34196 0.12547 0.6955 0.0
C177 C 0.28995 0.08498 0.73662 0.0
H178 H 0.42403 0.13036 0.61189 0.0
H179 H 0.34968 0.17921 0.70383 0.0
C180 C 0.28203 0.01539 0.72399 0.0
C181 C 0.02668 0.41763 0.78676 0.0
C182 C 0.07032 0.39255 0.73144 0.0
H183 H 0.9677 0.39643 0.89233 0.0
C184 C 0.09492 0.32857 0.7466 0.0
H185 H 0.007 0.46677 0.77709 0.0
C186 C 0.07251 0.28844 0.81232 0.0
C187 C 0.02451 0.31094 0.86463 0.0
H188 H 0.12889 0.30775 0.70557 0.0
H189 H 0.09043 0.23821 0.82003 0.0
C190 C 0.00368 0.37706 0.85248 0.0
C191 C 0.74927 0.87935 0.64686 0.0
C192 C 0.68463 0.90196 0.64787 0.0
H193 H 0.83053 0.85275 0.71148 0.0
C194 C 0.65228 0.91552 0.71745 0.0
H195 H 0.77568 0.86913 0.59405 0.0
C196 C 0.68345 0.90604 0.78457 0.0
C197 C 0.74804 0.88341 0.78371 0.0
H198 H 0.60223 0.93227 0.72023 0.0
H199 H 0.6567 0.91626 0.83723 0.0
C200 C 0.78084 0.87055 0.71404 0.0
C201 C 0.32263 0.37513 0.98805 0.0
C202 C 0.31057 0.40732 0.05533 0.0
H203 H 0.28476 0.3041 0.91308 0.0
C204 C 0.24554 0.40294 0.09052 0.0
H205 H 0.37196 0.37864 0.95897 0.0
C206 C 0.19555 0.3604 0.06436 0.0
C207 C 0.20974 0.32158 1.00247 0.0
H208 H 0.2342 0.42861 0.14148 0.0
H209 H 0.14746 0.35384 0.09634 0.0
C210 C 0.2724 0.33275 0.96154 0.0
C211 C 0.3507 0.7015 0.04914 0.0
C212 C 0.37273 0.70388 0.12256 0.0
H213 H 0.27834 0.73137 0.97333 0.0
C214 C 0.34401 0.74838 0.17185 0.0
H215 H 0.37315 0.6699 1.00833 0.0
C216 C 0.29099 0.7851 0.15055 0.0
C217 C 0.26524 0.77768 0.07993 0.0
H218 H 0.3593 0.75166 0.22862 0.0
H219 H 0.26696 0.81532 0.19165 0.0
C220 C 0.29673 0.73717 1.0285 0.0
C221 C 0.5842 0.2111 0.21243 0.0
C222 C 0.59167 0.27385 0.24495 0.0
H223 H 0.63337 0.13265 0.15705 0.0
C224 C 0.6559 0.30437 0.25026 0.0
H225 H 0.53487 0.18778 0.20636 0.0
C226 C 0.71156 0.27481 0.2195 0.0
C227 C 0.70407 0.21344 0.18422 0.0
H228 H 0.66256 0.35362 0.27334 0.0
H229 H 0.76039 0.30076 0.22187 0.0
C230 C 0.64022 0.18035 0.18343 0.0
C231 C 0.73463 0.5513 0.16379 0.0
C232 C 0.6918 0.53299 0.10814 0.0
H233 H 0.81202 0.62156 0.19426 0.0
C234 C 0.70492 0.56253 1.03425 0.0
H235 H 0.72685 0.52846 0.22103 0.0
C236 C 0.75482 0.61517 1.01866 0.0
C237 C 0.79134 0.63971 0.07711 0.0
H238 H 0.67355 0.54865 0.9899 0.0
H239 H 0.76051 0.64042 0.96245 0.0
C240 C 0.78354 0.60473 0.14861 0.0
loop_
_geom_bond_atom_site_label_1
_geom_bond_atom_site_label_2
_geom_bond_distance
_geom_bond_site_symmetry_2
_ccdc_geom_bond_type
Cu0 N1 1.999 . S
Cu0 O6 1.974 . S
Cu0 N11 1.985 . S
Cu0 O20 1.959 . S
N1 Cu0 1.999 . S
N1 C3 1.263 . S
N1 C5 1.389 . S
N2 C3 1.358 . S
N2 C4 1.400 . S
C3 N1 1.263 . S
C3 N2 1.358 . S
C3 H9 0.930 1_455 S
C4 N2 1.400 . S
C4 C5 1.351 . S
C4 H21 0.930 . S
C5 N1 1.389 . S
C5 C4 1.351 . S
C5 H10 0.930 . S
O6 Cu0 1.974 . S
O6 C16 1.282 1_455 S
C7 O8 1.261 . S
C7 O20 1.251 1_655 S
O8 C7 1.261 . S
H9 C3 0.930 1_655 S
H10 C5 0.930 . S
N11 Cu0 1.985 . S
N11 C13 1.335 . S
N11 C14 1.390 1_455 S
N12 C13 1.345 . S
N12 C15 1.336 1_455 S
C13 N11 1.335 . S
C13 N12 1.345 . S
C13 H18 0.930 . S
C14 N11 1.390 1_655 S
C14 C15 1.346 . S
C14 H19 0.930 . S
C15 N12 1.336 1_655 S
C15 C14 1.346 . S
C15 H22 0.929 . S
C16 O6 1.282 1_655 S
C16 O17 1.216 . S
O17 C16 1.216 . S
H18 C13 0.930 . S
H19 C14 0.930 . S
O20 Cu0 1.959 . S
O20 C7 1.251 1_455 S
H21 C4 0.930 . S
H22 C15 0.929 . S
Cu23 N24 1.999 . S
Cu23 O29 1.974 . S
Cu23 N34 1.985 . S
Cu23 O43 1.959 . S
N24 Cu23 1.999 . S
N24 C26 1.263 . S
N24 C28 1.389 . S
N25 C26 1.358 . S
N25 C27 1.400 . S
C26 N24 1.263 . S
C26 N25 1.358 . S
C26 H32 0.930 1_565 S
C27 N25 1.400 . S
C27 C28 1.351 . S
C27 H44 0.930 . S
C28 N24 1.389 . S
C28 C27 1.351 . S
C28 H33 0.930 . S
O29 Cu23 1.974 . S
O29 C39 1.282 1_565 S
C30 O31 1.261 . S
C30 O43 1.251 1_545 S
O31 C30 1.261 . S
H32 C26 0.930 1_545 S
H33 C28 0.930 . S
N34 Cu23 1.985 . S
N34 C36 1.335 . S
N34 C37 1.390 1_565 S
N35 C36 1.345 . S
N35 C38 1.336 1_565 S
C36 N34 1.335 . S
C36 N35 1.345 . S
C36 H41 0.930 . S
C37 N34 1.390 1_545 S
C37 C38 1.346 . S
C37 H42 0.930 . S
C38 N35 1.336 1_545 S
C38 C37 1.346 . S
C38 H45 0.929 . S
C39 O29 1.282 1_545 S
C39 O40 1.216 . S
O40 C39 1.216 . S
H41 C36 0.930 . S
H42 C37 0.930 . S
O43 Cu23 1.959 . S
O43 C30 1.251 1_565 S
H44 C27 0.930 . S
H45 C38 0.929 . S
Cu46 N47 1.999 . S
Cu46 O52 1.974 . S
Cu46 N57 1.985 . S
Cu46 O66 1.959 . S
N47 Cu46 1.999 . S
N47 C49 1.259 1_556 S
N47 C51 1.389 . S
N48 C49 1.356 1_556 S
N48 C50 1.400 . S
C49 N47 1.259 1_554 S
C49 N48 1.356 1_554 S
C49 H55 0.935 . S
C50 N48 1.400 . S
C50 C51 1.351 . S
C50 H67 0.930 . S
C51 N47 1.389 . S
C51 C50 1.351 . S
C51 H56 0.930 . S
O52 Cu46 1.974 . S
O52 C62 1.282 1_556 S
C53 O54 1.261 . S
C53 O66 1.251 1_554 S
O54 C53 1.261 . S
H55 C49 0.935 . S
H56 C51 0.930 . S
N57 Cu46 1.985 . S
N57 C59 1.335 . S
N57 C60 1.390 1_556 S
N58 C59 1.343 1_554 S
N58 C61 1.338 . S
C59 N57 1.335 . S
C59 N58 1.343 1_556 S
C59 H64 0.930 . S
C60 N57 1.390 1_554 S
C60 C61 1.346 . S
C60 H65 0.930 . S
C61 N58 1.338 . S
C61 C60 1.346 . S
C61 H68 0.929 . S
C62 O52 1.282 1_554 S
C62 O63 1.216 . S
O63 C62 1.216 . S
H64 C59 0.930 . S
H65 C60 0.930 . S
O66 Cu46 1.959 . S
O66 C53 1.251 1_556 S
H67 C50 0.930 . S
H68 C61 0.929 . S
Zn69 O71 1.933 1_556 S
Zn69 O89 1.985 . S
Zn69 O100 1.955 . S
Zn70 O71 1.911 . S
Zn70 O90 1.970 . S
Zn70 O106 1.945 . S
Zn70 O113 1.981 . S
O71 Zn69 1.933 1_554 S
O71 Zn70 1.911 . S
O71 H72 0.841 . S
H72 O71 0.841 . S
C73 O74 1.246 . S
C73 O102 1.276 1_455 S
O74 C73 1.246 . S
Zn75 O77 1.911 . S
Zn75 O92 1.970 . S
Zn75 O109 1.945 . S
Zn75 O116 1.981 . S
Zn76 O77 1.933 1_556 S
Zn76 O91 1.985 . S
Zn76 O98 1.955 . S
O77 Zn75 1.911 . S
O77 Zn76 1.933 1_554 S
O77 H78 0.841 . S
H78 O77 0.841 . S
Zn79 O80 1.933 1_556 S
Zn79 O93 1.985 . S
Zn79 O102 1.955 . S
O80 Zn79 1.933 1_554 S
O80 Zn81 1.911 . S
O80 H82 0.841 . S
Zn81 O80 1.911 . S
Zn81 O94 1.970 . S
Zn81 O110 1.981 . S
Zn81 O112 1.945 . S
H82 O80 0.841 . S
Zn83 O84 1.933 1_556 S
Zn83 O96 1.985 . S
Zn83 O104 1.955 . S
O84 Zn83 1.933 1_554 S
O84 H85 0.841 . S
O84 Zn86 1.911 . S
H85 O84 0.841 . S
Zn86 O84 1.911 . S
Zn86 O97 1.970 . S
Zn86 O107 1.981 . S
Zn86 O115 1.945 . S
C87 O88 1.246 . S
C87 O104 1.276 1_655 S
O88 C87 1.246 . S
O89 Zn69 1.985 . S
O89 C99 1.245 . S
O90 Zn70 1.970 . S
O90 C99 1.263 1_554 S
O91 Zn76 1.985 . S
O91 C103 1.245 1_556 S
O92 Zn75 1.970 . S
O92 C103 1.263 . S
O93 Zn79 1.985 . S
O93 C108 1.245 1_556 S
O94 Zn81 1.970 . S
O94 C108 1.263 . S
C95 O106 1.262 . S
C95 O107 1.245 1_545 S
O96 Zn83 1.985 . S
O96 C114 1.245 1_556 S
O97 Zn86 1.970 . S
O97 C114 1.263 . S
O98 Zn76 1.955 . S
O98 C117 1.276 1_565 S
C99 O89 1.245 . S
C99 O90 1.263 1_556 S
O100 Zn69 1.955 . S
O100 C119 1.276 . S
C101 O109 1.262 . S
C101 O110 1.245 1_565 S
O102 C73 1.276 1_655 S
O102 Zn79 1.955 . S
C103 O91 1.245 1_554 S
C103 O92 1.263 . S
O104 Zn83 1.955 . S
O104 C87 1.276 1_455 S
C105 O112 1.262 1_455 S
C105 O113 1.245 . S
O106 Zn70 1.945 . S
O106 C95 1.262 . S
O107 Zn86 1.981 . S
O107 C95 1.245 1_565 S
C108 O93 1.245 1_554 S
C108 O94 1.263 . S
O109 Zn75 1.945 . S
O109 C101 1.262 . S
O110 Zn81 1.981 . S
O110 C101 1.245 1_545 S
C111 O115 1.262 1_655 S
C111 O116 1.245 . S
O112 Zn81 1.945 . S
O112 C105 1.262 1_655 S
O113 Zn70 1.981 . S
O113 C105 1.245 . S
C114 O96 1.245 1_554 S
C114 O97 1.263 . S
O115 Zn86 1.945 . S
O115 C111 1.262 1_455 S
O116 Zn75 1.981 . S
O116 C111 1.245 . S
C117 O98 1.276 1_545 S
C117 O118 1.246 . S
O118 C117 1.246 . S
C119 O100 1.276 . S
C119 O120 1.246 1_545 S
O120 C119 1.246 1_565 S
C121 C122 1.387 1_655 S
C121 H125 0.950 . S
C121 C130 1.390 . S
C122 C121 1.387 1_455 S
C122 C124 1.387 . S
H123 C130 0.950 . S
C124 C122 1.387 . S
C124 C126 1.390 . S
C124 H128 0.950 . S
H125 C121 0.950 . S
C126 C124 1.390 . S
C126 C127 1.387 . S
C126 H129 0.950 . S
C127 C126 1.387 . S
C127 C130 1.387 1_455 S
H128 C124 0.950 . S
H129 C126 0.950 . S
C130 C121 1.390 . S
C130 H123 0.950 . S
C130 C127 1.387 1_655 S
C131 C132 1.387 . S
C131 H135 0.950 . S
C131 C140 1.390 . S
C132 C131 1.387 . S
C132 C134 1.387 1_545 S
H133 C140 0.950 . S
C134 C132 1.387 1_565 S
C134 C136 1.390 . S
C134 H138 0.950 . S
H135 C131 0.950 . S
C136 C134 1.390 . S
C136 C137 1.387 1_565 S
C136 H139 0.950 . S
C137 C136 1.387 1_545 S
C137 C140 1.387 . S
H138 C134 0.950 . S
H139 C136 0.950 . S
C140 C131 1.390 . S
C140 H133 0.950 . S
C140 C137 1.387 . S
C141 C142 1.387 1_455 S
C141 H145 0.950 . S
C141 C150 1.390 . S
C142 C141 1.387 1_655 S
C142 C144 1.387 . S
H143 C150 0.950 . S
C144 C142 1.387 . S
C144 C146 1.390 . S
C144 H148 0.950 . S
H145 C141 0.950 . S
C146 C144 1.390 . S
C146 C147 1.387 . S
C146 H149 0.950 . S
C147 C146 1.387 . S
C147 C150 1.387 1_655 S
H148 C144 0.950 . S
H149 C146 0.950 . S
C150 C141 1.390 . S
C150 H143 0.950 . S
C150 C147 1.387 1_455 S
C151 C152 1.387 1_545 S
C151 H155 0.950 . S
C151 C160 1.390 . S
C152 C151 1.387 1_565 S
C152 C154 1.387 . S
H153 C160 0.950 . S
C154 C152 1.387 . S
C154 C156 1.390 . S
C154 H158 0.950 . S
H155 C151 0.950 . S
C156 C154 1.390 . S
C156 C157 1.387 . S
C156 H159 0.950 . S
C157 C156 1.387 . S
C157 C160 1.387 1_565 S
H158 C154 0.950 . S
H159 C156 0.950 . S
C160 C151 1.390 . S
C160 H153 0.950 . S
C160 C157 1.387 1_545 S
C161 C162 1.387 . S
C161 H165 0.950 . S
C161 C170 1.390 . S
C162 C161 1.387 . S
C162 C164 1.387 1_455 S
H163 C170 0.950 . S
C164 C162 1.387 1_655 S
C164 C166 1.390 . S
C164 H168 0.950 . S
H165 C161 0.950 . S
C166 C164 1.390 . S
C166 C167 1.387 . S
C166 H169 0.950 . S
C167 C166 1.387 . S
C167 C170 1.387 1_655 S
H168 C164 0.950 . S
H169 C166 0.950 . S
C170 C161 1.390 . S
C170 H163 0.950 . S
C170 C167 1.387 1_455 S
C171 C172 1.387 . S
C171 H175 0.950 . S
C171 C180 1.390 . S
C172 C171 1.387 . S
C172 C174 1.387 1_545 S
H173 C180 0.950 . S
C174 C172 1.387 1_565 S
C174 C176 1.390 . S
C174 H178 0.950 . S
H175 C171 0.950 . S
C176 C174 1.390 . S
C176 C177 1.387 . S
C176 H179 0.950 . S
C177 C176 1.387 . S
C177 C180 1.387 1_565 S
H178 C174 0.950 . S
H179 C176 0.950 . S
C180 C171 1.390 . S
C180 H173 0.950 . S
C180 C177 1.387 1_545 S
C181 C182 1.387 . S
C181 H185 0.950 . S
C181 C190 1.390 . S
C182 C181 1.387 . S
C182 C184 1.387 1_655 S
H183 C190 0.950 . S
C184 C182 1.387 1_455 S
C184 C186 1.390 . S
C184 H188 0.950 . S
H185 C181 0.950 . S
C186 C184 1.390 . S
C186 C187 1.387 . S
C186 H189 0.950 . S
C187 C186 1.387 . S
C187 C190 1.387 1_455 S
H188 C184 0.950 . S
H189 C186 0.950 . S
C190 C181 1.390 . S
C190 H183 0.950 . S
C190 C187 1.387 1_655 S
C191 C192 1.387 . S
C191 H195 0.950 . S
C191 C200 1.390 . S
C192 C191 1.387 . S
C192 C194 1.387 1_565 S
H193 C200 0.950 . S
C194 C192 1.387 1_545 S
C194 C196 1.390 . S
C194 H198 0.950 . S
H195 C191 0.950 . S
C196 C194 1.390 . S
C196 C197 1.387 . S
C196 H199 0.950 . S
C197 C196 1.387 . S
C197 C200 1.387 1_545 S
H198 C194 0.950 . S
H199 C196 0.950 . S
C200 C191 1.390 . S
C200 H193 0.950 . S
C200 C197 1.387 1_565 S
C201 C202 1.387 1_556 S
C201 H205 0.950 . S
C201 C210 1.390 . S
C202 C201 1.387 1_554 S
C202 C204 1.387 . S
H203 C210 0.950 . S
C204 C202 1.387 . S
C204 C206 1.390 . S
C204 H208 0.950 . S
H205 C201 0.950 . S
C206 C204 1.390 . S
C206 C207 1.387 . S
C206 H209 0.950 . S
C207 C206 1.387 . S
C207 C210 1.387 1_554 S
H208 C204 0.950 . S
H209 C206 0.950 . S
C210 C201 1.390 . S
C210 H203 0.950 . S
C210 C207 1.387 1_556 S
C211 C212 1.387 . S
C211 H215 0.950 . S
C211 C220 1.390 . S
C212 C211 1.387 . S
C212 C214 1.387 1_556 S
H213 C220 0.950 . S
C214 C212 1.387 1_554 S
C214 C216 1.390 . S
C214 H218 0.950 . S
H215 C211 0.950 . S
C216 C214 1.390 . S
C216 C217 1.387 . S
C216 H219 0.950 . S
C217 C216 1.387 . S
C217 C220 1.387 1_554 S
H218 C214 0.950 . S
H219 C216 0.950 . S
C220 C211 1.390 . S
C220 H213 0.950 . S
C220 C217 1.387 1_556 S
C221 C222 1.387 . S
C221 H225 0.950 . S
C221 C230 1.390 . S
C222 C221 1.387 . S
C222 C224 1.387 1_556 S
H223 C230 0.950 . S
C224 C222 1.387 1_554 S
C224 C226 1.390 . S
C224 H228 0.950 . S
H225 C221 0.950 . S
C226 C224 1.390 . S
C226 C227 1.387 . S
C226 H229 0.950 . S
C227 C226 1.387 . S
C227 C230 1.387 1_554 S
H228 C224 0.950 . S
H229 C226 0.950 . S
C230 C221 1.390 . S
C230 H223 0.950 . S
C230 C227 1.387 1_556 S
C231 C232 1.387 . S
C231 H235 0.950 . S
C231 C240 1.390 . S
C232 C231 1.387 . S
C232 C234 1.387 1_554 S
H233 C240 0.950 . S
C234 C232 1.387 1_556 S
C234 C236 1.390 . S
C234 H238 0.950 . S
H235 C231 0.950 . S
C236 C234 1.390 . S
C236 C237 1.387 1_556 S
C236 H239 0.950 . S
C237 C236 1.387 1_554 S
C237 C240 1.387 . S
H238 C234 0.950 . S
H239 C236 0.950 . S
C240 C231 1.390 . S
C240 H233 0.950 . S
C240 C237 1.387 . S
C127 C105 1.371 . S
C122 N2 1.378 . S
C137 C101 1.722 1_545 S
C132 C39 1.784 . S
C147 C111 1.586 . S
C142 C7 1.678 . S
C157 C95 1.498 1_565 S
C152 N35 1.513 . S
C162 N12 1.454 . S
C167 C87 1.422 . S
C177 C119 1.802 1_565 S
C172 C30 1.933 . S
C182 C16 1.805 . S
C187 C73 1.645 . S
C192 N25 1.688 . S
C197 C117 1.578 . S
C202 C62 1.378 . S
C207 C99 1.328 1_554 S
C212 N48 1.110 . S
C217 C114 1.126 . S
C227 C108 1.116 . S
C222 N58 1.079 1_556 S
C237 C103 1.343 . S
C232 C53 1.387 . S
