# Generated by pormake.
# Topology pth, (4,4)-cn, num edge types: 1
# Building blocks:
#     Node 0, Type 0, BuildingBlock: TATPOV_clean_sbu_0, # of connection points: 4
#     Node 1, Type 0, BuildingBlock: TATPOV_clean_sbu_0, # of connection points: 4
#     Node 2, Type 0, BuildingBlock: TATPOV_clean_sbu_0, # of connection points: 4
#     Node 3, Type 1, BuildingBlock: MUDLON_clean_sbu_0, # of connection points: 4
#     Node 4, Type 1, BuildingBlock: MUDLON_clean_sbu_0, # of connection points: 4
#     Node 5, Type 1, BuildingBlock: MUDLON_clean_sbu_0, # of connection points: 4
#     Edge 6, Type (0, 1), None
#     Edge 7, Type (0, 1), None
#     Edge 8, Type (0, 1), None
#     Edge 9, Type (0, 1), None
#     Edge 10, Type (0, 1), None
#     Edge 11, Type (0, 1), None
#     Edge 12, Type (0, 1), None
#     Edge 13, Type (0, 1), None
#     Edge 14, Type (0, 1), None
#     Edge 15, Type (0, 1), None
#     Edge 16, Type (0, 1), None
#     Edge 17, Type (0, 1), None
# Relax obj value: 0.076
# Max RMSD: 0.187
# Mean RMSD: 0.119
data_MOF--net-pth--node1-TATPOV_clean_sbu_0--node2-MUDLON_clean_sbu_0--edge1-none
_symmetry_space_group_name_H-M    P1
_symmetry_Int_Tables_number       1
_symmetry_cell_setting            triclinic
loop_
_symmetry_equiv_pos_as_xyz
'x, y, z'
_cell_length_a     10.495004
_cell_length_b     10.223476
_cell_length_c     26.955644
_cell_angle_alpha  91.751246
_cell_angle_beta   92.782123
_cell_angle_gamma 119.6147
loop_
_atom_site_label
_atom_site_type_symbol
_atom_site_fract_x
_atom_site_fract_y
_atom_site_fract_z
_atom_type_partial_charge
Zn0 Zn 0.26844 0.0031 0.09173 0.0
Zn1 Zn 0.15806 0.17949 0.11267 0.0
O2 O 0.16561 0.06903 0.17447 0.0
O3 O 0.29517 0.9573 0.16254 0.0
O4 O 0.10553 0.32452 0.14484 0.0
O5 O 0.43863 0.15872 0.05749 0.0
O6 O 0.3429 0.30383 0.07347 0.0
C7 C 0.22383 0.9938 0.19083 0.0
C8 C 0.96717 0.9197 0.0455 0.0
O9 O 0.98288 0.04136 0.06533 0.0
O10 O 0.06632 0.88378 0.05278 0.0
C11 C 0.99043 0.26752 0.16887 0.0
O12 O 0.90471 0.12052 0.16666 0.0
C13 C 0.44045 0.28254 0.05395 0.0
Zn14 Zn 0.21228 0.09173 0.38489 0.0
Zn15 Zn 0.98155 0.02376 0.44358 0.0
O16 O 0.14929 0.03993 0.48925 0.0
O17 O 0.34566 0.11832 0.44682 0.0
O18 O 0.82164 0.97217 0.49061 0.0
O19 O 0.19508 0.27518 0.36441 0.0
O20 O 0.01422 0.21898 0.4132 0.0
C21 C 0.28489 0.08257 0.48745 0.0
C22 C 0.94299 0.7997 0.35922 0.0
O23 O 0.89253 0.84558 0.39335 0.0
O24 O 0.0766 0.87777 0.34953 0.0
C25 C 0.80672 0.89467 0.52825 0.0
O26 O 0.89654 0.84215 0.53736 0.0
C27 C 0.10219 0.30492 0.38251 0.0
Zn28 Zn 0.23527 0.95125 0.81468 0.0
Zn29 Zn 0.06823 0.06747 0.78531 0.0
O30 O 0.1703 0.04589 0.72409 0.0
O31 O 0.28524 0.92299 0.74586 0.0
O32 O 0.90819 0.1024 0.75482 0.0
O33 O 0.08221 0.77695 0.84884 0.0
O34 O 0.9512 0.88408 0.82804 0.0
C35 C 0.24756 0.98571 0.71315 0.0
C36 C 0.32142 0.26659 0.85368 0.0
O37 O 0.20872 0.25507 0.82964 0.0
O38 O 0.34921 0.15891 0.85163 0.0
C39 C 0.91523 0.1807 0.71811 0.0
O40 O 0.04026 0.25851 0.69765 0.0
C41 C 0.96445 0.78172 0.8499 0.0
Mg42 Mg 0.09553 0.62963 0.28242 0.0
C43 C 0.08198 0.42693 0.36291 0.0
O44 O 0.95571 0.42223 0.36709 0.0
C45 C 0.17452 0.91605 0.23667 0.0
O46 O 0.03872 0.87204 0.24689 0.0
C47 C 0.97189 0.36082 0.20696 0.0
O48 O 0.8707 0.29753 0.23877 0.0
O49 O 0.07099 0.49753 0.21497 0.0
O50 O 0.17295 0.51924 0.33428 0.0
O51 O 0.88006 0.59213 0.29928 0.0
C52 C 0.83932 0.66057 0.32928 0.0
O53 O 0.69784 0.6047 0.33346 0.0
O54 O 0.23852 0.84894 0.25524 0.0
Mg55 Mg 0.56652 0.06642 0.60406 0.0
C56 C 0.36107 0.06121 0.5304 0.0
O57 O 0.29798 0.92973 0.55004 0.0
C58 C 0.77681 0.15427 0.69258 0.0
O59 O 0.65301 0.05385 0.70961 0.0
C60 C 0.31591 0.0134 0.66566 0.0
O61 O 0.32413 0.1243 0.64013 0.0
O62 O 0.396 0.95624 0.65552 0.0
O63 O 0.48806 0.16255 0.54803 0.0
O64 O 0.61579 0.93009 0.55475 0.0
C65 C 0.71332 0.8956 0.56671 0.0
O66 O 0.75798 0.90577 0.61373 0.0
O67 O 0.77437 0.19908 0.64911 0.0
Mg68 Mg 0.59113 0.65338 0.94808 0.0
C69 C 0.42489 0.40228 0.88456 0.0
O70 O 0.54394 0.40636 0.90398 0.0
C71 C 0.8361 0.81647 0.01353 0.0
O72 O 0.82565 0.68904 0.99737 0.0
C73 C 0.54162 0.39292 0.02114 0.0
O74 O 0.6428 0.37302 1.00106 0.0
O75 O 0.51233 0.49175 1.00576 0.0
O76 O 0.40328 0.51192 0.89544 0.0
O77 O 0.75575 0.719 0.89345 0.0
C78 C 0.8507 0.68305 0.88196 0.0
O79 O 0.86207 0.57752 0.90499 0.0
O80 O 0.73557 0.84583 0.99919 0.0
loop_
_geom_bond_atom_site_label_1
_geom_bond_atom_site_label_2
_geom_bond_distance
_geom_bond_site_symmetry_2
_ccdc_geom_bond_type
Zn0 O3 2.031 . S
Zn0 O5 2.049 1_565 S
Zn0 O10 2.067 . S
Zn1 O2 1.962 . S
Zn1 O4 1.986 . S
Zn1 O6 1.996 . S
Zn1 O9 1.943 1_455 S
O2 Zn1 1.962 . S
O2 C7 1.254 1_545 S
O3 Zn0 2.031 . S
O3 C7 1.269 . S
O4 Zn1 1.986 . S
O4 C11 1.262 . S
O5 Zn0 2.049 1_545 S
O5 C13 1.260 . S
O6 Zn1 1.996 . S
O6 C13 1.257 . S
C7 O2 1.254 1_565 S
C7 O3 1.269 . S
C8 O9 1.249 1_565 S
C8 O10 1.270 1_655 S
O9 Zn1 1.943 1_655 S
O9 C8 1.249 1_545 S
O10 Zn0 2.067 . S
O10 C8 1.270 1_455 S
C11 O4 1.262 . S
C11 O12 1.232 1_455 S
O12 C11 1.232 1_655 S
C13 O5 1.260 . S
C13 O6 1.257 . S
Zn14 O17 2.031 . S
Zn14 O19 2.049 . S
Zn14 O24 2.067 . S
Zn15 O16 1.962 . S
Zn15 O18 1.986 1_455 S
Zn15 O20 1.996 . S
Zn15 O23 1.943 1_445 S
O16 Zn15 1.962 . S
O16 C21 1.254 . S
O17 Zn14 2.031 . S
O17 C21 1.269 . S
O18 Zn15 1.986 1_655 S
O18 C25 1.262 . S
O19 Zn14 2.049 . S
O19 C27 1.260 . S
O20 Zn15 1.996 . S
O20 C27 1.257 . S
C21 O16 1.254 . S
C21 O17 1.269 . S
C22 O23 1.249 1_455 S
C22 O24 1.270 1_565 S
O23 Zn15 1.943 1_665 S
O23 C22 1.249 1_655 S
O24 Zn14 2.067 . S
O24 C22 1.270 1_545 S
C25 O18 1.262 . S
C25 O26 1.232 1_545 S
O26 C25 1.232 1_565 S
C27 O19 1.260 . S
C27 O20 1.257 . S
Zn28 O31 2.031 1_565 S
Zn28 O33 2.049 . S
Zn28 O38 2.067 1_565 S
Zn29 O30 1.962 1_545 S
Zn29 O32 1.986 1_445 S
Zn29 O34 1.996 1_445 S
Zn29 O37 1.943 . S
O30 Zn29 1.962 1_565 S
O30 C35 1.254 . S
O31 Zn28 2.031 1_545 S
O31 C35 1.269 1_545 S
O32 Zn29 1.986 1_665 S
O32 C39 1.262 1_565 S
O33 Zn28 2.049 . S
O33 C41 1.260 1_455 S
O34 Zn29 1.996 1_665 S
O34 C41 1.257 . S
C35 O30 1.254 . S
C35 O31 1.269 1_565 S
C36 O37 1.249 . S
C36 O38 1.270 . S
O37 Zn29 1.943 . S
O37 C36 1.249 . S
O38 Zn28 2.067 1_545 S
O38 C36 1.270 . S
C39 O32 1.262 1_545 S
C39 O40 1.232 . S
O40 C39 1.232 . S
C41 O33 1.260 1_655 S
C41 O34 1.257 . S
Mg42 O49 2.141 . S
Mg42 O50 2.048 . S
Mg42 O51 2.048 . S
Mg42 O54 2.141 . S
C43 O44 1.313 1_455 S
C43 O50 1.195 . S
O44 C43 1.313 1_655 S
C45 O46 1.245 1_455 S
C45 O54 1.289 . S
O46 C45 1.245 1_655 S
C47 O48 1.245 1_455 S
C47 O49 1.289 . S
O48 C47 1.245 1_655 S
O49 Mg42 2.141 . S
O49 C47 1.289 . S
O50 Mg42 2.048 . S
O50 C43 1.195 . S
O51 Mg42 2.048 . S
O51 C52 1.195 . S
C52 O51 1.195 . S
C52 O53 1.313 1_455 S
O53 C52 1.313 1_655 S
O54 Mg42 2.141 . S
O54 C45 1.289 . S
Mg55 O62 2.141 . S
Mg55 O63 2.048 . S
Mg55 O64 2.048 . S
Mg55 O67 2.141 . S
C56 O57 1.313 1_545 S
C56 O63 1.195 . S
O57 C56 1.313 1_565 S
C58 O59 1.245 1_545 S
C58 O67 1.289 . S
O59 C58 1.245 1_565 S
C60 O61 1.245 1_545 S
C60 O62 1.289 . S
O61 C60 1.245 1_565 S
O62 Mg55 2.141 . S
O62 C60 1.289 . S
O63 Mg55 2.048 . S
O63 C56 1.195 . S
O64 Mg55 2.048 . S
O64 C65 1.195 . S
C65 O64 1.195 . S
C65 O66 1.313 1_545 S
O66 C65 1.313 1_565 S
O67 Mg55 2.141 . S
O67 C58 1.289 . S
Mg68 O75 2.141 . S
Mg68 O76 2.048 . S
Mg68 O77 2.048 . S
Mg68 O80 2.149 . S
C69 O70 1.313 . S
C69 O76 1.195 . S
O70 C69 1.313 . S
C71 O72 1.245 . S
C71 O80 1.285 1_554 S
O72 C71 1.245 . S
C73 O74 1.245 . S
C73 O75 1.289 1_554 S
O74 C73 1.245 . S
O75 Mg68 2.141 . S
O75 C73 1.289 1_556 S
O76 Mg68 2.048 . S
O76 C69 1.195 . S
O77 Mg68 2.048 . S
O77 C78 1.195 . S
C78 O77 1.195 . S
C78 O79 1.313 . S
O79 C78 1.313 . S
O80 Mg68 2.149 . S
O80 C71 1.285 1_556 S
C47 C11 1.229 . S
C25 C65 1.459 . S
C41 C78 1.483 . S
C7 C45 1.550 . S
C56 C21 1.662 . S
C36 C69 1.535 . S
C58 C39 1.417 . S
C8 C71 1.409 . S
C52 C22 1.536 . S
C60 C35 1.493 1_545 S
C73 C13 1.320 . S
C27 C43 1.774 . S
