# Generated by pormake.
# Topology pts, (4,4)-cn, num edge types: 1
# Building blocks:
#     Node 0, Type 0, BuildingBlock: NAWXER_clean_sbu_0, # of connection points: 4
#     Node 1, Type 0, BuildingBlock: NAWXER_clean_sbu_0, # of connection points: 4
#     Node 2, Type 1, BuildingBlock: AZAVOO_clean_sbu_0, # of connection points: 4
#     Node 3, Type 1, BuildingBlock: AZAVOO_clean_sbu_0, # of connection points: 4
#     Edge 4, Type (0, 1), BuildingBlock: KIFKEQ_clean_linker_1, # of connection points: 2
#     Edge 5, Type (0, 1), BuildingBlock: KIFKEQ_clean_linker_1, # of connection points: 2
#     Edge 6, Type (0, 1), BuildingBlock: KIFKEQ_clean_linker_1, # of connection points: 2
#     Edge 7, Type (0, 1), BuildingBlock: KIFKEQ_clean_linker_1, # of connection points: 2
#     Edge 8, Type (0, 1), BuildingBlock: KIFKEQ_clean_linker_1, # of connection points: 2
#     Edge 9, Type (0, 1), BuildingBlock: KIFKEQ_clean_linker_1, # of connection points: 2
#     Edge 10, Type (0, 1), BuildingBlock: KIFKEQ_clean_linker_1, # of connection points: 2
#     Edge 11, Type (0, 1), BuildingBlock: KIFKEQ_clean_linker_1, # of connection points: 2
# Relax obj value: 0.010
# Max RMSD: 0.058
# Mean RMSD: 0.046
data_MOF--net-pts--node1-NAWXER_clean_sbu_0--node2-AZAVOO_clean_sbu_0--edge1-KIFKEQ_clean_linker_1
_symmetry_space_group_name_H-M    P1
_symmetry_Int_Tables_number       1
_symmetry_cell_setting            triclinic
loop_
_symmetry_equiv_pos_as_xyz
'x, y, z'
_cell_length_a     23.016117
_cell_length_b     24.228178
_cell_length_c     38.032909
_cell_angle_alpha  90.002526
_cell_angle_beta   96.14082
_cell_angle_gamma 90.177838
loop_
_atom_site_label
_atom_site_type_symbol
_atom_site_fract_x
_atom_site_fract_y
_atom_site_fract_z
_atom_type_partial_charge
C0 C 0.47865 0.07287 0.96761 0.0
C1 C 0.64402 0.06735 0.06055 0.0
O2 O 0.49545 0.02446 0.97745 0.0
Zn3 Zn 0.56057 0.98493 0.01206 0.0
O4 O 0.5069 0.11499 0.98023 0.0
Zn5 Zn 0.56376 0.07447 0.01258 0.0
O6 O 0.61666 0.03674 0.9772 0.0
O7 O 0.60811 0.94631 0.98014 0.0
O8 O 0.62279 0.11112 0.04578 0.0
O9 O 0.62399 0.02018 0.04997 0.0
O10 O 0.51139 0.9462 0.04269 0.0
O11 O 0.50787 0.03702 0.04752 0.0
C12 C 0.63054 0.98866 0.96702 0.0
C13 C 0.49121 0.989 0.0566 0.0
C14 C 0.02228 0.58542 0.46535 0.0
C15 C 0.01821 0.44406 0.55623 0.0
O16 O 0.97738 0.56479 0.47718 0.0
Zn17 Zn 0.01876 0.51448 0.51046 0.0
O18 O 0.07342 0.57005 0.4783 0.0
Zn19 Zn 0.11217 0.5143 0.51782 0.0
O20 O 0.15576 0.46454 0.49049 0.0
O21 O 0.06022 0.46053 0.47624 0.0
O22 O 0.07011 0.45943 0.55135 0.0
O23 O 0.97461 0.46401 0.53713 0.0
O24 O 0.05809 0.56913 0.55061 0.0
O25 O 0.15407 0.56366 0.55169 0.0
C26 C 0.11194 0.44523 0.47114 0.0
C27 C 0.10938 0.58408 0.56374 0.0
Mg28 Mg 0.10677 0.99286 0.28541 0.0
O29 O 0.01939 0.01357 0.25182 0.0
O30 O 0.95103 0.01365 0.28945 0.0
Mg31 Mg 0.99185 -0.0047 0.34534 0.0
C32 C 0.96633 0.01956 0.25837 0.0
C33 C 0.20195 0.97621 0.23879 0.0
O34 O 0.20808 0.93795 0.26339 0.0
O35 O 0.11191 0.0817 0.3068 0.0
O36 O 0.0418 0.0766 0.34323 0.0
O37 O 0.09005 0.90199 0.27957 0.0
O38 O 0.06232 0.95234 0.32295 0.0
C39 C 0.08157 0.10338 0.32946 0.0
C40 C 0.06366 0.90496 0.30787 0.0
O41 O 0.16088 0.01114 0.23968 0.0
Mg42 Mg 0.02007 0.98984 0.74077 0.0
O43 O 0.10434 0.01335 0.77643 0.0
O44 O 0.17682 0.01633 0.74167 0.0
Mg45 Mg 0.14115 0.99409 0.68522 0.0
C46 C 0.15792 0.02194 0.77183 0.0
C47 C 0.9209 0.97297 0.78531 0.0
O48 O 0.91599 0.93375 0.7613 0.0
O49 O 0.01506 0.07812 0.7184 0.0
O50 O 0.0886 0.07393 0.68442 0.0
O51 O 0.03811 0.89955 0.74798 0.0
O52 O 0.06894 0.94977 0.70538 0.0
C53 C 0.04686 0.1 0.69652 0.0
C54 C 0.06697 0.90258 0.72066 0.0
O55 O 0.96202 0.00814 0.78461 0.0
H56 H 0.44347 0.07367 0.09061 0.0
H57 H 0.44016 0.89582 0.08154 0.0
H58 H 0.37205 0.06931 0.13297 0.0
H59 H 0.3672 0.89159 0.12384 0.0
H60 H 0.29208 0.90608 0.23121 0.0
H61 H 0.35973 0.90749 0.18634 0.0
H62 H 0.27013 0.04882 0.1374 0.0
H63 H 0.20278 0.04811 0.18294 0.0
C64 C 0.42733 0.03349 0.09752 0.0
C65 C 0.44777 0.985 0.08265 0.0
C66 C 0.38586 0.03112 0.12167 0.0
C67 C 0.36353 0.98019 0.13169 0.0
C68 C 0.38389 0.93152 0.1169 0.0
C69 C 0.42557 0.9339 0.0926 0.0
C70 C 0.28662 0.93751 0.21089 0.0
C71 C 0.24213 0.97725 0.21081 0.0
C72 C 0.32523 0.93797 0.18495 0.0
C73 C 0.32044 0.97819 0.15823 0.0
C74 C 0.27551 0.01763 0.15788 0.0
C75 C 0.23676 0.01716 0.18389 0.0
H76 H 0.08759 0.43016 0.61743 0.0
H77 H 0.93238 0.3653 0.55759 0.0
H78 H 0.08647 0.35414 0.65909 0.0
H79 H 0.93241 0.28738 0.59883 0.0
H80 H 0.94351 0.15839 0.6885 0.0
H81 H 0.92769 0.24946 0.6604 0.0
H82 H 0.11185 0.25952 0.6479 0.0
H83 H 0.12738 0.17047 0.67583 0.0
C84 C 0.05284 0.39979 0.61342 0.0
C85 C 1.01077 0.40285 0.58394 0.0
C86 C 0.05218 0.35626 0.63727 0.0
C87 C 1.01013 0.3141 0.63182 0.0
C88 C 0.9653 0.31931 0.60379 0.0
C89 C 0.96544 0.36365 0.58008 0.0
C90 C 0.98053 0.18086 0.68032 0.0
C91 C 0.03659 0.15729 0.68414 0.0
C92 C 0.97145 0.23263 0.66405 0.0
C93 C 0.01853 0.26178 0.65204 0.0
C94 C 0.07472 0.23879 0.65731 0.0
C95 C 0.08359 0.18735 0.67308 0.0
H96 H 0.66083 0.99245 0.11287 0.0
H97 H 0.73242 0.14399 0.07567 0.0
H98 H 0.7399 0.9875 0.16032 0.0
H99 H 0.81312 0.1386 0.1238 0.0
H100 H 0.97892 0.04678 0.18907 0.0
H101 H 0.90084 0.06682 0.14164 0.0
H102 H 0.77221 0.04551 0.21516 0.0
H103 H 0.84898 0.02562 0.2622 0.0
C104 C 0.69347 0.02496 0.11496 0.0
C105 C 0.69044 0.06866 0.09056 0.0
C106 C 0.73866 0.02216 0.14225 0.0
C107 C 0.78255 0.06266 0.14574 0.0
C108 C 0.77979 0.10676 0.12153 0.0
C109 C 0.73356 0.1101 0.09429 0.0
C110 C 0.93399 0.04668 0.19512 0.0
C111 C 0.92032 0.03389 0.22941 0.0
C112 C 0.88946 0.05867 0.16806 0.0
C113 C 0.8306 0.05753 0.17479 0.0
C114 C 0.81721 0.04631 0.2092 0.0
C115 C 0.86139 0.03481 0.23615 0.0
H116 H 0.0282 0.60957 0.60768 0.0
H117 H 0.20327 0.65079 0.58529 0.0
H118 H 0.03234 0.68205 0.65196 0.0
H119 H 0.20735 0.72415 0.63003 0.0
H120 H 0.12954 0.8968 0.66356 0.0
H121 H 0.15236 0.81429 0.63142 0.0
H122 H 0.08227 0.71292 0.71027 0.0
H123 H 0.05926 0.79568 0.74263 0.0
C124 C 0.06789 0.63382 0.6125 0.0
C125 C 0.11519 0.62493 0.59274 0.0
C126 C 0.07048 0.67498 0.6382 0.0
C127 C 0.12024 0.70866 0.64455 0.0
C128 C 0.16842 0.69878 0.62559 0.0
C129 C 0.16612 0.65685 0.60009 0.0
C130 C 0.12044 0.85699 0.67467 0.0
C131 C 0.09189 0.85289 0.70546 0.0
C132 C 0.1338 0.80961 0.65625 0.0
C133 C 0.11847 0.75723 0.66812 0.0
C134 C 0.09392 0.75289 0.70031 0.0
C135 C 0.08092 0.80028 0.71888 0.0
H136 H 0.38668 0.00323 0.96201 0.0
H137 H 0.45046 0.15191 0.91647 0.0
H138 H 0.30427 0.0007 0.91658 0.0
H139 H 0.3669 0.14939 0.87034 0.0
H140 H 0.26925 0.06055 0.76993 0.0
H141 H 0.34072 0.08406 0.81952 0.0
H142 H 0.21367 0.04798 0.89208 0.0
H143 H 0.14182 0.02392 0.84237 0.0
C144 C 0.38255 0.03591 0.94245 0.0
C145 C 0.4253 0.07749 0.94251 0.0
C146 C 0.33495 0.03469 0.91658 0.0
C147 C 0.32908 0.07473 0.88981 0.0
C148 C 0.37056 0.11778 0.89058 0.0
C149 C 0.4181 0.11945 0.91699 0.0
C150 C 0.25624 0.05791 0.79642 0.0
C151 C 0.19993 0.03949 0.80215 0.0
C152 C 0.29712 0.07209 0.82483 0.0
C153 C 0.28289 0.06786 0.8597 0.0
C154 C 0.22601 0.05129 0.86546 0.0
C155 C 0.18487 0.03748 0.83699 0.0
H156 H 0.04192 0.4327 0.40999 0.0
H157 H 0.19743 0.36695 0.46852 0.0
H158 H 0.04235 0.35784 0.36743 0.0
H159 H 0.19673 0.29021 0.42638 0.0
H160 H 0.18464 0.16262 0.33648 0.0
H161 H 0.20075 0.25373 0.36459 0.0
H162 H 0.01674 0.26288 0.37752 0.0
H163 H 1.00098 0.17366 0.34961 0.0
C164 C 0.07659 0.40239 0.41352 0.0
C165 C 0.11893 0.40484 0.4429 0.0
C166 C 0.07686 0.35953 0.38915 0.0
C167 C 0.11881 0.31745 0.39396 0.0
C168 C 0.16391 0.32211 0.42189 0.0
C169 C 0.16415 0.36577 0.44613 0.0
C170 C 0.1477 0.18497 0.34468 0.0
C171 C 0.09165 0.16107 0.34109 0.0
C172 C 0.15694 0.23675 0.36098 0.0
C173 C 0.11002 0.26557 0.37323 0.0
C174 C 0.05375 0.24239 0.36795 0.0
C175 C 0.04474 0.19091 0.35218 0.0
H176 H 0.68022 0.07282 0.93339 0.0
H177 H 0.67806 0.89481 0.94074 0.0
H178 H 0.75096 0.06783 0.8907 0.0
H179 H 0.75047 0.88989 0.89811 0.0
H180 H 0.82844 0.90437 0.79162 0.0
H181 H 0.75978 0.90639 0.83596 0.0
H182 H 0.85188 0.04597 0.88618 0.0
H183 H 0.92008 0.04471 0.8412 0.0
C184 C 0.69502 0.03245 0.92603 0.0
C185 C 0.67331 0.98413 0.94058 0.0
C186 C 0.7361 0.02969 0.90167 0.0
C187 C 0.75687 0.97854 0.89111 0.0
C188 C 0.73505 0.93002 0.90547 0.0
C189 C 0.69369 0.93278 0.92997 0.0
C190 C 0.83416 0.93557 0.8121 0.0
C191 C 0.87966 0.97463 0.81272 0.0
C192 C 0.79496 0.93638 0.83774 0.0
C193 C 0.8002 0.97627 0.86469 0.0
C194 C 0.84606 0.01508 0.86551 0.0
C195 C 0.88531 0.0143 0.8398 0.0
H196 H 0.92925 0.653 0.4446 0.0
H197 H 0.10349 0.61122 0.4214 0.0
H198 H 0.92571 0.72689 0.40026 0.0
H199 H 0.09982 0.6842 0.37743 0.0
H200 H 1.00471 0.89926 0.36652 0.0
H201 H 0.98256 0.81689 0.39911 0.0
H202 H 0.04862 0.7152 0.31917 0.0
H203 H 0.07075 0.79785 0.28626 0.0
C204 C 0.96633 0.65908 0.42972 0.0
C205 C 0.01687 0.62681 0.4367 0.0
C206 C 0.96434 0.7013 0.40444 0.0
C207 C 0.01241 0.7111 0.38534 0.0
C208 C 0.06179 0.67717 0.39135 0.0
C209 C 0.06411 0.63573 0.41684 0.0
C210 C 0.01308 0.85944 0.35529 0.0
C211 C 0.04006 0.85521 0.32393 0.0
C212 C 1.00012 0.81214 0.37397 0.0
C213 C 0.01437 0.7597 0.36183 0.0
C214 C 0.03774 0.75524 0.32929 0.0
C215 C 0.05024 0.80255 0.31043 0.0
loop_
_geom_bond_atom_site_label_1
_geom_bond_atom_site_label_2
_geom_bond_distance
_geom_bond_site_symmetry_2
_ccdc_geom_bond_type
C0 O2 1.247 1_545 S
C0 O4 1.258 . S
C1 O8 1.247 . S
C1 O9 1.258 1_545 S
O2 C0 1.247 1_565 S
O2 Zn3 2.028 1_556 S
Zn3 O2 2.028 1_554 S
Zn3 O7 2.035 1_554 S
Zn3 O9 2.035 . S
Zn3 O10 2.028 . S
O4 C0 1.258 . S
O4 Zn5 2.035 1_556 S
Zn5 O4 2.035 1_554 S
Zn5 O6 2.028 1_554 S
Zn5 O8 2.028 . S
Zn5 O11 2.035 . S
O6 Zn5 2.028 1_556 S
O6 C12 1.247 . S
O7 Zn3 2.035 1_556 S
O7 C12 1.258 1_565 S
O8 C1 1.247 . S
O8 Zn5 2.028 . S
O9 C1 1.258 1_565 S
O9 Zn3 2.035 . S
O10 Zn3 2.028 . S
O10 C13 1.247 1_565 S
O11 Zn5 2.035 . S
O11 C13 1.258 . S
C12 O6 1.247 . S
C12 O7 1.258 1_545 S
C13 O10 1.247 1_545 S
C13 O11 1.258 . S
C14 O16 1.247 . S
C14 O18 1.258 . S
C15 O22 1.247 . S
C15 O23 1.258 1_455 S
O16 C14 1.247 . S
O16 Zn17 2.028 1_455 S
Zn17 O16 2.028 1_655 S
Zn17 O21 2.035 1_655 S
Zn17 O23 2.035 . S
Zn17 O24 2.028 . S
O18 C14 1.258 . S
O18 Zn19 2.035 . S
Zn19 O18 2.035 . S
Zn19 O20 2.028 . S
Zn19 O22 2.028 . S
Zn19 O25 2.035 . S
O20 Zn19 2.028 . S
O20 C26 1.247 . S
O21 Zn17 2.035 1_455 S
O21 C26 1.258 . S
O22 C15 1.247 . S
O22 Zn19 2.028 . S
O23 C15 1.258 1_655 S
O23 Zn17 2.035 . S
O24 Zn17 2.028 . S
O24 C27 1.247 1_655 S
O25 Zn19 2.035 . S
O25 C27 1.258 . S
C26 O20 1.247 . S
C26 O21 1.258 . S
C27 O24 1.247 1_455 S
C27 O25 1.258 . S
Mg28 O29 2.028 . S
Mg28 O35 1.986 . S
Mg28 O37 2.114 1_545 S
Mg28 O38 2.251 1_545 S
Mg28 O41 2.010 . S
O29 Mg28 2.028 . S
O29 C32 1.250 1_455 S
O30 Mg31 2.028 . S
O30 C32 1.248 . S
Mg31 O30 2.028 . S
Mg31 O36 2.032 1_655 S
Mg31 O38 2.079 1_645 S
C32 O29 1.250 1_655 S
C32 O30 1.248 . S
C33 O34 1.264 . S
C33 O41 1.249 . S
O34 C33 1.264 . S
O35 Mg28 1.986 . S
O35 C39 1.246 . S
O36 Mg31 2.032 1_455 S
O36 C39 1.259 . S
O37 Mg28 2.114 1_565 S
O37 C40 1.252 . S
O38 Mg28 2.251 1_565 S
O38 Mg31 2.079 1_465 S
O38 C40 1.273 . S
C39 O35 1.246 . S
C39 O36 1.259 . S
C40 O37 1.252 . S
C40 O38 1.273 . S
O41 Mg28 2.010 . S
O41 C33 1.249 . S
Mg42 O43 2.028 1_655 S
Mg42 O49 1.986 1_655 S
Mg42 O51 2.114 1_545 S
Mg42 O52 2.251 1_645 S
Mg42 O55 2.010 . S
O43 Mg42 2.028 1_455 S
O43 C46 1.250 . S
O44 Mg45 2.028 . S
O44 C46 1.248 . S
Mg45 O44 2.028 . S
Mg45 O50 2.032 . S
Mg45 O52 2.079 1_545 S
C46 O43 1.250 . S
C46 O44 1.248 . S
C47 O48 1.264 . S
C47 O55 1.249 . S
O48 C47 1.264 . S
O49 Mg42 1.986 1_455 S
O49 C53 1.246 . S
O50 Mg45 2.032 . S
O50 C53 1.259 . S
O51 Mg42 2.114 1_565 S
O51 C54 1.252 1_655 S
O52 Mg42 2.251 1_465 S
O52 Mg45 2.079 1_565 S
O52 C54 1.273 . S
C53 O49 1.246 . S
C53 O50 1.259 . S
C54 O51 1.252 1_455 S
C54 O52 1.273 . S
O55 Mg42 2.010 . S
O55 C47 1.249 . S
H56 C64 0.950 . S
H57 C69 0.950 . S
H58 C66 0.950 . S
H59 C68 0.950 . S
H60 C70 0.950 . S
H61 C72 0.950 . S
H62 C74 0.950 . S
H63 C75 0.950 . S
C64 H56 0.950 . S
C64 C65 1.386 . S
C64 C66 1.391 . S
C65 C64 1.386 . S
C65 C69 1.393 1_545 S
C66 H58 0.950 . S
C66 C64 1.391 . S
C66 C67 1.400 . S
C67 C66 1.400 . S
C67 C68 1.398 1_545 S
C67 C73 1.491 . S
C68 H59 0.950 . S
C68 C67 1.398 1_565 S
C68 C69 1.391 . S
C69 H57 0.950 . S
C69 C65 1.393 1_565 S
C69 C68 1.391 . S
C70 H60 0.950 . S
C70 C71 1.386 1_565 S
C70 C72 1.391 . S
C71 C70 1.386 1_545 S
C71 C75 1.393 . S
C72 H61 0.950 . S
C72 C70 1.391 . S
C72 C73 1.400 1_565 S
C73 C67 1.491 . S
C73 C72 1.400 1_545 S
C73 C74 1.398 . S
C74 H62 0.950 . S
C74 C73 1.398 . S
C74 C75 1.391 . S
C75 H63 0.950 . S
C75 C71 1.393 . S
C75 C74 1.391 . S
H76 C84 0.950 . S
H77 C89 0.950 . S
H78 C86 0.950 . S
H79 C88 0.950 . S
H80 C90 0.950 . S
H81 C92 0.950 . S
H82 C94 0.950 . S
H83 C95 0.950 . S
C84 H76 0.950 . S
C84 C85 1.386 . S
C84 C86 1.391 . S
C85 C84 1.386 . S
C85 C89 1.393 . S
C86 H78 0.950 . S
C86 C84 1.391 . S
C86 C87 1.400 . S
C87 C86 1.400 . S
C87 C88 1.398 . S
C87 C93 1.491 . S
C88 H79 0.950 . S
C88 C87 1.398 . S
C88 C89 1.391 . S
C89 H77 0.950 . S
C89 C85 1.393 . S
C89 C88 1.391 . S
C90 H80 0.950 . S
C90 C91 1.386 . S
C90 C92 1.391 . S
C91 C90 1.386 . S
C91 C95 1.393 . S
C92 H81 0.950 . S
C92 C90 1.391 . S
C92 C93 1.400 . S
C93 C87 1.491 . S
C93 C92 1.400 . S
C93 C94 1.398 . S
C94 H82 0.950 . S
C94 C93 1.398 . S
C94 C95 1.391 . S
C95 H83 0.950 . S
C95 C91 1.393 . S
C95 C94 1.391 . S
H96 C104 0.950 . S
H97 C109 0.950 . S
H98 C106 0.950 . S
H99 C108 0.950 . S
H100 C110 0.950 . S
H101 C112 0.950 . S
H102 C114 0.950 1_565 S
H103 C115 0.950 1_565 S
C104 H96 0.950 . S
C104 C105 1.386 1_565 S
C104 C106 1.391 . S
C105 C104 1.386 1_545 S
C105 C109 1.393 . S
C106 H98 0.950 . S
C106 C104 1.391 . S
C106 C107 1.400 1_565 S
C107 C106 1.400 1_545 S
C107 C108 1.398 . S
C107 C113 1.491 . S
C108 H99 0.950 . S
C108 C107 1.398 . S
C108 C109 1.391 . S
C109 H97 0.950 . S
C109 C105 1.393 . S
C109 C108 1.391 . S
C110 H100 0.950 . S
C110 C111 1.386 . S
C110 C112 1.391 . S
C111 C110 1.386 . S
C111 C115 1.393 . S
C112 H101 0.950 . S
C112 C110 1.391 . S
C112 C113 1.400 . S
C113 C107 1.491 . S
C113 C112 1.400 . S
C113 C114 1.398 . S
C114 H102 0.950 1_545 S
C114 C113 1.398 . S
C114 C115 1.391 . S
C115 H103 0.950 1_545 S
C115 C111 1.393 . S
C115 C114 1.391 . S
H116 C124 0.950 . S
H117 C129 0.950 . S
H118 C126 0.950 . S
H119 C128 0.950 . S
H120 C130 0.950 . S
H121 C132 0.950 . S
H122 C134 0.950 . S
H123 C135 0.950 . S
C124 H116 0.950 . S
C124 C125 1.386 . S
C124 C126 1.391 . S
C125 C124 1.386 . S
C125 C129 1.393 . S
C126 H118 0.950 . S
C126 C124 1.391 . S
C126 C127 1.400 . S
C127 C126 1.400 . S
C127 C128 1.398 . S
C127 C133 1.491 . S
C128 H119 0.950 . S
C128 C127 1.398 . S
C128 C129 1.391 . S
C129 H117 0.950 . S
C129 C125 1.393 . S
C129 C128 1.391 . S
C130 H120 0.950 . S
C130 C131 1.386 . S
C130 C132 1.391 . S
C131 C130 1.386 . S
C131 C135 1.393 . S
C132 H121 0.950 . S
C132 C130 1.391 . S
C132 C133 1.400 . S
C133 C127 1.491 . S
C133 C132 1.400 . S
C133 C134 1.398 . S
C134 H122 0.950 . S
C134 C133 1.398 . S
C134 C135 1.391 . S
C135 H123 0.950 . S
C135 C131 1.393 . S
C135 C134 1.391 . S
H136 C144 0.950 . S
H137 C149 0.950 . S
H138 C146 0.950 . S
H139 C148 0.950 . S
H140 C150 0.950 . S
H141 C152 0.950 . S
H142 C154 0.950 . S
H143 C155 0.950 . S
C144 H136 0.950 . S
C144 C145 1.386 . S
C144 C146 1.391 . S
C145 C144 1.386 . S
C145 C149 1.393 1_545 S
C146 H138 0.950 . S
C146 C144 1.391 . S
C146 C147 1.400 . S
C147 C146 1.400 . S
C147 C148 1.398 1_545 S
C147 C153 1.491 . S
C148 H139 0.950 . S
C148 C147 1.398 1_565 S
C148 C149 1.391 . S
C149 H137 0.950 . S
C149 C145 1.393 1_565 S
C149 C148 1.391 . S
C150 H140 0.950 . S
C150 C151 1.386 1_565 S
C150 C152 1.391 . S
C151 C150 1.386 1_545 S
C151 C155 1.393 . S
C152 H141 0.950 . S
C152 C150 1.391 . S
C152 C153 1.400 1_565 S
C153 C147 1.491 . S
C153 C152 1.400 1_545 S
C153 C154 1.398 . S
C154 H142 0.950 . S
C154 C153 1.398 . S
C154 C155 1.391 . S
C155 H143 0.950 . S
C155 C151 1.393 . S
C155 C154 1.391 . S
H156 C164 0.960 . S
H157 C169 0.950 . S
H158 C166 0.950 . S
H159 C168 0.950 . S
H160 C170 0.950 . S
H161 C172 0.950 . S
H162 C174 0.950 . S
H163 C175 0.950 . S
C164 H156 0.960 . S
C164 C165 1.386 . S
C164 C166 1.391 . S
C165 C164 1.386 . S
C165 C169 1.393 . S
C166 H158 0.950 . S
C166 C164 1.391 . S
C166 C167 1.400 . S
C167 C166 1.400 . S
C167 C168 1.398 . S
C167 C173 1.491 . S
C168 H159 0.950 . S
C168 C167 1.398 . S
C168 C169 1.391 . S
C169 H157 0.950 . S
C169 C165 1.393 . S
C169 C168 1.391 . S
C170 H160 0.950 . S
C170 C171 1.386 . S
C170 C172 1.391 . S
C171 C170 1.386 . S
C171 C175 1.393 . S
C172 H161 0.950 . S
C172 C170 1.391 . S
C172 C173 1.400 . S
C173 C167 1.491 . S
C173 C172 1.400 . S
C173 C174 1.398 . S
C174 H162 0.950 . S
C174 C173 1.398 . S
C174 C175 1.391 . S
C175 H163 0.950 . S
C175 C171 1.393 . S
C175 C174 1.391 . S
H176 C184 0.950 . S
H177 C189 0.950 . S
H178 C186 0.950 . S
H179 C188 0.950 . S
H180 C190 0.950 . S
H181 C192 0.950 . S
H182 C194 0.950 . S
H183 C195 0.950 . S
C184 H176 0.950 . S
C184 C185 1.386 1_565 S
C184 C186 1.391 . S
C185 C184 1.386 1_545 S
C185 C189 1.393 . S
C186 H178 0.950 . S
C186 C184 1.391 . S
C186 C187 1.400 1_565 S
C187 C186 1.400 1_545 S
C187 C188 1.398 . S
C187 C193 1.491 . S
C188 H179 0.950 . S
C188 C187 1.398 . S
C188 C189 1.391 . S
C189 H177 0.950 . S
C189 C185 1.393 . S
C189 C188 1.391 . S
C190 H180 0.950 . S
C190 C191 1.386 . S
C190 C192 1.391 . S
C191 C190 1.386 . S
C191 C195 1.393 1_545 S
C192 H181 0.950 . S
C192 C190 1.391 . S
C192 C193 1.400 . S
C193 C187 1.491 . S
C193 C192 1.400 . S
C193 C194 1.398 1_545 S
C194 H182 0.950 . S
C194 C193 1.398 1_565 S
C194 C195 1.391 . S
C195 H183 0.950 . S
C195 C191 1.393 1_565 S
C195 C194 1.391 . S
H196 C204 0.950 1_655 S
H197 C209 0.950 . S
H198 C206 0.950 1_655 S
H199 C208 0.950 . S
H200 C210 0.950 . S
H201 C212 0.950 . S
H202 C214 0.950 1_655 S
H203 C215 0.950 1_655 S
C204 H196 0.950 1_455 S
C204 C205 1.386 . S
C204 C206 1.391 . S
C205 C204 1.386 . S
C205 C209 1.393 . S
C206 H198 0.950 1_455 S
C206 C204 1.391 . S
C206 C207 1.400 . S
C207 C206 1.400 . S
C207 C208 1.398 . S
C207 C213 1.491 . S
C208 H199 0.950 . S
C208 C207 1.398 . S
C208 C209 1.391 . S
C209 H197 0.950 . S
C209 C205 1.393 . S
C209 C208 1.391 . S
C210 H200 0.950 . S
C210 C211 1.386 . S
C210 C212 1.391 . S
C211 C210 1.386 . S
C211 C215 1.393 . S
C212 H201 0.950 . S
C212 C210 1.391 . S
C212 C213 1.400 . S
C213 C207 1.491 . S
C213 C212 1.400 . S
C213 C214 1.398 . S
C214 H202 0.950 1_455 S
C214 C213 1.398 . S
C214 C215 1.391 . S
C215 H203 0.950 1_455 S
C215 C211 1.393 . S
C215 C214 1.391 . S
C71 C33 1.227 . S
C65 C13 1.465 . S
C91 C53 1.422 . S
C85 C15 1.462 . S
C111 C32 1.439 . S
C105 C1 1.476 . S
C131 C54 1.477 . S
C125 C27 1.478 . S
C151 C46 1.448 . S
C145 C0 1.474 . S
C171 C39 1.421 . S
C165 C26 1.461 . S
C191 C47 1.270 . S
C185 C12 1.463 . S
C205 C14 1.480 . S
C211 C40 1.479 . S
