# Generated by pormake.
# Topology tsx, (6,3)-cn, num edge types: 1
# Building blocks:
#     Node 0, Type 0, BuildingBlock: MIDCAF_clean_sbu_0, # of connection points: 6
#     Node 1, Type 0, BuildingBlock: MIDCAF_clean_sbu_0, # of connection points: 6
#     Node 2, Type 1, BuildingBlock: OLANEW_clean_sbu_2, # of connection points: 3
#     Node 3, Type 1, BuildingBlock: OLANEW_clean_sbu_2, # of connection points: 3
#     Node 4, Type 1, BuildingBlock: OLANEW_clean_sbu_2, # of connection points: 3
#     Node 5, Type 1, BuildingBlock: OLANEW_clean_sbu_2, # of connection points: 3
#     Edge 6, Type (0, 1), BuildingBlock: AJUNOK_clean_linker_0, # of connection points: 2
#     Edge 7, Type (0, 1), BuildingBlock: AJUNOK_clean_linker_0, # of connection points: 2
#     Edge 8, Type (0, 1), BuildingBlock: AJUNOK_clean_linker_0, # of connection points: 2
#     Edge 9, Type (0, 1), BuildingBlock: AJUNOK_clean_linker_0, # of connection points: 2
#     Edge 10, Type (0, 1), BuildingBlock: AJUNOK_clean_linker_0, # of connection points: 2
#     Edge 11, Type (0, 1), BuildingBlock: AJUNOK_clean_linker_0, # of connection points: 2
#     Edge 12, Type (0, 1), BuildingBlock: AJUNOK_clean_linker_0, # of connection points: 2
#     Edge 13, Type (0, 1), BuildingBlock: AJUNOK_clean_linker_0, # of connection points: 2
#     Edge 14, Type (0, 1), BuildingBlock: AJUNOK_clean_linker_0, # of connection points: 2
#     Edge 15, Type (0, 1), BuildingBlock: AJUNOK_clean_linker_0, # of connection points: 2
#     Edge 16, Type (0, 1), BuildingBlock: AJUNOK_clean_linker_0, # of connection points: 2
#     Edge 17, Type (0, 1), BuildingBlock: AJUNOK_clean_linker_0, # of connection points: 2
# Relax obj value: 0.069
# Max RMSD: 0.154
# Mean RMSD: 0.095
data_MOF--net-tsx--node1-MIDCAF_clean_sbu_0--node2-OLANEW_clean_sbu_2--edge1-AJUNOK_clean_linker_0
_symmetry_space_group_name_H-M    P1
_symmetry_Int_Tables_number       1
_symmetry_cell_setting            triclinic
loop_
_symmetry_equiv_pos_as_xyz
'x, y, z'
_cell_length_a     16.140135
_cell_length_b     17.232984
_cell_length_c     27.422025
_cell_angle_alpha  95.93863
_cell_angle_beta   97.293258
_cell_angle_gamma 89.530206
loop_
_atom_site_label
_atom_site_type_symbol
_atom_site_fract_x
_atom_site_fract_y
_atom_site_fract_z
_atom_type_partial_charge
Zn0 Zn 0.90089 0.05809 0.97544 0.0
Zn1 Zn 0.20026 0.08321 0.04552 0.0
Zn2 Zn 0.0488 0.07557 0.01039 0.0
C3 C 0.15471 0.23324 0.02624 0.0
C4 C 0.19765 0.97642 0.96519 0.0
O5 O 0.98641 -0.00259 0.05505 0.0
O6 O 0.86864 0.96783 0.00648 0.0
C7 C 0.9159 0.21299 0.00936 0.0
O8 O 0.08121 0.20226 0.01969 0.0
O9 O 0.2186 0.19192 0.03501 0.0
O10 O 0.24746 0.00124 0.00258 0.0
O11 O 0.12232 0.00287 0.95967 0.0
O12 O 0.8611 0.15992 0.00215 0.0
O13 O 0.99351 0.19489 0.0088 0.0
O14 O 0.04917 0.02541 0.93317 0.0
O15 O 0.91744 0.04375 0.90443 0.0
C16 C 0.9909 0.02585 0.89646 0.0
O17 O 0.06027 0.02584 0.08264 0.0
O18 O 0.19029 0.0579 0.11266 0.0
C19 C 0.91827 0.95702 0.04447 0.0
C20 C 0.12104 0.02887 0.11822 0.0
Zn21 Zn 0.69328 0.48102 0.55093 0.0
Zn22 Zn 0.43909 0.40775 0.4248 0.0
Zn23 Zn 0.5637 0.4509 0.48761 0.0
C24 C 0.57618 0.38827 0.37452 0.0
C25 C 0.41731 0.56642 0.45576 0.0
O26 O 0.54181 0.40203 0.55682 0.0
O27 O 0.65372 0.44127 0.60823 0.0
C28 C 0.75244 0.38635 0.47713 0.0
O29 O 0.61259 0.40285 0.41912 0.0
O30 O 0.49753 0.38907 0.36598 0.0
O31 O 0.37719 0.50671 0.43523 0.0
O32 O 0.49443 0.56031 0.47406 0.0
O33 O 0.77747 0.41883 0.5197 0.0
O34 O 0.67593 0.39501 0.45803 0.0
O35 O 0.57436 0.5798 0.49827 0.0
O36 O 0.69459 0.59424 0.5472 0.0
C37 C 0.6338 0.62344 0.52191 0.0
O38 O 0.48173 0.36975 0.51895 0.0
O39 O 0.39751 0.31871 0.45366 0.0
C40 C 0.58379 0.40711 0.60032 0.0
C41 C 0.424 0.32083 0.49901 0.0
O42 O 0.05819 0.95577 0.34274 0.0
Cd43 Cd 0.08831 0.95673 0.43274 0.0
O44 O 0.17736 0.01792 0.34643 0.0
Cd45 Cd 0.1562 0.07599 0.41768 0.0
O46 O 0.06448 0.16267 0.43842 0.0
C47 C 0.99583 0.16501 0.41002 0.0
O48 O 0.98242 0.11427 0.37066 0.0
C49 C 0.11688 0.97952 0.32115 0.0
C50 C 0.20591 0.84027 0.45297 0.0
O51 O 0.12721 0.82791 0.45058 0.0
O52 O 0.22981 0.90904 0.44713 0.0
O53 O 0.10616 0.97221 0.67261 0.0
Cd54 Cd 0.12655 0.9673 0.58592 0.0
O55 O 0.97159 -0.00172 0.65904 0.0
Cd56 Cd 0.95023 0.98409 0.57841 0.0
O57 O 0.85235 0.9157 0.53086 0.0
C58 C 0.7794 0.92043 0.54389 0.0
O59 O 0.7661 0.97217 0.58073 0.0
C60 C 0.0369 0.98777 0.68879 0.0
C61 C 0.22891 0.09047 0.57116 0.0
O62 O 0.14942 0.09772 0.56848 0.0
O63 O 0.2603 0.02428 0.58059 0.0
O64 O 0.55611 0.46117 0.8207 0.0
Cd65 Cd 0.57817 0.53478 0.90307 0.0
O66 O 0.41917 0.45442 0.8027 0.0
Cd67 Cd 0.39902 0.53496 0.86602 0.0
O68 O 0.3634 0.65222 0.89217 0.0
C69 C 0.29719 0.68199 0.87175 0.0
O70 O 0.2487 0.63952 0.83715 0.0
C71 C 0.4915 0.4373 0.79152 0.0
C72 C 0.7105 0.46595 0.95946 0.0
O73 O 0.63401 0.45037 0.96282 0.0
O74 O 0.72497 0.51661 0.9305 0.0
O75 O 0.74033 0.47184 0.18018 0.0
Cd76 Cd 0.74554 0.52002 0.1003 0.0
O77 O 0.60705 0.43973 0.16077 0.0
Cd78 Cd 0.56098 0.48601 0.09097 0.0
O79 O 0.42549 0.46805 0.07231 0.0
C80 C 0.37744 0.47166 0.03208 0.0
O81 O 0.40864 0.49126 -0.00693 0.0
C82 C 0.67457 0.4404 0.19038 0.0
C83 C 0.81271 0.66995 0.10575 0.0
O84 O 0.73439 0.65876 0.10627 0.0
O85 O 0.85994 0.60984 0.10379 0.0
C86 C 0.19975 0.33555 0.97953 0.0
C87 C 0.17002 0.31618 0.02279 0.0
C88 C 0.26049 0.39411 0.98151 0.0
C89 C 0.29369 0.43436 0.02701 0.0
H90 H 0.18429 0.29861 0.94515 0.0
H91 H 0.28809 0.4012 0.94823 0.0
S92 S 0.21833 0.41981 0.14808 0.0
N93 N 0.16446 0.35247 0.10999 0.0
N94 N 0.27796 0.46301 0.11413 0.0
C95 C 0.25479 0.42354 0.06899 0.0
C96 C 0.19279 0.36429 0.06674 0.0
C97 C 0.16415 0.85632 0.90669 0.0
C98 C 0.22386 0.90993 0.93213 0.0
C99 C 0.18853 0.78374 0.88503 0.0
C100 C 0.27326 0.76234 0.88848 0.0
H101 H 0.09807 0.86825 0.90608 0.0
H102 H 0.14043 0.74261 0.8679 0.0
S103 S 0.4543 0.88838 0.94179 0.0
N104 N 0.37174 0.94157 0.95245 0.0
N105 N 0.41719 0.80494 0.91252 0.0
C106 C 0.33364 0.81792 0.9102 0.0
C107 C 0.30899 0.89187 0.93175 0.0
C108 C 0.81423 0.88026 0.07845 0.0
C109 C 0.8983 0.89346 0.07327 0.0
C110 C 0.78827 0.80983 0.09286 0.0
C111 C 0.84528 0.74919 0.10191 0.0
H112 H 0.76721 0.92308 0.06849 0.0
H113 H 0.72207 0.80126 0.09367 0.0
S114 S 0.07493 0.75981 0.1011 0.0
N115 N 0.04022 0.84459 0.08409 0.0
N116 N 0.99183 0.71141 0.11115 0.0
C117 C 0.93083 0.76434 0.10109 0.0
C118 C 0.9573 0.83678 0.08681 0.0
C119 C 0.8126 0.31126 0.03366 0.0
C120 C 0.88523 0.29409 0.01123 0.0
C121 C 0.76018 0.37254 0.02015 0.0
C122 C 0.77848 0.41919 0.98372 0.0
H123 H 0.79199 0.27247 0.05846 0.0
H124 H 0.70171 0.37941 0.03564 0.0
S125 S 0.97123 0.40923 0.92236 0.0
N126 N 0.98026 0.33634 0.9573 0.0
N127 N 0.88245 0.45291 0.93217 0.0
C128 C 0.85651 0.40912 0.96586 0.0
C129 C 0.90993 0.34616 0.97965 0.0
C130 C 0.62625 0.76155 0.55531 0.0
C131 C 0.63999 0.70653 0.51584 0.0
C132 C 0.6644 0.83531 0.56105 0.0
C133 C 0.71941 0.85521 0.52821 0.0
H134 H 0.59222 0.74502 0.58429 0.0
H135 H 0.65717 0.87357 0.59414 0.0
S136 S 0.76212 0.73594 0.41371 0.0
N137 N 0.70072 0.68034 0.43939 0.0
N138 N 0.77389 0.81848 0.45037 0.0
C139 C 0.72607 0.80356 0.48573 0.0
C140 C 0.68609 0.72908 0.47958 0.0
C141 C 0.89814 0.34703 0.46692 0.0
C142 C 0.81197 0.33531 0.45214 0.0
C143 C 0.95687 0.29261 0.45197 0.0
C144 C 0.93222 0.22432 0.4213 0.0
H145 H 0.92052 0.39761 0.49176 0.0
H146 H 0.02214 0.30364 0.46523 0.0
S147 S 0.71491 0.16817 0.36894 0.0
N148 N 0.70516 0.2517 0.40303 0.0
N149 N 0.81611 0.15012 0.37363 0.0
C150 C 0.84673 0.21373 0.40377 0.0
C151 C 0.78648 0.26911 0.41946 0.0
C152 C 0.41623 0.19881 0.53948 0.0
C153 C 0.38179 0.27085 0.52845 0.0
C154 C 0.36735 0.14185 0.55565 0.0
C155 C 0.28241 0.15518 0.561 0.0
H156 H 0.47963 0.18472 0.53279 0.0
H157 H 0.39536 0.08576 0.56168 0.0
S158 S 0.16745 0.3396 0.54235 0.0
N159 N 0.26129 0.35562 0.52746 0.0
N160 N 0.16951 0.25009 0.55889 0.0
C161 C 0.24937 0.22939 0.55303 0.0
C162 C 0.29905 0.2868 0.53636 0.0
C163 C 0.28771 0.63745 0.47117 0.0
C164 C 0.37081 0.64051 0.46105 0.0
C165 C 0.23654 0.70322 0.47055 0.0
C166 C 0.26599 0.77515 0.45954 0.0
H167 H 0.26116 0.58296 0.4786 0.0
H168 H 0.17248 0.69677 0.47748 0.0
S169 S 0.48037 0.81478 0.43202 0.0
N170 N 0.48136 0.72137 0.44087 0.0
N171 N 0.38571 0.84628 0.44036 0.0
C172 C 0.35032 0.78002 0.45131 0.0
C173 C 0.40261 0.71241 0.45192 0.0
C174 C 0.18576 0.97847 0.19553 0.0
C175 C 0.11274 -2e-05 0.16631 0.0
C176 C 0.1851 0.96589 0.24493 0.0
C177 C 0.11117 0.97303 0.26686 0.0
H178 H 0.2451 0.97516 0.18088 0.0
H179 H 0.24379 0.95424 0.26681 0.0
S180 S 0.90118 0.01934 0.20539 0.0
N181 N 0.96311 0.02219 0.16207 0.0
N182 N 0.96139 -0.00444 0.2549 0.0
C183 C 0.03624 0.98784 0.23718 0.0
C184 C 0.0371 0.00202 0.1868 0.0
C185 C 0.94139 0.98704 0.80774 0.0
C186 C 1.00821 0.00874 0.84465 0.0
C187 C 0.95206 0.97917 0.75772 0.0
C188 C 0.03019 0.99205 0.74234 0.0
H189 H 0.87953 0.97744 0.81744 0.0
H190 H 0.89813 0.96345 0.73083 0.0
S191 S 0.22601 0.04916 0.82393 0.0
N192 N 0.15567 0.04334 0.86218 0.0
N193 N 0.1764 0.02562 0.76795 0.0
C194 C 0.09845 0.01123 0.77875 0.0
C195 C 0.08731 0.02029 0.82994 0.0
C196 C 0.60293 0.36345 0.68407 0.0
C197 C 0.54786 0.38473 0.64372 0.0
C198 C 0.58054 0.37216 0.73193 0.0
C199 C 0.50211 0.40218 0.74106 0.0
H200 H 0.66664 0.34711 0.67936 0.0
H201 H 0.62763 0.36171 0.76236 0.0
S202 S 0.32898 0.44979 0.64637 0.0
N203 N 0.40716 0.42478 0.61467 0.0
N204 N 0.3638 0.43931 0.70456 0.0
C205 C 0.44246 0.4132 0.70015 0.0
C206 C 0.46569 0.40485 0.65132 0.0
C207 C 0.58753 0.33926 0.28765 0.0
C208 C 0.62357 0.38165 0.33163 0.0
C209 C 0.61093 0.35331 0.24203 0.0
C210 C 0.67138 0.41019 0.23869 0.0
H211 H 0.53582 0.29969 0.28804 0.0
H212 H 0.57682 0.32354 0.20886 0.0
S213 S 0.79666 0.52529 0.34393 0.0
N214 N 0.73189 0.47373 0.36996 0.0
N215 N 0.77656 0.49989 0.28383 0.0
C216 C 0.71531 0.44591 0.28279 0.0
C217 C 0.69123 0.43159 0.3295 0.0
loop_
_geom_bond_atom_site_label_1
_geom_bond_atom_site_label_2
_geom_bond_distance
_geom_bond_site_symmetry_2
_ccdc_geom_bond_type
Zn0 O6 1.920 . S
Zn0 O12 1.898 1_565 S
Zn0 O15 1.905 . S
Zn1 O9 1.905 . S
Zn1 O10 1.898 1_545 S
Zn1 O18 1.920 1_545 S
Zn2 O5 2.080 1_444 S
Zn2 O8 2.114 . S
Zn2 O11 2.120 1_545 S
Zn2 O13 2.120 1_455 S
Zn2 O14 2.114 1_554 S
Zn2 O17 2.080 . S
C3 O8 1.166 . S
C3 O9 1.182 . S
C4 O10 1.167 1_556 S
C4 O11 1.298 1_556 S
O5 Zn2 2.080 1_666 S
O5 C19 1.307 . S
O6 Zn0 1.920 . S
O6 C19 1.242 . S
C7 O12 1.167 . S
C7 O13 1.299 1_556 S
O8 Zn2 2.114 . S
O8 C3 1.166 . S
O9 Zn1 1.905 . S
O9 C3 1.182 . S
O10 Zn1 1.898 1_565 S
O10 C4 1.167 1_554 S
O11 Zn2 2.120 1_565 S
O11 C4 1.298 1_554 S
O12 Zn0 1.898 1_545 S
O12 C7 1.167 . S
O13 Zn2 2.120 1_655 S
O13 C7 1.299 1_554 S
O14 Zn2 2.114 1_556 S
O14 C16 1.166 1_445 S
O15 Zn0 1.905 . S
O15 C16 1.182 . S
C16 O14 1.166 1_665 S
C16 O15 1.182 . S
O17 Zn2 2.080 . S
O17 C20 1.305 1_545 S
O18 Zn1 1.920 1_565 S
O18 C20 1.234 . S
C19 O5 1.307 . S
C19 O6 1.242 . S
C20 O17 1.305 1_565 S
C20 O18 1.234 . S
Zn21 O27 1.920 . S
Zn21 O33 1.898 . S
Zn21 O36 1.905 . S
Zn22 O30 1.905 . S
Zn22 O31 1.898 . S
Zn22 O39 1.920 . S
Zn23 O26 2.080 . S
Zn23 O29 2.114 . S
Zn23 O32 2.120 . S
Zn23 O34 2.120 . S
Zn23 O35 2.114 . S
Zn23 O38 2.080 . S
C24 O29 1.166 . S
C24 O30 1.182 . S
C25 O31 1.167 . S
C25 O32 1.299 . S
O26 Zn23 2.080 . S
O26 C40 1.305 . S
O27 Zn21 1.920 . S
O27 C40 1.234 . S
C28 O33 1.167 . S
C28 O34 1.299 . S
O29 Zn23 2.114 . S
O29 C24 1.166 . S
O30 Zn22 1.905 . S
O30 C24 1.182 . S
O31 Zn22 1.898 . S
O31 C25 1.167 . S
O32 Zn23 2.120 . S
O32 C25 1.299 . S
O33 Zn21 1.898 . S
O33 C28 1.167 . S
O34 Zn23 2.120 . S
O34 C28 1.299 . S
O35 Zn23 2.114 . S
O35 C37 1.166 . S
O36 Zn21 1.905 . S
O36 C37 1.182 . S
C37 O35 1.166 . S
C37 O36 1.182 . S
O38 Zn23 2.080 . S
O38 C41 1.305 . S
O39 Zn22 1.920 . S
O39 C41 1.234 . S
C40 O26 1.305 . S
C40 O27 1.234 . S
C41 O38 1.305 . S
C41 O39 1.234 . S
O42 Cd43 2.300 1_565 S
O42 C49 1.275 1_565 S
Cd43 O42 2.300 1_545 S
Cd43 O51 2.381 1_545 S
Cd43 O52 2.378 1_545 S
O44 Cd45 2.385 . S
O44 C49 1.255 . S
Cd45 O44 2.385 . S
Cd45 O46 2.317 . S
O46 Cd45 2.317 . S
O46 C47 1.232 1_455 S
C47 O46 1.232 1_655 S
C47 O48 1.218 . S
O48 C47 1.218 . S
C49 O42 1.275 1_545 S
C49 O44 1.255 . S
C50 O51 1.258 . S
C50 O52 1.256 . S
O51 Cd43 2.381 1_565 S
O51 C50 1.258 . S
O52 Cd43 2.378 1_565 S
O52 C50 1.256 . S
O53 Cd54 2.300 . S
O53 C60 1.275 . S
Cd54 O53 2.300 . S
Cd54 O62 2.381 . S
Cd54 O63 2.378 . S
O55 Cd56 2.385 . S
O55 C60 1.255 1_565 S
Cd56 O55 2.385 . S
Cd56 O57 2.317 1_455 S
O57 Cd56 2.317 1_655 S
O57 C58 1.232 . S
C58 O57 1.232 . S
C58 O59 1.218 . S
O59 C58 1.218 . S
C60 O53 1.275 . S
C60 O55 1.255 1_545 S
C61 O62 1.258 . S
C61 O63 1.256 . S
O62 Cd54 2.381 . S
O62 C61 1.258 . S
O63 Cd54 2.378 . S
O63 C61 1.256 . S
O64 Cd65 2.300 . S
O64 C71 1.275 . S
Cd65 O64 2.300 . S
Cd65 O73 2.381 . S
Cd65 O74 2.378 . S
O66 Cd67 2.385 . S
O66 C71 1.255 . S
Cd67 O66 2.385 . S
Cd67 O68 2.317 . S
O68 Cd67 2.317 . S
O68 C69 1.232 . S
C69 O68 1.232 . S
C69 O70 1.218 . S
O70 C69 1.218 . S
C71 O64 1.275 . S
C71 O66 1.255 . S
C72 O73 1.258 . S
C72 O74 1.256 . S
O73 Cd65 2.381 . S
O73 C72 1.258 . S
O74 Cd65 2.378 . S
O74 C72 1.256 . S
O75 Cd76 2.300 . S
O75 C82 1.275 . S
Cd76 O75 2.300 . S
Cd76 O84 2.381 . S
Cd76 O85 2.378 . S
O77 Cd78 2.385 . S
O77 C82 1.255 . S
Cd78 O77 2.385 . S
Cd78 O79 2.317 . S
O79 Cd78 2.317 . S
O79 C80 1.232 . S
C80 O79 1.232 . S
C80 O81 1.218 . S
O81 C80 1.218 . S
C82 O75 1.275 . S
C82 O77 1.255 . S
C83 O84 1.258 . S
C83 O85 1.256 . S
O84 Cd76 2.381 . S
O84 C83 1.258 . S
O85 Cd76 2.378 . S
O85 C83 1.256 . S
C86 C87 1.369 . S
C86 C88 1.419 . S
C86 H90 0.930 1_554 S
C87 C86 1.369 . S
C87 C96 1.429 . S
C88 C86 1.419 . S
C88 C89 1.363 . S
C88 H91 0.929 . S
C89 C88 1.363 . S
C89 C95 1.428 . S
H90 C86 0.930 1_556 S
H91 C88 0.929 . S
S92 N93 1.613 . S
S92 N94 1.610 . S
N93 S92 1.613 . S
N93 C96 1.350 . S
N94 S92 1.610 . S
N94 C95 1.351 . S
C95 C89 1.428 . S
C95 N94 1.351 . S
C95 C96 1.434 . S
C96 C87 1.429 . S
C96 N93 1.350 . S
C96 C95 1.434 . S
C97 C98 1.369 . S
C97 C99 1.419 . S
C97 H101 0.930 . S
C98 C97 1.369 . S
C98 C107 1.429 . S
C99 C97 1.419 . S
C99 C100 1.363 . S
C99 H102 0.929 . S
C100 C99 1.363 . S
C100 C106 1.428 . S
H101 C97 0.930 . S
H102 C99 0.929 . S
S103 N104 1.613 . S
S103 N105 1.610 . S
N104 S103 1.613 . S
N104 C107 1.350 1_554 S
N105 S103 1.610 . S
N105 C106 1.351 1_554 S
C106 C100 1.428 . S
C106 N105 1.351 1_556 S
C106 C107 1.434 . S
C107 C98 1.429 . S
C107 N104 1.350 1_556 S
C107 C106 1.434 . S
C108 C109 1.369 . S
C108 C110 1.419 . S
C108 H112 0.930 1_554 S
C109 C108 1.369 . S
C109 C118 1.429 . S
C110 C108 1.419 . S
C110 C111 1.363 . S
C110 H113 0.929 1_554 S
C111 C110 1.363 . S
C111 C117 1.428 . S
H112 C108 0.930 1_556 S
H113 C110 0.929 1_556 S
S114 N115 1.613 . S
S114 N116 1.610 . S
N115 S114 1.613 . S
N115 C118 1.350 . S
N116 S114 1.610 . S
N116 C117 1.351 . S
C117 C111 1.428 . S
C117 N116 1.351 . S
C117 C118 1.434 . S
C118 C109 1.429 . S
C118 N115 1.350 . S
C118 C117 1.434 . S
C119 C120 1.369 1_554 S
C119 C121 1.419 1_554 S
C119 H123 0.930 . S
C120 C119 1.369 1_556 S
C120 C129 1.429 . S
C121 C119 1.419 1_556 S
C121 C122 1.363 . S
C121 H124 0.929 1_556 S
C122 C121 1.363 . S
C122 C128 1.428 . S
H123 C119 0.930 . S
H124 C121 0.929 1_554 S
S125 N126 1.613 . S
S125 N127 1.610 . S
N126 S125 1.613 . S
N126 C129 1.350 . S
N127 S125 1.610 . S
N127 C128 1.351 . S
C128 C122 1.428 . S
C128 N127 1.351 . S
C128 C129 1.434 . S
C129 C120 1.429 . S
C129 N126 1.350 . S
C129 C128 1.434 . S
C130 C131 1.369 . S
C130 C132 1.419 . S
C130 H134 0.930 . S
C131 C130 1.369 . S
C131 C140 1.429 . S
C132 C130 1.419 . S
C132 C133 1.363 . S
C132 H135 0.929 . S
C133 C132 1.363 . S
C133 C139 1.428 . S
H134 C130 0.930 . S
H135 C132 0.929 . S
S136 N137 1.613 . S
S136 N138 1.610 . S
N137 S136 1.613 . S
N137 C140 1.350 . S
N138 S136 1.610 . S
N138 C139 1.351 . S
C139 C133 1.428 . S
C139 N138 1.351 . S
C139 C140 1.434 . S
C140 C131 1.429 . S
C140 N137 1.350 . S
C140 C139 1.434 . S
C141 C142 1.369 . S
C141 C143 1.419 . S
C141 H145 0.930 . S
C142 C141 1.369 . S
C142 C151 1.429 . S
C143 C141 1.419 . S
C143 C144 1.363 . S
C143 H146 0.929 . S
C144 C143 1.363 . S
C144 C150 1.428 . S
H145 C141 0.930 . S
H146 C143 0.929 . S
S147 N148 1.613 . S
S147 N149 1.610 . S
N148 S147 1.613 . S
N148 C151 1.350 . S
N149 S147 1.610 . S
N149 C150 1.351 . S
C150 C144 1.428 . S
C150 N149 1.351 . S
C150 C151 1.434 . S
C151 C142 1.429 . S
C151 N148 1.350 . S
C151 C150 1.434 . S
C152 C153 1.369 . S
C152 C154 1.419 . S
C152 H156 0.930 . S
C153 C152 1.369 . S
C153 C162 1.429 . S
C154 C152 1.419 . S
C154 C155 1.363 . S
C154 H157 0.929 . S
C155 C154 1.363 . S
C155 C161 1.428 . S
H156 C152 0.930 . S
H157 C154 0.929 . S
S158 N159 1.613 . S
S158 N160 1.610 . S
N159 S158 1.613 . S
N159 C162 1.350 . S
N160 S158 1.610 . S
N160 C161 1.351 . S
C161 C155 1.428 . S
C161 N160 1.351 . S
C161 C162 1.434 . S
C162 C153 1.429 . S
C162 N159 1.350 . S
C162 C161 1.434 . S
C163 C164 1.369 . S
C163 C165 1.419 . S
C163 H167 0.930 . S
C164 C163 1.369 . S
C164 C173 1.429 . S
C165 C163 1.419 . S
C165 C166 1.363 . S
C165 H168 0.929 . S
C166 C165 1.363 . S
C166 C172 1.428 . S
H167 C163 0.930 . S
H168 C165 0.929 . S
S169 N170 1.613 . S
S169 N171 1.610 . S
N170 S169 1.613 . S
N170 C173 1.350 . S
N171 S169 1.610 . S
N171 C172 1.351 . S
C172 C166 1.428 . S
C172 N171 1.351 . S
C172 C173 1.434 . S
C173 C164 1.429 . S
C173 N170 1.350 . S
C173 C172 1.434 . S
C174 C175 1.369 1_545 S
C174 C176 1.419 . S
C174 H178 0.930 . S
C175 C174 1.369 1_565 S
C175 C184 1.429 1_455 S
C176 C174 1.419 . S
C176 C177 1.363 . S
C176 H179 0.929 . S
C177 C176 1.363 . S
C177 C183 1.428 1_445 S
H178 C174 0.930 . S
H179 C176 0.929 . S
S180 N181 1.613 . S
S180 N182 1.610 . S
N181 S180 1.613 . S
N181 C184 1.350 . S
N182 S180 1.610 . S
N182 C183 1.351 . S
C183 C177 1.428 1_665 S
C183 N182 1.351 . S
C183 C184 1.434 . S
C184 C175 1.429 1_655 S
C184 N181 1.350 . S
C184 C183 1.434 . S
C185 C186 1.369 1_655 S
C185 C187 1.419 . S
C185 H189 0.930 . S
C186 C185 1.369 1_455 S
C186 C195 1.429 . S
C187 C185 1.419 . S
C187 C188 1.363 1_665 S
C187 H190 0.929 . S
C188 C187 1.363 1_445 S
C188 C194 1.428 . S
H189 C185 0.930 . S
H190 C187 0.929 . S
S191 N192 1.613 . S
S191 N193 1.610 . S
N192 S191 1.613 . S
N192 C195 1.349 1_545 S
N193 S191 1.610 . S
N193 C194 1.351 . S
C194 C188 1.428 . S
C194 N193 1.351 . S
C194 C195 1.433 1_545 S
C195 C186 1.429 . S
C195 N192 1.349 1_565 S
C195 C194 1.433 1_565 S
C196 C197 1.369 . S
C196 C198 1.419 . S
C196 H200 0.930 . S
C197 C196 1.369 . S
C197 C206 1.429 . S
C198 C196 1.419 . S
C198 C199 1.363 . S
C198 H201 0.929 . S
C199 C198 1.363 . S
C199 C205 1.428 . S
H200 C196 0.930 . S
H201 C198 0.929 . S
S202 N203 1.613 . S
S202 N204 1.610 . S
N203 S202 1.613 . S
N203 C206 1.350 . S
N204 S202 1.610 . S
N204 C205 1.351 . S
C205 C199 1.428 . S
C205 N204 1.351 . S
C205 C206 1.434 . S
C206 C197 1.429 . S
C206 N203 1.350 . S
C206 C205 1.434 . S
C207 C208 1.369 . S
C207 C209 1.419 . S
C207 H211 0.930 . S
C208 C207 1.369 . S
C208 C217 1.429 . S
C209 C207 1.419 . S
C209 C210 1.363 . S
C209 H212 0.929 . S
C210 C209 1.363 . S
C210 C216 1.428 . S
H211 C207 0.930 . S
H212 C209 0.929 . S
S213 N214 1.613 . S
S213 N215 1.610 . S
N214 S213 1.613 . S
N214 C217 1.350 . S
N215 S213 1.610 . S
N215 C216 1.351 . S
C216 C210 1.428 . S
C216 N215 1.351 . S
C216 C217 1.434 . S
C217 C208 1.429 . S
C217 N214 1.350 . S
C217 C216 1.434 . S
C89 C80 1.170 . S
C87 C3 1.222 . S
C98 C4 1.472 . S
C100 C69 1.418 . S
C109 C19 1.471 1_554 S
C111 C83 1.555 . S
C120 C7 1.227 . S
C122 C72 1.331 . S
C131 C37 1.226 . S
C133 C58 1.173 . S
C142 C28 1.479 . S
C144 C47 1.429 . S
C155 C61 1.555 . S
C153 C41 1.480 . S
C166 C50 1.332 . S
C164 C25 1.228 . S
C175 C20 1.366 . S
C177 C49 1.478 . S
C186 C16 1.384 1_455 S
C188 C60 1.511 . S
C199 C71 1.479 . S
C197 C40 1.357 . S
C208 C24 1.377 . S
C210 C82 1.515 . S
