# Generated by pormake.
# Topology nia, (6,6)-cn, num edge types: 1
# Building blocks:
#     Node 0, Type 0, BuildingBlock: BETDEL_clean_sbu_0, # of connection points: 6
#     Node 1, Type 0, BuildingBlock: BETDEL_clean_sbu_0, # of connection points: 6
#     Node 2, Type 1, BuildingBlock: MIDCAF_clean_sbu_0, # of connection points: 6
#     Node 3, Type 1, BuildingBlock: MIDCAF_clean_sbu_0, # of connection points: 6
#     Edge 4, Type (0, 1), BuildingBlock: OJICUG_clean_linker_0, # of connection points: 2
#     Edge 5, Type (0, 1), BuildingBlock: OJICUG_clean_linker_0, # of connection points: 2
#     Edge 6, Type (0, 1), BuildingBlock: OJICUG_clean_linker_0, # of connection points: 2
#     Edge 7, Type (0, 1), BuildingBlock: OJICUG_clean_linker_0, # of connection points: 2
#     Edge 8, Type (0, 1), BuildingBlock: OJICUG_clean_linker_0, # of connection points: 2
#     Edge 9, Type (0, 1), BuildingBlock: OJICUG_clean_linker_0, # of connection points: 2
#     Edge 10, Type (0, 1), BuildingBlock: OJICUG_clean_linker_0, # of connection points: 2
#     Edge 11, Type (0, 1), BuildingBlock: OJICUG_clean_linker_0, # of connection points: 2
#     Edge 12, Type (0, 1), BuildingBlock: OJICUG_clean_linker_0, # of connection points: 2
#     Edge 13, Type (0, 1), BuildingBlock: OJICUG_clean_linker_0, # of connection points: 2
#     Edge 14, Type (0, 1), BuildingBlock: OJICUG_clean_linker_0, # of connection points: 2
#     Edge 15, Type (0, 1), BuildingBlock: OJICUG_clean_linker_0, # of connection points: 2
# Relax obj value: 0.222
# Max RMSD: 0.247
# Mean RMSD: 0.209
data_MOF--net-nia--node1-BETDEL_clean_sbu_0--node2-MIDCAF_clean_sbu_0--edge1-OJICUG_clean_linker_0
_symmetry_space_group_name_H-M    P1
_symmetry_Int_Tables_number       1
_symmetry_cell_setting            triclinic
loop_
_symmetry_equiv_pos_as_xyz
'x, y, z'
_cell_length_a     18.576434
_cell_length_b     19.565913
_cell_length_c     20.34924
_cell_angle_alpha  78.183664
_cell_angle_beta   93.594112
_cell_angle_gamma 124.31836
loop_
_atom_site_label
_atom_site_type_symbol
_atom_site_fract_x
_atom_site_fract_y
_atom_site_fract_z
_atom_type_partial_charge
Dy0 Dy 0.0049 0.01238 0.14422 0.0
C1 C 0.85173 0.72338 1.02344 0.0
C2 C 0.09278 0.16564 0.18004 0.0
Dy3 Dy 0.92334 0.86961 1.06969 0.0
O4 O 0.0697 0.09506 0.22071 0.0
O5 O 0.06998 0.15265 0.11994 0.0
O6 O 0.90977 0.93097 0.23399 0.0
O7 O 0.8707 0.90535 0.13899 0.0
C8 C 0.84804 0.87858 0.2009 0.0
C9 C 0.07851 0.00752 1.01337 0.0
O10 O 0.8546 0.93023 1.02307 0.0
O11 O -0.04998 0.05697 1.05735 0.0
O12 O 0.80767 0.75084 1.04071 0.0
O13 O 0.93354 0.7749 1.03241 0.0
O14 O 0.01479 -0.04086 0.97917 0.0
O15 O 0.05708 -0.02284 1.07512 0.0
O16 O 0.07894 -0.04539 0.17868 0.0
O17 O -0.03515 0.82244 0.16513 0.0
C18 C 0.88452 0.0102 1.02153 0.0
C19 C 0.04021 0.8717 0.19093 0.0
Dy20 Dy 0.92606 -0.02678 0.65521 0.0
C21 C 0.04439 0.82677 0.49836 0.0
C22 C 0.89156 0.07216 0.70256 0.0
Dy23 Dy -0.00651 0.90805 0.55634 0.0
O24 O 0.89266 0.01033 0.73985 0.0
O25 O 0.90983 0.08025 0.63961 0.0
O26 O 0.84775 0.84987 0.73173 0.0
O27 O 0.9159 0.86064 0.64919 0.0
C28 C 0.86777 0.81011 0.70091 0.0
C29 C 0.02416 0.0624 0.5141 0.0
O30 O 0.85541 0.85017 0.52979 0.0
O31 O 0.82356 0.92861 0.57965 0.0
O32 O 0.09037 0.90798 0.49499 0.0
O33 O -0.02864 0.7905 0.53351 0.0
O34 O 0.01275 0.01465 0.47287 0.0
O35 O 0.02413 0.02695 0.57297 0.0
O36 O 0.05969 0.02049 0.68944 0.0
O37 O 0.09213 -0.05536 0.63582 0.0
C38 C 0.80389 0.87409 0.54064 0.0
C39 C 0.11026 -0.00461 0.67833 0.0
Zn40 Zn 0.31558 0.65826 0.22418 0.0
Zn41 Zn 0.27543 0.58069 0.4821 0.0
Zn42 Zn 0.29951 0.61266 0.35367 0.0
C43 C 0.45456 0.69206 0.45292 0.0
C44 C 0.20527 0.42566 0.44745 0.0
O45 O 0.23643 0.68151 0.31508 0.0
O46 O 0.27336 0.73256 0.20611 0.0
C47 C 0.48251 0.71459 0.26476 0.0
O48 O 0.43103 0.6776 0.39359 0.0
O49 O 0.3981 0.66092 0.50095 0.0
O50 O 0.22781 0.45996 0.49791 0.0
O51 O 0.22345 0.47167 0.38763 0.0
O52 O 0.44109 0.70821 0.21231 0.0
O53 O 0.44225 0.68747 0.32335 0.0
O54 O 0.23981 0.49508 0.31559 0.0
O55 O 0.24034 0.54258 0.207 0.0
C56 C 0.22201 0.48205 0.25529 0.0
O57 O 0.22677 0.66202 0.38515 0.0
O58 O 0.19245 0.6097 0.49422 0.0
C59 C 0.23479 0.72492 0.25862 0.0
C60 C 0.18835 0.6522 0.44037 0.0
Zn61 Zn 0.61482 0.23039 0.98787 0.0
Zn62 Zn 0.63898 0.30036 0.72439 0.0
Zn63 Zn 0.62083 0.26455 0.85589 0.0
C64 C 0.70997 0.45251 0.76109 0.0
C65 C 0.46089 0.1832 0.76046 0.0
O66 O 0.68796 0.19914 0.89239 0.0
O67 O 0.65684 0.15528 1.0025 0.0
C68 C 0.7078 0.40479 0.94868 0.0
O69 O 0.68887 0.40359 0.8198 0.0
O70 O 0.69196 0.4224 0.70863 0.0
O71 O 0.51447 0.22024 0.7097 0.0
O72 O 0.48753 0.1947 0.81977 0.0
O73 O 0.69447 0.34916 0.9998 0.0
O74 O 0.68236 0.38474 0.89106 0.0
O75 O 0.48006 0.18724 0.89001 0.0
O76 O 0.48845 0.18125 0.99982 0.0
C77 C 0.44335 0.16664 0.94904 0.0
O78 O 0.69668 0.22004 0.82161 0.0
O79 O 0.71868 0.2686 0.71143 0.0
C80 C 0.69181 0.15861 0.94972 0.0
C81 C 0.73062 0.2302 0.76397 0.0
C82 C 0.18175 0.88699 0.21039 0.0
C83 C 0.0902 0.83643 0.22045 0.0
H84 H 0.29917 0.89018 0.21388 0.0
C85 C 0.04772 0.75046 0.25108 0.0
H86 H 0.21633 -0.04671 0.18641 0.0
C87 C 0.09582 0.71497 0.26845 0.0
C88 C 0.18648 0.76458 0.25366 0.0
H89 H -0.02275 0.71019 0.25942 0.0
H90 H 0.06171 0.64793 0.28967 0.0
C91 C 0.22925 0.85103 0.22582 0.0
C92 C 0.22221 0.0966 0.74659 0.0
C93 C 0.19591 0.03423 0.70867 0.0
H94 H 0.32784 0.19345 0.79248 0.0
C95 C 0.25588 0.01635 0.69411 0.0
H96 H 0.17795 0.11231 0.7587 0.0
C97 C 0.34126 0.06262 0.714 0.0
C98 C 0.36797 0.1268 0.74948 0.0
H99 H 0.23815 -0.03096 0.66498 0.0
H100 H 0.38735 0.05001 0.6999 0.0
C101 C 0.30782 0.14302 0.76624 0.0
C102 C 0.11257 0.30438 0.16093 0.0
C103 C 0.127 0.24602 0.20038 0.0
H104 H 0.12818 0.42303 0.14911 0.0
C105 C 0.17095 0.26414 0.25961 0.0
H106 H 0.07819 0.29147 0.11528 0.0
C107 C 0.20171 0.34087 0.27822 0.0
C108 C 0.18536 0.39844 0.23948 0.0
H109 H 0.18293 0.21991 0.29066 0.0
H110 H 0.23912 0.3556 0.3223 0.0
C111 C 0.14075 0.37942 0.18055 0.0
C112 C 0.79871 0.0788 0.78052 0.0
C113 C 0.86109 0.11818 0.72602 0.0
H114 H 0.70383 0.08143 0.83248 0.0
C115 C 0.88634 0.19788 0.68896 0.0
H116 H 0.77724 0.01644 0.80899 0.0
C117 C 0.84744 0.23655 0.70458 0.0
C118 C 0.7814 0.19533 0.75664 0.0
H119 H 0.93427 0.22915 0.64664 0.0
H120 H 0.8665 0.29729 0.67406 0.0
C121 C 0.75773 0.11644 0.79479 0.0
C122 C 0.72782 0.84589 0.27821 0.0
C123 C 0.75539 0.82766 0.22525 0.0
H124 H 0.61898 0.82758 0.32994 0.0
C125 C 0.69262 0.76774 0.18963 0.0
H126 H 0.77506 0.89322 0.30565 0.0
C127 C 0.60393 0.72857 0.20514 0.0
C128 C 0.5761 0.74914 0.25611 0.0
H129 H 0.71221 0.75311 0.14835 0.0
H130 H 0.55689 0.68375 0.17578 0.0
C131 C 0.63867 0.80781 0.29276 0.0
C132 C 0.76561 0.66715 0.77224 0.0
C133 C 0.83348 0.71977 0.7215 0.0
H134 H 0.67208 0.5398 0.82419 0.0
C135 C 0.86569 0.68465 0.68929 0.0
H136 H 0.73987 0.69289 0.7982 0.0
C137 C 0.82715 0.59763 0.70428 0.0
C138 C 0.75698 0.54456 0.75293 0.0
H139 H 0.91989 0.72422 0.6521 0.0
H140 H 0.85127 0.57152 0.67702 0.0
C141 C 0.72749 0.57994 0.7878 0.0
C142 C 0.02988 0.69305 0.49671 0.0
C143 C 0.07456 0.7808 0.47368 0.0
H144 H 0.03167 0.58336 0.50371 0.0
C145 C 0.15141 0.82417 0.43184 0.0
H146 H -0.02962 0.65811 0.52893 0.0
C147 C 0.18564 0.7809 0.41645 0.0
C148 C 0.14376 0.69414 0.44332 0.0
H149 H 0.18672 0.89185 0.41324 0.0
H150 H 0.24742 0.81611 0.38714 0.0
C151 C 0.06473 0.65026 0.48226 0.0
C152 C 0.23428 0.11765 1.02318 0.0
C153 C 0.17077 0.05685 0.98853 0.0
H154 H 0.37029 0.20096 1.03656 0.0
C155 C 0.19729 0.03487 0.93774 0.0
H156 H 0.21535 0.13465 1.06317 0.0
C157 C 0.28618 0.07086 0.92398 0.0
C158 C 0.34958 0.13112 0.95919 0.0
H159 H 0.14936 -0.01367 0.91154 0.0
H160 H 0.30504 0.04883 0.88819 0.0
C161 C 0.32273 0.1548 1.00837 0.0
C162 C 0.0532 0.19391 0.43451 0.0
C163 C 0.06839 0.15481 0.49457 0.0
H164 H 0.08155 0.31134 0.37366 0.0
C165 C 0.12901 0.20518 0.53714 0.0
H166 H 0.00621 0.15614 0.40114 0.0
C167 C 0.17452 0.29269 0.51998 0.0
C168 C 0.15957 0.33264 0.46039 0.0
H169 H 0.14266 0.17704 0.58358 0.0
H170 H 0.22153 0.32924 0.55395 0.0
C171 C 0.0972 0.28243 0.41828 0.0
C172 C 0.87832 0.13179 0.96152 0.0
C173 C 0.83493 0.04491 0.98938 0.0
H174 H 0.8659 0.23564 0.92487 0.0
C175 C 0.74325 -0.00562 0.99679 0.0
H176 H -0.051 0.17218 0.95578 0.0
C177 C 0.69624 0.03114 0.98131 0.0
C178 C 0.73991 0.11841 0.9559 0.0
H179 H 0.70826 0.92757 1.01918 0.0
H180 H 0.62596 -0.00811 0.99117 0.0
C181 C 0.83102 0.16808 0.94403 0.0
C182 C 0.69138 0.77196 0.47284 0.0
C183 C 0.71765 0.83391 0.51117 0.0
H184 H 0.58653 0.678 0.42413 0.0
C185 C 0.65823 0.85275 0.52504 0.0
H186 H 0.73538 0.75574 0.46116 0.0
C187 C 0.57363 0.80844 0.50353 0.0
C188 C 0.54696 0.74523 0.467 0.0
H189 H 0.67595 0.89991 0.55432 0.0
H190 H 0.52821 0.82234 0.51671 0.0
C191 C 0.60646 0.72762 0.4513 0.0
C192 C 0.8694 0.61706 0.99151 0.0
C193 C 0.8157 0.64494 0.99861 0.0
H194 H 0.87666 0.51826 0.96954 0.0
C195 C 0.72793 0.59644 0.98325 0.0
H196 H 0.93736 0.65326 1.00309 0.0
C197 C 0.69387 0.51996 0.96304 0.0
C198 C 0.74717 0.49129 0.95783 0.0
H199 H 0.68533 0.61671 0.9881 0.0
H200 H 0.62521 0.48175 0.95374 0.0
C201 C 0.83513 0.54037 0.97193 0.0
loop_
_geom_bond_atom_site_label_1
_geom_bond_atom_site_label_2
_geom_bond_distance
_geom_bond_site_symmetry_2
_ccdc_geom_bond_type
Dy0 O4 2.398 . S
Dy0 O5 2.491 . S
Dy0 O6 2.403 1_455 S
Dy0 O7 2.664 1_445 S
Dy0 O11 2.326 1_455 S
Dy0 O15 2.310 1_554 S
Dy0 O16 2.351 1_545 S
C1 O12 1.185 . S
C1 O13 1.355 . S
C2 O4 1.185 . S
C2 O5 1.355 . S
Dy3 O7 2.310 1_556 S
Dy3 O10 2.351 1_565 S
Dy3 O12 2.398 . S
Dy3 O13 2.491 . S
Dy3 O14 2.403 1_665 S
Dy3 O15 2.664 1_665 S
Dy3 O17 2.326 1_656 S
O4 Dy0 2.398 . S
O4 C2 1.185 . S
O5 Dy0 2.491 . S
O5 C2 1.355 . S
O6 Dy0 2.403 1_655 S
O6 C8 1.254 1_545 S
O7 Dy0 2.664 1_665 S
O7 Dy3 2.310 1_554 S
O7 C8 1.268 . S
C8 O6 1.254 1_565 S
C8 O7 1.268 . S
C9 O14 1.254 . S
C9 O15 1.268 . S
O10 Dy3 2.351 1_545 S
O10 C18 1.249 . S
O11 Dy0 2.326 1_655 S
O11 C18 1.267 1_554 S
O12 C1 1.185 . S
O12 Dy3 2.398 . S
O13 C1 1.355 . S
O13 Dy3 2.491 . S
O14 Dy3 2.403 1_445 S
O14 C9 1.254 . S
O15 Dy0 2.310 1_556 S
O15 Dy3 2.664 1_445 S
O15 C9 1.268 . S
O16 Dy0 2.351 1_565 S
O16 C19 1.249 . S
O17 Dy3 2.326 1_454 S
O17 C19 1.267 . S
C18 O10 1.249 . S
C18 O11 1.267 1_556 S
C19 O16 1.249 . S
C19 O17 1.267 . S
Dy20 O24 2.398 . S
Dy20 O25 2.491 . S
Dy20 O26 2.403 1_545 S
Dy20 O27 2.664 1_545 S
Dy20 O31 2.326 1_545 S
Dy20 O35 2.310 1_655 S
Dy20 O36 2.351 1_655 S
C21 O32 1.185 . S
C21 O33 1.355 . S
C22 O24 1.185 . S
C22 O25 1.355 . S
Dy23 O27 2.310 1_455 S
Dy23 O30 2.351 1_455 S
Dy23 O32 2.398 . S
Dy23 O33 2.491 . S
Dy23 O34 2.403 1_565 S
Dy23 O35 2.664 1_565 S
Dy23 O37 2.326 1_565 S
O24 Dy20 2.398 . S
O24 C22 1.185 . S
O25 Dy20 2.491 . S
O25 C22 1.355 . S
O26 Dy20 2.403 1_565 S
O26 C28 1.254 . S
O27 Dy20 2.664 1_565 S
O27 Dy23 2.310 1_655 S
O27 C28 1.268 . S
C28 O26 1.254 . S
C28 O27 1.268 . S
C29 O34 1.254 . S
C29 O35 1.268 . S
O30 Dy23 2.351 1_655 S
O30 C38 1.249 . S
O31 Dy20 2.326 1_565 S
O31 C38 1.267 . S
O32 C21 1.185 . S
O32 Dy23 2.398 . S
O33 C21 1.355 . S
O33 Dy23 2.491 . S
O34 Dy23 2.403 1_545 S
O34 C29 1.254 . S
O35 Dy20 2.310 1_455 S
O35 Dy23 2.664 1_545 S
O35 C29 1.268 . S
O36 Dy20 2.351 1_455 S
O36 C39 1.249 . S
O37 Dy23 2.326 1_545 S
O37 C39 1.267 . S
C38 O30 1.249 . S
C38 O31 1.267 . S
C39 O36 1.249 . S
C39 O37 1.267 . S
Zn40 O46 1.920 . S
Zn40 O52 1.898 . S
Zn40 O55 1.905 . S
Zn41 O49 1.905 . S
Zn41 O50 1.898 . S
Zn41 O58 1.920 . S
Zn42 O45 2.080 . S
Zn42 O48 2.114 . S
Zn42 O51 2.120 . S
Zn42 O53 2.120 . S
Zn42 O54 2.114 . S
Zn42 O57 2.080 . S
C43 O48 1.166 . S
C43 O49 1.182 . S
C44 O50 1.167 . S
C44 O51 1.299 . S
O45 Zn42 2.080 . S
O45 C59 1.305 . S
O46 Zn40 1.920 . S
O46 C59 1.234 . S
C47 O52 1.167 . S
C47 O53 1.299 . S
O48 Zn42 2.114 . S
O48 C43 1.166 . S
O49 Zn41 1.905 . S
O49 C43 1.182 . S
O50 Zn41 1.898 . S
O50 C44 1.167 . S
O51 Zn42 2.120 . S
O51 C44 1.299 . S
O52 Zn40 1.898 . S
O52 C47 1.167 . S
O53 Zn42 2.120 . S
O53 C47 1.299 . S
O54 Zn42 2.114 . S
O54 C56 1.166 . S
O55 Zn40 1.905 . S
O55 C56 1.182 . S
C56 O54 1.166 . S
C56 O55 1.182 . S
O57 Zn42 2.080 . S
O57 C60 1.305 . S
O58 Zn41 1.920 . S
O58 C60 1.234 . S
C59 O45 1.305 . S
C59 O46 1.234 . S
C60 O57 1.305 . S
C60 O58 1.234 . S
Zn61 O67 1.920 . S
Zn61 O73 1.898 . S
Zn61 O76 1.905 . S
Zn62 O70 1.905 . S
Zn62 O71 1.898 . S
Zn62 O79 1.920 . S
Zn63 O66 2.080 . S
Zn63 O69 2.114 . S
Zn63 O72 2.120 . S
Zn63 O74 2.120 . S
Zn63 O75 2.114 . S
Zn63 O78 2.080 . S
C64 O69 1.166 . S
C64 O70 1.182 . S
C65 O71 1.167 . S
C65 O72 1.299 . S
O66 Zn63 2.080 . S
O66 C80 1.305 . S
O67 Zn61 1.920 . S
O67 C80 1.234 . S
C68 O73 1.167 . S
C68 O74 1.299 . S
O69 Zn63 2.114 . S
O69 C64 1.166 . S
O70 Zn62 1.905 . S
O70 C64 1.182 . S
O71 Zn62 1.898 . S
O71 C65 1.167 . S
O72 Zn63 2.120 . S
O72 C65 1.299 . S
O73 Zn61 1.898 . S
O73 C68 1.167 . S
O74 Zn63 2.120 . S
O74 C68 1.299 . S
O75 Zn63 2.114 . S
O75 C77 1.166 . S
O76 Zn61 1.905 . S
O76 C77 1.182 . S
C77 O75 1.166 . S
C77 O76 1.182 . S
O78 Zn63 2.080 . S
O78 C81 1.305 . S
O79 Zn62 1.920 . S
O79 C81 1.234 . S
C80 O66 1.305 . S
C80 O67 1.234 . S
C81 O78 1.305 . S
C81 O79 1.234 . S
C82 C83 1.387 . S
C82 H86 0.950 . S
C82 C91 1.390 . S
C83 C82 1.387 . S
C83 C85 1.387 . S
H84 C91 0.950 . S
C85 C83 1.387 . S
C85 C87 1.390 . S
C85 H89 0.950 . S
H86 C82 0.950 . S
C87 C85 1.390 . S
C87 C88 1.387 . S
C87 H90 0.950 . S
C88 C87 1.387 . S
C88 C91 1.387 . S
H89 C85 0.950 . S
H90 C87 0.950 . S
C91 C82 1.390 . S
C91 H84 0.950 . S
C91 C88 1.387 . S
C92 C93 1.387 . S
C92 H96 0.950 . S
C92 C101 1.390 . S
C93 C92 1.387 . S
C93 C95 1.387 . S
H94 C101 0.950 . S
C95 C93 1.387 . S
C95 C97 1.390 . S
C95 H99 0.950 . S
H96 C92 0.950 . S
C97 C95 1.390 . S
C97 C98 1.387 . S
C97 H100 0.950 . S
C98 C97 1.387 . S
C98 C101 1.387 . S
H99 C95 0.950 . S
H100 C97 0.950 . S
C101 C92 1.390 . S
C101 H94 0.950 . S
C101 C98 1.387 . S
C102 C103 1.387 . S
C102 H106 0.950 . S
C102 C111 1.390 . S
C103 C102 1.387 . S
C103 C105 1.387 . S
H104 C111 0.950 . S
C105 C103 1.387 . S
C105 C107 1.390 . S
C105 H109 0.950 . S
H106 C102 0.950 . S
C107 C105 1.390 . S
C107 C108 1.387 . S
C107 H110 0.950 . S
C108 C107 1.387 . S
C108 C111 1.387 . S
H109 C105 0.950 . S
H110 C107 0.950 . S
C111 C102 1.390 . S
C111 H104 0.950 . S
C111 C108 1.387 . S
C112 C113 1.387 . S
C112 H116 0.950 . S
C112 C121 1.390 . S
C113 C112 1.387 . S
C113 C115 1.387 . S
H114 C121 0.950 . S
C115 C113 1.387 . S
C115 C117 1.390 . S
C115 H119 0.950 . S
H116 C112 0.950 . S
C117 C115 1.390 . S
C117 C118 1.387 . S
C117 H120 0.950 . S
C118 C117 1.387 . S
C118 C121 1.387 . S
H119 C115 0.950 . S
H120 C117 0.950 . S
C121 C112 1.390 . S
C121 H114 0.950 . S
C121 C118 1.387 . S
C122 C123 1.387 . S
C122 H126 0.950 . S
C122 C131 1.390 . S
C123 C122 1.387 . S
C123 C125 1.387 . S
H124 C131 0.950 . S
C125 C123 1.387 . S
C125 C127 1.390 . S
C125 H129 0.950 . S
H126 C122 0.950 . S
C127 C125 1.390 . S
C127 C128 1.387 . S
C127 H130 0.950 . S
C128 C127 1.387 . S
C128 C131 1.387 . S
H129 C125 0.950 . S
H130 C127 0.950 . S
C131 C122 1.390 . S
C131 H124 0.950 . S
C131 C128 1.387 . S
C132 C133 1.387 . S
C132 H136 0.950 . S
C132 C141 1.390 . S
C133 C132 1.387 . S
C133 C135 1.387 . S
H134 C141 0.950 . S
C135 C133 1.387 . S
C135 C137 1.390 . S
C135 H139 0.950 . S
H136 C132 0.950 . S
C137 C135 1.390 . S
C137 C138 1.387 . S
C137 H140 0.950 . S
C138 C137 1.387 . S
C138 C141 1.387 . S
H139 C135 0.950 . S
H140 C137 0.950 . S
C141 C132 1.390 . S
C141 H134 0.950 . S
C141 C138 1.387 . S
C142 C143 1.387 . S
C142 H146 0.950 . S
C142 C151 1.390 . S
C143 C142 1.387 . S
C143 C145 1.387 . S
H144 C151 0.950 . S
C145 C143 1.387 . S
C145 C147 1.390 . S
C145 H149 0.950 1_565 S
H146 C142 0.950 . S
C147 C145 1.390 . S
C147 C148 1.387 . S
C147 H150 0.950 . S
C148 C147 1.387 . S
C148 C151 1.387 . S
H149 C145 0.950 1_545 S
H150 C147 0.950 . S
C151 C142 1.390 . S
C151 H144 0.950 . S
C151 C148 1.387 . S
C152 C153 1.387 . S
C152 H156 0.950 . S
C152 C161 1.390 . S
C153 C152 1.387 . S
C153 C155 1.387 . S
H154 C161 0.950 . S
C155 C153 1.387 . S
C155 C157 1.390 . S
C155 H159 0.950 . S
H156 C152 0.950 . S
C157 C155 1.390 . S
C157 C158 1.387 . S
C157 H160 0.950 . S
C158 C157 1.387 . S
C158 C161 1.387 . S
H159 C155 0.950 . S
H160 C157 0.950 . S
C161 C152 1.390 . S
C161 H154 0.950 . S
C161 C158 1.387 . S
C162 C163 1.387 . S
C162 H166 0.950 . S
C162 C171 1.390 . S
C163 C162 1.387 . S
C163 C165 1.387 . S
H164 C171 0.950 . S
C165 C163 1.387 . S
C165 C167 1.390 . S
C165 H169 0.950 . S
H166 C162 0.950 . S
C167 C165 1.390 . S
C167 C168 1.387 . S
C167 H170 0.950 . S
C168 C167 1.387 . S
C168 C171 1.387 . S
H169 C165 0.950 . S
H170 C167 0.950 . S
C171 C162 1.390 . S
C171 H164 0.950 . S
C171 C168 1.387 . S
C172 C173 1.387 . S
C172 H176 0.950 . S
C172 C181 1.390 . S
C173 C172 1.387 . S
C173 C175 1.387 . S
H174 C181 0.950 . S
C175 C173 1.387 . S
C175 C177 1.390 . S
C175 H179 0.950 . S
H176 C172 0.950 . S
C177 C175 1.390 . S
C177 C178 1.387 . S
C177 H180 0.950 . S
C178 C177 1.387 . S
C178 C181 1.387 . S
H179 C175 0.950 . S
H180 C177 0.950 . S
C181 C172 1.390 . S
C181 H174 0.950 . S
C181 C178 1.387 . S
C182 C183 1.387 . S
C182 H186 0.950 . S
C182 C191 1.390 . S
C183 C182 1.387 . S
C183 C185 1.387 . S
H184 C191 0.950 . S
C185 C183 1.387 . S
C185 C187 1.390 . S
C185 H189 0.950 . S
H186 C182 0.950 . S
C187 C185 1.390 . S
C187 C188 1.387 . S
C187 H190 0.950 . S
C188 C187 1.387 . S
C188 C191 1.387 . S
H189 C185 0.950 . S
H190 C187 0.950 . S
C191 C182 1.390 . S
C191 H184 0.950 . S
C191 C188 1.387 . S
C192 C193 1.387 . S
C192 H196 0.950 . S
C192 C201 1.390 . S
C193 C192 1.387 . S
C193 C195 1.387 . S
H194 C201 0.950 . S
C195 C193 1.387 . S
C195 C197 1.390 . S
C195 H199 0.950 . S
H196 C192 0.950 . S
C197 C195 1.390 . S
C197 C198 1.387 . S
C197 H200 0.950 . S
C198 C197 1.387 . S
C198 C201 1.387 . S
H199 C195 0.950 . S
H200 C197 0.950 . S
C201 C192 1.390 . S
C201 H194 0.950 . S
C201 C198 1.387 . S
C83 C19 1.656 . S
C88 C59 1.558 . S
C93 C39 1.345 . S
C98 C65 1.220 . S
C103 C2 1.175 . S
C108 C56 1.109 . S
C113 C22 1.438 . S
C118 C81 1.358 . S
C123 C8 1.779 . S
C128 C47 1.678 . S
C138 C64 1.773 . S
C133 C28 1.852 . S
C143 C21 1.337 . S
C148 C60 1.255 . S
C158 C77 1.569 . S
C153 C9 1.658 . S
C168 C44 1.726 . S
C163 C29 1.851 . S
C178 C80 1.660 . S
C173 C18 1.723 . S
C188 C43 1.344 . S
C183 C38 1.431 . S
C198 C68 1.094 . S
C193 C1 1.207 . S
