# Generated by pormake.
# Topology csq, (4,8)-cn, num edge types: 1
# Building blocks:
#     Node 0, Type 0, BuildingBlock: MUDLON_clean_sbu_0, # of connection points: 4
#     Node 1, Type 0, BuildingBlock: MUDLON_clean_sbu_0, # of connection points: 4
#     Node 2, Type 0, BuildingBlock: MUDLON_clean_sbu_0, # of connection points: 4
#     Node 3, Type 0, BuildingBlock: MUDLON_clean_sbu_0, # of connection points: 4
#     Node 4, Type 0, BuildingBlock: MUDLON_clean_sbu_0, # of connection points: 4
#     Node 5, Type 0, BuildingBlock: MUDLON_clean_sbu_0, # of connection points: 4
#     Node 6, Type 1, BuildingBlock: TAGTUT_clean_sbu_3, # of connection points: 8
#     Node 7, Type 1, BuildingBlock: TAGTUT_clean_sbu_3, # of connection points: 8
#     Node 8, Type 1, BuildingBlock: TAGTUT_clean_sbu_3, # of connection points: 8
#     Edge 9, Type (0, 1), None
#     Edge 10, Type (0, 1), None
#     Edge 11, Type (0, 1), None
#     Edge 12, Type (0, 1), None
#     Edge 13, Type (0, 1), None
#     Edge 14, Type (0, 1), None
#     Edge 15, Type (0, 1), None
#     Edge 16, Type (0, 1), None
#     Edge 17, Type (0, 1), None
#     Edge 18, Type (0, 1), None
#     Edge 19, Type (0, 1), None
#     Edge 20, Type (0, 1), None
#     Edge 21, Type (0, 1), None
#     Edge 22, Type (0, 1), None
#     Edge 23, Type (0, 1), None
#     Edge 24, Type (0, 1), None
#     Edge 25, Type (0, 1), None
#     Edge 26, Type (0, 1), None
#     Edge 27, Type (0, 1), None
#     Edge 28, Type (0, 1), None
#     Edge 29, Type (0, 1), None
#     Edge 30, Type (0, 1), None
#     Edge 31, Type (0, 1), None
#     Edge 32, Type (0, 1), None
# Relax obj value: 0.070
# Max RMSD: 0.116
# Mean RMSD: 0.096
data_MOF--net-csq--node1-MUDLON_clean_sbu_0--node2-TAGTUT_clean_sbu_3--edge1-none
_symmetry_space_group_name_H-M    P1
_symmetry_Int_Tables_number       1
_symmetry_cell_setting            triclinic
loop_
_symmetry_equiv_pos_as_xyz
'x, y, z'
_cell_length_a     24.602216
_cell_length_b     23.43092
_cell_length_c     10.381008
_cell_angle_alpha  93.639555
_cell_angle_beta   93.232165
_cell_angle_gamma 122.47709
loop_
_atom_site_label
_atom_site_type_symbol
_atom_site_fract_x
_atom_site_fract_y
_atom_site_fract_z
_atom_type_partial_charge
Mg0 Mg 0.25339 0.4963 0.23702 0.0
C1 C 0.15327 0.36354 0.04683 0.0
O2 O 0.1302 0.29987 0.0038 0.0
C3 C 0.33186 0.46646 0.42642 0.0
O4 O 0.28782 0.40287 0.38255 0.0
C5 C 0.15806 0.46191 0.40619 0.0
O6 O 0.17035 0.41384 0.39794 0.0
O7 O 0.18693 0.51122 0.33772 0.0
O8 O 0.19811 0.39178 0.14142 0.0
O9 O 0.32392 0.5547 0.10621 0.0
C10 C 0.3558 0.52609 0.10612 0.0
O11 O 0.33328 0.46987 0.16074 0.0
O12 O 0.32542 0.51371 0.39292 0.0
Mg13 Mg 0.78993 0.25052 0.16913 0.0
C14 C 0.89188 0.37222 0.05303 0.0
O15 O 0.89 0.40369 0.15999 0.0
C16 C 0.70398 0.26312 0.34138 0.0
O17 O 0.67764 0.29198 0.40096 0.0
C18 C 0.88178 0.31009 0.433 0.0
O19 O 0.83165 0.29739 0.49329 0.0
O20 O 0.87207 0.27931 0.31901 0.0
O21 O 0.84982 0.30929 0.02486 0.0
O22 O 0.7172 0.15862 0.03563 0.0
C23 C 0.664 0.15156 -0.00949 0.0
O24 O 0.64753 0.19207 0.04185 0.0
O25 O 0.74233 0.29386 0.2576 0.0
Mg26 Mg 0.57637 0.82301 0.01505 0.0
C27 C 0.60412 0.90889 0.28408 0.0
O28 O 0.56866 0.84944 0.32728 0.0
C29 C 0.64288 0.79579 0.7805 0.0
O30 O 0.68494 0.82032 0.69471 0.0
C31 C 0.51969 0.87219 0.8242 0.0
O32 O 0.57259 0.88718 0.77212 0.0
O33 O 0.50343 0.83616 0.91892 0.0
O34 O 0.61685 0.9114 0.16604 0.0
O35 O 0.54379 0.73083 0.11235 0.0
C36 C 0.58853 0.742 0.19748 0.0
O37 O 0.64313 0.802 0.21043 0.0
O38 O 0.64339 0.83726 0.86783 0.0
Mg39 Mg 0.81737 0.59316 0.01676 0.0
C40 C 0.71415 0.6018 0.88792 0.0
O41 O 0.68302 0.55635 0.96814 0.0
C42 C 0.88981 0.56302 0.19354 0.0
O43 O 0.84179 0.50133 0.14848 0.0
C44 C 0.74968 0.59758 0.23878 0.0
O45 O 0.73703 0.53533 0.22525 0.0
O46 O 0.78811 0.63958 0.16572 0.0
O47 O 0.77414 0.62667 0.88185 0.0
O48 O 0.89619 0.61283 0.89761 0.0
C49 C 0.91043 0.56813 0.87775 0.0
O50 O 0.87278 0.50732 0.91373 0.0
O51 O 0.88921 0.61431 0.16517 0.0
Mg52 Mg 0.226 0.8371 0.09672 0.0
C53 C 0.19868 0.72822 0.88864 0.0
O54 O 0.18407 0.76332 0.81728 0.0
C55 C 0.35494 0.92507 0.26953 0.0
O56 O 0.36559 0.87755 0.23284 0.0
C57 C 0.1871 0.75329 0.32099 0.0
O58 O 0.24009 0.75579 0.29687 0.0
O59 O 0.16769 0.7831 0.25076 0.0
O60 O 0.23025 0.75502 0.00018 0.0
O61 O 0.17536 0.86494 0.95908 0.0
C62 C 0.19528 0.89727 0.85983 0.0
O63 O 0.15581 0.90747 0.78946 0.0
O64 O 0.30691 0.92403 0.21502 0.0
Mg65 Mg 0.44398 0.26342 0.23909 0.0
C66 C 0.43369 0.34284 0.46041 0.0
O67 O 0.45552 0.31591 0.53825 0.0
C68 C 0.44375 0.16095 0.07863 0.0
O69 O 0.50433 0.20471 0.12531 0.0
C70 C 0.50791 0.38862 0.08021 0.0
O71 O 0.5478 0.42031 0.18646 0.0
O72 O 0.46811 0.3248 0.07345 0.0
O73 O 0.40311 0.30996 0.35079 0.0
O74 O 0.49845 0.24037 0.3786 0.0
C75 C 0.47003 0.19764 0.46112 0.0
O76 O 0.41053 0.17782 0.48184 0.0
O77 O 0.39938 0.16932 0.11428 0.0
C78 C 0.11615 0.46005 0.50232 0.0
C79 C 0.12559 0.39886 -0.01509 0.0
C80 C 0.94971 0.40432 -0.01661 0.0
Mg81 Mg 0.04365 0.52555 0.36816 0.0
Mg82 Mg 0.023 0.63541 0.54409 0.0
O83 O 1.01135 0.54893 0.52238 0.0
Mg84 Mg 0.04415 0.51845 0.66094 0.0
O85 O 0.07902 0.4834 0.79171 0.0
Mg86 Mg 0.02157 0.38421 0.73068 0.0
Mg87 Mg 0.09447 0.51001 0.97144 0.0
C88 C 0.96205 0.57946 0.79774 0.0
O89 O 0.12693 0.62721 0.74929 0.0
O90 O 0.96944 0.54115 0.25648 0.0
O91 O 0.15196 0.61901 0.95775 0.0
O92 O 0.12241 0.63847 0.35406 0.0
O93 O 0.95503 0.6122 0.3869 0.0
O94 O 0.11236 0.71296 0.47881 0.0
O95 O 0.96172 0.40616 0.58515 0.0
O96 O 0.96573 0.41379 0.3733 0.0
C97 C 0.94229 0.37828 0.46695 0.0
C98 C 0.9413 0.57284 0.28317 0.0
O99 O 0.97656 0.53399 0.78764 0.0
O100 O 0.08574 0.3682 0.88147 0.0
O101 O 0.98413 0.62925 0.72826 0.0
O102 O 0.95213 0.36953 0.88602 0.0
O103 O 0.13914 0.45658 0.03744 0.0
O104 O 0.9982 0.46291 0.02975 0.0
O105 O 0.10639 0.50835 0.51725 0.0
O106 O 0.09207 0.41048 0.57309 0.0
C107 C 0.14082 0.69951 0.39449 0.0
C108 C 0.15946 0.65381 0.86183 0.0
C109 C 0.4927 0.15257 0.48834 0.0
C110 C 0.68354 0.19341 0.36513 0.0
C111 C 0.60697 0.96762 0.35235 0.0
Mg112 Mg 0.37966 0.04762 0.66113 0.0
Mg113 Mg 0.40425 0.96784 0.88877 0.0
O114 O 0.41449 0.99148 0.7184 0.0
Mg115 Mg 0.49939 0.03602 0.6374 0.0
O116 O 0.57729 0.07901 0.53889 0.0
Mg117 Mg 0.53731 0.05791 0.35339 0.0
Mg118 Mg 0.65879 0.09114 0.56833 0.0
C119 C 0.49073 0.9116 0.79665 0.0
O120 O 0.57266 0.09781 0.82688 0.0
O121 O 0.282 0.97008 0.74148 0.0
O122 O 0.6659 0.10581 0.78241 0.0
O123 O 0.40831 0.10831 0.86434 0.0
O124 O 0.30035 0.91578 0.89254 0.0
O125 O 0.44098 0.06199 0.00757 0.0
O126 O 0.44153 0.97992 0.43923 0.0
O127 O 0.35385 0.98482 0.4606 0.0
C128 C 0.3861 0.96714 0.39433 0.0
C129 C 0.26247 0.9279 0.82769 0.0
O130 O 0.50864 0.94754 0.69996 0.0
O131 O 0.63354 0.14516 0.29376 0.0
O132 O 0.4556 0.91529 0.88004 0.0
O133 O 0.56534 0.98044 0.30995 0.0
O134 O 0.70204 0.18466 0.47577 0.0
O135 O 0.64768 1.00212 0.4526 0.0
O136 O 0.48085 0.12074 0.59001 0.0
O137 O 0.51439 0.13702 0.39351 0.0
C138 C 0.42951 0.10699 0.97878 0.0
C139 C 0.63091 0.11299 0.86156 0.0
C140 C 0.59967 0.72154 0.77807 0.0
C141 C 0.39982 0.53537 0.01216 0.0
C142 C 0.49907 0.42893 -0.01384 0.0
Mg143 Mg 0.66494 0.68113 0.53942 0.0
Mg144 Mg 0.55628 0.55035 0.32962 0.0
O145 O 0.59462 0.5815 0.50109 0.0
Mg146 Mg 0.53737 0.56515 0.64207 0.0
O147 O 0.48537 0.55212 0.78797 0.0
Mg148 Mg 0.55112 0.59211 0.94214 0.0
Mg149 Mg 0.42199 0.45934 0.7923 0.0
C150 C 0.46921 0.4175 0.47281 0.0
O151 O 0.44282 0.53748 0.51595 0.0
O152 O 0.7224 0.65748 0.39155 0.0
O153 O 0.37392 0.43935 0.60068 0.0
O154 O 0.62691 0.71321 0.37534 0.0
O155 O 0.64324 0.56325 0.2651 0.0
O156 O 0.54354 0.62705 0.24846 0.0
O157 O 0.6168 0.5847 0.79356 0.0
O158 O 0.70689 0.65207 0.70439 0.0
C159 C 0.67801 0.6161 0.79442 0.0
C160 C 0.70316 0.60842 0.30035 0.0
O161 O 0.49361 0.45071 0.58659 0.0
O162 O 0.4613 0.57824 0.04079 0.0
O163 O 0.47956 0.44681 0.36777 0.0
O164 O 0.53167 0.49313 0.0138 0.0
O165 O 0.37603 0.48493 0.92479 0.0
O166 O 0.45501 0.40061 0.88994 0.0
O167 O 0.59104 0.68204 0.67701 0.0
O168 O 0.58031 0.69749 0.88479 0.0
C169 C 0.58366 0.69081 0.27956 0.0
C170 C 0.38625 0.48223 0.51831 0.0
loop_
_geom_bond_atom_site_label_1
_geom_bond_atom_site_label_2
_geom_bond_distance
_geom_bond_site_symmetry_2
_ccdc_geom_bond_type
Mg0 O7 2.141 . S
Mg0 O8 2.048 . S
Mg0 O9 2.048 . S
Mg0 O12 2.141 . S
C1 O2 1.313 . S
C1 O8 1.195 . S
O2 C1 1.313 . S
C3 O4 1.245 . S
C3 O12 1.289 . S
O4 C3 1.245 . S
C5 O6 1.245 . S
C5 O7 1.289 . S
O6 C5 1.245 . S
O7 Mg0 2.141 . S
O7 C5 1.289 . S
O8 Mg0 2.048 . S
O8 C1 1.195 . S
O9 Mg0 2.048 . S
O9 C10 1.195 . S
C10 O9 1.195 . S
C10 O11 1.313 . S
O11 C10 1.313 . S
O12 Mg0 2.141 . S
O12 C3 1.289 . S
Mg13 O20 2.141 . S
Mg13 O21 2.048 . S
Mg13 O22 2.048 1_554 S
Mg13 O25 2.141 . S
C14 O15 1.313 . S
C14 O21 1.195 1_556 S
O15 C14 1.313 . S
C16 O17 1.245 . S
C16 O25 1.289 . S
O17 C16 1.245 . S
C18 O19 1.245 . S
C18 O20 1.289 . S
O19 C18 1.245 . S
O20 Mg13 2.141 . S
O20 C18 1.289 . S
O21 Mg13 2.048 . S
O21 C14 1.195 1_554 S
O22 Mg13 2.048 1_556 S
O22 C23 1.195 . S
C23 O22 1.195 . S
C23 O24 1.313 . S
O24 C23 1.313 . S
O25 Mg13 2.141 . S
O25 C16 1.289 . S
Mg26 O33 2.141 1_554 S
Mg26 O34 2.048 . S
Mg26 O35 2.048 . S
Mg26 O38 2.141 1_554 S
C27 O28 1.313 . S
C27 O34 1.195 . S
O28 C27 1.313 . S
C29 O30 1.245 . S
C29 O38 1.289 . S
O30 C29 1.245 . S
C31 O32 1.245 . S
C31 O33 1.289 . S
O32 C31 1.245 . S
O33 Mg26 2.141 1_556 S
O33 C31 1.289 . S
O34 Mg26 2.048 . S
O34 C27 1.195 . S
O35 Mg26 2.048 . S
O35 C36 1.195 . S
C36 O35 1.195 . S
C36 O37 1.313 . S
O37 C36 1.313 . S
O38 Mg26 2.141 1_556 S
O38 C29 1.289 . S
Mg39 O46 2.141 . S
Mg39 O47 2.048 1_554 S
Mg39 O48 2.048 1_554 S
Mg39 O51 2.141 . S
C40 O41 1.313 . S
C40 O47 1.195 . S
O41 C40 1.313 . S
C42 O43 1.245 . S
C42 O51 1.289 . S
O43 C42 1.245 . S
C44 O45 1.245 . S
C44 O46 1.289 . S
O45 C44 1.245 . S
O46 Mg39 2.141 . S
O46 C44 1.289 . S
O47 Mg39 2.048 1_556 S
O47 C40 1.195 . S
O48 Mg39 2.048 1_556 S
O48 C49 1.195 . S
C49 O48 1.195 . S
C49 O50 1.313 . S
O50 C49 1.313 . S
O51 Mg39 2.141 . S
O51 C42 1.289 . S
Mg52 O59 2.141 . S
Mg52 O60 2.048 . S
Mg52 O61 2.048 . S
Mg52 O64 2.141 . S
C53 O54 1.313 . S
C53 O60 1.195 1_556 S
O54 C53 1.313 . S
C55 O56 1.245 . S
C55 O64 1.289 . S
O56 C55 1.245 . S
C57 O58 1.245 . S
C57 O59 1.289 . S
O58 C57 1.245 . S
O59 Mg52 2.141 . S
O59 C57 1.289 . S
O60 Mg52 2.048 . S
O60 C53 1.195 1_554 S
O61 Mg52 2.048 . S
O61 C62 1.195 1_554 S
C62 O61 1.195 1_556 S
C62 O63 1.313 . S
O63 C62 1.313 . S
O64 Mg52 2.141 . S
O64 C55 1.289 . S
Mg65 O72 2.141 . S
Mg65 O73 2.048 . S
Mg65 O74 2.048 . S
Mg65 O77 2.141 . S
C66 O67 1.313 . S
C66 O73 1.195 . S
O67 C66 1.313 . S
C68 O69 1.245 . S
C68 O77 1.289 . S
O69 C68 1.245 . S
C70 O71 1.245 . S
C70 O72 1.289 . S
O71 C70 1.245 . S
O72 Mg65 2.141 . S
O72 C70 1.289 . S
O73 Mg65 2.048 . S
O73 C66 1.195 . S
O74 Mg65 2.048 . S
O74 C75 1.195 . S
C75 O74 1.195 . S
C75 O76 1.313 . S
O76 C75 1.313 . S
O77 Mg65 2.141 . S
O77 C68 1.289 . S
C78 O105 1.312 . S
C78 O106 1.208 . S
C79 O100 1.331 . S
C79 O103 1.244 1_556 S
C80 O102 1.264 . S
C80 O104 1.273 . S
Mg81 O83 1.936 1_455 S
Mg81 O90 2.081 1_455 S
Mg81 O92 2.023 . S
Mg81 O96 2.031 1_455 S
Mg81 O105 2.291 . S
Mg82 O83 1.963 . S
Mg82 O93 1.942 . S
Mg82 O94 1.955 1_655 S
Mg82 O101 1.986 . S
O83 Mg81 1.936 1_655 S
O83 Mg82 1.963 . S
O83 Mg84 1.915 1_655 S
Mg84 O83 1.915 1_455 S
Mg84 O85 1.915 . S
Mg84 O89 2.013 . S
Mg84 O95 2.114 1_455 S
Mg84 O99 2.013 1_455 S
Mg84 O105 2.114 . S
O85 Mg84 1.915 . S
O85 Mg86 1.936 . S
O85 Mg87 1.963 . S
Mg86 O85 1.936 . S
Mg86 O95 2.291 1_455 S
Mg86 O100 2.081 . S
Mg86 O102 2.023 1_455 S
Mg86 O106 2.031 . S
Mg87 O85 1.963 . S
Mg87 O91 1.986 . S
Mg87 O103 1.942 1_556 S
Mg87 O104 1.955 1_455 S
C88 O99 1.191 . S
C88 O101 1.307 . S
O89 Mg84 2.013 . S
O89 C108 1.191 . S
O90 Mg81 2.081 1_655 S
O90 C98 1.331 . S
O91 Mg87 1.986 . S
O91 C108 1.307 . S
O92 Mg81 2.023 . S
O92 C107 1.264 . S
O93 Mg82 1.942 . S
O93 C98 1.244 . S
O94 Mg82 1.955 1_455 S
O94 C107 1.273 . S
O95 Mg84 2.114 1_655 S
O95 Mg86 2.291 1_655 S
O95 C97 1.312 . S
O96 Mg81 2.031 1_655 S
O96 C97 1.208 . S
C97 O95 1.312 . S
C97 O96 1.208 . S
C98 O90 1.331 . S
C98 O93 1.244 . S
O99 Mg84 2.013 1_655 S
O99 C88 1.191 . S
O100 C79 1.331 . S
O100 Mg86 2.081 . S
O101 Mg82 1.986 . S
O101 C88 1.307 . S
O102 C80 1.264 . S
O102 Mg86 2.023 1_655 S
O103 C79 1.244 1_554 S
O103 Mg87 1.942 1_554 S
O104 C80 1.273 . S
O104 Mg87 1.955 1_655 S
O105 C78 1.312 . S
O105 Mg81 2.291 . S
O105 Mg84 2.114 . S
O106 C78 1.208 . S
O106 Mg86 2.031 . S
C107 O92 1.264 . S
C107 O94 1.273 . S
C108 O89 1.191 . S
C108 O91 1.307 . S
C109 O136 1.312 . S
C109 O137 1.208 . S
C110 O131 1.331 . S
C110 O134 1.244 . S
C111 O133 1.264 . S
C111 O135 1.273 . S
Mg112 O114 1.936 1_545 S
Mg112 O121 2.081 1_545 S
Mg112 O123 2.023 . S
Mg112 O127 2.031 1_545 S
Mg112 O136 2.291 . S
Mg113 O114 1.963 . S
Mg113 O124 1.942 1_556 S
Mg113 O125 1.955 1_566 S
Mg113 O132 1.986 . S
O114 Mg112 1.936 1_565 S
O114 Mg113 1.963 . S
O114 Mg115 1.915 1_565 S
Mg115 O114 1.915 1_545 S
Mg115 O116 1.915 . S
Mg115 O120 2.013 . S
Mg115 O126 2.114 1_545 S
Mg115 O130 2.013 1_545 S
Mg115 O136 2.114 . S
O116 Mg115 1.915 . S
O116 Mg117 1.936 . S
O116 Mg118 1.963 . S
Mg117 O116 1.936 . S
Mg117 O126 2.291 1_545 S
Mg117 O131 2.081 . S
Mg117 O133 2.023 1_545 S
Mg117 O137 2.031 . S
Mg118 O116 1.963 . S
Mg118 O122 1.986 . S
Mg118 O134 1.942 . S
Mg118 O135 1.955 1_545 S
C119 O130 1.191 . S
C119 O132 1.307 . S
O120 Mg115 2.013 . S
O120 C139 1.191 . S
O121 Mg112 2.081 1_565 S
O121 C129 1.331 . S
O122 Mg118 1.986 . S
O122 C139 1.307 . S
O123 Mg112 2.023 . S
O123 C138 1.264 . S
O124 Mg113 1.942 1_554 S
O124 C129 1.244 1_554 S
O125 Mg113 1.955 1_544 S
O125 C138 1.273 1_554 S
O126 Mg115 2.114 1_565 S
O126 Mg117 2.291 1_565 S
O126 C128 1.312 . S
O127 Mg112 2.031 1_565 S
O127 C128 1.208 . S
C128 O126 1.312 . S
C128 O127 1.208 . S
C129 O121 1.331 . S
C129 O124 1.244 1_556 S
O130 Mg115 2.013 1_565 S
O130 C119 1.191 . S
O131 C110 1.331 . S
O131 Mg117 2.081 . S
O132 Mg113 1.986 . S
O132 C119 1.307 . S
O133 C111 1.264 . S
O133 Mg117 2.023 1_565 S
O134 C110 1.244 . S
O134 Mg118 1.942 . S
O135 C111 1.273 . S
O135 Mg118 1.955 1_565 S
O136 C109 1.312 . S
O136 Mg112 2.291 . S
O136 Mg115 2.114 . S
O137 C109 1.208 . S
O137 Mg117 2.031 . S
C138 O123 1.264 . S
C138 O125 1.273 1_556 S
C139 O120 1.191 . S
C139 O122 1.307 . S
C140 O167 1.312 . S
C140 O168 1.208 . S
C141 O162 1.331 . S
C141 O165 1.244 1_554 S
C142 O164 1.264 1_556 S
C142 O166 1.273 . S
Mg143 O145 1.936 . S
Mg143 O152 2.081 . S
Mg143 O154 2.023 . S
Mg143 O158 2.031 . S
Mg143 O167 2.291 . S
Mg144 O145 1.963 . S
Mg144 O155 1.942 . S
Mg144 O156 1.955 . S
Mg144 O163 1.986 . S
O145 Mg143 1.936 . S
O145 Mg144 1.963 . S
O145 Mg146 1.915 . S
Mg146 O145 1.915 . S
Mg146 O147 1.915 . S
Mg146 O151 2.013 . S
Mg146 O157 2.114 . S
Mg146 O161 2.013 . S
Mg146 O167 2.114 . S
O147 Mg146 1.915 . S
O147 Mg148 1.936 . S
O147 Mg149 1.963 . S
Mg148 O147 1.936 . S
Mg148 O157 2.291 . S
Mg148 O162 2.081 1_556 S
Mg148 O164 2.023 1_556 S
Mg148 O168 2.031 . S
Mg149 O147 1.963 . S
Mg149 O153 1.986 . S
Mg149 O165 1.942 . S
Mg149 O166 1.955 . S
C150 O161 1.191 . S
C150 O163 1.307 . S
O151 Mg146 2.013 . S
O151 C170 1.191 . S
O152 Mg143 2.081 . S
O152 C160 1.331 . S
O153 Mg149 1.986 . S
O153 C170 1.307 . S
O154 Mg143 2.023 . S
O154 C169 1.264 . S
O155 Mg144 1.942 . S
O155 C160 1.244 . S
O156 Mg144 1.955 . S
O156 C169 1.273 . S
O157 Mg146 2.114 . S
O157 Mg148 2.291 . S
O157 C159 1.312 . S
O158 Mg143 2.031 . S
O158 C159 1.208 . S
C159 O157 1.312 . S
C159 O158 1.208 . S
C160 O152 1.331 . S
C160 O155 1.244 . S
O161 Mg146 2.013 . S
O161 C150 1.191 . S
O162 C141 1.331 . S
O162 Mg148 2.081 1_554 S
O163 Mg144 1.986 . S
O163 C150 1.307 . S
O164 C142 1.264 1_554 S
O164 Mg148 2.023 1_554 S
O165 C141 1.244 1_556 S
O165 Mg149 1.942 . S
O166 C142 1.273 . S
O166 Mg149 1.955 . S
O167 C140 1.312 . S
O167 Mg143 2.291 . S
O167 Mg146 2.114 . S
O168 C140 1.208 . S
O168 Mg148 2.031 . S
C169 O154 1.264 . S
C169 O156 1.273 . S
C170 O151 1.191 . S
C170 O153 1.307 . S
C5 C78 2.005 . S
C16 C110 1.299 . S
C169 C36 1.837 . S
C98 C42 1.031 . S
C55 C128 1.724 . S
C150 C66 1.449 . S
C119 C31 2.020 . S
C40 C159 1.450 . S
C108 C53 1.916 . S
C68 C138 1.116 1_554 S
C10 C141 1.721 . S
C80 C14 1.543 . S
C88 C49 1.968 . S
C129 C62 1.329 . S
C142 C70 1.749 1_556 S
C79 C1 1.176 1_556 S
C139 C23 1.785 . S
C29 C140 1.337 . S
C109 C75 1.965 . S
C170 C3 1.319 . S
C97 C18 1.685 . S
C111 C27 1.304 . S
C44 C160 1.604 . S
C57 C107 1.332 . S
