# Generated by pormake.
# Topology bcu-b, (8,8)-cn, num edge types: 1
# Building blocks:
#     Node 0, Type 0, BuildingBlock: TAGTUT_clean_sbu_3, # of connection points: 8
#     Node 1, Type 1, BuildingBlock: TAGTUT_clean_sbu_1, # of connection points: 8
#     Edge 2, Type (0, 1), BuildingBlock: FUNLAD_clean_linker_0, # of connection points: 2
#     Edge 3, Type (0, 1), BuildingBlock: FUNLAD_clean_linker_0, # of connection points: 2
#     Edge 4, Type (0, 1), BuildingBlock: FUNLAD_clean_linker_0, # of connection points: 2
#     Edge 5, Type (0, 1), BuildingBlock: FUNLAD_clean_linker_0, # of connection points: 2
#     Edge 6, Type (0, 1), BuildingBlock: FUNLAD_clean_linker_0, # of connection points: 2
#     Edge 7, Type (0, 1), BuildingBlock: FUNLAD_clean_linker_0, # of connection points: 2
#     Edge 8, Type (0, 1), BuildingBlock: FUNLAD_clean_linker_0, # of connection points: 2
#     Edge 9, Type (0, 1), BuildingBlock: FUNLAD_clean_linker_0, # of connection points: 2
# Relax obj value: 0.019
# Max RMSD: 0.088
# Mean RMSD: 0.078
data_MOF--net-bcu-b--node1-TAGTUT_clean_sbu_3--node2-TAGTUT_clean_sbu_1--edge1-FUNLAD_clean_linker_0
_symmetry_space_group_name_H-M    P1
_symmetry_Int_Tables_number       1
_symmetry_cell_setting            triclinic
loop_
_symmetry_equiv_pos_as_xyz
'x, y, z'
_cell_length_a     22.482814
_cell_length_b     21.633569
_cell_length_c     24.160858
_cell_angle_alpha  91.474733
_cell_angle_beta   91.64085
_cell_angle_gamma 107.3935
loop_
_atom_site_label
_atom_site_type_symbol
_atom_site_fract_x
_atom_site_fract_y
_atom_site_fract_z
_atom_type_partial_charge
C0 C 0.10178 0.1103 0.07067 0.0
C1 C 0.19775 0.90839 0.06332 0.0
C2 C 0.11733 0.8877 0.89709 0.0
Mg3 Mg 0.98113 0.12535 -0.00105 0.0
Mg4 Mg 0.86712 0.99192 0.96932 0.0
O5 O 0.9511 0.03872 0.95836 0.0
Mg6 Mg 0.01254 0.99764 -0.01046 0.0
O7 O 0.07704 0.96109 0.0223 0.0
Mg8 Mg 0.15321 0.01792 -0.0131 0.0
Mg9 Mg 0.06243 0.87164 0.01102 0.0
C10 C 0.91675 0.88258 0.91344 0.0
O11 O 0.94141 0.93188 0.04513 0.0
O12 O 0.90609 0.15262 0.94153 0.0
O13 O 0.97033 0.84041 0.04551 0.0
O14 O 0.91021 0.10004 0.06689 0.0
O15 O 0.83229 0.05692 0.92273 0.0
O16 O 0.84095 0.00279 0.05422 0.0
O17 O 0.08628 0.05935 0.9352 0.0
O18 O 0.05707 0.14932 0.93449 0.0
C19 C 0.0942 0.11742 0.91979 0.0
C20 C 0.85415 0.11833 0.91749 0.0
O21 O 0.97381 0.91501 0.92534 0.0
O22 O 0.21086 0.96527 0.04276 0.0
O23 O 0.87031 0.89991 0.93092 0.0
O24 O 0.14979 0.94412 0.91515 0.0
O25 O 0.1438 0.86657 0.05629 0.0
O26 O 0.07467 0.85143 0.92556 0.0
O27 O 0.04659 0.08177 0.05104 0.0
O28 O 0.14887 0.09252 0.05582 0.0
C29 C 0.86425 0.05486 0.08341 0.0
C30 C 0.9323 0.87243 0.05742 0.0
C31 C 0.40154 0.67754 0.55464 0.0
C32 C 0.46029 0.65206 0.38976 0.0
C33 C 0.4004 0.39919 0.43424 0.0
Mg34 Mg 0.52402 0.66505 0.50596 0.0
O35 O 0.48345 0.57713 0.51818 0.0
Mg36 Mg 0.39745 0.53896 0.48425 0.0
Mg37 Mg 0.52049 0.50944 0.49071 0.0
O38 O 0.55756 0.44208 0.46284 0.0
Mg39 Mg 0.51711 0.35468 0.47803 0.0
Mg40 Mg 0.64467 0.48137 0.49435 0.0
C41 C 0.64141 0.6203 0.547 0.0
C42 C 0.62078 0.57577 0.40004 0.0
O43 O 0.37235 0.62207 0.53159 0.0
O44 O 0.46084 0.70267 0.55228 0.0
O45 O 0.41856 0.60283 0.40721 0.0
O46 O 0.50839 0.68223 0.41981 0.0
O47 O 0.61741 0.66631 0.53732 0.0
O48 O 0.61054 0.56029 0.53835 0.0
C49 C 0.42026 0.44817 0.58347 0.0
O50 O 0.47377 0.45093 0.56455 0.0
O51 O 0.38436 0.47736 0.56083 0.0
O52 O 0.66772 0.39711 0.44446 0.0
O53 O 0.57836 0.31536 0.43081 0.0
O54 O 0.62686 0.41997 0.57081 0.0
C55 C 0.63701 0.34044 0.42411 0.0
O56 O 0.53623 0.34135 0.56493 0.0
O57 O 0.4235 0.35288 0.44555 0.0
C58 C 0.58618 0.3731 0.59197 0.0
O59 O 0.43168 0.459 0.44285 0.0
O60 O 0.56607 0.56878 0.41777 0.0
O61 O 0.65733 0.54628 0.42094 0.0
C62 C 0.06456 0.15394 0.1551 0.0
C63 C 0.11069 0.15941 0.1159 0.0
C64 C 0.07743 0.19318 0.20351 0.0
C65 C 0.13588 0.23962 0.21263 0.0
C66 C 0.18046 0.24777 0.17149 0.0
C67 C 0.16808 0.20771 0.1238 0.0
C68 C 0.15387 0.27077 0.2684 0.0
C69 C 0.19766 0.3285 0.27589 0.0
C70 C 0.23724 0.34798 0.32729 0.0
C71 C 0.24975 0.30137 0.36168 0.0
C72 C 0.30026 0.31893 0.39987 0.0
C73 C 0.33898 0.38329 0.40459 0.0
H74 H 0.26427 0.44988 0.3094 0.0
C75 C 0.32275 0.43076 0.37411 0.0
C76 C 0.27268 0.41312 0.33549 0.0
H77 H 0.35153 0.48082 0.37675 0.0
H78 H 0.02015 0.11645 0.15013 0.0
H79 H 0.0427 0.1854 0.23488 0.0
H80 H 0.22665 0.28187 0.1777 0.0
H81 H 0.20435 0.21278 0.09415 0.0
H82 H 0.13593 0.24204 0.30385 0.0
H83 H 0.21079 0.35931 0.24064 0.0
H84 H 0.22427 0.25045 0.35614 0.0
H85 H 0.31124 0.28133 0.4231 0.0
C86 C 0.87021 0.11606 0.17328 0.0
C87 C 0.83551 0.06737 0.13532 0.0
C88 C 0.84155 0.13742 0.21716 0.0
C89 C 0.77697 0.11145 0.2237 0.0
C90 C 0.74314 0.05931 0.18833 0.0
C91 C 0.77211 0.03738 0.14448 0.0
C92 C 0.74353 0.13914 0.26555 0.0
C93 C 0.7641 0.20183 0.28382 0.0
C94 C 0.73066 0.23385 0.32232 0.0
C95 C 0.76306 0.29542 0.34556 0.0
C96 C 0.7332 0.32957 0.37927 0.0
C97 C 0.6698 0.30311 0.39044 0.0
H98 H 0.63994 0.16039 0.31643 0.0
C99 C 0.63744 0.24112 0.36777 0.0
C100 C 0.66735 0.20692 0.33408 0.0
H101 H 0.58847 0.21914 0.3753 0.0
H102 H 0.91944 0.13939 0.16808 0.0
H103 H 0.87017 0.1752 0.2451 0.0
H104 H 0.69355 0.03748 0.19303 0.0
H105 H 0.74417 -0.00043 0.11609 0.0
H106 H 0.69949 0.1077 0.27895 0.0
H107 H 0.80756 0.23285 0.26878 0.0
H108 H 0.81177 0.31769 0.33717 0.0
H109 H 0.75969 0.37708 0.39589 0.0
C110 C 0.88238 0.79961 0.13118 0.0
C111 C 0.87701 0.84007 0.08827 0.0
C112 C 0.83148 0.77197 0.16323 0.0
C113 C 0.77416 0.78379 0.15254 0.0
C114 C 0.7676 0.8215 0.10788 0.0
C115 C 0.81907 0.84997 0.07605 0.0
C116 C 0.72238 0.75692 0.18943 0.0
C117 C 0.73291 0.76802 0.24424 0.0
C118 C 0.69973 0.72216 0.28517 0.0
C119 C 0.73556 0.71016 0.32962 0.0
C120 C 0.70946 0.66191 0.36613 0.0
C121 C 0.6464 0.62568 0.35989 0.0
H122 H 0.6072 0.69631 0.2457 0.0
C123 C 0.60919 0.63965 0.31715 0.0
C124 C 0.63599 0.68719 0.27932 0.0
H125 H 0.56011 0.6129 0.31229 0.0
H126 H 0.92644 0.79087 0.14102 0.0
H127 H 0.83705 0.74184 0.19696 0.0
H128 H 0.72342 0.83021 0.09861 0.0
H129 H 0.81357 0.87919 0.04174 0.0
H130 H 0.68079 0.72074 0.17246 0.0
H131 H 0.776 0.80417 0.2588 0.0
H132 H 0.78472 0.7366 0.33499 0.0
H133 H 0.73876 0.65324 0.39961 0.0
C134 C 0.23339 0.82244 0.10846 0.0
C135 C 0.2456 0.88813 0.09581 0.0
C136 C 0.27567 0.80158 0.14051 0.0
C137 C 0.33209 0.84562 0.16083 0.0
C138 C 0.34473 0.9114 0.14829 0.0
C139 C 0.30218 0.93245 0.11564 0.0
C140 C 0.37504 0.82444 0.19905 0.0
C141 C 0.378 0.7629 0.19835 0.0
C142 C 0.40722 0.73501 0.24358 0.0
C143 C 0.38335 0.66823 0.25195 0.0
C144 C 0.40305 0.64057 0.2979 0.0
C145 C 0.44811 0.67887 0.33616 0.0
H146 H 0.47604 0.824 0.27395 0.0
C147 C 0.47563 0.74481 0.32559 0.0
C148 C 0.45513 0.77278 0.27992 0.0
H149 H 0.51074 0.77561 0.35412 0.0
H150 H 0.1904 0.7866 0.09418 0.0
H151 H 0.26256 0.75102 0.1508 0.0
H152 H 0.38738 0.94663 0.1641 0.0
H153 H 0.31299 0.9834 0.10693 0.0
H154 H 0.40139 0.85945 0.23047 0.0
H155 H 0.3524 0.72904 0.16579 0.0
H156 H 0.34695 0.63772 0.22431 0.0
H157 H 0.38132 0.58953 0.30447 0.0
C158 C 0.17618 0.90381 0.80967 0.0
C159 C 0.13298 0.86265 0.84364 0.0
C160 C 0.19772 0.87883 0.76313 0.0
C161 C 0.17713 0.81188 0.74996 0.0
C162 C 0.13053 0.77158 0.7815 0.0
C163 C 0.10866 0.79664 0.82794 0.0
C164 C 0.2052 0.78196 0.70563 0.0
C165 C 0.26411 0.80861 0.68959 0.0
C166 C 0.29721 0.77569 0.65185 0.0
C167 C 0.36256 0.79946 0.65123 0.0
C168 C 0.39636 0.76838 0.619 0.0
C169 C 0.36554 0.71264 0.58644 0.0
H170 H 0.21582 0.70239 0.61524 0.0
C171 C 0.29999 0.68992 0.58561 0.0
C172 C 0.26613 0.72125 0.61766 0.0
H173 H 0.27466 0.64765 0.56036 0.0
H174 H 0.19474 0.95521 0.81979 0.0
H175 H 0.23127 0.91212 0.73833 0.0
H176 H 0.11295 0.72002 0.7717 0.0
H177 H 0.07467 0.76373 0.85277 0.0
H178 H 0.17869 0.7337 0.69044 0.0
H179 H 0.29184 0.8546 0.70857 0.0
H180 H 0.38783 0.8416 0.67672 0.0
H181 H 0.44678 0.78747 0.62049 0.0
C182 C 0.16143 0.21639 0.877 0.0
C183 C 0.14719 0.1496 0.88523 0.0
C184 C 0.20878 0.24735 0.84233 0.0
C185 C 0.24378 0.21247 0.81509 0.0
C186 C 0.22999 0.14569 0.82351 0.0
C187 C 0.18246 0.11456 0.85865 0.0
C188 C 0.29019 0.24379 0.77379 0.0
C189 C 0.31977 0.30798 0.77603 0.0
C190 C 0.35107 0.34383 0.72829 0.0
C191 C 0.34604 0.40613 0.7206 0.0
C192 C 0.36923 0.43994 0.6737 0.0
C193 C 0.39962 0.41294 0.63421 0.0
H194 H 0.38842 0.26962 0.6948 0.0
C195 C 0.40752 0.35187 0.64292 0.0
C196 C 0.38288 0.31715 0.68947 0.0
H197 H 0.43049 0.33 0.61281 0.0
H198 H 0.13519 0.24496 0.8966 0.0
H199 H 0.21583 0.2982 0.83544 0.0
H200 H 0.2555 0.11744 0.80236 0.0
H201 H 0.17235 0.06294 0.86386 0.0
H202 H 0.29606 0.21406 0.73868 0.0
H203 H 0.31441 0.33713 0.81172 0.0
H204 H 0.32197 0.42784 0.75 0.0
H205 H 0.36307 0.48723 0.66812 0.0
C206 C 0.82653 0.2161 0.88284 0.0
C207 C 0.81697 0.14881 0.88163 0.0
C208 C 0.78862 0.2426 0.84965 0.0
C209 C 0.74074 0.20206 0.81455 0.0
C210 C 0.73226 0.13524 0.81294 0.0
C211 C 0.76947 0.10895 0.84608 0.0
C212 C 0.70055 0.22662 0.77647 0.0
C213 C 0.69026 0.28455 0.78237 0.0
C214 C 0.6543 0.30809 0.73955 0.0
C215 C 0.67368 0.37393 0.72751 0.0
C216 C 0.64813 0.39588 0.68146 0.0
C217 C 0.60191 0.35251 0.64696 0.0
H218 H 0.58637 0.21502 0.71764 0.0
C219 C 0.57804 0.28783 0.66217 0.0
C220 C 0.60413 0.2657 0.70806 0.0
H221 H 0.54203 0.25347 0.63676 0.0
H222 H 0.86281 0.2481 0.90963 0.0
H223 H 0.79781 0.29463 0.85097 0.0
H224 H 0.69637 0.10291 0.78593 0.0
H225 H 0.7609 0.05693 0.84346 0.0
H226 H 0.67879 0.19495 0.74119 0.0
H227 H 0.71257 0.31766 0.81655 0.0
H228 H 0.71139 0.40778 0.75168 0.0
H229 H 0.6668 0.44635 0.67136 0.0
C230 C 0.9466 0.82148 0.83507 0.0
C231 C 0.90373 0.82542 0.87526 0.0
C232 C 0.93007 0.77273 0.79338 0.0
C233 C 0.87048 0.72704 0.79156 0.0
C234 C 0.82993 0.72779 0.8345 0.0
C235 C 0.84609 0.77693 0.87566 0.0
C236 C 0.84563 0.6835 0.74253 0.0
C237 C 0.85737 0.704 0.69064 0.0
C238 C 0.81163 0.67728 0.64421 0.0
C239 C 0.79755 0.72087 0.60781 0.0
C240 C 0.74412 0.70122 0.57307 0.0
C241 C 0.70451 0.63725 0.57345 0.0
H242 H 0.78642 0.5766 0.66702 0.0
C243 C 0.72256 0.59186 0.60521 0.0
C244 C 0.77564 0.61173 0.64051 0.0
H245 H 0.69338 0.54206 0.6059 0.0
H246 H 0.99146 0.85817 0.83386 0.0
H247 H 0.96289 0.77244 0.7615 0.0
H248 H 0.78392 0.69279 0.83421 0.0
H249 H 0.81256 0.77825 0.90665 0.0
H250 H 0.80663 0.64072 0.74911 0.0
H251 H 0.89239 0.75009 0.68449 0.0
H252 H 0.82501 0.7715 0.60943 0.0
H253 H 0.73205 0.73702 0.54824 0.0
loop_
_geom_bond_atom_site_label_1
_geom_bond_atom_site_label_2
_geom_bond_distance
_geom_bond_site_symmetry_2
_ccdc_geom_bond_type
C0 O27 1.312 . S
C0 O28 1.208 . S
C1 O22 1.331 . S
C1 O25 1.244 . S
C2 O24 1.264 . S
C2 O26 1.273 . S
Mg3 O5 1.936 1_554 S
Mg3 O12 2.081 1_554 S
Mg3 O14 2.023 . S
Mg3 O18 2.031 1_654 S
Mg3 O27 2.291 1_655 S
Mg4 O5 1.963 . S
Mg4 O15 1.942 . S
Mg4 O16 1.955 1_556 S
Mg4 O23 1.986 1_545 S
O5 Mg3 1.936 1_556 S
O5 Mg4 1.963 . S
O5 Mg6 1.915 1_546 S
Mg6 O5 1.915 1_564 S
Mg6 O7 1.915 1_655 S
Mg6 O11 2.013 . S
Mg6 O17 2.114 1_664 S
Mg6 O21 2.013 1_554 S
Mg6 O27 2.114 1_665 S
O7 Mg6 1.915 1_455 S
O7 Mg8 1.936 . S
O7 Mg9 1.963 . S
Mg8 O7 1.936 . S
Mg8 O17 2.291 1_564 S
Mg8 O22 2.081 . S
Mg8 O24 2.023 1_554 S
Mg8 O28 2.031 1_565 S
Mg9 O7 1.963 . S
Mg9 O13 1.986 1_455 S
Mg9 O25 1.942 . S
Mg9 O26 1.955 1_554 S
C10 O21 1.191 . S
C10 O23 1.307 . S
O11 Mg6 2.013 . S
O11 C30 1.191 . S
O12 Mg3 2.081 1_556 S
O12 C20 1.331 . S
O13 Mg9 1.986 1_655 S
O13 C30 1.307 . S
O14 Mg3 2.023 . S
O14 C29 1.264 . S
O15 Mg4 1.942 . S
O15 C20 1.244 . S
O16 Mg4 1.955 1_554 S
O16 C29 1.273 . S
O17 Mg6 2.114 1_446 S
O17 Mg8 2.291 1_546 S
O17 C19 1.312 . S
O18 Mg3 2.031 1_456 S
O18 C19 1.208 . S
C19 O17 1.312 . S
C19 O18 1.208 . S
C20 O12 1.331 . S
C20 O15 1.244 . S
O21 Mg6 2.013 1_556 S
O21 C10 1.191 . S
O22 C1 1.331 . S
O22 Mg8 2.081 . S
O23 Mg4 1.986 1_565 S
O23 C10 1.307 . S
O24 C2 1.264 . S
O24 Mg8 2.023 1_556 S
O25 C1 1.244 . S
O25 Mg9 1.942 . S
O26 C2 1.273 . S
O26 Mg9 1.955 1_556 S
O27 C0 1.312 . S
O27 Mg3 2.291 1_455 S
O27 Mg6 2.114 1_445 S
O28 C0 1.208 . S
O28 Mg8 2.031 1_545 S
C29 O14 1.264 . S
C29 O16 1.273 . S
C30 O11 1.191 . S
C30 O13 1.307 . S
C31 O43 1.241 . S
C31 O44 1.280 . S
C32 O45 1.277 . S
C32 O46 1.245 . S
C33 O57 1.247 . S
C33 O59 1.289 . S
Mg34 O35 1.926 . S
Mg34 O44 1.984 . S
Mg34 O46 1.988 . S
Mg34 O47 2.061 . S
O35 Mg34 1.926 . S
O35 Mg36 1.986 . S
O35 Mg37 1.917 . S
Mg36 O35 1.986 . S
Mg36 O43 2.042 . S
Mg36 O45 2.041 . S
Mg36 O51 2.038 . S
Mg36 O59 2.238 . S
Mg37 O35 1.917 . S
Mg37 O38 1.917 . S
Mg37 O48 2.106 . S
Mg37 O50 2.079 . S
Mg37 O59 2.106 . S
Mg37 O60 2.079 . S
O38 Mg37 1.917 . S
O38 Mg39 1.926 . S
O38 Mg40 1.986 . S
Mg39 O38 1.926 . S
Mg39 O53 1.984 . S
Mg39 O56 1.988 . S
Mg39 O57 2.061 . S
Mg40 O38 1.986 . S
Mg40 O48 2.238 . S
Mg40 O52 2.042 . S
Mg40 O54 2.041 . S
Mg40 O61 2.038 . S
C41 O47 1.247 . S
C41 O48 1.289 . S
C42 O60 1.245 . S
C42 O61 1.274 . S
O43 C31 1.241 . S
O43 Mg36 2.042 . S
O44 C31 1.280 . S
O44 Mg34 1.984 . S
O45 C32 1.277 . S
O45 Mg36 2.041 . S
O46 C32 1.245 . S
O46 Mg34 1.988 . S
O47 Mg34 2.061 . S
O47 C41 1.247 . S
O48 Mg37 2.106 . S
O48 Mg40 2.238 . S
O48 C41 1.289 . S
C49 O50 1.245 . S
C49 O51 1.274 . S
O50 Mg37 2.079 . S
O50 C49 1.245 . S
O51 Mg36 2.038 . S
O51 C49 1.274 . S
O52 Mg40 2.042 . S
O52 C55 1.241 . S
O53 Mg39 1.984 . S
O53 C55 1.280 . S
O54 Mg40 2.041 . S
O54 C58 1.277 . S
C55 O52 1.241 . S
C55 O53 1.280 . S
O56 Mg39 1.988 . S
O56 C58 1.245 . S
O57 C33 1.247 . S
O57 Mg39 2.061 . S
C58 O54 1.277 . S
C58 O56 1.245 . S
O59 C33 1.289 . S
O59 Mg36 2.238 . S
O59 Mg37 2.106 . S
O60 Mg37 2.079 . S
O60 C42 1.245 . S
O61 Mg40 2.038 . S
O61 C42 1.274 . S
C62 C63 1.386 . S
C62 C64 1.383 . S
C62 H78 0.951 . S
C63 C62 1.386 . S
C63 C67 1.383 . S
C64 C62 1.383 . S
C64 C65 1.402 . S
C64 H79 0.951 . S
C65 C64 1.402 . S
C65 C66 1.375 . S
C65 C68 1.481 . S
C66 C65 1.375 . S
C66 C67 1.367 . S
C66 H80 0.951 . S
C67 C63 1.383 . S
C67 C66 1.367 . S
C67 H81 0.950 . S
C68 C65 1.481 . S
C68 C69 1.297 . S
C68 H82 0.950 . S
C69 C68 1.297 . S
C69 C70 1.479 . S
C69 H83 0.950 . S
C70 C69 1.479 . S
C70 C71 1.375 . S
C70 C76 1.404 . S
C71 C70 1.375 . S
C71 C72 1.369 . S
C71 H84 0.950 . S
C72 C71 1.369 . S
C72 C73 1.392 . S
C72 H85 0.951 . S
C73 C72 1.392 . S
C73 C75 1.384 . S
H74 C76 0.949 . S
C75 C73 1.384 . S
C75 C76 1.385 . S
C75 H77 0.950 . S
C76 C70 1.404 . S
C76 H74 0.949 . S
C76 C75 1.385 . S
H77 C75 0.950 . S
H78 C62 0.951 . S
H79 C64 0.951 . S
H80 C66 0.951 . S
H81 C67 0.950 . S
H82 C68 0.950 . S
H83 C69 0.950 . S
H84 C71 0.950 . S
H85 C72 0.951 . S
C86 C87 1.386 . S
C86 C88 1.383 . S
C86 H102 0.951 . S
C87 C86 1.386 . S
C87 C91 1.383 . S
C88 C86 1.383 . S
C88 C89 1.402 . S
C88 H103 0.951 . S
C89 C88 1.402 . S
C89 C90 1.375 . S
C89 C92 1.481 . S
C90 C89 1.375 . S
C90 C91 1.367 . S
C90 H104 0.951 . S
C91 C87 1.383 . S
C91 C90 1.367 . S
C91 H105 0.950 . S
C92 C89 1.481 . S
C92 C93 1.297 . S
C92 H106 0.950 . S
C93 C92 1.297 . S
C93 C94 1.479 . S
C93 H107 0.950 . S
C94 C93 1.479 . S
C94 C95 1.375 . S
C94 C100 1.404 . S
C95 C94 1.375 . S
C95 C96 1.369 . S
C95 H108 0.950 . S
C96 C95 1.369 . S
C96 C97 1.392 . S
C96 H109 0.951 . S
C97 C96 1.392 . S
C97 C99 1.384 . S
H98 C100 0.949 . S
C99 C97 1.384 . S
C99 C100 1.385 . S
C99 H101 0.950 . S
C100 C94 1.404 . S
C100 H98 0.949 . S
C100 C99 1.385 . S
H101 C99 0.950 . S
H102 C86 0.951 . S
H103 C88 0.951 . S
H104 C90 0.951 . S
H105 C91 0.950 . S
H106 C92 0.950 . S
H107 C93 0.950 . S
H108 C95 0.950 . S
H109 C96 0.951 . S
C110 C111 1.386 . S
C110 C112 1.383 . S
C110 H126 0.951 . S
C111 C110 1.386 . S
C111 C115 1.383 . S
C112 C110 1.383 . S
C112 C113 1.402 . S
C112 H127 0.951 . S
C113 C112 1.402 . S
C113 C114 1.375 . S
C113 C116 1.481 . S
C114 C113 1.375 . S
C114 C115 1.367 . S
C114 H128 0.951 . S
C115 C111 1.383 . S
C115 C114 1.367 . S
C115 H129 0.950 . S
C116 C113 1.481 . S
C116 C117 1.297 . S
C116 H130 0.950 . S
C117 C116 1.297 . S
C117 C118 1.479 . S
C117 H131 0.950 . S
C118 C117 1.479 . S
C118 C119 1.375 . S
C118 C124 1.404 . S
C119 C118 1.375 . S
C119 C120 1.369 . S
C119 H132 0.950 . S
C120 C119 1.369 . S
C120 C121 1.392 . S
C120 H133 0.951 . S
C121 C120 1.392 . S
C121 C123 1.384 . S
H122 C124 0.949 . S
C123 C121 1.384 . S
C123 C124 1.385 . S
C123 H125 0.950 . S
C124 C118 1.404 . S
C124 H122 0.949 . S
C124 C123 1.385 . S
H125 C123 0.950 . S
H126 C110 0.951 . S
H127 C112 0.951 . S
H128 C114 0.951 . S
H129 C115 0.950 . S
H130 C116 0.950 . S
H131 C117 0.950 . S
H132 C119 0.950 . S
H133 C120 0.951 . S
C134 C135 1.386 . S
C134 C136 1.383 . S
C134 H150 0.951 . S
C135 C134 1.386 . S
C135 C139 1.383 . S
C136 C134 1.383 . S
C136 C137 1.402 . S
C136 H151 0.951 . S
C137 C136 1.402 . S
C137 C138 1.375 . S
C137 C140 1.481 . S
C138 C137 1.375 . S
C138 C139 1.367 . S
C138 H152 0.951 . S
C139 C135 1.383 . S
C139 C138 1.367 . S
C139 H153 0.950 . S
C140 C137 1.481 . S
C140 C141 1.297 . S
C140 H154 0.950 . S
C141 C140 1.297 . S
C141 C142 1.479 . S
C141 H155 0.950 . S
C142 C141 1.479 . S
C142 C143 1.375 . S
C142 C148 1.404 . S
C143 C142 1.375 . S
C143 C144 1.369 . S
C143 H156 0.950 . S
C144 C143 1.369 . S
C144 C145 1.392 . S
C144 H157 0.951 . S
C145 C144 1.392 . S
C145 C147 1.384 . S
H146 C148 0.949 . S
C147 C145 1.384 . S
C147 C148 1.385 . S
C147 H149 0.950 . S
C148 C142 1.404 . S
C148 H146 0.949 . S
C148 C147 1.385 . S
H149 C147 0.950 . S
H150 C134 0.951 . S
H151 C136 0.951 . S
H152 C138 0.951 . S
H153 C139 0.950 . S
H154 C140 0.950 . S
H155 C141 0.950 . S
H156 C143 0.950 . S
H157 C144 0.951 . S
C158 C159 1.386 . S
C158 C160 1.383 . S
C158 H174 0.951 . S
C159 C158 1.386 . S
C159 C163 1.383 . S
C160 C158 1.383 . S
C160 C161 1.402 . S
C160 H175 0.951 . S
C161 C160 1.402 . S
C161 C162 1.375 . S
C161 C164 1.481 . S
C162 C161 1.375 . S
C162 C163 1.367 . S
C162 H176 0.951 . S
C163 C159 1.383 . S
C163 C162 1.367 . S
C163 H177 0.950 . S
C164 C161 1.481 . S
C164 C165 1.297 . S
C164 H178 0.950 . S
C165 C164 1.297 . S
C165 C166 1.479 . S
C165 H179 0.950 . S
C166 C165 1.479 . S
C166 C167 1.375 . S
C166 C172 1.404 . S
C167 C166 1.375 . S
C167 C168 1.369 . S
C167 H180 0.950 . S
C168 C167 1.369 . S
C168 C169 1.392 . S
C168 H181 0.951 . S
C169 C168 1.392 . S
C169 C171 1.384 . S
H170 C172 0.949 . S
C171 C169 1.384 . S
C171 C172 1.385 . S
C171 H173 0.950 . S
C172 C166 1.404 . S
C172 H170 0.949 . S
C172 C171 1.385 . S
H173 C171 0.950 . S
H174 C158 0.951 . S
H175 C160 0.951 . S
H176 C162 0.951 . S
H177 C163 0.950 . S
H178 C164 0.950 . S
H179 C165 0.950 . S
H180 C167 0.950 . S
H181 C168 0.951 . S
C182 C183 1.386 . S
C182 C184 1.383 . S
C182 H198 0.951 . S
C183 C182 1.386 . S
C183 C187 1.383 . S
C184 C182 1.383 . S
C184 C185 1.402 . S
C184 H199 0.951 . S
C185 C184 1.402 . S
C185 C186 1.375 . S
C185 C188 1.481 . S
C186 C185 1.375 . S
C186 C187 1.367 . S
C186 H200 0.951 . S
C187 C183 1.383 . S
C187 C186 1.367 . S
C187 H201 0.950 . S
C188 C185 1.481 . S
C188 C189 1.297 . S
C188 H202 0.950 . S
C189 C188 1.297 . S
C189 C190 1.479 . S
C189 H203 0.950 . S
C190 C189 1.479 . S
C190 C191 1.375 . S
C190 C196 1.404 . S
C191 C190 1.375 . S
C191 C192 1.369 . S
C191 H204 0.950 . S
C192 C191 1.369 . S
C192 C193 1.392 . S
C192 H205 0.951 . S
C193 C192 1.392 . S
C193 C195 1.384 . S
H194 C196 0.949 . S
C195 C193 1.384 . S
C195 C196 1.385 . S
C195 H197 0.950 . S
C196 C190 1.404 . S
C196 H194 0.949 . S
C196 C195 1.385 . S
H197 C195 0.950 . S
H198 C182 0.951 . S
H199 C184 0.951 . S
H200 C186 0.951 . S
H201 C187 0.950 . S
H202 C188 0.950 . S
H203 C189 0.950 . S
H204 C191 0.950 . S
H205 C192 0.951 . S
C206 C207 1.386 . S
C206 C208 1.383 . S
C206 H222 0.951 . S
C207 C206 1.386 . S
C207 C211 1.383 . S
C208 C206 1.383 . S
C208 C209 1.402 . S
C208 H223 0.951 . S
C209 C208 1.402 . S
C209 C210 1.375 . S
C209 C212 1.481 . S
C210 C209 1.375 . S
C210 C211 1.367 . S
C210 H224 0.951 . S
C211 C207 1.383 . S
C211 C210 1.367 . S
C211 H225 0.950 . S
C212 C209 1.481 . S
C212 C213 1.297 . S
C212 H226 0.950 . S
C213 C212 1.297 . S
C213 C214 1.479 . S
C213 H227 0.950 . S
C214 C213 1.479 . S
C214 C215 1.375 . S
C214 C220 1.404 . S
C215 C214 1.375 . S
C215 C216 1.369 . S
C215 H228 0.950 . S
C216 C215 1.369 . S
C216 C217 1.392 . S
C216 H229 0.951 . S
C217 C216 1.392 . S
C217 C219 1.384 . S
H218 C220 0.949 . S
C219 C217 1.384 . S
C219 C220 1.385 . S
C219 H221 0.950 . S
C220 C214 1.404 . S
C220 H218 0.949 . S
C220 C219 1.385 . S
H221 C219 0.950 . S
H222 C206 0.951 . S
H223 C208 0.951 . S
H224 C210 0.951 . S
H225 C211 0.950 . S
H226 C212 0.950 . S
H227 C213 0.950 . S
H228 C215 0.950 . S
H229 C216 0.951 . S
C230 C231 1.386 . S
C230 C232 1.383 . S
C230 H246 0.951 . S
C231 C230 1.386 . S
C231 C235 1.383 . S
C232 C230 1.383 . S
C232 C233 1.402 . S
C232 H247 0.951 . S
C233 C232 1.402 . S
C233 C234 1.375 . S
C233 C236 1.481 . S
C234 C233 1.375 . S
C234 C235 1.367 . S
C234 H248 0.951 . S
C235 C231 1.383 . S
C235 C234 1.367 . S
C235 H249 0.950 . S
C236 C233 1.481 . S
C236 C237 1.297 . S
C236 H250 0.950 . S
C237 C236 1.297 . S
C237 C238 1.479 . S
C237 H251 0.950 . S
C238 C237 1.479 . S
C238 C239 1.375 . S
C238 C244 1.404 . S
C239 C238 1.375 . S
C239 C240 1.369 . S
C239 H252 0.950 . S
C240 C239 1.369 . S
C240 C241 1.392 . S
C240 H253 0.951 . S
C241 C240 1.392 . S
C241 C243 1.384 . S
H242 C244 0.949 . S
C243 C241 1.384 . S
C243 C244 1.385 . S
C243 H245 0.950 . S
C244 C238 1.404 . S
C244 H242 0.949 . S
C244 C243 1.385 . S
H245 C243 0.950 . S
H246 C230 0.951 . S
H247 C232 0.951 . S
H248 C234 0.951 . S
H249 C235 0.950 . S
H250 C236 0.950 . S
H251 C237 0.950 . S
H252 C239 0.950 . S
H253 C240 0.951 . S
C63 C0 0.980 . S
C73 C33 1.013 . S
C87 C29 1.680 . S
C97 C55 1.671 . S
C111 C30 1.367 . S
C121 C42 1.275 . S
C135 C1 1.685 . S
C145 C32 1.711 . S
C159 C2 1.685 . S
C169 C31 1.704 . S
C193 C49 1.409 . S
C183 C19 1.371 . S
C207 C20 1.718 . S
C217 C58 1.681 . S
C241 C41 1.000 . S
C231 C10 0.973 . S
