# Generated by pormake.
# Topology scu, (8,4)-cn, num edge types: 1
# Building blocks:
#     Node 0, Type 0, BuildingBlock: TAGTUT_clean_sbu_3, # of connection points: 8
#     Node 1, Type 1, BuildingBlock: MUDLON_clean_sbu_0, # of connection points: 4
#     Node 2, Type 1, BuildingBlock: MUDLON_clean_sbu_0, # of connection points: 4
#     Edge 3, Type (0, 1), BuildingBlock: EZIPEK_clean_linker_0, # of connection points: 2
#     Edge 4, Type (0, 1), BuildingBlock: EZIPEK_clean_linker_0, # of connection points: 2
#     Edge 5, Type (0, 1), BuildingBlock: EZIPEK_clean_linker_0, # of connection points: 2
#     Edge 6, Type (0, 1), BuildingBlock: EZIPEK_clean_linker_0, # of connection points: 2
#     Edge 7, Type (0, 1), BuildingBlock: EZIPEK_clean_linker_0, # of connection points: 2
#     Edge 8, Type (0, 1), BuildingBlock: EZIPEK_clean_linker_0, # of connection points: 2
#     Edge 9, Type (0, 1), BuildingBlock: EZIPEK_clean_linker_0, # of connection points: 2
#     Edge 10, Type (0, 1), BuildingBlock: EZIPEK_clean_linker_0, # of connection points: 2
# Relax obj value: 0.057
# Max RMSD: 0.133
# Mean RMSD: 0.084
data_MOF--net-scu--node1-TAGTUT_clean_sbu_3--node2-MUDLON_clean_sbu_0--edge1-EZIPEK_clean_linker_0
_symmetry_space_group_name_H-M    P1
_symmetry_Int_Tables_number       1
_symmetry_cell_setting            triclinic
loop_
_symmetry_equiv_pos_as_xyz
'x, y, z'
_cell_length_a     21.059461
_cell_length_b     16.408257
_cell_length_c     15.691134
_cell_angle_alpha  88.199877
_cell_angle_beta   91.460455
_cell_angle_gamma 90.323186
loop_
_atom_site_label
_atom_site_type_symbol
_atom_site_fract_x
_atom_site_fract_y
_atom_site_fract_z
_atom_type_partial_charge
C0 C 0.99262 0.85739 0.15406 0.0
C1 C 0.76528 0.96859 0.15711 0.0
C2 C 0.79747 0.05549 0.8992 0.0
Mg3 Mg 0.11204 0.90446 0.04133 0.0
Mg4 Mg 0.14424 0.09305 0.98219 0.0
O5 O 0.0842 0.00961 0.98256 0.0
Mg6 Mg 0.99593 0.02039 0.02697 0.0
O7 O 0.90773 0.01505 0.07317 0.0
Mg8 Mg 0.87539 0.91075 0.02263 0.0
Mg9 Mg 0.85127 0.10213 0.07 0.0
C10 C 0.02319 0.18066 0.89598 0.0
O11 O 0.01515 0.1248 0.12202 0.0
O12 O 0.19623 0.90165 0.94966 0.0
O13 O 0.91867 0.18608 0.12587 0.0
O14 O 0.17544 0.97281 0.14 0.0
O15 O 0.21442 0.03238 0.90965 0.0
O16 O 0.17919 0.10676 0.10952 0.0
O17 O 0.96332 0.92146 0.93658 0.0
O18 O 0.04917 0.84285 0.93831 0.0
C19 C 0.99357 0.86104 0.90906 0.0
C20 C 0.22639 0.95606 0.90615 0.0
O21 O 0.98241 0.12703 0.92322 0.0
O22 O 0.79285 0.91282 0.11641 0.0
O23 O 0.08234 0.17991 0.91796 0.0
O24 O 0.8139 0.98264 0.92131 0.0
O25 O 0.77984 0.04438 0.1483 0.0
O26 O 0.81444 0.11676 0.94234 0.0
O27 O 0.02353 0.91843 0.12402 0.0
O28 O 0.93629 0.84156 0.12682 0.0
C29 C 0.19394 0.04518 0.15719 0.0
C30 C 0.97817 0.18198 0.1459 0.0
Mg31 Mg 0.02186 0.5645 0.49693 0.0
C32 C 0.03998 0.4398 0.37528 0.0
O33 O 0.08844 0.43415 0.42948 0.0
C34 C 0.99023 0.69506 0.6083 0.0
O35 O 0.05218 0.68705 0.61396 0.0
C36 C 0.0167 0.4606 0.66839 0.0
O37 O 0.01383 0.53043 0.70656 0.0
O38 O 0.02304 0.46006 0.58796 0.0
O39 O -0.00051 0.49657 0.38349 0.0
O40 O 0.11449 0.62226 0.47569 0.0
C41 C 0.13112 0.67867 0.42258 0.0
O42 O 0.19053 0.70344 0.42407 0.0
O43 O 0.9591 0.65218 0.55518 0.0
Mg44 Mg 0.49526 0.98213 0.53221 0.0
C45 C 0.38671 1.00334 0.41415 0.0
O46 O 0.40391 0.92724 0.40623 0.0
C47 C 0.60405 0.00891 0.64794 0.0
O48 O 0.5889 0.93189 0.66097 0.0
C49 C 0.40058 0.88208 0.64092 0.0
O50 O 0.37844 0.85567 0.56792 0.0
O51 O 0.4523 0.92191 0.64264 0.0
O52 O 0.41798 0.04801 0.46561 0.0
O53 O 0.53897 0.92548 0.42454 0.0
C54 C 0.59176 0.88876 0.42767 0.0
O55 O 0.61517 0.86294 0.50181 0.0
O56 O 0.57121 0.05188 0.5941 0.0
C57 C 0.96923 0.24567 0.28664 0.0
C58 C 0.00138 0.24137 0.2085 0.0
C59 C 0.06745 0.35775 0.24827 0.0
C60 C 0.02722 0.37137 0.31784 0.0
N61 N 0.93917 0.32777 0.40438 0.0
N62 N 0.07729 0.2977 0.1102 0.0
C63 C 0.97771 0.31528 0.3372 0.0
C64 C 0.04986 0.29821 0.18812 0.0
N65 N 0.93264 0.18133 0.3141 0.0
N66 N 0.12329 0.39969 0.24073 0.0
H67 H 0.06588 0.25462 0.06485 0.0
H68 H 0.1076 0.34369 0.08818 0.0
H69 H 0.13925 0.44127 0.28522 0.0
H70 H 0.15697 0.38666 0.19567 0.0
H71 H 0.91293 0.17709 0.37427 0.0
H72 H 0.92748 0.12786 0.28021 0.0
H73 H 0.89757 0.2947 0.41477 0.0
H74 H 0.94659 0.37414 0.44749 0.0
C75 C 0.73161 0.97495 0.3077 0.0
C76 C 0.72098 0.94404 0.22527 0.0
C77 C 0.62885 0.86682 0.27822 0.0
C78 C 0.63568 0.90629 0.35703 0.0
N79 N 0.68084 0.01952 0.43301 0.0
N80 N 0.65337 0.86989 0.12773 0.0
C81 C 0.68345 0.96649 0.368 0.0
C82 C 0.668 0.89202 0.20913 0.0
N83 N 0.78847 0.01 0.32997 0.0
N84 N 0.58544 0.8053 0.26966 0.0
H85 H 0.67979 0.88912 0.07544 0.0
H86 H 0.61196 0.83863 0.11101 0.0
H87 H 0.55543 0.78703 0.31869 0.0
H88 H 0.58251 0.76873 0.21663 0.0
H89 H 0.79958 0.02697 0.39212 0.0
H90 H 0.82706 0.01315 0.2896 0.0
H91 H 0.71179 0.06898 0.4389 0.0
H92 H 0.64322 0.01982 0.4746 0.0
C93 C 0.04439 0.72773 0.21083 0.0
C94 C 0.02156 0.80713 0.22549 0.0
C95 C 0.06444 0.79835 0.37293 0.0
C96 C 0.08613 0.7182 0.35914 0.0
N97 N 0.09298 0.60327 0.26882 0.0
N98 N 0.99881 0.91259 0.32363 0.0
C99 C 0.07427 0.68169 0.27932 0.0
C100 C 0.02833 0.84079 0.30762 0.0
N101 N 0.04039 0.69825 0.13026 0.0
N102 N 0.08048 0.83502 0.44756 0.0
H103 H 0.97223 0.94546 0.27739 0.0
H104 H 0.99616 0.93653 0.38406 0.0
H105 H 0.10428 0.80477 0.49826 0.0
H106 H 0.07279 0.89636 0.45836 0.0
H107 H 0.06172 0.64469 0.11217 0.0
H108 H 0.01836 0.73003 0.07917 0.0
H109 H 0.0804 0.56904 0.21628 0.0
H110 H 0.11845 0.57058 0.31608 0.0
C111 C 0.22204 0.02015 0.31048 0.0
C112 C 0.23838 0.05537 0.23075 0.0
C113 C 0.34506 0.08578 0.28848 0.0
C114 C 0.33262 0.03463 0.36061 0.0
N115 N 0.25949 0.94636 0.43677 0.0
N116 N 0.31876 0.11541 0.13999 0.0
C117 C 0.2709 1.00074 0.37132 0.0
C118 C 0.30036 0.08836 0.21896 0.0
N119 N 0.15976 0.00516 0.32786 0.0
N120 N 0.40047 0.12929 0.28471 0.0
H121 H 0.28906 0.11607 0.08595 0.0
H122 H 0.36555 0.1306 0.12615 0.0
H123 H 0.43527 0.12678 0.33311 0.0
H124 H 0.40914 0.17362 0.23737 0.0
H125 H 0.14466 0.98752 0.38838 0.0
H126 H 0.12286 0.01942 0.28432 0.0
H127 H 0.21743 0.91295 0.44168 0.0
H128 H 0.29389 0.92986 0.4825 0.0
C129 C 0.94391 0.74754 0.8259 0.0
C130 C 0.97208 0.82621 0.82714 0.0
C131 C 0.97607 0.8297 0.67092 0.0
C132 C 0.95984 0.74636 0.67181 0.0
N133 N 0.9035 0.63658 0.7399 0.0
N134 N 0.01064 0.94644 0.75126 0.0
C135 C 0.93547 0.70864 0.74636 0.0
C136 C 0.98528 0.86957 0.74946 0.0
N137 N 0.92813 0.70912 0.901 0.0
N138 N 0.9819 0.86982 0.59403 0.0
H139 H 0.01734 0.97824 0.80728 0.0
H140 H 0.0278 0.97778 0.69791 0.0
H141 H 0.97236 0.84033 0.53702 0.0
H142 H 0.98961 0.93229 0.58652 0.0
H143 H 0.91358 0.64851 0.90626 0.0
H144 H 0.93141 0.73796 0.95931 0.0
H145 H 0.88053 0.60727 0.79023 0.0
H146 H 0.89513 0.6102 0.681 0.0
C147 C 0.25796 0.95978 0.7548 0.0
C148 C 0.26957 0.92994 0.83931 0.0
C149 C 0.36308 0.85682 0.7913 0.0
C150 C 0.35558 0.89629 0.70997 0.0
N151 N 0.30725 0.00653 0.62611 0.0
N152 N 0.33756 0.85724 0.9415 0.0
C153 C 0.3061 0.95356 0.69479 0.0
C154 C 0.32318 0.87976 0.85874 0.0
N155 N 0.20038 0.99248 0.73084 0.0
N156 N 0.4079 0.79753 0.80377 0.0
H157 H 0.30994 0.87395 0.99228 0.0
H158 H 0.3794 0.82761 0.9605 0.0
H159 H 0.43834 0.78093 0.75588 0.0
H160 H 0.4117 0.76098 0.85912 0.0
H161 H 0.18844 0.0085 0.66762 0.0
H162 H 0.16222 0.9947 0.77184 0.0
H163 H 0.27495 0.05412 0.61676 0.0
H164 H 0.34487 0.00903 0.5845 0.0
C165 C 0.04418 0.2426 0.7536 0.0
C166 C 0.00635 0.24133 0.82716 0.0
C167 C 0.96204 0.37314 0.78032 0.0
C168 C 0.0104 0.38237 0.71878 0.0
N169 N 0.10374 0.32683 0.65508 0.0
N170 N 0.93047 0.30767 0.91353 0.0
C171 C 0.05265 0.31686 0.7065 0.0
C172 C 0.96496 0.30686 0.84109 0.0
N173 N 0.07291 0.17269 0.72981 0.0
N174 N 0.91186 0.42545 0.77835 0.0
H175 H 0.93034 0.25916 0.95806 0.0
H176 H 0.9052 0.35848 0.93159 0.0
H177 H 0.90554 0.46996 0.73015 0.0
H178 H 0.87293 0.41798 0.81758 0.0
H179 H 0.09659 0.16814 0.67264 0.0
H180 H 0.06706 0.11718 0.7631 0.0
H181 H 0.13915 0.28312 0.65107 0.0
H182 H 0.11487 0.38166 0.62357 0.0
C183 C 0.69167 0.09923 0.83438 0.0
C184 C 0.75344 0.06646 0.82469 0.0
C185 C 0.72034 0.0104 0.68831 0.0
C186 C 0.65843 0.04276 0.69768 0.0
N187 N 0.59068 0.13689 0.76704 0.0
N188 N 0.83167 0.01471 0.73172 0.0
C189 C 0.64633 0.0946 0.76589 0.0
C190 C 0.76945 0.03039 0.74761 0.0
N191 N 0.67411 0.12805 0.91112 0.0
N192 N 0.73163 0.95711 0.62549 0.0
H193 H 0.86858 0.0298 0.77417 0.0
H194 H 0.84711 0.99478 0.6734 0.0
H195 H 0.69728 0.94153 0.58024 0.0
H196 H 0.77355 0.92415 0.62186 0.0
H197 H 0.62746 0.14274 0.92465 0.0
H198 H 0.70461 0.13125 0.96415 0.0
H199 H 0.58207 0.18168 0.81086 0.0
H200 H 0.55548 0.13289 0.71946 0.0
loop_
_geom_bond_atom_site_label_1
_geom_bond_atom_site_label_2
_geom_bond_distance
_geom_bond_site_symmetry_2
_ccdc_geom_bond_type
C0 O27 1.312 1_655 S
C0 O28 1.208 . S
C1 O22 1.331 . S
C1 O25 1.244 1_565 S
C2 O24 1.264 1_545 S
C2 O26 1.273 . S
Mg3 O5 1.936 1_564 S
Mg3 O12 2.081 1_554 S
Mg3 O14 2.023 . S
Mg3 O18 2.031 1_554 S
Mg3 O27 2.291 . S
Mg4 O5 1.963 . S
Mg4 O15 1.942 . S
Mg4 O16 1.955 1_556 S
Mg4 O23 1.986 . S
O5 Mg3 1.936 1_546 S
O5 Mg4 1.963 . S
O5 Mg6 1.915 1_556 S
Mg6 O5 1.915 1_554 S
Mg6 O7 1.915 1_455 S
Mg6 O11 2.013 . S
Mg6 O17 2.114 1_444 S
Mg6 O21 2.013 1_454 S
Mg6 O27 2.114 1_545 S
O7 Mg6 1.915 1_655 S
O7 Mg8 1.936 1_545 S
O7 Mg9 1.963 . S
Mg8 O7 1.936 1_565 S
Mg8 O17 2.291 1_554 S
Mg8 O22 2.081 . S
Mg8 O24 2.023 1_554 S
Mg8 O28 2.031 . S
Mg9 O7 1.963 . S
Mg9 O13 1.986 . S
Mg9 O25 1.942 . S
Mg9 O26 1.955 1_554 S
C10 O21 1.191 1_455 S
C10 O23 1.307 . S
O11 Mg6 2.013 . S
O11 C30 1.191 1_455 S
O12 Mg3 2.081 1_556 S
O12 C20 1.331 . S
O13 Mg9 1.986 . S
O13 C30 1.307 . S
O14 Mg3 2.023 . S
O14 C29 1.264 1_565 S
O15 Mg4 1.942 . S
O15 C20 1.244 1_545 S
O16 Mg4 1.955 1_554 S
O16 C29 1.273 . S
O17 Mg6 2.114 1_666 S
O17 Mg8 2.291 1_556 S
O17 C19 1.312 1_655 S
O18 Mg3 2.031 1_556 S
O18 C19 1.208 . S
C19 O17 1.312 1_455 S
C19 O18 1.208 . S
C20 O12 1.331 . S
C20 O15 1.244 1_565 S
O21 Mg6 2.013 1_656 S
O21 C10 1.191 1_655 S
O22 C1 1.331 . S
O22 Mg8 2.081 . S
O23 Mg4 1.986 . S
O23 C10 1.307 . S
O24 C2 1.264 1_565 S
O24 Mg8 2.023 1_556 S
O25 C1 1.244 1_545 S
O25 Mg9 1.942 . S
O26 C2 1.273 . S
O26 Mg9 1.955 1_556 S
O27 C0 1.312 1_455 S
O27 Mg3 2.291 . S
O27 Mg6 2.114 1_565 S
O28 C0 1.208 . S
O28 Mg8 2.031 . S
C29 O14 1.264 1_545 S
C29 O16 1.273 . S
C30 O11 1.191 1_655 S
C30 O13 1.307 . S
Mg31 O38 2.141 . S
Mg31 O39 2.048 . S
Mg31 O40 2.048 . S
Mg31 O43 2.141 . S
C32 O33 1.313 . S
C32 O39 1.195 1_455 S
O33 C32 1.313 . S
C34 O35 1.245 . S
C34 O43 1.289 1_455 S
O35 C34 1.245 . S
C36 O37 1.245 . S
C36 O38 1.289 1_455 S
O37 C36 1.245 . S
O38 Mg31 2.141 . S
O38 C36 1.289 1_655 S
O39 Mg31 2.048 . S
O39 C32 1.195 1_655 S
O40 Mg31 2.048 . S
O40 C41 1.195 1_655 S
C41 O40 1.195 1_455 S
C41 O42 1.313 . S
O42 C41 1.313 . S
O43 Mg31 2.141 . S
O43 C34 1.289 1_655 S
Mg44 O51 2.141 . S
Mg44 O52 2.048 . S
Mg44 O53 2.048 . S
Mg44 O56 2.141 . S
C45 O46 1.313 . S
C45 O52 1.195 1_565 S
O46 C45 1.313 . S
C47 O48 1.245 . S
C47 O56 1.289 1_565 S
O48 C47 1.245 . S
C49 O50 1.245 . S
C49 O51 1.289 1_565 S
O50 C49 1.245 . S
O51 Mg44 2.141 . S
O51 C49 1.289 1_545 S
O52 Mg44 2.048 . S
O52 C45 1.195 1_545 S
O53 Mg44 2.048 . S
O53 C54 1.195 1_545 S
C54 O53 1.195 1_565 S
C54 O55 1.313 . S
O55 C54 1.313 . S
O56 Mg44 2.141 . S
O56 C47 1.289 1_545 S
C57 C58 1.363 1_655 S
C57 C63 1.379 . S
C57 N65 1.356 . S
C58 C57 1.363 1_455 S
C58 C64 1.363 . S
C59 C60 1.363 . S
C59 C64 1.379 . S
C59 N66 1.356 . S
C60 C59 1.363 . S
C60 C63 1.363 1_455 S
N61 C63 1.356 . S
N61 H73 0.984 . S
N61 H74 0.985 . S
N62 C64 1.356 . S
N62 H67 0.984 . S
N62 H68 0.985 . S
C63 C57 1.379 . S
C63 C60 1.363 1_655 S
C63 N61 1.356 . S
C64 C58 1.363 . S
C64 C59 1.379 . S
C64 N62 1.356 . S
N65 C57 1.356 . S
N65 H71 0.984 . S
N65 H72 0.984 . S
N66 C59 1.356 . S
N66 H69 0.984 . S
N66 H70 0.985 . S
H67 N62 0.984 . S
H68 N62 0.985 . S
H69 N66 0.984 . S
H70 N66 0.985 . S
H71 N65 0.984 . S
H72 N65 0.984 . S
H73 N61 0.984 . S
H74 N61 0.985 . S
C75 C76 1.363 1_545 S
C75 C81 1.379 . S
C75 N83 1.356 . S
C76 C75 1.363 1_565 S
C76 C82 1.363 . S
C77 C78 1.355 1_565 S
C77 C82 1.379 . S
C77 N84 1.356 . S
C78 C77 1.355 1_545 S
C78 C81 1.371 . S
N79 C81 1.356 . S
N79 H91 0.984 . S
N79 H92 0.985 . S
N80 C82 1.356 . S
N80 H85 0.984 . S
N80 H86 0.985 . S
C81 C75 1.379 . S
C81 C78 1.371 . S
C81 N79 1.356 . S
C82 C76 1.363 . S
C82 C77 1.379 . S
C82 N80 1.356 . S
N83 C75 1.356 . S
N83 H89 0.984 . S
N83 H90 0.984 . S
N84 C77 1.356 . S
N84 H87 0.984 . S
N84 H88 0.985 . S
H85 N80 0.984 . S
H86 N80 0.985 . S
H87 N84 0.984 . S
H88 N84 0.985 . S
H89 N83 0.984 . S
H90 N83 0.984 . S
H91 N79 0.984 . S
H92 N79 0.985 . S
C93 C94 1.363 1_655 S
C93 C99 1.379 . S
C93 N101 1.356 . S
C94 C93 1.363 1_455 S
C94 C100 1.363 . S
C95 C96 1.363 . S
C95 C100 1.379 . S
C95 N102 1.356 . S
C96 C95 1.363 . S
C96 C99 1.363 1_455 S
N97 C99 1.356 . S
N97 H109 0.984 . S
N97 H110 0.985 . S
N98 C100 1.356 . S
N98 H103 0.984 . S
N98 H104 0.985 . S
C99 C93 1.379 . S
C99 C96 1.363 1_655 S
C99 N97 1.356 . S
C100 C94 1.363 . S
C100 C95 1.379 . S
C100 N98 1.356 . S
N101 C93 1.356 . S
N101 H107 0.984 . S
N101 H108 0.984 . S
N102 C95 1.356 . S
N102 H105 0.984 . S
N102 H106 0.985 . S
H103 N98 0.984 . S
H104 N98 0.985 . S
H105 N102 0.984 . S
H106 N102 0.985 . S
H107 N101 0.984 . S
H108 N101 0.984 . S
H109 N97 0.984 . S
H110 N97 0.985 . S
C111 C112 1.363 1_565 S
C111 C117 1.379 . S
C111 N119 1.356 . S
C112 C111 1.363 1_545 S
C112 C118 1.363 . S
C113 C114 1.363 . S
C113 C118 1.379 . S
C113 N120 1.356 . S
C114 C113 1.363 . S
C114 C117 1.363 1_545 S
N115 C117 1.356 . S
N115 H127 0.984 . S
N115 H128 0.985 . S
N116 C118 1.356 . S
N116 H121 0.984 . S
N116 H122 0.985 . S
C117 C111 1.379 . S
C117 C114 1.363 1_565 S
C117 N115 1.356 . S
C118 C112 1.363 . S
C118 C113 1.379 . S
C118 N116 1.356 . S
N119 C111 1.356 . S
N119 H125 0.984 . S
N119 H126 0.984 . S
N120 C113 1.356 . S
N120 H123 0.984 . S
N120 H124 0.985 . S
H121 N116 0.984 . S
H122 N116 0.985 . S
H123 N120 0.984 . S
H124 N120 0.985 . S
H125 N119 0.984 . S
H126 N119 0.984 . S
H127 N115 0.984 . S
H128 N115 0.985 . S
C129 C130 1.363 1_455 S
C129 C135 1.379 . S
C129 N137 1.356 . S
C130 C129 1.363 1_655 S
C130 C136 1.363 . S
C131 C132 1.363 1_655 S
C131 C136 1.379 . S
C131 N138 1.356 . S
C132 C131 1.363 1_455 S
C132 C135 1.363 . S
N133 C135 1.356 . S
N133 H145 0.984 . S
N133 H146 0.985 . S
N134 C136 1.356 . S
N134 H139 0.984 . S
N134 H140 0.985 . S
C135 C129 1.379 . S
C135 C132 1.363 . S
C135 N133 1.356 . S
C136 C130 1.363 . S
C136 C131 1.379 . S
C136 N134 1.356 . S
N137 C129 1.356 . S
N137 H143 0.984 . S
N137 H144 0.984 . S
N138 C131 1.356 . S
N138 H141 0.984 . S
N138 H142 0.985 . S
H139 N134 0.984 . S
H140 N134 0.985 . S
H141 N138 0.984 . S
H142 N138 0.985 . S
H143 N137 0.984 . S
H144 N137 0.984 . S
H145 N133 0.984 . S
H146 N133 0.985 . S
C147 C148 1.363 1_545 S
C147 C153 1.379 . S
C147 N155 1.356 . S
C148 C147 1.363 1_565 S
C148 C154 1.363 . S
C149 C150 1.354 1_565 S
C149 C154 1.379 . S
C149 N156 1.356 . S
C150 C149 1.354 1_545 S
C150 C153 1.371 . S
N151 C153 1.356 . S
N151 H163 0.984 . S
N151 H164 0.985 . S
N152 C154 1.356 . S
N152 H157 0.984 . S
N152 H158 0.985 . S
C153 C147 1.379 . S
C153 C150 1.371 . S
C153 N151 1.356 . S
C154 C148 1.363 . S
C154 C149 1.379 . S
C154 N152 1.356 . S
N155 C147 1.356 . S
N155 H161 0.984 . S
N155 H162 0.984 . S
N156 C149 1.356 . S
N156 H159 0.984 . S
N156 H160 0.985 . S
H157 N152 0.984 . S
H158 N152 0.985 . S
H159 N156 0.984 . S
H160 N156 0.985 . S
H161 N155 0.984 . S
H162 N155 0.984 . S
H163 N151 0.984 . S
H164 N151 0.985 . S
C165 C166 1.363 . S
C165 C171 1.379 . S
C165 N173 1.356 . S
C166 C165 1.363 . S
C166 C172 1.363 . S
C167 C168 1.363 . S
C167 C172 1.379 . S
C167 N174 1.356 . S
C168 C167 1.363 . S
C168 C171 1.363 . S
N169 C171 1.356 . S
N169 H181 0.984 . S
N169 H182 0.985 . S
N170 C172 1.356 . S
N170 H175 0.984 . S
N170 H176 0.985 . S
C171 C165 1.379 . S
C171 C168 1.363 . S
C171 N169 1.356 . S
C172 C166 1.363 . S
C172 C167 1.379 . S
C172 N170 1.356 . S
N173 C165 1.356 . S
N173 H179 0.984 . S
N173 H180 0.984 . S
N174 C167 1.356 . S
N174 H177 0.984 . S
N174 H178 0.985 . S
H175 N170 0.984 . S
H176 N170 0.985 . S
H177 N174 0.984 . S
H178 N174 0.985 . S
H179 N173 0.984 . S
H180 N173 0.984 . S
H181 N169 0.984 . S
H182 N169 0.985 . S
C183 C184 1.363 . S
C183 C189 1.379 . S
C183 N191 1.356 . S
C184 C183 1.363 . S
C184 C190 1.363 1_545 S
C185 C186 1.363 1_565 S
C185 C190 1.379 . S
C185 N192 1.356 . S
C186 C185 1.363 1_545 S
C186 C189 1.363 . S
N187 C189 1.356 . S
N187 H199 0.984 . S
N187 H200 0.985 . S
N188 C190 1.356 . S
N188 H193 0.984 . S
N188 H194 0.985 . S
C189 C183 1.379 . S
C189 C186 1.363 . S
C189 N187 1.356 . S
C190 C184 1.363 1_565 S
C190 C185 1.379 . S
C190 N188 1.356 . S
N191 C183 1.356 . S
N191 H197 0.984 . S
N191 H198 0.984 . S
N192 C185 1.356 . S
N192 H195 0.984 . S
N192 H196 0.985 . S
H193 N188 0.984 . S
H194 N188 0.985 . S
H195 N192 0.984 . S
H196 N192 0.985 . S
H197 N191 0.984 . S
H198 N191 0.984 . S
H199 N187 0.984 . S
H200 N187 0.985 . S
C58 C30 1.412 1_455 S
C60 C32 1.443 . S
C76 C1 1.490 . S
C78 C54 1.506 1_545 S
C94 C0 1.405 1_455 S
C96 C41 1.457 . S
C112 C29 1.524 . S
C114 C45 1.555 1_545 S
C130 C19 1.358 1_655 S
C132 C34 1.403 . S
C148 C20 1.430 . S
C150 C49 1.436 1_545 S
C168 C36 1.383 . S
C166 C10 1.362 . S
C184 C2 1.461 . S
C186 C47 1.485 1_545 S
