# Generated by pormake.
# Topology pth, (4,4)-cn, num edge types: 1
# Building blocks:
#     Node 0, Type 0, BuildingBlock: QUQFOY_clean_sbu_3, # of connection points: 4
#     Node 1, Type 0, BuildingBlock: QUQFOY_clean_sbu_3, # of connection points: 4
#     Node 2, Type 0, BuildingBlock: QUQFOY_clean_sbu_3, # of connection points: 4
#     Node 3, Type 1, BuildingBlock: NAWXER_clean_sbu_0, # of connection points: 4
#     Node 4, Type 1, BuildingBlock: NAWXER_clean_sbu_0, # of connection points: 4
#     Node 5, Type 1, BuildingBlock: NAWXER_clean_sbu_0, # of connection points: 4
#     Edge 6, Type (0, 1), None
#     Edge 7, Type (0, 1), None
#     Edge 8, Type (0, 1), None
#     Edge 9, Type (0, 1), None
#     Edge 10, Type (0, 1), None
#     Edge 11, Type (0, 1), None
#     Edge 12, Type (0, 1), None
#     Edge 13, Type (0, 1), None
#     Edge 14, Type (0, 1), None
#     Edge 15, Type (0, 1), None
#     Edge 16, Type (0, 1), None
#     Edge 17, Type (0, 1), None
# Relax obj value: 0.004
# Max RMSD: 0.055
# Mean RMSD: 0.030
data_MOF--net-pth--node1-QUQFOY_clean_sbu_3--node2-NAWXER_clean_sbu_0--edge1-none
_symmetry_space_group_name_H-M    P1
_symmetry_Int_Tables_number       1
_symmetry_cell_setting            triclinic
loop_
_symmetry_equiv_pos_as_xyz
'x, y, z'
_cell_length_a     10.669438
_cell_length_b     10.535356
_cell_length_c     27.277834
_cell_angle_alpha  91.210548
_cell_angle_beta   90.97954
_cell_angle_gamma 121.21613
loop_
_atom_site_label
_atom_site_type_symbol
_atom_site_fract_x
_atom_site_fract_y
_atom_site_fract_z
_atom_type_partial_charge
C0 C 0.91112 0.25129 0.08126 0.0
O1 O 0.85812 0.26061 0.04035 0.0
Cd2 Cd 0.87275 0.14487 0.96545 0.0
O3 O 0.98207 0.18357 0.08467 0.0
Cd4 Cd 0.03807 0.0088 0.03731 0.0
C5 C 0.24049 0.2202 0.94802 0.0
O6 O 0.788 0.92089 0.00312 0.0
O7 O 0.87654 0.78673 0.98394 0.0
O8 O 0.0444 0.9174 0.11698 0.0
C9 C 0.77213 0.81072 0.97912 0.0
O10 O 0.12513 0.22603 0.93991 0.0
C11 C 0.13475 0.8758 0.10853 0.0
O12 O 0.24891 0.15287 0.98463 0.0
O13 O 0.18367 0.89538 0.06568 0.0
C14 C 0.32673 0.17572 0.41797 0.0
O15 O 0.39405 0.23206 0.37901 0.0
Cd16 Cd 0.26583 0.20147 0.30305 0.0
O17 O 0.18651 0.1026 0.41864 0.0
Cd18 Cd 0.96213 0.0466 0.36848 0.0
C19 C 0.97483 0.82151 0.286 0.0
O20 O 0.11697 0.28796 0.32997 0.0
O21 O 0.89456 0.15887 0.30229 0.0
O22 O 0.86377 0.11095 0.43645 0.0
C23 C 0.02039 0.27533 0.29987 0.0
O24 O 0.09882 0.93828 0.279 0.0
C25 C 0.74393 -0.01192 0.43963 0.0
O26 O 0.89181 0.82071 0.3188 0.0
O27 O 0.7206 0.88537 0.40906 0.0
C28 C 0.78295 0.17495 0.6465 0.0
O29 O 0.76898 0.22496 0.68743 0.0
Cd30 Cd 0.88162 0.20607 0.76147 0.0
O31 O 0.85529 0.10952 0.64317 0.0
Cd32 Cd 0.02899 0.06905 0.69314 0.0
C33 C 0.818 0.84015 0.77674 0.0
O34 O 0.12254 0.32256 0.73479 0.0
O35 O 0.21976 0.197 0.75645 0.0
O36 O 0.19203 0.12803 0.62654 0.0
C37 C 0.2157 0.31491 0.76137 0.0
O38 O 0.80503 0.9522 0.78581 0.0
C39 C 0.1805 0.00252 0.62055 0.0
O40 O 0.89348 0.84152 0.74126 0.0
O41 O 0.09621 0.90147 0.64876 0.0
C42 C 0.9413 0.68722 0.25749 0.0
C43 C 0.91077 0.33836 0.1239 0.0
O44 O 0.05378 0.68501 0.24458 0.0
Zn45 Zn 0.13272 0.58607 0.19996 0.0
O46 O 0.81469 0.59144 0.23886 0.0
Zn47 Zn 0.88205 0.48705 0.19326 0.0
O48 O 0.93975 0.3805 0.24262 0.0
O49 O 0.18029 0.48457 0.25099 0.0
O50 O 0.79712 0.34045 0.13699 0.0
O51 O 0.03345 0.42145 0.14619 0.0
O52 O 0.24461 0.76209 0.15666 0.0
O53 O 0.0051 0.66664 0.15247 0.0
C54 C 0.0506 0.38603 0.26294 0.0
C55 C 0.13246 0.76392 0.14001 0.0
C56 C 0.69833 0.17325 0.60369 0.0
C57 C 0.40977 0.17424 0.46073 0.0
O58 O 0.60263 0.0466 0.58503 0.0
Zn59 Zn 0.43831 0.95022 0.52983 0.0
O60 O 0.71607 0.29221 0.58568 0.0
Zn61 Zn 0.56922 0.19997 0.53198 0.0
O62 O 0.38392 0.10931 0.57233 0.0
O63 O 0.26262 0.86417 0.57194 0.0
O64 O 0.51775 0.29276 0.48032 0.0
O65 O 0.37399 0.04762 0.4769 0.0
O66 O 0.52051 0.85784 0.48587 0.0
O67 O 0.65637 0.1027 0.4899 0.0
C68 C 0.27688 -0.01242 0.58628 0.0
C69 C 0.63443 0.97868 0.47366 0.0
C70 C 0.37002 0.32102 0.91998 0.0
C71 C 0.72777 0.7073 0.80565 0.0
O72 O 0.37 0.43491 0.90688 0.0
Zn73 Zn 0.45609 0.61913 0.87013 0.0
O74 O 0.47029 0.29768 0.90514 0.0
Zn75 Zn 0.58545 0.47858 0.86156 0.0
O76 O 0.66618 0.63173 0.91671 0.0
O77 O 0.55905 0.76112 0.92848 0.0
O78 O 0.74858 0.59932 0.81263 0.0
O79 O 0.62453 0.70928 0.82671 0.0
O80 O 0.29517 0.53195 0.81654 0.0
O81 O 0.41678 0.41481 0.81403 0.0
C82 C 0.65738 0.73089 0.94058 0.0
C83 C 0.31431 0.43063 0.79773 0.0
loop_
_geom_bond_atom_site_label_1
_geom_bond_atom_site_label_2
_geom_bond_distance
_geom_bond_site_symmetry_2
_ccdc_geom_bond_type
C0 O1 1.306 1_455 S
C0 O3 1.160 . S
O1 C0 1.306 1_655 S
O1 Cd2 2.228 1_554 S
Cd2 O1 2.228 1_556 S
Cd2 O6 2.273 1_546 S
Cd2 O10 2.277 1_655 S
O3 C0 1.160 . S
O3 Cd4 2.203 . S
Cd4 O3 2.203 . S
Cd4 O6 2.411 1_445 S
Cd4 O7 2.333 1_444 S
Cd4 O8 2.352 1_445 S
Cd4 O12 2.277 . S
Cd4 O13 2.356 1_545 S
C5 O10 1.209 . S
C5 O12 1.226 1_556 S
O6 Cd2 2.273 1_564 S
O6 Cd4 2.411 1_665 S
O6 C9 1.320 1_554 S
O7 Cd4 2.333 1_666 S
O7 C9 1.214 . S
O8 Cd4 2.352 1_665 S
O8 C11 1.258 1_655 S
C9 O6 1.320 1_556 S
C9 O7 1.214 . S
O10 Cd2 2.277 1_455 S
O10 C5 1.209 . S
C11 O8 1.258 1_455 S
C11 O13 1.282 . S
O12 Cd4 2.277 . S
O12 C5 1.226 1_554 S
O13 Cd4 2.356 1_565 S
O13 C11 1.282 . S
C14 O15 1.306 . S
C14 O17 1.160 . S
O15 C14 1.306 . S
O15 Cd16 2.228 . S
Cd16 O15 2.228 . S
Cd16 O20 2.273 . S
Cd16 O24 2.277 1_545 S
O17 C14 1.160 . S
O17 Cd18 2.203 1_455 S
Cd18 O17 2.203 1_655 S
Cd18 O20 2.411 1_655 S
Cd18 O21 2.333 . S
Cd18 O22 2.352 . S
Cd18 O26 2.277 1_545 S
Cd18 O27 2.356 1_545 S
C19 O24 1.209 . S
C19 O26 1.226 1_455 S
O20 Cd16 2.273 . S
O20 Cd18 2.411 1_455 S
O20 C23 1.320 . S
O21 Cd18 2.333 . S
O21 C23 1.214 1_655 S
O22 Cd18 2.352 . S
O22 C25 1.258 . S
C23 O20 1.320 . S
C23 O21 1.214 1_455 S
O24 Cd16 2.277 1_565 S
O24 C19 1.209 . S
C25 O22 1.258 . S
C25 O27 1.282 1_545 S
O26 Cd18 2.277 1_565 S
O26 C19 1.226 1_655 S
O27 Cd18 2.356 1_565 S
O27 C25 1.282 1_565 S
C28 O29 1.306 . S
C28 O31 1.160 . S
O29 C28 1.306 . S
O29 Cd30 2.228 . S
Cd30 O29 2.228 . S
Cd30 O34 2.273 1_655 S
Cd30 O38 2.277 . S
O31 C28 1.160 . S
O31 Cd32 2.203 1_655 S
Cd32 O31 2.203 1_455 S
Cd32 O34 2.411 . S
Cd32 O35 2.333 . S
Cd32 O36 2.352 . S
Cd32 O40 2.277 1_445 S
Cd32 O41 2.356 1_545 S
C33 O38 1.209 1_565 S
C33 O40 1.226 . S
O34 Cd30 2.273 1_455 S
O34 Cd32 2.411 . S
O34 C37 1.320 . S
O35 Cd32 2.333 . S
O35 C37 1.214 . S
O36 Cd32 2.352 . S
O36 C39 1.258 . S
C37 O34 1.320 . S
C37 O35 1.214 . S
O38 Cd30 2.277 . S
O38 C33 1.209 1_545 S
C39 O36 1.258 . S
C39 O41 1.282 1_545 S
O40 Cd32 2.277 1_665 S
O40 C33 1.226 . S
O41 Cd32 2.356 1_565 S
O41 C39 1.282 1_565 S
C42 O44 1.247 . S
C42 O46 1.258 1_455 S
C43 O50 1.247 1_455 S
C43 O51 1.258 . S
O44 C42 1.247 . S
O44 Zn45 2.028 . S
Zn45 O44 2.028 . S
Zn45 O49 2.035 . S
Zn45 O51 2.035 . S
Zn45 O52 2.028 . S
O46 C42 1.258 1_655 S
O46 Zn47 2.035 . S
Zn47 O46 2.035 . S
Zn47 O48 2.028 . S
Zn47 O50 2.028 . S
Zn47 O53 2.035 . S
O48 Zn47 2.028 . S
O48 C54 1.247 1_655 S
O49 Zn45 2.035 . S
O49 C54 1.258 . S
O50 C43 1.247 1_655 S
O50 Zn47 2.028 . S
O51 C43 1.258 . S
O51 Zn45 2.035 . S
O52 Zn45 2.028 . S
O52 C55 1.247 . S
O53 Zn47 2.035 . S
O53 C55 1.258 1_655 S
C54 O48 1.247 1_455 S
C54 O49 1.258 . S
C55 O52 1.247 . S
C55 O53 1.258 1_455 S
C56 O58 1.247 1_545 S
C56 O60 1.258 . S
C57 O64 1.247 . S
C57 O65 1.258 1_545 S
O58 C56 1.247 1_565 S
O58 Zn59 2.028 . S
Zn59 O58 2.028 . S
Zn59 O63 2.035 . S
Zn59 O65 2.035 . S
Zn59 O66 2.028 . S
O60 C56 1.258 . S
O60 Zn61 2.035 . S
Zn61 O60 2.035 . S
Zn61 O62 2.028 . S
Zn61 O64 2.028 . S
Zn61 O67 2.035 . S
O62 Zn61 2.028 . S
O62 C68 1.247 . S
O63 Zn59 2.035 . S
O63 C68 1.258 1_565 S
O64 C57 1.247 . S
O64 Zn61 2.028 . S
O65 C57 1.258 1_565 S
O65 Zn59 2.035 . S
O66 Zn59 2.028 . S
O66 C69 1.247 1_565 S
O67 Zn61 2.035 . S
O67 C69 1.258 . S
C68 O62 1.247 . S
C68 O63 1.258 1_545 S
C69 O66 1.247 1_545 S
C69 O67 1.258 . S
C70 O72 1.247 . S
C70 O74 1.258 . S
C71 O78 1.247 . S
C71 O79 1.258 . S
O72 C70 1.247 . S
O72 Zn73 2.028 . S
Zn73 O72 2.028 . S
Zn73 O77 2.035 . S
Zn73 O79 2.035 . S
Zn73 O80 2.028 . S
O74 C70 1.258 . S
O74 Zn75 2.035 . S
Zn75 O74 2.035 . S
Zn75 O76 2.028 . S
Zn75 O78 2.028 . S
Zn75 O81 2.035 . S
O76 Zn75 2.028 . S
O76 C82 1.247 . S
O77 Zn73 2.035 . S
O77 C82 1.258 . S
O78 C71 1.247 . S
O78 Zn75 2.028 . S
O79 C71 1.258 . S
O79 Zn73 2.035 . S
O80 Zn73 2.028 . S
O80 C83 1.247 . S
O81 Zn75 2.035 . S
O81 C83 1.258 . S
C82 O76 1.247 . S
C82 O77 1.258 . S
C83 O80 1.247 . S
C83 O81 1.258 . S
C43 C0 1.457 . S
C25 C69 1.483 . S
C33 C71 1.503 . S
C11 C55 1.406 . S
C57 C14 1.474 . S
C37 C83 1.482 . S
C56 C28 1.470 . S
C9 C82 1.483 . S
C42 C19 1.531 . S
C68 C39 1.476 . S
C70 C5 1.499 . S
C23 C54 1.541 . S
