# Generated by pormake.
# Topology tsx, (6,3)-cn, num edge types: 1
# Building blocks:
#     Node 0, Type 0, BuildingBlock: FUNLAD_clean_sbu_0, # of connection points: 6
#     Node 1, Type 0, BuildingBlock: FUNLAD_clean_sbu_0, # of connection points: 6
#     Node 2, Type 1, BuildingBlock: OLANEW_clean_sbu_2, # of connection points: 3
#     Node 3, Type 1, BuildingBlock: OLANEW_clean_sbu_2, # of connection points: 3
#     Node 4, Type 1, BuildingBlock: OLANEW_clean_sbu_2, # of connection points: 3
#     Node 5, Type 1, BuildingBlock: OLANEW_clean_sbu_2, # of connection points: 3
#     Edge 6, Type (0, 1), BuildingBlock: AJUNOK_clean_linker_0, # of connection points: 2
#     Edge 7, Type (0, 1), BuildingBlock: AJUNOK_clean_linker_0, # of connection points: 2
#     Edge 8, Type (0, 1), BuildingBlock: AJUNOK_clean_linker_0, # of connection points: 2
#     Edge 9, Type (0, 1), BuildingBlock: AJUNOK_clean_linker_0, # of connection points: 2
#     Edge 10, Type (0, 1), BuildingBlock: AJUNOK_clean_linker_0, # of connection points: 2
#     Edge 11, Type (0, 1), BuildingBlock: AJUNOK_clean_linker_0, # of connection points: 2
#     Edge 12, Type (0, 1), BuildingBlock: AJUNOK_clean_linker_0, # of connection points: 2
#     Edge 13, Type (0, 1), BuildingBlock: AJUNOK_clean_linker_0, # of connection points: 2
#     Edge 14, Type (0, 1), BuildingBlock: AJUNOK_clean_linker_0, # of connection points: 2
#     Edge 15, Type (0, 1), BuildingBlock: AJUNOK_clean_linker_0, # of connection points: 2
#     Edge 16, Type (0, 1), BuildingBlock: AJUNOK_clean_linker_0, # of connection points: 2
#     Edge 17, Type (0, 1), BuildingBlock: AJUNOK_clean_linker_0, # of connection points: 2
# Relax obj value: 0.082
# Max RMSD: 0.101
# Mean RMSD: 0.093
data_MOF--net-tsx--node1-FUNLAD_clean_sbu_0--node2-OLANEW_clean_sbu_2--edge1-AJUNOK_clean_linker_0
_symmetry_space_group_name_H-M    P1
_symmetry_Int_Tables_number       1
_symmetry_cell_setting            triclinic
loop_
_symmetry_equiv_pos_as_xyz
'x, y, z'
_cell_length_a     15.940099
_cell_length_b     17.413735
_cell_length_c     31.952154
_cell_angle_alpha  97.108905
_cell_angle_beta   92.30178
_cell_angle_gamma 89.579886
loop_
_atom_site_label
_atom_site_type_symbol
_atom_site_fract_x
_atom_site_fract_y
_atom_site_fract_z
_atom_type_partial_charge
C0 C 0.86489 0.9372 0.00384 0.0
N1 N -0.004 0.06755 0.10336 0.0
C2 C 0.9224 0.07439 0.12369 0.0
C3 C 0.92252 0.07568 0.1675 0.0
C4 C -0.00098 0.0705 0.19034 0.0
C5 C 0.07399 0.06638 0.16872 0.0
C6 C 0.07099 0.0649 0.12503 0.0
Zn7 Zn -0.00295 0.05019 0.03921 0.0
C8 C 0.10503 0.91526 0.0098 0.0
N9 N 0.00487 0.00655 0.90528 0.0
C10 C 0.93547 0.00016 0.87887 0.0
C11 C 0.08357 0.00261 0.88999 0.0
C12 C 0.09486 0.99392 0.84671 0.0
C13 C 0.02465 0.98762 0.81891 0.0
C14 C 0.94403 0.98996 0.83511 0.0
Zn15 Zn -0.00281 0.02532 0.96931 0.0
O16 O 0.89516 0.97538 0.03736 0.0
C17 C 0.88468 0.15673 -0.00311 0.0
O18 O 0.89593 0.94501 0.9685 0.0
H19 H 0.13797 0.00671 0.9114 0.0
H20 H 0.86357 0.07612 0.10581 0.0
H21 H 0.87357 0.00351 0.89172 0.0
O22 O 0.91225 0.14493 0.03355 0.0
O23 O 0.91101 0.11511 0.96458 0.0
H24 H 0.12876 0.05847 0.10825 0.0
O25 O 0.09949 0.10641 0.97188 0.0
O26 O 0.09832 0.12421 0.04087 0.0
O27 O 0.08057 0.93419 0.9743 0.0
O28 O 0.08133 0.95449 0.04345 0.0
C29 C 0.13031 0.13818 0.00702 0.0
H30 H 0.86341 0.07879 0.18326 0.0
H31 H 0.13401 0.06064 0.18514 0.0
H32 H 0.15784 0.99159 0.83501 0.0
H33 H 0.88866 0.98511 0.8142 0.0
C34 C 0.39227 0.38629 0.4961 0.0
N35 N 0.4977 0.53928 0.59504 0.0
C36 C 0.42431 0.53417 0.61486 0.0
C37 C 0.42427 0.54074 0.6589 0.0
C38 C 0.50025 0.55385 0.6823 0.0
C39 C 0.57431 0.5616 0.66122 0.0
C40 C 0.57178 0.55324 0.61733 0.0
Zn41 Zn 0.50305 0.51763 0.53112 0.0
C42 C 0.63601 0.39849 0.50771 0.0
N43 N 0.52589 0.46741 0.39835 0.0
C44 C 0.45712 0.4583 0.37162 0.0
C45 C 0.60441 0.47247 0.38358 0.0
C46 C 0.61552 0.47359 0.34066 0.0
C47 C 0.54535 0.46814 0.31278 0.0
C48 C 0.46559 0.45804 0.32824 0.0
Zn49 Zn 0.51398 0.48793 0.462 0.0
O50 O 0.41285 0.43065 0.52942 0.0
C51 C 0.38041 0.60619 0.4844 0.0
O52 O 0.42651 0.39456 0.46159 0.0
H53 H 0.65827 0.47948 0.40533 0.0
H54 H 0.3662 0.52297 0.59654 0.0
H55 H 0.39534 0.45483 0.3841 0.0
O56 O 0.40662 0.59989 0.52199 0.0
O57 O 0.4138 0.56532 0.45371 0.0
H58 H 0.62969 0.55561 0.60108 0.0
O59 O 0.60139 0.58089 0.46368 0.0
O60 O 0.59195 0.60544 0.53212 0.0
O61 O 0.61296 0.41168 0.47084 0.0
O62 O 0.60007 0.43387 0.53931 0.0
C63 C 0.62345 0.62053 0.49834 0.0
H64 H 0.36601 0.53471 0.67449 0.0
H65 H 0.63397 0.57109 0.67851 0.0
H66 H 0.67783 0.48149 0.32951 0.0
H67 H 0.41023 0.45419 0.30731 0.0
O68 O 0.96684 0.96496 0.37736 0.0
Cd69 Cd 0.97547 0.92239 0.44696 0.0
O70 O 0.05599 0.05991 0.39477 0.0
Cd71 Cd 0.02941 0.06212 0.46118 0.0
O72 O 0.94353 0.15492 0.48323 0.0
C73 C 0.88827 0.15725 0.51092 0.0
O74 O 0.88022 0.09819 0.53233 0.0
C75 C 0.01223 0.01836 0.36668 0.0
C76 C 0.11238 0.8231 0.45397 0.0
O77 O 0.04348 0.79927 0.43494 0.0
O78 O 0.11741 0.89458 0.46929 0.0
O79 O 0.06774 0.01409 0.61993 0.0
Cd80 Cd 0.07267 0.01488 0.54341 0.0
O81 O 0.08803 0.88871 0.61824 0.0
Cd82 Cd 0.07666 0.86834 0.55008 0.0
O83 O 0.97095 0.8114 0.51471 0.0
C84 C 0.89934 0.83554 0.52645 0.0
O85 O 0.89548 0.89518 0.55587 0.0
C86 C 0.07643 0.95454 0.63908 0.0
C87 C 0.17064 0.13642 0.52321 0.0
O88 O 0.09535 0.14743 0.53517 0.0
O89 O 0.20026 0.06745 0.52071 0.0
O90 O 0.49736 0.5082 0.88286 0.0
Cd91 Cd 0.50867 0.49997 0.95851 0.0
O92 O 0.55109 0.62449 0.88656 0.0
Cd93 Cd 0.52719 0.64456 0.95326 0.0
O94 O 0.42997 0.70496 0.99016 0.0
C95 C 0.35585 0.67829 0.98569 0.0
O96 O 0.34304 0.61148 0.96241 0.0
C97 C 0.52417 0.56331 0.86453 0.0
C98 C 0.6303 0.38945 0.97324 0.0
O99 O 0.55593 0.3701 0.95956 0.0
O100 O 0.64771 0.4617 0.98069 0.0
O101 O 0.5176 0.58722 0.12961 0.0
Cd102 Cd 0.49012 0.61806 0.05819 0.0
O103 O 0.56334 0.46982 0.10891 0.0
Cd104 Cd 0.52256 0.47586 0.04358 0.0
O105 O 0.42097 0.40433 0.01322 0.0
C106 C 0.41918 0.34107 0.02908 0.0
O107 O 0.47761 0.32822 0.05761 0.0
C108 C 0.54875 0.52352 0.13837 0.0
C109 C 0.60948 0.72006 0.03634 0.0
O110 O 0.54546 0.74438 0.05717 0.0
O111 O 0.61814 0.6469 0.02651 0.0
C112 C 0.25837 0.19152 0.04606 0.0
C113 C 0.20532 0.18783 0.00966 0.0
C114 C 0.32846 0.23968 0.05118 0.0
C115 C 0.34768 0.28731 0.02047 0.0
H116 H 0.24568 0.15687 0.07101 0.0
H117 H 0.36656 0.24094 0.08011 0.0
S118 S 0.23065 0.29719 0.91854 0.0
N119 N 0.17825 0.23343 0.94146 0.0
N120 N 0.3098 0.32611 0.95158 0.0
C121 C 0.29603 0.28355 0.98351 0.0
C122 C 0.22501 0.23311 0.97793 0.0
C123 C 0.23765 0.85481 0.03391 0.0
C124 C 0.16078 0.84801 0.01085 0.0
C125 C 0.29899 0.79675 0.02767 0.0
C126 C 0.28464 0.72972 -0.00129 0.0
H127 H 0.25262 0.90739 0.05463 0.0
H128 H 0.35949 0.8062 0.04413 0.0
S129 S 0.08651 0.68017 0.93629 0.0
N130 N 0.06902 0.76661 0.96199 0.0
N131 N 0.18282 0.65642 0.95092 0.0
C132 C 0.20472 0.71965 0.97842 0.0
C133 C 0.14317 0.77929 0.98426 0.0
C134 C 0.73765 0.90248 0.03928 0.0
C135 C 0.79527 0.88353 0.00743 0.0
C136 C 0.67659 0.84981 0.04751 0.0
C137 C 0.6718 0.77544 0.02476 0.0
H138 H 0.74059 0.95825 0.05856 0.0
H139 H 0.63449 0.86687 0.07281 0.0
S140 S 0.80594 0.69858 0.93671 0.0
N141 N 0.84186 0.78687 0.9517 0.0
N142 N 0.72757 0.68662 0.96757 0.0
C143 C 0.72774 0.75626 -0.00798 0.0
C144 C 0.78926 0.81071 0.98317 0.0
C145 C 0.81812 0.28607 0.01787 0.0
C146 C 0.81911 0.21537 -0.00867 0.0
C147 C 0.75735 0.34287 0.01159 0.0
C148 C 0.69434 0.32972 0.97938 0.0
H149 H 0.86547 0.29812 0.04306 0.0
H150 H 0.75906 0.39697 0.03238 0.0
S151 S 0.668 0.15293 0.90242 0.0
N152 N 0.75131 0.13498 0.93205 0.0
N153 N 0.6362 0.24048 0.92109 0.0
C154 C 0.69392 0.25869 0.95322 0.0
C155 C 0.7566 0.20182 0.95897 0.0
C156 C 0.68936 0.74099 0.5344 0.0
C157 C 0.68789 0.68138 0.50042 0.0
C158 C 0.7556 0.79379 0.54087 0.0
C159 C 0.82378 0.78811 0.51406 0.0
H160 H 0.64003 0.74565 0.55695 0.0
H161 H 0.75521 0.83678 0.56844 0.0
S162 S 0.84584 0.64714 0.41798 0.0
N163 N 0.75648 0.62361 0.43746 0.0
N164 N 0.88228 0.72216 0.45009 0.0
C165 C 0.82099 0.73127 0.47864 0.0
C166 C 0.75264 0.6781 0.47167 0.0
C167 C 0.76725 0.33335 0.48345 0.0
C168 C 0.70379 0.34187 0.51287 0.0
C169 C 0.82825 0.27559 0.48445 0.0
C170 C 0.82762 0.22272 0.51446 0.0
H171 H 0.76919 0.37108 0.45895 0.0
H172 H 0.8747 0.2711 0.46043 0.0
S173 S 0.67628 0.22298 0.59989 0.0
N174 N 0.64549 0.29564 0.57424 0.0
N175 N 0.75957 0.18535 0.57577 0.0
C176 C 0.76578 0.2321 0.54501 0.0
C177 C 0.70409 0.29212 0.54433 0.0
C178 C 0.34403 0.24907 0.47975 0.0
C179 C 0.33011 0.32499 0.49874 0.0
C180 C 0.29155 0.18826 0.48742 0.0
C181 C 0.22247 0.20179 0.51356 0.0
H182 H 0.39781 0.23606 0.46039 0.0
H183 H 0.30572 0.13016 0.47314 0.0
S184 S 0.15591 0.39214 0.56777 0.0
N185 N 0.24063 0.4114 0.54294 0.0
N186 N 0.14082 0.29803 0.55649 0.0
C187 C 0.20599 0.27827 0.53111 0.0
C188 C 0.2602 0.33964 0.52395 0.0
C189 C 0.30122 0.7294 0.50358 0.0
C190 C 0.31202 0.66083 0.47605 0.0
C191 C 0.23794 0.78274 0.49555 0.0
C192 C 0.18199 0.76849 0.46026 0.0
H193 H 0.34258 0.74244 0.53125 0.0
H194 H 0.23179 0.83474 0.51764 0.0
S195 S 0.18324 0.59706 0.37876 0.0
N196 N 0.26185 0.58175 0.41196 0.0
N197 N 0.14178 0.68086 0.3975 0.0
C198 C 0.19194 0.69996 0.43262 0.0
C199 C 0.25727 0.64645 0.44034 0.0
C200 C 0.95142 0.00453 0.25 0.0
C201 C 0.00066 0.06192 0.23584 0.0
C202 C 0.95636 0.99063 0.2922 0.0
C203 C 0.01049 0.03386 0.32203 0.0
H204 H 0.9101 0.96876 0.22805 0.0
H205 H 0.91733 0.94537 0.30137 0.0
S206 S 0.14958 0.19391 0.30092 0.0
N207 N 0.10292 0.16431 0.25474 0.0
N208 N 0.11266 0.13853 0.3343 0.0
C209 C 0.05925 0.09243 0.3083 0.0
C210 C 0.05427 0.10633 0.26517 0.0
C211 C 0.07062 0.03912 0.75419 0.0
C212 C 0.03648 0.97835 0.7731 0.0
C213 C 0.08409 0.03087 0.71077 0.0
C214 C 0.0658 0.96091 0.68513 0.0
H215 H 0.08627 0.09353 0.77308 0.0
H216 H 0.10939 0.07944 0.69726 0.0
S217 S 0.97635 0.78428 0.72032 0.0
N218 N 0.98481 0.84653 0.76367 0.0
N219 N 0.01157 0.82975 0.68217 0.0
C220 C 0.03257 0.89937 0.70402 0.0
C221 C 0.01746 0.90849 0.74802 0.0
C222 C 0.53323 0.62185 0.75424 0.0
C223 C 0.5039 0.55558 0.72852 0.0
C224 C 0.54045 0.62344 0.79815 0.0
C225 C 0.51945 0.55844 0.81784 0.0
H226 H 0.55029 0.67289 0.74028 0.0
H227 H 0.56226 0.6763 0.81673 0.0
S228 S 0.44545 0.36869 0.76319 0.0
N229 N 0.45733 0.42258 0.72482 0.0
N230 N 0.47143 0.42449 0.80735 0.0
C231 C 0.49141 0.49119 0.79206 0.0
C232 C 0.48344 0.49006 0.74739 0.0
C233 C 0.53876 0.42096 0.23573 0.0
C234 C 0.55417 0.48111 0.26852 0.0
C235 C 0.54181 0.43433 0.19344 0.0
C236 C 0.55834 0.50874 0.18278 0.0
H237 H 0.52315 0.36365 0.24286 0.0
H238 H 0.52744 0.38689 0.169 0.0
S239 S 0.60645 0.68443 0.25765 0.0
N240 N 0.59041 0.6163 0.28809 0.0
N241 N 0.59385 0.64224 0.20859 0.0
C242 C 0.57568 0.5688 0.21547 0.0
C243 C 0.57416 0.55479 0.25841 0.0
loop_
_geom_bond_atom_site_label_1
_geom_bond_atom_site_label_2
_geom_bond_distance
_geom_bond_site_symmetry_2
_ccdc_geom_bond_type
C0 O16 1.251 . S
C0 O18 1.254 1_554 S
N1 C2 1.333 1_455 S
N1 C6 1.307 . S
N1 Zn7 2.020 . S
C2 N1 1.333 1_655 S
C2 C3 1.379 . S
C2 H20 0.952 1_545 S
C3 C2 1.379 . S
C3 C4 1.390 1_655 S
C3 H30 0.949 . S
C4 C3 1.390 1_455 S
C4 C5 1.357 . S
C5 C4 1.357 . S
C5 C6 1.370 . S
C5 H31 0.950 . S
C6 N1 1.307 . S
C6 C5 1.370 . S
C6 H24 0.948 . S
Zn7 N1 2.020 . S
Zn7 O16 2.039 1_445 S
Zn7 O22 2.034 1_455 S
Zn7 O26 2.025 . S
Zn7 O28 2.024 1_545 S
C8 O27 1.246 1_554 S
C8 O28 1.249 . S
N9 C10 1.307 1_445 S
N9 C11 1.333 . S
N9 Zn15 2.020 1_455 S
C10 N9 1.307 1_665 S
C10 C14 1.370 . S
C10 H21 0.948 . S
C11 N9 1.333 . S
C11 C12 1.379 . S
C11 H19 0.952 . S
C12 C11 1.379 . S
C12 C13 1.390 1_545 S
C12 H32 0.949 . S
C13 C12 1.390 1_565 S
C13 C14 1.357 1_455 S
C14 C10 1.370 . S
C14 C13 1.357 1_655 S
C14 H33 0.950 . S
Zn15 N9 2.020 1_655 S
Zn15 O18 2.025 1_545 S
Zn15 O23 2.024 . S
Zn15 O25 2.040 1_655 S
Zn15 O27 2.035 1_645 S
O16 C0 1.251 . S
O16 Zn7 2.039 1_665 S
C17 O22 1.246 . S
C17 O23 1.249 1_554 S
O18 C0 1.254 1_556 S
O18 Zn15 2.025 1_565 S
H19 C11 0.952 . S
H20 C2 0.952 1_565 S
H21 C10 0.948 . S
O22 Zn7 2.034 1_655 S
O22 C17 1.246 . S
O23 Zn15 2.024 . S
O23 C17 1.249 1_556 S
H24 C6 0.948 . S
O25 Zn15 2.040 1_455 S
O25 C29 1.251 1_556 S
O26 Zn7 2.025 . S
O26 C29 1.254 . S
O27 C8 1.246 1_556 S
O27 Zn15 2.035 1_465 S
O28 Zn7 2.024 1_565 S
O28 C8 1.249 . S
C29 O25 1.251 1_554 S
C29 O26 1.254 . S
H30 C3 0.949 . S
H31 C5 0.950 . S
H32 C12 0.949 . S
H33 C14 0.950 . S
C34 O50 1.251 . S
C34 O52 1.254 . S
N35 C36 1.333 . S
N35 C40 1.307 . S
N35 Zn41 2.020 . S
C36 N35 1.333 . S
C36 C37 1.379 . S
C36 H54 0.952 . S
C37 C36 1.379 . S
C37 C38 1.390 . S
C37 H64 0.949 . S
C38 C37 1.390 . S
C38 C39 1.357 . S
C39 C38 1.357 . S
C39 C40 1.370 . S
C39 H65 0.950 . S
C40 N35 1.307 . S
C40 C39 1.370 . S
C40 H58 0.948 . S
Zn41 N35 2.020 . S
Zn41 O50 2.039 . S
Zn41 O56 2.034 . S
Zn41 O60 2.025 . S
Zn41 O62 2.024 . S
C42 O61 1.246 . S
C42 O62 1.249 . S
N43 C44 1.307 . S
N43 C45 1.333 . S
N43 Zn49 2.020 . S
C44 N43 1.307 . S
C44 C48 1.370 . S
C44 H55 0.948 . S
C45 N43 1.333 . S
C45 C46 1.379 . S
C45 H53 0.952 . S
C46 C45 1.379 . S
C46 C47 1.390 . S
C46 H66 0.949 . S
C47 C46 1.390 . S
C47 C48 1.357 . S
C48 C44 1.370 . S
C48 C47 1.357 . S
C48 H67 0.950 . S
Zn49 N43 2.020 . S
Zn49 O52 2.025 . S
Zn49 O57 2.024 . S
Zn49 O59 2.039 . S
Zn49 O61 2.034 . S
O50 C34 1.251 . S
O50 Zn41 2.039 . S
C51 O56 1.246 . S
C51 O57 1.249 . S
O52 C34 1.254 . S
O52 Zn49 2.025 . S
H53 C45 0.952 . S
H54 C36 0.952 . S
H55 C44 0.948 . S
O56 Zn41 2.034 . S
O56 C51 1.246 . S
O57 Zn49 2.024 . S
O57 C51 1.249 . S
H58 C40 0.948 . S
O59 Zn49 2.039 . S
O59 C63 1.251 . S
O60 Zn41 2.025 . S
O60 C63 1.254 . S
O61 C42 1.246 . S
O61 Zn49 2.034 . S
O62 Zn41 2.024 . S
O62 C42 1.249 . S
C63 O59 1.251 . S
C63 O60 1.254 . S
H64 C37 0.949 . S
H65 C39 0.950 . S
H66 C46 0.949 . S
H67 C48 0.950 . S
O68 Cd69 2.300 1_565 S
O68 C75 1.275 1_565 S
Cd69 O68 2.300 1_545 S
Cd69 O77 2.381 1_545 S
Cd69 O78 2.378 1_545 S
O70 Cd71 2.385 . S
O70 C75 1.255 . S
Cd71 O70 2.385 . S
Cd71 O72 2.317 1_455 S
O72 Cd71 2.317 1_655 S
O72 C73 1.232 . S
C73 O72 1.232 . S
C73 O74 1.218 . S
O74 C73 1.218 . S
C75 O68 1.275 1_545 S
C75 O70 1.255 . S
C76 O77 1.258 . S
C76 O78 1.256 . S
O77 Cd69 2.381 1_565 S
O77 C76 1.258 . S
O78 Cd69 2.378 1_565 S
O78 C76 1.256 . S
O79 Cd80 2.300 . S
O79 C86 1.275 1_545 S
Cd80 O79 2.300 . S
Cd80 O88 2.381 . S
Cd80 O89 2.378 . S
O81 Cd82 2.385 . S
O81 C86 1.255 . S
Cd82 O81 2.385 . S
Cd82 O83 2.317 1_455 S
O83 Cd82 2.317 1_655 S
O83 C84 1.232 . S
C84 O83 1.232 . S
C84 O85 1.218 . S
O85 C84 1.218 . S
C86 O79 1.275 1_565 S
C86 O81 1.255 . S
C87 O88 1.258 . S
C87 O89 1.256 . S
O88 Cd80 2.381 . S
O88 C87 1.258 . S
O89 Cd80 2.378 . S
O89 C87 1.256 . S
O90 Cd91 2.300 . S
O90 C97 1.275 . S
Cd91 O90 2.300 . S
Cd91 O99 2.381 . S
Cd91 O100 2.378 1_556 S
O92 Cd93 2.385 . S
O92 C97 1.255 . S
Cd93 O92 2.385 . S
Cd93 O94 2.317 1_556 S
O94 Cd93 2.317 1_554 S
O94 C95 1.232 1_554 S
C95 O94 1.232 1_556 S
C95 O96 1.218 . S
O96 C95 1.218 . S
C97 O90 1.275 . S
C97 O92 1.255 . S
C98 O99 1.258 1_554 S
C98 O100 1.256 . S
O99 Cd91 2.381 . S
O99 C98 1.258 1_556 S
O100 Cd91 2.378 1_554 S
O100 C98 1.256 . S
O101 Cd102 2.300 . S
O101 C108 1.275 . S
Cd102 O101 2.300 . S
Cd102 O110 2.381 . S
Cd102 O111 2.378 1_554 S
O103 Cd104 2.385 . S
O103 C108 1.255 . S
Cd104 O103 2.385 . S
Cd104 O105 2.317 . S
O105 Cd104 2.317 . S
O105 C106 1.232 . S
C106 O105 1.232 . S
C106 O107 1.218 . S
O107 C106 1.218 . S
C108 O101 1.275 . S
C108 O103 1.255 . S
C109 O110 1.258 . S
C109 O111 1.256 1_554 S
O110 Cd102 2.381 . S
O110 C109 1.258 . S
O111 Cd102 2.378 1_556 S
O111 C109 1.256 1_556 S
C112 C113 1.369 . S
C112 C114 1.419 . S
C112 H116 0.930 . S
C113 C112 1.369 . S
C113 C122 1.429 1_554 S
C114 C112 1.419 . S
C114 C115 1.363 . S
C114 H117 0.929 . S
C115 C114 1.363 . S
C115 C121 1.428 1_554 S
H116 C112 0.930 . S
H117 C114 0.929 . S
S118 N119 1.613 . S
S118 N120 1.610 . S
N119 S118 1.613 . S
N119 C122 1.350 . S
N120 S118 1.610 . S
N120 C121 1.351 . S
C121 C115 1.428 1_556 S
C121 N120 1.351 . S
C121 C122 1.434 . S
C122 C113 1.429 1_556 S
C122 N119 1.350 . S
C122 C121 1.434 . S
C123 C124 1.369 . S
C123 C125 1.419 . S
C123 H127 0.930 . S
C124 C123 1.369 . S
C124 C133 1.429 1_554 S
C125 C123 1.419 . S
C125 C126 1.363 . S
C125 H128 0.929 . S
C126 C125 1.363 . S
C126 C132 1.428 1_554 S
H127 C123 0.930 . S
H128 C125 0.929 . S
S129 N130 1.613 . S
S129 N131 1.610 . S
N130 S129 1.613 . S
N130 C133 1.350 . S
N131 S129 1.610 . S
N131 C132 1.351 . S
C132 C126 1.428 1_556 S
C132 N131 1.351 . S
C132 C133 1.434 . S
C133 C124 1.429 1_556 S
C133 N130 1.350 . S
C133 C132 1.434 . S
C134 C135 1.369 . S
C134 C136 1.419 . S
C134 H138 0.930 . S
C135 C134 1.369 . S
C135 C144 1.429 . S
C136 C134 1.419 . S
C136 C137 1.363 . S
C136 H139 0.929 . S
C137 C136 1.363 . S
C137 C143 1.428 . S
H138 C134 0.930 . S
H139 C136 0.929 . S
S140 N141 1.613 1_556 S
S140 N142 1.611 . S
N141 S140 1.613 1_554 S
N141 C144 1.350 . S
N142 S140 1.611 . S
N142 C143 1.351 1_556 S
C143 C137 1.428 . S
C143 N142 1.351 1_554 S
C143 C144 1.434 . S
C144 C135 1.429 . S
C144 N141 1.350 . S
C144 C143 1.434 . S
C145 C146 1.369 . S
C145 C147 1.419 . S
C145 H149 0.930 . S
C146 C145 1.369 . S
C146 C155 1.429 1_554 S
C147 C145 1.419 . S
C147 C148 1.363 . S
C147 H150 0.929 . S
C148 C147 1.363 . S
C148 C154 1.428 1_554 S
H149 C145 0.930 . S
H150 C147 0.929 . S
S151 N152 1.613 . S
S151 N153 1.610 . S
N152 S151 1.613 . S
N152 C155 1.350 . S
N153 S151 1.610 . S
N153 C154 1.351 . S
C154 C148 1.428 1_556 S
C154 N153 1.351 . S
C154 C155 1.434 . S
C155 C146 1.429 1_556 S
C155 N152 1.350 . S
C155 C154 1.434 . S
C156 C157 1.369 . S
C156 C158 1.419 . S
C156 H160 0.930 . S
C157 C156 1.369 . S
C157 C166 1.429 . S
C158 C156 1.419 . S
C158 C159 1.363 . S
C158 H161 0.929 . S
C159 C158 1.363 . S
C159 C165 1.428 . S
H160 C156 0.930 . S
H161 C158 0.929 . S
S162 N163 1.613 . S
S162 N164 1.610 . S
N163 S162 1.613 . S
N163 C166 1.350 . S
N164 S162 1.610 . S
N164 C165 1.351 . S
C165 C159 1.428 . S
C165 N164 1.351 . S
C165 C166 1.434 . S
C166 C157 1.429 . S
C166 N163 1.350 . S
C166 C165 1.434 . S
C167 C168 1.369 . S
C167 C169 1.419 . S
C167 H171 0.930 . S
C168 C167 1.369 . S
C168 C177 1.429 . S
C169 C167 1.419 . S
C169 C170 1.363 . S
C169 H172 0.929 . S
C170 C169 1.363 . S
C170 C176 1.428 . S
H171 C167 0.930 . S
H172 C169 0.929 . S
S173 N174 1.613 . S
S173 N175 1.610 . S
N174 S173 1.613 . S
N174 C177 1.350 . S
N175 S173 1.610 . S
N175 C176 1.351 . S
C176 C170 1.428 . S
C176 N175 1.351 . S
C176 C177 1.434 . S
C177 C168 1.429 . S
C177 N174 1.350 . S
C177 C176 1.434 . S
C178 C179 1.369 . S
C178 C180 1.419 . S
C178 H182 0.930 . S
C179 C178 1.369 . S
C179 C188 1.429 . S
C180 C178 1.419 . S
C180 C181 1.363 . S
C180 H183 0.929 . S
C181 C180 1.363 . S
C181 C187 1.428 . S
H182 C178 0.930 . S
H183 C180 0.929 . S
S184 N185 1.613 . S
S184 N186 1.610 . S
N185 S184 1.613 . S
N185 C188 1.350 . S
N186 S184 1.610 . S
N186 C187 1.351 . S
C187 C181 1.428 . S
C187 N186 1.351 . S
C187 C188 1.434 . S
C188 C179 1.429 . S
C188 N185 1.350 . S
C188 C187 1.434 . S
C189 C190 1.369 . S
C189 C191 1.419 . S
C189 H193 0.930 . S
C190 C189 1.369 . S
C190 C199 1.429 . S
C191 C189 1.419 . S
C191 C192 1.363 . S
C191 H194 0.929 . S
C192 C191 1.363 . S
C192 C198 1.428 . S
H193 C189 0.930 . S
H194 C191 0.929 . S
S195 N196 1.613 . S
S195 N197 1.610 . S
N196 S195 1.613 . S
N196 C199 1.350 . S
N197 S195 1.610 . S
N197 C198 1.351 . S
C198 C192 1.428 . S
C198 N197 1.351 . S
C198 C199 1.434 . S
C199 C190 1.429 . S
C199 N196 1.350 . S
C199 C198 1.434 . S
C200 C201 1.368 1_665 S
C200 C202 1.419 . S
C200 H204 0.930 . S
C201 C200 1.368 1_445 S
C201 C210 1.429 . S
C202 C200 1.419 . S
C202 C203 1.363 1_565 S
C202 H205 0.929 . S
C203 C202 1.363 1_545 S
C203 C209 1.428 1_655 S
H204 C200 0.930 . S
H205 C202 0.929 . S
S206 N207 1.613 . S
S206 N208 1.610 . S
N207 S206 1.613 . S
N207 C210 1.350 . S
N208 S206 1.610 . S
N208 C209 1.351 . S
C209 C203 1.428 1_455 S
C209 N208 1.351 . S
C209 C210 1.434 . S
C210 C201 1.429 . S
C210 N207 1.350 . S
C210 C209 1.434 . S
C211 C212 1.369 1_545 S
C211 C213 1.419 . S
C211 H215 0.930 . S
C212 C211 1.369 1_565 S
C212 C221 1.429 1_455 S
C213 C211 1.419 . S
C213 C214 1.363 1_545 S
C213 H216 0.929 . S
C214 C213 1.363 1_565 S
C214 C220 1.428 1_455 S
H215 C211 0.930 . S
H216 C213 0.929 . S
S217 N218 1.613 . S
S217 N219 1.610 . S
N218 S217 1.613 . S
N218 C221 1.350 . S
N219 S217 1.610 . S
N219 C220 1.351 . S
C220 C214 1.428 1_655 S
C220 N219 1.351 . S
C220 C221 1.434 . S
C221 C212 1.429 1_655 S
C221 N218 1.350 . S
C221 C220 1.434 . S
C222 C223 1.369 . S
C222 C224 1.419 . S
C222 H226 0.930 . S
C223 C222 1.369 . S
C223 C232 1.429 . S
C224 C222 1.419 . S
C224 C225 1.363 . S
C224 H227 0.929 . S
C225 C224 1.363 . S
C225 C231 1.428 . S
H226 C222 0.930 . S
H227 C224 0.929 . S
S228 N229 1.613 . S
S228 N230 1.610 . S
N229 S228 1.613 . S
N229 C232 1.350 . S
N230 S228 1.610 . S
N230 C231 1.351 . S
C231 C225 1.428 . S
C231 N230 1.351 . S
C231 C232 1.434 . S
C232 C223 1.429 . S
C232 N229 1.350 . S
C232 C231 1.434 . S
C233 C234 1.369 . S
C233 C235 1.419 . S
C233 H237 0.930 . S
C234 C233 1.369 . S
C234 C243 1.429 . S
C235 C233 1.419 . S
C235 C236 1.363 . S
C235 H238 0.929 . S
C236 C235 1.363 . S
C236 C242 1.428 . S
H237 C233 0.930 . S
H238 C235 0.929 . S
S239 N240 1.613 . S
S239 N241 1.610 . S
N240 S239 1.613 . S
N240 C243 1.350 . S
N241 S239 1.610 . S
N241 C242 1.351 . S
C242 C236 1.428 . S
C242 N241 1.351 . S
C242 C243 1.434 . S
C243 C234 1.429 . S
C243 N240 1.350 . S
C243 C242 1.434 . S
C115 C106 1.296 . S
C113 C29 1.516 . S
C124 C8 1.511 . S
C126 C95 1.284 1_554 S
C135 C0 1.493 . S
C137 C109 1.451 . S
C146 C17 1.492 . S
C148 C98 1.438 . S
C157 C63 1.515 . S
C159 C84 1.287 . S
C168 C42 1.510 . S
C170 C73 1.285 . S
C181 C87 1.451 . S
C179 C34 1.494 . S
C192 C76 1.439 . S
C190 C51 1.492 . S
C201 C4 1.512 . S
C203 C75 1.454 1_655 S
C212 C13 1.502 . S
C214 C86 1.454 . S
C225 C97 1.454 . S
C223 C38 1.513 . S
C234 C47 1.503 . S
C236 C108 1.450 . S
