# Generated by pormake.
# Topology alb, (6,12)-cn, num edge types: 1
# Building blocks:
#     Node 0, Type 0, BuildingBlock: OJICUG_clean_sbu_0, # of connection points: 6
#     Node 1, Type 0, BuildingBlock: OJICUG_clean_sbu_0, # of connection points: 6
#     Node 2, Type 1, BuildingBlock: QEWDON_clean_sbu_0, # of connection points: 12
#     Edge 3, Type (0, 1), BuildingBlock: AJUNOK_clean_linker_0, # of connection points: 2
#     Edge 4, Type (0, 1), BuildingBlock: AJUNOK_clean_linker_0, # of connection points: 2
#     Edge 5, Type (0, 1), BuildingBlock: AJUNOK_clean_linker_0, # of connection points: 2
#     Edge 6, Type (0, 1), BuildingBlock: AJUNOK_clean_linker_0, # of connection points: 2
#     Edge 7, Type (0, 1), BuildingBlock: AJUNOK_clean_linker_0, # of connection points: 2
#     Edge 8, Type (0, 1), BuildingBlock: AJUNOK_clean_linker_0, # of connection points: 2
#     Edge 9, Type (0, 1), BuildingBlock: AJUNOK_clean_linker_0, # of connection points: 2
#     Edge 10, Type (0, 1), BuildingBlock: AJUNOK_clean_linker_0, # of connection points: 2
#     Edge 11, Type (0, 1), BuildingBlock: AJUNOK_clean_linker_0, # of connection points: 2
#     Edge 12, Type (0, 1), BuildingBlock: AJUNOK_clean_linker_0, # of connection points: 2
#     Edge 13, Type (0, 1), BuildingBlock: AJUNOK_clean_linker_0, # of connection points: 2
#     Edge 14, Type (0, 1), BuildingBlock: AJUNOK_clean_linker_0, # of connection points: 2
# Relax obj value: 0.126
# Max RMSD: 0.224
# Mean RMSD: 0.143
data_MOF--net-alb--node1-OJICUG_clean_sbu_0--node2-QEWDON_clean_sbu_0--edge1-AJUNOK_clean_linker_0
_symmetry_space_group_name_H-M    P1
_symmetry_Int_Tables_number       1
_symmetry_cell_setting            triclinic
loop_
_symmetry_equiv_pos_as_xyz
'x, y, z'
_cell_length_a     19.298895
_cell_length_b     19.114188
_cell_length_c     16.309879
_cell_angle_alpha  90.138719
_cell_angle_beta   90.483558
_cell_angle_gamma 119.78813
loop_
_atom_site_label
_atom_site_type_symbol
_atom_site_fract_x
_atom_site_fract_y
_atom_site_fract_z
_atom_type_partial_charge
Sc0 Sc 0.3354 0.76705 0.12124 0.0
Sc1 Sc 0.15372 0.58865 0.15693 0.0
Sc2 Sc 0.32999 0.58025 0.1262 0.0
O3 O 0.27309 0.64539 0.13443 0.0
C4 C 0.42384 0.71434 -0.00877 0.0
C5 C 0.1738 0.72081 0.02405 0.0
C6 C 0.16788 0.46963 0.02841 0.0
C7 C 0.21664 0.74647 0.26796 0.0
C8 C 0.4551 0.73393 0.22816 0.0
C9 C 0.21009 0.49132 0.27329 0.0
O10 O 0.40271 0.76336 0.01809 0.0
O11 O 0.13203 0.65603 0.06371 0.0
O12 O 0.24114 0.49421 0.04359 0.0
O13 O 0.27875 0.78717 0.22518 0.0
O14 O 0.42435 0.66042 0.20689 0.0
O15 O 0.16198 0.51595 0.2536 0.0
O16 O 0.42951 0.77993 0.20268 0.0
O17 O 0.16589 0.67354 0.25121 0.0
O18 O 0.27153 0.50818 0.23151 0.0
O19 O 0.24823 0.76646 0.03711 0.0
O20 O 0.39991 0.64539 0.0225 0.0
O21 O 0.12834 0.4969 0.06546 0.0
Sc22 Sc 0.6908 0.26585 0.04856 0.0
Sc23 Sc 0.86642 0.45079 0.0134 0.0
Sc24 Sc 0.68465 0.44668 0.04878 0.0
O25 O 0.74729 0.38777 0.03733 0.0
C26 C 0.56402 0.28973 0.94587 0.0
C27 C 0.81035 0.29382 0.90175 0.0
C28 C 0.79917 0.53861 0.89777 0.0
C29 C 0.85361 0.32134 0.14584 0.0
C30 C 0.59876 0.31017 0.18289 0.0
C31 C 0.84782 0.56665 0.14266 0.0
O32 O 0.59619 0.2485 0.9671 0.0
O33 O 0.85762 0.36742 0.91941 0.0
O34 O 0.73791 0.51807 0.94147 0.0
O35 O 0.78017 0.2722 0.1319 0.0
O36 O 0.62085 0.38002 0.15483 0.0
O37 O 0.88923 0.5424 0.10433 0.0
O38 O 0.62081 0.26347 0.15175 0.0
O39 O 0.89307 0.38703 0.10676 0.0
O40 O 0.77338 0.5375 0.12942 0.0
O41 O 0.74935 0.24964 0.94437 0.0
O42 O 0.58871 0.36151 0.97086 0.0
O43 O 0.85208 0.51993 0.91637 0.0
Zn44 Zn 0.14732 0.17055 0.39087 0.0
Zn45 Zn 0.1468 1.00395 0.40043 0.0
O46 O 0.07646 0.05182 0.40692 0.0
H47 H 0.019 0.02381 0.41134 0.0
C48 C 0.14719 0.27927 0.55421 0.0
O49 O 0.10071 0.27462 0.6147 0.0
Zn50 Zn 0.87658 0.86142 0.77216 0.0
Zn51 Zn 0.87336 0.02578 0.77973 0.0
O52 O 0.94654 0.97979 0.77031 0.0
H53 H 0.00378 0.00926 0.77813 0.0
Zn54 Zn 0.15304 0.14916 0.64814 0.0
O55 O 0.09384 0.03038 0.61928 0.0
Zn56 Zn 0.13206 0.96768 0.68731 0.0
H57 H 0.0696 0.015 0.56561 0.0
Zn58 Zn 0.86577 0.00855 0.52502 0.0
O59 O 0.92317 0.94804 0.55518 0.0
H60 H 0.94611 0.95724 0.6095 0.0
Zn61 Zn 0.88836 0.84952 0.4833 0.0
C62 C 0.87337 0.14298 0.62179 0.0
O63 O 0.92283 0.18502 0.56334 0.0
O64 O 0.2629 0.20287 0.36252 0.0
O65 O 0.25718 0.08386 0.35634 0.0
O66 O 0.75799 0.94148 0.80924 0.0
O67 O 0.76592 0.82932 0.81628 0.0
O68 O 0.24415 0.17296 0.72803 0.0
O69 O 0.23186 0.05153 0.7491 0.0
C70 C 0.0144 0.85237 0.35237 0.0
O71 O 0.7755 0.94228 0.444 0.0
O72 O 0.78907 0.83407 0.42147 0.0
O73 O 0.92628 0.13448 0.84075 0.0
C74 C 0.29595 0.16058 0.34903 0.0
O75 O 0.09334 0.22422 0.32864 0.0
C76 C 0.00797 0.84186 0.81853 0.0
O77 O 0.17692 0.23293 0.55442 0.0
C78 C 0.72628 0.86632 0.82368 0.0
O79 O 0.8406 0.06658 0.61935 0.0
C80 C 0.16752 0.91693 0.53692 0.0
O81 O 0.08703 0.90096 0.33452 0.0
O82 O 0.98361 0.87327 0.40983 0.0
C83 C 0.26827 0.12802 0.76008 0.0
O84 O 0.9353 0.81715 0.83647 0.0
O85 O 0.03865 0.89408 0.76165 0.0
C86 C 0.85465 0.75746 0.62948 0.0
O87 O 0.15964 0.8985 0.61235 0.0
O88 O 0.15983 0.97606 0.51485 0.0
C89 C 0.75217 0.87356 0.41109 0.0
O90 O 0.85979 0.74931 0.55293 0.0
O91 O 0.86616 0.8245 0.65624 0.0
C92 C -0.0017 0.18414 0.82319 0.0
O93 O 0.03314 0.16476 0.76572 0.0
C94 C 0.022 0.20325 0.34758 0.0
O95 O 0.98771 0.15049 0.40631 0.0
C96 C 0.25582 0.86957 0.35412 0.0
C97 C 0.20371 0.78658 0.34015 0.0
C98 C 0.24479 0.91022 0.41971 0.0
C99 C 0.18181 0.86972 0.47466 0.0
H100 H 0.30517 0.90423 0.31339 0.0
H101 H 0.28569 0.97423 0.42721 0.0
S102 S 0.02792 0.65359 0.46732 0.0
N103 N 0.08594 0.66543 0.38855 0.0
N104 N 0.06635 0.74295 0.51216 0.0
C105 C 0.13001 0.78687 0.46323 0.0
C106 C 0.14056 0.74511 0.39579 0.0
C107 C 0.48786 0.1916 0.25332 0.0
C108 C 0.53245 0.27583 0.24285 0.0
C109 C 0.41316 0.15507 0.29119 0.0
C110 C 0.37994 0.20119 0.32038 0.0
H111 H 0.50814 0.15271 0.22751 0.0
H112 H 0.37971 0.08985 0.29386 0.0
S113 S 0.47961 0.42496 0.32358 0.0
N114 N 0.54316 0.40503 0.27637 0.0
N115 N 0.40304 0.33662 0.34745 0.0
C116 C 0.42707 0.28589 0.3171 0.0
C117 C 0.50324 0.3231 0.27859 0.0
C118 C 0.24514 0.40941 0.36772 0.0
C119 C 0.19443 0.44054 0.34769 0.0
C120 C 0.23023 0.35874 0.43527 0.0
C121 C 0.16395 0.33677 0.48583 0.0
H122 H 0.29652 0.42332 0.33043 0.0
H123 H 0.27072 0.33606 0.44747 0.0
S124 S 0.01303 0.40224 0.46147 0.0
N125 N 0.07604 0.44694 0.38607 0.0
N126 N 0.04749 0.35068 0.51132 0.0
C127 C 0.11374 0.36872 0.46766 0.0
C128 C 0.12901 0.42065 0.39909 0.0
C129 C 0.97902 0.32909 0.19884 0.0
C130 C 0.89621 0.29729 0.20541 0.0
C131 C 0.01882 0.29804 0.24485 0.0
C132 C 0.9783 0.23678 0.30261 0.0
H133 H 0.01328 0.3765 0.15588 0.0
H134 H 0.08187 0.32194 0.23419 0.0
S135 S 0.76318 0.14166 0.35326 0.0
N136 N 0.77591 0.20588 0.27954 0.0
N137 N 0.85172 0.15053 0.36952 0.0
C138 C 0.89638 0.20812 0.31406 0.0
C139 C 0.85522 0.23797 0.26507 0.0
C140 C 0.58521 0.85121 0.2718 0.0
C141 C 0.52823 0.76897 0.27918 0.0
C142 C 0.6582 0.88451 0.31405 0.0
C143 C 0.67674 0.83658 0.3646 0.0
H144 H 0.57423 0.88985 0.23168 0.0
H145 H 0.70079 0.94797 0.30638 0.0
S146 S 0.54393 0.62136 0.41419 0.0
N147 N 0.49252 0.64226 0.34689 0.0
N148 N 0.62988 0.70555 0.42678 0.0
C149 C 0.61956 0.7551 0.37469 0.0
C150 C 0.54518 0.72111 0.33186 0.0
C151 C 0.97192 0.68679 0.19713 0.0
C152 C 0.88907 0.63457 0.20227 0.0
C153 C 0.01114 0.75586 0.2466 0.0
C154 C 0.96996 0.77502 0.3055 0.0
H155 H 0.00699 0.67557 0.1533 0.0
H156 H 0.07457 0.79497 0.23763 0.0
S157 S 0.75524 0.64879 0.35508 0.0
N158 N 0.76857 0.60114 0.27772 0.0
N159 N 0.84309 0.72924 0.37311 0.0
C160 C 0.88811 0.72015 0.31539 0.0
C161 C 0.84759 0.65045 0.26344 0.0
C162 C 0.05009 0.71711 0.9706 0.0
C163 C 0.1327 0.74721 0.96448 0.0
C164 C 0.0112 0.74804 0.92279 0.0
C165 C 0.05233 0.80859 0.86416 0.0
H166 H 0.01506 0.67057 0.01416 0.0
H167 H 0.948 0.72424 0.93274 0.0
S168 S 0.26629 0.89611 0.81222 0.0
N169 N 0.25297 0.83432 0.88855 0.0
N170 N 0.17877 0.8896 0.79563 0.0
C171 C 0.13387 0.83507 0.8531 0.0
C172 C 0.17419 0.80497 0.90366 0.0
C173 C 0.43398 0.27525 0.89987 0.0
C174 C 0.49091 0.24991 0.89473 0.0
C175 C 0.36146 0.23464 0.85684 0.0
C176 C 0.34331 0.16722 0.80748 0.0
H177 H 0.44464 0.32578 0.93871 0.0
H178 H 0.3189 0.2556 0.86297 0.0
S179 S 0.47583 0.08304 0.76486 0.0
N180 N 0.5267 0.15697 0.83112 0.0
N181 N 0.39033 0.08132 0.74965 0.0
C182 C 0.40033 0.14251 0.79993 0.0
C183 C 0.47423 0.18378 0.84366 0.0
C184 C 0.04236 0.35216 0.97435 0.0
C185 C 0.12549 0.40238 0.96904 0.0
C186 C 0.00209 0.28196 0.92698 0.0
C187 C 0.04256 0.26092 0.86937 0.0
H188 H 0.00798 0.36553 0.01705 0.0
H189 H 0.93865 0.24361 0.93635 0.0
S190 S 0.25874 0.37875 0.82231 0.0
N191 N 0.24621 0.43012 0.89657 0.0
N192 N 0.16971 0.30001 0.80432 0.0
C193 C 0.125 0.31321 0.85955 0.0
C194 C 0.16655 0.38365 0.90978 0.0
C195 C 0.77471 0.17613 0.8074 0.0
C196 C 0.82646 0.25775 0.82829 0.0
C197 C 0.78967 0.13998 0.74001 0.0
C198 C 0.85696 0.18377 0.6905 0.0
H199 H 0.72232 0.13926 0.84367 0.0
H200 H 0.74833 0.07695 0.72706 0.0
S201 S 0.01216 0.3987 0.71903 0.0
N202 N 0.94796 0.38129 0.79297 0.0
N203 N 0.97635 0.31286 0.66804 0.0
C204 C 0.90865 0.2655 0.71008 0.0
C205 C 0.89341 0.30253 0.77844 0.0
C206 C 0.54157 0.7108 0.93392 0.0
C207 C 0.49134 0.7448 0.93308 0.0
C208 C 0.61611 0.74908 0.89597 0.0
C209 C 0.64316 0.82226 0.85433 0.0
H210 H 0.52589 0.65689 0.96883 0.0
H211 H 0.65443 0.72307 0.90319 0.0
S212 S 0.52885 0.92935 0.82203 0.0
N213 N 0.47011 0.85123 0.87913 0.0
N214 N 0.60953 0.92234 0.806 0.0
C215 C 0.59109 0.85388 0.84772 0.0
C216 C 0.51534 0.81524 0.88721 0.0
C217 C 0.88137 0.6213 0.77853 0.0
C218 C 0.80926 0.58703 0.82259 0.0
C219 C 0.89442 0.67285 0.71192 0.0
C220 C 0.83579 0.69166 0.68723 0.0
H221 H 0.92935 0.61077 0.79736 0.0
H222 H 0.95207 0.70134 0.68239 0.0
S223 S 0.63173 0.60652 0.76913 0.0
N224 N 0.67427 0.56742 0.82707 0.0
N225 N 0.70045 0.66542 0.70337 0.0
C226 C 0.76203 0.65417 0.72654 0.0
C227 C 0.74825 0.60144 0.79377 0.0
loop_
_geom_bond_atom_site_label_1
_geom_bond_atom_site_label_2
_geom_bond_distance
_geom_bond_site_symmetry_2
_ccdc_geom_bond_type
Sc0 O3 2.025 . S
Sc0 O10 2.105 . S
Sc0 O13 2.105 . S
Sc0 O16 2.105 . S
Sc0 O19 2.105 . S
Sc1 O3 2.025 . S
Sc1 O11 2.105 . S
Sc1 O15 2.105 . S
Sc1 O17 2.105 . S
Sc1 O21 2.105 . S
Sc2 O3 2.025 . S
Sc2 O12 2.105 . S
Sc2 O14 2.105 . S
Sc2 O18 2.105 . S
Sc2 O20 2.105 . S
O3 Sc0 2.025 . S
O3 Sc1 2.025 . S
O3 Sc2 2.025 . S
C4 O10 1.268 . S
C4 O20 1.268 . S
C5 O11 1.268 . S
C5 O19 1.268 . S
C6 O12 1.268 . S
C6 O21 1.268 . S
C7 O13 1.268 . S
C7 O17 1.268 . S
C8 O14 1.268 . S
C8 O16 1.268 . S
C9 O15 1.268 . S
C9 O18 1.268 . S
O10 Sc0 2.105 . S
O10 C4 1.268 . S
O11 Sc1 2.105 . S
O11 C5 1.268 . S
O12 Sc2 2.105 . S
O12 C6 1.268 . S
O13 Sc0 2.105 . S
O13 C7 1.268 . S
O14 Sc2 2.105 . S
O14 C8 1.268 . S
O15 Sc1 2.105 . S
O15 C9 1.268 . S
O16 Sc0 2.105 . S
O16 C8 1.268 . S
O17 Sc1 2.105 . S
O17 C7 1.268 . S
O18 Sc2 2.105 . S
O18 C9 1.268 . S
O19 Sc0 2.105 . S
O19 C5 1.268 . S
O20 Sc2 2.105 . S
O20 C4 1.268 . S
O21 Sc1 2.105 . S
O21 C6 1.268 . S
Sc22 O25 2.025 . S
Sc22 O32 2.105 1_554 S
Sc22 O35 2.105 . S
Sc22 O38 2.105 . S
Sc22 O41 2.105 1_554 S
Sc23 O25 2.025 . S
Sc23 O33 2.105 1_554 S
Sc23 O37 2.105 . S
Sc23 O39 2.105 . S
Sc23 O43 2.105 1_554 S
Sc24 O25 2.025 . S
Sc24 O34 2.105 1_554 S
Sc24 O36 2.105 . S
Sc24 O40 2.105 . S
Sc24 O42 2.105 1_554 S
O25 Sc22 2.025 . S
O25 Sc23 2.025 . S
O25 Sc24 2.025 . S
C26 O32 1.268 . S
C26 O42 1.268 . S
C27 O33 1.268 . S
C27 O41 1.268 . S
C28 O34 1.268 . S
C28 O43 1.268 . S
C29 O35 1.268 . S
C29 O39 1.268 . S
C30 O36 1.268 . S
C30 O38 1.268 . S
C31 O37 1.268 . S
C31 O40 1.268 . S
O32 Sc22 2.105 1_556 S
O32 C26 1.268 . S
O33 Sc23 2.105 1_556 S
O33 C27 1.268 . S
O34 Sc24 2.105 1_556 S
O34 C28 1.268 . S
O35 Sc22 2.105 . S
O35 C29 1.268 . S
O36 Sc24 2.105 . S
O36 C30 1.268 . S
O37 Sc23 2.105 . S
O37 C31 1.268 . S
O38 Sc22 2.105 . S
O38 C30 1.268 . S
O39 Sc23 2.105 . S
O39 C29 1.268 . S
O40 Sc24 2.105 . S
O40 C31 1.268 . S
O41 Sc22 2.105 1_556 S
O41 C27 1.268 . S
O42 Sc24 2.105 1_556 S
O42 C26 1.268 . S
O43 Sc23 2.105 1_556 S
O43 C28 1.268 . S
Zn44 O46 1.933 . S
Zn44 O64 1.985 . S
Zn44 O75 1.967 . S
Zn45 O46 1.911 1_565 S
Zn45 O65 1.970 1_565 S
Zn45 O81 1.945 . S
Zn45 O88 1.981 . S
O46 Zn44 1.933 . S
O46 Zn45 1.911 1_545 S
O46 H47 0.841 1_445 S
H47 O46 0.841 1_665 S
C48 O49 1.246 . S
C48 O77 1.276 . S
O49 C48 1.246 . S
Zn50 O52 1.911 . S
Zn50 O67 1.970 . S
Zn50 O84 1.945 1_655 S
Zn50 O91 1.981 . S
Zn51 O52 1.933 1_545 S
Zn51 O66 1.985 1_545 S
Zn51 O73 1.955 1_655 S
O52 Zn50 1.911 . S
O52 Zn51 1.933 1_565 S
O52 H53 0.841 1_665 S
H53 O52 0.841 1_445 S
Zn54 O55 1.933 . S
Zn54 O68 1.985 . S
Zn54 O77 1.955 . S
O55 Zn54 1.933 . S
O55 Zn56 1.911 . S
O55 H57 0.841 . S
Zn56 O55 1.911 . S
Zn56 O69 1.970 . S
Zn56 O85 1.981 1_545 S
Zn56 O87 1.945 1_545 S
H57 O55 0.841 . S
Zn58 O59 1.933 . S
Zn58 O71 1.985 . S
Zn58 O79 1.955 1_565 S
O59 Zn58 1.933 . S
O59 H60 0.841 . S
O59 Zn61 1.911 . S
H60 O59 0.841 . S
Zn61 O59 1.911 . S
Zn61 O72 1.970 . S
Zn61 O82 1.981 . S
Zn61 O90 1.945 . S
C62 O63 1.246 . S
C62 O79 1.276 . S
O63 C62 1.246 . S
O64 Zn44 1.985 . S
O64 C74 1.245 . S
O65 Zn45 1.970 1_545 S
O65 C74 1.263 . S
O66 Zn51 1.985 1_565 S
O66 C78 1.245 . S
O67 Zn50 1.970 . S
O67 C78 1.263 . S
O68 Zn54 1.985 . S
O68 C83 1.245 . S
O69 Zn56 1.970 . S
O69 C83 1.263 . S
C70 O81 1.262 1_655 S
C70 O82 1.245 . S
O71 Zn58 1.985 . S
O71 C89 1.245 . S
O72 Zn61 1.970 . S
O72 C89 1.263 . S
O73 Zn51 1.955 1_455 S
O73 C92 1.276 . S
C74 O64 1.245 . S
C74 O65 1.263 . S
O75 Zn44 1.967 . S
O75 C94 1.264 1_455 S
C76 O84 1.262 . S
C76 O85 1.245 . S
O77 C48 1.276 . S
O77 Zn54 1.955 . S
C78 O66 1.245 . S
C78 O67 1.263 . S
O79 Zn58 1.955 1_545 S
O79 C62 1.276 . S
C80 O87 1.262 . S
C80 O88 1.245 . S
O81 Zn45 1.945 . S
O81 C70 1.262 1_455 S
O82 Zn61 1.981 . S
O82 C70 1.245 . S
C83 O68 1.245 . S
C83 O69 1.263 . S
O84 Zn50 1.945 1_455 S
O84 C76 1.262 . S
O85 Zn56 1.981 1_565 S
O85 C76 1.245 . S
C86 O90 1.262 . S
C86 O91 1.245 . S
O87 Zn56 1.945 1_565 S
O87 C80 1.262 . S
O88 Zn45 1.981 . S
O88 C80 1.245 . S
C89 O71 1.245 . S
C89 O72 1.263 . S
O90 Zn61 1.945 . S
O90 C86 1.262 . S
O91 Zn50 1.981 . S
O91 C86 1.245 . S
C92 O73 1.276 . S
C92 O93 1.246 . S
O93 C92 1.246 . S
C94 O75 1.264 1_655 S
C94 O95 1.246 . S
O95 C94 1.246 . S
C96 C97 1.369 . S
C96 C98 1.419 . S
C96 H100 0.930 . S
C97 C96 1.369 . S
C97 C106 1.429 . S
C98 C96 1.419 . S
C98 C99 1.363 . S
C98 H101 0.929 . S
C99 C98 1.363 . S
C99 C105 1.428 . S
H100 C96 0.930 . S
H101 C98 0.929 . S
S102 N103 1.613 . S
S102 N104 1.610 . S
N103 S102 1.613 . S
N103 C106 1.350 . S
N104 S102 1.610 . S
N104 C105 1.351 . S
C105 C99 1.428 . S
C105 N104 1.351 . S
C105 C106 1.434 . S
C106 C97 1.429 . S
C106 N103 1.350 . S
C106 C105 1.434 . S
C107 C108 1.369 . S
C107 C109 1.419 . S
C107 H111 0.930 . S
C108 C107 1.369 . S
C108 C117 1.429 . S
C109 C107 1.419 . S
C109 C110 1.363 . S
C109 H112 0.929 . S
C110 C109 1.363 . S
C110 C116 1.428 . S
H111 C107 0.930 . S
H112 C109 0.929 . S
S113 N114 1.613 . S
S113 N115 1.610 . S
N114 S113 1.613 . S
N114 C117 1.350 . S
N115 S113 1.610 . S
N115 C116 1.351 . S
C116 C110 1.428 . S
C116 N115 1.351 . S
C116 C117 1.434 . S
C117 C108 1.429 . S
C117 N114 1.350 . S
C117 C116 1.434 . S
C118 C119 1.369 . S
C118 C120 1.419 . S
C118 H122 0.930 . S
C119 C118 1.369 . S
C119 C128 1.429 . S
C120 C118 1.419 . S
C120 C121 1.363 . S
C120 H123 0.929 . S
C121 C120 1.363 . S
C121 C127 1.428 . S
H122 C118 0.930 . S
H123 C120 0.929 . S
S124 N125 1.613 . S
S124 N126 1.610 . S
N125 S124 1.613 . S
N125 C128 1.350 . S
N126 S124 1.610 . S
N126 C127 1.351 . S
C127 C121 1.428 . S
C127 N126 1.351 . S
C127 C128 1.434 . S
C128 C119 1.429 . S
C128 N125 1.350 . S
C128 C127 1.434 . S
C129 C130 1.369 . S
C129 C131 1.419 . S
C129 H133 0.930 . S
C130 C129 1.369 . S
C130 C139 1.429 . S
C131 C129 1.419 . S
C131 C132 1.363 . S
C131 H134 0.929 . S
C132 C131 1.363 . S
C132 C138 1.428 . S
H133 C129 0.930 . S
H134 C131 0.929 . S
S135 N136 1.613 . S
S135 N137 1.610 . S
N136 S135 1.613 . S
N136 C139 1.350 . S
N137 S135 1.610 . S
N137 C138 1.351 . S
C138 C132 1.428 . S
C138 N137 1.351 . S
C138 C139 1.434 . S
C139 C130 1.429 . S
C139 N136 1.350 . S
C139 C138 1.434 . S
C140 C141 1.369 . S
C140 C142 1.419 . S
C140 H144 0.930 . S
C141 C140 1.369 . S
C141 C150 1.429 . S
C142 C140 1.419 . S
C142 C143 1.363 . S
C142 H145 0.929 . S
C143 C142 1.363 . S
C143 C149 1.428 . S
H144 C140 0.930 . S
H145 C142 0.929 . S
S146 N147 1.613 . S
S146 N148 1.610 . S
N147 S146 1.613 . S
N147 C150 1.350 . S
N148 S146 1.610 . S
N148 C149 1.351 . S
C149 C143 1.428 . S
C149 N148 1.351 . S
C149 C150 1.434 . S
C150 C141 1.429 . S
C150 N147 1.350 . S
C150 C149 1.434 . S
C151 C152 1.369 . S
C151 C153 1.419 . S
C151 H155 0.930 . S
C152 C151 1.369 . S
C152 C161 1.429 . S
C153 C151 1.419 . S
C153 C154 1.363 . S
C153 H156 0.929 . S
C154 C153 1.363 . S
C154 C160 1.428 . S
H155 C151 0.930 . S
H156 C153 0.929 . S
S157 N158 1.613 1_455 S
S157 N159 1.610 . S
N158 S157 1.613 1_655 S
N158 C161 1.350 . S
N159 S157 1.610 . S
N159 C160 1.351 1_455 S
C160 C154 1.428 . S
C160 N159 1.351 1_655 S
C160 C161 1.434 . S
C161 C152 1.429 . S
C161 N158 1.350 . S
C161 C160 1.434 . S
C162 C163 1.369 . S
C162 C164 1.419 . S
C162 H166 0.930 . S
C163 C162 1.369 . S
C163 C172 1.429 . S
C164 C162 1.419 . S
C164 C165 1.363 . S
C164 H167 0.929 . S
C165 C164 1.363 . S
C165 C171 1.428 . S
H166 C162 0.930 . S
H167 C164 0.929 . S
S168 N169 1.613 . S
S168 N170 1.610 . S
N169 S168 1.613 . S
N169 C172 1.350 . S
N170 S168 1.610 . S
N170 C171 1.351 . S
C171 C165 1.428 . S
C171 N170 1.351 . S
C171 C172 1.434 . S
C172 C163 1.429 . S
C172 N169 1.350 . S
C172 C171 1.434 . S
C173 C174 1.369 . S
C173 C175 1.419 . S
C173 H177 0.930 . S
C174 C173 1.369 . S
C174 C183 1.429 . S
C175 C173 1.419 . S
C175 C176 1.363 . S
C175 H178 0.929 . S
C176 C175 1.363 . S
C176 C182 1.428 . S
H177 C173 0.930 . S
H178 C175 0.929 . S
S179 N180 1.613 . S
S179 N181 1.610 . S
N180 S179 1.613 . S
N180 C183 1.350 . S
N181 S179 1.610 . S
N181 C182 1.351 . S
C182 C176 1.428 . S
C182 N181 1.351 . S
C182 C183 1.434 . S
C183 C174 1.429 . S
C183 N180 1.350 . S
C183 C182 1.434 . S
C184 C185 1.369 . S
C184 C186 1.419 . S
C184 H188 0.930 1_556 S
C185 C184 1.369 . S
C185 C194 1.429 . S
C186 C184 1.419 . S
C186 C187 1.363 . S
C186 H189 0.929 . S
C187 C186 1.363 . S
C187 C193 1.428 . S
H188 C184 0.930 1_554 S
H189 C186 0.929 . S
S190 N191 1.613 . S
S190 N192 1.610 . S
N191 S190 1.613 . S
N191 C194 1.350 . S
N192 S190 1.610 . S
N192 C193 1.351 . S
C193 C187 1.428 . S
C193 N192 1.351 . S
C193 C194 1.434 . S
C194 C185 1.429 . S
C194 N191 1.350 . S
C194 C193 1.434 . S
C195 C196 1.369 . S
C195 C197 1.419 . S
C195 H199 0.930 . S
C196 C195 1.369 . S
C196 C205 1.429 . S
C197 C195 1.419 . S
C197 C198 1.363 . S
C197 H200 0.929 . S
C198 C197 1.363 . S
C198 C204 1.428 . S
H199 C195 0.930 . S
H200 C197 0.929 . S
S201 N202 1.613 . S
S201 N203 1.610 . S
N202 S201 1.613 . S
N202 C205 1.350 . S
N203 S201 1.610 . S
N203 C204 1.351 . S
C204 C198 1.428 . S
C204 N203 1.351 . S
C204 C205 1.434 . S
C205 C196 1.429 . S
C205 N202 1.350 . S
C205 C204 1.434 . S
C206 C207 1.369 . S
C206 C208 1.419 . S
C206 H210 0.930 . S
C207 C206 1.369 . S
C207 C216 1.429 1_556 S
C208 C206 1.419 . S
C208 C209 1.363 . S
C208 H211 0.929 . S
C209 C208 1.363 . S
C209 C215 1.428 1_556 S
H210 C206 0.930 . S
H211 C208 0.929 . S
S212 N213 1.613 . S
S212 N214 1.610 . S
N213 S212 1.613 . S
N213 C216 1.350 . S
N214 S212 1.610 . S
N214 C215 1.351 . S
C215 C209 1.428 1_554 S
C215 N214 1.351 . S
C215 C216 1.434 . S
C216 C207 1.429 1_554 S
C216 N213 1.350 . S
C216 C215 1.434 . S
C217 C218 1.369 . S
C217 C219 1.419 . S
C217 H221 0.930 . S
C218 C217 1.369 . S
C218 C227 1.429 . S
C219 C217 1.419 . S
C219 C220 1.363 . S
C219 H222 0.929 . S
C220 C219 1.363 . S
C220 C226 1.428 . S
H221 C217 0.930 . S
H222 C219 0.929 . S
S223 N224 1.613 . S
S223 N225 1.610 . S
N224 S223 1.613 . S
N224 C227 1.350 . S
N225 S223 1.610 . S
N225 C226 1.351 . S
C226 C220 1.428 . S
C226 N225 1.351 . S
C226 C227 1.434 . S
C227 C218 1.429 . S
C227 N224 1.350 . S
C227 C226 1.434 . S
C97 C7 1.515 . S
C99 C80 1.531 . S
C110 C74 1.776 . S
C108 C30 1.706 . S
C121 C48 1.542 . S
C119 C9 1.530 . S
C132 C94 1.821 . S
C130 C29 1.894 . S
C143 C89 0.535 . S
C141 C8 0.595 . S
C152 C31 1.811 . S
C154 C70 1.769 . S
C163 C5 1.811 1_556 S
C165 C76 1.767 . S
C174 C26 0.595 . S
C176 C83 0.535 . S
C185 C6 1.894 1_556 S
C187 C92 1.821 . S
C196 C27 1.531 . S
C198 C62 1.543 . S
C209 C78 1.781 . S
C207 C4 1.697 1_556 S
C218 C28 1.512 . S
C220 C86 1.529 . S
