# Generated by pormake.
# Topology anh, (6,3)-cn, num edge types: 1
# Building blocks:
#     Node 0, Type 0, BuildingBlock: CUWYAW_clean_sbu_0, # of connection points: 6
#     Node 1, Type 0, BuildingBlock: CUWYAW_clean_sbu_0, # of connection points: 6
#     Node 2, Type 0, BuildingBlock: CUWYAW_clean_sbu_0, # of connection points: 6
#     Node 3, Type 1, BuildingBlock: OLANEW_clean_sbu_2, # of connection points: 3
#     Node 4, Type 1, BuildingBlock: OLANEW_clean_sbu_2, # of connection points: 3
#     Node 5, Type 1, BuildingBlock: OLANEW_clean_sbu_2, # of connection points: 3
#     Node 6, Type 1, BuildingBlock: OLANEW_clean_sbu_2, # of connection points: 3
#     Node 7, Type 1, BuildingBlock: OLANEW_clean_sbu_2, # of connection points: 3
#     Node 8, Type 1, BuildingBlock: OLANEW_clean_sbu_2, # of connection points: 3
#     Edge 9, Type (0, 1), None
#     Edge 10, Type (0, 1), None
#     Edge 11, Type (0, 1), None
#     Edge 12, Type (0, 1), None
#     Edge 13, Type (0, 1), None
#     Edge 14, Type (0, 1), None
#     Edge 15, Type (0, 1), None
#     Edge 16, Type (0, 1), None
#     Edge 17, Type (0, 1), None
#     Edge 18, Type (0, 1), None
#     Edge 19, Type (0, 1), None
#     Edge 20, Type (0, 1), None
#     Edge 21, Type (0, 1), None
#     Edge 22, Type (0, 1), None
#     Edge 23, Type (0, 1), None
#     Edge 24, Type (0, 1), None
#     Edge 25, Type (0, 1), None
#     Edge 26, Type (0, 1), None
# Relax obj value: 0.644
# Max RMSD: 0.201
# Mean RMSD: 0.151
data_MOF--net-anh--node1-CUWYAW_clean_sbu_0--node2-OLANEW_clean_sbu_2--edge1-none
_symmetry_space_group_name_H-M    P1
_symmetry_Int_Tables_number       1
_symmetry_cell_setting            triclinic
loop_
_symmetry_equiv_pos_as_xyz
'x, y, z'
_cell_length_a     19.432491
_cell_length_b     19.194585
_cell_length_c     21.686416
_cell_angle_alpha  87.564042
_cell_angle_beta   93.422524
_cell_angle_gamma 119.56215
loop_
_atom_site_label
_atom_site_type_symbol
_atom_site_fract_x
_atom_site_fract_y
_atom_site_fract_z
_atom_type_partial_charge
C0 C 0.96578 0.31237 0.18398 0.0
Eu1 Eu 1.05821 0.46596 0.17939 0.0
C2 C 0.88339 0.26934 0.20354 0.0
C3 C 0.86739 0.23416 0.26279 0.0
C4 C 0.79588 0.21356 0.28894 0.0
C5 C 0.739 0.22713 0.25605 0.0
C6 C 0.75187 0.25532 0.19481 0.0
C7 C 0.82358 0.27645 0.16874 0.0
C8 C 0.106 0.55045 0.28569 0.0
C9 C 0.97463 0.57472 0.1604 0.0
C10 C 0.26305 0.79119 0.17123 0.0
Eu11 Eu 0.16479 0.63954 0.16038 0.0
C12 C 0.3485 0.82468 0.18392 0.0
C13 C 0.4041 0.89863 0.15872 0.0
C14 C 0.48538 0.92404 0.16609 0.0
C15 C 0.51088 0.87485 0.19779 0.0
C16 C 0.45475 0.79966 0.22011 0.0
C17 C 0.37477 0.77581 0.21476 0.0
C18 C 0.11008 0.55785 0.05343 0.0
C19 C 0.24146 0.52757 0.14972 0.0
O20 O 0.97845 0.35429 0.13257 0.0
O21 O 1.0189 0.35164 0.22773 0.0
O22 O 1.03452 0.49369 0.27356 0.0
O23 O 0.15013 0.56031 0.24163 0.0
O24 O 0.96403 0.50138 0.1574 0.0
O25 O 1.04661 0.6372 0.16874 0.0
O26 O 0.21803 0.74745 0.21599 0.0
O27 O 0.23792 0.75659 0.11774 0.0
O28 O 0.18042 0.61859 0.06157 0.0
O29 O 1.07071 0.54615 0.10029 0.0
O30 O 0.25697 0.59986 0.16463 0.0
O31 O 0.16805 0.46768 0.14625 0.0
H32 H 0.91215 0.22743 0.29042 0.0
H33 H 0.78622 0.18939 0.33562 0.0
H34 H 0.70831 0.26497 0.16808 0.0
H35 H 0.8337 0.30291 0.12276 0.0
H36 H 0.38474 0.93615 0.13329 0.0
H37 H 0.52802 0.98219 0.14813 0.0
H38 H 0.47303 0.76 0.24349 0.0
H39 H 0.33329 0.71832 0.23431 0.0
C40 C 0.53257 0.23259 0.48163 0.0
Eu41 Eu 0.57825 0.12727 0.49931 0.0
C42 C 0.55964 0.30706 0.51593 0.0
C43 C 0.54681 0.30394 0.57929 0.0
C44 C 0.59256 0.37086 0.61576 0.0
C45 C 0.65245 0.44172 0.5897 0.0
C46 C 0.66011 0.44727 0.52551 0.0
C47 C 0.61351 0.38058 0.48881 0.0
C48 C 0.63123 0.09904 0.61338 0.0
C49 C 0.769 0.20522 0.47276 0.0
C50 C 0.7087 0.91355 0.50886 0.0
Eu51 Eu 0.65693 1.01342 0.48895 0.0
C52 C 0.66248 0.82685 0.4984 0.0
C53 C 0.68068 0.77384 0.53225 0.0
C54 C 0.624 0.69243 0.53605 0.0
C55 C 0.54898 0.66396 0.50623 0.0
C56 C 0.53422 0.71532 0.46707 0.0
C57 C 0.5905 0.79634 0.46347 0.0
C58 C 0.57416 1.02055 0.38371 0.0
C59 C 0.46558 0.93355 0.49441 0.0
O60 O 0.5881 0.23226 0.4506 0.0
O61 O 0.49021 0.16449 0.51122 0.0
O62 O 0.5984 0.14337 0.60492 0.0
O63 O 0.63502 0.07545 0.5612 0.0
O64 O 0.70626 0.21533 0.47549 0.0
O65 O 0.76602 0.13511 0.48168 0.0
O66 O 0.68238 0.93788 0.55296 0.0
O67 O 0.72485 0.95935 0.45904 0.0
O68 O 0.59961 0.97022 0.39416 0.0
O69 O 0.60724 0.07244 0.42545 0.0
O70 O 0.52857 0.92523 0.50865 0.0
O71 O 0.47013 1.00444 0.48388 0.0
H72 H 0.5055 0.24847 0.60167 0.0
H73 H 0.58395 0.3654 0.66497 0.0
H74 H 0.70452 0.50182 0.504 0.0
H75 H 0.62416 0.3847 0.43995 0.0
H76 H 0.73589 0.79619 0.55939 0.0
H77 H 0.63644 0.65284 0.56582 0.0
H78 H 0.47667 0.69453 0.44375 0.0
H79 H 0.57486 0.83607 0.43747 0.0
C80 C 0.89655 0.70324 0.83272 0.0
Eu81 Eu 0.74441 0.63087 0.84548 0.0
C82 C 0.97043 0.74413 0.87072 0.0
C83 C 0.97527 0.78439 0.92477 0.0
C84 C 1.04597 0.8203 0.961 0.0
C85 C 0.11203 0.81508 0.94419 0.0
C86 C 0.1069 0.77524 0.88986 0.0
C87 C 1.03665 0.73999 0.85352 0.0
C88 C 0.66992 0.58822 0.95621 0.0
C89 C 0.64646 0.4399 0.81521 0.0
C90 C 0.40273 0.44735 0.83739 0.0
Eu91 Eu 0.5533 0.54082 0.82569 0.0
C92 C 0.325 0.44109 0.82559 0.0
C93 C 0.25758 0.36528 0.82847 0.0
C94 C 0.18238 0.35782 0.82609 0.0
C95 C 0.17366 0.4263 0.82082 0.0
C96 C 0.24132 0.5019 0.81346 0.0
C97 C 0.31671 0.50928 0.81601 0.0
C98 C 0.63618 0.62051 0.72496 0.0
C99 C 0.64915 0.7337 0.8321 0.0
O100 O 0.85361 0.62607 0.84298 0.0
O101 O 0.85416 0.73925 0.824 0.0
O102 O 0.74616 0.62605 0.95222 0.0
O103 O 0.64102 0.57506 0.90209 0.0
O104 O 0.71548 0.50716 0.81372 0.0
O105 O 0.58009 0.43853 0.82746 0.0
O106 O 0.44945 0.49781 0.88012 0.0
O107 O 0.43991 0.44686 0.78905 0.0
O108 O 0.56299 0.60151 0.73254 0.0
O109 O 0.65645 0.58557 0.76706 0.0
O110 O 0.57978 0.66816 0.84097 0.0
O111 O 0.71675 0.73262 0.82847 0.0
H112 H 0.92445 0.78759 0.93909 0.0
H113 H 1.04862 0.85098 1.00261 0.0
H114 H 0.15763 0.77248 0.87483 0.0
H115 H 1.03393 0.70919 0.81193 0.0
H116 H 0.26323 0.31204 0.83538 0.0
H117 H 0.13147 0.29878 0.83159 0.0
H118 H 0.23651 0.55579 0.80936 0.0
H119 H 0.36845 0.56824 0.81322 0.0
O120 O 0.46205 1.03482 0.34506 0.0
Cd121 Cd 0.53192 0.17837 0.34463 0.0
O122 O 0.45557 0.9185 0.33724 0.0
Cd123 Cd 0.52077 0.85247 0.33236 0.0
O124 O 0.61616 0.89207 0.26719 0.0
C125 C 0.59504 0.90202 0.21236 0.0
O126 O 0.64764 0.93544 0.1698 0.0
C127 C 0.49392 0.99104 0.35445 0.0
C128 C 0.66782 0.21395 0.28635 0.0
O129 O 0.66493 0.2074 0.34519 0.0
O130 O 0.60764 0.20901 0.25491 0.0
O131 O 0.7645 0.72489 0.69679 0.0
Cd132 Cd 0.81111 0.62973 0.70899 0.0
O133 O 0.66216 0.74062 0.67155 0.0
Cd134 Cd 0.53622 0.67559 0.64341 0.0
O135 O 0.46178 0.57691 0.58045 0.0
C136 C 0.48238 0.58677 0.52477 0.0
O137 O 0.43706 0.53396 0.48305 0.0
C138 C 0.69044 0.69872 0.69686 0.0
C139 C 0.70869 0.50738 0.63005 0.0
O140 O 0.69777 0.50404 0.68776 0.0
O141 O 0.77086 0.56759 0.60926 0.0
O142 O 1.0138 0.45729 0.98721 0.0
Cd143 Cd 0.96659 0.41641 0.88112 0.0
O144 O 0.1004 0.5707 0.94472 0.0
Cd145 Cd 0.18675 0.69766 0.95628 0.0
O146 O 0.22886 0.81886 0.98976 0.0
C147 C 0.18674 0.85274 0.98207 0.0
O148 O 0.20978 0.92127 1.00901 0.0
C149 C 1.07397 0.52664 0.99253 0.0
C150 C 0.09683 0.42006 0.83277 0.0
O151 O 1.04078 0.35489 0.85467 0.0
O152 O 0.08804 0.48204 0.82918 0.0
O153 O 0.1998 0.65278 0.35397 0.0
Cd154 Cd 0.24239 0.7182 0.45832 0.0
O155 O 0.09031 0.55776 0.39363 0.0
Cd156 Cd 0.97329 0.44591 0.40384 0.0
O157 O 0.85356 0.34064 0.43473 0.0
C158 C 0.84622 0.27403 0.45601 0.0
O159 O 0.85023 0.34056 0.43469 0.0
C160 C 0.13327 0.5885 0.34691 0.0
C161 C 0.38859 0.85991 0.48293 0.0
O162 O 0.38291 0.79048 0.48803 0.0
O163 O 0.3267 0.86347 0.4637 0.0
O164 O 0.64596 1.00559 0.68203 0.0
Cd165 Cd 0.65828 0.95985 0.7906 0.0
O166 O 0.66131 0.11576 0.7224 0.0
Cd167 Cd 0.67092 0.2356 0.73506 0.0
O168 O 0.69287 0.35774 0.76973 0.0
C169 C 0.63922 0.36275 0.79764 0.0
O170 O 0.69623 0.36148 0.76952 0.0
C171 C 0.64903 0.07344 0.67473 0.0
C172 C 0.65122 0.811 0.81884 0.0
O173 O 0.58789 0.81635 0.8153 0.0
O174 O 0.71654 0.87415 0.80673 0.0
O175 O 0.66582 0.58772 0.06575 0.0
Cd176 Cd 0.81021 0.63042 0.06278 0.0
O177 O 0.55549 0.56023 1.01033 0.0
Cd178 Cd 0.47425 0.55424 0.08221 0.0
O179 O 0.37782 0.56968 0.1281 0.0
C180 C 0.30567 0.51344 0.13107 0.0
O181 O 0.37828 0.5728 0.12936 0.0
C182 C 0.62773 0.57616 1.01363 0.0
C183 C 0.90988 0.58923 0.13647 0.0
O184 O 0.85397 0.53787 0.10117 0.0
O185 O 0.91498 0.65799 0.14121 0.0
loop_
_geom_bond_atom_site_label_1
_geom_bond_atom_site_label_2
_geom_bond_distance
_geom_bond_site_symmetry_2
_ccdc_geom_bond_type
C0 Eu1 2.835 . S
C0 C2 1.500 . S
C0 O20 1.257 . S
C0 O21 1.260 . S
Eu1 C0 2.835 . S
Eu1 O20 2.473 . S
Eu1 O21 2.480 . S
Eu1 O22 2.430 . S
Eu1 O23 2.670 1_655 S
Eu1 O24 2.394 . S
Eu1 O29 2.355 1_655 S
Eu1 O31 2.374 1_655 S
C2 C0 1.500 . S
C2 C3 1.377 . S
C2 C7 1.377 . S
C3 C2 1.377 . S
C3 C4 1.395 . S
C3 H32 0.931 . S
C4 C3 1.395 . S
C4 C5 1.383 . S
C4 H33 0.931 . S
C5 C4 1.383 . S
C5 C6 1.394 . S
C6 C5 1.394 . S
C6 C7 1.378 . S
C6 H34 0.931 . S
C7 C2 1.377 . S
C7 C6 1.378 . S
C7 H35 0.931 . S
C8 O22 1.259 1_455 S
C8 O23 1.270 . S
C9 O24 1.251 . S
C9 O25 1.251 . S
C10 Eu11 2.835 . S
C10 C12 1.500 . S
C10 O26 1.257 . S
C10 O27 1.260 . S
Eu11 C10 2.835 . S
Eu11 O23 2.355 . S
Eu11 O25 2.374 1_455 S
Eu11 O26 2.473 . S
Eu11 O27 2.480 . S
Eu11 O28 2.430 . S
Eu11 O29 2.670 . S
Eu11 O30 2.394 . S
C12 C10 1.500 . S
C12 C13 1.377 . S
C12 C17 1.377 . S
C13 C12 1.377 . S
C13 C14 1.395 . S
C13 H36 0.931 . S
C14 C13 1.395 . S
C14 C15 1.383 . S
C14 H37 0.931 . S
C15 C14 1.383 . S
C15 C16 1.394 . S
C16 C15 1.394 . S
C16 C17 1.378 . S
C16 H38 0.931 . S
C17 C12 1.377 . S
C17 C16 1.378 . S
C17 H39 0.931 . S
C18 O28 1.259 . S
C18 O29 1.270 . S
C19 O30 1.251 . S
C19 O31 1.251 . S
O20 C0 1.257 . S
O20 Eu1 2.473 . S
O21 C0 1.260 . S
O21 Eu1 2.480 . S
O22 Eu1 2.430 . S
O22 C8 1.259 1_655 S
O23 Eu1 2.670 1_455 S
O23 C8 1.270 . S
O23 Eu11 2.355 . S
O24 Eu1 2.394 . S
O24 C9 1.251 . S
O25 C9 1.251 . S
O25 Eu11 2.374 1_655 S
O26 C10 1.257 . S
O26 Eu11 2.473 . S
O27 C10 1.260 . S
O27 Eu11 2.480 . S
O28 Eu11 2.430 . S
O28 C18 1.259 . S
O29 Eu1 2.355 1_455 S
O29 Eu11 2.670 . S
O29 C18 1.270 . S
O30 Eu11 2.394 . S
O30 C19 1.251 . S
O31 Eu1 2.374 1_455 S
O31 C19 1.251 . S
H32 C3 0.931 . S
H33 C4 0.931 . S
H34 C6 0.931 . S
H35 C7 0.931 . S
H36 C13 0.931 . S
H37 C14 0.931 . S
H38 C16 0.931 . S
H39 C17 0.931 . S
C40 Eu41 2.835 . S
C40 C42 1.500 . S
C40 O60 1.257 . S
C40 O61 1.260 . S
Eu41 C40 2.835 . S
Eu41 O60 2.473 . S
Eu41 O61 2.480 . S
Eu41 O62 2.430 . S
Eu41 O63 2.670 1_545 S
Eu41 O64 2.394 . S
Eu41 O69 2.355 . S
Eu41 O71 2.374 1_545 S
C42 C40 1.500 . S
C42 C43 1.377 . S
C42 C47 1.377 . S
C43 C42 1.377 . S
C43 C44 1.395 . S
C43 H72 0.931 . S
C44 C43 1.395 . S
C44 C45 1.383 . S
C44 H73 0.931 . S
C45 C44 1.383 . S
C45 C46 1.394 . S
C46 C45 1.394 . S
C46 C47 1.378 . S
C46 H74 0.931 . S
C47 C42 1.377 . S
C47 C46 1.378 . S
C47 H75 0.931 . S
C48 O62 1.259 . S
C48 O63 1.270 1_545 S
C49 O64 1.251 . S
C49 O65 1.251 . S
C50 Eu51 2.835 . S
C50 C52 1.500 . S
C50 O66 1.257 . S
C50 O67 1.260 . S
Eu51 C50 2.835 . S
Eu51 O63 2.355 . S
Eu51 O65 2.374 1_565 S
Eu51 O66 2.473 . S
Eu51 O67 2.480 . S
Eu51 O68 2.430 . S
Eu51 O69 2.670 1_565 S
Eu51 O70 2.394 . S
C52 C50 1.500 . S
C52 C53 1.377 . S
C52 C57 1.377 . S
C53 C52 1.377 . S
C53 C54 1.395 . S
C53 H76 0.931 . S
C54 C53 1.395 . S
C54 C55 1.383 . S
C54 H77 0.931 . S
C55 C54 1.383 . S
C55 C56 1.394 . S
C56 C55 1.394 . S
C56 C57 1.378 . S
C56 H78 0.931 . S
C57 C52 1.377 . S
C57 C56 1.378 . S
C57 H79 0.931 . S
C58 O68 1.259 1_545 S
C58 O69 1.270 . S
C59 O70 1.251 . S
C59 O71 1.251 . S
O60 C40 1.257 . S
O60 Eu41 2.473 . S
O61 C40 1.260 . S
O61 Eu41 2.480 . S
O62 Eu41 2.430 . S
O62 C48 1.259 . S
O63 Eu41 2.670 1_565 S
O63 C48 1.270 1_565 S
O63 Eu51 2.355 . S
O64 Eu41 2.394 . S
O64 C49 1.251 . S
O65 C49 1.251 . S
O65 Eu51 2.374 1_545 S
O66 C50 1.257 . S
O66 Eu51 2.473 . S
O67 C50 1.260 . S
O67 Eu51 2.480 . S
O68 Eu51 2.430 . S
O68 C58 1.259 1_565 S
O69 Eu41 2.355 . S
O69 Eu51 2.670 1_545 S
O69 C58 1.270 . S
O70 Eu51 2.394 . S
O70 C59 1.251 . S
O71 Eu41 2.374 1_565 S
O71 C59 1.251 . S
H72 C43 0.931 . S
H73 C44 0.931 . S
H74 C46 0.931 . S
H75 C47 0.931 . S
H76 C53 0.931 . S
H77 C54 0.931 . S
H78 C56 0.931 . S
H79 C57 0.931 . S
C80 Eu81 2.835 . S
C80 C82 1.500 . S
C80 O100 1.257 . S
C80 O101 1.260 . S
Eu81 C80 2.835 . S
Eu81 O100 2.473 . S
Eu81 O101 2.480 . S
Eu81 O102 2.430 . S
Eu81 O103 2.670 . S
Eu81 O104 2.394 . S
Eu81 O109 2.355 . S
Eu81 O111 2.374 . S
C82 C80 1.500 . S
C82 C83 1.377 . S
C82 C87 1.377 . S
C83 C82 1.377 . S
C83 C84 1.395 . S
C83 H112 0.931 . S
C84 C83 1.395 . S
C84 C85 1.383 . S
C84 H113 0.931 . S
C85 C84 1.383 . S
C85 C86 1.394 . S
C86 C85 1.394 . S
C86 C87 1.378 . S
C86 H114 0.931 . S
C87 C82 1.377 . S
C87 C86 1.378 . S
C87 H115 0.931 . S
C88 O102 1.259 . S
C88 O103 1.270 . S
C89 O104 1.251 . S
C89 O105 1.251 . S
C90 Eu91 2.835 . S
C90 C92 1.500 . S
C90 O106 1.257 . S
C90 O107 1.260 . S
Eu91 C90 2.835 . S
Eu91 O103 2.355 . S
Eu91 O105 2.374 . S
Eu91 O106 2.473 . S
Eu91 O107 2.480 . S
Eu91 O108 2.430 . S
Eu91 O109 2.670 . S
Eu91 O110 2.394 . S
C92 C90 1.500 . S
C92 C93 1.377 . S
C92 C97 1.377 . S
C93 C92 1.377 . S
C93 C94 1.395 . S
C93 H116 0.931 . S
C94 C93 1.395 . S
C94 C95 1.383 . S
C94 H117 0.931 . S
C95 C94 1.383 . S
C95 C96 1.394 . S
C96 C95 1.394 . S
C96 C97 1.378 . S
C96 H118 0.931 . S
C97 C92 1.377 . S
C97 C96 1.378 . S
C97 H119 0.931 . S
C98 O108 1.259 . S
C98 O109 1.270 . S
C99 O110 1.251 . S
C99 O111 1.251 . S
O100 C80 1.257 . S
O100 Eu81 2.473 . S
O101 C80 1.260 . S
O101 Eu81 2.480 . S
O102 Eu81 2.430 . S
O102 C88 1.259 . S
O103 Eu81 2.670 . S
O103 C88 1.270 . S
O103 Eu91 2.355 . S
O104 Eu81 2.394 . S
O104 C89 1.251 . S
O105 C89 1.251 . S
O105 Eu91 2.374 . S
O106 C90 1.257 . S
O106 Eu91 2.473 . S
O107 C90 1.260 . S
O107 Eu91 2.480 . S
O108 Eu91 2.430 . S
O108 C98 1.259 . S
O109 Eu81 2.355 . S
O109 Eu91 2.670 . S
O109 C98 1.270 . S
O110 Eu91 2.394 . S
O110 C99 1.251 . S
O111 Eu81 2.374 . S
O111 C99 1.251 . S
H112 C83 0.931 . S
H113 C84 0.931 . S
H114 C86 0.931 . S
H115 C87 0.931 . S
H116 C93 0.931 . S
H117 C94 0.931 . S
H118 C96 0.931 . S
H119 C97 0.931 . S
O120 Cd121 2.300 . S
O120 C127 1.275 . S
Cd121 O120 2.300 . S
Cd121 O129 2.381 . S
Cd121 O130 2.378 . S
O122 Cd123 2.385 . S
O122 C127 1.255 1_565 S
Cd123 O122 2.385 . S
Cd123 O124 2.317 . S
O124 Cd123 2.317 . S
O124 C125 1.232 . S
C125 O124 1.232 . S
C125 O126 1.218 . S
O126 C125 1.218 . S
C127 O120 1.275 . S
C127 O122 1.255 1_545 S
C128 O129 1.258 . S
C128 O130 1.256 . S
O129 Cd121 2.381 . S
O129 C128 1.258 . S
O130 Cd121 2.378 . S
O130 C128 1.256 . S
O131 Cd132 2.300 . S
O131 C138 1.275 . S
Cd132 O131 2.300 . S
Cd132 O140 2.381 . S
Cd132 O141 2.378 . S
O133 Cd134 2.385 . S
O133 C138 1.255 . S
Cd134 O133 2.385 . S
Cd134 O135 2.317 . S
O135 Cd134 2.317 . S
O135 C136 1.232 . S
C136 O135 1.232 . S
C136 O137 1.218 . S
O137 C136 1.218 . S
C138 O131 1.275 . S
C138 O133 1.255 . S
C139 O140 1.258 . S
C139 O141 1.256 . S
O140 Cd132 2.381 . S
O140 C139 1.258 . S
O141 Cd132 2.378 . S
O141 C139 1.256 . S
O142 Cd143 2.300 1_554 S
O142 C149 1.275 . S
Cd143 O142 2.300 1_556 S
Cd143 O151 2.381 . S
Cd143 O152 2.378 . S
O144 Cd145 2.385 1_554 S
O144 C149 1.255 1_655 S
Cd145 O144 2.385 1_556 S
Cd145 O146 2.317 . S
O146 Cd145 2.317 . S
O146 C147 1.232 . S
C147 O146 1.232 . S
C147 O148 1.218 . S
O148 C147 1.218 . S
C149 O142 1.275 . S
C149 O144 1.255 1_455 S
C150 O151 1.258 . S
C150 O152 1.256 . S
O151 Cd143 2.381 . S
O151 C150 1.258 . S
O152 Cd143 2.378 . S
O152 C150 1.256 . S
O153 Cd154 2.300 . S
O153 C160 1.275 . S
Cd154 O153 2.300 . S
Cd154 O162 2.381 . S
Cd154 O163 2.378 . S
O155 Cd156 2.385 . S
O155 C160 1.255 1_655 S
Cd156 O155 2.385 . S
Cd156 O157 2.317 . S
O157 Cd156 2.317 . S
O157 C158 1.232 . S
C158 O157 1.232 . S
C158 O159 1.218 . S
O159 C158 1.218 . S
C160 O153 1.275 . S
C160 O155 1.255 1_455 S
C161 O162 1.258 . S
C161 O163 1.256 . S
O162 Cd154 2.381 . S
O162 C161 1.258 . S
O163 Cd154 2.378 . S
O163 C161 1.256 . S
O164 Cd165 2.300 . S
O164 C171 1.275 1_565 S
Cd165 O164 2.300 . S
Cd165 O173 2.381 . S
Cd165 O174 2.378 . S
O166 Cd167 2.385 . S
O166 C171 1.255 . S
Cd167 O166 2.385 . S
Cd167 O168 2.317 . S
O168 Cd167 2.317 . S
O168 C169 1.232 . S
C169 O168 1.232 . S
C169 O170 1.218 . S
O170 C169 1.218 . S
C171 O164 1.275 1_545 S
C171 O166 1.255 . S
C172 O173 1.258 . S
C172 O174 1.256 . S
O173 Cd165 2.381 . S
O173 C172 1.258 . S
O174 Cd165 2.378 . S
O174 C172 1.256 . S
O175 Cd176 2.300 1_556 S
O175 C182 1.275 . S
Cd176 O175 2.300 1_554 S
Cd176 O184 2.381 . S
Cd176 O185 2.378 . S
O177 Cd178 2.393 . S
O177 C182 1.246 1_554 S
Cd178 O177 2.393 . S
Cd178 O179 2.317 . S
O179 Cd178 2.317 . S
O179 C180 1.232 . S
C180 O179 1.232 . S
C180 O181 1.218 . S
O181 C180 1.218 . S
C182 O175 1.275 . S
C182 O177 1.246 1_556 S
C183 O184 1.258 . S
C183 O185 1.256 . S
O184 Cd176 2.381 . S
O184 C183 1.258 . S
O185 Cd176 2.378 . S
O185 C183 1.256 . S
C19 C180 4.494 . S
C49 C158 4.605 . S
C99 C172 4.548 . S
C9 C183 4.576 . S
C161 C59 4.549 . S
C169 C89 4.602 . S
C55 C136 3.090 . S
C85 C147 3.581 . S
C15 C125 3.079 . S
C139 C45 2.866 . S
C150 C95 2.774 . S
C5 C128 2.878 . S
C149 C18 1.430 . S
C58 C127 1.077 . S
C98 C138 1.017 . S
C171 C48 1.889 . S
C182 C88 1.932 . S
C8 C160 1.894 . S
