# Generated by pormake.
# Topology pth, (4,4)-cn, num edge types: 1
# Building blocks:
#     Node 0, Type 0, BuildingBlock: AZAVOO_clean_sbu_0, # of connection points: 4
#     Node 1, Type 0, BuildingBlock: AZAVOO_clean_sbu_0, # of connection points: 4
#     Node 2, Type 0, BuildingBlock: AZAVOO_clean_sbu_0, # of connection points: 4
#     Node 3, Type 1, BuildingBlock: NAWXER_clean_sbu_0, # of connection points: 4
#     Node 4, Type 1, BuildingBlock: NAWXER_clean_sbu_0, # of connection points: 4
#     Node 5, Type 1, BuildingBlock: NAWXER_clean_sbu_0, # of connection points: 4
#     Edge 6, Type (0, 1), BuildingBlock: AJUNOK_clean_linker_0, # of connection points: 2
#     Edge 7, Type (0, 1), BuildingBlock: AJUNOK_clean_linker_0, # of connection points: 2
#     Edge 8, Type (0, 1), BuildingBlock: AJUNOK_clean_linker_0, # of connection points: 2
#     Edge 9, Type (0, 1), BuildingBlock: AJUNOK_clean_linker_0, # of connection points: 2
#     Edge 10, Type (0, 1), BuildingBlock: AJUNOK_clean_linker_0, # of connection points: 2
#     Edge 11, Type (0, 1), BuildingBlock: AJUNOK_clean_linker_0, # of connection points: 2
#     Edge 12, Type (0, 1), BuildingBlock: AJUNOK_clean_linker_0, # of connection points: 2
#     Edge 13, Type (0, 1), BuildingBlock: AJUNOK_clean_linker_0, # of connection points: 2
#     Edge 14, Type (0, 1), BuildingBlock: AJUNOK_clean_linker_0, # of connection points: 2
#     Edge 15, Type (0, 1), BuildingBlock: AJUNOK_clean_linker_0, # of connection points: 2
#     Edge 16, Type (0, 1), BuildingBlock: AJUNOK_clean_linker_0, # of connection points: 2
#     Edge 17, Type (0, 1), BuildingBlock: AJUNOK_clean_linker_0, # of connection points: 2
# Relax obj value: 0.080
# Max RMSD: 0.222
# Mean RMSD: 0.117
data_MOF--net-pth--node1-AZAVOO_clean_sbu_0--node2-NAWXER_clean_sbu_0--edge1-AJUNOK_clean_linker_0
_symmetry_space_group_name_H-M    P1
_symmetry_Int_Tables_number       1
_symmetry_cell_setting            triclinic
loop_
_symmetry_equiv_pos_as_xyz
'x, y, z'
_cell_length_a     16.536846
_cell_length_b     16.816861
_cell_length_c     43.271957
_cell_angle_alpha  91.585209
_cell_angle_beta   93.861165
_cell_angle_gamma 122.57945
loop_
_atom_site_label
_atom_site_type_symbol
_atom_site_fract_x
_atom_site_fract_y
_atom_site_fract_z
_atom_type_partial_charge
Mg0 Mg 0.16677 0.12416 0.05683 0.0
O1 O 0.02828 0.02554 0.02425 0.0
O2 O 1.00007 0.11618 -0.00541 0.0
Mg3 Mg 0.12273 0.27048 0.00629 0.0
C4 C 0.97674 0.03496 0.00312 0.0
C5 C 0.20286 1.00105 0.10009 0.0
O6 O 0.29093 0.06535 0.09413 0.0
O7 O 0.08683 0.17144 0.08536 0.0
O8 O 0.06995 0.26683 0.05435 0.0
O9 O 0.26057 0.11978 0.02272 0.0
O10 O 0.21761 0.22343 0.02408 0.0
C11 C 0.0594 0.22814 0.08002 0.0
C12 C 0.26327 0.1912 0.01109 0.0
O13 O 0.13319 1.00505 0.08783 0.0
Mg14 Mg 0.9807 0.05125 0.38014 0.0
O15 O 0.11028 0.09241 0.41545 0.0
O16 O 0.14784 0.22232 0.44398 0.0
Mg17 Mg 0.03791 0.26013 0.42913 0.0
C18 C 0.1635 0.15798 0.43681 0.0
C19 C 0.93258 0.8723 0.34047 0.0
O20 O 0.84654 0.85276 0.34563 0.0
O21 O 0.07544 0.17638 0.35179 0.0
O22 O 0.09789 0.29868 0.38179 0.0
O23 O 0.87285 0.9624 0.41351 0.0
O24 O 0.93374 0.11418 0.40938 0.0
C25 C 0.10857 0.26458 0.35677 0.0
C26 C 0.87591 0.03836 0.42223 0.0
O27 O 1.00599 0.95066 0.35205 0.0
Mg28 Mg 1.01206 0.99623 0.7115 0.0
O29 O 0.11658 0.13141 0.74393 0.0
O30 O 0.02197 0.15443 0.77256 0.0
Mg31 Mg 0.86462 0.03348 0.76184 0.0
C32 C 0.10505 0.18008 0.76445 0.0
C33 C 0.19256 0.01186 0.68633 0.0
O34 O 0.20461 0.99423 0.71507 0.0
O35 O 0.96436 0.07978 0.68369 0.0
O36 O 0.86588 0.09018 0.71397 0.0
O37 O 0.02028 0.90082 0.74475 0.0
O38 O 0.91704 0.94574 0.74535 0.0
C39 C 0.9058 0.10504 0.68865 0.0
C40 C 0.95139 0.89965 0.75764 0.0
O41 O 0.12409 0.02307 0.67842 0.0
C42 C 0.98926 0.62901 0.25793 0.0
C43 C 1.00851 0.43123 0.17763 0.0
O44 O 0.07626 0.65685 0.25344 0.0
Zn45 Zn 0.14978 0.61514 0.2247 0.0
O46 O 0.92027 0.55574 0.24226 0.0
Zn47 Zn 0.99642 0.52845 0.21719 0.0
O48 O 0.06263 0.48069 0.24961 0.0
O49 O 0.22012 0.58537 0.25474 0.0
O50 O 0.93224 0.42388 0.18558 0.0
O51 O 0.09136 0.49794 0.19028 0.0
O52 O 0.21981 0.72389 0.20064 0.0
O53 O 0.06246 0.64737 0.1897 0.0
C54 C 0.14739 0.50799 0.26172 0.0
C55 C 0.1472 0.71633 0.1854 0.0
C56 C 0.70616 0.17511 0.59166 0.0
C57 C 0.46648 0.15692 0.51378 0.0
O58 O 0.64094 0.09098 0.5808 0.0
Zn59 Zn 0.51511 0.01945 0.54863 0.0
O60 O 0.70425 0.24562 0.58272 0.0
Zn61 Zn 0.58937 0.1718 0.55343 0.0
O62 O 0.48277 0.09992 0.58452 0.0
O63 O 0.41369 0.9455 0.57529 0.0
O64 O 0.53726 0.23158 0.52839 0.0
O65 O 0.45265 0.07638 0.51946 0.0
O66 O 0.55344 0.9591 0.51928 0.0
O67 O 0.6382 0.11517 0.51998 0.0
C68 C 0.42132 0.01515 0.59067 0.0
C69 C 0.62045 0.03498 0.50918 0.0
C70 C 0.50899 0.42737 0.91986 0.0
C71 C 0.72631 0.64922 0.84866 0.0
O72 O 0.49226 0.49033 0.91194 0.0
Zn73 Zn 0.54423 0.60588 0.88377 0.0
O74 O 0.57921 0.42709 0.90955 0.0
Zn75 Zn 0.61994 0.53385 0.88377 0.0
O76 O 0.67681 0.65084 0.91789 0.0
O77 O 0.58845 0.71294 0.91364 0.0
O78 O 0.72762 0.57885 0.85813 0.0
O79 O 0.66128 0.66297 0.85638 0.0
O80 O 0.43343 0.5615 0.85362 0.0
O81 O 0.49791 0.47649 0.84995 0.0
C82 C 0.65979 0.71327 0.92688 0.0
C83 C 0.43244 0.49184 0.84086 0.0
C84 C 0.07439 0.27721 0.13594 0.0
C85 C 0.02863 0.2621 0.10583 0.0
C86 C 0.06356 0.3285 0.15952 0.0
C87 C 1.00447 0.36408 0.15407 0.0
H88 H 0.12412 0.25493 0.14084 0.0
H89 H 0.10439 0.34329 0.18192 0.0
S90 S 0.85932 0.3336 0.08052 0.0
N91 N 0.9158 0.28013 0.07254 0.0
N92 N 0.89299 0.37391 0.11741 0.0
C93 C 0.95257 0.34347 0.12483 0.0
C94 C 0.96535 0.29314 0.10054 0.0
C95 C 0.76009 0.96082 0.46278 0.0
C96 C 0.81145 0.03793 0.44457 0.0
C97 C 0.69618 0.95861 0.48314 0.0
C98 C 0.68149 0.03343 0.48595 0.0
H99 H 0.76969 0.90203 0.46145 0.0
H100 H 0.65965 0.8989 0.4972 0.0
S101 S 0.7906 0.24702 0.44117 0.0
N102 N 0.83738 0.18769 0.4292 0.0
N103 N 0.71858 0.18359 0.46734 0.0
C104 C 0.73061 0.10967 0.46733 0.0
C105 C 0.79526 0.11195 0.4467 0.0
C106 C 0.88833 0.74909 0.78352 0.0
C107 C 0.90922 0.84218 0.78407 0.0
C108 C 0.83346 0.68734 0.80566 0.0
C109 C 0.7983 0.7173 0.82893 0.0
H110 H 0.90985 0.72219 0.76488 0.0
H111 H 0.81407 0.61465 0.80348 0.0
S112 S 0.85238 0.96045 0.84439 0.0
N113 N 0.90436 0.96547 0.8126 0.0
N114 N 0.80137 0.85035 0.85411 0.0
C115 C 0.82578 0.81258 0.83113 0.0
C116 C 0.88118 0.87488 0.80866 0.0
C117 C 0.2649 0.92579 0.1354 0.0
C118 C 0.18605 0.92656 0.12127 0.0
C119 C 0.25179 0.85761 0.15596 0.0
C120 C 0.15921 0.78703 0.16319 0.0
H121 H 0.33781 0.97861 0.13073 0.0
H122 H 0.31495 0.86048 0.16624 0.0
S123 S 0.92815 0.75714 0.13234 0.0
N124 N 1.01166 0.84999 0.11593 0.0
N125 N 0.98681 0.72214 0.15442 0.0
C126 C 0.07948 0.78657 0.14907 0.0
C127 C 0.09292 0.85615 0.12819 0.0
C128 C 0.3088 0.23551 0.47619 0.0
C129 C 0.24495 0.1591 0.45439 0.0
C130 C 0.38289 0.23637 0.49439 0.0
C131 C 0.3958 0.1605 0.49177 0.0
H132 H 0.30083 0.29487 0.47969 0.0
H133 H 0.42819 0.29549 0.51138 0.0
S134 S 0.25482 0.94723 0.4364 0.0
N135 N 0.20468 1.0083 0.42992 0.0
N136 N 0.34323 1.00992 0.46413 0.0
C137 C 0.33499 0.08527 0.46932 0.0
C138 C 0.2599 0.08458 0.45065 0.0
C139 C 0.2812 0.27781 0.78304 0.0
C140 C 0.19057 0.26703 0.78063 0.0
C141 C 0.36007 0.3534 0.8014 0.0
C142 C 0.35199 0.42203 0.81787 0.0
H143 H 0.29047 0.2253 0.77175 0.0
H144 H 0.42725 0.35627 0.80342 0.0
S145 S 0.13347 0.43296 0.81602 0.0
N146 N 0.09959 0.33655 0.79388 0.0
N147 N 0.24782 0.47852 0.82823 0.0
C148 C 0.26333 0.41531 0.81412 0.0
C149 C 0.18269 0.33783 0.79561 0.0
C150 C 0.8233 0.18634 0.67017 0.0
C151 C 0.87521 0.14438 0.66342 0.0
C152 C 0.7766 0.20672 0.6464 0.0
C153 C 0.78018 0.18567 0.61515 0.0
H154 H 0.81406 0.19874 0.694 0.0
H155 H 0.73123 0.23184 0.65257 0.0
S156 S 0.91514 0.08754 0.58452 0.0
N157 N 0.93544 0.09267 0.62264 0.0
N158 N 0.84576 0.12944 0.57827 0.0
C159 C 0.83732 0.15067 0.60795 0.0
C160 C 0.88568 0.13069 0.63202 0.0
C161 C 0.82588 0.95983 0.96632 0.0
C162 C 0.88905 0.94949 -0.0131 0.0
C163 C 0.7479 0.88203 0.94838 0.0
C164 C 0.73038 0.7908 0.95004 0.0
H165 H 0.83799 0.02907 0.96335 0.0
H166 H 0.70408 0.8944 0.93197 0.0
S167 S 0.86629 0.72244 0.0026 0.0
N168 N 0.92254 0.83813 0.00972 0.0
N169 N 0.77676 0.69259 0.9758 0.0
C170 C 0.78963 0.77837 0.97159 0.0
C171 C 0.8686 0.8574 -0.00993 0.0
C172 C 0.03677 0.82775 0.31562 0.0
C173 C 0.94392 0.80594 0.32054 0.0
C174 C 0.05014 0.76903 0.29593 0.0
C175 C 0.97131 0.68575 0.28018 0.0
H176 H 0.10015 0.89142 0.3268 0.0
H177 H 0.1234 0.79028 0.29276 0.0
S178 S 0.71267 0.59379 0.28601 0.0
N179 N 0.7712 0.69287 0.30873 0.0
N180 N 0.79653 0.58285 0.27171 0.0
C181 C 0.87787 0.66181 0.28536 0.0
C182 C 0.86416 0.7217 0.30551 0.0
C183 C 0.21145 0.97987 0.63139 0.0
C184 C 0.25125 1.00875 0.66256 0.0
C185 C 0.26507 0.97581 0.60833 0.0
C186 C 0.36044 1.00152 0.61566 0.0
H187 H 0.13836 0.96045 0.62472 0.0
H188 H 0.23308 0.956 0.58448 0.0
S189 S 0.49898 0.08295 0.69318 0.0
N190 N 0.39193 0.06227 0.69934 0.0
N191 N 0.49336 0.05743 0.65564 0.0
C192 C 0.40103 0.02987 0.64656 0.0
C193 C 0.34614 0.03254 0.67015 0.0
C194 C 0.29511 0.28934 0.9661 0.0
C195 C 0.32049 0.2381 -0.01507 0.0
C196 C 0.35519 0.34693 0.94442 0.0
C197 C 0.44386 0.35636 0.94063 0.0
H198 H 0.22912 0.28675 0.96847 0.0
H199 H 0.33245 0.38619 0.931 0.0
S200 S 0.54034 0.23069 0.98251 0.0
N201 N 0.43715 0.19484 -0.00293 0.0
N202 N 0.551 0.30405 0.95611 0.0
C203 C 0.46802 0.3015 0.95809 0.0
C204 C 0.4061 0.24211 0.98027 0.0
C205 C 0.09197 0.28915 0.30098 0.0
C206 C 0.14154 0.32621 0.33069 0.0
C207 C 0.09895 0.34915 0.27808 0.0
C208 C 0.15761 0.44809 0.2838 0.0
H209 H 0.04105 0.21367 0.29618 0.0
H210 H 0.05452 0.31792 0.2562 0.0
S211 S 0.31464 0.58002 0.35586 0.0
N212 N 0.25974 0.46761 0.36341 0.0
N213 N 0.27513 0.58036 0.31979 0.0
C214 C 0.21477 0.48591 0.31226 0.0
C215 C 0.20613 0.42486 0.33588 0.0
loop_
_geom_bond_atom_site_label_1
_geom_bond_atom_site_label_2
_geom_bond_distance
_geom_bond_site_symmetry_2
_ccdc_geom_bond_type
Mg0 O1 2.028 1_545 S
Mg0 O7 1.986 . S
Mg0 O9 2.114 . S
Mg0 O10 2.251 . S
Mg0 O13 2.010 . S
O1 Mg0 2.028 1_565 S
O1 C4 1.250 1_455 S
O2 Mg3 2.028 1_655 S
O2 C4 1.248 1_545 S
Mg3 O2 2.028 1_455 S
Mg3 O8 2.032 . S
Mg3 O10 2.079 . S
C4 O1 1.250 1_655 S
C4 O2 1.248 1_565 S
C5 O6 1.264 . S
C5 O13 1.249 1_565 S
O6 C5 1.264 . S
O7 Mg0 1.986 . S
O7 C11 1.246 . S
O8 Mg3 2.032 . S
O8 C11 1.259 . S
O9 Mg0 2.114 . S
O9 C12 1.252 . S
O10 Mg0 2.251 . S
O10 Mg3 2.079 . S
O10 C12 1.273 . S
C11 O7 1.246 . S
C11 O8 1.259 . S
C12 O9 1.252 . S
C12 O10 1.273 . S
O13 Mg0 2.010 . S
O13 C5 1.249 1_545 S
Mg14 O15 2.028 1_655 S
Mg14 O21 1.986 1_655 S
Mg14 O23 2.114 1_545 S
Mg14 O24 2.251 . S
Mg14 O27 2.010 1_545 S
O15 Mg14 2.028 1_455 S
O15 C18 1.250 . S
O16 Mg17 2.028 . S
O16 C18 1.248 . S
Mg17 O16 2.028 . S
Mg17 O22 2.032 . S
Mg17 O24 2.079 1_455 S
C18 O15 1.250 . S
C18 O16 1.248 . S
C19 O20 1.264 . S
C19 O27 1.249 . S
O20 C19 1.264 . S
O21 Mg14 1.986 1_455 S
O21 C25 1.246 . S
O22 Mg17 2.032 . S
O22 C25 1.259 . S
O23 Mg14 2.114 1_565 S
O23 C26 1.252 1_565 S
O24 Mg14 2.251 . S
O24 Mg17 2.079 1_655 S
O24 C26 1.273 . S
C25 O21 1.246 . S
C25 O22 1.259 . S
C26 O23 1.252 1_545 S
C26 O24 1.273 . S
O27 Mg14 2.010 1_565 S
O27 C19 1.249 . S
Mg28 O29 2.028 . S
Mg28 O35 1.986 1_455 S
Mg28 O37 2.114 1_545 S
Mg28 O38 2.251 1_445 S
Mg28 O41 2.010 1_545 S
O29 Mg28 2.028 . S
O29 C32 1.250 . S
O30 Mg31 2.028 1_455 S
O30 C32 1.248 . S
Mg31 O30 2.028 1_655 S
Mg31 O36 2.032 . S
Mg31 O38 2.079 1_545 S
C32 O29 1.250 . S
C32 O30 1.248 . S
C33 O34 1.264 . S
C33 O41 1.249 . S
O34 C33 1.264 . S
O35 Mg28 1.986 1_655 S
O35 C39 1.246 . S
O36 Mg31 2.032 . S
O36 C39 1.259 . S
O37 Mg28 2.114 1_565 S
O37 C40 1.252 1_455 S
O38 Mg28 2.251 1_665 S
O38 Mg31 2.079 1_565 S
O38 C40 1.273 . S
C39 O35 1.246 . S
C39 O36 1.259 . S
C40 O37 1.252 1_655 S
C40 O38 1.273 . S
O41 Mg28 2.010 1_565 S
O41 C33 1.249 . S
C42 O44 1.247 . S
C42 O46 1.258 1_455 S
C43 O50 1.247 1_455 S
C43 O51 1.258 . S
O44 C42 1.247 . S
O44 Zn45 2.028 . S
Zn45 O44 2.028 . S
Zn45 O49 2.035 . S
Zn45 O51 2.035 . S
Zn45 O52 2.028 . S
O46 C42 1.258 1_655 S
O46 Zn47 2.035 . S
Zn47 O46 2.035 . S
Zn47 O48 2.028 . S
Zn47 O50 2.028 . S
Zn47 O53 2.035 . S
O48 Zn47 2.028 . S
O48 C54 1.247 1_655 S
O49 Zn45 2.035 . S
O49 C54 1.258 . S
O50 C43 1.247 1_655 S
O50 Zn47 2.028 . S
O51 C43 1.258 . S
O51 Zn45 2.035 . S
O52 Zn45 2.028 . S
O52 C55 1.247 . S
O53 Zn47 2.035 . S
O53 C55 1.258 1_655 S
C54 O48 1.247 1_455 S
C54 O49 1.258 . S
C55 O52 1.247 . S
C55 O53 1.258 1_455 S
C56 O58 1.247 . S
C56 O60 1.258 . S
C57 O64 1.247 . S
C57 O65 1.258 . S
O58 C56 1.247 . S
O58 Zn59 2.028 1_545 S
Zn59 O58 2.028 1_565 S
Zn59 O63 2.035 1_565 S
Zn59 O65 2.035 1_565 S
Zn59 O66 2.028 1_565 S
O60 C56 1.258 . S
O60 Zn61 2.035 . S
Zn61 O60 2.035 . S
Zn61 O62 2.028 . S
Zn61 O64 2.028 . S
Zn61 O67 2.035 . S
O62 Zn61 2.028 . S
O62 C68 1.247 . S
O63 Zn59 2.035 1_545 S
O63 C68 1.258 . S
O64 C57 1.247 . S
O64 Zn61 2.028 . S
O65 C57 1.258 . S
O65 Zn59 2.035 1_545 S
O66 Zn59 2.028 1_545 S
O66 C69 1.247 . S
O67 Zn61 2.035 . S
O67 C69 1.258 . S
C68 O62 1.247 . S
C68 O63 1.258 . S
C69 O66 1.247 . S
C69 O67 1.258 . S
C70 O72 1.247 . S
C70 O74 1.258 . S
C71 O78 1.247 . S
C71 O79 1.258 . S
O72 C70 1.247 . S
O72 Zn73 2.028 . S
Zn73 O72 2.028 . S
Zn73 O77 2.035 . S
Zn73 O79 2.035 . S
Zn73 O80 2.028 . S
O74 C70 1.258 . S
O74 Zn75 2.035 . S
Zn75 O74 2.035 . S
Zn75 O76 2.028 . S
Zn75 O78 2.028 . S
Zn75 O81 2.035 . S
O76 Zn75 2.028 . S
O76 C82 1.247 . S
O77 Zn73 2.035 . S
O77 C82 1.258 . S
O78 C71 1.247 . S
O78 Zn75 2.028 . S
O79 C71 1.258 . S
O79 Zn73 2.035 . S
O80 Zn73 2.028 . S
O80 C83 1.247 . S
O81 Zn75 2.035 . S
O81 C83 1.258 . S
C82 O76 1.247 . S
C82 O77 1.258 . S
C83 O80 1.247 . S
C83 O81 1.258 . S
C84 C85 1.369 . S
C84 C86 1.419 . S
C84 H88 0.930 . S
C85 C84 1.369 . S
C85 C94 1.429 1_455 S
C86 C84 1.419 . S
C86 C87 1.363 . S
C86 H89 0.929 . S
C87 C86 1.363 . S
C87 C93 1.428 1_455 S
H88 C84 0.930 . S
H89 C86 0.929 . S
S90 N91 1.613 . S
S90 N92 1.610 . S
N91 S90 1.613 . S
N91 C94 1.350 . S
N92 S90 1.610 . S
N92 C93 1.351 . S
C93 C87 1.428 1_655 S
C93 N92 1.351 . S
C93 C94 1.434 . S
C94 C85 1.429 1_655 S
C94 N91 1.350 . S
C94 C93 1.434 . S
C95 C96 1.369 1_565 S
C95 C97 1.419 . S
C95 H99 0.930 . S
C96 C95 1.369 1_545 S
C96 C105 1.429 . S
C97 C95 1.419 . S
C97 C98 1.363 1_565 S
C97 H100 0.929 . S
C98 C97 1.363 1_545 S
C98 C104 1.428 . S
H99 C95 0.930 . S
H100 C97 0.929 . S
S101 N102 1.613 . S
S101 N103 1.610 . S
N102 S101 1.613 . S
N102 C105 1.350 . S
N103 S101 1.610 . S
N103 C104 1.351 . S
C104 C98 1.428 . S
C104 N103 1.351 . S
C104 C105 1.434 . S
C105 C96 1.429 . S
C105 N102 1.350 . S
C105 C104 1.434 . S
C106 C107 1.369 . S
C106 C108 1.419 . S
C106 H110 0.930 . S
C107 C106 1.369 . S
C107 C116 1.429 . S
C108 C106 1.419 . S
C108 C109 1.363 . S
C108 H111 0.929 . S
C109 C108 1.363 . S
C109 C115 1.428 . S
H110 C106 0.930 . S
H111 C108 0.929 . S
S112 N113 1.613 . S
S112 N114 1.610 . S
N113 S112 1.613 . S
N113 C116 1.350 . S
N114 S112 1.610 . S
N114 C115 1.351 . S
C115 C109 1.428 . S
C115 N114 1.351 . S
C115 C116 1.434 . S
C116 C107 1.429 . S
C116 N113 1.350 . S
C116 C115 1.434 . S
C117 C118 1.369 . S
C117 C119 1.419 . S
C117 H121 0.930 . S
C118 C117 1.369 . S
C118 C127 1.429 . S
C119 C117 1.419 . S
C119 C120 1.363 . S
C119 H122 0.929 . S
C120 C119 1.363 . S
C120 C126 1.428 . S
H121 C117 0.930 . S
H122 C119 0.929 . S
S123 N124 1.613 1_655 S
S123 N125 1.610 . S
N124 S123 1.613 1_455 S
N124 C127 1.350 . S
N125 S123 1.610 . S
N125 C126 1.351 1_655 S
C126 C120 1.428 . S
C126 N125 1.351 1_455 S
C126 C127 1.434 . S
C127 C118 1.429 . S
C127 N124 1.350 . S
C127 C126 1.434 . S
C128 C129 1.369 . S
C128 C130 1.419 . S
C128 H132 0.930 . S
C129 C128 1.369 . S
C129 C138 1.429 . S
C130 C128 1.419 . S
C130 C131 1.363 . S
C130 H133 0.929 . S
C131 C130 1.363 . S
C131 C137 1.428 . S
H132 C128 0.930 . S
H133 C130 0.929 . S
S134 N135 1.613 . S
S134 N136 1.610 . S
N135 S134 1.613 . S
N135 C138 1.350 . S
N136 S134 1.610 . S
N136 C137 1.351 . S
C137 C131 1.428 . S
C137 N136 1.351 . S
C137 C138 1.434 . S
C138 C129 1.429 . S
C138 N135 1.350 . S
C138 C137 1.434 . S
C139 C140 1.369 . S
C139 C141 1.419 . S
C139 H143 0.930 . S
C140 C139 1.369 . S
C140 C149 1.429 . S
C141 C139 1.419 . S
C141 C142 1.363 . S
C141 H144 0.929 . S
C142 C141 1.363 . S
C142 C148 1.428 . S
H143 C139 0.930 . S
H144 C141 0.929 . S
S145 N146 1.613 . S
S145 N147 1.610 . S
N146 S145 1.613 . S
N146 C149 1.350 . S
N147 S145 1.610 . S
N147 C148 1.351 . S
C148 C142 1.428 . S
C148 N147 1.351 . S
C148 C149 1.434 . S
C149 C140 1.429 . S
C149 N146 1.350 . S
C149 C148 1.434 . S
C150 C151 1.369 . S
C150 C152 1.419 . S
C150 H154 0.930 . S
C151 C150 1.369 . S
C151 C160 1.429 . S
C152 C150 1.419 . S
C152 C153 1.363 . S
C152 H155 0.929 . S
C153 C152 1.363 . S
C153 C159 1.428 . S
H154 C150 0.930 . S
H155 C152 0.929 . S
S156 N157 1.613 . S
S156 N158 1.610 . S
N157 S156 1.613 . S
N157 C160 1.350 . S
N158 S156 1.610 . S
N158 C159 1.351 . S
C159 C153 1.428 . S
C159 N158 1.351 . S
C159 C160 1.434 . S
C160 C151 1.429 . S
C160 N157 1.350 . S
C160 C159 1.434 . S
C161 C162 1.369 . S
C161 C163 1.419 1_554 S
C161 H165 0.930 . S
C162 C161 1.369 . S
C162 C171 1.429 1_554 S
C163 C161 1.419 1_556 S
C163 C164 1.363 . S
C163 H166 0.929 1_556 S
C164 C163 1.363 . S
C164 C170 1.428 . S
H165 C161 0.930 . S
H166 C163 0.929 1_554 S
S167 N168 1.613 . S
S167 N169 1.610 . S
N168 S167 1.613 . S
N168 C171 1.350 . S
N169 S167 1.610 . S
N169 C170 1.351 . S
C170 C164 1.428 . S
C170 N169 1.351 . S
C170 C171 1.434 . S
C171 C162 1.429 1_556 S
C171 N168 1.350 . S
C171 C170 1.434 . S
C172 C173 1.369 1_455 S
C172 C174 1.419 . S
C172 H176 0.930 . S
C173 C172 1.369 1_655 S
C173 C182 1.429 . S
C174 C172 1.419 . S
C174 C175 1.363 . S
C174 H177 0.929 . S
C175 C174 1.363 . S
C175 C181 1.428 1_455 S
H176 C172 0.930 . S
H177 C174 0.929 . S
S178 N179 1.613 . S
S178 N180 1.610 . S
N179 S178 1.613 . S
N179 C182 1.350 . S
N180 S178 1.610 . S
N180 C181 1.351 . S
C181 C175 1.428 1_655 S
C181 N180 1.351 . S
C181 C182 1.434 . S
C182 C173 1.429 . S
C182 N179 1.350 . S
C182 C181 1.434 . S
C183 C184 1.369 . S
C183 C185 1.419 . S
C183 H187 0.930 . S
C184 C183 1.369 . S
C184 C193 1.429 . S
C185 C183 1.419 . S
C185 C186 1.363 . S
C185 H188 0.929 . S
C186 C185 1.363 . S
C186 C192 1.428 . S
H187 C183 0.930 . S
H188 C185 0.929 . S
S189 N190 1.613 . S
S189 N191 1.610 . S
N190 S189 1.613 . S
N190 C193 1.350 . S
N191 S189 1.610 . S
N191 C192 1.351 . S
C192 C186 1.428 . S
C192 N191 1.351 . S
C192 C193 1.434 . S
C193 C184 1.429 . S
C193 N190 1.350 . S
C193 C192 1.434 . S
C194 C195 1.369 1_556 S
C194 C196 1.419 . S
C194 H198 0.930 . S
C195 C194 1.369 1_554 S
C195 C204 1.429 . S
C196 C194 1.419 . S
C196 C197 1.363 . S
C196 H199 0.929 . S
C197 C196 1.363 . S
C197 C203 1.428 . S
H198 C194 0.930 . S
H199 C196 0.929 . S
S200 N201 1.613 . S
S200 N202 1.610 1_554 S
N201 S200 1.613 . S
N201 C204 1.350 . S
N202 S200 1.610 1_556 S
N202 C203 1.351 . S
C203 C197 1.428 . S
C203 N202 1.351 . S
C203 C204 1.434 1_556 S
C204 C195 1.429 . S
C204 N201 1.350 . S
C204 C203 1.434 1_554 S
C205 C206 1.369 1_655 S
C205 C207 1.419 . S
C205 H209 0.930 . S
C206 C205 1.369 1_455 S
C206 C215 1.429 . S
C207 C205 1.419 . S
C207 C208 1.363 1_655 S
C207 H210 0.929 . S
C208 C207 1.363 1_455 S
C208 C214 1.428 . S
H209 C205 0.930 . S
H210 C207 0.929 . S
S211 N212 1.613 . S
S211 N213 1.610 . S
N212 S211 1.613 . S
N212 C215 1.350 . S
N213 S211 1.610 . S
N213 C214 1.351 . S
C214 C208 1.428 . S
C214 N213 1.351 . S
C214 C215 1.434 . S
C215 C206 1.429 . S
C215 N212 1.350 . S
C215 C214 1.434 . S
C87 C43 1.449 . S
C85 C11 1.436 . S
C96 C26 1.530 . S
C98 C69 1.554 . S
C107 C40 1.439 . S
C109 C71 1.453 . S
C118 C5 1.283 . S
C120 C55 1.447 . S
C131 C57 1.546 . S
C129 C18 1.533 . S
C140 C32 1.425 . S
C142 C83 1.441 . S
C153 C56 1.353 . S
C151 C39 1.345 . S
C162 C4 1.434 . S
C164 C82 1.455 . S
C175 C42 1.460 . S
C173 C19 1.301 . S
C186 C68 1.391 . S
C184 C33 1.238 1_545 S
C197 C70 1.468 . S
C195 C12 1.455 . S
C206 C25 1.448 . S
C208 C54 1.463 . S
