# Generated by pormake.
# Topology bcu-b, (8,8)-cn, num edge types: 1
# Building blocks:
#     Node 0, Type 0, BuildingBlock: TAGTUT_clean_sbu_1, # of connection points: 8
#     Node 1, Type 1, BuildingBlock: GIZVER_clean_sbu_0, # of connection points: 8
#     Edge 2, Type (0, 1), BuildingBlock: KIFKEQ_clean_linker_1, # of connection points: 2
#     Edge 3, Type (0, 1), BuildingBlock: KIFKEQ_clean_linker_1, # of connection points: 2
#     Edge 4, Type (0, 1), BuildingBlock: KIFKEQ_clean_linker_1, # of connection points: 2
#     Edge 5, Type (0, 1), BuildingBlock: KIFKEQ_clean_linker_1, # of connection points: 2
#     Edge 6, Type (0, 1), BuildingBlock: KIFKEQ_clean_linker_1, # of connection points: 2
#     Edge 7, Type (0, 1), BuildingBlock: KIFKEQ_clean_linker_1, # of connection points: 2
#     Edge 8, Type (0, 1), BuildingBlock: KIFKEQ_clean_linker_1, # of connection points: 2
#     Edge 9, Type (0, 1), BuildingBlock: KIFKEQ_clean_linker_1, # of connection points: 2
# Relax obj value: 0.105
# Max RMSD: 0.175
# Mean RMSD: 0.169
data_MOF--net-bcu-b--node1-TAGTUT_clean_sbu_1--node2-GIZVER_clean_sbu_0--edge1-KIFKEQ_clean_linker_1
_symmetry_space_group_name_H-M    P1
_symmetry_Int_Tables_number       1
_symmetry_cell_setting            triclinic
loop_
_symmetry_equiv_pos_as_xyz
'x, y, z'
_cell_length_a     21.225759
_cell_length_b     22.577725
_cell_length_c     17.845637
_cell_angle_alpha  88.01844
_cell_angle_beta   94.271293
_cell_angle_gamma 108.60427
loop_
_atom_site_label
_atom_site_type_symbol
_atom_site_fract_x
_atom_site_fract_y
_atom_site_fract_z
_atom_type_partial_charge
C0 C 0.88651 0.15805 0.09453 0.0
C1 C 0.92707 0.14558 0.86436 0.0
C2 C 0.88097 0.9008 0.92365 0.0
Mg3 Mg 1.00928 0.15238 0.01442 0.0
O4 O 0.96891 0.0672 0.0362 0.0
Mg5 Mg 0.87501 0.02984 0.9934 0.0
Mg6 Mg 1.00992 0.00757 0.99682 0.0
O7 O 0.05083 0.9478 0.9575 0.0
Mg8 Mg 0.01053 0.86258 0.98002 0.0
Mg9 Mg 0.14466 0.9853 0.00041 0.0
C10 C 0.13883 0.11419 0.07012 0.0
C11 C 0.11635 0.0832 0.87537 0.0
O12 O 0.85216 0.10498 0.06542 0.0
O13 O 0.9484 0.1841 0.08377 0.0
O14 O 0.88634 0.09666 0.89201 0.0
O15 O 0.98275 0.17368 0.89936 0.0
O16 O 0.11079 0.1561 0.05258 0.0
O17 O 0.10774 0.05527 0.06429 0.0
C18 C 0.90366 0.93208 0.11842 0.0
O19 O 0.96081 0.93935 0.093 0.0
O20 O 0.86567 0.96276 0.09152 0.0
O21 O 0.16718 0.9105 0.92817 0.0
O22 O 0.07176 0.83006 0.91178 0.0
O23 O 0.13356 0.91846 0.10193 0.0
C24 C 0.13335 0.85687 0.90018 0.0
O25 O 0.03686 0.84183 0.09538 0.0
O26 O 0.909 0.85889 0.94137 0.0
C27 C 0.09277 0.86979 0.13 0.0
O28 O 0.91209 0.95972 0.92956 0.0
O29 O 0.05911 0.07594 0.90059 0.0
O30 O 0.15418 0.05244 0.90242 0.0
Co31 Co 0.58852 0.40083 0.46972 0.0
Co32 Co 0.59915 0.44365 0.60252 0.0
Co33 Co 0.51003 0.50719 0.49634 0.0
O34 O 0.59068 0.47931 0.50978 0.0
H35 H 0.63123 0.51258 0.50034 0.0
O36 O 0.42934 0.53525 0.48302 0.0
Co37 Co 0.43298 0.61318 0.52585 0.0
Co38 Co 0.42123 0.57374 0.39264 0.0
H39 H 0.38862 0.502 0.49192 0.0
O40 O 0.68229 0.44965 0.64352 0.0
O41 O 0.61338 0.37188 0.57145 0.0
O42 O 0.52281 0.41964 0.66123 0.0
O43 O 0.45702 0.44849 0.5745 0.0
O44 O 0.55153 0.57222 0.57329 0.0
O45 O 0.43169 0.68126 0.56868 0.0
O46 O 0.34732 0.59097 0.55258 0.0
O47 O 0.52386 0.64589 0.50857 0.0
O48 O 0.56291 0.56584 0.41793 0.0
O49 O 0.4976 0.59853 0.33418 0.0
O50 O 0.40599 0.64441 0.42621 0.0
O51 O 0.33818 0.56735 0.35209 0.0
C52 C 0.65315 0.3657 0.42159 0.0
C53 C 0.46153 0.38422 0.43173 0.0
C54 C 0.4656 0.4205 0.63611 0.0
C55 C 0.66928 0.39558 0.61207 0.0
C56 C 0.37124 0.64722 0.58046 0.0
C57 C 0.55947 0.63 0.56086 0.0
C58 C 0.55446 0.59563 0.35768 0.0
C59 C 0.35035 0.62073 0.38498 0.0
O60 O 0.59208 0.33168 0.43068 0.0
O61 O 0.67481 0.42318 0.44584 0.0
O62 O 0.46883 0.44197 0.41962 0.0
O63 O 0.49693 0.36818 0.48424 0.0
H64 H 0.24308 0.21158 0.02872 0.0
H65 H 0.18252 0.0688 0.19962 0.0
H66 H 0.33495 0.2716 0.11342 0.0
H67 H 0.2726 0.13004 0.28604 0.0
H68 H 0.4504 0.25978 0.42473 0.0
H69 H 0.38847 0.18528 0.32803 0.0
H70 H 0.32 0.32925 0.21801 0.0
H71 H 0.38243 0.40338 0.31271 0.0
C72 C 0.25106 0.19212 0.08364 0.0
C73 C 0.20562 0.13624 0.1083 0.0
C74 C 0.30302 0.22674 0.13247 0.0
C75 C 0.30941 0.20667 0.20731 0.0
C76 C 0.2688 0.14698 0.22891 0.0
C77 C 0.21735 0.11171 0.17936 0.0
C78 C 0.42218 0.27542 0.3797 0.0
C79 C 0.42156 0.33762 0.37622 0.0
C80 C 0.38687 0.23277 0.32432 0.0
C81 C 0.35039 0.25159 0.26451 0.0
C82 C 0.34926 0.31358 0.26192 0.0
C83 C 0.38444 0.35602 0.31689 0.0
H84 H 0.75418 0.12721 0.12094 0.0
H85 H 0.94669 0.26167 0.18018 0.0
H86 H 0.70274 0.17952 0.20329 0.0
H87 H 0.89547 0.31275 0.26408 0.0
H88 H 0.76427 0.42514 0.34522 0.0
H89 H 0.82288 0.37598 0.26642 0.0
H90 H 0.6967 0.19368 0.33428 0.0
H91 H 0.63754 0.24254 0.41047 0.0
C92 C 0.7856 0.16769 0.15172 0.0
C93 C 0.85456 0.19005 0.14384 0.0
C94 C 0.75619 0.19753 0.1994 0.0
C95 C 0.79507 0.25017 0.24085 0.0
C96 C 0.86394 0.27281 0.23249 0.0
C97 C 0.89331 0.2432 0.18452 0.0
C98 C 0.74991 0.37462 0.34389 0.0
C99 C 0.6959 0.33772 0.38315 0.0
C100 C 0.78334 0.34638 0.2988 0.0
C101 C 0.7636 0.28079 0.29283 0.0
C102 C 0.71194 0.24423 0.33566 0.0
C103 C 0.67836 0.27231 0.37989 0.0
H104 H 0.91038 0.81269 0.12503 0.0
H105 H 0.82662 0.93717 0.23009 0.0
H106 H 0.83272 0.72313 0.18758 0.0
H107 H 0.74886 0.84814 0.29095 0.0
H108 H 0.55806 0.6801 0.24357 0.0
H109 H 0.65565 0.75814 0.19699 0.0
H110 H 0.7842 0.68156 0.3396 0.0
H111 H 0.68605 0.60302 0.38807 0.0
C112 C 0.8778 0.82122 0.16421 0.0
C113 C 0.87465 0.88187 0.17297 0.0
C114 C 0.83294 0.76996 0.19927 0.0
C115 C 0.78448 0.77905 0.24298 0.0
C116 C 0.78551 0.84009 0.25694 0.0
C117 C 0.83021 0.89097 0.22246 0.0
C118 C 0.60686 0.67885 0.26445 0.0
C119 C 0.61395 0.63549 0.32027 0.0
C120 C 0.66273 0.7238 0.23787 0.0
C121 C 0.72708 0.72609 0.26557 0.0
C122 C 0.7349 0.68064 0.31772 0.0
C123 C 0.67871 0.63584 0.34527 0.0
H124 H 0.03105 0.75588 0.19574 0.0
H125 H 0.21109 0.91434 0.21331 0.0
H126 H 0.08459 0.69588 0.27945 0.0
H127 H 0.26518 0.85391 0.2937 0.0
H128 H 0.35645 0.7352 0.44011 0.0
H129 H 0.28303 0.797 0.40282 0.0
H130 H 0.16549 0.6492 0.25439 0.0
H131 H 0.23664 0.5874 0.29321 0.0
C132 C 0.08145 0.77846 0.2187 0.0
C133 C 0.1172 0.83947 0.19613 0.0
C134 C 0.11248 0.74382 0.26619 0.0
C135 C 0.18002 0.76928 0.2917 0.0
C136 C 0.21328 0.83243 0.27537 0.0
C137 C 0.18216 0.86715 0.22855 0.0
C138 C 0.31435 0.71572 0.40031 0.0
C139 C 0.30319 0.65673 0.3688 0.0
C140 C 0.27227 0.75117 0.37878 0.0
C141 C 0.21828 0.72845 0.32512 0.0
C142 C 0.20563 0.66817 0.29665 0.0
C143 C 0.24724 0.63281 0.31837 0.0
H144 H 0.24882 0.90796 0.8299 0.0
H145 H 0.09073 0.73399 0.85927 0.0
H146 H 0.30142 0.85609 0.74872 0.0
H147 H 0.14483 0.68135 0.78039 0.0
H148 H 0.23466 0.61858 0.58095 0.0
H149 H 0.17409 0.6695 0.65534 0.0
H150 H 0.36132 0.78464 0.7604 0.0
H151 H 0.42072 0.73612 0.68505 0.0
C152 C 0.22565 0.85848 0.81966 0.0
C153 C 0.16591 0.82509 0.85159 0.0
C154 C 0.25588 0.82856 0.77322 0.0
C155 C 0.22775 0.76423 0.75848 0.0
C156 C 0.16753 0.73099 0.78975 0.0
C157 C 0.13681 0.76114 0.83551 0.0
C158 C 0.26239 0.6547 0.62016 0.0
C159 C 0.33227 0.6738 0.62671 0.0
C160 C 0.22791 0.68381 0.66286 0.0
C161 C 0.26288 0.73191 0.71322 0.0
C162 C 0.33268 0.74929 0.72074 0.0
C163 C 0.36681 0.72103 0.67776 0.0
H164 H 0.19469 0.07831 0.76497 0.0
H165 H 0.10899 0.20247 0.86759 0.0
H166 H 0.27266 0.16737 0.70446 0.0
H167 H 0.18688 0.29209 0.80529 0.0
H168 H 0.46242 0.33679 0.75105 0.0
H169 H 0.36508 0.25848 0.79788 0.0
H170 H 0.23592 0.33293 0.65335 0.0
H171 H 0.3338 0.41168 0.60466 0.0
C172 C 0.19076 0.12444 0.77217 0.0
C173 C 0.14567 0.13343 0.82089 0.0
C174 C 0.2356 0.17535 0.73789 0.0
C175 C 0.23612 0.23635 0.7512 0.0
C176 C 0.1871 0.2453 0.79413 0.0
C177 C 0.1421 0.19401 0.82903 0.0
C178 C 0.41352 0.33752 0.72983 0.0
C179 C 0.40619 0.38035 0.67343 0.0
C180 C 0.35779 0.29241 0.75654 0.0
C181 C 0.29335 0.28946 0.72844 0.0
C182 C 0.28527 0.33437 0.67561 0.0
C183 C 0.34131 0.37928 0.6479 0.0
H184 H 0.98873 0.25968 0.79901 0.0
H185 H 0.80879 0.10113 0.7811 0.0
H186 H 0.93494 0.31993 0.71601 0.0
H187 H 0.75439 0.16179 0.70175 0.0
H188 H 0.66153 0.28029 0.55847 0.0
H189 H 0.73521 0.21863 0.59432 0.0
H190 H 0.85478 0.36693 0.74103 0.0
H191 H 0.78362 0.42891 0.70284 0.0
C192 C 0.93829 0.23716 0.77614 0.0
C193 C 0.90263 0.17605 0.79842 0.0
C194 C 0.90709 0.27194 0.72911 0.0
C195 C 0.83947 0.24654 0.70388 0.0
C196 C 0.80633 0.18328 0.71985 0.0
C197 C 0.83764 0.14841 0.7661 0.0
C198 C 0.70423 0.29999 0.5974 0.0
C199 C 0.71609 0.35928 0.62838 0.0
C200 C 0.74641 0.26456 0.61824 0.0
C201 C 0.80104 0.28742 0.67106 0.0
C202 C 0.81418 0.34785 0.69932 0.0
C203 C 0.77257 0.38331 0.67803 0.0
H204 H 0.77648 0.80344 0.96461 0.0
H205 H 0.83795 0.94584 0.79348 0.0
H206 H 0.68517 0.74313 0.87946 0.0
H207 H 0.74843 0.88432 0.70663 0.0
H208 H 0.57121 0.75463 0.56721 0.0
H209 H 0.63288 0.8292 0.66392 0.0
H210 H 0.70002 0.685 0.77542 0.0
H211 H 0.63773 0.61076 0.68071 0.0
C212 C 0.76881 0.82276 0.90952 0.0
C213 C 0.81434 0.87866 0.885 0.0
C214 C 0.71718 0.78796 0.86041 0.0
C215 C 0.71119 0.80784 0.78543 0.0
C216 C 0.7519 0.86751 0.76386 0.0
C217 C 0.80303 0.90295 0.81367 0.0
C218 C 0.59906 0.73894 0.61258 0.0
C219 C 0.59932 0.67663 0.61646 0.0
C220 C 0.63425 0.78165 0.66797 0.0
C221 C 0.67033 0.76282 0.72818 0.0
C222 C 0.6711 0.70071 0.73119 0.0
C223 C 0.63601 0.6582 0.67621 0.0
loop_
_geom_bond_atom_site_label_1
_geom_bond_atom_site_label_2
_geom_bond_distance
_geom_bond_site_symmetry_2
_ccdc_geom_bond_type
C0 O12 1.241 . S
C0 O13 1.280 . S
C1 O14 1.277 . S
C1 O15 1.245 . S
C2 O26 1.247 . S
C2 O28 1.289 . S
Mg3 O4 1.926 . S
Mg3 O13 1.984 . S
Mg3 O15 1.988 1_554 S
Mg3 O16 2.061 1_655 S
O4 Mg3 1.926 . S
O4 Mg5 1.986 1_554 S
O4 Mg6 1.917 1_655 S
Mg5 O4 1.986 1_556 S
Mg5 O12 2.042 1_556 S
Mg5 O14 2.040 . S
Mg5 O20 2.039 1_546 S
Mg5 O28 2.238 1_545 S
Mg6 O4 1.917 1_455 S
Mg6 O7 1.917 1_544 S
Mg6 O17 2.107 . S
Mg6 O19 2.079 1_445 S
Mg6 O28 2.106 1_444 S
Mg6 O29 2.079 1_554 S
O7 Mg6 1.917 1_566 S
O7 Mg8 1.926 . S
O7 Mg9 1.986 1_566 S
Mg8 O7 1.926 . S
Mg8 O22 1.984 . S
Mg8 O25 1.988 1_556 S
Mg8 O26 2.061 1_455 S
Mg9 O7 1.986 1_544 S
Mg9 O17 2.238 . S
Mg9 O21 2.042 1_544 S
Mg9 O23 2.040 1_545 S
Mg9 O30 2.039 1_554 S
C10 O16 1.247 . S
C10 O17 1.289 . S
C11 O29 1.245 . S
C11 O30 1.274 . S
O12 C0 1.241 . S
O12 Mg5 2.042 1_554 S
O13 C0 1.280 . S
O13 Mg3 1.984 . S
O14 C1 1.277 . S
O14 Mg5 2.040 . S
O15 C1 1.245 . S
O15 Mg3 1.988 1_556 S
O16 Mg3 2.061 1_455 S
O16 C10 1.247 . S
O17 Mg6 2.107 . S
O17 Mg9 2.238 . S
O17 C10 1.289 . S
C18 O19 1.245 . S
C18 O20 1.274 . S
O19 Mg6 2.079 1_665 S
O19 C18 1.245 . S
O20 Mg5 2.039 1_564 S
O20 C18 1.274 . S
O21 Mg9 2.042 1_566 S
O21 C24 1.241 . S
O22 Mg8 1.984 . S
O22 C24 1.280 . S
O23 Mg9 2.040 1_565 S
O23 C27 1.277 . S
C24 O21 1.241 . S
C24 O22 1.280 . S
O25 Mg8 1.988 1_554 S
O25 C27 1.245 . S
O26 C2 1.247 . S
O26 Mg8 2.061 1_655 S
C27 O23 1.277 . S
C27 O25 1.245 . S
O28 C2 1.289 . S
O28 Mg5 2.238 1_565 S
O28 Mg6 2.106 1_666 S
O29 Mg6 2.079 1_556 S
O29 C11 1.245 . S
O30 Mg9 2.039 1_556 S
O30 C11 1.274 . S
Co31 O34 2.042 . S
Co31 O41 2.264 . S
Co31 O60 2.286 . S
Co31 O61 2.069 . S
Co31 O63 2.015 . S
Co32 O34 2.122 . S
Co32 O40 2.073 . S
Co32 O41 2.327 . S
Co32 O42 1.976 . S
Co33 O34 2.087 . S
Co33 O36 2.087 . S
Co33 O43 2.111 . S
Co33 O44 2.143 . S
Co33 O48 2.111 . S
Co33 O62 2.143 . S
O34 Co31 2.042 . S
O34 Co32 2.122 . S
O34 Co33 2.087 . S
O34 H35 0.980 . S
H35 O34 0.980 . S
O36 Co33 2.087 . S
O36 Co37 2.042 . S
O36 Co38 2.122 . S
O36 H39 0.980 . S
Co37 O36 2.042 . S
Co37 O45 2.286 . S
Co37 O46 2.069 . S
Co37 O47 2.015 . S
Co37 O50 2.264 . S
Co38 O36 2.122 . S
Co38 O49 1.976 . S
Co38 O50 2.327 . S
Co38 O51 2.073 . S
H39 O36 0.980 . S
O40 Co32 2.073 . S
O40 C55 1.245 . S
O41 Co31 2.264 . S
O41 Co32 2.327 . S
O41 C55 1.257 . S
O42 Co32 1.976 . S
O42 C54 1.251 . S
O43 Co33 2.111 . S
O43 C54 1.274 . S
O44 Co33 2.143 . S
O44 C57 1.246 . S
O45 Co37 2.286 . S
O45 C56 1.259 . S
O46 Co37 2.069 . S
O46 C56 1.289 . S
O47 Co37 2.015 . S
O47 C57 1.257 . S
O48 Co33 2.111 . S
O48 C58 1.274 . S
O49 Co38 1.976 . S
O49 C58 1.251 . S
O50 Co37 2.264 . S
O50 Co38 2.327 . S
O50 C59 1.257 . S
O51 Co38 2.073 . S
O51 C59 1.245 . S
C52 O60 1.259 . S
C52 O61 1.289 . S
C53 O62 1.246 . S
C53 O63 1.257 . S
C54 O42 1.251 . S
C54 O43 1.274 . S
C55 O40 1.245 . S
C55 O41 1.257 . S
C56 O45 1.259 . S
C56 O46 1.289 . S
C57 O44 1.246 . S
C57 O47 1.257 . S
C58 O48 1.274 . S
C58 O49 1.251 . S
C59 O50 1.257 . S
C59 O51 1.245 . S
O60 Co31 2.286 . S
O60 C52 1.259 . S
O61 Co31 2.069 . S
O61 C52 1.289 . S
O62 Co33 2.143 . S
O62 C53 1.246 . S
O63 Co31 2.015 . S
O63 C53 1.257 . S
H64 C72 0.950 . S
H65 C77 0.950 . S
H66 C74 0.950 . S
H67 C76 0.950 . S
H68 C78 0.950 . S
H69 C80 0.950 . S
H70 C82 0.950 . S
H71 C83 0.950 . S
C72 H64 0.950 . S
C72 C73 1.386 . S
C72 C74 1.391 . S
C73 C72 1.386 . S
C73 C77 1.393 . S
C74 H66 0.950 . S
C74 C72 1.391 . S
C74 C75 1.400 . S
C75 C74 1.400 . S
C75 C76 1.398 . S
C75 C81 1.491 . S
C76 H67 0.950 . S
C76 C75 1.398 . S
C76 C77 1.391 . S
C77 H65 0.950 . S
C77 C73 1.393 . S
C77 C76 1.391 . S
C78 H68 0.950 . S
C78 C79 1.386 . S
C78 C80 1.391 . S
C79 C78 1.386 . S
C79 C83 1.393 . S
C80 H69 0.950 . S
C80 C78 1.391 . S
C80 C81 1.400 . S
C81 C75 1.491 . S
C81 C80 1.400 . S
C81 C82 1.398 . S
C82 H70 0.950 . S
C82 C81 1.398 . S
C82 C83 1.391 . S
C83 H71 0.950 . S
C83 C79 1.393 . S
C83 C82 1.391 . S
H84 C92 0.950 . S
H85 C97 0.950 . S
H86 C94 0.950 . S
H87 C96 0.950 . S
H88 C98 0.950 . S
H89 C100 0.950 . S
H90 C102 0.950 . S
H91 C103 0.950 . S
C92 H84 0.950 . S
C92 C93 1.386 . S
C92 C94 1.391 . S
C93 C92 1.386 . S
C93 C97 1.393 . S
C94 H86 0.950 . S
C94 C92 1.391 . S
C94 C95 1.400 . S
C95 C94 1.400 . S
C95 C96 1.398 . S
C95 C101 1.491 . S
C96 H87 0.950 . S
C96 C95 1.398 . S
C96 C97 1.391 . S
C97 H85 0.950 . S
C97 C93 1.393 . S
C97 C96 1.391 . S
C98 H88 0.950 . S
C98 C99 1.386 . S
C98 C100 1.391 . S
C99 C98 1.386 . S
C99 C103 1.393 . S
C100 H89 0.950 . S
C100 C98 1.391 . S
C100 C101 1.400 . S
C101 C95 1.491 . S
C101 C100 1.400 . S
C101 C102 1.398 . S
C102 H90 0.950 . S
C102 C101 1.398 . S
C102 C103 1.391 . S
C103 H91 0.950 . S
C103 C99 1.393 . S
C103 C102 1.391 . S
H104 C112 0.950 . S
H105 C117 0.950 . S
H106 C114 0.950 . S
H107 C116 0.950 . S
H108 C118 0.950 . S
H109 C120 0.950 . S
H110 C122 0.950 . S
H111 C123 0.950 . S
C112 H104 0.950 . S
C112 C113 1.386 . S
C112 C114 1.391 . S
C113 C112 1.386 . S
C113 C117 1.393 . S
C114 H106 0.950 . S
C114 C112 1.391 . S
C114 C115 1.400 . S
C115 C114 1.400 . S
C115 C116 1.398 . S
C115 C121 1.491 . S
C116 H107 0.950 . S
C116 C115 1.398 . S
C116 C117 1.391 . S
C117 H105 0.950 . S
C117 C113 1.393 . S
C117 C116 1.391 . S
C118 H108 0.950 . S
C118 C119 1.386 . S
C118 C120 1.391 . S
C119 C118 1.386 . S
C119 C123 1.393 . S
C120 H109 0.950 . S
C120 C118 1.391 . S
C120 C121 1.400 . S
C121 C115 1.491 . S
C121 C120 1.400 . S
C121 C122 1.398 . S
C122 H110 0.950 . S
C122 C121 1.398 . S
C122 C123 1.391 . S
C123 H111 0.950 . S
C123 C119 1.393 . S
C123 C122 1.391 . S
H124 C132 0.950 . S
H125 C137 0.950 . S
H126 C134 0.950 . S
H127 C136 0.950 . S
H128 C138 0.950 . S
H129 C140 0.950 . S
H130 C142 0.950 . S
H131 C143 0.950 . S
C132 H124 0.950 . S
C132 C133 1.386 . S
C132 C134 1.391 . S
C133 C132 1.386 . S
C133 C137 1.393 . S
C134 H126 0.950 . S
C134 C132 1.391 . S
C134 C135 1.400 . S
C135 C134 1.400 . S
C135 C136 1.398 . S
C135 C141 1.491 . S
C136 H127 0.950 . S
C136 C135 1.398 . S
C136 C137 1.391 . S
C137 H125 0.950 . S
C137 C133 1.393 . S
C137 C136 1.391 . S
C138 H128 0.950 . S
C138 C139 1.386 . S
C138 C140 1.391 . S
C139 C138 1.386 . S
C139 C143 1.393 . S
C140 H129 0.950 . S
C140 C138 1.391 . S
C140 C141 1.400 . S
C141 C135 1.491 . S
C141 C140 1.400 . S
C141 C142 1.398 . S
C142 H130 0.950 . S
C142 C141 1.398 . S
C142 C143 1.391 . S
C143 H131 0.950 . S
C143 C139 1.393 . S
C143 C142 1.391 . S
H144 C152 0.950 . S
H145 C157 0.950 . S
H146 C154 0.950 . S
H147 C156 0.950 . S
H148 C158 0.950 . S
H149 C160 0.950 . S
H150 C162 0.950 . S
H151 C163 0.950 . S
C152 H144 0.950 . S
C152 C153 1.386 . S
C152 C154 1.391 . S
C153 C152 1.386 . S
C153 C157 1.393 . S
C154 H146 0.950 . S
C154 C152 1.391 . S
C154 C155 1.400 . S
C155 C154 1.400 . S
C155 C156 1.398 . S
C155 C161 1.491 . S
C156 H147 0.950 . S
C156 C155 1.398 . S
C156 C157 1.391 . S
C157 H145 0.950 . S
C157 C153 1.393 . S
C157 C156 1.391 . S
C158 H148 0.950 . S
C158 C159 1.386 . S
C158 C160 1.391 . S
C159 C158 1.386 . S
C159 C163 1.393 . S
C160 H149 0.950 . S
C160 C158 1.391 . S
C160 C161 1.400 . S
C161 C155 1.491 . S
C161 C160 1.400 . S
C161 C162 1.398 . S
C162 H150 0.950 . S
C162 C161 1.398 . S
C162 C163 1.391 . S
C163 H151 0.950 . S
C163 C159 1.393 . S
C163 C162 1.391 . S
H164 C172 0.950 . S
H165 C177 0.950 . S
H166 C174 0.950 . S
H167 C176 0.950 . S
H168 C178 0.950 . S
H169 C180 0.950 . S
H170 C182 0.950 . S
H171 C183 0.950 . S
C172 H164 0.950 . S
C172 C173 1.386 . S
C172 C174 1.391 . S
C173 C172 1.386 . S
C173 C177 1.393 . S
C174 H166 0.950 . S
C174 C172 1.391 . S
C174 C175 1.400 . S
C175 C174 1.400 . S
C175 C176 1.398 . S
C175 C181 1.491 . S
C176 H167 0.950 . S
C176 C175 1.398 . S
C176 C177 1.391 . S
C177 H165 0.950 . S
C177 C173 1.393 . S
C177 C176 1.391 . S
C178 H168 0.950 . S
C178 C179 1.386 . S
C178 C180 1.391 . S
C179 C178 1.386 . S
C179 C183 1.393 . S
C180 H169 0.950 . S
C180 C178 1.391 . S
C180 C181 1.400 . S
C181 C175 1.491 . S
C181 C180 1.400 . S
C181 C182 1.398 . S
C182 H170 0.950 . S
C182 C181 1.398 . S
C182 C183 1.391 . S
C183 H171 0.950 . S
C183 C179 1.393 . S
C183 C182 1.391 . S
H184 C192 0.950 . S
H185 C197 0.950 . S
H186 C194 0.950 . S
H187 C196 0.950 . S
H188 C198 0.950 . S
H189 C200 0.950 . S
H190 C202 0.950 . S
H191 C203 0.950 . S
C192 H184 0.950 . S
C192 C193 1.386 . S
C192 C194 1.391 . S
C193 C192 1.386 . S
C193 C197 1.393 . S
C194 H186 0.950 . S
C194 C192 1.391 . S
C194 C195 1.400 . S
C195 C194 1.400 . S
C195 C196 1.398 . S
C195 C201 1.491 . S
C196 H187 0.950 . S
C196 C195 1.398 . S
C196 C197 1.391 . S
C197 H185 0.950 . S
C197 C193 1.393 . S
C197 C196 1.391 . S
C198 H188 0.950 . S
C198 C199 1.386 . S
C198 C200 1.391 . S
C199 C198 1.386 . S
C199 C203 1.393 . S
C200 H189 0.950 . S
C200 C198 1.391 . S
C200 C201 1.400 . S
C201 C195 1.491 . S
C201 C200 1.400 . S
C201 C202 1.398 . S
C202 H190 0.950 . S
C202 C201 1.398 . S
C202 C203 1.391 . S
C203 H191 0.950 . S
C203 C199 1.393 . S
C203 C202 1.391 . S
H204 C212 0.950 . S
H205 C217 0.950 . S
H206 C214 0.950 . S
H207 C216 0.950 . S
H208 C218 0.950 . S
H209 C220 0.950 . S
H210 C222 0.950 . S
H211 C223 0.950 . S
C212 H204 0.950 . S
C212 C213 1.386 . S
C212 C214 1.391 . S
C213 C212 1.386 . S
C213 C217 1.393 . S
C214 H206 0.950 . S
C214 C212 1.391 . S
C214 C215 1.400 . S
C215 C214 1.400 . S
C215 C216 1.398 . S
C215 C221 1.491 . S
C216 H207 0.950 . S
C216 C215 1.398 . S
C216 C217 1.391 . S
C217 H205 0.950 . S
C217 C213 1.393 . S
C217 C216 1.391 . S
C218 H208 0.950 . S
C218 C219 1.386 . S
C218 C220 1.391 . S
C219 C218 1.386 . S
C219 C223 1.393 . S
C220 H209 0.950 . S
C220 C218 1.391 . S
C220 C221 1.400 . S
C221 C215 1.491 . S
C221 C220 1.400 . S
C221 C222 1.398 . S
C222 H210 0.950 . S
C222 C221 1.398 . S
C222 C223 1.391 . S
C223 H211 0.950 . S
C223 C219 1.393 . S
C223 C222 1.391 . S
C73 C10 1.136 . S
C79 C53 1.158 . S
C93 C0 1.655 . S
C99 C52 1.690 . S
C113 C18 1.501 . S
C119 C58 1.452 . S
C133 C27 1.583 . S
C139 C59 1.577 . S
C153 C24 1.638 . S
C159 C56 1.688 . S
C179 C54 1.469 . S
C173 C11 1.485 . S
C193 C1 1.603 . S
C199 C55 1.553 . S
C219 C57 1.165 . S
C213 C2 1.169 . S
