# Generated by pormake.
# Topology bcu-b, (8,8)-cn, num edge types: 1
# Building blocks:
#     Node 0, Type 0, BuildingBlock: TAGTUT_clean_sbu_1, # of connection points: 8
#     Node 1, Type 1, BuildingBlock: TAGTUT_clean_sbu_3, # of connection points: 8
#     Edge 2, Type (0, 1), BuildingBlock: KIFKEQ_clean_linker_1, # of connection points: 2
#     Edge 3, Type (0, 1), BuildingBlock: KIFKEQ_clean_linker_1, # of connection points: 2
#     Edge 4, Type (0, 1), BuildingBlock: KIFKEQ_clean_linker_1, # of connection points: 2
#     Edge 5, Type (0, 1), BuildingBlock: KIFKEQ_clean_linker_1, # of connection points: 2
#     Edge 6, Type (0, 1), BuildingBlock: KIFKEQ_clean_linker_1, # of connection points: 2
#     Edge 7, Type (0, 1), BuildingBlock: KIFKEQ_clean_linker_1, # of connection points: 2
#     Edge 8, Type (0, 1), BuildingBlock: KIFKEQ_clean_linker_1, # of connection points: 2
#     Edge 9, Type (0, 1), BuildingBlock: KIFKEQ_clean_linker_1, # of connection points: 2
# Relax obj value: 0.017
# Max RMSD: 0.085
# Mean RMSD: 0.075
data_MOF--net-bcu-b--node1-TAGTUT_clean_sbu_1--node2-TAGTUT_clean_sbu_3--edge1-KIFKEQ_clean_linker_1
_symmetry_space_group_name_H-M    P1
_symmetry_Int_Tables_number       1
_symmetry_cell_setting            triclinic
loop_
_symmetry_equiv_pos_as_xyz
'x, y, z'
_cell_length_a     19.960482
_cell_length_b     19.184424
_cell_length_c     21.743714
_cell_angle_alpha  91.236479
_cell_angle_beta   91.316579
_cell_angle_gamma 107.89804
loop_
_atom_site_label
_atom_site_type_symbol
_atom_site_fract_x
_atom_site_fract_y
_atom_site_fract_z
_atom_type_partial_charge
C0 C 0.87457 0.18383 0.04257 0.0
C1 C 0.9554 0.1659 0.86192 0.0
C2 C 0.8857 0.87498 0.91571 0.0
Mg3 Mg 0.01814 0.17724 -0.00609 0.0
O4 O 0.97281 0.07666 0.00361 0.0
Mg5 Mg 0.87835 0.03208 0.96197 0.0
Mg6 Mg 0.01742 0.00177 0.97661 0.0
O7 O 0.06164 0.92624 0.95032 0.0
Mg8 Mg 0.01564 0.82966 0.97452 0.0
Mg9 Mg 0.15929 0.97352 -0.01447 0.0
C10 C 0.14862 0.12844 0.04543 0.0
C11 C 0.13438 0.07588 0.87629 0.0
O12 O 0.84425 0.12228 0.01414 0.0
O13 O 0.94163 0.21407 0.04314 0.0
O14 O 0.90799 0.10785 0.8781 0.0
O15 O 1.00646 0.20056 0.89831 0.0
O16 O 0.1212 0.17979 0.03444 0.0
O17 O 0.11613 0.06085 0.03208 0.0
C18 C 0.89551 0.92668 0.07311 0.0
O19 O 0.95932 0.93459 0.05798 0.0
O20 O 0.85689 0.95845 0.04414 0.0
O21 O 0.18594 0.87683 0.93301 0.0
O22 O 0.08476 0.78271 0.92552 0.0
O23 O 0.14075 0.90721 0.07171 0.0
C24 C 0.15045 0.81093 0.91493 0.0
O25 O 0.03744 0.82008 0.07255 0.0
O26 O 0.91088 0.82466 0.93505 0.0
C27 C 0.09596 0.85642 0.09913 0.0
O28 O 0.92099 0.94327 0.9199 0.0
O29 O 0.07223 0.06833 0.89505 0.0
O30 O 0.1751 0.04419 0.9019 0.0
C31 C 0.62425 0.62354 0.57093 0.0
C32 C 0.7136 0.38488 0.55101 0.0
C33 C 0.62859 0.37922 0.36603 0.0
Mg34 Mg 0.48761 0.64845 0.49912 0.0
Mg35 Mg 0.35452 0.50097 0.46589 0.0
O36 O 0.44957 0.55341 0.45132 0.0
Mg37 Mg 0.51737 0.50306 0.48074 0.0
O38 O 0.58705 0.45591 0.5112 0.0
Mg39 Mg 0.67423 0.51949 0.47246 0.0
Mg40 Mg 0.56264 0.355 0.49138 0.0
C41 C 0.40408 0.37973 0.39491 0.0
O42 O 0.43819 0.42939 0.54453 0.0
O43 O 0.40219 0.68418 0.4403 0.0
O44 O 0.45804 0.32067 0.53084 0.0
O45 O 0.40992 0.61719 0.57645 0.0
O46 O 0.31572 0.57789 0.41925 0.0
O47 O 0.32805 0.50909 0.56181 0.0
O48 O 0.60119 0.57377 0.41932 0.0
O49 O 0.57172 0.67709 0.42564 0.0
C50 C 0.61191 0.64106 0.40583 0.0
C51 C 0.34198 0.64748 0.41494 0.0
O52 O 0.46903 0.4145 0.40752 0.0
O53 O 0.73362 0.45096 0.531 0.0
O54 O 0.35307 0.39869 0.41779 0.0
O55 O 0.66684 0.44062 0.38938 0.0
O56 O 0.65115 0.34122 0.54053 0.0
O57 O 0.57795 0.33728 0.3953 0.0
O58 O 0.56081 0.5941 0.55109 0.0
O59 O 0.67495 0.60129 0.55201 0.0
C60 C 0.35754 0.56635 0.59521 0.0
C61 C 0.42184 0.36014 0.55249 0.0
H62 H 0.18558 0.0422 0.12865 0.0
H63 H 0.25563 0.2573 0.05164 0.0
H64 H 0.27017 0.0849 0.21459 0.0
H65 H 0.34076 0.29967 0.13714 0.0
H66 H 0.4846 0.36526 0.29891 0.0
H67 H 0.44541 0.28535 0.20748 0.0
H68 H 0.24673 0.18239 0.29154 0.0
H69 H 0.28525 0.26277 0.3824 0.0
C70 C 0.22142 0.0975 0.12844 0.0
C71 C 0.21352 0.14687 0.08409 0.0
C72 C 0.26958 0.12191 0.17777 0.0
C73 C 0.31124 0.1956 0.18263 0.0
C74 C 0.30944 0.24242 0.13424 0.0
C75 C 0.26044 0.21838 0.08553 0.0
C76 C 0.43349 0.32386 0.29869 0.0
C77 C 0.38732 0.32084 0.34718 0.0
C78 C 0.41124 0.27827 0.24639 0.0
C79 C 0.34315 0.22811 0.24257 0.0
C80 C 0.2998 0.22019 0.29363 0.0
C81 C 0.32148 0.26664 0.34534 0.0
H82 H 0.91948 0.30761 0.11641 0.0
H83 H 0.73082 0.13827 0.05281 0.0
H84 H 0.85016 0.3571 0.18498 0.0
H85 H 0.66094 0.18933 0.12057 0.0
H86 H 0.59051 0.23946 0.31645 0.0
H87 H 0.64324 0.19613 0.22939 0.0
H88 H 0.76404 0.41941 0.19282 0.0
H89 H 0.71321 0.46233 0.28093 0.0
C90 C 0.86302 0.28159 0.1162 0.0
C91 C 0.83098 0.21853 0.07932 0.0
C92 C 0.82302 0.31039 0.15533 0.0
C93 C 0.74979 0.27723 0.15842 0.0
C94 C 0.7173 0.21568 0.11994 0.0
C95 C 0.75741 0.18665 0.08085 0.0
C96 C 0.62731 0.27936 0.2891 0.0
C97 C 0.64875 0.35415 0.30637 0.0
C98 C 0.65744 0.25457 0.23897 0.0
C99 C 0.70905 0.30418 0.20478 0.0
C100 C 0.72599 0.3795 0.21918 0.0
C101 C 0.69647 0.40416 0.26952 0.0
H102 H 0.95902 0.85924 0.15798 0.0
H103 H 0.7582 0.88505 0.10395 0.0
H104 H 0.90234 0.78309 0.24351 0.0
H105 H 0.70349 0.81134 0.18896 0.0
H106 H 0.66844 0.78766 0.394 0.0
H107 H 0.74874 0.8514 0.3166 0.0
H108 H 0.76782 0.64599 0.24809 0.0
H109 H 0.68626 0.58076 0.32621 0.0
C110 C 0.90308 0.84821 0.16376 0.0
C111 C 0.8634 0.8787 0.12414 0.0
C112 C 0.87083 0.80468 0.21254 0.0
C113 C 0.7988 0.79183 0.22241 0.0
C114 C 0.75919 0.82083 0.18219 0.0
C115 C 0.79089 0.86343 0.13365 0.0
C116 C 0.69041 0.75578 0.36327 0.0
C117 C 0.66983 0.67892 0.36544 0.0
C118 C 0.73681 0.79251 0.31933 0.0
C119 C 0.76403 0.75343 0.27665 0.0
C120 C 0.74777 0.67712 0.28109 0.0
C121 C 0.70097 0.63997 0.32548 0.0
H122 H 0.02956 0.73789 0.16913 0.0
H123 H 0.21383 0.92887 0.1673 0.0
H124 H 0.08098 0.69363 0.25743 0.0
H125 H 0.2662 0.88341 0.25216 0.0
H126 H 0.3496 0.7939 0.41565 0.0
H127 H 0.27768 0.85049 0.35341 0.0
H128 H 0.17051 0.63952 0.26627 0.0
H129 H 0.23927 0.58358 0.32942 0.0
C130 C 0.08038 0.77092 0.18798 0.0
C131 C 0.1181 0.83595 0.16004 0.0
C132 C 0.11035 0.7453 0.23826 0.0
C133 C 0.17888 0.78384 0.26113 0.0
C134 C 0.21354 0.85198 0.23636 0.0
C135 C 0.18341 0.87784 0.18688 0.0
C136 C 0.31038 0.75991 0.38334 0.0
C137 C 0.30042 0.68434 0.37755 0.0
C138 C 0.26901 0.79217 0.34763 0.0
C139 C 0.21756 0.74964 0.3048 0.0
C140 C 0.20779 0.67405 0.29969 0.0
C141 C 0.2482 0.64195 0.33564 0.0
H142 H 0.10038 0.66404 0.88624 0.0
H143 H 0.27799 0.85633 0.85926 0.0
H144 H 0.15158 0.59224 0.81907 0.0
H145 H 0.32815 0.78514 0.79059 0.0
H146 H 0.42951 0.64157 0.69544 0.0
H147 H 0.38186 0.69155 0.78169 0.0
H148 H 0.17075 0.57821 0.71237 0.0
H149 H 0.21912 0.52576 0.62718 0.0
C150 C 0.15054 0.69108 0.86614 0.0
C151 C 0.18491 0.76626 0.87803 0.0
C152 C 0.17973 0.6498 0.8273 0.0
C153 C 0.24394 0.68262 0.79903 0.0
C154 C 0.2792 0.75741 0.81226 0.0
C155 C 0.25024 0.79859 0.85147 0.0
C156 C 0.37289 0.62565 0.69963 0.0
C157 C 0.32801 0.58017 0.65434 0.0
C158 C 0.34551 0.65508 0.7487 0.0
C159 C 0.27242 0.64071 0.75329 0.0
C160 C 0.22734 0.59053 0.71053 0.0
C161 C 0.25494 0.56017 0.66168 0.0
H162 H 0.06756 0.09628 0.76941 0.0
H163 H 0.26576 0.16906 0.87218 0.0
H164 H 0.12272 0.17268 0.68318 0.0
H165 H 0.31926 0.24655 0.78794 0.0
H166 H 0.37276 0.42363 0.64719 0.0
H167 H 0.28671 0.36193 0.72219 0.0
H168 H 0.25014 0.15678 0.62157 0.0
H169 H 0.33703 0.21807 0.54658 0.0
C170 C 0.1223 0.1295 0.77384 0.0
C171 C 0.16296 0.12627 0.82669 0.0
C172 C 0.15357 0.17295 0.72487 0.0
C173 C 0.22485 0.21529 0.72958 0.0
C174 C 0.26407 0.21467 0.78369 0.0
C175 C 0.23365 0.17002 0.83152 0.0
C176 C 0.34482 0.36585 0.63994 0.0
C177 C 0.36191 0.32539 0.59143 0.0
C178 C 0.29562 0.33077 0.68277 0.0
C179 C 0.26186 0.25505 0.67702 0.0
C180 C 0.27502 0.21549 0.62618 0.0
C181 C 0.32516 0.25032 0.58387 0.0
H182 H 0.88869 0.09661 0.75646 0.0
H183 H 0.99379 0.3115 0.83635 0.0
H184 H 0.84516 0.15212 0.67088 0.0
H185 H 0.94693 0.36724 0.75266 0.0
H186 H 0.8554 0.44992 0.58329 0.0
H187 H 0.93034 0.39804 0.64742 0.0
H188 H 0.75331 0.20362 0.66935 0.0
H189 H 0.68081 0.25309 0.60535 0.0
C190 C 0.90343 0.15583 0.75515 0.0
C191 C 0.94374 0.19956 0.80355 0.0
C192 C 0.87796 0.18782 0.70641 0.0
C193 C 0.89041 0.26426 0.70576 0.0
C194 C 0.93602 0.30834 0.75145 0.0
C195 C 0.96285 0.27628 0.79962 0.0
C196 C 0.83302 0.39586 0.60148 0.0
C197 C 0.76194 0.35594 0.58873 0.0
C198 C 0.87587 0.36612 0.63831 0.0
C199 C 0.84841 0.2959 0.66298 0.0
C200 C 0.77746 0.25663 0.64987 0.0
C201 C 0.73526 0.28582 0.61334 0.0
H202 H 0.83504 0.95882 0.83875 0.0
H203 H 0.78458 0.74114 0.91114 0.0
H204 H 0.74577 0.91293 0.75704 0.0
H205 H 0.69479 0.69589 0.82973 0.0
H206 H 0.73772 0.74446 0.58407 0.0
H207 H 0.7749 0.8223 0.67647 0.0
H208 H 0.583 0.70313 0.76397 0.0
H209 H 0.54492 0.62605 0.67023 0.0
C210 C 0.80304 0.90188 0.83885 0.0
C211 C 0.81827 0.85295 0.88017 0.0
C212 C 0.75181 0.87583 0.79211 0.0
C213 C 0.71441 0.80089 0.78679 0.0
C214 C 0.72292 0.75403 0.83299 0.0
C215 C 0.77483 0.7798 0.87925 0.0
C216 C 0.70254 0.73666 0.62232 0.0
C217 C 0.63897 0.67934 0.62069 0.0
C218 C 0.72335 0.78152 0.67491 0.0
C219 C 0.68163 0.76853 0.72716 0.0
C220 C 0.61567 0.71433 0.72403 0.0
C221 C 0.59402 0.67049 0.67063 0.0
loop_
_geom_bond_atom_site_label_1
_geom_bond_atom_site_label_2
_geom_bond_distance
_geom_bond_site_symmetry_2
_ccdc_geom_bond_type
C0 O12 1.241 . S
C0 O13 1.280 . S
C1 O14 1.277 . S
C1 O15 1.245 . S
C2 O26 1.247 . S
C2 O28 1.289 . S
Mg3 O4 1.926 . S
Mg3 O13 1.984 . S
Mg3 O15 1.988 1_554 S
Mg3 O16 2.061 1_655 S
O4 Mg3 1.926 . S
O4 Mg5 1.986 . S
O4 Mg6 1.922 1_655 S
Mg5 O4 1.986 . S
Mg5 O12 2.042 . S
Mg5 O14 2.041 1_554 S
Mg5 O20 2.038 1_545 S
Mg5 O28 2.238 1_544 S
Mg6 O4 1.922 1_455 S
Mg6 O7 1.912 1_544 S
Mg6 O17 2.116 . S
Mg6 O19 2.094 1_445 S
Mg6 O28 2.097 1_444 S
Mg6 O29 2.064 1_554 S
O7 Mg6 1.912 1_566 S
O7 Mg8 1.926 . S
O7 Mg9 1.989 1_556 S
Mg8 O7 1.926 . S
Mg8 O22 1.984 . S
Mg8 O25 1.988 1_556 S
Mg8 O26 2.061 1_455 S
Mg9 O7 1.989 1_554 S
Mg9 O17 2.230 1_565 S
Mg9 O21 2.050 1_554 S
Mg9 O23 2.047 . S
Mg9 O30 2.032 1_564 S
C10 O16 1.247 . S
C10 O17 1.289 . S
C11 O29 1.245 . S
C11 O30 1.274 . S
O12 C0 1.241 . S
O12 Mg5 2.042 . S
O13 C0 1.280 . S
O13 Mg3 1.984 . S
O14 C1 1.277 . S
O14 Mg5 2.041 1_556 S
O15 C1 1.245 . S
O15 Mg3 1.988 1_556 S
O16 Mg3 2.061 1_455 S
O16 C10 1.247 . S
O17 Mg6 2.116 . S
O17 Mg9 2.230 1_545 S
O17 C10 1.289 . S
C18 O19 1.245 . S
C18 O20 1.274 . S
O19 Mg6 2.094 1_665 S
O19 C18 1.245 . S
O20 Mg5 2.038 1_565 S
O20 C18 1.274 . S
O21 Mg9 2.050 1_556 S
O21 C24 1.241 . S
O22 Mg8 1.984 . S
O22 C24 1.280 . S
O23 Mg9 2.047 . S
O23 C27 1.277 . S
C24 O21 1.241 . S
C24 O22 1.280 . S
O25 Mg8 1.988 1_554 S
O25 C27 1.245 . S
O26 C2 1.247 . S
O26 Mg8 2.061 1_655 S
C27 O23 1.277 . S
C27 O25 1.245 . S
O28 C2 1.289 . S
O28 Mg5 2.238 1_566 S
O28 Mg6 2.097 1_666 S
O29 Mg6 2.064 1_556 S
O29 C11 1.245 . S
O30 Mg9 2.032 1_546 S
O30 C11 1.274 . S
C31 O58 1.312 . S
C31 O59 1.208 . S
C32 O53 1.331 . S
C32 O56 1.244 . S
C33 O55 1.264 . S
C33 O57 1.273 . S
Mg34 O36 1.936 . S
Mg34 O43 2.081 . S
Mg34 O45 2.023 . S
Mg34 O49 2.031 . S
Mg34 O58 2.291 . S
Mg35 O36 1.963 . S
Mg35 O46 1.942 . S
Mg35 O47 1.955 . S
Mg35 O54 1.986 . S
O36 Mg34 1.936 . S
O36 Mg35 1.963 . S
O36 Mg37 1.915 . S
Mg37 O36 1.915 . S
Mg37 O38 1.915 . S
Mg37 O42 2.013 . S
Mg37 O48 2.114 . S
Mg37 O52 2.013 . S
Mg37 O58 2.114 . S
O38 Mg37 1.915 . S
O38 Mg39 1.936 . S
O38 Mg40 1.963 . S
Mg39 O38 1.936 . S
Mg39 O48 2.291 . S
Mg39 O53 2.081 . S
Mg39 O55 2.023 . S
Mg39 O59 2.031 . S
Mg40 O38 1.963 . S
Mg40 O44 1.986 . S
Mg40 O56 1.942 . S
Mg40 O57 1.955 . S
C41 O52 1.191 . S
C41 O54 1.307 . S
O42 Mg37 2.013 . S
O42 C61 1.191 . S
O43 Mg34 2.081 . S
O43 C51 1.331 . S
O44 Mg40 1.986 . S
O44 C61 1.307 . S
O45 Mg34 2.023 . S
O45 C60 1.264 . S
O46 Mg35 1.942 . S
O46 C51 1.244 . S
O47 Mg35 1.955 . S
O47 C60 1.273 . S
O48 Mg37 2.114 . S
O48 Mg39 2.291 . S
O48 C50 1.312 . S
O49 Mg34 2.031 . S
O49 C50 1.208 . S
C50 O48 1.312 . S
C50 O49 1.208 . S
C51 O43 1.331 . S
C51 O46 1.244 . S
O52 Mg37 2.013 . S
O52 C41 1.191 . S
O53 C32 1.331 . S
O53 Mg39 2.081 . S
O54 Mg35 1.986 . S
O54 C41 1.307 . S
O55 C33 1.264 . S
O55 Mg39 2.023 . S
O56 C32 1.244 . S
O56 Mg40 1.942 . S
O57 C33 1.273 . S
O57 Mg40 1.955 . S
O58 C31 1.312 . S
O58 Mg34 2.291 . S
O58 Mg37 2.114 . S
O59 C31 1.208 . S
O59 Mg39 2.031 . S
C60 O45 1.264 . S
C60 O47 1.273 . S
C61 O42 1.191 . S
C61 O44 1.307 . S
H62 C70 0.950 . S
H63 C75 0.950 . S
H64 C72 0.950 . S
H65 C74 0.950 . S
H66 C76 0.950 . S
H67 C78 0.950 . S
H68 C80 0.950 . S
H69 C81 0.950 . S
C70 H62 0.950 . S
C70 C71 1.386 . S
C70 C72 1.391 . S
C71 C70 1.386 . S
C71 C75 1.393 . S
C72 H64 0.950 . S
C72 C70 1.391 . S
C72 C73 1.400 . S
C73 C72 1.400 . S
C73 C74 1.398 . S
C73 C79 1.491 . S
C74 H65 0.950 . S
C74 C73 1.398 . S
C74 C75 1.391 . S
C75 H63 0.950 . S
C75 C71 1.393 . S
C75 C74 1.391 . S
C76 H66 0.950 . S
C76 C77 1.386 . S
C76 C78 1.391 . S
C77 C76 1.386 . S
C77 C81 1.393 . S
C78 H67 0.950 . S
C78 C76 1.391 . S
C78 C79 1.400 . S
C79 C73 1.491 . S
C79 C78 1.400 . S
C79 C80 1.398 . S
C80 H68 0.950 . S
C80 C79 1.398 . S
C80 C81 1.391 . S
C81 H69 0.950 . S
C81 C77 1.393 . S
C81 C80 1.391 . S
H82 C90 0.950 . S
H83 C95 0.950 . S
H84 C92 0.950 . S
H85 C94 0.950 . S
H86 C96 0.950 . S
H87 C98 0.950 . S
H88 C100 0.950 . S
H89 C101 0.950 . S
C90 H82 0.950 . S
C90 C91 1.386 . S
C90 C92 1.391 . S
C91 C90 1.386 . S
C91 C95 1.393 . S
C92 H84 0.950 . S
C92 C90 1.391 . S
C92 C93 1.400 . S
C93 C92 1.400 . S
C93 C94 1.398 . S
C93 C99 1.491 . S
C94 H85 0.950 . S
C94 C93 1.398 . S
C94 C95 1.391 . S
C95 H83 0.950 . S
C95 C91 1.393 . S
C95 C94 1.391 . S
C96 H86 0.950 . S
C96 C97 1.386 . S
C96 C98 1.391 . S
C97 C96 1.386 . S
C97 C101 1.393 . S
C98 H87 0.950 . S
C98 C96 1.391 . S
C98 C99 1.400 . S
C99 C93 1.491 . S
C99 C98 1.400 . S
C99 C100 1.398 . S
C100 H88 0.950 . S
C100 C99 1.398 . S
C100 C101 1.391 . S
C101 H89 0.950 . S
C101 C97 1.393 . S
C101 C100 1.391 . S
H102 C110 0.950 . S
H103 C115 0.950 . S
H104 C112 0.950 . S
H105 C114 0.950 . S
H106 C116 0.950 . S
H107 C118 0.950 . S
H108 C120 0.950 . S
H109 C121 0.950 . S
C110 H102 0.950 . S
C110 C111 1.386 . S
C110 C112 1.391 . S
C111 C110 1.386 . S
C111 C115 1.393 . S
C112 H104 0.950 . S
C112 C110 1.391 . S
C112 C113 1.400 . S
C113 C112 1.400 . S
C113 C114 1.398 . S
C113 C119 1.491 . S
C114 H105 0.950 . S
C114 C113 1.398 . S
C114 C115 1.391 . S
C115 H103 0.950 . S
C115 C111 1.393 . S
C115 C114 1.391 . S
C116 H106 0.950 . S
C116 C117 1.386 . S
C116 C118 1.391 . S
C117 C116 1.386 . S
C117 C121 1.393 . S
C118 H107 0.950 . S
C118 C116 1.391 . S
C118 C119 1.400 . S
C119 C113 1.491 . S
C119 C118 1.400 . S
C119 C120 1.398 . S
C120 H108 0.950 . S
C120 C119 1.398 . S
C120 C121 1.391 . S
C121 H109 0.950 . S
C121 C117 1.393 . S
C121 C120 1.391 . S
H122 C130 0.950 . S
H123 C135 0.950 . S
H124 C132 0.950 . S
H125 C134 0.950 . S
H126 C136 0.950 . S
H127 C138 0.950 . S
H128 C140 0.950 . S
H129 C141 0.950 . S
C130 H122 0.950 . S
C130 C131 1.386 . S
C130 C132 1.391 . S
C131 C130 1.386 . S
C131 C135 1.393 . S
C132 H124 0.950 . S
C132 C130 1.391 . S
C132 C133 1.400 . S
C133 C132 1.400 . S
C133 C134 1.398 . S
C133 C139 1.491 . S
C134 H125 0.950 . S
C134 C133 1.398 . S
C134 C135 1.391 . S
C135 H123 0.950 . S
C135 C131 1.393 . S
C135 C134 1.391 . S
C136 H126 0.950 . S
C136 C137 1.386 . S
C136 C138 1.391 . S
C137 C136 1.386 . S
C137 C141 1.393 . S
C138 H127 0.950 . S
C138 C136 1.391 . S
C138 C139 1.400 . S
C139 C133 1.491 . S
C139 C138 1.400 . S
C139 C140 1.398 . S
C140 H128 0.950 . S
C140 C139 1.398 . S
C140 C141 1.391 . S
C141 H129 0.950 . S
C141 C137 1.393 . S
C141 C140 1.391 . S
H142 C150 0.950 . S
H143 C155 0.950 . S
H144 C152 0.950 . S
H145 C154 0.950 . S
H146 C156 0.950 . S
H147 C158 0.950 . S
H148 C160 0.950 . S
H149 C161 0.950 . S
C150 H142 0.950 . S
C150 C151 1.386 . S
C150 C152 1.391 . S
C151 C150 1.386 . S
C151 C155 1.393 . S
C152 H144 0.950 . S
C152 C150 1.391 . S
C152 C153 1.400 . S
C153 C152 1.400 . S
C153 C154 1.398 . S
C153 C159 1.491 . S
C154 H145 0.950 . S
C154 C153 1.398 . S
C154 C155 1.391 . S
C155 H143 0.950 . S
C155 C151 1.393 . S
C155 C154 1.391 . S
C156 H146 0.950 . S
C156 C157 1.386 . S
C156 C158 1.391 . S
C157 C156 1.386 . S
C157 C161 1.393 . S
C158 H147 0.950 . S
C158 C156 1.391 . S
C158 C159 1.400 . S
C159 C153 1.491 . S
C159 C158 1.400 . S
C159 C160 1.398 . S
C160 H148 0.950 . S
C160 C159 1.398 . S
C160 C161 1.391 . S
C161 H149 0.950 . S
C161 C157 1.393 . S
C161 C160 1.391 . S
H162 C170 0.950 . S
H163 C175 0.950 . S
H164 C172 0.950 . S
H165 C174 0.950 . S
H166 C176 0.950 . S
H167 C178 0.950 . S
H168 C180 0.950 . S
H169 C181 0.950 . S
C170 H162 0.950 . S
C170 C171 1.386 . S
C170 C172 1.391 . S
C171 C170 1.386 . S
C171 C175 1.393 . S
C172 H164 0.950 . S
C172 C170 1.391 . S
C172 C173 1.400 . S
C173 C172 1.400 . S
C173 C174 1.398 . S
C173 C179 1.491 . S
C174 H165 0.950 . S
C174 C173 1.398 . S
C174 C175 1.391 . S
C175 H163 0.950 . S
C175 C171 1.393 . S
C175 C174 1.391 . S
C176 H166 0.950 . S
C176 C177 1.386 . S
C176 C178 1.391 . S
C177 C176 1.386 . S
C177 C181 1.393 . S
C178 H167 0.950 . S
C178 C176 1.391 . S
C178 C179 1.400 . S
C179 C173 1.491 . S
C179 C178 1.400 . S
C179 C180 1.398 . S
C180 H168 0.950 . S
C180 C179 1.398 . S
C180 C181 1.391 . S
C181 H169 0.950 . S
C181 C177 1.393 . S
C181 C180 1.391 . S
H182 C190 0.950 . S
H183 C195 0.950 . S
H184 C192 0.950 . S
H185 C194 0.950 . S
H186 C196 0.950 . S
H187 C198 0.950 . S
H188 C200 0.950 . S
H189 C201 0.950 . S
C190 H182 0.950 . S
C190 C191 1.386 . S
C190 C192 1.391 . S
C191 C190 1.386 . S
C191 C195 1.393 . S
C192 H184 0.950 . S
C192 C190 1.391 . S
C192 C193 1.400 . S
C193 C192 1.400 . S
C193 C194 1.398 . S
C193 C199 1.491 . S
C194 H185 0.950 . S
C194 C193 1.398 . S
C194 C195 1.391 . S
C195 H183 0.950 . S
C195 C191 1.393 . S
C195 C194 1.391 . S
C196 H186 0.950 . S
C196 C197 1.386 . S
C196 C198 1.391 . S
C197 C196 1.386 . S
C197 C201 1.393 . S
C198 H187 0.950 . S
C198 C196 1.391 . S
C198 C199 1.400 . S
C199 C193 1.491 . S
C199 C198 1.400 . S
C199 C200 1.398 . S
C200 H188 0.950 . S
C200 C199 1.398 . S
C200 C201 1.391 . S
C201 H189 0.950 . S
C201 C197 1.393 . S
C201 C200 1.391 . S
H202 C210 0.950 . S
H203 C215 0.950 . S
H204 C212 0.950 . S
H205 C214 0.950 . S
H206 C216 0.950 . S
H207 C218 0.950 . S
H208 C220 0.950 . S
H209 C221 0.950 . S
C210 H202 0.950 . S
C210 C211 1.386 . S
C210 C212 1.391 . S
C211 C210 1.386 . S
C211 C215 1.393 . S
C212 H204 0.950 . S
C212 C210 1.391 . S
C212 C213 1.400 . S
C213 C212 1.400 . S
C213 C214 1.398 . S
C213 C219 1.491 . S
C214 H205 0.950 . S
C214 C213 1.398 . S
C214 C215 1.391 . S
C215 H203 0.950 . S
C215 C211 1.393 . S
C215 C214 1.391 . S
C216 H206 0.950 . S
C216 C217 1.386 . S
C216 C218 1.391 . S
C217 C216 1.386 . S
C217 C221 1.393 . S
C218 H207 0.950 . S
C218 C216 1.391 . S
C218 C219 1.400 . S
C219 C213 1.491 . S
C219 C218 1.400 . S
C219 C220 1.398 . S
C220 H208 0.950 . S
C220 C219 1.398 . S
C220 C221 1.391 . S
C221 H209 0.950 . S
C221 C217 1.393 . S
C221 C220 1.391 . S
C71 C10 1.058 . S
C77 C41 1.043 . S
C91 C0 1.621 . S
C97 C33 1.642 . S
C111 C18 1.411 . S
C117 C50 1.422 . S
C131 C27 1.644 . S
C137 C51 1.646 . S
C151 C24 1.637 . S
C157 C60 1.659 . S
C177 C61 1.385 . S
C171 C11 1.379 . S
C191 C1 1.631 . S
C197 C32 1.636 . S
C217 C31 1.078 . S
C211 C2 1.107 . S
