# Generated by pormake.
# Topology dag, (6,3)-cn, num edge types: 1
# Building blocks:
#     Node 0, Type 0, BuildingBlock: IZENUY_clean_sbu_0, # of connection points: 6
#     Node 1, Type 0, BuildingBlock: IZENUY_clean_sbu_0, # of connection points: 6
#     Node 2, Type 0, BuildingBlock: IZENUY_clean_sbu_0, # of connection points: 6
#     Node 3, Type 0, BuildingBlock: IZENUY_clean_sbu_0, # of connection points: 6
#     Node 4, Type 1, BuildingBlock: OLANEW_clean_sbu_2, # of connection points: 3
#     Node 5, Type 1, BuildingBlock: OLANEW_clean_sbu_2, # of connection points: 3
#     Node 6, Type 1, BuildingBlock: OLANEW_clean_sbu_2, # of connection points: 3
#     Node 7, Type 1, BuildingBlock: OLANEW_clean_sbu_2, # of connection points: 3
#     Node 8, Type 1, BuildingBlock: OLANEW_clean_sbu_2, # of connection points: 3
#     Node 9, Type 1, BuildingBlock: OLANEW_clean_sbu_2, # of connection points: 3
#     Node 10, Type 1, BuildingBlock: OLANEW_clean_sbu_2, # of connection points: 3
#     Node 11, Type 1, BuildingBlock: OLANEW_clean_sbu_2, # of connection points: 3
#     Edge 12, Type (0, 1), None
#     Edge 13, Type (0, 1), None
#     Edge 14, Type (0, 1), None
#     Edge 15, Type (0, 1), None
#     Edge 16, Type (0, 1), None
#     Edge 17, Type (0, 1), None
#     Edge 18, Type (0, 1), None
#     Edge 19, Type (0, 1), None
#     Edge 20, Type (0, 1), None
#     Edge 21, Type (0, 1), None
#     Edge 22, Type (0, 1), None
#     Edge 23, Type (0, 1), None
#     Edge 24, Type (0, 1), None
#     Edge 25, Type (0, 1), None
#     Edge 26, Type (0, 1), None
#     Edge 27, Type (0, 1), None
#     Edge 28, Type (0, 1), None
#     Edge 29, Type (0, 1), None
#     Edge 30, Type (0, 1), None
#     Edge 31, Type (0, 1), None
#     Edge 32, Type (0, 1), None
#     Edge 33, Type (0, 1), None
#     Edge 34, Type (0, 1), None
#     Edge 35, Type (0, 1), None
# Relax obj value: 0.132
# Max RMSD: 0.170
# Mean RMSD: 0.134
data_MOF--net-dag--node1-IZENUY_clean_sbu_0--node2-OLANEW_clean_sbu_2--edge1-none
_symmetry_space_group_name_H-M    P1
_symmetry_Int_Tables_number       1
_symmetry_cell_setting            triclinic
loop_
_symmetry_equiv_pos_as_xyz
'x, y, z'
_cell_length_a     21.206904
_cell_length_b     19.033363
_cell_length_c     17.911383
_cell_angle_alpha  91.732518
_cell_angle_beta   97.769554
_cell_angle_gamma 93.169328
loop_
_atom_site_label
_atom_site_type_symbol
_atom_site_fract_x
_atom_site_fract_y
_atom_site_fract_z
_atom_type_partial_charge
Fe0 Fe 0.22853 0.90748 0.03426 0.0
Fe1 Fe 0.08558 0.93729 0.03419 0.0
O2 O 0.14693 0.87653 0.03121 0.0
Fe3 Fe 0.12902 0.78371 0.02298 0.0
O4 O 0.18157 0.76884 0.11068 0.0
O5 O 0.26277 0.82935 0.07666 0.0
O6 O 0.22884 0.94609 0.12886 0.0
C7 C 0.18686 0.98433 0.15076 0.0
C8 C 0.21434 0.80652 0.91963 0.0
O9 O 0.13301 0.99109 0.11124 0.0
C10 C 0.03574 0.83717 0.91694 0.0
O11 O 0.21494 0.99253 0.99413 0.0
O12 O 0.11228 0.99196 0.96092 0.0
O13 O 0.19154 0.76653 0.96538 0.0
O14 O 0.22968 0.87069 0.93818 0.0
C15 C 0.03596 0.82681 0.11246 0.0
O16 O 0.03091 0.89153 0.95792 0.0
O17 O 0.07601 0.79184 0.93541 0.0
C18 C 0.16761 0.0173 0.9569 0.0
O19 O 0.04758 0.89191 0.10663 0.0
O20 O 0.0628 0.78203 0.07695 0.0
C21 C 0.24087 0.78472 0.11849 0.0
Fe22 Fe 0.76986 0.5531 0.48331 0.0
Fe23 Fe 0.68649 0.68013 0.44678 0.0
O24 O 0.69423 0.59015 0.46858 0.0
Fe25 Fe 0.62527 0.53616 0.4764 0.0
O26 O 0.65266 0.52278 0.5745 0.0
O27 O 0.74924 0.49444 0.55797 0.0
O28 O 0.79889 0.61619 0.55838 0.0
C29 C 0.79975 0.68197 0.55407 0.0
C30 C 0.69777 0.44606 0.40344 0.0
O31 O 0.76285 0.71124 0.50401 0.0
C32 C 0.57969 0.60727 0.35387 0.0
O33 O 0.80378 0.60639 0.41371 0.0
O34 O 0.72573 0.66962 0.36278 0.0
O35 O 0.65724 0.455 0.44729 0.0
O36 O 0.74699 0.48659 0.40763 0.0
C37 C 0.59835 0.66305 0.54373 0.0
O38 O 0.60763 0.6639 0.38535 0.0
O39 O 0.59473 0.54816 0.37861 0.0
C40 C 0.77957 0.64409 0.36165 0.0
O41 O 0.64785 0.69752 0.53031 0.0
O42 O 0.57958 0.60638 0.50766 0.0
C43 C 0.70598 0.50052 0.59992 0.0
Fe44 Fe 0.86599 0.2334 0.10069 0.0
Fe45 Fe 0.89631 0.09345 0.02776 0.0
O46 O 0.84366 0.1617 0.03541 0.0
Fe47 Fe 0.76896 0.15932 0.97679 0.0
O48 O 0.76653 0.25506 0.97131 0.0
O49 O 0.86121 0.29575 0.02525 0.0
O50 O 0.95163 0.23341 0.09544 0.0
C51 C 0.98045 0.20825 0.04456 0.0
C52 C 0.7358 0.20414 0.11096 0.0
O53 O 0.95795 0.15471 1.00523 0.0
C54 C 0.78287 0.01665 0.01242 0.0
O55 O 0.87193 0.17491 0.17881 0.0
O56 O 0.92862 0.09691 0.12882 0.0
O57 O 0.72572 0.15851 0.05753 0.0
O58 O 0.78456 0.24643 0.11894 0.0
C59 C 0.8482 0.11865 0.877 0.0
O60 O 0.83775 0.02722 0.04899 0.0
O61 O 0.75761 0.06305 0.97119 0.0
C62 C 0.90603 0.12263 0.1849 0.0
O63 O 0.87391 0.0782 0.92554 0.0
O64 O 0.80787 0.16079 0.89293 0.0
C65 C 0.8121 0.30143 0.97804 0.0
Fe66 Fe 0.41036 0.4715 0.5642 0.0
Fe67 Fe 0.28281 0.38695 0.56541 0.0
O68 O 0.36739 0.39296 0.58373 0.0
Fe69 Fe 0.40989 0.3202 0.61842 0.0
O70 O 0.44766 0.3711 0.70171 0.0
O71 O 0.47669 0.46171 0.63851 0.0
O72 O 0.3741 0.52277 0.63188 0.0
C73 C 0.31481 0.52741 0.62988 0.0
C74 C 0.48009 0.37049 0.50751 0.0
O75 O 0.27536 0.48122 0.59339 0.0
C76 C 0.31735 0.25312 0.51404 0.0
O77 O 0.35165 0.49688 0.48714 0.0
O78 O 0.28467 0.40496 0.46626 0.0
O79 O 0.47793 0.33833 0.56782 0.0
O80 O 0.44911 0.42461 0.49437 0.0
C81 C 0.30269 0.31663 0.69733 0.0
O82 O 0.27627 0.29279 0.53496 0.0
O83 O 0.37582 0.26426 0.5378 0.0
C84 C 0.31372 0.45721 0.44234 0.0
O85 O 0.2752 0.36569 0.66241 0.0
O86 O 0.34954 0.28847 0.67472 0.0
C87 C 0.47936 0.42876 0.69891 0.0
O88 O 0.25443 0.02208 0.26437 0.0
Cd89 Cd 0.25831 0.0546 0.40066 0.0
O90 O 0.15393 0.04352 0.25757 0.0
Cd91 Cd 0.05097 0.04362 0.21984 0.0
O92 O 0.96654 0.0554 0.27685 0.0
C93 C 0.91747 0.08977 0.25805 0.0
O94 O 0.87581 0.09564 0.30553 0.0
C95 C 0.1992 0.01983 0.22623 0.0
C96 C 0.29673 0.18739 0.46948 0.0
O97 O 0.33744 0.14248 0.45727 0.0
O98 O 0.23779 0.17183 0.44508 0.0
O99 O 0.23299 0.59909 0.66445 0.0
Cd100 Cd 0.20249 0.72066 0.69404 0.0
O101 O 0.32971 0.64664 0.68089 0.0
Cd102 Cd 0.43076 0.65839 0.67058 0.0
O103 O 0.51052 0.64761 0.60833 0.0
C104 C 0.55712 0.68879 0.59637 0.0
O105 O 0.56561 0.75252 0.62755 0.0
C106 C 0.29185 0.59296 0.66137 0.0
C107 C 0.21495 0.777 0.84274 0.0
O108 O 0.17448 0.7264 0.81787 0.0
O109 O 0.25287 0.80097 0.7984 0.0
O110 O 0.99088 0.73958 0.18391 0.0
Cd111 Cd 0.88585 0.67353 0.17853 0.0
O112 O 0.93045 0.82306 0.14701 0.0
Cd113 Cd 0.88236 0.90081 0.07873 0.0
O114 O 0.78066 0.89445 0.03436 0.0
C115 C 0.75024 0.94693 1.01132 0.0
O116 O 0.68977 0.93758 0.98322 0.0
C117 C 0.98567 0.79955 0.15528 0.0
C118 C 0.81684 0.65782 0.29958 0.0
O119 O 0.865 0.62158 0.29227 0.0
O120 O 0.80255 0.70507 0.25168 0.0
O121 O 0.7727 0.47714 0.71444 0.0
Cd122 Cd 0.7851 0.48624 0.85348 0.0
O123 O 0.66941 0.48183 0.71629 0.0
Cd124 Cd 0.65896 0.45297 0.83149 0.0
O125 O 0.56265 0.40745 0.79609 0.0
C126 C 0.52972 0.45217 0.75985 0.0
O127 O 0.55255 0.51789 0.76175 0.0
C128 C 0.71685 0.4832 0.67999 0.0
C129 C 0.80416 0.36519 0.93487 0.0
O130 O 0.85175 0.40744 0.92691 0.0
O131 O 0.7488 0.37894 0.90279 0.0
O132 O 0.64099 0.37436 0.30792 0.0
Cd133 Cd 0.6046 0.25604 0.2573 0.0
O134 O 0.70891 0.32623 0.3899 0.0
Cd135 Cd 0.62627 0.25792 0.40305 0.0
O136 O 0.55227 0.29064 0.46857 0.0
C137 C 0.52353 0.34705 0.456 0.0
O138 O 0.53346 0.38421 0.3977 0.0
C139 C 0.68998 0.38104 0.35765 0.0
C140 C 0.68757 0.21517 0.15999 0.0
O141 O 0.70234 0.2128 0.2315 0.0
O142 O 0.63263 0.23526 0.1335 0.0
O143 O 0.23475 0.1058 0.91146 0.0
Cd144 Cd 0.24271 0.23458 0.89569 0.0
O145 O 0.13349 0.12161 0.89559 0.0
Cd146 Cd 0.0389 0.11186 0.92399 0.0
O147 O 0.07389 0.2106 0.98653 0.0
C148 C 0.04262 0.23946 0.03329 0.0
O149 O 0.06604 0.29775 0.0704 0.0
C150 C 0.17828 0.08211 0.91583 0.0
C151 C 0.28029 0.28891 0.7651 0.0
O152 O 0.31972 0.26162 0.81498 0.0
O153 O 0.2216 0.28899 0.77507 0.0
O154 O 0.4828 0.66008 0.30213 0.0
Cd155 Cd 0.37283 0.6441 0.22705 0.0
O156 O 0.49472 0.54869 0.27283 0.0
Cd157 Cd 0.39282 0.52354 0.23855 0.0
O158 O 0.34949 0.51619 0.34182 0.0
C159 C 0.31341 0.46646 0.36128 0.0
O160 O 0.29144 0.41502 0.31261 0.0
C161 C 0.51798 0.60747 0.30348 0.0
C162 C 0.28674 0.73996 0.16119 0.0
O163 O 0.34221 0.73446 0.14129 0.0
O164 O 0.27241 0.70366 0.21625 0.0
O165 O 0.00391 0.7768 0.79889 0.0
Cd166 Cd 0.96549 0.79512 0.6655 0.0
O167 O 0.96582 0.87915 0.8131 0.0
Cd168 Cd 0.94644 0.98495 0.85055 0.0
O169 O 0.90423 0.07408 0.78082 0.0
C170 C 0.86462 0.11719 0.80027 0.0
O171 O 0.90495 0.07453 0.77801 0.0
C172 C 0.99798 0.82973 0.84153 0.0
C173 C 0.85445 0.72212 0.59703 0.0
O174 O 0.90637 0.69161 0.61532 0.0
O175 O 0.8534 0.78799 0.61337 0.0
loop_
_geom_bond_atom_site_label_1
_geom_bond_atom_site_label_2
_geom_bond_distance
_geom_bond_site_symmetry_2
_ccdc_geom_bond_type
Fe0 O2 1.918 1_554 S
Fe0 O5 1.997 . S
Fe0 O6 2.002 . S
Fe0 O11 1.976 1_554 S
Fe0 O14 1.996 1_554 S
Fe1 O2 1.918 1_554 S
Fe1 O9 1.997 . S
Fe1 O12 1.996 1_564 S
Fe1 O16 1.976 1_554 S
Fe1 O19 2.002 . S
O2 Fe0 1.918 1_556 S
O2 Fe1 1.918 1_556 S
O2 Fe3 1.918 . S
Fe3 O2 1.918 . S
Fe3 O4 2.002 1_556 S
Fe3 O13 1.976 . S
Fe3 O17 1.996 . S
Fe3 O20 1.997 1_556 S
O4 Fe3 2.002 1_554 S
O4 C21 1.295 . S
O5 Fe0 1.997 . S
O5 C21 1.235 . S
O6 Fe0 2.002 . S
O6 C7 1.295 . S
C7 O6 1.295 . S
C7 O9 1.235 . S
C8 O13 1.287 . S
C8 O14 1.255 . S
O9 Fe1 1.997 . S
O9 C7 1.235 . S
C10 O16 1.287 . S
C10 O17 1.255 . S
O11 Fe0 1.976 1_556 S
O11 C18 1.287 1_565 S
O12 Fe1 1.996 1_546 S
O12 C18 1.255 . S
O13 Fe3 1.976 . S
O13 C8 1.287 . S
O14 Fe0 1.996 1_556 S
O14 C8 1.255 . S
C15 O19 1.295 . S
C15 O20 1.235 . S
O16 Fe1 1.976 1_556 S
O16 C10 1.287 . S
O17 Fe3 1.996 . S
O17 C10 1.255 . S
C18 O11 1.287 1_545 S
C18 O12 1.255 . S
O19 Fe1 2.002 . S
O19 C15 1.295 . S
O20 Fe3 1.997 1_554 S
O20 C15 1.235 . S
C21 O4 1.295 . S
C21 O5 1.235 . S
Fe22 O24 1.918 . S
Fe22 O27 1.997 . S
Fe22 O28 2.002 . S
Fe22 O33 1.976 . S
Fe22 O36 1.996 . S
Fe23 O24 1.918 . S
Fe23 O31 1.997 . S
Fe23 O34 1.996 . S
Fe23 O38 1.976 . S
Fe23 O41 2.002 . S
O24 Fe22 1.918 . S
O24 Fe23 1.918 . S
O24 Fe25 1.918 . S
Fe25 O24 1.918 . S
Fe25 O26 2.002 . S
Fe25 O35 1.976 . S
Fe25 O39 1.996 . S
Fe25 O42 1.997 . S
O26 Fe25 2.002 . S
O26 C43 1.295 . S
O27 Fe22 1.997 . S
O27 C43 1.235 . S
O28 Fe22 2.002 . S
O28 C29 1.295 . S
C29 O28 1.295 . S
C29 O31 1.235 . S
C30 O35 1.287 . S
C30 O36 1.255 . S
O31 Fe23 1.997 . S
O31 C29 1.235 . S
C32 O38 1.287 . S
C32 O39 1.255 . S
O33 Fe22 1.976 . S
O33 C40 1.287 . S
O34 Fe23 1.996 . S
O34 C40 1.255 . S
O35 Fe25 1.976 . S
O35 C30 1.287 . S
O36 Fe22 1.996 . S
O36 C30 1.255 . S
C37 O41 1.295 . S
C37 O42 1.235 . S
O38 Fe23 1.976 . S
O38 C32 1.287 . S
O39 Fe25 1.996 . S
O39 C32 1.255 . S
C40 O33 1.287 . S
C40 O34 1.255 . S
O41 Fe23 2.002 . S
O41 C37 1.295 . S
O42 Fe25 1.997 . S
O42 C37 1.235 . S
C43 O26 1.295 . S
C43 O27 1.235 . S
Fe44 O46 1.918 . S
Fe44 O49 1.997 1_554 S
Fe44 O50 2.002 . S
Fe44 O55 1.976 . S
Fe44 O58 1.996 . S
Fe45 O46 1.918 . S
Fe45 O53 1.997 1_554 S
Fe45 O56 1.996 . S
Fe45 O60 1.976 1_545 S
Fe45 O63 2.002 1_554 S
O46 Fe44 1.918 . S
O46 Fe45 1.918 . S
O46 Fe47 1.918 1_554 S
Fe47 O46 1.918 1_556 S
Fe47 O48 2.002 . S
Fe47 O57 1.976 1_556 S
Fe47 O61 1.996 1_556 S
Fe47 O64 1.997 . S
O48 Fe47 2.002 . S
O48 C65 1.295 . S
O49 Fe44 1.997 1_556 S
O49 C65 1.235 . S
O50 Fe44 2.002 . S
O50 C51 1.295 1_654 S
C51 O50 1.295 1_456 S
C51 O53 1.235 1_455 S
C52 O57 1.287 . S
C52 O58 1.255 . S
O53 Fe45 1.997 1_556 S
O53 C51 1.235 1_655 S
C54 O60 1.287 . S
C54 O61 1.255 1_565 S
O55 Fe44 1.976 . S
O55 C62 1.287 . S
O56 Fe45 1.996 . S
O56 C62 1.255 . S
O57 Fe47 1.976 1_554 S
O57 C52 1.287 . S
O58 Fe44 1.996 . S
O58 C52 1.255 . S
C59 O63 1.295 . S
C59 O64 1.235 . S
O60 Fe45 1.976 1_565 S
O60 C54 1.287 . S
O61 Fe47 1.996 1_554 S
O61 C54 1.255 1_545 S
C62 O55 1.287 . S
C62 O56 1.255 . S
O63 Fe45 2.002 1_556 S
O63 C59 1.295 . S
O64 Fe47 1.997 . S
O64 C59 1.235 . S
C65 O48 1.295 . S
C65 O49 1.235 . S
Fe66 O68 1.918 . S
Fe66 O71 1.997 . S
Fe66 O72 2.002 . S
Fe66 O77 1.976 . S
Fe66 O80 1.996 . S
Fe67 O68 1.918 . S
Fe67 O75 1.997 . S
Fe67 O78 1.996 . S
Fe67 O82 1.976 . S
Fe67 O85 2.002 . S
O68 Fe66 1.918 . S
O68 Fe67 1.918 . S
O68 Fe69 1.918 . S
Fe69 O68 1.918 . S
Fe69 O70 2.002 . S
Fe69 O79 1.976 . S
Fe69 O83 1.996 . S
Fe69 O86 1.997 . S
O70 Fe69 2.002 . S
O70 C87 1.295 . S
O71 Fe66 1.997 . S
O71 C87 1.235 . S
O72 Fe66 2.002 . S
O72 C73 1.295 . S
C73 O72 1.295 . S
C73 O75 1.235 . S
C74 O79 1.287 . S
C74 O80 1.255 . S
O75 Fe67 1.997 . S
O75 C73 1.235 . S
C76 O82 1.287 . S
C76 O83 1.255 . S
O77 Fe66 1.976 . S
O77 C84 1.287 . S
O78 Fe67 1.996 . S
O78 C84 1.255 . S
O79 Fe69 1.976 . S
O79 C74 1.287 . S
O80 Fe66 1.996 . S
O80 C74 1.255 . S
C81 O85 1.295 . S
C81 O86 1.235 . S
O82 Fe67 1.976 . S
O82 C76 1.287 . S
O83 Fe69 1.996 . S
O83 C76 1.255 . S
C84 O77 1.287 . S
C84 O78 1.255 . S
O85 Fe67 2.002 . S
O85 C81 1.295 . S
O86 Fe69 1.997 . S
O86 C81 1.235 . S
C87 O70 1.295 . S
C87 O71 1.235 . S
O88 Cd89 2.283 1_565 S
O88 C95 1.277 . S
Cd89 O88 2.283 1_545 S
Cd89 O97 2.381 . S
Cd89 O98 2.378 . S
O90 Cd91 2.385 . S
O90 C95 1.255 1_545 S
Cd91 O90 2.385 . S
Cd91 O92 2.317 . S
O92 Cd91 2.317 . S
O92 C93 1.232 1_455 S
C93 O92 1.232 1_655 S
C93 O94 1.218 . S
O94 C93 1.218 . S
C95 O88 1.277 . S
C95 O90 1.255 1_565 S
C96 O97 1.258 . S
C96 O98 1.256 . S
O97 Cd89 2.381 . S
O97 C96 1.258 . S
O98 Cd89 2.378 . S
O98 C96 1.256 . S
O99 Cd100 2.300 . S
O99 C106 1.275 . S
Cd100 O99 2.300 . S
Cd100 O108 2.381 . S
Cd100 O109 2.378 . S
O101 Cd102 2.385 . S
O101 C106 1.255 . S
Cd102 O101 2.385 . S
Cd102 O103 2.317 . S
O103 Cd102 2.317 . S
O103 C104 1.232 . S
C104 O103 1.232 . S
C104 O105 1.218 . S
O105 C104 1.218 . S
C106 O99 1.275 . S
C106 O101 1.255 . S
C107 O108 1.258 . S
C107 O109 1.256 . S
O108 Cd100 2.381 . S
O108 C107 1.258 . S
O109 Cd100 2.378 . S
O109 C107 1.256 . S
O110 Cd111 2.300 . S
O110 C117 1.275 . S
Cd111 O110 2.300 . S
Cd111 O119 2.381 . S
Cd111 O120 2.378 . S
O112 Cd113 2.385 . S
O112 C117 1.255 . S
Cd113 O112 2.385 . S
Cd113 O114 2.317 . S
O114 Cd113 2.317 . S
O114 C115 1.232 . S
C115 O114 1.232 . S
C115 O116 1.218 . S
O116 C115 1.218 . S
C117 O110 1.275 . S
C117 O112 1.255 . S
C118 O119 1.258 . S
C118 O120 1.256 . S
O119 Cd111 2.381 . S
O119 C118 1.258 . S
O120 Cd111 2.378 . S
O120 C118 1.256 . S
O121 Cd122 2.300 . S
O121 C128 1.275 . S
Cd122 O121 2.300 . S
Cd122 O130 2.381 . S
Cd122 O131 2.378 . S
O123 Cd124 2.385 . S
O123 C128 1.255 . S
Cd124 O123 2.385 . S
Cd124 O125 2.317 . S
O125 Cd124 2.317 . S
O125 C126 1.232 . S
C126 O125 1.232 . S
C126 O127 1.218 . S
O127 C126 1.218 . S
C128 O121 1.275 . S
C128 O123 1.255 . S
C129 O130 1.258 . S
C129 O131 1.256 . S
O130 Cd122 2.381 . S
O130 C129 1.258 . S
O131 Cd122 2.378 . S
O131 C129 1.256 . S
O132 Cd133 2.300 . S
O132 C139 1.275 . S
Cd133 O132 2.300 . S
Cd133 O141 2.381 . S
Cd133 O142 2.378 . S
O134 Cd135 2.385 . S
O134 C139 1.255 . S
Cd135 O134 2.385 . S
Cd135 O136 2.317 . S
O136 Cd135 2.317 . S
O136 C137 1.232 . S
C137 O136 1.232 . S
C137 O138 1.218 . S
O138 C137 1.218 . S
C139 O132 1.275 . S
C139 O134 1.255 . S
C140 O141 1.258 . S
C140 O142 1.256 . S
O141 Cd133 2.381 . S
O141 C140 1.258 . S
O142 Cd133 2.378 . S
O142 C140 1.256 . S
O143 Cd144 2.300 . S
O143 C150 1.275 . S
Cd144 O143 2.300 . S
Cd144 O152 2.381 . S
Cd144 O153 2.378 . S
O145 Cd146 2.385 . S
O145 C150 1.255 . S
Cd146 O145 2.385 . S
Cd146 O147 2.317 . S
O147 Cd146 2.317 . S
O147 C148 1.232 . S
C148 O147 1.232 . S
C148 O149 1.218 . S
O149 C148 1.218 . S
C150 O143 1.275 . S
C150 O145 1.255 . S
C151 O152 1.258 . S
C151 O153 1.256 . S
O152 Cd144 2.381 . S
O152 C151 1.258 . S
O153 Cd144 2.378 . S
O153 C151 1.256 . S
O154 Cd155 2.300 . S
O154 C161 1.275 . S
Cd155 O154 2.300 . S
Cd155 O163 2.381 . S
Cd155 O164 2.378 . S
O156 Cd157 2.385 . S
O156 C161 1.255 . S
Cd157 O156 2.385 . S
Cd157 O158 2.317 . S
O158 Cd157 2.317 . S
O158 C159 1.232 . S
C159 O158 1.232 . S
C159 O160 1.218 . S
O160 C159 1.218 . S
C161 O154 1.275 . S
C161 O156 1.255 . S
C162 O163 1.258 . S
C162 O164 1.256 . S
O163 Cd155 2.381 . S
O163 C162 1.258 . S
O164 Cd155 2.378 . S
O164 C162 1.256 . S
O165 Cd166 2.300 . S
O165 C172 1.275 . S
Cd166 O165 2.300 . S
Cd166 O174 2.381 . S
Cd166 O175 2.378 . S
O167 Cd168 2.385 . S
O167 C172 1.255 . S
Cd168 O167 2.385 . S
Cd168 O169 2.317 . S
O169 Cd168 2.317 . S
O169 C170 1.232 1_565 S
C170 O169 1.232 1_545 S
C170 O171 1.218 . S
O171 C170 1.218 . S
C172 O165 1.275 . S
C172 O167 1.255 . S
C173 O174 1.258 . S
C173 O175 1.256 . S
O174 Cd166 2.381 . S
O174 C173 1.258 . S
O175 Cd166 2.378 . S
O175 C173 1.256 . S
C7 C95 1.908 . S
C37 C104 1.301 . S
C54 C115 0.714 . S
C126 C87 1.579 . S
C139 C30 1.393 . S
C51 C148 0.621 . S
C84 C159 1.568 . S
C10 C172 1.934 1_455 S
C59 C170 0.660 . S
C137 C74 1.514 . S
C150 C18 1.882 . S
C32 C161 2.100 . S
C106 C73 1.489 . S
C15 C117 2.118 1_455 S
C128 C43 2.145 . S
C93 C62 0.760 . S
C162 C21 1.611 . S
C173 C29 1.608 . S
C52 C140 1.659 . S
C151 C81 1.746 . S
C118 C40 1.957 . S
C65 C129 1.740 . S
C96 C76 1.638 . S
C107 C8 1.488 . S
