# Generated by pormake.
# Topology nia, (6,6)-cn, num edge types: 1
# Building blocks:
#     Node 0, Type 0, BuildingBlock: VOLQOD_clean_sbu_1, # of connection points: 6
#     Node 1, Type 0, BuildingBlock: VOLQOD_clean_sbu_1, # of connection points: 6
#     Node 2, Type 1, BuildingBlock: MIDCAF_clean_sbu_0, # of connection points: 6
#     Node 3, Type 1, BuildingBlock: MIDCAF_clean_sbu_0, # of connection points: 6
#     Edge 4, Type (0, 1), BuildingBlock: OJICUG_clean_linker_0, # of connection points: 2
#     Edge 5, Type (0, 1), BuildingBlock: OJICUG_clean_linker_0, # of connection points: 2
#     Edge 6, Type (0, 1), BuildingBlock: OJICUG_clean_linker_0, # of connection points: 2
#     Edge 7, Type (0, 1), BuildingBlock: OJICUG_clean_linker_0, # of connection points: 2
#     Edge 8, Type (0, 1), BuildingBlock: OJICUG_clean_linker_0, # of connection points: 2
#     Edge 9, Type (0, 1), BuildingBlock: OJICUG_clean_linker_0, # of connection points: 2
#     Edge 10, Type (0, 1), BuildingBlock: OJICUG_clean_linker_0, # of connection points: 2
#     Edge 11, Type (0, 1), BuildingBlock: OJICUG_clean_linker_0, # of connection points: 2
#     Edge 12, Type (0, 1), BuildingBlock: OJICUG_clean_linker_0, # of connection points: 2
#     Edge 13, Type (0, 1), BuildingBlock: OJICUG_clean_linker_0, # of connection points: 2
#     Edge 14, Type (0, 1), BuildingBlock: OJICUG_clean_linker_0, # of connection points: 2
#     Edge 15, Type (0, 1), BuildingBlock: OJICUG_clean_linker_0, # of connection points: 2
# Relax obj value: 0.144
# Max RMSD: 0.235
# Mean RMSD: 0.189
data_MOF--net-nia--node1-VOLQOD_clean_sbu_1--node2-MIDCAF_clean_sbu_0--edge1-OJICUG_clean_linker_0
_symmetry_space_group_name_H-M    P1
_symmetry_Int_Tables_number       1
_symmetry_cell_setting            triclinic
loop_
_symmetry_equiv_pos_as_xyz
'x, y, z'
_cell_length_a     19.080668
_cell_length_b     18.979159
_cell_length_c     23.747842
_cell_angle_alpha  90.033774
_cell_angle_beta   89.880869
_cell_angle_gamma 120.58336
loop_
_atom_site_label
_atom_site_type_symbol
_atom_site_fract_x
_atom_site_fract_y
_atom_site_fract_z
_atom_type_partial_charge
O0 O 0.04165 0.03129 0.95813 0.0
Zn1 Zn -0.07421 -0.03953 0.98897 0.0
O2 O -0.07369 -0.03848 1.07305 0.0
Zn3 Zn 0.88099 0.85148 0.10322 0.0
Zn4 Zn 0.03636 0.02784 0.10182 0.0
Zn5 Zn 0.86211 0.00667 0.10198 0.0
O6 O 0.77782 0.81467 0.14771 0.0
O7 O 0.7717 0.92804 0.15228 0.0
O8 O 0.88005 0.84365 0.95953 0.0
O9 O 0.85618 0.77393 1.03959 0.0
O10 O -0.03982 0.84066 0.1527 0.0
O11 O 0.0732 -0.03837 0.1456 0.0
O12 O 0.04882 0.11904 0.15155 0.0
O13 O 0.8553 0.00494 0.95841 0.0
O14 O -0.07093 0.11093 0.14556 0.0
O15 O 0.80954 0.02957 1.03796 0.0
C16 C 0.10859 0.07655 0.98387 0.0
C17 C 0.74383 0.85345 0.16529 0.0
C18 C 0.035 0.88853 0.1641 0.0
C19 C 0.85726 0.7769 0.98603 0.0
C20 C 0.0019 0.14618 0.16364 0.0
C21 C 0.81152 0.02763 0.98445 0.0
O22 O 0.11241 0.08007 1.03737 0.0
O23 O 0.01653 0.15179 0.54174 0.0
Zn24 Zn -0.01423 0.07212 0.60494 0.0
O25 O -0.0734 -0.03842 0.57475 0.0
Zn26 Zn 0.81635 0.90791 0.60433 0.0
Zn27 Zn -0.07416 -0.0368 0.49092 0.0
Zn28 Zn -0.02168 0.90265 0.60196 0.0
O29 O 0.79236 0.81276 0.65313 0.0
O30 O 0.90243 0.80193 0.64687 0.0
O31 O 0.91574 0.09511 0.65511 0.0
O32 O 0.79348 -0.01646 0.65011 0.0
O33 O 0.73783 0.86081 0.54072 0.0
O34 O 0.80963 0.8969 0.46105 0.0
O35 O -0.0084 0.91475 0.45888 0.0
O36 O 0.08548 0.09508 0.64938 0.0
O37 O 0.02477 0.87341 0.53694 0.0
O38 O 0.07333 -0.02742 0.65099 0.0
C39 C 0.00874 0.14813 0.48842 0.0
C40 C 0.83072 0.7763 0.66527 0.0
C41 C 0.74184 0.85974 0.48725 0.0
C42 C 0.84066 0.05585 0.66811 0.0
C43 C 0.02704 0.88185 0.48369 0.0
C44 C 0.11032 0.04746 0.66532 0.0
O45 O -0.02432 0.08023 0.462 0.0
Zn46 Zn 0.26024 0.63184 0.21694 0.0
Zn47 Zn 0.25848 0.63487 0.42917 0.0
Zn48 Zn 0.25946 0.63213 0.32511 0.0
C49 C 0.41701 0.68954 0.40404 0.0
C50 C 0.15548 0.4743 0.4043 0.0
O51 O 0.20287 0.70201 0.29396 0.0
O52 O 0.23581 0.71995 0.20351 0.0
C53 C 0.41821 0.68775 0.24771 0.0
O54 O 0.3885 0.69071 0.35507 0.0
O55 O 0.36928 0.65904 0.44536 0.0
O56 O 0.17031 0.52277 0.44485 0.0
O57 O 0.18751 0.50275 0.35561 0.0
O58 O 0.37325 0.657 0.2052 0.0
O59 O 0.38738 0.68932 0.29573 0.0
O60 O 0.18888 0.50344 0.296 0.0
O61 O 0.17177 0.51753 0.20536 0.0
C62 C 0.15718 0.47228 0.24784 0.0
O63 O 0.20169 0.70367 0.35331 0.0
O64 O 0.23539 0.72293 0.4432 0.0
C65 C 0.20443 0.73386 0.24568 0.0
C66 C 0.20362 0.73656 0.40128 0.0
Zn67 Zn 0.59224 0.2895 0.9313 0.0
Zn68 Zn 0.59402 0.29028 0.72036 0.0
Zn69 Zn 0.59319 0.29085 0.82672 0.0
C70 C 0.66067 0.45054 0.74933 0.0
C71 C 0.43443 0.19714 0.74865 0.0
O72 O 0.64629 0.21565 0.85579 0.0
O73 O 0.61142 0.19833 0.94552 0.0
C74 C 0.70077 0.4492 0.90434 0.0
O75 O 0.6609 0.4193 0.79741 0.0
O76 O 0.6255 0.40517 0.7076 0.0
O77 O 0.47952 0.20602 0.70718 0.0
O78 O 0.4657 0.22965 0.79659 0.0
O79 O 0.68349 0.40125 0.94559 0.0
O80 O 0.66848 0.42044 0.85588 0.0
O81 O 0.46394 0.23672 0.85489 0.0
O82 O 0.4816 0.26939 0.94498 0.0
C83 C 0.43477 0.24 0.90319 0.0
O84 O 0.65394 0.22427 0.7975 0.0
O85 O 0.67734 0.26009 0.70771 0.0
C86 C 0.64224 0.18239 0.90395 0.0
C87 C 0.68634 0.22493 0.7497 0.0
C88 C 0.03724 0.7791 0.22159 0.0
C89 C 0.07977 0.85579 0.19476 0.0
H90 H 0.04455 0.6804 0.25929 0.0
C91 C 0.16528 0.89675 0.19249 0.0
H92 H -0.0286 0.74604 0.22418 0.0
C93 C 0.20679 0.85903 0.2128 0.0
C94 C 0.16371 0.7808 0.23689 0.0
H95 H 0.19987 -0.04425 0.17201 0.0
H96 H 0.27221 0.88931 0.20738 0.0
C97 C 0.07898 0.74187 0.24237 0.0
C98 C 0.22307 0.15682 0.72359 0.0
C99 C 0.18787 0.08062 0.69619 0.0
H100 H 0.32975 0.2529 0.76408 0.0
C101 C 0.23078 0.03849 0.69434 0.0
H102 H 0.19106 0.19025 0.72606 0.0
C103 C 0.30975 0.07469 0.71519 0.0
C104 C 0.34638 0.1525 0.73967 0.0
H105 H 0.20542 -0.02036 0.67365 0.0
H106 H 0.34367 0.0435 0.70987 0.0
C107 C 0.30182 0.19229 0.74571 0.0
C108 C 0.1121 0.25899 0.22073 0.0
C109 C 0.03511 0.22398 0.1951 0.0
H110 H 0.21098 0.36618 0.25839 0.0
C111 C -0.00609 0.26787 0.19513 0.0
H112 H 0.14532 0.22669 0.22161 0.0
C113 C 0.03162 0.34748 0.21645 0.0
C114 C 0.11012 0.38361 0.23922 0.0
H115 H -0.06538 0.24276 0.17569 0.0
H116 H 0.00116 0.38231 0.21264 0.0
C117 C 0.14936 0.33832 0.24244 0.0
C118 C 0.72931 0.05541 0.72493 0.0
C119 C 0.80652 0.09882 0.69938 0.0
H120 H 0.63111 0.06284 0.76324 0.0
C121 C 0.84819 0.18484 0.69907 0.0
H122 H 0.69617 -0.01086 0.72618 0.0
C123 C 0.81058 0.2263 0.71931 0.0
C124 C 0.73179 0.18272 0.74169 0.0
H125 H 0.90776 0.22013 0.67979 0.0
H126 H 0.8415 0.29228 0.71504 0.0
C127 C 0.69239 0.09732 0.74646 0.0
C128 C 0.61959 0.72369 0.19603 0.0
C129 C 0.6662 0.80966 0.19677 0.0
H130 H 0.50301 0.6172 0.21226 0.0
C131 C 0.63376 0.85366 0.2226 0.0
H132 H 0.64269 0.68802 0.17635 0.0
C133 C 0.55432 0.81288 0.24361 0.0
C134 C 0.50636 0.72762 0.23949 0.0
H135 H 0.6682 0.91992 0.22404 0.0
H136 H 0.52859 0.84837 0.25958 0.0
C137 C 0.53987 0.68308 0.21666 0.0
C138 C 0.70211 0.65362 0.69702 0.0
C139 C 0.78768 0.69845 0.69665 0.0
H140 H 0.59468 0.53859 0.7144 0.0
C141 C 0.83052 0.66479 0.72221 0.0
H142 H 0.66729 0.67783 0.67777 0.0
C143 C 0.78839 0.58557 0.74458 0.0
C144 C 0.70333 0.53903 0.74062 0.0
H145 H 0.89645 0.69834 0.72295 0.0
H146 H 0.82234 0.55878 0.76139 0.0
C147 C 0.6604 0.57413 0.71811 0.0
C148 C 0.15648 0.8843 0.47124 0.0
C149 C 0.07754 0.85758 0.45185 0.0
H150 H 0.25951 0.86856 0.46839 0.0
C151 C 0.04508 0.79958 0.40831 0.0
H152 H 0.18272 0.92921 0.5047 0.0
C153 C 0.08884 0.76363 0.38799 0.0
C154 C 0.16575 0.78671 0.41033 0.0
H155 H -0.01624 0.77747 0.39333 0.0
H156 H 0.05978 0.71323 0.35868 0.0
C157 C 0.20034 0.84966 0.45044 0.0
C158 C 0.24364 0.20196 0.9749 0.0
C159 C 0.18547 0.12587 0.95265 0.0
H160 H 0.36768 0.29861 0.97516 0.0
C161 C 0.20673 0.0938 0.90664 0.0
H162 H 0.22857 0.22847 1.00996 0.0
C163 C 0.28745 0.13396 0.88689 0.0
C164 C 0.34694 0.20687 0.91256 0.0
H165 H 0.16292 0.03489 0.88904 0.0
H166 H 0.30442 0.1048 0.85485 0.0
C167 C 0.32329 0.24209 0.95496 0.0
C168 C 0.01432 0.28058 0.48143 0.0
C169 C 0.03456 0.22528 0.45829 0.0
H170 H 0.03448 0.40187 0.48063 0.0
C171 C 0.0861 0.24866 0.41107 0.0
H172 H -0.02591 0.26357 0.51757 0.0
C173 C 0.1222 0.32903 0.39038 0.0
C174 C 0.10548 0.38574 0.41592 0.0
H175 H 0.10299 0.20698 0.39294 0.0
H176 H 0.16768 0.34843 0.35762 0.0
C177 C 0.04882 0.35964 0.46021 0.0
C178 C 0.68518 0.03294 0.97621 0.0
C179 C 0.76114 0.05323 0.95357 0.0
H180 H 0.58703 0.05634 0.97671 0.0
C181 C 0.79181 0.10692 0.90737 0.0
H182 H 0.65982 -0.00892 1.01149 0.0
C183 C 0.75021 0.14546 0.88771 0.0
C184 C 0.67714 0.12952 0.91355 0.0
H185 H 0.85063 0.12392 0.88951 0.0
H186 H 0.77834 0.19213 0.85558 0.0
C187 C 0.64353 0.07032 0.95629 0.0
C188 C 0.6433 0.84222 0.41077 0.0
C189 C 0.66499 0.81037 0.45653 0.0
H190 H 0.54518 0.82923 0.35896 0.0
C191 C 0.60797 0.73344 0.47827 0.0
H192 H 0.68627 0.90196 0.39381 0.0
C193 C 0.52899 0.69129 0.45736 0.0
C194 C 0.50483 0.72559 0.41472 0.0
H195 H 0.62355 0.70741 0.51329 0.0
H196 H 0.48538 0.63369 0.47684 0.0
C197 C 0.56309 0.80028 0.39035 0.0
C198 C 0.84821 0.64252 0.97909 0.0
C199 C 0.83068 0.69958 0.95556 0.0
H200 H 0.82257 0.51927 0.97981 0.0
C201 C 0.77965 0.67718 0.90819 0.0
H202 H 0.88818 0.65852 1.01518 0.0
C203 C 0.74093 0.59631 0.88811 0.0
C204 C 0.75401 0.5378 0.91475 0.0
H205 H 0.76495 0.72013 0.88951 0.0
H206 H 0.69637 0.57831 0.85485 0.0
C207 C 0.81067 0.56278 0.95879 0.0
loop_
_geom_bond_atom_site_label_1
_geom_bond_atom_site_label_2
_geom_bond_distance
_geom_bond_site_symmetry_2
_ccdc_geom_bond_type
O0 Zn1 1.953 1_545 S
O0 C16 1.225 . S
Zn1 O0 1.953 1_565 S
Zn1 O2 1.949 1_566 S
Zn1 O8 1.919 1_455 S
Zn1 O13 1.924 1_465 S
O2 Zn1 1.949 1_544 S
O2 Zn3 1.923 1_445 S
O2 Zn4 1.950 . S
O2 Zn5 1.945 1_455 S
Zn3 O2 1.923 1_665 S
Zn3 O6 1.933 . S
Zn3 O9 1.941 1_554 S
Zn3 O10 1.965 1_655 S
Zn4 O2 1.950 . S
Zn4 O11 1.938 . S
Zn4 O12 1.906 . S
Zn4 O22 1.953 1_554 S
Zn5 O2 1.945 1_655 S
Zn5 O7 1.932 1_545 S
Zn5 O14 1.977 1_655 S
Zn5 O15 1.910 1_554 S
O6 Zn3 1.933 . S
O6 C17 1.226 . S
O7 Zn5 1.932 1_565 S
O7 C17 1.307 . S
O8 Zn1 1.919 1_655 S
O8 C19 1.253 . S
O9 Zn3 1.941 1_556 S
O9 C19 1.283 . S
O10 Zn3 1.965 1_455 S
O10 C18 1.303 . S
O11 Zn4 1.938 . S
O11 C18 1.247 1_545 S
O12 Zn4 1.906 . S
O12 C20 1.304 . S
O13 Zn1 1.924 1_645 S
O13 C21 1.311 . S
O14 Zn5 1.977 1_455 S
O14 C20 1.272 . S
O15 Zn5 1.910 1_556 S
O15 C21 1.231 . S
C16 O0 1.225 . S
C16 O22 1.298 . S
C17 O6 1.226 . S
C17 O7 1.307 . S
C18 O10 1.303 . S
C18 O11 1.247 1_565 S
C19 O8 1.253 . S
C19 O9 1.283 . S
C20 O12 1.304 . S
C20 O14 1.272 . S
C21 O13 1.311 . S
C21 O15 1.231 . S
O22 Zn4 1.953 1_556 S
O22 C16 1.298 . S
O23 Zn24 1.953 . S
O23 C39 1.225 . S
Zn24 O23 1.953 . S
Zn24 O25 1.949 . S
Zn24 O31 1.919 1_455 S
Zn24 O36 1.924 . S
O25 Zn24 1.949 . S
O25 Zn26 1.923 1_445 S
O25 Zn27 1.950 . S
O25 Zn28 1.945 1_545 S
Zn26 O25 1.923 1_665 S
Zn26 O29 1.933 . S
Zn26 O32 1.941 1_565 S
Zn26 O33 1.965 . S
Zn27 O25 1.950 . S
Zn27 O34 1.938 1_445 S
Zn27 O35 1.906 1_545 S
Zn27 O45 1.953 . S
Zn28 O25 1.945 1_565 S
Zn28 O30 1.932 1_455 S
Zn28 O37 1.977 . S
Zn28 O38 1.910 1_565 S
O29 Zn26 1.933 . S
O29 C40 1.226 . S
O30 Zn28 1.932 1_655 S
O30 C40 1.307 . S
O31 Zn24 1.919 1_655 S
O31 C42 1.253 . S
O32 Zn26 1.941 1_545 S
O32 C42 1.283 . S
O33 Zn26 1.965 . S
O33 C41 1.303 . S
O34 Zn27 1.938 1_665 S
O34 C41 1.247 . S
O35 Zn27 1.906 1_565 S
O35 C43 1.304 . S
O36 Zn24 1.924 . S
O36 C44 1.311 . S
O37 Zn28 1.977 . S
O37 C43 1.272 . S
O38 Zn28 1.910 1_545 S
O38 C44 1.231 . S
C39 O23 1.225 . S
C39 O45 1.298 . S
C40 O29 1.226 . S
C40 O30 1.307 . S
C41 O33 1.303 . S
C41 O34 1.247 . S
C42 O31 1.253 . S
C42 O32 1.283 . S
C43 O35 1.304 . S
C43 O37 1.272 . S
C44 O36 1.311 . S
C44 O38 1.231 . S
O45 Zn27 1.953 . S
O45 C39 1.298 . S
Zn46 O52 1.920 . S
Zn46 O58 1.898 . S
Zn46 O61 1.905 . S
Zn47 O55 1.905 . S
Zn47 O56 1.898 . S
Zn47 O64 1.920 . S
Zn48 O51 2.080 . S
Zn48 O54 2.114 . S
Zn48 O57 2.120 . S
Zn48 O59 2.120 . S
Zn48 O60 2.114 . S
Zn48 O63 2.080 . S
C49 O54 1.166 . S
C49 O55 1.182 . S
C50 O56 1.167 . S
C50 O57 1.299 . S
O51 Zn48 2.080 . S
O51 C65 1.305 . S
O52 Zn46 1.920 . S
O52 C65 1.234 . S
C53 O58 1.167 . S
C53 O59 1.299 . S
O54 Zn48 2.114 . S
O54 C49 1.166 . S
O55 Zn47 1.905 . S
O55 C49 1.182 . S
O56 Zn47 1.898 . S
O56 C50 1.167 . S
O57 Zn48 2.120 . S
O57 C50 1.299 . S
O58 Zn46 1.898 . S
O58 C53 1.167 . S
O59 Zn48 2.120 . S
O59 C53 1.299 . S
O60 Zn48 2.114 . S
O60 C62 1.166 . S
O61 Zn46 1.905 . S
O61 C62 1.182 . S
C62 O60 1.166 . S
C62 O61 1.182 . S
O63 Zn48 2.080 . S
O63 C66 1.305 . S
O64 Zn47 1.920 . S
O64 C66 1.234 . S
C65 O51 1.305 . S
C65 O52 1.234 . S
C66 O63 1.305 . S
C66 O64 1.234 . S
Zn67 O73 1.920 . S
Zn67 O79 1.898 . S
Zn67 O82 1.905 . S
Zn68 O76 1.905 . S
Zn68 O77 1.898 . S
Zn68 O85 1.920 . S
Zn69 O72 2.080 . S
Zn69 O75 2.114 . S
Zn69 O78 2.120 . S
Zn69 O80 2.120 . S
Zn69 O81 2.114 . S
Zn69 O84 2.080 . S
C70 O75 1.166 . S
C70 O76 1.182 . S
C71 O77 1.167 . S
C71 O78 1.299 . S
O72 Zn69 2.080 . S
O72 C86 1.305 . S
O73 Zn67 1.920 . S
O73 C86 1.234 . S
C74 O79 1.167 . S
C74 O80 1.299 . S
O75 Zn69 2.114 . S
O75 C70 1.166 . S
O76 Zn68 1.905 . S
O76 C70 1.182 . S
O77 Zn68 1.898 . S
O77 C71 1.167 . S
O78 Zn69 2.120 . S
O78 C71 1.299 . S
O79 Zn67 1.898 . S
O79 C74 1.167 . S
O80 Zn69 2.120 . S
O80 C74 1.299 . S
O81 Zn69 2.114 . S
O81 C83 1.166 . S
O82 Zn67 1.905 . S
O82 C83 1.182 . S
C83 O81 1.166 . S
C83 O82 1.182 . S
O84 Zn69 2.080 . S
O84 C87 1.305 . S
O85 Zn68 1.920 . S
O85 C87 1.234 . S
C86 O72 1.305 . S
C86 O73 1.234 . S
C87 O84 1.305 . S
C87 O85 1.234 . S
C88 C89 1.387 . S
C88 H92 0.950 . S
C88 C97 1.390 . S
C89 C88 1.387 . S
C89 C91 1.387 . S
H90 C97 0.950 . S
C91 C89 1.387 . S
C91 C93 1.390 . S
C91 H95 0.950 . S
H92 C88 0.950 . S
C93 C91 1.390 . S
C93 C94 1.387 . S
C93 H96 0.950 . S
C94 C93 1.387 . S
C94 C97 1.387 . S
H95 C91 0.950 . S
H96 C93 0.950 . S
C97 C88 1.390 . S
C97 H90 0.950 . S
C97 C94 1.387 . S
C98 C99 1.387 . S
C98 H102 0.950 . S
C98 C107 1.390 . S
C99 C98 1.387 . S
C99 C101 1.387 . S
H100 C107 0.950 . S
C101 C99 1.387 . S
C101 C103 1.390 . S
C101 H105 0.950 . S
H102 C98 0.950 . S
C103 C101 1.390 . S
C103 C104 1.387 . S
C103 H106 0.950 . S
C104 C103 1.387 . S
C104 C107 1.387 . S
H105 C101 0.950 . S
H106 C103 0.950 . S
C107 C98 1.390 . S
C107 H100 0.950 . S
C107 C104 1.387 . S
C108 C109 1.387 . S
C108 H112 0.950 . S
C108 C117 1.390 . S
C109 C108 1.387 . S
C109 C111 1.387 . S
H110 C117 0.950 . S
C111 C109 1.387 . S
C111 C113 1.390 . S
C111 H115 0.950 . S
H112 C108 0.950 . S
C113 C111 1.390 . S
C113 C114 1.387 . S
C113 H116 0.950 . S
C114 C113 1.387 . S
C114 C117 1.387 . S
H115 C111 0.950 . S
H116 C113 0.950 . S
C117 C108 1.390 . S
C117 H110 0.950 . S
C117 C114 1.387 . S
C118 C119 1.387 . S
C118 H122 0.950 . S
C118 C127 1.390 . S
C119 C118 1.387 . S
C119 C121 1.387 . S
H120 C127 0.950 . S
C121 C119 1.387 . S
C121 C123 1.390 . S
C121 H125 0.950 . S
H122 C118 0.950 . S
C123 C121 1.390 . S
C123 C124 1.387 . S
C123 H126 0.950 . S
C124 C123 1.387 . S
C124 C127 1.387 . S
H125 C121 0.950 . S
H126 C123 0.950 . S
C127 C118 1.390 . S
C127 H120 0.950 . S
C127 C124 1.387 . S
C128 C129 1.387 . S
C128 H132 0.950 . S
C128 C137 1.390 . S
C129 C128 1.387 . S
C129 C131 1.387 . S
H130 C137 0.950 . S
C131 C129 1.387 . S
C131 C133 1.390 . S
C131 H135 0.950 . S
H132 C128 0.950 . S
C133 C131 1.390 . S
C133 C134 1.387 . S
C133 H136 0.950 . S
C134 C133 1.387 . S
C134 C137 1.387 . S
H135 C131 0.950 . S
H136 C133 0.950 . S
C137 C128 1.390 . S
C137 H130 0.950 . S
C137 C134 1.387 . S
C138 C139 1.387 . S
C138 H142 0.950 . S
C138 C147 1.390 . S
C139 C138 1.387 . S
C139 C141 1.387 . S
H140 C147 0.950 . S
C141 C139 1.387 . S
C141 C143 1.390 . S
C141 H145 0.950 . S
H142 C138 0.950 . S
C143 C141 1.390 . S
C143 C144 1.387 . S
C143 H146 0.950 . S
C144 C143 1.387 . S
C144 C147 1.387 . S
H145 C141 0.950 . S
H146 C143 0.950 . S
C147 C138 1.390 . S
C147 H140 0.950 . S
C147 C144 1.387 . S
C148 C149 1.387 . S
C148 H152 0.950 . S
C148 C157 1.390 . S
C149 C148 1.387 . S
C149 C151 1.387 . S
H150 C157 0.950 . S
C151 C149 1.387 . S
C151 C153 1.390 . S
C151 H155 0.950 . S
H152 C148 0.950 . S
C153 C151 1.390 . S
C153 C154 1.387 . S
C153 H156 0.950 . S
C154 C153 1.387 . S
C154 C157 1.387 . S
H155 C151 0.950 . S
H156 C153 0.950 . S
C157 C148 1.390 . S
C157 H150 0.950 . S
C157 C154 1.387 . S
C158 C159 1.387 . S
C158 H162 0.950 . S
C158 C167 1.390 . S
C159 C158 1.387 . S
C159 C161 1.387 . S
H160 C167 0.950 . S
C161 C159 1.387 . S
C161 C163 1.390 . S
C161 H165 0.950 . S
H162 C158 0.950 . S
C163 C161 1.390 . S
C163 C164 1.387 . S
C163 H166 0.950 . S
C164 C163 1.387 . S
C164 C167 1.387 . S
H165 C161 0.950 . S
H166 C163 0.950 . S
C167 C158 1.390 . S
C167 H160 0.950 . S
C167 C164 1.387 . S
C168 C169 1.387 . S
C168 H172 0.950 . S
C168 C177 1.390 . S
C169 C168 1.387 . S
C169 C171 1.387 . S
H170 C177 0.950 . S
C171 C169 1.387 . S
C171 C173 1.390 . S
C171 H175 0.950 . S
H172 C168 0.950 . S
C173 C171 1.390 . S
C173 C174 1.387 . S
C173 H176 0.950 . S
C174 C173 1.387 . S
C174 C177 1.387 . S
H175 C171 0.950 . S
H176 C173 0.950 . S
C177 C168 1.390 . S
C177 H170 0.950 . S
C177 C174 1.387 . S
C178 C179 1.387 . S
C178 H182 0.950 . S
C178 C187 1.390 . S
C179 C178 1.387 . S
C179 C181 1.387 . S
H180 C187 0.950 . S
C181 C179 1.387 . S
C181 C183 1.390 . S
C181 H185 0.950 . S
H182 C178 0.950 . S
C183 C181 1.390 . S
C183 C184 1.387 . S
C183 H186 0.950 . S
C184 C183 1.387 . S
C184 C187 1.387 . S
H185 C181 0.950 . S
H186 C183 0.950 . S
C187 C178 1.390 . S
C187 H180 0.950 . S
C187 C184 1.387 . S
C188 C189 1.387 . S
C188 H192 0.950 . S
C188 C197 1.390 . S
C189 C188 1.387 . S
C189 C191 1.387 . S
H190 C197 0.950 . S
C191 C189 1.387 . S
C191 C193 1.390 . S
C191 H195 0.950 . S
H192 C188 0.950 . S
C193 C191 1.390 . S
C193 C194 1.387 . S
C193 H196 0.950 . S
C194 C193 1.387 . S
C194 C197 1.387 . S
H195 C191 0.950 . S
H196 C193 0.950 . S
C197 C188 1.390 . S
C197 H190 0.950 . S
C197 C194 1.387 . S
C198 C199 1.387 . S
C198 H202 0.950 . S
C198 C207 1.390 . S
C199 C198 1.387 . S
C199 C201 1.387 . S
H200 C207 0.950 . S
C201 C199 1.387 . S
C201 C203 1.390 . S
C201 H205 0.950 . S
H202 C198 0.950 . S
C203 C201 1.390 . S
C203 C204 1.387 . S
C203 H206 0.950 . S
C204 C203 1.387 . S
C204 C207 1.387 . S
H205 C201 0.950 . S
H206 C203 0.950 . S
C207 C198 1.390 . S
C207 H200 0.950 . S
C207 C204 1.387 . S
C89 C18 1.536 . S
C94 C65 1.384 . S
C99 C44 1.502 . S
C104 C71 1.363 . S
C109 C20 1.494 . S
C114 C62 1.436 . S
C119 C42 1.535 . S
C124 C87 1.477 . S
C129 C17 1.498 . S
C134 C53 1.330 . S
C144 C70 1.378 . S
C139 C40 1.527 . S
C149 C43 1.499 . S
C154 C66 1.365 . S
C164 C83 1.382 . S
C159 C16 1.538 . S
C174 C50 1.358 . S
C169 C39 1.526 . S
C184 C86 1.451 . S
C179 C21 1.489 . S
C194 C49 1.489 . S
C189 C41 1.514 . S
C204 C74 1.372 . S
C199 C19 1.489 . S
