# Generated by pormake.
# Topology bcu-b, (8,8)-cn, num edge types: 1
# Building blocks:
#     Node 0, Type 0, BuildingBlock: TAGTUT_clean_sbu_3, # of connection points: 8
#     Node 1, Type 1, BuildingBlock: GIZVER_clean_sbu_0, # of connection points: 8
#     Edge 2, Type (0, 1), BuildingBlock: OJICUG_clean_linker_0, # of connection points: 2
#     Edge 3, Type (0, 1), BuildingBlock: OJICUG_clean_linker_0, # of connection points: 2
#     Edge 4, Type (0, 1), BuildingBlock: OJICUG_clean_linker_0, # of connection points: 2
#     Edge 5, Type (0, 1), BuildingBlock: OJICUG_clean_linker_0, # of connection points: 2
#     Edge 6, Type (0, 1), BuildingBlock: OJICUG_clean_linker_0, # of connection points: 2
#     Edge 7, Type (0, 1), BuildingBlock: OJICUG_clean_linker_0, # of connection points: 2
#     Edge 8, Type (0, 1), BuildingBlock: OJICUG_clean_linker_0, # of connection points: 2
#     Edge 9, Type (0, 1), BuildingBlock: OJICUG_clean_linker_0, # of connection points: 2
# Relax obj value: 0.084
# Max RMSD: 0.157
# Mean RMSD: 0.153
data_MOF--net-bcu-b--node1-TAGTUT_clean_sbu_3--node2-GIZVER_clean_sbu_0--edge1-OJICUG_clean_linker_0
_symmetry_space_group_name_H-M    P1
_symmetry_Int_Tables_number       1
_symmetry_cell_setting            triclinic
loop_
_symmetry_equiv_pos_as_xyz
'x, y, z'
_cell_length_a     16.013191
_cell_length_b     17.753267
_cell_length_c     13.685345
_cell_angle_alpha  89.803631
_cell_angle_beta   90.924729
_cell_angle_gamma 113.96995
loop_
_atom_site_label
_atom_site_type_symbol
_atom_site_fract_x
_atom_site_fract_y
_atom_site_fract_z
_atom_type_partial_charge
C0 C 0.16912 0.12703 0.13937 0.0
C1 C 0.19074 0.84505 0.09954 0.0
C2 C 0.13457 0.85776 0.79628 0.0
Mg3 Mg 0.02844 0.19657 0.0218 0.0
Mg4 Mg 0.82668 0.05363 0.97514 0.0
O5 O 0.95192 0.09261 0.95149 0.0
Mg6 Mg 0.01037 0.01651 -0.01408 0.0
O7 O 0.0751 0.94559 0.02003 0.0
Mg8 Mg 0.20108 0.00982 0.9713 0.0
Mg9 Mg 0.0216 0.83566 0.97799 0.0
C10 C 0.83543 0.90847 0.8494 0.0
O11 O 0.89037 0.92824 0.08246 0.0
O12 O 0.94895 0.25415 0.91661 0.0
O13 O 0.88448 0.80575 0.02754 0.0
O14 O 0.92447 0.18493 0.139 0.0
O15 O 0.81329 0.14693 0.89015 0.0
O16 O 0.79345 0.0755 0.1229 0.0
O17 O 0.13581 0.09006 0.88903 0.0
O18 O 0.13626 0.21498 0.91016 0.0
C19 C 0.17067 0.16812 0.87425 0.0
C20 C 0.86899 0.22128 0.87461 0.0
O21 O 0.92213 0.93132 0.86293 0.0
O22 O 0.23943 0.9183 0.06812 0.0
O23 O 0.78751 0.93921 0.89602 0.0
O24 O 0.18777 0.92503 0.83768 0.0
O25 O 0.10755 0.80423 0.07257 0.0
O26 O 0.05691 0.81396 0.83227 0.0
O27 O 0.08782 0.11143 0.10784 0.0
O28 O 0.21748 0.09269 0.10201 0.0
C29 C 0.84472 0.14074 0.16917 0.0
C30 C 0.85087 0.84876 0.07529 0.0
Co31 Co 0.59767 0.37214 0.44476 0.0
Co32 Co 0.63395 0.45924 0.60388 0.0
Co33 Co 0.51132 0.51703 0.48524 0.0
O34 O 0.61546 0.48366 0.47683 0.0
H35 H 0.6701 0.52567 0.45011 0.0
O36 O 0.40624 0.54904 0.49169 0.0
Co37 Co 0.41875 0.6571 0.52961 0.0
Co38 Co 0.38884 0.57721 0.36541 0.0
H39 H 0.35124 0.50542 0.51538 0.0
O40 O 0.74697 0.47583 0.64023 0.0
O41 O 0.6324 0.35658 0.58491 0.0
O42 O 0.54357 0.44154 0.70334 0.0
O43 O 0.44378 0.43156 0.58591 0.0
O44 O 0.57785 0.59867 0.5878 0.0
O45 O 0.41878 0.7531 0.56756 0.0
O46 O 0.29813 0.63119 0.55102 0.0
O47 O 0.54805 0.69836 0.51883 0.0
O48 O 0.57843 0.60346 0.3848 0.0
O49 O 0.47712 0.58609 0.26609 0.0
O50 O 0.40423 0.68418 0.3905 0.0
O51 O 0.28056 0.57823 0.32685 0.0
C52 C 0.67443 0.31178 0.39424 0.0
C53 C 0.42198 0.35793 0.4015 0.0
C54 C 0.46233 0.41207 0.67056 0.0
C55 C 0.71259 0.39623 0.62875 0.0
C56 C 0.33142 0.70916 0.57553 0.0
C57 C 0.59538 0.67488 0.57761 0.0
C58 C 0.55882 0.617 0.29768 0.0
C59 C 0.32643 0.65666 0.3427 0.0
O60 O 0.58843 0.27282 0.41312 0.0
O61 O 0.71458 0.39135 0.41108 0.0
O62 O 0.44494 0.43433 0.38431 0.0
O63 O 0.46804 0.33469 0.46327 0.0
C64 C 0.256 0.15569 0.29507 0.0
C65 C 0.21094 0.18227 0.2226 0.0
H66 H 0.35762 0.19012 0.40905 0.0
C67 C 0.22591 0.26554 0.21862 0.0
H68 H 0.24564 0.0915 0.29893 0.0
C69 C 0.29129 0.3225 0.28097 0.0
C70 C 0.34226 0.2967 0.34805 0.0
H71 H 0.19294 0.28744 0.16236 0.0
H72 H 0.30542 0.38724 0.27273 0.0
C73 C 0.32071 0.21223 0.35754 0.0
C74 C 0.71413 0.13831 0.27067 0.0
C75 C 0.80632 0.1771 0.24497 0.0
H76 H 0.60084 0.15011 0.33824 0.0
C77 C 0.85789 0.25807 0.27952 0.0
H78 H 0.67229 0.07631 0.24568 0.0
C79 C 0.81652 0.30136 0.33131 0.0
C80 C 0.7229 0.26434 0.35099 0.0
H81 H 0.92939 0.29016 0.26166 0.0
H82 H 0.85709 0.36468 0.35256 0.0
C83 C 0.6731 0.18124 0.32335 0.0
C84 C 0.69523 0.73667 0.08266 0.0
C85 C 0.76762 0.80126 0.12986 0.0
H86 H 0.57161 0.6278 0.09884 0.0
C87 C 0.76839 0.80739 0.23193 0.0
H88 H 0.69428 0.73016 0.00387 0.0
C89 C 0.70043 0.74713 0.28634 0.0
C90 C 0.62959 0.68078 0.23934 0.0
H91 H 0.82455 0.85564 0.26987 0.0
H92 H 0.70391 0.75198 0.36533 0.0
C93 C 0.62592 0.67767 0.13686 0.0
C94 C 0.32201 0.83401 0.19383 0.0
C95 C 0.22806 0.80482 0.17212 0.0
H96 H 0.42767 0.80948 0.26778 0.0
C97 C 0.16721 0.73335 0.21913 0.0
H98 H 0.37026 0.88945 0.15981 0.0
C99 C 0.19962 0.68841 0.28005 0.0
C100 C 0.29349 0.7141 0.29634 0.0
H101 H 0.09404 0.71012 0.20666 0.0
H102 H 0.15121 0.63162 0.31148 0.0
C103 C 0.35464 0.78879 0.25607 0.0
C104 C 0.13385 0.73742 0.69773 0.0
C105 C 0.17334 0.82248 0.71937 0.0
H106 H 0.15258 0.63451 0.6353 0.0
C107 C 0.25965 0.87064 0.68085 0.0
H108 H 0.06765 0.69819 0.72627 0.0
C109 C 0.30842 0.83405 0.62965 0.0
C110 C 0.27231 0.7482 0.61503 0.0
H111 H 0.29219 0.9363 0.6952 0.0
H112 H 0.37647 0.87294 0.60537 0.0
C113 C 0.18283 0.70069 0.64604 0.0
C114 C 0.33514 0.25704 0.86588 0.0
C115 C 0.25283 0.20974 0.81663 0.0
H116 H 0.46608 0.35902 0.85892 0.0
C117 C 0.24179 0.22647 0.71841 0.0
H118 H 0.34349 0.24707 0.94295 0.0
C119 C 0.31005 0.29208 0.67134 0.0
C120 C 0.39095 0.34238 0.72171 0.0
H121 H 0.17754 0.19273 0.68018 0.0
H122 H 0.29821 0.3045 0.59601 0.0
C123 C 0.40414 0.32232 0.81853 0.0
C124 C 0.75887 0.22364 0.74449 0.0
C125 C 0.83704 0.26728 0.80333 0.0
H126 H 0.65903 0.22957 0.64248 0.0
C127 C 0.87989 0.35311 0.79486 0.0
H128 H 0.72497 0.15702 0.74708 0.0
C129 C 0.84189 0.39462 0.73362 0.0
C130 C 0.7603 0.35106 0.67976 0.0
H131 H 0.94054 0.38834 0.83798 0.0
H132 H 0.87482 0.46129 0.73156 0.0
C133 C 0.72099 0.26499 0.68359 0.0
C134 C 0.73629 0.87526 0.70335 0.0
C135 C 0.78797 0.85135 0.77034 0.0
H136 H 0.63621 0.83866 0.58874 0.0
C137 C 0.78392 0.77113 0.76733 0.0
H138 H 0.73911 0.93731 0.70458 0.0
C139 C 0.72357 0.71367 0.70159 0.0
C140 C 0.66786 0.73661 0.63792 0.0
H141 H 0.8232 0.75181 0.81908 0.0
H142 H 0.71815 0.65084 0.70311 0.0
C143 C 0.67736 0.81871 0.63722 0.0
loop_
_geom_bond_atom_site_label_1
_geom_bond_atom_site_label_2
_geom_bond_distance
_geom_bond_site_symmetry_2
_ccdc_geom_bond_type
C0 O27 1.312 . S
C0 O28 1.208 . S
C1 O22 1.331 . S
C1 O25 1.244 . S
C2 O24 1.264 . S
C2 O26 1.273 . S
Mg3 O5 1.936 . S
Mg3 O12 2.081 . S
Mg3 O14 2.023 1_556 S
Mg3 O18 2.031 1_655 S
Mg3 O27 2.291 1_656 S
Mg4 O5 1.963 . S
Mg4 O15 1.942 . S
Mg4 O16 1.955 1_556 S
Mg4 O23 1.986 1_545 S
O5 Mg3 1.936 . S
O5 Mg4 1.963 . S
O5 Mg6 1.913 1_556 S
Mg6 O5 1.913 1_554 S
Mg6 O7 1.917 1_645 S
Mg6 O11 2.019 1_545 S
Mg6 O17 2.109 1_654 S
Mg6 O21 2.007 1_544 S
Mg6 O27 2.119 1_655 S
O7 Mg6 1.917 1_465 S
O7 Mg8 1.936 1_565 S
O7 Mg9 1.963 . S
Mg8 O7 1.936 1_545 S
Mg8 O17 2.291 1_554 S
Mg8 O22 2.081 1_545 S
Mg8 O24 2.023 1_544 S
Mg8 O28 2.031 . S
Mg9 O7 1.963 . S
Mg9 O13 1.986 1_455 S
Mg9 O25 1.942 . S
Mg9 O26 1.955 1_554 S
C10 O21 1.191 . S
C10 O23 1.307 . S
O11 Mg6 2.019 1_565 S
O11 C30 1.191 . S
O12 Mg3 2.081 . S
O12 C20 1.331 . S
O13 Mg9 1.986 1_655 S
O13 C30 1.307 . S
O14 Mg3 2.023 1_554 S
O14 C29 1.264 . S
O15 Mg4 1.942 . S
O15 C20 1.244 . S
O16 Mg4 1.955 1_554 S
O16 C29 1.273 . S
O17 Mg6 2.109 1_456 S
O17 Mg8 2.291 1_556 S
O17 C19 1.312 . S
O18 Mg3 2.031 1_455 S
O18 C19 1.208 . S
C19 O17 1.312 . S
C19 O18 1.208 . S
C20 O12 1.331 . S
C20 O15 1.244 . S
O21 Mg6 2.007 1_566 S
O21 C10 1.191 . S
O22 C1 1.331 . S
O22 Mg8 2.081 1_565 S
O23 Mg4 1.986 1_565 S
O23 C10 1.307 . S
O24 C2 1.264 . S
O24 Mg8 2.023 1_566 S
O25 C1 1.244 . S
O25 Mg9 1.942 . S
O26 C2 1.273 . S
O26 Mg9 1.955 1_556 S
O27 C0 1.312 . S
O27 Mg3 2.291 1_454 S
O27 Mg6 2.119 1_455 S
O28 C0 1.208 . S
O28 Mg8 2.031 . S
C29 O14 1.264 . S
C29 O16 1.273 . S
C30 O11 1.191 . S
C30 O13 1.307 . S
Co31 O34 2.042 . S
Co31 O41 2.264 . S
Co31 O60 2.286 . S
Co31 O61 2.069 . S
Co31 O63 2.015 . S
Co32 O34 2.122 . S
Co32 O40 2.073 . S
Co32 O41 2.327 . S
Co32 O42 1.976 . S
Co33 O34 2.087 . S
Co33 O36 2.087 . S
Co33 O43 2.111 . S
Co33 O44 2.143 . S
Co33 O48 2.111 . S
Co33 O62 2.143 . S
O34 Co31 2.042 . S
O34 Co32 2.122 . S
O34 Co33 2.087 . S
O34 H35 0.980 . S
H35 O34 0.980 . S
O36 Co33 2.087 . S
O36 Co37 2.042 . S
O36 Co38 2.122 . S
O36 H39 0.980 . S
Co37 O36 2.042 . S
Co37 O45 2.286 . S
Co37 O46 2.069 . S
Co37 O47 2.015 . S
Co37 O50 2.264 . S
Co38 O36 2.122 . S
Co38 O49 1.976 . S
Co38 O50 2.327 . S
Co38 O51 2.073 . S
H39 O36 0.980 . S
O40 Co32 2.073 . S
O40 C55 1.245 . S
O41 Co31 2.264 . S
O41 Co32 2.327 . S
O41 C55 1.257 . S
O42 Co32 1.976 . S
O42 C54 1.251 . S
O43 Co33 2.111 . S
O43 C54 1.274 . S
O44 Co33 2.143 . S
O44 C57 1.246 . S
O45 Co37 2.286 . S
O45 C56 1.259 . S
O46 Co37 2.069 . S
O46 C56 1.289 . S
O47 Co37 2.015 . S
O47 C57 1.257 . S
O48 Co33 2.111 . S
O48 C58 1.274 . S
O49 Co38 1.976 . S
O49 C58 1.251 . S
O50 Co37 2.264 . S
O50 Co38 2.327 . S
O50 C59 1.257 . S
O51 Co38 2.073 . S
O51 C59 1.245 . S
C52 O60 1.259 . S
C52 O61 1.289 . S
C53 O62 1.246 . S
C53 O63 1.257 . S
C54 O42 1.251 . S
C54 O43 1.274 . S
C55 O40 1.245 . S
C55 O41 1.257 . S
C56 O45 1.259 . S
C56 O46 1.289 . S
C57 O44 1.246 . S
C57 O47 1.257 . S
C58 O48 1.274 . S
C58 O49 1.251 . S
C59 O50 1.257 . S
C59 O51 1.245 . S
O60 Co31 2.286 . S
O60 C52 1.259 . S
O61 Co31 2.069 . S
O61 C52 1.289 . S
O62 Co33 2.143 . S
O62 C53 1.246 . S
O63 Co31 2.015 . S
O63 C53 1.257 . S
C64 C65 1.387 . S
C64 H68 0.950 . S
C64 C73 1.390 . S
C65 C64 1.387 . S
C65 C67 1.387 . S
H66 C73 0.950 . S
C67 C65 1.387 . S
C67 C69 1.390 . S
C67 H71 0.950 . S
H68 C64 0.950 . S
C69 C67 1.390 . S
C69 C70 1.387 . S
C69 H72 0.950 . S
C70 C69 1.387 . S
C70 C73 1.387 . S
H71 C67 0.950 . S
H72 C69 0.950 . S
C73 C64 1.390 . S
C73 H66 0.950 . S
C73 C70 1.387 . S
C74 C75 1.387 . S
C74 H78 0.950 . S
C74 C83 1.390 . S
C75 C74 1.387 . S
C75 C77 1.387 . S
H76 C83 0.950 . S
C77 C75 1.387 . S
C77 C79 1.390 . S
C77 H81 0.950 . S
H78 C74 0.950 . S
C79 C77 1.390 . S
C79 C80 1.387 . S
C79 H82 0.950 . S
C80 C79 1.387 . S
C80 C83 1.387 . S
H81 C77 0.950 . S
H82 C79 0.950 . S
C83 C74 1.390 . S
C83 H76 0.950 . S
C83 C80 1.387 . S
C84 C85 1.387 . S
C84 H88 0.950 . S
C84 C93 1.390 . S
C85 C84 1.387 . S
C85 C87 1.387 . S
H86 C93 0.950 . S
C87 C85 1.387 . S
C87 C89 1.390 . S
C87 H91 0.950 . S
H88 C84 0.950 . S
C89 C87 1.390 . S
C89 C90 1.387 . S
C89 H92 0.950 . S
C90 C89 1.387 . S
C90 C93 1.387 . S
H91 C87 0.950 . S
H92 C89 0.950 . S
C93 C84 1.390 . S
C93 H86 0.950 . S
C93 C90 1.387 . S
C94 C95 1.387 . S
C94 H98 0.950 . S
C94 C103 1.390 . S
C95 C94 1.387 . S
C95 C97 1.387 . S
H96 C103 0.950 . S
C97 C95 1.387 . S
C97 C99 1.390 . S
C97 H101 0.950 . S
H98 C94 0.950 . S
C99 C97 1.390 . S
C99 C100 1.387 . S
C99 H102 0.950 . S
C100 C99 1.387 . S
C100 C103 1.387 . S
H101 C97 0.950 . S
H102 C99 0.950 . S
C103 C94 1.390 . S
C103 H96 0.950 . S
C103 C100 1.387 . S
C104 C105 1.387 . S
C104 H108 0.950 . S
C104 C113 1.390 . S
C105 C104 1.387 . S
C105 C107 1.387 . S
H106 C113 0.950 . S
C107 C105 1.387 . S
C107 C109 1.390 . S
C107 H111 0.950 . S
H108 C104 0.950 . S
C109 C107 1.390 . S
C109 C110 1.387 . S
C109 H112 0.950 . S
C110 C109 1.387 . S
C110 C113 1.387 . S
H111 C107 0.950 . S
H112 C109 0.950 . S
C113 C104 1.390 . S
C113 H106 0.950 . S
C113 C110 1.387 . S
C114 C115 1.387 . S
C114 H118 0.950 . S
C114 C123 1.390 . S
C115 C114 1.387 . S
C115 C117 1.387 . S
H116 C123 0.950 . S
C117 C115 1.387 . S
C117 C119 1.390 . S
C117 H121 0.950 . S
H118 C114 0.950 . S
C119 C117 1.390 . S
C119 C120 1.387 . S
C119 H122 0.950 . S
C120 C119 1.387 . S
C120 C123 1.387 . S
H121 C117 0.950 . S
H122 C119 0.950 . S
C123 C114 1.390 . S
C123 H116 0.950 . S
C123 C120 1.387 . S
C124 C125 1.387 . S
C124 H128 0.950 . S
C124 C133 1.390 . S
C125 C124 1.387 . S
C125 C127 1.387 . S
H126 C133 0.950 . S
C127 C125 1.387 . S
C127 C129 1.390 . S
C127 H131 0.950 . S
H128 C124 0.950 . S
C129 C127 1.390 . S
C129 C130 1.387 . S
C129 H132 0.950 . S
C130 C129 1.387 . S
C130 C133 1.387 . S
H131 C127 0.950 . S
H132 C129 0.950 . S
C133 C124 1.390 . S
C133 H126 0.950 . S
C133 C130 1.387 . S
C134 C135 1.387 . S
C134 H138 0.950 . S
C134 C143 1.390 . S
C135 C134 1.387 . S
C135 C137 1.387 . S
H136 C143 0.950 . S
C137 C135 1.387 . S
C137 C139 1.390 . S
C137 H141 0.950 . S
H138 C134 0.950 . S
C139 C137 1.390 . S
C139 C140 1.387 . S
C139 H142 0.950 . S
C140 C139 1.387 . S
C140 C143 1.387 . S
H141 C137 0.950 . S
H142 C139 0.950 . S
C143 C134 1.390 . S
C143 H136 0.950 . S
C143 C140 1.387 . S
C65 C0 1.440 . S
C70 C53 1.459 . S
C75 C29 1.611 . S
C80 C52 1.646 . S
C85 C30 1.405 . S
C90 C58 1.346 . S
C95 C1 1.494 . S
C100 C59 1.447 . S
C105 C2 1.607 . S
C110 C56 1.648 . S
C120 C54 1.382 . S
C115 C19 1.418 . S
C125 C20 1.488 . S
C130 C55 1.441 . S
C140 C57 1.417 . S
C135 C10 1.427 . S
