# Generated by pormake.
# Topology scu, (8,4)-cn, num edge types: 1
# Building blocks:
#     Node 0, Type 0, BuildingBlock: TAGTUT_clean_sbu_3, # of connection points: 8
#     Node 1, Type 1, BuildingBlock: MUDLON_clean_sbu_0, # of connection points: 4
#     Node 2, Type 1, BuildingBlock: MUDLON_clean_sbu_0, # of connection points: 4
#     Edge 3, Type (0, 1), BuildingBlock: EYOCIG_clean_linker_4, # of connection points: 2
#     Edge 4, Type (0, 1), BuildingBlock: EYOCIG_clean_linker_4, # of connection points: 2
#     Edge 5, Type (0, 1), BuildingBlock: EYOCIG_clean_linker_4, # of connection points: 2
#     Edge 6, Type (0, 1), BuildingBlock: EYOCIG_clean_linker_4, # of connection points: 2
#     Edge 7, Type (0, 1), BuildingBlock: EYOCIG_clean_linker_4, # of connection points: 2
#     Edge 8, Type (0, 1), BuildingBlock: EYOCIG_clean_linker_4, # of connection points: 2
#     Edge 9, Type (0, 1), BuildingBlock: EYOCIG_clean_linker_4, # of connection points: 2
#     Edge 10, Type (0, 1), BuildingBlock: EYOCIG_clean_linker_4, # of connection points: 2
# Relax obj value: 0.057
# Max RMSD: 0.131
# Mean RMSD: 0.085
data_MOF--net-scu--node1-TAGTUT_clean_sbu_3--node2-MUDLON_clean_sbu_0--edge1-EYOCIG_clean_linker_4
_symmetry_space_group_name_H-M    P1
_symmetry_Int_Tables_number       1
_symmetry_cell_setting            triclinic
loop_
_symmetry_equiv_pos_as_xyz
'x, y, z'
_cell_length_a     22.920693
_cell_length_b     18.678226
_cell_length_c     17.128616
_cell_angle_alpha  90.01812
_cell_angle_beta   91.710162
_cell_angle_gamma 90.071223
loop_
_atom_site_label
_atom_site_type_symbol
_atom_site_fract_x
_atom_site_fract_y
_atom_site_fract_z
_atom_type_partial_charge
C0 C 0.98747 0.8457 0.11923 0.0
C1 C 0.77835 0.9602 0.12407 0.0
C2 C 0.80948 0.01987 0.88785 0.0
Mg3 Mg 0.10182 0.89445 0.02029 0.0
Mg4 Mg 0.12067 0.06545 0.98016 0.0
O5 O 0.07164 -0.01472 0.97159 0.0
Mg6 Mg -0.00906 -0.01078 0.0127 0.0
O7 O 0.91026 -0.01437 0.05358 0.0
Mg8 Mg 0.87918 0.89616 0.00254 0.0
Mg9 Mg 0.86216 0.06649 0.04476 0.0
C10 C 0.00511 0.13407 0.90517 0.0
O11 O 0.00966 0.08076 0.10203 0.0
O12 O 0.17971 0.90576 0.93471 0.0
O13 O 0.92383 0.1412 0.09851 0.0
O14 O 0.15864 0.9529 0.11493 0.0
O15 O 0.18695 0.0237 0.90725 0.0
O16 O 0.15885 0.07135 0.09711 0.0
O17 O 0.96247 0.90025 0.92677 0.0
O18 O 0.04532 0.83721 0.92654 0.0
C19 C -0.00742 0.84743 0.90271 0.0
C20 C 0.20316 0.95871 0.89896 0.0
O21 O 0.97269 0.08116 0.92493 0.0
O22 O 0.80136 0.90731 0.08784 0.0
O23 O 0.05893 0.14092 0.92711 0.0
O24 O 0.82376 0.95648 0.90856 0.0
O25 O 0.79508 0.0251 0.11649 0.0
O26 O 0.82535 0.07471 0.92749 0.0
O27 O 0.0184 0.89854 0.09664 0.0
O28 O 0.93468 0.83677 0.09497 0.0
C29 C 0.1742 0.01587 0.13598 0.0
C30 C 0.97735 0.13397 0.12133 0.0
Mg31 Mg 0.98608 0.49177 0.51139 0.0
C32 C 0.01439 0.38492 0.3929 0.0
O33 O 0.06601 0.40607 0.41883 0.0
C34 C 0.9855 0.60894 0.62496 0.0
O35 O 0.04123 0.60055 0.61195 0.0
C36 C -0.00261 0.37505 0.62921 0.0
O37 O 0.0521 0.3822 0.61013 0.0
O38 O 0.9585 0.41372 0.59627 0.0
O39 O 0.96882 0.41208 0.42129 0.0
O40 O 0.97766 0.57302 0.42139 0.0
C41 C 0.02422 0.59771 0.39348 0.0
O42 O 0.07493 0.57353 0.4191 0.0
O43 O 0.9482 0.5699 0.58874 0.0
Mg44 Mg 0.4922 0.00455 0.51318 0.0
C45 C 0.39529 -0.0058 0.39725 0.0
O46 O 0.41187 0.92729 0.40597 0.0
C47 C 0.59236 -0.00265 0.62214 0.0
O48 O 0.58024 0.92986 0.60713 0.0
C49 C 0.4048 0.93512 0.62606 0.0
O50 O 0.41015 0.87688 0.5843 0.0
O51 O 0.4342 -0.00967 0.61031 0.0
O52 O 0.42256 0.0436 0.43481 0.0
O53 O 0.55463 -0.00732 0.42103 0.0
C54 C 0.57307 0.93517 0.39175 0.0
O55 O 0.55381 0.87336 0.41632 0.0
O56 O 0.56099 0.04649 0.59059 0.0
C57 C 0.00742 0.23175 0.22525 0.0
C58 C -0.00127 0.18463 0.17822 0.0
C59 C 0.00982 0.28576 0.28297 0.0
C60 C 0.01042 0.33108 0.33314 0.0
C61 C 0.69527 0.94282 0.22552 0.0
C62 C 0.7332 0.94698 0.17845 0.0
C63 C 0.65219 0.94068 0.28276 0.0
C64 C 0.61608 0.93826 0.3325 0.0
C65 C 0.01812 0.75239 0.22756 0.0
C66 C 0.00923 0.79778 0.17863 0.0
C67 C 0.02109 0.6985 0.28535 0.0
C68 C 0.02187 0.65248 0.33472 0.0
C69 C 0.25543 0.02232 0.24913 0.0
C70 C 0.21838 0.02236 0.19731 0.0
C71 C 0.30331 0.01756 0.30337 0.0
C72 C 0.34543 0.00993 0.34683 0.0
C73 C 0.96056 0.75746 0.7913 0.0
C74 C 0.9699 0.80147 0.84174 0.0
C75 C 0.96047 0.70505 0.73171 0.0
C76 C 0.96805 0.66023 0.68227 0.0
C77 C 0.28598 0.94151 0.79693 0.0
C78 C 0.24815 0.9455 0.84423 0.0
C79 C 0.32845 0.93977 0.73877 0.0
C80 C 0.36336 0.93798 0.68742 0.0
C81 C 0.97444 0.23006 0.79981 0.0
C82 C 0.98345 0.18385 0.84769 0.0
C83 C 0.97487 0.28214 0.74021 0.0
C84 C 0.98234 0.32536 0.68924 0.0
C85 C 0.73007 0.02781 0.77289 0.0
C86 C 0.76636 0.02766 0.82557 0.0
C87 C 0.68293 0.02257 0.71772 0.0
C88 C 0.64122 0.01417 0.67378 0.0
loop_
_geom_bond_atom_site_label_1
_geom_bond_atom_site_label_2
_geom_bond_distance
_geom_bond_site_symmetry_2
_ccdc_geom_bond_type
C0 O27 1.312 1_655 S
C0 O28 1.208 . S
C1 O22 1.331 . S
C1 O25 1.244 1_565 S
C2 O24 1.264 1_545 S
C2 O26 1.273 . S
Mg3 O5 1.936 1_564 S
Mg3 O12 2.081 1_554 S
Mg3 O14 2.023 . S
Mg3 O18 2.031 1_554 S
Mg3 O27 2.291 . S
Mg4 O5 1.963 . S
Mg4 O15 1.942 . S
Mg4 O16 1.955 1_556 S
Mg4 O23 1.986 . S
O5 Mg3 1.936 1_546 S
O5 Mg4 1.963 . S
O5 Mg6 1.915 1_556 S
Mg6 O5 1.915 1_554 S
Mg6 O7 1.915 1_455 S
Mg6 O11 2.013 . S
Mg6 O17 2.114 1_444 S
Mg6 O21 2.013 1_454 S
Mg6 O27 2.114 1_545 S
O7 Mg6 1.915 1_655 S
O7 Mg8 1.936 1_545 S
O7 Mg9 1.963 . S
Mg8 O7 1.936 1_565 S
Mg8 O17 2.291 1_554 S
Mg8 O22 2.081 . S
Mg8 O24 2.023 1_554 S
Mg8 O28 2.031 . S
Mg9 O7 1.963 . S
Mg9 O13 1.986 . S
Mg9 O25 1.942 . S
Mg9 O26 1.955 1_554 S
C10 O21 1.191 1_455 S
C10 O23 1.307 . S
O11 Mg6 2.013 . S
O11 C30 1.191 1_455 S
O12 Mg3 2.081 1_556 S
O12 C20 1.331 . S
O13 Mg9 1.986 . S
O13 C30 1.307 . S
O14 Mg3 2.023 . S
O14 C29 1.264 1_565 S
O15 Mg4 1.942 . S
O15 C20 1.244 1_545 S
O16 Mg4 1.955 1_554 S
O16 C29 1.273 . S
O17 Mg6 2.114 1_666 S
O17 Mg8 2.291 1_556 S
O17 C19 1.312 1_655 S
O18 Mg3 2.031 1_556 S
O18 C19 1.208 . S
C19 O17 1.312 1_455 S
C19 O18 1.208 . S
C20 O12 1.331 . S
C20 O15 1.244 1_565 S
O21 Mg6 2.013 1_656 S
O21 C10 1.191 1_655 S
O22 C1 1.331 . S
O22 Mg8 2.081 . S
O23 Mg4 1.986 . S
O23 C10 1.307 . S
O24 C2 1.264 1_565 S
O24 Mg8 2.023 1_556 S
O25 C1 1.244 1_545 S
O25 Mg9 1.942 . S
O26 C2 1.273 . S
O26 Mg9 1.955 1_556 S
O27 C0 1.312 1_455 S
O27 Mg3 2.291 . S
O27 Mg6 2.114 1_565 S
O28 C0 1.208 . S
O28 Mg8 2.031 . S
C29 O14 1.264 1_545 S
C29 O16 1.273 . S
C30 O11 1.191 1_655 S
C30 O13 1.307 . S
Mg31 O38 2.141 . S
Mg31 O39 2.048 . S
Mg31 O40 2.048 . S
Mg31 O43 2.141 . S
C32 O33 1.313 . S
C32 O39 1.195 1_455 S
O33 C32 1.313 . S
C34 O35 1.245 . S
C34 O43 1.289 1_455 S
O35 C34 1.245 . S
C36 O37 1.245 . S
C36 O38 1.289 1_455 S
O37 C36 1.245 . S
O38 Mg31 2.141 . S
O38 C36 1.289 1_655 S
O39 Mg31 2.048 . S
O39 C32 1.195 1_655 S
O40 Mg31 2.048 . S
O40 C41 1.195 1_655 S
C41 O40 1.195 1_455 S
C41 O42 1.313 . S
O42 C41 1.313 . S
O43 Mg31 2.141 . S
O43 C34 1.289 1_655 S
Mg44 O51 2.141 . S
Mg44 O52 2.048 . S
Mg44 O53 2.048 . S
Mg44 O56 2.141 . S
C45 O46 1.313 . S
C45 O52 1.195 1_565 S
O46 C45 1.313 . S
C47 O48 1.245 . S
C47 O56 1.289 1_565 S
O48 C47 1.245 . S
C49 O50 1.245 . S
C49 O51 1.289 1_565 S
O50 C49 1.245 . S
O51 Mg44 2.141 . S
O51 C49 1.289 1_545 S
O52 Mg44 2.048 . S
O52 C45 1.195 1_545 S
O53 Mg44 2.048 . S
O53 C54 1.195 1_545 S
C54 O53 1.195 1_565 S
C54 O55 1.313 . S
O55 C54 1.313 . S
O56 Mg44 2.141 . S
O56 C47 1.289 1_545 S
C57 C58 1.170 . S
C57 C59 1.380 . S
C58 C57 1.170 . S
C59 C57 1.380 . S
C59 C60 1.170 . S
C60 C59 1.170 . S
C61 C62 1.170 . S
C61 C63 1.380 . S
C62 C61 1.170 . S
C63 C61 1.380 . S
C63 C64 1.170 . S
C64 C63 1.170 . S
C65 C66 1.170 . S
C65 C67 1.380 . S
C66 C65 1.170 . S
C67 C65 1.380 . S
C67 C68 1.170 . S
C68 C67 1.170 . S
C69 C70 1.170 . S
C69 C71 1.380 . S
C70 C69 1.170 . S
C71 C69 1.380 . S
C71 C72 1.170 . S
C72 C71 1.170 . S
C73 C74 1.170 . S
C73 C75 1.380 . S
C74 C73 1.170 . S
C75 C73 1.380 . S
C75 C76 1.170 . S
C76 C75 1.170 . S
C77 C78 1.170 . S
C77 C79 1.380 . S
C78 C77 1.170 . S
C79 C77 1.380 . S
C79 C80 1.170 . S
C80 C79 1.170 . S
C81 C82 1.170 . S
C81 C83 1.380 . S
C82 C81 1.170 . S
C83 C81 1.380 . S
C83 C84 1.170 . S
C84 C83 1.170 . S
C85 C86 1.170 . S
C85 C87 1.380 . S
C86 C85 1.170 . S
C87 C85 1.380 . S
C87 C88 1.170 . S
C88 C87 1.170 . S
C58 C30 1.413 1_455 S
C60 C32 1.425 . S
C62 C1 1.508 . S
C64 C54 1.504 . S
C66 C0 1.390 1_455 S
C68 C41 1.438 . S
C70 C29 1.524 . S
C72 C45 1.554 1_545 S
C74 C19 1.362 1_655 S
C76 C34 1.393 1_655 S
C78 C20 1.438 . S
C80 C49 1.433 . S
C84 C36 1.356 . S
C82 C10 1.344 . S
C86 C2 1.468 . S
C88 C47 1.493 1_545 S
