# Generated by pormake.
# Topology tsx, (6,3)-cn, num edge types: 1
# Building blocks:
#     Node 0, Type 0, BuildingBlock: FUNLAD_clean_sbu_0, # of connection points: 6
#     Node 1, Type 0, BuildingBlock: FUNLAD_clean_sbu_0, # of connection points: 6
#     Node 2, Type 1, BuildingBlock: WUSLED_clean_sbu_0, # of connection points: 3
#     Node 3, Type 1, BuildingBlock: WUSLED_clean_sbu_0, # of connection points: 3
#     Node 4, Type 1, BuildingBlock: WUSLED_clean_sbu_0, # of connection points: 3
#     Node 5, Type 1, BuildingBlock: WUSLED_clean_sbu_0, # of connection points: 3
#     Edge 6, Type (0, 1), None
#     Edge 7, Type (0, 1), None
#     Edge 8, Type (0, 1), None
#     Edge 9, Type (0, 1), None
#     Edge 10, Type (0, 1), None
#     Edge 11, Type (0, 1), None
#     Edge 12, Type (0, 1), None
#     Edge 13, Type (0, 1), None
#     Edge 14, Type (0, 1), None
#     Edge 15, Type (0, 1), None
#     Edge 16, Type (0, 1), None
#     Edge 17, Type (0, 1), None
# Relax obj value: 0.155
# Max RMSD: 0.149
# Mean RMSD: 0.066
data_MOF--net-tsx--node1-FUNLAD_clean_sbu_0--node2-WUSLED_clean_sbu_0--edge1-none
_symmetry_space_group_name_H-M    P1
_symmetry_Int_Tables_number       1
_symmetry_cell_setting            triclinic
loop_
_symmetry_equiv_pos_as_xyz
'x, y, z'
_cell_length_a     14.277973
_cell_length_b     15.757427
_cell_length_c     33.050669
_cell_angle_alpha  91.288146
_cell_angle_beta   92.200798
_cell_angle_gamma 89.907511
loop_
_atom_site_label
_atom_site_type_symbol
_atom_site_fract_x
_atom_site_fract_y
_atom_site_fract_z
_atom_type_partial_charge
C0 C 0.88612 0.87645 0.01197 0.0
N1 N 0.02455 0.01608 0.10245 0.0
C2 C 0.94027 0.01695 0.12022 0.0
C3 C 0.93578 0.01753 0.16221 0.0
C4 C 0.01879 0.0188 0.18649 0.0
C5 C 0.10505 0.01738 0.16743 0.0
C6 C 0.10631 0.01584 0.12509 0.0
Zn7 Zn 0.02445 0.00951 0.04062 0.0
C8 C 0.15905 0.87949 0.00874 0.0
N9 N 0.01738 0.98591 0.91188 0.0
C10 C 0.93706 0.97715 0.88855 0.0
C11 C 0.10231 0.99078 0.89487 0.0
C12 C 0.10884 0.98923 0.85299 0.0
C13 C 0.02723 0.98314 0.82801 0.0
C14 C 0.94042 0.9754 0.8462 0.0
Zn15 Zn 0.01675 0.99469 0.97373 0.0
O16 O 0.92157 0.91844 0.04173 0.0
C17 C 0.8832 0.12644 0.99964 0.0
O18 O 0.91223 0.89264 0.97641 0.0
H19 H 0.16541 0.997 0.91384 0.0
H20 H 0.8761 0.01663 0.10175 0.0
H21 H 0.87025 0.97324 0.90275 0.0
O22 O 0.91758 0.11096 0.03505 0.0
O23 O 0.91199 0.08399 0.96964 0.0
H24 H 0.17261 0.01459 0.11032 0.0
O25 O 0.12298 0.09692 0.97478 0.0
O26 O 0.12781 0.09932 0.04115 0.0
O27 O 0.12139 0.90588 0.97621 0.0
O28 O 0.13147 0.90946 0.04249 0.0
C29 C 0.15784 0.12657 0.00842 0.0
H30 H 0.86766 0.01698 0.17553 0.0
H31 H 0.17068 0.01911 0.18498 0.0
H32 H 0.17737 0.99397 0.84024 0.0
H33 H 0.87584 0.97109 0.82799 0.0
C34 C 0.39531 0.38322 0.50846 0.0
N35 N 0.52546 0.51548 0.60308 0.0
C36 C 0.44128 0.51509 0.62096 0.0
C37 C 0.43707 0.51629 0.66303 0.0
C38 C 0.52021 0.51928 0.68724 0.0
C39 C 0.60629 0.5178 0.66804 0.0
C40 C 0.60729 0.51574 0.62569 0.0
Zn41 Zn 0.52655 0.51353 0.54103 0.0
C42 C 0.66398 0.38842 0.50739 0.0
N43 N 0.52808 0.50502 0.4117 0.0
C44 C 0.44547 0.49473 0.3903 0.0
C45 C 0.61028 0.51319 0.39254 0.0
C46 C 0.61157 0.50961 0.35021 0.0
C47 C 0.52753 0.49698 0.32744 0.0
C48 C 0.44358 0.49066 0.34807 0.0
Zn49 Zn 0.52693 0.50795 0.47376 0.0
O50 O 0.4255 0.42256 0.53994 0.0
C51 C 0.38754 0.63236 0.50112 0.0
O52 O 0.42483 0.40418 0.47406 0.0
H53 H 0.67522 0.52128 0.41013 0.0
H54 H 0.37702 0.51429 0.60254 0.0
H55 H 0.38082 0.48906 0.40603 0.0
O56 O 0.41893 0.61347 0.53658 0.0
O57 O 0.42097 0.59514 0.47067 0.0
H58 H 0.67353 0.5154 0.61087 0.0
O59 O 0.63037 0.61044 0.47762 0.0
O60 O 0.62902 0.60388 0.54382 0.0
O61 O 0.63188 0.42075 0.47512 0.0
O62 O 0.63279 0.41375 0.54133 0.0
C63 C 0.66165 0.63572 0.5126 0.0
H64 H 0.36909 0.51576 0.67647 0.0
H65 H 0.67202 0.52076 0.68548 0.0
H66 H 0.67787 0.51399 0.33555 0.0
H67 H 0.37696 0.48204 0.33171 0.0
C68 C 0.85508 0.18096 0.4928 0.0
C69 C 0.83007 0.23165 0.46001 0.0
C70 C 0.73322 0.31921 0.50365 0.0
C71 C 0.76973 0.30019 0.46537 0.0
C72 C 0.75948 0.26867 0.53658 0.0
C73 C 0.82018 0.1999 0.53112 0.0
U74 U 0.01154 0.01725 0.43592 0.0
O75 O 0.03775 0.88537 0.45386 0.0
O76 O 0.154 0.97871 0.45762 0.0
C77 C 0.12485 0.90209 0.46571 0.0
C78 C 0.9217 0.11116 0.48848 0.0
C79 C 0.19061 0.83243 0.47464 0.0
C80 C 0.29083 0.7575 0.52363 0.0
C81 C 0.22889 0.82386 0.51422 0.0
C82 C 0.27586 0.70711 0.45389 0.0
C83 C 0.31587 0.69889 0.49341 0.0
C84 C 0.21373 0.77311 0.44465 0.0
C85 C 0.9972 0.03846 0.31578 0.0
C86 C 0.0748 0.97964 0.25732 0.0
C87 C 0.94622 0.07895 0.24825 0.0
C88 C 0.93786 0.0849 0.28994 0.0
C89 C 0.01392 0.02568 0.23127 0.0
C90 C 0.06645 0.98599 0.29952 0.0
C91 C 0.98402 0.0499 0.35924 0.0
O92 O 0.88889 0.03876 0.47352 0.0
O93 O 0.00287 0.13156 0.47419 0.0
O94 O 0.93439 0.99343 0.37781 0.0
O95 O 0.05206 0.08474 0.38179 0.0
H96 H 0.8574 0.21838 0.43038 0.0
H97 H 0.75124 0.33798 0.43926 0.0
H98 H 0.73231 0.28148 0.56625 0.0
H99 H 0.84012 0.16151 0.55686 0.0
H100 H 0.32036 0.75316 0.55419 0.0
H101 H 0.21101 0.86832 0.53805 0.0
H102 H 0.29319 0.66283 0.42976 0.0
H103 H 0.18438 0.77814 0.41407 0.0
H104 H 0.12756 0.93792 0.24511 0.0
H105 H 0.89981 0.11691 0.22929 0.0
H106 H 0.88481 0.12652 0.30212 0.0
H107 H 0.11329 0.95014 0.31925 0.0
C108 C 0.87008 0.82984 0.53261 0.0
C109 C 0.84724 0.77679 0.56401 0.0
C110 C 0.73519 0.70132 0.51847 0.0
C111 C 0.78013 0.71319 0.55704 0.0
C112 C 0.75945 0.75402 0.48695 0.0
C113 C 0.8262 0.81803 0.49408 0.0
U114 U 0.05644 1.00004 0.57833 0.0
O115 O 0.07155 0.12068 0.54816 0.0
O116 O 0.18394 0.02632 0.54461 0.0
C117 C 0.15181 0.10006 0.53267 0.0
C118 C 0.94127 0.89637 0.53818 0.0
C119 C 0.21799 0.1693 0.52759 0.0
C120 C 0.30199 0.25746 0.48147 0.0
C121 C 0.24548 0.18718 0.48832 0.0
C122 C 0.30313 0.29238 0.55334 0.0
C123 C 0.33144 0.31087 0.51395 0.0
C124 C 0.24684 0.22225 0.56008 0.0
C125 C 0.05691 0.00596 0.6998 0.0
C126 C 0.09365 0.05294 0.76878 0.0
C127 C 0.98357 0.93767 0.7557 0.0
C128 C 0.9952 0.94494 0.71384 0.0
C129 C 0.03393 0.9911 0.78355 0.0
C130 C 0.10508 0.06 0.72746 0.0
C131 C 0.07336 0.01852 0.6569 0.0
O132 O 0.91573 0.97167 0.55158 0.0
O133 O 0.02656 0.8745 0.55019 0.0
O134 O 0.01045 0.05981 0.63492 0.0
O135 O 0.12297 0.96265 0.63661 0.0
H136 H 0.88106 0.78458 0.59377 0.0
H137 H 0.76352 0.67318 0.58201 0.0
H138 H 0.72606 0.74663 0.4571 0.0
H139 H 0.84371 0.85845 0.46938 0.0
H140 H 0.32269 0.26972 0.45096 0.0
H141 H 0.22205 0.14733 0.46277 0.0
H142 H 0.32451 0.33209 0.57923 0.0
H143 H 0.225 0.20999 0.59044 0.0
H144 H 0.13166 0.0964 0.78925 0.0
H145 H 0.93695 0.88951 0.76629 0.0
H146 H 0.95684 0.90317 0.69268 0.0
H147 H 0.15203 0.10819 0.71703 0.0
C148 C 0.36658 0.68375 0.99587 0.0
C149 C 0.33724 0.73171 0.96267 0.0
C150 C 0.23333 0.81416 0.00557 0.0
C151 C 0.27132 0.79627 0.96746 0.0
C152 C 0.26437 0.76693 0.03897 0.0
C153 C 0.33041 0.70191 0.03407 0.0
U154 U 0.52338 0.52806 0.93541 0.0
O155 O 0.54498 0.39093 0.9454 0.0
O156 O 0.66363 0.48115 0.95536 0.0
C157 C 0.63308 0.40277 0.95712 0.0
C158 C 0.43317 0.61348 0.99121 0.0
C159 C 0.695 0.33193 0.96931 0.0
C160 C 0.79611 0.26069 0.01944 0.0
C161 C 0.73762 0.32898 0.00839 0.0
C162 C 0.76967 0.19837 0.95235 0.0
C163 C 0.81389 0.1951 0.99124 0.0
C164 C 0.71066 0.26557 0.94167 0.0
C165 C 0.50375 0.554 0.81642 0.0
C166 C 0.57789 0.4871 0.75885 0.0
C167 C 0.44885 0.58517 0.74809 0.0
C168 C 0.44283 0.59674 0.78973 0.0
C169 C 0.51591 0.52998 0.73198 0.0
C170 C 0.57162 0.49882 0.80098 0.0
C171 C 0.49112 0.56938 0.85981 0.0
O172 O 0.40002 0.54503 0.97244 0.0
O173 O 0.51726 0.63369 0.97994 0.0
O174 O 0.44016 0.51421 0.87843 0.0
O175 O 0.56165 0.60061 0.88219 0.0
H176 H 0.36452 0.71861 0.93302 0.0
H177 H 0.24952 0.83174 0.94101 0.0
H178 H 0.23632 0.77894 0.06855 0.0
H179 H 0.35249 0.66507 0.06004 0.0
H180 H 0.82911 0.26038 0.0495 0.0
H181 H 0.72566 0.37925 0.03037 0.0
H182 H 0.78147 0.14917 0.92969 0.0
H183 H 0.67842 0.26639 0.91146 0.0
H184 H 0.63007 0.44384 0.74733 0.0
H185 H 0.40137 0.6206 0.72847 0.0
H186 H 0.3901 0.63963 0.80118 0.0
H187 H 0.619 0.46495 0.8213 0.0
C188 C 0.37017 0.32045 0.01893 0.0
C189 C 0.34813 0.27287 0.05246 0.0
C190 C 0.2328 0.19184 0.01095 0.0
C191 C 0.28017 0.20924 0.04853 0.0
C192 C 0.25625 0.23889 0.97724 0.0
C193 C 0.32426 0.30297 0.98129 0.0
U194 U 0.53493 0.47966 0.07823 0.0
O195 O 0.55602 0.61558 0.06595 0.0
O196 O 0.67364 0.52425 0.05963 0.0
C197 C 0.64282 0.60231 0.05557 0.0
C198 C 0.43829 0.39031 0.02275 0.0
C199 C 0.70374 0.67191 0.04324 0.0
C200 C 0.78775 0.7471 0.99177 0.0
C201 C 0.73075 0.67937 0.00291 0.0
C202 C 0.79087 0.79966 0.06122 0.0
C203 C 0.81931 0.80764 0.02101 0.0
C204 C 0.73366 0.73295 0.07208 0.0
C205 C 0.52076 0.45942 0.19789 0.0
C206 C 0.58071 0.5364 0.25799 0.0
C207 C 0.47201 0.41991 0.26433 0.0
C208 C 0.46897 0.40754 0.22251 0.0
C209 C 0.52713 0.48478 0.28268 0.0
C210 C 0.57709 0.52414 0.21566 0.0
C211 C 0.50817 0.44494 0.15401 0.0
O212 O 0.40778 0.4605 0.03976 0.0
O213 O 0.52377 0.3706 0.03536 0.0
O214 O 0.57706 0.41138 0.13368 0.0
O215 O 0.45717 0.50002 0.13361 0.0
H216 H 0.3827 0.28556 0.08174 0.0
H217 H 0.26438 0.17394 0.07518 0.0
H218 H 0.22096 0.22735 0.94805 0.0
H219 H 0.34032 0.33963 0.95509 0.0
H220 H 0.80831 0.75117 0.96067 0.0
H221 H 0.70772 0.63319 0.98001 0.0
H222 H 0.81355 0.84477 0.08479 0.0
H223 H 0.71353 0.72858 0.10325 0.0
H224 H 0.62363 0.58711 0.27132 0.0
H225 H 0.43131 0.37806 0.28236 0.0
H226 H 0.42488 0.35749 0.20923 0.0
H227 H 0.61701 0.56529 0.19696 0.0
loop_
_geom_bond_atom_site_label_1
_geom_bond_atom_site_label_2
_geom_bond_distance
_geom_bond_site_symmetry_2
_ccdc_geom_bond_type
C0 O16 1.251 . S
C0 O18 1.254 1_554 S
N1 C2 1.333 1_445 S
N1 C6 1.307 . S
N1 Zn7 2.020 . S
C2 N1 1.333 1_665 S
C2 C3 1.379 . S
C2 H20 0.952 . S
C3 C2 1.379 . S
C3 C4 1.390 1_665 S
C3 H30 0.949 . S
C4 C3 1.390 1_445 S
C4 C5 1.357 . S
C5 C4 1.357 . S
C5 C6 1.370 . S
C5 H31 0.950 . S
C6 N1 1.307 . S
C6 C5 1.370 . S
C6 H24 0.948 . S
Zn7 N1 2.020 . S
Zn7 O16 2.039 1_445 S
Zn7 O22 2.034 1_455 S
Zn7 O26 2.025 . S
Zn7 O28 2.024 1_545 S
C8 O27 1.246 1_554 S
C8 O28 1.249 . S
N9 C10 1.306 1_445 S
N9 C11 1.334 . S
N9 Zn15 2.020 . S
C10 N9 1.306 1_665 S
C10 C14 1.370 . S
C10 H21 0.948 . S
C11 N9 1.334 . S
C11 C12 1.379 . S
C11 H19 0.952 . S
C12 C11 1.379 . S
C12 C13 1.390 . S
C12 H32 0.949 . S
C13 C12 1.390 . S
C13 C14 1.357 1_445 S
C14 C10 1.370 . S
C14 C13 1.357 1_665 S
C14 H33 0.950 . S
Zn15 N9 2.020 . S
Zn15 O18 2.025 1_445 S
Zn15 O23 2.024 1_455 S
Zn15 O25 2.039 . S
Zn15 O27 2.034 1_545 S
O16 C0 1.251 . S
O16 Zn7 2.039 1_665 S
C17 O22 1.246 . S
C17 O23 1.249 1_554 S
O18 C0 1.254 1_556 S
O18 Zn15 2.025 1_665 S
H19 C11 0.952 . S
H20 C2 0.952 . S
H21 C10 0.948 . S
O22 Zn7 2.034 1_655 S
O22 C17 1.246 . S
O23 Zn15 2.024 1_655 S
O23 C17 1.249 1_556 S
H24 C6 0.948 . S
O25 Zn15 2.039 . S
O25 C29 1.251 1_556 S
O26 Zn7 2.025 . S
O26 C29 1.254 . S
O27 C8 1.246 1_556 S
O27 Zn15 2.034 1_565 S
O28 Zn7 2.024 1_565 S
O28 C8 1.249 . S
C29 O25 1.251 1_554 S
C29 O26 1.254 . S
H30 C3 0.949 . S
H31 C5 0.950 . S
H32 C12 0.949 . S
H33 C14 0.950 . S
C34 O50 1.251 . S
C34 O52 1.254 . S
N35 C36 1.333 . S
N35 C40 1.307 . S
N35 Zn41 2.020 . S
C36 N35 1.333 . S
C36 C37 1.379 . S
C36 H54 0.952 . S
C37 C36 1.379 . S
C37 C38 1.390 . S
C37 H64 0.949 . S
C38 C37 1.390 . S
C38 C39 1.357 . S
C39 C38 1.357 . S
C39 C40 1.370 . S
C39 H65 0.950 . S
C40 N35 1.307 . S
C40 C39 1.370 . S
C40 H58 0.948 . S
Zn41 N35 2.020 . S
Zn41 O50 2.039 . S
Zn41 O56 2.034 . S
Zn41 O60 2.025 . S
Zn41 O62 2.024 . S
C42 O61 1.246 . S
C42 O62 1.249 . S
N43 C44 1.307 . S
N43 C45 1.333 . S
N43 Zn49 2.020 . S
C44 N43 1.307 . S
C44 C48 1.370 . S
C44 H55 0.948 . S
C45 N43 1.333 . S
C45 C46 1.379 . S
C45 H53 0.952 . S
C46 C45 1.379 . S
C46 C47 1.390 . S
C46 H66 0.949 . S
C47 C46 1.390 . S
C47 C48 1.357 . S
C48 C44 1.370 . S
C48 C47 1.357 . S
C48 H67 0.950 . S
Zn49 N43 2.020 . S
Zn49 O52 2.025 . S
Zn49 O57 2.024 . S
Zn49 O59 2.039 . S
Zn49 O61 2.034 . S
O50 C34 1.251 . S
O50 Zn41 2.039 . S
C51 O56 1.246 . S
C51 O57 1.249 . S
O52 C34 1.254 . S
O52 Zn49 2.025 . S
H53 C45 0.952 . S
H54 C36 0.952 . S
H55 C44 0.948 . S
O56 Zn41 2.034 . S
O56 C51 1.246 . S
O57 Zn49 2.024 . S
O57 C51 1.249 . S
H58 C40 0.948 . S
O59 Zn49 2.039 . S
O59 C63 1.251 . S
O60 Zn41 2.025 . S
O60 C63 1.254 . S
O61 C42 1.246 . S
O61 Zn49 2.034 . S
O62 Zn41 2.024 . S
O62 C42 1.249 . S
C63 O59 1.251 . S
C63 O60 1.254 . S
H64 C37 0.949 . S
H65 C39 0.950 . S
H66 C46 0.949 . S
H67 C48 0.950 . S
C68 C69 1.264 . S
C68 C73 1.479 . S
C68 C78 1.465 . S
C69 C68 1.264 . S
C69 C71 1.339 . S
C69 H96 0.931 . S
C70 C71 1.395 . S
C70 C72 1.320 . S
C71 C69 1.339 . S
C71 C70 1.395 . S
C71 H97 0.929 . S
C72 C70 1.320 . S
C72 C73 1.405 . S
C72 H98 0.930 . S
C73 C68 1.479 . S
C73 C72 1.405 . S
C73 H99 0.931 . S
U74 O75 2.454 1_545 S
U74 O76 2.458 1_545 S
U74 C77 2.984 1_545 S
U74 C78 2.847 1_455 S
U74 C91 2.882 . S
U74 O92 2.441 1_455 S
U74 O93 2.420 1_455 S
U74 O94 2.455 1_545 S
U74 O95 2.449 . S
O75 U74 2.454 1_565 S
O75 C77 1.353 . S
O76 U74 2.458 1_565 S
O76 C77 1.286 . S
C77 U74 2.984 1_565 S
C77 O75 1.353 . S
C77 O76 1.286 . S
C77 C79 1.363 . S
C78 C68 1.465 . S
C78 U74 2.847 1_655 S
C78 O92 1.249 . S
C78 O93 1.202 . S
C79 C77 1.363 . S
C79 C81 1.408 . S
C79 C84 1.342 . S
C80 C81 1.310 . S
C80 C83 1.461 . S
C80 H100 0.932 . S
C81 C79 1.408 . S
C81 C80 1.310 . S
C81 H101 0.930 . S
C82 C83 1.474 . S
C82 C84 1.285 . S
C82 H102 0.929 . S
C83 C80 1.461 . S
C83 C82 1.474 . S
C84 C79 1.342 . S
C84 C82 1.285 . S
C84 H103 0.930 . S
C85 C88 1.424 1_455 S
C85 C90 1.245 1_545 S
C85 C91 1.428 . S
C86 C89 1.260 1_565 S
C86 C90 1.477 . S
C86 H104 0.932 . S
C87 C88 1.384 . S
C87 C89 1.479 1_655 S
C87 H105 0.929 . S
C88 C85 1.424 1_655 S
C88 C87 1.384 . S
C88 H106 0.928 . S
C89 C86 1.260 1_545 S
C89 C87 1.479 1_455 S
C90 C85 1.245 1_565 S
C90 C86 1.477 . S
C90 H107 0.932 . S
C91 U74 2.882 . S
C91 C85 1.428 . S
C91 O94 1.301 1_545 S
C91 O95 1.282 . S
O92 U74 2.441 1_655 S
O92 C78 1.249 . S
O93 U74 2.420 1_655 S
O93 C78 1.202 . S
O94 U74 2.455 1_565 S
O94 C91 1.301 1_565 S
O95 U74 2.449 . S
O95 C91 1.282 . S
H96 C69 0.931 . S
H97 C71 0.929 . S
H98 C72 0.930 . S
H99 C73 0.931 . S
H100 C80 0.932 . S
H101 C81 0.930 . S
H102 C82 0.929 . S
H103 C84 0.930 . S
H104 C86 0.932 . S
H105 C87 0.929 . S
H106 C88 0.928 . S
H107 C90 0.932 . S
C108 C109 1.264 . S
C108 C113 1.479 . S
C108 C118 1.465 . S
C109 C108 1.264 . S
C109 C111 1.339 . S
C109 H136 0.931 . S
C110 C111 1.395 . S
C110 C112 1.320 . S
C111 C109 1.339 . S
C111 C110 1.395 . S
C111 H137 0.929 . S
C112 C110 1.320 . S
C112 C113 1.405 . S
C112 H138 0.930 . S
C113 C108 1.479 . S
C113 C112 1.405 . S
C113 H139 0.931 . S
U114 O115 2.454 1_565 S
U114 O116 2.458 1_565 S
U114 C117 2.984 1_565 S
U114 C118 2.847 1_455 S
U114 C131 2.882 . S
U114 O132 2.441 1_455 S
U114 O133 2.420 1_455 S
U114 O134 2.455 1_565 S
U114 O135 2.449 . S
O115 U114 2.454 1_545 S
O115 C117 1.353 . S
O116 U114 2.458 1_545 S
O116 C117 1.286 . S
C117 U114 2.984 1_545 S
C117 O115 1.353 . S
C117 O116 1.286 . S
C117 C119 1.363 . S
C118 C108 1.465 . S
C118 U114 2.847 1_655 S
C118 O132 1.249 . S
C118 O133 1.202 . S
C119 C117 1.363 . S
C119 C121 1.408 . S
C119 C124 1.342 . S
C120 C121 1.310 . S
C120 C123 1.461 . S
C120 H140 0.932 . S
C121 C119 1.408 . S
C121 C120 1.310 . S
C121 H141 0.930 . S
C122 C123 1.474 . S
C122 C124 1.285 . S
C122 H142 0.929 . S
C123 C120 1.461 . S
C123 C122 1.474 . S
C124 C119 1.342 . S
C124 C122 1.285 . S
C124 H143 0.930 . S
C125 C128 1.424 1_455 S
C125 C130 1.245 1_565 S
C125 C131 1.428 . S
C126 C129 1.254 1_545 S
C126 C130 1.477 . S
C126 H144 0.932 . S
C127 C128 1.384 . S
C127 C129 1.487 1_655 S
C127 H145 0.929 . S
C128 C125 1.424 1_655 S
C128 C127 1.384 . S
C128 H146 0.928 . S
C129 C126 1.254 1_565 S
C129 C127 1.487 1_455 S
C130 C125 1.245 1_545 S
C130 C126 1.477 . S
C130 H147 0.932 . S
C131 U114 2.882 . S
C131 C125 1.428 . S
C131 O134 1.301 1_565 S
C131 O135 1.282 . S
O132 U114 2.441 1_655 S
O132 C118 1.249 . S
O133 U114 2.420 1_655 S
O133 C118 1.202 . S
O134 U114 2.455 1_545 S
O134 C131 1.301 1_545 S
O135 U114 2.449 . S
O135 C131 1.282 . S
H136 C109 0.931 . S
H137 C111 0.929 . S
H138 C112 0.930 . S
H139 C113 0.931 . S
H140 C120 0.932 . S
H141 C121 0.930 . S
H142 C122 0.929 . S
H143 C124 0.930 . S
H144 C126 0.932 . S
H145 C127 0.929 . S
H146 C128 0.928 . S
H147 C130 0.932 . S
C148 C149 1.264 1_554 S
C148 C153 1.479 . S
C148 C158 1.465 1_554 S
C149 C148 1.264 1_556 S
C149 C151 1.339 1_556 S
C149 H176 0.931 . S
C150 C151 1.395 . S
C150 C152 1.320 . S
C151 C149 1.339 1_554 S
C151 C150 1.395 . S
C151 H177 0.929 1_554 S
C152 C150 1.320 . S
C152 C153 1.405 . S
C152 H178 0.930 . S
C153 C148 1.479 . S
C153 C152 1.405 . S
C153 H179 0.931 . S
U154 O155 2.454 1_556 S
U154 O156 2.458 . S
U154 C157 2.984 . S
U154 C158 2.847 . S
U154 C171 2.882 . S
U154 O172 2.441 1_556 S
U154 O173 2.420 . S
U154 O174 2.455 . S
U154 O175 2.449 . S
O155 U154 2.454 1_554 S
O155 C157 1.353 1_554 S
O156 U154 2.458 . S
O156 C157 1.286 . S
C157 U154 2.984 . S
C157 O155 1.353 1_556 S
C157 O156 1.286 . S
C157 C159 1.363 1_556 S
C158 C148 1.465 1_556 S
C158 U154 2.847 . S
C158 O172 1.249 1_556 S
C158 O173 1.202 . S
C159 C157 1.363 1_554 S
C159 C161 1.408 . S
C159 C164 1.342 1_554 S
C160 C161 1.310 . S
C160 C163 1.461 . S
C160 H180 0.932 . S
C161 C159 1.408 . S
C161 C160 1.310 . S
C161 H181 0.930 . S
C162 C163 1.474 . S
C162 C164 1.285 1_554 S
C162 H182 0.929 1_554 S
C163 C160 1.461 . S
C163 C162 1.474 . S
C164 C159 1.342 1_556 S
C164 C162 1.285 1_556 S
C164 H183 0.930 . S
C165 C168 1.424 . S
C165 C170 1.245 . S
C165 C171 1.428 . S
C166 C169 1.260 . S
C166 C170 1.477 . S
C166 H184 0.932 . S
C167 C168 1.384 . S
C167 C169 1.479 . S
C167 H185 0.929 . S
C168 C165 1.424 . S
C168 C167 1.384 . S
C168 H186 0.928 . S
C169 C166 1.260 . S
C169 C167 1.479 . S
C170 C165 1.245 . S
C170 C166 1.477 . S
C170 H187 0.932 . S
C171 U154 2.882 . S
C171 C165 1.428 . S
C171 O174 1.301 . S
C171 O175 1.282 . S
O172 U154 2.441 1_554 S
O172 C158 1.249 1_554 S
O173 U154 2.420 . S
O173 C158 1.202 . S
O174 U154 2.455 . S
O174 C171 1.301 . S
O175 U154 2.449 . S
O175 C171 1.282 . S
H176 C149 0.931 . S
H177 C151 0.929 1_556 S
H178 C152 0.930 . S
H179 C153 0.931 . S
H180 C160 0.932 . S
H181 C161 0.930 . S
H182 C162 0.929 1_556 S
H183 C164 0.930 . S
H184 C166 0.932 . S
H185 C167 0.929 . S
H186 C168 0.928 . S
H187 C170 0.932 . S
C188 C189 1.264 1_556 S
C188 C193 1.479 . S
C188 C198 1.465 1_556 S
C189 C188 1.264 1_554 S
C189 C191 1.339 1_554 S
C189 H216 0.931 . S
C190 C191 1.395 . S
C190 C192 1.320 . S
C191 C189 1.339 1_556 S
C191 C190 1.395 . S
C191 H217 0.929 1_556 S
C192 C190 1.320 . S
C192 C193 1.405 . S
C192 H218 0.930 . S
C193 C188 1.479 . S
C193 C192 1.405 . S
C193 H219 0.931 . S
U194 O195 2.464 . S
U194 O196 2.458 . S
U194 C197 2.984 . S
U194 C198 2.847 . S
U194 C211 2.882 . S
U194 O212 2.441 1_554 S
U194 O213 2.420 . S
U194 O214 2.455 . S
U194 O215 2.449 . S
O195 U194 2.464 . S
O195 C197 1.359 . S
O196 U194 2.458 . S
O196 C197 1.286 . S
C197 U194 2.984 . S
C197 O195 1.359 . S
C197 O196 1.286 . S
C197 C199 1.368 . S
C198 C188 1.465 1_554 S
C198 U194 2.847 . S
C198 O212 1.249 1_554 S
C198 O213 1.202 . S
C199 C197 1.368 . S
C199 C201 1.398 1_554 S
C199 C204 1.348 . S
C200 C201 1.310 . S
C200 C203 1.461 . S
C200 H220 0.932 . S
C201 C199 1.398 1_556 S
C201 C200 1.310 . S
C201 H221 0.930 . S
C202 C203 1.474 1_554 S
C202 C204 1.285 . S
C202 H222 0.929 . S
C203 C200 1.461 . S
C203 C202 1.474 1_556 S
C204 C199 1.348 . S
C204 C202 1.285 . S
C204 H223 0.930 . S
C205 C208 1.424 . S
C205 C210 1.245 . S
C205 C211 1.428 . S
C206 C209 1.260 . S
C206 C210 1.477 . S
C206 H224 0.932 . S
C207 C208 1.384 . S
C207 C209 1.479 . S
C207 H225 0.929 . S
C208 C205 1.424 . S
C208 C207 1.384 . S
C208 H226 0.928 . S
C209 C206 1.260 . S
C209 C207 1.479 . S
C210 C205 1.245 . S
C210 C206 1.477 . S
C210 H227 0.932 . S
C211 U194 2.882 . S
C211 C205 1.428 . S
C211 O214 1.301 . S
C211 O215 1.282 . S
O212 U194 2.441 1_556 S
O212 C198 1.249 1_556 S
O213 U194 2.420 . S
O213 C198 1.202 . S
O214 U194 2.455 . S
O214 C211 1.301 . S
O215 U194 2.449 . S
O215 C211 1.282 . S
H216 C189 0.931 . S
H217 C191 0.929 1_554 S
H218 C192 0.930 . S
H219 C193 0.931 . S
H220 C200 0.932 . S
H221 C201 0.930 . S
H222 C202 0.929 . S
H223 C204 0.930 . S
H224 C206 0.932 . S
H225 C207 0.929 . S
H226 C208 0.928 . S
H227 C210 0.932 . S
C190 C29 2.563 1_556 S
C8 C150 2.403 . S
C0 C203 2.330 1_554 S
C17 C163 2.468 . S
C63 C110 2.563 . S
C42 C70 2.404 . S
C123 C34 2.330 . S
C83 C51 2.468 . S
C4 C89 1.465 . S
C13 C129 1.478 1_545 S
C169 C38 1.465 . S
C47 C209 1.478 . S
