# Generated by pormake.
# Topology ssa, (4,4)-cn, num edge types: 1
# Building blocks:
#     Node 0, Type 0, BuildingBlock: ESEHIV_clean_sbu_0, # of connection points: 4
#     Node 1, Type 0, BuildingBlock: ESEHIV_clean_sbu_0, # of connection points: 4
#     Node 2, Type 0, BuildingBlock: ESEHIV_clean_sbu_0, # of connection points: 4
#     Node 3, Type 0, BuildingBlock: ESEHIV_clean_sbu_0, # of connection points: 4
#     Node 4, Type 0, BuildingBlock: ESEHIV_clean_sbu_0, # of connection points: 4
#     Node 5, Type 0, BuildingBlock: ESEHIV_clean_sbu_0, # of connection points: 4
#     Node 6, Type 1, BuildingBlock: MUDLON_clean_sbu_0, # of connection points: 4
#     Node 7, Type 1, BuildingBlock: MUDLON_clean_sbu_0, # of connection points: 4
#     Node 8, Type 1, BuildingBlock: MUDLON_clean_sbu_0, # of connection points: 4
#     Node 9, Type 1, BuildingBlock: MUDLON_clean_sbu_0, # of connection points: 4
#     Node 10, Type 1, BuildingBlock: MUDLON_clean_sbu_0, # of connection points: 4
#     Node 11, Type 1, BuildingBlock: MUDLON_clean_sbu_0, # of connection points: 4
#     Edge 12, Type (0, 1), None
#     Edge 13, Type (0, 1), None
#     Edge 14, Type (0, 1), None
#     Edge 15, Type (0, 1), None
#     Edge 16, Type (0, 1), None
#     Edge 17, Type (0, 1), None
#     Edge 18, Type (0, 1), None
#     Edge 19, Type (0, 1), None
#     Edge 20, Type (0, 1), None
#     Edge 21, Type (0, 1), None
#     Edge 22, Type (0, 1), None
#     Edge 23, Type (0, 1), None
#     Edge 24, Type (0, 1), None
#     Edge 25, Type (0, 1), None
#     Edge 26, Type (0, 1), None
#     Edge 27, Type (0, 1), None
#     Edge 28, Type (0, 1), None
#     Edge 29, Type (0, 1), None
#     Edge 30, Type (0, 1), None
#     Edge 31, Type (0, 1), None
#     Edge 32, Type (0, 1), None
#     Edge 33, Type (0, 1), None
#     Edge 34, Type (0, 1), None
#     Edge 35, Type (0, 1), None
# Relax obj value: 0.040
# Max RMSD: 0.114
# Mean RMSD: 0.066
data_MOF--net-ssa--node1-ESEHIV_clean_sbu_0--node2-MUDLON_clean_sbu_0--edge1-none
_symmetry_space_group_name_H-M    P1
_symmetry_Int_Tables_number       1
_symmetry_cell_setting            triclinic
loop_
_symmetry_equiv_pos_as_xyz
'x, y, z'
_cell_length_a     19.514756
_cell_length_b     23.288768
_cell_length_c     18.281245
_cell_angle_alpha  86.165854
_cell_angle_beta   94.239539
_cell_angle_gamma 127.63539
loop_
_atom_site_label
_atom_site_type_symbol
_atom_site_fract_x
_atom_site_fract_y
_atom_site_fract_z
_atom_type_partial_charge
Cu0 Cu 1.02207 0.54796 0.09804 0.0
N1 N 0.07886 0.54673 1.02149 0.0
N2 N 0.09492 0.48571 0.94444 0.0
C3 C 1.04442 0.48214 0.99319 0.0
C4 C 0.16481 0.55628 0.94059 0.0
C5 C 0.15513 0.59405 0.98936 0.0
O6 O 0.92678 0.54766 1.05324 0.0
C7 C 1.04547 0.44892 0.1614 0.0
O8 O 0.12723 0.50511 0.15647 0.0
H9 H 0.98297 0.43257 1.00916 0.0
H10 H 0.20089 0.65102 1.00149 0.0
N11 N 0.09018 0.63014 0.15796 0.0
N12 N 0.17911 0.70886 0.24583 0.0
C13 C 0.15368 0.64938 0.20942 0.0
C14 C 0.07558 0.67943 0.16242 0.0
C15 C 0.13008 0.7279 0.21641 0.0
C16 C 0.87699 0.51284 0.99767 0.0
O17 O 0.87781 0.46296 0.96946 0.0
H18 H 0.17954 0.6197 0.22128 0.0
H19 H 1.02699 0.67918 0.12955 0.0
O20 O 0.98711 0.45807 0.14972 0.0
H21 H 0.21884 0.57875 0.90575 0.0
H22 H 0.13326 0.77335 0.23274 0.0
Cu23 Cu 0.69639 0.07981 0.63681 0.0
N24 N 0.74326 0.07957 0.55005 0.0
N25 N 0.73488 1.00671 0.46874 0.0
C26 C 0.69338 0.02863 0.49891 0.0
C27 C 0.81595 0.04811 0.49876 0.0
C28 C 0.82085 0.09275 0.54876 0.0
O29 O 0.57658 0.99191 0.62998 0.0
C30 C 0.83751 0.14132 0.73652 0.0
O31 O 0.85489 0.20008 0.70309 0.0
H32 H 0.62457 1.00065 0.49123 0.0
H33 H 0.87354 0.12466 0.58862 0.0
N34 N 0.69187 0.15648 0.65307 0.0
N35 N 0.65023 0.20914 0.71596 0.0
C36 C 0.67256 0.16441 0.71921 0.0
C37 C 0.68436 0.19982 0.60639 0.0
C38 C 0.65776 0.2319 0.64502 0.0
C39 C 0.52243 0.99226 0.58631 0.0
O40 O 0.54387 0.05416 0.55785 0.0
H41 H 0.66635 0.13191 0.76723 0.0
H42 H 0.69034 0.203 0.54763 0.0
O43 O 0.7686 0.0797 0.71728 0.0
H44 H 0.86549 0.04195 0.49039 0.0
H45 H 0.64075 0.26594 0.62196 0.0
Cu46 Cu 0.58524 0.56399 0.0671 0.0
N47 N 0.59433 0.49112 1.0467 0.0
N48 N 0.58373 0.41074 0.97627 0.0
C49 C 0.59984 0.47577 0.97845 0.0
C50 C 0.56907 0.38451 1.04618 0.0
C51 C 0.57556 0.43425 0.0895 0.0
O52 O 0.62654 0.62653 0.97966 0.0
C53 C 0.43262 0.54231 0.11501 0.0
O54 O 0.4848 0.60992 0.13572 0.0
H55 H 0.6066 0.50805 0.93019 0.0
H56 H 0.56098 0.42682 0.14684 0.0
N57 N 0.6508 0.61527 0.15113 0.0
N58 N 0.70988 0.70378 0.23182 0.0
C59 C 0.68987 0.68609 0.16038 0.0
C60 C 0.64814 0.58751 0.21883 0.0
C61 C 0.68457 0.64204 0.26885 0.0
C62 C 0.70612 0.66155 0.9659 0.0
O63 O 0.76058 0.67135 1.01963 0.0
H64 H 0.69357 0.72156 0.11665 0.0
H65 H 0.61473 0.53046 0.23174 0.0
O66 O 0.46276 0.51558 0.08284 0.0
H67 H 0.54975 0.33139 1.06393 0.0
H68 H 0.68529 0.63529 0.32803 0.0
Cu69 Cu 0.0938 0.55858 0.56893 0.0
N70 N 1.05084 0.51619 0.47852 0.0
N71 N 1.05301 0.46466 0.38178 0.0
C72 C 0.10057 0.51922 0.42888 0.0
C73 C 0.97003 0.42749 0.40058 0.0
C74 C 0.9688 0.45999 0.46011 0.0
O75 O 0.21024 0.64312 0.55364 0.0
C76 C 1.00744 0.43047 0.65322 0.0
O77 O 0.93948 0.42592 0.62843 0.0
H78 H 0.17066 0.55455 0.43314 0.0
H79 H 0.91306 0.44008 0.49147 0.0
N80 N 1.03347 0.58966 0.60097 0.0
N81 N 0.96631 0.61079 0.67555 0.0
C82 C 1.00766 0.58165 0.66948 0.0
C83 C 1.00909 0.62628 0.56255 0.0
C84 C 0.96724 0.63937 0.60861 0.0
C85 C 0.27989 0.64989 0.55271 0.0
O86 O 0.28199 0.59605 0.57408 0.0
H87 H 1.01746 0.55359 0.7136 0.0
H88 H 1.02029 0.64169 0.50503 0.0
O89 O 0.08301 0.48594 0.63654 0.0
H90 H 0.91496 0.37795 0.37589 0.0
H91 H 0.93771 0.66579 0.59358 0.0
Cu92 Cu 0.5708 1.01728 0.07708 0.0
N93 N 0.47458 1.00848 1.0341 0.0
N94 N 0.41344 0.04008 0.94958 0.0
C95 C 0.4586 1.01354 0.9618 0.0
C96 C 0.39481 0.04677 1.01664 0.0
C97 C 0.43292 1.02774 0.06839 0.0
O98 O 0.67725 0.10869 1.04196 0.0
C99 C 0.50053 0.9648 0.2163 0.0
O100 O 0.42873 0.92071 0.17722 0.0
H101 H 0.48993 1.00836 0.91931 0.0
H102 H 0.44008 0.03744 0.12645 0.0
N103 N 0.57422 0.94086 1.05966 0.0
N104 N 0.58312 0.86587 0.13508 0.0
C105 C 0.53068 0.88055 0.10338 0.0
C106 C 0.65318 0.9575 1.05534 0.0
C107 C 0.65929 0.91214 0.10243 0.0
C108 C 0.69589 0.12107 0.97441 0.0
O109 O 0.64412 0.07094 0.92645 0.0
H110 H 0.46714 0.85635 0.1223 0.0
H111 H 0.70817 1.00808 1.03262 0.0
O112 O 0.56883 1.01641 0.18443 0.0
H113 H 0.36583 0.07266 1.0277 0.0
H114 H 0.71867 0.91961 0.11903 0.0
Cu115 Cu 0.42944 0.44557 0.54324 0.0
N116 N 0.43167 0.52722 0.54393 0.0
N117 N 0.4962 0.63835 0.49223 0.0
C118 C 0.50712 0.59354 0.53259 0.0
C119 C 0.41006 0.5998 0.47932 0.0
C120 C 0.37044 0.53153 0.5116 0.0
O121 O 0.40226 0.42175 0.43953 0.0
C122 C 0.56968 0.50361 0.64348 0.0
O123 O 0.52567 0.51996 0.67521 0.0
H124 H 0.56949 0.60466 0.54295 0.0
H125 H 0.30327 0.48565 0.50271 0.0
N126 N 0.34954 0.36333 0.60125 0.0
N127 N 0.33977 0.29353 0.69692 0.0
C128 C 0.3602 0.35867 0.67474 0.0
C129 C 0.31412 0.29637 0.57786 0.0
C130 C 0.30773 0.25335 0.6364 0.0
C131 C 0.32409 0.39025 0.41574 0.0
O132 O 0.26287 0.36167 0.46307 0.0
H133 H 0.39591 0.40518 0.70927 0.0
H134 H 0.30841 0.28324 0.52105 0.0
O135 O 0.54332 0.47479 0.58052 0.0
H136 H 0.37867 0.61691 0.44321 0.0
H137 H 0.29266 0.20047 0.63275 0.0
Mg138 Mg 0.19764 0.43903 0.24241 0.0
C139 C 1.02279 0.37607 0.15721 0.0
O140 O 0.94762 0.32379 0.12728 0.0
C141 C 0.30577 0.40596 0.34074 0.0
O142 O 0.3702 0.45776 0.30125 0.0
C143 C 0.08348 0.4433 0.33488 0.0
O144 O 1.03352 0.37603 0.31318 0.0
O145 O 0.16124 0.48634 0.31412 0.0
O146 O 0.07738 0.36413 0.1773 0.0
O147 O 0.31503 0.517 0.18083 0.0
C148 C 0.34271 0.49387 0.13942 0.0
O149 O 0.29575 0.42393 0.12866 0.0
O150 O 0.22891 0.38402 0.32337 0.0
Mg151 Mg 0.92327 0.27735 0.84006 0.0
C152 C 0.90456 0.14787 0.78639 0.0
O153 O 0.91682 0.09834 0.78685 0.0
C154 C 0.07316 0.42907 0.9047 0.0
O155 O 0.11993 0.44023 0.84978 0.0
C156 C 0.77978 0.18675 0.95055 0.0
O157 O 0.84407 0.22495 0.99882 0.0
O158 O 0.79342 0.20079 0.88224 0.0
O159 O 0.95532 0.2041 0.82511 0.0
O160 O 0.92698 0.33596 0.74128 0.0
C161 C 0.99607 0.37555 0.70595 0.0
O162 O 0.06016 0.37216 0.72237 0.0
O163 O 1.00149 0.36643 0.91599 0.0
Mg164 Mg 0.65979 0.82016 0.35049 0.0
C165 C 0.57205 0.83181 0.20156 0.0
O166 O 0.49541 0.78966 0.23015 0.0
C167 C 0.56064 0.70228 0.45959 0.0
O168 O 0.64189 0.72898 0.47438 0.0
C169 C 0.6967 0.94677 0.42717 0.0
O170 O 0.61519 0.91122 0.40453 0.0
O171 O 0.73638 0.92115 0.41335 0.0
O172 O 0.63863 0.8492 0.24025 0.0
O173 O 0.71492 0.76523 0.32694 0.0
C174 C 0.72886 0.76487 0.25998 0.0
O175 O 0.74175 0.81673 0.21503 0.0
O176 O 0.5443 0.73354 0.40928 0.0
Mg177 Mg 0.78319 0.58538 0.81406 0.0
C178 C 0.64893 0.52073 0.68159 0.0
O179 O 0.71003 0.52928 0.64485 0.0
C180 C 0.83401 0.54027 0.95603 0.0
O181 O 0.84789 0.59922 0.97794 0.0
C182 C 0.72749 0.6609 0.89062 0.0
O183 O 0.6646 0.63003 0.83996 0.0
O184 O 0.79363 0.66344 0.88298 0.0
O185 O 0.66114 0.53426 0.74982 0.0
O186 O 0.87973 0.62792 0.73211 0.0
C187 C 0.92396 0.60434 0.73484 0.0
O188 O 0.9202 0.56613 0.79276 0.0
O189 O 0.79941 0.51707 0.89215 0.0
Mg190 Mg 0.37481 0.84448 0.40665 0.0
C191 C 0.24235 0.74268 0.29997 0.0
O192 O 0.28908 0.72023 0.31799 0.0
C193 C 0.45393 0.92559 0.54808 0.0
O194 O 0.44191 0.8651 0.56845 0.0
C195 C 0.35127 0.71444 0.51424 0.0
O196 O 0.43182 0.73808 0.52436 0.0
O197 O 0.33175 0.74932 0.47372 0.0
O198 O 0.25977 0.79755 0.33251 0.0
O199 O 0.46615 0.88877 0.32019 0.0
C200 C 0.49863 0.95295 0.296 0.0
O201 O 0.49577 0.99612 0.33602 0.0
O202 O 0.42451 0.93035 0.48498 0.0
Mg203 Mg 0.47652 0.22924 0.82989 0.0
C204 C 0.61344 0.21792 0.77049 0.0
O205 O 0.61386 0.19378 0.83747 0.0
C206 C 0.57009 0.37444 0.91475 0.0
O207 O 0.58542 0.40691 0.84984 0.0
C208 C 0.41618 0.07735 0.88788 0.0
O209 O 0.44591 0.07387 0.8275 0.0
O210 O 0.41002 0.1281 0.89405 0.0
O211 O 0.56924 0.2411 0.75549 0.0
O212 O 0.38333 0.23203 0.75875 0.0
C213 C 0.37346 0.28131 0.75841 0.0
O214 O 0.41144 0.3287 0.81083 0.0
O215 O 0.53339 0.30675 0.9191 0.0
loop_
_geom_bond_atom_site_label_1
_geom_bond_atom_site_label_2
_geom_bond_distance
_geom_bond_site_symmetry_2
_ccdc_geom_bond_type
Cu0 N1 2.001 1_454 S
Cu0 O6 1.962 1_454 S
Cu0 N11 1.984 . S
Cu0 O20 1.971 . S
N1 Cu0 2.001 1_656 S
N1 C3 1.263 . S
N1 C5 1.389 1_556 S
N2 C3 1.358 . S
N2 C4 1.400 . S
C3 N1 1.263 . S
C3 N2 1.358 . S
C3 H9 0.930 . S
C4 N2 1.400 . S
C4 C5 1.351 1_556 S
C4 H21 0.930 . S
C5 N1 1.389 1_554 S
C5 C4 1.351 1_554 S
C5 H10 0.930 . S
O6 Cu0 1.962 1_656 S
O6 C16 1.282 . S
C7 O8 1.261 . S
C7 O20 1.251 . S
O8 C7 1.261 . S
H9 C3 0.930 . S
H10 C5 0.930 . S
N11 Cu0 1.984 . S
N11 C13 1.335 . S
N11 C14 1.390 . S
N12 C13 1.345 . S
N12 C15 1.336 . S
C13 N11 1.335 . S
C13 N12 1.345 . S
C13 H18 0.930 . S
C14 N11 1.390 . S
C14 C15 1.346 . S
C14 H19 0.930 . S
C15 N12 1.336 . S
C15 C14 1.346 . S
C15 H22 0.929 . S
C16 O6 1.282 . S
C16 O17 1.216 1_655 S
O17 C16 1.216 1_455 S
H18 C13 0.930 . S
H19 C14 0.930 . S
O20 Cu0 1.971 . S
O20 C7 1.251 . S
H21 C4 0.930 . S
H22 C15 0.929 . S
Cu23 N24 1.999 . S
Cu23 O29 1.974 . S
Cu23 N34 1.985 1_565 S
Cu23 O43 1.959 1_565 S
N24 Cu23 1.999 . S
N24 C26 1.263 . S
N24 C28 1.389 . S
N25 C26 1.358 . S
N25 C27 1.400 . S
C26 N24 1.263 . S
C26 N25 1.358 . S
C26 H32 0.930 . S
C27 N25 1.400 . S
C27 C28 1.351 . S
C27 H44 0.930 . S
C28 N24 1.389 . S
C28 C27 1.351 . S
C28 H33 0.930 . S
O29 Cu23 1.974 . S
O29 C39 1.282 . S
C30 O31 1.261 . S
C30 O43 1.251 . S
O31 C30 1.261 . S
H32 C26 0.930 . S
H33 C28 0.930 . S
N34 Cu23 1.985 1_545 S
N34 C36 1.335 . S
N34 C37 1.390 . S
N35 C36 1.345 . S
N35 C38 1.336 . S
C36 N34 1.335 . S
C36 N35 1.345 . S
C36 H41 0.930 . S
C37 N34 1.390 . S
C37 C38 1.346 . S
C37 H42 0.930 . S
C38 N35 1.336 . S
C38 C37 1.346 . S
C38 H45 0.929 . S
C39 O29 1.282 . S
C39 O40 1.216 1_565 S
O40 C39 1.216 1_545 S
H41 C36 0.930 . S
H42 C37 0.930 . S
O43 Cu23 1.959 1_545 S
O43 C30 1.251 . S
H44 C27 0.930 . S
H45 C38 0.929 . S
Cu46 N47 1.999 . S
Cu46 O52 1.974 . S
Cu46 N57 1.985 1_556 S
Cu46 O66 1.959 1_556 S
N47 Cu46 1.999 . S
N47 C49 1.263 . S
N47 C51 1.389 . S
N48 C49 1.358 . S
N48 C50 1.400 . S
C49 N47 1.263 . S
C49 N48 1.358 . S
C49 H55 0.930 . S
C50 N48 1.400 . S
C50 C51 1.351 . S
C50 H67 0.930 . S
C51 N47 1.389 . S
C51 C50 1.351 . S
C51 H56 0.930 . S
O52 Cu46 1.974 . S
O52 C62 1.282 . S
C53 O54 1.261 . S
C53 O66 1.251 . S
O54 C53 1.261 . S
H55 C49 0.930 . S
H56 C51 0.930 . S
N57 Cu46 1.985 1_554 S
N57 C59 1.335 . S
N57 C60 1.390 . S
N58 C59 1.345 . S
N58 C61 1.336 . S
C59 N57 1.335 . S
C59 N58 1.345 . S
C59 H64 0.930 . S
C60 N57 1.390 . S
C60 C61 1.346 . S
C60 H65 0.930 . S
C61 N58 1.336 . S
C61 C60 1.346 . S
C61 H68 0.929 . S
C62 O52 1.282 . S
C62 O63 1.216 . S
O63 C62 1.216 . S
H64 C59 0.930 . S
H65 C60 0.930 . S
O66 Cu46 1.959 1_554 S
O66 C53 1.251 . S
H67 C50 0.930 . S
H68 C61 0.929 . S
Cu69 N70 1.992 1_655 S
Cu69 O75 1.974 1_655 S
Cu69 N80 1.985 . S
Cu69 O89 1.959 . S
N70 Cu69 1.992 1_455 S
N70 C72 1.270 . S
N70 C74 1.390 1_455 S
N71 C72 1.358 . S
N71 C73 1.400 1_455 S
C72 N70 1.270 . S
C72 N71 1.358 . S
C72 H78 0.930 . S
C73 N71 1.400 1_655 S
C73 C74 1.351 . S
C73 H90 0.930 . S
C74 N70 1.390 1_655 S
C74 C73 1.351 . S
C74 H79 0.930 . S
O75 Cu69 1.974 1_455 S
O75 C85 1.282 . S
C76 O77 1.261 1_655 S
C76 O89 1.251 . S
O77 C76 1.261 1_455 S
H78 C72 0.930 . S
H79 C74 0.930 . S
N80 Cu69 1.985 . S
N80 C82 1.335 . S
N80 C83 1.390 . S
N81 C82 1.345 . S
N81 C84 1.336 . S
C82 N80 1.335 . S
C82 N81 1.345 . S
C82 H87 0.930 . S
C83 N80 1.390 . S
C83 C84 1.346 . S
C83 H88 0.930 1_655 S
C84 N81 1.336 . S
C84 C83 1.346 . S
C84 H91 0.929 . S
C85 O75 1.282 . S
C85 O86 1.216 . S
O86 C85 1.216 . S
H87 C82 0.930 . S
H88 C83 0.930 1_455 S
O89 Cu69 1.959 . S
O89 C76 1.251 . S
H90 C73 0.930 . S
H91 C84 0.929 . S
Cu92 N93 1.999 1_554 S
Cu92 O98 1.974 1_554 S
Cu92 N103 1.985 1_545 S
Cu92 O112 1.959 1_545 S
N93 Cu92 1.999 1_556 S
N93 C95 1.263 . S
N93 C97 1.389 1_556 S
N94 C95 1.358 . S
N94 C96 1.400 . S
C95 N93 1.263 . S
C95 N94 1.358 . S
C95 H101 0.930 . S
C96 N94 1.400 . S
C96 C97 1.351 1_556 S
C96 H113 0.930 . S
C97 N93 1.389 1_554 S
C97 C96 1.351 1_554 S
C97 H102 0.930 . S
O98 Cu92 1.974 1_556 S
O98 C108 1.282 . S
C99 O100 1.261 . S
C99 O112 1.251 . S
O100 C99 1.261 . S
H101 C95 0.930 . S
H102 C97 0.930 . S
N103 Cu92 1.985 1_565 S
N103 C105 1.335 . S
N103 C106 1.390 . S
N104 C105 1.345 . S
N104 C107 1.336 . S
C105 N103 1.335 . S
C105 N104 1.345 . S
C105 H110 0.930 . S
C106 N103 1.390 . S
C106 C107 1.346 . S
C106 H111 0.930 1_554 S
C107 N104 1.336 . S
C107 C106 1.346 . S
C107 H114 0.929 . S
C108 O98 1.282 . S
C108 O109 1.216 1_545 S
O109 C108 1.216 1_565 S
H110 C105 0.930 . S
H111 C106 0.930 1_556 S
O112 Cu92 1.959 1_565 S
O112 C99 1.251 . S
H113 C96 0.930 . S
H114 C107 0.929 . S
Cu115 N116 1.999 . S
Cu115 O121 1.974 . S
Cu115 N126 1.985 . S
Cu115 O135 1.959 . S
N116 Cu115 1.999 . S
N116 C118 1.263 . S
N116 C120 1.389 . S
N117 C118 1.358 . S
N117 C119 1.400 . S
C118 N116 1.263 . S
C118 N117 1.358 . S
C118 H124 0.930 . S
C119 N117 1.400 . S
C119 C120 1.351 . S
C119 H136 0.930 . S
C120 N116 1.389 . S
C120 C119 1.351 . S
C120 H125 0.930 . S
O121 Cu115 1.974 . S
O121 C131 1.282 . S
C122 O123 1.261 . S
C122 O135 1.251 . S
O123 C122 1.261 . S
H124 C118 0.930 . S
H125 C120 0.930 . S
N126 Cu115 1.985 . S
N126 C128 1.335 . S
N126 C129 1.390 . S
N127 C128 1.345 . S
N127 C130 1.336 . S
C128 N126 1.335 . S
C128 N127 1.345 . S
C128 H133 0.930 . S
C129 N126 1.390 . S
C129 C130 1.346 . S
C129 H134 0.930 . S
C130 N127 1.336 . S
C130 C129 1.346 . S
C130 H137 0.929 . S
C131 O121 1.282 . S
C131 O132 1.216 . S
O132 C131 1.216 . S
H133 C128 0.930 . S
H134 C129 0.930 . S
O135 Cu115 1.959 . S
O135 C122 1.251 . S
H136 C119 0.930 . S
H137 C130 0.929 . S
Mg138 O145 2.141 . S
Mg138 O146 2.048 . S
Mg138 O147 2.048 . S
Mg138 O150 2.141 . S
C139 O140 1.313 . S
C139 O146 1.195 . S
O140 C139 1.313 . S
C141 O142 1.245 . S
C141 O150 1.289 . S
O142 C141 1.245 . S
C143 O144 1.245 . S
C143 O145 1.289 . S
O144 C143 1.245 . S
O145 Mg138 2.141 . S
O145 C143 1.289 . S
O146 Mg138 2.048 . S
O146 C139 1.195 . S
O147 Mg138 2.048 . S
O147 C148 1.195 . S
C148 O147 1.195 . S
C148 O149 1.313 . S
O149 C148 1.313 . S
O150 Mg138 2.141 . S
O150 C141 1.289 . S
Mg151 O158 2.141 . S
Mg151 O159 2.048 . S
Mg151 O160 2.048 . S
Mg151 O163 2.141 . S
C152 O153 1.313 . S
C152 O159 1.195 . S
O153 C152 1.313 . S
C154 O155 1.245 . S
C154 O163 1.289 . S
O155 C154 1.245 . S
C156 O157 1.245 . S
C156 O158 1.289 . S
O157 C156 1.245 . S
O158 Mg151 2.141 . S
O158 C156 1.289 . S
O159 Mg151 2.048 . S
O159 C152 1.195 . S
O160 Mg151 2.048 . S
O160 C161 1.195 . S
C161 O160 1.195 . S
C161 O162 1.313 . S
O162 C161 1.313 . S
O163 Mg151 2.141 . S
O163 C154 1.289 . S
Mg164 O171 2.141 . S
Mg164 O172 2.048 . S
Mg164 O173 2.048 . S
Mg164 O176 2.141 . S
C165 O166 1.313 . S
C165 O172 1.195 . S
O166 C165 1.313 . S
C167 O168 1.245 . S
C167 O176 1.289 . S
O168 C167 1.245 . S
C169 O170 1.245 . S
C169 O171 1.289 . S
O170 C169 1.245 . S
O171 Mg164 2.141 . S
O171 C169 1.289 . S
O172 Mg164 2.048 . S
O172 C165 1.195 . S
O173 Mg164 2.048 . S
O173 C174 1.195 . S
C174 O173 1.195 . S
C174 O175 1.313 . S
O175 C174 1.313 . S
O176 Mg164 2.141 . S
O176 C167 1.289 . S
Mg177 O184 2.141 . S
Mg177 O185 2.048 . S
Mg177 O186 2.048 . S
Mg177 O189 2.141 . S
C178 O179 1.313 . S
C178 O185 1.195 . S
O179 C178 1.313 . S
C180 O181 1.245 . S
C180 O189 1.289 . S
O181 C180 1.245 . S
C182 O183 1.245 . S
C182 O184 1.289 . S
O183 C182 1.245 . S
O184 Mg177 2.141 . S
O184 C182 1.289 . S
O185 Mg177 2.048 . S
O185 C178 1.195 . S
O186 Mg177 2.048 . S
O186 C187 1.195 . S
C187 O186 1.195 . S
C187 O188 1.313 . S
O188 C187 1.313 . S
O189 Mg177 2.141 . S
O189 C180 1.289 . S
Mg190 O197 2.141 . S
Mg190 O198 2.048 . S
Mg190 O199 2.048 . S
Mg190 O202 2.141 . S
C191 O192 1.313 . S
C191 O198 1.195 . S
O192 C191 1.313 . S
C193 O194 1.245 . S
C193 O202 1.289 . S
O194 C193 1.245 . S
C195 O196 1.245 . S
C195 O197 1.289 . S
O196 C195 1.245 . S
O197 Mg190 2.141 . S
O197 C195 1.289 . S
O198 Mg190 2.048 . S
O198 C191 1.195 . S
O199 Mg190 2.048 . S
O199 C200 1.195 . S
C200 O199 1.195 . S
C200 O201 1.313 . S
O201 C200 1.313 . S
O202 Mg190 2.141 . S
O202 C193 1.289 . S
Mg203 O210 2.141 . S
Mg203 O211 2.048 . S
Mg203 O212 2.048 . S
Mg203 O215 2.141 . S
C204 O205 1.313 . S
C204 O211 1.195 . S
O205 C204 1.313 . S
C206 O207 1.245 . S
C206 O215 1.289 . S
O207 C206 1.245 . S
C208 O209 1.245 . S
C208 O210 1.289 . S
O209 C208 1.245 . S
O210 Mg203 2.141 . S
O210 C208 1.289 . S
O211 Mg203 2.048 . S
O211 C204 1.195 . S
O212 Mg203 2.048 . S
O212 C213 1.195 . S
C213 O212 1.195 . S
C213 O214 1.313 . S
O214 C213 1.313 . S
O215 Mg203 2.141 . S
O215 C206 1.289 . S
C7 C139 2.357 . S
C30 C152 1.908 . S
C174 N58 1.756 . S
C187 N81 1.395 . S
C200 C99 2.115 . S
C213 N127 1.408 . S
N25 C169 1.777 . S
C62 C182 1.745 . S
C195 C85 2.005 . S
C208 N94 1.471 . S
C131 C141 2.329 . S
C154 N2 1.623 . S
C180 C16 2.046 . S
C39 C193 1.607 . S
C206 N48 1.750 . S
N71 C143 1.439 . S
C108 C156 2.107 . S
N117 C167 1.358 . S
N35 C204 1.698 . S
C148 C53 1.795 . S
C76 C161 2.219 . S
N104 C165 1.300 . S
C122 C178 1.975 . S
N12 C191 1.254 . S
