# Generated by pormake.
# Topology scu, (8,4)-cn, num edge types: 1
# Building blocks:
#     Node 0, Type 0, BuildingBlock: GIZVER_clean_sbu_0, # of connection points: 8
#     Node 1, Type 1, BuildingBlock: NAWXER_clean_sbu_0, # of connection points: 4
#     Node 2, Type 1, BuildingBlock: NAWXER_clean_sbu_0, # of connection points: 4
#     Edge 3, Type (0, 1), BuildingBlock: OJICUG_clean_linker_0, # of connection points: 2
#     Edge 4, Type (0, 1), BuildingBlock: OJICUG_clean_linker_0, # of connection points: 2
#     Edge 5, Type (0, 1), BuildingBlock: OJICUG_clean_linker_0, # of connection points: 2
#     Edge 6, Type (0, 1), BuildingBlock: OJICUG_clean_linker_0, # of connection points: 2
#     Edge 7, Type (0, 1), BuildingBlock: OJICUG_clean_linker_0, # of connection points: 2
#     Edge 8, Type (0, 1), BuildingBlock: OJICUG_clean_linker_0, # of connection points: 2
#     Edge 9, Type (0, 1), BuildingBlock: OJICUG_clean_linker_0, # of connection points: 2
#     Edge 10, Type (0, 1), BuildingBlock: OJICUG_clean_linker_0, # of connection points: 2
# Relax obj value: 0.015
# Max RMSD: 0.069
# Mean RMSD: 0.056
data_MOF--net-scu--node1-GIZVER_clean_sbu_0--node2-NAWXER_clean_sbu_0--edge1-OJICUG_clean_linker_0
_symmetry_space_group_name_H-M    P1
_symmetry_Int_Tables_number       1
_symmetry_cell_setting            triclinic
loop_
_symmetry_equiv_pos_as_xyz
'x, y, z'
_cell_length_a     17.410724
_cell_length_b     18.11908
_cell_length_c     16.240702
_cell_angle_alpha  101.75915
_cell_angle_beta   78.493904
_cell_angle_gamma 114.9685
loop_
_atom_site_label
_atom_site_type_symbol
_atom_site_fract_x
_atom_site_fract_y
_atom_site_fract_z
_atom_type_partial_charge
Co0 Co 0.04048 0.95024 0.19129 0.0
Co1 Co 0.18038 0.06871 0.15447 0.0
Co2 Co 0.03906 0.04993 0.04101 0.0
O3 O 0.09915 0.99949 0.08933 0.0
H4 H 0.12115 0.9647 0.0474 0.0
O5 O 0.97206 0.09307 0.99304 0.0
Co6 Co 0.99345 0.12209 0.88112 0.0
Co7 Co 0.88039 0.99733 0.95515 0.0
H8 H 0.95101 0.12853 1.03519 0.0
O9 O 0.26788 0.04052 0.15773 0.0
O10 O 0.14505 1.01354 0.24857 0.0
O11 O 0.18536 0.17772 0.18441 0.0
O12 O 0.0699 0.15541 0.12585 0.0
O13 O 0.14287 0.10326 0.96291 0.0
O14 O 1.00739 0.15413 0.78089 0.0
O15 O 0.92265 0.17647 0.89863 0.0
O16 O 0.07695 0.07447 0.84807 0.0
O17 O 0.01701 0.94898 0.95472 0.0
O18 O 0.87931 0.88822 0.94736 0.0
O19 O 0.89556 1.01695 0.8448 0.0
O20 O 0.78002 0.9999 0.94491 0.0
C21 C 0.01712 0.84504 0.23842 0.0
C22 C 0.93474 1.02287 0.19737 0.0
C23 C 0.12894 0.20042 0.17304 0.0
C24 C 0.21948 1.00889 0.22444 0.0
C25 C 0.9526 0.18538 0.8191 0.0
C26 C 0.14452 0.09537 0.88268 0.0
C27 C 0.95246 0.88621 0.93222 0.0
C28 C 0.81417 1.00227 0.86613 0.0
O29 O 0.98694 0.89818 0.28006 0.0
O30 O 0.06731 0.86044 0.16676 0.0
O31 O 0.93295 0.99778 0.11845 0.0
O32 O 0.99956 0.03426 0.23084 0.0
C33 C 0.01215 0.63782 0.67316 0.0
C34 C 0.07685 0.45347 0.42625 0.0
O35 O 0.08627 0.63902 0.64424 0.0
Zn36 Zn 0.05335 0.54834 0.55067 0.0
O37 O 0.94788 0.58558 0.63702 0.0
Zn38 Zn 0.91769 0.48981 0.53505 0.0
O39 O 0.84602 0.39322 0.5943 0.0
O40 O 0.98151 0.44516 0.61545 0.0
O41 O 0.99839 0.44319 0.44538 0.0
O42 O 0.13242 0.50758 0.47167 0.0
O43 O 0.01707 0.59871 0.46577 0.0
O44 O 0.87817 0.53567 0.46001 0.0
C45 C 0.90521 0.39168 0.6283 0.0
C46 C 0.9508 0.58972 0.43551 0.0
C47 C 0.59182 0.96784 0.63047 0.0
C48 C 0.39881 0.94792 0.43904 0.0
O49 O 0.53178 0.90261 0.6029 0.0
Zn50 Zn 0.4918 0.95348 0.53602 0.0
O51 O 0.60359 0.03735 0.61158 0.0
Zn52 Zn 0.5506 0.08497 0.53855 0.0
O53 O 0.50115 0.15212 0.62103 0.0
O54 O 0.43329 1.01944 0.6311 0.0
O55 O 0.45194 1.02121 0.45969 0.0
O56 O 0.39905 0.88789 0.468 0.0
O57 O 0.59972 0.99879 0.44218 0.0
O58 O 0.65002 0.13472 0.45912 0.0
C59 C 0.44145 0.09365 0.65658 0.0
C60 C 0.65441 0.0679 0.42009 0.0
C61 C 0.0515 0.29248 0.2332 0.0
C62 C 0.12404 0.27542 0.22701 0.0
H63 H 0.98041 0.3623 0.30049 0.0
C64 C 0.18671 0.32486 0.28085 0.0
H65 H 1.00202 0.25604 0.19297 0.0
C66 C 0.17426 0.38624 0.34313 0.0
C67 C 0.09873 0.39898 0.35297 0.0
H68 H 0.24379 0.31379 0.27752 0.0
H69 H 0.22158 0.42063 0.3861 0.0
C70 C 0.03894 0.35328 0.29549 0.0
C71 C 0.78022 0.99689 0.22919 0.0
C72 C 0.864 0.04217 0.24864 0.0
H73 H 0.64727 0.96963 0.26965 0.0
C74 C 0.87894 0.1035 0.31937 0.0
H75 H 0.76717 0.94948 0.17487 0.0
C76 C 0.81061 0.11701 0.37179 0.0
C77 C 0.72648 0.06778 0.35533 0.0
H78 H 0.94322 0.13982 0.33506 0.0
H79 H 0.82315 0.16219 0.42797 0.0
C80 C 0.71185 1.00862 0.28299 0.0
C81 C 0.91548 0.73521 0.3246 0.0
C82 C 0.99578 0.7701 0.27637 0.0
H83 H 0.83705 0.6489 0.41121 0.0
C84 C 0.05734 0.73871 0.27372 0.0
H85 H 0.86678 0.7584 0.32757 0.0
C86 C 0.04077 0.67722 0.3229 0.0
C87 C 0.96173 0.64478 0.37414 0.0
H88 H 0.11986 0.76498 0.2378 0.0
H89 H 0.09096 0.65679 0.32291 0.0
C90 C 0.89818 0.67237 0.37222 0.0
C91 C 0.21923 0.96392 0.36116 0.0
C92 C 0.25379 0.97439 0.27632 0.0
H93 H 0.23902 0.94537 0.48051 0.0
C94 C 0.3271 0.95839 0.24278 0.0
H95 H 0.16251 0.97519 0.38858 0.0
C96 C 0.36961 0.94007 0.29485 0.0
C97 C 0.33918 0.93665 0.38104 0.0
H98 H 0.35457 0.96455 0.17728 0.0
H99 H 0.42977 0.93474 0.2692 0.0
C100 C 0.26227 0.94589 0.41347 0.0
C101 C 0.89862 0.75013 0.83991 0.0
C102 C 0.96693 0.81714 0.87411 0.0
H103 H 0.85938 0.64127 0.75063 0.0
C104 C 0.05071 0.82149 0.84606 0.0
H105 H 0.83346 0.7446 0.85993 0.0
C106 C 0.06593 0.76224 0.7826 0.0
C107 C 0.99771 0.69722 0.7459 0.0
H108 H 0.10512 0.87231 0.871 0.0
H109 H 0.13115 0.76876 0.76068 0.0
C110 C 0.9138 0.69098 0.77678 0.0
C111 C 0.24855 0.13844 0.75371 0.0
C112 C 0.2251 0.1021 0.8284 0.0
H113 H 0.33923 0.16773 0.64191 0.0
C114 C 0.27869 0.07108 0.85036 0.0
H115 H 0.20829 0.16316 0.7359 0.0
C116 C 0.35227 0.07241 0.79613 0.0
C117 C 0.37499 0.10754 0.72086 0.0
H118 H 0.26171 0.04252 0.90753 0.0
H119 H 0.39021 0.04393 0.81171 0.0
C120 C 0.32376 0.14217 0.7008 0.0
C121 C 0.885 0.28259 0.81071 0.0
C122 C 0.92436 0.22861 0.77032 0.0
H123 H 0.84637 0.37715 0.79622 0.0
C124 C 0.94196 0.21948 0.68126 0.0
H125 H 0.87054 0.29095 0.87912 0.0
C126 C 0.92606 0.26684 0.63423 0.0
C127 C 0.89238 0.32474 0.67484 0.0
H128 H 0.97141 0.17794 0.64772 0.0
H129 H 0.94568 0.26225 0.56634 0.0
C130 C 0.87005 0.33108 0.76331 0.0
C131 C 0.79214 1.01324 0.7217 0.0
C132 C 0.75834 0.98584 0.80111 0.0
H133 H 0.7647 0.03072 0.60574 0.0
C134 C 0.66921 0.94425 0.8197 0.0
H135 H 0.86038 0.0434 0.70468 0.0
C136 C 0.61485 0.93339 0.76151 0.0
C137 C 0.64861 0.96591 0.68489 0.0
H138 H 0.6412 0.92107 0.87986 0.0
H139 H 0.54638 0.90344 0.77824 0.0
C140 C 0.73755 1.0052 0.66487 0.0
loop_
_geom_bond_atom_site_label_1
_geom_bond_atom_site_label_2
_geom_bond_distance
_geom_bond_site_symmetry_2
_ccdc_geom_bond_type
Co0 O3 2.042 . S
Co0 O10 2.264 1_565 S
Co0 O29 2.286 1_455 S
Co0 O30 2.069 . S
Co0 O32 2.015 1_455 S
Co1 O3 2.122 1_545 S
Co1 O9 2.073 . S
Co1 O10 2.327 . S
Co1 O11 1.976 . S
Co2 O3 2.089 1_545 S
Co2 O5 2.085 1_454 S
Co2 O12 2.123 . S
Co2 O13 2.155 1_554 S
Co2 O17 2.100 1_444 S
Co2 O31 2.132 1_445 S
O3 Co0 2.042 . S
O3 Co1 2.122 1_565 S
O3 Co2 2.089 1_565 S
O3 H4 0.980 . S
H4 O3 0.980 . S
O5 Co2 2.085 1_656 S
O5 Co6 2.042 1_655 S
O5 Co7 2.122 1_545 S
O5 H8 0.980 . S
Co6 O5 2.042 1_455 S
Co6 O14 2.286 . S
Co6 O15 2.069 1_455 S
Co6 O16 2.015 . S
Co6 O19 2.264 1_445 S
Co7 O5 2.122 1_565 S
Co7 O18 1.976 . S
Co7 O19 2.327 . S
Co7 O20 2.073 . S
H8 O5 0.980 . S
O9 Co1 2.073 . S
O9 C24 1.245 1_545 S
O10 Co0 2.264 1_545 S
O10 Co1 2.327 . S
O10 C24 1.257 1_545 S
O11 Co1 1.976 . S
O11 C23 1.251 . S
O12 Co2 2.123 . S
O12 C23 1.274 . S
O13 Co2 2.155 1_556 S
O13 C26 1.246 . S
O14 Co6 2.286 . S
O14 C25 1.259 1_455 S
O15 Co6 2.069 1_655 S
O15 C25 1.289 . S
O16 Co6 2.015 . S
O16 C26 1.257 . S
O17 Co2 2.100 1_666 S
O17 C27 1.274 . S
O18 Co7 1.976 . S
O18 C27 1.251 . S
O19 Co6 2.264 1_665 S
O19 Co7 2.327 . S
O19 C28 1.257 1_565 S
O20 Co7 2.073 . S
O20 C28 1.245 1_565 S
C21 O29 1.259 1_455 S
C21 O30 1.289 . S
C22 O31 1.246 . S
C22 O32 1.257 . S
C23 O11 1.251 . S
C23 O12 1.274 . S
C24 O9 1.245 1_565 S
C24 O10 1.257 1_565 S
C25 O14 1.259 1_655 S
C25 O15 1.289 . S
C26 O13 1.246 . S
C26 O16 1.257 . S
C27 O17 1.274 . S
C27 O18 1.251 . S
C28 O19 1.257 1_545 S
C28 O20 1.245 1_545 S
O29 Co0 2.286 1_655 S
O29 C21 1.259 1_655 S
O30 Co0 2.069 . S
O30 C21 1.289 . S
O31 Co2 2.132 1_665 S
O31 C22 1.246 . S
O32 Co0 2.015 1_655 S
O32 C22 1.257 . S
C33 O35 1.247 . S
C33 O37 1.258 1_455 S
C34 O41 1.237 1_455 S
C34 O42 1.265 . S
O35 C33 1.247 . S
O35 Zn36 2.028 . S
Zn36 O35 2.028 . S
Zn36 O40 2.035 . S
Zn36 O42 2.035 . S
Zn36 O43 2.028 . S
O37 C33 1.258 1_655 S
O37 Zn38 2.035 . S
Zn38 O37 2.035 . S
Zn38 O39 2.028 . S
Zn38 O41 2.028 . S
Zn38 O44 2.035 . S
O39 Zn38 2.028 . S
O39 C45 1.237 1_655 S
O40 Zn36 2.035 . S
O40 C45 1.264 . S
O41 C34 1.237 1_655 S
O41 Zn38 2.028 . S
O42 C34 1.265 . S
O42 Zn36 2.035 . S
O43 Zn36 2.028 . S
O43 C46 1.247 . S
O44 Zn38 2.035 . S
O44 C46 1.258 1_655 S
C45 O39 1.237 1_455 S
C45 O40 1.264 . S
C46 O43 1.247 . S
C46 O44 1.258 1_455 S
C47 O49 1.241 1_545 S
C47 O51 1.268 . S
C48 O55 1.247 . S
C48 O56 1.258 1_545 S
O49 C47 1.241 1_565 S
O49 Zn50 2.028 . S
Zn50 O49 2.028 . S
Zn50 O54 2.035 . S
Zn50 O56 2.035 . S
Zn50 O57 2.028 . S
O51 C47 1.268 . S
O51 Zn52 2.035 . S
Zn52 O51 2.035 . S
Zn52 O53 2.028 . S
Zn52 O55 2.028 . S
Zn52 O58 2.035 . S
O53 Zn52 2.028 . S
O53 C59 1.247 . S
O54 Zn50 2.035 . S
O54 C59 1.258 1_565 S
O55 C48 1.247 . S
O55 Zn52 2.028 . S
O56 C48 1.258 1_565 S
O56 Zn50 2.035 . S
O57 Zn50 2.028 . S
O57 C60 1.240 1_565 S
O58 Zn52 2.035 . S
O58 C60 1.267 . S
C59 O53 1.247 . S
C59 O54 1.258 1_545 S
C60 O57 1.240 1_545 S
C60 O58 1.267 . S
C61 C62 1.387 1_655 S
C61 H65 0.950 . S
C61 C70 1.390 . S
C62 C61 1.387 1_455 S
C62 C64 1.387 . S
H63 C70 0.950 . S
C64 C62 1.387 . S
C64 C66 1.390 . S
C64 H68 0.950 . S
H65 C61 0.950 . S
C66 C64 1.390 . S
C66 C67 1.387 . S
C66 H69 0.950 . S
C67 C66 1.387 . S
C67 C70 1.387 1_455 S
H68 C64 0.950 . S
H69 C66 0.950 . S
C70 C61 1.390 . S
C70 H63 0.950 . S
C70 C67 1.387 1_655 S
C71 C72 1.387 . S
C71 H75 0.950 . S
C71 C80 1.390 . S
C72 C71 1.387 . S
C72 C74 1.387 1_565 S
H73 C80 0.950 . S
C74 C72 1.387 1_545 S
C74 C76 1.390 . S
C74 H78 0.950 . S
H75 C71 0.950 . S
C76 C74 1.390 . S
C76 C77 1.376 1_545 S
C76 H79 0.950 . S
C77 C76 1.376 1_565 S
C77 C80 1.401 . S
H78 C74 0.950 . S
H79 C76 0.950 . S
C80 C71 1.390 . S
C80 H73 0.950 . S
C80 C77 1.401 . S
C81 C82 1.387 . S
C81 H85 0.950 . S
C81 C90 1.390 . S
C82 C81 1.387 . S
C82 C84 1.387 1_455 S
H83 C90 0.950 . S
C84 C82 1.387 1_655 S
C84 C86 1.390 . S
C84 H88 0.950 . S
H85 C81 0.950 . S
C86 C84 1.390 . S
C86 C87 1.387 1_655 S
C86 H89 0.950 . S
C87 C86 1.387 1_455 S
C87 C90 1.387 . S
H88 C84 0.950 . S
H89 C86 0.950 . S
C90 C81 1.390 . S
C90 H83 0.950 . S
C90 C87 1.387 . S
C91 C92 1.387 1_545 S
C91 H95 0.956 . S
C91 C100 1.385 . S
C92 C91 1.387 1_565 S
C92 C94 1.387 . S
H93 C100 0.950 . S
C94 C92 1.387 . S
C94 C96 1.390 . S
C94 H98 0.950 . S
H95 C91 0.956 . S
C96 C94 1.390 . S
C96 C97 1.387 . S
C96 H99 0.950 . S
C97 C96 1.387 . S
C97 C100 1.387 1_565 S
H98 C94 0.950 . S
H99 C96 0.950 . S
C100 C91 1.385 . S
C100 H93 0.950 . S
C100 C97 1.387 1_545 S
C101 C102 1.387 . S
C101 H105 0.950 . S
C101 C110 1.390 . S
C102 C101 1.387 . S
C102 C104 1.387 1_655 S
H103 C110 0.950 . S
C104 C102 1.387 1_455 S
C104 C106 1.390 . S
C104 H108 0.950 . S
H105 C101 0.950 . S
C106 C104 1.390 . S
C106 C107 1.392 . S
C106 H109 0.950 . S
C107 C106 1.392 . S
C107 C110 1.381 1_455 S
H108 C104 0.950 . S
H109 C106 0.950 . S
C110 C101 1.390 . S
C110 H103 0.950 . S
C110 C107 1.381 1_655 S
C111 C112 1.387 . S
C111 H115 0.950 . S
C111 C120 1.390 . S
C112 C111 1.387 . S
C112 C114 1.387 1_545 S
H113 C120 0.950 . S
C114 C112 1.387 1_565 S
C114 C116 1.390 . S
C114 H118 0.950 . S
H115 C111 0.950 . S
C116 C114 1.390 . S
C116 C117 1.387 1_565 S
C116 H119 0.950 . S
C117 C116 1.387 1_545 S
C117 C120 1.387 . S
H118 C114 0.950 . S
H119 C116 0.950 . S
C120 C111 1.390 . S
C120 H113 0.950 . S
C120 C117 1.387 . S
C121 C122 1.387 1_455 S
C121 H125 0.950 . S
C121 C130 1.390 . S
C122 C121 1.387 1_655 S
C122 C124 1.387 . S
H123 C130 0.950 . S
C124 C122 1.387 . S
C124 C126 1.390 . S
C124 H128 0.950 . S
H125 C121 0.950 . S
C126 C124 1.390 . S
C126 C127 1.387 . S
C126 H129 0.950 . S
C127 C126 1.387 . S
C127 C130 1.387 1_655 S
H128 C124 0.950 . S
H129 C126 0.950 . S
C130 C121 1.390 . S
C130 H123 0.950 . S
C130 C127 1.387 1_455 S
C131 C132 1.387 . S
C131 H135 0.950 . S
C131 C140 1.390 . S
C132 C131 1.387 . S
C132 C134 1.387 1_545 S
H133 C140 0.950 . S
C134 C132 1.387 1_565 S
C134 C136 1.390 . S
C134 H138 0.950 . S
H135 C131 0.950 . S
C136 C134 1.390 . S
C136 C137 1.387 1_565 S
C136 H139 0.950 . S
C137 C136 1.387 1_545 S
C137 C140 1.387 . S
H138 C134 0.950 . S
H139 C136 0.950 . S
C140 C131 1.390 . S
C140 H133 0.950 . S
C140 C137 1.387 . S
C62 C23 1.343 . S
C67 C34 1.429 . S
C72 C22 1.453 . S
C77 C60 1.495 1_565 S
C82 C21 1.632 . S
C87 C46 1.646 . S
C92 C24 1.471 . S
C97 C48 1.542 1_565 S
C102 C27 1.343 . S
C107 C33 1.428 . S
C112 C26 1.451 . S
C117 C59 1.499 . S
C127 C45 1.650 1_655 S
C122 C25 1.632 . S
C132 C28 1.473 . S
C137 C47 1.538 . S
