# Generated by pormake.
# Topology nia, (6,6)-cn, num edge types: 1
# Building blocks:
#     Node 0, Type 0, BuildingBlock: CIFDUS_clean_sbu_1, # of connection points: 6
#     Node 1, Type 0, BuildingBlock: CIFDUS_clean_sbu_1, # of connection points: 6
#     Node 2, Type 1, BuildingBlock: MIDCAF_clean_sbu_0, # of connection points: 6
#     Node 3, Type 1, BuildingBlock: MIDCAF_clean_sbu_0, # of connection points: 6
#     Edge 4, Type (0, 1), BuildingBlock: EYOCIG_clean_linker_4, # of connection points: 2
#     Edge 5, Type (0, 1), BuildingBlock: EYOCIG_clean_linker_4, # of connection points: 2
#     Edge 6, Type (0, 1), BuildingBlock: EYOCIG_clean_linker_4, # of connection points: 2
#     Edge 7, Type (0, 1), BuildingBlock: EYOCIG_clean_linker_4, # of connection points: 2
#     Edge 8, Type (0, 1), BuildingBlock: EYOCIG_clean_linker_4, # of connection points: 2
#     Edge 9, Type (0, 1), BuildingBlock: EYOCIG_clean_linker_4, # of connection points: 2
#     Edge 10, Type (0, 1), BuildingBlock: EYOCIG_clean_linker_4, # of connection points: 2
#     Edge 11, Type (0, 1), BuildingBlock: EYOCIG_clean_linker_4, # of connection points: 2
#     Edge 12, Type (0, 1), BuildingBlock: EYOCIG_clean_linker_4, # of connection points: 2
#     Edge 13, Type (0, 1), BuildingBlock: EYOCIG_clean_linker_4, # of connection points: 2
#     Edge 14, Type (0, 1), BuildingBlock: EYOCIG_clean_linker_4, # of connection points: 2
#     Edge 15, Type (0, 1), BuildingBlock: EYOCIG_clean_linker_4, # of connection points: 2
# Relax obj value: 0.123
# Max RMSD: 0.237
# Mean RMSD: 0.158
data_MOF--net-nia--node1-CIFDUS_clean_sbu_1--node2-MIDCAF_clean_sbu_0--edge1-EYOCIG_clean_linker_4
_symmetry_space_group_name_H-M    P1
_symmetry_Int_Tables_number       1
_symmetry_cell_setting            triclinic
loop_
_symmetry_equiv_pos_as_xyz
'x, y, z'
_cell_length_a     18.849472
_cell_length_b     18.850661
_cell_length_c     26.970599
_cell_angle_alpha  89.427401
_cell_angle_beta   89.414519
_cell_angle_gamma 127.64991
loop_
_atom_site_label
_atom_site_type_symbol
_atom_site_fract_x
_atom_site_fract_y
_atom_site_fract_z
_atom_type_partial_charge
O0 O 0.98482 0.92725 0.96573 0.0
Mn1 Mn -0.00281 0.00482 0.02574 0.0
O2 O 0.8753 0.78241 0.9864 0.0
Mn3 Mn 0.87282 0.80097 0.05329 0.0
O4 O 0.00957 0.08238 0.08576 0.0
O5 O 0.11231 0.11016 0.9949 0.0
Mn6 Mn 0.12156 0.20867 0.9982 0.0
O7 O 0.92661 0.03702 0.98422 0.0
O8 O 0.11909 0.22723 0.06509 0.0
O9 O 0.06778 0.97261 0.06727 0.0
O10 O 0.96855 0.82612 0.08941 0.0
O11 O 0.22328 0.23959 0.96459 0.0
O12 O 0.02583 0.18351 0.96208 0.0
C13 C 0.80812 0.85435 0.08193 0.0
C14 C 0.93122 0.84349 0.95533 0.0
C15 C 0.06316 0.16615 0.09616 0.0
C16 C 0.18627 0.15528 0.96956 0.0
C17 C 0.94858 0.10774 0.96062 0.0
C18 C 0.04581 0.90189 0.09087 0.0
O19 O 0.88208 0.89947 0.05659 0.0
O20 O 0.77111 0.77004 0.0869 0.0
O21 O 0.07483 0.01729 0.58573 0.0
Mn22 Mn -0.0028 0.00482 0.52574 0.0
O23 O 0.21966 0.12689 0.56504 0.0
Mn24 Mn 0.20104 0.12933 0.49816 0.0
O25 O 0.91956 0.99235 0.46575 0.0
O26 O 0.89192 0.88967 0.5566 0.0
Mn27 Mn 0.79335 0.88031 0.55333 0.0
O28 O 0.96491 0.07531 0.56729 0.0
O29 O 0.77473 0.88274 0.48645 0.0
O30 O 0.02948 0.93433 0.4842 0.0
O31 O 0.17596 0.03364 0.46202 0.0
O32 O 0.76252 0.77864 0.58692 0.0
O33 O 0.81843 0.976 0.58946 0.0
C34 C 0.14755 0.19393 0.46955 0.0
C35 C 0.15861 0.07094 0.59613 0.0
C36 C 0.83578 0.93869 0.45536 0.0
C37 C 0.84684 0.81571 0.58194 0.0
C38 C 0.89417 0.05328 0.59091 0.0
C39 C 0.10022 0.95636 0.46058 0.0
O40 O 0.10247 0.11997 0.49489 0.0
O41 O 0.23187 0.231 0.46456 0.0
Zn42 Zn 0.2981 0.66692 0.17735 0.0
Zn43 Zn 0.33495 0.70382 0.37412 0.0
Zn44 Zn 0.31521 0.6867 0.27574 0.0
C45 C 0.50638 0.79762 0.33303 0.0
C46 C 0.22645 0.52115 0.35521 0.0
O47 O 0.25587 0.75139 0.24948 0.0
O48 O 0.24524 0.72981 0.16833 0.0
C49 C 0.48078 0.77537 0.19628 0.0
O50 O 0.46086 0.76859 0.29292 0.0
O51 O 0.46754 0.77993 0.37472 0.0
O52 O 0.26404 0.57449 0.39063 0.0
O53 O 0.23856 0.55057 0.31017 0.0
O54 O 0.42744 0.73778 0.16086 0.0
O55 O 0.45136 0.76328 0.24132 0.0
O56 O 0.23327 0.54106 0.25857 0.0
O57 O 0.22193 0.53434 0.17677 0.0
C58 C 0.20423 0.49552 0.21847 0.0
O59 O 0.25059 0.74612 0.30196 0.0
O60 O 0.27211 0.75674 0.38311 0.0
C61 C 0.23595 0.76262 0.20604 0.0
C62 C 0.23936 0.76606 0.34539 0.0
Zn63 Zn 0.69629 0.34272 0.87414 0.0
Zn64 Zn 0.65943 0.30582 0.67737 0.0
Zn65 Zn 0.67918 0.32293 0.77575 0.0
C66 C 0.76794 0.48848 0.69628 0.0
C67 C 0.48801 0.21201 0.71847 0.0
O68 O 0.73852 0.25824 0.80201 0.0
O69 O 0.74914 0.27982 0.88316 0.0
C70 C 0.79017 0.51411 0.83302 0.0
O71 O 0.75582 0.45906 0.74132 0.0
O72 O 0.73035 0.43514 0.66086 0.0
O73 O 0.52685 0.2297 0.67677 0.0
O74 O 0.53353 0.24104 0.75857 0.0
O75 O 0.77246 0.4753 0.87472 0.0
O76 O 0.76112 0.46857 0.79292 0.0
O77 O 0.54303 0.24636 0.81017 0.0
O78 O 0.56695 0.27186 0.89063 0.0
C79 C 0.51361 0.23427 0.85521 0.0
O80 O 0.7438 0.26351 0.74953 0.0
O81 O 0.72228 0.2529 0.66838 0.0
C82 C 0.75844 0.24702 0.84545 0.0
C83 C 0.75503 0.24357 0.7061 0.0
C84 C 0.14786 0.89101 0.15044 0.0
C85 C 0.10919 0.90618 0.12226 0.0
C86 C 0.18136 0.85585 0.18016 0.0
C87 C 0.20633 0.81599 0.19819 0.0
C88 C 0.23778 0.08561 0.67845 0.0
C89 C 0.18878 0.06867 0.64445 0.0
C90 C 0.31533 0.12158 0.70678 0.0
C91 C 0.39218 0.16194 0.71923 0.0
C92 C 0.07777 0.24527 0.17849 0.0
C93 C 0.06085 0.19628 0.1445 0.0
C94 C 0.11375 0.32283 0.20682 0.0
C95 C 0.15413 0.39969 0.21926 0.0
C96 C 0.88327 0.15531 0.65051 0.0
C97 C 0.89842 0.11662 0.62232 0.0
C98 C 0.84816 0.18886 0.68024 0.0
C99 C 0.80834 0.21387 0.69826 0.0
C100 C 0.72171 0.89431 0.13472 0.0
C101 C 0.77167 0.89152 0.10814 0.0
C102 C 0.64772 0.86898 0.16489 0.0
C103 C 0.57493 0.82959 0.18474 0.0
C104 C 0.88689 0.72938 0.63471 0.0
C105 C 0.88407 0.77932 0.60814 0.0
C106 C 0.86157 0.6554 0.66488 0.0
C107 C 0.82218 0.58263 0.68474 0.0
C108 C 0.11112 0.85433 0.40098 0.0
C109 C 0.09598 0.89301 0.42917 0.0
C110 C 0.14623 0.82078 0.37125 0.0
C111 C 0.18605 0.79576 0.35323 0.0
C112 C 0.27268 0.11533 0.91677 0.0
C113 C 0.22272 0.11812 0.94335 0.0
C114 C 0.34667 0.14066 0.8866 0.0
C115 C 0.41946 0.18005 0.86675 0.0
C116 C 0.1075 0.28025 0.41678 0.0
C117 C 0.11032 0.23032 0.44335 0.0
C118 C 0.13282 0.35423 0.3866 0.0
C119 C 0.17221 0.42701 0.36675 0.0
C120 C 0.84652 0.11863 0.90105 0.0
C121 C 0.8852 0.10345 0.92923 0.0
C122 C 0.81302 0.15378 0.87133 0.0
C123 C 0.78806 0.19364 0.8533 0.0
C124 C 0.75661 0.92403 0.37304 0.0
C125 C 0.80561 0.94096 0.40704 0.0
C126 C 0.67906 0.88806 0.34471 0.0
C127 C 0.60221 0.8477 0.33226 0.0
C128 C 0.91662 0.76436 0.873 0.0
C129 C 0.93353 0.81336 0.90699 0.0
C130 C 0.88064 0.6868 0.84467 0.0
C131 C 0.84027 0.60994 0.83223 0.0
loop_
_geom_bond_atom_site_label_1
_geom_bond_atom_site_label_2
_geom_bond_distance
_geom_bond_site_symmetry_2
_ccdc_geom_bond_type
O0 Mn1 2.163 1_666 S
O0 C14 1.244 . S
Mn1 O0 2.163 1_444 S
Mn1 O4 2.160 . S
Mn1 O5 2.221 1_554 S
Mn1 O7 2.163 1_454 S
Mn1 O9 2.160 1_545 S
Mn1 O19 2.221 1_445 S
O2 Mn3 2.087 1_556 S
O2 C14 1.256 . S
Mn3 O2 2.087 1_554 S
Mn3 O10 2.089 . S
Mn3 O19 2.290 . S
Mn3 O20 2.251 . S
O4 Mn1 2.160 . S
O4 C15 1.239 . S
O5 Mn1 2.221 1_556 S
O5 Mn6 2.290 . S
O5 C16 1.278 . S
Mn6 O5 2.290 . S
Mn6 O8 2.089 1_556 S
Mn6 O11 2.251 . S
Mn6 O12 2.087 . S
O7 Mn1 2.163 1_656 S
O7 C17 1.244 . S
O8 Mn6 2.089 1_554 S
O8 C15 1.256 . S
O9 Mn1 2.160 1_565 S
O9 C18 1.239 . S
O10 Mn3 2.089 . S
O10 C18 1.256 1_655 S
O11 Mn6 2.251 . S
O11 C16 1.241 . S
O12 Mn6 2.087 . S
O12 C17 1.256 1_455 S
C13 O19 1.278 . S
C13 O20 1.241 . S
C14 O0 1.244 . S
C14 O2 1.256 . S
C15 O4 1.239 . S
C15 O8 1.256 . S
C16 O5 1.278 . S
C16 O11 1.241 . S
C17 O7 1.244 . S
C17 O12 1.256 1_655 S
C18 O9 1.239 . S
C18 O10 1.256 1_455 S
O19 Mn1 2.221 1_665 S
O19 Mn3 2.290 . S
O19 C13 1.278 . S
O20 Mn3 2.251 . S
O20 C13 1.241 . S
O21 Mn22 2.161 1_445 S
O21 C35 1.244 . S
Mn22 O21 2.161 1_665 S
Mn22 O25 2.161 . S
Mn22 O26 2.222 . S
Mn22 O28 2.165 1_565 S
Mn22 O30 2.158 1_655 S
Mn22 O40 2.221 1_665 S
O23 Mn24 2.087 . S
O23 C35 1.256 . S
Mn24 O23 2.087 . S
Mn24 O31 2.089 . S
Mn24 O40 2.290 . S
Mn24 O41 2.251 . S
O25 Mn22 2.161 . S
O25 C36 1.239 . S
O26 Mn22 2.222 . S
O26 Mn27 2.290 . S
O26 C37 1.278 . S
Mn27 O26 2.290 . S
Mn27 O29 2.089 . S
Mn27 O32 2.251 . S
Mn27 O33 2.087 . S
O28 Mn22 2.165 1_545 S
O28 C38 1.244 . S
O29 Mn27 2.089 . S
O29 C36 1.256 . S
O30 Mn22 2.158 1_455 S
O30 C39 1.239 . S
O31 Mn24 2.089 . S
O31 C39 1.256 1_545 S
O32 Mn27 2.251 . S
O32 C37 1.241 . S
O33 Mn27 2.087 . S
O33 C38 1.256 1_565 S
C34 O40 1.278 . S
C34 O41 1.241 . S
C35 O21 1.244 . S
C35 O23 1.256 . S
C36 O25 1.239 . S
C36 O29 1.256 . S
C37 O26 1.278 . S
C37 O32 1.241 . S
C38 O28 1.244 . S
C38 O33 1.256 1_545 S
C39 O30 1.239 . S
C39 O31 1.256 1_565 S
O40 Mn22 2.221 1_445 S
O40 Mn24 2.290 . S
O40 C34 1.278 . S
O41 Mn24 2.251 . S
O41 C34 1.241 . S
Zn42 O48 1.920 . S
Zn42 O54 1.898 . S
Zn42 O57 1.905 . S
Zn43 O51 1.905 . S
Zn43 O52 1.898 . S
Zn43 O60 1.920 . S
Zn44 O47 2.080 . S
Zn44 O50 2.114 . S
Zn44 O53 2.120 . S
Zn44 O55 2.120 . S
Zn44 O56 2.114 . S
Zn44 O59 2.080 . S
C45 O50 1.166 . S
C45 O51 1.182 . S
C46 O52 1.167 . S
C46 O53 1.299 . S
O47 Zn44 2.080 . S
O47 C61 1.305 . S
O48 Zn42 1.920 . S
O48 C61 1.234 . S
C49 O54 1.167 . S
C49 O55 1.299 . S
O50 Zn44 2.114 . S
O50 C45 1.166 . S
O51 Zn43 1.905 . S
O51 C45 1.182 . S
O52 Zn43 1.898 . S
O52 C46 1.167 . S
O53 Zn44 2.120 . S
O53 C46 1.299 . S
O54 Zn42 1.898 . S
O54 C49 1.167 . S
O55 Zn44 2.120 . S
O55 C49 1.299 . S
O56 Zn44 2.114 . S
O56 C58 1.166 . S
O57 Zn42 1.905 . S
O57 C58 1.182 . S
C58 O56 1.166 . S
C58 O57 1.182 . S
O59 Zn44 2.080 . S
O59 C62 1.305 . S
O60 Zn43 1.920 . S
O60 C62 1.234 . S
C61 O47 1.305 . S
C61 O48 1.234 . S
C62 O59 1.305 . S
C62 O60 1.234 . S
Zn63 O69 1.920 . S
Zn63 O75 1.898 . S
Zn63 O78 1.905 . S
Zn64 O72 1.905 . S
Zn64 O73 1.898 . S
Zn64 O81 1.920 . S
Zn65 O68 2.080 . S
Zn65 O71 2.114 . S
Zn65 O74 2.120 . S
Zn65 O76 2.120 . S
Zn65 O77 2.114 . S
Zn65 O80 2.080 . S
C66 O71 1.166 . S
C66 O72 1.182 . S
C67 O73 1.167 . S
C67 O74 1.299 . S
O68 Zn65 2.080 . S
O68 C82 1.305 . S
O69 Zn63 1.920 . S
O69 C82 1.234 . S
C70 O75 1.167 . S
C70 O76 1.299 . S
O71 Zn65 2.114 . S
O71 C66 1.166 . S
O72 Zn64 1.905 . S
O72 C66 1.182 . S
O73 Zn64 1.898 . S
O73 C67 1.167 . S
O74 Zn65 2.120 . S
O74 C67 1.299 . S
O75 Zn63 1.898 . S
O75 C70 1.167 . S
O76 Zn65 2.120 . S
O76 C70 1.299 . S
O77 Zn65 2.114 . S
O77 C79 1.166 . S
O78 Zn63 1.905 . S
O78 C79 1.182 . S
C79 O77 1.166 . S
C79 O78 1.182 . S
O80 Zn65 2.080 . S
O80 C83 1.305 . S
O81 Zn64 1.920 . S
O81 C83 1.234 . S
C82 O68 1.305 . S
C82 O69 1.234 . S
C83 O80 1.305 . S
C83 O81 1.234 . S
C84 C85 1.170 . S
C84 C86 1.380 . S
C85 C84 1.170 . S
C86 C84 1.380 . S
C86 C87 1.170 . S
C87 C86 1.170 . S
C88 C89 1.170 . S
C88 C90 1.380 . S
C89 C88 1.170 . S
C90 C88 1.380 . S
C90 C91 1.170 . S
C91 C90 1.170 . S
C92 C93 1.170 . S
C92 C94 1.380 . S
C93 C92 1.170 . S
C94 C92 1.380 . S
C94 C95 1.170 . S
C95 C94 1.170 . S
C96 C97 1.170 . S
C96 C98 1.380 . S
C97 C96 1.170 . S
C98 C96 1.380 . S
C98 C99 1.170 . S
C99 C98 1.170 . S
C100 C101 1.170 . S
C100 C102 1.380 . S
C101 C100 1.170 . S
C102 C100 1.380 . S
C102 C103 1.170 . S
C103 C102 1.170 . S
C104 C105 1.170 . S
C104 C106 1.380 . S
C105 C104 1.170 . S
C106 C104 1.380 . S
C106 C107 1.170 . S
C107 C106 1.170 . S
C108 C109 1.170 . S
C108 C110 1.380 . S
C109 C108 1.170 . S
C110 C108 1.380 . S
C110 C111 1.170 . S
C111 C110 1.170 . S
C112 C113 1.170 . S
C112 C114 1.380 . S
C113 C112 1.170 . S
C114 C112 1.380 . S
C114 C115 1.170 . S
C115 C114 1.170 . S
C116 C117 1.170 . S
C116 C118 1.380 . S
C117 C116 1.170 . S
C118 C116 1.380 . S
C118 C119 1.170 . S
C119 C118 1.170 . S
C120 C121 1.170 . S
C120 C122 1.380 . S
C121 C120 1.170 . S
C122 C120 1.380 . S
C122 C123 1.170 . S
C123 C122 1.170 . S
C124 C125 1.170 . S
C124 C126 1.380 . S
C125 C124 1.170 . S
C126 C124 1.380 . S
C126 C127 1.170 . S
C127 C126 1.170 . S
C128 C129 1.170 . S
C128 C130 1.380 . S
C129 C128 1.170 . S
C130 C128 1.380 . S
C130 C131 1.170 . S
C131 C130 1.170 . S
C85 C18 1.392 . S
C87 C61 1.314 . S
C89 C35 1.518 . S
C91 C67 1.372 . S
C93 C15 1.383 . S
C95 C58 1.272 . S
C97 C38 1.580 . S
C99 C83 1.456 . S
C101 C13 1.456 . S
C103 C49 1.421 . S
C107 C66 1.414 . S
C105 C37 1.301 . S
C109 C39 1.387 . S
C111 C62 1.320 . S
C115 C79 1.414 . S
C113 C16 1.301 . S
C119 C46 1.394 . S
C117 C34 1.450 . S
C123 C82 1.457 . S
C121 C17 1.579 . S
C127 C45 1.260 . S
C125 C36 1.373 . S
C131 C70 1.405 . S
C129 C14 1.526 . S
