# Generated by pormake.
# Topology pts, (4,4)-cn, num edge types: 1
# Building blocks:
#     Node 0, Type 0, BuildingBlock: NAWXER_clean_sbu_0, # of connection points: 4
#     Node 1, Type 0, BuildingBlock: NAWXER_clean_sbu_0, # of connection points: 4
#     Node 2, Type 1, BuildingBlock: QUQFOY_clean_sbu_1, # of connection points: 4
#     Node 3, Type 1, BuildingBlock: QUQFOY_clean_sbu_1, # of connection points: 4
#     Edge 4, Type (0, 1), BuildingBlock: KIFKEQ_clean_linker_1, # of connection points: 2
#     Edge 5, Type (0, 1), BuildingBlock: KIFKEQ_clean_linker_1, # of connection points: 2
#     Edge 6, Type (0, 1), BuildingBlock: KIFKEQ_clean_linker_1, # of connection points: 2
#     Edge 7, Type (0, 1), BuildingBlock: KIFKEQ_clean_linker_1, # of connection points: 2
#     Edge 8, Type (0, 1), BuildingBlock: KIFKEQ_clean_linker_1, # of connection points: 2
#     Edge 9, Type (0, 1), BuildingBlock: KIFKEQ_clean_linker_1, # of connection points: 2
#     Edge 10, Type (0, 1), BuildingBlock: KIFKEQ_clean_linker_1, # of connection points: 2
#     Edge 11, Type (0, 1), BuildingBlock: KIFKEQ_clean_linker_1, # of connection points: 2
# Relax obj value: 0.106
# Max RMSD: 0.243
# Mean RMSD: 0.140
data_MOF--net-pts--node1-NAWXER_clean_sbu_0--node2-QUQFOY_clean_sbu_1--edge1-KIFKEQ_clean_linker_1
_symmetry_space_group_name_H-M    P1
_symmetry_Int_Tables_number       1
_symmetry_cell_setting            triclinic
loop_
_symmetry_equiv_pos_as_xyz
'x, y, z'
_cell_length_a     22.589187
_cell_length_b     24.40108
_cell_length_c     39.946986
_cell_angle_alpha  89.988957
_cell_angle_beta   89.929351
_cell_angle_gamma 90.048173
loop_
_atom_site_label
_atom_site_type_symbol
_atom_site_fract_x
_atom_site_fract_y
_atom_site_fract_z
_atom_type_partial_charge
C0 C 0.41865 0.06206 0.96381 0.0
C1 C 0.56523 0.06627 0.05336 0.0
O2 O 0.435 1.01439 0.97367 0.0
Zn3 Zn 0.4928 0.97835 0.01006 0.0
O4 O 0.43922 0.10478 0.97791 0.0
Zn5 Zn 0.49197 0.06655 1.00823 0.0
O6 O 0.55065 0.02753 0.97387 0.0
O7 O 0.54805 0.93792 0.98195 0.0
O8 O 0.54504 0.10739 0.03753 0.0
O9 O 0.54896 0.01782 0.0452 0.0
O10 O 0.43831 0.93983 0.0395 0.0
O11 O 0.43046 0.02994 0.04217 0.0
C12 C 0.56801 0.97921 0.96609 0.0
C13 C 0.41402 0.98224 0.05194 0.0
C14 C 0.94134 0.58831 0.46602 0.0
C15 C 0.94815 0.44473 0.55163 0.0
O16 O 0.8973 0.56827 0.48167 0.0
Zn17 Zn 0.94185 0.51806 0.51018 0.0
O18 O -0.00624 0.57238 0.47326 0.0
Zn19 Zn 0.03695 0.51828 0.5069 0.0
O20 O 0.07722 0.46914 0.47614 0.0
O21 O 0.97979 0.46051 0.47569 0.0
O22 O -0.00078 0.46019 0.54118 0.0
O23 O 0.90178 0.46851 0.54083 0.0
O24 O 0.98482 0.57212 0.54393 0.0
O25 O 0.08131 0.56848 0.53558 0.0
C26 C 0.03091 0.44532 0.4652 0.0
C27 C 0.03717 0.58823 0.55124 0.0
O28 O 0.90622 0.98759 0.2289 0.0
Cd29 Cd 0.97684 0.95804 0.25583 0.0
Cd30 Cd 0.004 0.07059 0.25703 0.0
O31 O 0.92686 0.07604 0.22931 0.0
O32 O 0.95593 0.87998 0.26438 0.0
O33 O 0.96836 0.94024 0.30503 0.0
C34 C 0.95628 0.89066 0.29595 0.0
C35 C 0.01903 0.13578 0.29902 0.0
C36 C 0.8938 0.03646 0.22043 0.0
C37 C 0.09193 0.99274 0.22486 0.0
O38 O 0.07889 0.04133 0.2336 0.0
O39 O 0.0571 0.95322 0.23129 0.0
O40 O 0.02535 0.14784 0.26783 0.0
O41 O 0.0036 0.08628 0.30656 0.0
O42 O 0.90821 0.04596 0.78714 0.0
Cd43 Cd 0.98114 0.07199 0.76058 0.0
Cd44 Cd 0.00265 0.95894 0.76111 0.0
O45 O 0.92209 0.95652 0.78556 0.0
O46 O 0.96172 0.1496 0.74968 0.0
O47 O 0.97698 0.08643 0.71096 0.0
C48 C 0.96428 0.13658 0.71847 0.0
C49 C 0.02145 0.89101 0.72108 0.0
C50 C 0.89165 0.99769 0.79462 0.0
C51 C 0.09071 0.03428 0.79555 0.0
O52 O 0.07442 0.98582 0.78832 0.0
O53 O 0.0606 0.07529 0.78589 0.0
O54 O 0.02069 0.88028 0.75263 0.0
O55 O 0.01121 0.9409 0.71194 0.0
H56 H 0.37903 0.89142 0.08808 0.0
H57 H 0.34443 0.06433 0.07509 0.0
H58 H 0.30602 0.88853 0.1336 0.0
H59 H 0.27164 0.06116 0.11944 0.0
H60 H 0.18744 0.06006 0.2187 0.0
H61 H 0.26901 0.05195 0.17927 0.0
H62 H 0.19885 0.8974 0.14443 0.0
H63 H 0.11787 0.90469 0.18483 0.0
C64 C 0.35566 0.92859 0.09475 0.0
C65 C 0.36788 0.97816 0.07815 0.0
C66 C 0.3139 0.92694 0.12076 0.0
C67 C 0.28378 0.97484 0.13054 0.0
C68 C 0.2952 0.02385 0.11327 0.0
C69 C 0.33673 0.02554 0.08756 0.0
C70 C 0.18983 0.02393 0.20299 0.0
C71 C 0.14575 0.98343 0.20453 0.0
C72 C 0.23642 0.0194 0.18025 0.0
C73 C 0.23967 0.97463 0.15816 0.0
C74 C 0.19765 0.93236 0.1611 0.0
C75 C 0.15117 0.93664 0.18419 0.0
H76 H 0.8547 0.41274 0.59148 0.0
H77 H 0.03385 0.36965 0.56405 0.0
H78 H 0.85199 0.33485 0.63042 0.0
H79 H 0.03084 0.29249 0.60243 0.0
H80 H 0.98805 0.12956 0.65138 0.0
H81 H 0.9776 0.20189 0.60937 0.0
H82 H 0.90672 0.31054 0.68466 0.0
H83 H 0.91726 0.23857 0.72665 0.0
C84 C 0.89325 0.38661 0.59363 0.0
C85 C 0.94458 0.39759 0.57488 0.0
C86 C 0.89174 0.34219 0.61591 0.0
C87 C 0.94113 0.3075 0.61928 0.0
C88 C -0.00812 0.31805 0.60006 0.0
C89 C -0.00629 0.36266 0.57829 0.0
C90 C 0.96972 0.16869 0.65888 0.0
C91 C 0.95402 0.17853 0.69237 0.0
C92 C 0.96387 0.21009 0.63488 0.0
C93 C 0.9415 0.26186 0.64382 0.0
C94 C 0.92362 0.27094 0.67701 0.0
C95 C 0.93014 0.22982 0.70108 0.0
H96 H 0.6563 0.14004 0.06063 0.0
H97 H 0.56681 1.0059 0.1097 0.0
H98 H 0.73349 0.13799 0.10383 0.0
H99 H 0.64139 1.00538 0.1534 0.0
H100 H 0.82229 0.95999 0.19187 0.0
H101 H 0.74026 0.97429 0.15411 0.0
H102 H 0.76343 0.14967 0.16203 0.0
H103 H 0.84784 0.13516 0.19941 0.0
C104 C 0.65247 0.11115 0.08111 0.0
C105 C 0.60643 0.0725 0.08164 0.0
C106 C 0.69645 0.11 0.10588 0.0
C107 C 0.69434 0.07066 0.1317 0.0
C108 C 0.64553 0.03501 0.13334 0.0
C109 C 0.60256 0.0355 0.10842 0.0
C110 C 0.80989 1.00172 0.18585 0.0
C111 C 0.84166 0.04641 0.1988 0.0
C112 C 0.76237 1.00998 0.16429 0.0
C113 C 0.74465 0.06321 0.15528 0.0
C114 C 0.77612 0.10814 0.16832 0.0
C115 C 0.82423 0.09982 0.18987 0.0
H116 H 0.12309 0.66767 0.55706 0.0
H117 H 0.96584 0.60366 0.60469 0.0
H118 H 0.12636 0.74223 0.59858 0.0
H119 H 0.96967 0.67684 0.64599 0.0
H120 H 0.02779 0.78153 0.73334 0.0
H121 H 0.04022 0.70748 0.69309 0.0
H122 H 0.05326 0.82537 0.61289 0.0
H123 H 0.04029 0.90018 0.65329 0.0
C124 C 0.08994 0.66906 0.57665 0.0
C125 C 0.04421 0.63 0.5777 0.0
C126 C 0.09153 0.7118 0.60016 0.0
C127 C 0.04826 0.71515 0.62543 0.0
C128 C 0.00382 0.67503 0.62695 0.0
C129 C 0.00155 0.63325 0.60323 0.0
C130 C 0.03373 0.7919 0.70719 0.0
C131 C 0.03248 0.84677 0.69647 0.0
C132 C 0.04086 0.74942 0.68417 0.0
C133 C 0.04759 0.76075 0.64993 0.0
C134 C 0.0486 0.81561 0.63922 0.0
C135 C 0.04072 0.85831 0.66228 0.0
H136 H 0.41098 0.99242 0.91165 0.0
H137 H 0.33306 0.13963 0.95219 0.0
H138 H 0.33712 0.99072 0.8676 0.0
H139 H 0.25654 0.13667 0.90872 0.0
H140 H 0.14575 0.13093 0.81253 0.0
H141 H 0.23004 0.14302 0.85021 0.0
H142 H 0.23607 0.96782 0.86599 0.0
H143 H 0.15417 0.95572 0.82778 0.0
C144 C 0.3778 0.02447 0.91108 0.0
C145 C 0.37705 0.0657 0.93554 0.0
C146 C 0.33525 0.02337 0.88593 0.0
C147 C 0.28997 0.0628 0.88502 0.0
C148 C 0.29088 0.10574 0.90861 0.0
C149 C 0.33444 0.10739 0.93357 0.0
C150 C 0.16561 0.09504 0.82383 0.0
C151 C 0.14339 0.04233 0.817 0.0
C152 C 0.21363 0.10201 0.84558 0.0
C153 C 0.24016 0.05642 0.86101 0.0
C154 C 0.21783 1.00384 0.854 0.0
C155 C 0.17042 0.99688 0.83216 0.0
H156 H 0.94415 0.372 0.45094 0.0
H157 H 0.12572 0.41197 0.42685 0.0
H158 H 0.94771 0.29478 0.41269 0.0
H159 H 0.12903 0.33393 0.38807 0.0
H160 H 0.069 0.23678 0.29129 0.0
H161 H 0.078 0.30936 0.33299 0.0
H162 H -0.00116 0.20347 0.40721 0.0
H163 H 0.98982 0.1306 0.36548 0.0
C164 C 0.98495 0.36434 0.43745 0.0
C165 C 0.03462 0.39839 0.44181 0.0
C166 C 0.98707 0.31967 0.41576 0.0
C167 C 0.03871 0.30814 0.39755 0.0
C168 C 0.08858 0.34204 0.40178 0.0
C169 C 0.08673 0.38656 0.42397 0.0
C170 C 0.05394 0.22877 0.31658 0.0
C171 C 0.02817 0.17811 0.32504 0.0
C172 C 0.05956 0.27023 0.34049 0.0
C173 C 0.03894 0.26213 0.37328 0.0
C174 C 0.01466 0.21096 0.38201 0.0
C175 C 0.00964 0.16923 0.35817 0.0
H176 H 0.57073 0.04135 0.91045 0.0
H177 H 0.65674 0.90341 0.95732 0.0
H178 H 0.64292 0.03979 0.86545 0.0
H179 H 0.73164 0.90329 0.91275 0.0
H180 H 0.84031 0.90124 0.81555 0.0
H181 H 0.75687 0.89045 0.85413 0.0
H182 H 0.74282 0.06666 0.86193 0.0
H183 H 0.82388 0.07733 0.82292 0.0
C184 C 0.60535 1.01064 0.91107 0.0
C185 C 0.60891 0.97308 0.93759 0.0
C186 C 0.64692 1.00988 0.88535 0.0
C187 C 0.694 0.9723 0.88584 0.0
C188 C 0.69587 0.93273 0.91154 0.0
C189 C 0.65327 0.93287 0.93713 0.0
C190 C 0.81878 0.93759 0.82523 0.0
C191 C 0.8387 0.99016 0.81605 0.0
C192 C 0.77128 0.93139 0.84752 0.0
C193 C 0.74289 0.97763 0.86106 0.0
C194 C 0.76261 0.03004 0.85149 0.0
C195 C 0.80955 0.0362 0.82918 0.0
H196 H 0.012 0.6038 0.41228 0.0
H197 H 0.85556 0.6678 0.46062 0.0
H198 H 0.00763 0.67696 0.37094 0.0
H199 H 0.85183 0.74239 0.4191 0.0
H200 H 0.93913 0.90013 0.36385 0.0
H201 H 0.92618 0.82548 0.40441 0.0
H202 H 0.9351 0.70742 0.32417 0.0
H203 H 0.94738 0.78131 0.28376 0.0
C204 C 0.97636 0.63338 0.4139 0.0
C205 C 0.93406 0.63013 0.43962 0.0
C206 C 0.97379 0.67514 0.39017 0.0
C207 C 0.92944 0.71525 0.39188 0.0
C208 C 0.88656 0.71194 0.41737 0.0
C209 C 0.88842 0.6692 0.44088 0.0
C210 C 0.93772 0.85826 0.35489 0.0
C211 C 0.9448 0.84661 0.32064 0.0
C212 C 0.92987 0.81567 0.37805 0.0
C213 C 0.92979 0.76081 0.36735 0.0
C214 C 0.93528 0.74937 0.33306 0.0
C215 C 0.94232 0.79176 0.30996 0.0
loop_
_geom_bond_atom_site_label_1
_geom_bond_atom_site_label_2
_geom_bond_distance
_geom_bond_site_symmetry_2
_ccdc_geom_bond_type
C0 O2 1.245 . S
C0 O4 1.260 1_565 S
C1 O8 1.253 . S
C1 O9 1.252 1_545 S
O2 C0 1.245 . S
O2 Zn3 2.028 1_556 S
Zn3 O2 2.028 1_554 S
Zn3 O7 2.035 1_554 S
Zn3 O9 2.035 . S
Zn3 O10 2.028 . S
O4 C0 1.260 1_545 S
O4 Zn5 2.035 1_556 S
Zn5 O4 2.035 1_554 S
Zn5 O6 2.028 1_554 S
Zn5 O8 2.028 . S
Zn5 O11 2.035 . S
O6 Zn5 2.028 1_556 S
O6 C12 1.253 . S
O7 Zn3 2.035 1_556 S
O7 C12 1.252 1_565 S
O8 C1 1.253 . S
O8 Zn5 2.028 . S
O9 C1 1.252 1_565 S
O9 Zn3 2.035 . S
O10 Zn3 2.028 . S
O10 C13 1.245 . S
O11 Zn5 2.035 . S
O11 C13 1.260 1_545 S
C12 O6 1.253 . S
C12 O7 1.252 1_545 S
C13 O10 1.245 . S
C13 O11 1.260 1_565 S
C14 O16 1.247 . S
C14 O18 1.258 1_655 S
C15 O22 1.251 . S
C15 O23 1.254 1_455 S
O16 C14 1.247 . S
O16 Zn17 2.028 . S
Zn17 O16 2.028 . S
Zn17 O21 2.035 . S
Zn17 O23 2.035 . S
Zn17 O24 2.028 . S
O18 C14 1.258 1_455 S
O18 Zn19 2.035 . S
Zn19 O18 2.035 . S
Zn19 O20 2.028 . S
Zn19 O22 2.028 . S
Zn19 O25 2.035 . S
O20 Zn19 2.028 . S
O20 C26 1.251 . S
O21 Zn17 2.035 . S
O21 C26 1.254 1_655 S
O22 C15 1.251 . S
O22 Zn19 2.028 . S
O23 C15 1.254 1_655 S
O23 Zn17 2.035 . S
O24 Zn17 2.028 . S
O24 C27 1.247 . S
O25 Zn19 2.035 . S
O25 C27 1.258 1_455 S
C26 O20 1.251 . S
C26 O21 1.254 1_455 S
C27 O24 1.247 . S
C27 O25 1.258 1_655 S
O28 Cd29 2.223 1_655 S
O28 C36 1.315 . S
Cd29 O28 2.223 1_455 S
Cd29 O32 2.297 1_455 S
Cd29 O33 2.439 1_455 S
Cd29 O39 2.240 1_565 S
Cd30 O31 2.240 1_545 S
Cd30 O38 2.223 1_655 S
Cd30 O40 2.297 1_655 S
Cd30 O41 2.439 1_655 S
O31 Cd30 2.240 1_565 S
O31 C36 1.279 . S
O32 Cd29 2.297 1_655 S
O32 C34 1.247 . S
O33 Cd29 2.439 1_655 S
O33 C34 1.208 . S
C34 O32 1.247 . S
C34 O33 1.208 . S
C35 O40 1.247 . S
C35 O41 1.208 . S
C36 O28 1.315 . S
C36 O31 1.279 . S
C37 O38 1.315 . S
C37 O39 1.279 . S
O38 Cd30 2.223 1_455 S
O38 C37 1.315 . S
O39 Cd29 2.240 1_545 S
O39 C37 1.279 . S
O40 Cd30 2.297 1_455 S
O40 C35 1.247 . S
O41 Cd30 2.439 1_455 S
O41 C35 1.208 . S
O42 Cd43 2.223 1_655 S
O42 C50 1.315 . S
Cd43 O42 2.223 1_455 S
Cd43 O46 2.297 1_455 S
Cd43 O47 2.439 1_455 S
Cd43 O53 2.240 1_545 S
Cd44 O45 2.240 1_565 S
Cd44 O52 2.223 1_655 S
Cd44 O54 2.297 1_655 S
Cd44 O55 2.439 1_655 S
O45 Cd44 2.240 1_545 S
O45 C50 1.279 . S
O46 Cd43 2.297 1_655 S
O46 C48 1.247 . S
O47 Cd43 2.439 1_655 S
O47 C48 1.208 . S
C48 O46 1.247 . S
C48 O47 1.208 . S
C49 O54 1.247 . S
C49 O55 1.208 . S
C50 O42 1.315 . S
C50 O45 1.279 . S
C51 O52 1.315 . S
C51 O53 1.279 . S
O52 Cd44 2.223 1_455 S
O52 C51 1.315 . S
O53 Cd43 2.240 1_565 S
O53 C51 1.279 . S
O54 Cd44 2.297 1_455 S
O54 C49 1.247 . S
O55 Cd44 2.439 1_455 S
O55 C49 1.208 . S
H56 C64 0.950 . S
H57 C69 0.950 . S
H58 C66 0.950 . S
H59 C68 0.950 . S
H60 C70 0.950 . S
H61 C72 0.950 . S
H62 C74 0.950 . S
H63 C75 0.950 . S
C64 H56 0.950 . S
C64 C65 1.386 1_565 S
C64 C66 1.391 . S
C65 C64 1.386 1_545 S
C65 C69 1.393 . S
C66 H58 0.950 . S
C66 C64 1.391 . S
C66 C67 1.400 1_565 S
C67 C66 1.400 1_545 S
C67 C68 1.398 . S
C67 C73 1.491 . S
C68 H59 0.950 . S
C68 C67 1.398 . S
C68 C69 1.391 . S
C69 H57 0.950 . S
C69 C65 1.393 . S
C69 C68 1.391 . S
C70 H60 0.950 . S
C70 C71 1.386 . S
C70 C72 1.391 . S
C71 C70 1.386 . S
C71 C75 1.393 . S
C72 H61 0.950 . S
C72 C70 1.391 . S
C72 C73 1.400 . S
C73 C67 1.491 . S
C73 C72 1.400 . S
C73 C74 1.398 . S
C74 H62 0.950 . S
C74 C73 1.398 . S
C74 C75 1.391 . S
C75 H63 0.950 . S
C75 C71 1.393 . S
C75 C74 1.391 . S
H76 C84 0.950 . S
H77 C89 0.950 . S
H78 C86 0.950 . S
H79 C88 0.950 . S
H80 C90 0.950 . S
H81 C92 0.950 . S
H82 C94 0.950 . S
H83 C95 0.950 . S
C84 H76 0.950 . S
C84 C85 1.386 . S
C84 C86 1.391 . S
C85 C84 1.386 . S
C85 C89 1.393 1_655 S
C86 H78 0.950 . S
C86 C84 1.391 . S
C86 C87 1.400 . S
C87 C86 1.400 . S
C87 C88 1.398 1_655 S
C87 C93 1.491 . S
C88 H79 0.950 . S
C88 C87 1.398 1_455 S
C88 C89 1.391 . S
C89 H77 0.950 . S
C89 C85 1.393 1_455 S
C89 C88 1.391 . S
C90 H80 0.950 . S
C90 C91 1.386 1_455 S
C90 C92 1.391 . S
C91 C90 1.386 1_655 S
C91 C95 1.393 . S
C92 H81 0.950 . S
C92 C90 1.391 . S
C92 C93 1.400 1_455 S
C93 C87 1.491 . S
C93 C92 1.400 1_655 S
C93 C94 1.398 . S
C94 H82 0.950 . S
C94 C93 1.398 . S
C94 C95 1.391 . S
C95 H83 0.950 . S
C95 C91 1.393 . S
C95 C94 1.391 . S
H96 C104 0.950 . S
H97 C109 0.950 . S
H98 C106 0.950 . S
H99 C108 0.950 . S
H100 C110 0.950 . S
H101 C112 0.950 . S
H102 C114 0.950 . S
H103 C115 0.950 . S
C104 H96 0.950 . S
C104 C105 1.386 1_545 S
C104 C106 1.391 . S
C105 C104 1.386 1_565 S
C105 C109 1.393 . S
C106 H98 0.950 . S
C106 C104 1.391 . S
C106 C107 1.400 1_545 S
C107 C106 1.400 1_565 S
C107 C108 1.398 . S
C107 C113 1.491 . S
C108 H99 0.950 . S
C108 C107 1.398 . S
C108 C109 1.391 . S
C109 H97 0.950 . S
C109 C105 1.393 . S
C109 C108 1.391 . S
C110 H100 0.950 . S
C110 C111 1.386 . S
C110 C112 1.391 . S
C111 C110 1.386 . S
C111 C115 1.393 1_565 S
C112 H101 0.950 . S
C112 C110 1.391 . S
C112 C113 1.400 . S
C113 C107 1.491 . S
C113 C112 1.400 . S
C113 C114 1.398 1_565 S
C114 H102 0.950 . S
C114 C113 1.398 1_545 S
C114 C115 1.391 . S
C115 H103 0.950 . S
C115 C111 1.393 1_545 S
C115 C114 1.391 . S
H116 C124 0.950 . S
H117 C129 0.950 . S
H118 C126 0.950 . S
H119 C128 0.950 . S
H120 C130 0.950 1_655 S
H121 C132 0.950 1_655 S
H122 C134 0.950 . S
H123 C135 0.950 . S
C124 H116 0.950 . S
C124 C125 1.386 . S
C124 C126 1.391 . S
C125 C124 1.386 . S
C125 C129 1.393 1_455 S
C126 H118 0.950 . S
C126 C124 1.391 . S
C126 C127 1.400 . S
C127 C126 1.400 . S
C127 C128 1.398 1_455 S
C127 C133 1.491 . S
C128 H119 0.950 . S
C128 C127 1.398 1_655 S
C128 C129 1.391 . S
C129 H117 0.950 . S
C129 C125 1.393 1_655 S
C129 C128 1.391 . S
C130 H120 0.950 1_455 S
C130 C131 1.386 . S
C130 C132 1.391 . S
C131 C130 1.386 . S
C131 C135 1.393 . S
C132 H121 0.950 1_455 S
C132 C130 1.391 . S
C132 C133 1.400 . S
C133 C127 1.491 . S
C133 C132 1.400 . S
C133 C134 1.398 . S
C134 H122 0.950 . S
C134 C133 1.398 . S
C134 C135 1.391 . S
C135 H123 0.950 . S
C135 C131 1.393 . S
C135 C134 1.391 . S
H136 C144 0.950 . S
H137 C149 0.950 . S
H138 C146 0.950 . S
H139 C148 0.950 . S
H140 C150 0.950 . S
H141 C152 0.950 . S
H142 C154 0.950 . S
H143 C155 0.950 . S
C144 H136 0.950 . S
C144 C145 1.386 . S
C144 C146 1.391 . S
C145 C144 1.386 . S
C145 C149 1.393 1_565 S
C146 H138 0.950 . S
C146 C144 1.391 . S
C146 C147 1.400 . S
C147 C146 1.400 . S
C147 C148 1.398 1_565 S
C147 C153 1.491 . S
C148 H139 0.950 . S
C148 C147 1.398 1_545 S
C148 C149 1.391 . S
C149 H137 0.950 . S
C149 C145 1.393 1_545 S
C149 C148 1.391 . S
C150 H140 0.950 . S
C150 C151 1.386 1_545 S
C150 C152 1.391 . S
C151 C150 1.386 1_565 S
C151 C155 1.393 . S
C152 H141 0.950 . S
C152 C150 1.391 . S
C152 C153 1.400 1_545 S
C153 C147 1.491 . S
C153 C152 1.400 1_565 S
C153 C154 1.398 . S
C154 H142 0.950 . S
C154 C153 1.398 . S
C154 C155 1.391 . S
C155 H143 0.950 . S
C155 C151 1.393 . S
C155 C154 1.391 . S
H156 C164 0.950 . S
H157 C169 0.950 . S
H158 C166 0.950 . S
H159 C168 0.950 . S
H160 C170 0.950 . S
H161 C172 0.950 . S
H162 C174 0.950 . S
H163 C175 0.950 . S
C164 H156 0.950 . S
C164 C165 1.386 1_655 S
C164 C166 1.391 . S
C165 C164 1.386 1_455 S
C165 C169 1.393 . S
C166 H158 0.950 . S
C166 C164 1.391 . S
C166 C167 1.400 1_655 S
C167 C166 1.400 1_455 S
C167 C168 1.398 . S
C167 C173 1.491 . S
C168 H159 0.950 . S
C168 C167 1.398 . S
C168 C169 1.391 . S
C169 H157 0.950 . S
C169 C165 1.393 . S
C169 C168 1.391 . S
C170 H160 0.950 . S
C170 C171 1.386 . S
C170 C172 1.391 . S
C171 C170 1.386 . S
C171 C175 1.393 1_455 S
C172 H161 0.950 . S
C172 C170 1.391 . S
C172 C173 1.400 . S
C173 C167 1.491 . S
C173 C172 1.400 . S
C173 C174 1.398 1_455 S
C174 H162 0.950 . S
C174 C173 1.398 1_655 S
C174 C175 1.391 . S
C175 H163 0.950 . S
C175 C171 1.393 1_655 S
C175 C174 1.391 . S
H176 C184 0.950 . S
H177 C189 0.950 . S
H178 C186 0.950 . S
H179 C188 0.950 . S
H180 C190 0.950 . S
H181 C192 0.950 . S
H182 C194 0.950 . S
H183 C195 0.950 . S
C184 H176 0.950 . S
C184 C185 1.386 . S
C184 C186 1.391 . S
C185 C184 1.386 . S
C185 C189 1.393 1_545 S
C186 H178 0.950 . S
C186 C184 1.391 . S
C186 C187 1.400 . S
C187 C186 1.400 . S
C187 C188 1.398 1_545 S
C187 C193 1.491 . S
C188 H179 0.950 . S
C188 C187 1.398 1_565 S
C188 C189 1.391 . S
C189 H177 0.950 . S
C189 C185 1.393 1_565 S
C189 C188 1.391 . S
C190 H180 0.950 . S
C190 C191 1.386 1_565 S
C190 C192 1.391 . S
C191 C190 1.386 1_545 S
C191 C195 1.393 . S
C192 H181 0.950 . S
C192 C190 1.391 . S
C192 C193 1.400 1_565 S
C193 C187 1.491 . S
C193 C192 1.400 1_545 S
C193 C194 1.398 . S
C194 H182 0.950 . S
C194 C193 1.398 . S
C194 C195 1.391 . S
C195 H183 0.950 . S
C195 C191 1.393 . S
C195 C194 1.391 . S
H196 C204 0.950 . S
H197 C209 0.950 . S
H198 C206 0.950 . S
H199 C208 0.950 . S
H200 C210 0.950 . S
H201 C212 0.950 . S
H202 C214 0.950 . S
H203 C215 0.950 . S
C204 H196 0.950 . S
C204 C205 1.386 1_455 S
C204 C206 1.391 . S
C205 C204 1.386 1_655 S
C205 C209 1.393 . S
C206 H198 0.950 . S
C206 C204 1.391 . S
C206 C207 1.400 1_455 S
C207 C206 1.400 1_655 S
C207 C208 1.398 . S
C207 C213 1.491 . S
C208 H199 0.950 . S
C208 C207 1.398 . S
C208 C209 1.391 . S
C209 H197 0.950 . S
C209 C205 1.393 . S
C209 C208 1.391 . S
C210 H200 0.950 . S
C210 C211 1.386 . S
C210 C212 1.391 . S
C211 C210 1.386 . S
C211 C215 1.393 1_655 S
C212 H201 0.950 . S
C212 C210 1.391 . S
C212 C213 1.400 . S
C213 C207 1.491 . S
C213 C212 1.400 . S
C213 C214 1.398 1_655 S
C214 H202 0.950 . S
C214 C213 1.398 1_455 S
C214 C215 1.391 . S
C215 H203 0.950 . S
C215 C211 1.393 1_455 S
C215 C214 1.391 . S
C71 C37 1.552 . S
C65 C13 1.547 1_545 S
C91 C48 1.494 . S
C85 C15 1.564 1_655 S
C111 C36 1.553 . S
C105 C1 1.549 1_565 S
C131 C49 1.513 . S
C125 C27 1.567 1_455 S
C151 C51 1.552 . S
C145 C0 1.553 . S
C171 C35 1.514 . S
C165 C26 1.563 . S
C191 C50 1.553 . S
C185 C12 1.555 . S
C205 C14 1.562 . S
C211 C34 1.508 . S
