# Generated by pormake.
# Topology pth, (4,4)-cn, num edge types: 1
# Building blocks:
#     Node 0, Type 0, BuildingBlock: GALJAG_clean_sbu_0, # of connection points: 4
#     Node 1, Type 0, BuildingBlock: GALJAG_clean_sbu_0, # of connection points: 4
#     Node 2, Type 0, BuildingBlock: GALJAG_clean_sbu_0, # of connection points: 4
#     Node 3, Type 1, BuildingBlock: NAWXER_clean_sbu_0, # of connection points: 4
#     Node 4, Type 1, BuildingBlock: NAWXER_clean_sbu_0, # of connection points: 4
#     Node 5, Type 1, BuildingBlock: NAWXER_clean_sbu_0, # of connection points: 4
#     Edge 6, Type (0, 1), BuildingBlock: EYOCIG_clean_linker_4, # of connection points: 2
#     Edge 7, Type (0, 1), BuildingBlock: EYOCIG_clean_linker_4, # of connection points: 2
#     Edge 8, Type (0, 1), BuildingBlock: EYOCIG_clean_linker_4, # of connection points: 2
#     Edge 9, Type (0, 1), BuildingBlock: EYOCIG_clean_linker_4, # of connection points: 2
#     Edge 10, Type (0, 1), BuildingBlock: EYOCIG_clean_linker_4, # of connection points: 2
#     Edge 11, Type (0, 1), BuildingBlock: EYOCIG_clean_linker_4, # of connection points: 2
#     Edge 12, Type (0, 1), BuildingBlock: EYOCIG_clean_linker_4, # of connection points: 2
#     Edge 13, Type (0, 1), BuildingBlock: EYOCIG_clean_linker_4, # of connection points: 2
#     Edge 14, Type (0, 1), BuildingBlock: EYOCIG_clean_linker_4, # of connection points: 2
#     Edge 15, Type (0, 1), BuildingBlock: EYOCIG_clean_linker_4, # of connection points: 2
#     Edge 16, Type (0, 1), BuildingBlock: EYOCIG_clean_linker_4, # of connection points: 2
#     Edge 17, Type (0, 1), BuildingBlock: EYOCIG_clean_linker_4, # of connection points: 2
# Relax obj value: 0.017
# Max RMSD: 0.060
# Mean RMSD: 0.053
data_MOF--net-pth--node1-GALJAG_clean_sbu_0--node2-NAWXER_clean_sbu_0--edge1-EYOCIG_clean_linker_4
_symmetry_space_group_name_H-M    P1
_symmetry_Int_Tables_number       1
_symmetry_cell_setting            triclinic
loop_
_symmetry_equiv_pos_as_xyz
'x, y, z'
_cell_length_a     18.257515
_cell_length_b     18.275188
_cell_length_c     46.51454
_cell_angle_alpha  90.088467
_cell_angle_beta   90.130545
_cell_angle_gamma 119.98418
loop_
_atom_site_label
_atom_site_type_symbol
_atom_site_fract_x
_atom_site_fract_y
_atom_site_fract_z
_atom_type_partial_charge
In0 In 0.02328 0.0152 0.04775 0.0
O1 O 0.96239 0.08579 0.0677 0.0
O2 O 0.0849 0.11519 0.08279 0.0
C3 C 0.9096 0.89992 0.01143 0.0
C4 C 0.13635 0.13142 0.01197 0.0
C5 C 0.01957 0.89868 0.08363 0.0
O6 O 0.89161 0.94355 0.02799 0.0
O7 O 0.98525 0.91587 0.01242 0.0
O8 O 0.08188 0.94194 0.06734 0.0
O9 O 0.961 0.91622 0.08272 0.0
C10 C 0.02438 0.12982 0.08417 0.0
O11 O 0.15499 0.08727 0.02804 0.0
O12 O 0.06071 0.11529 0.0132 0.0
In13 In 0.01937 0.01545 0.38109 0.0
O14 O 0.07883 0.14726 0.36151 0.0
O15 O 0.95663 0.05329 0.3465 0.0
C16 C 0.13369 0.01344 0.4169 0.0
C17 C 0.90411 0.01548 0.41673 0.0
C18 C 0.02052 0.90197 0.34468 0.0
O19 O 0.1516 0.07529 0.40054 0.0
O20 O 0.05781 0.95436 0.41616 0.0
O21 O 0.95935 0.88384 0.3614 0.0
O22 O 0.08012 0.97756 0.34563 0.0
C23 C 0.01603 0.12887 0.34538 0.0
O24 O 0.88739 0.95365 0.40041 0.0
O25 O 0.97931 0.07601 0.4159 0.0
In26 In 0.01913 0.01122 0.71448 0.0
O27 O 0.94768 0.87963 0.73389 0.0
O28 O 0.9185 0.97255 0.74917 0.0
C29 C 0.13458 0.01254 0.67861 0.0
C30 C 0.90415 0.01117 0.67849 0.0
C31 C 0.13643 0.12464 0.75035 0.0
O32 O 0.09059 0.95082 0.69499 0.0
O33 O 0.11829 0.07195 0.67936 0.0
O34 O 0.09262 0.1431 0.73402 0.0
O35 O 0.11898 0.04861 0.74957 0.0
C36 C 0.90303 0.89713 0.75009 0.0
O37 O 0.94888 0.07282 0.69497 0.0
O38 O 0.91867 0.95057 0.67948 0.0
C39 C 0.01943 0.617 0.25376 0.0
C40 C 0.02066 0.41191 0.17537 0.0
O41 O 0.08973 0.6276 0.2448 0.0
Zn42 Zn 0.11023 0.5599 0.21471 0.0
O43 O 0.94992 0.55739 0.24419 0.0
Zn44 Zn 0.93114 0.47033 0.21414 0.0
O45 O 0.94924 0.4026 0.2443 0.0
O46 O 0.08906 0.47166 0.24494 0.0
O47 O 0.95072 0.40212 0.1843 0.0
O48 O 0.09054 0.47158 0.18475 0.0
O49 O 0.08982 0.627 0.18419 0.0
O50 O 0.95 0.55649 0.18409 0.0
C51 C 0.0186 0.41239 0.25395 0.0
C52 C 0.0196 0.61594 0.17477 0.0
C53 C 0.62197 0.01429 0.58717 0.0
C54 C 0.41736 0.0132 0.50804 0.0
O55 O 0.56271 0.94417 0.57782 0.0
Zn56 Zn 0.47468 0.92371 0.54767 0.0
O57 O 0.6318 0.08387 0.57786 0.0
Zn58 Zn 0.56339 0.10288 0.54786 0.0
O59 O 0.47664 0.08277 0.57821 0.0
O60 O 0.40701 0.94308 0.57788 0.0
O61 O 0.47634 0.08323 0.51753 0.0
O62 O 0.4071 0.94354 0.51745 0.0
O63 O 0.56153 0.94349 0.51733 0.0
O64 O 0.63095 0.08319 0.51774 0.0
C65 C 0.41756 0.01277 0.58748 0.0
C66 C 0.62065 0.01361 0.50812 0.0
C67 C 0.42006 0.41085 0.92052 0.0
C68 C 0.62313 0.61415 0.84163 0.0
O69 O 0.40984 0.47012 0.91101 0.0
Zn70 Zn 0.47698 0.55528 0.88082 0.0
O71 O 0.47956 0.40004 0.9114 0.0
Zn72 Zn 0.56838 0.46766 0.88138 0.0
O73 O 0.63598 0.55552 0.91152 0.0
O74 O 0.56461 0.62392 0.91095 0.0
O75 O 0.63482 0.55538 0.85089 0.0
O76 O 0.56323 0.62357 0.85103 0.0
O77 O 0.41016 0.46694 0.85059 0.0
O78 O 0.48171 0.39873 0.85113 0.0
C79 C 0.62465 0.61471 0.92054 0.0
C80 C 0.42175 0.40798 0.84149 0.0
C81 C 0.02403 0.24161 0.12019 0.0
C82 C 0.0249 0.19076 0.10384 0.0
C83 C 0.02201 0.30078 0.13929 0.0
C84 C 0.02072 0.35117 0.15576 0.0
C85 C 0.789 0.01557 0.45102 0.0
C86 C 0.84198 0.01612 0.43544 0.0
C87 C 0.72859 0.01444 0.47021 0.0
C88 C 0.67943 0.01429 0.48752 0.0
C89 C 0.7867 0.78555 0.78482 0.0
C90 C 0.83998 0.8359 0.76887 0.0
C91 C 0.72821 0.72515 0.80412 0.0
C92 C 0.68084 0.67393 0.82123 0.0
C93 C 1.01404 0.78072 0.1178 0.0
C94 C 0.01594 0.83443 0.10228 0.0
C95 C 0.0156 0.72162 0.13696 0.0
C96 C 0.01831 0.67383 0.15422 0.0
C97 C 0.24816 0.00976 0.45073 0.0
C98 C 0.19543 0.01082 0.43537 0.0
C99 C 0.3089 0.0109 0.46986 0.0
C100 C 0.35872 0.01257 0.48729 0.0
C101 C 0.25561 0.23679 0.78457 0.0
C102 C 0.20118 0.18572 0.76893 0.0
C103 C 0.31553 0.29711 0.80378 0.0
C104 C 0.3637 0.34802 0.82099 0.0
C105 C 0.79046 0.012 0.6435 0.0
C106 C 0.84219 0.01094 0.65939 0.0
C107 C 0.73129 0.01401 0.62438 0.0
C108 C 0.68176 0.0149 0.60739 0.0
C109 C 0.79564 0.78527 0.97647 0.0
C110 C 0.84828 0.83741 -0.00768 0.0
C111 C 0.73427 0.72553 0.95749 0.0
C112 C 0.68383 0.67533 0.94062 0.0
C113 C 0.02066 0.78861 0.3094 0.0
C114 C 0.02131 0.84091 0.32541 0.0
C115 C 0.01903 0.72739 0.29041 0.0
C116 C 0.01848 0.67663 0.27368 0.0
C117 C 0.25153 0.01501 0.64465 0.0
C118 C 0.19829 0.01453 0.66007 0.0
C119 C 0.31087 0.01373 0.62554 0.0
C120 C 0.35921 0.01257 0.60817 0.0
C121 C 0.24835 0.24724 0.97722 0.0
C122 C 0.19661 0.19455 -0.00702 0.0
C123 C 0.30925 0.30534 0.95796 0.0
C124 C 0.36045 0.35287 0.94088 0.0
C125 C 1.01168 0.2411 0.31077 0.0
C126 C 1.01301 0.18936 0.32649 0.0
C127 C 1.01369 0.30177 0.29152 0.0
C128 C 0.01678 0.35268 0.27437 0.0
loop_
_geom_bond_atom_site_label_1
_geom_bond_atom_site_label_2
_geom_bond_distance
_geom_bond_site_symmetry_2
_ccdc_geom_bond_type
In0 O1 2.294 1_455 S
In0 O2 2.326 . S
In0 O6 2.266 1_445 S
In0 O7 2.326 1_445 S
In0 O8 2.266 1_545 S
In0 O9 2.326 1_445 S
In0 O11 2.294 . S
In0 O12 2.326 . S
O1 In0 2.294 1_655 S
O1 C10 1.240 1_655 S
O2 In0 2.326 . S
O2 C10 1.252 . S
C3 O6 1.252 . S
C3 O7 1.260 . S
C4 O11 1.240 . S
C4 O12 1.252 . S
C5 O8 1.247 1_655 S
C5 O9 1.267 . S
O6 In0 2.266 1_665 S
O6 C3 1.252 . S
O7 In0 2.326 1_665 S
O7 C3 1.260 . S
O8 In0 2.266 1_565 S
O8 C5 1.247 1_455 S
O9 In0 2.326 1_665 S
O9 C5 1.267 . S
C10 O1 1.240 1_455 S
C10 O2 1.252 . S
O11 In0 2.294 . S
O11 C4 1.240 . S
O12 In0 2.326 . S
O12 C4 1.252 . S
In13 O14 2.294 . S
In13 O15 2.326 1_455 S
In13 O19 2.266 . S
In13 O20 2.326 1_545 S
In13 O21 2.266 1_445 S
In13 O22 2.326 1_545 S
In13 O24 2.294 1_445 S
In13 O25 2.326 1_455 S
O14 In13 2.294 . S
O14 C23 1.240 1_455 S
O15 In13 2.326 1_655 S
O15 C23 1.252 . S
C16 O19 1.252 1_565 S
C16 O20 1.260 . S
C17 O24 1.240 1_545 S
C17 O25 1.252 . S
C18 O21 1.252 1_455 S
C18 O22 1.260 . S
O19 In13 2.266 . S
O19 C16 1.252 1_545 S
O20 In13 2.326 1_565 S
O20 C16 1.260 . S
O21 In13 2.266 1_665 S
O21 C18 1.252 1_655 S
O22 In13 2.326 1_565 S
O22 C18 1.260 . S
C23 O14 1.240 1_655 S
C23 O15 1.252 . S
O24 In13 2.294 1_665 S
O24 C17 1.240 1_565 S
O25 In13 2.326 1_655 S
O25 C17 1.252 . S
In26 O27 2.294 1_445 S
In26 O28 2.326 1_445 S
In26 O32 2.266 1_545 S
In26 O33 2.326 . S
In26 O34 2.266 . S
In26 O35 2.326 . S
In26 O37 2.294 1_455 S
In26 O38 2.326 1_445 S
O27 In26 2.294 1_665 S
O27 C36 1.240 . S
O28 In26 2.326 1_665 S
O28 C36 1.252 . S
C29 O32 1.252 1_545 S
C29 O33 1.260 . S
C30 O37 1.240 1_565 S
C30 O38 1.252 . S
C31 O34 1.252 . S
C31 O35 1.260 . S
O32 In26 2.266 1_565 S
O32 C29 1.252 1_565 S
O33 In26 2.326 . S
O33 C29 1.260 . S
O34 In26 2.266 . S
O34 C31 1.252 . S
O35 In26 2.326 . S
O35 C31 1.260 . S
C36 O27 1.240 . S
C36 O28 1.252 . S
O37 In26 2.294 1_655 S
O37 C30 1.240 1_545 S
O38 In26 2.326 1_665 S
O38 C30 1.252 . S
C39 O41 1.247 . S
C39 O43 1.258 1_455 S
C40 O47 1.247 1_455 S
C40 O48 1.258 . S
O41 C39 1.247 . S
O41 Zn42 2.028 . S
Zn42 O41 2.028 . S
Zn42 O46 2.035 . S
Zn42 O48 2.035 . S
Zn42 O49 2.028 . S
O43 C39 1.258 1_655 S
O43 Zn44 2.035 . S
Zn44 O43 2.035 . S
Zn44 O45 2.028 . S
Zn44 O47 2.028 . S
Zn44 O50 2.035 . S
O45 Zn44 2.028 . S
O45 C51 1.247 1_655 S
O46 Zn42 2.035 . S
O46 C51 1.258 . S
O47 C40 1.247 1_655 S
O47 Zn44 2.028 . S
O48 C40 1.258 . S
O48 Zn42 2.035 . S
O49 Zn42 2.028 . S
O49 C52 1.247 . S
O50 Zn44 2.035 . S
O50 C52 1.258 1_655 S
C51 O45 1.247 1_455 S
C51 O46 1.258 . S
C52 O49 1.247 . S
C52 O50 1.258 1_455 S
C53 O55 1.247 1_545 S
C53 O57 1.258 . S
C54 O61 1.247 . S
C54 O62 1.258 1_545 S
O55 C53 1.247 1_565 S
O55 Zn56 2.028 . S
Zn56 O55 2.028 . S
Zn56 O60 2.035 . S
Zn56 O62 2.035 . S
Zn56 O63 2.028 . S
O57 C53 1.258 . S
O57 Zn58 2.035 . S
Zn58 O57 2.035 . S
Zn58 O59 2.028 . S
Zn58 O61 2.028 . S
Zn58 O64 2.035 . S
O59 Zn58 2.028 . S
O59 C65 1.247 . S
O60 Zn56 2.035 . S
O60 C65 1.258 1_565 S
O61 C54 1.247 . S
O61 Zn58 2.028 . S
O62 C54 1.258 1_565 S
O62 Zn56 2.035 . S
O63 Zn56 2.028 . S
O63 C66 1.247 1_565 S
O64 Zn58 2.035 . S
O64 C66 1.258 . S
C65 O59 1.247 . S
C65 O60 1.258 1_545 S
C66 O63 1.247 1_545 S
C66 O64 1.258 . S
C67 O69 1.247 . S
C67 O71 1.258 . S
C68 O75 1.247 . S
C68 O76 1.258 . S
O69 C67 1.247 . S
O69 Zn70 2.028 . S
Zn70 O69 2.028 . S
Zn70 O74 2.035 . S
Zn70 O76 2.035 . S
Zn70 O77 2.028 . S
O71 C67 1.258 . S
O71 Zn72 2.035 . S
Zn72 O71 2.035 . S
Zn72 O73 2.028 . S
Zn72 O75 2.028 . S
Zn72 O78 2.035 . S
O73 Zn72 2.028 . S
O73 C79 1.247 . S
O74 Zn70 2.035 . S
O74 C79 1.258 . S
O75 C68 1.247 . S
O75 Zn72 2.028 . S
O76 C68 1.258 . S
O76 Zn70 2.035 . S
O77 Zn70 2.028 . S
O77 C80 1.247 . S
O78 Zn72 2.035 . S
O78 C80 1.258 . S
C79 O73 1.247 . S
C79 O74 1.258 . S
C80 O77 1.247 . S
C80 O78 1.258 . S
C81 C82 1.170 . S
C81 C83 1.380 . S
C82 C81 1.170 . S
C83 C81 1.380 . S
C83 C84 1.170 . S
C84 C83 1.170 . S
C85 C86 1.170 . S
C85 C87 1.380 . S
C86 C85 1.170 . S
C87 C85 1.380 . S
C87 C88 1.170 . S
C88 C87 1.170 . S
C89 C90 1.170 . S
C89 C91 1.380 . S
C90 C89 1.170 . S
C91 C89 1.380 . S
C91 C92 1.170 . S
C92 C91 1.170 . S
C93 C94 1.170 . S
C93 C95 1.380 . S
C94 C93 1.170 . S
C95 C93 1.380 . S
C95 C96 1.170 1_655 S
C96 C95 1.170 1_455 S
C97 C98 1.175 . S
C97 C99 1.375 . S
C98 C97 1.175 . S
C99 C97 1.375 . S
C99 C100 1.170 . S
C100 C99 1.170 . S
C101 C102 1.170 . S
C101 C103 1.380 . S
C102 C101 1.170 . S
C103 C101 1.380 . S
C103 C104 1.170 . S
C104 C103 1.170 . S
C105 C106 1.174 . S
C105 C107 1.380 . S
C106 C105 1.174 . S
C107 C105 1.380 . S
C107 C108 1.170 . S
C108 C107 1.170 . S
C109 C110 1.170 1_556 S
C109 C111 1.380 . S
C110 C109 1.170 1_554 S
C111 C109 1.380 . S
C111 C112 1.170 . S
C112 C111 1.170 . S
C113 C114 1.170 . S
C113 C115 1.380 . S
C114 C113 1.170 . S
C115 C113 1.380 . S
C115 C116 1.170 . S
C116 C115 1.170 . S
C117 C118 1.170 . S
C117 C119 1.380 . S
C118 C117 1.170 . S
C119 C117 1.380 . S
C119 C120 1.170 . S
C120 C119 1.170 . S
C121 C122 1.170 1_556 S
C121 C123 1.380 . S
C122 C121 1.170 1_554 S
C123 C121 1.380 . S
C123 C124 1.170 . S
C124 C123 1.170 . S
C125 C126 1.170 . S
C125 C127 1.380 . S
C126 C125 1.170 . S
C127 C125 1.380 . S
C127 C128 1.171 . S
C128 C127 1.171 . S
C84 C40 1.498 . S
C82 C10 1.497 . S
C86 C17 1.496 . S
C88 C66 1.495 . S
C90 C36 1.498 . S
C92 C68 1.496 . S
C94 C5 1.498 . S
C96 C52 1.497 . S
C100 C54 1.497 . S
C98 C16 1.501 1_545 S
C102 C31 1.500 . S
C104 C80 1.497 . S
C108 C53 1.497 . S
C106 C30 1.493 1_545 S
C110 C3 1.497 . S
C112 C79 1.498 . S
C116 C39 1.500 . S
C114 C18 1.497 . S
C120 C65 1.496 . S
C118 C29 1.499 . S
C124 C67 1.496 . S
C122 C4 1.498 . S
C126 C23 1.498 . S
C128 C51 1.494 1_655 S
