# Generated by pormake.
# Topology csq, (4,8)-cn, num edge types: 1
# Building blocks:
#     Node 0, Type 0, BuildingBlock: NAWXER_clean_sbu_0, # of connection points: 4
#     Node 1, Type 0, BuildingBlock: NAWXER_clean_sbu_0, # of connection points: 4
#     Node 2, Type 0, BuildingBlock: NAWXER_clean_sbu_0, # of connection points: 4
#     Node 3, Type 0, BuildingBlock: NAWXER_clean_sbu_0, # of connection points: 4
#     Node 4, Type 0, BuildingBlock: NAWXER_clean_sbu_0, # of connection points: 4
#     Node 5, Type 0, BuildingBlock: NAWXER_clean_sbu_0, # of connection points: 4
#     Node 6, Type 1, BuildingBlock: TAGTUT_clean_sbu_3, # of connection points: 8
#     Node 7, Type 1, BuildingBlock: TAGTUT_clean_sbu_3, # of connection points: 8
#     Node 8, Type 1, BuildingBlock: TAGTUT_clean_sbu_3, # of connection points: 8
#     Edge 9, Type (0, 1), None
#     Edge 10, Type (0, 1), None
#     Edge 11, Type (0, 1), None
#     Edge 12, Type (0, 1), None
#     Edge 13, Type (0, 1), None
#     Edge 14, Type (0, 1), None
#     Edge 15, Type (0, 1), None
#     Edge 16, Type (0, 1), None
#     Edge 17, Type (0, 1), None
#     Edge 18, Type (0, 1), None
#     Edge 19, Type (0, 1), None
#     Edge 20, Type (0, 1), None
#     Edge 21, Type (0, 1), None
#     Edge 22, Type (0, 1), None
#     Edge 23, Type (0, 1), None
#     Edge 24, Type (0, 1), None
#     Edge 25, Type (0, 1), None
#     Edge 26, Type (0, 1), None
#     Edge 27, Type (0, 1), None
#     Edge 28, Type (0, 1), None
#     Edge 29, Type (0, 1), None
#     Edge 30, Type (0, 1), None
#     Edge 31, Type (0, 1), None
#     Edge 32, Type (0, 1), None
# Relax obj value: 0.049
# Max RMSD: 0.104
# Mean RMSD: 0.068
data_MOF--net-csq--node1-NAWXER_clean_sbu_0--node2-TAGTUT_clean_sbu_3--edge1-none
_symmetry_space_group_name_H-M    P1
_symmetry_Int_Tables_number       1
_symmetry_cell_setting            triclinic
loop_
_symmetry_equiv_pos_as_xyz
'x, y, z'
_cell_length_a     23.371142
_cell_length_b     23.516958
_cell_length_c     10.215097
_cell_angle_alpha  94.578971
_cell_angle_beta   93.715799
_cell_angle_gamma 119.79212
loop_
_atom_site_label
_atom_site_type_symbol
_atom_site_fract_x
_atom_site_fract_y
_atom_site_fract_z
_atom_type_partial_charge
C0 C 0.34772 0.48869 0.0919 0.0
C1 C 0.1762 0.48214 0.3718 0.0
O2 O 0.34968 0.5424 0.13482 0.0
Zn3 Zn 0.27095 0.50017 0.2338 0.0
O4 O 0.3011 0.43337 0.11528 0.0
Zn5 Zn 0.21925 0.38796 0.21588 0.0
O6 O 0.14949 0.33803 0.06237 0.0
O7 O 0.19874 0.44681 0.07612 0.0
O8 O 0.17388 0.42807 0.33169 0.0
O9 O 0.22337 0.53636 0.34282 0.0
O10 O 0.31283 0.46526 0.36554 0.0
O11 O 0.25844 0.35561 0.34197 0.0
C12 C 0.15669 0.38973 0.0159 0.0
C13 C 0.30748 0.41135 0.39441 0.0
C14 C 0.70623 0.15805 0.94358 0.0
C15 C 0.86784 0.3324 0.34602 0.0
O16 O 0.76124 0.1643 -0.0125 0.0
Zn17 Zn 0.84133 0.21554 0.13094 0.0
O18 O 0.68934 0.19816 -0.00329 0.0
Zn19 Zn 0.76852 0.25573 0.14392 0.0
O20 O 0.83805 0.30374 0.02479 0.0
O21 O 0.90304 0.26054 0.00621 0.0
O22 O 0.81309 0.32923 0.30397 0.0
O23 O 0.8818 0.29228 0.28591 0.0
O24 O 0.81741 0.13959 0.22801 0.0
O25 O 0.74801 0.17815 0.23731 0.0
C26 C 0.88585 0.30229 -0.02346 0.0
C27 C 0.76424 0.13606 0.26293 0.0
C28 C 0.61878 0.85044 0.26752 0.0
C29 C 0.58855 0.70251 0.85762 0.0
O30 O 0.66986 0.85739 0.21515 0.0
Zn31 Zn 0.6185 0.79342 0.04935 0.0
O32 O 0.56152 0.81385 0.20256 0.0
Zn33 Zn 0.50828 0.74453 0.03895 0.0
O34 O 0.46429 0.66895 0.14762 0.0
O35 O 0.57313 0.71415 0.16063 0.0
O36 O 0.53649 0.69984 0.89495 0.0
O37 O 0.64514 0.74769 0.91593 0.0
O38 O 0.58393 0.84772 0.94025 0.0
O39 O 0.47547 0.79384 0.93847 0.0
C40 C 0.51801 0.6724 0.1964 0.0
C41 C 0.52754 0.84181 0.9036 0.0
C42 C 0.91222 0.60388 0.87749 0.0
C43 C 0.75643 0.6257 0.1875 0.0
O44 O 0.91908 0.65959 0.92454 0.0
Zn45 Zn 0.84145 0.63656 0.02914 0.0
O46 O 0.86033 0.55087 0.8946 0.0
Zn47 Zn 0.77851 0.52283 -0.00013 0.0
O48 O 0.70379 0.48831 0.86685 0.0
O49 O 0.76363 0.59799 0.88474 0.0
O50 O 0.74603 0.57082 0.12989 0.0
O51 O 0.80748 0.67919 0.16534 0.0
O52 O 0.86546 0.58762 0.14984 0.0
O53 O 0.80226 0.47756 0.12214 0.0
C54 C 0.71359 0.54336 0.83357 0.0
C55 C 0.85176 0.53155 0.1803 0.0
C56 C 0.15596 0.75571 0.28353 0.0
C57 C 0.2784 0.90324 -0.03423 0.0
O58 O 0.14373 0.79918 0.24408 0.0
Zn59 Zn 0.21109 0.83034 0.12195 0.0
O60 O 0.2027 0.74902 0.24096 0.0
Zn61 Zn 0.27576 0.78741 0.11319 0.0
O62 O 0.35843 0.82795 0.23972 0.0
O63 O 0.29768 0.87524 0.26354 0.0
O64 O 0.29622 0.86228 -0.00326 0.0
O65 O 0.22938 0.90282 0.01412 0.0
O66 O 0.17049 0.74156 -0.01463 0.0
O67 O 0.24388 0.70844 -0.01311 0.0
C68 C 0.34918 0.87173 0.30027 0.0
C69 C 0.1873 0.69977 0.94398 0.0
C70 C 0.52438 0.33063 0.38077 0.0
C71 C 0.53005 0.18677 0.0264 0.0
O72 O 0.57869 0.33816 0.34396 0.0
Zn73 Zn 0.54525 0.26146 0.21951 0.0
O74 O 0.46935 0.27865 0.341 0.0
Zn75 Zn 0.43158 0.19625 0.20906 0.0
O76 O 0.41696 0.12288 0.32607 0.0
O77 O 0.52435 0.18839 0.33894 0.0
O78 O 0.47603 0.1722 0.07207 0.0
O79 O 0.58568 0.23404 0.08443 0.0
O80 O 0.49639 0.29136 0.08992 0.0
O81 O 0.38792 0.22817 0.07127 0.0
C82 C 0.47564 0.13796 0.37416 0.0
C83 C 0.43967 0.27782 0.03752 0.0
C84 C 0.12566 0.47712 0.45959 0.0
C85 C 0.1049 0.39087 0.93148 0.0
C86 C 0.92431 0.35365 0.8977 0.0
Mg87 Mg 0.03871 0.53836 0.33705 0.0
Mg88 Mg 0.99142 0.63018 0.50777 0.0
O89 O 1.01321 0.56483 0.50188 0.0
Mg90 Mg 0.03589 0.52338 0.63268 0.0
O91 O 0.06253 0.47595 0.75107 0.0
Mg92 Mg 0.01899 0.38304 0.65543 0.0
Mg93 Mg 0.04394 0.48346 0.9216 0.0
C94 C 0.95701 0.59924 0.78526 0.0
O95 O 0.12062 0.62123 0.75481 0.0
O96 O 0.95389 0.54324 0.2292 0.0
O97 O 0.10477 0.59101 -0.03968 0.0
O98 O 0.11066 0.64833 0.33422 0.0
O99 O 0.90278 0.56414 0.38721 0.0
O100 O 0.06451 0.70689 0.40819 0.0
O101 O 0.94879 0.41347 0.53162 0.0
O102 O 0.95914 0.43359 0.32465 0.0
C103 C 0.92679 0.39659 0.40743 0.0
C104 C 0.90088 0.53556 0.27452 0.0
O105 O 0.96375 0.54705 0.76765 0.0
O106 O 0.09036 0.36858 0.80698 0.0
O107 O 0.97928 0.6445 0.71009 0.0
O108 O 0.94741 0.33799 0.80174 0.0
O109 O 0.08926 0.43145 -0.01515 0.0
O110 O 0.94345 0.41365 0.94059 0.0
O111 O 0.11027 0.52198 0.48202 0.0
O112 O 0.09665 0.42393 0.51216 0.0
C113 C 0.10945 0.7023 0.3517 0.0
C114 C 0.13471 0.63402 0.88173 0.0
C115 C 0.49218 0.0882 0.41919 0.0
C116 C 0.7163 0.08378 0.32752 0.0
C117 C 0.62055 0.89897 0.36946 0.0
Mg118 Mg 0.41193 0.02895 0.6635 0.0
Mg119 Mg 0.47583 -0.00123 0.91665 0.0
O120 O 0.44841 0.97549 0.73359 0.0
Mg121 Mg 0.52442 0.00211 0.63135 0.0
O122 O 0.59861 0.02899 0.5224 0.0
Mg123 Mg 0.54877 0.99065 0.34304 0.0
Mg124 Mg 0.6734 0.01919 0.57429 0.0
C125 C 0.52439 0.89942 0.85922 0.0
O126 O 0.60615 0.08517 0.79288 0.0
O127 O 0.32636 0.96861 0.79356 0.0
O128 O 0.69755 0.07753 0.77272 0.0
O129 O 0.47222 0.11483 0.83691 0.0
O130 O 0.38639 0.98301 -0.01416 0.0
O131 O 0.54345 0.09998 -0.03673 0.0
O132 O 0.45209 0.92781 0.44989 0.0
O133 O 0.36796 0.94586 0.48778 0.0
C134 C 0.39263 0.91685 0.41866 0.0
C135 C 0.33057 0.96101 0.91643 0.0
O136 O 0.53746 0.91844 0.74257 0.0
O137 O 0.65444 0.05909 0.28184 0.0
O138 O 0.50468 0.92721 0.94301 0.0
O139 O 0.58151 0.91882 0.33297 0.0
O140 O 0.73567 0.07795 0.44235 0.0
O141 O 0.66235 0.92655 0.47398 0.0
O142 O 0.49802 0.07889 0.54095 0.0
O143 O 0.51614 0.06624 0.33413 0.0
C144 C 0.52286 0.13716 0.92509 0.0
C145 C 0.66724 0.1042 0.83019 0.0
C146 C 0.57835 0.63743 0.80953 0.0
C147 C 0.38926 0.48322 -0.00267 0.0
C148 C 0.43945 0.32703 0.95283 0.0
Mg149 Mg 0.63395 0.63468 0.5383 0.0
Mg150 Mg 0.55072 0.52131 0.29405 0.0
O151 O 0.58162 0.53952 0.47229 0.0
Mg152 Mg 0.52139 0.49901 0.614 0.0
O153 O 0.46848 0.46485 0.76302 0.0
Mg154 Mg 0.53385 0.49579 0.92147 0.0
Mg155 Mg 0.38486 0.38989 0.76851 0.0
C156 C 0.51917 0.38826 0.40969 0.0
O157 O 0.41874 0.46852 0.49525 0.0
O158 O 0.71174 0.65015 0.38063 0.0
O159 O 0.34243 0.37358 0.56843 0.0
O160 O 0.57415 0.66037 0.38178 0.0
O161 O 0.64387 0.57328 0.21368 0.0
O162 O 0.49291 0.56909 0.26265 0.0
O163 O 0.60405 0.50621 0.75098 0.0
O164 O 0.68515 0.59768 0.68283 0.0
C165 C 0.66514 0.54773 0.74791 0.0
C166 C 0.70159 0.62055 0.2625 0.0
O167 O 0.50888 0.40275 0.52587 0.0
O168 O 0.44926 0.49766 0.03512 0.0
O169 O 0.52453 0.42131 0.31236 0.0
O170 O 0.49297 0.38416 -0.03651 0.0
O171 O 0.35583 0.44388 0.89271 0.0
O172 O 0.38746 0.31495 0.87936 0.0
O173 O 0.55544 0.61037 0.68961 0.0
O174 O 0.57168 0.60225 0.90161 0.0
C175 C 0.52269 0.63139 0.29439 0.0
C176 C 0.3598 0.41673 0.48812 0.0
loop_
_geom_bond_atom_site_label_1
_geom_bond_atom_site_label_2
_geom_bond_distance
_geom_bond_site_symmetry_2
_ccdc_geom_bond_type
C0 O2 1.247 . S
C0 O4 1.258 . S
C1 O8 1.247 . S
C1 O9 1.258 . S
O2 C0 1.247 . S
O2 Zn3 2.028 . S
Zn3 O2 2.028 . S
Zn3 O7 2.035 . S
Zn3 O9 2.035 . S
Zn3 O10 2.028 . S
O4 C0 1.258 . S
O4 Zn5 2.035 . S
Zn5 O4 2.035 . S
Zn5 O6 2.028 . S
Zn5 O8 2.028 . S
Zn5 O11 2.035 . S
O6 Zn5 2.028 . S
O6 C12 1.247 . S
O7 Zn3 2.035 . S
O7 C12 1.258 . S
O8 C1 1.247 . S
O8 Zn5 2.028 . S
O9 C1 1.258 . S
O9 Zn3 2.035 . S
O10 Zn3 2.028 . S
O10 C13 1.247 . S
O11 Zn5 2.035 . S
O11 C13 1.258 . S
C12 O6 1.247 . S
C12 O7 1.258 . S
C13 O10 1.247 . S
C13 O11 1.258 . S
C14 O16 1.247 . S
C14 O18 1.258 . S
C15 O22 1.247 . S
C15 O23 1.258 . S
O16 C14 1.247 . S
O16 Zn17 2.028 1_556 S
Zn17 O16 2.028 1_554 S
Zn17 O21 2.035 . S
Zn17 O23 2.035 . S
Zn17 O24 2.028 . S
O18 C14 1.258 . S
O18 Zn19 2.035 1_556 S
Zn19 O18 2.035 1_554 S
Zn19 O20 2.028 . S
Zn19 O22 2.028 . S
Zn19 O25 2.035 . S
O20 Zn19 2.028 . S
O20 C26 1.247 1_554 S
O21 Zn17 2.035 . S
O21 C26 1.258 1_554 S
O22 C15 1.247 . S
O22 Zn19 2.028 . S
O23 C15 1.258 . S
O23 Zn17 2.035 . S
O24 Zn17 2.028 . S
O24 C27 1.247 . S
O25 Zn19 2.035 . S
O25 C27 1.258 . S
C26 O20 1.247 1_556 S
C26 O21 1.258 1_556 S
C27 O24 1.247 . S
C27 O25 1.258 . S
C28 O30 1.247 . S
C28 O32 1.258 . S
C29 O36 1.247 . S
C29 O37 1.258 . S
O30 C28 1.247 . S
O30 Zn31 2.028 . S
Zn31 O30 2.028 . S
Zn31 O35 2.035 . S
Zn31 O37 2.035 1_554 S
Zn31 O38 2.028 1_554 S
O32 C28 1.258 . S
O32 Zn33 2.035 . S
Zn33 O32 2.035 . S
Zn33 O34 2.028 . S
Zn33 O36 2.028 1_554 S
Zn33 O39 2.035 1_554 S
O34 Zn33 2.028 . S
O34 C40 1.247 . S
O35 Zn31 2.035 . S
O35 C40 1.258 . S
O36 C29 1.247 . S
O36 Zn33 2.028 1_556 S
O37 C29 1.258 . S
O37 Zn31 2.035 1_556 S
O38 Zn31 2.028 1_556 S
O38 C41 1.247 . S
O39 Zn33 2.035 1_556 S
O39 C41 1.258 . S
C40 O34 1.247 . S
C40 O35 1.258 . S
C41 O38 1.247 . S
C41 O39 1.258 . S
C42 O44 1.247 . S
C42 O46 1.258 . S
C43 O50 1.247 . S
C43 O51 1.258 . S
O44 C42 1.247 . S
O44 Zn45 2.028 1_556 S
Zn45 O44 2.028 1_554 S
Zn45 O49 2.035 1_554 S
Zn45 O51 2.035 . S
Zn45 O52 2.028 . S
O46 C42 1.258 . S
O46 Zn47 2.035 1_556 S
Zn47 O46 2.035 1_554 S
Zn47 O48 2.028 1_554 S
Zn47 O50 2.028 . S
Zn47 O53 2.035 . S
O48 Zn47 2.028 1_556 S
O48 C54 1.247 . S
O49 Zn45 2.035 1_556 S
O49 C54 1.258 . S
O50 C43 1.247 . S
O50 Zn47 2.028 . S
O51 C43 1.258 . S
O51 Zn45 2.035 . S
O52 Zn45 2.028 . S
O52 C55 1.247 . S
O53 Zn47 2.035 . S
O53 C55 1.258 . S
C54 O48 1.247 . S
C54 O49 1.258 . S
C55 O52 1.247 . S
C55 O53 1.258 . S
C56 O58 1.247 . S
C56 O60 1.258 . S
C57 O64 1.247 . S
C57 O65 1.258 . S
O58 C56 1.247 . S
O58 Zn59 2.028 . S
Zn59 O58 2.028 . S
Zn59 O63 2.035 . S
Zn59 O65 2.035 . S
Zn59 O66 2.028 . S
O60 C56 1.258 . S
O60 Zn61 2.035 . S
Zn61 O60 2.035 . S
Zn61 O62 2.028 . S
Zn61 O64 2.028 . S
Zn61 O67 2.035 . S
O62 Zn61 2.028 . S
O62 C68 1.247 . S
O63 Zn59 2.035 . S
O63 C68 1.258 . S
O64 C57 1.247 . S
O64 Zn61 2.028 . S
O65 C57 1.258 . S
O65 Zn59 2.035 . S
O66 Zn59 2.028 . S
O66 C69 1.247 1_554 S
O67 Zn61 2.035 . S
O67 C69 1.258 1_554 S
C68 O62 1.247 . S
C68 O63 1.258 . S
C69 O66 1.247 1_556 S
C69 O67 1.258 1_556 S
C70 O72 1.247 . S
C70 O74 1.258 . S
C71 O78 1.247 . S
C71 O79 1.258 . S
O72 C70 1.247 . S
O72 Zn73 2.028 . S
Zn73 O72 2.028 . S
Zn73 O77 2.035 . S
Zn73 O79 2.035 . S
Zn73 O80 2.028 . S
O74 C70 1.258 . S
O74 Zn75 2.035 . S
Zn75 O74 2.035 . S
Zn75 O76 2.028 . S
Zn75 O78 2.028 . S
Zn75 O81 2.035 . S
O76 Zn75 2.028 . S
O76 C82 1.247 . S
O77 Zn73 2.035 . S
O77 C82 1.258 . S
O78 C71 1.247 . S
O78 Zn75 2.028 . S
O79 C71 1.258 . S
O79 Zn73 2.035 . S
O80 Zn73 2.028 . S
O80 C83 1.247 . S
O81 Zn75 2.035 . S
O81 C83 1.258 . S
C82 O76 1.247 . S
C82 O77 1.258 . S
C83 O80 1.247 . S
C83 O81 1.258 . S
C84 O111 1.312 . S
C84 O112 1.208 . S
C85 O106 1.331 1_554 S
C85 O109 1.244 . S
C86 O108 1.264 . S
C86 O110 1.273 1_556 S
Mg87 O89 1.936 1_455 S
Mg87 O96 2.081 1_455 S
Mg87 O98 2.023 . S
Mg87 O102 2.031 1_455 S
Mg87 O111 2.291 . S
Mg88 O89 1.963 . S
Mg88 O99 1.942 . S
Mg88 O100 1.955 1_655 S
Mg88 O107 1.986 . S
O89 Mg87 1.936 1_655 S
O89 Mg88 1.963 . S
O89 Mg90 1.915 1_655 S
Mg90 O89 1.915 1_455 S
Mg90 O91 1.915 . S
Mg90 O95 2.013 . S
Mg90 O101 2.114 1_455 S
Mg90 O105 2.013 1_455 S
Mg90 O111 2.114 . S
O91 Mg90 1.915 . S
O91 Mg92 1.936 . S
O91 Mg93 1.963 1_556 S
Mg92 O91 1.936 . S
Mg92 O101 2.291 1_455 S
Mg92 O106 2.081 . S
Mg92 O108 2.023 1_455 S
Mg92 O112 2.031 . S
Mg93 O91 1.963 1_554 S
Mg93 O97 1.986 . S
Mg93 O109 1.942 . S
Mg93 O110 1.955 1_455 S
C94 O105 1.191 . S
C94 O107 1.307 . S
O95 Mg90 2.013 . S
O95 C114 1.191 . S
O96 Mg87 2.081 1_655 S
O96 C104 1.331 . S
O97 Mg93 1.986 . S
O97 C114 1.307 1_554 S
O98 Mg87 2.023 . S
O98 C113 1.264 . S
O99 Mg88 1.942 . S
O99 C104 1.244 . S
O100 Mg88 1.955 1_455 S
O100 C113 1.273 . S
O101 Mg90 2.114 1_655 S
O101 Mg92 2.291 1_655 S
O101 C103 1.312 . S
O102 Mg87 2.031 1_655 S
O102 C103 1.208 . S
C103 O101 1.312 . S
C103 O102 1.208 . S
C104 O96 1.331 . S
C104 O99 1.244 . S
O105 Mg90 2.013 1_655 S
O105 C94 1.191 . S
O106 C85 1.331 1_556 S
O106 Mg92 2.081 . S
O107 Mg88 1.986 . S
O107 C94 1.307 . S
O108 C86 1.264 . S
O108 Mg92 2.023 1_655 S
O109 C85 1.244 . S
O109 Mg93 1.942 . S
O110 C86 1.273 1_554 S
O110 Mg93 1.955 1_655 S
O111 C84 1.312 . S
O111 Mg87 2.291 . S
O111 Mg90 2.114 . S
O112 C84 1.208 . S
O112 Mg92 2.031 . S
C113 O98 1.264 . S
C113 O100 1.273 . S
C114 O95 1.191 . S
C114 O97 1.307 1_556 S
C115 O142 1.312 . S
C115 O143 1.208 . S
C116 O137 1.331 . S
C116 O140 1.244 . S
C117 O139 1.264 . S
C117 O141 1.273 . S
Mg118 O120 1.936 1_545 S
Mg118 O127 2.081 1_545 S
Mg118 O129 2.023 . S
Mg118 O133 2.031 1_545 S
Mg118 O142 2.291 . S
Mg119 O120 1.963 1_554 S
Mg119 O130 1.942 . S
Mg119 O131 1.955 1_565 S
Mg119 O138 1.986 1_554 S
O120 Mg118 1.936 1_565 S
O120 Mg119 1.963 1_556 S
O120 Mg121 1.915 1_565 S
Mg121 O120 1.915 1_545 S
Mg121 O122 1.915 . S
Mg121 O126 2.013 . S
Mg121 O132 2.114 1_545 S
Mg121 O136 2.013 1_545 S
Mg121 O142 2.114 . S
O122 Mg121 1.915 . S
O122 Mg123 1.936 . S
O122 Mg124 1.963 . S
Mg123 O122 1.936 . S
Mg123 O132 2.291 1_545 S
Mg123 O137 2.081 . S
Mg123 O139 2.023 1_545 S
Mg123 O143 2.031 . S
Mg124 O122 1.963 . S
Mg124 O128 1.986 . S
Mg124 O140 1.942 . S
Mg124 O141 1.955 1_545 S
C125 O136 1.191 . S
C125 O138 1.307 . S
O126 Mg121 2.013 . S
O126 C145 1.191 . S
O127 Mg118 2.081 1_565 S
O127 C135 1.331 . S
O128 Mg124 1.986 . S
O128 C145 1.307 . S
O129 Mg118 2.023 . S
O129 C144 1.264 1_556 S
O130 Mg119 1.942 . S
O130 C135 1.244 1_554 S
O131 Mg119 1.955 1_545 S
O131 C144 1.273 . S
O132 Mg121 2.114 1_565 S
O132 Mg123 2.291 1_565 S
O132 C134 1.312 . S
O133 Mg118 2.031 1_565 S
O133 C134 1.208 . S
C134 O132 1.312 . S
C134 O133 1.208 . S
C135 O127 1.331 . S
C135 O130 1.244 1_556 S
O136 Mg121 2.013 1_565 S
O136 C125 1.191 . S
O137 C116 1.331 . S
O137 Mg123 2.081 . S
O138 Mg119 1.986 1_556 S
O138 C125 1.307 . S
O139 C117 1.264 . S
O139 Mg123 2.023 1_565 S
O140 C116 1.244 . S
O140 Mg124 1.942 . S
O141 C117 1.273 . S
O141 Mg124 1.955 1_565 S
O142 C115 1.312 . S
O142 Mg118 2.291 . S
O142 Mg121 2.114 . S
O143 C115 1.208 . S
O143 Mg123 2.031 . S
C144 O129 1.264 1_554 S
C144 O131 1.273 . S
C145 O126 1.191 . S
C145 O128 1.307 . S
C146 O173 1.312 . S
C146 O174 1.208 . S
C147 O168 1.331 . S
C147 O171 1.244 1_554 S
C148 O170 1.264 1_556 S
C148 O172 1.273 . S
Mg149 O151 1.936 . S
Mg149 O158 2.081 . S
Mg149 O160 2.023 . S
Mg149 O164 2.031 . S
Mg149 O173 2.291 . S
Mg150 O151 1.963 . S
Mg150 O161 1.942 . S
Mg150 O162 1.955 . S
Mg150 O169 1.986 . S
O151 Mg149 1.936 . S
O151 Mg150 1.963 . S
O151 Mg152 1.915 . S
Mg152 O151 1.915 . S
Mg152 O153 1.915 . S
Mg152 O157 2.013 . S
Mg152 O163 2.114 . S
Mg152 O167 2.013 . S
Mg152 O173 2.114 . S
O153 Mg152 1.915 . S
O153 Mg154 1.935 1_556 S
O153 Mg155 1.963 . S
Mg154 O153 1.935 1_554 S
Mg154 O163 2.291 1_554 S
Mg154 O168 2.081 . S
Mg154 O170 2.024 . S
Mg154 O174 2.031 1_554 S
Mg155 O153 1.963 . S
Mg155 O159 1.986 . S
Mg155 O171 1.942 . S
Mg155 O172 1.955 . S
C156 O167 1.191 . S
C156 O169 1.307 . S
O157 Mg152 2.013 . S
O157 C176 1.191 . S
O158 Mg149 2.081 . S
O158 C166 1.331 . S
O159 Mg155 1.986 . S
O159 C176 1.307 . S
O160 Mg149 2.023 . S
O160 C175 1.264 . S
O161 Mg150 1.942 . S
O161 C166 1.244 . S
O162 Mg150 1.955 . S
O162 C175 1.273 . S
O163 Mg152 2.114 . S
O163 Mg154 2.291 1_556 S
O163 C165 1.312 . S
O164 Mg149 2.031 . S
O164 C165 1.208 . S
C165 O163 1.312 . S
C165 O164 1.208 . S
C166 O158 1.331 . S
C166 O161 1.244 . S
O167 Mg152 2.013 . S
O167 C156 1.191 . S
O168 C147 1.331 . S
O168 Mg154 2.081 . S
O169 Mg150 1.986 . S
O169 C156 1.307 . S
O170 C148 1.264 1_554 S
O170 Mg154 2.024 . S
O171 C147 1.244 1_556 S
O171 Mg155 1.942 . S
O172 C148 1.273 . S
O172 Mg155 1.955 . S
O173 C146 1.312 . S
O173 Mg149 2.291 . S
O173 Mg152 2.114 . S
O174 C146 1.208 . S
O174 Mg154 2.031 1_556 S
C175 O160 1.264 . S
C175 O162 1.273 . S
C176 O157 1.191 . S
C176 O159 1.307 . S
C1 C84 2.035 . S
C27 C116 1.437 . S
C175 C40 1.762 . S
C104 C55 1.146 . S
C68 C134 1.864 . S
C156 C70 1.423 . S
C125 C41 2.034 . S
C54 C165 1.413 . S
C114 C69 1.923 . S
C71 C144 1.224 . S
C0 C147 1.635 . S
C86 C26 1.501 . S
C94 C42 1.954 . S
C135 C57 1.280 1_556 S
C148 C83 1.794 1_556 S
C85 C12 1.145 . S
C145 C14 1.795 . S
C29 C146 1.364 . S
C115 C82 1.954 . S
C176 C13 1.340 . S
C103 C15 1.820 . S
C117 C28 1.268 . S
C43 C166 1.633 . S
C56 C113 1.450 . S
