# Generated by pormake.
# Topology bcu-b, (8,8)-cn, num edge types: 1
# Building blocks:
#     Node 0, Type 0, BuildingBlock: TAGTUT_clean_sbu_1, # of connection points: 8
#     Node 1, Type 1, BuildingBlock: GIZVER_clean_sbu_0, # of connection points: 8
#     Edge 2, Type (0, 1), BuildingBlock: OJICUG_clean_linker_0, # of connection points: 2
#     Edge 3, Type (0, 1), BuildingBlock: OJICUG_clean_linker_0, # of connection points: 2
#     Edge 4, Type (0, 1), BuildingBlock: OJICUG_clean_linker_0, # of connection points: 2
#     Edge 5, Type (0, 1), BuildingBlock: OJICUG_clean_linker_0, # of connection points: 2
#     Edge 6, Type (0, 1), BuildingBlock: OJICUG_clean_linker_0, # of connection points: 2
#     Edge 7, Type (0, 1), BuildingBlock: OJICUG_clean_linker_0, # of connection points: 2
#     Edge 8, Type (0, 1), BuildingBlock: OJICUG_clean_linker_0, # of connection points: 2
#     Edge 9, Type (0, 1), BuildingBlock: OJICUG_clean_linker_0, # of connection points: 2
# Relax obj value: 0.099
# Max RMSD: 0.171
# Mean RMSD: 0.166
data_MOF--net-bcu-b--node1-TAGTUT_clean_sbu_1--node2-GIZVER_clean_sbu_0--edge1-OJICUG_clean_linker_0
_symmetry_space_group_name_H-M    P1
_symmetry_Int_Tables_number       1
_symmetry_cell_setting            triclinic
loop_
_symmetry_equiv_pos_as_xyz
'x, y, z'
_cell_length_a     16.394046
_cell_length_b     17.328249
_cell_length_c     13.719587
_cell_angle_alpha  88.546778
_cell_angle_beta   94.633127
_cell_angle_gamma 113.39324
loop_
_atom_site_label
_atom_site_type_symbol
_atom_site_fract_x
_atom_site_fract_y
_atom_site_fract_z
_atom_type_partial_charge
C0 C 0.83706 0.17524 0.13081 0.0
C1 C 0.88702 0.1798 0.82954 0.0
C2 C 0.8389 0.85587 0.87808 0.0
Mg3 Mg 1.00001 0.18979 0.02127 0.0
O4 O 0.9477 0.0736 0.04381 0.0
Mg5 Mg 0.82308 0.01474 0.9842 0.0
Mg6 Mg 0.00655 0.00631 -0.01223 0.0
O7 O 0.06524 0.93892 0.93169 0.0
Mg8 Mg 0.01276 0.82267 0.95407 0.0
Mg9 Mg 0.18983 0.99766 -0.00874 0.0
C10 C 0.17397 0.15672 0.09748 0.0
C11 C 0.15205 0.12914 0.84147 0.0
O12 O 0.79161 0.10329 0.08886 0.0
O13 O 0.91881 0.2188 0.11592 0.0
O14 O 0.83456 0.10935 0.8615 0.0
O15 O 0.96275 0.22111 0.87481 0.0
O16 O 0.13496 0.2069 0.07472 0.0
O17 O 0.13536 0.07668 0.08369 0.0
C18 C 0.86103 0.88341 0.13406 0.0
O19 O 0.93907 0.90337 0.10393 0.0
O20 O 0.80966 0.91911 0.10186 0.0
O21 O 0.22113 0.90909 0.88651 0.0
O22 O 0.09389 0.79365 0.85931 0.0
O23 O 0.17826 0.90298 0.11387 0.0
C24 C 0.17565 0.83718 0.84447 0.0
O25 O 0.05007 0.7912 0.10045 0.0
O26 O 0.87771 0.8055 0.90072 0.0
C27 C 0.12579 0.8325 0.14577 0.0
O28 O 0.87785 0.93587 0.89195 0.0
O29 O 0.07402 0.10923 0.87161 0.0
O30 O 0.20336 0.09338 0.87365 0.0
Co31 Co 0.5894 0.35989 0.45415 0.0
Co32 Co 0.60021 0.4137 0.62859 0.0
Co33 Co 0.50655 0.50636 0.4878 0.0
O34 O 0.60419 0.46561 0.51051 0.0
H35 H 0.66268 0.50928 0.50415 0.0
O36 O 0.4089 0.54707 0.46506 0.0
Co37 Co 0.42359 0.65276 0.52131 0.0
Co38 Co 0.41286 0.59888 0.34693 0.0
H39 H 0.35041 0.50337 0.47142 0.0
O40 O 0.70589 0.42279 0.68849 0.0
O41 O 0.61206 0.31784 0.58746 0.0
O42 O 0.49406 0.38509 0.6982 0.0
O43 O 0.42003 0.42082 0.57404 0.0
O44 O 0.5585 0.58634 0.59814 0.0
O45 O 0.4305 0.74574 0.57529 0.0
O46 O 0.30851 0.62624 0.54573 0.0
O47 O 0.54744 0.69259 0.51396 0.0
O48 O 0.59307 0.59189 0.40158 0.0
O49 O 0.51904 0.62751 0.27734 0.0
O50 O 0.40091 0.69472 0.38794 0.0
O51 O 0.30718 0.58967 0.28696 0.0
C52 C 0.66627 0.31089 0.3909 0.0
C53 C 0.4332 0.34761 0.38762 0.0
C54 C 0.4222 0.38511 0.65619 0.0
C55 C 0.68611 0.35141 0.64416 0.0
C56 C 0.34663 0.70171 0.58446 0.0
C57 C 0.57983 0.66515 0.58793 0.0
C58 C 0.5909 0.62754 0.31939 0.0
C59 C 0.32688 0.66107 0.33122 0.0
O60 O 0.58239 0.26691 0.40009 0.0
O61 O 0.70445 0.38635 0.42967 0.0
O62 O 0.45461 0.42642 0.37746 0.0
O63 O 0.46556 0.3201 0.46155 0.0
C64 C 0.3152 0.27708 0.13978 0.0
C65 C 0.25884 0.19354 0.15738 0.0
H66 H 0.41444 0.39113 0.19911 0.0
C67 C 0.27133 0.15603 0.24627 0.0
H68 H 0.30711 0.30741 0.07192 0.0
C69 C 0.33254 0.20474 0.32065 0.0
C70 C 0.38135 0.29102 0.30625 0.0
H71 H 0.22796 0.09179 0.26179 0.0
H72 H 0.33676 0.17656 0.39125 0.0
C73 C 0.37572 0.32537 0.21343 0.0
C74 C 0.70932 0.16042 0.22862 0.0
C75 C 0.79507 0.20911 0.20069 0.0
H76 H 0.60267 0.15367 0.31202 0.0
C77 C 0.84107 0.29041 0.24128 0.0
H78 H 0.67238 0.09741 0.19983 0.0
C79 C 0.80105 0.32301 0.30623 0.0
C80 C 0.7144 0.27488 0.33199 0.0
H81 H 0.90764 0.3296 0.22182 0.0
H82 H 0.83705 0.38645 0.33418 0.0
C83 C 0.66962 0.19279 0.29361 0.0
C84 C 0.80526 0.81563 0.29059 0.0
C85 C 0.81876 0.80757 0.19232 0.0
H86 H 0.72268 0.76231 0.40907 0.0
C87 C 0.76492 0.73316 0.1413 0.0
H88 H 0.84397 0.87355 0.33037 0.0
C89 C 0.69293 0.67167 0.18427 0.0
C90 C 0.67582 0.68237 0.2803 0.0
H91 H 0.77306 0.72649 0.06493 0.0
H92 H 0.64799 0.61803 0.14091 0.0
C93 C 0.73518 0.7526 0.33493 0.0
C94 C 0.12802 0.70236 0.22668 0.0
C95 C 0.16427 0.79043 0.22071 0.0
H96 H 0.15161 0.59256 0.2666 0.0
C97 C 0.24858 0.83585 0.26966 0.0
H98 H 0.0633 0.66525 0.19063 0.0
C99 C 0.29961 0.79393 0.31336 0.0
C100 C 0.26738 0.70598 0.30817 0.0
H101 H 0.2782 0.90392 0.26751 0.0
H102 H 0.36666 0.83051 0.3441 0.0
C103 C 0.17926 0.66065 0.2694 0.0
C104 C 0.3034 0.8521 0.74665 0.0
C105 C 0.21766 0.80336 0.77457 0.0
H106 H 0.41009 0.85893 0.66327 0.0
C107 C 0.17171 0.72206 0.73398 0.0
H108 H 0.3403 0.91513 0.77544 0.0
C109 C 0.21178 0.6895 0.66905 0.0
C110 C 0.29844 0.73768 0.64331 0.0
H111 H 0.10515 0.68283 0.75345 0.0
H112 H 0.17583 0.62605 0.64111 0.0
C113 C 0.34315 0.81977 0.68167 0.0
C114 C 0.24826 0.27935 0.83431 0.0
C115 C 0.19436 0.20499 0.78323 0.0
H116 H 0.3652 0.39447 0.83477 0.0
C117 C 0.20783 0.19701 0.68493 0.0
H118 H 0.24015 0.28595 0.91071 0.0
C119 C 0.2779 0.26008 0.64061 0.0
C120 C 0.33729 0.33026 0.69529 0.0
H121 H 0.16909 0.13913 0.64509 0.0
H122 H 0.29037 0.25042 0.56644 0.0
C123 C 0.32023 0.34088 0.79136 0.0
C124 C 0.76415 0.17649 0.70579 0.0
C125 C 0.84854 0.22186 0.75459 0.0
H126 H 0.64607 0.18191 0.63148 0.0
C127 C 0.88491 0.30993 0.74847 0.0
H128 H 0.73445 0.10842 0.70805 0.0
C129 C 0.83372 0.35169 0.70576 0.0
C130 C 0.74554 0.30641 0.66715 0.0
H131 H 0.94969 0.34702 0.78439 0.0
H132 H 0.86146 0.41979 0.70845 0.0
C133 C 0.71318 0.21845 0.66209 0.0
C134 C 0.69734 0.73588 0.83593 0.0
C135 C 0.754 0.8193 0.8182 0.0
H136 H 0.59794 0.62188 0.77666 0.0
C137 C 0.74182 0.85673 0.72915 0.0
H138 H 0.70519 0.70563 0.90393 0.0
C139 C 0.68064 0.80801 0.65474 0.0
C140 C 0.63157 0.7218 0.66929 0.0
H141 H 0.78542 0.92087 0.71352 0.0
H142 H 0.67668 0.8361 0.58402 0.0
C143 C 0.63687 0.68757 0.76225 0.0
loop_
_geom_bond_atom_site_label_1
_geom_bond_atom_site_label_2
_geom_bond_distance
_geom_bond_site_symmetry_2
_ccdc_geom_bond_type
C0 O12 1.241 . S
C0 O13 1.280 . S
C1 O14 1.277 . S
C1 O15 1.245 . S
C2 O26 1.247 . S
C2 O28 1.289 . S
Mg3 O4 1.926 . S
Mg3 O13 1.984 . S
Mg3 O15 1.988 1_554 S
Mg3 O16 2.061 1_655 S
O4 Mg3 1.926 . S
O4 Mg5 1.986 1_544 S
O4 Mg6 1.918 1_655 S
Mg5 O4 1.986 1_566 S
Mg5 O12 2.042 1_566 S
Mg5 O14 2.041 1_565 S
Mg5 O20 2.038 1_556 S
Mg5 O28 2.238 . S
Mg6 O4 1.918 1_455 S
Mg6 O7 1.916 1_544 S
Mg6 O17 2.107 . S
Mg6 O19 2.078 1_445 S
Mg6 O28 2.106 1_444 S
Mg6 O29 2.079 1_554 S
O7 Mg6 1.916 1_566 S
O7 Mg8 1.926 . S
O7 Mg9 1.986 1_566 S
Mg8 O7 1.926 . S
Mg8 O22 1.984 . S
Mg8 O25 1.988 1_556 S
Mg8 O26 2.061 1_455 S
Mg9 O7 1.986 1_544 S
Mg9 O17 2.238 . S
Mg9 O21 2.042 1_544 S
Mg9 O23 2.041 1_545 S
Mg9 O30 2.038 1_554 S
C10 O16 1.247 . S
C10 O17 1.289 . S
C11 O29 1.245 . S
C11 O30 1.274 . S
O12 C0 1.241 . S
O12 Mg5 2.042 1_544 S
O13 C0 1.280 . S
O13 Mg3 1.984 . S
O14 C1 1.277 . S
O14 Mg5 2.041 1_545 S
O15 C1 1.245 . S
O15 Mg3 1.988 1_556 S
O16 Mg3 2.061 1_455 S
O16 C10 1.247 . S
O17 Mg6 2.107 . S
O17 Mg9 2.238 . S
O17 C10 1.289 . S
C18 O19 1.245 . S
C18 O20 1.274 . S
O19 Mg6 2.078 1_665 S
O19 C18 1.245 . S
O20 Mg5 2.038 1_554 S
O20 C18 1.274 . S
O21 Mg9 2.042 1_566 S
O21 C24 1.241 . S
O22 Mg8 1.984 . S
O22 C24 1.280 . S
O23 Mg9 2.041 1_565 S
O23 C27 1.277 . S
C24 O21 1.241 . S
C24 O22 1.280 . S
O25 Mg8 1.988 1_554 S
O25 C27 1.245 . S
O26 C2 1.247 . S
O26 Mg8 2.061 1_655 S
C27 O23 1.277 . S
C27 O25 1.245 . S
O28 C2 1.289 . S
O28 Mg5 2.238 . S
O28 Mg6 2.106 1_666 S
O29 Mg6 2.079 1_556 S
O29 C11 1.245 . S
O30 Mg9 2.038 1_556 S
O30 C11 1.274 . S
Co31 O34 2.042 . S
Co31 O41 2.264 . S
Co31 O60 2.286 . S
Co31 O61 2.069 . S
Co31 O63 2.015 . S
Co32 O34 2.122 . S
Co32 O40 2.073 . S
Co32 O41 2.327 . S
Co32 O42 1.976 . S
Co33 O34 2.087 . S
Co33 O36 2.087 . S
Co33 O43 2.111 . S
Co33 O44 2.143 . S
Co33 O48 2.111 . S
Co33 O62 2.143 . S
O34 Co31 2.042 . S
O34 Co32 2.122 . S
O34 Co33 2.087 . S
O34 H35 0.980 . S
H35 O34 0.980 . S
O36 Co33 2.087 . S
O36 Co37 2.042 . S
O36 Co38 2.122 . S
O36 H39 0.980 . S
Co37 O36 2.042 . S
Co37 O45 2.286 . S
Co37 O46 2.069 . S
Co37 O47 2.015 . S
Co37 O50 2.264 . S
Co38 O36 2.122 . S
Co38 O49 1.976 . S
Co38 O50 2.327 . S
Co38 O51 2.073 . S
H39 O36 0.980 . S
O40 Co32 2.073 . S
O40 C55 1.245 . S
O41 Co31 2.264 . S
O41 Co32 2.327 . S
O41 C55 1.257 . S
O42 Co32 1.976 . S
O42 C54 1.251 . S
O43 Co33 2.111 . S
O43 C54 1.274 . S
O44 Co33 2.143 . S
O44 C57 1.246 . S
O45 Co37 2.286 . S
O45 C56 1.259 . S
O46 Co37 2.069 . S
O46 C56 1.289 . S
O47 Co37 2.015 . S
O47 C57 1.257 . S
O48 Co33 2.111 . S
O48 C58 1.274 . S
O49 Co38 1.976 . S
O49 C58 1.251 . S
O50 Co37 2.264 . S
O50 Co38 2.327 . S
O50 C59 1.257 . S
O51 Co38 2.073 . S
O51 C59 1.245 . S
C52 O60 1.259 . S
C52 O61 1.289 . S
C53 O62 1.246 . S
C53 O63 1.257 . S
C54 O42 1.251 . S
C54 O43 1.274 . S
C55 O40 1.245 . S
C55 O41 1.257 . S
C56 O45 1.259 . S
C56 O46 1.289 . S
C57 O44 1.246 . S
C57 O47 1.257 . S
C58 O48 1.274 . S
C58 O49 1.251 . S
C59 O50 1.257 . S
C59 O51 1.245 . S
O60 Co31 2.286 . S
O60 C52 1.259 . S
O61 Co31 2.069 . S
O61 C52 1.289 . S
O62 Co33 2.143 . S
O62 C53 1.246 . S
O63 Co31 2.015 . S
O63 C53 1.257 . S
C64 C65 1.387 . S
C64 H68 0.950 . S
C64 C73 1.390 . S
C65 C64 1.387 . S
C65 C67 1.387 . S
H66 C73 0.950 . S
C67 C65 1.387 . S
C67 C69 1.390 . S
C67 H71 0.950 . S
H68 C64 0.950 . S
C69 C67 1.390 . S
C69 C70 1.387 . S
C69 H72 0.950 . S
C70 C69 1.387 . S
C70 C73 1.387 . S
H71 C67 0.950 . S
H72 C69 0.950 . S
C73 C64 1.390 . S
C73 H66 0.950 . S
C73 C70 1.387 . S
C74 C75 1.387 . S
C74 H78 0.950 . S
C74 C83 1.390 . S
C75 C74 1.387 . S
C75 C77 1.387 . S
H76 C83 0.950 . S
C77 C75 1.387 . S
C77 C79 1.390 . S
C77 H81 0.950 . S
H78 C74 0.950 . S
C79 C77 1.390 . S
C79 C80 1.387 . S
C79 H82 0.950 . S
C80 C79 1.387 . S
C80 C83 1.387 . S
H81 C77 0.950 . S
H82 C79 0.950 . S
C83 C74 1.390 . S
C83 H76 0.950 . S
C83 C80 1.387 . S
C84 C85 1.387 . S
C84 H88 0.950 . S
C84 C93 1.390 . S
C85 C84 1.387 . S
C85 C87 1.387 . S
H86 C93 0.950 . S
C87 C85 1.387 . S
C87 C89 1.390 . S
C87 H91 0.950 . S
H88 C84 0.950 . S
C89 C87 1.390 . S
C89 C90 1.387 . S
C89 H92 0.950 . S
C90 C89 1.387 . S
C90 C93 1.387 . S
H91 C87 0.950 . S
H92 C89 0.950 . S
C93 C84 1.390 . S
C93 H86 0.950 . S
C93 C90 1.387 . S
C94 C95 1.387 . S
C94 H98 0.950 . S
C94 C103 1.390 . S
C95 C94 1.387 . S
C95 C97 1.387 . S
H96 C103 0.950 . S
C97 C95 1.387 . S
C97 C99 1.390 . S
C97 H101 0.950 . S
H98 C94 0.950 . S
C99 C97 1.390 . S
C99 C100 1.387 . S
C99 H102 0.950 . S
C100 C99 1.387 . S
C100 C103 1.387 . S
H101 C97 0.950 . S
H102 C99 0.950 . S
C103 C94 1.390 . S
C103 H96 0.950 . S
C103 C100 1.387 . S
C104 C105 1.387 . S
C104 H108 0.950 . S
C104 C113 1.390 . S
C105 C104 1.387 . S
C105 C107 1.387 . S
H106 C113 0.950 . S
C107 C105 1.387 . S
C107 C109 1.390 . S
C107 H111 0.950 . S
H108 C104 0.950 . S
C109 C107 1.390 . S
C109 C110 1.387 . S
C109 H112 0.950 . S
C110 C109 1.387 . S
C110 C113 1.387 . S
H111 C107 0.950 . S
H112 C109 0.950 . S
C113 C104 1.390 . S
C113 H106 0.950 . S
C113 C110 1.387 . S
C114 C115 1.387 . S
C114 H118 0.950 . S
C114 C123 1.390 . S
C115 C114 1.387 . S
C115 C117 1.387 . S
H116 C123 0.950 . S
C117 C115 1.387 . S
C117 C119 1.390 . S
C117 H121 0.950 . S
H118 C114 0.950 . S
C119 C117 1.390 . S
C119 C120 1.387 . S
C119 H122 0.950 . S
C120 C119 1.387 . S
C120 C123 1.387 . S
H121 C117 0.950 . S
H122 C119 0.950 . S
C123 C114 1.390 . S
C123 H116 0.950 . S
C123 C120 1.387 . S
C124 C125 1.387 . S
C124 H128 0.950 . S
C124 C133 1.390 . S
C125 C124 1.387 . S
C125 C127 1.387 . S
H126 C133 0.950 . S
C127 C125 1.387 . S
C127 C129 1.390 . S
C127 H131 0.950 . S
H128 C124 0.950 . S
C129 C127 1.390 . S
C129 C130 1.387 . S
C129 H132 0.950 . S
C130 C129 1.387 . S
C130 C133 1.387 . S
H131 C127 0.950 . S
H132 C129 0.950 . S
C133 C124 1.390 . S
C133 H126 0.950 . S
C133 C130 1.387 . S
C134 C135 1.387 . S
C134 H138 0.950 . S
C134 C143 1.390 . S
C135 C134 1.387 . S
C135 C137 1.387 . S
H136 C143 0.950 . S
C137 C135 1.387 . S
C137 C139 1.390 . S
C137 H141 0.950 . S
H138 C134 0.950 . S
C139 C137 1.390 . S
C139 C140 1.387 . S
C139 H142 0.950 . S
C140 C139 1.387 . S
C140 C143 1.387 . S
H141 C137 0.950 . S
H142 C139 0.950 . S
C143 C134 1.390 . S
C143 H136 0.950 . S
C143 C140 1.387 . S
C65 C10 1.285 . S
C70 C53 1.297 . S
C75 C0 1.542 . S
C80 C52 1.586 . S
C85 C18 1.554 . S
C90 C58 1.514 . S
C95 C27 1.563 . S
C100 C59 1.530 . S
C105 C24 1.543 . S
C110 C56 1.584 . S
C120 C54 1.514 . S
C115 C11 1.555 . S
C125 C1 1.563 . S
C130 C55 1.533 . S
C140 C57 1.295 . S
C135 C2 1.287 . S
