# Generated by pormake.
# Topology scu, (8,4)-cn, num edge types: 1
# Building blocks:
#     Node 0, Type 0, BuildingBlock: VETTIZ_charged_sbu_0, # of connection points: 8
#     Node 1, Type 1, BuildingBlock: NAWXER_clean_sbu_0, # of connection points: 4
#     Node 2, Type 1, BuildingBlock: NAWXER_clean_sbu_0, # of connection points: 4
#     Edge 3, Type (0, 1), BuildingBlock: CIFDUS_clean_linker_0, # of connection points: 2
#     Edge 4, Type (0, 1), BuildingBlock: CIFDUS_clean_linker_0, # of connection points: 2
#     Edge 5, Type (0, 1), BuildingBlock: CIFDUS_clean_linker_0, # of connection points: 2
#     Edge 6, Type (0, 1), BuildingBlock: CIFDUS_clean_linker_0, # of connection points: 2
#     Edge 7, Type (0, 1), BuildingBlock: CIFDUS_clean_linker_0, # of connection points: 2
#     Edge 8, Type (0, 1), BuildingBlock: CIFDUS_clean_linker_0, # of connection points: 2
#     Edge 9, Type (0, 1), BuildingBlock: CIFDUS_clean_linker_0, # of connection points: 2
#     Edge 10, Type (0, 1), BuildingBlock: CIFDUS_clean_linker_0, # of connection points: 2
# Relax obj value: 0.013
# Max RMSD: 0.059
# Mean RMSD: 0.052
data_MOF--net-scu--node1-VETTIZ_charged_sbu_0--node2-NAWXER_clean_sbu_0--edge1-CIFDUS_clean_linker_0
_symmetry_space_group_name_H-M    P1
_symmetry_Int_Tables_number       1
_symmetry_cell_setting            triclinic
loop_
_symmetry_equiv_pos_as_xyz
'x, y, z'
_cell_length_a     20.376567
_cell_length_b     21.701903
_cell_length_c     18.235042
_cell_angle_alpha  90.493012
_cell_angle_beta   89.753999
_cell_angle_gamma 89.332759
loop_
_atom_site_label
_atom_site_type_symbol
_atom_site_fract_x
_atom_site_fract_y
_atom_site_fract_z
_atom_type_partial_charge
Fe0 Fe 0.05984 0.02024 0.06375 0.0
O1 O 0.05843 0.08047 -0.01848 0.0
Fe2 Fe 0.12846 0.88915 0.97856 0.0
Fe3 Fe 0.99465 0.14862 0.97432 0.0
O4 O 0.0646 0.95748 -0.01718 0.0
O5 O 0.06434 0.95727 0.97537 0.0
O6 O 0.05828 0.08026 0.97415 0.0
Fe7 Fe 0.06285 1.01769 0.89335 0.0
C8 C 0.91984 0.05993 0.0757 0.0
O9 O 1.05323 0.09613 0.1375 0.0
O10 O 1.04749 0.18083 0.06147 0.0
O11 O 0.16325 0.0239 0.89285 0.0
O12 O 0.18828 0.92425 0.89741 0.0
O13 O 0.18878 0.92644 0.05739 0.0
O14 O 0.16069 0.02572 0.06929 0.0
O15 O 0.05505 0.17801 0.89152 0.0
O16 O 0.06333 0.09085 0.81807 0.0
C17 C 0.19989 0.98068 0.08112 0.0
O18 O 0.0656 0.94252 0.81944 0.0
O19 O 0.07062 0.85716 0.89416 0.0
O20 O 0.95902 1.01468 0.06407 0.0
O21 O 0.93187 0.11388 0.05259 0.0
C22 C 1.05291 0.15541 0.12529 0.0
C23 C 0.0709 0.14953 0.83107 0.0
C24 C 0.92355 0.05615 0.87449 0.0
O25 O 0.93699 0.11135 0.89273 0.0
O26 O 0.96236 1.01156 0.88821 0.0
C27 C 0.20216 0.97916 0.87929 0.0
O28 O 0.07376 0.85928 0.06607 0.0
O29 O 0.06252 0.94687 0.13892 0.0
C30 C 0.05757 0.88401 0.83238 0.0
C31 C 0.06367 0.88725 0.12847 0.0
C32 C 0.97699 0.6027 0.57555 0.0
C33 C 0.99017 0.44719 0.38038 0.0
O34 O 1.03551 0.58494 0.55974 0.0
Zn35 Zn 0.08503 0.52196 0.48808 0.0
O36 O 0.92815 0.57861 0.54341 0.0
Zn37 Zn 0.97909 0.52622 0.47656 0.0
O38 O 1.01557 0.45556 0.54487 0.0
O39 O 0.12352 0.46014 0.55331 0.0
O40 O 0.9381 0.47558 0.40104 0.0
O41 O 1.0456 0.46214 0.40744 0.0
O42 O 0.13804 0.57776 0.4301 0.0
O43 O 1.03135 0.59236 0.41534 0.0
C44 C 0.06986 0.43335 0.56841 0.0
C45 C 0.09056 0.60812 0.40227 0.0
C46 C 0.65122 0.97992 0.57552 0.0
C47 C 0.48167 0.96803 0.38467 0.0
O48 O 0.63202 0.9308 0.54391 0.0
Zn49 Zn 0.56723 0.97002 0.47993 0.0
O50 O 0.62667 0.03201 0.55652 0.0
Zn51 Zn 0.55631 0.06916 0.48198 0.0
O52 O 0.49235 0.10744 0.54907 0.0
O53 O 0.4977 1.00607 0.55742 0.0
O54 O 0.49432 0.02285 0.4064 0.0
O55 O 0.51204 0.92266 0.41331 0.0
O56 O 0.62813 1.01737 0.40475 0.0
O57 O 0.6108 0.11749 0.41589 0.0
C58 C 0.47341 0.05788 0.57906 0.0
C59 C 0.64065 0.07241 0.38476 0.0
H60 H 0.95681 0.23837 0.14228 0.0
H61 H 0.13266 0.16952 0.24523 0.0
H62 H 0.12663 0.25423 0.33573 0.0
H63 H 0.0759 0.35172 0.37792 0.0
H64 H 0.89912 0.41958 0.27516 0.0
H65 H 0.90073 0.33068 0.19118 0.0
C66 C 0.99344 0.24172 0.18515 0.0
C67 C 1.0456 0.19868 0.18719 0.0
C68 C 0.98974 0.29038 0.23582 0.0
C69 C 0.09224 0.20233 0.24312 0.0
C70 C 0.08895 0.25089 0.29418 0.0
C71 C 1.03775 0.34719 0.33696 0.0
C72 C 0.98814 0.39279 0.3314 0.0
C73 C 1.03882 0.29592 0.28973 0.0
C74 C 0.93803 0.38542 0.27978 0.0
C75 C 0.93902 0.33469 0.23196 0.0
H76 H 0.84511 0.14982 0.14136 0.0
H77 H 0.86882 0.952 0.12589 0.0
H78 H 0.78374 0.93922 0.21897 0.0
H79 H 0.70653 0.9838 0.30793 0.0
H80 H 0.6839 0.1814 0.32666 0.0
H81 H 0.76519 0.19457 0.22883 0.0
C82 C 0.83112 0.10379 0.15746 0.0
C83 C 0.86332 0.05187 0.1262 0.0
C84 C 0.78293 0.09676 0.21206 0.0
C85 C 0.8449 0.99273 0.14868 0.0
C86 C 0.79639 0.98539 0.20215 0.0
C87 C 0.7191 0.02992 0.29076 0.0
C88 C 0.68921 0.08161 0.32502 0.0
C89 C 0.76579 0.03706 0.23484 0.0
C90 C 0.70619 0.14084 0.30154 0.0
C91 C 0.7526 0.14836 0.24551 0.0
H92 H 0.15569 0.80383 0.16167 0.0
H93 H 0.9715 0.88075 0.23782 0.0
H94 H 0.9664 0.80228 0.33416 0.0
H95 H 1.0099 0.70656 0.38799 0.0
H96 H 0.19551 0.63124 0.31297 0.0
H97 H 0.20531 0.71527 0.22474 0.0
C98 C 0.11477 0.80357 0.19998 0.0
C99 C 0.0634 0.84686 0.19259 0.0
C100 C 0.11252 0.75874 0.25463 0.0
C101 C 1.01123 0.84745 0.24281 0.0
C102 C 1.00831 0.80254 0.29737 0.0
C103 C 1.05272 0.7088 0.35256 0.0
C104 C 0.10143 0.66227 0.35569 0.0
C105 C 0.05789 0.7571 0.30243 0.0
C106 C 0.15736 0.66636 0.31105 0.0
C107 C 0.16275 0.71417 0.26055 0.0
H108 H 0.27676 0.89149 0.14208 0.0
H109 H 0.24821 0.089 0.13611 0.0
H110 H 0.33356 0.10182 0.22849 0.0
H111 H 0.41278 0.05707 0.31393 0.0
H112 H 0.43982 0.85961 0.32253 0.0
H113 H 0.35793 0.84678 0.22591 0.0
C114 C 0.28962 0.93752 0.16014 0.0
C115 C 0.25606 0.98929 0.13169 0.0
C116 C 0.33793 0.94452 0.21422 0.0
C117 C 0.27318 0.04837 0.15668 0.0
C118 C 0.32185 0.05573 0.20976 0.0
C119 C 0.401 1.01108 0.29479 0.0
C120 C 0.4324 0.95929 0.32583 0.0
C121 C 0.35391 1.0041 0.23948 0.0
C122 C 0.41639 0.90022 0.29991 0.0
C123 C 0.36964 0.8929 0.24456 0.0
H124 H 0.9815 0.78313 0.84386 0.0
H125 H 0.0827 0.89495 0.686 0.0
H126 H 0.05867 0.81977 0.58923 0.0
H127 H 1.0212 0.71633 0.55376 0.0
H128 H 0.91864 0.605 0.71037 0.0
H129 H 0.92997 0.68635 0.80386 0.0
C130 C 0.99763 0.79129 0.78804 0.0
C131 C 1.03493 0.84377 0.77214 0.0
C132 C 0.98343 0.74803 0.73289 0.0
C133 C 0.05428 0.85469 0.6995 0.0
C134 C 1.04077 0.81164 0.64432 0.0
C135 C 0.99989 0.71084 0.60795 0.0
C136 C 0.96915 0.65533 0.62585 0.0
C137 C 1.00712 0.75739 0.66094 0.0
C138 C 0.94183 0.64788 0.69576 0.0
C139 C 0.94892 0.69405 0.74912 0.0
H140 H 0.23456 0.08211 0.80106 0.0
H141 H 0.30344 0.89888 0.85459 0.0
H142 H 0.39482 0.90928 0.76957 0.0
H143 H 0.45091 0.96649 0.67454 0.0
H144 H 0.38423 0.14925 0.61778 0.0
H145 H 0.29652 0.1431 0.71018 0.0
C146 C 0.27005 0.04477 0.79486 0.0
C147 C 0.26161 0.98949 0.83391 0.0
C148 C 0.32257 0.05074 0.74496 0.0
C149 C 0.30818 0.94167 0.82498 0.0
C150 C 0.36055 0.94751 0.77625 0.0
C151 C 0.4174 1.00523 0.68235 0.0
C152 C 0.42361 0.05796 0.63863 0.0
C153 C 0.3674 1.0012 0.73496 0.0
C154 C 0.38041 0.10805 0.65054 0.0
C155 C 0.33018 0.10443 0.70321 0.0
H156 H 1.0013 0.18055 0.71329 0.0
H157 H 0.1851 0.21165 0.82179 0.0
H158 H 0.20547 0.30136 0.74427 0.0
H159 H 0.16249 0.37929 0.65743 0.0
H160 H 0.97314 0.35002 0.55818 0.0
H161 H 0.96327 0.25219 0.61993 0.0
C162 C 1.04681 0.20581 0.71778 0.0
C163 C 0.09215 0.1896 0.77169 0.0
C164 C 0.05622 0.25893 0.6761 0.0
C165 C 0.15015 0.22331 0.77934 0.0
C166 C 0.16131 0.27493 0.73579 0.0
C167 C 0.11947 0.35117 0.64912 0.0
C168 C 0.06809 0.37277 0.60473 0.0
C169 C 0.11333 0.29472 0.686 0.0
C170 C 1.01279 0.33547 0.59369 0.0
C171 C 1.00715 0.27906 0.62847 0.0
H172 H 0.89285 0.95432 0.79109 0.0
H173 H 0.82014 0.13447 0.85671 0.0
H174 H 0.72819 0.12443 0.77321 0.0
H175 H 0.67255 0.06884 0.67602 0.0
H176 H 0.74255 0.88911 0.60707 0.0
H177 H 0.83106 0.89443 0.69794 0.0
C178 C 0.85638 0.99098 0.78784 0.0
C179 C 0.86396 0.04541 0.82981 0.0
C180 C 0.80342 0.98526 0.73875 0.0
C181 C 0.81615 0.0924 0.8247 0.0
C182 C 0.76342 0.08677 0.77687 0.0
C183 C 0.70697 0.03057 0.68084 0.0
C184 C 0.70147 0.979 0.63413 0.0
C185 C 0.75738 0.03412 0.73262 0.0
C186 C 0.74582 0.92944 0.6422 0.0
C187 C 0.79651 0.93259 0.694 0.0
loop_
_geom_bond_atom_site_label_1
_geom_bond_atom_site_label_2
_geom_bond_distance
_geom_bond_site_symmetry_2
_ccdc_geom_bond_type
Fe0 O1 1.895 . S
Fe0 O4 1.706 1_645 S
Fe0 O9 2.077 1_655 S
Fe0 O14 1.918 1_655 S
Fe0 O20 2.094 1_545 S
Fe0 O29 1.938 1_545 S
O1 Fe0 1.895 . S
O1 Fe3 1.715 1_554 S
Fe2 O4 1.886 . S
Fe2 O5 1.715 1_554 S
Fe2 O12 1.935 1_554 S
Fe2 O13 2.077 . S
Fe2 O19 1.935 1_554 S
Fe2 O28 2.077 . S
Fe3 O1 1.715 1_556 S
Fe3 O6 1.886 . S
Fe3 O10 1.935 1_556 S
Fe3 O15 2.077 . S
Fe3 O21 1.935 1_556 S
Fe3 O25 2.077 . S
O4 Fe0 1.706 1_465 S
O4 Fe2 1.886 . S
O5 Fe2 1.715 1_556 S
O5 Fe7 1.895 . S
O6 Fe3 1.886 . S
O6 Fe7 1.706 1_645 S
Fe7 O5 1.895 . S
Fe7 O6 1.706 1_465 S
Fe7 O11 2.077 1_565 S
Fe7 O16 1.918 1_565 S
Fe7 O18 2.094 1_455 S
Fe7 O26 1.938 1_455 S
C8 O20 1.381 1_545 S
C8 O21 1.421 . S
O9 Fe0 2.077 1_455 S
O9 C22 1.381 1_455 S
O10 Fe3 1.935 1_554 S
O10 C22 1.421 . S
O11 Fe7 2.077 1_545 S
O11 C27 1.381 1_545 S
O12 Fe2 1.935 1_556 S
O12 C27 1.421 . S
O13 Fe2 2.077 . S
O13 C17 1.381 . S
O14 Fe0 1.918 1_455 S
O14 C17 1.421 1_545 S
O15 Fe3 2.077 . S
O15 C23 1.381 . S
O16 Fe7 1.918 1_545 S
O16 C23 1.421 1_455 S
C17 O13 1.381 . S
C17 O14 1.421 1_565 S
O18 Fe7 2.094 1_655 S
O18 C30 1.381 1_655 S
O19 Fe2 1.935 1_556 S
O19 C30 1.421 . S
O20 Fe0 2.094 1_565 S
O20 C8 1.381 1_565 S
O21 Fe3 1.935 1_554 S
O21 C8 1.421 . S
C22 O9 1.381 1_655 S
C22 O10 1.421 . S
C23 O15 1.381 . S
C23 O16 1.421 1_655 S
C24 O25 1.381 . S
C24 O26 1.421 1_545 S
O25 Fe3 2.077 . S
O25 C24 1.381 . S
O26 Fe7 1.938 1_655 S
O26 C24 1.421 1_565 S
C27 O11 1.381 1_565 S
C27 O12 1.421 . S
O28 Fe2 2.077 . S
O28 C31 1.381 . S
O29 Fe0 1.938 1_565 S
O29 C31 1.421 1_655 S
C30 O18 1.381 1_455 S
C30 O19 1.421 . S
C31 O28 1.381 . S
C31 O29 1.421 1_455 S
C32 O34 1.251 . S
C32 O36 1.254 1_455 S
C33 O40 1.247 . S
C33 O41 1.258 1_655 S
O34 C32 1.251 . S
O34 Zn35 2.028 . S
Zn35 O34 2.028 . S
Zn35 O39 2.035 . S
Zn35 O41 2.035 . S
Zn35 O42 2.028 . S
O36 C32 1.254 1_655 S
O36 Zn37 2.035 . S
Zn37 O36 2.035 . S
Zn37 O38 2.028 . S
Zn37 O40 2.028 . S
Zn37 O43 2.035 . S
O38 Zn37 2.028 . S
O38 C44 1.247 . S
O39 Zn35 2.035 . S
O39 C44 1.258 1_455 S
O40 C33 1.247 . S
O40 Zn37 2.028 . S
O41 C33 1.258 1_455 S
O41 Zn35 2.035 . S
O42 Zn35 2.028 . S
O42 C45 1.251 . S
O43 Zn37 2.035 . S
O43 C45 1.254 1_655 S
C44 O38 1.247 . S
C44 O39 1.258 1_655 S
C45 O42 1.251 . S
C45 O43 1.254 1_455 S
C46 O48 1.247 . S
C46 O50 1.258 1_565 S
C47 O54 1.251 . S
C47 O55 1.254 1_545 S
O48 C46 1.247 . S
O48 Zn49 2.028 . S
Zn49 O48 2.028 . S
Zn49 O53 2.035 . S
Zn49 O55 2.035 . S
Zn49 O56 2.028 . S
O50 C46 1.258 1_545 S
O50 Zn51 2.035 . S
Zn51 O50 2.035 . S
Zn51 O52 2.028 . S
Zn51 O54 2.028 . S
Zn51 O57 2.035 . S
O52 Zn51 2.028 . S
O52 C58 1.251 . S
O53 Zn49 2.035 . S
O53 C58 1.254 1_565 S
O54 C47 1.251 . S
O54 Zn51 2.028 . S
O55 C47 1.254 1_565 S
O55 Zn49 2.035 . S
O56 Zn49 2.028 . S
O56 C59 1.247 . S
O57 Zn51 2.035 . S
O57 C59 1.258 1_545 S
C58 O52 1.251 . S
C58 O53 1.254 1_545 S
C59 O56 1.247 . S
C59 O57 1.258 1_565 S
H60 C66 0.930 . S
H61 C69 0.930 . S
H62 C70 0.930 . S
H63 C71 0.930 . S
H64 C74 0.930 . S
H65 C75 0.930 . S
C66 H60 0.930 . S
C66 C67 1.352 1_655 S
C66 C68 1.415 . S
C67 C66 1.352 1_455 S
C67 C69 1.423 . S
C68 C66 1.415 . S
C68 C73 1.425 1_655 S
C68 C75 1.409 . S
C69 H61 0.930 . S
C69 C67 1.423 . S
C69 C70 1.362 . S
C70 H62 0.930 . S
C70 C69 1.362 . S
C70 C73 1.409 . S
C71 H63 0.930 . S
C71 C72 1.354 1_455 S
C71 C73 1.415 . S
C72 C71 1.354 1_655 S
C72 C74 1.420 . S
C73 C68 1.425 1_455 S
C73 C70 1.409 . S
C73 C71 1.415 . S
C74 H64 0.930 . S
C74 C72 1.420 . S
C74 C75 1.362 . S
C75 H65 0.930 . S
C75 C68 1.409 . S
C75 C74 1.362 . S
H76 C82 0.930 . S
H77 C85 0.930 . S
H78 C86 0.930 . S
H79 C87 0.930 . S
H80 C90 0.930 . S
H81 C91 0.930 . S
C82 H76 0.930 . S
C82 C83 1.355 . S
C82 C84 1.415 . S
C83 C82 1.355 . S
C83 C85 1.420 . S
C84 C82 1.415 . S
C84 C89 1.425 1_545 S
C84 C91 1.409 1_545 S
C85 H77 0.930 . S
C85 C83 1.420 . S
C85 C86 1.362 . S
C86 H78 0.930 . S
C86 C85 1.362 . S
C86 C89 1.409 1_545 S
C87 H79 0.930 . S
C87 C88 1.355 . S
C87 C89 1.415 . S
C88 C87 1.355 . S
C88 C90 1.420 . S
C89 C84 1.425 1_565 S
C89 C86 1.409 1_565 S
C89 C87 1.415 . S
C90 H80 0.930 . S
C90 C88 1.420 . S
C90 C91 1.362 . S
C91 H81 0.930 . S
C91 C84 1.409 1_565 S
C91 C90 1.362 . S
H92 C98 0.930 . S
H93 C101 0.930 . S
H94 C102 0.930 . S
H95 C103 0.930 . S
H96 C106 0.930 . S
H97 C107 0.930 . S
C98 H92 0.930 . S
C98 C99 1.355 1_455 S
C98 C100 1.415 . S
C99 C98 1.355 1_655 S
C99 C101 1.419 . S
C100 C98 1.415 . S
C100 C105 1.425 1_455 S
C100 C107 1.409 . S
C101 H93 0.930 . S
C101 C99 1.419 . S
C101 C102 1.362 . S
C102 H94 0.930 . S
C102 C101 1.362 . S
C102 C105 1.409 . S
C103 H95 0.930 . S
C103 C104 1.355 1_655 S
C103 C105 1.415 . S
C104 C103 1.355 1_455 S
C104 C106 1.419 . S
C105 C100 1.425 1_655 S
C105 C102 1.409 . S
C105 C103 1.415 . S
C106 H96 0.930 . S
C106 C104 1.419 . S
C106 C107 1.362 . S
C107 H97 0.930 . S
C107 C100 1.409 . S
C107 C106 1.362 . S
H108 C114 0.930 . S
H109 C117 0.930 . S
H110 C118 0.930 . S
H111 C119 0.930 . S
H112 C122 0.930 . S
H113 C123 0.930 . S
C114 H108 0.930 . S
C114 C115 1.355 1_545 S
C114 C116 1.415 . S
C115 C114 1.355 1_565 S
C115 C117 1.419 . S
C116 C114 1.415 . S
C116 C121 1.425 1_545 S
C116 C123 1.409 . S
C117 H109 0.930 . S
C117 C115 1.419 . S
C117 C118 1.362 . S
C118 H110 0.930 . S
C118 C117 1.362 . S
C118 C121 1.409 . S
C119 H111 0.930 . S
C119 C120 1.355 1_565 S
C119 C121 1.415 . S
C120 C119 1.355 1_545 S
C120 C122 1.419 . S
C121 C116 1.425 1_565 S
C121 C118 1.409 . S
C121 C119 1.415 . S
C122 H112 0.930 . S
C122 C120 1.419 . S
C122 C123 1.362 . S
C123 H113 0.930 . S
C123 C116 1.409 . S
C123 C122 1.362 . S
H124 C130 0.930 . S
H125 C133 0.930 . S
H126 C134 0.930 . S
H127 C135 0.930 . S
H128 C138 0.930 . S
H129 C139 0.930 . S
C130 H124 0.930 . S
C130 C131 1.355 1_455 S
C130 C132 1.415 . S
C131 C130 1.355 1_655 S
C131 C133 1.419 . S
C132 C130 1.415 . S
C132 C137 1.425 1_455 S
C132 C139 1.409 . S
C133 H125 0.930 . S
C133 C131 1.419 . S
C133 C134 1.362 . S
C134 H126 0.930 . S
C134 C133 1.362 . S
C134 C137 1.409 . S
C135 H127 0.930 . S
C135 C136 1.355 1_655 S
C135 C137 1.415 . S
C136 C135 1.355 1_455 S
C136 C138 1.419 . S
C137 C132 1.425 1_655 S
C137 C134 1.409 . S
C137 C135 1.415 . S
C138 H128 0.930 . S
C138 C136 1.419 . S
C138 C139 1.362 . S
C139 H129 0.930 . S
C139 C132 1.409 . S
C139 C138 1.362 . S
H140 C146 0.930 . S
H141 C149 0.930 . S
H142 C150 0.930 . S
H143 C151 0.930 . S
H144 C154 0.930 . S
H145 C155 0.930 . S
C146 H140 0.930 . S
C146 C147 1.355 . S
C146 C148 1.415 . S
C147 C146 1.355 . S
C147 C149 1.419 1_565 S
C148 C146 1.415 . S
C148 C153 1.425 1_565 S
C148 C155 1.409 . S
C149 H141 0.930 . S
C149 C147 1.419 1_545 S
C149 C150 1.362 . S
C150 H142 0.930 . S
C150 C149 1.362 . S
C150 C153 1.409 . S
C151 H143 0.930 . S
C151 C152 1.355 . S
C151 C153 1.415 . S
C152 C151 1.355 . S
C152 C154 1.419 1_545 S
C153 C148 1.425 1_545 S
C153 C150 1.409 . S
C153 C151 1.415 . S
C154 H144 0.930 . S
C154 C152 1.419 1_565 S
C154 C155 1.362 . S
C155 H145 0.930 . S
C155 C148 1.409 . S
C155 C154 1.362 . S
H156 C162 0.930 . S
H157 C165 0.930 . S
H158 C166 0.930 . S
H159 C167 0.930 . S
H160 C170 0.930 . S
H161 C171 0.930 . S
C162 H156 0.930 . S
C162 C163 1.355 1_655 S
C162 C164 1.415 . S
C163 C162 1.355 1_455 S
C163 C165 1.419 . S
C164 C162 1.415 . S
C164 C169 1.425 1_655 S
C164 C171 1.409 . S
C165 H157 0.930 . S
C165 C163 1.419 . S
C165 C166 1.362 . S
C166 H158 0.930 . S
C166 C165 1.362 . S
C166 C169 1.409 . S
C167 H159 0.930 . S
C167 C168 1.355 1_455 S
C167 C169 1.415 . S
C168 C167 1.355 1_655 S
C168 C170 1.419 . S
C169 C164 1.425 1_455 S
C169 C166 1.409 . S
C169 C167 1.415 . S
C170 H160 0.930 . S
C170 C168 1.419 . S
C170 C171 1.362 . S
C171 H161 0.930 . S
C171 C164 1.409 . S
C171 C170 1.362 . S
H172 C178 0.930 . S
H173 C181 0.930 . S
H174 C182 0.930 . S
H175 C183 0.930 . S
H176 C186 0.930 . S
H177 C187 0.930 . S
C178 H172 0.930 . S
C178 C179 1.355 1_565 S
C178 C180 1.415 . S
C179 C178 1.355 1_545 S
C179 C181 1.419 . S
C180 C178 1.415 . S
C180 C185 1.425 1_565 S
C180 C187 1.409 . S
C181 H173 0.930 . S
C181 C179 1.419 . S
C181 C182 1.362 . S
C182 H174 0.930 . S
C182 C181 1.362 . S
C182 C185 1.409 . S
C183 H175 0.930 . S
C183 C184 1.355 1_545 S
C183 C185 1.415 . S
C184 C183 1.355 1_565 S
C184 C186 1.419 . S
C185 C180 1.425 1_545 S
C185 C182 1.409 . S
C185 C183 1.415 . S
C186 H176 0.930 . S
C186 C184 1.419 . S
C186 C187 1.362 . S
C187 H177 0.930 . S
C187 C180 1.409 . S
C187 C186 1.362 . S
C67 C22 1.421 1_455 S
C72 C33 1.458 . S
C83 C8 1.384 . S
C88 C59 1.456 . S
C99 C31 1.410 1_655 S
C104 C45 1.457 . S
C115 C17 1.369 . S
C120 C47 1.454 . S
C131 C30 1.436 1_655 S
C136 C32 1.462 . S
C147 C27 1.412 . S
C152 C58 1.460 . S
C168 C44 1.460 . S
C163 C23 1.440 1_455 S
C179 C24 1.370 . S
C184 C46 1.459 . S
