# Generated by pormake.
# Topology pts, (4,4)-cn, num edge types: 1
# Building blocks:
#     Node 0, Type 0, BuildingBlock: NAWXER_clean_sbu_0, # of connection points: 4
#     Node 1, Type 0, BuildingBlock: NAWXER_clean_sbu_0, # of connection points: 4
#     Node 2, Type 1, BuildingBlock: QUQFOY_clean_sbu_1, # of connection points: 4
#     Node 3, Type 1, BuildingBlock: QUQFOY_clean_sbu_1, # of connection points: 4
#     Edge 4, Type (0, 1), BuildingBlock: CIFDUS_clean_linker_0, # of connection points: 2
#     Edge 5, Type (0, 1), BuildingBlock: CIFDUS_clean_linker_0, # of connection points: 2
#     Edge 6, Type (0, 1), BuildingBlock: CIFDUS_clean_linker_0, # of connection points: 2
#     Edge 7, Type (0, 1), BuildingBlock: CIFDUS_clean_linker_0, # of connection points: 2
#     Edge 8, Type (0, 1), BuildingBlock: CIFDUS_clean_linker_0, # of connection points: 2
#     Edge 9, Type (0, 1), BuildingBlock: CIFDUS_clean_linker_0, # of connection points: 2
#     Edge 10, Type (0, 1), BuildingBlock: CIFDUS_clean_linker_0, # of connection points: 2
#     Edge 11, Type (0, 1), BuildingBlock: CIFDUS_clean_linker_0, # of connection points: 2
# Relax obj value: 0.106
# Max RMSD: 0.242
# Mean RMSD: 0.140
data_MOF--net-pts--node1-NAWXER_clean_sbu_0--node2-QUQFOY_clean_sbu_1--edge1-CIFDUS_clean_linker_0
_symmetry_space_group_name_H-M    P1
_symmetry_Int_Tables_number       1
_symmetry_cell_setting            triclinic
loop_
_symmetry_equiv_pos_as_xyz
'x, y, z'
_cell_length_a     19.705628
_cell_length_b     20.796107
_cell_length_c     34.279214
_cell_angle_alpha  90.715176
_cell_angle_beta   89.573728
_cell_angle_gamma 89.493247
loop_
_atom_site_label
_atom_site_type_symbol
_atom_site_fract_x
_atom_site_fract_y
_atom_site_fract_z
_atom_type_partial_charge
C0 C 0.3871 0.97355 0.9674 0.0
C1 C 0.56135 0.99784 0.06804 0.0
O2 O 0.41037 0.92736 0.9876 0.0
Zn3 Zn 0.47472 0.97909 0.01798 0.0
O4 O 0.40822 0.03073 0.9735 0.0
Zn5 Zn 0.4761 0.08355 1.00824 0.0
O6 O 0.53932 0.11552 0.96854 0.0
O7 O 0.54167 1.00982 0.97397 0.0
O8 O 0.54214 0.04986 0.05175 0.0
O9 O 0.53725 0.9441 0.05673 0.0
O10 O 0.40901 0.03489 0.05378 0.0
O11 O 0.41348 0.13809 0.03932 0.0
C12 C 0.56228 0.0608 0.95728 0.0
C13 C 0.3896 0.09298 0.06005 0.0
C14 C 0.93325 0.61282 0.4635 0.0
C15 C 0.93395 0.44258 0.56108 0.0
O16 O 0.88088 0.58987 0.48003 0.0
Zn17 Zn 0.92905 0.52833 0.51315 0.0
O18 O -0.00786 0.59198 0.47271 0.0
Zn19 Zn 0.03881 0.52602 0.51056 0.0
O20 O 0.08461 0.46945 0.47313 0.0
O21 O 0.97271 0.46041 0.47245 0.0
O22 O -0.00679 0.45841 0.54912 0.0
O23 O 0.88161 0.47211 0.54874 0.0
O24 O 0.97757 0.59066 0.55314 0.0
O25 O 0.08869 0.58407 0.54537 0.0
C26 C 0.03149 0.44269 0.45991 0.0
C27 C 0.03713 0.60851 0.56276 0.0
O28 O 0.91771 0.95917 0.22016 0.0
Cd29 Cd -0.00166 0.96329 0.25797 0.0
Cd30 Cd 0.97112 0.09018 0.25337 0.0
O31 O 0.88301 0.05985 0.22685 0.0
O32 O 0.01636 0.87124 0.26944 0.0
O33 O 0.97892 0.94066 0.31419 0.0
C34 C -0.0037 0.88251 0.3047 0.0
C35 C 0.97266 0.15819 0.30749 0.0
C36 C 0.87448 1.00319 0.21336 0.0
C37 C 0.10254 0.04654 0.21945 0.0
O38 O 0.05786 0.09078 0.21979 0.0
O39 O 0.09106 0.99373 0.23651 0.0
O40 O 0.96253 0.1803 0.273 0.0
O41 O 0.97865 0.0967 0.31164 0.0
O42 O 0.91182 0.09802 0.7976 0.0
Cd43 Cd -0.00311 0.09114 0.76284 0.0
Cd44 Cd 0.97563 0.9634 0.77164 0.0
O45 O 0.8843 0.99574 0.79527 0.0
O46 O 0.00258 0.1804 0.74299 0.0
O47 O -0.01163 0.09538 0.70438 0.0
C48 C -0.00735 0.15703 0.70856 0.0
C49 C 0.97869 0.87913 0.7261 0.0
C50 C 0.87099 0.05336 0.80585 0.0
C51 C 0.10096 1.01709 0.80762 0.0
O52 O 0.06024 0.97013 0.80623 0.0
O53 O 0.08752 0.06888 0.78969 0.0
O54 O 0.96294 0.86968 0.76212 0.0
O55 O -0.00899 0.93723 0.71536 0.0
H56 H 0.3736 1.02102 0.12346 0.0
H57 H 0.29301 0.18949 0.06748 0.0
H58 H 0.19894 0.19368 0.11504 0.0
H59 H 0.13374 0.14134 0.16783 0.0
H60 H 0.21491 0.96971 0.22064 0.0
H61 H 0.31495 0.97489 0.17878 0.0
C62 C 0.33577 0.05913 0.12179 0.0
C63 C 0.33945 0.10431 0.09169 0.0
C64 C 0.28172 0.06015 0.1484 0.0
C65 C 0.29106 0.15413 0.09038 0.0
C66 C 0.23713 0.15614 0.11737 0.0
C67 C 0.17374 0.10556 0.17052 0.0
C68 C 0.16636 0.05467 0.19705 0.0
C69 C 0.23095 0.10819 0.1458 0.0
C70 C 0.21879 1.00889 0.20023 0.0
C71 C 0.2761 1.01182 0.17632 0.0
H72 H -2e-05 0.32878 0.55865 0.0
H73 H 0.85698 0.44088 0.62738 0.0
H74 H 0.86233 0.36119 0.67949 0.0
H75 H 0.91436 0.26356 0.70704 0.0
H76 H 0.04974 0.1468 0.63612 0.0
H77 H 0.04092 0.22432 0.58294 0.0
C78 C 0.96935 0.33511 0.58489 0.0
C79 C 0.92854 0.3905 0.58957 0.0
C80 C 0.97195 0.28872 0.61423 0.0
C81 C 0.88843 0.39829 0.62327 0.0
C82 C 0.89192 0.35307 0.65308 0.0
C83 C 0.94155 0.25514 0.67979 0.0
C84 C -0.01646 0.2005 0.67544 0.0
C85 C 0.93457 0.29882 0.64916 0.0
C86 C 0.0175 0.18891 0.63994 0.0
C87 C 0.0125 0.23317 0.60969 0.0
H88 H 0.65308 0.90774 0.09348 0.0
H89 H 0.57951 0.10125 0.11481 0.0
H90 H 0.66729 0.11877 0.16302 0.0
H91 H 0.76954 0.08274 0.19587 0.0
H92 H 0.84649 0.89039 0.17476 0.0
H93 H 0.75307 0.86894 0.13014 0.0
C94 C 0.6559 0.95327 0.10913 0.0
C95 C 0.6104 1.00326 0.10023 0.0
C96 C 0.70753 0.96364 0.13666 0.0
C97 C 0.61459 0.0622 0.12068 0.0
C98 C 0.66476 0.07239 0.14833 0.0
C99 C 0.7658 0.03596 0.18172 0.0
C100 C 0.81537 0.98862 0.18841 0.0
C101 C 0.71237 1.02404 0.15594 0.0
C102 C 0.80923 0.92802 0.17001 0.0
C103 C 0.75579 0.91563 0.14443 0.0
H104 H 0.95517 0.62626 0.62479 0.0
H105 H 0.13083 0.70525 0.56785 0.0
H106 H 0.12706 0.79832 0.61275 0.0
H107 H 0.06934 0.8595 0.6665 0.0
H108 H 0.89792 0.77502 0.72495 0.0
H109 H 0.90373 0.68207 0.6808 0.0
C110 C -0.0069 0.66357 0.62247 0.0
C111 C 0.043 0.65926 0.59304 0.0
C112 C -0.00942 0.71631 0.64827 0.0
C113 C 0.09227 0.70741 0.59053 0.0
C114 C 0.08965 0.76084 0.61592 0.0
C115 C 0.0332 0.82076 0.66928 0.0
C116 C 0.98256 0.82431 0.69844 0.0
C117 C 0.03822 0.76633 0.64449 0.0
C118 C 0.93696 0.77335 0.70252 0.0
C119 C 0.94037 0.7202 0.67739 0.0
H120 H 0.36305 0.05291 0.90805 0.0
H121 H 0.29659 0.87401 0.95728 0.0
H122 H 0.20381 0.86934 0.90977 0.0
H123 H 0.13686 0.92163 0.85789 0.0
H124 H 0.20438 0.10272 0.81151 0.0
H125 H 0.3018 0.10097 0.85466 0.0
C126 C 0.32849 1.01258 0.90845 0.0
C127 C 0.33598 0.96431 0.93653 0.0
C128 C 0.2753 1.01096 0.88177 0.0
C129 C 0.29169 0.91182 0.93601 0.0
C130 C 0.23854 0.90942 0.90902 0.0
C131 C 0.17323 0.96042 0.85698 0.0
C132 C 0.16285 1.01262 0.83169 0.0
C133 C 0.22905 0.95955 0.88231 0.0
C134 C 0.21063 0.06231 0.83083 0.0
C135 C 0.26645 0.06136 0.85549 0.0
H136 H 0.96465 0.33046 0.46004 0.0
H137 H 0.10632 0.44121 0.39276 0.0
H138 H 0.09983 0.36254 0.33896 0.0
H139 H 0.04837 0.26536 0.30997 0.0
H140 H 0.91516 0.14945 0.37964 0.0
H141 H 0.92351 0.22697 0.43392 0.0
C142 C -0.00535 0.33675 0.4337 0.0
C143 C 0.03556 0.3914 0.42998 0.0
C144 C -0.00845 0.29084 0.40342 0.0
C145 C 0.07485 0.39915 0.39613 0.0
C146 C 0.07071 0.35451 0.36537 0.0
C147 C 0.02138 0.25724 0.33714 0.0
C148 C 0.98025 0.20273 0.34085 0.0
C149 C 0.02832 0.30079 0.36847 0.0
C150 C 0.94667 0.19148 0.37627 0.0
C151 C 0.95145 0.23571 0.40718 0.0
H152 H 0.64425 0.15216 0.92431 0.0
H153 H 0.59153 0.95116 0.91722 0.0
H154 H 0.67864 0.93232 0.86804 0.0
H155 H 0.77478 0.9701 0.83013 0.0
H156 H 0.831 0.17002 0.83676 0.0
H157 H 0.73755 0.19187 0.88238 0.0
C158 C 0.65151 0.10451 0.91167 0.0
C159 C 0.61194 0.05316 0.92491 0.0
C160 C 0.70262 0.09348 0.88332 0.0
C161 C 0.62185 0.99159 0.90811 0.0
C162 C 0.67166 0.98057 0.87982 0.0
C163 C 0.76636 1.01862 0.84122 0.0
C164 C 0.81029 0.06805 0.83025 0.0
C165 C 0.71317 0.03078 0.86774 0.0
C166 C 0.79818 0.13078 0.84484 0.0
C167 C 0.74478 0.1434 0.87104 0.0
H168 H 0.02152 0.63328 0.40527 0.0
H169 H 0.837 0.70891 0.45708 0.0
H170 H 0.84168 0.80187 0.41353 0.0
H171 H 0.90157 0.86313 0.36184 0.0
H172 H 0.08277 0.78182 0.309 0.0
H173 H 0.07689 0.68996 0.3524 0.0
C174 C 0.982 0.66992 0.40693 0.0
C175 C 0.92919 0.66457 0.43443 0.0
C176 C -0.01486 0.72259 0.382 0.0
C177 C 0.87791 0.71187 0.43592 0.0
C178 C 0.88099 0.76521 0.4113 0.0
C179 C 0.93989 0.82542 0.36021 0.0
C180 C -0.00691 0.82941 0.33272 0.0
C181 C 0.93499 0.77152 0.38456 0.0
C182 C 0.04166 0.77978 0.33011 0.0
C183 C 0.03821 0.72722 0.3548 0.0
loop_
_geom_bond_atom_site_label_1
_geom_bond_atom_site_label_2
_geom_bond_distance
_geom_bond_site_symmetry_2
_ccdc_geom_bond_type
C0 O2 1.247 . S
C0 O4 1.258 1_565 S
C1 O8 1.251 . S
C1 O9 1.254 1_545 S
O2 C0 1.247 . S
O2 Zn3 2.028 1_556 S
Zn3 O2 2.028 1_554 S
Zn3 O7 2.035 1_554 S
Zn3 O9 2.035 . S
Zn3 O10 2.028 . S
O4 C0 1.258 1_545 S
O4 Zn5 2.035 1_556 S
Zn5 O4 2.035 1_554 S
Zn5 O6 2.028 1_554 S
Zn5 O8 2.028 . S
Zn5 O11 2.035 . S
O6 Zn5 2.028 1_556 S
O6 C12 1.251 . S
O7 Zn3 2.035 1_556 S
O7 C12 1.254 1_565 S
O8 C1 1.251 . S
O8 Zn5 2.028 . S
O9 C1 1.254 1_565 S
O9 Zn3 2.035 . S
O10 Zn3 2.028 . S
O10 C13 1.247 . S
O11 Zn5 2.035 . S
O11 C13 1.258 1_545 S
C12 O6 1.251 . S
C12 O7 1.254 1_545 S
C13 O10 1.247 . S
C13 O11 1.258 1_565 S
C14 O16 1.248 . S
C14 O18 1.257 1_655 S
C15 O22 1.251 . S
C15 O23 1.254 1_455 S
O16 C14 1.248 . S
O16 Zn17 2.028 . S
Zn17 O16 2.028 . S
Zn17 O21 2.035 . S
Zn17 O23 2.035 . S
Zn17 O24 2.028 . S
O18 C14 1.257 1_455 S
O18 Zn19 2.035 . S
Zn19 O18 2.035 . S
Zn19 O20 2.028 . S
Zn19 O22 2.028 . S
Zn19 O25 2.035 . S
O20 Zn19 2.028 . S
O20 C26 1.251 . S
O21 Zn17 2.035 . S
O21 C26 1.254 1_655 S
O22 C15 1.251 . S
O22 Zn19 2.028 . S
O23 C15 1.254 1_655 S
O23 Zn17 2.035 . S
O24 Zn17 2.028 . S
O24 C27 1.248 . S
O25 Zn19 2.035 . S
O25 C27 1.257 1_455 S
C26 O20 1.251 . S
C26 O21 1.254 1_455 S
C27 O24 1.248 . S
C27 O25 1.257 1_655 S
O28 Cd29 2.223 1_655 S
O28 C36 1.315 . S
Cd29 O28 2.223 1_455 S
Cd29 O32 2.297 1_455 S
Cd29 O33 2.439 1_455 S
Cd29 O39 2.240 1_565 S
Cd30 O31 2.240 1_545 S
Cd30 O38 2.223 1_655 S
Cd30 O40 2.297 1_655 S
Cd30 O41 2.439 1_655 S
O31 Cd30 2.240 1_565 S
O31 C36 1.279 . S
O32 Cd29 2.297 1_655 S
O32 C34 1.247 . S
O33 Cd29 2.439 1_655 S
O33 C34 1.208 . S
C34 O32 1.247 . S
C34 O33 1.208 . S
C35 O40 1.247 . S
C35 O41 1.208 . S
C36 O28 1.315 . S
C36 O31 1.279 . S
C37 O38 1.315 . S
C37 O39 1.279 . S
O38 Cd30 2.223 1_455 S
O38 C37 1.315 . S
O39 Cd29 2.240 1_545 S
O39 C37 1.279 . S
O40 Cd30 2.297 1_455 S
O40 C35 1.247 . S
O41 Cd30 2.439 1_455 S
O41 C35 1.208 . S
O42 Cd43 2.223 1_655 S
O42 C50 1.315 . S
Cd43 O42 2.223 1_455 S
Cd43 O46 2.297 1_455 S
Cd43 O47 2.439 1_455 S
Cd43 O53 2.240 1_545 S
Cd44 O45 2.240 1_565 S
Cd44 O52 2.223 1_655 S
Cd44 O54 2.297 1_655 S
Cd44 O55 2.439 1_655 S
O45 Cd44 2.240 1_545 S
O45 C50 1.279 . S
O46 Cd43 2.297 1_655 S
O46 C48 1.247 . S
O47 Cd43 2.439 1_655 S
O47 C48 1.208 . S
C48 O46 1.247 . S
C48 O47 1.208 . S
C49 O54 1.247 . S
C49 O55 1.208 . S
C50 O42 1.315 . S
C50 O45 1.279 . S
C51 O52 1.315 . S
C51 O53 1.279 . S
O52 Cd44 2.223 1_455 S
O52 C51 1.315 . S
O53 Cd43 2.240 1_565 S
O53 C51 1.279 . S
O54 Cd44 2.297 1_455 S
O54 C49 1.247 . S
O55 Cd44 2.439 1_455 S
O55 C49 1.208 . S
H56 C62 0.930 . S
H57 C65 0.928 1_565 S
H58 C66 0.930 . S
H59 C67 0.930 . S
H60 C70 0.930 . S
H61 C71 0.930 . S
C62 H56 0.930 . S
C62 C63 1.355 . S
C62 C64 1.415 . S
C63 C62 1.355 . S
C63 C65 1.419 . S
C64 C62 1.415 . S
C64 C69 1.425 . S
C64 C71 1.409 . S
C65 H57 0.928 1_545 S
C65 C63 1.419 . S
C65 C66 1.362 . S
C66 H58 0.930 . S
C66 C65 1.362 . S
C66 C69 1.409 . S
C67 H59 0.930 . S
C67 C68 1.355 . S
C67 C69 1.415 . S
C68 C67 1.355 . S
C68 C70 1.419 . S
C69 C64 1.425 . S
C69 C66 1.409 . S
C69 C67 1.415 . S
C70 H60 0.930 . S
C70 C68 1.419 . S
C70 C71 1.362 . S
C71 H61 0.930 . S
C71 C64 1.409 . S
C71 C70 1.362 . S
H72 C78 0.930 1_455 S
H73 C81 0.930 . S
H74 C82 0.930 . S
H75 C83 0.930 . S
H76 C86 0.930 . S
H77 C87 0.930 1_455 S
C78 H72 0.930 1_655 S
C78 C79 1.355 . S
C78 C80 1.415 . S
C79 C78 1.355 . S
C79 C81 1.419 . S
C80 C78 1.415 . S
C80 C85 1.425 . S
C80 C87 1.409 . S
C81 H73 0.930 . S
C81 C79 1.419 . S
C81 C82 1.362 . S
C82 H74 0.930 . S
C82 C81 1.362 . S
C82 C85 1.409 . S
C83 H75 0.930 . S
C83 C84 1.355 . S
C83 C85 1.415 . S
C84 C83 1.355 . S
C84 C86 1.419 . S
C85 C80 1.425 . S
C85 C82 1.409 . S
C85 C83 1.415 . S
C86 H76 0.930 . S
C86 C84 1.419 . S
C86 C87 1.362 . S
C87 H77 0.930 1_655 S
C87 C80 1.409 . S
C87 C86 1.362 . S
H88 C94 0.930 . S
H89 C97 0.930 . S
H90 C98 0.930 . S
H91 C99 0.930 1_545 S
H92 C102 0.930 . S
H93 C103 0.930 . S
C94 H88 0.930 . S
C94 C95 1.355 . S
C94 C96 1.415 . S
C95 C94 1.355 . S
C95 C97 1.419 1_565 S
C96 C94 1.415 . S
C96 C101 1.425 . S
C96 C103 1.409 . S
C97 H89 0.930 . S
C97 C95 1.419 1_545 S
C97 C98 1.362 . S
C98 H90 0.930 . S
C98 C97 1.362 . S
C98 C101 1.409 1_545 S
C99 H91 0.930 1_565 S
C99 C100 1.355 . S
C99 C101 1.415 . S
C100 C99 1.355 . S
C100 C102 1.419 . S
C101 C96 1.425 . S
C101 C98 1.409 1_565 S
C101 C99 1.415 . S
C102 H92 0.930 . S
C102 C100 1.419 . S
C102 C103 1.362 . S
C103 H93 0.930 . S
C103 C96 1.409 . S
C103 C102 1.362 . S
H104 C110 0.930 . S
H105 C113 0.930 . S
H106 C114 0.930 . S
H107 C115 0.930 . S
H108 C118 0.930 . S
H109 C119 0.930 . S
C110 H104 0.930 . S
C110 C111 1.355 . S
C110 C112 1.415 . S
C111 C110 1.355 . S
C111 C113 1.419 1_455 S
C112 C110 1.415 . S
C112 C117 1.425 . S
C112 C119 1.409 . S
C113 H105 0.930 . S
C113 C111 1.419 1_655 S
C113 C114 1.362 1_655 S
C114 H106 0.930 . S
C114 C113 1.362 1_455 S
C114 C117 1.409 . S
C115 H107 0.930 . S
C115 C116 1.355 . S
C115 C117 1.415 . S
C116 C115 1.355 . S
C116 C118 1.419 . S
C117 C112 1.425 . S
C117 C114 1.409 . S
C117 C115 1.415 . S
C118 H108 0.930 . S
C118 C116 1.419 . S
C118 C119 1.362 . S
C119 H109 0.930 . S
C119 C112 1.409 . S
C119 C118 1.362 . S
H120 C126 0.930 . S
H121 C129 0.930 . S
H122 C130 0.930 . S
H123 C131 0.930 . S
H124 C134 0.930 . S
H125 C135 0.930 . S
C126 H120 0.930 . S
C126 C127 1.355 . S
C126 C128 1.415 . S
C127 C126 1.355 . S
C127 C129 1.419 1_565 S
C128 C126 1.415 . S
C128 C133 1.425 . S
C128 C135 1.409 . S
C129 H121 0.930 . S
C129 C127 1.419 1_545 S
C129 C130 1.362 1_545 S
C130 H122 0.930 . S
C130 C129 1.362 1_565 S
C130 C133 1.409 . S
C131 H123 0.930 . S
C131 C132 1.355 . S
C131 C133 1.415 . S
C132 C131 1.355 . S
C132 C134 1.419 . S
C133 C128 1.425 . S
C133 C130 1.409 . S
C133 C131 1.415 . S
C134 H124 0.930 . S
C134 C132 1.419 . S
C134 C135 1.362 . S
C135 H125 0.930 . S
C135 C128 1.409 . S
C135 C134 1.362 . S
H136 C142 0.930 . S
H137 C145 0.930 . S
H138 C146 0.930 . S
H139 C147 0.930 1_655 S
H140 C150 0.930 . S
H141 C151 0.930 . S
C142 H136 0.930 . S
C142 C143 1.355 . S
C142 C144 1.415 . S
C143 C142 1.355 . S
C143 C145 1.419 1_455 S
C144 C142 1.415 . S
C144 C149 1.425 . S
C144 C151 1.409 . S
C145 H137 0.930 . S
C145 C143 1.419 1_655 S
C145 C146 1.362 . S
C146 H138 0.930 . S
C146 C145 1.362 . S
C146 C149 1.409 1_655 S
C147 H139 0.930 1_455 S
C147 C148 1.355 . S
C147 C149 1.415 . S
C148 C147 1.355 . S
C148 C150 1.419 . S
C149 C144 1.425 . S
C149 C146 1.409 1_455 S
C149 C147 1.415 . S
C150 H140 0.930 . S
C150 C148 1.419 . S
C150 C151 1.362 . S
C151 H141 0.930 . S
C151 C144 1.409 . S
C151 C150 1.362 . S
H152 C158 0.930 . S
H153 C161 0.930 . S
H154 C162 0.930 . S
H155 C163 0.930 . S
H156 C166 0.930 . S
H157 C167 0.930 . S
C158 H152 0.930 . S
C158 C159 1.355 1_545 S
C158 C160 1.415 . S
C159 C158 1.355 1_565 S
C159 C161 1.419 . S
C160 C158 1.415 . S
C160 C165 1.425 1_545 S
C160 C167 1.409 . S
C161 H153 0.930 . S
C161 C159 1.419 . S
C161 C162 1.362 . S
C162 H154 0.930 . S
C162 C161 1.362 . S
C162 C165 1.409 . S
C163 H155 0.930 . S
C163 C164 1.355 1_565 S
C163 C165 1.415 . S
C164 C163 1.355 1_545 S
C164 C166 1.419 . S
C165 C160 1.425 1_565 S
C165 C162 1.409 . S
C165 C163 1.415 . S
C166 H156 0.930 . S
C166 C164 1.419 . S
C166 C167 1.362 . S
C167 H157 0.930 . S
C167 C160 1.409 . S
C167 C166 1.362 . S
H168 C174 0.930 . S
H169 C177 0.930 . S
H170 C178 0.930 . S
H171 C179 0.930 . S
H172 C182 0.930 . S
H173 C183 0.930 . S
C174 H168 0.930 . S
C174 C175 1.355 1_455 S
C174 C176 1.415 . S
C175 C174 1.355 1_655 S
C175 C177 1.419 . S
C176 C174 1.415 . S
C176 C181 1.425 1_455 S
C176 C183 1.409 . S
C177 H169 0.930 . S
C177 C175 1.419 . S
C177 C178 1.362 . S
C178 H170 0.930 . S
C178 C177 1.362 . S
C178 C181 1.409 . S
C179 H171 0.930 . S
C179 C180 1.355 . S
C179 C181 1.415 . S
C180 C179 1.355 . S
C180 C182 1.419 1_655 S
C181 C176 1.425 1_655 S
C181 C178 1.409 . S
C181 C179 1.415 . S
C182 H172 0.930 . S
C182 C180 1.419 1_455 S
C182 C183 1.362 . S
C183 H173 0.930 . S
C183 C176 1.409 . S
C183 C182 1.362 . S
C68 C37 1.558 . S
C63 C13 1.540 1_545 S
C84 C48 1.498 . S
C79 C15 1.556 1_655 S
C100 C36 1.558 . S
C95 C1 1.544 1_565 S
C116 C49 1.503 . S
C111 C27 1.576 1_455 S
C132 C51 1.551 . S
C127 C0 1.560 . S
C148 C35 1.528 . S
C143 C26 1.563 . S
C164 C50 1.553 . S
C159 C12 1.563 1_565 S
C175 C14 1.558 . S
C180 C34 1.467 . S
