# Generated by pormake.
# Topology scu, (8,4)-cn, num edge types: 1
# Building blocks:
#     Node 0, Type 0, BuildingBlock: VETTIZ_charged_sbu_0, # of connection points: 8
#     Node 1, Type 1, BuildingBlock: KOZSID_clean_sbu_0, # of connection points: 4
#     Node 2, Type 1, BuildingBlock: KOZSID_clean_sbu_0, # of connection points: 4
#     Edge 3, Type (0, 1), None
#     Edge 4, Type (0, 1), None
#     Edge 5, Type (0, 1), None
#     Edge 6, Type (0, 1), None
#     Edge 7, Type (0, 1), None
#     Edge 8, Type (0, 1), None
#     Edge 9, Type (0, 1), None
#     Edge 10, Type (0, 1), None
# Relax obj value: 0.006
# Max RMSD: 0.052
# Mean RMSD: 0.024
data_MOF--net-scu--node1-VETTIZ_charged_sbu_0--node2-KOZSID_clean_sbu_0--edge1-none
_symmetry_space_group_name_H-M    P1
_symmetry_Int_Tables_number       1
_symmetry_cell_setting            triclinic
loop_
_symmetry_equiv_pos_as_xyz
'x, y, z'
_cell_length_a     15.093628
_cell_length_b     15.093676
_cell_length_c     10.471403
_cell_angle_alpha  83.992576
_cell_angle_beta   83.989843
_cell_angle_gamma 92.769492
loop_
_atom_site_label
_atom_site_type_symbol
_atom_site_fract_x
_atom_site_fract_y
_atom_site_fract_z
_atom_type_partial_charge
Fe0 Fe 0.95183 0.95207 0.32204 0.0
O1 O 0.96063 0.96696 0.13202 0.0
Fe2 Fe 0.08183 0.94024 0.02931 0.0
Fe3 Fe 0.94 0.08206 0.02931 0.0
O4 O 0.96672 0.96087 0.13202 0.0
O5 O 0.0612 0.05533 0.92661 0.0
O6 O 0.0551 0.06142 0.9266 0.0
Fe7 Fe 0.07 0.07022 0.73658 0.0
C8 C 0.77844 0.02386 0.23919 0.0
O9 O 0.95271 0.0877 0.33958 0.0
O10 O 1.00916 0.1549 0.14676 0.0
O11 O 0.20346 0.06113 0.75746 0.0
O12 O 0.20346 0.93746 0.9076 0.0
O13 O 0.15467 1.00938 0.14678 0.0
O14 O 0.08745 0.95294 0.3396 0.0
O15 O 0.93722 0.20369 0.9076 0.0
O16 O 0.06089 0.20368 0.75746 0.0
C17 C 0.15527 0.98979 0.26762 0.0
O18 O 0.06913 0.9346 0.71903 0.0
O19 O 0.01268 0.86739 0.91185 0.0
O20 O 0.81837 0.96118 0.30115 0.0
O21 O 0.81837 0.08484 0.15101 0.0
C22 C 0.98958 0.1555 0.2676 0.0
C23 C 0.99821 0.24362 0.81942 0.0
C24 C 0.86657 0.03248 0.79101 0.0
O25 O 0.86716 0.0129 0.91185 0.0
O26 O 0.93438 0.06934 0.71903 0.0
C27 C 0.24339 0.99843 0.8194 0.0
O28 O 0.08459 0.81861 0.15103 0.0
O29 O 0.96092 0.81862 0.30117 0.0
C30 C 0.03228 0.86679 0.79102 0.0
C31 C 0.02362 0.77868 0.23923 0.0
C32 C 0.10417 0.63549 0.29955 0.0
C33 C 0.18803 0.66204 0.23597 0.0
C34 C 0.24772 0.61325 0.29845 0.0
C35 C 0.19716 0.55966 0.39585 0.0
N36 N 0.10844 0.56926 0.39677 0.0
Co37 Co 0.01094 0.51114 0.52932 0.0
N38 N 0.09892 0.4541 0.63612 0.0
C39 C 0.18881 0.46423 0.61428 0.0
C40 C 0.23109 0.41515 0.70481 0.0
C41 C 0.16414 0.36818 0.78594 0.0
C42 C 0.08462 0.39125 0.7395 0.0
N43 N 0.91343 0.45302 0.66189 0.0
C44 C 0.91771 0.38688 0.75922 0.0
C45 C 0.83386 0.36042 0.8229 0.0
C46 C 0.77417 0.40921 0.76041 0.0
C47 C 0.82473 0.46272 0.6629 0.0
N48 N 0.92296 0.56814 0.42252 0.0
C49 C 0.83307 0.55795 0.4443 0.0
C50 C 0.79079 0.60701 0.35374 0.0
C51 C 0.85773 0.65403 0.27265 0.0
C52 C 0.93725 0.63101 0.31913 0.0
N53 N 1.00544 0.403 0.43485 0.0
C54 C 0.99626 0.24123 0.32263 0.0
C55 C 0.91905 0.27836 0.37212 0.0
C56 C 0.92496 0.35936 0.42496 0.0
C57 C 0.07825 0.28691 0.32683 0.0
C58 C 0.08144 0.36658 0.38485 0.0
N59 N 0.01643 0.61927 0.6238 0.0
C60 C 0.9436 0.73551 0.73146 0.0
C61 C 0.02561 0.78105 0.736 0.0
C62 C 0.10284 0.74379 0.68684 0.0
C63 C 0.09691 0.66278 0.634 0.0
C64 C 0.94042 0.65583 0.67347 0.0
H65 H 0.15857 0.63759 0.60025 0.0
H66 H 0.87572 0.62601 0.66787 0.0
H67 H 0.86331 0.38445 0.45895 0.0
H68 H 0.14613 0.39651 0.39018 0.0
C69 C 0.23098 0.51149 0.50003 0.0
C70 C 0.02294 0.68015 0.27513 0.0
C71 C 0.99892 0.34216 0.78359 0.0
C72 C 0.79089 0.51077 0.55862 0.0
H73 H 0.20516 0.71362 0.15632 0.0
H74 H 0.31979 0.62044 0.28038 0.0
H75 H 0.30212 0.41047 0.70729 0.0
H76 H 0.17275 0.31839 0.86525 0.0
H77 H 0.81675 0.30889 0.90262 0.0
H78 H 0.70211 0.40207 0.77854 0.0
H79 H 0.71976 0.61167 0.35124 0.0
H80 H 0.84912 0.70382 0.19335 0.0
H81 H 0.85401 0.24534 0.369 0.0
H82 H 0.13966 0.26005 0.28901 0.0
H83 H 0.88218 0.76248 0.76901 0.0
H84 H 0.16789 0.77671 0.69022 0.0
C85 C 0.38658 0.91788 0.75908 0.0
C86 C 0.36003 0.83402 0.82264 0.0
C87 C 0.40881 0.77433 0.76015 0.0
C88 C 0.4624 0.8249 0.66275 0.0
N89 N 0.4528 0.91362 0.66185 0.0
Co90 Co 0.51093 0.01112 0.5293 0.0
N91 N 0.56795 0.92315 0.42248 0.0
C92 C 0.55783 0.83326 0.44431 0.0
C93 C 0.6069 0.79098 0.35376 0.0
C94 C 0.65388 0.85793 0.27263 0.0
C95 C 0.63081 0.93745 0.31909 0.0
N96 N 0.56903 0.10863 0.39674 0.0
C97 C 0.63517 0.10436 0.2994 0.0
C98 C 0.66163 0.18821 0.23572 0.0
C99 C 0.61285 0.24789 0.29823 0.0
C100 C 0.55934 0.19734 0.39574 0.0
N101 N 0.45392 0.0991 0.63613 0.0
C102 C 0.46411 0.18899 0.61436 0.0
C103 C 0.41506 0.23126 0.70494 0.0
C104 C 0.36804 0.16431 0.78602 0.0
C105 C 0.39106 0.0848 0.73952 0.0
N106 N 0.61906 0.01662 0.62376 0.0
C107 C 0.78084 0.0258 0.73598 0.0
C108 C 0.7437 0.10301 0.68649 0.0
C109 C 0.6627 0.09709 0.63366 0.0
C110 C 0.73516 0.94381 0.73177 0.0
C111 C 0.65549 0.94062 0.67375 0.0
N112 N 0.40279 1.00564 0.43483 0.0
C113 C 0.28655 0.07846 0.32718 0.0
C114 C 0.241 0.99646 0.32263 0.0
C115 C 0.27827 0.91923 0.37178 0.0
C116 C 0.35927 0.92515 0.42463 0.0
C117 C 0.36622 0.08165 0.38518 0.0
H118 H 0.38446 0.86349 0.45837 0.0
H119 H 0.39604 0.14635 0.39078 0.0
H120 H 0.63762 0.15875 0.59967 0.0
H121 H 0.62556 0.87593 0.66841 0.0
C122 C 0.51057 0.79108 0.55856 0.0
C123 C 0.34192 0.99912 0.78351 0.0
C124 C 0.67989 0.02315 0.27502 0.0
C125 C 0.51129 0.23117 0.50004 0.0
H126 H 0.30845 0.81689 0.9023 0.0
H127 H 0.40163 0.70227 0.77821 0.0
H128 H 0.61159 0.71995 0.35127 0.0
H129 H 0.70366 0.84933 0.19332 0.0
H130 H 0.71316 0.20532 0.156 0.0
H131 H 0.61999 0.31996 0.28011 0.0
H132 H 0.4104 0.30229 0.70744 0.0
H133 H 0.31826 0.17293 0.86532 0.0
H134 H 0.77673 0.16805 0.68963 0.0
H135 H 0.76202 0.8824 0.76958 0.0
H136 H 0.25957 0.13989 0.28965 0.0
H137 H 0.24535 0.85418 0.36839 0.0
loop_
_geom_bond_atom_site_label_1
_geom_bond_atom_site_label_2
_geom_bond_distance
_geom_bond_site_symmetry_2
_ccdc_geom_bond_type
Fe0 O1 1.886 1_565 S
Fe0 O4 1.715 1_655 S
Fe0 O9 2.077 1_565 S
Fe0 O14 1.935 1_665 S
Fe0 O20 2.077 . S
Fe0 O29 1.935 . S
O1 Fe0 1.886 1_545 S
O1 Fe3 1.715 1_554 S
Fe2 O4 1.886 . S
Fe2 O5 1.715 1_554 S
Fe2 O12 1.935 1_554 S
Fe2 O13 2.077 . S
Fe2 O19 1.935 1_554 S
Fe2 O28 2.077 . S
Fe3 O1 1.715 1_556 S
Fe3 O6 1.886 . S
Fe3 O10 1.935 1_556 S
Fe3 O15 2.077 . S
Fe3 O21 1.935 1_556 S
Fe3 O25 2.077 . S
O4 Fe0 1.715 1_455 S
O4 Fe2 1.886 . S
O5 Fe2 1.715 1_556 S
O5 Fe7 1.886 1_565 S
O6 Fe3 1.886 . S
O6 Fe7 1.715 1_655 S
Fe7 O5 1.886 1_545 S
Fe7 O6 1.715 1_455 S
Fe7 O11 2.077 . S
Fe7 O16 1.935 . S
Fe7 O18 2.077 1_545 S
Fe7 O26 1.935 1_445 S
C8 O20 1.381 1_545 S
C8 O21 1.421 . S
O9 Fe0 2.077 1_545 S
O9 C22 1.381 . S
O10 Fe3 1.935 1_554 S
O10 C22 1.421 . S
O11 Fe7 2.077 . S
O11 C27 1.381 1_545 S
O12 Fe2 1.935 1_556 S
O12 C27 1.421 . S
O13 Fe2 2.077 . S
O13 C17 1.381 . S
O14 Fe0 1.935 1_445 S
O14 C17 1.421 1_545 S
O15 Fe3 2.077 . S
O15 C23 1.381 . S
O16 Fe7 1.935 . S
O16 C23 1.421 1_455 S
C17 O13 1.381 . S
C17 O14 1.421 1_565 S
O18 Fe7 2.077 1_565 S
O18 C30 1.381 . S
O19 Fe2 1.935 1_556 S
O19 C30 1.421 . S
O20 Fe0 2.077 . S
O20 C8 1.381 1_565 S
O21 Fe3 1.935 1_554 S
O21 C8 1.421 . S
C22 O9 1.381 . S
C22 O10 1.421 . S
C23 O15 1.381 . S
C23 O16 1.421 1_655 S
C24 O25 1.381 . S
C24 O26 1.421 1_545 S
O25 Fe3 2.077 . S
O25 C24 1.381 . S
O26 Fe7 1.935 1_665 S
O26 C24 1.421 1_565 S
C27 O11 1.381 1_565 S
C27 O12 1.421 . S
O28 Fe2 2.077 . S
O28 C31 1.381 . S
O29 Fe0 1.935 . S
O29 C31 1.421 1_655 S
C30 O18 1.381 . S
C30 O19 1.421 . S
C31 O28 1.381 . S
C31 O29 1.421 1_455 S
C32 C33 1.443 . S
C32 N36 1.376 . S
C32 C70 1.389 . S
C33 C32 1.443 . S
C33 C34 1.340 . S
C33 H73 0.951 . S
C34 C33 1.340 . S
C34 C35 1.439 . S
C34 H74 0.950 . S
C35 C34 1.439 . S
C35 N36 1.374 . S
C35 C69 1.395 . S
N36 C32 1.376 . S
N36 C35 1.374 . S
N36 Co37 2.012 . S
Co37 N36 2.012 . S
Co37 N38 1.999 . S
Co37 N43 2.004 1_455 S
Co37 N48 1.990 1_455 S
Co37 N53 2.282 . S
Co37 N59 2.283 1_455 S
N38 Co37 1.999 . S
N38 C39 1.376 . S
N38 C42 1.383 . S
C39 N38 1.376 . S
C39 C40 1.446 . S
C39 C69 1.391 . S
C40 C39 1.446 . S
C40 C41 1.339 . S
C40 H75 0.949 . S
C41 C40 1.339 . S
C41 C42 1.439 . S
C41 H76 0.950 . S
C42 N38 1.383 . S
C42 C41 1.439 . S
C42 C71 1.386 1_455 S
N43 Co37 2.004 1_655 S
N43 C44 1.376 . S
N43 C47 1.374 . S
C44 N43 1.376 . S
C44 C45 1.443 . S
C44 C71 1.396 . S
C45 C44 1.443 . S
C45 C46 1.340 . S
C45 H77 0.951 . S
C46 C45 1.340 . S
C46 C47 1.439 . S
C46 H78 0.950 . S
C47 N43 1.374 . S
C47 C46 1.439 . S
C47 C72 1.395 . S
N48 Co37 1.990 1_655 S
N48 C49 1.376 . S
N48 C52 1.383 . S
C49 N48 1.376 . S
C49 C50 1.446 . S
C49 C72 1.391 . S
C50 C49 1.446 . S
C50 C51 1.339 . S
C50 H79 0.949 . S
C51 C50 1.339 . S
C51 C52 1.439 . S
C51 H80 0.950 . S
C52 N48 1.383 . S
C52 C51 1.439 . S
C52 C70 1.392 1_655 S
N53 Co37 2.282 . S
N53 C56 1.332 1_455 S
N53 C58 1.332 . S
C54 C55 1.386 1_455 S
C54 C57 1.388 . S
C55 C54 1.386 1_655 S
C55 C56 1.382 . S
C55 H81 0.950 . S
C56 N53 1.332 1_655 S
C56 C55 1.382 . S
C56 H67 0.952 . S
C57 C54 1.388 . S
C57 C58 1.382 . S
C57 H82 0.950 . S
C58 N53 1.332 . S
C58 C57 1.382 . S
C58 H68 0.948 . S
N59 Co37 2.283 1_655 S
N59 C63 1.332 1_655 S
N59 C64 1.332 . S
C60 C61 1.392 . S
C60 C64 1.382 . S
C60 H83 0.950 . S
C61 C60 1.392 . S
C61 C62 1.382 1_655 S
C62 C61 1.382 1_455 S
C62 C63 1.382 . S
C62 H84 0.950 . S
C63 N59 1.332 1_455 S
C63 C62 1.382 . S
C63 H65 0.952 . S
C64 N59 1.332 . S
C64 C60 1.382 . S
C64 H66 0.948 . S
H65 C63 0.952 . S
H66 C64 0.948 . S
H67 C56 0.952 . S
H68 C58 0.948 . S
C69 C35 1.395 . S
C69 C39 1.391 . S
C70 C32 1.389 . S
C70 C52 1.392 1_455 S
C71 C42 1.386 1_655 S
C71 C44 1.396 . S
C72 C47 1.395 . S
C72 C49 1.391 . S
H73 C33 0.951 . S
H74 C34 0.950 . S
H75 C40 0.949 . S
H76 C41 0.950 . S
H77 C45 0.951 . S
H78 C46 0.950 . S
H79 C50 0.949 . S
H80 C51 0.950 . S
H81 C55 0.950 . S
H82 C57 0.950 . S
H83 C60 0.950 . S
H84 C62 0.950 . S
C85 C86 1.443 . S
C85 N89 1.376 . S
C85 C123 1.391 . S
C86 C85 1.443 . S
C86 C87 1.340 . S
C86 H126 0.951 . S
C87 C86 1.340 . S
C87 C88 1.439 . S
C87 H127 0.950 . S
C88 C87 1.439 . S
C88 N89 1.374 . S
C88 C122 1.395 . S
N89 C85 1.376 . S
N89 C88 1.374 . S
N89 Co90 2.001 1_565 S
Co90 N89 2.001 1_545 S
Co90 N91 1.986 1_545 S
Co90 N96 2.015 . S
Co90 N101 2.003 . S
Co90 N106 2.283 1_545 S
Co90 N112 2.282 . S
N91 Co90 1.986 1_565 S
N91 C92 1.376 . S
N91 C95 1.383 . S
C92 N91 1.376 . S
C92 C93 1.446 . S
C92 C122 1.391 . S
C93 C92 1.446 . S
C93 C94 1.339 . S
C93 H128 0.949 . S
C94 C93 1.339 . S
C94 C95 1.439 . S
C94 H129 0.950 . S
C95 N91 1.383 . S
C95 C94 1.439 . S
C95 C124 1.392 1_565 S
N96 Co90 2.015 . S
N96 C97 1.376 . S
N96 C100 1.374 . S
C97 N96 1.376 . S
C97 C98 1.443 . S
C97 C124 1.389 . S
C98 C97 1.443 . S
C98 C99 1.340 . S
C98 H130 0.951 . S
C99 C98 1.340 . S
C99 C100 1.439 . S
C99 H131 0.950 . S
C100 N96 1.374 . S
C100 C99 1.439 . S
C100 C125 1.395 . S
N101 Co90 2.003 . S
N101 C102 1.376 . S
N101 C105 1.383 . S
C102 N101 1.376 . S
C102 C103 1.446 . S
C102 C125 1.391 . S
C103 C102 1.446 . S
C103 C104 1.339 . S
C103 H132 0.949 . S
C104 C103 1.339 . S
C104 C105 1.439 . S
C104 H133 0.950 . S
C105 N101 1.383 . S
C105 C104 1.439 . S
C105 C123 1.390 1_545 S
N106 Co90 2.283 1_565 S
N106 C109 1.332 1_565 S
N106 C111 1.332 . S
C107 C108 1.386 1_565 S
C107 C110 1.388 . S
C108 C107 1.386 1_545 S
C108 C109 1.382 . S
C108 H134 0.950 . S
C109 N106 1.332 1_545 S
C109 C108 1.382 . S
C109 H120 0.952 . S
C110 C107 1.388 . S
C110 C111 1.382 . S
C110 H135 0.950 . S
C111 N106 1.332 . S
C111 C110 1.382 . S
C111 H121 0.948 . S
N112 Co90 2.282 . S
N112 C116 1.332 1_545 S
N112 C117 1.332 . S
C113 C114 1.388 . S
C113 C117 1.382 . S
C113 H136 0.950 . S
C114 C113 1.388 . S
C114 C115 1.386 1_545 S
C115 C114 1.386 1_565 S
C115 C116 1.382 . S
C115 H137 0.950 . S
C116 N112 1.332 1_565 S
C116 C115 1.382 . S
C116 H118 0.952 . S
C117 N112 1.332 . S
C117 C113 1.382 . S
C117 H119 0.948 . S
H118 C116 0.952 . S
H119 C117 0.948 . S
H120 C109 0.952 . S
H121 C111 0.948 . S
C122 C88 1.395 . S
C122 C92 1.391 . S
C123 C85 1.391 . S
C123 C105 1.390 1_565 S
C124 C95 1.392 1_545 S
C124 C97 1.389 . S
C125 C100 1.395 . S
C125 C102 1.391 . S
H126 C86 0.951 . S
H127 C87 0.950 . S
H128 C93 0.949 . S
H129 C94 0.950 . S
H130 C98 0.951 . S
H131 C99 0.950 . S
H132 C103 0.949 . S
H133 C104 0.950 . S
H134 C108 0.950 . S
H135 C110 0.950 . S
H136 C113 0.950 . S
H137 C115 0.950 . S
C22 C54 1.377 1_655 S
C8 C124 1.563 . S
C31 C70 1.591 . S
C17 C114 1.359 1_565 S
C30 C61 1.376 1_455 S
C27 C123 1.563 . S
C71 C23 1.590 . S
C24 C107 1.360 1_545 S
