# Generated by pormake.
# Topology bcu-b, (8,8)-cn, num edge types: 1
# Building blocks:
#     Node 0, Type 0, BuildingBlock: VETTIZ_charged_sbu_0, # of connection points: 8
#     Node 1, Type 1, BuildingBlock: TAGTUT_clean_sbu_1, # of connection points: 8
#     Edge 2, Type (0, 1), BuildingBlock: OJICUG_clean_linker_0, # of connection points: 2
#     Edge 3, Type (0, 1), BuildingBlock: OJICUG_clean_linker_0, # of connection points: 2
#     Edge 4, Type (0, 1), BuildingBlock: OJICUG_clean_linker_0, # of connection points: 2
#     Edge 5, Type (0, 1), BuildingBlock: OJICUG_clean_linker_0, # of connection points: 2
#     Edge 6, Type (0, 1), BuildingBlock: OJICUG_clean_linker_0, # of connection points: 2
#     Edge 7, Type (0, 1), BuildingBlock: OJICUG_clean_linker_0, # of connection points: 2
#     Edge 8, Type (0, 1), BuildingBlock: OJICUG_clean_linker_0, # of connection points: 2
#     Edge 9, Type (0, 1), BuildingBlock: OJICUG_clean_linker_0, # of connection points: 2
# Relax obj value: 0.025
# Max RMSD: 0.113
# Mean RMSD: 0.086
data_MOF--net-bcu-b--node1-VETTIZ_charged_sbu_0--node2-TAGTUT_clean_sbu_1--edge1-OJICUG_clean_linker_0
_symmetry_space_group_name_H-M    P1
_symmetry_Int_Tables_number       1
_symmetry_cell_setting            triclinic
loop_
_symmetry_equiv_pos_as_xyz
'x, y, z'
_cell_length_a     15.079233
_cell_length_b     13.758159
_cell_length_c     16.598671
_cell_angle_alpha  91.590596
_cell_angle_beta   89.721317
_cell_angle_gamma 103.55749
loop_
_atom_site_label
_atom_site_type_symbol
_atom_site_fract_x
_atom_site_fract_y
_atom_site_fract_z
_atom_type_partial_charge
Fe0 Fe 0.02684 0.81849 0.95822 0.0
O1 O 0.05824 0.96582 0.96389 0.0
Fe2 Fe 0.99401 1.04111 0.88161 0.0
Fe3 Fe 0.04208 0.04445 0.06404 0.0
O4 O 0.0565 0.96584 0.95567 0.0
O5 O 0.97782 0.11972 -0.01823 0.0
O6 O 0.97956 0.1197 -0.01 0.0
Fe7 Fe 1.00918 0.26705 -0.01257 0.0
C8 C 0.90249 0.85566 0.09846 0.0
O9 O 0.1393 0.83938 0.03166 0.0
O10 O 0.11489 0.95563 0.1271 0.0
O11 O 0.086 0.28326 0.88291 0.0
O12 O 0.11788 0.13603 0.85627 0.0
O13 O 0.0225 0.94857 0.78628 0.0
O14 O 0.0911 0.8358 0.84826 0.0
O15 O 0.16584 0.14217 0.04585 0.0
O16 O 0.12478 0.286 0.05641 0.0
C17 C 0.06835 0.87891 0.78534 0.0
O18 O 0.89671 0.24611 0.91398 0.0
O19 O 0.92123 0.12994 0.81854 0.0
O20 O 0.95001 0.80228 0.06273 0.0
O21 O 0.91822 0.94953 0.08945 0.0
C22 C 0.15711 0.8884 0.09982 0.0
C23 C 0.18064 0.23265 0.07123 0.0
C24 C 0.96775 0.20665 0.16031 0.0
O25 O 1.01362 0.13701 0.15937 0.0
O26 O 0.94495 0.24973 0.09739 0.0
C27 C 0.13359 0.22989 0.84724 0.0
O28 O 0.87023 0.94344 0.89976 0.0
O29 O 0.91126 0.7996 0.88922 0.0
C30 C 0.87895 0.1971 0.84582 0.0
C31 C 0.85542 0.85297 0.87438 0.0
C32 C 0.25784 0.73629 0.53305 0.0
C33 C 0.39276 0.74759 0.31372 0.0
C34 C 0.40605 0.35812 0.35437 0.0
Mg35 Mg 0.46156 0.76342 0.48763 0.0
O36 O 0.42772 0.62417 0.4951 0.0
Mg37 Mg 0.32119 0.54628 0.43186 0.0
Mg38 Mg 0.51806 0.54275 0.47288 0.0
O39 O 0.60835 0.46128 0.45061 0.0
Mg40 Mg 0.57455 0.32199 0.45791 0.0
Mg41 Mg 0.71487 0.53912 0.51382 0.0
C42 C 0.63019 0.72738 0.59116 0.0
C43 C 0.68258 0.67099 0.36164 0.0
O44 O 0.23794 0.64957 0.49723 0.0
O45 O 0.33933 0.7902 0.5383 0.0
O46 O 0.34749 0.65933 0.32973 0.0
O47 O 0.45006 0.80054 0.36341 0.0
O48 O 0.58267 0.78713 0.56593 0.0
O49 O 0.61576 0.63566 0.5655 0.0
C50 C 0.35353 0.41455 0.58412 0.0
O51 O 0.4402 0.43892 0.57281 0.0
O52 O 0.29811 0.44399 0.538 0.0
O53 O 0.79815 0.43595 0.44838 0.0
O54 O 0.69682 0.29529 0.4073 0.0
O55 O 0.68856 0.42596 0.61586 0.0
C56 C 0.77829 0.34923 0.41256 0.0
O57 O 0.58599 0.28477 0.58212 0.0
O58 O 0.45359 0.29831 0.37943 0.0
C59 C 0.64328 0.33769 0.63183 0.0
O60 O 0.42036 0.44966 0.38045 0.0
O61 O 0.5959 0.64659 0.37294 0.0
O62 O 0.73798 0.64154 0.40776 0.0
C63 C 0.25124 0.36241 0.17578 0.0
C64 C 0.24557 0.2676 0.13879 0.0
H65 H 0.30341 0.46409 0.27342 0.0
C66 C 0.2918 0.20239 0.17452 0.0
H67 H 0.2161 0.41474 0.15046 0.0
C68 C 0.3406 0.23026 0.24629 0.0
C69 C 0.34526 0.32462 0.28379 0.0
H70 H 0.28879 0.12894 0.14794 0.0
H71 H 0.37557 0.1779 0.27178 0.0
C72 C 0.30028 0.39044 0.24726 0.0
C73 C 0.95249 0.34608 0.25273 0.0
C74 C 0.93999 0.24266 0.23816 0.0
H75 H 0.91277 0.4617 0.32286 0.0
C76 C 0.88905 0.17558 0.29238 0.0
H77 H 0.99247 0.39896 0.21168 0.0
C78 C 0.84231 0.21137 0.35514 0.0
C79 C 0.84807 0.31458 0.36525 0.0
H80 H 0.87902 0.09564 0.28222 0.0
H81 H 0.79673 0.1581 0.39229 0.0
C82 C 0.90768 0.38197 0.31661 0.0
C83 C 0.81706 0.70409 0.16985 0.0
C84 C 0.83299 0.80761 0.15834 0.0
H85 H 0.75566 0.58071 0.24294 0.0
C86 C 0.78739 0.86435 0.20887 0.0
H87 H 0.85 0.65753 0.13211 0.0
C88 C 0.73202 0.81934 0.27252 0.0
C89 C 0.72126 0.71703 0.28613 0.0
H90 H 0.79755 0.94413 0.20147 0.0
H91 H 0.70191 0.86523 0.31343 0.0
C92 C 0.76243 0.6597 0.23311 0.0
C93 C 0.26628 0.91878 0.21801 0.0
C94 C 0.22907 0.86136 0.14967 0.0
H95 H 0.35264 0.92998 0.3217 0.0
C96 C 0.26029 0.77483 0.12917 0.0
H97 H 0.24404 0.98555 0.23571 0.0
C98 C 0.3217 0.74268 0.17865 0.0
C99 C 0.35533 0.79735 0.24887 0.0
H100 H 0.23386 0.72849 0.07686 0.0
H101 H 0.33872 0.67183 0.16456 0.0
C102 C 0.32974 0.88771 0.26657 0.0
C103 C 0.14715 0.90999 0.6533 0.0
C104 C 0.09616 0.84291 0.70749 0.0
H105 H 0.2395 0.92748 0.55342 0.0
C106 C 0.08363 0.73949 0.69289 0.0
H107 H 0.1572 0.98993 0.66348 0.0
C108 C 0.12845 0.7036 0.62901 0.0
C109 C 0.18809 0.77099 0.58038 0.0
H110 H 0.04362 0.68661 0.73391 0.0
H111 H 0.12332 0.62386 0.62273 0.0
C112 C 0.1939 0.87421 0.59053 0.0
C113 C 0.24872 0.22121 0.73688 0.0
C114 C 0.2031 0.27794 0.78739 0.0
H115 H 0.33422 0.22032 0.63234 0.0
C116 C 0.21903 0.38147 0.77588 0.0
H117 H 0.23856 0.14143 0.74429 0.0
C118 C 0.27368 0.42586 0.71263 0.0
C119 C 0.31487 0.36852 0.65963 0.0
H120 H 0.18607 0.42803 0.8136 0.0
H121 H 0.28044 0.50484 0.70279 0.0
C122 C 0.30411 0.26621 0.67324 0.0
C123 C 0.76988 0.16666 0.72756 0.0
C124 C 0.80695 0.22405 0.79595 0.0
H125 H 0.68362 0.15543 0.6238 0.0
C126 C 0.77557 0.31047 0.81649 0.0
H127 H 0.79225 0.09998 0.70983 0.0
C128 C 0.71415 0.34255 0.76698 0.0
C129 C 0.68066 0.28792 0.6967 0.0
H130 H 0.8019 0.35678 0.86884 0.0
H131 H 0.69701 0.41334 0.78109 0.0
C132 C 0.70641 0.19766 0.67897 0.0
C133 C 0.78493 0.72326 0.7698 0.0
C134 C 0.79053 0.81805 0.80679 0.0
H135 H 0.7329 0.62159 0.67214 0.0
C136 C 0.74428 0.88324 0.77103 0.0
H137 H 0.82008 0.67095 0.79512 0.0
C138 C 0.69551 0.85536 0.69924 0.0
C139 C 0.69094 0.76102 0.66174 0.0
H140 H 0.74725 0.95667 0.79763 0.0
H141 H 0.66051 0.90767 0.67373 0.0
C142 C 0.73595 0.69524 0.69829 0.0
loop_
_geom_bond_atom_site_label_1
_geom_bond_atom_site_label_2
_geom_bond_distance
_geom_bond_site_symmetry_2
_ccdc_geom_bond_type
Fe0 O1 1.886 . S
Fe0 O4 1.715 1_554 S
Fe0 O9 2.077 1_655 S
Fe0 O14 1.935 1_654 S
Fe0 O20 2.077 . S
Fe0 O29 1.935 1_554 S
O1 Fe0 1.886 . S
O1 Fe3 1.715 1_665 S
Fe2 O4 1.886 . S
Fe2 O5 1.715 1_665 S
Fe2 O12 1.935 1_665 S
Fe2 O13 2.077 1_655 S
Fe2 O19 1.935 1_565 S
Fe2 O28 2.077 . S
Fe3 O1 1.715 1_445 S
Fe3 O6 1.886 . S
Fe3 O10 1.935 1_545 S
Fe3 O15 2.077 . S
Fe3 O21 1.935 1_445 S
Fe3 O25 2.077 1_455 S
O4 Fe0 1.715 1_556 S
O4 Fe2 1.886 . S
O5 Fe2 1.715 1_445 S
O5 Fe7 1.886 . S
O6 Fe3 1.886 . S
O6 Fe7 1.715 1_554 S
Fe7 O5 1.886 . S
Fe7 O6 1.715 1_556 S
Fe7 O11 2.077 . S
Fe7 O16 1.935 1_556 S
Fe7 O18 2.077 1_455 S
Fe7 O26 1.935 1_456 S
C8 O20 1.381 . S
C8 O21 1.421 . S
O9 Fe0 2.077 1_455 S
O9 C22 1.381 . S
O10 Fe3 1.935 1_565 S
O10 C22 1.421 . S
O11 Fe7 2.077 . S
O11 C27 1.381 . S
O12 Fe2 1.935 1_445 S
O12 C27 1.421 . S
O13 Fe2 2.077 1_455 S
O13 C17 1.381 . S
O14 Fe0 1.935 1_456 S
O14 C17 1.421 . S
O15 Fe3 2.077 . S
O15 C23 1.381 . S
O16 Fe7 1.935 1_554 S
O16 C23 1.421 . S
C17 O13 1.381 . S
C17 O14 1.421 . S
O18 Fe7 2.077 1_655 S
O18 C30 1.381 . S
O19 Fe2 1.935 1_545 S
O19 C30 1.421 . S
O20 Fe0 2.077 . S
O20 C8 1.381 . S
O21 Fe3 1.935 1_665 S
O21 C8 1.421 . S
C22 O9 1.381 . S
C22 O10 1.421 . S
C23 O15 1.381 . S
C23 O16 1.421 . S
C24 O25 1.381 . S
C24 O26 1.421 . S
O25 Fe3 2.077 1_655 S
O25 C24 1.381 . S
O26 Fe7 1.935 1_654 S
O26 C24 1.421 . S
C27 O11 1.381 . S
C27 O12 1.421 . S
O28 Fe2 2.077 . S
O28 C31 1.381 . S
O29 Fe0 1.935 1_556 S
O29 C31 1.421 . S
C30 O18 1.381 . S
C30 O19 1.421 . S
C31 O28 1.381 . S
C31 O29 1.421 . S
C32 O44 1.241 . S
C32 O45 1.280 . S
C33 O46 1.277 . S
C33 O47 1.245 . S
C34 O58 1.247 . S
C34 O60 1.289 . S
Mg35 O36 1.926 . S
Mg35 O45 1.984 . S
Mg35 O47 1.988 . S
Mg35 O48 2.061 . S
O36 Mg35 1.926 . S
O36 Mg37 1.986 . S
O36 Mg38 1.917 . S
Mg37 O36 1.986 . S
Mg37 O44 2.042 . S
Mg37 O46 2.041 . S
Mg37 O52 2.038 . S
Mg37 O60 2.238 . S
Mg38 O36 1.917 . S
Mg38 O39 1.917 . S
Mg38 O49 2.106 . S
Mg38 O51 2.079 . S
Mg38 O60 2.106 . S
Mg38 O61 2.079 . S
O39 Mg38 1.917 . S
O39 Mg40 1.926 . S
O39 Mg41 1.986 . S
Mg40 O39 1.926 . S
Mg40 O54 1.984 . S
Mg40 O57 1.988 . S
Mg40 O58 2.061 . S
Mg41 O39 1.986 . S
Mg41 O49 2.238 . S
Mg41 O53 2.042 . S
Mg41 O55 2.041 . S
Mg41 O62 2.038 . S
C42 O48 1.247 . S
C42 O49 1.289 . S
C43 O61 1.245 . S
C43 O62 1.274 . S
O44 C32 1.241 . S
O44 Mg37 2.042 . S
O45 C32 1.280 . S
O45 Mg35 1.984 . S
O46 C33 1.277 . S
O46 Mg37 2.041 . S
O47 C33 1.245 . S
O47 Mg35 1.988 . S
O48 Mg35 2.061 . S
O48 C42 1.247 . S
O49 Mg38 2.106 . S
O49 Mg41 2.238 . S
O49 C42 1.289 . S
C50 O51 1.245 . S
C50 O52 1.274 . S
O51 Mg38 2.079 . S
O51 C50 1.245 . S
O52 Mg37 2.038 . S
O52 C50 1.274 . S
O53 Mg41 2.042 . S
O53 C56 1.241 . S
O54 Mg40 1.984 . S
O54 C56 1.280 . S
O55 Mg41 2.041 . S
O55 C59 1.277 . S
C56 O53 1.241 . S
C56 O54 1.280 . S
O57 Mg40 1.988 . S
O57 C59 1.245 . S
O58 C34 1.247 . S
O58 Mg40 2.061 . S
C59 O55 1.277 . S
C59 O57 1.245 . S
O60 C34 1.289 . S
O60 Mg37 2.238 . S
O60 Mg38 2.106 . S
O61 Mg38 2.079 . S
O61 C43 1.245 . S
O62 Mg41 2.038 . S
O62 C43 1.274 . S
C63 C64 1.387 . S
C63 H67 0.950 . S
C63 C72 1.390 . S
C64 C63 1.387 . S
C64 C66 1.387 . S
H65 C72 0.950 . S
C66 C64 1.387 . S
C66 C68 1.390 . S
C66 H70 0.950 . S
H67 C63 0.950 . S
C68 C66 1.390 . S
C68 C69 1.387 . S
C68 H71 0.950 . S
C69 C68 1.387 . S
C69 C72 1.387 . S
H70 C66 0.950 . S
H71 C68 0.950 . S
C72 C63 1.390 . S
C72 H65 0.950 . S
C72 C69 1.387 . S
C73 C74 1.387 . S
C73 H77 0.950 . S
C73 C82 1.390 . S
C74 C73 1.387 . S
C74 C76 1.387 . S
H75 C82 0.950 . S
C76 C74 1.387 . S
C76 C78 1.390 . S
C76 H80 0.950 . S
H77 C73 0.950 . S
C78 C76 1.390 . S
C78 C79 1.387 . S
C78 H81 0.950 . S
C79 C78 1.387 . S
C79 C82 1.387 . S
H80 C76 0.950 . S
H81 C78 0.950 . S
C82 C73 1.390 . S
C82 H75 0.950 . S
C82 C79 1.387 . S
C83 C84 1.387 . S
C83 H87 0.950 . S
C83 C92 1.390 . S
C84 C83 1.387 . S
C84 C86 1.387 . S
H85 C92 0.950 . S
C86 C84 1.387 . S
C86 C88 1.390 . S
C86 H90 0.950 . S
H87 C83 0.950 . S
C88 C86 1.390 . S
C88 C89 1.387 . S
C88 H91 0.950 . S
C89 C88 1.387 . S
C89 C92 1.387 . S
H90 C86 0.950 . S
H91 C88 0.950 . S
C92 C83 1.390 . S
C92 H85 0.950 . S
C92 C89 1.387 . S
C93 C94 1.387 . S
C93 H97 0.950 . S
C93 C102 1.390 . S
C94 C93 1.387 . S
C94 C96 1.387 . S
H95 C102 0.950 . S
C96 C94 1.387 . S
C96 C98 1.390 . S
C96 H100 0.950 . S
H97 C93 0.950 . S
C98 C96 1.390 . S
C98 C99 1.387 . S
C98 H101 0.950 . S
C99 C98 1.387 . S
C99 C102 1.387 . S
H100 C96 0.950 . S
H101 C98 0.950 . S
C102 C93 1.390 . S
C102 H95 0.950 . S
C102 C99 1.387 . S
C103 C104 1.387 . S
C103 H107 0.950 . S
C103 C112 1.390 . S
C104 C103 1.387 . S
C104 C106 1.387 . S
H105 C112 0.950 . S
C106 C104 1.387 . S
C106 C108 1.390 . S
C106 H110 0.950 . S
H107 C103 0.950 . S
C108 C106 1.390 . S
C108 C109 1.387 . S
C108 H111 0.950 . S
C109 C108 1.387 . S
C109 C112 1.387 . S
H110 C106 0.950 . S
H111 C108 0.950 . S
C112 C103 1.390 . S
C112 H105 0.950 . S
C112 C109 1.387 . S
C113 C114 1.387 . S
C113 H117 0.950 . S
C113 C122 1.390 . S
C114 C113 1.387 . S
C114 C116 1.387 . S
H115 C122 0.950 . S
C116 C114 1.387 . S
C116 C118 1.390 . S
C116 H120 0.950 . S
H117 C113 0.950 . S
C118 C116 1.390 . S
C118 C119 1.387 . S
C118 H121 0.950 . S
C119 C118 1.387 . S
C119 C122 1.387 . S
H120 C116 0.950 . S
H121 C118 0.950 . S
C122 C113 1.390 . S
C122 H115 0.950 . S
C122 C119 1.387 . S
C123 C124 1.387 . S
C123 H127 0.950 . S
C123 C132 1.390 . S
C124 C123 1.387 . S
C124 C126 1.387 . S
H125 C132 0.950 . S
C126 C124 1.387 . S
C126 C128 1.390 . S
C126 H130 0.950 . S
H127 C123 0.950 . S
C128 C126 1.390 . S
C128 C129 1.387 . S
C128 H131 0.950 . S
C129 C128 1.387 . S
C129 C132 1.387 . S
H130 C126 0.950 . S
H131 C128 0.950 . S
C132 C123 1.390 . S
C132 H125 0.950 . S
C132 C129 1.387 . S
C133 C134 1.387 . S
C133 H137 0.950 . S
C133 C142 1.390 . S
C134 C133 1.387 . S
C134 C136 1.387 . S
H135 C142 0.950 . S
C136 C134 1.387 . S
C136 C138 1.390 . S
C136 H140 0.950 . S
H137 C133 0.950 . S
C138 C136 1.390 . S
C138 C139 1.387 . S
C138 H141 0.950 . S
C139 C138 1.387 . S
C139 C142 1.387 . S
H140 C136 0.950 . S
H141 C138 0.950 . S
C142 C133 1.390 . S
C142 H135 0.950 . S
C142 C139 1.387 . S
C64 C23 1.270 . S
C69 C34 1.269 . S
C74 C24 1.465 . S
C79 C56 1.482 . S
C84 C8 1.535 . S
C89 C43 1.509 . S
C94 C22 1.560 . S
C99 C33 1.550 . S
C104 C17 1.465 . S
C109 C32 1.484 . S
C119 C50 1.509 . S
C114 C27 1.535 . S
C124 C30 1.558 . S
C129 C59 1.554 . S
C139 C42 1.271 . S
C134 C31 1.269 . S
