# Generated by pormake.
# Topology zzz, (3,6)-cn, num edge types: 1
# Building blocks:
#     Node 0, Type 0, BuildingBlock: OLANEW_clean_sbu_2, # of connection points: 3
#     Node 1, Type 0, BuildingBlock: OLANEW_clean_sbu_2, # of connection points: 3
#     Node 2, Type 0, BuildingBlock: OLANEW_clean_sbu_2, # of connection points: 3
#     Node 3, Type 0, BuildingBlock: OLANEW_clean_sbu_2, # of connection points: 3
#     Node 4, Type 0, BuildingBlock: OLANEW_clean_sbu_2, # of connection points: 3
#     Node 5, Type 0, BuildingBlock: OLANEW_clean_sbu_2, # of connection points: 3
#     Node 6, Type 0, BuildingBlock: OLANEW_clean_sbu_2, # of connection points: 3
#     Node 7, Type 0, BuildingBlock: OLANEW_clean_sbu_2, # of connection points: 3
#     Node 8, Type 1, BuildingBlock: VOLQOD_clean_sbu_1, # of connection points: 6
#     Node 9, Type 1, BuildingBlock: VOLQOD_clean_sbu_1, # of connection points: 6
#     Node 10, Type 1, BuildingBlock: VOLQOD_clean_sbu_1, # of connection points: 6
#     Node 11, Type 1, BuildingBlock: VOLQOD_clean_sbu_1, # of connection points: 6
#     Edge 12, Type (0, 1), None
#     Edge 13, Type (0, 1), None
#     Edge 14, Type (0, 1), None
#     Edge 15, Type (0, 1), None
#     Edge 16, Type (0, 1), None
#     Edge 17, Type (0, 1), None
#     Edge 18, Type (0, 1), None
#     Edge 19, Type (0, 1), None
#     Edge 20, Type (0, 1), None
#     Edge 21, Type (0, 1), None
#     Edge 22, Type (0, 1), None
#     Edge 23, Type (0, 1), None
#     Edge 24, Type (0, 1), None
#     Edge 25, Type (0, 1), None
#     Edge 26, Type (0, 1), None
#     Edge 27, Type (0, 1), None
#     Edge 28, Type (0, 1), None
#     Edge 29, Type (0, 1), None
#     Edge 30, Type (0, 1), None
#     Edge 31, Type (0, 1), None
#     Edge 32, Type (0, 1), None
#     Edge 33, Type (0, 1), None
#     Edge 34, Type (0, 1), None
#     Edge 35, Type (0, 1), None
# Relax obj value: 0.143
# Max RMSD: 0.215
# Mean RMSD: 0.108
data_MOF--net-zzz--node1-OLANEW_clean_sbu_2--node2-VOLQOD_clean_sbu_1--edge1-none
_symmetry_space_group_name_H-M    P1
_symmetry_Int_Tables_number       1
_symmetry_cell_setting            triclinic
loop_
_symmetry_equiv_pos_as_xyz
'x, y, z'
_cell_length_a     26.110553
_cell_length_b     26.647422
_cell_length_c     10.986061
_cell_angle_alpha  89.706976
_cell_angle_beta   90.493475
_cell_angle_gamma 90.798727
loop_
_atom_site_label
_atom_site_type_symbol
_atom_site_fract_x
_atom_site_fract_y
_atom_site_fract_z
_atom_type_partial_charge
O0 O 0.83808 0.37393 0.70496 0.0
Cd1 Cd 0.75393 0.33326 0.70352 0.0
O2 O 0.83736 0.39893 0.89546 0.0
Cd3 Cd 0.87604 0.43476 0.04979 0.0
O4 O 0.92061 0.44812 0.2153 0.0
C5 C 0.94 0.49021 0.24607 0.0
O6 O 0.93333 0.52982 0.1764 0.0
C7 C 0.85945 0.39693 0.79313 0.0
C8 C 0.67508 0.4027 0.69918 0.0
O9 O 0.68513 0.37777 0.79625 0.0
O10 O 0.70212 0.39512 0.6046 0.0
O11 O 0.90294 0.82339 0.75093 0.0
Cd12 Cd 0.85176 0.74684 0.7756 0.0
O13 O 0.94077 0.82171 -0.06884 0.0
Cd14 Cd 0.99118 0.86086 0.06153 0.0
O15 O 0.0236 0.9099 0.2026 0.0
C16 C 0.99171 0.93583 0.26109 0.0
O17 O 0.94293 0.93262 0.23149 0.0
C18 C 0.93449 0.84205 0.82743 0.0
C19 C 0.91094 0.66203 0.7412 0.0
O20 O 0.89509 0.68785 0.65016 0.0
O21 O 0.89884 0.67599 0.84848 0.0
O22 O 0.72757 0.12345 0.75974 0.0
Cd23 Cd 0.80722 0.17166 0.77947 0.0
O24 O 0.69395 0.13662 -0.05983 0.0
Cd25 Cd 0.63393 0.11535 0.06968 0.0
O26 O 0.58682 0.07944 0.20985 0.0
C27 C 0.60748 0.04414 0.26993 0.0
O28 O 0.65417 0.03071 0.24243 0.0
C29 C 0.69153 0.11691 0.83531 0.0
C30 C 0.89063 0.10876 0.75169 0.0
O31 O 0.87961 0.12616 0.85656 0.0
O32 O 0.86288 0.12127 0.66024 0.0
O33 O 0.66041 0.68967 0.74336 0.0
Cd34 Cd 0.70233 0.76492 0.82515 0.0
O35 O 0.61509 0.69002 0.91061 0.0
Cd36 Cd 0.56012 0.652 0.02978 0.0
O37 O 0.53042 0.60209 0.17099 0.0
C38 C 0.56461 0.57926 0.23161 0.0
O39 O 0.61292 0.58617 0.20273 0.0
C40 C 0.62543 0.67031 0.80889 0.0
C41 C 0.64481 0.85014 0.77694 0.0
O42 O 0.68336 0.83964 0.71085 0.0
O43 O 0.63355 0.8207 0.86555 0.0
O44 O 0.19437 0.63918 0.63479 0.0
Cd45 Cd 0.27088 0.68662 0.57587 0.0
O46 O 0.18994 0.61399 0.4455 0.0
Cd47 Cd 0.15813 0.56565 0.30464 0.0
O48 O 0.13028 0.52975 0.13968 0.0
C49 C 0.08236 0.52853 0.11975 0.0
O50 O 0.05149 0.54743 0.20058 0.0
C51 C 0.17195 0.61369 0.55233 0.0
C52 C 0.35758 0.62814 0.60569 0.0
O53 O 0.33074 0.62576 0.50768 0.0
O54 O 0.34384 0.65835 0.68928 0.0
O55 O 0.15025 0.18651 0.63523 0.0
Cd56 Cd 0.19054 0.2641 0.56261 0.0
O57 O 0.16759 0.1542 0.45777 0.0
Cd58 Cd 0.15693 0.09727 0.31935 0.0
O59 O 0.12151 0.0692 0.1545 0.0
C60 C 0.11541 0.02352 0.12511 0.0
O61 O 0.13234 0.98772 0.1968 0.0
C62 C 0.14703 0.14996 0.56153 0.0
C63 C 0.12956 0.34664 0.60963 0.0
O64 O 0.11971 0.31763 0.5196 0.0
O65 O 0.1683 0.33697 0.67772 0.0
O66 O 0.36541 0.86776 0.64853 0.0
Cd67 Cd 0.28799 0.82052 0.59419 0.0
O68 O 0.36191 0.9016 0.46671 0.0
Cd69 Cd 0.39536 0.94663 0.32246 0.0
O70 O 0.43937 0.95919 0.1593 0.0
C71 C 0.46184 1.00005 0.13093 0.0
O72 O 0.45862 0.03931 0.20207 0.0
C73 C 0.38388 0.89783 0.5697 0.0
C74 C 0.20239 0.87945 0.62919 0.0
O75 O 0.21705 0.84859 0.71179 0.0
O76 O 0.22769 0.8821 0.52993 0.0
O77 O 0.40927 0.32763 0.62267 0.0
Cd78 Cd 0.36095 0.2487 0.60753 0.0
O79 O 0.39549 0.35367 0.43524 0.0
Cd80 Cd 0.41268 0.40539 0.28694 0.0
O81 O 0.44955 0.43471 0.12485 0.0
C82 C 0.45334 0.48073 0.09536 0.0
O83 O 0.43327 0.51519 0.16459 0.0
C84 C 0.41556 0.36043 0.53957 0.0
C85 C 0.42432 0.166 0.63712 0.0
O86 O 0.41015 0.19156 0.72896 0.0
O87 O 0.40867 0.17925 0.53103 0.0
O88 O 0.12898 0.90292 0.73875 0.0
Zn89 Zn 0.06814 0.93942 0.80504 0.0
O90 O 0.04548 0.9919 0.69164 0.0
Zn91 Zn 0.04628 0.05563 0.77704 0.0
Zn92 Zn 0.09078 0.99457 0.55043 0.0
Zn93 Zn 0.97544 0.97909 0.63527 0.0
O94 O 0.97597 0.0853 0.79141 0.0
O95 O 0.92903 0.03749 0.66682 0.0
O96 O 0.09126 0.96737 -0.03272 0.0
O97 O 0.07603 0.0486 -0.05699 0.0
O98 O 0.09128 0.10543 0.69132 0.0
O99 O 0.1206 0.06509 0.5298 0.0
O100 O 0.05379 0.97014 0.39778 0.0
O101 O 1.01087 0.88997 0.83391 0.0
O102 O 0.97298 0.96317 0.45796 0.0
O103 O 0.94673 0.91742 0.71756 0.0
C104 C 0.15777 0.91122 0.64768 0.0
C105 C 0.93405 0.07535 0.73626 0.0
C106 C 0.11804 0.10442 0.59534 0.0
C107 C 0.09232 0.01216 0.00665 0.0
C108 C 1.00688 0.95941 0.37642 0.0
C109 C 0.96519 0.88609 0.79334 0.0
O110 O 0.1489 0.94639 0.5719 0.0
O111 O 0.48558 0.11946 0.74799 0.0
Zn112 Zn 0.53312 0.06629 0.81257 0.0
O113 O 0.53696 0.00974 0.69892 0.0
Zn114 Zn 0.51416 0.94901 0.78257 0.0
Zn115 Zn 0.49402 0.02287 0.55515 0.0
Zn116 Zn 0.60735 0.99946 0.64657 0.0
O117 O 0.56987 0.89778 0.79828 0.0
O118 O 0.63316 0.93025 0.68775 0.0
O119 O 0.50379 0.0458 -0.02529 0.0
O120 O 0.48918 0.96427 -0.0513 0.0
O121 O 0.45424 0.91787 0.69613 0.0
O122 O 0.44103 0.96661 0.534 0.0
O123 O 0.53749 0.03331 0.40454 0.0
O124 O 0.60331 0.09635 0.84125 0.0
O125 O 0.61528 0.01204 0.46821 0.0
O126 O 0.65399 0.04999 0.72638 0.0
C127 C 0.4572 0.12227 0.65346 0.0
C128 C 0.61434 0.89496 0.75259 0.0
C129 C 0.42946 0.92845 0.59951 0.0
C130 C 0.48724 0.0036 0.01319 0.0
C131 C 0.58499 0.0271 0.385 0.0
C132 C 0.64737 0.08571 0.80067 0.0
O133 O 0.45604 0.08782 0.57362 0.0
O134 O 0.43249 0.60484 0.71279 0.0
Zn135 Zn 0.49476 0.56924 0.77682 0.0
O136 O 0.51814 0.51891 0.66161 0.0
Zn137 Zn 0.52042 0.45453 0.74522 0.0
Zn138 Zn 0.47097 0.51581 0.5215 0.0
Zn139 Zn 0.58736 0.53504 0.60524 0.0
O140 O 0.59116 0.42548 0.75046 0.0
O141 O 0.63543 0.47685 0.62932 0.0
O142 O 0.47377 0.53875 -0.06193 0.0
O143 O 0.4937 0.45873 0.91384 0.0
O144 O 0.4743 0.40518 0.66162 0.0
O145 O 0.44206 0.44489 0.50021 0.0
O146 O 0.50574 0.54152 0.36876 0.0
O147 O 0.55072 0.61998 0.80634 0.0
O148 O 0.58655 0.55308 0.42885 0.0
O149 O 0.61573 0.59654 0.69084 0.0
C150 C 0.40302 0.59697 0.62184 0.0
C151 C 0.63201 0.43725 0.69425 0.0
C152 C 0.44628 0.40566 0.56649 0.0
C153 C 0.47575 0.49387 -0.02237 0.0
C154 C 0.5518 0.55497 0.34739 0.0
C155 C 0.59611 0.6263 0.76725 0.0
O156 O 0.41192 0.56282 0.54453 0.0
O157 O 0.98142 0.53739 0.40213 0.0
Zn158 Zn 1.01384 0.55917 0.56188 0.0
O159 O 1.01804 0.50315 0.67894 0.0
Zn160 Zn 0.97451 0.51569 0.81995 0.0
Zn161 Zn 0.99571 0.4416 0.59794 0.0
Zn162 Zn 0.08845 0.49486 0.7365 0.0
O163 O 1.01539 0.51958 -0.02438 0.0
O164 O 0.09488 0.50506 0.9162 0.0
O165 O 0.96787 0.61321 0.62643 0.0
O166 O 0.94071 0.58278 0.80387 0.0
O167 O 0.91865 0.46282 0.83464 0.0
O168 O 0.93459 0.41138 0.68115 0.0
O169 O 0.05242 0.39122 0.58826 0.0
O170 O 0.08466 0.58952 0.53214 0.0
O171 O 0.11605 0.4267 0.69447 0.0
O172 O 0.13412 0.54763 0.66285 0.0
C173 C 0.96616 0.49462 0.36426 0.0
C174 C 0.06291 0.5152 -0.00123 0.0
C175 C 0.90784 0.42395 0.77197 0.0
C176 C 0.9416 0.61709 0.72298 0.0
C177 C 0.09759 0.3903 0.63274 0.0
C178 C 0.12798 0.58165 0.58277 0.0
O179 O 0.97056 0.45531 0.42917 0.0
loop_
_geom_bond_atom_site_label_1
_geom_bond_atom_site_label_2
_geom_bond_distance
_geom_bond_site_symmetry_2
_ccdc_geom_bond_type
O0 Cd1 2.300 . S
O0 C7 1.275 . S
Cd1 O0 2.300 . S
Cd1 O9 2.381 . S
Cd1 O10 2.378 . S
O2 Cd3 2.385 1_556 S
O2 C7 1.255 . S
Cd3 O2 2.385 1_554 S
Cd3 O4 2.317 . S
O4 Cd3 2.317 . S
O4 C5 1.232 . S
C5 O4 1.232 . S
C5 O6 1.218 . S
O6 C5 1.218 . S
C7 O0 1.275 . S
C7 O2 1.255 . S
C8 O9 1.258 . S
C8 O10 1.256 . S
O9 Cd1 2.381 . S
O9 C8 1.258 . S
O10 Cd1 2.378 . S
O10 C8 1.256 . S
O11 Cd12 2.300 1_656 S
O11 C18 1.275 1_655 S
Cd12 O11 2.300 1_454 S
Cd12 O20 2.381 1_454 S
Cd12 O21 2.378 . S
O13 Cd14 2.385 . S
O13 C18 1.255 1_554 S
Cd14 O13 2.385 . S
Cd14 O15 2.317 . S
O15 Cd14 2.317 . S
O15 C16 1.232 . S
C16 O15 1.232 . S
C16 O17 1.218 . S
O17 C16 1.218 . S
C18 O11 1.275 1_455 S
C18 O13 1.255 1_556 S
C19 O20 1.263 . S
C19 O21 1.249 1_656 S
O20 Cd12 2.381 1_656 S
O20 C19 1.263 . S
O21 Cd12 2.378 . S
O21 C19 1.249 1_454 S
O22 Cd23 2.300 1_566 S
O22 C29 1.275 1_565 S
Cd23 O22 2.300 1_544 S
Cd23 O31 2.381 1_544 S
Cd23 O32 2.378 . S
O24 Cd25 2.385 . S
O24 C29 1.255 1_554 S
Cd25 O24 2.385 . S
Cd25 O26 2.317 . S
O26 Cd25 2.317 . S
O26 C27 1.232 . S
C27 O26 1.232 . S
C27 O28 1.218 . S
O28 C27 1.218 . S
C29 O22 1.275 1_545 S
C29 O24 1.255 1_556 S
C30 O31 1.258 1_545 S
C30 O32 1.256 1_556 S
O31 Cd23 2.381 1_566 S
O31 C30 1.258 1_565 S
O32 Cd23 2.378 . S
O32 C30 1.256 1_554 S
O33 Cd34 2.300 . S
O33 C40 1.275 . S
Cd34 O33 2.300 . S
Cd34 O42 2.381 . S
Cd34 O43 2.378 1_556 S
O35 Cd36 2.385 1_556 S
O35 C40 1.255 . S
Cd36 O35 2.385 1_554 S
Cd36 O37 2.317 . S
O37 Cd36 2.317 . S
O37 C38 1.232 . S
C38 O37 1.232 . S
C38 O39 1.218 . S
O39 C38 1.218 . S
C40 O33 1.275 . S
C40 O35 1.255 . S
C41 O42 1.258 . S
C41 O43 1.256 1_556 S
O42 Cd34 2.381 . S
O42 C41 1.258 . S
O43 Cd34 2.378 1_554 S
O43 C41 1.256 1_554 S
O44 Cd45 2.300 . S
O44 C51 1.275 . S
Cd45 O44 2.300 . S
Cd45 O53 2.381 . S
Cd45 O54 2.378 . S
O46 Cd47 2.385 . S
O46 C51 1.255 . S
Cd47 O46 2.385 . S
Cd47 O48 2.317 . S
O48 Cd47 2.317 . S
O48 C49 1.232 . S
C49 O48 1.232 . S
C49 O50 1.218 . S
O50 C49 1.218 . S
C51 O44 1.275 . S
C51 O46 1.255 . S
C52 O53 1.258 . S
C52 O54 1.256 . S
O53 Cd45 2.381 . S
O53 C52 1.258 . S
O54 Cd45 2.378 . S
O54 C52 1.256 . S
O55 Cd56 2.300 . S
O55 C62 1.275 . S
Cd56 O55 2.300 . S
Cd56 O64 2.381 . S
Cd56 O65 2.378 . S
O57 Cd58 2.385 . S
O57 C62 1.255 . S
Cd58 O57 2.385 . S
Cd58 O59 2.317 . S
O59 Cd58 2.317 . S
O59 C60 1.232 . S
C60 O59 1.232 . S
C60 O61 1.218 . S
O61 C60 1.218 . S
C62 O55 1.275 . S
C62 O57 1.255 . S
C63 O64 1.258 . S
C63 O65 1.256 . S
O64 Cd56 2.381 . S
O64 C63 1.258 . S
O65 Cd56 2.378 . S
O65 C63 1.256 . S
O66 Cd67 2.300 . S
O66 C73 1.274 . S
Cd67 O66 2.300 . S
Cd67 O75 2.381 1_545 S
Cd67 O76 2.378 . S
O68 Cd69 2.385 . S
O68 C73 1.255 . S
Cd69 O68 2.385 . S
Cd69 O70 2.317 . S
O70 Cd69 2.317 . S
O70 C71 1.232 . S
C71 O70 1.232 . S
C71 O72 1.218 . S
O72 C71 1.218 . S
C73 O66 1.274 . S
C73 O68 1.255 . S
C74 O75 1.258 1_545 S
C74 O76 1.256 . S
O75 Cd67 2.381 1_565 S
O75 C74 1.258 1_565 S
O76 Cd67 2.378 . S
O76 C74 1.256 . S
O77 Cd78 2.300 . S
O77 C84 1.275 . S
Cd78 O77 2.300 . S
Cd78 O86 2.381 . S
Cd78 O87 2.378 . S
O79 Cd80 2.385 . S
O79 C84 1.255 . S
Cd80 O79 2.385 . S
Cd80 O81 2.317 . S
O81 Cd80 2.317 . S
O81 C82 1.232 . S
C82 O81 1.232 . S
C82 O83 1.218 . S
O83 C82 1.218 . S
C84 O77 1.275 . S
C84 O79 1.255 . S
C85 O86 1.258 . S
C85 O87 1.256 . S
O86 Cd78 2.381 . S
O86 C85 1.258 . S
O87 Cd78 2.378 . S
O87 C85 1.256 . S
O88 Zn89 1.953 1_545 S
O88 C104 1.225 1_545 S
Zn89 O88 1.953 1_565 S
Zn89 O90 1.949 . S
Zn89 O96 1.919 1_566 S
Zn89 O101 1.924 1_556 S
O90 Zn89 1.949 . S
O90 Zn91 1.923 1_465 S
O90 Zn92 1.950 . S
O90 Zn93 1.945 1_455 S
Zn91 O90 1.923 1_645 S
Zn91 O94 1.933 . S
Zn91 O97 1.941 1_655 S
Zn91 O98 1.965 . S
Zn92 O90 1.950 . S
Zn92 O99 1.938 1_565 S
Zn92 O100 1.906 . S
Zn92 O110 1.953 . S
Zn93 O90 1.945 1_655 S
Zn93 O95 1.932 . S
Zn93 O102 1.977 . S
Zn93 O103 1.910 1_655 S
O94 Zn91 1.933 . S
O94 C105 1.226 . S
O95 Zn93 1.932 . S
O95 C105 1.307 1_565 S
O96 Zn89 1.919 1_544 S
O96 C107 1.253 . S
O97 Zn91 1.941 1_455 S
O97 C107 1.283 1_556 S
O98 Zn91 1.965 . S
O98 C106 1.303 1_655 S
O99 Zn92 1.938 1_545 S
O99 C106 1.247 . S
O100 Zn92 1.906 . S
O100 C108 1.304 1_455 S
O101 Zn89 1.924 1_554 S
O101 C109 1.311 . S
O102 Zn93 1.977 . S
O102 C108 1.272 . S
O103 Zn93 1.910 1_455 S
O103 C109 1.231 1_556 S
C104 O88 1.225 1_565 S
C104 O110 1.298 . S
C105 O94 1.226 . S
C105 O95 1.307 1_545 S
C106 O98 1.303 1_455 S
C106 O99 1.247 . S
C107 O96 1.253 . S
C107 O97 1.283 1_554 S
C108 O100 1.304 1_655 S
C108 O102 1.272 . S
C109 O101 1.311 . S
C109 O103 1.231 1_554 S
O110 Zn92 1.953 . S
O110 C104 1.298 . S
O111 Zn112 1.953 . S
O111 C127 1.225 . S
Zn112 O111 1.953 . S
Zn112 O113 1.949 . S
Zn112 O119 1.919 1_556 S
Zn112 O124 1.924 . S
O113 Zn112 1.949 . S
O113 Zn114 1.923 1_545 S
O113 Zn115 1.950 . S
O113 Zn116 1.945 1_545 S
Zn114 O113 1.923 1_565 S
Zn114 O117 1.933 . S
Zn114 O120 1.941 . S
Zn114 O121 1.965 . S
Zn115 O113 1.950 . S
Zn115 O122 1.938 . S
Zn115 O123 1.906 . S
Zn115 O133 1.953 . S
Zn116 O113 1.945 1_565 S
Zn116 O118 1.932 . S
Zn116 O125 1.977 . S
Zn116 O126 1.910 1_565 S
O117 Zn114 1.933 . S
O117 C128 1.226 . S
O118 Zn116 1.932 . S
O118 C128 1.307 . S
O119 Zn112 1.919 1_554 S
O119 C130 1.253 . S
O120 Zn114 1.941 . S
O120 C130 1.283 1_566 S
O121 Zn114 1.965 . S
O121 C129 1.303 1_565 S
O122 Zn115 1.938 . S
O122 C129 1.247 . S
O123 Zn115 1.906 . S
O123 C131 1.304 1_545 S
O124 Zn112 1.924 . S
O124 C132 1.311 . S
O125 Zn116 1.977 . S
O125 C131 1.272 . S
O126 Zn116 1.910 1_545 S
O126 C132 1.231 . S
C127 O111 1.225 . S
C127 O133 1.298 . S
C128 O117 1.226 . S
C128 O118 1.307 . S
C129 O121 1.303 1_545 S
C129 O122 1.247 . S
C130 O119 1.253 . S
C130 O120 1.283 1_544 S
C131 O123 1.304 1_565 S
C131 O125 1.272 . S
C132 O124 1.311 . S
C132 O126 1.231 . S
O133 Zn115 1.953 . S
O133 C127 1.298 . S
O134 Zn135 1.953 . S
O134 C150 1.225 . S
Zn135 O134 1.953 . S
Zn135 O136 1.949 . S
Zn135 O142 1.919 1_556 S
Zn135 O147 1.924 . S
O136 Zn135 1.949 . S
O136 Zn137 1.923 . S
O136 Zn138 1.950 . S
O136 Zn139 1.945 . S
Zn137 O136 1.923 . S
Zn137 O140 1.933 . S
Zn137 O143 1.941 . S
Zn137 O144 1.965 . S
Zn138 O136 1.950 . S
Zn138 O145 1.938 . S
Zn138 O146 1.906 . S
Zn138 O156 1.953 . S
Zn139 O136 1.945 . S
Zn139 O141 1.932 . S
Zn139 O148 1.977 . S
Zn139 O149 1.910 . S
O140 Zn137 1.933 . S
O140 C151 1.226 . S
O141 Zn139 1.932 . S
O141 C151 1.307 . S
O142 Zn135 1.919 1_554 S
O142 C153 1.253 . S
O143 Zn137 1.941 . S
O143 C153 1.283 1_556 S
O144 Zn137 1.965 . S
O144 C152 1.303 . S
O145 Zn138 1.938 . S
O145 C152 1.247 . S
O146 Zn138 1.906 . S
O146 C154 1.304 . S
O147 Zn135 1.924 . S
O147 C155 1.311 . S
O148 Zn139 1.977 . S
O148 C154 1.272 . S
O149 Zn139 1.910 . S
O149 C155 1.231 . S
C150 O134 1.225 . S
C150 O156 1.298 . S
C151 O140 1.226 . S
C151 O141 1.307 . S
C152 O144 1.303 . S
C152 O145 1.247 . S
C153 O142 1.253 . S
C153 O143 1.283 1_554 S
C154 O146 1.304 . S
C154 O148 1.272 . S
C155 O147 1.311 . S
C155 O149 1.231 . S
O156 Zn138 1.953 . S
O156 C150 1.298 . S
O157 Zn158 1.953 1_655 S
O157 C173 1.225 . S
Zn158 O157 1.953 1_455 S
Zn158 O159 1.949 . S
Zn158 O165 1.919 . S
Zn158 O170 1.924 . S
O159 Zn158 1.949 . S
O159 Zn160 1.923 1_455 S
O159 Zn161 1.950 1_455 S
O159 Zn162 1.945 . S
Zn160 O159 1.923 1_655 S
Zn160 O163 1.933 1_656 S
Zn160 O166 1.941 . S
Zn160 O167 1.965 . S
Zn161 O159 1.950 1_655 S
Zn161 O168 1.938 . S
Zn161 O169 1.906 . S
Zn161 O179 1.953 . S
Zn162 O159 1.945 . S
Zn162 O164 1.932 . S
Zn162 O171 1.977 . S
Zn162 O172 1.910 . S
O163 Zn160 1.933 1_454 S
O163 C174 1.226 . S
O164 Zn162 1.932 . S
O164 C174 1.307 1_556 S
O165 Zn158 1.919 . S
O165 C176 1.252 1_455 S
O166 Zn160 1.941 . S
O166 C176 1.286 . S
O167 Zn160 1.965 . S
O167 C175 1.303 . S
O168 Zn161 1.938 . S
O168 C175 1.247 . S
O169 Zn161 1.906 . S
O169 C177 1.304 1_655 S
O170 Zn158 1.924 . S
O170 C178 1.311 . S
O171 Zn162 1.977 . S
O171 C177 1.272 . S
O172 Zn162 1.910 . S
O172 C178 1.231 . S
C173 O157 1.225 . S
C173 O179 1.298 . S
C174 O163 1.226 . S
C174 O164 1.307 1_554 S
C175 O167 1.303 . S
C175 O168 1.247 . S
C176 O165 1.252 1_655 S
C176 O166 1.286 . S
C177 O169 1.304 1_455 S
C177 O171 1.272 . S
C178 O170 1.311 . S
C178 O172 1.231 . S
O179 Zn161 1.953 . S
O179 C173 1.298 . S
C74 C104 1.791 1_545 S
C127 C85 1.952 . S
C150 C52 1.770 . S
C177 C63 1.732 . S
C105 C30 1.545 . S
C41 C128 1.522 . S
C8 C151 1.512 . S
C19 C176 1.602 . S
C106 C62 1.421 . S
C129 C73 1.099 . S
C152 C84 1.184 . S
C51 C178 1.528 . S
C18 C109 1.264 1_556 S
C132 C29 1.366 . S
C155 C40 1.413 . S
C7 C175 0.832 . S
C60 C107 1.629 . S
C71 C130 1.289 . S
C153 C82 1.490 . S
C174 C49 1.113 . S
C16 C108 1.793 1_455 S
C131 C27 1.738 1_565 S
C154 C38 1.521 . S
C5 C173 1.630 . S
