# Generated by pormake.
# Topology scu, (8,4)-cn, num edge types: 1
# Building blocks:
#     Node 0, Type 0, BuildingBlock: VETTIZ_charged_sbu_0, # of connection points: 8
#     Node 1, Type 1, BuildingBlock: ESEHIV_clean_sbu_0, # of connection points: 4
#     Node 2, Type 1, BuildingBlock: ESEHIV_clean_sbu_0, # of connection points: 4
#     Edge 3, Type (0, 1), BuildingBlock: XIVTED_clean_linker_0, # of connection points: 2
#     Edge 4, Type (0, 1), BuildingBlock: XIVTED_clean_linker_0, # of connection points: 2
#     Edge 5, Type (0, 1), BuildingBlock: XIVTED_clean_linker_0, # of connection points: 2
#     Edge 6, Type (0, 1), BuildingBlock: XIVTED_clean_linker_0, # of connection points: 2
#     Edge 7, Type (0, 1), BuildingBlock: XIVTED_clean_linker_0, # of connection points: 2
#     Edge 8, Type (0, 1), BuildingBlock: XIVTED_clean_linker_0, # of connection points: 2
#     Edge 9, Type (0, 1), BuildingBlock: XIVTED_clean_linker_0, # of connection points: 2
#     Edge 10, Type (0, 1), BuildingBlock: XIVTED_clean_linker_0, # of connection points: 2
# Relax obj value: 0.003
# Max RMSD: 0.097
# Mean RMSD: 0.074
data_MOF--net-scu--node1-VETTIZ_charged_sbu_0--node2-ESEHIV_clean_sbu_0--edge1-XIVTED_clean_linker_0
_symmetry_space_group_name_H-M    P1
_symmetry_Int_Tables_number       1
_symmetry_cell_setting            triclinic
loop_
_symmetry_equiv_pos_as_xyz
'x, y, z'
_cell_length_a     25.795273
_cell_length_b     26.669079
_cell_length_c     20.220159
_cell_angle_alpha  94.031896
_cell_angle_beta   93.870165
_cell_angle_gamma 89.58859
loop_
_atom_site_label
_atom_site_type_symbol
_atom_site_fract_x
_atom_site_fract_y
_atom_site_fract_z
_atom_type_partial_charge
Fe0 Fe 1.01713 0.02991 0.07905 0.0
O1 O 1.00982 0.07944 0.0092 0.0
Fe2 Fe 0.06991 0.92537 0.99595 0.0
Fe3 Fe 0.95655 0.13231 0.007 0.0
O4 O 1.01947 0.98002 0.00108 0.0
O5 O 1.01812 0.97971 0.99403 0.0
O6 O 1.01083 0.07969 0.00219 0.0
Fe7 Fe 1.01333 0.02928 0.92406 0.0
C8 C 0.90304 0.05226 0.08374 0.0
O9 O 1.01299 0.08978 0.15218 0.0
O10 O 0.99777 0.15955 0.09215 0.0
O11 O 0.09364 0.03488 0.9246 0.0
O12 O 0.11329 0.95353 0.92626 0.0
O13 O 0.12124 0.95915 0.06932 0.0
O14 O 0.09603 0.03929 0.08477 0.0
O15 O 1.0022 0.16031 0.93877 0.0
O16 O 1.01086 0.09139 0.86338 0.0
C17 C 0.13013 1.00488 0.09019 0.0
O18 O 1.01348 0.96708 0.85251 0.0
O19 O 1.02148 0.89824 0.91666 0.0
O20 O 0.93869 0.01965 0.07667 0.0
O21 O 0.90825 0.09771 0.06896 0.0
C22 C 1.00966 0.13806 0.1466 0.0
C23 C 1.01577 0.13928 0.88242 0.0
C24 C 0.90176 0.05829 0.9046 0.0
O25 O 0.91205 0.10325 0.9256 0.0
O26 O 0.93326 0.02261 0.91637 0.0
C27 C 0.12438 0.998 0.91364 0.0
O28 O 1.02944 0.90001 0.07115 0.0
O29 O 1.02568 0.97066 0.14293 0.0
C30 C 1.0085 0.91922 0.8617 0.0
C31 C 1.02426 0.92217 0.12942 0.0
Cu32 Cu 0.0613 0.5318 0.51832 0.0
N33 N 0.0984 0.49692 0.58315 0.0
N34 N 0.11605 0.43103 0.64362 0.0
C35 C 0.08273 0.45153 0.59886 0.0
C36 C 0.15419 0.46542 0.65744 0.0
C37 C 0.14332 0.50604 0.61969 0.0
O38 O 0.03233 0.47884 0.45651 0.0
C39 C 0.03473 0.61412 0.59315 0.0
O40 O 0.08557 0.61319 0.60251 0.0
H41 H 0.04711 0.43401 0.57769 0.0
H42 H 0.16669 0.53942 0.61868 0.0
N43 N 0.10032 0.57378 0.47092 0.0
N44 N 0.10854 0.64096 0.41238 0.0
C45 C 0.07626 0.6056 0.43027 0.0
C46 C 0.15015 0.58901 0.47885 0.0
C47 C 0.15532 0.63069 0.44264 0.0
C48 C 0.06757 0.45118 0.43155 0.0
O49 O 0.11633 0.46475 0.44408 0.0
H50 H 0.03466 0.60525 0.41875 0.0
H51 H 0.17969 0.57321 0.51177 0.0
O52 O 1.01188 0.5776 0.55935 0.0
H53 H 0.1879 0.46127 0.69149 0.0
H54 H 0.19021 0.6527 0.44077 0.0
Cu55 Cu 0.51422 0.99575 0.488 0.0
N56 N 0.4677 0.95942 0.53327 0.0
N57 N 0.40546 0.94962 0.60324 0.0
C58 C 0.43124 0.98227 0.5695 0.0
C59 C 0.42646 0.90417 0.58726 0.0
C60 C 0.46481 0.91031 0.54396 0.0
O61 O 0.47029 0.038 0.43224 0.0
C62 C 0.58987 0.99228 0.58533 0.0
O63 O 0.57852 0.94502 0.5681 0.0
H64 H 0.4255 0.02259 0.57331 0.0
H65 H 0.48989 0.88128 0.52391 0.0
N66 N 0.55556 0.95914 0.42873 0.0
N67 N 0.61406 0.95016 0.35177 0.0
C68 C 0.58893 0.98249 0.39292 0.0
C69 C 0.55953 0.90991 0.40991 0.0
C70 C 0.5958 0.90426 0.36251 0.0
C71 C 0.44561 1.01053 0.38647 0.0
O72 O 0.45208 0.96158 0.38492 0.0
H73 H 0.59478 0.02275 0.39772 0.0
H74 H 0.53732 0.88034 0.42836 0.0
O75 O 0.56408 0.02622 0.55574 0.0
H76 H 0.41552 0.8691 0.60625 0.0
H77 H 0.60705 0.86916 0.3372 0.0
H78 H 0.09721 0.15776 0.22806 0.0
H79 H 0.97206 0.40832 0.3947 0.0
H80 H 0.93611 0.19882 0.19633 0.0
H81 H 0.13693 0.3802 0.3906 0.0
H82 H 0.95577 0.3247 0.33873 0.0
H83 H 0.10987 0.2312 0.30797 0.0
C84 C 0.06427 0.18139 0.23971 0.0
C85 C 1.01561 0.17255 0.20628 0.0
C86 C 0.99548 0.33692 0.35038 0.0
C87 C 1.0297 0.25674 0.29543 0.0
C88 C 1.00475 0.38469 0.38198 0.0
C89 C 0.05587 0.40156 0.39658 0.0
C90 C 0.03765 0.30582 0.33381 0.0
C91 C 0.09681 0.3691 0.37967 0.0
C92 C 0.07149 0.22355 0.28453 0.0
C93 C 0.97419 0.20465 0.22162 0.0
N94 N 0.08682 0.32294 0.34913 0.0
N95 N 0.98222 0.24562 0.26469 0.0
H96 H 0.81993 0.11079 0.12142 0.0
H97 H 0.68964 0.88962 0.30175 0.0
H98 H 0.87813 0.95844 0.11852 0.0
H99 H 0.6265 0.03979 0.29803 0.0
H100 H 0.75656 0.91332 0.22992 0.0
H101 H 0.74638 0.08487 0.18153 0.0
C102 C 0.8171 0.07187 0.13281 0.0
C103 C 0.85562 0.03693 0.11504 0.0
C104 C 0.72794 0.94106 0.24468 0.0
C105 C 0.77161 1.00702 0.18433 0.0
C106 C 0.68949 0.92743 0.28553 0.0
C107 C 0.65246 0.96279 0.30674 0.0
C108 C 0.72953 0.99047 0.22471 0.0
C109 C 0.65472 1.01146 0.28432 0.0
C110 C 0.77512 0.05709 0.16731 0.0
C111 C 0.84971 0.98693 0.13134 0.0
N112 N 0.69264 0.02386 0.24487 0.0
N113 N 0.80882 0.97364 0.16525 0.0
H114 H 0.07635 0.93337 0.25221 0.0
H115 H 0.03044 0.64464 0.31689 0.0
H116 H 0.97493 0.83263 0.12858 0.0
H117 H 0.15089 0.7349 0.42394 0.0
H118 H 1.00136 0.71748 0.25829 0.0
H119 H 0.09402 0.86627 0.32816 0.0
C120 C 0.05652 0.89769 0.24228 0.0
C121 C 1.02419 0.88837 0.18412 0.0
C122 C 0.03414 0.72156 0.29461 0.0
C123 C 0.045 0.81147 0.26946 0.0
C124 C 0.05074 0.6799 0.32819 0.0
C125 C 0.09329 0.68355 0.37529 0.0
C126 C 0.06016 0.76758 0.30794 0.0
C127 C 0.11843 0.7302 0.38733 0.0
C128 C 0.06717 0.85923 0.28503 0.0
C129 C 1.00024 0.84124 0.17281 0.0
N130 N 0.1015 0.77046 0.35382 0.0
N131 N 1.01143 0.80451 0.2147 0.0
H132 H 0.15242 0.08224 0.18451 0.0
H133 H 0.4437 0.98627 0.25533 0.0
H134 H 0.22293 0.95627 0.0785 0.0
H135 H 0.36319 0.07569 0.40197 0.0
H136 H 0.37005 0.99545 0.17495 0.0
H137 H 0.23497 0.09756 0.25059 0.0
C138 C 0.18544 0.05825 0.1745 0.0
C139 C 0.1807 0.01756 0.12635 0.0
C140 C 0.36873 0.01401 0.2242 0.0
C141 C 0.27506 0.03532 0.20105 0.0
C142 C 0.41097 1.00924 0.26986 0.0
C143 C 0.40933 0.03026 0.33518 0.0
C144 C 0.32401 0.03945 0.24415 0.0
C145 C 0.36599 0.05934 0.35179 0.0
C146 C 0.23239 0.06698 0.21234 0.0
C147 C 0.22463 0.98763 0.11561 0.0
N148 N 0.32441 0.06241 0.30675 0.0
N149 N 0.26983 0.99706 0.15271 0.0
H150 H 0.9417 0.84191 0.86589 0.0
H151 H 0.05344 0.70424 0.54811 0.0
H152 H 0.03412 0.91537 0.73171 0.0
H153 H 0.95848 0.63177 0.68019 0.0
H154 H 1.02841 0.78615 0.59814 0.0
H155 H 0.92876 0.77097 0.78363 0.0
C156 C 0.95826 0.84352 0.81823 0.0
C157 C 0.9897 0.88408 0.80578 0.0
C158 C 1.01192 0.75257 0.6153 0.0
C159 C 0.97614 0.80241 0.71191 0.0
C160 C 1.02602 0.70586 0.58656 0.0
C161 C 1.00803 0.66155 0.61051 0.0
C162 C 0.98054 0.75489 0.66951 0.0
C163 C 0.97292 0.66527 0.66038 0.0
C164 C 0.95095 0.80294 0.77132 0.0
C165 C 1.0098 0.88467 0.74322 0.0
N166 N 0.96107 0.71124 0.68925 0.0
N167 N 1.00365 0.84382 0.69907 0.0
H168 H 0.21502 0.94856 0.93487 0.0
H169 H 0.33661 0.02747 0.6034 0.0
H170 H 0.14239 0.05845 0.81199 0.0
H171 H 0.38644 0.90013 0.71184 0.0
H172 H 0.27256 0.04812 0.68562 0.0
H173 H 0.28678 0.94149 0.86249 0.0
C174 C 0.21473 0.97197 0.89314 0.0
C175 C 0.17252 1.00386 0.87911 0.0
C176 C 0.29762 0.01576 0.6914 0.0
C177 C 0.25432 0.99508 0.79469 0.0
C178 C 0.33427 1.00398 0.6446 0.0
C179 C 0.36688 0.96179 0.65049 0.0
C180 C 0.2939 0.98545 0.74492 0.0
C181 C 0.36173 0.93248 0.70461 0.0
C182 C 0.25558 0.96763 0.85148 0.0
C183 C 0.17431 0.03355 0.82466 0.0
N184 N 0.32611 0.94491 0.7496 0.0
N185 N 0.21428 0.02794 0.78375 0.0
H186 H 0.08855 0.20857 0.92259 0.0
H187 H 0.06381 0.34889 0.58669 0.0
H188 H 1.0 0.14823 0.74693 0.0
H189 H 0.15532 0.40281 0.76358 0.0
H190 H 0.04707 0.27124 0.63889 0.0
H191 H 0.12139 0.27443 0.8595 0.0
C192 C 0.07646 0.20899 0.87025 0.0
C193 C 0.04108 0.17332 0.84 0.0
C194 C 0.07117 0.29986 0.66605 0.0
C195 C 0.07796 0.24947 0.76729 0.0
C196 C 0.08048 0.34447 0.63651 0.0
C197 C 0.11033 0.38303 0.67127 0.0
C198 C 0.09174 0.29364 0.73097 0.0
C199 C 0.13209 0.37435 0.73489 0.0
C200 C 0.09522 0.24668 0.8342 0.0
C201 C 1.02719 0.17514 0.77198 0.0
N202 N 0.12192 0.33088 0.76284 0.0
N203 N 0.04507 0.21321 0.73798 0.0
H204 H 0.83013 0.12736 0.86245 0.0
H205 H 0.64967 0.9247 0.65025 0.0
H206 H 0.86314 0.9681 0.84729 0.0
H207 H 0.63004 0.08457 0.63558 0.0
H208 H 0.72334 0.94059 0.7297 0.0
H209 H 0.75301 0.11266 0.78727 0.0
C210 C 0.82113 0.08917 0.84364 0.0
C211 C 0.85348 0.04884 0.86137 0.0
C212 C 0.70305 0.97231 0.70931 0.0
C213 C 0.76473 0.03197 0.77486 0.0
C214 C 0.6607 0.96336 0.6638 0.0
C215 C 0.63348 1.00344 0.63575 0.0
C216 C 0.71868 0.02181 0.72764 0.0
C217 C 0.64986 0.05256 0.65578 0.0
C218 C 0.77703 0.08094 0.80046 0.0
C219 C 0.83953 1.00034 0.83515 0.0
N220 N 0.6915 0.06039 0.70055 0.0
N221 N 0.79624 0.99331 0.79325 0.0
loop_
_geom_bond_atom_site_label_1
_geom_bond_atom_site_label_2
_geom_bond_distance
_geom_bond_site_symmetry_2
_ccdc_geom_bond_type
Fe0 O1 1.886 1_455 S
Fe0 O4 1.715 1_545 S
Fe0 O9 2.077 . S
Fe0 O14 1.935 . S
Fe0 O20 2.077 1_455 S
Fe0 O29 1.935 1_445 S
O1 Fe0 1.886 1_655 S
O1 Fe3 1.715 . S
Fe2 O4 1.886 . S
Fe2 O5 1.715 1_554 S
Fe2 O12 1.935 1_554 S
Fe2 O13 2.077 . S
Fe2 O19 1.935 1_554 S
Fe2 O28 2.077 . S
Fe3 O1 1.715 . S
Fe3 O6 1.886 1_554 S
Fe3 O10 1.935 . S
Fe3 O15 2.077 1_554 S
Fe3 O21 1.935 . S
Fe3 O25 2.077 1_554 S
O4 Fe0 1.715 1_565 S
O4 Fe2 1.886 . S
O5 Fe2 1.715 1_556 S
O5 Fe7 1.893 . S
O6 Fe3 1.886 1_556 S
O6 Fe7 1.709 1_645 S
Fe7 O5 1.893 . S
Fe7 O6 1.709 1_465 S
Fe7 O11 2.077 1_565 S
Fe7 O16 1.923 1_565 S
Fe7 O18 2.089 1_455 S
Fe7 O26 1.937 1_455 S
C8 O20 1.381 . S
C8 O21 1.421 . S
O9 Fe0 2.077 . S
O9 C22 1.381 1_455 S
O10 Fe3 1.935 . S
O10 C22 1.421 . S
O11 Fe7 2.077 1_545 S
O11 C27 1.381 1_545 S
O12 Fe2 1.935 1_556 S
O12 C27 1.421 . S
O13 Fe2 2.077 . S
O13 C17 1.381 . S
O14 Fe0 1.935 . S
O14 C17 1.421 1_545 S
O15 Fe3 2.077 1_556 S
O15 C23 1.381 . S
O16 Fe7 1.923 1_545 S
O16 C23 1.421 1_455 S
C17 O13 1.381 . S
C17 O14 1.421 1_565 S
O18 Fe7 2.089 1_655 S
O18 C30 1.381 1_655 S
O19 Fe2 1.935 1_556 S
O19 C30 1.421 . S
O20 Fe0 2.077 1_655 S
O20 C8 1.381 . S
O21 Fe3 1.935 . S
O21 C8 1.421 . S
C22 O9 1.381 1_655 S
C22 O10 1.421 . S
C23 O15 1.381 . S
C23 O16 1.421 1_655 S
C24 O25 1.381 . S
C24 O26 1.421 1_545 S
O25 Fe3 2.077 1_556 S
O25 C24 1.381 . S
O26 Fe7 1.937 1_655 S
O26 C24 1.421 1_565 S
C27 O11 1.381 1_565 S
C27 O12 1.421 . S
O28 Fe2 2.077 . S
O28 C31 1.381 . S
O29 Fe0 1.935 1_665 S
O29 C31 1.421 1_655 S
C30 O18 1.381 1_455 S
C30 O19 1.421 . S
C31 O28 1.381 . S
C31 O29 1.421 1_455 S
Cu32 N33 1.999 . S
Cu32 O38 1.974 . S
Cu32 N43 1.985 . S
Cu32 O52 1.959 . S
N33 Cu32 1.999 . S
N33 C35 1.263 . S
N33 C37 1.389 . S
N34 C35 1.358 . S
N34 C36 1.400 . S
C35 N33 1.263 . S
C35 N34 1.358 . S
C35 H41 0.930 1_655 S
C36 N34 1.400 . S
C36 C37 1.351 . S
C36 H53 0.930 . S
C37 N33 1.389 . S
C37 C36 1.351 . S
C37 H42 0.930 . S
O38 Cu32 1.974 . S
O38 C48 1.282 1_655 S
C39 O40 1.261 . S
C39 O52 1.251 1_455 S
O40 C39 1.261 . S
H41 C35 0.930 1_455 S
H42 C37 0.930 . S
N43 Cu32 1.985 . S
N43 C45 1.335 . S
N43 C46 1.390 1_655 S
N44 C45 1.345 . S
N44 C47 1.336 1_655 S
C45 N43 1.335 . S
C45 N44 1.345 . S
C45 H50 0.930 . S
C46 N43 1.390 1_455 S
C46 C47 1.346 . S
C46 H51 0.930 . S
C47 N44 1.336 1_455 S
C47 C46 1.346 . S
C47 H54 0.929 . S
C48 O38 1.282 1_455 S
C48 O49 1.216 . S
O49 C48 1.216 . S
H50 C45 0.930 . S
H51 C46 0.930 . S
O52 Cu32 1.959 . S
O52 C39 1.251 1_655 S
H53 C36 0.930 . S
H54 C47 0.929 . S
Cu55 N56 1.999 . S
Cu55 O61 1.974 . S
Cu55 N66 1.985 . S
Cu55 O75 1.959 . S
N56 Cu55 1.999 . S
N56 C58 1.263 . S
N56 C60 1.389 . S
N57 C58 1.358 . S
N57 C59 1.400 . S
C58 N56 1.263 . S
C58 N57 1.358 . S
C58 H64 0.930 1_545 S
C59 N57 1.400 . S
C59 C60 1.351 . S
C59 H76 0.930 . S
C60 N56 1.389 . S
C60 C59 1.351 . S
C60 H65 0.930 . S
O61 Cu55 1.974 . S
O61 C71 1.282 1_545 S
C62 O63 1.261 . S
C62 O75 1.251 1_565 S
O63 C62 1.261 . S
H64 C58 0.930 1_565 S
H65 C60 0.930 . S
N66 Cu55 1.985 . S
N66 C68 1.335 . S
N66 C69 1.390 1_545 S
N67 C68 1.345 . S
N67 C70 1.336 1_545 S
C68 N66 1.335 . S
C68 N67 1.345 . S
C68 H73 0.930 . S
C69 N66 1.390 1_565 S
C69 C70 1.346 . S
C69 H74 0.930 . S
C70 N67 1.336 1_565 S
C70 C69 1.346 . S
C70 H77 0.929 . S
C71 O61 1.282 1_565 S
C71 O72 1.216 . S
O72 C71 1.216 . S
H73 C68 0.930 . S
H74 C69 0.930 . S
O75 Cu55 1.959 . S
O75 C62 1.251 1_545 S
H76 C59 0.930 . S
H77 C70 0.929 . S
H78 C84 0.930 . S
H79 C88 0.930 . S
H80 C93 0.929 . S
H81 C91 0.931 . S
H82 C86 0.929 . S
H83 C92 0.929 . S
C84 H78 0.930 . S
C84 C85 1.367 1_655 S
C84 C92 1.378 . S
C85 C84 1.367 1_455 S
C85 C93 1.433 . S
C86 H82 0.929 . S
C86 C88 1.378 . S
C86 C90 1.350 . S
C87 C90 1.463 . S
C87 C92 1.350 1_455 S
C87 N95 1.427 . S
C88 H79 0.930 . S
C88 C86 1.378 . S
C88 C89 1.367 . S
C89 C88 1.367 . S
C89 C91 1.432 1_455 S
C90 C86 1.350 . S
C90 C87 1.463 . S
C90 N94 1.427 1_455 S
C91 H81 0.931 . S
C91 C89 1.432 1_655 S
C91 N94 1.383 . S
C92 H83 0.929 . S
C92 C84 1.378 . S
C92 C87 1.350 1_655 S
C93 H80 0.929 . S
C93 C85 1.433 . S
C93 N95 1.384 . S
N94 C90 1.427 1_655 S
N94 C91 1.383 . S
N95 C87 1.427 . S
N95 C93 1.384 . S
H96 C102 0.930 . S
H97 C106 0.930 . S
H98 C111 0.929 . S
H99 C109 0.929 . S
H100 C104 0.929 . S
H101 C110 0.929 . S
C102 H96 0.930 . S
C102 C103 1.367 . S
C102 C110 1.378 . S
C103 C102 1.367 . S
C103 C111 1.433 1_545 S
C104 H100 0.929 . S
C104 C106 1.378 . S
C104 C108 1.350 1_565 S
C105 C108 1.463 . S
C105 C110 1.350 . S
C105 N113 1.427 1_545 S
C106 H97 0.930 . S
C106 C104 1.378 . S
C106 C107 1.367 1_565 S
C107 C106 1.367 1_545 S
C107 C109 1.433 . S
C108 C104 1.350 1_545 S
C108 C105 1.463 . S
C108 N112 1.427 . S
C109 H99 0.929 . S
C109 C107 1.433 . S
C109 N112 1.384 . S
C110 H101 0.929 . S
C110 C102 1.378 . S
C110 C105 1.350 . S
C111 H98 0.929 . S
C111 C103 1.433 1_565 S
C111 N113 1.384 . S
N112 C108 1.427 . S
N112 C109 1.384 . S
N113 C105 1.427 1_565 S
N113 C111 1.384 . S
H114 C120 0.930 . S
H115 C124 0.930 . S
H116 C129 0.929 . S
H117 C127 0.929 . S
H118 C122 0.929 . S
H119 C128 0.929 . S
C120 H114 0.930 . S
C120 C121 1.367 . S
C120 C128 1.378 . S
C121 C120 1.367 . S
C121 C129 1.433 1_455 S
C122 H118 0.929 . S
C122 C124 1.378 . S
C122 C126 1.350 . S
C123 C126 1.460 1_455 S
C123 C128 1.364 . S
C123 N131 1.415 1_455 S
C124 H115 0.930 . S
C124 C122 1.378 . S
C124 C125 1.367 . S
C125 C124 1.367 . S
C125 C127 1.433 1_655 S
C126 C122 1.350 . S
C126 C123 1.460 1_655 S
C126 N130 1.427 1_655 S
C127 H117 0.929 . S
C127 C125 1.433 1_455 S
C127 N130 1.384 . S
C128 H119 0.929 . S
C128 C120 1.378 . S
C128 C123 1.364 . S
C129 H116 0.929 . S
C129 C121 1.433 1_655 S
C129 N131 1.384 . S
N130 C126 1.427 1_455 S
N130 C127 1.384 . S
N131 C123 1.415 1_655 S
N131 C129 1.384 . S
H132 C138 0.930 . S
H133 C142 0.930 . S
H134 C147 0.929 . S
H135 C145 0.930 . S
H136 C140 0.929 . S
H137 C146 0.929 . S
C138 H132 0.930 . S
C138 C139 1.367 . S
C138 C146 1.378 . S
C139 C138 1.367 . S
C139 C147 1.433 1_545 S
C140 H136 0.929 . S
C140 C142 1.378 . S
C140 C144 1.350 . S
C141 C144 1.462 1_545 S
C141 C146 1.351 . S
C141 N149 1.427 1_545 S
C142 H133 0.930 . S
C142 C140 1.378 . S
C142 C143 1.367 . S
C143 C142 1.367 . S
C143 C145 1.432 1_565 S
C144 C140 1.350 . S
C144 C141 1.462 1_565 S
C144 N148 1.427 1_565 S
C145 H135 0.930 . S
C145 C143 1.432 1_545 S
C145 N148 1.385 . S
C146 H137 0.929 . S
C146 C138 1.378 . S
C146 C141 1.351 . S
C147 H134 0.929 . S
C147 C139 1.433 1_565 S
C147 N149 1.384 . S
N148 C144 1.427 1_545 S
N148 C145 1.385 . S
N149 C141 1.427 1_565 S
N149 C147 1.384 . S
H150 C156 0.930 . S
H151 C160 0.930 . S
H152 C165 0.929 . S
H153 C163 0.929 . S
H154 C158 0.929 . S
H155 C164 0.929 . S
C156 H150 0.930 . S
C156 C157 1.367 1_655 S
C156 C164 1.378 . S
C157 C156 1.367 1_455 S
C157 C165 1.433 . S
C158 H154 0.929 . S
C158 C160 1.378 . S
C158 C162 1.350 . S
C159 C162 1.463 . S
C159 C164 1.350 1_455 S
C159 N167 1.427 . S
C160 H151 0.930 . S
C160 C158 1.378 . S
C160 C161 1.367 . S
C161 C160 1.367 . S
C161 C163 1.434 1_455 S
C162 C158 1.350 . S
C162 C159 1.463 . S
C162 N166 1.427 1_455 S
C163 H153 0.929 . S
C163 C161 1.434 1_655 S
C163 N166 1.383 . S
C164 H155 0.929 . S
C164 C156 1.378 . S
C164 C159 1.350 1_655 S
C165 H152 0.929 . S
C165 C157 1.433 . S
C165 N167 1.384 . S
N166 C162 1.427 1_655 S
N166 C163 1.383 . S
N167 C159 1.427 . S
N167 C165 1.384 . S
H168 C174 0.930 . S
H169 C178 0.930 . S
H170 C183 0.929 . S
H171 C181 0.929 . S
H172 C176 0.929 . S
H173 C182 0.929 . S
C174 H168 0.930 . S
C174 C175 1.352 1_565 S
C174 C182 1.378 . S
C175 C174 1.352 1_545 S
C175 C183 1.450 . S
C176 H172 0.929 . S
C176 C178 1.378 . S
C176 C180 1.350 . S
C177 C180 1.463 . S
C177 C182 1.350 1_545 S
C177 N185 1.427 . S
C178 H169 0.930 . S
C178 C176 1.378 . S
C178 C179 1.367 . S
C179 C178 1.367 . S
C179 C181 1.433 1_545 S
C180 C176 1.350 . S
C180 C177 1.463 . S
C180 N184 1.427 1_545 S
C181 H171 0.929 . S
C181 C179 1.433 1_565 S
C181 N184 1.384 . S
C182 H173 0.929 . S
C182 C174 1.378 . S
C182 C177 1.350 1_565 S
C183 H170 0.929 . S
C183 C175 1.450 . S
C183 N185 1.384 . S
N184 C180 1.427 1_565 S
N184 C181 1.384 . S
N185 C177 1.427 . S
N185 C183 1.384 . S
H186 C192 0.930 . S
H187 C196 0.930 . S
H188 C201 0.929 . S
H189 C199 0.929 . S
H190 C194 0.929 . S
H191 C200 0.929 . S
C192 H186 0.930 . S
C192 C193 1.367 1_455 S
C192 C200 1.378 . S
C193 C192 1.367 1_655 S
C193 C201 1.433 . S
C194 H190 0.929 . S
C194 C196 1.378 . S
C194 C198 1.350 . S
C195 C198 1.463 . S
C195 C200 1.350 1_655 S
C195 N203 1.427 . S
C196 H187 0.930 . S
C196 C194 1.378 . S
C196 C197 1.367 . S
C197 C196 1.367 . S
C197 C199 1.433 1_655 S
C198 C194 1.350 . S
C198 C195 1.463 . S
C198 N202 1.427 1_655 S
C199 H189 0.929 . S
C199 C197 1.433 1_455 S
C199 N202 1.384 . S
C200 H191 0.929 . S
C200 C192 1.378 . S
C200 C195 1.350 1_455 S
C201 H188 0.929 . S
C201 C193 1.433 . S
C201 N203 1.384 . S
N202 C198 1.427 1_455 S
N202 C199 1.384 . S
N203 C195 1.427 . S
N203 C201 1.384 . S
H204 C210 0.930 . S
H205 C214 0.930 . S
H206 C219 0.929 . S
H207 C217 0.929 . S
H208 C212 0.929 . S
H209 C218 0.929 . S
C210 H204 0.930 . S
C210 C211 1.365 1_545 S
C210 C218 1.378 . S
C211 C210 1.365 1_565 S
C211 C219 1.435 . S
C212 H208 0.929 . S
C212 C214 1.378 . S
C212 C216 1.350 . S
C213 C216 1.463 . S
C213 C218 1.350 1_565 S
C213 N221 1.427 . S
C214 H205 0.930 . S
C214 C212 1.378 . S
C214 C215 1.367 . S
C215 C214 1.367 . S
C215 C217 1.433 1_565 S
C216 C212 1.350 . S
C216 C213 1.463 . S
C216 N220 1.427 1_565 S
C217 H207 0.929 . S
C217 C215 1.433 1_545 S
C217 N220 1.384 . S
C218 H209 0.929 . S
C218 C210 1.378 . S
C218 C213 1.350 1_545 S
C219 H206 0.929 . S
C219 C211 1.435 . S
C219 N221 1.384 . S
N220 C216 1.427 1_545 S
N220 C217 1.384 . S
N221 C213 1.427 . S
N221 C219 1.384 . S
C85 C22 1.470 1_455 S
C89 C48 1.514 . S
C103 C8 1.349 . S
C107 N67 1.373 . S
C121 C31 1.371 . S
C125 N44 1.384 . S
C139 C17 1.457 1_545 S
C143 C71 1.518 . S
C157 C30 1.506 . S
C161 C39 1.568 . S
C175 C27 1.402 1_545 S
C179 N57 1.418 . S
C197 N34 1.418 . S
C193 C23 1.399 . S
C211 C24 1.512 1_565 S
C215 C62 1.564 . S
