# Generated by pormake.
# Topology pth, (4,4)-cn, num edge types: 1
# Building blocks:
#     Node 0, Type 0, BuildingBlock: NAHDIM_clean_sbu_0, # of connection points: 4
#     Node 1, Type 0, BuildingBlock: NAHDIM_clean_sbu_0, # of connection points: 4
#     Node 2, Type 0, BuildingBlock: NAHDIM_clean_sbu_0, # of connection points: 4
#     Node 3, Type 1, BuildingBlock: NAWXER_clean_sbu_0, # of connection points: 4
#     Node 4, Type 1, BuildingBlock: NAWXER_clean_sbu_0, # of connection points: 4
#     Node 5, Type 1, BuildingBlock: NAWXER_clean_sbu_0, # of connection points: 4
#     Edge 6, Type (0, 1), BuildingBlock: OJICUG_clean_linker_0, # of connection points: 2
#     Edge 7, Type (0, 1), BuildingBlock: OJICUG_clean_linker_0, # of connection points: 2
#     Edge 8, Type (0, 1), BuildingBlock: OJICUG_clean_linker_0, # of connection points: 2
#     Edge 9, Type (0, 1), BuildingBlock: OJICUG_clean_linker_0, # of connection points: 2
#     Edge 10, Type (0, 1), BuildingBlock: OJICUG_clean_linker_0, # of connection points: 2
#     Edge 11, Type (0, 1), BuildingBlock: OJICUG_clean_linker_0, # of connection points: 2
#     Edge 12, Type (0, 1), BuildingBlock: OJICUG_clean_linker_0, # of connection points: 2
#     Edge 13, Type (0, 1), BuildingBlock: OJICUG_clean_linker_0, # of connection points: 2
#     Edge 14, Type (0, 1), BuildingBlock: OJICUG_clean_linker_0, # of connection points: 2
#     Edge 15, Type (0, 1), BuildingBlock: OJICUG_clean_linker_0, # of connection points: 2
#     Edge 16, Type (0, 1), BuildingBlock: OJICUG_clean_linker_0, # of connection points: 2
#     Edge 17, Type (0, 1), BuildingBlock: OJICUG_clean_linker_0, # of connection points: 2
# Relax obj value: 0.052
# Max RMSD: 0.177
# Mean RMSD: 0.101
data_MOF--net-pth--node1-NAHDIM_clean_sbu_0--node2-NAWXER_clean_sbu_0--edge1-OJICUG_clean_linker_0
_symmetry_space_group_name_H-M    P1
_symmetry_Int_Tables_number       1
_symmetry_cell_setting            triclinic
loop_
_symmetry_equiv_pos_as_xyz
'x, y, z'
_cell_length_a     16.690963
_cell_length_b     16.766893
_cell_length_c     41.4402
_cell_angle_alpha  92.320883
_cell_angle_beta   89.958493
_cell_angle_gamma 120.67074
loop_
_atom_site_label
_atom_site_type_symbol
_atom_site_fract_x
_atom_site_fract_y
_atom_site_fract_z
_atom_type_partial_charge
C0 C 0.15011 0.98725 0.10582 0.0
O1 O 0.23053 0.05924 0.09856 0.0
O2 O 0.03745 0.15436 0.09026 0.0
Zn3 Zn 0.05538 0.05949 0.06467 0.0
O4 O 0.93992 0.97363 0.03787 0.0
C5 C 0.23426 0.20279 0.04379 0.0
O6 O 0.23506 0.23934 0.07253 0.0
O7 O 0.07481 0.97855 0.09469 0.0
C8 C 0.88327 0.99147 0.02394 0.0
O9 O 0.89799 0.07634 0.02586 0.0
C10 C 0.962 0.13885 0.10329 0.0
O11 O 0.88819 0.05504 0.10069 0.0
O12 O 0.16464 0.12426 0.03508 0.0
C13 C 0.04398 0.21222 0.36115 0.0
O14 O 0.9597 0.15502 0.37116 0.0
O15 O 0.05362 0.98088 0.3725 0.0
Zn16 Zn 0.07972 0.09539 0.39919 0.0
O17 O 0.96747 0.06902 0.42542 0.0
C18 C 0.25794 0.12668 0.42037 0.0
O19 O 0.25568 0.09232 0.39109 0.0
O20 O 0.11019 0.20048 0.36971 0.0
C21 C 0.90968 0.99373 0.4383 0.0
O22 O 0.92136 0.92198 0.43572 0.0
C23 C 0.97827 0.92708 0.35668 0.0
O24 O 0.91013 0.94477 0.3573 0.0
O25 O 0.18977 0.13505 0.42948 0.0
C26 C 0.1852 0.06174 0.69152 0.0
O27 O 0.2072 0.14531 0.70241 0.0
O28 O 0.94816 0.05168 0.70246 0.0
Zn29 Zn 0.02882 0.02123 0.72953 0.0
O30 O 0.11171 0.12976 0.76002 0.0
C31 C 0.8669 0.89241 0.76283 0.0
O32 O 0.83781 0.94599 0.75191 0.0
O33 O 0.10864 0.99286 0.69989 0.0
C34 C 0.08953 0.18215 0.77577 0.0
O35 O 1.00446 0.1671 0.77293 0.0
C36 C 0.97206 0.12982 0.69094 0.0
O37 O 0.0572 0.19998 0.69622 0.0
O38 O 0.94844 0.91004 0.75609 0.0
C39 C 0.96816 0.64331 0.27001 0.0
C40 C 0.96665 0.42722 0.18588 0.0
O41 O 0.04838 0.65545 0.26319 0.0
Zn42 Zn 0.11143 0.6012 0.23175 0.0
O43 O 0.89582 0.57927 0.25495 0.0
Zn44 Zn 0.95991 0.53253 0.22754 0.0
O45 O 0.01152 0.47864 0.26173 0.0
O46 O 0.16527 0.55375 0.26242 0.0
O47 O 0.89473 0.42627 0.19672 0.0
O48 O 0.04752 0.48857 0.19703 0.0
O49 O 0.18606 0.70765 0.2049 0.0
O50 O 0.03444 0.64501 0.19733 0.0
C51 C 0.08817 0.49007 0.27305 0.0
C52 C 0.11787 0.70656 0.19062 0.0
C53 C 0.71148 0.14784 0.60431 0.0
C54 C 0.51729 0.15694 0.51745 0.0
O55 O 0.64289 0.06871 0.59465 0.0
Zn56 Zn 0.53023 0.00883 0.56061 0.0
O57 O 0.72391 0.22111 0.59157 0.0
Zn58 Zn 0.61661 0.15983 0.56156 0.0
O59 O 0.50291 0.10699 0.59289 0.0
O60 O 0.42112 0.95407 0.58846 0.0
O61 O 0.58443 0.22777 0.53214 0.0
O62 O 0.49305 0.07521 0.52593 0.0
O63 O 0.56593 0.93519 0.5327 0.0
O64 O 0.65816 0.08681 0.52936 0.0
C65 C 0.43371 0.03006 0.60132 0.0
C66 C 0.6358 0.00393 0.52035 0.0
C67 C 0.47263 0.42676 0.94496 0.0
C68 C 0.63971 0.62424 0.85546 0.0
O69 O 0.4469 0.48416 0.93798 0.0
Zn70 Zn 0.47437 0.58593 0.90386 0.0
O71 O 0.5344 0.42192 0.92839 0.0
Zn72 Zn 0.55864 0.52094 0.89959 0.0
O73 O 0.61156 0.63913 0.93196 0.0
O74 O 0.51955 0.69813 0.93189 0.0
O75 O 0.65579 0.56456 0.8672 0.0
O76 O 0.57523 0.63585 0.86723 0.0
O77 O 0.35694 0.52952 0.87875 0.0
O78 O 0.43551 0.45758 0.87067 0.0
C79 C 0.5927 0.70063 0.94227 0.0
C80 C 0.36462 0.4651 0.86447 0.0
C81 C 0.8773 0.19921 0.1374 0.0
C82 C 0.95917 0.21428 0.12224 0.0
H83 H 0.81462 0.25531 0.16926 0.0
C84 C 0.04011 0.30209 0.1261 0.0
H85 H 0.81354 0.13244 0.13472 0.0
C86 C 0.04056 0.37182 0.14571 0.0
C87 C 0.96003 0.35599 0.16193 0.0
H88 H 0.10417 0.31661 0.11458 0.0
H89 H 0.1051 0.43784 0.14872 0.0
C90 C 0.87765 0.26963 0.15702 0.0
C91 C 0.81764 0.06506 0.45719 0.0
C92 C 0.83187 0.98947 0.45693 0.0
H93 H 0.74349 0.12738 0.47684 0.0
C94 C 0.77354 0.91283 0.47538 0.0
H95 H 0.86006 0.12463 0.44293 0.0
C96 C 0.70547 0.91424 0.49497 0.0
C97 C 0.69529 0.99246 0.4964 0.0
H98 H 0.78237 0.85318 0.47549 0.0
H99 H 0.664 0.8563 0.51 0.0
C100 C 0.75044 0.06653 0.47664 0.0
C101 C 0.7168 0.79849 0.7906 0.0
C102 C 0.80699 0.81664 0.78423 0.0
H103 H 0.59354 0.72297 0.81754 0.0
C104 C 0.8396 0.76473 0.79955 0.0
H105 H 0.68892 0.83626 0.77902 0.0
C106 C 0.78415 0.69873 0.82186 0.0
C107 C 0.69556 0.68408 0.82922 0.0
H108 H 0.90877 0.77686 0.79501 0.0
H109 H 0.81189 0.6619 0.83416 0.0
C110 C 0.66195 0.73327 0.81277 0.0
C111 C 0.05946 0.8338 0.13059 0.0
C112 C 0.14554 0.91494 0.1265 0.0
H113 H 0.98408 0.70502 0.15325 0.0
C114 C 0.22517 0.92545 0.14244 0.0
H115 H 0.99679 0.82262 0.1185 0.0
C116 C 0.21787 0.85698 0.16276 0.0
C117 C 0.13086 0.77696 0.16734 0.0
H118 H 0.29267 0.98712 0.13966 0.0
H119 H 0.27964 0.86759 0.17534 0.0
C120 C 0.05229 0.76592 0.1506 0.0
C121 C 0.38664 0.10307 0.43838 0.0
C122 C 0.33414 0.14628 0.44342 0.0
H123 H 0.48619 0.073 0.45832 0.0
C124 C 0.35144 0.20319 0.47156 0.0
H125 H 0.37497 0.05878 0.417 0.0
C126 C 0.41735 0.21339 0.49484 0.0
C127 C 0.46517 0.16524 0.49053 0.0
H128 H 0.31228 0.23773 0.47598 0.0
H129 H 0.42667 0.25407 0.517 0.0
C130 C 0.45051 0.11141 0.46193 0.0
C131 C 0.13807 0.31688 0.8161 0.0
C132 C 0.15955 0.25813 0.7976 0.0
H133 H 0.18629 0.42951 0.85184 0.0
C134 C 0.24934 0.27135 0.8004 0.0
H135 H 0.06949 0.30867 0.81437 0.0
C136 C 0.31534 0.3397 0.82165 0.0
C137 C 0.29387 0.39731 0.84074 0.0
H138 H 0.26879 0.22806 0.78642 0.0
H139 H 0.38345 0.34669 0.82324 0.0
C140 C 0.20487 0.38619 0.83747 0.0
C141 C 0.9308 0.22135 0.65458 0.0
C142 C 0.90447 0.13962 0.67084 0.0
H143 H 0.89006 0.28892 0.62075 0.0
C144 C 0.81263 0.06496 0.66698 0.0
H145 H 1.00102 0.28034 0.6572 0.0
C146 C 0.74971 0.07004 0.64638 0.0
C147 C 0.77665 0.14993 0.62901 0.0
H148 H 0.78945 1.00139 0.67939 0.0
H149 H 0.68012 0.01002 0.64355 0.0
C150 C 0.86728 0.22651 0.63383 0.0
C151 C 0.73993 0.93286 0.9881 0.0
C152 C 0.80309 0.91649 0.00494 0.0
H153 H 0.62209 0.87666 0.9551 0.0
C154 C 0.7908 0.82713 0.00289 0.0
H155 H 0.74719 1.00089 0.98938 0.0
C156 C 0.71999 0.75696 0.98348 0.0
C157 C 0.65899 0.77376 0.96563 0.0
H158 H 0.83723 0.81145 0.01575 0.0
H159 H 0.71426 0.68955 0.982 0.0
C160 C 0.66805 0.86179 0.96865 0.0
C161 C 0.89049 0.79091 0.31687 0.0
C162 C 0.97016 0.84818 0.33647 0.0
H163 H 0.82644 0.67989 0.28048 0.0
C164 C 0.04459 0.83173 0.33577 0.0
H165 H 0.83169 0.80151 0.31699 0.0
C166 C 0.04145 0.76265 0.31505 0.0
C167 C 0.96373 0.70775 0.29447 0.0
H168 H 0.10665 0.87369 0.35072 0.0
H169 H 0.10132 0.7537 0.31472 0.0
C170 C 0.8872 0.72102 0.29607 0.0
C171 C 0.22417 0.96299 0.6546 0.0
C172 C 0.24867 0.04978 0.6695 0.0
H173 H 0.2635 0.88783 0.6212 0.0
C174 C 0.3351 0.12737 0.66276 0.0
H175 H 0.15799 0.90177 0.6594 0.0
C176 C 0.39481 0.11938 0.64121 0.0
C177 C 0.3701 0.03352 0.62561 0.0
H178 H 0.35677 0.19511 0.67392 0.0
H179 H 0.46043 0.18151 0.63658 0.0
C180 C 0.2845 0.9549 0.6328 0.0
C181 C 0.36303 0.35434 0.02561 0.0
C182 C 0.30723 0.25766 0.02046 0.0
H183 H 0.45962 0.48361 0.00531 0.0
C184 C 0.3169 0.21586 0.99171 0.0
H185 H 0.35742 0.38876 0.04745 0.0
C186 C 0.37764 0.27046 0.96786 0.0
C187 C 0.428 0.36746 0.97228 0.0
H188 H 0.27512 0.14141 0.98716 0.0
H189 H 0.38044 0.23747 0.94521 0.0
C190 C 0.42181 0.40871 0.00157 0.0
C191 C 0.14703 0.34609 0.32633 0.0
C192 C 0.05989 0.2881 0.34009 0.0
H193 H 0.22531 0.45669 0.29425 0.0
C194 C 0.98572 0.3019 0.33319 0.0
H195 H 0.20573 0.3374 0.33134 0.0
C196 C 0.997 0.36964 0.31234 0.0
C197 C 0.0828 0.42579 0.29762 0.0
H198 H 0.91798 0.25947 0.34358 0.0
H199 H 0.93731 0.3768 0.30737 0.0
C200 C 0.15844 0.41458 0.30523 0.0
loop_
_geom_bond_atom_site_label_1
_geom_bond_atom_site_label_2
_geom_bond_distance
_geom_bond_site_symmetry_2
_ccdc_geom_bond_type
C0 O1 1.160 . S
C0 O7 1.185 . S
O1 C0 1.160 . S
O2 Zn3 1.899 . S
O2 C10 1.284 1_455 S
Zn3 O2 1.899 . S
Zn3 O4 2.032 1_445 S
Zn3 O7 2.086 1_545 S
Zn3 O12 1.977 . S
O4 Zn3 2.032 1_665 S
O4 C8 1.278 . S
C5 O6 1.203 . S
C5 O12 1.267 . S
O6 C5 1.203 . S
O7 C0 1.185 . S
O7 Zn3 2.086 1_565 S
C8 O4 1.278 . S
C8 O9 1.211 1_565 S
O9 C8 1.211 1_545 S
C10 O2 1.284 1_655 S
C10 O11 1.273 . S
O11 C10 1.273 . S
O12 Zn3 1.977 . S
O12 C5 1.267 . S
C13 O14 1.160 . S
C13 O20 1.185 . S
O14 C13 1.160 . S
O15 Zn16 1.899 . S
O15 C23 1.284 1_545 S
Zn16 O15 1.899 . S
Zn16 O17 2.032 1_455 S
Zn16 O20 2.086 . S
Zn16 O25 1.977 . S
O17 Zn16 2.032 1_655 S
O17 C21 1.278 . S
C18 O19 1.203 . S
C18 O25 1.267 . S
O19 C18 1.203 . S
O20 C13 1.185 . S
O20 Zn16 2.086 . S
C21 O17 1.278 . S
C21 O22 1.211 . S
O22 C21 1.211 . S
C23 O15 1.284 1_565 S
C23 O24 1.273 1_455 S
O24 C23 1.273 1_655 S
O25 Zn16 1.977 . S
O25 C18 1.267 . S
C26 O27 1.160 . S
C26 O33 1.185 1_545 S
O27 C26 1.160 . S
O28 Zn29 1.899 1_655 S
O28 C36 1.284 . S
Zn29 O28 1.899 1_455 S
Zn29 O30 2.032 . S
Zn29 O33 2.086 1_545 S
Zn29 O38 1.977 1_445 S
O30 Zn29 2.032 . S
O30 C34 1.278 . S
C31 O32 1.203 . S
C31 O38 1.267 . S
O32 C31 1.203 . S
O33 C26 1.185 1_565 S
O33 Zn29 2.086 1_565 S
C34 O30 1.278 . S
C34 O35 1.211 . S
O35 C34 1.211 . S
C36 O28 1.284 . S
C36 O37 1.273 . S
O37 C36 1.273 . S
O38 Zn29 1.977 1_665 S
O38 C31 1.267 . S
C39 O41 1.247 . S
C39 O43 1.258 1_455 S
C40 O47 1.247 1_455 S
C40 O48 1.258 . S
O41 C39 1.247 . S
O41 Zn42 2.028 . S
Zn42 O41 2.028 . S
Zn42 O46 2.035 . S
Zn42 O48 2.035 . S
Zn42 O49 2.028 . S
O43 C39 1.258 1_655 S
O43 Zn44 2.035 . S
Zn44 O43 2.035 . S
Zn44 O45 2.028 . S
Zn44 O47 2.028 . S
Zn44 O50 2.035 . S
O45 Zn44 2.028 . S
O45 C51 1.247 1_655 S
O46 Zn42 2.035 . S
O46 C51 1.258 . S
O47 C40 1.247 1_655 S
O47 Zn44 2.028 . S
O48 C40 1.258 . S
O48 Zn42 2.035 . S
O49 Zn42 2.028 . S
O49 C52 1.247 . S
O50 Zn44 2.035 . S
O50 C52 1.258 1_655 S
C51 O45 1.247 1_455 S
C51 O46 1.258 . S
C52 O49 1.247 . S
C52 O50 1.258 1_455 S
C53 O55 1.247 1_545 S
C53 O57 1.258 . S
C54 O61 1.247 . S
C54 O62 1.258 1_545 S
O55 C53 1.247 1_565 S
O55 Zn56 2.028 . S
Zn56 O55 2.028 . S
Zn56 O60 2.035 . S
Zn56 O62 2.035 . S
Zn56 O63 2.028 . S
O57 C53 1.258 . S
O57 Zn58 2.035 . S
Zn58 O57 2.035 . S
Zn58 O59 2.028 . S
Zn58 O61 2.028 . S
Zn58 O64 2.035 . S
O59 Zn58 2.028 . S
O59 C65 1.247 . S
O60 Zn56 2.035 . S
O60 C65 1.258 1_565 S
O61 C54 1.247 . S
O61 Zn58 2.028 . S
O62 C54 1.258 1_565 S
O62 Zn56 2.035 . S
O63 Zn56 2.028 . S
O63 C66 1.247 1_565 S
O64 Zn58 2.035 . S
O64 C66 1.258 . S
C65 O59 1.247 . S
C65 O60 1.258 1_545 S
C66 O63 1.247 1_545 S
C66 O64 1.258 . S
C67 O69 1.247 . S
C67 O71 1.258 . S
C68 O75 1.247 . S
C68 O76 1.258 . S
O69 C67 1.247 . S
O69 Zn70 2.028 . S
Zn70 O69 2.028 . S
Zn70 O74 2.035 . S
Zn70 O76 2.035 . S
Zn70 O77 2.028 . S
O71 C67 1.258 . S
O71 Zn72 2.035 . S
Zn72 O71 2.035 . S
Zn72 O73 2.028 . S
Zn72 O75 2.028 . S
Zn72 O78 2.035 . S
O73 Zn72 2.028 . S
O73 C79 1.247 . S
O74 Zn70 2.035 . S
O74 C79 1.258 . S
O75 C68 1.247 . S
O75 Zn72 2.028 . S
O76 C68 1.258 . S
O76 Zn70 2.035 . S
O77 Zn70 2.028 . S
O77 C80 1.247 . S
O78 Zn72 2.035 . S
O78 C80 1.258 . S
C79 O73 1.247 . S
C79 O74 1.258 . S
C80 O77 1.247 . S
C80 O78 1.258 . S
C81 C82 1.387 1_655 S
C81 H85 0.950 . S
C81 C90 1.390 . S
C82 C81 1.387 1_455 S
C82 C84 1.387 . S
H83 C90 0.950 . S
C84 C82 1.387 . S
C84 C86 1.390 . S
C84 H88 0.950 . S
H85 C81 0.950 . S
C86 C84 1.390 . S
C86 C87 1.387 . S
C86 H89 0.950 . S
C87 C86 1.387 . S
C87 C90 1.387 1_455 S
H88 C84 0.950 . S
H89 C86 0.950 . S
C90 C81 1.390 . S
C90 H83 0.950 . S
C90 C87 1.387 1_655 S
C91 C92 1.387 . S
C91 H95 0.950 . S
C91 C100 1.390 . S
C92 C91 1.387 . S
C92 C94 1.387 1_545 S
H93 C100 0.950 . S
C94 C92 1.387 1_565 S
C94 C96 1.390 . S
C94 H98 0.950 . S
H95 C91 0.950 . S
C96 C94 1.390 . S
C96 C97 1.387 1_565 S
C96 H99 0.950 . S
C97 C96 1.387 1_545 S
C97 C100 1.387 . S
H98 C94 0.950 . S
H99 C96 0.950 . S
C100 C91 1.390 . S
C100 H93 0.950 . S
C100 C97 1.387 . S
C101 C102 1.387 . S
C101 H105 0.950 . S
C101 C110 1.390 . S
C102 C101 1.387 . S
C102 C104 1.387 . S
H103 C110 0.950 . S
C104 C102 1.387 . S
C104 C106 1.390 . S
C104 H108 0.950 . S
H105 C101 0.950 . S
C106 C104 1.390 . S
C106 C107 1.387 . S
C106 H109 0.950 . S
C107 C106 1.387 . S
C107 C110 1.387 . S
H108 C104 0.950 . S
H109 C106 0.950 . S
C110 C101 1.390 . S
C110 H103 0.950 . S
C110 C107 1.387 . S
C111 C112 1.387 . S
C111 H115 0.950 . S
C111 C120 1.390 . S
C112 C111 1.387 . S
C112 C114 1.387 . S
H113 C120 0.950 1_655 S
C114 C112 1.387 . S
C114 C116 1.390 . S
C114 H118 0.950 . S
H115 C111 0.950 . S
C116 C114 1.390 . S
C116 C117 1.387 . S
C116 H119 0.950 . S
C117 C116 1.387 . S
C117 C120 1.387 . S
H118 C114 0.950 . S
H119 C116 0.950 . S
C120 C111 1.390 . S
C120 H113 0.950 1_455 S
C120 C117 1.387 . S
C121 C122 1.387 . S
C121 H125 0.950 1_545 S
C121 C130 1.390 1_545 S
C122 C121 1.387 . S
C122 C124 1.387 . S
H123 C130 0.950 . S
C124 C122 1.387 . S
C124 C126 1.390 . S
C124 H128 0.950 . S
H125 C121 0.950 1_565 S
C126 C124 1.390 . S
C126 C127 1.387 . S
C126 H129 0.950 . S
C127 C126 1.387 . S
C127 C130 1.387 1_545 S
H128 C124 0.950 . S
H129 C126 0.950 . S
C130 C121 1.390 1_565 S
C130 H123 0.950 . S
C130 C127 1.387 1_565 S
C131 C132 1.387 . S
C131 H135 0.950 . S
C131 C140 1.390 . S
C132 C131 1.387 . S
C132 C134 1.387 . S
H133 C140 0.950 . S
C134 C132 1.387 . S
C134 C136 1.390 . S
C134 H138 0.950 . S
H135 C131 0.950 . S
C136 C134 1.390 . S
C136 C137 1.387 . S
C136 H139 0.950 . S
C137 C136 1.387 . S
C137 C140 1.387 . S
H138 C134 0.950 . S
H139 C136 0.950 . S
C140 C131 1.390 . S
C140 H133 0.950 . S
C140 C137 1.387 . S
C141 C142 1.387 . S
C141 H145 0.950 . S
C141 C150 1.390 . S
C142 C141 1.387 . S
C142 C144 1.387 1_545 S
H143 C150 0.950 . S
C144 C142 1.387 1_565 S
C144 C146 1.390 . S
C144 H148 0.950 . S
H145 C141 0.950 . S
C146 C144 1.390 . S
C146 C147 1.387 1_565 S
C146 H149 0.950 . S
C147 C146 1.387 1_545 S
C147 C150 1.387 . S
H148 C144 0.950 . S
H149 C146 0.950 . S
C150 C141 1.390 . S
C150 H143 0.950 . S
C150 C147 1.387 . S
C151 C152 1.380 1_556 S
C151 H155 0.937 1_556 S
C151 C160 1.412 . S
C152 C151 1.380 1_554 S
C152 C154 1.387 1_554 S
H153 C160 0.950 . S
C154 C152 1.387 1_556 S
C154 C156 1.390 . S
C154 H158 0.950 . S
H155 C151 0.937 1_554 S
C156 C154 1.390 . S
C156 C157 1.387 . S
C156 H159 0.950 . S
C157 C156 1.387 . S
C157 C160 1.387 . S
H158 C154 0.950 . S
H159 C156 0.950 . S
C160 C151 1.412 . S
C160 H153 0.950 . S
C160 C157 1.387 . S
C161 C162 1.387 1_655 S
C161 H165 0.950 . S
C161 C170 1.390 . S
C162 C161 1.387 1_455 S
C162 C164 1.387 . S
H163 C170 0.950 . S
C164 C162 1.387 . S
C164 C166 1.390 . S
C164 H168 0.950 . S
H165 C161 0.950 . S
C166 C164 1.390 . S
C166 C167 1.387 . S
C166 H169 0.950 . S
C167 C166 1.387 . S
C167 C170 1.387 1_455 S
H168 C164 0.950 . S
H169 C166 0.950 . S
C170 C161 1.390 . S
C170 H163 0.950 . S
C170 C167 1.387 1_655 S
C171 C172 1.387 1_565 S
C171 H175 0.950 . S
C171 C180 1.390 . S
C172 C171 1.387 1_545 S
C172 C174 1.387 . S
H173 C180 0.950 . S
C174 C172 1.387 . S
C174 C176 1.390 . S
C174 H178 0.950 . S
H175 C171 0.950 . S
C176 C174 1.390 . S
C176 C177 1.387 . S
C176 H179 0.950 . S
C177 C176 1.387 . S
C177 C180 1.387 1_545 S
H178 C174 0.950 . S
H179 C176 0.950 . S
C180 C171 1.390 . S
C180 H173 0.950 . S
C180 C177 1.387 1_565 S
C181 C182 1.387 . S
C181 H185 0.950 . S
C181 C190 1.390 1_554 S
C182 C181 1.387 . S
C182 C184 1.387 1_554 S
H183 C190 0.941 1_554 S
C184 C182 1.387 1_556 S
C184 C186 1.390 . S
C184 H188 0.950 . S
H185 C181 0.950 . S
C186 C184 1.390 . S
C186 C187 1.387 . S
C186 H189 0.950 . S
C187 C186 1.387 . S
C187 C190 1.387 . S
H188 C184 0.950 . S
H189 C186 0.950 . S
C190 C181 1.390 1_556 S
C190 H183 0.941 1_556 S
C190 C187 1.387 . S
C191 C192 1.387 . S
C191 H195 0.950 . S
C191 C200 1.390 . S
C192 C191 1.387 . S
C192 C194 1.387 . S
H193 C200 0.950 . S
C194 C192 1.387 . S
C194 C196 1.390 . S
C194 H198 0.950 . S
H195 C191 0.950 . S
C196 C194 1.390 . S
C196 C197 1.387 . S
C196 H199 0.950 1_455 S
C197 C196 1.387 . S
C197 C200 1.387 . S
H198 C194 0.950 . S
H199 C196 0.950 1_655 S
C200 C191 1.390 . S
C200 H193 0.950 . S
C200 C197 1.387 . S
C87 C40 1.445 . S
C82 C10 1.447 1_455 S
C92 C21 1.448 . S
C97 C66 1.492 . S
C102 C31 1.394 . S
C107 C68 1.473 . S
C112 C0 1.397 . S
C117 C52 1.458 . S
C127 C54 1.469 . S
C122 C18 1.386 . S
C132 C34 1.407 . S
C137 C80 1.447 . S
C147 C53 1.445 . S
C142 C36 1.451 . S
C152 C8 1.409 . S
C157 C79 1.450 . S
C167 C39 1.448 . S
C162 C23 1.450 . S
C177 C65 1.413 . S
C172 C26 1.353 . S
C187 C67 1.473 . S
C182 C5 1.390 . S
C192 C13 1.402 . S
C197 C51 1.467 . S
