# Generated by pormake.
# Topology tsx, (6,3)-cn, num edge types: 1
# Building blocks:
#     Node 0, Type 0, BuildingBlock: MIDCAF_clean_sbu_0, # of connection points: 6
#     Node 1, Type 0, BuildingBlock: MIDCAF_clean_sbu_0, # of connection points: 6
#     Node 2, Type 1, BuildingBlock: OLANEW_clean_sbu_2, # of connection points: 3
#     Node 3, Type 1, BuildingBlock: OLANEW_clean_sbu_2, # of connection points: 3
#     Node 4, Type 1, BuildingBlock: OLANEW_clean_sbu_2, # of connection points: 3
#     Node 5, Type 1, BuildingBlock: OLANEW_clean_sbu_2, # of connection points: 3
#     Edge 6, Type (0, 1), None
#     Edge 7, Type (0, 1), None
#     Edge 8, Type (0, 1), None
#     Edge 9, Type (0, 1), None
#     Edge 10, Type (0, 1), None
#     Edge 11, Type (0, 1), None
#     Edge 12, Type (0, 1), None
#     Edge 13, Type (0, 1), None
#     Edge 14, Type (0, 1), None
#     Edge 15, Type (0, 1), None
#     Edge 16, Type (0, 1), None
#     Edge 17, Type (0, 1), None
# Relax obj value: 0.069
# Max RMSD: 0.155
# Mean RMSD: 0.089
data_MOF--net-tsx--node1-MIDCAF_clean_sbu_0--node2-OLANEW_clean_sbu_2--edge1-none
_symmetry_space_group_name_H-M    P1
_symmetry_Int_Tables_number       1
_symmetry_cell_setting            triclinic
loop_
_symmetry_equiv_pos_as_xyz
'x, y, z'
_cell_length_a     10.879573
_cell_length_b     11.16357
_cell_length_c     16.034636
_cell_angle_alpha  99.440933
_cell_angle_beta   97.659722
_cell_angle_gamma 86.177613
loop_
_atom_site_label
_atom_site_type_symbol
_atom_site_fract_x
_atom_site_fract_y
_atom_site_fract_z
_atom_type_partial_charge
Zn0 Zn 0.84632 0.91497 0.90631 0.0
Zn1 Zn 0.28569 0.19712 0.16916 0.0
Zn2 Zn 0.02007 0.01512 0.01739 0.0
C3 C 0.10512 0.28025 0.06008 0.0
C4 C 0.31784 0.98225 1.009 0.0
O5 O 0.95334 0.86967 0.07459 0.0
O6 O 0.8414 0.76752 0.96405 0.0
C7 C 0.7772 0.16154 0.97754 0.0
O8 O 0.01884 0.20978 0.06639 0.0
O9 O 0.16365 0.3328 0.12874 0.0
O10 O 0.35432 0.05476 0.07743 0.0
O11 O 0.20261 0.97254 0.97763 0.0
O12 O 0.73336 0.0624 0.93879 0.0
O13 O 0.89219 0.16708 1.00718 0.0
O14 O 0.10641 0.95734 0.90207 0.0
O15 O 0.94431 0.91098 0.80582 0.0
C16 C 0.05884 0.93019 0.82391 0.0
O17 O 0.02738 0.94068 0.13415 0.0
O18 O 0.17654 0.05979 0.14807 0.0
C19 C 0.88971 0.77727 0.04091 0.0
C20 C 0.10812 0.00369 0.18385 0.0
Zn21 Zn 0.78569 0.69712 0.66917 0.0
Zn22 Zn 0.34632 0.41497 0.40631 0.0
Zn23 Zn 0.52007 0.51512 0.51739 0.0
C24 C 0.55884 0.43019 0.32391 0.0
C25 C 0.2772 0.66154 0.47754 0.0
O26 O 0.52738 0.44067 0.63415 0.0
O27 O 0.67654 0.55978 0.64807 0.0
C28 C 0.81783 0.48225 0.509 0.0
O29 O 0.6064 0.45734 0.40207 0.0
O30 O 0.44431 0.41098 0.30582 0.0
O31 O 0.23336 0.5624 0.43879 0.0
O32 O 0.39219 0.66708 0.50718 0.0
O33 O 0.85432 0.55476 0.57743 0.0
O34 O 0.70261 0.47254 0.47762 0.0
O35 O 0.51884 0.70978 0.56639 0.0
O36 O 0.66364 0.8328 0.62874 0.0
C37 C 0.60512 0.78025 0.56008 0.0
O38 O 0.45334 0.36967 0.57459 0.0
O39 O 0.3414 0.26752 0.46405 0.0
C40 C 0.60813 0.50369 0.68385 0.0
C41 C 0.38971 0.27727 0.54091 0.0
O42 O 0.0268 0.97639 0.30852 0.0
Cd43 Cd 0.04456 0.97791 0.46106 0.0
O44 O 0.16245 0.11815 0.31997 0.0
Cd45 Cd 0.11065 0.21096 0.44233 0.0
O46 O 0.00969 0.36516 0.51051 0.0
C47 C 0.90796 0.39512 0.46865 0.0
O48 O 0.87455 0.33163 0.39351 0.0
C49 C 0.10125 0.0318 0.27542 0.0
C50 C 0.19643 0.77152 0.48039 0.0
O51 O 0.24257 0.8758 0.49079 0.0
O52 O 0.0783 0.76485 0.46498 0.0
O53 O 0.24605 0.96854 0.77497 0.0
Cd54 Cd 0.38725 0.97187 0.66819 0.0
O55 O 0.09617 0.90025 0.67702 0.0
Cd56 Cd 0.91491 0.83926 0.60961 0.0
O57 O 0.78939 0.77192 0.49296 0.0
C58 C 0.67431 0.75164 0.48641 0.0
O59 O 0.61513 0.71219 0.41112 0.0
C60 C 0.13672 0.93067 0.75551 0.0
C61 C 0.38199 0.17808 0.58934 0.0
O62 O 0.30941 0.09176 0.55975 0.0
O63 O 0.45321 0.17121 0.65898 0.0
O64 O 0.5268 0.47639 0.80852 0.0
Cd65 Cd 0.54456 0.47791 0.96106 0.0
O66 O 0.66245 0.61815 0.81997 0.0
Cd67 Cd 0.61065 0.71096 0.94233 0.0
O68 O 0.5097 0.86516 1.01051 0.0
C69 C 0.40796 0.89512 0.96865 0.0
O70 O 0.37455 0.83163 0.89351 0.0
C71 C 0.60126 0.5318 0.77542 0.0
C72 C 0.69643 0.27152 0.98039 0.0
O73 O 0.74257 0.3758 0.99079 0.0
O74 O 0.57831 0.26485 0.96498 0.0
O75 O 0.74605 0.46854 0.27497 0.0
Cd76 Cd 0.88725 0.47187 0.16819 0.0
O77 O 0.59617 0.40025 0.17701 0.0
Cd78 Cd 0.41491 0.33926 0.10961 0.0
O79 O 0.28939 0.27192 0.99295 0.0
C80 C 0.17431 0.25164 0.9864 0.0
O81 O 0.11513 0.21219 0.91112 0.0
C82 C 0.63672 0.43067 0.25551 0.0
C83 C 0.88199 0.67808 0.08934 0.0
O84 O 0.80941 0.59176 0.05975 0.0
O85 O 0.95321 0.67121 0.15898 0.0
loop_
_geom_bond_atom_site_label_1
_geom_bond_atom_site_label_2
_geom_bond_distance
_geom_bond_site_symmetry_2
_ccdc_geom_bond_type
Zn0 O6 1.920 . S
Zn0 O12 1.898 1_565 S
Zn0 O15 1.905 . S
Zn1 O9 1.905 . S
Zn1 O10 1.898 1_545 S
Zn1 O18 1.920 1_545 S
Zn2 O5 2.080 1_444 S
Zn2 O8 2.114 . S
Zn2 O11 2.120 1_544 S
Zn2 O13 2.120 1_455 S
Zn2 O14 2.114 1_554 S
Zn2 O17 2.080 . S
C3 O8 1.166 . S
C3 O9 1.182 . S
C4 O10 1.167 1_556 S
C4 O11 1.299 . S
O5 Zn2 2.080 1_666 S
O5 C19 1.305 . S
O6 Zn0 1.920 . S
O6 C19 1.234 . S
C7 O12 1.167 . S
C7 O13 1.299 1_556 S
O8 Zn2 2.114 . S
O8 C3 1.166 . S
O9 Zn1 1.905 . S
O9 C3 1.182 . S
O10 Zn1 1.898 1_565 S
O10 C4 1.167 1_554 S
O11 Zn2 2.120 1_566 S
O11 C4 1.299 . S
O12 Zn0 1.898 1_545 S
O12 C7 1.167 . S
O13 Zn2 2.120 1_655 S
O13 C7 1.299 1_554 S
O14 Zn2 2.114 1_556 S
O14 C16 1.166 1_445 S
O15 Zn0 1.905 . S
O15 C16 1.182 . S
C16 O14 1.166 1_665 S
C16 O15 1.182 . S
O17 Zn2 2.080 . S
O17 C20 1.305 1_545 S
O18 Zn1 1.920 1_565 S
O18 C20 1.234 . S
C19 O5 1.305 . S
C19 O6 1.234 . S
C20 O17 1.305 1_565 S
C20 O18 1.234 . S
Zn21 O27 1.920 . S
Zn21 O33 1.898 . S
Zn21 O36 1.905 . S
Zn22 O30 1.905 . S
Zn22 O31 1.898 . S
Zn22 O39 1.920 . S
Zn23 O26 2.080 . S
Zn23 O29 2.114 . S
Zn23 O32 2.120 . S
Zn23 O34 2.120 . S
Zn23 O35 2.114 . S
Zn23 O38 2.080 . S
C24 O29 1.166 . S
C24 O30 1.182 . S
C25 O31 1.167 . S
C25 O32 1.299 . S
O26 Zn23 2.080 . S
O26 C40 1.305 . S
O27 Zn21 1.920 . S
O27 C40 1.234 . S
C28 O33 1.167 . S
C28 O34 1.299 . S
O29 Zn23 2.114 . S
O29 C24 1.166 . S
O30 Zn22 1.905 . S
O30 C24 1.182 . S
O31 Zn22 1.898 . S
O31 C25 1.167 . S
O32 Zn23 2.120 . S
O32 C25 1.299 . S
O33 Zn21 1.898 . S
O33 C28 1.167 . S
O34 Zn23 2.120 . S
O34 C28 1.299 . S
O35 Zn23 2.114 . S
O35 C37 1.166 . S
O36 Zn21 1.905 . S
O36 C37 1.182 . S
C37 O35 1.166 . S
C37 O36 1.182 . S
O38 Zn23 2.080 . S
O38 C41 1.305 . S
O39 Zn22 1.920 . S
O39 C41 1.234 . S
C40 O26 1.305 . S
C40 O27 1.234 . S
C41 O38 1.305 . S
C41 O39 1.234 . S
O42 Cd43 2.300 1_565 S
O42 C49 1.275 1_565 S
Cd43 O42 2.300 1_545 S
Cd43 O51 2.381 1_545 S
Cd43 O52 2.378 1_545 S
O44 Cd45 2.385 . S
O44 C49 1.255 . S
Cd45 O44 2.385 . S
Cd45 O46 2.317 1_455 S
O46 Cd45 2.317 1_655 S
O46 C47 1.232 . S
C47 O46 1.232 . S
C47 O48 1.218 . S
O48 C47 1.218 . S
C49 O42 1.275 1_545 S
C49 O44 1.255 . S
C50 O51 1.258 . S
C50 O52 1.256 . S
O51 Cd43 2.381 1_565 S
O51 C50 1.258 . S
O52 Cd43 2.378 1_565 S
O52 C50 1.256 . S
O53 Cd54 2.300 . S
O53 C60 1.275 . S
Cd54 O53 2.300 . S
Cd54 O62 2.381 . S
Cd54 O63 2.378 . S
O55 Cd56 2.385 . S
O55 C60 1.255 1_565 S
Cd56 O55 2.385 . S
Cd56 O57 2.317 1_455 S
O57 Cd56 2.317 1_655 S
O57 C58 1.232 . S
C58 O57 1.232 . S
C58 O59 1.218 . S
O59 C58 1.218 . S
C60 O53 1.275 . S
C60 O55 1.255 1_545 S
C61 O62 1.258 . S
C61 O63 1.256 . S
O62 Cd54 2.381 . S
O62 C61 1.258 . S
O63 Cd54 2.378 . S
O63 C61 1.256 . S
O64 Cd65 2.300 . S
O64 C71 1.275 . S
Cd65 O64 2.300 . S
Cd65 O73 2.381 . S
Cd65 O74 2.378 1_556 S
O66 Cd67 2.385 . S
O66 C71 1.255 . S
Cd67 O66 2.385 . S
Cd67 O68 2.317 . S
O68 Cd67 2.317 . S
O68 C69 1.232 . S
C69 O68 1.232 . S
C69 O70 1.218 . S
O70 C69 1.218 . S
C71 O64 1.275 . S
C71 O66 1.255 . S
C72 O73 1.258 . S
C72 O74 1.256 1_556 S
O73 Cd65 2.381 . S
O73 C72 1.258 . S
O74 Cd65 2.378 1_554 S
O74 C72 1.256 1_554 S
O75 Cd76 2.300 . S
O75 C82 1.275 . S
Cd76 O75 2.300 . S
Cd76 O84 2.381 . S
Cd76 O85 2.378 1_554 S
O77 Cd78 2.385 . S
O77 C82 1.255 . S
Cd78 O77 2.385 . S
Cd78 O79 2.317 . S
O79 Cd78 2.317 . S
O79 C80 1.232 . S
C80 O79 1.232 . S
C80 O81 1.218 . S
O81 C80 1.218 . S
C82 O75 1.275 . S
C82 O77 1.255 . S
C83 O84 1.258 . S
C83 O85 1.256 1_554 S
O84 Cd76 2.381 . S
O84 C83 1.258 . S
O85 Cd76 2.378 1_556 S
O85 C83 1.256 1_556 S
C80 C3 0.714 . S
C4 C69 1.222 . S
C19 C83 1.546 1_556 S
C7 C72 1.330 . S
C37 C58 0.714 . S
C28 C47 1.222 . S
C61 C41 1.546 . S
C50 C25 1.330 . S
C20 C49 1.422 1_565 S
C16 C60 1.544 1_665 S
C71 C40 1.422 . S
C24 C82 1.544 . S
