# Generated by pormake.
# Topology pth, (4,4)-cn, num edge types: 1
# Building blocks:
#     Node 0, Type 0, BuildingBlock: NAHDIM_clean_sbu_0, # of connection points: 4
#     Node 1, Type 0, BuildingBlock: NAHDIM_clean_sbu_0, # of connection points: 4
#     Node 2, Type 0, BuildingBlock: NAHDIM_clean_sbu_0, # of connection points: 4
#     Node 3, Type 1, BuildingBlock: KOZSID_clean_sbu_0, # of connection points: 4
#     Node 4, Type 1, BuildingBlock: KOZSID_clean_sbu_0, # of connection points: 4
#     Node 5, Type 1, BuildingBlock: KOZSID_clean_sbu_0, # of connection points: 4
#     Edge 6, Type (0, 1), None
#     Edge 7, Type (0, 1), None
#     Edge 8, Type (0, 1), None
#     Edge 9, Type (0, 1), None
#     Edge 10, Type (0, 1), None
#     Edge 11, Type (0, 1), None
#     Edge 12, Type (0, 1), None
#     Edge 13, Type (0, 1), None
#     Edge 14, Type (0, 1), None
#     Edge 15, Type (0, 1), None
#     Edge 16, Type (0, 1), None
#     Edge 17, Type (0, 1), None
# Relax obj value: 0.042
# Max RMSD: 0.183
# Mean RMSD: 0.088
data_MOF--net-pth--node1-NAHDIM_clean_sbu_0--node2-KOZSID_clean_sbu_0--edge1-none
_symmetry_space_group_name_H-M    P1
_symmetry_Int_Tables_number       1
_symmetry_cell_setting            triclinic
loop_
_symmetry_equiv_pos_as_xyz
'x, y, z'
_cell_length_a     13.327404
_cell_length_b     13.433028
_cell_length_c     29.894219
_cell_angle_alpha  87.306267
_cell_angle_beta   84.674679
_cell_angle_gamma 120.89151
loop_
_atom_site_label
_atom_site_type_symbol
_atom_site_fract_x
_atom_site_fract_y
_atom_site_fract_z
_atom_type_partial_charge
C0 C 0.05846 0.92046 0.11054 0.0
O1 O 0.96577 0.92934 0.12133 0.0
O2 O 0.05101 0.17688 0.08713 0.0
Zn3 Zn 0.09564 0.09236 0.04332 0.0
O4 O 0.96397 0.9758 0.01186 0.0
C5 C 0.29629 0.31813 0.00231 0.0
O6 O 0.28372 0.35454 0.0412 0.0
O7 O 0.13666 0.99076 0.0785 0.0
C8 C 0.91006 0.99274 0.98244 0.0
O9 O 0.93361 0.09887 0.97088 0.0
C10 C 0.03274 0.25688 0.07413 0.0
O11 O 0.02839 0.27575 0.03106 0.0
O12 O 0.23106 0.21112 0.99645 0.0
C13 C 0.06044 0.33441 0.31771 0.0
O14 O 0.96754 0.23032 0.31646 0.0
O15 O 0.11708 0.0772 0.32143 0.0
Zn16 Zn 0.11582 0.18725 0.36585 0.0
O17 O 0.95631 0.12254 0.40299 0.0
C18 C 0.23536 0.11996 0.42186 0.0
O19 O 0.15008 0.01775 0.41337 0.0
O20 O 0.14734 0.34029 0.33457 0.0
C21 C 0.95063 0.19123 0.42946 0.0
O22 O 0.04922 0.28639 0.43513 0.0
C23 C 0.03318 0.97129 0.32461 0.0
O24 O 0.93938 0.93555 0.35444 0.0
O25 O 0.23867 0.21151 0.40615 0.0
C26 C 0.30044 0.11192 0.6404 0.0
O27 O 0.2852 0.19969 0.63168 0.0
O28 O 0.00891 0.07999 0.6585 0.0
Zn29 Zn 0.10206 0.05326 0.70193 0.0
O30 O 0.19433 0.19066 0.73651 0.0
C31 C 0.87916 0.84958 0.7395 0.0
O32 O 0.85043 0.85968 0.69945 0.0
O33 O 0.22331 0.02662 0.66843 0.0
C34 C 0.27457 0.18899 0.756 0.0
O35 O 0.28937 0.09999 0.75288 0.0
C36 C 0.99924 0.16876 0.65259 0.0
O37 O 0.06143 0.26023 0.67384 0.0
O38 O 0.98409 0.91767 0.74751 0.0
C39 C 0.17481 0.82569 0.13506 0.0
C40 C 0.28321 0.90669 0.11009 0.0
C41 C 0.36341 0.88003 0.12273 0.0
C42 C 0.30041 0.78492 0.15448 0.0
N43 N 0.18515 0.74909 0.16251 0.0
Co44 Co 0.063 0.61434 0.206 0.0
N45 N 0.18548 0.60775 0.23771 0.0
C46 C 0.30253 0.66787 0.22353 0.0
C47 C 0.36663 0.65019 0.25268 0.0
C48 C 0.285 0.57104 0.28689 0.0
C49 C 0.17466 0.54294 0.27622 0.0
N50 N 0.94069 0.47886 0.2491 0.0
C51 C 0.95132 0.4281 0.28724 0.0
C52 C 0.8409 0.3422 0.30921 0.0
C53 C 0.75988 0.33259 0.28205 0.0
C54 C 0.82443 0.4149 0.24573 0.0
N55 N 0.94178 0.62137 0.17448 0.0
C56 C 0.82818 0.53555 0.17635 0.0
C57 C 0.76704 0.56356 0.14903 0.0
C58 C 0.84712 0.67424 0.12893 0.0
C59 C 0.95265 0.70843 0.14579 0.0
N60 N 0.06435 0.50642 0.16437 0.0
C61 C 0.03925 0.34104 0.10558 0.0
C62 C 0.04671 0.44456 0.08966 0.0
C63 C 0.05997 0.52613 0.11945 0.0
C64 C 0.04727 0.32322 0.15131 0.0
C65 C 0.06002 0.40682 0.17998 0.0
N66 N 0.05816 0.72247 0.24689 0.0
C67 C 0.94182 0.78176 0.29165 0.0
C68 C 0.0432 0.8867 0.29731 0.0
C69 C 0.15303 0.90697 0.27798 0.0
C70 C 0.15866 0.82315 0.25334 0.0
C71 C 0.95106 0.70188 0.26616 0.0
H72 H 0.24406 0.84099 0.23879 0.0
H73 H 0.8704 0.62478 0.26119 0.0
H74 H 0.06465 0.60444 0.10606 0.0
H75 H 0.06468 0.38938 0.21481 0.0
C76 C 0.34979 0.7441 0.18381 0.0
C77 C 0.06302 0.82095 0.13205 0.0
C78 C 0.06282 0.44094 0.29818 0.0
C79 C 0.77807 0.44124 0.21003 0.0
H80 H 0.30485 0.97875 0.08563 0.0
H81 H 0.4577 0.92859 0.11195 0.0
H82 H 0.46149 0.68997 0.24945 0.0
H83 H 0.30577 0.53686 0.31568 0.0
H84 H 0.82132 0.28791 0.34054 0.0
H85 H 0.66527 0.27283 0.28813 0.0
H86 H 0.67429 0.51177 0.14548 0.0
H87 H 0.82947 0.72336 0.10451 0.0
H88 H 0.04336 0.46329 0.05438 0.0
H89 H 0.04386 0.24527 0.16501 0.0
H90 H 0.85511 0.76213 0.30602 0.0
H91 H 0.23401 0.98635 0.28214 0.0
C92 C 0.41446 0.01447 0.61063 0.0
C93 C 0.33377 0.90246 0.63144 0.0
C94 C 0.35662 0.82821 0.60934 0.0
C95 C 0.44989 0.89832 0.57666 0.0
N96 N 0.49053 0.0134 0.57738 0.0
Co97 Co 0.62219 0.1455 0.53463 0.0
N98 N 0.64444 0.03483 0.49803 0.0
C99 C 0.57991 0.91685 0.50459 0.0
C100 C 0.61931 0.86468 0.47551 0.0
C101 C 0.71703 0.95449 0.44966 0.0
C102 C 0.73209 0.05709 0.46468 0.0
N103 N 0.75273 0.27714 0.49198 0.0
C104 C 0.82638 0.27523 0.45813 0.0
C105 C 0.90241 0.38585 0.43528 0.0
C106 C 0.88088 0.46101 0.45743 0.0
C107 C 0.79185 0.39211 0.49183 0.0
N108 N 0.60097 0.25596 0.57117 0.0
C109 C 0.66668 0.37396 0.56521 0.0
C110 C 0.63283 0.42557 0.59676 0.0
C111 C 0.53745 0.33515 0.62351 0.0
C112 C 0.51711 0.23328 0.60603 0.0
N113 N 0.74012 0.1532 0.57277 0.0
C114 C 0.91146 0.16436 0.62455 0.0
C115 C 0.91365 0.2654 0.60952 0.0
C116 C 0.82858 0.25802 0.5835 0.0
C117 C 0.82215 0.05769 0.61326 0.0
C118 C 0.73777 0.05406 0.58788 0.0
N119 N 0.50441 0.1387 0.49659 0.0
C120 C 0.41903 0.23406 0.45789 0.0
C121 C 0.32815 0.12717 0.44766 0.0
C122 C 0.32786 0.02638 0.46182 0.0
C123 C 0.41603 0.03407 0.48591 0.0
C124 C 0.50536 0.23775 0.48223 0.0
H125 H 0.40979 0.95392 0.49605 0.0
H126 H 0.57087 0.32175 0.48952 0.0
H127 H 0.83718 0.33855 0.57208 0.0
H128 H 0.67205 0.97004 0.58064 0.0
C129 C 0.49254 0.85819 0.54187 0.0
C130 C 0.41084 0.11865 0.62022 0.0
C131 C 0.83524 0.17331 0.44978 0.0
C132 C 0.75191 0.43326 0.52721 0.0
H133 H 0.2634 0.87511 0.65892 0.0
H134 H 0.3075 0.73383 0.61511 0.0
H135 H 0.58481 0.77224 0.47475 0.0
H136 H 0.77184 0.94372 0.42386 0.0
H137 H 0.96983 0.41049 0.40674 0.0
H138 H 0.92818 0.55515 0.45052 0.0
H139 H 0.66994 0.51793 0.59894 0.0
H140 H 0.48603 0.34372 0.6516 0.0
H141 H 0.98148 0.35015 0.61726 0.0
H142 H 0.81614 0.97664 0.62436 0.0
H143 H 0.42343 0.31472 0.4475 0.0
H144 H 0.2597 0.94129 0.4545 0.0
C145 C 0.80869 0.68285 0.80136 0.0
C146 C 0.90573 0.67192 0.78976 0.0
C147 C 0.89695 0.58931 0.82077 0.0
C148 C 0.79533 0.55419 0.84927 0.0
N149 N 0.73752 0.60826 0.83813 0.0
Co150 Co 0.58846 0.5861 0.8716 0.0
N151 N 0.57532 0.4627 0.91672 0.0
C152 C 0.64917 0.42171 0.91736 0.0
C153 C 0.61473 0.33337 0.95105 0.0
C154 C 0.51163 0.31544 0.97305 0.0
C155 C 0.4893 0.39436 0.95132 0.0
N156 N 0.44214 0.56673 0.90621 0.0
C157 C 0.37283 0.49356 0.9436 0.0
C158 C 0.2813 0.5111 0.95758 0.0
C159 C 0.2925 0.59745 0.92778 0.0
C160 C 0.39 0.62799 0.89747 0.0
N161 N 0.59898 0.70552 0.82528 0.0
C162 C 0.52231 0.74297 0.82378 0.0
C163 C 0.55233 0.82552 0.78824 0.0
C164 C 0.65428 0.84203 0.76561 0.0
C165 C 0.68073 0.76775 0.78865 0.0
N166 N 0.49136 0.46233 0.83406 0.0
C167 C 0.35005 0.2844 0.7822 0.0
C168 C 0.32337 0.36877 0.79306 0.0
C169 C 0.39422 0.45581 0.81902 0.0
C170 C 0.44939 0.29123 0.79729 0.0
C171 C 0.51861 0.38053 0.82279 0.0
N172 N 0.68514 0.71114 0.9091 0.0
C173 C 0.74793 0.90063 0.93461 0.0
C174 C 0.82944 0.89421 0.95861 0.0
C175 C 0.83591 0.79358 0.95834 0.0
C176 C 0.76436 0.70435 0.93324 0.0
C177 C 0.67628 0.80835 0.9108 0.0
H178 H 0.77592 0.63158 0.93346 0.0
H179 H 0.61526 0.81876 0.89378 0.0
H180 H 0.36796 0.51631 0.82673 0.0
H181 H 0.59336 0.38137 0.83321 0.0
C182 C 0.75039 0.46823 0.88588 0.0
C183 C 0.78784 0.76457 0.77613 0.0
C184 C 0.38624 0.40206 0.96527 0.0
C185 C 0.42892 0.70661 0.85851 0.0
H186 H 0.97564 0.71847 0.76168 0.0
H187 H 0.95719 0.55813 0.82226 0.0
H188 H 0.65899 0.28713 0.95855 0.0
H189 H 0.45879 0.25146 0.00183 0.0
H190 H 0.2122 0.46489 0.98585 0.0
H191 H 0.23458 0.63166 0.92755 0.0
H192 H 0.50753 0.87109 0.78054 0.0
H193 H 0.70462 0.90447 0.73623 0.0
H194 H 0.24718 0.36696 0.78219 0.0
H195 H 0.47415 0.22813 0.78946 0.0
H196 H 0.739 0.97641 0.93422 0.0
H197 H 0.89821 0.78473 0.97641 0.0
loop_
_geom_bond_atom_site_label_1
_geom_bond_atom_site_label_2
_geom_bond_distance
_geom_bond_site_symmetry_2
_ccdc_geom_bond_type
C0 O1 1.160 . S
C0 O7 1.185 . S
O1 C0 1.160 . S
O2 Zn3 1.899 . S
O2 C10 1.284 . S
Zn3 O2 1.899 . S
Zn3 O4 2.032 1_545 S
Zn3 O7 2.086 1_545 S
Zn3 O12 1.977 1_554 S
O4 Zn3 2.032 1_565 S
O4 C8 1.278 1_454 S
C5 O6 1.203 . S
C5 O12 1.267 . S
O6 C5 1.203 . S
O7 C0 1.185 . S
O7 Zn3 2.086 1_565 S
C8 O4 1.278 1_656 S
C8 O9 1.211 1_665 S
O9 C8 1.211 1_445 S
C10 O2 1.284 . S
C10 O11 1.273 1_455 S
O11 C10 1.273 1_655 S
O12 Zn3 1.977 1_556 S
O12 C5 1.267 . S
C13 O14 1.160 . S
C13 O20 1.185 . S
O14 C13 1.160 . S
O15 Zn16 1.899 . S
O15 C23 1.284 1_545 S
Zn16 O15 1.899 . S
Zn16 O17 2.032 1_455 S
Zn16 O20 2.086 . S
Zn16 O25 1.977 . S
O17 Zn16 2.032 1_655 S
O17 C21 1.278 . S
C18 O19 1.203 . S
C18 O25 1.267 . S
O19 C18 1.203 . S
O20 C13 1.185 . S
O20 Zn16 2.086 . S
C21 O17 1.278 . S
C21 O22 1.211 . S
O22 C21 1.211 . S
C23 O15 1.284 1_565 S
C23 O24 1.273 1_455 S
O24 C23 1.273 1_655 S
O25 Zn16 1.977 . S
O25 C18 1.267 . S
C26 O27 1.160 . S
C26 O33 1.185 1_545 S
O27 C26 1.160 . S
O28 Zn29 1.899 . S
O28 C36 1.284 1_455 S
Zn29 O28 1.899 . S
Zn29 O30 2.032 . S
Zn29 O33 2.086 1_545 S
Zn29 O38 1.977 1_545 S
O30 Zn29 2.032 . S
O30 C34 1.278 . S
C31 O32 1.203 . S
C31 O38 1.267 1_655 S
O32 C31 1.203 . S
O33 C26 1.185 1_565 S
O33 Zn29 2.086 1_565 S
C34 O30 1.278 . S
C34 O35 1.211 . S
O35 C34 1.211 . S
C36 O28 1.284 1_655 S
C36 O37 1.273 1_655 S
O37 C36 1.273 1_455 S
O38 Zn29 1.977 1_565 S
O38 C31 1.267 1_455 S
C39 C40 1.443 . S
C39 N43 1.376 . S
C39 C77 1.389 . S
C40 C39 1.443 . S
C40 C41 1.340 . S
C40 H80 0.951 . S
C41 C40 1.340 . S
C41 C42 1.439 . S
C41 H81 0.950 . S
C42 C41 1.439 . S
C42 N43 1.374 . S
C42 C76 1.395 . S
N43 C39 1.376 . S
N43 C42 1.374 . S
N43 Co44 2.008 . S
Co44 N43 2.008 . S
Co44 N45 1.995 . S
Co44 N50 2.008 1_455 S
Co44 N55 1.995 1_455 S
Co44 N60 2.282 . S
Co44 N66 2.282 . S
N45 Co44 1.995 . S
N45 C46 1.376 . S
N45 C49 1.383 . S
C46 N45 1.376 . S
C46 C47 1.446 . S
C46 C76 1.391 . S
C47 C46 1.446 . S
C47 C48 1.339 . S
C47 H82 0.949 . S
C48 C47 1.339 . S
C48 C49 1.439 . S
C48 H83 0.950 . S
C49 N45 1.383 . S
C49 C48 1.439 . S
C49 C78 1.392 . S
N50 Co44 2.008 1_655 S
N50 C51 1.376 . S
N50 C54 1.374 . S
C51 N50 1.376 . S
C51 C52 1.443 . S
C51 C78 1.389 1_655 S
C52 C51 1.443 . S
C52 C53 1.340 . S
C52 H84 0.951 . S
C53 C52 1.340 . S
C53 C54 1.439 . S
C53 H85 0.950 . S
C54 N50 1.374 . S
C54 C53 1.439 . S
C54 C79 1.395 . S
N55 Co44 1.995 1_655 S
N55 C56 1.376 . S
N55 C59 1.383 . S
C56 N55 1.376 . S
C56 C57 1.446 . S
C56 C79 1.391 . S
C57 C56 1.446 . S
C57 C58 1.339 . S
C57 H86 0.949 . S
C58 C57 1.339 . S
C58 C59 1.439 . S
C58 H87 0.950 . S
C59 N55 1.383 . S
C59 C58 1.439 . S
C59 C77 1.392 1_655 S
N60 Co44 2.282 . S
N60 C63 1.332 1_455 S
N60 C65 1.332 . S
C61 C62 1.386 1_455 S
C61 C64 1.388 . S
C62 C61 1.386 1_655 S
C62 C63 1.382 . S
C62 H88 0.950 . S
C63 N60 1.332 1_655 S
C63 C62 1.382 . S
C63 H74 0.952 . S
C64 C61 1.388 . S
C64 C65 1.382 . S
C64 H89 0.950 . S
C65 N60 1.332 . S
C65 C64 1.382 . S
C65 H75 0.948 . S
N66 Co44 2.282 . S
N66 C70 1.332 . S
N66 C71 1.332 1_455 S
C67 C68 1.388 1_655 S
C67 C71 1.382 . S
C67 H90 0.950 . S
C68 C67 1.388 1_455 S
C68 C69 1.386 . S
C69 C68 1.386 . S
C69 C70 1.382 . S
C69 H91 0.950 . S
C70 N66 1.332 . S
C70 C69 1.382 . S
C70 H72 0.952 . S
C71 N66 1.332 1_655 S
C71 C67 1.382 . S
C71 H73 0.948 . S
H72 C70 0.952 . S
H73 C71 0.948 . S
H74 C63 0.952 . S
H75 C65 0.948 . S
C76 C42 1.395 . S
C76 C46 1.391 . S
C77 C39 1.389 . S
C77 C59 1.392 1_455 S
C78 C49 1.392 . S
C78 C51 1.389 1_455 S
C79 C54 1.395 . S
C79 C56 1.391 . S
H80 C40 0.951 . S
H81 C41 0.950 . S
H82 C47 0.949 . S
H83 C48 0.950 . S
H84 C52 0.951 . S
H85 C53 0.950 . S
H86 C57 0.949 . S
H87 C58 0.950 . S
H88 C62 0.950 . S
H89 C64 0.950 . S
H90 C67 0.950 . S
H91 C69 0.950 . S
C92 C93 1.443 1_545 S
C92 N96 1.376 . S
C92 C130 1.389 . S
C93 C92 1.443 1_565 S
C93 C94 1.340 . S
C93 H133 0.951 . S
C94 C93 1.340 . S
C94 C95 1.439 . S
C94 H134 0.950 . S
C95 C94 1.439 . S
C95 N96 1.374 1_565 S
C95 C129 1.395 . S
N96 C92 1.376 . S
N96 C95 1.374 1_545 S
N96 Co97 2.008 . S
Co97 N96 2.008 . S
Co97 N98 1.995 . S
Co97 N103 2.008 . S
Co97 N108 1.995 . S
Co97 N113 2.282 . S
Co97 N119 2.282 . S
N98 Co97 1.995 . S
N98 C99 1.376 1_545 S
N98 C102 1.383 . S
C99 N98 1.376 1_565 S
C99 C100 1.446 . S
C99 C129 1.391 . S
C100 C99 1.446 . S
C100 C101 1.339 . S
C100 H135 0.949 . S
C101 C100 1.339 . S
C101 C102 1.439 1_565 S
C101 H136 0.950 . S
C102 N98 1.383 . S
C102 C101 1.439 1_545 S
C102 C131 1.392 . S
N103 Co97 2.008 . S
N103 C104 1.376 . S
N103 C107 1.374 . S
C104 N103 1.376 . S
C104 C105 1.443 . S
C104 C131 1.389 . S
C105 C104 1.443 . S
C105 C106 1.340 . S
C105 H137 0.951 1_655 S
C106 C105 1.340 . S
C106 C107 1.439 . S
C106 H138 0.950 1_655 S
C107 N103 1.374 . S
C107 C106 1.439 . S
C107 C132 1.395 . S
N108 Co97 1.995 . S
N108 C109 1.376 . S
N108 C112 1.383 . S
C109 N108 1.376 . S
C109 C110 1.446 . S
C109 C132 1.391 . S
C110 C109 1.446 . S
C110 C111 1.339 . S
C110 H139 0.949 . S
C111 C110 1.339 . S
C111 C112 1.439 . S
C111 H140 0.950 . S
C112 N108 1.383 . S
C112 C111 1.439 . S
C112 C130 1.392 . S
N113 Co97 2.282 . S
N113 C116 1.332 . S
N113 C118 1.332 . S
C114 C115 1.386 . S
C114 C117 1.388 . S
C115 C114 1.386 . S
C115 C116 1.382 . S
C115 H141 0.950 . S
C116 N113 1.332 . S
C116 C115 1.382 . S
C116 H127 0.952 . S
C117 C114 1.388 . S
C117 C118 1.382 . S
C117 H142 0.950 1_545 S
C118 N113 1.332 . S
C118 C117 1.382 . S
C118 H128 0.948 1_545 S
N119 Co97 2.282 . S
N119 C123 1.332 . S
N119 C124 1.332 . S
C120 C121 1.388 . S
C120 C124 1.382 . S
C120 H143 0.950 . S
C121 C120 1.388 . S
C121 C122 1.386 . S
C122 C121 1.386 . S
C122 C123 1.382 . S
C122 H144 0.950 . S
C123 N119 1.332 . S
C123 C122 1.382 . S
C123 H125 0.952 . S
C124 N119 1.332 . S
C124 C120 1.382 . S
C124 H126 0.948 . S
H125 C123 0.952 . S
H126 C124 0.948 . S
H127 C116 0.952 . S
H128 C118 0.948 1_565 S
C129 C95 1.395 . S
C129 C99 1.391 . S
C130 C92 1.389 . S
C130 C112 1.392 . S
C131 C102 1.392 . S
C131 C104 1.389 . S
C132 C107 1.395 . S
C132 C109 1.391 . S
H133 C93 0.951 . S
H134 C94 0.950 . S
H135 C100 0.949 . S
H136 C101 0.950 . S
H137 C105 0.951 1_455 S
H138 C106 0.950 1_455 S
H139 C110 0.949 . S
H140 C111 0.950 . S
H141 C115 0.950 . S
H142 C117 0.950 1_565 S
H143 C120 0.950 . S
H144 C122 0.950 . S
C145 C146 1.443 . S
C145 N149 1.376 . S
C145 C183 1.389 . S
C146 C145 1.443 . S
C146 C147 1.340 . S
C146 H186 0.951 1_655 S
C147 C146 1.340 . S
C147 C148 1.439 . S
C147 H187 0.950 . S
C148 C147 1.439 . S
C148 N149 1.374 . S
C148 C182 1.395 . S
N149 C145 1.376 . S
N149 C148 1.374 . S
N149 Co150 2.008 . S
Co150 N149 2.008 . S
Co150 N151 1.995 . S
Co150 N156 2.008 . S
Co150 N161 1.995 . S
Co150 N166 2.282 . S
Co150 N172 2.282 . S
N151 Co150 1.995 . S
N151 C152 1.376 . S
N151 C155 1.383 . S
C152 N151 1.376 . S
C152 C153 1.446 . S
C152 C182 1.391 . S
C153 C152 1.446 . S
C153 C154 1.339 . S
C153 H188 0.949 . S
C154 C153 1.339 . S
C154 C155 1.439 . S
C154 H189 0.950 . S
C155 N151 1.383 . S
C155 C154 1.439 . S
C155 C184 1.392 . S
N156 Co150 2.008 . S
N156 C157 1.376 . S
N156 C160 1.374 . S
C157 N156 1.376 . S
C157 C158 1.443 . S
C157 C184 1.389 . S
C158 C157 1.443 . S
C158 C159 1.340 . S
C158 H190 0.951 . S
C159 C158 1.340 . S
C159 C160 1.439 . S
C159 H191 0.950 . S
C160 N156 1.374 . S
C160 C159 1.439 . S
C160 C185 1.395 . S
N161 Co150 1.995 . S
N161 C162 1.376 . S
N161 C165 1.383 . S
C162 N161 1.376 . S
C162 C163 1.446 . S
C162 C185 1.391 . S
C163 C162 1.446 . S
C163 C164 1.339 . S
C163 H192 0.949 . S
C164 C163 1.339 . S
C164 C165 1.439 . S
C164 H193 0.950 . S
C165 N161 1.383 . S
C165 C164 1.439 . S
C165 C183 1.392 . S
N166 Co150 2.282 . S
N166 C169 1.332 . S
N166 C171 1.332 . S
C167 C168 1.386 . S
C167 C170 1.388 . S
C168 C167 1.386 . S
C168 C169 1.382 . S
C168 H194 0.950 . S
C169 N166 1.332 . S
C169 C168 1.382 . S
C169 H180 0.952 . S
C170 C167 1.388 . S
C170 C171 1.382 . S
C170 H195 0.950 . S
C171 N166 1.332 . S
C171 C170 1.382 . S
C171 H181 0.948 . S
N172 Co150 2.282 . S
N172 C176 1.332 . S
N172 C177 1.332 . S
C173 C174 1.388 . S
C173 C177 1.382 . S
C173 H196 0.950 . S
C174 C173 1.388 . S
C174 C175 1.386 . S
C175 C174 1.386 . S
C175 C176 1.382 . S
C175 H197 0.950 . S
C176 N172 1.332 . S
C176 C175 1.382 . S
C176 H178 0.952 . S
C177 N172 1.332 . S
C177 C173 1.382 . S
C177 H179 0.948 . S
H178 C176 0.952 . S
H179 C177 0.948 . S
H180 C169 0.952 . S
H181 C171 0.948 . S
C182 C148 1.395 . S
C182 C152 1.391 . S
C183 C145 1.389 . S
C183 C165 1.392 . S
C184 C155 1.392 . S
C184 C157 1.389 . S
C185 C160 1.395 . S
C185 C162 1.391 . S
H186 C146 0.951 1_455 S
H187 C147 0.950 . S
H188 C153 0.949 . S
H189 C154 0.950 . S
H190 C158 0.951 . S
H191 C159 0.950 . S
H192 C163 0.949 . S
H193 C164 0.950 . S
H194 C168 0.950 . S
H195 C170 0.950 . S
H196 C173 0.950 . S
H197 C175 0.950 . S
C61 C10 1.451 . S
C21 C131 1.613 . S
C31 C183 1.472 . S
C0 C77 1.630 . S
C121 C18 1.365 . S
C34 C167 1.428 . S
C114 C36 1.461 . S
C8 C174 1.431 . S
C68 C23 1.472 . S
C130 C26 1.485 . S
C184 C5 1.492 . S
C13 C78 1.650 . S
