# Generated by pormake.
# Topology bcu-b, (8,8)-cn, num edge types: 1
# Building blocks:
#     Node 0, Type 0, BuildingBlock: TAGTUT_clean_sbu_1, # of connection points: 8
#     Node 1, Type 1, BuildingBlock: TAGTUT_clean_sbu_1, # of connection points: 8
#     Edge 2, Type (0, 1), None
#     Edge 3, Type (0, 1), None
#     Edge 4, Type (0, 1), None
#     Edge 5, Type (0, 1), None
#     Edge 6, Type (0, 1), None
#     Edge 7, Type (0, 1), None
#     Edge 8, Type (0, 1), None
#     Edge 9, Type (0, 1), None
# Relax obj value: 0.012
# Max RMSD: 0.067
# Mean RMSD: 0.067
data_MOF--net-bcu-b--node1-TAGTUT_clean_sbu_1--node2-TAGTUT_clean_sbu_1--edge1-none
_symmetry_space_group_name_H-M    P1
_symmetry_Int_Tables_number       1
_symmetry_cell_setting            triclinic
loop_
_symmetry_equiv_pos_as_xyz
'x, y, z'
_cell_length_a     10.529112
_cell_length_b     11.959517
_cell_length_c     10.444694
_cell_angle_alpha  88.310793
_cell_angle_beta   102.83467
_cell_angle_gamma 127.14246
loop_
_atom_site_label
_atom_site_type_symbol
_atom_site_fract_x
_atom_site_fract_y
_atom_site_fract_z
_atom_type_partial_charge
C0 C 0.75542 0.17469 0.22074 0.0
C1 C 0.76058 0.17627 0.82195 0.0
C2 C 0.69652 0.69295 0.8238 0.0
Mg3 Mg 0.01833 0.24551 0.07923 0.0
O4 O 0.90524 0.04816 0.08854 0.0
Mg5 Mg 0.66247 0.91263 1.00787 0.0
Mg6 Mg -0.02025 -0.05203 0.0157 0.0
O7 O 0.05211 0.84688 0.94225 0.0
Mg8 Mg 0.93724 0.64912 0.95096 0.0
Mg9 Mg 0.29444 -0.01898 0.02245 0.0
C10 C 0.25737 0.20044 0.20586 0.0
C11 C 0.21093 0.15139 0.81816 0.0
O12 O 0.65349 0.04933 0.15455 0.0
O13 O 0.90468 0.26441 0.21311 0.0
O14 O 0.66531 0.05236 0.85234 0.0
O15 O 0.91001 0.26602 0.88848 0.0
O16 O 0.25112 0.27654 0.12013 0.0
O17 O 0.23891 0.08981 0.16607 0.0
C18 C 0.74799 0.7438 0.21286 0.0
O19 O 0.87632 0.79311 0.17134 0.0
O20 O 0.65043 0.773 0.1652 0.0
O21 O 0.30119 0.84332 0.87527 0.0
O22 O 0.04976 0.62851 0.81694 0.0
O23 O 0.29005 0.84046 0.17741 0.0
C24 C 0.19899 0.71795 0.80915 0.0
O25 O 0.04475 0.62732 0.14153 0.0
O26 O 0.70281 0.61617 0.90872 0.0
C27 C 0.19439 0.71666 0.20787 0.0
O28 O 0.72219 0.8064 0.86592 0.0
O29 O 0.08292 0.10257 0.85994 0.0
O30 O 0.30794 0.12154 0.86548 0.0
C31 C 0.25543 0.67471 0.72072 0.0
C32 C 0.2606 0.67628 0.32194 0.0
C33 C 0.19634 0.19284 0.32386 0.0
Mg34 Mg 0.51834 0.7455 0.57922 0.0
O35 O 0.40526 0.54817 0.58856 0.0
Mg36 Mg 0.16248 0.41264 0.50787 0.0
Mg37 Mg 0.47975 0.44797 0.5157 0.0
O38 O 0.55209 0.34687 0.44223 0.0
Mg39 Mg 0.43723 0.14912 0.45097 0.0
Mg40 Mg 0.79442 0.48101 0.52244 0.0
C41 C 0.75754 0.70054 0.7058 0.0
C42 C 0.71093 0.65138 0.31816 0.0
O43 O 0.1535 0.54935 0.65454 0.0
O44 O 0.40469 0.76443 0.7131 0.0
O45 O 0.16533 0.55237 0.35233 0.0
O46 O 0.41003 0.76602 0.38847 0.0
O47 O 0.7512 0.77665 0.62012 0.0
O48 O 0.73889 0.5898 0.66605 0.0
C49 C 0.24799 0.2438 0.71285 0.0
O50 O 0.37632 0.2931 0.67134 0.0
O51 O 0.15044 0.27301 0.6652 0.0
O52 O 0.80118 0.3433 0.37527 0.0
O53 O 0.54975 0.12848 0.31696 0.0
O54 O 0.79003 0.34045 0.67741 0.0
C55 C 0.69898 0.21793 0.30917 0.0
O56 O 0.54473 0.12731 0.64153 0.0
O57 O 0.20272 0.11604 0.40871 0.0
C58 C 0.69436 0.21666 0.70788 0.0
O59 O 0.2222 0.3064 0.36594 0.0
O60 O 0.58292 0.60257 0.35994 0.0
O61 O 0.80794 0.62154 0.36548 0.0
loop_
_geom_bond_atom_site_label_1
_geom_bond_atom_site_label_2
_geom_bond_distance
_geom_bond_site_symmetry_2
_ccdc_geom_bond_type
C0 O12 1.241 . S
C0 O13 1.280 . S
C1 O14 1.277 . S
C1 O15 1.245 . S
C2 O26 1.247 . S
C2 O28 1.289 . S
Mg3 O4 1.926 1_455 S
Mg3 O13 1.984 1_455 S
Mg3 O15 1.988 1_454 S
Mg3 O16 2.061 . S
O4 Mg3 1.926 1_655 S
O4 Mg5 1.986 1_544 S
O4 Mg6 1.917 1_655 S
Mg5 O4 1.986 1_566 S
Mg5 O12 2.042 1_566 S
Mg5 O14 2.041 1_565 S
Mg5 O20 2.038 1_556 S
Mg5 O28 2.238 . S
Mg6 O4 1.917 1_455 S
Mg6 O7 1.917 1_544 S
Mg6 O17 2.106 . S
Mg6 O19 2.079 1_445 S
Mg6 O28 2.106 1_444 S
Mg6 O29 2.079 1_554 S
O7 Mg6 1.917 1_566 S
O7 Mg8 1.926 1_455 S
O7 Mg9 1.986 1_566 S
Mg8 O7 1.926 1_655 S
Mg8 O22 1.984 1_655 S
Mg8 O25 1.988 1_656 S
Mg8 O26 2.061 . S
Mg9 O7 1.986 1_544 S
Mg9 O17 2.238 . S
Mg9 O21 2.042 1_544 S
Mg9 O23 2.041 1_545 S
Mg9 O30 2.038 1_554 S
C10 O16 1.247 . S
C10 O17 1.289 . S
C11 O29 1.245 . S
C11 O30 1.274 . S
O12 C0 1.241 . S
O12 Mg5 2.042 1_544 S
O13 C0 1.280 . S
O13 Mg3 1.984 1_655 S
O14 C1 1.277 . S
O14 Mg5 2.041 1_545 S
O15 C1 1.245 . S
O15 Mg3 1.988 1_656 S
O16 Mg3 2.061 . S
O16 C10 1.247 . S
O17 Mg6 2.106 . S
O17 Mg9 2.238 . S
O17 C10 1.289 . S
C18 O19 1.245 . S
C18 O20 1.274 . S
O19 Mg6 2.079 1_665 S
O19 C18 1.245 . S
O20 Mg5 2.038 1_554 S
O20 C18 1.274 . S
O21 Mg9 2.042 1_566 S
O21 C24 1.241 . S
O22 Mg8 1.984 1_455 S
O22 C24 1.280 . S
O23 Mg9 2.041 1_565 S
O23 C27 1.277 . S
C24 O21 1.241 . S
C24 O22 1.280 . S
O25 Mg8 1.988 1_454 S
O25 C27 1.245 . S
O26 C2 1.247 . S
O26 Mg8 2.061 . S
C27 O23 1.277 . S
C27 O25 1.245 . S
O28 C2 1.289 . S
O28 Mg5 2.238 . S
O28 Mg6 2.106 1_666 S
O29 Mg6 2.079 1_556 S
O29 C11 1.245 . S
O30 Mg9 2.038 1_556 S
O30 C11 1.274 . S
C31 O43 1.241 . S
C31 O44 1.280 . S
C32 O45 1.277 . S
C32 O46 1.245 . S
C33 O57 1.247 . S
C33 O59 1.289 . S
Mg34 O35 1.926 . S
Mg34 O44 1.984 . S
Mg34 O46 1.988 . S
Mg34 O47 2.061 . S
O35 Mg34 1.926 . S
O35 Mg36 1.986 . S
O35 Mg37 1.917 . S
Mg36 O35 1.986 . S
Mg36 O43 2.042 . S
Mg36 O45 2.041 . S
Mg36 O51 2.038 . S
Mg36 O59 2.238 . S
Mg37 O35 1.917 . S
Mg37 O38 1.917 . S
Mg37 O48 2.106 . S
Mg37 O50 2.079 . S
Mg37 O59 2.106 . S
Mg37 O60 2.079 . S
O38 Mg37 1.917 . S
O38 Mg39 1.926 . S
O38 Mg40 1.986 . S
Mg39 O38 1.926 . S
Mg39 O53 1.984 . S
Mg39 O56 1.988 . S
Mg39 O57 2.061 . S
Mg40 O38 1.986 . S
Mg40 O48 2.238 . S
Mg40 O52 2.042 . S
Mg40 O54 2.041 . S
Mg40 O61 2.038 . S
C41 O47 1.247 . S
C41 O48 1.289 . S
C42 O60 1.245 . S
C42 O61 1.274 . S
O43 C31 1.241 . S
O43 Mg36 2.042 . S
O44 C31 1.280 . S
O44 Mg34 1.984 . S
O45 C32 1.277 . S
O45 Mg36 2.041 . S
O46 C32 1.245 . S
O46 Mg34 1.988 . S
O47 Mg34 2.061 . S
O47 C41 1.247 . S
O48 Mg37 2.106 . S
O48 Mg40 2.238 . S
O48 C41 1.289 . S
C49 O50 1.245 . S
C49 O51 1.274 . S
O50 Mg37 2.079 . S
O50 C49 1.245 . S
O51 Mg36 2.038 . S
O51 C49 1.274 . S
O52 Mg40 2.042 . S
O52 C55 1.241 . S
O53 Mg39 1.984 . S
O53 C55 1.280 . S
O54 Mg40 2.041 . S
O54 C58 1.277 . S
C55 O52 1.241 . S
C55 O53 1.280 . S
O56 Mg39 1.988 . S
O56 C58 1.245 . S
O57 C33 1.247 . S
O57 Mg39 2.061 . S
C58 O54 1.277 . S
C58 O56 1.245 . S
O59 C33 1.289 . S
O59 Mg36 2.238 . S
O59 Mg37 2.106 . S
O60 Mg37 2.079 . S
O60 C42 1.245 . S
O61 Mg40 2.038 . S
O61 C42 1.274 . S
C10 C33 1.284 . S
C0 C55 1.588 . S
C18 C42 1.741 . S
C27 C32 1.678 . S
C24 C31 1.590 . S
C49 C11 1.742 . S
C1 C58 1.680 . S
C41 C2 1.286 . S
