# Generated by pormake.
# Topology bcu-b, (8,8)-cn, num edge types: 1
# Building blocks:
#     Node 0, Type 0, BuildingBlock: VETTIZ_charged_sbu_0, # of connection points: 8
#     Node 1, Type 1, BuildingBlock: TAGTUT_clean_sbu_3, # of connection points: 8
#     Edge 2, Type (0, 1), BuildingBlock: XIVTED_clean_linker_0, # of connection points: 2
#     Edge 3, Type (0, 1), BuildingBlock: XIVTED_clean_linker_0, # of connection points: 2
#     Edge 4, Type (0, 1), BuildingBlock: XIVTED_clean_linker_0, # of connection points: 2
#     Edge 5, Type (0, 1), BuildingBlock: XIVTED_clean_linker_0, # of connection points: 2
#     Edge 6, Type (0, 1), BuildingBlock: XIVTED_clean_linker_0, # of connection points: 2
#     Edge 7, Type (0, 1), BuildingBlock: XIVTED_clean_linker_0, # of connection points: 2
#     Edge 8, Type (0, 1), BuildingBlock: XIVTED_clean_linker_0, # of connection points: 2
#     Edge 9, Type (0, 1), BuildingBlock: XIVTED_clean_linker_0, # of connection points: 2
# Relax obj value: 0.020
# Max RMSD: 0.100
# Mean RMSD: 0.073
data_MOF--net-bcu-b--node1-VETTIZ_charged_sbu_0--node2-TAGTUT_clean_sbu_3--edge1-XIVTED_clean_linker_0
_symmetry_space_group_name_H-M    P1
_symmetry_Int_Tables_number       1
_symmetry_cell_setting            triclinic
loop_
_symmetry_equiv_pos_as_xyz
'x, y, z'
_cell_length_a     19.375199
_cell_length_b     19.30315
_cell_length_c     21.405519
_cell_angle_alpha  89.393123
_cell_angle_beta   91.238926
_cell_angle_gamma 100.24155
loop_
_atom_site_label
_atom_site_type_symbol
_atom_site_fract_x
_atom_site_fract_y
_atom_site_fract_z
_atom_type_partial_charge
Fe0 Fe 0.06143 0.87416 0.00027 0.0
O1 O 0.06046 0.97514 -0.00719 0.0
Fe2 Fe 0.02206 1.0129 0.90922 0.0
Fe3 Fe 0.0124 0.02805 0.05295 0.0
O4 O 0.06148 0.9749 -0.01335 0.0
O5 O 0.9738 0.06575 0.96932 0.0
O6 O 0.97179 0.06525 0.97559 0.0
Fe7 Fe 0.97196 0.1663 0.96171 0.0
C8 C 0.9299 0.88417 0.07434 0.0
O9 O 0.12712 0.90876 0.07525 0.0
O10 O 0.06517 0.98274 0.12607 0.0
O11 O 0.05246 0.18502 0.89895 0.0
O12 O 0.10768 0.09305 0.90396 0.0
O13 O 0.07826 0.95044 0.85645 0.0
O14 O 0.13426 0.89224 0.93141 0.0
O15 O 0.09735 0.10804 0.05167 0.0
O16 O 0.04348 0.19893 0.03337 0.0
C17 C 0.12535 0.91351 0.87471 0.0
O18 O 0.90868 0.13257 0.8852 0.0
O19 O 0.97352 0.06015 0.83592 0.0
O20 O 0.98293 0.85584 0.06423 0.0
O21 O 0.92751 0.94742 0.05837 0.0
C22 C 0.11526 0.94558 0.12318 0.0
C23 C 0.09515 0.17313 0.05544 0.0
C24 C 0.90523 0.1245 0.08646 0.0
O25 O 0.95386 0.08949 0.10539 0.0
O26 O 0.89771 0.14747 0.02998 0.0
C27 C 0.10482 0.15606 0.88712 0.0
O28 O 0.93609 0.93384 0.9094 0.0
O29 O 0.9874 0.84137 0.92939 0.0
C30 C 0.92537 0.09931 0.83687 0.0
C31 C 0.93692 0.86838 0.90592 0.0
C32 C 0.63591 0.59666 0.57602 0.0
C33 C 0.68617 0.34493 0.51924 0.0
C34 C 0.61135 0.38033 0.34092 0.0
Mg35 Mg 0.51218 0.67816 0.51843 0.0
Mg36 Mg 0.36187 0.58461 0.47288 0.0
O37 O 0.45899 0.60257 0.46373 0.0
Mg38 Mg 0.51287 0.52468 0.47855 0.0
O39 O 0.57299 0.45236 0.49306 0.0
Mg40 Mg 0.66342 0.49998 0.45639 0.0
Mg41 Mg 0.53918 0.36081 0.46511 0.0
C42 C 0.38124 0.46077 0.38227 0.0
O43 O 0.4315 0.45625 0.54324 0.0
O44 O 0.4456 0.75465 0.46732 0.0
O45 O 0.43966 0.34623 0.51279 0.0
O46 O 0.42911 0.66094 0.59467 0.0
O47 O 0.34339 0.68481 0.44039 0.0
O48 O 0.33598 0.58009 0.56947 0.0
O49 O 0.59935 0.58269 0.41441 0.0
O50 O 0.59259 0.69248 0.4421 0.0
C51 C 0.61976 0.64951 0.40945 0.0
C52 C 0.38328 0.74521 0.44267 0.0
O53 O 0.44674 0.46477 0.39695 0.0
O54 O 0.71217 0.40897 0.50402 0.0
O55 O 0.34101 0.49647 0.40988 0.0
O56 O 0.65029 0.43243 0.36766 0.0
O57 O 0.62168 0.31792 0.50904 0.0
O58 O 0.55592 0.34802 0.36682 0.0
O59 O 0.57086 0.5912 0.56006 0.0
O60 O 0.67695 0.56498 0.54549 0.0
C61 C 0.36956 0.62428 0.608 0.0
C62 C 0.41111 0.38881 0.54531 0.0
H63 H 0.11379 0.31579 0.06932 0.0
H64 H 0.41348 0.3371 0.33603 0.0
H65 H 0.20145 0.13419 0.12765 0.0
H66 H 0.27932 0.49061 0.30414 0.0
H67 H 0.3541 0.26836 0.24742 0.0
H68 H 0.19418 0.38782 0.14152 0.0
C69 C 0.15034 0.29109 0.0969 0.0
C70 C 0.14998 0.21859 0.09302 0.0
C71 C 0.33827 0.31739 0.25987 0.0
C72 C 0.24212 0.30094 0.17649 0.0
C73 C 0.37215 0.35652 0.31014 0.0
C74 C 0.35056 0.41899 0.32787 0.0
C75 C 0.28367 0.34199 0.22691 0.0
C76 C 0.29681 0.44206 0.29287 0.0
C77 C 0.19623 0.33227 0.13829 0.0
C78 C 0.19943 0.18983 0.12947 0.0
N79 N 0.26534 0.40364 0.24432 0.0
N80 N 0.24308 0.23098 0.17028 0.0
H81 H 0.76383 0.08495 0.09446 0.0
H82 H 0.73131 0.43146 0.27824 0.0
H83 H 0.94113 0.22274 0.1764 0.0
H84 H 0.56614 0.24935 0.28851 0.0
H85 H 0.8014 0.36248 0.21988 0.0
H86 H 0.68463 0.14772 0.15112 0.0
C87 C 0.78587 0.12709 0.12595 0.0
C88 C 0.85885 0.1479 0.13219 0.0
C89 C 0.7495 0.33786 0.23437 0.0
C90 C 0.76926 0.22211 0.19364 0.0
C91 C 0.70884 0.37745 0.26701 0.0
C92 C 0.64281 0.34607 0.2894 0.0
C93 C 0.72381 0.26652 0.22277 0.0
C94 C 0.61676 0.27582 0.27259 0.0
C95 C 0.74083 0.16325 0.15756 0.0
C96 C 0.88514 0.20415 0.17173 0.0
N97 N 0.65759 0.23814 0.24065 0.0
N98 N 0.84037 0.24 0.20029 0.0
H99 H 0.90094 0.74235 0.09658 0.0
H100 H 0.67498 0.78771 0.39244 0.0
H101 H 0.83466 0.93688 0.14431 0.0
H102 H 0.67572 0.58252 0.31387 0.0
H103 H 0.7431 0.84163 0.30567 0.0
H104 H 0.82415 0.68128 0.1767 0.0
C105 C 0.86949 0.77205 0.12331 0.0
C106 C 0.87469 0.84503 0.11417 0.0
C107 C 0.72838 0.78482 0.30715 0.0
C108 C 0.78793 0.77561 0.20635 0.0
C109 C 0.68977 0.75367 0.35708 0.0
C110 C 0.6689 0.68021 0.36038 0.0
C111 C 0.74732 0.74256 0.26 0.0
C112 C 0.69057 0.6393 0.31321 0.0
C113 C 0.82581 0.73708 0.169 0.0
C114 C 0.83242 0.88069 0.14974 0.0
N115 N 0.72873 0.67113 0.26473 0.0
N116 N 0.79156 0.84576 0.19486 0.0
H117 H 0.08234 0.94674 0.24751 0.0
H118 H 0.44814 0.84077 0.35753 0.0
H119 H 0.25345 0.93524 0.12471 0.0
H120 H 0.25424 0.77858 0.45477 0.0
H121 H 0.38856 0.91256 0.28586 0.0
H122 H 0.15623 0.92094 0.33663 0.0
C123 C 0.13584 0.9403 0.23951 0.0
C124 C 0.16148 0.9419 0.17865 0.0
C125 C 0.35963 0.88462 0.32396 0.0
C126 C 0.24614 0.91311 0.27991 0.0
C127 C 0.39379 0.84436 0.36515 0.0
C128 C 0.3558 0.80363 0.41171 0.0
C129 C 0.28738 0.88441 0.33003 0.0
C130 C 0.28514 0.80908 0.41909 0.0
C131 C 0.17785 0.92537 0.29023 0.0
C132 C 0.23123 0.93315 0.17082 0.0
N133 N 0.25298 0.84804 0.3783 0.0
N134 N 0.27092 0.91864 0.22072 0.0
H135 H 0.26381 0.90844 0.88054 0.0
H136 H 0.22754 0.60828 0.62206 0.0
H137 H 0.07682 0.8448 0.76765 0.0
H138 H 0.42485 0.70214 0.70878 0.0
H139 H 0.1682 0.68384 0.68488 0.0
H140 H 0.32277 0.82912 0.82172 0.0
C141 C 0.23597 0.8791 0.84198 0.0
C142 C 0.16584 0.88351 0.82822 0.0
C143 C 0.22435 0.68716 0.69072 0.0
C144 C 0.23161 0.7904 0.76269 0.0
C145 C 0.25817 0.64307 0.65575 0.0
C146 C 0.3315 0.64947 0.65965 0.0
C147 C 0.2641 0.73741 0.73016 0.0
C148 C 0.36834 0.69591 0.70386 0.0
C149 C 0.26922 0.83316 0.80903 0.0
C150 C 0.13142 0.84369 0.77874 0.0
N151 N 0.33437 0.73873 0.73683 0.0
N152 N 0.16445 0.79793 0.74812 0.0
H153 H 0.13482 0.29748 0.8626 0.0
H154 H 0.35429 0.24967 0.56029 0.0
H155 H 0.1927 0.10039 0.81069 0.0
H156 H 0.35113 0.45409 0.63924 0.0
H157 H 0.28446 0.19499 0.64646 0.0
H158 H 0.20706 0.35644 0.77857 0.0
C159 C 0.16351 0.26673 0.83409 0.0
C160 C 0.15763 0.19376 0.84378 0.0
C161 C 0.29881 0.25182 0.64493 0.0
C162 C 0.23916 0.26086 0.74659 0.0
C163 C 0.33836 0.28337 0.59533 0.0
C164 C 0.35925 0.35693 0.59235 0.0
C165 C 0.27914 0.29377 0.69212 0.0
C166 C 0.33631 0.39733 0.63934 0.0
C167 C 0.20453 0.30047 0.786 0.0
C168 C 0.19598 0.15671 0.80532 0.0
N169 N 0.29764 0.36519 0.6874 0.0
N170 N 0.23444 0.19053 0.75803 0.0
H171 H 0.78726 0.07598 0.80513 0.0
H172 H 0.82527 0.37809 0.5577 0.0
H173 H 0.99184 0.1652 0.7371 0.0
H174 H 0.64592 0.20901 0.55731 0.0
H175 H 0.88913 0.30509 0.6242 0.0
H176 H 0.73371 0.12717 0.71521 0.0
C177 C 0.82065 0.10493 0.77016 0.0
C178 C 0.89357 0.11601 0.77745 0.0
C179 C 0.83614 0.28398 0.60845 0.0
C180 C 0.8335 0.17692 0.67665 0.0
C181 C 0.79963 0.32561 0.57083 0.0
C182 C 0.72969 0.30031 0.5528 0.0
C183 C 0.80186 0.21742 0.62861 0.0
C184 C 0.69928 0.23154 0.57081 0.0
C185 C 0.79036 0.13426 0.71912 0.0
C186 C 0.93519 0.15493 0.73198 0.0
N187 N 0.73512 0.19307 0.60848 0.0
N188 N 0.90449 0.18543 0.68385 0.0
H189 H 0.92001 0.72655 0.88333 0.0
H190 H 0.60808 0.71985 0.62816 0.0
H191 H 0.8267 0.90901 0.84017 0.0
H192 H 0.732 0.55672 0.65493 0.0
H193 H 0.67264 0.7842 0.71696 0.0
H194 H 0.83611 0.65762 0.81148 0.0
C195 C 0.88153 0.75209 0.85925 0.0
C196 C 0.88118 0.82401 0.86761 0.0
C197 C 0.68496 0.73392 0.70359 0.0
C198 C 0.78462 0.74507 0.78435 0.0
C199 C 0.6479 0.69716 0.65326 0.0
C200 C 0.66535 0.63338 0.63374 0.0
C201 C 0.7388 0.70589 0.73477 0.0
C202 C 0.71753 0.60628 0.66773 0.0
C203 C 0.83356 0.71265 0.81798 0.0
C204 C 0.82942 0.85382 0.83508 0.0
N205 N 0.75234 0.64262 0.71612 0.0
N206 N 0.78367 0.81443 0.79454 0.0
loop_
_geom_bond_atom_site_label_1
_geom_bond_atom_site_label_2
_geom_bond_distance
_geom_bond_site_symmetry_2
_ccdc_geom_bond_type
Fe0 O1 1.895 . S
Fe0 O4 1.705 1_554 S
Fe0 O9 2.086 1_655 S
Fe0 O14 1.928 1_654 S
Fe0 O20 2.086 . S
Fe0 O29 1.928 1_554 S
O1 Fe0 1.895 . S
O1 Fe3 1.715 1_665 S
Fe2 O4 1.886 1_445 S
Fe2 O5 1.715 . S
Fe2 O12 1.935 . S
Fe2 O13 2.077 1_545 S
Fe2 O19 1.935 1_455 S
Fe2 O28 2.077 1_445 S
Fe3 O1 1.715 1_445 S
Fe3 O6 1.886 . S
Fe3 O10 1.935 1_545 S
Fe3 O15 2.077 . S
Fe3 O21 1.935 1_445 S
Fe3 O25 2.077 1_455 S
O4 Fe0 1.705 1_556 S
O4 Fe2 1.886 1_665 S
O5 Fe2 1.715 . S
O5 Fe7 1.889 . S
O6 Fe3 1.886 . S
O6 Fe7 1.711 1_554 S
Fe7 O5 1.889 . S
Fe7 O6 1.711 1_556 S
Fe7 O11 2.081 . S
Fe7 O16 1.932 1_556 S
Fe7 O18 2.081 1_455 S
Fe7 O26 1.932 1_456 S
C8 O20 1.381 . S
C8 O21 1.421 . S
O9 Fe0 2.086 1_455 S
O9 C22 1.381 . S
O10 Fe3 1.935 1_565 S
O10 C22 1.421 . S
O11 Fe7 2.081 . S
O11 C27 1.381 . S
O12 Fe2 1.935 . S
O12 C27 1.421 . S
O13 Fe2 2.077 1_565 S
O13 C17 1.381 . S
O14 Fe0 1.928 1_456 S
O14 C17 1.421 . S
O15 Fe3 2.077 . S
O15 C23 1.381 . S
O16 Fe7 1.932 1_554 S
O16 C23 1.421 . S
C17 O13 1.381 . S
C17 O14 1.421 . S
O18 Fe7 2.081 1_655 S
O18 C30 1.381 . S
O19 Fe2 1.935 1_655 S
O19 C30 1.421 . S
O20 Fe0 2.086 . S
O20 C8 1.381 . S
O21 Fe3 1.935 1_665 S
O21 C8 1.421 . S
C22 O9 1.381 . S
C22 O10 1.421 . S
C23 O15 1.381 . S
C23 O16 1.421 . S
C24 O25 1.381 . S
C24 O26 1.421 . S
O25 Fe3 2.077 1_655 S
O25 C24 1.381 . S
O26 Fe7 1.932 1_654 S
O26 C24 1.421 . S
C27 O11 1.381 . S
C27 O12 1.421 . S
O28 Fe2 2.077 1_665 S
O28 C31 1.381 . S
O29 Fe0 1.928 1_556 S
O29 C31 1.421 . S
C30 O18 1.381 . S
C30 O19 1.421 . S
C31 O28 1.381 . S
C31 O29 1.421 . S
C32 O59 1.312 . S
C32 O60 1.208 . S
C33 O54 1.331 . S
C33 O57 1.244 . S
C34 O56 1.264 . S
C34 O58 1.273 . S
Mg35 O37 1.936 . S
Mg35 O44 2.081 . S
Mg35 O46 2.023 . S
Mg35 O50 2.031 . S
Mg35 O59 2.291 . S
Mg36 O37 1.963 . S
Mg36 O47 1.942 . S
Mg36 O48 1.955 . S
Mg36 O55 1.986 . S
O37 Mg35 1.936 . S
O37 Mg36 1.963 . S
O37 Mg38 1.915 . S
Mg38 O37 1.915 . S
Mg38 O39 1.915 . S
Mg38 O43 2.013 . S
Mg38 O49 2.114 . S
Mg38 O53 2.013 . S
Mg38 O59 2.114 . S
O39 Mg38 1.915 . S
O39 Mg40 1.936 . S
O39 Mg41 1.963 . S
Mg40 O39 1.936 . S
Mg40 O49 2.291 . S
Mg40 O54 2.081 . S
Mg40 O56 2.023 . S
Mg40 O60 2.031 . S
Mg41 O39 1.963 . S
Mg41 O45 1.986 . S
Mg41 O57 1.942 . S
Mg41 O58 1.955 . S
C42 O53 1.191 . S
C42 O55 1.307 . S
O43 Mg38 2.013 . S
O43 C62 1.191 . S
O44 Mg35 2.081 . S
O44 C52 1.331 . S
O45 Mg41 1.986 . S
O45 C62 1.307 . S
O46 Mg35 2.023 . S
O46 C61 1.264 . S
O47 Mg36 1.942 . S
O47 C52 1.244 . S
O48 Mg36 1.955 . S
O48 C61 1.273 . S
O49 Mg38 2.114 . S
O49 Mg40 2.291 . S
O49 C51 1.312 . S
O50 Mg35 2.031 . S
O50 C51 1.208 . S
C51 O49 1.312 . S
C51 O50 1.208 . S
C52 O44 1.331 . S
C52 O47 1.244 . S
O53 Mg38 2.013 . S
O53 C42 1.191 . S
O54 C33 1.331 . S
O54 Mg40 2.081 . S
O55 Mg36 1.986 . S
O55 C42 1.307 . S
O56 C34 1.264 . S
O56 Mg40 2.023 . S
O57 C33 1.244 . S
O57 Mg41 1.942 . S
O58 C34 1.273 . S
O58 Mg41 1.955 . S
O59 C32 1.312 . S
O59 Mg35 2.291 . S
O59 Mg38 2.114 . S
O60 C32 1.208 . S
O60 Mg40 2.031 . S
C61 O46 1.264 . S
C61 O48 1.273 . S
C62 O43 1.191 . S
C62 O45 1.307 . S
H63 C69 0.930 . S
H64 C73 0.930 . S
H65 C78 0.929 . S
H66 C76 0.929 . S
H67 C71 0.929 . S
H68 C77 0.929 . S
C69 H63 0.930 . S
C69 C70 1.367 . S
C69 C77 1.378 . S
C70 C69 1.367 . S
C70 C78 1.433 . S
C71 H67 0.929 . S
C71 C73 1.378 . S
C71 C75 1.350 . S
C72 C75 1.463 . S
C72 C77 1.350 . S
C72 N80 1.427 . S
C73 H64 0.930 . S
C73 C71 1.378 . S
C73 C74 1.367 . S
C74 C73 1.367 . S
C74 C76 1.433 . S
C75 C71 1.350 . S
C75 C72 1.463 . S
C75 N79 1.427 . S
C76 H66 0.929 . S
C76 C74 1.433 . S
C76 N79 1.384 . S
C77 H68 0.929 . S
C77 C69 1.378 . S
C77 C72 1.350 . S
C78 H65 0.929 . S
C78 C70 1.433 . S
C78 N80 1.384 . S
N79 C75 1.427 . S
N79 C76 1.384 . S
N80 C72 1.427 . S
N80 C78 1.384 . S
H81 C87 0.930 . S
H82 C91 0.930 . S
H83 C96 0.929 . S
H84 C94 0.929 . S
H85 C89 0.929 . S
H86 C95 0.929 . S
C87 H81 0.930 . S
C87 C88 1.367 . S
C87 C95 1.378 . S
C88 C87 1.367 . S
C88 C96 1.433 . S
C89 H85 0.929 . S
C89 C91 1.378 . S
C89 C93 1.350 . S
C90 C93 1.463 . S
C90 C95 1.350 . S
C90 N98 1.427 . S
C91 H82 0.930 . S
C91 C89 1.378 . S
C91 C92 1.367 . S
C92 C91 1.367 . S
C92 C94 1.433 . S
C93 C89 1.350 . S
C93 C90 1.463 . S
C93 N97 1.427 . S
C94 H84 0.929 . S
C94 C92 1.433 . S
C94 N97 1.384 . S
C95 H86 0.929 . S
C95 C87 1.378 . S
C95 C90 1.350 . S
C96 H83 0.929 . S
C96 C88 1.433 . S
C96 N98 1.384 . S
N97 C93 1.427 . S
N97 C94 1.384 . S
N98 C90 1.427 . S
N98 C96 1.384 . S
H99 C105 0.930 . S
H100 C109 0.930 . S
H101 C114 0.929 . S
H102 C112 0.929 . S
H103 C107 0.929 . S
H104 C113 0.929 . S
C105 H99 0.930 . S
C105 C106 1.367 . S
C105 C113 1.378 . S
C106 C105 1.367 . S
C106 C114 1.433 . S
C107 H103 0.929 . S
C107 C109 1.378 . S
C107 C111 1.350 . S
C108 C111 1.463 . S
C108 C113 1.350 . S
C108 N116 1.427 . S
C109 H100 0.930 . S
C109 C107 1.378 . S
C109 C110 1.367 . S
C110 C109 1.367 . S
C110 C112 1.433 . S
C111 C107 1.350 . S
C111 C108 1.463 . S
C111 N115 1.427 . S
C112 H102 0.929 . S
C112 C110 1.433 . S
C112 N115 1.384 . S
C113 H104 0.929 . S
C113 C105 1.378 . S
C113 C108 1.350 . S
C114 H101 0.929 . S
C114 C106 1.433 . S
C114 N116 1.384 . S
N115 C111 1.427 . S
N115 C112 1.384 . S
N116 C108 1.427 . S
N116 C114 1.384 . S
H117 C123 0.930 . S
H118 C127 0.930 . S
H119 C132 0.929 . S
H120 C130 0.929 . S
H121 C125 0.929 . S
H122 C131 0.929 . S
C123 H117 0.930 . S
C123 C124 1.367 . S
C123 C131 1.378 . S
C124 C123 1.367 . S
C124 C132 1.433 . S
C125 H121 0.929 . S
C125 C127 1.378 . S
C125 C129 1.350 . S
C126 C129 1.463 . S
C126 C131 1.350 . S
C126 N134 1.427 . S
C127 H118 0.930 . S
C127 C125 1.378 . S
C127 C128 1.367 . S
C128 C127 1.367 . S
C128 C130 1.433 . S
C129 C125 1.350 . S
C129 C126 1.463 . S
C129 N133 1.427 . S
C130 H120 0.929 . S
C130 C128 1.433 . S
C130 N133 1.384 . S
C131 H122 0.929 . S
C131 C123 1.378 . S
C131 C126 1.350 . S
C132 H119 0.929 . S
C132 C124 1.433 . S
C132 N134 1.384 . S
N133 C129 1.427 . S
N133 C130 1.384 . S
N134 C126 1.427 . S
N134 C132 1.384 . S
H135 C141 0.930 . S
H136 C145 0.930 . S
H137 C150 0.929 . S
H138 C148 0.929 . S
H139 C143 0.929 . S
H140 C149 0.929 . S
C141 H135 0.930 . S
C141 C142 1.367 . S
C141 C149 1.378 . S
C142 C141 1.367 . S
C142 C150 1.433 . S
C143 H139 0.929 . S
C143 C145 1.378 . S
C143 C147 1.350 . S
C144 C147 1.463 . S
C144 C149 1.350 . S
C144 N152 1.427 . S
C145 H136 0.930 . S
C145 C143 1.378 . S
C145 C146 1.367 . S
C146 C145 1.367 . S
C146 C148 1.433 . S
C147 C143 1.350 . S
C147 C144 1.463 . S
C147 N151 1.427 . S
C148 H138 0.929 . S
C148 C146 1.433 . S
C148 N151 1.384 . S
C149 H140 0.929 . S
C149 C141 1.378 . S
C149 C144 1.350 . S
C150 H137 0.929 . S
C150 C142 1.433 . S
C150 N152 1.384 . S
N151 C147 1.427 . S
N151 C148 1.384 . S
N152 C144 1.427 . S
N152 C150 1.384 . S
H153 C159 0.930 . S
H154 C163 0.930 . S
H155 C168 0.929 . S
H156 C166 0.929 . S
H157 C161 0.929 . S
H158 C167 0.929 . S
C159 H153 0.930 . S
C159 C160 1.367 . S
C159 C167 1.378 . S
C160 C159 1.367 . S
C160 C168 1.433 . S
C161 H157 0.929 . S
C161 C163 1.378 . S
C161 C165 1.350 . S
C162 C165 1.463 . S
C162 C167 1.350 . S
C162 N170 1.427 . S
C163 H154 0.930 . S
C163 C161 1.378 . S
C163 C164 1.367 . S
C164 C163 1.367 . S
C164 C166 1.433 . S
C165 C161 1.350 . S
C165 C162 1.463 . S
C165 N169 1.427 . S
C166 H156 0.929 . S
C166 C164 1.433 . S
C166 N169 1.384 . S
C167 H158 0.929 . S
C167 C159 1.378 . S
C167 C162 1.350 . S
C168 H155 0.929 . S
C168 C160 1.433 . S
C168 N170 1.384 . S
N169 C165 1.427 . S
N169 C166 1.384 . S
N170 C162 1.427 . S
N170 C168 1.384 . S
H171 C177 0.930 . S
H172 C181 0.930 . S
H173 C186 0.929 . S
H174 C184 0.929 . S
H175 C179 0.929 . S
H176 C185 0.929 . S
C177 H171 0.930 . S
C177 C178 1.367 . S
C177 C185 1.378 . S
C178 C177 1.367 . S
C178 C186 1.433 . S
C179 H175 0.929 . S
C179 C181 1.378 . S
C179 C183 1.350 . S
C180 C183 1.463 . S
C180 C185 1.350 . S
C180 N188 1.427 . S
C181 H172 0.930 . S
C181 C179 1.378 . S
C181 C182 1.367 . S
C182 C181 1.367 . S
C182 C184 1.433 . S
C183 C179 1.350 . S
C183 C180 1.463 . S
C183 N187 1.427 . S
C184 H174 0.929 . S
C184 C182 1.433 . S
C184 N187 1.384 . S
C185 H176 0.929 . S
C185 C177 1.378 . S
C185 C180 1.350 . S
C186 H173 0.929 . S
C186 C178 1.433 . S
C186 N188 1.384 . S
N187 C183 1.427 . S
N187 C184 1.384 . S
N188 C180 1.427 . S
N188 C186 1.384 . S
H189 C195 0.930 . S
H190 C199 0.930 . S
H191 C204 0.929 . S
H192 C202 0.929 . S
H193 C197 0.929 . S
H194 C203 0.929 . S
C195 H189 0.930 . S
C195 C196 1.367 . S
C195 C203 1.378 . S
C196 C195 1.367 . S
C196 C204 1.433 . S
C197 H193 0.929 . S
C197 C199 1.378 . S
C197 C201 1.350 . S
C198 C201 1.463 . S
C198 C203 1.350 . S
C198 N206 1.427 . S
C199 H190 0.930 . S
C199 C197 1.378 . S
C199 C200 1.367 . S
C200 C199 1.367 . S
C200 C202 1.433 . S
C201 C197 1.350 . S
C201 C198 1.463 . S
C201 N205 1.427 . S
C202 H192 0.929 . S
C202 C200 1.433 . S
C202 N205 1.384 . S
C203 H194 0.929 . S
C203 C195 1.378 . S
C203 C198 1.350 . S
C204 H191 0.929 . S
C204 C196 1.433 . S
C204 N206 1.384 . S
N205 C201 1.427 . S
N205 C202 1.384 . S
N206 C198 1.427 . S
N206 C204 1.384 . S
C70 C23 1.318 . S
C74 C42 1.338 . S
C88 C24 1.588 . S
C92 C34 1.588 . S
C106 C8 1.362 . S
C110 C51 1.352 . S
C124 C22 1.508 . S
C128 C52 1.532 . S
C142 C17 1.579 . S
C146 C61 1.597 . S
C164 C62 1.325 . S
C160 C27 1.321 . S
C178 C30 1.510 . S
C182 C33 1.529 . S
C200 C32 1.352 . S
C196 C31 1.378 . S
