# Generated by pormake.
# Topology nia, (6,6)-cn, num edge types: 1
# Building blocks:
#     Node 0, Type 0, BuildingBlock: CUWYAW_clean_sbu_0, # of connection points: 6
#     Node 1, Type 0, BuildingBlock: CUWYAW_clean_sbu_0, # of connection points: 6
#     Node 2, Type 1, BuildingBlock: MIDCAF_clean_sbu_0, # of connection points: 6
#     Node 3, Type 1, BuildingBlock: MIDCAF_clean_sbu_0, # of connection points: 6
#     Edge 4, Type (0, 1), BuildingBlock: OJICUG_clean_linker_0, # of connection points: 2
#     Edge 5, Type (0, 1), BuildingBlock: OJICUG_clean_linker_0, # of connection points: 2
#     Edge 6, Type (0, 1), BuildingBlock: OJICUG_clean_linker_0, # of connection points: 2
#     Edge 7, Type (0, 1), BuildingBlock: OJICUG_clean_linker_0, # of connection points: 2
#     Edge 8, Type (0, 1), BuildingBlock: OJICUG_clean_linker_0, # of connection points: 2
#     Edge 9, Type (0, 1), BuildingBlock: OJICUG_clean_linker_0, # of connection points: 2
#     Edge 10, Type (0, 1), BuildingBlock: OJICUG_clean_linker_0, # of connection points: 2
#     Edge 11, Type (0, 1), BuildingBlock: OJICUG_clean_linker_0, # of connection points: 2
#     Edge 12, Type (0, 1), BuildingBlock: OJICUG_clean_linker_0, # of connection points: 2
#     Edge 13, Type (0, 1), BuildingBlock: OJICUG_clean_linker_0, # of connection points: 2
#     Edge 14, Type (0, 1), BuildingBlock: OJICUG_clean_linker_0, # of connection points: 2
#     Edge 15, Type (0, 1), BuildingBlock: OJICUG_clean_linker_0, # of connection points: 2
# Relax obj value: 0.337
# Max RMSD: 0.286
# Mean RMSD: 0.252
data_MOF--net-nia--node1-CUWYAW_clean_sbu_0--node2-MIDCAF_clean_sbu_0--edge1-OJICUG_clean_linker_0
_symmetry_space_group_name_H-M    P1
_symmetry_Int_Tables_number       1
_symmetry_cell_setting            triclinic
loop_
_symmetry_equiv_pos_as_xyz
'x, y, z'
_cell_length_a     22.897027
_cell_length_b     19.420233
_cell_length_c     25.716516
_cell_angle_alpha  106.03081
_cell_angle_beta   58.373524
_cell_angle_gamma 130.32741
loop_
_atom_site_label
_atom_site_type_symbol
_atom_site_fract_x
_atom_site_fract_y
_atom_site_fract_z
_atom_type_partial_charge
C0 C 0.01976 0.87031 0.09869 0.0
Eu1 Eu -0.03396 0.95325 0.09743 0.0
C2 C 0.03593 0.84937 0.1387 0.0
C3 C -0.01524 0.75903 0.16088 0.0
C4 C 0.00703 0.73581 0.1907 0.0
C5 C 0.0816 0.80236 0.19834 0.0
C6 C 0.1297 0.89358 0.17958 0.0
C7 C 0.1072 0.91691 0.14994 0.0
C8 C 0.81438 0.92846 0.17916 0.0
C9 C 0.90503 0.89807 0.99208 0.0
C10 C 0.8586 0.13101 1.06465 0.0
Eu11 Eu 0.93266 0.07292 1.06678 0.0
C12 C 0.85137 0.15717 1.02071 0.0
C13 C 0.80547 0.09191 0.98897 0.0
C14 C 0.78747 0.11483 0.95515 0.0
C15 C 0.81542 0.20339 0.95209 0.0
C16 C 0.86587 0.26986 0.98063 0.0
C17 C 0.88324 0.24679 1.01492 0.0
C18 C 0.09802 0.12708 0.99011 0.0
C19 C 0.01205 0.13749 0.15996 0.0
O20 O -0.06134 0.82846 0.11385 0.0
O21 O 0.07178 0.95517 0.07685 0.0
O22 O 0.85182 0.91378 0.19424 0.0
O23 O 0.85421 0.94564 0.12195 0.0
O24 O 0.93592 0.88714 1.01818 0.0
O25 O 0.89538 0.96204 1.00453 0.0
O26 O 0.93315 0.18535 1.06537 0.0
O27 O 0.82153 0.04505 1.07186 0.0
O28 O 0.07066 0.16686 0.98762 0.0
O29 O 0.0351 0.06178 1.03083 0.0
O30 O -0.04127 0.13232 0.14885 0.0
O31 O 0.034 0.08306 0.13756 0.0
H32 H 0.92951 0.70565 0.15292 0.0
H33 H -0.03214 0.66505 0.20553 0.0
H34 H 0.18782 0.94635 0.18436 0.0
H35 H 0.14805 0.98733 0.13349 0.0
H36 H 0.78026 0.0222 0.9922 0.0
H37 H 0.74888 0.06249 0.93326 0.0
H38 H 0.88734 0.33843 0.97968 0.0
H39 H 0.91833 0.29821 1.03915 0.0
C40 C 0.84277 0.92884 0.46537 0.0
Eu41 Eu 0.89955 0.96607 0.54171 0.0
C42 C 0.76734 0.90056 0.46355 0.0
C43 C 0.69101 0.8767 0.51764 0.0
C44 C 0.61966 0.84946 0.5145 0.0
C45 C 0.62416 0.84626 0.45724 0.0
C46 C 0.70154 0.87171 0.40331 0.0
C47 C 0.77257 0.89862 0.40653 0.0
C48 C 0.84122 0.86955 0.64012 0.0
C49 C 0.86338 0.0862 0.65479 0.0
C50 C 0.10757 0.14301 0.66579 0.0
Eu51 Eu 0.02426 0.08376 0.60507 0.0
C52 C 0.1558 0.13124 0.67912 0.0
C53 C 0.22938 0.13853 0.63203 0.0
C54 C 0.28474 0.14686 0.64612 0.0
C55 C 0.26713 0.14775 0.70746 0.0
C56 C 0.18925 0.13206 0.75458 0.0
C57 C 0.13427 0.12434 0.74045 0.0
C58 C 0.05655 0.17321 0.51792 0.0
C59 C 0.05031 0.95043 0.50049 0.0
O60 O 0.88706 0.01039 0.48179 0.0
O61 O 0.83286 0.86844 0.48944 0.0
O62 O 0.80075 0.83588 0.6078 0.0
O63 O 0.90332 0.95124 0.62009 0.0
O64 O 0.84659 0.03883 0.60952 0.0
O65 O 0.92082 0.10197 0.66648 0.0
O66 O 0.02315 0.07939 0.68936 0.0
O67 O 0.14448 0.1774 0.61033 0.0
O68 O 0.06923 0.20956 0.56508 0.0
O69 O 0.03251 0.09341 0.51729 0.0
O70 O 0.06802 0.00043 0.54465 0.0
O71 O -0.00417 0.93688 0.4864 0.0
H72 H 0.68663 0.87884 0.56203 0.0
H73 H 0.56108 0.83105 0.55677 0.0
H74 H 0.70652 0.8688 0.35858 0.0
H75 H 0.83145 0.91728 0.36442 0.0
H76 H 0.24698 0.14317 0.58428 0.0
H77 H 0.34438 0.15922 0.60875 0.0
H78 H 0.17322 0.13073 0.8023 0.0
H79 H 0.07744 0.11812 0.77744 0.0
Zn80 Zn 0.33571 0.64865 0.22041 0.0
Zn81 Zn 0.15619 0.60364 0.45881 0.0
Zn82 Zn 0.24824 0.63078 0.34001 0.0
C83 C 0.32963 0.69663 0.42893 0.0
C84 C 0.09716 0.43439 0.42284 0.0
O85 O 0.21852 0.6943 0.30872 0.0
O86 O 0.28488 0.69193 0.20817 0.0
C87 C 0.46018 0.74802 0.25792 0.0
O88 O 0.34108 0.69726 0.37437 0.0
O89 O 0.25418 0.65579 0.47415 0.0
O90 O 0.07105 0.46982 0.4695 0.0
O91 O 0.16103 0.48425 0.37164 0.0
O92 O 0.456 0.73565 0.20882 0.0
O93 O 0.39015 0.71226 0.30993 0.0
O94 O 0.18933 0.49444 0.30622 0.0
O95 O 0.28358 0.51855 0.20792 0.0
C96 C 0.21294 0.46443 0.25377 0.0
O97 O 0.19009 0.70278 0.37192 0.0
O98 O 0.12248 0.68083 0.47332 0.0
C99 C 0.23642 0.70784 0.25431 0.0
C100 C 0.14664 0.71713 0.42527 0.0
Zn101 Zn 0.58477 0.38436 0.94009 0.0
Zn102 Zn 0.74423 0.4179 0.6935 0.0
Zn103 Zn 0.66194 0.40295 0.81702 0.0
C104 C 0.79174 0.59021 0.7289 0.0
C105 C 0.56065 0.30864 0.73996 0.0
O106 O 0.698 0.34235 0.84379 0.0
O107 O 0.62027 0.31726 0.94516 0.0
C108 C 0.71581 0.5723 0.89671 0.0
O109 O 0.74123 0.54569 0.78222 0.0
O110 O 0.81033 0.55214 0.68101 0.0
O111 O 0.6308 0.3352 0.69092 0.0
O112 O 0.55999 0.32984 0.79216 0.0
O113 O 0.65782 0.51855 0.94523 0.0
O114 O 0.72651 0.54196 0.84378 0.0
O115 O 0.51821 0.32314 0.8572 0.0
O116 O 0.46342 0.31569 0.95836 0.0
C117 C 0.45283 0.29663 0.91155 0.0
O118 O 0.72332 0.33345 0.7799 0.0
O119 O 0.79814 0.361 0.67865 0.0
C120 C 0.67418 0.31245 0.89549 0.0
C121 C 0.77184 0.32349 0.72711 0.0
C122 C 0.15284 0.82602 0.2572 0.0
C123 C 0.1152 0.77532 0.21811 0.0
H124 H 0.22203 0.84481 0.2992 0.0
C125 C 0.11583 0.70151 0.19339 0.0
H126 H 0.15345 0.88339 0.27685 0.0
C127 C 0.15435 0.67977 0.20635 0.0
C128 C 0.19264 0.73071 0.24468 0.0
H129 H 0.08927 0.66224 0.16209 0.0
H130 H 0.15494 0.62327 0.18579 0.0
C131 C 0.19126 0.80367 0.27047 0.0
C132 C 0.35371 0.24354 0.76351 0.0
C133 C 0.33539 0.17848 0.72145 0.0
H134 H 0.44233 0.33838 0.79963 0.0
C135 C 0.38923 0.15224 0.68813 0.0
H136 H 0.31528 0.26743 0.78853 0.0
C137 C 0.46159 0.19265 0.69533 0.0
C138 C 0.48053 0.25915 0.73629 0.0
H139 H 0.37664 0.10223 0.65546 0.0
H140 H 0.50356 0.1732 0.6682 0.0
C141 C 0.42597 0.28385 0.77041 0.0
C142 C 0.1379 0.24471 0.18163 0.0
C143 C 0.05586 0.21209 0.19375 0.0
H144 H 0.25221 0.3509 0.19161 0.0
C145 C 0.02069 0.25592 0.23427 0.0
H146 H 0.16706 0.21272 0.15056 0.0
C147 C 0.06875 0.33366 0.25952 0.0
C148 C 0.15349 0.36997 0.24322 0.0
H149 H -0.04253 0.23201 0.24475 0.0
H150 H 0.0424 0.36924 0.28789 0.0
C151 C 0.18667 0.32358 0.20535 0.0
C152 C 0.75868 0.11432 0.68152 0.0
C153 C 0.82734 0.13672 0.68655 0.0
H154 H 0.68718 0.1565 0.6915 0.0
C155 C 0.87093 0.21715 0.71263 0.0
H156 H 0.72403 0.05339 0.66144 0.0
C157 C 0.85043 0.27682 0.729 0.0
C158 C 0.78474 0.25598 0.72096 0.0
H159 H 0.92508 0.23738 0.71632 0.0
H160 H 0.88913 0.34134 0.74448 0.0
C161 C 0.73767 0.17337 0.69859 0.0
C162 C 0.65792 0.80679 0.24923 0.0
C163 C 0.72259 0.89261 0.21559 0.0
H164 H 0.52175 0.69304 0.2901 0.0
C165 C 0.69762 0.93616 0.20673 0.0
H166 H 0.67557 0.77167 0.2566 0.0
C167 C 0.61061 0.89093 0.2246 0.0
C168 C 0.54665 0.80219 0.25342 0.0
H169 H 0.74608 0.00359 0.18314 0.0
H170 H 0.5938 0.92362 0.21322 0.0
C171 C 0.57019 0.76172 0.26808 0.0
C172 C 0.75011 0.7423 0.71893 0.0
C173 C 0.83278 0.81328 0.67622 0.0
H174 H 0.67361 0.61825 0.77232 0.0
C175 C 0.90479 0.81896 0.66023 0.0
H176 H 0.6935 0.73593 0.73156 0.0
C177 C 0.89307 0.74966 0.68154 0.0
C178 C 0.80964 0.67595 0.72157 0.0
H179 H -0.03085 0.87239 0.62716 0.0
H180 H -0.05163 0.75091 0.66391 0.0
C181 C 0.73891 0.67532 0.74246 0.0
C182 C 0.05026 0.82525 0.43774 0.0
C183 C 0.08638 0.89996 0.47025 0.0
H184 H 0.04102 0.70742 0.39781 0.0
C185 C 0.14997 0.91893 0.48037 0.0
H186 H 0.0007 0.80833 0.42946 0.0
C187 C 0.173 0.86168 0.46189 0.0
C188 C 0.13357 0.78465 0.43255 0.0
H189 H 0.17932 0.97577 0.50507 0.0
H190 H 0.21915 0.87547 0.47292 0.0
C191 C 0.07321 0.76749 0.41948 0.0
C192 C 0.21467 0.1146 0.95819 0.0
C193 C 0.19022 0.16665 0.96182 0.0
H194 H 0.31907 0.11561 0.938 0.0
C195 C 0.25462 0.25979 0.94216 0.0
H196 H 0.16638 0.04243 0.97179 0.0
C197 C 0.34123 0.30126 0.92288 0.0
C198 C 0.36531 0.24986 0.92103 0.0
H199 H 0.23753 0.30158 0.94457 0.0
H200 H 0.38907 0.37409 0.91126 0.0
C201 C 0.30178 0.15607 0.93814 0.0
C202 C -0.01366 0.2264 0.51255 0.0
C203 C 0.04971 0.21318 0.48213 0.0
H204 H -0.05155 0.30329 0.5152 0.0
C205 C 0.11756 0.25784 0.42328 0.0
H206 H 0.93411 0.19426 0.55809 0.0
C207 C 0.12699 0.32261 0.39862 0.0
C208 C 0.0688 0.34347 0.4329 0.0
H209 H 0.16786 0.24956 0.39923 0.0
H210 H 0.185 0.36318 0.35621 0.0
C211 C -0.00521 0.28952 0.48779 0.0
C212 C 0.83723 0.30476 0.88986 0.0
C213 C 0.78228 0.22371 0.92693 0.0
H214 H 0.84517 0.3958 0.84982 0.0
C215 C 0.69262 0.16692 0.94657 0.0
H216 H 0.90655 0.34964 0.87412 0.0
C217 C 0.65788 0.19358 0.93303 0.0
C218 C 0.71231 0.27643 0.89854 0.0
H219 H 0.64858 0.10469 0.97587 0.0
H220 H 0.58805 0.15133 0.95174 0.0
C221 C 0.80239 0.33076 0.87557 0.0
C222 C 0.46512 0.73433 0.49009 0.0
C223 C 0.54741 0.8126 0.45336 0.0
H224 H 0.33159 0.63611 0.51067 0.0
C225 C 0.55639 0.85573 0.41099 0.0
H226 H 0.45637 0.69925 0.52277 0.0
C227 C 0.48486 0.81951 0.4042 0.0
C228 C 0.40374 0.73912 0.43897 0.0
H229 H 0.61878 0.91713 0.38287 0.0
H230 H 0.49295 0.85414 0.37172 0.0
C231 C 0.39385 0.69804 0.48305 0.0
C232 C 0.90065 0.77727 0.92273 0.0
C233 C 0.87001 0.8282 0.95277 0.0
H234 H 0.87625 0.65651 0.87856 0.0
C235 C 0.79685 0.80259 0.95262 0.0
H236 H -0.04302 0.79555 0.92194 0.0
C237 C 0.75006 0.7223 0.92861 0.0
C238 C 0.77744 0.66828 0.90265 0.0
H239 H 0.77137 0.84017 0.97573 0.0
H240 H 0.68941 0.69928 0.93409 0.0
C241 C 0.85503 0.69828 0.89741 0.0
loop_
_geom_bond_atom_site_label_1
_geom_bond_atom_site_label_2
_geom_bond_distance
_geom_bond_site_symmetry_2
_ccdc_geom_bond_type
C0 Eu1 2.835 . S
C0 C2 1.500 . S
C0 O20 1.257 . S
C0 O21 1.260 1_455 S
Eu1 C0 2.835 . S
Eu1 O20 2.473 . S
Eu1 O21 2.480 1_455 S
Eu1 O22 2.430 1_455 S
Eu1 O23 2.670 1_455 S
Eu1 O24 2.394 1_455 S
Eu1 O29 2.355 1_564 S
Eu1 O31 2.374 1_565 S
C2 C0 1.500 . S
C2 C3 1.377 . S
C2 C7 1.377 . S
C3 C2 1.377 . S
C3 C4 1.395 . S
C3 H32 0.931 1_455 S
C4 C3 1.395 . S
C4 C5 1.383 . S
C4 H33 0.931 1_455 S
C5 C4 1.383 . S
C5 C6 1.394 . S
C6 C5 1.394 . S
C6 C7 1.378 . S
C6 H34 0.931 . S
C7 C2 1.377 . S
C7 C6 1.378 . S
C7 H35 0.948 . S
C8 O22 1.259 . S
C8 O23 1.270 . S
C9 O24 1.251 1_556 S
C9 O25 1.251 . S
C10 Eu11 2.835 . S
C10 C12 1.500 . S
C10 O26 1.257 . S
C10 O27 1.260 1_655 S
Eu11 C10 2.835 . S
Eu11 O23 2.355 1_546 S
Eu11 O25 2.374 1_545 S
Eu11 O26 2.473 . S
Eu11 O27 2.480 1_655 S
Eu11 O28 2.430 1_655 S
Eu11 O29 2.670 1_655 S
Eu11 O30 2.394 1_656 S
C12 C10 1.500 . S
C12 C13 1.377 1_655 S
C12 C17 1.377 . S
C13 C12 1.377 1_455 S
C13 C14 1.395 . S
C13 H36 0.931 . S
C14 C13 1.395 . S
C14 C15 1.383 1_455 S
C14 H37 0.931 . S
C15 C14 1.383 1_655 S
C15 C16 1.394 . S
C16 C15 1.394 . S
C16 C17 1.378 . S
C16 H38 0.931 . S
C17 C12 1.377 . S
C17 C16 1.378 . S
C17 H39 0.931 1_556 S
C18 O28 1.259 . S
C18 O29 1.270 . S
C19 O30 1.251 . S
C19 O31 1.251 . S
O20 C0 1.257 . S
O20 Eu1 2.473 . S
O21 C0 1.260 1_655 S
O21 Eu1 2.480 1_655 S
O22 Eu1 2.430 1_655 S
O22 C8 1.259 . S
O23 Eu1 2.670 1_655 S
O23 C8 1.270 . S
O23 Eu11 2.355 1_564 S
O24 Eu1 2.394 1_655 S
O24 C9 1.251 1_554 S
O25 C9 1.251 . S
O25 Eu11 2.374 1_565 S
O26 C10 1.257 . S
O26 Eu11 2.473 . S
O27 C10 1.260 1_455 S
O27 Eu11 2.480 1_455 S
O28 Eu11 2.430 1_455 S
O28 C18 1.259 . S
O29 Eu1 2.355 1_546 S
O29 Eu11 2.670 1_455 S
O29 C18 1.270 . S
O30 Eu11 2.394 1_454 S
O30 C19 1.251 . S
O31 Eu1 2.374 1_545 S
O31 C19 1.251 . S
H32 C3 0.931 1_655 S
H33 C4 0.931 1_655 S
H34 C6 0.931 . S
H35 C7 0.948 . S
H36 C13 0.931 . S
H37 C14 0.931 . S
H38 C16 0.931 . S
H39 C17 0.931 1_554 S
C40 Eu41 2.835 . S
C40 C42 1.500 . S
C40 O60 1.257 . S
C40 O61 1.260 . S
Eu41 C40 2.835 . S
Eu41 O60 2.473 . S
Eu41 O61 2.480 . S
Eu41 O62 2.430 . S
Eu41 O63 2.670 . S
Eu41 O64 2.394 . S
Eu41 O69 2.355 1_665 S
Eu41 O71 2.374 1_655 S
C42 C40 1.500 . S
C42 C43 1.377 . S
C42 C47 1.377 . S
C43 C42 1.377 . S
C43 C44 1.395 . S
C43 H72 0.931 . S
C44 C43 1.395 . S
C44 C45 1.383 . S
C44 H73 0.931 . S
C45 C44 1.383 . S
C45 C46 1.394 . S
C46 C45 1.394 . S
C46 C47 1.378 . S
C46 H74 0.931 . S
C47 C42 1.377 . S
C47 C46 1.378 . S
C47 H75 0.931 1_565 S
C48 O62 1.259 . S
C48 O63 1.270 . S
C49 O64 1.251 1_545 S
C49 O65 1.251 . S
C50 Eu51 2.835 . S
C50 C52 1.500 . S
C50 O66 1.257 . S
C50 O67 1.260 . S
Eu51 C50 2.835 . S
Eu51 O63 2.355 1_445 S
Eu51 O65 2.374 1_455 S
Eu51 O66 2.473 . S
Eu51 O67 2.480 . S
Eu51 O68 2.430 . S
Eu51 O69 2.670 . S
Eu51 O70 2.394 . S
C52 C50 1.500 . S
C52 C53 1.377 . S
C52 C57 1.377 . S
C53 C52 1.377 . S
C53 C54 1.395 . S
C53 H76 0.931 . S
C54 C53 1.395 . S
C54 C55 1.383 . S
C54 H77 0.931 . S
C55 C54 1.383 . S
C55 C56 1.394 . S
C56 C55 1.394 . S
C56 C57 1.378 . S
C56 H78 0.931 . S
C57 C52 1.377 . S
C57 C56 1.378 . S
C57 H79 0.931 . S
C58 O68 1.259 . S
C58 O69 1.270 . S
C59 O70 1.251 1_565 S
C59 O71 1.251 . S
O60 C40 1.257 . S
O60 Eu41 2.473 . S
O61 C40 1.260 . S
O61 Eu41 2.480 . S
O62 Eu41 2.430 . S
O62 C48 1.259 . S
O63 Eu41 2.670 . S
O63 C48 1.270 . S
O63 Eu51 2.355 1_665 S
O64 Eu41 2.394 . S
O64 C49 1.251 1_565 S
O65 C49 1.251 . S
O65 Eu51 2.374 1_655 S
O66 C50 1.257 . S
O66 Eu51 2.473 . S
O67 C50 1.260 . S
O67 Eu51 2.480 . S
O68 Eu51 2.430 . S
O68 C58 1.259 . S
O69 Eu41 2.355 1_445 S
O69 Eu51 2.670 . S
O69 C58 1.270 . S
O70 Eu51 2.394 . S
O70 C59 1.251 1_545 S
O71 Eu41 2.374 1_455 S
O71 C59 1.251 . S
H72 C43 0.931 . S
H73 C44 0.931 . S
H74 C46 0.931 . S
H75 C47 0.931 1_545 S
H76 C53 0.931 . S
H77 C54 0.931 . S
H78 C56 0.931 . S
H79 C57 0.931 . S
Zn80 O86 1.920 . S
Zn80 O92 1.898 . S
Zn80 O95 1.905 . S
Zn81 O89 1.905 . S
Zn81 O90 1.898 . S
Zn81 O98 1.920 . S
Zn82 O85 2.080 . S
Zn82 O88 2.114 . S
Zn82 O91 2.120 . S
Zn82 O93 2.120 . S
Zn82 O94 2.114 . S
Zn82 O97 2.080 . S
C83 O88 1.166 . S
C83 O89 1.182 . S
C84 O90 1.167 . S
C84 O91 1.299 . S
O85 Zn82 2.080 . S
O85 C99 1.305 . S
O86 Zn80 1.920 . S
O86 C99 1.234 . S
C87 O92 1.167 . S
C87 O93 1.299 . S
O88 Zn82 2.114 . S
O88 C83 1.166 . S
O89 Zn81 1.905 . S
O89 C83 1.182 . S
O90 Zn81 1.898 . S
O90 C84 1.167 . S
O91 Zn82 2.120 . S
O91 C84 1.299 . S
O92 Zn80 1.898 . S
O92 C87 1.167 . S
O93 Zn82 2.120 . S
O93 C87 1.299 . S
O94 Zn82 2.114 . S
O94 C96 1.166 . S
O95 Zn80 1.905 . S
O95 C96 1.182 . S
C96 O94 1.166 . S
C96 O95 1.182 . S
O97 Zn82 2.080 . S
O97 C100 1.305 . S
O98 Zn81 1.920 . S
O98 C100 1.234 . S
C99 O85 1.305 . S
C99 O86 1.234 . S
C100 O97 1.305 . S
C100 O98 1.234 . S
Zn101 O107 1.920 . S
Zn101 O113 1.898 . S
Zn101 O116 1.905 . S
Zn102 O110 1.905 . S
Zn102 O111 1.898 . S
Zn102 O119 1.920 . S
Zn103 O106 2.080 . S
Zn103 O109 2.114 . S
Zn103 O112 2.120 . S
Zn103 O114 2.120 . S
Zn103 O115 2.114 . S
Zn103 O118 2.080 . S
C104 O109 1.166 . S
C104 O110 1.182 . S
C105 O111 1.167 . S
C105 O112 1.299 . S
O106 Zn103 2.080 . S
O106 C120 1.305 . S
O107 Zn101 1.920 . S
O107 C120 1.234 . S
C108 O113 1.167 . S
C108 O114 1.299 . S
O109 Zn103 2.114 . S
O109 C104 1.166 . S
O110 Zn102 1.905 . S
O110 C104 1.182 . S
O111 Zn102 1.898 . S
O111 C105 1.167 . S
O112 Zn103 2.120 . S
O112 C105 1.299 . S
O113 Zn101 1.898 . S
O113 C108 1.167 . S
O114 Zn103 2.120 . S
O114 C108 1.299 . S
O115 Zn103 2.114 . S
O115 C117 1.166 . S
O116 Zn101 1.905 . S
O116 C117 1.182 . S
C117 O115 1.166 . S
C117 O116 1.182 . S
O118 Zn103 2.080 . S
O118 C121 1.305 . S
O119 Zn102 1.920 . S
O119 C121 1.234 . S
C120 O106 1.305 . S
C120 O107 1.234 . S
C121 O118 1.305 . S
C121 O119 1.234 . S
C122 C123 1.387 . S
C122 H126 0.950 . S
C122 C131 1.390 . S
C123 C122 1.387 . S
C123 C125 1.387 . S
H124 C131 0.950 . S
C125 C123 1.387 . S
C125 C127 1.390 . S
C125 H129 0.950 . S
H126 C122 0.950 . S
C127 C125 1.390 . S
C127 C128 1.387 . S
C127 H130 0.950 . S
C128 C127 1.387 . S
C128 C131 1.387 . S
H129 C125 0.950 . S
H130 C127 0.950 . S
C131 C122 1.390 . S
C131 H124 0.950 . S
C131 C128 1.387 . S
C132 C133 1.387 . S
C132 H136 0.950 . S
C132 C141 1.390 . S
C133 C132 1.387 . S
C133 C135 1.387 . S
H134 C141 0.950 . S
C135 C133 1.387 . S
C135 C137 1.390 . S
C135 H139 0.950 . S
H136 C132 0.950 . S
C137 C135 1.390 . S
C137 C138 1.387 . S
C137 H140 0.950 . S
C138 C137 1.387 . S
C138 C141 1.387 . S
H139 C135 0.950 . S
H140 C137 0.950 . S
C141 C132 1.390 . S
C141 H134 0.950 . S
C141 C138 1.387 . S
C142 C143 1.387 . S
C142 H146 0.950 . S
C142 C151 1.390 . S
C143 C142 1.387 . S
C143 C145 1.387 . S
H144 C151 0.950 . S
C145 C143 1.387 . S
C145 C147 1.390 . S
C145 H149 0.950 . S
H146 C142 0.950 . S
C147 C145 1.390 . S
C147 C148 1.387 . S
C147 H150 0.950 . S
C148 C147 1.387 . S
C148 C151 1.387 . S
H149 C145 0.950 . S
H150 C147 0.950 . S
C151 C142 1.390 . S
C151 H144 0.950 . S
C151 C148 1.387 . S
C152 C153 1.387 . S
C152 H156 0.950 . S
C152 C161 1.390 . S
C153 C152 1.387 . S
C153 C155 1.387 . S
H154 C161 0.950 . S
C155 C153 1.387 . S
C155 C157 1.390 . S
C155 H159 0.950 . S
H156 C152 0.950 . S
C157 C155 1.390 . S
C157 C158 1.387 . S
C157 H160 0.950 . S
C158 C157 1.387 . S
C158 C161 1.387 . S
H159 C155 0.950 . S
H160 C157 0.950 . S
C161 C152 1.390 . S
C161 H154 0.950 . S
C161 C158 1.387 . S
C162 C163 1.387 . S
C162 H166 0.950 . S
C162 C171 1.390 . S
C163 C162 1.387 . S
C163 C165 1.387 . S
H164 C171 0.950 . S
C165 C163 1.387 . S
C165 C167 1.390 . S
C165 H169 0.950 . S
H166 C162 0.950 . S
C167 C165 1.390 . S
C167 C168 1.387 . S
C167 H170 0.950 . S
C168 C167 1.387 . S
C168 C171 1.387 . S
H169 C165 0.950 . S
H170 C167 0.950 . S
C171 C162 1.390 . S
C171 H164 0.950 . S
C171 C168 1.387 . S
C172 C173 1.387 . S
C172 H176 0.950 . S
C172 C181 1.390 . S
C173 C172 1.387 . S
C173 C175 1.387 . S
H174 C181 0.950 . S
C175 C173 1.387 . S
C175 C177 1.390 . S
C175 H179 0.950 . S
H176 C172 0.950 . S
C177 C175 1.390 . S
C177 C178 1.387 . S
C177 H180 0.950 . S
C178 C177 1.387 . S
C178 C181 1.387 . S
H179 C175 0.950 . S
H180 C177 0.950 . S
C181 C172 1.390 . S
C181 H174 0.950 . S
C181 C178 1.387 . S
C182 C183 1.387 . S
C182 H186 0.950 . S
C182 C191 1.390 . S
C183 C182 1.387 . S
C183 C185 1.387 . S
H184 C191 0.950 . S
C185 C183 1.387 . S
C185 C187 1.390 . S
C185 H189 0.950 . S
H186 C182 0.950 . S
C187 C185 1.390 . S
C187 C188 1.387 . S
C187 H190 0.950 . S
C188 C187 1.387 . S
C188 C191 1.387 . S
H189 C185 0.950 . S
H190 C187 0.950 . S
C191 C182 1.390 . S
C191 H184 0.950 . S
C191 C188 1.387 . S
C192 C193 1.387 . S
C192 H196 0.950 . S
C192 C201 1.390 . S
C193 C192 1.387 . S
C193 C195 1.387 . S
H194 C201 0.950 . S
C195 C193 1.387 . S
C195 C197 1.390 . S
C195 H199 0.950 . S
H196 C192 0.950 . S
C197 C195 1.390 . S
C197 C198 1.387 . S
C197 H200 0.950 . S
C198 C197 1.387 . S
C198 C201 1.387 . S
H199 C195 0.950 . S
H200 C197 0.950 . S
C201 C192 1.390 . S
C201 H194 0.950 . S
C201 C198 1.387 . S
C202 C203 1.387 . S
C202 H206 0.950 1_455 S
C202 C211 1.390 . S
C203 C202 1.387 . S
C203 C205 1.387 . S
H204 C211 0.950 . S
C205 C203 1.387 . S
C205 C207 1.390 . S
C205 H209 0.950 . S
H206 C202 0.950 1_655 S
C207 C205 1.390 . S
C207 C208 1.387 . S
C207 H210 0.950 . S
C208 C207 1.387 . S
C208 C211 1.387 . S
H209 C205 0.950 . S
H210 C207 0.950 . S
C211 C202 1.390 . S
C211 H204 0.950 . S
C211 C208 1.387 . S
C212 C213 1.387 . S
C212 H216 0.950 . S
C212 C221 1.390 . S
C213 C212 1.387 . S
C213 C215 1.387 . S
H214 C221 0.950 . S
C215 C213 1.387 . S
C215 C217 1.390 . S
C215 H219 0.950 . S
H216 C212 0.950 . S
C217 C215 1.390 . S
C217 C218 1.387 . S
C217 H220 0.950 . S
C218 C217 1.387 . S
C218 C221 1.387 . S
H219 C215 0.950 . S
H220 C217 0.950 . S
C221 C212 1.390 . S
C221 H214 0.950 . S
C221 C218 1.387 . S
C222 C223 1.387 . S
C222 H226 0.950 . S
C222 C231 1.390 . S
C223 C222 1.387 . S
C223 C225 1.387 . S
H224 C231 0.950 . S
C225 C223 1.387 . S
C225 C227 1.390 . S
C225 H229 0.950 . S
H226 C222 0.950 . S
C227 C225 1.390 . S
C227 C228 1.387 . S
C227 H230 0.950 . S
C228 C227 1.387 . S
C228 C231 1.387 . S
H229 C225 0.950 . S
H230 C227 0.950 . S
C231 C222 1.390 . S
C231 H224 0.950 . S
C231 C228 1.387 . S
C232 C233 1.387 . S
C232 H236 0.950 1_655 S
C232 C241 1.390 . S
C233 C232 1.387 . S
C233 C235 1.387 . S
H234 C241 0.950 . S
C235 C233 1.387 . S
C235 C237 1.390 . S
C235 H239 0.950 . S
H236 C232 0.950 1_455 S
C237 C235 1.390 . S
C237 C238 1.387 . S
C237 H240 0.950 . S
C238 C237 1.387 . S
C238 C241 1.387 . S
H239 C235 0.950 . S
H240 C237 0.950 . S
C241 C232 1.390 . S
C241 H234 0.950 . S
C241 C238 1.387 . S
C123 C5 1.401 . S
C128 C99 1.282 . S
C133 C55 1.124 . S
C138 C105 0.995 . S
C143 C19 1.517 . S
C148 C96 1.424 . S
C153 C49 2.250 . S
C158 C121 2.138 . S
C163 C8 2.033 . S
C168 C87 1.962 . S
C178 C104 1.789 . S
C173 C48 1.876 . S
C183 C59 1.919 . S
C188 C100 1.857 . S
C198 C117 2.159 . S
C193 C18 2.213 . S
C208 C84 2.103 . S
C203 C58 2.308 . S
C218 C120 1.421 . S
C213 C15 1.621 . S
C228 C83 1.048 . S
C223 C45 1.196 . S
C238 C108 1.103 . S
C233 C9 1.202 . S
