# Generated by pormake.
# Topology scu, (8,4)-cn, num edge types: 1
# Building blocks:
#     Node 0, Type 0, BuildingBlock: VETTIZ_charged_sbu_0, # of connection points: 8
#     Node 1, Type 1, BuildingBlock: KOZSID_clean_sbu_0, # of connection points: 4
#     Node 2, Type 1, BuildingBlock: KOZSID_clean_sbu_0, # of connection points: 4
#     Edge 3, Type (0, 1), BuildingBlock: OJICUG_clean_linker_0, # of connection points: 2
#     Edge 4, Type (0, 1), BuildingBlock: OJICUG_clean_linker_0, # of connection points: 2
#     Edge 5, Type (0, 1), BuildingBlock: OJICUG_clean_linker_0, # of connection points: 2
#     Edge 6, Type (0, 1), BuildingBlock: OJICUG_clean_linker_0, # of connection points: 2
#     Edge 7, Type (0, 1), BuildingBlock: OJICUG_clean_linker_0, # of connection points: 2
#     Edge 8, Type (0, 1), BuildingBlock: OJICUG_clean_linker_0, # of connection points: 2
#     Edge 9, Type (0, 1), BuildingBlock: OJICUG_clean_linker_0, # of connection points: 2
#     Edge 10, Type (0, 1), BuildingBlock: OJICUG_clean_linker_0, # of connection points: 2
# Relax obj value: 0.003
# Max RMSD: 0.036
# Mean RMSD: 0.018
data_MOF--net-scu--node1-VETTIZ_charged_sbu_0--node2-KOZSID_clean_sbu_0--edge1-OJICUG_clean_linker_0
_symmetry_space_group_name_H-M    P1
_symmetry_Int_Tables_number       1
_symmetry_cell_setting            triclinic
loop_
_symmetry_equiv_pos_as_xyz
'x, y, z'
_cell_length_a     21.913991
_cell_length_b     22.132689
_cell_length_c     15.650632
_cell_angle_alpha  82.9286
_cell_angle_beta   83.728064
_cell_angle_gamma 91.011681
loop_
_atom_site_label
_atom_site_type_symbol
_atom_site_fract_x
_atom_site_fract_y
_atom_site_fract_z
_atom_type_partial_charge
Fe0 Fe 0.03104 0.017 0.20902 0.0
O1 O 0.03368 0.02735 0.08186 0.0
Fe2 Fe 0.05538 0.94988 1.01814 0.0
Fe3 Fe 0.9627 0.05787 0.01982 0.0
O4 O 0.03799 0.02188 0.08204 0.0
O5 O 0.98439 0.98039 0.95611 0.0
O6 O 0.98008 0.98586 0.95594 0.0
Fe7 Fe 0.98702 0.99073 0.82896 0.0
C8 C 0.89202 0.00903 0.19035 0.0
O9 O 0.0327 0.11024 0.18663 0.0
O10 O 0.95717 0.13093 0.09592 0.0
O11 O 0.08171 0.98537 0.80624 0.0
O12 O 0.11809 1.00179 0.92883 0.0
O13 O 0.12946 0.93053 0.09235 0.0
O14 O 0.12403 0.00413 0.18595 0.0
O15 O 0.02067 0.11502 0.93003 0.0
O16 O 0.99574 0.0845 0.80772 0.0
C17 C 0.15239 0.96254 0.14672 0.0
O18 O 0.98536 0.89749 0.85136 0.0
O19 O 0.06091 0.87682 0.94204 0.0
O20 O 0.93635 0.02235 0.23174 0.0
O21 O 0.89997 0.00596 0.10913 0.0
C22 C 0.99532 0.14665 0.14862 0.0
C23 C 0.01596 0.12525 0.84902 0.0
C24 C 0.86567 0.04519 0.89127 0.0
O25 O 0.88861 0.07723 0.94562 0.0
O26 O 0.89403 1.00361 0.85204 0.0
C27 C 0.12604 0.99868 0.84761 0.0
O28 O 0.99741 0.89271 0.10793 0.0
O29 O 0.02234 0.92323 0.23025 0.0
C30 C 0.02275 0.86109 0.88935 0.0
C31 C 1.00213 0.88248 0.18894 0.0
C32 C 0.0539 0.61524 0.38793 0.0
C33 C 0.1074 0.64382 0.34461 0.0
C34 C 0.15495 0.60948 0.36959 0.0
C35 C 0.12803 0.56213 0.42664 0.0
N36 N 0.06601 0.56384 0.43955 0.0
Co37 Co 0.00911 0.50387 0.51897 0.0
N38 N 0.07924 0.45351 0.55604 0.0
C39 C 0.13958 0.46481 0.52919 0.0
C40 C 0.17718 0.42219 0.56491 0.0
C41 C 0.13863 0.38097 0.61766 0.0
C42 C 0.07945 0.40084 0.61099 0.0
N43 N 0.9522 0.44389 0.59838 0.0
C44 C 0.96432 0.39249 0.65 0.0
C45 C 0.91082 0.3639 0.69332 0.0
C46 C 0.86327 0.39825 0.66834 0.0
C47 C 0.89019 0.4456 0.61129 0.0
N48 N 0.93898 0.55422 0.4819 0.0
C49 C 0.87864 0.54293 0.50876 0.0
C50 C 0.84104 0.58555 0.47305 0.0
C51 C 0.87959 0.62676 0.42029 0.0
C52 C 0.93877 0.60689 0.42695 0.0
N53 N 1.00213 0.45417 0.42264 0.0
C54 C 0.99654 0.3717 0.2993 0.0
C55 C 0.94395 0.38451 0.35228 0.0
C56 C 0.94755 0.42636 0.41186 0.0
C57 C 0.05059 0.40508 0.30443 0.0
C58 C 0.05261 0.44474 0.36678 0.0
N59 N 0.01609 0.55356 0.6153 0.0
C60 C 0.96762 0.60264 0.73352 0.0
C61 C 0.02165 0.63605 0.73861 0.0
C62 C 0.07425 0.62327 0.68561 0.0
C63 C 0.07066 0.5814 0.62604 0.0
C64 C 0.96561 0.56297 0.67118 0.0
H65 H 0.11231 0.57379 0.58772 0.0
H66 H 0.92213 0.54181 0.66811 0.0
H67 H 0.9059 0.434 0.45017 0.0
H68 H 0.0961 0.46587 0.36988 0.0
C69 C 0.15952 0.5154 0.46962 0.0
C70 C 0.99304 0.6398 0.37957 0.0
C71 C 0.02518 0.36793 0.65836 0.0
C72 C 0.8587 0.49234 0.56833 0.0
H73 H 0.1117 0.68554 0.30008 0.0
H74 H 0.20342 0.61822 0.34906 0.0
H75 H 0.22675 0.42109 0.55366 0.0
H76 H 0.15242 0.34076 0.65664 0.0
H77 H 0.90652 0.32219 0.73785 0.0
H78 H 0.8148 0.38952 0.68888 0.0
H79 H 0.79147 0.58666 0.48431 0.0
H80 H 0.8658 0.66698 0.38131 0.0
H81 H 0.90064 0.36051 0.35109 0.0
H82 H 0.09223 0.39918 0.26266 0.0
H83 H 0.92598 0.60852 0.7753 0.0
H84 H 0.11754 0.64729 0.68679 0.0
C85 C 0.40413 0.95222 0.65698 0.0
C86 C 0.38209 0.89795 0.70547 0.0
C87 C 0.42191 0.85417 0.68384 0.0
C88 C 0.46582 0.8839 0.62348 0.0
N89 N 0.45689 0.94426 0.60561 0.0
Co90 Co 0.50904 0.0038 0.51902 0.0
N91 N 0.56615 0.93863 0.48443 0.0
C92 C 0.56153 0.87876 0.51567 0.0
C93 C 0.60779 0.84509 0.48131 0.0
C94 C 0.6446 0.88589 0.42518 0.0
C95 C 0.61867 0.9424 0.4287 0.0
N96 N 0.5612 0.06335 0.43245 0.0
C97 C 0.61396 0.05539 0.38108 0.0
C98 C 0.63602 0.10967 0.33263 0.0
C99 C 0.59621 0.15345 0.35427 0.0
C100 C 0.55228 0.12372 0.41461 0.0
N101 N 0.45192 0.06897 0.55359 0.0
C102 C 0.45652 0.12884 0.52231 0.0
C103 C 0.41024 0.1625 0.55664 0.0
C104 C 0.37343 0.1217 0.61277 0.0
C105 C 0.39939 0.0652 0.6093 0.0
N106 N 0.56189 0.02036 0.60991 0.0
C107 C 0.64638 0.04256 0.72779 0.0
C108 C 0.6216 0.09061 0.67737 0.0
C109 C 0.5797 0.07862 0.61964 0.0
C110 C 0.62586 0.98336 0.72063 0.0
C111 C 0.58388 0.97346 0.66231 0.0
N112 N 0.45619 0.98724 0.42813 0.0
C113 C 0.3923 0.02425 0.3173 0.0
C114 C 0.37167 0.96506 0.31028 0.0
C115 C 0.39635 0.91701 0.36082 0.0
C116 C 0.43827 0.929 0.41853 0.0
C117 C 0.4343 0.03415 0.37561 0.0
H118 H 0.45461 0.89039 0.45577 0.0
H119 H 0.44715 0.08035 0.37852 0.0
H120 H 0.56328 0.11723 0.58249 0.0
H121 H 0.57111 0.92724 0.6593 0.0
C122 C 0.51456 0.85603 0.57989 0.0
C123 C 0.37181 0.0094 0.65951 0.0
C124 C 0.64626 0.99821 0.37851 0.0
C125 C 0.50352 0.15158 0.45815 0.0
H126 H 0.34084 0.89052 0.75068 0.0
H127 H 0.41854 0.8061 0.70794 0.0
H128 H 0.61449 0.79677 0.49631 0.0
H129 H 0.68621 0.8754 0.38658 0.0
H130 H 0.67727 0.1171 0.28742 0.0
H131 H 0.59958 0.20152 0.33018 0.0
H132 H 0.40352 0.21082 0.54161 0.0
H133 H 0.33181 0.13218 0.65135 0.0
H134 H 0.63503 0.13742 0.68141 0.0
H135 H 0.6439 0.94426 0.75723 0.0
H136 H 0.37435 0.06335 0.2806 0.0
H137 H 0.38283 0.87022 0.35689 0.0
C138 C 0.04999 0.23105 0.20185 0.0
C139 C 0.99661 0.20955 0.1717 0.0
H140 H 0.09132 0.29652 0.26714 0.0
C141 C 0.94451 0.24564 0.17404 0.0
H142 H 0.09134 0.20488 0.20003 0.0
C143 C 0.94486 0.3002 0.21158 0.0
C144 C 0.99733 0.31941 0.24723 0.0
H145 H 0.90275 0.23033 0.15104 0.0
H146 H 0.90354 0.32629 0.21478 0.0
C147 C 0.05022 0.28461 0.2396 0.0
C148 C 0.77612 1.00247 0.19351 0.0
C149 C 0.82873 1.0016 0.23802 0.0
H150 H 0.67727 1.00254 0.20306 0.0
C151 C 0.82024 0.9973 0.32924 0.0
H152 H 0.78063 0.00607 0.12344 0.0
C153 C 0.76116 0.99516 0.3744 0.0
C154 C 0.70899 0.99764 0.3297 0.0
H155 H 0.85938 0.99634 0.36602 0.0
H156 H 0.75618 0.9926 0.44441 0.0
C157 C 0.71692 1.00071 0.2389 0.0
C158 C 0.98366 0.81124 0.3278 0.0
C159 C 0.99058 0.81985 0.23642 0.0
H160 H 0.97851 0.74766 0.44399 0.0
C161 C 0.99319 0.76794 0.19247 0.0
H162 H 0.98133 0.84998 0.36399 0.0
C163 C 0.99197 0.70921 0.23885 0.0
C164 C 0.98745 0.70129 0.32988 0.0
H165 H 0.99905 0.77273 0.12231 0.0
H166 H 0.99644 0.67005 0.20366 0.0
C167 C 0.98198 0.75271 0.37386 0.0
C168 C 0.22054 0.90918 0.24537 0.0
C169 C 0.21417 0.95014 0.17133 0.0
H170 H 0.27516 0.88185 0.34774 0.0
C171 C 0.26322 0.99038 0.13641 0.0
H172 H 0.1825 0.87891 0.27462 0.0
C173 C 0.3165 0.99223 0.17801 0.0
C174 C 0.32126 0.95454 0.25625 0.0
H175 H 0.25868 0.02319 0.08025 0.0
H176 H 0.35265 0.02536 0.15119 0.0
C177 C 0.27364 0.91119 0.28736 0.0
C178 C 0.96814 0.77668 0.83608 0.0
C179 C 0.0215 0.7982 0.86624 0.0
H180 H 0.92685 0.71119 0.77076 0.0
C181 C 0.07362 0.76213 0.86388 0.0
H182 H 0.92677 0.80283 0.8379 0.0
C183 C 0.0733 0.70758 0.82633 0.0
C184 C 0.02085 0.68835 0.79068 0.0
H185 H 0.11537 0.77746 0.88689 0.0
H186 H 0.11464 0.68151 0.82311 0.0
C187 C 0.96794 0.72312 0.79831 0.0
C188 C 0.24194 0.00537 0.84445 0.0
C189 C 0.18933 0.00607 0.79994 0.0
H190 H 0.34079 0.00542 0.8349 0.0
C191 C 0.19783 0.01014 0.70874 0.0
H192 H 0.23743 1.00195 0.9145 0.0
C193 C 0.25691 0.01225 0.66359 0.0
C194 C 0.30908 0.00996 0.70829 0.0
H195 H 0.1587 0.01096 0.67196 0.0
H196 H 0.2619 0.01464 0.5936 0.0
C197 C 0.30115 0.00709 0.79907 0.0
C198 C 0.02502 0.23979 0.84546 0.0
C199 C 0.02754 0.18787 0.80152 0.0
H200 H 0.02187 0.33768 0.83426 0.0
C201 C 0.03443 0.19648 0.71014 0.0
H202 H 0.0192 0.235 0.91562 0.0
C203 C 0.03615 0.255 0.66407 0.0
C204 C 0.03076 0.30643 0.70804 0.0
H205 H 0.03669 0.15774 0.67395 0.0
H206 H 0.03957 0.26005 0.59395 0.0
C207 C 0.02629 0.29851 0.79907 0.0
C208 C 0.7549 0.0172 0.90155 0.0
C209 C 0.80387 0.05756 0.86672 0.0
H210 H 0.66553 0.9821 0.88672 0.0
C211 C 0.79741 0.09862 0.79282 0.0
H212 H 0.75952 0.98432 0.95761 0.0
C213 C 0.7443 0.09659 0.75085 0.0
C214 C 0.69677 0.05311 0.78185 0.0
H215 H 0.83539 0.12899 0.76364 0.0
H216 H 0.7427 0.126 0.69056 0.0
C217 C 0.70161 0.01533 0.85998 0.0
loop_
_geom_bond_atom_site_label_1
_geom_bond_atom_site_label_2
_geom_bond_distance
_geom_bond_site_symmetry_2
_ccdc_geom_bond_type
Fe0 O1 1.886 1_565 S
Fe0 O4 1.715 1_655 S
Fe0 O9 2.077 1_565 S
Fe0 O14 1.935 1_665 S
Fe0 O20 2.077 . S
Fe0 O29 1.935 . S
O1 Fe0 1.886 1_545 S
O1 Fe3 1.715 1_554 S
Fe2 O4 1.886 . S
Fe2 O5 1.715 1_554 S
Fe2 O12 1.935 1_554 S
Fe2 O13 2.077 . S
Fe2 O19 1.935 1_554 S
Fe2 O28 2.077 . S
Fe3 O1 1.715 1_556 S
Fe3 O6 1.886 . S
Fe3 O10 1.935 1_556 S
Fe3 O15 2.077 . S
Fe3 O21 1.935 1_556 S
Fe3 O25 2.077 . S
O4 Fe0 1.715 1_455 S
O4 Fe2 1.886 . S
O5 Fe2 1.715 1_556 S
O5 Fe7 1.886 1_565 S
O6 Fe3 1.886 . S
O6 Fe7 1.715 1_655 S
Fe7 O5 1.886 1_545 S
Fe7 O6 1.715 1_455 S
Fe7 O11 2.077 . S
Fe7 O16 1.935 . S
Fe7 O18 2.077 1_545 S
Fe7 O26 1.935 1_445 S
C8 O20 1.381 1_545 S
C8 O21 1.421 . S
O9 Fe0 2.077 1_545 S
O9 C22 1.381 . S
O10 Fe3 1.935 1_554 S
O10 C22 1.421 . S
O11 Fe7 2.077 . S
O11 C27 1.381 1_545 S
O12 Fe2 1.935 1_556 S
O12 C27 1.421 . S
O13 Fe2 2.077 . S
O13 C17 1.381 . S
O14 Fe0 1.935 1_445 S
O14 C17 1.421 1_545 S
O15 Fe3 2.077 . S
O15 C23 1.381 . S
O16 Fe7 1.935 . S
O16 C23 1.421 1_455 S
C17 O13 1.381 . S
C17 O14 1.421 1_565 S
O18 Fe7 2.077 1_565 S
O18 C30 1.381 . S
O19 Fe2 1.935 1_556 S
O19 C30 1.421 . S
O20 Fe0 2.077 . S
O20 C8 1.381 1_565 S
O21 Fe3 1.935 1_554 S
O21 C8 1.421 . S
C22 O9 1.381 . S
C22 O10 1.421 . S
C23 O15 1.381 . S
C23 O16 1.421 1_655 S
C24 O25 1.381 . S
C24 O26 1.421 1_545 S
O25 Fe3 2.077 . S
O25 C24 1.381 . S
O26 Fe7 1.935 1_665 S
O26 C24 1.421 1_565 S
C27 O11 1.381 1_565 S
C27 O12 1.421 . S
O28 Fe2 2.077 . S
O28 C31 1.381 . S
O29 Fe0 1.935 . S
O29 C31 1.421 1_655 S
C30 O18 1.381 . S
C30 O19 1.421 . S
C31 O28 1.381 . S
C31 O29 1.421 1_455 S
C32 C33 1.443 . S
C32 N36 1.376 . S
C32 C70 1.404 . S
C33 C32 1.443 . S
C33 C34 1.340 . S
C33 H73 0.951 . S
C34 C33 1.340 . S
C34 C35 1.439 . S
C34 H74 0.950 . S
C35 C34 1.439 . S
C35 N36 1.374 . S
C35 C69 1.395 . S
N36 C32 1.376 . S
N36 C35 1.374 . S
N36 Co37 2.008 . S
Co37 N36 2.008 . S
Co37 N38 1.995 . S
Co37 N43 2.008 1_455 S
Co37 N48 1.995 1_455 S
Co37 N53 2.282 . S
Co37 N59 2.282 1_455 S
N38 Co37 1.995 . S
N38 C39 1.376 . S
N38 C42 1.383 . S
C39 N38 1.376 . S
C39 C40 1.446 . S
C39 C69 1.391 . S
C40 C39 1.446 . S
C40 C41 1.339 . S
C40 H75 0.949 . S
C41 C40 1.339 . S
C41 C42 1.439 . S
C41 H76 0.950 . S
C42 N38 1.383 . S
C42 C41 1.439 . S
C42 C71 1.382 1_455 S
N43 Co37 2.008 1_655 S
N43 C44 1.376 . S
N43 C47 1.374 . S
C44 N43 1.376 . S
C44 C45 1.443 . S
C44 C71 1.400 . S
C45 C44 1.443 . S
C45 C46 1.340 . S
C45 H77 0.951 . S
C46 C45 1.340 . S
C46 C47 1.439 . S
C46 H78 0.950 . S
C47 N43 1.374 . S
C47 C46 1.439 . S
C47 C72 1.395 . S
N48 Co37 1.995 1_655 S
N48 C49 1.376 . S
N48 C52 1.383 . S
C49 N48 1.376 . S
C49 C50 1.446 . S
C49 C72 1.391 . S
C50 C49 1.446 . S
C50 C51 1.339 . S
C50 H79 0.949 . S
C51 C50 1.339 . S
C51 C52 1.439 . S
C51 H80 0.950 . S
C52 N48 1.383 . S
C52 C51 1.439 . S
C52 C70 1.378 1_655 S
N53 Co37 2.282 . S
N53 C56 1.332 1_455 S
N53 C58 1.332 . S
C54 C55 1.375 1_455 S
C54 C57 1.400 . S
C55 C54 1.375 1_655 S
C55 C56 1.382 . S
C55 H81 0.950 . S
C56 N53 1.332 1_655 S
C56 C55 1.382 . S
C56 H67 0.952 . S
C57 C54 1.400 . S
C57 C58 1.382 . S
C57 H82 0.950 . S
C58 N53 1.332 . S
C58 C57 1.382 . S
C58 H68 0.948 . S
N59 Co37 2.282 1_655 S
N59 C63 1.332 1_655 S
N59 C64 1.332 . S
C60 C61 1.396 . S
C60 C64 1.382 . S
C60 H83 0.950 . S
C61 C60 1.396 . S
C61 C62 1.378 1_655 S
C62 C61 1.378 1_455 S
C62 C63 1.382 . S
C62 H84 0.950 . S
C63 N59 1.332 1_455 S
C63 C62 1.382 . S
C63 H65 0.952 . S
C64 N59 1.332 . S
C64 C60 1.382 . S
C64 H66 0.948 . S
H65 C63 0.952 . S
H66 C64 0.948 . S
H67 C56 0.952 . S
H68 C58 0.948 . S
C69 C35 1.395 . S
C69 C39 1.391 . S
C70 C32 1.404 . S
C70 C52 1.378 1_455 S
C71 C42 1.382 1_655 S
C71 C44 1.400 . S
C72 C47 1.395 . S
C72 C49 1.391 . S
H73 C33 0.951 . S
H74 C34 0.950 . S
H75 C40 0.949 . S
H76 C41 0.950 . S
H77 C45 0.951 . S
H78 C46 0.950 . S
H79 C50 0.949 . S
H80 C51 0.950 . S
H81 C55 0.950 . S
H82 C57 0.950 . S
H83 C60 0.950 . S
H84 C62 0.950 . S
C85 C86 1.443 . S
C85 N89 1.376 . S
C85 C123 1.398 . S
C86 C85 1.443 . S
C86 C87 1.340 . S
C86 H126 0.951 . S
C87 C86 1.340 . S
C87 C88 1.439 . S
C87 H127 0.950 . S
C88 C87 1.439 . S
C88 N89 1.374 . S
C88 C122 1.395 . S
N89 C85 1.376 . S
N89 C88 1.374 . S
N89 Co90 2.007 1_565 S
Co90 N89 2.007 1_545 S
Co90 N91 1.993 1_545 S
Co90 N96 2.010 . S
Co90 N101 1.997 . S
Co90 N106 2.282 1_545 S
Co90 N112 2.282 . S
N91 Co90 1.993 1_565 S
N91 C92 1.376 . S
N91 C95 1.383 . S
C92 N91 1.376 . S
C92 C93 1.446 . S
C92 C122 1.391 . S
C93 C92 1.446 . S
C93 C94 1.339 . S
C93 H128 0.949 . S
C94 C93 1.339 . S
C94 C95 1.439 . S
C94 H129 0.950 . S
C95 N91 1.383 . S
C95 C94 1.439 . S
C95 C124 1.376 1_565 S
N96 Co90 2.010 . S
N96 C97 1.376 . S
N96 C100 1.374 . S
C97 N96 1.376 . S
C97 C98 1.443 . S
C97 C124 1.406 . S
C98 C97 1.443 . S
C98 C99 1.340 . S
C98 H130 0.951 . S
C99 C98 1.340 . S
C99 C100 1.439 . S
C99 H131 0.950 . S
C100 N96 1.374 . S
C100 C99 1.439 . S
C100 C125 1.395 . S
N101 Co90 1.997 . S
N101 C102 1.376 . S
N101 C105 1.383 . S
C102 N101 1.376 . S
C102 C103 1.446 . S
C102 C125 1.391 . S
C103 C102 1.446 . S
C103 C104 1.339 . S
C103 H132 0.949 . S
C104 C103 1.339 . S
C104 C105 1.439 . S
C104 H133 0.950 . S
C105 N101 1.383 . S
C105 C104 1.439 . S
C105 C123 1.384 1_545 S
N106 Co90 2.282 1_565 S
N106 C109 1.332 1_565 S
N106 C111 1.332 . S
C107 C108 1.380 1_565 S
C107 C110 1.394 . S
C108 C107 1.380 1_545 S
C108 C109 1.382 . S
C108 H134 0.950 . S
C109 N106 1.332 1_545 S
C109 C108 1.382 . S
C109 H120 0.952 . S
C110 C107 1.394 . S
C110 C111 1.382 . S
C110 H135 0.950 . S
C111 N106 1.332 . S
C111 C110 1.382 . S
C111 H121 0.948 . S
N112 Co90 2.282 . S
N112 C116 1.332 1_545 S
N112 C117 1.332 . S
C113 C114 1.402 . S
C113 C117 1.382 . S
C113 H136 0.950 . S
C114 C113 1.402 . S
C114 C115 1.373 1_545 S
C115 C114 1.373 1_565 S
C115 C116 1.382 . S
C115 H137 0.950 . S
C116 N112 1.332 1_565 S
C116 C115 1.382 . S
C116 H118 0.952 . S
C117 N112 1.332 . S
C117 C113 1.382 . S
C117 H119 0.948 . S
H118 C116 0.952 . S
H119 C117 0.948 . S
H120 C109 0.952 . S
H121 C111 0.948 . S
C122 C88 1.395 . S
C122 C92 1.391 . S
C123 C85 1.398 . S
C123 C105 1.384 1_565 S
C124 C95 1.376 1_545 S
C124 C97 1.406 . S
C125 C100 1.395 . S
C125 C102 1.391 . S
H126 C86 0.951 . S
H127 C87 0.950 . S
H128 C93 0.949 . S
H129 C94 0.950 . S
H130 C98 0.951 . S
H131 C99 0.950 . S
H132 C103 0.949 . S
H133 C104 0.950 . S
H134 C108 0.950 . S
H135 C110 0.950 . S
H136 C113 0.950 . S
H137 C115 0.950 . S
C138 C139 1.387 1_455 S
C138 H142 0.950 . S
C138 C147 1.390 . S
C139 C138 1.387 1_655 S
C139 C141 1.387 . S
H140 C147 0.950 . S
C141 C139 1.387 . S
C141 C143 1.390 . S
C141 H145 0.950 . S
H142 C138 0.950 . S
C143 C141 1.390 . S
C143 C144 1.399 . S
C143 H146 0.950 . S
C144 C143 1.399 . S
C144 C147 1.377 1_655 S
H145 C141 0.950 . S
H146 C143 0.950 . S
C147 C138 1.390 . S
C147 H140 0.950 . S
C147 C144 1.377 1_455 S
C148 C149 1.387 1_545 S
C148 H152 0.950 . S
C148 C157 1.390 . S
C149 C148 1.387 1_565 S
C149 C151 1.387 . S
H150 C157 0.950 . S
C151 C149 1.387 . S
C151 C153 1.390 . S
C151 H155 0.950 . S
H152 C148 0.950 . S
C153 C151 1.390 . S
C153 C154 1.387 . S
C153 H156 0.950 . S
C154 C153 1.387 . S
C154 C157 1.387 1_565 S
H155 C151 0.950 . S
H156 C153 0.950 . S
C157 C148 1.390 . S
C157 H150 0.950 . S
C157 C154 1.387 1_545 S
C158 C159 1.387 . S
C158 H162 0.950 . S
C158 C167 1.390 . S
C159 C158 1.387 . S
C159 C161 1.387 1_655 S
H160 C167 0.950 . S
C161 C159 1.387 1_455 S
C161 C163 1.390 . S
C161 H165 0.950 . S
H162 C158 0.950 . S
C163 C161 1.390 . S
C163 C164 1.387 1_455 S
C163 H166 0.950 . S
C164 C163 1.387 1_655 S
C164 C167 1.387 . S
H165 C161 0.950 . S
H166 C163 0.950 . S
C167 C158 1.390 . S
C167 H160 0.950 . S
C167 C164 1.387 . S
C168 C169 1.387 . S
C168 H172 0.950 . S
C168 C177 1.390 . S
C169 C168 1.387 . S
C169 C171 1.387 1_565 S
H170 C177 0.950 . S
C171 C169 1.387 1_545 S
C171 C173 1.390 . S
C171 H175 0.950 . S
H172 C168 0.950 . S
C173 C171 1.390 . S
C173 C174 1.376 1_545 S
C173 H176 0.950 . S
C174 C173 1.376 1_565 S
C174 C177 1.400 . S
H175 C171 0.950 . S
H176 C173 0.950 . S
C177 C168 1.390 . S
C177 H170 0.950 . S
C177 C174 1.400 . S
C178 C179 1.387 1_655 S
C178 H182 0.950 . S
C178 C187 1.390 . S
C179 C178 1.387 1_455 S
C179 C181 1.387 . S
H180 C187 0.950 . S
C181 C179 1.387 . S
C181 C183 1.390 . S
C181 H185 0.950 . S
H182 C178 0.950 . S
C183 C181 1.390 . S
C183 C184 1.387 . S
C183 H186 0.950 . S
C184 C183 1.387 . S
C184 C187 1.387 1_455 S
H185 C181 0.950 . S
H186 C183 0.950 . S
C187 C178 1.390 . S
C187 H180 0.950 . S
C187 C184 1.387 1_655 S
C188 C189 1.387 . S
C188 H192 0.950 . S
C188 C197 1.390 . S
C189 C188 1.387 . S
C189 C191 1.387 1_545 S
H190 C197 0.950 . S
C191 C189 1.387 1_565 S
C191 C193 1.390 . S
C191 H195 0.950 . S
H192 C188 0.950 . S
C193 C191 1.390 . S
C193 C194 1.387 1_565 S
C193 H196 0.950 . S
C194 C193 1.387 1_545 S
C194 C197 1.387 . S
H195 C191 0.950 . S
H196 C193 0.950 . S
C197 C188 1.390 . S
C197 H190 0.950 . S
C197 C194 1.387 . S
C198 C199 1.387 1_655 S
C198 H202 0.950 . S
C198 C207 1.390 . S
C199 C198 1.387 1_455 S
C199 C201 1.387 . S
H200 C207 0.950 . S
C201 C199 1.387 . S
C201 C203 1.390 . S
C201 H205 0.950 . S
H202 C198 0.950 . S
C203 C201 1.390 . S
C203 C204 1.387 . S
C203 H206 0.950 . S
C204 C203 1.387 . S
C204 C207 1.387 1_455 S
H205 C201 0.950 . S
H206 C203 0.950 . S
C207 C198 1.390 . S
C207 H200 0.950 . S
C207 C204 1.387 1_655 S
C208 C209 1.387 1_565 S
C208 H212 0.950 . S
C208 C217 1.390 . S
C209 C208 1.387 1_545 S
C209 C211 1.387 . S
H210 C217 0.950 . S
C211 C209 1.387 . S
C211 C213 1.390 . S
C211 H215 0.950 . S
H212 C208 0.950 . S
C213 C211 1.390 . S
C213 C214 1.387 . S
C213 H216 0.950 . S
C214 C213 1.387 . S
C214 C217 1.387 1_545 S
H215 C211 0.950 . S
H216 C213 0.950 . S
C217 C208 1.390 . S
C217 H210 0.950 . S
C217 C214 1.387 1_565 S
C139 C22 1.388 . S
C144 C54 1.427 1_655 S
C149 C8 1.506 1_565 S
C154 C124 1.567 1_565 S
C159 C31 1.510 1_655 S
C164 C70 1.567 1_655 S
C169 C17 1.384 . S
C174 C114 1.426 1_565 S
C179 C30 1.390 . S
C184 C61 1.428 1_455 S
C189 C27 1.506 1_545 S
C194 C123 1.569 1_545 S
C204 C71 1.568 1_455 S
C199 C23 1.510 1_455 S
C209 C24 1.384 . S
C214 C107 1.428 1_545 S
