# Generated by pormake.
# Topology scu, (8,4)-cn, num edge types: 1
# Building blocks:
#     Node 0, Type 0, BuildingBlock: GIZVER_clean_sbu_0, # of connection points: 8
#     Node 1, Type 1, BuildingBlock: MUDLON_clean_sbu_0, # of connection points: 4
#     Node 2, Type 1, BuildingBlock: MUDLON_clean_sbu_0, # of connection points: 4
#     Edge 3, Type (0, 1), BuildingBlock: AJUNOK_clean_linker_0, # of connection points: 2
#     Edge 4, Type (0, 1), BuildingBlock: AJUNOK_clean_linker_0, # of connection points: 2
#     Edge 5, Type (0, 1), BuildingBlock: AJUNOK_clean_linker_0, # of connection points: 2
#     Edge 6, Type (0, 1), BuildingBlock: AJUNOK_clean_linker_0, # of connection points: 2
#     Edge 7, Type (0, 1), BuildingBlock: AJUNOK_clean_linker_0, # of connection points: 2
#     Edge 8, Type (0, 1), BuildingBlock: AJUNOK_clean_linker_0, # of connection points: 2
#     Edge 9, Type (0, 1), BuildingBlock: AJUNOK_clean_linker_0, # of connection points: 2
#     Edge 10, Type (0, 1), BuildingBlock: AJUNOK_clean_linker_0, # of connection points: 2
# Relax obj value: 0.008
# Max RMSD: 0.064
# Mean RMSD: 0.039
data_MOF--net-scu--node1-GIZVER_clean_sbu_0--node2-MUDLON_clean_sbu_0--edge1-AJUNOK_clean_linker_0
_symmetry_space_group_name_H-M    P1
_symmetry_Int_Tables_number       1
_symmetry_cell_setting            triclinic
loop_
_symmetry_equiv_pos_as_xyz
'x, y, z'
_cell_length_a     17.666833
_cell_length_b     18.558874
_cell_length_c     16.996578
_cell_angle_alpha  102.2314
_cell_angle_beta   78.487255
_cell_angle_gamma 117.16707
loop_
_atom_site_label
_atom_site_type_symbol
_atom_site_fract_x
_atom_site_fract_y
_atom_site_fract_z
_atom_type_partial_charge
Co0 Co 0.04668 0.96032 0.28441 0.0
Co1 Co 0.18102 0.08557 0.22955 0.0
Co2 Co 0.02532 0.04563 0.1349 0.0
O3 O 0.08706 1.00207 0.18239 0.0
H4 H 0.10692 0.96733 0.14199 0.0
O5 O 0.96281 0.08881 0.08685 0.0
Co6 Co 1.00673 0.12671 0.98373 0.0
Co7 Co 0.87201 1.00681 1.03702 0.0
H8 H 0.94367 0.12484 0.12606 0.0
O9 O 0.27269 0.066 0.2383 0.0
O10 O 0.1539 0.04577 0.32716 0.0
O11 O 0.18303 0.19176 0.25603 0.0
O12 O 0.05704 0.15115 0.21318 0.0
O13 O 0.13152 0.09617 0.05893 0.0
O14 O 0.04606 0.17001 0.89239 0.0
O15 O 0.96482 0.20192 1.00078 0.0
O16 O 0.0608 0.05625 0.95273 0.0
O17 O 0.99179 0.93901 0.05711 0.0
O18 O 0.86243 0.89818 1.02117 0.0
O19 O 0.90129 0.041 0.93591 0.0
O20 O 0.78072 1.02175 1.02335 0.0
C21 C 0.06029 0.87715 0.33624 0.0
C22 C 0.92529 1.02173 0.28815 0.0
C23 C 0.11808 0.20321 0.25357 0.0
C24 C 0.22782 0.04306 0.30643 0.0
C25 C 0.00894 0.2163 0.92964 0.0
C26 C 0.12965 0.07791 0.98264 0.0
C27 C 0.92634 0.88506 1.02279 0.0
C28 C 0.82262 0.0333 0.95154 0.0
O29 O 0.01596 0.91629 0.37568 0.0
O30 O 0.09333 0.88836 0.26143 0.0
O31 O 0.92148 0.99651 0.21246 0.0
O32 O 0.98773 0.02887 0.32131 0.0
Mg33 Mg 0.02337 0.54929 0.63599 0.0
C34 C 0.06345 0.44114 0.51378 0.0
O35 O 0.13155 0.49538 0.54818 0.0
C36 C 0.99173 0.64462 0.7791 0.0
O37 O 0.07256 0.65782 0.76704 0.0
C38 C 0.00848 0.4568 0.75985 0.0
O39 O 0.93103 0.4484 0.7572 0.0
O40 O 0.07079 0.50365 0.71465 0.0
O41 O 0.99211 0.44469 0.5402 0.0
O42 O 0.09842 0.65566 0.57104 0.0
C43 C 0.08816 0.64666 0.49673 0.0
O44 O 0.04714 0.57264 0.45944 0.0
O45 O 0.94287 0.59494 0.72632 0.0
Mg46 Mg 0.54037 0.07563 0.62545 0.0
C47 C 0.39634 0.96009 0.50585 0.0
O48 O 0.42529 0.90405 0.48635 0.0
C49 C 0.65631 0.05748 0.70503 0.0
O50 O 0.69264 0.1326 0.68775 0.0
C51 C 0.41962 0.06472 0.7595 0.0
O52 O 0.41685 0.99261 0.72809 0.0
O53 O 0.48017 0.12761 0.7312 0.0
O54 O 0.43217 0.02304 0.55593 0.0
O55 O 0.65614 0.13828 0.54486 0.0
C56 C 0.65483 0.10713 0.47056 0.0
O57 O 0.58004 0.06123 0.44408 0.0
O58 O 0.58325 1.00858 0.68201 0.0
C59 C 0.16658 0.31907 0.36571 0.0
C60 C 0.10545 0.27027 0.31177 0.0
C61 C 0.15134 0.37319 0.43027 0.0
C62 C 0.07432 0.38165 0.44429 0.0
H63 H 0.22614 0.31388 0.35993 0.0
H64 H 0.20046 0.40779 0.47044 0.0
S65 S 0.89612 0.27482 0.31676 0.0
N66 N 0.9665 0.23861 0.27349 0.0
N67 N 0.93814 0.34075 0.39586 0.0
C68 C 0.01344 0.33561 0.38963 0.0
C69 C 0.02911 0.28025 0.32306 0.0
C70 C 0.78769 0.03317 0.30014 0.0
C71 C 0.86166 0.05147 0.33452 0.0
C72 C 0.7243 0.05669 0.34276 0.0
C73 C 0.7317 0.09979 0.42187 0.0
H74 H 0.77716 0.99827 0.24033 0.0
H75 H 0.66734 0.03799 0.31418 0.0
S76 S 0.91954 0.17496 0.53463 0.0
N77 N 0.94349 0.12391 0.44912 0.0
N78 N 0.82419 0.16828 0.5293 0.0
C79 C 0.80793 0.12328 0.45519 0.0
C80 C 0.87266 0.09885 0.41171 0.0
C81 C 0.09807 0.76186 0.33353 0.0
C82 C 0.07799 0.82505 0.37823 0.0
C83 C 0.10804 0.70788 0.37269 0.0
C84 C 0.10027 0.71616 0.45792 0.0
H85 H 0.10232 0.75167 0.26796 0.0
H86 H 0.11827 0.65704 0.33593 0.0
S87 S 0.06242 0.88012 0.60216 0.0
N88 N 0.06042 0.89869 0.51204 0.0
N89 N 0.08088 0.79828 0.5853 0.0
C90 C 0.08721 0.78316 0.50303 0.0
C91 C 0.07535 0.83717 0.46326 0.0
C92 C 0.25315 0.03342 0.44242 0.0
C93 C 0.25948 1.01047 0.35815 0.0
C94 C 0.29204 1.01086 0.49105 0.0
C95 C 0.33731 0.96338 0.45725 0.0
H96 H 0.22175 0.07242 0.47043 0.0
H97 H 0.29005 0.034 0.5552 0.0
S98 S 0.35683 0.8744 0.24145 0.0
N99 N 0.30373 0.92873 0.24408 0.0
N100 N 0.37548 0.88494 0.33563 0.0
C101 C 0.33703 0.93384 0.37403 0.0
C102 C 0.29882 0.95813 0.32434 0.0
C103 C 0.88186 0.77242 0.90563 0.0
C104 C 0.93175 0.81185 0.97081 0.0
C105 C 0.89742 0.71393 0.84603 0.0
C106 C 0.96337 0.69276 0.84951 0.0
H107 H 0.83367 0.7902 0.8977 0.0
H108 H 0.86103 0.68896 0.79458 0.0
S109 S 0.10195 0.76682 1.01485 0.0
N110 N 0.04212 0.8171 1.04031 0.0
N111 N 0.07118 0.70741 0.92908 0.0
C112 C 0.00899 0.72679 0.91767 0.0
C113 C 0.99327 0.78624 0.97809 0.0
C114 C 0.28668 0.1383 0.93307 0.0
C115 C 0.20428 0.07322 0.92898 0.0
C116 C 0.35669 0.13647 0.8774 0.0
C117 C 0.3465 0.06848 0.81762 0.0
H118 H 0.29654 0.19172 0.97814 0.0
H119 H 0.41904 0.18797 0.88165 0.0
S120 S 0.14359 0.8813 0.7848 0.0
N121 N 0.11659 0.93907 0.86198 0.0
N122 N 0.2471 0.93398 0.75901 0.0
C123 C 0.26431 1.0025 0.81442 0.0
C124 C 0.19342 1.00527 0.86972 0.0
C125 C 0.95785 0.31861 0.91682 0.0
C126 C 0.01516 0.2829 0.88946 0.0
C127 C 0.95896 0.37762 0.87636 0.0
C128 C 0.01827 0.4043 0.80778 0.0
H129 H 0.90993 0.29911 0.96835 0.0
H130 H 0.91162 0.40136 0.89806 0.0
S131 S 0.18492 0.33339 0.7136 0.0
N132 N 0.13546 0.28118 0.79068 0.0
N133 N 0.13735 0.39247 0.71559 0.0
C134 C 0.07803 0.37155 0.78148 0.0
C135 C 0.07637 0.31065 0.82197 0.0
C136 C 0.82627 0.07033 0.8175 0.0
C137 C 0.7783 0.03129 0.8853 0.0
C138 C 0.78576 0.07432 0.75682 0.0
C139 C 0.69592 0.03748 0.76049 0.0
H140 H 0.89554 0.10063 0.81247 0.0
H141 H 0.82513 0.1086 0.70772 0.0
S142 S 0.54096 0.9202 0.92044 0.0
N143 N 0.63579 0.94976 0.94951 0.0
N144 N 0.56011 0.95623 0.83409 0.0
C145 C 0.64715 0.99413 0.82525 0.0
C146 C 0.68827 0.99142 0.88811 0.0
loop_
_geom_bond_atom_site_label_1
_geom_bond_atom_site_label_2
_geom_bond_distance
_geom_bond_site_symmetry_2
_ccdc_geom_bond_type
Co0 O3 2.042 1_565 S
Co0 O10 2.264 1_565 S
Co0 O29 2.286 1_455 S
Co0 O30 2.069 . S
Co0 O32 2.015 1_455 S
Co1 O3 2.122 . S
Co1 O9 2.073 . S
Co1 O10 2.327 . S
Co1 O11 1.976 . S
Co2 O3 2.087 . S
Co2 O5 2.087 1_455 S
Co2 O12 2.111 . S
Co2 O13 2.143 . S
Co2 O17 2.111 1_445 S
Co2 O31 2.143 1_445 S
O3 Co0 2.042 1_545 S
O3 Co1 2.122 . S
O3 Co2 2.087 . S
O3 H4 0.980 1_545 S
H4 O3 0.980 1_565 S
O5 Co2 2.087 1_655 S
O5 Co6 2.042 1_654 S
O5 Co7 2.122 1_544 S
O5 H8 0.980 . S
Co6 O5 2.042 1_456 S
Co6 O14 2.286 . S
Co6 O15 2.069 1_455 S
Co6 O16 2.015 . S
Co6 O19 2.264 1_455 S
Co7 O5 2.122 1_566 S
Co7 O18 1.976 . S
Co7 O19 2.327 1_565 S
Co7 O20 2.073 . S
H8 O5 0.980 . S
O9 Co1 2.073 . S
O9 C24 1.245 . S
O10 Co0 2.264 1_545 S
O10 Co1 2.327 . S
O10 C24 1.257 . S
O11 Co1 1.976 . S
O11 C23 1.251 . S
O12 Co2 2.111 . S
O12 C23 1.274 . S
O13 Co2 2.143 . S
O13 C26 1.246 1_554 S
O14 Co6 2.286 . S
O14 C25 1.259 . S
O15 Co6 2.069 1_655 S
O15 C25 1.289 1_655 S
O16 Co6 2.015 . S
O16 C26 1.257 . S
O17 Co2 2.111 1_665 S
O17 C27 1.274 1_554 S
O18 Co7 1.976 . S
O18 C27 1.251 . S
O19 Co6 2.264 1_655 S
O19 Co7 2.327 1_545 S
O19 C28 1.257 . S
O20 Co7 2.073 . S
O20 C28 1.245 1_565 S
C21 O29 1.259 1_455 S
C21 O30 1.289 . S
C22 O31 1.247 1_545 S
C22 O32 1.249 1_545 S
C23 O11 1.251 . S
C23 O12 1.274 . S
C24 O9 1.245 . S
C24 O10 1.257 . S
C25 O14 1.259 . S
C25 O15 1.289 1_455 S
C26 O13 1.246 1_556 S
C26 O16 1.257 . S
C27 O17 1.274 1_556 S
C27 O18 1.251 . S
C28 O19 1.257 . S
C28 O20 1.245 1_545 S
O29 Co0 2.286 1_655 S
O29 C21 1.259 1_655 S
O30 Co0 2.069 . S
O30 C21 1.289 . S
O31 Co2 2.143 1_665 S
O31 C22 1.247 1_565 S
O32 Co0 2.015 1_655 S
O32 C22 1.249 1_565 S
Mg33 O40 2.141 . S
Mg33 O41 2.048 . S
Mg33 O42 2.048 . S
Mg33 O45 2.141 . S
C34 O35 1.313 . S
C34 O41 1.195 1_455 S
O35 C34 1.313 . S
C36 O37 1.245 . S
C36 O45 1.289 1_455 S
O37 C36 1.245 . S
C38 O39 1.245 . S
C38 O40 1.289 1_455 S
O39 C38 1.245 . S
O40 Mg33 2.141 . S
O40 C38 1.289 1_655 S
O41 Mg33 2.048 . S
O41 C34 1.195 1_655 S
O42 Mg33 2.048 . S
O42 C43 1.195 1_655 S
C43 O42 1.195 1_455 S
C43 O44 1.313 . S
O44 C43 1.313 . S
O45 Mg33 2.141 . S
O45 C36 1.289 1_655 S
Mg46 O53 2.141 . S
Mg46 O54 2.048 . S
Mg46 O55 2.048 . S
Mg46 O58 2.141 . S
C47 O48 1.313 1_545 S
C47 O54 1.195 . S
O48 C47 1.313 1_565 S
C49 O50 1.245 1_545 S
C49 O58 1.289 . S
O50 C49 1.245 1_565 S
C51 O52 1.245 1_545 S
C51 O53 1.289 . S
O52 C51 1.245 1_565 S
O53 Mg46 2.141 . S
O53 C51 1.289 . S
O54 Mg46 2.048 . S
O54 C47 1.195 . S
O55 Mg46 2.048 . S
O55 C56 1.195 . S
C56 O55 1.195 . S
C56 O57 1.313 1_545 S
O57 C56 1.313 1_565 S
O58 Mg46 2.141 . S
O58 C49 1.289 . S
C59 C60 1.369 . S
C59 C61 1.419 . S
C59 H63 0.930 . S
C60 C59 1.369 . S
C60 C69 1.429 1_455 S
C61 C59 1.419 . S
C61 C62 1.363 . S
C61 H64 0.929 . S
C62 C61 1.363 . S
C62 C68 1.428 1_455 S
H63 C59 0.930 . S
H64 C61 0.929 . S
S65 N66 1.613 . S
S65 N67 1.610 . S
N66 S65 1.613 . S
N66 C69 1.350 . S
N67 S65 1.610 . S
N67 C68 1.351 . S
C68 C62 1.428 1_655 S
C68 N67 1.351 . S
C68 C69 1.434 . S
C69 C60 1.429 1_655 S
C69 N66 1.350 . S
C69 C68 1.434 . S
C70 C71 1.369 1_565 S
C70 C72 1.417 1_565 S
C70 H74 0.930 . S
C71 C70 1.369 1_545 S
C71 C80 1.429 . S
C72 C70 1.417 1_545 S
C72 C73 1.363 . S
C72 H75 0.932 1_545 S
C73 C72 1.363 . S
C73 C79 1.428 . S
H74 C70 0.930 . S
H75 C72 0.932 1_565 S
S76 N77 1.613 . S
S76 N78 1.610 . S
N77 S76 1.613 . S
N77 C80 1.350 . S
N78 S76 1.610 . S
N78 C79 1.351 . S
C79 C73 1.428 . S
C79 N78 1.351 . S
C79 C80 1.434 . S
C80 C71 1.429 . S
C80 N77 1.350 . S
C80 C79 1.434 . S
C81 C82 1.369 . S
C81 C83 1.419 . S
C81 H85 0.930 . S
C82 C81 1.369 . S
C82 C91 1.429 1_455 S
C83 C81 1.419 . S
C83 C84 1.363 . S
C83 H86 0.929 . S
C84 C83 1.363 . S
C84 C90 1.428 1_455 S
H85 C81 0.930 . S
H86 C83 0.929 . S
S87 N88 1.613 . S
S87 N89 1.610 . S
N88 S87 1.613 . S
N88 C91 1.350 . S
N89 S87 1.610 . S
N89 C90 1.351 . S
C90 C84 1.428 1_655 S
C90 N89 1.351 . S
C90 C91 1.434 . S
C91 C82 1.429 1_655 S
C91 N88 1.350 . S
C91 C90 1.434 . S
C92 C93 1.369 . S
C92 C94 1.419 . S
C92 H96 0.930 . S
C93 C92 1.369 . S
C93 C102 1.429 1_545 S
C94 C92 1.419 . S
C94 C95 1.363 . S
C94 H97 0.929 . S
C95 C94 1.363 . S
C95 C101 1.428 1_545 S
H96 C92 0.930 . S
H97 C94 0.929 . S
S98 N99 1.613 . S
S98 N100 1.610 . S
N99 S98 1.613 . S
N99 C102 1.350 . S
N100 S98 1.610 . S
N100 C101 1.351 . S
C101 C95 1.428 1_565 S
C101 N100 1.351 . S
C101 C102 1.434 . S
C102 C93 1.429 1_565 S
C102 N99 1.350 . S
C102 C101 1.434 . S
C103 C104 1.369 1_655 S
C103 C105 1.419 . S
C103 H107 0.930 . S
C104 C103 1.369 1_455 S
C104 C113 1.429 . S
C105 C103 1.419 . S
C105 C106 1.363 1_655 S
C105 H108 0.929 . S
C106 C105 1.363 1_455 S
C106 C112 1.428 . S
H107 C103 0.930 . S
H108 C105 0.929 . S
S109 N110 1.613 . S
S109 N111 1.610 . S
N110 S109 1.613 . S
N110 C113 1.350 . S
N111 S109 1.610 . S
N111 C112 1.351 . S
C112 C106 1.428 . S
C112 N111 1.351 . S
C112 C113 1.434 . S
C113 C104 1.429 . S
C113 N110 1.350 . S
C113 C112 1.434 . S
C114 C115 1.369 . S
C114 C116 1.419 . S
C114 H118 0.930 . S
C115 C114 1.369 . S
C115 C124 1.429 1_545 S
C116 C114 1.419 . S
C116 C117 1.363 . S
C116 H119 0.929 . S
C117 C116 1.363 . S
C117 C123 1.428 1_545 S
H118 C114 0.930 . S
H119 C116 0.929 . S
S120 N121 1.613 . S
S120 N122 1.610 . S
N121 S120 1.613 . S
N121 C124 1.350 . S
N122 S120 1.610 . S
N122 C123 1.351 . S
C123 C117 1.428 1_565 S
C123 N122 1.351 . S
C123 C124 1.434 . S
C124 C115 1.429 1_565 S
C124 N121 1.350 . S
C124 C123 1.434 . S
C125 C126 1.369 . S
C125 C127 1.419 . S
C125 H129 0.930 . S
C126 C125 1.369 . S
C126 C135 1.429 1_455 S
C127 C125 1.419 . S
C127 C128 1.363 . S
C127 H130 0.929 . S
C128 C127 1.363 . S
C128 C134 1.428 1_455 S
H129 C125 0.930 . S
H130 C127 0.929 . S
S131 N132 1.613 . S
S131 N133 1.610 . S
N132 S131 1.613 . S
N132 C135 1.350 . S
N133 S131 1.610 . S
N133 C134 1.351 . S
C134 C128 1.428 1_655 S
C134 N133 1.351 . S
C134 C135 1.434 . S
C135 C126 1.429 1_655 S
C135 N132 1.350 . S
C135 C134 1.434 . S
C136 C137 1.369 . S
C136 C138 1.419 . S
C136 H140 0.930 . S
C137 C136 1.369 . S
C137 C146 1.429 . S
C138 C136 1.419 . S
C138 C139 1.363 . S
C138 H141 0.929 . S
C139 C138 1.363 . S
C139 C145 1.428 . S
H140 C136 0.930 . S
H141 C138 0.929 . S
S142 N143 1.613 . S
S142 N144 1.610 . S
N143 S142 1.613 . S
N143 C146 1.350 . S
N144 S142 1.610 . S
N144 C145 1.351 . S
C145 C139 1.428 . S
C145 N144 1.351 . S
C145 C146 1.434 . S
C146 C137 1.429 . S
C146 N143 1.350 . S
C146 C145 1.434 . S
C60 C23 1.354 . S
C62 C34 1.422 . S
C71 C22 1.454 . S
C73 C56 1.493 . S
C82 C21 1.641 . S
C84 C43 1.650 . S
C93 C24 1.478 . S
C95 C47 1.527 . S
C104 C27 1.294 1_455 S
C106 C36 1.366 . S
C115 C26 1.395 . S
C117 C51 1.442 . S
C128 C38 1.599 . S
C126 C25 1.588 . S
C137 C28 1.426 . S
C139 C49 1.488 . S
