# Generated by pormake.
# Topology bcu-b, (8,8)-cn, num edge types: 1
# Building blocks:
#     Node 0, Type 0, BuildingBlock: VETTIZ_charged_sbu_0, # of connection points: 8
#     Node 1, Type 1, BuildingBlock: GIZVER_clean_sbu_0, # of connection points: 8
#     Edge 2, Type (0, 1), BuildingBlock: EZIPEK_clean_linker_0, # of connection points: 2
#     Edge 3, Type (0, 1), BuildingBlock: EZIPEK_clean_linker_0, # of connection points: 2
#     Edge 4, Type (0, 1), BuildingBlock: EZIPEK_clean_linker_0, # of connection points: 2
#     Edge 5, Type (0, 1), BuildingBlock: EZIPEK_clean_linker_0, # of connection points: 2
#     Edge 6, Type (0, 1), BuildingBlock: EZIPEK_clean_linker_0, # of connection points: 2
#     Edge 7, Type (0, 1), BuildingBlock: EZIPEK_clean_linker_0, # of connection points: 2
#     Edge 8, Type (0, 1), BuildingBlock: EZIPEK_clean_linker_0, # of connection points: 2
#     Edge 9, Type (0, 1), BuildingBlock: EZIPEK_clean_linker_0, # of connection points: 2
# Relax obj value: 0.086
# Max RMSD: 0.149
# Mean RMSD: 0.139
data_MOF--net-bcu-b--node1-VETTIZ_charged_sbu_0--node2-GIZVER_clean_sbu_0--edge1-EZIPEK_clean_linker_0
_symmetry_space_group_name_H-M    P1
_symmetry_Int_Tables_number       1
_symmetry_cell_setting            triclinic
loop_
_symmetry_equiv_pos_as_xyz
'x, y, z'
_cell_length_a     16.10071
_cell_length_b     17.462272
_cell_length_c     12.499856
_cell_angle_alpha  89.32117
_cell_angle_beta   94.471834
_cell_angle_gamma 103.76798
loop_
_atom_site_label
_atom_site_type_symbol
_atom_site_fract_x
_atom_site_fract_y
_atom_site_fract_z
_atom_type_partial_charge
Fe0 Fe 0.99819 0.93014 1.0334 0.0
O1 O 0.96763 1.01157 0.12326 0.0
Fe2 Fe 0.03195 0.02682 0.78796 0.0
Fe3 Fe 0.98433 1.01257 0.28034 0.0
O4 O 0.05366 0.02268 0.94601 0.0
O5 O 0.05433 0.03103 0.94607 0.0
O6 O 0.96622 1.01921 0.1221 0.0
Fe7 Fe 0.02199 0.11233 1.0357 0.0
C8 C 0.88012 0.85092 0.20839 0.0
O9 O 0.11185 0.93596 0.12566 0.0
O10 O 0.06287 0.93371 0.28756 0.0
O11 O 0.09267 0.19812 0.93457 0.0
O12 O 0.13277 0.12484 0.80264 0.0
O13 O 0.09926 0.94098 0.795 0.0
O14 O 0.04066 0.85646 0.92755 0.0
O15 O 0.09064 0.10498 0.2941 0.0
O16 O 0.13546 0.12817 0.13006 0.0
C17 C 0.08762 0.87472 0.84629 0.0
O18 O 0.90928 0.10585 0.94084 0.0
O19 O 0.95859 0.10867 0.78018 0.0
O20 O 0.92988 0.8441 0.13365 0.0
O21 O 0.88412 0.91445 0.26323 0.0
C22 C 0.11614 0.91933 0.22508 0.0
C23 C 0.1461 0.13902 0.23114 0.0
C24 C 0.92317 0.16306 0.21735 0.0
O25 O 0.91448 0.09747 0.27061 0.0
O26 O 0.97403 0.18357 0.13995 0.0
C27 C 0.14099 0.18915 0.85842 0.0
O28 O 0.92367 0.93284 0.77852 0.0
O29 O 0.88382 0.91715 0.94486 0.0
C30 C 0.90757 0.126 0.84271 0.0
C31 C 0.87111 0.90006 0.84608 0.0
Co32 Co 0.60968 0.37378 0.48414 0.0
Co33 Co 0.61252 0.41503 0.68077 0.0
Co34 Co 0.50995 0.51935 0.53548 0.0
O35 O 0.60867 0.46869 0.55598 0.0
H36 H 0.66285 0.50668 0.55248 0.0
O37 O 0.41102 0.57233 0.51312 0.0
Co38 Co 0.39853 0.65646 0.60433 0.0
Co39 Co 0.42437 0.65076 0.41381 0.0
H40 H 0.357 0.5345 0.49782 0.0
O41 O 0.71173 0.40807 0.74996 0.0
O42 O 0.63166 0.32284 0.62545 0.0
O43 O 0.51602 0.39794 0.76288 0.0
O44 O 0.43702 0.45128 0.64334 0.0
O45 O 0.57275 0.59563 0.64984 0.0
O46 O 0.38151 0.72699 0.69089 0.0
O47 O 0.28135 0.6309 0.60527 0.0
O48 O 0.51602 0.69758 0.61638 0.0
O49 O 0.58371 0.58314 0.42654 0.0
O50 O 0.53426 0.68469 0.36199 0.0
O51 O 0.38806 0.72894 0.47877 0.0
O52 O 0.33317 0.65968 0.32589 0.0
C53 C 0.699 0.32759 0.41361 0.0
C54 C 0.4372 0.3674 0.43201 0.0
C55 C 0.44437 0.40892 0.72638 0.0
C56 C 0.69724 0.34187 0.69721 0.0
C57 C 0.30143 0.69339 0.66785 0.0
C58 C 0.57744 0.66934 0.65396 0.0
C59 C 0.59215 0.64666 0.37264 0.0
C60 C 0.33557 0.71767 0.39146 0.0
O61 O 0.61875 0.29079 0.4121 0.0
O62 O 0.72429 0.39516 0.46477 0.0
O63 O 0.44944 0.44187 0.42142 0.0
O64 O 0.48936 0.33743 0.49037 0.0
C65 C 0.20751 0.25715 0.35046 0.0
C66 C 0.22117 0.20001 0.27752 0.0
C67 C 0.37477 0.26502 0.28984 0.0
C68 C 0.36205 0.31398 0.37389 0.0
N69 N 0.26653 0.35076 0.4924 0.0
N70 N 0.32097 0.14377 0.18812 0.0
C71 C 0.27856 0.30842 0.40633 0.0
C72 C 0.30569 0.20256 0.24936 0.0
N73 N 0.12669 0.266 0.36264 0.0
N74 N 0.45217 0.27998 0.24618 0.0
H75 H 0.27296 0.09594 0.15876 0.0
H76 H 0.38238 0.13834 0.17484 0.0
H77 H 0.50293 0.32695 0.27159 0.0
H78 H 0.46304 0.25142 0.1778 0.0
H79 H 0.11427 0.31287 0.40433 0.0
H80 H 0.07207 0.23203 0.32199 0.0
H81 H 0.20955 0.33954 0.53045 0.0
H82 H 0.315 0.39402 0.5299 0.0
C83 C 0.78135 0.17254 0.27153 0.0
C84 C 0.86423 0.21316 0.24578 0.0
C85 C 0.83149 0.33545 0.30753 0.0
C86 C 0.75913 0.29015 0.35796 0.0
N87 N 0.68216 0.15843 0.40702 0.0
N88 N 0.96977 0.33776 0.24162 0.0
C89 C 0.73858 0.20666 0.34509 0.0
C90 C 0.89009 0.29611 0.26402 0.0
N91 N 0.7432 0.10085 0.22586 0.0
N92 N 0.84198 0.41485 0.29443 0.0
H93 H 0.01257 0.31356 0.20314 0.0
H94 H 0.99485 0.39598 0.2666 0.0
H95 H 0.79743 0.44534 0.31561 0.0
H96 H 0.88942 0.44876 0.24996 0.0
H97 H 0.68001 0.07174 0.23731 0.0
H98 H 0.77108 0.07582 0.16676 0.0
H99 H 0.67036 0.0971 0.4031 0.0
H100 H 0.65697 0.17858 0.4722 0.0
C101 C 0.73444 0.7608 0.17407 0.0
C102 C 0.81412 0.78115 0.23607 0.0
C103 C 0.75329 0.69855 0.38285 0.0
C104 C 0.67281 0.67895 0.32113 0.0
N105 N 0.59614 0.66849 0.14655 0.0
N106 N 0.90695 0.75147 0.38263 0.0
C107 C 0.6668 0.70221 0.21246 0.0
C108 C 0.82608 0.74338 0.33465 0.0
N109 N 0.72125 0.80112 0.08262 0.0
N110 N 0.75954 0.68014 0.48919 0.0
H111 H 0.96126 0.78435 0.34849 0.0
H112 H 0.92072 0.71947 0.44981 0.0
H113 H 0.70885 0.64715 0.52879 0.0
H114 H 0.81392 0.70247 0.54047 0.0
H115 H 0.66154 0.79437 0.04038 0.0
H116 H 0.76885 0.84584 0.0536 0.0
H117 H 0.59145 0.67841 0.06417 0.0
H118 H 0.54632 0.62408 0.17268 0.0
C119 C 0.14845 0.78691 0.25746 0.0
C120 C 0.17542 0.87013 0.26689 0.0
C121 C 0.31117 0.85595 0.3599 0.0
C122 C 0.27922 0.7725 0.36101 0.0
N123 N 0.15538 0.66272 0.34004 0.0
N124 N 0.27531 0.98335 0.3483 0.0
C125 C 0.194 0.73933 0.31894 0.0
C126 C 0.25445 0.90457 0.32531 0.0
N127 N 0.08112 0.75275 0.18711 0.0
N128 N 0.3961 0.88899 0.38542 0.0
H129 H 0.23539 0.02033 0.32373 0.0
H130 H 0.3283 1.0102 0.39933 0.0
H131 H 0.44086 0.8561 0.40676 0.0
H132 H 0.42357 0.94875 0.37548 0.0
H133 H 0.0633 0.69227 0.17173 0.0
H134 H 0.05079 0.78559 0.13418 0.0
H135 H 0.09068 0.63803 0.31879 0.0
H136 H 0.18504 0.62706 0.38981 0.0
C137 C 0.10353 0.74031 0.78352 0.0
C138 C 0.13943 0.82073 0.81209 0.0
C139 C 0.2646 0.81762 0.71818 0.0
C140 C 0.23765 0.73437 0.70608 0.0
N141 N 0.13333 0.61422 0.74462 0.0
N142 N 0.26804 0.92562 0.83674 0.0
C143 C 0.15747 0.69456 0.74366 0.0
C144 C 0.22471 0.85574 0.7898 0.0
N145 N 0.018 0.70859 0.78893 0.0
N146 N 0.32556 0.86147 0.65767 0.0
H147 H 0.24242 0.95357 0.89504 0.0
H148 H 0.33263 0.95025 0.82653 0.0
H149 H 0.3506 0.83729 0.59541 0.0
H150 H 0.34206 0.92298 0.66004 0.0
H151 H 0.98754 0.6525 0.75954 0.0
H152 H 0.97639 0.74125 0.81296 0.0
H153 H 0.07938 0.5833 0.7811 0.0
H154 H 0.17055 0.57848 0.7172 0.0
C155 C 0.21511 0.32989 0.80986 0.0
C156 C 0.21881 0.25218 0.84107 0.0
C157 C 0.36486 0.27621 0.78789 0.0
C158 C 0.36609 0.35689 0.76785 0.0
N159 N 0.29613 0.46391 0.78188 0.0
N160 N 0.30812 0.16311 0.89502 0.0
C161 C 0.29229 0.38502 0.78561 0.0
C162 C 0.29755 0.2296 0.84239 0.0
N163 N 0.1381 0.35009 0.79822 0.0
N164 N 0.42342 0.24143 0.74727 0.0
H165 H 0.26081 0.12855 0.93932 0.0
H166 H 0.36715 0.14797 0.90448 0.0
H167 H 0.46759 0.26946 0.69427 0.0
H168 H 0.41984 0.18115 0.7539 0.0
H169 H 0.13081 0.40346 0.76538 0.0
H170 H 0.08056 0.31078 0.8131 0.0
H171 H 0.24677 0.48781 0.80486 0.0
H172 H 0.35183 0.50587 0.76666 0.0
C173 C 0.78796 0.15828 0.72079 0.0
C174 C 0.85476 0.18131 0.80285 0.0
C175 C 0.83476 0.31508 0.78328 0.0
C176 C 0.75292 0.28618 0.72709 0.0
N177 N 0.64341 0.167 0.67544 0.0
N178 N 0.93498 0.28642 0.92181 0.0
C179 C 0.72654 0.20391 0.70458 0.0
C180 C 0.87535 0.26095 0.83857 0.0
N181 N 0.78441 0.09619 0.65458 0.0
N182 N 0.87744 0.39244 0.77749 0.0
H183 H 0.96793 0.24957 0.96307 0.0
H184 H 0.94609 0.34303 0.9544 0.0
H185 H 0.85706 0.43191 0.72435 0.0
H186 H 0.93956 0.4137 0.81252 0.0
H187 H 0.73808 0.08181 0.59021 0.0
H188 H 0.83215 0.06491 0.65742 0.0
H189 H 0.62452 0.10603 0.66348 0.0
H190 H 0.59257 0.19408 0.67713 0.0
C191 C 0.73348 0.86232 0.7326 0.0
C192 C 0.79236 0.84009 0.80791 0.0
C193 C 0.70098 0.70539 0.79985 0.0
C194 C 0.65459 0.72549 0.70596 0.0
N195 N 0.64778 0.82434 0.56851 0.0
N196 N 0.83417 0.73609 0.91235 0.0
C197 C 0.67709 0.80427 0.66777 0.0
C198 C 0.77707 0.76011 0.84125 0.0
N199 N 0.72603 0.9381 0.7291 0.0
N200 N 0.67014 0.63756 0.85432 0.0
H201 H 0.88852 0.77473 0.94753 0.0
H202 H 0.83048 0.67696 0.93016 0.0
H203 H 0.61119 0.59902 0.83354 0.0
H204 H 0.698 0.62462 0.92831 0.0
H205 H 0.6771 0.95489 0.68178 0.0
H206 H 0.76032 0.97967 0.78553 0.0
H207 H 0.66752 0.88117 0.53807 0.0
H208 H 0.61368 0.78297 0.51219 0.0
loop_
_geom_bond_atom_site_label_1
_geom_bond_atom_site_label_2
_geom_bond_distance
_geom_bond_site_symmetry_2
_ccdc_geom_bond_type
Fe0 O1 1.886 . S
Fe0 O4 1.715 1_554 S
Fe0 O9 2.077 1_655 S
Fe0 O14 1.935 1_654 S
Fe0 O20 2.077 . S
Fe0 O29 1.935 1_554 S
O1 Fe0 1.886 . S
O1 Fe3 1.715 1_655 S
Fe2 O4 1.886 1_545 S
Fe2 O5 1.715 1_655 S
Fe2 O12 1.935 1_655 S
Fe2 O13 2.077 1_645 S
Fe2 O19 1.935 . S
Fe2 O28 2.077 1_545 S
Fe3 O1 1.715 1_455 S
Fe3 O6 1.886 1_565 S
Fe3 O10 1.935 . S
Fe3 O15 2.077 1_565 S
Fe3 O21 1.935 1_455 S
Fe3 O25 2.077 1_465 S
O4 Fe0 1.715 1_556 S
O4 Fe2 1.886 1_565 S
O5 Fe2 1.715 1_455 S
O5 Fe7 1.886 . S
O6 Fe3 1.886 1_545 S
O6 Fe7 1.715 1_554 S
Fe7 O5 1.886 . S
Fe7 O6 1.715 1_556 S
Fe7 O11 2.077 . S
Fe7 O16 1.935 1_556 S
Fe7 O18 2.077 1_455 S
Fe7 O26 1.935 1_456 S
C8 O20 1.381 . S
C8 O21 1.421 . S
O9 Fe0 2.077 1_455 S
O9 C22 1.381 . S
O10 Fe3 1.935 . S
O10 C22 1.421 . S
O11 Fe7 2.077 . S
O11 C27 1.381 . S
O12 Fe2 1.935 1_455 S
O12 C27 1.421 . S
O13 Fe2 2.077 1_465 S
O13 C17 1.381 . S
O14 Fe0 1.935 1_456 S
O14 C17 1.421 . S
O15 Fe3 2.077 1_545 S
O15 C23 1.381 . S
O16 Fe7 1.935 1_554 S
O16 C23 1.421 . S
C17 O13 1.381 . S
C17 O14 1.421 . S
O18 Fe7 2.077 1_655 S
O18 C30 1.381 . S
O19 Fe2 1.935 . S
O19 C30 1.421 . S
O20 Fe0 2.077 . S
O20 C8 1.381 . S
O21 Fe3 1.935 1_655 S
O21 C8 1.421 . S
C22 O9 1.381 . S
C22 O10 1.421 . S
C23 O15 1.381 . S
C23 O16 1.421 . S
C24 O25 1.381 . S
C24 O26 1.421 . S
O25 Fe3 2.077 1_645 S
O25 C24 1.381 . S
O26 Fe7 1.935 1_654 S
O26 C24 1.421 . S
C27 O11 1.381 . S
C27 O12 1.421 . S
O28 Fe2 2.077 1_565 S
O28 C31 1.381 . S
O29 Fe0 1.935 1_556 S
O29 C31 1.421 . S
C30 O18 1.381 . S
C30 O19 1.421 . S
C31 O28 1.381 . S
C31 O29 1.421 . S
Co32 O35 2.042 . S
Co32 O42 2.264 . S
Co32 O61 2.286 . S
Co32 O62 2.069 . S
Co32 O64 2.015 . S
Co33 O35 2.122 . S
Co33 O41 2.073 . S
Co33 O42 2.327 . S
Co33 O43 1.976 . S
Co34 O35 2.087 . S
Co34 O37 2.087 . S
Co34 O44 2.111 . S
Co34 O45 2.143 . S
Co34 O49 2.111 . S
Co34 O63 2.143 . S
O35 Co32 2.042 . S
O35 Co33 2.122 . S
O35 Co34 2.087 . S
O35 H36 0.980 . S
H36 O35 0.980 . S
O37 Co34 2.087 . S
O37 Co38 2.042 . S
O37 Co39 2.122 . S
O37 H40 0.980 . S
Co38 O37 2.042 . S
Co38 O46 2.286 . S
Co38 O47 2.069 . S
Co38 O48 2.015 . S
Co38 O51 2.264 . S
Co39 O37 2.122 . S
Co39 O50 1.976 . S
Co39 O51 2.327 . S
Co39 O52 2.073 . S
H40 O37 0.980 . S
O41 Co33 2.073 . S
O41 C56 1.245 . S
O42 Co32 2.264 . S
O42 Co33 2.327 . S
O42 C56 1.257 . S
O43 Co33 1.976 . S
O43 C55 1.251 . S
O44 Co34 2.111 . S
O44 C55 1.274 . S
O45 Co34 2.143 . S
O45 C58 1.246 . S
O46 Co38 2.286 . S
O46 C57 1.259 . S
O47 Co38 2.069 . S
O47 C57 1.289 . S
O48 Co38 2.015 . S
O48 C58 1.257 . S
O49 Co34 2.111 . S
O49 C59 1.274 . S
O50 Co39 1.976 . S
O50 C59 1.251 . S
O51 Co38 2.264 . S
O51 Co39 2.327 . S
O51 C60 1.257 . S
O52 Co39 2.073 . S
O52 C60 1.245 . S
C53 O61 1.259 . S
C53 O62 1.289 . S
C54 O63 1.246 . S
C54 O64 1.257 . S
C55 O43 1.251 . S
C55 O44 1.274 . S
C56 O41 1.245 . S
C56 O42 1.257 . S
C57 O46 1.259 . S
C57 O47 1.289 . S
C58 O45 1.246 . S
C58 O48 1.257 . S
C59 O49 1.274 . S
C59 O50 1.251 . S
C60 O51 1.257 . S
C60 O52 1.245 . S
O61 Co32 2.286 . S
O61 C53 1.259 . S
O62 Co32 2.069 . S
O62 C53 1.289 . S
O63 Co34 2.143 . S
O63 C54 1.246 . S
O64 Co32 2.015 . S
O64 C54 1.257 . S
C65 C66 1.363 . S
C65 C71 1.379 . S
C65 N73 1.356 . S
C66 C65 1.363 . S
C66 C72 1.363 . S
C67 C68 1.363 . S
C67 C72 1.379 . S
C67 N74 1.356 . S
C68 C67 1.363 . S
C68 C71 1.363 . S
N69 C71 1.356 . S
N69 H81 0.984 . S
N69 H82 0.985 . S
N70 C72 1.356 . S
N70 H75 0.984 . S
N70 H76 0.985 . S
C71 C65 1.379 . S
C71 C68 1.363 . S
C71 N69 1.356 . S
C72 C66 1.363 . S
C72 C67 1.379 . S
C72 N70 1.356 . S
N73 C65 1.356 . S
N73 H79 0.984 . S
N73 H80 0.984 . S
N74 C67 1.356 . S
N74 H77 0.984 . S
N74 H78 0.985 . S
H75 N70 0.984 . S
H76 N70 0.985 . S
H77 N74 0.984 . S
H78 N74 0.985 . S
H79 N73 0.984 . S
H80 N73 0.984 . S
H81 N69 0.984 . S
H82 N69 0.985 . S
C83 C84 1.363 . S
C83 C89 1.379 . S
C83 N91 1.356 . S
C84 C83 1.363 . S
C84 C90 1.363 . S
C85 C86 1.363 . S
C85 C90 1.379 . S
C85 N92 1.356 . S
C86 C85 1.363 . S
C86 C89 1.363 . S
N87 C89 1.356 . S
N87 H99 0.984 . S
N87 H100 0.985 . S
N88 C90 1.356 . S
N88 H93 0.984 . S
N88 H94 0.985 . S
C89 C83 1.379 . S
C89 C86 1.363 . S
C89 N87 1.356 . S
C90 C84 1.363 . S
C90 C85 1.379 . S
C90 N88 1.356 . S
N91 C83 1.356 . S
N91 H97 0.984 . S
N91 H98 0.984 . S
N92 C85 1.356 . S
N92 H95 0.984 . S
N92 H96 0.985 . S
H93 N88 0.984 . S
H94 N88 0.985 . S
H95 N92 0.984 . S
H96 N92 0.985 . S
H97 N91 0.984 . S
H98 N91 0.984 . S
H99 N87 0.984 . S
H100 N87 0.985 . S
C101 C102 1.363 . S
C101 C107 1.379 . S
C101 N109 1.356 . S
C102 C101 1.363 . S
C102 C108 1.363 . S
C103 C104 1.363 . S
C103 C108 1.379 . S
C103 N110 1.356 . S
C104 C103 1.363 . S
C104 C107 1.363 . S
N105 C107 1.356 . S
N105 H117 0.984 . S
N105 H118 0.985 . S
N106 C108 1.356 . S
N106 H111 0.984 . S
N106 H112 0.985 . S
C107 C101 1.379 . S
C107 C104 1.363 . S
C107 N105 1.356 . S
C108 C102 1.363 . S
C108 C103 1.379 . S
C108 N106 1.356 . S
N109 C101 1.356 . S
N109 H115 0.984 . S
N109 H116 0.984 . S
N110 C103 1.356 . S
N110 H113 0.984 . S
N110 H114 0.985 . S
H111 N106 0.984 . S
H112 N106 0.985 . S
H113 N110 0.984 . S
H114 N110 0.985 . S
H115 N109 0.984 . S
H116 N109 0.984 . S
H117 N105 0.984 . S
H118 N105 0.985 . S
C119 C120 1.363 . S
C119 C125 1.379 . S
C119 N127 1.356 . S
C120 C119 1.363 . S
C120 C126 1.363 . S
C121 C122 1.363 . S
C121 C126 1.379 . S
C121 N128 1.356 . S
C122 C121 1.363 . S
C122 C125 1.363 . S
N123 C125 1.356 . S
N123 H135 0.984 . S
N123 H136 0.985 . S
N124 C126 1.356 . S
N124 H129 0.984 . S
N124 H130 0.985 . S
C125 C119 1.379 . S
C125 C122 1.363 . S
C125 N123 1.356 . S
C126 C120 1.363 . S
C126 C121 1.379 . S
C126 N124 1.356 . S
N127 C119 1.356 . S
N127 H133 0.984 . S
N127 H134 0.984 . S
N128 C121 1.356 . S
N128 H131 0.984 . S
N128 H132 0.985 . S
H129 N124 0.984 . S
H130 N124 0.985 . S
H131 N128 0.984 . S
H132 N128 0.985 . S
H133 N127 0.984 . S
H134 N127 0.984 . S
H135 N123 0.984 . S
H136 N123 0.985 . S
C137 C138 1.363 . S
C137 C143 1.379 . S
C137 N145 1.356 . S
C138 C137 1.363 . S
C138 C144 1.363 . S
C139 C140 1.363 . S
C139 C144 1.379 . S
C139 N146 1.356 . S
C140 C139 1.363 . S
C140 C143 1.363 . S
N141 C143 1.356 . S
N141 H153 0.984 . S
N141 H154 0.985 . S
N142 C144 1.356 . S
N142 H147 0.984 . S
N142 H148 0.985 . S
C143 C137 1.379 . S
C143 C140 1.363 . S
C143 N141 1.356 . S
C144 C138 1.363 . S
C144 C139 1.379 . S
C144 N142 1.356 . S
N145 C137 1.356 . S
N145 H151 0.984 . S
N145 H152 0.984 . S
N146 C139 1.356 . S
N146 H149 0.984 . S
N146 H150 0.985 . S
H147 N142 0.984 . S
H148 N142 0.985 . S
H149 N146 0.984 . S
H150 N146 0.985 . S
H151 N145 0.984 . S
H152 N145 0.984 . S
H153 N141 0.984 . S
H154 N141 0.985 . S
C155 C156 1.363 . S
C155 C161 1.379 . S
C155 N163 1.356 . S
C156 C155 1.363 . S
C156 C162 1.363 . S
C157 C158 1.363 . S
C157 C162 1.379 . S
C157 N164 1.356 . S
C158 C157 1.363 . S
C158 C161 1.363 . S
N159 C161 1.356 . S
N159 H171 0.984 . S
N159 H172 0.985 . S
N160 C162 1.356 . S
N160 H165 0.984 . S
N160 H166 0.985 . S
C161 C155 1.379 . S
C161 C158 1.363 . S
C161 N159 1.356 . S
C162 C156 1.363 . S
C162 C157 1.379 . S
C162 N160 1.356 . S
N163 C155 1.356 . S
N163 H169 0.984 . S
N163 H170 0.984 . S
N164 C157 1.356 . S
N164 H167 0.984 . S
N164 H168 0.985 . S
H165 N160 0.984 . S
H166 N160 0.985 . S
H167 N164 0.984 . S
H168 N164 0.985 . S
H169 N163 0.984 . S
H170 N163 0.984 . S
H171 N159 0.984 . S
H172 N159 0.985 . S
C173 C174 1.363 . S
C173 C179 1.379 . S
C173 N181 1.356 . S
C174 C173 1.363 . S
C174 C180 1.363 . S
C175 C176 1.363 . S
C175 C180 1.379 . S
C175 N182 1.356 . S
C176 C175 1.363 . S
C176 C179 1.363 . S
N177 C179 1.356 . S
N177 H189 0.984 . S
N177 H190 0.985 . S
N178 C180 1.356 . S
N178 H183 0.984 . S
N178 H184 0.985 . S
C179 C173 1.379 . S
C179 C176 1.363 . S
C179 N177 1.356 . S
C180 C174 1.363 . S
C180 C175 1.379 . S
C180 N178 1.356 . S
N181 C173 1.356 . S
N181 H187 0.984 . S
N181 H188 0.984 . S
N182 C175 1.356 . S
N182 H185 0.984 . S
N182 H186 0.985 . S
H183 N178 0.984 . S
H184 N178 0.985 . S
H185 N182 0.984 . S
H186 N182 0.985 . S
H187 N181 0.984 . S
H188 N181 0.984 . S
H189 N177 0.984 . S
H190 N177 0.985 . S
C191 C192 1.363 . S
C191 C197 1.379 . S
C191 N199 1.356 . S
C192 C191 1.363 . S
C192 C198 1.363 . S
C193 C194 1.363 . S
C193 C198 1.379 . S
C193 N200 1.356 . S
C194 C193 1.363 . S
C194 C197 1.363 . S
N195 C197 1.356 . S
N195 H207 0.984 . S
N195 H208 0.985 . S
N196 C198 1.356 . S
N196 H201 0.984 . S
N196 H202 0.985 . S
C197 C191 1.379 . S
C197 C194 1.363 . S
C197 N195 1.356 . S
C198 C192 1.363 . S
C198 C193 1.379 . S
C198 N196 1.356 . S
N199 C191 1.356 . S
N199 H205 0.984 . S
N199 H206 0.984 . S
N200 C193 1.356 . S
N200 H203 0.984 . S
N200 H204 0.985 . S
H201 N196 0.984 . S
H202 N196 0.985 . S
H203 N200 0.984 . S
H204 N200 0.985 . S
H205 N199 0.984 . S
H206 N199 0.984 . S
H207 N195 0.984 . S
H208 N195 0.985 . S
C66 C23 1.487 . S
C68 C54 1.486 . S
C84 C24 1.532 . S
C86 C53 1.562 . S
C102 C8 1.486 . S
C104 C59 1.418 . S
C120 C22 1.472 . S
C122 C60 1.422 . S
C138 C17 1.532 . S
C140 C57 1.563 . S
C158 C55 1.418 . S
C156 C27 1.486 . S
C174 C30 1.472 . S
C176 C56 1.422 . S
C194 C58 1.487 . S
C192 C31 1.488 . S
