# Generated by pormake.
# Topology bcu-b, (8,8)-cn, num edge types: 1
# Building blocks:
#     Node 0, Type 0, BuildingBlock: TAGTUT_clean_sbu_1, # of connection points: 8
#     Node 1, Type 1, BuildingBlock: GIZVER_clean_sbu_0, # of connection points: 8
#     Edge 2, Type (0, 1), BuildingBlock: EZIPEK_clean_linker_0, # of connection points: 2
#     Edge 3, Type (0, 1), BuildingBlock: EZIPEK_clean_linker_0, # of connection points: 2
#     Edge 4, Type (0, 1), BuildingBlock: EZIPEK_clean_linker_0, # of connection points: 2
#     Edge 5, Type (0, 1), BuildingBlock: EZIPEK_clean_linker_0, # of connection points: 2
#     Edge 6, Type (0, 1), BuildingBlock: EZIPEK_clean_linker_0, # of connection points: 2
#     Edge 7, Type (0, 1), BuildingBlock: EZIPEK_clean_linker_0, # of connection points: 2
#     Edge 8, Type (0, 1), BuildingBlock: EZIPEK_clean_linker_0, # of connection points: 2
#     Edge 9, Type (0, 1), BuildingBlock: EZIPEK_clean_linker_0, # of connection points: 2
# Relax obj value: 0.099
# Max RMSD: 0.171
# Mean RMSD: 0.166
data_MOF--net-bcu-b--node1-TAGTUT_clean_sbu_1--node2-GIZVER_clean_sbu_0--edge1-EZIPEK_clean_linker_0
_symmetry_space_group_name_H-M    P1
_symmetry_Int_Tables_number       1
_symmetry_cell_setting            triclinic
loop_
_symmetry_equiv_pos_as_xyz
'x, y, z'
_cell_length_a     16.414641
_cell_length_b     17.263486
_cell_length_c     13.671421
_cell_angle_alpha  88.623052
_cell_angle_beta   94.794096
_cell_angle_gamma 113.47921
loop_
_atom_site_label
_atom_site_type_symbol
_atom_site_fract_x
_atom_site_fract_y
_atom_site_fract_z
_atom_type_partial_charge
C0 C 0.82829 0.13958 0.17846 0.0
C1 C 0.88665 0.20026 0.88658 0.0
C2 C 0.85008 0.87618 0.84485 0.0
Mg3 Mg 0.99971 0.18514 0.07004 0.0
O4 O 0.9532 0.06734 0.05658 0.0
Mg5 Mg 0.82879 0.00999 -0.00395 0.0
Mg6 Mg 0.01468 0.01247 0.98086 0.0
O7 O 0.07443 0.95505 0.90663 0.0
Mg8 Mg 0.01972 0.83648 0.91484 0.0
Mg9 Mg 0.19732 1.00797 0.97362 0.0
C10 C 0.17567 0.14832 0.12171 0.0
C11 C 0.15828 0.15327 0.8466 0.0
O12 O 0.78914 0.07464 0.12174 0.0
O13 O 0.91012 0.18922 0.17291 0.0
O14 O 0.83897 0.12217 0.899 0.0
O15 O 0.95987 0.23896 0.93857 0.0
O16 O 0.13405 0.19759 0.1237 0.0
O17 O 0.14091 0.07505 0.0801 0.0
C18 C 0.87543 0.86677 0.11423 0.0
O19 O 0.95353 0.89603 0.08298 0.0
O20 O 0.82036 0.90089 0.09284 0.0
O21 O 0.23335 0.92782 0.85991 0.0
O22 O 0.10534 0.8139 0.82219 0.0
O23 O 0.17872 0.90204 0.08308 0.0
C24 C 0.18795 0.85772 0.81301 0.0
O25 O 0.04919 0.79328 0.0595 0.0
O26 O 0.88849 0.82418 0.85182 0.0
C27 C 0.12338 0.83051 0.10995 0.0
O28 O 0.88668 0.95136 0.88121 0.0
O29 O 0.08041 0.12864 0.87895 0.0
O30 O 0.21022 0.11518 0.86801 0.0
Co31 Co 0.59651 0.36443 0.46695 0.0
Co32 Co 0.59924 0.42312 0.63158 0.0
Co33 Co 0.51239 0.51458 0.47555 0.0
O34 O 0.60909 0.47323 0.51244 0.0
H35 H 0.66831 0.51639 0.50804 0.0
O36 O 0.41651 0.55624 0.43606 0.0
Co37 Co 0.42216 0.65623 0.49987 0.0
Co38 Co 0.43324 0.62388 0.32834 0.0
H39 H 0.35756 0.51145 0.4318 0.0
O40 O 0.70136 0.44486 0.7066 0.0
O41 O 0.62472 0.33191 0.60431 0.0
O42 O 0.48586 0.38632 0.68714 0.0
O43 O 0.42652 0.44951 0.57635 0.0
O44 O 0.57497 0.61012 0.57011 0.0
O45 O 0.42122 0.74332 0.56304 0.0
O46 O 0.30588 0.6192 0.52521 0.0
O47 O 0.54356 0.70657 0.48685 0.0
O48 O 0.59729 0.57914 0.37435 0.0
O49 O 0.5509 0.66492 0.28231 0.0
O50 O 0.3992 0.70604 0.37253 0.0
O51 O 0.33586 0.61291 0.24619 0.0
C52 C 0.67188 0.31077 0.40744 0.0
C53 C 0.43454 0.34113 0.40628 0.0
C54 C 0.42039 0.40196 0.65088 0.0
C55 C 0.69049 0.37212 0.67036 0.0
C56 C 0.3386 0.69303 0.56928 0.0
C57 C 0.58964 0.68739 0.55424 0.0
C58 C 0.60976 0.63681 0.30996 0.0
C59 C 0.3383 0.67547 0.29932 0.0
O60 O 0.58895 0.26729 0.4213 0.0
O61 O 0.71097 0.38934 0.43843 0.0
O62 O 0.45042 0.4177 0.38367 0.0
O63 O 0.47579 0.32533 0.48174 0.0
C64 C 0.24693 0.14929 0.28887 0.0
C65 C 0.25677 0.1713 0.18881 0.0
C66 C 0.39825 0.28899 0.23145 0.0
C67 C 0.38361 0.27339 0.33282 0.0
N68 N 0.31171 0.17092 0.45651 0.0
N69 N 0.35225 0.23973 0.06269 0.0
C70 C 0.31447 0.19717 0.36123 0.0
C71 C 0.33642 0.23389 0.15952 0.0
N72 N 0.1696 0.08672 0.31508 0.0
N73 N 0.47003 0.35747 0.20395 0.0
H74 H 0.30754 0.19762 0.01077 0.0
H75 H 0.41178 0.27978 0.03535 0.0
H76 H 0.52287 0.39341 0.25334 0.0
H77 H 0.4774 0.37932 0.13226 0.0
H78 H 0.15193 0.07561 0.38707 0.0
H79 H 0.12079 0.04778 0.26358 0.0
H80 H 0.26869 0.11138 0.47809 0.0
H81 H 0.35635 0.20482 0.51384 0.0
C82 C 0.81953 0.19835 0.34184 0.0
C83 C 0.77759 0.16458 0.24804 0.0
C84 C 0.67763 0.23688 0.25642 0.0
C85 C 0.71693 0.26906 0.35098 0.0
N86 N 0.8115 0.26468 0.49302 0.0
N87 N 0.641 0.12236 0.14159 0.0
C88 C 0.78436 0.24551 0.39651 0.0
C89 C 0.69852 0.17431 0.21304 0.0
N90 N 0.8921 0.184 0.37906 0.0
N91 N 0.62196 0.26803 0.20634 0.0
H92 H 0.64844 0.07056 0.113 0.0
H93 H 0.57909 0.12377 0.12044 0.0
H94 H 0.60952 0.31753 0.23405 0.0
H95 H 0.5975 0.25194 0.1335 0.0
H96 H 0.93281 0.21544 0.44045 0.0
H97 H 0.91248 0.14124 0.34668 0.0
H98 H 0.85377 0.24234 0.53413 0.0
H99 H 0.78539 0.29814 0.53351 0.0
C100 C 0.84226 0.79372 0.27408 0.0
C101 C 0.8414 0.78802 0.17119 0.0
C102 C 0.70178 0.66272 0.16557 0.0
C103 C 0.69709 0.67422 0.26683 0.0
N104 N 0.77947 0.72556 0.4232 0.0
N105 N 0.79528 0.69876 0.02874 0.0
C106 C 0.77327 0.73108 0.3234 0.0
C107 C 0.77941 0.71553 0.12039 0.0
N108 N 0.9057 0.86183 0.32313 0.0
N109 N 0.63133 0.60329 0.11258 0.0
H110 H 0.85506 0.73546 -0.0008 0.0
H111 H 0.75528 0.64472 0.98821 0.0
H112 H 0.57579 0.56073 0.14533 0.0
H113 H 0.62676 0.59822 0.03637 0.0
H114 H 0.90396 0.87565 0.39649 0.0
H115 H 0.95857 0.90613 0.28802 0.0
H116 H 0.8364 0.76148 0.46742 0.0
H117 H 0.731 0.67922 0.46101 0.0
C118 C 0.12466 0.69847 0.19923 0.0
C119 C 0.15602 0.78773 0.19202 0.0
C120 C 0.30087 0.80399 0.27146 0.0
C121 C 0.27364 0.71487 0.27132 0.0
N122 N 0.14957 0.57906 0.27171 0.0
N123 N 0.25076 0.91796 0.27435 0.0
C124 C 0.18227 0.6623 0.24596 0.0
C125 C 0.23627 0.83778 0.24693 0.0
N126 N 0.04036 0.64834 0.16306 0.0
N127 N 0.38859 0.85715 0.28707 0.0
H128 H 0.20181 0.94201 0.26036 0.0
H129 H 0.30572 0.95536 0.32041 0.0
H130 H 0.4403 0.83655 0.29589 0.0
H131 H 0.41071 0.92243 0.2795 0.0
H132 H 0.01903 0.58365 0.15089 0.0
H133 H 0.99086 0.67133 0.14811 0.0
H134 H 0.08234 0.53908 0.26295 0.0
H135 H 0.1882 0.55202 0.31195 0.0
C136 C 0.27622 0.77092 0.79561 0.0
C137 C 0.23193 0.82003 0.75081 0.0
C138 C 0.23382 0.76273 0.58909 0.0
C139 C 0.28614 0.72086 0.63224 0.0
N140 N 0.3557 0.68094 0.77497 0.0
N141 N 0.17526 0.87019 0.60574 0.0
C142 C 0.30665 0.72365 0.73531 0.0
C143 C 0.21248 0.81793 0.64759 0.0
N144 N 0.2859 0.76697 0.89581 0.0
N145 N 0.20267 0.74743 0.49282 0.0
H146 H 0.15958 0.91176 0.64697 0.0
H147 H 0.1667 0.87765 0.53031 0.0
H148 H 0.21366 0.70314 0.45153 0.0
H149 H 0.15872 0.77083 0.45733 0.0
H150 H 0.30844 0.72532 0.93353 0.0
H151 H 0.26719 0.80295 0.94234 0.0
H152 H 0.38419 0.68893 0.84689 0.0
H153 H 0.3689 0.63766 0.7341 0.0
C154 C 0.19616 0.22833 0.68692 0.0
C155 C 0.19612 0.2324 0.78999 0.0
C156 C 0.32731 0.36632 0.79566 0.0
C157 C 0.33278 0.35818 0.69369 0.0
N158 N 0.25082 0.30254 0.53785 0.0
N159 N 0.2372 0.31921 0.93485 0.0
C160 C 0.25981 0.29638 0.6375 0.0
C161 C 0.25361 0.30663 0.84173 0.0
N162 N 0.13815 0.15764 0.63717 0.0
N163 N 0.39375 0.42975 0.84853 0.0
H164 H 0.18098 0.27718 0.96667 0.0
H165 H 0.27304 0.3742 0.97565 0.0
H166 H 0.44504 0.47762 0.81527 0.0
H167 H 0.3995 0.4334 0.92488 0.0
H168 H 0.1418 0.14579 0.56367 0.0
H169 H 0.08836 0.10909 0.67156 0.0
H170 H 0.19527 0.26278 0.49446 0.0
H171 H 0.29359 0.35291 0.49934 0.0
C172 C 0.88271 0.3095 0.75982 0.0
C173 C 0.84128 0.24931 0.8316 0.0
C174 C 0.70002 0.26398 0.78887 0.0
C175 C 0.74225 0.32782 0.72141 0.0
N176 N 0.8787 0.42576 0.65884 0.0
N177 N 0.72164 0.19778 0.93949 0.0
C178 C 0.83555 0.35583 0.71278 0.0
C179 C 0.75287 0.2342 0.853 0.0
N180 N 0.96499 0.32009 0.73379 0.0
N181 N 0.60983 0.23328 0.79463 0.0
H182 H 0.76133 0.1833 -0.00592 0.0
H183 H 0.66106 0.19333 0.9626 0.0
H184 H 0.56832 0.2571 0.7544 0.0
H185 H 0.57539 0.17968 0.83477 0.0
H186 H 0.99459 0.357 0.67486 0.0
H187 H 1.00047 0.28636 0.7661 0.0
H188 H 0.9478 0.45385 0.65802 0.0
H189 H 0.84551 0.45847 0.61934 0.0
C190 C 0.69018 0.78857 0.80341 0.0
C191 C 0.7702 0.85197 0.77541 0.0
C192 C 0.71454 0.82723 0.60217 0.0
C193 C 0.644 0.75182 0.62945 0.0
N194 N 0.55454 0.66756 0.75568 0.0
N195 N 0.85924 0.93706 0.65039 0.0
C196 C 0.6282 0.73511 0.73023 0.0
C197 C 0.78143 0.87453 0.67551 0.0
N198 N 0.67418 0.78045 0.90029 0.0
N199 N 0.71876 0.85311 0.50672 0.0
H200 H 0.90783 0.97562 0.70228 0.0
H201 H 0.8777 0.94847 0.57871 0.0
H202 H 0.67443 0.81867 0.4493 0.0
H203 H 0.76287 0.91206 0.48485 0.0
H204 H 0.61501 0.73935 0.9273 0.0
H205 H 0.71866 0.82128 0.95337 0.0
H206 H 0.54451 0.64515 0.82686 0.0
H207 H 0.50288 0.63241 0.70467 0.0
loop_
_geom_bond_atom_site_label_1
_geom_bond_atom_site_label_2
_geom_bond_distance
_geom_bond_site_symmetry_2
_ccdc_geom_bond_type
C0 O12 1.241 . S
C0 O13 1.280 . S
C1 O14 1.277 . S
C1 O15 1.245 . S
C2 O26 1.247 . S
C2 O28 1.289 . S
Mg3 O4 1.926 . S
Mg3 O13 1.984 . S
Mg3 O15 1.988 1_554 S
Mg3 O16 2.061 1_655 S
O4 Mg3 1.926 . S
O4 Mg5 1.986 1_544 S
O4 Mg6 1.918 1_655 S
Mg5 O4 1.986 1_566 S
Mg5 O12 2.042 1_566 S
Mg5 O14 2.041 1_565 S
Mg5 O20 2.038 1_556 S
Mg5 O28 2.238 . S
Mg6 O4 1.918 1_455 S
Mg6 O7 1.916 1_544 S
Mg6 O17 2.107 . S
Mg6 O19 2.078 1_445 S
Mg6 O28 2.106 1_444 S
Mg6 O29 2.079 1_554 S
O7 Mg6 1.916 1_566 S
O7 Mg8 1.926 . S
O7 Mg9 1.986 1_566 S
Mg8 O7 1.926 . S
Mg8 O22 1.984 . S
Mg8 O25 1.988 1_556 S
Mg8 O26 2.061 1_455 S
Mg9 O7 1.986 1_544 S
Mg9 O17 2.238 . S
Mg9 O21 2.042 1_544 S
Mg9 O23 2.041 1_545 S
Mg9 O30 2.038 1_554 S
C10 O16 1.247 . S
C10 O17 1.289 . S
C11 O29 1.245 . S
C11 O30 1.274 . S
O12 C0 1.241 . S
O12 Mg5 2.042 1_544 S
O13 C0 1.280 . S
O13 Mg3 1.984 . S
O14 C1 1.277 . S
O14 Mg5 2.041 1_545 S
O15 C1 1.245 . S
O15 Mg3 1.988 1_556 S
O16 Mg3 2.061 1_455 S
O16 C10 1.247 . S
O17 Mg6 2.107 . S
O17 Mg9 2.238 . S
O17 C10 1.289 . S
C18 O19 1.245 . S
C18 O20 1.274 . S
O19 Mg6 2.078 1_665 S
O19 C18 1.245 . S
O20 Mg5 2.038 1_554 S
O20 C18 1.274 . S
O21 Mg9 2.042 1_566 S
O21 C24 1.241 . S
O22 Mg8 1.984 . S
O22 C24 1.280 . S
O23 Mg9 2.041 1_565 S
O23 C27 1.277 . S
C24 O21 1.241 . S
C24 O22 1.280 . S
O25 Mg8 1.988 1_554 S
O25 C27 1.245 . S
O26 C2 1.247 . S
O26 Mg8 2.061 1_655 S
C27 O23 1.277 . S
C27 O25 1.245 . S
O28 C2 1.289 . S
O28 Mg5 2.238 . S
O28 Mg6 2.106 1_666 S
O29 Mg6 2.079 1_556 S
O29 C11 1.245 . S
O30 Mg9 2.038 1_556 S
O30 C11 1.274 . S
Co31 O34 2.042 . S
Co31 O41 2.264 . S
Co31 O60 2.286 . S
Co31 O61 2.069 . S
Co31 O63 2.015 . S
Co32 O34 2.122 . S
Co32 O40 2.073 . S
Co32 O41 2.327 . S
Co32 O42 1.976 . S
Co33 O34 2.087 . S
Co33 O36 2.087 . S
Co33 O43 2.111 . S
Co33 O44 2.143 . S
Co33 O48 2.111 . S
Co33 O62 2.143 . S
O34 Co31 2.042 . S
O34 Co32 2.122 . S
O34 Co33 2.087 . S
O34 H35 0.980 . S
H35 O34 0.980 . S
O36 Co33 2.087 . S
O36 Co37 2.042 . S
O36 Co38 2.122 . S
O36 H39 0.980 . S
Co37 O36 2.042 . S
Co37 O45 2.286 . S
Co37 O46 2.069 . S
Co37 O47 2.015 . S
Co37 O50 2.264 . S
Co38 O36 2.122 . S
Co38 O49 1.976 . S
Co38 O50 2.327 . S
Co38 O51 2.073 . S
H39 O36 0.980 . S
O40 Co32 2.073 . S
O40 C55 1.245 . S
O41 Co31 2.264 . S
O41 Co32 2.327 . S
O41 C55 1.257 . S
O42 Co32 1.976 . S
O42 C54 1.251 . S
O43 Co33 2.111 . S
O43 C54 1.274 . S
O44 Co33 2.143 . S
O44 C57 1.246 . S
O45 Co37 2.286 . S
O45 C56 1.259 . S
O46 Co37 2.069 . S
O46 C56 1.289 . S
O47 Co37 2.015 . S
O47 C57 1.257 . S
O48 Co33 2.111 . S
O48 C58 1.274 . S
O49 Co38 1.976 . S
O49 C58 1.251 . S
O50 Co37 2.264 . S
O50 Co38 2.327 . S
O50 C59 1.257 . S
O51 Co38 2.073 . S
O51 C59 1.245 . S
C52 O60 1.259 . S
C52 O61 1.289 . S
C53 O62 1.246 . S
C53 O63 1.257 . S
C54 O42 1.251 . S
C54 O43 1.274 . S
C55 O40 1.245 . S
C55 O41 1.257 . S
C56 O45 1.259 . S
C56 O46 1.289 . S
C57 O44 1.246 . S
C57 O47 1.257 . S
C58 O48 1.274 . S
C58 O49 1.251 . S
C59 O50 1.257 . S
C59 O51 1.245 . S
O60 Co31 2.286 . S
O60 C52 1.259 . S
O61 Co31 2.069 . S
O61 C52 1.289 . S
O62 Co33 2.143 . S
O62 C53 1.246 . S
O63 Co31 2.015 . S
O63 C53 1.257 . S
C64 C65 1.363 . S
C64 C70 1.379 . S
C64 N72 1.356 . S
C65 C64 1.363 . S
C65 C71 1.363 . S
C66 C67 1.363 . S
C66 C71 1.379 . S
C66 N73 1.356 . S
C67 C66 1.363 . S
C67 C70 1.363 . S
N68 C70 1.356 . S
N68 H80 0.984 . S
N68 H81 0.985 . S
N69 C71 1.356 . S
N69 H74 0.984 . S
N69 H75 0.985 . S
C70 C64 1.379 . S
C70 C67 1.363 . S
C70 N68 1.356 . S
C71 C65 1.363 . S
C71 C66 1.379 . S
C71 N69 1.356 . S
N72 C64 1.356 . S
N72 H78 0.984 . S
N72 H79 0.984 . S
N73 C66 1.356 . S
N73 H76 0.984 . S
N73 H77 0.985 . S
H74 N69 0.984 . S
H75 N69 0.985 . S
H76 N73 0.984 . S
H77 N73 0.985 . S
H78 N72 0.984 . S
H79 N72 0.984 . S
H80 N68 0.984 . S
H81 N68 0.985 . S
C82 C83 1.363 . S
C82 C88 1.379 . S
C82 N90 1.356 . S
C83 C82 1.363 . S
C83 C89 1.363 . S
C84 C85 1.363 . S
C84 C89 1.379 . S
C84 N91 1.356 . S
C85 C84 1.363 . S
C85 C88 1.363 . S
N86 C88 1.356 . S
N86 H98 0.984 . S
N86 H99 0.985 . S
N87 C89 1.356 . S
N87 H92 0.984 . S
N87 H93 0.985 . S
C88 C82 1.379 . S
C88 C85 1.363 . S
C88 N86 1.356 . S
C89 C83 1.363 . S
C89 C84 1.379 . S
C89 N87 1.356 . S
N90 C82 1.356 . S
N90 H96 0.984 . S
N90 H97 0.984 . S
N91 C84 1.356 . S
N91 H94 0.984 . S
N91 H95 0.985 . S
H92 N87 0.984 . S
H93 N87 0.985 . S
H94 N91 0.984 . S
H95 N91 0.985 . S
H96 N90 0.984 . S
H97 N90 0.984 . S
H98 N86 0.984 . S
H99 N86 0.985 . S
C100 C101 1.363 . S
C100 C106 1.379 . S
C100 N108 1.356 . S
C101 C100 1.363 . S
C101 C107 1.363 . S
C102 C103 1.363 . S
C102 C107 1.379 . S
C102 N109 1.356 . S
C103 C102 1.363 . S
C103 C106 1.363 . S
N104 C106 1.356 . S
N104 H116 0.984 . S
N104 H117 0.985 . S
N105 C107 1.356 . S
N105 H110 0.984 . S
N105 H111 0.985 . S
C106 C100 1.379 . S
C106 C103 1.363 . S
C106 N104 1.356 . S
C107 C101 1.363 . S
C107 C102 1.379 . S
C107 N105 1.356 . S
N108 C100 1.356 . S
N108 H114 0.984 . S
N108 H115 0.984 . S
N109 C102 1.356 . S
N109 H112 0.984 . S
N109 H113 0.985 . S
H110 N105 0.984 . S
H111 N105 0.985 . S
H112 N109 0.984 . S
H113 N109 0.985 . S
H114 N108 0.984 . S
H115 N108 0.984 . S
H116 N104 0.984 . S
H117 N104 0.985 . S
C118 C119 1.363 . S
C118 C124 1.379 . S
C118 N126 1.356 . S
C119 C118 1.363 . S
C119 C125 1.363 . S
C120 C121 1.363 . S
C120 C125 1.379 . S
C120 N127 1.356 . S
C121 C120 1.363 . S
C121 C124 1.363 . S
N122 C124 1.356 . S
N122 H134 0.984 . S
N122 H135 0.985 . S
N123 C125 1.356 . S
N123 H128 0.984 . S
N123 H129 0.985 . S
C124 C118 1.379 . S
C124 C121 1.363 . S
C124 N122 1.356 . S
C125 C119 1.363 . S
C125 C120 1.379 . S
C125 N123 1.356 . S
N126 C118 1.356 . S
N126 H132 0.984 . S
N126 H133 0.984 . S
N127 C120 1.356 . S
N127 H130 0.984 . S
N127 H131 0.985 . S
H128 N123 0.984 . S
H129 N123 0.985 . S
H130 N127 0.984 . S
H131 N127 0.985 . S
H132 N126 0.984 . S
H133 N126 0.984 . S
H134 N122 0.984 . S
H135 N122 0.985 . S
C136 C137 1.363 . S
C136 C142 1.379 . S
C136 N144 1.356 . S
C137 C136 1.363 . S
C137 C143 1.363 . S
C138 C139 1.363 . S
C138 C143 1.379 . S
C138 N145 1.356 . S
C139 C138 1.363 . S
C139 C142 1.363 . S
N140 C142 1.356 . S
N140 H152 0.984 . S
N140 H153 0.985 . S
N141 C143 1.356 . S
N141 H146 0.984 . S
N141 H147 0.985 . S
C142 C136 1.379 . S
C142 C139 1.363 . S
C142 N140 1.356 . S
C143 C137 1.363 . S
C143 C138 1.379 . S
C143 N141 1.356 . S
N144 C136 1.356 . S
N144 H150 0.984 . S
N144 H151 0.984 . S
N145 C138 1.356 . S
N145 H148 0.984 . S
N145 H149 0.985 . S
H146 N141 0.984 . S
H147 N141 0.985 . S
H148 N145 0.984 . S
H149 N145 0.985 . S
H150 N144 0.984 . S
H151 N144 0.984 . S
H152 N140 0.984 . S
H153 N140 0.985 . S
C154 C155 1.363 . S
C154 C160 1.379 . S
C154 N162 1.356 . S
C155 C154 1.363 . S
C155 C161 1.363 . S
C156 C157 1.363 . S
C156 C161 1.379 . S
C156 N163 1.356 . S
C157 C156 1.363 . S
C157 C160 1.363 . S
N158 C160 1.356 . S
N158 H170 0.984 . S
N158 H171 0.985 . S
N159 C161 1.356 . S
N159 H164 0.984 . S
N159 H165 0.985 . S
C160 C154 1.379 . S
C160 C157 1.363 . S
C160 N158 1.356 . S
C161 C155 1.363 . S
C161 C156 1.379 . S
C161 N159 1.356 . S
N162 C154 1.356 . S
N162 H168 0.984 . S
N162 H169 0.984 . S
N163 C156 1.356 . S
N163 H166 0.984 . S
N163 H167 0.985 . S
H164 N159 0.984 . S
H165 N159 0.985 . S
H166 N163 0.984 . S
H167 N163 0.985 . S
H168 N162 0.984 . S
H169 N162 0.984 . S
H170 N158 0.984 . S
H171 N158 0.985 . S
C172 C173 1.363 . S
C172 C178 1.379 . S
C172 N180 1.356 . S
C173 C172 1.363 . S
C173 C179 1.363 . S
C174 C175 1.363 . S
C174 C179 1.379 . S
C174 N181 1.356 . S
C175 C174 1.363 . S
C175 C178 1.363 . S
N176 C178 1.356 . S
N176 H188 0.984 . S
N176 H189 0.985 . S
N177 C179 1.356 . S
N177 H182 0.984 . S
N177 H183 0.985 . S
C178 C172 1.379 . S
C178 C175 1.363 . S
C178 N176 1.356 . S
C179 C173 1.363 . S
C179 C174 1.379 . S
C179 N177 1.356 . S
N180 C172 1.356 . S
N180 H186 0.984 . S
N180 H187 0.984 . S
N181 C174 1.356 . S
N181 H184 0.984 . S
N181 H185 0.985 . S
H182 N177 0.984 . S
H183 N177 0.985 . S
H184 N181 0.984 . S
H185 N181 0.985 . S
H186 N180 0.984 . S
H187 N180 0.984 . S
H188 N176 0.984 . S
H189 N176 0.985 . S
C190 C191 1.363 . S
C190 C196 1.379 . S
C190 N198 1.356 . S
C191 C190 1.363 . S
C191 C197 1.363 . S
C192 C193 1.363 . S
C192 C197 1.379 . S
C192 N199 1.356 . S
C193 C192 1.363 . S
C193 C196 1.363 . S
N194 C196 1.356 . S
N194 H206 0.984 . S
N194 H207 0.985 . S
N195 C197 1.356 . S
N195 H200 0.984 . S
N195 H201 0.985 . S
C196 C190 1.379 . S
C196 C193 1.363 . S
C196 N194 1.356 . S
C197 C191 1.363 . S
C197 C192 1.379 . S
C197 N195 1.356 . S
N198 C190 1.356 . S
N198 H204 0.984 . S
N198 H205 0.984 . S
N199 C192 1.356 . S
N199 H202 0.984 . S
N199 H203 0.985 . S
H200 N195 0.984 . S
H201 N195 0.985 . S
H202 N199 0.984 . S
H203 N199 0.985 . S
H204 N198 0.984 . S
H205 N198 0.984 . S
H206 N194 0.984 . S
H207 N194 0.985 . S
C65 C10 1.284 . S
C67 C53 1.294 . S
C83 C0 1.543 . S
C85 C52 1.586 . S
C101 C18 1.552 . S
C103 C58 1.516 . S
C119 C27 1.562 . S
C121 C59 1.532 . S
C137 C24 1.543 . S
C139 C56 1.584 . S
C157 C54 1.515 . S
C155 C11 1.553 . S
C173 C1 1.562 . S
C175 C55 1.535 . S
C193 C57 1.295 . S
C191 C2 1.285 . S
