# Generated by pormake.
# Topology scu, (8,4)-cn, num edge types: 1
# Building blocks:
#     Node 0, Type 0, BuildingBlock: VETTIZ_charged_sbu_0, # of connection points: 8
#     Node 1, Type 1, BuildingBlock: MUDLON_clean_sbu_0, # of connection points: 4
#     Node 2, Type 1, BuildingBlock: MUDLON_clean_sbu_0, # of connection points: 4
#     Edge 3, Type (0, 1), BuildingBlock: XIVTED_clean_linker_0, # of connection points: 2
#     Edge 4, Type (0, 1), BuildingBlock: XIVTED_clean_linker_0, # of connection points: 2
#     Edge 5, Type (0, 1), BuildingBlock: XIVTED_clean_linker_0, # of connection points: 2
#     Edge 6, Type (0, 1), BuildingBlock: XIVTED_clean_linker_0, # of connection points: 2
#     Edge 7, Type (0, 1), BuildingBlock: XIVTED_clean_linker_0, # of connection points: 2
#     Edge 8, Type (0, 1), BuildingBlock: XIVTED_clean_linker_0, # of connection points: 2
#     Edge 9, Type (0, 1), BuildingBlock: XIVTED_clean_linker_0, # of connection points: 2
#     Edge 10, Type (0, 1), BuildingBlock: XIVTED_clean_linker_0, # of connection points: 2
# Relax obj value: 0.036
# Max RMSD: 0.093
# Mean RMSD: 0.083
data_MOF--net-scu--node1-VETTIZ_charged_sbu_0--node2-MUDLON_clean_sbu_0--edge1-XIVTED_clean_linker_0
_symmetry_space_group_name_H-M    P1
_symmetry_Int_Tables_number       1
_symmetry_cell_setting            triclinic
loop_
_symmetry_equiv_pos_as_xyz
'x, y, z'
_cell_length_a     24.400572
_cell_length_b     24.997381
_cell_length_c     20.758074
_cell_angle_alpha  89.995008
_cell_angle_beta   89.916408
_cell_angle_gamma 89.503396
loop_
_atom_site_label
_atom_site_type_symbol
_atom_site_fract_x
_atom_site_fract_y
_atom_site_fract_z
_atom_type_partial_charge
Fe0 Fe 1.00935 0.01068 0.07957 0.0
O1 O 1.00813 0.06259 0.00607 0.0
Fe2 Fe 0.07926 0.90181 0.01294 0.0
Fe3 Fe 0.94931 0.11639 0.99414 0.0
O4 O 1.02083 0.95666 0.0094 0.0
O5 O 0.02275 0.95693 0.00254 0.0
O6 O 1.00737 0.06209 0.99914 0.0
Fe7 Fe 1.02231 1.00877 0.92945 0.0
C8 C 0.89039 0.03815 0.08393 0.0
O9 O 1.00011 0.07789 0.14165 0.0
O10 O 0.98947 0.14922 0.07105 0.0
O11 O 0.10445 0.02262 0.9385 0.0
O12 O 0.13489 0.93896 0.95157 0.0
O13 O 0.11825 0.93493 0.09008 0.0
O14 O 0.0931 0.02045 0.09129 0.0
O15 O 0.99842 0.14567 0.9223 0.0
O16 O 1.01975 0.07125 0.86124 0.0
C17 C 0.12625 0.98299 0.10691 0.0
O18 O 0.03857 0.94515 0.8653 0.0
O19 O 0.04358 0.87143 0.93128 0.0
O20 O 0.92525 1.00064 0.07535 0.0
O21 O 0.89857 0.08495 0.06266 0.0
C22 C 1.00029 0.12908 0.12749 0.0
C23 C 1.01642 0.12268 0.87051 0.0
C24 C 0.90301 0.02801 0.90476 0.0
O25 O 0.90546 0.07686 0.92258 0.0
O26 O 0.94091 0.99443 0.91686 0.0
C27 C 0.14221 0.98748 0.93428 0.0
O28 O 0.02574 0.87182 0.08024 0.0
O29 O 1.00895 0.94562 0.14547 0.0
C30 C 0.04038 0.89365 0.87498 0.0
C31 C 1.00676 0.89436 0.13237 0.0
Mg32 Mg 0.03111 0.52126 0.49539 0.0
C33 C 0.08465 0.42514 0.43418 0.0
O34 O 0.09417 0.41418 0.49501 0.0
C35 C 0.08773 0.62426 0.52427 0.0
O36 O 0.06865 0.63589 0.46678 0.0
C37 C 0.03393 0.45512 0.61323 0.0
O38 O 0.07584 0.48698 0.62161 0.0
O39 O 1.00224 0.46353 0.56565 0.0
O40 O 0.06456 0.47073 0.41944 0.0
O41 O 0.97015 0.57644 0.45684 0.0
C42 C 0.95907 0.57669 0.3971 0.0
O43 O 0.97538 0.53607 0.36155 0.0
O44 O 0.08594 0.57599 0.54359 0.0
Mg45 Mg 0.51765 1.00593 0.51961 0.0
C46 C 0.42295 0.01543 0.43933 0.0
O47 O 0.43589 0.06362 0.45916 0.0
C48 C 0.62137 0.95023 0.57315 0.0
O49 O 0.64245 0.96108 0.51652 0.0
C50 C 0.45283 0.01313 0.63208 0.0
O51 O 0.46433 0.96279 0.61937 0.0
O52 O 0.471 0.04898 0.59401 0.0
O53 O 0.45149 0.97586 0.4595 0.0
O54 O 0.57334 0.04006 0.44807 0.0
C55 C 0.58375 1.00478 0.40518 0.0
O56 O 0.5587 0.95857 0.40921 0.0
O57 O 0.57013 0.95672 0.58208 0.0
H58 H 0.05599 0.11512 0.24321 0.0
H59 H 0.0612 0.43169 0.30568 0.0
H60 H 0.97648 0.23522 0.12538 0.0
H61 H 0.10624 0.31827 0.45374 0.0
H62 H 0.0446 0.35763 0.2324 0.0
H63 H 0.08494 0.18664 0.31747 0.0
C64 C 0.04422 0.15617 0.23322 0.0
C65 C 1.01407 0.16906 0.17764 0.0
C66 C 0.05847 0.34881 0.28081 0.0
C67 C 0.04782 0.25057 0.26104 0.0
C68 C 0.06837 0.39123 0.32257 0.0
C69 C 0.08452 0.38128 0.38622 0.0
C70 C 0.06456 0.29583 0.30266 0.0
C71 C 0.09346 0.32781 0.40514 0.0
C72 C 0.06108 0.19691 0.27524 0.0
C73 C 1.00028 0.22306 0.16692 0.0
N74 N 0.08282 0.28696 0.36372 0.0
N75 N 1.01743 0.2615 0.20784 0.0
H76 H 0.85354 0.94511 0.14128 0.0
H77 H 0.63686 0.0969 0.36775 0.0
H78 H 0.8176 0.11416 0.12555 0.0
H79 H 0.63096 0.92701 0.33148 0.0
H80 H 0.71027 0.10409 0.28702 0.0
H81 H 0.77784 0.93714 0.21881 0.0
C82 C 0.82958 0.98036 0.15353 0.0
C83 C 0.84205 0.03029 0.12649 0.0
C84 C 0.69263 0.06531 0.29674 0.0
C85 C 0.7563 0.02169 0.21604 0.0
C86 C 0.65088 0.06124 0.34285 0.0
C87 C 0.6275 0.01141 0.3562 0.0
C88 C 0.71166 0.0191 0.26463 0.0
C89 C 0.64743 0.96639 0.32252 0.0
C90 C 0.7865 0.97585 0.19788 0.0
C91 C 0.80966 0.07472 0.14474 0.0
N92 N 0.68845 0.97124 0.27869 0.0
N93 N 0.76875 0.06943 0.18859 0.0
H94 H 1.01041 0.89516 0.26565 0.0
H95 H 0.92089 0.59097 0.27473 0.0
H96 H 0.94471 0.80882 0.10379 0.0
H97 H 0.96263 0.67865 0.44663 0.0
H98 H 0.91589 0.67502 0.21554 0.0
H99 H 0.9811 0.82193 0.33701 0.0
C100 C 0.98878 0.86144 0.24544 0.0
C101 C 0.98096 0.85737 0.17872 0.0
C102 C 0.92533 0.67617 0.26647 0.0
C103 C 0.94771 0.77385 0.25926 0.0
C104 C 0.92798 0.62804 0.30033 0.0
C105 C 0.94308 0.62759 0.36541 0.0
C106 C 0.93898 0.7243 0.29748 0.0
C107 C 0.95138 0.67701 0.39625 0.0
C108 C 0.97222 0.81961 0.286 0.0
C109 C 0.95269 0.81294 0.15485 0.0
N110 N 0.95043 0.7233 0.36168 0.0
N111 N 0.93777 0.77277 0.19484 0.0
H112 H 0.14764 0.07221 0.18165 0.0
H113 H 0.39483 0.92619 0.36934 0.0
H114 H 0.21086 0.91515 0.13417 0.0
H115 H 0.34983 0.09165 0.39977 0.0
H116 H 0.32416 0.9205 0.28592 0.0
H117 H 0.21999 0.08055 0.26323 0.0
C118 C 0.17696 0.03983 0.18777 0.0
C119 C 0.1728 0.9928 0.15122 0.0
C120 C 0.32975 0.95806 0.31093 0.0
C121 C 0.255 1.00165 0.24487 0.0
C122 C 0.3699 0.96116 0.35881 0.0
C123 C 0.37836 1.00941 0.39154 0.0
C124 C 0.29762 1.00346 0.29592 0.0
C125 C 0.34492 0.05361 0.37564 0.0
C126 C 0.21805 0.04443 0.23457 0.0
C127 C 0.21191 0.95199 0.16153 0.0
N128 N 0.3061 0.04958 0.32907 0.0
N129 N 0.25095 0.95724 0.20748 0.0
H130 H 0.04977 0.91856 0.74538 0.0
H131 H 0.116 0.61439 0.65116 0.0
H132 H 0.04402 0.78451 0.87672 0.0
H133 H 0.07272 0.73249 0.50769 0.0
H134 H 0.10642 0.68255 0.7343 0.0
H135 H 0.06948 0.85572 0.65698 0.0
C136 C 0.05208 0.87612 0.75567 0.0
C137 C 0.04539 0.85704 0.8189 0.0
C138 C 0.09948 0.69373 0.68455 0.0
C139 C 0.06923 0.78547 0.71854 0.0
C140 C 0.10546 0.65488 0.63691 0.0
C141 C 0.09446 0.66747 0.57235 0.0
C142 C 0.08247 0.74572 0.66774 0.0
C143 C 0.08125 0.72087 0.55693 0.0
C144 C 0.0637 0.8404 0.70529 0.0
C145 C 0.04912 0.80152 0.82916 0.0
N146 N 0.07503 0.758 0.60441 0.0
N147 N 0.06112 0.76798 0.77978 0.0
H148 H 0.16322 0.07624 0.86016 0.0
H149 H 0.45404 0.96139 0.74573 0.0
H150 H 0.23923 0.9315 0.93193 0.0
H151 H 0.37001 0.08871 0.64532 0.0
H152 H 0.38397 0.96384 0.82921 0.0
H153 H 0.24531 0.09337 0.7955 0.0
C154 C 0.19743 0.04845 0.86319 0.0
C155 C 0.19404 1.00198 0.90127 0.0
C156 C 0.38097 0.99186 0.78954 0.0
C157 C 0.28811 0.02163 0.8273 0.0
C158 C 0.42119 0.99069 0.74199 0.0
C159 C 0.41753 0.02464 0.68836 0.0
C160 C 0.33601 0.02679 0.78331 0.0
C161 C 0.37434 0.062 0.68608 0.0
C162 C 0.2442 0.05825 0.826 0.0
C163 C 0.23966 0.9675 0.90295 0.0
N164 N 0.3346 0.06153 0.73247 0.0
N165 N 0.28452 0.97789 0.8663 0.0
H166 H 0.96939 0.13358 0.75191 0.0
H167 H 0.09514 0.42669 0.7174 0.0
H168 H 0.09382 0.19848 0.87556 0.0
H169 H 0.96888 0.36742 0.5913 0.0
H170 H 0.09914 0.34005 0.77031 0.0
H171 H 0.97549 0.21379 0.68359 0.0
C172 C 0.99947 0.16382 0.76306 0.0
C173 C 0.03156 0.15962 0.81877 0.0
C174 C 0.07042 0.34581 0.73115 0.0
C175 C 0.03736 0.25167 0.74307 0.0
C176 C 0.06782 0.39555 0.70115 0.0
C177 C 0.03141 0.40451 0.65001 0.0
C178 C 0.03628 0.30438 0.71014 0.0
C179 C 0.99723 0.36242 0.63095 0.0
C180 C 1.00234 0.20989 0.72483 0.0
C181 C 0.06876 0.20032 0.83257 0.0
N182 N 1.0005 0.31409 0.66105 0.0
N183 N 0.07027 0.24485 0.79538 0.0
H184 H 0.80054 0.07357 0.89087 0.0
H185 H 0.72724 0.91374 0.5764 0.0
H186 H 0.90105 0.94176 0.82411 0.0
H187 H 0.6007 0.9822 0.697 0.0
H188 H 0.79323 0.92627 0.66387 0.0
H189 H 0.72792 0.04523 0.81679 0.0
C190 C 0.80722 0.03859 0.86099 0.0
C191 C 0.85701 1.01013 0.86364 0.0
C192 C 0.7508 0.93766 0.67154 0.0
C193 C 0.77459 0.97799 0.77851 0.0
C194 C 0.71313 0.93036 0.62175 0.0
C195 C 0.65843 0.94684 0.62943 0.0
C196 C 0.73396 0.96298 0.72875 0.0
C197 C 0.64241 0.96856 0.68912 0.0
C198 C 0.76571 0.02228 0.81905 0.0
C199 C 0.86333 0.9649 0.82392 0.0
N200 N 0.68023 0.97698 0.73606 0.0
N201 N 0.82296 0.95069 0.78244 0.0
loop_
_geom_bond_atom_site_label_1
_geom_bond_atom_site_label_2
_geom_bond_distance
_geom_bond_site_symmetry_2
_ccdc_geom_bond_type
Fe0 O1 1.907 . S
Fe0 O4 1.694 1_645 S
Fe0 O9 2.098 1_655 S
Fe0 O14 1.922 1_655 S
Fe0 O20 2.094 1_545 S
Fe0 O29 1.917 1_545 S
O1 Fe0 1.907 . S
O1 Fe3 1.715 . S
Fe2 O4 1.886 . S
Fe2 O5 1.715 1_554 S
Fe2 O12 1.935 1_554 S
Fe2 O13 2.077 . S
Fe2 O19 1.935 1_554 S
Fe2 O28 2.077 . S
Fe3 O1 1.715 . S
Fe3 O6 1.886 1_554 S
Fe3 O10 1.935 . S
Fe3 O15 2.077 1_554 S
Fe3 O21 1.935 . S
Fe3 O25 2.077 1_554 S
O4 Fe0 1.694 1_465 S
O4 Fe2 1.886 . S
O5 Fe2 1.715 1_556 S
O5 Fe7 1.907 . S
O6 Fe3 1.886 1_556 S
O6 Fe7 1.694 1_645 S
Fe7 O5 1.907 . S
Fe7 O6 1.694 1_465 S
Fe7 O11 2.098 1_565 S
Fe7 O16 1.922 1_565 S
Fe7 O18 2.094 1_455 S
Fe7 O26 1.917 1_455 S
C8 O20 1.381 1_545 S
C8 O21 1.421 . S
O9 Fe0 2.098 1_455 S
O9 C22 1.381 1_455 S
O10 Fe3 1.935 . S
O10 C22 1.421 . S
O11 Fe7 2.098 1_545 S
O11 C27 1.381 1_545 S
O12 Fe2 1.935 1_556 S
O12 C27 1.421 . S
O13 Fe2 2.077 . S
O13 C17 1.381 . S
O14 Fe0 1.922 1_455 S
O14 C17 1.421 1_545 S
O15 Fe3 2.077 1_556 S
O15 C23 1.381 . S
O16 Fe7 1.922 1_545 S
O16 C23 1.421 1_455 S
C17 O13 1.381 . S
C17 O14 1.421 1_565 S
O18 Fe7 2.094 1_655 S
O18 C30 1.381 1_655 S
O19 Fe2 1.935 1_556 S
O19 C30 1.421 . S
O20 Fe0 2.094 1_565 S
O20 C8 1.381 1_565 S
O21 Fe3 1.935 . S
O21 C8 1.421 . S
C22 O9 1.381 1_655 S
C22 O10 1.421 . S
C23 O15 1.381 . S
C23 O16 1.421 1_655 S
C24 O25 1.381 . S
C24 O26 1.421 1_545 S
O25 Fe3 2.077 1_556 S
O25 C24 1.381 . S
O26 Fe7 1.917 1_655 S
O26 C24 1.421 1_565 S
C27 O11 1.381 1_565 S
C27 O12 1.421 . S
O28 Fe2 2.077 . S
O28 C31 1.381 . S
O29 Fe0 1.917 1_565 S
O29 C31 1.421 1_655 S
C30 O18 1.381 1_455 S
C30 O19 1.421 . S
C31 O28 1.381 . S
C31 O29 1.421 1_455 S
Mg32 O39 2.141 . S
Mg32 O40 2.048 . S
Mg32 O41 2.048 . S
Mg32 O44 2.141 . S
C33 O34 1.313 . S
C33 O40 1.195 1_455 S
O34 C33 1.313 . S
C35 O36 1.245 . S
C35 O44 1.289 1_455 S
O36 C35 1.245 . S
C37 O38 1.245 . S
C37 O39 1.289 1_455 S
O38 C37 1.245 . S
O39 Mg32 2.141 . S
O39 C37 1.289 1_655 S
O40 Mg32 2.048 . S
O40 C33 1.195 1_655 S
O41 Mg32 2.048 . S
O41 C42 1.195 1_655 S
C42 O41 1.195 1_455 S
C42 O43 1.313 . S
O43 C42 1.313 . S
O44 Mg32 2.141 . S
O44 C35 1.289 1_655 S
Mg45 O52 2.141 . S
Mg45 O53 2.048 . S
Mg45 O54 2.048 . S
Mg45 O57 2.141 . S
C46 O47 1.313 . S
C46 O53 1.195 1_565 S
O47 C46 1.313 . S
C48 O49 1.245 . S
C48 O57 1.289 1_565 S
O49 C48 1.245 . S
C50 O51 1.245 . S
C50 O52 1.289 1_565 S
O51 C50 1.245 . S
O52 Mg45 2.141 . S
O52 C50 1.289 1_545 S
O53 Mg45 2.048 . S
O53 C46 1.195 1_545 S
O54 Mg45 2.048 . S
O54 C55 1.195 1_545 S
C55 O54 1.195 1_565 S
C55 O56 1.313 . S
O56 C55 1.313 . S
O57 Mg45 2.141 . S
O57 C48 1.289 1_545 S
H58 C64 0.930 . S
H59 C68 0.930 . S
H60 C73 0.929 . S
H61 C71 0.929 . S
H62 C66 0.929 . S
H63 C72 0.929 . S
C64 H58 0.930 . S
C64 C65 1.367 . S
C64 C72 1.378 . S
C65 C64 1.367 . S
C65 C73 1.433 1_455 S
C66 H62 0.929 . S
C66 C68 1.378 . S
C66 C70 1.350 1_655 S
C67 C70 1.462 . S
C67 C72 1.350 . S
C67 N75 1.427 1_455 S
C68 H59 0.930 . S
C68 C66 1.378 . S
C68 C69 1.367 1_655 S
C69 C68 1.367 1_455 S
C69 C71 1.433 . S
C70 C66 1.350 1_455 S
C70 C67 1.462 . S
C70 N74 1.427 . S
C71 H61 0.929 . S
C71 C69 1.433 . S
C71 N74 1.384 . S
C72 H63 0.929 . S
C72 C64 1.378 . S
C72 C67 1.350 . S
C73 H60 0.929 . S
C73 C65 1.433 1_655 S
C73 N75 1.384 . S
N74 C70 1.427 . S
N74 C71 1.384 . S
N75 C67 1.427 1_655 S
N75 C73 1.384 . S
H76 C82 0.930 . S
H77 C86 0.930 . S
H78 C91 0.929 . S
H79 C89 0.929 . S
H80 C84 0.929 . S
H81 C90 0.929 . S
C82 H76 0.930 . S
C82 C83 1.367 . S
C82 C90 1.378 . S
C83 C82 1.367 . S
C83 C91 1.433 1_565 S
C84 H80 0.929 . S
C84 C86 1.378 . S
C84 C88 1.350 . S
C85 C88 1.463 1_565 S
C85 C90 1.350 . S
C85 N93 1.427 1_565 S
C86 H77 0.930 . S
C86 C84 1.378 . S
C86 C87 1.367 . S
C87 C86 1.367 . S
C87 C89 1.433 1_545 S
C88 C84 1.350 . S
C88 C85 1.463 1_545 S
C88 N92 1.427 1_545 S
C89 H79 0.929 . S
C89 C87 1.433 1_565 S
C89 N92 1.384 . S
C90 H81 0.929 . S
C90 C82 1.378 . S
C90 C85 1.350 . S
C91 H78 0.929 . S
C91 C83 1.433 1_545 S
C91 N93 1.384 . S
N92 C88 1.427 1_565 S
N92 C89 1.384 . S
N93 C85 1.427 1_545 S
N93 C91 1.384 . S
H94 C100 0.930 . S
H95 C104 0.930 . S
H96 C109 0.929 . S
H97 C107 0.929 . S
H98 C102 0.929 . S
H99 C108 0.929 . S
C100 H94 0.930 . S
C100 C101 1.382 . S
C100 C108 1.378 . S
C101 C100 1.382 . S
C101 C109 1.418 1_655 S
C102 H98 0.929 . S
C102 C104 1.378 . S
C102 C106 1.350 . S
C103 C106 1.463 1_655 S
C103 C108 1.350 . S
C103 N111 1.427 1_655 S
C104 H95 0.930 . S
C104 C102 1.378 . S
C104 C105 1.382 . S
C105 C104 1.382 . S
C105 C107 1.418 1_455 S
C106 C102 1.350 . S
C106 C103 1.463 1_455 S
C106 N110 1.427 1_455 S
C107 H97 0.929 . S
C107 C105 1.418 1_655 S
C107 N110 1.384 . S
C108 H99 0.929 . S
C108 C100 1.378 . S
C108 C103 1.350 . S
C109 H96 0.929 . S
C109 C101 1.418 1_455 S
C109 N111 1.384 . S
N110 C106 1.427 1_655 S
N110 C107 1.384 . S
N111 C103 1.427 1_455 S
N111 C109 1.384 . S
H112 C118 0.930 . S
H113 C122 0.930 . S
H114 C127 0.929 . S
H115 C125 0.929 . S
H116 C120 0.929 . S
H117 C126 0.929 . S
C118 H112 0.930 . S
C118 C119 1.367 . S
C118 C126 1.378 . S
C119 C118 1.367 . S
C119 C127 1.433 1_545 S
C120 H116 0.929 . S
C120 C122 1.378 . S
C120 C124 1.350 1_565 S
C121 C124 1.462 . S
C121 C126 1.350 . S
C121 N129 1.427 1_545 S
C122 H113 0.930 . S
C122 C120 1.378 . S
C122 C123 1.367 1_565 S
C123 C122 1.367 1_545 S
C123 C125 1.433 . S
C124 C120 1.350 1_545 S
C124 C121 1.462 . S
C124 N128 1.427 . S
C125 H115 0.929 . S
C125 C123 1.433 . S
C125 N128 1.384 . S
C126 H117 0.929 . S
C126 C118 1.378 . S
C126 C121 1.350 . S
C127 H114 0.929 . S
C127 C119 1.433 1_565 S
C127 N129 1.384 . S
N128 C124 1.427 . S
N128 C125 1.384 . S
N129 C121 1.427 1_565 S
N129 C127 1.384 . S
H130 C136 0.930 . S
H131 C140 0.930 . S
H132 C145 0.929 . S
H133 C143 0.929 . S
H134 C138 0.929 . S
H135 C144 0.929 . S
C136 H130 0.930 . S
C136 C137 1.372 . S
C136 C144 1.378 . S
C137 C136 1.372 . S
C137 C145 1.428 1_455 S
C138 H134 0.929 . S
C138 C140 1.378 . S
C138 C142 1.359 . S
C139 C142 1.463 1_455 S
C139 C144 1.359 . S
C139 N147 1.418 1_455 S
C140 H131 0.930 . S
C140 C138 1.378 . S
C140 C141 1.372 . S
C141 C140 1.372 . S
C141 C143 1.428 1_655 S
C142 C138 1.359 . S
C142 C139 1.463 1_655 S
C142 N146 1.418 1_655 S
C143 H133 0.929 . S
C143 C141 1.428 1_455 S
C143 N146 1.384 . S
C144 H135 0.929 . S
C144 C136 1.378 . S
C144 C139 1.359 . S
C145 H132 0.929 . S
C145 C137 1.428 1_655 S
C145 N147 1.384 . S
N146 C142 1.418 1_455 S
N146 C143 1.384 . S
N147 C139 1.418 1_655 S
N147 C145 1.384 . S
H148 C154 0.930 . S
H149 C158 0.930 . S
H150 C163 0.929 . S
H151 C161 0.929 . S
H152 C156 0.929 . S
H153 C162 0.929 . S
C154 H148 0.930 . S
C154 C155 1.367 . S
C154 C162 1.378 . S
C155 C154 1.367 . S
C155 C163 1.433 1_545 S
C156 H152 0.929 . S
C156 C158 1.378 . S
C156 C160 1.350 . S
C157 C160 1.463 1_545 S
C157 C162 1.350 . S
C157 N165 1.427 1_545 S
C158 H149 0.930 . S
C158 C156 1.378 . S
C158 C159 1.377 . S
C159 C158 1.377 . S
C159 C161 1.423 1_565 S
C160 C156 1.350 . S
C160 C157 1.463 1_565 S
C160 N164 1.427 1_565 S
C161 H151 0.929 . S
C161 C159 1.423 1_545 S
C161 N164 1.384 . S
C162 H153 0.929 . S
C162 C154 1.378 . S
C162 C157 1.350 . S
C163 H150 0.929 . S
C163 C155 1.433 1_565 S
C163 N165 1.384 . S
N164 C160 1.427 1_545 S
N164 C161 1.384 . S
N165 C157 1.427 1_565 S
N165 C163 1.384 . S
H166 C172 0.930 . S
H167 C176 0.930 . S
H168 C181 0.929 . S
H169 C179 0.929 . S
H170 C174 0.929 . S
H171 C180 0.929 . S
C172 H166 0.930 . S
C172 C173 1.367 . S
C172 C180 1.378 . S
C173 C172 1.367 . S
C173 C181 1.433 1_455 S
C174 H170 0.929 . S
C174 C176 1.378 . S
C174 C178 1.350 1_655 S
C175 C178 1.462 . S
C175 C180 1.350 . S
C175 N183 1.427 1_455 S
C176 H167 0.930 . S
C176 C174 1.378 . S
C176 C177 1.367 1_655 S
C177 C176 1.367 1_455 S
C177 C179 1.433 . S
C178 C174 1.350 1_455 S
C178 C175 1.462 . S
C178 N182 1.427 . S
C179 H169 0.929 . S
C179 C177 1.433 . S
C179 N182 1.384 . S
C180 H171 0.929 . S
C180 C172 1.378 . S
C180 C175 1.350 . S
C181 H168 0.929 . S
C181 C173 1.433 1_655 S
C181 N183 1.384 . S
N182 C178 1.427 . S
N182 C179 1.384 . S
N183 C175 1.427 1_655 S
N183 C181 1.384 . S
H184 C190 0.930 . S
H185 C194 0.930 . S
H186 C199 0.929 . S
H187 C197 0.929 . S
H188 C192 0.929 . S
H189 C198 0.929 . S
C190 H184 0.930 . S
C190 C191 1.367 . S
C190 C198 1.378 . S
C191 C190 1.367 . S
C191 C199 1.433 1_545 S
C192 H188 0.929 . S
C192 C194 1.378 . S
C192 C196 1.350 . S
C193 C196 1.463 1_545 S
C193 C198 1.350 . S
C193 N201 1.427 1_545 S
C194 H185 0.930 . S
C194 C192 1.378 . S
C194 C195 1.386 . S
C195 C194 1.386 . S
C195 C197 1.414 1_565 S
C196 C192 1.350 . S
C196 C193 1.463 1_565 S
C196 N200 1.427 1_565 S
C197 H187 0.929 . S
C197 C195 1.414 1_545 S
C197 N200 1.384 . S
C198 H189 0.929 . S
C198 C190 1.378 . S
C198 C193 1.350 . S
C199 H186 0.929 . S
C199 C191 1.433 1_565 S
C199 N201 1.384 . S
N200 C196 1.427 1_545 S
N200 C197 1.384 . S
N201 C193 1.427 1_565 S
N201 C199 1.384 . S
C65 C22 1.423 1_455 S
C69 C33 1.465 . S
C83 C8 1.427 1_565 S
C87 C55 1.472 1_545 S
C101 C31 1.415 1_655 S
C105 C42 1.470 . S
C119 C17 1.412 1_545 S
C123 C46 1.466 1_545 S
C137 C30 1.347 . S
C141 C35 1.394 1_655 S
C155 C27 1.359 1_545 S
C159 C50 1.389 . S
C177 C37 1.392 . S
C173 C23 1.339 1_455 S
C191 C24 1.340 . S
C195 C48 1.392 . S
