# Generated by pormake.
# Topology tsx, (6,3)-cn, num edge types: 1
# Building blocks:
#     Node 0, Type 0, BuildingBlock: CIFDUS_clean_sbu_1, # of connection points: 6
#     Node 1, Type 0, BuildingBlock: CIFDUS_clean_sbu_1, # of connection points: 6
#     Node 2, Type 1, BuildingBlock: OLANEW_clean_sbu_2, # of connection points: 3
#     Node 3, Type 1, BuildingBlock: OLANEW_clean_sbu_2, # of connection points: 3
#     Node 4, Type 1, BuildingBlock: OLANEW_clean_sbu_2, # of connection points: 3
#     Node 5, Type 1, BuildingBlock: OLANEW_clean_sbu_2, # of connection points: 3
#     Edge 6, Type (0, 1), BuildingBlock: AJUNOK_clean_linker_0, # of connection points: 2
#     Edge 7, Type (0, 1), BuildingBlock: AJUNOK_clean_linker_0, # of connection points: 2
#     Edge 8, Type (0, 1), BuildingBlock: AJUNOK_clean_linker_0, # of connection points: 2
#     Edge 9, Type (0, 1), BuildingBlock: AJUNOK_clean_linker_0, # of connection points: 2
#     Edge 10, Type (0, 1), BuildingBlock: AJUNOK_clean_linker_0, # of connection points: 2
#     Edge 11, Type (0, 1), BuildingBlock: AJUNOK_clean_linker_0, # of connection points: 2
#     Edge 12, Type (0, 1), BuildingBlock: AJUNOK_clean_linker_0, # of connection points: 2
#     Edge 13, Type (0, 1), BuildingBlock: AJUNOK_clean_linker_0, # of connection points: 2
#     Edge 14, Type (0, 1), BuildingBlock: AJUNOK_clean_linker_0, # of connection points: 2
#     Edge 15, Type (0, 1), BuildingBlock: AJUNOK_clean_linker_0, # of connection points: 2
#     Edge 16, Type (0, 1), BuildingBlock: AJUNOK_clean_linker_0, # of connection points: 2
#     Edge 17, Type (0, 1), BuildingBlock: AJUNOK_clean_linker_0, # of connection points: 2
# Relax obj value: 0.039
# Max RMSD: 0.094
# Mean RMSD: 0.049
data_MOF--net-tsx--node1-CIFDUS_clean_sbu_1--node2-OLANEW_clean_sbu_2--edge1-AJUNOK_clean_linker_0
_symmetry_space_group_name_H-M    P1
_symmetry_Int_Tables_number       1
_symmetry_cell_setting            triclinic
loop_
_symmetry_equiv_pos_as_xyz
'x, y, z'
_cell_length_a     15.556536
_cell_length_b     18.861927
_cell_length_c     26.030366
_cell_angle_alpha  102.87
_cell_angle_beta   91.98347
_cell_angle_gamma 90.884565
loop_
_atom_site_label
_atom_site_type_symbol
_atom_site_fract_x
_atom_site_fract_y
_atom_site_fract_z
_atom_type_partial_charge
O0 O 0.96821 0.10385 0.00706 0.0
Mn1 Mn 0.03227 0.00412 -0.00125 0.0
O2 O 0.83038 0.07624 0.98685 0.0
Mn3 Mn 0.86254 -0.00929 0.94495 0.0
O4 O 0.10478 0.90843 0.99065 0.0
O5 O 0.14249 0.06367 0.01683 0.0
Mn6 Mn 0.20558 0.03237 0.06445 0.0
O7 O 0.01277 0.00506 0.07811 0.0
O8 O 0.23863 0.94472 0.02518 0.0
O9 O 0.04992 0.00103 0.91807 0.0
O10 O 0.91522 -0.00331 0.88449 0.0
O11 O 0.24695 0.12404 0.06423 0.0
O12 O 0.14187 0.02418 0.12082 0.0
C13 C 0.84977 0.89911 0.97348 0.0
C14 C 0.88928 0.12219 0.00575 0.0
C15 C 0.18499 0.89655 -0.00012 0.0
C16 C 0.18461 0.12497 0.03022 0.0
C17 C 0.06159 0.01162 0.11967 0.0
C18 C 0.99568 -0.00192 0.87911 0.0
O19 O 0.92065 0.93975 0.98339 0.0
O20 O 0.792 0.9148 0.94083 0.0
O21 O 0.45649 0.60518 0.51352 0.0
Mn22 Mn 0.53145 0.5096 0.50281 0.0
O23 O 0.32362 0.5609 0.5014 0.0
Mn24 Mn 0.35895 0.48287 0.45382 0.0
O25 O 0.60452 0.41514 0.49053 0.0
O26 O 0.63608 0.57974 0.51501 0.0
Mn27 Mn 0.70877 0.53897 0.55233 0.0
O28 O 0.52827 0.50843 0.5845 0.0
O29 O 0.73901 0.4475 0.52006 0.0
O30 O 0.53896 0.50903 0.42228 0.0
O31 O 0.40221 0.49714 0.39199 0.0
O32 O 0.77024 0.61547 0.54283 0.0
O33 O 0.66152 0.54522 0.61611 0.0
C34 C 0.36337 0.38841 0.47769 0.0
C35 C 0.37484 0.61458 0.5145 0.0
C36 C 0.68286 0.39993 0.49901 0.0
C37 C 0.69776 0.62931 0.52116 0.0
C38 C 0.58611 0.5232 0.62257 0.0
C39 C 0.48169 0.50482 0.38498 0.0
O40 O 0.42898 0.435 0.48773 0.0
O41 O 0.29749 0.40203 0.44976 0.0
O42 O 0.06832 0.9547 0.35542 0.0
Cd43 Cd 0.10527 0.97652 0.44991 0.0
O44 O 0.0617 0.07303 0.36704 0.0
Cd45 Cd 0.06349 0.09385 0.45276 0.0
O46 O 0.94691 0.13939 0.48736 0.0
C47 C 0.92267 0.18111 0.45794 0.0
O48 O 0.97465 0.19307 0.42191 0.0
C49 C 0.05707 0.01042 0.33636 0.0
C50 C 0.20343 0.87102 0.47957 0.0
O51 O 0.12139 0.86517 0.47281 0.0
O52 O 0.24121 0.92822 0.47154 0.0
O53 O 0.05817 0.07561 0.65556 0.0
Cd54 Cd 0.04759 0.09 0.56536 0.0
O55 O 0.05426 0.957 0.626 0.0
Cd56 Cd 0.02527 0.95948 0.54332 0.0
O57 O 0.903 0.91331 0.50554 0.0
C58 C 0.88594 0.86046 0.52656 0.0
O59 O 0.94442 0.84142 0.55826 0.0
C60 C 0.06024 0.0122 0.66435 0.0
C61 C 0.18553 0.17032 0.54365 0.0
O62 O 0.11924 0.20107 0.56573 0.0
O63 O 0.18714 0.10069 0.53147 0.0
O64 O 0.53315 0.43349 0.85228 0.0
Cd65 Cd 0.55291 0.43441 0.94657 0.0
O66 O 0.56679 0.55032 0.87076 0.0
Cd67 Cd 0.55056 0.564 0.95511 0.0
O68 O 0.43833 0.6252 0.9832 0.0
C69 C 0.42882 0.6737 0.95674 0.0
O70 O 0.48923 0.6824 0.9245 0.0
C71 C 0.54686 0.49209 0.83716 0.0
C72 C 0.69 0.35437 0.97353 0.0
O73 O 0.61398 0.32656 0.96376 0.0
O74 O 0.70317 0.42004 0.96938 0.0
O75 O 0.55559 0.56448 0.15291 0.0
Cd76 Cd 0.5727 0.55828 0.05971 0.0
O77 O 0.55432 0.44487 0.13459 0.0
Cd78 Cd 0.53889 0.42478 0.04907 0.0
O79 O 0.44032 0.35386 0.00063 0.0
C80 C 0.3647 0.36268 0.0176 0.0
O81 O 0.35281 0.41563 0.05886 0.0
C82 C 0.55334 0.50516 0.16814 0.0
C83 C 0.6794 0.67147 0.04649 0.0
O84 O 0.59816 0.67879 0.05175 0.0
O85 O 0.71097 0.60932 0.04715 0.0
C86 C 0.26623 0.17466 0.96906 0.0
C87 C 0.19133 0.17975 -0.00161 0.0
C88 C 0.31953 0.23594 0.97099 0.0
C89 C 0.29718 0.30483 0.00023 0.0
H90 H 0.29165 0.1216 0.95245 0.0
H91 H 0.38224 0.22766 0.95409 0.0
S92 S 0.08879 0.35049 0.06322 0.0
N93 N 0.08521 0.26085 0.0438 0.0
N94 N 0.18189 0.37731 0.04443 0.0
C95 C 0.21401 0.31233 0.02021 0.0
C96 C 0.16115 0.24943 0.01939 0.0
C97 C 0.23771 0.78046 0.01566 0.0
C98 C 0.22144 0.82524 0.98006 0.0
C99 C 0.30193 0.7282 0.00653 0.0
C100 C 0.35283 0.72044 0.96204 0.0
H101 H 0.20535 0.78983 0.05271 0.0
H102 H 0.31542 0.69725 0.03618 0.0
S103 S 0.32885 0.82068 0.85486 0.0
N104 N 0.25579 0.85523 0.89728 0.0
N105 N 0.37615 0.75714 0.87946 0.0
C106 C 0.33276 0.76171 0.92449 0.0
C107 C 0.26705 0.81417 0.93369 0.0
C108 C 0.73658 0.85532 0.022 0.0
C109 C 0.82152 0.84795 0.0051 0.0
C110 C 0.69318 0.79908 0.03755 0.0
C111 C 0.73304 0.73284 0.03748 0.0
H112 H 0.70101 0.90366 0.0199 0.0
H113 H 0.62634 0.80684 0.04735 0.0
S114 S 0.96066 0.69101 0.0065 0.0
N115 N 0.94824 0.77337 0.99555 0.0
N116 N 0.86712 0.66675 0.02645 0.0
C117 C 0.82087 0.72691 0.0254 0.0
C118 C 0.86521 0.78481 0.00894 0.0
C119 C 0.80518 0.22907 0.04521 0.0
C120 C 0.86632 0.198 0.00896 0.0
C121 C 0.75259 0.28473 0.03546 0.0
C122 C 0.75956 0.31071 0.98917 0.0
H123 H 0.79259 0.20573 0.07874 0.0
H124 H 0.7022 0.30406 0.06248 0.0
S125 S 0.9103 0.2478 0.88241 0.0
N126 N 0.93274 0.19853 0.92604 0.0
N127 N 0.83387 0.30334 0.90779 0.0
C128 C 0.82425 0.2836 0.95442 0.0
C129 C 0.87796 0.22715 0.96443 0.0
C130 C 0.70544 0.75521 0.5652 0.0
C131 C 0.68638 0.70498 0.51729 0.0
C132 C 0.76471 0.81228 0.56737 0.0
C133 C 0.80071 0.82423 0.52125 0.0
H134 H 0.68891 0.74194 0.60216 0.0
H135 H 0.78935 0.84208 0.60569 0.0
S136 S 0.73423 0.73168 0.3847 0.0
N137 N 0.68352 0.68565 0.42212 0.0
N138 N 0.78922 0.79799 0.42551 0.0
C139 C 0.76568 0.78557 0.47252 0.0
C140 C 0.70822 0.7251 0.47065 0.0
C141 C 0.74341 0.29294 0.52481 0.0
C142 C 0.71256 0.32555 0.48433 0.0
C143 C 0.80663 0.24002 0.51521 0.0
C144 C 0.84124 0.2198 0.46506 0.0
H145 H 0.72483 0.31358 0.56506 0.0
H146 H 0.83394 0.22027 0.5481 0.0
S147 S 0.76925 0.27952 0.34445 0.0
N148 N 0.71103 0.32654 0.39153 0.0
N149 N 0.82969 0.22688 0.37287 0.0
C150 C 0.80349 0.24602 0.42326 0.0
C151 C 0.73883 0.29913 0.43306 0.0
C152 C 0.33709 0.32981 0.55071 0.0
C153 C 0.35702 0.32218 0.49765 0.0
C154 C 0.28574 0.27723 0.56632 0.0
C155 C 0.25499 0.21495 0.52953 0.0
H156 H 0.35217 0.38044 0.57893 0.0
H157 H 0.26523 0.28766 0.60662 0.0
S158 S 0.29486 0.16766 0.38672 0.0
N159 N 0.347 0.24604 0.40907 0.0
N160 N 0.2525 0.14619 0.43874 0.0
C161 C 0.28112 0.20349 0.47741 0.0
C162 C 0.33232 0.25736 0.46145 0.0
C163 C 0.24664 0.68473 0.50076 0.0
C164 C 0.33524 0.68593 0.51493 0.0
C165 C 0.20637 0.74487 0.48991 0.0
C166 C 0.25131 0.81074 0.49386 0.0
H167 H 0.20714 0.63564 0.4954 0.0
H168 H 0.13911 0.7385 0.47709 0.0
S169 S 0.48103 0.84819 0.53663 0.0
N170 N 0.46567 0.76117 0.53641 0.0
N171 N 0.38774 0.87715 0.51793 0.0
C172 C 0.3389 0.81517 0.51068 0.0
C173 C 0.38118 0.75232 0.52098 0.0
C174 C 0.01195 0.06701 0.20746 0.0
C175 C 0.02739 0.00358 0.16964 0.0
C176 C 0.0172 0.06738 0.26127 0.0
C177 C 0.03902 0.00438 0.27916 0.0
H178 H 0.00328 0.11809 0.19562 0.0
H179 H 0.00877 0.11866 0.289 0.0
S180 S 0.07363 0.82178 0.19423 0.0
N181 N 0.05622 0.87464 0.15234 0.0
N182 N 0.06558 0.87447 0.25369 0.0
C183 C 0.04713 0.93896 0.24125 0.0
C184 C 0.04149 0.93882 0.18638 0.0
C185 C 0.09061 0.03709 0.81325 0.0
C186 C 0.02285 -0.00655 0.82457 0.0
C187 C 0.10446 0.04214 0.7609 0.0
C188 C 0.05233 0.0023 0.7186 0.0
H189 H 0.12999 0.07024 0.84504 0.0
H190 H 0.15508 0.07826 0.75353 0.0
S191 S 0.86588 0.88147 0.72753 0.0
N192 N 0.90346 0.9097 0.78885 0.0
N193 N 0.92978 0.91956 0.69159 0.0
C194 C 0.98596 0.9574 0.72945 0.0
C195 C 0.97134 0.95275 0.78217 0.0
C196 C 0.49017 0.50863 0.6969 0.0
C197 C 0.5722 0.50855 0.67564 0.0
C198 C 0.4809 0.50051 0.74911 0.0
C199 C 0.55325 0.49135 0.78091 0.0
H200 H 0.43356 0.51733 0.67388 0.0
H201 H 0.4174 0.50344 0.76514 0.0
S202 S 0.78022 0.48001 0.74337 0.0
N203 N 0.72628 0.49185 0.69042 0.0
N204 N 0.70725 0.47917 0.78767 0.0
C205 C 0.63437 0.48854 0.75974 0.0
C206 C 0.64422 0.49623 0.70723 0.0
C207 C 0.56223 0.55522 0.31833 0.0
C208 C 0.5063 0.50252 0.33044 0.0
C209 C 0.57746 0.55683 0.26558 0.0
C210 C 0.53862 0.50455 0.22371 0.0
H211 H 0.59176 0.59666 0.34961 0.0
H212 H 0.61986 0.59884 0.25754 0.0
S213 S 0.38468 0.35707 0.2349 0.0
N214 N 0.41081 0.39818 0.29641 0.0
N215 N 0.43951 0.40079 0.19797 0.0
C216 C 0.48277 0.45175 0.23558 0.0
C217 C 0.46667 0.45075 0.28878 0.0
loop_
_geom_bond_atom_site_label_1
_geom_bond_atom_site_label_2
_geom_bond_distance
_geom_bond_site_symmetry_2
_ccdc_geom_bond_type
O0 Mn1 2.163 1_654 S
O0 C14 1.244 1_554 S
Mn1 O0 2.163 1_456 S
Mn1 O4 2.160 1_545 S
Mn1 O5 2.221 1_556 S
Mn1 O7 2.163 1_556 S
Mn1 O9 2.160 . S
Mn1 O19 2.221 1_445 S
O2 Mn3 2.087 1_545 S
O2 C14 1.256 . S
Mn3 O2 2.087 1_565 S
Mn3 O10 2.089 1_565 S
Mn3 O19 2.290 . S
Mn3 O20 2.251 . S
O4 Mn1 2.160 1_565 S
O4 C15 1.239 1_556 S
O5 Mn1 2.221 1_554 S
O5 Mn6 2.290 . S
O5 C16 1.278 . S
Mn6 O5 2.290 . S
Mn6 O8 2.089 1_545 S
Mn6 O11 2.251 . S
Mn6 O12 2.087 . S
O7 Mn1 2.163 1_554 S
O7 C17 1.244 . S
O8 Mn6 2.089 1_565 S
O8 C15 1.256 . S
O9 Mn1 2.160 . S
O9 C18 1.239 . S
O10 Mn3 2.089 1_545 S
O10 C18 1.256 1_655 S
O11 Mn6 2.251 . S
O11 C16 1.241 . S
O12 Mn6 2.087 . S
O12 C17 1.256 . S
C13 O19 1.278 . S
C13 O20 1.241 . S
C14 O0 1.244 1_556 S
C14 O2 1.256 . S
C15 O4 1.239 1_554 S
C15 O8 1.256 . S
C16 O5 1.278 . S
C16 O11 1.241 . S
C17 O7 1.244 . S
C17 O12 1.256 . S
C18 O9 1.239 . S
C18 O10 1.256 1_455 S
O19 Mn1 2.221 1_665 S
O19 Mn3 2.290 . S
O19 C13 1.278 . S
O20 Mn3 2.251 . S
O20 C13 1.241 . S
O21 Mn22 2.163 . S
O21 C35 1.244 . S
Mn22 O21 2.163 . S
Mn22 O25 2.160 . S
Mn22 O26 2.221 . S
Mn22 O28 2.163 . S
Mn22 O30 2.160 . S
Mn22 O40 2.221 . S
O23 Mn24 2.087 . S
O23 C35 1.256 . S
Mn24 O23 2.087 . S
Mn24 O31 2.089 . S
Mn24 O40 2.290 . S
Mn24 O41 2.251 . S
O25 Mn22 2.160 . S
O25 C36 1.239 . S
O26 Mn22 2.221 . S
O26 Mn27 2.290 . S
O26 C37 1.278 . S
Mn27 O26 2.290 . S
Mn27 O29 2.089 . S
Mn27 O32 2.251 . S
Mn27 O33 2.087 . S
O28 Mn22 2.163 . S
O28 C38 1.244 . S
O29 Mn27 2.089 . S
O29 C36 1.256 . S
O30 Mn22 2.160 . S
O30 C39 1.239 . S
O31 Mn24 2.089 . S
O31 C39 1.256 . S
O32 Mn27 2.251 . S
O32 C37 1.241 . S
O33 Mn27 2.087 . S
O33 C38 1.256 . S
C34 O40 1.278 . S
C34 O41 1.241 . S
C35 O21 1.244 . S
C35 O23 1.256 . S
C36 O25 1.239 . S
C36 O29 1.256 . S
C37 O26 1.278 . S
C37 O32 1.241 . S
C38 O28 1.244 . S
C38 O33 1.256 . S
C39 O30 1.239 . S
C39 O31 1.256 . S
O40 Mn22 2.221 . S
O40 Mn24 2.290 . S
O40 C34 1.278 . S
O41 Mn24 2.251 . S
O41 C34 1.241 . S
O42 Cd43 2.300 . S
O42 C49 1.275 1_565 S
Cd43 O42 2.300 . S
Cd43 O51 2.381 . S
Cd43 O52 2.378 . S
O44 Cd45 2.385 . S
O44 C49 1.255 . S
Cd45 O44 2.385 . S
Cd45 O46 2.317 1_455 S
O46 Cd45 2.317 1_655 S
O46 C47 1.232 . S
C47 O46 1.232 . S
C47 O48 1.218 . S
O48 C47 1.218 . S
C49 O42 1.275 1_545 S
C49 O44 1.255 . S
C50 O51 1.258 . S
C50 O52 1.256 . S
O51 Cd43 2.381 . S
O51 C50 1.258 . S
O52 Cd43 2.378 . S
O52 C50 1.256 . S
O53 Cd54 2.300 . S
O53 C60 1.275 . S
Cd54 O53 2.300 . S
Cd54 O62 2.381 . S
Cd54 O63 2.378 . S
O55 Cd56 2.385 . S
O55 C60 1.255 1_565 S
Cd56 O55 2.385 . S
Cd56 O57 2.317 1_455 S
O57 Cd56 2.317 1_655 S
O57 C58 1.232 . S
C58 O57 1.232 . S
C58 O59 1.218 . S
O59 C58 1.218 . S
C60 O53 1.275 . S
C60 O55 1.255 1_545 S
C61 O62 1.258 . S
C61 O63 1.256 . S
O62 Cd54 2.381 . S
O62 C61 1.258 . S
O63 Cd54 2.378 . S
O63 C61 1.256 . S
O64 Cd65 2.300 . S
O64 C71 1.275 . S
Cd65 O64 2.300 . S
Cd65 O73 2.381 . S
Cd65 O74 2.378 1_556 S
O66 Cd67 2.385 . S
O66 C71 1.255 . S
Cd67 O66 2.385 . S
Cd67 O68 2.317 . S
O68 Cd67 2.317 . S
O68 C69 1.232 . S
C69 O68 1.232 . S
C69 O70 1.218 . S
O70 C69 1.218 . S
C71 O64 1.275 . S
C71 O66 1.255 . S
C72 O73 1.258 . S
C72 O74 1.256 1_556 S
O73 Cd65 2.381 . S
O73 C72 1.258 . S
O74 Cd65 2.378 1_554 S
O74 C72 1.256 1_554 S
O75 Cd76 2.300 . S
O75 C82 1.275 . S
Cd76 O75 2.300 . S
Cd76 O84 2.381 . S
Cd76 O85 2.378 . S
O77 Cd78 2.385 . S
O77 C82 1.255 . S
Cd78 O77 2.385 . S
Cd78 O79 2.317 . S
O79 Cd78 2.317 . S
O79 C80 1.232 . S
C80 O79 1.232 . S
C80 O81 1.218 . S
O81 C80 1.218 . S
C82 O75 1.275 . S
C82 O77 1.255 . S
C83 O84 1.258 . S
C83 O85 1.256 . S
O84 Cd76 2.381 . S
O84 C83 1.258 . S
O85 Cd76 2.378 . S
O85 C83 1.256 . S
C86 C87 1.369 . S
C86 C88 1.419 . S
C86 H90 0.930 . S
C87 C86 1.369 . S
C87 C96 1.429 . S
C88 C86 1.419 . S
C88 C89 1.363 . S
C88 H91 0.929 . S
C89 C88 1.363 . S
C89 C95 1.428 . S
H90 C86 0.930 . S
H91 C88 0.929 . S
S92 N93 1.613 . S
S92 N94 1.610 . S
N93 S92 1.613 . S
N93 C96 1.350 . S
N94 S92 1.610 . S
N94 C95 1.351 . S
C95 C89 1.428 . S
C95 N94 1.351 . S
C95 C96 1.434 . S
C96 C87 1.429 . S
C96 N93 1.350 . S
C96 C95 1.434 . S
C97 C98 1.369 1_554 S
C97 C99 1.419 . S
C97 H101 0.930 . S
C98 C97 1.369 1_556 S
C98 C107 1.429 . S
C99 C97 1.419 . S
C99 C100 1.363 1_554 S
C99 H102 0.929 . S
C100 C99 1.363 1_556 S
C100 C106 1.428 . S
H101 C97 0.930 . S
H102 C99 0.929 . S
S103 N104 1.613 . S
S103 N105 1.610 . S
N104 S103 1.613 . S
N104 C107 1.350 . S
N105 S103 1.610 . S
N105 C106 1.351 . S
C106 C100 1.428 . S
C106 N105 1.351 . S
C106 C107 1.434 . S
C107 C98 1.429 . S
C107 N104 1.350 . S
C107 C106 1.434 . S
C108 C109 1.369 . S
C108 C110 1.419 . S
C108 H112 0.930 . S
C109 C108 1.369 . S
C109 C118 1.429 . S
C110 C108 1.419 . S
C110 C111 1.363 . S
C110 H113 0.929 . S
C111 C110 1.363 . S
C111 C117 1.428 . S
H112 C108 0.930 . S
H113 C110 0.929 . S
S114 N115 1.613 . S
S114 N116 1.610 . S
N115 S114 1.613 . S
N115 C118 1.350 . S
N116 S114 1.610 . S
N116 C117 1.351 . S
C117 C111 1.428 . S
C117 N116 1.351 . S
C117 C118 1.434 . S
C118 C109 1.429 . S
C118 N115 1.350 . S
C118 C117 1.434 . S
C119 C120 1.369 1_554 S
C119 C121 1.419 . S
C119 H123 0.930 . S
C120 C119 1.369 1_556 S
C120 C129 1.429 . S
C121 C119 1.419 . S
C121 C122 1.363 1_554 S
C121 H124 0.929 . S
C122 C121 1.363 1_556 S
C122 C128 1.428 . S
H123 C119 0.930 . S
H124 C121 0.929 . S
S125 N126 1.613 . S
S125 N127 1.610 . S
N126 S125 1.613 . S
N126 C129 1.350 . S
N127 S125 1.610 . S
N127 C128 1.351 . S
C128 C122 1.428 . S
C128 N127 1.351 . S
C128 C129 1.434 . S
C129 C120 1.429 . S
C129 N126 1.350 . S
C129 C128 1.434 . S
C130 C131 1.369 . S
C130 C132 1.419 . S
C130 H134 0.930 . S
C131 C130 1.369 . S
C131 C140 1.429 . S
C132 C130 1.419 . S
C132 C133 1.363 . S
C132 H135 0.929 . S
C133 C132 1.363 . S
C133 C139 1.428 . S
H134 C130 0.930 . S
H135 C132 0.929 . S
S136 N137 1.613 . S
S136 N138 1.610 . S
N137 S136 1.613 . S
N137 C140 1.350 . S
N138 S136 1.610 . S
N138 C139 1.351 . S
C139 C133 1.428 . S
C139 N138 1.351 . S
C139 C140 1.434 . S
C140 C131 1.429 . S
C140 N137 1.350 . S
C140 C139 1.434 . S
C141 C142 1.369 . S
C141 C143 1.419 . S
C141 H145 0.930 . S
C142 C141 1.369 . S
C142 C151 1.429 . S
C143 C141 1.419 . S
C143 C144 1.363 . S
C143 H146 0.929 . S
C144 C143 1.363 . S
C144 C150 1.428 . S
H145 C141 0.930 . S
H146 C143 0.929 . S
S147 N148 1.613 . S
S147 N149 1.610 . S
N148 S147 1.613 . S
N148 C151 1.350 . S
N149 S147 1.610 . S
N149 C150 1.351 . S
C150 C144 1.428 . S
C150 N149 1.351 . S
C150 C151 1.434 . S
C151 C142 1.429 . S
C151 N148 1.350 . S
C151 C150 1.434 . S
C152 C153 1.369 . S
C152 C154 1.419 . S
C152 H156 0.930 . S
C153 C152 1.369 . S
C153 C162 1.429 . S
C154 C152 1.419 . S
C154 C155 1.363 . S
C154 H157 0.929 . S
C155 C154 1.363 . S
C155 C161 1.428 . S
H156 C152 0.930 . S
H157 C154 0.929 . S
S158 N159 1.613 . S
S158 N160 1.610 . S
N159 S158 1.613 . S
N159 C162 1.350 . S
N160 S158 1.610 . S
N160 C161 1.351 . S
C161 C155 1.428 . S
C161 N160 1.351 . S
C161 C162 1.434 . S
C162 C153 1.429 . S
C162 N159 1.350 . S
C162 C161 1.434 . S
C163 C164 1.369 . S
C163 C165 1.419 . S
C163 H167 0.930 . S
C164 C163 1.369 . S
C164 C173 1.429 . S
C165 C163 1.419 . S
C165 C166 1.363 . S
C165 H168 0.929 . S
C166 C165 1.363 . S
C166 C172 1.428 . S
H167 C163 0.930 . S
H168 C165 0.929 . S
S169 N170 1.613 . S
S169 N171 1.610 . S
N170 S169 1.613 . S
N170 C173 1.350 . S
N171 S169 1.610 . S
N171 C172 1.351 . S
C172 C166 1.428 . S
C172 N171 1.351 . S
C172 C173 1.434 . S
C173 C164 1.429 . S
C173 N170 1.350 . S
C173 C172 1.434 . S
C174 C175 1.369 . S
C174 C176 1.419 . S
C174 H178 0.930 . S
C175 C174 1.369 . S
C175 C184 1.429 1_545 S
C176 C174 1.419 . S
C176 C177 1.363 . S
C176 H179 0.929 . S
C177 C176 1.363 . S
C177 C183 1.428 1_545 S
H178 C174 0.930 . S
H179 C176 0.929 . S
S180 N181 1.613 . S
S180 N182 1.610 . S
N181 S180 1.613 . S
N181 C184 1.350 . S
N182 S180 1.610 . S
N182 C183 1.351 . S
C183 C177 1.428 1_565 S
C183 N182 1.351 . S
C183 C184 1.434 . S
C184 C175 1.429 1_565 S
C184 N181 1.350 . S
C184 C183 1.434 . S
C185 C186 1.369 . S
C185 C187 1.419 . S
C185 H189 0.930 . S
C186 C185 1.369 . S
C186 C195 1.429 1_445 S
C187 C185 1.419 . S
C187 C188 1.363 . S
C187 H190 0.929 . S
C188 C187 1.363 . S
C188 C194 1.428 1_445 S
H189 C185 0.930 . S
H190 C187 0.929 . S
S191 N192 1.613 . S
S191 N193 1.610 . S
N192 S191 1.613 . S
N192 C195 1.350 . S
N193 S191 1.610 . S
N193 C194 1.351 . S
C194 C188 1.428 1_665 S
C194 N193 1.351 . S
C194 C195 1.434 . S
C195 C186 1.429 1_665 S
C195 N192 1.350 . S
C195 C194 1.434 . S
C196 C197 1.369 . S
C196 C198 1.419 . S
C196 H200 0.930 . S
C197 C196 1.369 . S
C197 C206 1.429 . S
C198 C196 1.419 . S
C198 C199 1.363 . S
C198 H201 0.929 . S
C199 C198 1.363 . S
C199 C205 1.428 . S
H200 C196 0.930 . S
H201 C198 0.929 . S
S202 N203 1.613 . S
S202 N204 1.610 . S
N203 S202 1.613 . S
N203 C206 1.350 . S
N204 S202 1.610 . S
N204 C205 1.351 . S
C205 C199 1.428 . S
C205 N204 1.351 . S
C205 C206 1.434 . S
C206 C197 1.429 . S
C206 N203 1.350 . S
C206 C205 1.434 . S
C207 C208 1.369 . S
C207 C209 1.419 . S
C207 H211 0.930 . S
C208 C207 1.369 . S
C208 C217 1.429 . S
C209 C207 1.419 . S
C209 C210 1.363 . S
C209 H212 0.929 . S
C210 C209 1.363 . S
C210 C216 1.428 . S
H211 C207 0.930 . S
H212 C209 0.929 . S
S213 N214 1.613 . S
S213 N215 1.610 . S
N214 S213 1.613 . S
N214 C217 1.350 . S
N215 S213 1.610 . S
N215 C216 1.351 . S
C216 C210 1.428 . S
C216 N215 1.351 . S
C216 C217 1.434 . S
C217 C208 1.429 . S
C217 N214 1.350 . S
C217 C216 1.434 . S
C89 C80 1.210 . S
C87 C16 1.322 . S
C98 C15 1.489 1_556 S
C100 C69 1.267 . S
C109 C13 1.295 1_554 S
C111 C83 1.448 . S
C120 C14 1.403 . S
C122 C72 1.419 . S
C131 C37 1.321 . S
C133 C58 1.206 . S
C142 C36 1.490 . S
C144 C47 1.270 . S
C155 C61 1.453 . S
C153 C34 1.282 . S
C166 C50 1.422 . S
C164 C35 1.406 . S
C175 C17 1.520 . S
C177 C49 1.507 . S
C186 C18 1.385 . S
C188 C60 1.384 . S
C199 C71 1.503 . S
C197 C38 1.515 . S
C208 C39 1.386 . S
C210 C82 1.383 . S
