# Generated by pormake.
# Topology bcu-b, (8,8)-cn, num edge types: 1
# Building blocks:
#     Node 0, Type 0, BuildingBlock: TAGTUT_clean_sbu_3, # of connection points: 8
#     Node 1, Type 1, BuildingBlock: VETTIZ_charged_sbu_0, # of connection points: 8
#     Edge 2, Type (0, 1), None
#     Edge 3, Type (0, 1), None
#     Edge 4, Type (0, 1), None
#     Edge 5, Type (0, 1), None
#     Edge 6, Type (0, 1), None
#     Edge 7, Type (0, 1), None
#     Edge 8, Type (0, 1), None
#     Edge 9, Type (0, 1), None
# Relax obj value: 0.017
# Max RMSD: 0.083
# Mean RMSD: 0.077
data_MOF--net-bcu-b--node1-TAGTUT_clean_sbu_3--node2-VETTIZ_charged_sbu_0--edge1-none
_symmetry_space_group_name_H-M    P1
_symmetry_Int_Tables_number       1
_symmetry_cell_setting            triclinic
loop_
_symmetry_equiv_pos_as_xyz
'x, y, z'
_cell_length_a     10.17093
_cell_length_b     11.254532
_cell_length_c     9.5852768
_cell_angle_alpha  91.224956
_cell_angle_beta   91.077966
_cell_angle_gamma 103.06288
loop_
_atom_site_label
_atom_site_type_symbol
_atom_site_fract_x
_atom_site_fract_y
_atom_site_fract_z
_atom_type_partial_charge
C0 C 0.2582 0.13332 0.23759 0.0
C1 C 0.29033 0.65259 0.17265 0.0
C2 C 0.20594 0.7414 0.75158 0.0
Mg3 Mg 0.01272 0.22759 0.09649 0.0
Mg4 Mg 0.71331 0.03218 1.04397 0.0
O5 O 0.9011 0.07953 0.99744 0.0
Mg6 Mg 0.0163 -0.03495 0.04788 0.0
O7 O 0.1321 0.85463 0.10236 0.0
Mg8 Mg 0.30896 0.92861 1.01731 0.0
Mg9 Mg 0.04271 0.70615 1.01903 0.0
C10 C 0.75917 0.79802 0.86141 0.0
O11 O 0.87057 0.87774 0.21879 0.0
O12 O 0.86552 0.32182 0.96929 0.0
O13 O 0.85081 0.68892 0.13054 0.0
O14 O 0.88068 0.21577 0.27229 0.0
O15 O 0.6661 0.18515 0.93636 0.0
O16 O 0.68694 0.07932 0.27046 0.0
O17 O 0.18005 0.04644 0.88496 0.0
O18 O 0.15063 0.23432 0.92559 0.0
C19 C 0.20367 0.16016 0.85654 0.0
C20 C 0.74303 0.29094 0.91944 0.0
O21 O 0.88624 0.83077 0.88945 0.0
O22 O 0.36008 0.76362 0.15488 0.0
O23 O 0.67312 0.85181 0.91937 0.0
O24 O 0.29871 0.80666 0.82727 0.0
O25 O 0.1732 0.61169 0.11731 0.0
O26 O 0.08587 0.70756 0.79689 0.0
O27 O 0.13469 0.10474 0.1978 0.0
O28 O 0.34164 0.07083 0.19817 0.0
C29 C 0.77352 0.16654 0.33199 0.0
C30 C 0.81844 0.76325 0.22114 0.0
Fe31 Fe 0.5127 0.60493 0.52363 0.0
O32 O 0.38283 0.45808 0.59561 0.0
Fe33 Fe 0.81852 0.51631 0.55648 0.0
Fe34 Fe 0.19259 0.40959 0.52637 0.0
O35 O 0.62752 0.48347 0.498 0.0
O36 O 0.62694 0.46894 0.5 0.0
O37 O 0.38216 0.44293 0.59906 0.0
Fe38 Fe 0.49855 0.32177 0.57037 0.0
C39 C 0.24826 0.66653 0.64223 0.0
O40 O 0.43938 0.57404 0.32274 0.0
O41 O 0.2205 0.52783 0.3622 0.0
O42 O 0.63205 0.21203 0.51657 0.0
O43 O 0.81592 0.3563 0.44606 0.0
O44 O 0.83108 0.62418 0.38871 0.0
O45 O 0.66777 0.73467 0.4227 0.0
O46 O 0.20462 0.267 0.40077 0.0
O47 O 0.42188 0.27639 0.37148 0.0
C48 C 0.76816 0.70707 0.35376 0.0
O49 O 0.58075 0.35215 0.77145 0.0
O50 O 0.79993 0.41276 0.72908 0.0
O51 O 0.36337 0.70488 0.57812 0.0
O52 O 0.17956 0.55554 0.64355 0.0
C53 C 0.3201 0.57848 0.2893 0.0
C54 C 0.29872 0.23282 0.34 0.0
C55 C 0.23973 0.20572 0.71739 0.0
O56 O 0.17461 0.28763 0.68149 0.0
O57 O 0.34771 0.18711 0.65852 0.0
C58 C 0.74064 0.24582 0.44504 0.0
O59 O 0.8097 0.66908 0.6802 0.0
O60 O 0.59256 0.65547 0.72274 0.0
C61 C 0.70477 0.36448 0.80723 0.0
C62 C 0.7169 0.70013 0.75101 0.0
loop_
_geom_bond_atom_site_label_1
_geom_bond_atom_site_label_2
_geom_bond_distance
_geom_bond_site_symmetry_2
_ccdc_geom_bond_type
C0 O27 1.312 . S
C0 O28 1.208 . S
C1 O22 1.331 . S
C1 O25 1.244 . S
C2 O24 1.264 . S
C2 O26 1.273 . S
Mg3 O5 1.936 . S
Mg3 O12 2.081 . S
Mg3 O14 2.023 1_556 S
Mg3 O18 2.031 1_655 S
Mg3 O27 2.291 1_656 S
Mg4 O5 1.963 . S
Mg4 O15 1.942 . S
Mg4 O16 1.955 1_556 S
Mg4 O23 1.986 1_545 S
O5 Mg3 1.936 . S
O5 Mg4 1.963 . S
O5 Mg6 1.915 1_546 S
Mg6 O5 1.915 1_564 S
Mg6 O7 1.915 1_655 S
Mg6 O11 2.016 . S
Mg6 O17 2.110 1_664 S
Mg6 O21 2.016 1_554 S
Mg6 O27 2.110 1_665 S
O7 Mg6 1.915 1_455 S
O7 Mg8 1.936 . S
O7 Mg9 1.963 . S
Mg8 O7 1.936 . S
Mg8 O17 2.291 1_564 S
Mg8 O22 2.081 . S
Mg8 O24 2.023 1_554 S
Mg8 O28 2.031 1_565 S
Mg9 O7 1.963 . S
Mg9 O13 1.986 1_455 S
Mg9 O25 1.942 . S
Mg9 O26 1.955 1_554 S
C10 O21 1.191 . S
C10 O23 1.307 . S
O11 Mg6 2.016 . S
O11 C30 1.191 . S
O12 Mg3 2.081 . S
O12 C20 1.331 . S
O13 Mg9 1.986 1_655 S
O13 C30 1.307 . S
O14 Mg3 2.023 1_554 S
O14 C29 1.264 . S
O15 Mg4 1.942 . S
O15 C20 1.244 . S
O16 Mg4 1.955 1_554 S
O16 C29 1.273 . S
O17 Mg6 2.110 1_446 S
O17 Mg8 2.291 1_546 S
O17 C19 1.312 . S
O18 Mg3 2.031 1_455 S
O18 C19 1.208 . S
C19 O17 1.312 . S
C19 O18 1.208 . S
C20 O12 1.331 . S
C20 O15 1.244 . S
O21 Mg6 2.016 1_556 S
O21 C10 1.191 . S
O22 C1 1.331 . S
O22 Mg8 2.081 . S
O23 Mg4 1.986 1_565 S
O23 C10 1.307 . S
O24 C2 1.264 . S
O24 Mg8 2.023 1_556 S
O25 C1 1.244 . S
O25 Mg9 1.942 . S
O26 C2 1.273 . S
O26 Mg9 1.955 1_556 S
O27 C0 1.312 . S
O27 Mg3 2.291 1_454 S
O27 Mg6 2.110 1_445 S
O28 C0 1.208 . S
O28 Mg8 2.031 1_545 S
C29 O14 1.264 . S
C29 O16 1.273 . S
C30 O11 1.191 . S
C30 O13 1.307 . S
Fe31 O32 1.886 . S
Fe31 O35 1.715 . S
Fe31 O40 2.077 . S
Fe31 O45 1.935 . S
Fe31 O51 2.077 . S
Fe31 O60 1.935 . S
O32 Fe31 1.886 . S
O32 Fe34 1.715 . S
Fe33 O35 1.886 . S
Fe33 O36 1.715 . S
Fe33 O43 1.935 . S
Fe33 O44 2.077 . S
Fe33 O50 1.935 . S
Fe33 O59 2.077 . S
Fe34 O32 1.715 . S
Fe34 O37 1.886 . S
Fe34 O41 1.935 . S
Fe34 O46 2.077 . S
Fe34 O52 1.935 . S
Fe34 O56 2.077 . S
O35 Fe31 1.715 . S
O35 Fe33 1.886 . S
O36 Fe33 1.715 . S
O36 Fe38 1.886 . S
O37 Fe34 1.886 . S
O37 Fe38 1.715 . S
Fe38 O36 1.886 . S
Fe38 O37 1.715 . S
Fe38 O42 2.077 . S
Fe38 O47 1.935 . S
Fe38 O49 2.077 . S
Fe38 O57 1.935 . S
C39 O51 1.381 . S
C39 O52 1.421 . S
O40 Fe31 2.077 . S
O40 C53 1.381 . S
O41 Fe34 1.935 . S
O41 C53 1.421 . S
O42 Fe38 2.077 . S
O42 C58 1.381 . S
O43 Fe33 1.935 . S
O43 C58 1.421 . S
O44 Fe33 2.077 . S
O44 C48 1.381 . S
O45 Fe31 1.935 . S
O45 C48 1.421 . S
O46 Fe34 2.077 . S
O46 C54 1.381 . S
O47 Fe38 1.935 . S
O47 C54 1.421 . S
C48 O44 1.381 . S
C48 O45 1.421 . S
O49 Fe38 2.077 . S
O49 C61 1.381 . S
O50 Fe33 1.935 . S
O50 C61 1.421 . S
O51 Fe31 2.077 . S
O51 C39 1.381 . S
O52 Fe34 1.935 . S
O52 C39 1.421 . S
C53 O40 1.381 . S
C53 O41 1.421 . S
C54 O46 1.381 . S
C54 O47 1.421 . S
C55 O56 1.381 . S
C55 O57 1.421 . S
O56 Fe34 2.077 . S
O56 C55 1.381 . S
O57 Fe38 1.935 . S
O57 C55 1.421 . S
C58 O42 1.381 . S
C58 O43 1.421 . S
O59 Fe33 2.077 . S
O59 C62 1.381 . S
O60 Fe31 1.935 . S
O60 C62 1.421 . S
C61 O49 1.381 . S
C61 O50 1.421 . S
C62 O59 1.381 . S
C62 O60 1.421 . S
C0 C54 1.565 . S
C29 C58 1.547 . S
C30 C48 1.488 . S
C1 C53 1.524 . S
C2 C39 1.530 . S
C55 C19 1.572 . S
C20 C61 1.499 . S
C62 C10 1.472 . S
