# Generated by pormake.
# Topology scu, (8,4)-cn, num edge types: 1
# Building blocks:
#     Node 0, Type 0, BuildingBlock: TAGTUT_clean_sbu_3, # of connection points: 8
#     Node 1, Type 1, BuildingBlock: NAWXER_clean_sbu_0, # of connection points: 4
#     Node 2, Type 1, BuildingBlock: NAWXER_clean_sbu_0, # of connection points: 4
#     Edge 3, Type (0, 1), BuildingBlock: FUNLAD_clean_linker_0, # of connection points: 2
#     Edge 4, Type (0, 1), BuildingBlock: FUNLAD_clean_linker_0, # of connection points: 2
#     Edge 5, Type (0, 1), BuildingBlock: FUNLAD_clean_linker_0, # of connection points: 2
#     Edge 6, Type (0, 1), BuildingBlock: FUNLAD_clean_linker_0, # of connection points: 2
#     Edge 7, Type (0, 1), BuildingBlock: FUNLAD_clean_linker_0, # of connection points: 2
#     Edge 8, Type (0, 1), BuildingBlock: FUNLAD_clean_linker_0, # of connection points: 2
#     Edge 9, Type (0, 1), BuildingBlock: FUNLAD_clean_linker_0, # of connection points: 2
#     Edge 10, Type (0, 1), BuildingBlock: FUNLAD_clean_linker_0, # of connection points: 2
# Relax obj value: 0.034
# Max RMSD: 0.100
# Mean RMSD: 0.063
data_MOF--net-scu--node1-TAGTUT_clean_sbu_3--node2-NAWXER_clean_sbu_0--edge1-FUNLAD_clean_linker_0
_symmetry_space_group_name_H-M    P1
_symmetry_Int_Tables_number       1
_symmetry_cell_setting            triclinic
loop_
_symmetry_equiv_pos_as_xyz
'x, y, z'
_cell_length_a     30.637493
_cell_length_b     26.318015
_cell_length_c     23.426474
_cell_angle_alpha  89.211469
_cell_angle_beta   91.630083
_cell_angle_gamma 90.29344
loop_
_atom_site_label
_atom_site_type_symbol
_atom_site_fract_x
_atom_site_fract_y
_atom_site_fract_z
_atom_type_partial_charge
C0 C 1.00589 0.90153 0.06153 0.0
C1 C 0.84555 0.99291 0.04832 0.0
C2 C 0.88648 0.0298 0.88247 0.0
Mg3 Mg 0.0944 0.94413 -0.00261 0.0
Mg4 Mg 0.10203 0.06806 0.97475 0.0
O5 O 0.07061 0.00739 0.96006 0.0
Mg6 Mg 1.01031 0.00628 0.98832 0.0
O7 O 0.94969 0.00342 0.01648 0.0
Mg8 Mg 0.92785 0.94175 0.97518 0.0
Mg9 Mg 0.91793 0.06363 -0.0002 0.0
C10 C 0.01606 0.11326 0.91533 0.0
O11 O 0.02377 0.06937 0.05325 0.0
O12 O 0.15563 0.96033 0.93917 0.0
O13 O 0.96283 0.11672 0.04327 0.0
O14 O 0.12892 0.98543 0.0703 0.0
O15 O 0.15503 0.04539 0.92486 0.0
O16 O 0.12766 0.06963 0.06239 0.0
O17 O 0.9927 0.94318 0.92554 0.0
O18 O 0.05661 0.90216 0.92831 0.0
C19 C 0.01676 0.90606 0.91088 0.0
C20 C 0.17115 0.00143 0.91631 0.0
O21 O 0.99535 0.07166 0.92526 0.0
O22 O 0.86449 0.95274 0.02986 0.0
O23 O 0.05478 0.12192 0.93588 0.0
O24 O 0.89419 0.9855 0.90261 0.0
O25 O 0.86091 0.03784 0.04124 0.0
O26 O 0.89715 0.06943 0.91052 0.0
O27 O 0.02956 0.94026 0.04856 0.0
O28 O 0.96603 0.89746 0.04381 0.0
C29 C 0.13796 0.02912 0.09017 0.0
C30 C 1.00164 0.10927 0.06418 0.0
C31 C 0.03748 0.56117 0.5747 0.0
C32 C 0.04383 0.41723 0.44476 0.0
O33 O 0.07139 0.53438 0.56719 0.0
Zn34 Zn 0.04442 0.48956 0.51061 0.0
O35 O 1.00171 0.55083 0.54763 0.0
Zn36 Zn 0.97557 0.49886 0.48685 0.0
O37 O 0.93164 0.46316 0.53135 0.0
O38 O 0.99949 0.45054 0.56341 0.0
O39 O 1.00646 0.43824 0.44753 0.0
O40 O 0.07629 0.43514 0.47313 0.0
O41 O 0.03141 0.54288 0.44379 0.0
O42 O 0.96064 0.54461 0.42302 0.0
C43 C 0.95836 0.4433 0.56773 0.0
C44 C 0.99912 0.561 0.41443 0.0
C45 C 0.57187 0.96063 0.5639 0.0
C46 C 0.44692 0.96309 0.42604 0.0
O47 O 0.55232 0.92058 0.54628 0.0
Zn48 Zn 0.50966 0.95571 0.49536 0.0
O49 O 0.5597 0.00427 0.54495 0.0
Zn50 Zn 0.51386 0.0393 0.4881 0.0
O51 O 0.47979 0.07911 0.54147 0.0
O52 O 0.47406 -0.00388 0.55534 0.0
O53 O 0.46408 0.00613 0.43794 0.0
O54 O 0.46256 0.92288 0.44949 0.0
O55 O 0.55258 0.98377 0.43382 0.0
O56 O 0.55259 0.06772 0.42986 0.0
C57 C 0.46474 0.0414 0.56967 0.0
C58 C 0.567 0.02538 0.41262 0.0
C59 C 1.00106 0.19456 0.1104 0.0
C60 C 0.02067 0.14685 0.1045 0.0
C61 C 0.01639 0.22807 0.15218 0.0
C62 C 0.05169 0.21464 0.18895 0.0
C63 C 0.07285 0.16829 0.18116 0.0
C64 C 0.05714 0.13442 0.13981 0.0
C65 C 0.06458 0.24712 0.23793 0.0
C66 C 0.03375 0.26735 0.27028 0.0
C67 C 0.04204 0.2998 0.32074 0.0
C68 C 1.00789 0.30507 0.35869 0.0
C69 C 1.01039 0.34092 0.40164 0.0
C70 C 0.04714 0.37262 0.40781 0.0
H71 H 0.10714 0.32636 0.3002 0.0
C72 C 0.08289 0.36528 0.37266 0.0
C73 C 0.08033 0.3291 0.32906 0.0
H74 H 0.11141 0.38963 0.37635 0.0
H75 H 0.97325 0.20564 0.08361 0.0
H76 H 1.00005 0.26418 0.15646 0.0
H77 H 0.1001 0.15715 0.20898 0.0
H78 H 0.07245 0.09762 0.13732 0.0
H79 H 0.09893 0.25084 0.24987 0.0
H80 H 0.99972 0.25846 0.26 0.0
H81 H 0.97821 0.28279 0.35363 0.0
H82 H 0.9825 0.34547 0.42853 0.0
C83 C 0.79798 0.95294 0.12235 0.0
C84 C 0.80427 0.98937 0.07909 0.0
C85 C 0.76261 0.95729 0.15871 0.0
C86 C 0.73296 -0.00202 0.15186 0.0
C87 C 0.73762 0.03181 0.10577 0.0
C88 C 0.77308 0.02789 0.07017 0.0
C89 C 0.69766 0.00757 0.19256 0.0
C90 C 0.70133 0.9953 0.24839 0.0
C91 C 0.66708 0.00603 0.29009 0.0
C92 C 0.66333 0.97292 0.33694 0.0
C93 C 0.63125 0.98037 0.3768 0.0
C94 C 0.60256 0.02182 0.3716 0.0
H95 H 0.64209 0.07566 0.25052 0.0
C96 C 0.60726 0.05652 0.32615 0.0
C97 C 0.63916 0.0485 0.28531 0.0
H98 H 0.58565 0.08884 0.32134 0.0
H99 H 0.82157 0.92292 0.13002 0.0
H100 H 0.75908 0.92936 0.19262 0.0
H101 H 0.71495 0.06292 0.09891 0.0
H102 H 0.77699 0.05626 0.03671 0.0
H103 H 0.66895 0.02785 0.17653 0.0
H104 H 0.73015 0.97525 0.26446 0.0
H105 H 0.68473 0.94042 0.34212 0.0
H106 H 0.62881 0.95328 0.41185 0.0
C107 C 0.04407 0.86371 0.14778 0.0
C108 C 0.02387 0.85787 0.09385 0.0
C109 C 0.04949 0.82139 0.18436 0.0
C110 C 0.03482 0.77282 0.16701 0.0
C111 C 0.01876 0.76693 0.11085 0.0
C112 C 0.01305 0.80897 0.07484 0.0
C113 C 0.03182 0.72807 0.20628 0.0
C114 C 0.03554 0.73032 0.26349 0.0
C115 C 0.02594 0.68583 0.30052 0.0
C116 C 0.0522 0.67696 0.34941 0.0
C117 C 0.04348 0.63592 0.38565 0.0
C118 C 1.00749 0.60371 0.37466 0.0
H119 H 0.96835 0.66058 0.25249 0.0
C120 C 0.98042 0.61322 0.32645 0.0
C121 C 0.98982 0.65374 0.28928 0.0
H122 H 0.9524 0.58914 0.31722 0.0
H123 H 0.05269 0.90119 0.16314 0.0
H124 H 0.06348 0.82756 0.22656 0.0
H125 H 1.0079 0.73008 0.0958 0.0
H126 H 0.99767 0.80361 0.0331 0.0
H127 H 0.02293 0.69183 0.1873 0.0
H128 H 0.04574 0.76504 0.28445 0.0
H129 H 0.0798 0.70154 0.35929 0.0
H130 H 0.06463 0.62993 0.42298 0.0
C131 C 0.16911 0.98668 0.17793 0.0
C132 C 0.16514 0.03078 0.14348 0.0
C133 C 0.20142 0.98304 0.22098 0.0
C134 C 0.23074 0.02344 0.23054 0.0
C135 C 0.22437 0.06912 0.19948 0.0
C136 C 0.19192 0.07279 0.15622 0.0
C137 C 0.26912 0.01883 0.27075 0.0
C138 C 0.28848 0.97413 0.2851 0.0
C139 C 0.32992 0.97056 0.3198 0.0
C140 C 0.33989 0.92568 0.35087 0.0
C141 C 0.37863 0.92183 0.38424 0.0
C142 C 0.40814 0.96281 0.38669 0.0
H143 H 0.35542 0.04464 0.29506 0.0
C144 C 0.3989 0.00666 0.35354 0.0
C145 C 0.36055 0.01044 0.32044 0.0
H146 H 0.42127 0.03868 0.35343 0.0
H147 H 0.14833 0.95393 0.17009 0.0
H148 H 0.20374 0.94809 0.24569 0.0
H149 H 0.24599 0.10124 0.2067 0.0
H150 H 0.18958 0.10735 0.13068 0.0
H151 H 0.28329 0.05409 0.28624 0.0
H152 H 0.27431 0.93866 0.27027 0.0
H153 H 0.31726 0.89392 0.35024 0.0
H154 H 0.38483 0.88755 0.40919 0.0
C155 C 0.01356 0.81518 0.88771 0.0
C156 C 0.9996 0.86487 0.87501 0.0
C157 C 1.00829 0.7771 0.84757 0.0
C158 C 0.98945 0.78819 0.79357 0.0
C159 C 0.97135 0.83655 0.783 0.0
C160 C 0.97649 0.87494 0.82361 0.0
C161 C 0.99067 0.75063 0.74717 0.0
C162 C 0.02542 0.71984 0.74131 0.0
C163 C 0.02952 0.68138 0.69589 0.0
C164 C 0.0638 0.64594 0.70055 0.0
C165 C 0.06782 0.60762 0.66016 0.0
C166 C 0.03745 0.60408 0.61452 0.0
H167 H 0.97443 0.70608 0.64168 0.0
C168 C 1.00429 0.64068 0.60862 0.0
C169 C 1.00043 0.67896 0.64853 0.0
H170 H 0.98078 0.6395 0.57321 0.0
H171 H 0.03078 0.80641 0.92767 0.0
H172 H 0.02064 0.73953 0.85807 0.0
H173 H 0.95583 0.84555 0.742 0.0
H174 H 0.96543 0.91306 0.81312 0.0
H175 H 0.96347 0.75051 0.71664 0.0
H176 H 0.05269 0.72268 0.77183 0.0
H177 H 0.08704 0.6472 0.73625 0.0
H178 H 0.0937 0.57995 0.66571 0.0
C179 C 0.21504 0.04165 0.84005 0.0
C180 C 0.20814 -0.00017 0.8769 0.0
C181 C 0.25046 0.04323 0.80421 0.0
C182 C 0.28057 0.0032 0.80451 0.0
C183 C 0.27308 0.9605 0.83993 0.0
C184 C 0.23717 0.95877 0.87589 0.0
C185 C 0.31884 0.00409 0.76669 0.0
C186 C 0.33628 0.04731 0.74485 0.0
C187 C 0.37242 0.04793 0.70372 0.0
C188 C 0.37667 0.08946 0.66564 0.0
C189 C 0.40819 0.08921 0.62333 0.0
C190 C 0.43593 0.04734 0.61866 0.0
H191 H 0.40164 0.97627 0.73127 0.0
C192 C 0.4334 0.00743 0.65903 0.0
C193 C 0.40227 0.00779 0.70119 0.0
H194 H 0.45506 0.97509 0.65736 0.0
H195 H 0.19279 0.07354 0.83849 0.0
H196 H 0.25347 0.07572 0.77583 0.0
H197 H 0.29536 0.92866 0.84028 0.0
H198 H 0.23263 0.92593 0.90349 0.0
H199 H 0.33247 0.96754 0.75618 0.0
H200 H 0.32275 0.08388 0.75542 0.0
H201 H 0.35452 0.12132 0.66728 0.0
H202 H 0.40949 0.1205 0.5929 0.0
C203 C 1.00731 0.20297 0.87961 0.0
C204 C 0.99521 0.15154 0.8767 0.0
C205 C 0.98931 0.23848 0.84083 0.0
C206 C 0.95888 0.2232 0.79808 0.0
C207 C 0.94664 0.17183 0.79551 0.0
C208 C 0.96439 0.13643 0.83457 0.0
C209 C 0.9433 0.25871 0.75203 0.0
C210 C 0.94034 0.30925 0.75927 0.0
C211 C 0.93622 0.34632 0.71097 0.0
C212 C 0.95553 0.39432 0.71813 0.0
C213 C 0.95977 0.4274 0.67166 0.0
C214 C 0.94369 0.4138 0.61733 0.0
H215 H 0.90098 0.29801 0.65051 0.0
C216 C 0.92092 0.36782 0.61068 0.0
C217 C 0.91728 0.33408 0.65724 0.0
H218 H 0.90856 0.35656 0.56893 0.0
H219 H 0.03117 0.21568 0.91139 0.0
H220 H 1.00077 0.27737 0.84309 0.0
H221 H 0.92389 0.15885 0.76252 0.0
H222 H 0.95518 0.09687 0.83032 0.0
H223 H 0.93687 0.24264 0.71019 0.0
H224 H 0.9464 0.32464 0.80157 0.0
H225 H 0.97003 0.40498 0.759 0.0
H226 H 0.97761 0.46271 0.67758 0.0
C227 C 0.85582 0.99017 0.79413 0.0
C228 C 0.85936 0.03303 0.82929 0.0
C229 C 0.82217 0.98627 0.75304 0.0
C230 C 0.7912 0.02519 0.74625 0.0
C231 C 0.79738 0.07022 0.77723 0.0
C232 C 0.83115 0.07413 0.8186 0.0
C233 C 0.75115 0.01919 0.70956 0.0
C234 C 0.73193 0.97373 0.69899 0.0
C235 C 0.68916 0.96855 0.66781 0.0
C236 C 0.67899 0.92364 0.63812 0.0
C237 C 0.63956 0.91908 0.60644 0.0
C238 C 0.60973 0.95939 0.60441 0.0
H239 H 0.66322 0.04131 0.69319 0.0
C240 C 0.61883 0.00282 0.63705 0.0
C241 C 0.65784 0.00729 0.66852 0.0
H242 H 0.59605 0.03418 0.63727 0.0
H243 H 0.87771 0.95824 0.80049 0.0
H244 H 0.81985 0.95205 0.72803 0.0
H245 H 0.77447 0.10127 0.77193 0.0
H246 H 0.83314 0.1077 0.84482 0.0
H247 H 0.73561 0.05387 0.69397 0.0
H248 H 0.74744 0.9389 0.71412 0.0
H249 H 0.70219 0.89272 0.63791 0.0
H250 H 0.6334 0.88524 0.58163 0.0
loop_
_geom_bond_atom_site_label_1
_geom_bond_atom_site_label_2
_geom_bond_distance
_geom_bond_site_symmetry_2
_ccdc_geom_bond_type
C0 O27 1.312 1_655 S
C0 O28 1.208 . S
C1 O22 1.331 . S
C1 O25 1.244 1_565 S
C2 O24 1.264 1_545 S
C2 O26 1.273 . S
Mg3 O5 1.936 1_565 S
Mg3 O12 2.081 . S
Mg3 O14 2.023 1_556 S
Mg3 O18 2.031 . S
Mg3 O27 2.291 1_556 S
Mg4 O5 1.963 . S
Mg4 O15 1.942 . S
Mg4 O16 1.955 1_556 S
Mg4 O23 1.986 . S
O5 Mg3 1.936 1_545 S
O5 Mg4 1.963 . S
O5 Mg6 1.915 1_556 S
Mg6 O5 1.915 1_554 S
Mg6 O7 1.915 1_455 S
Mg6 O11 2.013 . S
Mg6 O17 2.114 1_444 S
Mg6 O21 2.013 1_454 S
Mg6 O27 2.114 1_545 S
O7 Mg6 1.915 1_655 S
O7 Mg8 1.936 1_545 S
O7 Mg9 1.963 . S
Mg8 O7 1.936 1_565 S
Mg8 O17 2.291 1_554 S
Mg8 O22 2.081 . S
Mg8 O24 2.023 1_554 S
Mg8 O28 2.031 . S
Mg9 O7 1.963 . S
Mg9 O13 1.986 . S
Mg9 O25 1.942 . S
Mg9 O26 1.955 1_554 S
C10 O21 1.191 1_455 S
C10 O23 1.307 . S
O11 Mg6 2.013 . S
O11 C30 1.191 1_455 S
O12 Mg3 2.081 . S
O12 C20 1.331 . S
O13 Mg9 1.986 . S
O13 C30 1.307 . S
O14 Mg3 2.023 1_554 S
O14 C29 1.264 1_565 S
O15 Mg4 1.942 . S
O15 C20 1.244 1_545 S
O16 Mg4 1.955 1_554 S
O16 C29 1.273 . S
O17 Mg6 2.114 1_666 S
O17 Mg8 2.291 1_556 S
O17 C19 1.312 1_655 S
O18 Mg3 2.031 . S
O18 C19 1.208 . S
C19 O17 1.312 1_455 S
C19 O18 1.208 . S
C20 O12 1.331 . S
C20 O15 1.244 1_565 S
O21 Mg6 2.013 1_656 S
O21 C10 1.191 1_655 S
O22 C1 1.331 . S
O22 Mg8 2.081 . S
O23 Mg4 1.986 . S
O23 C10 1.307 . S
O24 C2 1.264 1_565 S
O24 Mg8 2.023 1_556 S
O25 C1 1.244 1_545 S
O25 Mg9 1.942 . S
O26 C2 1.273 . S
O26 Mg9 1.955 1_556 S
O27 C0 1.312 1_455 S
O27 Mg3 2.291 1_554 S
O27 Mg6 2.114 1_565 S
O28 C0 1.208 . S
O28 Mg8 2.031 . S
C29 O14 1.264 1_545 S
C29 O16 1.273 . S
C30 O11 1.191 1_655 S
C30 O13 1.307 . S
C31 O33 1.251 . S
C31 O35 1.254 1_455 S
C32 O39 1.245 . S
C32 O40 1.259 1_655 S
O33 C31 1.251 . S
O33 Zn34 2.028 . S
Zn34 O33 2.028 . S
Zn34 O38 2.035 . S
Zn34 O40 2.035 . S
Zn34 O41 2.028 . S
O35 C31 1.254 1_655 S
O35 Zn36 2.035 . S
Zn36 O35 2.035 . S
Zn36 O37 2.028 . S
Zn36 O39 2.028 . S
Zn36 O42 2.035 . S
O37 Zn36 2.028 . S
O37 C43 1.245 . S
O38 Zn34 2.035 . S
O38 C43 1.259 1_455 S
O39 C32 1.245 . S
O39 Zn36 2.028 . S
O40 C32 1.259 1_455 S
O40 Zn34 2.035 . S
O41 Zn34 2.028 . S
O41 C44 1.251 . S
O42 Zn36 2.035 . S
O42 C44 1.254 1_655 S
C43 O37 1.245 . S
C43 O38 1.259 1_655 S
C44 O41 1.251 . S
C44 O42 1.254 1_455 S
C45 O47 1.247 1_545 S
C45 O49 1.258 . S
C46 O53 1.247 . S
C46 O54 1.258 1_545 S
O47 C45 1.247 1_565 S
O47 Zn48 2.028 . S
Zn48 O47 2.028 . S
Zn48 O52 2.035 . S
Zn48 O54 2.035 . S
Zn48 O55 2.028 . S
O49 C45 1.258 . S
O49 Zn50 2.035 . S
Zn50 O49 2.035 . S
Zn50 O51 2.028 . S
Zn50 O53 2.028 . S
Zn50 O56 2.035 . S
O51 Zn50 2.028 . S
O51 C57 1.247 . S
O52 Zn48 2.035 . S
O52 C57 1.258 1_565 S
O53 C46 1.247 . S
O53 Zn50 2.028 . S
O54 C46 1.258 1_565 S
O54 Zn48 2.035 . S
O55 Zn48 2.028 . S
O55 C58 1.247 1_565 S
O56 Zn50 2.035 . S
O56 C58 1.258 . S
C57 O51 1.247 . S
C57 O52 1.258 1_545 S
C58 O55 1.247 1_545 S
C58 O56 1.258 . S
C59 C60 1.386 1_655 S
C59 C61 1.383 . S
C59 H75 0.951 . S
C60 C59 1.386 1_455 S
C60 C64 1.383 . S
C61 C59 1.383 . S
C61 C62 1.402 1_655 S
C61 H76 0.951 . S
C62 C61 1.402 1_455 S
C62 C63 1.375 . S
C62 C65 1.481 . S
C63 C62 1.375 . S
C63 C64 1.367 . S
C63 H77 0.951 . S
C64 C60 1.383 . S
C64 C63 1.367 . S
C64 H78 0.950 . S
C65 C62 1.481 . S
C65 C66 1.297 1_455 S
C65 H79 0.950 . S
C66 C65 1.297 1_655 S
C66 C67 1.479 . S
C66 H80 0.950 . S
C67 C66 1.479 . S
C67 C68 1.375 . S
C67 C73 1.404 1_655 S
C68 C67 1.375 . S
C68 C69 1.369 . S
C68 H81 0.950 . S
C69 C68 1.369 . S
C69 C70 1.392 . S
C69 H82 0.951 . S
C70 C69 1.392 . S
C70 C72 1.384 1_655 S
H71 C73 0.949 . S
C72 C70 1.384 1_455 S
C72 C73 1.385 . S
C72 H74 0.950 . S
C73 C67 1.404 1_455 S
C73 H71 0.949 . S
C73 C72 1.385 . S
H74 C72 0.950 . S
H75 C59 0.951 . S
H76 C61 0.951 . S
H77 C63 0.951 . S
H78 C64 0.950 . S
H79 C65 0.950 . S
H80 C66 0.950 . S
H81 C68 0.950 . S
H82 C69 0.951 . S
C83 C84 1.386 . S
C83 C85 1.383 . S
C83 H99 0.951 . S
C84 C83 1.386 . S
C84 C88 1.383 1_565 S
C85 C83 1.383 . S
C85 C86 1.402 1_565 S
C85 H100 0.951 . S
C86 C85 1.402 1_545 S
C86 C87 1.375 . S
C86 C89 1.481 . S
C87 C86 1.375 . S
C87 C88 1.367 . S
C87 H101 0.951 . S
C88 C84 1.383 1_545 S
C88 C87 1.367 . S
C88 H102 0.950 . S
C89 C86 1.481 . S
C89 C90 1.297 1_545 S
C89 H103 0.950 . S
C90 C89 1.297 1_565 S
C90 C91 1.479 . S
C90 H104 0.950 . S
C91 C90 1.479 . S
C91 C92 1.375 . S
C91 C97 1.404 1_565 S
C92 C91 1.375 . S
C92 C93 1.369 . S
C92 H105 0.950 . S
C93 C92 1.369 . S
C93 C94 1.392 1_565 S
C93 H106 0.951 . S
C94 C93 1.392 1_545 S
C94 C96 1.384 . S
H95 C97 0.949 . S
C96 C94 1.384 . S
C96 C97 1.385 . S
C96 H98 0.950 . S
C97 C91 1.404 1_545 S
C97 H95 0.949 . S
C97 C96 1.385 . S
H98 C96 0.950 . S
H99 C83 0.951 . S
H100 C85 0.951 . S
H101 C87 0.951 . S
H102 C88 0.950 . S
H103 C89 0.950 . S
H104 C90 0.950 . S
H105 C92 0.950 . S
H106 C93 0.951 . S
C107 C108 1.375 1_455 S
C107 C109 1.383 . S
C107 H123 0.951 . S
C108 C107 1.375 1_655 S
C108 C112 1.397 . S
C109 C107 1.383 . S
C109 C110 1.402 1_455 S
C109 H124 0.951 . S
C110 C109 1.402 1_655 S
C110 C111 1.375 . S
C110 C113 1.481 . S
C111 C110 1.375 . S
C111 C112 1.367 . S
C111 H125 0.951 . S
C112 C108 1.397 . S
C112 C111 1.367 . S
C112 H126 0.950 . S
C113 C110 1.481 . S
C113 C114 1.297 . S
C113 H127 0.950 . S
C114 C113 1.297 . S
C114 C115 1.479 . S
C114 H128 0.950 1_655 S
C115 C114 1.479 . S
C115 C116 1.375 1_655 S
C115 C121 1.404 . S
C116 C115 1.375 1_455 S
C116 C117 1.369 . S
C116 H129 0.950 . S
C117 C116 1.369 . S
C117 C118 1.392 1_455 S
C117 H130 0.951 . S
C118 C117 1.392 1_655 S
C118 C120 1.384 . S
H119 C121 0.949 . S
C120 C118 1.384 . S
C120 C121 1.385 . S
C120 H122 0.950 . S
C121 C115 1.404 . S
C121 H119 0.949 . S
C121 C120 1.385 . S
H122 C120 0.950 . S
H123 C107 0.951 . S
H124 C109 0.951 . S
H125 C111 0.951 . S
H126 C112 0.950 . S
H127 C113 0.950 . S
H128 C114 0.950 1_455 S
H129 C116 0.950 . S
H130 C117 0.951 . S
C131 C132 1.386 . S
C131 C133 1.383 . S
C131 H147 0.951 . S
C132 C131 1.386 . S
C132 C136 1.383 . S
C133 C131 1.383 . S
C133 C134 1.402 . S
C133 H148 0.950 1_545 S
C134 C133 1.402 . S
C134 C135 1.375 . S
C134 C137 1.481 1_545 S
C135 C134 1.375 . S
C135 C136 1.367 . S
C135 H149 0.951 . S
C136 C132 1.383 . S
C136 C135 1.367 . S
C136 H150 0.950 . S
C137 C134 1.481 1_565 S
C137 C138 1.297 . S
C137 H151 0.950 1_565 S
C138 C137 1.297 . S
C138 C139 1.479 . S
C138 H152 0.950 . S
C139 C138 1.479 . S
C139 C140 1.375 . S
C139 C145 1.404 . S
C140 C139 1.375 . S
C140 C141 1.369 . S
C140 H153 0.950 . S
C141 C140 1.369 . S
C141 C142 1.392 . S
C141 H154 0.951 . S
C142 C141 1.392 . S
C142 C144 1.384 . S
H143 C145 0.949 . S
C144 C142 1.384 . S
C144 C145 1.385 . S
C144 H146 0.950 . S
C145 C139 1.404 . S
C145 H143 0.949 . S
C145 C144 1.385 . S
H146 C144 0.950 . S
H147 C131 0.951 . S
H148 C133 0.950 1_565 S
H149 C135 0.951 . S
H150 C136 0.950 . S
H151 C137 0.950 1_545 S
H152 C138 0.950 . S
H153 C140 0.950 . S
H154 C141 0.951 . S
C155 C156 1.386 . S
C155 C157 1.383 . S
C155 H171 0.951 . S
C156 C155 1.386 . S
C156 C160 1.383 . S
C157 C155 1.383 . S
C157 C158 1.402 . S
C157 H172 0.951 . S
C158 C157 1.402 . S
C158 C159 1.375 . S
C158 C161 1.481 . S
C159 C158 1.375 . S
C159 C160 1.367 . S
C159 H173 0.951 . S
C160 C156 1.383 . S
C160 C159 1.367 . S
C160 H174 0.950 . S
C161 C158 1.481 . S
C161 C162 1.297 . S
C161 H175 0.950 . S
C162 C161 1.297 . S
C162 C163 1.479 . S
C162 H176 0.950 . S
C163 C162 1.479 . S
C163 C164 1.375 . S
C163 C169 1.404 . S
C164 C163 1.375 . S
C164 C165 1.369 . S
C164 H177 0.950 . S
C165 C164 1.369 . S
C165 C166 1.392 . S
C165 H178 0.949 1_655 S
C166 C165 1.392 . S
C166 C168 1.384 . S
H167 C169 0.949 . S
C168 C166 1.384 . S
C168 C169 1.385 . S
C168 H170 0.950 . S
C169 C163 1.404 . S
C169 H167 0.949 . S
C169 C168 1.385 . S
H170 C168 0.950 . S
H171 C155 0.951 . S
H172 C157 0.951 . S
H173 C159 0.951 . S
H174 C160 0.950 . S
H175 C161 0.950 . S
H176 C162 0.950 . S
H177 C164 0.950 . S
H178 C165 0.949 1_455 S
C179 C180 1.386 . S
C179 C181 1.383 . S
C179 H195 0.951 . S
C180 C179 1.386 . S
C180 C184 1.383 1_565 S
C181 C179 1.383 . S
C181 C182 1.402 1_565 S
C181 H196 0.951 . S
C182 C181 1.402 1_545 S
C182 C183 1.375 . S
C182 C185 1.481 . S
C183 C182 1.375 . S
C183 C184 1.367 . S
C183 H197 0.951 . S
C184 C180 1.383 1_545 S
C184 C183 1.367 . S
C184 H198 0.950 . S
C185 C182 1.481 . S
C185 C186 1.297 1_545 S
C185 H199 0.950 . S
C186 C185 1.297 1_565 S
C186 C187 1.479 . S
C186 H200 0.950 . S
C187 C186 1.479 . S
C187 C188 1.374 . S
C187 C193 1.406 1_565 S
C188 C187 1.374 . S
C188 C189 1.369 . S
C188 H201 0.950 . S
C189 C188 1.369 . S
C189 C190 1.392 1_565 S
C189 H202 0.951 . S
C190 C189 1.392 1_545 S
C190 C192 1.384 . S
H191 C193 0.949 . S
C192 C190 1.384 . S
C192 C193 1.385 . S
C192 H194 0.950 . S
C193 C187 1.406 1_545 S
C193 H191 0.949 . S
C193 C192 1.385 . S
H194 C192 0.950 . S
H195 C179 0.951 . S
H196 C181 0.951 . S
H197 C183 0.951 . S
H198 C184 0.950 . S
H199 C185 0.950 . S
H200 C186 0.950 . S
H201 C188 0.950 . S
H202 C189 0.951 . S
C203 C204 1.386 . S
C203 C205 1.383 . S
C203 H219 0.951 . S
C204 C203 1.386 . S
C204 C208 1.383 1_455 S
C205 C203 1.383 . S
C205 C206 1.402 . S
C205 H220 0.951 . S
C206 C205 1.402 . S
C206 C207 1.375 1_455 S
C206 C209 1.481 . S
C207 C206 1.375 1_655 S
C207 C208 1.367 . S
C207 H221 0.951 . S
C208 C204 1.383 1_655 S
C208 C207 1.367 . S
C208 H222 0.950 . S
C209 C206 1.481 . S
C209 C210 1.297 . S
C209 H223 0.950 1_455 S
C210 C209 1.297 . S
C210 C211 1.479 . S
C210 H224 0.950 . S
C211 C210 1.479 . S
C211 C212 1.375 . S
C211 C217 1.404 . S
C212 C211 1.375 . S
C212 C213 1.369 . S
C212 H225 0.950 . S
C213 C212 1.369 . S
C213 C214 1.392 . S
C213 H226 0.951 . S
C214 C213 1.392 . S
C214 C216 1.384 . S
H215 C217 0.949 . S
C216 C214 1.384 . S
C216 C217 1.385 . S
C216 H218 0.950 1_455 S
C217 C211 1.404 . S
C217 H215 0.949 . S
C217 C216 1.385 . S
H218 C216 0.950 1_655 S
H219 C203 0.951 . S
H220 C205 0.951 . S
H221 C207 0.951 . S
H222 C208 0.950 . S
H223 C209 0.950 1_655 S
H224 C210 0.950 . S
H225 C212 0.950 . S
H226 C213 0.951 . S
C227 C228 1.386 1_565 S
C227 C229 1.383 1_565 S
C227 H243 0.951 . S
C228 C227 1.386 1_545 S
C228 C232 1.383 . S
C229 C227 1.383 1_545 S
C229 C230 1.402 . S
C229 H244 0.951 1_545 S
C230 C229 1.402 . S
C230 C231 1.375 . S
C230 C233 1.481 . S
C231 C230 1.375 . S
C231 C232 1.367 . S
C231 H245 0.951 . S
C232 C228 1.383 . S
C232 C231 1.367 . S
C232 H246 0.950 . S
C233 C230 1.481 . S
C233 C234 1.297 . S
C233 H247 0.950 . S
C234 C233 1.297 . S
C234 C235 1.479 . S
C234 H248 0.950 . S
C235 C234 1.479 . S
C235 C236 1.375 1_545 S
C235 C241 1.404 . S
C236 C235 1.375 1_565 S
C236 C237 1.369 . S
C236 H249 0.950 . S
C237 C236 1.369 . S
C237 C238 1.392 1_565 S
C237 H250 0.951 . S
C238 C237 1.392 1_545 S
C238 C240 1.384 . S
H239 C241 0.949 . S
C240 C238 1.384 . S
C240 C241 1.385 . S
C240 H242 0.950 . S
C241 C235 1.404 . S
C241 H239 0.949 . S
C241 C240 1.385 . S
H242 C240 0.950 . S
H243 C227 0.951 . S
H244 C229 0.951 1_565 S
H245 C231 0.951 . S
H246 C232 0.950 . S
H247 C233 0.950 . S
H248 C234 0.950 . S
H249 C236 0.950 . S
H250 C237 0.951 . S
C60 C30 1.329 1_455 S
C70 C32 1.333 . S
C84 C1 1.525 . S
C94 C58 1.539 . S
C108 C0 1.275 . S
C118 C44 1.347 1_655 S
C132 C29 1.538 . S
C142 C46 1.581 1_565 S
C156 C19 1.329 1_655 S
C166 C31 1.340 1_655 S
C180 C20 1.518 . S
C190 C57 1.542 . S
C214 C43 1.329 1_455 S
C204 C10 1.312 . S
C228 C2 1.567 . S
C238 C45 1.577 . S
