# Generated by pormake.
# Topology bcu-b, (8,8)-cn, num edge types: 1
# Building blocks:
#     Node 0, Type 0, BuildingBlock: VETTIZ_charged_sbu_0, # of connection points: 8
#     Node 1, Type 1, BuildingBlock: VETTIZ_charged_sbu_0, # of connection points: 8
#     Edge 2, Type (0, 1), BuildingBlock: CIFDUS_clean_linker_0, # of connection points: 2
#     Edge 3, Type (0, 1), BuildingBlock: CIFDUS_clean_linker_0, # of connection points: 2
#     Edge 4, Type (0, 1), BuildingBlock: CIFDUS_clean_linker_0, # of connection points: 2
#     Edge 5, Type (0, 1), BuildingBlock: CIFDUS_clean_linker_0, # of connection points: 2
#     Edge 6, Type (0, 1), BuildingBlock: CIFDUS_clean_linker_0, # of connection points: 2
#     Edge 7, Type (0, 1), BuildingBlock: CIFDUS_clean_linker_0, # of connection points: 2
#     Edge 8, Type (0, 1), BuildingBlock: CIFDUS_clean_linker_0, # of connection points: 2
#     Edge 9, Type (0, 1), BuildingBlock: CIFDUS_clean_linker_0, # of connection points: 2
# Relax obj value: 0.000
# Max RMSD: 0.009
# Mean RMSD: 0.009
data_MOF--net-bcu-b--node1-VETTIZ_charged_sbu_0--node2-VETTIZ_charged_sbu_0--edge1-CIFDUS_clean_linker_0
_symmetry_space_group_name_H-M    P1
_symmetry_Int_Tables_number       1
_symmetry_cell_setting            triclinic
loop_
_symmetry_equiv_pos_as_xyz
'x, y, z'
_cell_length_a     17.201286
_cell_length_b     18.274181
_cell_length_c     17.104323
_cell_angle_alpha  90.113226
_cell_angle_beta   90.413954
_cell_angle_gamma 89.992745
loop_
_atom_site_label
_atom_site_type_symbol
_atom_site_fract_x
_atom_site_fract_y
_atom_site_fract_z
_atom_type_partial_charge
Fe0 Fe 1.01933 0.91352 0.02581 0.0
O1 O 0.97435 0.99474 0.08895 0.0
Fe2 Fe 0.06503 -0.00162 0.85071 0.0
Fe3 Fe 0.97511 0.99534 0.20332 0.0
O4 O 0.06849 0.99415 0.96514 0.0
O5 O 0.06964 0.00123 0.96572 0.0
O6 O 0.97486 0.00179 0.08921 0.0
Fe7 Fe 0.02556 0.08261 0.03002 0.0
C8 C 0.90774 0.85003 0.1512 0.0
O9 O 0.11553 0.90876 0.09611 0.0
O10 O 0.05872 0.9141 0.21291 0.0
O11 O 0.08492 0.15648 0.95726 0.0
O12 O 0.14384 0.083 0.86443 0.0
O13 O 0.14048 0.91094 0.8625 0.0
O14 O 0.07456 0.83837 0.95055 0.0
O15 O 0.06238 0.07081 0.21765 0.0
O16 O 0.1225 0.08085 0.10281 0.0
C17 C 0.12695 0.84887 0.89689 0.0
O18 O 0.92865 0.08976 0.9594 0.0
O19 O 0.98094 0.07871 0.84098 0.0
O20 O 0.96061 0.83883 0.09821 0.0
O21 O 0.89566 0.91198 0.18652 0.0
C22 C 0.1158 0.89699 0.16926 0.0
C23 C 0.12236 0.08512 0.17734 0.0
C24 C 0.91668 0.14636 0.15733 0.0
O25 O 0.90143 0.08411 0.19077 0.0
O26 O 0.97059 0.15708 0.10532 0.0
C27 C 0.13461 0.14471 0.90128 0.0
O28 O 0.97791 0.92056 0.83932 0.0
O29 O 0.92255 0.9148 0.95635 0.0
C30 C 0.92612 0.09901 0.88575 0.0
C31 C 0.92136 0.90315 0.88329 0.0
Fe32 Fe 0.51919 0.58117 0.52729 0.0
O33 O 0.45525 0.5006 0.48148 0.0
Fe34 Fe 0.69847 0.49787 0.55864 0.0
Fe35 Fe 0.34209 0.49525 0.48966 0.0
O36 O 0.5849 0.49945 0.56825 0.0
O37 O 0.58484 0.49189 0.56827 0.0
O38 O 0.45568 0.49364 0.4805 0.0
Fe39 Fe 0.52249 0.41164 0.51888 0.0
C40 C 0.38296 0.5897 0.63429 0.0
O41 O 0.44137 0.65656 0.4774 0.0
O42 O 0.3487 0.58442 0.41618 0.0
O43 O 0.58619 0.41671 0.41831 0.0
O44 O 0.70493 0.42098 0.47048 0.0
O45 O 0.70204 0.57852 0.47418 0.0
O46 O 0.58164 0.58657 0.42573 0.0
O47 O 0.35242 0.41442 0.40616 0.0
O48 O 0.44767 0.33877 0.45803 0.0
C49 C 0.65445 0.59711 0.42036 0.0
O50 O 0.60212 0.33636 0.56893 0.0
O51 O 0.69155 0.40987 0.63365 0.0
O52 O 0.45614 0.5811 0.62878 0.0
O53 O 0.33581 0.57014 0.58029 0.0
C54 C 0.38429 0.64615 0.42822 0.0
C55 C 0.39193 0.35385 0.40822 0.0
C56 C 0.38596 0.39206 0.62452 0.0
O57 O 0.33823 0.41238 0.57154 0.0
O58 O 0.45886 0.40182 0.61914 0.0
C59 C 0.65888 0.40557 0.41425 0.0
O60 O 0.68954 0.58214 0.6389 0.0
O61 O 0.59591 0.65534 0.58111 0.0
C62 C 0.65744 0.34746 0.6205 0.0
C63 C 0.65346 0.64405 0.62948 0.0
H64 H 0.22161 0.19392 0.13372 0.0
H65 H 0.17368 0.04201 0.31964 0.0
H66 H 0.26678 0.10432 0.40488 0.0
H67 H 0.3445 0.2144 0.4339 0.0
H68 H 0.38238 0.37286 0.25218 0.0
H69 H 0.31252 0.29586 0.15807 0.0
C70 C 0.23339 0.17341 0.19209 0.0
C71 C 0.19064 0.11381 0.22054 0.0
C72 C 0.28483 0.21149 0.2421 0.0
C73 C 0.20569 0.08813 0.29665 0.0
C74 C 0.25872 0.12392 0.3456 0.0
C75 C 0.33957 0.23055 0.37306 0.0
C76 C 0.36843 0.29875 0.34965 0.0
C77 C 0.29621 0.18747 0.32013 0.0
C78 C 0.36053 0.32023 0.27114 0.0
C79 C 0.32017 0.27649 0.21749 0.0
H80 H 0.76334 0.15545 0.18846 0.0
H81 H 0.97627 0.27971 0.19426 0.0
H82 H 0.91208 0.37679 0.26866 0.0
H83 H 0.80016 0.41747 0.34687 0.0
H84 H 0.58579 0.29528 0.3363 0.0
H85 H 0.6452 0.20669 0.24774 0.0
C86 C 0.79502 0.20456 0.20479 0.0
C87 C 0.87436 0.2104 0.18715 0.0
C88 C 0.75769 0.26004 0.24704 0.0
C89 C 0.915 0.27437 0.20737 0.0
C90 C 0.87851 0.32952 0.25031 0.0
C91 C 0.76623 0.37215 0.32381 0.0
C92 C 0.68935 0.36203 0.34876 0.0
C93 C 0.80064 0.32167 0.27273 0.0
C94 C 0.64521 0.30399 0.31785 0.0
C95 C 0.67928 0.25307 0.2677 0.0
H96 H 0.75586 0.84531 0.19032 0.0
H97 H 0.96387 0.71406 0.18262 0.0
H98 H 0.90087 0.61934 0.26099 0.0
H99 H 0.7924 0.5823 0.34613 0.0
H100 H 0.58257 0.7115 0.34885 0.0
H101 H 0.63998 0.79828 0.25727 0.0
C102 C 0.7866 0.79513 0.20441 0.0
C103 C 0.86442 0.78671 0.18163 0.0
C104 C 0.75001 0.74111 0.24928 0.0
C105 C 0.90373 0.72142 0.19935 0.0
C106 C 0.86799 0.66765 0.24475 0.0
C107 C 0.75899 0.62889 0.32552 0.0
C108 C 0.684 0.64132 0.35493 0.0
C109 C 0.79211 0.67816 0.27231 0.0
C110 C 0.64052 0.70099 0.32704 0.0
C111 C 0.67344 0.75081 0.27504 0.0
H112 H 0.17656 0.90602 0.3158 0.0
H113 H 0.19805 0.79016 0.09697 0.0
H114 H 0.29136 0.70599 0.15637 0.0
H115 H 0.3544 0.65696 0.2744 0.0
H116 H 0.33903 0.77534 0.49176 0.0
H117 H 0.25706 0.8683 0.42884 0.0
C118 C 0.20275 0.86304 0.28102 0.0
C119 C 0.17986 0.85349 0.20267 0.0
C120 C 0.25726 0.81552 0.31522 0.0
C121 C 0.21473 0.79833 0.15758 0.0
C122 C 0.26784 0.75007 0.1915 0.0
C123 C 0.33448 0.70418 0.30723 0.0
C124 C 0.35172 0.70962 0.38725 0.0
C125 C 0.2878 0.75698 0.27074 0.0
C126 C 0.32647 0.77076 0.42977 0.0
C127 C 0.2791 0.82332 0.39405 0.0
H128 H 0.2795 0.84102 0.86093 0.0
H129 H 0.06809 0.71454 0.86156 0.0
H130 H 0.13127 0.61815 0.78508 0.0
H131 H 0.24199 0.57789 0.70424 0.0
H132 H 0.45504 0.70243 0.70918 0.0
H133 H 0.39645 0.791 0.79817 0.0
C134 C 0.24793 0.79157 0.8456 0.0
C135 C 0.16925 0.78493 0.86596 0.0
C136 C 0.28474 0.73645 0.80213 0.0
C137 C 0.12887 0.72054 0.84666 0.0
C138 C 0.16479 0.66578 0.80243 0.0
C139 C 0.27587 0.62376 0.72603 0.0
C140 C 0.35229 0.6342 0.69944 0.0
C141 C 0.24195 0.67429 0.77772 0.0
C142 C 0.3961 0.69318 0.72883 0.0
C143 C 0.36247 0.74415 0.77931 0.0
H144 H 0.28542 0.14695 0.85891 0.0
H145 H 0.07983 0.28123 0.87032 0.0
H146 H 0.14225 0.37416 0.789 0.0
H147 H 0.24922 0.40875 0.70071 0.0
H148 H 0.45673 0.27637 0.69445 0.0
H149 H 0.40011 0.19132 0.78828 0.0
C150 C 0.25517 0.19745 0.84503 0.0
C151 C 0.17818 0.20729 0.86975 0.0
C152 C 0.29136 0.2503 0.79838 0.0
C153 C 0.13941 0.27289 0.85218 0.0
C154 C 0.17477 0.32558 0.80505 0.0
C155 C 0.28224 0.36176 0.72088 0.0
C156 C 0.3563 0.34792 0.68991 0.0
C157 C 0.24968 0.31359 0.77557 0.0
C158 C 0.39942 0.28784 0.71735 0.0
C159 C 0.36699 0.23908 0.77072 0.0
H160 H 0.86106 0.08567 0.74082 0.0
H161 H 0.84718 0.21028 0.9548 0.0
H162 H 0.75517 0.29457 0.89332 0.0
H163 H 0.69094 0.34083 0.77442 0.0
H164 H 0.69937 0.21458 0.56167 0.0
H165 H 0.78008 0.12209 0.6271 0.0
C166 C 0.83698 0.13078 0.77412 0.0
C167 C 0.86174 0.14249 0.85179 0.0
C168 C 0.78334 0.17867 0.73859 0.0
C169 C 0.82917 0.20024 0.89489 0.0
C170 C 0.77682 0.24866 0.85968 0.0
C171 C 0.70912 0.29214 0.74304 0.0
C172 C 0.68998 0.28446 0.66344 0.0
C173 C 0.75522 0.23953 0.78102 0.0
C174 C 0.71315 0.2212 0.62319 0.0
C175 C 0.75987 0.1688 0.66039 0.0
H176 H 0.85297 0.91225 0.73985 0.0
H177 H 0.84994 0.79028 0.95552 0.0
H178 H 0.76004 0.70179 0.89787 0.0
H179 H 0.69388 0.65192 0.78172 0.0
H180 H 0.6897 0.77638 0.56809 0.0
H181 H 0.76969 0.87183 0.62941 0.0
C182 C 0.83159 0.86678 0.77426 0.0
C183 C 0.8586 0.85704 0.85121 0.0
C184 C 0.77888 0.81663 0.74112 0.0
C185 C 0.82986 0.79875 0.89602 0.0
C186 C 0.77877 0.74795 0.86305 0.0
C187 C 0.70928 0.70079 0.74937 0.0
C188 C 0.68686 0.70734 0.67075 0.0
C189 C 0.75454 0.75533 0.7851 0.0
C190 C 0.70625 0.77076 0.62903 0.0
C191 C 0.75246 0.82488 0.66381 0.0
loop_
_geom_bond_atom_site_label_1
_geom_bond_atom_site_label_2
_geom_bond_distance
_geom_bond_site_symmetry_2
_ccdc_geom_bond_type
Fe0 O1 1.886 . S
Fe0 O4 1.715 1_554 S
Fe0 O9 2.077 . S
Fe0 O14 1.935 1_554 S
Fe0 O20 2.077 1_455 S
Fe0 O29 1.935 1_454 S
O1 Fe0 1.886 . S
O1 Fe3 1.715 1_565 S
Fe2 O4 1.886 . S
Fe2 O5 1.715 1_565 S
Fe2 O12 1.935 1_565 S
Fe2 O13 2.077 . S
Fe2 O19 1.935 1_465 S
Fe2 O28 2.077 1_455 S
Fe3 O1 1.715 1_545 S
Fe3 O6 1.886 . S
Fe3 O10 1.935 1_545 S
Fe3 O15 2.077 . S
Fe3 O21 1.935 1_445 S
Fe3 O25 2.077 1_455 S
O4 Fe0 1.715 1_556 S
O4 Fe2 1.886 . S
O5 Fe2 1.715 1_545 S
O5 Fe7 1.886 . S
O6 Fe3 1.886 . S
O6 Fe7 1.715 1_554 S
Fe7 O5 1.886 . S
Fe7 O6 1.715 1_556 S
Fe7 O11 2.077 . S
Fe7 O16 1.935 1_556 S
Fe7 O18 2.077 1_455 S
Fe7 O26 1.935 1_456 S
C8 O20 1.381 . S
C8 O21 1.421 . S
O9 Fe0 2.077 . S
O9 C22 1.381 . S
O10 Fe3 1.935 1_565 S
O10 C22 1.421 . S
O11 Fe7 2.077 . S
O11 C27 1.381 . S
O12 Fe2 1.935 1_545 S
O12 C27 1.421 . S
O13 Fe2 2.077 . S
O13 C17 1.381 . S
O14 Fe0 1.935 1_556 S
O14 C17 1.421 . S
O15 Fe3 2.077 . S
O15 C23 1.381 . S
O16 Fe7 1.935 1_554 S
O16 C23 1.421 . S
C17 O13 1.381 . S
C17 O14 1.421 . S
O18 Fe7 2.077 1_655 S
O18 C30 1.381 . S
O19 Fe2 1.935 1_645 S
O19 C30 1.421 . S
O20 Fe0 2.077 1_655 S
O20 C8 1.381 . S
O21 Fe3 1.935 1_665 S
O21 C8 1.421 . S
C22 O9 1.381 . S
C22 O10 1.421 . S
C23 O15 1.381 . S
C23 O16 1.421 . S
C24 O25 1.381 . S
C24 O26 1.421 . S
O25 Fe3 2.077 1_655 S
O25 C24 1.381 . S
O26 Fe7 1.935 1_654 S
O26 C24 1.421 . S
C27 O11 1.381 . S
C27 O12 1.421 . S
O28 Fe2 2.077 1_655 S
O28 C31 1.381 . S
O29 Fe0 1.935 1_656 S
O29 C31 1.421 . S
C30 O18 1.381 . S
C30 O19 1.421 . S
C31 O28 1.381 . S
C31 O29 1.421 . S
Fe32 O33 1.886 . S
Fe32 O36 1.715 . S
Fe32 O41 2.077 . S
Fe32 O46 1.935 . S
Fe32 O52 2.077 . S
Fe32 O61 1.935 . S
O33 Fe32 1.886 . S
O33 Fe35 1.715 . S
Fe34 O36 1.886 . S
Fe34 O37 1.715 . S
Fe34 O44 1.935 . S
Fe34 O45 2.077 . S
Fe34 O51 1.935 . S
Fe34 O60 2.077 . S
Fe35 O33 1.715 . S
Fe35 O38 1.886 . S
Fe35 O42 1.935 . S
Fe35 O47 2.077 . S
Fe35 O53 1.935 . S
Fe35 O57 2.077 . S
O36 Fe32 1.715 . S
O36 Fe34 1.886 . S
O37 Fe34 1.715 . S
O37 Fe39 1.886 . S
O38 Fe35 1.886 . S
O38 Fe39 1.715 . S
Fe39 O37 1.886 . S
Fe39 O38 1.715 . S
Fe39 O43 2.077 . S
Fe39 O48 1.935 . S
Fe39 O50 2.077 . S
Fe39 O58 1.935 . S
C40 O52 1.381 . S
C40 O53 1.421 . S
O41 Fe32 2.077 . S
O41 C54 1.381 . S
O42 Fe35 1.935 . S
O42 C54 1.421 . S
O43 Fe39 2.077 . S
O43 C59 1.381 . S
O44 Fe34 1.935 . S
O44 C59 1.421 . S
O45 Fe34 2.077 . S
O45 C49 1.381 . S
O46 Fe32 1.935 . S
O46 C49 1.421 . S
O47 Fe35 2.077 . S
O47 C55 1.381 . S
O48 Fe39 1.935 . S
O48 C55 1.421 . S
C49 O45 1.381 . S
C49 O46 1.421 . S
O50 Fe39 2.077 . S
O50 C62 1.381 . S
O51 Fe34 1.935 . S
O51 C62 1.421 . S
O52 Fe32 2.077 . S
O52 C40 1.381 . S
O53 Fe35 1.935 . S
O53 C40 1.421 . S
C54 O41 1.381 . S
C54 O42 1.421 . S
C55 O47 1.381 . S
C55 O48 1.421 . S
C56 O57 1.381 . S
C56 O58 1.421 . S
O57 Fe35 2.077 . S
O57 C56 1.381 . S
O58 Fe39 1.935 . S
O58 C56 1.421 . S
C59 O43 1.381 . S
C59 O44 1.421 . S
O60 Fe34 2.077 . S
O60 C63 1.381 . S
O61 Fe32 1.935 . S
O61 C63 1.421 . S
C62 O50 1.381 . S
C62 O51 1.421 . S
C63 O60 1.381 . S
C63 O61 1.421 . S
H64 C70 0.930 . S
H65 C73 0.930 . S
H66 C74 0.930 . S
H67 C75 0.930 . S
H68 C78 0.930 . S
H69 C79 0.930 . S
C70 H64 0.930 . S
C70 C71 1.355 . S
C70 C72 1.415 . S
C71 C70 1.355 . S
C71 C73 1.419 . S
C72 C70 1.415 . S
C72 C77 1.425 . S
C72 C79 1.409 . S
C73 H65 0.930 . S
C73 C71 1.419 . S
C73 C74 1.362 . S
C74 H66 0.930 . S
C74 C73 1.362 . S
C74 C77 1.409 . S
C75 H67 0.930 . S
C75 C76 1.355 . S
C75 C77 1.415 . S
C76 C75 1.355 . S
C76 C78 1.419 . S
C77 C72 1.425 . S
C77 C74 1.409 . S
C77 C75 1.415 . S
C78 H68 0.930 . S
C78 C76 1.419 . S
C78 C79 1.362 . S
C79 H69 0.930 . S
C79 C72 1.409 . S
C79 C78 1.362 . S
H80 C86 0.930 . S
H81 C89 0.930 . S
H82 C90 0.930 . S
H83 C91 0.930 . S
H84 C94 0.930 . S
H85 C95 0.930 . S
C86 H80 0.930 . S
C86 C87 1.355 . S
C86 C88 1.415 . S
C87 C86 1.355 . S
C87 C89 1.419 . S
C88 C86 1.415 . S
C88 C93 1.425 . S
C88 C95 1.409 . S
C89 H81 0.930 . S
C89 C87 1.419 . S
C89 C90 1.362 . S
C90 H82 0.930 . S
C90 C89 1.362 . S
C90 C93 1.409 . S
C91 H83 0.930 . S
C91 C92 1.355 . S
C91 C93 1.415 . S
C92 C91 1.355 . S
C92 C94 1.419 . S
C93 C88 1.425 . S
C93 C90 1.409 . S
C93 C91 1.415 . S
C94 H84 0.930 . S
C94 C92 1.419 . S
C94 C95 1.362 . S
C95 H85 0.930 . S
C95 C88 1.409 . S
C95 C94 1.362 . S
H96 C102 0.930 . S
H97 C105 0.930 . S
H98 C106 0.930 . S
H99 C107 0.930 . S
H100 C110 0.930 . S
H101 C111 0.930 . S
C102 H96 0.930 . S
C102 C103 1.355 . S
C102 C104 1.415 . S
C103 C102 1.355 . S
C103 C105 1.419 . S
C104 C102 1.415 . S
C104 C109 1.425 . S
C104 C111 1.409 . S
C105 H97 0.930 . S
C105 C103 1.419 . S
C105 C106 1.362 . S
C106 H98 0.930 . S
C106 C105 1.362 . S
C106 C109 1.409 . S
C107 H99 0.930 . S
C107 C108 1.355 . S
C107 C109 1.415 . S
C108 C107 1.355 . S
C108 C110 1.419 . S
C109 C104 1.425 . S
C109 C106 1.409 . S
C109 C107 1.415 . S
C110 H100 0.930 . S
C110 C108 1.419 . S
C110 C111 1.362 . S
C111 H101 0.930 . S
C111 C104 1.409 . S
C111 C110 1.362 . S
H112 C118 0.930 . S
H113 C121 0.930 . S
H114 C122 0.930 . S
H115 C123 0.930 . S
H116 C126 0.930 . S
H117 C127 0.930 . S
C118 H112 0.930 . S
C118 C119 1.355 . S
C118 C120 1.415 . S
C119 C118 1.355 . S
C119 C121 1.419 . S
C120 C118 1.415 . S
C120 C125 1.425 . S
C120 C127 1.409 . S
C121 H113 0.930 . S
C121 C119 1.419 . S
C121 C122 1.362 . S
C122 H114 0.930 . S
C122 C121 1.362 . S
C122 C125 1.409 . S
C123 H115 0.930 . S
C123 C124 1.355 . S
C123 C125 1.415 . S
C124 C123 1.355 . S
C124 C126 1.419 . S
C125 C120 1.425 . S
C125 C122 1.409 . S
C125 C123 1.415 . S
C126 H116 0.930 . S
C126 C124 1.419 . S
C126 C127 1.362 . S
C127 H117 0.930 . S
C127 C120 1.409 . S
C127 C126 1.362 . S
H128 C134 0.930 . S
H129 C137 0.930 . S
H130 C138 0.930 . S
H131 C139 0.930 . S
H132 C142 0.930 . S
H133 C143 0.930 . S
C134 H128 0.930 . S
C134 C135 1.355 . S
C134 C136 1.415 . S
C135 C134 1.355 . S
C135 C137 1.419 . S
C136 C134 1.415 . S
C136 C141 1.425 . S
C136 C143 1.409 . S
C137 H129 0.930 . S
C137 C135 1.419 . S
C137 C138 1.362 . S
C138 H130 0.930 . S
C138 C137 1.362 . S
C138 C141 1.409 . S
C139 H131 0.930 . S
C139 C140 1.355 . S
C139 C141 1.415 . S
C140 C139 1.355 . S
C140 C142 1.419 . S
C141 C136 1.425 . S
C141 C138 1.409 . S
C141 C139 1.415 . S
C142 H132 0.930 . S
C142 C140 1.419 . S
C142 C143 1.362 . S
C143 H133 0.930 . S
C143 C136 1.409 . S
C143 C142 1.362 . S
H144 C150 0.930 . S
H145 C153 0.930 . S
H146 C154 0.930 . S
H147 C155 0.930 . S
H148 C158 0.930 . S
H149 C159 0.930 . S
C150 H144 0.930 . S
C150 C151 1.355 . S
C150 C152 1.415 . S
C151 C150 1.355 . S
C151 C153 1.419 . S
C152 C150 1.415 . S
C152 C157 1.425 . S
C152 C159 1.409 . S
C153 H145 0.930 . S
C153 C151 1.419 . S
C153 C154 1.362 . S
C154 H146 0.930 . S
C154 C153 1.362 . S
C154 C157 1.409 . S
C155 H147 0.930 . S
C155 C156 1.355 . S
C155 C157 1.415 . S
C156 C155 1.355 . S
C156 C158 1.419 . S
C157 C152 1.425 . S
C157 C154 1.409 . S
C157 C155 1.415 . S
C158 H148 0.930 . S
C158 C156 1.419 . S
C158 C159 1.362 . S
C159 H149 0.930 . S
C159 C152 1.409 . S
C159 C158 1.362 . S
H160 C166 0.930 . S
H161 C169 0.930 . S
H162 C170 0.930 . S
H163 C171 0.930 . S
H164 C174 0.930 . S
H165 C175 0.930 . S
C166 H160 0.930 . S
C166 C167 1.355 . S
C166 C168 1.415 . S
C167 C166 1.355 . S
C167 C169 1.419 . S
C168 C166 1.415 . S
C168 C173 1.425 . S
C168 C175 1.409 . S
C169 H161 0.930 . S
C169 C167 1.419 . S
C169 C170 1.362 . S
C170 H162 0.930 . S
C170 C169 1.362 . S
C170 C173 1.409 . S
C171 H163 0.930 . S
C171 C172 1.355 . S
C171 C173 1.415 . S
C172 C171 1.355 . S
C172 C174 1.419 . S
C173 C168 1.425 . S
C173 C170 1.409 . S
C173 C171 1.415 . S
C174 H164 0.930 . S
C174 C172 1.419 . S
C174 C175 1.362 . S
C175 H165 0.930 . S
C175 C168 1.409 . S
C175 C174 1.362 . S
H176 C182 0.930 . S
H177 C185 0.930 . S
H178 C186 0.930 . S
H179 C187 0.930 . S
H180 C190 0.930 . S
H181 C191 0.930 . S
C182 H176 0.930 . S
C182 C183 1.355 . S
C182 C184 1.415 . S
C183 C182 1.355 . S
C183 C185 1.419 . S
C184 C182 1.415 . S
C184 C189 1.425 . S
C184 C191 1.409 . S
C185 H177 0.930 . S
C185 C183 1.419 . S
C185 C186 1.362 . S
C186 H178 0.930 . S
C186 C185 1.362 . S
C186 C189 1.409 . S
C187 H179 0.930 . S
C187 C188 1.355 . S
C187 C189 1.415 . S
C188 C187 1.355 . S
C188 C190 1.419 . S
C189 C184 1.425 . S
C189 C186 1.409 . S
C189 C187 1.415 . S
C190 H180 0.930 . S
C190 C188 1.419 . S
C190 C191 1.362 . S
C191 H181 0.930 . S
C191 C184 1.409 . S
C191 C190 1.362 . S
C71 C23 1.440 . S
C76 C55 1.477 . S
C87 C24 1.423 . S
C92 C59 1.478 . S
C103 C8 1.435 . S
C108 C49 1.424 . S
C119 C22 1.442 . S
C124 C54 1.427 . S
C135 C17 1.445 . S
C140 C40 1.418 . S
C156 C56 1.413 . S
C151 C27 1.451 . S
C167 C30 1.445 . S
C172 C62 1.427 . S
C188 C63 1.419 . S
C183 C31 1.431 . S
