# Generated by pormake.
# Topology pts, (4,4)-cn, num edge types: 1
# Building blocks:
#     Node 0, Type 0, BuildingBlock: MUDLON_clean_sbu_0, # of connection points: 4
#     Node 1, Type 0, BuildingBlock: MUDLON_clean_sbu_0, # of connection points: 4
#     Node 2, Type 1, BuildingBlock: QUQFOY_clean_sbu_1, # of connection points: 4
#     Node 3, Type 1, BuildingBlock: QUQFOY_clean_sbu_1, # of connection points: 4
#     Edge 4, Type (0, 1), BuildingBlock: EZIPEK_clean_linker_0, # of connection points: 2
#     Edge 5, Type (0, 1), BuildingBlock: EZIPEK_clean_linker_0, # of connection points: 2
#     Edge 6, Type (0, 1), BuildingBlock: EZIPEK_clean_linker_0, # of connection points: 2
#     Edge 7, Type (0, 1), BuildingBlock: EZIPEK_clean_linker_0, # of connection points: 2
#     Edge 8, Type (0, 1), BuildingBlock: EZIPEK_clean_linker_0, # of connection points: 2
#     Edge 9, Type (0, 1), BuildingBlock: EZIPEK_clean_linker_0, # of connection points: 2
#     Edge 10, Type (0, 1), BuildingBlock: EZIPEK_clean_linker_0, # of connection points: 2
#     Edge 11, Type (0, 1), BuildingBlock: EZIPEK_clean_linker_0, # of connection points: 2
# Relax obj value: 0.129
# Max RMSD: 0.243
# Mean RMSD: 0.142
data_MOF--net-pts--node1-MUDLON_clean_sbu_0--node2-QUQFOY_clean_sbu_1--edge1-EZIPEK_clean_linker_0
_symmetry_space_group_name_H-M    P1
_symmetry_Int_Tables_number       1
_symmetry_cell_setting            triclinic
loop_
_symmetry_equiv_pos_as_xyz
'x, y, z'
_cell_length_a     16.291824
_cell_length_b     17.51357
_cell_length_c     30.255377
_cell_angle_alpha  90.707186
_cell_angle_beta   90.056011
_cell_angle_gamma 89.60603
loop_
_atom_site_label
_atom_site_type_symbol
_atom_site_fract_x
_atom_site_fract_y
_atom_site_fract_z
_atom_type_partial_charge
Mg0 Mg 0.4793 1.02169 0.03023 0.0
C1 C 0.32374 0.96553 0.9891 0.0
O2 O 0.29449 0.98621 0.02787 0.0
C3 C 0.63452 0.97082 0.07396 0.0
O4 O 0.66501 0.99253 0.03602 0.0
C5 C 0.41129 0.08904 0.11452 0.0
O6 O 0.48602 0.07532 0.12869 0.0
O7 O 0.39642 0.08549 0.07324 0.0
O8 O 0.40096 0.9593 0.98425 0.0
O9 O 0.56103 0.08154 0.98603 0.0
C10 C 0.54492 0.08267 0.94486 0.0
O11 O 0.47005 0.06798 0.93136 0.0
O12 O 0.55738 0.96255 0.07739 0.0
Mg13 Mg 0.96565 0.52622 0.53094 0.0
C14 C 0.06327 0.62502 0.60281 0.0
O15 O 0.10766 0.56558 0.61404 0.0
C16 C 0.06421 0.42313 0.46069 0.0
O17 O 0.11323 0.47966 0.45107 0.0
C18 C 0.96539 0.63393 0.46174 0.0
O19 O 0.04025 0.62651 0.47735 0.0
O20 O 0.90832 0.59447 0.47895 0.0
O21 O 0.01636 0.6213 0.56934 0.0
O22 O 0.90594 0.45923 0.58227 0.0
C23 C 0.96164 0.41789 0.5999 0.0
O24 O 0.03714 0.4231 0.58512 0.0
O25 O 0.01369 0.42984 0.4924 0.0
O26 O 0.90843 0.95902 0.22454 0.0
Cd27 Cd 0.0019 0.95086 0.26999 0.0
Cd28 Cd 0.97941 0.10072 0.27189 0.0
O29 O 0.86725 0.0752 0.24286 0.0
O30 O 0.00141 0.84022 0.28454 0.0
O31 O 0.97848 0.93116 0.3344 0.0
C32 C 0.98406 0.85921 0.32477 0.0
C33 C -0.00358 0.18511 0.33123 0.0
C34 C 0.85751 1.01364 0.22072 0.0
C35 C 0.13157 0.04224 0.22836 0.0
O36 O 0.07951 0.09635 0.23063 0.0
O37 O 0.1176 0.97905 0.2472 0.0
O38 O 0.97643 0.2091 0.29255 0.0
O39 O 0.00181 0.11229 0.3372 0.0
O40 O 0.87363 0.09243 0.82876 0.0
Cd41 Cd 0.97874 0.09959 0.79172 0.0
Cd42 Cd 0.9593 0.94879 0.78912 0.0
O43 O 0.84079 0.97478 0.80941 0.0
O44 O 0.98015 0.21026 0.77734 0.0
O45 O 0.97046 0.11934 0.72626 0.0
C46 C 0.9715 0.19127 0.73632 0.0
C47 C -0.01188 0.86327 0.73148 0.0
C48 C 0.82338 0.0375 0.82902 0.0
C49 C 0.09693 1.00933 0.84421 0.0
O50 O 0.0478 0.95445 0.83752 0.0
O51 O 0.08721 0.07213 0.82401 0.0
O52 O 0.96109 0.84009 0.769 0.0
O53 O -0.00424 0.93587 0.72572 0.0
C54 C 0.29997 1.0064 0.14353 0.0
C55 C 0.34237 0.07687 0.14538 0.0
C56 C 0.25681 0.11765 0.20798 0.0
C57 C 0.20659 0.05229 0.20133 0.0
N58 N 0.17151 0.94259 0.15583 0.0
N59 N 0.35867 0.2025 0.17712 0.0
C60 C 0.22583 0.9986 0.16734 0.0
C61 C 0.32023 0.13342 0.17707 0.0
N62 N 0.33187 0.94573 0.12026 0.0
N63 N 0.24603 0.16285 0.2447 0.0
H64 H 0.40649 0.21493 0.15549 0.0
H65 H 0.33935 0.24904 0.19627 0.0
H66 H 0.20218 0.15157 0.26878 0.0
H67 H 0.28556 0.20697 0.2535 0.0
H68 H 0.30741 0.89098 0.12166 0.0
H69 H 0.38732 0.94812 0.10315 0.0
H70 H 0.1795 0.90732 0.12814 0.0
H71 H 0.11437 0.93642 0.17077 0.0
C72 C 0.8982 0.30147 0.63472 0.0
C73 C 0.94718 0.36786 0.63841 0.0
C74 C 0.01505 0.31575 0.70367 0.0
C75 C 0.96278 0.2513 0.70211 0.0
N76 N 0.839 0.1941 0.67279 0.0
N77 N 0.03028 0.44847 0.68493 0.0
C78 C 0.89957 0.2473 0.66957 0.0
C79 C -0.00164 0.37823 0.67578 0.0
N80 N 0.85299 0.28843 0.5974 0.0
N81 N 0.08363 0.31592 0.72974 0.0
H82 H 0.01458 0.49613 0.6664 0.0
H83 H 0.063 0.4609 0.71373 0.0
H84 H 0.10212 0.26914 0.74835 0.0
H85 H 0.12732 0.35907 0.72875 0.0
H86 H 0.82386 0.23676 0.59076 0.0
H87 H 0.84903 0.32753 0.57176 0.0
H88 H 0.78761 0.19344 0.65227 0.0
H89 H 0.83541 0.15577 0.69879 0.0
C90 C 0.69494 0.92494 0.14607 0.0
C91 C 0.68376 0.98349 0.11467 0.0
C92 C 0.78338 0.06352 0.15383 0.0
C93 C 0.79178 1.00698 0.18681 0.0
N94 N 0.74051 0.89205 0.21987 0.0
N95 N 0.69471 0.11783 0.0984 0.0
C96 C 0.74282 0.94005 0.18464 0.0
C97 C 0.72086 0.05573 0.1216 0.0
N98 N 0.6624 0.85434 0.13838 0.0
N99 N 0.83809 0.12213 0.15106 0.0
H100 H 0.64594 0.11573 0.07605 0.0
H101 H 0.71481 0.17309 0.10532 0.0
H102 H 0.88819 0.12868 0.17214 0.0
H103 H 0.83885 0.15975 0.12463 0.0
H104 H 0.67592 0.80704 0.15767 0.0
H105 H 0.62659 0.8417 0.11067 0.0
H106 H 0.70049 0.84611 0.22187 0.0
H107 H 0.77273 0.90277 0.2491 0.0
C108 C 0.10765 0.74018 0.64784 0.0
C109 C 0.04627 0.68678 0.6358 0.0
C110 C 0.94513 0.75803 0.68045 0.0
C111 C 0.00795 0.80686 0.69601 0.0
N112 N 0.15161 0.8391 0.69946 0.0
N113 N 0.91072 0.63564 0.64825 0.0
C114 C 0.09003 0.79685 0.68089 0.0
C115 C 0.96608 0.69322 0.65416 0.0
N116 N 0.18195 0.73787 0.62695 0.0
N117 N 0.86482 0.77485 0.68972 0.0
H118 H 0.92355 0.58607 0.63015 0.0
H119 H 0.85499 0.63338 0.66501 0.0
H120 H 0.84686 0.82265 0.70833 0.0
H121 H 0.81574 0.74599 0.67527 0.0
H122 H 0.2262 0.78009 0.63068 0.0
H123 H 0.19702 0.69635 0.60324 0.0
H124 H 0.21363 0.82872 0.69346 0.0
H125 H 0.14115 0.88113 0.72355 0.0
C126 C 0.23176 0.04944 0.94451 0.0
C127 C 0.27195 0.97789 0.94943 0.0
C128 C 0.21276 0.93505 0.87893 0.0
C129 C 0.16148 1.00118 0.87858 0.0
N130 N 0.11113 0.11393 0.91743 0.0
N131 N 0.29701 0.84966 0.92278 0.0
C132 C 0.16814 0.05669 0.91295 0.0
C133 C 0.2619 0.91984 0.91687 0.0
N134 N 0.2562 0.11157 0.96882 0.0
N135 N 0.21646 0.8882 0.84252 0.0
H136 H 0.33381 0.83697 0.95 0.0
H137 H 0.2846 0.8026 0.90254 0.0
H138 H 0.18364 0.8991 0.81362 0.0
H139 H 0.25817 0.84313 0.83931 0.0
H140 H 0.23356 0.16648 0.96334 0.0
H141 H 0.30592 0.11017 0.99054 0.0
H142 H 0.10948 0.15079 0.94474 0.0
H143 H 0.06021 0.11965 0.89687 0.0
C144 C 0.97107 0.35809 0.40627 0.0
C145 C 0.04887 0.36129 0.42765 0.0
C146 C 0.09342 0.24734 0.38578 0.0
C147 C 0.01332 0.24101 0.36734 0.0
N148 N 0.87146 0.28048 0.36724 0.0
N149 N 0.18026 0.30356 0.44273 0.0
C150 C 0.95088 0.29354 0.37976 0.0
C151 C 0.10909 0.30433 0.41881 0.0
N152 N 0.91756 0.4184 0.40962 0.0
N153 N 0.15541 0.20128 0.37038 0.0
H154 H 0.19403 0.34517 0.46653 0.0
H155 H 0.22272 0.25888 0.4414 0.0
H156 H 0.14643 0.15847 0.34666 0.0
H157 H 0.21686 0.20897 0.37869 0.0
H158 H 0.8643 0.42288 0.39073 0.0
H159 H 0.92994 0.46772 0.42793 0.0
H160 H 0.82183 0.31226 0.37925 0.0
H161 H 0.85411 0.233 0.34836 0.0
C162 C 0.63078 0.12476 0.88052 0.0
C163 C 0.61323 0.07024 0.91332 0.0
C164 C 0.73264 0.99384 0.89061 0.0
C165 C 0.74762 0.04556 0.85583 0.0
N166 N 0.70182 0.15193 0.81204 0.0
N167 N 0.63229 0.94204 0.94042 0.0
C168 C 0.69395 0.10877 0.84912 0.0
C169 C 0.65953 1.00145 0.91558 0.0
N170 N 0.58849 0.19239 0.88007 0.0
N171 N 0.79014 0.94014 0.90174 0.0
H172 H 0.57772 0.94413 0.9584 0.0
H173 H 0.65948 0.888 0.9395 0.0
H174 H 0.84633 0.93379 0.88563 0.0
H175 H 0.78563 0.90698 0.92999 0.0
H176 H 0.60422 0.23794 0.86005 0.0
H177 H 0.54099 0.20498 0.90216 0.0
H178 H 0.66004 0.19429 0.80315 0.0
H179 H 0.74603 0.14057 0.78787 0.0
C180 C 0.90231 0.74934 0.4243 0.0
C181 C 0.95352 0.68353 0.42264 0.0
C182 C 0.02699 0.73564 0.35951 0.0
C183 C 0.97259 0.79925 0.35876 0.0
N184 N 0.84396 0.85491 0.38349 0.0
N185 N 0.04338 0.60329 0.37903 0.0
C186 C 0.90574 0.8028 0.3891 0.0
C187 C 0.00873 0.67325 0.38695 0.0
N188 N 0.85306 0.7627 0.46008 0.0
N189 N 0.09902 0.73631 0.33638 0.0
H190 H 0.02716 0.55561 0.39722 0.0
H191 H 0.07932 0.59108 0.35131 0.0
H192 H 0.11903 0.78341 0.31875 0.0
H193 H 0.14359 0.69366 0.33925 0.0
H194 H 0.82178 0.81412 0.46532 0.0
H195 H 0.84781 0.72437 0.48599 0.0
H196 H 0.79044 0.85517 0.40232 0.0
H197 H 0.84196 0.89249 0.35706 0.0
loop_
_geom_bond_atom_site_label_1
_geom_bond_atom_site_label_2
_geom_bond_distance
_geom_bond_site_symmetry_2
_ccdc_geom_bond_type
Mg0 O7 2.141 . S
Mg0 O8 2.048 1_554 S
Mg0 O9 2.048 1_554 S
Mg0 O12 2.141 . S
C1 O2 1.313 . S
C1 O8 1.195 1_565 S
O2 C1 1.313 . S
C3 O4 1.245 . S
C3 O12 1.289 1_565 S
O4 C3 1.245 . S
C5 O6 1.245 . S
C5 O7 1.289 1_565 S
O6 C5 1.245 . S
O7 Mg0 2.141 . S
O7 C5 1.289 1_545 S
O8 Mg0 2.048 1_556 S
O8 C1 1.195 1_545 S
O9 Mg0 2.048 1_556 S
O9 C10 1.195 1_545 S
C10 O9 1.195 1_565 S
C10 O11 1.313 . S
O11 C10 1.313 . S
O12 Mg0 2.141 . S
O12 C3 1.289 1_545 S
Mg13 O20 2.141 . S
Mg13 O21 2.048 . S
Mg13 O22 2.048 . S
Mg13 O25 2.141 . S
C14 O15 1.313 . S
C14 O21 1.195 1_455 S
O15 C14 1.313 . S
C16 O17 1.245 . S
C16 O25 1.289 1_455 S
O17 C16 1.245 . S
C18 O19 1.245 . S
C18 O20 1.289 1_455 S
O19 C18 1.245 . S
O20 Mg13 2.141 . S
O20 C18 1.289 1_655 S
O21 Mg13 2.048 . S
O21 C14 1.195 1_655 S
O22 Mg13 2.048 . S
O22 C23 1.195 1_655 S
C23 O22 1.195 1_455 S
C23 O24 1.313 . S
O24 C23 1.313 . S
O25 Mg13 2.141 . S
O25 C16 1.289 1_655 S
O26 Cd27 2.223 1_655 S
O26 C34 1.315 . S
Cd27 O26 2.223 1_455 S
Cd27 O30 2.297 1_455 S
Cd27 O31 2.439 1_455 S
Cd27 O37 2.240 1_565 S
Cd28 O29 2.240 1_545 S
Cd28 O36 2.223 1_655 S
Cd28 O38 2.297 1_655 S
Cd28 O39 2.439 1_655 S
O29 Cd28 2.240 1_565 S
O29 C34 1.279 . S
O30 Cd27 2.297 1_655 S
O30 C32 1.247 . S
O31 Cd27 2.439 1_655 S
O31 C32 1.208 . S
C32 O30 1.247 . S
C32 O31 1.208 . S
C33 O38 1.247 . S
C33 O39 1.208 . S
C34 O26 1.315 . S
C34 O29 1.279 . S
C35 O36 1.315 . S
C35 O37 1.279 . S
O36 Cd28 2.223 1_455 S
O36 C35 1.315 . S
O37 Cd27 2.240 1_545 S
O37 C35 1.279 . S
O38 Cd28 2.297 1_455 S
O38 C33 1.247 . S
O39 Cd28 2.439 1_455 S
O39 C33 1.208 . S
O40 Cd41 2.223 1_655 S
O40 C48 1.315 . S
Cd41 O40 2.223 1_455 S
Cd41 O44 2.297 1_455 S
Cd41 O45 2.439 1_455 S
Cd41 O51 2.240 1_545 S
Cd42 O43 2.240 1_565 S
Cd42 O50 2.223 1_655 S
Cd42 O52 2.297 1_655 S
Cd42 O53 2.439 1_655 S
O43 Cd42 2.240 1_545 S
O43 C48 1.279 . S
O44 Cd41 2.297 1_655 S
O44 C46 1.247 . S
O45 Cd41 2.439 1_655 S
O45 C46 1.208 . S
C46 O44 1.247 . S
C46 O45 1.208 . S
C47 O52 1.247 . S
C47 O53 1.208 . S
C48 O40 1.315 . S
C48 O43 1.279 . S
C49 O50 1.315 . S
C49 O51 1.279 . S
O50 Cd42 2.223 1_455 S
O50 C49 1.315 . S
O51 Cd41 2.240 1_565 S
O51 C49 1.279 . S
O52 Cd42 2.297 1_455 S
O52 C47 1.247 . S
O53 Cd42 2.439 1_455 S
O53 C47 1.208 . S
C54 C55 1.363 1_565 S
C54 C60 1.379 . S
C54 N62 1.356 . S
C55 C54 1.363 1_545 S
C55 C61 1.363 . S
C56 C57 1.363 . S
C56 C61 1.379 . S
C56 N63 1.356 . S
C57 C56 1.363 . S
C57 C60 1.363 1_545 S
N58 C60 1.356 . S
N58 H70 0.984 . S
N58 H71 0.985 . S
N59 C61 1.356 . S
N59 H64 0.984 . S
N59 H65 0.985 . S
C60 C54 1.379 . S
C60 C57 1.363 1_565 S
C60 N58 1.356 . S
C61 C55 1.363 . S
C61 C56 1.379 . S
C61 N59 1.356 . S
N62 C54 1.356 . S
N62 H68 0.984 . S
N62 H69 0.984 . S
N63 C56 1.356 . S
N63 H66 0.984 . S
N63 H67 0.985 . S
H64 N59 0.984 . S
H65 N59 0.985 . S
H66 N63 0.984 . S
H67 N63 0.985 . S
H68 N62 0.984 . S
H69 N62 0.984 . S
H70 N58 0.984 . S
H71 N58 0.985 . S
C72 C73 1.363 . S
C72 C78 1.379 . S
C72 N80 1.356 . S
C73 C72 1.363 . S
C73 C79 1.363 1_655 S
C74 C75 1.369 . S
C74 C79 1.376 1_655 S
C74 N81 1.354 1_655 S
C75 C74 1.369 . S
C75 C78 1.363 . S
N76 C78 1.356 . S
N76 H88 0.984 . S
N76 H89 0.985 . S
N77 C79 1.356 . S
N77 H82 0.984 . S
N77 H83 0.985 . S
C78 C72 1.379 . S
C78 C75 1.363 . S
C78 N76 1.356 . S
C79 C73 1.363 1_455 S
C79 C74 1.376 1_455 S
C79 N77 1.356 . S
N80 C72 1.356 . S
N80 H86 0.984 . S
N80 H87 0.984 . S
N81 C74 1.354 1_455 S
N81 H84 0.984 1_455 S
N81 H85 0.985 . S
H82 N77 0.984 . S
H83 N77 0.985 . S
H84 N81 0.984 1_655 S
H85 N81 0.985 . S
H86 N80 0.984 . S
H87 N80 0.984 . S
H88 N76 0.984 . S
H89 N76 0.985 . S
C90 C91 1.363 . S
C90 C96 1.379 . S
C90 N98 1.356 . S
C91 C90 1.363 . S
C91 C97 1.363 1_565 S
C92 C93 1.363 1_545 S
C92 C97 1.379 . S
C92 N99 1.356 . S
C93 C92 1.363 1_565 S
C93 C96 1.363 . S
N94 C96 1.356 . S
N94 H106 0.984 . S
N94 H107 0.985 . S
N95 C97 1.356 . S
N95 H100 0.984 . S
N95 H101 0.985 . S
C96 C90 1.379 . S
C96 C93 1.363 . S
C96 N94 1.356 . S
C97 C91 1.363 1_545 S
C97 C92 1.379 . S
C97 N95 1.356 . S
N98 C90 1.356 . S
N98 H104 0.984 . S
N98 H105 0.984 . S
N99 C92 1.356 . S
N99 H102 0.984 . S
N99 H103 0.985 . S
H100 N95 0.984 . S
H101 N95 0.985 . S
H102 N99 0.984 . S
H103 N99 0.985 . S
H104 N98 0.984 . S
H105 N98 0.984 . S
H106 N94 0.984 . S
H107 N94 0.985 . S
C108 C109 1.363 . S
C108 C114 1.379 . S
C108 N116 1.356 . S
C109 C108 1.363 . S
C109 C115 1.363 1_455 S
C110 C111 1.363 1_655 S
C110 C115 1.379 . S
C110 N117 1.356 . S
C111 C110 1.363 1_455 S
C111 C114 1.363 . S
N112 C114 1.356 . S
N112 H124 0.984 . S
N112 H125 0.985 . S
N113 C115 1.356 . S
N113 H118 0.984 . S
N113 H119 0.985 . S
C114 C108 1.379 . S
C114 C111 1.363 . S
C114 N112 1.356 . S
C115 C109 1.363 1_655 S
C115 C110 1.379 . S
C115 N113 1.356 . S
N116 C108 1.356 . S
N116 H122 0.984 . S
N116 H123 0.984 . S
N117 C110 1.356 . S
N117 H120 0.984 . S
N117 H121 0.985 . S
H118 N113 0.984 . S
H119 N113 0.985 . S
H120 N117 0.984 . S
H121 N117 0.985 . S
H122 N116 0.984 . S
H123 N116 0.984 . S
H124 N112 0.984 . S
H125 N112 0.985 . S
C126 C127 1.363 1_545 S
C126 C132 1.379 . S
C126 N134 1.356 . S
C127 C126 1.363 1_565 S
C127 C133 1.363 . S
C128 C129 1.363 . S
C128 C133 1.379 . S
C128 N135 1.356 . S
C129 C128 1.363 . S
C129 C132 1.363 1_565 S
N130 C132 1.356 . S
N130 H142 0.984 . S
N130 H143 0.985 . S
N131 C133 1.356 . S
N131 H136 0.984 . S
N131 H137 0.985 . S
C132 C126 1.379 . S
C132 C129 1.363 1_545 S
C132 N130 1.356 . S
C133 C127 1.363 . S
C133 C128 1.379 . S
C133 N131 1.356 . S
N134 C126 1.356 . S
N134 H140 0.984 . S
N134 H141 0.984 . S
N135 C128 1.356 . S
N135 H138 0.984 . S
N135 H139 0.985 . S
H136 N131 0.984 . S
H137 N131 0.985 . S
H138 N135 0.984 . S
H139 N135 0.985 . S
H140 N134 0.984 . S
H141 N134 0.984 . S
H142 N130 0.984 . S
H143 N130 0.985 . S
C144 C145 1.363 1_655 S
C144 C150 1.379 . S
C144 N152 1.356 . S
C145 C144 1.363 1_455 S
C145 C151 1.363 . S
C146 C147 1.363 . S
C146 C151 1.379 . S
C146 N153 1.356 . S
C147 C146 1.363 . S
C147 C150 1.363 1_455 S
N148 C150 1.356 . S
N148 H160 0.984 . S
N148 H161 0.985 . S
N149 C151 1.356 . S
N149 H154 0.984 . S
N149 H155 0.985 . S
C150 C144 1.379 . S
C150 C147 1.363 1_655 S
C150 N148 1.356 . S
C151 C145 1.363 . S
C151 C146 1.379 . S
C151 N149 1.356 . S
N152 C144 1.356 . S
N152 H158 0.984 . S
N152 H159 0.984 . S
N153 C146 1.356 . S
N153 H156 0.984 . S
N153 H157 0.985 . S
H154 N149 0.984 . S
H155 N149 0.985 . S
H156 N153 0.984 . S
H157 N153 0.985 . S
H158 N152 0.984 . S
H159 N152 0.984 . S
H160 N148 0.984 . S
H161 N148 0.985 . S
C162 C163 1.363 . S
C162 C168 1.379 . S
C162 N170 1.356 . S
C163 C162 1.363 . S
C163 C169 1.363 1_545 S
C164 C165 1.363 1_565 S
C164 C169 1.379 . S
C164 N171 1.356 . S
C165 C164 1.363 1_545 S
C165 C168 1.363 . S
N166 C168 1.356 . S
N166 H178 0.984 . S
N166 H179 0.985 . S
N167 C169 1.356 . S
N167 H172 0.984 . S
N167 H173 0.985 . S
C168 C162 1.379 . S
C168 C165 1.363 . S
C168 N166 1.356 . S
C169 C163 1.363 1_565 S
C169 C164 1.379 . S
C169 N167 1.356 . S
N170 C162 1.356 . S
N170 H176 0.984 . S
N170 H177 0.984 . S
N171 C164 1.356 . S
N171 H174 0.984 . S
N171 H175 0.985 . S
H172 N167 0.984 . S
H173 N167 0.985 . S
H174 N171 0.984 . S
H175 N171 0.985 . S
H176 N170 0.984 . S
H177 N170 0.984 . S
H178 N166 0.984 . S
H179 N166 0.985 . S
C180 C181 1.363 . S
C180 C186 1.379 . S
C180 N188 1.356 . S
C181 C180 1.363 . S
C181 C187 1.363 1_655 S
C182 C183 1.363 1_455 S
C182 C187 1.379 . S
C182 N189 1.356 . S
C183 C182 1.363 1_655 S
C183 C186 1.363 . S
N184 C186 1.356 . S
N184 H196 0.984 . S
N184 H197 0.985 . S
N185 C187 1.356 . S
N185 H190 0.984 . S
N185 H191 0.985 . S
C186 C180 1.379 . S
C186 C183 1.363 . S
C186 N184 1.356 . S
C187 C181 1.363 1_455 S
C187 C182 1.379 . S
C187 N185 1.356 . S
N188 C180 1.356 . S
N188 H194 0.984 . S
N188 H195 0.984 . S
N189 C182 1.356 . S
N189 H192 0.984 . S
N189 H193 0.985 . S
H190 N185 0.984 . S
H191 N185 0.985 . S
H192 N189 0.984 . S
H193 N189 0.985 . S
H194 N188 0.984 . S
H195 N188 0.984 . S
H196 N184 0.984 . S
H197 N184 0.985 . S
C57 C35 1.525 . S
C55 C5 1.523 1_545 S
C75 C46 1.536 . S
C73 C23 1.617 1_655 S
C93 C34 1.525 . S
C91 C3 1.494 . S
C111 C47 1.536 . S
C109 C14 1.588 . S
C129 C49 1.578 . S
C127 C1 1.555 . S
C147 C33 1.481 . S
C145 C16 1.518 . S
C165 C48 1.578 . S
C163 C10 1.580 1_545 S
C181 C18 1.555 1_655 S
C183 C32 1.481 . S
