# Generated by pormake.
# Topology rtl, (3,6)-cn, num edge types: 1
# Building blocks:
#     Node 0, Type 0, BuildingBlock: OLANEW_clean_sbu_2, # of connection points: 3
#     Node 1, Type 0, BuildingBlock: OLANEW_clean_sbu_2, # of connection points: 3
#     Node 2, Type 0, BuildingBlock: OLANEW_clean_sbu_2, # of connection points: 3
#     Node 3, Type 0, BuildingBlock: OLANEW_clean_sbu_2, # of connection points: 3
#     Node 4, Type 1, BuildingBlock: KUMJIN_clean_sbu_1, # of connection points: 6
#     Node 5, Type 1, BuildingBlock: KUMJIN_clean_sbu_1, # of connection points: 6
#     Edge 6, Type (0, 1), None
#     Edge 7, Type (0, 1), None
#     Edge 8, Type (0, 1), None
#     Edge 9, Type (0, 1), None
#     Edge 10, Type (0, 1), None
#     Edge 11, Type (0, 1), None
#     Edge 12, Type (0, 1), None
#     Edge 13, Type (0, 1), None
#     Edge 14, Type (0, 1), None
#     Edge 15, Type (0, 1), None
#     Edge 16, Type (0, 1), None
#     Edge 17, Type (0, 1), None
# Relax obj value: 0.055
# Max RMSD: 0.217
# Mean RMSD: 0.164
data_MOF--net-rtl--node1-OLANEW_clean_sbu_2--node2-KUMJIN_clean_sbu_1--edge1-none
_symmetry_space_group_name_H-M    P1
_symmetry_Int_Tables_number       1
_symmetry_cell_setting            triclinic
loop_
_symmetry_equiv_pos_as_xyz
'x, y, z'
_cell_length_a     18.86305
_cell_length_b     19.270566
_cell_length_c     15.831452
_cell_angle_alpha  64.329305
_cell_angle_beta   104.48095
_cell_angle_gamma 92.820736
loop_
_atom_site_label
_atom_site_type_symbol
_atom_site_fract_x
_atom_site_fract_y
_atom_site_fract_z
_atom_type_partial_charge
O0 O 0.19507 0.86734 0.88719 0.0
Cd1 Cd 0.32184 0.85226 0.98045 0.0
O2 O 0.16616 0.96168 0.9187 0.0
Cd3 Cd 0.25526 0.93773 0.0468 0.0
O4 O 0.22433 0.89173 0.18308 0.0
C5 C 0.1853 0.93284 0.20146 0.0
O6 O 0.17258 0.007 0.14376 0.0
C7 C 0.14986 0.9205 0.87282 0.0
C8 C 0.39879 0.72239 0.00497 0.0
O9 O 0.38501 0.78188 0.92302 0.0
O10 O 0.37571 0.72408 0.07364 0.0
O11 O 0.66692 0.70788 0.8835 0.0
Cd12 Cd 0.69846 0.81211 0.73889 0.0
O13 O 0.58001 0.6929 0.77334 0.0
Cd14 Cd 0.50082 0.62078 0.73126 0.0
O15 O 0.56791 0.55988 0.68842 0.0
C16 C 0.56899 0.5907 0.59994 0.0
O17 O 0.5242 0.65131 0.53852 0.0
C18 C 0.6104 0.67392 0.86205 0.0
C19 C 0.83434 0.87637 0.71996 0.0
O20 O 0.79573 0.8916 0.7668 0.0
O21 O 0.81235 0.82562 0.68895 0.0
O22 O 0.78849 0.14951 0.37378 0.0
Cd23 Cd 0.68646 0.17961 0.22996 0.0
O24 O 0.85578 0.13208 0.29073 0.0
Cd25 Cd 0.9474 0.08289 0.27334 0.0
O26 O 0.91678 1.00396 0.2075 0.0
C27 C 0.90982 0.01149 0.12192 0.0
O28 O 0.88409 0.95406 0.1023 0.0
C29 C 0.84978 0.12871 0.37016 0.0
C30 C 0.62167 0.32674 0.15672 0.0
O31 O 0.61291 0.27228 0.23557 0.0
O32 O 0.66145 0.31245 0.11065 0.0
O33 O 0.31456 0.28991 0.68437 0.0
Cd34 Cd 0.31692 0.18042 0.64303 0.0
O35 O 0.30716 0.35307 0.53071 0.0
Cd36 Cd 0.31148 0.44619 0.39225 0.0
O37 O 0.35396 0.47486 0.26655 0.0
C38 C 0.41906 0.4488 0.28327 0.0
O39 O 0.45743 0.41002 0.3732 0.0
C40 C 0.31061 0.35428 0.6112 0.0
C41 C 0.1801 0.12032 0.61773 0.0
O42 O 0.22272 0.10458 0.70148 0.0
O43 O 0.20159 0.16508 0.54261 0.0
Eu44 Eu 0.02615 0.95248 0.56904 0.0
C45 C 0.88372 0.26097 0.51261 0.0
N46 N 0.95244 0.2257 0.55635 0.0
C47 C 0.00582 0.347 0.49181 0.0
C48 C 0.87392 0.34153 0.45773 0.0
C49 C 0.01321 0.2671 0.54769 0.0
C50 C 0.93587 0.3845 0.44721 0.0
C51 C 0.75134 0.25187 0.47532 0.0
C52 C 0.82277 0.21619 0.52192 0.0
C53 C 0.74173 0.33241 0.4234 0.0
C54 C 0.8029 0.37693 0.41582 0.0
Eu55 Eu 0.95484 0.09601 0.66619 0.0
N56 N 0.83329 0.13809 0.57499 0.0
C57 C 0.6915 0.20558 0.48304 0.0
C58 C 0.77522 0.09283 0.58406 0.0
C59 C 0.70357 0.12571 0.53713 0.0
H60 H 0.06736 0.23939 0.58639 0.0
H61 H 0.65759 0.08957 0.54415 0.0
H62 H 0.92056 0.79906 0.61328 0.0
H63 H 0.32321 0.95831 0.62572 0.0
H64 H 0.78344 0.0318 0.62855 0.0
H65 H 0.63582 0.23095 0.44788 0.0
H66 H 0.19517 0.01229 0.56329 0.0
H67 H 0.05402 0.37984 0.48514 0.0
H68 H 0.68711 0.36057 0.38871 0.0
H69 H 0.7954 0.43897 0.37659 0.0
H70 H 0.9368 0.65752 0.69 0.0
H71 H 0.93027 0.44664 0.40514 0.0
H72 H 0.34974 0.81688 0.71184 0.0
N73 N 0.03505 0.81536 0.6457 0.0
C74 C 0.10402 0.78075 0.68 0.0
C75 C 0.98434 0.69145 0.6886 0.0
C76 C 0.11562 0.69972 0.71994 0.0
C77 C 0.97541 0.77201 0.64699 0.0
C78 C 0.05475 0.65508 0.72563 0.0
N79 N 0.15026 0.90442 0.62728 0.0
C80 C 0.20633 0.95135 0.60757 0.0
C81 C 0.23533 0.79275 0.70179 0.0
C82 C 0.16325 0.82658 0.67067 0.0
C83 C 0.2936 0.8408 0.68844 0.0
C84 C 0.27891 0.92058 0.64028 0.0
H85 H 0.06146 0.59272 0.75623 0.0
H86 H 0.19698 0.60403 0.77902 0.0
H87 H 0.30188 0.68629 0.76433 0.0
O88 O 0.06371 0.99574 0.43523 0.0
O89 O 0.08686 0.92183 0.72344 0.0
O90 O 0.04221 1.00222 0.77854 0.0
O91 O 0.9836 0.90986 0.46113 0.0
O92 O 0.0726 0.07113 0.54342 0.0
O93 O 0.07399 0.09648 0.67356 0.0
O94 O 0.89162 0.10472 0.75919 0.0
O95 O 0.93817 0.13277 0.50479 0.0
O96 O 0.91534 0.01688 0.50474 0.0
O97 O 0.98929 0.168 0.74291 0.0
O98 O 0.91088 0.97739 0.7228 0.0
O99 O 0.92284 0.91849 0.62462 0.0
C100 C 0.08564 0.94516 0.78984 0.0
C101 C 0.06704 0.90102 0.37618 0.0
C102 C 0.14449 0.89482 0.2764 0.0
C103 C 0.13514 0.8153 0.30959 0.0
C104 C 0.05823 0.82142 0.40756 0.0
C105 C 0.092 0.77916 0.37423 0.0
C106 C 0.10991 0.9376 0.30978 0.0
C107 C 0.10621 0.09255 0.61153 0.0
C108 C 0.0277 0.94654 0.40745 0.0
C109 C 0.18723 0.66598 0.75001 0.0
C110 C 0.2469 0.71247 0.74157 0.0
C111 C 0.90871 0.09184 0.45907 0.0
C112 C 0.94594 0.14681 0.88029 0.0
C113 C 0.92988 0.08156 0.04472 0.0
C114 C 0.95204 0.14772 0.05816 0.0
C115 C 0.96939 0.21121 0.89624 0.0
C116 C 0.92686 0.08206 0.9547 0.0
C117 C 0.9723 0.2116 0.98476 0.0
C118 C 0.89616 0.92367 0.69167 0.0
C119 C 0.93421 0.15245 0.7823 0.0
H120 H 0.15956 0.78113 0.28363 0.0
H121 H 0.02457 0.7916 0.45716 0.0
H122 H 0.08411 0.7182 0.39788 0.0
H123 H 0.11547 0.99923 0.28335 0.0
H124 H 0.95349 0.15164 0.12397 0.0
H125 H 0.98354 0.26206 0.83919 0.0
H126 H 0.90871 0.03249 0.94173 0.0
H127 H 0.98928 0.26208 -0.00394 0.0
Eu128 Eu 0.43738 0.50667 0.97657 0.0
C129 C 0.74991 0.60784 0.12814 0.0
N130 N 0.71693 0.54012 0.16043 0.0
C131 C 0.82589 0.47027 0.17936 0.0
C132 C 0.82286 0.60898 0.12032 0.0
C133 C 0.75335 0.47195 0.18527 0.0
C134 C 0.86093 0.539 0.1471 0.0
C135 C 0.74176 0.74777 0.06226 0.0
C136 C 0.70937 0.67669 0.0986 0.0
C137 C 0.81474 0.74884 0.0558 0.0
C138 C 0.85514 0.67972 0.08472 0.0
Eu139 Eu 0.59586 0.5497 0.1716 0.0
N140 N 0.63802 0.67438 0.10317 0.0
C141 C 0.69972 0.81587 0.03304 0.0
C142 C 0.59815 0.74032 0.07941 0.0
C143 C 0.62783 0.81202 0.04238 0.0
H144 H 0.7276 0.41839 0.21268 0.0
H145 H 0.59558 0.86424 0.02246 0.0
H146 H 0.30001 0.6278 0.94466 0.0
H147 H 0.45338 0.19197 0.12008 0.0
H148 H 0.54423 0.73829 0.0912 0.0
H149 H 0.72258 0.87158 0.00455 0.0
H150 H 0.49421 0.32257 0.04312 0.0
H151 H 0.85492 0.41586 0.2005 0.0
H152 H 0.84038 0.80296 0.02798 0.0
H153 H 0.91118 0.68165 0.07847 0.0
H154 H 0.17585 0.62105 0.97063 0.0
H155 H 0.91714 0.53748 0.1425 0.0
H156 H 0.33321 0.17433 0.15999 0.0
N157 N 0.31961 0.50633 0.00359 0.0
C158 C 0.29232 0.43594 0.04282 0.0
C159 C 0.20806 0.56857 0.99152 0.0
C160 C 0.22098 0.42952 0.05722 0.0
C161 C 0.27861 0.57226 0.97731 0.0
C162 C 0.17891 0.49695 0.03109 0.0
N163 N 0.40543 0.37805 0.0557 0.0
C164 C 0.4453 0.3155 0.06849 0.0
C165 C 0.30885 0.29659 0.10917 0.0
C166 C 0.33662 0.37015 0.07033 0.0
C167 C 0.35266 0.23173 0.13043 0.0
C168 C 0.42076 0.24138 0.10873 0.0
H169 H 0.12391 0.49437 0.04107 0.0
H170 H 0.13896 0.35028 0.10787 0.0
H171 H 0.2154 0.23405 0.15207 0.0
O172 O 0.43481 0.45791 0.87344 0.0
O173 O 0.41157 0.49678 0.11414 0.0
O174 O 0.52273 0.45169 0.22107 0.0
O175 O 0.35505 0.55126 0.8368 0.0
O176 O 0.55156 0.44324 0.03268 0.0
O177 O 0.59025 0.42712 0.19067 0.0
O178 O 0.57878 0.58742 0.27699 0.0
O179 O 0.61971 0.57963 0.02594 0.0
O180 O 0.50837 0.60416 0.91144 0.0
O181 O 0.67394 0.50955 0.31431 0.0
O182 O 0.48632 0.61884 0.11152 0.0
O183 O 0.43633 0.63149 0.95505 0.0
C184 C 0.45205 0.46411 0.20317 0.0
C185 C 0.34414 0.5001 0.71773 0.0
C186 C 0.31122 0.42778 0.62026 0.0
C187 C 0.27472 0.49525 0.54147 0.0
C188 C 0.30701 0.56657 0.63805 0.0
C189 C 0.27273 0.56406 0.55048 0.0
C190 C 0.34593 0.43067 0.70855 0.0
C191 C 0.58858 0.40399 0.12361 0.0
C192 C 0.37782 0.50253 0.81125 0.0
C193 C 0.19386 0.3563 0.09707 0.0
C194 C 0.23756 0.29008 0.12269 0.0
C195 C 0.57847 0.61515 0.93714 0.0
C196 C 0.65837 0.54556 0.43918 0.0
C197 C 0.62336 0.56275 0.56736 0.0
C198 C 0.69247 0.52979 0.62993 0.0
C199 C 0.72766 0.51381 0.50198 0.0
C200 C 0.60703 0.57113 0.47194 0.0
C201 C 0.74459 0.5063 0.59681 0.0
C202 C 0.44397 0.65527 0.02332 0.0
C203 C 0.63669 0.54665 0.34256 0.0
H204 H 0.24592 0.49447 0.4736 0.0
H205 H 0.30434 0.62046 0.64351 0.0
H206 H 0.2438 0.6155 0.48957 0.0
H207 H 0.37363 0.37885 0.77026 0.0
H208 H 0.70664 0.52358 0.70364 0.0
H209 H 0.7684 0.49415 0.47833 0.0
H210 H 0.55326 0.59536 0.42415 0.0
H211 H 0.79805 0.48173 0.64496 0.0
loop_
_geom_bond_atom_site_label_1
_geom_bond_atom_site_label_2
_geom_bond_distance
_geom_bond_site_symmetry_2
_ccdc_geom_bond_type
O0 Cd1 2.300 1_556 S
O0 C7 1.275 . S
Cd1 O0 2.300 1_554 S
Cd1 O9 2.381 . S
Cd1 O10 2.378 . S
O2 Cd3 2.385 1_566 S
O2 C7 1.255 . S
Cd3 O2 2.385 1_544 S
Cd3 O4 2.317 1_545 S
O4 Cd3 2.317 1_565 S
O4 C5 1.232 . S
C5 O4 1.232 . S
C5 O6 1.218 1_565 S
O6 C5 1.218 1_545 S
C7 O0 1.275 . S
C7 O2 1.255 . S
C8 O9 1.258 . S
C8 O10 1.256 . S
O9 Cd1 2.381 . S
O9 C8 1.258 . S
O10 Cd1 2.378 . S
O10 C8 1.256 . S
O11 Cd12 2.300 . S
O11 C18 1.275 . S
Cd12 O11 2.300 . S
Cd12 O20 2.381 . S
Cd12 O21 2.378 . S
O13 Cd14 2.385 . S
O13 C18 1.255 . S
Cd14 O13 2.385 . S
Cd14 O15 2.317 . S
O15 Cd14 2.317 . S
O15 C16 1.232 . S
C16 O15 1.232 . S
C16 O17 1.218 . S
O17 C16 1.218 . S
C18 O11 1.275 . S
C18 O13 1.255 . S
C19 O20 1.258 . S
C19 O21 1.256 . S
O20 Cd12 2.381 . S
O20 C19 1.258 . S
O21 Cd12 2.378 . S
O21 C19 1.256 . S
O22 Cd23 2.300 . S
O22 C29 1.275 . S
Cd23 O22 2.300 . S
Cd23 O31 2.381 . S
Cd23 O32 2.378 . S
O24 Cd25 2.385 . S
O24 C29 1.255 . S
Cd25 O24 2.385 . S
Cd25 O26 2.317 . S
O26 Cd25 2.317 . S
O26 C27 1.232 . S
C27 O26 1.232 . S
C27 O28 1.218 . S
O28 C27 1.218 . S
C29 O22 1.275 . S
C29 O24 1.255 . S
C30 O31 1.258 . S
C30 O32 1.256 . S
O31 Cd23 2.381 . S
O31 C30 1.258 . S
O32 Cd23 2.378 . S
O32 C30 1.256 . S
O33 Cd34 2.300 . S
O33 C40 1.275 . S
Cd34 O33 2.300 . S
Cd34 O42 2.381 . S
Cd34 O43 2.378 . S
O35 Cd36 2.385 . S
O35 C40 1.255 . S
Cd36 O35 2.385 . S
Cd36 O37 2.317 . S
O37 Cd36 2.317 . S
O37 C38 1.232 . S
C38 O37 1.232 . S
C38 O39 1.218 . S
O39 C38 1.218 . S
C40 O33 1.275 . S
C40 O35 1.255 . S
C41 O42 1.258 . S
C41 O43 1.256 . S
O42 Cd34 2.381 . S
O42 C41 1.258 . S
O43 Cd34 2.378 . S
O43 C41 1.256 . S
Eu44 N73 2.600 . S
Eu44 N79 2.562 . S
Eu44 O88 2.462 . S
Eu44 O89 2.373 . S
Eu44 O91 2.432 . S
Eu44 O92 2.291 1_565 S
Eu44 O96 2.335 1_465 S
Eu44 O99 2.372 1_455 S
Eu44 C108 2.787 . S
C45 N46 1.365 . S
C45 C48 1.405 . S
C45 C52 1.448 . S
N46 C45 1.365 . S
N46 C49 1.319 1_655 S
N46 Eu55 2.600 . S
C47 C49 1.397 1_655 S
C47 C50 1.367 . S
C47 H67 0.931 1_655 S
C48 C45 1.405 . S
C48 C50 1.403 . S
C48 C54 1.439 . S
C49 N46 1.319 1_455 S
C49 C47 1.397 1_455 S
C49 H60 0.930 . S
C50 C47 1.367 . S
C50 C48 1.403 . S
C50 H71 0.929 . S
C51 C52 1.430 . S
C51 C53 1.387 . S
C51 C57 1.404 . S
C52 C45 1.448 . S
C52 C51 1.430 . S
C52 N56 1.351 . S
C53 C51 1.387 . S
C53 C54 1.374 . S
C53 H68 0.931 . S
C54 C48 1.439 . S
C54 C53 1.374 . S
C54 H69 0.931 . S
Eu55 N46 2.600 . S
Eu55 N56 2.562 . S
Eu55 O90 2.335 1_645 S
Eu55 O93 2.372 1_655 S
Eu55 O94 2.462 . S
Eu55 O95 2.373 . S
Eu55 O97 2.432 . S
Eu55 O98 2.291 1_545 S
Eu55 C119 2.787 . S
N56 C52 1.351 . S
N56 Eu55 2.562 . S
N56 C58 1.325 . S
C57 C51 1.404 . S
C57 C59 1.366 . S
C57 H65 0.930 . S
C58 N56 1.325 . S
C58 C59 1.416 . S
C58 H64 0.929 . S
C59 C57 1.366 . S
C59 C58 1.416 . S
C59 H61 0.930 . S
H60 C49 0.930 . S
H61 C59 0.930 . S
H62 C77 0.930 1_655 S
H63 C84 0.930 . S
H64 C58 0.929 . S
H65 C57 0.930 . S
H66 C80 0.929 . S
H67 C47 0.931 1_455 S
H68 C53 0.931 . S
H69 C54 0.931 . S
H70 C75 0.931 1_655 S
H71 C50 0.929 . S
H72 C83 0.930 . S
N73 Eu44 2.600 . S
N73 C74 1.365 . S
N73 C77 1.319 . S
C74 N73 1.365 . S
C74 C76 1.405 . S
C74 C82 1.448 . S
C75 H70 0.931 1_455 S
C75 C77 1.397 . S
C75 C78 1.367 . S
C76 C74 1.405 . S
C76 C78 1.403 . S
C76 C109 1.439 . S
C77 H62 0.930 1_455 S
C77 N73 1.319 . S
C77 C75 1.397 . S
C78 C75 1.367 . S
C78 C76 1.403 . S
C78 H85 0.929 . S
N79 Eu44 2.562 . S
N79 C80 1.325 . S
N79 C82 1.351 . S
C80 H66 0.929 . S
C80 N79 1.325 . S
C80 C84 1.416 . S
C81 C82 1.430 . S
C81 C83 1.404 . S
C81 C110 1.387 . S
C82 C74 1.448 . S
C82 N79 1.351 . S
C82 C81 1.430 . S
C83 H72 0.930 . S
C83 C81 1.404 . S
C83 C84 1.366 . S
C84 H63 0.930 . S
C84 C80 1.416 . S
C84 C83 1.366 . S
H85 C78 0.929 . S
H86 C109 0.931 . S
H87 C110 0.931 . S
O88 Eu44 2.462 . S
O88 C108 1.252 . S
O89 Eu44 2.373 . S
O89 C100 1.249 . S
O90 Eu55 2.335 1_465 S
O90 C100 1.264 . S
O91 Eu44 2.432 . S
O91 C108 1.268 . S
O92 Eu44 2.291 1_545 S
O92 C107 1.255 . S
O93 Eu55 2.372 1_455 S
O93 C107 1.257 . S
O94 Eu55 2.462 . S
O94 C119 1.252 . S
O95 Eu55 2.373 . S
O95 C111 1.249 . S
O96 Eu44 2.335 1_645 S
O96 C111 1.264 . S
O97 Eu55 2.432 . S
O97 C119 1.268 . S
O98 Eu55 2.291 1_565 S
O98 C118 1.255 . S
O99 Eu44 2.372 1_655 S
O99 C118 1.257 . S
C100 O89 1.249 . S
C100 O90 1.264 . S
C101 C104 1.382 . S
C101 C106 1.390 . S
C101 C108 1.506 . S
C102 C103 1.398 . S
C102 C106 1.392 . S
C103 C102 1.398 . S
C103 C105 1.372 . S
C103 H120 0.931 . S
C104 C101 1.382 . S
C104 C105 1.390 . S
C104 H121 0.931 . S
C105 C103 1.372 . S
C105 C104 1.390 . S
C105 H122 0.929 . S
C106 C101 1.390 . S
C106 C102 1.392 . S
C106 H123 0.930 . S
C107 O92 1.255 . S
C107 O93 1.257 . S
C108 Eu44 2.787 . S
C108 O88 1.252 . S
C108 O91 1.268 . S
C108 C101 1.506 . S
C109 C76 1.439 . S
C109 H86 0.931 . S
C109 C110 1.374 . S
C110 C81 1.387 . S
C110 H87 0.931 . S
C110 C109 1.374 . S
C111 O95 1.249 . S
C111 O96 1.264 . S
C112 C115 1.382 . S
C112 C116 1.390 . S
C112 C119 1.506 . S
C113 C114 1.398 . S
C113 C116 1.392 1_554 S
C114 C113 1.398 . S
C114 C117 1.372 1_554 S
C114 H124 0.931 . S
C115 C112 1.382 . S
C115 C117 1.390 . S
C115 H125 0.931 . S
C116 C112 1.390 . S
C116 C113 1.392 1_556 S
C116 H126 0.930 . S
C117 C114 1.372 1_556 S
C117 C115 1.390 . S
C117 H127 0.929 1_556 S
C118 O98 1.255 . S
C118 O99 1.257 . S
C119 Eu55 2.787 . S
C119 O94 1.252 . S
C119 O97 1.268 . S
C119 C112 1.506 . S
H120 C103 0.931 . S
H121 C104 0.931 . S
H122 C105 0.929 . S
H123 C106 0.930 . S
H124 C114 0.931 . S
H125 C115 0.931 . S
H126 C116 0.930 . S
H127 C117 0.929 1_554 S
Eu128 N157 2.600 . S
Eu128 N163 2.562 1_556 S
Eu128 O172 2.462 . S
Eu128 O173 2.373 1_556 S
Eu128 O175 2.432 . S
Eu128 O176 2.291 1_556 S
Eu128 O180 2.335 . S
Eu128 O183 2.372 . S
Eu128 C192 2.787 . S
C129 N130 1.365 . S
C129 C132 1.405 . S
C129 C136 1.448 . S
N130 C129 1.365 . S
N130 C133 1.319 . S
N130 Eu139 2.600 . S
C131 C133 1.397 . S
C131 C134 1.367 . S
C131 H151 0.931 . S
C132 C129 1.405 . S
C132 C134 1.403 . S
C132 C138 1.439 . S
C133 N130 1.319 . S
C133 C131 1.397 . S
C133 H144 0.930 . S
C134 C131 1.367 . S
C134 C132 1.403 . S
C134 H155 0.929 . S
C135 C136 1.430 . S
C135 C137 1.387 . S
C135 C141 1.404 . S
C136 C129 1.448 . S
C136 C135 1.430 . S
C136 N140 1.351 . S
C137 C135 1.387 . S
C137 C138 1.374 . S
C137 H152 0.931 . S
C138 C132 1.439 . S
C138 C137 1.374 . S
C138 H153 0.931 . S
Eu139 N130 2.600 . S
Eu139 N140 2.562 . S
Eu139 O174 2.335 . S
Eu139 O177 2.372 . S
Eu139 O178 2.462 . S
Eu139 O179 2.373 . S
Eu139 O181 2.432 . S
Eu139 O182 2.291 . S
Eu139 C203 2.787 . S
N140 C136 1.351 . S
N140 Eu139 2.562 . S
N140 C142 1.325 . S
C141 C135 1.404 . S
C141 C143 1.366 . S
C141 H149 0.930 1_554 S
C142 N140 1.325 . S
C142 C143 1.416 . S
C142 H148 0.929 . S
C143 C141 1.366 . S
C143 C142 1.416 . S
C143 H145 0.930 . S
H144 C133 0.930 . S
H145 C143 0.930 . S
H146 C161 0.930 . S
H147 C168 0.930 . S
H148 C142 0.929 . S
H149 C141 0.930 1_556 S
H150 C164 0.929 . S
H151 C131 0.931 . S
H152 C137 0.931 . S
H153 C138 0.931 . S
H154 C159 0.931 . S
H155 C134 0.929 . S
H156 C167 0.930 . S
N157 Eu128 2.600 . S
N157 C158 1.365 1_556 S
N157 C161 1.319 . S
C158 N157 1.365 1_554 S
C158 C160 1.405 . S
C158 C166 1.448 . S
C159 H154 0.931 . S
C159 C161 1.397 . S
C159 C162 1.367 . S
C160 C158 1.405 . S
C160 C162 1.403 1_554 S
C160 C193 1.439 . S
C161 H146 0.930 . S
C161 N157 1.319 . S
C161 C159 1.397 . S
C162 C159 1.367 . S
C162 C160 1.403 1_556 S
C162 H169 0.929 . S
N163 Eu128 2.562 1_554 S
N163 C164 1.325 . S
N163 C166 1.351 . S
C164 H150 0.929 . S
C164 N163 1.325 . S
C164 C168 1.416 . S
C165 C166 1.430 . S
C165 C167 1.404 . S
C165 C194 1.387 . S
C166 C158 1.448 . S
C166 N163 1.351 . S
C166 C165 1.430 . S
C167 H156 0.930 . S
C167 C165 1.404 . S
C167 C168 1.366 . S
C168 H147 0.930 . S
C168 C164 1.416 . S
C168 C167 1.366 . S
H169 C162 0.929 . S
H170 C193 0.931 . S
H171 C194 0.931 . S
O172 Eu128 2.462 . S
O172 C192 1.252 . S
O173 Eu128 2.373 1_554 S
O173 C184 1.249 . S
O174 Eu139 2.335 . S
O174 C184 1.264 . S
O175 Eu128 2.432 . S
O175 C192 1.268 . S
O176 Eu128 2.291 1_554 S
O176 C191 1.255 . S
O177 Eu139 2.372 . S
O177 C191 1.257 . S
O178 Eu139 2.462 . S
O178 C203 1.252 . S
O179 Eu139 2.373 . S
O179 C195 1.249 1_554 S
O180 Eu128 2.335 . S
O180 C195 1.264 . S
O181 Eu139 2.432 . S
O181 C203 1.268 . S
O182 Eu139 2.291 . S
O182 C202 1.255 . S
O183 Eu128 2.372 . S
O183 C202 1.257 1_556 S
C184 O173 1.249 . S
C184 O174 1.264 . S
C185 C188 1.382 . S
C185 C190 1.390 . S
C185 C192 1.506 . S
C186 C187 1.398 . S
C186 C190 1.392 . S
C187 C186 1.398 . S
C187 C189 1.372 . S
C187 H204 0.931 . S
C188 C185 1.382 . S
C188 C189 1.390 . S
C188 H205 0.931 . S
C189 C187 1.372 . S
C189 C188 1.390 . S
C189 H206 0.929 . S
C190 C185 1.390 . S
C190 C186 1.392 . S
C190 H207 0.930 . S
C191 O176 1.255 . S
C191 O177 1.257 . S
C192 Eu128 2.787 . S
C192 O172 1.252 . S
C192 O175 1.268 . S
C192 C185 1.506 . S
C193 C160 1.439 . S
C193 H170 0.931 . S
C193 C194 1.374 . S
C194 C165 1.387 . S
C194 H171 0.931 . S
C194 C193 1.374 . S
C195 O179 1.249 1_556 S
C195 O180 1.264 . S
C196 C199 1.382 . S
C196 C200 1.390 . S
C196 C203 1.506 . S
C197 C198 1.398 . S
C197 C200 1.392 . S
C198 C197 1.398 . S
C198 C201 1.372 . S
C198 H208 0.931 . S
C199 C196 1.382 . S
C199 C201 1.390 . S
C199 H209 0.931 . S
C200 C196 1.390 . S
C200 C197 1.392 . S
C200 H210 0.930 . S
C201 C198 1.372 . S
C201 C199 1.390 . S
C201 H211 0.929 . S
C202 O182 1.255 . S
C202 O183 1.257 1_554 S
C203 Eu139 2.787 . S
C203 O178 1.252 . S
C203 O181 1.268 . S
C203 C196 1.506 . S
H204 C187 0.931 . S
H205 C188 0.931 . S
H206 C189 0.929 . S
H207 C190 0.930 . S
H208 C198 0.931 . S
H209 C199 0.931 . S
H210 C200 0.930 . S
H211 C201 0.929 . S
C107 C41 1.657 . S
C8 C202 1.846 . S
C19 C118 2.221 . S
C30 C191 1.628 . S
C102 C5 1.500 . S
C195 C18 2.151 . S
C29 C111 1.860 . S
C40 C186 1.620 . S
C197 C16 1.100 . S
C113 C27 0.854 . S
C184 C38 1.212 . S
C7 C100 1.785 . S
