# Generated by pormake.
# Topology anh, (6,3)-cn, num edge types: 1
# Building blocks:
#     Node 0, Type 0, BuildingBlock: BETDIP_clean_sbu_0, # of connection points: 6
#     Node 1, Type 0, BuildingBlock: BETDIP_clean_sbu_0, # of connection points: 6
#     Node 2, Type 0, BuildingBlock: BETDIP_clean_sbu_0, # of connection points: 6
#     Node 3, Type 1, BuildingBlock: OLANEW_clean_sbu_2, # of connection points: 3
#     Node 4, Type 1, BuildingBlock: OLANEW_clean_sbu_2, # of connection points: 3
#     Node 5, Type 1, BuildingBlock: OLANEW_clean_sbu_2, # of connection points: 3
#     Node 6, Type 1, BuildingBlock: OLANEW_clean_sbu_2, # of connection points: 3
#     Node 7, Type 1, BuildingBlock: OLANEW_clean_sbu_2, # of connection points: 3
#     Node 8, Type 1, BuildingBlock: OLANEW_clean_sbu_2, # of connection points: 3
#     Edge 9, Type (0, 1), None
#     Edge 10, Type (0, 1), None
#     Edge 11, Type (0, 1), None
#     Edge 12, Type (0, 1), None
#     Edge 13, Type (0, 1), None
#     Edge 14, Type (0, 1), None
#     Edge 15, Type (0, 1), None
#     Edge 16, Type (0, 1), None
#     Edge 17, Type (0, 1), None
#     Edge 18, Type (0, 1), None
#     Edge 19, Type (0, 1), None
#     Edge 20, Type (0, 1), None
#     Edge 21, Type (0, 1), None
#     Edge 22, Type (0, 1), None
#     Edge 23, Type (0, 1), None
#     Edge 24, Type (0, 1), None
#     Edge 25, Type (0, 1), None
#     Edge 26, Type (0, 1), None
# Relax obj value: 0.635
# Max RMSD: 0.197
# Mean RMSD: 0.150
data_MOF--net-anh--node1-BETDIP_clean_sbu_0--node2-OLANEW_clean_sbu_2--edge1-none
_symmetry_space_group_name_H-M    P1
_symmetry_Int_Tables_number       1
_symmetry_cell_setting            triclinic
loop_
_symmetry_equiv_pos_as_xyz
'x, y, z'
_cell_length_a     20.042578
_cell_length_b     20.075606
_cell_length_c     22.190426
_cell_angle_alpha  89.348418
_cell_angle_beta   91.703205
_cell_angle_gamma 119.86373
loop_
_atom_site_label
_atom_site_type_symbol
_atom_site_fract_x
_atom_site_fract_y
_atom_site_fract_z
_atom_type_partial_charge
Tb0 Tb 0.13211 0.62286 0.16598 0.0
Tb1 Tb 1.02165 0.44772 0.19147 0.0
C2 C 0.22386 0.76169 0.18438 0.0
C3 C 0.30845 0.80108 0.19333 0.0
C4 C 0.34213 0.78398 0.24334 0.0
C5 C 0.42194 0.81753 0.24952 0.0
C6 C 0.46992 0.86836 0.20563 0.0
C7 C 0.43628 0.88465 0.1552 0.0
C8 C 0.35637 0.85175 0.14936 0.0
C9 C 0.08365 0.53073 0.07211 0.0
C10 C 0.20151 0.51129 0.16241 0.0
C11 C 0.92303 0.30803 0.1821 0.0
C12 C 0.84085 0.27049 0.16465 0.0
C13 C 0.79946 0.30862 0.17476 0.0
C14 C 0.72001 0.27078 0.16704 0.0
C15 C 0.6796 0.19275 0.1514 0.0
C16 C 0.7212 0.15585 0.13677 0.0
C17 C 0.80161 0.1947 0.14332 0.0
C18 C 0.0806 0.52678 0.29472 0.0
C19 C 0.94987 0.56029 0.16017 0.0
O20 O 0.18325 0.71429 0.22725 0.0
O21 O 0.19761 0.73348 0.13022 0.0
O22 O 1.04681 0.52439 0.11872 0.0
O23 O 0.14816 0.59576 0.0739 0.0
O24 O 0.2166 0.58333 0.16866 0.0
O25 O 0.13071 0.45106 0.16837 0.0
O26 O 0.97267 0.34547 0.14005 0.0
O27 O 0.94044 0.34694 0.23254 0.0
O28 O 0.09424 0.5487 0.24074 0.0
O29 O 1.03141 0.45437 0.29138 0.0
O30 O 0.9388 0.49 0.17201 0.0
O31 O 1.0206 0.62132 0.15833 0.0
H32 H 0.30701 0.74438 0.2778 0.0
H33 H 0.44606 0.80408 0.289 0.0
H34 H 0.47164 0.92407 0.12077 0.0
H35 H 0.33195 0.86543 0.11018 0.0
H36 H 0.82771 0.36646 0.19225 0.0
H37 H 0.69004 0.30108 0.17864 0.0
H38 H 0.69157 0.0957 0.1243 0.0
H39 H 0.83249 0.16431 0.13514 0.0
Tb40 Tb 0.63025 1.01603 0.50306 0.0
Tb41 Tb 0.55753 0.11547 0.49532 0.0
C42 C 0.66245 0.91739 0.54101 0.0
C43 C 0.61781 0.83257 0.54275 0.0
C44 C 0.57275 0.79437 0.59264 0.0
C45 C 0.53021 0.71425 0.59402 0.0
C46 C 0.53195 0.67073 0.54559 0.0
C47 C 0.57596 0.70896 0.49534 0.0
C48 C 0.6188 0.78896 0.4941 0.0
C49 C 0.60076 0.04628 0.39348 0.0
C50 C 0.44377 0.93424 0.49106 0.0
C51 C 0.52241 0.21365 0.46009 0.0
C52 C 0.56493 0.29802 0.45934 0.0
C53 C 0.64413 0.339 0.448 0.0
C54 C 0.68641 0.41822 0.45729 0.0
C55 C 0.64974 0.45785 0.47645 0.0
C56 C 0.56968 0.41759 0.4836 0.0
C57 C 0.52763 0.33812 0.4755 0.0
C58 C 0.5867 0.08713 0.60731 0.0
C59 C 0.74289 0.19093 0.48307 0.0
O60 O 0.63892 0.95346 0.57583 0.0
O61 O 0.68123 0.94884 0.48757 0.0
O62 O 0.56131 1.03437 0.43907 0.0
O63 O 0.65733 1.03404 0.40659 0.0
O64 O 0.50545 0.92778 0.50493 0.0
O65 O 0.45102 1.00309 0.48092 0.0
O66 O 0.54722 0.17972 0.42445 0.0
O67 O 0.50668 0.18239 0.51365 0.0
O68 O 0.62779 0.09837 0.56185 0.0
O69 O 0.53023 0.09821 0.59158 0.0
O70 O 0.68039 0.19759 0.47519 0.0
O71 O 0.73779 0.12589 0.50231 0.0
H72 H 0.57089 0.82629 0.63098 0.0
H73 H 0.49745 0.68643 0.63364 0.0
H74 H 0.57954 0.67715 0.45766 0.0
H75 H 0.65321 0.81652 0.45515 0.0
H76 H 0.67414 0.30989 0.43402 0.0
H77 H 0.74807 0.44806 0.45135 0.0
H78 H 0.54029 0.44647 0.49949 0.0
H79 H 0.46665 0.3076 0.48447 0.0
Tb80 Tb 0.52857 0.53751 0.81972 0.0
Tb81 Tb 0.69544 0.62513 0.83194 0.0
C82 C 0.38577 0.46898 0.8295 0.0
C83 C 0.31748 0.46843 0.80401 0.0
C84 C 0.31066 0.53457 0.80252 0.0
C85 C 0.23878 0.52787 0.79095 0.0
C86 C 0.17344 0.45483 0.78227 0.0
C87 C 0.18292 0.3908 0.77503 0.0
C88 C 0.25473 0.39761 0.78608 0.0
C89 C 0.59939 0.56742 0.71664 0.0
C90 C 0.61108 0.7218 0.81059 0.0
C91 C 0.8369 0.67564 0.82429 0.0
C92 C 0.87958 0.64133 0.85351 0.0
C93 C 0.87482 0.57513 0.82816 0.0
C94 C 0.88168 0.52217 0.86502 0.0
C95 C 0.8948 0.53561 0.92726 0.0
C96 C 0.91241 0.60744 0.95055 0.0
C97 C 0.90527 0.66028 0.91377 0.0
C98 C 0.62603 0.59073 0.93872 0.0
C99 C 0.61063 0.44227 0.81717 0.0
O100 O 0.433 0.52649 0.86469 0.0
O101 O 0.42111 0.44794 0.79239 0.0
O102 O 0.61789 0.61152 0.76097 0.0
O103 O 0.53463 0.50646 0.72639 0.0
O104 O 0.54608 0.65658 0.82105 0.0
O105 O 0.67681 0.72134 0.80634 0.0
O106 O 0.78665 0.63343 0.78238 0.0
O107 O 0.80793 0.7044 0.8611 0.0
O108 O 0.60596 0.54791 0.89255 0.0
O109 O 0.69043 0.65148 0.92741 0.0
O110 O 0.67405 0.50831 0.80676 0.0
O111 O 0.55039 0.44306 0.83839 0.0
H112 H 0.3591 0.59016 0.81473 0.0
H113 H 0.23315 0.57839 0.79643 0.0
H114 H 0.13354 0.3341 0.76767 0.0
H115 H 0.25974 0.34629 0.78559 0.0
H116 H 0.85749 0.56004 0.78131 0.0
H117 H 0.87119 0.46852 0.8454 0.0
H118 H 0.9262 0.6207 0.99799 0.0
H119 H 0.91169 0.71201 0.93417 0.0
O120 O 0.51549 0.06235 0.32698 0.0
Cd121 Cd 0.46339 0.06435 0.22604 0.0
O122 O 0.61125 0.05611 0.28695 0.0
Cd123 Cd 0.69387 1.01486 0.28949 0.0
O124 O 0.58256 0.91447 0.26831 0.0
C125 C 0.55438 0.91027 0.2155 0.0
O126 O 0.59913 0.95661 0.17382 0.0
C127 C 0.57645 0.05773 0.3333 0.0
C128 C 0.59705 0.14779 0.16449 0.0
O129 O 0.56361 0.18061 0.18881 0.0
O130 O 0.56208 0.07431 0.16341 0.0
O131 O 0.70821 0.64427 0.6577 0.0
Cd132 Cd 0.7678 0.67567 0.55926 0.0
O133 O 0.61215 0.54108 0.61539 0.0
Cd134 Cd 0.48964 0.45337 0.61344 0.0
O135 O 0.47894 0.55518 0.6019 0.0
C136 C 0.49673 0.58658 0.55047 0.0
O137 O 0.5017 0.54733 0.50563 0.0
C138 C 0.64236 0.58431 0.66123 0.0
C139 C 0.69541 0.53777 0.4974 0.0
O140 O 0.761 0.56107 0.52398 0.0
O141 O 0.66666 0.58224 0.49648 0.0
O142 O 0.08556 0.50385 0.96929 0.0
Cd143 Cd 0.99837 0.4406 0.88237 0.0
O144 O 0.98641 0.42108 1.01826 0.0
Cd145 Cd 0.89692 0.39759 0.08049 0.0
O146 O 0.89619 0.48564 1.02443 0.0
C147 C 0.88556 0.47367 0.96804 0.0
O148 O 0.86573 0.40528 0.94671 0.0
C149 C 1.05262 0.48054 1.01899 0.0
C150 C 0.09913 0.44277 0.802 0.0
O151 O 1.05563 0.38148 0.83136 0.0
O152 O 0.08735 0.49977 0.80525 0.0
O153 O 0.16519 0.63773 0.3562 0.0
Cd154 Cd 0.22293 0.72413 0.45162 0.0
O155 O 0.06433 0.5403 0.39949 0.0
Cd156 Cd 0.95271 0.42466 0.41547 0.0
O157 O 0.83276 0.31891 0.44297 0.0
C158 C 0.82135 0.25663 0.46941 0.0
O159 O 0.82966 0.31854 0.44261 0.0
C160 C 0.10413 0.57108 0.35227 0.0
C161 C 0.36868 0.86286 0.47687 0.0
O162 O 0.36127 0.79583 0.48255 0.0
O163 O 0.30989 0.86584 0.45583 0.0
O164 O 0.60121 1.00624 0.68049 0.0
Cd165 Cd 0.61276 0.93959 0.77797 0.0
O166 O 0.61261 0.11575 0.71434 0.0
Cd167 Cd 0.62204 0.23388 0.73176 0.0
O168 O 0.64404 0.35544 0.76486 0.0
C169 C 0.60211 0.3655 0.80258 0.0
O170 O 0.64675 0.35894 0.76417 0.0
C171 C 0.60265 0.07026 0.67007 0.0
C172 C 0.61007 0.79476 0.79711 0.0
O173 O 0.5478 0.79815 0.79667 0.0
O174 O 0.67212 0.85706 0.78496 0.0
O175 O 0.63309 0.56501 0.04543 0.0
Cd176 Cd 0.76967 0.57543 0.05189 0.0
O177 O 0.52596 0.56223 1.00842 0.0
Cd178 Cd 0.43259 0.54354 0.07758 0.0
O179 O 0.33024 0.55021 0.12451 0.0
C180 C 0.26421 0.49637 0.14254 0.0
O181 O 0.33022 0.55262 0.12506 0.0
C182 C 0.59284 0.56921 1.00039 0.0
C183 C 0.8832 0.56715 0.13364 0.0
O184 O 0.81858 0.50729 0.11962 0.0
O185 O 0.89218 0.6316 0.11441 0.0
loop_
_geom_bond_atom_site_label_1
_geom_bond_atom_site_label_2
_geom_bond_distance
_geom_bond_site_symmetry_2
_ccdc_geom_bond_type
Tb0 C2 2.809 . S
Tb0 O20 2.484 . S
Tb0 O21 2.440 . S
Tb0 O22 2.660 . S
Tb0 O23 2.409 . S
Tb0 O24 2.378 . S
Tb0 O28 2.325 . S
Tb0 O31 2.341 1_455 S
Tb1 C11 2.809 . S
Tb1 O22 2.327 1_655 S
Tb1 O25 2.341 1_655 S
Tb1 O26 2.484 . S
Tb1 O27 2.440 . S
Tb1 O28 2.658 1_655 S
Tb1 O29 2.409 . S
Tb1 O30 2.378 . S
C2 Tb0 2.809 . S
C2 C3 1.514 . S
C2 O20 1.248 . S
C2 O21 1.266 . S
C3 C2 1.514 . S
C3 C4 1.359 . S
C3 C8 1.348 . S
C4 C3 1.359 . S
C4 C5 1.380 . S
C4 H32 0.929 . S
C5 C4 1.380 . S
C5 C6 1.347 . S
C5 H33 0.931 . S
C6 C5 1.347 . S
C6 C7 1.369 . S
C7 C6 1.369 . S
C7 C8 1.408 . S
C7 H34 0.930 . S
C8 C3 1.348 . S
C8 C7 1.408 . S
C8 H35 0.930 . S
C9 O22 1.284 . S
C9 O23 1.254 . S
C10 O24 1.236 . S
C10 O25 1.266 . S
C11 Tb1 2.809 . S
C11 C12 1.514 . S
C11 O26 1.248 . S
C11 O27 1.266 . S
C12 C11 1.514 . S
C12 C13 1.359 . S
C12 C17 1.348 . S
C13 C12 1.359 . S
C13 C14 1.380 . S
C13 H36 0.929 . S
C14 C13 1.380 . S
C14 C15 1.347 . S
C14 H37 0.931 . S
C15 C14 1.347 . S
C15 C16 1.369 . S
C16 C15 1.369 . S
C16 C17 1.408 . S
C16 H38 0.930 . S
C17 C12 1.348 . S
C17 C16 1.408 . S
C17 H39 0.930 . S
C18 O28 1.281 . S
C18 O29 1.254 1_455 S
C19 O30 1.236 . S
C19 O31 1.266 . S
O20 Tb0 2.484 . S
O20 C2 1.248 . S
O21 Tb0 2.440 . S
O21 C2 1.266 . S
O22 Tb0 2.660 . S
O22 Tb1 2.327 1_455 S
O22 C9 1.284 . S
O23 Tb0 2.409 . S
O23 C9 1.254 . S
O24 Tb0 2.378 . S
O24 C10 1.236 . S
O25 Tb1 2.341 1_455 S
O25 C10 1.266 . S
O26 Tb1 2.484 . S
O26 C11 1.248 . S
O27 Tb1 2.440 . S
O27 C11 1.266 . S
O28 Tb0 2.325 . S
O28 Tb1 2.658 1_455 S
O28 C18 1.281 . S
O29 Tb1 2.409 . S
O29 C18 1.254 1_655 S
O30 Tb1 2.378 . S
O30 C19 1.236 . S
O31 Tb0 2.341 1_655 S
O31 C19 1.266 . S
H32 C4 0.929 . S
H33 C5 0.931 . S
H34 C7 0.930 . S
H35 C8 0.930 . S
H36 C13 0.929 . S
H37 C14 0.931 . S
H38 C16 0.930 . S
H39 C17 0.930 . S
Tb40 C42 2.809 . S
Tb40 O60 2.484 . S
Tb40 O61 2.440 . S
Tb40 O62 2.658 1_565 S
Tb40 O63 2.409 . S
Tb40 O64 2.378 . S
Tb40 O68 2.325 . S
Tb40 O71 2.341 1_565 S
Tb41 C51 2.809 . S
Tb41 O62 2.325 . S
Tb41 O65 2.341 1_545 S
Tb41 O66 2.484 . S
Tb41 O67 2.440 . S
Tb41 O68 2.658 1_545 S
Tb41 O69 2.409 . S
Tb41 O70 2.378 . S
C42 Tb40 2.809 . S
C42 C43 1.514 . S
C42 O60 1.248 . S
C42 O61 1.266 . S
C43 C42 1.514 . S
C43 C44 1.359 . S
C43 C48 1.348 . S
C44 C43 1.359 . S
C44 C45 1.380 . S
C44 H72 0.929 . S
C45 C44 1.380 . S
C45 C46 1.347 . S
C45 H73 0.931 . S
C46 C45 1.347 . S
C46 C47 1.369 . S
C47 C46 1.369 . S
C47 C48 1.408 . S
C47 H74 0.930 . S
C48 C43 1.348 . S
C48 C47 1.408 . S
C48 H75 0.930 . S
C49 O62 1.281 . S
C49 O63 1.254 1_545 S
C50 O64 1.236 . S
C50 O65 1.266 . S
C51 Tb41 2.809 . S
C51 C52 1.514 . S
C51 O66 1.248 . S
C51 O67 1.266 . S
C52 C51 1.514 . S
C52 C53 1.359 . S
C52 C57 1.348 . S
C53 C52 1.359 . S
C53 C54 1.380 . S
C53 H76 0.929 . S
C54 C53 1.380 . S
C54 C55 1.347 . S
C54 H77 0.931 . S
C55 C54 1.347 . S
C55 C56 1.369 . S
C56 C55 1.369 . S
C56 C57 1.408 . S
C56 H78 0.930 . S
C57 C52 1.348 . S
C57 C56 1.408 . S
C57 H79 0.930 . S
C58 O68 1.281 1_545 S
C58 O69 1.254 . S
C59 O70 1.236 . S
C59 O71 1.266 . S
O60 Tb40 2.484 . S
O60 C42 1.248 . S
O61 Tb40 2.440 . S
O61 C42 1.266 . S
O62 Tb40 2.658 1_545 S
O62 Tb41 2.325 . S
O62 C49 1.281 . S
O63 Tb40 2.409 . S
O63 C49 1.254 1_565 S
O64 Tb40 2.378 . S
O64 C50 1.236 . S
O65 Tb41 2.341 1_565 S
O65 C50 1.266 . S
O66 Tb41 2.484 . S
O66 C51 1.248 . S
O67 Tb41 2.440 . S
O67 C51 1.266 . S
O68 Tb40 2.325 . S
O68 Tb41 2.658 1_565 S
O68 C58 1.281 1_565 S
O69 Tb41 2.409 . S
O69 C58 1.254 . S
O70 Tb41 2.378 . S
O70 C59 1.236 . S
O71 Tb40 2.341 1_545 S
O71 C59 1.266 . S
H72 C44 0.929 . S
H73 C45 0.931 . S
H74 C47 0.930 . S
H75 C48 0.930 . S
H76 C53 0.929 . S
H77 C54 0.931 . S
H78 C56 0.930 . S
H79 C57 0.930 . S
Tb80 C82 2.809 . S
Tb80 O100 2.484 . S
Tb80 O101 2.440 . S
Tb80 O102 2.658 . S
Tb80 O103 2.409 . S
Tb80 O104 2.378 . S
Tb80 O108 2.325 . S
Tb80 O111 2.341 . S
Tb81 C91 2.809 . S
Tb81 O102 2.325 . S
Tb81 O105 2.341 . S
Tb81 O106 2.484 . S
Tb81 O107 2.440 . S
Tb81 O108 2.658 . S
Tb81 O109 2.409 . S
Tb81 O110 2.378 . S
C82 Tb80 2.809 . S
C82 C83 1.514 . S
C82 O100 1.248 . S
C82 O101 1.266 . S
C83 C82 1.514 . S
C83 C84 1.359 . S
C83 C88 1.348 . S
C84 C83 1.359 . S
C84 C85 1.380 . S
C84 H112 0.929 . S
C85 C84 1.380 . S
C85 C86 1.347 . S
C85 H113 0.931 . S
C86 C85 1.347 . S
C86 C87 1.369 . S
C87 C86 1.369 . S
C87 C88 1.408 . S
C87 H114 0.930 . S
C88 C83 1.348 . S
C88 C87 1.408 . S
C88 H115 0.930 . S
C89 O102 1.281 . S
C89 O103 1.254 . S
C90 O104 1.236 . S
C90 O105 1.266 . S
C91 Tb81 2.809 . S
C91 C92 1.514 . S
C91 O106 1.248 . S
C91 O107 1.266 . S
C92 C91 1.514 . S
C92 C93 1.359 . S
C92 C97 1.348 . S
C93 C92 1.359 . S
C93 C94 1.380 . S
C93 H116 0.929 . S
C94 C93 1.380 . S
C94 C95 1.347 . S
C94 H117 0.931 . S
C95 C94 1.347 . S
C95 C96 1.369 . S
C96 C95 1.369 . S
C96 C97 1.408 . S
C96 H118 0.930 . S
C97 C92 1.348 . S
C97 C96 1.408 . S
C97 H119 0.930 . S
C98 O108 1.281 . S
C98 O109 1.254 . S
C99 O110 1.236 . S
C99 O111 1.266 . S
O100 Tb80 2.484 . S
O100 C82 1.248 . S
O101 Tb80 2.440 . S
O101 C82 1.266 . S
O102 Tb80 2.658 . S
O102 Tb81 2.325 . S
O102 C89 1.281 . S
O103 Tb80 2.409 . S
O103 C89 1.254 . S
O104 Tb80 2.378 . S
O104 C90 1.236 . S
O105 Tb81 2.341 . S
O105 C90 1.266 . S
O106 Tb81 2.484 . S
O106 C91 1.248 . S
O107 Tb81 2.440 . S
O107 C91 1.266 . S
O108 Tb80 2.325 . S
O108 Tb81 2.658 . S
O108 C98 1.281 . S
O109 Tb81 2.409 . S
O109 C98 1.254 . S
O110 Tb81 2.378 . S
O110 C99 1.236 . S
O111 Tb80 2.341 . S
O111 C99 1.266 . S
H112 C84 0.929 . S
H113 C85 0.931 . S
H114 C87 0.930 . S
H115 C88 0.930 . S
H116 C93 0.929 . S
H117 C94 0.931 . S
H118 C96 0.930 . S
H119 C97 0.930 . S
O120 Cd121 2.300 . S
O120 C127 1.275 . S
Cd121 O120 2.300 . S
Cd121 O129 2.381 . S
Cd121 O130 2.378 . S
O122 Cd123 2.385 . S
O122 C127 1.255 1_565 S
Cd123 O122 2.385 . S
Cd123 O124 2.317 . S
O124 Cd123 2.317 . S
O124 C125 1.232 . S
C125 O124 1.232 . S
C125 O126 1.218 . S
O126 C125 1.218 . S
C127 O120 1.275 . S
C127 O122 1.255 1_545 S
C128 O129 1.258 . S
C128 O130 1.256 . S
O129 Cd121 2.381 . S
O129 C128 1.258 . S
O130 Cd121 2.378 . S
O130 C128 1.256 . S
O131 Cd132 2.300 . S
O131 C138 1.275 . S
Cd132 O131 2.300 . S
Cd132 O140 2.381 . S
Cd132 O141 2.378 . S
O133 Cd134 2.385 . S
O133 C138 1.255 . S
Cd134 O133 2.385 . S
Cd134 O135 2.317 . S
O135 Cd134 2.317 . S
O135 C136 1.232 . S
C136 O135 1.232 . S
C136 O137 1.218 . S
O137 C136 1.218 . S
C138 O131 1.275 . S
C138 O133 1.255 . S
C139 O140 1.258 . S
C139 O141 1.256 . S
O140 Cd132 2.381 . S
O140 C139 1.258 . S
O141 Cd132 2.378 . S
O141 C139 1.256 . S
O142 Cd143 2.300 1_554 S
O142 C149 1.260 1_455 S
Cd143 O142 2.300 1_556 S
Cd143 O151 2.381 . S
Cd143 O152 2.378 . S
O144 Cd145 2.385 1_554 S
O144 C149 1.263 . S
Cd145 O144 2.385 1_556 S
Cd145 O146 2.317 . S
O146 Cd145 2.317 . S
O146 C147 1.232 . S
C147 O146 1.232 . S
C147 O148 1.218 . S
O148 C147 1.218 . S
C149 O142 1.260 1_655 S
C149 O144 1.263 . S
C150 O151 1.258 . S
C150 O152 1.256 . S
O151 Cd143 2.381 . S
O151 C150 1.258 . S
O152 Cd143 2.378 . S
O152 C150 1.256 . S
O153 Cd154 2.300 . S
O153 C160 1.275 . S
Cd154 O153 2.300 . S
Cd154 O162 2.381 . S
Cd154 O163 2.378 . S
O155 Cd156 2.385 . S
O155 C160 1.255 1_655 S
Cd156 O155 2.385 . S
Cd156 O157 2.317 . S
O157 Cd156 2.317 . S
O157 C158 1.232 . S
C158 O157 1.232 . S
C158 O159 1.218 . S
O159 C158 1.218 . S
C160 O153 1.275 . S
C160 O155 1.255 1_455 S
C161 O162 1.258 . S
C161 O163 1.256 . S
O162 Cd154 2.381 . S
O162 C161 1.258 . S
O163 Cd154 2.378 . S
O163 C161 1.256 . S
O164 Cd165 2.300 . S
O164 C171 1.275 1_565 S
Cd165 O164 2.300 . S
Cd165 O173 2.381 . S
Cd165 O174 2.378 . S
O166 Cd167 2.385 . S
O166 C171 1.255 . S
Cd167 O166 2.385 . S
Cd167 O168 2.317 . S
O168 Cd167 2.317 . S
O168 C169 1.232 . S
C169 O168 1.232 . S
C169 O170 1.218 . S
O170 C169 1.218 . S
C171 O164 1.275 1_545 S
C171 O166 1.255 . S
C172 O173 1.258 . S
C172 O174 1.256 . S
O173 Cd165 2.381 . S
O173 C172 1.258 . S
O174 Cd165 2.378 . S
O174 C172 1.256 . S
O175 Cd176 2.300 1_556 S
O175 C182 1.275 . S
Cd176 O175 2.300 1_554 S
Cd176 O184 2.381 . S
Cd176 O185 2.378 . S
O177 Cd178 2.385 . S
O177 C182 1.255 1_554 S
Cd178 O177 2.385 . S
Cd178 O179 2.317 . S
O179 Cd178 2.317 . S
O179 C180 1.232 . S
C180 O179 1.232 . S
C180 O181 1.218 . S
O181 C180 1.218 . S
C182 O175 1.275 . S
C182 O177 1.255 1_556 S
C183 O184 1.258 . S
C183 O185 1.256 . S
O184 Cd176 2.381 . S
O184 C183 1.258 . S
O185 Cd176 2.378 . S
O185 C183 1.256 . S
C10 C180 4.500 . S
C59 C158 4.593 . S
C90 C172 4.560 . S
C19 C183 4.585 . S
C161 C50 4.560 . S
C169 C99 4.590 . S
C46 C136 3.032 . S
C95 C147 3.392 . S
C6 C125 3.013 . S
C139 C55 2.726 . S
C150 C86 2.705 . S
C15 C128 2.742 . S
C149 C9 1.297 1_655 S
C49 C127 0.958 . S
C89 C138 0.901 . S
C171 C58 1.894 . S
C182 C98 1.937 . S
C18 C160 1.899 . S
