# Generated by pormake.
# Topology scu, (8,4)-cn, num edge types: 1
# Building blocks:
#     Node 0, Type 0, BuildingBlock: VETTIZ_charged_sbu_0, # of connection points: 8
#     Node 1, Type 1, BuildingBlock: NAWXER_clean_sbu_0, # of connection points: 4
#     Node 2, Type 1, BuildingBlock: NAWXER_clean_sbu_0, # of connection points: 4
#     Edge 3, Type (0, 1), BuildingBlock: AJUNOK_clean_linker_0, # of connection points: 2
#     Edge 4, Type (0, 1), BuildingBlock: AJUNOK_clean_linker_0, # of connection points: 2
#     Edge 5, Type (0, 1), BuildingBlock: AJUNOK_clean_linker_0, # of connection points: 2
#     Edge 6, Type (0, 1), BuildingBlock: AJUNOK_clean_linker_0, # of connection points: 2
#     Edge 7, Type (0, 1), BuildingBlock: AJUNOK_clean_linker_0, # of connection points: 2
#     Edge 8, Type (0, 1), BuildingBlock: AJUNOK_clean_linker_0, # of connection points: 2
#     Edge 9, Type (0, 1), BuildingBlock: AJUNOK_clean_linker_0, # of connection points: 2
#     Edge 10, Type (0, 1), BuildingBlock: AJUNOK_clean_linker_0, # of connection points: 2
# Relax obj value: 0.013
# Max RMSD: 0.059
# Mean RMSD: 0.052
data_MOF--net-scu--node1-VETTIZ_charged_sbu_0--node2-NAWXER_clean_sbu_0--edge1-AJUNOK_clean_linker_0
_symmetry_space_group_name_H-M    P1
_symmetry_Int_Tables_number       1
_symmetry_cell_setting            triclinic
loop_
_symmetry_equiv_pos_as_xyz
'x, y, z'
_cell_length_a     17.048585
_cell_length_b     18.010612
_cell_length_c     15.883326
_cell_angle_alpha  89.830346
_cell_angle_beta   90.157459
_cell_angle_gamma 90.546586
loop_
_atom_site_label
_atom_site_type_symbol
_atom_site_fract_x
_atom_site_fract_y
_atom_site_fract_z
_atom_type_partial_charge
Fe0 Fe 1.06533 0.03912 0.07084 0.0
O1 O 1.05806 0.11401 -0.02262 0.0
Fe2 Fe 0.15475 0.89142 0.96497 0.0
Fe3 Fe 0.97328 0.18864 0.97024 0.0
O4 O 0.07173 0.96693 -0.02482 0.0
O5 O 0.07559 0.96813 0.96604 0.0
O6 O 1.05378 0.11288 0.96801 0.0
Fe7 Fe 1.06346 0.04149 0.87299 0.0
C8 C 0.89778 0.08241 0.09618 0.0
O9 O 1.06312 0.1312 0.15366 0.0
O10 O 1.04255 0.23225 0.0647 0.0
O11 O 0.18013 0.06364 0.8707 0.0
O12 O 0.22605 0.94835 0.8763 0.0
O13 O 0.22075 0.931 0.06086 0.0
O14 O 0.18762 0.04846 0.07954 0.0
O15 O 1.03443 0.23072 0.87154 0.0
O16 O 1.0473 0.12919 0.78596 0.0
C17 C 0.23355 0.99387 0.09315 0.0
O18 O 0.07739 0.95602 0.78339 0.0
O19 O 0.09111 0.85232 0.86602 0.0
O20 O 0.94337 1.0288 0.07846 0.0
O21 O 0.90919 0.14644 0.06606 0.0
C22 C 0.0673 0.20218 0.13459 0.0
C23 C 1.04556 0.20038 0.7994 0.0
C24 C 0.89401 0.06521 0.85832 0.0
O25 O 0.90091 0.13331 0.8815 0.0
O26 O 0.94701 1.01859 0.87378 0.0
C27 C 0.23199 1.01658 0.85271 0.0
O28 O 0.08611 0.84621 0.05922 0.0
O29 O 0.06756 0.94518 0.15087 0.0
C30 C 0.07999 0.88452 0.7946 0.0
C31 C 1.06133 0.87502 0.12945 0.0
C32 C 0.10894 0.64772 0.55514 0.0
C33 C 0.12958 0.44502 0.35175 0.0
O34 O 0.17346 0.62636 0.52312 0.0
Zn35 Zn 0.12771 0.54965 0.4507 0.0
O36 O 1.04438 0.61568 0.53478 0.0
Zn37 Zn 0.99927 0.53384 0.45242 0.0
O38 O 0.9552 0.46033 0.5299 0.0
O39 O 0.08455 0.47093 0.53784 0.0
O40 O 1.06006 0.46073 0.37474 0.0
O41 O 0.18759 0.48488 0.37561 0.0
O42 O 1.065 0.61955 0.37093 0.0
O43 O 0.93741 0.59613 0.37555 0.0
C44 C 1.02045 0.44022 0.56178 0.0
C45 C 0.99509 0.63475 0.34848 0.0
C46 C 0.66414 0.99704 0.59661 0.0
C47 C 0.46023 0.98405 0.36909 0.0
O48 O 0.64233 0.93422 0.56642 0.0
Zn49 Zn 0.56675 0.97382 0.48076 0.0
O50 O 0.63717 0.05652 0.5647 0.0
Zn51 Zn 0.55971 0.09918 0.47671 0.0
O52 O 0.48439 0.14228 0.55888 0.0
O53 O 0.48939 1.01989 0.56595 0.0
O54 O 0.48184 0.04771 0.39539 0.0
O55 O 0.4926 0.92589 0.39926 0.0
O56 O 0.64458 1.02252 0.39724 0.0
O57 O 0.63447 0.14427 0.39406 0.0
C58 C 0.4628 0.08103 0.59331 0.0
C59 C 0.66696 0.08496 0.36778 0.0
C60 C 0.14035 0.31948 0.16549 0.0
C61 C 0.10147 0.25513 0.19582 0.0
C62 C 0.15871 0.37906 0.21882 0.0
C63 C 0.13872 0.376 0.30409 0.0
H64 H 0.1526 0.3257 0.0989 0.0
H65 H 0.18233 0.42984 0.19185 0.0
S66 S 1.04746 0.21699 0.41751 0.0
N67 N 1.05241 0.18905 0.31869 0.0
N68 N 0.08654 0.30127 0.41904 0.0
C69 C 0.10645 0.30967 0.3367 0.0
C70 C 0.08807 0.2489 0.28256 0.0
C71 C 0.78204 0.136 0.17083 0.0
C72 C 0.83536 0.07666 0.16176 0.0
C73 C 0.72974 0.13992 0.23873 0.0
C74 C 0.72752 0.08418 0.30036 0.0
H75 H 0.78125 0.18108 0.12551 0.0
H76 H 0.68995 0.18632 0.24208 0.0
S77 S 0.854 0.91671 0.30755 0.0
N78 N 0.88214 0.961 0.22149 0.0
N79 N 0.7835 0.96727 0.34852 0.0
C80 C 0.77969 1.0239 0.29188 0.0
C81 C 0.83336 1.0202 0.22277 0.0
C82 C 1.04192 0.82684 0.27539 0.0
C83 C 1.02521 0.82198 0.18913 0.0
C84 C 1.02277 0.76794 0.32949 0.0
C85 C 0.98557 0.70302 0.29922 0.0
H86 H 0.07524 0.87349 0.29999 0.0
H87 H 1.04284 0.77067 0.39428 0.0
S88 S 0.91529 0.66991 0.08225 0.0
N89 N 0.9582 0.75249 0.07832 0.0
N90 N 0.92321 0.6416 0.18092 0.0
C91 C 0.9612 0.70086 0.21529 0.0
C92 C 0.98098 0.76054 0.1599 0.0
C93 C 0.29257 0.04553 0.22678 0.0
C94 C 0.29677 0.9964 0.15845 0.0
C95 C 0.34408 0.03906 0.29579 0.0
C96 C 0.40118 0.98269 0.30006 0.0
H97 H 0.24788 0.08785 0.22825 0.0
H98 H 0.33884 0.07858 0.34676 0.0
S99 S 0.44152 0.84408 0.13465 0.0
N100 N 0.36734 0.8924 0.09714 0.0
N101 N 0.46181 0.88003 0.22776 0.0
C102 C 0.40693 0.9341 0.23187 0.0
C103 C 0.35559 0.94125 0.16091 0.0
C104 C 1.03417 0.7682 0.72993 0.0
C105 C 0.07916 0.83354 0.72271 0.0
C106 C 1.04563 0.70851 0.67589 0.0
C107 C 0.1041 0.71079 0.6137 0.0
H108 H 0.9916 0.76209 0.78011 0.0
H109 H 1.00933 0.65932 0.68421 0.0
S110 S 0.23771 0.8695 0.56828 0.0
N111 N 0.18395 0.89803 0.64817 0.0
N112 N 0.20624 0.78465 0.54592 0.0
C113 C 0.14918 0.77611 0.60476 0.0
C114 C 0.13638 0.83788 0.65931 0.0
C115 C 0.36381 0.99904 0.78584 0.0
C116 C 0.29513 0.04071 0.79334 0.0
C117 C 0.41992 1.01627 0.72424 0.0
C118 C 0.40971 0.07562 0.66691 0.0
H119 H 0.37357 0.9516 0.82653 0.0
H120 H 0.47082 0.98097 0.71965 0.0
S121 S 0.24106 0.20243 0.65869 0.0
N122 N 0.22114 0.14584 0.73798 0.0
N123 N 0.32702 0.17663 0.6222 0.0
C124 C 0.34319 0.1195 0.67532 0.0
C125 C 0.28575 0.10233 0.7383 0.0
C126 C 0.99015 0.25247 0.66688 0.0
C127 C 1.04877 0.25342 0.72935 0.0
C128 C 0.97883 0.31434 0.61411 0.0
C129 C 1.02634 0.37828 0.62214 0.0
H130 H 0.95044 0.20537 0.6617 0.0
H131 H 0.93326 0.31192 0.5665 0.0
S132 S 0.18864 0.40678 0.77529 0.0
N133 N 0.15463 0.32263 0.79599 0.0
N134 N 0.13502 0.43777 0.69621 0.0
C135 C 0.08621 0.3787 0.68319 0.0
C136 C 0.097 0.31653 0.73692 0.0
C137 C 0.77146 0.09223 0.77672 0.0
C138 C 0.82903 0.04126 0.8007 0.0
C139 C 0.71684 0.07522 0.71356 0.0
C140 C 0.71714 1.00649 0.6706 0.0
H141 H 0.76988 0.1469 0.80493 0.0
H142 H 0.67504 0.11775 0.69683 0.0
S143 S 0.84973 0.84985 0.71477 0.0
N144 N 0.8784 0.91535 0.7809 0.0
N145 N 0.77572 0.88495 0.6612 0.0
C146 C 0.7712 0.95323 0.69682 0.0
C147 C 0.82711 0.97023 0.76184 0.0
loop_
_geom_bond_atom_site_label_1
_geom_bond_atom_site_label_2
_geom_bond_distance
_geom_bond_site_symmetry_2
_ccdc_geom_bond_type
Fe0 O1 1.886 . S
Fe0 O4 1.715 1_645 S
Fe0 O9 2.077 1_655 S
Fe0 O14 1.935 1_655 S
Fe0 O20 2.077 1_545 S
Fe0 O29 1.935 1_545 S
O1 Fe0 1.886 . S
O1 Fe3 1.715 1_554 S
Fe2 O4 1.886 . S
Fe2 O5 1.715 1_554 S
Fe2 O12 1.935 1_554 S
Fe2 O13 2.077 . S
Fe2 O19 1.935 1_554 S
Fe2 O28 2.077 . S
Fe3 O1 1.715 1_556 S
Fe3 O6 1.886 . S
Fe3 O10 1.935 1_556 S
Fe3 O15 2.077 . S
Fe3 O21 1.935 1_556 S
Fe3 O25 2.077 . S
O4 Fe0 1.715 1_465 S
O4 Fe2 1.886 . S
O5 Fe2 1.715 1_556 S
O5 Fe7 1.886 . S
O6 Fe3 1.886 . S
O6 Fe7 1.715 1_645 S
Fe7 O5 1.886 . S
Fe7 O6 1.715 1_465 S
Fe7 O11 2.077 1_565 S
Fe7 O16 1.935 1_565 S
Fe7 O18 2.077 1_455 S
Fe7 O26 1.935 1_455 S
C8 O20 1.381 1_545 S
C8 O21 1.421 . S
O9 Fe0 2.077 1_455 S
O9 C22 1.381 1_455 S
O10 Fe3 1.935 1_554 S
O10 C22 1.421 . S
O11 Fe7 2.077 1_545 S
O11 C27 1.381 1_545 S
O12 Fe2 1.935 1_556 S
O12 C27 1.421 . S
O13 Fe2 2.077 . S
O13 C17 1.381 . S
O14 Fe0 1.935 1_455 S
O14 C17 1.421 1_545 S
O15 Fe3 2.077 . S
O15 C23 1.381 . S
O16 Fe7 1.935 1_545 S
O16 C23 1.421 1_455 S
C17 O13 1.381 . S
C17 O14 1.421 1_565 S
O18 Fe7 2.077 1_655 S
O18 C30 1.381 1_655 S
O19 Fe2 1.935 1_556 S
O19 C30 1.421 . S
O20 Fe0 2.077 1_565 S
O20 C8 1.381 1_565 S
O21 Fe3 1.935 1_554 S
O21 C8 1.421 . S
C22 O9 1.381 1_655 S
C22 O10 1.421 . S
C23 O15 1.381 . S
C23 O16 1.421 1_655 S
C24 O25 1.381 . S
C24 O26 1.421 1_545 S
O25 Fe3 2.077 . S
O25 C24 1.381 . S
O26 Fe7 1.935 1_655 S
O26 C24 1.421 1_565 S
C27 O11 1.381 1_565 S
C27 O12 1.421 . S
O28 Fe2 2.077 . S
O28 C31 1.381 . S
O29 Fe0 1.935 1_565 S
O29 C31 1.421 1_655 S
C30 O18 1.381 1_455 S
C30 O19 1.421 . S
C31 O28 1.381 . S
C31 O29 1.421 1_455 S
C32 O34 1.251 . S
C32 O36 1.254 1_455 S
C33 O40 1.247 . S
C33 O41 1.258 1_655 S
O34 C32 1.251 . S
O34 Zn35 2.028 . S
Zn35 O34 2.028 . S
Zn35 O39 2.035 . S
Zn35 O41 2.035 . S
Zn35 O42 2.028 . S
O36 C32 1.254 1_655 S
O36 Zn37 2.035 . S
Zn37 O36 2.035 . S
Zn37 O38 2.028 . S
Zn37 O40 2.028 . S
Zn37 O43 2.035 . S
O38 Zn37 2.028 . S
O38 C44 1.247 . S
O39 Zn35 2.035 . S
O39 C44 1.258 1_455 S
O40 C33 1.247 . S
O40 Zn37 2.028 . S
O41 C33 1.258 1_455 S
O41 Zn35 2.035 . S
O42 Zn35 2.028 . S
O42 C45 1.251 . S
O43 Zn37 2.035 . S
O43 C45 1.254 1_655 S
C44 O38 1.247 . S
C44 O39 1.258 1_655 S
C45 O42 1.251 . S
C45 O43 1.254 1_455 S
C46 O48 1.247 . S
C46 O50 1.258 1_565 S
C47 O54 1.251 . S
C47 O55 1.253 1_545 S
O48 C46 1.247 . S
O48 Zn49 2.028 . S
Zn49 O48 2.028 . S
Zn49 O53 2.035 . S
Zn49 O55 2.035 . S
Zn49 O56 2.028 . S
O50 C46 1.258 1_545 S
O50 Zn51 2.035 . S
Zn51 O50 2.035 . S
Zn51 O52 2.028 . S
Zn51 O54 2.028 . S
Zn51 O57 2.035 . S
O52 Zn51 2.028 . S
O52 C58 1.251 . S
O53 Zn49 2.035 . S
O53 C58 1.253 1_565 S
O54 C47 1.251 . S
O54 Zn51 2.028 . S
O55 C47 1.253 1_565 S
O55 Zn49 2.035 . S
O56 Zn49 2.028 . S
O56 C59 1.247 . S
O57 Zn51 2.035 . S
O57 C59 1.258 1_545 S
C58 O52 1.251 . S
C58 O53 1.253 1_545 S
C59 O56 1.247 . S
C59 O57 1.258 1_565 S
C60 C61 1.365 1_455 S
C60 C62 1.419 . S
C60 H64 0.930 . S
C61 C60 1.365 1_655 S
C61 C70 1.433 . S
C62 C60 1.419 . S
C62 C63 1.359 1_455 S
C62 H65 0.929 . S
C63 C62 1.359 1_655 S
C63 C69 1.433 . S
H64 C60 0.930 . S
H65 C62 0.929 . S
S66 N67 1.613 . S
S66 N68 1.610 . S
N67 S66 1.613 . S
N67 C70 1.350 . S
N68 S66 1.610 . S
N68 C69 1.351 . S
C69 C63 1.433 . S
C69 N68 1.351 . S
C69 C70 1.434 . S
C70 C61 1.433 . S
C70 N67 1.350 . S
C70 C69 1.434 . S
C71 C72 1.369 . S
C71 C73 1.419 . S
C71 H75 0.930 . S
C72 C71 1.369 . S
C72 C81 1.428 1_565 S
C73 C71 1.419 . S
C73 C74 1.363 . S
C73 H76 0.929 . S
C74 C73 1.363 . S
C74 C80 1.428 1_565 S
H75 C71 0.930 . S
H76 C73 0.929 . S
S77 N78 1.613 . S
S77 N79 1.610 . S
N78 S77 1.613 . S
N78 C81 1.350 . S
N79 S77 1.610 . S
N79 C80 1.351 . S
C80 C74 1.428 1_545 S
C80 N79 1.351 . S
C80 C81 1.434 . S
C81 C72 1.428 1_545 S
C81 N78 1.350 . S
C81 C80 1.434 . S
C82 C83 1.361 1_455 S
C82 C84 1.419 . S
C82 H86 0.930 . S
C83 C82 1.361 1_655 S
C83 C92 1.436 . S
C84 C82 1.419 . S
C84 C85 1.359 1_455 S
C84 H87 0.929 . S
C85 C84 1.359 1_655 S
C85 C91 1.433 . S
H86 C82 0.930 . S
H87 C84 0.929 . S
S88 N89 1.613 . S
S88 N90 1.610 . S
N89 S88 1.613 . S
N89 C92 1.350 . S
N90 S88 1.610 . S
N90 C91 1.351 . S
C91 C85 1.433 . S
C91 N90 1.351 . S
C91 C92 1.434 . S
C92 C83 1.436 . S
C92 N89 1.350 . S
C92 C91 1.434 . S
C93 C94 1.365 1_545 S
C93 C95 1.419 . S
C93 H97 0.930 . S
C94 C93 1.365 1_565 S
C94 C103 1.433 . S
C95 C93 1.419 . S
C95 C96 1.360 1_545 S
C95 H98 0.929 . S
C96 C95 1.360 1_565 S
C96 C102 1.431 . S
H97 C93 0.930 . S
H98 C95 0.929 . S
S99 N100 1.613 . S
S99 N101 1.610 . S
N100 S99 1.613 . S
N100 C103 1.350 . S
N101 S99 1.610 . S
N101 C102 1.351 . S
C102 C96 1.431 . S
C102 N101 1.351 . S
C102 C103 1.434 . S
C103 C94 1.433 . S
C103 N100 1.350 . S
C103 C102 1.434 . S
C104 C105 1.369 1_655 S
C104 C106 1.419 . S
C104 H108 0.930 . S
C105 C104 1.369 1_455 S
C105 C114 1.429 . S
C106 C104 1.419 . S
C106 C107 1.361 1_655 S
C106 H109 0.929 . S
C107 C106 1.361 1_455 S
C107 C113 1.430 . S
H108 C104 0.930 . S
H109 C106 0.929 . S
S110 N111 1.613 . S
S110 N112 1.610 . S
N111 S110 1.613 . S
N111 C114 1.350 . S
N112 S110 1.610 . S
N112 C113 1.351 . S
C113 C107 1.430 . S
C113 N112 1.351 . S
C113 C114 1.434 . S
C114 C105 1.429 . S
C114 N111 1.350 . S
C114 C113 1.434 . S
C115 C116 1.369 1_565 S
C115 C117 1.419 . S
C115 H119 0.930 . S
C116 C115 1.369 1_545 S
C116 C125 1.429 . S
C117 C115 1.419 . S
C117 C118 1.352 1_565 S
C117 H120 0.929 . S
C118 C117 1.352 1_545 S
C118 C124 1.440 . S
H119 C115 0.930 . S
H120 C117 0.929 . S
S121 N122 1.613 . S
S121 N123 1.610 . S
N122 S121 1.613 . S
N122 C125 1.350 . S
N123 S121 1.610 . S
N123 C124 1.351 . S
C124 C118 1.440 . S
C124 N123 1.351 . S
C124 C125 1.434 . S
C125 C116 1.429 . S
C125 N122 1.350 . S
C125 C124 1.434 . S
C126 C127 1.365 1_655 S
C126 C128 1.419 . S
C126 H130 0.930 . S
C127 C126 1.365 1_455 S
C127 C136 1.432 . S
C128 C126 1.419 . S
C128 C129 1.360 1_655 S
C128 H131 0.929 . S
C129 C128 1.360 1_455 S
C129 C135 1.431 . S
H130 C126 0.930 . S
H131 C128 0.929 . S
S132 N133 1.613 . S
S132 N134 1.610 . S
N133 S132 1.613 . S
N133 C136 1.350 . S
N134 S132 1.610 . S
N134 C135 1.351 . S
C135 C129 1.431 . S
C135 N134 1.351 . S
C135 C136 1.434 . S
C136 C127 1.432 . S
C136 N133 1.350 . S
C136 C135 1.434 . S
C137 C138 1.357 1_545 S
C137 C139 1.419 . S
C137 H141 0.930 . S
C138 C137 1.357 1_565 S
C138 C147 1.441 . S
C139 C137 1.419 . S
C139 C140 1.356 1_545 S
C139 H142 0.929 . S
C140 C139 1.356 1_565 S
C140 C146 1.436 . S
H141 C137 0.930 . S
H142 C139 0.929 . S
S143 N144 1.613 . S
S143 N145 1.610 . S
N144 S143 1.613 . S
N144 C147 1.350 . S
N145 S143 1.610 . S
N145 C146 1.351 . S
C146 C140 1.436 . S
C146 N145 1.351 . S
C146 C147 1.434 . S
C147 C138 1.441 . S
C147 N144 1.350 . S
C147 C146 1.434 . S
C61 C22 1.418 . S
C63 C33 1.469 . S
C72 C8 1.417 1_565 S
C74 C59 1.469 . S
C83 C31 1.418 1_655 S
C85 C45 1.469 1_655 S
C94 C17 1.417 . S
C96 C47 1.469 1_565 S
C105 C30 1.416 . S
C107 C32 1.471 . S
C116 C27 1.422 1_545 S
C118 C58 1.471 . S
C129 C44 1.470 1_455 S
C127 C23 1.420 1_455 S
C138 C24 1.417 1_565 S
C140 C46 1.471 . S
