# Generated by pormake.
# Topology pts, (4,4)-cn, num edge types: 1
# Building blocks:
#     Node 0, Type 0, BuildingBlock: NAWXER_clean_sbu_0, # of connection points: 4
#     Node 1, Type 0, BuildingBlock: NAWXER_clean_sbu_0, # of connection points: 4
#     Node 2, Type 1, BuildingBlock: AZAVOO_clean_sbu_0, # of connection points: 4
#     Node 3, Type 1, BuildingBlock: AZAVOO_clean_sbu_0, # of connection points: 4
#     Edge 4, Type (0, 1), BuildingBlock: EYOCIG_clean_linker_4, # of connection points: 2
#     Edge 5, Type (0, 1), BuildingBlock: EYOCIG_clean_linker_4, # of connection points: 2
#     Edge 6, Type (0, 1), BuildingBlock: EYOCIG_clean_linker_4, # of connection points: 2
#     Edge 7, Type (0, 1), BuildingBlock: EYOCIG_clean_linker_4, # of connection points: 2
#     Edge 8, Type (0, 1), BuildingBlock: EYOCIG_clean_linker_4, # of connection points: 2
#     Edge 9, Type (0, 1), BuildingBlock: EYOCIG_clean_linker_4, # of connection points: 2
#     Edge 10, Type (0, 1), BuildingBlock: EYOCIG_clean_linker_4, # of connection points: 2
#     Edge 11, Type (0, 1), BuildingBlock: EYOCIG_clean_linker_4, # of connection points: 2
# Relax obj value: 0.010
# Max RMSD: 0.056
# Mean RMSD: 0.046
data_MOF--net-pts--node1-NAWXER_clean_sbu_0--node2-AZAVOO_clean_sbu_0--edge1-EYOCIG_clean_linker_4
_symmetry_space_group_name_H-M    P1
_symmetry_Int_Tables_number       1
_symmetry_cell_setting            triclinic
loop_
_symmetry_equiv_pos_as_xyz
'x, y, z'
_cell_length_a     18.438265
_cell_length_b     18.920077
_cell_length_c     30.97033
_cell_angle_alpha  89.936511
_cell_angle_beta   97.767696
_cell_angle_gamma 89.971796
loop_
_atom_site_label
_atom_site_type_symbol
_atom_site_fract_x
_atom_site_fract_y
_atom_site_fract_z
_atom_type_partial_charge
C0 C 0.43227 4e-05 0.93266 0.0
C1 C 0.65768 0.00436 0.05343 0.0
O2 O 0.45968 0.94188 0.94742 0.0
Zn3 Zn 0.5447 0.92472 -0.00557 0.0
O4 O 0.45991 0.05883 0.94582 0.0
Zn5 Zn 0.54461 0.07706 -0.00785 0.0
O6 O 0.61473 0.05665 0.94984 0.0
O7 O 0.61565 0.93968 0.95112 0.0
O8 O 0.62976 0.0623 0.03876 0.0
O9 O 0.63017 0.94534 0.04049 0.0
O10 O 0.47406 0.9438 0.03742 0.0
O11 O 0.47482 0.06072 0.03526 0.0
C12 C 0.63851 -0.00198 0.93782 0.0
C13 C 0.45125 0.00321 0.04909 0.0
C14 C 0.04665 0.61946 0.43471 0.0
C15 C 0.0344 0.42083 0.55172 0.0
O16 O 0.98502 0.59512 0.4414 0.0
Zn17 Zn 0.9686 0.51956 0.48463 0.0
O18 O 0.10574 0.59579 0.45559 0.0
Zn19 Zn 0.12056 0.51982 0.50234 0.0
O20 O 0.11403 0.44541 0.45573 0.0
O21 O -0.00671 0.44528 0.44173 0.0
O22 O 0.09618 0.44458 0.54476 0.0
O23 O 0.97543 0.44437 0.53076 0.0
O24 O 0.98294 0.59443 0.532 0.0
O25 O 0.10365 0.59418 0.54623 0.0
C26 C 0.05518 0.42196 0.43464 0.0
C27 C 0.04185 0.61792 0.55312 0.0
Mg28 Mg 0.10902 0.0024 0.26148 0.0
O29 O 0.0076 0.00292 0.21024 0.0
O30 O 0.90991 0.00518 0.2455 0.0
Mg31 Mg 0.94763 -0.00436 0.31885 0.0
C32 C 0.93884 0.00573 0.21047 0.0
C33 C 0.23812 0.01182 0.20446 0.0
O34 O 0.27523 0.98282 0.2391 0.0
O35 O 0.09217 0.11819 0.28051 0.0
O36 O 0.00089 0.10493 0.32112 0.0
O37 O 0.10969 0.88373 0.26528 0.0
O38 O 0.05497 0.95178 0.30885 0.0
C39 C 0.0496 0.14239 0.30639 0.0
C40 C 0.07248 0.8895 0.29763 0.0
O41 O 0.17183 0.02954 0.20474 0.0
Mg42 Mg 0.97975 0.00129 0.72566 0.0
O43 O 0.08228 0.00134 0.77605 0.0
O44 O 0.17894 0.00173 0.73988 0.0
Mg45 Mg 0.13918 0.99283 0.66675 0.0
C46 C 0.15094 0.00294 0.77522 0.0
C47 C 0.85191 0.0112 0.78294 0.0
O48 O 0.81419 0.98513 0.74761 0.0
O49 O -0.0033 0.11699 0.70614 0.0
O50 O 0.08691 0.10264 0.66489 0.0
O51 O 0.97845 0.8827 0.72264 0.0
O52 O 0.03216 0.94973 0.67798 0.0
C53 C 0.03893 0.14067 0.67989 0.0
C54 C 0.01487 0.88772 0.68991 0.0
O55 O 0.91847 0.0281 0.783 0.0
C56 C 0.35106 0.01065 0.10205 0.0
C57 C 0.39679 0.006 0.0779 0.0
C58 C 0.30378 0.01549 0.13407 0.0
C59 C 0.27017 0.01563 0.16481 0.0
C60 C 0.02797 0.32001 0.61023 0.0
C61 C 0.03118 0.36604 0.58355 0.0
C62 C 0.02544 0.26318 0.63966 0.0
C63 C 0.02625 0.20938 0.66065 0.0
C64 C 0.78077 0.00735 0.1077 0.0
C65 C 0.72456 0.00568 0.08292 0.0
C66 C 0.84352 0.00842 0.1392 0.0
C67 C 0.89115 0.00721 0.16989 0.0
C68 C 0.03747 0.72101 0.61044 0.0
C69 C 0.03888 0.67397 0.58421 0.0
C70 C 0.03392 0.77758 0.63999 0.0
C71 C 0.02492 0.82743 0.66303 0.0
C72 C 0.30998 0.00114 0.87766 0.0
C73 C 0.36582 -0.00028 0.90279 0.0
C74 C 0.24741 0.00309 0.84604 0.0
C75 C 0.1995 0.0031 0.81549 0.0
C76 C 0.06171 0.32166 0.3759 0.0
C77 C 0.05862 0.36744 0.4027 0.0
C78 C 0.0639 0.26484 0.34649 0.0
C79 C 0.06275 0.21097 0.3256 0.0
C80 C 0.73969 0.00277 0.88549 0.0
C81 C 0.69357 -0.00153 0.90939 0.0
C82 C 0.78708 0.0091 0.85363 0.0
C83 C 0.82039 0.01175 0.82281 0.0
C84 C 0.05012 0.72379 0.37805 0.0
C85 C 0.04919 0.67618 0.40399 0.0
C86 C 0.05325 0.78043 0.34845 0.0
C87 C 0.06223 0.82993 0.32509 0.0
loop_
_geom_bond_atom_site_label_1
_geom_bond_atom_site_label_2
_geom_bond_distance
_geom_bond_site_symmetry_2
_ccdc_geom_bond_type
C0 O2 1.247 1_545 S
C0 O4 1.258 . S
C1 O8 1.247 . S
C1 O9 1.258 1_545 S
O2 C0 1.247 1_565 S
O2 Zn3 2.028 1_556 S
Zn3 O2 2.028 1_554 S
Zn3 O7 2.035 1_554 S
Zn3 O9 2.035 . S
Zn3 O10 2.028 . S
O4 C0 1.258 . S
O4 Zn5 2.035 1_556 S
Zn5 O4 2.035 1_554 S
Zn5 O6 2.028 1_554 S
Zn5 O8 2.028 . S
Zn5 O11 2.035 . S
O6 Zn5 2.028 1_556 S
O6 C12 1.247 . S
O7 Zn3 2.035 1_556 S
O7 C12 1.258 1_565 S
O8 C1 1.247 . S
O8 Zn5 2.028 . S
O9 C1 1.258 1_565 S
O9 Zn3 2.035 . S
O10 Zn3 2.028 . S
O10 C13 1.247 1_565 S
O11 Zn5 2.035 . S
O11 C13 1.258 . S
C12 O6 1.247 . S
C12 O7 1.258 1_545 S
C13 O10 1.247 1_545 S
C13 O11 1.258 . S
C14 O16 1.247 1_455 S
C14 O18 1.258 . S
C15 O22 1.247 . S
C15 O23 1.258 1_455 S
O16 C14 1.247 1_655 S
O16 Zn17 2.028 . S
Zn17 O16 2.028 . S
Zn17 O21 2.035 . S
Zn17 O23 2.035 . S
Zn17 O24 2.028 . S
O18 C14 1.258 . S
O18 Zn19 2.035 . S
Zn19 O18 2.035 . S
Zn19 O20 2.028 . S
Zn19 O22 2.028 . S
Zn19 O25 2.035 . S
O20 Zn19 2.028 . S
O20 C26 1.247 . S
O21 Zn17 2.035 . S
O21 C26 1.258 1_655 S
O22 C15 1.247 . S
O22 Zn19 2.028 . S
O23 C15 1.258 1_655 S
O23 Zn17 2.035 . S
O24 Zn17 2.028 . S
O24 C27 1.247 1_655 S
O25 Zn19 2.035 . S
O25 C27 1.258 . S
C26 O20 1.247 . S
C26 O21 1.258 1_455 S
C27 O24 1.247 1_455 S
C27 O25 1.258 . S
Mg28 O29 2.028 . S
Mg28 O35 1.986 . S
Mg28 O37 2.114 1_545 S
Mg28 O38 2.251 1_545 S
Mg28 O41 2.010 . S
O29 Mg28 2.028 . S
O29 C32 1.250 1_455 S
O30 Mg31 2.028 . S
O30 C32 1.248 . S
Mg31 O30 2.028 . S
Mg31 O36 2.032 . S
Mg31 O38 2.079 1_645 S
C32 O29 1.250 1_655 S
C32 O30 1.248 . S
C33 O34 1.264 . S
C33 O41 1.249 . S
O34 C33 1.264 . S
O35 Mg28 1.986 . S
O35 C39 1.246 . S
O36 Mg31 2.032 . S
O36 C39 1.259 1_655 S
O37 Mg28 2.114 1_565 S
O37 C40 1.252 . S
O38 Mg28 2.251 1_565 S
O38 Mg31 2.079 1_465 S
O38 C40 1.273 . S
C39 O35 1.246 . S
C39 O36 1.259 1_455 S
C40 O37 1.252 . S
C40 O38 1.273 . S
O41 Mg28 2.010 . S
O41 C33 1.249 . S
Mg42 O43 2.028 1_655 S
Mg42 O49 1.986 1_655 S
Mg42 O51 2.114 1_545 S
Mg42 O52 2.251 1_645 S
Mg42 O55 2.010 . S
O43 Mg42 2.028 1_455 S
O43 C46 1.250 . S
O44 Mg45 2.028 . S
O44 C46 1.248 . S
Mg45 O44 2.028 . S
Mg45 O50 2.032 . S
Mg45 O52 2.079 1_545 S
C46 O43 1.250 . S
C46 O44 1.248 . S
C47 O48 1.264 . S
C47 O55 1.249 . S
O48 C47 1.264 . S
O49 Mg42 1.986 1_455 S
O49 C53 1.246 . S
O50 Mg45 2.032 . S
O50 C53 1.259 . S
O51 Mg42 2.114 1_565 S
O51 C54 1.252 1_655 S
O52 Mg42 2.251 1_465 S
O52 Mg45 2.079 1_565 S
O52 C54 1.273 . S
C53 O49 1.246 . S
C53 O50 1.259 . S
C54 O51 1.252 1_455 S
C54 O52 1.273 . S
O55 Mg42 2.010 . S
O55 C47 1.249 . S
C56 C57 1.170 . S
C56 C58 1.380 . S
C57 C56 1.170 . S
C58 C56 1.380 . S
C58 C59 1.170 . S
C59 C58 1.170 . S
C60 C61 1.170 . S
C60 C62 1.380 . S
C61 C60 1.170 . S
C62 C60 1.380 . S
C62 C63 1.170 . S
C63 C62 1.170 . S
C64 C65 1.170 . S
C64 C66 1.380 . S
C65 C64 1.170 . S
C66 C64 1.380 . S
C66 C67 1.170 . S
C67 C66 1.170 . S
C68 C69 1.170 . S
C68 C70 1.380 . S
C69 C68 1.170 . S
C70 C68 1.380 . S
C70 C71 1.170 . S
C71 C70 1.170 . S
C72 C73 1.170 . S
C72 C74 1.380 . S
C73 C72 1.170 . S
C74 C72 1.380 . S
C74 C75 1.170 . S
C75 C74 1.170 . S
C76 C77 1.170 . S
C76 C78 1.380 . S
C77 C76 1.170 . S
C78 C76 1.380 . S
C78 C79 1.170 . S
C79 C78 1.170 . S
C80 C81 1.170 . S
C80 C82 1.380 . S
C81 C80 1.170 . S
C82 C80 1.380 . S
C82 C83 1.170 . S
C83 C82 1.170 . S
C84 C85 1.170 . S
C84 C86 1.380 . S
C85 C84 1.170 . S
C86 C84 1.380 . S
C86 C87 1.170 . S
C87 C86 1.170 . S
C59 C33 1.239 . S
C57 C13 1.470 . S
C63 C53 1.445 . S
C61 C15 1.471 . S
C67 C32 1.459 . S
C65 C1 1.478 . S
C71 C54 1.484 . S
C69 C27 1.482 . S
C75 C46 1.434 . S
C73 C0 1.479 . S
C79 C39 1.451 . S
C77 C26 1.470 . S
C83 C47 1.277 . S
C81 C12 1.473 . S
C85 C14 1.487 . S
C87 C40 1.482 . S
