# Generated by pormake.
# Topology bcu-b, (8,8)-cn, num edge types: 1
# Building blocks:
#     Node 0, Type 0, BuildingBlock: TAGTUT_clean_sbu_3, # of connection points: 8
#     Node 1, Type 1, BuildingBlock: VETTIZ_charged_sbu_0, # of connection points: 8
#     Edge 2, Type (0, 1), BuildingBlock: FUNLAD_clean_linker_0, # of connection points: 2
#     Edge 3, Type (0, 1), BuildingBlock: FUNLAD_clean_linker_0, # of connection points: 2
#     Edge 4, Type (0, 1), BuildingBlock: FUNLAD_clean_linker_0, # of connection points: 2
#     Edge 5, Type (0, 1), BuildingBlock: FUNLAD_clean_linker_0, # of connection points: 2
#     Edge 6, Type (0, 1), BuildingBlock: FUNLAD_clean_linker_0, # of connection points: 2
#     Edge 7, Type (0, 1), BuildingBlock: FUNLAD_clean_linker_0, # of connection points: 2
#     Edge 8, Type (0, 1), BuildingBlock: FUNLAD_clean_linker_0, # of connection points: 2
#     Edge 9, Type (0, 1), BuildingBlock: FUNLAD_clean_linker_0, # of connection points: 2
# Relax obj value: 0.022
# Max RMSD: 0.104
# Mean RMSD: 0.075
data_MOF--net-bcu-b--node1-TAGTUT_clean_sbu_3--node2-VETTIZ_charged_sbu_0--edge1-FUNLAD_clean_linker_0
_symmetry_space_group_name_H-M    P1
_symmetry_Int_Tables_number       1
_symmetry_cell_setting            triclinic
loop_
_symmetry_equiv_pos_as_xyz
'x, y, z'
_cell_length_a     22.333436
_cell_length_b     22.711153
_cell_length_c     23.139748
_cell_angle_alpha  89.91955
_cell_angle_beta   89.279516
_cell_angle_gamma 98.706857
loop_
_atom_site_label
_atom_site_type_symbol
_atom_site_fract_x
_atom_site_fract_y
_atom_site_fract_z
_atom_type_partial_charge
C0 C 0.1145 0.08183 0.08081 0.0
C1 C 0.15054 0.85178 0.07531 0.0
C2 C 0.09862 0.86663 0.89845 0.0
Mg3 Mg 0.01025 0.13941 0.00879 0.0
Mg4 Mg 0.88389 0.05224 0.97807 0.0
O5 O 0.96836 0.06711 0.96792 0.0
Mg6 Mg 0.01326 0.00512 -0.00012 0.0
O7 O 0.06133 0.94559 0.03138 0.0
Mg8 Mg 0.14264 0.9753 0.99549 0.0
Mg9 Mg 0.03023 0.86606 0.01275 0.0
C10 C 0.90609 0.92951 0.92302 0.0
O11 O 0.93551 0.9652 0.06113 0.0
O12 O 0.9515 0.19347 0.94966 0.0
O13 O 0.93829 0.8673 0.04616 0.0
O14 O 0.93762 0.13673 0.08139 0.0
O15 O 0.86716 0.12878 0.9308 0.0
O16 O 0.85935 0.06543 0.06655 0.0
O17 O 0.09282 0.03909 0.94072 0.0
O18 O 0.08323 0.1358 0.93789 0.0
C19 C 0.11014 0.09217 0.92217 0.0
C20 C 0.8994 0.18026 0.9254 0.0
O21 O 0.96298 0.93953 0.93432 0.0
O22 O 0.17691 0.90255 0.05542 0.0
O23 O 0.86869 0.96383 0.94017 0.0
O24 O 0.13382 0.90944 0.92113 0.0
O25 O 0.0954 0.83083 0.06382 0.0
O26 O 0.04941 0.84394 0.92374 0.0
O27 O 0.05982 0.07491 0.06256 0.0
O28 O 0.1508 0.04582 0.06576 0.0
C29 C 0.88721 0.1066 0.09786 0.0
C30 C 0.91245 0.90998 0.06652 0.0
Fe31 Fe 0.51421 0.57175 0.50276 0.0
O32 O 0.46761 0.49945 0.53992 0.0
Fe33 Fe 0.64997 0.52496 0.46269 0.0
Fe34 Fe 0.37868 0.48362 0.54124 0.0
O35 O 0.56138 0.51381 0.46539 0.0
O36 O 0.5611 0.50812 0.46465 0.0
O37 O 0.46745 0.49372 0.53942 0.0
Fe38 Fe 0.51436 0.43577 0.50164 0.0
C39 C 0.416 0.60759 0.58816 0.0
O40 O 0.45799 0.56382 0.43363 0.0
O41 O 0.36847 0.54744 0.47848 0.0
O42 O 0.57015 0.3843 0.45622 0.0
O43 O 0.63887 0.45327 0.40696 0.0
O44 O 0.6362 0.59113 0.40548 0.0
O45 O 0.56898 0.64026 0.45645 0.0
O46 O 0.36807 0.41923 0.47836 0.0
O47 O 0.45682 0.42599 0.43202 0.0
C48 C 0.60765 0.63623 0.41439 0.0
O49 O 0.57177 0.44266 0.57111 0.0
O50 O 0.66145 0.46391 0.52639 0.0
O51 O 0.45721 0.62331 0.5481 0.0
O52 O 0.39055 0.55326 0.5983 0.0
C53 C 0.40202 0.56773 0.43563 0.0
C54 C 0.39937 0.4122 0.43333 0.0
C55 C 0.42036 0.37119 0.58894 0.0
O56 O 0.39126 0.41593 0.59766 0.0
O57 O 0.4594 0.36737 0.54726 0.0
C58 C 0.61199 0.39919 0.41675 0.0
O59 O 0.65988 0.59073 0.52491 0.0
O60 O 0.57126 0.58185 0.57182 0.0
C61 C 0.62913 0.44522 0.57035 0.0
C62 C 0.62834 0.59766 0.56995 0.0
C63 C 0.20195 0.14594 0.12516 0.0
C64 C 0.13891 0.13269 0.11798 0.0
C65 C 0.22681 0.1904 0.16284 0.0
C66 C 0.1894 0.22359 0.19432 0.0
C67 C 0.12629 0.21121 0.1866 0.0
C68 C 0.10119 0.16644 0.14836 0.0
C69 C 0.2149 0.26691 0.23919 0.0
C70 C 0.27311 0.29418 0.238 0.0
C71 C 0.30391 0.32829 0.28702 0.0
C72 C 0.36765 0.33906 0.28716 0.0
C73 C 0.39898 0.36699 0.33409 0.0
C74 C 0.36715 0.38493 0.38202 0.0
H75 H 0.22323 0.34289 0.3354 0.0
C76 C 0.3034 0.3761 0.38099 0.0
C77 C 0.27213 0.34834 0.3341 0.0
H78 H 0.2773 0.39039 0.41669 0.0
H79 H 0.23258 0.12103 0.10243 0.0
H80 H 0.27531 0.19657 0.16874 0.0
H81 H 0.0963 0.2356 0.21085 0.0
H82 H 0.05246 0.15715 0.14392 0.0
H83 H 0.18526 0.27347 0.27527 0.0
H84 H 0.30127 0.28842 0.20048 0.0
H85 H 0.39347 0.3245 0.25137 0.0
H86 H 0.44805 0.37347 0.33322 0.0
C87 C 0.79534 0.1077 0.1614 0.0
C88 C 0.85777 0.12495 0.15123 0.0
C89 C 0.76548 0.13442 0.20553 0.0
C90 C 0.79777 0.17857 0.24073 0.0
C91 C 0.8609 0.19196 0.23327 0.0
C92 C 0.89053 0.16571 0.18904 0.0
C93 C 0.76805 0.2164 0.28133 0.0
C94 C 0.70781 0.21298 0.29033 0.0
C95 C 0.68223 0.26049 0.3221 0.0
C96 C 0.63013 0.24645 0.35703 0.0
C97 C 0.60643 0.29132 0.38743 0.0
C98 C 0.63385 0.35121 0.38246 0.0
H99 H 0.74713 0.33323 0.28748 0.0
C100 C 0.68462 0.3651 0.34559 0.0
C101 C 0.7084 0.32046 0.31585 0.0
H102 H 0.70683 0.41058 0.33999 0.0
H103 H 0.76883 0.07606 0.13325 0.0
H104 H 0.717 0.122 0.20983 0.0
H105 H 0.88725 0.22526 0.25995 0.0
H106 H 0.93881 0.17945 0.18296 0.0
H107 H 0.79778 0.25206 0.3025 0.0
H108 H 0.67632 0.17608 0.27371 0.0
H109 H 0.60848 0.20064 0.36167 0.0
H110 H 0.56701 0.27899 0.41505 0.0
C111 C 0.8377 0.92745 0.14428 0.0
C112 C 0.85385 0.89401 0.09705 0.0
C113 C 0.78571 0.90695 0.17743 0.0
C114 C 0.74872 0.85327 0.16299 0.0
C115 C 0.76262 0.82274 0.1131 0.0
C116 C 0.81494 0.84245 0.08087 0.0
C117 C 0.69884 0.82401 0.20089 0.0
C118 C 0.70057 0.82683 0.25902 0.0
C119 C 0.66635 0.77956 0.29628 0.0
C120 C 0.65263 0.792 0.35405 0.0
C121 C 0.62966 0.74579 0.39226 0.0
C122 C 0.62177 0.68637 0.37347 0.0
H123 H 0.6668 0.70813 0.23366 0.0
C124 C 0.63329 0.67425 0.31533 0.0
C125 C 0.65515 0.72014 0.27716 0.0
H126 H 0.62741 0.62879 0.29972 0.0
H127 H 0.86668 0.96779 0.1572 0.0
H128 H 0.77542 0.93238 0.21482 0.0
H129 H 0.73466 0.78158 0.1007 0.0
H130 H 0.82569 0.81648 0.04395 0.0
H131 H 0.66505 0.79124 0.18071 0.0
H132 H 0.73321 0.85994 0.2801 0.0
H133 H 0.66161 0.83723 0.37008 0.0
H134 H 0.62143 0.75616 0.43707 0.0
C135 C 0.23748 0.83864 0.14106 0.0
C136 C 0.18253 0.81558 0.11468 0.0
C137 C 0.26323 0.80466 0.18217 0.0
C138 C 0.23441 0.74695 0.19731 0.0
C139 C 0.18049 0.72383 0.16983 0.0
C140 C 0.15511 0.75734 0.12902 0.0
C141 C 0.25653 0.71 0.24323 0.0
C142 C 0.31423 0.71599 0.26104 0.0
C143 C 0.33469 0.67615 0.30544 0.0
C144 C 0.39513 0.66626 0.30414 0.0
C145 C 0.41627 0.62963 0.34532 0.0
C146 C 0.37757 0.60246 0.38946 0.0
H147 H 0.2493 0.65683 0.35305 0.0
C148 C 0.31698 0.61237 0.3909 0.0
C149 C 0.29577 0.64892 0.34947 0.0
H150 H 0.28617 0.59287 0.42466 0.0
H151 H 0.25958 0.88341 0.1313 0.0
H152 H 0.30437 0.82451 0.20317 0.0
H153 H 0.15731 0.67962 0.18042 0.0
H154 H 0.11302 0.73758 0.10947 0.0
H155 H 0.22395 0.67387 0.26085 0.0
H156 H 0.34842 0.74836 0.24007 0.0
H157 H 0.42619 0.68686 0.27103 0.0
H158 H 0.46342 0.62354 0.34296 0.0
C159 C 0.16889 0.87155 0.8134 0.0
C160 C 0.12074 0.83959 0.84562 0.0
C161 C 0.20067 0.84303 0.77236 0.0
C162 C 0.18494 0.78157 0.76237 0.0
C163 C 0.13346 0.75086 0.79107 0.0
C164 C 0.10155 0.77954 0.83221 0.0
C165 C 0.22377 0.74651 0.7275 0.0
C166 C 0.27602 0.76925 0.69999 0.0
C167 C 0.31708 0.73038 0.67408 0.0
C168 C 0.35128 0.74849 0.62396 0.0
C169 C 0.38723 0.71034 0.59739 0.0
C170 C 0.38993 0.65378 0.62109 0.0
H171 H 0.3002 0.6615 0.73995 0.0
C172 C 0.35931 0.63793 0.67364 0.0
C173 C 0.32345 0.67567 0.6998 0.0
H174 H 0.36134 0.59516 0.69372 0.0
H175 H 0.18431 0.91822 0.82213 0.0
H176 H 0.2391 0.86918 0.75111 0.0
H177 H 0.11973 0.70362 0.78398 0.0
H178 H 0.06461 0.75369 0.85616 0.0
H179 H 0.20987 0.69853 0.72691 0.0
H180 H 0.28961 0.81691 0.69577 0.0
H181 H 0.34823 0.79111 0.60405 0.0
H182 H 0.41019 0.72381 0.55692 0.0
C183 C 0.21237 0.0864 0.87859 0.0
C184 C 0.15415 0.10201 0.87421 0.0
C185 C 0.25493 0.10111 0.83379 0.0
C186 C 0.23876 0.12977 0.78361 0.0
C187 C 0.1794 0.14189 0.77824 0.0
C188 C 0.13779 0.12908 0.82351 0.0
C189 C 0.28339 0.15253 0.73811 0.0
C190 C 0.33649 0.18562 0.75145 0.0
C191 C 0.36797 0.22966 0.70977 0.0
C192 C 0.38663 0.28795 0.72907 0.0
C193 C 0.40547 0.33363 0.68957 0.0
C194 C 0.40781 0.32145 0.63023 0.0
H195 H 0.35986 0.17192 0.63478 0.0
C196 C 0.39386 0.26241 0.6111 0.0
C197 C 0.37334 0.21677 0.65061 0.0
H198 H 0.39564 0.25212 0.56547 0.0
H199 H 0.22551 0.06509 0.91736 0.0
H200 H 0.30045 0.09096 0.83861 0.0
H201 H 0.16601 0.16398 0.74 0.0
H202 H 0.09278 0.1408 0.81912 0.0
H203 H 0.26688 0.15357 0.69416 0.0
H204 H 0.3496 0.19006 0.79653 0.0
H205 H 0.38299 0.2989 0.77442 0.0
H206 H 0.41675 0.37884 0.70525 0.0
C207 C 0.81535 0.21058 0.86761 0.0
C208 C 0.87459 0.22456 0.88886 0.0
C209 C 0.79152 0.2494 0.83077 0.0
C210 C 0.82588 0.30401 0.81433 0.0
C211 C 0.88504 0.31844 0.83565 0.0
C212 C 0.90911 0.27929 0.87286 0.0
C213 C 0.80249 0.34402 0.77169 0.0
C214 C 0.74266 0.34396 0.76338 0.0
C215 C 0.71636 0.3755 0.71551 0.0
C216 C 0.65368 0.37728 0.71661 0.0
C217 C 0.62548 0.40085 0.67017 0.0
C218 C 0.65932 0.42322 0.62118 0.0
H219 H 0.79856 0.39784 0.66341 0.0
C220 C 0.72231 0.42287 0.62058 0.0
C221 C 0.7505 0.39912 0.66699 0.0
H222 H 0.7499 0.43976 0.58361 0.0
H223 H 0.78722 0.16882 0.87855 0.0
H224 H 0.74676 0.23514 0.81384 0.0
H225 H 0.91289 0.35986 0.82311 0.0
H226 H 0.95495 0.29137 0.88813 0.0
H227 H 0.83572 0.3734 0.74645 0.0
H228 H 0.71039 0.31829 0.7927 0.0
H229 H 0.62601 0.35918 0.75314 0.0
H230 H 0.57694 0.4005 0.67234 0.0
C231 C 0.82095 0.85077 0.89689 0.0
C232 C 0.88181 0.87636 0.88941 0.0
C233 C 0.79562 0.80378 0.86203 0.0
C234 C 0.83037 0.78213 0.81798 0.0
C235 C 0.89222 0.80538 0.81285 0.0
C236 C 0.91781 0.85213 0.84829 0.0
C237 C 0.80311 0.73739 0.77532 0.0
C238 C 0.74401 0.73073 0.76139 0.0
C239 C 0.71652 0.69203 0.71412 0.0
C240 C 0.65334 0.67555 0.71414 0.0
C241 C 0.62472 0.64378 0.66801 0.0
C242 C 0.65874 0.62831 0.62042 0.0
H243 H 0.79931 0.68854 0.66443 0.0
C244 C 0.72213 0.64381 0.62084 0.0
C245 C 0.75075 0.67545 0.66706 0.0
H246 H 0.74974 0.63252 0.58489 0.0
H247 H 0.79261 0.86745 0.9295 0.0
H248 H 0.74868 0.78516 0.86961 0.0
H249 H 0.92028 0.78892 0.77987 0.0
H250 H 0.96498 0.87087 0.84185 0.0
H251 H 0.83352 0.71224 0.75243 0.0
H252 H 0.71387 0.75632 0.78408 0.0
H253 H 0.62582 0.68808 0.74965 0.0
H254 H 0.57582 0.6325 0.66919 0.0
loop_
_geom_bond_atom_site_label_1
_geom_bond_atom_site_label_2
_geom_bond_distance
_geom_bond_site_symmetry_2
_ccdc_geom_bond_type
C0 O27 1.312 . S
C0 O28 1.208 . S
C1 O22 1.331 . S
C1 O25 1.244 . S
C2 O24 1.264 . S
C2 O26 1.273 . S
Mg3 O5 1.936 . S
Mg3 O12 2.081 . S
Mg3 O14 2.023 1_556 S
Mg3 O18 2.031 1_655 S
Mg3 O27 2.291 1_656 S
Mg4 O5 1.963 . S
Mg4 O15 1.942 . S
Mg4 O16 1.955 1_556 S
Mg4 O23 1.986 1_545 S
O5 Mg3 1.936 . S
O5 Mg4 1.963 . S
O5 Mg6 1.915 1_546 S
Mg6 O5 1.915 1_564 S
Mg6 O7 1.915 1_655 S
Mg6 O11 2.013 . S
Mg6 O17 2.113 1_664 S
Mg6 O21 2.013 1_554 S
Mg6 O27 2.113 1_665 S
O7 Mg6 1.915 1_455 S
O7 Mg8 1.936 . S
O7 Mg9 1.963 . S
Mg8 O7 1.936 . S
Mg8 O17 2.291 1_564 S
Mg8 O22 2.081 . S
Mg8 O24 2.023 1_554 S
Mg8 O28 2.031 1_565 S
Mg9 O7 1.963 . S
Mg9 O13 1.986 1_455 S
Mg9 O25 1.942 . S
Mg9 O26 1.955 1_554 S
C10 O21 1.191 . S
C10 O23 1.307 . S
O11 Mg6 2.013 . S
O11 C30 1.191 . S
O12 Mg3 2.081 . S
O12 C20 1.331 . S
O13 Mg9 1.986 1_655 S
O13 C30 1.307 . S
O14 Mg3 2.023 1_554 S
O14 C29 1.264 . S
O15 Mg4 1.942 . S
O15 C20 1.244 . S
O16 Mg4 1.955 1_554 S
O16 C29 1.273 . S
O17 Mg6 2.113 1_446 S
O17 Mg8 2.291 1_546 S
O17 C19 1.312 . S
O18 Mg3 2.031 1_455 S
O18 C19 1.208 . S
C19 O17 1.312 . S
C19 O18 1.208 . S
C20 O12 1.331 . S
C20 O15 1.244 . S
O21 Mg6 2.013 1_556 S
O21 C10 1.191 . S
O22 C1 1.331 . S
O22 Mg8 2.081 . S
O23 Mg4 1.986 1_565 S
O23 C10 1.307 . S
O24 C2 1.264 . S
O24 Mg8 2.023 1_556 S
O25 C1 1.244 . S
O25 Mg9 1.942 . S
O26 C2 1.273 . S
O26 Mg9 1.955 1_556 S
O27 C0 1.312 . S
O27 Mg3 2.291 1_454 S
O27 Mg6 2.113 1_445 S
O28 C0 1.208 . S
O28 Mg8 2.031 1_545 S
C29 O14 1.264 . S
C29 O16 1.273 . S
C30 O11 1.191 . S
C30 O13 1.307 . S
Fe31 O32 1.886 . S
Fe31 O35 1.715 . S
Fe31 O40 2.077 . S
Fe31 O45 1.935 . S
Fe31 O51 2.077 . S
Fe31 O60 1.935 . S
O32 Fe31 1.886 . S
O32 Fe34 1.715 . S
Fe33 O35 1.886 . S
Fe33 O36 1.715 . S
Fe33 O43 1.935 . S
Fe33 O44 2.077 . S
Fe33 O50 1.935 . S
Fe33 O59 2.077 . S
Fe34 O32 1.715 . S
Fe34 O37 1.886 . S
Fe34 O41 1.935 . S
Fe34 O46 2.077 . S
Fe34 O52 1.935 . S
Fe34 O56 2.077 . S
O35 Fe31 1.715 . S
O35 Fe33 1.886 . S
O36 Fe33 1.715 . S
O36 Fe38 1.886 . S
O37 Fe34 1.886 . S
O37 Fe38 1.715 . S
Fe38 O36 1.886 . S
Fe38 O37 1.715 . S
Fe38 O42 2.077 . S
Fe38 O47 1.935 . S
Fe38 O49 2.077 . S
Fe38 O57 1.935 . S
C39 O51 1.381 . S
C39 O52 1.421 . S
O40 Fe31 2.077 . S
O40 C53 1.381 . S
O41 Fe34 1.935 . S
O41 C53 1.421 . S
O42 Fe38 2.077 . S
O42 C58 1.381 . S
O43 Fe33 1.935 . S
O43 C58 1.421 . S
O44 Fe33 2.077 . S
O44 C48 1.381 . S
O45 Fe31 1.935 . S
O45 C48 1.421 . S
O46 Fe34 2.077 . S
O46 C54 1.381 . S
O47 Fe38 1.935 . S
O47 C54 1.421 . S
C48 O44 1.381 . S
C48 O45 1.421 . S
O49 Fe38 2.077 . S
O49 C61 1.381 . S
O50 Fe33 1.935 . S
O50 C61 1.421 . S
O51 Fe31 2.077 . S
O51 C39 1.381 . S
O52 Fe34 1.935 . S
O52 C39 1.421 . S
C53 O40 1.381 . S
C53 O41 1.421 . S
C54 O46 1.381 . S
C54 O47 1.421 . S
C55 O56 1.381 . S
C55 O57 1.421 . S
O56 Fe34 2.077 . S
O56 C55 1.381 . S
O57 Fe38 1.935 . S
O57 C55 1.421 . S
C58 O42 1.381 . S
C58 O43 1.421 . S
O59 Fe33 2.077 . S
O59 C62 1.381 . S
O60 Fe31 1.935 . S
O60 C62 1.421 . S
C61 O49 1.381 . S
C61 O50 1.421 . S
C62 O59 1.381 . S
C62 O60 1.421 . S
C63 C64 1.386 . S
C63 C65 1.383 . S
C63 H79 0.951 . S
C64 C63 1.386 . S
C64 C68 1.383 . S
C65 C63 1.383 . S
C65 C66 1.402 . S
C65 H80 0.951 . S
C66 C65 1.402 . S
C66 C67 1.375 . S
C66 C69 1.481 . S
C67 C66 1.375 . S
C67 C68 1.367 . S
C67 H81 0.951 . S
C68 C64 1.383 . S
C68 C67 1.367 . S
C68 H82 0.950 . S
C69 C66 1.481 . S
C69 C70 1.297 . S
C69 H83 0.950 . S
C70 C69 1.297 . S
C70 C71 1.479 . S
C70 H84 0.950 . S
C71 C70 1.479 . S
C71 C72 1.375 . S
C71 C77 1.404 . S
C72 C71 1.375 . S
C72 C73 1.369 . S
C72 H85 0.950 . S
C73 C72 1.369 . S
C73 C74 1.392 . S
C73 H86 0.951 . S
C74 C73 1.392 . S
C74 C76 1.384 . S
H75 C77 0.949 . S
C76 C74 1.384 . S
C76 C77 1.385 . S
C76 H78 0.950 . S
C77 C71 1.404 . S
C77 H75 0.949 . S
C77 C76 1.385 . S
H78 C76 0.950 . S
H79 C63 0.951 . S
H80 C65 0.951 . S
H81 C67 0.951 . S
H82 C68 0.950 . S
H83 C69 0.950 . S
H84 C70 0.950 . S
H85 C72 0.950 . S
H86 C73 0.951 . S
C87 C88 1.386 . S
C87 C89 1.383 . S
C87 H103 0.951 . S
C88 C87 1.386 . S
C88 C92 1.383 . S
C89 C87 1.383 . S
C89 C90 1.402 . S
C89 H104 0.951 . S
C90 C89 1.402 . S
C90 C91 1.375 . S
C90 C93 1.481 . S
C91 C90 1.375 . S
C91 C92 1.367 . S
C91 H105 0.951 . S
C92 C88 1.383 . S
C92 C91 1.367 . S
C92 H106 0.950 . S
C93 C90 1.481 . S
C93 C94 1.297 . S
C93 H107 0.950 . S
C94 C93 1.297 . S
C94 C95 1.479 . S
C94 H108 0.950 . S
C95 C94 1.479 . S
C95 C96 1.375 . S
C95 C101 1.404 . S
C96 C95 1.375 . S
C96 C97 1.369 . S
C96 H109 0.950 . S
C97 C96 1.369 . S
C97 C98 1.392 . S
C97 H110 0.951 . S
C98 C97 1.392 . S
C98 C100 1.384 . S
H99 C101 0.949 . S
C100 C98 1.384 . S
C100 C101 1.385 . S
C100 H102 0.950 . S
C101 C95 1.404 . S
C101 H99 0.949 . S
C101 C100 1.385 . S
H102 C100 0.950 . S
H103 C87 0.951 . S
H104 C89 0.951 . S
H105 C91 0.951 . S
H106 C92 0.950 . S
H107 C93 0.950 . S
H108 C94 0.950 . S
H109 C96 0.950 . S
H110 C97 0.951 . S
C111 C112 1.386 . S
C111 C113 1.383 . S
C111 H127 0.951 . S
C112 C111 1.386 . S
C112 C116 1.383 . S
C113 C111 1.383 . S
C113 C114 1.402 . S
C113 H128 0.951 . S
C114 C113 1.402 . S
C114 C115 1.375 . S
C114 C117 1.481 . S
C115 C114 1.375 . S
C115 C116 1.367 . S
C115 H129 0.951 . S
C116 C112 1.383 . S
C116 C115 1.367 . S
C116 H130 0.950 . S
C117 C114 1.481 . S
C117 C118 1.297 . S
C117 H131 0.950 . S
C118 C117 1.297 . S
C118 C119 1.479 . S
C118 H132 0.950 . S
C119 C118 1.479 . S
C119 C120 1.375 . S
C119 C125 1.404 . S
C120 C119 1.375 . S
C120 C121 1.369 . S
C120 H133 0.950 . S
C121 C120 1.369 . S
C121 C122 1.392 . S
C121 H134 0.951 . S
C122 C121 1.392 . S
C122 C124 1.384 . S
H123 C125 0.949 . S
C124 C122 1.384 . S
C124 C125 1.385 . S
C124 H126 0.950 . S
C125 C119 1.404 . S
C125 H123 0.949 . S
C125 C124 1.385 . S
H126 C124 0.950 . S
H127 C111 0.951 . S
H128 C113 0.951 . S
H129 C115 0.951 . S
H130 C116 0.950 . S
H131 C117 0.950 . S
H132 C118 0.950 . S
H133 C120 0.950 . S
H134 C121 0.951 . S
C135 C136 1.386 . S
C135 C137 1.383 . S
C135 H151 0.951 . S
C136 C135 1.386 . S
C136 C140 1.383 . S
C137 C135 1.383 . S
C137 C138 1.402 . S
C137 H152 0.951 . S
C138 C137 1.402 . S
C138 C139 1.375 . S
C138 C141 1.481 . S
C139 C138 1.375 . S
C139 C140 1.367 . S
C139 H153 0.951 . S
C140 C136 1.383 . S
C140 C139 1.367 . S
C140 H154 0.950 . S
C141 C138 1.481 . S
C141 C142 1.297 . S
C141 H155 0.950 . S
C142 C141 1.297 . S
C142 C143 1.479 . S
C142 H156 0.950 . S
C143 C142 1.479 . S
C143 C144 1.375 . S
C143 C149 1.404 . S
C144 C143 1.375 . S
C144 C145 1.369 . S
C144 H157 0.950 . S
C145 C144 1.369 . S
C145 C146 1.392 . S
C145 H158 0.951 . S
C146 C145 1.392 . S
C146 C148 1.384 . S
H147 C149 0.949 . S
C148 C146 1.384 . S
C148 C149 1.385 . S
C148 H150 0.950 . S
C149 C143 1.404 . S
C149 H147 0.949 . S
C149 C148 1.385 . S
H150 C148 0.950 . S
H151 C135 0.951 . S
H152 C137 0.951 . S
H153 C139 0.951 . S
H154 C140 0.950 . S
H155 C141 0.950 . S
H156 C142 0.950 . S
H157 C144 0.950 . S
H158 C145 0.951 . S
C159 C160 1.386 . S
C159 C161 1.383 . S
C159 H175 0.951 . S
C160 C159 1.386 . S
C160 C164 1.383 . S
C161 C159 1.383 . S
C161 C162 1.402 . S
C161 H176 0.951 . S
C162 C161 1.402 . S
C162 C163 1.375 . S
C162 C165 1.481 . S
C163 C162 1.375 . S
C163 C164 1.367 . S
C163 H177 0.951 . S
C164 C160 1.383 . S
C164 C163 1.367 . S
C164 H178 0.950 . S
C165 C162 1.481 . S
C165 C166 1.297 . S
C165 H179 0.950 . S
C166 C165 1.297 . S
C166 C167 1.479 . S
C166 H180 0.950 . S
C167 C166 1.479 . S
C167 C168 1.375 . S
C167 C173 1.404 . S
C168 C167 1.375 . S
C168 C169 1.369 . S
C168 H181 0.950 . S
C169 C168 1.369 . S
C169 C170 1.392 . S
C169 H182 0.951 . S
C170 C169 1.392 . S
C170 C172 1.384 . S
H171 C173 0.949 . S
C172 C170 1.384 . S
C172 C173 1.385 . S
C172 H174 0.950 . S
C173 C167 1.404 . S
C173 H171 0.949 . S
C173 C172 1.385 . S
H174 C172 0.950 . S
H175 C159 0.951 . S
H176 C161 0.951 . S
H177 C163 0.951 . S
H178 C164 0.950 . S
H179 C165 0.950 . S
H180 C166 0.950 . S
H181 C168 0.950 . S
H182 C169 0.951 . S
C183 C184 1.386 . S
C183 C185 1.383 . S
C183 H199 0.951 . S
C184 C183 1.386 . S
C184 C188 1.383 . S
C185 C183 1.383 . S
C185 C186 1.402 . S
C185 H200 0.951 . S
C186 C185 1.402 . S
C186 C187 1.375 . S
C186 C189 1.481 . S
C187 C186 1.375 . S
C187 C188 1.367 . S
C187 H201 0.951 . S
C188 C184 1.383 . S
C188 C187 1.367 . S
C188 H202 0.950 . S
C189 C186 1.481 . S
C189 C190 1.297 . S
C189 H203 0.950 . S
C190 C189 1.297 . S
C190 C191 1.479 . S
C190 H204 0.950 . S
C191 C190 1.479 . S
C191 C192 1.375 . S
C191 C197 1.404 . S
C192 C191 1.375 . S
C192 C193 1.369 . S
C192 H205 0.950 . S
C193 C192 1.369 . S
C193 C194 1.392 . S
C193 H206 0.951 . S
C194 C193 1.392 . S
C194 C196 1.384 . S
H195 C197 0.949 . S
C196 C194 1.384 . S
C196 C197 1.385 . S
C196 H198 0.950 . S
C197 C191 1.404 . S
C197 H195 0.949 . S
C197 C196 1.385 . S
H198 C196 0.950 . S
H199 C183 0.951 . S
H200 C185 0.951 . S
H201 C187 0.951 . S
H202 C188 0.950 . S
H203 C189 0.950 . S
H204 C190 0.950 . S
H205 C192 0.950 . S
H206 C193 0.951 . S
C207 C208 1.386 . S
C207 C209 1.383 . S
C207 H223 0.951 . S
C208 C207 1.386 . S
C208 C212 1.383 . S
C209 C207 1.383 . S
C209 C210 1.402 . S
C209 H224 0.951 . S
C210 C209 1.402 . S
C210 C211 1.375 . S
C210 C213 1.481 . S
C211 C210 1.375 . S
C211 C212 1.367 . S
C211 H225 0.951 . S
C212 C208 1.383 . S
C212 C211 1.367 . S
C212 H226 0.950 . S
C213 C210 1.481 . S
C213 C214 1.297 . S
C213 H227 0.950 . S
C214 C213 1.297 . S
C214 C215 1.479 . S
C214 H228 0.950 . S
C215 C214 1.479 . S
C215 C216 1.375 . S
C215 C221 1.404 . S
C216 C215 1.375 . S
C216 C217 1.369 . S
C216 H229 0.950 . S
C217 C216 1.369 . S
C217 C218 1.392 . S
C217 H230 0.951 . S
C218 C217 1.392 . S
C218 C220 1.384 . S
H219 C221 0.949 . S
C220 C218 1.384 . S
C220 C221 1.385 . S
C220 H222 0.950 . S
C221 C215 1.404 . S
C221 H219 0.949 . S
C221 C220 1.385 . S
H222 C220 0.950 . S
H223 C207 0.951 . S
H224 C209 0.951 . S
H225 C211 0.951 . S
H226 C212 0.950 . S
H227 C213 0.950 . S
H228 C214 0.950 . S
H229 C216 0.950 . S
H230 C217 0.951 . S
C231 C232 1.386 . S
C231 C233 1.383 . S
C231 H247 0.951 . S
C232 C231 1.386 . S
C232 C236 1.383 . S
C233 C231 1.383 . S
C233 C234 1.402 . S
C233 H248 0.951 . S
C234 C233 1.402 . S
C234 C235 1.375 . S
C234 C237 1.481 . S
C235 C234 1.375 . S
C235 C236 1.367 . S
C235 H249 0.951 . S
C236 C232 1.383 . S
C236 C235 1.367 . S
C236 H250 0.950 . S
C237 C234 1.481 . S
C237 C238 1.297 . S
C237 H251 0.950 . S
C238 C237 1.297 . S
C238 C239 1.479 . S
C238 H252 0.950 . S
C239 C238 1.479 . S
C239 C240 1.375 . S
C239 C245 1.404 . S
C240 C239 1.375 . S
C240 C241 1.369 . S
C240 H253 0.950 . S
C241 C240 1.369 . S
C241 C242 1.392 . S
C241 H254 0.951 . S
C242 C241 1.392 . S
C242 C244 1.384 . S
H243 C245 0.949 . S
C244 C242 1.384 . S
C244 C245 1.385 . S
C244 H246 0.950 . S
C245 C239 1.404 . S
C245 H243 0.949 . S
C245 C244 1.385 . S
H246 C244 0.950 . S
H247 C231 0.951 . S
H248 C233 0.951 . S
H249 C235 0.951 . S
H250 C236 0.950 . S
H251 C237 0.950 . S
H252 C238 0.950 . S
H253 C240 0.950 . S
H254 C241 0.951 . S
C64 C0 1.356 . S
C74 C54 1.367 . S
C88 C29 1.607 . S
C98 C58 1.557 . S
C112 C30 1.278 . S
C122 C48 1.302 . S
C136 C1 1.561 . S
C146 C53 1.492 . S
C160 C2 1.598 . S
C170 C39 1.634 . S
C194 C55 1.299 . S
C184 C19 1.346 . S
C208 C20 1.547 . S
C218 C61 1.568 . S
C242 C62 1.244 . S
C232 C10 1.327 . S
