# Generated by pormake.
# Topology sit, (3,6)-cn, num edge types: 1
# Building blocks:
#     Node 0, Type 0, BuildingBlock: OLANEW_clean_sbu_2, # of connection points: 3
#     Node 1, Type 0, BuildingBlock: OLANEW_clean_sbu_2, # of connection points: 3
#     Node 2, Type 0, BuildingBlock: OLANEW_clean_sbu_2, # of connection points: 3
#     Node 3, Type 0, BuildingBlock: OLANEW_clean_sbu_2, # of connection points: 3
#     Node 4, Type 1, BuildingBlock: MIDCAF_clean_sbu_0, # of connection points: 6
#     Node 5, Type 1, BuildingBlock: MIDCAF_clean_sbu_0, # of connection points: 6
#     Edge 6, Type (0, 1), BuildingBlock: AJUNOK_clean_linker_0, # of connection points: 2
#     Edge 7, Type (0, 1), BuildingBlock: AJUNOK_clean_linker_0, # of connection points: 2
#     Edge 8, Type (0, 1), BuildingBlock: AJUNOK_clean_linker_0, # of connection points: 2
#     Edge 9, Type (0, 1), BuildingBlock: AJUNOK_clean_linker_0, # of connection points: 2
#     Edge 10, Type (0, 1), BuildingBlock: AJUNOK_clean_linker_0, # of connection points: 2
#     Edge 11, Type (0, 1), BuildingBlock: AJUNOK_clean_linker_0, # of connection points: 2
#     Edge 12, Type (0, 1), BuildingBlock: AJUNOK_clean_linker_0, # of connection points: 2
#     Edge 13, Type (0, 1), BuildingBlock: AJUNOK_clean_linker_0, # of connection points: 2
#     Edge 14, Type (0, 1), BuildingBlock: AJUNOK_clean_linker_0, # of connection points: 2
#     Edge 15, Type (0, 1), BuildingBlock: AJUNOK_clean_linker_0, # of connection points: 2
#     Edge 16, Type (0, 1), BuildingBlock: AJUNOK_clean_linker_0, # of connection points: 2
#     Edge 17, Type (0, 1), BuildingBlock: AJUNOK_clean_linker_0, # of connection points: 2
# Relax obj value: 0.080
# Max RMSD: 0.185
# Mean RMSD: 0.106
data_MOF--net-sit--node1-OLANEW_clean_sbu_2--node2-MIDCAF_clean_sbu_0--edge1-AJUNOK_clean_linker_0
_symmetry_space_group_name_H-M    P1
_symmetry_Int_Tables_number       1
_symmetry_cell_setting            triclinic
loop_
_symmetry_equiv_pos_as_xyz
'x, y, z'
_cell_length_a     16.781328
_cell_length_b     26.385275
_cell_length_c     29.771131
_cell_angle_alpha  89.734652
_cell_angle_beta   81.791746
_cell_angle_gamma 84.049703
loop_
_atom_site_label
_atom_site_type_symbol
_atom_site_fract_x
_atom_site_fract_y
_atom_site_fract_z
_atom_type_partial_charge
O0 O 0.26274 0.27039 0.03259 0.0
Cd1 Cd 0.18067 0.19768 0.03619 0.0
O2 O 0.1618 0.32761 0.05769 0.0
Cd3 Cd 0.1016 0.40505 0.06824 0.0
O4 O 0.01115 0.45131 0.03598 0.0
C5 C -0.00766 0.42502 0.00424 0.0
O6 O 0.02443 0.37748 -0.00131 0.0
C7 C 0.23533 0.31679 0.04046 0.0
C8 C 0.12248 0.15847 0.1204 0.0
O9 O 0.19233 0.14179 0.09941 0.0
O10 O 0.08184 0.19476 0.10212 0.0
O11 O 0.11926 0.73209 0.04042 0.0
Cd12 Cd 0.03804 0.81599 0.04025 0.0
O13 O 0.1234 0.73144 0.96626 0.0
Cd14 Cd 0.02117 0.78857 0.96615 0.0
O15 O 0.91163 0.75488 0.95813 0.0
C16 C 0.91798 0.70663 0.96185 0.0
O17 O 0.98451 0.68286 0.97325 0.0
C18 C 0.14449 0.71083 0.00198 0.0
C19 C 0.04591 0.88474 0.10994 0.0
O20 O 0.98801 0.85634 0.11195 0.0
O21 O 0.10123 0.87991 0.07532 0.0
O22 O 0.73659 0.73985 0.50344 0.0
Cd23 Cd 0.64017 0.67533 0.51654 0.0
O24 O 0.66325 0.80245 0.54303 0.0
Cd25 Cd 0.61908 0.88264 0.55491 0.0
O26 O 0.5221 0.92718 0.52717 0.0
C27 C 0.52506 0.919 0.48496 0.0
O28 O 0.58852 0.89106 0.46366 0.0
C29 C 0.72591 0.78654 0.51562 0.0
C30 C 0.59354 0.64145 0.60409 0.0
O31 O 0.65739 0.62058 0.57951 0.0
O32 O 0.55381 0.67961 0.58773 0.0
O33 O 0.68169 0.24657 0.51924 0.0
Cd34 Cd 0.58373 0.32305 0.52504 0.0
O35 O 0.60404 0.20214 0.48521 0.0
Cd36 Cd 0.50021 0.25937 0.49005 0.0
O37 O 0.38707 0.2367 0.47392 0.0
C38 C 0.39955 0.1956 0.45074 0.0
O39 O 0.47466 0.17596 0.4384 0.0
C40 C 0.67013 0.20529 0.50044 0.0
C41 C 0.57425 0.37483 0.60752 0.0
O42 O 0.5246 0.34241 0.60186 0.0
O43 O 0.62809 0.38307 0.57397 0.0
Zn44 Zn -0.00525 0.15604 0.39532 0.0
Zn45 Zn 0.11195 0.90884 0.36044 0.0
Zn46 Zn 0.05886 0.99914 0.38182 0.0
C47 C 0.08503 0.96044 0.28073 0.0
C48 C 0.95936 0.90888 0.41752 0.0
O49 O 0.15698 0.02873 0.40982 0.0
O50 O 0.07448 0.09566 0.40642 0.0
C51 C 0.02505 0.09825 0.30481 0.0
O52 O 0.05566 0.9965 0.30899 0.0
O53 O 0.1175 0.91906 0.29444 0.0
O54 O 0.01433 0.88062 0.39329 0.0
O55 O 0.96396 0.95716 0.41984 0.0
O56 O 0.0035 0.13969 0.32786 0.0
O57 O 0.043 0.05401 0.32279 0.0
O58 O 0.94699 1.00974 0.43077 0.0
O59 O 0.98885 0.08234 0.41311 0.0
C60 C 0.93617 0.05797 0.43557 0.0
O61 O 0.17915 0.97822 0.40525 0.0
O62 O 0.2155 0.89772 0.38526 0.0
C63 C 0.14329 0.07691 0.41446 0.0
C64 C 0.22977 0.93781 0.40418 0.0
Zn65 Zn 0.51857 0.60834 0.87567 0.0
Zn66 Zn 0.6016 0.42327 0.87612 0.0
Zn67 Zn 0.55643 0.51763 0.88015 0.0
C68 C 0.57179 0.44372 0.79103 0.0
C69 C 0.4667 0.43553 0.9426 0.0
O70 O 0.65226 0.55848 0.90424 0.0
O71 O 0.61786 0.63697 0.88261 0.0
C72 C 0.51417 0.58235 0.79108 0.0
O73 O 0.56406 0.4886 0.80913 0.0
O74 O 0.58371 0.40472 0.81469 0.0
O75 O 0.52544 0.40331 0.92805 0.0
O76 O 0.46276 0.4811 0.92655 0.0
O77 O 0.48133 0.61906 0.81638 0.0
O78 O 0.5476 0.54217 0.80874 0.0
O79 O 0.43948 0.53473 0.92623 0.0
O80 O 0.43995 0.61814 0.93 0.0
C81 C 0.40966 0.57834 0.94392 0.0
O82 O 0.6735 0.50512 0.907 0.0
O83 O 0.7135 0.42485 0.88727 0.0
C84 C 0.66587 0.60561 0.90008 0.0
C85 C 0.72691 0.46606 0.90461 0.0
C86 C 0.14006 0.10108 0.18655 0.0
C87 C 0.09089 0.13737 0.16505 0.0
C88 C 0.1153 0.08487 0.23086 0.0
C89 C 0.04034 0.10413 0.2551 0.0
H90 H 0.19972 0.0867 0.16992 0.0
H91 H 0.15738 0.05973 0.24721 0.0
S92 S 0.8838 0.19352 0.21231 0.0
N93 N 0.9594 0.18741 0.17 0.0
N94 N 0.91364 0.15691 0.25315 0.0
C95 C 0.98837 0.13757 0.23302 0.0
C96 C 0.01337 0.15414 0.18801 0.0
C97 C 0.12985 0.92754 0.15788 0.0
C98 C 0.05275 0.91839 0.14853 0.0
C99 C 0.13964 0.9483 0.19972 0.0
C100 C 0.07259 0.96184 0.23295 0.0
H101 H 0.18356 0.91443 0.13455 0.0
H102 H 0.20044 0.94962 0.20767 0.0
S103 S 0.85716 0.95611 0.22126 0.0
N104 N 0.9074 0.93194 0.17303 0.0
N105 N 0.92632 0.97217 0.25132 0.0
C106 C -0.00516 0.95879 0.22187 0.0
C107 C 0.98476 0.93658 0.1797 0.0
C108 C 0.61971 0.58709 0.67065 0.0
C109 C 0.56737 0.62235 0.65024 0.0
C110 C 0.59948 0.57164 0.71556 0.0
C111 C 0.52575 0.59008 0.74153 0.0
H112 H 0.67838 0.57292 0.65256 0.0
H113 H 0.64423 0.54784 0.731 0.0
S114 S 0.36317 0.67826 0.70275 0.0
N115 N 0.43532 0.67207 0.65861 0.0
N116 N 0.3974 0.64226 0.74279 0.0
C117 C 0.471 0.62317 0.72089 0.0
C118 C 0.49171 0.63938 0.6753 0.0
C119 C 0.50134 0.4002 0.68461 0.0
C120 C 0.57138 0.39997 0.65226 0.0
C121 C 0.50004 0.41806 0.72901 0.0
C122 C 0.5686 0.43632 0.74254 0.0
H123 H 0.44782 0.38502 0.67603 0.0
H124 H 0.44623 0.41553 0.75347 0.0
S125 S 0.7667 0.44441 0.67157 0.0
N126 N 0.71036 0.4214 0.63694 0.0
N127 N 0.70821 0.45297 0.72102 0.0
C128 C 0.63817 0.43764 0.71054 0.0
C129 C 0.63938 0.42015 0.66513 0.0
C130 C 0.36802 0.35242 0.03233 0.0
C131 C 0.2873 0.35696 0.02413 0.0
C132 C 0.42427 0.38227 0.0088 0.0
C133 C 0.40209 0.41746 0.97589 0.0
H134 H 0.38885 0.32363 0.05528 0.0
H135 H 0.48694 0.37535 0.01427 0.0
S136 S 0.19819 0.4442 0.94216 0.0
N137 N 0.18767 0.40024 0.98159 0.0
N138 N 0.29361 0.45627 0.93744 0.0
C139 C 0.32068 0.42458 0.96932 0.0
C140 C 0.2632 0.39418 0.99336 0.0
C141 C 0.77343 0.69617 0.96051 0.0
C142 C 0.85491 0.67716 0.94944 0.0
C143 C 0.71263 0.67077 0.94604 0.0
C144 C 0.73143 0.62601 0.91949 0.0
H145 H 0.75666 0.73117 0.98004 0.0
H146 H 0.65031 0.68701 0.95473 0.0
S147 S 0.93622 0.56309 0.87856 0.0
N148 N 0.95202 0.61144 0.91005 0.0
N149 N 0.83702 0.56551 0.8804 0.0
C150 C 0.81258 0.60651 0.9082 0.0
C151 C 0.87464 0.63173 0.92384 0.0
C152 C 0.8649 0.4787 0.9927 0.0
C153 C 0.93291 0.44528 0.97509 0.0
C154 C 0.79975 0.48904 0.96802 0.0
C155 C 0.80149 0.46633 0.92519 0.0
H156 H 0.85952 0.49402 0.02681 0.0
H157 H 0.74581 0.51199 0.98378 0.0
S158 S 0.97391 0.38644 0.86017 0.0
N159 N 0.00401 0.39711 0.90937 0.0
N160 N 0.88194 0.41646 0.8632 0.0
C161 C 0.87249 0.43711 0.90564 0.0
C162 C 0.93829 0.42664 0.93057 0.0
C163 C 0.25999 0.6532 0.0247 0.0
C164 C 0.19855 0.66258 0.99736 0.0
C165 C 0.32524 0.61589 0.01193 0.0
C166 C 0.33026 0.58691 0.97179 0.0
H167 H 0.26229 0.67821 0.05314 0.0
H168 H 0.377 0.61456 0.03007 0.0
S169 S 0.17454 0.58818 0.89543 0.0
N170 N 0.13854 0.63276 0.93384 0.0
N171 N 0.26153 0.56354 0.90998 0.0
C172 C 0.26315 0.5906 0.94853 0.0
C173 C 0.19737 0.62872 0.96104 0.0
C174 C 0.81074 0.81197 0.44574 0.0
C175 C 0.77954 0.82224 0.49152 0.0
C176 C 0.86538 0.8422 0.42173 0.0
C177 C 0.89114 0.88427 0.44229 0.0
H178 H 0.79365 0.77969 0.42829 0.0
H179 H 0.88926 0.83172 0.38687 0.0
S180 S 0.82803 0.92802 0.56132 0.0
N181 N 0.77881 0.8776 0.55676 0.0
N182 N 0.88044 0.9356 0.5108 0.0
C183 C 0.85849 0.89639 0.48754 0.0
C184 C 0.80304 0.86503 0.51239 0.0
C185 C 0.34972 0.11788 0.42243 0.0
C186 C 0.33215 0.16758 0.44071 0.0
C187 C 0.28808 0.08907 0.41409 0.0
C188 C 0.20646 0.10864 0.42365 0.0
H189 H 0.41152 0.10068 0.41481 0.0
H190 H 0.30487 0.05116 0.39961 0.0
S191 S 0.12748 0.23698 0.47057 0.0
N192 N 0.22675 0.23558 0.46726 0.0
N193 N 0.11069 0.18098 0.45147 0.0
C194 C 0.18766 0.15848 0.44126 0.0
C195 C 0.25061 0.18796 0.44993 0.0
C196 C 0.44748 0.90521 0.42162 0.0
C197 C 0.45225 0.93068 0.46244 0.0
C198 C 0.3755 0.90862 0.4028 0.0
C199 C 0.30577 0.93821 0.42359 0.0
H200 H 0.49869 0.88068 0.40484 0.0
H201 H 0.37423 0.88726 0.37192 0.0
S202 S 0.28769 0.01609 0.52864 0.0
N203 N 0.38219 0.98944 0.52144 0.0
N204 N 0.24641 0.99553 0.48594 0.0
C205 C 0.31032 0.96579 0.46327 0.0
C206 C 0.38375 0.96214 0.48267 0.0
C207 C 0.72301 0.11867 0.46768 0.0
C208 C 0.73516 0.16218 0.49245 0.0
C209 C 0.78718 0.08133 0.45284 0.0
C210 C 0.86538 0.0864 0.46227 0.0
H211 H 0.66454 0.11466 0.4575 0.0
H212 H 0.77678 0.05059 0.43109 0.0
S213 S 0.92733 0.18716 0.53227 0.0
N214 N 0.83013 0.20364 0.53076 0.0
N215 N 0.95022 0.13378 0.50238 0.0
C216 C 0.87706 0.12708 0.49003 0.0
C217 C 0.81205 0.16491 0.50531 0.0
loop_
_geom_bond_atom_site_label_1
_geom_bond_atom_site_label_2
_geom_bond_distance
_geom_bond_site_symmetry_2
_ccdc_geom_bond_type
O0 Cd1 2.300 . S
O0 C7 1.275 . S
Cd1 O0 2.300 . S
Cd1 O9 2.381 . S
Cd1 O10 2.378 . S
O2 Cd3 2.385 . S
O2 C7 1.255 . S
Cd3 O2 2.385 . S
Cd3 O4 2.317 . S
O4 Cd3 2.317 . S
O4 C5 1.232 1_454 S
C5 O4 1.232 1_656 S
C5 O6 1.218 1_655 S
O6 C5 1.218 1_455 S
C7 O0 1.275 . S
C7 O2 1.255 . S
C8 O9 1.258 . S
C8 O10 1.256 . S
O9 Cd1 2.381 . S
O9 C8 1.258 . S
O10 Cd1 2.378 . S
O10 C8 1.256 . S
O11 Cd12 2.300 . S
O11 C18 1.284 . S
Cd12 O11 2.300 . S
Cd12 O20 2.381 . S
Cd12 O21 2.378 1_455 S
O13 Cd14 2.385 1_455 S
O13 C18 1.250 1_556 S
Cd14 O13 2.385 1_655 S
Cd14 O15 2.317 . S
O15 Cd14 2.317 . S
O15 C16 1.232 . S
C16 O15 1.232 . S
C16 O17 1.218 . S
O17 C16 1.218 . S
C18 O11 1.284 . S
C18 O13 1.250 1_554 S
C19 O20 1.258 . S
C19 O21 1.256 1_455 S
O20 Cd12 2.381 . S
O20 C19 1.258 . S
O21 Cd12 2.378 1_655 S
O21 C19 1.256 1_655 S
O22 Cd23 2.300 . S
O22 C29 1.275 . S
Cd23 O22 2.300 . S
Cd23 O31 2.381 . S
Cd23 O32 2.378 . S
O24 Cd25 2.385 . S
O24 C29 1.255 . S
Cd25 O24 2.385 . S
Cd25 O26 2.317 . S
O26 Cd25 2.317 . S
O26 C27 1.232 . S
C27 O26 1.232 . S
C27 O28 1.218 . S
O28 C27 1.218 . S
C29 O22 1.275 . S
C29 O24 1.255 . S
C30 O31 1.258 . S
C30 O32 1.256 . S
O31 Cd23 2.381 . S
O31 C30 1.258 . S
O32 Cd23 2.378 . S
O32 C30 1.256 . S
O33 Cd34 2.300 . S
O33 C40 1.275 . S
Cd34 O33 2.300 . S
Cd34 O42 2.381 . S
Cd34 O43 2.378 . S
O35 Cd36 2.385 . S
O35 C40 1.255 . S
Cd36 O35 2.385 . S
Cd36 O37 2.317 . S
O37 Cd36 2.317 . S
O37 C38 1.232 . S
C38 O37 1.232 . S
C38 O39 1.218 . S
O39 C38 1.218 . S
C40 O33 1.275 . S
C40 O35 1.255 . S
C41 O42 1.258 . S
C41 O43 1.256 . S
O42 Cd34 2.381 . S
O42 C41 1.258 . S
O43 Cd34 2.378 . S
O43 C41 1.256 . S
Zn44 O50 1.920 . S
Zn44 O56 1.898 . S
Zn44 O59 1.905 1_455 S
Zn45 O53 1.905 . S
Zn45 O54 1.898 1_455 S
Zn45 O62 1.920 . S
Zn46 O49 2.080 . S
Zn46 O52 2.114 1_545 S
Zn46 O55 2.120 1_545 S
Zn46 O57 2.120 . S
Zn46 O58 2.114 1_455 S
Zn46 O61 2.080 1_545 S
C47 O52 1.166 . S
C47 O53 1.182 . S
C48 O54 1.167 . S
C48 O55 1.299 1_655 S
O49 Zn46 2.080 . S
O49 C63 1.305 . S
O50 Zn44 1.920 . S
O50 C63 1.234 . S
C51 O56 1.167 . S
C51 O57 1.299 . S
O52 Zn46 2.114 1_565 S
O52 C47 1.166 . S
O53 Zn45 1.905 . S
O53 C47 1.182 . S
O54 Zn45 1.898 1_655 S
O54 C48 1.167 . S
O55 Zn46 2.120 1_565 S
O55 C48 1.299 1_455 S
O56 Zn44 1.898 . S
O56 C51 1.167 . S
O57 Zn46 2.120 . S
O57 C51 1.299 . S
O58 Zn46 2.114 1_655 S
O58 C60 1.166 . S
O59 Zn44 1.905 1_655 S
O59 C60 1.182 . S
C60 O58 1.166 . S
C60 O59 1.182 . S
O61 Zn46 2.080 1_565 S
O61 C64 1.305 . S
O62 Zn45 1.920 . S
O62 C64 1.234 . S
C63 O49 1.305 . S
C63 O50 1.234 . S
C64 O61 1.305 . S
C64 O62 1.234 . S
Zn65 O71 1.920 . S
Zn65 O77 1.898 . S
Zn65 O80 1.905 . S
Zn66 O74 1.905 . S
Zn66 O75 1.898 . S
Zn66 O83 1.920 . S
Zn67 O70 2.080 . S
Zn67 O73 2.114 . S
Zn67 O76 2.120 . S
Zn67 O78 2.120 . S
Zn67 O79 2.114 . S
Zn67 O82 2.080 . S
C68 O73 1.166 . S
C68 O74 1.182 . S
C69 O75 1.167 . S
C69 O76 1.299 . S
O70 Zn67 2.080 . S
O70 C84 1.305 . S
O71 Zn65 1.920 . S
O71 C84 1.234 . S
C72 O77 1.167 . S
C72 O78 1.299 . S
O73 Zn67 2.114 . S
O73 C68 1.166 . S
O74 Zn66 1.905 . S
O74 C68 1.182 . S
O75 Zn66 1.898 . S
O75 C69 1.167 . S
O76 Zn67 2.120 . S
O76 C69 1.299 . S
O77 Zn65 1.898 . S
O77 C72 1.167 . S
O78 Zn67 2.120 . S
O78 C72 1.299 . S
O79 Zn67 2.114 . S
O79 C81 1.166 . S
O80 Zn65 1.905 . S
O80 C81 1.182 . S
C81 O79 1.166 . S
C81 O80 1.182 . S
O82 Zn67 2.080 . S
O82 C85 1.305 . S
O83 Zn66 1.920 . S
O83 C85 1.234 . S
C84 O70 1.305 . S
C84 O71 1.234 . S
C85 O82 1.305 . S
C85 O83 1.234 . S
C86 C87 1.369 . S
C86 C88 1.419 . S
C86 H90 0.930 . S
C87 C86 1.369 . S
C87 C96 1.429 . S
C88 C86 1.419 . S
C88 C89 1.363 . S
C88 H91 0.929 . S
C89 C88 1.363 . S
C89 C95 1.428 . S
H90 C86 0.930 . S
H91 C88 0.929 . S
S92 N93 1.613 . S
S92 N94 1.610 . S
N93 S92 1.613 . S
N93 C96 1.350 . S
N94 S92 1.610 . S
N94 C95 1.351 . S
C95 C89 1.428 . S
C95 N94 1.351 . S
C95 C96 1.434 . S
C96 C87 1.429 . S
C96 N93 1.350 . S
C96 C95 1.434 . S
C97 C98 1.369 . S
C97 C99 1.419 . S
C97 H101 0.930 . S
C98 C97 1.369 . S
C98 C107 1.429 1_455 S
C99 C97 1.419 . S
C99 C100 1.363 . S
C99 H102 0.929 . S
C100 C99 1.363 . S
C100 C106 1.428 1_455 S
H101 C97 0.930 . S
H102 C99 0.929 . S
S103 N104 1.613 . S
S103 N105 1.610 . S
N104 S103 1.613 . S
N104 C107 1.350 . S
N105 S103 1.610 . S
N105 C106 1.351 . S
C106 C100 1.428 1_655 S
C106 N105 1.351 . S
C106 C107 1.434 . S
C107 C98 1.429 1_655 S
C107 N104 1.350 . S
C107 C106 1.434 . S
C108 C109 1.369 . S
C108 C110 1.419 . S
C108 H112 0.930 . S
C109 C108 1.369 . S
C109 C118 1.429 . S
C110 C108 1.419 . S
C110 C111 1.363 . S
C110 H113 0.929 . S
C111 C110 1.363 . S
C111 C117 1.428 . S
H112 C108 0.930 . S
H113 C110 0.929 . S
S114 N115 1.613 . S
S114 N116 1.610 . S
N115 S114 1.613 . S
N115 C118 1.350 . S
N116 S114 1.610 . S
N116 C117 1.351 . S
C117 C111 1.428 . S
C117 N116 1.351 . S
C117 C118 1.434 . S
C118 C109 1.429 . S
C118 N115 1.350 . S
C118 C117 1.434 . S
C119 C120 1.369 . S
C119 C121 1.419 . S
C119 H123 0.930 . S
C120 C119 1.369 . S
C120 C129 1.429 . S
C121 C119 1.419 . S
C121 C122 1.363 . S
C121 H124 0.929 . S
C122 C121 1.363 . S
C122 C128 1.428 . S
H123 C119 0.930 . S
H124 C121 0.929 . S
S125 N126 1.613 . S
S125 N127 1.610 . S
N126 S125 1.613 . S
N126 C129 1.350 . S
N127 S125 1.610 . S
N127 C128 1.351 . S
C128 C122 1.428 . S
C128 N127 1.351 . S
C128 C129 1.434 . S
C129 C120 1.429 . S
C129 N126 1.350 . S
C129 C128 1.434 . S
C130 C131 1.369 . S
C130 C132 1.419 . S
C130 H134 0.930 . S
C131 C130 1.369 . S
C131 C140 1.429 . S
C132 C130 1.419 . S
C132 C133 1.363 . S
C132 H135 0.929 . S
C133 C132 1.363 . S
C133 C139 1.428 . S
H134 C130 0.930 . S
H135 C132 0.929 . S
S136 N137 1.613 . S
S136 N138 1.610 . S
N137 S136 1.613 . S
N137 C140 1.350 . S
N138 S136 1.610 . S
N138 C139 1.351 . S
C139 C133 1.428 . S
C139 N138 1.351 . S
C139 C140 1.434 . S
C140 C131 1.429 . S
C140 N137 1.350 . S
C140 C139 1.434 . S
C141 C142 1.369 1_554 S
C141 C143 1.419 1_554 S
C141 H145 0.930 . S
C142 C141 1.369 1_556 S
C142 C151 1.429 . S
C143 C141 1.419 1_556 S
C143 C144 1.363 . S
C143 H146 0.929 1_556 S
C144 C143 1.363 . S
C144 C150 1.428 . S
H145 C141 0.930 . S
H146 C143 0.929 1_554 S
S147 N148 1.613 . S
S147 N149 1.610 . S
N148 S147 1.613 . S
N148 C151 1.350 . S
N149 S147 1.610 . S
N149 C150 1.351 . S
C150 C144 1.428 . S
C150 N149 1.351 . S
C150 C151 1.434 . S
C151 C142 1.429 . S
C151 N148 1.350 . S
C151 C150 1.434 . S
C152 C153 1.369 . S
C152 C154 1.419 . S
C152 H156 0.930 . S
C153 C152 1.369 . S
C153 C162 1.429 . S
C154 C152 1.419 . S
C154 C155 1.363 . S
C154 H157 0.929 . S
C155 C154 1.363 . S
C155 C161 1.428 . S
H156 C152 0.930 . S
H157 C154 0.929 . S
S158 N159 1.613 . S
S158 N160 1.610 . S
N159 S158 1.613 . S
N159 C162 1.350 . S
N160 S158 1.610 . S
N160 C161 1.351 . S
C161 C155 1.428 . S
C161 N160 1.351 . S
C161 C162 1.434 . S
C162 C153 1.429 . S
C162 N159 1.350 . S
C162 C161 1.434 . S
C163 C164 1.369 . S
C163 C165 1.419 . S
C163 H167 0.930 . S
C164 C163 1.369 . S
C164 C173 1.429 . S
C165 C163 1.419 . S
C165 C166 1.363 . S
C165 H168 0.929 . S
C166 C165 1.363 . S
C166 C172 1.428 . S
H167 C163 0.930 . S
H168 C165 0.929 . S
S169 N170 1.613 . S
S169 N171 1.610 . S
N170 S169 1.613 . S
N170 C173 1.350 . S
N171 S169 1.610 . S
N171 C172 1.351 . S
C172 C166 1.428 . S
C172 N171 1.351 . S
C172 C173 1.434 . S
C173 C164 1.429 . S
C173 N170 1.350 . S
C173 C172 1.434 . S
C174 C175 1.369 . S
C174 C176 1.419 . S
C174 H178 0.930 . S
C175 C174 1.369 . S
C175 C184 1.429 . S
C176 C174 1.419 . S
C176 C177 1.363 . S
C176 H179 0.929 . S
C177 C176 1.363 . S
C177 C183 1.428 . S
H178 C174 0.930 . S
H179 C176 0.929 . S
S180 N181 1.613 . S
S180 N182 1.610 . S
N181 S180 1.613 . S
N181 C184 1.350 . S
N182 S180 1.610 . S
N182 C183 1.351 . S
C183 C177 1.428 . S
C183 N182 1.351 . S
C183 C184 1.434 . S
C184 C175 1.429 . S
C184 N181 1.350 . S
C184 C183 1.434 . S
C185 C186 1.369 . S
C185 C187 1.419 . S
C185 H189 0.930 . S
C186 C185 1.369 . S
C186 C195 1.429 . S
C187 C185 1.419 . S
C187 C188 1.363 . S
C187 H190 0.929 . S
C188 C187 1.363 . S
C188 C194 1.428 . S
H189 C185 0.930 . S
H190 C187 0.929 . S
S191 N192 1.613 . S
S191 N193 1.610 . S
N192 S191 1.613 . S
N192 C195 1.350 . S
N193 S191 1.610 . S
N193 C194 1.351 . S
C194 C188 1.428 . S
C194 N193 1.351 . S
C194 C195 1.434 . S
C195 C186 1.429 . S
C195 N192 1.350 . S
C195 C194 1.434 . S
C196 C197 1.369 . S
C196 C198 1.419 . S
C196 H200 0.930 . S
C197 C196 1.369 . S
C197 C206 1.429 . S
C198 C196 1.419 . S
C198 C199 1.363 . S
C198 H201 0.929 . S
C199 C198 1.363 . S
C199 C205 1.428 . S
H200 C196 0.930 . S
H201 C198 0.929 . S
S202 N203 1.613 . S
S202 N204 1.610 . S
N203 S202 1.613 . S
N203 C206 1.350 . S
N204 S202 1.610 . S
N204 C205 1.351 . S
C205 C199 1.428 . S
C205 N204 1.351 . S
C205 C206 1.434 . S
C206 C197 1.429 . S
C206 N203 1.350 . S
C206 C205 1.434 . S
C207 C208 1.369 . S
C207 C209 1.419 . S
C207 H211 0.930 . S
C208 C207 1.369 . S
C208 C217 1.429 . S
C209 C207 1.419 . S
C209 C210 1.363 . S
C209 H212 0.929 . S
C210 C209 1.363 . S
C210 C216 1.428 . S
H211 C207 0.930 . S
H212 C209 0.929 . S
S213 N214 1.613 . S
S213 N215 1.610 . S
N214 S213 1.613 . S
N214 C217 1.350 . S
N215 S213 1.610 . S
N215 C216 1.351 . S
C216 C210 1.428 . S
C216 N215 1.351 . S
C216 C217 1.434 . S
C217 C208 1.429 . S
C217 N214 1.350 . S
C217 C216 1.434 . S
C89 C51 1.479 . S
C87 C8 1.532 . S
C100 C47 1.415 . S
C98 C19 1.521 . S
C111 C72 1.480 . S
C109 C30 1.532 . S
C120 C41 1.519 . S
C122 C68 1.416 . S
C131 C7 1.318 1_556 S
C133 C69 1.190 . S
C144 C84 1.165 . S
C142 C16 1.256 . S
C153 C5 1.414 . S
C155 C85 1.526 . S
C166 C81 1.571 . S
C164 C18 1.715 1_556 S
C177 C48 1.191 . S
C175 C29 1.311 . S
C186 C38 1.268 . S
C188 C63 1.176 . S
C199 C64 1.531 . S
C197 C27 1.398 . S
C210 C60 1.570 . S
C208 C40 1.718 . S
