# Generated by pormake.
# Topology bcu-b, (8,8)-cn, num edge types: 1
# Building blocks:
#     Node 0, Type 0, BuildingBlock: TAGTUT_clean_sbu_3, # of connection points: 8
#     Node 1, Type 1, BuildingBlock: TAGTUT_clean_sbu_1, # of connection points: 8
#     Edge 2, Type (0, 1), BuildingBlock: EZIPEK_clean_linker_0, # of connection points: 2
#     Edge 3, Type (0, 1), BuildingBlock: EZIPEK_clean_linker_0, # of connection points: 2
#     Edge 4, Type (0, 1), BuildingBlock: EZIPEK_clean_linker_0, # of connection points: 2
#     Edge 5, Type (0, 1), BuildingBlock: EZIPEK_clean_linker_0, # of connection points: 2
#     Edge 6, Type (0, 1), BuildingBlock: EZIPEK_clean_linker_0, # of connection points: 2
#     Edge 7, Type (0, 1), BuildingBlock: EZIPEK_clean_linker_0, # of connection points: 2
#     Edge 8, Type (0, 1), BuildingBlock: EZIPEK_clean_linker_0, # of connection points: 2
#     Edge 9, Type (0, 1), BuildingBlock: EZIPEK_clean_linker_0, # of connection points: 2
# Relax obj value: 0.012
# Max RMSD: 0.078
# Mean RMSD: 0.066
data_MOF--net-bcu-b--node1-TAGTUT_clean_sbu_3--node2-TAGTUT_clean_sbu_1--edge1-EZIPEK_clean_linker_0
_symmetry_space_group_name_H-M    P1
_symmetry_Int_Tables_number       1
_symmetry_cell_setting            triclinic
loop_
_symmetry_equiv_pos_as_xyz
'x, y, z'
_cell_length_a     15.469399
_cell_length_b     14.770444
_cell_length_c     16.024218
_cell_angle_alpha  89.45984
_cell_angle_beta   92.451683
_cell_angle_gamma 110.3975
loop_
_atom_site_label
_atom_site_type_symbol
_atom_site_fract_x
_atom_site_fract_y
_atom_site_fract_z
_atom_type_partial_charge
C0 C 0.13934 0.17807 0.09442 0.0
C1 C 0.31134 0.92757 0.10513 0.0
C2 C 0.18392 0.8463 0.86635 0.0
Mg3 Mg 0.94938 0.17055 -0.00299 0.0
Mg4 Mg 0.78708 0.95941 0.97987 0.0
O5 O 0.90505 0.03698 0.94634 0.0
Mg6 Mg 0.00641 -0.0083 -0.01212 0.0
O7 O 0.11333 0.95751 0.03354 0.0
Mg8 Mg 0.2173 0.05153 0.97319 0.0
Mg9 Mg 0.10843 0.82978 0.03923 0.0
C10 C 0.85372 0.80386 0.89121 0.0
O11 O 0.91888 0.89155 0.08786 0.0
O12 O 0.82707 0.1888 0.91292 0.0
O13 O 0.9807 0.77418 0.10474 0.0
O14 O 0.85318 0.1339 0.10575 0.0
O15 O 0.71736 0.03974 0.91084 0.0
O16 O 0.7664 0.97844 0.11068 0.0
O17 O 0.10239 0.0856 0.88752 0.0
O18 O 0.05171 0.20877 0.89331 0.0
C19 C 0.10275 0.16806 0.8602 0.0
C20 C 0.74643 0.12887 0.88983 0.0
O21 O 0.9396 0.85742 0.90093 0.0
O22 O 0.31912 0.00416 0.06238 0.0
O23 O 0.78938 0.82702 0.92341 0.0
O24 O 0.22142 0.93643 0.88116 0.0
O25 O 0.23661 0.85443 0.1061 0.0
O26 O 0.12722 0.78929 0.91547 0.0
O27 O 0.0572 0.1245 0.07262 0.0
O28 O 0.20955 0.16282 0.06725 0.0
C29 C 0.79503 0.06331 0.14213 0.0
C30 C 0.91875 0.81095 0.11926 0.0
C31 C 0.34628 0.73868 0.58626 0.0
C32 C 0.47097 0.76428 0.34807 0.0
C33 C 0.32879 0.36316 0.36768 0.0
Mg34 Mg 0.52999 0.72925 0.52437 0.0
O35 O 0.45282 0.59912 0.51914 0.0
Mg36 Mg 0.33453 0.56319 0.45075 0.0
Mg37 Mg 0.49936 0.49814 0.48143 0.0
O38 O 0.54615 0.39562 0.44458 0.0
Mg39 Mg 0.46847 0.26785 0.45926 0.0
Mg40 Mg 0.6703 0.43759 0.5045 0.0
C41 C 0.66681 0.6318 0.60759 0.0
C42 C 0.67254 0.59688 0.36482 0.0
O43 O 0.29998 0.66936 0.53664 0.0
O44 O 0.43466 0.77345 0.59123 0.0
O45 O 0.3987 0.68961 0.35795 0.0
O46 O 0.53839 0.78965 0.4017 0.0
O47 O 0.64455 0.70699 0.59462 0.0
O48 O 0.62149 0.54952 0.57398 0.0
C49 C 0.31483 0.39439 0.58795 0.0
O50 O 0.39897 0.40069 0.57806 0.0
O51 O 0.27712 0.44407 0.54384 0.0
O52 O 0.69428 0.31653 0.4232 0.0
O53 O 0.55262 0.20664 0.39356 0.0
O54 O 0.62567 0.3314 0.6102 0.0
C55 C 0.64041 0.23802 0.38721 0.0
O56 O 0.4817 0.22925 0.58972 0.0
O57 O 0.34842 0.2887 0.39244 0.0
C58 C 0.55635 0.26201 0.63447 0.0
O59 O 0.38149 0.44945 0.38603 0.0
O60 O 0.59283 0.59484 0.38503 0.0
O61 O 0.71334 0.54428 0.40015 0.0
C62 C 0.13824 0.19816 0.24868 0.0
C63 C 0.15516 0.24067 0.16846 0.0
C64 C 0.25517 0.39314 0.23135 0.0
C65 C 0.2469 0.34528 0.30972 0.0
N66 N 0.14768 0.22576 0.39816 0.0
N67 N 0.20314 0.38384 0.08485 0.0
C68 C 0.17473 0.25663 0.31982 0.0
C69 C 0.20426 0.34066 0.16045 0.0
N70 N 0.09779 0.10058 0.25701 0.0
N71 N 0.31469 0.48568 0.22373 0.0
H72 H 0.16572 0.34536 0.03283 0.0
H73 H 0.23221 0.45793 0.07526 0.0
H74 H 0.34339 0.52995 0.27509 0.0
H75 H 0.33424 0.51936 0.16673 0.0
H76 H 0.09276 0.06551 0.31429 0.0
H77 H 0.07705 0.05379 0.20602 0.0
H78 H 0.09146 0.16352 0.40939 0.0
H79 H 0.17669 0.26865 0.45073 0.0
C80 C 0.66527 0.1074 0.19148 0.0
C81 C 0.74726 0.08811 0.21163 0.0
C82 C 0.75245 0.15506 0.35217 0.0
C83 C 0.67833 0.18645 0.3277 0.0
N84 N 0.5799 0.21314 0.21583 0.0
N85 N 0.87896 0.11016 0.30565 0.0
C86 C 0.6383 0.16755 0.24526 0.0
C87 C 0.79367 0.11627 0.29065 0.0
N88 N 0.61499 0.0715 0.11933 0.0
N89 N 0.78223 0.16026 0.43405 0.0
H90 H 0.91126 0.08291 0.26159 0.0
H91 H 0.92023 0.13907 0.3588 0.0
H92 H 0.75253 0.18668 0.48095 0.0
H93 H 0.83031 0.12999 0.45629 0.0
H94 H 0.55084 0.07725 0.10482 0.0
H95 H 0.63311 0.02843 0.07728 0.0
H96 H 0.55631 0.20969 0.15366 0.0
H97 H 0.56318 0.26353 0.25066 0.0
C98 C 0.83494 0.80628 0.25114 0.0
C99 C 0.84557 0.75906 0.17718 0.0
C100 C 0.72506 0.60985 0.22014 0.0
C101 C 0.71835 0.65656 0.2949 0.0
N102 N 0.74905 0.80181 0.37517 0.0
N103 N 0.80824 0.61247 0.09521 0.0
C104 C 0.76714 0.75588 0.30796 0.0
C105 C 0.79196 0.66001 0.16226 0.0
N106 N 0.89661 0.89545 0.27197 0.0
N107 N 0.66492 0.51822 0.20377 0.0
H108 H 0.85169 0.64688 0.04784 0.0
H109 H 0.78138 0.53784 0.08737 0.0
H110 H 0.61444 0.48049 0.24497 0.0
H111 H 0.65894 0.48259 0.14695 0.0
H112 H 0.90158 0.92738 0.33044 0.0
H113 H 0.94936 0.93385 0.23386 0.0
H114 H 0.77348 0.87659 0.38261 0.0
H115 H 0.70309 0.76559 0.42033 0.0
C116 C 0.42673 0.84766 0.13372 0.0
C117 C 0.39013 0.91929 0.15617 0.0
C118 C 0.44221 0.91397 0.30157 0.0
C119 C 0.46654 0.83251 0.28115 0.0
N120 N 0.50827 0.73975 0.1785 0.0
N121 N 0.38783 0.04202 0.25196 0.0
C122 C 0.46825 0.8059 0.19689 0.0
C123 C 0.40768 0.9606 0.23701 0.0
N124 N 0.4171 0.81709 0.05252 0.0
N125 N 0.44544 0.94173 0.38321 0.0
H126 H 0.36254 0.07657 0.20495 0.0
H127 H 0.40315 0.08004 0.30814 0.0
H128 H 0.47205 0.91094 0.43204 0.0
H129 H 0.41916 -0.00689 0.4038 0.0
H130 H 0.43371 0.75891 0.03178 0.0
H131 H 0.39111 0.85094 0.00531 0.0
H132 H 0.51633 0.71943 0.11819 0.0
H133 H 0.53961 0.70982 0.2247 0.0
C134 C 0.20399 0.84726 0.71213 0.0
C135 C 0.2132 0.80809 0.7922 0.0
C136 C 0.30776 0.7226 0.73549 0.0
C137 C 0.29748 0.76083 0.65543 0.0
N138 N 0.22709 0.84677 0.56297 0.0
N139 N 0.26439 0.70008 0.87941 0.0
C140 C 0.24254 0.81909 0.64227 0.0
C141 C 0.26149 0.74254 0.80349 0.0
N142 N 0.15976 0.91274 0.70346 0.0
N143 N 0.36474 0.66987 0.74716 0.0
H144 H 0.241 0.71955 0.93396 0.0
H145 H 0.286 0.64126 0.88827 0.0
H146 H 0.39438 0.64624 0.69852 0.0
H147 H 0.3867 0.65261 0.80549 0.0
H148 H 0.16062 0.95338 0.64992 0.0
H149 H 0.12394 0.92918 0.75131 0.0
H150 H 0.18021 0.88102 0.54734 0.0
H151 H 0.25746 0.83014 0.51112 0.0
C152 C 0.1295 0.29246 0.74551 0.0
C153 C 0.15372 0.21647 0.78385 0.0
C154 C 0.26386 0.23997 0.67257 0.0
C155 C 0.25901 0.33198 0.65428 0.0
N156 N 0.19537 0.45383 0.69418 0.0
N157 N 0.26428 0.13222 0.78472 0.0
C158 C 0.19475 0.36125 0.69729 0.0
C159 C 0.2265 0.19342 0.74759 0.0
N160 N 0.04257 0.29578 0.74849 0.0
N161 N 0.29814 0.19382 0.61672 0.0
H162 H 0.24902 0.10694 0.84434 0.0
H163 H 0.32039 0.11887 0.7607 0.0
H164 H 0.31668 0.22174 0.55745 0.0
H165 H 0.29644 0.12316 0.62581 0.0
H166 H 0.02364 0.34907 0.71769 0.0
H167 H 0.98676 0.2377 0.76865 0.0
H168 H 0.15109 0.47637 0.72922 0.0
H169 H 0.24642 0.5098 0.6658 0.0
C170 C 0.65096 0.2317 0.8489 0.0
C171 C 0.68688 0.15872 0.82877 0.0
C172 C 0.59405 0.12636 0.69721 0.0
C173 C 0.57279 0.21072 0.70983 0.0
N174 N 0.57538 0.34213 0.79798 0.0
N175 N 0.70266 0.04511 0.72786 0.0
C176 C 0.59885 0.26235 0.78644 0.0
C177 C 0.66016 0.10735 0.75177 0.0
N178 N 0.66486 0.26983 0.92781 0.0
N179 N 0.55283 0.06563 0.63194 0.0
H180 H 0.75528 0.03255 0.76354 0.0
H181 H 0.69282 0.01366 0.66868 0.0
H182 H 0.50367 0.07723 0.59095 0.0
H183 H 0.55949 -0.00155 0.62415 0.0
H184 H 0.63364 0.31705 0.94861 0.0
H185 H 0.70238 0.24844 0.97476 0.0
H186 H 0.60113 0.39045 0.84752 0.0
H187 H 0.53136 0.3608 0.75551 0.0
C188 C 0.73131 0.65322 0.83522 0.0
C189 C 0.82249 0.72049 0.83055 0.0
C190 C 0.82076 0.68432 0.68138 0.0
C191 C 0.72472 0.63535 0.68333 0.0
N192 N 0.58724 0.56443 0.76123 0.0
N193 N 0.9648 0.75324 0.76063 0.0
C194 C 0.68029 0.61366 0.7605 0.0
C195 C 0.87114 0.72158 0.75709 0.0
N196 N 0.69376 0.62839 0.91131 0.0
N197 N 0.86234 0.70027 0.60644 0.0
H198 H 0.00177 0.77108 0.81702 0.0
H199 H 0.00383 0.74727 0.71102 0.0
H200 H 0.82698 0.66952 0.55085 0.0
H201 H 0.92987 0.74653 0.59897 0.0
H202 H 0.63149 0.57276 0.92044 0.0
H203 H 0.72963 0.65848 0.9665 0.0
H204 H 0.54804 0.55859 0.81355 0.0
H205 H 0.54769 0.53192 0.70818 0.0
loop_
_geom_bond_atom_site_label_1
_geom_bond_atom_site_label_2
_geom_bond_distance
_geom_bond_site_symmetry_2
_ccdc_geom_bond_type
C0 O27 1.312 . S
C0 O28 1.208 . S
C1 O22 1.331 . S
C1 O25 1.244 . S
C2 O24 1.264 . S
C2 O26 1.273 . S
Mg3 O5 1.934 1_454 S
Mg3 O12 2.075 1_454 S
Mg3 O14 2.030 1_455 S
Mg3 O18 2.024 1_554 S
Mg3 O27 2.296 . S
Mg4 O5 1.963 . S
Mg4 O15 1.942 . S
Mg4 O16 1.955 1_556 S
Mg4 O23 1.986 1_545 S
O5 Mg3 1.934 1_656 S
O5 Mg4 1.963 . S
O5 Mg6 1.915 1_546 S
Mg6 O5 1.915 1_564 S
Mg6 O7 1.915 1_655 S
Mg6 O11 2.013 . S
Mg6 O17 2.114 1_664 S
Mg6 O21 2.013 1_554 S
Mg6 O27 2.114 1_665 S
O7 Mg6 1.915 1_455 S
O7 Mg8 1.936 1_565 S
O7 Mg9 1.963 . S
Mg8 O7 1.936 1_545 S
Mg8 O17 2.291 1_554 S
Mg8 O22 2.081 1_545 S
Mg8 O24 2.023 1_544 S
Mg8 O28 2.031 . S
Mg9 O7 1.963 . S
Mg9 O13 1.986 1_455 S
Mg9 O25 1.942 . S
Mg9 O26 1.955 1_554 S
C10 O21 1.191 . S
C10 O23 1.307 . S
O11 Mg6 2.013 . S
O11 C30 1.191 . S
O12 Mg3 2.075 1_656 S
O12 C20 1.331 . S
O13 Mg9 1.986 1_655 S
O13 C30 1.307 . S
O14 Mg3 2.030 1_655 S
O14 C29 1.264 . S
O15 Mg4 1.942 . S
O15 C20 1.244 . S
O16 Mg4 1.955 1_554 S
O16 C29 1.273 . S
O17 Mg6 2.114 1_446 S
O17 Mg8 2.291 1_556 S
O17 C19 1.312 . S
O18 Mg3 2.024 1_556 S
O18 C19 1.208 . S
C19 O17 1.312 . S
C19 O18 1.208 . S
C20 O12 1.331 . S
C20 O15 1.244 . S
O21 Mg6 2.013 1_556 S
O21 C10 1.191 . S
O22 C1 1.331 . S
O22 Mg8 2.081 1_565 S
O23 Mg4 1.986 1_565 S
O23 C10 1.307 . S
O24 C2 1.264 . S
O24 Mg8 2.023 1_566 S
O25 C1 1.244 . S
O25 Mg9 1.942 . S
O26 C2 1.273 . S
O26 Mg9 1.955 1_556 S
O27 C0 1.312 . S
O27 Mg3 2.296 . S
O27 Mg6 2.114 1_445 S
O28 C0 1.208 . S
O28 Mg8 2.031 . S
C29 O14 1.264 . S
C29 O16 1.273 . S
C30 O11 1.191 . S
C30 O13 1.307 . S
C31 O43 1.241 . S
C31 O44 1.280 . S
C32 O45 1.277 . S
C32 O46 1.245 . S
C33 O57 1.247 . S
C33 O59 1.289 . S
Mg34 O35 1.926 . S
Mg34 O44 1.984 . S
Mg34 O46 1.988 . S
Mg34 O47 2.061 . S
O35 Mg34 1.926 . S
O35 Mg36 1.986 . S
O35 Mg37 1.917 . S
Mg36 O35 1.986 . S
Mg36 O43 2.042 . S
Mg36 O45 2.041 . S
Mg36 O51 2.038 . S
Mg36 O59 2.238 . S
Mg37 O35 1.917 . S
Mg37 O38 1.917 . S
Mg37 O48 2.106 . S
Mg37 O50 2.079 . S
Mg37 O59 2.106 . S
Mg37 O60 2.079 . S
O38 Mg37 1.917 . S
O38 Mg39 1.926 . S
O38 Mg40 1.986 . S
Mg39 O38 1.926 . S
Mg39 O53 1.984 . S
Mg39 O56 1.988 . S
Mg39 O57 2.061 . S
Mg40 O38 1.986 . S
Mg40 O48 2.238 . S
Mg40 O52 2.042 . S
Mg40 O54 2.041 . S
Mg40 O61 2.038 . S
C41 O47 1.247 . S
C41 O48 1.289 . S
C42 O60 1.245 . S
C42 O61 1.274 . S
O43 C31 1.241 . S
O43 Mg36 2.042 . S
O44 C31 1.280 . S
O44 Mg34 1.984 . S
O45 C32 1.277 . S
O45 Mg36 2.041 . S
O46 C32 1.245 . S
O46 Mg34 1.988 . S
O47 Mg34 2.061 . S
O47 C41 1.247 . S
O48 Mg37 2.106 . S
O48 Mg40 2.238 . S
O48 C41 1.289 . S
C49 O50 1.245 . S
C49 O51 1.274 . S
O50 Mg37 2.079 . S
O50 C49 1.245 . S
O51 Mg36 2.038 . S
O51 C49 1.274 . S
O52 Mg40 2.042 . S
O52 C55 1.241 . S
O53 Mg39 1.984 . S
O53 C55 1.280 . S
O54 Mg40 2.041 . S
O54 C58 1.277 . S
C55 O52 1.241 . S
C55 O53 1.280 . S
O56 Mg39 1.988 . S
O56 C58 1.245 . S
O57 C33 1.247 . S
O57 Mg39 2.061 . S
C58 O54 1.277 . S
C58 O56 1.245 . S
O59 C33 1.289 . S
O59 Mg36 2.238 . S
O59 Mg37 2.106 . S
O60 Mg37 2.079 . S
O60 C42 1.245 . S
O61 Mg40 2.038 . S
O61 C42 1.274 . S
C62 C63 1.363 . S
C62 C68 1.379 . S
C62 N70 1.356 . S
C63 C62 1.363 . S
C63 C69 1.363 . S
C64 C65 1.363 . S
C64 C69 1.379 . S
C64 N71 1.356 . S
C65 C64 1.363 . S
C65 C68 1.363 . S
N66 C68 1.356 . S
N66 H78 0.984 . S
N66 H79 0.985 . S
N67 C69 1.356 . S
N67 H72 0.984 . S
N67 H73 0.985 . S
C68 C62 1.379 . S
C68 C65 1.363 . S
C68 N66 1.356 . S
C69 C63 1.363 . S
C69 C64 1.379 . S
C69 N67 1.356 . S
N70 C62 1.356 . S
N70 H76 0.984 . S
N70 H77 0.984 . S
N71 C64 1.356 . S
N71 H74 0.984 . S
N71 H75 0.985 . S
H72 N67 0.984 . S
H73 N67 0.985 . S
H74 N71 0.984 . S
H75 N71 0.985 . S
H76 N70 0.984 . S
H77 N70 0.984 . S
H78 N66 0.984 . S
H79 N66 0.985 . S
C80 C81 1.363 . S
C80 C86 1.379 . S
C80 N88 1.356 . S
C81 C80 1.363 . S
C81 C87 1.363 . S
C82 C83 1.363 . S
C82 C87 1.379 . S
C82 N89 1.356 . S
C83 C82 1.363 . S
C83 C86 1.363 . S
N84 C86 1.356 . S
N84 H96 0.984 . S
N84 H97 0.985 . S
N85 C87 1.356 . S
N85 H90 0.984 . S
N85 H91 0.985 . S
C86 C80 1.379 . S
C86 C83 1.363 . S
C86 N84 1.356 . S
C87 C81 1.363 . S
C87 C82 1.379 . S
C87 N85 1.356 . S
N88 C80 1.356 . S
N88 H94 0.984 . S
N88 H95 0.984 . S
N89 C82 1.356 . S
N89 H92 0.984 . S
N89 H93 0.985 . S
H90 N85 0.984 . S
H91 N85 0.985 . S
H92 N89 0.984 . S
H93 N89 0.985 . S
H94 N88 0.984 . S
H95 N88 0.984 . S
H96 N84 0.984 . S
H97 N84 0.985 . S
C98 C99 1.363 . S
C98 C104 1.379 . S
C98 N106 1.356 . S
C99 C98 1.363 . S
C99 C105 1.363 . S
C100 C101 1.363 . S
C100 C105 1.379 . S
C100 N107 1.356 . S
C101 C100 1.363 . S
C101 C104 1.363 . S
N102 C104 1.356 . S
N102 H114 0.984 . S
N102 H115 0.985 . S
N103 C105 1.356 . S
N103 H108 0.984 . S
N103 H109 0.985 . S
C104 C98 1.379 . S
C104 C101 1.363 . S
C104 N102 1.356 . S
C105 C99 1.363 . S
C105 C100 1.379 . S
C105 N103 1.356 . S
N106 C98 1.356 . S
N106 H112 0.984 . S
N106 H113 0.984 . S
N107 C100 1.356 . S
N107 H110 0.984 . S
N107 H111 0.985 . S
H108 N103 0.984 . S
H109 N103 0.985 . S
H110 N107 0.984 . S
H111 N107 0.985 . S
H112 N106 0.984 . S
H113 N106 0.984 . S
H114 N102 0.984 . S
H115 N102 0.985 . S
C116 C117 1.363 . S
C116 C122 1.379 . S
C116 N124 1.356 . S
C117 C116 1.363 . S
C117 C123 1.363 . S
C118 C119 1.363 . S
C118 C123 1.379 . S
C118 N125 1.356 . S
C119 C118 1.363 . S
C119 C122 1.363 . S
N120 C122 1.356 . S
N120 H132 0.984 . S
N120 H133 0.985 . S
N121 C123 1.356 . S
N121 H126 0.984 . S
N121 H127 0.985 1_565 S
C122 C116 1.379 . S
C122 C119 1.363 . S
C122 N120 1.356 . S
C123 C117 1.363 . S
C123 C118 1.379 . S
C123 N121 1.356 . S
N124 C116 1.356 . S
N124 H130 0.984 . S
N124 H131 0.984 . S
N125 C118 1.356 . S
N125 H128 0.984 . S
N125 H129 0.985 . S
H126 N121 0.984 . S
H127 N121 0.985 1_545 S
H128 N125 0.984 . S
H129 N125 0.985 . S
H130 N124 0.984 . S
H131 N124 0.984 . S
H132 N120 0.984 . S
H133 N120 0.985 . S
C134 C135 1.363 . S
C134 C140 1.379 . S
C134 N142 1.356 . S
C135 C134 1.363 . S
C135 C141 1.363 . S
C136 C137 1.363 . S
C136 C141 1.379 . S
C136 N143 1.356 . S
C137 C136 1.363 . S
C137 C140 1.363 . S
N138 C140 1.356 . S
N138 H150 0.984 . S
N138 H151 0.985 . S
N139 C141 1.356 . S
N139 H144 0.984 . S
N139 H145 0.985 . S
C140 C134 1.379 . S
C140 C137 1.363 . S
C140 N138 1.356 . S
C141 C135 1.363 . S
C141 C136 1.379 . S
C141 N139 1.356 . S
N142 C134 1.356 . S
N142 H148 0.984 . S
N142 H149 0.984 . S
N143 C136 1.356 . S
N143 H146 0.984 . S
N143 H147 0.985 . S
H144 N139 0.984 . S
H145 N139 0.985 . S
H146 N143 0.984 . S
H147 N143 0.985 . S
H148 N142 0.984 . S
H149 N142 0.984 . S
H150 N138 0.984 . S
H151 N138 0.985 . S
C152 C153 1.363 . S
C152 C158 1.379 . S
C152 N160 1.356 . S
C153 C152 1.363 . S
C153 C159 1.363 . S
C154 C155 1.363 . S
C154 C159 1.379 . S
C154 N161 1.356 . S
C155 C154 1.363 . S
C155 C158 1.363 . S
N156 C158 1.356 . S
N156 H168 0.984 . S
N156 H169 0.985 . S
N157 C159 1.356 . S
N157 H162 0.984 . S
N157 H163 0.985 . S
C158 C152 1.379 . S
C158 C155 1.363 . S
C158 N156 1.356 . S
C159 C153 1.363 . S
C159 C154 1.379 . S
C159 N157 1.356 . S
N160 C152 1.356 . S
N160 H166 0.984 . S
N160 H167 0.984 . S
N161 C154 1.356 . S
N161 H164 0.984 . S
N161 H165 0.985 . S
H162 N157 0.984 . S
H163 N157 0.985 . S
H164 N161 0.984 . S
H165 N161 0.985 . S
H166 N160 0.984 . S
H167 N160 0.984 . S
H168 N156 0.984 . S
H169 N156 0.985 . S
C170 C171 1.363 . S
C170 C176 1.379 . S
C170 N178 1.356 . S
C171 C170 1.363 . S
C171 C177 1.363 . S
C172 C173 1.363 . S
C172 C177 1.379 . S
C172 N179 1.356 . S
C173 C172 1.363 . S
C173 C176 1.363 . S
N174 C176 1.356 . S
N174 H186 0.984 . S
N174 H187 0.985 . S
N175 C177 1.356 . S
N175 H180 0.984 . S
N175 H181 0.985 . S
C176 C170 1.379 . S
C176 C173 1.363 . S
C176 N174 1.356 . S
C177 C171 1.363 . S
C177 C172 1.379 . S
C177 N175 1.356 . S
N178 C170 1.356 . S
N178 H184 0.984 . S
N178 H185 0.984 . S
N179 C172 1.356 . S
N179 H182 0.984 . S
N179 H183 0.985 . S
H180 N175 0.984 . S
H181 N175 0.985 . S
H182 N179 0.984 . S
H183 N179 0.985 . S
H184 N178 0.984 . S
H185 N178 0.984 . S
H186 N174 0.984 . S
H187 N174 0.985 . S
C188 C189 1.363 . S
C188 C194 1.379 . S
C188 N196 1.356 . S
C189 C188 1.363 . S
C189 C195 1.363 . S
C190 C191 1.363 . S
C190 C195 1.379 . S
C190 N197 1.356 . S
C191 C190 1.363 . S
C191 C194 1.363 . S
N192 C194 1.356 . S
N192 H204 0.984 . S
N192 H205 0.985 . S
N193 C195 1.356 . S
N193 H198 0.984 . S
N193 H199 0.985 . S
C194 C188 1.379 . S
C194 C191 1.363 . S
C194 N192 1.356 . S
C195 C189 1.363 . S
C195 C190 1.379 . S
C195 N193 1.356 . S
N196 C188 1.356 . S
N196 H202 0.984 . S
N196 H203 0.984 . S
N197 C190 1.356 . S
N197 H200 0.984 . S
N197 H201 0.985 . S
H198 N193 0.984 . S
H199 N193 0.985 . S
H200 N197 0.984 . S
H201 N197 0.985 . S
H202 N196 0.984 . S
H203 N196 0.984 . S
H204 N192 0.984 . S
H205 N192 0.985 . S
C63 C0 1.236 . S
C65 C33 1.248 . S
C81 C29 1.570 . S
C83 C55 1.545 . S
C99 C30 1.469 . S
C101 C42 1.444 . S
C117 C1 1.552 . S
C119 C32 1.546 . S
C135 C2 1.558 . S
C137 C31 1.539 . S
C155 C49 1.493 . S
C153 C19 1.487 . S
C171 C20 1.569 . S
C173 C58 1.569 . S
C191 C41 1.197 . S
C189 C10 1.209 . S
