# Generated by pormake.
# Topology scu, (8,4)-cn, num edge types: 1
# Building blocks:
#     Node 0, Type 0, BuildingBlock: VETTIZ_charged_sbu_0, # of connection points: 8
#     Node 1, Type 1, BuildingBlock: MUDLON_clean_sbu_0, # of connection points: 4
#     Node 2, Type 1, BuildingBlock: MUDLON_clean_sbu_0, # of connection points: 4
#     Edge 3, Type (0, 1), BuildingBlock: OJICUG_clean_linker_0, # of connection points: 2
#     Edge 4, Type (0, 1), BuildingBlock: OJICUG_clean_linker_0, # of connection points: 2
#     Edge 5, Type (0, 1), BuildingBlock: OJICUG_clean_linker_0, # of connection points: 2
#     Edge 6, Type (0, 1), BuildingBlock: OJICUG_clean_linker_0, # of connection points: 2
#     Edge 7, Type (0, 1), BuildingBlock: OJICUG_clean_linker_0, # of connection points: 2
#     Edge 8, Type (0, 1), BuildingBlock: OJICUG_clean_linker_0, # of connection points: 2
#     Edge 9, Type (0, 1), BuildingBlock: OJICUG_clean_linker_0, # of connection points: 2
#     Edge 10, Type (0, 1), BuildingBlock: OJICUG_clean_linker_0, # of connection points: 2
# Relax obj value: 0.036
# Max RMSD: 0.093
# Mean RMSD: 0.083
data_MOF--net-scu--node1-VETTIZ_charged_sbu_0--node2-MUDLON_clean_sbu_0--edge1-OJICUG_clean_linker_0
_symmetry_space_group_name_H-M    P1
_symmetry_Int_Tables_number       1
_symmetry_cell_setting            triclinic
loop_
_symmetry_equiv_pos_as_xyz
'x, y, z'
_cell_length_a     19.536955
_cell_length_b     19.539027
_cell_length_c     13.883695
_cell_angle_alpha  91.622658
_cell_angle_beta   91.599984
_cell_angle_gamma 92.316228
loop_
_atom_site_label
_atom_site_type_symbol
_atom_site_fract_x
_atom_site_fract_y
_atom_site_fract_z
_atom_type_partial_charge
Fe0 Fe 0.96828 0.97205 0.31049 0.0
O1 O 0.95832 0.97089 0.16941 0.0
Fe2 Fe 0.04343 0.94168 0.09187 0.0
Fe3 Fe 0.93376 0.05138 0.09186 0.0
O4 O 0.96205 0.96531 0.16844 0.0
O5 O 0.01983 0.02302 1.01529 0.0
O6 O 0.01426 0.02675 1.01431 0.0
Fe7 Fe 0.01314 0.01676 0.87324 0.0
C8 C 0.83165 0.03609 0.25856 0.0
O9 O 0.98435 0.07704 0.32407 0.0
O10 O -0.00302 0.11706 0.17586 0.0
O11 O 0.1172 0.02121 0.89423 0.0
O12 O 0.12945 0.9334 1.00197 0.0
O13 O 0.10781 0.00177 0.18214 0.0
O14 O 0.07254 0.96074 0.31966 0.0
O15 O 0.91677 0.1324 0.99995 0.0
O16 O -0.00464 0.12018 0.88027 0.0
C17 C 0.12 0.98444 0.2681 0.0
O18 O 0.02442 0.9125 0.86408 0.0
O19 O 0.98335 0.87728 1.0016 0.0
O20 O 0.86487 0.98988 0.30345 0.0
O21 O 0.85274 0.06846 0.1838 0.0
C22 C 0.00339 0.12389 0.26731 0.0
C23 C 0.94916 0.15344 0.92518 0.0
C24 C 0.86124 0.98177 0.91641 0.0
O25 O 0.86804 0.98821 1.00785 0.0
O26 O 0.90814 0.00073 0.85965 0.0
C27 C 0.15351 0.97763 0.94051 0.0
O28 O 0.05166 0.8557 0.18181 0.0
O29 O 0.96381 0.86799 0.28952 0.0
C30 C 0.00071 0.86507 0.91564 0.0
C31 C 0.00742 0.83167 0.24329 0.0
Mg32 Mg -0.00013 0.48759 0.59257 0.0
C33 C 0.03939 0.39187 0.43902 0.0
O34 O -0.00588 0.42974 0.39685 0.0
C35 C 0.98849 0.59677 0.73411 0.0
O36 O 0.92571 0.57326 0.71325 0.0
C37 C 0.94159 0.41399 0.75665 0.0
O38 O 0.98928 0.45399 0.7999 0.0
O39 O 0.92726 0.42263 0.6678 0.0
O40 O 0.05977 0.40801 0.52509 0.0
O41 O 0.96891 0.55313 0.47733 0.0
C42 C 0.02119 0.57872 0.43619 0.0
O43 O 0.08222 0.55929 0.46338 0.0
O44 O 0.03835 0.56699 0.6957 0.0
Mg45 Mg 0.49751 0.98545 0.59108 0.0
C46 C 0.38824 -0.00318 0.44974 0.0
O47 O 0.41166 0.0596 0.47076 0.0
C48 C 0.59333 0.9462 0.74446 0.0
O49 O 0.5556 0.9917 0.78643 0.0
C50 C 0.40654 0.96405 0.74765 0.0
O51 O 0.42607 0.90305 0.72048 0.0
O52 O 0.43198 0.01633 0.70641 0.0
O53 O 0.4181 0.94696 0.48796 0.0
O54 O 0.56243 0.05814 0.51594 0.0
C55 C 0.57103 0.04395 0.42702 0.0
O56 O 0.53093 -0.00358 0.38362 0.0
O57 O 0.57711 0.92559 0.65851 0.0
C58 C 0.03254 0.24919 0.25219 0.0
C59 C 0.02786 0.19135 0.30994 0.0
H60 H 0.04144 0.35856 0.24863 0.0
C61 C 0.04077 0.20001 0.41004 0.0
H62 H 0.02365 0.24456 0.17487 0.0
C63 C 0.05218 0.26563 0.45219 0.0
C64 C 0.05022 0.32365 0.395 0.0
H65 H 0.03852 0.15645 0.45656 0.0
H66 H 0.05682 0.2711 0.53 0.0
C67 C 0.04316 0.31461 0.29439 0.0
C68 C 0.76069 0.06334 0.39875 0.0
C69 C 0.76556 0.05358 0.29863 0.0
H70 H 0.69451 0.07126 0.51822 0.0
C71 C 0.70615 0.0539 0.23975 0.0
H72 H 0.8062 0.06398 0.4453 0.0
C73 C 0.64197 0.05714 0.28158 0.0
C74 C 0.63675 0.06174 0.38247 0.0
H75 H 0.70894 0.04658 0.16233 0.0
H76 H 0.59629 0.05173 0.23547 0.0
C77 C 0.69685 0.06833 0.44033 0.0
C78 C 0.9493 0.72697 0.30481 0.0
C79 C 0.00931 0.75961 0.27151 0.0
H80 H 0.90573 0.64362 0.38225 0.0
C81 C 0.07146 0.7266 0.27948 0.0
H82 H 0.90038 0.75092 0.2982 0.0
C83 C 0.07449 0.66501 0.3281 0.0
C84 C 0.01537 0.63552 0.36888 0.0
H85 H 0.11838 0.75064 0.25447 0.0
H86 H 0.12388 0.64257 0.33821 0.0
C87 C 0.95225 0.66545 0.35288 0.0
C88 C 0.20979 0.9338 0.37215 0.0
C89 C 0.1912 0.98386 0.30639 0.0
H90 H 0.28792 0.89725 0.46693 0.0
C91 C 0.24053 0.03348 0.28025 0.0
H92 H 0.17293 0.89422 0.3924 0.0
C93 C 0.30602 0.03562 0.32395 0.0
C94 C 0.32377 0.98703 0.39233 0.0
H95 H 0.22761 0.07229 0.22936 0.0
H96 H 0.34229 0.07641 0.30614 0.0
C97 C 0.27575 0.9349 0.41394 0.0
C98 C 0.95179 0.74449 0.90363 0.0
C99 C 0.00133 0.79386 0.87737 0.0
H100 H 0.90896 0.64268 0.87788 0.0
C101 C 0.05137 0.77529 0.8115 0.0
H102 H 0.913 0.7574 0.9546 0.0
C103 C 0.0503 0.70932 0.76974 0.0
C104 C -0.00175 0.66127 0.79149 0.0
H105 H 0.09089 0.81218 0.79115 0.0
H106 H 0.08793 0.69717 0.71668 0.0
C107 C 0.94969 0.67899 0.85996 0.0
C108 C 0.2586 0.91364 0.90427 0.0
C109 C 0.22559 0.97577 0.91235 0.0
H110 H 0.34267 0.86126 0.84545 0.0
C111 C 0.25825 0.03581 0.87921 0.0
H112 H 0.23455 0.8667 0.92917 0.0
C113 C 0.31979 0.0329 0.83114 0.0
C114 C 0.34973 0.96979 0.815 0.0
H115 H 0.23429 0.08472 0.88592 0.0
H116 H 0.34164 0.07944 0.80188 0.0
C117 C 0.32023 0.91064 0.85566 0.0
C118 C 0.93159 0.27897 0.944 0.0
C119 C 0.93175 0.21954 0.88513 0.0
H120 H 0.93397 0.38883 0.94825 0.0
C121 C 0.92191 0.22438 0.78502 0.0
H122 H 0.93897 0.2762 1.02141 0.0
C123 C 0.91701 0.28821 0.74343 0.0
C124 C 0.92375 0.34832 0.80127 0.0
H125 H 0.92116 0.17886 0.73848 0.0
H126 H 0.91401 0.29053 0.66555 0.0
C127 C 0.92843 0.34314 0.90216 0.0
C128 C 0.78517 0.94436 0.77366 0.0
C129 C 0.79377 0.95738 0.87374 0.0
H130 H 0.71414 0.92833 0.65364 0.0
C131 C 0.73587 0.95292 0.93144 0.0
H132 H 0.82878 0.94644 0.72719 0.0
C133 C 0.67046 0.94241 0.88918 0.0
C134 C 0.66149 0.93523 0.78857 0.0
H135 H 0.74045 0.96191 1.00874 0.0
H136 H 0.62646 0.94431 0.93488 0.0
C137 C 0.71956 0.93305 0.73145 0.0
loop_
_geom_bond_atom_site_label_1
_geom_bond_atom_site_label_2
_geom_bond_distance
_geom_bond_site_symmetry_2
_ccdc_geom_bond_type
Fe0 O1 1.886 . S
Fe0 O4 1.715 1_645 S
Fe0 O9 2.077 1_655 S
Fe0 O14 1.935 1_655 S
Fe0 O20 2.077 1_545 S
Fe0 O29 1.935 1_545 S
O1 Fe0 1.886 . S
O1 Fe3 1.715 . S
Fe2 O4 1.886 . S
Fe2 O5 1.715 1_554 S
Fe2 O12 1.935 1_554 S
Fe2 O13 2.077 . S
Fe2 O19 1.935 1_554 S
Fe2 O28 2.077 . S
Fe3 O1 1.715 . S
Fe3 O6 1.886 1_554 S
Fe3 O10 1.935 . S
Fe3 O15 2.077 1_554 S
Fe3 O21 1.935 . S
Fe3 O25 2.077 1_554 S
O4 Fe0 1.715 1_465 S
O4 Fe2 1.886 . S
O5 Fe2 1.715 1_556 S
O5 Fe7 1.886 . S
O6 Fe3 1.886 1_556 S
O6 Fe7 1.715 1_645 S
Fe7 O5 1.886 . S
Fe7 O6 1.715 1_465 S
Fe7 O11 2.077 1_565 S
Fe7 O16 1.935 1_565 S
Fe7 O18 2.077 1_455 S
Fe7 O26 1.935 1_455 S
C8 O20 1.381 1_545 S
C8 O21 1.421 . S
O9 Fe0 2.077 1_455 S
O9 C22 1.381 1_455 S
O10 Fe3 1.935 . S
O10 C22 1.421 . S
O11 Fe7 2.077 1_545 S
O11 C27 1.381 1_545 S
O12 Fe2 1.935 1_556 S
O12 C27 1.421 . S
O13 Fe2 2.077 . S
O13 C17 1.381 . S
O14 Fe0 1.935 1_455 S
O14 C17 1.421 1_545 S
O15 Fe3 2.077 1_556 S
O15 C23 1.381 . S
O16 Fe7 1.935 1_545 S
O16 C23 1.421 1_455 S
C17 O13 1.381 . S
C17 O14 1.421 1_565 S
O18 Fe7 2.077 1_655 S
O18 C30 1.381 1_655 S
O19 Fe2 1.935 1_556 S
O19 C30 1.421 . S
O20 Fe0 2.077 1_565 S
O20 C8 1.381 1_565 S
O21 Fe3 1.935 . S
O21 C8 1.421 . S
C22 O9 1.381 1_655 S
C22 O10 1.421 . S
C23 O15 1.381 . S
C23 O16 1.421 1_655 S
C24 O25 1.381 . S
C24 O26 1.421 1_545 S
O25 Fe3 2.077 1_556 S
O25 C24 1.381 . S
O26 Fe7 1.935 1_655 S
O26 C24 1.421 1_565 S
C27 O11 1.381 1_565 S
C27 O12 1.421 . S
O28 Fe2 2.077 . S
O28 C31 1.381 . S
O29 Fe0 1.935 1_565 S
O29 C31 1.421 1_655 S
C30 O18 1.381 1_455 S
C30 O19 1.421 . S
C31 O28 1.381 . S
C31 O29 1.421 1_455 S
Mg32 O39 2.141 . S
Mg32 O40 2.048 . S
Mg32 O41 2.048 . S
Mg32 O44 2.141 . S
C33 O34 1.313 . S
C33 O40 1.195 1_455 S
O34 C33 1.313 . S
C35 O36 1.245 . S
C35 O44 1.289 1_455 S
O36 C35 1.245 . S
C37 O38 1.245 . S
C37 O39 1.289 1_455 S
O38 C37 1.245 . S
O39 Mg32 2.141 . S
O39 C37 1.289 1_655 S
O40 Mg32 2.048 . S
O40 C33 1.195 1_655 S
O41 Mg32 2.048 . S
O41 C42 1.195 1_655 S
C42 O41 1.195 1_455 S
C42 O43 1.313 . S
O43 C42 1.313 . S
O44 Mg32 2.141 . S
O44 C35 1.289 1_655 S
Mg45 O52 2.141 . S
Mg45 O53 2.048 . S
Mg45 O54 2.048 . S
Mg45 O57 2.141 . S
C46 O47 1.313 . S
C46 O53 1.195 1_565 S
O47 C46 1.313 . S
C48 O49 1.245 . S
C48 O57 1.289 1_565 S
O49 C48 1.245 . S
C50 O51 1.245 . S
C50 O52 1.289 1_565 S
O51 C50 1.245 . S
O52 Mg45 2.141 . S
O52 C50 1.289 1_545 S
O53 Mg45 2.048 . S
O53 C46 1.195 1_545 S
O54 Mg45 2.048 . S
O54 C55 1.195 1_545 S
C55 O54 1.195 1_565 S
C55 O56 1.313 . S
O56 C55 1.313 . S
O57 Mg45 2.141 . S
O57 C48 1.289 1_545 S
C58 C59 1.391 . S
C58 H62 0.950 . S
C58 C67 1.390 . S
C59 C58 1.391 . S
C59 C61 1.384 1_455 S
H60 C67 0.950 . S
C61 C59 1.384 1_655 S
C61 C63 1.390 . S
C61 H65 0.950 . S
H62 C58 0.950 . S
C63 C61 1.390 . S
C63 C64 1.386 1_655 S
C63 H66 0.950 . S
C64 C63 1.386 1_455 S
C64 C67 1.389 . S
H65 C61 0.950 . S
H66 C63 0.950 . S
C67 C58 1.390 . S
C67 H60 0.950 . S
C67 C64 1.389 . S
C68 C69 1.387 1_545 S
C68 H72 0.950 . S
C68 C77 1.390 . S
C69 C68 1.387 1_565 S
C69 C71 1.388 . S
H70 C77 0.950 . S
C71 C69 1.388 . S
C71 C73 1.390 . S
C71 H75 0.950 . S
H72 C68 0.950 . S
C73 C71 1.390 . S
C73 C74 1.388 1_565 S
C73 H76 0.950 . S
C74 C73 1.388 1_545 S
C74 C77 1.387 . S
H75 C71 0.950 . S
H76 C73 0.950 . S
C77 C68 1.390 . S
C77 H70 0.950 . S
C77 C74 1.387 . S
C78 C79 1.387 . S
C78 H82 0.950 . S
C78 C87 1.390 . S
C79 C78 1.387 . S
C79 C81 1.388 1_655 S
H80 C87 0.950 . S
C81 C79 1.388 1_455 S
C81 C83 1.390 . S
C81 H85 0.950 . S
H82 C78 0.950 . S
C83 C81 1.390 . S
C83 C84 1.389 1_455 S
C83 H86 0.950 . S
C84 C83 1.389 1_655 S
C84 C87 1.386 . S
H85 C81 0.950 . S
H86 C83 0.950 . S
C87 C78 1.390 . S
C87 H80 0.950 . S
C87 C84 1.386 . S
C88 C89 1.391 . S
C88 H92 0.950 . S
C88 C97 1.390 . S
C89 C88 1.391 . S
C89 C91 1.384 1_545 S
H90 C97 0.950 . S
C91 C89 1.384 1_565 S
C91 C93 1.390 . S
C91 H95 0.950 . S
H92 C88 0.950 . S
C93 C91 1.390 . S
C93 C94 1.387 1_565 S
C93 H96 0.950 . S
C94 C93 1.387 1_545 S
C94 C97 1.388 . S
H95 C91 0.950 . S
H96 C93 0.950 . S
C97 C88 1.390 . S
C97 H90 0.950 . S
C97 C94 1.388 . S
C98 C99 1.387 1_455 S
C98 H102 0.950 . S
C98 C107 1.390 . S
C99 C98 1.387 1_655 S
C99 C101 1.388 . S
H100 C107 0.950 . S
C101 C99 1.388 . S
C101 C103 1.390 . S
C101 H105 0.950 . S
H102 C98 0.950 . S
C103 C101 1.390 . S
C103 C104 1.387 1_655 S
C103 H106 0.950 . S
C104 C103 1.387 1_455 S
C104 C107 1.388 . S
H105 C101 0.950 . S
H106 C103 0.950 . S
C107 C98 1.390 . S
C107 H100 0.950 . S
C107 C104 1.388 . S
C108 C109 1.384 1_565 S
C108 H112 0.950 . S
C108 C117 1.390 . S
C109 C108 1.384 1_545 S
C109 C111 1.391 . S
H110 C117 0.950 . S
C111 C109 1.391 . S
C111 C113 1.390 . S
C111 H115 0.950 . S
H112 C108 0.950 . S
C113 C111 1.390 . S
C113 C114 1.388 . S
C113 H116 0.950 . S
C114 C113 1.388 . S
C114 C117 1.387 1_545 S
H115 C111 0.950 . S
H116 C113 0.950 . S
C117 C108 1.390 . S
C117 H110 0.950 . S
C117 C114 1.387 1_565 S
C118 C119 1.391 . S
C118 H122 0.950 . S
C118 C127 1.390 . S
C119 C118 1.391 . S
C119 C121 1.384 1_455 S
H120 C127 0.950 . S
C121 C119 1.384 1_655 S
C121 C123 1.390 . S
C121 H125 0.950 . S
H122 C118 0.950 . S
C123 C121 1.390 . S
C123 C124 1.387 1_655 S
C123 H126 0.950 . S
C124 C123 1.387 1_455 S
C124 C127 1.388 . S
H125 C121 0.950 . S
H126 C123 0.950 . S
C127 C118 1.390 . S
C127 H120 0.950 . S
C127 C124 1.388 . S
C128 C129 1.387 1_545 S
C128 H132 0.950 . S
C128 C137 1.390 . S
C129 C128 1.387 1_565 S
C129 C131 1.388 . S
H130 C137 0.950 . S
C131 C129 1.388 . S
C131 C133 1.390 . S
C131 H135 0.950 . S
H132 C128 0.950 . S
C133 C131 1.390 . S
C133 C134 1.388 1_565 S
C133 H136 0.950 . S
C134 C133 1.388 1_545 S
C134 C137 1.387 . S
H135 C131 0.950 . S
H136 C133 0.950 . S
C137 C128 1.390 . S
C137 H130 0.950 . S
C137 C134 1.387 . S
C59 C22 1.435 1_455 S
C64 C33 1.480 . S
C69 C8 1.435 1_565 S
C74 C55 1.483 1_545 S
C79 C31 1.433 1_655 S
C84 C42 1.484 1_655 S
C89 C17 1.434 1_545 S
C94 C46 1.480 1_545 S
C99 C30 1.372 1_655 S
C104 C35 1.416 . S
C109 C27 1.373 1_545 S
C114 C50 1.413 1_545 S
C124 C37 1.415 . S
C119 C23 1.368 1_455 S
C129 C24 1.370 1_565 S
C134 C48 1.416 1_545 S
