# Generated by pormake.
# Topology scu, (8,4)-cn, num edge types: 1
# Building blocks:
#     Node 0, Type 0, BuildingBlock: TAGTUT_clean_sbu_3, # of connection points: 8
#     Node 1, Type 1, BuildingBlock: ESEHIV_clean_sbu_0, # of connection points: 4
#     Node 2, Type 1, BuildingBlock: ESEHIV_clean_sbu_0, # of connection points: 4
#     Edge 3, Type (0, 1), BuildingBlock: CIFDUS_clean_linker_0, # of connection points: 2
#     Edge 4, Type (0, 1), BuildingBlock: CIFDUS_clean_linker_0, # of connection points: 2
#     Edge 5, Type (0, 1), BuildingBlock: CIFDUS_clean_linker_0, # of connection points: 2
#     Edge 6, Type (0, 1), BuildingBlock: CIFDUS_clean_linker_0, # of connection points: 2
#     Edge 7, Type (0, 1), BuildingBlock: CIFDUS_clean_linker_0, # of connection points: 2
#     Edge 8, Type (0, 1), BuildingBlock: CIFDUS_clean_linker_0, # of connection points: 2
#     Edge 9, Type (0, 1), BuildingBlock: CIFDUS_clean_linker_0, # of connection points: 2
#     Edge 10, Type (0, 1), BuildingBlock: CIFDUS_clean_linker_0, # of connection points: 2
# Relax obj value: 0.025
# Max RMSD: 0.108
# Mean RMSD: 0.104
data_MOF--net-scu--node1-TAGTUT_clean_sbu_3--node2-ESEHIV_clean_sbu_0--edge1-CIFDUS_clean_linker_0
_symmetry_space_group_name_H-M    P1
_symmetry_Int_Tables_number       1
_symmetry_cell_setting            triclinic
loop_
_symmetry_equiv_pos_as_xyz
'x, y, z'
_cell_length_a     25.480512
_cell_length_b     21.651552
_cell_length_c     18.2633
_cell_angle_alpha  94.37886
_cell_angle_beta   94.781609
_cell_angle_gamma 89.938407
loop_
_atom_site_label
_atom_site_type_symbol
_atom_site_fract_x
_atom_site_fract_y
_atom_site_fract_z
_atom_type_partial_charge
C0 C 0.99216 0.9033 0.09244 0.0
C1 C 0.80142 -0.00257 0.05678 0.0
C2 C 0.84973 0.04136 0.84469 0.0
Mg3 Mg 0.0993 0.93509 0.02398 0.0
Mg4 Mg 0.12875 0.07675 0.99393 0.0
O5 O 0.07944 0.01265 0.97399 0.0
Mg6 Mg 1.0033 0.0225 -0.00507 0.0
O7 O 0.92718 0.02166 0.01703 0.0
Mg8 Mg 0.90268 0.94042 0.96431 0.0
Mg9 Mg 0.88227 0.08884 0.0024 0.0
C10 C 0.03244 0.1454 0.9102 0.0
O11 O 0.01412 0.10623 0.08192 0.0
O12 O 0.1763 0.93271 0.96062 0.0
O13 O 0.93586 0.15534 0.06404 0.0
O14 O 0.14407 0.98807 0.12424 0.0
O15 O 0.18916 0.03138 0.93523 0.0
O16 O 0.15699 0.08757 0.10866 0.0
O17 O 0.98191 0.94127 0.90994 0.0
O18 O 0.0527 0.88159 0.92692 0.0
C19 C 1.00751 0.89198 0.89427 0.0
C20 C 0.20168 0.97395 0.93017 0.0
O21 O 0.99812 0.10169 0.91297 0.0
O22 O 0.82586 0.95109 0.02712 0.0
O23 O 0.07921 0.14431 0.9425 0.0
O24 O 0.86218 0.98829 0.86677 0.0
O25 O 0.81699 0.05347 0.0543 0.0
O26 O 0.85757 0.09093 0.8866 0.0
O27 O 0.01979 0.94854 0.07604 0.0
O28 O 0.94604 0.89235 0.06058 0.0
C29 C 0.16146 0.04171 0.14838 0.0
C30 C 0.98316 0.15247 0.09442 0.0
Cu31 Cu 0.02482 0.52666 0.50708 0.0
N32 N 0.06568 0.48014 0.57165 0.0
N33 N 0.08103 0.41568 0.66035 0.0
C34 C 0.04435 0.44072 0.61445 0.0
C35 C 0.12744 0.43999 0.64564 0.0
C36 C 0.11787 0.47962 0.59035 0.0
O37 O 0.99129 0.46737 0.43391 0.0
C38 C 1.00529 0.60909 0.61767 0.0
O39 O 0.05691 0.60675 0.62145 0.0
H40 H 1.0024 0.4325 0.61382 0.0
H41 H 0.14674 0.50675 0.56665 0.0
N42 N 0.06185 0.58088 0.45553 0.0
N43 N 0.07088 0.64652 0.36872 0.0
C44 C 0.04014 0.60347 0.39367 0.0
C45 C 0.10832 0.61055 0.47085 0.0
C46 C 0.114 0.65125 0.4172 0.0
C47 C 0.02457 0.43536 0.39919 0.0
O48 O 0.07503 0.4464 0.4159 0.0
H49 H 1.00099 0.59069 0.36982 0.0
H50 H 0.13515 0.60509 0.5189 0.0
O51 O 0.97872 0.57603 0.56716 0.0
H52 H 0.16544 0.43016 0.67326 0.0
H53 H 0.14669 0.68274 0.41514 0.0
Cu54 Cu 0.50859 0.98366 0.48545 0.0
N55 N 0.47758 0.94235 0.55741 0.0
N56 N 0.42159 0.93216 0.64417 0.0
C57 C 0.44491 0.9714 0.60259 0.0
C58 C 0.44171 0.87591 0.62527 0.0
C59 C 0.47629 0.88236 0.5717 0.0
O60 O 0.4536 0.03337 0.43828 0.0
C61 C 0.60901 0.0023 0.5514 0.0
O62 O 0.61012 0.94266 0.53191 0.0
H63 H 0.4376 0.02059 0.60283 0.0
H64 H 0.49747 0.84564 0.54371 0.0
N65 N 0.53498 0.93161 0.41066 0.0
N66 N 0.58374 0.90478 0.317 0.0
C67 C 0.57057 0.9504 0.36657 0.0
C68 C 0.52462 0.87194 0.3879 0.0
C69 C 0.55503 0.85508 0.33033 0.0
C70 C 0.40977 0.00548 0.42108 0.0
O71 O 0.40551 0.94722 0.43534 0.0
H72 H 0.5873 -0.00339 0.3721 0.0
H73 H 0.49682 0.84284 0.411 0.0
O74 O 0.56697 0.03219 0.53586 0.0
H75 H 0.43075 0.83272 0.64613 0.0
H76 H 0.55544 0.81011 0.30013 0.0
H77 H 0.92181 0.24021 0.15703 0.0
H78 H 0.0833 0.17923 0.15625 0.0
H79 H 0.1101 0.26239 0.25023 0.0
H80 H 0.08716 0.35088 0.33324 0.0
H81 H 0.92518 0.4094 0.33594 0.0
H82 H 0.89892 0.32791 0.23978 0.0
C83 C 0.96303 0.24514 0.17681 0.0
C84 C 1.00059 0.20361 0.14931 0.0
C85 C 0.97791 0.29228 0.2312 0.0
C86 C 0.05363 0.21049 0.17644 0.0
C87 C 0.06893 0.25799 0.23014 0.0
C88 C 0.04607 0.34598 0.31274 0.0
C89 C 1.0081 0.38618 0.34156 0.0
C90 C 0.03131 0.29889 0.25805 0.0
C91 C 0.95507 0.37896 0.31475 0.0
C92 C 0.9401 0.33251 0.25975 0.0
H93 H 0.76729 0.88869 0.10602 0.0
H94 H 0.73015 0.08315 0.1006 0.0
H95 H 0.65798 0.07051 0.17716 0.0
H96 H 0.60799 0.00637 0.25086 0.0
H97 H 0.6447 0.8127 0.26084 0.0
H98 H 0.71352 0.82263 0.17635 0.0
C99 C 0.74306 0.92812 0.12095 0.0
C100 C 0.75467 0.9869 0.09788 0.0
C101 C 0.7015 0.92078 0.16603 0.0
C102 C 0.72272 0.03745 0.11796 0.0
C103 C 0.68126 0.03036 0.16183 0.0
C104 C 0.63116 0.96633 0.2349 0.0
C105 C 0.62159 0.9091 0.26296 0.0
C106 C 0.67089 0.97259 0.18721 0.0
C107 C 0.65109 0.85729 0.23994 0.0
C108 C 0.69068 0.86306 0.19194 0.0
H109 H 0.96729 0.78255 0.10282 0.0
H110 H 0.06887 0.93013 0.20291 0.0
H111 H 0.1053 0.86237 0.29532 0.0
H112 H 0.10435 0.76275 0.35173 0.0
H113 H 1.00482 0.6143 0.24825 0.0
H114 H 0.97152 0.68076 0.15335 0.0
C115 C 0.99739 0.79981 0.14489 0.0
C116 C 0.0151 0.86132 0.14648 0.0
C117 C 0.0184 0.76048 0.19742 0.0
C118 C 0.05475 0.88283 0.20052 0.0
C119 C 0.07547 0.84417 0.25348 0.0
C120 C 0.0761 0.74456 0.30779 0.0
C121 C 0.05654 0.68383 0.30806 0.0
C122 C 0.05721 0.78303 0.25291 0.0
C123 C 0.01967 0.66127 0.25058 0.0
C124 C 1.00069 0.69918 0.19601 0.0
H125 H 0.24964 0.11221 0.18369 0.0
H126 H 0.14925 0.97944 0.26911 0.0
H127 H 0.21604 0.96376 0.36938 0.0
H128 H 0.30766 0.97412 0.41931 0.0
H129 H 0.41127 0.1017 0.33131 0.0
H130 H 0.3385 0.13391 0.2462 0.0
C131 C 0.24179 0.0815 0.22575 0.0
C132 C 0.19476 0.04661 0.21878 0.0
C133 C 0.2814 0.07089 0.28184 0.0
C134 C 0.18525 0.00644 0.27311 0.0
C135 C 0.22358 -0.00282 0.33019 0.0
C136 C 0.31415 0.00974 0.38229 0.0
C137 C 0.36489 0.03465 0.38044 0.0
C138 C 0.27263 0.02688 0.33291 0.0
C139 C 0.37256 0.0816 0.33338 0.0
C140 C 0.33103 0.09973 0.28448 0.0
H141 H 1.00372 0.76948 0.90704 0.0
H142 H 0.961 0.90919 0.75757 0.0
H143 H 0.94359 0.82885 0.65621 0.0
H144 H 0.95916 0.72093 0.60715 0.0
H145 H 1.00351 0.58298 0.75822 0.0
H146 H 0.99994 0.65986 0.86262 0.0
C147 C 0.98929 0.782 0.85256 0.0
C148 C 0.98475 0.84466 0.83877 0.0
C149 C 0.97964 0.73578 0.7951 0.0
C150 C 0.96515 0.86093 0.7688 0.0
C151 C 0.95546 0.81507 0.71094 0.0
C152 C 0.96531 0.7074 0.66321 0.0
C153 C 0.98118 0.64672 0.67565 0.0
C154 C 0.96501 0.75254 0.7228 0.0
C155 C 0.99051 0.62947 0.74802 0.0
C156 C 0.98923 0.67357 0.80751 0.0
H157 H 0.24039 0.03968 0.82713 0.0
H158 H 0.25965 0.86598 0.92705 0.0
H159 H 0.33052 0.83753 0.84778 0.0
H160 H 0.38714 0.86315 0.74987 0.0
H161 H 0.36089 0.03552 0.64756 0.0
H162 H 0.29339 0.06324 0.72886 0.0
C163 C 0.26019 -0.00436 0.83225 0.0
C164 C 0.24498 0.95532 0.88359 0.0
C165 C 0.29999 0.97937 0.78609 0.0
C166 C 0.27062 0.89802 0.88814 0.0
C167 C 0.31116 0.88178 0.84282 0.0
C168 C 0.36657 0.9066 0.74495 0.0
C169 C 0.38048 0.94735 0.69274 0.0
C170 C 0.32618 0.92218 0.79139 0.0
C171 C 0.35289 0.00354 0.68788 0.0
C172 C 0.31356 0.01949 0.73419 0.0
H173 H 0.07868 0.25706 0.93059 0.0
H174 H 0.96414 0.15155 0.78489 0.0
H175 H 0.96614 0.23043 0.69506 0.0
H176 H 1.00998 0.32244 0.6522 0.0
H177 H 0.13082 0.4192 0.79598 0.0
H178 H 0.11806 0.34952 0.89195 0.0
C179 C 0.05359 0.2514 0.87947 0.0
C180 C 0.02193 0.19799 0.86386 0.0
C181 C 0.05723 0.29464 0.82716 0.0
C182 C 0.98884 0.19221 0.79823 0.0
C183 C 0.99057 0.23689 0.74656 0.0
C184 C 0.03303 0.32834 0.7049 0.0
C185 C 0.0718 0.37532 0.71697 0.0
C186 C 0.02615 0.28709 0.75937 0.0
C187 C 0.10162 0.38264 0.78515 0.0
C188 C 0.09399 0.34319 0.8401 0.0
H189 H 0.76749 0.11637 0.80743 0.0
H190 H 0.86197 0.96645 0.72189 0.0
H191 H 0.79786 0.94739 0.61576 0.0
H192 H 0.70894 0.96149 0.55937 0.0
H193 H 0.61087 0.10686 0.64694 0.0
H194 H 0.6825 0.14026 0.73951 0.0
C195 C 0.77477 0.081 0.76419 0.0
C196 C 0.81914 0.04256 0.77254 0.0
C197 C 0.73659 0.0687 0.70454 0.0
C198 C 0.82793 -0.00364 0.7167 0.0
C199 C 0.79114 0.98518 0.65629 0.0
C200 C 0.70349 0.00117 0.59796 0.0
C201 C 0.65444 0.03094 0.59732 0.0
C202 C 0.74427 0.0191 0.65158 0.0
C203 C 0.64822 0.08296 0.64665 0.0
C204 C 0.68909 0.10182 0.69981 0.0
loop_
_geom_bond_atom_site_label_1
_geom_bond_atom_site_label_2
_geom_bond_distance
_geom_bond_site_symmetry_2
_ccdc_geom_bond_type
C0 O27 1.312 1_655 S
C0 O28 1.208 . S
C1 O22 1.331 1_545 S
C1 O25 1.244 . S
C2 O24 1.264 1_545 S
C2 O26 1.273 . S
Mg3 O5 1.936 1_564 S
Mg3 O12 2.081 1_554 S
Mg3 O14 2.023 . S
Mg3 O18 2.031 1_554 S
Mg3 O27 2.291 . S
Mg4 O5 1.963 . S
Mg4 O15 1.942 . S
Mg4 O16 1.955 1_556 S
Mg4 O23 1.986 . S
O5 Mg3 1.936 1_546 S
O5 Mg4 1.963 . S
O5 Mg6 1.915 1_556 S
Mg6 O5 1.915 1_554 S
Mg6 O7 1.915 1_455 S
Mg6 O11 2.013 . S
Mg6 O17 2.114 1_444 S
Mg6 O21 2.013 1_454 S
Mg6 O27 2.114 1_545 S
O7 Mg6 1.915 1_655 S
O7 Mg8 1.936 1_544 S
O7 Mg9 1.963 . S
Mg8 O7 1.936 1_566 S
Mg8 O17 2.291 . S
Mg8 O22 2.081 1_556 S
Mg8 O24 2.023 . S
Mg8 O28 2.031 1_556 S
Mg9 O7 1.963 . S
Mg9 O13 1.986 . S
Mg9 O25 1.942 . S
Mg9 O26 1.955 1_554 S
C10 O21 1.191 1_455 S
C10 O23 1.307 . S
O11 Mg6 2.013 . S
O11 C30 1.191 1_455 S
O12 Mg3 2.081 1_556 S
O12 C20 1.331 . S
O13 Mg9 1.986 . S
O13 C30 1.307 . S
O14 Mg3 2.023 . S
O14 C29 1.264 1_565 S
O15 Mg4 1.942 . S
O15 C20 1.244 1_545 S
O16 Mg4 1.955 1_554 S
O16 C29 1.273 . S
O17 Mg6 2.114 1_666 S
O17 Mg8 2.291 . S
O17 C19 1.312 1_655 S
O18 Mg3 2.031 1_556 S
O18 C19 1.208 . S
C19 O17 1.312 1_455 S
C19 O18 1.208 . S
C20 O12 1.331 . S
C20 O15 1.244 1_565 S
O21 Mg6 2.013 1_656 S
O21 C10 1.191 1_655 S
O22 C1 1.331 1_565 S
O22 Mg8 2.081 1_554 S
O23 Mg4 1.986 . S
O23 C10 1.307 . S
O24 C2 1.264 1_565 S
O24 Mg8 2.023 . S
O25 C1 1.244 . S
O25 Mg9 1.942 . S
O26 C2 1.273 . S
O26 Mg9 1.955 1_556 S
O27 C0 1.312 1_455 S
O27 Mg3 2.291 . S
O27 Mg6 2.114 1_565 S
O28 C0 1.208 . S
O28 Mg8 2.031 1_554 S
C29 O14 1.264 1_545 S
C29 O16 1.273 . S
C30 O11 1.191 1_655 S
C30 O13 1.307 . S
Cu31 N32 1.999 . S
Cu31 O37 1.974 . S
Cu31 N42 1.985 . S
Cu31 O51 1.959 . S
N32 Cu31 1.999 . S
N32 C34 1.263 . S
N32 C36 1.389 . S
N33 C34 1.358 . S
N33 C35 1.400 . S
C34 N32 1.263 . S
C34 N33 1.358 . S
C34 H40 0.930 1_655 S
C35 N33 1.400 . S
C35 C36 1.351 . S
C35 H52 0.930 . S
C36 N32 1.389 . S
C36 C35 1.351 . S
C36 H41 0.930 . S
O37 Cu31 1.974 . S
O37 C47 1.282 1_655 S
C38 O39 1.261 . S
C38 O51 1.251 1_455 S
O39 C38 1.261 . S
H40 C34 0.930 1_455 S
H41 C36 0.930 . S
N42 Cu31 1.985 . S
N42 C44 1.335 . S
N42 C45 1.390 1_655 S
N43 C44 1.345 . S
N43 C46 1.336 1_655 S
C44 N42 1.335 . S
C44 N43 1.345 . S
C44 H49 0.930 . S
C45 N42 1.390 1_455 S
C45 C46 1.346 . S
C45 H50 0.930 . S
C46 N43 1.336 1_455 S
C46 C45 1.346 . S
C46 H53 0.929 . S
C47 O37 1.282 1_455 S
C47 O48 1.216 . S
O48 C47 1.216 . S
H49 C44 0.930 . S
H50 C45 0.930 . S
O51 Cu31 1.959 . S
O51 C38 1.251 1_655 S
H52 C35 0.930 . S
H53 C46 0.929 . S
Cu54 N55 1.999 . S
Cu54 O60 1.974 . S
Cu54 N65 1.985 . S
Cu54 O74 1.959 . S
N55 Cu54 1.999 . S
N55 C57 1.263 . S
N55 C59 1.389 . S
N56 C57 1.358 . S
N56 C58 1.400 . S
C57 N55 1.263 . S
C57 N56 1.358 . S
C57 H63 0.930 1_545 S
C58 N56 1.400 . S
C58 C59 1.351 . S
C58 H75 0.930 . S
C59 N55 1.389 . S
C59 C58 1.351 . S
C59 H64 0.930 . S
O60 Cu54 1.974 . S
O60 C70 1.282 1_545 S
C61 O62 1.261 . S
C61 O74 1.251 1_565 S
O62 C61 1.261 . S
H63 C57 0.930 1_565 S
H64 C59 0.930 . S
N65 Cu54 1.985 . S
N65 C67 1.335 . S
N65 C68 1.390 1_545 S
N66 C67 1.345 . S
N66 C69 1.336 1_545 S
C67 N65 1.335 . S
C67 N66 1.345 . S
C67 H72 0.930 . S
C68 N65 1.390 1_565 S
C68 C69 1.346 . S
C68 H73 0.930 . S
C69 N66 1.336 1_565 S
C69 C68 1.346 . S
C69 H76 0.929 . S
C70 O60 1.282 1_565 S
C70 O71 1.216 . S
O71 C70 1.216 . S
H72 C67 0.930 . S
H73 C68 0.930 . S
O74 Cu54 1.959 . S
O74 C61 1.251 1_545 S
H75 C58 0.930 . S
H76 C69 0.929 . S
H77 C83 0.930 . S
H78 C86 0.930 . S
H79 C87 0.930 . S
H80 C88 0.930 . S
H81 C91 0.930 . S
H82 C92 0.930 . S
C83 H77 0.930 . S
C83 C84 1.355 . S
C83 C85 1.415 . S
C84 C83 1.355 . S
C84 C86 1.419 1_455 S
C85 C83 1.415 . S
C85 C90 1.425 1_455 S
C85 C92 1.409 . S
C86 H78 0.930 . S
C86 C84 1.419 1_655 S
C86 C87 1.362 . S
C87 H79 0.930 . S
C87 C86 1.362 . S
C87 C90 1.409 . S
C88 H80 0.930 . S
C88 C89 1.355 1_655 S
C88 C90 1.415 . S
C89 C88 1.355 1_455 S
C89 C91 1.419 . S
C90 C85 1.425 1_655 S
C90 C87 1.409 . S
C90 C88 1.415 . S
C91 H81 0.930 . S
C91 C89 1.419 . S
C91 C92 1.362 . S
C92 H82 0.930 . S
C92 C85 1.409 . S
C92 C91 1.362 . S
H93 C99 0.930 . S
H94 C102 0.930 . S
H95 C103 0.930 . S
H96 C104 0.930 . S
H97 C107 0.930 . S
H98 C108 0.930 . S
C99 H93 0.930 . S
C99 C100 1.355 1_565 S
C99 C101 1.415 . S
C100 C99 1.355 1_545 S
C100 C102 1.419 . S
C101 C99 1.415 . S
C101 C106 1.425 1_565 S
C101 C108 1.409 . S
C102 H94 0.930 . S
C102 C100 1.419 . S
C102 C103 1.362 . S
C103 H95 0.930 . S
C103 C102 1.362 . S
C103 C106 1.409 . S
C104 H96 0.930 . S
C104 C105 1.355 . S
C104 C106 1.415 . S
C105 C104 1.355 . S
C105 C107 1.419 1_545 S
C106 C101 1.425 1_545 S
C106 C103 1.409 . S
C106 C104 1.415 . S
C107 H97 0.930 . S
C107 C105 1.419 1_565 S
C107 C108 1.362 . S
C108 H98 0.930 . S
C108 C101 1.409 . S
C108 C107 1.362 . S
H109 C115 0.930 . S
H110 C118 0.930 . S
H111 C119 0.930 . S
H112 C120 0.930 . S
H113 C123 0.930 . S
H114 C124 0.930 . S
C115 H109 0.930 . S
C115 C116 1.355 1_655 S
C115 C117 1.415 . S
C116 C115 1.355 1_455 S
C116 C118 1.419 . S
C117 C115 1.415 . S
C117 C122 1.425 1_655 S
C117 C124 1.409 . S
C118 H110 0.930 . S
C118 C116 1.419 . S
C118 C119 1.362 . S
C119 H111 0.930 . S
C119 C118 1.362 . S
C119 C122 1.409 . S
C120 H112 0.930 . S
C120 C121 1.355 1_455 S
C120 C122 1.415 . S
C121 C120 1.355 1_655 S
C121 C123 1.419 . S
C122 C117 1.425 1_455 S
C122 C119 1.409 . S
C122 C120 1.415 . S
C123 H113 0.930 . S
C123 C121 1.419 . S
C123 C124 1.362 . S
C124 H114 0.930 . S
C124 C117 1.409 . S
C124 C123 1.362 . S
H125 C131 0.930 . S
H126 C134 0.930 1_565 S
H127 C135 0.930 . S
H128 C136 0.930 . S
H129 C139 0.930 . S
H130 C140 0.930 . S
C131 H125 0.930 . S
C131 C132 1.355 . S
C131 C133 1.415 . S
C132 C131 1.355 . S
C132 C134 1.419 . S
C133 C131 1.415 . S
C133 C138 1.425 1_545 S
C133 C140 1.409 . S
C134 H126 0.930 1_545 S
C134 C132 1.419 . S
C134 C135 1.362 1_545 S
C135 H127 0.930 . S
C135 C134 1.362 1_565 S
C135 C138 1.409 . S
C136 H128 0.930 . S
C136 C137 1.355 . S
C136 C138 1.415 . S
C137 C136 1.355 . S
C137 C139 1.419 1_565 S
C138 C133 1.425 1_565 S
C138 C135 1.409 . S
C138 C136 1.415 . S
C139 H129 0.930 . S
C139 C137 1.419 1_545 S
C139 C140 1.362 . S
C140 H130 0.930 . S
C140 C133 1.409 . S
C140 C139 1.362 . S
H141 C147 0.930 . S
H142 C150 0.930 . S
H143 C151 0.930 . S
H144 C152 0.930 . S
H145 C155 0.930 . S
H146 C156 0.930 . S
C147 H141 0.930 . S
C147 C148 1.355 1_455 S
C147 C149 1.415 . S
C148 C147 1.355 1_655 S
C148 C150 1.419 . S
C149 C147 1.415 . S
C149 C154 1.425 1_455 S
C149 C156 1.409 . S
C150 H142 0.930 . S
C150 C148 1.419 . S
C150 C151 1.362 . S
C151 H143 0.930 . S
C151 C150 1.362 . S
C151 C154 1.409 . S
C152 H144 0.930 . S
C152 C153 1.355 1_655 S
C152 C154 1.415 . S
C153 C152 1.355 1_455 S
C153 C155 1.419 . S
C154 C149 1.425 1_655 S
C154 C151 1.409 . S
C154 C152 1.415 . S
C155 H145 0.930 . S
C155 C153 1.419 . S
C155 C156 1.362 . S
C156 H146 0.930 . S
C156 C149 1.409 . S
C156 C155 1.362 . S
H157 C163 0.930 . S
H158 C166 0.931 . S
H159 C167 0.930 . S
H160 C168 0.930 . S
H161 C171 0.930 . S
H162 C172 0.930 1_565 S
C163 H157 0.930 . S
C163 C164 1.355 . S
C163 C165 1.415 1_565 S
C164 C163 1.355 . S
C164 C166 1.419 1_565 S
C165 C163 1.415 1_545 S
C165 C170 1.425 . S
C165 C172 1.409 . S
C166 H158 0.931 . S
C166 C164 1.419 1_545 S
C166 C167 1.362 . S
C167 H159 0.930 . S
C167 C166 1.362 . S
C167 C170 1.409 . S
C168 H160 0.930 . S
C168 C169 1.355 . S
C168 C170 1.415 . S
C169 C168 1.355 . S
C169 C171 1.419 . S
C170 C165 1.425 . S
C170 C167 1.409 . S
C170 C168 1.415 . S
C171 H161 0.930 . S
C171 C169 1.419 . S
C171 C172 1.362 . S
C172 H162 0.930 1_545 S
C172 C165 1.409 . S
C172 C171 1.362 . S
H173 C179 0.930 . S
H174 C182 0.930 . S
H175 C183 0.930 . S
H176 C184 0.930 . S
H177 C187 0.930 . S
H178 C188 0.930 . S
C179 H173 0.930 . S
C179 C180 1.355 1_455 S
C179 C181 1.415 . S
C180 C179 1.355 1_655 S
C180 C182 1.419 . S
C181 C179 1.415 . S
C181 C186 1.425 1_455 S
C181 C188 1.409 . S
C182 H174 0.930 . S
C182 C180 1.419 . S
C182 C183 1.362 . S
C183 H175 0.930 . S
C183 C182 1.362 . S
C183 C186 1.409 . S
C184 H176 0.930 . S
C184 C185 1.355 . S
C184 C186 1.415 . S
C185 C184 1.355 . S
C185 C187 1.419 1_655 S
C186 C181 1.425 1_655 S
C186 C183 1.409 . S
C186 C184 1.415 . S
C187 H177 0.930 . S
C187 C185 1.419 1_455 S
C187 C188 1.362 . S
C188 H178 0.930 . S
C188 C181 1.409 . S
C188 C187 1.362 . S
H189 C195 0.930 . S
H190 C198 0.930 . S
H191 C199 0.930 . S
H192 C200 0.930 . S
H193 C203 0.930 . S
H194 C204 0.930 . S
C195 H189 0.930 . S
C195 C196 1.355 . S
C195 C197 1.415 . S
C196 C195 1.355 . S
C196 C198 1.419 1_545 S
C197 C195 1.415 . S
C197 C202 1.425 1_545 S
C197 C204 1.409 . S
C198 H190 0.930 . S
C198 C196 1.419 1_565 S
C198 C199 1.362 . S
C199 H191 0.930 . S
C199 C198 1.362 . S
C199 C202 1.409 . S
C200 H192 0.930 . S
C200 C201 1.355 . S
C200 C202 1.415 . S
C201 C200 1.355 . S
C201 C203 1.419 1_565 S
C202 C197 1.425 1_565 S
C202 C199 1.409 . S
C202 C200 1.415 . S
C203 H193 0.930 . S
C203 C201 1.419 1_545 S
C203 C204 1.362 . S
C204 H194 0.930 . S
C204 C197 1.409 . S
C204 C203 1.362 . S
C84 C30 1.417 1_455 S
C89 C47 1.431 . S
C100 C1 1.423 . S
C105 N66 1.419 . S
C116 C0 1.353 1_455 S
C121 N43 1.314 . S
C132 C29 1.611 . S
C137 C70 1.639 . S
C148 C19 1.469 1_655 S
C153 C38 1.507 . S
C164 C20 1.464 . S
C169 N56 1.508 . S
C185 N33 1.371 . S
C180 C10 1.368 1_655 S
C196 C2 1.596 . S
C201 C61 1.666 . S
