# Generated by pormake.
# Topology bcu-b, (8,8)-cn, num edge types: 1
# Building blocks:
#     Node 0, Type 0, BuildingBlock: TAGTUT_clean_sbu_3, # of connection points: 8
#     Node 1, Type 1, BuildingBlock: TAGTUT_clean_sbu_1, # of connection points: 8
#     Edge 2, Type (0, 1), BuildingBlock: AJUNOK_clean_linker_0, # of connection points: 2
#     Edge 3, Type (0, 1), BuildingBlock: AJUNOK_clean_linker_0, # of connection points: 2
#     Edge 4, Type (0, 1), BuildingBlock: AJUNOK_clean_linker_0, # of connection points: 2
#     Edge 5, Type (0, 1), BuildingBlock: AJUNOK_clean_linker_0, # of connection points: 2
#     Edge 6, Type (0, 1), BuildingBlock: AJUNOK_clean_linker_0, # of connection points: 2
#     Edge 7, Type (0, 1), BuildingBlock: AJUNOK_clean_linker_0, # of connection points: 2
#     Edge 8, Type (0, 1), BuildingBlock: AJUNOK_clean_linker_0, # of connection points: 2
#     Edge 9, Type (0, 1), BuildingBlock: AJUNOK_clean_linker_0, # of connection points: 2
# Relax obj value: 0.012
# Max RMSD: 0.078
# Mean RMSD: 0.066
data_MOF--net-bcu-b--node1-TAGTUT_clean_sbu_3--node2-TAGTUT_clean_sbu_1--edge1-AJUNOK_clean_linker_0
_symmetry_space_group_name_H-M    P1
_symmetry_Int_Tables_number       1
_symmetry_cell_setting            triclinic
loop_
_symmetry_equiv_pos_as_xyz
'x, y, z'
_cell_length_a     15.365847
_cell_length_b     14.568796
_cell_length_c     16.122953
_cell_angle_alpha  90.489305
_cell_angle_beta   90.360689
_cell_angle_gamma 110.61904
loop_
_atom_site_label
_atom_site_type_symbol
_atom_site_fract_x
_atom_site_fract_y
_atom_site_fract_z
_atom_type_partial_charge
C0 C 0.1568 0.15374 0.12017 0.0
C1 C 0.28054 0.86151 0.04763 0.0
C2 C 0.16283 0.8809 0.80739 0.0
Mg3 Mg 0.97946 0.19713 0.03518 0.0
Mg4 Mg 0.79962 -0.00054 -0.01177 0.0
O5 O 0.9245 0.07633 0.96474 0.0
Mg6 Mg 0.01477 0.00957 -0.01127 0.0
O7 O 0.10859 0.94771 0.01451 0.0
Mg8 Mg 0.22246 0.04659 0.96566 0.0
Mg9 Mg 0.07998 0.81809 0.97666 0.0
C10 C 0.86159 0.86032 0.86545 0.0
O11 O 0.91253 0.89107 0.07024 0.0
O12 O 0.86714 0.24805 0.9677 0.0
O13 O 0.94525 0.75631 0.03667 0.0
O14 O 0.88092 0.14214 0.14098 0.0
O15 O 0.74814 0.10692 0.94029 0.0
O16 O 0.77053 0.9967 0.12127 0.0
O17 O 0.12403 0.12055 0.90829 0.0
O18 O 0.08595 0.25209 0.93212 0.0
C19 C 0.13744 0.21145 0.89641 0.0
C20 C 0.78498 0.20068 0.93785 0.0
O21 O 0.94805 0.9066 0.88118 0.0
O22 O 0.30271 0.95334 0.03022 0.0
O23 O 0.7957 0.87552 0.90606 0.0
O24 O 0.21432 0.95916 0.84448 0.0
O25 O 0.19972 0.79839 0.03149 0.0
O26 O 0.09536 0.81753 0.84446 0.0
O27 O 0.07306 0.11821 0.09361 0.0
O28 O 0.2221 0.13235 0.08522 0.0
C29 C 0.81296 0.07061 0.16785 0.0
C30 C 0.89522 0.79808 0.07405 0.0
C31 C 0.33403 0.74434 0.54287 0.0
C32 C 0.4412 0.70365 0.30485 0.0
C33 C 0.33777 0.31815 0.41762 0.0
Mg34 Mg 0.52304 0.73572 0.48196 0.0
O35 O 0.45968 0.60248 0.50377 0.0
Mg36 Mg 0.33441 0.53489 0.45343 0.0
Mg37 Mg 0.51466 0.50045 0.48105 0.0
O38 O 0.56906 0.39691 0.46119 0.0
Mg39 Mg 0.50539 0.27695 0.51308 0.0
Mg40 Mg 0.69901 0.46687 0.50195 0.0
C41 C 0.68745 0.68116 0.5677 0.0
C42 C 0.6678 0.57597 0.33555 0.0
O43 O 0.29288 0.65875 0.51108 0.0
O44 O 0.42273 0.78687 0.54166 0.0
O45 O 0.37685 0.6267 0.33154 0.0
O46 O 0.50934 0.75452 0.35097 0.0
O47 O 0.65403 0.74692 0.54542 0.0
O48 O 0.64576 0.58988 0.55071 0.0
C49 C 0.35417 0.41791 0.61968 0.0
O50 O 0.43682 0.42535 0.59871 0.0
O51 O 0.30373 0.4523 0.57511 0.0
O52 O 0.72473 0.32737 0.44794 0.0
O53 O 0.58704 0.2023 0.45347 0.0
O54 O 0.67784 0.40017 0.62977 0.0
C55 C 0.6731 0.23704 0.43344 0.0
O56 O 0.53725 0.28868 0.6457 0.0
O57 O 0.36922 0.26078 0.45892 0.0
C58 C 0.61675 0.34099 0.67538 0.0
O59 O 0.38526 0.41004 0.40961 0.0
O60 O 0.5896 0.57532 0.36311 0.0
O61 O 0.71859 0.53801 0.37548 0.0
C62 C 0.19988 0.13147 0.26288 0.0
C63 C 0.17388 0.1893 0.20586 0.0
C64 C 0.24114 0.17072 0.33846 0.0
C65 C 0.26072 0.27046 0.35825 0.0
H66 H 0.19445 0.05732 0.24638 0.0
H67 H 0.26648 0.12481 0.37704 0.0
S68 S 0.17407 0.44017 0.24192 0.0
N69 N 0.14623 0.34098 0.18224 0.0
N70 N 0.22688 0.41724 0.3246 0.0
C71 C 0.22222 0.32441 0.30687 0.0
C72 C 0.17834 0.28328 0.23007 0.0
C73 C 0.68189 0.05915 0.26311 0.0
C74 C 0.77782 0.08497 0.25051 0.0
C75 C 0.64828 0.10291 0.32745 0.0
C76 C 0.70953 0.17465 0.38078 0.0
H77 H 0.63277 0.01216 0.21864 0.0
H78 H 0.5739 0.08622 0.33085 0.0
S79 S 0.96643 0.24892 0.38555 0.0
N80 N 0.93308 0.17185 0.30609 0.0
N81 N 0.86999 0.25552 0.42539 0.0
C82 C 0.80515 0.19271 0.37414 0.0
C83 C 0.8392 0.14723 0.30956 0.0
C84 C 0.7876 0.78437 0.19335 0.0
C85 C 0.82107 0.73816 0.1303 0.0
C86 C 0.7301 0.73006 0.25618 0.0
C87 C 0.70562 0.62791 0.2589 0.0
H88 H 0.81086 0.86342 0.19776 0.0
H89 H 0.71061 0.76887 0.30622 0.0
S90 S 0.76229 0.46927 0.10361 0.0
N91 N 0.81431 0.58184 0.06954 0.0
N92 N 0.71009 0.48094 0.19023 0.0
C93 C 0.73333 0.57996 0.19409 0.0
C94 C 0.79014 0.6348 0.12909 0.0
C95 C 0.39978 0.88752 0.16078 0.0
C96 C 0.3443 0.82706 0.09782 0.0
C97 C 0.4391 0.84807 0.22384 0.0
C98 C 0.42435 0.74692 0.22611 0.0
H99 H 0.4064 0.96392 0.1655 0.0
H100 H 0.47435 0.89571 0.27493 0.0
S101 S 0.30633 0.56325 0.06359 0.0
N102 N 0.29234 0.66507 0.03282 0.0
N103 N 0.36614 0.59156 0.15151 0.0
C104 C 0.37791 0.68818 0.15872 0.0
C105 C 0.33807 0.72817 0.09447 0.0
C106 C 0.15311 0.75916 0.69438 0.0
C107 C 0.19229 0.85578 0.72536 0.0
C108 C 0.19541 0.72574 0.63003 0.0
C109 C 0.27848 0.78766 0.5942 0.0
H110 H 0.0932 0.7066 0.72378 0.0
H111 H 0.16633 0.6488 0.6128 0.0
S112 S 0.39536 0.0533 0.63752 0.0
N113 N 0.3089 0.01788 0.70401 0.0
N114 N 0.38821 0.95436 0.58322 0.0
C115 C 0.31239 0.88699 0.61804 0.0
C116 C 0.26922 0.92129 0.68346 0.0
C117 C 0.25047 0.22266 0.78072 0.0
C118 C 0.20609 0.26904 0.83434 0.0
C119 C 0.30424 0.27301 0.71381 0.0
C120 C 0.3146 0.37098 0.69815 0.0
H121 H 0.24019 0.14585 0.78813 0.0
H122 H 0.33321 0.2336 0.67142 0.0
S123 S 0.22552 0.53091 0.82545 0.0
N124 N 0.18694 0.42363 0.87177 0.0
N125 N 0.2852 0.51572 0.74507 0.0
C126 C 0.27576 0.41989 0.7537 0.0
C127 C 0.22235 0.36964 0.82215 0.0
C128 C 0.64189 0.1979 0.86154 0.0
C129 C 0.73321 0.25182 0.88945 0.0
C130 C 0.5996 0.23206 0.79764 0.0
C131 C 0.64684 0.32166 0.75916 0.0
H132 H 0.60483 0.12519 0.88496 0.0
H133 H 0.53282 0.18406 0.77397 0.0
S134 S 0.87471 0.50434 0.82606 0.0
N135 N 0.86061 0.40882 0.88587 0.0
N136 N 0.78086 0.47391 0.76642 0.0
C137 C 0.73255 0.38237 0.79427 0.0
C138 C 0.77584 0.34728 0.85931 0.0
C139 C 0.76094 0.71038 0.78971 0.0
C140 C 0.83638 0.79945 0.78947 0.0
C141 C 0.72089 0.66422 0.7151 0.0
C142 C 0.75307 0.70761 0.63817 0.0
H143 H 0.72929 0.67937 0.84774 0.0
H144 H 0.65839 0.59961 0.71805 0.0
S145 S 0.95654 0.93315 0.60417 0.0
N146 N 0.9499 0.92226 0.70608 0.0
N147 N 0.8704 0.83822 0.56591 0.0
C148 C 0.83293 0.79223 0.63705 0.0
C149 C 0.87577 0.83751 0.71291 0.0
loop_
_geom_bond_atom_site_label_1
_geom_bond_atom_site_label_2
_geom_bond_distance
_geom_bond_site_symmetry_2
_ccdc_geom_bond_type
C0 O27 1.312 . S
C0 O28 1.208 . S
C1 O22 1.331 . S
C1 O25 1.244 . S
C2 O24 1.264 . S
C2 O26 1.273 . S
Mg3 O5 1.934 1_454 S
Mg3 O12 2.074 1_454 S
Mg3 O14 2.031 1_455 S
Mg3 O18 2.024 1_554 S
Mg3 O27 2.297 . S
Mg4 O5 1.963 . S
Mg4 O15 1.942 . S
Mg4 O16 1.955 1_556 S
Mg4 O23 1.986 1_545 S
O5 Mg3 1.934 1_656 S
O5 Mg4 1.963 . S
O5 Mg6 1.915 1_546 S
Mg6 O5 1.915 1_564 S
Mg6 O7 1.915 1_655 S
Mg6 O11 2.013 . S
Mg6 O17 2.114 1_664 S
Mg6 O21 2.013 1_554 S
Mg6 O27 2.114 1_665 S
O7 Mg6 1.915 1_455 S
O7 Mg8 1.936 1_565 S
O7 Mg9 1.963 . S
Mg8 O7 1.936 1_545 S
Mg8 O17 2.291 1_554 S
Mg8 O22 2.081 1_545 S
Mg8 O24 2.023 1_544 S
Mg8 O28 2.031 . S
Mg9 O7 1.963 . S
Mg9 O13 1.986 1_455 S
Mg9 O25 1.942 . S
Mg9 O26 1.955 1_554 S
C10 O21 1.191 . S
C10 O23 1.307 . S
O11 Mg6 2.013 . S
O11 C30 1.191 . S
O12 Mg3 2.074 1_656 S
O12 C20 1.331 . S
O13 Mg9 1.986 1_655 S
O13 C30 1.307 . S
O14 Mg3 2.031 1_655 S
O14 C29 1.264 . S
O15 Mg4 1.942 . S
O15 C20 1.244 . S
O16 Mg4 1.955 1_554 S
O16 C29 1.273 . S
O17 Mg6 2.114 1_446 S
O17 Mg8 2.291 1_556 S
O17 C19 1.312 . S
O18 Mg3 2.024 1_556 S
O18 C19 1.208 . S
C19 O17 1.312 . S
C19 O18 1.208 . S
C20 O12 1.331 . S
C20 O15 1.244 . S
O21 Mg6 2.013 1_556 S
O21 C10 1.191 . S
O22 C1 1.331 . S
O22 Mg8 2.081 1_565 S
O23 Mg4 1.986 1_565 S
O23 C10 1.307 . S
O24 C2 1.264 . S
O24 Mg8 2.023 1_566 S
O25 C1 1.244 . S
O25 Mg9 1.942 . S
O26 C2 1.273 . S
O26 Mg9 1.955 1_556 S
O27 C0 1.312 . S
O27 Mg3 2.297 . S
O27 Mg6 2.114 1_445 S
O28 C0 1.208 . S
O28 Mg8 2.031 . S
C29 O14 1.264 . S
C29 O16 1.273 . S
C30 O11 1.191 . S
C30 O13 1.307 . S
C31 O43 1.241 . S
C31 O44 1.280 . S
C32 O45 1.277 . S
C32 O46 1.245 . S
C33 O57 1.247 . S
C33 O59 1.289 . S
Mg34 O35 1.926 . S
Mg34 O44 1.984 . S
Mg34 O46 1.988 . S
Mg34 O47 2.061 . S
O35 Mg34 1.926 . S
O35 Mg36 1.986 . S
O35 Mg37 1.917 . S
Mg36 O35 1.986 . S
Mg36 O43 2.042 . S
Mg36 O45 2.041 . S
Mg36 O51 2.038 . S
Mg36 O59 2.238 . S
Mg37 O35 1.917 . S
Mg37 O38 1.917 . S
Mg37 O48 2.106 . S
Mg37 O50 2.079 . S
Mg37 O59 2.106 . S
Mg37 O60 2.079 . S
O38 Mg37 1.917 . S
O38 Mg39 1.926 . S
O38 Mg40 1.986 . S
Mg39 O38 1.926 . S
Mg39 O53 1.984 . S
Mg39 O56 1.988 . S
Mg39 O57 2.061 . S
Mg40 O38 1.986 . S
Mg40 O48 2.238 . S
Mg40 O52 2.042 . S
Mg40 O54 2.041 . S
Mg40 O61 2.038 . S
C41 O47 1.247 . S
C41 O48 1.289 . S
C42 O60 1.245 . S
C42 O61 1.274 . S
O43 C31 1.241 . S
O43 Mg36 2.042 . S
O44 C31 1.280 . S
O44 Mg34 1.984 . S
O45 C32 1.277 . S
O45 Mg36 2.041 . S
O46 C32 1.245 . S
O46 Mg34 1.988 . S
O47 Mg34 2.061 . S
O47 C41 1.247 . S
O48 Mg37 2.106 . S
O48 Mg40 2.238 . S
O48 C41 1.289 . S
C49 O50 1.245 . S
C49 O51 1.274 . S
O50 Mg37 2.079 . S
O50 C49 1.245 . S
O51 Mg36 2.038 . S
O51 C49 1.274 . S
O52 Mg40 2.042 . S
O52 C55 1.241 . S
O53 Mg39 1.984 . S
O53 C55 1.280 . S
O54 Mg40 2.041 . S
O54 C58 1.277 . S
C55 O52 1.241 . S
C55 O53 1.280 . S
O56 Mg39 1.988 . S
O56 C58 1.245 . S
O57 C33 1.247 . S
O57 Mg39 2.061 . S
C58 O54 1.277 . S
C58 O56 1.245 . S
O59 C33 1.289 . S
O59 Mg36 2.238 . S
O59 Mg37 2.106 . S
O60 Mg37 2.079 . S
O60 C42 1.245 . S
O61 Mg40 2.038 . S
O61 C42 1.274 . S
C62 C63 1.369 . S
C62 C64 1.419 . S
C62 H66 0.930 . S
C63 C62 1.369 . S
C63 C72 1.429 . S
C64 C62 1.419 . S
C64 C65 1.363 . S
C64 H67 0.929 . S
C65 C64 1.363 . S
C65 C71 1.428 . S
H66 C62 0.930 . S
H67 C64 0.929 . S
S68 N69 1.613 . S
S68 N70 1.610 . S
N69 S68 1.613 . S
N69 C72 1.350 . S
N70 S68 1.610 . S
N70 C71 1.351 . S
C71 C65 1.428 . S
C71 N70 1.351 . S
C71 C72 1.434 . S
C72 C63 1.429 . S
C72 N69 1.350 . S
C72 C71 1.434 . S
C73 C74 1.369 . S
C73 C75 1.419 . S
C73 H77 0.930 . S
C74 C73 1.369 . S
C74 C83 1.429 . S
C75 C73 1.419 . S
C75 C76 1.363 . S
C75 H78 0.929 . S
C76 C75 1.363 . S
C76 C82 1.428 . S
H77 C73 0.930 . S
H78 C75 0.929 . S
S79 N80 1.613 1_455 S
S79 N81 1.607 1_455 S
N80 S79 1.613 1_655 S
N80 C83 1.350 . S
N81 S79 1.607 1_655 S
N81 C82 1.351 . S
C82 C76 1.428 . S
C82 N81 1.351 . S
C82 C83 1.434 . S
C83 C74 1.429 . S
C83 N80 1.350 . S
C83 C82 1.434 . S
C84 C85 1.369 . S
C84 C86 1.419 . S
C84 H88 0.930 . S
C85 C84 1.369 . S
C85 C94 1.429 . S
C86 C84 1.419 . S
C86 C87 1.363 . S
C86 H89 0.929 . S
C87 C86 1.363 . S
C87 C93 1.428 . S
H88 C84 0.930 . S
H89 C86 0.929 . S
S90 N91 1.613 . S
S90 N92 1.610 . S
N91 S90 1.613 . S
N91 C94 1.350 . S
N92 S90 1.610 . S
N92 C93 1.351 . S
C93 C87 1.428 . S
C93 N92 1.351 . S
C93 C94 1.434 . S
C94 C85 1.429 . S
C94 N91 1.350 . S
C94 C93 1.434 . S
C95 C96 1.369 . S
C95 C97 1.419 . S
C95 H99 0.930 . S
C96 C95 1.369 . S
C96 C105 1.429 . S
C97 C95 1.419 . S
C97 C98 1.363 . S
C97 H100 0.929 . S
C98 C97 1.363 . S
C98 C104 1.428 . S
H99 C95 0.930 . S
H100 C97 0.929 . S
S101 N102 1.613 . S
S101 N103 1.610 . S
N102 S101 1.613 . S
N102 C105 1.350 . S
N103 S101 1.610 . S
N103 C104 1.351 . S
C104 C98 1.428 . S
C104 N103 1.351 . S
C104 C105 1.434 . S
C105 C96 1.429 . S
C105 N102 1.350 . S
C105 C104 1.434 . S
C106 C107 1.369 . S
C106 C108 1.419 . S
C106 H110 0.930 . S
C107 C106 1.369 . S
C107 C116 1.429 . S
C108 C106 1.419 . S
C108 C109 1.363 . S
C108 H111 0.929 . S
C109 C108 1.363 . S
C109 C115 1.428 . S
H110 C106 0.930 . S
H111 C108 0.929 . S
S112 N113 1.613 . S
S112 N114 1.610 . S
N113 S112 1.613 . S
N113 C116 1.350 . S
N114 S112 1.610 . S
N114 C115 1.351 . S
C115 C109 1.428 . S
C115 N114 1.351 . S
C115 C116 1.434 . S
C116 C107 1.429 . S
C116 N113 1.350 . S
C116 C115 1.434 . S
C117 C118 1.369 . S
C117 C119 1.419 . S
C117 H121 0.930 . S
C118 C117 1.369 . S
C118 C127 1.429 . S
C119 C117 1.419 . S
C119 C120 1.363 . S
C119 H122 0.929 . S
C120 C119 1.363 . S
C120 C126 1.428 . S
H121 C117 0.930 . S
H122 C119 0.929 . S
S123 N124 1.613 . S
S123 N125 1.610 . S
N124 S123 1.613 . S
N124 C127 1.350 . S
N125 S123 1.610 . S
N125 C126 1.351 . S
C126 C120 1.428 . S
C126 N125 1.351 . S
C126 C127 1.434 . S
C127 C118 1.429 . S
C127 N124 1.350 . S
C127 C126 1.434 . S
C128 C129 1.369 . S
C128 C130 1.419 . S
C128 H132 0.930 . S
C129 C128 1.369 . S
C129 C138 1.429 . S
C130 C128 1.419 . S
C130 C131 1.363 . S
C130 H133 0.929 . S
C131 C130 1.363 . S
C131 C137 1.428 . S
H132 C128 0.930 . S
H133 C130 0.929 . S
S134 N135 1.613 . S
S134 N136 1.610 . S
N135 S134 1.613 . S
N135 C138 1.350 . S
N136 S134 1.610 . S
N136 C137 1.351 . S
C137 C131 1.428 . S
C137 N136 1.351 . S
C137 C138 1.434 . S
C138 C129 1.429 . S
C138 N135 1.350 . S
C138 C137 1.434 . S
C139 C140 1.369 . S
C139 C141 1.419 . S
C139 H143 0.930 . S
C140 C139 1.369 . S
C140 C149 1.429 . S
C141 C139 1.419 . S
C141 C142 1.363 . S
C141 H144 0.929 . S
C142 C141 1.363 . S
C142 C148 1.428 . S
H143 C139 0.930 . S
H144 C141 0.929 . S
S145 N146 1.613 . S
S145 N147 1.610 . S
N146 S145 1.613 . S
N146 C149 1.350 . S
N147 S145 1.610 . S
N147 C148 1.351 . S
C148 C142 1.428 . S
C148 N147 1.351 . S
C148 C149 1.434 . S
C149 C140 1.429 . S
C149 N146 1.350 . S
C149 C148 1.434 . S
C63 C0 1.233 . S
C65 C33 1.248 . S
C74 C29 1.572 . S
C76 C55 1.548 . S
C85 C30 1.464 . S
C87 C42 1.441 . S
C96 C1 1.551 . S
C98 C32 1.549 . S
C107 C2 1.564 . S
C109 C31 1.539 . S
C120 C49 1.493 . S
C118 C19 1.480 . S
C129 C20 1.573 . S
C131 C58 1.569 . S
C142 C41 1.190 . S
C140 C10 1.206 . S
