# Generated by pormake.
# Topology bcu-b, (8,8)-cn, num edge types: 1
# Building blocks:
#     Node 0, Type 0, BuildingBlock: TAGTUT_clean_sbu_1, # of connection points: 8
#     Node 1, Type 1, BuildingBlock: TAGTUT_clean_sbu_1, # of connection points: 8
#     Edge 2, Type (0, 1), BuildingBlock: AJUNOK_clean_linker_0, # of connection points: 2
#     Edge 3, Type (0, 1), BuildingBlock: AJUNOK_clean_linker_0, # of connection points: 2
#     Edge 4, Type (0, 1), BuildingBlock: AJUNOK_clean_linker_0, # of connection points: 2
#     Edge 5, Type (0, 1), BuildingBlock: AJUNOK_clean_linker_0, # of connection points: 2
#     Edge 6, Type (0, 1), BuildingBlock: AJUNOK_clean_linker_0, # of connection points: 2
#     Edge 7, Type (0, 1), BuildingBlock: AJUNOK_clean_linker_0, # of connection points: 2
#     Edge 8, Type (0, 1), BuildingBlock: AJUNOK_clean_linker_0, # of connection points: 2
#     Edge 9, Type (0, 1), BuildingBlock: AJUNOK_clean_linker_0, # of connection points: 2
# Relax obj value: 0.013
# Max RMSD: 0.070
# Mean RMSD: 0.070
data_MOF--net-bcu-b--node1-TAGTUT_clean_sbu_1--node2-TAGTUT_clean_sbu_1--edge1-AJUNOK_clean_linker_0
_symmetry_space_group_name_H-M    P1
_symmetry_Int_Tables_number       1
_symmetry_cell_setting            triclinic
loop_
_symmetry_equiv_pos_as_xyz
'x, y, z'
_cell_length_a     13.771971
_cell_length_b     15.525843
_cell_length_c     17.29988
_cell_angle_alpha  91.149044
_cell_angle_beta   94.405877
_cell_angle_gamma 115.51024
loop_
_atom_site_label
_atom_site_type_symbol
_atom_site_fract_x
_atom_site_fract_y
_atom_site_fract_z
_atom_type_partial_charge
C0 C 0.94002 0.19383 0.11944 0.0
C1 C 0.91412 0.17804 0.86375 0.0
C2 C 0.84646 0.80905 0.88529 0.0
Mg3 Mg 0.09124 0.19991 -0.00577 0.0
O4 O 1.01544 0.06694 0.01409 0.0
Mg5 Mg 0.85556 0.00333 -0.01035 0.0
Mg6 Mg 1.05221 0.96948 -0.038 0.0
O7 O 0.08907 0.87234 0.9096 0.0
Mg8 Mg 1.01372 0.73913 0.928 0.0
Mg9 Mg 0.24907 0.93593 0.93176 0.0
C10 C 0.25434 0.12759 0.04155 0.0
C11 C 0.2016 0.08197 0.8238 0.0
O12 O 0.86664 0.11542 0.08561 0.0
O13 O 1.03373 0.23924 0.09525 0.0
O14 O 0.85618 0.10221 0.8956 0.0
O15 O 1.013 0.22802 0.88905 0.0
O16 O 0.23781 0.17776 -0.01106 0.0
O17 O 0.22641 0.03842 0.02549 0.0
C18 C 0.90189 0.85996 0.1013 0.0
O19 O 0.9861 0.87223 0.06713 0.0
O20 O 0.84523 0.90314 0.0806 0.0
O21 O 0.23554 0.82517 0.83331 0.0
O22 O 0.06808 0.70186 0.82457 0.0
O23 O 0.2512 0.83503 0.02416 0.0
C24 C 0.16109 0.74733 0.79936 0.0
O25 O 0.09523 0.70749 0.02937 0.0
O26 O 0.8681 0.76198 0.93823 0.0
C27 C 0.19417 0.75748 0.0544 0.0
O28 O 0.87929 0.89955 0.89825 0.0
O29 O 0.11663 0.06753 0.85747 0.0
O30 O 0.25879 0.03873 0.84278 0.0
C31 C 0.29162 0.62038 0.53007 0.0
C32 C 0.39526 0.62467 0.30451 0.0
C33 C 0.37863 0.27659 0.35693 0.0
Mg34 Mg 0.5135 0.66309 0.46795 0.0
O35 O 0.45832 0.53288 0.48473 0.0
Mg36 Mg 0.31608 0.44447 0.42828 0.0
Mg37 Mg 0.54947 0.46855 0.46107 0.0
O38 O 0.64048 0.40384 0.43765 0.0
Mg39 Mg 0.58635 0.27352 0.4542 0.0
Mg40 Mg 0.78292 0.49188 0.49361 0.0
C41 C 0.71872 0.65884 0.56793 0.0
C42 C 0.73584 0.60568 0.35252 0.0
O43 O 0.24831 0.53483 0.498 0.0
O44 O 0.39042 0.67891 0.52513 0.0
O45 O 0.33462 0.54212 0.32656 0.0
O46 O 0.47943 0.68216 0.34712 0.0
O47 O 0.67008 0.7064 0.53712 0.0
O48 O 0.68687 0.56929 0.54959 0.0
C49 C 0.36394 0.33143 0.57061 0.0
O50 O 0.46371 0.3657 0.55671 0.0
O51 O 0.29592 0.35039 0.529 0.0
O52 O 0.85039 0.40299 0.42203 0.0
O53 O 0.70833 0.25892 0.39467 0.0
O54 O 0.76732 0.39298 0.59291 0.0
C55 C 0.80686 0.31784 0.38924 0.0
O56 O 0.62317 0.25255 0.57423 0.0
O57 O 0.4285 0.2298 0.38721 0.0
C58 C 0.70891 0.31019 0.61528 0.0
O59 O 0.41173 0.36672 0.37331 0.0
O60 O 0.63562 0.57233 0.36519 0.0
O61 O 0.80202 0.58582 0.39501 0.0
C62 C 0.28707 0.25624 0.1442 0.0
C63 C 0.2584 0.15921 0.12436 0.0
C64 C 0.31211 0.29251 0.22185 0.0
C65 C 0.31037 0.23327 0.28285 0.0
H66 H 0.29735 0.30621 0.09925 0.0
H67 H 0.34276 0.36903 0.23312 0.0
S68 S 0.21534 -0.0297 0.26442 0.0
N69 N 0.21102 0.00159 0.17408 0.0
N70 N 0.25751 0.07001 0.31944 0.0
C71 C 0.26928 0.13439 0.26457 0.0
C72 C 0.24414 0.09735 0.18555 0.0
C73 C 0.95452 0.3251 0.21307 0.0
C74 C 0.91898 0.22706 0.19388 0.0
C75 C 0.92671 0.35593 0.28131 0.0
C76 C 0.8639 0.28946 0.3325 0.0
H77 H 0.9992 0.37779 0.17334 0.0
H78 H 0.94813 0.43136 0.29116 0.0
S79 S 0.77446 0.02704 0.31729 0.0
N80 N 0.83406 0.06546 0.23742 0.0
N81 N 0.78315 0.1232 0.36574 0.0
C82 C 0.8373 0.19221 0.31731 0.0
C83 C 0.8643 0.16097 0.24782 0.0
C84 C 0.7597 0.77154 0.18924 0.0
C85 C 0.86266 0.79267 0.1642 0.0
C86 C 0.71857 0.71019 0.2489 0.0
C87 C 0.77873 0.66774 0.28709 0.0
H88 H 0.70938 0.80264 0.16264 0.0
H89 H 0.63959 0.6971 0.26568 0.0
S90 S 1.05098 0.69596 0.24271 0.0
N91 N 1.02209 0.76329 0.18113 0.0
N92 N 0.94606 0.64848 0.29383 0.0
C93 C 0.88137 0.68698 0.26212 0.0
C94 C 0.92289 0.74913 0.20068 0.0
C95 C 0.20925 0.62689 0.13071 0.0
C96 C 0.24795 0.72455 0.11718 0.0
C97 C 0.26136 0.59482 0.18829 0.0
C98 C 0.35444 0.65901 0.23499 0.0
H99 H 0.13794 0.57469 0.09672 0.0
H100 H 0.22645 0.51898 0.19741 0.0
S101 S 0.4887 0.92275 0.22222 0.0
N102 N 0.38567 0.8855 0.1548 0.0
N103 N 0.48364 0.82547 0.26218 0.0
C104 C 0.39536 0.75681 0.22067 0.0
C105 C 0.34206 0.78944 0.16224 0.0
C106 C 0.14392 0.61537 0.70558 0.0
C107 C 0.18058 0.7136 0.72453 0.0
C108 C 0.17097 0.58373 0.6374 0.0
C109 C 0.23417 0.64955 0.58599 0.0
H110 H 0.09919 0.56311 0.74558 0.0
H111 H 0.14892 0.50815 0.6279 0.0
S112 S 0.32542 0.91223 0.60006 0.0
N113 N 0.2663 0.87476 0.68029 0.0
N114 N 0.31565 0.81548 0.55193 0.0
C115 C 0.26141 0.74702 0.60074 0.0
C116 C 0.23524 0.77911 0.67024 0.0
C117 C 0.17114 0.16079 0.70481 0.0
C118 C 0.24155 0.1528 0.76409 0.0
C119 C 0.21178 0.21842 0.64244 0.0
C120 C 0.32427 0.27055 0.6373 0.0
H121 H 0.08457 0.11976 0.70511 0.0
H122 H 0.15418 0.22083 0.59727 0.0
S123 S 0.54109 0.28313 0.78458 0.0
N124 N 0.42817 0.20797 0.81809 0.0
N125 N 0.50407 0.31644 0.70177 0.0
C126 C 0.39494 0.26585 0.69824 0.0
C127 C 0.35366 0.20717 0.76138 0.0
C128 C 0.90889 0.3047 0.77764 0.0
C129 C 0.86089 0.20992 0.79972 0.0
C130 C 0.85665 0.3372 0.72065 0.0
C131 C 0.75396 0.27644 0.68298 0.0
H132 H 0.98725 0.35463 0.80483 0.0
H133 H 0.89878 0.41054 0.70507 0.0
S134 S 0.59327 0.02085 0.71921 0.0
N135 N 0.70424 0.05485 0.77886 0.0
N136 N 0.60645 0.11634 0.67256 0.0
C137 C 0.70464 0.18153 0.70495 0.0
C138 C 0.75793 0.14826 0.76289 0.0
C139 C 0.84226 0.83362 0.74183 0.0
C140 C 0.83634 0.77332 0.80288 0.0
C141 C 0.81693 0.79796 0.66411 0.0
C142 C 0.78357 0.70025 0.64382 0.0
H143 H 0.86134 0.90819 0.75401 0.0
H144 H 0.81582 0.84626 0.62007 0.0
S145 S 0.77355 0.51565 0.78046 0.0
N146 N 0.80839 0.61333 0.8366 0.0
N147 N 0.76178 0.54692 0.69095 0.0
C148 C 0.78791 0.6413 0.7036 0.0
C149 C 0.8132 0.67748 0.78292 0.0
loop_
_geom_bond_atom_site_label_1
_geom_bond_atom_site_label_2
_geom_bond_distance
_geom_bond_site_symmetry_2
_ccdc_geom_bond_type
C0 O12 1.241 . S
C0 O13 1.280 . S
C1 O14 1.277 . S
C1 O15 1.245 . S
C2 O26 1.247 . S
C2 O28 1.289 . S
Mg3 O4 1.926 . S
Mg3 O13 1.984 . S
Mg3 O15 1.988 1_554 S
Mg3 O16 2.061 1_655 S
O4 Mg3 1.926 . S
O4 Mg5 1.986 1_544 S
O4 Mg6 1.917 1_655 S
Mg5 O4 1.986 1_566 S
Mg5 O12 2.042 1_566 S
Mg5 O14 2.041 1_565 S
Mg5 O20 2.038 1_556 S
Mg5 O28 2.238 . S
Mg6 O4 1.917 1_455 S
Mg6 O7 1.917 1_544 S
Mg6 O17 2.106 . S
Mg6 O19 2.079 1_445 S
Mg6 O28 2.106 1_444 S
Mg6 O29 2.079 1_554 S
O7 Mg6 1.917 1_566 S
O7 Mg8 1.926 . S
O7 Mg9 1.986 1_566 S
Mg8 O7 1.926 . S
Mg8 O22 1.984 . S
Mg8 O25 1.988 1_556 S
Mg8 O26 2.061 1_455 S
Mg9 O7 1.986 1_544 S
Mg9 O17 2.238 . S
Mg9 O21 2.042 1_544 S
Mg9 O23 2.041 1_545 S
Mg9 O30 2.038 1_554 S
C10 O16 1.247 . S
C10 O17 1.289 . S
C11 O29 1.245 . S
C11 O30 1.274 . S
O12 C0 1.241 . S
O12 Mg5 2.042 1_544 S
O13 C0 1.280 . S
O13 Mg3 1.984 . S
O14 C1 1.277 . S
O14 Mg5 2.041 1_545 S
O15 C1 1.245 . S
O15 Mg3 1.988 1_556 S
O16 Mg3 2.061 1_455 S
O16 C10 1.247 . S
O17 Mg6 2.106 . S
O17 Mg9 2.238 . S
O17 C10 1.289 . S
C18 O19 1.245 . S
C18 O20 1.274 . S
O19 Mg6 2.079 1_665 S
O19 C18 1.245 . S
O20 Mg5 2.038 1_554 S
O20 C18 1.274 . S
O21 Mg9 2.042 1_566 S
O21 C24 1.241 . S
O22 Mg8 1.984 . S
O22 C24 1.280 . S
O23 Mg9 2.041 1_565 S
O23 C27 1.277 . S
C24 O21 1.241 . S
C24 O22 1.280 . S
O25 Mg8 1.988 1_554 S
O25 C27 1.245 . S
O26 C2 1.247 . S
O26 Mg8 2.061 1_655 S
C27 O23 1.277 . S
C27 O25 1.245 . S
O28 C2 1.289 . S
O28 Mg5 2.238 . S
O28 Mg6 2.106 1_666 S
O29 Mg6 2.079 1_556 S
O29 C11 1.245 . S
O30 Mg9 2.038 1_556 S
O30 C11 1.274 . S
C31 O43 1.241 . S
C31 O44 1.280 . S
C32 O45 1.277 . S
C32 O46 1.245 . S
C33 O57 1.247 . S
C33 O59 1.289 . S
Mg34 O35 1.926 . S
Mg34 O44 1.984 . S
Mg34 O46 1.988 . S
Mg34 O47 2.061 . S
O35 Mg34 1.926 . S
O35 Mg36 1.986 . S
O35 Mg37 1.917 . S
Mg36 O35 1.986 . S
Mg36 O43 2.042 . S
Mg36 O45 2.041 . S
Mg36 O51 2.038 . S
Mg36 O59 2.238 . S
Mg37 O35 1.917 . S
Mg37 O38 1.917 . S
Mg37 O48 2.106 . S
Mg37 O50 2.079 . S
Mg37 O59 2.106 . S
Mg37 O60 2.079 . S
O38 Mg37 1.917 . S
O38 Mg39 1.926 . S
O38 Mg40 1.986 . S
Mg39 O38 1.926 . S
Mg39 O53 1.984 . S
Mg39 O56 1.988 . S
Mg39 O57 2.061 . S
Mg40 O38 1.986 . S
Mg40 O48 2.238 . S
Mg40 O52 2.042 . S
Mg40 O54 2.041 . S
Mg40 O61 2.038 . S
C41 O47 1.247 . S
C41 O48 1.289 . S
C42 O60 1.245 . S
C42 O61 1.274 . S
O43 C31 1.241 . S
O43 Mg36 2.042 . S
O44 C31 1.280 . S
O44 Mg34 1.984 . S
O45 C32 1.277 . S
O45 Mg36 2.041 . S
O46 C32 1.245 . S
O46 Mg34 1.988 . S
O47 Mg34 2.061 . S
O47 C41 1.247 . S
O48 Mg37 2.106 . S
O48 Mg40 2.238 . S
O48 C41 1.289 . S
C49 O50 1.245 . S
C49 O51 1.274 . S
O50 Mg37 2.079 . S
O50 C49 1.245 . S
O51 Mg36 2.038 . S
O51 C49 1.274 . S
O52 Mg40 2.042 . S
O52 C55 1.241 . S
O53 Mg39 1.984 . S
O53 C55 1.280 . S
O54 Mg40 2.041 . S
O54 C58 1.277 . S
C55 O52 1.241 . S
C55 O53 1.280 . S
O56 Mg39 1.988 . S
O56 C58 1.245 . S
O57 C33 1.247 . S
O57 Mg39 2.061 . S
C58 O54 1.277 . S
C58 O56 1.245 . S
O59 C33 1.289 . S
O59 Mg36 2.238 . S
O59 Mg37 2.106 . S
O60 Mg37 2.079 . S
O60 C42 1.245 . S
O61 Mg40 2.038 . S
O61 C42 1.274 . S
C62 C63 1.369 . S
C62 C64 1.419 . S
C62 H66 0.930 . S
C63 C62 1.369 . S
C63 C72 1.429 . S
C64 C62 1.419 . S
C64 C65 1.363 . S
C64 H67 0.929 . S
C65 C64 1.363 . S
C65 C71 1.428 . S
H66 C62 0.930 . S
H67 C64 0.929 . S
S68 N69 1.613 . S
S68 N70 1.610 . S
N69 S68 1.613 . S
N69 C72 1.350 . S
N70 S68 1.610 . S
N70 C71 1.351 . S
C71 C65 1.428 . S
C71 N70 1.351 . S
C71 C72 1.434 . S
C72 C63 1.429 . S
C72 N69 1.350 . S
C72 C71 1.434 . S
C73 C74 1.369 . S
C73 C75 1.419 . S
C73 H77 0.930 . S
C74 C73 1.369 . S
C74 C83 1.429 . S
C75 C73 1.419 . S
C75 C76 1.363 . S
C75 H78 0.929 . S
C76 C75 1.363 . S
C76 C82 1.428 . S
H77 C73 0.930 . S
H78 C75 0.929 . S
S79 N80 1.613 . S
S79 N81 1.610 . S
N80 S79 1.613 . S
N80 C83 1.350 . S
N81 S79 1.610 . S
N81 C82 1.351 . S
C82 C76 1.428 . S
C82 N81 1.351 . S
C82 C83 1.434 . S
C83 C74 1.429 . S
C83 N80 1.350 . S
C83 C82 1.434 . S
C84 C85 1.369 . S
C84 C86 1.419 . S
C84 H88 0.930 . S
C85 C84 1.369 . S
C85 C94 1.429 . S
C86 C84 1.419 . S
C86 C87 1.363 . S
C86 H89 0.929 . S
C87 C86 1.363 . S
C87 C93 1.428 . S
H88 C84 0.930 . S
H89 C86 0.929 . S
S90 N91 1.613 . S
S90 N92 1.610 . S
N91 S90 1.613 . S
N91 C94 1.350 . S
N92 S90 1.610 . S
N92 C93 1.351 . S
C93 C87 1.428 . S
C93 N92 1.351 . S
C93 C94 1.434 . S
C94 C85 1.429 . S
C94 N91 1.350 . S
C94 C93 1.434 . S
C95 C96 1.369 . S
C95 C97 1.419 . S
C95 H99 0.930 . S
C96 C95 1.369 . S
C96 C105 1.429 . S
C97 C95 1.419 . S
C97 C98 1.363 . S
C97 H100 0.929 . S
C98 C97 1.363 . S
C98 C104 1.428 . S
H99 C95 0.930 . S
H100 C97 0.929 . S
S101 N102 1.613 . S
S101 N103 1.610 . S
N102 S101 1.613 . S
N102 C105 1.350 . S
N103 S101 1.610 . S
N103 C104 1.351 . S
C104 C98 1.428 . S
C104 N103 1.351 . S
C104 C105 1.434 . S
C105 C96 1.429 . S
C105 N102 1.350 . S
C105 C104 1.434 . S
C106 C107 1.369 . S
C106 C108 1.419 . S
C106 H110 0.930 . S
C107 C106 1.369 . S
C107 C116 1.429 . S
C108 C106 1.419 . S
C108 C109 1.363 . S
C108 H111 0.929 . S
C109 C108 1.363 . S
C109 C115 1.428 . S
H110 C106 0.930 . S
H111 C108 0.929 . S
S112 N113 1.613 . S
S112 N114 1.610 . S
N113 S112 1.613 . S
N113 C116 1.350 . S
N114 S112 1.610 . S
N114 C115 1.351 . S
C115 C109 1.428 . S
C115 N114 1.351 . S
C115 C116 1.434 . S
C116 C107 1.429 . S
C116 N113 1.350 . S
C116 C115 1.434 . S
C117 C118 1.369 . S
C117 C119 1.419 . S
C117 H121 0.930 . S
C118 C117 1.369 . S
C118 C127 1.429 . S
C119 C117 1.419 . S
C119 C120 1.363 . S
C119 H122 0.929 . S
C120 C119 1.363 . S
C120 C126 1.428 . S
H121 C117 0.930 . S
H122 C119 0.929 . S
S123 N124 1.613 . S
S123 N125 1.610 . S
N124 S123 1.613 . S
N124 C127 1.350 . S
N125 S123 1.610 . S
N125 C126 1.351 . S
C126 C120 1.428 . S
C126 N125 1.351 . S
C126 C127 1.434 . S
C127 C118 1.429 . S
C127 N124 1.350 . S
C127 C126 1.434 . S
C128 C129 1.369 . S
C128 C130 1.419 . S
C128 H132 0.930 . S
C129 C128 1.369 . S
C129 C138 1.429 . S
C130 C128 1.419 . S
C130 C131 1.363 . S
C130 H133 0.929 . S
C131 C130 1.363 . S
C131 C137 1.428 . S
H132 C128 0.930 . S
H133 C130 0.929 . S
S134 N135 1.613 . S
S134 N136 1.610 . S
N135 S134 1.613 . S
N135 C138 1.350 . S
N136 S134 1.610 . S
N136 C137 1.351 . S
C137 C131 1.428 . S
C137 N136 1.351 . S
C137 C138 1.434 . S
C138 C129 1.429 . S
C138 N135 1.350 . S
C138 C137 1.434 . S
C139 C140 1.369 . S
C139 C141 1.419 . S
C139 H143 0.930 . S
C140 C139 1.369 . S
C140 C149 1.429 . S
C141 C139 1.419 . S
C141 C142 1.363 . S
C141 H144 0.929 . S
C142 C141 1.363 . S
C142 C148 1.428 . S
H143 C139 0.930 . S
H144 C141 0.929 . S
S145 N146 1.613 . S
S145 N147 1.610 . S
N146 S145 1.613 . S
N146 C149 1.350 . S
N147 S145 1.610 . S
N147 C148 1.351 . S
C148 C142 1.428 . S
C148 N147 1.351 . S
C148 C149 1.434 . S
C149 C140 1.429 . S
C149 N146 1.350 . S
C149 C148 1.434 . S
C63 C10 1.083 . S
C65 C33 1.075 . S
C74 C0 1.503 . S
C76 C55 1.495 . S
C85 C18 1.585 . S
C87 C42 1.580 . S
C96 C27 1.642 . S
C98 C32 1.642 . S
C107 C24 1.504 . S
C109 C31 1.497 . S
C120 C49 1.586 . S
C118 C11 1.578 . S
C129 C1 1.640 . S
C131 C58 1.646 . S
C142 C41 1.082 . S
C140 C2 1.077 . S
