# Generated by pormake.
# Topology rtl, (3,6)-cn, num edge types: 1
# Building blocks:
#     Node 0, Type 0, BuildingBlock: OLANEW_clean_sbu_2, # of connection points: 3
#     Node 1, Type 0, BuildingBlock: OLANEW_clean_sbu_2, # of connection points: 3
#     Node 2, Type 0, BuildingBlock: OLANEW_clean_sbu_2, # of connection points: 3
#     Node 3, Type 0, BuildingBlock: OLANEW_clean_sbu_2, # of connection points: 3
#     Node 4, Type 1, BuildingBlock: KUMBOL_clean_sbu_1, # of connection points: 6
#     Node 5, Type 1, BuildingBlock: KUMBOL_clean_sbu_1, # of connection points: 6
#     Edge 6, Type (0, 1), None
#     Edge 7, Type (0, 1), None
#     Edge 8, Type (0, 1), None
#     Edge 9, Type (0, 1), None
#     Edge 10, Type (0, 1), None
#     Edge 11, Type (0, 1), None
#     Edge 12, Type (0, 1), None
#     Edge 13, Type (0, 1), None
#     Edge 14, Type (0, 1), None
#     Edge 15, Type (0, 1), None
#     Edge 16, Type (0, 1), None
#     Edge 17, Type (0, 1), None
# Relax obj value: 0.055
# Max RMSD: 0.217
# Mean RMSD: 0.164
data_MOF--net-rtl--node1-OLANEW_clean_sbu_2--node2-KUMBOL_clean_sbu_1--edge1-none
_symmetry_space_group_name_H-M    P1
_symmetry_Int_Tables_number       1
_symmetry_cell_setting            triclinic
loop_
_symmetry_equiv_pos_as_xyz
'x, y, z'
_cell_length_a     18.822288
_cell_length_b     19.274289
_cell_length_c     15.87887
_cell_angle_alpha  64.243309
_cell_angle_beta   104.30282
_cell_angle_gamma 92.919714
loop_
_atom_site_label
_atom_site_type_symbol
_atom_site_fract_x
_atom_site_fract_y
_atom_site_fract_z
_atom_type_partial_charge
O0 O 0.19144 0.86357 0.90365 0.0
Cd1 Cd 0.31397 0.83795 0.00864 0.0
O2 O 0.18873 0.98164 0.89371 0.0
Cd3 Cd 0.26559 0.96355 0.02994 0.0
O4 O 0.22901 0.92077 0.16263 0.0
C5 C 0.18705 0.95891 0.18157 0.0
O6 O 0.17171 0.03306 0.12562 0.0
C7 C 0.16218 0.93175 0.86395 0.0
C8 C 0.39497 0.71291 0.02297 0.0
O9 O 0.35418 0.75864 0.94167 0.0
O10 O 0.39622 0.72529 0.09614 0.0
O11 O 0.66088 0.70878 0.88628 0.0
Cd12 Cd 0.70609 0.80632 0.744 0.0
O13 O 0.59049 0.66968 0.78568 0.0
Cd14 Cd 0.52335 0.58155 0.76567 0.0
O15 O 0.60534 0.57408 0.69644 0.0
C16 C 0.58921 0.59578 0.60605 0.0
O17 O 0.52127 0.6208 0.55595 0.0
C18 C 0.61079 0.66575 0.86968 0.0
C19 C 0.84129 0.87593 0.71716 0.0
O20 O 0.80218 0.8925 0.76252 0.0
O21 O 0.82067 0.82181 0.69193 0.0
O22 O 0.79061 0.13167 0.37528 0.0
Cd23 Cd 0.68859 0.17664 0.22838 0.0
O24 O 0.86471 0.13973 0.28581 0.0
Cd25 Cd 0.96388 0.11782 0.25293 0.0
O26 O 0.89884 0.04742 0.19003 0.0
C27 C 0.88212 0.05278 0.10471 0.0
O28 O 0.83908 1.0022 0.08731 0.0
C29 C 0.85457 0.12083 0.36882 0.0
C30 C 0.62298 0.32331 0.16411 0.0
O31 O 0.61151 0.26566 0.23858 0.0
O32 O 0.66705 0.31301 0.12011 0.0
O33 O 0.3287 0.28408 0.68118 0.0
Cd34 Cd 0.32073 0.19089 0.61014 0.0
O35 O 0.31432 0.35368 0.52803 0.0
Cd36 Cd 0.3084 0.45148 0.39049 0.0
O37 O 0.35058 0.47459 0.26737 0.0
C38 C 0.41823 0.45577 0.28568 0.0
O39 O 0.45898 0.43008 0.37466 0.0
C40 C 0.32205 0.35064 0.61129 0.0
C41 C 0.18199 0.13332 0.58508 0.0
O42 O 0.22962 0.10828 0.66654 0.0
O43 O 0.1987 0.18737 0.51147 0.0
C44 C 0.89102 0.26234 0.51421 0.0
C45 C 0.75904 0.25147 0.47591 0.0
C46 C 0.83086 0.2168 0.52202 0.0
C47 C 0.74853 0.33198 0.42431 0.0
C48 C 0.88058 0.34299 0.45985 0.0
C49 C 0.80922 0.37745 0.41693 0.0
N50 N 0.95969 0.22778 0.55956 0.0
C51 C 0.02019 0.27015 0.55164 0.0
C52 C 0.9422 0.38688 0.45071 0.0
C53 C 0.01236 0.35017 0.49631 0.0
Gd54 Gd 0.03518 0.94625 0.57329 0.0
Gd55 Gd 0.96444 0.09555 0.65982 0.0
N56 N 0.84255 0.13886 0.57427 0.0
C57 C 0.69976 0.20424 0.48422 0.0
C58 C 0.78494 0.09275 0.58429 0.0
C59 C 0.71282 0.12452 0.53856 0.0
H60 H 0.79395 0.03177 0.62828 0.0
H61 H 0.66728 0.08757 0.54637 0.0
H62 H 0.2077 1.00483 0.58825 0.0
H63 H 0.07455 0.24306 0.59037 0.0
H64 H 0.3345 0.95033 0.66632 0.0
H65 H 0.64378 0.22877 0.44972 0.0
H66 H 0.69361 0.35934 0.38969 0.0
H67 H 0.92871 0.7936 0.62639 0.0
H68 H 0.93618 0.44906 0.40895 0.0
H69 H 0.06037 0.38364 0.49049 0.0
H70 H 0.31025 0.67912 0.79046 0.0
H71 H 0.80099 0.43945 0.37715 0.0
H72 H 0.06875 0.58668 0.77814 0.0
H73 H 0.94422 0.65196 0.71091 0.0
N74 N 0.04333 0.80996 0.65619 0.0
C75 C 0.11215 0.77488 0.6947 0.0
C76 C 0.98342 0.76657 0.66084 0.0
C77 C 0.06228 0.64919 0.74464 0.0
C78 C 0.99198 0.68585 0.707 0.0
C79 C 0.12338 0.6937 0.73713 0.0
H80 H 0.20426 0.5977 0.79701 0.0
N81 N 0.15911 0.89831 0.64499 0.0
C82 C 0.17171 0.82033 0.68932 0.0
C83 C 0.30299 0.83319 0.72119 0.0
C84 C 0.24395 0.78584 0.72662 0.0
C85 C 0.21677 0.94436 0.63338 0.0
C86 C 0.28925 0.91297 0.67457 0.0
O87 O 0.94089 0.12932 0.49983 0.0
O88 O 0.92384 0.01078 0.504 0.0
O89 O 0.0695 0.98992 0.43794 0.0
O90 O 1.0022 0.89194 0.47737 0.0
O91 O 0.92253 0.9753 0.71944 0.0
O92 O 0.9257 0.92183 0.61433 0.0
O93 O 0.08198 0.91396 0.73259 0.0
O94 O 0.07042 0.02628 0.751 0.0
O95 O 0.91989 0.07208 0.78284 0.0
O96 O 0.98958 0.16911 0.73405 0.0
O97 O 0.08245 0.06612 0.52997 0.0
O98 O 0.08055 0.10236 0.65061 0.0
C99 C 0.91483 0.08598 0.45642 0.0
C100 C 0.90328 0.92343 0.68619 0.0
C101 C 0.07069 0.90334 0.3646 0.0
C102 C 0.1415 0.91561 0.24895 0.0
C103 C 0.07093 0.80349 0.3096 0.0
C104 C 0.04789 0.83223 0.36585 0.0
C105 C 0.11757 0.84454 0.25195 0.0
C106 C 0.11716 0.94556 0.30456 0.0
C107 C 0.03658 0.93743 0.41418 0.0
C108 C 0.25512 0.70565 0.76461 0.0
C109 C 0.19494 0.65964 0.7687 0.0
H110 H 0.35923 0.80881 0.74975 0.0
C111 C 0.09872 0.95613 0.78059 0.0
C112 C 0.10848 0.10413 0.5821 0.0
C113 C 0.94516 0.14879 0.8738 0.0
C114 C 0.91213 0.11109 0.02653 0.0
C115 C 0.96835 0.23243 0.95472 0.0
C116 C 0.97229 0.21678 0.87785 0.0
C117 C 0.93829 0.18006 0.02868 0.0
C118 C 0.91489 0.0967 0.94789 0.0
C119 C 0.95214 0.12939 0.79608 0.0
H120 H 0.05183 0.7495 0.30982 0.0
H121 H 0.01039 0.79943 0.40836 0.0
H122 H 0.13342 0.8214 0.20758 0.0
H123 H 0.13326 1.00167 0.29985 0.0
H124 H 0.9888 0.28524 0.95709 0.0
H125 H 0.99656 0.25768 0.82193 0.0
H126 H 0.93465 0.19436 0.08615 0.0
H127 H 0.8953 0.0435 0.94568 0.0
C128 C 0.74948 0.60531 0.12992 0.0
C129 C 0.74086 0.74537 0.06066 0.0
C130 C 0.70846 0.67418 0.09813 0.0
C131 C 0.81452 0.74637 0.05624 0.0
C132 C 0.82305 0.60634 0.12385 0.0
C133 C 0.8555 0.6771 0.08787 0.0
N134 N 0.71649 0.53753 0.16308 0.0
C135 C 0.75316 0.46927 0.18908 0.0
C136 C 0.86159 0.53621 0.15276 0.0
C137 C 0.82627 0.46747 0.18474 0.0
Gd138 Gd 0.43406 0.50068 0.98382 0.0
Gd139 Gd 0.59659 0.54701 0.17595 0.0
N140 N 0.63668 0.67172 0.10158 0.0
C141 C 0.6982 0.81365 0.02818 0.0
C142 C 0.59612 0.73814 0.0743 0.0
C143 C 0.62566 0.80994 0.0355 0.0
H144 H 0.54183 0.73678 0.08483 0.0
H145 H 0.59283 0.86237 0.013 0.0
H146 H 0.49148 0.31447 0.06384 0.0
H147 H 0.72731 0.4157 0.21677 0.0
H148 H 0.4444 0.18589 0.131 0.0
H149 H 0.72103 0.86941 -0.00137 0.0
H150 H 0.84021 0.80053 0.02783 0.0
H151 H 0.29978 0.62346 0.96291 0.0
H152 H 0.91833 0.53459 0.14972 0.0
H153 H 0.85559 0.41295 0.20727 0.0
H154 H 0.19573 0.23592 0.12243 0.0
H155 H 0.91207 0.67894 0.08315 0.0
H156 H 0.11373 0.49558 0.02935 0.0
H157 H 0.17412 0.6189 0.98179 0.0
N158 N 0.31454 0.50313 0.00657 0.0
C159 C 0.28329 0.43415 0.03722 0.0
C160 C 0.27609 0.56872 0.98766 0.0
C161 C 0.1701 0.49686 0.02391 0.0
C162 C 0.20406 0.56644 -0.00257 0.0
C163 C 0.20968 0.42953 0.04458 0.0
H164 H 0.12152 0.35349 0.07822 0.0
N165 N 0.39763 0.37363 0.05976 0.0
C166 C 0.32606 0.36764 0.06481 0.0
C167 C 0.33867 0.22914 0.12294 0.0
C168 C 0.29481 0.29522 0.09648 0.0
C169 C 0.43876 0.30953 0.07973 0.0
C170 C 0.41091 0.23639 0.11434 0.0
O171 O 0.618 0.57176 0.0323 0.0
O172 O 0.50587 0.5992 0.91957 0.0
O173 O 0.436 0.44929 0.88503 0.0
O174 O 0.35564 0.54353 0.84336 0.0
O175 O 0.48807 0.61474 0.11893 0.0
O176 O 0.43012 0.62462 0.96562 0.0
O177 O 0.40801 0.48814 0.12048 0.0
O178 O 0.5212 0.45164 0.22466 0.0
O179 O 0.58208 0.58971 0.2775 0.0
O180 O 0.67456 0.50797 0.31555 0.0
O181 O 0.54823 0.43725 0.04206 0.0
O182 O 0.59048 0.42364 0.19859 0.0
C183 C 0.57622 0.61094 0.94539 0.0
C184 C 0.4405 0.64803 0.03468 0.0
C185 C 0.34869 0.49151 0.7264 0.0
C186 C 0.32047 0.42193 0.62521 0.0
C187 C 0.27586 0.55588 0.5606 0.0
C188 C 0.30921 0.55733 0.64848 0.0
C189 C 0.28095 0.48878 0.54914 0.0
C190 C 0.35451 0.42359 0.71435 0.0
C191 C 0.38005 0.4939 0.82043 0.0
C192 C 0.22066 0.29092 0.09951 0.0
C193 C 0.17828 0.35787 0.0739 0.0
H194 H 0.31679 0.17257 0.14778 0.0
C195 C 0.45052 0.46434 0.20758 0.0
C196 C 0.58706 0.39934 0.13223 0.0
C197 C 0.66612 0.55024 0.43647 0.0
C198 C 0.64247 0.57802 0.56299 0.0
C199 C 0.75929 0.51541 0.58696 0.0
C200 C 0.73541 0.51599 0.49633 0.0
C201 C 0.71346 0.54677 0.62004 0.0
C202 C 0.62019 0.58239 0.46957 0.0
C203 C 0.64051 0.54927 0.34173 0.0
H204 H 0.24476 0.60672 0.50144 0.0
H205 H 0.3035 0.60999 0.65571 0.0
H206 H 0.2515 0.48877 0.48146 0.0
H207 H 0.38419 0.37214 0.7743 0.0
H208 H 0.81297 0.48925 0.63246 0.0
H209 H 0.77155 0.49018 0.47312 0.0
H210 H 0.73254 0.54352 0.69193 0.0
H211 H 0.56572 0.60672 0.42484 0.0
loop_
_geom_bond_atom_site_label_1
_geom_bond_atom_site_label_2
_geom_bond_distance
_geom_bond_site_symmetry_2
_ccdc_geom_bond_type
O0 Cd1 2.300 1_556 S
O0 C7 1.275 . S
Cd1 O0 2.300 1_554 S
Cd1 O9 2.381 . S
Cd1 O10 2.378 . S
O2 Cd3 2.385 1_566 S
O2 C7 1.255 . S
Cd3 O2 2.385 1_544 S
Cd3 O4 2.317 1_545 S
O4 Cd3 2.317 1_565 S
O4 C5 1.232 . S
C5 O4 1.232 . S
C5 O6 1.218 1_565 S
O6 C5 1.218 1_545 S
C7 O0 1.275 . S
C7 O2 1.255 . S
C8 O9 1.258 . S
C8 O10 1.256 . S
O9 Cd1 2.381 . S
O9 C8 1.258 . S
O10 Cd1 2.378 . S
O10 C8 1.256 . S
O11 Cd12 2.300 . S
O11 C18 1.275 . S
Cd12 O11 2.300 . S
Cd12 O20 2.381 . S
Cd12 O21 2.378 . S
O13 Cd14 2.385 . S
O13 C18 1.255 . S
Cd14 O13 2.385 . S
Cd14 O15 2.317 . S
O15 Cd14 2.317 . S
O15 C16 1.232 . S
C16 O15 1.232 . S
C16 O17 1.218 . S
O17 C16 1.218 . S
C18 O11 1.275 . S
C18 O13 1.255 . S
C19 O20 1.258 . S
C19 O21 1.256 . S
O20 Cd12 2.381 . S
O20 C19 1.258 . S
O21 Cd12 2.378 . S
O21 C19 1.256 . S
O22 Cd23 2.300 . S
O22 C29 1.275 . S
Cd23 O22 2.300 . S
Cd23 O31 2.381 . S
Cd23 O32 2.378 . S
O24 Cd25 2.385 . S
O24 C29 1.255 . S
Cd25 O24 2.385 . S
Cd25 O26 2.317 . S
O26 Cd25 2.317 . S
O26 C27 1.232 . S
C27 O26 1.232 . S
C27 O28 1.218 . S
O28 C27 1.218 . S
C29 O22 1.275 . S
C29 O24 1.255 . S
C30 O31 1.258 . S
C30 O32 1.256 . S
O31 Cd23 2.381 . S
O31 C30 1.258 . S
O32 Cd23 2.378 . S
O32 C30 1.256 . S
O33 Cd34 2.300 . S
O33 C40 1.275 . S
Cd34 O33 2.300 . S
Cd34 O42 2.381 . S
Cd34 O43 2.378 . S
O35 Cd36 2.385 . S
O35 C40 1.255 . S
Cd36 O35 2.385 . S
Cd36 O37 2.317 . S
O37 Cd36 2.317 . S
O37 C38 1.232 . S
C38 O37 1.232 . S
C38 O39 1.218 . S
O39 C38 1.218 . S
C40 O33 1.275 . S
C40 O35 1.255 . S
C41 O42 1.258 . S
C41 O43 1.256 . S
O42 Cd34 2.381 . S
O42 C41 1.258 . S
O43 Cd34 2.378 . S
O43 C41 1.256 . S
C44 C46 1.422 . S
C44 C48 1.415 . S
C44 N50 1.369 . S
C45 C46 1.421 . S
C45 C47 1.417 . S
C45 C57 1.422 . S
C46 C44 1.422 . S
C46 C45 1.421 . S
C46 N56 1.359 . S
C47 C45 1.417 . S
C47 C49 1.329 . S
C47 H66 0.930 . S
C48 C44 1.415 . S
C48 C49 1.437 . S
C48 C52 1.413 . S
C49 C47 1.329 . S
C49 C48 1.437 . S
C49 H71 0.929 . S
N50 C44 1.369 . S
N50 C51 1.338 1_655 S
N50 Gd55 2.622 . S
C51 N50 1.338 1_455 S
C51 C53 1.378 1_455 S
C51 H63 0.929 . S
C52 C48 1.413 . S
C52 C53 1.348 . S
C52 H68 0.931 . S
C53 C51 1.378 1_655 S
C53 C52 1.348 . S
C53 H69 0.930 1_655 S
Gd54 N74 2.622 . S
Gd54 N81 2.570 . S
Gd54 O88 2.353 1_465 S
Gd54 O89 2.468 . S
Gd54 O90 2.427 . S
Gd54 O92 2.388 1_455 S
Gd54 O93 2.386 . S
Gd54 O97 2.307 1_565 S
Gd54 C107 2.805 . S
Gd55 N50 2.622 . S
Gd55 N56 2.570 . S
Gd55 O87 2.386 . S
Gd55 O91 2.307 1_545 S
Gd55 O94 2.353 1_645 S
Gd55 O95 2.468 . S
Gd55 O96 2.427 . S
Gd55 O98 2.388 1_655 S
Gd55 C119 2.805 . S
N56 C46 1.359 . S
N56 Gd55 2.570 . S
N56 C58 1.343 . S
C57 C45 1.422 . S
C57 C59 1.321 . S
C57 H65 0.931 . S
C58 N56 1.343 . S
C58 C59 1.390 . S
C58 H60 0.931 . S
C59 C57 1.321 . S
C59 C58 1.390 . S
C59 H61 0.930 . S
H60 C58 0.931 . S
H61 C59 0.930 . S
H62 C85 0.931 . S
H63 C51 0.929 . S
H64 C86 0.930 . S
H65 C57 0.931 . S
H66 C47 0.930 . S
H67 C76 0.929 1_655 S
H68 C52 0.931 . S
H69 C53 0.930 1_455 S
H70 C108 0.930 . S
H71 C49 0.929 . S
H72 C77 0.931 . S
H73 C78 0.930 1_655 S
N74 Gd54 2.622 . S
N74 C75 1.369 . S
N74 C76 1.338 . S
C75 N74 1.369 . S
C75 C79 1.415 . S
C75 C82 1.422 . S
C76 H67 0.929 1_455 S
C76 N74 1.338 . S
C76 C78 1.378 . S
C77 H72 0.931 . S
C77 C78 1.348 . S
C77 C79 1.413 . S
C78 H73 0.930 1_455 S
C78 C76 1.378 . S
C78 C77 1.348 . S
C79 C75 1.415 . S
C79 C77 1.413 . S
C79 C109 1.437 . S
H80 C109 0.929 . S
N81 Gd54 2.570 . S
N81 C82 1.359 . S
N81 C85 1.343 . S
C82 C75 1.422 . S
C82 N81 1.359 . S
C82 C84 1.421 . S
C83 C84 1.422 . S
C83 C86 1.321 . S
C83 H110 0.931 . S
C84 C82 1.421 . S
C84 C83 1.422 . S
C84 C108 1.417 . S
C85 H62 0.931 . S
C85 N81 1.343 . S
C85 C86 1.390 . S
C86 H64 0.930 . S
C86 C83 1.321 . S
C86 C85 1.390 . S
O87 Gd55 2.386 . S
O87 C99 1.265 . S
O88 Gd54 2.353 1_645 S
O88 C99 1.242 . S
O89 Gd54 2.468 . S
O89 C107 1.263 . S
O90 Gd54 2.427 . S
O90 C107 1.252 . S
O91 Gd55 2.307 1_565 S
O91 C100 1.261 . S
O92 Gd54 2.388 1_655 S
O92 C100 1.252 . S
O93 Gd54 2.386 . S
O93 C111 1.265 . S
O94 Gd55 2.353 1_465 S
O94 C111 1.242 . S
O95 Gd55 2.468 . S
O95 C119 1.263 . S
O96 Gd55 2.427 . S
O96 C119 1.252 . S
O97 Gd54 2.307 1_545 S
O97 C112 1.261 . S
O98 Gd55 2.388 1_455 S
O98 C112 1.252 . S
C99 O87 1.265 . S
C99 O88 1.242 . S
C100 O91 1.261 . S
C100 O92 1.252 . S
C101 C104 1.394 . S
C101 C106 1.370 . S
C101 C107 1.500 . S
C102 C105 1.383 . S
C102 C106 1.395 . S
C103 C104 1.396 . S
C103 C105 1.365 . S
C103 H120 0.929 . S
C104 C101 1.394 . S
C104 C103 1.396 . S
C104 H121 0.930 . S
C105 C102 1.383 . S
C105 C103 1.365 . S
C105 H122 0.931 . S
C106 C101 1.370 . S
C106 C102 1.395 . S
C106 H123 0.930 . S
C107 Gd54 2.805 . S
C107 O89 1.263 . S
C107 O90 1.252 . S
C107 C101 1.500 . S
C108 H70 0.930 . S
C108 C84 1.417 . S
C108 C109 1.329 . S
C109 C79 1.437 . S
C109 H80 0.929 . S
C109 C108 1.329 . S
H110 C83 0.931 . S
C111 O93 1.265 . S
C111 O94 1.242 . S
C112 O97 1.261 . S
C112 O98 1.252 . S
C113 C116 1.394 . S
C113 C118 1.370 . S
C113 C119 1.500 . S
C114 C117 1.383 . S
C114 C118 1.395 1_554 S
C115 C116 1.396 . S
C115 C117 1.365 1_556 S
C115 H124 0.929 1_556 S
C116 C113 1.394 . S
C116 C115 1.396 . S
C116 H125 0.930 . S
C117 C114 1.383 . S
C117 C115 1.365 1_554 S
C117 H126 0.931 . S
C118 C113 1.370 . S
C118 C114 1.395 1_556 S
C118 H127 0.930 . S
C119 Gd55 2.805 . S
C119 O95 1.263 . S
C119 O96 1.252 . S
C119 C113 1.500 . S
H120 C103 0.929 . S
H121 C104 0.930 . S
H122 C105 0.931 . S
H123 C106 0.930 . S
H124 C115 0.929 1_554 S
H125 C116 0.930 . S
H126 C117 0.931 . S
H127 C118 0.930 . S
C128 C130 1.422 . S
C128 C132 1.415 . S
C128 N134 1.369 . S
C129 C130 1.421 . S
C129 C131 1.417 . S
C129 C141 1.422 . S
C130 C128 1.422 . S
C130 C129 1.421 . S
C130 N140 1.359 . S
C131 C129 1.417 . S
C131 C133 1.329 . S
C131 H150 0.930 . S
C132 C128 1.415 . S
C132 C133 1.437 . S
C132 C136 1.413 . S
C133 C131 1.329 . S
C133 C132 1.437 . S
C133 H155 0.929 . S
N134 C128 1.369 . S
N134 C135 1.338 . S
N134 Gd139 2.622 . S
C135 N134 1.338 . S
C135 C137 1.378 . S
C135 H147 0.929 . S
C136 C132 1.413 . S
C136 C137 1.348 . S
C136 H152 0.931 . S
C137 C135 1.378 . S
C137 C136 1.348 . S
C137 H153 0.930 . S
Gd138 N158 2.622 . S
Gd138 N165 2.570 1_556 S
Gd138 O172 2.353 . S
Gd138 O173 2.468 . S
Gd138 O174 2.427 . S
Gd138 O176 2.388 . S
Gd138 O177 2.386 1_556 S
Gd138 O181 2.307 1_556 S
Gd138 C191 2.805 . S
Gd139 N134 2.622 . S
Gd139 N140 2.570 . S
Gd139 O171 2.386 . S
Gd139 O175 2.307 . S
Gd139 O178 2.353 . S
Gd139 O179 2.468 . S
Gd139 O180 2.427 . S
Gd139 O182 2.388 . S
Gd139 C203 2.805 . S
N140 C130 1.359 . S
N140 Gd139 2.570 . S
N140 C142 1.343 . S
C141 C129 1.422 . S
C141 C143 1.321 . S
C141 H149 0.931 1_554 S
C142 N140 1.343 . S
C142 C143 1.390 . S
C142 H144 0.931 . S
C143 C141 1.321 . S
C143 C142 1.390 . S
C143 H145 0.930 . S
H144 C142 0.931 . S
H145 C143 0.930 . S
H146 C169 0.931 . S
H147 C135 0.929 . S
H148 C170 0.930 . S
H149 C141 0.931 1_556 S
H150 C131 0.930 . S
H151 C160 0.929 . S
H152 C136 0.931 . S
H153 C137 0.930 . S
H154 C192 0.930 . S
H155 C133 0.929 . S
H156 C161 0.931 . S
H157 C162 0.930 . S
N158 Gd138 2.622 . S
N158 C159 1.369 1_556 S
N158 C160 1.338 . S
C159 N158 1.369 1_554 S
C159 C163 1.415 . S
C159 C166 1.422 . S
C160 H151 0.929 . S
C160 N158 1.338 . S
C160 C162 1.378 . S
C161 H156 0.931 . S
C161 C162 1.348 . S
C161 C163 1.413 1_556 S
C162 H157 0.930 . S
C162 C160 1.378 . S
C162 C161 1.348 . S
C163 C159 1.415 . S
C163 C161 1.413 1_554 S
C163 C193 1.437 . S
H164 C193 0.929 . S
N165 Gd138 2.570 1_554 S
N165 C166 1.359 . S
N165 C169 1.343 . S
C166 C159 1.422 . S
C166 N165 1.359 . S
C166 C168 1.421 . S
C167 C168 1.422 . S
C167 C170 1.321 . S
C167 H194 0.931 . S
C168 C166 1.421 . S
C168 C167 1.422 . S
C168 C192 1.417 . S
C169 H146 0.931 . S
C169 N165 1.343 . S
C169 C170 1.390 . S
C170 H148 0.930 . S
C170 C167 1.321 . S
C170 C169 1.390 . S
O171 Gd139 2.386 . S
O171 C183 1.265 1_554 S
O172 Gd138 2.353 . S
O172 C183 1.242 . S
O173 Gd138 2.468 . S
O173 C191 1.263 . S
O174 Gd138 2.427 . S
O174 C191 1.252 . S
O175 Gd139 2.307 . S
O175 C184 1.261 . S
O176 Gd138 2.388 . S
O176 C184 1.252 1_556 S
O177 Gd138 2.386 1_554 S
O177 C195 1.265 . S
O178 Gd139 2.353 . S
O178 C195 1.242 . S
O179 Gd139 2.468 . S
O179 C203 1.263 . S
O180 Gd139 2.427 . S
O180 C203 1.252 . S
O181 Gd138 2.307 1_554 S
O181 C196 1.261 . S
O182 Gd139 2.388 . S
O182 C196 1.252 . S
C183 O171 1.265 1_556 S
C183 O172 1.242 . S
C184 O175 1.261 . S
C184 O176 1.252 1_554 S
C185 C188 1.394 . S
C185 C190 1.370 . S
C185 C191 1.500 . S
C186 C189 1.383 . S
C186 C190 1.395 . S
C187 C188 1.396 . S
C187 C189 1.365 . S
C187 H204 0.929 . S
C188 C185 1.394 . S
C188 C187 1.396 . S
C188 H205 0.930 . S
C189 C186 1.383 . S
C189 C187 1.365 . S
C189 H206 0.931 . S
C190 C185 1.370 . S
C190 C186 1.395 . S
C190 H207 0.930 . S
C191 Gd138 2.805 . S
C191 O173 1.263 . S
C191 O174 1.252 . S
C191 C185 1.500 . S
C192 H154 0.930 . S
C192 C168 1.417 . S
C192 C193 1.329 . S
C193 C163 1.437 . S
C193 H164 0.929 . S
C193 C192 1.329 . S
H194 C167 0.931 . S
C195 O177 1.265 . S
C195 O178 1.242 . S
C196 O181 1.261 . S
C196 O182 1.252 . S
C197 C200 1.394 . S
C197 C202 1.370 . S
C197 C203 1.500 . S
C198 C201 1.383 . S
C198 C202 1.395 . S
C199 C200 1.396 . S
C199 C201 1.365 . S
C199 H208 0.929 . S
C200 C197 1.394 . S
C200 C199 1.396 . S
C200 H209 0.930 . S
C201 C198 1.383 . S
C201 C199 1.365 . S
C201 H210 0.931 . S
C202 C197 1.370 . S
C202 C198 1.395 . S
C202 H211 0.930 . S
C203 Gd139 2.805 . S
C203 O179 1.263 . S
C203 O180 1.252 . S
C203 C197 1.500 . S
H204 C187 0.929 . S
H205 C188 0.930 . S
H206 C189 0.931 . S
H207 C190 0.930 . S
H208 C199 0.929 . S
H209 C200 0.930 . S
H210 C201 0.931 . S
H211 C202 0.930 . S
C112 C41 1.653 . S
C8 C184 1.840 . S
C19 C100 2.216 . S
C30 C196 1.623 . S
C102 C5 1.495 . S
C183 C18 2.155 . S
C29 C99 1.857 . S
C40 C186 1.619 . S
C198 C16 1.095 . S
C114 C27 0.848 . S
C195 C38 1.218 . S
C7 C111 1.774 . S
