# Generated by pormake.
# Topology pts, (4,4)-cn, num edge types: 1
# Building blocks:
#     Node 0, Type 0, BuildingBlock: MUDLON_clean_sbu_0, # of connection points: 4
#     Node 1, Type 0, BuildingBlock: MUDLON_clean_sbu_0, # of connection points: 4
#     Node 2, Type 1, BuildingBlock: AZAVOO_clean_sbu_0, # of connection points: 4
#     Node 3, Type 1, BuildingBlock: AZAVOO_clean_sbu_0, # of connection points: 4
#     Edge 4, Type (0, 1), BuildingBlock: XIVTED_clean_linker_0, # of connection points: 2
#     Edge 5, Type (0, 1), BuildingBlock: XIVTED_clean_linker_0, # of connection points: 2
#     Edge 6, Type (0, 1), BuildingBlock: XIVTED_clean_linker_0, # of connection points: 2
#     Edge 7, Type (0, 1), BuildingBlock: XIVTED_clean_linker_0, # of connection points: 2
#     Edge 8, Type (0, 1), BuildingBlock: XIVTED_clean_linker_0, # of connection points: 2
#     Edge 9, Type (0, 1), BuildingBlock: XIVTED_clean_linker_0, # of connection points: 2
#     Edge 10, Type (0, 1), BuildingBlock: XIVTED_clean_linker_0, # of connection points: 2
#     Edge 11, Type (0, 1), BuildingBlock: XIVTED_clean_linker_0, # of connection points: 2
# Relax obj value: 0.032
# Max RMSD: 0.087
# Mean RMSD: 0.074
data_MOF--net-pts--node1-MUDLON_clean_sbu_0--node2-AZAVOO_clean_sbu_0--edge1-XIVTED_clean_linker_0
_symmetry_space_group_name_H-M    P1
_symmetry_Int_Tables_number       1
_symmetry_cell_setting            triclinic
loop_
_symmetry_equiv_pos_as_xyz
'x, y, z'
_cell_length_a     22.602821
_cell_length_b     23.9251
_cell_length_c     39.358055
_cell_angle_alpha  90.560959
_cell_angle_beta   96.271844
_cell_angle_gamma 90.205659
loop_
_atom_site_label
_atom_site_type_symbol
_atom_site_fract_x
_atom_site_fract_y
_atom_site_fract_z
_atom_type_partial_charge
Mg0 Mg 0.57451 0.03956 0.01852 0.0
C1 C 0.45944 0.02661 0.97618 0.0
O2 O 0.45465 0.07446 0.99226 0.0
C3 C 0.68831 0.98331 0.04736 0.0
O4 O 0.70665 0.00362 0.01943 0.0
C5 C 0.48922 0.04342 0.06655 0.0
O6 O 0.49202 -0.00811 0.05497 0.0
O7 O 0.52326 0.08018 0.05566 0.0
O8 O 0.5076 -0.00094 0.98187 0.0
O9 O 0.63302 0.08726 0.98882 0.0
C10 C 0.6178 0.09659 0.95732 0.0
O11 O 0.5622 0.08798 0.94484 0.0
O12 O 0.63327 0.98612 0.05128 0.0
Mg13 Mg 0.10588 0.49983 0.52484 0.0
C14 C 0.15136 0.55135 0.59458 0.0
O15 O 0.13505 0.50296 0.60589 0.0
C16 C 0.15929 0.44418 0.46396 0.0
O17 O 0.13953 0.48874 0.44733 0.0
C18 C 0.09757 0.58863 0.47715 0.0
O19 O 0.15269 0.587 0.49174 0.0
O20 O 0.0598 0.55453 0.48701 0.0
O21 O 0.15101 0.55815 0.56249 0.0
O22 O 0.05453 0.44384 0.55395 0.0
C23 C 0.08977 0.40712 0.56774 0.0
O24 O 0.14513 0.40712 0.56046 0.0
O25 O 0.1577 0.44222 0.49619 0.0
Mg26 Mg 0.12402 0.98442 0.28957 0.0
O27 O 0.03611 0.9859 0.25436 0.0
O28 O 0.96164 0.97876 0.28696 0.0
Mg29 Mg 1.00129 0.9709 0.34277 0.0
C30 C 0.98062 0.98301 0.2577 0.0
C31 C 0.21887 0.04652 0.24919 0.0
O32 O 0.23805 0.06568 0.27983 0.0
O33 O 0.11175 0.07363 0.30906 0.0
O34 O 0.04303 0.05842 0.34466 0.0
O35 O 0.1254 0.89079 0.28602 0.0
O36 O 0.0835 0.93783 0.3254 0.0
C37 C 0.08016 0.09053 0.33211 0.0
C38 C 0.09493 0.89039 0.31203 0.0
O39 O 0.1736 0.01437 0.24549 0.0
Mg40 Mg 1.00175 0.97602 0.74798 0.0
O41 O 0.091 0.97916 0.78281 0.0
O42 O 0.16463 0.97221 0.74939 0.0
Mg43 Mg 0.12426 0.97134 0.69379 0.0
C44 C 0.14634 0.97585 0.77888 0.0
C45 C 0.90344 0.03099 0.78539 0.0
O46 O 0.8871 0.0428 0.7532 0.0
O47 O 0.01224 0.06709 0.73257 0.0
O48 O 0.08771 0.05946 0.70037 0.0
O49 O 1.00578 0.88169 0.74781 0.0
O50 O 0.04293 0.9352 0.71004 0.0
C51 C 0.04908 0.08847 0.71398 0.0
C52 C 0.03564 0.88603 0.72167 0.0
O53 O 0.95064 0.00273 0.79271 0.0
H54 H 0.49478 0.12325 0.11807 0.0
H55 H 0.19203 0.01163 0.18297 0.0
H56 H 0.38298 -0.00714 0.06905 0.0
H57 H 0.32279 0.1066 0.24806 0.0
H58 H 0.25291 0.02152 0.13601 0.0
H59 H 0.42384 0.13391 0.16112 0.0
C60 C 0.45494 0.09761 0.11609 0.0
C61 C 0.44491 0.05672 0.09029 0.0
C62 C 0.2682 0.04055 0.16049 0.0
C63 C 0.36407 0.06873 0.13886 0.0
C64 C 0.23335 0.03498 0.18736 0.0
C65 C 0.25267 0.05761 0.21971 0.0
C66 C 0.32299 0.06894 0.16582 0.0
C67 C 0.30644 0.08797 0.22364 0.0
C68 C 0.41476 0.10345 0.14067 0.0
C69 C 0.39282 0.02437 0.08882 0.0
N70 N 0.34005 0.09236 0.19708 0.0
N71 N 0.35458 0.03096 0.11276 0.0
H72 H 0.98018 0.36275 0.57888 0.0
H73 H 0.13766 0.16472 0.72271 0.0
H74 H 0.16439 0.37157 0.62102 0.0
H75 H 0.95335 0.14497 0.68322 0.0
H76 H 0.13999 0.25454 0.69431 0.0
H77 H 0.96175 0.29533 0.6237 0.0
C78 C 0.01637 0.35106 0.59776 0.0
C79 C 0.07412 0.37155 0.59584 0.0
C80 C 0.09851 0.23134 0.69222 0.0
C81 C 0.05355 0.29587 0.64699 0.0
C82 C 0.09721 0.18029 0.7087 0.0
C83 C 0.04536 0.14784 0.70514 0.0
C84 C 0.04809 0.24919 0.67102 0.0
C85 C 0.99408 0.16933 0.68659 0.0
C86 C 1.00592 0.31278 0.62329 0.0
C87 C 0.11947 0.35568 0.621 0.0
N88 N 0.99701 0.21831 0.66947 0.0
N89 N 0.10829 0.31866 0.64526 0.0
H90 H 0.80982 0.98054 0.04958 0.0
H91 H 0.85923 0.97115 0.25388 0.0
H92 H 0.66736 0.95903 0.11304 0.0
H93 H 1.00245 0.98838 0.19045 0.0
H94 H 0.78887 0.9628 0.20247 0.0
H95 H 0.88163 0.97675 0.10056 0.0
C96 C 0.79361 0.97413 0.07415 0.0
C97 C 0.73232 0.97058 0.07699 0.0
C98 C 0.83569 0.96836 0.19978 0.0
C99 C 0.81445 0.96711 0.13564 0.0
C100 C 0.87598 0.97344 0.22917 0.0
C101 C 0.93704 0.98073 0.22661 0.0
C102 C 0.85637 0.97067 0.16744 0.0
C103 C 0.95587 0.98303 0.19378 0.0
C104 C 0.83471 0.97229 0.10332 0.0
C105 C 0.7141 0.96219 0.10957 0.0
N106 N 0.91571 0.97809 0.16553 0.0
N107 N 0.75493 0.96132 0.13762 0.0
H108 H 0.13819 0.55392 0.66294 0.0
H109 H 0.08919 0.8838 0.66299 0.0
H110 H 0.16809 0.66146 0.57895 0.0
H111 H 0.04409 0.77727 0.74431 0.0
H112 H 0.1321 0.8042 0.63609 0.0
H113 H 0.11959 0.63631 0.69725 0.0
C114 C 0.14203 0.59487 0.65188 0.0
C115 C 0.15381 0.60066 0.61775 0.0
C116 C 0.11333 0.79811 0.65996 0.0
C117 C 0.13186 0.69511 0.65688 0.0
C118 C 0.0889 0.84374 0.67549 0.0
C119 C 0.06308 0.83736 0.7061 0.0
C120 C 0.11167 0.74522 0.67486 0.0
C121 C 0.06331 0.78405 0.72067 0.0
C122 C 0.13102 0.64189 0.67148 0.0
C123 C 0.15859 0.65485 0.60498 0.0
N124 N 0.08696 0.73989 0.7048 0.0
N125 N 0.14686 0.69988 0.62441 0.0
H126 H 0.34306 0.05566 0.97296 0.0
H127 H 0.2641 0.94763 0.78204 0.0
H128 H 0.46519 0.95804 0.92011 0.0
H129 H 0.13099 0.00387 0.84523 0.0
H130 H 0.33843 0.95125 0.83192 0.0
H131 H 0.26475 0.03646 0.92659 0.0
C132 C 0.35321 0.02968 0.95167 0.0
C133 C 0.41077 0.00868 0.95023 0.0
C134 C 0.29289 0.96239 0.83493 0.0
C135 C 0.32141 0.98715 0.89675 0.0
C136 C 0.25039 0.96068 0.80641 0.0
C137 C 0.19116 0.97596 0.80934 0.0
C138 C 0.27636 0.98016 0.86661 0.0
C139 C 0.17607 -0.00809 0.8417 0.0
C140 C 0.30842 0.01865 0.92523 0.0
C141 C 0.42136 0.97494 0.92221 0.0
N142 N 0.21851 -0.00589 0.86898 0.0
N143 N 0.37724 0.96583 0.89628 0.0
H144 H 0.17373 0.43201 0.39597 0.0
H145 H 0.04097 0.12885 0.391 0.0
H146 H 0.15675 0.33696 0.48713 0.0
H147 H 0.14951 0.1775 0.3123 0.0
H148 H 0.07165 0.21326 0.42292 0.0
H149 H 0.15928 0.3455 0.36191 0.0
C150 C 0.16832 0.39286 0.40891 0.0
C151 C 0.16579 0.39182 0.44444 0.0
C152 C 0.08875 0.2055 0.39865 0.0
C153 C 0.14768 0.29368 0.4056 0.0
C154 C 0.07072 0.15756 0.38011 0.0
C155 C 0.09275 0.14577 0.34881 0.0
C156 C 0.12837 0.24283 0.38574 0.0
C157 C 0.13145 0.18486 0.33631 0.0
C158 C 0.15993 0.3437 0.38943 0.0
C159 C 0.15878 0.33994 0.45985 0.0
N160 N 0.14791 0.23199 0.35478 0.0
N161 N 0.14874 0.29317 0.44026 0.0
H162 H 0.60168 0.12248 0.88942 0.0
H163 H 0.92494 0.01834 0.85512 0.0
H164 H 0.73888 0.08298 0.97057 0.0
H165 H 0.79658 0.085 0.77683 0.0
H166 H 0.85957 0.0452 0.89822 0.0
H167 H 0.67472 0.11445 0.84834 0.0
C168 C 0.6474 0.11302 0.89871 0.0
C169 C 0.66392 0.10288 0.93351 0.0
C170 C 0.84597 0.05432 0.87163 0.0
C171 C 0.74781 0.09246 0.88639 0.0
C172 C 0.8832 0.03882 0.84699 0.0
C173 C 0.86608 0.04901 0.81223 0.0
C174 C 0.79102 0.07983 0.86143 0.0
C175 C 0.81158 0.07598 0.80326 0.0
C176 C 0.68913 0.10822 0.87518 0.0
C177 C 0.72397 0.09092 0.944 0.0
N178 N 0.77591 0.09001 0.82762 0.0
N179 N 0.76352 0.08523 0.92049 0.0
H180 H 0.1687 0.6032 0.42732 0.0
H181 H 0.01431 0.8752 0.35848 0.0
H182 H 0.99763 0.65057 0.45696 0.0
H183 H 0.13791 0.78549 0.30221 0.0
H184 H 1.00198 0.79209 0.39227 0.0
H185 H 0.15456 0.66722 0.37946 0.0
C186 C 0.12776 0.62687 0.42345 0.0
C187 C 0.0845 0.62231 0.44621 0.0
C188 C 0.03078 0.7902 0.37203 0.0
C189 C 0.06839 0.6964 0.39178 0.0
C190 C 0.03806 0.8378 0.35273 0.0
C191 C 0.078 0.83769 0.32778 0.0
C192 C 0.06467 0.74254 0.36686 0.0
C193 C 0.10706 0.78763 0.32137 0.0
C194 C 0.11954 0.66313 0.396 0.0
C195 C 0.03203 0.65326 0.43994 0.0
N196 N 0.10079 0.74239 0.3413 0.0
N197 N 0.02591 0.69012 0.41361 0.0
loop_
_geom_bond_atom_site_label_1
_geom_bond_atom_site_label_2
_geom_bond_distance
_geom_bond_site_symmetry_2
_ccdc_geom_bond_type
Mg0 O7 2.141 . S
Mg0 O8 2.048 1_554 S
Mg0 O9 2.048 1_554 S
Mg0 O12 2.141 . S
C1 O2 1.313 1_545 S
C1 O8 1.195 . S
O2 C1 1.313 1_565 S
C3 O4 1.245 1_545 S
C3 O12 1.289 . S
O4 C3 1.245 1_565 S
C5 O6 1.245 1_545 S
C5 O7 1.289 . S
O6 C5 1.245 1_565 S
O7 Mg0 2.141 . S
O7 C5 1.289 . S
O8 Mg0 2.048 1_556 S
O8 C1 1.195 . S
O9 Mg0 2.048 1_556 S
O9 C10 1.195 . S
C10 O9 1.195 . S
C10 O11 1.313 1_545 S
O11 C10 1.313 1_565 S
O12 Mg0 2.141 . S
O12 C3 1.289 . S
Mg13 O20 2.141 . S
Mg13 O21 2.048 . S
Mg13 O22 2.048 . S
Mg13 O25 2.141 . S
C14 O15 1.313 . S
C14 O21 1.195 . S
O15 C14 1.313 . S
C16 O17 1.245 . S
C16 O25 1.289 . S
O17 C16 1.245 . S
C18 O19 1.245 . S
C18 O20 1.289 . S
O19 C18 1.245 . S
O20 Mg13 2.141 . S
O20 C18 1.289 . S
O21 Mg13 2.048 . S
O21 C14 1.195 . S
O22 Mg13 2.048 . S
O22 C23 1.195 . S
C23 O22 1.195 . S
C23 O24 1.313 . S
O24 C23 1.313 . S
O25 Mg13 2.141 . S
O25 C16 1.289 . S
Mg26 O27 2.028 . S
Mg26 O33 1.986 . S
Mg26 O35 2.114 1_545 S
Mg26 O36 2.251 1_545 S
Mg26 O39 2.010 . S
O27 Mg26 2.028 . S
O27 C30 1.250 . S
O28 Mg29 2.028 . S
O28 C30 1.248 1_655 S
Mg29 O28 2.028 . S
Mg29 O34 2.032 1_655 S
Mg29 O36 2.079 1_645 S
C30 O27 1.250 . S
C30 O28 1.248 1_455 S
C31 O32 1.264 . S
C31 O39 1.249 . S
O32 C31 1.264 . S
O33 Mg26 1.986 . S
O33 C37 1.246 . S
O34 Mg29 2.032 1_455 S
O34 C37 1.259 . S
O35 Mg26 2.114 1_565 S
O35 C38 1.252 . S
O36 Mg26 2.251 1_565 S
O36 Mg29 2.079 1_465 S
O36 C38 1.273 . S
C37 O33 1.246 . S
C37 O34 1.259 . S
C38 O35 1.252 . S
C38 O36 1.273 . S
O39 Mg26 2.010 . S
O39 C31 1.249 . S
Mg40 O41 2.028 . S
Mg40 O47 1.986 . S
Mg40 O49 2.114 1_545 S
Mg40 O50 2.251 1_545 S
Mg40 O53 2.010 1_455 S
O41 Mg40 2.028 . S
O41 C44 1.250 . S
O42 Mg43 2.028 . S
O42 C44 1.248 . S
Mg43 O42 2.028 . S
Mg43 O48 2.032 . S
Mg43 O50 2.079 1_545 S
C44 O41 1.250 . S
C44 O42 1.248 . S
C45 O46 1.264 . S
C45 O53 1.249 . S
O46 C45 1.264 . S
O47 Mg40 1.986 . S
O47 C51 1.246 . S
O48 Mg43 2.032 . S
O48 C51 1.259 . S
O49 Mg40 2.114 1_565 S
O49 C52 1.252 . S
O50 Mg40 2.251 1_565 S
O50 Mg43 2.079 1_565 S
O50 C52 1.273 . S
C51 O47 1.246 . S
C51 O48 1.259 . S
C52 O49 1.252 . S
C52 O50 1.273 . S
O53 Mg40 2.010 1_655 S
O53 C45 1.249 . S
H54 C60 0.930 . S
H55 C64 0.930 . S
H56 C69 0.929 . S
H57 C67 0.929 . S
H58 C62 0.929 . S
H59 C68 0.929 . S
C60 H54 0.930 . S
C60 C61 1.367 . S
C60 C68 1.378 . S
C61 C60 1.367 . S
C61 C69 1.433 1_545 S
C62 H58 0.929 . S
C62 C64 1.378 . S
C62 C66 1.350 1_565 S
C63 C66 1.463 . S
C63 C68 1.350 . S
C63 N71 1.427 1_545 S
C64 H55 0.930 . S
C64 C62 1.378 . S
C64 C65 1.367 1_565 S
C65 C64 1.367 1_545 S
C65 C67 1.433 . S
C66 C62 1.350 1_545 S
C66 C63 1.463 . S
C66 N70 1.427 . S
C67 H57 0.929 . S
C67 C65 1.433 . S
C67 N70 1.384 . S
C68 H59 0.929 . S
C68 C60 1.378 . S
C68 C63 1.350 . S
C69 H56 0.929 . S
C69 C61 1.433 1_565 S
C69 N71 1.384 . S
N70 C66 1.427 . S
N70 C67 1.384 . S
N71 C63 1.427 1_565 S
N71 C69 1.384 . S
H72 C78 0.930 1_655 S
H73 C82 0.930 . S
H74 C87 0.929 . S
H75 C85 0.929 . S
H76 C80 0.929 . S
H77 C86 0.929 1_655 S
C78 H72 0.930 1_455 S
C78 C79 1.367 . S
C78 C86 1.378 . S
C79 C78 1.367 . S
C79 C87 1.433 . S
C80 H76 0.929 . S
C80 C82 1.378 . S
C80 C84 1.350 . S
C81 C84 1.463 . S
C81 C86 1.350 . S
C81 N89 1.427 . S
C82 H73 0.930 . S
C82 C80 1.378 . S
C82 C83 1.367 . S
C83 C82 1.367 . S
C83 C85 1.433 1_455 S
C84 C80 1.350 . S
C84 C81 1.463 . S
C84 N88 1.427 1_455 S
C85 H75 0.929 . S
C85 C83 1.433 1_655 S
C85 N88 1.384 . S
C86 H77 0.929 1_455 S
C86 C78 1.378 . S
C86 C81 1.350 . S
C87 H74 0.929 . S
C87 C79 1.433 . S
C87 N89 1.384 . S
N88 C84 1.427 1_655 S
N88 C85 1.384 . S
N89 C81 1.427 . S
N89 C87 1.384 . S
H90 C96 0.930 . S
H91 C100 0.930 . S
H92 C105 0.929 . S
H93 C103 0.922 1_455 S
H94 C98 0.929 . S
H95 C104 0.929 . S
C96 H90 0.930 . S
C96 C97 1.367 1_565 S
C96 C104 1.378 . S
C97 C96 1.367 1_545 S
C97 C105 1.433 . S
C98 H94 0.929 . S
C98 C100 1.378 . S
C98 C102 1.350 . S
C99 C102 1.463 . S
C99 C104 1.350 1_545 S
C99 N107 1.427 . S
C100 H91 0.930 . S
C100 C98 1.378 . S
C100 C101 1.367 . S
C101 C100 1.367 . S
C101 C103 1.433 1_545 S
C102 C98 1.350 . S
C102 C99 1.463 . S
C102 N106 1.427 1_545 S
C103 H93 0.922 1_655 S
C103 C101 1.433 1_565 S
C103 N106 1.384 . S
C104 H95 0.929 . S
C104 C96 1.378 . S
C104 C99 1.350 1_565 S
C105 H92 0.929 . S
C105 C97 1.433 . S
C105 N107 1.384 . S
N106 C102 1.427 1_565 S
N106 C103 1.384 . S
N107 C99 1.427 . S
N107 C105 1.384 . S
H108 C114 0.930 . S
H109 C118 0.930 1_655 S
H110 C123 0.929 1_655 S
H111 C121 0.929 . S
H112 C116 0.929 1_655 S
H113 C122 0.929 . S
C114 H108 0.930 . S
C114 C115 1.367 . S
C114 C122 1.378 . S
C115 C114 1.367 . S
C115 C123 1.433 . S
C116 H112 0.929 1_455 S
C116 C118 1.378 . S
C116 C120 1.350 . S
C117 C120 1.463 . S
C117 C122 1.350 . S
C117 N125 1.427 . S
C118 H109 0.930 1_455 S
C118 C116 1.378 . S
C118 C119 1.367 . S
C119 C118 1.367 . S
C119 C121 1.433 . S
C120 C116 1.350 . S
C120 C117 1.463 . S
C120 N124 1.427 . S
C121 H111 0.929 . S
C121 C119 1.433 . S
C121 N124 1.384 . S
C122 H113 0.929 . S
C122 C114 1.378 . S
C122 C117 1.350 . S
C123 H110 0.929 1_455 S
C123 C115 1.433 . S
C123 N125 1.384 . S
N124 C120 1.427 . S
N124 C121 1.384 . S
N125 C117 1.427 . S
N125 C123 1.384 . S
H126 C132 0.930 . S
H127 C136 0.930 . S
H128 C141 0.929 . S
H129 C139 0.929 . S
H130 C134 0.929 . S
H131 C140 0.929 . S
C132 H126 0.930 . S
C132 C133 1.367 1_565 S
C132 C140 1.378 . S
C133 C132 1.367 1_545 S
C133 C141 1.433 . S
C134 H130 0.929 . S
C134 C136 1.378 . S
C134 C138 1.350 . S
C135 C138 1.463 . S
C135 C140 1.350 1_545 S
C135 N143 1.427 . S
C136 H127 0.930 . S
C136 C134 1.378 . S
C136 C137 1.367 . S
C137 C136 1.367 . S
C137 C139 1.433 1_545 S
C138 C134 1.350 . S
C138 C135 1.463 . S
C138 N142 1.427 1_545 S
C139 H129 0.929 . S
C139 C137 1.433 1_565 S
C139 N142 1.384 . S
C140 H131 0.929 . S
C140 C132 1.378 . S
C140 C135 1.350 1_565 S
C141 H128 0.929 . S
C141 C133 1.433 . S
C141 N143 1.384 . S
N142 C138 1.427 1_565 S
N142 C139 1.384 . S
N143 C135 1.427 . S
N143 C141 1.384 . S
H144 C150 0.930 . S
H145 C154 0.930 . S
H146 C159 0.929 . S
H147 C157 0.929 . S
H148 C152 0.929 . S
H149 C158 0.929 . S
C150 H144 0.930 . S
C150 C151 1.367 . S
C150 C158 1.378 . S
C151 C150 1.367 . S
C151 C159 1.433 . S
C152 H148 0.929 . S
C152 C154 1.378 . S
C152 C156 1.350 . S
C153 C156 1.463 . S
C153 C158 1.350 . S
C153 N161 1.427 . S
C154 H145 0.930 . S
C154 C152 1.378 . S
C154 C155 1.367 . S
C155 C154 1.367 . S
C155 C157 1.433 . S
C156 C152 1.350 . S
C156 C153 1.463 . S
C156 N160 1.427 . S
C157 H147 0.929 . S
C157 C155 1.433 . S
C157 N160 1.384 . S
C158 H149 0.929 . S
C158 C150 1.378 . S
C158 C153 1.350 . S
C159 H146 0.929 . S
C159 C151 1.433 . S
C159 N161 1.384 . S
N160 C156 1.427 . S
N160 C157 1.384 . S
N161 C153 1.427 . S
N161 C159 1.384 . S
H162 C168 0.930 . S
H163 C172 0.930 . S
H164 C177 0.929 . S
H165 C175 0.929 . S
H166 C170 0.929 . S
H167 C176 0.929 . S
C168 H162 0.930 . S
C168 C169 1.367 1_565 S
C168 C176 1.378 . S
C169 C168 1.367 1_545 S
C169 C177 1.433 . S
C170 H166 0.929 . S
C170 C172 1.378 . S
C170 C174 1.350 . S
C171 C174 1.463 . S
C171 C176 1.350 1_545 S
C171 N179 1.427 . S
C172 H163 0.930 . S
C172 C170 1.378 . S
C172 C173 1.367 . S
C173 C172 1.367 . S
C173 C175 1.433 1_545 S
C174 C170 1.350 . S
C174 C171 1.463 . S
C174 N178 1.427 1_545 S
C175 H165 0.929 . S
C175 C173 1.433 1_565 S
C175 N178 1.384 . S
C176 H167 0.929 . S
C176 C168 1.378 . S
C176 C171 1.350 1_565 S
C177 H164 0.929 . S
C177 C169 1.433 . S
C177 N179 1.384 . S
N178 C174 1.427 1_565 S
N178 C175 1.384 . S
N179 C171 1.427 . S
N179 C177 1.384 . S
H180 C186 0.930 . S
H181 C190 0.930 . S
H182 C195 0.929 1_655 S
H183 C193 0.929 . S
H184 C188 0.924 1_655 S
H185 C194 0.929 . S
C186 H180 0.930 . S
C186 C187 1.367 . S
C186 C194 1.378 . S
C187 C186 1.367 . S
C187 C195 1.433 . S
C188 H184 0.924 1_455 S
C188 C190 1.378 . S
C188 C192 1.350 . S
C189 C192 1.463 . S
C189 C194 1.350 . S
C189 N197 1.427 . S
C190 H181 0.930 . S
C190 C188 1.378 . S
C190 C191 1.367 . S
C191 C190 1.367 . S
C191 C193 1.433 . S
C192 C188 1.350 . S
C192 C189 1.463 . S
C192 N196 1.427 . S
C193 H183 0.929 . S
C193 C191 1.433 . S
C193 N196 1.384 . S
C194 H185 0.929 . S
C194 C186 1.378 . S
C194 C189 1.350 . S
C195 H182 0.929 1_455 S
C195 C187 1.433 . S
C195 N197 1.384 . S
N196 C192 1.427 . S
N196 C193 1.384 . S
N197 C189 1.427 . S
N197 C195 1.384 . S
C65 C31 1.237 . S
C61 C5 1.405 . S
C83 C51 1.437 . S
C79 C23 1.475 . S
C101 C30 1.399 1_655 S
C97 C3 1.420 . S
C119 C52 1.496 . S
C115 C14 1.491 . S
C137 C44 1.467 . S
C133 C1 1.492 . S
C155 C37 1.370 . S
C151 C16 1.399 . S
C173 C45 1.278 . S
C169 C10 1.468 . S
C187 C18 1.418 . S
C191 C38 1.430 . S
