# Generated by pormake.
# Topology scu, (8,4)-cn, num edge types: 1
# Building blocks:
#     Node 0, Type 0, BuildingBlock: GIZVER_clean_sbu_0, # of connection points: 8
#     Node 1, Type 1, BuildingBlock: KOZSID_clean_sbu_0, # of connection points: 4
#     Node 2, Type 1, BuildingBlock: KOZSID_clean_sbu_0, # of connection points: 4
#     Edge 3, Type (0, 1), BuildingBlock: AJUNOK_clean_linker_0, # of connection points: 2
#     Edge 4, Type (0, 1), BuildingBlock: AJUNOK_clean_linker_0, # of connection points: 2
#     Edge 5, Type (0, 1), BuildingBlock: AJUNOK_clean_linker_0, # of connection points: 2
#     Edge 6, Type (0, 1), BuildingBlock: AJUNOK_clean_linker_0, # of connection points: 2
#     Edge 7, Type (0, 1), BuildingBlock: AJUNOK_clean_linker_0, # of connection points: 2
#     Edge 8, Type (0, 1), BuildingBlock: AJUNOK_clean_linker_0, # of connection points: 2
#     Edge 9, Type (0, 1), BuildingBlock: AJUNOK_clean_linker_0, # of connection points: 2
#     Edge 10, Type (0, 1), BuildingBlock: AJUNOK_clean_linker_0, # of connection points: 2
# Relax obj value: 0.045
# Max RMSD: 0.111
# Mean RMSD: 0.103
data_MOF--net-scu--node1-GIZVER_clean_sbu_0--node2-KOZSID_clean_sbu_0--edge1-AJUNOK_clean_linker_0
_symmetry_space_group_name_H-M    P1
_symmetry_Int_Tables_number       1
_symmetry_cell_setting            triclinic
loop_
_symmetry_equiv_pos_as_xyz
'x, y, z'
_cell_length_a     20.689148
_cell_length_b     21.255035
_cell_length_c     18.521534
_cell_angle_alpha  96.54841
_cell_angle_beta   75.110232
_cell_angle_gamma 112.12596
loop_
_atom_site_label
_atom_site_type_symbol
_atom_site_fract_x
_atom_site_fract_y
_atom_site_fract_z
_atom_type_partial_charge
Co0 Co 0.01311 0.92917 0.17361 0.0
Co1 Co 0.12927 0.02462 0.10899 0.0
Co2 Co 0.01153 0.01732 0.02713 0.0
O3 O 0.05261 0.96523 0.07385 0.0
H4 H 0.06868 0.93386 0.03889 0.0
O5 O 0.97033 0.06926 0.98045 0.0
Co6 Co 1.00803 0.10494 0.88052 0.0
Co7 Co 0.89635 1.00858 0.94333 0.0
H8 H 0.95326 0.09989 1.01577 0.0
O9 O 0.20016 0.99717 0.11763 0.0
O10 O 0.1002 0.99418 0.20579 0.0
O11 O 0.14362 0.11924 0.11662 0.0
O12 O 0.03732 0.10097 0.09507 0.0
O13 O 0.1045 0.05294 0.95113 0.0
O14 O 0.04035 0.14351 0.79121 0.0
O15 O 0.97165 0.17319 0.89354 0.0
O16 O 0.05686 0.0414 0.85286 0.0
O17 O 0.98648 0.93338 0.96015 0.0
O18 O 0.88331 0.91389 0.93143 0.0
O19 O 0.91775 0.04179 0.84941 0.0
O20 O 0.82227 0.03271 0.94742 0.0
C21 C 0.01632 0.85157 0.23085 0.0
C22 C 0.91202 0.98863 0.17274 0.0
C23 C 0.09116 0.13775 0.12184 0.0
C24 C 0.16342 0.98896 0.18653 0.0
C25 C 1.00597 0.18317 0.82324 0.0
C26 C 0.10865 0.04414 0.88065 0.0
C27 C 0.93473 0.89545 0.93126 0.0
C28 C 0.85221 0.04142 0.87661 0.0
O29 O 0.98043 0.89006 0.26283 0.0
O30 O 0.05119 0.86232 0.16085 0.0
O31 O 0.91777 0.98129 0.10209 0.0
O32 O 0.96334 0.99156 0.20109 0.0
C33 C 0.08535 0.637 0.41734 0.0
C34 C 0.15224 0.68501 0.38803 0.0
C35 C 0.20037 0.67287 0.41751 0.0
C36 C 0.16044 0.61843 0.46308 0.0
N37 N 0.08955 0.59479 0.46454 0.0
Co38 Co 0.0124 0.51716 0.52553 0.0
N39 N 0.08286 0.50184 0.57203 0.0
C40 C 0.15384 0.53892 0.5608 0.0
C41 C 0.18869 0.51724 0.60066 0.0
C42 C 0.13702 0.46285 0.63958 0.0
C43 C 0.07333 0.45413 0.6209 0.0
N44 N 0.93556 0.43857 0.58526 0.0
C45 C 0.93993 0.39584 0.63175 0.0
C46 C 0.87354 0.34608 0.65863 0.0
C47 C 0.82554 0.35765 0.62841 0.0
C48 C 0.86512 0.41337 0.58465 0.0
N49 N 0.94173 0.53335 0.48021 0.0
C50 C 0.87025 0.4981 0.49385 0.0
C51 C 0.83496 0.52123 0.45602 0.0
C52 C 0.88682 0.57498 0.41627 0.0
C53 C 0.95109 0.58179 0.43235 0.0
N54 N 0.029 0.45267 0.44223 0.0
C55 C 0.05299 0.35625 0.33045 0.0
C56 C 0.98378 0.35587 0.36197 0.0
C57 C 0.9731 0.40424 0.41714 0.0
C58 C 0.11008 0.40748 0.35371 0.0
C59 C 0.09701 0.45439 0.40931 0.0
N60 N 0.99588 0.58168 0.60893 0.0
C61 C 0.91545 0.61977 0.70767 0.0
C62 C 0.97266 0.67567 0.72461 0.0
C63 C 0.04164 0.6835 0.6823 0.0
C64 C 0.052 0.636 0.6262 0.0
C65 C 0.92807 0.57408 0.64997 0.0
H66 H 0.10602 0.64497 0.59708 0.0
H67 H 0.88199 0.53327 0.63935 0.0
H68 H 0.91905 0.4008 0.43935 0.0
H69 H 0.14288 0.49114 0.42525 0.0
C70 C 0.18693 0.59148 0.50942 0.0
C71 C 0.01921 0.6356 0.4011 0.0
C72 C 1.00566 0.39906 0.65046 0.0
C73 C 0.83789 0.4432 0.54211 0.0
H74 H 0.16485 0.72557 0.35042 0.0
H75 H 0.25742 0.7015 0.40838 0.0
H76 H 0.2452 0.53789 0.60052 0.0
H77 H 0.14537 0.43254 0.67697 0.0
H78 H 0.86111 0.30513 0.69567 0.0
H79 H 0.76866 0.32847 0.63676 0.0
H80 H 0.7782 0.50147 0.45737 0.0
H81 H 0.87827 0.60595 0.37978 0.0
H82 H 0.93776 0.31733 0.34561 0.0
H83 H 0.16492 0.41122 0.32949 0.0
H84 H 0.86089 0.6112 0.73869 0.0
H85 H 0.08779 0.72696 0.69106 0.0
C86 C 0.37503 0.95565 0.65396 0.0
C87 C 0.32555 0.89467 0.68504 0.0
C88 C 0.34754 0.84451 0.64751 0.0
C89 C 0.4087 0.87742 0.59553 0.0
N90 N 0.42802 0.94582 0.59833 0.0
Co91 Co 0.50873 1.0123 0.52689 0.0
N92 N 0.5383 0.93794 0.46857 0.0
C93 C 0.50774 0.87071 0.48283 0.0
C94 C 0.54185 0.83231 0.43582 0.0
C95 C 0.59853 0.8778 0.3896 0.0
C96 C 0.59571 0.9416 0.41124 0.0
N97 N 0.58768 0.07849 0.45404 0.0
C98 C 0.63936 0.06867 0.39676 0.0
C99 C 0.68518 0.12913 0.36179 0.0
C100 C 0.66217 0.17897 0.39863 0.0
C101 C 0.60384 0.14636 0.45381 0.0
N102 N 0.48079 0.08682 0.5868 0.0
C103 C 0.51426 0.15434 0.57531 0.0
C104 C 0.48273 0.19322 0.62498 0.0
C105 C 0.42509 0.14783 0.67038 0.0
C106 C 0.42452 0.08358 0.64536 0.0
N107 N 0.57665 0.02226 0.58979 0.0
C108 C 0.6742 0.03425 0.67651 0.0
C109 C 0.67783 0.09086 0.64216 0.0
C110 C 0.62854 0.08383 0.59954 0.0
C111 C 0.62228 0.9715 0.66566 0.0
C112 C 0.57436 0.96671 0.62269 0.0
N113 N 0.44068 1.00224 0.4641 0.0
C114 C 0.37755 0.05128 0.40797 0.0
C115 C 0.33606 0.98711 0.3854 0.0
C116 C 0.34863 0.93078 0.40115 0.0
C117 C 0.40058 0.93938 0.44056 0.0
C118 C 0.42965 0.05771 0.44639 0.0
H119 H 0.40689 0.89429 0.45153 0.0
H120 H 0.4602 0.10807 0.46127 0.0
H121 H 0.63329 0.12899 0.57549 0.0
H122 H 0.53581 0.9175 0.61713 0.0
C123 C 0.44764 0.84542 0.5416 0.0
C124 C 0.36748 0.02118 0.67681 0.0
C125 C 0.64988 1.00411 0.37673 0.0
C126 C 0.56946 0.17891 0.51203 0.0
H127 H 0.27752 0.88699 0.72907 0.0
H128 H 0.32096 0.79032 0.65572 0.0
H129 H 0.52787 0.77785 0.43598 0.0
H130 H 0.63814 0.86558 0.34561 0.0
H131 H 0.73193 0.13683 0.31606 0.0
H132 H 0.68715 0.233 0.38869 0.0
H133 H 0.49803 0.24789 0.62606 0.0
H134 H 0.38656 0.16045 0.71542 0.0
H135 H 0.71713 0.14053 0.64983 0.0
H136 H 0.61809 0.92626 0.69115 0.0
H137 H 0.37081 0.09647 0.39474 0.0
H138 H 0.31815 0.88021 0.38351 0.0
C139 C 0.04152 0.23083 0.16462 0.0
C140 C 0.08653 0.19702 0.17144 0.0
C141 C 0.03144 0.28268 0.21553 0.0
C142 C 0.06549 0.30239 0.27566 0.0
H143 H 0.01341 0.21681 0.1199 0.0
H144 H 0.99663 0.30747 0.20778 0.0
S145 S 0.18269 0.22521 0.32341 0.0
N146 N 0.16232 0.18487 0.24608 0.0
N147 N 0.14204 0.28069 0.34189 0.0
C148 C 0.10981 0.26838 0.28368 0.0
C149 C 0.12066 0.21621 0.23163 0.0
C150 C 0.83356 0.99002 0.30132 0.0
C151 C 0.84509 0.99425 0.2232 0.0
C152 C 0.77065 0.99358 0.35036 0.0
C153 C 0.71692 1.00201 0.32345 0.0
H154 H 0.87308 0.9831 0.32505 0.0
H155 H 0.76381 0.98952 0.40985 0.0
S156 S 0.71958 0.01728 0.1255 0.0
N157 N 0.79629 1.00843 0.12212 0.0
N158 N 0.67849 0.01494 0.21484 0.0
C159 C 0.72741 1.00679 0.2461 0.0
C160 C 0.79132 1.00299 0.1959 0.0
C161 C 0.04823 0.74902 0.23968 0.0
C162 C 0.01839 0.79758 0.27497 0.0
C163 C 0.04881 0.69705 0.28043 0.0
C164 C 0.02003 0.69184 0.35811 0.0
H165 H 0.07065 0.7506 0.17997 0.0
H166 H 0.07152 0.66039 0.25095 0.0
S167 S 0.9392 0.80707 0.47878 0.0
N168 N 0.96146 0.83735 0.39402 0.0
N169 N 0.96337 0.74035 0.4692 0.0
C170 C 0.99127 0.74034 0.39427 0.0
C171 C 0.99031 0.79297 0.35316 0.0
C172 C 0.24969 0.9491 0.22117 0.0
C173 C 0.19749 0.97928 0.2431 0.0
C174 C 0.29185 0.94889 0.26919 0.0
C175 C 0.28401 0.97974 0.34043 0.0
H176 H 0.25965 0.9273 0.1655 0.0
H177 H 0.33322 0.92732 0.24907 0.0
S178 S 0.15025 0.05934 0.42776 0.0
N179 N 0.13604 0.03555 0.34336 0.0
N180 N 0.21651 0.03609 0.4334 0.0
C181 C 0.22967 1.00703 0.36465 0.0
C182 C 0.18586 1.00634 0.31608 0.0
C183 C 0.89349 0.80166 0.8388 0.0
C184 C 0.94047 0.83396 0.88629 0.0
C185 C 0.90326 0.74965 0.78837 0.0
C186 C 0.9602 0.72713 0.78327 0.0
H187 H 0.85012 0.81827 0.83834 0.0
H188 H 0.86725 0.7287 0.75113 0.0
S189 S 0.09394 0.78919 0.90065 0.0
N190 N 0.04358 0.83592 0.92815 0.0
N191 N 0.0605 0.73709 0.83515 0.0
C192 C 1.00567 0.7567 0.83277 0.0
C193 C 0.9961 0.81013 0.88379 0.0
C194 C 0.1888 0.04592 0.75246 0.0
C195 C 0.1742 0.03607 0.82993 0.0
C196 C 0.25102 0.04065 0.70351 0.0
C197 C 0.30081 0.02467 0.72985 0.0
H198 H 0.15243 0.05889 0.72937 0.0
H199 H 0.26049 0.04939 0.64455 0.0
S200 S 0.28772 0.9911 0.92596 0.0
N201 N 0.2149 1.00741 0.92969 0.0
N202 N 0.33153 0.99785 0.83733 0.0
C203 C 0.28687 1.01385 0.80657 0.0
C204 C 0.2237 0.01943 0.85664 0.0
C205 C 0.97434 0.28573 0.81297 0.0
C206 C 1.00514 0.23759 0.77863 0.0
C207 C 0.97442 0.33767 0.77161 0.0
C208 C 1.00501 0.34338 0.69424 0.0
H209 H 0.9504 0.2837 0.87238 0.0
H210 H 0.95061 0.37381 0.80034 0.0
S211 S 0.08969 0.22983 0.57586 0.0
N212 N 0.06548 0.1991 0.66064 0.0
N213 N 0.06483 0.29606 0.58447 0.0
C214 C 0.03505 0.29551 0.65903 0.0
C215 C 0.03527 0.24285 0.70072 0.0
C216 C 0.8384 0.06638 0.75269 0.0
C217 C 0.80734 0.0435 0.82656 0.0
C218 C 0.79539 0.06544 0.70447 0.0
C219 C 0.7201 0.0406 0.72836 0.0
H220 H 0.8961 0.08469 0.73185 0.0
H221 H 0.82096 0.08249 0.64769 0.0
S222 S 0.61189 0.97772 0.91629 0.0
N223 N 0.69573 0.99731 0.92122 0.0
N224 N 0.61641 0.99593 0.83053 0.0
C225 C 0.6886 0.01915 0.80213 0.0
C226 C 0.73182 0.02048 0.85124 0.0
loop_
_geom_bond_atom_site_label_1
_geom_bond_atom_site_label_2
_geom_bond_distance
_geom_bond_site_symmetry_2
_ccdc_geom_bond_type
Co0 O3 2.042 1_655 S
Co0 O10 2.264 1_655 S
Co0 O29 2.286 . S
Co0 O30 2.069 1_655 S
Co0 O32 2.015 . S
Co1 O3 2.122 1_545 S
Co1 O9 2.073 . S
Co1 O10 2.327 1_545 S
Co1 O11 1.976 . S
Co2 O3 2.096 1_545 S
Co2 O5 2.078 1_454 S
Co2 O12 2.120 . S
Co2 O13 2.145 1_554 S
Co2 O17 2.103 1_444 S
Co2 O31 2.142 1_445 S
O3 Co0 2.042 1_455 S
O3 Co1 2.122 1_565 S
O3 Co2 2.096 1_565 S
O3 H4 0.980 . S
H4 O3 0.980 . S
O5 Co2 2.078 1_656 S
O5 Co6 2.042 1_655 S
O5 Co7 2.122 1_545 S
O5 H8 0.980 . S
Co6 O5 2.042 1_455 S
Co6 O14 2.286 . S
Co6 O15 2.069 1_455 S
Co6 O16 2.015 . S
Co6 O19 2.264 1_455 S
Co7 O5 2.122 1_565 S
Co7 O18 1.976 . S
Co7 O19 2.327 1_565 S
Co7 O20 2.073 . S
H8 O5 0.980 . S
O9 Co1 2.073 . S
O9 C24 1.245 1_545 S
O10 Co0 2.264 1_455 S
O10 Co1 2.327 1_565 S
O10 C24 1.257 . S
O11 Co1 1.976 . S
O11 C23 1.251 . S
O12 Co2 2.120 . S
O12 C23 1.274 . S
O13 Co2 2.145 1_556 S
O13 C26 1.246 . S
O14 Co6 2.286 . S
O14 C25 1.259 . S
O15 Co6 2.069 1_655 S
O15 C25 1.289 1_655 S
O16 Co6 2.015 . S
O16 C26 1.257 . S
O17 Co2 2.103 1_666 S
O17 C27 1.274 . S
O18 Co7 1.976 . S
O18 C27 1.251 . S
O19 Co6 2.264 1_655 S
O19 Co7 2.327 1_545 S
O19 C28 1.257 . S
O20 Co7 2.073 . S
O20 C28 1.245 1_565 S
C21 O29 1.259 . S
C21 O30 1.289 1_655 S
C22 O31 1.246 . S
C22 O32 1.257 . S
C23 O11 1.251 . S
C23 O12 1.274 . S
C24 O9 1.245 1_565 S
C24 O10 1.257 . S
C25 O14 1.259 . S
C25 O15 1.289 1_455 S
C26 O13 1.246 . S
C26 O16 1.257 . S
C27 O17 1.274 . S
C27 O18 1.251 . S
C28 O19 1.257 . S
C28 O20 1.245 1_545 S
O29 Co0 2.286 . S
O29 C21 1.259 . S
O30 Co0 2.069 1_455 S
O30 C21 1.289 1_455 S
O31 Co2 2.142 1_665 S
O31 C22 1.246 . S
O32 Co0 2.015 . S
O32 C22 1.257 . S
C33 C34 1.443 . S
C33 N37 1.376 . S
C33 C71 1.389 . S
C34 C33 1.443 . S
C34 C35 1.340 . S
C34 H74 0.951 . S
C35 C34 1.340 . S
C35 C36 1.439 . S
C35 H75 0.950 . S
C36 C35 1.439 . S
C36 N37 1.374 . S
C36 C70 1.395 . S
N37 C33 1.376 . S
N37 C36 1.374 . S
N37 Co38 2.011 . S
Co38 N37 2.011 . S
Co38 N39 2.003 . S
Co38 N44 2.005 1_455 S
Co38 N49 1.986 1_455 S
Co38 N54 2.284 . S
Co38 N60 2.281 1_455 S
N39 Co38 2.003 . S
N39 C40 1.376 . S
N39 C43 1.383 . S
C40 N39 1.376 . S
C40 C41 1.446 . S
C40 C70 1.391 . S
C41 C40 1.446 . S
C41 C42 1.339 . S
C41 H76 0.949 . S
C42 C41 1.339 . S
C42 C43 1.439 . S
C42 H77 0.950 . S
C43 N39 1.383 . S
C43 C42 1.439 . S
C43 C72 1.389 1_455 S
N44 Co38 2.005 1_655 S
N44 C45 1.376 . S
N44 C48 1.374 . S
C45 N44 1.376 . S
C45 C46 1.443 . S
C45 C72 1.394 . S
C46 C45 1.443 . S
C46 C47 1.340 . S
C46 H78 0.951 . S
C47 C46 1.340 . S
C47 C48 1.439 . S
C47 H79 0.950 . S
C48 N44 1.374 . S
C48 C47 1.439 . S
C48 C73 1.395 . S
N49 Co38 1.986 1_655 S
N49 C50 1.376 . S
N49 C53 1.383 . S
C50 N49 1.376 . S
C50 C51 1.446 . S
C50 C73 1.391 . S
C51 C50 1.446 . S
C51 C52 1.339 . S
C51 H80 0.949 . S
C52 C51 1.339 . S
C52 C53 1.439 . S
C52 H81 0.950 . S
C53 N49 1.383 . S
C53 C52 1.439 . S
C53 C71 1.392 1_655 S
N54 Co38 2.284 . S
N54 C57 1.332 1_455 S
N54 C59 1.332 . S
C55 C56 1.386 1_455 S
C55 C58 1.388 . S
C56 C55 1.386 1_655 S
C56 C57 1.382 . S
C56 H82 0.950 . S
C57 N54 1.332 1_655 S
C57 C56 1.382 . S
C57 H68 0.952 . S
C58 C55 1.388 . S
C58 C59 1.382 . S
C58 H83 0.950 . S
C59 N54 1.332 . S
C59 C58 1.382 . S
C59 H69 0.948 . S
N60 Co38 2.281 1_655 S
N60 C64 1.332 1_655 S
N60 C65 1.332 . S
C61 C62 1.390 . S
C61 C65 1.382 . S
C61 H84 0.950 . S
C62 C61 1.390 . S
C62 C63 1.384 1_655 S
C63 C62 1.384 1_455 S
C63 C64 1.382 . S
C63 H85 0.950 . S
C64 N60 1.332 1_455 S
C64 C63 1.382 . S
C64 H66 0.952 . S
C65 N60 1.332 . S
C65 C61 1.382 . S
C65 H67 0.948 . S
H66 C64 0.952 . S
H67 C65 0.948 . S
H68 C57 0.952 . S
H69 C59 0.948 . S
C70 C36 1.395 . S
C70 C40 1.391 . S
C71 C33 1.389 . S
C71 C53 1.392 1_455 S
C72 C43 1.389 1_655 S
C72 C45 1.394 . S
C73 C48 1.395 . S
C73 C50 1.391 . S
H74 C34 0.951 . S
H75 C35 0.950 . S
H76 C41 0.949 . S
H77 C42 0.950 . S
H78 C46 0.951 . S
H79 C47 0.950 . S
H80 C51 0.949 . S
H81 C52 0.950 . S
H82 C56 0.950 . S
H83 C58 0.950 . S
H84 C61 0.950 . S
H85 C63 0.950 . S
C86 C87 1.443 . S
C86 N90 1.376 . S
C86 C124 1.394 . S
C87 C86 1.443 . S
C87 C88 1.340 . S
C87 H127 0.951 . S
C88 C87 1.340 . S
C88 C89 1.439 . S
C88 H128 0.950 . S
C89 C88 1.439 . S
C89 N90 1.374 . S
C89 C123 1.395 . S
N90 C86 1.376 . S
N90 C89 1.374 . S
N90 Co91 2.004 1_565 S
Co91 N90 2.004 1_545 S
Co91 N92 1.988 1_545 S
Co91 N97 2.012 . S
Co91 N102 2.001 . S
Co91 N107 2.279 1_545 S
Co91 N113 2.286 . S
N92 Co91 1.988 1_565 S
N92 C93 1.376 . S
N92 C96 1.383 . S
C93 N92 1.376 . S
C93 C94 1.446 . S
C93 C123 1.391 . S
C94 C93 1.446 . S
C94 C95 1.339 . S
C94 H129 0.949 . S
C95 C94 1.339 . S
C95 C96 1.439 . S
C95 H130 0.950 . S
C96 N92 1.383 . S
C96 C95 1.439 . S
C96 C125 1.392 1_565 S
N97 Co91 2.012 . S
N97 C98 1.376 . S
N97 C101 1.374 . S
C98 N97 1.376 . S
C98 C99 1.443 . S
C98 C125 1.389 . S
C99 C98 1.443 . S
C99 C100 1.340 . S
C99 H131 0.951 . S
C100 C99 1.340 . S
C100 C101 1.439 . S
C100 H132 0.950 . S
C101 N97 1.374 . S
C101 C100 1.439 . S
C101 C126 1.395 . S
N102 Co91 2.001 . S
N102 C103 1.376 . S
N102 C106 1.383 . S
C103 N102 1.376 . S
C103 C104 1.446 . S
C103 C126 1.391 . S
C104 C103 1.446 . S
C104 C105 1.339 . S
C104 H133 0.949 . S
C105 C104 1.339 . S
C105 C106 1.439 . S
C105 H134 0.950 . S
C106 N102 1.383 . S
C106 C105 1.439 . S
C106 C124 1.388 1_545 S
N107 Co91 2.279 1_565 S
N107 C110 1.332 1_565 S
N107 C112 1.332 . S
C108 C109 1.383 1_565 S
C108 C111 1.390 . S
C109 C108 1.383 1_545 S
C109 C110 1.382 . S
C109 H135 0.950 . S
C110 N107 1.332 1_545 S
C110 C109 1.382 . S
C110 H121 0.952 . S
C111 C108 1.390 . S
C111 C112 1.382 . S
C111 H136 0.950 . S
C112 N107 1.332 . S
C112 C111 1.382 . S
C112 H122 0.948 . S
N113 Co91 2.286 . S
N113 C117 1.332 1_545 S
N113 C118 1.332 . S
C114 C115 1.388 . S
C114 C118 1.382 . S
C114 H137 0.950 . S
C115 C114 1.388 . S
C115 C116 1.386 1_545 S
C116 C115 1.386 1_565 S
C116 C117 1.382 . S
C116 H138 0.950 . S
C117 N113 1.332 1_565 S
C117 C116 1.382 . S
C117 H119 0.952 . S
C118 N113 1.332 . S
C118 C114 1.382 . S
C118 H120 0.948 . S
H119 C117 0.952 . S
H120 C118 0.948 . S
H121 C110 0.952 . S
H122 C112 0.948 . S
C123 C89 1.395 . S
C123 C93 1.391 . S
C124 C86 1.394 . S
C124 C106 1.388 1_565 S
C125 C96 1.392 1_545 S
C125 C98 1.389 . S
C126 C101 1.395 . S
C126 C103 1.391 . S
H127 C87 0.951 . S
H128 C88 0.950 . S
H129 C94 0.949 . S
H130 C95 0.950 . S
H131 C99 0.951 . S
H132 C100 0.950 . S
H133 C104 0.949 . S
H134 C105 0.950 . S
H135 C109 0.950 . S
H136 C111 0.950 . S
H137 C114 0.950 . S
H138 C116 0.950 . S
C139 C140 1.376 . S
C139 C141 1.419 . S
C139 H143 0.930 . S
C140 C139 1.376 . S
C140 C149 1.423 1_655 S
C141 C139 1.419 . S
C141 C142 1.359 1_655 S
C141 H144 0.929 . S
C142 C141 1.359 1_455 S
C142 C148 1.433 . S
H143 C139 0.930 . S
H144 C141 0.929 . S
S145 N146 1.613 . S
S145 N147 1.610 . S
N146 S145 1.613 . S
N146 C149 1.350 . S
N147 S145 1.610 . S
N147 C148 1.351 . S
C148 C142 1.433 . S
C148 N147 1.351 . S
C148 C149 1.434 . S
C149 C140 1.423 1_455 S
C149 N146 1.350 . S
C149 C148 1.434 . S
C150 C151 1.369 . S
C150 C152 1.419 . S
C150 H154 0.930 . S
C151 C150 1.369 . S
C151 C160 1.429 1_565 S
C152 C150 1.419 . S
C152 C153 1.363 . S
C152 H155 0.929 . S
C153 C152 1.363 . S
C153 C159 1.428 1_565 S
H154 C150 0.930 . S
H155 C152 0.929 . S
S156 N157 1.613 . S
S156 N158 1.610 . S
N157 S156 1.613 . S
N157 C160 1.350 . S
N158 S156 1.610 . S
N158 C159 1.351 . S
C159 C153 1.428 1_545 S
C159 N158 1.351 . S
C159 C160 1.434 . S
C160 C151 1.429 1_545 S
C160 N157 1.350 . S
C160 C159 1.434 . S
C161 C162 1.369 . S
C161 C163 1.419 . S
C161 H165 0.930 . S
C162 C161 1.369 . S
C162 C171 1.429 1_455 S
C163 C161 1.419 . S
C163 C164 1.363 . S
C163 H166 0.929 . S
C164 C163 1.363 . S
C164 C170 1.428 1_455 S
H165 C161 0.930 . S
H166 C163 0.929 . S
S167 N168 1.613 . S
S167 N169 1.610 . S
N168 S167 1.613 . S
N168 C171 1.350 . S
N169 S167 1.610 . S
N169 C170 1.351 . S
C170 C164 1.428 1_655 S
C170 N169 1.351 . S
C170 C171 1.434 . S
C171 C162 1.429 1_655 S
C171 N168 1.350 . S
C171 C170 1.434 . S
C172 C173 1.369 . S
C172 C174 1.419 . S
C172 H176 0.930 . S
C173 C172 1.369 . S
C173 C182 1.429 1_565 S
C174 C172 1.419 . S
C174 C175 1.363 . S
C174 H177 0.929 . S
C175 C174 1.363 . S
C175 C181 1.428 1_565 S
H176 C172 0.930 . S
H177 C174 0.929 . S
S178 N179 1.613 . S
S178 N180 1.610 . S
N179 S178 1.613 . S
N179 C182 1.350 . S
N180 S178 1.610 . S
N180 C181 1.351 . S
C181 C175 1.428 1_545 S
C181 N180 1.351 . S
C181 C182 1.434 . S
C182 C173 1.429 1_545 S
C182 N179 1.350 . S
C182 C181 1.434 . S
C183 C184 1.369 1_655 S
C183 C185 1.419 . S
C183 H187 0.930 . S
C184 C183 1.369 1_455 S
C184 C193 1.429 . S
C185 C183 1.419 . S
C185 C186 1.363 1_655 S
C185 H188 0.929 . S
C186 C185 1.363 1_455 S
C186 C192 1.428 . S
H187 C183 0.930 . S
H188 C185 0.929 . S
S189 N190 1.613 . S
S189 N191 1.610 . S
N190 S189 1.613 . S
N190 C193 1.350 . S
N191 S189 1.610 . S
N191 C192 1.351 . S
C192 C186 1.428 . S
C192 N191 1.351 . S
C192 C193 1.434 . S
C193 C184 1.429 . S
C193 N190 1.350 . S
C193 C192 1.434 . S
C194 C195 1.369 . S
C194 C196 1.419 . S
C194 H198 0.930 . S
C195 C194 1.369 . S
C195 C204 1.429 . S
C196 C194 1.419 . S
C196 C197 1.363 . S
C196 H199 0.929 . S
C197 C196 1.363 . S
C197 C203 1.428 . S
H198 C194 0.930 . S
H199 C196 0.929 . S
S200 N201 1.613 . S
S200 N202 1.610 . S
N201 S200 1.613 . S
N201 C204 1.350 . S
N202 S200 1.610 . S
N202 C203 1.351 . S
C203 C197 1.428 . S
C203 N202 1.351 . S
C203 C204 1.434 . S
C204 C195 1.429 . S
C204 N201 1.350 . S
C204 C203 1.434 . S
C205 C206 1.369 1_455 S
C205 C207 1.419 . S
C205 H209 0.930 . S
C206 C205 1.369 1_655 S
C206 C215 1.429 . S
C207 C205 1.419 . S
C207 C208 1.356 1_455 S
C207 H210 0.929 . S
C208 C207 1.356 1_655 S
C208 C214 1.430 . S
H209 C205 0.930 . S
H210 C207 0.929 . S
S211 N212 1.613 . S
S211 N213 1.610 . S
N212 S211 1.613 . S
N212 C215 1.350 . S
N213 S211 1.610 . S
N213 C214 1.351 . S
C214 C208 1.430 . S
C214 N213 1.351 . S
C214 C215 1.434 . S
C215 C206 1.429 . S
C215 N212 1.350 . S
C215 C214 1.434 . S
C216 C217 1.369 . S
C216 C218 1.419 . S
C216 H220 0.930 . S
C217 C216 1.369 . S
C217 C226 1.429 1_545 S
C218 C216 1.419 . S
C218 C219 1.363 . S
C218 H221 0.929 . S
C219 C218 1.363 . S
C219 C225 1.428 1_545 S
H220 C216 0.930 . S
H221 C218 0.929 . S
S222 N223 1.613 . S
S222 N224 1.610 . S
N223 S222 1.613 . S
N223 C226 1.350 . S
N224 S222 1.610 . S
N224 C225 1.351 . S
C225 C219 1.428 1_565 S
C225 N224 1.351 . S
C225 C226 1.434 . S
C226 C217 1.429 1_565 S
C226 N223 1.350 . S
C226 C225 1.434 . S
C140 C23 1.303 1_655 S
C142 C55 1.409 . S
C151 C22 1.569 . S
C153 C125 1.604 1_565 S
C162 C21 1.816 1_455 S
C164 C71 1.825 . S
C173 C24 1.431 . S
C175 C115 1.522 1_565 S
C184 C27 1.318 1_455 S
C186 C62 1.406 1_455 S
C195 C26 1.570 . S
C197 C124 1.601 1_545 S
C208 C72 1.827 . S
C206 C25 1.817 1_655 S
C217 C28 1.432 . S
C219 C108 1.522 1_545 S
