# Generated by pormake.
# Topology tsx, (6,3)-cn, num edge types: 1
# Building blocks:
#     Node 0, Type 0, BuildingBlock: VOLQOD_clean_sbu_1, # of connection points: 6
#     Node 1, Type 0, BuildingBlock: VOLQOD_clean_sbu_1, # of connection points: 6
#     Node 2, Type 1, BuildingBlock: OLANEW_clean_sbu_2, # of connection points: 3
#     Node 3, Type 1, BuildingBlock: OLANEW_clean_sbu_2, # of connection points: 3
#     Node 4, Type 1, BuildingBlock: OLANEW_clean_sbu_2, # of connection points: 3
#     Node 5, Type 1, BuildingBlock: OLANEW_clean_sbu_2, # of connection points: 3
#     Edge 6, Type (0, 1), None
#     Edge 7, Type (0, 1), None
#     Edge 8, Type (0, 1), None
#     Edge 9, Type (0, 1), None
#     Edge 10, Type (0, 1), None
#     Edge 11, Type (0, 1), None
#     Edge 12, Type (0, 1), None
#     Edge 13, Type (0, 1), None
#     Edge 14, Type (0, 1), None
#     Edge 15, Type (0, 1), None
#     Edge 16, Type (0, 1), None
#     Edge 17, Type (0, 1), None
# Relax obj value: 0.030
# Max RMSD: 0.065
# Mean RMSD: 0.063
data_MOF--net-tsx--node1-VOLQOD_clean_sbu_1--node2-OLANEW_clean_sbu_2--edge1-none
_symmetry_space_group_name_H-M    P1
_symmetry_Int_Tables_number       1
_symmetry_cell_setting            triclinic
loop_
_symmetry_equiv_pos_as_xyz
'x, y, z'
_cell_length_a     12.128916
_cell_length_b     13.163421
_cell_length_c     18.997244
_cell_angle_alpha  89.204289
_cell_angle_beta   90.119937
_cell_angle_gamma 91.114922
loop_
_atom_site_label
_atom_site_type_symbol
_atom_site_fract_x
_atom_site_fract_y
_atom_site_fract_z
_atom_type_partial_charge
O0 O 0.09144 0.91748 0.1455 0.0
Zn1 Zn 0.13391 0.92557 0.04255 0.0
O2 O 0.00674 -0.0377 -0.0153 0.0
Zn3 Zn 0.96912 0.84931 0.92394 0.0
Zn4 Zn 0.8801 -0.00976 0.04412 0.0
Zn5 Zn 0.04325 0.08288 0.92751 0.0
O6 O 0.96381 0.89525 0.82267 0.0
O7 O 0.04398 0.04902 0.82406 0.0
O8 O 0.20462 0.79548 0.00996 0.0
O9 O 0.08589 0.74554 0.9276 0.0
O10 O 0.8281 0.7778 0.95364 0.0
O11 O 0.76469 0.87882 0.03655 0.0
O12 O 0.80716 0.1218 0.01505 0.0
O13 O 0.24922 0.03709 0.03697 0.0
O14 O 0.92696 0.18811 0.9379 0.0
O15 O 0.18751 0.14828 0.95773 0.0
C16 C 0.01074 -0.04484 0.17851 0.0
C17 C 0.00328 -0.02641 0.79081 0.0
C18 C 0.75585 0.79959 -0.00083 0.0
C19 C 0.17371 0.73302 0.96286 0.0
C20 C 0.83776 0.19268 0.97268 0.0
C21 C 0.25962 0.12018 0.00236 0.0
O22 O 0.92839 -0.00694 0.14625 0.0
O23 O 0.59144 0.41748 0.6455 0.0
Zn24 Zn 0.63391 0.42557 0.54255 0.0
O25 O 0.50674 0.4623 0.4847 0.0
Zn26 Zn 0.46912 0.34931 0.42394 0.0
Zn27 Zn 0.3801 0.49024 0.54412 0.0
Zn28 Zn 0.54325 0.58288 0.42751 0.0
O29 O 0.46381 0.39525 0.32267 0.0
O30 O 0.54398 0.54902 0.32406 0.0
O31 O 0.70462 0.29548 0.50996 0.0
O32 O 0.58589 0.24554 0.4276 0.0
O33 O 0.3281 0.2778 0.45364 0.0
O34 O 0.26469 0.37882 0.53655 0.0
O35 O 0.30716 0.6218 0.51505 0.0
O36 O 0.74922 0.53709 0.53697 0.0
O37 O 0.42696 0.68811 0.4379 0.0
O38 O 0.68751 0.64828 0.45773 0.0
C39 C 0.51074 0.45516 0.67851 0.0
C40 C 0.50328 0.47359 0.29081 0.0
C41 C 0.25585 0.29959 0.49917 0.0
C42 C 0.67371 0.23302 0.46286 0.0
C43 C 0.33776 0.69268 0.47268 0.0
C44 C 0.75962 0.62018 0.50236 0.0
O45 O 0.4284 0.49306 0.64625 0.0
O46 O 0.09766 0.92528 0.28906 0.0
Cd47 Cd 0.12705 0.93488 0.41665 0.0
O48 O 0.94116 0.00732 0.28836 0.0
Cd49 Cd 0.93787 0.03995 0.40077 0.0
O50 O 0.84421 0.14632 0.4628 0.0
C51 C 0.74465 0.14962 0.44252 0.0
O52 O 0.71065 0.08684 0.39351 0.0
C53 C 0.0159 -0.03889 0.2557 0.0
C54 C 0.26519 0.77846 0.4586 0.0
O55 O 0.16089 0.77013 0.46833 0.0
O56 O 0.30398 0.86087 0.43094 0.0
O57 O 0.01602 0.06142 0.68124 0.0
Cd58 Cd 0.0015 0.0886 0.55449 0.0
O59 O -0.02752 0.89812 0.68006 0.0
Cd60 Cd 0.94932 0.88405 0.56659 0.0
O61 O 0.84655 0.78343 0.5028 0.0
C62 C 0.84907 0.69073 0.52216 0.0
O63 O 0.91908 0.66364 0.57151 0.0
C64 C -0.00161 -0.0222 0.7137 0.0
C65 C 0.16493 0.22759 0.5135 0.0
O66 O 0.076 0.25724 0.54225 0.0
O67 O 0.17579 0.13257 0.50226 0.0
O68 O 0.59766 0.42528 0.78906 0.0
Cd69 Cd 0.62705 0.43488 0.91665 0.0
O70 O 0.44116 0.50732 0.78836 0.0
Cd71 Cd 0.43787 0.53995 0.90077 0.0
O72 O 0.34421 0.64632 0.9628 0.0
C73 C 0.24465 0.64962 0.94252 0.0
O74 O 0.21065 0.58684 0.89351 0.0
C75 C 0.5159 0.46111 0.7557 0.0
C76 C 0.76519 0.27846 0.9586 0.0
O77 O 0.66089 0.27013 0.96833 0.0
O78 O 0.80398 0.36087 0.93094 0.0
O79 O 0.51602 0.56142 0.18124 0.0
Cd80 Cd 0.5015 0.5886 0.05449 0.0
O81 O 0.47248 0.39812 0.18006 0.0
Cd82 Cd 0.44932 0.38405 0.06659 0.0
O83 O 0.34655 0.28343 0.0028 0.0
C84 C 0.34907 0.19073 0.02216 0.0
O85 O 0.41908 0.16364 0.07151 0.0
C86 C 0.49839 0.4778 0.2137 0.0
C87 C 0.66493 0.72759 0.0135 0.0
O88 O 0.576 0.75724 0.04225 0.0
O89 O 0.67579 0.63257 0.00226 0.0
loop_
_geom_bond_atom_site_label_1
_geom_bond_atom_site_label_2
_geom_bond_distance
_geom_bond_site_symmetry_2
_ccdc_geom_bond_type
O0 Zn1 1.953 . S
O0 C16 1.225 1_565 S
Zn1 O0 1.953 . S
Zn1 O2 1.949 1_565 S
Zn1 O8 1.919 . S
Zn1 O13 1.924 1_565 S
O2 Zn1 1.949 1_545 S
O2 Zn3 1.923 1_444 S
O2 Zn4 1.950 1_455 S
O2 Zn5 1.945 1_554 S
Zn3 O2 1.923 1_666 S
Zn3 O6 1.933 . S
Zn3 O9 1.941 1_655 S
Zn3 O10 1.965 . S
Zn4 O2 1.950 1_655 S
Zn4 O11 1.938 1_545 S
Zn4 O12 1.906 . S
Zn4 O22 1.953 . S
Zn5 O2 1.945 1_556 S
Zn5 O7 1.932 . S
Zn5 O14 1.977 1_455 S
Zn5 O15 1.910 . S
O6 Zn3 1.933 . S
O6 C17 1.226 1_655 S
O7 Zn5 1.932 . S
O7 C17 1.307 1_545 S
O8 Zn1 1.919 . S
O8 C19 1.253 1_554 S
O9 Zn3 1.941 1_455 S
O9 C19 1.283 . S
O10 Zn3 1.965 . S
O10 C18 1.303 1_556 S
O11 Zn4 1.938 1_565 S
O11 C18 1.247 . S
O12 Zn4 1.906 . S
O12 C20 1.304 1_554 S
O13 Zn1 1.924 1_545 S
O13 C21 1.311 . S
O14 Zn5 1.977 1_655 S
O14 C20 1.272 . S
O15 Zn5 1.910 . S
O15 C21 1.231 1_556 S
C16 O0 1.225 1_545 S
C16 O22 1.298 1_455 S
C17 O6 1.226 1_455 S
C17 O7 1.307 1_565 S
C18 O10 1.303 1_554 S
C18 O11 1.247 . S
C19 O8 1.253 1_556 S
C19 O9 1.283 . S
C20 O12 1.304 1_556 S
C20 O14 1.272 . S
C21 O13 1.311 . S
C21 O15 1.231 1_554 S
O22 Zn4 1.953 . S
O22 C16 1.298 1_655 S
O23 Zn24 1.953 . S
O23 C39 1.225 . S
Zn24 O23 1.953 . S
Zn24 O25 1.949 . S
Zn24 O31 1.919 . S
Zn24 O36 1.924 . S
O25 Zn24 1.949 . S
O25 Zn26 1.923 . S
O25 Zn27 1.950 . S
O25 Zn28 1.945 . S
Zn26 O25 1.923 . S
Zn26 O29 1.933 . S
Zn26 O32 1.941 . S
Zn26 O33 1.965 . S
Zn27 O25 1.950 . S
Zn27 O34 1.938 . S
Zn27 O35 1.906 . S
Zn27 O45 1.953 . S
Zn28 O25 1.945 . S
Zn28 O30 1.932 . S
Zn28 O37 1.977 . S
Zn28 O38 1.910 . S
O29 Zn26 1.933 . S
O29 C40 1.226 . S
O30 Zn28 1.932 . S
O30 C40 1.307 . S
O31 Zn24 1.919 . S
O31 C42 1.253 . S
O32 Zn26 1.941 . S
O32 C42 1.283 . S
O33 Zn26 1.965 . S
O33 C41 1.303 . S
O34 Zn27 1.938 . S
O34 C41 1.247 . S
O35 Zn27 1.906 . S
O35 C43 1.304 . S
O36 Zn24 1.924 . S
O36 C44 1.311 . S
O37 Zn28 1.977 . S
O37 C43 1.272 . S
O38 Zn28 1.910 . S
O38 C44 1.231 . S
C39 O23 1.225 . S
C39 O45 1.298 . S
C40 O29 1.226 . S
C40 O30 1.307 . S
C41 O33 1.303 . S
C41 O34 1.247 . S
C42 O31 1.253 . S
C42 O32 1.283 . S
C43 O35 1.304 . S
C43 O37 1.272 . S
C44 O36 1.311 . S
C44 O38 1.231 . S
O45 Zn27 1.953 . S
O45 C39 1.298 . S
O46 Cd47 2.300 . S
O46 C53 1.275 1_565 S
Cd47 O46 2.300 . S
Cd47 O55 2.381 . S
Cd47 O56 2.378 . S
O48 Cd49 2.385 . S
O48 C53 1.255 . S
Cd49 O48 2.385 . S
Cd49 O50 2.317 1_455 S
O50 Cd49 2.317 1_655 S
O50 C51 1.232 . S
C51 O50 1.232 . S
C51 O52 1.218 . S
O52 C51 1.218 . S
C53 O46 1.275 1_545 S
C53 O48 1.255 . S
C54 O55 1.258 . S
C54 O56 1.256 . S
O55 Cd47 2.381 . S
O55 C54 1.258 . S
O56 Cd47 2.378 . S
O56 C54 1.256 . S
O57 Cd58 2.300 . S
O57 C64 1.275 1_545 S
Cd58 O57 2.300 . S
Cd58 O66 2.381 . S
Cd58 O67 2.378 . S
O59 Cd60 2.385 . S
O59 C64 1.255 . S
Cd60 O59 2.385 . S
Cd60 O61 2.317 1_455 S
O61 Cd60 2.317 1_655 S
O61 C62 1.232 . S
C62 O61 1.232 . S
C62 O63 1.218 . S
O63 C62 1.218 . S
C64 O57 1.275 1_565 S
C64 O59 1.255 . S
C65 O66 1.258 . S
C65 O67 1.256 . S
O66 Cd58 2.381 . S
O66 C65 1.258 . S
O67 Cd58 2.378 . S
O67 C65 1.256 . S
O68 Cd69 2.300 . S
O68 C75 1.275 . S
Cd69 O68 2.300 . S
Cd69 O77 2.381 . S
Cd69 O78 2.378 1_556 S
O70 Cd71 2.385 . S
O70 C75 1.255 . S
Cd71 O70 2.385 . S
Cd71 O72 2.317 . S
O72 Cd71 2.317 . S
O72 C73 1.232 . S
C73 O72 1.232 . S
C73 O74 1.218 . S
O74 C73 1.218 . S
C75 O68 1.275 . S
C75 O70 1.255 . S
C76 O77 1.258 . S
C76 O78 1.256 1_556 S
O77 Cd69 2.381 . S
O77 C76 1.258 . S
O78 Cd69 2.378 1_554 S
O78 C76 1.256 1_554 S
O79 Cd80 2.300 . S
O79 C86 1.275 . S
Cd80 O79 2.300 . S
Cd80 O88 2.381 . S
Cd80 O89 2.378 . S
O81 Cd82 2.385 . S
O81 C86 1.255 . S
Cd82 O81 2.385 . S
Cd82 O83 2.317 . S
O83 Cd82 2.317 . S
O83 C84 1.232 . S
C84 O83 1.232 . S
C84 O85 1.218 . S
O85 C84 1.218 . S
C86 O79 1.275 . S
C86 O81 1.255 . S
C87 O88 1.258 . S
C87 O89 1.256 . S
O88 Cd80 2.381 . S
O88 C87 1.258 . S
O89 Cd80 2.378 . S
O89 C87 1.256 . S
C84 C21 1.323 . S
C19 C73 1.399 . S
C18 C87 1.473 . S
C20 C76 1.405 . S
C44 C62 1.323 . S
C42 C51 1.399 . S
C65 C41 1.473 . S
C54 C43 1.405 . S
C16 C53 1.427 . S
C17 C64 1.404 . S
C75 C39 1.427 . S
C40 C86 1.404 . S
