# Generated by pormake.
# Topology bcu-b, (8,8)-cn, num edge types: 1
# Building blocks:
#     Node 0, Type 0, BuildingBlock: VETTIZ_charged_sbu_0, # of connection points: 8
#     Node 1, Type 1, BuildingBlock: TAGTUT_clean_sbu_3, # of connection points: 8
#     Edge 2, Type (0, 1), BuildingBlock: KIFKEQ_clean_linker_1, # of connection points: 2
#     Edge 3, Type (0, 1), BuildingBlock: KIFKEQ_clean_linker_1, # of connection points: 2
#     Edge 4, Type (0, 1), BuildingBlock: KIFKEQ_clean_linker_1, # of connection points: 2
#     Edge 5, Type (0, 1), BuildingBlock: KIFKEQ_clean_linker_1, # of connection points: 2
#     Edge 6, Type (0, 1), BuildingBlock: KIFKEQ_clean_linker_1, # of connection points: 2
#     Edge 7, Type (0, 1), BuildingBlock: KIFKEQ_clean_linker_1, # of connection points: 2
#     Edge 8, Type (0, 1), BuildingBlock: KIFKEQ_clean_linker_1, # of connection points: 2
#     Edge 9, Type (0, 1), BuildingBlock: KIFKEQ_clean_linker_1, # of connection points: 2
# Relax obj value: 0.020
# Max RMSD: 0.100
# Mean RMSD: 0.073
data_MOF--net-bcu-b--node1-VETTIZ_charged_sbu_0--node2-TAGTUT_clean_sbu_3--edge1-KIFKEQ_clean_linker_1
_symmetry_space_group_name_H-M    P1
_symmetry_Int_Tables_number       1
_symmetry_cell_setting            triclinic
loop_
_symmetry_equiv_pos_as_xyz
'x, y, z'
_cell_length_a     19.442421
_cell_length_b     18.960736
_cell_length_c     22.02923
_cell_angle_alpha  89.893129
_cell_angle_beta   90.350421
_cell_angle_gamma 100.6913
loop_
_atom_site_label
_atom_site_type_symbol
_atom_site_fract_x
_atom_site_fract_y
_atom_site_fract_z
_atom_type_partial_charge
Fe0 Fe 0.05333 0.88527 -0.02295 0.0
O1 O 0.0617 0.98975 -0.02113 0.0
Fe2 Fe 0.02989 0.0419 0.90242 0.0
Fe3 Fe 1.01727 0.04043 0.04286 0.0
O4 O 0.06282 0.99015 -0.02714 0.0
O5 O 0.98559 0.0926 0.96654 0.0
O6 O 0.98327 0.09143 -0.02747 0.0
Fe7 Fe 0.99354 0.19673 0.97011 0.0
C8 C 0.9248 0.89762 0.05336 0.0
O9 O 0.11957 0.90744 0.05121 0.0
O10 O 0.06289 0.98154 0.10805 0.0
O11 O 0.07624 0.21689 0.91055 0.0
O12 O 0.12105 0.11721 0.90457 0.0
O13 O 0.08024 0.97922 0.84429 0.0
O14 O 0.12669 0.90467 0.90974 0.0
O15 O 0.10765 0.11573 0.04874 0.0
O16 O 0.06262 0.21469 0.04262 0.0
C17 C 0.12039 0.93308 0.85698 0.0
O18 O 0.93218 0.17834 0.89338 0.0
O19 O 0.98862 0.10401 0.83695 0.0
O20 O 0.97486 0.86619 0.03981 0.0
O21 O 0.92691 0.9637 0.04143 0.0
C22 C 0.10963 0.9408 0.10114 0.0
C23 C 0.11015 0.1815 0.06082 0.0
C24 C 0.91815 0.14156 0.0857 0.0
O25 O 0.96294 0.10067 0.10045 0.0
O26 O 0.9162 0.17432 0.03412 0.0
C27 C 0.12438 0.18387 0.89406 0.0
O28 O 0.9391 0.96792 0.89583 0.0
O29 O 0.97872 0.86557 0.9076 0.0
C30 C 0.94753 0.1508 0.84238 0.0
C31 C 0.93382 0.90097 0.88674 0.0
C32 C 0.64685 0.63855 0.55249 0.0
C33 C 0.72116 0.38501 0.51607 0.0
C34 C 0.62361 0.38789 0.34809 0.0
Mg35 Mg 0.51194 0.69665 0.49684 0.0
Mg36 Mg 0.36692 0.58254 0.46822 0.0
O37 O 0.46246 0.60897 0.45284 0.0
Mg38 Mg 0.52488 0.53955 0.47219 0.0
O39 O 0.59341 0.47654 0.49121 0.0
Mg40 Mg 0.67698 0.52765 0.44538 0.0
Mg41 Mg 0.56616 0.37827 0.47476 0.0
C42 C 0.39304 0.44594 0.39468 0.0
O43 O 0.45253 0.4742 0.5442 0.0
O44 O 0.4355 0.75825 0.44392 0.0
O45 O 0.47016 0.36126 0.5276 0.0
O46 O 0.43386 0.68345 0.57605 0.0
O47 O 0.33809 0.67525 0.42686 0.0
O48 O 0.34628 0.59094 0.5627 0.0
O49 O 0.60241 0.59651 0.40111 0.0
O50 O 0.58846 0.70904 0.4184 0.0
C51 C 0.61758 0.66397 0.38971 0.0
C52 C 0.3729 0.73944 0.42249 0.0
O53 O 0.45996 0.4615 0.40238 0.0
O54 O 0.73867 0.44979 0.49604 0.0
O55 O 0.35074 0.48105 0.4205 0.0
O56 O 0.66198 0.44586 0.36709 0.0
O57 O 0.65847 0.3493 0.51265 0.0
O58 O 0.57247 0.35541 0.37955 0.0
O59 O 0.58092 0.62167 0.54181 0.0
O60 O 0.69097 0.60879 0.52379 0.0
C61 C 0.37764 0.64344 0.59445 0.0
C62 C 0.43826 0.40604 0.55442 0.0
H63 H 0.21998 0.1288 0.11218 0.0
H64 H 0.12213 0.31599 0.1082 0.0
H65 H 0.29841 0.18389 0.19376 0.0
H66 H 0.19954 0.36947 0.18958 0.0
H67 H 0.25813 0.3764 0.38953 0.0
H68 H 0.19926 0.30776 0.30502 0.0
H69 H 0.39661 0.32041 0.2135 0.0
H70 H 0.45669 0.39101 0.29848 0.0
C71 C 0.21585 0.18196 0.12787 0.0
C72 C 0.16421 0.21771 0.10394 0.0
C73 C 0.26084 0.21331 0.17438 0.0
C74 C 0.25427 0.28037 0.19795 0.0
C75 C 0.20509 0.31737 0.17223 0.0
C76 C 0.16085 0.28666 0.12556 0.0
C77 C 0.28952 0.36375 0.35203 0.0
C78 C 0.36196 0.39046 0.35019 0.0
C79 C 0.25566 0.32442 0.30371 0.0
C80 C 0.29339 0.31018 0.25263 0.0
C81 C 0.3666 0.33118 0.25256 0.0
C82 C 0.40082 0.37128 0.30116 0.0
H83 H 0.94576 0.20275 0.19685 0.0
H84 H 0.7776 0.12047 0.07288 0.0
H85 H 0.86492 0.25912 0.25711 0.0
H86 H 0.69641 0.17536 0.13368 0.0
H87 H 0.57686 0.24951 0.308 0.0
H88 H 0.64389 0.17789 0.24735 0.0
H89 H 0.80276 0.36576 0.21756 0.0
H90 H 0.73595 0.43774 0.27626 0.0
C91 C 0.89097 0.19441 0.184 0.0
C92 C 0.86752 0.15708 0.13074 0.0
C93 C 0.84498 0.22726 0.21785 0.0
C94 C 0.77476 0.22219 0.19939 0.0
C95 C 0.75019 0.18001 0.1488 0.0
C96 C 0.79646 0.14845 0.11431 0.0
C97 C 0.62497 0.27607 0.28697 0.0
C98 C 0.65135 0.34934 0.29785 0.0
C99 C 0.66361 0.23483 0.25284 0.0
C100 C 0.72943 0.26603 0.2297 0.0
C101 C 0.75304 0.3401 0.23646 0.0
C102 C 0.71417 0.38142 0.26955 0.0
H103 H 0.90454 0.75641 0.0854 0.0
H104 H 0.81946 0.94927 0.1115 0.0
H105 H 0.8294 0.69667 0.16449 0.0
H106 H 0.74154 0.88794 0.18927 0.0
H107 H 0.69123 0.79916 0.37781 0.0
H108 H 0.75782 0.85178 0.29098 0.0
H109 H 0.71548 0.64646 0.19968 0.0
H110 H 0.65023 0.59299 0.2883 0.0
C111 C 0.86866 0.78573 0.10711 0.0
C112 C 0.86895 0.85821 0.09271 0.0
C113 C 0.82512 0.75107 0.15238 0.0
C114 C 0.78022 0.78772 0.18412 0.0
C115 C 0.77691 0.85866 0.16681 0.0
C116 C 0.82097 0.89365 0.1217 0.0
C117 C 0.69657 0.76499 0.33941 0.0
C118 C 0.66529 0.69197 0.33976 0.0
C119 C 0.73403 0.79545 0.2892 0.0
C120 C 0.74074 0.75391 0.23762 0.0
C121 C 0.71138 0.6801 0.23866 0.0
C122 C 0.67425 0.6493 0.28945 0.0
H123 H 0.23578 0.89778 0.09937 0.0
H124 H 0.08512 0.95994 0.2222 0.0
H125 H 0.30468 0.86903 0.18527 0.0
H126 H 0.15474 0.93099 0.30861 0.0
H127 H 0.23462 0.74418 0.41674 0.0
H128 H 0.17601 0.81115 0.34495 0.0
H129 H 0.37658 0.9172 0.27684 0.0
H130 H 0.43564 0.84978 0.34941 0.0
C131 C 0.21764 0.90598 0.14475 0.0
C132 C 0.15425 0.93002 0.15389 0.0
C133 C 0.25772 0.89035 0.19402 0.0
C134 C 0.23515 0.89772 0.2537 0.0
C135 C 0.17324 0.92453 0.26305 0.0
C136 C 0.13344 0.9411 0.2136 0.0
C137 C 0.2663 0.78308 0.38745 0.0
C138 C 0.33965 0.79127 0.38815 0.0
C139 C 0.23269 0.82183 0.34659 0.0
C140 C 0.27165 0.869 0.30493 0.0
C141 C 0.34526 0.88073 0.3082 0.0
C142 C 0.37905 0.84258 0.3499 0.0
H143 H 0.0688 0.80247 0.81534 0.0
H144 H 0.24078 0.97983 0.79334 0.0
H145 H 0.13091 0.7252 0.75817 0.0
H146 H 0.30257 0.90369 0.73205 0.0
H147 H 0.43003 0.73659 0.6853 0.0
H148 H 0.3641 0.80894 0.74516 0.0
H149 H 0.17138 0.69319 0.66683 0.0
H150 H 0.23672 0.61868 0.61048 0.0
C151 C 0.11901 0.82548 0.79574 0.0
C152 C 0.14982 0.897 0.80756 0.0
C153 C 0.1549 0.78117 0.76309 0.0
C154 C 0.22237 0.80764 0.74084 0.0
C155 C 0.25144 0.88089 0.74974 0.0
C156 C 0.21564 0.92511 0.78347 0.0
C157 C 0.37338 0.72517 0.68261 0.0
C158 C 0.33867 0.67183 0.64322 0.0
C159 C 0.3356 0.76767 0.71589 0.0
C160 C 0.26236 0.75845 0.70976 0.0
C161 C 0.22756 0.70193 0.67325 0.0
C162 C 0.26518 0.6586 0.64102 0.0
H163 H 0.2328 0.1325 0.84055 0.0
H164 H 0.13761 0.32087 0.85092 0.0
H165 H 0.30947 0.18946 0.76026 0.0
H166 H 0.21162 0.37608 0.76933 0.0
H167 H 0.39333 0.47948 0.64896 0.0
H168 H 0.32424 0.42896 0.73603 0.0
H169 H 0.30033 0.2176 0.65621 0.0
H170 H 0.37133 0.26771 0.57064 0.0
C171 C 0.22866 0.18626 0.82627 0.0
C172 C 0.17869 0.22177 0.85223 0.0
C173 C 0.27203 0.21867 0.7796 0.0
C174 C 0.26609 0.28708 0.75738 0.0
C175 C 0.21829 0.32373 0.78532 0.0
C176 C 0.17549 0.29171 0.83224 0.0
C177 C 0.3726 0.42237 0.64973 0.0
C178 C 0.38814 0.37763 0.60295 0.0
C179 C 0.33302 0.39326 0.69978 0.0
C180 C 0.30742 0.31883 0.70385 0.0
C181 C 0.3208 0.27474 0.65572 0.0
C182 C 0.36088 0.30367 0.60616 0.0
H183 H 0.89722 0.27482 0.83391 0.0
H184 H 0.94311 0.09989 0.7248 0.0
H185 H 0.86038 0.33127 0.74421 0.0
H186 H 0.90535 0.1577 0.6337 0.0
H187 H 0.71898 0.24202 0.52777 0.0
H188 H 0.78747 0.18393 0.59841 0.0
H189 H 0.90882 0.39066 0.6474 0.0
H190 H 0.83959 0.44927 0.57678 0.0
C191 C 0.89932 0.24805 0.79075 0.0
C192 C 0.9225 0.18218 0.78676 0.0
C193 C 0.87924 0.28131 0.73909 0.0
C194 C 0.88114 0.24954 0.68191 0.0
C195 C 0.90394 0.18352 0.67738 0.0
C196 C 0.92515 0.15037 0.72941 0.0
C197 C 0.76133 0.27503 0.55262 0.0
C198 C 0.77301 0.35033 0.54789 0.0
C199 C 0.80095 0.24158 0.59262 0.0
C200 C 0.85263 0.28288 0.62894 0.0
C201 C 0.86853 0.35773 0.62031 0.0
C202 C 0.82919 0.39124 0.57981 0.0
H203 H 0.87932 0.75711 0.87474 0.0
H204 H 0.86437 0.96523 0.80108 0.0
H205 H 0.79704 0.69981 0.7966 0.0
H206 H 0.78412 0.90764 0.7226 0.0
H207 H 0.76005 0.7457 0.54913 0.0
H208 H 0.81893 0.8135 0.63516 0.0
H209 H 0.65813 0.70647 0.75515 0.0
H210 H 0.59737 0.64033 0.66821 0.0
C211 C 0.85788 0.79058 0.84252 0.0
C212 C 0.87848 0.86568 0.84422 0.0
C213 C 0.8106 0.75784 0.7981 0.0
C214 C 0.78431 0.79951 0.75387 0.0
C215 C 0.80347 0.87448 0.75641 0.0
C216 C 0.84936 0.90727 0.80148 0.0
C217 C 0.73627 0.73821 0.59361 0.0
C218 C 0.67401 0.68838 0.60211 0.0
C219 C 0.76997 0.77677 0.64273 0.0
C220 C 0.74314 0.76475 0.70162 0.0
C221 C 0.67973 0.71647 0.71007 0.0
C222 C 0.6448 0.67928 0.66044 0.0
loop_
_geom_bond_atom_site_label_1
_geom_bond_atom_site_label_2
_geom_bond_distance
_geom_bond_site_symmetry_2
_ccdc_geom_bond_type
Fe0 O1 1.895 . S
Fe0 O4 1.705 1_554 S
Fe0 O9 2.086 1_655 S
Fe0 O14 1.928 1_654 S
Fe0 O20 2.086 . S
Fe0 O29 1.928 1_554 S
O1 Fe0 1.895 . S
O1 Fe3 1.715 1_665 S
Fe2 O4 1.886 1_445 S
Fe2 O5 1.715 . S
Fe2 O12 1.935 . S
Fe2 O13 2.077 1_545 S
Fe2 O19 1.935 1_455 S
Fe2 O28 2.077 1_445 S
Fe3 O1 1.715 1_445 S
Fe3 O6 1.886 . S
Fe3 O10 1.935 1_545 S
Fe3 O15 2.077 . S
Fe3 O21 1.935 1_445 S
Fe3 O25 2.077 1_455 S
O4 Fe0 1.705 1_556 S
O4 Fe2 1.886 1_665 S
O5 Fe2 1.715 . S
O5 Fe7 1.890 . S
O6 Fe3 1.886 . S
O6 Fe7 1.711 1_554 S
Fe7 O5 1.890 . S
Fe7 O6 1.711 1_556 S
Fe7 O11 2.081 . S
Fe7 O16 1.932 1_556 S
Fe7 O18 2.081 1_455 S
Fe7 O26 1.932 1_456 S
C8 O20 1.381 . S
C8 O21 1.421 . S
O9 Fe0 2.086 1_455 S
O9 C22 1.381 . S
O10 Fe3 1.935 1_565 S
O10 C22 1.421 . S
O11 Fe7 2.081 . S
O11 C27 1.381 . S
O12 Fe2 1.935 . S
O12 C27 1.421 . S
O13 Fe2 2.077 1_565 S
O13 C17 1.381 . S
O14 Fe0 1.928 1_456 S
O14 C17 1.421 . S
O15 Fe3 2.077 . S
O15 C23 1.381 . S
O16 Fe7 1.932 1_554 S
O16 C23 1.421 . S
C17 O13 1.381 . S
C17 O14 1.421 . S
O18 Fe7 2.081 1_655 S
O18 C30 1.381 . S
O19 Fe2 1.935 1_655 S
O19 C30 1.421 . S
O20 Fe0 2.086 . S
O20 C8 1.381 . S
O21 Fe3 1.935 1_665 S
O21 C8 1.421 . S
C22 O9 1.381 . S
C22 O10 1.421 . S
C23 O15 1.381 . S
C23 O16 1.421 . S
C24 O25 1.381 . S
C24 O26 1.421 . S
O25 Fe3 2.077 1_655 S
O25 C24 1.381 . S
O26 Fe7 1.932 1_654 S
O26 C24 1.421 . S
C27 O11 1.381 . S
C27 O12 1.421 . S
O28 Fe2 2.077 1_665 S
O28 C31 1.381 . S
O29 Fe0 1.928 1_556 S
O29 C31 1.421 . S
C30 O18 1.381 . S
C30 O19 1.421 . S
C31 O28 1.381 . S
C31 O29 1.421 . S
C32 O59 1.312 . S
C32 O60 1.208 . S
C33 O54 1.331 . S
C33 O57 1.244 . S
C34 O56 1.264 . S
C34 O58 1.273 . S
Mg35 O37 1.936 . S
Mg35 O44 2.081 . S
Mg35 O46 2.023 . S
Mg35 O50 2.031 . S
Mg35 O59 2.291 . S
Mg36 O37 1.963 . S
Mg36 O47 1.942 . S
Mg36 O48 1.955 . S
Mg36 O55 1.986 . S
O37 Mg35 1.936 . S
O37 Mg36 1.963 . S
O37 Mg38 1.915 . S
Mg38 O37 1.915 . S
Mg38 O39 1.915 . S
Mg38 O43 2.013 . S
Mg38 O49 2.114 . S
Mg38 O53 2.013 . S
Mg38 O59 2.114 . S
O39 Mg38 1.915 . S
O39 Mg40 1.936 . S
O39 Mg41 1.963 . S
Mg40 O39 1.936 . S
Mg40 O49 2.291 . S
Mg40 O54 2.081 . S
Mg40 O56 2.023 . S
Mg40 O60 2.031 . S
Mg41 O39 1.963 . S
Mg41 O45 1.986 . S
Mg41 O57 1.942 . S
Mg41 O58 1.955 . S
C42 O53 1.191 . S
C42 O55 1.307 . S
O43 Mg38 2.013 . S
O43 C62 1.191 . S
O44 Mg35 2.081 . S
O44 C52 1.331 . S
O45 Mg41 1.986 . S
O45 C62 1.307 . S
O46 Mg35 2.023 . S
O46 C61 1.264 . S
O47 Mg36 1.942 . S
O47 C52 1.244 . S
O48 Mg36 1.955 . S
O48 C61 1.273 . S
O49 Mg38 2.114 . S
O49 Mg40 2.291 . S
O49 C51 1.312 . S
O50 Mg35 2.031 . S
O50 C51 1.208 . S
C51 O49 1.312 . S
C51 O50 1.208 . S
C52 O44 1.331 . S
C52 O47 1.244 . S
O53 Mg38 2.013 . S
O53 C42 1.191 . S
O54 C33 1.331 . S
O54 Mg40 2.081 . S
O55 Mg36 1.986 . S
O55 C42 1.307 . S
O56 C34 1.264 . S
O56 Mg40 2.023 . S
O57 C33 1.244 . S
O57 Mg41 1.942 . S
O58 C34 1.273 . S
O58 Mg41 1.955 . S
O59 C32 1.312 . S
O59 Mg35 2.291 . S
O59 Mg38 2.114 . S
O60 C32 1.208 . S
O60 Mg40 2.031 . S
C61 O46 1.264 . S
C61 O48 1.273 . S
C62 O43 1.191 . S
C62 O45 1.307 . S
H63 C71 0.950 . S
H64 C76 0.950 . S
H65 C73 0.950 . S
H66 C75 0.950 . S
H67 C77 0.950 . S
H68 C79 0.950 . S
H69 C81 0.950 . S
H70 C82 0.950 . S
C71 H63 0.950 . S
C71 C72 1.386 . S
C71 C73 1.391 . S
C72 C71 1.386 . S
C72 C76 1.393 . S
C73 H65 0.950 . S
C73 C71 1.391 . S
C73 C74 1.400 . S
C74 C73 1.400 . S
C74 C75 1.398 . S
C74 C80 1.491 . S
C75 H66 0.950 . S
C75 C74 1.398 . S
C75 C76 1.391 . S
C76 H64 0.950 . S
C76 C72 1.393 . S
C76 C75 1.391 . S
C77 H67 0.950 . S
C77 C78 1.386 . S
C77 C79 1.391 . S
C78 C77 1.386 . S
C78 C82 1.393 . S
C79 H68 0.950 . S
C79 C77 1.391 . S
C79 C80 1.400 . S
C80 C74 1.491 . S
C80 C79 1.400 . S
C80 C81 1.398 . S
C81 H69 0.950 . S
C81 C80 1.398 . S
C81 C82 1.391 . S
C82 H70 0.950 . S
C82 C78 1.393 . S
C82 C81 1.391 . S
H83 C91 0.950 . S
H84 C96 0.950 . S
H85 C93 0.950 . S
H86 C95 0.950 . S
H87 C97 0.950 . S
H88 C99 0.950 . S
H89 C101 0.950 . S
H90 C102 0.950 . S
C91 H83 0.950 . S
C91 C92 1.386 . S
C91 C93 1.391 . S
C92 C91 1.386 . S
C92 C96 1.393 . S
C93 H85 0.950 . S
C93 C91 1.391 . S
C93 C94 1.400 . S
C94 C93 1.400 . S
C94 C95 1.398 . S
C94 C100 1.491 . S
C95 H86 0.950 . S
C95 C94 1.398 . S
C95 C96 1.391 . S
C96 H84 0.950 . S
C96 C92 1.393 . S
C96 C95 1.391 . S
C97 H87 0.950 . S
C97 C98 1.386 . S
C97 C99 1.391 . S
C98 C97 1.386 . S
C98 C102 1.393 . S
C99 H88 0.950 . S
C99 C97 1.391 . S
C99 C100 1.400 . S
C100 C94 1.491 . S
C100 C99 1.400 . S
C100 C101 1.398 . S
C101 H89 0.950 . S
C101 C100 1.398 . S
C101 C102 1.391 . S
C102 H90 0.950 . S
C102 C98 1.393 . S
C102 C101 1.391 . S
H103 C111 0.950 . S
H104 C116 0.950 . S
H105 C113 0.950 . S
H106 C115 0.950 . S
H107 C117 0.950 . S
H108 C119 0.950 . S
H109 C121 0.950 . S
H110 C122 0.950 . S
C111 H103 0.950 . S
C111 C112 1.386 . S
C111 C113 1.391 . S
C112 C111 1.386 . S
C112 C116 1.393 . S
C113 H105 0.950 . S
C113 C111 1.391 . S
C113 C114 1.400 . S
C114 C113 1.400 . S
C114 C115 1.398 . S
C114 C120 1.491 . S
C115 H106 0.950 . S
C115 C114 1.398 . S
C115 C116 1.391 . S
C116 H104 0.950 . S
C116 C112 1.393 . S
C116 C115 1.391 . S
C117 H107 0.950 . S
C117 C118 1.386 . S
C117 C119 1.391 . S
C118 C117 1.386 . S
C118 C122 1.393 . S
C119 H108 0.950 . S
C119 C117 1.391 . S
C119 C120 1.400 . S
C120 C114 1.491 . S
C120 C119 1.400 . S
C120 C121 1.398 . S
C121 H109 0.950 . S
C121 C120 1.398 . S
C121 C122 1.391 . S
C122 H110 0.950 . S
C122 C118 1.393 . S
C122 C121 1.391 . S
H123 C131 0.950 . S
H124 C136 0.950 . S
H125 C133 0.950 . S
H126 C135 0.950 . S
H127 C137 0.950 . S
H128 C139 0.950 . S
H129 C141 0.950 . S
H130 C142 0.950 . S
C131 H123 0.950 . S
C131 C132 1.386 . S
C131 C133 1.391 . S
C132 C131 1.386 . S
C132 C136 1.393 . S
C133 H125 0.950 . S
C133 C131 1.391 . S
C133 C134 1.400 . S
C134 C133 1.400 . S
C134 C135 1.398 . S
C134 C140 1.491 . S
C135 H126 0.950 . S
C135 C134 1.398 . S
C135 C136 1.391 . S
C136 H124 0.950 . S
C136 C132 1.393 . S
C136 C135 1.391 . S
C137 H127 0.950 . S
C137 C138 1.386 . S
C137 C139 1.391 . S
C138 C137 1.386 . S
C138 C142 1.393 . S
C139 H128 0.950 . S
C139 C137 1.391 . S
C139 C140 1.400 . S
C140 C134 1.491 . S
C140 C139 1.400 . S
C140 C141 1.398 . S
C141 H129 0.950 . S
C141 C140 1.398 . S
C141 C142 1.391 . S
C142 H130 0.950 . S
C142 C138 1.393 . S
C142 C141 1.391 . S
H143 C151 0.950 . S
H144 C156 0.950 . S
H145 C153 0.950 . S
H146 C155 0.950 . S
H147 C157 0.950 . S
H148 C159 0.950 . S
H149 C161 0.950 . S
H150 C162 0.950 . S
C151 H143 0.950 . S
C151 C152 1.386 . S
C151 C153 1.391 . S
C152 C151 1.386 . S
C152 C156 1.393 . S
C153 H145 0.950 . S
C153 C151 1.391 . S
C153 C154 1.400 . S
C154 C153 1.400 . S
C154 C155 1.398 . S
C154 C160 1.491 . S
C155 H146 0.950 . S
C155 C154 1.398 . S
C155 C156 1.391 . S
C156 H144 0.950 . S
C156 C152 1.393 . S
C156 C155 1.391 . S
C157 H147 0.950 . S
C157 C158 1.386 . S
C157 C159 1.391 . S
C158 C157 1.386 . S
C158 C162 1.393 . S
C159 H148 0.950 . S
C159 C157 1.391 . S
C159 C160 1.400 . S
C160 C154 1.491 . S
C160 C159 1.400 . S
C160 C161 1.398 . S
C161 H149 0.950 . S
C161 C160 1.398 . S
C161 C162 1.391 . S
C162 H150 0.950 . S
C162 C158 1.393 . S
C162 C161 1.391 . S
H163 C171 0.950 . S
H164 C176 0.950 . S
H165 C173 0.950 . S
H166 C175 0.950 . S
H167 C177 0.950 . S
H168 C179 0.950 . S
H169 C181 0.950 . S
H170 C182 0.950 . S
C171 H163 0.950 . S
C171 C172 1.386 . S
C171 C173 1.391 . S
C172 C171 1.386 . S
C172 C176 1.393 . S
C173 H165 0.950 . S
C173 C171 1.391 . S
C173 C174 1.400 . S
C174 C173 1.400 . S
C174 C175 1.398 . S
C174 C180 1.491 . S
C175 H166 0.950 . S
C175 C174 1.398 . S
C175 C176 1.391 . S
C176 H164 0.950 . S
C176 C172 1.393 . S
C176 C175 1.391 . S
C177 H167 0.950 . S
C177 C178 1.386 . S
C177 C179 1.391 . S
C178 C177 1.386 . S
C178 C182 1.393 . S
C179 H168 0.950 . S
C179 C177 1.391 . S
C179 C180 1.400 . S
C180 C174 1.491 . S
C180 C179 1.400 . S
C180 C181 1.398 . S
C181 H169 0.950 . S
C181 C180 1.398 . S
C181 C182 1.391 . S
C182 H170 0.950 . S
C182 C178 1.393 . S
C182 C181 1.391 . S
H183 C191 0.950 . S
H184 C196 0.950 . S
H185 C193 0.950 . S
H186 C195 0.950 . S
H187 C197 0.950 . S
H188 C199 0.950 . S
H189 C201 0.950 . S
H190 C202 0.950 . S
C191 H183 0.950 . S
C191 C192 1.386 . S
C191 C193 1.391 . S
C192 C191 1.386 . S
C192 C196 1.393 . S
C193 H185 0.950 . S
C193 C191 1.391 . S
C193 C194 1.400 . S
C194 C193 1.400 . S
C194 C195 1.398 . S
C194 C200 1.491 . S
C195 H186 0.950 . S
C195 C194 1.398 . S
C195 C196 1.391 . S
C196 H184 0.950 . S
C196 C192 1.393 . S
C196 C195 1.391 . S
C197 H187 0.950 . S
C197 C198 1.386 . S
C197 C199 1.391 . S
C198 C197 1.386 . S
C198 C202 1.393 . S
C199 H188 0.950 . S
C199 C197 1.391 . S
C199 C200 1.400 . S
C200 C194 1.491 . S
C200 C199 1.400 . S
C200 C201 1.398 . S
C201 H189 0.950 . S
C201 C200 1.398 . S
C201 C202 1.391 . S
C202 H190 0.950 . S
C202 C198 1.393 . S
C202 C201 1.391 . S
H203 C211 0.950 . S
H204 C216 0.950 . S
H205 C213 0.950 . S
H206 C215 0.950 . S
H207 C217 0.950 . S
H208 C219 0.950 . S
H209 C221 0.950 . S
H210 C222 0.950 . S
C211 H203 0.950 . S
C211 C212 1.386 . S
C211 C213 1.391 . S
C212 C211 1.386 . S
C212 C216 1.393 . S
C213 H205 0.950 . S
C213 C211 1.391 . S
C213 C214 1.400 . S
C214 C213 1.400 . S
C214 C215 1.398 . S
C214 C220 1.491 . S
C215 H206 0.950 . S
C215 C214 1.398 . S
C215 C216 1.391 . S
C216 H204 0.950 . S
C216 C212 1.393 . S
C216 C215 1.391 . S
C217 H207 0.950 . S
C217 C218 1.386 . S
C217 C219 1.391 . S
C218 C217 1.386 . S
C218 C222 1.393 . S
C219 H208 0.950 . S
C219 C217 1.391 . S
C219 C220 1.400 . S
C220 C214 1.491 . S
C220 C219 1.400 . S
C220 C221 1.398 . S
C221 H209 0.950 . S
C221 C220 1.398 . S
C221 C222 1.391 . S
C222 H210 0.950 . S
C222 C218 1.393 . S
C222 C221 1.391 . S
C72 C23 1.311 . S
C78 C42 1.336 . S
C92 C24 1.589 . S
C98 C34 1.586 . S
C112 C8 1.351 . S
C118 C51 1.359 . S
C132 C22 1.522 . S
C138 C52 1.527 . S
C152 C17 1.588 . S
C158 C61 1.594 . S
C178 C62 1.339 . S
C172 C27 1.310 . S
C192 C30 1.493 . S
C198 C33 1.528 . S
C218 C32 1.346 . S
C212 C31 1.384 . S
