# Generated by pormake.
# Topology scu, (8,4)-cn, num edge types: 1
# Building blocks:
#     Node 0, Type 0, BuildingBlock: TAGTUT_clean_sbu_3, # of connection points: 8
#     Node 1, Type 1, BuildingBlock: NAWXER_clean_sbu_0, # of connection points: 4
#     Node 2, Type 1, BuildingBlock: NAWXER_clean_sbu_0, # of connection points: 4
#     Edge 3, Type (0, 1), BuildingBlock: XIVTED_clean_linker_0, # of connection points: 2
#     Edge 4, Type (0, 1), BuildingBlock: XIVTED_clean_linker_0, # of connection points: 2
#     Edge 5, Type (0, 1), BuildingBlock: XIVTED_clean_linker_0, # of connection points: 2
#     Edge 6, Type (0, 1), BuildingBlock: XIVTED_clean_linker_0, # of connection points: 2
#     Edge 7, Type (0, 1), BuildingBlock: XIVTED_clean_linker_0, # of connection points: 2
#     Edge 8, Type (0, 1), BuildingBlock: XIVTED_clean_linker_0, # of connection points: 2
#     Edge 9, Type (0, 1), BuildingBlock: XIVTED_clean_linker_0, # of connection points: 2
#     Edge 10, Type (0, 1), BuildingBlock: XIVTED_clean_linker_0, # of connection points: 2
# Relax obj value: 0.033
# Max RMSD: 0.097
# Mean RMSD: 0.064
data_MOF--net-scu--node1-TAGTUT_clean_sbu_3--node2-NAWXER_clean_sbu_0--edge1-XIVTED_clean_linker_0
_symmetry_space_group_name_H-M    P1
_symmetry_Int_Tables_number       1
_symmetry_cell_setting            triclinic
loop_
_symmetry_equiv_pos_as_xyz
'x, y, z'
_cell_length_a     27.248847
_cell_length_b     22.782918
_cell_length_c     20.213056
_cell_angle_alpha  89.953316
_cell_angle_beta   90.91679
_cell_angle_gamma 89.891226
loop_
_atom_site_label
_atom_site_type_symbol
_atom_site_fract_x
_atom_site_fract_y
_atom_site_fract_z
_atom_type_partial_charge
C0 C 0.99341 0.89777 0.10536 0.0
C1 C 0.82065 0.00908 0.07153 0.0
C2 C 0.86505 0.01025 0.86911 0.0
Mg3 Mg 0.09624 0.92329 0.01938 0.0
Mg4 Mg 0.11053 0.06172 0.97749 0.0
O5 O 0.07309 0.99258 0.96664 0.0
Mg6 Mg 0.00436 7e-05 -0.00307 0.0
O7 O 0.93561 0.00592 0.02709 0.0
Mg8 Mg 0.90897 0.92919 -0.00438 0.0
Mg9 Mg 0.90264 0.07283 0.99324 0.0
C10 C 0.01797 0.11062 0.89709 0.0
O11 O 0.02034 0.08169 0.05961 0.0
O12 O 0.16701 0.93012 0.95015 0.0
O13 O 0.95518 0.13822 0.03146 0.0
O14 O 0.13583 0.97649 0.09694 0.0
O15 O 0.17021 0.02687 0.92497 0.0
O16 O 0.13744 0.07261 0.07921 0.0
O17 O 0.98233 0.91874 0.93605 0.0
O18 O 0.05321 0.86945 0.94488 0.0
C19 C 0.0089 0.8736 0.92363 0.0
C20 C 0.1865 0.97442 0.92011 0.0
O21 O 0.99167 0.06655 0.91393 0.0
O22 O 0.83876 0.95807 0.05725 0.0
O23 O 0.0615 0.11978 0.9205 0.0
O24 O 0.87232 0.96431 0.90349 0.0
O25 O 0.83964 0.05703 0.05107 0.0
O26 O 0.87865 0.06057 0.89028 0.0
O27 O 0.0229 0.93413 0.07855 0.0
O28 O 0.94884 0.89279 0.0854 0.0
C29 C 0.14727 0.02798 0.11546 0.0
C30 C 0.99714 0.13086 0.06069 0.0
C31 C 0.02591 0.54418 0.60907 0.0
C32 C 0.04474 0.42462 0.40955 0.0
O33 O 0.0661 0.52296 0.58835 0.0
Zn34 Zn 0.03902 0.48192 0.51118 0.0
O35 O 0.98583 0.53395 0.57754 0.0
Zn36 Zn 0.96037 0.49004 0.49199 0.0
O37 O 0.91621 0.43145 0.52872 0.0
O38 O 0.99488 0.41521 0.55142 0.0
O39 O 1.00085 0.44193 0.42055 0.0
O40 O 0.07926 0.43649 0.45064 0.0
O41 O 0.01763 0.55331 0.45055 0.0
O42 O 0.93679 0.55577 0.43917 0.0
C43 C 0.94983 0.40004 0.55519 0.0
C44 C 0.97876 0.57736 0.42674 0.0
C45 C 0.58194 0.96844 0.56179 0.0
C46 C 0.42824 0.97427 0.42839 0.0
O47 O 0.55973 0.92161 0.54369 0.0
Zn48 Zn 0.50303 0.96124 0.49931 0.0
O49 O 0.56255 0.01836 0.54951 0.0
Zn50 Zn 0.50336 0.05961 0.50286 0.0
O51 O 0.46656 0.09408 0.57698 0.0
O52 O 0.46654 -0.00286 0.5801 0.0
O53 O 0.44695 0.02287 0.447 0.0
O54 O 0.44743 0.92596 0.44802 0.0
O55 O 0.54053 0.00374 0.42285 0.0
O56 O 0.53974 0.10039 0.43219 0.0
C57 C 0.45429 0.04631 0.60523 0.0
C58 C 0.55288 0.05419 0.40117 0.0
H59 H 0.06943 0.1258 0.15681 0.0
H60 H 1.00259 0.44351 0.28993 0.0
H61 H 0.97056 0.24669 0.05784 0.0
H62 H 0.10447 0.32841 0.39153 0.0
H63 H 1.00248 0.37797 0.19499 0.0
H64 H 0.09397 0.20401 0.23313 0.0
C65 C 0.0536 0.16906 0.15017 0.0
C66 C 0.01748 0.17951 0.10111 0.0
C67 C 0.02549 0.36714 0.23746 0.0
C68 C 0.04499 0.26898 0.18896 0.0
C69 C 0.02561 0.40466 0.29165 0.0
C70 C 0.05318 0.39086 0.34869 0.0
C71 C 0.05236 0.31457 0.24064 0.0
C72 C 0.08271 0.34043 0.34831 0.0
C73 C 0.0675 0.21364 0.19407 0.0
C74 C 0.99799 0.23632 0.0954 0.0
N75 N 0.08083 0.30333 0.29544 0.0
N76 N 0.01163 0.27863 0.13918 0.0
H77 H 0.75832 0.92307 0.11865 0.0
H78 H 0.61497 0.14216 0.35822 0.0
H79 H 0.78472 0.10996 0.12492 0.0
H80 H 0.56572 0.96661 0.31251 0.0
H81 H 0.67799 0.13201 0.2731 0.0
H82 H 0.68869 0.9375 0.19269 0.0
C83 C 0.74953 0.96696 0.1353 0.0
C84 C 0.77756 0.01516 0.11526 0.0
C85 C 0.65294 0.09601 0.28141 0.0
C86 C 0.69823 0.03211 0.2001 0.0
C87 C 0.61679 0.10207 0.32961 0.0
C88 C 0.58535 0.05508 0.34302 0.0
C89 C 0.6577 0.04251 0.24701 0.0
C90 C 0.5896 0.00381 0.30463 0.0
C91 C 0.7097 0.9753 0.17738 0.0
C92 C 0.76428 0.07123 0.13861 0.0
N93 N 0.62535 -0.00133 0.2591 0.0
N94 N 0.72593 0.07804 0.17988 0.0
H95 H 0.06849 0.81918 0.12553 0.0
H96 H 0.91021 0.66196 0.39654 0.0
H97 H 0.94534 0.90141 0.21959 0.0
H98 H 0.06066 0.61198 0.3627 0.0
H99 H 0.92266 0.74976 0.32892 0.0
H100 H 0.06982 0.74409 0.21325 0.0
C101 C 0.0431 0.82256 0.16607 0.0
C102 C 0.00663 0.86582 0.16575 0.0
C103 C 0.95304 0.71972 0.33681 0.0
C104 C 0.0065 0.78006 0.26357 0.0
C105 C 0.94572 0.66943 0.37476 0.0
C106 C 0.98434 0.62977 0.38499 0.0
C107 C 0.99903 0.72966 0.30811 0.0
C108 C 0.02989 0.64166 0.35611 0.0
C109 C 0.04339 0.77955 0.21553 0.0
C110 C 0.97382 0.86819 0.21836 0.0
N111 N 0.03588 0.69031 0.31844 0.0
N112 N 0.97389 0.82521 0.26455 0.0
H113 H 0.21768 0.11039 0.14544 0.0
H114 H 0.34873 0.89889 0.4134 0.0
H115 H 0.15102 0.95223 0.21933 0.0
H116 H 0.41004 0.06061 0.34058 0.0
H117 H 0.27411 0.91818 0.34599 0.0
H118 H 0.28497 0.09737 0.22584 0.0
C119 C 0.21644 0.07398 0.17987 0.0
C120 C 0.1791 0.03202 0.17516 0.0
C121 C 0.30407 0.9493 0.34495 0.0
C122 C 0.25662 0.01548 0.26563 0.0
C123 C 0.34675 0.93783 0.3827 0.0
C124 C 0.38547 0.9782 0.38269 0.0
C125 C 0.30056 0.00125 0.30707 0.0
C126 C 0.38087 0.02846 0.3426 0.0
C127 C 0.25523 0.06592 0.22514 0.0
C128 C 0.17957 0.98524 0.22074 0.0
N129 N 0.33935 0.03854 0.30672 0.0
N130 N 0.2181 0.97769 0.26331 0.0
H131 H 0.03685 0.87764 0.7974 0.0
H132 H 0.9548 0.55506 0.70088 0.0
H133 H 0.9559 0.77257 0.93505 0.0
H134 H 0.0912 0.63139 0.63871 0.0
H135 H 0.94294 0.63805 0.77637 0.0
H136 H 0.04136 0.79341 0.72267 0.0
C137 C 0.01819 0.83737 0.81042 0.0
C138 C 0.99505 0.83203 0.8715 0.0
C139 C 0.97572 0.63612 0.74683 0.0
C140 C 1.00171 0.73524 0.78791 0.0
C141 C 0.98272 0.58878 0.70423 0.0
C142 C 0.02429 0.58635 0.66412 0.0
C143 C 0.00981 0.68205 0.74768 0.0
C144 C 0.05908 0.6313 0.66954 0.0
C145 C 0.02168 0.78912 0.76855 0.0
C146 C 0.97298 0.77851 0.88751 0.0
N147 N 0.05067 0.6779 0.70984 0.0
N148 N 0.97696 0.73179 0.84591 0.0
H149 H 0.18106 -0.00048 0.79099 0.0
H150 H 0.46452 0.9778 0.71438 0.0
H151 H 0.28283 0.94112 0.94253 0.0
H152 H 0.36812 0.10545 0.62323 0.0
H153 H 0.40014 0.95348 0.79338 0.0
H154 H 0.24976 0.02215 0.71937 0.0
C155 C 0.21801 0.98947 0.8082 0.0
C156 C 0.22633 0.96747 0.87226 0.0
C157 C 0.39345 0.9876 0.75698 0.0
C158 C 0.30536 -0.00462 0.79138 0.0
C159 C 0.43021 0.00192 0.71234 0.0
C160 C 0.42172 0.04426 0.66282 0.0
C161 C 0.34736 0.01455 0.75068 0.0
C162 C 0.37642 0.07337 0.66136 0.0
C163 C 0.2572 0.00352 0.76784 0.0
C164 C 0.27492 0.95671 0.89289 0.0
N165 N 0.3406 0.05723 0.70391 0.0
N166 N 0.31284 0.97099 0.85252 0.0
H167 H 0.92684 0.16112 0.88572 0.0
H168 H 0.98934 0.29436 0.53262 0.0
H169 H 0.0664 0.14745 0.78947 0.0
H170 H 0.89049 0.38478 0.66214 0.0
H171 H 0.99697 0.2151 0.61338 0.0
H172 H 0.8962 0.22278 0.79337 0.0
C173 C 0.95073 0.17078 0.84486 0.0
C174 C 0.9991 0.14954 0.84471 0.0
C175 C 0.9726 0.25152 0.62349 0.0
C176 C 0.96438 0.21801 0.73965 0.0
C177 C 0.96779 0.29629 0.57721 0.0
C178 C 0.93941 0.34585 0.59124 0.0
C179 C 0.94931 0.25678 0.68452 0.0
C180 C 0.91247 0.34684 0.64973 0.0
C181 C 0.93334 0.20581 0.79261 0.0
C182 C 0.02905 0.16361 0.79153 0.0
N183 N 0.91881 0.30323 0.69528 0.0
N184 N 0.01111 0.19669 0.74092 0.0
H185 H 0.84055 0.90801 0.80705 0.0
H186 H 0.64522 0.05948 0.56517 0.0
H187 H 0.81996 0.09564 0.79221 0.0
H188 H 0.63143 0.87996 0.63106 0.0
H189 H 0.7214 0.0683 0.62759 0.0
H190 H 0.77722 0.89384 0.72228 0.0
C191 C 0.82329 0.94646 0.78527 0.0
C192 C 0.83504 0.0033 0.80787 0.0
C193 C 0.70198 0.02686 0.62827 0.0
C194 C 0.76244 0.98678 0.71036 0.0
C195 C 0.65826 0.02157 0.59272 0.0
C196 C 0.6311 0.96908 0.59405 0.0
C197 C 0.71932 0.97933 0.6656 0.0
C198 C 0.65086 0.92131 0.62919 0.0
C199 C 0.78696 0.93806 0.73702 0.0
C200 C 0.81192 0.05113 0.77681 0.0
N201 N 0.69372 0.92776 0.6643 0.0
N202 N 0.77631 0.04173 0.73002 0.0
loop_
_geom_bond_atom_site_label_1
_geom_bond_atom_site_label_2
_geom_bond_distance
_geom_bond_site_symmetry_2
_ccdc_geom_bond_type
C0 O27 1.312 1_655 S
C0 O28 1.208 . S
C1 O22 1.331 . S
C1 O25 1.244 1_565 S
C2 O24 1.264 1_545 S
C2 O26 1.273 . S
Mg3 O5 1.936 1_565 S
Mg3 O12 2.081 . S
Mg3 O14 2.023 1_556 S
Mg3 O18 2.031 . S
Mg3 O27 2.291 1_556 S
Mg4 O5 1.963 . S
Mg4 O15 1.942 . S
Mg4 O16 1.955 1_556 S
Mg4 O23 1.986 . S
O5 Mg3 1.936 1_545 S
O5 Mg4 1.963 . S
O5 Mg6 1.915 1_556 S
Mg6 O5 1.915 1_554 S
Mg6 O7 1.915 1_455 S
Mg6 O11 2.013 . S
Mg6 O17 2.114 1_444 S
Mg6 O21 2.013 1_454 S
Mg6 O27 2.114 1_545 S
O7 Mg6 1.915 1_655 S
O7 Mg8 1.936 1_545 S
O7 Mg9 1.963 . S
Mg8 O7 1.936 1_565 S
Mg8 O17 2.291 1_554 S
Mg8 O22 2.081 . S
Mg8 O24 2.023 1_554 S
Mg8 O28 2.031 . S
Mg9 O7 1.963 . S
Mg9 O13 1.986 . S
Mg9 O25 1.942 . S
Mg9 O26 1.955 1_554 S
C10 O21 1.191 1_455 S
C10 O23 1.307 . S
O11 Mg6 2.013 . S
O11 C30 1.191 1_455 S
O12 Mg3 2.081 . S
O12 C20 1.331 . S
O13 Mg9 1.986 . S
O13 C30 1.307 . S
O14 Mg3 2.023 1_554 S
O14 C29 1.264 1_565 S
O15 Mg4 1.942 . S
O15 C20 1.244 1_545 S
O16 Mg4 1.955 1_554 S
O16 C29 1.273 . S
O17 Mg6 2.114 1_666 S
O17 Mg8 2.291 1_556 S
O17 C19 1.312 1_655 S
O18 Mg3 2.031 . S
O18 C19 1.208 . S
C19 O17 1.312 1_455 S
C19 O18 1.208 . S
C20 O12 1.331 . S
C20 O15 1.244 1_565 S
O21 Mg6 2.013 1_656 S
O21 C10 1.191 1_655 S
O22 C1 1.331 . S
O22 Mg8 2.081 . S
O23 Mg4 1.986 . S
O23 C10 1.307 . S
O24 C2 1.264 1_565 S
O24 Mg8 2.023 1_556 S
O25 C1 1.244 1_545 S
O25 Mg9 1.942 . S
O26 C2 1.273 . S
O26 Mg9 1.955 1_556 S
O27 C0 1.312 1_455 S
O27 Mg3 2.291 1_554 S
O27 Mg6 2.114 1_565 S
O28 C0 1.208 . S
O28 Mg8 2.031 . S
C29 O14 1.264 1_545 S
C29 O16 1.273 . S
C30 O11 1.191 1_655 S
C30 O13 1.307 . S
C31 O33 1.251 . S
C31 O35 1.254 1_455 S
C32 O39 1.246 . S
C32 O40 1.259 1_655 S
O33 C31 1.251 . S
O33 Zn34 2.028 . S
Zn34 O33 2.028 . S
Zn34 O38 2.035 . S
Zn34 O40 2.035 . S
Zn34 O41 2.028 . S
O35 C31 1.254 1_655 S
O35 Zn36 2.035 . S
Zn36 O35 2.035 . S
Zn36 O37 2.028 . S
Zn36 O39 2.028 . S
Zn36 O42 2.035 . S
O37 Zn36 2.028 . S
O37 C43 1.246 . S
O38 Zn34 2.035 . S
O38 C43 1.259 1_455 S
O39 C32 1.246 . S
O39 Zn36 2.028 . S
O40 C32 1.259 1_455 S
O40 Zn34 2.035 . S
O41 Zn34 2.028 . S
O41 C44 1.251 . S
O42 Zn36 2.035 . S
O42 C44 1.253 1_655 S
C43 O37 1.246 . S
C43 O38 1.259 1_655 S
C44 O41 1.251 . S
C44 O42 1.253 1_455 S
C45 O47 1.247 1_545 S
C45 O49 1.258 . S
C46 O53 1.247 . S
C46 O54 1.258 1_545 S
O47 C45 1.247 1_565 S
O47 Zn48 2.028 . S
Zn48 O47 2.028 . S
Zn48 O52 2.035 . S
Zn48 O54 2.035 . S
Zn48 O55 2.028 . S
O49 C45 1.258 . S
O49 Zn50 2.035 . S
Zn50 O49 2.035 . S
Zn50 O51 2.028 . S
Zn50 O53 2.028 . S
Zn50 O56 2.035 . S
O51 Zn50 2.028 . S
O51 C57 1.247 . S
O52 Zn48 2.035 . S
O52 C57 1.258 1_565 S
O53 C46 1.247 . S
O53 Zn50 2.028 . S
O54 C46 1.258 1_565 S
O54 Zn48 2.035 . S
O55 Zn48 2.028 . S
O55 C58 1.247 1_565 S
O56 Zn50 2.035 . S
O56 C58 1.258 . S
C57 O51 1.247 . S
C57 O52 1.258 1_545 S
C58 O55 1.247 1_545 S
C58 O56 1.258 . S
H59 C65 0.930 . S
H60 C69 0.930 . S
H61 C74 0.929 . S
H62 C72 0.929 . S
H63 C67 0.929 . S
H64 C73 0.929 . S
C65 H59 0.930 . S
C65 C66 1.362 1_455 S
C65 C73 1.378 . S
C66 C65 1.362 1_655 S
C66 C74 1.438 . S
C67 H63 0.929 . S
C67 C69 1.378 . S
C67 C71 1.350 . S
C68 C71 1.462 1_455 S
C68 C73 1.352 . S
C68 N76 1.426 1_455 S
C69 H60 0.930 . S
C69 C67 1.378 . S
C69 C70 1.373 . S
C70 C69 1.373 . S
C70 C72 1.427 1_655 S
C71 C67 1.350 . S
C71 C68 1.462 1_655 S
C71 N75 1.427 1_655 S
C72 H62 0.929 . S
C72 C70 1.427 1_455 S
C72 N75 1.384 . S
C73 H64 0.929 . S
C73 C65 1.378 . S
C73 C68 1.352 . S
C74 H61 0.929 . S
C74 C66 1.438 . S
C74 N76 1.384 . S
N75 C71 1.427 1_455 S
N75 C72 1.384 . S
N76 C68 1.426 1_655 S
N76 C74 1.384 . S
H77 C83 0.930 . S
H78 C87 0.930 . S
H79 C92 0.929 . S
H80 C90 0.929 . S
H81 C85 0.929 . S
H82 C91 0.929 . S
C83 H77 0.930 . S
C83 C84 1.367 . S
C83 C91 1.378 . S
C84 C83 1.367 . S
C84 C92 1.433 1_565 S
C85 H81 0.929 . S
C85 C87 1.378 . S
C85 C89 1.353 . S
C86 C89 1.462 1_565 S
C86 C91 1.350 . S
C86 N94 1.427 1_565 S
C87 H78 0.930 . S
C87 C85 1.378 . S
C87 C88 1.367 . S
C88 C87 1.367 . S
C88 C90 1.433 1_545 S
C89 C85 1.353 . S
C89 C86 1.462 1_545 S
C89 N93 1.424 1_545 S
C90 H80 0.929 . S
C90 C88 1.433 1_565 S
C90 N93 1.384 . S
C91 H82 0.929 . S
C91 C83 1.378 . S
C91 C86 1.350 . S
C92 H79 0.929 . S
C92 C84 1.433 1_545 S
C92 N94 1.384 . S
N93 C89 1.424 1_565 S
N93 C90 1.384 . S
N94 C86 1.427 1_545 S
N94 C92 1.384 . S
H95 C101 0.930 . S
H96 C105 0.930 . S
H97 C110 0.929 . S
H98 C108 0.929 . S
H99 C103 0.929 . S
H100 C109 0.929 . S
C101 H95 0.930 . S
C101 C102 1.367 . S
C101 C109 1.378 . S
C102 C101 1.367 . S
C102 C110 1.433 1_455 S
C103 H99 0.929 . S
C103 C105 1.378 . S
C103 C107 1.344 1_655 S
C104 C107 1.463 . S
C104 C109 1.350 . S
C104 N112 1.427 1_455 S
C105 H96 0.930 . S
C105 C103 1.378 . S
C105 C106 1.371 . S
C106 C105 1.371 . S
C106 C108 1.429 1_655 S
C107 C103 1.344 1_455 S
C107 C104 1.463 . S
C107 N111 1.433 . S
C108 H98 0.929 . S
C108 C106 1.429 1_455 S
C108 N111 1.384 . S
C109 H100 0.929 . S
C109 C101 1.378 . S
C109 C104 1.350 . S
C110 H97 0.929 . S
C110 C102 1.433 1_655 S
C110 N112 1.384 . S
N111 C107 1.433 . S
N111 C108 1.384 . S
N112 C104 1.427 1_655 S
N112 C110 1.384 . S
H113 C119 0.930 . S
H114 C123 0.930 . S
H115 C128 0.929 . S
H116 C126 0.929 . S
H117 C121 0.929 . S
H118 C127 0.929 . S
C119 H113 0.930 . S
C119 C120 1.367 . S
C119 C127 1.378 . S
C120 C119 1.367 . S
C120 C128 1.433 1_545 S
C121 H117 0.929 . S
C121 C123 1.378 . S
C121 C125 1.350 1_565 S
C122 C125 1.463 . S
C122 C127 1.350 . S
C122 N130 1.427 1_545 S
C123 H114 0.930 . S
C123 C121 1.378 . S
C123 C124 1.367 1_565 S
C124 C123 1.367 1_545 S
C124 C126 1.433 . S
C125 C121 1.350 1_545 S
C125 C122 1.463 . S
C125 N129 1.427 . S
C126 H116 0.929 . S
C126 C124 1.433 . S
C126 N129 1.384 . S
C127 H118 0.929 . S
C127 C119 1.378 . S
C127 C122 1.350 . S
C128 H115 0.929 . S
C128 C120 1.433 1_565 S
C128 N130 1.384 . S
N129 C125 1.427 . S
N129 C126 1.384 . S
N130 C122 1.427 1_565 S
N130 C128 1.384 . S
H131 C137 0.930 . S
H132 C141 0.930 . S
H133 C146 0.929 . S
H134 C144 0.929 . S
H135 C139 0.929 . S
H136 C145 0.929 . S
C137 H131 0.930 . S
C137 C138 1.367 1_455 S
C137 C145 1.378 . S
C138 C137 1.367 1_655 S
C138 C146 1.433 . S
C139 H135 0.929 . S
C139 C141 1.378 . S
C139 C143 1.350 . S
C140 C143 1.463 . S
C140 C145 1.337 1_655 S
C140 N148 1.441 . S
C141 H132 0.930 . S
C141 C139 1.378 . S
C141 C142 1.378 . S
C142 C141 1.378 . S
C142 C144 1.422 1_655 S
C143 C139 1.350 . S
C143 C140 1.463 . S
C143 N147 1.427 1_655 S
C144 H134 0.929 . S
C144 C142 1.422 1_455 S
C144 N147 1.384 . S
C145 H136 0.929 . S
C145 C137 1.378 . S
C145 C140 1.337 1_455 S
C146 H133 0.929 . S
C146 C138 1.433 . S
C146 N148 1.384 . S
N147 C143 1.427 1_455 S
N147 C144 1.384 . S
N148 C140 1.441 . S
N148 C146 1.384 . S
H149 C155 0.930 . S
H150 C159 0.930 . S
H151 C164 0.929 . S
H152 C162 0.929 . S
H153 C157 0.929 . S
H154 C163 0.929 . S
C155 H149 0.930 . S
C155 C156 1.367 1_545 S
C155 C163 1.378 . S
C156 C155 1.367 1_565 S
C156 C164 1.433 . S
C157 H153 0.929 . S
C157 C159 1.378 . S
C157 C161 1.350 . S
C158 C161 1.463 . S
C158 C163 1.350 1_565 S
C158 N166 1.427 . S
C159 H150 0.930 . S
C159 C157 1.378 . S
C159 C160 1.367 1_565 S
C160 C159 1.367 1_545 S
C160 C162 1.433 . S
C161 C157 1.350 . S
C161 C158 1.463 . S
C161 N165 1.427 1_565 S
C162 H152 0.929 . S
C162 C160 1.433 . S
C162 N165 1.384 . S
C163 H154 0.929 . S
C163 C155 1.378 . S
C163 C158 1.350 1_545 S
C164 H151 0.929 . S
C164 C156 1.433 . S
C164 N166 1.384 . S
N165 C161 1.427 1_545 S
N165 C162 1.384 . S
N166 C158 1.427 . S
N166 C164 1.384 . S
H167 C173 0.930 . S
H168 C177 0.930 . S
H169 C182 0.929 . S
H170 C180 0.929 . S
H171 C175 0.929 . S
H172 C181 0.929 . S
C173 H167 0.930 . S
C173 C174 1.361 1_655 S
C173 C181 1.378 . S
C174 C173 1.361 1_455 S
C174 C182 1.439 . S
C175 H171 0.929 . S
C175 C177 1.378 . S
C175 C179 1.350 . S
C176 C179 1.462 1_655 S
C176 C181 1.358 . S
C176 N184 1.420 1_655 S
C177 H168 0.930 . S
C177 C175 1.378 . S
C177 C178 1.367 . S
C178 C177 1.367 . S
C178 C180 1.433 1_455 S
C179 C175 1.350 . S
C179 C176 1.462 1_455 S
C179 N183 1.427 1_455 S
C180 H170 0.929 . S
C180 C178 1.433 1_655 S
C180 N183 1.384 . S
C181 H172 0.929 . S
C181 C173 1.378 . S
C181 C176 1.358 . S
C182 H169 0.929 . S
C182 C174 1.439 . S
C182 N184 1.384 . S
N183 C179 1.427 1_655 S
N183 C180 1.384 . S
N184 C176 1.420 1_455 S
N184 C182 1.384 . S
H185 C191 0.930 . S
H186 C195 0.930 . S
H187 C200 0.929 . S
H188 C198 0.929 . S
H189 C193 0.929 . S
H190 C199 0.929 . S
C191 H185 0.930 . S
C191 C192 1.367 1_565 S
C191 C199 1.378 . S
C192 C191 1.367 1_545 S
C192 C200 1.433 . S
C193 H189 0.929 . S
C193 C195 1.378 . S
C193 C197 1.350 . S
C194 C197 1.463 . S
C194 C199 1.350 1_545 S
C194 N202 1.427 . S
C195 H186 0.930 . S
C195 C193 1.378 . S
C195 C196 1.367 . S
C196 C195 1.367 . S
C196 C198 1.433 1_545 S
C197 C193 1.350 . S
C197 C194 1.463 . S
C197 N201 1.427 1_545 S
C198 H188 0.929 . S
C198 C196 1.433 1_565 S
C198 N201 1.384 . S
C199 H190 0.929 . S
C199 C191 1.378 . S
C199 C194 1.350 1_565 S
C200 H187 0.929 . S
C200 C192 1.433 . S
C200 N202 1.384 . S
N201 C197 1.427 1_565 S
N201 C198 1.384 . S
N202 C194 1.427 . S
N202 C200 1.384 . S
C66 C30 1.350 . S
C70 C32 1.373 . S
C84 C1 1.506 . S
C88 C58 1.527 . S
C102 C0 1.333 1_455 S
C106 C44 1.389 1_655 S
C120 C29 1.537 . S
C124 C46 1.569 . S
C138 C19 1.336 1_655 S
C142 C31 1.389 1_655 S
C156 C20 1.503 . S
C160 C57 1.529 . S
C178 C43 1.376 1_455 S
C174 C10 1.346 . S
C192 C2 1.534 . S
C196 C45 1.571 . S
