# Generated by pormake.
# Topology pts, (4,4)-cn, num edge types: 1
# Building blocks:
#     Node 0, Type 0, BuildingBlock: MUDLON_clean_sbu_0, # of connection points: 4
#     Node 1, Type 0, BuildingBlock: MUDLON_clean_sbu_0, # of connection points: 4
#     Node 2, Type 1, BuildingBlock: AZAVOO_clean_sbu_0, # of connection points: 4
#     Node 3, Type 1, BuildingBlock: AZAVOO_clean_sbu_0, # of connection points: 4
#     Edge 4, Type (0, 1), BuildingBlock: OJICUG_clean_linker_0, # of connection points: 2
#     Edge 5, Type (0, 1), BuildingBlock: OJICUG_clean_linker_0, # of connection points: 2
#     Edge 6, Type (0, 1), BuildingBlock: OJICUG_clean_linker_0, # of connection points: 2
#     Edge 7, Type (0, 1), BuildingBlock: OJICUG_clean_linker_0, # of connection points: 2
#     Edge 8, Type (0, 1), BuildingBlock: OJICUG_clean_linker_0, # of connection points: 2
#     Edge 9, Type (0, 1), BuildingBlock: OJICUG_clean_linker_0, # of connection points: 2
#     Edge 10, Type (0, 1), BuildingBlock: OJICUG_clean_linker_0, # of connection points: 2
#     Edge 11, Type (0, 1), BuildingBlock: OJICUG_clean_linker_0, # of connection points: 2
# Relax obj value: 0.032
# Max RMSD: 0.087
# Mean RMSD: 0.073
data_MOF--net-pts--node1-MUDLON_clean_sbu_0--node2-AZAVOO_clean_sbu_0--edge1-OJICUG_clean_linker_0
_symmetry_space_group_name_H-M    P1
_symmetry_Int_Tables_number       1
_symmetry_cell_setting            triclinic
loop_
_symmetry_equiv_pos_as_xyz
'x, y, z'
_cell_length_a     16.544125
_cell_length_b     17.951993
_cell_length_c     27.044252
_cell_angle_alpha  91.33111
_cell_angle_beta   97.35662
_cell_angle_gamma 90.255427
loop_
_atom_site_label
_atom_site_type_symbol
_atom_site_fract_x
_atom_site_fract_y
_atom_site_fract_z
_atom_type_partial_charge
Mg0 Mg 0.59746 0.05506 0.05849 0.0
C1 C 0.51579 0.01806 0.95373 0.0
O2 O 0.57815 0.0565 0.94224 0.0
C3 C 0.73947 0.95585 0.10789 0.0
O4 O 0.76534 0.95118 0.06397 0.0
C5 C 0.4623 0.05405 0.11411 0.0
O6 O 0.46306 -0.0098 0.08947 0.0
O7 O 0.51547 0.10326 0.10754 0.0
O8 O 0.51326 0.00156 0.99904 0.0
O9 O 0.67663 0.12354 1.01884 0.0
C10 C 0.75399 0.12365 1.02834 0.0
O11 O 0.78764 0.10478 0.07286 0.0
O12 O 0.67184 -0.01289 0.11204 0.0
Mg13 Mg 0.0472 0.4765 0.56941 0.0
C14 C 0.13827 0.60084 0.62645 0.0
O15 O 0.1532 0.61475 0.58098 0.0
C16 C 0.14524 0.37238 0.50333 0.0
O17 O 0.16507 0.43115 0.47936 0.0
C18 C 1.0136 0.55205 0.46547 0.0
O19 O 1.01436 0.4852 0.4448 0.0
O20 O 1.01834 0.55944 0.51264 0.0
O21 O 0.10516 0.53898 0.63415 0.0
O22 O 0.94531 0.41992 0.59523 0.0
C23 C 0.94902 0.41125 0.64206 0.0
O24 O 0.97736 0.46655 0.67207 0.0
O25 O 0.10938 0.38067 0.54198 0.0
Mg26 Mg 0.15861 0.94059 0.34131 0.0
O27 O 0.03972 0.94568 0.28792 0.0
O28 O 0.9353 0.938 0.33219 0.0
Mg29 Mg 0.98748 0.92622 0.4146 0.0
C30 C 0.96332 0.94304 0.29052 0.0
C31 C 0.27571 0.03484 0.27877 0.0
O32 O 0.29261 0.07546 0.31986 0.0
O33 O 0.14565 0.0602 0.37161 0.0
O34 O 0.04901 0.04127 0.42074 0.0
O35 O 0.1526 0.81476 0.33419 0.0
O36 O 0.10014 0.88046 0.39185 0.0
C37 C 0.10219 0.08305 0.40466 0.0
C38 C 0.11083 0.81657 0.37155 0.0
O39 O 0.22656 0.97987 0.27792 0.0
Mg40 Mg 0.02525 0.97669 0.78606 0.0
O41 O 0.15741 -0.00661 0.82269 0.0
O42 O 0.23627 -0.00371 0.76156 0.0
Mg43 Mg 0.15673 0.97649 0.68648 0.0
C44 C 0.22741 -0.00121 0.8078 0.0
C45 C 0.91518 0.059 0.8554 0.0
O46 O 0.88037 0.07764 0.81104 0.0
O47 O 1.01699 0.09574 0.7567 0.0
O48 O 0.08652 0.08538 0.69133 0.0
O49 O 0.04247 0.85166 0.78954 0.0
O50 O 0.06757 0.91909 0.72627 0.0
C51 C 0.04071 0.12205 0.7175 0.0
C52 C 0.06948 0.85516 0.74676 0.0
O53 O 0.97697 0.01643 0.85844 0.0
C54 C 0.33879 0.01404 0.14985 0.0
C55 C 0.40719 0.06139 0.15287 0.0
H56 H 0.24374 0.96901 0.18674 0.0
C57 C 0.42716 0.10648 0.1959 0.0
H58 H 0.32132 0.9791 0.11697 0.0
C59 C 0.3825 0.10034 0.23646 0.0
C60 C 0.31727 0.04914 0.23443 0.0
H61 H 0.4798 0.14321 0.19932 0.0
H62 H 0.40123 0.13331 0.27004 0.0
C63 C 0.2944 0.00802 0.19001 0.0
C64 C 0.97434 0.27568 0.6286 0.0
C65 C 0.95857 0.33458 0.66107 0.0
H66 H 1.01437 0.16358 0.62124 0.0
C67 C 0.96436 0.32139 0.71254 0.0
H68 H 0.9707 0.28356 0.58879 0.0
C69 C 0.98873 0.25163 0.73123 0.0
C70 C 1.0096 0.19462 0.69883 0.0
H71 H 0.95266 0.3657 0.7385 0.0
H72 H 0.99436 0.24327 0.77106 0.0
C73 C 1.00043 0.20697 0.6473 0.0
C74 C 0.76697 0.94545 0.20075 0.0
C75 C 0.79597 0.94296 0.15404 0.0
H76 H 0.79647 0.94794 0.28014 0.0
C77 C 0.88036 0.93764 0.15259 0.0
H78 H 0.70231 0.9497 0.20325 0.0
C79 C 0.9346 0.93764 0.19682 0.0
C80 C 0.90569 0.94241 0.24357 0.0
H81 H 0.90486 0.93631 0.11731 0.0
H82 H 0.99931 0.93471 0.19427 0.0
C83 C 0.82108 0.94496 0.24492 0.0
C84 C 0.10402 0.65408 0.70825 0.0
C85 C 0.13695 0.6633 0.66321 0.0
H86 H 0.0573 0.70772 0.77041 0.0
C87 C 0.15683 0.73546 0.64977 0.0
H88 H 0.08806 0.59914 0.71979 0.0
C89 C 0.13801 0.79722 0.67818 0.0
C90 C 0.10011 0.78875 0.72138 0.0
H91 H 0.18252 0.74486 0.61553 0.0
H92 H 0.15022 0.85158 0.66467 0.0
C93 C 0.08608 0.7163 0.73719 0.0
C94 C 0.448 0.02079 0.86558 0.0
C95 C 0.44316 0.00692 0.91606 0.0
H96 H 0.38413 0.02966 0.79204 0.0
C97 C 0.36679 -0.01025 0.93065 0.0
H98 H 0.50583 0.03446 0.85311 0.0
C99 C 0.29661 -0.01184 0.8957 0.0
C100 C 0.30131 0.00296 0.84527 0.0
H101 H 0.36078 0.97946 0.96933 0.0
H102 H 0.2387 0.97514 0.90827 0.0
C103 C 0.37804 0.01848 0.83058 0.0
C104 C 0.16903 0.28504 0.43199 0.0
C105 C 0.14531 0.29683 0.47976 0.0
H106 H 0.17416 0.20786 0.37033 0.0
C107 C 0.11158 0.23688 0.50285 0.0
H108 H 0.19503 0.33009 0.41309 0.0
C109 C 0.09783 0.16834 0.47805 0.0
C110 C 0.11866 0.15692 0.42969 0.0
H111 H 0.09299 0.24335 0.53968 0.0
H112 H 0.07046 0.12412 0.49703 0.0
C113 C 0.15648 0.21535 0.40731 0.0
C114 C 0.87916 0.08544 0.99079 0.0
C115 C 0.80251 0.12022 0.98576 0.0
H116 H 0.97457 0.03804 0.95367 0.0
C117 C 0.76737 0.14078 0.93799 0.0
H118 H 0.9079 0.06839 1.02698 0.0
C119 C 0.80557 0.12323 0.896 0.0
C120 C 0.87963 0.08421 0.90066 0.0
H121 H 0.70854 0.16773 0.93275 0.0
H122 H 0.77528 0.13788 0.85966 0.0
C123 C 0.91712 0.06733 0.94868 0.0
C124 C 0.05661 0.614 0.3904 0.0
C125 C 0.02509 0.61919 0.4363 0.0
H126 H 0.10925 0.67258 0.33376 0.0
C127 C 1.01526 0.68995 0.45777 0.0
H128 H 0.06543 0.56015 0.37307 0.0
C129 C 0.04046 0.75375 0.43552 0.0
C130 C 0.07621 0.74867 0.39113 0.0
H131 H 0.99116 0.69598 0.49306 0.0
H132 H 0.03501 0.80684 0.45454 0.0
C133 C 0.08229 0.67827 0.36808 0.0
loop_
_geom_bond_atom_site_label_1
_geom_bond_atom_site_label_2
_geom_bond_distance
_geom_bond_site_symmetry_2
_ccdc_geom_bond_type
Mg0 O7 2.141 . S
Mg0 O8 2.048 1_554 S
Mg0 O9 2.048 1_554 S
Mg0 O12 2.141 . S
C1 O2 1.314 . S
C1 O8 1.194 1_565 S
O2 C1 1.314 . S
C3 O4 1.245 . S
C3 O12 1.289 1_565 S
O4 C3 1.245 . S
C5 O6 1.245 . S
C5 O7 1.289 1_565 S
O6 C5 1.245 . S
O7 Mg0 2.141 . S
O7 C5 1.289 1_545 S
O8 Mg0 2.048 1_556 S
O8 C1 1.194 1_545 S
O9 Mg0 2.048 1_556 S
O9 C10 1.194 1_545 S
C10 O9 1.194 1_565 S
C10 O11 1.314 . S
O11 C10 1.314 . S
O12 Mg0 2.141 . S
O12 C3 1.289 1_545 S
Mg13 O20 2.141 . S
Mg13 O21 2.048 . S
Mg13 O22 2.048 . S
Mg13 O25 2.141 . S
C14 O15 1.313 . S
C14 O21 1.195 . S
O15 C14 1.313 . S
C16 O17 1.245 . S
C16 O25 1.289 . S
O17 C16 1.245 . S
C18 O19 1.245 . S
C18 O20 1.289 . S
O19 C18 1.245 . S
O20 Mg13 2.141 . S
O20 C18 1.289 . S
O21 Mg13 2.048 . S
O21 C14 1.195 . S
O22 Mg13 2.048 . S
O22 C23 1.195 . S
C23 O22 1.195 . S
C23 O24 1.313 . S
O24 C23 1.313 . S
O25 Mg13 2.141 . S
O25 C16 1.289 . S
Mg26 O27 2.028 . S
Mg26 O33 1.986 . S
Mg26 O35 2.114 1_545 S
Mg26 O36 2.251 1_545 S
Mg26 O39 2.010 . S
O27 Mg26 2.028 . S
O27 C30 1.250 1_455 S
O28 Mg29 2.028 . S
O28 C30 1.248 . S
Mg29 O28 2.028 . S
Mg29 O34 2.032 1_655 S
Mg29 O36 2.079 1_645 S
C30 O27 1.250 1_655 S
C30 O28 1.248 . S
C31 O32 1.264 . S
C31 O39 1.249 . S
O32 C31 1.264 . S
O33 Mg26 1.986 . S
O33 C37 1.246 . S
O34 Mg29 2.032 1_455 S
O34 C37 1.259 . S
O35 Mg26 2.114 1_565 S
O35 C38 1.252 . S
O36 Mg26 2.251 1_565 S
O36 Mg29 2.079 1_465 S
O36 C38 1.273 . S
C37 O33 1.246 . S
C37 O34 1.259 . S
C38 O35 1.252 . S
C38 O36 1.273 . S
O39 Mg26 2.010 . S
O39 C31 1.249 . S
Mg40 O41 2.028 . S
Mg40 O47 1.986 . S
Mg40 O49 2.114 1_545 S
Mg40 O50 2.251 1_545 S
Mg40 O53 2.010 1_455 S
O41 Mg40 2.028 . S
O41 C44 1.250 . S
O42 Mg43 2.028 . S
O42 C44 1.248 . S
Mg43 O42 2.028 . S
Mg43 O48 2.032 . S
Mg43 O50 2.079 1_545 S
C44 O41 1.250 . S
C44 O42 1.248 . S
C45 O46 1.264 . S
C45 O53 1.249 . S
O46 C45 1.264 . S
O47 Mg40 1.986 . S
O47 C51 1.246 . S
O48 Mg43 2.032 . S
O48 C51 1.259 . S
O49 Mg40 2.114 1_565 S
O49 C52 1.252 . S
O50 Mg40 2.251 1_565 S
O50 Mg43 2.079 1_565 S
O50 C52 1.273 . S
C51 O47 1.246 . S
C51 O48 1.259 . S
C52 O49 1.252 . S
C52 O50 1.273 . S
O53 Mg40 2.010 1_655 S
O53 C45 1.249 . S
C54 C55 1.387 . S
C54 H58 0.950 . S
C54 C63 1.390 . S
C55 C54 1.387 . S
C55 C57 1.387 1_545 S
H56 C63 0.950 . S
C57 C55 1.387 1_565 S
C57 C59 1.390 . S
C57 H61 0.950 . S
H58 C54 0.950 . S
C59 C57 1.390 . S
C59 C60 1.387 1_565 S
C59 H62 0.950 . S
C60 C59 1.387 1_545 S
C60 C63 1.387 . S
H61 C57 0.950 . S
H62 C59 0.950 . S
C63 C54 1.390 . S
C63 H56 0.950 . S
C63 C60 1.387 . S
C64 C65 1.387 1_655 S
C64 H68 0.950 . S
C64 C73 1.390 . S
C65 C64 1.387 1_455 S
C65 C67 1.387 . S
H66 C73 0.950 . S
C67 C65 1.387 . S
C67 C69 1.390 . S
C67 H71 0.950 . S
H68 C64 0.950 . S
C69 C67 1.390 . S
C69 C70 1.387 . S
C69 H72 0.950 . S
C70 C69 1.387 . S
C70 C73 1.387 1_455 S
H71 C67 0.950 . S
H72 C69 0.950 . S
C73 C64 1.390 . S
C73 H66 0.950 . S
C73 C70 1.387 1_655 S
C74 C75 1.387 . S
C74 H78 0.950 . S
C74 C83 1.390 . S
C75 C74 1.387 . S
C75 C77 1.387 1_545 S
H76 C83 0.950 . S
C77 C75 1.387 1_565 S
C77 C79 1.390 . S
C77 H81 0.950 . S
H78 C74 0.950 . S
C79 C77 1.390 . S
C79 C80 1.387 1_565 S
C79 H82 0.950 . S
C80 C79 1.387 1_545 S
C80 C83 1.387 . S
H81 C77 0.950 . S
H82 C79 0.950 . S
C83 C74 1.390 . S
C83 H76 0.950 . S
C83 C80 1.387 . S
C84 C85 1.387 1_655 S
C84 H88 0.950 . S
C84 C93 1.390 . S
C85 C84 1.387 1_455 S
C85 C87 1.387 . S
H86 C93 0.950 . S
C87 C85 1.387 . S
C87 C89 1.390 . S
C87 H91 0.950 . S
H88 C84 0.950 . S
C89 C87 1.390 . S
C89 C90 1.387 . S
C89 H92 0.950 . S
C90 C89 1.387 . S
C90 C93 1.387 1_455 S
H91 C87 0.950 . S
H92 C89 0.950 . S
C93 C84 1.390 . S
C93 H86 0.950 . S
C93 C90 1.387 1_655 S
C94 C95 1.387 1_565 S
C94 H98 0.950 . S
C94 C103 1.390 . S
C95 C94 1.387 1_545 S
C95 C97 1.387 . S
H96 C103 0.950 . S
C97 C95 1.387 . S
C97 C99 1.390 . S
C97 H101 0.950 . S
H98 C94 0.950 . S
C99 C97 1.390 . S
C99 C100 1.387 . S
C99 H102 0.950 . S
C100 C99 1.387 . S
C100 C103 1.387 1_545 S
H101 C97 0.950 . S
H102 C99 0.950 . S
C103 C94 1.390 . S
C103 H96 0.950 . S
C103 C100 1.387 1_565 S
C104 C105 1.387 . S
C104 H108 0.950 . S
C104 C113 1.390 . S
C105 C104 1.387 . S
C105 C107 1.387 . S
H106 C113 0.950 . S
C107 C105 1.387 . S
C107 C109 1.390 . S
C107 H111 0.950 1_455 S
H108 C104 0.950 . S
C109 C107 1.390 . S
C109 C110 1.387 . S
C109 H112 0.950 1_455 S
C110 C109 1.387 . S
C110 C113 1.387 . S
H111 C107 0.950 1_655 S
H112 C109 0.950 1_655 S
C113 C104 1.390 . S
C113 H106 0.950 . S
C113 C110 1.387 . S
C114 C115 1.387 . S
C114 H118 0.950 . S
C114 C123 1.390 . S
C115 C114 1.387 . S
C115 C117 1.387 1_545 S
H116 C123 0.950 . S
C117 C115 1.387 1_565 S
C117 C119 1.390 . S
C117 H121 0.950 . S
H118 C114 0.950 . S
C119 C117 1.390 . S
C119 C120 1.387 1_565 S
C119 H122 0.950 . S
C120 C119 1.387 1_545 S
C120 C123 1.387 . S
H121 C117 0.950 . S
H122 C119 0.950 . S
C123 C114 1.390 . S
C123 H116 0.950 . S
C123 C120 1.387 . S
C124 C125 1.387 . S
C124 H128 0.950 . S
C124 C133 1.390 . S
C125 C124 1.387 . S
C125 C127 1.387 . S
H126 C133 0.950 . S
C127 C125 1.387 . S
C127 C129 1.390 . S
C127 H131 0.950 1_455 S
H128 C124 0.950 . S
C129 C127 1.390 . S
C129 C130 1.387 . S
C129 H132 0.948 1_455 S
C130 C129 1.387 . S
C130 C133 1.387 . S
H131 C127 0.950 1_655 S
H132 C129 0.948 1_655 S
C133 C124 1.390 . S
C133 H126 0.950 . S
C133 C130 1.387 . S
C60 C31 1.254 . S
C55 C5 1.429 1_545 S
C70 C51 1.454 . S
C65 C23 1.485 . S
C80 C30 1.418 . S
C75 C3 1.438 1_545 S
C90 C52 1.507 . S
C85 C14 1.502 . S
C100 C44 1.473 . S
C95 C1 1.500 1_545 S
C110 C37 1.394 . S
C105 C16 1.422 . S
C120 C45 1.287 . S
C115 C10 1.486 1_545 S
C125 C18 1.441 . S
C130 C38 1.449 . S
