# Generated by pormake.
# Topology pth, (4,4)-cn, num edge types: 1
# Building blocks:
#     Node 0, Type 0, BuildingBlock: AZAVOO_clean_sbu_0, # of connection points: 4
#     Node 1, Type 0, BuildingBlock: AZAVOO_clean_sbu_0, # of connection points: 4
#     Node 2, Type 0, BuildingBlock: AZAVOO_clean_sbu_0, # of connection points: 4
#     Node 3, Type 1, BuildingBlock: MUDLON_clean_sbu_0, # of connection points: 4
#     Node 4, Type 1, BuildingBlock: MUDLON_clean_sbu_0, # of connection points: 4
#     Node 5, Type 1, BuildingBlock: MUDLON_clean_sbu_0, # of connection points: 4
#     Edge 6, Type (0, 1), BuildingBlock: AJUNOK_clean_linker_0, # of connection points: 2
#     Edge 7, Type (0, 1), BuildingBlock: AJUNOK_clean_linker_0, # of connection points: 2
#     Edge 8, Type (0, 1), BuildingBlock: AJUNOK_clean_linker_0, # of connection points: 2
#     Edge 9, Type (0, 1), BuildingBlock: AJUNOK_clean_linker_0, # of connection points: 2
#     Edge 10, Type (0, 1), BuildingBlock: AJUNOK_clean_linker_0, # of connection points: 2
#     Edge 11, Type (0, 1), BuildingBlock: AJUNOK_clean_linker_0, # of connection points: 2
#     Edge 12, Type (0, 1), BuildingBlock: AJUNOK_clean_linker_0, # of connection points: 2
#     Edge 13, Type (0, 1), BuildingBlock: AJUNOK_clean_linker_0, # of connection points: 2
#     Edge 14, Type (0, 1), BuildingBlock: AJUNOK_clean_linker_0, # of connection points: 2
#     Edge 15, Type (0, 1), BuildingBlock: AJUNOK_clean_linker_0, # of connection points: 2
#     Edge 16, Type (0, 1), BuildingBlock: AJUNOK_clean_linker_0, # of connection points: 2
#     Edge 17, Type (0, 1), BuildingBlock: AJUNOK_clean_linker_0, # of connection points: 2
# Relax obj value: 0.106
# Max RMSD: 0.232
# Mean RMSD: 0.137
data_MOF--net-pth--node1-AZAVOO_clean_sbu_0--node2-MUDLON_clean_sbu_0--edge1-AJUNOK_clean_linker_0
_symmetry_space_group_name_H-M    P1
_symmetry_Int_Tables_number       1
_symmetry_cell_setting            triclinic
loop_
_symmetry_equiv_pos_as_xyz
'x, y, z'
_cell_length_a     16.683307
_cell_length_b     17.042628
_cell_length_c     44.055627
_cell_angle_alpha  90.897136
_cell_angle_beta   93.854974
_cell_angle_gamma 122.51926
loop_
_atom_site_label
_atom_site_type_symbol
_atom_site_fract_x
_atom_site_fract_y
_atom_site_fract_z
_atom_type_partial_charge
Mg0 Mg 0.17001 0.15328 0.1079 0.0
O1 O 0.03679 0.0586 0.07484 0.0
O2 O 0.02016 0.14711 0.04149 0.0
Mg3 Mg 0.14179 0.29868 0.05368 0.0
C4 C 0.99208 0.06756 0.0518 0.0
C5 C 0.19494 0.02137 0.14896 0.0
O6 O 0.28072 0.075 0.13989 0.0
O7 O 0.08791 0.20369 0.13297 0.0
O8 O 0.07958 0.29569 0.0991 0.0
O9 O 0.26203 0.1415 0.07569 0.0
O10 O 0.23041 0.25197 0.07555 0.0
C11 C 0.06306 0.26009 0.12505 0.0
C12 C 0.2713 0.21443 0.06366 0.0
O13 O 0.12981 0.03502 0.13948 0.0
Mg14 Mg 0.97046 0.04266 0.42609 0.0
O15 O 0.10726 0.08925 0.45711 0.0
O16 O 0.14285 0.21433 0.48625 0.0
Mg17 Mg 0.02905 0.24744 0.47378 0.0
C18 C 0.16098 0.15396 0.47767 0.0
C19 C 0.91296 0.87271 0.384 0.0
O20 O 0.83127 0.86323 0.38857 0.0
O21 O 0.05689 0.16503 0.39646 0.0
O22 O 0.08336 0.28575 0.42602 0.0
O23 O 0.87862 0.95324 0.46166 0.0
O24 O 0.92731 0.10102 0.45761 0.0
C25 C 0.09089 0.25213 0.40098 0.0
C26 C 0.88111 0.02609 0.472 0.0
O27 O 0.98949 0.94327 0.39672 0.0
Mg28 Mg 0.02183 0.01144 0.75868 0.0
O29 O 0.12006 0.14341 0.79037 0.0
O30 O 0.02743 0.16223 0.81999 0.0
Mg31 Mg 0.87206 0.04478 0.80701 0.0
C32 C 0.10959 0.1884 0.81164 0.0
C33 C 0.1107 0.98471 0.7052 0.0
O34 O 0.01912 0.92064 0.70042 0.0
O35 O 0.97405 0.09184 0.72981 0.0
O36 O 0.87829 0.10425 0.75977 0.0
O37 O 0.03348 0.92417 0.79359 0.0
O38 O 0.92119 0.95637 0.7904 0.0
C39 C 0.91729 0.11841 0.73473 0.0
C40 C 0.96011 0.9176 0.80447 0.0
O41 O 0.13961 0.04203 0.72831 0.0
Mg42 Mg 0.08796 0.58392 0.27136 0.0
C43 C 0.17785 0.48445 0.29846 0.0
O44 O 0.15109 0.44251 0.27108 0.0
C45 C 0.10274 0.73033 0.23381 0.0
O46 O 0.01688 0.68776 0.24324 0.0
C47 C 0.98556 0.45909 0.21361 0.0
O48 O 0.99564 0.53617 0.20399 0.0
O49 O 1.00455 0.45598 0.24184 0.0
O50 O 0.17561 0.55721 0.30287 0.0
O51 O 0.02276 0.62693 0.30323 0.0
C52 C 0.94025 0.61337 0.30385 0.0
O53 O 0.87217 0.55697 0.28287 0.0
O54 O 0.15699 0.70194 0.24237 0.0
Mg55 Mg 0.56647 0.12138 0.59696 0.0
C56 C 0.47089 0.14443 0.54259 0.0
O57 O 0.47991 0.07508 0.53479 0.0
C58 C 0.76395 0.21598 0.63052 0.0
O59 O 0.78762 0.20562 0.6036 0.0
C60 C 0.36677 0.00954 0.61721 0.0
O61 O 0.34367 0.02108 0.58932 0.0
O62 O 0.45154 0.03101 0.6245 0.0
O63 O 0.5083 0.18687 0.56869 0.0
O64 O 0.61925 0.06417 0.5653 0.0
C65 C 0.65797 0.01771 0.56933 0.0
O66 O 0.66128 0.98687 0.59622 0.0
O67 O 0.68186 0.20277 0.63244 0.0
Mg68 Mg 0.59213 0.58723 0.93412 0.0
C69 C 0.45753 0.48389 0.88037 0.0
O70 O 0.53501 0.48602 0.87481 0.0
C71 C 0.68751 0.72142 0.98772 0.0
O72 O 0.68532 0.64721 0.99666 0.0
C73 C 0.49054 0.39704 0.96199 0.0
O74 O 0.4457 0.36603 0.93466 0.0
O75 O 0.56138 0.48085 0.9662 0.0
O76 O 0.45999 0.52819 0.90437 0.0
O77 O 0.70222 0.62742 0.90323 0.0
C78 C 0.78472 0.70163 0.90777 0.0
O79 O 0.81366 0.74502 0.93493 0.0
O80 O 0.64448 0.71578 0.96197 0.0
C81 C 1.00044 0.35952 0.13851 0.0
C82 C 0.02276 0.29376 0.14731 0.0
C83 C 0.98002 0.40662 0.15986 0.0
C84 C 0.98094 0.39036 0.19105 0.0
H85 H 1.00351 0.37878 0.11511 0.0
H86 H 0.96914 0.46036 0.15193 0.0
S87 S 1.01288 0.20977 0.22512 0.0
N88 N 0.02882 0.20378 0.18878 0.0
N89 N 0.98928 0.29173 0.22888 0.0
C90 C 0.9931 0.31784 0.19976 0.0
C91 C 0.0144 0.26986 0.17793 0.0
C92 C 0.80635 0.09122 0.50179 0.0
C93 C 0.8283 0.02295 0.49816 0.0
C94 C 0.75042 0.08756 0.5246 0.0
C95 C 0.71507 0.01631 0.5452 0.0
H96 H 0.83076 0.14724 0.48644 0.0
H97 H 0.7356 0.14201 0.52619 0.0
S98 S 0.75477 0.82216 0.54635 0.0
N99 N 0.81161 0.88226 0.51744 0.0
N100 N 0.70793 0.87688 0.56102 0.0
C101 C 0.73802 0.9485 0.54237 0.0
C102 C 0.79406 0.95134 0.51866 0.0
C103 C 0.81959 0.80201 0.83035 0.0
C104 C 0.91893 0.86318 0.83111 0.0
C105 C 0.77759 0.74657 0.85471 0.0
C106 C 0.83325 0.75224 0.88115 0.0
H107 H 0.77391 0.79616 0.81059 0.0
H108 H 0.70049 0.70123 0.85319 0.0
S109 S 0.09678 0.90343 0.89461 0.0
N110 N 0.07246 0.92594 0.86005 0.0
N111 N 0.99293 0.82485 0.90673 0.0
C112 C 0.9328 0.8137 0.88229 0.0
C113 C 0.97585 0.86831 0.85702 0.0
C114 C 0.08582 0.8988 0.1826 0.0
C115 C 0.17479 0.94772 0.17047 0.0
C116 C 0.06439 0.82967 0.20311 0.0
C117 C 0.1307 0.80575 0.21242 0.0
H118 H 0.0319 0.91407 0.17635 0.0
H119 H 0.99453 0.79457 0.21163 0.0
S120 S 0.3742 0.91218 0.18727 0.0
N121 N 0.33032 0.96714 0.16924 0.0
N122 N 0.28944 0.83663 0.2078 0.0
C123 C 0.22012 0.8539 0.20051 0.0
C124 C 0.24225 0.92489 0.17957 0.0
C125 C 0.28688 0.20547 0.52141 0.0
C126 C 0.24613 0.15833 0.49255 0.0
C127 C 0.36307 0.20507 0.53688 0.0
C128 C 0.4019 0.15794 0.52403 0.0
H129 H 0.25766 0.24037 0.53268 0.0
H130 H 0.389 0.23881 0.55957 0.0
S131 S 0.33015 0.03511 0.44715 0.0
N132 N 0.25679 0.07105 0.45052 0.0
N133 N 0.40006 0.07098 0.4793 0.0
C134 C 0.36532 0.11503 0.49445 0.0
C135 C 0.28743 0.11491 0.47882 0.0
C136 C 0.28679 0.30142 0.81856 0.0
C137 C 0.19606 0.27109 0.82795 0.0
C138 C 0.37017 0.37336 0.83487 0.0
C139 C 0.36701 0.41845 0.86142 0.0
H140 H 0.29412 0.26792 0.79877 0.0
H141 H 0.43791 0.39175 0.82697 0.0
S142 S 0.14773 0.37191 0.89451 0.0
N143 N 0.10809 0.29696 0.86462 0.0
N144 N 0.26523 0.43186 0.89529 0.0
C145 C 0.27691 0.3922 0.87037 0.0
C146 C 0.19148 0.31866 0.85369 0.0
C147 C 0.92239 0.16507 0.68071 0.0
C148 C 0.88997 0.16017 0.70976 0.0
C149 C 0.88688 0.19071 0.65563 0.0
C150 C 0.81709 0.21231 0.65844 0.0
H151 H 0.97248 0.14483 0.67685 0.0
H152 H 0.91054 0.18817 0.63355 0.0
S153 S 0.72054 0.22644 0.73043 0.0
N154 N 0.79303 0.19155 0.74055 0.0
N155 N 0.7263 0.23914 0.69343 0.0
C156 C 0.78975 0.2151 0.68778 0.0
C157 C 0.82603 0.18912 0.71339 0.0
C158 C 0.86985 0.89586 0.04923 0.0
C159 C 0.90686 0.98228 0.03612 0.0
C160 C 0.79528 0.81296 0.03405 0.0
C161 C 0.75411 0.81231 1.005 0.0
H162 H 0.90007 0.89145 0.0712 0.0
H163 H 0.77183 0.74834 0.04491 0.0
S164 S 0.8191 0.02012 0.96137 0.0
N165 N 0.8919 0.06256 0.99291 0.0
N166 N 0.75195 0.90636 0.9644 0.0
C167 C 0.78697 0.89848 0.99215 0.0
C168 C 0.86325 0.98339 1.00766 0.0
C169 C 1.00217 0.80743 0.3628 0.0
C170 C 0.91579 0.80262 0.36433 0.0
C171 C 1.00802 0.74408 0.34397 0.0
C172 C 0.92791 0.67323 0.32555 0.0
H173 H 0.0664 0.86102 0.37614 0.0
H174 H 0.07699 0.75236 0.3435 0.0
S175 S 0.68339 0.62774 0.32194 0.0
N176 N 0.74691 0.71888 0.34645 0.0
N177 N 0.75837 0.6003 0.31088 0.0
C178 C 0.84044 0.66628 0.32727 0.0
C179 C 0.83429 0.73075 0.34665 0.0
C180 C 0.1427 0.94746 0.65408 0.0
C181 C 0.1776 0.98821 0.68392 0.0
C182 C 0.20392 0.95123 0.63305 0.0
C183 C 0.30224 0.99415 0.64116 0.0
H184 H 0.06767 0.91438 0.64658 0.0
H185 H 0.17413 0.92172 0.61006 0.0
S186 S 0.42888 0.10641 0.71708 0.0
N187 N 0.31639 0.06975 0.72092 0.0
N188 N 0.43137 0.07549 0.68163 0.0
C189 C 0.33769 0.03225 0.6713 0.0
C190 C 0.27547 0.02984 0.69257 0.0
C191 C 0.39076 0.3543 0.03873 0.0
C192 C 0.33028 0.25685 0.03808 0.0
C193 C 0.44679 0.3983 0.01477 0.0
C194 C 0.44242 0.34664 0.98875 0.0
H195 H 0.39474 0.39709 0.05796 0.0
H196 H 0.49065 0.4738 0.01612 0.0
S197 S 0.29581 0.08908 0.97615 0.0
N198 N 0.27131 0.10925 0.01004 0.0
N199 N 0.37357 0.19236 0.96405 0.0
C200 C 0.38288 0.24885 0.98795 0.0
C201 C 0.32765 0.20379 0.01287 0.0
C202 C 0.15673 0.40852 0.37937 0.0
C203 C 0.13221 0.3156 0.37567 0.0
C204 C 0.17977 0.46564 0.35471 0.0
C205 C 0.17929 0.43253 0.32518 0.0
H206 H 0.15342 0.4364 0.40117 0.0
H207 H 0.1923 0.53445 0.35861 0.0
S208 S 0.14061 0.2017 0.3044 0.0
N209 N 0.12378 0.19824 0.34098 0.0
N210 N 0.16742 0.30575 0.29468 0.0
C211 C 0.16411 0.34299 0.32171 0.0
C212 C 0.14036 0.28452 0.34689 0.0
loop_
_geom_bond_atom_site_label_1
_geom_bond_atom_site_label_2
_geom_bond_distance
_geom_bond_site_symmetry_2
_ccdc_geom_bond_type
Mg0 O1 2.028 . S
Mg0 O7 1.986 . S
Mg0 O9 2.114 . S
Mg0 O10 2.251 . S
Mg0 O13 2.010 . S
O1 Mg0 2.028 . S
O1 C4 1.250 1_455 S
O2 Mg3 2.028 1_655 S
O2 C4 1.248 . S
Mg3 O2 2.028 1_455 S
Mg3 O8 2.032 . S
Mg3 O10 2.079 . S
C4 O1 1.250 1_655 S
C4 O2 1.248 . S
C5 O6 1.264 1_565 S
C5 O13 1.249 1_565 S
O6 C5 1.264 1_545 S
O7 Mg0 1.986 . S
O7 C11 1.246 . S
O8 Mg3 2.032 . S
O8 C11 1.259 . S
O9 Mg0 2.114 . S
O9 C12 1.252 . S
O10 Mg0 2.251 . S
O10 Mg3 2.079 . S
O10 C12 1.273 . S
C11 O7 1.246 . S
C11 O8 1.259 . S
C12 O9 1.252 . S
C12 O10 1.273 . S
O13 Mg0 2.010 . S
O13 C5 1.249 1_545 S
Mg14 O15 2.028 1_655 S
Mg14 O21 1.986 1_655 S
Mg14 O23 2.114 1_545 S
Mg14 O24 2.251 . S
Mg14 O27 2.010 1_545 S
O15 Mg14 2.028 1_455 S
O15 C18 1.250 . S
O16 Mg17 2.028 . S
O16 C18 1.248 . S
Mg17 O16 2.028 . S
Mg17 O22 2.032 . S
Mg17 O24 2.079 1_455 S
C18 O15 1.250 . S
C18 O16 1.248 . S
C19 O20 1.264 . S
C19 O27 1.249 . S
O20 C19 1.264 . S
O21 Mg14 1.986 1_455 S
O21 C25 1.246 . S
O22 Mg17 2.032 . S
O22 C25 1.259 . S
O23 Mg14 2.114 1_565 S
O23 C26 1.252 1_565 S
O24 Mg14 2.251 . S
O24 Mg17 2.079 1_655 S
O24 C26 1.273 . S
C25 O21 1.246 . S
C25 O22 1.259 . S
C26 O23 1.252 1_545 S
C26 O24 1.273 . S
O27 Mg14 2.010 1_565 S
O27 C19 1.249 . S
Mg28 O29 2.028 . S
Mg28 O35 1.986 1_455 S
Mg28 O37 2.114 1_545 S
Mg28 O38 2.251 1_445 S
Mg28 O41 2.010 . S
O29 Mg28 2.028 . S
O29 C32 1.250 . S
O30 Mg31 2.028 1_455 S
O30 C32 1.248 . S
Mg31 O30 2.028 1_655 S
Mg31 O36 2.032 . S
Mg31 O38 2.079 1_545 S
C32 O29 1.250 . S
C32 O30 1.248 . S
C33 O34 1.264 . S
C33 O41 1.249 1_565 S
O34 C33 1.264 . S
O35 Mg28 1.986 1_655 S
O35 C39 1.246 . S
O36 Mg31 2.032 . S
O36 C39 1.259 . S
O37 Mg28 2.114 1_565 S
O37 C40 1.252 1_455 S
O38 Mg28 2.251 1_665 S
O38 Mg31 2.079 1_565 S
O38 C40 1.273 . S
C39 O35 1.246 . S
C39 O36 1.259 . S
C40 O37 1.252 1_655 S
C40 O38 1.273 . S
O41 Mg28 2.010 . S
O41 C33 1.249 1_545 S
Mg42 O49 2.141 . S
Mg42 O50 2.048 . S
Mg42 O51 2.048 . S
Mg42 O54 2.141 . S
C43 O44 1.313 1_455 S
C43 O50 1.195 . S
O44 C43 1.313 1_655 S
C45 O46 1.245 1_455 S
C45 O54 1.289 . S
O46 C45 1.245 1_655 S
C47 O48 1.245 1_455 S
C47 O49 1.289 . S
O48 C47 1.245 1_655 S
O49 Mg42 2.141 . S
O49 C47 1.289 . S
O50 Mg42 2.048 . S
O50 C43 1.195 . S
O51 Mg42 2.048 . S
O51 C52 1.195 . S
C52 O51 1.195 . S
C52 O53 1.313 1_455 S
O53 C52 1.313 1_655 S
O54 Mg42 2.141 . S
O54 C45 1.289 . S
Mg55 O62 2.141 . S
Mg55 O63 2.048 . S
Mg55 O64 2.048 . S
Mg55 O67 2.141 . S
C56 O57 1.320 . S
C56 O63 1.195 . S
O57 C56 1.320 . S
C58 O59 1.245 . S
C58 O67 1.289 . S
O59 C58 1.245 . S
C60 O61 1.245 . S
C60 O62 1.289 . S
O61 C60 1.245 . S
O62 Mg55 2.141 . S
O62 C60 1.289 . S
O63 Mg55 2.048 . S
O63 C56 1.195 . S
O64 Mg55 2.048 . S
O64 C65 1.195 . S
C65 O64 1.195 . S
C65 O66 1.318 . S
O66 C65 1.318 . S
O67 Mg55 2.141 . S
O67 C58 1.289 . S
Mg68 O75 2.141 . S
Mg68 O76 2.048 . S
Mg68 O77 2.048 . S
Mg68 O80 2.141 . S
C69 O70 1.313 . S
C69 O76 1.195 . S
O70 C69 1.313 . S
C71 O72 1.245 . S
C71 O80 1.289 . S
O72 C71 1.245 . S
C73 O74 1.245 . S
C73 O75 1.289 . S
O74 C73 1.245 . S
O75 Mg68 2.141 . S
O75 C73 1.289 . S
O76 Mg68 2.048 . S
O76 C69 1.195 . S
O77 Mg68 2.048 . S
O77 C78 1.195 . S
C78 O77 1.195 . S
C78 O79 1.313 . S
O79 C78 1.313 . S
O80 Mg68 2.141 . S
O80 C71 1.289 . S
C81 C82 1.369 . S
C81 C83 1.419 . S
C81 H85 0.930 1_455 S
C82 C81 1.369 . S
C82 C91 1.429 . S
C83 C81 1.419 . S
C83 C84 1.363 . S
C83 H86 0.929 . S
C84 C83 1.363 . S
C84 C90 1.428 . S
H85 C81 0.930 1_655 S
H86 C83 0.929 . S
S87 N88 1.613 . S
S87 N89 1.610 . S
N88 S87 1.613 . S
N88 C91 1.350 . S
N89 S87 1.610 . S
N89 C90 1.351 . S
C90 C84 1.428 . S
C90 N89 1.351 . S
C90 C91 1.434 . S
C91 C82 1.429 . S
C91 N88 1.350 . S
C91 C90 1.434 . S
C92 C93 1.369 . S
C92 C94 1.419 . S
C92 H96 0.930 . S
C93 C92 1.369 . S
C93 C102 1.429 1_545 S
C94 C92 1.419 . S
C94 C95 1.363 . S
C94 H97 0.929 . S
C95 C94 1.363 . S
C95 C101 1.428 . S
H96 C92 0.930 . S
H97 C94 0.929 . S
S98 N99 1.613 . S
S98 N100 1.610 . S
N99 S98 1.613 . S
N99 C102 1.350 . S
N100 S98 1.610 . S
N100 C101 1.351 1_565 S
C101 C95 1.428 . S
C101 N100 1.351 1_545 S
C101 C102 1.434 1_545 S
C102 C93 1.429 1_565 S
C102 N99 1.350 . S
C102 C101 1.434 1_565 S
C103 C104 1.369 . S
C103 C105 1.419 . S
C103 H107 0.930 . S
C104 C103 1.369 . S
C104 C113 1.429 . S
C105 C103 1.419 . S
C105 C106 1.363 . S
C105 H108 0.929 . S
C106 C105 1.363 . S
C106 C112 1.428 . S
H107 C103 0.930 . S
H108 C105 0.929 . S
S109 N110 1.613 . S
S109 N111 1.610 . S
N110 S109 1.613 . S
N110 C113 1.350 . S
N111 S109 1.610 . S
N111 C112 1.351 . S
C112 C106 1.428 . S
C112 N111 1.351 . S
C112 C113 1.434 . S
C113 C104 1.429 . S
C113 N110 1.350 . S
C113 C112 1.434 . S
C114 C115 1.369 . S
C114 C116 1.419 . S
C114 H118 0.930 . S
C115 C114 1.369 . S
C115 C124 1.429 . S
C116 C114 1.419 . S
C116 C117 1.363 . S
C116 H119 0.929 . S
C117 C116 1.363 . S
C117 C123 1.428 . S
H118 C114 0.930 . S
H119 C116 0.929 . S
S120 N121 1.613 . S
S120 N122 1.610 . S
N121 S120 1.613 . S
N121 C124 1.350 . S
N122 S120 1.610 . S
N122 C123 1.351 . S
C123 C117 1.428 . S
C123 N122 1.351 . S
C123 C124 1.434 . S
C124 C115 1.429 . S
C124 N121 1.350 . S
C124 C123 1.434 . S
C125 C126 1.369 . S
C125 C127 1.419 . S
C125 H129 0.930 . S
C126 C125 1.369 . S
C126 C135 1.429 . S
C127 C125 1.419 . S
C127 C128 1.363 . S
C127 H130 0.929 . S
C128 C127 1.363 . S
C128 C134 1.428 . S
H129 C125 0.930 . S
H130 C127 0.929 . S
S131 N132 1.613 . S
S131 N133 1.610 . S
N132 S131 1.613 . S
N132 C135 1.350 1_565 S
N133 S131 1.610 . S
N133 C134 1.351 1_565 S
C134 C128 1.428 . S
C134 N133 1.351 1_545 S
C134 C135 1.434 . S
C135 C126 1.429 . S
C135 N132 1.350 1_545 S
C135 C134 1.434 . S
C136 C137 1.369 . S
C136 C138 1.419 . S
C136 H140 0.930 . S
C137 C136 1.369 . S
C137 C146 1.429 . S
C138 C136 1.419 . S
C138 C139 1.363 . S
C138 H141 0.929 . S
C139 C138 1.363 . S
C139 C145 1.428 . S
H140 C136 0.930 . S
H141 C138 0.929 . S
S142 N143 1.613 . S
S142 N144 1.610 . S
N143 S142 1.613 . S
N143 C146 1.350 . S
N144 S142 1.610 . S
N144 C145 1.351 . S
C145 C139 1.428 . S
C145 N144 1.351 . S
C145 C146 1.434 . S
C146 C137 1.429 . S
C146 N143 1.350 . S
C146 C145 1.434 . S
C147 C148 1.369 . S
C147 C149 1.419 . S
C147 H151 0.930 . S
C148 C147 1.369 . S
C148 C157 1.429 . S
C149 C147 1.419 . S
C149 C150 1.363 . S
C149 H152 0.929 . S
C150 C149 1.363 . S
C150 C156 1.428 . S
H151 C147 0.930 . S
H152 C149 0.929 . S
S153 N154 1.613 . S
S153 N155 1.610 . S
N154 S153 1.613 . S
N154 C157 1.350 . S
N155 S153 1.610 . S
N155 C156 1.351 . S
C156 C150 1.428 . S
C156 N155 1.351 . S
C156 C157 1.434 . S
C157 C148 1.429 . S
C157 N154 1.350 . S
C157 C156 1.434 . S
C158 C159 1.369 . S
C158 C160 1.419 1_554 S
C158 H162 0.930 . S
C159 C158 1.369 . S
C159 C168 1.429 . S
C160 C158 1.419 1_556 S
C160 C161 1.363 . S
C160 H163 0.929 . S
C161 C160 1.363 . S
C161 C167 1.428 1_556 S
H162 C158 0.930 . S
H163 C160 0.929 . S
S164 N165 1.613 . S
S164 N166 1.610 . S
N165 S164 1.613 . S
N165 C168 1.350 . S
N166 S164 1.610 . S
N166 C167 1.351 . S
C167 C161 1.428 1_554 S
C167 N166 1.351 . S
C167 C168 1.434 . S
C168 C159 1.429 . S
C168 N165 1.350 . S
C168 C167 1.434 . S
C169 C170 1.369 1_455 S
C169 C171 1.419 . S
C169 H173 0.930 . S
C170 C169 1.369 1_655 S
C170 C179 1.429 . S
C171 C169 1.419 . S
C171 C172 1.363 . S
C171 H174 0.929 . S
C172 C171 1.363 . S
C172 C178 1.428 1_455 S
H173 C169 0.930 . S
H174 C171 0.929 . S
S175 N176 1.613 . S
S175 N177 1.610 . S
N176 S175 1.613 . S
N176 C179 1.350 . S
N177 S175 1.610 . S
N177 C178 1.351 . S
C178 C172 1.428 1_655 S
C178 N177 1.351 . S
C178 C179 1.434 . S
C179 C170 1.429 . S
C179 N176 1.350 . S
C179 C178 1.434 . S
C180 C181 1.369 1_565 S
C180 C182 1.419 1_565 S
C180 H184 0.930 . S
C181 C180 1.369 1_545 S
C181 C190 1.429 . S
C182 C180 1.419 1_545 S
C182 C183 1.363 . S
C182 H185 0.929 1_545 S
C183 C182 1.363 . S
C183 C189 1.428 . S
H184 C180 0.930 . S
H185 C182 0.929 1_565 S
S186 N187 1.613 . S
S186 N188 1.610 . S
N187 S186 1.613 . S
N187 C190 1.350 . S
N188 S186 1.610 . S
N188 C189 1.351 . S
C189 C183 1.428 . S
C189 N188 1.351 . S
C189 C190 1.434 . S
C190 C181 1.429 . S
C190 N187 1.350 . S
C190 C189 1.434 . S
C191 C192 1.369 . S
C191 C193 1.419 1_554 S
C191 H195 0.930 . S
C192 C191 1.369 . S
C192 C201 1.429 . S
C193 C191 1.419 1_556 S
C193 C194 1.363 . S
C193 H196 0.929 . S
C194 C193 1.363 . S
C194 C200 1.428 1_556 S
H195 C191 0.930 . S
H196 C193 0.929 . S
S197 N198 1.613 . S
S197 N199 1.610 . S
N198 S197 1.613 . S
N198 C201 1.350 . S
N199 S197 1.610 . S
N199 C200 1.351 . S
C200 C194 1.428 1_554 S
C200 N199 1.351 . S
C200 C201 1.434 . S
C201 C192 1.429 . S
C201 N198 1.350 . S
C201 C200 1.434 . S
C202 C203 1.369 . S
C202 C204 1.419 1_455 S
C202 H206 0.930 1_455 S
C203 C202 1.369 . S
C203 C212 1.429 . S
C204 C202 1.419 1_655 S
C204 C205 1.363 1_655 S
C204 H207 0.929 . S
C205 C204 1.363 1_455 S
C205 C211 1.428 . S
H206 C202 0.930 1_655 S
H207 C204 0.929 . S
S208 N209 1.613 . S
S208 N210 1.610 . S
N209 S208 1.613 . S
N209 C212 1.350 . S
N210 S208 1.610 . S
N210 C211 1.351 . S
C211 C205 1.428 . S
C211 N210 1.351 . S
C211 C212 1.434 . S
C212 C203 1.429 . S
C212 N209 1.350 . S
C212 C211 1.434 . S
C84 C47 1.398 . S
C82 C11 1.410 . S
C93 C26 1.550 . S
C95 C65 1.546 . S
C104 C40 1.458 . S
C106 C78 1.449 . S
C115 C5 1.257 . S
C117 C45 1.421 . S
C128 C56 1.564 . S
C126 C18 1.549 . S
C137 C32 1.440 . S
C139 C69 1.462 . S
C150 C58 1.315 . S
C148 C39 1.310 . S
C159 C4 1.395 1_565 S
C161 C71 1.414 . S
C172 C52 1.463 . S
C170 C19 1.320 . S
C183 C60 1.341 . S
C181 C33 1.201 1_545 S
C194 C73 1.404 . S
C192 C12 1.416 . S
C203 C25 1.477 . S
C205 C43 1.496 . S
