# Generated by pormake.
# Topology scu, (8,4)-cn, num edge types: 1
# Building blocks:
#     Node 0, Type 0, BuildingBlock: VETTIZ_charged_sbu_0, # of connection points: 8
#     Node 1, Type 1, BuildingBlock: MUDLON_clean_sbu_0, # of connection points: 4
#     Node 2, Type 1, BuildingBlock: MUDLON_clean_sbu_0, # of connection points: 4
#     Edge 3, Type (0, 1), BuildingBlock: FUNLAD_clean_linker_0, # of connection points: 2
#     Edge 4, Type (0, 1), BuildingBlock: FUNLAD_clean_linker_0, # of connection points: 2
#     Edge 5, Type (0, 1), BuildingBlock: FUNLAD_clean_linker_0, # of connection points: 2
#     Edge 6, Type (0, 1), BuildingBlock: FUNLAD_clean_linker_0, # of connection points: 2
#     Edge 7, Type (0, 1), BuildingBlock: FUNLAD_clean_linker_0, # of connection points: 2
#     Edge 8, Type (0, 1), BuildingBlock: FUNLAD_clean_linker_0, # of connection points: 2
#     Edge 9, Type (0, 1), BuildingBlock: FUNLAD_clean_linker_0, # of connection points: 2
#     Edge 10, Type (0, 1), BuildingBlock: FUNLAD_clean_linker_0, # of connection points: 2
# Relax obj value: 0.036
# Max RMSD: 0.093
# Mean RMSD: 0.083
data_MOF--net-scu--node1-VETTIZ_charged_sbu_0--node2-MUDLON_clean_sbu_0--edge1-FUNLAD_clean_linker_0
_symmetry_space_group_name_H-M    P1
_symmetry_Int_Tables_number       1
_symmetry_cell_setting            triclinic
loop_
_symmetry_equiv_pos_as_xyz
'x, y, z'
_cell_length_a     27.728425
_cell_length_b     28.70064
_cell_length_c     23.691217
_cell_angle_alpha  89.403266
_cell_angle_beta   89.3814
_cell_angle_gamma 89.483244
loop_
_atom_site_label
_atom_site_type_symbol
_atom_site_fract_x
_atom_site_fract_y
_atom_site_fract_z
_atom_type_partial_charge
Fe0 Fe 1.01536 0.01178 0.08363 0.0
O1 O 1.00909 0.06044 0.0231 0.0
Fe2 Fe 0.06425 0.91741 0.01191 0.0
Fe3 Fe 0.96048 0.11029 0.02562 0.0
O4 O 1.01707 0.9681 0.01866 0.0
O5 O 1.01634 0.96824 0.01274 0.0
O6 O 1.01016 0.061 0.01712 0.0
Fe7 Fe 1.01249 0.017 0.95192 0.0
C8 C 0.91128 0.0353 0.10096 0.0
O9 O 1.01255 0.06517 0.14422 0.0
O10 O 1.00182 0.13238 0.09139 0.0
O11 O 0.087 0.02201 0.94647 0.0
O12 O 0.10542 0.9464 0.94864 0.0
O13 O 0.11096 0.94508 0.07053 0.0
O14 O 0.08886 0.0194 0.08099 0.0
O15 O 0.9995 0.13839 0.95929 0.0
O16 O 1.00957 0.0764 0.89796 0.0
C17 C 0.11972 0.98661 0.08612 0.0
O18 O 1.01293 0.96217 0.89268 0.0
O19 O 1.02016 0.89554 0.94819 0.0
O20 O 0.94192 1.00349 0.08953 0.0
O21 O 0.91823 0.0778 0.08707 0.0
C22 C 1.01112 0.11039 0.13821 0.0
C23 C 1.00985 0.12084 0.91011 0.0
C24 C 0.90837 0.04492 0.9451 0.0
O25 O 0.91634 0.08525 0.96422 0.0
O26 O 0.93832 0.01146 0.95118 0.0
C27 C 0.11571 0.98822 0.93564 0.0
O28 O 1.02602 0.89115 0.07987 0.0
O29 O 1.02269 0.95418 0.13917 0.0
C30 C 1.00844 0.91731 0.90176 0.0
C31 C 1.02129 0.90958 0.1294 0.0
Mg32 Mg 0.06016 0.51308 0.53472 0.0
C33 C 0.04933 0.43939 0.45252 0.0
O34 O 0.09104 0.45853 0.44021 0.0
C35 C 0.04731 0.60035 0.58857 0.0
O36 O 0.09354 0.59408 0.57808 0.0
C37 C 0.12602 0.43835 0.58709 0.0
O38 O 0.13975 0.43184 0.53457 0.0
O39 O 0.09988 0.47373 0.59884 0.0
O40 O 1.02285 0.45798 0.49049 0.0
O41 O 0.09612 0.55619 0.4709 0.0
C42 C 0.06769 0.56595 0.43055 0.0
O43 O 1.02552 0.54554 0.42928 0.0
O44 O 1.0186 0.56735 0.5774 0.0
Mg45 Mg 0.51994 0.01265 0.50558 0.0
C46 C 0.43498 0.02478 0.4388 0.0
O47 O 0.43151 0.98524 0.46685 0.0
C48 C 0.6059 0.01463 0.5705 0.0
O49 O 0.59606 0.97096 0.55973 0.0
C50 C 0.45066 0.95495 0.58917 0.0
O51 O 0.45762 0.91733 0.55891 0.0
O52 O 0.47222 0.99237 0.57558 0.0
O53 O 0.4721 0.04966 0.44678 0.0
O54 O 0.56179 0.96348 0.4537 0.0
C55 C 0.5573 0.96166 0.40031 0.0
O56 O 0.51922 0.98088 0.3769 0.0
O57 O 0.57785 0.04639 0.55134 0.0
C58 C 0.99075 0.18278 0.19 0.0
C59 C 1.01565 0.13992 0.18858 0.0
C60 C 0.99501 0.21239 0.23571 0.0
C61 C 1.02446 0.20005 0.28145 0.0
C62 C 0.0491 0.15698 0.28054 0.0
C63 C 0.04422 0.12675 0.23476 0.0
C64 C 0.03394 0.23408 0.32671 0.0
C65 C 1.00194 0.26767 0.34134 0.0
C66 C 1.01514 0.30931 0.37426 0.0
C67 C 0.97914 0.33443 0.40349 0.0
C68 C 0.98993 0.37656 0.42978 0.0
C69 C 0.03672 0.39474 0.42608 0.0
H70 H 0.09045 0.30989 0.3479 0.0
C71 C 0.07264 0.36945 0.397 0.0
C72 C 0.06207 0.32729 0.37152 0.0
H73 H 0.10918 0.38232 0.39354 0.0
H74 H 0.968 0.19379 0.15534 0.0
H75 H 0.97664 0.2458 0.23381 0.0
H76 H 0.0726 0.14699 0.31493 0.0
H77 H 0.06382 0.09393 0.23471 0.0
H78 H 0.06922 0.23284 0.34618 0.0
H79 H 0.96512 0.26603 0.32628 0.0
H80 H 0.9425 0.32168 0.40546 0.0
H81 H 0.96155 0.39526 0.45197 0.0
C82 C 0.85357 0.97696 0.14358 0.0
C83 C 0.86859 0.02343 0.13659 0.0
C84 C 0.81522 0.96585 0.18031 0.0
C85 C 0.79161 1.00097 0.2114 0.0
C86 C 0.80654 0.04727 0.20419 0.0
C87 C 0.84413 0.05847 0.16683 0.0
C88 C 0.75303 0.99066 0.25378 0.0
C89 C 0.72116 0.95576 0.24906 0.0
C90 C 0.68036 0.9502 0.28983 0.0
C91 C 0.63407 0.9407 0.26977 0.0
C92 C 0.59409 0.94157 0.30643 0.0
C93 C 0.59984 0.95063 0.36418 0.0
H94 H 0.72202 0.96286 0.36497 0.0
C95 C 0.64675 0.95634 0.38497 0.0
C96 C 0.68655 0.95654 0.34809 0.0
H97 H 0.6525 0.96355 0.42917 0.0
H98 H 0.87178 0.94909 0.12113 0.0
H99 H 0.8052 0.92969 0.18561 0.0
H100 H 0.78914 0.07498 0.22779 0.0
H101 H 0.85494 0.09455 0.16299 0.0
H102 H 0.74856 0.01507 0.28829 0.0
H103 H 0.7219 0.93407 0.21175 0.0
H104 H 0.62845 0.93522 0.22515 0.0
H105 H 0.55844 0.93698 0.28917 0.0
C106 C 1.00522 0.83044 0.16896 0.0
C107 C 1.02074 0.87626 0.17755 0.0
C108 C 1.01408 0.79564 0.20909 0.0
C109 C 0.03922 0.80566 0.2587 0.0
C110 C 0.05127 0.85215 0.26954 0.0
C111 C 0.04228 0.88723 0.22918 0.0
C112 C 0.05318 0.76789 0.29906 0.0
C113 C 0.06436 0.72455 0.28129 0.0
C114 C 0.07214 0.68375 0.31929 0.0
C115 C 0.05987 0.63961 0.29926 0.0
C116 C 0.06148 0.60061 0.33479 0.0
C117 C 0.07683 0.60462 0.39068 0.0
H118 H 0.10071 0.72083 0.39091 0.0
C119 C 0.09245 0.64804 0.40992 0.0
C120 C 0.0898 0.68752 0.37458 0.0
H121 H 0.10382 0.65203 0.45321 0.0
H122 H 0.98773 0.82101 0.13008 0.0
H123 H 1.00194 0.7607 0.20055 0.0
H124 H 0.06971 0.86096 0.30802 0.0
H125 H 0.05475 0.92221 0.23698 0.0
H126 H 0.05392 0.77602 0.34369 0.0
H127 H 0.06434 0.7175 0.23631 0.0
H128 H 0.04661 0.63561 0.25673 0.0
H129 H 0.04895 0.56753 0.31919 0.0
C130 C 0.17243 0.03848 0.14397 0.0
C131 C 0.165 0.99563 0.11703 0.0
C132 C 0.21217 0.04457 0.17918 0.0
C133 C 0.24537 1.0079 0.18799 0.0
C134 C 0.23907 0.96602 0.15896 0.0
C135 C 0.19958 0.95997 0.1238 0.0
C136 C 0.28334 0.00942 0.23181 0.0
C137 C 0.30087 0.04845 0.25503 0.0
C138 C 0.33377 0.04555 0.30419 0.0
C139 C 0.37304 0.0759 0.30893 0.0
C140 C 0.40563 0.07072 0.35373 0.0
C141 C 0.39879 0.03554 0.39478 0.0
H142 H 0.2949 0.98939 0.34575 0.0
C143 C 0.35781 1.00724 0.39144 0.0
C144 C 0.32582 0.01215 0.34689 0.0
H145 H 0.35079 0.9803 0.42275 0.0
H146 H 0.14649 0.06673 0.13986 0.0
H147 H 0.21523 0.07709 0.20148 0.0
H148 H 0.264 0.93714 0.16496 0.0
H149 H 0.19533 0.92663 0.10352 0.0
H150 H 0.29706 0.97591 0.24673 0.0
H151 H 0.29169 0.08255 0.23785 0.0
H152 H 0.37945 0.10246 0.27698 0.0
H153 H 0.43674 0.09319 0.35527 0.0
C154 C 0.99856 0.8983 0.79892 0.0
C155 C 0.99036 0.88746 0.85615 0.0
C156 C 0.98823 0.86557 0.75723 0.0
C157 C 0.96935 0.82158 0.77229 0.0
C158 C 0.95732 0.81279 0.82898 0.0
C159 C 0.96796 0.84511 0.87041 0.0
C160 C 0.96579 0.7823 0.73197 0.0
C161 C 0.99563 0.77774 0.68711 0.0
C162 C 1.00434 0.73286 0.65744 0.0
C163 C 0.04879 0.72697 0.62959 0.0
C164 C 0.06185 0.68415 0.60669 0.0
C165 C 0.03055 0.64597 0.61028 0.0
H166 H 0.93656 0.69874 0.6785 0.0
C167 C 0.98482 0.6522 0.63531 0.0
C168 C 0.97179 0.6953 0.65888 0.0
H169 H 0.9597 0.62356 0.63796 0.0
H170 H 1.01518 0.93092 0.78663 0.0
H171 H 0.99634 0.87438 0.71367 0.0
H172 H 0.94211 0.77963 0.84184 0.0
H173 H 0.96014 0.83612 0.91406 0.0
H174 H 0.94365 0.75304 0.74505 0.0
H175 H 1.02016 0.8059 0.67672 0.0
H176 H 0.07446 0.7552 0.62724 0.0
H177 H 0.09703 0.68092 0.58669 0.0
C178 C 0.197 0.96107 0.9033 0.0
C179 C 0.16065 0.99559 0.90221 0.0
C180 C 0.23635 0.96311 0.86618 0.0
C181 C 0.24028 0.99957 0.82637 0.0
C182 C 0.20561 0.03572 0.82762 0.0
C183 C 0.16607 0.03376 0.86514 0.0
C184 C 0.27996 1.00053 0.78327 0.0
C185 C 0.30184 0.96142 0.76385 0.0
C186 C 0.34078 0.9607 0.71985 0.0
C187 C 0.35019 0.91904 0.69074 0.0
C188 C 0.3863 0.91672 0.649 0.0
C189 C 0.4142 0.956 0.63566 0.0
H190 H 0.36464 0.03206 0.72986 0.0
C191 C 0.40559 0.99738 0.66577 0.0
C192 C 0.36946 0.99973 0.70736 0.0
H193 H 0.4266 0.02831 0.657 0.0
H194 H 0.19455 0.93165 0.93219 0.0
H195 H 0.26336 0.93574 0.86866 0.0
H196 H 0.20818 0.06473 0.79815 0.0
H197 H 0.13884 0.06099 0.86344 0.0
H198 H 0.28908 0.03413 0.76487 0.0
H199 H 0.28917 0.92775 0.77877 0.0
H200 H 0.32909 0.88822 0.69983 0.0
H201 H 0.39193 0.88429 0.62682 0.0
C202 C 0.05756 0.14802 0.82464 0.0
C203 C 1.02107 0.15548 0.86527 0.0
C204 C 0.07158 0.18435 0.78782 0.0
C205 C 0.04866 0.22839 0.79074 0.0
C206 C 1.01061 0.23458 0.82946 0.0
C207 C 0.99726 0.19886 0.86644 0.0
C208 C 0.06242 0.26927 0.75505 0.0
C209 C 0.10524 0.27489 0.72847 0.0
C210 C 0.11648 0.31847 0.69644 0.0
C211 C 0.1437 0.31624 0.64627 0.0
C212 C 0.14973 0.35606 0.61227 0.0
C213 C 0.12912 0.39905 0.62823 0.0
H214 H 0.07982 0.36556 0.75426 0.0
C215 C 0.1054 0.40195 0.68084 0.0
C216 C 0.09918 0.36217 0.71456 0.0
H217 H 0.08959 0.43453 0.6949 0.0
H218 H 0.07635 0.11484 0.82272 0.0
H219 H 0.10025 0.17779 0.75755 0.0
H220 H 0.99183 0.26777 0.83232 0.0
H221 H 0.96858 0.20554 0.89681 0.0
H222 H 0.03595 0.29737 0.75241 0.0
H223 H 0.13199 0.24706 0.7286 0.0
H224 H 0.15822 0.2832 0.6319 0.0
H225 H 0.16853 0.35257 0.57221 0.0
C226 C 0.86484 1.00513 0.8668 0.0
C227 C 0.86563 0.03931 0.90882 0.0
C228 C 0.82802 1.00517 0.82673 0.0
C229 C 0.79115 0.03932 0.82811 0.0
C230 C 0.79043 0.07151 0.87222 0.0
C231 C 0.82741 0.07181 0.9118 0.0
C232 C 0.75284 0.04239 0.7846 0.0
C233 C 0.75991 0.02889 0.73082 0.0
C234 C 0.72157 0.02986 0.68734 0.0
C235 C 0.72431 0.99701 0.64405 0.0
C236 C 0.68757 0.9939 0.6046 0.0
C237 C 0.64764 0.02432 0.6066 0.0
H238 H 0.68014 0.08867 0.71973 0.0
C239 C 0.64607 0.05929 0.64761 0.0
C240 C 0.68267 0.0619 0.68799 0.0
H241 H 0.61558 0.08306 0.65011 0.0
H242 H 0.89367 0.97954 0.86341 0.0
H243 H 0.8288 0.97861 0.79464 0.0
H244 H 0.76207 0.09764 0.87493 0.0
H245 H 0.8267 0.09838 0.94395 0.0
H246 H 0.71829 0.05727 0.79723 0.0
H247 H 0.79465 0.01432 0.71836 0.0
H248 H 0.7541 0.97235 0.64199 0.0
H249 H 0.68982 0.96674 0.57321 0.0
loop_
_geom_bond_atom_site_label_1
_geom_bond_atom_site_label_2
_geom_bond_distance
_geom_bond_site_symmetry_2
_ccdc_geom_bond_type
Fe0 O1 1.906 . S
Fe0 O4 1.694 1_645 S
Fe0 O9 2.098 1_655 S
Fe0 O14 1.923 1_655 S
Fe0 O20 2.093 1_545 S
Fe0 O29 1.916 1_545 S
O1 Fe0 1.906 . S
O1 Fe3 1.715 . S
Fe2 O4 1.886 . S
Fe2 O5 1.715 1_554 S
Fe2 O12 1.935 1_554 S
Fe2 O13 2.077 . S
Fe2 O19 1.935 1_554 S
Fe2 O28 2.077 . S
Fe3 O1 1.715 . S
Fe3 O6 1.886 1_554 S
Fe3 O10 1.935 . S
Fe3 O15 2.077 1_554 S
Fe3 O21 1.935 . S
Fe3 O25 2.077 1_554 S
O4 Fe0 1.694 1_465 S
O4 Fe2 1.886 . S
O5 Fe2 1.715 1_556 S
O5 Fe7 1.906 . S
O6 Fe3 1.886 1_556 S
O6 Fe7 1.694 1_645 S
Fe7 O5 1.906 . S
Fe7 O6 1.694 1_465 S
Fe7 O11 2.098 1_565 S
Fe7 O16 1.923 1_565 S
Fe7 O18 2.093 1_455 S
Fe7 O26 1.916 1_455 S
C8 O20 1.381 1_545 S
C8 O21 1.421 . S
O9 Fe0 2.098 1_455 S
O9 C22 1.381 1_455 S
O10 Fe3 1.935 . S
O10 C22 1.421 . S
O11 Fe7 2.098 1_545 S
O11 C27 1.381 1_545 S
O12 Fe2 1.935 1_556 S
O12 C27 1.421 . S
O13 Fe2 2.077 . S
O13 C17 1.381 . S
O14 Fe0 1.923 1_455 S
O14 C17 1.421 1_545 S
O15 Fe3 2.077 1_556 S
O15 C23 1.381 . S
O16 Fe7 1.923 1_545 S
O16 C23 1.421 1_455 S
C17 O13 1.381 . S
C17 O14 1.421 1_565 S
O18 Fe7 2.093 1_655 S
O18 C30 1.381 1_655 S
O19 Fe2 1.935 1_556 S
O19 C30 1.421 . S
O20 Fe0 2.093 1_565 S
O20 C8 1.381 1_565 S
O21 Fe3 1.935 . S
O21 C8 1.421 . S
C22 O9 1.381 1_655 S
C22 O10 1.421 . S
C23 O15 1.381 . S
C23 O16 1.421 1_655 S
C24 O25 1.381 . S
C24 O26 1.421 1_545 S
O25 Fe3 2.077 1_556 S
O25 C24 1.381 . S
O26 Fe7 1.916 1_655 S
O26 C24 1.421 1_565 S
C27 O11 1.381 1_565 S
C27 O12 1.421 . S
O28 Fe2 2.077 . S
O28 C31 1.381 . S
O29 Fe0 1.916 1_565 S
O29 C31 1.421 1_655 S
C30 O18 1.381 1_455 S
C30 O19 1.421 . S
C31 O28 1.381 . S
C31 O29 1.421 1_455 S
Mg32 O39 2.141 . S
Mg32 O40 2.048 . S
Mg32 O41 2.048 . S
Mg32 O44 2.141 . S
C33 O34 1.313 . S
C33 O40 1.195 1_455 S
O34 C33 1.313 . S
C35 O36 1.245 . S
C35 O44 1.289 1_455 S
O36 C35 1.245 . S
C37 O38 1.245 . S
C37 O39 1.289 1_455 S
O38 C37 1.245 . S
O39 Mg32 2.141 . S
O39 C37 1.289 1_655 S
O40 Mg32 2.048 . S
O40 C33 1.195 1_655 S
O41 Mg32 2.048 . S
O41 C42 1.195 1_655 S
C42 O41 1.195 1_455 S
C42 O43 1.313 . S
O43 C42 1.313 . S
O44 Mg32 2.141 . S
O44 C35 1.289 1_655 S
Mg45 O52 2.141 . S
Mg45 O53 2.048 . S
Mg45 O54 2.048 . S
Mg45 O57 2.141 . S
C46 O47 1.313 . S
C46 O53 1.195 1_565 S
O47 C46 1.313 . S
C48 O49 1.245 . S
C48 O57 1.289 1_565 S
O49 C48 1.245 . S
C50 O51 1.245 . S
C50 O52 1.289 1_565 S
O51 C50 1.245 . S
O52 Mg45 2.141 . S
O52 C50 1.289 1_545 S
O53 Mg45 2.048 . S
O53 C46 1.195 1_545 S
O54 Mg45 2.048 . S
O54 C55 1.195 1_545 S
C55 O54 1.195 1_565 S
C55 O56 1.313 . S
O56 C55 1.313 . S
O57 Mg45 2.141 . S
O57 C48 1.289 1_545 S
C58 C59 1.386 1_655 S
C58 C60 1.383 . S
C58 H74 0.951 . S
C59 C58 1.386 1_455 S
C59 C63 1.383 . S
C60 C58 1.383 . S
C60 C61 1.402 1_655 S
C60 H75 0.951 . S
C61 C60 1.402 1_455 S
C61 C62 1.375 . S
C61 C64 1.481 . S
C62 C61 1.375 . S
C62 C63 1.367 . S
C62 H76 0.951 . S
C63 C59 1.383 . S
C63 C62 1.367 . S
C63 H77 0.950 . S
C64 C61 1.481 . S
C64 C65 1.297 1_455 S
C64 H78 0.950 . S
C65 C64 1.297 1_655 S
C65 C66 1.479 . S
C65 H79 0.950 . S
C66 C65 1.479 . S
C66 C67 1.375 . S
C66 C72 1.404 1_655 S
C67 C66 1.375 . S
C67 C68 1.369 . S
C67 H80 0.950 . S
C68 C67 1.369 . S
C68 C69 1.392 . S
C68 H81 0.951 . S
C69 C68 1.392 . S
C69 C71 1.384 1_655 S
H70 C72 0.949 . S
C71 C69 1.384 1_455 S
C71 C72 1.385 . S
C71 H73 0.950 . S
C72 C66 1.404 1_455 S
C72 H70 0.949 . S
C72 C71 1.385 . S
H73 C71 0.950 . S
H74 C58 0.951 . S
H75 C60 0.951 . S
H76 C62 0.951 . S
H77 C63 0.950 . S
H78 C64 0.950 . S
H79 C65 0.950 . S
H80 C67 0.950 . S
H81 C68 0.951 . S
C82 C83 1.386 1_565 S
C82 C84 1.383 . S
C82 H98 0.951 . S
C83 C82 1.386 1_545 S
C83 C87 1.383 . S
C84 C82 1.383 . S
C84 C85 1.402 1_565 S
C84 H99 0.951 . S
C85 C84 1.402 1_545 S
C85 C86 1.375 . S
C85 C88 1.481 . S
C86 C85 1.375 . S
C86 C87 1.367 . S
C86 H100 0.951 . S
C87 C83 1.383 . S
C87 C86 1.367 . S
C87 H101 0.950 . S
C88 C85 1.481 . S
C88 C89 1.297 1_545 S
C88 H102 0.950 . S
C89 C88 1.297 1_565 S
C89 C90 1.479 . S
C89 H103 0.950 . S
C90 C89 1.479 . S
C90 C91 1.375 . S
C90 C96 1.404 1_565 S
C91 C90 1.375 . S
C91 C92 1.369 . S
C91 H104 0.950 . S
C92 C91 1.369 . S
C92 C93 1.392 . S
C92 H105 0.951 . S
C93 C92 1.392 . S
C93 C95 1.384 1_565 S
H94 C96 0.949 . S
C95 C93 1.384 1_545 S
C95 C96 1.385 . S
C95 H97 0.950 . S
C96 C90 1.404 1_545 S
C96 H94 0.949 . S
C96 C95 1.385 . S
H97 C95 0.950 . S
H98 C82 0.951 . S
H99 C84 0.951 . S
H100 C86 0.951 . S
H101 C87 0.950 . S
H102 C88 0.950 . S
H103 C89 0.950 . S
H104 C91 0.950 . S
H105 C92 0.951 . S
C106 C107 1.386 . S
C106 C108 1.383 . S
C106 H122 0.951 . S
C107 C106 1.386 . S
C107 C111 1.383 1_455 S
C108 C106 1.383 . S
C108 C109 1.402 . S
C108 H123 0.951 . S
C109 C108 1.402 . S
C109 C110 1.375 1_455 S
C109 C112 1.481 . S
C110 C109 1.375 1_655 S
C110 C111 1.367 . S
C110 H124 0.951 . S
C111 C107 1.383 1_655 S
C111 C110 1.367 . S
C111 H125 0.950 . S
C112 C109 1.481 . S
C112 C113 1.297 . S
C112 H126 0.950 1_455 S
C113 C112 1.297 . S
C113 C114 1.479 . S
C113 H127 0.950 . S
C114 C113 1.479 . S
C114 C115 1.375 . S
C114 C120 1.404 . S
C115 C114 1.375 . S
C115 C116 1.369 . S
C115 H128 0.950 . S
C116 C115 1.369 . S
C116 C117 1.392 . S
C116 H129 0.951 . S
C117 C116 1.392 . S
C117 C119 1.384 . S
H118 C120 0.949 . S
C119 C117 1.384 . S
C119 C120 1.385 . S
C119 H121 0.950 1_455 S
C120 C114 1.404 . S
C120 H118 0.949 . S
C120 C119 1.385 . S
H121 C119 0.950 1_655 S
H122 C106 0.951 . S
H123 C108 0.951 . S
H124 C110 0.951 . S
H125 C111 0.950 . S
H126 C112 0.950 1_655 S
H127 C113 0.950 . S
H128 C115 0.950 . S
H129 C116 0.951 . S
C130 C131 1.382 1_545 S
C130 C132 1.383 . S
C130 H146 0.951 . S
C131 C130 1.382 1_565 S
C131 C135 1.386 . S
C132 C130 1.383 . S
C132 C133 1.402 1_545 S
C132 H147 0.951 . S
C133 C132 1.402 1_565 S
C133 C134 1.375 . S
C133 C136 1.481 . S
C134 C133 1.375 . S
C134 C135 1.367 . S
C134 H148 0.951 . S
C135 C131 1.386 . S
C135 C134 1.367 . S
C135 H149 0.950 . S
C136 C133 1.481 . S
C136 C137 1.297 1_565 S
C136 H150 0.950 . S
C137 C136 1.297 1_545 S
C137 C138 1.479 . S
C137 H151 0.950 . S
C138 C137 1.479 . S
C138 C139 1.375 . S
C138 C144 1.404 1_545 S
C139 C138 1.375 . S
C139 C140 1.369 . S
C139 H152 0.950 . S
C140 C139 1.369 . S
C140 C141 1.392 . S
C140 H153 0.951 . S
C141 C140 1.392 . S
C141 C143 1.384 1_545 S
H142 C144 0.949 . S
C143 C141 1.384 1_565 S
C143 C144 1.385 . S
C143 H145 0.950 . S
C144 C138 1.404 1_565 S
C144 H142 0.949 . S
C144 C143 1.385 . S
H145 C143 0.950 . S
H146 C130 0.951 . S
H147 C132 0.951 . S
H148 C134 0.951 . S
H149 C135 0.950 . S
H150 C136 0.950 . S
H151 C137 0.950 . S
H152 C139 0.950 . S
H153 C140 0.951 . S
C154 C155 1.385 . S
C154 C156 1.383 . S
C154 H170 0.951 . S
C155 C154 1.385 . S
C155 C159 1.384 1_455 S
C156 C154 1.383 . S
C156 C157 1.403 . S
C156 H171 0.951 . S
C157 C156 1.403 . S
C157 C158 1.374 1_455 S
C157 C160 1.481 1_455 S
C158 C157 1.374 1_655 S
C158 C159 1.367 . S
C158 H172 0.951 . S
C159 C155 1.384 1_655 S
C159 C158 1.367 . S
C159 H173 0.950 . S
C160 C157 1.481 1_655 S
C160 C161 1.297 1_655 S
C160 H174 0.950 . S
C161 C160 1.297 1_455 S
C161 C162 1.479 . S
C161 H175 0.950 . S
C162 C161 1.479 . S
C162 C163 1.375 . S
C162 C168 1.404 1_455 S
C163 C162 1.375 . S
C163 C164 1.369 . S
C163 H176 0.950 . S
C164 C163 1.369 . S
C164 C165 1.392 . S
C164 H177 0.951 . S
C165 C164 1.392 . S
C165 C167 1.384 1_455 S
H166 C168 0.949 . S
C167 C165 1.384 1_655 S
C167 C168 1.385 . S
C167 H169 0.950 . S
C168 C162 1.404 1_655 S
C168 H166 0.949 . S
C168 C167 1.385 . S
H169 C167 0.950 . S
H170 C154 0.951 . S
H171 C156 0.951 . S
H172 C158 0.951 . S
H173 C159 0.950 . S
H174 C160 0.950 . S
H175 C161 0.950 . S
H176 C163 0.950 . S
H177 C164 0.951 . S
C178 C179 1.386 1_565 S
C178 C180 1.383 . S
C178 H194 0.951 . S
C179 C178 1.386 1_545 S
C179 C183 1.383 . S
C180 C178 1.383 . S
C180 C181 1.402 1_565 S
C180 H195 0.951 . S
C181 C180 1.402 1_545 S
C181 C182 1.375 . S
C181 C184 1.481 . S
C182 C181 1.375 . S
C182 C183 1.367 . S
C182 H196 0.951 . S
C183 C179 1.383 . S
C183 C182 1.367 . S
C183 H197 0.950 . S
C184 C181 1.481 . S
C184 C185 1.297 1_545 S
C184 H198 0.950 . S
C185 C184 1.297 1_565 S
C185 C186 1.479 1_565 S
C185 H199 0.950 . S
C186 C185 1.479 1_545 S
C186 C187 1.375 1_545 S
C186 C192 1.404 . S
C187 C186 1.375 1_565 S
C187 C188 1.369 . S
C187 H200 0.950 . S
C188 C187 1.369 . S
C188 C189 1.392 1_565 S
C188 H201 0.951 . S
C189 C188 1.392 1_545 S
C189 C191 1.384 . S
H190 C192 0.949 . S
C191 C189 1.384 . S
C191 C192 1.385 . S
C191 H193 0.950 . S
C192 C186 1.404 . S
C192 H190 0.949 . S
C192 C191 1.385 . S
H193 C191 0.950 . S
H194 C178 0.951 . S
H195 C180 0.951 . S
H196 C182 0.951 . S
H197 C183 0.950 . S
H198 C184 0.950 . S
H199 C185 0.950 . S
H200 C187 0.950 . S
H201 C188 0.951 . S
C202 C203 1.386 1_455 S
C202 C204 1.383 . S
C202 H218 0.951 . S
C203 C202 1.386 1_655 S
C203 C207 1.383 . S
C204 C202 1.383 . S
C204 C205 1.402 1_455 S
C204 H219 0.951 . S
C205 C204 1.402 1_655 S
C205 C206 1.375 . S
C205 C208 1.481 . S
C206 C205 1.375 . S
C206 C207 1.367 . S
C206 H220 0.951 . S
C207 C203 1.383 . S
C207 C206 1.367 . S
C207 H221 0.950 . S
C208 C205 1.481 . S
C208 C209 1.297 1_655 S
C208 H222 0.950 . S
C209 C208 1.297 1_455 S
C209 C210 1.479 1_455 S
C209 H223 0.950 . S
C210 C209 1.479 1_655 S
C210 C211 1.375 1_655 S
C210 C216 1.404 . S
C211 C210 1.375 1_455 S
C211 C212 1.369 . S
C211 H224 0.950 . S
C212 C211 1.369 . S
C212 C213 1.392 1_455 S
C212 H225 0.951 . S
C213 C212 1.392 1_655 S
C213 C215 1.384 . S
H214 C216 0.949 . S
C215 C213 1.384 . S
C215 C216 1.385 . S
C215 H217 0.950 . S
C216 C210 1.404 . S
C216 H214 0.949 . S
C216 C215 1.385 . S
H217 C215 0.950 . S
H218 C202 0.951 . S
H219 C204 0.951 . S
H220 C206 0.951 . S
H221 C207 0.950 . S
H222 C208 0.950 . S
H223 C209 0.950 . S
H224 C211 0.950 . S
H225 C212 0.951 . S
C226 C227 1.386 1_565 S
C226 C228 1.383 . S
C226 H242 0.951 . S
C227 C226 1.386 1_545 S
C227 C231 1.383 . S
C228 C226 1.383 . S
C228 C229 1.402 1_565 S
C228 H243 0.951 . S
C229 C228 1.402 1_545 S
C229 C230 1.375 . S
C229 C232 1.481 . S
C230 C229 1.375 . S
C230 C231 1.367 . S
C230 H244 0.951 . S
C231 C227 1.383 . S
C231 C230 1.367 . S
C231 H245 0.950 . S
C232 C229 1.481 . S
C232 C233 1.297 1_545 S
C232 H246 0.950 . S
C233 C232 1.297 1_565 S
C233 C234 1.479 . S
C233 H247 0.950 . S
C234 C233 1.479 . S
C234 C235 1.375 . S
C234 C240 1.404 1_565 S
C235 C234 1.375 . S
C235 C236 1.369 . S
C235 H248 0.950 . S
C236 C235 1.369 . S
C236 C237 1.392 . S
C236 H249 0.951 . S
C237 C236 1.392 . S
C237 C239 1.384 1_565 S
H238 C240 0.949 . S
C239 C237 1.384 1_545 S
C239 C240 1.385 . S
C239 H241 0.950 . S
C240 C234 1.404 1_545 S
C240 H238 0.949 . S
C240 C239 1.385 . S
H241 C239 0.950 . S
H242 C226 0.951 . S
H243 C228 0.951 . S
H244 C230 0.951 . S
H245 C231 0.950 . S
H246 C232 0.950 . S
H247 C233 0.950 . S
H248 C235 0.950 . S
H249 C236 0.951 . S
C59 C22 1.415 1_455 S
C69 C33 1.449 1_655 S
C83 C8 1.385 . S
C93 C55 1.439 . S
C107 C31 1.378 . S
C117 C42 1.432 . S
C131 C17 1.382 . S
C141 C46 1.456 1_545 S
C155 C30 1.347 . S
C165 C35 1.351 . S
C179 C27 1.359 1_545 S
C189 C50 1.369 1_545 S
C213 C37 1.370 1_655 S
C203 C23 1.300 . S
C227 C24 1.339 . S
C237 C48 1.363 . S
