# Generated by pormake.
# Topology pth, (4,4)-cn, num edge types: 1
# Building blocks:
#     Node 0, Type 0, BuildingBlock: QUQFOY_clean_sbu_1, # of connection points: 4
#     Node 1, Type 0, BuildingBlock: QUQFOY_clean_sbu_1, # of connection points: 4
#     Node 2, Type 0, BuildingBlock: QUQFOY_clean_sbu_1, # of connection points: 4
#     Node 3, Type 1, BuildingBlock: NAWXER_clean_sbu_0, # of connection points: 4
#     Node 4, Type 1, BuildingBlock: NAWXER_clean_sbu_0, # of connection points: 4
#     Node 5, Type 1, BuildingBlock: NAWXER_clean_sbu_0, # of connection points: 4
#     Edge 6, Type (0, 1), None
#     Edge 7, Type (0, 1), None
#     Edge 8, Type (0, 1), None
#     Edge 9, Type (0, 1), None
#     Edge 10, Type (0, 1), None
#     Edge 11, Type (0, 1), None
#     Edge 12, Type (0, 1), None
#     Edge 13, Type (0, 1), None
#     Edge 14, Type (0, 1), None
#     Edge 15, Type (0, 1), None
#     Edge 16, Type (0, 1), None
#     Edge 17, Type (0, 1), None
# Relax obj value: 0.036
# Max RMSD: 0.128
# Mean RMSD: 0.061
data_MOF--net-pth--node1-QUQFOY_clean_sbu_1--node2-NAWXER_clean_sbu_0--edge1-none
_symmetry_space_group_name_H-M    P1
_symmetry_Int_Tables_number       1
_symmetry_cell_setting            triclinic
loop_
_symmetry_equiv_pos_as_xyz
'x, y, z'
_cell_length_a     10.308629
_cell_length_b     10.580627
_cell_length_c     26.20615
_cell_angle_alpha  90.000148
_cell_angle_beta   89.999907
_cell_angle_gamma 119.68597
loop_
_atom_site_label
_atom_site_type_symbol
_atom_site_fract_x
_atom_site_fract_y
_atom_site_fract_z
_atom_type_partial_charge
O0 O 0.13644 0.25131 1.00851 0.0
Cd1 Cd 0.93666 0.13242 0.04858 0.0
Cd2 Cd 0.05785 0.94875 0.04858 0.0
O3 O 0.23506 0.10713 1.0091 0.0
O4 O 0.86739 0.26815 0.07331 0.0
O5 O 0.93444 0.14454 0.12484 0.0
C6 C 0.88576 0.23507 0.11904 0.0
C7 C 0.10875 0.8461 0.11904 0.0
C8 C 0.24058 0.22486 0.99613 0.0
C9 C 0.75393 0.85631 0.99613 0.0
O10 O 0.85806 0.82985 1.00851 0.0
O11 O 0.75944 0.97404 1.00911 0.0
O12 O 0.12711 0.81302 0.07331 0.0
O13 O 0.06007 0.93663 0.12484 0.0
O14 O 0.84493 0.09886 0.44761 0.0
Cd15 Cd 0.05005 0.18819 0.40909 0.0
Cd16 Cd 0.94445 0.89299 0.40909 0.0
O17 O 0.7614 0.86211 0.44988 0.0
O18 O 0.10398 0.38632 0.38388 0.0
O19 O 0.06084 0.20297 0.33265 0.0
C20 C 0.09807 0.33802 0.33832 0.0
C21 C 0.89643 0.74316 0.33832 0.0
C22 C 0.74626 0.97026 0.46107 0.0
C23 C 0.24824 0.11091 0.46107 0.0
O24 O 0.14957 0.98231 0.44761 0.0
O25 O 0.2331 0.21906 0.44988 0.0
O26 O 0.89052 0.69485 0.38388 0.0
O27 O 0.93366 0.8782 0.33265 0.0
O28 O 0.78268 0.97878 0.67872 0.0
Cd29 Cd 0.89919 0.88821 0.71593 0.0
Cd30 Cd 0.09531 0.19297 0.71593 0.0
O31 O 0.9415 0.21543 0.67413 0.0
O32 O 0.75751 0.68514 0.73973 0.0
O33 O 0.89789 0.86594 0.79201 0.0
C34 C 0.80229 0.72973 0.78554 0.0
C35 C 0.19221 0.35144 0.78554 0.0
C36 C 0.81552 0.10705 0.66422 0.0
C37 C 0.17898 0.97413 0.66422 0.0
O38 O 0.21182 0.10239 0.67872 0.0
O39 O 0.053 0.86575 0.67413 0.0
O40 O 0.23699 0.39603 0.73973 0.0
O41 O 0.09661 0.21523 0.79201 0.0
C42 C 0.89756 0.65751 0.29489 0.0
C43 C 0.89009 0.32597 0.16162 0.0
O44 O 0.02503 0.68149 0.27938 0.0
Zn45 Zn 0.11991 0.59746 0.228 0.0
O46 O 0.77827 0.5526 0.2764 0.0
Zn47 Zn 0.87459 0.48371 0.228 0.0
O48 O 0.96947 0.39968 0.27938 0.0
O49 O 0.21623 0.52857 0.2764 0.0
O50 O 0.77321 0.32264 0.17931 0.0
O51 O 0.019 0.421 0.17741 0.0
O52 O 0.2213 0.75853 0.17931 0.0
O53 O 0.9755 0.66017 0.17741 0.0
C54 C 0.09695 0.42366 0.29489 0.0
C55 C 0.10441 0.7552 0.16162 0.0
C56 C 0.7119 0.12197 0.62953 0.0
C57 C 0.36738 0.12566 0.49566 0.0
O58 O 0.60543 1.00339 0.61277 0.0
Zn59 Zn 0.43248 0.91433 0.56242 0.0
O60 O 0.73212 0.24357 0.612 0.0
Zn61 Zn 0.56202 0.16685 0.56242 0.0
O62 O 0.38907 0.07778 0.61277 0.0
O63 O 0.26238 0.83761 0.612 0.0
O64 O 0.47212 0.24684 0.51291 0.0
O65 O 0.35243 1.00666 0.51241 0.0
O66 O 0.52238 0.83433 0.51291 0.0
O67 O 0.64207 0.07451 0.51241 0.0
C68 C 0.2826 0.9592 0.62953 0.0
C69 C 0.62712 0.95551 0.49566 0.0
C70 C 0.35871 0.32725 0.96194 0.0
C71 C 0.71258 0.64278 0.82861 0.0
O72 O 0.34723 0.43536 0.94638 0.0
Zn73 Zn 0.44319 0.61038 0.89642 0.0
O74 O 0.46112 0.30489 0.94418 0.0
Zn75 Zn 0.55132 0.47079 0.89642 0.0
O76 O 0.64727 0.64581 0.94638 0.0
O77 O 0.53338 0.77627 0.94418 0.0
O78 O 0.7146 0.53047 0.8456 0.0
O79 O 0.61845 0.67653 0.84568 0.0
O80 O 0.27991 0.5507 0.8456 0.0
O81 O 0.37606 0.40464 0.84568 0.0
C82 C 0.6358 0.75391 0.96194 0.0
C83 C 0.28192 0.43839 0.82861 0.0
loop_
_geom_bond_atom_site_label_1
_geom_bond_atom_site_label_2
_geom_bond_distance
_geom_bond_site_symmetry_2
_ccdc_geom_bond_type
O0 Cd1 2.223 1_456 S
O0 C8 1.315 . S
Cd1 O0 2.223 1_654 S
Cd1 O4 2.297 . S
Cd1 O5 2.439 . S
Cd1 O11 2.240 1_545 S
Cd2 O3 2.240 1_565 S
Cd2 O10 2.223 1_454 S
Cd2 O12 2.297 . S
Cd2 O13 2.439 . S
O3 Cd2 2.240 1_545 S
O3 C8 1.279 1_554 S
O4 Cd1 2.297 . S
O4 C6 1.247 . S
O5 Cd1 2.439 . S
O5 C6 1.208 . S
C6 O4 1.247 . S
C6 O5 1.208 . S
C7 O12 1.247 . S
C7 O13 1.208 . S
C8 O0 1.315 . S
C8 O3 1.279 1_556 S
C9 O10 1.315 . S
C9 O11 1.279 1_556 S
O10 Cd2 2.223 1_656 S
O10 C9 1.315 . S
O11 Cd1 2.240 1_565 S
O11 C9 1.279 1_554 S
O12 Cd2 2.297 . S
O12 C7 1.247 . S
O13 Cd2 2.439 . S
O13 C7 1.208 . S
O14 Cd15 2.223 1_655 S
O14 C22 1.315 . S
Cd15 O14 2.223 1_455 S
Cd15 O18 2.297 . S
Cd15 O19 2.439 . S
Cd15 O25 2.240 . S
Cd16 O17 2.240 . S
Cd16 O24 2.223 1_655 S
Cd16 O26 2.297 . S
Cd16 O27 2.439 . S
O17 Cd16 2.240 . S
O17 C22 1.279 1_565 S
O18 Cd15 2.297 . S
O18 C20 1.247 . S
O19 Cd15 2.439 . S
O19 C20 1.208 . S
C20 O18 1.247 . S
C20 O19 1.208 . S
C21 O26 1.247 . S
C21 O27 1.208 . S
C22 O14 1.315 . S
C22 O17 1.279 1_545 S
C23 O24 1.315 . S
C23 O25 1.279 1_565 S
O24 Cd16 2.223 1_455 S
O24 C23 1.315 . S
O25 Cd15 2.240 . S
O25 C23 1.279 1_545 S
O26 Cd16 2.297 . S
O26 C21 1.247 . S
O27 Cd16 2.439 . S
O27 C21 1.208 . S
O28 Cd29 2.223 . S
O28 C36 1.315 . S
Cd29 O28 2.223 . S
Cd29 O32 2.297 . S
Cd29 O33 2.439 . S
Cd29 O39 2.240 1_655 S
Cd30 O31 2.240 1_455 S
Cd30 O38 2.223 . S
Cd30 O40 2.297 . S
Cd30 O41 2.439 . S
O31 Cd30 2.240 1_655 S
O31 C36 1.279 1_545 S
O32 Cd29 2.297 . S
O32 C34 1.247 . S
O33 Cd29 2.439 . S
O33 C34 1.208 . S
C34 O32 1.247 . S
C34 O33 1.208 . S
C35 O40 1.247 . S
C35 O41 1.208 . S
C36 O28 1.315 . S
C36 O31 1.279 1_565 S
C37 O38 1.315 . S
C37 O39 1.279 1_545 S
O38 Cd30 2.223 . S
O38 C37 1.315 . S
O39 Cd29 2.240 1_455 S
O39 C37 1.279 1_565 S
O40 Cd30 2.297 . S
O40 C35 1.247 . S
O41 Cd30 2.439 . S
O41 C35 1.208 . S
C42 O44 1.252 . S
C42 O46 1.255 1_455 S
C43 O50 1.250 . S
C43 O51 1.256 1_655 S
O44 C42 1.252 . S
O44 Zn45 2.028 . S
Zn45 O44 2.028 . S
Zn45 O49 2.035 . S
Zn45 O51 2.035 . S
Zn45 O52 2.028 . S
O46 C42 1.255 1_655 S
O46 Zn47 2.035 . S
Zn47 O46 2.035 . S
Zn47 O48 2.028 . S
Zn47 O50 2.028 . S
Zn47 O53 2.035 . S
O48 Zn47 2.028 . S
O48 C54 1.250 . S
O49 Zn45 2.035 . S
O49 C54 1.256 1_455 S
O50 C43 1.250 . S
O50 Zn47 2.028 . S
O51 C43 1.256 1_455 S
O51 Zn45 2.035 . S
O52 Zn45 2.028 . S
O52 C55 1.252 . S
O53 Zn47 2.035 . S
O53 C55 1.255 1_655 S
C54 O48 1.250 . S
C54 O49 1.256 1_655 S
C55 O52 1.252 . S
C55 O53 1.255 1_455 S
C56 O58 1.249 . S
C56 O60 1.255 1_565 S
C57 O64 1.250 . S
C57 O65 1.253 1_545 S
O58 C56 1.249 . S
O58 Zn59 2.028 . S
Zn59 O58 2.028 . S
Zn59 O63 2.035 . S
Zn59 O65 2.035 . S
Zn59 O66 2.028 . S
O60 C56 1.255 1_545 S
O60 Zn61 2.035 . S
Zn61 O60 2.035 . S
Zn61 O62 2.028 . S
Zn61 O64 2.028 . S
Zn61 O67 2.035 . S
O62 Zn61 2.028 . S
O62 C68 1.250 . S
O63 Zn59 2.035 . S
O63 C68 1.253 1_565 S
O64 C57 1.250 . S
O64 Zn61 2.028 . S
O65 C57 1.253 1_565 S
O65 Zn59 2.035 . S
O66 Zn59 2.028 . S
O66 C69 1.249 . S
O67 Zn61 2.035 . S
O67 C69 1.255 1_545 S
C68 O62 1.250 . S
C68 O63 1.253 1_545 S
C69 O66 1.249 . S
C69 O67 1.255 1_565 S
C70 O72 1.247 . S
C70 O74 1.258 . S
C71 O78 1.247 . S
C71 O79 1.258 . S
O72 C70 1.247 . S
O72 Zn73 2.028 . S
Zn73 O72 2.028 . S
Zn73 O77 2.035 . S
Zn73 O79 2.035 . S
Zn73 O80 2.028 . S
O74 C70 1.258 . S
O74 Zn75 2.035 . S
Zn75 O74 2.035 . S
Zn75 O76 2.028 . S
Zn75 O78 2.028 . S
Zn75 O81 2.035 . S
O76 Zn75 2.028 . S
O76 C82 1.247 . S
O77 Zn73 2.035 . S
O77 C82 1.258 . S
O78 C71 1.247 . S
O78 Zn75 2.028 . S
O79 C71 1.258 . S
O79 Zn73 2.035 . S
O80 Zn73 2.028 . S
O80 C83 1.247 . S
O81 Zn75 2.035 . S
O81 C83 1.258 . S
C82 O76 1.247 . S
C82 O77 1.258 . S
C83 O80 1.247 . S
C83 O81 1.258 . S
C43 C6 1.505 . S
C22 C69 1.598 1_545 S
C34 C71 1.376 . S
C7 C55 1.506 . S
C57 C23 1.597 1_545 S
C35 C83 1.376 . S
C56 C36 1.654 . S
C9 C82 1.898 . S
C42 C21 1.473 1_455 S
C68 C37 1.654 . S
C70 C8 1.896 . S
C20 C54 1.472 1_455 S
