# Generated by pormake.
# Topology pts, (4,4)-cn, num edge types: 1
# Building blocks:
#     Node 0, Type 0, BuildingBlock: NAWXER_clean_sbu_0, # of connection points: 4
#     Node 1, Type 0, BuildingBlock: NAWXER_clean_sbu_0, # of connection points: 4
#     Node 2, Type 1, BuildingBlock: AZAVOO_clean_sbu_0, # of connection points: 4
#     Node 3, Type 1, BuildingBlock: AZAVOO_clean_sbu_0, # of connection points: 4
#     Edge 4, Type (0, 1), BuildingBlock: AJUNOK_clean_linker_0, # of connection points: 2
#     Edge 5, Type (0, 1), BuildingBlock: AJUNOK_clean_linker_0, # of connection points: 2
#     Edge 6, Type (0, 1), BuildingBlock: AJUNOK_clean_linker_0, # of connection points: 2
#     Edge 7, Type (0, 1), BuildingBlock: AJUNOK_clean_linker_0, # of connection points: 2
#     Edge 8, Type (0, 1), BuildingBlock: AJUNOK_clean_linker_0, # of connection points: 2
#     Edge 9, Type (0, 1), BuildingBlock: AJUNOK_clean_linker_0, # of connection points: 2
#     Edge 10, Type (0, 1), BuildingBlock: AJUNOK_clean_linker_0, # of connection points: 2
#     Edge 11, Type (0, 1), BuildingBlock: AJUNOK_clean_linker_0, # of connection points: 2
# Relax obj value: 0.010
# Max RMSD: 0.056
# Mean RMSD: 0.045
data_MOF--net-pts--node1-NAWXER_clean_sbu_0--node2-AZAVOO_clean_sbu_0--edge1-AJUNOK_clean_linker_0
_symmetry_space_group_name_H-M    P1
_symmetry_Int_Tables_number       1
_symmetry_cell_setting            triclinic
loop_
_symmetry_equiv_pos_as_xyz
'x, y, z'
_cell_length_a     16.523761
_cell_length_b     18.029573
_cell_length_c     26.532477
_cell_angle_alpha  90.35596
_cell_angle_beta   96.940944
_cell_angle_gamma 89.455839
loop_
_atom_site_label
_atom_site_type_symbol
_atom_site_fract_x
_atom_site_fract_y
_atom_site_fract_z
_atom_type_partial_charge
C0 C 0.45985 0.96656 0.96557 0.0
C1 C 0.68407 0.9694 0.10441 0.0
O2 O 0.49645 0.90977 0.98594 0.0
Zn3 Zn 0.57243 0.96307 0.03453 0.0
O4 O 0.48293 0.03171 0.98003 0.0
Zn5 Zn 0.57321 0.0831 0.03297 0.0
O6 O 0.64164 0.13143 0.9876 0.0
O7 O 0.65182 0.00936 0.98642 0.0
O8 O 0.66211 0.03387 0.08772 0.0
O9 O 0.64736 0.91217 0.08532 0.0
O10 O 0.49191 0.01614 0.07981 0.0
O11 O 0.505 0.13789 0.0765 0.0
C12 C 0.67318 0.07262 0.97118 0.0
C13 C 0.47107 0.08125 0.09296 0.0
C14 C 0.03149 0.58775 0.46391 0.0
C15 C 0.03096 0.40776 0.60295 0.0
O16 O 0.96705 0.56712 0.48177 0.0
Zn17 Zn 0.02123 0.49996 0.53395 0.0
O18 O 0.10093 0.56303 0.48332 0.0
Zn19 Zn 0.15588 0.49268 0.54023 0.0
O20 O 0.20375 0.41621 0.49918 0.0
O21 O 0.06926 0.4179 0.48911 0.0
O22 O 0.10059 0.42585 0.5907 0.0
O23 O 0.96653 0.43731 0.57982 0.0
O24 O 0.08336 0.57588 0.5845 0.0
O25 O 0.21711 0.56408 0.58593 0.0
C26 C 0.1364 0.38993 0.47822 0.0
C27 C 0.15545 0.59595 0.60145 0.0
Mg28 Mg 0.14134 0.96139 0.31252 0.0
O29 O 1.01552 0.97343 0.26514 0.0
O30 O 0.92102 0.9629 0.31851 0.0
Mg31 Mg 0.98514 0.95571 0.39961 0.0
C32 C 0.94123 0.96926 0.2738 0.0
C33 C 0.25907 0.0508 0.24893 0.0
O34 O 0.27946 0.08287 0.29316 0.0
O35 O 0.13751 0.07948 0.34267 0.0
O36 O 0.0424 0.07066 0.39534 0.0
O37 O 0.13102 0.83819 0.3041 0.0
O38 O 0.08655 0.90148 0.36689 0.0
C39 C 0.09507 0.10787 0.37494 0.0
C40 C 0.0919 0.83911 0.34355 0.0
O41 O 0.20512 0.00037 0.24526 0.0
Mg42 Mg 1.01035 0.96981 0.74669 0.0
O43 O 0.13158 0.97483 0.8 0.0
O44 O 0.23281 0.97164 0.75097 0.0
Mg45 Mg 0.17834 0.9787 0.66813 0.0
C46 C 0.20733 0.97146 0.79447 0.0
C47 C 0.88684 0.0502 0.81263 0.0
O48 O 0.87373 0.09134 0.77175 0.0
O49 O 1.01567 0.09201 0.72697 0.0
O50 O 0.11879 0.09276 0.67965 0.0
O51 O 0.02469 0.84599 0.74426 0.0
O52 O 0.07107 0.9212 0.68949 0.0
C53 C 0.0624 0.12596 0.70025 0.0
C54 C 0.06583 0.85486 0.70618 0.0
O55 O 0.93832 -0.0031 0.81365 0.0
C56 C 0.42208 0.12637 0.17344 0.0
C57 C 0.40775 0.08708 0.12748 0.0
C58 C 0.37133 0.11692 0.21179 0.0
C59 C 0.30446 0.06805 0.20531 0.0
H60 H 0.47561 0.16078 0.18109 0.0
H61 H 0.38695 0.14566 0.24755 0.0
S62 S 0.23466 0.96196 0.0878 0.0
N63 N 0.31775 0.00444 0.07498 0.0
N64 N 0.22173 -0.01271 0.14622 0.0
C65 C 0.2864 0.03296 0.15776 0.0
C66 C 0.33828 0.04229 0.1191 0.0
C67 C 0.10416 0.32241 0.66636 0.0
C68 C 0.02949 0.34554 0.63922 0.0
C69 C 0.11286 0.25293 0.68942 0.0
C70 C 0.04672 0.20468 0.68776 0.0
H71 H 0.1583 0.35597 0.66682 0.0
H72 H 0.17286 0.23525 0.70639 0.0
S73 S 0.8349 0.24274 0.62992 0.0
N74 N 0.88568 0.31769 0.61757 0.0
N75 N 0.90167 0.18748 0.66286 0.0
C76 C 0.96969 0.22977 0.66568 0.0
C77 C 0.96104 0.30034 0.64108 0.0
C78 C 0.81744 0.01313 0.14762 0.0
C79 C 0.75153 0.96386 0.14616 0.0
C80 C 0.87952 0.01374 0.18862 0.0
C81 C 0.87643 0.96676 0.23033 0.0
H82 H 0.82094 0.05171 0.11682 0.0
H83 H 0.92916 0.0525 0.18825 0.0
S84 S 0.71816 0.82623 0.24452 0.0
N85 N 0.68839 0.86523 0.1891 0.0
N86 N 0.80367 0.86788 0.26706 0.0
C87 C 0.81129 0.91675 0.22916 0.0
C88 C 0.74921 0.91483 0.18679 0.0
C89 C 0.13788 0.65829 0.68259 0.0
C90 C 0.16194 0.66248 0.6337 0.0
C91 C 0.1112 0.72167 0.70704 0.0
C92 C 0.10608 0.79125 0.68296 0.0
H93 H 0.13405 0.60479 0.70051 0.0
H94 H 0.09036 0.71518 0.74392 0.0
S95 S 0.16348 0.83052 0.55454 0.0
N96 N 0.18205 0.74101 0.56268 0.0
N97 N 0.13026 0.86004 0.60744 0.0
C98 C 0.13394 0.79647 0.63488 0.0
C99 C 0.16222 0.73203 0.61053 0.0
C100 C 0.32466 0.00905 0.92358 0.0
C101 C 0.39154 0.95981 0.92461 0.0
C102 C 0.26327 0.01061 0.88217 0.0
C103 C 0.26819 0.9646 0.83975 0.0
H104 H 0.32043 0.04748 0.95474 0.0
H105 H 0.21347 0.05007 0.88247 0.0
S106 S 0.42846 0.82335 0.82484 0.0
N107 N 0.45663 0.86124 0.881 0.0
N108 N 0.34275 0.86577 0.80226 0.0
C109 C 0.33362 0.91385 0.84087 0.0
C110 C 0.39493 0.91095 0.8836 0.0
C111 C 0.05304 0.29749 0.42548 0.0
C112 C 0.13122 0.32357 0.44451 0.0
C113 C 0.04252 0.22933 0.40058 0.0
C114 C 0.10959 0.18486 0.39239 0.0
H115 H 0.99849 0.32824 0.43175 0.0
H116 H 0.98104 0.21015 0.38907 0.0
S117 S 0.32746 0.22989 0.42868 0.0
N118 N 0.27746 0.30138 0.44953 0.0
N119 N 0.25731 0.17317 0.40117 0.0
C120 C 0.18841 0.21193 0.40769 0.0
C121 C 0.19933 0.28133 0.43409 0.0
C122 C 0.7852 0.01228 0.93053 0.0
C123 C 0.73326 0.07409 0.9339 0.0
C124 C 0.83648 0.00647 0.89239 0.0
C125 C 0.83757 0.06186 0.85543 0.0
H126 H 0.78528 0.96693 0.95716 0.0
H127 H 0.87364 0.95684 0.89105 0.0
S128 S 0.71789 0.23793 0.84944 0.0
N129 N 0.68968 0.1941 0.89885 0.0
N130 N 0.78575 0.18332 0.82664 0.0
C131 C 0.78825 0.1255 0.85942 0.0
C132 C 0.73635 0.13168 0.89879 0.0
C133 C 0.09861 0.64533 0.39535 0.0
C134 C 0.0315 0.64393 0.4235 0.0
C135 C 0.11387 0.70686 0.36626 0.0
C136 C 0.06295 0.76965 0.36443 0.0
H137 H 0.14264 0.60015 0.39812 0.0
H138 H 0.16914 0.70719 0.34805 0.0
S139 S 0.86844 0.78669 0.42059 0.0
N140 N 0.90633 0.70553 0.4407 0.0
N141 N 0.93401 0.82084 0.38471 0.0
C142 C 0.99106 0.76597 0.3879 0.0
C143 C 0.97535 0.70296 0.41764 0.0
loop_
_geom_bond_atom_site_label_1
_geom_bond_atom_site_label_2
_geom_bond_distance
_geom_bond_site_symmetry_2
_ccdc_geom_bond_type
C0 O2 1.247 1_545 S
C0 O4 1.258 . S
C1 O8 1.247 . S
C1 O9 1.258 1_545 S
O2 C0 1.247 1_565 S
O2 Zn3 2.028 1_556 S
Zn3 O2 2.028 1_554 S
Zn3 O7 2.035 1_554 S
Zn3 O9 2.035 . S
Zn3 O10 2.028 . S
O4 C0 1.258 . S
O4 Zn5 2.035 1_556 S
Zn5 O4 2.035 1_554 S
Zn5 O6 2.028 1_554 S
Zn5 O8 2.028 . S
Zn5 O11 2.035 . S
O6 Zn5 2.028 1_556 S
O6 C12 1.247 . S
O7 Zn3 2.035 1_556 S
O7 C12 1.258 1_565 S
O8 C1 1.247 . S
O8 Zn5 2.028 . S
O9 C1 1.258 1_565 S
O9 Zn3 2.035 . S
O10 Zn3 2.028 . S
O10 C13 1.247 1_565 S
O11 Zn5 2.035 . S
O11 C13 1.258 . S
C12 O6 1.247 . S
C12 O7 1.258 1_545 S
C13 O10 1.247 1_545 S
C13 O11 1.258 . S
C14 O16 1.247 1_455 S
C14 O18 1.258 . S
C15 O22 1.247 . S
C15 O23 1.258 1_455 S
O16 C14 1.247 1_655 S
O16 Zn17 2.028 . S
Zn17 O16 2.028 . S
Zn17 O21 2.035 . S
Zn17 O23 2.035 . S
Zn17 O24 2.028 . S
O18 C14 1.258 . S
O18 Zn19 2.035 . S
Zn19 O18 2.035 . S
Zn19 O20 2.028 . S
Zn19 O22 2.028 . S
Zn19 O25 2.035 . S
O20 Zn19 2.028 . S
O20 C26 1.247 . S
O21 Zn17 2.035 . S
O21 C26 1.258 1_655 S
O22 C15 1.247 . S
O22 Zn19 2.028 . S
O23 C15 1.258 1_655 S
O23 Zn17 2.035 . S
O24 Zn17 2.028 . S
O24 C27 1.247 1_655 S
O25 Zn19 2.035 . S
O25 C27 1.258 . S
C26 O20 1.247 . S
C26 O21 1.258 1_455 S
C27 O24 1.247 1_455 S
C27 O25 1.258 . S
Mg28 O29 2.028 . S
Mg28 O35 1.986 . S
Mg28 O37 2.114 1_545 S
Mg28 O38 2.251 1_545 S
Mg28 O41 2.010 . S
O29 Mg28 2.028 . S
O29 C32 1.250 1_455 S
O30 Mg31 2.028 . S
O30 C32 1.248 . S
Mg31 O30 2.028 . S
Mg31 O36 2.032 . S
Mg31 O38 2.079 1_645 S
C32 O29 1.250 1_655 S
C32 O30 1.248 . S
C33 O34 1.264 . S
C33 O41 1.249 . S
O34 C33 1.264 . S
O35 Mg28 1.986 . S
O35 C39 1.246 . S
O36 Mg31 2.032 . S
O36 C39 1.259 1_655 S
O37 Mg28 2.114 1_565 S
O37 C40 1.252 . S
O38 Mg28 2.251 1_565 S
O38 Mg31 2.079 1_465 S
O38 C40 1.273 . S
C39 O35 1.246 . S
C39 O36 1.259 1_455 S
C40 O37 1.252 . S
C40 O38 1.273 . S
O41 Mg28 2.010 . S
O41 C33 1.249 . S
Mg42 O43 2.028 1_655 S
Mg42 O49 1.986 1_655 S
Mg42 O51 2.114 1_545 S
Mg42 O52 2.251 1_645 S
Mg42 O55 2.010 . S
O43 Mg42 2.028 1_455 S
O43 C46 1.250 . S
O44 Mg45 2.028 . S
O44 C46 1.248 . S
Mg45 O44 2.028 . S
Mg45 O50 2.032 . S
Mg45 O52 2.079 1_545 S
C46 O43 1.250 . S
C46 O44 1.248 . S
C47 O48 1.264 . S
C47 O55 1.249 . S
O48 C47 1.264 . S
O49 Mg42 1.986 1_455 S
O49 C53 1.246 . S
O50 Mg45 2.032 . S
O50 C53 1.259 . S
O51 Mg42 2.114 1_565 S
O51 C54 1.252 1_655 S
O52 Mg42 2.251 1_465 S
O52 Mg45 2.079 1_565 S
O52 C54 1.273 . S
C53 O49 1.246 . S
C53 O50 1.259 . S
C54 O51 1.252 1_455 S
C54 O52 1.273 . S
O55 Mg42 2.010 . S
O55 C47 1.249 . S
C56 C57 1.369 1_565 S
C56 C58 1.419 . S
C56 H60 0.930 . S
C57 C56 1.369 1_545 S
C57 C66 1.429 . S
C58 C56 1.419 . S
C58 C59 1.363 1_565 S
C58 H61 0.929 . S
C59 C58 1.363 1_545 S
C59 C65 1.428 . S
H60 C56 0.930 . S
H61 C58 0.929 . S
S62 N63 1.613 . S
S62 N64 1.610 . S
N63 S62 1.613 . S
N63 C66 1.350 . S
N64 S62 1.610 . S
N64 C65 1.351 . S
C65 C59 1.428 . S
C65 N64 1.351 . S
C65 C66 1.434 . S
C66 C57 1.429 . S
C66 N63 1.350 . S
C66 C65 1.434 . S
C67 C68 1.369 . S
C67 C69 1.419 . S
C67 H71 0.930 . S
C68 C67 1.369 . S
C68 C77 1.429 . S
C69 C67 1.419 . S
C69 C70 1.363 . S
C69 H72 0.929 . S
C70 C69 1.363 . S
C70 C76 1.428 . S
H71 C67 0.930 . S
H72 C69 0.929 . S
S73 N74 1.613 . S
S73 N75 1.610 . S
N74 S73 1.613 . S
N74 C77 1.350 . S
N75 S73 1.610 . S
N75 C76 1.351 . S
C76 C70 1.428 . S
C76 N75 1.351 . S
C76 C77 1.434 . S
C77 C68 1.429 . S
C77 N74 1.350 . S
C77 C76 1.434 . S
C78 C79 1.369 . S
C78 C80 1.419 . S
C78 H82 0.930 . S
C79 C78 1.369 . S
C79 C88 1.429 1_545 S
C80 C78 1.419 . S
C80 C81 1.363 . S
C80 H83 0.929 . S
C81 C80 1.363 . S
C81 C87 1.428 1_545 S
H82 C78 0.930 . S
H83 C80 0.929 . S
S84 N85 1.613 . S
S84 N86 1.610 . S
N85 S84 1.613 . S
N85 C88 1.350 . S
N86 S84 1.610 . S
N86 C87 1.351 . S
C87 C81 1.428 1_565 S
C87 N86 1.351 . S
C87 C88 1.434 . S
C88 C79 1.429 1_565 S
C88 N85 1.350 . S
C88 C87 1.434 . S
C89 C90 1.369 . S
C89 C91 1.419 . S
C89 H93 0.930 . S
C90 C89 1.369 . S
C90 C99 1.429 . S
C91 C89 1.419 . S
C91 C92 1.363 . S
C91 H94 0.929 . S
C92 C91 1.363 . S
C92 C98 1.428 . S
H93 C89 0.930 . S
H94 C91 0.929 . S
S95 N96 1.613 . S
S95 N97 1.610 . S
N96 S95 1.613 . S
N96 C99 1.350 . S
N97 S95 1.610 . S
N97 C98 1.351 . S
C98 C92 1.428 . S
C98 N97 1.351 . S
C98 C99 1.434 . S
C99 C90 1.429 . S
C99 N96 1.350 . S
C99 C98 1.434 . S
C100 C101 1.369 . S
C100 C102 1.419 . S
C100 H104 0.930 . S
C101 C100 1.369 . S
C101 C110 1.429 1_545 S
C102 C100 1.419 . S
C102 C103 1.363 . S
C102 H105 0.929 . S
C103 C102 1.363 . S
C103 C109 1.427 1_545 S
H104 C100 0.930 . S
H105 C102 0.929 . S
S106 N107 1.613 . S
S106 N108 1.610 . S
N107 S106 1.613 . S
N107 C110 1.350 . S
N108 S106 1.610 . S
N108 C109 1.352 . S
C109 C103 1.427 1_565 S
C109 N108 1.352 . S
C109 C110 1.434 . S
C110 C101 1.429 1_565 S
C110 N107 1.350 . S
C110 C109 1.434 . S
C111 C112 1.369 . S
C111 C113 1.419 . S
C111 H115 0.930 . S
C112 C111 1.369 . S
C112 C121 1.429 . S
C113 C111 1.419 . S
C113 C114 1.363 . S
C113 H116 0.929 . S
C114 C113 1.363 . S
C114 C120 1.428 . S
H115 C111 0.930 . S
H116 C113 0.929 . S
S117 N118 1.613 . S
S117 N119 1.610 . S
N118 S117 1.613 . S
N118 C121 1.350 . S
N119 S117 1.610 . S
N119 C120 1.351 . S
C120 C114 1.428 . S
C120 N119 1.351 . S
C120 C121 1.434 . S
C121 C112 1.429 . S
C121 N118 1.350 . S
C121 C120 1.434 . S
C122 C123 1.369 1_565 S
C122 C124 1.419 . S
C122 H126 0.930 . S
C123 C122 1.369 1_545 S
C123 C132 1.429 . S
C124 C122 1.419 . S
C124 C125 1.363 1_565 S
C124 H127 0.929 . S
C125 C124 1.363 1_545 S
C125 C131 1.428 . S
H126 C122 0.930 . S
H127 C124 0.929 . S
S128 N129 1.613 . S
S128 N130 1.610 . S
N129 S128 1.613 . S
N129 C132 1.350 . S
N130 S128 1.610 . S
N130 C131 1.351 . S
C131 C125 1.428 . S
C131 N130 1.351 . S
C131 C132 1.434 . S
C132 C123 1.429 . S
C132 N129 1.350 . S
C132 C131 1.434 . S
C133 C134 1.369 . S
C133 C135 1.419 . S
C133 H137 0.930 . S
C134 C133 1.369 . S
C134 C143 1.429 . S
C135 C133 1.419 . S
C135 C136 1.363 . S
C135 H138 0.929 . S
C136 C135 1.363 . S
C136 C142 1.428 . S
H137 C133 0.930 . S
H138 C135 0.929 . S
S139 N140 1.613 . S
S139 N141 1.610 . S
N140 S139 1.613 . S
N140 C143 1.350 1_655 S
N141 S139 1.610 . S
N141 C142 1.351 1_655 S
C142 C136 1.428 . S
C142 N141 1.351 1_455 S
C142 C143 1.434 . S
C143 C134 1.429 . S
C143 N140 1.350 1_455 S
C143 C142 1.434 . S
C59 C33 1.268 . S
C57 C13 1.476 . S
C70 C53 1.439 . S
C68 C15 1.473 . S
C81 C32 1.448 . S
C79 C1 1.482 . S
C92 C54 1.487 . S
C90 C27 1.488 . S
C103 C46 1.447 . S
C101 C0 1.481 . S
C114 C39 1.440 . S
C112 C26 1.473 . S
C125 C47 1.258 . S
C123 C12 1.475 . S
C134 C14 1.488 . S
C136 C40 1.488 . S
