# Generated by pormake.
# Topology bcu-b, (8,8)-cn, num edge types: 1
# Building blocks:
#     Node 0, Type 0, BuildingBlock: TAGTUT_clean_sbu_3, # of connection points: 8
#     Node 1, Type 1, BuildingBlock: TAGTUT_clean_sbu_3, # of connection points: 8
#     Edge 2, Type (0, 1), BuildingBlock: CIFDUS_clean_linker_0, # of connection points: 2
#     Edge 3, Type (0, 1), BuildingBlock: CIFDUS_clean_linker_0, # of connection points: 2
#     Edge 4, Type (0, 1), BuildingBlock: CIFDUS_clean_linker_0, # of connection points: 2
#     Edge 5, Type (0, 1), BuildingBlock: CIFDUS_clean_linker_0, # of connection points: 2
#     Edge 6, Type (0, 1), BuildingBlock: CIFDUS_clean_linker_0, # of connection points: 2
#     Edge 7, Type (0, 1), BuildingBlock: CIFDUS_clean_linker_0, # of connection points: 2
#     Edge 8, Type (0, 1), BuildingBlock: CIFDUS_clean_linker_0, # of connection points: 2
#     Edge 9, Type (0, 1), BuildingBlock: CIFDUS_clean_linker_0, # of connection points: 2
# Relax obj value: 0.010
# Max RMSD: 0.058
# Mean RMSD: 0.058
data_MOF--net-bcu-b--node1-TAGTUT_clean_sbu_3--node2-TAGTUT_clean_sbu_3--edge1-CIFDUS_clean_linker_0
_symmetry_space_group_name_H-M    P1
_symmetry_Int_Tables_number       1
_symmetry_cell_setting            triclinic
loop_
_symmetry_equiv_pos_as_xyz
'x, y, z'
_cell_length_a     17.812389
_cell_length_b     17.55515
_cell_length_c     18.641019
_cell_angle_alpha  91.253666
_cell_angle_beta   89.069759
_cell_angle_gamma 109.0866
loop_
_atom_site_label
_atom_site_type_symbol
_atom_site_fract_x
_atom_site_fract_y
_atom_site_fract_z
_atom_type_partial_charge
C0 C 0.10115 0.08719 0.11258 0.0
C1 C 0.17094 0.83394 0.06403 0.0
C2 C 0.10978 0.84944 0.84511 0.0
Mg3 Mg 0.98186 0.16668 0.03262 0.0
Mg4 Mg 0.82158 0.05392 0.94924 0.0
O5 O 0.92973 0.07705 0.96399 0.0
Mg6 Mg 0.9822 -0.00364 0.98674 0.0
O7 O 0.04517 0.92484 0.01048 0.0
Mg8 Mg 0.15409 -0.00798 0.9782 0.0
Mg9 Mg 0.01531 0.81718 0.98294 0.0
C10 C 0.85751 0.91637 0.85722 0.0
O11 O 0.87575 0.90509 0.04487 0.0
O12 O 0.9316 0.24948 0.961 0.0
O13 O 0.89453 0.78605 0.01808 0.0
O14 O 0.87084 0.13186 0.10627 0.0
O15 O 0.83062 0.16401 0.89836 0.0
O16 O 0.76425 0.04768 0.05139 0.0
O17 O 0.09128 0.07326 0.9277 0.0
O18 O 0.08896 0.19581 0.95955 0.0
C19 C 0.12116 0.1499 0.92648 0.0
C20 C 0.87816 0.23481 0.91202 0.0
O21 O 0.92628 0.92786 0.88456 0.0
O22 O 0.20218 0.90569 0.04043 0.0
O23 O 0.80886 0.9514 0.88079 0.0
O24 O 0.15345 0.91475 0.87524 0.0
O25 O 0.09994 0.78979 0.04879 0.0
O26 O 0.04529 0.80577 0.87391 0.0
O27 O 0.03085 0.07284 0.08804 0.0
O28 O 0.15248 0.06252 0.07952 0.0
C29 C 0.79774 0.08774 0.10656 0.0
C30 C 0.85329 0.82732 0.04541 0.0
C31 C 0.64596 0.63075 0.53868 0.0
C32 C 0.73367 0.38677 0.57574 0.0
C33 C 0.58892 0.28574 0.38416 0.0
Mg34 Mg 0.4847 0.65081 0.47964 0.0
Mg35 Mg 0.31677 0.50377 0.49146 0.0
O36 O 0.42118 0.53632 0.4576 0.0
Mg37 Mg 0.49612 0.48036 0.4875 0.0
O38 O 0.57836 0.4333 0.51639 0.0
Mg39 Mg 0.66519 0.47956 0.44528 0.0
Mg40 Mg 0.55562 0.32522 0.53708 0.0
C41 C 0.33176 0.33766 0.43926 0.0
O42 O 0.43035 0.43374 0.59224 0.0
O43 O 0.39085 0.68344 0.41261 0.0
O44 O 0.45499 0.31619 0.60319 0.0
O45 O 0.41413 0.66149 0.58182 0.0
O46 O 0.27945 0.57563 0.41872 0.0
O47 O 0.30708 0.55302 0.59512 0.0
O48 O 0.56976 0.51999 0.38393 0.0
O49 O 0.5514 0.63973 0.38013 0.0
C50 C 0.5795 0.58722 0.35309 0.0
C51 C 0.31842 0.64557 0.39507 0.0
O52 O 0.40838 0.36526 0.43653 0.0
O53 O 0.74835 0.43716 0.52373 0.0
O54 O 0.28933 0.37726 0.46765 0.0
O55 O 0.63333 0.35939 0.38034 0.0
O56 O 0.66396 0.33913 0.58989 0.0
O57 O 0.54803 0.25755 0.43988 0.0
O58 O 0.57049 0.59867 0.53789 0.0
O59 O 0.6917 0.59576 0.50962 0.0
C60 C 0.35143 0.62232 0.61635 0.0
C61 C 0.4198 0.36626 0.62313 0.0
H62 H 0.2304 0.09118 0.18717 0.0
H63 H 0.02324 0.16791 0.19819 0.0
H64 H 0.07057 0.23929 0.31181 0.0
H65 H 0.17827 0.29271 0.39745 0.0
H66 H 0.39079 0.22557 0.37792 0.0
H67 H 0.33177 0.13431 0.27824 0.0
C68 C 0.19512 0.12341 0.21409 0.0
C69 C 0.1243 0.12617 0.18331 0.0
C70 C 0.22327 0.16499 0.27787 0.0
C71 C 0.07853 0.16615 0.22024 0.0
C72 C 0.1055 0.20662 0.28511 0.0
C73 C 0.21128 0.25683 0.3727 0.0
C74 C 0.28955 0.26688 0.39442 0.0
C75 C 0.17887 0.20819 0.31313 0.0
C76 C 0.33088 0.21943 0.36189 0.0
C77 C 0.29743 0.16789 0.30454 0.0
H78 H 0.66079 0.12027 0.10458 0.0
H79 H 0.82968 0.07567 0.2467 0.0
H80 H 0.76655 0.11989 0.34975 0.0
H81 H 0.67928 0.19306 0.39512 0.0
H82 H 0.52472 0.25744 0.25056 0.0
H83 H 0.56502 0.18316 0.15221 0.0
C84 C 0.6818 0.11785 0.15854 0.0
C85 C 0.74903 0.0945 0.16882 0.0
C86 C 0.64845 0.14821 0.21648 0.0
C87 C 0.77757 0.09319 0.23825 0.0
C88 C 0.7419 0.11894 0.29682 0.0
C89 C 0.65308 0.18864 0.34236 0.0
C90 C 0.59917 0.22946 0.32922 0.0
C91 C 0.67969 0.14983 0.28603 0.0
C92 C 0.56613 0.2256 0.26106 0.0
C93 C 0.58944 0.18361 0.20515 0.0
H94 H 0.82308 0.67864 0.0989 0.0
H95 H 0.72855 0.87585 0.08961 0.0
H96 H 0.62594 0.80899 0.17738 0.0
H97 H 0.57591 0.70534 0.26592 0.0
H98 H 0.68031 0.5167 0.28672 0.0
H99 H 0.76637 0.56907 0.18257 0.0
C100 C 0.77916 0.70652 0.11486 0.0
C101 C 0.78356 0.78251 0.0883 0.0
C102 C 0.72315 0.66973 0.16738 0.0
C103 C 0.72655 0.8178 0.10979 0.0
C104 C 0.66822 0.77971 0.15992 0.0
C105 C 0.6173 0.67515 0.24786 0.0
C106 C 0.62347 0.60843 0.28502 0.0
C107 C 0.66811 0.70739 0.19073 0.0
C108 C 0.67537 0.56867 0.25942 0.0
C109 C 0.72456 0.59881 0.20026 0.0
H110 H 0.10534 0.72046 0.16151 0.0
H111 H 0.33084 0.8864 0.09225 0.0
H112 H 0.3968 0.8462 0.19208 0.0
H113 H 0.38916 0.76315 0.29899 0.0
H114 H 0.16074 0.60171 0.3679 0.0
H115 H 0.09686 0.64246 0.26848 0.0
C116 C 0.16915 0.74724 0.16745 0.0
C117 C 0.21336 0.80541 0.11905 0.0
C118 C 0.20585 0.72567 0.22553 0.0
C119 C 0.29568 0.84085 0.12861 0.0
C120 C 0.33324 0.81829 0.18583 0.0
C121 C 0.32529 0.73786 0.29279 0.0
C122 C 0.27984 0.67931 0.34062 0.0
C123 C 0.28869 0.76107 0.23493 0.0
C124 C 0.1972 0.64659 0.33163 0.0
C125 C 0.16055 0.66952 0.27463 0.0
H126 H 0.2656 0.8738 0.81829 0.0
H127 H 0.03006 0.73627 0.74653 0.0
H128 H 0.08449 0.64824 0.67478 0.0
H129 H 0.19746 0.60614 0.63806 0.0
H130 H 0.43364 0.74418 0.70735 0.0
H131 H 0.37991 0.83485 0.77717 0.0
C132 C 0.22639 0.82599 0.78537 0.0
C133 C 0.1439 0.81187 0.78732 0.0
C134 C 0.25776 0.77395 0.74632 0.0
C135 C 0.09378 0.7487 0.74542 0.0
C136 C 0.12473 0.69769 0.70527 0.0
C137 C 0.23705 0.65497 0.66976 0.0
C138 C 0.31916 0.66736 0.66916 0.0
C139 C 0.20623 0.70843 0.70703 0.0
C140 C 0.37002 0.73259 0.70834 0.0
C141 C 0.33947 0.78497 0.74732 0.0
H142 H 0.16163 0.29589 0.86699 0.0
H143 H 0.23414 0.08498 0.88402 0.0
H144 H 0.33853 0.13878 0.79498 0.0
H145 H 0.39908 0.23774 0.70589 0.0
H146 H 0.32308 0.44562 0.6817 0.0
H147 H 0.22912 0.40066 0.78143 0.0
C148 C 0.20128 0.26247 0.85208 0.0
C149 C 0.19036 0.18652 0.8812 0.0
C150 C 0.25915 0.29246 0.79942 0.0
C151 C 0.24131 0.14325 0.86152 0.0
C152 C 0.30074 0.17387 0.81071 0.0
C153 C 0.36219 0.27368 0.72207 0.0
C154 C 0.3665 0.344 0.6854 0.0
C155 C 0.30837 0.24709 0.77803 0.0
C156 C 0.31959 0.39051 0.70837 0.0
C157 C 0.26624 0.36498 0.76537 0.0
H158 H 0.93424 0.2554 0.77699 0.0
H159 H 0.8078 0.34955 0.93545 0.0
H160 H 0.76418 0.42151 0.842 0.0
H161 H 0.7404 0.43358 0.71357 0.0
H162 H 0.85951 0.33202 0.55431 0.0
H163 H 0.92961 0.28846 0.64921 0.0
C164 C 0.89986 0.2945 0.79116 0.0
C165 C 0.8748 0.29821 0.86284 0.0
C166 C 0.87305 0.33328 0.7367 0.0
C167 C 0.82882 0.34721 0.88084 0.0
C168 C 0.8032 0.38745 0.82723 0.0
C169 C 0.7843 0.40484 0.69977 0.0
C170 C 0.79553 0.38644 0.62728 0.0
C171 C 0.82188 0.37772 0.75472 0.0
C172 C 0.85113 0.34792 0.60964 0.0
C173 C 0.89025 0.32213 0.66402 0.0
H174 H 0.72349 0.89086 0.78184 0.0
H175 H 0.93886 0.82847 0.78674 0.0
H176 H 0.89635 0.74263 0.68015 0.0
H177 H 0.79378 0.67858 0.59256 0.0
H178 H 0.57645 0.73751 0.59182 0.0
H179 H 0.62585 0.83467 0.68973 0.0
C180 C 0.76151 0.85863 0.75994 0.0
C181 C 0.8336 0.86464 0.79306 0.0
C182 C 0.73687 0.81 0.69921 0.0
C183 C 0.88245 0.82352 0.763 0.0
C184 C 0.85846 0.77503 0.70187 0.0
C185 C 0.7578 0.71385 0.61273 0.0
C186 C 0.68124 0.70052 0.58586 0.0
C187 C 0.78526 0.76707 0.67035 0.0
C188 C 0.63525 0.74642 0.6124 0.0
C189 C 0.66324 0.80148 0.66846 0.0
loop_
_geom_bond_atom_site_label_1
_geom_bond_atom_site_label_2
_geom_bond_distance
_geom_bond_site_symmetry_2
_ccdc_geom_bond_type
C0 O27 1.312 . S
C0 O28 1.208 . S
C1 O22 1.331 . S
C1 O25 1.244 . S
C2 O24 1.264 . S
C2 O26 1.273 . S
Mg3 O5 1.939 . S
Mg3 O12 2.092 . S
Mg3 O14 2.013 1_556 S
Mg3 O18 2.040 1_655 S
Mg3 O27 2.283 1_656 S
Mg4 O5 1.963 . S
Mg4 O15 1.942 . S
Mg4 O16 1.955 1_556 S
Mg4 O23 1.986 1_545 S
O5 Mg3 1.939 . S
O5 Mg4 1.963 . S
O5 Mg6 1.915 1_546 S
Mg6 O5 1.915 1_564 S
Mg6 O7 1.915 1_655 S
Mg6 O11 2.013 . S
Mg6 O17 2.114 1_664 S
Mg6 O21 2.013 1_554 S
Mg6 O27 2.114 1_665 S
O7 Mg6 1.915 1_455 S
O7 Mg8 1.936 . S
O7 Mg9 1.963 . S
Mg8 O7 1.936 . S
Mg8 O17 2.291 1_564 S
Mg8 O22 2.081 . S
Mg8 O24 2.023 1_554 S
Mg8 O28 2.031 1_565 S
Mg9 O7 1.963 . S
Mg9 O13 1.986 1_455 S
Mg9 O25 1.942 . S
Mg9 O26 1.955 1_554 S
C10 O21 1.191 . S
C10 O23 1.307 . S
O11 Mg6 2.013 . S
O11 C30 1.191 . S
O12 Mg3 2.092 . S
O12 C20 1.331 . S
O13 Mg9 1.986 1_655 S
O13 C30 1.307 . S
O14 Mg3 2.013 1_554 S
O14 C29 1.264 . S
O15 Mg4 1.942 . S
O15 C20 1.244 . S
O16 Mg4 1.955 1_554 S
O16 C29 1.273 . S
O17 Mg6 2.114 1_446 S
O17 Mg8 2.291 1_546 S
O17 C19 1.312 . S
O18 Mg3 2.040 1_455 S
O18 C19 1.208 . S
C19 O17 1.312 . S
C19 O18 1.208 . S
C20 O12 1.331 . S
C20 O15 1.244 . S
O21 Mg6 2.013 1_556 S
O21 C10 1.191 . S
O22 C1 1.331 . S
O22 Mg8 2.081 . S
O23 Mg4 1.986 1_565 S
O23 C10 1.307 . S
O24 C2 1.264 . S
O24 Mg8 2.023 1_556 S
O25 C1 1.244 . S
O25 Mg9 1.942 . S
O26 C2 1.273 . S
O26 Mg9 1.955 1_556 S
O27 C0 1.312 . S
O27 Mg3 2.283 1_454 S
O27 Mg6 2.114 1_445 S
O28 C0 1.208 . S
O28 Mg8 2.031 1_545 S
C29 O14 1.264 . S
C29 O16 1.273 . S
C30 O11 1.191 . S
C30 O13 1.307 . S
C31 O58 1.312 . S
C31 O59 1.208 . S
C32 O53 1.331 . S
C32 O56 1.244 . S
C33 O55 1.264 . S
C33 O57 1.273 . S
Mg34 O36 1.936 . S
Mg34 O43 2.081 . S
Mg34 O45 2.023 . S
Mg34 O49 2.031 . S
Mg34 O58 2.291 . S
Mg35 O36 1.963 . S
Mg35 O46 1.942 . S
Mg35 O47 1.955 . S
Mg35 O54 1.986 . S
O36 Mg34 1.936 . S
O36 Mg35 1.963 . S
O36 Mg37 1.915 . S
Mg37 O36 1.915 . S
Mg37 O38 1.915 . S
Mg37 O42 2.013 . S
Mg37 O48 2.114 . S
Mg37 O52 2.013 . S
Mg37 O58 2.114 . S
O38 Mg37 1.915 . S
O38 Mg39 1.936 . S
O38 Mg40 1.963 . S
Mg39 O38 1.936 . S
Mg39 O48 2.291 . S
Mg39 O53 2.081 . S
Mg39 O55 2.023 . S
Mg39 O59 2.031 . S
Mg40 O38 1.963 . S
Mg40 O44 1.986 . S
Mg40 O56 1.942 . S
Mg40 O57 1.955 . S
C41 O52 1.191 . S
C41 O54 1.307 . S
O42 Mg37 2.013 . S
O42 C61 1.191 . S
O43 Mg34 2.081 . S
O43 C51 1.331 . S
O44 Mg40 1.986 . S
O44 C61 1.307 . S
O45 Mg34 2.023 . S
O45 C60 1.264 . S
O46 Mg35 1.942 . S
O46 C51 1.244 . S
O47 Mg35 1.955 . S
O47 C60 1.273 . S
O48 Mg37 2.114 . S
O48 Mg39 2.291 . S
O48 C50 1.312 . S
O49 Mg34 2.031 . S
O49 C50 1.208 . S
C50 O48 1.312 . S
C50 O49 1.208 . S
C51 O43 1.331 . S
C51 O46 1.244 . S
O52 Mg37 2.013 . S
O52 C41 1.191 . S
O53 C32 1.331 . S
O53 Mg39 2.081 . S
O54 Mg35 1.986 . S
O54 C41 1.307 . S
O55 C33 1.264 . S
O55 Mg39 2.023 . S
O56 C32 1.244 . S
O56 Mg40 1.942 . S
O57 C33 1.273 . S
O57 Mg40 1.955 . S
O58 C31 1.312 . S
O58 Mg34 2.291 . S
O58 Mg37 2.114 . S
O59 C31 1.208 . S
O59 Mg39 2.031 . S
C60 O45 1.264 . S
C60 O47 1.273 . S
C61 O42 1.191 . S
C61 O44 1.307 . S
H62 C68 0.930 . S
H63 C71 0.930 . S
H64 C72 0.930 . S
H65 C73 0.930 . S
H66 C76 0.930 . S
H67 C77 0.930 . S
C68 H62 0.930 . S
C68 C69 1.355 . S
C68 C70 1.415 . S
C69 C68 1.355 . S
C69 C71 1.419 . S
C70 C68 1.415 . S
C70 C75 1.425 . S
C70 C77 1.409 . S
C71 H63 0.930 . S
C71 C69 1.419 . S
C71 C72 1.362 . S
C72 H64 0.930 . S
C72 C71 1.362 . S
C72 C75 1.409 . S
C73 H65 0.930 . S
C73 C74 1.355 . S
C73 C75 1.415 . S
C74 C73 1.355 . S
C74 C76 1.419 . S
C75 C70 1.425 . S
C75 C72 1.409 . S
C75 C73 1.415 . S
C76 H66 0.930 . S
C76 C74 1.419 . S
C76 C77 1.362 . S
C77 H67 0.930 . S
C77 C70 1.409 . S
C77 C76 1.362 . S
H78 C84 0.930 . S
H79 C87 0.930 . S
H80 C88 0.930 . S
H81 C89 0.930 . S
H82 C92 0.930 . S
H83 C93 0.930 . S
C84 H78 0.930 . S
C84 C85 1.355 . S
C84 C86 1.415 . S
C85 C84 1.355 . S
C85 C87 1.419 . S
C86 C84 1.415 . S
C86 C91 1.425 . S
C86 C93 1.409 . S
C87 H79 0.930 . S
C87 C85 1.419 . S
C87 C88 1.362 . S
C88 H80 0.930 . S
C88 C87 1.362 . S
C88 C91 1.409 . S
C89 H81 0.930 . S
C89 C90 1.355 . S
C89 C91 1.415 . S
C90 C89 1.355 . S
C90 C92 1.419 . S
C91 C86 1.425 . S
C91 C88 1.409 . S
C91 C89 1.415 . S
C92 H82 0.930 . S
C92 C90 1.419 . S
C92 C93 1.362 . S
C93 H83 0.930 . S
C93 C86 1.409 . S
C93 C92 1.362 . S
H94 C100 0.930 . S
H95 C103 0.930 . S
H96 C104 0.930 . S
H97 C105 0.930 . S
H98 C108 0.930 . S
H99 C109 0.930 . S
C100 H94 0.930 . S
C100 C101 1.355 . S
C100 C102 1.415 . S
C101 C100 1.355 . S
C101 C103 1.419 . S
C102 C100 1.415 . S
C102 C107 1.425 . S
C102 C109 1.409 . S
C103 H95 0.930 . S
C103 C101 1.419 . S
C103 C104 1.362 . S
C104 H96 0.930 . S
C104 C103 1.362 . S
C104 C107 1.409 . S
C105 H97 0.930 . S
C105 C106 1.355 . S
C105 C107 1.415 . S
C106 C105 1.355 . S
C106 C108 1.419 . S
C107 C102 1.425 . S
C107 C104 1.409 . S
C107 C105 1.415 . S
C108 H98 0.930 . S
C108 C106 1.419 . S
C108 C109 1.362 . S
C109 H99 0.930 . S
C109 C102 1.409 . S
C109 C108 1.362 . S
H110 C116 0.930 . S
H111 C119 0.930 . S
H112 C120 0.930 . S
H113 C121 0.930 . S
H114 C124 0.930 . S
H115 C125 0.930 . S
C116 H110 0.930 . S
C116 C117 1.355 . S
C116 C118 1.415 . S
C117 C116 1.355 . S
C117 C119 1.419 . S
C118 C116 1.415 . S
C118 C123 1.425 . S
C118 C125 1.409 . S
C119 H111 0.930 . S
C119 C117 1.419 . S
C119 C120 1.362 . S
C120 H112 0.930 . S
C120 C119 1.362 . S
C120 C123 1.409 . S
C121 H113 0.930 . S
C121 C122 1.355 . S
C121 C123 1.415 . S
C122 C121 1.355 . S
C122 C124 1.419 . S
C123 C118 1.425 . S
C123 C120 1.409 . S
C123 C121 1.415 . S
C124 H114 0.930 . S
C124 C122 1.419 . S
C124 C125 1.362 . S
C125 H115 0.930 . S
C125 C118 1.409 . S
C125 C124 1.362 . S
H126 C132 0.930 . S
H127 C135 0.930 . S
H128 C136 0.930 . S
H129 C137 0.930 . S
H130 C140 0.930 . S
H131 C141 0.930 . S
C132 H126 0.930 . S
C132 C133 1.355 . S
C132 C134 1.415 . S
C133 C132 1.355 . S
C133 C135 1.419 . S
C134 C132 1.415 . S
C134 C139 1.425 . S
C134 C141 1.409 . S
C135 H127 0.930 . S
C135 C133 1.419 . S
C135 C136 1.362 . S
C136 H128 0.930 . S
C136 C135 1.362 . S
C136 C139 1.409 . S
C137 H129 0.930 . S
C137 C138 1.355 . S
C137 C139 1.415 . S
C138 C137 1.355 . S
C138 C140 1.419 . S
C139 C134 1.425 . S
C139 C136 1.409 . S
C139 C137 1.415 . S
C140 H130 0.930 . S
C140 C138 1.419 . S
C140 C141 1.362 . S
C141 H131 0.930 . S
C141 C134 1.409 . S
C141 C140 1.362 . S
H142 C148 0.930 . S
H143 C151 0.930 . S
H144 C152 0.930 . S
H145 C153 0.930 . S
H146 C156 0.930 . S
H147 C157 0.930 . S
C148 H142 0.930 . S
C148 C149 1.355 . S
C148 C150 1.415 . S
C149 C148 1.355 . S
C149 C151 1.419 . S
C150 C148 1.415 . S
C150 C155 1.425 . S
C150 C157 1.409 . S
C151 H143 0.930 . S
C151 C149 1.419 . S
C151 C152 1.362 . S
C152 H144 0.930 . S
C152 C151 1.362 . S
C152 C155 1.409 . S
C153 H145 0.930 . S
C153 C154 1.355 . S
C153 C155 1.415 . S
C154 C153 1.355 . S
C154 C156 1.419 . S
C155 C150 1.425 . S
C155 C152 1.409 . S
C155 C153 1.415 . S
C156 H146 0.930 . S
C156 C154 1.419 . S
C156 C157 1.362 . S
C157 H147 0.930 . S
C157 C150 1.409 . S
C157 C156 1.362 . S
H158 C164 0.930 . S
H159 C167 0.930 . S
H160 C168 0.930 . S
H161 C169 0.930 . S
H162 C172 0.930 . S
H163 C173 0.930 . S
C164 H158 0.930 . S
C164 C165 1.355 . S
C164 C166 1.415 . S
C165 C164 1.355 . S
C165 C167 1.419 . S
C166 C164 1.415 . S
C166 C171 1.425 . S
C166 C173 1.409 . S
C167 H159 0.930 . S
C167 C165 1.419 . S
C167 C168 1.362 . S
C168 H160 0.930 . S
C168 C167 1.362 . S
C168 C171 1.409 . S
C169 H161 0.930 . S
C169 C170 1.355 . S
C169 C171 1.415 . S
C170 C169 1.355 . S
C170 C172 1.419 . S
C171 C166 1.425 . S
C171 C168 1.409 . S
C171 C169 1.415 . S
C172 H162 0.930 . S
C172 C170 1.419 . S
C172 C173 1.362 . S
C173 H163 0.930 . S
C173 C166 1.409 . S
C173 C172 1.362 . S
H174 C180 0.930 . S
H175 C183 0.930 . S
H176 C184 0.930 . S
H177 C185 0.930 . S
H178 C188 0.930 . S
H179 C189 0.930 . S
C180 H174 0.930 . S
C180 C181 1.355 . S
C180 C182 1.415 . S
C181 C180 1.355 . S
C181 C183 1.419 . S
C182 C180 1.415 . S
C182 C187 1.425 . S
C182 C189 1.409 . S
C183 H175 0.930 . S
C183 C181 1.419 . S
C183 C184 1.362 . S
C184 H176 0.930 . S
C184 C183 1.362 . S
C184 C187 1.409 . S
C185 H177 0.930 . S
C185 C186 1.355 . S
C185 C187 1.415 . S
C186 C185 1.355 . S
C186 C188 1.419 . S
C187 C182 1.425 . S
C187 C184 1.409 . S
C187 C185 1.415 . S
C188 H178 0.930 . S
C188 C186 1.419 . S
C188 C189 1.362 . S
C189 H179 0.930 . S
C189 C182 1.409 . S
C189 C188 1.362 . S
C69 C0 1.308 . S
C74 C41 1.313 . S
C85 C29 1.630 . S
C90 C33 1.633 . S
C101 C30 1.304 . S
C106 C50 1.277 . S
C117 C1 1.545 . S
C122 C51 1.533 . S
C133 C2 1.678 . S
C138 C60 1.675 . S
C154 C61 1.308 . S
C149 C19 1.282 . S
C165 C20 1.536 . S
C170 C32 1.519 . S
C186 C31 1.255 . S
C181 C10 1.288 . S
