# Generated by pormake.
# Topology rtl, (3,6)-cn, num edge types: 1
# Building blocks:
#     Node 0, Type 0, BuildingBlock: OLANEW_clean_sbu_2, # of connection points: 3
#     Node 1, Type 0, BuildingBlock: OLANEW_clean_sbu_2, # of connection points: 3
#     Node 2, Type 0, BuildingBlock: OLANEW_clean_sbu_2, # of connection points: 3
#     Node 3, Type 0, BuildingBlock: OLANEW_clean_sbu_2, # of connection points: 3
#     Node 4, Type 1, BuildingBlock: LEVNOQ01_clean_sbu_1, # of connection points: 6
#     Node 5, Type 1, BuildingBlock: LEVNOQ01_clean_sbu_1, # of connection points: 6
#     Edge 6, Type (0, 1), BuildingBlock: OJICUG_clean_linker_0, # of connection points: 2
#     Edge 7, Type (0, 1), BuildingBlock: OJICUG_clean_linker_0, # of connection points: 2
#     Edge 8, Type (0, 1), BuildingBlock: OJICUG_clean_linker_0, # of connection points: 2
#     Edge 9, Type (0, 1), BuildingBlock: OJICUG_clean_linker_0, # of connection points: 2
#     Edge 10, Type (0, 1), BuildingBlock: OJICUG_clean_linker_0, # of connection points: 2
#     Edge 11, Type (0, 1), BuildingBlock: OJICUG_clean_linker_0, # of connection points: 2
#     Edge 12, Type (0, 1), BuildingBlock: OJICUG_clean_linker_0, # of connection points: 2
#     Edge 13, Type (0, 1), BuildingBlock: OJICUG_clean_linker_0, # of connection points: 2
#     Edge 14, Type (0, 1), BuildingBlock: OJICUG_clean_linker_0, # of connection points: 2
#     Edge 15, Type (0, 1), BuildingBlock: OJICUG_clean_linker_0, # of connection points: 2
#     Edge 16, Type (0, 1), BuildingBlock: OJICUG_clean_linker_0, # of connection points: 2
#     Edge 17, Type (0, 1), BuildingBlock: OJICUG_clean_linker_0, # of connection points: 2
# Relax obj value: 0.017
# Max RMSD: 0.117
# Mean RMSD: 0.072
data_MOF--net-rtl--node1-OLANEW_clean_sbu_2--node2-LEVNOQ01_clean_sbu_1--edge1-OJICUG_clean_linker_0
_symmetry_space_group_name_H-M    P1
_symmetry_Int_Tables_number       1
_symmetry_cell_setting            triclinic
loop_
_symmetry_equiv_pos_as_xyz
'x, y, z'
_cell_length_a     27.923171
_cell_length_b     28.05632
_cell_length_c     17.651535
_cell_angle_alpha  86.603713
_cell_angle_beta   101.50089
_cell_angle_gamma 90.355422
loop_
_atom_site_label
_atom_site_type_symbol
_atom_site_fract_x
_atom_site_fract_y
_atom_site_fract_z
_atom_type_partial_charge
O0 O 0.17438 0.85178 0.01346 0.0
Cd1 Cd 0.20785 0.80488 0.13425 0.0
O2 O 0.23349 0.90488 0.02511 0.0
Cd3 Cd 0.26386 0.8772 0.14232 0.0
O4 O 0.23644 0.87637 0.24909 0.0
C5 C 0.23242 0.91617 0.27812 0.0
O6 O 0.25074 0.95449 0.24835 0.0
C7 C 0.19407 0.8884 0.98667 0.0
C8 C 0.2746 0.73738 0.10789 0.0
O9 O 0.22893 0.72785 0.09896 0.0
O10 O 0.28882 0.77854 0.13092 0.0
O11 O 0.75477 0.67819 0.84776 0.0
Cd12 Cd 0.83901 0.70027 0.8378 0.0
O13 O 0.72605 0.67668 0.72263 0.0
Cd14 Cd 0.67527 0.66126 0.61395 0.0
O15 O 0.63926 0.63348 0.50268 0.0
C16 C 0.61593 0.65741 0.44324 0.0
O17 O 0.61082 0.70377 0.44568 0.0
C18 C 0.71972 0.66984 0.79202 0.0
C19 C 0.85729 0.77896 0.74294 0.0
O20 O 0.84245 0.73904 0.71517 0.0
O21 O 0.86163 0.78277 0.816 0.0
O22 O 0.77765 0.17635 0.15878 0.0
Cd23 Cd 0.74535 0.20653 0.02417 0.0
O24 O 0.83545 0.18294 0.09316 0.0
Cd25 Cd 0.90451 0.1686 0.06226 0.0
O26 O 0.91595 0.15304 0.94921 0.0
C27 C 0.89313 0.11816 0.91624 0.0
O28 O 0.86671 0.09031 0.95395 0.0
C29 C 0.8216 0.16819 0.15449 0.0
C30 C 0.6906 0.2897 0.00257 0.0
O31 O 0.67003 0.24871 0.99785 0.0
O32 O 0.73739 0.29137 0.01888 0.0
O33 O 0.34821 0.33752 0.57663 0.0
Cd34 Cd 0.32382 0.29363 0.45761 0.0
O35 O 0.28534 0.3869 0.54769 0.0
Cd36 Cd 0.26279 0.36635 0.42902 0.0
O37 O 0.27558 0.37793 0.31165 0.0
C38 C 0.27451 0.42047 0.28208 0.0
O39 O 0.2612 0.45518 0.32041 0.0
C40 C 0.32367 0.37176 0.59451 0.0
C41 C 0.24726 0.22909 0.46189 0.0
O42 O 0.29188 0.21552 0.4839 0.0
O43 O 0.23904 0.27283 0.438 0.0
O44 O 0.97632 0.11627 0.61357 0.0
Mg45 Mg 0.04501 0.08374 0.628 0.0
O46 O 0.96698 0.03995 0.62844 0.0
Mg47 Mg 0.01823 0.01201 0.54776 0.0
O48 O 0.07342 0.07735 0.53237 0.0
O49 O 0.09183 0.13619 0.61504 0.0
O50 O 0.07142 0.98105 0.4739 0.0
O51 O 0.96538 0.05157 0.44393 0.0
Mg52 Mg 0.97836 0.94572 0.44493 0.0
O53 O 0.96581 0.94498 0.5571 0.0
O54 O 0.04225 0.91357 0.42846 0.0
O55 O 0.94384 0.99685 0.35984 0.0
O56 O 0.93005 0.89629 0.46591 0.0
C57 C 0.0852 0.99505 0.71894 0.0
C58 C 0.95288 0.08202 0.6369 0.0
C59 C 0.09695 0.11632 0.55322 0.0
C60 C 0.07683 0.94294 0.44046 0.0
C61 C 0.94252 0.03959 0.37807 0.0
C62 C 0.93675 0.90933 0.53604 0.0
O63 O 0.07634 0.03859 0.72657 0.0
O64 O 0.06967 0.97651 0.65456 0.0
O65 O 0.52128 0.51131 0.18898 0.0
Mg66 Mg 0.50251 0.46473 0.09927 0.0
O67 O 0.51964 0.57227 0.10428 0.0
Mg68 Mg 0.47974 0.53398 0.99295 0.0
O69 O 0.53739 0.46952 0.00853 0.0
O70 O 0.55711 0.41763 0.1128 0.0
O71 O 0.43906 0.49305 0.88532 0.0
O72 O 0.537 0.5708 0.92585 0.0
Mg73 Mg 0.42906 0.60361 0.85383 0.0
O74 O 0.42659 0.59806 0.96927 0.0
O75 O 0.39431 0.54436 0.80014 0.0
O76 O 0.4989 0.62189 0.83318 0.0
O77 O 0.38605 0.65432 0.88681 0.0
C78 C 0.40598 0.46051 0.07895 0.0
C79 C 0.5295 0.55486 0.17425 0.0
C80 C 0.56344 0.43394 0.04581 0.0
C81 C 0.40734 0.50191 0.82307 0.0
C82 C 0.53796 0.60209 0.87024 0.0
C83 C 0.39669 0.63415 0.95568 0.0
O84 O 0.43697 0.4275 0.085 0.0
O85 O 0.41781 0.50257 0.05805 0.0
C86 C 0.21488 0.14791 0.49325 0.0
C87 C 0.20633 0.19641 0.46925 0.0
H88 H 0.18535 0.08321 0.53646 0.0
C89 C 0.15856 0.21467 0.45896 0.0
H90 H 0.25122 0.1327 0.50113 0.0
C91 C 0.12124 0.18641 0.47922 0.0
C92 C 0.13066 0.13913 0.50845 0.0
H93 H 0.15058 0.25172 0.44011 0.0
H94 H 0.08573 0.20247 0.4769 0.0
C95 C 0.17717 0.11938 0.51252 0.0
C96 C 0.29133 0.66333 0.04511 0.0
C97 C 0.30906 0.70378 0.08497 0.0
H98 H 0.30658 0.60854 0.97351 0.0
C99 C 0.3591 0.71468 0.09452 0.0
H100 H 0.25304 0.65388 0.03681 0.0
C101 C 0.38978 0.68823 0.0589 0.0
C102 C 0.37087 0.65043 0.01389 0.0
H103 H 0.37392 0.74542 0.12538 0.0
H104 H 0.42724 0.69954 0.0617 0.0
C105 C 0.32199 0.63707 0.00943 0.0
C106 C 0.85651 0.81689 0.61173 0.0
C107 C 0.87221 0.81783 0.69212 0.0
H108 H 0.86362 0.84555 0.50022 0.0
C109 C 0.90569 0.85314 0.72194 0.0
H110 H 0.83031 0.79062 0.58693 0.0
C111 C 0.92548 0.88484 0.67172 0.0
C112 C 0.91182 0.8817 0.59108 0.0
H113 H 0.91844 0.85471 0.78385 0.0
H114 H 0.95289 0.9102 0.69593 0.0
C115 C 0.87583 0.84848 0.56198 0.0
C116 C 0.61166 0.3333 0.95716 0.0
C117 C 0.66082 0.33344 0.99559 0.0
H118 H 0.54182 0.3679 0.94026 0.0
C119 C 0.67945 0.37364 0.03519 0.0
H120 H 0.5966 0.30292 0.92553 0.0
C121 C 0.64801 0.41054 0.04387 0.0
C122 C 0.59807 0.40823 0.01114 0.0
H123 H 0.71725 0.37463 0.0652 0.0
H124 H 0.66187 0.43876 0.08155 0.0
C125 C 0.58051 0.37071 0.96452 0.0
C126 C 0.19193 0.96535 0.36162 0.0
C127 C 0.19874 0.92094 0.33214 0.0
H128 H 0.14814 0.00715 0.41997 0.0
C129 C 0.16871 0.88257 0.34697 0.0
H130 H 0.21469 0.99554 0.35157 0.0
C131 C 0.13038 0.88936 0.38526 0.0
C132 C 0.12157 0.93451 0.41032 0.0
H133 H 0.1731 0.84782 0.32546 0.0
H134 H 0.10659 0.85954 0.39279 0.0
C135 C 0.1538 0.97202 0.40076 0.0
C136 C 0.6736 0.62289 0.87902 0.0
C137 C 0.67332 0.65053 0.80964 0.0
H138 H 0.63139 0.58517 0.95219 0.0
C139 C 0.62847 0.66053 0.75942 0.0
H140 H 0.70769 0.61444 0.91888 0.0
C141 C 0.58479 0.64401 0.77872 0.0
C142 C 0.5849 0.61684 0.84857 0.0
H143 H 0.62683 0.68251 0.70649 0.0
H144 H 0.55079 0.6531 0.73908 0.0
C145 C 0.62993 0.60591 0.89802 0.0
C146 C 0.85756 0.14254 0.29278 0.0
C147 C 0.85375 0.13724 0.2132 0.0
H148 H 0.8904 0.11632 0.40836 0.0
C149 C 0.88032 0.10084 0.1888 0.0
H150 H 0.83721 0.17034 0.31274 0.0
C151 C 0.90966 0.06974 0.24274 0.0
C152 C 0.91381 0.0749 0.32233 0.0
H153 H 0.87721 0.0954 0.12777 0.0
H154 H 0.92899 0.0414 0.22209 0.0
C155 C 0.8881 0.11197 0.34716 0.0
C156 C 0.39002 0.39062 0.70853 0.0
C157 C 0.34255 0.39862 0.66423 0.0
H158 H 0.44806 0.41708 0.795 0.0
C159 C 0.31507 0.43701 0.68097 0.0
H160 H 0.41214 0.36129 0.69728 0.0
C161 C 0.33576 0.46892 0.73561 0.0
C162 C 0.38423 0.46301 0.7759 0.0
H163 H 0.27823 0.44399 0.64899 0.0
H164 H 0.31424 0.49938 0.74439 0.0
C165 C 0.41064 0.4225 0.76442 0.0
C166 C 0.60227 0.58336 0.37024 0.0
C167 C 0.59481 0.63265 0.37209 0.0
H168 H 0.58806 0.5209 0.30656 0.0
C169 C 0.56703 0.65728 0.30597 0.0
H170 H 0.6238 0.5632 0.41946 0.0
C171 C 0.54653 0.63273 0.24004 0.0
C172 C 0.55313 0.58315 0.23968 0.0
H173 H 0.56067 0.69534 0.30543 0.0
H174 H 0.52458 0.6522 0.19046 0.0
C175 C 0.58166 0.55902 0.30523 0.0
C176 C 0.90604 0.14687 0.7864 0.0
C177 C 0.89756 0.10879 0.83697 0.0
H178 H 0.92738 0.16823 0.68024 0.0
C179 C 0.89695 0.06195 0.81296 0.0
H180 H 0.9054 0.18342 0.80293 0.0
C181 C 0.91022 0.05299 0.74275 0.0
C182 C 0.92354 0.09094 0.69559 0.0
H183 H 0.88979 0.03208 0.85081 0.0
H184 H 0.91363 0.0163 0.72849 0.0
C185 C 0.9182 0.13808 0.71582 0.0
C186 C 0.31648 0.39446 0.17899 0.0
C187 C 0.29782 0.43156 0.21484 0.0
H188 H 0.36476 0.37479 0.10612 0.0
C189 C 0.30759 0.47912 0.19281 0.0
H190 H 0.30904 0.35747 0.19362 0.0
C191 C 0.33953 0.48911 0.14211 0.0
C192 C 0.36225 0.45165 0.11299 0.0
H193 H 0.2933 0.50858 0.21872 0.0
H194 H 0.34929 0.52591 0.13072 0.0
C195 C 0.3484 0.40441 0.12867 0.0
C196 C 0.1341 0.89141 0.85989 0.0
C197 C 0.16881 0.91434 0.91462 0.0
H198 H 0.0808 0.89899 0.75377 0.0
C199 C 0.17688 0.96343 0.90271 0.0
H200 H 0.12712 0.8536 0.86771 0.0
C201 C 0.14966 0.98942 0.83892 0.0
C202 C 0.11464 0.96669 0.78467 0.0
H203 H 0.20309 0.98217 0.9441 0.0
H204 H 0.15602 0.02743 0.83211 0.0
C205 C 0.10767 0.91729 0.79481 0.0
loop_
_geom_bond_atom_site_label_1
_geom_bond_atom_site_label_2
_geom_bond_distance
_geom_bond_site_symmetry_2
_ccdc_geom_bond_type
O0 Cd1 2.300 1_556 S
O0 C7 1.275 . S
Cd1 O0 2.300 1_554 S
Cd1 O9 2.381 . S
Cd1 O10 2.378 . S
O2 Cd3 2.385 . S
O2 C7 1.255 1_554 S
Cd3 O2 2.385 . S
Cd3 O4 2.317 . S
O4 Cd3 2.317 . S
O4 C5 1.232 . S
C5 O4 1.232 . S
C5 O6 1.218 . S
O6 C5 1.218 . S
C7 O0 1.275 . S
C7 O2 1.255 1_556 S
C8 O9 1.258 . S
C8 O10 1.256 . S
O9 Cd1 2.381 . S
O9 C8 1.258 . S
O10 Cd1 2.378 . S
O10 C8 1.256 . S
O11 Cd12 2.300 . S
O11 C18 1.275 . S
Cd12 O11 2.300 . S
Cd12 O20 2.381 . S
Cd12 O21 2.378 . S
O13 Cd14 2.385 . S
O13 C18 1.255 . S
Cd14 O13 2.385 . S
Cd14 O15 2.317 . S
O15 Cd14 2.317 . S
O15 C16 1.232 . S
C16 O15 1.232 . S
C16 O17 1.218 . S
O17 C16 1.218 . S
C18 O11 1.275 . S
C18 O13 1.255 . S
C19 O20 1.258 . S
C19 O21 1.256 . S
O20 Cd12 2.381 . S
O20 C19 1.258 . S
O21 Cd12 2.378 . S
O21 C19 1.256 . S
O22 Cd23 2.300 . S
O22 C29 1.275 . S
Cd23 O22 2.300 . S
Cd23 O31 2.381 . S
Cd23 O32 2.378 1_554 S
O24 Cd25 2.385 . S
O24 C29 1.255 . S
Cd25 O24 2.385 . S
Cd25 O26 2.317 1_554 S
O26 Cd25 2.317 1_556 S
O26 C27 1.232 . S
C27 O26 1.232 . S
C27 O28 1.218 . S
O28 C27 1.218 . S
C29 O22 1.275 . S
C29 O24 1.255 . S
C30 O31 1.258 . S
C30 O32 1.256 1_554 S
O31 Cd23 2.381 . S
O31 C30 1.258 . S
O32 Cd23 2.378 1_556 S
O32 C30 1.256 1_556 S
O33 Cd34 2.300 . S
O33 C40 1.275 . S
Cd34 O33 2.300 . S
Cd34 O42 2.381 . S
Cd34 O43 2.378 . S
O35 Cd36 2.385 . S
O35 C40 1.255 . S
Cd36 O35 2.385 . S
Cd36 O37 2.317 . S
O37 Cd36 2.317 . S
O37 C38 1.232 . S
C38 O37 1.232 . S
C38 O39 1.218 . S
O39 C38 1.218 . S
C40 O33 1.275 . S
C40 O35 1.255 . S
C41 O42 1.258 . S
C41 O43 1.256 . S
O42 Cd34 2.381 . S
O42 C41 1.258 . S
O43 Cd34 2.378 . S
O43 C41 1.256 . S
O44 Mg45 1.990 . S
O44 C58 1.253 1_455 S
Mg45 O44 1.990 . S
Mg45 O48 2.180 . S
Mg45 O49 2.117 . S
Mg45 O63 2.030 . S
O46 Mg47 2.072 1_655 S
O46 C58 1.260 . S
Mg47 O46 2.072 1_455 S
Mg47 O48 2.099 . S
Mg47 O50 2.079 1_545 S
Mg47 O51 2.072 1_455 S
Mg47 O53 2.099 1_445 S
Mg47 O64 2.079 1_545 S
O48 Mg45 2.180 . S
O48 Mg47 2.099 . S
O48 C59 1.279 . S
O49 Mg45 2.117 . S
O49 C59 1.250 . S
O50 Mg47 2.079 1_565 S
O50 C60 1.264 . S
O51 Mg47 2.072 1_655 S
O51 C61 1.260 . S
Mg52 O53 2.180 . S
Mg52 O54 2.030 1_655 S
Mg52 O55 1.990 1_565 S
Mg52 O56 2.117 . S
O53 Mg47 2.099 1_665 S
O53 Mg52 2.180 . S
O53 C62 1.279 . S
O54 Mg52 2.030 1_455 S
O54 C60 1.248 . S
O55 Mg52 1.990 1_545 S
O55 C61 1.253 . S
O56 Mg52 2.117 . S
O56 C62 1.250 . S
C57 O63 1.248 1_565 S
C57 O64 1.264 . S
C58 O44 1.253 1_655 S
C58 O46 1.260 . S
C59 O48 1.279 . S
C59 O49 1.250 . S
C60 O50 1.264 . S
C60 O54 1.248 . S
C61 O51 1.260 . S
C61 O55 1.253 . S
C62 O53 1.279 . S
C62 O56 1.250 . S
O63 Mg45 2.030 . S
O63 C57 1.248 1_545 S
O64 Mg47 2.079 1_565 S
O64 C57 1.264 . S
O65 Mg66 1.990 . S
O65 C79 1.253 . S
Mg66 O65 1.990 . S
Mg66 O69 2.180 . S
Mg66 O70 2.117 . S
Mg66 O84 2.030 . S
O67 Mg68 2.072 . S
O67 C79 1.260 . S
Mg68 O67 2.072 . S
Mg68 O69 2.099 . S
Mg68 O71 2.079 1_554 S
Mg68 O72 2.072 1_554 S
Mg68 O74 2.099 1_554 S
Mg68 O85 2.079 . S
O69 Mg66 2.180 . S
O69 Mg68 2.099 . S
O69 C80 1.279 . S
O70 Mg66 2.117 . S
O70 C80 1.250 . S
O71 Mg68 2.079 1_556 S
O71 C81 1.264 . S
O72 Mg68 2.072 1_556 S
O72 C82 1.260 . S
Mg73 O74 2.180 . S
Mg73 O75 2.030 . S
Mg73 O76 1.990 . S
Mg73 O77 2.117 . S
O74 Mg68 2.099 1_556 S
O74 Mg73 2.180 . S
O74 C83 1.279 . S
O75 Mg73 2.030 . S
O75 C81 1.248 . S
O76 Mg73 1.990 . S
O76 C82 1.253 . S
O77 Mg73 2.117 . S
O77 C83 1.250 . S
C78 O84 1.248 . S
C78 O85 1.264 . S
C79 O65 1.253 . S
C79 O67 1.260 . S
C80 O69 1.279 . S
C80 O70 1.250 . S
C81 O71 1.264 . S
C81 O75 1.248 . S
C82 O72 1.260 . S
C82 O76 1.253 . S
C83 O74 1.279 . S
C83 O77 1.250 . S
O84 Mg66 2.030 . S
O84 C78 1.248 . S
O85 Mg68 2.079 . S
O85 C78 1.264 . S
C86 C87 1.387 . S
C86 H90 0.950 . S
C86 C95 1.390 . S
C87 C86 1.387 . S
C87 C89 1.387 . S
H88 C95 0.950 . S
C89 C87 1.387 . S
C89 C91 1.390 . S
C89 H93 0.950 . S
H90 C86 0.950 . S
C91 C89 1.390 . S
C91 C92 1.387 . S
C91 H94 0.950 . S
C92 C91 1.387 . S
C92 C95 1.387 . S
H93 C89 0.950 . S
H94 C91 0.950 . S
C95 C86 1.390 . S
C95 H88 0.950 . S
C95 C92 1.387 . S
C96 C97 1.387 1_556 S
C96 H100 0.950 . S
C96 C105 1.390 . S
C97 C96 1.387 1_554 S
C97 C99 1.387 . S
H98 C105 0.950 . S
C99 C97 1.387 . S
C99 C101 1.390 . S
C99 H103 0.950 . S
H100 C96 0.950 . S
C101 C99 1.390 . S
C101 C102 1.387 . S
C101 H104 0.950 . S
C102 C101 1.387 . S
C102 C105 1.387 1_554 S
H103 C99 0.950 . S
H104 C101 0.950 . S
C105 C96 1.390 . S
C105 H98 0.950 . S
C105 C102 1.387 1_556 S
C106 C107 1.387 . S
C106 H110 0.950 . S
C106 C115 1.390 . S
C107 C106 1.387 . S
C107 C109 1.387 . S
H108 C115 0.950 . S
C109 C107 1.387 . S
C109 C111 1.390 . S
C109 H113 0.950 . S
H110 C106 0.950 . S
C111 C109 1.390 . S
C111 C112 1.387 . S
C111 H114 0.950 . S
C112 C111 1.387 . S
C112 C115 1.387 . S
H113 C109 0.950 . S
H114 C111 0.950 . S
C115 C106 1.390 . S
C115 H108 0.950 . S
C115 C112 1.387 . S
C116 C117 1.387 1_556 S
C116 H120 0.950 . S
C116 C125 1.390 . S
C117 C116 1.387 1_554 S
C117 C119 1.387 . S
H118 C125 0.950 . S
C119 C117 1.387 . S
C119 C121 1.390 . S
C119 H123 0.950 . S
H120 C116 0.950 . S
C121 C119 1.390 . S
C121 C122 1.387 . S
C121 H124 0.950 . S
C122 C121 1.387 . S
C122 C125 1.387 1_554 S
H123 C119 0.950 . S
H124 C121 0.950 . S
C125 C116 1.390 . S
C125 H118 0.950 . S
C125 C122 1.387 1_556 S
C126 C127 1.387 . S
C126 H130 0.950 . S
C126 C135 1.390 . S
C127 C126 1.387 . S
C127 C129 1.387 . S
H128 C135 0.950 1_545 S
C129 C127 1.387 . S
C129 C131 1.390 . S
C129 H133 0.950 . S
H130 C126 0.950 . S
C131 C129 1.390 . S
C131 C132 1.387 . S
C131 H134 0.950 . S
C132 C131 1.387 . S
C132 C135 1.387 . S
H133 C129 0.950 . S
H134 C131 0.950 . S
C135 C126 1.390 . S
C135 H128 0.950 1_565 S
C135 C132 1.387 . S
C136 C137 1.387 . S
C136 H140 0.950 . S
C136 C145 1.390 . S
C137 C136 1.387 . S
C137 C139 1.387 . S
H138 C145 0.950 . S
C139 C137 1.387 . S
C139 C141 1.390 . S
C139 H143 0.950 . S
H140 C136 0.950 . S
C141 C139 1.390 . S
C141 C142 1.387 . S
C141 H144 0.950 . S
C142 C141 1.387 . S
C142 C145 1.387 . S
H143 C139 0.950 . S
H144 C141 0.950 . S
C145 C136 1.390 . S
C145 H138 0.950 . S
C145 C142 1.387 . S
C146 C147 1.387 . S
C146 H150 0.950 . S
C146 C155 1.390 . S
C147 C146 1.387 . S
C147 C149 1.387 . S
H148 C155 0.950 . S
C149 C147 1.387 . S
C149 C151 1.390 . S
C149 H153 0.950 . S
H150 C146 0.950 . S
C151 C149 1.390 . S
C151 C152 1.387 . S
C151 H154 0.950 . S
C152 C151 1.387 . S
C152 C155 1.387 . S
H153 C149 0.950 . S
H154 C151 0.950 . S
C155 C146 1.390 . S
C155 H148 0.950 . S
C155 C152 1.387 . S
C156 C157 1.387 . S
C156 H160 0.950 . S
C156 C165 1.390 . S
C157 C156 1.387 . S
C157 C159 1.387 . S
H158 C165 0.950 . S
C159 C157 1.387 . S
C159 C161 1.390 . S
C159 H163 0.950 . S
H160 C156 0.950 . S
C161 C159 1.390 . S
C161 C162 1.387 . S
C161 H164 0.950 . S
C162 C161 1.387 . S
C162 C165 1.387 . S
H163 C159 0.950 . S
H164 C161 0.950 . S
C165 C156 1.390 . S
C165 H158 0.950 . S
C165 C162 1.387 . S
C166 C167 1.387 . S
C166 H170 0.950 . S
C166 C175 1.390 . S
C167 C166 1.387 . S
C167 C169 1.387 . S
H168 C175 0.950 . S
C169 C167 1.387 . S
C169 C171 1.390 . S
C169 H173 0.950 . S
H170 C166 0.950 . S
C171 C169 1.390 . S
C171 C172 1.387 . S
C171 H174 0.950 . S
C172 C171 1.387 . S
C172 C175 1.387 . S
H173 C169 0.950 . S
H174 C171 0.950 . S
C175 C166 1.390 . S
C175 H168 0.950 . S
C175 C172 1.387 . S
C176 C177 1.387 . S
C176 H180 0.950 . S
C176 C185 1.390 . S
C177 C176 1.387 . S
C177 C179 1.387 . S
H178 C185 0.950 . S
C179 C177 1.387 . S
C179 C181 1.390 . S
C179 H183 0.950 . S
H180 C176 0.950 . S
C181 C179 1.390 . S
C181 C182 1.387 . S
C181 H184 0.950 . S
C182 C181 1.387 . S
C182 C185 1.387 . S
H183 C179 0.950 . S
H184 C181 0.950 . S
C185 C176 1.390 . S
C185 H178 0.950 . S
C185 C182 1.387 . S
C186 C187 1.387 . S
C186 H190 0.950 . S
C186 C195 1.390 . S
C187 C186 1.387 . S
C187 C189 1.387 . S
H188 C195 0.950 . S
C189 C187 1.387 . S
C189 C191 1.390 . S
C189 H193 0.950 . S
H190 C186 0.950 . S
C191 C189 1.390 . S
C191 C192 1.387 . S
C191 H194 0.950 . S
C192 C191 1.387 . S
C192 C195 1.387 . S
H193 C189 0.950 . S
H194 C191 0.950 . S
C195 C186 1.390 . S
C195 H188 0.950 . S
C195 C192 1.387 . S
C196 C197 1.387 . S
C196 H200 0.950 . S
C196 C205 1.390 . S
C197 C196 1.387 . S
C197 C199 1.387 . S
H198 C205 0.950 . S
C199 C197 1.387 . S
C199 C201 1.390 . S
C199 H203 0.950 . S
H200 C196 0.950 . S
C201 C199 1.390 . S
C201 C202 1.387 . S
C201 H204 0.950 1_565 S
C202 C201 1.387 . S
C202 C205 1.387 . S
H203 C199 0.950 . S
H204 C201 0.950 1_545 S
C205 C196 1.390 . S
C205 H198 0.950 . S
C205 C202 1.387 . S
C92 C59 1.258 . S
C87 C41 1.457 . S
C97 C8 1.463 . S
C102 C83 1.324 1_554 S
C107 C19 1.624 . S
C112 C62 1.465 . S
C117 C30 1.557 . S
C122 C80 1.321 . S
C132 C60 1.499 . S
C127 C5 1.376 . S
C142 C82 1.617 . S
C137 C18 1.656 . S
C147 C29 1.559 . S
C152 C61 1.546 . S
C157 C40 1.561 . S
C162 C81 1.532 . S
C172 C79 1.421 . S
C167 C16 1.314 . S
C182 C58 1.426 . S
C177 C27 1.307 . S
C192 C78 1.354 . S
C187 C38 1.258 . S
C197 C7 1.391 . S
C202 C57 1.359 . S
