# Generated by pormake.
# Topology pts, (4,4)-cn, num edge types: 1
# Building blocks:
#     Node 0, Type 0, BuildingBlock: KOZSID_clean_sbu_0, # of connection points: 4
#     Node 1, Type 0, BuildingBlock: KOZSID_clean_sbu_0, # of connection points: 4
#     Node 2, Type 1, BuildingBlock: AZAVOO_clean_sbu_0, # of connection points: 4
#     Node 3, Type 1, BuildingBlock: AZAVOO_clean_sbu_0, # of connection points: 4
#     Edge 4, Type (0, 1), BuildingBlock: AJUNOK_clean_linker_0, # of connection points: 2
#     Edge 5, Type (0, 1), BuildingBlock: AJUNOK_clean_linker_0, # of connection points: 2
#     Edge 6, Type (0, 1), BuildingBlock: AJUNOK_clean_linker_0, # of connection points: 2
#     Edge 7, Type (0, 1), BuildingBlock: AJUNOK_clean_linker_0, # of connection points: 2
#     Edge 8, Type (0, 1), BuildingBlock: AJUNOK_clean_linker_0, # of connection points: 2
#     Edge 9, Type (0, 1), BuildingBlock: AJUNOK_clean_linker_0, # of connection points: 2
#     Edge 10, Type (0, 1), BuildingBlock: AJUNOK_clean_linker_0, # of connection points: 2
#     Edge 11, Type (0, 1), BuildingBlock: AJUNOK_clean_linker_0, # of connection points: 2
# Relax obj value: 0.000
# Max RMSD: 0.032
# Mean RMSD: 0.016
data_MOF--net-pts--node1-KOZSID_clean_sbu_0--node2-AZAVOO_clean_sbu_0--edge1-AJUNOK_clean_linker_0
_symmetry_space_group_name_H-M    P1
_symmetry_Int_Tables_number       1
_symmetry_cell_setting            triclinic
loop_
_symmetry_equiv_pos_as_xyz
'x, y, z'
_cell_length_a     20.237314
_cell_length_b     20.913507
_cell_length_c     30.420156
_cell_angle_alpha  84.862528
_cell_angle_beta   101.96415
_cell_angle_gamma 90.436608
loop_
_atom_site_label
_atom_site_type_symbol
_atom_site_fract_x
_atom_site_fract_y
_atom_site_fract_z
_atom_type_partial_charge
C0 C 0.70925 0.13284 0.09334 0.0
C1 C 0.73479 0.1906 0.10832 0.0
C2 C 0.69501 0.23805 0.08242 0.0
C3 C 0.64747 0.20673 0.05332 0.0
N4 N 0.65405 0.14203 0.05931 0.0
Co5 Co 0.59651 0.07813 0.02359 0.0
N6 N 0.54202 0.14807 0.98266 0.0
C7 C 0.55099 0.2121 0.984 0.0
C8 C 0.50479 0.24831 0.95242 0.0
C9 C 0.46344 0.2049 0.92973 0.0
C10 C 0.48697 0.14443 0.94883 0.0
N11 N 0.53838 0.01403 0.98846 0.0
C12 C 0.48315 0.02306 0.95454 0.0
C13 C 0.45642 0.96511 0.94054 0.0
C14 C 0.4953 0.91776 0.96704 0.0
C15 C 0.54343 0.94928 0.99549 0.0
N16 N 0.65175 0.00806 0.06392 0.0
C17 C 0.64402 0.944 0.06177 0.0
C18 C 0.69161 0.90766 0.09213 0.0
C19 C 0.73291 0.95097 0.1148 0.0
C20 C 0.70777 0.01154 0.09697 0.0
N21 N 0.53145 0.07808 0.06471 0.0
C22 C 0.42682 0.07785 0.11372 0.0
C23 C 0.45685 0.02054 0.10687 0.0
C24 C 0.5087 0.02172 0.08265 0.0
C25 C 0.45189 0.13533 0.09694 0.0
C26 C 0.5042 0.13437 0.07327 0.0
N27 N 0.66113 0.07857 0.98222 0.0
C28 C 0.72731 0.02193 0.93992 0.0
C29 C 0.75587 0.07917 0.92571 0.0
C30 C 0.73569 0.13616 0.93993 0.0
C31 C 0.68864 0.13481 0.96783 0.0
C32 C 0.68061 0.02268 0.96796 0.0
H33 H 0.67528 0.17997 0.97722 0.0
H34 H 0.66109 0.9774 0.97773 0.0
H35 H 0.52875 0.97637 0.07819 0.0
H36 H 0.52061 0.17988 0.06136 0.0
C37 C 0.59973 0.23669 0.01769 0.0
C38 C 0.73997 0.07069 0.11198 0.0
C39 C 0.45373 0.08518 0.9348 0.0
C40 C 0.59312 0.9194 0.02969 0.0
H41 H 0.77845 0.19769 0.13469 0.0
H42 H 0.7012 0.28934 0.08377 0.0
H43 H 0.50041 0.30013 0.94743 0.0
H44 H 0.41996 0.21645 0.90284 0.0
H45 H 0.41286 0.95775 0.91416 0.0
H46 H 0.48874 0.86645 0.96609 0.0
H47 H 0.69656 0.85585 0.09656 0.0
H48 H 0.77722 0.93925 0.14099 0.0
H49 H 0.44009 0.9747 0.11989 0.0
H50 H 0.43006 0.18107 0.10081 0.0
H51 H 0.74131 0.9765 0.92966 0.0
H52 H 0.75514 0.1819 0.92893 0.0
C53 C 0.1489 0.47977 0.6017 0.0
C54 C 0.20895 0.45747 0.62965 0.0
C55 C 0.25971 0.49026 0.61462 0.0
C56 C 0.2278 0.53082 0.57873 0.0
N57 N 0.15974 0.52609 0.57001 0.0
Co58 Co 0.09365 0.57874 0.52264 0.0
N59 N 0.16826 0.62337 0.49824 0.0
C60 C 0.23523 0.61081 0.51168 0.0
C61 C 0.27424 0.64798 0.4879 0.0
C62 C 0.22954 0.68653 0.45733 0.0
C63 C 0.16554 0.67057 0.4643 0.0
N64 N 0.02748 0.63435 0.47717 0.0
C65 C 0.03822 0.68271 0.44681 0.0
C66 C 0.97798 0.71054 0.42266 0.0
C67 C 0.92732 0.67902 0.43861 0.0
C68 C 0.95938 0.63403 0.47146 0.0
N69 N 0.01897 0.53137 0.54534 0.0
C70 C 0.95189 0.53895 0.52867 0.0
C71 C 0.91292 0.49706 0.54926 0.0
C72 C 0.9578 0.45979 0.58061 0.0
C73 C 0.02175 0.48155 0.57745 0.0
N74 N 0.09473 0.64397 0.56627 0.0
C75 C 0.09641 0.7373 0.62759 0.0
C76 C 0.03615 0.70833 0.60866 0.0
C77 C 0.03639 0.66225 0.57818 0.0
C78 C 0.15584 0.71858 0.6157 0.0
C79 C 0.15397 0.67197 0.58541 0.0
N80 N 0.09277 0.51323 0.47905 0.0
C81 C 0.03347 0.45594 0.41733 0.0
C82 C 0.08835 0.41409 0.42153 0.0
C83 C 0.14695 0.42523 0.45317 0.0
C84 C 0.14831 0.47503 0.48104 0.0
C85 C 0.03633 0.5041 0.44658 0.0
H86 H 0.19451 0.48072 0.50452 0.0
H87 H 0.99166 0.5325 0.44262 0.0
H88 H 0.98861 0.6428 0.56423 0.0
H89 H 0.20106 0.65986 0.57774 0.0
C90 C 0.26023 0.56895 0.54979 0.0
C91 C 0.08355 0.452 0.60459 0.0
C92 C 0.10415 0.70372 0.4394 0.0
C93 C 0.92704 0.58783 0.4952 0.0
H94 H 0.21533 0.42004 0.65723 0.0
H95 H 0.31349 0.48382 0.62741 0.0
H96 H 0.32879 0.64844 0.49311 0.0
H97 H 0.24274 0.72319 0.4333 0.0
H98 H 0.97138 0.74932 0.39601 0.0
H99 H 0.87351 0.68728 0.42717 0.0
H100 H 0.85837 0.49402 0.54232 0.0
H101 H 0.94494 0.42078 0.60307 0.0
H102 H 0.98866 0.72259 0.61622 0.0
H103 H 0.20361 0.74021 0.6295 0.0
H104 H 0.98769 0.45071 0.39225 0.0
H105 H 0.19095 0.39427 0.4576 0.0
Mg106 Mg 0.14485 0.05617 0.29663 0.0
O107 O 0.03627 0.05455 0.25162 0.0
O108 O 0.96795 0.03394 0.3001 0.0
Mg109 Mg 0.02685 0.02114 0.37268 0.0
C110 C 0.97701 0.04601 0.25991 0.0
C111 C 0.20508 0.05705 0.21035 0.0
O112 O 0.17521 0.00107 0.21054 0.0
O113 O 0.12184 0.1562 0.31687 0.0
O114 O 0.05436 0.12681 0.36469 0.0
O115 O 0.15799 0.94876 0.29818 0.0
O116 O 0.11514 0.99665 0.34741 0.0
C117 C 0.08554 0.16984 0.34471 0.0
C118 C 0.13148 0.9441 0.33349 0.0
O119 O 0.19549 0.09547 0.2387 0.0
Mg120 Mg 0.05104 0.06808 0.75091 0.0
O121 O 0.15883 0.07237 0.79588 0.0
O122 O 0.22941 0.06559 0.7488 0.0
Mg123 Mg 0.17207 0.0514 0.67763 0.0
C124 C 0.21869 0.07228 0.78804 0.0
C125 C 0.93953 0.07139 0.80094 0.0
O126 O 0.92059 0.03696 0.76649 0.0
O127 O 0.06195 0.1717 0.7203 0.0
O128 O 0.12884 0.15257 0.67279 0.0
O129 O 0.04886 0.96001 0.76008 0.0
O130 O 0.08724 0.01506 0.70592 0.0
C131 C 0.09277 0.19067 0.68879 0.0
C132 C 0.07531 0.96005 0.72486 0.0
O133 O 0.99752 0.09728 0.8059 0.0
C134 C 0.31587 0.03327 0.12616 0.0
C135 C 0.36861 0.0771 0.13703 0.0
C136 C 0.26183 0.02937 0.14864 0.0
C137 C 0.25782 0.06928 0.18296 0.0
H138 H 0.3165 0.00124 0.10016 0.0
H139 H 0.22349 0.99373 0.13955 0.0
S140 S 0.38264 0.19291 0.22411 0.0
N141 N 0.41323 0.16164 0.18443 0.0
N142 N 0.31118 0.15523 0.22608 0.0
C143 C 0.30921 0.11474 0.19331 0.0
C144 C 0.36462 0.1184 0.17055 0.0
C145 C 0.10145 0.33477 0.60546 0.0
C146 C 0.08175 0.38603 0.62658 0.0
C147 C 0.10382 0.27211 0.62585 0.0
C148 C 0.08645 0.25807 0.66826 0.0
H149 H 0.11578 0.34338 0.57303 0.0
H150 H 0.11966 0.23436 0.608 0.0
S151 S 0.03068 0.37695 0.73697 0.0
N152 N 0.04411 0.42025 0.69155 0.0
N153 N 0.04785 0.30172 0.73028 0.0
C154 C 0.06547 0.30924 0.68942 0.0
C155 C 0.06344 0.37344 0.66852 0.0
C156 C 0.86534 0.07664 0.1419 0.0
C157 C 0.79996 0.06684 0.14995 0.0
C158 C 0.92242 0.06951 0.17745 0.0
C159 C 0.91605 0.05223 0.2223 0.0
H160 H 0.87232 0.08927 0.10786 0.0
H161 H 0.9718 0.07759 0.16962 0.0
S162 S 0.7538 0.0217 0.25993 0.0
N163 N 0.73109 0.0398 0.20496 0.0
N164 N 0.837 0.0258 0.2719 0.0
C165 C 0.85009 0.04263 0.23035 0.0
C166 C 0.79244 0.05014 0.19417 0.0
C167 C 0.12446 0.84974 0.64433 0.0
C168 C 0.09644 0.79081 0.65632 0.0
C169 C 0.11966 0.90331 0.66791 0.0
C170 C 0.08739 0.9001 0.70485 0.0
H171 H 0.14795 0.85525 0.61529 0.0
H172 H 0.13969 0.94796 0.65587 0.0
S173 S 0.01089 0.75452 0.75208 0.0
N174 N 0.0389 0.73052 0.70892 0.0
N175 N 0.03034 0.83123 0.75388 0.0
C176 C 0.06168 0.84043 0.71843 0.0
C177 C 0.06595 0.78587 0.69396 0.0
C178 C 0.32898 0.07272 0.90619 0.0
C179 C 0.39314 0.08734 0.89736 0.0
C180 C 0.27238 0.06933 0.87078 0.0
C181 C 0.27823 0.07984 0.82531 0.0
H182 H 0.32289 0.06271 0.94068 0.0
H183 H 0.22414 0.05684 0.87914 0.0
S184 S 0.43608 0.12289 0.78537 0.0
N185 N 0.45964 0.11438 0.84088 0.0
N186 N 0.3542 0.10873 0.77413 0.0
C187 C 0.34245 0.09602 0.81644 0.0
C188 C 0.39965 0.09956 0.8525 0.0
C189 C 0.13666 0.3374 0.37672 0.0
C190 C 0.08298 0.35612 0.396 0.0
C191 C 0.13563 0.27872 0.35735 0.0
C192 C 0.0811 0.23652 0.35695 0.0
H193 H 0.18058 0.36758 0.37767 0.0
H194 H 0.17925 0.265 0.34472 0.0
S195 S 0.9256 0.26512 0.39963 0.0
N196 N 0.97242 0.32872 0.41138 0.0
N197 N 0.96945 0.22012 0.37386 0.0
C198 C 0.02557 0.25636 0.37387 0.0
C199 C 0.02675 0.31567 0.39368 0.0
C200 C 0.78776 0.04575 0.8559 0.0
C201 C 0.80395 0.07932 0.89462 0.0
C202 C 0.83164 0.04449 0.82592 0.0
C203 C 0.89408 0.07646 0.83334 0.0
H204 H 0.74034 0.02054 0.84842 0.0
H205 H 0.81624 0.0177 0.7967 0.0
S206 S 0.96111 0.17039 0.93057 0.0
N207 N 0.88712 0.1448 0.93937 0.0
N208 N 0.96984 0.14259 0.88292 0.0
C209 C 0.91097 0.11044 0.87199 0.0
C210 C 0.86589 0.1119 0.90257 0.0
C211 C 0.09952 0.82297 0.42692 0.0
C212 C 0.10915 0.76391 0.41064 0.0
C213 C 0.10545 0.88073 0.40114 0.0
C214 C 0.12133 0.88156 0.3581 0.0
H215 H 0.08812 0.82442 0.4601 0.0
H216 H 0.09899 0.92506 0.41569 0.0
S217 S 0.14857 0.73828 0.3 0.0
N218 N 0.13294 0.70844 0.34891 0.0
N219 N 0.14473 0.81717 0.30008 0.0
C220 C 0.13008 0.82234 0.34123 0.0
C221 C 0.12376 0.76344 0.3676 0.0
loop_
_geom_bond_atom_site_label_1
_geom_bond_atom_site_label_2
_geom_bond_distance
_geom_bond_site_symmetry_2
_ccdc_geom_bond_type
C0 C1 1.443 . S
C0 N4 1.376 . S
C0 C38 1.389 . S
C1 C0 1.443 . S
C1 C2 1.340 . S
C1 H41 0.951 . S
C2 C1 1.340 . S
C2 C3 1.439 . S
C2 H42 0.950 . S
C3 C2 1.439 . S
C3 N4 1.374 . S
C3 C37 1.395 . S
N4 C0 1.376 . S
N4 C3 1.374 . S
N4 Co5 2.008 . S
Co5 N4 2.008 . S
Co5 N6 1.995 1_554 S
Co5 N11 2.008 1_544 S
Co5 N16 1.995 1_545 S
Co5 N21 2.282 . S
Co5 N27 2.282 1_554 S
N6 Co5 1.995 1_556 S
N6 C7 1.376 . S
N6 C10 1.383 . S
C7 N6 1.376 . S
C7 C8 1.446 . S
C7 C37 1.391 1_556 S
C8 C7 1.446 . S
C8 C9 1.339 . S
C8 H43 0.949 . S
C9 C8 1.339 . S
C9 C10 1.439 . S
C9 H44 0.950 . S
C10 N6 1.383 . S
C10 C9 1.439 . S
C10 C39 1.392 . S
N11 Co5 2.008 1_566 S
N11 C12 1.376 1_565 S
N11 C15 1.374 1_556 S
C12 N11 1.376 1_545 S
C12 C13 1.443 1_545 S
C12 C39 1.389 . S
C13 C12 1.443 1_565 S
C13 C14 1.340 . S
C13 H45 0.951 . S
C14 C13 1.340 . S
C14 C15 1.439 1_556 S
C14 H46 0.950 . S
C15 N11 1.374 1_554 S
C15 C14 1.439 1_554 S
C15 C40 1.395 . S
N16 Co5 1.995 1_565 S
N16 C17 1.376 . S
N16 C20 1.383 1_565 S
C17 N16 1.376 . S
C17 C18 1.446 . S
C17 C40 1.391 . S
C18 C17 1.446 . S
C18 C19 1.339 . S
C18 H47 0.949 . S
C19 C18 1.339 . S
C19 C20 1.439 1_565 S
C19 H48 0.950 . S
C20 N16 1.383 1_545 S
C20 C19 1.439 1_545 S
C20 C38 1.392 . S
N21 Co5 2.282 . S
N21 C24 1.332 . S
N21 C26 1.332 . S
C22 C23 1.386 . S
C22 C25 1.388 . S
C23 C22 1.386 . S
C23 C24 1.382 . S
C23 H49 0.950 1_545 S
C24 N21 1.332 . S
C24 C23 1.382 . S
C24 H35 0.952 1_545 S
C25 C22 1.388 . S
C25 C26 1.382 . S
C25 H50 0.950 . S
C26 N21 1.332 . S
C26 C25 1.382 . S
C26 H36 0.948 . S
N27 Co5 2.282 1_556 S
N27 C31 1.332 . S
N27 C32 1.332 . S
C28 C29 1.388 . S
C28 C32 1.382 . S
C28 H51 0.950 1_545 S
C29 C28 1.388 . S
C29 C30 1.386 . S
C30 C29 1.386 . S
C30 C31 1.382 . S
C30 H52 0.950 . S
C31 N27 1.332 . S
C31 C30 1.382 . S
C31 H33 0.952 . S
C32 N27 1.332 . S
C32 C28 1.382 . S
C32 H34 0.948 1_545 S
H33 C31 0.952 . S
H34 C32 0.948 1_565 S
H35 C24 0.952 1_565 S
H36 C26 0.948 . S
C37 C3 1.395 . S
C37 C7 1.391 1_554 S
C38 C0 1.389 . S
C38 C20 1.392 . S
C39 C10 1.392 . S
C39 C12 1.389 . S
C40 C15 1.395 . S
C40 C17 1.391 . S
H41 C1 0.951 . S
H42 C2 0.950 . S
H43 C8 0.949 . S
H44 C9 0.950 . S
H45 C13 0.951 . S
H46 C14 0.950 . S
H47 C18 0.949 . S
H48 C19 0.950 . S
H49 C23 0.950 1_565 S
H50 C25 0.950 . S
H51 C28 0.950 1_565 S
H52 C30 0.950 . S
C53 C54 1.443 . S
C53 N57 1.376 . S
C53 C91 1.389 . S
C54 C53 1.443 . S
C54 C55 1.340 . S
C54 H94 0.951 . S
C55 C54 1.340 . S
C55 C56 1.439 . S
C55 H95 0.950 . S
C56 C55 1.439 . S
C56 N57 1.374 . S
C56 C90 1.395 . S
N57 C53 1.376 . S
N57 C56 1.374 . S
N57 Co58 2.008 . S
Co58 N57 2.008 . S
Co58 N59 1.995 . S
Co58 N64 2.008 . S
Co58 N69 1.995 . S
Co58 N74 2.282 . S
Co58 N80 2.282 . S
N59 Co58 1.995 . S
N59 C60 1.376 . S
N59 C63 1.383 . S
C60 N59 1.376 . S
C60 C61 1.446 . S
C60 C90 1.391 . S
C61 C60 1.446 . S
C61 C62 1.339 . S
C61 H96 0.949 . S
C62 C61 1.339 . S
C62 C63 1.439 . S
C62 H97 0.950 . S
C63 N59 1.383 . S
C63 C62 1.439 . S
C63 C92 1.392 . S
N64 Co58 2.008 . S
N64 C65 1.376 . S
N64 C68 1.374 1_455 S
C65 N64 1.376 . S
C65 C66 1.443 1_455 S
C65 C92 1.389 . S
C66 C65 1.443 1_655 S
C66 C67 1.340 . S
C66 H98 0.951 . S
C67 C66 1.340 . S
C67 C68 1.439 . S
C67 H99 0.950 . S
C68 N64 1.374 1_655 S
C68 C67 1.439 . S
C68 C93 1.395 . S
N69 Co58 1.995 . S
N69 C70 1.376 1_455 S
N69 C73 1.383 . S
C70 N69 1.376 1_655 S
C70 C71 1.446 . S
C70 C93 1.391 . S
C71 C70 1.446 . S
C71 C72 1.339 . S
C71 H100 0.949 . S
C72 C71 1.339 . S
C72 C73 1.439 1_655 S
C72 H101 0.950 . S
C73 N69 1.383 . S
C73 C72 1.439 1_455 S
C73 C91 1.392 . S
N74 Co58 2.282 . S
N74 C77 1.332 . S
N74 C79 1.332 . S
C75 C76 1.386 . S
C75 C78 1.388 . S
C76 C75 1.386 . S
C76 C77 1.382 . S
C76 H102 0.950 1_455 S
C77 N74 1.332 . S
C77 C76 1.382 . S
C77 H88 0.952 1_455 S
C78 C75 1.388 . S
C78 C79 1.382 . S
C78 H103 0.950 . S
C79 N74 1.332 . S
C79 C78 1.382 . S
C79 H89 0.948 . S
N80 Co58 2.282 . S
N80 C84 1.332 . S
N80 C85 1.332 . S
C81 C82 1.388 . S
C81 C85 1.382 . S
C81 H104 0.950 1_455 S
C82 C81 1.388 . S
C82 C83 1.386 . S
C83 C82 1.386 . S
C83 C84 1.382 . S
C83 H105 0.950 . S
C84 N80 1.332 . S
C84 C83 1.382 . S
C84 H86 0.952 . S
C85 N80 1.332 . S
C85 C81 1.382 . S
C85 H87 0.948 1_455 S
H86 C84 0.952 . S
H87 C85 0.948 1_655 S
H88 C77 0.952 1_655 S
H89 C79 0.948 . S
C90 C56 1.395 . S
C90 C60 1.391 . S
C91 C53 1.389 . S
C91 C73 1.392 . S
C92 C63 1.392 . S
C92 C65 1.389 . S
C93 C68 1.395 . S
C93 C70 1.391 . S
H94 C54 0.951 . S
H95 C55 0.950 . S
H96 C61 0.949 . S
H97 C62 0.950 . S
H98 C66 0.951 . S
H99 C67 0.950 . S
H100 C71 0.949 . S
H101 C72 0.950 . S
H102 C76 0.950 1_655 S
H103 C78 0.950 . S
H104 C81 0.950 1_655 S
H105 C83 0.950 . S
Mg106 O107 2.028 . S
Mg106 O113 1.986 . S
Mg106 O115 2.114 1_545 S
Mg106 O116 2.251 . S
Mg106 O119 2.010 . S
O107 Mg106 2.028 . S
O107 C110 1.250 1_455 S
O108 Mg109 2.028 . S
O108 C110 1.248 . S
Mg109 O108 2.028 . S
Mg109 O114 2.032 1_655 S
Mg109 O116 2.079 1_655 S
C110 O107 1.250 1_655 S
C110 O108 1.248 . S
C111 O112 1.264 . S
C111 O119 1.249 . S
O112 C111 1.264 . S
O113 Mg106 1.986 . S
O113 C117 1.246 . S
O114 Mg109 2.032 1_455 S
O114 C117 1.259 . S
O115 Mg106 2.114 1_565 S
O115 C118 1.252 . S
O116 Mg106 2.251 . S
O116 Mg109 2.079 1_455 S
O116 C118 1.273 1_545 S
C117 O113 1.246 . S
C117 O114 1.259 . S
C118 O115 1.252 . S
C118 O116 1.273 1_565 S
O119 Mg106 2.010 . S
O119 C111 1.249 . S
Mg120 O121 2.028 . S
Mg120 O127 1.986 . S
Mg120 O129 2.114 1_545 S
Mg120 O130 2.251 . S
Mg120 O133 2.010 1_455 S
O121 Mg120 2.028 . S
O121 C124 1.250 . S
O122 Mg123 2.028 . S
O122 C124 1.248 . S
Mg123 O122 2.028 . S
Mg123 O128 2.032 . S
Mg123 O130 2.079 . S
C124 O121 1.250 . S
C124 O122 1.248 . S
C125 O126 1.264 . S
C125 O133 1.249 . S
O126 C125 1.264 . S
O127 Mg120 1.986 . S
O127 C131 1.246 . S
O128 Mg123 2.032 . S
O128 C131 1.259 . S
O129 Mg120 2.114 1_565 S
O129 C132 1.252 . S
O130 Mg120 2.251 . S
O130 Mg123 2.079 . S
O130 C132 1.273 1_545 S
C131 O127 1.246 . S
C131 O128 1.259 . S
C132 O129 1.252 . S
C132 O130 1.273 1_565 S
O133 Mg120 2.010 1_655 S
O133 C125 1.249 . S
C134 C135 1.369 . S
C134 C136 1.419 . S
C134 H138 0.930 1_545 S
C135 C134 1.369 . S
C135 C144 1.429 . S
C136 C134 1.419 . S
C136 C137 1.363 . S
C136 H139 0.929 1_545 S
C137 C136 1.363 . S
C137 C143 1.428 . S
H138 C134 0.930 1_565 S
H139 C136 0.929 1_565 S
S140 N141 1.613 . S
S140 N142 1.610 . S
N141 S140 1.613 . S
N141 C144 1.350 . S
N142 S140 1.610 . S
N142 C143 1.351 . S
C143 C137 1.428 . S
C143 N142 1.351 . S
C143 C144 1.434 . S
C144 C135 1.429 . S
C144 N141 1.350 . S
C144 C143 1.434 . S
C145 C146 1.369 . S
C145 C147 1.419 . S
C145 H149 0.930 . S
C146 C145 1.369 . S
C146 C155 1.429 . S
C147 C145 1.419 . S
C147 C148 1.363 . S
C147 H150 0.929 . S
C148 C147 1.363 . S
C148 C154 1.428 . S
H149 C145 0.930 . S
H150 C147 0.929 . S
S151 N152 1.613 . S
S151 N153 1.610 . S
N152 S151 1.613 . S
N152 C155 1.350 1_655 S
N153 S151 1.610 . S
N153 C154 1.351 1_655 S
C154 C148 1.428 . S
C154 N153 1.351 1_455 S
C154 C155 1.434 . S
C155 C146 1.429 . S
C155 N152 1.350 1_455 S
C155 C154 1.434 . S
C156 C157 1.369 . S
C156 C158 1.419 . S
C156 H160 0.930 . S
C157 C156 1.369 . S
C157 C166 1.429 . S
C158 C156 1.419 . S
C158 C159 1.363 . S
C158 H161 0.929 . S
C159 C158 1.363 . S
C159 C165 1.428 . S
H160 C156 0.930 . S
H161 C158 0.929 . S
S162 N163 1.613 . S
S162 N164 1.610 . S
N163 S162 1.613 . S
N163 C166 1.350 1_565 S
N164 S162 1.610 . S
N164 C165 1.351 1_565 S
C165 C159 1.428 . S
C165 N164 1.351 1_545 S
C165 C166 1.434 . S
C166 C157 1.429 . S
C166 N163 1.350 1_545 S
C166 C165 1.434 . S
C167 C168 1.369 . S
C167 C169 1.419 . S
C167 H171 0.930 . S
C168 C167 1.369 . S
C168 C177 1.429 . S
C169 C167 1.419 . S
C169 C170 1.363 . S
C169 H172 0.929 . S
C170 C169 1.363 . S
C170 C176 1.428 . S
H171 C167 0.930 . S
H172 C169 0.929 . S
S173 N174 1.613 . S
S173 N175 1.610 . S
N174 S173 1.613 . S
N174 C177 1.350 . S
N175 S173 1.610 . S
N175 C176 1.351 . S
C176 C170 1.428 . S
C176 N175 1.351 . S
C176 C177 1.434 . S
C177 C168 1.429 . S
C177 N174 1.350 . S
C177 C176 1.434 . S
C178 C179 1.369 . S
C178 C180 1.419 . S
C178 H182 0.930 . S
C179 C178 1.369 . S
C179 C188 1.429 . S
C180 C178 1.419 . S
C180 C181 1.363 . S
C180 H183 0.929 . S
C181 C180 1.363 . S
C181 C187 1.428 . S
H182 C178 0.930 . S
H183 C180 0.929 . S
S184 N185 1.613 . S
S184 N186 1.610 . S
N185 S184 1.613 . S
N185 C188 1.350 . S
N186 S184 1.610 . S
N186 C187 1.351 . S
C187 C181 1.428 . S
C187 N186 1.351 . S
C187 C188 1.434 . S
C188 C179 1.429 . S
C188 N185 1.350 . S
C188 C187 1.434 . S
C189 C190 1.369 . S
C189 C191 1.419 . S
C189 H193 0.930 . S
C190 C189 1.369 . S
C190 C199 1.429 . S
C191 C189 1.419 . S
C191 C192 1.363 . S
C191 H194 0.929 . S
C192 C191 1.363 . S
C192 C198 1.428 . S
H193 C189 0.930 . S
H194 C191 0.929 . S
S195 N196 1.613 . S
S195 N197 1.610 . S
N196 S195 1.613 . S
N196 C199 1.350 1_655 S
N197 S195 1.610 . S
N197 C198 1.351 1_655 S
C198 C192 1.428 . S
C198 N197 1.351 1_455 S
C198 C199 1.434 . S
C199 C190 1.429 . S
C199 N196 1.350 1_455 S
C199 C198 1.434 . S
C200 C201 1.369 . S
C200 C202 1.419 . S
C200 H204 0.930 . S
C201 C200 1.369 . S
C201 C210 1.429 . S
C202 C200 1.419 . S
C202 C203 1.363 . S
C202 H205 0.929 . S
C203 C202 1.363 . S
C203 C209 1.428 . S
H204 C200 0.930 . S
H205 C202 0.929 . S
S206 N207 1.613 . S
S206 N208 1.610 . S
N207 S206 1.613 . S
N207 C210 1.350 . S
N208 S206 1.610 . S
N208 C209 1.351 . S
C209 C203 1.428 . S
C209 N208 1.351 . S
C209 C210 1.434 . S
C210 C201 1.429 . S
C210 N207 1.350 . S
C210 C209 1.434 . S
C211 C212 1.369 . S
C211 C213 1.419 . S
C211 H215 0.930 . S
C212 C211 1.369 . S
C212 C221 1.429 . S
C213 C211 1.419 . S
C213 C214 1.363 . S
C213 H216 0.929 . S
C214 C213 1.363 . S
C214 C220 1.428 . S
H215 C211 0.930 . S
H216 C213 0.929 . S
S217 N218 1.613 . S
S217 N219 1.610 . S
N218 S217 1.613 . S
N218 C221 1.350 1_655 S
N219 S217 1.610 . S
N219 C220 1.351 1_655 S
C220 C214 1.428 . S
C220 N219 1.351 1_455 S
C220 C221 1.434 . S
C221 C212 1.429 . S
C221 N218 1.350 1_455 S
C221 C220 1.434 . S
C137 C111 1.255 . S
C135 C22 1.501 . S
C148 C131 1.470 . S
C146 C91 1.495 . S
C159 C110 1.458 . S
C157 C38 1.500 . S
C170 C132 1.506 . S
C168 C75 1.505 . S
C181 C124 1.459 . S
C179 C39 1.501 . S
C192 C117 1.466 . S
C190 C82 1.495 . S
C203 C125 1.265 . S
C201 C29 1.502 . S
C212 C92 1.504 . S
C214 C118 1.505 . S
