# Generated by pormake.
# Topology scu, (8,4)-cn, num edge types: 1
# Building blocks:
#     Node 0, Type 0, BuildingBlock: GIZVER_clean_sbu_0, # of connection points: 8
#     Node 1, Type 1, BuildingBlock: NAWXER_clean_sbu_0, # of connection points: 4
#     Node 2, Type 1, BuildingBlock: NAWXER_clean_sbu_0, # of connection points: 4
#     Edge 3, Type (0, 1), BuildingBlock: CIFDUS_clean_linker_0, # of connection points: 2
#     Edge 4, Type (0, 1), BuildingBlock: CIFDUS_clean_linker_0, # of connection points: 2
#     Edge 5, Type (0, 1), BuildingBlock: CIFDUS_clean_linker_0, # of connection points: 2
#     Edge 6, Type (0, 1), BuildingBlock: CIFDUS_clean_linker_0, # of connection points: 2
#     Edge 7, Type (0, 1), BuildingBlock: CIFDUS_clean_linker_0, # of connection points: 2
#     Edge 8, Type (0, 1), BuildingBlock: CIFDUS_clean_linker_0, # of connection points: 2
#     Edge 9, Type (0, 1), BuildingBlock: CIFDUS_clean_linker_0, # of connection points: 2
#     Edge 10, Type (0, 1), BuildingBlock: CIFDUS_clean_linker_0, # of connection points: 2
# Relax obj value: 0.016
# Max RMSD: 0.075
# Mean RMSD: 0.058
data_MOF--net-scu--node1-GIZVER_clean_sbu_0--node2-NAWXER_clean_sbu_0--edge1-CIFDUS_clean_linker_0
_symmetry_space_group_name_H-M    P1
_symmetry_Int_Tables_number       1
_symmetry_cell_setting            triclinic
loop_
_symmetry_equiv_pos_as_xyz
'x, y, z'
_cell_length_a     21.081449
_cell_length_b     21.514105
_cell_length_c     18.816188
_cell_angle_alpha  100.8363
_cell_angle_beta   79.614382
_cell_angle_gamma 115.09731
loop_
_atom_site_label
_atom_site_type_symbol
_atom_site_fract_x
_atom_site_fract_y
_atom_site_fract_z
_atom_type_partial_charge
Co0 Co 0.0191 0.96197 0.18497 0.0
Co1 Co 0.12611 0.05851 0.14322 0.0
Co2 Co 0.00078 0.03196 0.05041 0.0
O3 O 0.05672 0.99605 0.0929 0.0
H4 H 0.07371 0.96591 0.05786 0.0
O5 O 0.9418 0.06364 1.00687 0.0
Co6 Co 0.96295 0.08327 0.90812 0.0
Co7 Co 0.86196 0.98849 0.97657 0.0
H8 H 0.92864 0.09752 1.04004 0.0
O9 O 0.2048 0.04514 0.13504 0.0
O10 O 0.11258 1.0167 0.22527 0.0
O11 O 0.12826 0.14902 0.16558 0.0
O12 O 0.03576 0.12843 0.10847 0.0
O13 O 0.07953 0.06418 0.97139 0.0
O14 O 0.98168 0.10829 0.82002 0.0
O15 O 0.92494 0.14717 0.91942 0.0
O16 O 0.01002 0.02238 0.88308 0.0
O17 O 0.9691 0.93726 0.99199 0.0
O18 O 0.85896 0.89639 0.96638 0.0
O19 O 0.87071 1.0075 0.88257 0.0
O20 O 0.78232 1.00134 0.97368 0.0
C21 C 0.00225 0.87605 0.22965 0.0
C22 C 0.93305 0.02718 0.19524 0.0
C23 C 0.08406 0.16812 0.14928 0.0
C24 C 0.17672 0.02306 0.19792 0.0
C25 C 0.95253 0.1504 0.85145 0.0
C26 C 0.07032 0.04197 0.90469 0.0
C27 C 0.91535 0.88863 0.96577 0.0
C28 C 0.80807 1.00657 0.9059 0.0
O29 O 0.98276 0.9238 0.26584 0.0
O30 O 0.03803 0.88489 0.16513 0.0
O31 O 0.92175 1.0011 0.12969 0.0
O32 O 0.98972 0.03528 0.21791 0.0
C33 C 0.03135 0.63155 0.66404 0.0
C34 C 0.07952 0.47472 0.45573 0.0
O35 O 0.09145 0.63118 0.63879 0.0
Zn36 Zn 0.06082 0.55486 0.56002 0.0
O37 O 0.97691 0.58843 0.63369 0.0
Zn38 Zn 0.94925 0.50721 0.54641 0.0
O39 O 0.88787 0.42686 0.59861 0.0
O40 O -0.0002 0.4681 0.61652 0.0
O41 O 0.01476 0.4661 0.47051 0.0
O42 O 0.12536 0.52044 0.49508 0.0
O43 O 0.03135 0.59712 0.48492 0.0
O44 O 0.9163 0.54541 0.48059 0.0
C45 C 0.93634 0.42361 0.6277 0.0
C46 C 0.97645 0.58988 0.45852 0.0
C47 C 0.54441 0.95111 0.62349 0.0
C48 C 0.38954 0.94879 0.45646 0.0
O49 O 0.49934 0.8974 0.59122 0.0
Zn50 Zn 0.46465 0.94515 0.53866 0.0
O51 O 0.55243 1.01103 0.61267 0.0
Zn52 Zn 0.51356 0.05709 0.55165 0.0
O53 O 0.47285 0.10876 0.62734 0.0
O54 O 0.41337 0.99543 0.62199 0.0
O55 O 0.43329 1.00909 0.47991 0.0
O56 O 0.38847 0.89519 0.47709 0.0
O57 O 0.5527 0.98993 0.46074 0.0
O58 O 0.59722 0.10391 0.48716 0.0
C59 C 0.42042 0.05671 0.65018 0.0
C60 C 0.59869 0.0498 0.44701 0.0
H61 H 0.18073 0.26792 0.23338 0.0
H62 H 0.9803 0.2147 0.15731 0.0
H63 H 0.96466 0.30919 0.24211 0.0
H64 H 0.00141 0.39807 0.34633 0.0
H65 H 0.19978 0.44985 0.42562 0.0
H66 H 0.22283 0.36468 0.3305 0.0
C67 C 0.1341 0.27759 0.23433 0.0
C68 C 0.08149 0.23363 0.18919 0.0
C69 C 0.12466 0.33116 0.28441 0.0
C70 C 0.02176 0.24753 0.19105 0.0
C71 C 0.01246 0.30129 0.24005 0.0
C72 C 0.05003 0.39119 0.34265 0.0
C73 C 0.09838 0.42954 0.39378 0.0
C74 C 0.06252 0.34195 0.2884 0.0
C75 C 0.16159 0.4208 0.38725 0.0
C76 C 0.17464 0.37197 0.33299 0.0
H77 H 0.79528 0.98606 0.17963 0.0
H78 H 0.95372 0.11607 0.32173 0.0
H79 H 0.865 0.1437 0.40821 0.0
H80 H 0.73981 0.12106 0.44916 0.0
H81 H 0.58125 0.98283 0.31105 0.0
H82 H 0.67233 0.96921 0.21672 0.0
C83 C 0.81053 0.02101 0.22916 0.0
C84 C 0.88067 0.04819 0.24474 0.0
C85 C 0.75904 0.03527 0.27934 0.0
C86 C 0.89972 0.09352 0.30909 0.0
C87 C 0.84909 0.10956 0.35844 0.0
C88 C 0.72573 0.08952 0.39756 0.0
C89 C 0.6544 0.0534 0.38638 0.0
C90 C 0.77824 0.07944 0.34497 0.0
C91 C 0.63612 1.01128 0.32027 0.0
C92 C 0.68805 1.00318 0.26664 0.0
H93 H 0.08156 0.80323 0.22994 0.0
H94 H 0.87887 0.80926 0.30807 0.0
H95 H 0.84867 0.71523 0.37999 0.0
H96 H 0.88426 0.63874 0.43047 0.0
H97 H 0.09126 0.64033 0.36093 0.0
H98 H 0.11529 0.72308 0.27665 0.0
C99 C 0.03045 0.78296 0.26175 0.0
C100 C 0.98256 0.81299 0.26384 0.0
C101 C 0.01442 0.73056 0.30545 0.0
C102 C 0.91673 0.78698 0.30596 0.0
C103 C 0.89942 0.73331 0.34724 0.0
C104 C 0.93402 0.65638 0.39591 0.0
C105 C 0.98584 0.63362 0.40213 0.0
C106 C 0.94847 0.70577 0.34892 0.0
C107 C 0.05057 0.65753 0.35757 0.0
C108 C 0.06445 0.70485 0.30921 0.0
H109 H 0.14322 0.92694 0.29149 0.0
H110 H 0.31503 0.10099 0.20214 0.0
H111 H 0.39608 0.0897 0.27057 0.0
H112 H 0.41847 0.03336 0.35721 0.0
H113 H 0.25168 0.85603 0.44528 0.0
H114 H 0.16858 0.8638 0.37413 0.0
C115 C 0.19837 0.96207 0.28724 0.0
C116 C 0.22312 1.01483 0.24207 0.0
C117 C 0.24562 0.95416 0.32559 0.0
C118 C 0.2948 0.05987 0.23638 0.0
C119 C 0.34127 0.05348 0.27539 0.0
C120 C 0.364 0.99599 0.36045 0.0
C121 C 0.34093 0.94459 0.40657 0.0
C122 C 0.31728 1.00106 0.3201 0.0
C123 C 0.27059 0.89587 0.40964 0.0
C124 C 0.22306 0.9008 0.3696 0.0
H125 H 0.03854 0.87428 0.91538 0.0
H126 H 0.81309 0.76707 0.91237 0.0
H127 H 0.82993 0.67632 0.82167 0.0
H128 H 0.90833 0.63279 0.73634 0.0
H129 H 0.13398 0.74239 0.73416 0.0
H130 H 0.11721 0.82745 0.83368 0.0
C131 C 0.99284 0.83047 0.896 0.0
C132 C 0.92445 0.8277 0.92085 0.0
C133 C 0.00303 0.77958 0.84208 0.0
C134 C 0.86619 0.77067 0.89439 0.0
C135 C 0.87584 0.71894 0.84216 0.0
C136 C 0.95408 0.67501 0.75772 0.0
C137 C 0.02245 0.68133 0.72729 0.0
C138 C 0.94401 0.72381 0.81437 0.0
C139 C 0.08084 0.73622 0.75633 0.0
C140 C 0.07123 0.78486 0.81327 0.0
H141 H 0.20905 0.12706 0.90158 0.0
H142 H 0.0619 0.94071 0.7918 0.0
H143 H 0.15837 0.92766 0.70559 0.0
H144 H 0.28352 0.97037 0.66009 0.0
H145 H 0.43072 0.16201 0.7616 0.0
H146 H 0.3351 0.17262 0.85232 0.0
C147 C 0.19844 0.08358 0.85882 0.0
C148 C 0.12883 0.03458 0.85309 0.0
C149 C 0.2539 0.07778 0.80796 0.0
C150 C 0.11517 0.979 0.79703 0.0
C151 C 0.17023 0.97154 0.74784 0.0
C152 C 0.29481 1.01432 0.70235 0.0
C153 C 0.36402 0.06503 0.70487 0.0
C154 C 0.23962 0.02078 0.75264 0.0
C155 C 0.37774 0.12239 0.75882 0.0
C156 C 0.32319 0.1283 0.81062 0.0
H157 H 0.84936 0.19388 0.83831 0.0
H158 H 0.06697 0.22747 0.77082 0.0
H159 H 0.08021 0.314 0.69627 0.0
H160 H 0.03118 0.37869 0.64873 0.0
H161 H 0.81239 0.34391 0.70618 0.0
H162 H 0.79759 0.25796 0.78477 0.0
C163 C 0.89946 0.22047 0.80744 0.0
C164 C 0.95728 0.20458 0.81023 0.0
C165 C 0.90624 0.26919 0.76233 0.0
C166 C 0.02181 0.23881 0.7694 0.0
C167 C 0.02944 0.28823 0.72669 0.0
C168 C 0.98006 0.35262 0.67852 0.0
C169 C 0.92316 0.36826 0.67218 0.0
C170 C 0.9721 0.3035 0.72245 0.0
C171 C 0.85708 0.33281 0.71012 0.0
C172 C 0.8488 0.28399 0.75532 0.0
H173 H 0.75613 0.9108 0.79148 0.0
H174 H 0.75688 0.10256 0.91115 0.0
H175 H 0.6747 0.10187 0.83399 0.0
H176 H 0.6011 0.04565 0.73496 0.0
H177 H 0.59061 0.84867 0.62046 0.0
H178 H 0.67668 0.85099 0.69442 0.0
C179 C 0.7387 0.95263 0.79962 0.0
C180 C 0.76344 1.00771 0.85517 0.0
C181 C 0.68883 0.95003 0.7572 0.0
C182 C 0.73924 0.06062 0.86748 0.0
C183 C 0.69198 0.05987 0.82389 0.0
C184 C 0.61742 1.00301 0.72629 0.0
C185 C 0.58986 0.94716 0.67225 0.0
C186 C 0.66606 1.0046 0.76909 0.0
C187 C 0.61077 0.89193 0.66218 0.0
C188 C 0.66037 0.89361 0.70398 0.0
loop_
_geom_bond_atom_site_label_1
_geom_bond_atom_site_label_2
_geom_bond_distance
_geom_bond_site_symmetry_2
_ccdc_geom_bond_type
Co0 O3 2.044 . S
Co0 O10 2.270 1_565 S
Co0 O29 2.287 1_455 S
Co0 O30 2.076 . S
Co0 O32 2.007 1_455 S
Co1 O3 2.122 1_545 S
Co1 O9 2.073 . S
Co1 O10 2.327 . S
Co1 O11 1.976 . S
Co2 O3 2.093 1_545 S
Co2 O5 2.080 1_454 S
Co2 O12 2.117 . S
Co2 O13 2.140 1_554 S
Co2 O17 2.106 1_444 S
Co2 O31 2.147 1_445 S
O3 Co0 2.044 . S
O3 Co1 2.122 1_565 S
O3 Co2 2.093 1_565 S
O3 H4 0.980 . S
H4 O3 0.980 . S
O5 Co2 2.080 1_656 S
O5 Co6 2.042 . S
O5 Co7 2.122 1_545 S
O5 H8 0.980 . S
Co6 O5 2.042 . S
Co6 O14 2.286 1_655 S
Co6 O15 2.069 . S
Co6 O16 2.015 1_655 S
Co6 O19 2.264 1_545 S
Co7 O5 2.122 1_565 S
Co7 O18 1.976 . S
Co7 O19 2.327 . S
Co7 O20 2.073 . S
H8 O5 0.980 . S
O9 Co1 2.073 . S
O9 C24 1.245 1_545 S
O10 Co0 2.270 1_545 S
O10 Co1 2.327 . S
O10 C24 1.257 1_545 S
O11 Co1 1.976 . S
O11 C23 1.251 . S
O12 Co2 2.117 . S
O12 C23 1.274 . S
O13 Co2 2.140 1_556 S
O13 C26 1.246 . S
O14 Co6 2.286 1_455 S
O14 C25 1.259 1_455 S
O15 Co6 2.069 . S
O15 C25 1.289 . S
O16 Co6 2.015 1_455 S
O16 C26 1.257 . S
O17 Co2 2.106 1_666 S
O17 C27 1.274 . S
O18 Co7 1.976 . S
O18 C27 1.251 . S
O19 Co6 2.264 1_565 S
O19 Co7 2.327 . S
O19 C28 1.257 1_565 S
O20 Co7 2.073 . S
O20 C28 1.245 1_565 S
C21 O29 1.259 1_455 S
C21 O30 1.289 . S
C22 O31 1.246 . S
C22 O32 1.257 . S
C23 O11 1.251 . S
C23 O12 1.274 . S
C24 O9 1.245 1_565 S
C24 O10 1.257 1_565 S
C25 O14 1.259 1_655 S
C25 O15 1.289 . S
C26 O13 1.246 . S
C26 O16 1.257 . S
C27 O17 1.274 . S
C27 O18 1.251 . S
C28 O19 1.257 1_545 S
C28 O20 1.245 1_545 S
O29 Co0 2.287 1_655 S
O29 C21 1.259 1_655 S
O30 Co0 2.076 . S
O30 C21 1.289 . S
O31 Co2 2.147 1_665 S
O31 C22 1.246 . S
O32 Co0 2.007 1_655 S
O32 C22 1.257 . S
C33 O35 1.254 . S
C33 O37 1.253 1_455 S
C34 O41 1.246 . S
C34 O42 1.259 1_655 S
O35 C33 1.254 . S
O35 Zn36 2.028 . S
Zn36 O35 2.028 . S
Zn36 O40 2.035 . S
Zn36 O42 2.035 . S
Zn36 O43 2.028 . S
O37 C33 1.253 1_655 S
O37 Zn38 2.035 . S
Zn38 O37 2.035 . S
Zn38 O39 2.028 . S
Zn38 O41 2.028 . S
Zn38 O44 2.035 . S
O39 Zn38 2.028 . S
O39 C45 1.246 . S
O40 Zn36 2.035 . S
O40 C45 1.259 1_455 S
O41 C34 1.246 . S
O41 Zn38 2.028 . S
O42 C34 1.259 1_455 S
O42 Zn36 2.035 . S
O43 Zn36 2.028 . S
O43 C46 1.254 . S
O44 Zn38 2.035 . S
O44 C46 1.253 1_655 S
C45 O39 1.246 . S
C45 O40 1.259 1_655 S
C46 O43 1.254 . S
C46 O44 1.253 1_455 S
C47 O49 1.248 1_545 S
C47 O51 1.257 . S
C48 O55 1.252 . S
C48 O56 1.249 1_545 S
O49 C47 1.248 1_565 S
O49 Zn50 2.028 . S
Zn50 O49 2.028 . S
Zn50 O54 2.035 . S
Zn50 O56 2.035 . S
Zn50 O57 2.028 . S
O51 C47 1.257 . S
O51 Zn52 2.035 . S
Zn52 O51 2.035 . S
Zn52 O53 2.028 . S
Zn52 O55 2.028 . S
Zn52 O58 2.035 . S
O53 Zn52 2.028 . S
O53 C59 1.253 . S
O54 Zn50 2.035 . S
O54 C59 1.250 1_565 S
O55 C48 1.252 . S
O55 Zn52 2.028 . S
O56 C48 1.249 1_565 S
O56 Zn50 2.035 . S
O57 Zn50 2.028 . S
O57 C60 1.248 1_565 S
O58 Zn52 2.035 . S
O58 C60 1.257 . S
C59 O53 1.253 . S
C59 O54 1.250 1_545 S
C60 O57 1.248 1_545 S
C60 O58 1.257 . S
H61 C67 0.930 . S
H62 C70 0.930 . S
H63 C71 0.930 . S
H64 C72 0.930 . S
H65 C75 0.930 . S
H66 C76 0.930 . S
C67 H61 0.930 . S
C67 C68 1.355 1_655 S
C67 C69 1.415 . S
C68 C67 1.355 1_455 S
C68 C70 1.419 . S
C69 C67 1.415 . S
C69 C74 1.425 1_655 S
C69 C76 1.409 . S
C70 H62 0.930 . S
C70 C68 1.419 . S
C70 C71 1.362 . S
C71 H63 0.930 . S
C71 C70 1.362 . S
C71 C74 1.409 . S
C72 H64 0.930 . S
C72 C73 1.355 . S
C72 C74 1.415 . S
C73 C72 1.355 . S
C73 C75 1.419 1_455 S
C74 C69 1.425 1_455 S
C74 C71 1.409 . S
C74 C72 1.415 . S
C75 H65 0.930 . S
C75 C73 1.419 1_655 S
C75 C76 1.362 . S
C76 H66 0.930 . S
C76 C69 1.409 . S
C76 C75 1.362 . S
H77 C83 0.930 . S
H78 C86 0.930 . S
H79 C87 0.930 . S
H80 C88 0.930 . S
H81 C91 0.930 . S
H82 C92 0.930 . S
C83 H77 0.930 . S
C83 C84 1.355 . S
C83 C85 1.415 . S
C84 C83 1.355 . S
C84 C86 1.419 1_565 S
C85 C83 1.415 . S
C85 C90 1.425 1_565 S
C85 C92 1.409 . S
C86 H78 0.930 . S
C86 C84 1.419 1_545 S
C86 C87 1.362 . S
C87 H79 0.930 . S
C87 C86 1.362 . S
C87 C90 1.409 . S
C88 H80 0.930 . S
C88 C89 1.355 1_545 S
C88 C90 1.415 . S
C89 C88 1.355 1_565 S
C89 C91 1.419 . S
C90 C85 1.425 1_545 S
C90 C87 1.409 . S
C90 C88 1.415 . S
C91 H81 0.930 . S
C91 C89 1.419 . S
C91 C92 1.362 . S
C92 H82 0.930 . S
C92 C85 1.409 . S
C92 C91 1.362 . S
H93 C99 0.930 . S
H94 C102 0.930 . S
H95 C103 0.930 . S
H96 C104 0.930 . S
H97 C107 0.930 . S
H98 C108 0.930 . S
C99 H93 0.930 . S
C99 C100 1.355 . S
C99 C101 1.415 . S
C100 C99 1.355 . S
C100 C102 1.419 1_455 S
C101 C99 1.415 . S
C101 C106 1.425 1_455 S
C101 C108 1.409 . S
C102 H94 0.930 . S
C102 C100 1.419 1_655 S
C102 C103 1.362 . S
C103 H95 0.930 . S
C103 C102 1.362 . S
C103 C106 1.409 . S
C104 H96 0.930 . S
C104 C105 1.355 1_655 S
C104 C106 1.415 . S
C105 C104 1.355 1_455 S
C105 C107 1.419 . S
C106 C101 1.425 1_655 S
C106 C103 1.409 . S
C106 C104 1.415 . S
C107 H97 0.930 . S
C107 C105 1.419 . S
C107 C108 1.362 . S
C108 H98 0.930 . S
C108 C101 1.409 . S
C108 C107 1.362 . S
H109 C115 0.930 . S
H110 C118 0.930 . S
H111 C119 0.930 . S
H112 C120 0.930 . S
H113 C123 0.930 . S
H114 C124 0.930 . S
C115 H109 0.930 . S
C115 C116 1.355 . S
C115 C117 1.415 . S
C116 C115 1.355 . S
C116 C118 1.419 1_565 S
C117 C115 1.415 . S
C117 C122 1.425 1_565 S
C117 C124 1.409 . S
C118 H110 0.930 . S
C118 C116 1.419 1_545 S
C118 C119 1.362 . S
C119 H111 0.930 . S
C119 C118 1.362 . S
C119 C122 1.409 . S
C120 H112 0.930 . S
C120 C121 1.355 1_545 S
C120 C122 1.415 . S
C121 C120 1.355 1_565 S
C121 C123 1.419 . S
C122 C117 1.425 1_545 S
C122 C119 1.409 . S
C122 C120 1.415 . S
C123 H113 0.930 . S
C123 C121 1.419 . S
C123 C124 1.362 . S
C124 H114 0.930 . S
C124 C117 1.409 . S
C124 C123 1.362 . S
H125 C131 0.930 . S
H126 C134 0.930 . S
H127 C135 0.930 . S
H128 C136 0.930 . S
H129 C139 0.930 . S
H130 C140 0.930 . S
C131 H125 0.930 . S
C131 C132 1.355 1_455 S
C131 C133 1.415 . S
C132 C131 1.355 1_655 S
C132 C134 1.419 . S
C133 C131 1.415 . S
C133 C138 1.425 1_455 S
C133 C140 1.409 . S
C134 H126 0.930 . S
C134 C132 1.419 . S
C134 C135 1.362 . S
C135 H127 0.930 . S
C135 C134 1.362 . S
C135 C138 1.409 . S
C136 H128 0.930 . S
C136 C137 1.345 1_655 S
C136 C138 1.415 . S
C137 C136 1.345 1_455 S
C137 C139 1.428 . S
C138 C133 1.425 1_655 S
C138 C135 1.409 . S
C138 C136 1.415 . S
C139 H129 0.930 . S
C139 C137 1.428 . S
C139 C140 1.362 . S
C140 H130 0.930 . S
C140 C133 1.409 . S
C140 C139 1.362 . S
H141 C147 0.930 . S
H142 C150 0.930 . S
H143 C151 0.930 . S
H144 C152 0.930 . S
H145 C155 0.930 . S
H146 C156 0.930 . S
C147 H141 0.930 . S
C147 C148 1.355 . S
C147 C149 1.415 . S
C148 C147 1.355 . S
C148 C150 1.419 1_545 S
C149 C147 1.415 . S
C149 C154 1.425 1_545 S
C149 C156 1.409 . S
C150 H142 0.930 . S
C150 C148 1.419 1_565 S
C150 C151 1.362 . S
C151 H143 0.930 . S
C151 C150 1.362 . S
C151 C154 1.409 . S
C152 H144 0.930 . S
C152 C153 1.360 1_565 S
C152 C154 1.415 . S
C153 C152 1.360 1_545 S
C153 C155 1.417 . S
C154 C149 1.425 1_565 S
C154 C151 1.409 . S
C154 C152 1.415 . S
C155 H145 0.930 . S
C155 C153 1.417 . S
C155 C156 1.362 . S
C156 H146 0.930 . S
C156 C149 1.409 . S
C156 C155 1.362 . S
H157 C163 0.930 . S
H158 C166 0.930 . S
H159 C167 0.930 . S
H160 C168 0.930 . S
H161 C171 0.930 . S
H162 C172 0.930 . S
C163 H157 0.930 . S
C163 C164 1.355 . S
C163 C165 1.415 . S
C164 C163 1.355 . S
C164 C166 1.419 1_655 S
C165 C163 1.415 . S
C165 C170 1.425 1_655 S
C165 C172 1.409 . S
C166 H158 0.930 . S
C166 C164 1.419 1_455 S
C166 C167 1.362 . S
C167 H159 0.930 . S
C167 C166 1.362 . S
C167 C170 1.409 . S
C168 H160 0.930 . S
C168 C169 1.355 1_455 S
C168 C170 1.415 . S
C169 C168 1.355 1_655 S
C169 C171 1.419 . S
C170 C165 1.425 1_455 S
C170 C167 1.409 . S
C170 C168 1.415 . S
C171 H161 0.930 . S
C171 C169 1.419 . S
C171 C172 1.362 . S
C172 H162 0.930 . S
C172 C165 1.409 . S
C172 C171 1.362 . S
H173 C179 0.930 . S
H174 C182 0.930 . S
H175 C183 0.930 . S
H176 C184 0.930 . S
H177 C187 0.930 . S
H178 C188 0.930 . S
C179 H173 0.930 . S
C179 C180 1.355 . S
C179 C181 1.415 . S
C180 C179 1.355 . S
C180 C182 1.419 . S
C181 C179 1.415 . S
C181 C186 1.425 . S
C181 C188 1.409 1_545 S
C182 H174 0.930 . S
C182 C180 1.419 . S
C182 C183 1.362 . S
C183 H175 0.930 . S
C183 C182 1.362 . S
C183 C186 1.409 . S
C184 H176 0.930 . S
C184 C185 1.355 . S
C184 C186 1.415 . S
C185 C184 1.355 . S
C185 C187 1.420 1_545 S
C186 C181 1.425 . S
C186 C183 1.409 . S
C186 C184 1.415 . S
C187 H177 0.930 . S
C187 C185 1.420 1_565 S
C187 C188 1.362 . S
C188 H178 0.930 . S
C188 C181 1.409 1_565 S
C188 C187 1.362 . S
C68 C23 1.342 . S
C73 C34 1.413 1_455 S
C84 C22 1.422 . S
C89 C60 1.470 1_565 S
C100 C21 1.651 . S
C105 C46 1.675 . S
C116 C24 1.433 . S
C121 C48 1.538 1_565 S
C132 C27 1.295 . S
C137 C33 1.391 . S
C148 C26 1.400 . S
C153 C59 1.468 . S
C169 C45 1.680 . S
C164 C25 1.653 . S
C180 C28 1.483 . S
C185 C47 1.544 . S
