# Generated by pormake.
# Topology bcu-b, (8,8)-cn, num edge types: 1
# Building blocks:
#     Node 0, Type 0, BuildingBlock: VETTIZ_charged_sbu_0, # of connection points: 8
#     Node 1, Type 1, BuildingBlock: VETTIZ_charged_sbu_0, # of connection points: 8
#     Edge 2, Type (0, 1), BuildingBlock: UKIBIB_clean_linker_0, # of connection points: 2
#     Edge 3, Type (0, 1), BuildingBlock: UKIBIB_clean_linker_0, # of connection points: 2
#     Edge 4, Type (0, 1), BuildingBlock: UKIBIB_clean_linker_0, # of connection points: 2
#     Edge 5, Type (0, 1), BuildingBlock: UKIBIB_clean_linker_0, # of connection points: 2
#     Edge 6, Type (0, 1), BuildingBlock: UKIBIB_clean_linker_0, # of connection points: 2
#     Edge 7, Type (0, 1), BuildingBlock: UKIBIB_clean_linker_0, # of connection points: 2
#     Edge 8, Type (0, 1), BuildingBlock: UKIBIB_clean_linker_0, # of connection points: 2
#     Edge 9, Type (0, 1), BuildingBlock: UKIBIB_clean_linker_0, # of connection points: 2
# Relax obj value: 0.000
# Max RMSD: 0.009
# Mean RMSD: 0.009
data_MOF--net-bcu-b--node1-VETTIZ_charged_sbu_0--node2-VETTIZ_charged_sbu_0--edge1-UKIBIB_clean_linker_0
_symmetry_space_group_name_H-M    P1
_symmetry_Int_Tables_number       1
_symmetry_cell_setting            triclinic
loop_
_symmetry_equiv_pos_as_xyz
'x, y, z'
_cell_length_a     26.650488
_cell_length_b     26.666253
_cell_length_c     26.559035
_cell_angle_alpha  90.01697
_cell_angle_beta   90.017199
_cell_angle_gamma 90.00616
loop_
_atom_site_label
_atom_site_type_symbol
_atom_site_fract_x
_atom_site_fract_y
_atom_site_fract_z
_atom_type_partial_charge
Fe0 Fe 0.99037 0.89638 -0.00634 0.0
O1 O 0.99069 0.97066 0.02477 0.0
Fe2 Fe 0.99122 0.99582 0.8864 0.0
Fe3 Fe 0.99116 -0.00292 0.09977 0.0
O4 O 0.99089 0.97029 0.96168 0.0
O5 O -0.0082 0.02224 0.96138 0.0
O6 O 0.99099 0.02258 0.02451 0.0
Fe7 Fe 0.99131 0.09648 0.99255 0.0
C8 C 0.91519 0.90856 0.08364 0.0
O9 O 0.04598 0.88863 0.04599 0.0
O10 O 0.04989 0.94779 0.10535 0.0
O11 O 0.04633 0.10418 0.93992 0.0
O12 O 0.04965 0.04527 0.88041 0.0
O13 O 0.0465 0.94372 0.88144 0.0
O14 O 0.04945 0.8883 0.94428 0.0
O15 O 0.04591 0.04972 0.10473 0.0
O16 O 0.05141 0.10412 0.04099 0.0
C17 C 0.06598 0.9063 0.90322 0.0
O18 O 0.93136 0.10292 0.94398 0.0
O19 O 0.93584 0.04803 0.8805 0.0
O20 O 0.93096 0.89004 0.04263 0.0
O21 O 0.93609 0.94474 0.10614 0.0
C22 C 0.06584 0.90798 0.08473 0.0
C23 C 0.06664 0.0862 0.08255 0.0
C24 C 0.91647 0.08583 0.08396 0.0
O25 O 0.93263 0.04631 0.10487 0.0
O26 O 0.93613 0.10492 0.04505 0.0
C27 C 0.06588 0.08493 0.90105 0.0
O28 O 0.93309 0.94612 0.88128 0.0
O29 O 0.9346 0.8883 0.94186 0.0
C30 C 0.91522 0.08435 0.90308 0.0
C31 C 0.91586 0.90716 0.9024 0.0
Fe32 Fe 0.49074 0.59557 0.49252 0.0
O33 O 0.45902 0.52142 0.49317 0.0
Fe34 Fe 0.59809 0.49694 0.49335 0.0
Fe35 Fe 0.38418 0.49571 0.49414 0.0
O36 O 0.52301 0.52172 0.49228 0.0
O37 O 0.52336 0.47124 0.49322 0.0
O38 O 0.45931 0.4708 0.49468 0.0
Fe39 Fe 0.49199 0.39703 0.49345 0.0
C40 C 0.40131 0.58447 0.56934 0.0
O41 O 0.43887 0.60327 0.43693 0.0
O42 O 0.37816 0.54564 0.4357 0.0
O43 O 0.54485 0.38902 0.43847 0.0
O44 O 0.60373 0.44839 0.43388 0.0
O45 O 0.60347 0.55015 0.43936 0.0
O46 O 0.53947 0.60371 0.43281 0.0
O47 O 0.37933 0.44331 0.43873 0.0
O48 O 0.44376 0.38983 0.43296 0.0
C49 C 0.58145 0.5865 0.41835 0.0
O50 O 0.54017 0.38971 0.55388 0.0
O51 O 0.60374 0.44383 0.54743 0.0
O52 O 0.44142 0.60287 0.55147 0.0
O53 O 0.37851 0.5474 0.5504 0.0
C54 C 0.39936 0.58457 0.41839 0.0
C55 C 0.40214 0.40737 0.41767 0.0
C56 C 0.40071 0.40678 0.56839 0.0
O57 O 0.37945 0.44608 0.55233 0.0
O58 O 0.43961 0.38804 0.5486 0.0
C59 C 0.58332 0.40834 0.41832 0.0
O60 O 0.60248 0.54551 0.55292 0.0
O61 O 0.54279 0.60415 0.54835 0.0
C62 C 0.58197 0.40736 0.56848 0.0
C63 C 0.5813 0.58505 0.56867 0.0
C64 C 0.1486 0.13279 0.09117 0.0
C65 C 0.10373 0.11467 0.11211 0.0
C66 C 0.1814 0.16174 0.12062 0.0
C67 C 0.32583 0.35964 0.39667 0.0
C68 C 0.37276 0.37797 0.38123 0.0
C69 C 0.29684 0.3303 0.36444 0.0
H70 H 0.05765 0.11263 0.17935 0.0
H71 H 0.11426 0.16406 0.22996 0.0
H72 H 0.42607 0.38131 0.31979 0.0
H73 H 0.37403 0.33028 0.26214 0.0
C74 C 0.09235 0.12568 0.16259 0.0
C75 C 0.1245 0.15515 0.19149 0.0
C76 C 0.39013 0.36719 0.33251 0.0
C77 C 0.36051 0.33828 0.29977 0.0
C78 C 0.16903 0.17345 0.17066 0.0
C79 C 0.20118 0.20496 0.20069 0.0
C80 C 0.22721 0.23122 0.22687 0.0
C81 C 0.314 0.31943 0.31593 0.0
C82 C 0.2839 0.2883 0.28345 0.0
C83 C 0.25769 0.26213 0.25736 0.0
H84 H 0.15823 0.12452 0.05242 0.0
H85 H 0.21598 0.17551 0.10421 0.0
H86 H 0.31198 0.36725 0.43428 0.0
H87 H 0.26114 0.31588 0.37758 0.0
C88 C 0.87556 0.16738 0.10462 0.0
C89 C 0.87731 0.11494 0.11032 0.0
C90 C 0.8441 0.1963 0.13493 0.0
C91 C 0.60768 0.32602 0.38147 0.0
C92 C 0.60982 0.37871 0.3796 0.0
C93 C 0.63765 0.29707 0.34973 0.0
H94 H 0.8458 0.05156 0.1506 0.0
H95 H 0.78953 0.10264 0.20292 0.0
H96 H 0.64366 0.44237 0.34184 0.0
H97 H 0.69532 0.39107 0.28487 0.0
C98 C 0.84534 0.09186 0.14551 0.0
C99 C 0.8134 0.12091 0.17547 0.0
C100 C 0.64133 0.40187 0.34407 0.0
C101 C 0.67086 0.37271 0.31174 0.0
C102 C 0.81337 0.17324 0.17075 0.0
C103 C 0.78247 0.20364 0.20294 0.0
C104 C 0.75725 0.23061 0.22904 0.0
C105 C 0.6696 0.32027 0.31512 0.0
C106 C 0.70155 0.28991 0.28392 0.0
C107 C 0.72755 0.26286 0.25866 0.0
H108 H 0.90012 0.18639 0.07832 0.0
H109 H 0.84449 0.23676 0.13101 0.0
H110 H 0.58441 0.30705 0.40897 0.0
H111 H 0.63649 0.25656 0.35286 0.0
C112 C 0.89718 0.85387 0.15576 0.0
C113 C 0.87923 0.87918 0.11313 0.0
C114 C 0.86517 0.82414 0.18449 0.0
C115 C 0.58798 0.63916 0.33975 0.0
C116 C 0.61072 0.61455 0.38058 0.0
C117 C 0.61716 0.66826 0.3069 0.0
H118 H 0.81393 0.8947 0.06716 0.0
H119 H 0.75683 0.84275 0.11877 0.0
H120 H 0.68131 0.60102 0.41913 0.0
H121 H 0.73149 0.65249 0.36248 0.0
C122 C 0.82843 0.87512 0.0998 0.0
C123 C 0.79605 0.84566 0.12914 0.0
C124 C 0.66286 0.61904 0.38759 0.0
C125 C 0.69162 0.6486 0.35544 0.0
C126 C 0.81454 0.81988 0.17136 0.0
C127 C 0.78205 0.78874 0.20132 0.0
C128 C 0.75591 0.76237 0.22721 0.0
C129 C 0.66892 0.67354 0.31519 0.0
C130 C 0.69895 0.70525 0.28332 0.0
C131 C 0.72523 0.73147 0.25742 0.0
H132 H 0.93638 0.85653 0.16634 0.0
H133 H 0.88004 0.80435 0.21685 0.0
H134 H 0.54795 0.63603 0.33342 0.0
H135 H 0.59927 0.68722 0.27561 0.0
C136 C 0.10436 0.826 0.10785 0.0
C137 C 0.10482 0.87867 0.11126 0.0
C138 C 0.13617 0.79714 0.13785 0.0
C139 C 0.37764 0.6665 0.37894 0.0
C140 C 0.37289 0.61392 0.37943 0.0
C141 C 0.34777 0.69557 0.34721 0.0
H142 H 0.14037 0.9424 0.1474 0.0
H143 H 0.19742 0.89131 0.19912 0.0
H144 H 0.33471 0.55052 0.3456 0.0
H145 H 0.28312 0.6019 0.2887 0.0
C146 C 0.13916 0.90192 0.14406 0.0
C147 C 0.17155 0.87288 0.17365 0.0
C148 C 0.339 0.59091 0.34607 0.0
C149 C 0.30952 0.62014 0.31378 0.0
C150 C 0.16949 0.8204 0.17114 0.0
C151 C 0.20072 0.79003 0.20313 0.0
C152 C 0.22599 0.76286 0.22903 0.0
C153 C 0.3133 0.67256 0.31493 0.0
C154 C 0.28138 0.70313 0.28385 0.0
C155 C 0.25553 0.73034 0.2586 0.0
H156 H 0.07789 0.80689 0.08354 0.0
H157 H 0.13408 0.75661 0.13568 0.0
H158 H 0.40291 0.68543 0.40465 0.0
H159 H 0.35095 0.73607 0.34857 0.0
C160 C 0.11897 0.89372 0.82629 0.0
C161 C 0.10585 0.8789 0.87556 0.0
C162 C 0.15047 0.86394 0.7968 0.0
C163 C 0.36297 0.59796 0.65472 0.0
C164 C 0.37334 0.61491 0.60575 0.0
C165 C 0.33349 0.62733 0.68707 0.0
H166 H 0.11801 0.8223 0.93304 0.0
H167 H 0.17385 0.77066 0.8812 0.0
H168 H 0.35996 0.6736 0.55116 0.0
H169 H 0.30783 0.72439 0.6074 0.0
C170 C 0.1271 0.83479 0.89533 0.0
C171 C 0.15882 0.80512 0.86573 0.0
C172 C 0.3533 0.66065 0.58926 0.0
C173 C 0.32339 0.68943 0.62115 0.0
C174 C 0.16986 0.81921 0.81615 0.0
C175 C 0.20039 0.78747 0.78479 0.0
C176 C 0.22594 0.76097 0.75846 0.0
C177 C 0.31345 0.67303 0.67014 0.0
C178 C 0.28239 0.70327 0.70245 0.0
C179 C 0.25623 0.72975 0.72819 0.0
H180 H 0.1035 0.92743 0.80966 0.0
H181 H 0.15883 0.87537 0.75855 0.0
H182 H 0.37762 0.56237 0.6678 0.0
H183 H 0.326 0.61427 0.72496 0.0
C184 C 0.10676 0.16651 0.88065 0.0
C185 C 0.10502 0.11409 0.87466 0.0
C186 C 0.13847 0.1956 0.85081 0.0
C187 C 0.37661 0.32459 0.60528 0.0
C188 C 0.37452 0.37724 0.60718 0.0
C189 C 0.3462 0.29576 0.63668 0.0
H190 H 0.13688 0.0509 0.83432 0.0
H191 H 0.19364 0.10232 0.78277 0.0
H192 H 0.34057 0.44107 0.64461 0.0
H193 H 0.28821 0.38999 0.70102 0.0
C194 C 0.13728 0.09118 0.8396 0.0
C195 C 0.16951 0.12042 0.81012 0.0
C196 C 0.34283 0.40055 0.64243 0.0
C197 C 0.31287 0.37154 0.6744 0.0
C198 C 0.16947 0.17274 0.81511 0.0
C199 C 0.20036 0.20337 0.78314 0.0
C200 C 0.22565 0.23035 0.75714 0.0
C201 C 0.31399 0.31911 0.67098 0.0
C202 C 0.2818 0.28897 0.70207 0.0
C203 C 0.2555 0.2623 0.72736 0.0
H204 H 0.08204 0.18541 0.90688 0.0
H205 H 0.13802 0.23603 0.85496 0.0
H206 H 0.40005 0.30561 0.57794 0.0
H207 H 0.34724 0.25525 0.63353 0.0
C208 C 0.82827 0.11727 0.88636 0.0
C209 C 0.87927 0.11389 0.87362 0.0
C210 C 0.79589 0.14663 0.85688 0.0
C211 C 0.66364 0.37566 0.59973 0.0
C212 C 0.61139 0.3796 0.60637 0.0
C213 C 0.69235 0.34566 0.63154 0.0
H214 H 0.9367 0.13754 0.82118 0.0
H215 H 0.88034 0.18951 0.77043 0.0
H216 H 0.54847 0.35691 0.65271 0.0
H217 H 0.59968 0.30507 0.70996 0.0
C218 C 0.89738 0.13974 0.83139 0.0
C219 C 0.86535 0.16934 0.8025 0.0
C220 C 0.58857 0.35421 0.64665 0.0
C221 C 0.61769 0.3247 0.67916 0.0
C222 C 0.81454 0.17295 0.81507 0.0
C223 C 0.78204 0.20398 0.78498 0.0
C224 C 0.75598 0.2303 0.75895 0.0
C225 C 0.66951 0.31983 0.67115 0.0
C226 C 0.69946 0.28782 0.70279 0.0
C227 C 0.72551 0.26131 0.72862 0.0
H228 H 0.81361 0.09722 0.91863 0.0
H229 H 0.75653 0.14903 0.86681 0.0
H230 H 0.68218 0.39432 0.56863 0.0
H231 H 0.73229 0.3421 0.62472 0.0
C232 C 0.86806 0.82763 0.88785 0.0
C233 C 0.87643 0.87841 0.87583 0.0
C234 C 0.83688 0.79808 0.85777 0.0
C235 C 0.61351 0.66711 0.59819 0.0
C236 C 0.60804 0.61534 0.60649 0.0
C237 C 0.64398 0.69592 0.62958 0.0
H238 H 0.85655 0.93837 0.82424 0.0
H239 H 0.80126 0.8864 0.77221 0.0
H240 H 0.62914 0.55313 0.65449 0.0
H241 H 0.68135 0.60457 0.71115 0.0
C242 C 0.85107 0.89942 0.83442 0.0
C243 C 0.81965 0.8698 0.80456 0.0
C244 C 0.63264 0.59301 0.64756 0.0
C245 C 0.66249 0.62219 0.67963 0.0
C246 C 0.81316 0.81892 0.81572 0.0
C247 C 0.78271 0.78784 0.78375 0.0
C248 C 0.75735 0.76121 0.75743 0.0
C249 C 0.66868 0.67357 0.67024 0.0
C250 C 0.70067 0.70357 0.70177 0.0
C251 C 0.72713 0.72989 0.72732 0.0
H252 H 0.88718 0.81007 0.91922 0.0
H253 H 0.83211 0.75872 0.86678 0.0
H254 H 0.59584 0.68498 0.56612 0.0
H255 H 0.64874 0.73551 0.62168 0.0
loop_
_geom_bond_atom_site_label_1
_geom_bond_atom_site_label_2
_geom_bond_distance
_geom_bond_site_symmetry_2
_ccdc_geom_bond_type
Fe0 O1 1.886 . S
Fe0 O4 1.715 1_554 S
Fe0 O9 2.077 . S
Fe0 O14 1.935 1_554 S
Fe0 O20 2.077 1_455 S
Fe0 O29 1.935 1_454 S
O1 Fe0 1.886 . S
O1 Fe3 1.715 1_565 S
Fe2 O4 1.886 . S
Fe2 O5 1.715 1_565 S
Fe2 O12 1.935 1_565 S
Fe2 O13 2.077 . S
Fe2 O19 1.935 1_465 S
Fe2 O28 2.077 1_455 S
Fe3 O1 1.715 1_545 S
Fe3 O6 1.886 . S
Fe3 O10 1.935 1_545 S
Fe3 O15 2.077 . S
Fe3 O21 1.935 1_445 S
Fe3 O25 2.077 1_455 S
O4 Fe0 1.715 1_556 S
O4 Fe2 1.886 . S
O5 Fe2 1.715 1_545 S
O5 Fe7 1.886 . S
O6 Fe3 1.886 . S
O6 Fe7 1.715 1_554 S
Fe7 O5 1.886 . S
Fe7 O6 1.715 1_556 S
Fe7 O11 2.077 . S
Fe7 O16 1.935 1_556 S
Fe7 O18 2.077 1_455 S
Fe7 O26 1.935 1_456 S
C8 O20 1.381 . S
C8 O21 1.421 . S
O9 Fe0 2.077 . S
O9 C22 1.381 . S
O10 Fe3 1.935 1_565 S
O10 C22 1.421 . S
O11 Fe7 2.077 . S
O11 C27 1.381 . S
O12 Fe2 1.935 1_545 S
O12 C27 1.421 . S
O13 Fe2 2.077 . S
O13 C17 1.381 . S
O14 Fe0 1.935 1_556 S
O14 C17 1.421 . S
O15 Fe3 2.077 . S
O15 C23 1.381 . S
O16 Fe7 1.935 1_554 S
O16 C23 1.421 . S
C17 O13 1.381 . S
C17 O14 1.421 . S
O18 Fe7 2.077 1_655 S
O18 C30 1.381 . S
O19 Fe2 1.935 1_645 S
O19 C30 1.421 . S
O20 Fe0 2.077 1_655 S
O20 C8 1.381 . S
O21 Fe3 1.935 1_665 S
O21 C8 1.421 . S
C22 O9 1.381 . S
C22 O10 1.421 . S
C23 O15 1.381 . S
C23 O16 1.421 . S
C24 O25 1.381 . S
C24 O26 1.421 . S
O25 Fe3 2.077 1_655 S
O25 C24 1.381 . S
O26 Fe7 1.935 1_654 S
O26 C24 1.421 . S
C27 O11 1.381 . S
C27 O12 1.421 . S
O28 Fe2 2.077 1_655 S
O28 C31 1.381 . S
O29 Fe0 1.935 1_656 S
O29 C31 1.421 . S
C30 O18 1.381 . S
C30 O19 1.421 . S
C31 O28 1.381 . S
C31 O29 1.421 . S
Fe32 O33 1.886 . S
Fe32 O36 1.715 . S
Fe32 O41 2.077 . S
Fe32 O46 1.935 . S
Fe32 O52 2.077 . S
Fe32 O61 1.935 . S
O33 Fe32 1.886 . S
O33 Fe35 1.715 . S
Fe34 O36 1.886 . S
Fe34 O37 1.715 . S
Fe34 O44 1.935 . S
Fe34 O45 2.077 . S
Fe34 O51 1.935 . S
Fe34 O60 2.077 . S
Fe35 O33 1.715 . S
Fe35 O38 1.886 . S
Fe35 O42 1.935 . S
Fe35 O47 2.077 . S
Fe35 O53 1.935 . S
Fe35 O57 2.077 . S
O36 Fe32 1.715 . S
O36 Fe34 1.886 . S
O37 Fe34 1.715 . S
O37 Fe39 1.886 . S
O38 Fe35 1.886 . S
O38 Fe39 1.715 . S
Fe39 O37 1.886 . S
Fe39 O38 1.715 . S
Fe39 O43 2.077 . S
Fe39 O48 1.935 . S
Fe39 O50 2.077 . S
Fe39 O58 1.935 . S
C40 O52 1.381 . S
C40 O53 1.421 . S
O41 Fe32 2.077 . S
O41 C54 1.381 . S
O42 Fe35 1.935 . S
O42 C54 1.421 . S
O43 Fe39 2.077 . S
O43 C59 1.381 . S
O44 Fe34 1.935 . S
O44 C59 1.421 . S
O45 Fe34 2.077 . S
O45 C49 1.381 . S
O46 Fe32 1.935 . S
O46 C49 1.421 . S
O47 Fe35 2.077 . S
O47 C55 1.381 . S
O48 Fe39 1.935 . S
O48 C55 1.421 . S
C49 O45 1.381 . S
C49 O46 1.421 . S
O50 Fe39 2.077 . S
O50 C62 1.381 . S
O51 Fe34 1.935 . S
O51 C62 1.421 . S
O52 Fe32 2.077 . S
O52 C40 1.381 . S
O53 Fe35 1.935 . S
O53 C40 1.421 . S
C54 O41 1.381 . S
C54 O42 1.421 . S
C55 O47 1.381 . S
C55 O48 1.421 . S
C56 O57 1.381 . S
C56 O58 1.421 . S
O57 Fe35 2.077 . S
O57 C56 1.381 . S
O58 Fe39 1.935 . S
O58 C56 1.421 . S
C59 O43 1.381 . S
C59 O44 1.421 . S
O60 Fe34 2.077 . S
O60 C63 1.381 . S
O61 Fe32 1.935 . S
O61 C63 1.421 . S
C62 O50 1.381 . S
C62 O51 1.421 . S
C63 O60 1.381 . S
C63 O61 1.421 . S
C64 C65 1.332 . S
C64 C66 1.345 . S
C64 H84 0.932 . S
C65 C64 1.332 . S
C65 C74 1.332 . S
C66 C64 1.345 . S
C66 C78 1.334 . S
C66 H85 0.928 . S
C67 C68 1.332 . S
C67 C69 1.345 . S
C67 H86 0.932 . S
C68 C67 1.332 . S
C68 C76 1.332 . S
C69 C67 1.345 . S
C69 C81 1.334 . S
C69 H87 0.928 . S
H70 C74 0.932 . S
H71 C75 0.928 . S
H72 C76 0.932 . S
H73 C77 0.928 . S
C74 C65 1.332 . S
C74 H70 0.932 . S
C74 C75 1.345 . S
C75 H71 0.928 . S
C75 C74 1.345 . S
C75 C78 1.334 . S
C76 C68 1.332 . S
C76 H72 0.932 . S
C76 C77 1.345 . S
C77 H73 0.928 . S
C77 C76 1.345 . S
C77 C81 1.334 . S
C78 C66 1.334 . S
C78 C75 1.334 . S
C78 C79 1.487 . S
C79 C78 1.487 . S
C79 C80 1.185 . S
C80 C79 1.185 . S
C80 C83 1.482 . S
C81 C69 1.334 . S
C81 C77 1.334 . S
C81 C82 1.487 . S
C82 C81 1.487 . S
C82 C83 1.185 . S
C83 C80 1.482 . S
C83 C82 1.185 . S
H84 C64 0.932 . S
H85 C66 0.928 . S
H86 C67 0.932 . S
H87 C69 0.928 . S
C88 C89 1.332 . S
C88 C90 1.345 . S
C88 H108 0.932 . S
C89 C88 1.332 . S
C89 C98 1.332 . S
C90 C88 1.345 . S
C90 C102 1.334 . S
C90 H109 0.928 . S
C91 C92 1.332 . S
C91 C93 1.345 . S
C91 H110 0.932 . S
C92 C91 1.332 . S
C92 C100 1.332 . S
C93 C91 1.345 . S
C93 C105 1.334 . S
C93 H111 0.928 . S
H94 C98 0.932 . S
H95 C99 0.928 . S
H96 C100 0.932 . S
H97 C101 0.928 . S
C98 C89 1.332 . S
C98 H94 0.932 . S
C98 C99 1.345 . S
C99 H95 0.928 . S
C99 C98 1.345 . S
C99 C102 1.334 . S
C100 C92 1.332 . S
C100 H96 0.932 . S
C100 C101 1.345 . S
C101 H97 0.928 . S
C101 C100 1.345 . S
C101 C105 1.334 . S
C102 C90 1.334 . S
C102 C99 1.334 . S
C102 C103 1.487 . S
C103 C102 1.487 . S
C103 C104 1.185 . S
C104 C103 1.185 . S
C104 C107 1.482 . S
C105 C93 1.334 . S
C105 C101 1.334 . S
C105 C106 1.487 . S
C106 C105 1.487 . S
C106 C107 1.185 . S
C107 C104 1.482 . S
C107 C106 1.185 . S
H108 C88 0.932 . S
H109 C90 0.928 . S
H110 C91 0.932 . S
H111 C93 0.928 . S
C112 C113 1.332 . S
C112 C114 1.345 . S
C112 H132 0.932 . S
C113 C112 1.332 . S
C113 C122 1.332 . S
C114 C112 1.345 . S
C114 C126 1.334 . S
C114 H133 0.928 . S
C115 C116 1.332 . S
C115 C117 1.345 . S
C115 H134 0.932 . S
C116 C115 1.332 . S
C116 C124 1.332 . S
C117 C115 1.345 . S
C117 C129 1.334 . S
C117 H135 0.928 . S
H118 C122 0.932 . S
H119 C123 0.928 . S
H120 C124 0.932 . S
H121 C125 0.928 . S
C122 C113 1.332 . S
C122 H118 0.932 . S
C122 C123 1.345 . S
C123 H119 0.928 . S
C123 C122 1.345 . S
C123 C126 1.334 . S
C124 C116 1.332 . S
C124 H120 0.932 . S
C124 C125 1.345 . S
C125 H121 0.928 . S
C125 C124 1.345 . S
C125 C129 1.334 . S
C126 C114 1.334 . S
C126 C123 1.334 . S
C126 C127 1.487 . S
C127 C126 1.487 . S
C127 C128 1.185 . S
C128 C127 1.185 . S
C128 C131 1.482 . S
C129 C117 1.334 . S
C129 C125 1.334 . S
C129 C130 1.487 . S
C130 C129 1.487 . S
C130 C131 1.185 . S
C131 C128 1.482 . S
C131 C130 1.185 . S
H132 C112 0.932 . S
H133 C114 0.928 . S
H134 C115 0.932 . S
H135 C117 0.928 . S
C136 C137 1.332 . S
C136 C138 1.345 . S
C136 H156 0.932 . S
C137 C136 1.332 . S
C137 C146 1.332 . S
C138 C136 1.345 . S
C138 C150 1.334 . S
C138 H157 0.928 . S
C139 C140 1.332 . S
C139 C141 1.345 . S
C139 H158 0.932 . S
C140 C139 1.332 . S
C140 C148 1.332 . S
C141 C139 1.345 . S
C141 C153 1.334 . S
C141 H159 0.928 . S
H142 C146 0.932 . S
H143 C147 0.928 . S
H144 C148 0.932 . S
H145 C149 0.928 . S
C146 C137 1.332 . S
C146 H142 0.932 . S
C146 C147 1.345 . S
C147 H143 0.928 . S
C147 C146 1.345 . S
C147 C150 1.334 . S
C148 C140 1.332 . S
C148 H144 0.932 . S
C148 C149 1.345 . S
C149 H145 0.928 . S
C149 C148 1.345 . S
C149 C153 1.334 . S
C150 C138 1.334 . S
C150 C147 1.334 . S
C150 C151 1.487 . S
C151 C150 1.487 . S
C151 C152 1.185 . S
C152 C151 1.185 . S
C152 C155 1.482 . S
C153 C141 1.334 . S
C153 C149 1.334 . S
C153 C154 1.487 . S
C154 C153 1.487 . S
C154 C155 1.185 . S
C155 C152 1.482 . S
C155 C154 1.185 . S
H156 C136 0.932 . S
H157 C138 0.928 . S
H158 C139 0.932 . S
H159 C141 0.928 . S
C160 C161 1.332 . S
C160 C162 1.345 . S
C160 H180 0.932 . S
C161 C160 1.332 . S
C161 C170 1.332 . S
C162 C160 1.345 . S
C162 C174 1.334 . S
C162 H181 0.928 . S
C163 C164 1.332 . S
C163 C165 1.345 . S
C163 H182 0.932 . S
C164 C163 1.332 . S
C164 C172 1.332 . S
C165 C163 1.345 . S
C165 C177 1.334 . S
C165 H183 0.928 . S
H166 C170 0.932 . S
H167 C171 0.928 . S
H168 C172 0.932 . S
H169 C173 0.928 . S
C170 C161 1.332 . S
C170 H166 0.932 . S
C170 C171 1.345 . S
C171 H167 0.928 . S
C171 C170 1.345 . S
C171 C174 1.334 . S
C172 C164 1.332 . S
C172 H168 0.932 . S
C172 C173 1.345 . S
C173 H169 0.928 . S
C173 C172 1.345 . S
C173 C177 1.334 . S
C174 C162 1.334 . S
C174 C171 1.334 . S
C174 C175 1.487 . S
C175 C174 1.487 . S
C175 C176 1.185 . S
C176 C175 1.185 . S
C176 C179 1.482 . S
C177 C165 1.334 . S
C177 C173 1.334 . S
C177 C178 1.487 . S
C178 C177 1.487 . S
C178 C179 1.185 . S
C179 C176 1.482 . S
C179 C178 1.185 . S
H180 C160 0.932 . S
H181 C162 0.928 . S
H182 C163 0.932 . S
H183 C165 0.928 . S
C184 C185 1.332 . S
C184 C186 1.345 . S
C184 H204 0.932 . S
C185 C184 1.332 . S
C185 C194 1.332 . S
C186 C184 1.345 . S
C186 C198 1.334 . S
C186 H205 0.928 . S
C187 C188 1.332 . S
C187 C189 1.345 . S
C187 H206 0.932 . S
C188 C187 1.332 . S
C188 C196 1.332 . S
C189 C187 1.345 . S
C189 C201 1.334 . S
C189 H207 0.928 . S
H190 C194 0.932 . S
H191 C195 0.928 . S
H192 C196 0.932 . S
H193 C197 0.928 . S
C194 C185 1.332 . S
C194 H190 0.932 . S
C194 C195 1.345 . S
C195 H191 0.928 . S
C195 C194 1.345 . S
C195 C198 1.334 . S
C196 C188 1.332 . S
C196 H192 0.932 . S
C196 C197 1.345 . S
C197 H193 0.928 . S
C197 C196 1.345 . S
C197 C201 1.334 . S
C198 C186 1.334 . S
C198 C195 1.334 . S
C198 C199 1.487 . S
C199 C198 1.487 . S
C199 C200 1.185 . S
C200 C199 1.185 . S
C200 C203 1.482 . S
C201 C189 1.334 . S
C201 C197 1.334 . S
C201 C202 1.487 . S
C202 C201 1.487 . S
C202 C203 1.185 . S
C203 C200 1.482 . S
C203 C202 1.185 . S
H204 C184 0.932 . S
H205 C186 0.928 . S
H206 C187 0.932 . S
H207 C189 0.928 . S
C208 C209 1.332 . S
C208 C210 1.345 . S
C208 H228 0.932 . S
C209 C208 1.332 . S
C209 C218 1.332 . S
C210 C208 1.345 . S
C210 C222 1.334 . S
C210 H229 0.928 . S
C211 C212 1.332 . S
C211 C213 1.345 . S
C211 H230 0.932 . S
C212 C211 1.332 . S
C212 C220 1.332 . S
C213 C211 1.345 . S
C213 C225 1.334 . S
C213 H231 0.928 . S
H214 C218 0.932 . S
H215 C219 0.928 . S
H216 C220 0.932 . S
H217 C221 0.928 . S
C218 C209 1.332 . S
C218 H214 0.932 . S
C218 C219 1.345 . S
C219 H215 0.928 . S
C219 C218 1.345 . S
C219 C222 1.334 . S
C220 C212 1.332 . S
C220 H216 0.932 . S
C220 C221 1.345 . S
C221 H217 0.928 . S
C221 C220 1.345 . S
C221 C225 1.334 . S
C222 C210 1.334 . S
C222 C219 1.334 . S
C222 C223 1.487 . S
C223 C222 1.487 . S
C223 C224 1.185 . S
C224 C223 1.185 . S
C224 C227 1.482 . S
C225 C213 1.334 . S
C225 C221 1.334 . S
C225 C226 1.487 . S
C226 C225 1.487 . S
C226 C227 1.185 . S
C227 C224 1.482 . S
C227 C226 1.185 . S
H228 C208 0.932 . S
H229 C210 0.928 . S
H230 C211 0.932 . S
H231 C213 0.928 . S
C232 C233 1.332 . S
C232 C234 1.345 . S
C232 H252 0.932 . S
C233 C232 1.332 . S
C233 C242 1.332 . S
C234 C232 1.345 . S
C234 C246 1.334 . S
C234 H253 0.928 . S
C235 C236 1.332 . S
C235 C237 1.345 . S
C235 H254 0.932 . S
C236 C235 1.332 . S
C236 C244 1.332 . S
C237 C235 1.345 . S
C237 C249 1.334 . S
C237 H255 0.928 . S
H238 C242 0.932 . S
H239 C243 0.928 . S
H240 C244 0.932 . S
H241 C245 0.928 . S
C242 C233 1.332 . S
C242 H238 0.932 . S
C242 C243 1.345 . S
C243 H239 0.928 . S
C243 C242 1.345 . S
C243 C246 1.334 . S
C244 C236 1.332 . S
C244 H240 0.932 . S
C244 C245 1.345 . S
C245 H241 0.928 . S
C245 C244 1.345 . S
C245 C249 1.334 . S
C246 C234 1.334 . S
C246 C243 1.334 . S
C246 C247 1.487 . S
C247 C246 1.487 . S
C247 C248 1.185 . S
C248 C247 1.185 . S
C248 C251 1.482 . S
C249 C237 1.334 . S
C249 C245 1.334 . S
C249 C250 1.487 . S
C250 C249 1.487 . S
C250 C251 1.185 . S
C251 C248 1.482 . S
C251 C250 1.185 . S
H252 C232 0.932 . S
H253 C234 0.928 . S
H254 C235 0.932 . S
H255 C237 0.928 . S
C65 C23 1.452 . S
C68 C55 1.447 . S
C89 C24 1.452 . S
C92 C59 1.450 . S
C113 C8 1.452 . S
C116 C49 1.452 . S
C137 C22 1.452 . S
C140 C54 1.450 . S
C161 C17 1.452 . S
C164 C40 1.454 . S
C188 C56 1.452 . S
C185 C27 1.450 . S
C209 C30 1.452 . S
C212 C62 1.454 . S
C236 C63 1.452 . S
C233 C31 1.456 . S
