# Generated by pormake.
# Topology nia, (6,6)-cn, num edge types: 1
# Building blocks:
#     Node 0, Type 0, BuildingBlock: BETFAJ_clean_sbu_0, # of connection points: 6
#     Node 1, Type 0, BuildingBlock: BETFAJ_clean_sbu_0, # of connection points: 6
#     Node 2, Type 1, BuildingBlock: MIDCAF_clean_sbu_0, # of connection points: 6
#     Node 3, Type 1, BuildingBlock: MIDCAF_clean_sbu_0, # of connection points: 6
#     Edge 4, Type (0, 1), BuildingBlock: OJICUG_clean_linker_0, # of connection points: 2
#     Edge 5, Type (0, 1), BuildingBlock: OJICUG_clean_linker_0, # of connection points: 2
#     Edge 6, Type (0, 1), BuildingBlock: OJICUG_clean_linker_0, # of connection points: 2
#     Edge 7, Type (0, 1), BuildingBlock: OJICUG_clean_linker_0, # of connection points: 2
#     Edge 8, Type (0, 1), BuildingBlock: OJICUG_clean_linker_0, # of connection points: 2
#     Edge 9, Type (0, 1), BuildingBlock: OJICUG_clean_linker_0, # of connection points: 2
#     Edge 10, Type (0, 1), BuildingBlock: OJICUG_clean_linker_0, # of connection points: 2
#     Edge 11, Type (0, 1), BuildingBlock: OJICUG_clean_linker_0, # of connection points: 2
#     Edge 12, Type (0, 1), BuildingBlock: OJICUG_clean_linker_0, # of connection points: 2
#     Edge 13, Type (0, 1), BuildingBlock: OJICUG_clean_linker_0, # of connection points: 2
#     Edge 14, Type (0, 1), BuildingBlock: OJICUG_clean_linker_0, # of connection points: 2
#     Edge 15, Type (0, 1), BuildingBlock: OJICUG_clean_linker_0, # of connection points: 2
# Relax obj value: 0.384
# Max RMSD: 0.284
# Mean RMSD: 0.266
data_MOF--net-nia--node1-BETFAJ_clean_sbu_0--node2-MIDCAF_clean_sbu_0--edge1-OJICUG_clean_linker_0
_symmetry_space_group_name_H-M    P1
_symmetry_Int_Tables_number       1
_symmetry_cell_setting            triclinic
loop_
_symmetry_equiv_pos_as_xyz
'x, y, z'
_cell_length_a     19.05697
_cell_length_b     22.526486
_cell_length_c     26.385644
_cell_angle_alpha  60.762838
_cell_angle_beta   106.86514
_cell_angle_gamma 129.3862
loop_
_atom_site_label
_atom_site_type_symbol
_atom_site_fract_x
_atom_site_fract_y
_atom_site_fract_z
_atom_type_partial_charge
Sm0 Sm 0.09595 0.05494 0.07177 0.0
Sm1 Sm 0.99132 0.91493 0.04105 0.0
C2 C 0.19785 0.19885 0.0826 0.0
C3 C 0.18464 0.23547 0.10899 0.0
C4 C 0.20506 0.31603 0.07615 0.0
C5 C 0.19839 0.35389 0.10162 0.0
C6 C 0.17198 0.3119 0.1605 0.0
C7 C 0.14823 0.22996 0.19281 0.0
C8 C 0.15378 0.19166 0.16713 0.0
C9 C 0.93401 0.92522 0.1376 0.0
C10 C 0.95106 0.05105 0.97114 0.0
C11 C 0.88944 0.77098 1.03026 0.0
C12 C 0.90254 0.73411 1.00405 0.0
C13 C 0.88203 0.65352 1.03706 0.0
C14 C 0.8884 0.61534 1.01172 0.0
C15 C 0.91459 0.65704 0.95283 0.0
C16 C 0.93851 0.73902 0.92037 0.0
C17 C 0.93326 0.77764 0.94592 0.0
C18 C 0.15337 0.0447 0.97542 0.0
C19 C 0.13623 0.91879 0.1416 0.0
O20 O 0.15268 0.19037 1.0358 0.0
O21 O 0.19948 0.13437 0.1184 0.0
O22 O 0.94399 0.94952 0.0844 0.0
O23 O 1.01084 0.9717 0.15779 0.0
O24 O 0.03563 0.10153 0.98392 0.0
O25 O 0.90992 0.96923 0.99778 0.0
O26 O 0.93449 0.77946 0.07709 0.0
O27 O 0.88801 0.83554 0.99434 0.0
O28 O 0.14325 0.02012 1.02864 0.0
O29 O 0.07657 -0.00155 0.95508 0.0
O30 O 0.05164 0.8683 0.12886 0.0
O31 O 0.17733 0.0006 0.115 0.0
H32 H 0.22848 0.35055 1.03124 0.0
H33 H 0.21839 0.41772 0.07607 0.0
H34 H 0.12767 0.19656 0.23825 0.0
H35 H 0.13617 0.12873 0.19326 0.0
H36 H 0.85871 0.61921 0.08198 0.0
H37 H 0.86831 0.55149 1.03738 0.0
H38 H 0.95892 0.7722 0.87492 0.0
H39 H 0.95093 0.84057 0.91966 0.0
Sm40 Sm 0.99255 0.01682 0.55607 0.0
Sm41 Sm 0.0927 0.95237 0.55854 0.0
C42 C 0.9405 0.10485 0.54982 0.0
C43 C 0.93168 0.13586 0.58359 0.0
C44 C 0.92478 0.20298 0.55346 0.0
C45 C 0.91124 0.23155 0.58356 0.0
C46 C 0.90471 0.1938 0.64471 0.0
C47 C 0.913 0.12697 0.67501 0.0
C48 C 0.92666 0.09829 0.64461 0.0
C49 C 0.9122 0.84842 0.62789 0.0
C50 C 0.92797 0.93428 0.46697 0.0
C51 C 0.14594 0.86793 0.5598 0.0
C52 C 0.16025 0.84794 0.51958 0.0
C53 C 0.24819 0.89378 0.49823 0.0
C54 C 0.26421 0.87006 0.46525 0.0
C55 C 0.19278 0.7994 0.45338 0.0
C56 C 0.10422 0.75547 0.47278 0.0
C57 C 0.08807 0.77944 0.50556 0.0
C58 C 0.17199 0.12052 0.4861 0.0
C59 C 0.1555 0.03225 0.64886 0.0
O60 O 0.88555 0.02367 0.56415 0.0
O61 O 0.02278 0.13924 0.53587 0.0
O62 O 0.99634 0.90618 0.62337 0.0
O63 O 0.86739 0.8793 0.59647 0.0
O64 O 0.93759 -0.00631 0.47321 0.0
O65 O 0.9725 0.90192 0.49957 0.0
O66 O 0.20218 0.9459 0.55442 0.0
O67 O 0.06227 0.83283 0.57168 0.0
O68 O 0.08807 0.06227 0.49097 0.0
O69 O 0.21723 0.09021 0.51759 0.0
O70 O 0.14487 0.9724 0.64254 0.0
O71 O 0.11207 0.06575 0.61598 0.0
H72 H 0.92802 0.23235 0.50637 0.0
H73 H 0.90306 0.28174 0.55861 0.0
H74 H 0.90866 0.0968 0.72204 0.0
H75 H 0.9321 0.04633 0.66856 0.0
H76 H 0.30538 0.94635 0.50871 0.0
H77 H 0.33342 0.90433 0.4518 0.0
H78 H 0.0478 0.70096 0.46407 0.0
H79 H 0.01948 0.74263 0.52137 0.0
Zn80 Zn 0.40443 0.72973 0.19881 0.0
Zn81 Zn 0.41576 0.60907 0.41757 0.0
Zn82 Zn 0.41401 0.66982 0.30597 0.0
C83 C 0.59573 0.73945 0.3757 0.0
C84 C 0.33622 0.47337 0.39517 0.0
O85 O 0.34528 0.73393 0.27525 0.0
O86 O 0.38321 0.81257 0.18185 0.0
C87 C 0.58039 0.77625 0.21699 0.0
O88 O 0.55884 0.73949 0.32635 0.0
O89 O 0.54789 0.69021 0.42195 0.0
O90 O 0.37001 0.49406 0.43744 0.0
O91 O 0.34191 0.52868 0.34367 0.0
O92 O 0.5232 0.7703 0.17733 0.0
O93 O 0.55632 0.75065 0.26883 0.0
O94 O 0.33287 0.56279 0.28278 0.0
O95 O 0.29885 0.62149 0.19354 0.0
C96 C 0.2892 0.5569 0.23602 0.0
O97 O 0.34955 0.70179 0.33641 0.0
O98 O 0.3341 0.62599 0.43134 0.0
C99 C 0.34536 0.78987 0.2262 0.0
C100 C 0.32056 0.67525 0.38682 0.0
Zn101 Zn 0.68276 0.23932 0.91388 0.0
Zn102 Zn 0.66868 0.3597 0.69598 0.0
Zn103 Zn 0.6729 0.29969 0.80681 0.0
C104 C 0.7463 0.49497 0.71824 0.0
C105 C 0.49017 0.2272 0.73812 0.0
O106 O 0.74205 0.23604 0.83675 0.0
O107 O 0.70396 0.15668 0.93008 0.0
C108 C 0.79738 0.41213 0.87698 0.0
O109 O 0.74405 0.44071 0.76934 0.0
O110 O 0.7099 0.47327 0.67648 0.0
O111 O 0.53739 0.27594 0.69164 0.0
O112 O 0.52768 0.22885 0.78708 0.0
O113 O 0.78832 0.34761 0.91918 0.0
O114 O 0.75343 0.40633 0.83028 0.0
O115 O 0.53067 0.21819 0.84439 0.0
O116 O 0.56409 0.19845 0.93589 0.0
C117 C 0.50675 0.19248 0.89631 0.0
O118 O 0.73938 0.26995 0.77577 0.0
O119 O 0.75444 0.34783 0.68121 0.0
C120 C 0.7418 0.17973 0.88559 0.0
C121 C 0.76945 0.29904 0.72502 0.0
C122 C 0.14939 0.79967 0.20916 0.0
C123 C 0.19077 0.88621 0.17497 0.0
H124 H 0.16778 0.70115 0.25474 0.0
C125 C 0.28584 0.94139 0.16693 0.0
H126 H 0.07639 0.75571 0.2163 0.0
C127 C 0.3373 0.91008 0.18781 0.0
C128 C 0.29535 0.8233 0.2187 0.0
H129 H 0.32013 0.0084 0.14087 0.0
H130 H 0.40941 0.95335 0.17714 0.0
C131 C 0.20161 0.76853 0.23148 0.0
C132 C 0.27439 0.03681 0.72266 0.0
C133 C 0.22697 0.07104 0.68698 0.0
H134 H 0.39643 0.06044 0.76911 0.0
C135 C 0.25821 0.15012 0.68069 0.0
H136 H 0.25157 -0.02428 0.72878 0.0
C137 C 0.34105 0.19833 0.7035 0.0
C138 C 0.3925 0.16733 0.73409 0.0
H139 H 0.22309 0.17817 0.65382 0.0
H140 H 0.36835 0.26242 0.69323 0.0
C141 C 0.35677 0.08478 0.7462 0.0
C142 C 0.14929 0.40793 0.16305 0.0
C143 C 0.18145 0.35841 0.18933 0.0
H144 H 0.15642 0.50881 0.15892 0.0
C145 C 0.23595 0.36434 0.23812 0.0
H146 H 0.10663 0.40382 0.12559 0.0
C147 C 0.26548 0.42502 0.25663 0.0
C148 C 0.23945 0.4794 0.22736 0.0
H149 H 0.26249 0.32746 0.25865 0.0
H150 H 0.31517 0.43422 0.29022 0.0
C151 C 0.17775 0.46778 0.18215 0.0
C152 C 0.92197 0.30786 0.65404 0.0
C153 C 0.88415 0.22207 0.67535 0.0
H154 H 0.91498 0.39918 0.65356 0.0
C155 C 0.81881 0.16341 0.72123 0.0
H156 H 0.97428 0.35504 0.61997 0.0
C157 C 0.78624 0.18931 0.74148 0.0
C158 C 0.8181 0.27395 0.71575 0.0
H159 H 0.78821 0.09684 0.73864 0.0
H160 H 0.73138 0.14232 0.77384 0.0
C161 C 0.88859 0.33333 0.67355 0.0
C162 C 0.83546 0.88011 0.21447 0.0
C163 C 0.84419 0.87946 0.16349 0.0
H164 H 0.74535 0.84864 0.27163 0.0
C165 C 0.76559 0.8403 0.13351 0.0
H166 H 0.89498 0.91019 0.23845 0.0
C167 C 0.68104 0.80583 0.15224 0.0
C168 C 0.67179 0.80885 0.20184 0.0
H169 H 0.76959 0.83817 0.09435 0.0
H170 H 0.62259 0.77752 0.127 0.0
C171 C 0.74981 0.84486 0.23356 0.0
C172 C 0.92097 0.72549 0.69067 0.0
C173 C 0.86956 0.75687 0.65906 0.0
H174 H 0.92129 0.61595 0.73598 0.0
C175 C 0.77604 0.69972 0.65402 0.0
H176 H 0.99324 0.76823 0.69531 0.0
C177 C 0.7356 0.61373 0.67692 0.0
C178 C 0.78722 0.58248 0.70624 0.0
H179 H 0.73447 0.72172 0.63016 0.0
H180 H 0.66417 0.57171 0.66975 0.0
C181 C 0.87991 0.63861 0.71427 0.0
C182 C 0.27665 0.81973 0.38144 0.0
C183 C 0.21298 0.76569 0.42779 0.0
H184 H 0.36036 0.83293 0.33143 0.0
C185 C 0.17658 0.67972 0.45467 0.0
H186 H 0.30546 0.8862 0.35973 0.0
C187 C 0.20791 0.64959 0.43852 0.0
C188 C 0.27539 0.70443 0.39468 0.0
H189 H 0.12818 0.6366 0.49085 0.0
H190 H 0.18222 0.58391 0.4622 0.0
C191 C 0.30734 0.78918 0.36481 0.0
C192 C 0.32175 0.12857 0.97995 0.0
C193 C 0.24319 0.09007 0.94971 0.0
H194 H 0.46462 0.1905 0.98675 0.0
C195 C 0.25188 0.08956 0.89866 0.0
H196 H 0.31778 0.13054 1.0192 0.0
C197 C 0.33743 0.1244 0.8797 0.0
C198 C 0.41541 0.15988 0.9116 0.0
H199 H 0.1924 0.05994 0.8745 0.0
H200 H 0.34181 0.12076 0.84156 0.0
C201 C 0.40621 0.16264 0.96135 0.0
C202 C 0.30768 0.26941 0.45913 0.0
C203 C 0.21411 0.21192 0.45447 0.0
H204 H 0.41921 0.39763 0.44298 0.0
C205 C 0.16231 0.24287 0.42289 0.0
H206 H 0.34956 0.24774 0.4829 0.0
C207 C 0.20299 0.32969 0.39916 0.0
C208 C 0.29571 0.38612 0.40694 0.0
H209 H 0.09003 0.19985 0.41848 0.0
H210 H 0.16134 0.35206 0.37759 0.0
C211 C 0.34777 0.35533 0.43602 0.0
C212 C 0.93816 0.17032 0.90339 0.0
C213 C 0.89667 0.0837 0.93732 0.0
H214 H 0.91977 0.26884 0.85776 0.0
C215 C 0.80148 0.02845 0.9446 0.0
H216 H 1.01126 0.21436 0.8968 0.0
C217 C 0.74992 0.0597 0.92332 0.0
C218 C 0.79192 0.14652 0.89279 0.0
H219 H 0.76709 0.96137 0.97041 0.0
H220 H 0.67765 0.01632 0.93353 0.0
C221 C 0.88588 0.20142 0.88067 0.0
C222 C 0.82596 0.81564 0.43593 0.0
C223 C 0.85706 0.89505 0.42886 0.0
H224 H 0.71657 0.70325 0.42332 0.0
C225 C 0.81047 0.92961 0.39191 0.0
H226 H 0.86046 0.78733 0.46382 0.0
C227 C 0.72902 0.88181 0.36763 0.0
C228 C 0.69325 0.79901 0.3804 0.0
H229 H 0.83328 -0.00903 0.38518 0.0
H230 H 0.68988 0.90648 0.34362 0.0
C231 C 0.74396 0.76756 0.41246 0.0
C232 C 0.84991 0.60411 0.87547 0.0
C233 C 0.9047 0.61021 0.92412 0.0
H234 H 0.77051 0.53419 0.82342 0.0
C235 C 0.93692 0.56075 0.95031 0.0
H236 H 0.82325 0.6409 0.85505 0.0
C237 C 0.90848 0.50097 0.93114 0.0
C238 C 0.84671 0.48933 0.88595 0.0
H239 H 0.97974 0.56494 0.9877 0.0
H240 H 0.93 0.46007 0.95423 0.0
C241 C 0.82037 0.54348 0.85691 0.0
loop_
_geom_bond_atom_site_label_1
_geom_bond_atom_site_label_2
_geom_bond_distance
_geom_bond_site_symmetry_2
_ccdc_geom_bond_type
Sm0 C2 2.846 . S
Sm0 O20 2.543 . S
Sm0 O21 2.450 . S
Sm0 O22 2.681 1_445 S
Sm0 O23 2.464 1_445 S
Sm0 O24 2.396 . S
Sm0 O28 2.386 1_554 S
Sm0 O31 2.408 1_545 S
Sm1 C11 2.846 . S
Sm1 O22 2.386 1_556 S
Sm1 O25 2.408 1_565 S
Sm1 O26 2.543 . S
Sm1 O27 2.450 . S
Sm1 O28 2.681 1_665 S
Sm1 O29 2.464 1_665 S
Sm1 O30 2.396 1_656 S
C2 Sm0 2.846 . S
C2 C3 1.506 . S
C2 O20 1.261 . S
C2 O21 1.242 . S
C3 C2 1.506 . S
C3 C4 1.358 . S
C3 C8 1.382 . S
C4 C3 1.358 . S
C4 C5 1.385 . S
C4 H32 0.930 . S
C5 C4 1.385 . S
C5 C6 1.395 . S
C5 H33 0.929 . S
C6 C5 1.395 . S
C6 C7 1.335 . S
C7 C6 1.335 . S
C7 C8 1.398 . S
C7 H34 0.930 . S
C8 C3 1.382 . S
C8 C7 1.398 . S
C8 H35 0.929 . S
C9 O22 1.271 . S
C9 O23 1.251 . S
C10 O24 1.252 1_656 S
C10 O25 1.272 . S
C11 Sm1 2.846 . S
C11 C12 1.506 . S
C11 O26 1.261 . S
C11 O27 1.242 . S
C12 C11 1.506 . S
C12 C13 1.358 . S
C12 C17 1.382 . S
C13 C12 1.358 . S
C13 C14 1.385 . S
C13 H36 0.930 1_556 S
C14 C13 1.385 . S
C14 C15 1.395 . S
C14 H37 0.929 1_556 S
C15 C14 1.395 . S
C15 C16 1.335 . S
C16 C15 1.335 . S
C16 C17 1.398 . S
C16 H38 0.930 . S
C17 C12 1.382 . S
C17 C16 1.398 . S
C17 H39 0.929 . S
C18 O28 1.271 . S
C18 O29 1.251 . S
C19 O30 1.252 . S
C19 O31 1.272 . S
O20 Sm0 2.543 . S
O20 C2 1.261 . S
O21 Sm0 2.450 . S
O21 C2 1.242 . S
O22 Sm0 2.681 1_665 S
O22 Sm1 2.386 1_554 S
O22 C9 1.271 . S
O23 Sm0 2.464 1_665 S
O23 C9 1.251 . S
O24 Sm0 2.396 . S
O24 C10 1.252 1_454 S
O25 Sm1 2.408 1_545 S
O25 C10 1.272 . S
O26 Sm1 2.543 . S
O26 C11 1.261 . S
O27 Sm1 2.450 . S
O27 C11 1.242 . S
O28 Sm0 2.386 1_556 S
O28 Sm1 2.681 1_445 S
O28 C18 1.271 . S
O29 Sm1 2.464 1_445 S
O29 C18 1.251 . S
O30 Sm1 2.396 1_454 S
O30 C19 1.252 . S
O31 Sm0 2.408 1_565 S
O31 C19 1.272 . S
H32 C4 0.930 . S
H33 C5 0.929 . S
H34 C7 0.930 . S
H35 C8 0.929 . S
H36 C13 0.930 1_554 S
H37 C14 0.929 1_554 S
H38 C16 0.930 . S
H39 C17 0.929 . S
Sm40 C42 2.846 1_455 S
Sm40 O60 2.543 1_455 S
Sm40 O61 2.450 1_455 S
Sm40 O62 2.681 1_545 S
Sm40 O63 2.464 1_445 S
Sm40 O64 2.396 1_445 S
Sm40 O68 2.386 . S
Sm40 O71 2.408 . S
Sm41 C51 2.846 . S
Sm41 O62 2.386 . S
Sm41 O65 2.408 1_455 S
Sm41 O66 2.543 . S
Sm41 O67 2.450 1_565 S
Sm41 O68 2.681 1_565 S
Sm41 O69 2.464 1_565 S
Sm41 O70 2.396 1_565 S
C42 Sm40 2.846 1_655 S
C42 C43 1.506 . S
C42 O60 1.261 . S
C42 O61 1.242 . S
C43 C42 1.506 . S
C43 C44 1.358 . S
C43 C48 1.382 . S
C44 C43 1.358 . S
C44 C45 1.385 . S
C44 H72 0.930 . S
C45 C44 1.385 . S
C45 C46 1.395 . S
C45 H73 0.929 . S
C46 C45 1.395 . S
C46 C47 1.335 . S
C47 C46 1.335 . S
C47 C48 1.398 . S
C47 H74 0.930 1_545 S
C48 C43 1.382 . S
C48 C47 1.398 . S
C48 H75 0.929 1_545 S
C49 O62 1.271 1_655 S
C49 O63 1.251 . S
C50 O64 1.252 . S
C50 O65 1.272 . S
C51 Sm41 2.846 . S
C51 C52 1.506 . S
C51 O66 1.261 . S
C51 O67 1.242 1_565 S
C52 C51 1.506 . S
C52 C53 1.358 . S
C52 C57 1.382 1_565 S
C53 C52 1.358 . S
C53 C54 1.385 . S
C53 H76 0.930 . S
C54 C53 1.385 . S
C54 C55 1.395 . S
C54 H77 0.929 . S
C55 C54 1.395 . S
C55 C56 1.335 1_565 S
C56 C55 1.335 1_545 S
C56 C57 1.398 . S
C56 H78 0.930 . S
C57 C52 1.382 1_545 S
C57 C56 1.398 . S
C57 H79 0.929 . S
C58 O68 1.271 . S
C58 O69 1.251 . S
C59 O70 1.252 . S
C59 O71 1.272 . S
O60 Sm40 2.543 1_655 S
O60 C42 1.261 . S
O61 Sm40 2.450 1_655 S
O61 C42 1.242 . S
O62 Sm40 2.681 1_565 S
O62 Sm41 2.386 . S
O62 C49 1.271 1_455 S
O63 Sm40 2.464 1_665 S
O63 C49 1.251 . S
O64 Sm40 2.396 1_665 S
O64 C50 1.252 . S
O65 Sm41 2.408 1_655 S
O65 C50 1.272 . S
O66 Sm41 2.543 . S
O66 C51 1.261 . S
O67 Sm41 2.450 1_545 S
O67 C51 1.242 1_545 S
O68 Sm40 2.386 . S
O68 Sm41 2.681 1_545 S
O68 C58 1.271 . S
O69 Sm41 2.464 1_545 S
O69 C58 1.251 . S
O70 Sm41 2.396 1_545 S
O70 C59 1.252 . S
O71 Sm40 2.408 . S
O71 C59 1.272 . S
H72 C44 0.930 . S
H73 C45 0.929 . S
H74 C47 0.930 1_565 S
H75 C48 0.929 1_565 S
H76 C53 0.930 . S
H77 C54 0.929 . S
H78 C56 0.930 . S
H79 C57 0.929 . S
Zn80 O86 1.920 . S
Zn80 O92 1.898 . S
Zn80 O95 1.905 . S
Zn81 O89 1.905 . S
Zn81 O90 1.898 . S
Zn81 O98 1.920 . S
Zn82 O85 2.080 . S
Zn82 O88 2.114 . S
Zn82 O91 2.120 . S
Zn82 O93 2.120 . S
Zn82 O94 2.114 . S
Zn82 O97 2.080 . S
C83 O88 1.166 . S
C83 O89 1.182 . S
C84 O90 1.167 . S
C84 O91 1.299 . S
O85 Zn82 2.080 . S
O85 C99 1.305 . S
O86 Zn80 1.920 . S
O86 C99 1.234 . S
C87 O92 1.167 . S
C87 O93 1.299 . S
O88 Zn82 2.114 . S
O88 C83 1.166 . S
O89 Zn81 1.905 . S
O89 C83 1.182 . S
O90 Zn81 1.898 . S
O90 C84 1.167 . S
O91 Zn82 2.120 . S
O91 C84 1.299 . S
O92 Zn80 1.898 . S
O92 C87 1.167 . S
O93 Zn82 2.120 . S
O93 C87 1.299 . S
O94 Zn82 2.114 . S
O94 C96 1.166 . S
O95 Zn80 1.905 . S
O95 C96 1.182 . S
C96 O94 1.166 . S
C96 O95 1.182 . S
O97 Zn82 2.080 . S
O97 C100 1.305 . S
O98 Zn81 1.920 . S
O98 C100 1.234 . S
C99 O85 1.305 . S
C99 O86 1.234 . S
C100 O97 1.305 . S
C100 O98 1.234 . S
Zn101 O107 1.920 . S
Zn101 O113 1.898 . S
Zn101 O116 1.905 . S
Zn102 O110 1.905 . S
Zn102 O111 1.898 . S
Zn102 O119 1.920 . S
Zn103 O106 2.080 . S
Zn103 O109 2.114 . S
Zn103 O112 2.120 . S
Zn103 O114 2.120 . S
Zn103 O115 2.114 . S
Zn103 O118 2.080 . S
C104 O109 1.166 . S
C104 O110 1.182 . S
C105 O111 1.167 . S
C105 O112 1.299 . S
O106 Zn103 2.080 . S
O106 C120 1.305 . S
O107 Zn101 1.920 . S
O107 C120 1.234 . S
C108 O113 1.167 . S
C108 O114 1.299 . S
O109 Zn103 2.114 . S
O109 C104 1.166 . S
O110 Zn102 1.905 . S
O110 C104 1.182 . S
O111 Zn102 1.898 . S
O111 C105 1.167 . S
O112 Zn103 2.120 . S
O112 C105 1.299 . S
O113 Zn101 1.898 . S
O113 C108 1.167 . S
O114 Zn103 2.120 . S
O114 C108 1.299 . S
O115 Zn103 2.114 . S
O115 C117 1.166 . S
O116 Zn101 1.905 . S
O116 C117 1.182 . S
C117 O115 1.166 . S
C117 O116 1.182 . S
O118 Zn103 2.080 . S
O118 C121 1.305 . S
O119 Zn102 1.920 . S
O119 C121 1.234 . S
C120 O106 1.305 . S
C120 O107 1.234 . S
C121 O118 1.305 . S
C121 O119 1.234 . S
C122 C123 1.387 . S
C122 H126 0.950 . S
C122 C131 1.390 . S
C123 C122 1.387 . S
C123 C125 1.387 . S
H124 C131 0.950 . S
C125 C123 1.387 . S
C125 C127 1.390 . S
C125 H129 0.950 . S
H126 C122 0.950 . S
C127 C125 1.390 . S
C127 C128 1.387 . S
C127 H130 0.950 . S
C128 C127 1.387 . S
C128 C131 1.387 . S
H129 C125 0.950 . S
H130 C127 0.950 . S
C131 C122 1.390 . S
C131 H124 0.950 . S
C131 C128 1.387 . S
C132 C133 1.387 . S
C132 H136 0.950 1_545 S
C132 C141 1.390 . S
C133 C132 1.387 . S
C133 C135 1.387 . S
H134 C141 0.950 . S
C135 C133 1.387 . S
C135 C137 1.390 . S
C135 H139 0.950 . S
H136 C132 0.950 1_565 S
C137 C135 1.390 . S
C137 C138 1.387 . S
C137 H140 0.950 . S
C138 C137 1.387 . S
C138 C141 1.387 . S
H139 C135 0.950 . S
H140 C137 0.950 . S
C141 C132 1.390 . S
C141 H134 0.950 . S
C141 C138 1.387 . S
C142 C143 1.387 . S
C142 H146 0.950 . S
C142 C151 1.390 . S
C143 C142 1.387 . S
C143 C145 1.387 . S
H144 C151 0.950 . S
C145 C143 1.387 . S
C145 C147 1.390 . S
C145 H149 0.950 . S
H146 C142 0.950 . S
C147 C145 1.390 . S
C147 C148 1.387 . S
C147 H150 0.950 . S
C148 C147 1.387 . S
C148 C151 1.387 . S
H149 C145 0.950 . S
H150 C147 0.950 . S
C151 C142 1.390 . S
C151 H144 0.950 . S
C151 C148 1.387 . S
C152 C153 1.387 . S
C152 H156 0.950 . S
C152 C161 1.390 . S
C153 C152 1.387 . S
C153 C155 1.387 . S
H154 C161 0.950 . S
C155 C153 1.387 . S
C155 C157 1.390 . S
C155 H159 0.950 . S
H156 C152 0.950 . S
C157 C155 1.390 . S
C157 C158 1.387 . S
C157 H160 0.950 . S
C158 C157 1.387 . S
C158 C161 1.387 . S
H159 C155 0.950 . S
H160 C157 0.950 . S
C161 C152 1.390 . S
C161 H154 0.950 . S
C161 C158 1.387 . S
C162 C163 1.387 . S
C162 H166 0.950 1_565 S
C162 C171 1.390 . S
C163 C162 1.387 . S
C163 C165 1.387 . S
H164 C171 0.950 1_545 S
C165 C163 1.387 . S
C165 C167 1.390 . S
C165 H169 0.950 . S
H166 C162 0.950 1_545 S
C167 C165 1.390 . S
C167 C168 1.387 . S
C167 H170 0.950 . S
C168 C167 1.387 . S
C168 C171 1.387 . S
H169 C165 0.950 . S
H170 C167 0.950 . S
C171 C162 1.390 . S
C171 H164 0.950 1_565 S
C171 C168 1.387 . S
C172 C173 1.387 . S
C172 H176 0.950 . S
C172 C181 1.390 . S
C173 C172 1.387 . S
C173 C175 1.387 . S
H174 C181 0.950 . S
C175 C173 1.387 . S
C175 C177 1.390 . S
C175 H179 0.950 . S
H176 C172 0.950 . S
C177 C175 1.390 . S
C177 C178 1.387 . S
C177 H180 0.950 . S
C178 C177 1.387 . S
C178 C181 1.387 . S
H179 C175 0.950 . S
H180 C177 0.950 . S
C181 C172 1.390 . S
C181 H174 0.950 . S
C181 C178 1.387 . S
C182 C183 1.387 . S
C182 H186 0.950 . S
C182 C191 1.390 . S
C183 C182 1.387 . S
C183 C185 1.387 . S
H184 C191 0.950 . S
C185 C183 1.387 . S
C185 C187 1.390 . S
C185 H189 0.950 . S
H186 C182 0.950 . S
C187 C185 1.390 . S
C187 C188 1.387 . S
C187 H190 0.950 . S
C188 C187 1.387 . S
C188 C191 1.387 . S
H189 C185 0.950 . S
H190 C187 0.950 . S
C191 C182 1.390 . S
C191 H184 0.950 . S
C191 C188 1.387 . S
C192 C193 1.387 . S
C192 H196 0.950 . S
C192 C201 1.390 . S
C193 C192 1.387 . S
C193 C195 1.387 . S
H194 C201 0.950 . S
C195 C193 1.387 . S
C195 C197 1.390 . S
C195 H199 0.950 . S
H196 C192 0.950 . S
C197 C195 1.390 . S
C197 C198 1.387 . S
C197 H200 0.950 . S
C198 C197 1.387 . S
C198 C201 1.387 . S
H199 C195 0.950 . S
H200 C197 0.950 . S
C201 C192 1.390 . S
C201 H194 0.950 . S
C201 C198 1.387 . S
C202 C203 1.387 . S
C202 H206 0.950 . S
C202 C211 1.390 . S
C203 C202 1.387 . S
C203 C205 1.387 . S
H204 C211 0.950 . S
C205 C203 1.387 . S
C205 C207 1.390 . S
C205 H209 0.950 . S
H206 C202 0.950 . S
C207 C205 1.390 . S
C207 C208 1.387 . S
C207 H210 0.950 . S
C208 C207 1.387 . S
C208 C211 1.387 . S
H209 C205 0.950 . S
H210 C207 0.950 . S
C211 C202 1.390 . S
C211 H204 0.950 . S
C211 C208 1.387 . S
C212 C213 1.387 . S
C212 H216 0.950 . S
C212 C221 1.390 . S
C213 C212 1.387 . S
C213 C215 1.387 . S
H214 C221 0.950 . S
C215 C213 1.387 . S
C215 C217 1.390 . S
C215 H219 0.950 . S
H216 C212 0.950 . S
C217 C215 1.390 . S
C217 C218 1.387 . S
C217 H220 0.950 . S
C218 C217 1.387 . S
C218 C221 1.387 . S
H219 C215 0.950 . S
H220 C217 0.950 . S
C221 C212 1.390 . S
C221 H214 0.950 . S
C221 C218 1.387 . S
C222 C223 1.387 . S
C222 H226 0.950 . S
C222 C231 1.390 . S
C223 C222 1.387 . S
C223 C225 1.387 . S
H224 C231 0.950 . S
C225 C223 1.387 . S
C225 C227 1.390 . S
C225 H229 0.950 . S
H226 C222 0.950 . S
C227 C225 1.390 . S
C227 C228 1.387 . S
C227 H230 0.950 . S
C228 C227 1.387 . S
C228 C231 1.387 . S
H229 C225 0.950 . S
H230 C227 0.950 . S
C231 C222 1.390 . S
C231 H224 0.950 . S
C231 C228 1.387 . S
C232 C233 1.387 . S
C232 H236 0.950 . S
C232 C241 1.390 . S
C233 C232 1.387 . S
C233 C235 1.387 . S
H234 C241 0.950 . S
C235 C233 1.387 . S
C235 C237 1.390 . S
C235 H239 0.950 . S
H236 C232 0.950 . S
C237 C235 1.390 . S
C237 C238 1.387 . S
C237 H240 0.950 . S
C238 C237 1.387 . S
C238 C241 1.387 . S
H239 C235 0.950 . S
H240 C237 0.950 . S
C241 C232 1.390 . S
C241 H234 0.950 . S
C241 C238 1.387 . S
C123 C19 1.899 . S
C128 C99 1.902 . S
C133 C59 1.300 . S
C138 C105 1.218 . S
C143 C6 1.102 . S
C148 C96 0.970 . S
C153 C46 1.651 . S
C158 C121 1.483 . S
C163 C9 2.166 . S
C168 C87 2.062 . S
C178 C104 2.315 . S
C173 C49 2.362 . S
C183 C55 1.422 . S
C188 C100 1.331 . S
C198 C117 1.743 . S
C193 C18 1.785 . S
C208 C84 2.106 . S
C203 C58 2.175 . S
C218 C120 2.186 . S
C213 C10 2.169 . S
C228 C83 1.558 . S
C223 C50 1.634 . S
C238 C108 0.940 . S
C233 C15 1.070 . S
