# Generated by pormake.
# Topology scu, (8,4)-cn, num edge types: 1
# Building blocks:
#     Node 0, Type 0, BuildingBlock: GIZVER_clean_sbu_0, # of connection points: 8
#     Node 1, Type 1, BuildingBlock: ESEHIV_clean_sbu_0, # of connection points: 4
#     Node 2, Type 1, BuildingBlock: ESEHIV_clean_sbu_0, # of connection points: 4
#     Edge 3, Type (0, 1), BuildingBlock: CIFDUS_clean_linker_0, # of connection points: 2
#     Edge 4, Type (0, 1), BuildingBlock: CIFDUS_clean_linker_0, # of connection points: 2
#     Edge 5, Type (0, 1), BuildingBlock: CIFDUS_clean_linker_0, # of connection points: 2
#     Edge 6, Type (0, 1), BuildingBlock: CIFDUS_clean_linker_0, # of connection points: 2
#     Edge 7, Type (0, 1), BuildingBlock: CIFDUS_clean_linker_0, # of connection points: 2
#     Edge 8, Type (0, 1), BuildingBlock: CIFDUS_clean_linker_0, # of connection points: 2
#     Edge 9, Type (0, 1), BuildingBlock: CIFDUS_clean_linker_0, # of connection points: 2
#     Edge 10, Type (0, 1), BuildingBlock: CIFDUS_clean_linker_0, # of connection points: 2
# Relax obj value: 0.030
# Max RMSD: 0.140
# Mean RMSD: 0.114
data_MOF--net-scu--node1-GIZVER_clean_sbu_0--node2-ESEHIV_clean_sbu_0--edge1-CIFDUS_clean_linker_0
_symmetry_space_group_name_H-M    P1
_symmetry_Int_Tables_number       1
_symmetry_cell_setting            triclinic
loop_
_symmetry_equiv_pos_as_xyz
'x, y, z'
_cell_length_a     22.15968
_cell_length_b     23.032646
_cell_length_c     19.455332
_cell_angle_alpha  103.47295
_cell_angle_beta   84.623067
_cell_angle_gamma 113.37237
loop_
_atom_site_label
_atom_site_type_symbol
_atom_site_fract_x
_atom_site_fract_y
_atom_site_fract_z
_atom_type_partial_charge
Co0 Co 0.02555 0.96239 0.16552 0.0
Co1 Co 0.07254 0.08009 0.20423 0.0
Co2 Co 1.01233 0.06266 0.05887 0.0
O3 O 0.0616 0.03218 0.11461 0.0
H4 H 0.10358 0.0348 0.09353 0.0
O5 O 0.96617 0.09609 1.00381 0.0
Co6 Co 1.00685 0.13076 0.92248 0.0
Co7 Co 0.90432 0.03564 0.94051 0.0
H8 H 0.94717 0.12378 1.03483 0.0
O9 O 0.15457 0.10886 0.23898 0.0
O10 O 0.06389 1.02261 0.25814 0.0
O11 O 0.02724 0.13796 0.22875 0.0
O12 O 0.04497 0.154 0.11919 0.0
O13 O 0.09136 0.08531 0.99592 0.0
O14 O 0.04287 0.16921 0.85083 0.0
O15 O 0.98155 0.19877 0.94024 0.0
O16 O 0.04185 0.06576 0.8945 0.0
O17 O 0.98135 0.97155 0.99884 0.0
O18 O 0.90826 0.95157 0.91577 0.0
O19 O 0.92669 0.07463 0.8635 0.0
O20 O 0.83162 0.05034 0.92564 0.0
C21 C 0.05489 0.89508 0.18959 0.0
C22 C 0.91281 1.00467 0.16667 0.0
C23 C 0.03095 0.17162 0.18416 0.0
C24 C 0.12612 0.06048 0.27019 0.0
C25 C 0.01661 0.20965 0.88324 0.0
C26 C 0.08677 0.06378 0.92912 0.0
C27 C 0.94487 0.93429 0.94589 0.0
C28 C 0.8665 0.07211 0.87275 0.0
O29 O 0.99756 0.89658 0.20785 0.0
O30 O 0.09545 0.93732 0.15473 0.0
O31 O 0.93144 0.03858 0.11955 0.0
O32 O 0.94739 0.97765 0.18411 0.0
Cu33 Cu 0.0725 0.59402 0.55559 0.0
N34 N 0.11104 0.56213 0.61211 0.0
N35 N 0.11375 0.49333 0.67501 0.0
C36 C 0.08252 0.50169 0.62419 0.0
C37 C 0.16439 0.55039 0.69562 0.0
C38 C 0.163 0.59271 0.6562 0.0
O39 O 0.02399 0.5187 0.48368 0.0
C40 C 0.04147 0.67396 0.67033 0.0
O41 O 0.1039 0.69045 0.6829 0.0
H42 H 0.03775 0.46537 0.59854 0.0
H43 H 0.19606 0.64286 0.6614 0.0
N44 N 0.1315 0.6584 0.51064 0.0
N45 N 0.16267 0.72404 0.43367 0.0
C46 C 0.11174 0.6841 0.46603 0.0
C47 C 0.19759 0.68356 0.50764 0.0
C48 C 0.217 0.72434 0.4604 0.0
C49 C 0.0514 0.50504 0.42499 0.0
O50 O 0.10959 0.54604 0.41057 0.0
H51 H 0.06044 0.67231 0.45678 0.0
H52 H 0.2293 0.67144 0.53576 0.0
O53 O 0.01546 0.63117 0.6153 0.0
H54 H 0.19932 0.56081 0.73662 0.0
H55 H 0.2671 0.75023 0.44522 0.0
Cu56 Cu 0.48739 1.00227 0.54395 0.0
N57 N 0.41896 0.95717 0.59953 0.0
N58 N 0.33086 0.94133 0.67025 0.0
C59 C 0.36533 0.97095 0.61877 0.0
C60 C 0.36434 0.90793 0.68495 0.0
C61 C 0.41876 0.91774 0.64104 0.0
O62 O 0.44987 0.04533 0.4952 0.0
C63 C 0.61918 0.07385 0.60322 0.0
O64 O 0.64232 0.06489 0.53883 0.0
H65 H 0.35453 1.00627 0.59961 0.0
H66 H 0.45762 0.90083 0.64253 0.0
N67 N 0.51701 0.94667 0.47634 0.0
N68 N 0.58221 0.91508 0.39412 0.0
C69 C 0.56393 0.96414 0.42711 0.0
C70 C 0.503 0.88364 0.47249 0.0
C71 C 0.54299 0.86404 0.422 0.0
C72 C 0.39708 1.00762 0.46119 0.0
O73 O 0.37645 0.94502 0.45736 0.0
H74 H 0.58722 1.01315 0.41911 0.0
H75 H 0.46832 0.85472 0.50626 0.0
O76 O 0.55737 0.05757 0.61277 0.0
H77 H 0.35188 0.88073 0.72629 0.0
H78 H 0.54459 0.81637 0.40901 0.0
H79 H 0.96654 0.20801 0.30022 0.0
H80 H 0.08953 0.2798 0.12852 0.0
H81 H 0.0995 0.39003 0.18442 0.0
H82 H 0.08483 0.46684 0.28942 0.0
H83 H 0.96189 0.39453 0.46106 0.0
H84 H 0.93924 0.2834 0.39712 0.0
C85 C 0.99494 0.24775 0.27467 0.0
C86 C 0.0285 0.23615 0.21121 0.0
C87 C 1.00056 0.31079 0.30717 0.0
C88 C 0.06376 0.28765 0.1777 0.0
C89 C 0.06965 0.35067 0.20978 0.0
C90 C 0.05207 0.42671 0.31225 0.0
C91 C 0.02586 0.43892 0.38032 0.0
C92 C 0.04 0.36299 0.27561 0.0
C93 C 0.98278 0.38651 0.40882 0.0
C94 C 0.97024 0.32293 0.37252 0.0
H95 H 0.84249 0.91122 0.23876 0.0
H96 H 0.83746 0.07643 0.17468 0.0
H97 H 0.73271 0.0616 0.23686 0.0
H98 H 0.64395 1.00306 0.31242 0.0
H99 H 0.65162 0.83839 0.37574 0.0
H100 H 0.75286 0.85101 0.30963 0.0
C101 C 0.81866 0.94417 0.23833 0.0
C102 C 0.84827 0.99522 0.20245 0.0
C103 C 0.75842 0.93515 0.27372 0.0
C104 C 0.81593 0.03672 0.20179 0.0
C105 C 0.75601 0.0283 0.23746 0.0
C106 C 0.6677 0.96994 0.3119 0.0
C107 C 0.63955 0.91987 0.34964 0.0
C108 C 0.72697 0.97789 0.27409 0.0
C109 C 0.67095 0.87688 0.34695 0.0
C110 C 0.72953 0.8844 0.3095 0.0
H111 H 0.17497 0.91061 0.23655 0.0
H112 H 0.97424 0.77442 0.20067 0.0
H113 H 0.99213 0.70589 0.26797 0.0
H114 H 0.0594 0.69116 0.34867 0.0
H115 H 0.25767 0.8303 0.39491 0.0
H116 H 0.24702 0.88929 0.31017 0.0
C117 C 0.13582 0.86513 0.24212 0.0
C118 C 0.07309 0.84801 0.21437 0.0
C119 C 0.14565 0.82686 0.28381 0.0
C120 C 0.02276 0.789 0.22209 0.0
C121 C 0.03279 0.74992 0.261 0.0
C122 C 0.10026 0.73481 0.34132 0.0
C123 C 0.15865 0.75685 0.38006 0.0
C124 C 0.09306 0.76976 0.29458 0.0
C125 C 0.21183 0.81215 0.36665 0.0
C126 C 0.20563 0.84629 0.31839 0.0
H127 H 0.25732 0.12408 0.29587 0.0
H128 H 0.08555 0.96986 0.35287 0.0
H129 H 0.15444 0.94355 0.42168 0.0
H130 H 0.26454 0.95807 0.4564 0.0
H131 H 0.4358 0.11294 0.40078 0.0
H132 H 0.36578 0.14553 0.34049 0.0
C133 C 0.23459 0.08495 0.32371 0.0
C134 C 0.16622 0.04826 0.31806 0.0
C135 C 0.27456 0.06983 0.36267 0.0
C136 C 0.13793 0.99848 0.35555 0.0
C137 C 0.17738 0.98338 0.39489 0.0
C138 C 0.28646 0.99919 0.4313 0.0
C139 C 0.35529 0.03242 0.43166 0.0
C140 C 0.24589 1.01758 0.39715 0.0
C141 C 0.38303 0.08649 0.40067 0.0
C142 C 0.343 0.10486 0.36605 0.0
H143 H 0.89047 0.84916 0.82282 0.0
H144 H 0.02488 0.88532 0.98971 0.0
H145 H 0.06229 0.80336 0.92058 0.0
H146 H 0.0671 0.73162 0.80759 0.0
H147 H 0.93402 0.6944 0.63974 0.0
H148 H 0.8854 0.76614 0.71477 0.0
C149 C 0.92685 0.83816 0.84488 0.0
C150 C 0.95531 0.8743 0.9112 0.0
C151 C 0.94907 0.79135 0.80428 0.0
C152 C 1.00223 0.85887 0.93878 0.0
C153 C 0.02407 0.81214 0.89906 0.0
C154 C 0.02687 0.73858 0.78769 0.0
C155 C 1.00477 0.70861 0.71796 0.0
C156 C 0.99952 0.77983 0.83089 0.0
C157 C 0.95194 0.71711 0.69323 0.0
C158 C 0.92439 0.75834 0.73602 0.0
H159 H 0.09646 1.02198 0.78724 0.0
H160 H 0.18194 0.04111 0.98591 0.0
H161 H 0.26117 0.99811 0.92323 0.0
H162 H 0.31131 0.96202 0.81116 0.0
H163 H 0.22883 0.9483 0.61334 0.0
H164 H 0.14294 0.98151 0.67627 0.0
C165 C 0.1322 1.01657 0.81701 0.0
C166 C 0.13352 0.03552 0.89127 0.0
C167 C 0.1782 0.99261 0.78062 0.0
C168 C 0.18006 1.02762 0.92875 0.0
C169 C 0.22539 1.00286 0.89292 0.0
C170 C 0.27368 0.96515 0.78211 0.0
C171 C 0.27611 0.95271 0.70783 0.0
C172 C 0.22557 0.98606 0.8188 0.0
C173 C 0.22783 0.95793 0.67056 0.0
C174 C 0.17894 0.97703 0.70651 0.0
H175 H 0.03478 0.22051 0.74649 0.0
H176 H 0.02499 0.32922 0.95703 0.0
H177 H 0.05654 0.42805 0.91146 0.0
H178 H 0.09111 0.48444 0.81127 0.0
H179 H 0.09203 0.37334 0.60041 0.0
H180 H 0.06025 0.27453 0.64607 0.0
C181 C 0.03918 0.26581 0.78232 0.0
C182 C 0.0281 0.26774 0.85511 0.0
C183 C 0.05637 0.32203 0.75557 0.0
C184 C 0.03302 0.32648 0.90078 0.0
C185 C 0.0515 0.38305 0.87477 0.0
C186 C 0.08445 0.43844 0.77576 0.0
C187 C 0.09476 0.43585 0.70281 0.0
C188 C 0.06415 0.3816 0.80236 0.0
C189 C 0.08467 0.37609 0.65671 0.0
C190 C 0.06649 0.31981 0.68283 0.0
H191 H 0.74802 0.08282 0.88206 0.0
H192 H 0.91254 0.09288 0.74097 0.0
H193 H 0.85303 0.1019 0.64684 0.0
H194 H 0.74984 0.09543 0.6013 0.0
H195 H 0.58547 0.08444 0.74315 0.0
H196 H 0.64986 0.0883 0.8403 0.0
C197 C 0.77122 0.0875 0.83091 0.0
C198 C 0.83423 0.08582 0.81831 0.0
C199 C 0.73662 0.09237 0.77696 0.0
C200 C 0.86385 0.09325 0.75204 0.0
C201 C 0.82976 0.09834 0.69808 0.0
C202 C 0.72837 0.09504 0.65371 0.0
C203 C 0.66242 0.08887 0.66442 0.0
C204 C 0.76544 0.09626 0.70941 0.0
C205 C 0.63583 0.0888 0.73298 0.0
C206 C 0.67256 0.09067 0.78865 0.0
loop_
_geom_bond_atom_site_label_1
_geom_bond_atom_site_label_2
_geom_bond_distance
_geom_bond_site_symmetry_2
_ccdc_geom_bond_type
Co0 O3 2.042 . S
Co0 O10 2.264 1_565 S
Co0 O29 2.286 1_455 S
Co0 O30 2.069 . S
Co0 O32 2.015 1_455 S
Co1 O3 2.122 1_545 S
Co1 O9 2.073 . S
Co1 O10 2.327 . S
Co1 O11 1.976 . S
Co2 O3 2.087 1_545 S
Co2 O5 2.087 1_454 S
Co2 O12 2.111 . S
Co2 O13 2.143 1_554 S
Co2 O17 2.111 1_444 S
Co2 O31 2.143 1_445 S
O3 Co0 2.042 . S
O3 Co1 2.122 1_565 S
O3 Co2 2.087 1_565 S
O3 H4 0.980 . S
H4 O3 0.980 . S
O5 Co2 2.087 1_656 S
O5 Co6 2.042 1_655 S
O5 Co7 2.122 1_545 S
O5 H8 0.980 . S
Co6 O5 2.042 1_455 S
Co6 O14 2.286 . S
Co6 O15 2.069 1_455 S
Co6 O16 2.015 . S
Co6 O19 2.264 1_455 S
Co7 O5 2.122 1_565 S
Co7 O18 1.976 . S
Co7 O19 2.327 1_565 S
Co7 O20 2.073 . S
H8 O5 0.980 . S
O9 Co1 2.073 . S
O9 C24 1.245 . S
O10 Co0 2.264 1_545 S
O10 Co1 2.327 . S
O10 C24 1.257 . S
O11 Co1 1.976 . S
O11 C23 1.251 . S
O12 Co2 2.111 . S
O12 C23 1.274 . S
O13 Co2 2.143 1_556 S
O13 C26 1.246 . S
O14 Co6 2.286 . S
O14 C25 1.259 1_455 S
O15 Co6 2.069 1_655 S
O15 C25 1.289 . S
O16 Co6 2.015 . S
O16 C26 1.257 . S
O17 Co2 2.111 1_666 S
O17 C27 1.274 . S
O18 Co7 1.976 . S
O18 C27 1.251 . S
O19 Co6 2.264 1_655 S
O19 Co7 2.327 1_545 S
O19 C28 1.257 . S
O20 Co7 2.073 . S
O20 C28 1.245 1_565 S
C21 O29 1.259 1_455 S
C21 O30 1.289 . S
C22 O31 1.246 . S
C22 O32 1.257 . S
C23 O11 1.251 . S
C23 O12 1.274 . S
C24 O9 1.245 . S
C24 O10 1.257 . S
C25 O14 1.259 1_655 S
C25 O15 1.289 . S
C26 O13 1.246 . S
C26 O16 1.257 . S
C27 O17 1.274 . S
C27 O18 1.251 . S
C28 O19 1.257 . S
C28 O20 1.245 1_545 S
O29 Co0 2.286 1_655 S
O29 C21 1.259 1_655 S
O30 Co0 2.069 . S
O30 C21 1.289 . S
O31 Co2 2.143 1_665 S
O31 C22 1.246 . S
O32 Co0 2.015 1_655 S
O32 C22 1.257 . S
Cu33 N34 1.999 . S
Cu33 O39 1.974 . S
Cu33 N44 1.985 . S
Cu33 O53 1.959 . S
N34 Cu33 1.999 . S
N34 C36 1.263 . S
N34 C38 1.389 . S
N35 C36 1.358 . S
N35 C37 1.400 . S
C36 N34 1.263 . S
C36 N35 1.358 . S
C36 H42 0.930 1_655 S
C37 N35 1.400 . S
C37 C38 1.351 . S
C37 H54 0.930 . S
C38 N34 1.389 . S
C38 C37 1.351 . S
C38 H43 0.930 . S
O39 Cu33 1.974 . S
O39 C49 1.282 1_655 S
C40 O41 1.261 . S
C40 O53 1.251 1_455 S
O41 C40 1.261 . S
H42 C36 0.930 1_455 S
H43 C38 0.930 . S
N44 Cu33 1.985 . S
N44 C46 1.335 . S
N44 C47 1.390 1_655 S
N45 C46 1.345 . S
N45 C48 1.336 1_655 S
C46 N44 1.335 . S
C46 N45 1.345 . S
C46 H51 0.930 . S
C47 N44 1.390 1_455 S
C47 C48 1.346 . S
C47 H52 0.930 . S
C48 N45 1.336 1_455 S
C48 C47 1.346 . S
C48 H55 0.929 . S
C49 O39 1.282 1_455 S
C49 O50 1.216 . S
O50 C49 1.216 . S
H51 C46 0.930 . S
H52 C47 0.930 . S
O53 Cu33 1.959 . S
O53 C40 1.251 1_655 S
H54 C37 0.930 . S
H55 C48 0.929 . S
Cu56 N57 1.999 . S
Cu56 O62 1.974 . S
Cu56 N67 1.985 . S
Cu56 O76 1.959 . S
N57 Cu56 1.999 . S
N57 C59 1.263 . S
N57 C61 1.389 . S
N58 C59 1.358 . S
N58 C60 1.400 . S
C59 N57 1.263 . S
C59 N58 1.358 . S
C59 H65 0.930 . S
C60 N58 1.400 . S
C60 C61 1.351 . S
C60 H77 0.930 . S
C61 N57 1.389 . S
C61 C60 1.351 . S
C61 H66 0.930 . S
O62 Cu56 1.974 . S
O62 C72 1.282 1_545 S
C63 O64 1.261 . S
C63 O76 1.251 1_565 S
O64 C63 1.261 . S
H65 C59 0.930 . S
H66 C61 0.930 . S
N67 Cu56 1.985 . S
N67 C69 1.335 . S
N67 C70 1.390 . S
N68 C69 1.345 . S
N68 C71 1.336 . S
C69 N67 1.335 . S
C69 N68 1.345 . S
C69 H74 0.930 . S
C70 N67 1.390 . S
C70 C71 1.346 . S
C70 H75 0.930 1_545 S
C71 N68 1.336 . S
C71 C70 1.346 . S
C71 H78 0.929 1_545 S
C72 O62 1.282 1_565 S
C72 O73 1.216 . S
O73 C72 1.216 . S
H74 C69 0.930 . S
H75 C70 0.930 1_565 S
O76 Cu56 1.959 . S
O76 C63 1.251 1_545 S
H77 C60 0.930 . S
H78 C71 0.929 1_565 S
H79 C85 0.930 . S
H80 C88 0.930 . S
H81 C89 0.930 . S
H82 C90 0.930 . S
H83 C93 0.930 . S
H84 C94 0.930 . S
C85 H79 0.930 . S
C85 C86 1.355 1_655 S
C85 C87 1.415 1_655 S
C86 C85 1.355 1_455 S
C86 C88 1.419 . S
C87 C85 1.415 1_455 S
C87 C92 1.426 . S
C87 C94 1.408 1_455 S
C88 H80 0.930 . S
C88 C86 1.419 . S
C88 C89 1.362 . S
C89 H81 0.930 . S
C89 C88 1.362 . S
C89 C92 1.409 . S
C90 H82 0.930 . S
C90 C91 1.355 . S
C90 C92 1.415 . S
C91 C90 1.355 . S
C91 C93 1.419 1_455 S
C92 C87 1.426 . S
C92 C89 1.409 . S
C92 C90 1.415 . S
C93 H83 0.930 . S
C93 C91 1.419 1_655 S
C93 C94 1.362 . S
C94 H84 0.930 . S
C94 C87 1.408 1_655 S
C94 C93 1.362 . S
H95 C101 0.930 . S
H96 C104 0.930 . S
H97 C105 0.930 . S
H98 C106 0.930 . S
H99 C109 0.930 . S
H100 C110 0.930 . S
C101 H95 0.930 . S
C101 C102 1.355 . S
C101 C103 1.415 . S
C102 C101 1.355 . S
C102 C104 1.419 . S
C103 C101 1.415 . S
C103 C108 1.425 . S
C103 C110 1.409 . S
C104 H96 0.930 . S
C104 C102 1.419 . S
C104 C105 1.362 . S
C105 H97 0.930 . S
C105 C104 1.362 . S
C105 C108 1.409 . S
C106 H98 0.930 . S
C106 C107 1.355 . S
C106 C108 1.415 . S
C107 C106 1.355 . S
C107 C109 1.419 . S
C108 C103 1.425 . S
C108 C105 1.409 . S
C108 C106 1.415 . S
C109 H99 0.930 . S
C109 C107 1.419 . S
C109 C110 1.362 . S
C110 H100 0.930 . S
C110 C103 1.409 . S
C110 C109 1.362 . S
H111 C117 0.930 . S
H112 C120 0.930 . S
H113 C121 0.930 . S
H114 C122 0.930 . S
H115 C125 0.930 . S
H116 C126 0.930 . S
C117 H111 0.930 . S
C117 C118 1.355 . S
C117 C119 1.415 . S
C118 C117 1.355 . S
C118 C120 1.419 1_455 S
C119 C117 1.415 . S
C119 C124 1.425 1_455 S
C119 C126 1.409 . S
C120 H112 0.930 . S
C120 C118 1.419 1_655 S
C120 C121 1.362 . S
C121 H113 0.930 . S
C121 C120 1.362 . S
C121 C124 1.409 . S
C122 H114 0.930 . S
C122 C123 1.347 1_655 S
C122 C124 1.415 . S
C123 C122 1.347 1_455 S
C123 C125 1.426 . S
C124 C119 1.425 1_655 S
C124 C121 1.409 . S
C124 C122 1.415 . S
C125 H115 0.930 . S
C125 C123 1.426 . S
C125 C126 1.362 . S
C126 H116 0.930 . S
C126 C119 1.409 . S
C126 C125 1.362 . S
H127 C133 0.930 . S
H128 C136 0.930 . S
H129 C137 0.930 . S
H130 C138 0.930 . S
H131 C141 0.930 . S
H132 C142 0.930 . S
C133 H127 0.930 . S
C133 C134 1.356 1_545 S
C133 C135 1.415 . S
C134 C133 1.356 1_565 S
C134 C136 1.424 . S
C135 C133 1.415 . S
C135 C140 1.425 1_545 S
C135 C142 1.409 . S
C136 H128 0.930 . S
C136 C134 1.424 . S
C136 C137 1.362 . S
C137 H129 0.930 . S
C137 C136 1.362 . S
C137 C140 1.409 . S
C138 H130 0.930 . S
C138 C139 1.355 . S
C138 C140 1.415 . S
C139 C138 1.355 . S
C139 C141 1.419 1_565 S
C140 C135 1.425 1_565 S
C140 C137 1.409 . S
C140 C138 1.415 . S
C141 H131 0.930 . S
C141 C139 1.419 1_545 S
C141 C142 1.362 . S
C142 H132 0.930 . S
C142 C135 1.409 . S
C142 C141 1.362 . S
H143 C149 0.930 . S
H144 C152 0.930 . S
H145 C153 0.930 . S
H146 C154 0.930 . S
H147 C157 0.930 . S
H148 C158 0.930 . S
C149 H143 0.930 . S
C149 C150 1.355 1_655 S
C149 C151 1.415 . S
C150 C149 1.355 1_455 S
C150 C152 1.419 . S
C151 C149 1.415 . S
C151 C156 1.425 1_655 S
C151 C158 1.409 . S
C152 H144 0.930 . S
C152 C150 1.419 . S
C152 C153 1.362 . S
C153 H145 0.930 . S
C153 C152 1.362 . S
C153 C156 1.409 . S
C154 H146 0.930 . S
C154 C155 1.355 . S
C154 C156 1.415 . S
C155 C154 1.355 . S
C155 C157 1.419 1_455 S
C156 C151 1.425 1_455 S
C156 C153 1.409 . S
C156 C154 1.415 . S
C157 H147 0.930 . S
C157 C155 1.419 1_655 S
C157 C158 1.362 . S
C158 H148 0.930 . S
C158 C151 1.409 . S
C158 C157 1.362 . S
H159 C165 0.930 . S
H160 C168 0.930 . S
H161 C169 0.930 . S
H162 C170 0.930 . S
H163 C173 0.930 . S
H164 C174 0.930 . S
C165 H159 0.930 . S
C165 C166 1.355 . S
C165 C167 1.415 . S
C166 C165 1.355 . S
C166 C168 1.419 1_545 S
C167 C165 1.415 . S
C167 C172 1.425 . S
C167 C174 1.409 . S
C168 H160 0.930 . S
C168 C166 1.419 1_565 S
C168 C169 1.362 . S
C169 H161 0.930 . S
C169 C168 1.362 . S
C169 C172 1.409 1_565 S
C170 H162 0.930 . S
C170 C171 1.355 1_565 S
C170 C172 1.415 1_565 S
C171 C170 1.355 1_545 S
C171 C173 1.419 . S
C172 C167 1.425 . S
C172 C169 1.409 1_545 S
C172 C170 1.415 1_545 S
C173 H163 0.930 . S
C173 C171 1.419 . S
C173 C174 1.362 . S
C174 H164 0.930 . S
C174 C167 1.409 . S
C174 C173 1.362 . S
H175 C181 0.930 . S
H176 C184 0.930 . S
H177 C185 0.930 . S
H178 C186 0.930 . S
H179 C189 0.930 . S
H180 C190 0.930 . S
C181 H175 0.930 . S
C181 C182 1.355 1_455 S
C181 C183 1.415 . S
C182 C181 1.355 1_655 S
C182 C184 1.419 . S
C183 C181 1.415 . S
C183 C188 1.425 1_455 S
C183 C190 1.409 . S
C184 H176 0.930 . S
C184 C182 1.419 . S
C184 C185 1.362 . S
C185 H177 0.930 . S
C185 C184 1.362 . S
C185 C188 1.409 . S
C186 H178 0.930 . S
C186 C187 1.355 . S
C186 C188 1.415 . S
C187 C186 1.355 . S
C187 C189 1.419 1_655 S
C188 C183 1.425 1_655 S
C188 C185 1.409 . S
C188 C186 1.415 . S
C189 H179 0.930 . S
C189 C187 1.419 1_455 S
C189 C190 1.362 . S
C190 H180 0.930 . S
C190 C183 1.409 . S
C190 C189 1.362 . S
H191 C197 0.930 . S
H192 C200 0.930 . S
H193 C201 0.930 . S
H194 C202 0.930 . S
H195 C205 0.930 . S
H196 C206 0.930 . S
C197 H191 0.930 . S
C197 C198 1.355 1_565 S
C197 C199 1.415 . S
C198 C197 1.355 1_545 S
C198 C200 1.419 . S
C199 C197 1.415 . S
C199 C204 1.425 1_565 S
C199 C206 1.409 . S
C200 H192 0.930 . S
C200 C198 1.419 . S
C200 C201 1.362 . S
C201 H193 0.930 . S
C201 C200 1.362 . S
C201 C204 1.409 . S
C202 H194 0.930 . S
C202 C203 1.356 . S
C202 C204 1.415 . S
C203 C202 1.356 . S
C203 C205 1.412 1_545 S
C204 C199 1.425 1_545 S
C204 C201 1.409 . S
C204 C202 1.415 . S
C205 H195 0.930 . S
C205 C203 1.412 1_565 S
C205 C206 1.362 . S
C206 H196 0.930 . S
C206 C199 1.409 . S
C206 C205 1.362 . S
C86 C23 1.381 . S
C91 C49 1.475 . S
C102 C22 1.376 1_545 S
C107 N68 1.358 . S
C118 C21 1.614 . S
C123 N45 1.580 1_455 S
C134 C24 1.552 1_565 S
C139 C72 1.623 . S
C150 C27 1.485 1_455 S
C155 C40 1.510 . S
C166 C26 1.403 . S
C171 N58 1.395 . S
C187 N35 1.644 . S
C182 C25 1.666 . S
C198 C28 1.617 . S
C203 C63 1.673 1_545 S
