# Generated by pormake.
# Topology pth, (4,4)-cn, num edge types: 1
# Building blocks:
#     Node 0, Type 0, BuildingBlock: GALJAG_clean_sbu_0, # of connection points: 4
#     Node 1, Type 0, BuildingBlock: GALJAG_clean_sbu_0, # of connection points: 4
#     Node 2, Type 0, BuildingBlock: GALJAG_clean_sbu_0, # of connection points: 4
#     Node 3, Type 1, BuildingBlock: KOZSID_clean_sbu_0, # of connection points: 4
#     Node 4, Type 1, BuildingBlock: KOZSID_clean_sbu_0, # of connection points: 4
#     Node 5, Type 1, BuildingBlock: KOZSID_clean_sbu_0, # of connection points: 4
#     Edge 6, Type (0, 1), None
#     Edge 7, Type (0, 1), None
#     Edge 8, Type (0, 1), None
#     Edge 9, Type (0, 1), None
#     Edge 10, Type (0, 1), None
#     Edge 11, Type (0, 1), None
#     Edge 12, Type (0, 1), None
#     Edge 13, Type (0, 1), None
#     Edge 14, Type (0, 1), None
#     Edge 15, Type (0, 1), None
#     Edge 16, Type (0, 1), None
#     Edge 17, Type (0, 1), None
# Relax obj value: 0.002
# Max RMSD: 0.058
# Mean RMSD: 0.032
data_MOF--net-pth--node1-GALJAG_clean_sbu_0--node2-KOZSID_clean_sbu_0--edge1-none
_symmetry_space_group_name_H-M    P1
_symmetry_Int_Tables_number       1
_symmetry_cell_setting            triclinic
loop_
_symmetry_equiv_pos_as_xyz
'x, y, z'
_cell_length_a     13.502813
_cell_length_b     13.503741
_cell_length_c     29.473281
_cell_angle_alpha  85.095618
_cell_angle_beta   85.135066
_cell_angle_gamma 120.05618
loop_
_atom_site_label
_atom_site_type_symbol
_atom_site_fract_x
_atom_site_fract_y
_atom_site_fract_z
_atom_type_partial_charge
In0 In 0.12197 0.09109 0.05576 0.0
O1 O 0.02899 0.18217 0.0838 0.0
O2 O 0.18331 0.21259 0.10908 0.0
C3 C 0.96862 0.94654 0.00476 0.0
C4 C 0.30782 0.26597 0.99928 0.0
C5 C 0.12529 0.91971 0.1094 0.0
O6 O 0.94162 0.99794 0.03293 0.0
O7 O 0.07313 0.97326 1.00079 0.0
O8 O 0.19605 0.97645 0.0733 0.0
O9 O 0.05445 0.95232 0.11966 0.0
C10 C 0.10489 0.23734 0.10879 0.0
O11 O 0.31561 0.20816 0.03322 0.0
O12 O 0.20537 0.23199 0.99231 0.0
In13 In 0.08899 0.13371 0.38754 0.0
O14 O 0.17353 0.32854 0.36467 0.0
O15 O 0.04843 0.21545 0.32628 0.0
C16 C 0.24293 0.12898 0.43939 0.0
C17 C 0.90421 0.10757 0.44264 0.0
C18 C 0.09323 0.97961 0.33572 0.0
O19 O 0.26872 0.21435 0.40947 0.0
O20 O 0.13825 0.04879 0.44472 0.0
O21 O 0.00808 0.95401 0.36571 0.0
O22 O 0.17355 0.08426 0.33032 0.0
C23 C 0.11464 0.31834 0.33247 0.0
O24 O 0.89421 0.04903 0.41035 0.0
O25 O 0.00706 0.17379 0.44889 0.0
In26 In 0.12892 0.09442 0.71966 0.0
O27 O 0.01172 0.90076 0.74241 0.0
O28 O 0.98784 0.01148 0.78299 0.0
C29 C 0.30048 0.09159 0.66598 0.0
C30 C 0.98287 0.11189 0.66656 0.0
C31 C 0.27322 0.24797 0.77065 0.0
O32 O 0.2437 0.02048 0.702 0.0
O33 O 0.26775 0.16239 0.65582 0.0
O34 O 0.22175 0.27472 0.74241 0.0
O35 O 0.24676 0.14353 0.77469 0.0
C36 C 0.95378 0.90892 0.77619 0.0
O37 O 0.03825 0.18772 0.69154 0.0
O38 O 0.00727 0.03321 0.66632 0.0
C39 C 0.2296 0.8202 0.14234 0.0
C40 C 0.33803 0.90228 0.11824 0.0
C41 C 0.41708 0.88436 0.1374 0.0
C42 C 0.35362 0.79303 0.17189 0.0
N43 N 0.2383 0.74957 0.17538 0.0
Co44 Co 0.11591 0.617 0.22157 0.0
N45 N 0.23481 0.6072 0.25519 0.0
C46 C 0.35043 0.68085 0.24661 0.0
C47 C 0.41085 0.65192 0.27453 0.0
C48 C 0.32923 0.55246 0.30209 0.0
C49 C 0.22293 0.52617 0.28931 0.0
N50 N 0.99422 0.47971 0.26594 0.0
C51 C 1.00518 0.40756 0.29741 0.0
C52 C 0.8978 0.3182 0.31936 0.0
C53 C 0.81652 0.33118 0.29946 0.0
C54 C 0.87842 0.42776 0.26691 0.0
N55 N 0.99759 0.63217 0.18983 0.0
C56 C 0.88134 0.56545 0.20097 0.0
C57 C 0.82189 0.60048 0.175 0.0
C58 C 0.90515 0.69778 0.14662 0.0
C59 C 0.01126 0.71735 0.15726 0.0
N60 N 0.11604 0.50629 0.18093 0.0
C61 C 0.10783 0.32984 0.13339 0.0
C62 C 0.01121 0.34156 0.14119 0.0
C63 C 0.01692 0.42925 0.16503 0.0
C64 C 0.20998 0.41069 0.1481 0.0
C65 C 0.21268 0.49841 0.171 0.0
N66 N 0.1135 0.72653 0.26224 0.0
C67 C 1.00423 0.78253 0.31241 0.0
C68 C 0.10066 0.89265 0.31049 0.0
C69 C 0.20501 0.91695 0.28549 0.0
C70 C 0.20987 0.83282 0.26226 0.0
C71 C 0.01235 0.7017 0.2882 0.0
H72 H 0.29214 0.85628 0.24399 0.0
H73 H 0.93467 0.62046 0.29045 0.0
H74 H 0.93916 0.43133 0.17076 0.0
H75 H 0.29359 0.55791 0.18092 0.0
C76 C 0.40046 0.76156 0.2067 0.0
C77 C 0.12241 0.81945 0.1365 0.0
C78 C 0.11487 0.4179 0.30641 0.0
C79 C 0.83099 0.47156 0.23645 0.0
H80 H 0.36066 0.97221 0.09117 0.0
H81 H 0.51036 0.93708 0.12926 0.0
H82 H 0.50382 0.69338 0.27279 0.0
H83 H 0.34797 0.50278 0.32689 0.0
H84 H 0.87979 0.24951 0.34644 0.0
H85 H 0.72347 0.27551 0.30717 0.0
H86 H 0.72907 0.56125 0.17707 0.0
H87 H 0.88899 0.74903 0.12139 0.0
H88 H 0.93073 0.28206 0.12976 0.0
H89 H 0.28821 0.40702 0.14171 0.0
H90 H 0.92193 0.75902 0.33194 0.0
H91 H 0.28291 1.00038 0.28394 0.0
C92 C 0.40041 0.98818 0.63261 0.0
C93 C 0.31813 0.87935 0.65632 0.0
C94 C 0.3363 0.80085 0.63683 0.0
C95 C 0.42797 0.86505 0.60253 0.0
N96 N 0.47139 0.98028 0.59949 0.0
Co97 Co 0.60432 0.10362 0.55369 0.0
N98 N 0.61462 0.98572 0.51957 0.0
C99 C 0.54097 0.87008 0.52772 0.0
C100 C 0.57026 0.81043 0.49954 0.0
C101 C 0.66995 0.89256 0.47226 0.0
C102 C 0.69603 0.99842 0.48547 0.0
N103 N 0.74195 0.22622 0.50972 0.0
C104 C 0.81449 0.21605 0.47817 0.0
C105 C 0.90394 0.32381 0.45659 0.0
C106 C 0.8906 0.40447 0.47681 0.0
C107 C 0.79373 0.34187 0.50916 0.0
N108 N 0.58869 0.22099 0.58593 0.0
C109 C 0.65536 0.33734 0.57521 0.0
C110 C 0.62001 0.39605 0.60146 0.0
C111 C 0.52254 0.31222 0.62959 0.0
C112 C 0.50322 0.20654 0.61852 0.0
N113 N 0.71458 0.10243 0.59436 0.0
C114 C 0.89062 0.10946 0.64191 0.0
C115 C 0.87896 0.20619 0.63441 0.0
C116 C 0.79147 0.20105 0.61057 0.0
C117 C 0.8099 0.00776 0.62689 0.0
C118 C 0.72239 0.00564 0.60398 0.0
N119 N 0.49524 0.1071 0.51297 0.0
C120 C 0.4397 0.2174 0.46307 0.0
C121 C 0.32968 0.12107 0.46464 0.0
C122 C 0.3052 0.01631 0.48935 0.0
C123 C 0.38906 0.01089 0.51261 0.0
C124 C 0.52025 0.20872 0.48732 0.0
H125 H 0.36547 0.92831 0.53062 0.0
H126 H 0.60142 0.28633 0.48534 0.0
H127 H 0.78941 0.27888 0.6051 0.0
H128 H 0.66299 0.92506 0.59379 0.0
C129 C 0.45986 0.81914 0.56749 0.0
C130 C 0.40103 0.09507 0.63889 0.0
C131 C 0.80442 0.10673 0.46877 0.0
C132 C 0.74953 0.38848 0.53984 0.0
H133 H 0.24793 0.85618 0.68334 0.0
H134 H 0.28355 0.70751 0.64461 0.0
H135 H 0.52885 0.71755 0.50092 0.0
H136 H 0.71987 0.87438 0.44737 0.0
H137 H 0.97292 0.34247 0.42954 0.0
H138 H 0.94623 0.49758 0.46943 0.0
H139 H 0.65914 0.48879 0.59974 0.0
H140 H 0.471 0.32771 0.65492 0.0
H141 H 0.93833 0.28632 0.64609 0.0
H142 H 0.81354 0.92946 0.63304 0.0
H143 H 0.46333 0.30002 0.44378 0.0
H144 H 0.22185 0.93849 0.49062 0.0
C145 C 0.84699 0.69746 0.81562 0.0
C146 C 0.93247 0.67628 0.79796 0.0
C147 C 0.90811 0.57305 0.82096 0.0
C148 C 0.81003 0.53683 0.8513 0.0
N149 N 0.76852 0.60944 0.84854 0.0
Co150 Co 0.62875 0.58948 0.88771 0.0
N151 N 0.60809 0.45009 0.92746 0.0
C152 C 0.68062 0.40845 0.92526 0.0
C153 C 0.64395 0.31073 0.95591 0.0
C154 C 0.54052 0.28678 0.97854 0.0
C155 C 0.51965 0.3721 0.96034 0.0
N156 N 0.48483 0.5646 0.925 0.0
C157 C 0.40509 0.47322 0.95651 0.0
C158 C 0.31405 0.48801 0.97231 0.0
C159 C 0.33412 0.58894 0.94834 0.0
C160 C 0.43629 0.63064 0.9197 0.0
N161 N 0.65432 0.73306 0.84984 0.0
C162 C 0.58841 0.78185 0.85459 0.0
C163 C 0.63057 0.88369 0.82564 0.0
C164 C 0.73169 0.9033 0.80206 0.0
C165 C 0.7461 0.81233 0.81839 0.0
N166 N 0.52811 0.48935 0.84524 0.0
C167 C 0.3619 0.3324 0.79561 0.0
C168 C 0.3741 0.44029 0.79879 0.0
C169 C 0.45669 0.51661 0.82371 0.0
C170 C 0.43779 0.3065 0.81587 0.0
C171 C 0.52061 0.38612 0.83972 0.0
N172 N 0.72825 0.69076 0.93019 0.0
C173 C 0.77675 0.84544 0.97621 0.0
C174 C 0.88445 0.85755 0.97983 0.0
C175 C 0.9105 0.78129 0.96002 0.0
C176 C 0.83125 0.6982 0.93616 0.0
C177 C 0.7008 0.76256 0.95128 0.0
H178 H 0.85612 0.64219 0.92216 0.0
H179 H 0.62141 0.76011 0.94888 0.0
H180 H 0.45922 0.59616 0.82574 0.0
H181 H 0.57634 0.36135 0.85409 0.0
C182 C 0.76918 0.44872 0.8884 0.0
C183 C 0.84955 0.80644 0.80393 0.0
C184 C 0.41063 0.36982 0.9715 0.0
C185 C 0.48828 0.73039 0.88703 0.0
H186 H 0.00857 0.73101 0.77293 0.0
H187 H 0.96063 0.53346 0.81826 0.0
H188 H 0.68341 0.25818 0.95908 0.0
H189 H 0.4855 0.21098 0.00366 0.0
H190 H 0.23984 0.43137 0.99808 0.0
H191 H 0.2796 0.62631 0.95089 0.0
H192 H 0.59338 0.93832 0.82264 0.0
H193 H 0.78872 0.97717 0.7762 0.0
H194 H 0.31851 0.46495 0.78301 0.0
H195 H 0.43372 0.22502 0.81328 0.0
H196 H 0.75199 0.90134 0.99163 0.0
H197 H 0.99182 0.78529 0.96297 0.0
loop_
_geom_bond_atom_site_label_1
_geom_bond_atom_site_label_2
_geom_bond_distance
_geom_bond_site_symmetry_2
_ccdc_geom_bond_type
In0 O1 2.294 . S
In0 O2 2.326 . S
In0 O6 2.266 1_445 S
In0 O7 2.326 1_545 S
In0 O8 2.266 1_545 S
In0 O9 2.326 1_545 S
In0 O11 2.294 . S
In0 O12 2.326 1_554 S
O1 In0 2.294 . S
O1 C10 1.240 . S
O2 In0 2.326 . S
O2 C10 1.252 . S
C3 O6 1.252 . S
C3 O7 1.260 1_655 S
C4 O11 1.240 1_556 S
C4 O12 1.252 . S
C5 O8 1.252 . S
C5 O9 1.260 . S
O6 In0 2.266 1_665 S
O6 C3 1.252 . S
O7 In0 2.326 1_565 S
O7 C3 1.260 1_455 S
O8 In0 2.266 1_565 S
O8 C5 1.252 . S
O9 In0 2.326 1_565 S
O9 C5 1.260 . S
C10 O1 1.240 . S
C10 O2 1.252 . S
O11 In0 2.294 . S
O11 C4 1.240 1_554 S
O12 In0 2.326 1_556 S
O12 C4 1.252 . S
In13 O14 2.294 . S
In13 O15 2.326 1_455 S
In13 O19 2.266 . S
In13 O20 2.326 . S
In13 O21 2.266 1_445 S
In13 O22 2.326 . S
In13 O24 2.294 1_455 S
In13 O25 2.326 . S
O14 In13 2.294 . S
O14 C23 1.240 . S
O15 In13 2.326 1_655 S
O15 C23 1.252 1_655 S
C16 O19 1.252 . S
C16 O20 1.260 . S
C17 O24 1.240 . S
C17 O25 1.252 1_655 S
C18 O21 1.252 1_455 S
C18 O22 1.260 1_565 S
O19 In13 2.266 . S
O19 C16 1.252 . S
O20 In13 2.326 . S
O20 C16 1.260 . S
O21 In13 2.266 1_665 S
O21 C18 1.252 1_655 S
O22 In13 2.326 . S
O22 C18 1.260 1_545 S
C23 O14 1.240 . S
C23 O15 1.252 1_455 S
O24 In13 2.294 1_655 S
O24 C17 1.240 . S
O25 In13 2.326 . S
O25 C17 1.252 1_455 S
In26 O27 2.294 1_545 S
In26 O28 2.326 1_445 S
In26 O32 2.266 . S
In26 O33 2.326 . S
In26 O34 2.266 . S
In26 O35 2.326 . S
In26 O37 2.294 . S
In26 O38 2.326 1_445 S
O27 In26 2.294 1_565 S
O27 C36 1.240 1_455 S
O28 In26 2.326 1_665 S
O28 C36 1.252 . S
C29 O32 1.252 . S
C29 O33 1.260 . S
C30 O37 1.240 1_655 S
C30 O38 1.252 1_545 S
C31 O34 1.252 . S
C31 O35 1.260 . S
O32 In26 2.266 . S
O32 C29 1.252 . S
O33 In26 2.326 . S
O33 C29 1.260 . S
O34 In26 2.266 . S
O34 C31 1.252 . S
O35 In26 2.326 . S
O35 C31 1.260 . S
C36 O27 1.240 1_655 S
C36 O28 1.252 . S
O37 In26 2.294 . S
O37 C30 1.240 1_455 S
O38 In26 2.326 1_665 S
O38 C30 1.252 1_565 S
C39 C40 1.443 . S
C39 N43 1.376 . S
C39 C77 1.389 . S
C40 C39 1.443 . S
C40 C41 1.340 . S
C40 H80 0.951 1_565 S
C41 C40 1.340 . S
C41 C42 1.439 . S
C41 H81 0.950 . S
C42 C41 1.439 . S
C42 N43 1.374 . S
C42 C76 1.395 . S
N43 C39 1.376 . S
N43 C42 1.374 . S
N43 Co44 2.008 . S
Co44 N43 2.008 . S
Co44 N45 1.995 . S
Co44 N50 2.008 1_455 S
Co44 N55 1.995 1_455 S
Co44 N60 2.282 . S
Co44 N66 2.282 . S
N45 Co44 1.995 . S
N45 C46 1.376 . S
N45 C49 1.383 . S
C46 N45 1.376 . S
C46 C47 1.446 . S
C46 C76 1.391 . S
C47 C46 1.446 . S
C47 C48 1.339 . S
C47 H82 0.949 . S
C48 C47 1.339 . S
C48 C49 1.439 . S
C48 H83 0.950 . S
C49 N45 1.383 . S
C49 C48 1.439 . S
C49 C78 1.392 . S
N50 Co44 2.008 1_655 S
N50 C51 1.376 . S
N50 C54 1.374 . S
C51 N50 1.376 . S
C51 C52 1.443 . S
C51 C78 1.389 1_655 S
C52 C51 1.443 . S
C52 C53 1.340 . S
C52 H84 0.951 . S
C53 C52 1.340 . S
C53 C54 1.439 . S
C53 H85 0.950 . S
C54 N50 1.374 . S
C54 C53 1.439 . S
C54 C79 1.395 . S
N55 Co44 1.995 1_655 S
N55 C56 1.376 . S
N55 C59 1.384 1_655 S
C56 N55 1.376 . S
C56 C57 1.446 . S
C56 C79 1.391 . S
C57 C56 1.446 . S
C57 C58 1.339 . S
C57 H86 0.949 . S
C58 C57 1.339 . S
C58 C59 1.434 1_655 S
C58 H87 0.950 . S
C59 N55 1.384 1_455 S
C59 C58 1.434 1_455 S
C59 C77 1.394 . S
N60 Co44 2.282 . S
N60 C63 1.332 . S
N60 C65 1.332 . S
C61 C62 1.386 . S
C61 C64 1.388 . S
C62 C61 1.386 . S
C62 C63 1.382 . S
C62 H88 0.950 1_455 S
C63 N60 1.332 . S
C63 C62 1.382 . S
C63 H74 0.952 1_455 S
C64 C61 1.388 . S
C64 C65 1.382 . S
C64 H89 0.950 . S
C65 N60 1.332 . S
C65 C64 1.382 . S
C65 H75 0.948 . S
N66 Co44 2.282 . S
N66 C70 1.332 . S
N66 C71 1.332 1_455 S
C67 C68 1.388 1_655 S
C67 C71 1.382 . S
C67 H90 0.950 . S
C68 C67 1.388 1_455 S
C68 C69 1.386 . S
C69 C68 1.386 . S
C69 C70 1.382 . S
C69 H91 0.950 . S
C70 N66 1.332 . S
C70 C69 1.382 . S
C70 H72 0.952 . S
C71 N66 1.332 1_655 S
C71 C67 1.382 . S
C71 H73 0.948 . S
H72 C70 0.952 . S
H73 C71 0.948 . S
H74 C63 0.952 1_655 S
H75 C65 0.948 . S
C76 C42 1.395 . S
C76 C46 1.391 . S
C77 C39 1.389 . S
C77 C59 1.394 . S
C78 C49 1.392 . S
C78 C51 1.389 1_455 S
C79 C54 1.395 . S
C79 C56 1.391 . S
H80 C40 0.951 1_545 S
H81 C41 0.950 . S
H82 C47 0.949 . S
H83 C48 0.950 . S
H84 C52 0.951 . S
H85 C53 0.950 . S
H86 C57 0.949 . S
H87 C58 0.950 . S
H88 C62 0.950 1_655 S
H89 C64 0.950 . S
H90 C67 0.950 . S
H91 C69 0.950 . S
C92 C93 1.446 . S
C92 N96 1.379 . S
C92 C130 1.384 1_565 S
C93 C92 1.446 . S
C93 C94 1.340 . S
C93 H133 0.951 . S
C94 C93 1.340 . S
C94 C95 1.439 . S
C94 H134 0.950 . S
C95 C94 1.439 . S
C95 N96 1.374 . S
C95 C129 1.395 . S
N96 C92 1.379 . S
N96 C95 1.374 . S
N96 Co97 2.008 1_565 S
Co97 N96 2.008 1_545 S
Co97 N98 1.995 . S
Co97 N103 2.008 . S
Co97 N108 1.995 . S
Co97 N113 2.282 . S
Co97 N119 2.282 . S
N98 Co97 1.995 . S
N98 C99 1.376 1_545 S
N98 C102 1.383 . S
C99 N98 1.376 1_565 S
C99 C100 1.446 . S
C99 C129 1.391 . S
C100 C99 1.446 . S
C100 C101 1.339 . S
C100 H135 0.949 . S
C101 C100 1.339 . S
C101 C102 1.439 1_565 S
C101 H136 0.950 . S
C102 N98 1.383 . S
C102 C101 1.439 1_545 S
C102 C131 1.392 . S
N103 Co97 2.008 . S
N103 C104 1.376 . S
N103 C107 1.374 . S
C104 N103 1.376 . S
C104 C105 1.443 . S
C104 C131 1.389 . S
C105 C104 1.443 . S
C105 C106 1.340 . S
C105 H137 0.951 . S
C106 C105 1.340 . S
C106 C107 1.439 . S
C106 H138 0.950 . S
C107 N103 1.374 . S
C107 C106 1.439 . S
C107 C132 1.395 . S
N108 Co97 1.995 . S
N108 C109 1.376 . S
N108 C112 1.383 . S
C109 N108 1.376 . S
C109 C110 1.446 . S
C109 C132 1.391 . S
C110 C109 1.446 . S
C110 C111 1.339 . S
C110 H139 0.949 . S
C111 C110 1.339 . S
C111 C112 1.439 . S
C111 H140 0.950 . S
C112 N108 1.383 . S
C112 C111 1.439 . S
C112 C130 1.392 . S
N113 Co97 2.282 . S
N113 C116 1.332 . S
N113 C118 1.332 . S
C114 C115 1.386 . S
C114 C117 1.388 . S
C115 C114 1.386 . S
C115 C116 1.382 . S
C115 H141 0.950 . S
C116 N113 1.332 . S
C116 C115 1.382 . S
C116 H127 0.952 . S
C117 C114 1.388 . S
C117 C118 1.382 . S
C117 H142 0.950 1_545 S
C118 N113 1.332 . S
C118 C117 1.382 . S
C118 H128 0.948 1_545 S
N119 Co97 2.282 . S
N119 C123 1.332 . S
N119 C124 1.332 . S
C120 C121 1.388 . S
C120 C124 1.382 . S
C120 H143 0.950 . S
C121 C120 1.388 . S
C121 C122 1.386 . S
C122 C121 1.386 . S
C122 C123 1.382 . S
C122 H144 0.950 1_545 S
C123 N119 1.332 . S
C123 C122 1.382 . S
C123 H125 0.952 1_545 S
C124 N119 1.332 . S
C124 C120 1.382 . S
C124 H126 0.948 . S
H125 C123 0.952 1_565 S
H126 C124 0.948 . S
H127 C116 0.952 . S
H128 C118 0.948 1_565 S
C129 C95 1.395 . S
C129 C99 1.391 . S
C130 C92 1.384 1_545 S
C130 C112 1.392 . S
C131 C102 1.392 . S
C131 C104 1.389 . S
C132 C107 1.395 . S
C132 C109 1.391 . S
H133 C93 0.951 . S
H134 C94 0.950 . S
H135 C100 0.949 . S
H136 C101 0.950 . S
H137 C105 0.951 . S
H138 C106 0.950 . S
H139 C110 0.949 . S
H140 C111 0.950 . S
H141 C115 0.950 . S
H142 C117 0.950 1_565 S
H143 C120 0.950 . S
H144 C122 0.950 1_565 S
C145 C146 1.443 . S
C145 N149 1.376 . S
C145 C183 1.389 . S
C146 C145 1.443 . S
C146 C147 1.340 . S
C146 H186 0.951 1_655 S
C147 C146 1.340 . S
C147 C148 1.439 . S
C147 H187 0.950 1_655 S
C148 C147 1.439 . S
C148 N149 1.374 . S
C148 C182 1.395 . S
N149 C145 1.376 . S
N149 C148 1.374 . S
N149 Co150 2.008 . S
Co150 N149 2.008 . S
Co150 N151 1.995 . S
Co150 N156 2.008 . S
Co150 N161 1.995 . S
Co150 N166 2.282 . S
Co150 N172 2.282 . S
N151 Co150 1.995 . S
N151 C152 1.376 . S
N151 C155 1.383 . S
C152 N151 1.376 . S
C152 C153 1.446 . S
C152 C182 1.391 . S
C153 C152 1.446 . S
C153 C154 1.339 . S
C153 H188 0.949 . S
C154 C153 1.339 . S
C154 C155 1.439 . S
C154 H189 0.950 . S
C155 N151 1.383 . S
C155 C154 1.439 . S
C155 C184 1.392 . S
N156 Co150 2.008 . S
N156 C157 1.376 . S
N156 C160 1.374 . S
C157 N156 1.376 . S
C157 C158 1.443 . S
C157 C184 1.389 . S
C158 C157 1.443 . S
C158 C159 1.340 . S
C158 H190 0.951 . S
C159 C158 1.340 . S
C159 C160 1.439 . S
C159 H191 0.950 . S
C160 N156 1.374 . S
C160 C159 1.439 . S
C160 C185 1.395 . S
N161 Co150 1.995 . S
N161 C162 1.376 . S
N161 C165 1.383 . S
C162 N161 1.376 . S
C162 C163 1.446 . S
C162 C185 1.391 . S
C163 C162 1.446 . S
C163 C164 1.339 . S
C163 H192 0.949 . S
C164 C163 1.339 . S
C164 C165 1.439 . S
C164 H193 0.950 . S
C165 N161 1.383 . S
C165 C164 1.439 . S
C165 C183 1.392 . S
N166 Co150 2.282 . S
N166 C169 1.332 . S
N166 C171 1.332 . S
C167 C168 1.386 . S
C167 C170 1.388 . S
C168 C167 1.386 . S
C168 C169 1.382 . S
C168 H194 0.950 . S
C169 N166 1.332 . S
C169 C168 1.382 . S
C169 H180 0.952 . S
C170 C167 1.388 . S
C170 C171 1.382 . S
C170 H195 0.950 . S
C171 N166 1.332 . S
C171 C170 1.382 . S
C171 H181 0.948 . S
N172 Co150 2.282 . S
N172 C176 1.332 . S
N172 C177 1.332 . S
C173 C174 1.388 . S
C173 C177 1.382 . S
C173 H196 0.950 . S
C174 C173 1.388 . S
C174 C175 1.386 . S
C175 C174 1.386 . S
C175 C176 1.382 . S
C175 H197 0.950 . S
C176 N172 1.332 . S
C176 C175 1.382 . S
C176 H178 0.952 . S
C177 N172 1.332 . S
C177 C173 1.382 . S
C177 H179 0.948 . S
H178 C176 0.952 . S
H179 C177 0.948 . S
H180 C169 0.952 . S
H181 C171 0.948 . S
C182 C148 1.395 . S
C182 C152 1.391 . S
C183 C145 1.389 . S
C183 C165 1.392 . S
C184 C155 1.392 . S
C184 C157 1.389 . S
C185 C160 1.395 . S
C185 C162 1.391 . S
H186 C146 0.951 1_455 S
H187 C147 0.950 1_455 S
H188 C153 0.949 . S
H189 C154 0.950 . S
H190 C158 0.951 . S
H191 C159 0.950 . S
H192 C163 0.949 . S
H193 C164 0.950 . S
H194 C168 0.950 . S
H195 C170 0.950 . S
H196 C173 0.950 . S
H197 C175 0.950 . S
C61 C10 1.525 . S
C17 C131 1.520 . S
C36 C183 1.555 . S
C5 C77 1.525 . S
C121 C16 1.534 . S
C31 C167 1.527 . S
C114 C30 1.525 . S
C3 C174 1.526 1_554 S
C68 C18 1.534 . S
C130 C29 1.526 . S
C184 C4 1.547 . S
C23 C78 1.520 . S
