# Generated by pormake.
# Topology pts, (4,4)-cn, num edge types: 1
# Building blocks:
#     Node 0, Type 0, BuildingBlock: MUDLON_clean_sbu_0, # of connection points: 4
#     Node 1, Type 0, BuildingBlock: MUDLON_clean_sbu_0, # of connection points: 4
#     Node 2, Type 1, BuildingBlock: QUQFOY_clean_sbu_1, # of connection points: 4
#     Node 3, Type 1, BuildingBlock: QUQFOY_clean_sbu_1, # of connection points: 4
#     Edge 4, Type (0, 1), None
#     Edge 5, Type (0, 1), None
#     Edge 6, Type (0, 1), None
#     Edge 7, Type (0, 1), None
#     Edge 8, Type (0, 1), None
#     Edge 9, Type (0, 1), None
#     Edge 10, Type (0, 1), None
#     Edge 11, Type (0, 1), None
# Relax obj value: 0.130
# Max RMSD: 0.240
# Mean RMSD: 0.140
data_MOF--net-pts--node1-MUDLON_clean_sbu_0--node2-QUQFOY_clean_sbu_1--edge1-none
_symmetry_space_group_name_H-M    P1
_symmetry_Int_Tables_number       1
_symmetry_cell_setting            triclinic
loop_
_symmetry_equiv_pos_as_xyz
'x, y, z'
_cell_length_a     10.507044
_cell_length_b     10.381249
_cell_length_c     17.895181
_cell_angle_alpha  88.479809
_cell_angle_beta   93.64952
_cell_angle_gamma 86.90184
loop_
_atom_site_label
_atom_site_type_symbol
_atom_site_fract_x
_atom_site_fract_y
_atom_site_fract_z
_atom_type_partial_charge
Mg0 Mg 0.42465 0.13235 1.052 0.0
C1 C 0.28484 0.90208 0.96815 0.0
O2 O 0.28859 0.77788 0.95553 0.0
C3 C 0.62109 1.00802 0.17718 0.0
O4 O 0.59257 0.89317 0.15454 0.0
C5 C 0.24907 0.11743 0.15885 0.0
O6 O 0.32492 1.01279 0.15845 0.0
O7 O 0.26281 0.20811 0.11103 0.0
O8 O 0.37404 0.94424 1.01093 0.0
O9 O 0.55387 0.21651 0.97466 0.0
C10 C 0.63614 0.1248 0.96417 0.0
O11 O 0.61924 1.00991 0.99298 0.0
O12 O 0.56558 0.10888 0.14578 0.0
Mg13 Mg -0.0228 0.56834 0.58031 0.0
C14 C 0.8897 0.82424 0.64055 0.0
O15 O 0.94439 0.87056 0.5825 0.0
C16 C 0.92944 0.34449 0.48403 0.0
O17 O 0.00836 0.28963 0.53673 0.0
C18 C 0.09873 0.6723 0.44752 0.0
O19 O 0.09268 0.55349 0.42494 0.0
O20 O 0.09241 0.69388 0.51678 0.0
O21 O 0.8677 0.70484 0.64429 0.0
O22 O 0.05299 0.42838 0.66744 0.0
C23 C 0.06313 0.46134 0.73546 0.0
O24 O 0.05523 0.58426 0.75098 0.0
O25 O 0.88451 0.45936 0.49207 0.0
O26 O 0.80636 0.92839 0.25106 0.0
Cd27 Cd -0.01223 0.93863 0.30329 0.0
Cd28 Cd 0.92701 0.19971 0.29239 0.0
O29 O 0.76431 0.13946 0.23977 0.0
O30 O 0.05005 0.75407 0.32235 0.0
O31 O 0.03403 0.89329 0.41284 0.0
C32 C 0.06484 0.77809 0.39242 0.0
C33 C 0.9206 0.28645 0.41014 0.0
C34 C 0.73354 1.02492 0.22774 0.0
C35 C 0.14439 0.11518 0.20889 0.0
O36 O 0.07845 0.21605 0.22434 0.0
O37 O 0.12211 1.0055 0.23669 0.0
O38 O 0.88672 0.35652 0.35068 0.0
O39 O 0.95952 0.16751 0.40244 0.0
O40 O 0.8284 0.22288 0.93394 0.0
Cd41 Cd 0.01113 0.21899 0.8916 0.0
Cd42 Cd 0.93552 0.99688 0.82394 0.0
O43 O 0.77662 1.04287 0.8798 0.0
O44 O 0.06232 0.3967 0.86524 0.0
O45 O 0.02082 0.24901 0.781 0.0
C46 C 0.0529 0.36443 0.79594 0.0
C47 C 0.89529 0.89617 0.70994 0.0
C48 C 0.74832 0.13736 0.92015 0.0
C49 C 0.17827 0.98434 0.93139 0.0
O50 O 0.10121 0.93075 0.8857 0.0
O51 O 0.1613 0.10347 0.94521 0.0
O52 O 0.88091 0.838 0.77288 0.0
O53 O 0.93186 1.01279 0.71109 0.0
loop_
_geom_bond_atom_site_label_1
_geom_bond_atom_site_label_2
_geom_bond_distance
_geom_bond_site_symmetry_2
_ccdc_geom_bond_type
Mg0 O7 2.141 . S
Mg0 O8 2.048 1_554 S
Mg0 O9 2.048 1_554 S
Mg0 O12 2.141 . S
C1 O2 1.313 . S
C1 O8 1.195 1_565 S
O2 C1 1.313 . S
C3 O4 1.245 . S
C3 O12 1.289 1_565 S
O4 C3 1.245 . S
C5 O6 1.245 . S
C5 O7 1.289 1_565 S
O6 C5 1.245 . S
O7 Mg0 2.141 . S
O7 C5 1.289 1_545 S
O8 Mg0 2.048 1_556 S
O8 C1 1.195 1_545 S
O9 Mg0 2.048 1_556 S
O9 C10 1.195 1_545 S
C10 O9 1.195 1_565 S
C10 O11 1.313 . S
O11 C10 1.313 . S
O12 Mg0 2.141 . S
O12 C3 1.289 1_545 S
Mg13 O20 2.141 . S
Mg13 O21 2.048 . S
Mg13 O22 2.048 . S
Mg13 O25 2.141 . S
C14 O15 1.313 . S
C14 O21 1.195 1_455 S
O15 C14 1.313 . S
C16 O17 1.245 . S
C16 O25 1.289 1_455 S
O17 C16 1.245 . S
C18 O19 1.245 . S
C18 O20 1.289 1_455 S
O19 C18 1.245 . S
O20 Mg13 2.141 . S
O20 C18 1.289 1_655 S
O21 Mg13 2.048 . S
O21 C14 1.195 1_655 S
O22 Mg13 2.048 . S
O22 C23 1.195 1_655 S
C23 O22 1.195 1_455 S
C23 O24 1.313 . S
O24 C23 1.313 . S
O25 Mg13 2.141 . S
O25 C16 1.289 1_655 S
O26 Cd27 2.223 1_655 S
O26 C34 1.315 . S
Cd27 O26 2.223 1_455 S
Cd27 O30 2.297 1_455 S
Cd27 O31 2.439 1_455 S
Cd27 O37 2.240 1_565 S
Cd28 O29 2.240 1_545 S
Cd28 O36 2.223 1_655 S
Cd28 O38 2.297 1_655 S
Cd28 O39 2.439 1_655 S
O29 Cd28 2.240 1_565 S
O29 C34 1.279 . S
O30 Cd27 2.297 1_655 S
O30 C32 1.247 . S
O31 Cd27 2.439 1_655 S
O31 C32 1.208 . S
C32 O30 1.247 . S
C32 O31 1.208 . S
C33 O38 1.247 . S
C33 O39 1.208 . S
C34 O26 1.315 . S
C34 O29 1.279 . S
C35 O36 1.315 . S
C35 O37 1.279 . S
O36 Cd28 2.223 1_455 S
O36 C35 1.315 . S
O37 Cd27 2.240 1_545 S
O37 C35 1.279 . S
O38 Cd28 2.297 1_455 S
O38 C33 1.247 . S
O39 Cd28 2.439 1_455 S
O39 C33 1.208 . S
O40 Cd41 2.223 1_655 S
O40 C48 1.315 . S
Cd41 O40 2.223 1_455 S
Cd41 O44 2.297 1_455 S
Cd41 O45 2.439 1_455 S
Cd41 O51 2.240 1_545 S
Cd42 O43 2.240 1_565 S
Cd42 O50 2.223 1_655 S
Cd42 O52 2.297 1_655 S
Cd42 O53 2.439 1_655 S
O43 Cd42 2.240 1_545 S
O43 C48 1.279 . S
O44 Cd41 2.297 1_655 S
O44 C46 1.247 . S
O45 Cd41 2.439 1_655 S
O45 C46 1.208 . S
C46 O44 1.247 . S
C46 O45 1.208 . S
C47 O52 1.247 . S
C47 O53 1.208 . S
C48 O40 1.315 . S
C48 O43 1.279 . S
C49 O50 1.315 . S
C49 O51 1.279 . S
O50 Cd42 2.223 1_455 S
O50 C49 1.315 . S
O51 Cd41 2.240 1_565 S
O51 C49 1.279 . S
O52 Cd42 2.297 1_455 S
O52 C47 1.247 . S
O53 Cd42 2.439 1_455 S
O53 C47 1.208 . S
C35 C5 1.803 1_545 S
C46 C23 1.758 1_655 S
C34 C3 1.633 . S
C47 C14 1.661 . S
C49 C1 1.769 . S
C33 C16 1.567 . S
C48 C10 1.894 1_545 S
C18 C32 1.698 1_455 S
