# Generated by pormake.
# Topology nia, (6,6)-cn, num edge types: 1
# Building blocks:
#     Node 0, Type 0, BuildingBlock: HISSIN_clean_sbu_0, # of connection points: 6
#     Node 1, Type 0, BuildingBlock: HISSIN_clean_sbu_0, # of connection points: 6
#     Node 2, Type 1, BuildingBlock: MIDCAF_clean_sbu_0, # of connection points: 6
#     Node 3, Type 1, BuildingBlock: MIDCAF_clean_sbu_0, # of connection points: 6
#     Edge 4, Type (0, 1), BuildingBlock: OJICUG_clean_linker_0, # of connection points: 2
#     Edge 5, Type (0, 1), BuildingBlock: OJICUG_clean_linker_0, # of connection points: 2
#     Edge 6, Type (0, 1), BuildingBlock: OJICUG_clean_linker_0, # of connection points: 2
#     Edge 7, Type (0, 1), BuildingBlock: OJICUG_clean_linker_0, # of connection points: 2
#     Edge 8, Type (0, 1), BuildingBlock: OJICUG_clean_linker_0, # of connection points: 2
#     Edge 9, Type (0, 1), BuildingBlock: OJICUG_clean_linker_0, # of connection points: 2
#     Edge 10, Type (0, 1), BuildingBlock: OJICUG_clean_linker_0, # of connection points: 2
#     Edge 11, Type (0, 1), BuildingBlock: OJICUG_clean_linker_0, # of connection points: 2
#     Edge 12, Type (0, 1), BuildingBlock: OJICUG_clean_linker_0, # of connection points: 2
#     Edge 13, Type (0, 1), BuildingBlock: OJICUG_clean_linker_0, # of connection points: 2
#     Edge 14, Type (0, 1), BuildingBlock: OJICUG_clean_linker_0, # of connection points: 2
#     Edge 15, Type (0, 1), BuildingBlock: OJICUG_clean_linker_0, # of connection points: 2
# Relax obj value: 0.425
# Max RMSD: 0.278
# Mean RMSD: 0.273
data_MOF--net-nia--node1-HISSIN_clean_sbu_0--node2-MIDCAF_clean_sbu_0--edge1-OJICUG_clean_linker_0
_symmetry_space_group_name_H-M    P1
_symmetry_Int_Tables_number       1
_symmetry_cell_setting            triclinic
loop_
_symmetry_equiv_pos_as_xyz
'x, y, z'
_cell_length_a     19.601018
_cell_length_b     19.712721
_cell_length_c     25.316598
_cell_angle_alpha  73.290346
_cell_angle_beta   74.701734
_cell_angle_gamma 113.75368
loop_
_atom_site_label
_atom_site_type_symbol
_atom_site_fract_x
_atom_site_fract_y
_atom_site_fract_z
_atom_type_partial_charge
Eu0 Eu -0.00067 0.05479 0.08624 0.0
Eu1 Eu 0.95212 0.89996 1.05111 0.0
C2 C 0.14201 0.04104 0.99975 0.0
C3 C 0.02774 0.22864 0.14317 0.0
C4 C 0.07266 0.31275 0.10134 0.0
C5 C 0.00106 0.26517 0.22702 0.0
C6 C 0.08444 0.37279 0.12244 0.0
C7 C -0.01137 0.20525 0.20596 0.0
C8 C 0.05234 0.34933 0.18557 0.0
C9 C 0.03745 0.16798 0.1243 0.0
O10 O 0.0119 0.87597 0.11319 0.0
O11 O -0.01194 0.95065 0.16242 0.0
C12 C 0.01069 0.89764 0.15764 0.0
O13 O 0.86275 -0.00605 0.11539 0.0
O14 O 0.93273 0.85922 0.98311 0.0
O15 O 0.9064 0.76952 0.0712 0.0
O16 O 0.83536 0.86399 0.12974 0.0
C17 C 0.81004 0.91478 0.13677 0.0
O18 O -0.01334 0.10223 0.99804 0.0
O19 O 0.90624 -0.02512 1.00511 0.0
O20 O 0.0881 -0.00838 0.98639 0.0
O21 O -0.01653 0.08958 0.16004 0.0
O22 O 0.07002 0.18531 0.06643 0.0
O23 O 0.11907 0.0617 1.04303 0.0
C24 C 0.92728 0.73556 0.98621 0.0
C25 C 0.90037 0.65263 1.02136 0.0
C26 C 0.94597 0.7126 0.89543 0.0
C27 C 0.89269 0.59923 0.99428 0.0
C28 C 0.95436 0.76621 0.92241 0.0
C29 C 0.91102 0.62789 0.93176 0.0
C30 C 0.90787 0.78262 1.01714 0.0
C31 C 0.9366 0.05477 0.98103 0.0
H32 H 0.10403 0.33254 1.05279 0.0
H33 H -0.02486 0.24581 0.27588 0.0
H34 H 0.12456 0.43751 0.08962 0.0
H35 H 0.95413 0.14087 0.23936 0.0
H36 H 0.87851 0.62729 0.07058 0.0
H37 H 0.96155 0.73627 0.84697 0.0
H38 H 0.86522 0.53404 1.02345 0.0
H39 H -0.02444 0.83001 0.89394 0.0
Eu40 Eu 0.93075 -0.02808 0.52447 0.0
Eu41 Eu 0.0239 -0.01146 0.61408 0.0
C42 C 0.89113 0.80876 0.63877 0.0
C43 C 0.81694 -0.02604 0.41921 0.0
C44 C 0.747 -0.02314 0.44748 0.0
C45 C 0.78606 -0.02032 0.33202 0.0
C46 C 0.69353 -0.02544 0.42023 0.0
C47 C 0.83912 -0.01895 0.35966 0.0
C48 C 0.70956 -0.03043 0.36431 0.0
C49 C 0.85658 0.94624 0.45489 0.0
O50 O 0.07197 0.92829 0.56331 0.0
O51 O 0.04466 -0.03087 0.48114 0.0
C52 C 0.07618 0.93289 0.50962 0.0
O53 O 0.00216 0.10953 0.48921 0.0
O54 O 0.01301 0.96014 0.70712 0.0
O55 O 0.13244 0.0492 0.62827 0.0
O56 O 0.08899 0.11845 0.53628 0.0
C57 C 0.06547 0.15332 0.49776 0.0
O58 O 0.89002 0.03897 0.57158 0.0
O59 O 0.90661 -0.01342 0.65675 0.0
O60 O 0.95842 0.85197 0.64342 0.0
O61 O 0.93678 -0.00917 0.43359 0.0
O62 O 0.81805 0.91324 0.51452 0.0
O63 O 0.8632 0.84475 0.60529 0.0
C64 C 0.13363 -0.02055 0.72055 0.0
C65 C 0.18596 0.9546 0.69432 0.0
C66 C 0.19425 -0.00699 0.7915 0.0
C67 C 0.24658 0.9554 0.71358 0.0
C68 C 0.13379 -0.00757 0.7721 0.0
C69 C 0.25527 -0.01851 0.75883 0.0
C70 C 0.09219 0.00897 0.68792 0.0
C71 C 0.8821 0.03028 0.62656 0.0
H72 H 0.72929 -0.02722 0.49311 0.0
H73 H 0.80119 -0.02157 0.28807 0.0
H74 H 0.63542 -0.0328 0.4465 0.0
H75 H 0.89364 -0.01993 0.33675 0.0
H76 H 0.18564 0.94303 0.65503 0.0
H77 H 0.19953 0.0131 0.82659 0.0
H78 H 0.2926 0.9454 0.68827 0.0
H79 H 0.09295 0.0107 0.79327 0.0
Zn80 Zn 0.32422 0.78554 0.20724 0.0
Zn81 Zn 0.24171 0.64297 0.43114 0.0
Zn82 Zn 0.26888 0.69642 0.32164 0.0
C83 C 0.40282 0.76846 0.36914 0.0
C84 C 0.20196 0.50624 0.4089 0.0
O85 O 0.19919 0.75943 0.30178 0.0
O86 O 0.27885 0.85878 0.20712 0.0
C87 C 0.46451 0.80802 0.21118 0.0
O88 O 0.38584 0.75714 0.32568 0.0
O89 O 0.3476 0.72813 0.42342 0.0
O90 O 0.22122 0.53062 0.44662 0.0
O91 O 0.20794 0.55761 0.36023 0.0
O92 O 0.44568 0.8332 0.16873 0.0
O93 O 0.40809 0.76289 0.26706 0.0
O94 O 0.21633 0.59711 0.29914 0.0
O95 O 0.25079 0.68119 0.20443 0.0
C96 C 0.21306 0.60878 0.24753 0.0
O97 O 0.20006 0.74538 0.36637 0.0
O98 O 0.14992 0.65994 0.46336 0.0
C99 C 0.2129 0.82091 0.25557 0.0
C100 C 0.15709 0.72136 0.42331 0.0
Zn101 Zn 0.63484 0.18867 0.9217 0.0
Zn102 Zn 0.72498 0.32583 0.69906 0.0
Zn103 Zn 0.68365 0.26332 0.80976 0.0
C104 C 0.75367 0.45769 0.72049 0.0
C105 C 0.56435 0.19172 0.75202 0.0
O106 O 0.75695 0.20609 0.83166 0.0
O107 O 0.67797 0.11338 0.92831 0.0
C108 C 0.74142 0.36172 0.87955 0.0
O109 O 0.73969 0.40257 0.77109 0.0
O110 O 0.74457 0.43823 0.67851 0.0
O111 O 0.62449 0.24302 0.70032 0.0
O112 O 0.57101 0.19495 0.80061 0.0
O113 O 0.70836 0.29188 0.92425 0.0
O114 O 0.73249 0.36703 0.83031 0.0
O115 O 0.54308 0.19034 0.85917 0.0
O116 O 0.5145 0.14404 0.95716 0.0
C117 C 0.48975 0.15294 0.91584 0.0
O118 O 0.75892 0.21876 0.76714 0.0
O119 O 0.81798 0.30888 0.67033 0.0
C120 C 0.74364 0.14832 0.88017 0.0
C121 C 0.80725 0.24553 0.71092 0.0
C122 C 0.10655 0.93132 0.2068 0.0
C123 C 0.04756 0.87175 0.19751 0.0
H124 H 0.20673 -0.03821 0.23295 0.0
C125 C 0.03362 0.79118 0.2191 0.0
H126 H 0.11926 -0.00574 0.18978 0.0
C127 C 0.08104 0.77175 0.24645 0.0
C128 C 0.14517 0.83334 0.25054 0.0
H129 H -0.01109 0.74439 0.21214 0.0
H130 H 0.07297 0.7107 0.25882 0.0
C131 C 0.15623 0.91276 0.23186 0.0
C132 C 0.40431 0.08556 0.70209 0.0
C133 C 0.33751 0.02195 0.75799 0.0
H134 H 0.52673 0.18981 0.65681 0.0
C135 C 0.3477 0.00943 0.81215 0.0
H136 H 0.39783 0.09761 0.65969 0.0
C137 C 0.42305 0.06203 0.81032 0.0
C138 C 0.48727 0.13002 0.75489 0.0
H139 H 0.29685 0.96077 0.85579 0.0
H140 H 0.43011 0.05077 0.85237 0.0
C141 C 0.47802 0.1392 0.70059 0.0
C142 C 0.08669 0.48694 0.18312 0.0
C143 C 0.08326 0.41163 0.20778 0.0
H144 H 0.12981 0.60829 0.17756 0.0
C145 C 0.11878 0.39969 0.24858 0.0
H146 H 0.05996 0.49749 0.15145 0.0
C147 C 0.15994 0.46337 0.26259 0.0
C148 C 0.16471 0.5391 0.23703 0.0
H149 H 0.11872 0.34276 0.26698 0.0
H150 H 0.19163 0.455 0.29074 0.0
C151 C 0.1269 0.55013 0.19781 0.0
C152 C 0.88104 0.16048 0.6077 0.0
C153 C 0.86124 0.08345 0.64965 0.0
H154 H 0.88413 0.27355 0.59385 0.0
C155 C 0.83045 0.06282 0.71241 0.0
H156 H 0.9071 0.17925 0.55894 0.0
C157 C 0.81632 0.11703 0.73286 0.0
C158 C 0.83509 0.19379 0.69075 0.0
H159 H 0.81608 0.00432 0.74567 0.0
H160 H 0.78885 0.09789 0.78151 0.0
C161 C 0.86918 0.21529 0.62786 0.0
C162 C 0.69521 0.9439 0.15122 0.0
C163 C 0.7204 0.88559 0.16176 0.0
H164 H 0.59453 -0.0354 0.15789 0.0
C165 C 0.65954 0.8008 0.19176 0.0
H166 H 0.74014 0.00974 0.12796 0.0
C167 C 0.57563 0.77521 0.2097 0.0
C168 C 0.55157 0.83397 0.19703 0.0
H169 H 0.67677 0.75437 0.20049 0.0
H170 H 0.52976 0.70966 0.23199 0.0
C171 C 0.61188 0.91833 0.168 0.0
C172 C 0.88329 0.6765 0.69749 0.0
C173 C 0.84922 0.71688 0.66791 0.0
H174 H 0.88001 0.56229 0.73703 0.0
C175 C 0.77881 0.66907 0.66155 0.0
H176 H 0.93787 0.71132 0.70286 0.0
C177 C 0.74564 0.58395 0.68165 0.0
C178 C 0.78136 0.5443 0.70919 0.0
H179 H 0.75089 0.69775 0.63901 0.0
H180 H 0.69323 0.5493 0.67402 0.0
C181 C 0.84991 0.59104 0.71759 0.0
C182 C 0.12894 0.90142 0.42341 0.0
C183 C 0.10195 0.88264 0.48588 0.0
H184 H 0.16795 0.86553 0.35415 0.0
C185 C 0.08841 0.80852 0.52726 0.0
H186 H 0.1385 0.95761 0.3906 0.0
C187 C 0.10159 0.75435 0.50686 0.0
C188 C 0.13062 0.77357 0.44421 0.0
H189 H 0.06529 0.791 0.57587 0.0
H190 H 0.09075 0.69804 0.54048 0.0
C191 C 0.14431 0.84795 0.40264 0.0
C192 C 0.25942 0.03686 1.01562 0.0
C193 C 0.2289 0.06255 0.97457 0.0
H194 H 0.36434 0.04343 1.02909 0.0
C195 C 0.28384 0.1155 0.91258 0.0
H196 H 0.21822 -0.00357 0.06374 0.0
C197 C 0.36894 0.14477 0.89264 0.0
C198 C 0.3997 0.11966 0.93416 0.0
H199 H 0.26166 0.13706 0.88032 0.0
H200 H 0.41072 0.18833 0.84519 0.0
C201 C 0.34339 0.06436 0.99568 0.0
C202 C 0.17665 0.29474 0.47338 0.0
C203 C 0.10665 0.24525 0.46745 0.0
H204 H 0.26199 0.41601 0.45844 0.0
C205 C 0.07217 0.28409 0.43689 0.0
H206 H 0.20494 0.26736 0.49654 0.0
C207 C 0.10478 0.3697 0.41535 0.0
C208 C 0.17327 0.41837 0.42299 0.0
H209 H 0.01773 0.24795 0.4319 0.0
H210 H 0.0743 0.39713 0.39516 0.0
C211 C 0.20937 0.38006 0.45153 0.0
C212 C 0.91994 0.16882 0.9196 0.0
C213 C 0.90213 0.08673 0.94094 0.0
H214 H 0.8844 0.25379 0.88046 0.0
C215 C 0.84255 0.03075 0.92935 0.0
H216 H 0.96536 0.21353 0.9275 0.0
C217 C 0.796 0.05348 0.90325 0.0
C218 C 0.80971 0.1335 0.88603 0.0
H219 H 0.82745 -0.03288 0.94426 0.0
H220 H 0.74557 0.00691 0.90024 0.0
C221 C 0.87427 0.19208 0.89202 0.0
C222 C 0.62794 0.86875 0.33233 0.0
C223 C 0.63976 0.93381 0.34871 0.0
H224 H 0.54151 0.7635 0.32792 0.0
C225 C 0.57583 0.95066 0.36303 0.0
H226 H 0.67511 0.85294 0.32194 0.0
C227 C 0.49904 0.89822 0.36727 0.0
C228 C 0.48603 0.82974 0.35576 0.0
H229 H 0.58341 0.00096 0.37494 0.0
H230 H 0.44887 0.90912 0.38192 0.0
C231 C 0.55137 0.81695 0.33607 0.0
C232 C 0.8313 0.57198 0.87687 0.0
C233 C 0.88059 0.56741 0.9078 0.0
H234 H 0.74601 0.50838 0.84519 0.0
C235 C 0.88944 0.49821 0.92383 0.0
H236 H 0.82217 0.62402 0.86502 0.0
C237 C 0.84617 0.43271 0.91227 0.0
C238 C 0.79369 0.4355 0.88429 0.0
H239 H 0.92719 0.49337 0.94751 0.0
H240 H 0.85193 0.3787 0.92676 0.0
C241 C 0.78766 0.50607 0.86556 0.0
loop_
_geom_bond_atom_site_label_1
_geom_bond_atom_site_label_2
_geom_bond_distance
_geom_bond_site_symmetry_2
_ccdc_geom_bond_type
Eu0 C9 2.828 . S
Eu0 O11 2.392 1_545 S
Eu0 O13 2.418 1_455 S
Eu0 O18 2.373 1_455 S
Eu0 O21 2.488 . S
Eu0 O22 2.471 . S
Eu0 O23 2.349 1_554 S
Eu1 O10 2.373 1_656 S
Eu1 O14 2.488 1_655 S
Eu1 O15 2.471 . S
Eu1 O16 2.349 1_556 S
Eu1 O19 2.392 1_565 S
Eu1 O20 2.418 1_665 S
Eu1 C30 2.828 . S
C2 O20 1.244 . S
C2 O23 1.265 . S
C3 C4 1.379 . S
C3 C7 1.373 . S
C3 C9 1.505 . S
C4 C3 1.379 . S
C4 C6 1.369 . S
C4 H32 0.930 . S
C5 C7 1.383 . S
C5 C8 1.382 . S
C5 H33 0.930 . S
C6 C4 1.369 . S
C6 C8 1.392 . S
C6 H34 0.930 . S
C7 C3 1.373 . S
C7 C5 1.383 . S
C7 H35 0.931 . S
C8 C5 1.382 . S
C8 C6 1.392 . S
C9 Eu0 2.828 . S
C9 C3 1.505 . S
C9 O21 1.249 . S
C9 O22 1.244 . S
O10 Eu1 2.373 1_454 S
O10 C12 1.258 . S
O11 Eu0 2.392 1_565 S
O11 C12 1.242 . S
C12 O10 1.258 . S
C12 O11 1.242 . S
O13 Eu0 2.418 1_655 S
O13 C17 1.236 1_545 S
O14 Eu1 2.488 1_455 S
O14 C30 1.249 1_455 S
O15 Eu1 2.471 . S
O15 C30 1.244 . S
O16 Eu1 2.349 1_554 S
O16 C17 1.265 . S
C17 O13 1.236 1_565 S
C17 O16 1.265 . S
O18 Eu0 2.373 1_655 S
O18 C31 1.258 1_554 S
O19 Eu1 2.392 1_545 S
O19 C31 1.242 . S
O20 Eu1 2.418 1_445 S
O20 C2 1.244 . S
O21 Eu0 2.488 . S
O21 C9 1.249 . S
O22 Eu0 2.471 . S
O22 C9 1.244 . S
O23 Eu0 2.349 1_556 S
O23 C2 1.265 . S
C24 C25 1.379 . S
C24 C28 1.373 . S
C24 C30 1.505 . S
C25 C24 1.379 . S
C25 C27 1.369 . S
C25 H36 0.930 1_556 S
C26 C28 1.383 . S
C26 C29 1.382 . S
C26 H37 0.930 . S
C27 C25 1.369 . S
C27 C29 1.392 . S
C27 H38 0.930 1_556 S
C28 C24 1.373 . S
C28 C26 1.383 . S
C28 H39 0.931 1_655 S
C29 C26 1.382 . S
C29 C27 1.392 . S
C30 Eu1 2.828 . S
C30 O14 1.249 1_655 S
C30 O15 1.244 . S
C30 C24 1.505 . S
C31 O18 1.258 1_556 S
C31 O19 1.242 . S
H32 C4 0.930 . S
H33 C5 0.930 . S
H34 C6 0.930 . S
H35 C7 0.931 . S
H36 C25 0.930 1_554 S
H37 C26 0.930 . S
H38 C27 0.930 1_554 S
H39 C28 0.931 1_455 S
Eu40 C49 2.828 . S
Eu40 O51 2.392 1_655 S
Eu40 O53 2.418 1_665 S
Eu40 O58 2.373 1_565 S
Eu40 O61 2.488 1_565 S
Eu40 O62 2.471 . S
Eu40 O63 2.349 . S
Eu41 O50 2.373 1_545 S
Eu41 O54 2.488 . S
Eu41 O55 2.471 . S
Eu41 O56 2.349 . S
Eu41 O59 2.392 1_455 S
Eu41 O60 2.418 1_445 S
Eu41 C70 2.828 . S
C42 O60 1.244 . S
C42 O63 1.265 . S
C43 C44 1.379 . S
C43 C47 1.373 . S
C43 C49 1.505 . S
C44 C43 1.379 . S
C44 C46 1.369 . S
C44 H72 0.930 . S
C45 C47 1.383 . S
C45 C48 1.382 . S
C45 H73 0.930 . S
C46 C44 1.369 . S
C46 C48 1.392 . S
C46 H74 0.930 . S
C47 C43 1.373 . S
C47 C45 1.383 . S
C47 H75 0.931 1_565 S
C48 C45 1.382 . S
C48 C46 1.392 . S
C49 Eu40 2.828 . S
C49 C43 1.505 . S
C49 O61 1.249 1_565 S
C49 O62 1.244 . S
O50 Eu41 2.373 1_565 S
O50 C52 1.258 . S
O51 Eu40 2.392 1_455 S
O51 C52 1.242 . S
C52 O50 1.258 . S
C52 O51 1.242 . S
O53 Eu40 2.418 1_445 S
O53 C57 1.244 . S
O54 Eu41 2.488 . S
O54 C70 1.249 . S
O55 Eu41 2.471 . S
O55 C70 1.244 . S
O56 Eu41 2.349 . S
O56 C57 1.265 . S
C57 O53 1.244 . S
C57 O56 1.265 . S
O58 Eu40 2.373 1_545 S
O58 C71 1.258 . S
O59 Eu41 2.392 1_655 S
O59 C71 1.242 . S
O60 Eu41 2.418 1_665 S
O60 C42 1.244 . S
O61 Eu40 2.488 1_545 S
O61 C49 1.249 1_545 S
O62 Eu40 2.471 . S
O62 C49 1.244 . S
O63 Eu40 2.349 . S
O63 C42 1.265 . S
C64 C65 1.379 . S
C64 C68 1.373 . S
C64 C70 1.505 . S
C65 C64 1.379 . S
C65 C67 1.369 . S
C65 H76 0.930 . S
C66 C68 1.383 . S
C66 C69 1.382 . S
C66 H77 0.930 . S
C67 C65 1.369 . S
C67 C69 1.392 . S
C67 H78 0.930 . S
C68 C64 1.373 . S
C68 C66 1.383 . S
C68 H79 0.931 . S
C69 C66 1.382 . S
C69 C67 1.392 . S
C70 Eu41 2.828 . S
C70 O54 1.249 . S
C70 O55 1.244 . S
C70 C64 1.505 . S
C71 O58 1.258 . S
C71 O59 1.242 . S
H72 C44 0.930 . S
H73 C45 0.930 . S
H74 C46 0.930 . S
H75 C47 0.931 1_545 S
H76 C65 0.930 . S
H77 C66 0.930 . S
H78 C67 0.930 . S
H79 C68 0.931 . S
Zn80 O86 1.920 . S
Zn80 O92 1.898 . S
Zn80 O95 1.905 . S
Zn81 O89 1.905 . S
Zn81 O90 1.898 . S
Zn81 O98 1.920 . S
Zn82 O85 2.080 . S
Zn82 O88 2.114 . S
Zn82 O91 2.120 . S
Zn82 O93 2.120 . S
Zn82 O94 2.114 . S
Zn82 O97 2.080 . S
C83 O88 1.166 . S
C83 O89 1.182 . S
C84 O90 1.167 . S
C84 O91 1.299 . S
O85 Zn82 2.080 . S
O85 C99 1.305 . S
O86 Zn80 1.920 . S
O86 C99 1.234 . S
C87 O92 1.167 . S
C87 O93 1.299 . S
O88 Zn82 2.114 . S
O88 C83 1.166 . S
O89 Zn81 1.905 . S
O89 C83 1.182 . S
O90 Zn81 1.898 . S
O90 C84 1.167 . S
O91 Zn82 2.120 . S
O91 C84 1.299 . S
O92 Zn80 1.898 . S
O92 C87 1.167 . S
O93 Zn82 2.120 . S
O93 C87 1.299 . S
O94 Zn82 2.114 . S
O94 C96 1.166 . S
O95 Zn80 1.905 . S
O95 C96 1.182 . S
C96 O94 1.166 . S
C96 O95 1.182 . S
O97 Zn82 2.080 . S
O97 C100 1.305 . S
O98 Zn81 1.920 . S
O98 C100 1.234 . S
C99 O85 1.305 . S
C99 O86 1.234 . S
C100 O97 1.305 . S
C100 O98 1.234 . S
Zn101 O107 1.920 . S
Zn101 O113 1.898 . S
Zn101 O116 1.905 . S
Zn102 O110 1.905 . S
Zn102 O111 1.898 . S
Zn102 O119 1.920 . S
Zn103 O106 2.080 . S
Zn103 O109 2.114 . S
Zn103 O112 2.120 . S
Zn103 O114 2.120 . S
Zn103 O115 2.114 . S
Zn103 O118 2.080 . S
C104 O109 1.166 . S
C104 O110 1.182 . S
C105 O111 1.167 . S
C105 O112 1.299 . S
O106 Zn103 2.080 . S
O106 C120 1.305 . S
O107 Zn101 1.920 . S
O107 C120 1.234 . S
C108 O113 1.167 . S
C108 O114 1.299 . S
O109 Zn103 2.114 . S
O109 C104 1.166 . S
O110 Zn102 1.905 . S
O110 C104 1.182 . S
O111 Zn102 1.898 . S
O111 C105 1.167 . S
O112 Zn103 2.120 . S
O112 C105 1.299 . S
O113 Zn101 1.898 . S
O113 C108 1.167 . S
O114 Zn103 2.120 . S
O114 C108 1.299 . S
O115 Zn103 2.114 . S
O115 C117 1.166 . S
O116 Zn101 1.905 . S
O116 C117 1.182 . S
C117 O115 1.166 . S
C117 O116 1.182 . S
O118 Zn103 2.080 . S
O118 C121 1.305 . S
O119 Zn102 1.920 . S
O119 C121 1.234 . S
C120 O106 1.305 . S
C120 O107 1.234 . S
C121 O118 1.305 . S
C121 O119 1.234 . S
C122 C123 1.387 . S
C122 H126 0.950 . S
C122 C131 1.390 . S
C123 C122 1.387 . S
C123 C125 1.387 . S
H124 C131 0.950 . S
C125 C123 1.387 . S
C125 C127 1.390 . S
C125 H129 0.950 . S
H126 C122 0.950 . S
C127 C125 1.390 . S
C127 C128 1.387 . S
C127 H130 0.950 . S
C128 C127 1.387 . S
C128 C131 1.387 . S
H129 C125 0.950 . S
H130 C127 0.950 . S
C131 C122 1.390 . S
C131 H124 0.950 . S
C131 C128 1.387 . S
C132 C133 1.387 . S
C132 H136 0.950 . S
C132 C141 1.390 . S
C133 C132 1.387 . S
C133 C135 1.387 . S
H134 C141 0.950 . S
C135 C133 1.387 . S
C135 C137 1.390 . S
C135 H139 0.950 . S
H136 C132 0.950 . S
C137 C135 1.390 . S
C137 C138 1.387 . S
C137 H140 0.950 . S
C138 C137 1.387 . S
C138 C141 1.387 . S
H139 C135 0.950 . S
H140 C137 0.950 . S
C141 C132 1.390 . S
C141 H134 0.950 . S
C141 C138 1.387 . S
C142 C143 1.387 . S
C142 H146 0.950 . S
C142 C151 1.390 . S
C143 C142 1.387 . S
C143 C145 1.387 . S
H144 C151 0.950 . S
C145 C143 1.387 . S
C145 C147 1.390 . S
C145 H149 0.950 . S
H146 C142 0.950 . S
C147 C145 1.390 . S
C147 C148 1.387 . S
C147 H150 0.950 . S
C148 C147 1.387 . S
C148 C151 1.387 . S
H149 C145 0.950 . S
H150 C147 0.950 . S
C151 C142 1.390 . S
C151 H144 0.950 . S
C151 C148 1.387 . S
C152 C153 1.387 . S
C152 H156 0.950 . S
C152 C161 1.390 . S
C153 C152 1.387 . S
C153 C155 1.387 . S
H154 C161 0.950 . S
C155 C153 1.387 . S
C155 C157 1.390 . S
C155 H159 0.950 . S
H156 C152 0.950 . S
C157 C155 1.390 . S
C157 C158 1.387 . S
C157 H160 0.950 . S
C158 C157 1.387 . S
C158 C161 1.387 . S
H159 C155 0.950 . S
H160 C157 0.950 . S
C161 C152 1.390 . S
C161 H154 0.950 . S
C161 C158 1.387 . S
C162 C163 1.387 . S
C162 H166 0.950 . S
C162 C171 1.390 . S
C163 C162 1.387 . S
C163 C165 1.387 . S
H164 C171 0.950 . S
C165 C163 1.387 . S
C165 C167 1.390 . S
C165 H169 0.950 . S
H166 C162 0.950 . S
C167 C165 1.390 . S
C167 C168 1.387 . S
C167 H170 0.950 . S
C168 C167 1.387 . S
C168 C171 1.387 . S
H169 C165 0.950 . S
H170 C167 0.950 . S
C171 C162 1.390 . S
C171 H164 0.950 . S
C171 C168 1.387 . S
C172 C173 1.387 . S
C172 H176 0.950 . S
C172 C181 1.390 . S
C173 C172 1.387 . S
C173 C175 1.387 . S
H174 C181 0.950 . S
C175 C173 1.387 . S
C175 C177 1.390 . S
C175 H179 0.950 . S
H176 C172 0.950 . S
C177 C175 1.390 . S
C177 C178 1.387 . S
C177 H180 0.950 . S
C178 C177 1.387 . S
C178 C181 1.387 . S
H179 C175 0.950 . S
H180 C177 0.950 . S
C181 C172 1.390 . S
C181 H174 0.950 . S
C181 C178 1.387 . S
C182 C183 1.387 . S
C182 H186 0.950 1_565 S
C182 C191 1.390 . S
C183 C182 1.387 . S
C183 C185 1.387 . S
H184 C191 0.950 . S
C185 C183 1.387 . S
C185 C187 1.390 . S
C185 H189 0.950 . S
H186 C182 0.950 1_545 S
C187 C185 1.390 . S
C187 C188 1.387 . S
C187 H190 0.950 . S
C188 C187 1.387 . S
C188 C191 1.387 . S
H189 C185 0.950 . S
H190 C187 0.950 . S
C191 C182 1.390 . S
C191 H184 0.950 . S
C191 C188 1.387 . S
C192 C193 1.387 . S
C192 H196 0.950 . S
C192 C201 1.390 . S
C193 C192 1.387 . S
C193 C195 1.387 . S
H194 C201 0.950 . S
C195 C193 1.387 . S
C195 C197 1.390 . S
C195 H199 0.950 . S
H196 C192 0.950 . S
C197 C195 1.390 . S
C197 C198 1.387 . S
C197 H200 0.950 . S
C198 C197 1.387 . S
C198 C201 1.387 . S
H199 C195 0.950 . S
H200 C197 0.950 . S
C201 C192 1.390 . S
C201 H194 0.950 . S
C201 C198 1.387 . S
C202 C203 1.387 . S
C202 H206 0.950 . S
C202 C211 1.390 . S
C203 C202 1.387 . S
C203 C205 1.387 . S
H204 C211 0.950 . S
C205 C203 1.387 . S
C205 C207 1.390 . S
C205 H209 0.950 . S
H206 C202 0.950 . S
C207 C205 1.390 . S
C207 C208 1.387 . S
C207 H210 0.950 . S
C208 C207 1.387 . S
C208 C211 1.387 . S
H209 C205 0.950 . S
H210 C207 0.950 . S
C211 C202 1.390 . S
C211 H204 0.950 . S
C211 C208 1.387 . S
C212 C213 1.387 . S
C212 H216 0.950 . S
C212 C221 1.390 . S
C213 C212 1.387 . S
C213 C215 1.387 . S
H214 C221 0.950 . S
C215 C213 1.387 . S
C215 C217 1.390 . S
C215 H219 0.950 . S
H216 C212 0.950 . S
C217 C215 1.390 . S
C217 C218 1.387 . S
C217 H220 0.950 . S
C218 C217 1.387 . S
C218 C221 1.387 . S
H219 C215 0.950 . S
H220 C217 0.950 . S
C221 C212 1.390 . S
C221 H214 0.950 . S
C221 C218 1.387 . S
C222 C223 1.387 . S
C222 H226 0.950 . S
C222 C231 1.390 . S
C223 C222 1.387 . S
C223 C225 1.387 . S
H224 C231 0.950 . S
C225 C223 1.387 . S
C225 C227 1.390 . S
C225 H229 0.950 . S
H226 C222 0.950 . S
C227 C225 1.390 . S
C227 C228 1.387 . S
C227 H230 0.950 . S
C228 C227 1.387 . S
C228 C231 1.387 . S
H229 C225 0.950 . S
H230 C227 0.950 . S
C231 C222 1.390 . S
C231 H224 0.950 . S
C231 C228 1.387 . S
C232 C233 1.387 . S
C232 H236 0.950 . S
C232 C241 1.390 . S
C233 C232 1.387 . S
C233 C235 1.387 . S
H234 C241 0.950 . S
C235 C233 1.387 . S
C235 C237 1.390 . S
C235 H239 0.950 . S
H236 C232 0.950 . S
C237 C235 1.390 . S
C237 C238 1.387 . S
C237 H240 0.950 . S
C238 C237 1.387 . S
C238 C241 1.387 . S
H239 C235 0.950 . S
H240 C237 0.950 . S
C241 C232 1.390 . S
C241 H234 0.950 . S
C241 C238 1.387 . S
C123 C12 1.647 . S
C128 C99 1.550 . S
C133 C69 1.171 . S
C138 C105 1.097 . S
C143 C8 1.329 . S
C148 C96 1.220 . S
C153 C71 2.051 . S
C158 C121 1.895 . S
C163 C17 2.393 . S
C168 C87 2.341 . S
C178 C104 2.097 . S
C173 C42 2.115 . S
C183 C52 1.646 . S
C188 C100 1.547 . S
C198 C117 2.096 . S
C193 C2 2.116 . S
C208 C84 2.340 . S
C203 C57 2.391 . S
C218 C120 1.897 . S
C213 C31 2.053 . S
C228 C83 1.222 . S
C223 C48 1.332 . S
C238 C108 1.098 . S
C233 C29 1.171 . S
