# Generated by pormake.
# Topology bcu-b, (8,8)-cn, num edge types: 1
# Building blocks:
#     Node 0, Type 0, BuildingBlock: TAGTUT_clean_sbu_1, # of connection points: 8
#     Node 1, Type 1, BuildingBlock: GIZVER_clean_sbu_0, # of connection points: 8
#     Edge 2, Type (0, 1), BuildingBlock: FUNLAD_clean_linker_0, # of connection points: 2
#     Edge 3, Type (0, 1), BuildingBlock: FUNLAD_clean_linker_0, # of connection points: 2
#     Edge 4, Type (0, 1), BuildingBlock: FUNLAD_clean_linker_0, # of connection points: 2
#     Edge 5, Type (0, 1), BuildingBlock: FUNLAD_clean_linker_0, # of connection points: 2
#     Edge 6, Type (0, 1), BuildingBlock: FUNLAD_clean_linker_0, # of connection points: 2
#     Edge 7, Type (0, 1), BuildingBlock: FUNLAD_clean_linker_0, # of connection points: 2
#     Edge 8, Type (0, 1), BuildingBlock: FUNLAD_clean_linker_0, # of connection points: 2
#     Edge 9, Type (0, 1), BuildingBlock: FUNLAD_clean_linker_0, # of connection points: 2
# Relax obj value: 0.108
# Max RMSD: 0.177
# Mean RMSD: 0.171
data_MOF--net-bcu-b--node1-TAGTUT_clean_sbu_1--node2-GIZVER_clean_sbu_0--edge1-FUNLAD_clean_linker_0
_symmetry_space_group_name_H-M    P1
_symmetry_Int_Tables_number       1
_symmetry_cell_setting            triclinic
loop_
_symmetry_equiv_pos_as_xyz
'x, y, z'
_cell_length_a     23.72691
_cell_length_b     25.349492
_cell_length_c     20.118265
_cell_angle_alpha  88.408273
_cell_angle_beta   94.075827
_cell_angle_gamma 106.71507
loop_
_atom_site_label
_atom_site_type_symbol
_atom_site_fract_x
_atom_site_fract_y
_atom_site_fract_z
_atom_type_partial_charge
C0 C 0.89551 0.1382 0.08919 0.0
C1 C 0.93207 0.12841 0.88362 0.0
C2 C 0.89431 0.91318 0.92926 0.0
Mg3 Mg 1.00535 0.13308 0.01717 0.0
O4 O 0.97156 0.05766 0.03413 0.0
Mg5 Mg 0.88818 0.02607 -0.00326 0.0
Mg6 Mg 0.00855 0.00476 0.99576 0.0
O7 O 0.04521 0.95224 0.95632 0.0
Mg8 Mg 0.01045 0.87706 0.97301 0.0
Mg9 Mg 0.12874 0.9832 0.99299 0.0
C10 C 0.12235 0.09661 0.06125 0.0
C11 C 0.09931 0.07279 0.88792 0.0
O12 O 0.86634 0.09198 0.06214 0.0
O13 O 0.95025 0.16084 0.08033 0.0
O14 O 0.89656 0.08526 0.90717 0.0
O15 O 0.98057 0.15291 0.91559 0.0
O16 O 0.09613 0.13421 0.04899 0.0
O17 O 0.09587 0.04497 0.05356 0.0
C18 C 0.91847 0.93937 0.10548 0.0
O19 O 0.96831 0.94479 0.08071 0.0
O20 O 0.88322 0.96665 0.08336 0.0
O21 O 0.14977 0.91695 0.92599 0.0
O22 O 0.06537 0.84794 0.91174 0.0
O23 O 0.11961 0.92239 0.08187 0.0
C24 C 0.11982 0.86999 0.90113 0.0
O25 O 0.03359 0.85716 0.07427 0.0
O26 O 0.9199 0.87513 0.94085 0.0
C27 C 0.08292 0.87998 0.10558 0.0
O28 O 0.9215 0.96451 0.93783 0.0
O29 O 0.04907 0.0653 0.9125 0.0
O30 O 0.13488 0.04507 0.90773 0.0
Co31 Co 0.58791 0.4146 0.47921 0.0
Co32 Co 0.58563 0.44847 0.59718 0.0
Co33 Co 0.51358 0.50948 0.49636 0.0
O34 O 0.58406 0.48239 0.51529 0.0
H35 H 0.62036 0.51153 0.5114 0.0
O36 O 0.44311 0.53787 0.47851 0.0
Co37 Co 0.44702 0.61026 0.51029 0.0
Co38 Co 0.43874 0.56701 0.39374 0.0
H39 H 0.40646 0.51058 0.48717 0.0
O40 O 0.65698 0.45434 0.64068 0.0
O41 O 0.60462 0.38679 0.57066 0.0
O42 O 0.51379 0.42672 0.64243 0.0
O43 O 0.46285 0.45945 0.56238 0.0
O44 O 0.5466 0.56654 0.56562 0.0
O45 O 0.44529 0.67425 0.54087 0.0
O46 O 0.36957 0.59718 0.52581 0.0
O47 O 0.52876 0.63254 0.50251 0.0
O48 O 0.56387 0.55853 0.42882 0.0
O49 O 0.5077 0.57941 0.34426 0.0
O50 O 0.43229 0.63495 0.41793 0.0
O51 O 0.36684 0.57034 0.35487 0.0
C52 C 0.65122 0.3856 0.44227 0.0
C53 C 0.47349 0.40053 0.43855 0.0
C54 C 0.46547 0.43184 0.61603 0.0
C55 C 0.651 0.40791 0.61107 0.0
C56 C 0.38998 0.6482 0.54595 0.0
C57 C 0.55477 0.61772 0.55391 0.0
C58 C 0.5577 0.57863 0.37062 0.0
C59 C 0.38258 0.61881 0.38187 0.0
O60 O 0.59713 0.35486 0.44442 0.0
O61 O 0.66616 0.43561 0.46586 0.0
O62 O 0.48032 0.4518 0.42789 0.0
O63 O 0.5054 0.38455 0.48384 0.0
C64 C 0.21933 0.16688 0.07616 0.0
C65 C 0.18275 0.11464 0.09231 0.0
C66 C 0.26828 0.19238 0.11815 0.0
C67 C 0.28081 0.16649 0.17783 0.0
C68 C 0.24849 0.11165 0.18979 0.0
C69 C 0.19959 0.08574 0.14716 0.0
C70 C 0.32274 0.19808 0.23082 0.0
C71 C 0.32526 0.25089 0.24265 0.0
C72 C 0.36239 0.28638 0.2963 0.0
C73 C 0.40115 0.26895 0.34223 0.0
C74 C 0.43602 0.30546 0.39008 0.0
C75 C 0.43314 0.36003 0.3926 0.0
H76 H 0.32895 0.35511 0.26618 0.0
C77 C 0.39348 0.37682 0.34778 0.0
C78 C 0.35859 0.34046 0.30044 0.0
H79 H 0.38985 0.41844 0.34858 0.0
H80 H 0.20781 0.18954 0.03338 0.0
H81 H 0.29413 0.23373 0.10591 0.0
H82 H 0.25806 0.09048 0.23482 0.0
H83 H 0.17207 0.0453 0.16051 0.0
H84 H 0.34714 0.17626 0.26312 0.0
H85 H 0.29675 0.26959 0.21153 0.0
H86 H 0.40553 0.22773 0.3413 0.0
H87 H 0.46628 0.29131 0.42394 0.0
C88 C 0.89791 0.21294 0.16962 0.0
C89 C 0.86549 0.16615 0.13311 0.0
C90 C 0.87015 0.23894 0.212 0.0
C91 C 0.80894 0.21904 0.21847 0.0
C92 C 0.77666 0.17231 0.18187 0.0
C93 C 0.80447 0.14615 0.13978 0.0
C94 C 0.77688 0.24427 0.26366 0.0
C95 C 0.79979 0.29299 0.29507 0.0
C96 C 0.76493 0.31633 0.33875 0.0
C97 C 0.77894 0.37375 0.34646 0.0
C98 C 0.74383 0.39683 0.38299 0.0
C99 C 0.69413 0.36271 0.41233 0.0
H100 H 0.70707 0.23793 0.3707 0.0
C101 C 0.68242 0.3053 0.40811 0.0
C102 C 0.71761 0.28234 0.37232 0.0
H103 H 0.64521 0.27788 0.43161 0.0
H104 H 0.94511 0.22931 0.16618 0.0
H105 H 0.89731 0.27396 0.23995 0.0
H106 H 0.72953 0.15575 0.1859 0.0
H107 H 0.77805 0.11024 0.11251 0.0
H108 H 0.73101 0.2219 0.26938 0.0
H109 H 0.84388 0.31832 0.28603 0.0
H110 H 0.81584 0.40089 0.3222 0.0
H111 H 0.75402 0.44123 0.38573 0.0
C112 C 0.89753 0.84268 0.14839 0.0
C113 C 0.89676 0.89727 0.15671 0.0
C114 C 0.8615 0.79997 0.18528 0.0
C115 C 0.8246 0.81164 0.23123 0.0
C116 C 0.82823 0.86681 0.24331 0.0
C117 C 0.8637 0.90913 0.20631 0.0
C118 C 0.77584 0.76854 0.26022 0.0
C119 C 0.77008 0.71415 0.26149 0.0
C120 C 0.71534 0.67498 0.28402 0.0
C121 C 0.71814 0.63347 0.33054 0.0
C122 C 0.66658 0.6006 0.35729 0.0
C123 C 0.61134 0.60797 0.3366 0.0
H124 H 0.6566 0.71141 0.22382 0.0
C125 C 0.60853 0.64714 0.28665 0.0
C126 C 0.65998 0.68047 0.26093 0.0
H127 H 0.5668 0.65379 0.26934 0.0
H128 H 0.92167 0.83245 0.10938 0.0
H129 H 0.85957 0.75801 0.17394 0.0
H130 H 0.80061 0.8771 0.27855 0.0
H131 H 0.86229 0.95095 0.21347 0.0
H132 H 0.74108 0.78249 0.27995 0.0
H133 H 0.80557 0.6983 0.24803 0.0
H134 H 0.76034 0.62816 0.3484 0.0
H135 H 0.67012 0.57036 0.39526 0.0
C136 C 0.15585 0.87797 0.20134 0.0
C137 C 0.10252 0.8523 0.16507 0.0
C138 C 0.18155 0.84805 0.24751 0.0
C139 C 0.1547 0.79145 0.25799 0.0
C140 C 0.09877 0.76729 0.22625 0.0
C141 C 0.07289 0.79731 0.18033 0.0
C142 C 0.18495 0.75501 0.2965 0.0
C143 C 0.2436 0.7688 0.31262 0.0
C144 C 0.27532 0.72835 0.33682 0.0
C145 C 0.33048 0.74736 0.37219 0.0
C146 C 0.3648 0.71163 0.38854 0.0
C147 C 0.34497 0.65618 0.36897 0.0
H148 H 0.21344 0.65633 0.29004 0.0
C149 C 0.28919 0.63687 0.33497 0.0
C150 C 0.2548 0.67244 0.31898 0.0
H151 H 0.27245 0.59437 0.31926 0.0
H152 H 0.17928 0.92065 0.19186 0.0
H153 H 0.22326 0.86935 0.27283 0.0
H154 H 0.0764 0.72407 0.23402 0.0
H155 H 0.03149 0.7763 0.15383 0.0
H156 H 0.15839 0.71333 0.30676 0.0
H157 H 0.27085 0.81049 0.30457 0.0
H158 H 0.34764 0.79029 0.38608 0.0
H159 H 0.40748 0.72785 0.41495 0.0
C160 C 0.20252 0.86492 0.83162 0.0
C161 C 0.1483 0.83932 0.85883 0.0
C162 C 0.22776 0.83542 0.79043 0.0
C163 C 0.19934 0.77958 0.77596 0.0
C164 C 0.14596 0.7539 0.80439 0.0
C165 C 0.12049 0.7834 0.84477 0.0
C166 C 0.22497 0.7461 0.73393 0.0
C167 C 0.26019 0.76762 0.68441 0.0
C168 C 0.28895 0.73523 0.64453 0.0
C169 C 0.34012 0.76368 0.61343 0.0
C170 C 0.37143 0.73526 0.5795 0.0
C171 C 0.35199 0.67752 0.57499 0.0
H172 H 0.22726 0.65411 0.65842 0.0
C173 C 0.29895 0.64896 0.60267 0.0
C174 C 0.26768 0.67751 0.6373 0.0
H175 H 0.28266 0.60451 0.59952 0.0
H176 H 0.22526 0.90779 0.84174 0.0
H177 H 0.26995 0.85622 0.77115 0.0
H178 H 0.12349 0.71085 0.79481 0.0
H179 H 0.07897 0.76205 0.86532 0.0
H180 H 0.21366 0.7022 0.74428 0.0
H181 H 0.27074 0.81157 0.67423 0.0
H182 H 0.35713 0.80809 0.61715 0.0
H183 H 0.41172 0.75867 0.55786 0.0
C184 C 0.15776 0.11779 0.79322 0.0
C185 C 0.12249 0.12109 0.84514 0.0
C186 C 0.19166 0.16573 0.76324 0.0
C187 C 0.19173 0.21784 0.78573 0.0
C188 C 0.1546 0.22096 0.83579 0.0
C189 C 0.11978 0.17298 0.86479 0.0
C190 C 0.23575 0.26869 0.76425 0.0
C191 C 0.25555 0.27521 0.70278 0.0
C192 C 0.30659 0.32141 0.6847 0.0
C193 C 0.30805 0.34241 0.61951 0.0
C194 C 0.35864 0.38107 0.59866 0.0
C195 C 0.40951 0.39828 0.64214 0.0
H196 H 0.35701 0.32419 0.77959 0.0
C197 C 0.40761 0.3783 0.70801 0.0
C198 C 0.35641 0.34054 0.72932 0.0
H199 H 0.44619 0.39063 0.74247 0.0
H200 H 0.16143 0.07825 0.77824 0.0
H201 H 0.22084 0.16184 0.72585 0.0
H202 H 0.15447 0.26059 0.85452 0.0
H203 H 0.09467 0.1767 0.90637 0.0
H204 H 0.25335 0.30113 0.80074 0.0
H205 H 0.23418 0.24538 0.66438 0.0
H206 H 0.27041 0.3279 0.58414 0.0
H207 H 0.35885 0.39518 0.54731 0.0
C208 C 0.93855 0.20959 0.80671 0.0
C209 C 0.91159 0.15418 0.82296 0.0
C210 C 0.91113 0.23718 0.75914 0.0
C211 C 0.85605 0.20985 0.72701 0.0
C212 C 0.83228 0.15322 0.73861 0.0
C213 C 0.85951 0.12573 0.78619 0.0
C214 C 0.81985 0.23935 0.68545 0.0
C215 C 0.82282 0.29246 0.69593 0.0
C216 C 0.78002 0.32143 0.66674 0.0
C217 C 0.78807 0.37581 0.68693 0.0
C218 C 0.74683 0.40378 0.66752 0.0
C219 C 0.69603 0.37831 0.62703 0.0
H220 H 0.7221 0.25487 0.60622 0.0
C221 C 0.68877 0.3247 0.60417 0.0
C222 C 0.73027 0.29642 0.62382 0.0
H223 H 0.65042 0.3041 0.57234 0.0
H224 H 0.9791 0.23257 0.83333 0.0
H225 H 0.93235 0.28025 0.74938 0.0
H226 H 0.79057 0.13078 0.71377 0.0
H227 H 0.83794 0.08275 0.79655 0.0
H228 H 0.78569 0.21469 0.65127 0.0
H229 H 0.85593 0.31546 0.73257 0.0
H230 H 0.82587 0.39654 0.71951 0.0
H231 H 0.75451 0.44531 0.68546 0.0
C232 C 0.7973 0.84326 0.91295 0.0
C233 C 0.83346 0.89621 0.89933 0.0
C234 C 0.74702 0.81973 0.87195 0.0
C235 C 0.73173 0.84883 0.81612 0.0
C236 C 0.76504 0.90382 0.80639 0.0
C237 C 0.81535 0.92757 0.84803 0.0
C238 C 0.68897 0.82028 0.76166 0.0
C239 C 0.64998 0.77043 0.76953 0.0
C240 C 0.62333 0.73297 0.71319 0.0
C241 C 0.61209 0.752 0.64865 0.0
C242 C 0.59035 0.71462 0.59656 0.0
C243 C 0.57977 0.65769 0.60799 0.0
H244 H 0.61996 0.66037 0.77385 0.0
C245 C 0.59062 0.63892 0.67264 0.0
C246 C 0.6116 0.67612 0.72463 0.0
H247 H 0.58243 0.59536 0.68342 0.0
H248 H 0.81023 0.81839 0.95256 0.0
H249 H 0.7238 0.77717 0.88151 0.0
H250 H 0.75442 0.92723 0.76388 0.0
H251 H 0.84269 0.96853 0.8364 0.0
H252 H 0.69532 0.83801 0.71204 0.0
H253 H 0.64278 0.75302 0.81912 0.0
H254 H 0.61952 0.79549 0.63826 0.0
H255 H 0.58184 0.73029 0.54738 0.0
loop_
_geom_bond_atom_site_label_1
_geom_bond_atom_site_label_2
_geom_bond_distance
_geom_bond_site_symmetry_2
_ccdc_geom_bond_type
C0 O12 1.241 . S
C0 O13 1.280 . S
C1 O14 1.277 . S
C1 O15 1.245 . S
C2 O26 1.247 . S
C2 O28 1.289 . S
Mg3 O4 1.926 . S
Mg3 O13 1.984 . S
Mg3 O15 1.988 1_554 S
Mg3 O16 2.061 1_655 S
O4 Mg3 1.926 . S
O4 Mg5 1.986 1_554 S
O4 Mg6 1.917 1_655 S
Mg5 O4 1.986 1_556 S
Mg5 O12 2.042 1_556 S
Mg5 O14 2.041 . S
Mg5 O20 2.038 1_546 S
Mg5 O28 2.238 1_545 S
Mg6 O4 1.917 1_455 S
Mg6 O7 1.917 1_544 S
Mg6 O17 2.107 . S
Mg6 O19 2.079 1_445 S
Mg6 O28 2.106 1_444 S
Mg6 O29 2.079 1_554 S
O7 Mg6 1.917 1_566 S
O7 Mg8 1.926 . S
O7 Mg9 1.986 1_556 S
Mg8 O7 1.926 . S
Mg8 O22 1.984 . S
Mg8 O25 1.988 1_556 S
Mg8 O26 2.061 1_455 S
Mg9 O7 1.986 1_554 S
Mg9 O17 2.238 1_565 S
Mg9 O21 2.042 1_554 S
Mg9 O23 2.041 . S
Mg9 O30 2.038 1_564 S
C10 O16 1.247 . S
C10 O17 1.289 . S
C11 O29 1.245 . S
C11 O30 1.274 . S
O12 C0 1.241 . S
O12 Mg5 2.042 1_554 S
O13 C0 1.280 . S
O13 Mg3 1.984 . S
O14 C1 1.277 . S
O14 Mg5 2.041 . S
O15 C1 1.245 . S
O15 Mg3 1.988 1_556 S
O16 Mg3 2.061 1_455 S
O16 C10 1.247 . S
O17 Mg6 2.107 . S
O17 Mg9 2.238 1_545 S
O17 C10 1.289 . S
C18 O19 1.245 . S
C18 O20 1.274 . S
O19 Mg6 2.079 1_665 S
O19 C18 1.245 . S
O20 Mg5 2.038 1_564 S
O20 C18 1.274 . S
O21 Mg9 2.042 1_556 S
O21 C24 1.241 . S
O22 Mg8 1.984 . S
O22 C24 1.280 . S
O23 Mg9 2.041 . S
O23 C27 1.277 . S
C24 O21 1.241 . S
C24 O22 1.280 . S
O25 Mg8 1.988 1_554 S
O25 C27 1.245 . S
O26 C2 1.247 . S
O26 Mg8 2.061 1_655 S
C27 O23 1.277 . S
C27 O25 1.245 . S
O28 C2 1.289 . S
O28 Mg5 2.238 1_565 S
O28 Mg6 2.106 1_666 S
O29 Mg6 2.079 1_556 S
O29 C11 1.245 . S
O30 Mg9 2.038 1_546 S
O30 C11 1.274 . S
Co31 O34 2.042 . S
Co31 O41 2.264 . S
Co31 O60 2.286 . S
Co31 O61 2.069 . S
Co31 O63 2.015 . S
Co32 O34 2.122 . S
Co32 O40 2.073 . S
Co32 O41 2.327 . S
Co32 O42 1.976 . S
Co33 O34 2.087 . S
Co33 O36 2.087 . S
Co33 O43 2.111 . S
Co33 O44 2.143 . S
Co33 O48 2.111 . S
Co33 O62 2.143 . S
O34 Co31 2.042 . S
O34 Co32 2.122 . S
O34 Co33 2.087 . S
O34 H35 0.980 . S
H35 O34 0.980 . S
O36 Co33 2.087 . S
O36 Co37 2.042 . S
O36 Co38 2.122 . S
O36 H39 0.980 . S
Co37 O36 2.042 . S
Co37 O45 2.286 . S
Co37 O46 2.069 . S
Co37 O47 2.015 . S
Co37 O50 2.264 . S
Co38 O36 2.122 . S
Co38 O49 1.976 . S
Co38 O50 2.327 . S
Co38 O51 2.073 . S
H39 O36 0.980 . S
O40 Co32 2.073 . S
O40 C55 1.245 . S
O41 Co31 2.264 . S
O41 Co32 2.327 . S
O41 C55 1.257 . S
O42 Co32 1.976 . S
O42 C54 1.251 . S
O43 Co33 2.111 . S
O43 C54 1.274 . S
O44 Co33 2.143 . S
O44 C57 1.246 . S
O45 Co37 2.286 . S
O45 C56 1.259 . S
O46 Co37 2.069 . S
O46 C56 1.289 . S
O47 Co37 2.015 . S
O47 C57 1.257 . S
O48 Co33 2.111 . S
O48 C58 1.274 . S
O49 Co38 1.976 . S
O49 C58 1.251 . S
O50 Co37 2.264 . S
O50 Co38 2.327 . S
O50 C59 1.257 . S
O51 Co38 2.073 . S
O51 C59 1.245 . S
C52 O60 1.259 . S
C52 O61 1.289 . S
C53 O62 1.246 . S
C53 O63 1.257 . S
C54 O42 1.251 . S
C54 O43 1.274 . S
C55 O40 1.245 . S
C55 O41 1.257 . S
C56 O45 1.259 . S
C56 O46 1.289 . S
C57 O44 1.246 . S
C57 O47 1.257 . S
C58 O48 1.274 . S
C58 O49 1.251 . S
C59 O50 1.257 . S
C59 O51 1.245 . S
O60 Co31 2.286 . S
O60 C52 1.259 . S
O61 Co31 2.069 . S
O61 C52 1.289 . S
O62 Co33 2.143 . S
O62 C53 1.246 . S
O63 Co31 2.015 . S
O63 C53 1.257 . S
C64 C65 1.386 . S
C64 C66 1.383 . S
C64 H80 0.951 . S
C65 C64 1.386 . S
C65 C69 1.383 . S
C66 C64 1.383 . S
C66 C67 1.402 . S
C66 H81 0.951 . S
C67 C66 1.402 . S
C67 C68 1.375 . S
C67 C70 1.481 . S
C68 C67 1.375 . S
C68 C69 1.367 . S
C68 H82 0.951 . S
C69 C65 1.383 . S
C69 C68 1.367 . S
C69 H83 0.950 . S
C70 C67 1.481 . S
C70 C71 1.297 . S
C70 H84 0.950 . S
C71 C70 1.297 . S
C71 C72 1.479 . S
C71 H85 0.950 . S
C72 C71 1.479 . S
C72 C73 1.375 . S
C72 C78 1.404 . S
C73 C72 1.375 . S
C73 C74 1.369 . S
C73 H86 0.950 . S
C74 C73 1.369 . S
C74 C75 1.392 . S
C74 H87 0.951 . S
C75 C74 1.392 . S
C75 C77 1.384 . S
H76 C78 0.949 . S
C77 C75 1.384 . S
C77 C78 1.385 . S
C77 H79 0.950 . S
C78 C72 1.404 . S
C78 H76 0.949 . S
C78 C77 1.385 . S
H79 C77 0.950 . S
H80 C64 0.951 . S
H81 C66 0.951 . S
H82 C68 0.951 . S
H83 C69 0.950 . S
H84 C70 0.950 . S
H85 C71 0.950 . S
H86 C73 0.950 . S
H87 C74 0.951 . S
C88 C89 1.386 . S
C88 C90 1.383 . S
C88 H104 0.951 . S
C89 C88 1.386 . S
C89 C93 1.383 . S
C90 C88 1.383 . S
C90 C91 1.402 . S
C90 H105 0.951 . S
C91 C90 1.402 . S
C91 C92 1.375 . S
C91 C94 1.481 . S
C92 C91 1.375 . S
C92 C93 1.367 . S
C92 H106 0.951 . S
C93 C89 1.383 . S
C93 C92 1.367 . S
C93 H107 0.950 . S
C94 C91 1.481 . S
C94 C95 1.297 . S
C94 H108 0.950 . S
C95 C94 1.297 . S
C95 C96 1.479 . S
C95 H109 0.950 . S
C96 C95 1.479 . S
C96 C97 1.375 . S
C96 C102 1.404 . S
C97 C96 1.375 . S
C97 C98 1.369 . S
C97 H110 0.950 . S
C98 C97 1.369 . S
C98 C99 1.392 . S
C98 H111 0.951 . S
C99 C98 1.392 . S
C99 C101 1.384 . S
H100 C102 0.949 . S
C101 C99 1.384 . S
C101 C102 1.385 . S
C101 H103 0.950 . S
C102 C96 1.404 . S
C102 H100 0.949 . S
C102 C101 1.385 . S
H103 C101 0.950 . S
H104 C88 0.951 . S
H105 C90 0.951 . S
H106 C92 0.951 . S
H107 C93 0.950 . S
H108 C94 0.950 . S
H109 C95 0.950 . S
H110 C97 0.950 . S
H111 C98 0.951 . S
C112 C113 1.386 . S
C112 C114 1.383 . S
C112 H128 0.951 . S
C113 C112 1.386 . S
C113 C117 1.383 . S
C114 C112 1.383 . S
C114 C115 1.402 . S
C114 H129 0.951 . S
C115 C114 1.402 . S
C115 C116 1.375 . S
C115 C118 1.481 . S
C116 C115 1.375 . S
C116 C117 1.367 . S
C116 H130 0.951 . S
C117 C113 1.383 . S
C117 C116 1.367 . S
C117 H131 0.950 . S
C118 C115 1.481 . S
C118 C119 1.297 . S
C118 H132 0.950 . S
C119 C118 1.297 . S
C119 C120 1.479 . S
C119 H133 0.950 . S
C120 C119 1.479 . S
C120 C121 1.375 . S
C120 C126 1.404 . S
C121 C120 1.375 . S
C121 C122 1.369 . S
C121 H134 0.950 . S
C122 C121 1.369 . S
C122 C123 1.392 . S
C122 H135 0.951 . S
C123 C122 1.392 . S
C123 C125 1.384 . S
H124 C126 0.949 . S
C125 C123 1.384 . S
C125 C126 1.385 . S
C125 H127 0.950 . S
C126 C120 1.404 . S
C126 H124 0.949 . S
C126 C125 1.385 . S
H127 C125 0.950 . S
H128 C112 0.951 . S
H129 C114 0.951 . S
H130 C116 0.951 . S
H131 C117 0.950 . S
H132 C118 0.950 . S
H133 C119 0.950 . S
H134 C121 0.950 . S
H135 C122 0.951 . S
C136 C137 1.386 . S
C136 C138 1.383 . S
C136 H152 0.951 . S
C137 C136 1.386 . S
C137 C141 1.383 . S
C138 C136 1.383 . S
C138 C139 1.402 . S
C138 H153 0.951 . S
C139 C138 1.402 . S
C139 C140 1.375 . S
C139 C142 1.481 . S
C140 C139 1.375 . S
C140 C141 1.367 . S
C140 H154 0.951 . S
C141 C137 1.383 . S
C141 C140 1.367 . S
C141 H155 0.950 . S
C142 C139 1.481 . S
C142 C143 1.297 . S
C142 H156 0.950 . S
C143 C142 1.297 . S
C143 C144 1.479 . S
C143 H157 0.950 . S
C144 C143 1.479 . S
C144 C145 1.375 . S
C144 C150 1.404 . S
C145 C144 1.375 . S
C145 C146 1.369 . S
C145 H158 0.950 . S
C146 C145 1.369 . S
C146 C147 1.392 . S
C146 H159 0.951 . S
C147 C146 1.392 . S
C147 C149 1.384 . S
H148 C150 0.949 . S
C149 C147 1.384 . S
C149 C150 1.385 . S
C149 H151 0.950 . S
C150 C144 1.404 . S
C150 H148 0.949 . S
C150 C149 1.385 . S
H151 C149 0.950 . S
H152 C136 0.951 . S
H153 C138 0.951 . S
H154 C140 0.951 . S
H155 C141 0.950 . S
H156 C142 0.950 . S
H157 C143 0.950 . S
H158 C145 0.950 . S
H159 C146 0.951 . S
C160 C161 1.386 . S
C160 C162 1.383 . S
C160 H176 0.951 . S
C161 C160 1.386 . S
C161 C165 1.383 . S
C162 C160 1.383 . S
C162 C163 1.402 . S
C162 H177 0.951 . S
C163 C162 1.402 . S
C163 C164 1.375 . S
C163 C166 1.481 . S
C164 C163 1.375 . S
C164 C165 1.367 . S
C164 H178 0.951 . S
C165 C161 1.383 . S
C165 C164 1.367 . S
C165 H179 0.950 . S
C166 C163 1.481 . S
C166 C167 1.297 . S
C166 H180 0.950 . S
C167 C166 1.297 . S
C167 C168 1.479 . S
C167 H181 0.950 . S
C168 C167 1.479 . S
C168 C169 1.375 . S
C168 C174 1.404 . S
C169 C168 1.375 . S
C169 C170 1.369 . S
C169 H182 0.950 . S
C170 C169 1.369 . S
C170 C171 1.392 . S
C170 H183 0.951 . S
C171 C170 1.392 . S
C171 C173 1.384 . S
H172 C174 0.949 . S
C173 C171 1.384 . S
C173 C174 1.385 . S
C173 H175 0.950 . S
C174 C168 1.404 . S
C174 H172 0.949 . S
C174 C173 1.385 . S
H175 C173 0.950 . S
H176 C160 0.951 . S
H177 C162 0.951 . S
H178 C164 0.951 . S
H179 C165 0.950 . S
H180 C166 0.950 . S
H181 C167 0.950 . S
H182 C169 0.950 . S
H183 C170 0.951 . S
C184 C185 1.386 . S
C184 C186 1.383 . S
C184 H200 0.951 . S
C185 C184 1.386 . S
C185 C189 1.383 . S
C186 C184 1.383 . S
C186 C187 1.402 . S
C186 H201 0.951 . S
C187 C186 1.402 . S
C187 C188 1.375 . S
C187 C190 1.481 . S
C188 C187 1.375 . S
C188 C189 1.367 . S
C188 H202 0.951 . S
C189 C185 1.383 . S
C189 C188 1.367 . S
C189 H203 0.950 . S
C190 C187 1.481 . S
C190 C191 1.297 . S
C190 H204 0.950 . S
C191 C190 1.297 . S
C191 C192 1.479 . S
C191 H205 0.950 . S
C192 C191 1.479 . S
C192 C193 1.375 . S
C192 C198 1.404 . S
C193 C192 1.375 . S
C193 C194 1.369 . S
C193 H206 0.950 . S
C194 C193 1.369 . S
C194 C195 1.392 . S
C194 H207 0.951 . S
C195 C194 1.392 . S
C195 C197 1.384 . S
H196 C198 0.949 . S
C197 C195 1.384 . S
C197 C198 1.385 . S
C197 H199 0.950 . S
C198 C192 1.404 . S
C198 H196 0.949 . S
C198 C197 1.385 . S
H199 C197 0.950 . S
H200 C184 0.951 . S
H201 C186 0.951 . S
H202 C188 0.951 . S
H203 C189 0.950 . S
H204 C190 0.950 . S
H205 C191 0.950 . S
H206 C193 0.950 . S
H207 C194 0.951 . S
C208 C209 1.386 . S
C208 C210 1.383 . S
C208 H224 0.951 . S
C209 C208 1.386 . S
C209 C213 1.383 . S
C210 C208 1.383 . S
C210 C211 1.402 . S
C210 H225 0.951 . S
C211 C210 1.402 . S
C211 C212 1.375 . S
C211 C214 1.481 . S
C212 C211 1.375 . S
C212 C213 1.367 . S
C212 H226 0.951 . S
C213 C209 1.383 . S
C213 C212 1.367 . S
C213 H227 0.950 . S
C214 C211 1.481 . S
C214 C215 1.297 . S
C214 H228 0.950 . S
C215 C214 1.297 . S
C215 C216 1.479 . S
C215 H229 0.950 . S
C216 C215 1.479 . S
C216 C217 1.375 . S
C216 C222 1.404 . S
C217 C216 1.375 . S
C217 C218 1.369 . S
C217 H230 0.950 . S
C218 C217 1.369 . S
C218 C219 1.392 . S
C218 H231 0.951 . S
C219 C218 1.392 . S
C219 C221 1.384 . S
H220 C222 0.949 . S
C221 C219 1.384 . S
C221 C222 1.385 . S
C221 H223 0.950 . S
C222 C216 1.404 . S
C222 H220 0.949 . S
C222 C221 1.385 . S
H223 C221 0.950 . S
H224 C208 0.951 . S
H225 C210 0.951 . S
H226 C212 0.951 . S
H227 C213 0.950 . S
H228 C214 0.950 . S
H229 C215 0.950 . S
H230 C217 0.950 . S
H231 C218 0.951 . S
C232 C233 1.386 . S
C232 C234 1.383 . S
C232 H248 0.951 . S
C233 C232 1.386 . S
C233 C237 1.383 . S
C234 C232 1.383 . S
C234 C235 1.402 . S
C234 H249 0.951 . S
C235 C234 1.402 . S
C235 C236 1.375 . S
C235 C238 1.481 . S
C236 C235 1.375 . S
C236 C237 1.367 . S
C236 H250 0.951 . S
C237 C233 1.383 . S
C237 C236 1.367 . S
C237 H251 0.950 . S
C238 C235 1.481 . S
C238 C239 1.297 . S
C238 H252 0.950 . S
C239 C238 1.297 . S
C239 C240 1.479 . S
C239 H253 0.950 . S
C240 C239 1.479 . S
C240 C241 1.375 . S
C240 C246 1.404 . S
C241 C240 1.375 . S
C241 C242 1.369 . S
C241 H254 0.950 . S
C242 C241 1.369 . S
C242 C243 1.392 . S
C242 H255 0.951 . S
C243 C242 1.392 . S
C243 C245 1.384 . S
H244 C246 0.949 . S
C245 C243 1.384 . S
C245 C246 1.385 . S
C245 H247 0.950 . S
C246 C240 1.404 . S
C246 H244 0.949 . S
C246 C245 1.385 . S
H247 C245 0.950 . S
H248 C232 0.951 . S
H249 C234 0.951 . S
H250 C236 0.951 . S
H251 C237 0.950 . S
H252 C238 0.950 . S
H253 C239 0.950 . S
H254 C241 0.950 . S
H255 C242 0.951 . S
C65 C10 1.041 . S
C75 C53 1.066 . S
C89 C0 1.681 . S
C99 C52 1.721 . S
C113 C18 1.474 . S
C123 C58 1.484 . S
C137 C27 1.630 . S
C147 C59 1.621 . S
C161 C24 1.670 . S
C171 C56 1.712 . S
C195 C54 1.446 . S
C185 C11 1.439 . S
C209 C1 1.634 . S
C219 C55 1.588 . S
C243 C57 1.132 . S
C233 C2 1.083 . S
