# Generated by pormake.
# Topology pth, (4,4)-cn, num edge types: 1
# Building blocks:
#     Node 0, Type 0, BuildingBlock: QUQFOY_clean_sbu_1, # of connection points: 4
#     Node 1, Type 0, BuildingBlock: QUQFOY_clean_sbu_1, # of connection points: 4
#     Node 2, Type 0, BuildingBlock: QUQFOY_clean_sbu_1, # of connection points: 4
#     Node 3, Type 1, BuildingBlock: KOZSID_clean_sbu_0, # of connection points: 4
#     Node 4, Type 1, BuildingBlock: KOZSID_clean_sbu_0, # of connection points: 4
#     Node 5, Type 1, BuildingBlock: KOZSID_clean_sbu_0, # of connection points: 4
#     Edge 6, Type (0, 1), None
#     Edge 7, Type (0, 1), None
#     Edge 8, Type (0, 1), None
#     Edge 9, Type (0, 1), None
#     Edge 10, Type (0, 1), None
#     Edge 11, Type (0, 1), None
#     Edge 12, Type (0, 1), None
#     Edge 13, Type (0, 1), None
#     Edge 14, Type (0, 1), None
#     Edge 15, Type (0, 1), None
#     Edge 16, Type (0, 1), None
#     Edge 17, Type (0, 1), None
# Relax obj value: 0.028
# Max RMSD: 0.135
# Mean RMSD: 0.073
data_MOF--net-pth--node1-QUQFOY_clean_sbu_1--node2-KOZSID_clean_sbu_0--edge1-none
_symmetry_space_group_name_H-M    P1
_symmetry_Int_Tables_number       1
_symmetry_cell_setting            triclinic
loop_
_symmetry_equiv_pos_as_xyz
'x, y, z'
_cell_length_a     12.808928
_cell_length_b     14.285848
_cell_length_c     31.015642
_cell_angle_alpha  85.901545
_cell_angle_beta   84.394923
_cell_angle_gamma 120.4162
loop_
_atom_site_label
_atom_site_type_symbol
_atom_site_fract_x
_atom_site_fract_y
_atom_site_fract_z
_atom_type_partial_charge
O0 O 0.18178 0.23203 0.99443 0.0
Cd1 Cd 0.03117 0.14355 0.04141 0.0
Cd2 Cd 0.14142 0.03469 0.05806 0.0
O3 O 0.2881 0.19886 0.0376 0.0
O4 O 0.98969 0.25487 0.05873 0.0
O5 O 0.0718 0.18544 0.10065 0.0
C6 C 0.0419 0.25839 0.09276 0.0
C7 C 0.14348 0.91007 0.11168 0.0
C8 C 0.28403 0.26051 1.0067 0.0
C9 C 0.92464 0.92841 1.01188 0.0
O10 O 0.03142 0.94625 1.01423 0.0
O11 O 0.89271 0.99216 0.02748 0.0
O12 O 0.21028 0.94121 0.07369 0.0
O13 O 0.08024 0.95538 0.12087 0.0
O14 O 0.99103 0.18386 0.43417 0.0
Cd15 Cd 0.13506 0.23843 0.38624 0.0
Cd16 Cd 0.02877 0.02383 0.38242 0.0
O17 O 0.87648 0.03886 0.4035 0.0
O18 O 0.18733 0.39595 0.36887 0.0
O19 O 0.10074 0.26765 0.32625 0.0
C20 C 0.14015 0.36726 0.33366 0.0
C21 C 0.05042 0.91658 0.33187 0.0
C22 C 0.88604 0.10645 0.42999 0.0
C23 C 0.24312 0.12582 0.42841 0.0
O24 O 0.13894 0.04124 0.4284 0.0
O25 O 0.27273 0.21661 0.40597 0.0
O26 O 0.97325 0.8724 0.36774 0.0
O27 O 0.10678 0.02202 0.32226 0.0
O28 O 0.96402 0.01912 0.6812 0.0
Cd29 Cd 0.06333 0.99787 0.72494 0.0
Cd30 Cd 0.193 0.21108 0.70631 0.0
O31 O 0.03915 0.19547 0.68338 0.0
O32 O 0.95368 0.8407 0.75075 0.0
O33 O 0.99586 0.97692 0.78918 0.0
C34 C 0.93595 0.87306 0.787 0.0
C35 C 0.29465 0.30544 0.76155 0.0
C36 C 0.96197 0.10574 0.67108 0.0
C37 C 0.30934 0.09788 0.66958 0.0
O38 O 0.2998 0.18154 0.66308 0.0
O39 O 0.23168 0.01827 0.69852 0.0
O40 O 0.30699 0.35688 0.72362 0.0
O41 O 0.21608 0.20111 0.76929 0.0
C42 C 0.25464 0.82727 0.14754 0.0
C43 C 0.36936 0.91055 0.12629 0.0
C44 C 0.45211 0.88316 0.13706 0.0
C45 C 0.38452 0.78634 0.16477 0.0
N46 N 0.26378 0.75022 0.17221 0.0
Co47 Co 0.136 0.61687 0.21268 0.0
N48 N 0.26251 0.60807 0.24293 0.0
C49 C 0.38416 0.66448 0.22865 0.0
C50 C 0.45002 0.64107 0.25501 0.0
C51 C 0.36479 0.56307 0.28781 0.0
C52 C 0.25099 0.543 0.27946 0.0
N53 N 0.00943 0.48008 0.25176 0.0
C54 C 0.02004 0.42136 0.28582 0.0
C55 C 0.90864 0.32583 0.30126 0.0
C56 C 0.82698 0.32282 0.27511 0.0
C57 C 0.89231 0.41652 0.24533 0.0
N58 N 0.01213 0.6302 0.18314 0.0
C59 C 0.89417 0.55102 0.18514 0.0
C60 C 0.82966 0.58473 0.16226 0.0
C61 C 0.91241 0.69193 0.14478 0.0
C62 C 0.0233 0.71818 0.15816 0.0
N63 N 0.14276 0.52165 0.17049 0.0
C64 C 0.07718 0.34967 0.11952 0.0
C65 C 0.08282 0.44688 0.1035 0.0
C66 C 0.11794 0.5324 0.12907 0.0
C67 C 0.11508 0.34466 0.15997 0.0
C68 C 0.1475 0.43096 0.18473 0.0
N69 N 0.12012 0.70848 0.25486 0.0
C70 C 0.98253 0.74065 0.30196 0.0
C71 C 0.07593 0.84733 0.30411 0.0
C72 C 0.19386 0.88253 0.28216 0.0
C73 C 0.21452 0.81115 0.25839 0.0
C74 C 0.00572 0.67396 0.27691 0.0
H75 H 0.30605 0.8401 0.24212 0.0
H76 H 0.92825 0.59559 0.27438 0.0
H77 H 0.11914 0.60508 0.11606 0.0
H78 H 0.17 0.42054 0.21642 0.0
C79 C 0.43432 0.74236 0.19151 0.0
C80 C 0.13952 0.8233 0.14301 0.0
C81 C 0.13538 0.44815 0.30191 0.0
C82 C 0.84481 0.45266 0.21356 0.0
H83 H 0.39275 0.98537 0.10611 0.0
H84 H 0.55083 0.93216 0.12828 0.0
H85 H 0.54818 0.67548 0.25057 0.0
H86 H 0.38434 0.5216 0.31349 0.0
H87 H 0.88899 0.26347 0.328 0.0
H88 H 0.73124 0.26003 0.2777 0.0
H89 H 0.73318 0.53817 0.15962 0.0
H90 H 0.89347 0.74423 0.12418 0.0
H91 H 0.05984 0.45693 0.07148 0.0
H92 H 0.11653 0.27309 0.17314 0.0
H93 H 0.89036 0.70942 0.31863 0.0
H94 H 0.26988 0.96374 0.28393 0.0
C95 C 0.39222 0.99068 0.62959 0.0
C96 C 0.30385 0.88767 0.65191 0.0
C97 C 0.30884 0.81225 0.62884 0.0
C98 C 0.39975 0.87233 0.5941 0.0
N99 N 0.4551 0.98204 0.59368 0.0
Co100 Co 0.59498 0.09816 0.54908 0.0
N101 N 0.60052 0.98472 0.51545 0.0
C102 C 0.52848 0.87469 0.52575 0.0
C103 C 0.55349 0.81709 0.49736 0.0
C104 C 0.64847 0.89474 0.46713 0.0
C105 C 0.67605 0.99594 0.47893 0.0
N106 N 0.73133 0.21338 0.50384 0.0
C107 C 0.78816 0.20276 0.46688 0.0
C108 C 0.86789 0.3041 0.44173 0.0
C109 C 0.86493 0.38135 0.46445 0.0
C110 C 0.78223 0.32322 0.50165 0.0
N111 N 0.5918 0.21065 0.58333 0.0
C112 C 0.67055 0.32044 0.57505 0.0
C113 C 0.65413 0.37612 0.6066 0.0
C114 C 0.55847 0.29743 0.63658 0.0
C115 C 0.51975 0.1977 0.62112 0.0
N116 N 0.71516 0.0967 0.58473 0.0
C117 C 0.87489 0.10241 0.64233 0.0
C118 C 0.89698 0.19815 0.61812 0.0
C119 C 0.81807 0.1932 0.58928 0.0
C120 C 0.77346 1.00281 0.63621 0.0
C121 C 0.6952 1.00182 0.60745 0.0
N122 N 0.47705 0.1034 0.51343 0.0
C123 C 0.41667 0.21151 0.4706 0.0
C124 C 0.32565 0.11817 0.45667 0.0
C125 C 0.30932 0.01643 0.47243 0.0
C126 C 0.38582 0.01094 0.50053 0.0
C127 C 0.48902 0.20209 0.49928 0.0
H128 H 0.36984 0.9315 0.51145 0.0
H129 H 0.5538 0.27635 0.50953 0.0
H130 H 0.84295 0.26911 0.57108 0.0
H131 H 0.61924 0.92371 0.60412 0.0
C132 C 0.43746 0.82768 0.56217 0.0
C133 C 0.4097 0.09428 0.64202 0.0
C134 C 0.77804 0.10028 0.45604 0.0
C135 C 0.75437 0.36912 0.53613 0.0
H136 H 0.24175 0.86654 0.68191 0.0
H137 H 0.25314 0.72387 0.63664 0.0
H138 H 0.50837 0.72897 0.49864 0.0
H139 H 0.6916 0.87733 0.43977 0.0
H140 H 0.92464 0.32065 0.41063 0.0
H141 H 0.9181 0.46943 0.45522 0.0
H142 H 0.70466 0.46365 0.60744 0.0
H143 H 0.52069 0.31234 0.66623 0.0
H144 H 0.97647 0.27679 0.62062 0.0
H145 H 0.754 0.9259 0.65366 0.0
H146 H 0.43044 0.29159 0.4603 0.0
H147 H 0.23829 0.94131 0.46298 0.0
C148 C 0.8576 0.69771 0.83847 0.0
C149 C 0.95808 0.68945 0.82346 0.0
C150 C 0.933 0.58874 0.84116 0.0
C151 C 0.81967 0.54169 0.86614 0.0
N152 N 0.77108 0.60617 0.86563 0.0
Co153 Co 0.61052 0.57016 0.899 0.0
N154 N 0.59468 0.44087 0.93592 0.0
C155 C 0.6675 0.39885 0.92939 0.0
C156 C 0.63695 0.31068 0.95944 0.0
C157 C 0.53633 0.29327 0.98635 0.0
C158 C 0.51043 0.372 0.97095 0.0
N159 N 0.44935 0.53266 0.93195 0.0
C160 C 0.37836 0.45664 0.96744 0.0
C161 C 0.27509 0.46243 0.98055 0.0
C162 C 0.27735 0.53903 0.9508 0.0
C163 C 0.3827 0.57756 0.9217 0.0
N164 N 0.62837 0.69994 0.86249 0.0
C165 C 0.53922 0.7226 0.85906 0.0
C166 C 0.57774 0.81747 0.83157 0.0
C167 C 0.69878 0.8571 0.81647 0.0
C168 C 0.72769 0.78411 0.83581 0.0
N169 N 0.52316 0.47652 0.85556 0.0
C170 C 0.37371 0.36358 0.79415 0.0
C171 C 0.484 0.46354 0.78102 0.0
C172 C 0.55802 0.51749 0.81197 0.0
C173 C 0.34337 0.3183 0.83827 0.0
C174 C 0.41876 0.37606 0.86835 0.0
N175 N 0.69632 0.66751 0.94169 0.0
C176 C 0.7327 0.8227 0.97867 0.0
C177 C 0.84112 0.83443 0.99002 0.0
C178 C 0.87163 0.7565 0.97884 0.0
C179 C 0.79786 0.67358 0.95505 0.0
C180 C 0.66222 0.73934 0.95462 0.0
H181 H 0.82561 0.61699 0.94619 0.0
H182 H 0.58274 0.73681 0.94506 0.0
H183 H 0.64166 0.59439 0.80059 0.0
H184 H 0.3897 0.34018 0.90204 0.0
C185 C 0.76694 0.44665 0.89591 0.0
C186 C 0.84622 0.79168 0.82438 0.0
C187 C 0.39513 0.36733 0.98554 0.0
C188 C 0.42696 0.66215 0.8868 0.0
H189 H 0.04145 0.75019 0.80218 0.0
H190 H 0.99274 0.55588 0.83786 0.0
H191 H 0.682 0.26399 0.96137 0.0
H192 H 0.48659 0.22738 1.01325 0.0
H193 H 0.20333 0.41381 1.00799 0.0
H194 H 0.2105 0.56405 0.9506 0.0
H195 H 0.52516 0.85507 0.82432 0.0
H196 H 0.75847 0.93065 0.79345 0.0
H197 H 0.51338 0.50013 0.74698 0.0
H198 H 0.26031 0.24006 0.84979 0.0
H199 H 0.70443 0.87985 0.98687 0.0
H200 H 0.95354 0.76062 0.98758 0.0
loop_
_geom_bond_atom_site_label_1
_geom_bond_atom_site_label_2
_geom_bond_distance
_geom_bond_site_symmetry_2
_ccdc_geom_bond_type
O0 Cd1 2.223 1_556 S
O0 C8 1.315 . S
Cd1 O0 2.223 1_554 S
Cd1 O4 2.297 . S
Cd1 O5 2.439 . S
Cd1 O11 2.240 1_545 S
Cd2 O3 2.240 . S
Cd2 O10 2.223 1_544 S
Cd2 O12 2.297 1_545 S
Cd2 O13 2.439 1_545 S
O3 Cd2 2.240 . S
O3 C8 1.279 1_554 S
O4 Cd1 2.297 . S
O4 C6 1.247 . S
O5 Cd1 2.439 . S
O5 C6 1.208 . S
C6 O4 1.247 . S
C6 O5 1.208 . S
C7 O12 1.247 . S
C7 O13 1.208 . S
C8 O0 1.315 . S
C8 O3 1.279 1_556 S
C9 O10 1.315 . S
C9 O11 1.279 1_556 S
O10 Cd2 2.223 1_566 S
O10 C9 1.315 . S
O11 Cd1 2.240 1_565 S
O11 C9 1.279 1_554 S
O12 Cd2 2.297 1_565 S
O12 C7 1.247 . S
O13 Cd2 2.439 1_565 S
O13 C7 1.208 . S
O14 Cd15 2.223 . S
O14 C22 1.315 1_455 S
Cd15 O14 2.223 . S
Cd15 O18 2.297 . S
Cd15 O19 2.439 . S
Cd15 O25 2.240 . S
Cd16 O17 2.240 1_565 S
Cd16 O24 2.223 1_655 S
Cd16 O26 2.297 1_655 S
Cd16 O27 2.439 1_655 S
O17 Cd16 2.240 1_545 S
O17 C22 1.279 . S
O18 Cd15 2.297 . S
O18 C20 1.247 . S
O19 Cd15 2.439 . S
O19 C20 1.208 . S
C20 O18 1.247 . S
C20 O19 1.208 . S
C21 O26 1.247 . S
C21 O27 1.208 . S
C22 O14 1.315 1_655 S
C22 O17 1.279 . S
C23 O24 1.315 1_545 S
C23 O25 1.279 . S
O24 Cd16 2.223 1_455 S
O24 C23 1.315 1_565 S
O25 Cd15 2.240 . S
O25 C23 1.279 . S
O26 Cd16 2.297 1_455 S
O26 C21 1.247 . S
O27 Cd16 2.439 1_455 S
O27 C21 1.208 . S
O28 Cd29 2.223 1_655 S
O28 C36 1.315 1_565 S
Cd29 O28 2.223 1_455 S
Cd29 O32 2.297 1_455 S
Cd29 O33 2.439 1_455 S
Cd29 O39 2.240 1_565 S
Cd30 O31 2.240 . S
Cd30 O38 2.223 . S
Cd30 O40 2.297 . S
Cd30 O41 2.439 . S
O31 Cd30 2.240 . S
O31 C36 1.279 1_455 S
O32 Cd29 2.297 1_655 S
O32 C34 1.247 . S
O33 Cd29 2.439 1_655 S
O33 C34 1.208 . S
C34 O32 1.247 . S
C34 O33 1.208 . S
C35 O40 1.247 . S
C35 O41 1.208 . S
C36 O28 1.315 1_545 S
C36 O31 1.279 1_655 S
C37 O38 1.315 . S
C37 O39 1.279 . S
O38 Cd30 2.223 . S
O38 C37 1.315 . S
O39 Cd29 2.240 1_545 S
O39 C37 1.279 . S
O40 Cd30 2.297 . S
O40 C35 1.247 . S
O41 Cd30 2.439 . S
O41 C35 1.208 . S
C42 C43 1.443 . S
C42 N46 1.376 . S
C42 C80 1.389 . S
C43 C42 1.443 . S
C43 C44 1.340 . S
C43 H83 0.951 . S
C44 C43 1.340 . S
C44 C45 1.439 . S
C44 H84 0.950 . S
C45 C44 1.439 . S
C45 N46 1.374 . S
C45 C79 1.395 . S
N46 C42 1.376 . S
N46 C45 1.374 . S
N46 Co47 2.008 . S
Co47 N46 2.008 . S
Co47 N48 1.995 . S
Co47 N53 2.008 1_455 S
Co47 N58 1.995 1_455 S
Co47 N63 2.282 . S
Co47 N69 2.282 . S
N48 Co47 1.995 . S
N48 C49 1.376 . S
N48 C52 1.383 . S
C49 N48 1.376 . S
C49 C50 1.446 . S
C49 C79 1.391 . S
C50 C49 1.446 . S
C50 C51 1.339 . S
C50 H85 0.949 . S
C51 C50 1.339 . S
C51 C52 1.439 . S
C51 H86 0.950 . S
C52 N48 1.383 . S
C52 C51 1.439 . S
C52 C81 1.392 . S
N53 Co47 2.008 1_655 S
N53 C54 1.376 . S
N53 C57 1.374 . S
C54 N53 1.376 . S
C54 C55 1.443 . S
C54 C81 1.389 1_655 S
C55 C54 1.443 . S
C55 C56 1.340 . S
C55 H87 0.951 . S
C56 C55 1.340 . S
C56 C57 1.439 . S
C56 H88 0.950 . S
C57 N53 1.374 . S
C57 C56 1.439 . S
C57 C82 1.395 . S
N58 Co47 1.995 1_655 S
N58 C59 1.376 . S
N58 C62 1.383 . S
C59 N58 1.376 . S
C59 C60 1.446 . S
C59 C82 1.391 . S
C60 C59 1.446 . S
C60 C61 1.339 . S
C60 H89 0.949 . S
C61 C60 1.339 . S
C61 C62 1.439 . S
C61 H90 0.950 . S
C62 N58 1.383 . S
C62 C61 1.439 . S
C62 C80 1.392 1_655 S
N63 Co47 2.282 . S
N63 C66 1.332 1_455 S
N63 C68 1.332 . S
C64 C65 1.386 1_455 S
C64 C67 1.388 . S
C65 C64 1.386 1_655 S
C65 C66 1.382 . S
C65 H91 0.950 . S
C66 N63 1.332 1_655 S
C66 C65 1.382 . S
C66 H77 0.952 . S
C67 C64 1.388 . S
C67 C68 1.382 . S
C67 H92 0.950 . S
C68 N63 1.332 . S
C68 C67 1.382 . S
C68 H78 0.948 . S
N69 Co47 2.282 . S
N69 C73 1.332 . S
N69 C74 1.332 1_455 S
C70 C71 1.388 1_655 S
C70 C74 1.382 . S
C70 H93 0.950 . S
C71 C70 1.388 1_455 S
C71 C72 1.386 . S
C72 C71 1.386 . S
C72 C73 1.382 . S
C72 H94 0.950 . S
C73 N69 1.332 . S
C73 C72 1.382 . S
C73 H75 0.952 . S
C74 N69 1.332 1_655 S
C74 C70 1.382 . S
C74 H76 0.948 . S
H75 C73 0.952 . S
H76 C74 0.948 . S
H77 C66 0.952 . S
H78 C68 0.948 . S
C79 C45 1.395 . S
C79 C49 1.391 . S
C80 C42 1.389 . S
C80 C62 1.392 1_455 S
C81 C52 1.392 . S
C81 C54 1.389 1_455 S
C82 C57 1.395 . S
C82 C59 1.391 . S
H83 C43 0.951 . S
H84 C44 0.950 . S
H85 C50 0.949 . S
H86 C51 0.950 . S
H87 C55 0.951 . S
H88 C56 0.950 . S
H89 C60 0.949 . S
H90 C61 0.950 . S
H91 C65 0.950 . S
H92 C67 0.950 . S
H93 C70 0.950 . S
H94 C72 0.950 . S
C95 C96 1.443 1_545 S
C95 N99 1.376 1_545 S
C95 C133 1.389 . S
C96 C95 1.443 1_565 S
C96 C97 1.340 . S
C96 H136 0.951 . S
C97 C96 1.340 . S
C97 C98 1.439 . S
C97 H137 0.950 . S
C98 C97 1.439 . S
C98 N99 1.374 . S
C98 C132 1.395 . S
N99 C95 1.376 1_565 S
N99 C98 1.374 . S
N99 Co100 2.008 1_565 S
Co100 N99 2.008 1_545 S
Co100 N101 1.995 . S
Co100 N106 2.008 . S
Co100 N111 1.995 . S
Co100 N116 2.282 . S
Co100 N122 2.282 . S
N101 Co100 1.995 . S
N101 C102 1.376 1_545 S
N101 C105 1.383 . S
C102 N101 1.376 1_565 S
C102 C103 1.446 . S
C102 C132 1.391 . S
C103 C102 1.446 . S
C103 C104 1.339 . S
C103 H138 0.949 . S
C104 C103 1.339 . S
C104 C105 1.439 1_565 S
C104 H139 0.950 . S
C105 N101 1.383 . S
C105 C104 1.439 1_545 S
C105 C134 1.392 . S
N106 Co100 2.008 . S
N106 C107 1.376 . S
N106 C110 1.374 . S
C107 N106 1.376 . S
C107 C108 1.443 . S
C107 C134 1.389 . S
C108 C107 1.443 . S
C108 C109 1.340 . S
C108 H140 0.951 1_655 S
C109 C108 1.340 . S
C109 C110 1.439 . S
C109 H141 0.950 . S
C110 N106 1.374 . S
C110 C109 1.439 . S
C110 C135 1.395 . S
N111 Co100 1.995 . S
N111 C112 1.376 . S
N111 C115 1.383 . S
C112 N111 1.376 . S
C112 C113 1.446 . S
C112 C135 1.391 . S
C113 C112 1.446 . S
C113 C114 1.339 . S
C113 H142 0.949 . S
C114 C113 1.339 . S
C114 C115 1.439 . S
C114 H143 0.950 . S
C115 N111 1.383 . S
C115 C114 1.439 . S
C115 C133 1.392 . S
N116 Co100 2.282 . S
N116 C119 1.332 . S
N116 C121 1.332 . S
C117 C118 1.386 . S
C117 C120 1.388 . S
C118 C117 1.386 . S
C118 C119 1.382 . S
C118 H144 0.950 . S
C119 N116 1.332 . S
C119 C118 1.382 . S
C119 H130 0.952 . S
C120 C117 1.388 . S
C120 C121 1.382 . S
C120 H145 0.950 1_545 S
C121 N116 1.332 . S
C121 C120 1.382 . S
C121 H131 0.948 1_545 S
N122 Co100 2.282 . S
N122 C126 1.332 . S
N122 C127 1.332 . S
C123 C124 1.388 . S
C123 C127 1.382 . S
C123 H146 0.950 . S
C124 C123 1.388 . S
C124 C125 1.386 . S
C125 C124 1.386 . S
C125 C126 1.382 . S
C125 H147 0.950 1_545 S
C126 N122 1.332 . S
C126 C125 1.382 . S
C126 H128 0.952 1_545 S
C127 N122 1.332 . S
C127 C123 1.382 . S
C127 H129 0.948 . S
H128 C126 0.952 1_565 S
H129 C127 0.948 . S
H130 C119 0.952 . S
H131 C121 0.948 1_565 S
C132 C98 1.395 . S
C132 C102 1.391 . S
C133 C95 1.389 . S
C133 C115 1.392 . S
C134 C105 1.392 . S
C134 C107 1.389 . S
C135 C110 1.395 . S
C135 C112 1.391 . S
H136 C96 0.951 . S
H137 C97 0.950 . S
H138 C103 0.949 . S
H139 C104 0.950 . S
H140 C108 0.951 1_455 S
H141 C109 0.950 . S
H142 C113 0.949 . S
H143 C114 0.950 . S
H144 C118 0.950 . S
H145 C120 0.950 1_565 S
H146 C123 0.950 . S
H147 C125 0.950 1_565 S
C148 C149 1.443 1_655 S
C148 N152 1.376 . S
C148 C186 1.389 . S
C149 C148 1.443 1_455 S
C149 C150 1.340 . S
C149 H189 0.951 . S
C150 C149 1.340 . S
C150 C151 1.439 1_455 S
C150 H190 0.950 . S
C151 C150 1.439 1_655 S
C151 N152 1.374 . S
C151 C185 1.395 . S
N152 C148 1.376 . S
N152 C151 1.374 . S
N152 Co153 2.008 . S
Co153 N152 2.008 . S
Co153 N154 1.995 . S
Co153 N159 2.008 . S
Co153 N164 1.995 . S
Co153 N169 2.282 . S
Co153 N175 2.282 . S
N154 Co153 1.995 . S
N154 C155 1.376 . S
N154 C158 1.383 . S
C155 N154 1.376 . S
C155 C156 1.446 . S
C155 C185 1.391 . S
C156 C155 1.446 . S
C156 C157 1.339 . S
C156 H191 0.949 . S
C157 C156 1.339 . S
C157 C158 1.439 . S
C157 H192 0.950 . S
C158 N154 1.383 . S
C158 C157 1.439 . S
C158 C187 1.392 . S
N159 Co153 2.008 . S
N159 C160 1.376 . S
N159 C163 1.374 . S
C160 N159 1.376 . S
C160 C161 1.443 . S
C160 C187 1.389 . S
C161 C160 1.443 . S
C161 C162 1.340 . S
C161 H193 0.951 . S
C162 C161 1.340 . S
C162 C163 1.439 . S
C162 H194 0.950 . S
C163 N159 1.374 . S
C163 C162 1.439 . S
C163 C188 1.395 . S
N164 Co153 1.995 . S
N164 C165 1.376 . S
N164 C168 1.383 . S
C165 N164 1.376 . S
C165 C166 1.446 . S
C165 C188 1.391 . S
C166 C165 1.446 . S
C166 C167 1.339 . S
C166 H195 0.949 . S
C167 C166 1.339 . S
C167 C168 1.439 . S
C167 H196 0.950 . S
C168 N164 1.383 . S
C168 C167 1.439 . S
C168 C186 1.392 . S
N169 Co153 2.282 . S
N169 C172 1.332 . S
N169 C174 1.332 . S
C170 C171 1.386 . S
C170 C173 1.388 . S
C171 C170 1.386 . S
C171 C172 1.382 . S
C171 H197 0.950 . S
C172 N169 1.332 . S
C172 C171 1.382 . S
C172 H183 0.952 . S
C173 C170 1.388 . S
C173 C174 1.382 . S
C173 H198 0.950 . S
C174 N169 1.332 . S
C174 C173 1.382 . S
C174 H184 0.948 . S
N175 Co153 2.282 . S
N175 C179 1.332 . S
N175 C180 1.332 . S
C176 C177 1.388 . S
C176 C180 1.382 . S
C176 H199 0.950 . S
C177 C176 1.388 . S
C177 C178 1.386 . S
C178 C177 1.386 . S
C178 C179 1.382 . S
C178 H200 0.950 . S
C179 N175 1.332 . S
C179 C178 1.382 . S
C179 H181 0.952 . S
C180 N175 1.332 . S
C180 C176 1.382 . S
C180 H182 0.948 . S
H181 C179 0.952 . S
H182 C180 0.948 . S
H183 C172 0.952 . S
H184 C174 0.948 . S
C185 C151 1.395 . S
C185 C155 1.391 . S
C186 C148 1.389 . S
C186 C168 1.392 . S
C187 C158 1.392 . S
C187 C160 1.389 . S
C188 C163 1.395 . S
C188 C165 1.391 . S
H189 C149 0.951 . S
H190 C150 0.950 . S
H191 C156 0.949 . S
H192 C157 0.950 . S
H193 C161 0.951 . S
H194 C162 0.950 . S
H195 C166 0.949 . S
H196 C167 0.950 . S
H197 C171 0.950 . S
H198 C173 0.950 . S
H199 C176 0.950 . S
H200 C178 0.950 . S
C64 C6 1.480 . S
C22 C134 1.628 . S
C34 C186 1.335 . S
C7 C80 1.486 . S
C124 C23 1.643 . S
C35 C170 1.370 . S
C117 C36 1.678 . S
C9 C177 1.912 1_455 S
C71 C21 1.470 . S
C133 C37 1.689 . S
C187 C8 2.030 . S
C20 C81 1.457 . S
