# Generated by pormake.
# Topology anh, (6,3)-cn, num edge types: 1
# Building blocks:
#     Node 0, Type 0, BuildingBlock: GEDQOX_clean_sbu_0, # of connection points: 6
#     Node 1, Type 0, BuildingBlock: GEDQOX_clean_sbu_0, # of connection points: 6
#     Node 2, Type 0, BuildingBlock: GEDQOX_clean_sbu_0, # of connection points: 6
#     Node 3, Type 1, BuildingBlock: OLANEW_clean_sbu_2, # of connection points: 3
#     Node 4, Type 1, BuildingBlock: OLANEW_clean_sbu_2, # of connection points: 3
#     Node 5, Type 1, BuildingBlock: OLANEW_clean_sbu_2, # of connection points: 3
#     Node 6, Type 1, BuildingBlock: OLANEW_clean_sbu_2, # of connection points: 3
#     Node 7, Type 1, BuildingBlock: OLANEW_clean_sbu_2, # of connection points: 3
#     Node 8, Type 1, BuildingBlock: OLANEW_clean_sbu_2, # of connection points: 3
#     Edge 9, Type (0, 1), None
#     Edge 10, Type (0, 1), None
#     Edge 11, Type (0, 1), None
#     Edge 12, Type (0, 1), None
#     Edge 13, Type (0, 1), None
#     Edge 14, Type (0, 1), None
#     Edge 15, Type (0, 1), None
#     Edge 16, Type (0, 1), None
#     Edge 17, Type (0, 1), None
#     Edge 18, Type (0, 1), None
#     Edge 19, Type (0, 1), None
#     Edge 20, Type (0, 1), None
#     Edge 21, Type (0, 1), None
#     Edge 22, Type (0, 1), None
#     Edge 23, Type (0, 1), None
#     Edge 24, Type (0, 1), None
#     Edge 25, Type (0, 1), None
#     Edge 26, Type (0, 1), None
# Relax obj value: 0.331
# Max RMSD: 0.261
# Mean RMSD: 0.149
data_MOF--net-anh--node1-GEDQOX_clean_sbu_0--node2-OLANEW_clean_sbu_2--edge1-none
_symmetry_space_group_name_H-M    P1
_symmetry_Int_Tables_number       1
_symmetry_cell_setting            triclinic
loop_
_symmetry_equiv_pos_as_xyz
'x, y, z'
_cell_length_a     20.351139
_cell_length_b     17.343926
_cell_length_c     22.867971
_cell_angle_alpha  93.393157
_cell_angle_beta   89.264147
_cell_angle_gamma 98.930523
loop_
_atom_site_label
_atom_site_type_symbol
_atom_site_fract_x
_atom_site_fract_y
_atom_site_fract_z
_atom_type_partial_charge
Nd0 Nd 0.0574 0.63473 0.11688 0.0
Nd1 Nd 1.0177 0.45468 0.12604 0.0
C2 C 0.11235 0.77994 0.09787 0.0
C3 C 0.17905 0.82642 0.10476 0.0
C4 C 0.23648 0.79066 0.10288 0.0
C5 C 0.29795 0.8334 0.12028 0.0
C6 C 0.30281 0.91245 0.14015 0.0
C7 C 0.24576 0.94889 0.13876 0.0
C8 C 0.1845 0.9062 0.12133 0.0
C9 C 1.03203 0.5839 0.2272 0.0
C10 C 0.17613 0.52146 0.10895 0.0
C11 C 0.98701 0.31373 0.16633 0.0
C12 C 0.92573 0.25853 0.17634 0.0
C13 C 0.86302 0.2817 0.17144 0.0
C14 C 0.80523 0.23113 0.18566 0.0
C15 C 0.80908 0.15633 0.20489 0.0
C16 C 0.87208 0.1331 0.20889 0.0
C17 C 0.92984 0.18386 0.19487 0.0
C18 C 1.0044 0.50759 0.01733 0.0
C19 C 0.90072 0.56333 0.11438 0.0
O20 O 0.10388 0.7239 0.05647 0.0
O21 O 0.08328 0.75912 0.14689 0.0
O22 O 1.01075 0.6448 0.20894 0.0
O23 O 0.06463 0.55238 0.18807 0.0
O24 O 0.16097 0.59341 0.1123 0.0
O25 O 0.1305 0.45857 0.1127 0.0
O26 O 0.99374 0.3785 0.19973 0.0
O27 O 1.00473 0.32517 0.11176 0.0
O28 O 0.96716 0.4457 0.03528 0.0
O29 O 0.04996 0.53237 0.05316 0.0
O30 O 0.91814 0.50271 0.13978 0.0
O31 O 0.94581 0.6183 0.09305 0.0
H32 H 0.23345 0.72907 0.09039 0.0
H33 H 0.34088 0.80353 0.12072 0.0
H34 H 0.2477 0.0097 0.15353 0.0
H35 H 0.14069 0.9347 0.12344 0.0
H36 H 0.85887 0.33936 0.15749 0.0
H37 H 0.75759 0.25082 0.18182 0.0
H38 H 0.8769 0.07594 0.22343 0.0
H39 H 0.97784 0.16519 0.19934 0.0
Nd40 Nd 0.47165 0.9648 0.53823 0.0
Nd41 Nd 0.62999 0.02452 0.52723 0.0
C42 C 0.35006 0.89542 0.56258 0.0
C43 C 0.30474 0.82611 0.53919 0.0
C44 C 0.32944 0.76189 0.51165 0.0
C45 C 0.28569 0.69792 0.48752 0.0
C46 C 0.21646 0.69725 0.49009 0.0
C47 C 0.19206 0.7618 0.51774 0.0
C48 C 0.23583 0.82554 0.54206 0.0
C49 C 0.51968 -0.0035 0.42798 0.0
C50 C 0.57637 0.8356 0.52666 0.0
C51 C 0.74571 0.0781 0.47947 0.0
C52 C 0.79342 0.15064 0.47666 0.0
C53 C 0.77462 0.2236 0.49231 0.0
C54 C 0.81793 0.29254 0.48222 0.0
C55 C 0.88059 0.28946 0.45614 0.0
C56 C 0.90012 0.21602 0.44299 0.0
C57 C 0.85684 0.14727 0.45314 0.0
C58 C 0.59035 0.01514 0.64347 0.0
C59 C 0.52645 0.15059 0.55419 0.0
O60 O 0.40313 0.8828 0.59013 0.0
O61 O 0.36233 0.9532 0.52779 0.0
O62 O 0.46042 0.00535 0.44572 0.0
O63 O 0.54896 0.96498 0.46622 0.0
O64 O 0.51446 0.8494 0.53364 0.0
O65 O 0.62815 0.89131 0.52055 0.0
O66 O 0.68829 0.07795 0.4541 0.0
O67 O 0.74057 0.04359 0.52918 0.0
O68 O 0.6518 0.03782 0.62812 0.0
O69 O 0.55569 0.00338 0.59797 0.0
O70 O 0.58301 0.13738 0.52906 0.0
O71 O 0.48033 0.09369 0.57142 0.0
H72 H 0.38253 0.76146 0.50833 0.0
H73 H 0.30619 0.64936 0.46636 0.0
H74 H 0.1391 0.76332 0.52041 0.0
H75 H 0.21584 0.87484 0.56269 0.0
H76 H 0.72568 0.22724 0.51048 0.0
H77 H 0.80133 0.34809 0.4929 0.0
H78 H 0.94806 0.21148 0.4231 0.0
H79 H 0.87207 0.09139 0.44072 0.0
Nd80 Nd 0.48179 0.47936 0.84813 0.0
Nd81 Nd 0.6422 0.53597 0.85892 0.0
C82 C 0.36196 0.45061 0.80222 0.0
C83 C 0.30373 0.49066 0.80496 0.0
C84 C 0.24299 0.4533 0.78172 0.0
C85 C 0.18722 0.49132 0.78489 0.0
C86 C 0.19171 0.56735 0.81123 0.0
C87 C 0.25332 0.60515 0.83322 0.0
C88 C 0.30885 0.56696 0.83027 0.0
C89 C 0.52267 0.52058 0.96285 0.0
C90 C 0.54802 0.66771 0.84876 0.0
C91 C 0.76272 0.5333 0.89574 0.0
C92 C 0.79664 0.46402 0.89309 0.0
C93 C 0.82761 0.44368 0.94309 0.0
C94 C 0.85099 0.37201 0.94329 0.0
C95 C 0.8442 0.32005 0.89354 0.0
C96 C 0.81257 0.33972 0.84381 0.0
C97 C 0.78914 0.41123 0.84348 0.0
C98 C 0.59129 0.52226 0.74933 0.0
C99 C 0.57796 0.34541 0.84188 0.0
O100 O 0.41377 0.4876 0.77542 0.0
O101 O 0.37709 0.42059 0.85077 0.0
O102 O 0.46047 0.4969 0.94982 0.0
O103 O 0.55523 0.52082 0.91629 0.0
O104 O 0.49832 0.61113 0.83426 0.0
O105 O 0.60647 0.65519 0.86829 0.0
O106 O 0.71161 0.52911 0.93158 0.0
O107 O 0.75117 0.56093 0.84526 0.0
O108 O 0.64279 0.57386 0.76477 0.0
O109 O 0.57216 0.47735 0.78983 0.0
O110 O 0.63046 0.40105 0.84713 0.0
O111 O 0.51599 0.35968 0.84181 0.0
H112 H 0.23852 0.39448 0.76177 0.0
H113 H 0.14036 0.46053 0.76785 0.0
H114 H 0.25834 0.66342 0.85417 0.0
H115 H 0.35564 0.59663 0.84829 0.0
H116 H 0.83213 0.48222 0.98238 0.0
H117 H 0.87362 0.35628 0.98252 0.0
H118 H 0.80654 0.30017 0.80509 0.0
H119 H 0.7637 0.42429 0.80481 0.0
O120 O 0.5982 -0.00455 0.34934 0.0
Cd121 Cd 0.63168 -0.00098 0.24534 0.0
O122 O 0.49264 -0.00328 0.32845 0.0
Cd123 Cd 0.49291 0.97803 0.23309 0.0
O124 O 0.41596 0.92171 0.1715 0.0
C125 C 0.36465 0.95467 0.16784 0.0
O126 O 0.36412 0.02269 0.19626 0.0
C127 C 0.53851 -0.00237 0.3658 0.0
C128 C 0.74785 0.10265 0.22021 0.0
O129 O 0.6905 0.12449 0.21963 0.0
O130 O 0.75049 0.03256 0.23385 0.0
O131 O 0.53185 0.44521 0.67284 0.0
Cd132 Cd 0.49236 0.38822 0.57679 0.0
O133 O 0.58301 0.56439 0.65449 0.0
Cd134 Cd 0.55489 0.58637 0.56598 0.0
O135 O 0.53926 0.70016 0.53623 0.0
C136 C 0.58821 0.75451 0.53015 0.0
O137 O 0.64908 0.73981 0.53612 0.0
C138 C 0.56666 0.51009 0.68931 0.0
C139 C 0.51452 0.23216 0.56251 0.0
O140 O 0.55811 0.28853 0.5465 0.0
O141 O 0.46012 0.24879 0.58502 0.0
O142 O 1.00612 0.61345 0.95673 0.0
Cd143 Cd 1.01781 0.66119 0.85901 0.0
O144 O 0.9949 0.49533 0.91417 0.0
Cd145 Cd 0.98774 0.36895 0.91819 0.0
O146 O 0.93395 0.2504 0.90478 0.0
C147 C 0.87272 0.24718 0.89306 0.0
O148 O 0.83652 0.17986 0.87743 0.0
C149 C 0.99986 0.5399 0.96042 0.0
C150 C 0.13139 0.60388 0.82122 0.0
O151 O 0.13497 0.672 0.8471 0.0
O152 O 0.07366 0.56556 0.80911 0.0
O153 O 0.0693 0.52211 0.30723 0.0
Cd154 Cd 0.08213 0.50451 0.41177 0.0
O155 O 0.98202 0.58198 0.32135 0.0
Cd156 Cd 0.95953 0.52758 0.40457 0.0
O157 O 0.90494 0.42809 0.44826 0.0
C158 C 0.92312 0.36164 0.4383 0.0
O159 O 0.97643 0.35697 0.40605 0.0
C160 C 1.02726 0.5613 0.2879 0.0
C161 C 0.17 0.63021 0.46351 0.0
O162 O 0.19135 0.56955 0.44051 0.0
O163 O 0.10718 0.63128 0.46244 0.0
O164 O 0.5319 0.92241 0.70579 0.0
Cd165 Cd 0.51402 0.89492 0.80991 0.0
O166 O 0.59233 0.02417 0.74822 0.0
Cd167 Cd 0.64948 0.14022 0.76036 0.0
O168 O 0.645 0.25534 0.80199 0.0
C169 C 0.58959 0.26602 0.82485 0.0
O170 O 0.53962 0.20808 0.82318 0.0
C171 C 0.57003 0.98696 0.70134 0.0
C172 C 0.53735 0.74742 0.83804 0.0
O173 O 0.48045 0.75923 0.82032 0.0
O174 O 0.5846 0.80556 0.84252 0.0
O175 O 0.61457 0.54877 0.02748 0.0
Cd176 Cd 0.6912 0.5864 0.11376 0.0
O177 O 0.5141 0.55207 0.06593 0.0
Cd178 Cd 0.40284 0.54811 0.06968 0.0
O179 O 0.29309 0.56499 0.08801 0.0
C180 C 0.24613 0.50922 0.0991 0.0
O181 O 0.29198 0.56812 0.08802 0.0
C182 C 0.55126 0.5411 0.02163 0.0
C183 C 0.8289 0.57001 0.11116 0.0
O184 O 0.78415 0.51562 0.12845 0.0
O185 O 0.80931 0.63073 0.09227 0.0
loop_
_geom_bond_atom_site_label_1
_geom_bond_atom_site_label_2
_geom_bond_distance
_geom_bond_site_symmetry_2
_ccdc_geom_bond_type
Nd0 C2 2.836 . S
Nd0 O20 2.500 . S
Nd0 O21 2.492 . S
Nd0 O22 2.487 . S
Nd0 O23 2.682 . S
Nd0 O24 2.410 . S
Nd0 O29 2.414 . S
Nd0 O31 2.424 1_455 S
Nd1 C11 2.836 . S
Nd1 O23 2.414 1_655 S
Nd1 O25 2.424 1_655 S
Nd1 O26 2.500 . S
Nd1 O27 2.492 . S
Nd1 O28 2.487 . S
Nd1 O29 2.682 1_655 S
Nd1 O30 2.410 . S
C2 Nd0 2.836 . S
C2 C3 1.498 . S
C2 O20 1.258 . S
C2 O21 1.239 . S
C3 C2 1.498 . S
C3 C4 1.366 . S
C3 C8 1.407 . S
C4 C3 1.366 . S
C4 C5 1.392 . S
C4 H32 0.930 . S
C5 C4 1.392 . S
C5 C6 1.398 . S
C5 H33 0.929 . S
C6 C5 1.398 . S
C6 C7 1.352 . S
C7 C6 1.352 . S
C7 C8 1.384 . S
C7 H34 0.930 . S
C8 C3 1.407 . S
C8 C7 1.384 . S
C8 H35 0.929 . S
C9 O22 1.241 . S
C9 O23 1.273 . S
C10 O24 1.251 . S
C10 O25 1.268 . S
C11 Nd1 2.836 . S
C11 C12 1.498 . S
C11 O26 1.258 . S
C11 O27 1.239 . S
C12 C11 1.498 . S
C12 C13 1.366 . S
C12 C17 1.407 . S
C13 C12 1.366 . S
C13 C14 1.392 . S
C13 H36 0.930 . S
C14 C13 1.392 . S
C14 C15 1.398 . S
C14 H37 0.929 . S
C15 C14 1.398 . S
C15 C16 1.352 . S
C16 C15 1.352 . S
C16 C17 1.384 . S
C16 H38 0.930 . S
C17 C12 1.407 . S
C17 C16 1.384 . S
C17 H39 0.929 . S
C18 O28 1.241 1_455 S
C18 O29 1.273 . S
C19 O30 1.251 . S
C19 O31 1.268 . S
O20 Nd0 2.500 . S
O20 C2 1.258 . S
O21 Nd0 2.492 . S
O21 C2 1.239 . S
O22 Nd0 2.487 . S
O22 C9 1.241 . S
O23 Nd0 2.682 . S
O23 Nd1 2.414 1_455 S
O23 C9 1.273 . S
O24 Nd0 2.410 . S
O24 C10 1.251 . S
O25 Nd1 2.424 1_455 S
O25 C10 1.268 . S
O26 Nd1 2.500 . S
O26 C11 1.258 . S
O27 Nd1 2.492 . S
O27 C11 1.239 . S
O28 Nd1 2.487 . S
O28 C18 1.241 1_655 S
O29 Nd0 2.414 . S
O29 Nd1 2.682 1_455 S
O29 C18 1.273 . S
O30 Nd1 2.410 . S
O30 C19 1.251 . S
O31 Nd0 2.424 1_655 S
O31 C19 1.268 . S
H32 C4 0.930 . S
H33 C5 0.929 . S
H34 C7 0.930 . S
H35 C8 0.929 . S
H36 C13 0.930 . S
H37 C14 0.929 . S
H38 C16 0.930 . S
H39 C17 0.929 . S
Nd40 C42 2.833 1_545 S
Nd40 O60 2.496 1_545 S
Nd40 O61 2.489 1_545 S
Nd40 O62 2.487 1_545 S
Nd40 O63 2.682 . S
Nd40 O64 2.405 1_545 S
Nd40 O69 2.413 . S
Nd40 O71 2.429 . S
Nd41 C51 2.836 . S
Nd41 O63 2.414 . S
Nd41 O65 2.424 1_545 S
Nd41 O66 2.500 . S
Nd41 O67 2.492 . S
Nd41 O68 2.487 . S
Nd41 O69 2.682 . S
Nd41 O70 2.410 . S
C42 Nd40 2.833 1_565 S
C42 C43 1.498 . S
C42 O60 1.258 . S
C42 O61 1.239 . S
C43 C42 1.498 . S
C43 C44 1.366 . S
C43 C48 1.407 . S
C44 C43 1.366 . S
C44 C45 1.392 . S
C44 H72 0.930 . S
C45 C44 1.392 . S
C45 C46 1.398 . S
C45 H73 0.929 . S
C46 C45 1.398 . S
C46 C47 1.352 . S
C47 C46 1.352 . S
C47 C48 1.384 . S
C47 H74 0.930 . S
C48 C43 1.407 . S
C48 C47 1.384 . S
C48 H75 0.929 . S
C49 O62 1.241 1_545 S
C49 O63 1.273 . S
C50 O64 1.251 . S
C50 O65 1.268 . S
C51 Nd41 2.836 . S
C51 C52 1.498 . S
C51 O66 1.258 . S
C51 O67 1.239 . S
C52 C51 1.498 . S
C52 C53 1.366 . S
C52 C57 1.407 . S
C53 C52 1.366 . S
C53 C54 1.392 . S
C53 H76 0.930 . S
C54 C53 1.392 . S
C54 C55 1.398 . S
C54 H77 0.929 . S
C55 C54 1.398 . S
C55 C56 1.352 . S
C56 C55 1.352 . S
C56 C57 1.384 . S
C56 H78 0.930 . S
C57 C52 1.407 . S
C57 C56 1.384 . S
C57 H79 0.929 . S
C58 O68 1.241 . S
C58 O69 1.273 . S
C59 O70 1.251 . S
C59 O71 1.268 . S
O60 Nd40 2.496 1_565 S
O60 C42 1.258 . S
O61 Nd40 2.489 1_565 S
O61 C42 1.239 . S
O62 Nd40 2.487 1_565 S
O62 C49 1.241 1_565 S
O63 Nd40 2.682 . S
O63 Nd41 2.414 . S
O63 C49 1.273 . S
O64 Nd40 2.405 1_565 S
O64 C50 1.251 . S
O65 Nd41 2.424 1_565 S
O65 C50 1.268 . S
O66 Nd41 2.500 . S
O66 C51 1.258 . S
O67 Nd41 2.492 . S
O67 C51 1.239 . S
O68 Nd41 2.487 . S
O68 C58 1.241 . S
O69 Nd40 2.413 . S
O69 Nd41 2.682 . S
O69 C58 1.273 . S
O70 Nd41 2.410 . S
O70 C59 1.251 . S
O71 Nd40 2.429 . S
O71 C59 1.268 . S
H72 C44 0.930 . S
H73 C45 0.929 . S
H74 C47 0.930 . S
H75 C48 0.929 . S
H76 C53 0.930 . S
H77 C54 0.929 . S
H78 C56 0.930 . S
H79 C57 0.929 . S
Nd80 C82 2.836 . S
Nd80 O100 2.500 . S
Nd80 O101 2.492 . S
Nd80 O102 2.487 . S
Nd80 O103 2.682 . S
Nd80 O104 2.410 . S
Nd80 O109 2.414 . S
Nd80 O111 2.424 . S
Nd81 C91 2.836 . S
Nd81 O103 2.414 . S
Nd81 O105 2.424 . S
Nd81 O106 2.500 . S
Nd81 O107 2.492 . S
Nd81 O108 2.487 . S
Nd81 O109 2.682 . S
Nd81 O110 2.410 . S
C82 Nd80 2.836 . S
C82 C83 1.498 . S
C82 O100 1.258 . S
C82 O101 1.239 . S
C83 C82 1.498 . S
C83 C84 1.366 . S
C83 C88 1.407 . S
C84 C83 1.366 . S
C84 C85 1.392 . S
C84 H112 0.930 . S
C85 C84 1.392 . S
C85 C86 1.398 . S
C85 H113 0.929 . S
C86 C85 1.398 . S
C86 C87 1.352 . S
C87 C86 1.352 . S
C87 C88 1.384 . S
C87 H114 0.930 . S
C88 C83 1.407 . S
C88 C87 1.384 . S
C88 H115 0.929 . S
C89 O102 1.241 . S
C89 O103 1.273 . S
C90 O104 1.251 . S
C90 O105 1.268 . S
C91 Nd81 2.836 . S
C91 C92 1.498 . S
C91 O106 1.258 . S
C91 O107 1.239 . S
C92 C91 1.498 . S
C92 C93 1.366 . S
C92 C97 1.407 . S
C93 C92 1.366 . S
C93 C94 1.392 . S
C93 H116 0.930 . S
C94 C93 1.392 . S
C94 C95 1.398 . S
C94 H117 0.929 . S
C95 C94 1.398 . S
C95 C96 1.352 . S
C96 C95 1.352 . S
C96 C97 1.384 . S
C96 H118 0.930 . S
C97 C92 1.407 . S
C97 C96 1.384 . S
C97 H119 0.929 . S
C98 O108 1.241 . S
C98 O109 1.273 . S
C99 O110 1.251 . S
C99 O111 1.268 . S
O100 Nd80 2.500 . S
O100 C82 1.258 . S
O101 Nd80 2.492 . S
O101 C82 1.239 . S
O102 Nd80 2.487 . S
O102 C89 1.241 . S
O103 Nd80 2.682 . S
O103 Nd81 2.414 . S
O103 C89 1.273 . S
O104 Nd80 2.410 . S
O104 C90 1.251 . S
O105 Nd81 2.424 . S
O105 C90 1.268 . S
O106 Nd81 2.500 . S
O106 C91 1.258 . S
O107 Nd81 2.492 . S
O107 C91 1.239 . S
O108 Nd81 2.487 . S
O108 C98 1.241 . S
O109 Nd80 2.414 . S
O109 Nd81 2.682 . S
O109 C98 1.273 . S
O110 Nd81 2.410 . S
O110 C99 1.251 . S
O111 Nd80 2.424 . S
O111 C99 1.268 . S
H112 C84 0.930 . S
H113 C85 0.929 . S
H114 C87 0.930 . S
H115 C88 0.929 . S
H116 C93 0.930 . S
H117 C94 0.929 . S
H118 C96 0.930 . S
H119 C97 0.929 . S
O120 Cd121 2.300 . S
O120 C127 1.275 . S
Cd121 O120 2.300 . S
Cd121 O129 2.381 . S
Cd121 O130 2.378 . S
O122 Cd123 2.385 . S
O122 C127 1.255 1_565 S
Cd123 O122 2.385 . S
Cd123 O124 2.317 . S
O124 Cd123 2.317 . S
O124 C125 1.232 . S
C125 O124 1.232 . S
C125 O126 1.218 . S
O126 C125 1.218 . S
C127 O120 1.275 . S
C127 O122 1.255 1_545 S
C128 O129 1.258 . S
C128 O130 1.256 . S
O129 Cd121 2.381 . S
O129 C128 1.258 . S
O130 Cd121 2.378 . S
O130 C128 1.256 . S
O131 Cd132 2.300 . S
O131 C138 1.275 . S
Cd132 O131 2.300 . S
Cd132 O140 2.381 . S
Cd132 O141 2.378 . S
O133 Cd134 2.385 . S
O133 C138 1.255 . S
Cd134 O133 2.385 . S
Cd134 O135 2.317 . S
O135 Cd134 2.317 . S
O135 C136 1.232 . S
C136 O135 1.232 . S
C136 O137 1.218 . S
O137 C136 1.218 . S
C138 O131 1.275 . S
C138 O133 1.255 . S
C139 O140 1.258 . S
C139 O141 1.256 . S
O140 Cd132 2.381 . S
O140 C139 1.258 . S
O141 Cd132 2.378 . S
O141 C139 1.256 . S
O142 Cd143 2.300 1_554 S
O142 C149 1.275 . S
Cd143 O142 2.300 1_556 S
Cd143 O151 2.381 . S
Cd143 O152 2.378 . S
O144 Cd145 2.385 1_554 S
O144 C149 1.255 1_655 S
Cd145 O144 2.385 1_556 S
Cd145 O146 2.317 . S
O146 Cd145 2.317 . S
O146 C147 1.232 . S
C147 O146 1.232 . S
C147 O148 1.218 . S
O148 C147 1.218 . S
C149 O142 1.275 . S
C149 O144 1.255 1_455 S
C150 O151 1.258 . S
C150 O152 1.256 . S
O151 Cd143 2.381 . S
O151 C150 1.258 . S
O152 Cd143 2.378 . S
O152 C150 1.256 . S
O153 Cd154 2.300 . S
O153 C160 1.275 1_455 S
Cd154 O153 2.300 . S
Cd154 O162 2.381 . S
Cd154 O163 2.378 . S
O155 Cd156 2.385 . S
O155 C160 1.255 . S
Cd156 O155 2.385 . S
Cd156 O157 2.317 . S
O157 Cd156 2.317 . S
O157 C158 1.232 . S
C158 O157 1.232 . S
C158 O159 1.218 . S
O159 C158 1.218 . S
C160 O153 1.275 1_655 S
C160 O155 1.255 . S
C161 O162 1.258 . S
C161 O163 1.256 . S
O162 Cd154 2.381 . S
O162 C161 1.258 . S
O163 Cd154 2.378 . S
O163 C161 1.256 . S
O164 Cd165 2.300 . S
O164 C171 1.275 1_565 S
Cd165 O164 2.300 . S
Cd165 O173 2.381 . S
Cd165 O174 2.378 . S
O166 Cd167 2.385 . S
O166 C171 1.255 . S
Cd167 O166 2.385 . S
Cd167 O168 2.317 . S
O168 Cd167 2.317 . S
O168 C169 1.232 . S
C169 O168 1.232 . S
C169 O170 1.218 . S
O170 C169 1.218 . S
C171 O164 1.275 1_545 S
C171 O166 1.255 . S
C172 O173 1.258 . S
C172 O174 1.256 . S
O173 Cd165 2.381 . S
O173 C172 1.258 . S
O174 Cd165 2.378 . S
O174 C172 1.256 . S
O175 Cd176 2.300 . S
O175 C182 1.275 1_554 S
Cd176 O175 2.300 . S
Cd176 O184 2.381 . S
Cd176 O185 2.378 . S
O177 Cd178 2.385 . S
O177 C182 1.255 1_554 S
Cd178 O177 2.385 . S
Cd178 O179 2.317 . S
O179 Cd178 2.317 . S
O179 C180 1.232 . S
C180 O179 1.232 . S
C180 O181 1.218 . S
O181 C180 1.218 . S
C182 O175 1.275 1_556 S
C182 O177 1.255 1_556 S
C183 O184 1.258 . S
C183 O185 1.256 . S
O184 Cd176 2.381 . S
O184 C183 1.258 . S
O185 Cd176 2.378 . S
O185 C183 1.256 . S
C10 C180 4.646 . S
C55 C158 1.933 . S
C90 C172 2.466 . S
C19 C183 4.587 . S
C161 C46 1.545 . S
C169 C99 2.330 . S
C50 C136 2.236 . S
C95 C147 3.596 . S
C6 C125 1.972 . S
C139 C59 2.605 . S
C150 C86 2.535 . S
C15 C128 2.408 . S
C149 C18 1.168 . S
C49 C127 1.222 . S
C98 C138 1.204 . S
C171 C58 1.052 . S
C182 C89 1.886 . S
C9 C160 1.352 1_455 S
