# Generated by pormake.
# Topology pts, (4,4)-cn, num edge types: 1
# Building blocks:
#     Node 0, Type 0, BuildingBlock: NAWXER_clean_sbu_0, # of connection points: 4
#     Node 1, Type 0, BuildingBlock: NAWXER_clean_sbu_0, # of connection points: 4
#     Node 2, Type 1, BuildingBlock: QUQFOY_clean_sbu_1, # of connection points: 4
#     Node 3, Type 1, BuildingBlock: QUQFOY_clean_sbu_1, # of connection points: 4
#     Edge 4, Type (0, 1), BuildingBlock: FUNLAD_clean_linker_0, # of connection points: 2
#     Edge 5, Type (0, 1), BuildingBlock: FUNLAD_clean_linker_0, # of connection points: 2
#     Edge 6, Type (0, 1), BuildingBlock: FUNLAD_clean_linker_0, # of connection points: 2
#     Edge 7, Type (0, 1), BuildingBlock: FUNLAD_clean_linker_0, # of connection points: 2
#     Edge 8, Type (0, 1), BuildingBlock: FUNLAD_clean_linker_0, # of connection points: 2
#     Edge 9, Type (0, 1), BuildingBlock: FUNLAD_clean_linker_0, # of connection points: 2
#     Edge 10, Type (0, 1), BuildingBlock: FUNLAD_clean_linker_0, # of connection points: 2
#     Edge 11, Type (0, 1), BuildingBlock: FUNLAD_clean_linker_0, # of connection points: 2
# Relax obj value: 0.107
# Max RMSD: 0.243
# Mean RMSD: 0.140
data_MOF--net-pts--node1-NAWXER_clean_sbu_0--node2-QUQFOY_clean_sbu_1--edge1-FUNLAD_clean_linker_0
_symmetry_space_group_name_H-M    P1
_symmetry_Int_Tables_number       1
_symmetry_cell_setting            triclinic
loop_
_symmetry_equiv_pos_as_xyz
'x, y, z'
_cell_length_a     25.773665
_cell_length_b     27.873411
_cell_length_c     46.07879
_cell_angle_alpha  90.059547
_cell_angle_beta   89.837672
_cell_angle_gamma 90.084818
loop_
_atom_site_label
_atom_site_type_symbol
_atom_site_fract_x
_atom_site_fract_y
_atom_site_fract_z
_atom_type_partial_charge
C0 C 0.42105 0.96267 0.96648 0.0
C1 C 0.55786 0.97043 0.03998 0.0
O2 O 0.44255 0.92677 0.97855 0.0
Zn3 Zn 0.49093 0.96329 0.00252 0.0
O4 O 0.43545 1.0052 0.97331 0.0
Zn5 Zn 0.48914 0.041 1.00067 0.0
O6 O 0.53421 0.07359 0.97288 0.0
O7 O 0.53963 0.99465 0.97054 0.0
O8 O 0.54209 1.01126 0.03088 0.0
O9 O 0.54011 0.93213 0.02861 0.0
O10 O 0.44096 0.9977 0.03302 0.0
O11 O 0.44326 0.0763 0.02671 0.0
C12 C 0.55288 0.03607 0.96107 0.0
C13 C 0.42632 0.03987 0.04047 0.0
C14 C 0.95264 0.57735 0.4651 0.0
C15 C 0.94957 0.44849 0.53777 0.0
O16 O 0.91207 0.55876 0.47625 0.0
Zn17 Zn 0.94736 0.51392 0.5024 0.0
O18 O -0.00268 0.56234 0.47299 0.0
Zn19 Zn 0.03156 0.5125 0.50167 0.0
O20 O 0.06715 0.46904 0.47489 0.0
O21 O 0.9816 0.46251 0.47382 0.0
O22 O -0.00498 0.46143 0.52958 0.0
O23 O 0.90978 0.47083 0.52855 0.0
O24 O 0.98384 0.56113 0.53204 0.0
O25 O 0.0689 0.55491 0.52846 0.0
C26 C 0.02646 0.44829 0.46545 0.0
C27 C 0.0292 0.57419 0.54011 0.0
O28 O 0.93926 0.96498 0.2264 0.0
Cd29 Cd 0.00362 0.96897 0.25262 0.0
Cd30 Cd 0.97708 0.06366 0.25082 0.0
O31 O 0.90868 0.03794 0.23334 0.0
O32 O 0.01766 0.90025 0.26121 0.0
O33 O -0.00578 0.95218 0.29501 0.0
C34 C 0.00535 0.90856 0.28785 0.0
C35 C 0.9802 0.12297 0.28656 0.0
C36 C 0.9039 0.99604 0.22268 0.0
C37 C 0.07602 0.03448 0.22133 0.0
O38 O 0.0404 0.06563 0.22371 0.0
O39 O 0.07153 0.99403 0.23385 0.0
O40 O 0.96646 0.13263 0.26033 0.0
O41 O 0.98895 0.07861 0.29307 0.0
O42 O 0.94327 0.06426 0.77944 0.0
Cd43 Cd 0.00576 0.06566 0.75166 0.0
Cd44 Cd 0.98702 0.96774 0.75238 0.0
O45 O 0.91892 0.98931 0.77245 0.0
O46 O 0.01157 0.13523 0.7424 0.0
O47 O -0.00814 0.08038 0.70954 0.0
C48 C -0.00189 0.12507 0.71619 0.0
C49 C 0.98617 0.90505 0.71853 0.0
C50 C 0.91107 0.03044 0.78359 0.0
C51 C 0.08664 1.00422 0.77892 0.0
O52 O 0.05416 0.97016 0.77645 0.0
O53 O 0.07687 0.04525 0.76818 0.0
O54 O 0.9776 0.89768 0.74571 0.0
O55 O -0.00678 0.94879 0.71013 0.0
C56 C 0.36214 0.08584 0.07115 0.0
C57 C 0.39228 0.04468 0.06617 0.0
C58 C 0.32878 0.08807 0.09524 0.0
C59 C 0.32571 0.04931 0.11482 0.0
C60 C 0.35738 1.00922 0.11028 0.0
C61 C 0.38986 1.00671 0.08618 0.0
C62 C 0.28958 0.04812 0.13993 0.0
C63 C 0.24349 0.07068 0.14034 0.0
C64 C 0.2037 0.06214 0.1632 0.0
C65 C 0.16551 0.09704 0.16801 0.0
C66 C 0.125 0.08863 0.18756 0.0
C67 C 0.12142 0.04476 0.20254 0.0
H68 H 0.22819 0.98992 0.17486 0.0
C69 C 0.16007 1.01006 0.1981 0.0
C70 C 0.20065 0.01852 0.17858 0.0
H71 H 0.15829 0.97577 0.2091 0.0
H72 H 0.36365 0.1158 0.05622 0.0
H73 H 0.30584 0.12011 0.09849 0.0
H74 H 0.3561 0.97905 0.1251 0.0
H75 H 0.4132 0.97475 0.08327 0.0
H76 H 0.2998 0.02446 0.15771 0.0
H77 H 0.23327 0.09483 0.1228 0.0
H78 H 0.16661 0.13072 0.1563 0.0
H79 H 0.09584 0.11619 0.19041 0.0
C80 C 0.90976 0.39978 0.5782 0.0
C81 C 0.94506 0.40424 0.55511 0.0
C82 C 0.91037 0.35858 0.59574 0.0
C83 C 0.94559 0.32106 0.58992 0.0
C84 C 0.97872 0.32482 0.56589 0.0
C85 C 0.97896 0.36614 0.54894 0.0
C86 C 0.95017 0.27794 0.60862 0.0
C87 C 0.94535 0.27982 0.63768 0.0
C88 C 0.95907 0.23902 0.65701 0.0
C89 C 0.97536 0.24913 0.68538 0.0
C90 C 0.98937 0.21216 0.70422 0.0
C91 C 0.98683 0.16398 0.69525 0.0
H92 H 0.94289 0.18139 0.62647 0.0
C93 C 0.97027 0.15366 0.66689 0.0
C94 C 0.95648 0.19077 0.64794 0.0
H95 H 0.96723 0.1169 0.65944 0.0
H96 H 0.8831 0.42863 0.58325 0.0
H97 H 0.88353 0.35619 0.6138 0.0
H98 H 0.00584 0.29634 0.56078 0.0
H99 H 0.00608 0.3684 0.53096 0.0
H100 H 0.96441 0.24535 0.59843 0.0
H101 H 0.93603 0.3139 0.64791 0.0
H102 H 0.97763 0.28587 0.693 0.0
H103 H 0.00153 0.22145 0.726 0.0
C104 C 0.62166 0.92854 0.07285 0.0
C105 C 0.59315 0.96955 0.06523 0.0
C106 C 0.65478 0.92953 0.097 0.0
C107 C 0.65919 0.97143 0.11401 0.0
C108 C 0.6296 1.01167 0.10669 0.0
C109 C 0.59743 1.01095 0.08253 0.0
C110 C 0.69416 0.9756 0.1394 0.0
C111 C 0.73916 0.95163 0.1419 0.0
C112 C 0.77801 0.96263 0.1648 0.0
C113 C 0.81472 0.92762 0.17209 0.0
C114 C 0.8545 0.93798 0.19167 0.0
C115 C 0.8588 0.98388 0.20421 0.0
H116 H 0.75541 0.037 0.17211 0.0
C117 C 0.82151 0.01871 0.19736 0.0
C118 C 0.78171 1.00834 0.17779 0.0
H119 H 0.82391 0.05452 0.20641 0.0
H120 H 0.61871 0.89601 0.06009 0.0
H121 H 0.67621 0.89744 0.10244 0.0
H122 H 0.632 0.04428 0.11945 0.0
H123 H 0.57545 0.04302 0.0776 0.0
H124 H 0.684 1.00244 0.15552 0.0
H125 H 0.74921 0.9243 0.12605 0.0
H126 H 0.81311 0.89231 0.16227 0.0
H127 H 0.88261 0.91024 0.19641 0.0
C128 C 0.98853 0.62811 0.57675 0.0
C129 C 0.03346 0.61311 0.56195 0.0
C130 C 0.98987 0.66708 0.59567 0.0
C131 C 0.0364 0.69209 0.60063 0.0
C132 C 0.08156 0.67712 0.58599 0.0
C133 C 0.08024 0.63772 0.56695 0.0
C134 C 0.03768 0.73506 0.61989 0.0
C135 C 0.00453 0.74039 0.64238 0.0
C136 C 0.0017 0.78354 0.6613 0.0
C137 C 0.97998 0.77849 0.68908 0.0
C138 C 0.97451 0.81806 0.70738 0.0
C139 C 0.98991 0.86398 0.69821 0.0
H140 H 0.03247 0.83506 0.63032 0.0
C141 C 0.01089 0.86943 0.67019 0.0
C142 C 0.01688 0.82955 0.65189 0.0
H143 H 0.02316 0.90438 0.66252 0.0
H144 H 0.95166 0.61028 0.57335 0.0
H145 H 0.9538 0.67828 0.60564 0.0
H146 H 0.11783 0.69605 0.58919 0.0
H147 H 0.11541 0.62735 0.55568 0.0
H148 H 0.06714 0.76213 0.61579 0.0
H149 H 0.97882 0.7109 0.648 0.0
H150 H 0.96738 0.74363 0.69677 0.0
H151 H 0.95812 0.81256 0.7288 0.0
C152 C 0.35678 0.99821 0.93257 0.0
C153 C 0.38084 0.95701 0.94384 0.0
C154 C 0.3209 0.99473 0.91019 0.0
C155 C 0.30821 0.9499 0.89819 0.0
C156 C 0.33075 0.90839 0.90999 0.0
C157 C 0.36708 0.91188 0.93254 0.0
C158 C 0.26963 0.94608 0.87438 0.0
C159 C 0.26382 0.98115 0.85445 0.0
C160 C 0.22074 0.984 0.83308 0.0
C161 C 0.21218 0.02802 0.81903 0.0
C162 C 0.16958 0.0343 0.80076 0.0
C163 C 0.13456 0.99651 0.79597 0.0
H164 H 0.1926 0.91055 0.83688 0.0
C165 C 0.14437 0.95174 0.80893 0.0
C166 C 0.18697 0.94547 0.82725 0.0
H167 H 0.1185 0.92164 0.80545 0.0
H168 H 0.36571 0.03357 0.94098 0.0
H169 H 0.30263 0.02735 0.90266 0.0
H170 H 0.32084 0.87333 0.90146 0.0
H171 H 0.38474 0.87947 0.94085 0.0
H172 H 0.24518 0.91443 0.87408 0.0
H173 H 0.29057 1.01132 0.85482 0.0
H174 H 0.2377 0.05829 0.82288 0.0
H175 H 0.16343 0.06916 0.791 0.0
C176 C 0.06547 0.39853 0.42519 0.0
C177 C 0.02919 0.40428 0.44769 0.0
C178 C 0.06397 0.35738 0.40758 0.0
C179 C 0.02688 0.32111 0.41277 0.0
C180 C -0.00752 0.32617 0.43614 0.0
C181 C -0.00687 0.3675 0.45314 0.0
C182 C 0.02201 0.27782 0.39419 0.0
C183 C 0.02819 0.27918 0.36521 0.0
C184 C 0.01501 0.23809 0.34593 0.0
C185 C -0.00075 0.24768 0.31742 0.0
C186 C 0.9863 0.21031 0.29856 0.0
C187 C 0.98952 0.16225 0.30763 0.0
H188 H 0.03112 0.18108 0.37678 0.0
C189 C 0.00537 0.15247 0.33617 0.0
C190 C 0.01798 0.18999 0.35517 0.0
H191 H 0.00887 0.11583 0.34372 0.0
H192 H 0.09381 0.42631 0.42072 0.0
H193 H 0.09173 0.35394 0.39003 0.0
H194 H 0.96389 0.29864 0.44076 0.0
H195 H 0.96521 0.37069 0.47067 0.0
H196 H 0.00671 0.24556 0.4043 0.0
H197 H 0.03847 0.313 0.35495 0.0
H198 H -0.0033 0.28431 0.3097 0.0
H199 H 0.97469 0.21919 0.27664 0.0
C200 C 0.6159 0.08065 0.92891 0.0
C201 C 0.58832 0.03866 0.93583 0.0
C202 C 0.65086 0.08102 0.90551 0.0
C203 C 0.65825 0.03944 0.88854 0.0
C204 C 0.62918 0.99829 0.89493 0.0
C205 C 0.59503 0.99772 0.91838 0.0
C206 C 0.69608 0.03663 0.86425 0.0
C207 C 0.74004 0.06265 0.86303 0.0
C208 C 0.78131 0.05426 0.84098 0.0
C209 C 0.81632 0.09142 0.83472 0.0
C210 C 0.85768 0.08398 0.81558 0.0
C211 C 0.86533 0.03892 0.80245 0.0
H212 H 0.76375 0.97906 0.83255 0.0
C213 C 0.83007 1.00177 0.8085 0.0
C214 C 0.78865 1.00924 0.82762 0.0
H215 H 0.83505 0.96653 0.79897 0.0
H216 H 0.61113 0.11284 0.94183 0.0
H217 H 0.67162 0.11385 0.90073 0.0
H218 H 0.63375 0.96593 0.88212 0.0
H219 H 0.57385 0.96492 0.92282 0.0
H220 H 0.68887 1.00946 0.84785 0.0
H221 H 0.74719 0.09022 0.8792 0.0
H222 H 0.81194 0.12627 0.84488 0.0
H223 H 0.88414 0.11344 0.81148 0.0
C224 C -0.00343 0.63457 0.43156 0.0
C225 C 0.95021 0.61757 0.44407 0.0
C226 C -0.00346 0.67399 0.41305 0.0
C227 C 0.94998 0.69745 0.4061 0.0
C228 C 0.90348 0.68079 0.41863 0.0
C229 C 0.90349 0.64099 0.43734 0.0
C230 C 0.9498 0.74023 0.38671 0.0
C231 C 0.98576 0.74644 0.36569 0.0
C232 C 0.98927 0.78906 0.34641 0.0
C233 C 0.01545 0.78411 0.31984 0.0
C234 C 0.02127 0.82313 0.30119 0.0
C235 C 0.00169 0.86844 0.30881 0.0
H236 H 0.95092 0.84005 0.37499 0.0
C237 C 0.97637 0.8739 0.33569 0.0
C238 C 0.97007 0.83453 0.35433 0.0
H239 H 0.96081 0.90839 0.34214 0.0
H240 H 0.03347 0.61787 0.4364 0.0
H241 H 0.03349 0.6866 0.40483 0.0
H242 H 0.86711 0.69853 0.41391 0.0
H243 H 0.8672 0.62911 0.44682 0.0
H244 H 0.91873 0.76615 0.38931 0.0
H245 H 0.01341 0.71788 0.36147 0.0
H246 H 0.03118 0.74969 0.31332 0.0
H247 H 0.04106 0.81764 0.28068 0.0
loop_
_geom_bond_atom_site_label_1
_geom_bond_atom_site_label_2
_geom_bond_distance
_geom_bond_site_symmetry_2
_ccdc_geom_bond_type
C0 O2 1.247 1_545 S
C0 O4 1.258 . S
C1 O8 1.255 . S
C1 O9 1.250 1_545 S
O2 C0 1.247 1_565 S
O2 Zn3 2.028 1_556 S
Zn3 O2 2.028 1_554 S
Zn3 O7 2.035 1_554 S
Zn3 O9 2.035 . S
Zn3 O10 2.028 . S
O4 C0 1.258 . S
O4 Zn5 2.035 1_556 S
Zn5 O4 2.035 1_554 S
Zn5 O6 2.028 1_554 S
Zn5 O8 2.028 . S
Zn5 O11 2.035 . S
O6 Zn5 2.028 1_556 S
O6 C12 1.255 . S
O7 Zn3 2.035 1_556 S
O7 C12 1.250 1_565 S
O8 C1 1.255 . S
O8 Zn5 2.028 . S
O9 C1 1.250 1_565 S
O9 Zn3 2.035 . S
O10 Zn3 2.028 . S
O10 C13 1.247 1_565 S
O11 Zn5 2.035 . S
O11 C13 1.258 . S
C12 O6 1.255 . S
C12 O7 1.250 1_545 S
C13 O10 1.247 1_545 S
C13 O11 1.258 . S
C14 O16 1.247 . S
C14 O18 1.258 1_655 S
C15 O22 1.251 . S
C15 O23 1.254 1_455 S
O16 C14 1.247 . S
O16 Zn17 2.028 . S
Zn17 O16 2.028 . S
Zn17 O21 2.035 . S
Zn17 O23 2.035 . S
Zn17 O24 2.028 . S
O18 C14 1.258 1_455 S
O18 Zn19 2.035 . S
Zn19 O18 2.035 . S
Zn19 O20 2.028 . S
Zn19 O22 2.028 . S
Zn19 O25 2.035 . S
O20 Zn19 2.028 . S
O20 C26 1.251 . S
O21 Zn17 2.035 . S
O21 C26 1.254 1_655 S
O22 C15 1.251 . S
O22 Zn19 2.028 . S
O23 C15 1.254 1_655 S
O23 Zn17 2.035 . S
O24 Zn17 2.028 . S
O24 C27 1.247 . S
O25 Zn19 2.035 . S
O25 C27 1.258 1_455 S
C26 O20 1.251 . S
C26 O21 1.254 1_455 S
C27 O24 1.247 . S
C27 O25 1.258 1_655 S
O28 Cd29 2.223 1_655 S
O28 C36 1.315 . S
Cd29 O28 2.223 1_455 S
Cd29 O32 2.297 1_455 S
Cd29 O33 2.439 1_455 S
Cd29 O39 2.240 1_565 S
Cd30 O31 2.240 1_545 S
Cd30 O38 2.223 1_655 S
Cd30 O40 2.297 1_655 S
Cd30 O41 2.439 1_655 S
O31 Cd30 2.240 1_565 S
O31 C36 1.279 . S
O32 Cd29 2.297 1_655 S
O32 C34 1.247 . S
O33 Cd29 2.439 1_655 S
O33 C34 1.208 . S
C34 O32 1.247 . S
C34 O33 1.208 . S
C35 O40 1.247 . S
C35 O41 1.208 . S
C36 O28 1.315 . S
C36 O31 1.279 . S
C37 O38 1.315 . S
C37 O39 1.279 . S
O38 Cd30 2.223 1_455 S
O38 C37 1.315 . S
O39 Cd29 2.240 1_545 S
O39 C37 1.279 . S
O40 Cd30 2.297 1_455 S
O40 C35 1.247 . S
O41 Cd30 2.439 1_455 S
O41 C35 1.208 . S
O42 Cd43 2.223 1_655 S
O42 C50 1.315 . S
Cd43 O42 2.223 1_455 S
Cd43 O46 2.297 1_455 S
Cd43 O47 2.439 1_455 S
Cd43 O53 2.240 1_545 S
Cd44 O45 2.240 1_565 S
Cd44 O52 2.223 1_655 S
Cd44 O54 2.297 1_655 S
Cd44 O55 2.439 1_655 S
O45 Cd44 2.240 1_545 S
O45 C50 1.279 . S
O46 Cd43 2.297 1_655 S
O46 C48 1.247 . S
O47 Cd43 2.439 1_655 S
O47 C48 1.208 . S
C48 O46 1.247 . S
C48 O47 1.208 . S
C49 O54 1.247 . S
C49 O55 1.208 . S
C50 O42 1.315 . S
C50 O45 1.279 . S
C51 O52 1.315 . S
C51 O53 1.279 . S
O52 Cd44 2.223 1_455 S
O52 C51 1.315 . S
O53 Cd43 2.240 1_565 S
O53 C51 1.279 . S
O54 Cd44 2.297 1_455 S
O54 C49 1.247 . S
O55 Cd44 2.439 1_455 S
O55 C49 1.208 . S
C56 C57 1.386 1_545 S
C56 C58 1.383 . S
C56 H72 0.951 . S
C57 C56 1.386 1_565 S
C57 C61 1.383 . S
C58 C56 1.383 . S
C58 C59 1.402 1_545 S
C58 H73 0.951 . S
C59 C58 1.402 1_565 S
C59 C60 1.375 . S
C59 C62 1.481 . S
C60 C59 1.375 . S
C60 C61 1.367 . S
C60 H74 0.951 . S
C61 C57 1.383 . S
C61 C60 1.367 . S
C61 H75 0.950 . S
C62 C59 1.481 . S
C62 C63 1.297 1_565 S
C62 H76 0.950 . S
C63 C62 1.297 1_545 S
C63 C64 1.479 . S
C63 H77 0.950 . S
C64 C63 1.479 . S
C64 C65 1.375 . S
C64 C70 1.404 1_545 S
C65 C64 1.375 . S
C65 C66 1.369 . S
C65 H78 0.950 . S
C66 C65 1.369 . S
C66 C67 1.392 . S
C66 H79 0.951 . S
C67 C66 1.392 . S
C67 C69 1.384 1_545 S
H68 C70 0.949 . S
C69 C67 1.384 1_565 S
C69 C70 1.385 . S
C69 H71 0.950 . S
C70 C64 1.404 1_565 S
C70 H68 0.949 . S
C70 C69 1.385 . S
H71 C69 0.950 . S
H72 C56 0.951 . S
H73 C58 0.951 . S
H74 C60 0.951 . S
H75 C61 0.950 . S
H76 C62 0.950 . S
H77 C63 0.950 . S
H78 C65 0.950 . S
H79 C66 0.951 . S
C80 C81 1.386 . S
C80 C82 1.383 . S
C80 H96 0.951 . S
C81 C80 1.386 . S
C81 C85 1.383 1_655 S
C82 C80 1.383 . S
C82 C83 1.402 . S
C82 H97 0.951 . S
C83 C82 1.402 . S
C83 C84 1.375 1_655 S
C83 C86 1.481 . S
C84 C83 1.375 1_455 S
C84 C85 1.367 . S
C84 H98 0.951 . S
C85 C81 1.383 1_455 S
C85 C84 1.367 . S
C85 H99 0.950 . S
C86 C83 1.481 . S
C86 C87 1.297 . S
C86 H100 0.950 1_655 S
C87 C86 1.297 . S
C87 C88 1.479 . S
C87 H101 0.950 . S
C88 C87 1.479 . S
C88 C89 1.375 . S
C88 C94 1.404 . S
C89 C88 1.375 . S
C89 C90 1.369 . S
C89 H102 0.950 . S
C90 C89 1.369 . S
C90 C91 1.392 . S
C90 H103 0.951 . S
C91 C90 1.392 . S
C91 C93 1.384 . S
H92 C94 0.949 1_455 S
C93 C91 1.384 . S
C93 C94 1.385 . S
C93 H95 0.950 1_655 S
C94 C88 1.404 . S
C94 H92 0.949 1_655 S
C94 C93 1.385 . S
H95 C93 0.950 1_455 S
H96 C80 0.951 . S
H97 C82 0.951 . S
H98 C84 0.951 . S
H99 C85 0.950 . S
H100 C86 0.950 1_455 S
H101 C87 0.950 . S
H102 C89 0.950 . S
H103 C90 0.951 . S
C104 C105 1.386 1_565 S
C104 C106 1.383 . S
C104 H120 0.951 . S
C105 C104 1.386 1_545 S
C105 C109 1.383 . S
C106 C104 1.383 . S
C106 C107 1.402 1_565 S
C106 H121 0.951 . S
C107 C106 1.402 1_545 S
C107 C108 1.375 . S
C107 C110 1.481 . S
C108 C107 1.375 . S
C108 C109 1.367 . S
C108 H122 0.951 . S
C109 C105 1.383 . S
C109 C108 1.367 . S
C109 H123 0.950 . S
C110 C107 1.481 . S
C110 C111 1.297 . S
C110 H124 0.950 . S
C111 C110 1.297 . S
C111 C112 1.479 . S
C111 H125 0.949 1_545 S
C112 C111 1.479 . S
C112 C113 1.376 1_545 S
C112 C118 1.403 . S
C113 C112 1.376 1_565 S
C113 C114 1.369 . S
C113 H126 0.950 . S
C114 C113 1.369 . S
C114 C115 1.392 . S
C114 H127 0.951 . S
C115 C114 1.392 . S
C115 C117 1.384 1_565 S
H116 C118 0.949 . S
C117 C115 1.384 1_545 S
C117 C118 1.385 . S
C117 H119 0.950 . S
C118 C112 1.403 . S
C118 H116 0.949 . S
C118 C117 1.385 . S
H119 C117 0.950 . S
H120 C104 0.951 . S
H121 C106 0.951 . S
H122 C108 0.951 . S
H123 C109 0.950 . S
H124 C110 0.950 . S
H125 C111 0.949 1_565 S
H126 C113 0.950 . S
H127 C114 0.951 . S
C128 C129 1.386 . S
C128 C130 1.383 . S
C128 H144 0.951 . S
C129 C128 1.386 . S
C129 C133 1.383 . S
C130 C128 1.383 . S
C130 C131 1.402 . S
C130 H145 0.951 . S
C131 C130 1.402 . S
C131 C132 1.375 . S
C131 C134 1.481 . S
C132 C131 1.375 . S
C132 C133 1.367 . S
C132 H146 0.951 . S
C133 C129 1.383 . S
C133 C132 1.367 . S
C133 H147 0.950 1_455 S
C134 C131 1.481 . S
C134 C135 1.297 . S
C134 H148 0.950 . S
C135 C134 1.297 . S
C135 C136 1.479 . S
C135 H149 0.950 . S
C136 C135 1.479 . S
C136 C137 1.375 . S
C136 C142 1.404 . S
C137 C136 1.375 . S
C137 C138 1.369 . S
C137 H150 0.950 . S
C138 C137 1.369 . S
C138 C139 1.392 . S
C138 H151 0.951 . S
C139 C138 1.392 . S
C139 C141 1.384 . S
H140 C142 0.949 . S
C141 C139 1.384 . S
C141 C142 1.385 . S
C141 H143 0.950 . S
C142 C136 1.404 . S
C142 H140 0.949 . S
C142 C141 1.385 . S
H143 C141 0.950 . S
H144 C128 0.951 . S
H145 C130 0.951 . S
H146 C132 0.951 . S
H147 C133 0.950 1_655 S
H148 C134 0.950 . S
H149 C135 0.950 . S
H150 C137 0.950 . S
H151 C138 0.951 . S
C152 C153 1.386 . S
C152 C154 1.383 . S
C152 H168 0.951 . S
C153 C152 1.386 . S
C153 C157 1.383 . S
C154 C152 1.383 . S
C154 C155 1.402 . S
C154 H169 0.951 . S
C155 C154 1.402 . S
C155 C156 1.375 . S
C155 C158 1.481 . S
C156 C155 1.375 . S
C156 C157 1.367 . S
C156 H170 0.951 . S
C157 C153 1.383 . S
C157 C156 1.367 . S
C157 H171 0.950 . S
C158 C155 1.481 . S
C158 C159 1.297 . S
C158 H172 0.950 . S
C159 C158 1.297 . S
C159 C160 1.479 . S
C159 H173 0.950 . S
C160 C159 1.479 . S
C160 C161 1.375 . S
C160 C166 1.404 . S
C161 C160 1.375 . S
C161 C162 1.369 . S
C161 H174 0.950 . S
C162 C161 1.369 . S
C162 C163 1.392 . S
C162 H175 0.951 . S
C163 C162 1.392 . S
C163 C165 1.384 . S
H164 C166 0.949 . S
C165 C163 1.384 . S
C165 C166 1.385 . S
C165 H167 0.950 . S
C166 C160 1.404 . S
C166 H164 0.949 . S
C166 C165 1.385 . S
H167 C165 0.950 . S
H168 C152 0.951 . S
H169 C154 0.951 . S
H170 C156 0.951 . S
H171 C157 0.950 . S
H172 C158 0.950 . S
H173 C159 0.950 . S
H174 C161 0.950 . S
H175 C162 0.951 . S
C176 C177 1.386 . S
C176 C178 1.383 . S
C176 H192 0.951 . S
C177 C176 1.386 . S
C177 C181 1.383 1_455 S
C178 C176 1.383 . S
C178 C179 1.402 . S
C178 H193 0.951 . S
C179 C178 1.402 . S
C179 C180 1.375 1_455 S
C179 C182 1.481 . S
C180 C179 1.375 1_655 S
C180 C181 1.367 . S
C180 H194 0.951 . S
C181 C177 1.383 1_655 S
C181 C180 1.367 . S
C181 H195 0.950 . S
C182 C179 1.481 . S
C182 C183 1.297 . S
C182 H196 0.950 1_455 S
C183 C182 1.297 . S
C183 C184 1.479 . S
C183 H197 0.950 . S
C184 C183 1.479 . S
C184 C185 1.375 . S
C184 C190 1.404 . S
C185 C184 1.375 . S
C185 C186 1.369 . S
C185 H198 0.950 . S
C186 C185 1.369 . S
C186 C187 1.392 . S
C186 H199 0.951 . S
C187 C186 1.392 . S
C187 C189 1.384 . S
H188 C190 0.949 1_655 S
C189 C187 1.384 . S
C189 C190 1.385 . S
C189 H191 0.950 1_455 S
C190 C184 1.404 . S
C190 H188 0.949 1_455 S
C190 C189 1.385 . S
H191 C189 0.950 1_655 S
H192 C176 0.951 . S
H193 C178 0.951 . S
H194 C180 0.951 . S
H195 C181 0.950 . S
H196 C182 0.950 1_655 S
H197 C183 0.950 . S
H198 C185 0.950 . S
H199 C186 0.951 . S
C200 C201 1.386 1_545 S
C200 C202 1.383 . S
C200 H216 0.951 . S
C201 C200 1.386 1_565 S
C201 C205 1.383 . S
C202 C200 1.383 . S
C202 C203 1.402 1_545 S
C202 H217 0.951 . S
C203 C202 1.402 1_565 S
C203 C204 1.375 . S
C203 C206 1.481 . S
C204 C203 1.375 . S
C204 C205 1.367 . S
C204 H218 0.951 . S
C205 C201 1.383 . S
C205 C204 1.367 . S
C205 H219 0.950 . S
C206 C203 1.481 . S
C206 C207 1.297 1_565 S
C206 H220 0.950 . S
C207 C206 1.297 1_545 S
C207 C208 1.479 . S
C207 H221 0.950 . S
C208 C207 1.479 . S
C208 C209 1.375 . S
C208 C214 1.404 1_545 S
C209 C208 1.375 . S
C209 C210 1.369 . S
C209 H222 0.950 . S
C210 C209 1.369 . S
C210 C211 1.392 . S
C210 H223 0.951 . S
C211 C210 1.392 . S
C211 C213 1.384 1_545 S
H212 C214 0.949 . S
C213 C211 1.384 1_565 S
C213 C214 1.385 . S
C213 H215 0.950 . S
C214 C208 1.404 1_565 S
C214 H212 0.949 . S
C214 C213 1.385 . S
H215 C213 0.950 . S
H216 C200 0.951 . S
H217 C202 0.951 . S
H218 C204 0.951 . S
H219 C205 0.950 . S
H220 C206 0.950 . S
H221 C207 0.950 . S
H222 C209 0.950 . S
H223 C210 0.951 . S
C224 C225 1.386 1_455 S
C224 C226 1.383 1_455 S
C224 H240 0.950 . S
C225 C224 1.386 1_655 S
C225 C229 1.383 . S
C226 C224 1.383 1_655 S
C226 C227 1.402 . S
C226 H241 0.951 . S
C227 C226 1.402 . S
C227 C228 1.375 . S
C227 C230 1.481 . S
C228 C227 1.375 . S
C228 C229 1.367 . S
C228 H242 0.951 . S
C229 C225 1.383 . S
C229 C228 1.367 . S
C229 H243 0.950 . S
C230 C227 1.481 . S
C230 C231 1.297 . S
C230 H244 0.950 . S
C231 C230 1.297 . S
C231 C232 1.479 . S
C231 H245 0.950 . S
C232 C231 1.479 . S
C232 C233 1.375 . S
C232 C238 1.404 . S
C233 C232 1.375 . S
C233 C234 1.369 . S
C233 H246 0.950 . S
C234 C233 1.369 . S
C234 C235 1.392 . S
C234 H247 0.951 . S
C235 C234 1.392 . S
C235 C237 1.384 . S
H236 C238 0.949 . S
C237 C235 1.384 . S
C237 C238 1.385 . S
C237 H239 0.950 . S
C238 C232 1.404 . S
C238 H236 0.949 . S
C238 C237 1.385 . S
H239 C237 0.950 . S
H240 C224 0.950 . S
H241 C226 0.951 . S
H242 C228 0.951 . S
H243 C229 0.950 . S
H244 C230 0.950 . S
H245 C231 0.950 . S
H246 C233 0.950 . S
H247 C234 0.951 . S
C67 C37 1.540 . S
C57 C13 1.543 1_565 S
C91 C48 1.539 . S
C81 C15 1.558 1_655 S
C115 C36 1.542 . S
C105 C1 1.541 . S
C139 C49 1.534 . S
C129 C27 1.555 1_455 S
C163 C51 1.530 . S
C153 C0 1.544 1_565 S
C187 C35 1.538 . S
C177 C26 1.559 . S
C211 C50 1.540 . S
C201 C12 1.552 1_565 S
C225 C14 1.552 . S
C235 C34 1.522 . S
