# Generated by pormake.
# Topology scu, (8,4)-cn, num edge types: 1
# Building blocks:
#     Node 0, Type 0, BuildingBlock: TAGTUT_clean_sbu_3, # of connection points: 8
#     Node 1, Type 1, BuildingBlock: ESEHIV_clean_sbu_0, # of connection points: 4
#     Node 2, Type 1, BuildingBlock: ESEHIV_clean_sbu_0, # of connection points: 4
#     Edge 3, Type (0, 1), BuildingBlock: OJICUG_clean_linker_0, # of connection points: 2
#     Edge 4, Type (0, 1), BuildingBlock: OJICUG_clean_linker_0, # of connection points: 2
#     Edge 5, Type (0, 1), BuildingBlock: OJICUG_clean_linker_0, # of connection points: 2
#     Edge 6, Type (0, 1), BuildingBlock: OJICUG_clean_linker_0, # of connection points: 2
#     Edge 7, Type (0, 1), BuildingBlock: OJICUG_clean_linker_0, # of connection points: 2
#     Edge 8, Type (0, 1), BuildingBlock: OJICUG_clean_linker_0, # of connection points: 2
#     Edge 9, Type (0, 1), BuildingBlock: OJICUG_clean_linker_0, # of connection points: 2
#     Edge 10, Type (0, 1), BuildingBlock: OJICUG_clean_linker_0, # of connection points: 2
# Relax obj value: 0.025
# Max RMSD: 0.111
# Mean RMSD: 0.105
data_MOF--net-scu--node1-TAGTUT_clean_sbu_3--node2-ESEHIV_clean_sbu_0--edge1-OJICUG_clean_linker_0
_symmetry_space_group_name_H-M    P1
_symmetry_Int_Tables_number       1
_symmetry_cell_setting            triclinic
loop_
_symmetry_equiv_pos_as_xyz
'x, y, z'
_cell_length_a     21.831587
_cell_length_b     17.849084
_cell_length_c     15.655395
_cell_angle_alpha  95.886934
_cell_angle_beta   95.358084
_cell_angle_gamma 89.762406
loop_
_atom_site_label
_atom_site_type_symbol
_atom_site_fract_x
_atom_site_fract_y
_atom_site_fract_z
_atom_type_partial_charge
C0 C 0.9983 0.88551 0.08884 0.0
C1 C 0.77307 0.98382 0.05591 0.0
C2 C 0.82072 0.05793 0.81637 0.0
Mg3 Mg 0.12113 0.93239 0.01415 0.0
Mg4 Mg 0.15428 0.10745 -0.00706 0.0
O5 O 0.09661 0.02953 0.96511 0.0
Mg6 Mg 1.0071 0.03696 0.9885 0.0
O7 O 0.91772 0.02934 0.01094 0.0
Mg8 Mg 0.89236 0.93143 0.94103 0.0
Mg9 Mg 0.86022 0.10677 0.00448 0.0
C10 C 0.03966 0.19129 0.90158 0.0
O11 O 1.01515 0.13652 0.09893 0.0
O12 O 0.21013 0.93394 0.94184 0.0
O13 O 0.92017 0.18852 0.08181 0.0
O14 O 0.17364 0.99396 0.13591 0.0
O15 O 0.22665 0.05522 0.92312 0.0
O16 O 0.18683 0.11645 0.1276 0.0
O17 O 0.98445 0.94199 0.88002 0.0
O18 O 0.06775 0.87025 0.8942 0.0
C19 C 1.01514 0.88392 0.8559 0.0
C20 C 0.24095 0.98532 0.91237 0.0
O21 O 1.00024 0.13706 0.90098 0.0
O22 O 0.80355 0.93269 0.01426 0.0
O23 O 0.0947 0.19068 0.93882 0.0
O24 O 0.84006 0.993 0.83392 0.0
O25 O 0.78779 0.05374 0.06174 0.0
O26 O 0.82764 0.11553 0.87179 0.0
O27 O 0.0288 0.94338 0.07593 0.0
O28 O 0.94555 0.87046 0.04793 0.0
C29 C 0.19337 0.05878 0.16918 0.0
C30 C 0.97587 0.18907 0.11699 0.0
Cu31 Cu 0.01791 0.55313 0.50311 0.0
N32 N 0.05874 0.50617 0.59212 0.0
N33 N 0.06235 0.43112 0.69815 0.0
C34 C 0.03549 0.44443 0.62022 0.0
C35 C 0.10478 0.48646 0.71952 0.0
C36 C 0.10209 0.53309 0.6542 0.0
O37 O 0.99093 0.47394 0.41458 0.0
C38 C 0.94599 0.67908 0.55606 0.0
O39 O 0.95527 0.70854 0.48488 0.0
H40 H 0.9961 0.41363 0.58719 0.0
H41 H 0.12671 0.58557 0.65516 0.0
N42 N 0.06519 0.61902 0.45102 0.0
N43 N 0.08118 0.69746 0.35239 0.0
C44 C 0.04683 0.6404 0.37293 0.0
C45 C 0.11389 0.663 0.48129 0.0
C46 C 0.12397 0.71141 0.42042 0.0
C47 C 0.03355 0.43232 0.3856 0.0
O48 O 0.0907 0.44554 0.41776 0.0
H49 H 1.00542 0.61841 0.33563 0.0
H50 H 0.13817 0.66306 0.54464 0.0
O51 O 0.95378 0.60871 0.55932 0.0
H52 H 0.13409 0.49444 0.77944 0.0
H53 H 0.15846 0.75551 0.42784 0.0
Cu54 Cu 0.50693 0.98724 0.48402 0.0
N55 N 0.47877 0.93152 0.56751 0.0
N56 N 0.42544 0.9129 0.67886 0.0
C57 C 0.44371 0.96301 0.62745 0.0
C58 C 0.45039 0.8467 0.65011 0.0
C59 C 0.4837 0.85849 0.5815 0.0
O60 O 0.43702 0.04502 0.43979 0.0
C61 C 0.6263 0.00601 0.55167 0.0
O62 O 0.62446 0.93444 0.52188 0.0
H63 H 0.42985 0.02143 0.63058 0.0
H64 H 0.50879 0.81668 0.544 0.0
N65 N 0.53445 0.93101 0.38766 0.0
N66 N 0.58765 0.91172 0.27202 0.0
C67 C 0.56961 0.96222 0.33469 0.0
C68 C 0.52921 0.85776 0.35733 0.0
C69 C 0.56244 0.84557 0.286 0.0
C70 C 0.38784 0.00611 0.42062 0.0
O71 O 0.38905 0.93452 0.43353 0.0
H72 H 0.5838 0.02073 0.34467 0.0
H73 H 0.50404 0.81605 0.38562 0.0
O74 O 0.57746 0.04493 0.54166 0.0
H75 H 0.44477 0.79362 0.67631 0.0
H76 H 0.56788 0.79223 0.24797 0.0
C77 C 0.94734 0.30481 0.20795 0.0
C78 C 0.99269 0.25221 0.18411 0.0
H79 H 0.92447 0.40195 0.28997 0.0
C80 C 0.05214 0.26001 0.22677 0.0
H81 H 0.90088 0.30097 0.1768 0.0
C82 C 0.0656 0.31884 0.29216 0.0
C83 C 0.01976 0.37051 0.31633 0.0
H84 H 0.08806 0.2206 0.21014 0.0
H85 H 0.11177 0.32337 0.32425 0.0
C86 C 0.96065 0.36291 0.27332 0.0
C87 C 0.67957 0.01711 0.13227 0.0
C88 C 0.72087 0.96196 0.10268 0.0
H89 H 0.60386 0.04383 0.20655 0.0
C90 C 0.7138 0.88768 0.12312 0.0
H91 H 0.6829 0.07461 0.11666 0.0
C92 C 0.66848 0.87011 0.17598 0.0
C93 C 0.62926 0.92643 0.20906 0.0
H94 H 0.74483 0.84381 0.10129 0.0
H95 H 0.66598 0.81332 0.19388 0.0
C96 C 0.63429 0.99951 0.18431 0.0
C97 C 1.00438 0.75992 0.1468 0.0
C98 C 0.02471 0.83477 0.15153 0.0
H99 H 1.0087 0.6565 0.20387 0.0
C100 C 0.06863 0.86169 0.21898 0.0
H101 H 0.97142 0.73713 0.09468 0.0
C102 C 0.08921 0.81592 0.28314 0.0
C103 C 0.06677 0.74181 0.28076 0.0
H104 H 0.08513 0.91927 0.22429 0.0
H105 H 0.12071 0.83998 0.33614 0.0
C106 C 0.02569 0.71378 0.20996 0.0
C107 C 0.28629 0.10985 0.26296 0.0
C108 C 0.23425 0.06224 0.25031 0.0
H109 H 0.37689 0.12949 0.32776 0.0
C110 C 0.22887 0.00668 0.30639 0.0
H111 H 0.29176 0.15305 0.22042 0.0
C112 C 0.27721 0.99346 0.36751 0.0
C113 C 0.33226 0.03511 0.37354 0.0
H114 H 0.1891 0.96967 0.29884 0.0
H115 H 0.273 0.94692 0.40594 0.0
C116 C 0.33518 0.09622 0.32417 0.0
C117 C 0.95305 0.85509 0.71356 0.0
C118 C 0.98883 0.82993 0.7843 0.0
H119 H 0.91141 0.82656 0.58458 0.0
C120 C 1.00277 0.7531 0.78359 0.0
H121 H 0.94155 0.91414 0.71276 0.0
C122 C 0.98391 0.70282 0.71183 0.0
C123 C 0.9522 0.72873 0.63815 0.0
H124 H 0.02967 0.73213 0.83775 0.0
H125 H 0.99778 0.6445 0.7122 0.0
C126 C 0.93567 0.80505 0.64045 0.0
C127 C 0.33418 0.01895 0.84264 0.0
C128 C 0.29288 0.96362 0.86026 0.0
H129 H 0.40967 0.0457 0.77377 0.0
C130 C 0.29967 0.88916 0.82312 0.0
H131 H 0.33104 0.07661 0.87112 0.0
C132 C 0.34473 0.8715 0.76602 0.0
C133 C 0.38398 0.92791 0.74526 0.0
H134 H 0.26863 0.84514 0.83537 0.0
H135 H 0.34702 0.81451 0.73544 0.0
C136 C 0.37921 1.00126 0.78633 0.0
C137 C 0.04543 0.32782 0.89107 0.0
C138 C 0.02603 0.25628 0.85247 0.0
H139 H 0.07198 0.43959 0.87241 0.0
C140 C 1.01115 0.24569 0.76296 0.0
H141 H 0.05754 0.33714 0.9601 0.0
C142 C 0.02066 0.30423 0.71223 0.0
C143 C 0.04527 0.37396 0.75046 0.0
H144 H 0.99742 0.19059 0.7316 0.0
H145 H 1.0125 0.29331 0.64282 0.0
C146 C 0.05491 0.38601 0.84071 0.0
C147 C 0.72832 0.10915 0.73458 0.0
C148 C 0.77999 0.06161 0.736 0.0
H149 H 0.63802 0.12893 0.67413 0.0
C150 C 0.78508 0.00635 0.66662 0.0
H151 H 0.72308 0.15211 0.78747 0.0
C152 C 0.73676 0.99334 0.60213 0.0
C153 C 0.68204 0.03491 0.60586 0.0
H154 H 0.82459 0.9694 0.66547 0.0
H155 H 0.74068 0.94701 0.55254 0.0
C156 C 0.67948 0.09575 0.66989 0.0
loop_
_geom_bond_atom_site_label_1
_geom_bond_atom_site_label_2
_geom_bond_distance
_geom_bond_site_symmetry_2
_ccdc_geom_bond_type
C0 O27 1.312 1_655 S
C0 O28 1.208 . S
C1 O22 1.331 1_545 S
C1 O25 1.244 . S
C2 O24 1.264 1_545 S
C2 O26 1.273 . S
Mg3 O5 1.936 1_564 S
Mg3 O12 2.081 1_554 S
Mg3 O14 2.023 . S
Mg3 O18 2.031 1_554 S
Mg3 O27 2.291 . S
Mg4 O5 1.963 . S
Mg4 O15 1.942 . S
Mg4 O16 1.955 1_556 S
Mg4 O23 1.986 . S
O5 Mg3 1.936 1_546 S
O5 Mg4 1.963 . S
O5 Mg6 1.915 1_556 S
Mg6 O5 1.915 1_554 S
Mg6 O7 1.915 1_455 S
Mg6 O11 2.013 . S
Mg6 O17 2.114 1_444 S
Mg6 O21 2.013 1_454 S
Mg6 O27 2.114 1_545 S
O7 Mg6 1.915 1_655 S
O7 Mg8 1.936 1_544 S
O7 Mg9 1.963 . S
Mg8 O7 1.936 1_566 S
Mg8 O17 2.291 . S
Mg8 O22 2.081 1_556 S
Mg8 O24 2.023 . S
Mg8 O28 2.031 1_556 S
Mg9 O7 1.963 . S
Mg9 O13 1.986 . S
Mg9 O25 1.942 . S
Mg9 O26 1.955 1_554 S
C10 O21 1.191 1_455 S
C10 O23 1.307 . S
O11 Mg6 2.013 . S
O11 C30 1.191 1_455 S
O12 Mg3 2.081 1_556 S
O12 C20 1.331 . S
O13 Mg9 1.986 . S
O13 C30 1.307 . S
O14 Mg3 2.023 . S
O14 C29 1.264 1_565 S
O15 Mg4 1.942 . S
O15 C20 1.244 1_545 S
O16 Mg4 1.955 1_554 S
O16 C29 1.273 . S
O17 Mg6 2.114 1_666 S
O17 Mg8 2.291 . S
O17 C19 1.312 1_655 S
O18 Mg3 2.031 1_556 S
O18 C19 1.208 . S
C19 O17 1.312 1_455 S
C19 O18 1.208 . S
C20 O12 1.331 . S
C20 O15 1.244 1_565 S
O21 Mg6 2.013 1_656 S
O21 C10 1.191 1_655 S
O22 C1 1.331 1_565 S
O22 Mg8 2.081 1_554 S
O23 Mg4 1.986 . S
O23 C10 1.307 . S
O24 C2 1.264 1_565 S
O24 Mg8 2.023 . S
O25 C1 1.244 . S
O25 Mg9 1.942 . S
O26 C2 1.273 . S
O26 Mg9 1.955 1_556 S
O27 C0 1.312 1_455 S
O27 Mg3 2.291 . S
O27 Mg6 2.114 1_565 S
O28 C0 1.208 . S
O28 Mg8 2.031 1_554 S
C29 O14 1.264 1_545 S
C29 O16 1.273 . S
C30 O11 1.191 1_655 S
C30 O13 1.307 . S
Cu31 N32 1.999 . S
Cu31 O37 1.974 . S
Cu31 N42 1.985 . S
Cu31 O51 1.959 . S
N32 Cu31 1.999 . S
N32 C34 1.263 . S
N32 C36 1.389 . S
N33 C34 1.358 . S
N33 C35 1.400 . S
C34 N32 1.263 . S
C34 N33 1.358 . S
C34 H40 0.930 1_655 S
C35 N33 1.400 . S
C35 C36 1.351 . S
C35 H52 0.930 . S
C36 N32 1.389 . S
C36 C35 1.351 . S
C36 H41 0.930 . S
O37 Cu31 1.974 . S
O37 C47 1.282 1_655 S
C38 O39 1.261 . S
C38 O51 1.251 1_455 S
O39 C38 1.261 . S
H40 C34 0.930 1_455 S
H41 C36 0.930 . S
N42 Cu31 1.985 . S
N42 C44 1.335 . S
N42 C45 1.390 1_655 S
N43 C44 1.345 . S
N43 C46 1.336 1_655 S
C44 N42 1.335 . S
C44 N43 1.345 . S
C44 H49 0.930 . S
C45 N42 1.390 1_455 S
C45 C46 1.346 . S
C45 H50 0.930 . S
C46 N43 1.336 1_455 S
C46 C45 1.346 . S
C46 H53 0.929 . S
C47 O37 1.282 1_455 S
C47 O48 1.216 . S
O48 C47 1.216 . S
H49 C44 0.930 . S
H50 C45 0.930 . S
O51 Cu31 1.959 . S
O51 C38 1.251 1_655 S
H52 C35 0.930 . S
H53 C46 0.929 . S
Cu54 N55 1.999 . S
Cu54 O60 1.974 . S
Cu54 N65 1.985 . S
Cu54 O74 1.959 . S
N55 Cu54 1.999 . S
N55 C57 1.263 . S
N55 C59 1.389 . S
N56 C57 1.358 . S
N56 C58 1.400 . S
C57 N55 1.263 . S
C57 N56 1.358 . S
C57 H63 0.930 1_545 S
C58 N56 1.400 . S
C58 C59 1.351 . S
C58 H75 0.930 . S
C59 N55 1.389 . S
C59 C58 1.351 . S
C59 H64 0.930 . S
O60 Cu54 1.974 . S
O60 C70 1.282 1_545 S
C61 O62 1.261 . S
C61 O74 1.251 1_565 S
O62 C61 1.261 . S
H63 C57 0.930 1_565 S
H64 C59 0.930 . S
N65 Cu54 1.985 . S
N65 C67 1.335 . S
N65 C68 1.390 1_545 S
N66 C67 1.345 . S
N66 C69 1.336 1_545 S
C67 N65 1.335 . S
C67 N66 1.345 . S
C67 H72 0.930 . S
C68 N65 1.390 1_565 S
C68 C69 1.346 . S
C68 H73 0.930 . S
C69 N66 1.336 1_565 S
C69 C68 1.346 . S
C69 H76 0.929 . S
C70 O60 1.282 1_565 S
C70 O71 1.216 . S
O71 C70 1.216 . S
H72 C67 0.930 . S
H73 C68 0.930 . S
O74 Cu54 1.959 . S
O74 C61 1.251 1_545 S
H75 C58 0.930 . S
H76 C69 0.929 . S
C77 C78 1.387 1_655 S
C77 H81 0.950 . S
C77 C86 1.390 . S
C78 C77 1.387 1_455 S
C78 C80 1.387 . S
H79 C86 0.950 . S
C80 C78 1.387 . S
C80 C82 1.390 . S
C80 H84 0.950 . S
H81 C77 0.950 . S
C82 C80 1.390 . S
C82 C83 1.387 . S
C82 H85 0.950 . S
C83 C82 1.387 . S
C83 C86 1.387 1_455 S
H84 C80 0.950 . S
H85 C82 0.950 . S
C86 C77 1.390 . S
C86 H79 0.950 . S
C86 C83 1.387 1_655 S
C87 C88 1.387 . S
C87 H91 0.950 . S
C87 C96 1.390 . S
C88 C87 1.387 . S
C88 C90 1.387 1_545 S
H89 C96 0.950 . S
C90 C88 1.387 1_565 S
C90 C92 1.390 . S
C90 H94 0.950 . S
H91 C87 0.950 . S
C92 C90 1.390 . S
C92 C93 1.387 1_565 S
C92 H95 0.950 . S
C93 C92 1.387 1_545 S
C93 C96 1.387 . S
H94 C90 0.950 . S
H95 C92 0.950 . S
C96 C87 1.390 . S
C96 H89 0.950 . S
C96 C93 1.387 . S
C97 C98 1.387 . S
C97 H101 0.950 . S
C97 C106 1.390 . S
C98 C97 1.387 . S
C98 C100 1.387 1_455 S
H99 C106 0.950 . S
C100 C98 1.387 1_655 S
C100 C102 1.390 . S
C100 H104 0.950 . S
H101 C97 0.950 . S
C102 C100 1.390 . S
C102 C103 1.387 . S
C102 H105 0.950 . S
C103 C102 1.387 . S
C103 C106 1.387 1_655 S
H104 C100 0.950 . S
H105 C102 0.950 . S
C106 C97 1.390 . S
C106 H99 0.950 . S
C106 C103 1.387 1_455 S
C107 C108 1.387 . S
C107 H111 0.950 . S
C107 C116 1.390 . S
C108 C107 1.387 . S
C108 C110 1.387 1_545 S
H109 C116 0.950 . S
C110 C108 1.387 1_565 S
C110 C112 1.390 . S
C110 H114 0.950 . S
H111 C107 0.950 . S
C112 C110 1.390 . S
C112 C113 1.387 . S
C112 H115 0.950 . S
C113 C112 1.387 . S
C113 C116 1.387 1_565 S
H114 C110 0.950 . S
H115 C112 0.950 . S
C116 C107 1.390 . S
C116 H109 0.950 . S
C116 C113 1.387 1_545 S
C117 C118 1.387 . S
C117 H121 0.950 . S
C117 C126 1.390 . S
C118 C117 1.387 . S
C118 C120 1.387 1_655 S
H119 C126 0.950 . S
C120 C118 1.387 1_455 S
C120 C122 1.390 . S
C120 H124 0.950 . S
H121 C117 0.950 . S
C122 C120 1.390 . S
C122 C123 1.387 . S
C122 H125 0.950 . S
C123 C122 1.387 . S
C123 C126 1.387 1_455 S
H124 C120 0.950 . S
H125 C122 0.950 . S
C126 C117 1.390 . S
C126 H119 0.950 . S
C126 C123 1.387 1_655 S
C127 C128 1.387 1_545 S
C127 H131 0.950 . S
C127 C136 1.390 . S
C128 C127 1.387 1_565 S
C128 C130 1.387 . S
H129 C136 0.950 . S
C130 C128 1.387 . S
C130 C132 1.390 . S
C130 H134 0.950 . S
H131 C127 0.950 . S
C132 C130 1.390 . S
C132 C133 1.387 1_565 S
C132 H135 0.950 . S
C133 C132 1.387 1_545 S
C133 C136 1.387 . S
H134 C130 0.950 . S
H135 C132 0.950 . S
C136 C127 1.390 . S
C136 H129 0.950 . S
C136 C133 1.387 . S
C137 C138 1.387 . S
C137 H141 0.950 . S
C137 C146 1.390 . S
C138 C137 1.387 . S
C138 C140 1.387 1_655 S
H139 C146 0.950 . S
C140 C138 1.387 1_455 S
C140 C142 1.390 . S
C140 H144 0.950 . S
H141 C137 0.950 . S
C142 C140 1.390 . S
C142 C143 1.387 1_455 S
C142 H145 0.950 . S
C143 C142 1.387 1_655 S
C143 C146 1.387 . S
H144 C140 0.950 . S
H145 C142 0.950 . S
C146 C137 1.390 . S
C146 H139 0.950 . S
C146 C143 1.387 . S
C147 C148 1.387 . S
C147 H151 0.950 . S
C147 C156 1.390 . S
C148 C147 1.387 . S
C148 C150 1.387 1_545 S
H149 C156 0.950 . S
C150 C148 1.387 1_565 S
C150 C152 1.390 . S
C150 H154 0.950 . S
H151 C147 0.950 . S
C152 C150 1.390 . S
C152 C153 1.387 . S
C152 H155 0.950 . S
C153 C152 1.387 . S
C153 C156 1.387 1_565 S
H154 C150 0.950 . S
H155 C152 0.950 . S
C156 C147 1.390 . S
C156 H149 0.950 . S
C156 C153 1.387 1_545 S
C78 C30 1.452 1_455 S
C83 C47 1.487 . S
C88 C1 1.433 . S
C93 N66 1.411 . S
C98 C0 1.346 1_455 S
C103 N43 1.368 . S
C108 C29 1.586 . S
C113 C70 1.644 . S
C118 C19 1.459 1_655 S
C123 C38 1.554 . S
C128 C20 1.473 . S
C133 N56 1.492 . S
C143 N33 1.385 . S
C138 C10 1.386 1_655 S
C148 C2 1.606 . S
C153 C61 1.651 . S
