# Generated by pormake.
# Topology scu, (8,4)-cn, num edge types: 1
# Building blocks:
#     Node 0, Type 0, BuildingBlock: VETTIZ_charged_sbu_0, # of connection points: 8
#     Node 1, Type 1, BuildingBlock: MUDLON_clean_sbu_0, # of connection points: 4
#     Node 2, Type 1, BuildingBlock: MUDLON_clean_sbu_0, # of connection points: 4
#     Edge 3, Type (0, 1), BuildingBlock: KIFKEQ_clean_linker_1, # of connection points: 2
#     Edge 4, Type (0, 1), BuildingBlock: KIFKEQ_clean_linker_1, # of connection points: 2
#     Edge 5, Type (0, 1), BuildingBlock: KIFKEQ_clean_linker_1, # of connection points: 2
#     Edge 6, Type (0, 1), BuildingBlock: KIFKEQ_clean_linker_1, # of connection points: 2
#     Edge 7, Type (0, 1), BuildingBlock: KIFKEQ_clean_linker_1, # of connection points: 2
#     Edge 8, Type (0, 1), BuildingBlock: KIFKEQ_clean_linker_1, # of connection points: 2
#     Edge 9, Type (0, 1), BuildingBlock: KIFKEQ_clean_linker_1, # of connection points: 2
#     Edge 10, Type (0, 1), BuildingBlock: KIFKEQ_clean_linker_1, # of connection points: 2
# Relax obj value: 0.036
# Max RMSD: 0.093
# Mean RMSD: 0.083
data_MOF--net-scu--node1-VETTIZ_charged_sbu_0--node2-MUDLON_clean_sbu_0--edge1-KIFKEQ_clean_linker_1
_symmetry_space_group_name_H-M    P1
_symmetry_Int_Tables_number       1
_symmetry_cell_setting            triclinic
loop_
_symmetry_equiv_pos_as_xyz
'x, y, z'
_cell_length_a     24.465791
_cell_length_b     25.054022
_cell_length_c     20.959324
_cell_angle_alpha  89.63341
_cell_angle_beta   90.467019
_cell_angle_gamma 88.454814
loop_
_atom_site_label
_atom_site_type_symbol
_atom_site_fract_x
_atom_site_fract_y
_atom_site_fract_z
_atom_type_partial_charge
Fe0 Fe 1.02435 0.01958 0.0772 0.0
O1 O 1.01269 0.06825 1.00149 0.0
Fe2 Fe 0.08515 0.9068 0.00644 0.0
Fe3 Fe 0.95329 0.12241 0.99327 0.0
O4 O 1.02731 0.9628 0.01037 0.0
O5 O 1.02792 0.96277 0.00324 0.0
O6 O 1.01283 0.06812 0.99476 0.0
Fe7 Fe 1.01937 1.01187 0.92815 0.0
C8 C 0.90407 0.04596 0.09221 0.0
O9 O 1.01992 0.08815 0.13549 0.0
O10 O 0.99849 0.15705 0.06433 0.0
O11 O 0.10203 0.02293 0.92385 0.0
O12 O 0.12919 0.93787 0.93146 0.0
O13 O 0.13604 0.94407 0.06883 0.0
O14 O 0.10819 0.02938 0.07328 0.0
O15 O 0.99604 0.14942 0.91674 0.0
O16 O 1.01135 0.07301 0.85776 0.0
C17 C 0.14384 0.99223 0.08447 0.0
O18 O 1.0241 0.94457 0.86786 0.0
O19 O 0.03539 0.87407 0.93857 0.0
O20 O 0.94134 1.00953 0.08892 0.0
O21 O 0.90802 0.09125 0.06535 0.0
C22 C 1.01556 0.13864 0.11933 0.0
C23 C 1.00918 0.12486 0.86461 0.0
C24 C 0.90054 0.03397 0.91358 0.0
O25 O 0.9052 0.0833 0.92654 0.0
O26 O 0.93727 0.99982 0.92945 0.0
C27 C 0.13775 0.98606 0.91534 0.0
O28 O 0.04576 0.88145 0.08717 0.0
O29 O 0.03782 0.95874 0.14682 0.0
C30 C 1.02006 0.89443 0.884 0.0
C31 C 0.04165 0.90681 0.14095 0.0
Mg32 Mg 0.03711 0.52234 0.51836 0.0
C33 C 0.04012 0.46019 0.40067 0.0
O34 O 0.08306 0.49038 0.39663 0.0
C35 C 0.97635 0.57172 0.62734 0.0
O36 O 1.00443 0.53401 0.65794 0.0
C37 C 0.09888 0.42388 0.56876 0.0
O38 O 0.10706 0.41647 0.50762 0.0
O39 O 0.07772 0.46818 0.58707 0.0
O40 O 1.00713 0.46805 0.44646 0.0
O41 O 0.0834 0.58296 0.46907 0.0
C42 C 0.08143 0.63098 0.48871 0.0
O43 O 0.06261 0.64075 0.54606 0.0
O44 O 0.97572 0.57119 0.56674 0.0
Mg45 Mg 0.52613 0.01976 0.51181 0.0
C46 C 0.42815 0.02557 0.4318 0.0
O47 O 0.42923 0.07148 0.46165 0.0
C48 C 0.62917 0.96549 0.5667 0.0
O49 O 0.65028 0.98121 0.51258 0.0
C50 C 0.4472 1.01334 0.60585 0.0
O51 O 0.45962 0.96653 0.58107 0.0
O52 O 0.47246 0.0538 0.58516 0.0
O53 O 0.46482 0.99002 0.44514 0.0
O54 O 0.5839 0.06071 0.44994 0.0
C55 C 0.5888 0.03701 0.39646 0.0
O56 O 0.55752 0.99653 0.38439 0.0
O57 O 0.57753 0.96839 0.57344 0.0
H58 H 0.05831 0.23447 0.09444 0.0
H59 H 1.00095 0.13708 0.24955 0.0
H60 H 0.06487 0.30991 0.16514 0.0
H61 H 1.00908 0.21333 0.32206 0.0
H62 H 0.96165 0.38344 0.40035 0.0
H63 H 0.96168 0.30109 0.33795 0.0
H64 H 0.11485 0.34381 0.25289 0.0
H65 H 0.11387 0.42615 0.31276 0.0
C66 C 0.04809 0.22895 0.14422 0.0
C67 C 0.02885 0.17996 0.16644 0.0
C68 C 0.05214 0.27224 0.18494 0.0
C69 C 0.0373 0.26781 0.24928 0.0
C70 C 1.02018 0.21811 0.27248 0.0
C71 C 1.01626 0.17432 0.23135 0.0
C72 C 0.99497 0.37536 0.36779 0.0
C73 C 0.03731 0.41176 0.36085 0.0
C74 C 0.99539 0.32786 0.33277 0.0
C75 C 0.03826 0.31588 0.2904 0.0
C76 C 0.08077 0.35211 0.2843 0.0
C77 C 0.08013 0.39949 0.31869 0.0
H78 H 0.80202 0.08737 0.07235 0.0
H79 H 0.89808 0.99132 0.20583 0.0
H80 H 0.72614 0.09003 0.14684 0.0
H81 H 0.82149 0.99405 0.28106 0.0
H82 H 0.69377 0.06718 0.42289 0.0
H83 H 0.77075 0.0664 0.34805 0.0
H84 H 0.66076 0.02669 0.19442 0.0
H85 H 0.58468 0.02727 0.26859 0.0
C86 C 0.80653 0.06608 0.11734 0.0
C87 C 0.85582 0.03884 0.13313 0.0
C88 C 0.76312 0.06776 0.16007 0.0
C89 C 0.76807 0.04277 0.22006 0.0
C90 C 0.81687 1.0143 0.23545 0.0
C91 C 0.86028 1.01198 0.19208 0.0
C92 C 0.68608 0.05964 0.37283 0.0
C93 C 0.63329 0.04773 0.35133 0.0
C94 C 0.73013 0.05831 0.33027 0.0
C95 C 0.7218 0.04595 0.26551 0.0
C96 C 0.6685 0.03647 0.24389 0.0
C97 C 0.62491 0.03701 0.28634 0.0
H98 H 0.98724 0.90612 0.25616 0.0
H99 H 0.12235 0.83324 0.15481 0.0
H100 H 1.00329 0.84253 0.34481 0.0
H101 H 0.13995 0.77201 0.24303 0.0
H102 H 0.10481 0.62459 0.36176 0.0
H103 H 0.09781 0.69552 0.28271 0.0
H104 H 0.06257 0.81014 0.43105 0.0
H105 H 0.06791 0.73836 0.51048 0.0
C106 C 1.02073 0.87707 0.2534 0.0
C107 C 0.05269 0.87358 0.19825 0.0
C108 C 0.03022 0.84085 0.30409 0.0
C109 C 0.07234 0.80132 0.30057 0.0
C110 C 0.10611 0.80055 0.24673 0.0
C111 C 0.09612 0.83583 0.19618 0.0
C112 C 0.0965 0.66499 0.37786 0.0
C113 C 0.08692 0.67563 0.44255 0.0
C114 C 0.09256 0.70591 0.33239 0.0
C115 C 0.07944 0.75879 0.35033 0.0
C116 C 0.07192 0.76984 0.4154 0.0
C117 C 0.07566 0.72873 0.46101 0.0
H118 H 0.22438 0.92044 0.11866 0.0
H119 H 0.17277 0.08516 0.14512 0.0
H120 H 0.29339 0.92888 0.20015 0.0
H121 H 0.24513 0.09474 0.22501 0.0
H122 H 0.3284 0.07455 0.41945 0.0
H123 H 0.26434 0.06996 0.33052 0.0
H124 H 0.37575 0.96092 0.23422 0.0
H125 H 0.43825 0.96344 0.32537 0.0
C126 C 0.22854 0.95909 0.1408 0.0
C127 C 0.1923 1.00203 0.12556 0.0
C128 C 0.2688 0.96401 0.18762 0.0
C129 C 0.27496 1.01234 0.2201 0.0
C130 C 0.24086 0.05641 0.20224 0.0
C131 C 0.19976 0.05123 0.15574 0.0
C132 C 0.33884 0.04916 0.37946 0.0
C133 C 0.38801 0.01889 0.37959 0.0
C134 C 0.30243 0.04711 0.3279 0.0
C135 C 0.31471 1.01546 0.27443 0.0
C136 C 0.36419 0.98513 0.27477 0.0
C137 C 0.40015 0.98642 0.32705 0.0
H138 H 0.94505 0.82111 0.91064 0.0
H139 H 0.04073 0.88267 0.75613 0.0
H140 H 0.91652 0.74753 0.84402 0.0
H141 H 1.01396 0.80743 0.68946 0.0
H142 H 0.94901 0.67041 0.5765 0.0
H143 H 0.94534 0.75523 0.63348 0.0
H144 H 0.96764 0.67003 0.81213 0.0
H145 H 0.9705 0.58591 0.75568 0.0
C146 C 0.95942 0.81909 0.86191 0.0
C147 C 0.99578 0.85686 0.83868 0.0
C148 C 0.94326 0.77685 0.82382 0.0
C149 C 0.96393 0.77077 0.76189 0.0
C150 C 0.9971 0.81095 0.7369 0.0
C151 C 1.01266 0.85395 0.77499 0.0
C152 C 0.95155 0.66976 0.62811 0.0
C153 C 0.96064 0.62134 0.66156 0.0
C154 C 0.95 0.71845 0.66066 0.0
C155 C 0.95679 0.71962 0.72731 0.0
C156 C 0.96174 0.67085 0.76087 0.0
C157 C 0.9636 0.62239 0.72843 0.0
H158 H 0.23068 0.92425 0.90762 0.0
H159 H 0.15989 0.07528 0.84381 0.0
H160 H 0.30929 0.93779 0.83995 0.0
H161 H 0.23802 0.08788 0.77351 0.0
H162 H 0.41013 0.10031 0.677 0.0
H163 H 0.33905 0.09994 0.75978 0.0
H164 H 0.31579 0.93215 0.72596 0.0
H165 H 0.38573 0.93215 0.64612 0.0
C166 C 0.2319 0.96045 0.87918 0.0
C167 C 0.18827 0.99799 0.87987 0.0
C168 C 0.27697 0.9682 0.84021 0.0
C169 C 0.27936 1.01331 0.80005 0.0
C170 C 0.23745 0.05266 0.80371 0.0
C171 C 0.19245 0.04519 0.84356 0.0
C172 C 0.38979 0.0635 0.68771 0.0
C173 C 0.40411 1.01623 0.65528 0.0
C174 C 0.34909 0.06327 0.73488 0.0
C175 C 0.32246 1.01572 0.75038 0.0
C176 C 0.33642 0.96912 0.71685 0.0
C177 C 0.37655 0.96932 0.67038 0.0
H178 H 0.95746 0.21786 0.83482 0.0
H179 H 0.08974 0.11342 0.77355 0.0
H180 H 0.9876 0.28717 0.76316 0.0
H181 H 0.12128 0.18423 0.70172 0.0
H182 H 0.11629 0.31843 0.53893 0.0
H183 H 0.09744 0.24116 0.606 0.0
H184 H 0.06533 0.34597 0.7649 0.0
H185 H 0.08277 0.42318 0.69774 0.0
C186 C 0.99288 0.20958 0.8054 0.0
C187 C 1.02181 0.16053 0.81052 0.0
C188 C 1.01057 0.24961 0.76485 0.0
C189 C 0.05799 0.24198 0.72842 0.0
C190 C 0.08495 0.19152 0.72986 0.0
C191 C 0.06684 0.15092 0.77063 0.0
C192 C 0.10633 0.32498 0.58857 0.0
C193 C 0.10013 0.37717 0.6127 0.0
C194 C 0.09555 0.28056 0.62697 0.0
C195 C 0.07851 0.28748 0.69025 0.0
C196 C 0.07684 0.33938 0.71572 0.0
C197 C 0.08732 0.38369 0.67738 0.0
H198 H 0.8055 0.08885 0.88051 0.0
H199 H 0.89323 0.93903 0.85101 0.0
H200 H 0.73641 0.06251 0.80245 0.0
H201 H 0.82474 0.91345 0.77281 0.0
H202 H 0.73888 0.94247 0.57061 0.0
H203 H 0.80086 0.95248 0.66153 0.0
H204 H 0.66345 0.99047 0.78237 0.0
H205 H 0.6012 0.97958 0.69182 0.0
C206 C 0.80974 0.05014 0.85809 0.0
C207 C 0.85508 1.01627 0.87197 0.0
C208 C 0.77006 0.03496 0.81361 0.0
C209 C 0.77537 0.986 0.7814 0.0
C210 C 0.81978 0.95152 0.79661 0.0
C211 C 0.85888 0.96624 0.84171 0.0
C212 C 0.72175 0.95156 0.61692 0.0
C213 C 0.66513 0.96023 0.62387 0.0
C214 C 0.75725 0.95734 0.66898 0.0
C215 C 0.73697 0.97282 0.72885 0.0
C216 C 0.68019 0.97901 0.73661 0.0
C217 C 0.64457 0.97223 0.68482 0.0
loop_
_geom_bond_atom_site_label_1
_geom_bond_atom_site_label_2
_geom_bond_distance
_geom_bond_site_symmetry_2
_ccdc_geom_bond_type
Fe0 O1 1.906 . S
Fe0 O4 1.694 1_645 S
Fe0 O9 2.098 1_655 S
Fe0 O14 1.922 1_655 S
Fe0 O20 2.093 1_545 S
Fe0 O29 1.916 1_545 S
O1 Fe0 1.906 . S
O1 Fe3 1.715 . S
Fe2 O4 1.886 . S
Fe2 O5 1.715 1_554 S
Fe2 O12 1.935 1_554 S
Fe2 O13 2.077 . S
Fe2 O19 1.935 1_554 S
Fe2 O28 2.077 . S
Fe3 O1 1.715 . S
Fe3 O6 1.886 1_554 S
Fe3 O10 1.935 . S
Fe3 O15 2.077 1_554 S
Fe3 O21 1.935 . S
Fe3 O25 2.077 1_554 S
O4 Fe0 1.694 1_465 S
O4 Fe2 1.886 . S
O5 Fe2 1.715 1_556 S
O5 Fe7 1.906 . S
O6 Fe3 1.886 1_556 S
O6 Fe7 1.694 1_645 S
Fe7 O5 1.906 . S
Fe7 O6 1.694 1_465 S
Fe7 O11 2.098 1_565 S
Fe7 O16 1.922 1_565 S
Fe7 O18 2.093 1_455 S
Fe7 O26 1.916 1_455 S
C8 O20 1.381 1_545 S
C8 O21 1.421 . S
O9 Fe0 2.098 1_455 S
O9 C22 1.381 1_455 S
O10 Fe3 1.935 . S
O10 C22 1.421 . S
O11 Fe7 2.098 1_545 S
O11 C27 1.381 1_545 S
O12 Fe2 1.935 1_556 S
O12 C27 1.421 . S
O13 Fe2 2.077 . S
O13 C17 1.381 . S
O14 Fe0 1.922 1_455 S
O14 C17 1.421 1_545 S
O15 Fe3 2.077 1_556 S
O15 C23 1.381 . S
O16 Fe7 1.922 1_545 S
O16 C23 1.421 1_455 S
C17 O13 1.381 . S
C17 O14 1.421 1_565 S
O18 Fe7 2.093 1_655 S
O18 C30 1.381 1_655 S
O19 Fe2 1.935 1_556 S
O19 C30 1.421 . S
O20 Fe0 2.093 1_565 S
O20 C8 1.381 1_565 S
O21 Fe3 1.935 . S
O21 C8 1.421 . S
C22 O9 1.381 1_655 S
C22 O10 1.421 . S
C23 O15 1.381 . S
C23 O16 1.421 1_655 S
C24 O25 1.381 . S
C24 O26 1.421 1_545 S
O25 Fe3 2.077 1_556 S
O25 C24 1.381 . S
O26 Fe7 1.916 1_655 S
O26 C24 1.421 1_565 S
C27 O11 1.381 1_565 S
C27 O12 1.421 . S
O28 Fe2 2.077 . S
O28 C31 1.381 . S
O29 Fe0 1.916 1_565 S
O29 C31 1.421 1_655 S
C30 O18 1.381 1_455 S
C30 O19 1.421 . S
C31 O28 1.381 . S
C31 O29 1.421 1_455 S
Mg32 O39 2.141 . S
Mg32 O40 2.048 . S
Mg32 O41 2.048 . S
Mg32 O44 2.141 . S
C33 O34 1.313 . S
C33 O40 1.195 1_455 S
O34 C33 1.313 . S
C35 O36 1.245 . S
C35 O44 1.289 1_455 S
O36 C35 1.245 . S
C37 O38 1.245 . S
C37 O39 1.289 1_455 S
O38 C37 1.245 . S
O39 Mg32 2.141 . S
O39 C37 1.289 1_655 S
O40 Mg32 2.048 . S
O40 C33 1.195 1_655 S
O41 Mg32 2.048 . S
O41 C42 1.195 1_655 S
C42 O41 1.195 1_455 S
C42 O43 1.313 . S
O43 C42 1.313 . S
O44 Mg32 2.141 . S
O44 C35 1.289 1_655 S
Mg45 O52 2.141 . S
Mg45 O53 2.048 . S
Mg45 O54 2.048 . S
Mg45 O57 2.141 . S
C46 O47 1.313 . S
C46 O53 1.195 1_565 S
O47 C46 1.313 . S
C48 O49 1.245 . S
C48 O57 1.289 1_565 S
O49 C48 1.245 . S
C50 O51 1.245 . S
C50 O52 1.289 1_565 S
O51 C50 1.245 . S
O52 Mg45 2.141 . S
O52 C50 1.289 1_545 S
O53 Mg45 2.048 . S
O53 C46 1.195 1_545 S
O54 Mg45 2.048 . S
O54 C55 1.195 1_545 S
C55 O54 1.195 1_565 S
C55 O56 1.313 . S
O56 C55 1.313 . S
O57 Mg45 2.141 . S
O57 C48 1.289 1_545 S
H58 C66 0.950 . S
H59 C71 0.950 . S
H60 C68 0.950 . S
H61 C70 0.950 . S
H62 C72 0.950 . S
H63 C74 0.950 . S
H64 C76 0.950 . S
H65 C77 0.950 . S
C66 H58 0.950 . S
C66 C67 1.386 1_455 S
C66 C68 1.391 . S
C67 C66 1.386 1_655 S
C67 C71 1.393 . S
C68 H60 0.950 . S
C68 C66 1.391 . S
C68 C69 1.398 1_455 S
C69 C68 1.398 1_655 S
C69 C70 1.401 . S
C69 C75 1.490 1_655 S
C70 H61 0.950 . S
C70 C69 1.401 . S
C70 C71 1.391 . S
C71 H59 0.950 . S
C71 C67 1.393 . S
C71 C70 1.391 . S
C72 H62 0.950 . S
C72 C73 1.386 1_655 S
C72 C74 1.391 . S
C73 C72 1.386 1_455 S
C73 C77 1.393 . S
C74 H63 0.950 . S
C74 C72 1.391 . S
C74 C75 1.400 1_655 S
C75 C69 1.490 1_455 S
C75 C74 1.400 1_455 S
C75 C76 1.398 . S
C76 H64 0.950 . S
C76 C75 1.398 . S
C76 C77 1.391 . S
C77 H65 0.950 . S
C77 C73 1.393 . S
C77 C76 1.391 . S
H78 C86 0.950 . S
H79 C91 0.950 . S
H80 C88 0.950 . S
H81 C90 0.950 . S
H82 C92 0.950 . S
H83 C94 0.950 . S
H84 C96 0.950 . S
H85 C97 0.950 . S
C86 H78 0.950 . S
C86 C87 1.386 . S
C86 C88 1.391 . S
C87 C86 1.386 . S
C87 C91 1.393 1_565 S
C88 H80 0.950 . S
C88 C86 1.391 . S
C88 C89 1.405 . S
C89 C88 1.405 . S
C89 C90 1.395 1_565 S
C89 C95 1.489 1_565 S
C90 H81 0.950 . S
C90 C89 1.395 1_545 S
C90 C91 1.391 . S
C91 H79 0.950 . S
C91 C87 1.393 1_545 S
C91 C90 1.391 . S
C92 H82 0.950 . S
C92 C93 1.386 . S
C92 C94 1.391 . S
C93 C92 1.386 . S
C93 C97 1.393 1_545 S
C94 H83 0.950 . S
C94 C92 1.391 . S
C94 C95 1.405 . S
C95 C89 1.489 1_545 S
C95 C94 1.405 . S
C95 C96 1.395 1_545 S
C96 H84 0.950 . S
C96 C95 1.395 1_565 S
C96 C97 1.391 . S
C97 H85 0.950 . S
C97 C93 1.393 1_565 S
C97 C96 1.391 . S
H98 C106 0.950 . S
H99 C111 0.950 . S
H100 C108 0.950 . S
H101 C110 0.950 . S
H102 C112 0.950 . S
H103 C114 0.950 . S
H104 C116 0.950 . S
H105 C117 0.950 . S
C106 H98 0.950 . S
C106 C107 1.386 1_455 S
C106 C108 1.391 . S
C107 C106 1.386 1_655 S
C107 C111 1.393 . S
C108 H100 0.950 . S
C108 C106 1.391 . S
C108 C109 1.398 1_455 S
C109 C108 1.398 1_655 S
C109 C110 1.402 . S
C109 C115 1.490 1_655 S
C110 H101 0.950 . S
C110 C109 1.402 . S
C110 C111 1.391 . S
C111 H99 0.950 . S
C111 C107 1.393 . S
C111 C110 1.391 . S
C112 H102 0.950 . S
C112 C113 1.386 1_655 S
C112 C114 1.391 . S
C113 C112 1.386 1_455 S
C113 C117 1.393 . S
C114 H103 0.950 . S
C114 C112 1.391 . S
C114 C115 1.400 1_655 S
C115 C109 1.490 1_455 S
C115 C114 1.400 1_455 S
C115 C116 1.398 . S
C116 H104 0.950 . S
C116 C115 1.398 . S
C116 C117 1.391 . S
C117 H105 0.950 . S
C117 C113 1.393 . S
C117 C116 1.391 . S
H118 C126 0.950 . S
H119 C131 0.950 . S
H120 C128 0.950 . S
H121 C130 0.950 . S
H122 C132 0.950 . S
H123 C134 0.950 . S
H124 C136 0.950 . S
H125 C137 0.950 . S
C126 H118 0.950 . S
C126 C127 1.402 . S
C126 C128 1.391 . S
C127 C126 1.402 . S
C127 C131 1.376 1_545 S
C128 H120 0.950 . S
C128 C126 1.391 . S
C128 C129 1.410 . S
C129 C128 1.410 . S
C129 C130 1.389 1_545 S
C129 C135 1.490 1_545 S
C130 H121 0.950 . S
C130 C129 1.389 1_565 S
C130 C131 1.391 . S
C131 H119 0.950 . S
C131 C127 1.376 1_565 S
C131 C130 1.391 . S
C132 H122 0.950 . S
C132 C133 1.395 . S
C132 C134 1.391 . S
C133 C132 1.395 . S
C133 C137 1.383 1_565 S
C134 H123 0.950 . S
C134 C132 1.391 . S
C134 C135 1.402 . S
C135 C129 1.490 1_565 S
C135 C134 1.402 . S
C135 C136 1.396 1_565 S
C136 H124 0.950 . S
C136 C135 1.396 1_545 S
C136 C137 1.391 . S
C137 H125 0.950 . S
C137 C133 1.383 1_545 S
C137 C136 1.391 . S
H138 C146 0.950 . S
H139 C151 0.950 . S
H140 C148 0.951 . S
H141 C150 0.950 . S
H142 C152 0.950 . S
H143 C154 0.951 . S
H144 C156 0.950 . S
H145 C157 0.950 . S
C146 H138 0.950 . S
C146 C147 1.386 1_455 S
C146 C148 1.391 . S
C147 C146 1.386 1_655 S
C147 C151 1.393 . S
C148 H140 0.951 . S
C148 C146 1.391 . S
C148 C149 1.399 1_455 S
C149 C148 1.399 1_655 S
C149 C150 1.401 . S
C149 C155 1.490 1_655 S
C150 H141 0.950 . S
C150 C149 1.401 . S
C150 C151 1.391 . S
C151 H139 0.950 . S
C151 C147 1.393 . S
C151 C150 1.391 . S
C152 H142 0.950 . S
C152 C153 1.386 1_655 S
C152 C154 1.391 . S
C153 C152 1.386 1_455 S
C153 C157 1.393 . S
C154 H143 0.951 . S
C154 C152 1.391 . S
C154 C155 1.400 1_655 S
C155 C149 1.490 1_455 S
C155 C154 1.400 1_455 S
C155 C156 1.398 . S
C156 H144 0.950 . S
C156 C155 1.398 . S
C156 C157 1.391 . S
C157 H145 0.950 . S
C157 C153 1.393 . S
C157 C156 1.391 . S
H158 C166 0.950 . S
H159 C171 0.950 . S
H160 C168 0.950 . S
H161 C170 0.950 . S
H162 C172 0.950 . S
H163 C174 0.950 . S
H164 C176 0.950 . S
H165 C177 0.950 . S
C166 H158 0.950 . S
C166 C167 1.386 . S
C166 C168 1.391 . S
C167 C166 1.386 . S
C167 C171 1.393 1_565 S
C168 H160 0.950 . S
C168 C166 1.391 . S
C168 C169 1.406 . S
C169 C168 1.406 . S
C169 C170 1.393 1_565 S
C169 C175 1.491 1_565 S
C170 H161 0.950 . S
C170 C169 1.393 1_545 S
C170 C171 1.391 . S
C171 H159 0.950 . S
C171 C167 1.393 1_545 S
C171 C170 1.391 . S
C172 H162 0.950 . S
C172 C173 1.386 . S
C172 C174 1.391 . S
C173 C172 1.386 . S
C173 C177 1.393 1_545 S
C174 H163 0.950 . S
C174 C172 1.391 . S
C174 C175 1.411 . S
C175 C169 1.491 1_545 S
C175 C174 1.411 . S
C175 C176 1.388 1_545 S
C176 H164 0.950 . S
C176 C175 1.388 1_565 S
C176 C177 1.391 . S
C177 H165 0.950 . S
C177 C173 1.393 1_565 S
C177 C176 1.391 . S
H178 C186 0.950 . S
H179 C191 0.950 . S
H180 C188 0.950 . S
H181 C190 0.950 . S
H182 C192 0.950 . S
H183 C194 0.950 . S
H184 C196 0.950 . S
H185 C197 0.950 . S
C186 H178 0.950 . S
C186 C187 1.391 . S
C186 C188 1.391 . S
C187 C186 1.391 . S
C187 C191 1.388 1_655 S
C188 H180 0.950 . S
C188 C186 1.391 . S
C188 C189 1.401 . S
C189 C188 1.401 . S
C189 C190 1.398 1_655 S
C189 C195 1.491 1_655 S
C190 H181 0.950 . S
C190 C189 1.398 1_455 S
C190 C191 1.391 . S
C191 H179 0.950 . S
C191 C187 1.388 1_455 S
C191 C190 1.391 . S
C192 H182 0.950 . S
C192 C193 1.399 . S
C192 C194 1.391 . S
C193 C192 1.399 . S
C193 C197 1.380 1_455 S
C194 H183 0.950 . S
C194 C192 1.391 . S
C194 C195 1.409 . S
C195 C189 1.491 1_455 S
C195 C194 1.409 . S
C195 C196 1.390 1_455 S
C196 H184 0.950 . S
C196 C195 1.390 1_655 S
C196 C197 1.391 . S
C197 H185 0.950 . S
C197 C193 1.380 1_655 S
C197 C196 1.391 . S
H198 C206 0.950 . S
H199 C211 0.950 . S
H200 C208 0.950 . S
H201 C210 0.950 . S
H202 C212 0.950 . S
H203 C214 0.950 . S
H204 C216 0.950 . S
H205 C217 0.950 . S
C206 H198 0.950 . S
C206 C207 1.386 . S
C206 C208 1.391 . S
C207 C206 1.386 . S
C207 C211 1.393 1_545 S
C208 H200 0.950 . S
C208 C206 1.391 . S
C208 C209 1.408 . S
C209 C208 1.408 . S
C209 C210 1.390 1_545 S
C209 C215 1.491 1_545 S
C210 H201 0.950 . S
C210 C209 1.390 1_565 S
C210 C211 1.391 . S
C211 H199 0.950 . S
C211 C207 1.393 1_565 S
C211 C210 1.391 . S
C212 H202 0.950 . S
C212 C213 1.386 . S
C212 C214 1.391 . S
C213 C212 1.386 . S
C213 C217 1.393 1_565 S
C214 H203 0.950 . S
C214 C212 1.391 . S
C214 C215 1.408 . S
C215 C209 1.491 1_565 S
C215 C214 1.408 . S
C215 C216 1.391 1_565 S
C216 H204 0.950 . S
C216 C215 1.391 1_545 S
C216 C217 1.391 . S
C217 H205 0.950 . S
C217 C213 1.393 1_545 S
C217 C216 1.391 . S
C67 C22 1.408 . S
C73 C33 1.460 . S
C87 C8 1.429 1_565 S
C93 C55 1.472 1_545 S
C107 C31 1.426 1_655 S
C113 C42 1.463 . S
C127 C17 1.407 1_545 S
C133 C46 1.465 . S
C147 C30 1.362 1_655 S
C153 C35 1.386 . S
C167 C27 1.336 . S
C173 C50 1.394 1_545 S
C193 C37 1.388 . S
C187 C23 1.351 . S
C207 C24 1.331 . S
C213 C48 1.388 . S
