# Generated by pormake.
# Topology llj, (12,3)-cn, num edge types: 1
# Building blocks:
#     Node 0, Type 0, BuildingBlock: QEWDON_clean_sbu_0, # of connection points: 12
#     Node 1, Type 0, BuildingBlock: QEWDON_clean_sbu_0, # of connection points: 12
#     Node 2, Type 1, BuildingBlock: OLANEW_clean_sbu_2, # of connection points: 3
#     Node 3, Type 1, BuildingBlock: OLANEW_clean_sbu_2, # of connection points: 3
#     Node 4, Type 1, BuildingBlock: OLANEW_clean_sbu_2, # of connection points: 3
#     Node 5, Type 1, BuildingBlock: OLANEW_clean_sbu_2, # of connection points: 3
#     Node 6, Type 1, BuildingBlock: OLANEW_clean_sbu_2, # of connection points: 3
#     Node 7, Type 1, BuildingBlock: OLANEW_clean_sbu_2, # of connection points: 3
#     Node 8, Type 1, BuildingBlock: OLANEW_clean_sbu_2, # of connection points: 3
#     Node 9, Type 1, BuildingBlock: OLANEW_clean_sbu_2, # of connection points: 3
#     Edge 10, Type (0, 1), None
#     Edge 11, Type (0, 1), None
#     Edge 12, Type (0, 1), None
#     Edge 13, Type (0, 1), None
#     Edge 14, Type (0, 1), None
#     Edge 15, Type (0, 1), None
#     Edge 16, Type (0, 1), None
#     Edge 17, Type (0, 1), None
#     Edge 18, Type (0, 1), None
#     Edge 19, Type (0, 1), None
#     Edge 20, Type (0, 1), None
#     Edge 21, Type (0, 1), None
#     Edge 22, Type (0, 1), None
#     Edge 23, Type (0, 1), None
#     Edge 24, Type (0, 1), None
#     Edge 25, Type (0, 1), None
#     Edge 26, Type (0, 1), None
#     Edge 27, Type (0, 1), None
#     Edge 28, Type (0, 1), None
#     Edge 29, Type (0, 1), None
#     Edge 30, Type (0, 1), None
#     Edge 31, Type (0, 1), None
#     Edge 32, Type (0, 1), None
#     Edge 33, Type (0, 1), None
# Relax obj value: 0.018
# Max RMSD: 0.092
# Mean RMSD: 0.071
data_MOF--net-llj--node1-QEWDON_clean_sbu_0--node2-OLANEW_clean_sbu_2--edge1-none
_symmetry_space_group_name_H-M    P1
_symmetry_Int_Tables_number       1
_symmetry_cell_setting            triclinic
loop_
_symmetry_equiv_pos_as_xyz
'x, y, z'
_cell_length_a     22.562773
_cell_length_b     22.738677
_cell_length_c     13.257477
_cell_angle_alpha  86.435097
_cell_angle_beta   93.685298
_cell_angle_gamma 89.837827
loop_
_atom_site_label
_atom_site_type_symbol
_atom_site_fract_x
_atom_site_fract_y
_atom_site_fract_z
_atom_type_partial_charge
Zn0 Zn 0.98358 0.21096 0.94935 0.0
Zn1 Zn 0.94212 0.14092 0.14299 0.0
O2 O 0.9942 0.13305 0.03086 0.0
H3 H 0.00801 0.09611 0.00851 0.0
C4 C 0.81582 0.0454 0.69778 0.0
O5 O 0.87246 0.05781 0.694 0.0
Zn6 Zn 0.08014 0.88443 0.12966 0.0
Zn7 Zn 0.06952 0.88658 0.88768 0.0
O8 O 0.0318 0.91789 0.00861 0.0
H9 H 0.00737 0.95299 0.00572 0.0
Zn10 Zn 0.84395 0.95477 0.87582 0.0
O11 O 0.88502 -0.00523 0.99336 0.0
Zn12 Zn 0.875 0.94243 0.11862 0.0
H13 H 0.91414 0.02554 0.98586 0.0
Zn14 Zn 0.16973 0.09631 0.93302 0.0
O15 O 0.12455 0.04842 0.03478 0.0
H16 H 0.09082 0.02407 0.01792 0.0
Zn17 Zn 0.14476 0.08188 0.16745 0.0
C18 C 0.19549 -0.0009 0.81161 0.0
O19 O 0.19906 0.97016 0.90066 0.0
O20 O 0.89844 0.24495 0.95267 0.0
O21 O 0.87284 0.19608 0.09478 0.0
O22 O 0.11963 0.81197 0.92688 0.0
O23 O 0.12064 0.80986 0.09537 0.0
O24 O 0.79697 0.88139 0.92299 0.0
O25 O 0.81754 0.87543 0.09035 0.0
C26 C 0.04747 0.14684 0.27221 0.0
O27 O 0.24287 0.13413 -0.00021 0.0
O28 O 0.21948 0.13106 0.16097 0.0
O29 O 0.00668 0.87533 0.77033 0.0
C30 C 0.86101 0.23262 0.01885 0.0
O31 O 0.03256 0.21789 0.82189 0.0
C32 C 0.9763 0.87965 0.24173 0.0
O33 O 0.7984 0.00717 0.76328 0.0
C34 C 0.13251 0.78662 0.01386 0.0
O35 O 0.18389 0.05391 0.8047 0.0
C36 C 0.87232 0.04165 0.23716 0.0
O37 O 0.99339 0.16379 0.26505 0.0
O38 O 0.06873 0.12407 0.19707 0.0
C39 C 0.79106 0.85668 0.01062 0.0
O40 O 0.02984 0.8626 0.24458 0.0
O41 O 0.95475 0.90811 0.16227 0.0
C42 C 0.15593 0.96295 0.25679 0.0
O43 O 0.84951 0.99103 0.22942 0.0
O44 O 0.90678 0.06077 0.17055 0.0
C45 C 0.25493 0.14452 0.09199 0.0
O46 O 0.16761 0.01631 0.27218 0.0
O47 O 0.12964 0.95163 0.17292 0.0
C48 C 0.96806 0.86854 0.69816 0.0
O49 O 0.94603 0.91501 0.64502 0.0
C50 C 0.0396 0.16938 0.78136 0.0
O51 O 0.01208 0.12223 0.8158 0.0
Zn52 Zn 0.48232 0.70806 0.4477 0.0
Zn53 Zn 0.44132 0.63885 0.64297 0.0
O54 O 0.49323 0.63049 0.53055 0.0
H55 H 0.50632 0.59319 0.50855 0.0
C56 C 0.31274 0.5403 0.19751 0.0
O57 O 0.36925 0.55361 0.19532 0.0
Zn58 Zn 0.57938 0.38734 0.62816 0.0
Zn59 Zn 0.57117 0.38993 0.38618 0.0
O60 O 0.53106 0.42049 0.5062 0.0
H61 H 0.5067 0.45565 0.50316 0.0
Zn62 Zn 0.34174 0.45051 0.37551 0.0
O63 O 0.38168 0.49282 0.49141 0.0
Zn64 Zn 0.37331 0.44124 0.6178 0.0
H65 H 0.40952 0.52469 0.48308 0.0
Zn66 Zn 0.67505 0.5979 0.43308 0.0
O67 O 0.62699 0.55117 0.53199 0.0
H68 H 0.59355 0.52675 0.51367 0.0
Zn69 Zn 0.64595 0.58398 0.66566 0.0
C70 C 0.69918 0.50073 0.31034 0.0
O71 O 0.70079 0.4711 0.39872 0.0
O72 O 0.39723 0.7421 0.45161 0.0
O73 O 0.37239 0.69453 0.59538 0.0
O74 O 0.62645 0.3184 0.4282 0.0
O75 O 0.61969 0.31287 0.59529 0.0
O76 O 0.29702 0.37589 0.42472 0.0
O77 O 0.31787 0.37246 0.59193 0.0
C78 C 0.54716 0.6458 0.77158 0.0
O79 O 0.74765 0.63496 0.50356 0.0
O80 O 0.72013 0.63438 0.66227 0.0
O81 O 0.51117 0.35715 0.28117 0.0
C82 C 0.36026 0.73058 0.51889 0.0
O83 O 0.53176 0.71691 0.32048 0.0
C84 C 0.4761 0.38189 0.74129 0.0
O85 O 0.29535 0.50156 0.2622 0.0
C86 C 0.63549 0.29127 0.51477 0.0
O87 O 0.68956 0.5559 0.30444 0.0
C88 C 0.37008 0.54028 0.73586 0.0
O89 O 0.49268 0.66139 0.76515 0.0
O90 O 0.56887 0.62412 0.69581 0.0
C91 C 0.292 0.35194 0.51319 0.0
O92 O 0.52988 0.36575 0.74409 0.0
O93 O 0.4539 0.40929 0.66128 0.0
C94 C 0.65675 0.46492 0.75393 0.0
O95 O 0.34682 0.48991 0.72756 0.0
O96 O 0.4053 0.559 0.67017 0.0
C97 C 0.75745 0.64667 0.59572 0.0
O98 O 0.66921 0.5181 0.76929 0.0
O99 O 0.62954 0.45406 0.67063 0.0
C100 C 0.4712 0.36054 0.20921 0.0
O101 O 0.4513 0.41182 0.16999 0.0
C102 C 0.54366 0.66853 0.28285 0.0
O103 O 0.52117 0.61943 0.32068 0.0
O104 O 0.46619 0.25761 0.22331 0.0
Cd105 Cd 0.43603 0.16132 0.17843 0.0
O106 O 0.40575 0.30221 0.10641 0.0
Cd107 Cd 0.37228 0.37458 0.00234 0.0
O108 O 0.39779 0.39892 0.84955 0.0
C109 C 0.44285 0.36886 0.83126 0.0
O110 O 0.46493 0.33017 0.90154 0.0
C111 C 0.4458 0.30489 0.17792 0.0
C112 C 0.31625 0.15882 0.12255 0.0
O113 O 0.3349 0.15208 0.21589 0.0
O114 O 0.3543 0.16805 0.05566 0.0
O115 O 0.65933 0.36555 0.82672 0.0
Cd116 Cd 0.68385 0.2992 0.97738 0.0
O117 O 0.68939 0.43719 0.92163 0.0
Cd118 Cd 0.70853 0.38785 0.06572 0.0
O119 O 0.70982 0.41475 0.21948 0.0
C120 C 0.70523 0.47043 0.21772 0.0
O121 O 0.70267 0.50092 0.13013 0.0
C122 C 0.66855 0.42002 0.83727 0.0
C123 C 0.80065 0.25645 0.00241 0.0
O124 O 0.78939 0.31031 0.01677 0.0
O125 O 0.7577 0.2233 0.97419 0.0
O126 O 0.60413 0.713 0.15898 0.0
Cd127 Cd 0.67971 0.7073 0.03497 0.0
O128 O 0.60063 0.61602 0.17518 0.0
Cd129 Cd 0.65323 0.60524 0.04607 0.0
O130 O 0.62877 0.61645 0.88554 0.0
C131 C 0.58064 0.6455 0.86951 0.0
O132 O 0.55578 0.6669 0.94645 0.0
C133 C 0.58441 0.66605 0.20166 0.0
C134 C 0.75234 0.80533 0.01965 0.0
O135 O 0.71005 0.79766 0.95258 0.0
O136 O 0.76015 0.76703 0.09435 0.0
O137 O 0.21381 0.55651 0.13529 0.0
Cd138 Cd 0.14187 0.60199 0.01298 0.0
O139 O 0.28057 0.60962 0.06061 0.0
Cd140 Cd 0.36691 0.63446 0.00779 0.0
O141 O 0.39402 0.60794 0.86213 0.0
C142 C 0.35579 0.57447 0.82109 0.0
O143 O 0.30734 0.56184 0.86763 0.0
C144 C 0.26768 0.57091 0.12889 0.0
C145 C 0.14435 0.72339 0.019 0.0
O146 O 0.12158 0.69061 0.08815 0.0
O147 O 0.16718 0.69886 0.94604 0.0
O148 O 0.96779 0.7654 0.73265 0.0
Cd149 Cd 0.93679 0.66687 0.69645 0.0
O150 O 0.90534 0.80123 0.61048 0.0
Cd151 Cd 0.8693 0.86895 0.49845 0.0
O152 O 0.89593 0.8948 0.34689 0.0
C153 C 0.94254 0.86642 0.33105 0.0
O154 O 0.96485 0.82854 0.40245 0.0
C155 C 0.9456 0.80944 0.6798 0.0
C156 C 0.81806 0.66182 0.63008 0.0
O157 O 0.83394 0.65836 0.72479 0.0
O158 O 0.85824 0.66905 0.56643 0.0
O159 O 0.15867 0.8637 0.3297 0.0
Cd160 Cd 0.18301 0.79675 0.4795 0.0
O161 O 0.18827 0.9354 0.42478 0.0
Cd162 Cd 0.20728 0.88567 0.56861 0.0
O163 O 0.20801 0.91284 0.7222 0.0
C164 C 0.20199 0.96841 0.71953 0.0
O165 O 0.19859 -0.0016 0.63148 0.0
C166 C 0.16764 0.91819 0.34033 0.0
C167 C 0.29991 0.75445 0.50295 0.0
O168 O 0.28821 0.80745 0.5224 0.0
O169 O 0.25734 0.722 0.47074 0.0
O170 O 0.10647 0.20947 0.66404 0.0
Cd171 Cd 0.18513 0.19979 0.54667 0.0
O172 O 0.09381 0.11328 0.67473 0.0
Cd173 Cd 0.14842 0.10068 0.54896 0.0
O174 O 0.12673 0.11388 0.38799 0.0
C175 C 0.0806 0.14586 0.37047 0.0
O176 O 0.05643 0.16895 0.44655 0.0
C177 C 0.08142 0.16412 0.70247 0.0
C178 C 0.25505 0.29941 0.52472 0.0
O179 O 0.21419 0.28845 0.45694 0.0
O180 O 0.26282 0.26355 0.60286 0.0
O181 O 0.71684 0.06144 0.63546 0.0
Cd182 Cd 0.64552 0.10643 0.51131 0.0
O183 O 0.78357 0.11419 0.56014 0.0
Cd184 Cd 0.86985 0.13847 0.50675 0.0
O185 O 0.89601 0.11067 0.36138 0.0
C186 C 0.85836 0.07574 0.32271 0.0
O187 O 0.81082 0.06223 0.37123 0.0
C188 C 0.77071 0.07585 0.62901 0.0
C189 C 0.64711 0.22791 0.51851 0.0
O190 O 0.62358 0.19462 0.58618 0.0
O191 O 0.67103 0.20386 0.44611 0.0
loop_
_geom_bond_atom_site_label_1
_geom_bond_atom_site_label_2
_geom_bond_distance
_geom_bond_site_symmetry_2
_ccdc_geom_bond_type
Zn0 O2 1.933 1_556 S
Zn0 O20 1.985 . S
Zn0 O31 1.955 . S
Zn1 O2 1.911 . S
Zn1 O21 1.970 . S
Zn1 O37 1.945 . S
Zn1 O44 1.981 . S
O2 Zn0 1.933 1_554 S
O2 Zn1 1.911 . S
O2 H3 0.841 1_655 S
H3 O2 0.841 1_455 S
C4 O5 1.246 . S
C4 O33 1.291 . S
O5 C4 1.246 . S
Zn6 O8 1.911 . S
Zn6 O23 1.970 . S
Zn6 O40 1.945 . S
Zn6 O47 1.981 . S
Zn7 O8 1.933 1_556 S
Zn7 O22 1.985 . S
Zn7 O29 1.955 . S
O8 Zn6 1.911 . S
O8 Zn7 1.933 1_554 S
O8 H9 0.841 1_455 S
H9 O8 0.841 1_655 S
Zn10 O11 1.933 1_556 S
Zn10 O24 1.985 . S
Zn10 O33 1.949 1_565 S
O11 Zn10 1.933 1_554 S
O11 Zn12 1.911 . S
O11 H13 0.841 1_565 S
Zn12 O11 1.911 . S
Zn12 O25 1.970 . S
Zn12 O41 1.981 . S
Zn12 O43 1.945 . S
H13 O11 0.841 1_545 S
Zn14 O15 1.933 1_556 S
Zn14 O27 1.985 . S
Zn14 O35 1.955 . S
O15 Zn14 1.933 1_554 S
O15 H16 0.841 1_545 S
O15 Zn17 1.911 . S
H16 O15 0.841 1_565 S
Zn17 O15 1.911 . S
Zn17 O28 1.970 . S
Zn17 O38 1.981 . S
Zn17 O46 1.945 . S
C18 O19 1.246 . S
C18 O35 1.276 1_565 S
O19 C18 1.246 . S
O20 Zn0 1.985 . S
O20 C30 1.245 1_556 S
O21 Zn1 1.970 . S
O21 C30 1.263 . S
O22 Zn7 1.985 . S
O22 C34 1.245 1_556 S
O23 Zn6 1.970 . S
O23 C34 1.263 . S
O24 Zn10 1.985 . S
O24 C39 1.245 1_556 S
O25 Zn12 1.970 . S
O25 C39 1.263 . S
C26 O37 1.262 1_455 S
C26 O38 1.245 . S
O27 Zn14 1.985 . S
O27 C45 1.245 1_556 S
O28 Zn17 1.970 . S
O28 C45 1.263 . S
O29 Zn7 1.955 . S
O29 C48 1.276 1_455 S
C30 O20 1.245 1_554 S
C30 O21 1.263 . S
O31 Zn0 1.955 . S
O31 C50 1.276 1_655 S
C32 O40 1.262 1_655 S
C32 O41 1.245 . S
O33 C4 1.291 . S
O33 Zn10 1.949 1_545 S
C34 O22 1.245 1_554 S
C34 O23 1.263 . S
O35 Zn14 1.955 . S
O35 C18 1.276 1_545 S
C36 O43 1.262 1_545 S
C36 O44 1.245 . S
O37 Zn1 1.945 . S
O37 C26 1.262 1_655 S
O38 Zn17 1.981 . S
O38 C26 1.245 . S
C39 O24 1.245 1_554 S
C39 O25 1.263 . S
O40 Zn6 1.945 . S
O40 C32 1.262 1_455 S
O41 Zn12 1.981 . S
O41 C32 1.245 . S
C42 O46 1.262 1_565 S
C42 O47 1.245 . S
O43 Zn12 1.945 . S
O43 C36 1.262 1_565 S
O44 Zn1 1.981 . S
O44 C36 1.245 . S
C45 O27 1.245 1_554 S
C45 O28 1.263 . S
O46 Zn17 1.945 . S
O46 C42 1.262 1_545 S
O47 Zn6 1.981 . S
O47 C42 1.245 . S
C48 O29 1.276 1_655 S
C48 O49 1.246 . S
O49 C48 1.246 . S
C50 O31 1.276 1_455 S
C50 O51 1.246 . S
O51 C50 1.246 . S
Zn52 O54 1.933 . S
Zn52 O72 1.985 . S
Zn52 O83 1.955 . S
Zn53 O54 1.911 . S
Zn53 O73 1.970 . S
Zn53 O89 1.945 . S
Zn53 O96 1.981 . S
O54 Zn52 1.933 . S
O54 Zn53 1.911 . S
O54 H55 0.841 . S
H55 O54 0.841 . S
C56 O57 1.246 . S
C56 O85 1.276 . S
O57 C56 1.246 . S
Zn58 O60 1.911 . S
Zn58 O75 1.970 . S
Zn58 O92 1.945 . S
Zn58 O99 1.981 . S
Zn59 O60 1.933 . S
Zn59 O74 1.985 . S
Zn59 O81 1.955 . S
O60 Zn58 1.911 . S
O60 Zn59 1.933 . S
O60 H61 0.841 . S
H61 O60 0.841 . S
Zn62 O63 1.933 . S
Zn62 O76 1.985 . S
Zn62 O85 1.955 . S
O63 Zn62 1.933 . S
O63 Zn64 1.911 . S
O63 H65 0.841 . S
Zn64 O63 1.911 . S
Zn64 O77 1.970 . S
Zn64 O93 1.981 . S
Zn64 O95 1.945 . S
H65 O63 0.841 . S
Zn66 O67 1.933 . S
Zn66 O79 1.985 . S
Zn66 O87 1.955 . S
O67 Zn66 1.933 . S
O67 H68 0.841 . S
O67 Zn69 1.911 . S
H68 O67 0.841 . S
Zn69 O67 1.911 . S
Zn69 O80 1.970 . S
Zn69 O90 1.981 . S
Zn69 O98 1.945 . S
C70 O71 1.246 . S
C70 O87 1.276 . S
O71 C70 1.246 . S
O72 Zn52 1.985 . S
O72 C82 1.245 . S
O73 Zn53 1.970 . S
O73 C82 1.263 . S
O74 Zn59 1.985 . S
O74 C86 1.245 . S
O75 Zn58 1.970 . S
O75 C86 1.263 . S
O76 Zn62 1.985 . S
O76 C91 1.245 . S
O77 Zn64 1.970 . S
O77 C91 1.263 . S
C78 O89 1.262 . S
C78 O90 1.245 . S
O79 Zn66 1.985 . S
O79 C97 1.245 . S
O80 Zn69 1.970 . S
O80 C97 1.263 . S
O81 Zn59 1.955 . S
O81 C100 1.276 . S
C82 O72 1.245 . S
C82 O73 1.263 . S
O83 Zn52 1.955 . S
O83 C102 1.276 . S
C84 O92 1.262 . S
C84 O93 1.245 . S
O85 C56 1.276 . S
O85 Zn62 1.955 . S
C86 O74 1.245 . S
C86 O75 1.263 . S
O87 Zn66 1.955 . S
O87 C70 1.276 . S
C88 O95 1.262 . S
C88 O96 1.245 . S
O89 Zn53 1.945 . S
O89 C78 1.262 . S
O90 Zn69 1.981 . S
O90 C78 1.245 . S
C91 O76 1.245 . S
C91 O77 1.263 . S
O92 Zn58 1.945 . S
O92 C84 1.262 . S
O93 Zn64 1.981 . S
O93 C84 1.245 . S
C94 O98 1.262 . S
C94 O99 1.245 . S
O95 Zn64 1.945 . S
O95 C88 1.262 . S
O96 Zn53 1.981 . S
O96 C88 1.245 . S
C97 O79 1.245 . S
C97 O80 1.263 . S
O98 Zn69 1.945 . S
O98 C94 1.262 . S
O99 Zn58 1.981 . S
O99 C94 1.245 . S
C100 O81 1.276 . S
C100 O101 1.246 . S
O101 C100 1.246 . S
C102 O83 1.276 . S
C102 O103 1.246 . S
O103 C102 1.246 . S
O104 Cd105 2.300 . S
O104 C111 1.275 . S
Cd105 O104 2.300 . S
Cd105 O113 2.381 . S
Cd105 O114 2.378 . S
O106 Cd107 2.385 1_554 S
O106 C111 1.255 . S
Cd107 O106 2.385 1_556 S
Cd107 O108 2.317 . S
O108 Cd107 2.317 . S
O108 C109 1.232 . S
C109 O108 1.232 . S
C109 O110 1.218 . S
O110 C109 1.218 . S
C111 O104 1.275 . S
C111 O106 1.255 . S
C112 O113 1.258 . S
C112 O114 1.256 . S
O113 Cd105 2.381 . S
O113 C112 1.258 . S
O114 Cd105 2.378 . S
O114 C112 1.256 . S
O115 Cd116 2.300 . S
O115 C122 1.275 . S
Cd116 O115 2.300 . S
Cd116 O124 2.381 . S
Cd116 O125 2.378 1_556 S
O117 Cd118 2.385 1_556 S
O117 C122 1.255 . S
Cd118 O117 2.385 1_554 S
Cd118 O119 2.317 . S
O119 Cd118 2.317 . S
O119 C120 1.232 . S
C120 O119 1.232 . S
C120 O121 1.218 . S
O121 C120 1.218 . S
C122 O115 1.275 . S
C122 O117 1.255 . S
C123 O124 1.258 . S
C123 O125 1.256 1_556 S
O124 Cd116 2.381 . S
O124 C123 1.258 . S
O125 Cd116 2.378 1_554 S
O125 C123 1.256 1_554 S
O126 Cd127 2.300 . S
O126 C133 1.275 . S
Cd127 O126 2.300 . S
Cd127 O135 2.381 . S
Cd127 O136 2.378 . S
O128 Cd129 2.385 1_554 S
O128 C133 1.255 . S
Cd129 O128 2.385 1_556 S
Cd129 O130 2.317 . S
O130 Cd129 2.317 . S
O130 C131 1.232 . S
C131 O130 1.232 . S
C131 O132 1.218 . S
O132 C131 1.218 . S
C133 O126 1.275 . S
C133 O128 1.255 . S
C134 O135 1.258 . S
C134 O136 1.256 . S
O135 Cd127 2.381 . S
O135 C134 1.258 . S
O136 Cd127 2.378 . S
O136 C134 1.256 . S
O137 Cd138 2.300 . S
O137 C144 1.275 . S
Cd138 O137 2.300 . S
Cd138 O146 2.381 . S
Cd138 O147 2.378 . S
O139 Cd140 2.385 1_554 S
O139 C144 1.255 . S
Cd140 O139 2.385 1_556 S
Cd140 O141 2.317 . S
O141 Cd140 2.317 . S
O141 C142 1.232 . S
C142 O141 1.232 . S
C142 O143 1.218 . S
O143 C142 1.218 . S
C144 O137 1.275 . S
C144 O139 1.255 . S
C145 O146 1.258 . S
C145 O147 1.256 . S
O146 Cd138 2.381 . S
O146 C145 1.258 . S
O147 Cd138 2.378 . S
O147 C145 1.256 . S
O148 Cd149 2.300 . S
O148 C155 1.275 . S
Cd149 O148 2.300 . S
Cd149 O157 2.381 . S
Cd149 O158 2.378 . S
O150 Cd151 2.385 . S
O150 C155 1.255 . S
Cd151 O150 2.385 . S
Cd151 O152 2.317 . S
O152 Cd151 2.317 . S
O152 C153 1.232 . S
C153 O152 1.232 . S
C153 O154 1.218 . S
O154 C153 1.218 . S
C155 O148 1.275 . S
C155 O150 1.255 . S
C156 O157 1.258 . S
C156 O158 1.256 . S
O157 Cd149 2.381 . S
O157 C156 1.258 . S
O158 Cd149 2.378 . S
O158 C156 1.256 . S
O159 Cd160 2.300 . S
O159 C166 1.275 . S
Cd160 O159 2.300 . S
Cd160 O168 2.381 . S
Cd160 O169 2.378 . S
O161 Cd162 2.385 1_565 S
O161 C166 1.255 . S
Cd162 O161 2.385 1_545 S
Cd162 O163 2.317 1_545 S
O163 Cd162 2.317 1_565 S
O163 C164 1.235 . S
C164 O163 1.235 . S
C164 O165 1.211 1_565 S
O165 C164 1.211 1_545 S
C166 O159 1.275 . S
C166 O161 1.255 . S
C167 O168 1.258 . S
C167 O169 1.256 . S
O168 Cd160 2.381 . S
O168 C167 1.258 . S
O169 Cd160 2.378 . S
O169 C167 1.256 . S
O170 Cd171 2.300 . S
O170 C177 1.275 . S
Cd171 O170 2.300 . S
Cd171 O179 2.381 . S
Cd171 O180 2.378 . S
O172 Cd173 2.385 . S
O172 C177 1.255 . S
Cd173 O172 2.385 . S
Cd173 O174 2.317 . S
O174 Cd173 2.317 . S
O174 C175 1.232 . S
C175 O174 1.232 . S
C175 O176 1.218 . S
O176 C175 1.218 . S
C177 O170 1.275 . S
C177 O172 1.255 . S
C178 O179 1.258 . S
C178 O180 1.256 . S
O179 Cd171 2.381 . S
O179 C178 1.258 . S
O180 Cd171 2.378 . S
O180 C178 1.256 . S
O181 Cd182 2.300 . S
O181 C188 1.275 . S
Cd182 O181 2.300 . S
Cd182 O190 2.381 . S
Cd182 O191 2.378 . S
O183 Cd184 2.385 . S
O183 C188 1.255 . S
Cd184 O183 2.385 . S
Cd184 O185 2.317 . S
O185 Cd184 2.317 . S
O185 C186 1.232 . S
C186 O185 1.232 . S
C186 O187 1.218 . S
O187 C186 1.218 . S
C188 O181 1.275 . S
C188 O183 1.255 . S
C189 O190 1.258 . S
C189 O191 1.256 . S
O190 Cd182 2.381 . S
O190 C189 1.258 . S
O191 Cd182 2.378 . S
O191 C189 1.256 . S
C45 C112 1.749 . S
C30 C123 1.730 1_554 S
C39 C134 1.754 . S
C145 C34 1.599 . S
C97 C156 1.749 . S
C167 C82 1.730 . S
C178 C91 1.754 . S
C189 C86 1.598 . S
C175 C26 1.150 . S
C186 C36 1.260 . S
C153 C32 1.202 . S
C166 C42 1.548 . S
C18 C164 1.760 . S
C177 C50 1.837 . S
C4 C188 1.522 . S
C48 C155 1.819 . S
C131 C78 1.150 . S
C88 C142 1.260 . S
C109 C84 1.202 . S
C122 C94 1.548 . S
C120 C70 1.757 . S
C133 C102 1.837 . S
C56 C144 1.522 . S
C100 C111 1.818 . S
