# Generated by pormake.
# Topology scu, (8,4)-cn, num edge types: 1
# Building blocks:
#     Node 0, Type 0, BuildingBlock: GIZVER_clean_sbu_0, # of connection points: 8
#     Node 1, Type 1, BuildingBlock: MUDLON_clean_sbu_0, # of connection points: 4
#     Node 2, Type 1, BuildingBlock: MUDLON_clean_sbu_0, # of connection points: 4
#     Edge 3, Type (0, 1), None
#     Edge 4, Type (0, 1), None
#     Edge 5, Type (0, 1), None
#     Edge 6, Type (0, 1), None
#     Edge 7, Type (0, 1), None
#     Edge 8, Type (0, 1), None
#     Edge 9, Type (0, 1), None
#     Edge 10, Type (0, 1), None
# Relax obj value: 0.006
# Max RMSD: 0.044
# Mean RMSD: 0.035
data_MOF--net-scu--node1-GIZVER_clean_sbu_0--node2-MUDLON_clean_sbu_0--edge1-none
_symmetry_space_group_name_H-M    P1
_symmetry_Int_Tables_number       1
_symmetry_cell_setting            triclinic
loop_
_symmetry_equiv_pos_as_xyz
'x, y, z'
_cell_length_a     11.315017
_cell_length_b     12.098226
_cell_length_c     11.521963
_cell_angle_alpha  107.36685
_cell_angle_beta   74.350156
_cell_angle_gamma 115.55853
loop_
_atom_site_label
_atom_site_type_symbol
_atom_site_fract_x
_atom_site_fract_y
_atom_site_fract_z
_atom_type_partial_charge
Co0 Co 0.04583 0.89667 0.33572 0.0
Co1 Co 0.24144 0.09421 0.2632 0.0
Co2 Co 1.02436 1.02461 0.11358 0.0
O3 O 0.10819 0.95412 0.18729 0.0
H4 H 0.14881 0.90168 0.12463 0.0
O5 O 0.95526 0.10274 1.03115 0.0
Co6 Co 0.07461 0.16509 0.88558 0.0
Co7 Co 0.8399 0.98913 0.92303 0.0
H8 H 0.9195 0.16206 0.08787 0.0
O9 O 0.38558 0.08918 0.30185 0.0
O10 O 0.18089 0.05457 0.41748 0.0
O11 O 0.24902 0.26022 0.27833 0.0
O12 O 0.04004 0.17792 0.25231 0.0
O13 O 0.20593 0.10388 1.02403 0.0
O14 O 0.17837 0.22982 0.75738 0.0
O15 O 0.03568 0.30145 0.90408 0.0
O16 O 0.13914 0.03475 0.84537 0.0
O17 O 0.9948 0.8656 0.98084 0.0
O18 O 0.83275 0.81843 0.87584 0.0
O19 O 0.92957 0.06216 0.78752 0.0
O20 O 0.7232 0.04165 0.8898 0.0
C21 C 0.08508 0.78467 0.41026 0.0
C22 C 0.82077 0.94415 0.32052 0.0
C23 C 0.13836 0.26935 0.29534 0.0
C24 C 0.30651 0.07541 0.40622 0.0
C25 C 0.12272 0.31075 0.80222 0.0
C26 C 0.22599 0.05871 0.90947 0.0
C27 C 0.91754 0.79126 0.90258 0.0
C28 C 0.82131 0.08247 0.80363 0.0
O29 O 0.99698 0.83272 0.46938 0.0
O30 O 0.15599 0.81466 0.30626 0.0
O31 O 0.84571 0.94246 0.20523 0.0
O32 O 0.91075 0.96479 0.38104 0.0
Mg33 Mg 0.03086 0.52695 0.61638 0.0
C34 C 0.11967 0.37871 0.38461 0.0
O35 O 0.2254 0.48026 0.4087 0.0
C36 C 0.95103 0.68466 0.82516 0.0
O37 O 0.06526 0.68502 0.83161 0.0
C38 C 0.14478 0.39793 0.72563 0.0
O39 O 0.21526 0.38731 0.61492 0.0
O40 O 0.07355 0.46192 0.75352 0.0
O41 O 1.00904 0.36934 0.45604 0.0
O42 O 0.14184 0.6905 0.53199 0.0
C43 C 0.0805 0.6773 0.44754 0.0
O44 O 0.98074 0.57121 0.42035 0.0
O45 O 0.89032 0.60844 0.73658 0.0
Mg46 Mg 0.55139 0.04971 0.62445 0.0
C47 C 0.35647 0.07026 0.50804 0.0
O48 O 0.27351 1.00122 0.58658 0.0
C49 C 0.80469 0.14265 0.71871 0.0
O50 O 0.86909 0.13108 0.60548 0.0
C51 C 0.35882 0.06617 0.84694 0.0
O52 O 0.45866 0.17393 0.86744 0.0
O53 O 0.37378 0.981 0.75461 0.0
O54 O 0.48101 0.11589 0.5101 0.0
O55 O 0.65413 0.93462 0.49803 0.0
C56 C 0.69527 0.95423 0.38901 0.0
O57 O 0.64413 1.01236 0.34954 0.0
O58 O 0.7004 0.1663 0.74155 0.0
loop_
_geom_bond_atom_site_label_1
_geom_bond_atom_site_label_2
_geom_bond_distance
_geom_bond_site_symmetry_2
_ccdc_geom_bond_type
Co0 O3 2.042 . S
Co0 O10 2.264 1_565 S
Co0 O29 2.286 1_455 S
Co0 O30 2.069 . S
Co0 O32 2.015 1_455 S
Co1 O3 2.122 1_545 S
Co1 O9 2.073 . S
Co1 O10 2.327 . S
Co1 O11 1.976 . S
Co2 O3 2.087 1_545 S
Co2 O5 2.087 1_454 S
Co2 O12 2.111 . S
Co2 O13 2.143 1_554 S
Co2 O17 2.111 1_444 S
Co2 O31 2.143 1_445 S
O3 Co0 2.042 . S
O3 Co1 2.122 1_565 S
O3 Co2 2.087 1_565 S
O3 H4 0.980 . S
H4 O3 0.980 . S
O5 Co2 2.087 1_656 S
O5 Co6 2.042 1_655 S
O5 Co7 2.122 1_545 S
O5 H8 0.980 1_556 S
Co6 O5 2.042 1_455 S
Co6 O14 2.286 . S
Co6 O15 2.069 1_455 S
Co6 O16 2.015 . S
Co6 O19 2.264 1_445 S
Co7 O5 2.122 1_565 S
Co7 O18 1.976 . S
Co7 O19 2.327 . S
Co7 O20 2.073 . S
H8 O5 0.980 1_554 S
O9 Co1 2.073 . S
O9 C24 1.245 . S
O10 Co0 2.264 1_545 S
O10 Co1 2.327 . S
O10 C24 1.257 . S
O11 Co1 1.976 . S
O11 C23 1.251 . S
O12 Co2 2.111 . S
O12 C23 1.274 . S
O13 Co2 2.143 1_556 S
O13 C26 1.246 . S
O14 Co6 2.286 . S
O14 C25 1.259 . S
O15 Co6 2.069 1_655 S
O15 C25 1.289 1_655 S
O16 Co6 2.015 . S
O16 C26 1.257 . S
O17 Co2 2.111 1_666 S
O17 C27 1.274 . S
O18 Co7 1.976 . S
O18 C27 1.251 . S
O19 Co6 2.264 1_665 S
O19 Co7 2.327 . S
O19 C28 1.257 1_565 S
O20 Co7 2.073 . S
O20 C28 1.245 1_565 S
C21 O29 1.259 1_455 S
C21 O30 1.289 . S
C22 O31 1.246 . S
C22 O32 1.257 . S
C23 O11 1.251 . S
C23 O12 1.274 . S
C24 O9 1.245 . S
C24 O10 1.257 . S
C25 O14 1.259 . S
C25 O15 1.289 1_455 S
C26 O13 1.246 . S
C26 O16 1.257 . S
C27 O17 1.274 . S
C27 O18 1.251 . S
C28 O19 1.257 1_545 S
C28 O20 1.245 1_545 S
O29 Co0 2.286 1_655 S
O29 C21 1.259 1_655 S
O30 Co0 2.069 . S
O30 C21 1.289 . S
O31 Co2 2.143 1_665 S
O31 C22 1.246 . S
O32 Co0 2.015 1_655 S
O32 C22 1.257 . S
Mg33 O40 2.141 . S
Mg33 O41 2.048 . S
Mg33 O42 2.048 . S
Mg33 O45 2.141 . S
C34 O35 1.313 . S
C34 O41 1.195 1_455 S
O35 C34 1.313 . S
C36 O37 1.245 . S
C36 O45 1.289 1_455 S
O37 C36 1.245 . S
C38 O39 1.245 . S
C38 O40 1.289 1_455 S
O39 C38 1.245 . S
O40 Mg33 2.141 . S
O40 C38 1.289 1_655 S
O41 Mg33 2.048 . S
O41 C34 1.195 1_655 S
O42 Mg33 2.048 . S
O42 C43 1.195 1_655 S
C43 O42 1.195 1_455 S
C43 O44 1.313 . S
O44 C43 1.313 . S
O45 Mg33 2.141 . S
O45 C36 1.289 1_655 S
Mg46 O53 2.141 . S
Mg46 O54 2.048 . S
Mg46 O55 2.048 . S
Mg46 O58 2.141 . S
C47 O48 1.313 1_545 S
C47 O54 1.195 . S
O48 C47 1.313 1_565 S
C49 O50 1.245 1_545 S
C49 O58 1.289 . S
O50 C49 1.245 1_565 S
C51 O52 1.245 1_545 S
C51 O53 1.289 . S
O52 C51 1.245 1_565 S
O53 Mg46 2.141 . S
O53 C51 1.289 . S
O54 Mg46 2.048 . S
O54 C47 1.195 . S
O55 Mg46 2.048 . S
O55 C56 1.195 . S
C56 O55 1.195 . S
C56 O57 1.313 1_545 S
O57 C56 1.313 1_565 S
O58 Mg46 2.141 . S
O58 C49 1.289 . S
C23 C34 1.322 . S
C22 C56 1.524 1_565 S
C21 C43 1.657 . S
C24 C47 1.492 . S
C27 C36 1.330 1_655 S
C26 C51 1.459 . S
C38 C25 1.535 . S
C28 C49 1.382 . S
