# Generated by pormake.
# Topology pts, (4,4)-cn, num edge types: 1
# Building blocks:
#     Node 0, Type 0, BuildingBlock: NAWXER_clean_sbu_0, # of connection points: 4
#     Node 1, Type 0, BuildingBlock: NAWXER_clean_sbu_0, # of connection points: 4
#     Node 2, Type 1, BuildingBlock: AZAVOO_clean_sbu_0, # of connection points: 4
#     Node 3, Type 1, BuildingBlock: AZAVOO_clean_sbu_0, # of connection points: 4
#     Edge 4, Type (0, 1), BuildingBlock: EZIPEK_clean_linker_0, # of connection points: 2
#     Edge 5, Type (0, 1), BuildingBlock: EZIPEK_clean_linker_0, # of connection points: 2
#     Edge 6, Type (0, 1), BuildingBlock: EZIPEK_clean_linker_0, # of connection points: 2
#     Edge 7, Type (0, 1), BuildingBlock: EZIPEK_clean_linker_0, # of connection points: 2
#     Edge 8, Type (0, 1), BuildingBlock: EZIPEK_clean_linker_0, # of connection points: 2
#     Edge 9, Type (0, 1), BuildingBlock: EZIPEK_clean_linker_0, # of connection points: 2
#     Edge 10, Type (0, 1), BuildingBlock: EZIPEK_clean_linker_0, # of connection points: 2
#     Edge 11, Type (0, 1), BuildingBlock: EZIPEK_clean_linker_0, # of connection points: 2
# Relax obj value: 0.010
# Max RMSD: 0.056
# Mean RMSD: 0.045
data_MOF--net-pts--node1-NAWXER_clean_sbu_0--node2-AZAVOO_clean_sbu_0--edge1-EZIPEK_clean_linker_0
_symmetry_space_group_name_H-M    P1
_symmetry_Int_Tables_number       1
_symmetry_cell_setting            triclinic
loop_
_symmetry_equiv_pos_as_xyz
'x, y, z'
_cell_length_a     16.893919
_cell_length_b     17.421277
_cell_length_c     27.20459
_cell_angle_alpha  90.3642
_cell_angle_beta   97.419692
_cell_angle_gamma 90.068884
loop_
_atom_site_label
_atom_site_type_symbol
_atom_site_fract_x
_atom_site_fract_y
_atom_site_fract_z
_atom_type_partial_charge
C0 C 0.4542 0.08125 0.94449 0.0
C1 C 0.664 0.08216 0.09106 0.0
O2 O 0.47512 0.01645 0.96344 0.0
Zn3 Zn 0.55797 0.96748 0.01808 0.0
O4 O 0.48847 0.14232 0.96287 0.0
Zn5 Zn 0.55995 0.09339 0.01733 0.0
O6 O 0.64277 0.04131 0.97614 0.0
O7 O 0.62758 0.91566 0.97565 0.0
O8 O 0.63266 0.14327 0.0715 0.0
O9 O 0.64102 0.01699 0.07284 0.0
O10 O 0.48648 0.91974 0.06061 0.0
O11 O 0.47455 0.04559 0.05837 0.0
C12 C 0.66177 0.97519 0.96099 0.0
C13 C 0.45327 0.98088 0.07408 0.0
C14 C 0.02019 0.59893 0.44172 0.0
C15 C 0.9872 0.42604 0.57865 0.0
O16 O 0.95513 0.57733 0.45612 0.0
Zn17 Zn 1.00062 0.51656 0.51212 0.0
O18 O 0.08567 0.57962 0.46777 0.0
Zn19 Zn 0.12753 0.50984 0.53007 0.0
O20 O 0.18748 0.43337 0.49829 0.0
O21 O 0.05716 0.42653 0.47536 0.0
O22 O 0.0605 0.44011 0.5744 0.0
O23 O 0.93207 0.46069 0.55122 0.0
O24 O 0.05235 0.60209 0.56243 0.0
O25 O 0.18256 0.58323 0.57698 0.0
C26 C 0.12778 0.40131 0.47287 0.0
C27 C 0.12114 0.62144 0.58443 0.0
Mg28 Mg 0.10249 0.97999 0.28544 0.0
O29 O 0.9814 0.01611 0.24329 0.0
O30 O 0.89729 0.02685 0.29998 0.0
Mg31 Mg 0.95977 0.98574 0.37526 0.0
C32 C 0.91287 0.03265 0.25544 0.0
C33 C 0.22198 0.96005 0.21377 0.0
O34 O 0.23492 0.90262 0.2448 0.0
O35 O 0.12147 0.0995 0.3209 0.0
O36 O 0.04063 0.0917 0.38003 0.0
O37 O 0.07406 0.85623 0.2734 0.0
O38 O 0.04877 0.92205 0.33926 0.0
C39 C 0.09324 0.12665 0.35881 0.0
C40 C 0.04632 0.85783 0.31554 0.0
O41 O 0.1669 0.00789 0.21939 0.0
Mg42 Mg 0.00873 0.99552 0.74691 0.0
O43 O 0.12897 0.02723 0.79244 0.0
O44 O 0.21432 0.05114 0.73773 0.0
Mg45 Mg 0.15317 0.0277 0.65892 0.0
C46 C 0.19752 0.04793 0.78213 0.0
C47 C 0.89139 0.95488 0.81954 0.0
O48 O 0.88207 0.89791 0.78745 0.0
O49 O 0.98834 0.12152 0.724 0.0
O50 O 0.07058 0.13024 0.66572 0.0
O51 O 0.03827 0.86977 0.7444 0.0
O52 O 0.06757 0.95423 0.68978 0.0
C53 C 0.01724 0.15825 0.68983 0.0
C54 C 0.06826 0.8841 0.704 0.0
O55 O 0.9423 0.00722 0.8144 0.0
C56 C 0.32835 0.92316 0.10052 0.0
C57 C 0.39006 0.97921 0.10787 0.0
C58 C 0.32833 0.03313 0.17795 0.0
C59 C 0.27484 0.97022 0.17488 0.0
N60 N 0.22591 0.85195 0.13545 0.0
N61 N 0.45143 0.086 0.15754 0.0
C62 C 0.27573 0.91405 0.13693 0.0
C63 C 0.39024 0.03444 0.14719 0.0
N64 N 0.31634 0.88215 0.05715 0.0
N65 N 0.32063 0.09197 0.21058 0.0
H66 H 0.49653 0.09513 0.13579 0.0
H67 H 0.46115 0.11738 0.19048 0.0
H68 H 0.28101 0.09107 0.23689 0.0
H69 H 0.34957 0.14461 0.20924 0.0
H70 H 0.26758 0.84596 0.04765 0.0
H71 H 0.34956 0.89085 0.02793 0.0
H72 H 0.23108 0.80424 0.11281 0.0
H73 H 0.18208 0.84605 0.1589 0.0
C74 C 0.92708 0.29838 0.59707 0.0
C75 C 0.96958 0.36601 0.61415 0.0
C76 C 0.02163 0.30173 0.69156 0.0
C77 C 0.98379 0.23325 0.67285 0.0
N78 N 0.88012 0.17215 0.6176 0.0
N79 N 0.03556 0.43965 0.68269 0.0
C80 C 0.9288 0.2341 0.62906 0.0
C81 C 0.0093 0.37018 0.66339 0.0
N82 N 0.89131 0.29262 0.54916 0.0
N83 N 0.07236 0.30004 0.73487 0.0
H84 H 0.02586 0.49057 0.66279 0.0
H85 H 0.06008 0.44788 0.71946 0.0
H86 H 0.07894 0.25119 0.75701 0.0
H87 H 0.10948 0.3455 0.74788 0.0
H88 H 0.86869 0.24137 0.53315 0.0
H89 H 0.88853 0.3375 0.52397 0.0
H90 H 0.8337 0.17145 0.58841 0.0
H91 H 0.88133 0.12432 0.64062 0.0
C92 C 0.79643 0.12288 0.1399 0.0
C93 C 0.72325 0.08167 0.13686 0.0
C94 C 0.77561 0.00806 0.21074 0.0
C95 C 0.84673 0.05229 0.2158 0.0
N96 N 0.91794 0.16281 0.19133 0.0
N97 N 0.63722 -0.00207 0.17719 0.0
C98 C 0.85502 0.1132 0.18224 0.0
C99 C 0.71104 0.02879 0.17491 0.0
N100 N 0.81239 0.16755 0.10126 0.0
N101 N 0.77103 0.94261 0.23775 0.0
H102 H 0.58845 0.00784 0.15076 0.0
H103 H 0.62269 0.96764 0.20772 0.0
H104 H 0.81686 0.92345 0.26391 0.0
H105 H 0.72474 0.90288 0.2307 0.0
H106 H 0.86826 0.19158 0.09895 0.0
H107 H 0.77186 0.17575 0.06949 0.0
H108 H 0.92289 0.21286 0.1712 0.0
H109 H 0.96149 0.15767 0.22197 0.0
C110 C 0.09505 0.76051 0.59129 0.0
C111 C 0.12701 0.6929 0.61441 0.0
C112 C 0.14167 0.75971 0.69465 0.0
C113 C 0.09478 0.82126 0.67266 0.0
N114 N 0.01261 0.87088 0.59985 0.0
N115 N 0.17661 0.62515 0.68907 0.0
C116 C 0.0685 0.81997 0.62077 0.0
C117 C 0.15027 0.69175 0.66637 0.0
N118 N 0.08911 0.76741 0.54093 0.0
N119 N 0.17919 0.76669 0.74204 0.0
H120 H 0.18446 0.57466 0.6695 0.0
H121 H 0.18544 0.61874 0.72743 0.0
H122 H 0.17612 0.81649 0.76318 0.0
H123 H 0.21972 0.72641 0.75837 0.0
H124 H 0.07265 0.81836 0.5225 0.0
H125 H 0.1093 0.72495 0.51835 0.0
H126 H 0.98652 0.86672 0.56306 0.0
H127 H 0.98456 0.91131 0.61996 0.0
C128 C 0.39587 0.02364 0.86286 0.0
C129 C 0.39154 0.08072 0.90036 0.0
C130 C 0.26195 0.12221 0.85684 0.0
C131 C 0.26327 0.05988 0.82311 0.0
N132 N 0.3237 0.94173 0.80042 0.0
N133 N 0.31228 0.17521 0.93743 0.0
C134 C 0.32818 0.00819 0.82779 0.0
C135 C 0.32265 0.12818 0.89838 0.0
N136 N 0.46519 0.98453 0.85985 0.0
N137 N 0.20337 0.17636 0.84879 0.0
H138 H 0.35356 0.17991 0.96922 0.0
H139 H 0.25933 0.20444 0.94033 0.0
H140 H 0.1573 0.17276 0.8194 0.0
H141 H 0.20407 0.22762 0.86876 0.0
H142 H 0.47442 0.95046 0.82949 0.0
H143 H 0.51619 0.9906 0.88522 0.0
H144 H 0.36483 0.89725 0.80683 0.0
H145 H 0.27481 0.92724 0.77458 0.0
C146 C 0.17141 0.2653 0.4593 0.0
C147 C 0.13742 0.33498 0.43969 0.0
C148 C 0.09046 0.27013 0.3608 0.0
C149 C 0.12264 0.20058 0.381 0.0
N150 N 0.2124 0.13519 0.44252 0.0
N151 N 0.08234 0.40839 0.36845 0.0
C152 C 0.16981 0.19959 0.42795 0.0
C153 C 0.10292 0.33884 0.3892 0.0
N154 N 0.19941 0.25996 0.50861 0.0
N155 N 0.04429 0.26962 0.31568 0.0
H156 H 0.0895 0.45961 0.3884 0.0
H157 H 0.06452 0.4162 0.33074 0.0
H158 H 0.03701 0.2208 0.29318 0.0
H159 H 0.01026 0.31615 0.30154 0.0
H160 H 0.21585 0.20831 0.52606 0.0
H161 H 0.20066 0.30604 0.53328 0.0
H162 H 0.25382 0.1328 0.47434 0.0
H163 H 0.21194 0.08639 0.42 0.0
C164 C 0.78528 0.91635 0.93269 0.0
C165 C 0.72209 0.9706 0.92538 0.0
C166 C 0.77876 0.02195 0.85308 0.0
C167 C 0.83591 0.96218 0.85732 0.0
N168 N 0.88956 0.84722 0.8977 0.0
N169 N 0.6539 0.07048 0.87385 0.0
C170 C 0.83759 0.90752 0.89592 0.0
C171 C 0.71794 0.02264 0.8846 0.0
N172 N 0.79894 0.87692 0.97627 0.0
N173 N 0.78201 0.07846 0.81864 0.0
H174 H 0.60889 0.07807 0.89593 0.0
H175 H 0.64161 0.09947 0.84038 0.0
H176 H 0.81989 0.07697 0.79132 0.0
H177 H 0.75052 0.12978 0.81902 0.0
H178 H 0.84888 0.84257 0.98584 0.0
H179 H 0.7653 0.88481 1.00541 0.0
H180 H 0.88676 0.80038 0.92102 0.0
H181 H 0.93258 0.84154 0.87365 0.0
C182 C 0.95278 0.68529 0.37208 0.0
C183 C 0.02289 0.65142 0.3981 0.0
C184 C 0.10586 0.74849 0.36497 0.0
C185 C 0.03651 0.78549 0.34196 0.0
N186 N 0.89648 0.7811 0.31256 0.0
N187 N 0.16294 0.62772 0.39256 0.0
C188 C 0.9604 0.75155 0.34227 0.0
C189 C 0.09867 0.67585 0.38651 0.0
N190 N 0.87971 0.6529 0.37417 0.0
N191 N 0.17902 0.78302 0.36711 0.0
H192 H 0.15846 0.57019 0.40181 0.0
H193 H 0.21764 0.64134 0.38091 0.0
H194 H 0.18802 0.83596 0.35098 0.0
H195 H 0.22975 0.76179 0.38861 0.0
H196 H 0.82591 0.68096 0.36365 0.0
H197 H 0.8728 0.59585 0.38398 0.0
H198 H 0.83977 0.75672 0.30765 0.0
H199 H 0.90208 0.82801 0.2897 0.0
loop_
_geom_bond_atom_site_label_1
_geom_bond_atom_site_label_2
_geom_bond_distance
_geom_bond_site_symmetry_2
_ccdc_geom_bond_type
C0 O2 1.247 1_545 S
C0 O4 1.258 . S
C1 O8 1.247 . S
C1 O9 1.258 1_545 S
O2 C0 1.247 1_565 S
O2 Zn3 2.028 1_556 S
Zn3 O2 2.028 1_554 S
Zn3 O7 2.035 1_554 S
Zn3 O9 2.035 . S
Zn3 O10 2.028 . S
O4 C0 1.258 . S
O4 Zn5 2.035 1_556 S
Zn5 O4 2.035 1_554 S
Zn5 O6 2.028 1_554 S
Zn5 O8 2.028 . S
Zn5 O11 2.035 . S
O6 Zn5 2.028 1_556 S
O6 C12 1.247 . S
O7 Zn3 2.035 1_556 S
O7 C12 1.258 1_565 S
O8 C1 1.247 . S
O8 Zn5 2.028 . S
O9 C1 1.258 1_565 S
O9 Zn3 2.035 . S
O10 Zn3 2.028 . S
O10 C13 1.247 1_565 S
O11 Zn5 2.035 . S
O11 C13 1.258 . S
C12 O6 1.247 . S
C12 O7 1.258 1_545 S
C13 O10 1.247 1_545 S
C13 O11 1.258 . S
C14 O16 1.247 1_455 S
C14 O18 1.258 . S
C15 O22 1.247 . S
C15 O23 1.258 1_455 S
O16 C14 1.247 1_655 S
O16 Zn17 2.028 . S
Zn17 O16 2.028 . S
Zn17 O21 2.035 . S
Zn17 O23 2.035 . S
Zn17 O24 2.028 . S
O18 C14 1.258 . S
O18 Zn19 2.035 . S
Zn19 O18 2.035 . S
Zn19 O20 2.028 . S
Zn19 O22 2.028 . S
Zn19 O25 2.035 . S
O20 Zn19 2.028 . S
O20 C26 1.247 . S
O21 Zn17 2.035 . S
O21 C26 1.258 1_655 S
O22 C15 1.247 . S
O22 Zn19 2.028 . S
O23 C15 1.258 1_655 S
O23 Zn17 2.035 . S
O24 Zn17 2.028 . S
O24 C27 1.247 1_655 S
O25 Zn19 2.035 . S
O25 C27 1.258 . S
C26 O20 1.247 . S
C26 O21 1.258 1_455 S
C27 O24 1.247 1_455 S
C27 O25 1.258 . S
Mg28 O29 2.028 . S
Mg28 O35 1.986 . S
Mg28 O37 2.114 1_545 S
Mg28 O38 2.251 1_545 S
Mg28 O41 2.010 . S
O29 Mg28 2.028 . S
O29 C32 1.250 1_455 S
O30 Mg31 2.028 . S
O30 C32 1.248 . S
Mg31 O30 2.028 . S
Mg31 O36 2.032 . S
Mg31 O38 2.079 1_645 S
C32 O29 1.250 1_655 S
C32 O30 1.248 . S
C33 O34 1.264 . S
C33 O41 1.249 . S
O34 C33 1.264 . S
O35 Mg28 1.986 . S
O35 C39 1.246 . S
O36 Mg31 2.032 . S
O36 C39 1.259 1_655 S
O37 Mg28 2.114 1_565 S
O37 C40 1.252 . S
O38 Mg28 2.251 1_565 S
O38 Mg31 2.079 1_465 S
O38 C40 1.273 . S
C39 O35 1.246 . S
C39 O36 1.259 1_455 S
C40 O37 1.252 . S
C40 O38 1.273 . S
O41 Mg28 2.010 . S
O41 C33 1.249 . S
Mg42 O43 2.028 1_655 S
Mg42 O49 1.986 1_655 S
Mg42 O51 2.114 1_545 S
Mg42 O52 2.251 1_645 S
Mg42 O55 2.010 . S
O43 Mg42 2.028 1_455 S
O43 C46 1.250 . S
O44 Mg45 2.028 . S
O44 C46 1.248 . S
Mg45 O44 2.028 . S
Mg45 O50 2.032 . S
Mg45 O52 2.079 1_545 S
C46 O43 1.250 . S
C46 O44 1.248 . S
C47 O48 1.264 . S
C47 O55 1.249 . S
O48 C47 1.264 . S
O49 Mg42 1.986 1_455 S
O49 C53 1.246 . S
O50 Mg45 2.032 . S
O50 C53 1.259 . S
O51 Mg42 2.114 1_565 S
O51 C54 1.252 1_655 S
O52 Mg42 2.251 1_465 S
O52 Mg45 2.079 1_565 S
O52 C54 1.273 . S
C53 O49 1.246 . S
C53 O50 1.259 . S
C54 O51 1.252 1_455 S
C54 O52 1.273 . S
O55 Mg42 2.010 . S
O55 C47 1.249 . S
C56 C57 1.363 1_565 S
C56 C62 1.379 . S
C56 N64 1.356 . S
C57 C56 1.363 1_545 S
C57 C63 1.363 . S
C58 C59 1.363 . S
C58 C63 1.379 . S
C58 N65 1.356 . S
C59 C58 1.363 . S
C59 C62 1.363 1_545 S
N60 C62 1.356 . S
N60 H72 0.984 . S
N60 H73 0.985 . S
N61 C63 1.356 . S
N61 H66 0.984 . S
N61 H67 0.985 . S
C62 C56 1.379 . S
C62 C59 1.363 1_565 S
C62 N60 1.356 . S
C63 C57 1.363 . S
C63 C58 1.379 . S
C63 N61 1.356 . S
N64 C56 1.356 . S
N64 H70 0.984 . S
N64 H71 0.984 . S
N65 C58 1.356 . S
N65 H68 0.984 . S
N65 H69 0.985 . S
H66 N61 0.984 . S
H67 N61 0.985 . S
H68 N65 0.984 . S
H69 N65 0.985 . S
H70 N64 0.984 . S
H71 N64 0.984 . S
H72 N60 0.984 . S
H73 N60 0.985 . S
C74 C75 1.369 . S
C74 C80 1.377 1_455 S
C74 N82 1.353 1_455 S
C75 C74 1.369 . S
C75 C81 1.363 . S
C76 C77 1.363 . S
C76 C81 1.379 . S
C76 N83 1.356 . S
C77 C76 1.363 . S
C77 C80 1.363 1_455 S
N78 C80 1.356 . S
N78 H90 0.984 . S
N78 H91 0.985 . S
N79 C81 1.356 . S
N79 H84 0.984 . S
N79 H85 0.985 . S
C80 C74 1.377 1_655 S
C80 C77 1.363 1_655 S
C80 N78 1.356 . S
C81 C75 1.363 . S
C81 C76 1.379 . S
C81 N79 1.356 . S
N82 C74 1.353 1_655 S
N82 H88 0.984 . S
N82 H89 0.984 . S
N83 C76 1.356 . S
N83 H86 0.984 . S
N83 H87 0.985 . S
H84 N79 0.984 . S
H85 N79 0.985 . S
H86 N83 0.984 . S
H87 N83 0.985 . S
H88 N82 0.984 . S
H89 N82 0.984 . S
H90 N78 0.984 . S
H91 N78 0.985 . S
C92 C93 1.363 . S
C92 C98 1.379 . S
C92 N100 1.356 . S
C93 C92 1.363 . S
C93 C99 1.363 1_545 S
C94 C95 1.363 1_565 S
C94 C99 1.379 . S
C94 N101 1.356 . S
C95 C94 1.363 1_545 S
C95 C98 1.363 . S
N96 C98 1.356 . S
N96 H108 0.984 . S
N96 H109 0.985 . S
N97 C99 1.356 . S
N97 H102 0.984 . S
N97 H103 0.985 . S
C98 C92 1.379 . S
C98 C95 1.363 . S
C98 N96 1.356 . S
C99 C93 1.363 1_565 S
C99 C94 1.379 . S
C99 N97 1.356 . S
N100 C92 1.356 . S
N100 H106 0.984 . S
N100 H107 0.984 . S
N101 C94 1.356 . S
N101 H104 0.984 . S
N101 H105 0.985 . S
H102 N97 0.984 . S
H103 N97 0.985 . S
H104 N101 0.984 . S
H105 N101 0.985 . S
H106 N100 0.984 . S
H107 N100 0.984 . S
H108 N96 0.984 . S
H109 N96 0.985 . S
C110 C111 1.363 . S
C110 C116 1.379 . S
C110 N118 1.356 . S
C111 C110 1.363 . S
C111 C117 1.363 . S
C112 C113 1.363 . S
C112 C117 1.379 . S
C112 N119 1.356 . S
C113 C112 1.363 . S
C113 C116 1.363 . S
N114 C116 1.356 . S
N114 H126 0.984 . S
N114 H127 0.985 . S
N115 C117 1.356 . S
N115 H120 0.984 . S
N115 H121 0.985 . S
C116 C110 1.379 . S
C116 C113 1.363 . S
C116 N114 1.356 . S
C117 C111 1.363 . S
C117 C112 1.379 . S
C117 N115 1.356 . S
N118 C110 1.356 . S
N118 H124 0.984 . S
N118 H125 0.984 . S
N119 C112 1.356 . S
N119 H122 0.984 . S
N119 H123 0.985 1_455 S
H120 N115 0.984 . S
H121 N115 0.985 . S
H122 N119 0.984 . S
H123 N119 0.985 1_655 S
H124 N118 0.984 . S
H125 N118 0.984 . S
H126 N114 0.984 . S
H127 N114 0.985 . S
C128 C129 1.363 1_565 S
C128 C134 1.379 . S
C128 N136 1.356 . S
C129 C128 1.363 1_545 S
C129 C135 1.363 . S
C130 C131 1.363 . S
C130 C135 1.379 . S
C130 N137 1.356 . S
C131 C130 1.363 . S
C131 C134 1.363 1_545 S
N132 C134 1.356 . S
N132 H144 0.984 . S
N132 H145 0.985 . S
N133 C135 1.356 . S
N133 H138 0.984 . S
N133 H139 0.985 . S
C134 C128 1.379 . S
C134 C131 1.363 1_565 S
C134 N132 1.356 . S
C135 C129 1.363 . S
C135 C130 1.379 . S
C135 N133 1.356 . S
N136 C128 1.356 . S
N136 H142 0.984 . S
N136 H143 0.984 . S
N137 C130 1.356 . S
N137 H140 0.984 . S
N137 H141 0.985 . S
H138 N133 0.984 . S
H139 N133 0.985 . S
H140 N137 0.984 . S
H141 N137 0.985 . S
H142 N136 0.984 . S
H143 N136 0.984 . S
H144 N132 0.984 . S
H145 N132 0.985 . S
C146 C147 1.363 . S
C146 C152 1.379 . S
C146 N154 1.356 . S
C147 C146 1.363 . S
C147 C153 1.363 . S
C148 C149 1.363 . S
C148 C153 1.379 . S
C148 N155 1.356 . S
C149 C148 1.363 . S
C149 C152 1.363 . S
N150 C152 1.356 . S
N150 H162 0.984 . S
N150 H163 0.985 . S
N151 C153 1.356 . S
N151 H156 0.984 . S
N151 H157 0.985 1_455 S
C152 C146 1.379 . S
C152 C149 1.363 . S
C152 N150 1.356 . S
C153 C147 1.363 . S
C153 C148 1.379 . S
C153 N151 1.356 . S
N154 C146 1.356 . S
N154 H160 0.984 . S
N154 H161 0.984 . S
N155 C148 1.356 . S
N155 H158 0.984 . S
N155 H159 0.985 1_455 S
H156 N151 0.984 . S
H157 N151 0.985 1_655 S
H158 N155 0.984 . S
H159 N155 0.985 1_655 S
H160 N154 0.984 . S
H161 N154 0.984 . S
H162 N150 0.984 . S
H163 N150 0.985 . S
C164 C165 1.363 1_565 S
C164 C170 1.379 . S
C164 N172 1.356 . S
C165 C164 1.363 1_545 S
C165 C171 1.363 . S
C166 C167 1.363 . S
C166 C171 1.379 . S
C166 N173 1.356 . S
C167 C166 1.363 . S
C167 C170 1.363 1_545 S
N168 C170 1.356 . S
N168 H180 0.984 . S
N168 H181 0.985 . S
N169 C171 1.356 . S
N169 H174 0.984 . S
N169 H175 0.985 . S
C170 C164 1.379 . S
C170 C167 1.363 1_565 S
C170 N168 1.356 . S
C171 C165 1.363 . S
C171 C166 1.379 . S
C171 N169 1.356 . S
N172 C164 1.356 . S
N172 H178 0.984 . S
N172 H179 0.984 . S
N173 C166 1.356 . S
N173 H176 0.984 . S
N173 H177 0.985 . S
H174 N169 0.984 . S
H175 N169 0.985 . S
H176 N173 0.984 . S
H177 N173 0.985 . S
H178 N172 0.984 . S
H179 N172 0.984 . S
H180 N168 0.984 . S
H181 N168 0.985 . S
C182 C183 1.363 . S
C182 C188 1.379 . S
C182 N190 1.356 1_455 S
C183 C182 1.363 . S
C183 C189 1.363 . S
C184 C185 1.363 . S
C184 C189 1.379 . S
C184 N191 1.356 . S
C185 C184 1.363 . S
C185 C188 1.363 . S
N186 C188 1.356 . S
N186 H198 0.984 1_455 S
N186 H199 0.985 . S
N187 C189 1.356 . S
N187 H192 0.984 . S
N187 H193 0.985 . S
C188 C182 1.379 . S
C188 C185 1.363 . S
C188 N186 1.356 . S
C189 C183 1.363 . S
C189 C184 1.379 . S
C189 N187 1.356 . S
N190 C182 1.356 1_655 S
N190 H196 0.984 . S
N190 H197 0.984 1_655 S
N191 C184 1.356 . S
N191 H194 0.984 . S
N191 H195 0.985 . S
H192 N187 0.984 . S
H193 N187 0.985 . S
H194 N191 0.984 . S
H195 N191 0.985 . S
H196 N190 0.984 . S
H197 N190 0.984 1_455 S
H198 N186 0.984 1_655 S
H199 N186 0.985 . S
C59 C33 1.263 . S
C57 C13 1.476 . S
C77 C53 1.441 . S
C75 C15 1.473 . S
C95 C32 1.450 . S
C93 C1 1.482 . S
C113 C54 1.488 . S
C111 C27 1.488 . S
C131 C46 1.450 . S
C129 C0 1.482 . S
C149 C39 1.441 . S
C147 C26 1.473 . S
C167 C47 1.263 . S
C165 C12 1.476 . S
C183 C14 1.488 . S
C185 C40 1.488 . S
