# Generated by pormake.
# Topology nia, (6,6)-cn, num edge types: 1
# Building blocks:
#     Node 0, Type 0, BuildingBlock: BETDAH_clean_sbu_0, # of connection points: 6
#     Node 1, Type 0, BuildingBlock: BETDAH_clean_sbu_0, # of connection points: 6
#     Node 2, Type 1, BuildingBlock: MIDCAF_clean_sbu_0, # of connection points: 6
#     Node 3, Type 1, BuildingBlock: MIDCAF_clean_sbu_0, # of connection points: 6
#     Edge 4, Type (0, 1), None
#     Edge 5, Type (0, 1), None
#     Edge 6, Type (0, 1), None
#     Edge 7, Type (0, 1), None
#     Edge 8, Type (0, 1), None
#     Edge 9, Type (0, 1), None
#     Edge 10, Type (0, 1), None
#     Edge 11, Type (0, 1), None
#     Edge 12, Type (0, 1), None
#     Edge 13, Type (0, 1), None
#     Edge 14, Type (0, 1), None
#     Edge 15, Type (0, 1), None
# Relax obj value: 0.532
# Max RMSD: 0.337
# Mean RMSD: 0.315
data_MOF--net-nia--node1-BETDAH_clean_sbu_0--node2-MIDCAF_clean_sbu_0--edge1-none
_symmetry_space_group_name_H-M    P1
_symmetry_Int_Tables_number       1
_symmetry_cell_setting            triclinic
loop_
_symmetry_equiv_pos_as_xyz
'x, y, z'
_cell_length_a     11.777013
_cell_length_b     16.159334
_cell_length_c     18.619101
_cell_angle_alpha  54.822161
_cell_angle_beta   112.1891
_cell_angle_gamma 133.75121
loop_
_atom_site_label
_atom_site_type_symbol
_atom_site_fract_x
_atom_site_fract_y
_atom_site_fract_z
_atom_type_partial_charge
Ho0 Ho 0.19717 0.10973 0.06368 0.0
Ho1 Ho 0.99764 0.9352 0.98433 0.0
C2 C 0.95359 0.14121 0.91749 0.0
C3 C 0.37663 0.30272 0.09342 0.0
C4 C 0.33699 0.36301 0.10454 0.0
C5 C 0.41732 0.4965 0.05231 0.0
C6 C 0.3862 0.55716 0.06347 0.0
C7 C 0.27344 0.48472 0.12691 0.0
C8 C 0.18329 0.34976 0.17413 0.0
C9 C 0.21485 0.28865 0.16312 0.0
C10 C 0.90388 0.90527 0.14328 0.0
C11 C 0.24107 0.90359 0.13065 0.0
C12 C 0.81856 0.74245 0.95438 0.0
C13 C 0.85838 0.68214 0.94343 0.0
C14 C 0.77843 0.54873 0.99593 0.0
C15 C 0.80977 0.48805 0.98497 0.0
C16 C 0.92229 0.56038 0.92142 0.0
C17 C 1.01208 0.6953 0.87393 0.0
C18 C 0.98036 0.75644 0.88477 0.0
C19 C 0.29131 0.14016 0.90486 0.0
O20 O 0.09662 0.20434 0.94698 0.0
O21 O 0.8779 0.02177 0.93505 0.0
O22 O 0.32582 0.1856 0.15591 0.0
O23 O 0.35888 0.31712 0.01411 0.0
O24 O 1.03112 0.95772 0.18434 0.0
O25 O 0.94165 0.96504 0.06377 0.0
O26 O 0.09811 0.84053 0.10106 0.0
O27 O 0.31677 0.02302 0.1131 0.0
O28 O 0.8696 0.85964 0.89192 0.0
O29 O 0.83582 0.72788 0.03369 0.0
O30 O 0.16416 0.08796 0.86364 0.0
O31 O 0.25285 0.07959 0.98432 0.0
H32 H 0.50633 0.5541 0.00415 0.0
H33 H 0.45729 0.66202 0.02621 0.0
H34 H 0.09272 0.29276 0.22122 0.0
H35 H 0.14626 0.18418 0.20166 0.0
H36 H 0.6895 0.49118 0.04412 0.0
H37 H 0.73889 0.38321 0.02241 0.0
H38 H 0.1024 0.75221 0.82671 0.0
H39 H 1.04867 0.86087 0.84602 0.0
Ho40 Ho 0.98226 0.98001 0.57784 0.0
Ho41 Ho 0.21328 0.06541 0.47021 0.0
C42 C 0.85314 0.9054 0.41774 0.0
C43 C 0.79515 0.96594 0.6305 0.0
C44 C 0.83295 0.05865 0.64948 0.0
C45 C 0.96648 0.18951 0.60905 0.0
C46 C 0.99924 0.28053 0.62252 0.0
C47 C 0.89987 0.24124 0.67775 0.0
C48 C 0.77202 0.10827 0.72285 0.0
C49 C 0.73855 0.01763 0.70851 0.0
C50 C 0.99502 0.7894 0.63298 0.0
C51 C 0.34231 0.13986 0.63043 0.0
C52 C 0.40042 0.07979 0.41729 0.0
C53 C 0.36253 0.98695 0.39841 0.0
C54 C 0.22914 0.85606 0.43904 0.0
C55 C 0.19634 0.76493 0.42567 0.0
C56 C 0.29549 0.80413 0.37036 0.0
C57 C 0.42317 0.93711 0.32508 0.0
C58 C 0.45669 0.02787 0.33931 0.0
C59 C 0.19979 0.25571 0.41525 0.0
O60 O 0.83224 0.92932 0.46728 0.0
O61 O 0.99028 0.93864 0.41416 0.0
O62 O 0.85438 0.90614 0.68433 0.0
O63 O 0.81286 0.00867 0.54754 0.0
O64 O 0.96491 0.80266 0.68418 0.0
O65 O 1.00884 0.87461 0.55586 0.0
O66 O 0.36328 0.11611 0.58078 0.0
O67 O 0.20513 0.1065 0.63409 0.0
O68 O 0.34088 0.13936 0.36354 0.0
O69 O 0.38309 0.03727 0.50026 0.0
O70 O 0.2297 0.2425 0.36391 0.0
O71 O 0.18681 0.17066 0.49222 0.0
H72 H 1.04253 0.22156 0.565 0.0
H73 H 0.09869 0.38177 0.58767 0.0
H74 H 0.69201 0.07486 0.76536 0.0
H75 H 0.63685 0.91651 0.7415 0.0
H76 H 0.15326 0.82406 0.48317 0.0
H77 H 0.09702 0.66369 0.46068 0.0
H78 H 0.50301 0.97046 0.2825 0.0
H79 H 0.55827 0.129 0.30617 0.0
Zn80 Zn 0.45146 0.80116 0.11335 0.0
Zn81 Zn 0.36839 0.57077 0.43426 0.0
Zn82 Zn 0.45695 0.69569 0.27309 0.0
C83 C 0.70899 0.80504 0.3926 0.0
C84 C 0.26802 0.38396 0.39879 0.0
O85 O 0.33641 0.7819 0.21658 0.0
O86 O 0.41308 0.92186 0.07737 0.0
C87 C 0.75007 0.85357 0.16456 0.0
O88 O 0.69542 0.80731 0.31957 0.0
O89 O 0.59273 0.71554 0.44663 0.0
O90 O 0.28449 0.39655 0.46378 0.0
O91 O 0.32224 0.48415 0.32228 0.0
O92 O 0.65817 0.85541 0.10153 0.0
O93 O 0.70952 0.81499 0.23979 0.0
O94 O 0.34198 0.55668 0.2266 0.0
O95 O 0.27838 0.64978 0.0926 0.0
C96 C 0.27803 0.55619 0.15323 0.0
O97 O 0.36341 0.74655 0.31073 0.0
O98 O 0.22972 0.59772 0.43785 0.0
C99 C 0.33616 0.86903 0.14258 0.0
C100 C 0.28586 0.70792 0.37105 0.0
Zn101 Zn 0.74339 0.24368 0.93494 0.0
Zn102 Zn 0.82706 0.47446 0.6141 0.0
Zn103 Zn 0.73821 0.34944 0.77516 0.0
C104 C 0.92698 0.66115 0.64952 0.0
C105 C 0.4864 0.24014 0.65566 0.0
O106 O 0.85859 0.26313 0.83163 0.0
O107 O 0.78141 0.12281 0.97075 0.0
C108 C 0.91734 0.48878 0.89507 0.0
O109 O 0.87278 0.56097 0.72603 0.0
O110 O 0.91075 0.6486 0.58456 0.0
O111 O 0.60277 0.32962 0.60171 0.0
O112 O 0.49977 0.23788 0.72865 0.0
O113 O 0.91674 0.39504 0.9557 0.0
O114 O 0.85339 0.48839 0.82169 0.0
O115 O 0.48568 0.23028 0.80845 0.0
O116 O 0.53685 0.1897 0.94675 0.0
C117 C 0.44509 0.19172 0.88366 0.0
O118 O 0.83176 0.29865 0.73744 0.0
O119 O 0.96592 0.44772 0.61047 0.0
C120 C 0.85853 0.17578 0.90557 0.0
C121 C 0.90952 0.3374 0.67717 0.0
loop_
_geom_bond_atom_site_label_1
_geom_bond_atom_site_label_2
_geom_bond_distance
_geom_bond_site_symmetry_2
_ccdc_geom_bond_type
Ho0 C3 2.811 . S
Ho0 O20 2.322 1_455 S
Ho0 O22 2.378 . S
Ho0 O23 2.524 . S
Ho0 O24 2.381 1_445 S
Ho0 O25 2.669 1_445 S
Ho0 O27 2.346 1_545 S
Ho0 O31 2.305 1_554 S
Ho1 C12 2.811 . S
Ho1 O21 2.346 1_565 S
Ho1 O25 2.305 1_556 S
Ho1 O26 2.322 1_656 S
Ho1 O28 2.378 . S
Ho1 O29 2.524 1_556 S
Ho1 O30 2.381 1_665 S
Ho1 O31 2.669 1_665 S
C2 O20 1.259 1_556 S
C2 O21 1.268 . S
C3 Ho0 2.811 . S
C3 C4 1.488 . S
C3 O22 1.215 . S
C3 O23 1.289 . S
C4 C3 1.488 . S
C4 C5 1.348 . S
C4 C9 1.413 . S
C5 C4 1.348 . S
C5 C6 1.442 . S
C5 H32 0.930 1_554 S
C6 C5 1.442 . S
C6 C7 1.381 . S
C6 H33 0.931 1_554 S
C7 C6 1.381 . S
C7 C8 1.321 . S
C8 C7 1.321 . S
C8 C9 1.403 . S
C8 H34 0.934 . S
C9 C4 1.413 . S
C9 C8 1.403 . S
C9 H35 0.930 . S
C10 O24 1.275 . S
C10 O25 1.256 . S
C11 O26 1.259 . S
C11 O27 1.268 . S
C12 Ho1 2.811 . S
C12 C13 1.488 . S
C12 O28 1.215 . S
C12 O29 1.289 1_556 S
C13 C12 1.488 . S
C13 C14 1.348 1_556 S
C13 C18 1.413 . S
C14 C13 1.348 1_554 S
C14 C15 1.442 . S
C14 H36 0.930 . S
C15 C14 1.442 . S
C15 C16 1.381 1_554 S
C15 H37 0.931 . S
C16 C15 1.381 1_556 S
C16 C17 1.321 . S
C17 C16 1.321 . S
C17 C18 1.403 . S
C17 H38 0.934 . S
C18 C13 1.413 . S
C18 C17 1.403 . S
C18 H39 0.930 . S
C19 O30 1.275 . S
C19 O31 1.256 . S
O20 Ho0 2.322 1_655 S
O20 C2 1.259 1_554 S
O21 Ho1 2.346 1_545 S
O21 C2 1.268 . S
O22 Ho0 2.378 . S
O22 C3 1.215 . S
O23 Ho0 2.524 . S
O23 C3 1.289 . S
O24 Ho0 2.381 1_665 S
O24 C10 1.275 . S
O25 Ho0 2.669 1_665 S
O25 Ho1 2.305 1_554 S
O25 C10 1.256 . S
O26 Ho1 2.322 1_454 S
O26 C11 1.259 . S
O27 Ho0 2.346 1_565 S
O27 C11 1.268 . S
O28 Ho1 2.378 . S
O28 C12 1.215 . S
O29 Ho1 2.524 1_554 S
O29 C12 1.289 1_554 S
O30 Ho1 2.381 1_445 S
O30 C19 1.275 . S
O31 Ho0 2.305 1_556 S
O31 Ho1 2.669 1_445 S
O31 C19 1.256 . S
H32 C5 0.930 1_556 S
H33 C6 0.931 1_556 S
H34 C8 0.934 . S
H35 C9 0.930 . S
H36 C14 0.930 . S
H37 C15 0.931 . S
H38 C17 0.934 . S
H39 C18 0.930 . S
Ho40 C43 2.811 . S
Ho40 O60 2.322 1_545 S
Ho40 O62 2.378 1_545 S
Ho40 O63 2.524 . S
Ho40 O64 2.381 1_545 S
Ho40 O65 2.669 1_545 S
Ho40 O67 2.346 1_655 S
Ho40 O71 2.305 1_655 S
Ho41 C52 2.811 1_545 S
Ho41 O61 2.346 1_445 S
Ho41 O65 2.305 1_445 S
Ho41 O66 2.322 . S
Ho41 O68 2.378 . S
Ho41 O69 2.524 1_545 S
Ho41 O70 2.381 . S
Ho41 O71 2.669 . S
C42 O60 1.259 . S
C42 O61 1.268 . S
C43 Ho40 2.811 . S
C43 C44 1.488 . S
C43 O62 1.215 1_545 S
C43 O63 1.289 . S
C44 C43 1.488 . S
C44 C45 1.348 . S
C44 C49 1.413 1_545 S
C45 C44 1.348 . S
C45 C46 1.442 . S
C45 H72 0.930 . S
C46 C45 1.442 . S
C46 C47 1.381 . S
C46 H73 0.931 . S
C47 C46 1.381 . S
C47 C48 1.321 1_545 S
C48 C47 1.321 1_565 S
C48 C49 1.403 . S
C48 H74 0.934 . S
C49 C44 1.413 1_565 S
C49 C48 1.403 . S
C49 H75 0.930 . S
C50 O64 1.275 . S
C50 O65 1.256 . S
C51 O66 1.259 . S
C51 O67 1.268 . S
C52 Ho41 2.811 1_565 S
C52 C53 1.488 . S
C52 O68 1.215 1_565 S
C52 O69 1.289 . S
C53 C52 1.488 . S
C53 C54 1.348 . S
C53 C58 1.413 1_565 S
C54 C53 1.348 . S
C54 C55 1.442 . S
C54 H76 0.930 . S
C55 C54 1.442 . S
C55 C56 1.381 . S
C55 H77 0.931 . S
C56 C55 1.381 . S
C56 C57 1.321 1_565 S
C57 C56 1.321 1_545 S
C57 C58 1.403 . S
C57 H78 0.934 . S
C58 C53 1.413 1_545 S
C58 C57 1.403 . S
C58 H79 0.930 . S
C59 O70 1.275 . S
C59 O71 1.256 . S
O60 Ho40 2.322 1_565 S
O60 C42 1.259 . S
O61 Ho41 2.346 1_665 S
O61 C42 1.268 . S
O62 Ho40 2.378 1_565 S
O62 C43 1.215 1_565 S
O63 Ho40 2.524 . S
O63 C43 1.289 . S
O64 Ho40 2.381 1_565 S
O64 C50 1.275 . S
O65 Ho40 2.669 1_565 S
O65 Ho41 2.305 1_665 S
O65 C50 1.256 . S
O66 Ho41 2.322 . S
O66 C51 1.259 . S
O67 Ho40 2.346 1_455 S
O67 C51 1.268 . S
O68 Ho41 2.378 . S
O68 C52 1.215 1_545 S
O69 Ho41 2.524 1_565 S
O69 C52 1.289 . S
O70 Ho41 2.381 . S
O70 C59 1.275 . S
O71 Ho40 2.305 1_455 S
O71 Ho41 2.669 . S
O71 C59 1.256 . S
H72 C45 0.930 . S
H73 C46 0.931 . S
H74 C48 0.934 . S
H75 C49 0.930 . S
H76 C54 0.930 . S
H77 C55 0.931 . S
H78 C57 0.934 . S
H79 C58 0.930 . S
Zn80 O86 1.920 . S
Zn80 O92 1.898 . S
Zn80 O95 1.905 . S
Zn81 O89 1.905 . S
Zn81 O90 1.898 . S
Zn81 O98 1.920 . S
Zn82 O85 2.080 . S
Zn82 O88 2.114 . S
Zn82 O91 2.120 . S
Zn82 O93 2.120 . S
Zn82 O94 2.114 . S
Zn82 O97 2.080 . S
C83 O88 1.166 . S
C83 O89 1.182 . S
C84 O90 1.167 . S
C84 O91 1.299 . S
O85 Zn82 2.080 . S
O85 C99 1.305 . S
O86 Zn80 1.920 . S
O86 C99 1.234 . S
C87 O92 1.167 . S
C87 O93 1.299 . S
O88 Zn82 2.114 . S
O88 C83 1.166 . S
O89 Zn81 1.905 . S
O89 C83 1.182 . S
O90 Zn81 1.898 . S
O90 C84 1.167 . S
O91 Zn82 2.120 . S
O91 C84 1.299 . S
O92 Zn80 1.898 . S
O92 C87 1.167 . S
O93 Zn82 2.120 . S
O93 C87 1.299 . S
O94 Zn82 2.114 . S
O94 C96 1.166 . S
O95 Zn80 1.905 . S
O95 C96 1.182 . S
C96 O94 1.166 . S
C96 O95 1.182 . S
O97 Zn82 2.080 . S
O97 C100 1.305 . S
O98 Zn81 1.920 . S
O98 C100 1.234 . S
C99 O85 1.305 . S
C99 O86 1.234 . S
C100 O97 1.305 . S
C100 O98 1.234 . S
Zn101 O107 1.920 . S
Zn101 O113 1.898 1_554 S
Zn101 O116 1.905 1_554 S
Zn102 O110 1.905 . S
Zn102 O111 1.898 . S
Zn102 O119 1.920 . S
Zn103 O106 2.080 . S
Zn103 O109 2.114 . S
Zn103 O112 2.120 . S
Zn103 O114 2.120 . S
Zn103 O115 2.114 . S
Zn103 O118 2.080 . S
C104 O109 1.166 . S
C104 O110 1.182 . S
C105 O111 1.167 . S
C105 O112 1.299 . S
O106 Zn103 2.080 . S
O106 C120 1.305 . S
O107 Zn101 1.920 . S
O107 C120 1.234 1_554 S
C108 O113 1.167 . S
C108 O114 1.299 . S
O109 Zn103 2.114 . S
O109 C104 1.166 . S
O110 Zn102 1.905 . S
O110 C104 1.182 . S
O111 Zn102 1.898 . S
O111 C105 1.167 . S
O112 Zn103 2.120 . S
O112 C105 1.299 . S
O113 Zn101 1.898 1_556 S
O113 C108 1.167 . S
O114 Zn103 2.120 . S
O114 C108 1.299 . S
O115 Zn103 2.114 . S
O115 C117 1.166 . S
O116 Zn101 1.905 1_556 S
O116 C117 1.182 . S
C117 O115 1.166 . S
C117 O116 1.182 . S
O118 Zn103 2.080 . S
O118 C121 1.305 . S
O119 Zn102 1.920 . S
O119 C121 1.234 . S
C120 O106 1.305 . S
C120 O107 1.234 1_556 S
C121 O118 1.305 . S
C121 O119 1.234 . S
C11 C99 2.738 . S
C51 C105 1.343 . S
C7 C96 1.372 . S
C47 C121 3.268 . S
C10 C87 3.460 . S
C104 C50 3.757 . S
C56 C100 2.414 . S
C117 C19 2.231 . S
C84 C59 3.204 . S
C120 C2 3.673 . S
C83 C42 2.730 . S
C108 C16 1.032 . S
