# Generated by pormake.
# Topology rtl, (3,6)-cn, num edge types: 1
# Building blocks:
#     Node 0, Type 0, BuildingBlock: OLANEW_clean_sbu_2, # of connection points: 3
#     Node 1, Type 0, BuildingBlock: OLANEW_clean_sbu_2, # of connection points: 3
#     Node 2, Type 0, BuildingBlock: OLANEW_clean_sbu_2, # of connection points: 3
#     Node 3, Type 0, BuildingBlock: OLANEW_clean_sbu_2, # of connection points: 3
#     Node 4, Type 1, BuildingBlock: KUMBUR_clean_sbu_1, # of connection points: 6
#     Node 5, Type 1, BuildingBlock: KUMBUR_clean_sbu_1, # of connection points: 6
#     Edge 6, Type (0, 1), None
#     Edge 7, Type (0, 1), None
#     Edge 8, Type (0, 1), None
#     Edge 9, Type (0, 1), None
#     Edge 10, Type (0, 1), None
#     Edge 11, Type (0, 1), None
#     Edge 12, Type (0, 1), None
#     Edge 13, Type (0, 1), None
#     Edge 14, Type (0, 1), None
#     Edge 15, Type (0, 1), None
#     Edge 16, Type (0, 1), None
#     Edge 17, Type (0, 1), None
# Relax obj value: 0.055
# Max RMSD: 0.216
# Mean RMSD: 0.164
data_MOF--net-rtl--node1-OLANEW_clean_sbu_2--node2-KUMBUR_clean_sbu_1--edge1-none
_symmetry_space_group_name_H-M    P1
_symmetry_Int_Tables_number       1
_symmetry_cell_setting            triclinic
loop_
_symmetry_equiv_pos_as_xyz
'x, y, z'
_cell_length_a     18.877792
_cell_length_b     19.211819
_cell_length_c     15.710721
_cell_angle_alpha  64.74671
_cell_angle_beta   104.39401
_cell_angle_gamma 92.627079
loop_
_atom_site_label
_atom_site_type_symbol
_atom_site_fract_x
_atom_site_fract_y
_atom_site_fract_z
_atom_type_partial_charge
O0 O 0.18394 0.87517 0.87543 0.0
Cd1 Cd 0.31157 0.86038 0.96877 0.0
O2 O 0.13295 0.94423 0.92904 0.0
Cd3 Cd 0.22752 0.92389 0.05006 0.0
O4 O 0.2324 0.88532 0.20213 0.0
C5 C 0.18896 0.92339 0.21922 0.0
O6 O 0.15325 0.98644 0.14721 0.0
C7 C 0.12847 0.91273 0.87176 0.0
C8 C 0.3955 0.73311 0.99401 0.0
O9 O 0.37828 0.79124 0.91079 0.0
O10 O 0.372 0.73443 0.06313 0.0
O11 O 0.65219 0.73268 0.84745 0.0
Cd12 Cd 0.67823 0.83146 0.69833 0.0
O13 O 0.56783 0.70075 0.74958 0.0
Cd14 Cd 0.48435 0.62825 0.71546 0.0
O15 O 0.50106 0.55112 0.65347 0.0
C16 C 0.52507 0.58563 0.57833 0.0
O17 O 0.52911 0.6608 0.54398 0.0
C18 C 0.59971 0.69119 0.83545 0.0
C19 C 0.81831 0.88452 0.69108 0.0
O20 O 0.78413 0.89099 0.74857 0.0
O21 O 0.78917 0.84709 0.64202 0.0
O22 O 0.83486 0.20635 0.34317 0.0
Cd23 Cd 0.75407 0.25451 0.17703 0.0
O24 O 0.85507 0.11783 0.2988 0.0
Cd25 Cd 0.89359 0.01749 0.2854 0.0
O26 O 0.91135 0.93145 0.23224 0.0
C27 C 0.92902 0.93974 0.15518 0.0
O28 O 0.93197 0.87882 0.13813 0.0
C29 C 0.86539 0.14127 0.36535 0.0
C30 C 0.65838 0.38191 0.11751 0.0
O31 O 0.65008 0.31607 0.18325 0.0
O32 O 0.71317 0.38895 0.08079 0.0
O33 O 0.29418 0.30551 0.67355 0.0
Cd34 Cd 0.29672 0.19561 0.63074 0.0
O35 O 0.31503 0.36688 0.53085 0.0
Cd36 Cd 0.34175 0.45669 0.40288 0.0
O37 O 0.38091 0.49108 0.27209 0.0
C38 C 0.44369 0.46337 0.28147 0.0
O39 O 0.48292 0.4173 0.36831 0.0
C40 C 0.30579 0.36853 0.6074 0.0
C41 C 0.16458 0.12512 0.61289 0.0
O42 O 0.20792 0.11325 0.69543 0.0
O43 O 0.18261 0.17157 0.5356 0.0
Tb44 Tb 0.01846 0.95166 0.56804 0.0
C45 C 0.88563 0.24992 0.53923 0.0
N46 N 0.95253 0.21192 0.59014 0.0
C47 C 0.00993 0.33195 0.53885 0.0
C48 C 0.87866 0.33055 0.4843 0.0
C49 C 0.01421 0.25187 0.59267 0.0
C50 C 0.94189 0.37151 0.48428 0.0
C51 C 0.75433 0.24424 0.48464 0.0
C52 C 0.82402 0.20724 0.54086 0.0
C53 C 0.74747 0.32432 0.42846 0.0
C54 C 0.80907 0.36761 0.43105 0.0
Tb55 Tb 0.95059 0.08301 0.68323 0.0
N56 N 0.83272 0.12945 0.59603 0.0
C57 C 0.69348 0.19981 0.4874 0.0
C58 C 0.77283 0.08698 0.60328 0.0
C59 C 0.70272 0.12093 0.54797 0.0
H60 H 0.06671 0.22286 0.63805 0.0
H61 H 0.65565 0.08643 0.55357 0.0
H62 H 0.91654 0.79892 0.64659 0.0
H63 H 0.30735 0.96905 0.58964 0.0
H64 H 0.77794 0.02789 0.65378 0.0
H65 H 0.63903 0.22613 0.44516 0.0
H66 H 0.17909 0.01965 0.53852 0.0
H67 H 0.05902 0.36325 0.54064 0.0
H68 H 0.69459 0.35316 0.38313 0.0
H69 H 0.80257 0.42975 0.39145 0.0
H70 H 0.93801 0.65975 0.74318 0.0
H71 H 0.93872 0.43358 0.44279 0.0
H72 H 0.33947 0.82938 0.68913 0.0
N73 N 0.02988 0.82118 0.66565 0.0
C74 C 0.0995 0.78814 0.69771 0.0
C75 C 0.98407 0.69528 0.73209 0.0
C76 C 0.11362 0.70728 0.74652 0.0
C77 C 0.97223 0.77539 0.67956 0.0
C78 C 0.05507 0.66101 0.76583 0.0
N79 N 0.13986 0.91211 0.62028 0.0
C80 C 0.19284 0.95975 0.58797 0.0
C81 C 0.22821 0.80291 0.69892 0.0
C82 C 0.1562 0.83508 0.67349 0.0
C83 C 0.28344 0.85202 0.67076 0.0
C84 C 0.26557 0.93086 0.6148 0.0
H85 H 0.06379 0.59872 0.80362 0.0
H86 H 0.19589 0.61297 0.80287 0.0
H87 H 0.29683 0.69739 0.76487 0.0
O88 O 0.04707 0.99474 0.43364 0.0
O89 O 0.08241 0.93549 0.71006 0.0
O90 O 0.00505 0.96717 0.78387 0.0
O91 O 0.99088 0.89044 0.48307 0.0
O92 O 0.0628 0.06653 0.54337 0.0
O93 O 0.06463 0.08453 0.68119 0.0
O94 O 0.89179 0.0966 0.7735 0.0
O95 O 0.93572 0.12734 0.52372 0.0
O96 O 0.91472 0.01959 0.49701 0.0
O97 O 0.00391 0.12648 0.78349 0.0
O98 O 0.9043 0.97039 0.72126 0.0
O99 O 0.90974 0.93184 0.60032 0.0
C100 C 0.06597 0.93385 0.78683 0.0
C101 C 0.08357 0.89097 0.40665 0.0
C102 C 0.16694 0.88881 0.31163 0.0
C103 C 0.19111 0.81239 0.37885 0.0
C104 C 0.10531 0.813 0.46951 0.0
C105 C 0.16025 0.77488 0.45735 0.0
C106 C 0.11492 0.92861 0.32803 0.0
C107 C 0.09334 0.0912 0.61041 0.0
C108 C 0.02777 0.9328 0.4218 0.0
C109 C 0.18489 0.67497 0.76963 0.0
C110 C 0.24217 0.72274 0.7471 0.0
C111 C 0.90899 0.09423 0.46553 0.0
C112 C 0.95853 0.10126 0.92167 0.0
C113 C 0.9465 0.01534 0.08522 0.0
C114 C 0.97259 0.07237 0.11641 0.0
C115 C 0.98508 0.15669 0.95533 0.0
C116 C 0.9399 0.03004 0.98711 0.0
C117 C 0.99212 0.14227 0.05196 0.0
C118 C 0.88403 0.92764 0.67346 0.0
C119 C 0.94663 0.12327 0.81657 0.0
H120 H 0.2315 0.78044 0.36858 0.0
H121 H 0.07972 0.78092 0.52783 0.0
H122 H 0.17731 0.71536 0.50742 0.0
H123 H 0.09717 0.98807 0.2782 0.0
H124 H 0.9799 0.06249 0.19118 0.0
H125 H 0.99949 0.21194 0.9062 0.0
H126 H 0.91935 0.98698 0.96143 0.0
H127 H 0.01267 0.18559 0.07699 0.0
Tb128 Tb 0.44372 0.51753 0.97344 0.0
C129 C 0.75319 0.63522 0.11333 0.0
N130 N 0.72095 0.56821 0.15328 0.0
C131 C 0.83392 0.49616 0.19054 0.0
C132 C 0.82674 0.63528 0.10836 0.0
C133 C 0.76076 0.49924 0.19373 0.0
C134 C 0.86698 0.56445 0.14712 0.0
C135 C 0.74266 0.77516 0.03429 0.0
C136 C 0.71216 0.70419 0.07753 0.0
C137 C 0.81566 0.77563 0.02814 0.0
C138 C 0.85768 0.70584 0.06536 0.0
Tb139 Tb 0.60144 0.58097 0.15552 0.0
N140 N 0.64104 0.70126 0.08205 0.0
C141 C 0.69867 0.84337 -0.00186 0.0
C142 C 0.59897 0.76766 0.05121 0.0
C143 C 0.62668 0.83955 0.00733 0.0
H144 H 0.73705 0.44635 0.23093 0.0
H145 H 0.59265 0.89198 0.98123 0.0
H146 H 0.30058 0.62509 0.94745 0.0
H147 H 0.50573 0.20781 0.14705 0.0
H148 H 0.54413 0.76557 0.06038 0.0
H149 H 0.71995 0.89914 0.96404 0.0
H150 H 0.52479 0.34215 0.04624 0.0
H151 H 0.86499 0.44109 0.22266 0.0
H152 H 0.8401 0.82958 0.99483 0.0
H153 H 0.91404 0.70706 0.06058 0.0
H154 H 0.18331 0.60458 0.99485 0.0
H155 H 0.92371 0.56191 0.14502 0.0
H156 H 0.39545 0.17658 0.2109 0.0
N157 N 0.33464 0.50591 0.0147 0.0
C158 C 0.31779 0.43263 0.06587 0.0
C159 C 0.22069 0.55573 0.01539 0.0
C160 C 0.2516 0.41816 0.0947 0.0
C161 C 0.28708 0.56726 0.98848 0.0
C162 C 0.20273 0.48087 0.06846 0.0
N163 N 0.43322 0.38923 0.0655 0.0
C164 C 0.47994 0.33067 0.08011 0.0
C165 C 0.35403 0.29588 0.14746 0.0
C166 C 0.36922 0.37258 0.09338 0.0
C167 C 0.4051 0.2363 0.16968 0.0
C168 C 0.46773 0.25375 0.13449 0.0
H169 H 0.15129 0.47217 0.08926 0.0
H170 H 0.18621 0.32955 0.1724 0.0
H171 H 0.2754 0.22239 0.21755 0.0
O172 O 0.42301 0.45767 0.88439 0.0
O173 O 0.42727 0.51339 0.10927 0.0
O174 O 0.54233 0.47686 0.20606 0.0
O175 O 0.36796 0.56985 0.83604 0.0
O176 O 0.55796 0.47221 0.0095 0.0
O177 O 0.60464 0.46517 0.16282 0.0
O178 O 0.57385 0.6242 0.24589 0.0
O179 O 0.5995 0.64131 0.00161 0.0
O180 O 0.52401 0.5898 0.90315 0.0
O181 O 0.67372 0.55328 0.29301 0.0
O182 O 0.49054 0.63748 0.10093 0.0
O183 O 0.43517 0.63933 0.94876 0.0
C184 C 0.47181 0.48175 0.19604 0.0
C185 C 0.33903 0.51076 0.72202 0.0
C186 C 0.30831 0.44118 0.61943 0.0
C187 C 0.28223 0.51142 0.53829 0.0
C188 C 0.31132 0.57996 0.63986 0.0
C189 C 0.28338 0.5801 0.54872 0.0
C190 C 0.33649 0.44115 0.71155 0.0
C191 C 0.60948 0.44866 0.0916 0.0
C192 C 0.37775 0.51308 0.81504 0.0
C193 C 0.23685 0.34195 0.14969 0.0
C194 C 0.28785 0.28096 0.17583 0.0
C195 C 0.57433 0.6357 0.91919 0.0
C196 C 0.61193 0.5425 0.41233 0.0
C197 C 0.55646 0.54204 0.53704 0.0
C198 C 0.57027 0.46153 0.58692 0.0
C199 C 0.62675 0.46232 0.46399 0.0
C200 C 0.5773 0.58188 0.44965 0.0
C201 C 0.6057 0.42207 0.55065 0.0
C202 C 0.44515 0.66849 0.0133 0.0
C203 C 0.62957 0.58674 0.31817 0.0
H204 H 0.2598 0.51315 0.46688 0.0
H205 H 0.31341 0.63437 0.64539 0.0
H206 H 0.26329 0.63383 0.4855 0.0
H207 H 0.35831 0.38745 0.77429 0.0
H208 H 0.55515 0.42934 0.65479 0.0
H209 H 0.65329 0.43077 0.43671 0.0
H210 H 0.5666 0.64396 0.41007 0.0
H211 H 0.61685 0.36015 0.58972 0.0
loop_
_geom_bond_atom_site_label_1
_geom_bond_atom_site_label_2
_geom_bond_distance
_geom_bond_site_symmetry_2
_ccdc_geom_bond_type
O0 Cd1 2.300 1_556 S
O0 C7 1.275 . S
Cd1 O0 2.300 1_554 S
Cd1 O9 2.381 . S
Cd1 O10 2.378 . S
O2 Cd3 2.385 1_566 S
O2 C7 1.255 . S
Cd3 O2 2.385 1_544 S
Cd3 O4 2.317 1_545 S
O4 Cd3 2.317 1_565 S
O4 C5 1.232 . S
C5 O4 1.232 . S
C5 O6 1.218 1_565 S
O6 C5 1.218 1_545 S
C7 O0 1.275 . S
C7 O2 1.255 . S
C8 O9 1.258 . S
C8 O10 1.256 . S
O9 Cd1 2.381 . S
O9 C8 1.258 . S
O10 Cd1 2.378 . S
O10 C8 1.256 . S
O11 Cd12 2.300 . S
O11 C18 1.275 . S
Cd12 O11 2.300 . S
Cd12 O20 2.381 . S
Cd12 O21 2.378 . S
O13 Cd14 2.385 . S
O13 C18 1.255 . S
Cd14 O13 2.385 . S
Cd14 O15 2.317 . S
O15 Cd14 2.317 . S
O15 C16 1.232 . S
C16 O15 1.232 . S
C16 O17 1.218 . S
O17 C16 1.218 . S
C18 O11 1.275 . S
C18 O13 1.255 . S
C19 O20 1.258 . S
C19 O21 1.256 . S
O20 Cd12 2.381 . S
O20 C19 1.258 . S
O21 Cd12 2.378 . S
O21 C19 1.256 . S
O22 Cd23 2.300 . S
O22 C29 1.275 . S
Cd23 O22 2.300 . S
Cd23 O31 2.381 . S
Cd23 O32 2.378 . S
O24 Cd25 2.385 . S
O24 C29 1.255 . S
Cd25 O24 2.385 . S
Cd25 O26 2.317 . S
O26 Cd25 2.317 . S
O26 C27 1.232 . S
C27 O26 1.232 . S
C27 O28 1.218 . S
O28 C27 1.218 . S
C29 O22 1.275 . S
C29 O24 1.255 . S
C30 O31 1.258 . S
C30 O32 1.256 . S
O31 Cd23 2.381 . S
O31 C30 1.258 . S
O32 Cd23 2.378 . S
O32 C30 1.256 . S
O33 Cd34 2.300 . S
O33 C40 1.275 . S
Cd34 O33 2.300 . S
Cd34 O42 2.381 . S
Cd34 O43 2.378 . S
O35 Cd36 2.385 . S
O35 C40 1.255 . S
Cd36 O35 2.385 . S
Cd36 O37 2.317 . S
O37 Cd36 2.317 . S
O37 C38 1.232 . S
C38 O37 1.232 . S
C38 O39 1.218 . S
O39 C38 1.218 . S
C40 O33 1.275 . S
C40 O35 1.255 . S
C41 O42 1.258 . S
C41 O43 1.256 . S
O42 Cd34 2.381 . S
O42 C41 1.258 . S
O43 Cd34 2.378 . S
O43 C41 1.256 . S
Tb44 N73 2.617 . S
Tb44 N79 2.572 . S
Tb44 O88 2.465 . S
Tb44 O89 2.387 . S
Tb44 O91 2.428 . S
Tb44 O92 2.308 1_565 S
Tb44 O96 2.349 1_465 S
Tb44 O99 2.393 1_455 S
Tb44 C108 2.802 . S
C45 N46 1.379 . S
C45 C48 1.416 . S
C45 C52 1.424 . S
N46 C45 1.379 . S
N46 C49 1.334 1_655 S
N46 Tb55 2.617 . S
C47 C49 1.390 1_655 S
C47 C50 1.339 . S
C47 H67 0.930 1_655 S
C48 C45 1.416 . S
C48 C50 1.416 . S
C48 C54 1.448 . S
C49 N46 1.334 1_455 S
C49 C47 1.390 1_455 S
C49 H60 0.930 . S
C50 C47 1.339 . S
C50 C48 1.416 . S
C50 H71 0.930 . S
C51 C52 1.413 . S
C51 C53 1.427 . S
C51 C57 1.416 . S
C52 C45 1.424 . S
C52 C51 1.413 . S
C52 N56 1.361 . S
C53 C51 1.427 . S
C53 C54 1.328 . S
C53 H68 0.929 . S
C54 C48 1.448 . S
C54 C53 1.328 . S
C54 H69 0.930 . S
Tb55 N46 2.617 . S
Tb55 N56 2.572 . S
Tb55 O90 2.349 1_645 S
Tb55 O93 2.393 1_655 S
Tb55 O94 2.465 . S
Tb55 O95 2.387 . S
Tb55 O97 2.428 . S
Tb55 O98 2.308 1_545 S
Tb55 C119 2.802 . S
N56 C52 1.361 . S
N56 Tb55 2.572 . S
N56 C58 1.340 . S
C57 C51 1.416 . S
C57 C59 1.332 . S
C57 H65 0.931 . S
C58 N56 1.340 . S
C58 C59 1.407 . S
C58 H64 0.930 . S
C59 C57 1.332 . S
C59 C58 1.407 . S
C59 H61 0.929 . S
H60 C49 0.930 . S
H61 C59 0.929 . S
H62 C77 0.930 1_655 S
H63 C84 0.929 . S
H64 C58 0.930 . S
H65 C57 0.931 . S
H66 C80 0.930 . S
H67 C47 0.930 1_455 S
H68 C53 0.929 . S
H69 C54 0.930 . S
H70 C75 0.930 1_655 S
H71 C50 0.930 . S
H72 C83 0.931 . S
N73 Tb44 2.617 . S
N73 C74 1.379 . S
N73 C77 1.334 . S
C74 N73 1.379 . S
C74 C76 1.416 . S
C74 C82 1.424 . S
C75 H70 0.930 1_455 S
C75 C77 1.390 . S
C75 C78 1.339 . S
C76 C74 1.416 . S
C76 C78 1.416 . S
C76 C109 1.448 . S
C77 H62 0.930 1_455 S
C77 N73 1.334 . S
C77 C75 1.390 . S
C78 C75 1.339 . S
C78 C76 1.416 . S
C78 H85 0.930 . S
N79 Tb44 2.572 . S
N79 C80 1.340 . S
N79 C82 1.361 . S
C80 H66 0.930 . S
C80 N79 1.340 . S
C80 C84 1.407 . S
C81 C82 1.413 . S
C81 C83 1.416 . S
C81 C110 1.427 . S
C82 C74 1.424 . S
C82 N79 1.361 . S
C82 C81 1.413 . S
C83 H72 0.931 . S
C83 C81 1.416 . S
C83 C84 1.332 . S
C84 H63 0.929 . S
C84 C80 1.407 . S
C84 C83 1.332 . S
H85 C78 0.930 . S
H86 C109 0.930 . S
H87 C110 0.929 . S
O88 Tb44 2.465 . S
O88 C108 1.264 . S
O89 Tb44 2.387 . S
O89 C100 1.264 . S
O90 Tb55 2.349 1_465 S
O90 C100 1.243 . S
O91 Tb44 2.428 . S
O91 C108 1.256 . S
O92 Tb44 2.308 1_545 S
O92 C107 1.266 . S
O93 Tb55 2.393 1_455 S
O93 C107 1.248 . S
O94 Tb55 2.465 . S
O94 C119 1.264 . S
O95 Tb55 2.387 . S
O95 C111 1.264 . S
O96 Tb44 2.349 1_645 S
O96 C111 1.243 . S
O97 Tb55 2.428 . S
O97 C119 1.256 . S
O98 Tb55 2.308 1_565 S
O98 C118 1.266 . S
O99 Tb44 2.393 1_655 S
O99 C118 1.248 . S
C100 O89 1.264 . S
C100 O90 1.243 . S
C101 C104 1.399 . S
C101 C106 1.383 . S
C101 C108 1.496 . S
C102 C103 1.399 . S
C102 C106 1.389 . S
C103 C102 1.399 . S
C103 C105 1.380 . S
C103 H120 0.929 . S
C104 C101 1.399 . S
C104 C105 1.392 . S
C104 H121 0.929 . S
C105 C103 1.380 . S
C105 C104 1.392 . S
C105 H122 0.929 . S
C106 C101 1.383 . S
C106 C102 1.389 . S
C106 H123 0.931 . S
C107 O92 1.266 . S
C107 O93 1.248 . S
C108 Tb44 2.802 . S
C108 O88 1.264 . S
C108 O91 1.256 . S
C108 C101 1.496 . S
C109 C76 1.448 . S
C109 H86 0.930 . S
C109 C110 1.328 . S
C110 C81 1.427 . S
C110 H87 0.929 . S
C110 C109 1.328 . S
C111 O95 1.264 . S
C111 O96 1.243 . S
C112 C115 1.399 . S
C112 C116 1.383 . S
C112 C119 1.496 . S
C113 C114 1.399 . S
C113 C116 1.389 1_554 S
C114 C113 1.399 . S
C114 C117 1.380 1_554 S
C114 H124 0.929 . S
C115 C112 1.399 . S
C115 C117 1.392 . S
C115 H125 0.929 . S
C116 C112 1.383 . S
C116 C113 1.389 1_556 S
C116 H126 0.931 . S
C117 C114 1.380 1_556 S
C117 C115 1.392 . S
C117 H127 0.929 1_556 S
C118 O98 1.266 . S
C118 O99 1.248 . S
C119 Tb55 2.802 . S
C119 O94 1.264 . S
C119 O97 1.256 . S
C119 C112 1.496 . S
H120 C103 0.929 . S
H121 C104 0.929 . S
H122 C105 0.929 . S
H123 C106 0.931 . S
H124 C114 0.929 . S
H125 C115 0.929 . S
H126 C116 0.931 . S
H127 C117 0.929 1_554 S
Tb128 N157 2.617 . S
Tb128 N163 2.572 1_556 S
Tb128 O172 2.465 . S
Tb128 O173 2.387 1_556 S
Tb128 O175 2.428 . S
Tb128 O176 2.308 1_556 S
Tb128 O180 2.349 . S
Tb128 O183 2.393 . S
Tb128 C192 2.802 . S
C129 N130 1.379 . S
C129 C132 1.416 . S
C129 C136 1.424 . S
N130 C129 1.379 . S
N130 C133 1.334 . S
N130 Tb139 2.617 . S
C131 C133 1.390 . S
C131 C134 1.339 . S
C131 H151 0.930 . S
C132 C129 1.416 . S
C132 C134 1.416 . S
C132 C138 1.448 . S
C133 N130 1.334 . S
C133 C131 1.390 . S
C133 H144 0.930 . S
C134 C131 1.339 . S
C134 C132 1.416 . S
C134 H155 0.930 . S
C135 C136 1.413 . S
C135 C137 1.427 . S
C135 C141 1.416 . S
C136 C129 1.424 . S
C136 C135 1.413 . S
C136 N140 1.361 . S
C137 C135 1.427 . S
C137 C138 1.328 . S
C137 H152 0.929 . S
C138 C132 1.448 . S
C138 C137 1.328 . S
C138 H153 0.930 . S
Tb139 N130 2.617 . S
Tb139 N140 2.572 . S
Tb139 O174 2.349 . S
Tb139 O177 2.393 . S
Tb139 O178 2.465 . S
Tb139 O179 2.387 . S
Tb139 O181 2.428 . S
Tb139 O182 2.308 . S
Tb139 C203 2.802 . S
N140 C136 1.361 . S
N140 Tb139 2.572 . S
N140 C142 1.340 . S
C141 C135 1.416 . S
C141 C143 1.332 . S
C141 H149 0.931 1_554 S
C142 N140 1.340 . S
C142 C143 1.407 . S
C142 H148 0.930 . S
C143 C141 1.332 . S
C143 C142 1.407 . S
C143 H145 0.929 . S
H144 C133 0.930 . S
H145 C143 0.929 . S
H146 C161 0.930 . S
H147 C168 0.929 . S
H148 C142 0.930 . S
H149 C141 0.931 1_556 S
H150 C164 0.930 . S
H151 C131 0.930 . S
H152 C137 0.929 . S
H153 C138 0.930 . S
H154 C159 0.930 . S
H155 C134 0.930 . S
H156 C167 0.931 . S
N157 Tb128 2.617 . S
N157 C158 1.379 1_556 S
N157 C161 1.334 . S
C158 N157 1.379 1_554 S
C158 C160 1.416 . S
C158 C166 1.424 . S
C159 H154 0.930 . S
C159 C161 1.390 . S
C159 C162 1.339 . S
C160 C158 1.416 . S
C160 C162 1.416 1_554 S
C160 C193 1.448 . S
C161 H146 0.930 . S
C161 N157 1.334 . S
C161 C159 1.390 . S
C162 C159 1.339 . S
C162 C160 1.416 1_556 S
C162 H169 0.930 . S
N163 Tb128 2.572 1_554 S
N163 C164 1.340 . S
N163 C166 1.361 . S
C164 H150 0.930 . S
C164 N163 1.340 . S
C164 C168 1.407 . S
C165 C166 1.413 . S
C165 C167 1.416 . S
C165 C194 1.427 . S
C166 C158 1.424 . S
C166 N163 1.361 . S
C166 C165 1.413 . S
C167 H156 0.931 . S
C167 C165 1.416 . S
C167 C168 1.332 . S
C168 H147 0.929 . S
C168 C164 1.407 . S
C168 C167 1.332 . S
H169 C162 0.930 . S
H170 C193 0.930 . S
H171 C194 0.929 . S
O172 Tb128 2.465 . S
O172 C192 1.264 . S
O173 Tb128 2.387 1_554 S
O173 C184 1.264 . S
O174 Tb139 2.349 . S
O174 C184 1.243 . S
O175 Tb128 2.428 . S
O175 C192 1.256 . S
O176 Tb128 2.308 1_554 S
O176 C191 1.266 . S
O177 Tb139 2.393 . S
O177 C191 1.248 . S
O178 Tb139 2.465 . S
O178 C203 1.264 . S
O179 Tb139 2.387 . S
O179 C195 1.264 1_554 S
O180 Tb128 2.349 . S
O180 C195 1.243 . S
O181 Tb139 2.428 . S
O181 C203 1.256 . S
O182 Tb139 2.308 . S
O182 C202 1.266 . S
O183 Tb128 2.393 . S
O183 C202 1.248 1_556 S
C184 O173 1.264 . S
C184 O174 1.243 . S
C185 C188 1.399 . S
C185 C190 1.383 . S
C185 C192 1.496 . S
C186 C187 1.399 . S
C186 C190 1.389 . S
C187 C186 1.399 . S
C187 C189 1.380 . S
C187 H204 0.929 . S
C188 C185 1.399 . S
C188 C189 1.392 . S
C188 H205 0.929 . S
C189 C187 1.380 . S
C189 C188 1.392 . S
C189 H206 0.929 . S
C190 C185 1.383 . S
C190 C186 1.389 . S
C190 H207 0.931 . S
C191 O176 1.266 . S
C191 O177 1.248 . S
C192 Tb128 2.802 . S
C192 O172 1.264 . S
C192 O175 1.256 . S
C192 C185 1.496 . S
C193 C160 1.448 . S
C193 H170 0.930 . S
C193 C194 1.328 . S
C194 C165 1.427 . S
C194 H171 0.929 . S
C194 C193 1.328 . S
C195 O179 1.264 1_556 S
C195 O180 1.243 . S
C196 C199 1.399 . S
C196 C200 1.383 . S
C196 C203 1.496 . S
C197 C198 1.399 . S
C197 C200 1.389 . S
C198 C197 1.399 . S
C198 C201 1.380 . S
C198 H208 0.929 . S
C199 C196 1.399 . S
C199 C201 1.392 . S
C199 H209 0.929 . S
C200 C196 1.383 . S
C200 C197 1.389 . S
C200 H210 0.931 . S
C201 C198 1.380 . S
C201 C199 1.392 . S
C201 H211 0.929 . S
C202 O182 1.266 . S
C202 O183 1.248 1_554 S
C203 Tb139 2.802 . S
C203 O178 1.264 . S
C203 O181 1.256 . S
C203 C196 1.496 . S
H204 C187 0.929 . S
H205 C188 0.929 . S
H206 C189 0.929 . S
H207 C190 0.931 . S
H208 C198 0.929 . S
H209 C199 0.929 . S
H210 C200 0.931 . S
H211 C201 0.929 . S
C107 C41 1.655 . S
C8 C202 1.845 . S
C19 C118 2.218 . S
C30 C191 1.626 . S
C102 C5 1.499 . S
C195 C18 2.156 . S
C29 C111 1.859 . S
C40 C186 1.622 . S
C197 C16 1.097 . S
C113 C27 0.852 . S
C184 C38 1.216 . S
C7 C100 1.779 . S
