# Generated by pormake.
# Topology tsx, (6,3)-cn, num edge types: 1
# Building blocks:
#     Node 0, Type 0, BuildingBlock: CIFDUS_clean_sbu_1, # of connection points: 6
#     Node 1, Type 0, BuildingBlock: CIFDUS_clean_sbu_1, # of connection points: 6
#     Node 2, Type 1, BuildingBlock: OLANEW_clean_sbu_2, # of connection points: 3
#     Node 3, Type 1, BuildingBlock: OLANEW_clean_sbu_2, # of connection points: 3
#     Node 4, Type 1, BuildingBlock: OLANEW_clean_sbu_2, # of connection points: 3
#     Node 5, Type 1, BuildingBlock: OLANEW_clean_sbu_2, # of connection points: 3
#     Edge 6, Type (0, 1), None
#     Edge 7, Type (0, 1), None
#     Edge 8, Type (0, 1), None
#     Edge 9, Type (0, 1), None
#     Edge 10, Type (0, 1), None
#     Edge 11, Type (0, 1), None
#     Edge 12, Type (0, 1), None
#     Edge 13, Type (0, 1), None
#     Edge 14, Type (0, 1), None
#     Edge 15, Type (0, 1), None
#     Edge 16, Type (0, 1), None
#     Edge 17, Type (0, 1), None
# Relax obj value: 0.039
# Max RMSD: 0.096
# Mean RMSD: 0.048
data_MOF--net-tsx--node1-CIFDUS_clean_sbu_1--node2-OLANEW_clean_sbu_2--edge1-none
_symmetry_space_group_name_H-M    P1
_symmetry_Int_Tables_number       1
_symmetry_cell_setting            triclinic
loop_
_symmetry_equiv_pos_as_xyz
'x, y, z'
_cell_length_a     10.128324
_cell_length_b     11.584252
_cell_length_c     15.992647
_cell_angle_alpha  94.036088
_cell_angle_beta   94.447052
_cell_angle_gamma 91.375258
loop_
_atom_site_label
_atom_site_type_symbol
_atom_site_fract_x
_atom_site_fract_y
_atom_site_fract_z
_atom_type_partial_charge
O0 O 0.90877 0.16436 -0.0044 0.0
Mn1 Mn 0.04926 0.03499 -0.00043 0.0
O2 O 0.73222 0.08986 0.91146 0.0
Mn3 Mn 0.80839 0.95373 0.87198 0.0
O4 O 0.18327 0.90259 0.00202 0.0
O5 O 0.19243 0.15012 0.03262 0.0
Mn6 Mn 0.31835 0.10948 0.10467 0.0
O7 O 0.02276 0.01962 0.12621 0.0
O8 O 0.38449 0.97757 0.05003 0.0
O9 O 0.08909 0.05376 0.8763 0.0
O10 O 0.92577 0.97075 0.78782 0.0
O11 O 0.35127 0.26468 0.08063 0.0
O12 O 0.22092 0.07873 0.19497 0.0
C13 C 0.84067 0.82309 0.96324 0.0
C14 C 0.78971 0.17013 0.96144 0.0
C15 C 0.30876 0.89407 0.01672 0.0
C16 C 0.24161 0.25216 0.03374 0.0
C17 C 0.10032 0.04198 0.19371 0.0
C18 C 0.03961 0.02147 0.80214 0.0
O19 O 0.90679 0.91823 0.96205 0.0
O20 O 0.74941 0.8084 0.90209 0.0
O21 O 0.40877 0.66437 0.4956 0.0
Mn22 Mn 0.54926 0.535 0.49957 0.0
O23 O 0.23222 0.58986 0.41146 0.0
Mn24 Mn 0.30839 0.45373 0.37198 0.0
O25 O 0.68327 0.40259 0.50202 0.0
O26 O 0.69243 0.65012 0.53262 0.0
Mn27 Mn 0.81835 0.60949 0.60467 0.0
O28 O 0.52276 0.51962 0.62621 0.0
O29 O 0.88449 0.47757 0.55003 0.0
O30 O 0.58908 0.55376 0.3763 0.0
O31 O 0.42577 0.47075 0.28782 0.0
O32 O 0.85127 0.76469 0.58063 0.0
O33 O 0.72092 0.57874 0.69497 0.0
C34 C 0.34067 0.32309 0.46324 0.0
C35 C 0.2897 0.67014 0.46145 0.0
C36 C 0.80876 0.39407 0.51672 0.0
C37 C 0.74161 0.75216 0.53374 0.0
C38 C 0.60032 0.54198 0.69371 0.0
C39 C 0.5396 0.52148 0.30214 0.0
O40 O 0.40678 0.41823 0.46205 0.0
O41 O 0.24941 0.3084 0.40209 0.0
O42 O 0.12622 0.05295 0.3417 0.0
Cd43 Cd 0.08503 0.98481 0.47788 0.0
O44 O 0.9311 0.99514 0.28163 0.0
Cd45 Cd 0.86033 0.03984 0.40371 0.0
O46 O 0.78907 0.19757 0.46509 0.0
C47 C 0.86595 0.28316 0.49125 0.0
O48 O 0.99455 0.27441 0.48847 0.0
C49 C 0.04992 0.02815 0.27561 0.0
C50 C 0.21706 0.77705 0.47522 0.0
O51 O 0.09564 0.78166 0.44682 0.0
O52 O 0.27501 0.86957 0.51023 0.0
O53 O 0.2479 0.06095 0.75034 0.0
Cd54 Cd 0.40861 0.07249 0.64278 0.0
O55 O 0.08019 0.02709 0.65636 0.0
Cd56 Cd 0.87589 0.99369 0.60715 0.0
O57 O 0.70932 0.95123 0.51479 0.0
C58 C 0.67537 0.84672 0.4927 0.0
O59 O 0.57716 0.82415 0.43499 0.0
C60 C 0.12494 0.03777 0.73294 0.0
C61 C 0.36465 0.23819 0.52606 0.0
O62 O 0.30521 0.13882 0.5163 0.0
O63 O 0.44369 0.26134 0.59191 0.0
O64 O 0.62622 0.55295 0.8417 0.0
Cd65 Cd 0.58503 0.48481 0.97788 0.0
O66 O 0.4311 0.49514 0.78163 0.0
Cd67 Cd 0.36034 0.53984 0.90371 0.0
O68 O 0.28907 0.69756 0.96509 0.0
C69 C 0.36595 0.78316 -0.00875 0.0
O70 O 0.49455 0.77441 -0.01153 0.0
C71 C 0.54992 0.52815 0.77561 0.0
C72 C 0.71706 0.27705 0.97522 0.0
O73 O 0.59564 0.28166 0.94682 0.0
O74 O 0.77501 0.36956 0.01023 0.0
O75 O 0.7479 0.56095 0.25034 0.0
Cd76 Cd 0.9086 0.57249 0.14278 0.0
O77 O 0.58019 0.52709 0.15636 0.0
Cd78 Cd 0.37589 0.49369 0.10715 0.0
O79 O 0.20932 0.45123 0.01479 0.0
C80 C 0.17537 0.34672 -0.0073 0.0
O81 O 0.07716 0.32415 0.93499 0.0
C82 C 0.62493 0.53777 0.23294 0.0
C83 C 0.86465 0.73819 0.02606 0.0
O84 O 0.80521 0.63882 0.0163 0.0
O85 O 0.94369 0.76133 0.09191 0.0
loop_
_geom_bond_atom_site_label_1
_geom_bond_atom_site_label_2
_geom_bond_distance
_geom_bond_site_symmetry_2
_ccdc_geom_bond_type
O0 Mn1 2.163 1_655 S
O0 C14 1.244 . S
Mn1 O0 2.163 1_455 S
Mn1 O4 2.160 1_544 S
Mn1 O5 2.221 . S
Mn1 O7 2.163 1_545 S
Mn1 O9 2.160 1_544 S
Mn1 O19 2.221 1_444 S
O2 Mn3 2.087 1_545 S
O2 C14 1.256 1_556 S
Mn3 O2 2.087 1_565 S
Mn3 O10 2.089 1_565 S
Mn3 O19 2.290 . S
Mn3 O20 2.251 . S
O4 Mn1 2.160 1_566 S
O4 C15 1.239 1_556 S
O5 Mn1 2.221 . S
O5 Mn6 2.290 . S
O5 C16 1.278 . S
Mn6 O5 2.290 . S
Mn6 O8 2.089 1_545 S
Mn6 O11 2.251 . S
Mn6 O12 2.087 . S
O7 Mn1 2.163 1_565 S
O7 C17 1.244 1_565 S
O8 Mn6 2.089 1_565 S
O8 C15 1.256 . S
O9 Mn1 2.160 1_566 S
O9 C18 1.239 1_465 S
O10 Mn3 2.089 1_545 S
O10 C18 1.256 . S
O11 Mn6 2.251 . S
O11 C16 1.241 . S
O12 Mn6 2.087 . S
O12 C17 1.256 . S
C13 O19 1.278 1_554 S
C13 O20 1.241 1_554 S
C14 O0 1.244 . S
C14 O2 1.256 1_554 S
C15 O4 1.239 1_554 S
C15 O8 1.256 . S
C16 O5 1.278 . S
C16 O11 1.241 . S
C17 O7 1.244 1_545 S
C17 O12 1.256 . S
C18 O9 1.239 1_645 S
C18 O10 1.256 . S
O19 Mn1 2.221 1_666 S
O19 Mn3 2.290 . S
O19 C13 1.278 1_556 S
O20 Mn3 2.251 . S
O20 C13 1.241 1_556 S
O21 Mn22 2.163 . S
O21 C35 1.244 . S
Mn22 O21 2.163 . S
Mn22 O25 2.160 . S
Mn22 O26 2.221 . S
Mn22 O28 2.163 . S
Mn22 O30 2.160 . S
Mn22 O40 2.221 . S
O23 Mn24 2.087 . S
O23 C35 1.256 . S
Mn24 O23 2.087 . S
Mn24 O31 2.089 . S
Mn24 O40 2.290 . S
Mn24 O41 2.251 . S
O25 Mn22 2.160 . S
O25 C36 1.239 . S
O26 Mn22 2.221 . S
O26 Mn27 2.290 . S
O26 C37 1.278 . S
Mn27 O26 2.290 . S
Mn27 O29 2.089 . S
Mn27 O32 2.251 . S
Mn27 O33 2.087 . S
O28 Mn22 2.163 . S
O28 C38 1.244 . S
O29 Mn27 2.089 . S
O29 C36 1.256 . S
O30 Mn22 2.160 . S
O30 C39 1.239 . S
O31 Mn24 2.089 . S
O31 C39 1.256 . S
O32 Mn27 2.251 . S
O32 C37 1.241 . S
O33 Mn27 2.087 . S
O33 C38 1.256 . S
C34 O40 1.278 . S
C34 O41 1.241 . S
C35 O21 1.244 . S
C35 O23 1.256 . S
C36 O25 1.239 . S
C36 O29 1.256 . S
C37 O26 1.278 . S
C37 O32 1.241 . S
C38 O28 1.244 . S
C38 O33 1.256 . S
C39 O30 1.239 . S
C39 O31 1.256 . S
O40 Mn22 2.221 . S
O40 Mn24 2.290 . S
O40 C34 1.278 . S
O41 Mn24 2.251 . S
O41 C34 1.241 . S
O42 Cd43 2.300 . S
O42 C49 1.275 1_565 S
Cd43 O42 2.300 . S
Cd43 O51 2.381 . S
Cd43 O52 2.378 . S
O44 Cd45 2.385 . S
O44 C49 1.255 . S
Cd45 O44 2.385 . S
Cd45 O46 2.317 1_455 S
O46 Cd45 2.317 1_655 S
O46 C47 1.232 . S
C47 O46 1.232 . S
C47 O48 1.218 . S
O48 C47 1.218 . S
C49 O42 1.275 1_545 S
C49 O44 1.255 . S
C50 O51 1.258 . S
C50 O52 1.256 . S
O51 Cd43 2.381 . S
O51 C50 1.258 . S
O52 Cd43 2.378 . S
O52 C50 1.256 . S
O53 Cd54 2.300 . S
O53 C60 1.275 . S
Cd54 O53 2.300 . S
Cd54 O62 2.381 . S
Cd54 O63 2.378 . S
O55 Cd56 2.385 . S
O55 C60 1.255 1_565 S
Cd56 O55 2.385 . S
Cd56 O57 2.317 1_455 S
O57 Cd56 2.317 1_655 S
O57 C58 1.232 . S
C58 O57 1.232 . S
C58 O59 1.218 . S
O59 C58 1.218 . S
C60 O53 1.275 . S
C60 O55 1.255 1_545 S
C61 O62 1.258 . S
C61 O63 1.256 . S
O62 Cd54 2.381 . S
O62 C61 1.258 . S
O63 Cd54 2.378 . S
O63 C61 1.256 . S
O64 Cd65 2.300 . S
O64 C71 1.275 . S
Cd65 O64 2.300 . S
Cd65 O73 2.381 . S
Cd65 O74 2.378 1_556 S
O66 Cd67 2.385 . S
O66 C71 1.255 . S
Cd67 O66 2.385 . S
Cd67 O68 2.317 1_556 S
O68 Cd67 2.317 1_554 S
O68 C69 1.232 . S
C69 O68 1.232 . S
C69 O70 1.218 1_554 S
O70 C69 1.218 1_556 S
C71 O64 1.275 . S
C71 O66 1.255 . S
C72 O73 1.258 1_554 S
C72 O74 1.256 . S
O73 Cd65 2.381 . S
O73 C72 1.258 1_556 S
O74 Cd65 2.378 1_554 S
O74 C72 1.256 . S
O75 Cd76 2.300 . S
O75 C82 1.275 . S
Cd76 O75 2.300 . S
Cd76 O84 2.381 . S
Cd76 O85 2.378 1_554 S
O77 Cd78 2.385 . S
O77 C82 1.255 . S
Cd78 O77 2.385 . S
Cd78 O79 2.317 . S
O79 Cd78 2.317 . S
O79 C80 1.232 . S
C80 O79 1.232 . S
C80 O81 1.218 . S
O81 C80 1.218 . S
C82 O75 1.275 . S
C82 O77 1.255 . S
C83 O84 1.258 . S
C83 O85 1.256 1_554 S
O84 Cd76 2.381 . S
O84 C83 1.258 . S
O85 Cd76 2.378 1_556 S
O85 C83 1.256 1_556 S
C80 C16 0.940 . S
C15 C69 1.103 . S
C13 C83 1.221 . S
C14 C72 1.429 . S
C37 C58 0.940 . S
C36 C47 1.103 . S
C61 C34 1.221 . S
C50 C35 1.429 . S
C17 C49 1.437 . S
C18 C60 1.301 1_655 S
C71 C38 1.437 . S
C39 C82 1.301 . S
