# Generated by pormake.
# Topology rtl, (3,6)-cn, num edge types: 1
# Building blocks:
#     Node 0, Type 0, BuildingBlock: WUSLED_clean_sbu_0, # of connection points: 3
#     Node 1, Type 0, BuildingBlock: WUSLED_clean_sbu_0, # of connection points: 3
#     Node 2, Type 0, BuildingBlock: WUSLED_clean_sbu_0, # of connection points: 3
#     Node 3, Type 0, BuildingBlock: WUSLED_clean_sbu_0, # of connection points: 3
#     Node 4, Type 1, BuildingBlock: FUNLAD_clean_sbu_0, # of connection points: 6
#     Node 5, Type 1, BuildingBlock: FUNLAD_clean_sbu_0, # of connection points: 6
#     Edge 6, Type (0, 1), None
#     Edge 7, Type (0, 1), None
#     Edge 8, Type (0, 1), None
#     Edge 9, Type (0, 1), None
#     Edge 10, Type (0, 1), None
#     Edge 11, Type (0, 1), None
#     Edge 12, Type (0, 1), None
#     Edge 13, Type (0, 1), None
#     Edge 14, Type (0, 1), None
#     Edge 15, Type (0, 1), None
#     Edge 16, Type (0, 1), None
#     Edge 17, Type (0, 1), None
# Relax obj value: 0.021
# Max RMSD: 0.119
# Mean RMSD: 0.095
data_MOF--net-rtl--node1-WUSLED_clean_sbu_0--node2-FUNLAD_clean_sbu_0--edge1-none
_symmetry_space_group_name_H-M    P1
_symmetry_Int_Tables_number       1
_symmetry_cell_setting            triclinic
loop_
_symmetry_equiv_pos_as_xyz
'x, y, z'
_cell_length_a     31.568782
_cell_length_b     25.897476
_cell_length_c     16.891773
_cell_angle_alpha  90.407941
_cell_angle_beta   90.883093
_cell_angle_gamma 90.473449
loop_
_atom_site_label
_atom_site_type_symbol
_atom_site_fract_x
_atom_site_fract_y
_atom_site_fract_z
_atom_type_partial_charge
C0 C 0.14133 0.87119 0.23965 0.0
C1 C 0.10063 0.85296 0.25897 0.0
C2 C 0.09011 0.92715 0.34592 0.0
C3 C 0.07529 0.88066 0.3116 0.0
C4 C 0.1309 0.94499 0.32703 0.0
C5 C 0.15622 0.91726 0.27503 0.0
U6 U 0.17275 0.83934 0.0282 0.0
O7 O 0.23521 0.83515 0.97312 0.0
O8 O 0.193 0.7672 0.97063 0.0
C9 C 0.23069 0.786 0.95451 0.0
C10 C 0.16849 0.84299 0.18304 0.0
C11 C 0.26698 0.75229 0.97219 0.0
C12 C 0.33164 0.73189 0.04552 0.0
C13 C 0.29626 0.76343 0.03363 0.0
C14 C 0.30844 0.67749 0.93568 0.0
C15 C 0.33812 0.68856 0.99655 0.0
C16 C 0.27333 0.70905 0.92368 0.0
C17 C 0.10781 0.90376 0.86086 0.0
C18 C 0.1173 0.95683 0.74396 0.0
C19 C 0.05897 0.89569 0.74842 0.0
C20 C 0.07231 0.88037 0.8239 0.0
C21 C 0.0806 0.93519 0.70863 0.0
C22 C 0.13073 0.94137 0.81931 0.0
C23 C 0.1178 0.8926 0.94495 0.0
O24 O 0.15014 0.80637 0.13997 0.0
O25 O 0.19468 0.87183 0.14226 0.0
O26 O 0.15316 0.91249 0.97448 0.0
O27 O 0.11043 0.8452 0.96887 0.0
H28 H 0.08825 0.81734 0.23343 0.0
H29 H 0.04416 0.86565 0.32536 0.0
H30 H 0.14359 0.98036 0.35293 0.0
H31 H 0.18755 0.93211 0.26236 0.0
H32 H 0.3537 0.74115 0.09336 0.0
H33 H 0.29199 0.79662 0.07199 0.0
H34 H 0.31275 0.6449 0.89616 0.0
H35 H 0.25131 0.7 0.8756 0.0
H36 H 0.13471 0.98735 0.71493 0.0
H37 H 0.0305 0.8783 0.72304 0.0
H38 H 0.05379 0.85159 0.8546 0.0
H39 H 0.15814 0.9604 0.84603 0.0
C40 C 0.64486 0.6595 0.76309 0.0
C41 C 0.60247 0.67347 0.77582 0.0
C42 C 0.59557 0.60651 0.87567 0.0
C43 C 0.57812 0.64732 0.83178 0.0
C44 C 0.63824 0.59362 0.86432 0.0
C45 C 0.66261 0.62001 0.80913 0.0
U46 U 0.67093 0.68305 0.54606 0.0
O47 O 0.69363 0.75166 0.48312 0.0
O48 O 0.73263 0.68184 0.48679 0.0
C49 C 0.73028 0.73063 0.4665 0.0
C50 C 0.67088 0.68444 0.70145 0.0
C51 C 0.76857 0.76239 0.48252 0.0
C52 C 0.80496 0.83401 0.54907 0.0
C53 C 0.76908 0.80232 0.53927 0.0
C54 C 0.84082 0.78518 0.44771 0.0
C55 C 0.84108 0.82617 0.50276 0.0
C56 C 0.80487 0.75376 0.43758 0.0
C57 C 0.59995 0.61605 0.38688 0.0
C58 C 0.60991 0.56387 0.26824 0.0
C59 C 0.54804 0.61797 0.27864 0.0
C60 C 0.56207 0.63481 0.35357 0.0
C61 C 0.5714 0.58149 0.23586 0.0
C62 C 0.62405 0.58095 0.34281 0.0
C63 C 0.61185 0.62991 0.46963 0.0
O64 O 0.69421 0.65281 0.65972 0.0
O65 O 0.65268 0.72028 0.65811 0.0
O66 O 0.60729 0.67853 0.49056 0.0
O67 O 0.64667 0.60926 0.49852 0.0
H68 H 0.58783 0.70397 0.74178 0.0
H69 H 0.54535 0.65818 0.83915 0.0
H70 H 0.65281 0.56266 0.89753 0.0
H71 H 0.69529 0.6088 0.80139 0.0
H72 H 0.80437 0.86484 0.59271 0.0
H73 H 0.74161 0.80956 0.57521 0.0
H74 H 0.86791 0.77839 0.41058 0.0
H75 H 0.80512 0.72322 0.39341 0.0
H76 H 0.62878 0.53592 0.23672 0.0
H77 H 0.5182 0.63224 0.25549 0.0
H78 H 0.54267 0.66154 0.38642 0.0
H79 H 0.65335 0.56554 0.36657 0.0
C80 C 0.9023 0.15314 0.23576 0.0
C81 C 0.94335 0.17088 0.2563 0.0
C82 C 0.95355 0.09749 0.34396 0.0
C83 C 0.9687 0.14333 0.30994 0.0
C84 C 0.91244 0.08011 0.32371 0.0
C85 C 0.88711 0.10771 0.27077 0.0
U86 U 0.87028 0.18598 0.02353 0.0
O87 O 0.8072 0.18794 0.96629 0.0
O88 O 0.84764 0.25743 0.96823 0.0
C89 C 0.81016 0.23746 0.95067 0.0
C90 C 0.87493 0.18116 0.17843 0.0
C91 C 0.77304 0.26864 0.97135 0.0
C92 C 0.73824 0.33296 0.05275 0.0
C93 C 0.77349 0.30226 0.03698 0.0
C94 C 0.70136 0.29563 0.93899 0.0
C95 C 0.70186 0.33022 1.00357 0.0
C96 C 0.73662 0.26526 0.92305 0.0
C97 C 0.93564 0.12326 0.85698 0.0
C98 C 0.92587 0.07003 0.73858 0.0
C99 C 0.98519 0.1297 0.74843 0.0
C100 C 0.9717 0.14564 0.82308 0.0
C101 C 0.96316 0.09056 0.70646 0.0
C102 C 0.91227 0.08615 0.81307 0.0
C103 C 0.92575 0.13456 0.94073 0.0
O104 O 0.89275 0.21846 0.13781 0.0
O105 O 0.84925 0.15198 0.13507 0.0
O106 O 0.891 0.11361 0.96859 0.0
O107 O 0.93225 0.18225 0.96563 0.0
H108 H 0.95597 0.20598 0.231 0.0
H109 H 1.00011 0.15793 0.32469 0.0
H110 H 0.89952 0.04524 0.3493 0.0
H111 H 0.85551 0.09329 0.25708 0.0
H112 H 0.73944 0.35882 0.10342 0.0
H113 H 0.80116 0.30518 0.07554 0.0
H114 H 0.67412 0.29304 0.89933 0.0
H115 H 0.73567 0.23956 0.87213 0.0
H116 H 0.90811 0.03988 0.70773 0.0
H117 H 1.0141 0.14627 0.72551 0.0
H118 H 0.99054 0.174 0.8557 0.0
H119 H 0.88438 0.06793 0.83736 0.0
C120 C 0.39875 0.36358 0.2878 0.0
C121 C 0.44121 0.34982 0.27547 0.0
C122 C 0.44802 0.41658 0.17537 0.0
C123 C 0.46556 0.37598 0.21955 0.0
C124 C 0.40527 0.42923 0.18627 0.0
C125 C 0.3809 0.40282 0.24139 0.0
U126 U 0.37267 0.34039 0.50486 0.0
O127 O 0.31085 0.34172 0.56369 0.0
O128 O 0.34982 0.27187 0.56783 0.0
C129 C 0.31304 0.29284 0.58361 0.0
C130 C 0.37275 0.33877 0.3495 0.0
C131 C 0.27495 0.26121 0.56555 0.0
C132 C 0.23911 0.1911 0.49435 0.0
C133 C 0.27493 0.22247 0.5069 0.0
C134 C 0.20232 0.23796 0.59672 0.0
C135 C 0.20254 0.19815 0.5397 0.0
C136 C 0.23824 0.26903 0.60964 0.0
C137 C 0.44359 0.40735 0.66412 0.0
C138 C 0.43364 0.45959 0.78269 0.0
C139 C 0.49541 0.40532 0.77247 0.0
C140 C 0.48141 0.3885 0.69753 0.0
C141 C 0.47209 0.44186 0.81517 0.0
C142 C 0.41952 0.44253 0.70809 0.0
C143 C 0.43173 0.39349 0.58138 0.0
O144 O 0.39095 0.30299 0.39296 0.0
O145 O 0.34947 0.37052 0.39111 0.0
O146 O 0.39694 0.41416 0.55239 0.0
O147 O 0.43626 0.34484 0.56052 0.0
H148 H 0.45591 0.3195 0.30981 0.0
H149 H 0.4984 0.36531 0.21249 0.0
H150 H 0.39065 0.46003 0.15277 0.0
H151 H 0.34816 0.41385 0.24885 0.0
H152 H 0.24007 0.16117 0.44932 0.0
H153 H 0.30272 0.21597 0.47149 0.0
H154 H 0.17484 0.24406 0.63313 0.0
H155 H 0.23759 0.29871 0.65515 0.0
H156 H 0.41479 0.4876 0.81416 0.0
H157 H 0.52521 0.39097 0.79572 0.0
H158 H 0.50079 0.36172 0.66474 0.0
H159 H 0.39027 0.45802 0.68425 0.0
C160 C 0.06424 0.95656 0.40303 0.0
N161 N 0.09665 0.09481 0.52049 0.0
C162 C 0.13672 0.07582 0.51949 0.0
C163 C 0.17169 0.10909 0.52402 0.0
C164 C 0.16554 0.16257 0.53035 0.0
C165 C 0.12385 0.18125 0.53069 0.0
C166 C 0.08969 0.14653 0.52537 0.0
Zn167 Zn 0.0471 0.0429 0.51793 0.0
C168 C 0.97945 0.06824 0.40201 0.0
N169 N 0.94701 0.92997 0.5145 0.0
C170 C 0.95399 0.87823 0.51046 0.0
C171 C 0.90694 0.9489 0.51658 0.0
C172 C 0.87199 0.91552 0.5142 0.0
C173 C 0.87812 0.86198 0.50911 0.0
C174 C 0.91984 0.8434 0.50742 0.0
Zn175 Zn 0.9966 0.98194 0.51642 0.0
O176 O 0.07811 0.99944 0.43022 0.0
C177 C 0.06207 0.95808 0.63602 0.0
O178 O 0.0291 0.93888 0.42758 0.0
H179 H 0.90197 0.99013 0.5193 0.0
H180 H 0.14168 0.0346 0.51635 0.0
H181 H 0.98607 0.86395 0.50917 0.0
O182 O 0.07762 0.9996 0.60852 0.0
O183 O 0.02777 0.94 0.60628 0.0
H184 H 0.05761 0.16085 0.526 0.0
O185 O 0.9661 0.0253 0.60631 0.0
O186 O 1.01593 0.08487 0.60706 0.0
O187 O 0.96553 0.02551 0.42801 0.0
O188 O 1.0147 0.08594 0.42844 0.0
C189 C 0.98168 0.067 0.63492 0.0
H190 H 0.20323 0.09295 0.52477 0.0
H191 H 0.11772 0.22226 0.53494 0.0
H192 H 0.84043 0.93162 0.5144 0.0
H193 H 0.92601 0.80237 0.50413 0.0
C194 C 0.48887 0.46399 0.89059 0.0
N195 N 0.59685 0.43142 0.02921 0.0
C196 C 0.58956 0.38047 0.01364 0.0
C197 C 0.62342 0.34633 1.0072 0.0
C198 C 0.6652 0.36473 0.01706 0.0
C199 C 0.67166 0.41718 0.03564 0.0
C200 C 0.63691 0.44999 0.04125 0.0
Zn201 Zn 0.54735 0.48218 0.02767 0.0
C202 C 0.56928 0.5756 0.93013 0.0
N203 N 0.44587 0.59086 0.02017 0.0
C204 C 0.40675 0.56971 1.00715 0.0
C205 C 0.45114 0.64282 0.02889 0.0
C206 C 0.41619 0.67568 0.02317 0.0
C207 C 0.37558 0.65478 1.00803 0.0
C208 C 0.37116 0.60097 1.00097 0.0
Zn209 Zn 0.49611 0.54104 0.02357 0.0
O210 O 0.52183 0.44564 0.92378 0.0
C211 C 0.4743 0.44756 0.12108 0.0
O212 O 0.47156 0.50349 0.92063 0.0
H213 H 0.48251 0.65885 0.03917 0.0
H214 H 0.55748 0.36647 1.00443 0.0
H215 H 0.40309 0.52834 1.00063 0.0
O216 O 0.51092 0.43265 0.101 0.0
O217 O 0.46075 0.49072 0.09637 0.0
H218 H 0.64206 0.49067 0.05314 0.0
O219 O 0.52161 0.57775 0.12725 0.0
O220 O 0.57194 0.5197 0.13056 0.0
O221 O 0.5326 0.5905 0.95002 0.0
O222 O 0.58287 0.53251 0.95511 0.0
C223 C 0.55459 0.55931 0.16047 0.0
H224 H 0.61696 0.30605 0.99376 0.0
H225 H 0.7033 0.43317 0.04281 0.0
H226 H 0.42108 0.71701 0.02838 0.0
H227 H 0.34042 0.58309 0.99054 0.0
loop_
_geom_bond_atom_site_label_1
_geom_bond_atom_site_label_2
_geom_bond_distance
_geom_bond_site_symmetry_2
_ccdc_geom_bond_type
C0 C1 1.264 . S
C0 C5 1.479 . S
C0 C10 1.465 . S
C1 C0 1.264 . S
C1 C3 1.339 . S
C1 H28 0.931 . S
C2 C3 1.395 . S
C2 C4 1.320 . S
C3 C1 1.339 . S
C3 C2 1.395 . S
C3 H29 0.942 . S
C4 C2 1.320 . S
C4 C5 1.405 . S
C4 H30 0.930 . S
C5 C0 1.479 . S
C5 C4 1.405 . S
C5 H31 0.931 . S
U6 O7 2.454 . S
U6 O8 2.458 1_554 S
U6 C9 2.984 . S
U6 C10 2.847 . S
U6 C23 2.882 1_554 S
U6 O24 2.441 . S
U6 O25 2.420 . S
U6 O26 2.455 1_554 S
U6 O27 2.449 1_554 S
O7 U6 2.454 . S
O7 C9 1.353 . S
O8 U6 2.458 1_556 S
O8 C9 1.286 1_556 S
C9 U6 2.984 . S
C9 O7 1.353 . S
C9 O8 1.286 1_554 S
C9 C11 1.363 . S
C10 C0 1.465 . S
C10 U6 2.847 . S
C10 O24 1.249 . S
C10 O25 1.202 . S
C11 C9 1.363 . S
C11 C13 1.408 . S
C11 C16 1.342 1_554 S
C12 C13 1.310 . S
C12 C15 1.461 . S
C12 H32 0.932 . S
C13 C11 1.408 . S
C13 C12 1.310 . S
C13 H33 0.930 . S
C14 C15 1.474 1_556 S
C14 C16 1.285 . S
C14 H34 0.929 . S
C15 C12 1.461 . S
C15 C14 1.474 1_554 S
C16 C11 1.342 1_556 S
C16 C14 1.285 . S
C16 H35 0.930 . S
C17 C20 1.424 . S
C17 C22 1.245 . S
C17 C23 1.428 . S
C18 C21 1.260 . S
C18 C22 1.477 . S
C18 H36 0.932 . S
C19 C20 1.384 . S
C19 C21 1.479 . S
C19 H37 0.929 1_455 S
C20 C17 1.424 . S
C20 C19 1.384 . S
C20 H38 0.928 . S
C21 C18 1.260 . S
C21 C19 1.479 . S
C22 C17 1.245 . S
C22 C18 1.477 . S
C22 H39 0.932 . S
C23 U6 2.882 1_556 S
C23 C17 1.428 . S
C23 O26 1.301 . S
C23 O27 1.282 . S
O24 U6 2.441 . S
O24 C10 1.249 . S
O25 U6 2.420 . S
O25 C10 1.202 . S
O26 U6 2.455 1_556 S
O26 C23 1.301 . S
O27 U6 2.449 1_556 S
O27 C23 1.282 . S
H28 C1 0.931 . S
H29 C3 0.942 . S
H30 C4 0.930 . S
H31 C5 0.931 . S
H32 C12 0.932 . S
H33 C13 0.930 . S
H34 C14 0.929 . S
H35 C16 0.930 . S
H36 C18 0.932 . S
H37 C19 0.929 1_655 S
H38 C20 0.928 . S
H39 C22 0.932 . S
C40 C41 1.264 . S
C40 C45 1.479 . S
C40 C50 1.465 . S
C41 C40 1.264 . S
C41 C43 1.339 . S
C41 H68 0.931 . S
C42 C43 1.395 . S
C42 C44 1.320 . S
C43 C41 1.339 . S
C43 C42 1.395 . S
C43 H69 0.929 . S
C44 C42 1.320 . S
C44 C45 1.405 . S
C44 H70 0.930 . S
C45 C40 1.479 . S
C45 C44 1.405 . S
C45 H71 0.931 . S
U46 O47 2.454 . S
U46 O48 2.458 . S
U46 C49 2.984 . S
U46 C50 2.847 . S
U46 C63 2.882 . S
U46 O64 2.441 . S
U46 O65 2.420 . S
U46 O66 2.455 . S
U46 O67 2.449 . S
O47 U46 2.454 . S
O47 C49 1.353 . S
O48 U46 2.458 . S
O48 C49 1.286 . S
C49 U46 2.984 . S
C49 O47 1.353 . S
C49 O48 1.286 . S
C49 C51 1.363 . S
C50 C40 1.465 . S
C50 U46 2.847 . S
C50 O64 1.249 . S
C50 O65 1.202 . S
C51 C49 1.363 . S
C51 C53 1.408 . S
C51 C56 1.342 . S
C52 C53 1.310 . S
C52 C55 1.461 . S
C52 H72 0.932 . S
C53 C51 1.408 . S
C53 C52 1.310 . S
C53 H73 0.930 . S
C54 C55 1.474 . S
C54 C56 1.285 . S
C54 H74 0.929 . S
C55 C52 1.461 . S
C55 C54 1.474 . S
C56 C51 1.342 . S
C56 C54 1.285 . S
C56 H75 0.930 . S
C57 C60 1.424 . S
C57 C62 1.245 . S
C57 C63 1.428 . S
C58 C61 1.260 . S
C58 C62 1.477 . S
C58 H76 0.932 . S
C59 C60 1.384 . S
C59 C61 1.479 . S
C59 H77 0.929 . S
C60 C57 1.424 . S
C60 C59 1.384 . S
C60 H78 0.928 . S
C61 C58 1.260 . S
C61 C59 1.479 . S
C62 C57 1.245 . S
C62 C58 1.477 . S
C62 H79 0.932 . S
C63 U46 2.882 . S
C63 C57 1.428 . S
C63 O66 1.301 . S
C63 O67 1.282 . S
O64 U46 2.441 . S
O64 C50 1.249 . S
O65 U46 2.420 . S
O65 C50 1.202 . S
O66 U46 2.455 . S
O66 C63 1.301 . S
O67 U46 2.449 . S
O67 C63 1.282 . S
H68 C41 0.931 . S
H69 C43 0.929 . S
H70 C44 0.930 . S
H71 C45 0.931 . S
H72 C52 0.932 . S
H73 C53 0.930 . S
H74 C54 0.929 . S
H75 C56 0.930 . S
H76 C58 0.932 . S
H77 C59 0.929 . S
H78 C60 0.928 . S
H79 C62 0.932 . S
C80 C81 1.264 . S
C80 C85 1.479 . S
C80 C90 1.465 . S
C81 C80 1.264 . S
C81 C83 1.339 . S
C81 H108 0.931 . S
C82 C83 1.395 . S
C82 C84 1.320 . S
C83 C81 1.339 . S
C83 C82 1.395 . S
C83 H109 0.929 1_655 S
C84 C82 1.320 . S
C84 C85 1.405 . S
C84 H110 0.930 . S
C85 C80 1.479 . S
C85 C84 1.405 . S
C85 H111 0.931 . S
U86 O87 2.454 . S
U86 O88 2.458 1_554 S
U86 C89 2.984 . S
U86 C90 2.847 . S
U86 C103 2.882 1_554 S
U86 O104 2.441 . S
U86 O105 2.420 . S
U86 O106 2.455 1_554 S
U86 O107 2.449 1_554 S
O87 U86 2.454 . S
O87 C89 1.353 . S
O88 U86 2.458 1_556 S
O88 C89 1.286 1_556 S
C89 U86 2.984 . S
C89 O87 1.353 . S
C89 O88 1.286 1_554 S
C89 C91 1.363 . S
C90 C80 1.465 . S
C90 U86 2.847 . S
C90 O104 1.249 . S
C90 O105 1.202 . S
C91 C89 1.363 . S
C91 C93 1.408 . S
C91 C96 1.342 1_554 S
C92 C93 1.310 . S
C92 C95 1.461 . S
C92 H112 0.932 . S
C93 C91 1.408 . S
C93 C92 1.310 . S
C93 H113 0.930 . S
C94 C95 1.474 1_556 S
C94 C96 1.285 . S
C94 H114 0.929 . S
C95 C92 1.461 . S
C95 C94 1.474 1_554 S
C96 C91 1.342 1_556 S
C96 C94 1.285 . S
C96 H115 0.930 . S
C97 C100 1.424 . S
C97 C102 1.245 . S
C97 C103 1.428 . S
C98 C101 1.260 . S
C98 C102 1.477 . S
C98 H116 0.932 . S
C99 C100 1.384 . S
C99 C101 1.479 . S
C99 H117 0.929 1_655 S
C100 C97 1.424 . S
C100 C99 1.384 . S
C100 H118 0.928 . S
C101 C98 1.260 . S
C101 C99 1.479 . S
C102 C97 1.245 . S
C102 C98 1.477 . S
C102 H119 0.932 . S
C103 U86 2.882 1_556 S
C103 C97 1.428 . S
C103 O106 1.301 . S
C103 O107 1.282 . S
O104 U86 2.441 . S
O104 C90 1.249 . S
O105 U86 2.420 . S
O105 C90 1.202 . S
O106 U86 2.455 1_556 S
O106 C103 1.301 . S
O107 U86 2.449 1_556 S
O107 C103 1.282 . S
H108 C81 0.931 . S
H109 C83 0.929 1_455 S
H110 C84 0.930 . S
H111 C85 0.931 . S
H112 C92 0.932 . S
H113 C93 0.930 . S
H114 C94 0.929 . S
H115 C96 0.930 . S
H116 C98 0.932 . S
H117 C99 0.929 1_455 S
H118 C100 0.928 . S
H119 C102 0.932 . S
C120 C121 1.264 . S
C120 C125 1.479 . S
C120 C130 1.465 . S
C121 C120 1.264 . S
C121 C123 1.339 . S
C121 H148 0.931 . S
C122 C123 1.395 . S
C122 C124 1.320 . S
C123 C121 1.339 . S
C123 C122 1.395 . S
C123 H149 0.929 . S
C124 C122 1.320 . S
C124 C125 1.405 . S
C124 H150 0.930 . S
C125 C120 1.479 . S
C125 C124 1.405 . S
C125 H151 0.931 . S
U126 O127 2.454 . S
U126 O128 2.458 . S
U126 C129 2.984 . S
U126 C130 2.847 . S
U126 C143 2.882 . S
U126 O144 2.441 . S
U126 O145 2.420 . S
U126 O146 2.455 . S
U126 O147 2.449 . S
O127 U126 2.454 . S
O127 C129 1.353 . S
O128 U126 2.458 . S
O128 C129 1.286 . S
C129 U126 2.984 . S
C129 O127 1.353 . S
C129 O128 1.286 . S
C129 C131 1.363 . S
C130 C120 1.465 . S
C130 U126 2.847 . S
C130 O144 1.249 . S
C130 O145 1.202 . S
C131 C129 1.363 . S
C131 C133 1.408 . S
C131 C136 1.342 . S
C132 C133 1.310 . S
C132 C135 1.461 . S
C132 H152 0.932 . S
C133 C131 1.408 . S
C133 C132 1.310 . S
C133 H153 0.930 . S
C134 C135 1.474 . S
C134 C136 1.285 . S
C134 H154 0.929 . S
C135 C132 1.461 . S
C135 C134 1.474 . S
C136 C131 1.342 . S
C136 C134 1.285 . S
C136 H155 0.930 . S
C137 C140 1.424 . S
C137 C142 1.245 . S
C137 C143 1.428 . S
C138 C141 1.260 . S
C138 C142 1.477 . S
C138 H156 0.932 . S
C139 C140 1.384 . S
C139 C141 1.479 . S
C139 H157 0.929 . S
C140 C137 1.424 . S
C140 C139 1.384 . S
C140 H158 0.928 . S
C141 C138 1.260 . S
C141 C139 1.479 . S
C142 C137 1.245 . S
C142 C138 1.477 . S
C142 H159 0.932 . S
C143 U126 2.882 . S
C143 C137 1.428 . S
C143 O146 1.301 . S
C143 O147 1.282 . S
O144 U126 2.441 . S
O144 C130 1.249 . S
O145 U126 2.420 . S
O145 C130 1.202 . S
O146 U126 2.455 . S
O146 C143 1.301 . S
O147 U126 2.449 . S
O147 C143 1.282 . S
H148 C121 0.931 . S
H149 C123 0.929 . S
H150 C124 0.930 . S
H151 C125 0.931 . S
H152 C132 0.932 . S
H153 C133 0.930 . S
H154 C134 0.929 . S
H155 C136 0.930 . S
H156 C138 0.932 . S
H157 C139 0.929 . S
H158 C140 0.928 . S
H159 C142 0.932 . S
C160 O176 1.251 . S
C160 O178 1.254 1_455 S
N161 C162 1.333 . S
N161 C166 1.307 . S
N161 Zn167 2.020 . S
C162 N161 1.333 . S
C162 C163 1.379 . S
C162 H180 0.952 . S
C163 C162 1.379 . S
C163 C164 1.390 . S
C163 H190 0.949 . S
C164 C163 1.390 . S
C164 C165 1.357 . S
C165 C164 1.357 . S
C165 C166 1.370 . S
C165 H191 0.950 . S
C166 N161 1.307 . S
C166 C165 1.370 . S
C166 H184 0.948 . S
Zn167 N161 2.020 . S
Zn167 O176 2.039 1_545 S
Zn167 O182 2.034 1_545 S
Zn167 O186 2.025 . S
Zn167 O188 2.024 . S
C168 O187 1.246 . S
C168 O188 1.249 1_655 S
N169 C170 1.307 . S
N169 C171 1.333 . S
N169 Zn175 2.020 . S
C170 N169 1.307 . S
C170 C174 1.370 . S
C170 H181 0.948 . S
C171 N169 1.333 . S
C171 C172 1.379 . S
C171 H179 0.952 . S
C172 C171 1.379 . S
C172 C173 1.390 . S
C172 H192 0.949 . S
C173 C172 1.390 . S
C173 C174 1.357 . S
C174 C170 1.370 . S
C174 C173 1.357 . S
C174 H193 0.950 . S
Zn175 N169 2.020 . S
Zn175 O178 2.025 . S
Zn175 O183 2.024 . S
Zn175 O185 2.039 1_565 S
Zn175 O187 2.034 1_565 S
O176 C160 1.251 . S
O176 Zn167 2.039 1_565 S
C177 O182 1.246 . S
C177 O183 1.249 1_455 S
O178 C160 1.254 1_655 S
O178 Zn175 2.025 . S
H179 C171 0.952 . S
H180 C162 0.952 . S
H181 C170 0.948 . S
O182 Zn167 2.034 1_565 S
O182 C177 1.246 . S
O183 Zn175 2.024 . S
O183 C177 1.249 1_655 S
H184 C166 0.948 . S
O185 Zn175 2.039 1_545 S
O185 C189 1.251 . S
O186 Zn167 2.025 . S
O186 C189 1.254 1_455 S
O187 C168 1.246 . S
O187 Zn175 2.034 1_545 S
O188 Zn167 2.024 . S
O188 C168 1.249 1_455 S
C189 O185 1.251 . S
C189 O186 1.254 1_655 S
H190 C163 0.949 . S
H191 C165 0.950 . S
H192 C172 0.949 . S
H193 C174 0.950 . S
C194 O210 1.251 . S
C194 O212 1.254 . S
N195 C196 1.333 1_554 S
N195 C200 1.307 . S
N195 Zn201 2.020 . S
C196 N195 1.333 1_556 S
C196 C197 1.379 . S
C196 H214 0.952 . S
C197 C196 1.379 . S
C197 C198 1.390 1_556 S
C197 H224 0.949 . S
C198 C197 1.390 1_554 S
C198 C199 1.357 . S
C199 C198 1.357 . S
C199 C200 1.370 . S
C199 H225 0.950 . S
C200 N195 1.307 . S
C200 C199 1.370 . S
C200 H218 0.948 . S
Zn201 N195 2.020 . S
Zn201 O210 2.039 1_554 S
Zn201 O216 2.034 . S
Zn201 O220 2.025 . S
Zn201 O222 2.024 1_554 S
C202 O221 1.246 . S
C202 O222 1.249 . S
N203 C204 1.307 1_554 S
N203 C205 1.333 . S
N203 Zn209 2.020 . S
C204 N203 1.307 1_556 S
C204 C208 1.370 . S
C204 H215 0.948 . S
C205 N203 1.333 . S
C205 C206 1.379 . S
C205 H213 0.952 . S
C206 C205 1.379 . S
C206 C207 1.390 . S
C206 H226 0.949 . S
C207 C206 1.390 . S
C207 C208 1.357 1_554 S
C208 C204 1.370 . S
C208 C207 1.357 1_556 S
C208 H227 0.950 . S
Zn209 N203 2.020 . S
Zn209 O212 2.025 1_554 S
Zn209 O217 2.024 . S
Zn209 O219 2.039 . S
Zn209 O221 2.034 1_554 S
O210 C194 1.251 . S
O210 Zn201 2.039 1_556 S
C211 O216 1.246 . S
C211 O217 1.249 . S
O212 C194 1.254 . S
O212 Zn209 2.025 1_556 S
H213 C205 0.952 . S
H214 C196 0.952 . S
H215 C204 0.948 . S
O216 Zn201 2.034 . S
O216 C211 1.246 . S
O217 Zn209 2.024 . S
O217 C211 1.249 . S
H218 C200 0.948 . S
O219 Zn209 2.039 . S
O219 C223 1.251 . S
O220 Zn201 2.025 . S
O220 C223 1.254 . S
O221 C202 1.246 . S
O221 Zn209 2.034 1_556 S
O222 Zn201 2.024 1_556 S
O222 C202 1.249 . S
C223 O219 1.251 . S
C223 O220 1.254 . S
H224 C197 0.949 . S
H225 C199 0.950 . S
H226 C206 0.949 . S
H227 C208 0.950 . S
C164 C135 2.223 . S
C15 C207 1.939 . S
C55 C173 2.246 . S
C95 C198 1.948 . S
C160 C2 2.168 . S
C202 C42 2.783 . S
C82 C168 2.095 . S
C141 C194 2.429 . S
C223 C61 2.768 . S
C189 C101 2.190 . S
C211 C122 2.513 . S
C21 C177 2.120 . S
