# Generated by pormake.
# Topology scu, (8,4)-cn, num edge types: 1
# Building blocks:
#     Node 0, Type 0, BuildingBlock: VETTIZ_charged_sbu_0, # of connection points: 8
#     Node 1, Type 1, BuildingBlock: NAWXER_clean_sbu_0, # of connection points: 4
#     Node 2, Type 1, BuildingBlock: NAWXER_clean_sbu_0, # of connection points: 4
#     Edge 3, Type (0, 1), BuildingBlock: FUNLAD_clean_linker_0, # of connection points: 2
#     Edge 4, Type (0, 1), BuildingBlock: FUNLAD_clean_linker_0, # of connection points: 2
#     Edge 5, Type (0, 1), BuildingBlock: FUNLAD_clean_linker_0, # of connection points: 2
#     Edge 6, Type (0, 1), BuildingBlock: FUNLAD_clean_linker_0, # of connection points: 2
#     Edge 7, Type (0, 1), BuildingBlock: FUNLAD_clean_linker_0, # of connection points: 2
#     Edge 8, Type (0, 1), BuildingBlock: FUNLAD_clean_linker_0, # of connection points: 2
#     Edge 9, Type (0, 1), BuildingBlock: FUNLAD_clean_linker_0, # of connection points: 2
#     Edge 10, Type (0, 1), BuildingBlock: FUNLAD_clean_linker_0, # of connection points: 2
# Relax obj value: 0.013
# Max RMSD: 0.059
# Mean RMSD: 0.052
data_MOF--net-scu--node1-VETTIZ_charged_sbu_0--node2-NAWXER_clean_sbu_0--edge1-FUNLAD_clean_linker_0
_symmetry_space_group_name_H-M    P1
_symmetry_Int_Tables_number       1
_symmetry_cell_setting            triclinic
loop_
_symmetry_equiv_pos_as_xyz
'x, y, z'
_cell_length_a     29.133362
_cell_length_b     29.140134
_cell_length_c     21.865249
_cell_angle_alpha  89.222841
_cell_angle_beta   89.498177
_cell_angle_gamma 92.11768
loop_
_atom_site_label
_atom_site_type_symbol
_atom_site_fract_x
_atom_site_fract_y
_atom_site_fract_z
_atom_type_partial_charge
Fe0 Fe 0.03014 0.03513 0.15074 0.0
O1 O 0.02514 0.03216 0.06123 0.0
Fe2 Fe 0.04257 0.97102 1.0182 0.0
Fe3 Fe 0.96618 0.04272 1.01811 0.0
O4 O 0.0281 0.02865 0.06174 0.0
O5 O 0.9839 0.98196 0.97465 0.0
O6 O 0.98011 0.98461 0.97525 0.0
Fe7 Fe 0.97715 0.97936 0.88579 0.0
C8 C 0.92619 0.01801 0.13913 0.0
O9 O 0.02637 0.10393 0.13055 0.0
O10 O 0.962 0.10431 0.06885 0.0
O11 O 0.0469 0.98698 0.86801 0.0
O12 O 0.08034 0.00946 0.95474 0.0
O13 O 0.10258 0.96679 0.07067 0.0
O14 O 0.09968 0.0283 0.13567 0.0
O15 O 1.00074 0.08176 0.95233 0.0
O16 O 0.97121 0.04896 0.8699 0.0
C17 C 0.12103 0.99543 0.10943 0.0
O18 O 0.98823 0.9104 0.9012 0.0
O19 O 0.05038 0.91177 0.96579 0.0
O20 O 0.96015 0.03709 0.16625 0.0
O21 O 0.92916 0.00585 0.08374 0.0
C22 C 0.9932 0.12448 0.10322 0.0
C23 C 0.9882 0.08396 0.89691 0.0
C24 C 0.88576 0.01135 0.93291 0.0
O25 O 0.90431 0.04347 0.96722 0.0
O26 O 0.90809 0.97933 0.90595 0.0
C27 C 0.08044 0.00572 0.89678 0.0
O28 O 0.00624 0.9311 0.08136 0.0
O29 O 0.02627 0.96511 0.1686 0.0
C30 C 0.02306 0.89155 0.92682 0.0
C31 C 0.00905 0.93106 0.13941 0.0
C32 C 0.0392 0.55479 0.60819 0.0
C33 C 0.03004 0.46027 0.42361 0.0
O34 O 0.07345 0.54119 0.57762 0.0
Zn35 Zn 0.03767 0.50852 0.51552 0.0
O36 O 0.99828 0.54473 0.59036 0.0
Zn37 Zn 0.96341 0.5089 0.51841 0.0
O38 O 0.92956 0.46057 0.56481 0.0
O39 O 0.00483 0.45485 0.56863 0.0
O40 O 0.99096 0.47118 0.44507 0.0
O41 O 0.06655 0.47463 0.4499 0.0
O42 O 0.00834 0.56478 0.46963 0.0
O43 O 0.93269 0.55866 0.47571 0.0
C44 C 0.96446 0.43988 0.58425 0.0
C45 C 0.96898 0.58067 0.45763 0.0
C46 C 0.55016 0.96872 0.61037 0.0
C47 C 0.45228 0.95143 0.42985 0.0
O48 O 0.5352 0.93132 0.58716 0.0
Zn49 Zn 0.50037 0.95778 0.5206 0.0
O50 O 0.53876 0.00699 0.5865 0.0
Zn51 Zn 0.49893 0.03133 0.51227 0.0
O52 O 0.44998 0.06341 0.55396 0.0
O53 O 0.4446 0.98813 0.56617 0.0
O54 O 0.46203 0.99329 0.44366 0.0
O55 O 0.4671 0.91895 0.46289 0.0
O56 O 0.55318 0.98933 0.46404 0.0
O57 O 0.5456 0.06445 0.46296 0.0
C58 C 0.4287 0.02781 0.57567 0.0
C59 C 0.567 0.0295 0.44564 0.0
C60 C 0.03147 0.20074 0.11955 0.0
C61 C 0.99056 0.17385 0.11642 0.0
C62 C 0.0318 0.24438 0.14508 0.0
C63 C 0.99123 0.26179 0.16949 0.0
C64 C 0.94966 0.23633 0.16181 0.0
C65 C 0.94927 0.19268 0.13542 0.0
C66 C 0.99127 0.3049 0.20572 0.0
C67 C 0.02878 0.32196 0.23515 0.0
C68 C 0.02908 0.36105 0.27886 0.0
C69 C 0.06977 0.37166 0.31093 0.0
C70 C 0.07096 0.4052 0.35628 0.0
C71 C 0.0313 0.42883 0.37085 0.0
H72 H 0.9581 0.38071 0.26772 0.0
C73 C 0.99117 0.41972 0.33709 0.0
C74 C 0.99004 0.3865 0.29155 0.0
H75 H 0.96008 0.43773 0.34662 0.0
H76 H 0.06371 0.18718 0.1043 0.0
H77 H 0.06421 0.2636 0.14695 0.0
H78 H 0.91771 0.24915 0.17918 0.0
H79 H 0.91731 0.17253 0.13375 0.0
H80 H 0.95833 0.32027 0.21207 0.0
H81 H 0.06088 0.30457 0.23063 0.0
H82 H 0.10059 0.35303 0.30208 0.0
H83 H 0.10244 0.41139 0.38134 0.0
C84 C 0.87545 0.0348 0.22863 0.0
C85 C 0.88097 0.01469 0.171 0.0
C86 C 0.83241 0.03457 0.25731 0.0
C87 C 0.79373 0.01416 0.22908 0.0
C88 C 0.79939 0.99299 0.1723 0.0
C89 C 0.84244 0.99354 0.14328 0.0
C90 C 0.7477 0.01232 0.25917 0.0
C91 C 0.734 0.04393 0.29936 0.0
C92 C 0.68944 0.04013 0.33325 0.0
C93 C 0.67028 0.07987 0.35688 0.0
C94 C 0.62985 0.07693 0.39222 0.0
C95 C 0.60819 0.03401 0.40536 0.0
H96 H 0.68158 0.9657 0.3303 0.0
C97 C 0.62727 0.99435 0.38133 0.0
C98 C 0.66734 0.9973 0.34589 0.0
H99 H 0.61162 0.96065 0.39062 0.0
H100 H 0.90434 0.05125 0.25154 0.0
H101 H 0.8298 0.04983 0.302 0.0
H102 H 0.77029 0.97645 0.14993 0.0
H103 H 0.84541 0.97767 0.09897 0.0
H104 H 0.72404 0.98451 0.24634 0.0
H105 H 0.75589 0.07419 0.30741 0.0
H106 H 0.68683 0.11328 0.34836 0.0
H107 H 0.61618 0.1081 0.41025 0.0
C108 C 0.99096 0.88999 0.23879 0.0
C109 C 0.99287 0.88947 0.17452 0.0
C110 C 0.97731 0.85055 0.27223 0.0
C111 C 0.96568 0.80932 0.24226 0.0
C112 C 0.96571 0.80927 0.17804 0.0
C113 C 0.97927 0.84883 0.14447 0.0
C114 C 0.95492 0.76568 0.27669 0.0
C115 C 0.97385 0.75665 0.33134 0.0
C116 C 0.96997 0.71137 0.36334 0.0
C117 C 0.00653 0.6989 0.40048 0.0
C118 C 0.0056 0.65659 0.43083 0.0
C119 C 0.96757 0.62581 0.42599 0.0
H120 H 0.90217 0.69003 0.33145 0.0
C121 C 0.93006 0.63859 0.39037 0.0
C122 C 0.93139 0.68098 0.35875 0.0
H123 H 0.90026 0.61556 0.38606 0.0
H124 H 1.00021 0.92088 0.26352 0.0
H125 H 0.97602 0.85257 0.32159 0.0
H126 H 0.95647 0.77817 0.15372 0.0
H127 H 0.97986 0.84725 0.095 0.0
H128 H 0.93496 0.73886 0.25387 0.0
H129 H 0.99742 0.78203 0.35101 0.0
H130 H 0.03648 0.72172 0.40528 0.0
H131 H 0.03486 0.6481 0.4585 0.0
C132 C 0.18821 0.94576 0.13089 0.0
C133 C 0.16913 0.98939 0.1285 0.0
C134 C 0.23137 0.93994 0.15747 0.0
C135 C 0.25626 0.97785 0.18155 0.0
C136 C 0.23813 0.02164 0.17569 0.0
C137 C 0.19505 0.02731 0.15002 0.0
C138 C 0.30051 0.974 0.21451 0.0
C139 C 0.31436 0.93555 0.24303 0.0
C140 C 0.35443 0.93584 0.28526 0.0
C141 C 0.35587 0.90251 0.33235 0.0
C142 C 0.3895 0.90564 0.37782 0.0
C143 C 0.42206 0.9424 0.37709 0.0
H144 H 0.39163 0.99518 0.24491 0.0
C145 C 0.42261 0.97379 0.3278 0.0
C146 C 0.3897 0.9702 0.28195 0.0
H147 H 0.44799 1.00191 0.32542 0.0
H148 H 0.16903 0.91589 0.11456 0.0
H149 H 0.24473 0.90582 0.15957 0.0
H150 H 0.25665 0.05158 0.19305 0.0
H151 H 0.1816 0.06147 0.14824 0.0
H152 H 0.31992 0.00603 0.22093 0.0
H153 H 0.29307 0.90426 0.24102 0.0
H154 H 0.32965 0.87523 0.33566 0.0
H155 H 0.38839 0.88089 0.41527 0.0
C156 C 0.9998 0.81721 0.87823 0.0
C157 C 0.03402 0.84502 0.90566 0.0
C158 C 0.01073 0.77619 0.85034 0.0
C159 C 0.05632 0.76174 0.84913 0.0
C160 C 0.09041 0.78888 0.8779 0.0
C161 C 0.07933 0.82989 0.9065 0.0
C162 C 0.06933 0.72104 0.81312 0.0
C163 C 0.03976 0.6851 0.80426 0.0
C164 C 0.04574 0.64788 0.75894 0.0
C165 C 0.01004 0.61444 0.75444 0.0
C166 C 0.00944 0.58291 0.70711 0.0
C167 C 0.04486 0.58348 0.66313 0.0
H168 H 0.11104 0.67187 0.71825 0.0
C169 C 0.08234 0.61473 0.66949 0.0
C170 C 0.08271 0.64694 0.71678 0.0
H171 H 0.11005 0.61596 0.63609 0.0
H172 H 0.96458 0.82785 0.87659 0.0
H173 H 0.98361 0.75714 0.82718 0.0
H174 H 0.12584 0.77885 0.87714 0.0
H175 H 0.1066 0.85075 0.92667 0.0
H176 H 0.10326 0.72192 0.79229 0.0
H177 H 0.0075 0.684 0.82967 0.0
H178 H 0.98122 0.61391 0.78616 0.0
H179 H 0.98029 0.55889 0.70384 0.0
C180 C 0.12144 0.02114 0.79694 0.0
C181 C 0.12188 0.02155 0.86125 0.0
C182 C 0.16108 0.03292 0.76305 0.0
C183 C 0.2024 0.04504 0.7926 0.0
C184 C 0.20235 0.04779 0.85668 0.0
C185 C 0.16257 0.03601 0.89074 0.0
C186 C 0.2462 0.0531 0.75776 0.0
C187 C 0.25513 0.02992 0.70636 0.0
C188 C 0.30017 0.0316 0.67394 0.0
C189 C 0.31274 0.99236 0.64249 0.0
C190 C 0.35447 0.9916 0.61111 0.0
C191 C 0.3845 0.03047 0.60914 0.0
H192 H 0.32076 0.10198 0.69491 0.0
C193 C 0.3717 0.07037 0.63941 0.0
C194 C 0.32994 0.07084 0.67209 0.0
H195 H 0.39413 0.10086 0.63848 0.0
H196 H 0.09055 0.01114 0.77253 0.0
H197 H 0.15928 0.03212 0.71365 0.0
H198 H 0.23356 0.05752 0.88058 0.0
H199 H 0.16408 0.03716 0.94018 0.0
H200 H 0.27305 0.07471 0.77793 0.0
H201 H 0.22967 0.00487 0.69014 0.0
H202 H 0.29036 0.9618 0.64274 0.0
H203 H 0.36298 0.96043 0.58776 0.0
C204 C 0.96846 0.13329 0.80678 0.0
C205 C 0.9885 0.1292 0.86485 0.0
C206 C 0.96598 0.17612 0.77773 0.0
C207 C 0.98352 0.21602 0.80607 0.0
C208 C 0.00444 0.21186 0.86344 0.0
C209 C 0.00663 0.16901 0.89278 0.0
C210 C 0.98311 0.26187 0.77539 0.0
C211 C 0.95216 0.27338 0.73272 0.0
C212 C 0.95496 0.3177 0.69794 0.0
C213 C 0.9152 0.335 0.67138 0.0
C214 C 0.9176 0.3753 0.6354 0.0
C215 C 0.96004 0.3986 0.6246 0.0
H216 H 0.02894 0.32859 0.70516 0.0
C217 C 0.99967 0.38126 0.65145 0.0
C218 C 0.99724 0.34139 0.68741 0.0
H219 H 0.03304 0.39817 0.64408 0.0
H220 H 0.95426 0.1034 0.78372 0.0
H221 H 0.95103 0.17761 0.73266 0.0
H222 H 0.01881 0.24195 0.88593 0.0
H223 H 0.0223 0.16718 0.93745 0.0
H224 H 0.00897 0.28724 0.78954 0.0
H225 H 0.9235 0.2498 0.72298 0.0
H226 H 0.88223 0.31714 0.67817 0.0
H227 H 0.88649 0.38763 0.61517 0.0
C228 C 0.81175 0.96964 0.9123 0.0
C229 C 0.8362 0.01168 0.91927 0.0
C230 C 0.76785 0.96817 0.88728 0.0
C231 C 0.74765 0.00879 0.86736 0.0
C232 C 0.77064 0.05112 0.87891 0.0
C233 C 0.8146 0.05261 0.90473 0.0
C234 C 0.70417 0.00812 0.83172 0.0
C235 C 0.69006 0.97199 0.79749 0.0
C236 C 0.6506 0.97196 0.75438 0.0
C237 C 0.63467 0.92987 0.73008 0.0
C238 C 0.60096 0.92838 0.6848 0.0
C239 C 0.58256 0.9691 0.66241 0.0
H240 H 0.64266 0.04593 0.74923 0.0
C241 C 0.5975 0.01111 0.6879 0.0
C242 C 0.6311 0.01261 0.73314 0.0
H243 H 0.5841 0.04323 0.67176 0.0
H244 H 0.82733 0.93758 0.92429 0.0
H245 H 0.75054 0.93497 0.88236 0.0
H246 H 0.75561 0.08304 0.86501 0.0
H247 H 0.83274 0.08546 0.90957 0.0
H248 H 0.68538 0.03953 0.83064 0.0
H249 H 0.70955 0.94099 0.79838 0.0
H250 H 0.64911 0.89796 0.74525 0.0
H251 H 0.59031 0.89546 0.66619 0.0
loop_
_geom_bond_atom_site_label_1
_geom_bond_atom_site_label_2
_geom_bond_distance
_geom_bond_site_symmetry_2
_ccdc_geom_bond_type
Fe0 O1 1.906 . S
Fe0 O4 1.694 1_645 S
Fe0 O9 2.099 1_655 S
Fe0 O14 1.924 1_655 S
Fe0 O20 2.092 1_545 S
Fe0 O29 1.915 1_545 S
O1 Fe0 1.906 . S
O1 Fe3 1.715 1_554 S
Fe2 O4 1.886 . S
Fe2 O5 1.715 1_554 S
Fe2 O12 1.935 1_554 S
Fe2 O13 2.077 . S
Fe2 O19 1.935 1_554 S
Fe2 O28 2.077 . S
Fe3 O1 1.715 1_556 S
Fe3 O6 1.886 . S
Fe3 O10 1.935 1_556 S
Fe3 O15 2.077 . S
Fe3 O21 1.935 1_556 S
Fe3 O25 2.077 . S
O4 Fe0 1.694 1_465 S
O4 Fe2 1.886 . S
O5 Fe2 1.715 1_556 S
O5 Fe7 1.906 . S
O6 Fe3 1.886 . S
O6 Fe7 1.694 1_645 S
Fe7 O5 1.906 . S
Fe7 O6 1.694 1_465 S
Fe7 O11 2.099 1_565 S
Fe7 O16 1.924 1_565 S
Fe7 O18 2.092 1_455 S
Fe7 O26 1.915 1_455 S
C8 O20 1.381 1_545 S
C8 O21 1.421 . S
O9 Fe0 2.099 1_455 S
O9 C22 1.381 1_455 S
O10 Fe3 1.935 1_554 S
O10 C22 1.421 . S
O11 Fe7 2.099 1_545 S
O11 C27 1.381 1_545 S
O12 Fe2 1.935 1_556 S
O12 C27 1.421 . S
O13 Fe2 2.077 . S
O13 C17 1.381 . S
O14 Fe0 1.924 1_455 S
O14 C17 1.421 1_545 S
O15 Fe3 2.077 . S
O15 C23 1.381 . S
O16 Fe7 1.924 1_545 S
O16 C23 1.421 1_455 S
C17 O13 1.381 . S
C17 O14 1.421 1_565 S
O18 Fe7 2.092 1_655 S
O18 C30 1.381 1_655 S
O19 Fe2 1.935 1_556 S
O19 C30 1.421 . S
O20 Fe0 2.092 1_565 S
O20 C8 1.381 1_565 S
O21 Fe3 1.935 1_554 S
O21 C8 1.421 . S
C22 O9 1.381 1_655 S
C22 O10 1.421 . S
C23 O15 1.381 . S
C23 O16 1.421 1_655 S
C24 O25 1.381 . S
C24 O26 1.421 1_545 S
O25 Fe3 2.077 . S
O25 C24 1.381 . S
O26 Fe7 1.915 1_655 S
O26 C24 1.421 1_565 S
C27 O11 1.381 1_565 S
C27 O12 1.421 . S
O28 Fe2 2.077 . S
O28 C31 1.381 . S
O29 Fe0 1.915 1_565 S
O29 C31 1.421 1_655 S
C30 O18 1.381 1_455 S
C30 O19 1.421 . S
C31 O28 1.381 . S
C31 O29 1.421 1_455 S
C32 O34 1.252 . S
C32 O36 1.253 1_455 S
C33 O40 1.245 . S
C33 O41 1.260 1_655 S
O34 C32 1.252 . S
O34 Zn35 2.028 . S
Zn35 O34 2.028 . S
Zn35 O39 2.035 . S
Zn35 O41 2.035 . S
Zn35 O42 2.028 . S
O36 C32 1.253 1_655 S
O36 Zn37 2.035 . S
Zn37 O36 2.035 . S
Zn37 O38 2.028 . S
Zn37 O40 2.028 . S
Zn37 O43 2.035 . S
O38 Zn37 2.028 . S
O38 C44 1.245 . S
O39 Zn35 2.035 . S
O39 C44 1.260 1_455 S
O40 C33 1.245 . S
O40 Zn37 2.028 . S
O41 C33 1.260 1_455 S
O41 Zn35 2.035 . S
O42 Zn35 2.028 . S
O42 C45 1.252 . S
O43 Zn37 2.035 . S
O43 C45 1.253 1_655 S
C44 O38 1.245 . S
C44 O39 1.260 1_655 S
C45 O42 1.252 . S
C45 O43 1.253 1_455 S
C46 O48 1.245 . S
C46 O50 1.260 1_565 S
C47 O54 1.252 . S
C47 O55 1.253 1_545 S
O48 C46 1.245 . S
O48 Zn49 2.028 . S
Zn49 O48 2.028 . S
Zn49 O53 2.035 . S
Zn49 O55 2.035 . S
Zn49 O56 2.028 . S
O50 C46 1.260 1_545 S
O50 Zn51 2.035 . S
Zn51 O50 2.035 . S
Zn51 O52 2.028 . S
Zn51 O54 2.028 . S
Zn51 O57 2.035 . S
O52 Zn51 2.028 . S
O52 C58 1.252 . S
O53 Zn49 2.035 . S
O53 C58 1.253 1_565 S
O54 C47 1.252 . S
O54 Zn51 2.028 . S
O55 C47 1.253 1_565 S
O55 Zn49 2.035 . S
O56 Zn49 2.028 . S
O56 C59 1.245 . S
O57 Zn51 2.035 . S
O57 C59 1.260 1_545 S
C58 O52 1.252 . S
C58 O53 1.253 1_545 S
C59 O56 1.245 . S
C59 O57 1.260 1_565 S
C60 C61 1.386 1_455 S
C60 C62 1.383 . S
C60 H76 0.951 . S
C61 C60 1.386 1_655 S
C61 C65 1.383 . S
C62 C60 1.383 . S
C62 C63 1.402 1_455 S
C62 H77 0.951 . S
C63 C62 1.402 1_655 S
C63 C64 1.375 . S
C63 C66 1.481 . S
C64 C63 1.375 . S
C64 C65 1.367 . S
C64 H78 0.951 . S
C65 C61 1.383 . S
C65 C64 1.367 . S
C65 H79 0.950 . S
C66 C63 1.481 . S
C66 C67 1.297 1_655 S
C66 H80 0.950 . S
C67 C66 1.297 1_455 S
C67 C68 1.479 . S
C67 H81 0.950 . S
C68 C67 1.479 . S
C68 C69 1.375 . S
C68 C74 1.404 1_455 S
C69 C68 1.375 . S
C69 C70 1.369 . S
C69 H82 0.950 . S
C70 C69 1.369 . S
C70 C71 1.406 . S
C70 H83 0.951 . S
C71 C70 1.406 . S
C71 C73 1.371 1_455 S
H72 C74 0.949 . S
C73 C71 1.371 1_655 S
C73 C74 1.385 . S
C73 H75 0.950 . S
C74 C68 1.404 1_655 S
C74 H72 0.949 . S
C74 C73 1.385 . S
H75 C73 0.950 . S
H76 C60 0.951 . S
H77 C62 0.951 . S
H78 C64 0.951 . S
H79 C65 0.950 . S
H80 C66 0.950 . S
H81 C67 0.950 . S
H82 C69 0.950 . S
H83 C70 0.951 . S
C84 C85 1.386 1_545 S
C84 C86 1.383 . S
C84 H100 0.951 . S
C85 C84 1.386 1_565 S
C85 C89 1.383 . S
C86 C84 1.383 . S
C86 C87 1.402 1_545 S
C86 H101 0.951 . S
C87 C86 1.402 1_565 S
C87 C88 1.375 . S
C87 C90 1.481 . S
C88 C87 1.375 . S
C88 C89 1.367 . S
C88 H102 0.951 . S
C89 C85 1.383 . S
C89 C88 1.367 . S
C89 H103 0.950 . S
C90 C87 1.481 . S
C90 C91 1.297 1_565 S
C90 H104 0.950 . S
C91 C90 1.297 1_545 S
C91 C92 1.479 . S
C91 H105 0.950 . S
C92 C91 1.479 . S
C92 C93 1.375 . S
C92 C98 1.404 1_545 S
C93 C92 1.375 . S
C93 C94 1.369 . S
C93 H106 0.950 . S
C94 C93 1.369 . S
C94 C95 1.392 . S
C94 H107 0.951 . S
C95 C94 1.392 . S
C95 C97 1.384 1_545 S
H96 C98 0.949 . S
C97 C95 1.384 1_565 S
C97 C98 1.385 . S
C97 H99 0.950 . S
C98 C92 1.404 1_565 S
C98 H96 0.949 . S
C98 C97 1.385 . S
H99 C97 0.950 . S
H100 C84 0.951 . S
H101 C86 0.951 . S
H102 C88 0.951 . S
H103 C89 0.950 . S
H104 C90 0.950 . S
H105 C91 0.950 . S
H106 C93 0.950 . S
H107 C94 0.951 . S
C108 C109 1.386 1_455 S
C108 C110 1.383 . S
C108 H124 0.951 . S
C109 C108 1.386 1_655 S
C109 C113 1.383 . S
C110 C108 1.383 . S
C110 C111 1.402 1_455 S
C110 H125 0.951 . S
C111 C110 1.402 1_655 S
C111 C112 1.375 . S
C111 C114 1.481 . S
C112 C111 1.375 . S
C112 C113 1.367 . S
C112 H126 0.951 . S
C113 C109 1.383 . S
C113 C112 1.367 . S
C113 H127 0.950 . S
C114 C111 1.481 . S
C114 C115 1.297 . S
C114 H128 0.950 . S
C115 C114 1.297 . S
C115 C116 1.479 . S
C115 H129 0.950 . S
C116 C115 1.479 . S
C116 C117 1.375 1_655 S
C116 C122 1.404 . S
C117 C116 1.375 1_455 S
C117 C118 1.369 . S
C117 H130 0.950 . S
C118 C117 1.369 . S
C118 C119 1.392 1_455 S
C118 H131 0.951 . S
C119 C118 1.392 1_655 S
C119 C121 1.384 . S
H120 C122 0.949 . S
C121 C119 1.384 . S
C121 C122 1.385 . S
C121 H123 0.950 . S
C122 C116 1.404 . S
C122 H120 0.949 . S
C122 C121 1.385 . S
H123 C121 0.950 . S
H124 C108 0.951 . S
H125 C110 0.951 . S
H126 C112 0.951 . S
H127 C113 0.950 . S
H128 C114 0.950 . S
H129 C115 0.950 . S
H130 C117 0.950 . S
H131 C118 0.951 . S
C132 C133 1.386 1_565 S
C132 C134 1.383 . S
C132 H148 0.951 . S
C133 C132 1.386 1_545 S
C133 C137 1.383 . S
C134 C132 1.383 . S
C134 C135 1.402 1_565 S
C134 H149 0.951 . S
C135 C134 1.402 1_545 S
C135 C136 1.375 . S
C135 C138 1.481 . S
C136 C135 1.375 . S
C136 C137 1.367 . S
C136 H150 0.951 . S
C137 C133 1.383 . S
C137 C136 1.367 . S
C137 H151 0.950 . S
C138 C135 1.481 . S
C138 C139 1.297 1_545 S
C138 H152 0.950 . S
C139 C138 1.297 1_565 S
C139 C140 1.479 . S
C139 H153 0.950 . S
C140 C139 1.479 . S
C140 C141 1.375 . S
C140 C146 1.404 1_565 S
C141 C140 1.375 . S
C141 C142 1.369 . S
C141 H154 0.950 . S
C142 C141 1.369 . S
C142 C143 1.392 . S
C142 H155 0.951 . S
C143 C142 1.392 . S
C143 C145 1.384 1_565 S
H144 C146 0.949 . S
C145 C143 1.384 1_545 S
C145 C146 1.385 . S
C145 H147 0.950 . S
C146 C140 1.404 1_545 S
C146 H144 0.949 . S
C146 C145 1.385 . S
H147 C145 0.950 . S
H148 C132 0.951 . S
H149 C134 0.951 . S
H150 C136 0.951 . S
H151 C137 0.950 . S
H152 C138 0.950 . S
H153 C139 0.950 . S
H154 C141 0.950 . S
H155 C142 0.951 . S
C156 C157 1.386 1_655 S
C156 C158 1.383 . S
C156 H172 0.951 . S
C157 C156 1.386 1_455 S
C157 C161 1.383 . S
C158 C156 1.383 . S
C158 C159 1.402 1_655 S
C158 H173 0.951 . S
C159 C158 1.402 1_455 S
C159 C160 1.375 . S
C159 C162 1.481 . S
C160 C159 1.375 . S
C160 C161 1.367 . S
C160 H174 0.951 . S
C161 C157 1.383 . S
C161 C160 1.367 . S
C161 H175 0.950 . S
C162 C159 1.481 . S
C162 C163 1.297 1_455 S
C162 H176 0.950 . S
C163 C162 1.297 1_655 S
C163 C164 1.479 1_655 S
C163 H177 0.950 . S
C164 C163 1.479 1_455 S
C164 C165 1.375 1_455 S
C164 C170 1.404 . S
C165 C164 1.375 1_655 S
C165 C166 1.369 . S
C165 H178 0.950 . S
C166 C165 1.369 . S
C166 C167 1.392 1_655 S
C166 H179 0.951 . S
C167 C166 1.392 1_455 S
C167 C169 1.384 . S
H168 C170 0.949 . S
C169 C167 1.384 . S
C169 C170 1.385 . S
C169 H171 0.950 . S
C170 C164 1.404 . S
C170 H168 0.949 . S
C170 C169 1.385 . S
H171 C169 0.950 . S
H172 C156 0.951 . S
H173 C158 0.951 . S
H174 C160 0.951 . S
H175 C161 0.950 . S
H176 C162 0.950 . S
H177 C163 0.950 . S
H178 C165 0.950 . S
H179 C166 0.951 . S
C180 C181 1.386 1_565 S
C180 C182 1.383 . S
C180 H196 0.951 . S
C181 C180 1.386 1_545 S
C181 C185 1.383 . S
C182 C180 1.383 . S
C182 C183 1.402 1_565 S
C182 H197 0.951 . S
C183 C182 1.402 1_545 S
C183 C184 1.375 . S
C183 C186 1.481 . S
C184 C183 1.375 . S
C184 C185 1.367 . S
C184 H198 0.951 . S
C185 C181 1.383 . S
C185 C184 1.367 . S
C185 H199 0.950 . S
C186 C183 1.481 . S
C186 C187 1.288 1_545 S
C186 H200 0.950 . S
C187 C186 1.288 1_565 S
C187 C188 1.479 1_565 S
C187 H201 0.961 . S
C188 C187 1.479 1_545 S
C188 C189 1.375 1_545 S
C188 C194 1.404 . S
C189 C188 1.375 1_565 S
C189 C190 1.369 . S
C189 H202 0.950 . S
C190 C189 1.369 . S
C190 C191 1.392 1_565 S
C190 H203 0.951 . S
C191 C190 1.392 1_545 S
C191 C193 1.384 . S
H192 C194 0.949 . S
C193 C191 1.384 . S
C193 C194 1.385 . S
C193 H195 0.950 . S
C194 C188 1.404 . S
C194 H192 0.949 . S
C194 C193 1.385 . S
H195 C193 0.950 . S
H196 C180 0.951 . S
H197 C182 0.951 . S
H198 C184 0.951 . S
H199 C185 0.950 . S
H200 C186 0.950 . S
H201 C187 0.961 . S
H202 C189 0.950 . S
H203 C190 0.951 . S
C204 C205 1.380 1_655 S
C204 C206 1.383 . S
C204 H220 0.951 . S
C205 C204 1.380 1_455 S
C205 C209 1.388 . S
C206 C204 1.383 . S
C206 C207 1.402 1_655 S
C206 H221 0.951 . S
C207 C206 1.402 1_455 S
C207 C208 1.375 . S
C207 C210 1.481 . S
C208 C207 1.375 . S
C208 C209 1.367 . S
C208 H222 0.951 . S
C209 C205 1.388 . S
C209 C208 1.367 . S
C209 H223 0.950 . S
C210 C207 1.481 . S
C210 C211 1.297 1_455 S
C210 H224 0.950 . S
C211 C210 1.297 1_655 S
C211 C212 1.479 . S
C211 H225 0.950 . S
C212 C211 1.479 . S
C212 C213 1.375 . S
C212 C218 1.404 1_655 S
C213 C212 1.375 . S
C213 C214 1.369 . S
C213 H226 0.950 . S
C214 C213 1.369 . S
C214 C215 1.392 . S
C214 H227 0.951 . S
C215 C214 1.392 . S
C215 C217 1.384 1_655 S
H216 C218 0.949 . S
C217 C215 1.384 1_455 S
C217 C218 1.385 . S
C217 H219 0.950 . S
C218 C212 1.404 1_455 S
C218 H216 0.949 . S
C218 C217 1.385 . S
H219 C217 0.950 . S
H220 C204 0.951 . S
H221 C206 0.951 . S
H222 C208 0.951 . S
H223 C209 0.950 . S
H224 C210 0.950 . S
H225 C211 0.950 . S
H226 C213 0.950 . S
H227 C214 0.951 . S
C228 C229 1.386 1_565 S
C228 C230 1.383 . S
C228 H244 0.951 . S
C229 C228 1.386 1_545 S
C229 C233 1.383 . S
C230 C228 1.383 . S
C230 C231 1.402 1_565 S
C230 H245 0.951 . S
C231 C230 1.402 1_545 S
C231 C232 1.375 . S
C231 C234 1.481 . S
C232 C231 1.375 . S
C232 C233 1.367 . S
C232 H246 0.951 . S
C233 C229 1.383 . S
C233 C232 1.367 . S
C233 H247 0.950 . S
C234 C231 1.481 . S
C234 C235 1.297 1_545 S
C234 H248 0.950 . S
C235 C234 1.297 1_565 S
C235 C236 1.479 . S
C235 H249 0.950 . S
C236 C235 1.479 . S
C236 C237 1.375 . S
C236 C242 1.404 1_565 S
C237 C236 1.375 . S
C237 C238 1.369 . S
C237 H250 0.950 . S
C238 C237 1.369 . S
C238 C239 1.400 . S
C238 H251 0.951 . S
C239 C238 1.400 . S
C239 C241 1.377 1_565 S
H240 C242 0.949 . S
C241 C239 1.377 1_545 S
C241 C242 1.385 . S
C241 H243 0.950 . S
C242 C236 1.404 1_545 S
C242 H240 0.949 . S
C242 C241 1.385 . S
H243 C241 0.950 . S
H244 C228 0.951 . S
H245 C230 0.951 . S
H246 C232 0.951 . S
H247 C233 0.950 . S
H248 C234 0.950 . S
H249 C235 0.950 . S
H250 C237 0.950 . S
H251 C238 0.951 . S
C61 C22 1.383 . S
C71 C33 1.436 1_455 S
C85 C8 1.419 1_565 S
C95 C59 1.437 1_545 S
C109 C31 1.424 1_655 S
C119 C45 1.441 1_655 S
C133 C17 1.422 1_545 S
C143 C47 1.437 1_565 S
C157 C30 1.368 . S
C167 C32 1.444 . S
C181 C27 1.422 1_545 S
C191 C58 1.445 . S
C215 C44 1.438 . S
C205 C23 1.417 1_455 S
C229 C24 1.391 . S
C239 C46 1.439 . S
