# Generated by pormake.
# Topology scu, (8,4)-cn, num edge types: 1
# Building blocks:
#     Node 0, Type 0, BuildingBlock: VETTIZ_charged_sbu_0, # of connection points: 8
#     Node 1, Type 1, BuildingBlock: MUDLON_clean_sbu_0, # of connection points: 4
#     Node 2, Type 1, BuildingBlock: MUDLON_clean_sbu_0, # of connection points: 4
#     Edge 3, Type (0, 1), BuildingBlock: AJUNOK_clean_linker_0, # of connection points: 2
#     Edge 4, Type (0, 1), BuildingBlock: AJUNOK_clean_linker_0, # of connection points: 2
#     Edge 5, Type (0, 1), BuildingBlock: AJUNOK_clean_linker_0, # of connection points: 2
#     Edge 6, Type (0, 1), BuildingBlock: AJUNOK_clean_linker_0, # of connection points: 2
#     Edge 7, Type (0, 1), BuildingBlock: AJUNOK_clean_linker_0, # of connection points: 2
#     Edge 8, Type (0, 1), BuildingBlock: AJUNOK_clean_linker_0, # of connection points: 2
#     Edge 9, Type (0, 1), BuildingBlock: AJUNOK_clean_linker_0, # of connection points: 2
#     Edge 10, Type (0, 1), BuildingBlock: AJUNOK_clean_linker_0, # of connection points: 2
# Relax obj value: 0.036
# Max RMSD: 0.093
# Mean RMSD: 0.083
data_MOF--net-scu--node1-VETTIZ_charged_sbu_0--node2-MUDLON_clean_sbu_0--edge1-AJUNOK_clean_linker_0
_symmetry_space_group_name_H-M    P1
_symmetry_Int_Tables_number       1
_symmetry_cell_setting            triclinic
loop_
_symmetry_equiv_pos_as_xyz
'x, y, z'
_cell_length_a     17.725306
_cell_length_b     18.317365
_cell_length_c     15.988016
_cell_angle_alpha  89.303681
_cell_angle_beta   90.498058
_cell_angle_gamma 88.238819
loop_
_atom_site_label
_atom_site_type_symbol
_atom_site_fract_x
_atom_site_fract_y
_atom_site_fract_z
_atom_type_partial_charge
Fe0 Fe 0.04687 0.033 0.11467 0.0
O1 O 1.02333 0.1038 0.02127 0.0
Fe2 Fe 0.13638 0.88835 0.01346 0.0
Fe3 Fe 0.93867 0.17503 0.02164 0.0
O4 O 0.05362 0.96066 0.02243 0.0
O5 O 0.05064 0.95982 0.01365 0.0
O6 O 1.02479 0.10443 0.01251 0.0
Fe7 Fe 1.03238 0.0319 0.91997 0.0
C8 C 0.88029 0.05275 0.14035 0.0
O9 O 1.03618 0.11948 0.19995 0.0
O10 O 0.99877 0.21867 0.11761 0.0
O11 O 0.14715 0.0481 0.90733 0.0
O12 O 0.188 0.93285 0.91209 0.0
O13 O 0.20792 0.9438 0.09342 0.0
O14 O 0.15835 0.05647 0.10536 0.0
O15 O 0.99598 0.22086 0.92381 0.0
O16 O 1.01734 0.12219 0.83675 0.0
C17 C 0.21279 1.01049 0.1152 0.0
O18 O 1.03755 0.94156 0.83793 0.0
O19 O 0.06649 0.84303 0.92639 0.0
O20 O 0.93607 1.00911 0.12856 0.0
O21 O 0.87897 0.11878 0.11303 0.0
C22 C 1.02389 0.1891 0.18651 0.0
C23 C 1.0174 0.1922 0.85332 0.0
C24 C 0.86826 0.06555 0.90355 0.0
O25 O 0.87536 0.12999 0.9295 0.0
O26 O 0.91728 1.01555 0.92192 0.0
C27 C 0.19477 0.99804 0.88688 0.0
O28 O 0.08888 0.84667 0.11948 0.0
O29 O 0.07382 0.94811 0.20165 0.0
C30 C 1.03767 0.87188 0.85796 0.0
C31 C 0.08079 0.87773 0.19124 0.0
Mg32 Mg 0.06831 0.54643 0.52288 0.0
C33 C 0.07055 0.44299 0.38525 0.0
O34 O 0.13835 0.47004 0.38449 0.0
C35 C 0.97529 0.63106 0.64651 0.0
O36 O 0.98342 0.56856 0.68724 0.0
C37 C 0.12245 0.40749 0.61257 0.0
O38 O 0.14324 0.38912 0.53705 0.0
O39 O 0.10206 0.47359 0.62608 0.0
O40 O 1.02157 0.47115 0.43394 0.0
O41 O 0.1504 0.60898 0.45608 0.0
C42 C 0.14896 0.67745 0.46868 0.0
O43 O 0.13601 0.70081 0.54465 0.0
O44 O 0.99471 0.63337 0.57035 0.0
Mg45 Mg 0.53443 0.05254 0.5073 0.0
C46 C 0.44276 0.04673 0.36537 0.0
O47 O 0.47115 0.98181 0.38595 0.0
C48 C 0.64288 0.03613 0.63756 0.0
O49 O 0.62475 0.97151 0.61043 0.0
C50 C 0.41223 0.04915 0.62142 0.0
O51 O 0.42001 0.11703 0.59613 0.0
O52 O 0.45478 0.99954 0.58933 0.0
O53 O 0.45685 0.10034 0.41292 0.0
O54 O 0.61702 1.01561 0.41596 0.0
C55 C 0.66175 0.96563 0.39016 0.0
O56 O 0.6688 0.90337 0.43156 0.0
O57 O 0.61067 0.09237 0.60303 0.0
C58 C 0.10896 0.2698 0.26258 0.0
C59 C 1.03711 0.2411 0.25341 0.0
C60 C 0.11894 0.33473 0.30612 0.0
C61 C 0.05728 0.37348 0.34163 0.0
H62 H 0.157 0.24429 0.23177 0.0
H63 H 0.17542 0.35545 0.31007 0.0
S64 S 0.85782 0.31747 0.33755 0.0
N65 N 0.90379 0.25341 0.28485 0.0
N66 N 0.92213 0.37516 0.368 0.0
C67 C 0.98546 0.34322 0.33569 0.0
C68 C 0.9755 0.27714 0.2911 0.0
C69 C 0.83077 0.96298 0.245 0.0
C70 C 0.81898 1.02703 0.19577 0.0
C71 C 0.77827 0.94147 0.30505 0.0
C72 C 0.7116 0.98294 0.31848 0.0
H73 H 0.88244 0.93029 0.23961 0.0
H74 H 0.79164 0.89357 0.34338 0.0
S75 S 0.64789 0.14893 0.19779 0.0
N76 N 0.73151 0.12732 0.15902 0.0
N77 N 0.63254 0.08676 0.27073 0.0
C78 C 0.69686 0.04463 0.26623 0.0
C79 C 0.75053 0.0667 0.20535 0.0
C80 C 0.12411 0.85258 0.3392 0.0
C81 C 0.08964 0.82849 0.26526 0.0
C82 C 0.1443 0.80322 0.40429 0.0
C83 C 0.13166 0.72797 0.39731 0.0
H84 H 0.13792 0.90944 0.34577 0.0
H85 H 0.17093 0.82398 0.46003 0.0
S86 S 1.03402 0.6388 0.22085 0.0
N87 N 1.03699 0.72555 0.19254 0.0
N88 N 0.07601 0.63313 0.31326 0.0
C89 C 0.09485 0.70375 0.32478 0.0
C90 C 0.07349 0.75393 0.25934 0.0
C91 C 0.26791 0.08314 0.23178 0.0
C92 C 0.27812 0.03179 0.16725 0.0
C93 C 0.32421 0.0932 0.29283 0.0
C94 C 0.39249 0.05234 0.29102 0.0
H95 H 0.21417 0.1121 0.23868 0.0
H96 H 0.31199 0.12898 0.34477 0.0
S97 S 0.45316 0.92294 0.12588 0.0
N98 N 0.36604 0.94824 0.09879 0.0
N99 N 0.47182 0.96743 0.21248 0.0
C100 C 0.40587 1.00607 0.22262 0.0
C101 C 0.34867 0.99561 0.16103 0.0
C102 C 1.0155 0.824 0.71326 0.0
C103 C 1.00389 0.81941 0.7999 0.0
C104 C 0.99813 0.76528 0.66125 0.0
C105 C 0.96951 0.69998 0.69459 0.0
H106 H 1.04285 0.87078 0.68642 0.0
H107 H 1.01245 0.76928 0.59573 0.0
S108 S 0.90895 0.67053 0.91354 0.0
N109 N 0.94683 0.75172 0.91356 0.0
N110 N 0.91546 0.6415 0.81645 0.0
C111 C 0.94926 0.69893 0.77928 0.0
C112 C 0.96649 0.7585 0.83186 0.0
C113 C 0.25155 0.07693 0.77546 0.0
C114 C 0.25419 1.01224 0.8237 0.0
C115 C 0.30224 0.08757 0.70975 0.0
C116 C 0.35787 0.03404 0.68934 0.0
H117 H 0.20917 0.11927 0.7874 0.0
H118 H 0.29721 0.13824 0.67421 0.0
S119 S 0.39374 0.85765 0.80091 0.0
N120 N 0.32106 0.89554 0.84961 0.0
N121 N 0.41534 0.91586 0.72593 0.0
C122 C 0.36242 0.96987 0.73813 0.0
C123 C 0.31109 0.95904 0.80539 0.0
C124 C 0.04776 0.31939 0.80907 0.0
C125 C 0.04645 0.24439 0.78984 0.0
C126 C 0.07597 0.37075 0.75317 0.0
C127 C 0.10431 0.34999 0.67498 0.0
H128 H 1.02629 0.3395 0.86794 0.0
H129 H 0.07377 0.42765 0.771 0.0
S130 S 0.11784 0.16039 0.59435 0.0
N131 N 0.0789 0.15173 0.68721 0.0
N132 N 0.1324 0.24842 0.58194 0.0
C133 C 0.10555 0.27499 0.65529 0.0
C134 C 0.07635 0.22234 0.71249 0.0
C135 C 0.76048 0.11358 0.81386 0.0
C136 C 0.80719 0.05362 0.84069 0.0
C137 C 0.70792 0.10766 0.74841 0.0
C138 C 0.69892 0.04134 0.7071 0.0
H139 H 0.7654 0.16658 0.84236 0.0
H140 H 0.67423 0.15564 0.73006 0.0
S141 S 0.80445 0.86658 0.75443 0.0
N142 N 0.8389 0.92493 0.82154 0.0
N143 N 0.74 0.91329 0.69912 0.0
C144 C 0.74384 0.98028 0.73433 0.0
C145 C 0.7978 0.98648 0.80089 0.0
loop_
_geom_bond_atom_site_label_1
_geom_bond_atom_site_label_2
_geom_bond_distance
_geom_bond_site_symmetry_2
_ccdc_geom_bond_type
Fe0 O1 1.886 . S
Fe0 O4 1.715 1_645 S
Fe0 O9 2.077 1_655 S
Fe0 O14 1.935 1_655 S
Fe0 O20 2.077 1_545 S
Fe0 O29 1.935 1_545 S
O1 Fe0 1.886 . S
O1 Fe3 1.715 . S
Fe2 O4 1.886 . S
Fe2 O5 1.715 1_554 S
Fe2 O12 1.935 1_554 S
Fe2 O13 2.077 . S
Fe2 O19 1.935 1_554 S
Fe2 O28 2.077 . S
Fe3 O1 1.715 . S
Fe3 O6 1.886 1_554 S
Fe3 O10 1.935 . S
Fe3 O15 2.077 1_554 S
Fe3 O21 1.935 . S
Fe3 O25 2.077 1_554 S
O4 Fe0 1.715 1_465 S
O4 Fe2 1.886 . S
O5 Fe2 1.715 1_556 S
O5 Fe7 1.886 . S
O6 Fe3 1.886 1_556 S
O6 Fe7 1.715 1_645 S
Fe7 O5 1.886 . S
Fe7 O6 1.715 1_465 S
Fe7 O11 2.077 1_565 S
Fe7 O16 1.935 1_565 S
Fe7 O18 2.077 1_455 S
Fe7 O26 1.935 1_455 S
C8 O20 1.381 1_545 S
C8 O21 1.421 . S
O9 Fe0 2.077 1_455 S
O9 C22 1.381 1_455 S
O10 Fe3 1.935 . S
O10 C22 1.421 . S
O11 Fe7 2.077 1_545 S
O11 C27 1.381 1_545 S
O12 Fe2 1.935 1_556 S
O12 C27 1.421 . S
O13 Fe2 2.077 . S
O13 C17 1.381 . S
O14 Fe0 1.935 1_455 S
O14 C17 1.421 1_545 S
O15 Fe3 2.077 1_556 S
O15 C23 1.381 . S
O16 Fe7 1.935 1_545 S
O16 C23 1.421 1_455 S
C17 O13 1.381 . S
C17 O14 1.421 1_565 S
O18 Fe7 2.077 1_655 S
O18 C30 1.381 1_655 S
O19 Fe2 1.935 1_556 S
O19 C30 1.421 . S
O20 Fe0 2.077 1_565 S
O20 C8 1.381 1_565 S
O21 Fe3 1.935 . S
O21 C8 1.421 . S
C22 O9 1.381 1_655 S
C22 O10 1.421 . S
C23 O15 1.381 . S
C23 O16 1.421 1_655 S
C24 O25 1.381 . S
C24 O26 1.421 1_545 S
O25 Fe3 2.077 1_556 S
O25 C24 1.381 . S
O26 Fe7 1.935 1_655 S
O26 C24 1.421 1_565 S
C27 O11 1.381 1_565 S
C27 O12 1.421 . S
O28 Fe2 2.077 . S
O28 C31 1.381 . S
O29 Fe0 1.935 1_565 S
O29 C31 1.421 1_655 S
C30 O18 1.381 1_455 S
C30 O19 1.421 . S
C31 O28 1.381 . S
C31 O29 1.421 1_455 S
Mg32 O39 2.141 . S
Mg32 O40 2.048 . S
Mg32 O41 2.048 . S
Mg32 O44 2.141 . S
C33 O34 1.313 . S
C33 O40 1.195 1_455 S
O34 C33 1.313 . S
C35 O36 1.245 . S
C35 O44 1.289 1_455 S
O36 C35 1.245 . S
C37 O38 1.245 . S
C37 O39 1.289 1_455 S
O38 C37 1.245 . S
O39 Mg32 2.141 . S
O39 C37 1.289 1_655 S
O40 Mg32 2.048 . S
O40 C33 1.195 1_655 S
O41 Mg32 2.048 . S
O41 C42 1.195 1_655 S
C42 O41 1.195 1_455 S
C42 O43 1.313 . S
O43 C42 1.313 . S
O44 Mg32 2.141 . S
O44 C35 1.289 1_655 S
Mg45 O52 2.141 . S
Mg45 O53 2.048 . S
Mg45 O54 2.048 . S
Mg45 O57 2.141 . S
C46 O47 1.313 . S
C46 O53 1.195 1_565 S
O47 C46 1.313 . S
C48 O49 1.245 . S
C48 O57 1.289 1_565 S
O49 C48 1.245 . S
C50 O51 1.245 . S
C50 O52 1.289 1_565 S
O51 C50 1.245 . S
O52 Mg45 2.141 . S
O52 C50 1.289 1_545 S
O53 Mg45 2.048 . S
O53 C46 1.195 1_545 S
O54 Mg45 2.048 . S
O54 C55 1.195 1_545 S
C55 O54 1.195 1_565 S
C55 O56 1.313 . S
O56 C55 1.313 . S
O57 Mg45 2.141 . S
O57 C48 1.289 1_545 S
C58 C59 1.367 1_455 S
C58 C60 1.419 . S
C58 H62 0.930 . S
C59 C58 1.367 1_655 S
C59 C68 1.430 . S
C60 C58 1.419 . S
C60 C61 1.360 1_455 S
C60 H63 0.929 . S
C61 C60 1.360 1_655 S
C61 C67 1.431 . S
H62 C58 0.930 . S
H63 C60 0.929 . S
S64 N65 1.613 . S
S64 N66 1.610 . S
N65 S64 1.613 . S
N65 C68 1.350 . S
N66 S64 1.610 . S
N66 C67 1.351 . S
C67 C61 1.431 . S
C67 N66 1.351 . S
C67 C68 1.434 . S
C68 C59 1.430 . S
C68 N65 1.350 . S
C68 C67 1.434 . S
C69 C70 1.362 1_565 S
C69 C71 1.419 . S
C69 H73 0.930 . S
C70 C69 1.362 1_545 S
C70 C79 1.436 . S
C71 C69 1.419 . S
C71 C72 1.357 1_565 S
C71 H74 0.929 . S
C72 C71 1.357 1_545 S
C72 C78 1.435 . S
H73 C69 0.930 . S
H74 C71 0.929 . S
S75 N76 1.613 . S
S75 N77 1.610 . S
N76 S75 1.613 . S
N76 C79 1.350 . S
N77 S75 1.610 . S
N77 C78 1.351 . S
C78 C72 1.435 . S
C78 N77 1.351 . S
C78 C79 1.434 . S
C79 C70 1.436 . S
C79 N76 1.350 . S
C79 C78 1.434 . S
C80 C81 1.367 1_455 S
C80 C82 1.419 . S
C80 H84 0.930 . S
C81 C80 1.367 1_655 S
C81 C90 1.430 . S
C82 C80 1.419 . S
C82 C83 1.363 1_455 S
C82 H85 0.929 . S
C83 C82 1.363 1_655 S
C83 C89 1.429 . S
H84 C80 0.930 . S
H85 C82 0.929 . S
S86 N87 1.613 . S
S86 N88 1.610 . S
N87 S86 1.613 . S
N87 C90 1.350 . S
N88 S86 1.610 . S
N88 C89 1.351 . S
C89 C83 1.429 . S
C89 N88 1.351 . S
C89 C90 1.434 . S
C90 C81 1.430 . S
C90 N87 1.350 . S
C90 C89 1.434 . S
C91 C92 1.367 1_545 S
C91 C93 1.419 . S
C91 H95 0.930 . S
C92 C91 1.367 1_565 S
C92 C101 1.431 . S
C93 C91 1.419 . S
C93 C94 1.361 1_545 S
C93 H96 0.929 . S
C94 C93 1.361 1_565 S
C94 C100 1.431 . S
H95 C91 0.930 . S
H96 C93 0.929 . S
S97 N98 1.613 . S
S97 N99 1.610 . S
N98 S97 1.613 . S
N98 C101 1.350 . S
N99 S97 1.610 . S
N99 C100 1.351 . S
C100 C94 1.431 . S
C100 N99 1.351 . S
C100 C101 1.434 . S
C101 C92 1.431 . S
C101 N98 1.350 . S
C101 C100 1.434 . S
C102 C103 1.361 1_455 S
C102 C104 1.419 . S
C102 H106 0.930 . S
C103 C102 1.361 1_655 S
C103 C112 1.437 . S
C104 C102 1.419 . S
C104 C105 1.358 1_455 S
C104 H107 0.929 . S
C105 C104 1.358 1_655 S
C105 C111 1.433 . S
H106 C102 0.930 . S
H107 C104 0.929 . S
S108 N109 1.613 . S
S108 N110 1.610 . S
N109 S108 1.613 . S
N109 C112 1.350 . S
N110 S108 1.610 . S
N110 C111 1.351 . S
C111 C105 1.433 . S
C111 N110 1.351 . S
C111 C112 1.434 . S
C112 C103 1.437 . S
C112 N109 1.350 . S
C112 C111 1.434 . S
C113 C114 1.370 1_545 S
C113 C115 1.419 . S
C113 H117 0.930 . S
C114 C113 1.370 1_565 S
C114 C123 1.428 . S
C115 C113 1.419 . S
C115 C116 1.362 1_545 S
C115 H118 0.929 . S
C116 C115 1.362 1_565 S
C116 C122 1.429 . S
H117 C113 0.930 . S
H118 C115 0.929 . S
S119 N120 1.613 . S
S119 N121 1.610 . S
N120 S119 1.613 . S
N120 C123 1.350 . S
N121 S119 1.610 . S
N121 C122 1.351 . S
C122 C116 1.429 . S
C122 N121 1.351 . S
C122 C123 1.434 . S
C123 C114 1.428 . S
C123 N120 1.350 . S
C123 C122 1.434 . S
C124 C125 1.369 1_655 S
C124 C126 1.419 . S
C124 H128 0.930 . S
C125 C124 1.369 1_455 S
C125 C134 1.429 . S
C126 C124 1.419 . S
C126 C127 1.359 1_655 S
C126 H129 0.929 . S
C127 C126 1.359 1_455 S
C127 C133 1.433 . S
H128 C124 0.930 . S
H129 C126 0.929 . S
S130 N131 1.613 . S
S130 N132 1.610 . S
N131 S130 1.613 . S
N131 C134 1.350 . S
N132 S130 1.610 . S
N132 C133 1.351 . S
C133 C127 1.433 . S
C133 N132 1.351 . S
C133 C134 1.434 . S
C134 C125 1.429 . S
C134 N131 1.350 . S
C134 C133 1.434 . S
C135 C136 1.369 1_565 S
C135 C137 1.418 . S
C135 H139 0.930 . S
C136 C135 1.369 1_545 S
C136 C145 1.429 . S
C137 C135 1.418 . S
C137 C138 1.363 1_565 S
C137 H140 0.929 1_565 S
C138 C137 1.363 1_545 S
C138 C144 1.428 . S
H139 C135 0.930 . S
H140 C137 0.929 1_545 S
S141 N142 1.613 . S
S141 N143 1.610 . S
N142 S141 1.613 . S
N142 C145 1.350 . S
N143 S141 1.610 . S
N143 C144 1.351 . S
C144 C138 1.428 . S
C144 N143 1.351 . S
C144 C145 1.434 . S
C145 C136 1.429 . S
C145 N142 1.350 . S
C145 C144 1.434 . S
C59 C22 1.435 . S
C61 C33 1.481 1_655 S
C70 C8 1.435 . S
C72 C55 1.483 1_545 S
C81 C31 1.436 1_655 S
C83 C42 1.483 1_655 S
C92 C17 1.433 . S
C94 C46 1.480 . S
C103 C30 1.374 1_655 S
C105 C35 1.416 1_655 S
C114 C27 1.372 . S
C116 C50 1.413 . S
C127 C37 1.414 . S
C125 C23 1.367 1_455 S
C136 C24 1.364 . S
C138 C48 1.415 1_545 S
