# Generated by pormake.
# Topology pth, (4,4)-cn, num edge types: 1
# Building blocks:
#     Node 0, Type 0, BuildingBlock: NAHDIM_clean_sbu_0, # of connection points: 4
#     Node 1, Type 0, BuildingBlock: NAHDIM_clean_sbu_0, # of connection points: 4
#     Node 2, Type 0, BuildingBlock: NAHDIM_clean_sbu_0, # of connection points: 4
#     Node 3, Type 1, BuildingBlock: NAWXER_clean_sbu_0, # of connection points: 4
#     Node 4, Type 1, BuildingBlock: NAWXER_clean_sbu_0, # of connection points: 4
#     Node 5, Type 1, BuildingBlock: NAWXER_clean_sbu_0, # of connection points: 4
#     Edge 6, Type (0, 1), BuildingBlock: AJUNOK_clean_linker_0, # of connection points: 2
#     Edge 7, Type (0, 1), BuildingBlock: AJUNOK_clean_linker_0, # of connection points: 2
#     Edge 8, Type (0, 1), BuildingBlock: AJUNOK_clean_linker_0, # of connection points: 2
#     Edge 9, Type (0, 1), BuildingBlock: AJUNOK_clean_linker_0, # of connection points: 2
#     Edge 10, Type (0, 1), BuildingBlock: AJUNOK_clean_linker_0, # of connection points: 2
#     Edge 11, Type (0, 1), BuildingBlock: AJUNOK_clean_linker_0, # of connection points: 2
#     Edge 12, Type (0, 1), BuildingBlock: AJUNOK_clean_linker_0, # of connection points: 2
#     Edge 13, Type (0, 1), BuildingBlock: AJUNOK_clean_linker_0, # of connection points: 2
#     Edge 14, Type (0, 1), BuildingBlock: AJUNOK_clean_linker_0, # of connection points: 2
#     Edge 15, Type (0, 1), BuildingBlock: AJUNOK_clean_linker_0, # of connection points: 2
#     Edge 16, Type (0, 1), BuildingBlock: AJUNOK_clean_linker_0, # of connection points: 2
#     Edge 17, Type (0, 1), BuildingBlock: AJUNOK_clean_linker_0, # of connection points: 2
# Relax obj value: 0.052
# Max RMSD: 0.177
# Mean RMSD: 0.101
data_MOF--net-pth--node1-NAHDIM_clean_sbu_0--node2-NAWXER_clean_sbu_0--edge1-AJUNOK_clean_linker_0
_symmetry_space_group_name_H-M    P1
_symmetry_Int_Tables_number       1
_symmetry_cell_setting            triclinic
loop_
_symmetry_equiv_pos_as_xyz
'x, y, z'
_cell_length_a     16.701639
_cell_length_b     16.800519
_cell_length_c     41.485005
_cell_angle_alpha  92.017272
_cell_angle_beta   89.772563
_cell_angle_gamma 120.58676
loop_
_atom_site_label
_atom_site_type_symbol
_atom_site_fract_x
_atom_site_fract_y
_atom_site_fract_z
_atom_type_partial_charge
C0 C 0.15946 0.01689 0.11524 0.0
O1 O 0.21574 0.10598 0.12091 0.0
O2 O 0.0467 0.15823 0.09938 0.0
Zn3 Zn 0.06292 0.07108 0.06882 0.0
O4 O 0.94408 0.98567 0.04405 0.0
C5 C 0.23416 0.22335 0.04654 0.0
O6 O 0.23644 0.25526 0.07609 0.0
O7 O 0.09365 0.98992 0.09459 0.0
C8 C 0.9096 1.00684 0.0209 0.0
O9 O 0.95231 0.09277 0.01173 0.0
C10 C 0.97902 0.17281 0.1005 0.0
O11 O 0.90899 0.12783 0.08003 0.0
O12 O 0.16647 0.14425 0.03779 0.0
C13 C 0.05275 0.20584 0.35393 0.0
O14 O 0.97176 0.12876 0.35232 0.0
O15 O 0.04862 0.9937 0.37662 0.0
Zn16 Zn 0.07265 0.10646 0.40395 0.0
O17 O 0.9565 0.08181 0.42786 0.0
C18 C 0.17248 0.13475 0.4652 0.0
O19 O 0.09262 0.11435 0.47807 0.0
O20 O 0.11135 0.21496 0.37529 0.0
C21 C 0.89903 1.0055 0.44029 0.0
O22 O 0.91499 0.9366 0.43824 0.0
C23 C 0.97316 0.93231 0.36279 0.0
O24 O 0.89838 0.93906 0.36519 0.0
O25 O 0.17976 0.13742 0.43468 0.0
C26 C 0.1979 0.0137 0.71517 0.0
O27 O 0.22808 0.04779 0.74451 0.0
O28 O 0.9606 0.05729 0.70517 0.0
Zn29 Zn 0.04491 0.03771 0.73425 0.0
O30 O 0.13134 0.15436 0.76005 0.0
C31 C 0.89032 0.8675 0.75565 0.0
O32 O 0.86031 0.8639 0.72611 0.0
O33 O 0.11994 1.00128 0.70576 0.0
C34 C 0.10495 0.19797 0.77874 0.0
O35 O 0.01558 0.16725 0.78143 0.0
C36 C 0.97216 0.13396 0.69609 0.0
O37 O 0.04338 0.21193 0.70734 0.0
O38 O 0.96894 0.93544 0.76464 0.0
C39 C 0.98382 0.66054 0.27506 0.0
C40 C 0.99302 0.45636 0.18939 0.0
O41 O 0.06514 0.67484 0.26893 0.0
Zn42 Zn 0.13226 0.62686 0.23725 0.0
O43 O 0.91441 0.59937 0.25843 0.0
Zn44 Zn 0.98252 0.55864 0.23047 0.0
O45 O 0.03063 0.49524 0.26256 0.0
O46 O 0.18407 0.57638 0.26718 0.0
O47 O 0.92054 0.45805 0.19803 0.0
O48 O 0.07251 0.51616 0.20163 0.0
O49 O 0.21022 0.73642 0.21234 0.0
O50 O 0.0603 0.67408 0.20157 0.0
C51 C 0.10654 0.50578 0.27413 0.0
C52 C 0.14478 0.73642 0.19671 0.0
C53 C 0.70363 0.13143 0.60641 0.0
C54 C 0.4725 0.14197 0.53715 0.0
O55 O 0.63588 0.05234 0.59686 0.0
Zn56 Zn 0.51366 0.99335 0.56718 0.0
O57 O 0.70688 0.20485 0.59749 0.0
Zn58 Zn 0.59393 0.14259 0.57071 0.0
O59 O 0.49143 0.07713 0.60694 0.0
O60 O 0.41688 0.92518 0.59815 0.0
O61 O 0.54827 0.21147 0.54757 0.0
O62 O 0.45406 0.06001 0.54279 0.0
O63 O 0.54414 0.9298 0.53348 0.0
O64 O 0.63537 0.08138 0.53346 0.0
C65 C 0.42936 0.99568 0.6149 0.0
C66 C 0.61293 1.00088 0.52187 0.0
C67 C 0.47816 0.44863 0.94642 0.0
C68 C 0.66014 0.62786 0.85555 0.0
O69 O 0.45823 0.50892 0.9376 0.0
Zn70 Zn 0.49672 0.60914 0.90148 0.0
O71 O 0.53881 0.43817 0.9313 0.0
Zn72 Zn 0.57188 0.53586 0.90107 0.0
O73 O 0.62838 0.6564 0.93206 0.0
O74 O 0.54552 0.72439 0.9272 0.0
O75 O 0.67135 0.56896 0.87026 0.0
O76 O 0.59853 0.64696 0.86498 0.0
O77 O 0.382 0.55857 0.87602 0.0
O78 O 0.45106 0.47647 0.87084 0.0
C79 C 0.61338 0.72199 0.93997 0.0
C80 C 0.38466 0.48989 0.86331 0.0
C81 C 0.91465 0.27056 0.12207 0.0
C82 C 0.98086 0.24233 0.12416 0.0
C83 C 0.91753 0.33884 0.14347 0.0
C84 C 0.98722 0.3819 0.16751 0.0
H85 H 0.86082 0.24068 0.10351 0.0
H86 H 0.86611 0.35934 0.14074 0.0
S87 S 0.17059 0.32609 0.18568 0.0
N88 N 0.11366 0.25827 0.15411 0.0
N89 N 0.11939 0.38619 0.19389 0.0
C90 C 0.05206 0.35237 0.17047 0.0
C91 C 0.04881 0.28277 0.14892 0.0
C92 C 0.80548 0.07384 0.46118 0.0
C93 C 0.81821 0.99727 0.45844 0.0
C94 C 0.73549 0.07203 0.48035 0.0
C95 C 0.67455 0.99346 0.49756 0.0
H96 H 0.8516 0.13711 0.44915 0.0
H97 H 0.73099 0.13412 0.48242 0.0
S98 S 0.67276 0.77164 0.49673 0.0
N99 N 0.75954 0.83793 0.47308 0.0
N100 N 0.6279 0.83491 0.50916 0.0
C101 C 0.68318 0.91461 0.49385 0.0
C102 C 0.75505 0.9165 0.47435 0.0
C103 C 0.87068 0.78121 0.80598 0.0
C104 C 0.8306 0.7975 0.77902 0.0
C105 C 0.81505 0.72098 0.82986 0.0
C106 C 0.71766 0.67685 0.82787 0.0
H107 H 0.9456 0.81652 0.80895 0.0
H108 H 0.84844 0.71265 0.85076 0.0
S109 S 0.57794 0.69151 0.76163 0.0
N110 N 0.68696 0.7598 0.75106 0.0
N111 N 0.58309 0.64905 0.79634 0.0
C112 C 0.67672 0.69009 0.80064 0.0
C113 C 0.73302 0.74974 0.77607 0.0
C114 C 0.103 0.85255 0.12795 0.0
C115 C 0.16684 0.94725 0.13423 0.0
C116 C 0.10035 0.78494 0.14737 0.0
C117 C 0.16202 0.80862 0.17372 0.0
H118 H 0.05221 0.83011 0.10847 0.0
H119 H 0.04745 0.71335 0.14221 0.0
S120 S 0.34737 0.04526 0.19944 0.0
N121 N 0.29731 0.06066 0.16791 0.0
N122 N 0.29221 0.93246 0.20425 0.0
C123 C 0.22957 0.90222 0.17941 0.0
C124 C 0.23191 0.97176 0.15973 0.0
C125 C 0.34239 0.19157 0.47385 0.0
C126 C 0.25076 0.14608 0.4856 0.0
C127 C 0.41614 0.19553 0.49152 0.0
C128 C 0.40013 0.15266 0.52119 0.0
H129 H 0.35695 0.22277 0.45054 0.0
H130 H 0.48492 0.22837 0.48124 0.0
S131 S 0.17575 0.02919 0.56359 0.0
N132 N 0.15039 0.06176 0.52989 0.0
N133 N 0.28836 0.06742 0.5624 0.0
C134 C 0.30999 0.10964 0.53367 0.0
C135 C 0.23542 0.10691 0.51608 0.0
C136 C 0.26842 0.30121 0.79827 0.0
C137 C 0.17499 0.27878 0.79869 0.0
C138 C 0.33555 0.37163 0.81852 0.0
C139 C 0.31273 0.42354 0.83998 0.0
H140 H 0.29002 0.26257 0.78274 0.0
H141 H 0.40599 0.38444 0.81765 0.0
S142 S 0.07993 0.398 0.84905 0.0
N143 N 0.06404 0.31811 0.8213 0.0
N144 N 0.19129 0.45135 0.85935 0.0
C145 C 0.22065 0.405 0.83981 0.0
C146 C 0.15156 0.33234 0.81923 0.0
C147 C 0.89728 0.21275 0.66961 0.0
C148 C 0.90669 0.13447 0.6722 0.0
C149 C 0.83304 0.21269 0.64777 0.0
C150 C 0.77633 0.13447 0.62771 0.0
H151 H 0.93835 0.27378 0.68503 0.0
H152 H 0.8263 0.27344 0.64716 0.0
S153 S 0.78287 0.91642 0.6222 0.0
N154 N 0.85942 0.97977 0.65087 0.0
N155 N 0.74016 0.97978 0.60983 0.0
C156 C 0.78793 0.05721 0.62922 0.0
C157 C 0.85266 0.05717 0.65146 0.0
C158 C 0.7866 0.95696 0.97753 0.0
C159 C 0.82573 0.93373 1.00303 0.0
C160 C 0.71327 0.88823 0.95824 0.0
C161 C 0.67748 0.79404 0.96357 0.0
H162 H 0.81446 0.02865 0.97178 0.0
H163 H 0.68785 0.90884 0.93806 0.0
S164 S 0.74619 0.69568 0.02927 0.0
N165 N 0.81551 0.80866 0.03426 0.0
N166 N 0.67969 0.68064 0.99764 0.0
C167 C 0.71238 0.76989 0.98986 0.0
C168 C 0.78595 0.8394 0.00971 0.0
C169 C 0.89972 0.80536 0.31977 0.0
C170 C 0.97124 0.85608 0.34288 0.0
C171 C 0.90129 0.73859 0.29879 0.0
C172 C 0.97447 0.72019 0.3002 0.0
H173 H 0.84368 0.81948 0.31706 0.0
H174 H 0.847 0.7041 0.28051 0.0
S175 S 0.17091 0.82363 0.35957 0.0
N176 N 0.11181 0.87576 0.36809 0.0
N177 N 0.11466 0.75077 0.32897 0.0
C178 C 0.04343 0.76666 0.32442 0.0
C179 C 0.04193 0.83448 0.34566 0.0
C180 C 0.21794 0.9416 0.66413 0.0
C181 C 0.25762 0.99907 0.69206 0.0
C182 C 0.27387 0.93504 0.64004 0.0
C183 C 0.37124 0.98706 0.64285 0.0
H184 H 0.14319 0.90333 0.66042 0.0
H185 H 0.24088 0.89334 0.6183 0.0
S186 S 0.50995 0.14245 0.7118 0.0
N187 N 0.40081 0.10392 0.72183 0.0
N188 N 0.50526 0.09312 0.67618 0.0
C189 C 0.41169 0.04164 0.6711 0.0
C190 C 0.35504 0.04716 0.69584 0.0
C191 C 0.31964 0.24056 0.99494 0.0
C192 C 0.30536 0.2815 0.02296 0.0
C193 C 0.38092 0.29492 0.97097 0.0
C194 C 0.42831 0.39191 0.97397 0.0
H195 H 0.28185 0.16602 0.9912 0.0
H196 H 0.38754 0.26103 0.94927 0.0
S197 S 0.42069 0.5335 0.04312 0.0
N198 N 0.34912 0.42554 0.05295 0.0
N199 N 0.46153 0.5269 0.00745 0.0
C200 C 0.41723 0.43361 1.0022 0.0
C201 C 0.35653 0.37861 0.02684 0.0
C202 C 0.14284 0.37369 0.3397 0.0
C203 C 0.07301 0.28148 0.33194 0.0
C204 C 0.15676 0.44679 0.32033 0.0
C205 C 0.10096 0.42974 0.29275 0.0
H206 H 0.18501 0.38993 0.36139 0.0
H207 H 0.20879 0.51704 0.32765 0.0
S208 S 0.91986 0.19996 0.25894 0.0
N209 N 0.95554 0.17701 0.29252 0.0
N210 N 0.9812 0.31346 0.25655 0.0
C211 C 0.03469 0.33754 0.28384 0.0
C212 C 0.02078 0.26363 0.30333 0.0
loop_
_geom_bond_atom_site_label_1
_geom_bond_atom_site_label_2
_geom_bond_distance
_geom_bond_site_symmetry_2
_ccdc_geom_bond_type
C0 O1 1.160 . S
C0 O7 1.185 . S
O1 C0 1.160 . S
O2 Zn3 1.899 . S
O2 C10 1.284 1_455 S
Zn3 O2 1.899 . S
Zn3 O4 2.032 1_445 S
Zn3 O7 2.086 1_545 S
Zn3 O12 1.977 . S
O4 Zn3 2.032 1_665 S
O4 C8 1.278 . S
C5 O6 1.203 . S
C5 O12 1.267 . S
O6 C5 1.203 . S
O7 C0 1.185 . S
O7 Zn3 2.086 1_565 S
C8 O4 1.278 . S
C8 O9 1.211 1_565 S
O9 C8 1.211 1_545 S
C10 O2 1.284 1_655 S
C10 O11 1.273 . S
O11 C10 1.273 . S
O12 Zn3 1.977 . S
O12 C5 1.267 . S
C13 O14 1.160 . S
C13 O20 1.185 . S
O14 C13 1.160 . S
O15 Zn16 1.899 . S
O15 C23 1.284 1_545 S
Zn16 O15 1.899 . S
Zn16 O17 2.032 1_455 S
Zn16 O20 2.086 . S
Zn16 O25 1.977 . S
O17 Zn16 2.032 1_655 S
O17 C21 1.278 . S
C18 O19 1.203 . S
C18 O25 1.267 . S
O19 C18 1.203 . S
O20 C13 1.185 . S
O20 Zn16 2.086 . S
C21 O17 1.278 . S
C21 O22 1.211 . S
O22 C21 1.211 . S
C23 O15 1.284 1_565 S
C23 O24 1.273 1_455 S
O24 C23 1.273 1_655 S
O25 Zn16 1.977 . S
O25 C18 1.267 . S
C26 O27 1.160 . S
C26 O33 1.185 1_545 S
O27 C26 1.160 . S
O28 Zn29 1.899 1_655 S
O28 C36 1.284 . S
Zn29 O28 1.899 1_455 S
Zn29 O30 2.032 . S
Zn29 O33 2.086 1_545 S
Zn29 O38 1.977 1_445 S
O30 Zn29 2.032 . S
O30 C34 1.278 . S
C31 O32 1.203 . S
C31 O38 1.267 . S
O32 C31 1.203 . S
O33 C26 1.185 1_565 S
O33 Zn29 2.086 1_565 S
C34 O30 1.278 . S
C34 O35 1.211 . S
O35 C34 1.211 . S
C36 O28 1.284 . S
C36 O37 1.273 . S
O37 C36 1.273 . S
O38 Zn29 1.977 1_665 S
O38 C31 1.267 . S
C39 O41 1.247 . S
C39 O43 1.258 1_455 S
C40 O47 1.247 1_455 S
C40 O48 1.258 . S
O41 C39 1.247 . S
O41 Zn42 2.028 . S
Zn42 O41 2.028 . S
Zn42 O46 2.035 . S
Zn42 O48 2.035 . S
Zn42 O49 2.028 . S
O43 C39 1.258 1_655 S
O43 Zn44 2.035 . S
Zn44 O43 2.035 . S
Zn44 O45 2.028 . S
Zn44 O47 2.028 . S
Zn44 O50 2.035 . S
O45 Zn44 2.028 . S
O45 C51 1.247 1_655 S
O46 Zn42 2.035 . S
O46 C51 1.258 . S
O47 C40 1.247 1_655 S
O47 Zn44 2.028 . S
O48 C40 1.258 . S
O48 Zn42 2.035 . S
O49 Zn42 2.028 . S
O49 C52 1.247 . S
O50 Zn44 2.035 . S
O50 C52 1.258 1_655 S
C51 O45 1.247 1_455 S
C51 O46 1.258 . S
C52 O49 1.247 . S
C52 O50 1.258 1_455 S
C53 O55 1.247 1_545 S
C53 O57 1.258 . S
C54 O61 1.247 . S
C54 O62 1.258 1_545 S
O55 C53 1.247 1_565 S
O55 Zn56 2.028 . S
Zn56 O55 2.028 . S
Zn56 O60 2.035 . S
Zn56 O62 2.035 . S
Zn56 O63 2.028 . S
O57 C53 1.258 . S
O57 Zn58 2.035 . S
Zn58 O57 2.035 . S
Zn58 O59 2.028 . S
Zn58 O61 2.028 . S
Zn58 O64 2.035 . S
O59 Zn58 2.028 . S
O59 C65 1.247 . S
O60 Zn56 2.035 . S
O60 C65 1.258 1_565 S
O61 C54 1.247 . S
O61 Zn58 2.028 . S
O62 C54 1.258 1_565 S
O62 Zn56 2.035 . S
O63 Zn56 2.028 . S
O63 C66 1.247 1_565 S
O64 Zn58 2.035 . S
O64 C66 1.258 . S
C65 O59 1.247 . S
C65 O60 1.258 1_545 S
C66 O63 1.247 1_545 S
C66 O64 1.258 . S
C67 O69 1.247 . S
C67 O71 1.258 . S
C68 O75 1.247 . S
C68 O76 1.258 . S
O69 C67 1.247 . S
O69 Zn70 2.028 . S
Zn70 O69 2.028 . S
Zn70 O74 2.035 . S
Zn70 O76 2.035 . S
Zn70 O77 2.028 . S
O71 C67 1.258 . S
O71 Zn72 2.035 . S
Zn72 O71 2.035 . S
Zn72 O73 2.028 . S
Zn72 O75 2.028 . S
Zn72 O78 2.035 . S
O73 Zn72 2.028 . S
O73 C79 1.247 . S
O74 Zn70 2.035 . S
O74 C79 1.258 . S
O75 C68 1.247 . S
O75 Zn72 2.028 . S
O76 C68 1.258 . S
O76 Zn70 2.035 . S
O77 Zn70 2.028 . S
O77 C80 1.247 . S
O78 Zn72 2.035 . S
O78 C80 1.258 . S
C79 O73 1.247 . S
C79 O74 1.258 . S
C80 O77 1.247 . S
C80 O78 1.258 . S
C81 C82 1.369 1_655 S
C81 C83 1.419 . S
C81 H85 0.930 . S
C82 C81 1.369 1_455 S
C82 C91 1.429 . S
C83 C81 1.419 . S
C83 C84 1.363 1_655 S
C83 H86 0.929 . S
C84 C83 1.363 1_455 S
C84 C90 1.428 . S
H85 C81 0.930 . S
H86 C83 0.929 . S
S87 N88 1.613 . S
S87 N89 1.610 . S
N88 S87 1.613 . S
N88 C91 1.350 . S
N89 S87 1.610 . S
N89 C90 1.351 . S
C90 C84 1.428 . S
C90 N89 1.351 . S
C90 C91 1.434 . S
C91 C82 1.429 . S
C91 N88 1.350 . S
C91 C90 1.434 . S
C92 C93 1.369 . S
C92 C94 1.419 . S
C92 H96 0.930 . S
C93 C92 1.369 . S
C93 C102 1.429 1_545 S
C94 C92 1.419 . S
C94 C95 1.363 . S
C94 H97 0.929 . S
C95 C94 1.363 . S
C95 C101 1.428 1_545 S
H96 C92 0.930 . S
H97 C94 0.929 . S
S98 N99 1.613 . S
S98 N100 1.610 . S
N99 S98 1.613 . S
N99 C102 1.350 . S
N100 S98 1.610 . S
N100 C101 1.351 . S
C101 C95 1.428 1_565 S
C101 N100 1.351 . S
C101 C102 1.434 . S
C102 C93 1.429 1_565 S
C102 N99 1.350 . S
C102 C101 1.434 . S
C103 C104 1.369 . S
C103 C105 1.419 . S
C103 H107 0.930 . S
C104 C103 1.369 . S
C104 C113 1.429 . S
C105 C103 1.419 . S
C105 C106 1.363 . S
C105 H108 0.929 . S
C106 C105 1.363 . S
C106 C112 1.428 . S
H107 C103 0.930 . S
H108 C105 0.929 . S
S109 N110 1.613 . S
S109 N111 1.610 . S
N110 S109 1.613 . S
N110 C113 1.350 . S
N111 S109 1.610 . S
N111 C112 1.351 . S
C112 C106 1.428 . S
C112 N111 1.351 . S
C112 C113 1.434 . S
C113 C104 1.429 . S
C113 N110 1.350 . S
C113 C112 1.434 . S
C114 C115 1.369 . S
C114 C116 1.419 . S
C114 H118 0.930 . S
C115 C114 1.369 . S
C115 C124 1.429 . S
C116 C114 1.419 . S
C116 C117 1.363 . S
C116 H119 0.929 . S
C117 C116 1.363 . S
C117 C123 1.428 1_455 S
H118 C114 0.930 . S
H119 C116 0.929 . S
S120 N121 1.613 . S
S120 N122 1.610 . S
N121 S120 1.613 . S
N121 C124 1.350 1_655 S
N122 S120 1.610 . S
N122 C123 1.351 . S
C123 C117 1.428 1_655 S
C123 N122 1.351 . S
C123 C124 1.434 1_655 S
C124 C115 1.429 . S
C124 N121 1.350 1_455 S
C124 C123 1.434 1_455 S
C125 C126 1.369 . S
C125 C127 1.419 . S
C125 H129 0.930 . S
C126 C125 1.369 . S
C126 C135 1.429 . S
C127 C125 1.419 . S
C127 C128 1.363 . S
C127 H130 0.929 . S
C128 C127 1.363 . S
C128 C134 1.428 . S
H129 C125 0.930 . S
H130 C127 0.929 . S
S131 N132 1.613 1_565 S
S131 N133 1.610 1_565 S
N132 S131 1.613 1_545 S
N132 C135 1.350 . S
N133 S131 1.610 1_545 S
N133 C134 1.351 . S
C134 C128 1.428 . S
C134 N133 1.351 . S
C134 C135 1.434 . S
C135 C126 1.429 . S
C135 N132 1.350 . S
C135 C134 1.434 . S
C136 C137 1.369 . S
C136 C138 1.419 . S
C136 H140 0.930 . S
C137 C136 1.369 . S
C137 C146 1.429 . S
C138 C136 1.419 . S
C138 C139 1.363 . S
C138 H141 0.929 . S
C139 C138 1.363 . S
C139 C145 1.428 . S
H140 C136 0.930 . S
H141 C138 0.929 . S
S142 N143 1.613 . S
S142 N144 1.610 . S
N143 S142 1.613 . S
N143 C146 1.350 . S
N144 S142 1.610 . S
N144 C145 1.351 . S
C145 C139 1.428 . S
C145 N144 1.351 . S
C145 C146 1.434 . S
C146 C137 1.429 . S
C146 N143 1.350 . S
C146 C145 1.434 . S
C147 C148 1.369 . S
C147 C149 1.419 . S
C147 H151 0.930 . S
C148 C147 1.369 . S
C148 C157 1.429 . S
C149 C147 1.419 . S
C149 C150 1.363 . S
C149 H152 0.929 . S
C150 C149 1.363 . S
C150 C156 1.428 . S
H151 C147 0.930 . S
H152 C149 0.929 . S
S153 N154 1.613 . S
S153 N155 1.610 . S
N154 S153 1.613 . S
N154 C157 1.350 . S
N155 S153 1.610 . S
N155 C156 1.351 . S
C156 C150 1.428 . S
C156 N155 1.351 . S
C156 C157 1.434 . S
C157 C148 1.429 . S
C157 N154 1.350 . S
C157 C156 1.434 . S
C158 C159 1.369 1_556 S
C158 C160 1.419 . S
C158 H162 0.930 . S
C159 C158 1.369 1_554 S
C159 C168 1.429 . S
C160 C158 1.419 . S
C160 C161 1.363 . S
C160 H163 0.929 . S
C161 C160 1.363 . S
C161 C167 1.428 . S
H162 C158 0.930 . S
H163 C160 0.929 . S
S164 N165 1.613 . S
S164 N166 1.609 . S
N165 S164 1.613 . S
N165 C168 1.350 . S
N166 S164 1.609 . S
N166 C167 1.351 1_554 S
C167 C161 1.428 . S
C167 N166 1.351 1_556 S
C167 C168 1.434 1_556 S
C168 C159 1.429 . S
C168 N165 1.350 . S
C168 C167 1.434 1_554 S
C169 C170 1.369 1_655 S
C169 C171 1.419 . S
C169 H173 0.930 . S
C170 C169 1.369 1_455 S
C170 C179 1.429 . S
C171 C169 1.419 . S
C171 C172 1.363 1_655 S
C171 H174 0.929 . S
C172 C171 1.363 1_455 S
C172 C178 1.428 . S
H173 C169 0.930 . S
H174 C171 0.929 . S
S175 N176 1.613 . S
S175 N177 1.610 . S
N176 S175 1.613 . S
N176 C179 1.350 . S
N177 S175 1.610 . S
N177 C178 1.351 . S
C178 C172 1.428 . S
C178 N177 1.351 . S
C178 C179 1.434 . S
C179 C170 1.429 . S
C179 N176 1.350 . S
C179 C178 1.434 . S
C180 C181 1.369 1_565 S
C180 C182 1.419 . S
C180 H184 0.930 . S
C181 C180 1.369 1_545 S
C181 C190 1.429 . S
C182 C180 1.419 . S
C182 C183 1.363 1_565 S
C182 H185 0.929 . S
C183 C182 1.363 1_545 S
C183 C189 1.428 . S
H184 C180 0.930 . S
H185 C182 0.929 . S
S186 N187 1.613 . S
S186 N188 1.610 . S
N187 S186 1.613 . S
N187 C190 1.350 . S
N188 S186 1.610 . S
N188 C189 1.351 . S
C189 C183 1.428 . S
C189 N188 1.351 . S
C189 C190 1.434 . S
C190 C181 1.429 . S
C190 N187 1.350 . S
C190 C189 1.434 . S
C191 C192 1.369 1_556 S
C191 C193 1.419 . S
C191 H195 0.930 . S
C192 C191 1.369 1_554 S
C192 C201 1.429 . S
C193 C191 1.419 . S
C193 C194 1.363 . S
C193 H196 0.929 . S
C194 C193 1.363 . S
C194 C200 1.428 . S
H195 C191 0.930 . S
H196 C193 0.929 . S
S197 N198 1.613 . S
S197 N199 1.610 . S
N198 S197 1.613 . S
N198 C201 1.350 . S
N199 S197 1.610 . S
N199 C200 1.351 1_554 S
C200 C194 1.428 . S
C200 N199 1.351 1_556 S
C200 C201 1.434 1_556 S
C201 C192 1.429 . S
C201 N198 1.350 . S
C201 C200 1.434 1_554 S
C202 C203 1.369 . S
C202 C204 1.419 . S
C202 H206 0.930 . S
C203 C202 1.369 . S
C203 C212 1.429 1_455 S
C204 C202 1.419 . S
C204 C205 1.363 . S
C204 H207 0.929 . S
C205 C204 1.363 . S
C205 C211 1.428 1_455 S
H206 C202 0.930 . S
H207 C204 0.929 . S
S208 N209 1.613 . S
S208 N210 1.610 . S
N209 S208 1.613 . S
N209 C212 1.350 . S
N210 S208 1.610 . S
N210 C211 1.351 . S
C211 C205 1.428 1_655 S
C211 N210 1.351 . S
C211 C212 1.434 . S
C212 C203 1.429 1_655 S
C212 N209 1.350 . S
C212 C211 1.434 . S
C84 C40 1.444 . S
C82 C10 1.446 1_455 S
C93 C21 1.452 . S
C95 C66 1.490 . S
C104 C31 1.385 . S
C106 C68 1.471 . S
C115 C0 1.392 . S
C117 C52 1.458 . S
C128 C54 1.468 . S
C126 C18 1.385 . S
C137 C34 1.408 . S
C139 C80 1.446 . S
C150 C53 1.444 . S
C148 C36 1.449 . S
C159 C8 1.407 . S
C161 C79 1.448 . S
C172 C39 1.447 . S
C170 C23 1.448 . S
C183 C65 1.412 . S
C181 C26 1.347 . S
C194 C67 1.473 . S
C192 C5 1.387 . S
C203 C13 1.396 . S
C205 C51 1.467 . S
