# Generated by pormake.
# Topology bcu-b, (8,8)-cn, num edge types: 1
# Building blocks:
#     Node 0, Type 0, BuildingBlock: TAGTUT_clean_sbu_3, # of connection points: 8
#     Node 1, Type 1, BuildingBlock: GIZVER_clean_sbu_0, # of connection points: 8
#     Edge 2, Type (0, 1), BuildingBlock: EZIPEK_clean_linker_0, # of connection points: 2
#     Edge 3, Type (0, 1), BuildingBlock: EZIPEK_clean_linker_0, # of connection points: 2
#     Edge 4, Type (0, 1), BuildingBlock: EZIPEK_clean_linker_0, # of connection points: 2
#     Edge 5, Type (0, 1), BuildingBlock: EZIPEK_clean_linker_0, # of connection points: 2
#     Edge 6, Type (0, 1), BuildingBlock: EZIPEK_clean_linker_0, # of connection points: 2
#     Edge 7, Type (0, 1), BuildingBlock: EZIPEK_clean_linker_0, # of connection points: 2
#     Edge 8, Type (0, 1), BuildingBlock: EZIPEK_clean_linker_0, # of connection points: 2
#     Edge 9, Type (0, 1), BuildingBlock: EZIPEK_clean_linker_0, # of connection points: 2
# Relax obj value: 0.084
# Max RMSD: 0.157
# Mean RMSD: 0.153
data_MOF--net-bcu-b--node1-TAGTUT_clean_sbu_3--node2-GIZVER_clean_sbu_0--edge1-EZIPEK_clean_linker_0
_symmetry_space_group_name_H-M    P1
_symmetry_Int_Tables_number       1
_symmetry_cell_setting            triclinic
loop_
_symmetry_equiv_pos_as_xyz
'x, y, z'
_cell_length_a     16.493092
_cell_length_b     17.714133
_cell_length_c     13.528215
_cell_angle_alpha  90.249872
_cell_angle_beta   91.20583
_cell_angle_gamma 113.03695
loop_
_atom_site_label
_atom_site_type_symbol
_atom_site_fract_x
_atom_site_fract_y
_atom_site_fract_z
_atom_type_partial_charge
C0 C 0.16807 0.14285 0.11382 0.0
C1 C 0.2027 0.86696 0.08643 0.0
C2 C 0.09376 0.83436 0.80105 0.0
Mg3 Mg 0.01003 0.19303 0.02013 0.0
Mg4 Mg 0.80842 0.05404 -0.00151 0.0
O5 O 0.92736 0.08343 0.97247 0.0
Mg6 Mg 0.99358 0.01316 -0.00269 0.0
O7 O 0.06736 0.94965 0.02131 0.0
Mg8 Mg 0.17549 0.00987 0.94487 0.0
Mg9 Mg 0.01693 0.83668 -0.00314 0.0
C10 C 0.80392 0.89362 0.88897 0.0
O11 O 0.90489 0.93655 0.12259 0.0
O12 O 0.92794 0.24355 0.91542 0.0
O13 O 0.89757 0.81123 0.07604 0.0
O14 O 0.92462 0.19792 0.15095 0.0
O15 O 0.79598 0.14026 0.8989 0.0
O16 O 0.78974 0.09911 0.14252 0.0
O17 O 0.08953 0.07302 0.86595 0.0
O18 O 0.09265 0.19746 0.89243 0.0
C19 C 0.11549 0.1487 0.84231 0.0
C20 C 0.85125 0.2106 0.87321 0.0
O21 O 0.88849 0.9158 0.89466 0.0
O22 O 0.23741 0.93783 0.04559 0.0
O23 O 0.76246 0.93115 0.93431 0.0
O24 O 0.14932 0.90475 0.82927 0.0
O25 O 0.12134 0.81938 0.07475 0.0
O26 O 0.0215 0.79983 0.84563 0.0
O27 O 0.08397 0.11946 0.10573 0.0
O28 O 0.20864 0.11097 0.05912 0.0
C29 C 0.84697 0.16336 0.18411 0.0
C30 C 0.872 0.85758 0.12931 0.0
Co31 Co 0.59449 0.38161 0.46448 0.0
Co32 Co 0.58357 0.43607 0.64097 0.0
Co33 Co 0.49092 0.5155 0.49921 0.0
O34 O 0.59237 0.48183 0.51692 0.0
H35 H 0.64866 0.5274 0.51226 0.0
O36 O 0.39139 0.55209 0.48154 0.0
Co37 Co 0.39137 0.65142 0.53758 0.0
Co38 Co 0.3975 0.60027 0.36102 0.0
H39 H 0.33449 0.50901 0.49125 0.0
O40 O 0.68219 0.44827 0.70981 0.0
O41 O 0.60205 0.3448 0.60312 0.0
O42 O 0.4738 0.39463 0.70653 0.0
O43 O 0.40519 0.42314 0.57846 0.0
O44 O 0.5344 0.58818 0.61771 0.0
O45 O 0.3792 0.73818 0.59321 0.0
O46 O 0.27318 0.61998 0.53801 0.0
O47 O 0.51749 0.69642 0.55251 0.0
O48 O 0.57596 0.60668 0.41886 0.0
O49 O 0.50287 0.62454 0.28772 0.0
O50 O 0.39425 0.69921 0.40101 0.0
O51 O 0.30094 0.60123 0.29568 0.0
C52 C 0.68787 0.33776 0.42041 0.0
C53 C 0.42696 0.36321 0.39022 0.0
C54 C 0.40401 0.38441 0.65792 0.0
C55 C 0.66702 0.37763 0.66815 0.0
C56 C 0.29602 0.69099 0.58302 0.0
C57 C 0.5551 0.66545 0.61439 0.0
C58 C 0.57439 0.63705 0.33405 0.0
C59 C 0.33325 0.67596 0.33045 0.0
O60 O 0.6044 0.29221 0.4168 0.0
O61 O 0.71399 0.41214 0.45784 0.0
O62 O 0.44659 0.44036 0.38203 0.0
O63 O 0.46752 0.33594 0.45368 0.0
C64 C 0.29245 0.17447 0.23651 0.0
C65 C 0.22132 0.19343 0.19947 0.0
C66 C 0.27216 0.31151 0.31343 0.0
C67 C 0.35433 0.30392 0.32702 0.0
N68 N 0.44778 0.237 0.27133 0.0
N69 N 0.15033 0.29021 0.19994 0.0
C70 C 0.36598 0.23741 0.28082 0.0
C71 C 0.21245 0.26477 0.23733 0.0
N72 N 0.28995 0.09664 0.23046 0.0
N73 N 0.24858 0.359 0.37643 0.0
H74 H 0.1072 0.25941 0.14285 0.0
H75 H 0.14756 0.34602 0.22018 0.0
H76 H 0.28556 0.38361 0.44039 0.0
H77 H 0.1869 0.36247 0.37328 0.0
H78 H 0.33983 0.08099 0.26101 0.0
H79 H 0.23341 0.04683 0.20702 0.0
H80 H 0.45855 0.19041 0.23351 0.0
H81 H 0.50418 0.28938 0.28641 0.0
C82 C 0.77966 0.17855 0.34574 0.0
C83 C 0.81727 0.21182 0.25474 0.0
C84 C 0.80087 0.34066 0.2965 0.0
C85 C 0.74914 0.30248 0.37845 0.0
N86 N 0.68744 0.18288 0.48077 0.0
N87 N 0.84657 0.31951 0.13412 0.0
C88 C 0.73879 0.22093 0.40344 0.0
C89 C 0.82441 0.29196 0.22808 0.0
N90 N 0.78395 0.10705 0.37752 0.0
N91 N 0.82604 0.42287 0.28174 0.0
H92 H 0.85863 0.28466 0.07859 0.0
H93 H 0.84288 0.37324 0.10763 0.0
H94 H 0.81051 0.46133 0.32908 0.0
H95 H 0.871 0.45465 0.22843 0.0
H96 H 0.76581 0.08356 0.4478 0.0
H97 H 0.81284 0.07466 0.3363 0.0
H98 H 0.66767 0.12059 0.49505 0.0
H99 H 0.6607 0.21309 0.5279 0.0
C100 C 0.80992 0.74459 0.24937 0.0
C101 C 0.80443 0.81456 0.2032 0.0
C102 C 0.66091 0.77977 0.27703 0.0
C103 C 0.65674 0.69973 0.29657 0.0
N104 N 0.72887 0.60451 0.29852 0.0
N105 N 0.71856 0.89672 0.17137 0.0
C106 C 0.7321 0.68179 0.28321 0.0
C107 C 0.72881 0.83257 0.21747 0.0
N108 N 0.88979 0.73906 0.26226 0.0
N109 N 0.60293 0.807 0.31957 0.0
H110 H 0.76594 0.93803 0.12744 0.0
H111 H 0.65946 0.9052 0.17155 0.0
H112 H 0.55642 0.77168 0.36938 0.0
H113 H 0.60818 0.86746 0.31444 0.0
H114 H 0.89814 0.69228 0.30214 0.0
H115 H 0.94873 0.78653 0.2433 0.0
H116 H 0.78009 0.587 0.28 0.0
H117 H 0.67235 0.55617 0.32135 0.0
C118 C 0.21489 0.81188 0.25068 0.0
C119 C 0.25364 0.83919 0.15812 0.0
C120 C 0.35955 0.77668 0.19248 0.0
C121 C 0.31027 0.73755 0.27625 0.0
N122 N 0.17803 0.70375 0.37 0.0
N123 N 0.35992 0.84366 0.03629 0.0
C124 C 0.23459 0.75155 0.30179 0.0
C125 C 0.32651 0.82208 0.12832 0.0
N126 N 0.15811 0.84293 0.28881 0.0
N127 N 0.43634 0.76829 0.17242 0.0
H128 H 0.338 0.87749 0.98768 0.0
H129 H 0.40559 0.82378 0.0055 0.0
H130 H 0.45864 0.7303 0.21298 0.0
H131 H 0.48036 0.80275 0.11981 0.0
H132 H 0.13331 0.82973 0.35976 0.0
H133 H 0.14369 0.88861 0.25335 0.0
H134 H 0.11759 0.7069 0.38437 0.0
H135 H 0.18737 0.65542 0.40484 0.0
C136 C 0.16629 0.8233 0.64348 0.0
C137 C 0.12553 0.78622 0.73194 0.0
C138 C 0.17542 0.67379 0.70325 0.0
C139 C 0.22878 0.71847 0.62513 0.0
N140 N 0.28004 0.8401 0.52499 0.0
N141 N 0.10614 0.68205 0.85581 0.0
C142 C 0.22528 0.79433 0.59605 0.0
C143 C 0.13232 0.71209 0.7636 0.0
N144 N 0.14805 0.88617 0.60465 0.0
N145 N 0.16859 0.59599 0.72341 0.0
H146 H 0.07799 0.70842 0.90624 0.0
H147 H 0.12054 0.63495 0.88707 0.0
H148 H 0.20413 0.5672 0.68764 0.0
H149 H 0.12214 0.55739 0.77111 0.0
H150 H 0.16915 0.91125 0.53571 0.0
H151 H 0.1042 0.90762 0.63734 0.0
H152 H 0.28806 0.90003 0.50901 0.0
H153 H 0.32134 0.81988 0.48526 0.0
C154 C 0.16478 0.25737 0.71691 0.0
C155 C 0.17333 0.18709 0.75772 0.0
C156 C 0.32178 0.23472 0.69346 0.0
C157 C 0.32162 0.31479 0.68358 0.0
N158 N 0.23947 0.40184 0.68362 0.0
N159 N 0.25224 0.09842 0.76046 0.0
C160 C 0.24156 0.3258 0.69229 0.0
C161 C 0.24934 0.17206 0.73787 0.0
N162 N 0.08293 0.25854 0.70443 0.0
N163 N 0.3883 0.21734 0.65473 0.0
H164 H 0.195 0.04737 0.77282 0.0
H165 H 0.31008 0.08783 0.7632 0.0
H166 H 0.43923 0.26035 0.61617 0.0
H167 H 0.38815 0.15855 0.65125 0.0
H168 H 0.07162 0.30565 0.66869 0.0
H169 H 0.02598 0.2076 0.72071 0.0
H170 H 0.18392 0.41371 0.69903 0.0
H171 H 0.29512 0.45446 0.66966 0.0
C172 C 0.86246 0.33814 0.77271 0.0
C173 C 0.82068 0.25299 0.7937 0.0
C174 C 0.68276 0.24803 0.72141 0.0
C175 C 0.72169 0.33285 0.70171 0.0
N176 N 0.85654 0.45087 0.67549 0.0
N177 N 0.71312 0.1262 0.72411 0.0
C178 C 0.81423 0.37593 0.71738 0.0
C179 C 0.73806 0.20747 0.74667 0.0
N180 N 0.94734 0.38293 0.80291 0.0
N181 N 0.59358 0.20628 0.72192 0.0
H182 H 0.75669 0.09671 0.73154 0.0
H183 H 0.65433 0.09242 0.68577 0.0
H184 H 0.54973 0.23515 0.71539 0.0
H185 H 0.56439 0.14477 0.74185 0.0
H186 H 0.9743 0.44684 0.80496 0.0
H187 H 0.9917 0.3568 0.82289 0.0
H188 H 0.92482 0.48192 0.67703 0.0
H189 H 0.82414 0.47791 0.62967 0.0
C190 C 0.67864 0.75939 0.85482 0.0
C191 C 0.75045 0.82764 0.81878 0.0
C192 C 0.70172 0.78143 0.64851 0.0
C193 C 0.6237 0.71983 0.68458 0.0
N194 N 0.53174 0.65691 0.82247 0.0
N195 N 0.82383 0.91092 0.68075 0.0
C196 C 0.61078 0.71001 0.78797 0.0
C197 C 0.76092 0.84028 0.71542 0.0
N198 N 0.67579 0.7416 0.95316 0.0
N199 N 0.72051 0.78269 0.55057 0.0
H200 H 0.86894 0.9561 0.72639 0.0
H201 H 0.82688 0.92799 0.60689 0.0
H202 H 0.67876 0.74081 0.49943 0.0
H203 H 0.78088 0.82017 0.52176 0.0
H204 H 0.63005 0.68819 0.98298 0.0
H205 H 0.72465 0.7768 0.00361 0.0
H206 H 0.51503 0.65383 0.89658 0.0
H207 H 0.47931 0.62094 0.77626 0.0
loop_
_geom_bond_atom_site_label_1
_geom_bond_atom_site_label_2
_geom_bond_distance
_geom_bond_site_symmetry_2
_ccdc_geom_bond_type
C0 O27 1.312 . S
C0 O28 1.208 . S
C1 O22 1.331 . S
C1 O25 1.244 . S
C2 O24 1.264 . S
C2 O26 1.273 . S
Mg3 O5 1.936 . S
Mg3 O12 2.082 . S
Mg3 O14 2.024 1_556 S
Mg3 O18 2.030 1_655 S
Mg3 O27 2.291 1_656 S
Mg4 O5 1.963 . S
Mg4 O15 1.942 . S
Mg4 O16 1.955 1_556 S
Mg4 O23 1.986 1_545 S
O5 Mg3 1.936 . S
O5 Mg4 1.963 . S
O5 Mg6 1.913 1_556 S
Mg6 O5 1.913 1_554 S
Mg6 O7 1.917 1_645 S
Mg6 O11 2.019 1_545 S
Mg6 O17 2.109 1_654 S
Mg6 O21 2.007 1_544 S
Mg6 O27 2.119 1_655 S
O7 Mg6 1.917 1_465 S
O7 Mg8 1.936 1_565 S
O7 Mg9 1.963 . S
Mg8 O7 1.936 1_545 S
Mg8 O17 2.291 1_554 S
Mg8 O22 2.081 1_545 S
Mg8 O24 2.023 1_544 S
Mg8 O28 2.031 . S
Mg9 O7 1.963 . S
Mg9 O13 1.986 1_455 S
Mg9 O25 1.942 . S
Mg9 O26 1.955 1_554 S
C10 O21 1.191 . S
C10 O23 1.307 . S
O11 Mg6 2.019 1_565 S
O11 C30 1.191 . S
O12 Mg3 2.082 . S
O12 C20 1.331 . S
O13 Mg9 1.986 1_655 S
O13 C30 1.307 . S
O14 Mg3 2.024 1_554 S
O14 C29 1.264 . S
O15 Mg4 1.942 . S
O15 C20 1.244 . S
O16 Mg4 1.955 1_554 S
O16 C29 1.273 . S
O17 Mg6 2.109 1_456 S
O17 Mg8 2.291 1_556 S
O17 C19 1.312 . S
O18 Mg3 2.030 1_455 S
O18 C19 1.208 . S
C19 O17 1.312 . S
C19 O18 1.208 . S
C20 O12 1.331 . S
C20 O15 1.244 . S
O21 Mg6 2.007 1_566 S
O21 C10 1.191 . S
O22 C1 1.331 . S
O22 Mg8 2.081 1_565 S
O23 Mg4 1.986 1_565 S
O23 C10 1.307 . S
O24 C2 1.264 . S
O24 Mg8 2.023 1_566 S
O25 C1 1.244 . S
O25 Mg9 1.942 . S
O26 C2 1.273 . S
O26 Mg9 1.955 1_556 S
O27 C0 1.312 . S
O27 Mg3 2.291 1_454 S
O27 Mg6 2.119 1_455 S
O28 C0 1.208 . S
O28 Mg8 2.031 . S
C29 O14 1.264 . S
C29 O16 1.273 . S
C30 O11 1.191 . S
C30 O13 1.307 . S
Co31 O34 2.042 . S
Co31 O41 2.264 . S
Co31 O60 2.286 . S
Co31 O61 2.069 . S
Co31 O63 2.015 . S
Co32 O34 2.122 . S
Co32 O40 2.073 . S
Co32 O41 2.327 . S
Co32 O42 1.976 . S
Co33 O34 2.087 . S
Co33 O36 2.087 . S
Co33 O43 2.111 . S
Co33 O44 2.143 . S
Co33 O48 2.111 . S
Co33 O62 2.143 . S
O34 Co31 2.042 . S
O34 Co32 2.122 . S
O34 Co33 2.087 . S
O34 H35 0.980 . S
H35 O34 0.980 . S
O36 Co33 2.087 . S
O36 Co37 2.042 . S
O36 Co38 2.122 . S
O36 H39 0.980 . S
Co37 O36 2.042 . S
Co37 O45 2.286 . S
Co37 O46 2.069 . S
Co37 O47 2.015 . S
Co37 O50 2.264 . S
Co38 O36 2.122 . S
Co38 O49 1.976 . S
Co38 O50 2.327 . S
Co38 O51 2.073 . S
H39 O36 0.980 . S
O40 Co32 2.073 . S
O40 C55 1.245 . S
O41 Co31 2.264 . S
O41 Co32 2.327 . S
O41 C55 1.257 . S
O42 Co32 1.976 . S
O42 C54 1.251 . S
O43 Co33 2.111 . S
O43 C54 1.274 . S
O44 Co33 2.143 . S
O44 C57 1.246 . S
O45 Co37 2.286 . S
O45 C56 1.259 . S
O46 Co37 2.069 . S
O46 C56 1.289 . S
O47 Co37 2.015 . S
O47 C57 1.257 . S
O48 Co33 2.111 . S
O48 C58 1.274 . S
O49 Co38 1.976 . S
O49 C58 1.251 . S
O50 Co37 2.264 . S
O50 Co38 2.327 . S
O50 C59 1.257 . S
O51 Co38 2.073 . S
O51 C59 1.245 . S
C52 O60 1.259 . S
C52 O61 1.289 . S
C53 O62 1.246 . S
C53 O63 1.257 . S
C54 O42 1.251 . S
C54 O43 1.274 . S
C55 O40 1.245 . S
C55 O41 1.257 . S
C56 O45 1.259 . S
C56 O46 1.289 . S
C57 O44 1.246 . S
C57 O47 1.257 . S
C58 O48 1.274 . S
C58 O49 1.251 . S
C59 O50 1.257 . S
C59 O51 1.245 . S
O60 Co31 2.286 . S
O60 C52 1.259 . S
O61 Co31 2.069 . S
O61 C52 1.289 . S
O62 Co33 2.143 . S
O62 C53 1.246 . S
O63 Co31 2.015 . S
O63 C53 1.257 . S
C64 C65 1.363 . S
C64 C70 1.379 . S
C64 N72 1.356 . S
C65 C64 1.363 . S
C65 C71 1.363 . S
C66 C67 1.363 . S
C66 C71 1.379 . S
C66 N73 1.356 . S
C67 C66 1.363 . S
C67 C70 1.363 . S
N68 C70 1.356 . S
N68 H80 0.984 . S
N68 H81 0.985 . S
N69 C71 1.356 . S
N69 H74 0.984 . S
N69 H75 0.985 . S
C70 C64 1.379 . S
C70 C67 1.363 . S
C70 N68 1.356 . S
C71 C65 1.363 . S
C71 C66 1.379 . S
C71 N69 1.356 . S
N72 C64 1.356 . S
N72 H78 0.984 . S
N72 H79 0.984 . S
N73 C66 1.356 . S
N73 H76 0.984 . S
N73 H77 0.985 . S
H74 N69 0.984 . S
H75 N69 0.985 . S
H76 N73 0.984 . S
H77 N73 0.985 . S
H78 N72 0.984 . S
H79 N72 0.984 . S
H80 N68 0.984 . S
H81 N68 0.985 . S
C82 C83 1.363 . S
C82 C88 1.379 . S
C82 N90 1.356 . S
C83 C82 1.363 . S
C83 C89 1.363 . S
C84 C85 1.363 . S
C84 C89 1.379 . S
C84 N91 1.356 . S
C85 C84 1.363 . S
C85 C88 1.363 . S
N86 C88 1.356 . S
N86 H98 0.984 . S
N86 H99 0.985 . S
N87 C89 1.356 . S
N87 H92 0.984 . S
N87 H93 0.985 . S
C88 C82 1.379 . S
C88 C85 1.363 . S
C88 N86 1.356 . S
C89 C83 1.363 . S
C89 C84 1.379 . S
C89 N87 1.356 . S
N90 C82 1.356 . S
N90 H96 0.984 . S
N90 H97 0.984 . S
N91 C84 1.356 . S
N91 H94 0.984 . S
N91 H95 0.985 . S
H92 N87 0.984 . S
H93 N87 0.985 . S
H94 N91 0.984 . S
H95 N91 0.985 . S
H96 N90 0.984 . S
H97 N90 0.984 . S
H98 N86 0.984 . S
H99 N86 0.985 . S
C100 C101 1.363 . S
C100 C106 1.379 . S
C100 N108 1.356 . S
C101 C100 1.363 . S
C101 C107 1.363 . S
C102 C103 1.363 . S
C102 C107 1.379 . S
C102 N109 1.356 . S
C103 C102 1.363 . S
C103 C106 1.363 . S
N104 C106 1.356 . S
N104 H116 0.984 . S
N104 H117 0.985 . S
N105 C107 1.356 . S
N105 H110 0.984 . S
N105 H111 0.985 . S
C106 C100 1.379 . S
C106 C103 1.363 . S
C106 N104 1.356 . S
C107 C101 1.363 . S
C107 C102 1.379 . S
C107 N105 1.356 . S
N108 C100 1.356 . S
N108 H114 0.984 . S
N108 H115 0.984 . S
N109 C102 1.356 . S
N109 H112 0.984 . S
N109 H113 0.985 . S
H110 N105 0.984 . S
H111 N105 0.985 . S
H112 N109 0.984 . S
H113 N109 0.985 . S
H114 N108 0.984 . S
H115 N108 0.984 . S
H116 N104 0.984 . S
H117 N104 0.985 . S
C118 C119 1.363 . S
C118 C124 1.379 . S
C118 N126 1.356 . S
C119 C118 1.363 . S
C119 C125 1.363 . S
C120 C121 1.363 . S
C120 C125 1.379 . S
C120 N127 1.356 . S
C121 C120 1.363 . S
C121 C124 1.363 . S
N122 C124 1.356 . S
N122 H134 0.984 . S
N122 H135 0.985 . S
N123 C125 1.356 . S
N123 H128 0.984 . S
N123 H129 0.985 . S
C124 C118 1.379 . S
C124 C121 1.363 . S
C124 N122 1.356 . S
C125 C119 1.363 . S
C125 C120 1.379 . S
C125 N123 1.356 . S
N126 C118 1.356 . S
N126 H132 0.984 . S
N126 H133 0.984 . S
N127 C120 1.356 . S
N127 H130 0.984 . S
N127 H131 0.985 . S
H128 N123 0.984 . S
H129 N123 0.985 . S
H130 N127 0.984 . S
H131 N127 0.985 . S
H132 N126 0.984 . S
H133 N126 0.984 . S
H134 N122 0.984 . S
H135 N122 0.985 . S
C136 C137 1.363 . S
C136 C142 1.379 . S
C136 N144 1.356 . S
C137 C136 1.363 . S
C137 C143 1.363 . S
C138 C139 1.363 . S
C138 C143 1.379 . S
C138 N145 1.356 . S
C139 C138 1.363 . S
C139 C142 1.363 . S
N140 C142 1.356 . S
N140 H152 0.984 . S
N140 H153 0.985 . S
N141 C143 1.356 . S
N141 H146 0.984 . S
N141 H147 0.985 . S
C142 C136 1.379 . S
C142 C139 1.363 . S
C142 N140 1.356 . S
C143 C137 1.363 . S
C143 C138 1.379 . S
C143 N141 1.356 . S
N144 C136 1.356 . S
N144 H150 0.984 . S
N144 H151 0.984 . S
N145 C138 1.356 . S
N145 H148 0.984 . S
N145 H149 0.985 . S
H146 N141 0.984 . S
H147 N141 0.985 . S
H148 N145 0.984 . S
H149 N145 0.985 . S
H150 N144 0.984 . S
H151 N144 0.984 . S
H152 N140 0.984 . S
H153 N140 0.985 . S
C154 C155 1.363 . S
C154 C160 1.379 . S
C154 N162 1.356 . S
C155 C154 1.363 . S
C155 C161 1.363 . S
C156 C157 1.363 . S
C156 C161 1.379 . S
C156 N163 1.356 . S
C157 C156 1.363 . S
C157 C160 1.363 . S
N158 C160 1.356 . S
N158 H170 0.984 . S
N158 H171 0.985 . S
N159 C161 1.356 . S
N159 H164 0.984 . S
N159 H165 0.985 . S
C160 C154 1.379 . S
C160 C157 1.363 . S
C160 N158 1.356 . S
C161 C155 1.363 . S
C161 C156 1.379 . S
C161 N159 1.356 . S
N162 C154 1.356 . S
N162 H168 0.984 . S
N162 H169 0.984 . S
N163 C156 1.356 . S
N163 H166 0.984 . S
N163 H167 0.985 . S
H164 N159 0.984 . S
H165 N159 0.985 . S
H166 N163 0.984 . S
H167 N163 0.985 . S
H168 N162 0.984 . S
H169 N162 0.984 . S
H170 N158 0.984 . S
H171 N158 0.985 . S
C172 C173 1.363 . S
C172 C178 1.379 . S
C172 N180 1.356 . S
C173 C172 1.363 . S
C173 C179 1.363 . S
C174 C175 1.363 . S
C174 C179 1.379 . S
C174 N181 1.356 . S
C175 C174 1.363 . S
C175 C178 1.363 . S
N176 C178 1.356 . S
N176 H188 0.984 . S
N176 H189 0.985 . S
N177 C179 1.356 . S
N177 H182 0.984 . S
N177 H183 0.985 . S
C178 C172 1.379 . S
C178 C175 1.363 . S
C178 N176 1.356 . S
C179 C173 1.363 . S
C179 C174 1.379 . S
C179 N177 1.356 . S
N180 C172 1.356 . S
N180 H186 0.984 . S
N180 H187 0.984 . S
N181 C174 1.356 . S
N181 H184 0.984 . S
N181 H185 0.985 . S
H182 N177 0.984 . S
H183 N177 0.985 . S
H184 N181 0.984 . S
H185 N181 0.985 . S
H186 N180 0.984 . S
H187 N180 0.984 . S
H188 N176 0.984 . S
H189 N176 0.985 . S
C190 C191 1.363 . S
C190 C196 1.379 . S
C190 N198 1.356 . S
C191 C190 1.363 . S
C191 C197 1.363 . S
C192 C193 1.363 . S
C192 C197 1.379 . S
C192 N199 1.356 . S
C193 C192 1.363 . S
C193 C196 1.363 . S
N194 C196 1.356 . S
N194 H206 0.984 . S
N194 H207 0.985 . S
N195 C197 1.356 . S
N195 H200 0.984 . S
N195 H201 0.985 . S
C196 C190 1.379 . S
C196 C193 1.363 . S
C196 N194 1.356 . S
C197 C191 1.363 . S
C197 C192 1.379 . S
C197 N195 1.356 . S
N198 C190 1.356 . S
N198 H204 0.984 . S
N198 H205 0.984 . S
N199 C192 1.356 . S
N199 H202 0.984 . S
N199 H203 0.985 . S
H200 N195 0.984 . S
H201 N195 0.985 . S
H202 N199 0.984 . S
H203 N199 0.985 . S
H204 N198 0.984 . S
H205 N198 0.984 . S
H206 N194 0.984 . S
H207 N194 0.985 . S
C65 C0 1.438 . S
C67 C53 1.459 . S
C83 C29 1.613 . S
C85 C52 1.646 . S
C101 C30 1.403 . S
C103 C58 1.343 . S
C119 C1 1.496 . S
C121 C59 1.447 . S
C137 C2 1.609 . S
C139 C56 1.648 . S
C157 C54 1.380 . S
C155 C19 1.419 . S
C173 C20 1.487 . S
C175 C55 1.443 . S
C193 C57 1.415 . S
C191 C10 1.428 . S
