# Generated by pormake.
# Topology pts, (4,4)-cn, num edge types: 1
# Building blocks:
#     Node 0, Type 0, BuildingBlock: ESEHIV_clean_sbu_0, # of connection points: 4
#     Node 1, Type 0, BuildingBlock: ESEHIV_clean_sbu_0, # of connection points: 4
#     Node 2, Type 1, BuildingBlock: QUQFOY_clean_sbu_1, # of connection points: 4
#     Node 3, Type 1, BuildingBlock: QUQFOY_clean_sbu_1, # of connection points: 4
#     Edge 4, Type (0, 1), BuildingBlock: XIVTED_clean_linker_0, # of connection points: 2
#     Edge 5, Type (0, 1), BuildingBlock: XIVTED_clean_linker_0, # of connection points: 2
#     Edge 6, Type (0, 1), BuildingBlock: XIVTED_clean_linker_0, # of connection points: 2
#     Edge 7, Type (0, 1), BuildingBlock: XIVTED_clean_linker_0, # of connection points: 2
#     Edge 8, Type (0, 1), BuildingBlock: XIVTED_clean_linker_0, # of connection points: 2
#     Edge 9, Type (0, 1), BuildingBlock: XIVTED_clean_linker_0, # of connection points: 2
#     Edge 10, Type (0, 1), BuildingBlock: XIVTED_clean_linker_0, # of connection points: 2
#     Edge 11, Type (0, 1), BuildingBlock: XIVTED_clean_linker_0, # of connection points: 2
# Relax obj value: 0.097
# Max RMSD: 0.250
# Mean RMSD: 0.176
data_MOF--net-pts--node1-ESEHIV_clean_sbu_0--node2-QUQFOY_clean_sbu_1--edge1-XIVTED_clean_linker_0
_symmetry_space_group_name_H-M    P1
_symmetry_Int_Tables_number       1
_symmetry_cell_setting            triclinic
loop_
_symmetry_equiv_pos_as_xyz
'x, y, z'
_cell_length_a     23.836263
_cell_length_b     26.132974
_cell_length_c     39.885905
_cell_angle_alpha  93.468475
_cell_angle_beta   94.009953
_cell_angle_gamma 89.80331
loop_
_atom_site_label
_atom_site_type_symbol
_atom_site_fract_x
_atom_site_fract_y
_atom_site_fract_z
_atom_type_partial_charge
Cu0 Cu 0.53462 0.04488 0.01059 0.0
N1 N 0.58626 1.00696 0.98629 0.0
N2 N 0.65198 0.99487 0.94925 0.0
C3 C 0.61908 0.02908 0.96527 0.0
C4 C 0.63956 0.94913 0.9611 0.0
C5 C 0.59886 0.95673 0.984 0.0
O6 O 0.57887 0.08099 0.04749 0.0
C7 C 0.47238 0.05799 0.95262 0.0
O8 O 0.4842 1.00881 0.95082 0.0
H9 H 0.61864 0.06988 0.96207 0.0
H10 H 0.57966 0.92776 0.9977 0.0
N11 N 0.48092 1.00672 0.03005 0.0
N12 N 0.4105 0.99527 0.06301 0.0
C13 C 0.44985 0.02777 0.05408 0.0
C14 C 0.46087 0.95887 0.0233 0.0
C15 C 0.41744 0.95158 0.04382 0.0
C16 C 0.5975 0.0507 0.06958 0.0
O17 O 0.58478 1.00177 0.06507 0.0
H18 H 0.45608 0.06665 0.06455 0.0
H19 H 0.47555 0.93184 1.00426 0.0
O20 O 0.49158 0.08544 0.97839 0.0
H21 H 0.65775 0.91265 0.95348 0.0
H22 H 0.39185 0.91744 0.04373 0.0
Cu23 Cu 0.07987 0.589 0.5152 0.0
N24 N 0.11793 0.55636 0.55058 0.0
N25 N 0.12966 0.50009 0.5906 0.0
C26 C 0.09923 0.51298 0.5626 0.0
C27 C 0.16911 0.53712 0.59661 0.0
C28 C 0.16179 0.57183 0.57182 0.0
O29 O 0.04324 0.53505 0.4856 0.0
C30 C 0.05777 0.68125 0.54772 0.0
O31 O 0.11233 0.68398 0.54556 0.0
H32 H 0.06215 0.49258 0.55184 0.0
H33 H 0.18542 0.60672 0.57015 0.0
N34 N 0.12531 0.62455 0.48809 0.0
N35 N 0.14116 0.68489 0.45249 0.0
C36 C 0.10271 0.65423 0.4643 0.0
C37 C 0.18053 0.63607 0.49121 0.0
C38 C 0.19038 0.67369 0.46931 0.0
C39 C 0.0769 0.49938 0.47685 0.0
O40 O 0.1301 0.50289 0.48783 0.0
H41 H 0.05791 0.65626 0.45782 0.0
H42 H 0.21062 0.6209 0.5096 0.0
O43 O 0.03156 0.64078 0.53599 0.0
H44 H 0.20034 0.53944 0.61769 0.0
H45 H 0.23006 0.69267 0.4669 0.0
O46 O 0.94282 0.05437 0.24835 0.0
Cd47 Cd 0.02339 0.03728 0.26771 0.0
Cd48 Cd 0.03693 0.1424 0.26136 0.0
O49 O 0.95975 0.13342 0.23524 0.0
O50 O 0.01863 0.96312 0.27677 0.0
O51 O 0.04475 0.02259 0.31633 0.0
C52 C 0.03649 0.9747 0.30748 0.0
C53 C 0.04156 0.2063 0.30501 0.0
C54 C 0.92703 0.09506 0.23441 0.0
C55 C 0.11712 0.07345 0.22656 0.0
O56 O 0.1066 0.11966 0.23603 0.0
O57 O 0.08729 0.03703 0.23538 0.0
O58 O 0.04214 0.2174 0.27396 0.0
O59 O 0.04062 0.15842 0.31146 0.0
O60 O 0.95752 0.12398 0.78886 0.0
Cd61 Cd 0.03076 0.14674 0.76879 0.0
Cd62 Cd 0.04525 0.04134 0.75331 0.0
O63 O 0.97912 0.04183 0.78393 0.0
O64 O 0.02827 0.22216 0.76336 0.0
O65 O 0.03528 0.16495 0.72065 0.0
C66 C 0.0345 0.21247 0.73174 0.0
C67 C 0.03554 0.97726 0.70932 0.0
C68 C 0.94751 0.07761 0.79455 0.0
C69 C 0.13877 0.09821 0.79428 0.0
O70 O 0.12464 0.05841 0.77565 0.0
O71 O 0.10527 0.13591 0.79693 0.0
O72 O 0.04845 0.96651 0.73995 0.0
O73 O 0.03028 0.02504 0.70311 0.0
H74 H 0.37071 0.08913 0.08294 0.0
H75 H 0.15495 0.97879 0.20517 0.0
H76 H 0.35363 0.92775 0.09764 0.0
H77 H 0.18374 0.14034 0.19642 0.0
H78 H 0.22714 0.95918 0.16591 0.0
H79 H 0.30198 0.10812 0.12411 0.0
C80 C 0.35297 0.05755 0.09498 0.0
C81 C 0.36862 1.00662 0.08687 0.0
C82 C 0.21783 0.99891 0.17264 0.0
C83 C 0.28861 0.02838 0.134 0.0
C84 C 0.17656 1.01023 0.19511 0.0
C85 C 0.16301 0.0614 0.2041 0.0
C86 C 0.24578 0.03898 0.15886 0.0
C87 C 0.19268 0.10037 0.19025 0.0
C88 C 0.31331 0.06853 0.11845 0.0
C89 C 0.34271 0.96749 0.10286 0.0
N90 N 0.23246 0.08834 0.16824 0.0
N91 N 0.30402 0.97919 0.12567 0.0
H92 H 0.14696 0.49695 0.65848 0.0
H93 H 0.03974 0.20758 0.66291 0.0
H94 H 0.08618 0.40709 0.56919 0.0
H95 H 0.05412 0.31352 0.75039 0.0
H96 H 0.06394 0.27734 0.62801 0.0
H97 H 0.12245 0.42659 0.69266 0.0
C98 C 0.12896 0.46224 0.64606 0.0
C99 C 0.11846 0.45795 0.61095 0.0
C100 C 0.06147 0.28529 0.65483 0.0
C101 C 0.08997 0.37732 0.64987 0.0
C102 C 0.04758 0.24552 0.67475 0.0
C103 C 0.04471 0.25469 0.70964 0.0
C104 C 0.07337 0.33441 0.66997 0.0
C105 C 0.05554 0.30464 0.72361 0.0
C106 C 0.1145 0.42225 0.66557 0.0
C107 C 0.09439 0.41222 0.5962 0.0
N108 N 0.06973 0.34244 0.7038 0.0
N109 N 0.0811 0.37366 0.61569 0.0
H110 H 0.61478 1.00368 0.12794 0.0
H111 H 0.88653 0.1688 0.19286 0.0
H112 H 0.66847 0.13468 0.0776 0.0
H113 H 0.84155 0.02472 0.23138 0.0
H114 H 0.79923 0.16598 0.15664 0.0
H115 H 0.68858 0.02104 0.1723 0.0
C116 C 0.64185 0.03657 0.12642 0.0
C117 C 0.63601 0.0674 0.0988 0.0
C118 C 0.80827 0.13529 0.17327 0.0
C119 C 0.72148 0.08717 0.14953 0.0
C120 C 0.85805 0.13685 0.19404 0.0
C121 C 0.87174 0.09662 0.21502 0.0
C122 C 0.77175 0.09336 0.17361 0.0
C123 C 0.83312 0.05635 0.21545 0.0
C124 C 0.68412 0.04639 0.15179 0.0
C125 C 0.67172 0.10989 0.09843 0.0
N126 N 0.78515 0.05565 0.19494 0.0
N127 N 0.7136 0.11817 0.12324 0.0
H128 H 0.99493 0.68019 0.60254 0.0
H129 H 0.0299 0.9839 0.6406 0.0
H130 H 0.06354 0.78077 0.53412 0.0
H131 H 0.01858 0.8757 0.7174 0.0
H132 H 0.01815 0.91284 0.5975 0.0
H133 H 0.97677 0.75518 0.64061 0.0
C134 C 0.00403 0.71824 0.59498 0.0
C135 C 0.03041 0.72465 0.56523 0.0
C136 C 0.01777 0.90484 0.62381 0.0
C137 C 0.01117 0.80995 0.60861 0.0
C138 C 0.02457 0.94532 0.64838 0.0
C139 C 0.02609 0.93562 0.68264 0.0
C140 C 0.01166 0.85446 0.63359 0.0
C141 C 0.01855 0.88487 0.69129 0.0
C142 C 0.99446 0.76089 0.61684 0.0
C143 C 0.04287 0.77452 0.55686 0.0
N144 N 0.01185 0.84623 0.66697 0.0
N145 N 0.03358 0.81525 0.57855 0.0
H146 H 0.3972 0.13844 0.95712 0.0
H147 H 0.22833 0.03369 0.78733 0.0
H148 H 0.45731 0.0207 0.88807 0.0
H149 H 0.17463 0.16658 0.84632 0.0
H150 H 0.31609 0.03344 0.82246 0.0
H151 H 0.31986 0.156 0.91517 0.0
C152 C 0.3949 0.11724 0.93288 0.0
C153 C 0.43313 0.07765 0.92615 0.0
C154 C 0.2854 0.06299 0.82764 0.0
C155 C 0.34493 0.09674 0.87854 0.0
C156 C 0.2351 0.063 0.80759 0.0
C157 C 0.19379 0.09991 0.81403 0.0
C158 C 0.29443 0.09975 0.85471 0.0
C159 C 0.20524 0.13726 0.84052 0.0
C160 C 0.35062 0.12695 0.90905 0.0
C161 C 0.42817 0.05104 0.89448 0.0
N162 N 0.25422 0.13589 0.86014 0.0
N163 N 0.38461 0.06064 0.87208 0.0
H164 H 0.00072 0.49481 0.42159 0.0
H165 H 0.06417 0.19904 0.37295 0.0
H166 H 0.11385 0.40202 0.48134 0.0
H167 H 0.01536 0.30737 0.29881 0.0
H168 H 0.06324 0.26866 0.41702 0.0
H169 H 0.98519 0.42111 0.3804 0.0
C170 C 0.02122 0.45865 0.42636 0.0
C171 C 0.05879 0.45435 0.45468 0.0
C172 C 0.05251 0.27703 0.39109 0.0
C173 C 0.04141 0.37054 0.40812 0.0
C174 C 0.05307 0.23738 0.36596 0.0
C175 C 0.04048 0.24753 0.33213 0.0
C176 C 0.03833 0.32702 0.38239 0.0
C177 C 0.02605 0.29795 0.32454 0.0
C178 C 0.01281 0.41688 0.4028 0.0
C179 C 0.08487 0.40691 0.45962 0.0
N180 N 0.02531 0.33581 0.34946 0.0
N181 N 0.07577 0.3669 0.43658 0.0
H182 H 0.65496 0.07907 0.91216 0.0
H183 H 0.92298 0.98387 0.81664 0.0
H184 H 0.73994 0.93585 0.92964 0.0
H185 H 0.86527 0.14082 0.81948 0.0
H186 H 0.84908 0.9626 0.85262 0.0
H187 H 0.72486 0.09899 0.8733 0.0
C188 C 0.68837 0.0518 0.90812 0.0
C189 C 0.69166 1.00582 0.9248 0.0
C190 C 0.85247 1.00167 0.84535 0.0
C191 C 0.77155 0.02833 0.87943 0.0
C192 C 0.89459 0.01393 0.82465 0.0
C193 C 0.9006 0.06439 0.81503 0.0
C194 C 0.81556 0.03995 0.85643 0.0
C195 C 0.8624 0.1015 0.82631 0.0
C196 C 0.7282 0.06323 0.88567 0.0
C197 C 0.73531 0.97159 0.91744 0.0
N198 N 0.82149 0.08853 0.84643 0.0
N199 N 0.77354 0.98359 0.89537 0.0
H200 H 0.06356 0.68388 0.39987 0.0
H201 H 0.09826 0.98149 0.36856 0.0
H202 H 0.18985 0.77925 0.455 0.0
H203 H 0.0065 0.87391 0.29908 0.0
H204 H 0.12607 0.91054 0.4039 0.0
H205 H 0.03685 0.75541 0.36541 0.0
C206 C 0.08583 0.71992 0.40457 0.0
C207 C 0.12902 0.72562 0.43026 0.0
C208 C 0.09974 0.90262 0.38094 0.0
C209 C 0.09833 0.80809 0.39112 0.0
C210 C 0.0835 0.94311 0.36092 0.0
C211 C 0.04998 0.93363 0.33082 0.0
C212 C 0.08179 0.85246 0.37095 0.0
C213 C 0.03245 0.88306 0.32201 0.0
C214 C 0.07064 0.76075 0.38489 0.0
C215 C 0.15676 0.7731 0.43519 0.0
N216 N 0.04846 0.84452 0.34196 0.0
N217 N 0.14066 0.81269 0.41597 0.0
loop_
_geom_bond_atom_site_label_1
_geom_bond_atom_site_label_2
_geom_bond_distance
_geom_bond_site_symmetry_2
_ccdc_geom_bond_type
Cu0 N1 1.999 1_554 S
Cu0 O6 1.974 . S
Cu0 N11 1.985 . S
Cu0 O20 1.959 1_554 S
N1 Cu0 1.999 1_556 S
N1 C3 1.263 . S
N1 C5 1.389 . S
N2 C3 1.358 . S
N2 C4 1.400 . S
C3 N1 1.263 . S
C3 N2 1.358 . S
C3 H9 0.930 . S
C4 N2 1.400 . S
C4 C5 1.351 . S
C4 H21 0.930 . S
C5 N1 1.389 . S
C5 C4 1.351 . S
C5 H10 0.930 . S
O6 Cu0 1.974 . S
O6 C16 1.282 . S
C7 O8 1.261 . S
C7 O20 1.251 . S
O8 C7 1.261 . S
H9 C3 0.930 . S
H10 C5 0.930 . S
N11 Cu0 1.985 . S
N11 C13 1.335 . S
N11 C14 1.390 . S
N12 C13 1.345 . S
N12 C15 1.336 . S
C13 N11 1.335 . S
C13 N12 1.345 . S
C13 H18 0.930 . S
C14 N11 1.390 . S
C14 C15 1.346 . S
C14 H19 0.930 . S
C15 N12 1.336 . S
C15 C14 1.346 . S
C15 H22 0.929 . S
C16 O6 1.282 . S
C16 O17 1.216 . S
O17 C16 1.216 . S
H18 C13 0.930 . S
H19 C14 0.930 . S
O20 Cu0 1.959 1_556 S
O20 C7 1.251 . S
H21 C4 0.930 . S
H22 C15 0.929 . S
Cu23 N24 1.999 . S
Cu23 O29 1.974 . S
Cu23 N34 1.985 . S
Cu23 O43 1.959 . S
N24 Cu23 1.999 . S
N24 C26 1.263 . S
N24 C28 1.389 1_455 S
N25 C26 1.358 . S
N25 C27 1.400 1_455 S
C26 N24 1.263 . S
C26 N25 1.358 . S
C26 H32 0.930 . S
C27 N25 1.400 1_655 S
C27 C28 1.351 . S
C27 H44 0.930 . S
C28 N24 1.389 1_655 S
C28 C27 1.351 . S
C28 H33 0.930 . S
O29 Cu23 1.974 . S
O29 C39 1.282 . S
C30 O31 1.261 . S
C30 O43 1.251 . S
O31 C30 1.261 . S
H32 C26 0.930 . S
H33 C28 0.930 . S
N34 Cu23 1.985 . S
N34 C36 1.335 . S
N34 C37 1.390 . S
N35 C36 1.345 . S
N35 C38 1.336 . S
C36 N34 1.335 . S
C36 N35 1.345 . S
C36 H41 0.922 1_455 S
C37 N34 1.390 . S
C37 C38 1.346 . S
C37 H42 0.930 . S
C38 N35 1.336 . S
C38 C37 1.346 . S
C38 H45 0.929 . S
C39 O29 1.282 . S
C39 O40 1.216 . S
O40 C39 1.216 . S
H41 C36 0.922 1_655 S
H42 C37 0.930 . S
O43 Cu23 1.959 . S
O43 C30 1.251 . S
H44 C27 0.930 . S
H45 C38 0.929 . S
O46 Cd47 2.223 . S
O46 C54 1.315 1_465 S
Cd47 O46 2.223 . S
Cd47 O50 2.297 . S
Cd47 O51 2.439 . S
Cd47 O57 2.240 1_565 S
Cd48 O49 2.240 1_455 S
Cd48 O56 2.223 . S
Cd48 O58 2.297 . S
Cd48 O59 2.439 . S
O49 Cd48 2.240 1_655 S
O49 C54 1.279 . S
O50 Cd47 2.297 . S
O50 C52 1.247 . S
O51 Cd47 2.439 . S
O51 C52 1.214 . S
C52 O50 1.247 . S
C52 O51 1.214 . S
C53 O58 1.247 . S
C53 O59 1.208 . S
C54 O46 1.315 1_645 S
C54 O49 1.279 . S
C55 O56 1.315 . S
C55 O57 1.279 . S
O56 Cd48 2.223 . S
O56 C55 1.315 . S
O57 Cd47 2.240 1_545 S
O57 C55 1.279 . S
O58 Cd48 2.297 . S
O58 C53 1.247 . S
O59 Cd48 2.439 . S
O59 C53 1.208 . S
O60 Cd61 2.223 . S
O60 C68 1.315 . S
Cd61 O60 2.223 . S
Cd61 O64 2.297 . S
Cd61 O65 2.439 . S
Cd61 O71 2.240 . S
Cd62 O63 2.240 1_565 S
Cd62 O70 2.223 . S
Cd62 O72 2.297 . S
Cd62 O73 2.439 . S
O63 Cd62 2.240 1_545 S
O63 C68 1.279 . S
O64 Cd61 2.297 . S
O64 C66 1.247 . S
O65 Cd61 2.439 . S
O65 C66 1.208 . S
C66 O64 1.247 . S
C66 O65 1.208 . S
C67 O72 1.247 . S
C67 O73 1.208 . S
C68 O60 1.315 . S
C68 O63 1.279 . S
C69 O70 1.315 1_545 S
C69 O71 1.279 . S
O70 Cd62 2.223 . S
O70 C69 1.315 1_565 S
O71 Cd61 2.240 . S
O71 C69 1.279 . S
O72 Cd62 2.297 . S
O72 C67 1.247 . S
O73 Cd62 2.439 . S
O73 C67 1.208 . S
H74 C80 0.930 . S
H75 C84 0.930 . S
H76 C89 0.929 . S
H77 C87 0.929 . S
H78 C82 0.929 . S
H79 C88 0.929 . S
C80 H74 0.930 . S
C80 C81 1.367 . S
C80 C88 1.378 . S
C81 C80 1.367 . S
C81 C89 1.433 . S
C82 H78 0.929 . S
C82 C84 1.378 . S
C82 C86 1.350 . S
C83 C86 1.463 . S
C83 C88 1.350 . S
C83 N91 1.427 . S
C84 H75 0.930 . S
C84 C82 1.378 . S
C84 C85 1.367 . S
C85 C84 1.367 . S
C85 C87 1.433 . S
C86 C82 1.350 . S
C86 C83 1.463 . S
C86 N90 1.427 . S
C87 H77 0.929 . S
C87 C85 1.433 . S
C87 N90 1.384 . S
C88 H79 0.929 . S
C88 C80 1.378 . S
C88 C83 1.350 . S
C89 H76 0.929 . S
C89 C81 1.433 . S
C89 N91 1.384 . S
N90 C86 1.427 . S
N90 C87 1.384 . S
N91 C83 1.427 . S
N91 C89 1.384 . S
H92 C98 0.930 . S
H93 C102 0.930 . S
H94 C107 0.929 . S
H95 C105 0.929 . S
H96 C100 0.929 . S
H97 C106 0.929 . S
C98 H92 0.930 . S
C98 C99 1.367 1_655 S
C98 C106 1.378 . S
C99 C98 1.367 1_455 S
C99 C107 1.433 . S
C100 H96 0.929 . S
C100 C102 1.378 . S
C100 C104 1.350 . S
C101 C104 1.463 . S
C101 C106 1.350 1_455 S
C101 N109 1.427 . S
C102 H93 0.930 . S
C102 C100 1.378 . S
C102 C103 1.367 . S
C103 C102 1.367 . S
C103 C105 1.433 1_455 S
C104 C100 1.350 . S
C104 C101 1.463 . S
C104 N108 1.427 1_455 S
C105 H95 0.929 . S
C105 C103 1.433 1_655 S
C105 N108 1.384 . S
C106 H97 0.929 . S
C106 C98 1.378 . S
C106 C101 1.350 1_655 S
C107 H94 0.929 . S
C107 C99 1.433 . S
C107 N109 1.384 . S
N108 C104 1.427 1_655 S
N108 C105 1.384 . S
N109 C101 1.427 . S
N109 C107 1.384 . S
H110 C116 0.930 1_565 S
H111 C120 0.930 . S
H112 C125 0.929 . S
H113 C123 0.929 . S
H114 C118 0.929 . S
H115 C124 0.929 1_565 S
C116 H110 0.930 1_545 S
C116 C117 1.367 . S
C116 C124 1.378 . S
C117 C116 1.367 . S
C117 C125 1.433 . S
C118 H114 0.929 . S
C118 C120 1.378 . S
C118 C122 1.350 . S
C119 C122 1.463 . S
C119 C124 1.350 . S
C119 N127 1.427 . S
C120 H111 0.930 . S
C120 C118 1.378 . S
C120 C121 1.367 . S
C121 C120 1.367 . S
C121 C123 1.433 1_545 S
C122 C118 1.350 . S
C122 C119 1.463 . S
C122 N126 1.427 1_545 S
C123 H113 0.929 . S
C123 C121 1.433 1_565 S
C123 N126 1.384 . S
C124 H115 0.929 1_545 S
C124 C116 1.378 . S
C124 C119 1.350 . S
C125 H112 0.929 . S
C125 C117 1.433 . S
C125 N127 1.384 . S
N126 C122 1.427 1_565 S
N126 C123 1.384 . S
N127 C119 1.427 . S
N127 C125 1.384 . S
H128 C134 0.930 . S
H129 C138 0.930 . S
H130 C143 0.929 . S
H131 C141 0.929 . S
H132 C136 0.929 . S
H133 C142 0.929 . S
C134 H128 0.930 . S
C134 C135 1.367 . S
C134 C142 1.378 . S
C135 C134 1.367 . S
C135 C143 1.433 . S
C136 H132 0.929 . S
C136 C138 1.378 . S
C136 C140 1.350 . S
C137 C140 1.463 . S
C137 C142 1.350 . S
C137 N145 1.427 . S
C138 H129 0.930 . S
C138 C136 1.378 . S
C138 C139 1.367 . S
C139 C138 1.367 . S
C139 C141 1.433 . S
C140 C136 1.350 . S
C140 C137 1.463 . S
C140 N144 1.427 . S
C141 H131 0.929 . S
C141 C139 1.433 . S
C141 N144 1.384 . S
C142 H133 0.929 . S
C142 C134 1.378 . S
C142 C137 1.350 . S
C143 H130 0.929 . S
C143 C135 1.433 . S
C143 N145 1.384 . S
N144 C140 1.427 . S
N144 C141 1.384 . S
N145 C137 1.427 . S
N145 C143 1.384 . S
H146 C152 0.930 . S
H147 C156 0.930 . S
H148 C161 0.929 . S
H149 C159 0.929 . S
H150 C154 0.929 1_565 S
H151 C160 0.929 . S
C152 H146 0.930 . S
C152 C153 1.367 . S
C152 C160 1.378 . S
C153 C152 1.367 . S
C153 C161 1.433 . S
C154 H150 0.929 1_545 S
C154 C156 1.378 1_545 S
C154 C158 1.350 . S
C155 C158 1.463 . S
C155 C160 1.350 . S
C155 N163 1.427 . S
C156 H147 0.930 . S
C156 C154 1.378 1_565 S
C156 C157 1.367 1_565 S
C157 C156 1.367 1_545 S
C157 C159 1.433 . S
C158 C154 1.350 . S
C158 C155 1.463 . S
C158 N162 1.427 . S
C159 H149 0.929 . S
C159 C157 1.433 . S
C159 N162 1.384 . S
C160 H151 0.929 . S
C160 C152 1.378 . S
C160 C155 1.350 . S
C161 H148 0.929 . S
C161 C153 1.433 . S
C161 N163 1.384 . S
N162 C158 1.427 . S
N162 C159 1.384 . S
N163 C155 1.427 . S
N163 C161 1.384 . S
H164 C170 0.930 1_655 S
H165 C174 0.930 . S
H166 C179 0.929 . S
H167 C177 0.939 . S
H168 C172 0.929 . S
H169 C178 0.929 1_655 S
C170 H164 0.930 1_455 S
C170 C171 1.367 . S
C170 C178 1.378 . S
C171 C170 1.367 . S
C171 C179 1.433 . S
C172 H168 0.929 . S
C172 C174 1.378 . S
C172 C176 1.350 . S
C173 C176 1.463 . S
C173 C178 1.350 . S
C173 N181 1.427 . S
C174 H165 0.930 . S
C174 C172 1.378 . S
C174 C175 1.367 . S
C175 C174 1.367 . S
C175 C177 1.433 . S
C176 C172 1.350 . S
C176 C173 1.463 . S
C176 N180 1.427 . S
C177 H167 0.939 . S
C177 C175 1.433 . S
C177 N180 1.384 . S
C178 H169 0.929 1_455 S
C178 C170 1.378 . S
C178 C173 1.350 . S
C179 H166 0.929 . S
C179 C171 1.433 . S
C179 N181 1.384 . S
N180 C176 1.427 . S
N180 C177 1.384 . S
N181 C173 1.427 . S
N181 C179 1.384 . S
H182 C188 0.930 . S
H183 C192 0.932 1_565 S
H184 C197 0.929 . S
H185 C195 0.929 . S
H186 C190 0.947 . S
H187 C196 0.929 . S
C188 H182 0.930 . S
C188 C189 1.367 . S
C188 C196 1.378 . S
C189 C188 1.367 . S
C189 C197 1.433 . S
C190 H186 0.947 . S
C190 C192 1.378 . S
C190 C194 1.350 . S
C191 C194 1.463 . S
C191 C196 1.350 . S
C191 N199 1.427 . S
C192 H183 0.932 1_545 S
C192 C190 1.378 . S
C192 C193 1.367 . S
C193 C192 1.367 . S
C193 C195 1.433 . S
C194 C190 1.350 . S
C194 C191 1.463 . S
C194 N198 1.427 . S
C195 H185 0.929 . S
C195 C193 1.433 . S
C195 N198 1.384 . S
C196 H187 0.929 . S
C196 C188 1.378 . S
C196 C191 1.350 . S
C197 H184 0.929 . S
C197 C189 1.433 . S
C197 N199 1.384 . S
N198 C194 1.427 . S
N198 C195 1.384 . S
N199 C191 1.427 . S
N199 C197 1.384 . S
H200 C206 0.930 . S
H201 C210 0.930 . S
H202 C215 0.929 . S
H203 C213 0.929 . S
H204 C208 0.929 . S
H205 C214 0.929 . S
C206 H200 0.930 . S
C206 C207 1.367 1_655 S
C206 C214 1.378 . S
C207 C206 1.367 1_455 S
C207 C215 1.433 . S
C208 H204 0.929 . S
C208 C210 1.378 . S
C208 C212 1.350 . S
C209 C212 1.463 . S
C209 C214 1.350 1_455 S
C209 N217 1.427 . S
C210 H201 0.930 . S
C210 C208 1.378 . S
C210 C211 1.367 . S
C211 C210 1.367 . S
C211 C213 1.433 1_455 S
C212 C208 1.350 . S
C212 C209 1.463 . S
C212 N216 1.427 1_455 S
C213 H203 0.929 . S
C213 C211 1.433 1_655 S
C213 N216 1.384 . S
C214 H205 0.929 . S
C214 C206 1.378 . S
C214 C209 1.350 1_655 S
C215 H202 0.929 . S
C215 C207 1.433 . S
C215 N217 1.384 . S
N216 C212 1.427 1_655 S
N216 C213 1.384 . S
N217 C209 1.427 . S
N217 C215 1.384 . S
C85 C55 1.551 . S
C81 N12 1.514 . S
C103 C66 1.525 . S
C99 N25 1.536 . S
C121 C54 1.555 . S
C117 C16 1.537 . S
C139 C67 1.536 . S
C135 C30 1.594 . S
C157 C69 1.594 . S
C153 C7 1.595 . S
C175 C53 1.493 . S
C171 C39 1.537 . S
C193 C68 1.584 1_655 S
C189 N2 1.539 . S
C207 N35 1.510 . S
C211 C52 1.489 . S
