# Generated by pormake.
# Topology zzz, (3,6)-cn, num edge types: 1
# Building blocks:
#     Node 0, Type 0, BuildingBlock: OLANEW_clean_sbu_2, # of connection points: 3
#     Node 1, Type 0, BuildingBlock: OLANEW_clean_sbu_2, # of connection points: 3
#     Node 2, Type 0, BuildingBlock: OLANEW_clean_sbu_2, # of connection points: 3
#     Node 3, Type 0, BuildingBlock: OLANEW_clean_sbu_2, # of connection points: 3
#     Node 4, Type 0, BuildingBlock: OLANEW_clean_sbu_2, # of connection points: 3
#     Node 5, Type 0, BuildingBlock: OLANEW_clean_sbu_2, # of connection points: 3
#     Node 6, Type 0, BuildingBlock: OLANEW_clean_sbu_2, # of connection points: 3
#     Node 7, Type 0, BuildingBlock: OLANEW_clean_sbu_2, # of connection points: 3
#     Node 8, Type 1, BuildingBlock: JUFBIX_clean_sbu_0, # of connection points: 6
#     Node 9, Type 1, BuildingBlock: JUFBIX_clean_sbu_0, # of connection points: 6
#     Node 10, Type 1, BuildingBlock: JUFBIX_clean_sbu_0, # of connection points: 6
#     Node 11, Type 1, BuildingBlock: JUFBIX_clean_sbu_0, # of connection points: 6
#     Edge 12, Type (0, 1), None
#     Edge 13, Type (0, 1), None
#     Edge 14, Type (0, 1), None
#     Edge 15, Type (0, 1), None
#     Edge 16, Type (0, 1), None
#     Edge 17, Type (0, 1), None
#     Edge 18, Type (0, 1), None
#     Edge 19, Type (0, 1), None
#     Edge 20, Type (0, 1), None
#     Edge 21, Type (0, 1), None
#     Edge 22, Type (0, 1), None
#     Edge 23, Type (0, 1), None
#     Edge 24, Type (0, 1), None
#     Edge 25, Type (0, 1), None
#     Edge 26, Type (0, 1), None
#     Edge 27, Type (0, 1), None
#     Edge 28, Type (0, 1), None
#     Edge 29, Type (0, 1), None
#     Edge 30, Type (0, 1), None
#     Edge 31, Type (0, 1), None
#     Edge 32, Type (0, 1), None
#     Edge 33, Type (0, 1), None
#     Edge 34, Type (0, 1), None
#     Edge 35, Type (0, 1), None
# Relax obj value: 0.115
# Max RMSD: 0.203
# Mean RMSD: 0.089
data_MOF--net-zzz--node1-OLANEW_clean_sbu_2--node2-JUFBIX_clean_sbu_0--edge1-none
_symmetry_space_group_name_H-M    P1
_symmetry_Int_Tables_number       1
_symmetry_cell_setting            triclinic
loop_
_symmetry_equiv_pos_as_xyz
'x, y, z'
_cell_length_a     27.067735
_cell_length_b     27.299352
_cell_length_c     10.256691
_cell_angle_alpha  75.844058
_cell_angle_beta   91.182664
_cell_angle_gamma 91.978973
loop_
_atom_site_label
_atom_site_type_symbol
_atom_site_fract_x
_atom_site_fract_y
_atom_site_fract_z
_atom_type_partial_charge
O0 O 0.92257 0.60023 0.9466 0.0
Cd1 Cd 0.84628 0.61991 0.04331 0.0
O2 O 0.92628 0.54561 0.14101 0.0
Cd3 Cd 0.9623 0.49375 0.30714 0.0
O4 O 0.99036 0.48583 0.51126 0.0
C5 C 1.00495 0.52659 0.54071 0.0
O6 O 1.00353 0.56939 0.44827 0.0
C7 C 0.94545 0.5655 0.02775 0.0
C8 C 0.76772 0.5519 0.03329 0.0
O9 O 0.77189 0.59424 0.94556 0.0
O10 O 0.80128 0.54097 0.12489 0.0
O11 O 0.04334 0.8201 0.03798 0.0
Cd12 Cd 0.07229 0.84446 0.80791 0.0
O13 O 1.00655 0.83137 0.21549 0.0
Cd14 Cd 0.96224 0.88102 0.29576 0.0
O15 O 0.91712 0.9428 0.31454 0.0
C16 C 0.92318 0.9716 0.39427 0.0
O17 O 0.8897 1.00543 0.39363 0.0
C18 C 0.02552 0.84972 0.10124 0.0
C19 C 0.10199 0.75409 0.7647 0.0
O20 O 0.05661 0.76645 0.74865 0.0
O21 O 0.13389 0.78629 0.79097 0.0
O22 O 0.70329 0.03861 0.88645 0.0
Cd23 Cd 0.78893 0.06614 0.93111 0.0
O24 O 0.69257 0.99678 0.09563 0.0
Cd25 Cd 0.64468 0.94925 0.24254 0.0
O26 O 0.58092 0.90618 0.3364 0.0
C27 C 0.55185 0.91596 0.4218 0.0
O28 O 0.51439 0.88432 0.4625 0.0
C29 C 0.6749 0.01412 0.97856 0.0
C30 C 0.87679 0.01295 0.94969 0.0
O31 O 0.8547 0.02934 0.83631 0.0
O32 O 0.85558 0.01797 0.0561 0.0
O33 O 0.53507 0.68787 0.90406 0.0
Cd34 Cd 0.56019 0.75503 0.02509 0.0
O35 O 0.58116 0.65113 0.07331 0.0
Cd36 Cd 0.60052 0.58374 0.22138 0.0
O37 O 0.57031 0.55622 0.42031 0.0
C38 C 0.59765 0.56028 0.51898 0.0
O39 O 0.64367 0.57674 0.49813 0.0
C40 C 0.55602 0.64813 0.96994 0.0
C41 C 0.53359 0.85693 -0.02071 0.0
O42 O 0.55869 0.84078 0.89446 0.0
O43 O 0.51767 0.82457 0.08364 0.0
O44 O 0.18925 0.4224 0.74505 0.0
Cd45 Cd 0.26109 0.40594 0.62654 0.0
O46 O 0.20186 0.50107 0.63285 0.0
Cd47 Cd 0.21828 0.47308 0.45886 0.0
O48 O 0.16859 0.46616 0.29442 0.0
C49 C 0.14621 0.50632 0.24021 0.0
O50 O 0.1565 0.54761 0.28083 0.0
C51 C 0.18212 0.46918 0.73027 0.0
C52 C 0.33668 0.46964 0.68421 0.0
O53 O 0.30695 0.48497 0.58498 0.0
O54 O 0.33169 0.42384 0.75353 0.0
O55 O 0.97337 0.16268 0.78486 0.0
Cd56 Cd 0.94359 0.24763 0.71647 0.0
O57 O 0.04888 0.17295 0.70141 0.0
Cd58 Cd 0.11486 0.13423 0.6641 0.0
O59 O 0.08641 0.09597 0.51585 0.0
C60 C 0.09949 0.06378 0.45341 0.0
O61 O 0.14349 0.04426 0.47425 0.0
C62 C 0.01419 0.14473 0.76324 0.0
C63 C 0.9812 0.30809 0.87826 0.0
O64 O 0.94417 0.27789 0.91731 0.0
O65 O 1.00061 0.3087 0.7648 0.0
O66 O 0.3475 0.99905 0.871 0.0
Cd67 Cd 0.26812 0.04376 0.80824 0.0
O68 O 0.37442 0.06883 0.73393 0.0
Cd69 Cd 0.43315 0.11929 0.63305 0.0
O70 O 0.44614 0.07515 0.49101 0.0
C71 C 0.4799 0.08063 0.40469 0.0
O72 O 0.51196 0.11878 0.39009 0.0
C73 C 0.38348 0.02566 0.80947 0.0
C74 C 0.17032 1.00925 0.87457 0.0
O75 O 0.19768 0.02736 0.9562 0.0
O76 O 0.18994 1.00381 0.7664 0.0
O77 O 0.55498 0.33246 0.86283 0.0
Cd78 Cd 0.51873 0.2665 0.75103 0.0
O79 O 0.50752 0.3727 0.70042 0.0
Cd80 Cd 0.47269 0.43401 0.54916 0.0
O81 O 0.46952 0.46704 0.32954 0.0
C82 C 0.50671 0.45347 0.27505 0.0
O83 O 0.53883 0.42449 0.35266 0.0
C84 C 0.53585 0.37381 0.80059 0.0
C85 C 0.53102 0.16109 0.8067 0.0
O86 O 0.50781 0.18125 0.88715 0.0
O87 O 0.55148 0.19056 0.70396 0.0
Co88 Co 0.02712 1.00521 0.02816 0.0
C89 C 0.92878 0.99825 0.95341 0.0
Co90 Co 0.0183 0.99047 0.82661 0.0
C91 C 0.07446 0.02287 0.27395 0.0
C92 C 1.00302 0.05462 0.22748 0.0
N93 N 0.03516 0.02413 0.18936 0.0
N94 N 0.06754 0.05172 0.36172 0.0
C95 C 0.02252 0.07123 0.33299 0.0
H96 H 0.10843 1.0041 0.26571 0.0
H97 H 0.96868 0.06703 0.17643 0.0
C98 C 0.11663 1.00049 0.89719 0.0
N99 N 1.00662 0.97569 0.6623 0.0
C100 C 0.96668 0.99039 0.58347 0.0
C101 C 0.02935 0.94343 0.6046 0.0
N102 N 0.96197 0.9669 0.4827 0.0
C103 C 1.0019 0.93779 0.49414 0.0
C104 C 0.02125 0.09111 0.81695 0.0
O105 O 0.09758 1.00772 0.00333 0.0
O106 O 0.08841 0.9911 0.80474 0.0
O107 O 0.01806 0.06055 0.74175 0.0
O108 O 0.02487 0.07444 0.94282 0.0
O109 O 0.94811 0.99107 0.84872 0.0
H110 H 0.06305 0.92451 0.64184 0.0
H111 H 0.94016 0.01649 0.60281 0.0
O112 O 0.95685 1.00305 0.04994 0.0
O113 O 0.02876 0.93552 0.1133 0.0
O114 O 0.01888 0.92003 0.91307 0.0
C115 C 0.02386 0.90411 0.03993 0.0
H116 H 1.00563 0.09745 0.38143 0.0
H117 H 1.01174 0.91479 0.42782 0.0
Co118 Co 0.52006 1.00502 0.00087 0.0
C119 C 0.52652 0.91174 0.95829 0.0
Co120 Co 0.53714 0.01227 0.78888 0.0
C121 C 0.51377 0.04708 0.22878 0.0
C122 C 0.46595 0.9818 0.24146 0.0
N123 N 0.50372 1.00844 0.17079 0.0
N124 N 0.48274 0.04623 0.33014 0.0
C125 C 0.45276 1.00513 0.33908 0.0
H126 H 0.54076 0.0772 0.19137 0.0
H127 H 0.44664 0.94986 0.21662 0.0
C128 C 0.53238 0.10552 0.83065 0.0
N129 N 0.55091 1.006 0.6182 0.0
C130 C 0.53142 0.96764 0.57033 0.0
C131 C 0.59119 0.02225 0.54294 0.0
N132 N 0.55898 0.95726 0.47333 0.0
C133 C 0.59626 0.99234 0.4535 0.0
C134 C 0.43545 0.01142 0.83979 0.0
O135 O 0.522 0.07808 0.94652 0.0
O136 O 0.54121 0.08438 0.73624 0.0
O137 O 0.46673 0.01482 0.74662 0.0
O138 O 0.45113 1.00499 0.95938 0.0
O139 O 0.53449 0.93997 0.84286 0.0
H140 H 0.61783 0.0504 0.56095 0.0
H141 H 0.49977 0.94464 0.61458 0.0
O142 O 0.51811 0.93214 0.05401 0.0
O143 O 0.58982 1.00548 0.04337 0.0
O144 O 0.60624 0.0116 0.83128 0.0
C145 C 0.62141 1.00859 0.95085 0.0
H146 H 0.42253 0.99364 0.40861 0.0
H147 H 0.62689 0.99481 0.38697 0.0
Co148 Co 0.58624 0.50147 0.92626 0.0
C149 C 0.5188 0.47404 0.13251 0.0
Co150 Co 0.50934 0.51777 0.85782 0.0
C151 C 0.68673 0.53145 0.95516 0.0
C152 C 0.67106 0.45913 0.088 0.0
N153 N 0.65104 0.49498 -0.01171 0.0
N154 N 0.7277 0.52056 0.03216 0.0
C155 C 0.71831 0.47492 0.1157 0.0
H156 H 0.68144 0.56696 0.88194 0.0
H157 H 0.65169 0.4251 0.14184 0.0
C158 C 0.57909 0.54379 0.65561 0.0
N159 N 0.44509 0.52504 0.79275 0.0
C160 C 0.41065 0.48743 0.80229 0.0
C161 C 0.4274 0.56404 0.69767 0.0
N162 N 0.37337 0.50065 0.7129 0.0
C163 C 0.38318 0.5491 0.64814 0.0
C164 C 0.5508 0.59874 0.9345 0.0
O165 O 0.6093 0.52919 0.75174 0.0
O166 O 0.53304 0.54239 0.6786 0.0
O167 O 0.51117 0.58515 0.88312 0.0
O168 O 0.58624 0.56813 0.96138 0.0
O169 O 0.48663 0.49203 0.04212 0.0
H170 H 0.44729 0.59952 0.65906 0.0
H171 H 0.41499 0.44966 0.86519 0.0
O172 O 0.56366 0.47364 0.10025 0.0
O173 O 0.58464 0.43463 0.89048 0.0
O174 O 0.50783 0.4513 0.82876 0.0
C175 C 0.54355 0.42152 0.84383 0.0
H176 H 0.74298 0.4553 0.19422 0.0
H177 H 0.3615 0.57112 0.56591 0.0
Co178 Co 0.0821 0.55702 0.86084 0.0
C179 C 0.11472 0.50889 0.12154 0.0
Co180 Co 0.05637 0.47767 0.93833 0.0
C181 C 0.08414 0.66604 0.77502 0.0
C182 C 0.15644 0.63608 0.81635 0.0
N183 N 0.10831 0.62224 0.8081 0.0
N184 N 0.11514 0.70639 0.76745 0.0
C185 C 0.16075 0.68784 0.79155 0.0
H186 H 0.04425 0.66803 0.76827 0.0
H187 H 0.18614 0.61009 0.84758 0.0
C188 C 0.02662 0.5256 0.67312 0.0
N189 N 0.03077 0.41237 -0.01165 0.0
C190 C 0.02872 0.3808 0.90584 0.0
C191 C 1.0013 0.39028 0.09217 0.0
N192 N 0.99753 0.34108 0.95035 0.0
C193 C 0.98051 0.34627 0.06865 0.0
C194 C 0.99258 0.5485 -0.01016 0.0
O195 O 0.05092 0.56382 0.69221 0.0
O196 O 0.02325 0.48567 0.76748 0.0
O197 O 0.99989 0.50155 0.00966 0.0
O198 O 0.02434 0.58035 0.92648 0.0
O199 O 0.09053 0.47014 0.10463 0.0
H200 H 0.99245 0.40699 0.17387 0.0
H201 H 0.04598 0.38945 0.80814 0.0
O202 O 0.11396 0.54994 0.03089 0.0
O203 O 0.13846 0.53279 0.79308 0.0
O204 O 0.11208 0.45428 0.86799 0.0
C205 C 0.14402 0.48591 0.80589 0.0
H206 H 0.19429 0.70977 0.79974 0.0
H207 H 0.95286 0.32186 0.12927 0.0
loop_
_geom_bond_atom_site_label_1
_geom_bond_atom_site_label_2
_geom_bond_distance
_geom_bond_site_symmetry_2
_ccdc_geom_bond_type
O0 Cd1 2.300 . S
O0 C7 1.275 . S
Cd1 O0 2.300 . S
Cd1 O9 2.381 . S
Cd1 O10 2.378 . S
O2 Cd3 2.385 . S
O2 C7 1.255 . S
Cd3 O2 2.385 . S
Cd3 O4 2.317 . S
O4 Cd3 2.317 . S
O4 C5 1.232 . S
C5 O4 1.232 . S
C5 O6 1.199 1_655 S
O6 C5 1.199 1_455 S
C7 O0 1.275 . S
C7 O2 1.255 . S
C8 O9 1.258 . S
C8 O10 1.256 . S
O9 Cd1 2.381 . S
O9 C8 1.258 . S
O10 Cd1 2.378 . S
O10 C8 1.256 . S
O11 Cd12 2.300 1_556 S
O11 C18 1.275 . S
Cd12 O11 2.300 1_554 S
Cd12 O20 2.381 1_554 S
Cd12 O21 2.378 1_655 S
O13 Cd14 2.385 . S
O13 C18 1.255 1_454 S
Cd14 O13 2.385 . S
Cd14 O15 2.331 . S
O15 Cd14 2.331 . S
O15 C16 1.226 1_455 S
C16 O15 1.226 1_655 S
C16 O17 1.218 1_655 S
O17 C16 1.218 1_455 S
C18 O11 1.275 . S
C18 O13 1.255 1_656 S
C19 O20 1.258 . S
C19 O21 1.256 1_656 S
O20 Cd12 2.381 1_556 S
O20 C19 1.258 . S
O21 Cd12 2.378 1_455 S
O21 C19 1.256 1_454 S
O22 Cd23 2.300 1_565 S
O22 C29 1.275 1_565 S
Cd23 O22 2.300 1_545 S
Cd23 O31 2.381 1_545 S
Cd23 O32 2.378 1_556 S
O24 Cd25 2.385 1_556 S
O24 C29 1.255 . S
Cd25 O24 2.385 1_554 S
Cd25 O26 2.317 . S
O26 Cd25 2.317 . S
O26 C27 1.232 . S
C27 O26 1.232 . S
C27 O28 1.218 . S
O28 C27 1.218 . S
C29 O22 1.275 1_545 S
C29 O24 1.255 . S
C30 O31 1.258 1_545 S
C30 O32 1.256 1_556 S
O31 Cd23 2.381 1_565 S
O31 C30 1.258 1_565 S
O32 Cd23 2.378 1_554 S
O32 C30 1.256 1_554 S
O33 Cd34 2.300 1_556 S
O33 C40 1.275 1_556 S
Cd34 O33 2.300 1_554 S
Cd34 O42 2.381 1_554 S
Cd34 O43 2.378 . S
O35 Cd36 2.385 . S
O35 C40 1.255 . S
Cd36 O35 2.385 . S
Cd36 O37 2.317 . S
O37 Cd36 2.317 . S
O37 C38 1.232 . S
C38 O37 1.232 . S
C38 O39 1.218 . S
O39 C38 1.218 . S
C40 O33 1.275 1_554 S
C40 O35 1.255 . S
C41 O42 1.258 1_554 S
C41 O43 1.256 . S
O42 Cd34 2.381 1_556 S
O42 C41 1.258 1_556 S
O43 Cd34 2.378 . S
O43 C41 1.256 . S
O44 Cd45 2.300 . S
O44 C51 1.275 . S
Cd45 O44 2.300 . S
Cd45 O53 2.381 . S
Cd45 O54 2.378 . S
O46 Cd47 2.385 . S
O46 C51 1.255 . S
Cd47 O46 2.385 . S
Cd47 O48 2.317 . S
O48 Cd47 2.317 . S
O48 C49 1.232 . S
C49 O48 1.232 . S
C49 O50 1.218 . S
O50 C49 1.218 . S
C51 O44 1.275 . S
C51 O46 1.255 . S
C52 O53 1.258 . S
C52 O54 1.256 . S
O53 Cd45 2.381 . S
O53 C52 1.258 . S
O54 Cd45 2.378 . S
O54 C52 1.256 . S
O55 Cd56 2.300 . S
O55 C62 1.275 . S
Cd56 O55 2.300 . S
Cd56 O64 2.381 . S
Cd56 O65 2.378 . S
O57 Cd58 2.385 . S
O57 C62 1.255 . S
Cd58 O57 2.385 . S
Cd58 O59 2.317 . S
O59 Cd58 2.317 . S
O59 C60 1.232 . S
C60 O59 1.232 . S
C60 O61 1.218 . S
O61 C60 1.218 . S
C62 O55 1.275 . S
C62 O57 1.255 . S
C63 O64 1.258 . S
C63 O65 1.256 . S
O64 Cd56 2.381 . S
O64 C63 1.258 . S
O65 Cd56 2.378 . S
O65 C63 1.256 . S
O66 Cd67 2.300 1_565 S
O66 C73 1.275 1_565 S
Cd67 O66 2.300 1_545 S
Cd67 O75 2.381 1_545 S
Cd67 O76 2.378 . S
O68 Cd69 2.385 . S
O68 C73 1.255 . S
Cd69 O68 2.385 . S
Cd69 O70 2.317 . S
O70 Cd69 2.317 . S
O70 C71 1.232 . S
C71 O70 1.232 . S
C71 O72 1.218 . S
O72 C71 1.218 . S
C73 O66 1.275 1_545 S
C73 O68 1.255 . S
C74 O75 1.258 1_545 S
C74 O76 1.256 . S
O75 Cd67 2.381 1_565 S
O75 C74 1.258 1_565 S
O76 Cd67 2.378 . S
O76 C74 1.256 . S
O77 Cd78 2.300 . S
O77 C84 1.275 . S
Cd78 O77 2.300 . S
Cd78 O86 2.381 . S
Cd78 O87 2.378 . S
O79 Cd80 2.385 . S
O79 C84 1.255 . S
Cd80 O79 2.385 . S
Cd80 O81 2.317 . S
O81 Cd80 2.317 . S
O81 C82 1.232 . S
C82 O81 1.232 . S
C82 O83 1.218 . S
O83 C82 1.218 . S
C84 O77 1.275 . S
C84 O79 1.255 . S
C85 O86 1.258 . S
C85 O87 1.256 . S
O86 Cd78 2.381 . S
O86 C85 1.258 . S
O87 Cd78 2.378 . S
O87 C85 1.256 . S
Co88 N93 2.057 . S
Co88 O105 2.021 1_545 S
Co88 O108 2.062 1_554 S
Co88 O112 2.117 1_455 S
Co88 O113 2.020 1_545 S
C89 O109 1.259 . S
C89 O112 1.258 1_556 S
Co90 N99 2.057 . S
Co90 O106 2.117 . S
Co90 O107 2.020 1_565 S
Co90 O109 2.021 1_465 S
Co90 O114 2.062 . S
C91 N93 1.316 . S
C91 N94 1.347 . S
C91 H96 0.931 . S
C92 N93 1.375 1_655 S
C92 C95 1.350 1_655 S
C92 H97 0.930 . S
N93 Co88 2.057 . S
N93 C91 1.316 . S
N93 C92 1.375 1_455 S
N94 C91 1.347 . S
N94 C95 1.373 . S
C95 C92 1.350 1_455 S
C95 N94 1.373 . S
C95 H116 0.931 1_455 S
H96 C91 0.931 . S
H97 C92 0.930 . S
C98 O105 1.259 1_556 S
C98 O106 1.258 . S
N99 Co90 2.057 . S
N99 C100 1.316 1_455 S
N99 C101 1.375 . S
C100 N99 1.316 1_655 S
C100 N102 1.347 . S
C100 H111 0.931 . S
C101 N99 1.375 . S
C101 C103 1.350 . S
C101 H110 0.930 . S
N102 C100 1.347 . S
N102 C103 1.373 1_655 S
C103 C101 1.350 . S
C103 N102 1.373 1_455 S
C103 H117 0.931 . S
C104 O107 1.256 . S
C104 O108 1.255 . S
O105 Co88 2.021 1_565 S
O105 C98 1.259 1_554 S
O106 Co90 2.117 . S
O106 C98 1.258 . S
O107 Co90 2.020 1_545 S
O107 C104 1.256 . S
O108 Co88 2.062 1_556 S
O108 C104 1.255 . S
O109 C89 1.259 . S
O109 Co90 2.021 1_645 S
H110 C101 0.930 . S
H111 C100 0.931 . S
O112 Co88 2.117 1_655 S
O112 C89 1.258 1_554 S
O113 Co88 2.020 1_565 S
O113 C115 1.256 . S
O114 Co90 2.062 . S
O114 C115 1.255 1_556 S
C115 O113 1.256 . S
C115 O114 1.255 1_554 S
H116 C95 0.931 1_655 S
H117 C103 0.931 . S
Co118 N123 2.057 1_545 S
Co118 O135 2.021 1_554 S
Co118 O138 2.062 1_554 S
Co118 O142 2.117 1_545 S
Co118 O143 2.020 . S
C119 O139 1.259 . S
C119 O142 1.258 1_556 S
Co120 N129 2.057 1_565 S
Co120 O136 2.117 1_565 S
Co120 O137 2.020 . S
Co120 O139 2.021 . S
Co120 O144 2.062 . S
C121 N123 1.316 1_545 S
C121 N124 1.347 1_545 S
C121 H126 0.931 . S
C122 N123 1.375 . S
C122 C125 1.350 . S
C122 H127 0.930 . S
N123 Co118 2.057 1_565 S
N123 C121 1.316 1_565 S
N123 C122 1.375 . S
N124 C121 1.347 1_565 S
N124 C125 1.373 . S
C125 C122 1.350 . S
C125 N124 1.373 . S
C125 H146 0.931 . S
H126 C121 0.931 . S
H127 C122 0.930 . S
C128 O135 1.259 . S
C128 O136 1.258 . S
N129 Co120 2.057 1_545 S
N129 C130 1.316 1_545 S
N129 C131 1.375 . S
C130 N129 1.316 1_565 S
C130 N132 1.347 1_565 S
C130 H141 0.931 . S
C131 N129 1.375 . S
C131 C133 1.350 . S
C131 H140 0.930 . S
N132 C130 1.347 1_545 S
N132 C133 1.373 . S
C133 C131 1.350 . S
C133 N132 1.373 . S
C133 H147 0.931 . S
C134 O137 1.256 . S
C134 O138 1.255 1_565 S
O135 Co118 2.021 1_556 S
O135 C128 1.259 . S
O136 Co120 2.117 1_545 S
O136 C128 1.258 . S
O137 Co120 2.020 . S
O137 C134 1.256 . S
O138 Co118 2.062 1_556 S
O138 C134 1.255 1_545 S
O139 C119 1.259 . S
O139 Co120 2.021 . S
H140 C131 0.930 . S
H141 C130 0.931 . S
O142 Co118 2.117 1_565 S
O142 C119 1.258 1_554 S
O143 Co118 2.020 . S
O143 C145 1.256 . S
O144 Co120 2.062 . S
O144 C145 1.255 1_566 S
C145 O143 1.256 . S
C145 O144 1.255 1_544 S
H146 C125 0.931 . S
H147 C133 0.931 . S
Co148 N153 2.057 1_556 S
Co148 O165 2.021 . S
Co148 O168 2.062 1_556 S
Co148 O172 2.117 1_556 S
Co148 O173 2.020 . S
C149 O169 1.259 . S
C149 O172 1.258 . S
Co150 N159 2.057 . S
Co150 O166 2.117 . S
Co150 O167 2.020 . S
Co150 O169 2.021 1_556 S
Co150 O174 2.062 . S
C151 N153 1.316 1_556 S
C151 N154 1.347 1_556 S
C151 H156 0.931 . S
C152 N153 1.375 . S
C152 C155 1.350 . S
C152 H157 0.930 . S
N153 Co148 2.057 1_554 S
N153 C151 1.316 1_554 S
N153 C152 1.375 . S
N154 C151 1.347 1_554 S
N154 C155 1.373 . S
C155 C152 1.350 . S
C155 N154 1.373 . S
C155 H176 0.931 . S
H156 C151 0.931 . S
H157 C152 0.930 . S
C158 O165 1.259 . S
C158 O166 1.258 . S
N159 Co150 2.057 . S
N159 C160 1.316 . S
N159 C161 1.375 . S
C160 N159 1.316 . S
C160 N162 1.347 . S
C160 H171 0.931 . S
C161 N159 1.375 . S
C161 C163 1.350 . S
C161 H170 0.930 . S
N162 C160 1.347 . S
N162 C163 1.373 . S
C163 C161 1.350 . S
C163 N162 1.373 . S
C163 H177 0.931 . S
C164 O167 1.256 1_554 S
C164 O168 1.255 . S
O165 Co148 2.021 . S
O165 C158 1.259 . S
O166 Co150 2.117 . S
O166 C158 1.258 . S
O167 Co150 2.020 . S
O167 C164 1.256 1_556 S
O168 Co148 2.062 1_554 S
O168 C164 1.255 . S
O169 C149 1.259 . S
O169 Co150 2.021 1_554 S
H170 C161 0.930 . S
H171 C160 0.931 . S
O172 Co148 2.117 1_554 S
O172 C149 1.258 . S
O173 Co148 2.020 . S
O173 C175 1.256 . S
O174 Co150 2.062 . S
O174 C175 1.255 . S
C175 O173 1.256 . S
C175 O174 1.255 . S
H176 C155 0.931 . S
H177 C163 0.931 . S
Co178 N183 2.057 . S
Co178 O195 2.021 1_455 S
Co178 O198 2.062 1_456 S
Co178 O202 2.117 1_556 S
Co178 O203 2.020 . S
C179 O199 1.259 . S
C179 O202 1.258 . S
Co180 N189 2.057 . S
Co180 O196 2.117 1_455 S
Co180 O197 2.020 1_456 S
Co180 O199 2.021 1_556 S
Co180 O204 2.062 . S
C181 N183 1.316 . S
C181 N184 1.347 . S
C181 H186 0.931 1_455 S
C182 N183 1.375 1_554 S
C182 C185 1.350 . S
C182 H187 0.930 . S
N183 Co178 2.057 . S
N183 C181 1.316 . S
N183 C182 1.375 1_556 S
N184 C181 1.347 . S
N184 C185 1.373 1_556 S
C185 C182 1.350 . S
C185 N184 1.373 1_554 S
C185 H206 0.931 . S
H186 C181 0.931 1_655 S
H187 C182 0.930 . S
C188 O195 1.259 . S
C188 O196 1.258 . S
N189 Co180 2.057 . S
N189 C190 1.316 . S
N189 C191 1.375 1_455 S
C190 N189 1.316 . S
C190 N192 1.347 . S
C190 H201 0.931 1_556 S
C191 N189 1.375 1_655 S
C191 C193 1.350 . S
C191 H200 0.930 . S
N192 C190 1.347 . S
N192 C193 1.373 1_455 S
C193 C191 1.350 . S
C193 N192 1.373 1_655 S
C193 H207 0.931 . S
C194 O197 1.256 . S
C194 O198 1.255 . S
O195 Co178 2.021 1_655 S
O195 C188 1.259 . S
O196 Co180 2.117 1_655 S
O196 C188 1.258 . S
O197 Co180 2.020 1_654 S
O197 C194 1.256 . S
O198 Co178 2.062 1_654 S
O198 C194 1.255 . S
O199 C179 1.259 . S
O199 Co180 2.021 1_554 S
H200 C191 0.930 . S
H201 C190 0.931 1_554 S
O202 Co178 2.117 1_554 S
O202 C179 1.258 . S
O203 Co178 2.020 . S
O203 C205 1.256 . S
O204 Co180 2.062 . S
O204 C205 1.255 . S
C205 O203 1.256 . S
C205 O204 1.255 . S
H206 C185 0.931 . S
H207 C193 0.931 . S
C74 C98 2.102 1_545 S
C128 C85 2.093 . S
N162 C52 1.501 . S
N192 C63 2.254 . S
C89 C30 2.038 . S
C41 C119 2.029 1_554 S
C8 N154 1.330 . S
C19 N184 1.989 1_655 S
C104 C62 1.840 . S
C134 C73 1.927 1_565 S
C175 C84 2.063 . S
C51 C205 1.265 . S
C18 C115 1.504 1_656 S
C145 C29 1.907 1_554 S
C164 C40 1.915 . S
C7 C194 0.830 . S
C60 N94 1.657 . S
C71 N124 1.232 1_545 S
C149 C82 1.589 . S
C179 C49 1.685 . S
C16 N102 0.953 . S
N132 C27 1.184 . S
C158 C38 1.544 . S
C5 C188 1.500 . S
