# Generated by pormake.
# Topology pth, (4,4)-cn, num edge types: 1
# Building blocks:
#     Node 0, Type 0, BuildingBlock: QUQFOY_clean_sbu_1, # of connection points: 4
#     Node 1, Type 0, BuildingBlock: QUQFOY_clean_sbu_1, # of connection points: 4
#     Node 2, Type 0, BuildingBlock: QUQFOY_clean_sbu_1, # of connection points: 4
#     Node 3, Type 1, BuildingBlock: MUDLON_clean_sbu_0, # of connection points: 4
#     Node 4, Type 1, BuildingBlock: MUDLON_clean_sbu_0, # of connection points: 4
#     Node 5, Type 1, BuildingBlock: MUDLON_clean_sbu_0, # of connection points: 4
#     Edge 6, Type (0, 1), BuildingBlock: AJUNOK_clean_linker_0, # of connection points: 2
#     Edge 7, Type (0, 1), BuildingBlock: AJUNOK_clean_linker_0, # of connection points: 2
#     Edge 8, Type (0, 1), BuildingBlock: AJUNOK_clean_linker_0, # of connection points: 2
#     Edge 9, Type (0, 1), BuildingBlock: AJUNOK_clean_linker_0, # of connection points: 2
#     Edge 10, Type (0, 1), BuildingBlock: AJUNOK_clean_linker_0, # of connection points: 2
#     Edge 11, Type (0, 1), BuildingBlock: AJUNOK_clean_linker_0, # of connection points: 2
#     Edge 12, Type (0, 1), BuildingBlock: AJUNOK_clean_linker_0, # of connection points: 2
#     Edge 13, Type (0, 1), BuildingBlock: AJUNOK_clean_linker_0, # of connection points: 2
#     Edge 14, Type (0, 1), BuildingBlock: AJUNOK_clean_linker_0, # of connection points: 2
#     Edge 15, Type (0, 1), BuildingBlock: AJUNOK_clean_linker_0, # of connection points: 2
#     Edge 16, Type (0, 1), BuildingBlock: AJUNOK_clean_linker_0, # of connection points: 2
#     Edge 17, Type (0, 1), BuildingBlock: AJUNOK_clean_linker_0, # of connection points: 2
# Relax obj value: 0.041
# Max RMSD: 0.131
# Mean RMSD: 0.076
data_MOF--net-pth--node1-QUQFOY_clean_sbu_1--node2-MUDLON_clean_sbu_0--edge1-AJUNOK_clean_linker_0
_symmetry_space_group_name_H-M    P1
_symmetry_Int_Tables_number       1
_symmetry_cell_setting            triclinic
loop_
_symmetry_equiv_pos_as_xyz
'x, y, z'
_cell_length_a     16.536116
_cell_length_b     17.639703
_cell_length_c     45.117034
_cell_angle_alpha  89.950349
_cell_angle_beta   89.948196
_cell_angle_gamma 120.77862
loop_
_atom_site_label
_atom_site_type_symbol
_atom_site_fract_x
_atom_site_fract_y
_atom_site_fract_z
_atom_type_partial_charge
O0 O 0.11086 0.1714 0.05322 0.0
Cd1 Cd 0.99065 0.10068 0.07826 0.0
Cd2 Cd 0.06343 0.98843 0.08336 0.0
O3 O 0.17338 0.08794 0.05935 0.0
O4 O 0.95109 0.18405 0.09244 0.0
O5 O 0.99792 0.11458 0.1224 0.0
C6 C 0.96899 0.16971 0.119 0.0
C7 C 0.09852 0.91014 0.11828 0.0
C8 C 0.17693 0.15596 0.04837 0.0
C9 C 0.87172 0.92286 0.05316 0.0
O10 O 0.93701 0.90981 0.06161 0.0
O11 O 0.8775 0.99646 0.05771 0.0
O12 O 0.10578 0.90235 0.09021 0.0
O13 O 0.07472 0.96587 0.12686 0.0
O14 O 0.93059 0.08088 0.4577 0.0
Cd15 Cd 0.04483 0.12628 0.42968 0.0
Cd16 Cd 0.971 0.94776 0.42125 0.0
O17 O 0.86029 0.94011 0.44511 0.0
O18 O 0.07947 0.24492 0.41391 0.0
O19 O 0.02695 0.1258 0.3859 0.0
C20 C 0.05567 0.20897 0.38801 0.0
C21 C 0.93222 0.83766 0.38517 0.0
C22 C 0.86182 1.00208 0.45989 0.0
C23 C 0.16246 0.06002 0.45257 0.0
O24 O 0.09438 0.98538 0.44438 0.0
O25 O 0.16066 0.12986 0.44739 0.0
O26 O 0.92487 0.82069 0.4131 0.0
O27 O 0.96071 0.91796 0.37742 0.0
O28 O 0.88492 1.00715 0.72836 0.0
Cd29 Cd 0.95891 0.95724 0.74953 0.0
Cd30 Cd 0.09679 0.1371 0.74629 0.0
O31 O 0.99902 0.14435 0.7201 0.0
O32 O 0.86182 0.83039 0.75627 0.0
O33 O 0.9387 0.92162 0.79286 0.0
C34 C 0.87716 0.8429 0.78429 0.0
C35 C 0.15899 0.23453 0.78635 0.0
C36 C 0.91424 0.0827 0.71675 0.0
C37 C 0.14194 1.00785 0.71865 0.0
O38 O 0.1727 0.08713 0.72668 0.0
O39 O 0.05829 0.94777 0.72483 0.0
O40 O 0.18784 0.26005 0.75961 0.0
O41 O 0.09517 0.1526 0.79035 0.0
Mg42 Mg 1.00626 0.53523 0.25388 0.0
C43 C 0.01481 0.40717 0.29268 0.0
O44 O 0.93242 0.36402 0.27961 0.0
C45 C 0.05945 0.64631 0.20133 0.0
O46 O 0.98045 0.57434 0.19437 0.0
C47 C 0.99915 0.40106 0.21477 0.0
O48 O 0.08299 0.44002 0.227 0.0
O49 O 0.94197 0.42602 0.22215 0.0
O50 O 0.06846 0.48905 0.28699 0.0
O51 O 0.92303 0.57991 0.27755 0.0
C52 C 0.91517 0.57179 0.30558 0.0
O53 O 0.93904 0.51975 0.31877 0.0
O54 O 0.09579 0.65125 0.22666 0.0
Mg55 Mg 0.53221 0.05661 0.58548 0.0
C56 C 0.40299 0.05344 0.54376 0.0
O57 O 0.36172 0.97917 0.55881 0.0
C58 C 0.64871 0.07392 0.63226 0.0
O59 O 0.57566 0.99338 0.63063 0.0
C60 C 0.35795 0.94809 0.63043 0.0
O61 O 0.32991 0.8719 0.61751 0.0
O62 O 0.42772 1.01811 0.62023 0.0
O63 O 0.48646 0.11239 0.55085 0.0
O64 O 0.5669 0.966 0.56418 0.0
C65 C 0.55905 0.9536 0.53629 0.0
O66 O 0.50218 0.97079 0.52147 0.0
O67 O 0.65707 0.1301 0.61282 0.0
Mg68 Mg 0.51666 0.5563 0.92169 0.0
C69 C 0.33147 0.45798 0.88956 0.0
O70 O 0.30578 0.41754 0.91528 0.0
C71 C 0.61458 0.65682 0.97176 0.0
O72 O 0.63042 0.59161 0.96839 0.0
C73 C 0.46905 0.39125 0.96515 0.0
O74 O 0.5529 0.40058 0.96306 0.0
O75 O 0.45 0.44189 0.95065 0.0
O76 O 0.41142 0.52859 0.8876 0.0
O77 O 0.64417 0.59364 0.8967 0.0
C78 C 0.63616 0.5734 0.86939 0.0
O79 O 0.55361 0.51164 0.85963 0.0
O80 O 0.56249 0.665 0.9528 0.0
C81 C 0.00945 0.22348 0.17116 0.0
C82 C 0.96335 0.21989 0.14455 0.0
C83 C 0.01659 0.27946 0.19429 0.0
C84 C 0.97645 0.33286 0.19201 0.0
H85 H 0.04406 0.18576 0.17372 0.0
H86 H 0.05616 0.28269 0.21387 0.0
S87 S 0.84069 0.34249 0.12832 0.0
N88 N 0.87135 0.27073 0.11811 0.0
N89 N 0.8839 0.3749 0.16197 0.0
C90 C 0.92549 0.3264 0.16633 0.0
C91 C 0.91929 0.27026 0.14249 0.0
C92 C 0.6905 0.92748 0.47225 0.0
C93 C 0.78485 0.98187 0.48083 0.0
C94 C 0.61678 0.91394 0.49117 0.0
C95 C 0.63506 0.95183 0.51962 0.0
H96 H 0.67369 0.89867 0.45029 0.0
H97 H 0.54511 0.876 0.48311 0.0
S98 S 0.87076 0.09164 0.55358 0.0
N99 N 0.893 0.0688 0.52013 0.0
N100 N 0.75499 0.04108 0.55611 0.0
C101 C 0.7293 1.00179 0.52908 0.0
C102 C 0.80412 1.01751 0.50953 0.0
C103 C 0.83429 0.78638 0.83649 0.0
C104 C 0.82357 0.76977 0.80581 0.0
C105 C 0.77798 0.72052 0.85712 0.0
C106 C 0.70829 0.63531 0.84793 0.0
H107 H 0.88432 0.85164 0.84469 0.0
H108 H 0.78616 0.73816 0.88037 0.0
S109 S 0.66085 0.55391 0.77036 0.0
N110 N 0.74446 0.65856 0.76746 0.0
N111 N 0.63894 0.53545 0.80616 0.0
C112 C 0.70101 0.61625 0.81743 0.0
C113 C 0.75837 0.68323 0.79642 0.0
C114 C 0.1097 0.86497 0.17038 0.0
C115 C 0.10831 0.85085 0.13957 0.0
C116 C 0.10361 0.80193 0.19083 0.0
C117 C 0.09476 0.72237 0.18108 0.0
H118 H 0.11123 0.9232 0.17878 0.0
H119 H 0.09869 0.81259 0.21425 0.0
S120 S 0.09723 0.65645 0.10334 0.0
N121 N 0.10645 0.75392 0.10072 0.0
N122 N 0.09237 0.6355 0.13916 0.0
C123 C 0.09899 0.7098 0.15058 0.0
C124 C 0.10658 0.77409 0.1298 0.0
C125 C 0.29652 0.13961 0.48845 0.0
C126 C 0.23753 0.06347 0.47161 0.0
C127 C 0.3551 0.13835 0.51079 0.0
C128 C 0.35567 0.06072 0.51713 0.0
H129 H 0.29395 0.19927 0.48548 0.0
H130 H 0.39574 0.19668 0.52426 0.0
S131 S 0.22881 0.84912 0.47605 0.0
N132 N 0.19493 0.91258 0.46017 0.0
N133 N 0.3026 0.90984 0.50245 0.0
C134 C 0.3026 0.98647 0.49908 0.0
C135 C 0.24423 0.98797 0.4762 0.0
C136 C 0.16127 0.26872 0.84035 0.0
C137 C 0.19869 0.29688 0.81174 0.0
C138 C 0.20103 0.32366 0.86506 0.0
C139 C 0.28038 0.40923 0.86234 0.0
H140 H 0.10192 0.20276 0.8439 0.0
H141 H 0.17116 0.29714 0.88664 0.0
S142 S 0.40026 0.51822 0.79189 0.0
N143 N 0.31593 0.41886 0.7818 0.0
N144 N 0.3904 0.52198 0.82819 0.0
C145 C 0.31563 0.44004 0.83363 0.0
C146 C 0.27504 0.38394 0.8084 0.0
C147 C 0.75201 0.0406 0.70179 0.0
C148 C 0.84941 0.0955 0.69762 0.0
C149 C 0.68801 0.03956 0.68142 0.0
C150 C 0.7185 0.09288 0.65585 0.0
H151 H 0.7248 0.99547 0.72042 0.0
H152 H 0.61375 0.99347 0.68515 0.0
S153 S 0.96571 0.25472 0.63586 0.0
N154 N 0.97356 0.21036 0.6672 0.0
N155 N 0.85211 0.2073 0.62857 0.0
C156 C 0.81528 0.15255 0.65229 0.0
C157 C 0.88105 0.15404 0.67326 0.0
C158 C 0.75251 0.87533 1.01232 0.0
C159 C 0.79248 0.85321 0.03591 0.0
C160 C 0.68963 0.81059 0.99241 0.0
C161 C 0.66468 0.72187 0.99562 0.0
H162 H 0.77417 0.94365 1.00817 0.0
H163 H 0.66489 0.83097 0.97352 0.0
S164 S 0.73521 0.62799 0.05723 0.0
N165 N 0.79234 0.73514 0.06368 0.0
N166 N 0.67377 0.6137 0.02678 0.0
C167 C 0.69812 0.69827 1.02058 0.0
C168 C 0.76221 0.7639 0.0406 0.0
C169 C 0.8899 0.68308 0.37365 0.0
C170 C 0.91393 0.76747 0.36331 0.0
C171 C 0.88417 0.61831 0.3544 0.0
C172 C 0.90161 0.63459 0.32387 0.0
H173 H 0.87898 0.66761 0.39708 0.0
H174 H 0.86966 0.55602 0.36381 0.0
S175 S 0.95598 0.841 0.28477 0.0
N176 N 0.94685 0.8611 0.31997 0.0
N177 N 0.9357 0.73913 0.28369 0.0
C178 C 0.91945 0.7166 0.31282 0.0
C179 C 0.92586 0.78307 0.33256 0.0
C180 C 0.15794 0.91098 0.68132 0.0
C181 C 0.2007 0.98671 0.69947 0.0
C182 C 0.20993 0.89599 0.65992 0.0
C183 C 0.30648 0.95619 0.65596 0.0
H184 H 0.08284 0.86487 0.68264 0.0
H185 H 0.17332 0.83924 0.6455 0.0
S186 S 0.45517 0.1559 0.70139 0.0
N187 N 0.34768 0.11632 0.7145 0.0
N188 N 0.44537 0.08804 0.67461 0.0
C189 C 0.35129 0.02874 0.67538 0.0
C190 C 0.29844 0.04406 0.69704 0.0
C191 C 0.24603 0.27775 1.01128 0.0
C192 C 0.25499 0.21542 0.02813 0.0
C193 C 0.31508 0.3327 0.99099 0.0
C194 C 0.39728 0.3288 0.98658 0.0
H195 H 0.18437 0.28389 1.01342 0.0
H196 H 0.30344 0.37915 0.97877 0.0
S197 S 0.45683 0.17839 0.02558 0.0
N198 N 0.35346 0.15333 0.03936 0.0
N199 N 0.48435 0.25787 1.00118 0.0
C200 C 0.40805 0.26733 1.00341 0.0
C201 C 0.3368 0.21045 1.02414 0.0
C202 C 0.09108 0.35233 0.36479 0.0
C203 C 0.0565 0.26106 0.36194 0.0
C204 C 0.08308 0.40124 0.34157 0.0
C205 C 0.03922 0.36035 0.31482 0.0
H206 H 0.12203 0.38593 0.38545 0.0
H207 H 0.10684 0.47026 0.34517 0.0
S208 S 0.9479 0.12663 0.29439 0.0
N209 N 0.98527 0.13439 0.32879 0.0
N210 N 0.96922 0.22604 0.28553 0.0
C211 C 0.00902 0.27059 0.31105 0.0
C212 C 0.01798 0.22101 0.33448 0.0
loop_
_geom_bond_atom_site_label_1
_geom_bond_atom_site_label_2
_geom_bond_distance
_geom_bond_site_symmetry_2
_ccdc_geom_bond_type
O0 Cd1 2.223 1_455 S
O0 C8 1.315 . S
Cd1 O0 2.223 1_655 S
Cd1 O4 2.297 . S
Cd1 O5 2.439 . S
Cd1 O11 2.240 1_545 S
Cd2 O3 2.240 1_565 S
Cd2 O10 2.223 1_455 S
Cd2 O12 2.297 . S
Cd2 O13 2.439 . S
O3 Cd2 2.240 1_545 S
O3 C8 1.279 . S
O4 Cd1 2.297 . S
O4 C6 1.247 . S
O5 Cd1 2.439 . S
O5 C6 1.208 . S
C6 O4 1.247 . S
C6 O5 1.208 . S
C7 O12 1.247 . S
C7 O13 1.208 . S
C8 O0 1.315 . S
C8 O3 1.279 . S
C9 O10 1.315 . S
C9 O11 1.279 . S
O10 Cd2 2.223 1_655 S
O10 C9 1.315 . S
O11 Cd1 2.240 1_565 S
O11 C9 1.279 . S
O12 Cd2 2.297 . S
O12 C7 1.247 . S
O13 Cd2 2.439 . S
O13 C7 1.208 . S
O14 Cd15 2.223 1_655 S
O14 C22 1.315 . S
Cd15 O14 2.223 1_455 S
Cd15 O18 2.297 . S
Cd15 O19 2.439 . S
Cd15 O25 2.240 . S
Cd16 O17 2.240 . S
Cd16 O24 2.223 1_655 S
Cd16 O26 2.297 . S
Cd16 O27 2.439 . S
O17 Cd16 2.240 . S
O17 C22 1.279 1_565 S
O18 Cd15 2.297 . S
O18 C20 1.247 . S
O19 Cd15 2.439 . S
O19 C20 1.208 . S
C20 O18 1.247 . S
C20 O19 1.208 . S
C21 O26 1.247 . S
C21 O27 1.208 . S
C22 O14 1.315 . S
C22 O17 1.279 1_545 S
C23 O24 1.315 . S
C23 O25 1.279 1_565 S
O24 Cd16 2.223 1_455 S
O24 C23 1.315 . S
O25 Cd15 2.240 . S
O25 C23 1.279 1_545 S
O26 Cd16 2.297 . S
O26 C21 1.247 . S
O27 Cd16 2.439 . S
O27 C21 1.208 . S
O28 Cd29 2.223 . S
O28 C36 1.315 . S
Cd29 O28 2.223 . S
Cd29 O32 2.297 . S
Cd29 O33 2.439 . S
Cd29 O39 2.240 1_655 S
Cd30 O31 2.240 1_455 S
Cd30 O38 2.223 . S
Cd30 O40 2.297 . S
Cd30 O41 2.439 . S
O31 Cd30 2.240 1_655 S
O31 C36 1.279 1_545 S
O32 Cd29 2.297 . S
O32 C34 1.247 . S
O33 Cd29 2.439 . S
O33 C34 1.208 . S
C34 O32 1.247 . S
C34 O33 1.208 . S
C35 O40 1.247 . S
C35 O41 1.208 . S
C36 O28 1.315 . S
C36 O31 1.279 1_565 S
C37 O38 1.315 . S
C37 O39 1.279 1_545 S
O38 Cd30 2.223 . S
O38 C37 1.315 . S
O39 Cd29 2.240 1_455 S
O39 C37 1.279 1_565 S
O40 Cd30 2.297 . S
O40 C35 1.247 . S
O41 Cd30 2.439 . S
O41 C35 1.208 . S
Mg42 O49 2.141 . S
Mg42 O50 2.048 . S
Mg42 O51 2.048 . S
Mg42 O54 2.141 . S
C43 O44 1.313 . S
C43 O50 1.195 1_655 S
O44 C43 1.313 . S
C45 O46 1.245 . S
C45 O54 1.289 1_655 S
O46 C45 1.245 . S
C47 O48 1.245 . S
C47 O49 1.289 1_655 S
O48 C47 1.245 . S
O49 Mg42 2.141 . S
O49 C47 1.289 1_455 S
O50 Mg42 2.048 . S
O50 C43 1.195 1_455 S
O51 Mg42 2.048 . S
O51 C52 1.195 1_455 S
C52 O51 1.195 1_655 S
C52 O53 1.313 . S
O53 C52 1.313 . S
O54 Mg42 2.141 . S
O54 C45 1.289 1_455 S
Mg55 O62 2.141 . S
Mg55 O63 2.048 . S
Mg55 O64 2.048 . S
Mg55 O67 2.141 . S
C56 O57 1.313 . S
C56 O63 1.195 1_565 S
O57 C56 1.313 . S
C58 O59 1.245 . S
C58 O67 1.289 1_565 S
O59 C58 1.245 . S
C60 O61 1.245 . S
C60 O62 1.289 1_565 S
O61 C60 1.245 . S
O62 Mg55 2.141 . S
O62 C60 1.289 1_545 S
O63 Mg55 2.048 . S
O63 C56 1.195 1_545 S
O64 Mg55 2.048 . S
O64 C65 1.195 1_545 S
C65 O64 1.195 1_565 S
C65 O66 1.313 . S
O66 C65 1.313 . S
O67 Mg55 2.141 . S
O67 C58 1.289 1_545 S
Mg68 O75 2.141 . S
Mg68 O76 2.048 . S
Mg68 O77 2.048 . S
Mg68 O80 2.141 . S
C69 O70 1.313 . S
C69 O76 1.195 . S
O70 C69 1.313 . S
C71 O72 1.245 . S
C71 O80 1.289 . S
O72 C71 1.245 . S
C73 O74 1.245 . S
C73 O75 1.289 . S
O74 C73 1.245 . S
O75 Mg68 2.141 . S
O75 C73 1.289 . S
O76 Mg68 2.048 . S
O76 C69 1.195 . S
O77 Mg68 2.048 . S
O77 C78 1.195 . S
C78 O77 1.195 . S
C78 O79 1.313 . S
O79 C78 1.313 . S
O80 Mg68 2.141 . S
O80 C71 1.289 . S
C81 C82 1.370 . S
C81 C83 1.419 . S
C81 H85 0.930 . S
C82 C81 1.370 . S
C82 C91 1.429 1_655 S
C83 C81 1.419 . S
C83 C84 1.364 1_655 S
C83 H86 0.929 . S
C84 C83 1.364 1_455 S
C84 C90 1.431 . S
H85 C81 0.930 . S
H86 C83 0.929 . S
S87 N88 1.613 . S
S87 N89 1.610 . S
N88 S87 1.613 . S
N88 C91 1.350 . S
N89 S87 1.610 . S
N89 C90 1.351 . S
C90 C84 1.431 . S
C90 N89 1.351 . S
C90 C91 1.434 . S
C91 C82 1.429 1_455 S
C91 N88 1.350 . S
C91 C90 1.434 . S
C92 C93 1.369 1_565 S
C92 C94 1.419 . S
C92 H96 0.930 . S
C93 C92 1.369 1_545 S
C93 C102 1.429 . S
C94 C92 1.419 . S
C94 C95 1.363 1_565 S
C94 H97 0.929 . S
C95 C94 1.363 1_545 S
C95 C101 1.428 . S
H96 C92 0.930 . S
H97 C94 0.929 . S
S98 N99 1.613 . S
S98 N100 1.610 . S
N99 S98 1.613 . S
N99 C102 1.350 . S
N100 S98 1.610 . S
N100 C101 1.351 . S
C101 C95 1.428 . S
C101 N100 1.351 . S
C101 C102 1.434 . S
C102 C93 1.429 . S
C102 N99 1.350 . S
C102 C101 1.434 . S
C103 C104 1.369 . S
C103 C105 1.419 . S
C103 H107 0.930 . S
C104 C103 1.369 . S
C104 C113 1.429 . S
C105 C103 1.419 . S
C105 C106 1.363 . S
C105 H108 0.929 . S
C106 C105 1.363 . S
C106 C112 1.428 . S
H107 C103 0.930 . S
H108 C105 0.929 . S
S109 N110 1.613 . S
S109 N111 1.610 . S
N110 S109 1.613 . S
N110 C113 1.350 . S
N111 S109 1.610 . S
N111 C112 1.351 . S
C112 C106 1.428 . S
C112 N111 1.351 . S
C112 C113 1.434 . S
C113 C104 1.429 . S
C113 N110 1.350 . S
C113 C112 1.434 . S
C114 C115 1.370 . S
C114 C116 1.419 . S
C114 H118 0.930 . S
C115 C114 1.370 . S
C115 C124 1.431 1_455 S
C116 C114 1.419 . S
C116 C117 1.364 1_455 S
C116 H119 0.929 . S
C117 C116 1.364 1_655 S
C117 C123 1.428 . S
H118 C114 0.930 . S
H119 C116 0.929 . S
S120 N121 1.613 . S
S120 N122 1.610 . S
N121 S120 1.613 . S
N121 C124 1.350 . S
N122 S120 1.610 . S
N122 C123 1.351 . S
C123 C117 1.428 . S
C123 N122 1.351 . S
C123 C124 1.434 . S
C124 C115 1.431 1_655 S
C124 N121 1.350 . S
C124 C123 1.434 . S
C125 C126 1.369 1_545 S
C125 C127 1.419 . S
C125 H129 0.930 . S
C126 C125 1.369 1_565 S
C126 C135 1.429 . S
C127 C125 1.419 . S
C127 C128 1.363 1_545 S
C127 H130 0.929 . S
C128 C127 1.363 1_565 S
C128 C134 1.428 . S
H129 C125 0.930 . S
H130 C127 0.929 . S
S131 N132 1.613 . S
S131 N133 1.610 . S
N132 S131 1.613 . S
N132 C135 1.350 . S
N133 S131 1.610 . S
N133 C134 1.351 . S
C134 C128 1.428 . S
C134 N133 1.351 . S
C134 C135 1.434 . S
C135 C126 1.429 . S
C135 N132 1.350 . S
C135 C134 1.434 . S
C136 C137 1.369 . S
C136 C138 1.419 . S
C136 H140 0.930 . S
C137 C136 1.369 . S
C137 C146 1.429 . S
C138 C136 1.419 . S
C138 C139 1.363 . S
C138 H141 0.929 . S
C139 C138 1.363 . S
C139 C145 1.428 . S
H140 C136 0.930 . S
H141 C138 0.929 . S
S142 N143 1.613 . S
S142 N144 1.610 . S
N143 S142 1.613 . S
N143 C146 1.350 . S
N144 S142 1.610 . S
N144 C145 1.351 . S
C145 C139 1.428 . S
C145 N144 1.351 . S
C145 C146 1.434 . S
C146 C137 1.429 . S
C146 N143 1.350 . S
C146 C145 1.434 . S
C147 C148 1.369 . S
C147 C149 1.419 . S
C147 H151 0.930 . S
C148 C147 1.369 . S
C148 C157 1.429 1_565 S
C149 C147 1.419 . S
C149 C150 1.363 . S
C149 H152 0.929 . S
C150 C149 1.363 . S
C150 C156 1.428 1_565 S
H151 C147 0.930 . S
H152 C149 0.929 . S
S153 N154 1.613 . S
S153 N155 1.610 . S
N154 S153 1.613 . S
N154 C157 1.350 . S
N155 S153 1.610 . S
N155 C156 1.351 . S
C156 C150 1.428 1_545 S
C156 N155 1.351 . S
C156 C157 1.434 . S
C157 C148 1.429 1_545 S
C157 N154 1.350 . S
C157 C156 1.434 . S
C158 C159 1.394 . S
C158 C160 1.419 . S
C158 H162 0.930 . S
C159 C158 1.394 . S
C159 C168 1.426 1_556 S
C160 C158 1.419 . S
C160 C161 1.363 . S
C160 H163 0.929 . S
C161 C160 1.363 . S
C161 C167 1.428 . S
H162 C158 0.930 . S
H163 C160 0.929 . S
S164 N165 1.613 . S
S164 N166 1.610 1_554 S
N165 S164 1.613 . S
N165 C168 1.350 . S
N166 S164 1.610 1_556 S
N166 C167 1.351 . S
C167 C161 1.428 . S
C167 N166 1.351 . S
C167 C168 1.434 1_556 S
C168 C159 1.426 1_554 S
C168 N165 1.350 . S
C168 C167 1.434 1_554 S
C169 C170 1.369 1_655 S
C169 C171 1.419 . S
C169 H173 0.930 . S
C170 C169 1.369 1_455 S
C170 C179 1.429 . S
C171 C169 1.419 . S
C171 C172 1.363 1_655 S
C171 H174 0.929 . S
C172 C171 1.363 1_455 S
C172 C178 1.428 . S
H173 C169 0.930 . S
H174 C171 0.929 . S
S175 N176 1.613 . S
S175 N177 1.610 . S
N176 S175 1.613 . S
N176 C179 1.350 . S
N177 S175 1.610 . S
N177 C178 1.351 . S
C178 C172 1.428 . S
C178 N177 1.351 . S
C178 C179 1.434 . S
C179 C170 1.429 . S
C179 N176 1.350 . S
C179 C178 1.434 . S
C180 C181 1.369 1_565 S
C180 C182 1.419 . S
C180 H184 0.930 . S
C181 C180 1.369 1_545 S
C181 C190 1.429 . S
C182 C180 1.419 . S
C182 C183 1.363 1_565 S
C182 H185 0.929 . S
C183 C182 1.363 1_545 S
C183 C189 1.428 . S
H184 C180 0.930 . S
H185 C182 0.929 . S
S186 N187 1.613 . S
S186 N188 1.610 . S
N187 S186 1.613 . S
N187 C190 1.350 . S
N188 S186 1.610 . S
N188 C189 1.351 . S
C189 C183 1.428 . S
C189 N188 1.351 . S
C189 C190 1.434 . S
C190 C181 1.429 . S
C190 N187 1.350 . S
C190 C189 1.434 . S
C191 C192 1.385 . S
C191 C193 1.419 . S
C191 H195 0.930 . S
C192 C191 1.385 . S
C192 C201 1.430 . S
C193 C191 1.419 . S
C193 C194 1.363 . S
C193 H196 0.929 . S
C194 C193 1.363 . S
C194 C200 1.428 . S
H195 C191 0.930 . S
H196 C193 0.929 . S
S197 N198 1.613 . S
S197 N199 1.610 1_554 S
N198 S197 1.613 . S
N198 C201 1.350 1_554 S
N199 S197 1.610 1_556 S
N199 C200 1.351 . S
C200 C194 1.428 . S
C200 N199 1.351 . S
C200 C201 1.434 . S
C201 C192 1.430 . S
C201 N198 1.350 1_556 S
C201 C200 1.434 . S
C202 C203 1.369 1_455 S
C202 C204 1.419 . S
C202 H206 0.930 . S
C203 C202 1.369 1_655 S
C203 C212 1.429 . S
C204 C202 1.419 . S
C204 C205 1.363 1_455 S
C204 H207 0.929 . S
C205 C204 1.363 1_655 S
C205 C211 1.428 . S
H206 C202 0.930 . S
H207 C204 0.929 . S
S208 N209 1.613 . S
S208 N210 1.610 . S
N209 S208 1.613 . S
N209 C212 1.350 . S
N210 S208 1.610 . S
N210 C211 1.351 . S
C211 C205 1.428 . S
C211 N210 1.351 . S
C211 C212 1.434 . S
C212 C203 1.429 . S
C212 N209 1.350 . S
C212 C211 1.434 . S
C84 C47 1.438 1_455 S
C82 C6 1.441 . S
C93 C22 1.539 . S
C95 C65 1.555 1_545 S
C104 C34 1.344 . S
C106 C78 1.363 . S
C115 C7 1.440 . S
C117 C45 1.441 . S
C128 C56 1.550 . S
C126 C23 1.534 . S
C137 C35 1.350 . S
C139 C69 1.351 . S
C150 C58 1.492 . S
C148 C36 1.497 . S
C159 C9 1.621 1_556 S
C161 C71 1.670 . S
C172 C52 1.502 1_455 S
C170 C21 1.490 1_455 S
C183 C60 1.500 1_545 S
C181 C37 1.490 . S
C194 C73 1.669 . S
C192 C8 1.629 1_556 S
C203 C20 1.490 1_655 S
C205 C43 1.495 . S
