# Generated by pormake.
# Topology pts, (4,4)-cn, num edge types: 1
# Building blocks:
#     Node 0, Type 0, BuildingBlock: NAWXER_clean_sbu_0, # of connection points: 4
#     Node 1, Type 0, BuildingBlock: NAWXER_clean_sbu_0, # of connection points: 4
#     Node 2, Type 1, BuildingBlock: QUQFOY_clean_sbu_1, # of connection points: 4
#     Node 3, Type 1, BuildingBlock: QUQFOY_clean_sbu_1, # of connection points: 4
#     Edge 4, Type (0, 1), BuildingBlock: EZIPEK_clean_linker_0, # of connection points: 2
#     Edge 5, Type (0, 1), BuildingBlock: EZIPEK_clean_linker_0, # of connection points: 2
#     Edge 6, Type (0, 1), BuildingBlock: EZIPEK_clean_linker_0, # of connection points: 2
#     Edge 7, Type (0, 1), BuildingBlock: EZIPEK_clean_linker_0, # of connection points: 2
#     Edge 8, Type (0, 1), BuildingBlock: EZIPEK_clean_linker_0, # of connection points: 2
#     Edge 9, Type (0, 1), BuildingBlock: EZIPEK_clean_linker_0, # of connection points: 2
#     Edge 10, Type (0, 1), BuildingBlock: EZIPEK_clean_linker_0, # of connection points: 2
#     Edge 11, Type (0, 1), BuildingBlock: EZIPEK_clean_linker_0, # of connection points: 2
# Relax obj value: 0.106
# Max RMSD: 0.241
# Mean RMSD: 0.139
data_MOF--net-pts--node1-NAWXER_clean_sbu_0--node2-QUQFOY_clean_sbu_1--edge1-EZIPEK_clean_linker_0
_symmetry_space_group_name_H-M    P1
_symmetry_Int_Tables_number       1
_symmetry_cell_setting            triclinic
loop_
_symmetry_equiv_pos_as_xyz
'x, y, z'
_cell_length_a     15.884723
_cell_length_b     18.099423
_cell_length_c     29.150797
_cell_angle_alpha  90.070444
_cell_angle_beta   89.985465
_cell_angle_gamma 90.029497
loop_
_atom_site_label
_atom_site_type_symbol
_atom_site_fract_x
_atom_site_fract_y
_atom_site_fract_z
_atom_type_partial_charge
C0 C 0.38818 0.96332 0.94374 0.0
C1 C 0.60984 0.96215 0.06489 0.0
O2 O 0.41469 0.90367 0.9623 0.0
Zn3 Zn 0.49888 0.94845 1.00431 0.0
O4 O 0.41841 0.02513 0.95659 0.0
Zn5 Zn 0.49939 0.07155 0.00465 0.0
O6 O 0.58379 0.11676 0.96297 0.0
O7 O 0.58011 0.99535 0.95662 0.0
O8 O 0.5801 0.02423 0.05237 0.0
O9 O 0.58277 0.90281 0.04607 0.0
O10 O 0.41797 0.99529 0.05223 0.0
O11 O 0.41544 0.11679 0.04663 0.0
C12 C 0.61039 0.05729 0.94413 0.0
C13 C 0.38829 0.05727 0.0651 0.0
C14 C 0.94389 0.60737 0.44407 0.0
C15 C 0.94374 0.4115 0.56464 0.0
O16 O 0.87586 0.57735 0.45842 0.0
Zn17 Zn 0.92721 0.50946 0.50438 0.0
O18 O 0.01418 0.58568 0.4602 0.0
Zn19 Zn 0.06847 0.50945 0.50435 0.0
O20 O 0.11984 0.44095 0.45866 0.0
O21 O 0.98154 0.43256 0.46053 0.0
O22 O 0.01405 0.4332 0.54849 0.0
O23 O 0.87575 0.44156 0.55034 0.0
O24 O 0.98162 0.58632 0.54824 0.0
O25 O 0.11992 0.57791 0.55007 0.0
C26 C 0.05184 0.41068 0.44446 0.0
C27 C 0.05195 0.60816 0.56431 0.0
O28 O 0.91099 0.93828 0.21396 0.0
Cd29 Cd 0.0115 0.93576 0.25755 0.0
Cd30 Cd 0.98676 0.08088 0.25813 0.0
O31 O 0.8721 0.05302 0.22818 0.0
O32 O 0.01495 0.82921 0.27336 0.0
O33 O 0.98915 0.91654 0.32472 0.0
C34 C 0.99469 0.84713 0.31471 0.0
C35 C 0.00289 0.16958 0.31545 0.0
C36 C 0.85895 0.99062 0.2092 0.0
C37 C 0.13944 0.02661 0.20936 0.0
O38 O 0.08745 0.07891 0.21459 0.0
O39 O 0.12623 0.96387 0.2278 0.0
O40 O 0.9828 0.18741 0.2741 0.0
O41 O 0.00872 0.1002 0.32537 0.0
O42 O 0.91114 0.08036 0.79467 0.0
Cd43 Cd 0.01139 0.08278 0.75087 0.0
Cd44 Cd 0.98686 0.93765 0.75085 0.0
O45 O 0.87222 0.96549 0.78079 0.0
O46 O 0.01481 0.18934 0.73507 0.0
O47 O 0.98873 0.10204 0.68373 0.0
C48 C 0.99437 0.17144 0.69375 0.0
C49 C 0.00314 0.8489 0.69358 0.0
C50 C 0.85914 0.02799 0.79965 0.0
C51 C 0.13954 0.99262 0.79926 0.0
O52 O 0.08753 0.94021 0.79436 0.0
O53 O 0.1263 0.05507 0.78047 0.0
O54 O 0.98315 0.83107 0.73495 0.0
O55 O 0.00883 0.91829 0.68362 0.0
C56 C 0.25061 1.00791 0.09509 0.0
C57 C 0.32146 0.05583 0.10108 0.0
C58 C 0.2747 0.08208 0.18019 0.0
C59 C 0.20449 0.03475 0.17343 0.0
N60 N 0.1132 0.96912 0.12135 0.0
N61 N 0.40788 0.12975 0.15153 0.0
C62 C 0.18919 1.00217 0.13012 0.0
C63 C 0.33472 0.09163 0.14406 0.0
N64 N 0.24309 0.96458 0.05679 0.0
N65 N 0.28275 0.11888 0.22098 0.0
H66 H 0.45401 0.13697 0.12653 0.0
H67 H 0.42634 0.15052 0.18323 0.0
H68 H 0.24239 0.11006 0.24869 0.0
H69 H 0.32625 0.16073 0.22699 0.0
H70 H 0.20077 0.92078 0.05428 0.0
H71 H 0.28269 0.96723 0.02859 0.0
H72 H 0.09314 0.95454 0.08854 0.0
H73 H 0.06614 0.96228 0.14593 0.0
C74 C 0.01592 0.35364 0.6321 0.0
C75 C 0.94725 0.35244 0.60049 0.0
C76 C 0.90379 0.233 0.63306 0.0
C77 C 0.97932 0.23033 0.65923 0.0
N78 N 0.11744 0.28059 0.67355 0.0
N79 N 0.83544 0.28121 0.5652 0.0
C80 C 0.03825 0.28848 0.65581 0.0
C81 C 0.89335 0.28958 0.59943 0.0
N82 N 0.05943 0.41738 0.64055 0.0
N83 N 0.84065 0.18348 0.64123 0.0
H84 H 0.82708 0.31939 0.53894 0.0
H85 H 0.80125 0.23264 0.56042 0.0
H86 H 0.84472 0.14234 0.66611 0.0
H87 H 0.7812 0.1879 0.62636 0.0
H88 H 0.10368 0.42213 0.6668 0.0
H89 H 0.04565 0.4675 0.625 0.0
H90 H 0.16545 0.31879 0.66784 0.0
H91 H 0.13812 0.23211 0.68923 0.0
C92 C 0.66378 0.92638 0.14348 0.0
C93 C 0.67668 0.96324 0.10087 0.0
C94 C 0.80873 0.01683 0.13032 0.0
C95 C 0.79381 0.98308 0.17327 0.0
N96 N 0.71631 0.89732 0.21996 0.0
N97 N 0.75443 0.05592 0.05747 0.0
C98 C 0.72393 0.93525 0.1796 0.0
C99 C 0.74723 0.01165 0.09531 0.0
N100 N 0.59078 0.8879 0.15069 0.0
N101 N 0.8845 0.05044 0.12181 0.0
H102 H 0.71497 0.05365 0.02921 0.0
H103 H 0.79638 0.10004 0.05543 0.0
H104 H 0.93163 0.05685 0.14639 0.0
H105 H 0.90435 0.06594 0.08915 0.0
H106 H 0.57259 0.86637 0.18221 0.0
H107 H 0.54448 0.88121 0.12574 0.0
H108 H 0.67318 0.85503 0.22551 0.0
H109 H 0.75671 0.90563 0.24772 0.0
C110 C 0.10272 0.73025 0.59885 0.0
C111 C 0.04855 0.66757 0.60003 0.0
C112 C 0.95824 0.73209 0.65557 0.0
C113 C 0.01755 0.78997 0.65891 0.0
N114 N 0.15625 0.8363 0.64052 0.0
N115 N 0.93615 0.60327 0.64026 0.0
C116 C 0.09282 0.78696 0.63252 0.0
C117 C 0.98001 0.66677 0.63176 0.0
N118 N 0.16036 0.73832 0.56445 0.0
N119 N 0.87924 0.74037 0.67353 0.0
H120 H 0.94948 0.55303 0.62466 0.0
H121 H 0.89202 0.59879 0.66659 0.0
H122 H 0.85902 0.78897 0.68933 0.0
H123 H 0.83093 0.70242 0.66789 0.0
H124 H 0.19474 0.78675 0.5596 0.0
H125 H 0.16821 0.70009 0.5381 0.0
H126 H 0.21555 0.83161 0.62549 0.0
H127 H 0.15256 0.87757 0.66541 0.0
C128 C 0.25147 0.01384 0.91312 0.0
C129 C 0.32163 0.96502 0.90761 0.0
C130 C 0.27431 0.937 0.82883 0.0
C131 C 0.20467 0.98506 0.83517 0.0
N132 N 0.11436 0.05288 0.88667 0.0
N133 N 0.4072 0.88933 0.85775 0.0
C134 C 0.18998 0.01907 0.87812 0.0
C135 C 0.33438 0.92802 0.86497 0.0
N136 N 0.24458 0.0584 0.95091 0.0
N137 N 0.28177 0.89894 0.78846 0.0
H138 H 0.45354 0.88269 0.88267 0.0
H139 H 0.42528 0.86763 0.82621 0.0
H140 H 0.24148 0.90734 0.76068 0.0
H141 H 0.32464 0.85646 0.78291 0.0
H142 H 0.20298 0.10276 0.95286 0.0
H143 H 0.28398 0.05618 0.9792 0.0
H144 H 0.09468 0.0686 0.91934 0.0
H145 H 0.06714 0.05918 0.86214 0.0
C146 C 0.9797 0.35171 0.37719 0.0
C147 C 0.04836 0.35113 0.40882 0.0
C148 C 0.09263 0.23172 0.37641 0.0
C149 C 0.01728 0.22852 0.35011 0.0
N150 N 0.87884 0.27779 0.33567 0.0
N151 N 0.16029 0.2806 0.44437 0.0
C152 C 0.9579 0.28628 0.35349 0.0
C153 C 0.10257 0.28852 0.41002 0.0
N154 N 0.93577 0.41512 0.36865 0.0
N155 N 0.15609 0.18248 0.36838 0.0
H156 H 0.16815 0.31889 0.47069 0.0
H157 H 0.19472 0.23224 0.44922 0.0
H158 H 0.15236 0.14114 0.34354 0.0
H159 H 0.21543 0.1873 0.38334 0.0
H160 H 0.89153 0.41941 0.34237 0.0
H161 H 0.94916 0.46546 0.38412 0.0
H162 H 0.83051 0.31567 0.34135 0.0
H163 H 0.85862 0.22911 0.31994 0.0
C164 C 0.74735 1.00713 0.91357 0.0
C165 C 0.67714 0.05589 0.9081 0.0
C166 C 0.7245 0.08382 0.82935 0.0
C167 C 0.79411 0.03573 0.83562 0.0
N168 N 0.88448 0.96809 0.88705 0.0
N169 N 0.59173 0.13174 0.8584 0.0
C170 C 0.80884 1.00186 0.87855 0.0
C171 C 0.66446 0.09291 0.86552 0.0
N172 N 0.75421 0.96264 0.95132 0.0
N173 N 0.71703 0.12178 0.789 0.0
H174 H 0.54549 0.13855 0.88338 0.0
H175 H 0.57367 0.15349 0.82692 0.0
H176 H 0.75729 0.1133 0.7612 0.0
H177 H 0.67414 0.16423 0.78347 0.0
H178 H 0.7959 0.91835 0.95326 0.0
H179 H 0.7147 0.96486 0.97957 0.0
H180 H 0.90417 0.95244 0.9197 0.0
H181 H 0.93169 0.96177 0.8625 0.0
C182 C 0.89377 0.72929 0.40927 0.0
C183 C 0.94746 0.66634 0.40817 0.0
C184 C 0.03835 0.73001 0.35261 0.0
C185 C 0.97961 0.78827 0.34927 0.0
N186 N 0.84117 0.83537 0.36749 0.0
N187 N 0.05921 0.60111 0.36799 0.0
C188 C 0.90422 0.78578 0.37558 0.0
C189 C 0.01594 0.66495 0.37643 0.0
N190 N 0.83608 0.73783 0.44361 0.0
N191 N 0.11745 0.7377 0.33468 0.0
H192 H 0.04537 0.55108 0.38366 0.0
H193 H 0.10329 0.59619 0.34166 0.0
H194 H 0.13821 0.78611 0.31892 0.0
H195 H 0.16536 0.69942 0.34031 0.0
H196 H 0.8021 0.78647 0.44842 0.0
H197 H 0.82773 0.69971 0.46992 0.0
H198 H 0.7818 0.83106 0.38248 0.0
H199 H 0.8452 0.87642 0.34254 0.0
loop_
_geom_bond_atom_site_label_1
_geom_bond_atom_site_label_2
_geom_bond_distance
_geom_bond_site_symmetry_2
_ccdc_geom_bond_type
C0 O2 1.248 . S
C0 O4 1.257 1_565 S
C1 O8 1.251 . S
C1 O9 1.254 1_545 S
O2 C0 1.248 . S
O2 Zn3 2.028 1_556 S
Zn3 O2 2.028 1_554 S
Zn3 O7 2.035 1_554 S
Zn3 O9 2.035 . S
Zn3 O10 2.028 . S
O4 C0 1.257 1_545 S
O4 Zn5 2.035 1_556 S
Zn5 O4 2.035 1_554 S
Zn5 O6 2.028 1_554 S
Zn5 O8 2.028 . S
Zn5 O11 2.035 . S
O6 Zn5 2.028 1_556 S
O6 C12 1.251 . S
O7 Zn3 2.035 1_556 S
O7 C12 1.254 1_565 S
O8 C1 1.251 . S
O8 Zn5 2.028 . S
O9 C1 1.254 1_565 S
O9 Zn3 2.035 . S
O10 Zn3 2.028 . S
O10 C13 1.248 . S
O11 Zn5 2.035 . S
O11 C13 1.257 1_545 S
C12 O6 1.251 . S
C12 O7 1.254 1_545 S
C13 O10 1.248 . S
C13 O11 1.257 1_565 S
C14 O16 1.248 . S
C14 O18 1.257 1_655 S
C15 O22 1.251 . S
C15 O23 1.254 1_455 S
O16 C14 1.248 . S
O16 Zn17 2.028 . S
Zn17 O16 2.028 . S
Zn17 O21 2.035 . S
Zn17 O23 2.035 . S
Zn17 O24 2.028 . S
O18 C14 1.257 1_455 S
O18 Zn19 2.035 . S
Zn19 O18 2.035 . S
Zn19 O20 2.028 . S
Zn19 O22 2.028 . S
Zn19 O25 2.035 . S
O20 Zn19 2.028 . S
O20 C26 1.251 . S
O21 Zn17 2.035 . S
O21 C26 1.254 1_655 S
O22 C15 1.251 . S
O22 Zn19 2.028 . S
O23 C15 1.254 1_655 S
O23 Zn17 2.035 . S
O24 Zn17 2.028 . S
O24 C27 1.248 . S
O25 Zn19 2.035 . S
O25 C27 1.257 1_455 S
C26 O20 1.251 . S
C26 O21 1.254 1_455 S
C27 O24 1.248 . S
C27 O25 1.257 1_655 S
O28 Cd29 2.223 1_655 S
O28 C36 1.315 . S
Cd29 O28 2.223 1_455 S
Cd29 O32 2.297 1_455 S
Cd29 O33 2.439 1_455 S
Cd29 O39 2.240 1_565 S
Cd30 O31 2.240 1_545 S
Cd30 O38 2.223 1_655 S
Cd30 O40 2.297 1_655 S
Cd30 O41 2.439 1_655 S
O31 Cd30 2.240 1_565 S
O31 C36 1.279 . S
O32 Cd29 2.297 1_655 S
O32 C34 1.247 . S
O33 Cd29 2.439 1_655 S
O33 C34 1.208 . S
C34 O32 1.247 . S
C34 O33 1.208 . S
C35 O40 1.247 . S
C35 O41 1.208 . S
C36 O28 1.315 . S
C36 O31 1.279 . S
C37 O38 1.315 . S
C37 O39 1.279 . S
O38 Cd30 2.223 1_455 S
O38 C37 1.315 . S
O39 Cd29 2.240 1_545 S
O39 C37 1.279 . S
O40 Cd30 2.297 1_455 S
O40 C35 1.247 . S
O41 Cd30 2.439 1_455 S
O41 C35 1.208 . S
O42 Cd43 2.223 1_655 S
O42 C50 1.315 . S
Cd43 O42 2.223 1_455 S
Cd43 O46 2.297 1_455 S
Cd43 O47 2.439 1_455 S
Cd43 O53 2.240 1_545 S
Cd44 O45 2.240 1_565 S
Cd44 O52 2.223 1_655 S
Cd44 O54 2.297 1_655 S
Cd44 O55 2.439 1_655 S
O45 Cd44 2.240 1_545 S
O45 C50 1.279 . S
O46 Cd43 2.297 1_655 S
O46 C48 1.247 . S
O47 Cd43 2.439 1_655 S
O47 C48 1.208 . S
C48 O46 1.247 . S
C48 O47 1.208 . S
C49 O54 1.247 . S
C49 O55 1.208 . S
C50 O42 1.315 . S
C50 O45 1.279 . S
C51 O52 1.315 . S
C51 O53 1.279 . S
O52 Cd44 2.223 1_455 S
O52 C51 1.315 . S
O53 Cd43 2.240 1_565 S
O53 C51 1.279 . S
O54 Cd44 2.297 1_455 S
O54 C49 1.247 . S
O55 Cd44 2.439 1_455 S
O55 C49 1.208 . S
C56 C57 1.363 1_565 S
C56 C62 1.379 . S
C56 N64 1.356 . S
C57 C56 1.363 1_545 S
C57 C63 1.363 . S
C58 C59 1.363 . S
C58 C63 1.379 . S
C58 N65 1.356 . S
C59 C58 1.363 . S
C59 C62 1.363 1_545 S
N60 C62 1.356 . S
N60 H72 0.984 . S
N60 H73 0.985 1_565 S
N61 C63 1.356 . S
N61 H66 0.984 . S
N61 H67 0.985 . S
C62 C56 1.379 . S
C62 C59 1.363 1_565 S
C62 N60 1.356 . S
C63 C57 1.363 . S
C63 C58 1.379 . S
C63 N61 1.356 . S
N64 C56 1.356 . S
N64 H70 0.984 . S
N64 H71 0.984 . S
N65 C58 1.356 . S
N65 H68 0.984 . S
N65 H69 0.985 . S
H66 N61 0.984 . S
H67 N61 0.985 . S
H68 N65 0.984 . S
H69 N65 0.985 . S
H70 N64 0.984 . S
H71 N64 0.984 . S
H72 N60 0.984 . S
H73 N60 0.985 1_545 S
C74 C75 1.363 1_455 S
C74 C80 1.379 . S
C74 N82 1.356 . S
C75 C74 1.363 1_655 S
C75 C81 1.363 . S
C76 C77 1.363 . S
C76 C81 1.379 . S
C76 N83 1.356 . S
C77 C76 1.363 . S
C77 C80 1.363 1_655 S
N78 C80 1.356 . S
N78 H90 0.984 . S
N78 H91 0.985 . S
N79 C81 1.356 . S
N79 H84 0.984 . S
N79 H85 0.985 . S
C80 C74 1.379 . S
C80 C77 1.363 1_455 S
C80 N78 1.356 . S
C81 C75 1.363 . S
C81 C76 1.379 . S
C81 N79 1.356 . S
N82 C74 1.356 . S
N82 H88 0.984 . S
N82 H89 0.984 . S
N83 C76 1.356 . S
N83 H86 0.984 . S
N83 H87 0.985 . S
H84 N79 0.984 . S
H85 N79 0.985 . S
H86 N83 0.984 . S
H87 N83 0.985 . S
H88 N82 0.984 . S
H89 N82 0.984 . S
H90 N78 0.984 . S
H91 N78 0.985 . S
C92 C93 1.363 . S
C92 C98 1.379 . S
C92 N100 1.356 . S
C93 C92 1.363 . S
C93 C99 1.363 1_565 S
C94 C95 1.363 1_545 S
C94 C99 1.379 . S
C94 N101 1.356 . S
C95 C94 1.363 1_565 S
C95 C98 1.363 . S
N96 C98 1.356 . S
N96 H108 0.984 . S
N96 H109 0.985 . S
N97 C99 1.356 . S
N97 H102 0.984 . S
N97 H103 0.985 . S
C98 C92 1.379 . S
C98 C95 1.363 . S
C98 N96 1.356 . S
C99 C93 1.363 1_545 S
C99 C94 1.379 . S
C99 N97 1.356 . S
N100 C92 1.356 . S
N100 H106 0.984 . S
N100 H107 0.984 . S
N101 C94 1.356 . S
N101 H104 0.984 . S
N101 H105 0.985 . S
H102 N97 0.984 . S
H103 N97 0.985 . S
H104 N101 0.984 . S
H105 N101 0.985 . S
H106 N100 0.984 . S
H107 N100 0.984 . S
H108 N96 0.984 . S
H109 N96 0.985 . S
C110 C111 1.363 . S
C110 C116 1.379 . S
C110 N118 1.356 . S
C111 C110 1.363 . S
C111 C117 1.363 1_455 S
C112 C113 1.363 1_655 S
C112 C117 1.379 . S
C112 N119 1.356 . S
C113 C112 1.363 1_455 S
C113 C116 1.363 . S
N114 C116 1.356 . S
N114 H126 0.984 . S
N114 H127 0.985 . S
N115 C117 1.356 . S
N115 H120 0.984 . S
N115 H121 0.985 . S
C116 C110 1.379 . S
C116 C113 1.363 . S
C116 N114 1.356 . S
C117 C111 1.363 1_655 S
C117 C112 1.379 . S
C117 N115 1.356 . S
N118 C110 1.356 . S
N118 H124 0.984 . S
N118 H125 0.984 . S
N119 C112 1.356 . S
N119 H122 0.984 . S
N119 H123 0.985 . S
H120 N115 0.984 . S
H121 N115 0.985 . S
H122 N119 0.984 . S
H123 N119 0.985 . S
H124 N118 0.984 . S
H125 N118 0.984 . S
H126 N114 0.984 . S
H127 N114 0.985 . S
C128 C129 1.363 1_545 S
C128 C134 1.379 . S
C128 N136 1.356 . S
C129 C128 1.363 1_565 S
C129 C135 1.363 . S
C130 C131 1.363 . S
C130 C135 1.379 . S
C130 N137 1.356 . S
C131 C130 1.363 . S
C131 C134 1.363 1_565 S
N132 C134 1.356 . S
N132 H144 0.984 . S
N132 H145 0.985 . S
N133 C135 1.356 . S
N133 H138 0.984 . S
N133 H139 0.985 . S
C134 C128 1.379 . S
C134 C131 1.363 1_545 S
C134 N132 1.356 . S
C135 C129 1.363 . S
C135 C130 1.379 . S
C135 N133 1.356 . S
N136 C128 1.356 . S
N136 H142 0.984 . S
N136 H143 0.984 . S
N137 C130 1.356 . S
N137 H140 0.984 . S
N137 H141 0.985 . S
H138 N133 0.984 . S
H139 N133 0.985 . S
H140 N137 0.984 . S
H141 N137 0.985 . S
H142 N136 0.984 . S
H143 N136 0.984 . S
H144 N132 0.984 . S
H145 N132 0.985 . S
C146 C147 1.363 1_655 S
C146 C152 1.379 . S
C146 N154 1.356 . S
C147 C146 1.363 1_455 S
C147 C153 1.363 . S
C148 C149 1.363 . S
C148 C153 1.379 . S
C148 N155 1.356 . S
C149 C148 1.363 . S
C149 C152 1.363 1_455 S
N150 C152 1.356 . S
N150 H162 0.984 . S
N150 H163 0.985 . S
N151 C153 1.356 . S
N151 H156 0.984 . S
N151 H157 0.985 . S
C152 C146 1.379 . S
C152 C149 1.363 1_655 S
C152 N150 1.356 . S
C153 C147 1.363 . S
C153 C148 1.379 . S
C153 N151 1.356 . S
N154 C146 1.356 . S
N154 H160 0.984 . S
N154 H161 0.984 . S
N155 C148 1.356 . S
N155 H158 0.984 . S
N155 H159 0.985 . S
H156 N151 0.984 . S
H157 N151 0.985 . S
H158 N155 0.984 . S
H159 N155 0.985 . S
H160 N154 0.984 . S
H161 N154 0.984 . S
H162 N150 0.984 . S
H163 N150 0.985 . S
C164 C165 1.363 1_565 S
C164 C170 1.379 . S
C164 N172 1.356 . S
C165 C164 1.363 1_545 S
C165 C171 1.363 . S
C166 C167 1.363 . S
C166 C171 1.379 . S
C166 N173 1.356 . S
C167 C166 1.363 . S
C167 C170 1.363 1_545 S
N168 C170 1.356 . S
N168 H180 0.984 . S
N168 H181 0.985 . S
N169 C171 1.356 . S
N169 H174 0.984 . S
N169 H175 0.985 . S
C170 C164 1.379 . S
C170 C167 1.363 1_565 S
C170 N168 1.356 . S
C171 C165 1.363 . S
C171 C166 1.379 . S
C171 N169 1.356 . S
N172 C164 1.356 . S
N172 H178 0.984 . S
N172 H179 0.984 . S
N173 C166 1.356 . S
N173 H176 0.984 . S
N173 H177 0.985 . S
H174 N169 0.984 . S
H175 N169 0.985 . S
H176 N173 0.984 . S
H177 N173 0.985 . S
H178 N172 0.984 . S
H179 N172 0.984 . S
H180 N168 0.984 . S
H181 N168 0.985 . S
C182 C183 1.363 . S
C182 C188 1.379 . S
C182 N190 1.356 . S
C183 C182 1.363 . S
C183 C189 1.363 1_655 S
C184 C185 1.363 . S
C184 C189 1.379 1_655 S
C184 N191 1.356 1_655 S
C185 C184 1.363 . S
C185 C188 1.363 . S
N186 C188 1.356 . S
N186 H198 0.984 . S
N186 H199 0.985 . S
N187 C189 1.356 . S
N187 H192 0.984 . S
N187 H193 0.985 . S
C188 C182 1.379 . S
C188 C185 1.363 . S
C188 N186 1.356 . S
C189 C183 1.363 1_455 S
C189 C184 1.379 1_455 S
C189 N187 1.356 . S
N190 C182 1.356 . S
N190 H196 0.984 . S
N190 H197 0.984 . S
N191 C184 1.356 1_455 S
N191 H194 0.984 1_455 S
N191 H195 0.985 . S
H192 N187 0.984 . S
H193 N187 0.985 . S
H194 N191 0.984 1_655 S
H195 N191 0.985 . S
H196 N190 0.984 . S
H197 N190 0.984 . S
H198 N186 0.984 . S
H199 N186 0.985 . S
C59 C37 1.574 . S
C57 C13 1.566 1_545 S
C77 C48 1.512 . S
C75 C15 1.585 1_655 S
C95 C36 1.574 . S
C93 C1 1.568 1_565 S
C113 C49 1.512 . S
C111 C27 1.585 1_455 S
C131 C51 1.574 . S
C129 C0 1.569 . S
C149 C35 1.512 . S
C147 C26 1.585 . S
C167 C50 1.574 . S
C165 C12 1.571 . S
C183 C14 1.585 . S
C185 C34 1.512 . S
