# Generated by pormake.
# Topology scu, (8,4)-cn, num edge types: 1
# Building blocks:
#     Node 0, Type 0, BuildingBlock: TAGTUT_clean_sbu_3, # of connection points: 8
#     Node 1, Type 1, BuildingBlock: KOZSID_clean_sbu_0, # of connection points: 4
#     Node 2, Type 1, BuildingBlock: KOZSID_clean_sbu_0, # of connection points: 4
#     Edge 3, Type (0, 1), None
#     Edge 4, Type (0, 1), None
#     Edge 5, Type (0, 1), None
#     Edge 6, Type (0, 1), None
#     Edge 7, Type (0, 1), None
#     Edge 8, Type (0, 1), None
#     Edge 9, Type (0, 1), None
#     Edge 10, Type (0, 1), None
# Relax obj value: 0.022
# Max RMSD: 0.091
# Mean RMSD: 0.073
data_MOF--net-scu--node1-TAGTUT_clean_sbu_3--node2-KOZSID_clean_sbu_0--edge1-none
_symmetry_space_group_name_H-M    P1
_symmetry_Int_Tables_number       1
_symmetry_cell_setting            triclinic
loop_
_symmetry_equiv_pos_as_xyz
'x, y, z'
_cell_length_a     17.202492
_cell_length_b     13.04038
_cell_length_c     11.473764
_cell_angle_alpha  82.269057
_cell_angle_beta   82.466765
_cell_angle_gamma 88.885067
loop_
_atom_site_label
_atom_site_type_symbol
_atom_site_fract_x
_atom_site_fract_y
_atom_site_fract_z
_atom_type_partial_charge
C0 C 0.97921 0.80989 0.18371 0.0
C1 C 0.69879 0.98946 0.12799 0.0
C2 C 0.79254 0.03395 0.76608 0.0
Mg3 Mg 0.15256 0.89192 0.02014 0.0
Mg4 Mg 0.1715 0.14273 0.95963 0.0
O5 O 0.11623 0.02385 0.93959 0.0
Mg6 Mg 0.0019 0.01688 -0.00874 0.0
O7 O 0.88763 0.00634 0.04224 0.0
Mg8 Mg 0.85949 0.87578 0.98534 0.0
Mg9 Mg 0.83394 0.1243 0.98413 0.0
C10 C 0.03113 0.24421 0.831 0.0
O11 O 0.00267 0.1406 0.11153 0.0
O12 O 0.26681 0.93072 0.88716 0.0
O13 O 0.89907 0.23715 0.05969 0.0
O14 O 0.21071 0.96358 0.1557 0.0
O15 O 0.2704 0.10338 0.84081 0.0
O16 O 0.21461 0.13414 0.13316 0.0
O17 O 0.98597 0.88749 0.87495 0.0
O18 O 0.10198 0.81253 0.88798 0.0
C19 C 0.03637 0.81786 0.84817 0.0
C20 C 0.29949 0.01375 0.82911 0.0
O21 O 0.9931 0.15795 0.84543 0.0
O22 O 0.73501 0.90504 0.10306 0.0
O23 O 0.09077 0.25719 0.88461 0.0
O24 O 0.80613 0.94761 0.82491 0.0
O25 O 0.72896 0.07795 0.09018 0.0
O26 O 0.80639 0.11849 0.80386 0.0
O27 O 0.02602 0.88459 0.13811 0.0
O28 O 0.91551 0.79746 0.14122 0.0
C29 C 0.23047 0.04656 0.18976 0.0
C30 C 0.95897 0.22119 0.11609 0.0
C31 C 0.06607 0.69266 0.31044 0.0
C32 C 0.13604 0.7271 0.24538 0.0
C33 C 0.19003 0.65019 0.2593 0.0
C34 C 0.1504 0.573 0.33461 0.0
N35 N 0.07547 0.59788 0.37108 0.0
Co36 Co 0.00043 0.51132 0.48813 0.0
N37 N 0.08694 0.42153 0.54306 0.0
C38 C 0.15837 0.41138 0.48168 0.0
C39 C 0.20359 0.33598 0.5345 0.0
C40 C 0.15777 0.29536 0.63567 0.0
C41 C 0.08706 0.34973 0.63964 0.0
N42 N 0.92634 0.4235 0.60559 0.0
C43 C 0.94096 0.35866 0.70299 0.0
C44 C 0.87178 0.32455 0.77075 0.0
C45 C 0.81181 0.36415 0.71092 0.0
C46 C 0.84763 0.42305 0.6111 0.0
N47 N 0.91468 0.60138 0.43263 0.0
C48 C 0.83712 0.58309 0.4596 0.0
C49 C 0.79212 0.66648 0.42412 0.0
C50 C 0.84443 0.74087 0.36903 0.0
C51 C 0.919 0.69772 0.37101 0.0
N52 N 0.98868 0.42122 0.36929 0.0
C53 C 0.97262 0.29153 0.20031 0.0
C54 C 0.96666 0.39857 0.1716 0.0
C55 C 0.97621 0.46233 0.25705 0.0
C56 C 0.98668 0.25037 0.31443 0.0
C57 C 0.993 0.31635 0.3982 0.0
N58 N 0.01073 0.60269 0.60673 0.0
C59 C 0.9514 0.71256 0.74763 0.0
C60 C 0.02531 0.74637 0.76257 0.0
C61 C 0.09174 0.70616 0.69879 0.0
C62 C 0.0832 0.63488 0.62149 0.0
C63 C 0.94549 0.63959 0.67044 0.0
H64 H 0.13518 0.6065 0.57272 0.0
H65 H 0.88779 0.614 0.66225 0.0
H66 H 0.97295 0.54474 0.23231 0.0
H67 H 0.00083 0.28216 0.48662 0.0
C68 C 0.18469 0.48306 0.38449 0.0
C69 C 0.99023 0.74316 0.29712 0.0
C70 C 0.01924 0.32427 0.73003 0.0
C71 C 0.80954 0.49696 0.53894 0.0
H72 H 0.14723 0.80029 0.19447 0.0
H73 H 0.25129 0.65197 0.22238 0.0
H74 H 0.26318 0.31429 0.5043 0.0
H75 H 0.17443 0.23112 0.69731 0.0
H76 H 0.86532 0.27816 0.85586 0.0
H77 H 0.7496 0.35692 0.74111 0.0
H78 H 0.72909 0.67426 0.44156 0.0
H79 H 0.82916 0.81754 0.32965 0.0
H80 H 0.95541 0.43255 0.08389 0.0
H81 H 0.98995 0.16746 0.34011 0.0
H82 H 0.8989 0.74039 0.79674 0.0
H83 H 0.1504 0.73015 0.70766 0.0
C84 C 0.40464 0.90681 0.71485 0.0
C85 C 0.39155 0.8131 0.78871 0.0
C86 C 0.43426 0.73976 0.73438 0.0
C87 C 0.47241 0.79219 0.63249 0.0
N88 N 0.45688 0.89444 0.61817 0.0
Co89 Co 0.50982 0.99901 0.49013 0.0
N90 N 0.55311 0.88812 0.39378 0.0
C91 C 0.55103 0.78543 0.43031 0.0
C92 C 0.58151 0.72673 0.34486 0.0
C93 C 0.60686 0.79636 0.24845 0.0
C94 C 0.59164 0.8941 0.28168 0.0
N95 N 0.5623 0.10165 0.36163 0.0
C96 C 0.59198 0.08953 0.2486 0.0
C97 C 0.60677 0.18606 0.18147 0.0
C98 C 0.59417 0.25863 0.25762 0.0
C99 C 0.56894 0.2038 0.36582 0.0
N100 N 0.46797 0.10847 0.58701 0.0
C101 C 0.4951 0.20613 0.57318 0.0
C102 C 0.46375 0.26137 0.6614 0.0
C103 C 0.4138 0.19437 0.73602 0.0
C104 C 0.41572 0.10189 0.68732 0.0
N105 N 0.60388 0.99291 0.57162 0.0
C106 C 0.72989 0.03099 0.69142 0.0
C107 C 0.6544 0.01703 0.75149 0.0
C108 C 0.59323 0.99602 0.69128 0.0
C109 C 0.7428 0.02016 0.57056 0.0
C110 C 0.67837 0.00234 0.51158 0.0
N111 N 0.4148 0.01187 0.41022 0.0
C112 C 0.32355 0.12232 0.30715 0.0
C113 C 0.28612 0.03625 0.28009 0.0
C114 C 0.31153 0.93734 0.32667 0.0
C115 C 0.37588 0.92691 0.3908 0.0
C116 C 0.38699 0.10846 0.37259 0.0
H117 H 0.39527 0.85022 0.42211 0.0
H118 H 0.41454 0.17705 0.3895 0.0
H119 H 0.53663 0.98653 0.74253 0.0
H120 H 0.68871 0.99804 0.41772 0.0
C121 C 0.51611 0.74631 0.54299 0.0
C122 C 0.37219 0.00718 0.74289 0.0
C123 C 0.62252 0.9898 0.21056 0.0
C124 C 0.54136 0.24672 0.46864 0.0
H125 H 0.35773 0.79755 0.87518 0.0
H126 H 0.43683 0.65774 0.76534 0.0
H127 H 0.58457 0.64318 0.35164 0.0
H128 H 0.634 0.77652 0.16403 0.0
H129 H 0.62679 0.20299 0.08757 0.0
H130 H 0.60057 0.34167 0.23585 0.0
H131 H 0.47514 0.34118 0.66996 0.0
H132 H 0.38209 0.212 0.81862 0.0
H133 H 0.64282 0.01979 0.8463 0.0
H134 H 0.80148 0.02525 0.52263 0.0
H135 H 0.30628 0.20002 0.27404 0.0
H136 H 0.28433 0.86772 0.30922 0.0
loop_
_geom_bond_atom_site_label_1
_geom_bond_atom_site_label_2
_geom_bond_distance
_geom_bond_site_symmetry_2
_ccdc_geom_bond_type
C0 O27 1.312 1_655 S
C0 O28 1.208 . S
C1 O22 1.331 . S
C1 O25 1.244 1_565 S
C2 O24 1.264 1_545 S
C2 O26 1.273 . S
Mg3 O5 1.936 1_565 S
Mg3 O12 2.081 . S
Mg3 O14 2.023 1_556 S
Mg3 O18 2.031 . S
Mg3 O27 2.291 1_556 S
Mg4 O5 1.963 . S
Mg4 O15 1.942 . S
Mg4 O16 1.955 1_556 S
Mg4 O23 1.986 . S
O5 Mg3 1.936 1_545 S
O5 Mg4 1.963 . S
O5 Mg6 1.915 1_556 S
Mg6 O5 1.915 1_554 S
Mg6 O7 1.915 1_455 S
Mg6 O11 2.013 . S
Mg6 O17 2.114 1_444 S
Mg6 O21 2.012 1_454 S
Mg6 O27 2.114 1_545 S
O7 Mg6 1.915 1_655 S
O7 Mg8 1.936 1_545 S
O7 Mg9 1.963 . S
Mg8 O7 1.936 1_565 S
Mg8 O17 2.291 1_554 S
Mg8 O22 2.081 . S
Mg8 O24 2.023 1_554 S
Mg8 O28 2.031 . S
Mg9 O7 1.963 . S
Mg9 O13 1.986 . S
Mg9 O25 1.942 . S
Mg9 O26 1.955 1_554 S
C10 O21 1.191 1_455 S
C10 O23 1.307 . S
O11 Mg6 2.013 . S
O11 C30 1.191 1_455 S
O12 Mg3 2.081 . S
O12 C20 1.331 1_565 S
O13 Mg9 1.986 . S
O13 C30 1.307 . S
O14 Mg3 2.023 1_554 S
O14 C29 1.264 1_565 S
O15 Mg4 1.942 . S
O15 C20 1.244 . S
O16 Mg4 1.955 1_554 S
O16 C29 1.273 . S
O17 Mg6 2.114 1_666 S
O17 Mg8 2.291 1_556 S
O17 C19 1.312 1_655 S
O18 Mg3 2.031 . S
O18 C19 1.208 . S
C19 O17 1.312 1_455 S
C19 O18 1.208 . S
C20 O12 1.331 1_545 S
C20 O15 1.244 . S
O21 Mg6 2.012 1_656 S
O21 C10 1.191 1_655 S
O22 C1 1.331 . S
O22 Mg8 2.081 . S
O23 Mg4 1.986 . S
O23 C10 1.307 . S
O24 C2 1.264 1_565 S
O24 Mg8 2.023 1_556 S
O25 C1 1.244 1_545 S
O25 Mg9 1.942 . S
O26 C2 1.273 . S
O26 Mg9 1.955 1_556 S
O27 C0 1.312 1_455 S
O27 Mg3 2.291 1_554 S
O27 Mg6 2.114 1_565 S
O28 C0 1.208 . S
O28 Mg8 2.031 . S
C29 O14 1.264 1_545 S
C29 O16 1.273 . S
C30 O11 1.191 1_655 S
C30 O13 1.307 . S
C31 C32 1.443 . S
C31 N35 1.376 . S
C31 C69 1.389 . S
C32 C31 1.443 . S
C32 C33 1.340 . S
C32 H72 0.951 . S
C33 C32 1.340 . S
C33 C34 1.439 . S
C33 H73 0.950 . S
C34 C33 1.439 . S
C34 N35 1.374 . S
C34 C68 1.395 . S
N35 C31 1.376 . S
N35 C34 1.374 . S
N35 Co36 2.008 . S
Co36 N35 2.008 . S
Co36 N37 1.995 . S
Co36 N42 2.008 1_455 S
Co36 N47 1.995 1_455 S
Co36 N52 2.282 . S
Co36 N58 2.282 . S
N37 Co36 1.995 . S
N37 C38 1.376 . S
N37 C41 1.383 . S
C38 N37 1.376 . S
C38 C39 1.446 . S
C38 C68 1.391 . S
C39 C38 1.446 . S
C39 C40 1.339 . S
C39 H74 0.949 . S
C40 C39 1.339 . S
C40 C41 1.439 . S
C40 H75 0.950 . S
C41 N37 1.383 . S
C41 C40 1.439 . S
C41 C70 1.392 . S
N42 Co36 2.008 1_655 S
N42 C43 1.376 . S
N42 C46 1.374 . S
C43 N42 1.376 . S
C43 C44 1.443 . S
C43 C70 1.389 1_655 S
C44 C43 1.443 . S
C44 C45 1.340 . S
C44 H76 0.951 . S
C45 C44 1.340 . S
C45 C46 1.439 . S
C45 H77 0.950 . S
C46 N42 1.374 . S
C46 C45 1.439 . S
C46 C71 1.395 . S
N47 Co36 1.995 1_655 S
N47 C48 1.376 . S
N47 C51 1.383 . S
C48 N47 1.376 . S
C48 C49 1.446 . S
C48 C71 1.391 . S
C49 C48 1.446 . S
C49 C50 1.339 . S
C49 H78 0.949 . S
C50 C49 1.339 . S
C50 C51 1.439 . S
C50 H79 0.950 . S
C51 N47 1.383 . S
C51 C50 1.439 . S
C51 C69 1.392 1_655 S
N52 Co36 2.282 . S
N52 C55 1.332 1_455 S
N52 C57 1.332 . S
C53 C54 1.386 1_455 S
C53 C56 1.388 . S
C54 C53 1.386 1_655 S
C54 C55 1.382 . S
C54 H80 0.950 . S
C55 N52 1.332 1_655 S
C55 C54 1.382 . S
C55 H66 0.952 . S
C56 C53 1.388 . S
C56 C57 1.382 . S
C56 H81 0.950 . S
C57 N52 1.332 . S
C57 C56 1.382 . S
C57 H67 0.948 . S
N58 Co36 2.282 . S
N58 C62 1.340 . S
N58 C63 1.325 1_455 S
C59 C60 1.388 1_655 S
C59 C63 1.382 . S
C59 H82 0.950 . S
C60 C59 1.388 1_455 S
C60 C61 1.386 . S
C61 C60 1.386 . S
C61 C62 1.382 . S
C61 H83 0.950 . S
C62 N58 1.340 . S
C62 C61 1.382 . S
C62 H64 0.952 . S
C63 N58 1.325 1_655 S
C63 C59 1.382 . S
C63 H65 0.948 . S
H64 C62 0.952 . S
H65 C63 0.948 . S
H66 C55 0.952 . S
H67 C57 0.948 . S
C68 C34 1.395 . S
C68 C38 1.391 . S
C69 C31 1.389 . S
C69 C51 1.392 1_455 S
C70 C41 1.392 . S
C70 C43 1.389 1_455 S
C71 C46 1.395 . S
C71 C48 1.391 . S
H72 C32 0.951 . S
H73 C33 0.950 . S
H74 C39 0.949 . S
H75 C40 0.950 . S
H76 C44 0.951 . S
H77 C45 0.950 . S
H78 C49 0.949 . S
H79 C50 0.950 . S
H80 C54 0.950 . S
H81 C56 0.950 . S
H82 C59 0.950 . S
H83 C61 0.950 . S
C84 C85 1.443 . S
C84 N88 1.376 . S
C84 C122 1.389 1_565 S
C85 C84 1.443 . S
C85 C86 1.340 . S
C85 H125 0.951 . S
C86 C85 1.340 . S
C86 C87 1.439 . S
C86 H126 0.950 . S
C87 C86 1.439 . S
C87 N88 1.374 . S
C87 C121 1.395 . S
N88 C84 1.376 . S
N88 C87 1.374 . S
N88 Co89 2.008 1_565 S
Co89 N88 2.008 1_545 S
Co89 N90 1.995 1_545 S
Co89 N95 2.008 . S
Co89 N100 1.995 . S
Co89 N105 2.282 1_545 S
Co89 N111 2.282 . S
N90 Co89 1.995 1_565 S
N90 C91 1.376 . S
N90 C94 1.383 . S
C91 N90 1.376 . S
C91 C92 1.446 . S
C91 C121 1.391 . S
C92 C91 1.446 . S
C92 C93 1.339 . S
C92 H127 0.949 . S
C93 C92 1.339 . S
C93 C94 1.439 . S
C93 H128 0.950 . S
C94 N90 1.383 . S
C94 C93 1.439 . S
C94 C123 1.392 1_565 S
N95 Co89 2.008 . S
N95 C96 1.376 . S
N95 C99 1.374 . S
C96 N95 1.376 . S
C96 C97 1.443 . S
C96 C123 1.389 . S
C97 C96 1.443 . S
C97 C98 1.340 . S
C97 H129 0.951 . S
C98 C97 1.340 . S
C98 C99 1.439 . S
C98 H130 0.950 . S
C99 N95 1.374 . S
C99 C98 1.439 . S
C99 C124 1.395 . S
N100 Co89 1.995 . S
N100 C101 1.376 . S
N100 C104 1.383 . S
C101 N100 1.376 . S
C101 C102 1.446 . S
C101 C124 1.391 . S
C102 C101 1.446 . S
C102 C103 1.339 . S
C102 H131 0.949 . S
C103 C102 1.339 . S
C103 C104 1.439 . S
C103 H132 0.950 . S
C104 N100 1.383 . S
C104 C103 1.439 . S
C104 C122 1.392 . S
N105 Co89 2.282 1_565 S
N105 C108 1.332 1_565 S
N105 C110 1.332 . S
C106 C107 1.386 . S
C106 C109 1.388 1_545 S
C107 C106 1.386 . S
C107 C108 1.382 . S
C107 H133 0.950 . S
C108 N105 1.332 1_545 S
C108 C107 1.382 . S
C108 H119 0.952 . S
C109 C106 1.388 1_565 S
C109 C110 1.382 . S
C109 H134 0.950 . S
C110 N105 1.332 . S
C110 C109 1.382 . S
C110 H120 0.948 . S
N111 Co89 2.282 . S
N111 C115 1.332 1_545 S
N111 C116 1.332 . S
C112 C113 1.388 . S
C112 C116 1.382 . S
C112 H135 0.950 . S
C113 C112 1.388 . S
C113 C114 1.386 1_545 S
C114 C113 1.386 1_565 S
C114 C115 1.382 . S
C114 H136 0.950 . S
C115 N111 1.332 1_565 S
C115 C114 1.382 . S
C115 H117 0.952 . S
C116 N111 1.332 . S
C116 C112 1.382 . S
C116 H118 0.948 . S
H117 C115 0.952 . S
H118 C116 0.948 . S
H119 C108 0.952 . S
H120 C110 0.948 . S
C121 C87 1.395 . S
C121 C91 1.391 . S
C122 C84 1.389 1_545 S
C122 C104 1.392 . S
C123 C94 1.392 1_545 S
C123 C96 1.389 . S
C124 C99 1.395 . S
C124 C101 1.391 . S
H125 C85 0.951 . S
H126 C86 0.950 . S
H127 C92 0.949 . S
H128 C93 0.950 . S
H129 C97 0.951 . S
H130 C98 0.950 . S
H131 C102 0.949 . S
H132 C103 0.950 . S
H133 C107 0.950 . S
H134 C109 0.950 . S
H135 C112 0.950 . S
H136 C114 0.950 . S
C30 C53 1.410 1_655 S
C1 C123 1.630 1_565 S
C0 C69 1.584 1_655 S
C29 C113 1.406 . S
C19 C60 1.427 . S
C20 C122 1.545 . S
C70 C10 1.624 . S
C2 C106 1.476 . S
