# Generated by pormake.
# Topology bcu-b, (8,8)-cn, num edge types: 1
# Building blocks:
#     Node 0, Type 0, BuildingBlock: VETTIZ_charged_sbu_0, # of connection points: 8
#     Node 1, Type 1, BuildingBlock: TAGTUT_clean_sbu_1, # of connection points: 8
#     Edge 2, Type (0, 1), BuildingBlock: CIFDUS_clean_linker_0, # of connection points: 2
#     Edge 3, Type (0, 1), BuildingBlock: CIFDUS_clean_linker_0, # of connection points: 2
#     Edge 4, Type (0, 1), BuildingBlock: CIFDUS_clean_linker_0, # of connection points: 2
#     Edge 5, Type (0, 1), BuildingBlock: CIFDUS_clean_linker_0, # of connection points: 2
#     Edge 6, Type (0, 1), BuildingBlock: CIFDUS_clean_linker_0, # of connection points: 2
#     Edge 7, Type (0, 1), BuildingBlock: CIFDUS_clean_linker_0, # of connection points: 2
#     Edge 8, Type (0, 1), BuildingBlock: CIFDUS_clean_linker_0, # of connection points: 2
#     Edge 9, Type (0, 1), BuildingBlock: CIFDUS_clean_linker_0, # of connection points: 2
# Relax obj value: 0.026
# Max RMSD: 0.117
# Mean RMSD: 0.086
data_MOF--net-bcu-b--node1-VETTIZ_charged_sbu_0--node2-TAGTUT_clean_sbu_1--edge1-CIFDUS_clean_linker_0
_symmetry_space_group_name_H-M    P1
_symmetry_Int_Tables_number       1
_symmetry_cell_setting            triclinic
loop_
_symmetry_equiv_pos_as_xyz
'x, y, z'
_cell_length_a     18.077958
_cell_length_b     16.163014
_cell_length_c     18.694026
_cell_angle_alpha  91.919042
_cell_angle_beta   90.215489
_cell_angle_gamma 101.47083
loop_
_atom_site_label
_atom_site_type_symbol
_atom_site_fract_x
_atom_site_fract_y
_atom_site_fract_z
_atom_type_partial_charge
Fe0 Fe 0.00325 0.8507 -0.00873 0.0
O1 O 0.03148 0.97481 0.98844 0.0
Fe2 Fe 0.98033 1.03456 0.90937 0.0
Fe3 Fe 0.02206 0.0534 0.07171 0.0
O4 O 0.02874 0.97347 0.98166 0.0
O5 O 0.96818 0.11182 -0.0073 0.0
O6 O 0.97115 0.11324 -3e-05 0.0
Fe7 Fe 0.99881 0.23604 0.98725 0.0
C8 C 0.90287 0.90427 0.1106 0.0
O9 O 0.09606 0.86941 0.05822 0.0
O10 O 0.07979 0.97943 0.1348 0.0
O11 O 0.05982 0.23365 0.89402 0.0
O12 O 0.08472 0.10472 0.88709 0.0
O13 O 0.00387 0.94736 0.83126 0.0
O14 O 0.05768 0.85254 0.89401 0.0
O15 O 0.12634 0.12569 0.05088 0.0
O16 O 0.09645 0.25215 0.04638 0.0
C17 C 0.04265 0.88766 0.83541 0.0
O18 O 0.90475 0.2169 0.92281 0.0
O19 O 0.92429 0.10926 0.8454 0.0
O20 O 0.93865 0.85109 0.08255 0.0
O21 O 0.91941 0.98277 0.09888 0.0
C22 C 0.1121 0.91646 0.11604 0.0
C23 C 0.14265 0.20544 0.06134 0.0
C24 C 0.9667 0.20746 0.14465 0.0
O25 O 0.00243 0.1449 0.14959 0.0
O26 O 0.94805 0.23804 0.08525 0.0
C27 C 0.0993 0.18172 0.87107 0.0
O28 O 0.87521 0.96027 0.92461 0.0
O29 O 0.90728 0.83465 0.92969 0.0
C30 C 0.88952 0.16994 0.86492 0.0
C31 C 0.86051 0.88037 0.91376 0.0
C32 C 0.26958 0.67574 0.54834 0.0
C33 C 0.38011 0.69709 0.34865 0.0
C34 C 0.41359 0.3693 0.39275 0.0
Mg35 Mg 0.43763 0.71325 0.50343 0.0
O36 O 0.42181 0.59585 0.50865 0.0
Mg37 Mg 0.33623 0.52484 0.45249 0.0
Mg38 Mg 0.50365 0.53331 0.48815 0.0
O39 O 0.58438 0.46923 0.46764 0.0
Mg40 Mg 0.55988 0.35309 0.48289 0.0
Mg41 Mg 0.66914 0.53828 0.52585 0.0
C42 C 0.59151 0.69863 0.5844 0.0
C43 C 0.6326 0.64702 0.39094 0.0
O44 O 0.25928 0.60399 0.51379 0.0
O45 O 0.33389 0.72626 0.55294 0.0
O46 O 0.34801 0.62103 0.36152 0.0
O47 O 0.42384 0.74362 0.39414 0.0
O48 O 0.54483 0.74345 0.56288 0.0
O49 O 0.58238 0.61865 0.56934 0.0
C50 C 0.37632 0.41483 0.58446 0.0
O51 O 0.44717 0.44403 0.57664 0.0
O52 O 0.32664 0.43501 0.54334 0.0
O53 O 0.74362 0.44803 0.47176 0.0
O54 O 0.66294 0.32534 0.4439 0.0
O55 O 0.65082 0.44739 0.61987 0.0
C56 C 0.72943 0.37125 0.44592 0.0
O57 O 0.56415 0.33075 0.59465 0.0
O58 O 0.45651 0.32274 0.41854 0.0
C59 C 0.61181 0.37611 0.63749 0.0
O60 O 0.4248 0.44959 0.40613 0.0
O61 O 0.56138 0.62162 0.40029 0.0
O62 O 0.68223 0.62485 0.4312 0.0
H63 H 0.19562 0.13366 0.17426 0.0
H64 H 0.22615 0.36489 0.05975 0.0
H65 H 0.30827 0.43888 0.15574 0.0
H66 H 0.36709 0.43899 0.2748 0.0
H67 H 0.33535 0.20748 0.38931 0.0
H68 H 0.2563 0.13299 0.29189 0.0
C69 C 0.22202 0.19958 0.16945 0.0
C70 C 0.20588 0.24348 0.10963 0.0
C71 C 0.26691 0.2423 0.22593 0.0
C72 C 0.23869 0.3296 0.10499 0.0
C73 C 0.28478 0.37215 0.16023 0.0
C74 C 0.34167 0.37262 0.27884 0.0
C75 C 0.35617 0.32898 0.33942 0.0
C76 C 0.29791 0.32958 0.22169 0.0
C77 C 0.32438 0.24252 0.34335 0.0
C78 C 0.2798 0.19968 0.28739 0.0
H79 H 0.89996 0.13805 0.26508 0.0
H80 H 0.98915 0.37577 0.1696 0.0
H81 H 0.93484 0.45142 0.26454 0.0
H82 H 0.84397 0.44764 0.3624 0.0
H83 H 0.74634 0.20889 0.45217 0.0
H84 H 0.82247 0.13651 0.37357 0.0
C85 C 0.90909 0.20648 0.26648 0.0
C86 C 0.94758 0.25133 0.21036 0.0
C87 C 0.8753 0.24948 0.31998 0.0
C88 C 0.95876 0.34001 0.2121 0.0
C89 C 0.92766 0.38332 0.26625 0.0
C90 C 0.84137 0.38029 0.36623 0.0
C91 C 0.78939 0.33357 0.41239 0.0
C92 C 0.8831 0.3385 0.31878 0.0
C93 C 0.78572 0.24604 0.41641 0.0
C94 C 0.82894 0.2045 0.37128 0.0
H95 H 0.78648 0.76853 0.10331 0.0
H96 H 0.89462 0.97577 0.24237 0.0
H97 H 0.81411 0.91905 0.34134 0.0
H98 H 0.72296 0.80146 0.39146 0.0
H99 H 0.60769 0.59968 0.2512 0.0
H100 H 0.67962 0.66356 0.14909 0.0
C101 C 0.79136 0.80162 0.15509 0.0
C102 C 0.84675 0.87544 0.16614 0.0
C103 C 0.74365 0.76958 0.21132 0.0
C104 C 0.85224 0.91878 0.23291 0.0
C105 C 0.80647 0.88621 0.28951 0.0
C106 C 0.71221 0.77311 0.33803 0.0
C107 C 0.66036 0.69638 0.32835 0.0
C108 C 0.75329 0.81058 0.27979 0.0
C109 C 0.64682 0.65944 0.25935 0.0
C110 C 0.68852 0.69544 0.20126 0.0
H111 H 0.18348 0.78424 0.09787 0.0
H112 H 0.17386 0.99721 0.24111 0.0
H113 H 0.268 0.9555 0.31932 0.0
H114 H 0.34349 0.85091 0.35227 0.0
H115 H 0.34168 0.63117 0.21436 0.0
H116 H 0.26255 0.68448 0.12747 0.0
C117 C 0.20194 0.82234 0.14589 0.0
C118 C 0.17098 0.894 0.16346 0.0
C119 C 0.2546 0.79692 0.19119 0.0
C120 C 0.19632 0.94189 0.22612 0.0
C121 C 0.25026 0.91802 0.27085 0.0
C122 C 0.32774 0.8161 0.30208 0.0
C123 C 0.34939 0.73786 0.28896 0.0
C124 C 0.27884 0.84488 0.25444 0.0
C125 C 0.32658 0.692 0.22495 0.0
C126 C 0.28072 0.72207 0.1758 0.0
H127 H 0.04406 0.72698 0.79103 0.0
H128 H 0.11389 0.98606 0.73189 0.0
H129 H 0.18449 0.94201 0.63094 0.0
H130 H 0.23822 0.83117 0.56909 0.0
H131 H 0.16458 0.57123 0.62479 0.0
H132 H 0.08204 0.61364 0.7167 0.0
C133 C 0.07392 0.77338 0.75523 0.0
C134 C 0.07495 0.85959 0.76897 0.0
C135 C 0.11355 0.74738 0.697 0.0
C136 C 0.11255 0.9194 0.722 0.0
C137 C 0.15313 0.89425 0.66462 0.0
C138 C 0.20278 0.78378 0.60041 0.0
C139 C 0.20783 0.69847 0.59104 0.0
C140 C 0.15571 0.80866 0.65292 0.0
C141 C 0.16127 0.63727 0.63108 0.0
C142 C 0.11471 0.66159 0.68403 0.0
H143 H 0.23682 0.28816 0.87732 0.0
H144 H 0.07785 0.13059 0.73332 0.0
H145 H 0.15636 0.18022 0.63108 0.0
H146 H 0.26232 0.27996 0.58205 0.0
H147 H 0.42451 0.43603 0.72401 0.0
H148 H 0.35427 0.37416 0.82797 0.0
C149 C 0.22035 0.26423 0.8235 0.0
C150 C 0.15181 0.20646 0.81216 0.0
C151 C 0.26636 0.29258 0.76496 0.0
C152 C 0.13064 0.17501 0.74273 0.0
C153 C 0.17535 0.20347 0.68444 0.0
C154 C 0.28327 0.29877 0.63585 0.0
C155 C 0.34798 0.36265 0.64564 0.0
C156 C 0.24231 0.26365 0.69479 0.0
C157 C 0.37503 0.38644 0.71534 0.0
C158 C 0.33432 0.35184 0.77467 0.0
H159 H 0.81281 0.29698 0.88545 0.0
H160 H 0.82772 0.0867 0.74083 0.0
H161 H 0.72912 0.12324 0.66504 0.0
H162 H 0.6491 0.22378 0.63388 0.0
H163 H 0.64637 0.44195 0.77222 0.0
H164 H 0.72848 0.39173 0.85829 0.0
C165 C 0.79458 0.25835 0.83765 0.0
C166 C 0.82845 0.18925 0.81878 0.0
C167 C 0.73928 0.28073 0.79384 0.0
C168 C 0.80324 0.14038 0.75659 0.0
C169 C 0.74667 0.16116 0.71333 0.0
C170 C 0.66428 0.25853 0.68423 0.0
C171 C 0.64066 0.33547 0.69782 0.0
C172 C 0.71531 0.23207 0.73086 0.0
C173 C 0.66281 0.38181 0.76167 0.0
C174 C 0.71051 0.35367 0.81015 0.0
H175 H 0.8116 0.94491 0.79467 0.0
H176 H 0.77473 0.72287 0.92134 0.0
H177 H 0.69396 0.64332 0.82687 0.0
H178 H 0.63702 0.63562 0.70611 0.0
H179 H 0.67355 0.85816 0.57986 0.0
H180 H 0.75289 0.93811 0.675 0.0
C181 C 0.78396 0.87992 0.80235 0.0
C182 C 0.79782 0.84028 0.8654 0.0
C183 C 0.73968 0.83383 0.74677 0.0
C184 C 0.76378 0.75506 0.87369 0.0
C185 C 0.71849 0.70926 0.81931 0.0
C186 C 0.66381 0.70106 0.69897 0.0
C187 C 0.65066 0.7406 0.63566 0.0
C188 C 0.7073 0.74745 0.75496 0.0
C189 C 0.68383 0.82615 0.62783 0.0
C190 C 0.72844 0.87214 0.68251 0.0
loop_
_geom_bond_atom_site_label_1
_geom_bond_atom_site_label_2
_geom_bond_distance
_geom_bond_site_symmetry_2
_ccdc_geom_bond_type
Fe0 O1 1.896 . S
Fe0 O4 1.704 1_554 S
Fe0 O9 2.086 1_655 S
Fe0 O14 1.927 1_654 S
Fe0 O20 2.087 . S
Fe0 O29 1.927 1_554 S
O1 Fe0 1.896 . S
O1 Fe3 1.715 1_665 S
Fe2 O4 1.886 . S
Fe2 O5 1.715 1_665 S
Fe2 O12 1.935 1_665 S
Fe2 O13 2.077 1_655 S
Fe2 O19 1.935 1_565 S
Fe2 O28 2.077 . S
Fe3 O1 1.715 1_445 S
Fe3 O6 1.886 . S
Fe3 O10 1.935 1_545 S
Fe3 O15 2.077 . S
Fe3 O21 1.935 1_445 S
Fe3 O25 2.077 1_455 S
O4 Fe0 1.704 1_556 S
O4 Fe2 1.886 . S
O5 Fe2 1.715 1_445 S
O5 Fe7 1.893 . S
O6 Fe3 1.886 . S
O6 Fe7 1.707 1_554 S
Fe7 O5 1.893 . S
Fe7 O6 1.707 1_556 S
Fe7 O11 2.084 . S
Fe7 O16 1.929 1_556 S
Fe7 O18 2.084 1_455 S
Fe7 O26 1.929 1_456 S
C8 O20 1.381 . S
C8 O21 1.421 . S
O9 Fe0 2.086 1_455 S
O9 C22 1.381 . S
O10 Fe3 1.935 1_565 S
O10 C22 1.421 . S
O11 Fe7 2.084 . S
O11 C27 1.381 . S
O12 Fe2 1.935 1_445 S
O12 C27 1.421 . S
O13 Fe2 2.077 1_455 S
O13 C17 1.381 . S
O14 Fe0 1.927 1_456 S
O14 C17 1.421 . S
O15 Fe3 2.077 . S
O15 C23 1.381 . S
O16 Fe7 1.929 1_554 S
O16 C23 1.421 . S
C17 O13 1.381 . S
C17 O14 1.421 . S
O18 Fe7 2.084 1_655 S
O18 C30 1.381 . S
O19 Fe2 1.935 1_545 S
O19 C30 1.421 . S
O20 Fe0 2.087 . S
O20 C8 1.381 . S
O21 Fe3 1.935 1_665 S
O21 C8 1.421 . S
C22 O9 1.381 . S
C22 O10 1.421 . S
C23 O15 1.381 . S
C23 O16 1.421 . S
C24 O25 1.381 . S
C24 O26 1.421 . S
O25 Fe3 2.077 1_655 S
O25 C24 1.381 . S
O26 Fe7 1.929 1_654 S
O26 C24 1.421 . S
C27 O11 1.381 . S
C27 O12 1.421 . S
O28 Fe2 2.077 . S
O28 C31 1.381 . S
O29 Fe0 1.927 1_556 S
O29 C31 1.421 . S
C30 O18 1.381 . S
C30 O19 1.421 . S
C31 O28 1.381 . S
C31 O29 1.421 . S
C32 O44 1.241 . S
C32 O45 1.280 . S
C33 O46 1.277 . S
C33 O47 1.245 . S
C34 O58 1.247 . S
C34 O60 1.289 . S
Mg35 O36 1.926 . S
Mg35 O45 1.984 . S
Mg35 O47 1.988 . S
Mg35 O48 2.061 . S
O36 Mg35 1.926 . S
O36 Mg37 1.986 . S
O36 Mg38 1.917 . S
Mg37 O36 1.986 . S
Mg37 O44 2.042 . S
Mg37 O46 2.041 . S
Mg37 O52 2.038 . S
Mg37 O60 2.238 . S
Mg38 O36 1.917 . S
Mg38 O39 1.917 . S
Mg38 O49 2.106 . S
Mg38 O51 2.079 . S
Mg38 O60 2.106 . S
Mg38 O61 2.079 . S
O39 Mg38 1.917 . S
O39 Mg40 1.926 . S
O39 Mg41 1.986 . S
Mg40 O39 1.926 . S
Mg40 O54 1.984 . S
Mg40 O57 1.988 . S
Mg40 O58 2.061 . S
Mg41 O39 1.986 . S
Mg41 O49 2.238 . S
Mg41 O53 2.042 . S
Mg41 O55 2.041 . S
Mg41 O62 2.038 . S
C42 O48 1.247 . S
C42 O49 1.289 . S
C43 O61 1.245 . S
C43 O62 1.274 . S
O44 C32 1.241 . S
O44 Mg37 2.042 . S
O45 C32 1.280 . S
O45 Mg35 1.984 . S
O46 C33 1.277 . S
O46 Mg37 2.041 . S
O47 C33 1.245 . S
O47 Mg35 1.988 . S
O48 Mg35 2.061 . S
O48 C42 1.247 . S
O49 Mg38 2.106 . S
O49 Mg41 2.238 . S
O49 C42 1.289 . S
C50 O51 1.245 . S
C50 O52 1.274 . S
O51 Mg38 2.079 . S
O51 C50 1.245 . S
O52 Mg37 2.038 . S
O52 C50 1.274 . S
O53 Mg41 2.042 . S
O53 C56 1.241 . S
O54 Mg40 1.984 . S
O54 C56 1.280 . S
O55 Mg41 2.041 . S
O55 C59 1.277 . S
C56 O53 1.241 . S
C56 O54 1.280 . S
O57 Mg40 1.988 . S
O57 C59 1.245 . S
O58 C34 1.247 . S
O58 Mg40 2.061 . S
C59 O55 1.277 . S
C59 O57 1.245 . S
O60 C34 1.289 . S
O60 Mg37 2.238 . S
O60 Mg38 2.106 . S
O61 Mg38 2.079 . S
O61 C43 1.245 . S
O62 Mg41 2.038 . S
O62 C43 1.274 . S
H63 C69 0.930 . S
H64 C72 0.930 . S
H65 C73 0.930 . S
H66 C74 0.930 . S
H67 C77 0.930 . S
H68 C78 0.930 . S
C69 H63 0.930 . S
C69 C70 1.355 . S
C69 C71 1.415 . S
C70 C69 1.355 . S
C70 C72 1.419 . S
C71 C69 1.415 . S
C71 C76 1.425 . S
C71 C78 1.409 . S
C72 H64 0.930 . S
C72 C70 1.419 . S
C72 C73 1.362 . S
C73 H65 0.930 . S
C73 C72 1.362 . S
C73 C76 1.409 . S
C74 H66 0.930 . S
C74 C75 1.355 . S
C74 C76 1.415 . S
C75 C74 1.355 . S
C75 C77 1.419 . S
C76 C71 1.425 . S
C76 C73 1.409 . S
C76 C74 1.415 . S
C77 H67 0.930 . S
C77 C75 1.419 . S
C77 C78 1.362 . S
C78 H68 0.930 . S
C78 C71 1.409 . S
C78 C77 1.362 . S
H79 C85 0.930 . S
H80 C88 0.930 . S
H81 C89 0.930 . S
H82 C90 0.930 . S
H83 C93 0.930 . S
H84 C94 0.930 . S
C85 H79 0.930 . S
C85 C86 1.355 . S
C85 C87 1.415 . S
C86 C85 1.355 . S
C86 C88 1.419 . S
C87 C85 1.415 . S
C87 C92 1.425 . S
C87 C94 1.409 . S
C88 H80 0.930 . S
C88 C86 1.419 . S
C88 C89 1.362 . S
C89 H81 0.930 . S
C89 C88 1.362 . S
C89 C92 1.409 . S
C90 H82 0.930 . S
C90 C91 1.355 . S
C90 C92 1.415 . S
C91 C90 1.355 . S
C91 C93 1.419 . S
C92 C87 1.425 . S
C92 C89 1.409 . S
C92 C90 1.415 . S
C93 H83 0.930 . S
C93 C91 1.419 . S
C93 C94 1.362 . S
C94 H84 0.930 . S
C94 C87 1.409 . S
C94 C93 1.362 . S
H95 C101 0.930 . S
H96 C104 0.930 . S
H97 C105 0.930 . S
H98 C106 0.930 . S
H99 C109 0.930 . S
H100 C110 0.930 . S
C101 H95 0.930 . S
C101 C102 1.355 . S
C101 C103 1.415 . S
C102 C101 1.355 . S
C102 C104 1.419 . S
C103 C101 1.415 . S
C103 C108 1.425 . S
C103 C110 1.409 . S
C104 H96 0.930 . S
C104 C102 1.419 . S
C104 C105 1.362 . S
C105 H97 0.930 . S
C105 C104 1.362 . S
C105 C108 1.409 . S
C106 H98 0.930 . S
C106 C107 1.355 . S
C106 C108 1.415 . S
C107 C106 1.355 . S
C107 C109 1.419 . S
C108 C103 1.425 . S
C108 C105 1.409 . S
C108 C106 1.415 . S
C109 H99 0.930 . S
C109 C107 1.419 . S
C109 C110 1.362 . S
C110 H100 0.930 . S
C110 C103 1.409 . S
C110 C109 1.362 . S
H111 C117 0.930 . S
H112 C120 0.930 . S
H113 C121 0.930 . S
H114 C122 0.930 . S
H115 C125 0.930 . S
H116 C126 0.930 . S
C117 H111 0.930 . S
C117 C118 1.355 . S
C117 C119 1.415 . S
C118 C117 1.355 . S
C118 C120 1.419 . S
C119 C117 1.415 . S
C119 C124 1.425 . S
C119 C126 1.409 . S
C120 H112 0.930 . S
C120 C118 1.419 . S
C120 C121 1.362 . S
C121 H113 0.930 . S
C121 C120 1.362 . S
C121 C124 1.409 . S
C122 H114 0.930 . S
C122 C123 1.355 . S
C122 C124 1.415 . S
C123 C122 1.355 . S
C123 C125 1.419 . S
C124 C119 1.425 . S
C124 C121 1.409 . S
C124 C122 1.415 . S
C125 H115 0.930 . S
C125 C123 1.419 . S
C125 C126 1.362 . S
C126 H116 0.930 . S
C126 C119 1.409 . S
C126 C125 1.362 . S
H127 C133 0.930 . S
H128 C136 0.930 . S
H129 C137 0.930 . S
H130 C138 0.930 . S
H131 C141 0.930 . S
H132 C142 0.930 . S
C133 H127 0.930 . S
C133 C134 1.355 . S
C133 C135 1.415 . S
C134 C133 1.355 . S
C134 C136 1.419 . S
C135 C133 1.415 . S
C135 C140 1.425 . S
C135 C142 1.409 . S
C136 H128 0.930 . S
C136 C134 1.419 . S
C136 C137 1.362 . S
C137 H129 0.930 . S
C137 C136 1.362 . S
C137 C140 1.409 . S
C138 H130 0.930 . S
C138 C139 1.355 . S
C138 C140 1.415 . S
C139 C138 1.355 . S
C139 C141 1.419 . S
C140 C135 1.425 . S
C140 C137 1.409 . S
C140 C138 1.415 . S
C141 H131 0.930 . S
C141 C139 1.419 . S
C141 C142 1.362 . S
C142 H132 0.930 . S
C142 C135 1.409 . S
C142 C141 1.362 . S
H143 C149 0.930 . S
H144 C152 0.930 . S
H145 C153 0.930 . S
H146 C154 0.930 . S
H147 C157 0.930 . S
H148 C158 0.930 . S
C149 H143 0.930 . S
C149 C150 1.355 . S
C149 C151 1.415 . S
C150 C149 1.355 . S
C150 C152 1.419 . S
C151 C149 1.415 . S
C151 C156 1.425 . S
C151 C158 1.409 . S
C152 H144 0.930 . S
C152 C150 1.419 . S
C152 C153 1.362 . S
C153 H145 0.930 . S
C153 C152 1.362 . S
C153 C156 1.409 . S
C154 H146 0.930 . S
C154 C155 1.355 . S
C154 C156 1.415 . S
C155 C154 1.355 . S
C155 C157 1.419 . S
C156 C151 1.425 . S
C156 C153 1.409 . S
C156 C154 1.415 . S
C157 H147 0.930 . S
C157 C155 1.419 . S
C157 C158 1.362 . S
C158 H148 0.930 . S
C158 C151 1.409 . S
C158 C157 1.362 . S
H159 C165 0.930 . S
H160 C168 0.930 . S
H161 C169 0.930 . S
H162 C170 0.930 . S
H163 C173 0.930 . S
H164 C174 0.930 . S
C165 H159 0.930 . S
C165 C166 1.355 . S
C165 C167 1.415 . S
C166 C165 1.355 . S
C166 C168 1.419 . S
C167 C165 1.415 . S
C167 C172 1.425 . S
C167 C174 1.409 . S
C168 H160 0.930 . S
C168 C166 1.419 . S
C168 C169 1.362 . S
C169 H161 0.930 . S
C169 C168 1.362 . S
C169 C172 1.409 . S
C170 H162 0.930 . S
C170 C171 1.355 . S
C170 C172 1.415 . S
C171 C170 1.355 . S
C171 C173 1.419 . S
C172 C167 1.425 . S
C172 C169 1.409 . S
C172 C170 1.415 . S
C173 H163 0.930 . S
C173 C171 1.419 . S
C173 C174 1.362 . S
C174 H164 0.930 . S
C174 C167 1.409 . S
C174 C173 1.362 . S
H175 C181 0.930 . S
H176 C184 0.930 . S
H177 C185 0.930 . S
H178 C186 0.930 . S
H179 C189 0.930 . S
H180 C190 0.930 . S
C181 H175 0.930 . S
C181 C182 1.355 . S
C181 C183 1.415 . S
C182 C181 1.355 . S
C182 C184 1.419 . S
C183 C181 1.415 . S
C183 C188 1.425 . S
C183 C190 1.409 . S
C184 H176 0.930 . S
C184 C182 1.419 . S
C184 C185 1.362 . S
C185 H177 0.930 . S
C185 C184 1.362 . S
C185 C188 1.409 . S
C186 H178 0.930 . S
C186 C187 1.355 . S
C186 C188 1.415 . S
C187 C186 1.355 . S
C187 C189 1.419 . S
C188 C183 1.425 . S
C188 C185 1.409 . S
C188 C186 1.415 . S
C189 H179 0.930 . S
C189 C187 1.419 . S
C189 C190 1.362 . S
C190 H180 0.930 . S
C190 C183 1.409 . S
C190 C189 1.362 . S
C70 C23 1.179 . S
C75 C34 1.220 . S
C86 C24 1.494 . S
C91 C56 1.465 . S
C102 C8 1.482 . S
C107 C43 1.533 . S
C118 C22 1.598 . S
C123 C33 1.550 . S
C134 C17 1.513 . S
C139 C32 1.526 . S
C155 C50 1.467 . S
C150 C27 1.540 . S
C166 C30 1.544 . S
C171 C59 1.600 . S
C187 C42 1.200 . S
C182 C31 1.176 . S
