# Generated by pormake.
# Topology ssa, (4,4)-cn, num edge types: 1
# Building blocks:
#     Node 0, Type 0, BuildingBlock: NAWXER_clean_sbu_0, # of connection points: 4
#     Node 1, Type 0, BuildingBlock: NAWXER_clean_sbu_0, # of connection points: 4
#     Node 2, Type 0, BuildingBlock: NAWXER_clean_sbu_0, # of connection points: 4
#     Node 3, Type 0, BuildingBlock: NAWXER_clean_sbu_0, # of connection points: 4
#     Node 4, Type 0, BuildingBlock: NAWXER_clean_sbu_0, # of connection points: 4
#     Node 5, Type 0, BuildingBlock: NAWXER_clean_sbu_0, # of connection points: 4
#     Node 6, Type 1, BuildingBlock: ESEHIV_clean_sbu_0, # of connection points: 4
#     Node 7, Type 1, BuildingBlock: ESEHIV_clean_sbu_0, # of connection points: 4
#     Node 8, Type 1, BuildingBlock: ESEHIV_clean_sbu_0, # of connection points: 4
#     Node 9, Type 1, BuildingBlock: ESEHIV_clean_sbu_0, # of connection points: 4
#     Node 10, Type 1, BuildingBlock: ESEHIV_clean_sbu_0, # of connection points: 4
#     Node 11, Type 1, BuildingBlock: ESEHIV_clean_sbu_0, # of connection points: 4
#     Edge 12, Type (0, 1), None
#     Edge 13, Type (0, 1), None
#     Edge 14, Type (0, 1), None
#     Edge 15, Type (0, 1), None
#     Edge 16, Type (0, 1), None
#     Edge 17, Type (0, 1), None
#     Edge 18, Type (0, 1), None
#     Edge 19, Type (0, 1), None
#     Edge 20, Type (0, 1), None
#     Edge 21, Type (0, 1), None
#     Edge 22, Type (0, 1), None
#     Edge 23, Type (0, 1), None
#     Edge 24, Type (0, 1), None
#     Edge 25, Type (0, 1), None
#     Edge 26, Type (0, 1), None
#     Edge 27, Type (0, 1), None
#     Edge 28, Type (0, 1), None
#     Edge 29, Type (0, 1), None
#     Edge 30, Type (0, 1), None
#     Edge 31, Type (0, 1), None
#     Edge 32, Type (0, 1), None
#     Edge 33, Type (0, 1), None
#     Edge 34, Type (0, 1), None
#     Edge 35, Type (0, 1), None
# Relax obj value: 0.094
# Max RMSD: 0.097
# Mean RMSD: 0.064
data_MOF--net-ssa--node1-NAWXER_clean_sbu_0--node2-ESEHIV_clean_sbu_0--edge1-none
_symmetry_space_group_name_H-M    P1
_symmetry_Int_Tables_number       1
_symmetry_cell_setting            triclinic
loop_
_symmetry_equiv_pos_as_xyz
'x, y, z'
_cell_length_a     20.743538
_cell_length_b     20.743864
_cell_length_c     15.29871
_cell_angle_alpha  90.00061
_cell_angle_beta   90.000059
_cell_angle_gamma 119.99794
loop_
_atom_site_label
_atom_site_type_symbol
_atom_site_fract_x
_atom_site_fract_y
_atom_site_fract_z
_atom_type_partial_charge
C0 C 1.07759 0.63369 0.13294 0.0
C1 C 0.97167 0.37115 0.07931 0.0
O2 O 1.03187 0.58224 0.18329 0.0
Zn3 Zn 1.03045 0.49985 0.12248 0.0
O4 O 0.11086 0.61875 0.07291 0.0
Zn5 Zn 0.1126 0.52638 1.02191 0.0
O6 O 0.08587 0.53659 0.90046 0.0
O7 O 0.99418 0.51023 0.99215 0.0
O8 O 1.03033 0.41304 1.03487 0.0
O9 O 0.95342 0.39797 0.14356 0.0
O10 O 0.12455 0.49411 0.16903 0.0
O11 O 0.20759 0.531 0.06434 0.0
C12 C 1.02027 0.52576 0.91434 0.0
C13 C 0.18884 0.50826 0.14262 0.0
C14 C 0.55602 0.20582 0.62111 0.0
C15 C 0.58425 1.02057 0.43211 0.0
O16 O 0.52962 0.14196 0.65749 0.0
Zn17 Zn 0.51645 1.03537 0.62168 0.0
O18 O 0.58418 0.21427 0.54517 0.0
Zn19 Zn 0.56968 0.1133 0.51907 0.0
O20 O 0.45563 1.04125 0.502 0.0
O21 O 0.40851 0.97386 0.62148 0.0
O22 O 0.60324 0.08768 0.41223 0.0
O23 O 0.55053 0.9941 0.50522 0.0
O24 O 0.5769 1.01961 0.70797 0.0
O25 O 0.64193 0.09655 0.60117 0.0
C26 C 0.39997 0.99137 0.54444 0.0
C27 C 0.63837 0.05727 0.66739 0.0
C28 C 0.63249 0.5324 0.91433 0.0
C29 C 0.64997 0.71846 0.1426 0.0
O30 O 0.62166 0.58717 0.90043 0.0
Zn31 Zn 0.63186 0.62412 1.02188 0.0
O32 O 0.64801 0.52184 0.99213 0.0
Zn33 Zn 0.65838 0.56849 0.12246 0.0
O34 O 0.57598 0.48752 0.18326 0.0
O35 O 0.53948 0.53001 0.07287 0.0
O36 O 0.66411 0.66832 0.16901 0.0
O37 O 0.62723 0.71448 0.06431 0.0
O38 O 0.7452 0.65518 1.03487 0.0
O39 O 0.76026 0.59333 0.14355 0.0
C40 C 0.52453 0.48179 0.1329 0.0
C41 C 0.78709 0.63842 0.07931 0.0
C42 C 0.13768 0.60156 0.4321 0.0
C43 C 0.95241 0.3881 0.62111 0.0
O44 O 0.16414 0.59431 0.50521 0.0
Zn45 Zn 0.12287 0.51897 0.62168 0.0
O46 O 1.07057 0.55343 0.41221 0.0
Zn47 Zn 1.04494 0.49426 0.51906 0.0
O48 O 1.06169 0.58327 0.60115 0.0
O49 O 0.13863 0.59517 0.70796 0.0
O50 O 0.94396 0.4078 0.54517 0.0
O51 O 1.01628 0.42556 0.65749 0.0
O52 O 0.18438 0.47253 0.62149 0.0
O53 O 0.11698 0.45225 0.50201 0.0
C54 C 0.10097 0.61899 0.66738 0.0
C55 C 0.16687 0.44648 0.54445 0.0
C56 C 0.67644 0.08061 0.13288 0.0
C57 C 0.51981 0.18655 0.0793 0.0
O58 O 0.67071 0.12633 0.18324 0.0
Zn59 Zn 0.58974 0.12776 0.12245 0.0
O60 O 0.62822 1.04734 0.07285 0.0
Zn61 Zn 0.53411 1.04562 1.02186 0.0
O62 O 0.57106 0.07236 0.90042 0.0
O63 O 0.63639 0.16404 0.99212 0.0
O64 O 0.50304 0.12789 1.03485 0.0
O65 O 0.56489 0.2048 0.14354 0.0
O66 O 0.4899 1.03366 0.169 0.0
O67 O 0.44374 0.95063 0.06429 0.0
C68 C 0.62582 0.13796 0.91431 0.0
C69 C 0.43976 0.96938 0.14258 0.0
C70 C 0.77014 0.60222 0.62113 0.0
C71 C 0.55667 0.57399 0.43213 0.0
O72 O 0.73268 0.62862 0.65751 0.0
Zn73 Zn 0.63926 0.6418 0.6217 0.0
O74 O 0.75044 0.57406 0.5452 0.0
Zn75 Zn 0.66397 0.58856 0.51909 0.0
O76 O 0.70597 0.70262 0.50202 0.0
O77 O 0.68569 0.74974 0.62149 0.0
O78 O 0.60479 0.555 0.41225 0.0
O79 O 0.56391 0.60771 0.50523 0.0
O80 O 0.56305 0.58136 0.70799 0.0
O81 O 0.57496 0.51632 0.60119 0.0
C82 C 0.71175 0.75827 0.54445 0.0
C83 C 0.53925 0.51989 0.66741 0.0
Cu84 Cu 0.34555 0.47556 0.2969 0.0
N85 N 0.35503 0.40615 0.22878 0.0
N86 N 0.45257 0.42973 0.14704 0.0
C87 C 0.42325 0.41357 0.22738 0.0
C88 C 0.39597 0.4172 0.09342 0.0
C89 C 0.33516 0.4007 0.14407 0.0
O90 O 0.44824 0.54931 0.34234 0.0
C91 C 0.22989 0.48059 0.19717 0.0
O92 O 0.19142 0.4125 0.22779 0.0
H93 H 0.45756 0.42619 0.28438 0.0
H94 H 0.28692 0.4022 0.12054 0.0
N95 N 0.28303 0.42922 0.39252 0.0
N96 N 0.20945 0.42568 0.50004 0.0
C97 C 0.233 0.44803 0.41804 0.0
C98 C 0.28817 0.3898 0.45996 0.0
C99 C 0.24494 0.39041 0.52833 0.0
C100 C 0.48009 0.52785 0.39802 0.0
O101 O 0.44376 0.45971 0.4275 0.0
H102 H 0.22068 0.48514 0.38117 0.0
H103 H 0.32232 0.36413 0.46131 0.0
O104 O 0.29862 0.5202 0.21963 0.0
H105 H 0.4016 0.43163 1.02466 0.0
H106 H 0.23966 0.36672 0.59281 0.0
Cu107 Cu 0.81989 0.22108 0.81945 0.0
N108 N 0.79985 0.12902 0.7794 0.0
N109 N 0.70194 0.06075 0.6957 0.0
C110 C 0.72657 0.07961 0.77798 0.0
C111 C 0.76404 0.08737 0.64626 0.0
C112 C 0.82465 0.12794 0.69868 0.0
O113 O 0.72541 0.22317 0.81308 0.0
C114 C 0.88908 0.32349 0.66747 0.0
O115 O 0.82294 0.28958 0.63096 0.0
H116 H 0.69077 0.07578 0.83103 0.0
H117 H 0.87904 0.16881 0.67473 0.0
N118 N 0.85409 0.23437 0.93339 0.0
N119 N 0.92219 0.30451 1.04444 0.0
C120 C 0.92088 0.28921 0.95846 0.0
C121 C 0.81312 0.21064 1.00653 0.0
C122 C 0.85465 0.25446 0.07568 0.0
C123 C 0.658 0.19223 0.84158 0.0
O124 O 0.61604 0.21763 0.81154 0.0
H125 H 0.96331 0.32466 0.91194 0.0
H126 H 0.75535 0.16951 1.00714 0.0
O127 O 0.89773 0.30182 0.74316 0.0
H128 H 0.76511 0.08971 0.57556 0.0
H129 H 0.83453 0.25429 0.14106 0.0
Cu130 Cu 0.68267 0.90787 0.29688 0.0
N131 N 0.75208 0.98675 0.22876 0.0
N132 N 0.7285 0.06071 0.14702 0.0
C133 C 0.74466 1.04755 0.22736 0.0
C134 C 0.74103 1.01664 0.0934 0.0
C135 C 0.75753 0.97233 0.14405 0.0
O136 O 0.60893 0.93683 0.34232 0.0
C137 C 0.67763 0.78717 0.19715 0.0
O138 O 0.74572 0.81679 0.22778 0.0
H139 H 0.73205 0.06925 0.28436 0.0
H140 H 0.75604 0.92259 0.12053 0.0
N141 N 0.72901 0.89168 0.3925 0.0
N142 N 0.73254 0.82164 0.50003 0.0
C143 C 0.71019 0.82285 0.41803 0.0
C144 C 0.76843 0.93624 0.45993 0.0
C145 C 0.76783 0.89241 0.52831 0.0
C146 C 0.63039 0.99013 0.398 0.0
O147 O 0.69853 1.02193 0.42749 0.0
H148 H 0.67307 0.77341 0.38117 0.0
H149 H 0.79412 0.99607 0.46128 0.0
O150 O 0.63802 0.8163 0.21961 0.0
H151 H 0.7266 1.00784 1.02465 0.0
H152 H 0.79152 0.91082 0.59278 0.0
Cu153 Cu 0.93717 0.63671 0.81947 0.0
N154 N 1.02923 0.70873 0.77941 0.0
N155 N 0.09748 0.67908 0.6957 0.0
C156 C 1.07863 0.68485 0.77798 0.0
C157 C 1.07086 0.71455 0.64626 0.0
C158 C 1.0303 0.7346 0.69869 0.0
O159 O 0.93508 0.54015 0.81309 0.0
C160 C 0.83475 0.60349 0.66749 0.0
O161 O 0.86867 0.57126 0.63099 0.0
H162 H 1.08247 0.65288 0.83103 0.0
H163 H 0.98943 0.74814 0.67475 0.0
N164 N 0.92388 0.65763 0.93341 0.0
N165 N 0.85373 0.65558 1.04445 0.0
C166 C 0.86904 0.66958 0.95847 0.0
C167 C 0.94762 0.64039 1.00655 0.0
C168 C 0.90378 0.63809 0.0757 0.0
C169 C 0.96601 0.50367 0.8416 0.0
O170 O 0.94062 0.43632 0.81156 0.0
H171 H 0.83358 0.67655 0.91196 0.0
H172 H 0.98875 0.62375 1.00716 0.0
O173 O 0.85643 0.63382 0.74318 0.0
H174 H 1.0685 0.71328 0.57556 0.0
H175 H 0.90395 0.61814 0.14107 0.0
Cu176 Cu 0.25038 0.81267 0.29688 0.0
N177 N 0.17148 0.80319 0.2288 0.0
N178 N 0.09748 0.70565 0.14708 0.0
C179 C 0.11068 0.73498 0.22742 0.0
C180 C 0.14153 0.76225 0.09345 0.0
C181 C 0.18586 0.82306 0.14409 0.0
O182 O 0.22142 0.70997 0.3423 0.0
C183 C 0.37106 0.92833 0.19714 0.0
O184 O 0.34144 0.9668 0.22779 0.0
H185 H 0.08901 0.70067 0.28443 0.0
H186 H 0.2356 0.87129 0.12055 0.0
N187 N 0.26657 0.87519 0.3925 0.0
N188 N 0.3366 0.94879 0.50002 0.0
C189 C 0.33541 0.92521 0.41803 0.0
C190 C 0.22201 0.8701 0.45991 0.0
C191 C 0.26583 0.91333 0.52828 0.0
C192 C 0.16816 0.67815 0.39804 0.0
O193 O 0.1364 0.71452 0.42758 0.0
H194 H 0.38485 0.9375 0.38118 0.0
H195 H 0.16218 0.83597 0.46124 0.0
O196 O 0.34193 0.85959 0.21958 0.0
H197 H 0.15031 0.75661 1.02469 0.0
H198 H 0.24742 0.91864 0.59274 0.0
Cu199 Cu 0.52153 0.33835 0.81946 0.0
N200 N 0.44952 0.3584 0.77941 0.0
N201 N 0.47915 0.45632 0.69572 0.0
C202 C 0.47339 0.43168 0.778 0.0
C203 C 0.44367 0.39422 0.64628 0.0
C204 C 0.42363 0.33362 0.69869 0.0
O205 O 0.61809 0.43281 0.81309 0.0
C206 C 0.55475 0.26916 0.66747 0.0
O207 O 0.58698 0.3353 0.63097 0.0
H208 H 0.50537 0.46749 0.83105 0.0
H209 H 0.4101 0.27922 0.67473 0.0
N210 N 0.50062 0.30414 0.9334 0.0
N211 N 0.50266 0.23604 1.04444 0.0
C212 C 0.48866 0.23735 0.95846 0.0
C213 C 0.51786 0.34511 1.00654 0.0
C214 C 0.52016 0.30358 0.07569 0.0
C215 C 0.65458 0.50022 0.84159 0.0
O216 O 0.72193 0.54217 0.81156 0.0
H217 H 0.48168 0.19492 0.91194 0.0
H218 H 0.53451 0.40289 1.00715 0.0
O219 O 0.52441 0.2605 0.74316 0.0
H220 H 0.44494 0.39315 0.57558 0.0
H221 H 0.54011 0.32369 0.14106 0.0
loop_
_geom_bond_atom_site_label_1
_geom_bond_atom_site_label_2
_geom_bond_distance
_geom_bond_site_symmetry_2
_ccdc_geom_bond_type
C0 O2 1.247 . S
C0 O4 1.258 . S
C1 O8 1.247 1_655 S
C1 O9 1.258 . S
O2 C0 1.247 . S
O2 Zn3 2.028 1_455 S
Zn3 O2 2.028 1_655 S
Zn3 O7 2.035 1_554 S
Zn3 O9 2.035 1_554 S
Zn3 O10 2.028 1_655 S
O4 C0 1.258 . S
O4 Zn5 2.035 1_554 S
Zn5 O4 2.035 1_556 S
Zn5 O6 2.028 . S
Zn5 O8 2.028 . S
Zn5 O11 2.035 1_556 S
O6 Zn5 2.028 . S
O6 C12 1.247 1_455 S
O7 Zn3 2.035 1_556 S
O7 C12 1.258 . S
O8 C1 1.247 1_455 S
O8 Zn5 2.028 . S
O9 C1 1.258 . S
O9 Zn3 2.035 1_556 S
O10 Zn3 2.028 1_455 S
O10 C13 1.247 . S
O11 Zn5 2.035 1_554 S
O11 C13 1.258 . S
C12 O6 1.247 1_655 S
C12 O7 1.258 . S
C13 O10 1.247 . S
C13 O11 1.258 . S
C14 O16 1.247 . S
C14 O18 1.258 . S
C15 O22 1.247 1_565 S
C15 O23 1.258 . S
O16 C14 1.247 . S
O16 Zn17 2.028 1_545 S
Zn17 O16 2.028 1_565 S
Zn17 O21 2.035 . S
Zn17 O23 2.035 . S
Zn17 O24 2.028 1_565 S
O18 C14 1.258 . S
O18 Zn19 2.035 . S
Zn19 O18 2.035 . S
Zn19 O20 2.028 . S
Zn19 O22 2.028 . S
Zn19 O25 2.035 . S
O20 Zn19 2.028 . S
O20 C26 1.247 1_545 S
O21 Zn17 2.035 . S
O21 C26 1.258 . S
O22 C15 1.247 1_545 S
O22 Zn19 2.028 . S
O23 C15 1.258 . S
O23 Zn17 2.035 . S
O24 Zn17 2.028 1_545 S
O24 C27 1.247 . S
O25 Zn19 2.035 . S
O25 C27 1.258 . S
C26 O20 1.247 1_565 S
C26 O21 1.258 . S
C27 O24 1.247 . S
C27 O25 1.258 . S
C28 O30 1.247 . S
C28 O32 1.258 . S
C29 O36 1.247 . S
C29 O37 1.258 . S
O30 C28 1.247 . S
O30 Zn31 2.028 . S
Zn31 O30 2.028 . S
Zn31 O35 2.035 1_556 S
Zn31 O37 2.035 1_556 S
Zn31 O38 2.028 . S
O32 C28 1.258 . S
O32 Zn33 2.035 1_556 S
Zn33 O32 2.035 1_554 S
Zn33 O34 2.028 . S
Zn33 O36 2.028 . S
Zn33 O39 2.035 1_554 S
O34 Zn33 2.028 . S
O34 C40 1.247 . S
O35 Zn31 2.035 1_554 S
O35 C40 1.258 . S
O36 C29 1.247 . S
O36 Zn33 2.028 . S
O37 C29 1.258 . S
O37 Zn31 2.035 1_554 S
O38 Zn31 2.028 . S
O38 C41 1.247 . S
O39 Zn33 2.035 1_556 S
O39 C41 1.258 . S
C40 O34 1.247 . S
C40 O35 1.258 . S
C41 O38 1.247 . S
C41 O39 1.258 . S
C42 O44 1.247 . S
C42 O46 1.258 . S
C43 O50 1.247 . S
C43 O51 1.258 . S
O44 C42 1.247 . S
O44 Zn45 2.028 . S
Zn45 O44 2.028 . S
Zn45 O49 2.035 1_455 S
Zn45 O51 2.035 1_455 S
Zn45 O52 2.028 . S
O46 C42 1.258 . S
O46 Zn47 2.035 1_455 S
Zn47 O46 2.035 1_655 S
Zn47 O48 2.028 . S
Zn47 O50 2.028 . S
Zn47 O53 2.035 1_655 S
O48 Zn47 2.028 . S
O48 C54 1.247 . S
O49 Zn45 2.035 1_655 S
O49 C54 1.258 . S
O50 C43 1.247 . S
O50 Zn47 2.028 . S
O51 C43 1.258 . S
O51 Zn45 2.035 1_655 S
O52 Zn45 2.028 . S
O52 C55 1.247 . S
O53 Zn47 2.035 1_455 S
O53 C55 1.258 . S
C54 O48 1.247 . S
C54 O49 1.258 . S
C55 O52 1.247 . S
C55 O53 1.258 . S
C56 O58 1.247 . S
C56 O60 1.258 . S
C57 O64 1.247 . S
C57 O65 1.258 . S
O58 C56 1.247 . S
O58 Zn59 2.028 1_565 S
Zn59 O58 2.028 1_545 S
Zn59 O63 2.035 1_554 S
Zn59 O65 2.035 1_554 S
Zn59 O66 2.028 1_545 S
O60 C56 1.258 . S
O60 Zn61 2.035 1_554 S
Zn61 O60 2.035 1_556 S
Zn61 O62 2.028 1_565 S
Zn61 O64 2.028 1_565 S
Zn61 O67 2.035 1_556 S
O62 Zn61 2.028 1_545 S
O62 C68 1.247 . S
O63 Zn59 2.035 1_556 S
O63 C68 1.258 . S
O64 C57 1.247 . S
O64 Zn61 2.028 1_545 S
O65 C57 1.258 . S
O65 Zn59 2.035 1_556 S
O66 Zn59 2.028 1_565 S
O66 C69 1.247 . S
O67 Zn61 2.035 1_554 S
O67 C69 1.258 . S
C68 O62 1.247 . S
C68 O63 1.258 . S
C69 O66 1.247 . S
C69 O67 1.258 . S
C70 O72 1.247 . S
C70 O74 1.258 . S
C71 O78 1.247 . S
C71 O79 1.258 . S
O72 C70 1.247 . S
O72 Zn73 2.028 . S
Zn73 O72 2.028 . S
Zn73 O77 2.035 . S
Zn73 O79 2.035 . S
Zn73 O80 2.028 . S
O74 C70 1.258 . S
O74 Zn75 2.035 . S
Zn75 O74 2.035 . S
Zn75 O76 2.028 . S
Zn75 O78 2.028 . S
Zn75 O81 2.035 . S
O76 Zn75 2.028 . S
O76 C82 1.247 . S
O77 Zn73 2.035 . S
O77 C82 1.258 . S
O78 C71 1.247 . S
O78 Zn75 2.028 . S
O79 C71 1.258 . S
O79 Zn73 2.035 . S
O80 Zn73 2.028 . S
O80 C83 1.247 . S
O81 Zn75 2.035 . S
O81 C83 1.258 . S
C82 O76 1.247 . S
C82 O77 1.258 . S
C83 O80 1.247 . S
C83 O81 1.258 . S
Cu84 N85 1.999 . S
Cu84 O90 1.974 . S
Cu84 N95 1.985 . S
Cu84 O104 1.959 . S
N85 Cu84 1.999 . S
N85 C87 1.263 . S
N85 C89 1.389 . S
N86 C87 1.358 . S
N86 C88 1.400 . S
C87 N85 1.263 . S
C87 N86 1.358 . S
C87 H93 0.930 . S
C88 N86 1.400 . S
C88 C89 1.351 . S
C88 H105 0.930 . S
C89 N85 1.389 . S
C89 C88 1.351 . S
C89 H94 0.930 . S
O90 Cu84 1.974 . S
O90 C100 1.282 . S
C91 O92 1.261 . S
C91 O104 1.251 . S
O92 C91 1.261 . S
H93 C87 0.930 . S
H94 C89 0.930 . S
N95 Cu84 1.985 . S
N95 C97 1.335 . S
N95 C98 1.390 . S
N96 C97 1.345 . S
N96 C99 1.336 . S
C97 N95 1.335 . S
C97 N96 1.345 . S
C97 H102 0.930 . S
C98 N95 1.390 . S
C98 C99 1.346 . S
C98 H103 0.930 . S
C99 N96 1.336 . S
C99 C98 1.346 . S
C99 H106 0.929 . S
C100 O90 1.282 . S
C100 O101 1.216 . S
O101 C100 1.216 . S
H102 C97 0.930 . S
H103 C98 0.930 . S
O104 Cu84 1.959 . S
O104 C91 1.251 . S
H105 C88 0.930 . S
H106 C99 0.929 . S
Cu107 N108 1.999 . S
Cu107 O113 1.974 . S
Cu107 N118 1.985 . S
Cu107 O127 1.959 . S
N108 Cu107 1.999 . S
N108 C110 1.263 . S
N108 C112 1.389 . S
N109 C110 1.358 . S
N109 C111 1.400 . S
C110 N108 1.263 . S
C110 N109 1.358 . S
C110 H116 0.930 . S
C111 N109 1.400 . S
C111 C112 1.351 . S
C111 H128 0.930 . S
C112 N108 1.389 . S
C112 C111 1.351 . S
C112 H117 0.930 . S
O113 Cu107 1.974 . S
O113 C123 1.282 . S
C114 O115 1.261 . S
C114 O127 1.251 . S
O115 C114 1.261 . S
H116 C110 0.930 . S
H117 C112 0.930 . S
N118 Cu107 1.985 . S
N118 C120 1.335 . S
N118 C121 1.390 . S
N119 C120 1.345 . S
N119 C122 1.336 . S
C120 N118 1.335 . S
C120 N119 1.345 . S
C120 H125 0.930 . S
C121 N118 1.390 . S
C121 C122 1.346 . S
C121 H126 0.930 . S
C122 N119 1.336 . S
C122 C121 1.346 . S
C122 H129 0.929 1_556 S
C123 O113 1.282 . S
C123 O124 1.216 . S
O124 C123 1.216 . S
H125 C120 0.930 . S
H126 C121 0.930 . S
O127 Cu107 1.959 . S
O127 C114 1.251 . S
H128 C111 0.930 . S
H129 C122 0.929 1_554 S
Cu130 N131 1.999 . S
Cu130 O136 1.974 . S
Cu130 N141 1.985 . S
Cu130 O150 1.959 . S
N131 Cu130 1.999 . S
N131 C133 1.263 . S
N131 C135 1.389 . S
N132 C133 1.358 . S
N132 C134 1.400 . S
C133 N131 1.263 . S
C133 N132 1.358 . S
C133 H139 0.930 . S
C134 N132 1.400 . S
C134 C135 1.351 . S
C134 H151 0.930 . S
C135 N131 1.389 . S
C135 C134 1.351 . S
C135 H140 0.930 . S
O136 Cu130 1.974 . S
O136 C146 1.282 . S
C137 O138 1.261 . S
C137 O150 1.251 . S
O138 C137 1.261 . S
H139 C133 0.930 . S
H140 C135 0.930 . S
N141 Cu130 1.985 . S
N141 C143 1.335 . S
N141 C144 1.390 . S
N142 C143 1.345 . S
N142 C145 1.336 . S
C143 N141 1.335 . S
C143 N142 1.345 . S
C143 H148 0.930 . S
C144 N141 1.390 . S
C144 C145 1.346 . S
C144 H149 0.930 . S
C145 N142 1.336 . S
C145 C144 1.346 . S
C145 H152 0.929 . S
C146 O136 1.282 . S
C146 O147 1.216 . S
O147 C146 1.216 . S
H148 C143 0.930 . S
H149 C144 0.930 . S
O150 Cu130 1.959 . S
O150 C137 1.251 . S
H151 C134 0.930 . S
H152 C145 0.929 . S
Cu153 N154 1.999 . S
Cu153 O159 1.974 . S
Cu153 N164 1.985 . S
Cu153 O173 1.959 . S
N154 Cu153 1.999 . S
N154 C156 1.263 . S
N154 C158 1.389 . S
N155 C156 1.358 . S
N155 C157 1.400 . S
C156 N154 1.263 . S
C156 N155 1.358 . S
C156 H162 0.930 . S
C157 N155 1.400 . S
C157 C158 1.351 . S
C157 H174 0.930 . S
C158 N154 1.389 . S
C158 C157 1.351 . S
C158 H163 0.930 . S
O159 Cu153 1.974 . S
O159 C169 1.282 . S
C160 O161 1.261 . S
C160 O173 1.251 . S
O161 C160 1.261 . S
H162 C156 0.930 . S
H163 C158 0.930 . S
N164 Cu153 1.985 . S
N164 C166 1.335 . S
N164 C167 1.390 . S
N165 C166 1.345 . S
N165 C168 1.336 . S
C166 N164 1.335 . S
C166 N165 1.345 . S
C166 H171 0.930 . S
C167 N164 1.390 . S
C167 C168 1.346 . S
C167 H172 0.930 . S
C168 N165 1.336 . S
C168 C167 1.346 . S
C168 H175 0.929 1_556 S
C169 O159 1.282 . S
C169 O170 1.216 . S
O170 C169 1.216 . S
H171 C166 0.930 . S
H172 C167 0.930 . S
O173 Cu153 1.959 . S
O173 C160 1.251 . S
H174 C157 0.930 . S
H175 C168 0.929 1_554 S
Cu176 N177 1.999 . S
Cu176 O182 1.974 . S
Cu176 N187 1.985 . S
Cu176 O196 1.959 . S
N177 Cu176 1.999 . S
N177 C179 1.263 . S
N177 C181 1.389 . S
N178 C179 1.358 . S
N178 C180 1.400 . S
C179 N177 1.263 . S
C179 N178 1.358 . S
C179 H185 0.930 . S
C180 N178 1.400 . S
C180 C181 1.351 . S
C180 H197 0.930 . S
C181 N177 1.389 . S
C181 C180 1.351 . S
C181 H186 0.930 . S
O182 Cu176 1.974 . S
O182 C192 1.282 . S
C183 O184 1.261 . S
C183 O196 1.251 . S
O184 C183 1.261 . S
H185 C179 0.930 . S
H186 C181 0.930 . S
N187 Cu176 1.985 . S
N187 C189 1.335 . S
N187 C190 1.390 . S
N188 C189 1.345 . S
N188 C191 1.336 . S
C189 N187 1.335 . S
C189 N188 1.345 . S
C189 H194 0.930 . S
C190 N187 1.390 . S
C190 C191 1.346 . S
C190 H195 0.930 . S
C191 N188 1.336 . S
C191 C190 1.346 . S
C191 H198 0.929 . S
C192 O182 1.282 . S
C192 O193 1.216 . S
O193 C192 1.216 . S
H194 C189 0.930 . S
H195 C190 0.930 . S
O196 Cu176 1.959 . S
O196 C183 1.251 . S
H197 C180 0.930 . S
H198 C191 0.929 . S
Cu199 N200 1.999 . S
Cu199 O205 1.974 . S
Cu199 N210 1.985 . S
Cu199 O219 1.959 . S
N200 Cu199 1.999 . S
N200 C202 1.263 . S
N200 C204 1.389 . S
N201 C202 1.358 . S
N201 C203 1.400 . S
C202 N200 1.263 . S
C202 N201 1.358 . S
C202 H208 0.930 . S
C203 N201 1.400 . S
C203 C204 1.351 . S
C203 H220 0.930 . S
C204 N200 1.389 . S
C204 C203 1.351 . S
C204 H209 0.930 . S
O205 Cu199 1.974 . S
O205 C215 1.282 . S
C206 O207 1.261 . S
C206 O219 1.251 . S
O207 C206 1.261 . S
H208 C202 0.930 . S
H209 C204 0.930 . S
N210 Cu199 1.985 . S
N210 C212 1.335 . S
N210 C213 1.390 . S
N211 C212 1.345 . S
N211 C214 1.336 . S
C212 N210 1.335 . S
C212 N211 1.345 . S
C212 H217 0.930 . S
C213 N210 1.390 . S
C213 C214 1.346 . S
C213 H218 0.930 . S
C214 N211 1.336 . S
C214 C213 1.346 . S
C214 H221 0.929 1_556 S
C215 O205 1.282 . S
C215 O216 1.216 . S
O216 C215 1.216 . S
H217 C212 0.930 . S
H218 C213 0.930 . S
O219 Cu199 1.959 . S
O219 C206 1.251 . S
H220 C203 0.930 . S
H221 C214 0.929 1_554 S
C13 C91 2.703 . S
C27 N109 2.024 . S
C137 C29 2.703 . S
N155 C54 2.026 . S
C183 C69 2.703 . S
N201 C83 2.023 . S
C15 C146 2.765 . S
C41 N165 1.702 . S
C192 C42 2.766 . S
N211 C57 1.701 . S
C71 C100 2.765 . S
N119 C1 1.702 . S
C169 C12 2.250 . S
C26 N188 1.245 . S
C215 C28 2.250 . S
C55 N96 1.245 . S
C68 C123 2.250 . S
C82 N142 1.245 . S
C14 C206 2.340 . S
N86 C40 0.980 . S
C43 C114 2.340 . S
C56 N132 0.980 . S
C70 C160 2.340 . S
C0 N178 0.980 . S
