# Generated by pormake.
# Topology bcu-b, (8,8)-cn, num edge types: 1
# Building blocks:
#     Node 0, Type 0, BuildingBlock: VETTIZ_charged_sbu_0, # of connection points: 8
#     Node 1, Type 1, BuildingBlock: TAGTUT_clean_sbu_3, # of connection points: 8
#     Edge 2, Type (0, 1), BuildingBlock: FUNLAD_clean_linker_0, # of connection points: 2
#     Edge 3, Type (0, 1), BuildingBlock: FUNLAD_clean_linker_0, # of connection points: 2
#     Edge 4, Type (0, 1), BuildingBlock: FUNLAD_clean_linker_0, # of connection points: 2
#     Edge 5, Type (0, 1), BuildingBlock: FUNLAD_clean_linker_0, # of connection points: 2
#     Edge 6, Type (0, 1), BuildingBlock: FUNLAD_clean_linker_0, # of connection points: 2
#     Edge 7, Type (0, 1), BuildingBlock: FUNLAD_clean_linker_0, # of connection points: 2
#     Edge 8, Type (0, 1), BuildingBlock: FUNLAD_clean_linker_0, # of connection points: 2
#     Edge 9, Type (0, 1), BuildingBlock: FUNLAD_clean_linker_0, # of connection points: 2
# Relax obj value: 0.021
# Max RMSD: 0.102
# Mean RMSD: 0.073
data_MOF--net-bcu-b--node1-VETTIZ_charged_sbu_0--node2-TAGTUT_clean_sbu_3--edge1-FUNLAD_clean_linker_0
_symmetry_space_group_name_H-M    P1
_symmetry_Int_Tables_number       1
_symmetry_cell_setting            triclinic
loop_
_symmetry_equiv_pos_as_xyz
'x, y, z'
_cell_length_a     22.371691
_cell_length_b     22.170929
_cell_length_c     23.812164
_cell_angle_alpha  90.298571
_cell_angle_beta   89.831576
_cell_angle_gamma 98.41165
loop_
_atom_site_label
_atom_site_type_symbol
_atom_site_fract_x
_atom_site_fract_y
_atom_site_fract_z
_atom_type_partial_charge
Fe0 Fe 0.01884 0.87687 -0.00355 0.0
O1 O 0.03095 0.96586 -0.00014 0.0
Fe2 Fe 0.01266 0.01479 0.92832 0.0
Fe3 Fe 0.99191 0.01281 0.05762 0.0
O4 O 0.03289 0.96641 -0.00564 0.0
O5 O 0.97437 0.06262 0.98617 0.0
O6 O 0.97181 0.06178 -0.00826 0.0
Fe7 Fe 0.98903 0.15182 -0.00952 0.0
C8 C 0.90381 0.89834 0.05935 0.0
O9 O 0.0706 0.88868 0.06842 0.0
O10 O 0.02204 0.95638 0.11926 0.0
O11 O 0.06296 0.16063 0.93848 0.0
O12 O 0.09474 0.07021 0.93467 0.0
O13 O 0.05646 0.95699 0.8763 0.0
O14 O 0.08762 0.88823 0.93848 0.0
O15 O 0.0729 0.06753 0.06852 0.0
O16 O 0.04607 0.15953 0.05926 0.0
C17 C 0.08935 0.91538 0.89027 0.0
O18 O 0.93936 0.14312 0.91747 0.0
O19 O 0.98441 0.07273 0.8667 0.0
O20 O 0.94586 0.86685 0.04959 0.0
O21 O 0.91059 0.95569 0.05104 0.0
C22 C 0.06028 0.91737 0.11448 0.0
C23 C 0.08129 0.12434 0.07828 0.0
C24 C 0.91577 0.11357 0.09536 0.0
O25 O 0.94627 0.06983 0.10919 0.0
O26 O 0.91976 0.14181 0.04759 0.0
C27 C 0.10325 0.12758 0.92701 0.0
O28 O 0.93171 0.95966 0.91794 0.0
O29 O 0.95969 0.86784 0.92876 0.0
C30 C 0.95137 0.11657 0.87079 0.0
C31 C 0.92369 0.9024 0.90952 0.0
C32 C 0.60726 0.5987 0.56367 0.0
C33 C 0.68458 0.3848 0.53111 0.0
C34 C 0.58923 0.38243 0.37772 0.0
Mg35 Mg 0.4858 0.64498 0.51613 0.0
Mg36 Mg 0.36312 0.54757 0.48832 0.0
O37 O 0.44598 0.57038 0.47548 0.0
Mg38 Mg 0.50414 0.51286 0.49276 0.0
O39 O 0.56725 0.46085 0.5099 0.0
Mg40 Mg 0.63651 0.50322 0.4644 0.0
Mg41 Mg 0.54888 0.37674 0.49854 0.0
C42 C 0.3944 0.43156 0.42093 0.0
O43 O 0.44375 0.45749 0.5604 0.0
O44 O 0.41608 0.69689 0.46997 0.0
O45 O 0.46685 0.36249 0.54787 0.0
O46 O 0.42014 0.63101 0.59109 0.0
O47 O 0.33553 0.62653 0.44991 0.0
O48 O 0.3436 0.55627 0.57613 0.0
O49 O 0.56839 0.56144 0.4258 0.0
O50 O 0.5505 0.6565 0.4419 0.0
C51 C 0.57819 0.61874 0.41498 0.0
C52 C 0.3632 0.68142 0.4485 0.0
O53 O 0.45156 0.44598 0.42932 0.0
O54 O 0.69586 0.43865 0.50977 0.0
O55 O 0.35462 0.46046 0.4437 0.0
O56 O 0.62239 0.43231 0.39161 0.0
O57 O 0.63143 0.35405 0.53158 0.0
O58 O 0.54978 0.35526 0.4112 0.0
O59 O 0.55045 0.58319 0.55527 0.0
O60 O 0.64671 0.57338 0.53656 0.0
C61 C 0.37175 0.59782 0.60747 0.0
C62 C 0.43533 0.39985 0.57099 0.0
C63 C 0.15379 0.21124 0.11724 0.0
C64 C 0.12998 0.14901 0.11751 0.0
C65 C 0.19606 0.23522 0.15766 0.0
C66 C 0.21455 0.19749 0.19961 0.0
C67 C 0.19158 0.13517 0.19921 0.0
C68 C 0.15037 0.11094 0.15811 0.0
C69 C 0.25187 0.22335 0.24768 0.0
C70 C 0.29531 0.27185 0.24298 0.0
C71 C 0.32387 0.30481 0.29264 0.0
C72 C 0.38346 0.33497 0.28904 0.0
C73 C 0.40821 0.37313 0.3327 0.0
C74 C 0.37297 0.38311 0.37989 0.0
H75 H 0.24343 0.29066 0.34503 0.0
C76 C 0.31414 0.35122 0.38433 0.0
C77 C 0.28993 0.31219 0.34135 0.0
H78 H 0.28601 0.35804 0.42026 0.0
H79 H 0.1389 0.24159 0.08645 0.0
H80 H 0.2119 0.28377 0.15761 0.0
H81 H 0.20466 0.10537 0.23144 0.0
H82 H 0.13255 0.06282 0.15967 0.0
H83 H 0.24218 0.20244 0.28853 0.0
H84 H 0.30914 0.28922 0.20162 0.0
H85 H 0.41031 0.33031 0.25175 0.0
H86 H 0.45358 0.39747 0.32801 0.0
C87 C 0.86828 0.19825 0.13539 0.0
C88 C 0.87442 0.13611 0.13634 0.0
C89 C 0.8237 0.22041 0.16683 0.0
C90 C 0.78318 0.18081 0.19965 0.0
C91 C 0.79159 0.11924 0.20359 0.0
C92 C 0.83696 0.09692 0.17208 0.0
C93 C 0.73366 0.20382 0.23141 0.0
C94 C 0.70878 0.25259 0.21428 0.0
C95 C 0.66843 0.28395 0.25008 0.0
C96 C 0.67321 0.34772 0.24701 0.0
C97 C 0.64328 0.38011 0.2859 0.0
C98 C 0.60681 0.3491 0.32779 0.0
H99 H 0.62202 0.20329 0.29121 0.0
C100 C 0.59722 0.28489 0.32723 0.0
C101 C 0.62819 0.25257 0.28902 0.0
H102 H 0.56931 0.25956 0.3589 0.0
H103 H 0.89757 0.22994 0.10934 0.0
H104 H 0.82134 0.26876 0.16512 0.0
H105 H 0.76196 0.08807 0.22976 0.0
H106 H 0.84103 0.04892 0.17387 0.0
H107 H 0.71916 0.18136 0.27059 0.0
H108 H 0.72295 0.27438 0.17473 0.0
H109 H 0.70328 0.37288 0.21675 0.0
H110 H 0.65133 0.42949 0.28509 0.0
C111 C 0.8379 0.80336 0.08949 0.0
C112 C 0.84955 0.86748 0.08891 0.0
C113 C 0.79446 0.7728 0.12551 0.0
C114 C 0.76182 0.80574 0.16219 0.0
C115 C 0.77009 0.86976 0.15843 0.0
C116 C 0.81359 0.90042 0.12217 0.0
C117 C 0.72069 0.77546 0.20619 0.0
C118 C 0.72528 0.72003 0.22783 0.0
C119 C 0.68885 0.69404 0.2767 0.0
C120 C 0.67653 0.63042 0.28366 0.0
C121 C 0.64196 0.60516 0.32937 0.0
C122 C 0.61962 0.64331 0.36916 0.0
H123 H 0.67941 0.781 0.31571 0.0
C124 C 0.6343 0.70688 0.36324 0.0
C125 C 0.66852 0.73189 0.31786 0.0
H126 H 0.6189 0.73783 0.39357 0.0
H127 H 0.86394 0.77653 0.06341 0.0
H128 H 0.78763 0.7235 0.12501 0.0
H129 H 0.74481 0.89632 0.18552 0.0
H130 H 0.82117 0.94978 0.12244 0.0
H131 H 0.68771 0.80178 0.22363 0.0
H132 H 0.75743 0.69281 0.21042 0.0
H133 H 0.69272 0.60019 0.25312 0.0
H134 H 0.63168 0.55604 0.33281 0.0
C135 C 0.14947 0.88024 0.15794 0.0
C136 C 0.09504 0.90417 0.16468 0.0
C137 C 0.18155 0.86466 0.20449 0.0
C138 C 0.15991 0.87241 0.25915 0.0
C139 C 0.10599 0.89717 0.26607 0.0
C140 C 0.07418 0.91365 0.2193 0.0
C141 C 0.18925 0.84865 0.30863 0.0
C142 C 0.24865 0.84394 0.3101 0.0
C143 C 0.27594 0.80731 0.35252 0.0
C144 C 0.33847 0.81914 0.36245 0.0
C145 C 0.3668 0.77999 0.39596 0.0
C146 C 0.33317 0.72748 0.41916 0.0
H147 H 0.19406 0.74449 0.3702 0.0
C148 C 0.27033 0.71679 0.41068 0.0
C149 C 0.24201 0.7562 0.37789 0.0
H150 H 0.24306 0.67686 0.42816 0.0
H151 H 0.16713 0.87273 0.11648 0.0
H152 H 0.22192 0.84413 0.19724 0.0
H153 H 0.08797 0.90292 0.30772 0.0
H154 H 0.03238 0.93195 0.22588 0.0
H155 H 0.16042 0.83256 0.34386 0.0
H156 H 0.27835 0.86554 0.27751 0.0
H157 H 0.36577 0.85784 0.34294 0.0
H158 H 0.41531 0.78934 0.40155 0.0
C159 C 0.18428 0.87681 0.86481 0.0
C160 C 0.12815 0.89162 0.84801 0.0
C161 C 0.21511 0.83979 0.83123 0.0
C162 C 0.18974 0.81564 0.78042 0.0
C163 C 0.13588 0.83462 0.76158 0.0
C164 C 0.10526 0.87239 0.7951 0.0
C165 C 0.21699 0.76961 0.74685 0.0
C166 C 0.25763 0.73601 0.7674 0.0
C167 C 0.28459 0.69158 0.73232 0.0
C168 C 0.34658 0.68854 0.73693 0.0
C169 C 0.37475 0.6532 0.69915 0.0
C170 C 0.34097 0.61896 0.65718 0.0
H171 H 0.20171 0.65378 0.69005 0.0
C172 C 0.27789 0.61724 0.65636 0.0
C173 C 0.24999 0.65373 0.69328 0.0
H174 H 0.25067 0.5916 0.6243 0.0
H175 H 0.20306 0.89165 0.90534 0.0
H176 H 0.25787 0.82925 0.8463 0.0
H177 H 0.11583 0.81773 0.72213 0.0
H178 H 0.06174 0.88276 0.7815 0.0
H179 H 0.20185 0.76213 0.7037 0.0
H180 H 0.27436 0.74279 0.80996 0.0
H181 H 0.37392 0.71656 0.76743 0.0
H182 H 0.42344 0.65543 0.70068 0.0
C183 C 0.17082 0.22051 0.89458 0.0
C184 C 0.15718 0.15654 0.89587 0.0
C185 C 0.21372 0.24928 0.85709 0.0
C186 C 0.24378 0.21465 0.8197 0.0
C187 C 0.2336 0.15073 0.824 0.0
C188 C 0.19058 0.12183 0.86163 0.0
C189 C 0.2845 0.24329 0.77474 0.0
C190 C 0.27985 0.29819 0.75209 0.0
C191 C 0.31727 0.3239 0.70379 0.0
C192 C 0.32956 0.38747 0.69688 0.0
C193 C 0.3662 0.41276 0.65259 0.0
C194 C 0.39072 0.37473 0.6141 0.0
H195 H 0.32863 0.23693 0.66581 0.0
C196 C 0.37574 0.31114 0.61956 0.0
C197 C 0.33941 0.28605 0.66365 0.0
H198 H 0.39281 0.28036 0.5901 0.0
H199 H 0.14672 0.24862 0.92123 0.0
H200 H 0.22226 0.29858 0.85704 0.0
H201 H 0.25692 0.12294 0.79633 0.0
H202 H 0.18127 0.07248 0.86166 0.0
H203 H 0.31735 0.21646 0.7579 0.0
H204 H 0.24747 0.32555 0.76888 0.0
H205 H 0.31206 0.41767 0.72665 0.0
H206 H 0.37674 0.46188 0.64959 0.0
C207 C 0.90806 0.19873 0.8206 0.0
C208 C 0.92857 0.1417 0.81871 0.0
C209 C 0.88708 0.22404 0.77243 0.0
C210 C 0.88606 0.19316 0.72071 0.0
C211 C 0.90605 0.13592 0.71858 0.0
C212 C 0.92772 0.11062 0.76702 0.0
C213 C 0.85889 0.21738 0.6702 0.0
C214 C 0.85749 0.27749 0.66262 0.0
C215 C 0.81808 0.30241 0.62106 0.0
C216 C 0.82828 0.36514 0.60892 0.0
C217 C 0.78657 0.392 0.57726 0.0
C218 C 0.73338 0.35661 0.55784 0.0
H219 H 0.75561 0.21858 0.6082 0.0
C220 C 0.72462 0.29345 0.56785 0.0
C221 C 0.76626 0.26667 0.59906 0.0
H222 H 0.68434 0.26467 0.5531 0.0
H223 H 0.90804 0.22429 0.85949 0.0
H224 H 0.86999 0.26707 0.77648 0.0
H225 H 0.90471 0.11066 0.67942 0.0
H226 H 0.94297 0.06654 0.76412 0.0
H227 H 0.8378 0.18439 0.63979 0.0
H228 H 0.88399 0.31025 0.69017 0.0
H229 H 0.86758 0.3939 0.62567 0.0
H230 H 0.79462 0.44075 0.5703 0.0
C231 C 0.85225 0.81361 0.87175 0.0
C232 C 0.87435 0.8763 0.87135 0.0
C233 C 0.80934 0.78853 0.83221 0.0
C234 C 0.78838 0.82563 0.79104 0.0
C235 C 0.8096 0.88836 0.79141 0.0
C236 C 0.85151 0.91361 0.83153 0.0
C237 C 0.7503 0.79924 0.74352 0.0
C238 C 0.70922 0.74865 0.74776 0.0
C239 C 0.67968 0.71713 0.69771 0.0
C240 C 0.71182 0.71433 0.64716 0.0
C241 C 0.68684 0.67787 0.60276 0.0
C242 C 0.62895 0.64392 0.60754 0.0
H243 H 0.5956 0.68563 0.74068 0.0
C244 C 0.59546 0.64891 0.65695 0.0
C245 C 0.62107 0.68455 0.70201 0.0
H246 H 0.55089 0.62282 0.66188 0.0
H247 H 0.86898 0.78375 0.90192 0.0
H248 H 0.79492 0.73974 0.83231 0.0
H249 H 0.79464 0.91778 0.7598 0.0
H250 H 0.86788 0.96204 0.82978 0.0
H251 H 0.75718 0.82206 0.70322 0.0
H252 H 0.69779 0.72893 0.78878 0.0
H253 H 0.75758 0.7377 0.64275 0.0
H254 H 0.71368 0.67484 0.56518 0.0
loop_
_geom_bond_atom_site_label_1
_geom_bond_atom_site_label_2
_geom_bond_distance
_geom_bond_site_symmetry_2
_ccdc_geom_bond_type
Fe0 O1 1.897 . S
Fe0 O4 1.703 1_554 S
Fe0 O9 2.087 1_655 S
Fe0 O14 1.927 1_654 S
Fe0 O20 2.087 . S
Fe0 O29 1.926 1_554 S
O1 Fe0 1.897 . S
O1 Fe3 1.715 1_665 S
Fe2 O4 1.887 1_445 S
Fe2 O5 1.715 . S
Fe2 O12 1.935 . S
Fe2 O13 2.077 1_545 S
Fe2 O19 1.935 1_455 S
Fe2 O28 2.077 1_445 S
Fe3 O1 1.715 1_445 S
Fe3 O6 1.886 . S
Fe3 O10 1.935 1_545 S
Fe3 O15 2.077 . S
Fe3 O21 1.935 1_445 S
Fe3 O25 2.077 1_455 S
O4 Fe0 1.703 1_556 S
O4 Fe2 1.887 1_665 S
O5 Fe2 1.715 . S
O5 Fe7 1.891 . S
O6 Fe3 1.886 . S
O6 Fe7 1.710 1_554 S
Fe7 O5 1.891 . S
Fe7 O6 1.710 1_556 S
Fe7 O11 2.082 . S
Fe7 O16 1.931 1_556 S
Fe7 O18 2.082 1_455 S
Fe7 O26 1.931 1_456 S
C8 O20 1.381 . S
C8 O21 1.421 . S
O9 Fe0 2.087 1_455 S
O9 C22 1.381 . S
O10 Fe3 1.935 1_565 S
O10 C22 1.421 . S
O11 Fe7 2.082 . S
O11 C27 1.381 . S
O12 Fe2 1.935 . S
O12 C27 1.421 . S
O13 Fe2 2.077 1_565 S
O13 C17 1.381 . S
O14 Fe0 1.927 1_456 S
O14 C17 1.421 . S
O15 Fe3 2.077 . S
O15 C23 1.381 . S
O16 Fe7 1.931 1_554 S
O16 C23 1.421 . S
C17 O13 1.381 . S
C17 O14 1.421 . S
O18 Fe7 2.082 1_655 S
O18 C30 1.381 . S
O19 Fe2 1.935 1_655 S
O19 C30 1.421 . S
O20 Fe0 2.087 . S
O20 C8 1.381 . S
O21 Fe3 1.935 1_665 S
O21 C8 1.421 . S
C22 O9 1.381 . S
C22 O10 1.421 . S
C23 O15 1.381 . S
C23 O16 1.421 . S
C24 O25 1.381 . S
C24 O26 1.421 . S
O25 Fe3 2.077 1_655 S
O25 C24 1.381 . S
O26 Fe7 1.931 1_654 S
O26 C24 1.421 . S
C27 O11 1.381 . S
C27 O12 1.421 . S
O28 Fe2 2.077 1_665 S
O28 C31 1.381 . S
O29 Fe0 1.926 1_556 S
O29 C31 1.421 . S
C30 O18 1.381 . S
C30 O19 1.421 . S
C31 O28 1.381 . S
C31 O29 1.421 . S
C32 O59 1.312 . S
C32 O60 1.208 . S
C33 O54 1.331 . S
C33 O57 1.244 . S
C34 O56 1.264 . S
C34 O58 1.273 . S
Mg35 O37 1.936 . S
Mg35 O44 2.081 . S
Mg35 O46 2.023 . S
Mg35 O50 2.031 . S
Mg35 O59 2.291 . S
Mg36 O37 1.963 . S
Mg36 O47 1.942 . S
Mg36 O48 1.955 . S
Mg36 O55 1.986 . S
O37 Mg35 1.936 . S
O37 Mg36 1.963 . S
O37 Mg38 1.915 . S
Mg38 O37 1.915 . S
Mg38 O39 1.915 . S
Mg38 O43 2.013 . S
Mg38 O49 2.114 . S
Mg38 O53 2.013 . S
Mg38 O59 2.114 . S
O39 Mg38 1.915 . S
O39 Mg40 1.936 . S
O39 Mg41 1.963 . S
Mg40 O39 1.936 . S
Mg40 O49 2.291 . S
Mg40 O54 2.081 . S
Mg40 O56 2.023 . S
Mg40 O60 2.031 . S
Mg41 O39 1.963 . S
Mg41 O45 1.986 . S
Mg41 O57 1.942 . S
Mg41 O58 1.955 . S
C42 O53 1.191 . S
C42 O55 1.307 . S
O43 Mg38 2.013 . S
O43 C62 1.191 . S
O44 Mg35 2.081 . S
O44 C52 1.331 . S
O45 Mg41 1.986 . S
O45 C62 1.307 . S
O46 Mg35 2.023 . S
O46 C61 1.264 . S
O47 Mg36 1.942 . S
O47 C52 1.244 . S
O48 Mg36 1.955 . S
O48 C61 1.273 . S
O49 Mg38 2.114 . S
O49 Mg40 2.291 . S
O49 C51 1.312 . S
O50 Mg35 2.031 . S
O50 C51 1.208 . S
C51 O49 1.312 . S
C51 O50 1.208 . S
C52 O44 1.331 . S
C52 O47 1.244 . S
O53 Mg38 2.013 . S
O53 C42 1.191 . S
O54 C33 1.331 . S
O54 Mg40 2.081 . S
O55 Mg36 1.986 . S
O55 C42 1.307 . S
O56 C34 1.264 . S
O56 Mg40 2.023 . S
O57 C33 1.244 . S
O57 Mg41 1.942 . S
O58 C34 1.273 . S
O58 Mg41 1.955 . S
O59 C32 1.312 . S
O59 Mg35 2.291 . S
O59 Mg38 2.114 . S
O60 C32 1.208 . S
O60 Mg40 2.031 . S
C61 O46 1.264 . S
C61 O48 1.273 . S
C62 O43 1.191 . S
C62 O45 1.307 . S
C63 C64 1.386 . S
C63 C65 1.383 . S
C63 H79 0.951 . S
C64 C63 1.386 . S
C64 C68 1.383 . S
C65 C63 1.383 . S
C65 C66 1.402 . S
C65 H80 0.951 . S
C66 C65 1.402 . S
C66 C67 1.375 . S
C66 C69 1.481 . S
C67 C66 1.375 . S
C67 C68 1.367 . S
C67 H81 0.951 . S
C68 C64 1.383 . S
C68 C67 1.367 . S
C68 H82 0.950 . S
C69 C66 1.481 . S
C69 C70 1.297 . S
C69 H83 0.950 . S
C70 C69 1.297 . S
C70 C71 1.479 . S
C70 H84 0.950 . S
C71 C70 1.479 . S
C71 C72 1.375 . S
C71 C77 1.404 . S
C72 C71 1.375 . S
C72 C73 1.369 . S
C72 H85 0.950 . S
C73 C72 1.369 . S
C73 C74 1.392 . S
C73 H86 0.951 . S
C74 C73 1.392 . S
C74 C76 1.384 . S
H75 C77 0.949 . S
C76 C74 1.384 . S
C76 C77 1.385 . S
C76 H78 0.950 . S
C77 C71 1.404 . S
C77 H75 0.949 . S
C77 C76 1.385 . S
H78 C76 0.950 . S
H79 C63 0.951 . S
H80 C65 0.951 . S
H81 C67 0.951 . S
H82 C68 0.950 . S
H83 C69 0.950 . S
H84 C70 0.950 . S
H85 C72 0.950 . S
H86 C73 0.951 . S
C87 C88 1.386 . S
C87 C89 1.383 . S
C87 H103 0.951 . S
C88 C87 1.386 . S
C88 C92 1.383 . S
C89 C87 1.383 . S
C89 C90 1.402 . S
C89 H104 0.951 . S
C90 C89 1.402 . S
C90 C91 1.375 . S
C90 C93 1.481 . S
C91 C90 1.375 . S
C91 C92 1.367 . S
C91 H105 0.951 . S
C92 C88 1.383 . S
C92 C91 1.367 . S
C92 H106 0.950 . S
C93 C90 1.481 . S
C93 C94 1.297 . S
C93 H107 0.950 . S
C94 C93 1.297 . S
C94 C95 1.479 . S
C94 H108 0.950 . S
C95 C94 1.479 . S
C95 C96 1.375 . S
C95 C101 1.404 . S
C96 C95 1.375 . S
C96 C97 1.369 . S
C96 H109 0.950 . S
C97 C96 1.369 . S
C97 C98 1.392 . S
C97 H110 0.951 . S
C98 C97 1.392 . S
C98 C100 1.384 . S
H99 C101 0.949 . S
C100 C98 1.384 . S
C100 C101 1.385 . S
C100 H102 0.950 . S
C101 C95 1.404 . S
C101 H99 0.949 . S
C101 C100 1.385 . S
H102 C100 0.950 . S
H103 C87 0.951 . S
H104 C89 0.951 . S
H105 C91 0.951 . S
H106 C92 0.950 . S
H107 C93 0.950 . S
H108 C94 0.950 . S
H109 C96 0.950 . S
H110 C97 0.951 . S
C111 C112 1.386 . S
C111 C113 1.383 . S
C111 H127 0.951 . S
C112 C111 1.386 . S
C112 C116 1.383 . S
C113 C111 1.383 . S
C113 C114 1.402 . S
C113 H128 0.951 . S
C114 C113 1.402 . S
C114 C115 1.375 . S
C114 C117 1.481 . S
C115 C114 1.375 . S
C115 C116 1.367 . S
C115 H129 0.951 . S
C116 C112 1.383 . S
C116 C115 1.367 . S
C116 H130 0.950 . S
C117 C114 1.481 . S
C117 C118 1.297 . S
C117 H131 0.950 . S
C118 C117 1.297 . S
C118 C119 1.479 . S
C118 H132 0.950 . S
C119 C118 1.479 . S
C119 C120 1.375 . S
C119 C125 1.404 . S
C120 C119 1.375 . S
C120 C121 1.369 . S
C120 H133 0.950 . S
C121 C120 1.369 . S
C121 C122 1.392 . S
C121 H134 0.951 . S
C122 C121 1.392 . S
C122 C124 1.384 . S
H123 C125 0.949 . S
C124 C122 1.384 . S
C124 C125 1.385 . S
C124 H126 0.950 . S
C125 C119 1.404 . S
C125 H123 0.949 . S
C125 C124 1.385 . S
H126 C124 0.950 . S
H127 C111 0.951 . S
H128 C113 0.951 . S
H129 C115 0.951 . S
H130 C116 0.950 . S
H131 C117 0.950 . S
H132 C118 0.950 . S
H133 C120 0.950 . S
H134 C121 0.951 . S
C135 C136 1.386 . S
C135 C137 1.383 . S
C135 H151 0.951 . S
C136 C135 1.386 . S
C136 C140 1.383 . S
C137 C135 1.383 . S
C137 C138 1.402 . S
C137 H152 0.951 . S
C138 C137 1.402 . S
C138 C139 1.375 . S
C138 C141 1.481 . S
C139 C138 1.375 . S
C139 C140 1.367 . S
C139 H153 0.951 . S
C140 C136 1.383 . S
C140 C139 1.367 . S
C140 H154 0.950 . S
C141 C138 1.481 . S
C141 C142 1.297 . S
C141 H155 0.950 . S
C142 C141 1.297 . S
C142 C143 1.479 . S
C142 H156 0.950 . S
C143 C142 1.479 . S
C143 C144 1.375 . S
C143 C149 1.404 . S
C144 C143 1.375 . S
C144 C145 1.369 . S
C144 H157 0.950 . S
C145 C144 1.369 . S
C145 C146 1.392 . S
C145 H158 0.951 . S
C146 C145 1.392 . S
C146 C148 1.384 . S
H147 C149 0.949 . S
C148 C146 1.384 . S
C148 C149 1.385 . S
C148 H150 0.950 . S
C149 C143 1.404 . S
C149 H147 0.949 . S
C149 C148 1.385 . S
H150 C148 0.950 . S
H151 C135 0.951 . S
H152 C137 0.951 . S
H153 C139 0.951 . S
H154 C140 0.950 . S
H155 C141 0.950 . S
H156 C142 0.950 . S
H157 C144 0.950 . S
H158 C145 0.951 . S
C159 C160 1.386 . S
C159 C161 1.383 . S
C159 H175 0.951 . S
C160 C159 1.386 . S
C160 C164 1.383 . S
C161 C159 1.383 . S
C161 C162 1.402 . S
C161 H176 0.951 . S
C162 C161 1.402 . S
C162 C163 1.375 . S
C162 C165 1.481 . S
C163 C162 1.375 . S
C163 C164 1.367 . S
C163 H177 0.951 . S
C164 C160 1.383 . S
C164 C163 1.367 . S
C164 H178 0.950 . S
C165 C162 1.481 . S
C165 C166 1.297 . S
C165 H179 0.950 . S
C166 C165 1.297 . S
C166 C167 1.479 . S
C166 H180 0.950 . S
C167 C166 1.479 . S
C167 C168 1.375 . S
C167 C173 1.404 . S
C168 C167 1.375 . S
C168 C169 1.369 . S
C168 H181 0.950 . S
C169 C168 1.369 . S
C169 C170 1.392 . S
C169 H182 0.951 . S
C170 C169 1.392 . S
C170 C172 1.384 . S
H171 C173 0.949 . S
C172 C170 1.384 . S
C172 C173 1.385 . S
C172 H174 0.950 . S
C173 C167 1.404 . S
C173 H171 0.949 . S
C173 C172 1.385 . S
H174 C172 0.950 . S
H175 C159 0.951 . S
H176 C161 0.951 . S
H177 C163 0.951 . S
H178 C164 0.950 . S
H179 C165 0.950 . S
H180 C166 0.950 . S
H181 C168 0.950 . S
H182 C169 0.951 . S
C183 C184 1.386 . S
C183 C185 1.383 . S
C183 H199 0.951 . S
C184 C183 1.386 . S
C184 C188 1.383 . S
C185 C183 1.383 . S
C185 C186 1.402 . S
C185 H200 0.951 . S
C186 C185 1.402 . S
C186 C187 1.375 . S
C186 C189 1.481 . S
C187 C186 1.375 . S
C187 C188 1.367 . S
C187 H201 0.951 . S
C188 C184 1.383 . S
C188 C187 1.367 . S
C188 H202 0.950 . S
C189 C186 1.481 . S
C189 C190 1.297 . S
C189 H203 0.950 . S
C190 C189 1.297 . S
C190 C191 1.479 . S
C190 H204 0.950 . S
C191 C190 1.479 . S
C191 C192 1.375 . S
C191 C197 1.404 . S
C192 C191 1.375 . S
C192 C193 1.369 . S
C192 H205 0.950 . S
C193 C192 1.369 . S
C193 C194 1.392 . S
C193 H206 0.951 . S
C194 C193 1.392 . S
C194 C196 1.384 . S
H195 C197 0.949 . S
C196 C194 1.384 . S
C196 C197 1.385 . S
C196 H198 0.950 . S
C197 C191 1.404 . S
C197 H195 0.949 . S
C197 C196 1.385 . S
H198 C196 0.950 . S
H199 C183 0.951 . S
H200 C185 0.951 . S
H201 C187 0.951 . S
H202 C188 0.950 . S
H203 C189 0.950 . S
H204 C190 0.950 . S
H205 C192 0.950 . S
H206 C193 0.951 . S
C207 C208 1.386 . S
C207 C209 1.383 . S
C207 H223 0.951 . S
C208 C207 1.386 . S
C208 C212 1.383 . S
C209 C207 1.383 . S
C209 C210 1.402 . S
C209 H224 0.951 . S
C210 C209 1.402 . S
C210 C211 1.375 . S
C210 C213 1.481 . S
C211 C210 1.375 . S
C211 C212 1.367 . S
C211 H225 0.951 . S
C212 C208 1.383 . S
C212 C211 1.367 . S
C212 H226 0.950 . S
C213 C210 1.481 . S
C213 C214 1.297 . S
C213 H227 0.950 . S
C214 C213 1.297 . S
C214 C215 1.479 . S
C214 H228 0.950 . S
C215 C214 1.479 . S
C215 C216 1.375 . S
C215 C221 1.404 . S
C216 C215 1.375 . S
C216 C217 1.369 . S
C216 H229 0.950 . S
C217 C216 1.369 . S
C217 C218 1.392 . S
C217 H230 0.951 . S
C218 C217 1.392 . S
C218 C220 1.384 . S
H219 C221 0.949 . S
C220 C218 1.384 . S
C220 C221 1.385 . S
C220 H222 0.950 . S
C221 C215 1.404 . S
C221 H219 0.949 . S
C221 C220 1.385 . S
H222 C220 0.950 . S
H223 C207 0.951 . S
H224 C209 0.951 . S
H225 C211 0.951 . S
H226 C212 0.950 . S
H227 C213 0.950 . S
H228 C214 0.950 . S
H229 C216 0.950 . S
H230 C217 0.951 . S
C231 C232 1.386 . S
C231 C233 1.383 . S
C231 H247 0.951 . S
C232 C231 1.386 . S
C232 C236 1.383 . S
C233 C231 1.383 . S
C233 C234 1.402 . S
C233 H248 0.951 . S
C234 C233 1.402 . S
C234 C235 1.375 . S
C234 C237 1.481 . S
C235 C234 1.375 . S
C235 C236 1.367 . S
C235 H249 0.951 . S
C236 C232 1.383 . S
C236 C235 1.367 . S
C236 H250 0.950 . S
C237 C234 1.481 . S
C237 C238 1.297 . S
C237 H251 0.950 . S
C238 C237 1.297 . S
C238 C239 1.479 . S
C238 H252 0.950 . S
C239 C238 1.479 . S
C239 C240 1.375 . S
C239 C245 1.404 . S
C240 C239 1.375 . S
C240 C241 1.369 . S
C240 H253 0.950 . S
C241 C240 1.369 . S
C241 C242 1.392 . S
C241 H254 0.951 . S
C242 C241 1.392 . S
C242 C244 1.384 . S
H243 C245 0.949 . S
C244 C242 1.384 . S
C244 C245 1.385 . S
C244 H246 0.950 . S
C245 C239 1.404 . S
C245 H243 0.949 . S
C245 C244 1.385 . S
H246 C244 0.950 . S
H247 C231 0.951 . S
H248 C233 0.951 . S
H249 C235 0.951 . S
H250 C236 0.950 . S
H251 C237 0.950 . S
H252 C238 0.950 . S
H253 C240 0.950 . S
H254 C241 0.951 . S
C64 C23 1.268 . S
C74 C42 1.249 . S
C88 C24 1.629 . S
C98 C34 1.643 . S
C112 C8 1.343 . S
C122 C51 1.268 . S
C136 C22 1.523 . S
C146 C52 1.545 . S
C160 C17 1.575 . S
C170 C61 1.644 . S
C194 C62 1.240 . S
C184 C27 1.260 . S
C208 C30 1.538 . S
C218 C33 1.505 . S
C242 C32 1.331 . S
C232 C31 1.360 . S
