# Generated by pormake.
# Topology bcu-b, (8,8)-cn, num edge types: 1
# Building blocks:
#     Node 0, Type 0, BuildingBlock: TAGTUT_clean_sbu_3, # of connection points: 8
#     Node 1, Type 1, BuildingBlock: GIZVER_clean_sbu_0, # of connection points: 8
#     Edge 2, Type (0, 1), BuildingBlock: EYOCIG_clean_linker_4, # of connection points: 2
#     Edge 3, Type (0, 1), BuildingBlock: EYOCIG_clean_linker_4, # of connection points: 2
#     Edge 4, Type (0, 1), BuildingBlock: EYOCIG_clean_linker_4, # of connection points: 2
#     Edge 5, Type (0, 1), BuildingBlock: EYOCIG_clean_linker_4, # of connection points: 2
#     Edge 6, Type (0, 1), BuildingBlock: EYOCIG_clean_linker_4, # of connection points: 2
#     Edge 7, Type (0, 1), BuildingBlock: EYOCIG_clean_linker_4, # of connection points: 2
#     Edge 8, Type (0, 1), BuildingBlock: EYOCIG_clean_linker_4, # of connection points: 2
#     Edge 9, Type (0, 1), BuildingBlock: EYOCIG_clean_linker_4, # of connection points: 2
# Relax obj value: 0.085
# Max RMSD: 0.157
# Mean RMSD: 0.153
data_MOF--net-bcu-b--node1-TAGTUT_clean_sbu_3--node2-GIZVER_clean_sbu_0--edge1-EYOCIG_clean_linker_4
_symmetry_space_group_name_H-M    P1
_symmetry_Int_Tables_number       1
_symmetry_cell_setting            triclinic
loop_
_symmetry_equiv_pos_as_xyz
'x, y, z'
_cell_length_a     17.367547
_cell_length_b     19.034378
_cell_length_c     14.448668
_cell_angle_alpha  89.948726
_cell_angle_beta   91.489761
_cell_angle_gamma 111.56159
loop_
_atom_site_label
_atom_site_type_symbol
_atom_site_fract_x
_atom_site_fract_y
_atom_site_fract_z
_atom_type_partial_charge
C0 C 0.13766 0.13186 0.1231 0.0
C1 C 0.19619 0.88637 0.13974 0.0
C2 C 0.13156 0.85759 0.85074 0.0
Mg3 Mg 0.99665 0.17074 -0.00019 0.0
Mg4 Mg 0.81777 0.03204 0.95698 0.0
O5 O 0.93319 0.06862 0.94636 0.0
Mg6 Mg -0.00072 0.00921 -0.00746 0.0
O7 O 0.0707 0.95545 0.039 0.0
Mg8 Mg 0.18026 0.01471 0.98638 0.0
Mg9 Mg 0.03346 0.85074 0.02465 0.0
C10 C 0.8461 0.89179 0.86839 0.0
O11 O 0.90464 0.94112 0.09934 0.0
O12 O 0.92124 0.21245 0.89015 0.0
O13 O 0.91142 0.82552 0.07835 0.0
O14 O 0.89821 0.16444 0.10777 0.0
O15 O 0.80384 0.1114 0.8603 0.0
O16 O 0.78257 0.0624 0.09057 0.0
O17 O 0.10336 0.06724 0.88879 0.0
O18 O 0.09131 0.17991 0.89222 0.0
C19 C 0.12368 0.13521 0.86048 0.0
C20 C 0.85219 0.17929 0.84528 0.0
O21 O 0.92406 0.91742 0.88866 0.0
O22 O 0.23008 0.94923 0.0967 0.0
O23 O 0.79513 0.92067 0.89853 0.0
O24 O 0.1763 0.92436 0.8774 0.0
O25 O 0.12223 0.84038 0.12263 0.0
O26 O 0.06496 0.81906 0.89106 0.0
O27 O 0.06248 0.10729 0.0937 0.0
O28 O 0.1896 0.10428 0.09474 0.0
C29 C 0.82551 0.12383 0.13277 0.0
C30 C 0.88013 0.86981 0.11531 0.0
Co31 Co 0.56938 0.3671 0.42793 0.0
Co32 Co 0.56591 0.39439 0.59803 0.0
Co33 Co 0.49696 0.50675 0.49271 0.0
O34 O 0.58013 0.45648 0.49798 0.0
H35 H 0.63631 0.49286 0.49887 0.0
O36 O 0.4138 0.55695 0.48659 0.0
Co37 Co 0.42067 0.64354 0.55952 0.0
Co38 Co 0.42585 0.61977 0.38773 0.0
H39 H 0.35795 0.51995 0.48468 0.0
O40 O 0.6554 0.39304 0.65985 0.0
O41 O 0.57953 0.31347 0.54459 0.0
O42 O 0.46224 0.35633 0.65149 0.0
O43 O 0.41216 0.43344 0.57683 0.0
O44 O 0.55868 0.57262 0.59821 0.0
O45 O 0.41661 0.72012 0.62841 0.0
O46 O 0.30983 0.62076 0.56947 0.0
O47 O 0.53896 0.6786 0.56119 0.0
O48 O 0.58103 0.5803 0.40851 0.0
O49 O 0.52855 0.65454 0.33078 0.0
O50 O 0.42015 0.70285 0.44584 0.0
O51 O 0.33697 0.63049 0.33031 0.0
C52 C 0.6472 0.32196 0.36698 0.0
C53 C 0.40858 0.36821 0.39411 0.0
C54 C 0.40374 0.37783 0.63051 0.0
C55 C 0.64008 0.33403 0.607 0.0
C56 C 0.33733 0.68377 0.61719 0.0
C57 C 0.5834 0.64447 0.59627 0.0
C58 C 0.58782 0.63413 0.35244 0.0
C59 C 0.3619 0.69085 0.38213 0.0
O60 O 0.56745 0.28742 0.36218 0.0
O61 O 0.67938 0.38741 0.40945 0.0
O62 O 0.43549 0.44006 0.38785 0.0
O63 O 0.45115 0.33401 0.43383 0.0
C64 C 0.20581 0.23414 0.25119 0.0
C65 C 0.1657 0.18874 0.19383 0.0
C66 C 0.26874 0.28414 0.30892 0.0
C67 C 0.33226 0.32401 0.34715 0.0
C68 C 0.76034 0.19496 0.24612 0.0
C69 C 0.78552 0.15852 0.19461 0.0
C70 C 0.72969 0.24406 0.294 0.0
C71 C 0.69794 0.2841 0.3292 0.0
C72 C 0.77875 0.79391 0.24072 0.0
C73 C 0.82283 0.83724 0.18659 0.0
C74 C 0.72437 0.73324 0.29062 0.0
C75 C 0.66783 0.68274 0.32365 0.0
C76 C 0.27154 0.83628 0.26889 0.0
C77 C 0.24236 0.86411 0.20952 0.0
C78 C 0.30416 0.79311 0.32531 0.0
C79 C 0.33403 0.75031 0.35727 0.0
C80 C 0.19749 0.78687 0.7375 0.0
C81 C 0.16747 0.81919 0.78915 0.0
C82 C 0.23985 0.74745 0.68962 0.0
C83 C 0.28108 0.71567 0.65501 0.0
C84 C 0.21649 0.20794 0.72838 0.0
C85 C 0.17717 0.16332 0.78455 0.0
C86 C 0.26731 0.27298 0.68214 0.0
C87 C 0.3228 0.32705 0.65366 0.0
C88 C 0.78995 0.24074 0.71567 0.0
C89 C 0.82502 0.21888 0.77541 0.0
C90 C 0.73687 0.26343 0.65812 0.0
C91 C 0.68812 0.28852 0.62537 0.0
C92 C 0.77654 0.78375 0.74654 0.0
C93 C 0.8145 0.83231 0.80141 0.0
C94 C 0.71821 0.73067 0.68756 0.0
C95 C 0.65749 0.68857 0.64685 0.0
loop_
_geom_bond_atom_site_label_1
_geom_bond_atom_site_label_2
_geom_bond_distance
_geom_bond_site_symmetry_2
_ccdc_geom_bond_type
C0 O27 1.312 . S
C0 O28 1.208 . S
C1 O22 1.331 . S
C1 O25 1.244 . S
C2 O24 1.264 . S
C2 O26 1.273 . S
Mg3 O5 1.936 . S
Mg3 O12 2.083 . S
Mg3 O14 2.026 1_556 S
Mg3 O18 2.028 1_655 S
Mg3 O27 2.289 1_656 S
Mg4 O5 1.963 . S
Mg4 O15 1.942 . S
Mg4 O16 1.955 1_556 S
Mg4 O23 1.986 1_545 S
O5 Mg3 1.936 . S
O5 Mg4 1.963 . S
O5 Mg6 1.913 1_556 S
Mg6 O5 1.913 1_554 S
Mg6 O7 1.917 1_645 S
Mg6 O11 2.019 1_545 S
Mg6 O17 2.109 1_654 S
Mg6 O21 2.006 1_544 S
Mg6 O27 2.119 1_655 S
O7 Mg6 1.917 1_465 S
O7 Mg8 1.936 1_565 S
O7 Mg9 1.963 . S
Mg8 O7 1.936 1_545 S
Mg8 O17 2.291 1_554 S
Mg8 O22 2.081 1_545 S
Mg8 O24 2.023 1_544 S
Mg8 O28 2.031 . S
Mg9 O7 1.963 . S
Mg9 O13 1.986 1_455 S
Mg9 O25 1.942 . S
Mg9 O26 1.955 1_554 S
C10 O21 1.191 . S
C10 O23 1.307 . S
O11 Mg6 2.019 1_565 S
O11 C30 1.191 . S
O12 Mg3 2.083 . S
O12 C20 1.331 . S
O13 Mg9 1.986 1_655 S
O13 C30 1.307 . S
O14 Mg3 2.026 1_554 S
O14 C29 1.264 . S
O15 Mg4 1.942 . S
O15 C20 1.244 . S
O16 Mg4 1.955 1_554 S
O16 C29 1.273 . S
O17 Mg6 2.109 1_456 S
O17 Mg8 2.291 1_556 S
O17 C19 1.312 . S
O18 Mg3 2.028 1_455 S
O18 C19 1.208 . S
C19 O17 1.312 . S
C19 O18 1.208 . S
C20 O12 1.331 . S
C20 O15 1.244 . S
O21 Mg6 2.006 1_566 S
O21 C10 1.191 . S
O22 C1 1.331 . S
O22 Mg8 2.081 1_565 S
O23 Mg4 1.986 1_565 S
O23 C10 1.307 . S
O24 C2 1.264 . S
O24 Mg8 2.023 1_566 S
O25 C1 1.244 . S
O25 Mg9 1.942 . S
O26 C2 1.273 . S
O26 Mg9 1.955 1_556 S
O27 C0 1.312 . S
O27 Mg3 2.289 1_454 S
O27 Mg6 2.119 1_455 S
O28 C0 1.208 . S
O28 Mg8 2.031 . S
C29 O14 1.264 . S
C29 O16 1.273 . S
C30 O11 1.191 . S
C30 O13 1.307 . S
Co31 O34 2.042 . S
Co31 O41 2.264 . S
Co31 O60 2.286 . S
Co31 O61 2.069 . S
Co31 O63 2.015 . S
Co32 O34 2.122 . S
Co32 O40 2.073 . S
Co32 O41 2.327 . S
Co32 O42 1.976 . S
Co33 O34 2.087 . S
Co33 O36 2.087 . S
Co33 O43 2.111 . S
Co33 O44 2.143 . S
Co33 O48 2.111 . S
Co33 O62 2.143 . S
O34 Co31 2.042 . S
O34 Co32 2.122 . S
O34 Co33 2.087 . S
O34 H35 0.980 . S
H35 O34 0.980 . S
O36 Co33 2.087 . S
O36 Co37 2.042 . S
O36 Co38 2.122 . S
O36 H39 0.980 . S
Co37 O36 2.042 . S
Co37 O45 2.286 . S
Co37 O46 2.069 . S
Co37 O47 2.015 . S
Co37 O50 2.264 . S
Co38 O36 2.122 . S
Co38 O49 1.976 . S
Co38 O50 2.327 . S
Co38 O51 2.073 . S
H39 O36 0.980 . S
O40 Co32 2.073 . S
O40 C55 1.245 . S
O41 Co31 2.264 . S
O41 Co32 2.327 . S
O41 C55 1.257 . S
O42 Co32 1.976 . S
O42 C54 1.251 . S
O43 Co33 2.111 . S
O43 C54 1.274 . S
O44 Co33 2.143 . S
O44 C57 1.246 . S
O45 Co37 2.286 . S
O45 C56 1.259 . S
O46 Co37 2.069 . S
O46 C56 1.289 . S
O47 Co37 2.015 . S
O47 C57 1.257 . S
O48 Co33 2.111 . S
O48 C58 1.274 . S
O49 Co38 1.976 . S
O49 C58 1.251 . S
O50 Co37 2.264 . S
O50 Co38 2.327 . S
O50 C59 1.257 . S
O51 Co38 2.073 . S
O51 C59 1.245 . S
C52 O60 1.259 . S
C52 O61 1.289 . S
C53 O62 1.246 . S
C53 O63 1.257 . S
C54 O42 1.251 . S
C54 O43 1.274 . S
C55 O40 1.245 . S
C55 O41 1.257 . S
C56 O45 1.259 . S
C56 O46 1.289 . S
C57 O44 1.246 . S
C57 O47 1.257 . S
C58 O48 1.274 . S
C58 O49 1.251 . S
C59 O50 1.257 . S
C59 O51 1.245 . S
O60 Co31 2.286 . S
O60 C52 1.259 . S
O61 Co31 2.069 . S
O61 C52 1.289 . S
O62 Co33 2.143 . S
O62 C53 1.246 . S
O63 Co31 2.015 . S
O63 C53 1.257 . S
C64 C65 1.170 . S
C64 C66 1.380 . S
C65 C64 1.170 . S
C66 C64 1.380 . S
C66 C67 1.170 . S
C67 C66 1.170 . S
C68 C69 1.170 . S
C68 C70 1.380 . S
C69 C68 1.170 . S
C70 C68 1.380 . S
C70 C71 1.170 . S
C71 C70 1.170 . S
C72 C73 1.170 . S
C72 C74 1.380 . S
C73 C72 1.170 . S
C74 C72 1.380 . S
C74 C75 1.170 . S
C75 C74 1.170 . S
C76 C77 1.170 . S
C76 C78 1.380 . S
C77 C76 1.170 . S
C78 C76 1.380 . S
C78 C79 1.170 . S
C79 C78 1.170 . S
C80 C81 1.170 . S
C80 C82 1.380 . S
C81 C80 1.170 . S
C82 C80 1.380 . S
C82 C83 1.170 . S
C83 C82 1.170 . S
C84 C85 1.170 . S
C84 C86 1.380 . S
C85 C84 1.170 . S
C86 C84 1.380 . S
C86 C87 1.170 . S
C87 C86 1.170 . S
C88 C89 1.170 . S
C88 C90 1.380 . S
C89 C88 1.170 . S
C90 C88 1.380 . S
C90 C91 1.170 . S
C91 C90 1.170 . S
C92 C93 1.170 . S
C92 C94 1.380 . S
C93 C92 1.170 . S
C94 C92 1.380 . S
C94 C95 1.170 . S
C95 C94 1.170 . S
C65 C0 1.434 . S
C67 C53 1.454 . S
C69 C29 1.618 . S
C71 C52 1.663 . S
C73 C30 1.364 . S
C75 C58 1.322 . S
C77 C1 1.519 . S
C79 C59 1.465 . S
C81 C2 1.630 . S
C83 C56 1.668 . S
C87 C54 1.394 . S
C85 C19 1.391 . S
C89 C20 1.475 . S
C91 C55 1.442 . S
C95 C57 1.415 . S
C93 C10 1.414 . S
