# Generated by pormake.
# Topology bcu-b, (8,8)-cn, num edge types: 1
# Building blocks:
#     Node 0, Type 0, BuildingBlock: TAGTUT_clean_sbu_3, # of connection points: 8
#     Node 1, Type 1, BuildingBlock: VETTIZ_charged_sbu_0, # of connection points: 8
#     Edge 2, Type (0, 1), BuildingBlock: EZIPEK_clean_linker_0, # of connection points: 2
#     Edge 3, Type (0, 1), BuildingBlock: EZIPEK_clean_linker_0, # of connection points: 2
#     Edge 4, Type (0, 1), BuildingBlock: EZIPEK_clean_linker_0, # of connection points: 2
#     Edge 5, Type (0, 1), BuildingBlock: EZIPEK_clean_linker_0, # of connection points: 2
#     Edge 6, Type (0, 1), BuildingBlock: EZIPEK_clean_linker_0, # of connection points: 2
#     Edge 7, Type (0, 1), BuildingBlock: EZIPEK_clean_linker_0, # of connection points: 2
#     Edge 8, Type (0, 1), BuildingBlock: EZIPEK_clean_linker_0, # of connection points: 2
#     Edge 9, Type (0, 1), BuildingBlock: EZIPEK_clean_linker_0, # of connection points: 2
# Relax obj value: 0.019
# Max RMSD: 0.095
# Mean RMSD: 0.076
data_MOF--net-bcu-b--node1-TAGTUT_clean_sbu_3--node2-VETTIZ_charged_sbu_0--edge1-EZIPEK_clean_linker_0
_symmetry_space_group_name_H-M    P1
_symmetry_Int_Tables_number       1
_symmetry_cell_setting            triclinic
loop_
_symmetry_equiv_pos_as_xyz
'x, y, z'
_cell_length_a     14.52511
_cell_length_b     15.804427
_cell_length_c     15.888515
_cell_angle_alpha  90.180145
_cell_angle_beta   90.382547
_cell_angle_gamma 101.58169
loop_
_atom_site_label
_atom_site_type_symbol
_atom_site_fract_x
_atom_site_fract_y
_atom_site_fract_z
_atom_type_partial_charge
C0 C 0.18782 0.10163 0.11505 0.0
C1 C 0.24512 0.77745 0.11048 0.0
C2 C 0.17947 0.79088 0.85085 0.0
Mg3 Mg 0.02862 0.18194 0.00221 0.0
Mg4 Mg 0.82846 0.05433 0.95418 0.0
O5 O 0.95956 0.07395 0.94736 0.0
Mg6 Mg 0.02956 -0.01433 -0.01003 0.0
O7 O 0.1061 0.90259 0.03322 0.0
Mg8 Mg 0.23412 0.95317 -0.00954 0.0
Mg9 Mg 0.06277 0.78459 0.01117 0.0
C10 C 0.85732 0.88177 0.86531 0.0
O11 O 0.91354 0.92009 0.08062 0.0
O12 O 0.9414 0.25542 0.911 0.0
O13 O 0.92748 0.78011 0.07124 0.0
O14 O 0.9167 0.18287 0.10473 0.0
O15 O 0.80968 0.15865 0.87764 0.0
O16 O 0.78597 0.08457 0.07908 0.0
O17 O 0.15489 0.04054 0.90643 0.0
O18 O 0.13625 0.1769 0.89967 0.0
C19 C 0.17885 0.11716 0.87693 0.0
C20 C 0.86273 0.23303 0.87068 0.0
O21 O 0.94362 0.89077 0.89063 0.0
O22 O 0.28646 0.85088 0.07956 0.0
O23 O 0.80312 0.93231 0.88854 0.0
O24 O 0.22785 0.85902 0.88355 0.0
O25 O 0.16023 0.74239 0.09235 0.0
O26 O 0.10282 0.75142 0.88418 0.0
O27 O 0.10503 0.09068 0.0822 0.0
O28 O 0.24239 0.05022 0.09731 0.0
C29 C 0.83342 0.14502 0.12444 0.0
C30 C 0.8869 0.83964 0.09961 0.0
Fe31 Fe 0.5273 0.5841 0.48838 0.0
O32 O 0.45087 0.47789 0.53997 0.0
Fe33 Fe 0.74207 0.52434 0.45119 0.0
Fe34 Fe 0.31236 0.45244 0.52698 0.0
O35 O 0.60489 0.50221 0.44549 0.0
O36 O 0.60384 0.4932 0.44346 0.0
O37 O 0.45085 0.46809 0.54005 0.0
Fe38 Fe 0.5258 0.38557 0.4913 0.0
C39 C 0.36517 0.6296 0.5995 0.0
O40 O 0.44998 0.56383 0.38023 0.0
O41 O 0.30835 0.5472 0.43499 0.0
O42 O 0.61324 0.3148 0.42913 0.0
O43 O 0.729 0.41967 0.37002 0.0
O44 O 0.72701 0.61687 0.3641 0.0
O45 O 0.61526 0.68414 0.4228 0.0
O46 O 0.30031 0.36224 0.43441 0.0
O47 O 0.44284 0.36504 0.38386 0.0
C48 C 0.67971 0.67826 0.3677 0.0
O49 O 0.61088 0.39411 0.59775 0.0
O50 O 0.75403 0.43906 0.5446 0.0
O51 O 0.43333 0.65472 0.54612 0.0
O52 O 0.32381 0.55038 0.61196 0.0
C53 C 0.36655 0.57492 0.37672 0.0
C54 C 0.35379 0.34072 0.37942 0.0
C55 C 0.36598 0.28956 0.60464 0.0
O56 O 0.3202 0.35243 0.60916 0.0
O57 O 0.43412 0.28518 0.5527 0.0
C58 C 0.6816 0.34064 0.37648 0.0
O59 O 0.75157 0.6192 0.54349 0.0
O60 O 0.60796 0.61195 0.59438 0.0
C61 C 0.70013 0.40122 0.60135 0.0
C62 C 0.69638 0.63845 0.59954 0.0
C63 C 0.3126 0.22758 0.16611 0.0
C64 C 0.22319 0.17155 0.17738 0.0
C65 C 0.22586 0.21916 0.32413 0.0
C66 C 0.30831 0.28368 0.30916 0.0
N67 N 0.40996 0.3647 0.20479 0.0
N68 N 0.08614 0.12894 0.26537 0.0
C69 C 0.34562 0.29279 0.22682 0.0
C70 C 0.17623 0.17348 0.25512 0.0
N71 N 0.36861 0.21765 0.0996 0.0
N72 N 0.19848 0.19547 0.40429 0.0
H73 H 0.04781 0.09025 0.21906 0.0
H74 H 0.04645 0.13667 0.31827 0.0
H75 H 0.23618 0.21995 0.45779 0.0
H76 H 0.14479 0.14289 0.41757 0.0
H77 H 0.43777 0.25168 0.09491 0.0
H78 H 0.3504 0.17062 0.05328 0.0
H79 H 0.43269 0.37667 0.14305 0.0
H80 H 0.43137 0.41724 0.24506 0.0
C81 C 0.7625 0.26954 0.16939 0.0
C82 C 0.78385 0.18774 0.18839 0.0
C83 C 0.72452 0.19776 0.33181 0.0
C84 C 0.70225 0.27906 0.31145 0.0
N85 N 0.66461 0.37186 0.20179 0.0
N86 N 0.76324 0.06444 0.27976 0.0
C87 C 0.71003 0.30834 0.22724 0.0
C88 C 0.75731 0.14849 0.26703 0.0
N89 N 0.79405 0.31191 0.09709 0.0
N90 N 0.71877 0.16914 0.41296 0.0
H91 H 0.78902 0.02785 0.23421 0.0
H92 H 0.73461 0.02932 0.33194 0.0
H93 H 0.69186 0.20089 0.46159 0.0
H94 H 0.74546 0.11608 0.43296 0.0
H95 H 0.78937 0.37585 0.08576 0.0
H96 H 0.83116 0.28616 0.05108 0.0
H97 H 0.66061 0.38997 0.13905 0.0
H98 H 0.62152 0.39894 0.24179 0.0
C99 C 0.82638 0.85233 0.24676 0.0
C100 C 0.81351 0.81395 0.16474 0.0
C101 C 0.67726 0.70919 0.21607 0.0
C102 C 0.69822 0.74122 0.2983 0.0
N103 N 0.76193 0.86095 0.38692 0.0
N104 N 0.72846 0.70272 0.07218 0.0
C105 C 0.76244 0.8193 0.31168 0.0
C106 C 0.7378 0.74271 0.14905 0.0
N107 N 0.90488 0.91344 0.26548 0.0
N108 N 0.59928 0.64584 0.20337 0.0
H109 H 0.77207 0.72391 0.0217 0.0
H110 H 0.68151 0.64523 0.05913 0.0
H111 H 0.55484 0.62172 0.25278 0.0
H112 H 0.57365 0.6232 0.14446 0.0
H113 H 0.92248 0.93659 0.32608 0.0
H114 H 0.95772 0.93621 0.22255 0.0
H115 H 0.80387 0.92093 0.40075 0.0
H116 H 0.71117 0.83883 0.43223 0.0
C117 C 0.28231 0.63889 0.16289 0.0
C118 C 0.29268 0.72992 0.1725 0.0
C119 C 0.3671 0.71996 0.3097 0.0
C120 C 0.34053 0.6282 0.30661 0.0
N121 N 0.26302 0.50024 0.2324 0.0
N122 N 0.33035 0.85498 0.26411 0.0
C123 C 0.29528 0.58757 0.23369 0.0
C124 C 0.33186 0.77024 0.24801 0.0
N125 N 0.26187 0.60174 0.08546 0.0
N126 N 0.4273 0.75977 0.37046 0.0
H127 H 0.30318 0.89458 0.22247 0.0
H128 H 0.34814 0.88388 0.32263 0.0
H129 H 0.45631 0.72577 0.41564 0.0
H130 H 0.45636 0.82568 0.37001 0.0
H131 H 0.26178 0.53697 0.07299 0.0
H132 H 0.25505 0.63784 0.03174 0.0
H133 H 0.22151 0.46803 0.18386 0.0
H134 H 0.27086 0.46097 0.28342 0.0
C135 C 0.18312 0.73589 0.70118 0.0
C136 C 0.22551 0.75155 0.78185 0.0
C137 C 0.3731 0.72159 0.72617 0.0
C138 C 0.3271 0.69333 0.64999 0.0
N139 N 0.19002 0.67544 0.56098 0.0
N140 N 0.35577 0.74234 0.87512 0.0
C141 C 0.23256 0.7018 0.63612 0.0
C142 C 0.31948 0.74042 0.79529 0.0
N143 N 0.09694 0.75515 0.6865 0.0
N144 N 0.4682 0.72989 0.73255 0.0
H145 H 0.31727 0.75059 0.92859 0.0
H146 H 0.42026 0.72615 0.88905 0.0
H147 H 0.50888 0.71732 0.68197 0.0
H148 H 0.50706 0.75875 0.78406 0.0
H149 H 0.06584 0.75357 0.62716 0.0
H150 H 0.05834 0.77741 0.73374 0.0
H151 H 0.11837 0.66937 0.54943 0.0
H152 H 0.22735 0.65772 0.51024 0.0
C153 C 0.25048 0.09754 0.73482 0.0
C154 C 0.25509 0.1413 0.81399 0.0
C155 C 0.3718 0.26061 0.75652 0.0
C156 C 0.34908 0.22731 0.67496 0.0
N157 N 0.28358 0.10875 0.58439 0.0
N158 N 0.32534 0.26333 0.90149 0.0
C159 C 0.29503 0.14306 0.66361 0.0
C160 C 0.31955 0.22134 0.8257 0.0
N161 N 0.202 0.01428 0.72704 0.0
N162 N 0.44206 0.33164 0.76689 0.0
H163 H 0.28878 0.23698 0.95426 0.0
H164 H 0.36115 0.32661 0.91113 0.0
H165 H 0.47953 0.36242 0.71608 0.0
H166 H 0.46891 0.3549 0.82527 0.0
H167 H 0.20133 0.97703 0.67288 0.0
H168 H 0.16763 0.97895 0.77665 0.0
H169 H 0.23595 0.05256 0.56835 0.0
H170 H 0.32266 0.13808 0.53374 0.0
C171 C 0.87288 0.29585 0.72681 0.0
C172 C 0.83248 0.2908 0.80789 0.0
C173 C 0.71549 0.37066 0.7571 0.0
C174 C 0.74538 0.36307 0.673 0.0
N175 N 0.84247 0.29888 0.57767 0.0
N176 N 0.70206 0.30799 0.89557 0.0
C177 C 0.82208 0.32105 0.65766 0.0
C178 C 0.75005 0.32386 0.82183 0.0
N179 N 0.95818 0.27377 0.715 0.0
N180 N 0.65713 0.42515 0.77642 0.0
H181 H 0.72362 0.27247 0.94424 0.0
H182 H 0.63622 0.32316 0.90489 0.0
H183 H 0.63164 0.46143 0.73099 0.0
H184 H 0.64191 0.44018 0.83808 0.0
H185 H 0.99504 0.28463 0.65871 0.0
H186 H 0.99616 0.25224 0.76356 0.0
H187 H 0.89106 0.26041 0.56444 0.0
H188 H 0.80366 0.30955 0.52495 0.0
C189 C 0.73422 0.75603 0.81421 0.0
C190 C 0.81916 0.81635 0.7997 0.0
C191 C 0.81229 0.77116 0.65116 0.0
C192 C 0.73628 0.70088 0.66887 0.0
N193 N 0.62929 0.62467 0.7739 0.0
N194 N 0.9399 0.88248 0.70293 0.0
C195 C 0.69863 0.69279 0.7521 0.0
C196 C 0.85931 0.82309 0.71814 0.0
N197 N 0.68382 0.76122 0.88586 0.0
N198 N 0.8342 0.79407 0.56965 0.0
H199 H 0.9717 0.92871 0.74652 0.0
H200 H 0.97898 0.88287 0.64817 0.0
H201 H 0.79694 0.76413 0.51806 0.0
H202 H 0.88133 0.84992 0.55251 0.0
H203 H 0.61567 0.72649 0.89474 0.0
H204 H 0.70591 0.80502 0.93438 0.0
H205 H 0.61335 0.60777 0.83627 0.0
H206 H 0.58886 0.58278 0.73165 0.0
loop_
_geom_bond_atom_site_label_1
_geom_bond_atom_site_label_2
_geom_bond_distance
_geom_bond_site_symmetry_2
_ccdc_geom_bond_type
C0 O27 1.312 . S
C0 O28 1.208 . S
C1 O22 1.331 . S
C1 O25 1.244 . S
C2 O24 1.264 . S
C2 O26 1.273 . S
Mg3 O5 1.936 . S
Mg3 O12 2.081 . S
Mg3 O14 2.023 1_556 S
Mg3 O18 2.031 1_655 S
Mg3 O27 2.291 1_656 S
Mg4 O5 1.963 . S
Mg4 O15 1.942 . S
Mg4 O16 1.955 1_556 S
Mg4 O23 1.986 1_545 S
O5 Mg3 1.936 . S
O5 Mg4 1.963 . S
O5 Mg6 1.916 1_656 S
Mg6 O5 1.916 1_454 S
Mg6 O7 1.916 1_545 S
Mg6 O11 2.005 1_445 S
Mg6 O17 2.123 1_554 S
Mg6 O21 2.005 1_444 S
Mg6 O27 2.123 . S
O7 Mg6 1.916 1_565 S
O7 Mg8 1.936 . S
O7 Mg9 1.963 . S
Mg8 O7 1.936 . S
Mg8 O17 2.291 1_564 S
Mg8 O22 2.081 . S
Mg8 O24 2.023 1_554 S
Mg8 O28 2.031 1_565 S
Mg9 O7 1.963 . S
Mg9 O13 1.986 1_455 S
Mg9 O25 1.942 . S
Mg9 O26 1.955 1_554 S
C10 O21 1.191 . S
C10 O23 1.307 . S
O11 Mg6 2.005 1_665 S
O11 C30 1.191 . S
O12 Mg3 2.081 . S
O12 C20 1.331 . S
O13 Mg9 1.986 1_655 S
O13 C30 1.307 . S
O14 Mg3 2.023 1_554 S
O14 C29 1.264 . S
O15 Mg4 1.942 . S
O15 C20 1.244 . S
O16 Mg4 1.955 1_554 S
O16 C29 1.273 . S
O17 Mg6 2.123 1_556 S
O17 Mg8 2.291 1_546 S
O17 C19 1.312 . S
O18 Mg3 2.031 1_455 S
O18 C19 1.208 . S
C19 O17 1.312 . S
C19 O18 1.208 . S
C20 O12 1.331 . S
C20 O15 1.244 . S
O21 Mg6 2.005 1_666 S
O21 C10 1.191 . S
O22 C1 1.331 . S
O22 Mg8 2.081 . S
O23 Mg4 1.986 1_565 S
O23 C10 1.307 . S
O24 C2 1.264 . S
O24 Mg8 2.023 1_556 S
O25 C1 1.244 . S
O25 Mg9 1.942 . S
O26 C2 1.273 . S
O26 Mg9 1.955 1_556 S
O27 C0 1.312 . S
O27 Mg3 2.291 1_454 S
O27 Mg6 2.123 . S
O28 C0 1.208 . S
O28 Mg8 2.031 1_545 S
C29 O14 1.264 . S
C29 O16 1.273 . S
C30 O11 1.191 . S
C30 O13 1.307 . S
Fe31 O32 1.886 . S
Fe31 O35 1.715 . S
Fe31 O40 2.077 . S
Fe31 O45 1.935 . S
Fe31 O51 2.077 . S
Fe31 O60 1.935 . S
O32 Fe31 1.886 . S
O32 Fe34 1.715 . S
Fe33 O35 1.886 . S
Fe33 O36 1.715 . S
Fe33 O43 1.935 . S
Fe33 O44 2.077 . S
Fe33 O50 1.935 . S
Fe33 O59 2.077 . S
Fe34 O32 1.715 . S
Fe34 O37 1.886 . S
Fe34 O41 1.935 . S
Fe34 O46 2.077 . S
Fe34 O52 1.935 . S
Fe34 O56 2.077 . S
O35 Fe31 1.715 . S
O35 Fe33 1.886 . S
O36 Fe33 1.715 . S
O36 Fe38 1.886 . S
O37 Fe34 1.886 . S
O37 Fe38 1.715 . S
Fe38 O36 1.886 . S
Fe38 O37 1.715 . S
Fe38 O42 2.077 . S
Fe38 O47 1.935 . S
Fe38 O49 2.077 . S
Fe38 O57 1.935 . S
C39 O51 1.381 . S
C39 O52 1.421 . S
O40 Fe31 2.077 . S
O40 C53 1.381 . S
O41 Fe34 1.935 . S
O41 C53 1.421 . S
O42 Fe38 2.077 . S
O42 C58 1.381 . S
O43 Fe33 1.935 . S
O43 C58 1.421 . S
O44 Fe33 2.077 . S
O44 C48 1.381 . S
O45 Fe31 1.935 . S
O45 C48 1.421 . S
O46 Fe34 2.077 . S
O46 C54 1.381 . S
O47 Fe38 1.935 . S
O47 C54 1.421 . S
C48 O44 1.381 . S
C48 O45 1.421 . S
O49 Fe38 2.077 . S
O49 C61 1.381 . S
O50 Fe33 1.935 . S
O50 C61 1.421 . S
O51 Fe31 2.077 . S
O51 C39 1.381 . S
O52 Fe34 1.935 . S
O52 C39 1.421 . S
C53 O40 1.381 . S
C53 O41 1.421 . S
C54 O46 1.381 . S
C54 O47 1.421 . S
C55 O56 1.381 . S
C55 O57 1.421 . S
O56 Fe34 2.077 . S
O56 C55 1.381 . S
O57 Fe38 1.935 . S
O57 C55 1.421 . S
C58 O42 1.381 . S
C58 O43 1.421 . S
O59 Fe33 2.077 . S
O59 C62 1.381 . S
O60 Fe31 1.935 . S
O60 C62 1.421 . S
C61 O49 1.381 . S
C61 O50 1.421 . S
C62 O59 1.381 . S
C62 O60 1.421 . S
C63 C64 1.363 . S
C63 C69 1.379 . S
C63 N71 1.356 . S
C64 C63 1.363 . S
C64 C70 1.363 . S
C65 C66 1.363 . S
C65 C70 1.379 . S
C65 N72 1.356 . S
C66 C65 1.363 . S
C66 C69 1.363 . S
N67 C69 1.356 . S
N67 H79 0.984 . S
N67 H80 0.985 . S
N68 C70 1.356 . S
N68 H73 0.984 . S
N68 H74 0.985 . S
C69 C63 1.379 . S
C69 C66 1.363 . S
C69 N67 1.356 . S
C70 C64 1.363 . S
C70 C65 1.379 . S
C70 N68 1.356 . S
N71 C63 1.356 . S
N71 H77 0.984 . S
N71 H78 0.984 . S
N72 C65 1.356 . S
N72 H75 0.984 . S
N72 H76 0.985 . S
H73 N68 0.984 . S
H74 N68 0.985 . S
H75 N72 0.984 . S
H76 N72 0.985 . S
H77 N71 0.984 . S
H78 N71 0.984 . S
H79 N67 0.984 . S
H80 N67 0.985 . S
C81 C82 1.363 . S
C81 C87 1.379 . S
C81 N89 1.356 . S
C82 C81 1.363 . S
C82 C88 1.363 . S
C83 C84 1.363 . S
C83 C88 1.379 . S
C83 N90 1.356 . S
C84 C83 1.363 . S
C84 C87 1.363 . S
N85 C87 1.356 . S
N85 H97 0.984 . S
N85 H98 0.985 . S
N86 C88 1.356 . S
N86 H91 0.984 . S
N86 H92 0.985 . S
C87 C81 1.379 . S
C87 C84 1.363 . S
C87 N85 1.356 . S
C88 C82 1.363 . S
C88 C83 1.379 . S
C88 N86 1.356 . S
N89 C81 1.356 . S
N89 H95 0.984 . S
N89 H96 0.984 . S
N90 C83 1.356 . S
N90 H93 0.984 . S
N90 H94 0.985 . S
H91 N86 0.984 . S
H92 N86 0.985 . S
H93 N90 0.984 . S
H94 N90 0.985 . S
H95 N89 0.984 . S
H96 N89 0.984 . S
H97 N85 0.984 . S
H98 N85 0.985 . S
C99 C100 1.363 . S
C99 C105 1.379 . S
C99 N107 1.356 . S
C100 C99 1.363 . S
C100 C106 1.363 . S
C101 C102 1.363 . S
C101 C106 1.379 . S
C101 N108 1.356 . S
C102 C101 1.363 . S
C102 C105 1.363 . S
N103 C105 1.356 . S
N103 H115 0.984 . S
N103 H116 0.985 . S
N104 C106 1.356 . S
N104 H109 0.984 . S
N104 H110 0.985 . S
C105 C99 1.379 . S
C105 C102 1.363 . S
C105 N103 1.356 . S
C106 C100 1.363 . S
C106 C101 1.379 . S
C106 N104 1.356 . S
N107 C99 1.356 . S
N107 H113 0.984 1_565 S
N107 H114 0.984 . S
N108 C101 1.356 . S
N108 H111 0.984 . S
N108 H112 0.985 . S
H109 N104 0.984 . S
H110 N104 0.985 . S
H111 N108 0.984 . S
H112 N108 0.985 . S
H113 N107 0.984 1_545 S
H114 N107 0.984 . S
H115 N103 0.984 . S
H116 N103 0.985 . S
C117 C118 1.363 . S
C117 C123 1.379 . S
C117 N125 1.356 . S
C118 C117 1.363 . S
C118 C124 1.363 . S
C119 C120 1.363 . S
C119 C124 1.379 . S
C119 N126 1.356 . S
C120 C119 1.363 . S
C120 C123 1.363 . S
N121 C123 1.356 . S
N121 H133 0.984 . S
N121 H134 0.985 . S
N122 C124 1.356 . S
N122 H127 0.984 . S
N122 H128 0.985 . S
C123 C117 1.379 . S
C123 C120 1.363 . S
C123 N121 1.356 . S
C124 C118 1.363 . S
C124 C119 1.379 . S
C124 N122 1.356 . S
N125 C117 1.356 . S
N125 H131 0.984 . S
N125 H132 0.984 . S
N126 C119 1.356 . S
N126 H129 0.984 . S
N126 H130 0.985 . S
H127 N122 0.984 . S
H128 N122 0.985 . S
H129 N126 0.984 . S
H130 N126 0.985 . S
H131 N125 0.984 . S
H132 N125 0.984 . S
H133 N121 0.984 . S
H134 N121 0.985 . S
C135 C136 1.363 . S
C135 C141 1.379 . S
C135 N143 1.356 . S
C136 C135 1.363 . S
C136 C142 1.363 . S
C137 C138 1.363 . S
C137 C142 1.379 . S
C137 N144 1.356 . S
C138 C137 1.363 . S
C138 C141 1.363 . S
N139 C141 1.356 . S
N139 H151 0.984 . S
N139 H152 0.985 . S
N140 C142 1.356 . S
N140 H145 0.984 . S
N140 H146 0.985 . S
C141 C135 1.379 . S
C141 C138 1.363 . S
C141 N139 1.356 . S
C142 C136 1.363 . S
C142 C137 1.379 . S
C142 N140 1.356 . S
N143 C135 1.356 . S
N143 H149 0.984 . S
N143 H150 0.984 . S
N144 C137 1.356 . S
N144 H147 0.984 . S
N144 H148 0.985 . S
H145 N140 0.984 . S
H146 N140 0.985 . S
H147 N144 0.984 . S
H148 N144 0.985 . S
H149 N143 0.984 . S
H150 N143 0.984 . S
H151 N139 0.984 . S
H152 N139 0.985 . S
C153 C154 1.363 . S
C153 C159 1.379 . S
C153 N161 1.356 . S
C154 C153 1.363 . S
C154 C160 1.363 . S
C155 C156 1.363 . S
C155 C160 1.379 . S
C155 N162 1.356 . S
C156 C155 1.363 . S
C156 C159 1.363 . S
N157 C159 1.356 . S
N157 H169 0.984 . S
N157 H170 0.985 . S
N158 C160 1.356 . S
N158 H163 0.984 . S
N158 H164 0.985 . S
C159 C153 1.379 . S
C159 C156 1.363 . S
C159 N157 1.356 . S
C160 C154 1.363 . S
C160 C155 1.379 . S
C160 N158 1.356 . S
N161 C153 1.356 . S
N161 H167 0.984 . S
N161 H168 0.984 . S
N162 C155 1.356 . S
N162 H165 0.984 . S
N162 H166 0.985 . S
H163 N158 0.984 . S
H164 N158 0.985 . S
H165 N162 0.984 . S
H166 N162 0.985 . S
H167 N161 0.984 . S
H168 N161 0.984 . S
H169 N157 0.984 . S
H170 N157 0.985 . S
C171 C172 1.363 . S
C171 C177 1.379 . S
C171 N179 1.356 . S
C172 C171 1.363 . S
C172 C178 1.363 . S
C173 C174 1.363 . S
C173 C178 1.379 . S
C173 N180 1.356 . S
C174 C173 1.363 . S
C174 C177 1.363 . S
N175 C177 1.356 . S
N175 H187 0.984 . S
N175 H188 0.985 . S
N176 C178 1.356 . S
N176 H181 0.984 . S
N176 H182 0.985 . S
C177 C171 1.379 . S
C177 C174 1.363 . S
C177 N175 1.356 . S
C178 C172 1.363 . S
C178 C173 1.379 . S
C178 N176 1.356 . S
N179 C171 1.356 . S
N179 H185 0.984 . S
N179 H186 0.984 . S
N180 C173 1.356 . S
N180 H183 0.984 . S
N180 H184 0.985 . S
H181 N176 0.984 . S
H182 N176 0.985 . S
H183 N180 0.984 . S
H184 N180 0.985 . S
H185 N179 0.984 . S
H186 N179 0.984 . S
H187 N175 0.984 . S
H188 N175 0.985 . S
C189 C190 1.363 . S
C189 C195 1.379 . S
C189 N197 1.356 . S
C190 C189 1.363 . S
C190 C196 1.363 . S
C191 C192 1.363 . S
C191 C196 1.379 . S
C191 N198 1.356 . S
C192 C191 1.363 . S
C192 C195 1.363 . S
N193 C195 1.356 . S
N193 H205 0.984 . S
N193 H206 0.985 . S
N194 C196 1.356 . S
N194 H199 0.984 . S
N194 H200 0.985 . S
C195 C189 1.379 . S
C195 C192 1.363 . S
C195 N193 1.356 . S
C196 C190 1.363 . S
C196 C191 1.379 . S
C196 N194 1.356 . S
N197 C189 1.356 . S
N197 H203 0.984 . S
N197 H204 0.984 . S
N198 C191 1.356 . S
N198 H201 0.984 . S
N198 H202 0.985 . S
H199 N194 0.984 . S
H200 N194 0.985 . S
H201 N198 0.984 . S
H202 N198 0.985 . S
H203 N197 0.984 . S
H204 N197 0.984 . S
H205 N193 0.984 . S
H206 N193 0.985 . S
C64 C0 1.409 . S
C66 C54 1.441 . S
C82 C29 1.548 . S
C84 C58 1.534 . S
C100 C30 1.388 . S
C102 C48 1.391 . S
C118 C1 1.485 . S
C120 C53 1.478 . S
C136 C2 1.548 . S
C138 C39 1.532 . S
C156 C55 1.439 . S
C154 C19 1.410 . S
C172 C20 1.485 . S
C174 C61 1.474 . S
C192 C62 1.393 . S
C190 C10 1.389 . S
