# Generated by pormake.
# Topology anh, (6,3)-cn, num edge types: 1
# Building blocks:
#     Node 0, Type 0, BuildingBlock: INOVEN_clean_sbu_0, # of connection points: 6
#     Node 1, Type 0, BuildingBlock: INOVEN_clean_sbu_0, # of connection points: 6
#     Node 2, Type 0, BuildingBlock: INOVEN_clean_sbu_0, # of connection points: 6
#     Node 3, Type 1, BuildingBlock: OLANEW_clean_sbu_2, # of connection points: 3
#     Node 4, Type 1, BuildingBlock: OLANEW_clean_sbu_2, # of connection points: 3
#     Node 5, Type 1, BuildingBlock: OLANEW_clean_sbu_2, # of connection points: 3
#     Node 6, Type 1, BuildingBlock: OLANEW_clean_sbu_2, # of connection points: 3
#     Node 7, Type 1, BuildingBlock: OLANEW_clean_sbu_2, # of connection points: 3
#     Node 8, Type 1, BuildingBlock: OLANEW_clean_sbu_2, # of connection points: 3
#     Edge 9, Type (0, 1), None
#     Edge 10, Type (0, 1), None
#     Edge 11, Type (0, 1), None
#     Edge 12, Type (0, 1), None
#     Edge 13, Type (0, 1), None
#     Edge 14, Type (0, 1), None
#     Edge 15, Type (0, 1), None
#     Edge 16, Type (0, 1), None
#     Edge 17, Type (0, 1), None
#     Edge 18, Type (0, 1), None
#     Edge 19, Type (0, 1), None
#     Edge 20, Type (0, 1), None
#     Edge 21, Type (0, 1), None
#     Edge 22, Type (0, 1), None
#     Edge 23, Type (0, 1), None
#     Edge 24, Type (0, 1), None
#     Edge 25, Type (0, 1), None
#     Edge 26, Type (0, 1), None
# Relax obj value: 0.332
# Max RMSD: 0.265
# Mean RMSD: 0.150
data_MOF--net-anh--node1-INOVEN_clean_sbu_0--node2-OLANEW_clean_sbu_2--edge1-none
_symmetry_space_group_name_H-M    P1
_symmetry_Int_Tables_number       1
_symmetry_cell_setting            triclinic
loop_
_symmetry_equiv_pos_as_xyz
'x, y, z'
_cell_length_a     20.02701
_cell_length_b     24.370923
_cell_length_c     22.450121
_cell_angle_alpha  91.991488
_cell_angle_beta   89.669965
_cell_angle_gamma 134.43165
loop_
_atom_site_label
_atom_site_type_symbol
_atom_site_fract_x
_atom_site_fract_y
_atom_site_fract_z
_atom_type_partial_charge
Gd0 Gd 0.14264 0.51014 0.17193 0.0
Gd1 Gd 1.02442 0.54644 0.18476 0.0
C2 C 0.24538 0.68693 0.19569 0.0
C3 C 0.27285 0.51904 0.13814 0.0
C4 C 0.37413 0.58668 0.13344 0.0
C5 C 0.42501 0.64473 0.17914 0.0
C6 C 0.41961 0.59611 0.08134 0.0
C7 C 0.56625 0.71767 0.12228 0.0
C8 C 0.51499 0.66146 0.07574 0.0
C9 C 0.52048 0.70984 0.17353 0.0
C10 C 0.0835 0.49783 0.28227 0.0
C11 C 0.92326 0.37095 0.17847 0.0
C12 C 0.93746 0.58273 0.22305 0.0
C13 C 0.83914 0.54214 0.22609 0.0
C14 C 0.81521 0.58109 0.24714 0.0
C15 C 0.76863 0.46383 0.20909 0.0
C16 C 0.65018 0.46431 0.23158 0.0
C17 C 0.67479 0.42511 0.21192 0.0
C18 C 0.72129 0.54249 0.24983 0.0
C19 C 0.03031 0.5053 0.07315 0.0
O20 O 0.25178 0.63666 0.1974 0.0
O21 O 0.16593 0.6666 0.18467 0.0
O22 O 0.2403 0.50137 0.19208 0.0
O23 O 0.2196 0.5147 0.10043 0.0
O24 O 0.08811 0.45096 0.25887 0.0
O25 O 0.11211 0.5494 0.24689 0.0
O26 O 0.92147 0.42064 0.2012 0.0
O27 O 0.99871 0.39253 0.15414 0.0
O28 O 0.97174 0.59793 0.16948 0.0
O29 O 0.96163 0.55617 0.25711 0.0
O30 O 0.95682 0.48768 0.09383 0.0
O31 O 0.09694 0.54706 0.11094 0.0
H32 H 0.39132 0.63973 0.2194 0.0
H33 H 0.3814 0.55303 0.04505 0.0
H34 H 0.5494 0.6682 0.0353 0.0
H35 H 0.559 0.75282 0.20986 0.0
H36 H 0.86911 0.6415 0.26083 0.0
H37 H 0.78628 0.43293 0.19304 0.0
H38 H 0.62178 0.36507 0.19716 0.0
H39 H 0.70459 0.57436 0.26485 0.0
Gd40 Gd 0.63215 -0.0134 0.5066 0.0
Gd41 Gd 0.53096 0.03508 0.49835 0.0
C42 C 0.40684 0.85866 0.48525 0.0
C43 C 0.68447 0.91836 0.53136 0.0
C44 C 0.63804 0.84249 0.55296 0.0
C45 C 0.664 0.80526 0.53085 0.0
C46 C 0.56667 0.80602 0.59462 0.0
C47 C 0.5492 0.69652 0.59281 0.0
C48 C 0.52305 0.73393 0.61459 0.0
C49 C 0.61983 0.73278 0.55046 0.0
C50 C 0.63575 0.03215 0.39837 0.0
C51 C 0.75928 0.16602 0.51619 0.0
C52 C 0.4747 0.10142 0.47687 0.0
C53 C 0.49861 0.17088 0.50012 0.0
C54 C 0.43202 0.17461 0.49662 0.0
C55 C 0.58597 0.23238 0.52785 0.0
C56 C 0.53958 0.3006 0.54855 0.0
C57 C 0.6064 0.29676 0.55165 0.0
C58 C 0.4522 0.23881 0.52062 0.0
C59 C 0.53656 -0.0029 0.60919 0.0
O60 O 0.47831 0.87552 0.51201 0.0
O61 O 0.41536 0.91316 0.46449 0.0
O62 O 0.65978 0.91835 0.47756 0.0
O63 O 0.69252 0.96499 0.56919 0.0
O64 O 0.70644 0.04826 0.42285 0.0
O65 O 0.56479 -0.00974 0.43075 0.0
O66 O 0.68253 0.14949 0.50261 0.0
O67 O 0.75776 0.11206 0.52595 0.0
O68 O 0.43403 0.04639 0.51419 0.0
O69 O 0.53848 0.11229 0.44592 0.0
O70 O 0.4669 0.98419 0.58726 0.0
O71 O 0.60273 0.03478 0.57339 0.0
H72 H 0.71853 0.83232 0.4984 0.0
H73 H 0.54465 0.83326 0.61182 0.0
H74 H 0.46872 0.70753 0.64708 0.0
H75 H 0.6417 0.70558 0.53289 0.0
H76 H 0.36398 0.12749 0.47574 0.0
H77 H 0.63815 0.23043 0.53159 0.0
H78 H 0.67423 0.34314 0.57301 0.0
H79 H 0.3991 0.2398 0.51752 0.0
Gd80 Gd 0.56934 0.54164 0.91271 0.0
Gd81 Gd 0.43279 0.36629 0.92748 0.0
C82 C 0.34839 0.43827 0.92323 0.0
C83 C 0.67651 0.67642 0.86935 0.0
C84 C 0.67107 0.73292 0.86105 0.0
C85 C 0.74938 0.80636 0.84193 0.0
C86 C 0.58659 0.71266 0.8689 0.0
C87 C 0.65828 0.83837 0.83685 0.0
C88 C 0.58015 0.76482 0.85676 0.0
C89 C 0.74321 0.85876 0.83009 0.0
C90 C 0.49998 0.49477 0.02232 0.0
C91 C 0.65887 0.47331 0.93271 0.0
C92 C 0.34655 0.22739 0.95355 0.0
C93 C 0.36464 0.17853 0.94526 0.0
C94 C 0.28905 0.09963 0.93248 0.0
C95 C 0.45617 0.21052 0.94238 0.0
C96 C 0.39604 0.08654 0.90764 0.0
C97 C 0.47176 0.16487 0.92385 0.0
C98 C 0.30449 0.05398 0.91397 0.0
C99 C 0.46138 0.41322 0.81509 0.0
O100 O 0.42608 0.49647 0.89617 0.0
O101 O 0.339 0.38471 0.94817 0.0
O102 O 0.6856 0.66559 0.9244 0.0
O103 O 0.61626 0.61219 0.83698 0.0
O104 O 0.52699 0.55621 1.00085 0.0
O105 O 0.52125 0.46743 0.98811 0.0
O106 O 0.57303 0.403 0.93028 0.0
O107 O 0.67551 0.53591 0.92752 0.0
O108 O 0.33157 0.24449 0.90421 0.0
O109 O 0.39999 0.28604 0.99191 0.0
O110 O 0.38005 0.35299 0.83387 0.0
O111 O 0.52252 0.44442 0.85575 0.0
H112 H 0.81504 0.82287 0.83538 0.0
H113 H 0.52526 0.65611 0.88361 0.0
H114 H 0.51384 0.74735 0.86274 0.0
H115 H 0.80473 0.9149 0.81494 0.0
H116 H 0.21792 0.07391 0.93419 0.0
H117 H 0.51569 0.27126 0.95207 0.0
H118 H 0.54315 0.19177 0.91967 0.0
H119 H 0.24452 -0.00617 0.90216 0.0
O120 O 0.70686 0.12664 0.32582 0.0
Cd121 Cd 0.69352 0.14026 0.22001 0.0
O122 O 0.57806 0.01031 0.29928 0.0
Cd123 Cd 0.47331 0.88745 0.30467 0.0
O124 O 0.37723 0.77606 0.25891 0.0
C125 C 0.32401 0.76501 0.21886 0.0
O126 O 0.3284 0.82007 0.20802 0.0
C127 C 0.6385 0.05772 0.33958 0.0
C128 C 0.8419 0.28968 0.18797 0.0
O129 O 0.76771 0.26849 0.20944 0.0
O130 O 0.84585 0.23968 0.1803 0.0
O131 O 0.56334 0.47471 0.73408 0.0
Cd132 Cd 0.59843 0.49396 0.62775 0.0
O133 O 0.41807 0.41846 0.71906 0.0
Cd134 Cd 0.45791 0.47755 0.63587 0.0
O135 O 0.52098 0.58324 0.59254 0.0
C136 C 0.50434 0.62104 0.61538 0.0
O137 O 0.44882 0.59321 0.66106 0.0
C138 C 0.48171 0.43655 0.75334 0.0
C139 C 0.56033 0.36797 0.57515 0.0
O140 O 0.64091 0.42583 0.59864 0.0
O141 O 0.49797 0.36988 0.57599 0.0
O142 O 0.09578 0.4739 1.00977 0.0
Cd143 Cd 0.11883 0.42137 0.92353 0.0
O144 O 0.9724 0.44744 0.97485 0.0
Cd145 Cd 0.85841 0.44459 0.97286 0.0
O146 O 0.73151 0.42802 0.95485 0.0
C147 C 0.74023 0.48375 0.94263 0.0
O148 O 0.72722 0.42487 0.95489 0.0
C149 C 0.03285 0.47446 0.01656 0.0
C150 C 0.27047 0.43342 0.92532 0.0
O151 O 0.27883 0.48588 0.90358 0.0
O152 O 0.19225 0.37655 0.94833 0.0
O153 O 0.11221 0.56785 0.37042 0.0
Cd154 Cd 0.14097 0.62371 0.47134 0.0
O155 O 1.02771 0.44273 0.37587 0.0
Cd156 Cd 0.97876 0.41001 0.46724 0.0
O157 O 0.85188 0.2978 0.4995 0.0
C158 C 0.84984 0.24642 0.51326 0.0
O159 O 0.92774 0.26272 0.51407 0.0
C160 C 0.07271 0.50288 0.3461 0.0
C161 C 0.31575 0.77792 0.47997 0.0
O162 O 0.30729 0.72306 0.49485 0.0
O163 O 0.24239 0.76064 0.46126 0.0
O164 O 0.61467 0.00364 0.69298 0.0
Cd165 Cd 0.6389 -0.00147 0.7992 0.0
O166 O 0.49501 -0.0097 0.70891 0.0
Cd167 Cd 0.50947 0.01017 0.80576 0.0
O168 O 0.49413 0.07087 0.86944 0.0
C169 C 0.41171 0.04085 0.87853 0.0
O170 O 0.34079 0.97245 0.85412 0.0
C171 C 0.54856 -0.00459 0.67328 0.0
C172 C 0.65129 0.89343 0.82321 0.0
O173 O 0.57267 0.87345 0.82444 0.0
O174 O 0.72377 0.96267 0.80997 0.0
O175 O 0.40131 0.39893 0.09218 0.0
Cd176 Cd 0.37667 0.36417 0.19554 0.0
O177 O 0.51246 0.51864 0.12644 0.0
Cd178 Cd 0.63306 0.64086 0.11252 0.0
O179 O 0.71579 0.76399 0.11247 0.0
C180 C 0.66835 0.78044 0.11904 0.0
O181 O 0.71079 0.85244 0.12674 0.0
C182 C 0.46835 0.46999 0.08275 0.0
C183 C 0.55204 0.42622 0.22675 0.0
O184 O 0.48787 0.35651 0.20638 0.0
O185 O 0.53049 0.46423 0.23718 0.0
loop_
_geom_bond_atom_site_label_1
_geom_bond_atom_site_label_2
_geom_bond_distance
_geom_bond_site_symmetry_2
_ccdc_geom_bond_type
Gd0 C3 2.818 . S
Gd0 O20 2.377 . S
Gd0 O22 2.448 . S
Gd0 O23 2.506 . S
Gd0 O24 2.435 . S
Gd0 O25 2.717 . S
Gd0 O27 2.395 1_455 S
Gd0 O31 2.327 . S
Gd1 C12 2.818 . S
Gd1 O21 2.395 1_655 S
Gd1 O25 2.327 1_655 S
Gd1 O26 2.377 . S
Gd1 O28 2.448 . S
Gd1 O29 2.506 . S
Gd1 O30 2.435 . S
Gd1 O31 2.717 1_655 S
C2 O20 1.240 . S
C2 O21 1.240 . S
C3 Gd0 2.818 . S
C3 C4 1.510 . S
C3 O22 1.249 . S
C3 O23 1.252 . S
C4 C3 1.510 . S
C4 C5 1.404 . S
C4 C6 1.352 . S
C5 C4 1.404 . S
C5 C9 1.389 . S
C5 H32 0.930 . S
C6 C4 1.352 . S
C6 C8 1.374 . S
C6 H33 0.931 . S
C7 C8 1.359 . S
C7 C9 1.364 . S
C8 C6 1.374 . S
C8 C7 1.359 . S
C8 H34 0.931 . S
C9 C5 1.389 . S
C9 C7 1.364 . S
C9 H35 0.931 . S
C10 O24 1.256 . S
C10 O25 1.257 . S
C11 O26 1.240 . S
C11 O27 1.240 . S
C12 Gd1 2.818 . S
C12 C13 1.510 . S
C12 O28 1.249 . S
C12 O29 1.252 . S
C13 C12 1.510 . S
C13 C14 1.404 . S
C13 C15 1.352 . S
C14 C13 1.404 . S
C14 C18 1.389 . S
C14 H36 0.930 . S
C15 C13 1.352 . S
C15 C17 1.374 . S
C15 H37 0.931 . S
C16 C17 1.359 . S
C16 C18 1.364 . S
C17 C15 1.374 . S
C17 C16 1.359 . S
C17 H38 0.931 . S
C18 C14 1.389 . S
C18 C16 1.364 . S
C18 H39 0.931 . S
C19 O30 1.256 1_455 S
C19 O31 1.257 . S
O20 Gd0 2.377 . S
O20 C2 1.240 . S
O21 Gd1 2.395 1_455 S
O21 C2 1.240 . S
O22 Gd0 2.448 . S
O22 C3 1.249 . S
O23 Gd0 2.506 . S
O23 C3 1.252 . S
O24 Gd0 2.435 . S
O24 C10 1.256 . S
O25 Gd0 2.717 . S
O25 Gd1 2.327 1_455 S
O25 C10 1.257 . S
O26 Gd1 2.377 . S
O26 C11 1.240 . S
O27 Gd0 2.395 1_655 S
O27 C11 1.240 . S
O28 Gd1 2.448 . S
O28 C12 1.249 . S
O29 Gd1 2.506 . S
O29 C12 1.252 . S
O30 Gd1 2.435 . S
O30 C19 1.256 1_655 S
O31 Gd0 2.327 . S
O31 Gd1 2.717 1_455 S
O31 C19 1.257 . S
H32 C5 0.930 . S
H33 C6 0.931 . S
H34 C8 0.931 . S
H35 C9 0.931 . S
H36 C14 0.930 . S
H37 C15 0.931 . S
H38 C17 0.931 . S
H39 C18 0.931 . S
Gd40 C43 2.818 . S
Gd40 O60 2.377 . S
Gd40 O62 2.448 . S
Gd40 O63 2.506 . S
Gd40 O64 2.435 . S
Gd40 O65 2.717 1_565 S
Gd40 O67 2.395 1_565 S
Gd40 O71 2.327 1_565 S
Gd41 C52 2.818 . S
Gd41 O61 2.395 1_545 S
Gd41 O65 2.327 . S
Gd41 O66 2.377 . S
Gd41 O68 2.448 . S
Gd41 O69 2.506 . S
Gd41 O70 2.435 . S
Gd41 O71 2.717 . S
C42 O60 1.240 . S
C42 O61 1.240 . S
C43 Gd40 2.818 . S
C43 C44 1.510 . S
C43 O62 1.249 . S
C43 O63 1.252 . S
C44 C43 1.510 . S
C44 C45 1.404 . S
C44 C46 1.352 . S
C45 C44 1.404 . S
C45 C49 1.389 . S
C45 H72 0.930 . S
C46 C44 1.352 . S
C46 C48 1.374 . S
C46 H73 0.931 . S
C47 C48 1.359 . S
C47 C49 1.364 . S
C48 C46 1.374 . S
C48 C47 1.359 . S
C48 H74 0.931 . S
C49 C45 1.389 . S
C49 C47 1.364 . S
C49 H75 0.931 . S
C50 O64 1.256 1_545 S
C50 O65 1.257 . S
C51 O66 1.240 . S
C51 O67 1.240 . S
C52 Gd41 2.818 . S
C52 C53 1.510 . S
C52 O68 1.249 . S
C52 O69 1.252 . S
C53 C52 1.510 . S
C53 C54 1.404 . S
C53 C55 1.352 . S
C54 C53 1.404 . S
C54 C58 1.389 . S
C54 H76 0.930 . S
C55 C53 1.352 . S
C55 C57 1.374 . S
C55 H77 0.931 . S
C56 C57 1.359 . S
C56 C58 1.364 . S
C57 C55 1.374 . S
C57 C56 1.359 . S
C57 H78 0.931 . S
C58 C54 1.389 . S
C58 C56 1.364 . S
C58 H79 0.931 . S
C59 O70 1.256 . S
C59 O71 1.257 . S
O60 Gd40 2.377 . S
O60 C42 1.240 . S
O61 Gd41 2.395 1_565 S
O61 C42 1.240 . S
O62 Gd40 2.448 . S
O62 C43 1.249 . S
O63 Gd40 2.506 . S
O63 C43 1.252 . S
O64 Gd40 2.435 . S
O64 C50 1.256 1_565 S
O65 Gd40 2.717 1_545 S
O65 Gd41 2.327 . S
O65 C50 1.257 . S
O66 Gd41 2.377 . S
O66 C51 1.240 . S
O67 Gd40 2.395 1_545 S
O67 C51 1.240 . S
O68 Gd41 2.448 . S
O68 C52 1.249 . S
O69 Gd41 2.506 . S
O69 C52 1.252 . S
O70 Gd41 2.435 . S
O70 C59 1.256 . S
O71 Gd40 2.327 1_545 S
O71 Gd41 2.717 . S
O71 C59 1.257 . S
H72 C45 0.930 . S
H73 C46 0.931 . S
H74 C48 0.931 . S
H75 C49 0.931 . S
H76 C54 0.930 . S
H77 C55 0.931 . S
H78 C57 0.931 . S
H79 C58 0.931 . S
Gd80 C83 2.818 . S
Gd80 O100 2.377 . S
Gd80 O102 2.448 . S
Gd80 O103 2.506 . S
Gd80 O104 2.424 1_556 S
Gd80 O105 2.717 . S
Gd80 O107 2.395 . S
Gd80 O111 2.327 . S
Gd81 C92 2.818 . S
Gd81 O101 2.395 . S
Gd81 O105 2.327 . S
Gd81 O106 2.377 . S
Gd81 O108 2.448 . S
Gd81 O109 2.506 . S
Gd81 O110 2.435 . S
Gd81 O111 2.717 . S
C82 O100 1.240 . S
C82 O101 1.240 . S
C83 Gd80 2.818 . S
C83 C84 1.510 . S
C83 O102 1.249 . S
C83 O103 1.252 . S
C84 C83 1.510 . S
C84 C85 1.404 . S
C84 C86 1.352 . S
C85 C84 1.404 . S
C85 C89 1.389 . S
C85 H112 0.930 . S
C86 C84 1.352 . S
C86 C88 1.374 . S
C86 H113 0.931 . S
C87 C88 1.359 . S
C87 C89 1.364 . S
C88 C86 1.374 . S
C88 C87 1.359 . S
C88 H114 0.931 . S
C89 C85 1.389 . S
C89 C87 1.364 . S
C89 H115 0.931 . S
C90 O104 1.255 1_556 S
C90 O105 1.257 . S
C91 O106 1.240 . S
C91 O107 1.240 . S
C92 Gd81 2.818 . S
C92 C93 1.510 . S
C92 O108 1.249 . S
C92 O109 1.252 . S
C93 C92 1.510 . S
C93 C94 1.404 . S
C93 C95 1.352 . S
C94 C93 1.404 . S
C94 C98 1.389 . S
C94 H116 0.930 . S
C95 C93 1.352 . S
C95 C97 1.374 . S
C95 H117 0.931 . S
C96 C97 1.359 . S
C96 C98 1.364 . S
C97 C95 1.374 . S
C97 C96 1.359 . S
C97 H118 0.931 . S
C98 C94 1.389 . S
C98 C96 1.364 . S
C98 H119 0.931 . S
C99 O110 1.256 . S
C99 O111 1.257 . S
O100 Gd80 2.377 . S
O100 C82 1.240 . S
O101 Gd81 2.395 . S
O101 C82 1.240 . S
O102 Gd80 2.448 . S
O102 C83 1.249 . S
O103 Gd80 2.506 . S
O103 C83 1.252 . S
O104 Gd80 2.424 1_554 S
O104 C90 1.255 1_554 S
O105 Gd80 2.717 . S
O105 Gd81 2.327 . S
O105 C90 1.257 . S
O106 Gd81 2.377 . S
O106 C91 1.240 . S
O107 Gd80 2.395 . S
O107 C91 1.240 . S
O108 Gd81 2.448 . S
O108 C92 1.249 . S
O109 Gd81 2.506 . S
O109 C92 1.252 . S
O110 Gd81 2.435 . S
O110 C99 1.256 . S
O111 Gd80 2.327 . S
O111 Gd81 2.717 . S
O111 C99 1.257 . S
H112 C85 0.930 . S
H113 C86 0.931 . S
H114 C88 0.931 . S
H115 C89 0.931 . S
H116 C94 0.930 . S
H117 C95 0.931 . S
H118 C97 0.931 . S
H119 C98 0.931 . S
O120 Cd121 2.300 . S
O120 C127 1.275 . S
Cd121 O120 2.300 . S
Cd121 O129 2.381 . S
Cd121 O130 2.378 . S
O122 Cd123 2.385 . S
O122 C127 1.255 1_565 S
Cd123 O122 2.385 . S
Cd123 O124 2.317 . S
O124 Cd123 2.317 . S
O124 C125 1.232 . S
C125 O124 1.232 . S
C125 O126 1.218 . S
O126 C125 1.218 . S
C127 O120 1.275 . S
C127 O122 1.255 1_545 S
C128 O129 1.258 . S
C128 O130 1.256 . S
O129 Cd121 2.381 . S
O129 C128 1.258 . S
O130 Cd121 2.378 . S
O130 C128 1.256 . S
O131 Cd132 2.300 . S
O131 C138 1.275 . S
Cd132 O131 2.300 . S
Cd132 O140 2.381 . S
Cd132 O141 2.378 . S
O133 Cd134 2.385 . S
O133 C138 1.255 . S
Cd134 O133 2.385 . S
Cd134 O135 2.317 . S
O135 Cd134 2.317 . S
O135 C136 1.232 . S
C136 O135 1.232 . S
C136 O137 1.218 . S
O137 C136 1.218 . S
C138 O131 1.275 . S
C138 O133 1.255 . S
C139 O140 1.258 . S
C139 O141 1.256 . S
O140 Cd132 2.381 . S
O140 C139 1.258 . S
O141 Cd132 2.378 . S
O141 C139 1.256 . S
O142 Cd143 2.300 1_554 S
O142 C149 1.275 . S
Cd143 O142 2.300 1_556 S
Cd143 O151 2.381 . S
Cd143 O152 2.378 . S
O144 Cd145 2.385 . S
O144 C149 1.255 1_656 S
Cd145 O144 2.385 . S
Cd145 O146 2.317 . S
O146 Cd145 2.317 . S
O146 C147 1.232 . S
C147 O146 1.232 . S
C147 O148 1.218 . S
O148 C147 1.218 . S
C149 O142 1.275 . S
C149 O144 1.255 1_454 S
C150 O151 1.258 . S
C150 O152 1.256 . S
O151 Cd143 2.381 . S
O151 C150 1.258 . S
O152 Cd143 2.378 . S
O152 C150 1.256 . S
O153 Cd154 2.300 . S
O153 C160 1.275 1_455 S
Cd154 O153 2.300 . S
Cd154 O162 2.381 . S
Cd154 O163 2.378 . S
O155 Cd156 2.385 . S
O155 C160 1.255 . S
Cd156 O155 2.385 . S
Cd156 O157 2.317 . S
O157 Cd156 2.317 . S
O157 C158 1.232 . S
C158 O157 1.232 . S
C158 O159 1.218 . S
O159 C158 1.218 . S
C160 O153 1.275 1_655 S
C160 O155 1.255 . S
C161 O162 1.258 . S
C161 O163 1.256 . S
O162 Cd154 2.381 . S
O162 C161 1.258 . S
O163 Cd154 2.378 . S
O163 C161 1.256 . S
O164 Cd165 2.300 . S
O164 C171 1.275 1_565 S
Cd165 O164 2.300 . S
Cd165 O173 2.381 . S
Cd165 O174 2.378 . S
O166 Cd167 2.385 . S
O166 C171 1.255 . S
Cd167 O166 2.385 . S
Cd167 O168 2.317 . S
O168 Cd167 2.317 . S
O168 C169 1.232 . S
C169 O168 1.232 . S
C169 O170 1.218 . S
O170 C169 1.218 . S
C171 O164 1.275 1_545 S
C171 O166 1.255 . S
C172 O173 1.258 . S
C172 O174 1.256 . S
O173 Cd165 2.381 . S
O173 C172 1.258 . S
O174 Cd165 2.378 . S
O174 C172 1.256 . S
O175 Cd176 2.300 1_556 S
O175 C182 1.275 . S
Cd176 O175 2.300 1_554 S
Cd176 O184 2.381 . S
Cd176 O185 2.378 . S
O177 Cd178 2.385 . S
O177 C182 1.255 1_554 S
Cd178 O177 2.385 . S
Cd178 O179 2.317 . S
O179 Cd178 2.317 . S
O179 C180 1.232 . S
C180 O179 1.232 . S
C180 O181 1.218 . S
O181 C180 1.218 . S
C182 O175 1.275 . S
C182 O177 1.255 1_556 S
C183 O184 1.258 . S
C183 O185 1.256 . S
O184 Cd176 2.381 . S
O184 C183 1.258 . S
O185 Cd176 2.378 . S
O185 C183 1.256 . S
C7 C180 3.616 . S
C51 C158 2.248 . S
C87 C172 2.295 . S
C16 C183 2.629 . S
C161 C42 2.628 . S
C169 C96 2.139 . S
C47 C136 1.768 . S
C91 C147 4.642 . S
C2 C125 2.355 . S
C139 C56 1.712 . S
C150 C82 4.571 . S
C11 C128 2.448 . S
C149 C19 1.875 . S
C50 C127 1.048 . S
C99 C138 1.367 . S
C171 C59 1.209 . S
C182 C90 1.254 . S
C10 C160 1.193 1_455 S
