# Generated by pormake.
# Topology bcu-b, (8,8)-cn, num edge types: 1
# Building blocks:
#     Node 0, Type 0, BuildingBlock: TAGTUT_clean_sbu_1, # of connection points: 8
#     Node 1, Type 1, BuildingBlock: TAGTUT_clean_sbu_3, # of connection points: 8
#     Edge 2, Type (0, 1), None
#     Edge 3, Type (0, 1), None
#     Edge 4, Type (0, 1), None
#     Edge 5, Type (0, 1), None
#     Edge 6, Type (0, 1), None
#     Edge 7, Type (0, 1), None
#     Edge 8, Type (0, 1), None
#     Edge 9, Type (0, 1), None
# Relax obj value: 0.008
# Max RMSD: 0.072
# Mean RMSD: 0.060
data_MOF--net-bcu-b--node1-TAGTUT_clean_sbu_1--node2-TAGTUT_clean_sbu_3--edge1-none
_symmetry_space_group_name_H-M    P1
_symmetry_Int_Tables_number       1
_symmetry_cell_setting            triclinic
loop_
_symmetry_equiv_pos_as_xyz
'x, y, z'
_cell_length_a     11.411278
_cell_length_b     11.293964
_cell_length_c     9.7063626
_cell_angle_alpha  90.441055
_cell_angle_beta   91.000575
_cell_angle_gamma 116.26506
loop_
_atom_site_label
_atom_site_type_symbol
_atom_site_fract_x
_atom_site_fract_y
_atom_site_fract_z
_atom_type_partial_charge
C0 C 0.65787 0.19031 0.11923 0.0
C1 C 0.80468 0.16532 0.73027 0.0
C2 C 0.71668 0.6806 0.88352 0.0
Mg3 Mg 0.92809 0.22104 1.01259 0.0
O4 O 0.84469 0.04444 0.06698 0.0
Mg5 Mg 0.67373 0.92938 0.97371 0.0
Mg6 Mg -0.06081 -0.06339 1.03457 0.0
O7 O 0.02794 0.823 1.00572 0.0
Mg8 Mg -0.06613 0.65346 0.08026 0.0
Mg9 Mg 0.20248 -0.06428 0.09024 0.0
C10 C 0.14809 0.19453 0.20533 0.0
C11 C 0.17808 0.08807 0.81656 0.0
O12 O 0.59911 0.06852 0.0795 0.0
O13 O 0.77973 0.26329 0.09968 0.0
O14 O 0.72294 0.06007 0.7864 0.0
O15 O 0.91002 0.24328 0.79323 0.0
O16 O 0.10248 0.26557 0.14169 0.0
O17 O 0.10594 0.07012 0.18028 0.0
C18 C 0.69532 0.76494 0.23815 0.0
O19 O 0.81752 0.80352 0.21722 0.0
O20 O 0.62644 0.80184 0.16108 0.0
O21 O 0.23819 0.76111 0.98958 0.0
O22 O 0.04914 0.57231 0.98464 0.0
O23 O 0.17867 0.83381 0.28936 0.0
C24 C 0.17019 0.63655 0.95763 0.0
O25 O -0.01436 0.6589 0.30027 0.0
O26 O 0.74966 0.60855 0.96303 0.0
C27 C 0.09797 0.73571 0.35361 0.0
O28 O 0.77474 0.80639 0.88996 0.0
O29 O 0.06177 0.06835 0.84778 0.0
O30 O 0.24212 0.04406 0.89118 0.0
C31 C 0.66917 0.62449 0.74679 0.0
C32 C 0.7488 0.21412 0.61979 0.0
C33 C 0.60012 0.238 0.22681 0.0
Mg34 Mg 0.44053 0.70332 0.60958 0.0
Mg35 Mg 0.16251 0.43485 0.57036 0.0
O36 O 0.33397 0.53512 0.5074 0.0
Mg37 Mg 0.44056 0.43824 0.53683 0.0
O38 O 0.54984 0.34591 0.56851 0.0
Mg39 Mg 0.71618 0.47022 0.4831 0.0
Mg40 Mg 0.47517 0.17045 0.50046 0.0
C41 C 0.20172 0.24687 0.34306 0.0
O42 O 0.28892 0.2847 0.68686 0.0
O43 O 0.27977 0.75287 0.49372 0.0
O44 O 0.29406 0.09634 0.61749 0.0
O45 O 0.31976 0.66483 0.79158 0.0
O46 O 0.09125 0.56315 0.48648 0.0
O47 O 0.15012 0.46792 0.79341 0.0
O48 O 0.60014 0.57775 0.38675 0.0
O49 O 0.57622 0.75872 0.4299 0.0
C50 C 0.63345 0.70062 0.36657 0.0
C51 C 0.15612 0.68565 0.46083 0.0
O52 O 0.32579 0.30338 0.35962 0.0
O53 O 0.80117 0.33847 0.59286 0.0
O54 O 0.12453 0.2667 0.42627 0.0
O55 O 0.68011 0.34254 0.29062 0.0
O56 O 0.63008 0.13567 0.58619 0.0
O57 O 0.49347 0.15823 0.2808 0.0
O58 O 0.54999 0.58731 0.70962 0.0
O59 O 0.74486 0.59077 0.67898 0.0
C60 C 0.22152 0.58033 0.85092 0.0
C61 C 0.24608 0.15832 0.69204 0.0
loop_
_geom_bond_atom_site_label_1
_geom_bond_atom_site_label_2
_geom_bond_distance
_geom_bond_site_symmetry_2
_ccdc_geom_bond_type
C0 O12 1.241 . S
C0 O13 1.280 . S
C1 O14 1.277 . S
C1 O15 1.245 . S
C2 O26 1.247 . S
C2 O28 1.289 . S
Mg3 O4 1.926 1_455 S
Mg3 O13 1.984 1_455 S
Mg3 O15 1.988 1_454 S
Mg3 O16 2.061 . S
O4 Mg3 1.926 1_655 S
O4 Mg5 1.986 1_545 S
O4 Mg6 1.917 1_655 S
Mg5 O4 1.986 1_565 S
Mg5 O12 2.042 1_565 S
Mg5 O14 2.041 1_564 S
Mg5 O20 2.038 . S
Mg5 O28 2.238 1_554 S
Mg6 O4 1.917 1_455 S
Mg6 O7 1.917 1_544 S
Mg6 O17 2.106 . S
Mg6 O19 2.079 1_445 S
Mg6 O28 2.106 1_444 S
Mg6 O29 2.079 1_554 S
O7 Mg6 1.917 1_566 S
O7 Mg8 1.926 1_455 S
O7 Mg9 1.986 1_566 S
Mg8 O7 1.926 1_655 S
Mg8 O22 1.982 1_655 S
Mg8 O25 1.986 1_656 S
Mg8 O26 2.065 . S
Mg9 O7 1.986 1_544 S
Mg9 O17 2.238 . S
Mg9 O21 2.042 1_544 S
Mg9 O23 2.041 1_545 S
Mg9 O30 2.038 1_554 S
C10 O16 1.247 . S
C10 O17 1.289 . S
C11 O29 1.245 . S
C11 O30 1.274 . S
O12 C0 1.241 . S
O12 Mg5 2.042 1_545 S
O13 C0 1.280 . S
O13 Mg3 1.984 1_655 S
O14 C1 1.277 . S
O14 Mg5 2.041 1_546 S
O15 C1 1.245 . S
O15 Mg3 1.988 1_656 S
O16 Mg3 2.061 . S
O16 C10 1.247 . S
O17 Mg6 2.106 . S
O17 Mg9 2.238 . S
O17 C10 1.289 . S
C18 O19 1.245 . S
C18 O20 1.274 . S
O19 Mg6 2.079 1_665 S
O19 C18 1.245 . S
O20 Mg5 2.038 . S
O20 C18 1.274 . S
O21 Mg9 2.042 1_566 S
O21 C24 1.241 . S
O22 Mg8 1.982 1_455 S
O22 C24 1.280 . S
O23 Mg9 2.041 1_565 S
O23 C27 1.277 . S
C24 O21 1.241 . S
C24 O22 1.280 . S
O25 Mg8 1.986 1_454 S
O25 C27 1.245 . S
O26 C2 1.247 . S
O26 Mg8 2.065 . S
C27 O23 1.277 . S
C27 O25 1.245 . S
O28 C2 1.289 . S
O28 Mg5 2.238 1_556 S
O28 Mg6 2.106 1_666 S
O29 Mg6 2.079 1_556 S
O29 C11 1.245 . S
O30 Mg9 2.038 1_556 S
O30 C11 1.274 . S
C31 O58 1.312 . S
C31 O59 1.208 . S
C32 O53 1.331 . S
C32 O56 1.244 . S
C33 O55 1.264 . S
C33 O57 1.273 . S
Mg34 O36 1.936 . S
Mg34 O43 2.081 . S
Mg34 O45 2.023 . S
Mg34 O49 2.031 . S
Mg34 O58 2.291 . S
Mg35 O36 1.963 . S
Mg35 O46 1.942 . S
Mg35 O47 1.955 . S
Mg35 O54 1.986 . S
O36 Mg34 1.936 . S
O36 Mg35 1.963 . S
O36 Mg37 1.915 . S
Mg37 O36 1.915 . S
Mg37 O38 1.915 . S
Mg37 O42 2.013 . S
Mg37 O48 2.114 . S
Mg37 O52 2.013 . S
Mg37 O58 2.114 . S
O38 Mg37 1.915 . S
O38 Mg39 1.936 . S
O38 Mg40 1.963 . S
Mg39 O38 1.936 . S
Mg39 O48 2.291 . S
Mg39 O53 2.081 . S
Mg39 O55 2.023 . S
Mg39 O59 2.031 . S
Mg40 O38 1.963 . S
Mg40 O44 1.986 . S
Mg40 O56 1.942 . S
Mg40 O57 1.955 . S
C41 O52 1.191 . S
C41 O54 1.307 . S
O42 Mg37 2.013 . S
O42 C61 1.191 . S
O43 Mg34 2.081 . S
O43 C51 1.331 . S
O44 Mg40 1.986 . S
O44 C61 1.307 . S
O45 Mg34 2.023 . S
O45 C60 1.264 . S
O46 Mg35 1.942 . S
O46 C51 1.244 . S
O47 Mg35 1.955 . S
O47 C60 1.273 . S
O48 Mg37 2.114 . S
O48 Mg39 2.291 . S
O48 C50 1.312 . S
O49 Mg34 2.031 . S
O49 C50 1.208 . S
C50 O48 1.312 . S
C50 O49 1.208 . S
C51 O43 1.331 . S
C51 O46 1.244 . S
O52 Mg37 2.013 . S
O52 C41 1.191 . S
O53 C32 1.331 . S
O53 Mg39 2.081 . S
O54 Mg35 1.986 . S
O54 C41 1.307 . S
O55 C33 1.264 . S
O55 Mg39 2.023 . S
O56 C32 1.244 . S
O56 Mg40 1.942 . S
O57 C33 1.273 . S
O57 Mg40 1.955 . S
O58 C31 1.312 . S
O58 Mg34 2.291 . S
O58 Mg37 2.114 . S
O59 C31 1.208 . S
O59 Mg39 2.031 . S
C60 O45 1.264 . S
C60 O47 1.273 . S
C61 O42 1.191 . S
C61 O44 1.307 . S
C10 C41 1.286 . S
C0 C33 1.468 . S
C18 C50 1.641 . S
C27 C51 1.587 . S
C24 C60 1.543 . S
C61 C11 1.559 . S
C1 C32 1.463 . S
C31 C2 1.399 . S
