# Generated by pormake.
# Topology pth, (4,4)-cn, num edge types: 1
# Building blocks:
#     Node 0, Type 0, BuildingBlock: TATPOV_clean_sbu_0, # of connection points: 4
#     Node 1, Type 0, BuildingBlock: TATPOV_clean_sbu_0, # of connection points: 4
#     Node 2, Type 0, BuildingBlock: TATPOV_clean_sbu_0, # of connection points: 4
#     Node 3, Type 1, BuildingBlock: KOZSID_clean_sbu_0, # of connection points: 4
#     Node 4, Type 1, BuildingBlock: KOZSID_clean_sbu_0, # of connection points: 4
#     Node 5, Type 1, BuildingBlock: KOZSID_clean_sbu_0, # of connection points: 4
#     Edge 6, Type (0, 1), None
#     Edge 7, Type (0, 1), None
#     Edge 8, Type (0, 1), None
#     Edge 9, Type (0, 1), None
#     Edge 10, Type (0, 1), None
#     Edge 11, Type (0, 1), None
#     Edge 12, Type (0, 1), None
#     Edge 13, Type (0, 1), None
#     Edge 14, Type (0, 1), None
#     Edge 15, Type (0, 1), None
#     Edge 16, Type (0, 1), None
#     Edge 17, Type (0, 1), None
# Relax obj value: 0.037
# Max RMSD: 0.178
# Mean RMSD: 0.082
data_MOF--net-pth--node1-TATPOV_clean_sbu_0--node2-KOZSID_clean_sbu_0--edge1-none
_symmetry_space_group_name_H-M    P1
_symmetry_Int_Tables_number       1
_symmetry_cell_setting            triclinic
loop_
_symmetry_equiv_pos_as_xyz
'x, y, z'
_cell_length_a     13.525518
_cell_length_b     13.333775
_cell_length_c     29.663628
_cell_angle_alpha  88.216555
_cell_angle_beta   87.11044
_cell_angle_gamma 121.55921
loop_
_atom_site_label
_atom_site_type_symbol
_atom_site_fract_x
_atom_site_fract_y
_atom_site_fract_z
_atom_type_partial_charge
Zn0 Zn 0.27589 0.03839 0.9855 0.0
Zn1 Zn 0.16096 0.10814 0.02977 0.0
O2 O 0.16932 0.99081 0.0752 0.0
O3 O 0.25973 0.92425 0.03367 0.0
O4 O 0.10241 0.19057 0.06994 0.0
O5 O 0.41884 0.19733 0.97524 0.0
O6 O 0.31198 0.26235 0.00303 0.0
C7 C 0.2071 0.92152 0.07045 0.0
C8 C 0.05938 0.95633 0.94946 0.0
O9 O 0.04345 0.00681 0.98274 0.0
O10 O 0.15771 0.96852 0.94071 0.0
C11 C 0.17798 0.25465 0.09709 0.0
O12 O 0.27148 0.24838 0.09901 0.0
C13 C 0.40847 0.28331 0.98475 0.0
Zn14 Zn 0.25434 0.27713 0.33441 0.0
Zn15 Zn 0.05339 0.14891 0.36722 0.0
O16 O 0.16131 0.14943 0.41534 0.0
O17 O 0.33438 0.29767 0.39035 0.0
O18 O 0.89777 0.08967 0.40163 0.0
O19 O 0.2471 0.40607 0.3055 0.0
O20 O 0.06961 0.30171 0.33726 0.0
C21 C 0.27013 0.21509 0.41983 0.0
C22 C 0.1342 0.04816 0.29778 0.0
O23 O 0.04447 0.03173 0.3213 0.0
O24 O 0.2304 0.14457 0.29845 0.0
C25 C 0.89952 0.16622 0.42682 0.0
O26 O 1.00134 0.25825 0.43392 0.0
C27 C 0.1487 0.39325 0.31399 0.0
Zn28 Zn 0.15392 0.91636 0.74273 0.0
Zn29 Zn 0.08254 0.03144 0.69563 0.0
O30 O 0.20149 0.02056 0.65254 0.0
O31 O 0.26274 0.92434 0.69272 0.0
O32 O 1.0008 0.08464 0.6552 0.0
O33 O 0.9959 0.77943 0.75737 0.0
O34 O 0.9355 0.88883 0.72786 0.0
C35 C 0.26774 0.97983 0.65654 0.0
C36 C 0.22087 0.1436 0.77405 0.0
O37 O 0.17568 0.15622 0.73925 0.0
O38 O 0.21515 0.04758 0.78378 0.0
C39 C 0.92604 0.00511 0.63166 0.0
O40 O 0.91791 0.9025 0.63162 0.0
C41 C 0.91397 0.79541 0.74959 0.0
C42 C 0.29163 0.83628 0.12201 0.0
C43 C 0.40479 0.91301 0.10334 0.0
C44 C 0.47626 0.89699 0.12935 0.0
C45 C 0.40363 0.81256 0.16249 0.0
N46 N 0.2896 0.77179 0.15843 0.0
Co47 Co 0.15468 0.6505 0.19958 0.0
N48 N 0.26158 0.65744 0.24484 0.0
C49 C 0.37793 0.73164 0.24354 0.0
C50 C 0.42407 0.7303 0.28349 0.0
C51 C 0.33116 0.64841 0.31159 0.0
C52 C 0.23432 0.60309 0.2865 0.0
N53 N 0.02169 0.52247 0.23971 0.0
C54 C 0.02397 0.46177 0.27688 0.0
C55 C 0.91332 0.36986 0.29203 0.0
C56 C 0.83884 0.37144 0.26275 0.0
C57 C 0.90819 0.46359 0.23145 0.0
N58 N 0.04849 0.65479 0.15624 0.0
C59 C 0.93091 0.58819 0.15968 0.0
C60 C 0.88129 0.62166 0.12802 0.0
C61 C 0.97266 0.71791 0.10405 0.0
C62 C 0.07316 0.73756 0.12253 0.0
N63 N 0.16177 0.5248 0.16747 0.0
C64 C 0.16933 0.34421 0.1227 0.0
C65 C 0.07428 0.35778 0.12046 0.0
C66 C 0.0721 0.44743 0.14295 0.0
C67 C 0.26019 0.42205 0.14815 0.0
C68 C 0.25493 0.51098 0.16995 0.0
N69 N 0.14518 0.7736 0.23116 0.0
C70 C 0.03324 0.84362 0.27007 0.0
C71 C 0.1339 0.95371 0.27302 0.0
C72 C 0.23976 0.97185 0.25452 0.0
C73 C 0.24356 0.8814 0.23437 0.0
C74 C 0.04073 0.75526 0.24885 0.0
H75 H 0.3274 0.90068 0.22169 0.0
H76 H 0.96103 0.67296 0.24716 0.0
H77 H 0.99645 0.45175 0.13972 0.0
H78 H 0.32759 0.56779 0.18848 0.0
C79 C 0.44093 0.79553 0.20345 0.0
C80 C 0.19025 0.8363 0.10747 0.0
C81 C 0.13033 0.48779 0.29734 0.0
C82 C 0.87046 0.49873 0.19437 0.0
H83 H 0.43425 0.97959 0.07574 0.0
H84 H 0.57045 0.9492 0.12702 0.0
H85 H 0.51468 0.77911 0.29072 0.0
H86 H 0.33545 0.617 0.34511 0.0
H87 H 0.88889 0.3081 0.32104 0.0
H88 H 0.74546 0.3117 0.26389 0.0
H89 H 0.78955 0.58329 0.12385 0.0
H90 H 0.96594 0.76931 0.07676 0.0
H91 H 0.00189 0.3001 0.10115 0.0
H92 H 0.33637 0.41578 0.15089 0.0
H93 H 0.94957 0.82538 0.28421 0.0
H94 H 0.32088 0.05516 0.25626 0.0
C95 C 0.36035 0.91804 0.596 0.0
C96 C 0.27349 0.7997 0.60306 0.0
C97 C 0.29172 0.74277 0.56926 0.0
C98 C 0.38837 0.82915 0.54373 0.0
N99 N 0.43427 0.93748 0.55967 0.0
Co100 Co 0.57341 0.08829 0.53245 0.0
N101 N 0.59001 0.00666 0.47965 0.0
C102 C 0.51346 0.89552 0.46909 0.0
C103 C 0.5445 0.86636 0.42921 0.0
C104 C 0.64903 0.96369 0.41412 0.0
C105 C 0.6769 0.04604 0.44638 0.0
N106 N 0.7168 0.23661 0.50613 0.0
C107 C 0.79405 0.25161 0.47155 0.0
C108 C 0.88251 0.36952 0.46424 0.0
C109 C 0.86512 0.42879 0.49739 0.0
C110 C 0.7663 0.34483 0.52249 0.0
N111 N 0.55271 0.17114 0.58382 0.0
C112 C 0.61871 0.28756 0.59053 0.0
C113 C 0.5772 0.3205 0.6266 0.0
C114 C 0.47691 0.21986 0.64307 0.0
C115 C 0.46295 0.13088 0.61595 0.0
N116 N 0.67649 0.05496 0.56658 0.0
C117 C 0.84134 0.02265 0.60836 0.0
C118 C 0.83798 0.12423 0.61369 0.0
C119 C 0.75531 0.13805 0.593 0.0
C120 C 0.75878 0.93578 0.58246 0.0
C121 C 0.67744 0.95355 0.56199 0.0
N122 N 0.47111 0.12482 0.4986 0.0
C123 C 0.43254 0.27013 0.46783 0.0
C124 C 0.32757 0.1826 0.45308 0.0
C125 C 0.29285 0.06482 0.4627 0.0
C126 C 0.36596 0.03798 0.4851 0.0
C127 C 0.50167 0.23973 0.4904 0.0
H128 H 0.33646 0.94666 0.49034 0.0
H129 H 0.58016 0.31199 0.50015 0.0
H130 H 0.7583 0.21788 0.59848 0.0
H131 H 0.61685 0.88522 0.54216 0.0
C132 C 0.42479 0.8156 0.50074 0.0
C133 C 0.36169 0.01035 0.62126 0.0
C134 C 0.7902 0.15505 0.44735 0.0
C135 C 0.71709 0.36406 0.56146 0.0
H136 H 0.20072 0.75974 0.62845 0.0
H137 H 0.23646 0.65099 0.56235 0.0
H138 H 0.4996 0.78232 0.41408 0.0
H139 H 0.69939 0.97073 0.38343 0.0
H140 H 0.95337 0.40922 0.43809 0.0
H141 H 0.91911 0.52166 0.50292 0.0
H142 H 0.6138 0.40785 0.63875 0.0
H143 H 0.4193 0.21329 0.67126 0.0
H144 H 0.8986 0.19316 0.63397 0.0
H145 H 0.75686 0.85454 0.57784 0.0
H146 H 0.46347 0.36259 0.46059 0.0
H147 H 0.21315 0.99395 0.45074 0.0
C148 C 0.77425 0.58695 0.77602 0.0
C149 C 0.81923 0.53468 0.74905 0.0
C150 C 0.80524 0.44023 0.77461 0.0
C151 C 0.75176 0.4403 0.8152 0.0
N152 N 0.73086 0.52854 0.81666 0.0
Co153 Co 0.63287 0.54687 0.86356 0.0
N154 N 0.64285 0.43516 0.90617 0.0
C155 C 0.69883 0.37771 0.89852 0.0
C156 C 0.71181 0.32851 0.93734 0.0
C157 C 0.65798 0.35428 0.97138 0.0
C158 C 0.61246 0.41515 0.95101 0.0
N159 N 0.52461 0.55359 0.90996 0.0
C160 C 0.47954 0.4922 0.95084 0.0
C161 C 0.39551 0.51102 0.97005 0.0
C162 C 0.3853 0.58418 0.93959 0.0
C163 C 0.46319 0.60563 0.90351 0.0
N164 N 0.63332 0.6667 0.82186 0.0
C165 C 0.56361 0.71017 0.82575 0.0
C166 C 0.59173 0.79794 0.79279 0.0
C167 C 0.68522 0.81018 0.76677 0.0
C168 C 0.70875 0.72914 0.78551 0.0
N169 N 0.49713 0.42063 0.83675 0.0
C170 C 0.3023 0.24556 0.79776 0.0
C171 C 0.38165 0.35029 0.77278 0.0
C172 C 0.4794 0.43538 0.79256 0.0
C173 C 0.32027 0.23047 0.84278 0.0
C174 C 0.418 0.3191 0.86155 0.0
N175 N 0.76824 0.67739 0.88931 0.0
C176 C 0.85511 0.86103 0.9261 0.0
C177 C 0.9606 0.86595 0.92584 0.0
C178 C 0.96858 0.77576 0.90602 0.0
C179 C 0.87154 0.68208 0.88847 0.0
C180 C 0.76092 0.76734 0.90706 0.0
H181 H 0.88028 0.61321 0.87464 0.0
H182 H 0.68247 0.7688 0.90695 0.0
H183 H 0.54193 0.51096 0.77105 0.0
H184 H 0.43083 0.3029 0.89543 0.0
C185 C 0.73994 0.3745 0.85481 0.0
C186 C 0.79449 0.70341 0.76618 0.0
C187 C 0.50554 0.40564 0.96944 0.0
C188 C 0.48381 0.67621 0.86371 0.0
H189 H 0.86424 0.56657 0.7157 0.0
H190 H 0.83689 0.38325 0.76572 0.0
H191 H 0.75212 0.27696 0.94041 0.0
H192 H 0.64083 0.3193 0.00623 0.0
H193 H 0.34496 0.47346 0.00215 0.0
H194 H 0.32667 0.61624 0.94306 0.0
H195 H 0.55125 0.84908 0.78877 0.0
H196 H 0.72925 0.86987 0.73708 0.0
H197 H 0.3733 0.36279 0.73721 0.0
H198 H 0.26208 0.14856 0.86271 0.0
H199 H 0.84516 0.92877 0.94094 0.0
H200 H 0.04826 0.77485 0.90544 0.0
loop_
_geom_bond_atom_site_label_1
_geom_bond_atom_site_label_2
_geom_bond_distance
_geom_bond_site_symmetry_2
_ccdc_geom_bond_type
Zn0 O3 2.031 1_556 S
Zn0 O5 2.049 1_565 S
Zn0 O10 2.067 . S
Zn1 O2 1.962 . S
Zn1 O4 1.986 . S
Zn1 O6 1.996 . S
Zn1 O9 1.943 . S
O2 Zn1 1.962 . S
O2 C7 1.254 1_545 S
O3 Zn0 2.031 1_554 S
O3 C7 1.269 . S
O4 Zn1 1.986 . S
O4 C11 1.262 . S
O5 Zn0 2.049 1_545 S
O5 C13 1.260 . S
O6 Zn1 1.996 . S
O6 C13 1.257 1_554 S
C7 O2 1.254 1_565 S
C7 O3 1.269 . S
C8 O9 1.249 1_566 S
C8 O10 1.270 . S
O9 Zn1 1.943 . S
O9 C8 1.249 1_544 S
O10 Zn0 2.067 . S
O10 C8 1.270 . S
C11 O4 1.262 . S
C11 O12 1.232 . S
O12 C11 1.232 . S
C13 O5 1.260 . S
C13 O6 1.257 1_556 S
Zn14 O17 2.031 . S
Zn14 O19 2.049 . S
Zn14 O24 2.067 . S
Zn15 O16 1.962 . S
Zn15 O18 1.986 1_455 S
Zn15 O20 1.996 . S
Zn15 O23 1.944 1_455 S
O16 Zn15 1.962 . S
O16 C21 1.254 . S
O17 Zn14 2.031 . S
O17 C21 1.269 . S
O18 Zn15 1.986 1_655 S
O18 C25 1.262 . S
O19 Zn14 2.049 . S
O19 C27 1.260 . S
O20 Zn15 1.996 . S
O20 C27 1.257 . S
C21 O16 1.254 . S
C21 O17 1.269 . S
C22 O23 1.245 1_455 S
C22 O24 1.270 . S
O23 Zn15 1.944 1_655 S
O23 C22 1.245 1_655 S
O24 Zn14 2.067 . S
O24 C22 1.270 . S
C25 O18 1.262 . S
C25 O26 1.232 . S
O26 C25 1.232 . S
C27 O19 1.260 . S
C27 O20 1.257 . S
Zn28 O31 2.031 1_565 S
Zn28 O33 2.049 . S
Zn28 O38 2.067 1_565 S
Zn29 O30 1.957 1_545 S
Zn29 O32 1.986 1_455 S
Zn29 O34 1.996 1_545 S
Zn29 O37 1.943 . S
O30 Zn29 1.957 1_565 S
O30 C35 1.257 1_565 S
O31 Zn28 2.031 1_545 S
O31 C35 1.269 . S
O32 Zn29 1.986 1_655 S
O32 C39 1.262 . S
O33 Zn28 2.049 . S
O33 C41 1.260 . S
O34 Zn29 1.996 1_565 S
O34 C41 1.257 . S
C35 O30 1.257 1_545 S
C35 O31 1.269 . S
C36 O37 1.249 . S
C36 O38 1.270 . S
O37 Zn29 1.943 . S
O37 C36 1.249 . S
O38 Zn28 2.067 1_545 S
O38 C36 1.270 . S
C39 O32 1.262 . S
C39 O40 1.232 1_655 S
O40 C39 1.232 1_455 S
C41 O33 1.260 . S
C41 O34 1.257 . S
C42 C43 1.443 . S
C42 N46 1.376 . S
C42 C80 1.389 . S
C43 C42 1.443 . S
C43 C44 1.340 . S
C43 H83 0.951 1_565 S
C44 C43 1.340 . S
C44 C45 1.439 . S
C44 H84 0.950 1_565 S
C45 C44 1.439 . S
C45 N46 1.374 . S
C45 C79 1.395 . S
N46 C42 1.376 . S
N46 C45 1.374 . S
N46 Co47 2.008 . S
Co47 N46 2.008 . S
Co47 N48 1.995 . S
Co47 N53 2.008 1_455 S
Co47 N58 1.995 1_455 S
Co47 N63 2.282 . S
Co47 N69 2.282 . S
N48 Co47 1.995 . S
N48 C49 1.376 . S
N48 C52 1.383 . S
C49 N48 1.376 . S
C49 C50 1.446 . S
C49 C79 1.391 . S
C50 C49 1.446 . S
C50 C51 1.339 . S
C50 H85 0.949 . S
C51 C50 1.339 . S
C51 C52 1.439 . S
C51 H86 0.950 . S
C52 N48 1.383 . S
C52 C51 1.439 . S
C52 C81 1.392 . S
N53 Co47 2.008 1_655 S
N53 C54 1.376 . S
N53 C57 1.374 . S
C54 N53 1.376 . S
C54 C55 1.443 . S
C54 C81 1.389 1_655 S
C55 C54 1.443 . S
C55 C56 1.340 . S
C55 H87 0.951 . S
C56 C55 1.340 . S
C56 C57 1.439 . S
C56 H88 0.950 . S
C57 N53 1.374 . S
C57 C56 1.439 . S
C57 C82 1.395 . S
N58 Co47 1.995 1_655 S
N58 C59 1.376 . S
N58 C62 1.383 . S
C59 N58 1.376 . S
C59 C60 1.446 . S
C59 C82 1.391 . S
C60 C59 1.446 . S
C60 C61 1.339 . S
C60 H89 0.949 . S
C61 C60 1.339 . S
C61 C62 1.439 . S
C61 H90 0.950 . S
C62 N58 1.383 . S
C62 C61 1.439 . S
C62 C80 1.392 1_655 S
N63 Co47 2.282 . S
N63 C66 1.332 . S
N63 C68 1.332 . S
C64 C65 1.386 . S
C64 C67 1.388 . S
C65 C64 1.386 . S
C65 C66 1.382 . S
C65 H91 0.950 1_455 S
C66 N63 1.332 . S
C66 C65 1.382 . S
C66 H77 0.952 1_455 S
C67 C64 1.388 . S
C67 C68 1.382 . S
C67 H92 0.950 . S
C68 N63 1.332 . S
C68 C67 1.382 . S
C68 H78 0.948 . S
N69 Co47 2.282 . S
N69 C73 1.332 . S
N69 C74 1.332 1_455 S
C70 C71 1.388 1_655 S
C70 C74 1.382 . S
C70 H93 0.950 . S
C71 C70 1.388 1_455 S
C71 C72 1.386 . S
C72 C71 1.386 . S
C72 C73 1.382 . S
C72 H94 0.950 . S
C73 N69 1.332 . S
C73 C72 1.382 . S
C73 H75 0.952 . S
C74 N69 1.332 1_655 S
C74 C70 1.382 . S
C74 H76 0.948 . S
H75 C73 0.952 . S
H76 C74 0.948 . S
H77 C66 0.952 1_655 S
H78 C68 0.948 . S
C79 C45 1.395 . S
C79 C49 1.391 . S
C80 C42 1.389 . S
C80 C62 1.392 1_455 S
C81 C52 1.392 . S
C81 C54 1.389 1_455 S
C82 C57 1.395 . S
C82 C59 1.391 . S
H83 C43 0.951 1_545 S
H84 C44 0.950 1_545 S
H85 C50 0.949 . S
H86 C51 0.950 . S
H87 C55 0.951 . S
H88 C56 0.950 . S
H89 C60 0.949 . S
H90 C61 0.950 . S
H91 C65 0.950 1_655 S
H92 C67 0.950 . S
H93 C70 0.950 . S
H94 C72 0.950 . S
C95 C96 1.443 1_545 S
C95 N99 1.381 . S
C95 C133 1.389 . S
C96 C95 1.443 1_565 S
C96 C97 1.340 . S
C96 H136 0.951 . S
C97 C96 1.340 . S
C97 C98 1.439 . S
C97 H137 0.950 . S
C98 C97 1.439 . S
C98 N99 1.366 1_565 S
C98 C132 1.395 . S
N99 C95 1.381 . S
N99 C98 1.366 1_545 S
N99 Co100 2.012 . S
Co100 N99 2.012 . S
Co100 N101 1.995 . S
Co100 N106 2.008 . S
Co100 N111 1.995 . S
Co100 N116 2.282 . S
Co100 N122 2.282 . S
N101 Co100 1.995 . S
N101 C102 1.376 1_545 S
N101 C105 1.383 . S
C102 N101 1.376 1_565 S
C102 C103 1.446 . S
C102 C132 1.391 . S
C103 C102 1.446 . S
C103 C104 1.339 . S
C103 H138 0.949 . S
C104 C103 1.339 . S
C104 C105 1.439 1_565 S
C104 H139 0.950 . S
C105 N101 1.383 . S
C105 C104 1.439 1_545 S
C105 C134 1.392 . S
N106 Co100 2.008 . S
N106 C107 1.376 . S
N106 C110 1.374 . S
C107 N106 1.376 . S
C107 C108 1.443 . S
C107 C134 1.389 . S
C108 C107 1.443 . S
C108 C109 1.340 . S
C108 H140 0.951 1_655 S
C109 C108 1.340 . S
C109 C110 1.439 . S
C109 H141 0.950 . S
C110 N106 1.374 . S
C110 C109 1.439 . S
C110 C135 1.395 . S
N111 Co100 1.995 . S
N111 C112 1.376 . S
N111 C115 1.383 . S
C112 N111 1.376 . S
C112 C113 1.446 . S
C112 C135 1.391 . S
C113 C112 1.446 . S
C113 C114 1.339 . S
C113 H142 0.949 . S
C114 C113 1.339 . S
C114 C115 1.439 . S
C114 H143 0.950 . S
C115 N111 1.383 . S
C115 C114 1.439 . S
C115 C133 1.392 . S
N116 Co100 2.282 . S
N116 C119 1.332 . S
N116 C121 1.332 . S
C117 C118 1.386 . S
C117 C120 1.388 . S
C118 C117 1.386 . S
C118 C119 1.382 . S
C118 H144 0.950 . S
C119 N116 1.332 . S
C119 C118 1.382 . S
C119 H130 0.952 . S
C120 C117 1.388 . S
C120 C121 1.382 . S
C120 H145 0.950 1_545 S
C121 N116 1.332 . S
C121 C120 1.382 . S
C121 H131 0.948 1_545 S
N122 Co100 2.282 . S
N122 C126 1.332 . S
N122 C127 1.332 . S
C123 C124 1.388 . S
C123 C127 1.382 . S
C123 H146 0.950 . S
C124 C123 1.388 . S
C124 C125 1.386 . S
C125 C124 1.386 . S
C125 C126 1.382 . S
C125 H147 0.950 . S
C126 N122 1.332 . S
C126 C125 1.382 . S
C126 H128 0.952 . S
C127 N122 1.332 . S
C127 C123 1.382 . S
C127 H129 0.948 . S
H128 C126 0.952 . S
H129 C127 0.948 . S
H130 C119 0.952 . S
H131 C121 0.948 1_565 S
C132 C98 1.395 . S
C132 C102 1.391 . S
C133 C95 1.389 . S
C133 C115 1.392 . S
C134 C105 1.392 . S
C134 C107 1.389 . S
C135 C110 1.395 . S
C135 C112 1.391 . S
H136 C96 0.951 . S
H137 C97 0.950 . S
H138 C103 0.949 . S
H139 C104 0.950 . S
H140 C108 0.951 1_455 S
H141 C109 0.950 . S
H142 C113 0.949 . S
H143 C114 0.950 . S
H144 C118 0.950 . S
H145 C120 0.950 1_565 S
H146 C123 0.950 . S
H147 C125 0.950 . S
C148 C149 1.443 1_655 S
C148 N152 1.376 . S
C148 C186 1.389 . S
C149 C148 1.443 1_455 S
C149 C150 1.340 1_455 S
C149 H189 0.951 . S
C150 C149 1.340 1_655 S
C150 C151 1.439 . S
C150 H190 0.950 1_655 S
C151 C150 1.439 . S
C151 N152 1.374 . S
C151 C185 1.395 . S
N152 C148 1.376 . S
N152 C151 1.374 . S
N152 Co153 2.008 . S
Co153 N152 2.008 . S
Co153 N154 1.995 . S
Co153 N159 2.008 . S
Co153 N164 1.995 . S
Co153 N169 2.282 . S
Co153 N175 2.282 . S
N154 Co153 1.995 . S
N154 C155 1.376 . S
N154 C158 1.383 . S
C155 N154 1.376 . S
C155 C156 1.446 . S
C155 C185 1.391 . S
C156 C155 1.446 . S
C156 C157 1.339 . S
C156 H191 0.949 . S
C157 C156 1.339 . S
C157 C158 1.439 . S
C157 H192 0.950 . S
C158 N154 1.383 . S
C158 C157 1.439 . S
C158 C187 1.392 . S
N159 Co153 2.008 . S
N159 C160 1.376 . S
N159 C163 1.374 . S
C160 N159 1.376 . S
C160 C161 1.443 . S
C160 C187 1.389 . S
C161 C160 1.443 . S
C161 C162 1.340 . S
C161 H193 0.951 . S
C162 C161 1.340 . S
C162 C163 1.439 . S
C162 H194 0.950 . S
C163 N159 1.374 . S
C163 C162 1.439 . S
C163 C188 1.395 . S
N164 Co153 1.995 . S
N164 C165 1.376 . S
N164 C168 1.383 . S
C165 N164 1.376 . S
C165 C166 1.446 . S
C165 C188 1.391 . S
C166 C165 1.446 . S
C166 C167 1.339 . S
C166 H195 0.949 . S
C167 C166 1.339 . S
C167 C168 1.439 . S
C167 H196 0.950 . S
C168 N164 1.383 . S
C168 C167 1.439 . S
C168 C186 1.392 . S
N169 Co153 2.282 . S
N169 C172 1.332 . S
N169 C174 1.332 . S
C170 C171 1.386 . S
C170 C173 1.388 . S
C171 C170 1.386 . S
C171 C172 1.382 . S
C171 H197 0.950 . S
C172 N169 1.332 . S
C172 C171 1.382 . S
C172 H183 0.952 . S
C173 C170 1.388 . S
C173 C174 1.382 . S
C173 H198 0.950 . S
C174 N169 1.332 . S
C174 C173 1.382 . S
C174 H184 0.948 . S
N175 Co153 2.282 . S
N175 C179 1.332 . S
N175 C180 1.332 . S
C176 C177 1.388 . S
C176 C180 1.382 . S
C176 H199 0.950 . S
C177 C176 1.388 . S
C177 C178 1.386 . S
C178 C177 1.386 . S
C178 C179 1.382 . S
C178 H200 0.950 1_655 S
C179 N175 1.332 . S
C179 C178 1.382 . S
C179 H181 0.952 . S
C180 N175 1.332 . S
C180 C176 1.382 . S
C180 H182 0.948 . S
H181 C179 0.952 . S
H182 C180 0.948 . S
H183 C172 0.952 . S
H184 C174 0.948 . S
C185 C151 1.395 . S
C185 C155 1.391 . S
C186 C148 1.389 . S
C186 C168 1.392 . S
C187 C158 1.392 . S
C187 C160 1.389 . S
C188 C163 1.395 . S
C188 C165 1.391 . S
H189 C149 0.951 . S
H190 C150 0.950 1_455 S
H191 C156 0.949 . S
H192 C157 0.950 . S
H193 C161 0.951 . S
H194 C162 0.950 . S
H195 C166 0.949 . S
H196 C167 0.950 . S
H197 C171 0.950 . S
H198 C173 0.950 . S
H199 C176 0.950 . S
H200 C178 0.950 1_455 S
C64 C11 1.314 . S
C25 C134 1.584 . S
C41 C186 1.527 1_455 S
C7 C80 1.599 . S
C124 C21 1.507 . S
C36 C170 1.481 . S
C117 C39 1.403 . S
C8 C177 1.461 1_455 S
C71 C22 1.498 1_565 S
C133 C35 1.675 . S
C187 C13 1.501 . S
C27 C81 1.876 . S
