# Generated by pormake.
# Topology nia, (6,6)-cn, num edge types: 1
# Building blocks:
#     Node 0, Type 0, BuildingBlock: INOVEN_clean_sbu_0, # of connection points: 6
#     Node 1, Type 0, BuildingBlock: INOVEN_clean_sbu_0, # of connection points: 6
#     Node 2, Type 1, BuildingBlock: MIDCAF_clean_sbu_0, # of connection points: 6
#     Node 3, Type 1, BuildingBlock: MIDCAF_clean_sbu_0, # of connection points: 6
#     Edge 4, Type (0, 1), None
#     Edge 5, Type (0, 1), None
#     Edge 6, Type (0, 1), None
#     Edge 7, Type (0, 1), None
#     Edge 8, Type (0, 1), None
#     Edge 9, Type (0, 1), None
#     Edge 10, Type (0, 1), None
#     Edge 11, Type (0, 1), None
#     Edge 12, Type (0, 1), None
#     Edge 13, Type (0, 1), None
#     Edge 14, Type (0, 1), None
#     Edge 15, Type (0, 1), None
# Relax obj value: 0.526
# Max RMSD: 0.336
# Mean RMSD: 0.315
data_MOF--net-nia--node1-INOVEN_clean_sbu_0--node2-MIDCAF_clean_sbu_0--edge1-none
_symmetry_space_group_name_H-M    P1
_symmetry_Int_Tables_number       1
_symmetry_cell_setting            triclinic
loop_
_symmetry_equiv_pos_as_xyz
'x, y, z'
_cell_length_a     12.405757
_cell_length_b     15.946677
_cell_length_c     18.296434
_cell_angle_alpha  53.672659
_cell_angle_beta   112.98476
_cell_angle_gamma 132.11546
loop_
_atom_site_label
_atom_site_type_symbol
_atom_site_fract_x
_atom_site_fract_y
_atom_site_fract_z
_atom_type_partial_charge
Gd0 Gd 0.16052 0.09129 0.07902 0.0
Gd1 Gd 0.96567 0.9266 0.97426 0.0
C2 C 0.91272 0.12643 0.92687 0.0
C3 C 0.33725 0.29451 0.09666 0.0
C4 C 0.31889 0.368 0.10911 0.0
C5 C 0.22433 0.30607 0.17585 0.0
C6 C 0.40023 0.50291 0.05501 0.0
C7 C 0.31464 0.51437 0.14556 0.0
C8 C 0.39785 0.57575 0.07281 0.0
C9 C 0.22243 0.37897 0.19378 0.0
C10 C 0.88403 0.90634 0.14748 0.0
C11 C 0.21591 0.89256 0.12277 0.0
C12 C 0.78704 0.72292 0.95755 0.0
C13 C 0.80095 0.63261 0.96549 0.0
C14 C 0.87207 0.66554 0.8992 0.0
C15 C 0.74228 0.51014 0.0426 0.0
C16 C 0.81015 0.44973 0.98303 0.0
C17 C 0.74807 0.4203 0.05175 0.0
C18 C 0.8755 0.57397 0.90768 0.0
C19 C 0.24266 0.11406 0.9063 0.0
O20 O 1.02613 0.16699 0.97925 0.0
O21 O 0.86592 0.03288 0.91401 0.0
O22 O 0.29811 0.17912 0.16495 0.0
O23 O 0.30066 0.29975 1.01708 0.0
O24 O 0.99268 0.97771 0.18328 0.0
O25 O 0.93561 0.92542 0.08684 0.0
O26 O 0.10043 0.8505 0.07192 0.0
O27 O 0.26266 0.98614 0.13594 0.0
O28 O 0.84753 0.83956 0.88687 0.0
O29 O 0.80325 0.72122 0.03367 0.0
O30 O 0.13544 0.04206 0.87051 0.0
O31 O 0.18901 0.0924 0.96708 0.0
H32 H 0.15628 0.20182 0.21663 0.0
H33 H 0.47067 0.55241 1.00152 0.0
H34 H 0.46868 0.68012 0.03374 0.0
H35 H 0.15348 0.32968 0.24802 0.0
H36 H 0.92333 0.76103 0.84072 0.0
H37 H 0.68847 0.48239 0.09534 0.0
H38 H 0.69607 0.3249 0.11058 0.0
H39 H 0.9284 0.59979 0.85564 0.0
Gd40 Gd 0.95421 0.98089 0.58873 0.0
Gd41 Gd 0.17632 0.03532 0.49379 0.0
C42 C 0.84591 0.89926 0.43055 0.0
C43 C 0.80572 0.02022 0.60914 0.0
C44 C 0.72071 0.04437 0.6194 0.0
C45 C 0.68204 -0.00791 0.7067 0.0
C46 C 0.71487 0.14651 0.54594 0.0
C47 C 0.68942 0.17527 0.65177 0.0
C48 C 0.69733 0.21108 0.5621 0.0
C49 C 0.6661 0.05793 0.72305 0.0
C50 C 0.91346 0.75758 0.65511 0.0
C51 C 0.28818 0.11938 0.64938 0.0
C52 C 0.32861 0.00236 0.46991 0.0
C53 C 0.41623 0.98345 0.45613 0.0
C54 C 0.45181 0.03736 0.3674 0.0
C55 C 0.42537 0.88265 0.52758 0.0
C56 C 0.43966 0.85361 0.4174 0.0
C57 C 0.4387 0.81844 0.50826 0.0
C58 C 0.46296 0.97148 0.34771 0.0
C59 C 0.22233 0.25882 0.43397 0.0
O60 O 0.81777 0.91532 0.48299 0.0
O61 O 0.97603 0.94104 0.42073 0.0
O62 O 0.85462 0.9561 0.6795 0.0
O63 O 0.83742 0.06188 0.52806 0.0
O64 O 0.84256 0.76541 0.68477 0.0
O65 O 1.00757 0.87075 0.59867 0.0
O66 O 0.31433 0.09768 0.6004 0.0
O67 O 0.15938 0.0831 0.65606 0.0
O68 O 0.28127 0.0688 0.40102 0.0
O69 O 0.28908 0.95076 0.55184 0.0
O70 O 0.2931 0.25271 0.4026 0.0
O71 O 0.12555 0.14482 0.48717 0.0
H72 H 0.68035 0.90959 0.76356 0.0
H73 H 0.73991 0.1857 0.47741 0.0
H74 H 0.70441 0.29626 0.50507 0.0
H75 H 0.64894 0.02354 0.79201 0.0
H76 H 0.45258 0.12004 0.3121 0.0
H77 H 0.40438 0.84317 0.59719 0.0
H78 H 0.43337 0.73368 0.5643 0.0
H79 H 0.4755 0.00578 0.2778 0.0
Zn80 Zn 0.47138 0.86626 0.0273 0.0
Zn81 Zn 0.41833 0.57646 0.44181 0.0
Zn82 Zn 0.47142 0.7116 0.28267 0.0
C83 C 0.71984 0.80108 0.40379 0.0
C84 C 0.28138 0.37905 0.42881 0.0
O85 O 0.35525 0.80367 0.22371 0.0
O86 O 0.351 0.87693 0.07445 0.0
C87 C 0.73263 0.85651 0.15416 0.0
O88 O 0.69481 0.82188 0.32162 0.0
O89 O 0.62574 0.69723 0.4655 0.0
O90 O 0.29459 0.38259 0.49906 0.0
O91 O 0.34041 0.48641 0.35315 0.0
O92 O 0.65939 0.86954 0.08114 0.0
O93 O 0.68805 0.82165 0.2272 0.0
O94 O 0.34359 0.54667 0.26531 0.0
O95 O 0.39724 0.70686 0.13425 0.0
C96 C 0.34253 0.58958 0.1809 0.0
O97 O 0.4313 0.79588 0.31925 0.0
O98 O 0.37565 0.65365 0.46461 0.0
C99 C 0.31349 0.85599 0.14274 0.0
C100 C 0.41119 0.7632 0.39852 0.0
Zn101 Zn 0.62813 0.10912 0.02936 0.0
Zn102 Zn 0.70548 0.44455 0.63362 0.0
Zn103 Zn 0.67477 0.3179 0.79579 0.0
C104 C 0.85229 0.63639 0.66098 0.0
C105 C 0.41506 0.22041 0.67286 0.0
O106 O 0.79563 0.23701 0.83391 0.0
O107 O 0.74975 0.10579 0.98153 0.0
C108 C 0.78615 0.34393 0.98658 0.0
O109 O 0.79729 0.52976 0.73591 0.0
O110 O 0.83044 0.63369 0.58881 0.0
O111 O 0.49623 0.33077 0.608 0.0
O112 O 0.45448 0.19633 0.75521 0.0
O113 O 0.76847 0.2481 0.06339 0.0
O114 O 0.74335 0.33016 0.91627 0.0
O115 O 0.45127 0.21817 0.82811 0.0
O116 O 0.44905 0.11737 0.97834 0.0
C117 C 0.39267 0.15965 0.90355 0.0
O118 O 0.69193 0.2307 0.74849 0.0
O119 O 0.75687 0.37721 0.6048 0.0
C120 C 0.81119 0.15605 0.91121 0.0
C121 C 0.71403 0.26492 0.66925 0.0
loop_
_geom_bond_atom_site_label_1
_geom_bond_atom_site_label_2
_geom_bond_distance
_geom_bond_site_symmetry_2
_ccdc_geom_bond_type
Gd0 C3 2.818 . S
Gd0 O20 2.374 1_454 S
Gd0 O22 2.448 . S
Gd0 O23 2.506 . S
Gd0 O24 2.435 1_445 S
Gd0 O25 2.717 1_445 S
Gd0 O27 2.395 1_545 S
Gd0 O31 2.327 1_554 S
Gd1 C12 2.818 . S
Gd1 O21 2.395 1_565 S
Gd1 O25 2.327 1_556 S
Gd1 O26 2.377 1_656 S
Gd1 O28 2.448 . S
Gd1 O29 2.506 1_556 S
Gd1 O30 2.435 1_665 S
Gd1 O31 2.717 1_665 S
C2 O20 1.250 . S
C2 O21 1.240 . S
C3 Gd0 2.818 . S
C3 C4 1.510 . S
C3 O22 1.249 . S
C3 O23 1.252 . S
C4 C3 1.510 . S
C4 C5 1.404 . S
C4 C6 1.352 . S
C5 C4 1.404 . S
C5 C9 1.389 . S
C5 H32 0.930 . S
C6 C4 1.352 . S
C6 C8 1.374 . S
C6 H33 0.931 1_554 S
C7 C8 1.359 . S
C7 C9 1.364 . S
C8 C6 1.374 . S
C8 C7 1.359 . S
C8 H34 0.931 1_554 S
C9 C5 1.389 . S
C9 C7 1.364 . S
C9 H35 0.931 . S
C10 O24 1.256 . S
C10 O25 1.257 . S
C11 O26 1.240 . S
C11 O27 1.240 . S
C12 Gd1 2.818 . S
C12 C13 1.510 . S
C12 O28 1.249 . S
C12 O29 1.252 1_556 S
C13 C12 1.510 . S
C13 C14 1.404 . S
C13 C15 1.352 1_556 S
C14 C13 1.404 . S
C14 C18 1.389 . S
C14 H36 0.930 . S
C15 C13 1.352 1_554 S
C15 C17 1.374 . S
C15 H37 0.931 . S
C16 C17 1.359 1_556 S
C16 C18 1.364 . S
C17 C15 1.374 . S
C17 C16 1.359 1_554 S
C17 H38 0.931 . S
C18 C14 1.389 . S
C18 C16 1.364 . S
C18 H39 0.931 . S
C19 O30 1.256 . S
C19 O31 1.257 . S
O20 Gd0 2.374 1_656 S
O20 C2 1.250 . S
O21 Gd1 2.395 1_545 S
O21 C2 1.240 . S
O22 Gd0 2.448 . S
O22 C3 1.249 . S
O23 Gd0 2.506 . S
O23 C3 1.252 . S
O24 Gd0 2.435 1_665 S
O24 C10 1.256 . S
O25 Gd0 2.717 1_665 S
O25 Gd1 2.327 1_554 S
O25 C10 1.257 . S
O26 Gd1 2.377 1_454 S
O26 C11 1.240 . S
O27 Gd0 2.395 1_565 S
O27 C11 1.240 . S
O28 Gd1 2.448 . S
O28 C12 1.249 . S
O29 Gd1 2.506 1_554 S
O29 C12 1.252 1_554 S
O30 Gd1 2.435 1_445 S
O30 C19 1.256 . S
O31 Gd0 2.327 1_556 S
O31 Gd1 2.717 1_445 S
O31 C19 1.257 . S
H32 C5 0.930 . S
H33 C6 0.931 1_556 S
H34 C8 0.931 1_556 S
H35 C9 0.931 . S
H36 C14 0.930 . S
H37 C15 0.931 . S
H38 C17 0.931 . S
H39 C18 0.931 . S
Gd40 C43 2.818 . S
Gd40 O60 2.377 1_545 S
Gd40 O62 2.448 1_545 S
Gd40 O63 2.506 . S
Gd40 O64 2.435 1_545 S
Gd40 O65 2.717 1_545 S
Gd40 O67 2.395 1_655 S
Gd40 O71 2.327 1_655 S
Gd41 C52 2.818 1_545 S
Gd41 O61 2.395 1_445 S
Gd41 O65 2.327 1_445 S
Gd41 O66 2.377 . S
Gd41 O68 2.448 . S
Gd41 O69 2.506 1_545 S
Gd41 O70 2.435 . S
Gd41 O71 2.717 . S
C42 O60 1.240 . S
C42 O61 1.240 . S
C43 Gd40 2.818 . S
C43 C44 1.510 . S
C43 O62 1.249 1_545 S
C43 O63 1.252 . S
C44 C43 1.510 . S
C44 C45 1.404 1_545 S
C44 C46 1.352 . S
C45 C44 1.404 1_565 S
C45 C49 1.386 1_565 S
C45 H72 0.930 . S
C46 C44 1.352 . S
C46 C48 1.374 . S
C46 H73 0.931 . S
C47 C48 1.359 . S
C47 C49 1.366 . S
C48 C46 1.374 . S
C48 C47 1.359 . S
C48 H74 0.931 . S
C49 C45 1.386 1_545 S
C49 C47 1.366 . S
C49 H75 0.932 1_545 S
C50 O64 1.256 . S
C50 O65 1.257 . S
C51 O66 1.240 . S
C51 O67 1.240 . S
C52 Gd41 2.818 1_565 S
C52 C53 1.510 . S
C52 O68 1.249 1_565 S
C52 O69 1.252 . S
C53 C52 1.510 . S
C53 C54 1.404 1_565 S
C53 C55 1.352 . S
C54 C53 1.404 1_545 S
C54 C58 1.389 . S
C54 H76 0.930 . S
C55 C53 1.352 . S
C55 C57 1.374 . S
C55 H77 0.931 . S
C56 C57 1.359 . S
C56 C58 1.364 1_565 S
C57 C55 1.374 . S
C57 C56 1.359 . S
C57 H78 0.931 . S
C58 C54 1.389 . S
C58 C56 1.364 1_545 S
C58 H79 0.931 . S
C59 O70 1.256 . S
C59 O71 1.257 . S
O60 Gd40 2.377 1_565 S
O60 C42 1.240 . S
O61 Gd41 2.395 1_665 S
O61 C42 1.240 . S
O62 Gd40 2.448 1_565 S
O62 C43 1.249 1_565 S
O63 Gd40 2.506 . S
O63 C43 1.252 . S
O64 Gd40 2.435 1_565 S
O64 C50 1.256 . S
O65 Gd40 2.717 1_565 S
O65 Gd41 2.327 1_665 S
O65 C50 1.257 . S
O66 Gd41 2.377 . S
O66 C51 1.240 . S
O67 Gd40 2.395 1_455 S
O67 C51 1.240 . S
O68 Gd41 2.448 . S
O68 C52 1.249 1_545 S
O69 Gd41 2.506 1_565 S
O69 C52 1.252 . S
O70 Gd41 2.435 . S
O70 C59 1.256 . S
O71 Gd40 2.327 1_455 S
O71 Gd41 2.717 . S
O71 C59 1.257 . S
H72 C45 0.930 . S
H73 C46 0.931 . S
H74 C48 0.931 . S
H75 C49 0.932 1_565 S
H76 C54 0.930 . S
H77 C55 0.931 . S
H78 C57 0.931 . S
H79 C58 0.931 . S
Zn80 O86 1.920 . S
Zn80 O92 1.898 . S
Zn80 O95 1.905 . S
Zn81 O89 1.905 . S
Zn81 O90 1.898 . S
Zn81 O98 1.920 . S
Zn82 O85 2.080 . S
Zn82 O88 2.114 . S
Zn82 O91 2.120 . S
Zn82 O93 2.120 . S
Zn82 O94 2.114 . S
Zn82 O97 2.080 . S
C83 O88 1.166 . S
C83 O89 1.182 . S
C84 O90 1.167 . S
C84 O91 1.299 . S
O85 Zn82 2.080 . S
O85 C99 1.305 . S
O86 Zn80 1.920 . S
O86 C99 1.234 . S
C87 O92 1.167 . S
C87 O93 1.299 . S
O88 Zn82 2.114 . S
O88 C83 1.166 . S
O89 Zn81 1.905 . S
O89 C83 1.182 . S
O90 Zn81 1.898 . S
O90 C84 1.167 . S
O91 Zn82 2.120 . S
O91 C84 1.299 . S
O92 Zn80 1.898 . S
O92 C87 1.167 . S
O93 Zn82 2.120 . S
O93 C87 1.299 . S
O94 Zn82 2.114 . S
O94 C96 1.166 . S
O95 Zn80 1.905 . S
O95 C96 1.182 . S
C96 O94 1.166 . S
C96 O95 1.182 . S
O97 Zn82 2.080 . S
O97 C100 1.305 . S
O98 Zn81 1.920 . S
O98 C100 1.234 . S
C99 O85 1.305 . S
C99 O86 1.234 . S
C100 O97 1.305 . S
C100 O98 1.234 . S
Zn101 O107 1.920 . S
Zn101 O113 1.898 1_554 S
Zn101 O116 1.905 1_554 S
Zn102 O110 1.905 . S
Zn102 O111 1.898 . S
Zn102 O119 1.920 . S
Zn103 O106 2.080 . S
Zn103 O109 2.114 . S
Zn103 O112 2.120 . S
Zn103 O114 2.120 . S
Zn103 O115 2.114 . S
Zn103 O118 2.080 . S
C104 O109 1.166 . S
C104 O110 1.182 . S
C105 O111 1.167 . S
C105 O112 1.299 . S
O106 Zn103 2.080 . S
O106 C120 1.305 . S
O107 Zn101 1.920 . S
O107 C120 1.234 1_554 S
C108 O113 1.167 . S
C108 O114 1.299 . S
O109 Zn103 2.114 . S
O109 C104 1.166 . S
O110 Zn102 1.905 . S
O110 C104 1.182 . S
O111 Zn102 1.898 . S
O111 C105 1.167 . S
O112 Zn103 2.120 . S
O112 C105 1.299 . S
O113 Zn101 1.898 1_556 S
O113 C108 1.167 . S
O114 Zn103 2.120 . S
O114 C108 1.299 . S
O115 Zn103 2.114 . S
O115 C117 1.166 . S
O116 Zn101 1.905 1_556 S
O116 C117 1.182 . S
C117 O115 1.166 . S
C117 O116 1.182 . S
O118 Zn103 2.080 . S
O118 C121 1.305 . S
O119 Zn102 1.920 . S
O119 C121 1.234 . S
C120 O106 1.305 . S
C120 O107 1.234 1_556 S
C121 O118 1.305 . S
C121 O119 1.234 . S
C11 C99 2.786 . S
C51 C105 1.415 . S
C7 C96 1.367 . S
C47 C121 3.182 . S
C10 C87 3.429 . S
C104 C50 3.741 . S
C56 C100 2.338 . S
C117 C19 2.204 . S
C84 C59 3.201 . S
C120 C2 3.723 . S
C83 C42 2.804 . S
C108 C16 1.118 . S
