# Generated by pormake.
# Topology bcu-b, (8,8)-cn, num edge types: 1
# Building blocks:
#     Node 0, Type 0, BuildingBlock: TAGTUT_clean_sbu_1, # of connection points: 8
#     Node 1, Type 1, BuildingBlock: TAGTUT_clean_sbu_3, # of connection points: 8
#     Edge 2, Type (0, 1), BuildingBlock: XIVTED_clean_linker_0, # of connection points: 2
#     Edge 3, Type (0, 1), BuildingBlock: XIVTED_clean_linker_0, # of connection points: 2
#     Edge 4, Type (0, 1), BuildingBlock: XIVTED_clean_linker_0, # of connection points: 2
#     Edge 5, Type (0, 1), BuildingBlock: XIVTED_clean_linker_0, # of connection points: 2
#     Edge 6, Type (0, 1), BuildingBlock: XIVTED_clean_linker_0, # of connection points: 2
#     Edge 7, Type (0, 1), BuildingBlock: XIVTED_clean_linker_0, # of connection points: 2
#     Edge 8, Type (0, 1), BuildingBlock: XIVTED_clean_linker_0, # of connection points: 2
#     Edge 9, Type (0, 1), BuildingBlock: XIVTED_clean_linker_0, # of connection points: 2
# Relax obj value: 0.017
# Max RMSD: 0.085
# Mean RMSD: 0.074
data_MOF--net-bcu-b--node1-TAGTUT_clean_sbu_1--node2-TAGTUT_clean_sbu_3--edge1-XIVTED_clean_linker_0
_symmetry_space_group_name_H-M    P1
_symmetry_Int_Tables_number       1
_symmetry_cell_setting            triclinic
loop_
_symmetry_equiv_pos_as_xyz
'x, y, z'
_cell_length_a     19.760079
_cell_length_b     18.893073
_cell_length_c     21.38548
_cell_angle_alpha  91.157816
_cell_angle_beta   90.905905
_cell_angle_gamma 108.23412
loop_
_atom_site_label
_atom_site_type_symbol
_atom_site_fract_x
_atom_site_fract_y
_atom_site_fract_z
_atom_type_partial_charge
C0 C 0.88877 0.20333 0.03812 0.0
C1 C 0.95214 0.16244 0.85453 0.0
C2 C 0.87466 0.87143 0.93039 0.0
Mg3 Mg 0.02725 0.18409 -0.01536 0.0
O4 O 0.97924 0.08387 0.00116 0.0
Mg5 Mg 0.87969 0.03872 0.96768 0.0
Mg6 Mg 0.01728 0.00096 0.97736 0.0
O7 O 0.05437 0.91711 0.95477 0.0
Mg8 Mg 1.00556 0.82226 -0.01487 0.0
Mg9 Mg 0.15594 0.96315 -0.01676 0.0
C10 C 0.15881 0.13161 0.03276 0.0
C11 C 0.1256 0.05172 0.86298 0.0
O12 O 0.85486 0.13865 0.01453 0.0
O13 O 0.95682 0.23136 0.03554 0.0
O14 O 0.9043 0.10572 0.87578 0.0
O15 O 1.00696 0.19882 0.88745 0.0
O16 O 0.13289 0.18466 0.0204 0.0
O17 O 0.12258 0.06262 0.0241 0.0
C18 C 0.90394 0.94544 0.08776 0.0
O19 O 0.9647 0.94602 0.067 0.0
O20 O 0.86375 0.97646 0.05895 0.0
O21 O 0.17369 0.85595 0.9383 0.0
O22 O 0.06747 0.76522 0.93459 0.0
O23 O 0.1404 0.90763 0.07785 0.0
C24 C 0.13418 0.78924 0.9229 0.0
O25 O 0.03437 0.82107 0.08378 0.0
O26 O 0.89858 0.81981 0.9509 0.0
C27 C 0.09431 0.85908 0.10864 0.0
O28 O 0.91357 0.93995 0.92932 0.0
O29 O 0.06774 0.05485 0.88735 0.0
O30 O 0.16604 0.01944 0.88964 0.0
C31 C 0.61533 0.6207 0.58501 0.0
C32 C 0.72278 0.39209 0.5395 0.0
C33 C 0.63992 0.40735 0.35578 0.0
Mg34 Mg 0.47823 0.64756 0.51506 0.0
Mg35 Mg 0.34725 0.49929 0.46837 0.0
O36 O 0.44384 0.55643 0.45896 0.0
Mg37 Mg 0.51463 0.50569 0.48388 0.0
O38 O 0.58828 0.4595 0.51022 0.0
Mg39 Mg 0.67596 0.53372 0.47653 0.0
Mg40 Mg 0.57053 0.36158 0.47926 0.0
C41 C 0.40601 0.38829 0.38726 0.0
O42 O 0.4347 0.41749 0.54098 0.0
O43 O 0.39333 0.68822 0.45948 0.0
O44 O 0.46458 0.31459 0.51633 0.0
O45 O 0.39687 0.60272 0.58976 0.0
O46 O 0.30718 0.58222 0.42938 0.0
O47 O 0.31583 0.49382 0.56566 0.0
O48 O 0.59927 0.58883 0.42835 0.0
O49 O 0.56545 0.69006 0.44335 0.0
C50 C 0.60819 0.65811 0.42008 0.0
C51 C 0.33308 0.65357 0.43175 0.0
O52 O 0.471 0.42446 0.40219 0.0
O53 O 0.7391 0.46247 0.5285 0.0
O54 O 0.35238 0.40263 0.41175 0.0
O55 O 0.67702 0.46618 0.38576 0.0
O56 O 0.6619 0.34553 0.52402 0.0
O57 O 0.58687 0.36035 0.38054 0.0
O58 O 0.55241 0.58968 0.56276 0.0
O59 O 0.66947 0.60476 0.56387 0.0
C60 C 0.34376 0.54776 0.60439 0.0
C61 C 0.42299 0.34663 0.54185 0.0
H62 H 0.27255 0.25915 0.03074 0.0
H63 H 0.29863 0.25653 0.37786 0.0
H64 H 0.19371 0.04928 0.12308 0.0
H65 H 0.48166 0.39281 0.28122 0.0
H66 H 0.26425 0.17487 0.28473 0.0
H67 H 0.35871 0.30616 0.11713 0.0
C68 C 0.27524 0.22209 0.06805 0.0
C69 C 0.22534 0.15073 0.07044 0.0
C70 C 0.31299 0.22152 0.28445 0.0
C71 C 0.32154 0.20463 0.16972 0.0
C72 C 0.33213 0.26833 0.33728 0.0
C73 C 0.39215 0.33181 0.33645 0.0
C74 C 0.35276 0.24011 0.22994 0.0
C75 C 0.43452 0.34452 0.28321 0.0
C76 C 0.32438 0.24883 0.11725 0.0
C77 C 0.2311 0.10473 0.11961 0.0
N78 N 0.41281 0.30025 0.23113 0.0
N79 N 0.27665 0.13335 0.16857 0.0
H80 H 0.93755 0.34237 0.09521 0.0
H81 H 0.5778 0.2871 0.27691 0.0
H82 H 0.74551 0.15782 0.0593 0.0
H83 H 0.76043 0.48551 0.29548 0.0
H84 H 0.633 0.24625 0.18767 0.0
H85 H 0.86959 0.40242 0.16019 0.0
C86 C 0.88106 0.31474 0.10046 0.0
C87 C 0.84756 0.24437 0.07243 0.0
C88 C 0.66056 0.29924 0.21074 0.0
C89 C 0.76945 0.31269 0.14695 0.0
C90 C 0.62897 0.32266 0.26169 0.0
C91 C 0.66519 0.38905 0.29465 0.0
C92 C 0.72911 0.34216 0.19304 0.0
C93 C 0.73097 0.43329 0.27219 0.0
C94 C 0.84219 0.34916 0.13747 0.0
C95 C 0.77396 0.21165 0.0805 0.0
N96 N 0.76134 0.40844 0.22347 0.0
N97 N 0.73765 0.24565 0.11757 0.0
H98 H 0.91345 0.81192 0.12777 0.0
H99 H 0.65824 0.80916 0.41401 0.0
H100 H 0.83233 0.99153 0.17847 0.0
H101 H 0.69302 0.60941 0.33978 0.0
H102 H 0.74523 0.88276 0.3425 0.0
H103 H 0.85574 0.74366 0.21909 0.0
C104 C 0.88517 0.83773 0.15908 0.0
C105 C 0.87776 0.90737 0.146 0.0
C106 C 0.73432 0.82288 0.34205 0.0
C107 C 0.81097 0.82976 0.24927 0.0
C108 C 0.68452 0.7807 0.38288 0.0
C109 C 0.66727 0.70279 0.38201 0.0
C110 C 0.76704 0.78711 0.29958 0.0
C111 C 0.70426 0.66928 0.34153 0.0
C112 C 0.85163 0.79852 0.21068 0.0
C113 C 0.83885 0.93766 0.18686 0.0
N114 N 0.75191 0.71164 0.3012 0.0
N115 N 0.8067 0.89856 0.23651 0.0
H116 H 0.027 0.7408 0.1823 0.0
H117 H 0.3777 0.79987 0.39472 0.0
H118 H 0.21263 0.93629 0.1782 0.0
H119 H 0.19332 0.60282 0.39434 0.0
H120 H 0.31037 0.86056 0.32903 0.0
H121 H 0.07839 0.69995 0.27432 0.0
C122 C 0.07783 0.77585 0.20135 0.0
C123 C 0.11614 0.84124 0.17154 0.0
C124 C 0.28447 0.80432 0.34402 0.0
C125 C 0.17578 0.79443 0.27635 0.0
C126 C 0.32291 0.76976 0.38161 0.0
C127 C 0.29169 0.69568 0.39913 0.0
C128 C 0.21439 0.76448 0.32398 0.0
C129 C 0.22024 0.6595 0.38097 0.0
C130 C 0.1074 0.75235 0.25377 0.0
C131 C 0.18164 0.88471 0.1988 0.0
N132 N 0.18441 0.69389 0.34397 0.0
N133 N 0.20982 0.85999 0.24896 0.0
H134 H 0.27561 0.80563 0.90637 0.0
H135 H 0.20225 0.49633 0.63537 0.0
H136 H 0.06455 0.6585 0.85904 0.0
H137 H 0.41136 0.61694 0.71057 0.0
H138 H 0.1495 0.54189 0.72473 0.0
H139 H 0.32573 0.72776 0.8414 0.0
C140 C 0.23978 0.7567 0.88264 0.0
C141 C 0.16572 0.73921 0.88773 0.0
C142 C 0.20695 0.55696 0.72235 0.0
C143 C 0.2228 0.64961 0.81266 0.0
C144 C 0.237 0.53031 0.67168 0.0
C145 C 0.31118 0.55396 0.66513 0.0
C146 C 0.25165 0.60765 0.76619 0.0
C147 C 0.3538 0.59842 0.7133 0.0
C148 C 0.26843 0.71191 0.8457 0.0
C149 C 0.12199 0.67448 0.85629 0.0
N150 N 0.32349 0.62484 0.76109 0.0
N151 N 0.15112 0.63264 0.81944 0.0
H152 H 0.10752 0.18028 0.82071 0.0
H153 H 0.36222 0.19553 0.5324 0.0
H154 H 0.19713 0.00655 0.77118 0.0
H155 H 0.34431 0.39118 0.62961 0.0
H156 H 0.27048 0.11778 0.59887 0.0
H157 H 0.1626 0.24919 0.72901 0.0
C158 C 0.13722 0.15588 0.78967 0.0
C159 C 0.14855 0.08827 0.80359 0.0
C160 C 0.28584 0.17786 0.60474 0.0
C161 C 0.21143 0.16614 0.69949 0.0
C162 C 0.33828 0.22226 0.56706 0.0
C163 C 0.3613 0.30003 0.57583 0.0
C164 C 0.25624 0.21147 0.65138 0.0
C165 C 0.32767 0.33164 0.6208 0.0
C166 C 0.16897 0.19532 0.73774 0.0
C167 C 0.18817 0.0592 0.7624 0.0
N168 N 0.27723 0.28714 0.65745 0.0
N169 N 0.21867 0.0986 0.71232 0.0
H170 H 0.01542 0.30309 0.81096 0.0
H171 H 0.72214 0.24811 0.53743 0.0
H172 H 0.85363 0.09482 0.76244 0.0
H173 H 0.83871 0.46447 0.61732 0.0
H174 H 0.79176 0.19185 0.60285 0.0
H175 H 0.97267 0.36164 0.72414 0.0
C176 C 0.97198 0.26913 0.78128 0.0
C177 C 0.93746 0.19392 0.79463 0.0
C178 C 0.80272 0.25171 0.60586 0.0
C179 C 0.8884 0.26098 0.69534 0.0
C180 C 0.76291 0.28412 0.56845 0.0
C181 C 0.77353 0.36122 0.57266 0.0
C182 C 0.85387 0.29629 0.6483 0.0
C183 C 0.82831 0.40482 0.61286 0.0
C184 C 0.94735 0.3029 0.73202 0.0
C185 C 0.88145 0.15301 0.75446 0.0
N186 N 0.86593 0.37158 0.64983 0.0
N187 N 0.8584 0.18719 0.70706 0.0
H188 H 0.7673 0.73813 0.93434 0.0
H189 H 0.71118 0.75876 0.59416 0.0
H190 H 0.82302 0.95427 0.85048 0.0
H191 H 0.54475 0.60215 0.69457 0.0
H192 H 0.7446 0.83704 0.6891 0.0
H193 H 0.67359 0.69068 0.85426 0.0
C194 C 0.75843 0.7762 0.90031 0.0
C195 C 0.80472 0.84944 0.89757 0.0
C196 C 0.69939 0.78667 0.69006 0.0
C197 C 0.69892 0.79534 0.80576 0.0
C198 C 0.68088 0.74192 0.63613 0.0
C199 C 0.62613 0.67403 0.63749 0.0
C200 C 0.66477 0.76146 0.74605 0.0
C201 C 0.58775 0.65426 0.69242 0.0
C202 C 0.70469 0.74918 0.85481 0.0
C203 C 0.78982 0.89681 0.85335 0.0
N204 N 0.60931 0.69676 0.74547 0.0
N205 N 0.73973 0.86824 0.80769 0.0
loop_
_geom_bond_atom_site_label_1
_geom_bond_atom_site_label_2
_geom_bond_distance
_geom_bond_site_symmetry_2
_ccdc_geom_bond_type
C0 O12 1.241 . S
C0 O13 1.280 . S
C1 O14 1.277 . S
C1 O15 1.245 . S
C2 O26 1.247 . S
C2 O28 1.289 . S
Mg3 O4 1.926 . S
Mg3 O13 1.984 . S
Mg3 O15 1.988 1_554 S
Mg3 O16 2.061 1_655 S
O4 Mg3 1.926 . S
O4 Mg5 1.986 . S
O4 Mg6 1.930 1_655 S
Mg5 O4 1.986 . S
Mg5 O12 2.042 . S
Mg5 O14 2.041 1_554 S
Mg5 O20 2.038 1_545 S
Mg5 O28 2.238 1_544 S
Mg6 O4 1.930 1_455 S
Mg6 O7 1.903 1_544 S
Mg6 O17 2.109 . S
Mg6 O19 2.070 1_445 S
Mg6 O28 2.104 1_444 S
Mg6 O29 2.087 1_554 S
O7 Mg6 1.903 1_566 S
O7 Mg8 1.926 . S
O7 Mg9 1.988 1_556 S
Mg8 O7 1.926 . S
Mg8 O22 1.984 . S
Mg8 O25 1.988 1_556 S
Mg8 O26 2.061 1_455 S
Mg9 O7 1.988 1_554 S
Mg9 O17 2.232 1_565 S
Mg9 O21 2.048 1_554 S
Mg9 O23 2.045 . S
Mg9 O30 2.034 1_564 S
C10 O16 1.247 . S
C10 O17 1.289 . S
C11 O29 1.245 . S
C11 O30 1.274 . S
O12 C0 1.241 . S
O12 Mg5 2.042 . S
O13 C0 1.280 . S
O13 Mg3 1.984 . S
O14 C1 1.277 . S
O14 Mg5 2.041 1_556 S
O15 C1 1.245 . S
O15 Mg3 1.988 1_556 S
O16 Mg3 2.061 1_455 S
O16 C10 1.247 . S
O17 Mg6 2.109 . S
O17 Mg9 2.232 1_545 S
O17 C10 1.289 . S
C18 O19 1.245 . S
C18 O20 1.274 . S
O19 Mg6 2.070 1_665 S
O19 C18 1.245 . S
O20 Mg5 2.038 1_565 S
O20 C18 1.274 . S
O21 Mg9 2.048 1_556 S
O21 C24 1.241 . S
O22 Mg8 1.984 . S
O22 C24 1.280 . S
O23 Mg9 2.045 . S
O23 C27 1.277 . S
C24 O21 1.241 . S
C24 O22 1.280 . S
O25 Mg8 1.988 1_554 S
O25 C27 1.245 . S
O26 C2 1.247 . S
O26 Mg8 2.061 1_655 S
C27 O23 1.277 . S
C27 O25 1.245 . S
O28 C2 1.289 . S
O28 Mg5 2.238 1_566 S
O28 Mg6 2.104 1_666 S
O29 Mg6 2.087 1_556 S
O29 C11 1.245 . S
O30 Mg9 2.034 1_546 S
O30 C11 1.274 . S
C31 O58 1.312 . S
C31 O59 1.208 . S
C32 O53 1.331 . S
C32 O56 1.244 . S
C33 O55 1.264 . S
C33 O57 1.273 . S
Mg34 O36 1.936 . S
Mg34 O43 2.081 . S
Mg34 O45 2.023 . S
Mg34 O49 2.031 . S
Mg34 O58 2.291 . S
Mg35 O36 1.963 . S
Mg35 O46 1.942 . S
Mg35 O47 1.955 . S
Mg35 O54 1.986 . S
O36 Mg34 1.936 . S
O36 Mg35 1.963 . S
O36 Mg37 1.915 . S
Mg37 O36 1.915 . S
Mg37 O38 1.915 . S
Mg37 O42 2.013 . S
Mg37 O48 2.114 . S
Mg37 O52 2.013 . S
Mg37 O58 2.114 . S
O38 Mg37 1.915 . S
O38 Mg39 1.936 . S
O38 Mg40 1.963 . S
Mg39 O38 1.936 . S
Mg39 O48 2.291 . S
Mg39 O53 2.081 . S
Mg39 O55 2.023 . S
Mg39 O59 2.031 . S
Mg40 O38 1.963 . S
Mg40 O44 1.986 . S
Mg40 O56 1.942 . S
Mg40 O57 1.955 . S
C41 O52 1.191 . S
C41 O54 1.307 . S
O42 Mg37 2.013 . S
O42 C61 1.191 . S
O43 Mg34 2.081 . S
O43 C51 1.331 . S
O44 Mg40 1.986 . S
O44 C61 1.307 . S
O45 Mg34 2.023 . S
O45 C60 1.264 . S
O46 Mg35 1.942 . S
O46 C51 1.244 . S
O47 Mg35 1.955 . S
O47 C60 1.273 . S
O48 Mg37 2.114 . S
O48 Mg39 2.291 . S
O48 C50 1.312 . S
O49 Mg34 2.031 . S
O49 C50 1.208 . S
C50 O48 1.312 . S
C50 O49 1.208 . S
C51 O43 1.331 . S
C51 O46 1.244 . S
O52 Mg37 2.013 . S
O52 C41 1.191 . S
O53 C32 1.331 . S
O53 Mg39 2.081 . S
O54 Mg35 1.986 . S
O54 C41 1.307 . S
O55 C33 1.264 . S
O55 Mg39 2.023 . S
O56 C32 1.244 . S
O56 Mg40 1.942 . S
O57 C33 1.273 . S
O57 Mg40 1.955 . S
O58 C31 1.312 . S
O58 Mg34 2.291 . S
O58 Mg37 2.114 . S
O59 C31 1.208 . S
O59 Mg39 2.031 . S
C60 O45 1.264 . S
C60 O47 1.273 . S
C61 O42 1.191 . S
C61 O44 1.307 . S
H62 C68 0.930 . S
H63 C72 0.930 . S
H64 C77 0.929 . S
H65 C75 0.929 . S
H66 C70 0.929 . S
H67 C76 0.929 . S
C68 H62 0.930 . S
C68 C69 1.367 . S
C68 C76 1.378 . S
C69 C68 1.367 . S
C69 C77 1.433 . S
C70 H66 0.929 . S
C70 C72 1.378 . S
C70 C74 1.350 . S
C71 C74 1.463 . S
C71 C76 1.350 . S
C71 N79 1.427 . S
C72 H63 0.930 . S
C72 C70 1.378 . S
C72 C73 1.367 . S
C73 C72 1.367 . S
C73 C75 1.433 . S
C74 C70 1.350 . S
C74 C71 1.463 . S
C74 N78 1.427 . S
C75 H65 0.929 . S
C75 C73 1.433 . S
C75 N78 1.384 . S
C76 H67 0.929 . S
C76 C68 1.378 . S
C76 C71 1.350 . S
C77 H64 0.929 . S
C77 C69 1.433 . S
C77 N79 1.384 . S
N78 C74 1.427 . S
N78 C75 1.384 . S
N79 C71 1.427 . S
N79 C77 1.384 . S
H80 C86 0.930 . S
H81 C90 0.930 . S
H82 C95 0.929 . S
H83 C93 0.929 . S
H84 C88 0.929 . S
H85 C94 0.929 . S
C86 H80 0.930 . S
C86 C87 1.367 . S
C86 C94 1.378 . S
C87 C86 1.367 . S
C87 C95 1.433 . S
C88 H84 0.929 . S
C88 C90 1.378 . S
C88 C92 1.350 . S
C89 C92 1.463 . S
C89 C94 1.350 . S
C89 N97 1.427 . S
C90 H81 0.930 . S
C90 C88 1.378 . S
C90 C91 1.367 . S
C91 C90 1.367 . S
C91 C93 1.433 . S
C92 C88 1.350 . S
C92 C89 1.463 . S
C92 N96 1.427 . S
C93 H83 0.929 . S
C93 C91 1.433 . S
C93 N96 1.384 . S
C94 H85 0.929 . S
C94 C86 1.378 . S
C94 C89 1.350 . S
C95 H82 0.929 . S
C95 C87 1.433 . S
C95 N97 1.384 . S
N96 C92 1.427 . S
N96 C93 1.384 . S
N97 C89 1.427 . S
N97 C95 1.384 . S
H98 C104 0.930 . S
H99 C108 0.930 . S
H100 C113 0.929 . S
H101 C111 0.929 . S
H102 C106 0.929 . S
H103 C112 0.929 . S
C104 H98 0.930 . S
C104 C105 1.367 . S
C104 C112 1.378 . S
C105 C104 1.367 . S
C105 C113 1.433 . S
C106 H102 0.929 . S
C106 C108 1.378 . S
C106 C110 1.350 . S
C107 C110 1.463 . S
C107 C112 1.350 . S
C107 N115 1.427 . S
C108 H99 0.930 . S
C108 C106 1.378 . S
C108 C109 1.367 . S
C109 C108 1.367 . S
C109 C111 1.433 . S
C110 C106 1.350 . S
C110 C107 1.463 . S
C110 N114 1.427 . S
C111 H101 0.929 . S
C111 C109 1.433 . S
C111 N114 1.384 . S
C112 H103 0.929 . S
C112 C104 1.378 . S
C112 C107 1.350 . S
C113 H100 0.929 . S
C113 C105 1.433 . S
C113 N115 1.384 . S
N114 C110 1.427 . S
N114 C111 1.384 . S
N115 C107 1.427 . S
N115 C113 1.384 . S
H116 C122 0.930 . S
H117 C126 0.930 . S
H118 C131 0.929 . S
H119 C129 0.929 . S
H120 C124 0.929 . S
H121 C130 0.929 . S
C122 H116 0.930 . S
C122 C123 1.367 . S
C122 C130 1.378 . S
C123 C122 1.367 . S
C123 C131 1.433 . S
C124 H120 0.929 . S
C124 C126 1.378 . S
C124 C128 1.350 . S
C125 C128 1.463 . S
C125 C130 1.350 . S
C125 N133 1.427 . S
C126 H117 0.930 . S
C126 C124 1.378 . S
C126 C127 1.367 . S
C127 C126 1.367 . S
C127 C129 1.433 . S
C128 C124 1.350 . S
C128 C125 1.463 . S
C128 N132 1.427 . S
C129 H119 0.929 . S
C129 C127 1.433 . S
C129 N132 1.384 . S
C130 H121 0.929 . S
C130 C122 1.378 . S
C130 C125 1.350 . S
C131 H118 0.929 . S
C131 C123 1.433 . S
C131 N133 1.384 . S
N132 C128 1.427 . S
N132 C129 1.384 . S
N133 C125 1.427 . S
N133 C131 1.384 . S
H134 C140 0.930 . S
H135 C144 0.930 . S
H136 C149 0.929 . S
H137 C147 0.929 . S
H138 C142 0.929 . S
H139 C148 0.929 . S
C140 H134 0.930 . S
C140 C141 1.367 . S
C140 C148 1.378 . S
C141 C140 1.367 . S
C141 C149 1.433 . S
C142 H138 0.929 . S
C142 C144 1.378 . S
C142 C146 1.350 . S
C143 C146 1.463 . S
C143 C148 1.350 . S
C143 N151 1.427 . S
C144 H135 0.930 . S
C144 C142 1.378 . S
C144 C145 1.367 . S
C145 C144 1.367 . S
C145 C147 1.433 . S
C146 C142 1.350 . S
C146 C143 1.463 . S
C146 N150 1.427 . S
C147 H137 0.929 . S
C147 C145 1.433 . S
C147 N150 1.384 . S
C148 H139 0.929 . S
C148 C140 1.378 . S
C148 C143 1.350 . S
C149 H136 0.929 . S
C149 C141 1.433 . S
C149 N151 1.384 . S
N150 C146 1.427 . S
N150 C147 1.384 . S
N151 C143 1.427 . S
N151 C149 1.384 . S
H152 C158 0.930 . S
H153 C162 0.930 . S
H154 C167 0.929 . S
H155 C165 0.929 . S
H156 C160 0.929 . S
H157 C166 0.929 . S
C158 H152 0.930 . S
C158 C159 1.367 . S
C158 C166 1.378 . S
C159 C158 1.367 . S
C159 C167 1.433 . S
C160 H156 0.929 . S
C160 C162 1.378 . S
C160 C164 1.350 . S
C161 C164 1.463 . S
C161 C166 1.350 . S
C161 N169 1.427 . S
C162 H153 0.930 . S
C162 C160 1.378 . S
C162 C163 1.367 . S
C163 C162 1.367 . S
C163 C165 1.433 . S
C164 C160 1.350 . S
C164 C161 1.463 . S
C164 N168 1.427 . S
C165 H155 0.929 . S
C165 C163 1.433 . S
C165 N168 1.384 . S
C166 H157 0.929 . S
C166 C158 1.378 . S
C166 C161 1.350 . S
C167 H154 0.929 . S
C167 C159 1.433 . S
C167 N169 1.384 . S
N168 C164 1.427 . S
N168 C165 1.384 . S
N169 C161 1.427 . S
N169 C167 1.384 . S
H170 C176 0.930 . S
H171 C180 0.930 . S
H172 C185 0.929 . S
H173 C183 0.929 . S
H174 C178 0.929 . S
H175 C184 0.929 . S
C176 H170 0.930 . S
C176 C177 1.367 . S
C176 C184 1.378 . S
C177 C176 1.367 . S
C177 C185 1.433 . S
C178 H174 0.929 . S
C178 C180 1.378 . S
C178 C182 1.350 . S
C179 C182 1.463 . S
C179 C184 1.350 . S
C179 N187 1.427 . S
C180 H171 0.930 . S
C180 C178 1.378 . S
C180 C181 1.367 . S
C181 C180 1.367 . S
C181 C183 1.433 . S
C182 C178 1.350 . S
C182 C179 1.463 . S
C182 N186 1.427 . S
C183 H173 0.929 . S
C183 C181 1.433 . S
C183 N186 1.384 . S
C184 H175 0.929 . S
C184 C176 1.378 . S
C184 C179 1.350 . S
C185 H172 0.929 . S
C185 C177 1.433 . S
C185 N187 1.384 . S
N186 C182 1.427 . S
N186 C183 1.384 . S
N187 C179 1.427 . S
N187 C185 1.384 . S
H188 C194 0.930 . S
H189 C198 0.930 . S
H190 C203 0.929 . S
H191 C201 0.929 . S
H192 C196 0.929 . S
H193 C202 0.929 . S
C194 H188 0.930 . S
C194 C195 1.367 . S
C194 C202 1.378 . S
C195 C194 1.367 . S
C195 C203 1.433 . S
C196 H192 0.929 . S
C196 C198 1.378 . S
C196 C200 1.350 . S
C197 C200 1.463 . S
C197 C202 1.350 . S
C197 N205 1.427 . S
C198 H189 0.930 . S
C198 C196 1.378 . S
C198 C199 1.367 . S
C199 C198 1.367 . S
C199 C201 1.433 . S
C200 C196 1.350 . S
C200 C197 1.463 . S
C200 N204 1.427 . S
C201 H191 0.929 . S
C201 C199 1.433 . S
C201 N204 1.384 . S
C202 H193 0.929 . S
C202 C194 1.378 . S
C202 C197 1.350 . S
C203 H190 0.929 . S
C203 C195 1.433 . S
C203 N205 1.384 . S
N204 C200 1.427 . S
N204 C201 1.384 . S
N205 C197 1.427 . S
N205 C203 1.384 . S
C69 C10 1.041 . S
C73 C41 1.063 . S
C87 C0 1.629 . S
C91 C33 1.649 . S
C105 C18 1.417 . S
C109 C50 1.407 . S
C123 C27 1.645 . S
C127 C51 1.648 . S
C141 C24 1.634 . S
C145 C60 1.654 . S
C163 C61 1.386 . S
C159 C11 1.366 . S
C177 C1 1.633 . S
C181 C32 1.637 . S
C199 C31 1.092 . S
C195 C2 1.091 . S
