# Generated by pormake.
# Topology bcu-b, (8,8)-cn, num edge types: 1
# Building blocks:
#     Node 0, Type 0, BuildingBlock: VETTIZ_charged_sbu_0, # of connection points: 8
#     Node 1, Type 1, BuildingBlock: TAGTUT_clean_sbu_1, # of connection points: 8
#     Edge 2, Type (0, 1), BuildingBlock: EYOCIG_clean_linker_4, # of connection points: 2
#     Edge 3, Type (0, 1), BuildingBlock: EYOCIG_clean_linker_4, # of connection points: 2
#     Edge 4, Type (0, 1), BuildingBlock: EYOCIG_clean_linker_4, # of connection points: 2
#     Edge 5, Type (0, 1), BuildingBlock: EYOCIG_clean_linker_4, # of connection points: 2
#     Edge 6, Type (0, 1), BuildingBlock: EYOCIG_clean_linker_4, # of connection points: 2
#     Edge 7, Type (0, 1), BuildingBlock: EYOCIG_clean_linker_4, # of connection points: 2
#     Edge 8, Type (0, 1), BuildingBlock: EYOCIG_clean_linker_4, # of connection points: 2
#     Edge 9, Type (0, 1), BuildingBlock: EYOCIG_clean_linker_4, # of connection points: 2
# Relax obj value: 0.026
# Max RMSD: 0.115
# Mean RMSD: 0.086
data_MOF--net-bcu-b--node1-VETTIZ_charged_sbu_0--node2-TAGTUT_clean_sbu_1--edge1-EYOCIG_clean_linker_4
_symmetry_space_group_name_H-M    P1
_symmetry_Int_Tables_number       1
_symmetry_cell_setting            triclinic
loop_
_symmetry_equiv_pos_as_xyz
'x, y, z'
_cell_length_a     17.014745
_cell_length_b     16.153091
_cell_length_c     15.969038
_cell_angle_alpha  88.785596
_cell_angle_beta   92.645958
_cell_angle_gamma 99.305035
loop_
_atom_site_label
_atom_site_type_symbol
_atom_site_fract_x
_atom_site_fract_y
_atom_site_fract_z
_atom_type_partial_charge
Fe0 Fe 0.96029 0.89199 1.0209 0.0
O1 O 0.93602 0.98366 0.09314 0.0
Fe2 Fe 0.01909 -0.00188 0.83639 0.0
Fe3 Fe 0.94543 0.97957 0.21675 0.0
O4 O 0.02555 0.98573 0.95897 0.0
O5 O 0.02849 -0.00599 0.95999 0.0
O6 O 0.93895 -0.00807 0.09416 0.0
Fe7 Fe 0.00418 0.08568 0.03221 0.0
C8 C 0.8386 0.82075 0.15469 0.0
O9 O 0.05968 0.87839 0.09462 0.0
O10 O 0.01427 0.88411 0.22283 0.0
O11 O 0.07953 0.1717 0.95755 0.0
O12 O 0.11681 0.08984 0.85381 0.0
O13 O 0.07568 0.89447 0.84451 0.0
O14 O -0.0026 0.8086 0.93712 0.0
O15 O 0.04705 0.06645 0.2322 0.0
O16 O 0.1038 0.0786 0.10874 0.0
C17 C 0.04917 0.82216 0.87863 0.0
O18 O 0.90477 0.0992 0.95848 0.0
O19 O 0.95027 0.09358 0.8303 0.0
O20 O 0.88491 0.80598 0.09557 0.0
O21 O 0.84772 0.88783 0.19936 0.0
C22 C 0.06441 0.86449 0.17296 0.0
C23 C 0.10587 0.09147 0.18714 0.0
C24 C 0.9153 0.1555 0.17447 0.0
O25 O 0.88882 0.08321 0.20862 0.0
O26 O 0.96705 0.16907 0.11596 0.0
C27 C 0.12589 0.15692 0.89847 0.0
O28 O 0.91745 0.91128 0.82091 0.0
O29 O 0.86069 0.89914 0.94438 0.0
C30 C 0.90006 0.11311 0.88015 0.0
C31 C 0.8586 0.88631 0.86596 0.0
C32 C 0.24108 0.61967 0.63659 0.0
C33 C 0.31918 0.66147 0.38807 0.0
C34 C 0.38215 0.33287 0.41721 0.0
Mg35 Mg 0.40711 0.66585 0.56211 0.0
O36 O 0.39677 0.5497 0.56018 0.0
Mg37 Mg 0.29958 0.48215 0.50615 0.0
Mg38 Mg 0.48229 0.48884 0.52668 0.0
O39 O 0.56769 0.42791 0.49309 0.0
Mg40 Mg 0.5573 0.31174 0.49071 0.0
Mg41 Mg 0.6649 0.49536 0.54707 0.0
C42 C 0.58241 0.64492 0.63563 0.0
C43 C 0.59701 0.60563 0.39674 0.0
O44 O 0.22537 0.55513 0.58937 0.0
O45 O 0.30806 0.66881 0.63893 0.0
O46 O 0.29175 0.58386 0.40157 0.0
O47 O 0.37001 0.70441 0.43813 0.0
O48 O 0.52771 0.69022 0.6203 0.0
O49 O 0.57531 0.56775 0.61343 0.0
C50 C 0.36754 0.37207 0.65662 0.0
O51 O 0.43993 0.39762 0.63712 0.0
O52 O 0.30826 0.3924 0.61404 0.0
O53 O 0.73905 0.4225 0.46368 0.0
O54 O 0.65637 0.30891 0.41391 0.0
O55 O 0.67265 0.39343 0.65144 0.0
C56 C 0.72336 0.35804 0.41635 0.0
O57 O 0.59439 0.27294 0.61464 0.0
O58 O 0.43679 0.28742 0.4322 0.0
C59 C 0.6452 0.3158 0.6648 0.0
O60 O 0.38935 0.40981 0.44015 0.0
O61 O 0.52462 0.58007 0.41622 0.0
O62 O 0.65628 0.58528 0.43932 0.0
C63 C 0.21611 0.19746 0.26711 0.0
C64 C 0.16948 0.14987 0.22474 0.0
C65 C 0.26666 0.25322 0.32061 0.0
C66 C 0.31522 0.29645 0.36501 0.0
C67 C 0.8616 0.27444 0.25218 0.0
C68 C 0.89021 0.22621 0.21126 0.0
C69 C 0.82235 0.31655 0.30954 0.0
C70 C 0.78172 0.34098 0.36034 0.0
C71 C 0.71373 0.72093 0.20874 0.0
C72 C 0.77178 0.75875 0.17609 0.0
C73 C 0.65363 0.68404 0.2627 0.0
C74 C 0.61567 0.65017 0.31953 0.0
C75 C 0.17999 0.78655 0.23625 0.0
C76 C 0.12775 0.82204 0.20607 0.0
C77 C 0.23613 0.74349 0.27982 0.0
C78 C 0.27456 0.70688 0.32943 0.0
C79 C 0.10286 0.70328 0.80082 0.0
C80 C 0.07424 0.75146 0.8418 0.0
C81 C 0.14213 0.66122 0.74343 0.0
C82 C 0.18275 0.63677 0.69262 0.0
C83 C 0.2508 0.25676 0.84456 0.0
C84 C 0.19272 0.21892 0.87713 0.0
C85 C 0.31093 0.29367 0.79066 0.0
C86 C 0.3489 0.32754 0.73383 0.0
C87 C 0.78436 0.19081 0.81674 0.0
C88 C 0.83665 0.15543 0.84699 0.0
C89 C 0.72818 0.23375 0.77308 0.0
C90 C 0.68974 0.27031 0.72344 0.0
C91 C 0.74823 0.78061 0.78586 0.0
C92 C 0.79492 0.82807 0.8283 0.0
C93 C 0.69767 0.72492 0.73231 0.0
C94 C 0.64915 0.68163 0.68794 0.0
loop_
_geom_bond_atom_site_label_1
_geom_bond_atom_site_label_2
_geom_bond_distance
_geom_bond_site_symmetry_2
_ccdc_geom_bond_type
Fe0 O1 1.886 . S
Fe0 O4 1.715 1_554 S
Fe0 O9 2.077 1_655 S
Fe0 O14 1.935 1_654 S
Fe0 O20 2.077 . S
Fe0 O29 1.935 1_554 S
O1 Fe0 1.886 . S
O1 Fe3 1.715 1_665 S
Fe2 O4 1.886 . S
Fe2 O5 1.715 1_665 S
Fe2 O12 1.935 1_665 S
Fe2 O13 2.077 1_655 S
Fe2 O19 1.935 1_565 S
Fe2 O28 2.077 . S
Fe3 O1 1.715 1_445 S
Fe3 O6 1.886 . S
Fe3 O10 1.935 1_545 S
Fe3 O15 2.077 . S
Fe3 O21 1.935 1_445 S
Fe3 O25 2.077 1_455 S
O4 Fe0 1.715 1_556 S
O4 Fe2 1.886 . S
O5 Fe2 1.715 1_445 S
O5 Fe7 1.895 . S
O6 Fe3 1.886 . S
O6 Fe7 1.706 1_554 S
Fe7 O5 1.895 . S
Fe7 O6 1.706 1_556 S
Fe7 O11 2.086 . S
Fe7 O16 1.928 1_556 S
Fe7 O18 2.085 1_455 S
Fe7 O26 1.928 1_456 S
C8 O20 1.381 . S
C8 O21 1.421 . S
O9 Fe0 2.077 1_455 S
O9 C22 1.381 . S
O10 Fe3 1.935 1_565 S
O10 C22 1.421 . S
O11 Fe7 2.086 . S
O11 C27 1.381 . S
O12 Fe2 1.935 1_445 S
O12 C27 1.421 . S
O13 Fe2 2.077 1_455 S
O13 C17 1.381 . S
O14 Fe0 1.935 1_456 S
O14 C17 1.421 . S
O15 Fe3 2.077 . S
O15 C23 1.381 . S
O16 Fe7 1.928 1_554 S
O16 C23 1.421 . S
C17 O13 1.381 . S
C17 O14 1.421 . S
O18 Fe7 2.085 1_655 S
O18 C30 1.381 . S
O19 Fe2 1.935 1_545 S
O19 C30 1.421 . S
O20 Fe0 2.077 . S
O20 C8 1.381 . S
O21 Fe3 1.935 1_665 S
O21 C8 1.421 . S
C22 O9 1.381 . S
C22 O10 1.421 . S
C23 O15 1.381 . S
C23 O16 1.421 . S
C24 O25 1.381 . S
C24 O26 1.421 . S
O25 Fe3 2.077 1_655 S
O25 C24 1.381 . S
O26 Fe7 1.928 1_654 S
O26 C24 1.421 . S
C27 O11 1.381 . S
C27 O12 1.421 . S
O28 Fe2 2.077 . S
O28 C31 1.381 . S
O29 Fe0 1.935 1_556 S
O29 C31 1.421 . S
C30 O18 1.381 . S
C30 O19 1.421 . S
C31 O28 1.381 . S
C31 O29 1.421 . S
C32 O44 1.241 . S
C32 O45 1.280 . S
C33 O46 1.277 . S
C33 O47 1.245 . S
C34 O58 1.247 . S
C34 O60 1.289 . S
Mg35 O36 1.926 . S
Mg35 O45 1.984 . S
Mg35 O47 1.988 . S
Mg35 O48 2.061 . S
O36 Mg35 1.926 . S
O36 Mg37 1.986 . S
O36 Mg38 1.917 . S
Mg37 O36 1.986 . S
Mg37 O44 2.042 . S
Mg37 O46 2.041 . S
Mg37 O52 2.038 . S
Mg37 O60 2.238 . S
Mg38 O36 1.917 . S
Mg38 O39 1.917 . S
Mg38 O49 2.106 . S
Mg38 O51 2.079 . S
Mg38 O60 2.106 . S
Mg38 O61 2.079 . S
O39 Mg38 1.917 . S
O39 Mg40 1.926 . S
O39 Mg41 1.986 . S
Mg40 O39 1.926 . S
Mg40 O54 1.984 . S
Mg40 O57 1.988 . S
Mg40 O58 2.061 . S
Mg41 O39 1.986 . S
Mg41 O49 2.238 . S
Mg41 O53 2.042 . S
Mg41 O55 2.041 . S
Mg41 O62 2.038 . S
C42 O48 1.247 . S
C42 O49 1.289 . S
C43 O61 1.245 . S
C43 O62 1.274 . S
O44 C32 1.241 . S
O44 Mg37 2.042 . S
O45 C32 1.280 . S
O45 Mg35 1.984 . S
O46 C33 1.277 . S
O46 Mg37 2.041 . S
O47 C33 1.245 . S
O47 Mg35 1.988 . S
O48 Mg35 2.061 . S
O48 C42 1.247 . S
O49 Mg38 2.106 . S
O49 Mg41 2.238 . S
O49 C42 1.289 . S
C50 O51 1.245 . S
C50 O52 1.274 . S
O51 Mg38 2.079 . S
O51 C50 1.245 . S
O52 Mg37 2.038 . S
O52 C50 1.274 . S
O53 Mg41 2.042 . S
O53 C56 1.241 . S
O54 Mg40 1.984 . S
O54 C56 1.280 . S
O55 Mg41 2.041 . S
O55 C59 1.277 . S
C56 O53 1.241 . S
C56 O54 1.280 . S
O57 Mg40 1.988 . S
O57 C59 1.245 . S
O58 C34 1.247 . S
O58 Mg40 2.061 . S
C59 O55 1.277 . S
C59 O57 1.245 . S
O60 C34 1.289 . S
O60 Mg37 2.238 . S
O60 Mg38 2.106 . S
O61 Mg38 2.079 . S
O61 C43 1.245 . S
O62 Mg41 2.038 . S
O62 C43 1.274 . S
C63 C64 1.170 . S
C63 C65 1.380 . S
C64 C63 1.170 . S
C65 C63 1.380 . S
C65 C66 1.170 . S
C66 C65 1.170 . S
C67 C68 1.170 . S
C67 C69 1.380 . S
C68 C67 1.170 . S
C69 C67 1.380 . S
C69 C70 1.170 . S
C70 C69 1.170 . S
C71 C72 1.170 . S
C71 C73 1.380 . S
C72 C71 1.170 . S
C73 C71 1.380 . S
C73 C74 1.170 . S
C74 C73 1.170 . S
C75 C76 1.170 . S
C75 C77 1.380 . S
C76 C75 1.170 . S
C77 C75 1.380 . S
C77 C78 1.170 . S
C78 C77 1.170 . S
C79 C80 1.170 . S
C79 C81 1.380 . S
C80 C79 1.170 . S
C81 C79 1.380 . S
C81 C82 1.170 . S
C82 C81 1.170 . S
C83 C84 1.170 . S
C83 C85 1.380 . S
C84 C83 1.170 . S
C85 C83 1.380 . S
C85 C86 1.170 . S
C86 C85 1.170 . S
C87 C88 1.170 . S
C87 C89 1.380 . S
C88 C87 1.170 . S
C89 C87 1.380 . S
C89 C90 1.170 . S
C90 C89 1.170 . S
C91 C92 1.170 . S
C91 C93 1.380 . S
C92 C91 1.170 . S
C93 C91 1.380 . S
C93 C94 1.170 . S
C94 C93 1.170 . S
C64 C23 1.240 . S
C66 C34 1.265 . S
C68 C24 1.456 . S
C70 C56 1.483 . S
C72 C8 1.529 . S
C74 C43 1.522 . S
C76 C22 1.578 . S
C78 C33 1.575 . S
C80 C17 1.458 . S
C82 C32 1.497 . S
C86 C50 1.518 . S
C84 C27 1.541 . S
C88 C30 1.550 . S
C90 C59 1.561 . S
C94 C42 1.271 . S
C92 C31 1.255 . S
