# Generated by pormake.
# Topology pth, (4,4)-cn, num edge types: 1
# Building blocks:
#     Node 0, Type 0, BuildingBlock: QUQFOY_clean_sbu_3, # of connection points: 4
#     Node 1, Type 0, BuildingBlock: QUQFOY_clean_sbu_3, # of connection points: 4
#     Node 2, Type 0, BuildingBlock: QUQFOY_clean_sbu_3, # of connection points: 4
#     Node 3, Type 1, BuildingBlock: NAWXER_clean_sbu_0, # of connection points: 4
#     Node 4, Type 1, BuildingBlock: NAWXER_clean_sbu_0, # of connection points: 4
#     Node 5, Type 1, BuildingBlock: NAWXER_clean_sbu_0, # of connection points: 4
#     Edge 6, Type (0, 1), BuildingBlock: OJICUG_clean_linker_0, # of connection points: 2
#     Edge 7, Type (0, 1), BuildingBlock: OJICUG_clean_linker_0, # of connection points: 2
#     Edge 8, Type (0, 1), BuildingBlock: OJICUG_clean_linker_0, # of connection points: 2
#     Edge 9, Type (0, 1), BuildingBlock: OJICUG_clean_linker_0, # of connection points: 2
#     Edge 10, Type (0, 1), BuildingBlock: OJICUG_clean_linker_0, # of connection points: 2
#     Edge 11, Type (0, 1), BuildingBlock: OJICUG_clean_linker_0, # of connection points: 2
#     Edge 12, Type (0, 1), BuildingBlock: OJICUG_clean_linker_0, # of connection points: 2
#     Edge 13, Type (0, 1), BuildingBlock: OJICUG_clean_linker_0, # of connection points: 2
#     Edge 14, Type (0, 1), BuildingBlock: OJICUG_clean_linker_0, # of connection points: 2
#     Edge 15, Type (0, 1), BuildingBlock: OJICUG_clean_linker_0, # of connection points: 2
#     Edge 16, Type (0, 1), BuildingBlock: OJICUG_clean_linker_0, # of connection points: 2
#     Edge 17, Type (0, 1), BuildingBlock: OJICUG_clean_linker_0, # of connection points: 2
# Relax obj value: 0.004
# Max RMSD: 0.054
# Mean RMSD: 0.030
data_MOF--net-pth--node1-QUQFOY_clean_sbu_3--node2-NAWXER_clean_sbu_0--edge1-OJICUG_clean_linker_0
_symmetry_space_group_name_H-M    P1
_symmetry_Int_Tables_number       1
_symmetry_cell_setting            triclinic
loop_
_symmetry_equiv_pos_as_xyz
'x, y, z'
_cell_length_a     17.012645
_cell_length_b     16.856695
_cell_length_c     43.925112
_cell_angle_alpha  89.781192
_cell_angle_beta   91.15606
_cell_angle_gamma 120.78743
loop_
_atom_site_label
_atom_site_type_symbol
_atom_site_fract_x
_atom_site_fract_y
_atom_site_fract_z
_atom_type_partial_charge
C0 C 0.96489 0.25919 0.07097 0.0
O1 O 0.92848 0.26147 0.04572 0.0
Cd2 Cd 0.93702 0.18952 0.00014 0.0
O3 O 0.00599 0.21376 0.07364 0.0
Cd4 Cd 0.03433 0.10557 0.04295 0.0
C5 C 0.16935 0.26797 -0.00729 0.0
O6 O 0.88677 0.03541 0.01484 0.0
O7 O 0.98235 -0.00353 0.00013 0.0
O8 O 0.99346 0.00671 0.08726 0.0
C9 C 0.90418 0.98799 -0.00305 0.0
O10 O 0.09639 0.26637 0.98429 0.0
C11 C 0.06525 0.00147 0.08876 0.0
O12 O 0.16902 0.21865 0.01479 0.0
O13 O 0.12492 0.04555 0.06876 0.0
C14 C 0.22564 0.10184 0.40365 0.0
O15 O 0.26891 0.14359 0.38 0.0
Cd16 Cd 0.2033 0.18804 0.33899 0.0
O17 O 0.14574 0.08793 0.40776 0.0
Cd18 Cd 0.04138 0.12513 0.37896 0.0
C19 C 0.01443 0.97843 0.3227 0.0
O20 O 0.13786 0.27805 0.3537 0.0
O21 O 0.00064 0.18672 0.33612 0.0
O22 O 0.00977 0.19052 0.42391 0.0
C23 C 0.07202 0.26636 0.3363 0.0
O24 O 0.08908 0.04682 0.3136 0.0
C25 C 0.9244 0.13254 0.42347 0.0
O26 O 0.98194 0.98156 0.34827 0.0
O27 O 0.89463 0.06967 0.40314 0.0
C28 C 0.83786 0.05693 0.68304 0.0
O29 O 0.83169 0.0888 0.70843 0.0
Cd30 Cd 0.94554 0.13649 0.74888 0.0
O31 O 0.90836 0.05187 0.67757 0.0
Cd32 Cd 0.04938 0.08999 0.70756 0.0
C33 C 0.93731 0.93524 0.76277 0.0
O34 O 0.09923 0.24151 0.73336 0.0
O35 O 0.15412 0.15874 0.75022 0.0
O36 O 0.14918 0.16082 0.66358 0.0
C37 C 0.15878 0.23625 0.74976 0.0
O38 O 0.92951 0.00027 0.77398 0.0
C39 C 0.18013 0.10648 0.66401 0.0
O40 O 0.9697 0.94267 0.73631 0.0
O41 O 0.14698 0.04242 0.68362 0.0
C42 C 0.93775 0.67177 0.24921 0.0
C43 C 0.95356 0.47389 0.17103 0.0
O44 O 0.01899 0.69301 0.2423 0.0
Zn45 Zn 0.08807 0.64688 0.2138 0.0
O46 O 0.86882 0.60167 0.23698 0.0
Zn47 Zn 0.93893 0.56769 0.21087 0.0
O48 O -0.00121 0.51802 0.2424 0.0
O49 O 0.14919 0.60688 0.24341 0.0
O50 O 0.88092 0.46811 0.18087 0.0
O51 O 0.03171 0.53618 0.1817 0.0
O52 O 0.15327 0.75532 0.18704 0.0
O53 O 0.00275 0.68513 0.18274 0.0
C54 C 0.07697 0.53635 0.25306 0.0
C55 C 0.08189 0.75111 0.17542 0.0
C56 C 0.5844 -0.00043 0.58592 0.0
C57 C 0.40703 0.01831 0.49906 0.0
O58 O 0.5229 0.92959 0.57108 0.0
Zn59 Zn 0.48997 -0.00168 0.54234 0.0
O60 O 0.60489 0.081 0.57817 0.0
Zn61 Zn 0.57019 0.15038 0.54532 0.0
O62 O 0.52161 0.21038 0.5712 0.0
O63 O 0.43849 0.05802 0.57182 0.0
O64 O 0.4704 0.09548 0.50998 0.0
O65 O 0.39127 0.94276 0.51114 0.0
O66 O 0.60703 0.06262 0.51533 0.0
O67 O 0.68352 0.21405 0.52171 0.0
C68 C 0.45354 0.13634 0.5812 0.0
C69 C 0.67493 0.14207 0.50893 0.0
C70 C 0.47383 0.47847 0.91336 0.0
C71 C 0.70829 0.63849 0.8356 0.0
O72 O 0.47235 0.54401 0.89916 0.0
Zn73 Zn 0.539 0.6426 0.86501 0.0
O74 O 0.53379 0.45766 0.90671 0.0
Zn75 Zn 0.59368 0.55097 0.87453 0.0
O76 O 0.6543 0.67463 0.89987 0.0
O77 O 0.5909 0.75789 0.88903 0.0
O78 O 0.6999 0.5709 0.85131 0.0
O79 O 0.65316 0.668 0.83915 0.0
O80 O 0.44035 0.60122 0.83386 0.0
O81 O 0.48916 0.50366 0.8408 0.0
C82 C 0.65009 0.74737 0.90392 0.0
C83 C 0.43562 0.52531 0.82717 0.0
C84 C 0.88734 0.32856 0.09912 0.0
C85 C 0.95847 0.3092 0.09753 0.0
H86 H 0.8284 0.39391 0.12418 0.0
C87 C 0.02407 0.33937 0.12128 0.0
H88 H 0.83528 0.3054 0.08125 0.0
C89 C 0.02083 0.3911 0.14548 0.0
C90 C 0.95067 0.41179 0.14683 0.0
H91 H 0.0795 0.32541 0.12072 0.0
H92 H 0.0739 0.41575 0.16305 0.0
C93 C 0.88285 0.37847 0.12376 0.0
C94 C 0.89199 0.21443 0.465 0.0
C95 C 0.86186 0.13825 0.44515 0.0
H96 H 0.85611 0.27684 0.50068 0.0
C97 C 0.76999 0.06716 0.44569 0.0
H98 H 0.96242 0.27075 0.46491 0.0
C99 C 0.71002 0.0707 0.46596 0.0
C100 C 0.73983 0.14572 0.48621 0.0
H101 H 0.74425 0.0079 0.43061 0.0
H102 H 0.6398 0.01378 0.46584 0.0
C103 C 0.8312 0.21842 0.48529 0.0
C104 C 0.91499 0.85248 0.81169 0.0
C105 C 0.89977 0.8484 0.78005 0.0
H106 H 0.86747 0.78417 0.85435 0.0
C107 C 0.83445 0.764 0.7665 0.0
H108 H 0.96466 0.91696 0.82265 0.0
C109 C 0.77781 0.68813 0.78478 0.0
C110 C 0.78793 0.69517 0.81665 0.0
H111 H 0.82066 0.7596 0.74219 0.0
H112 H 0.72072 0.62738 0.77423 0.0
C113 C 0.86011 0.77618 0.8298 0.0
C114 C 0.15374 0.93459 0.11396 0.0
C115 C 0.07594 0.94386 0.11219 0.0
H116 H 0.21797 0.86661 0.13575 0.0
C117 C 0.00507 0.89451 0.13267 0.0
H118 H 0.20974 0.97217 0.09854 0.0
C119 C 0.00967 0.83472 0.15354 0.0
C120 C 0.0855 0.82256 0.15478 0.0
H121 H 0.94457 0.90041 0.13223 0.0
H122 H 0.95255 0.79679 0.16855 0.0
C123 C 0.15873 0.87461 0.13527 0.0
C124 C 0.36281 0.1016 0.42514 0.0
C125 C 0.26893 0.07021 0.42653 0.0
H126 H 0.47935 0.10792 0.44709 0.0
C127 C 0.21806 0.01024 0.45026 0.0
H128 H 0.40404 0.14731 0.40717 0.0
C129 C 0.2613 0.9858 0.47284 0.0
C130 C 0.35602 0.02183 0.47215 0.0
H131 H 0.1454 0.98413 0.45182 0.0
H132 H 0.22191 0.94359 0.49173 0.0
C133 C 0.40589 0.07842 0.44784 0.0
C134 C 0.30453 0.30872 0.77958 0.0
C135 C 0.2307 0.31494 0.76781 0.0
H136 H 0.42665 0.37 0.80656 0.0
C137 C 0.22703 0.39492 0.77398 0.0
H138 H 0.31039 0.24888 0.77496 0.0
C139 C 0.29471 0.46573 0.79264 0.0
C140 C 0.36709 0.45751 0.80509 0.0
H141 H 0.17096 0.4017 0.76506 0.0
H142 H 0.28924 0.52544 0.79784 0.0
C143 C 0.37169 0.37884 0.79776 0.0
C144 C 0.76381 0.98369 0.63241 0.0
C145 C 0.76407 0.0284 0.65951 0.0
H146 H 0.70339 0.93614 0.58776 0.0
C147 C 0.69482 0.04934 0.66345 0.0
H148 H 0.81578 0.966 0.62873 0.0
C149 C 0.63097 0.03201 0.64011 0.0
C150 C 0.63354 0.99162 0.61257 0.0
H151 H 0.69247 0.0833 0.684 0.0
H152 H 0.58225 0.05459 0.64297 0.0
C153 C 0.69878 0.96521 0.60913 0.0
C154 C 0.75776 0.93038 0.96624 0.0
C155 C 0.83986 0.93101 0.97216 0.0
H156 H 0.63285 0.87254 0.9394 0.0
C157 C 0.86083 0.87642 0.954 0.0
H158 H 0.74022 0.97254 0.97973 0.0
C159 C 0.80006 0.82005 0.9312 0.0
C160 C 0.71673 0.8169 0.92575 0.0
H161 H 0.92369 0.87585 0.95772 0.0
H162 H 0.81795 0.77751 0.91804 0.0
C163 C 0.69672 0.87399 0.94304 0.0
C164 C 0.93152 0.80552 0.31658 0.0
C165 C 0.97045 0.89392 0.30363 0.0
H166 H 0.88934 0.66278 0.30897 0.0
C167 C 0.98033 0.90279 0.27193 0.0
H168 H 0.92388 0.79706 0.341 0.0
C169 C 0.9595 0.82659 0.25383 0.0
C170 C 0.9285 0.73996 0.267 0.0
H171 H 0.00961 0.96994 0.26132 0.0
H172 H 0.97431 0.83683 0.22976 0.0
C173 C 0.91139 0.72879 0.29833 0.0
C174 C 0.29996 0.1966 0.62484 0.0
C175 C 0.25272 0.11785 0.64327 0.0
H176 H 0.4028 0.26589 0.59091 0.0
C177 C 0.27674 0.04982 0.6423 0.0
H178 H 0.28349 0.2507 0.62534 0.0
C179 C 0.34421 0.05858 0.62282 0.0
C180 C 0.39027 0.13595 0.60388 0.0
H181 H 0.2425 0.9888 0.65634 0.0
H182 H 0.35967 0.0037 0.62236 0.0
C183 C 0.36878 0.20589 0.60539 0.0
C184 C 0.26305 0.40272 0.95983 0.0
C185 C 0.25371 0.32594 0.97548 0.0
H186 H 0.33936 0.51075 0.92873 0.0
C187 C 0.32143 0.30217 0.97236 0.0
H188 H 0.21263 0.42337 0.96195 0.0
C189 C 0.39491 0.35221 0.95266 0.0
C190 C 0.40204 0.42729 0.9362 0.0
H191 H 0.31561 0.24287 0.98413 0.0
H192 H 0.44463 0.33101 0.94983 0.0
C193 C 0.3362 0.45289 0.94068 0.0
C194 C -0.00427 0.32572 0.30237 0.0
C195 C 0.07681 0.33944 0.3162 0.0
H196 H 0.93246 0.37622 0.27226 0.0
C197 C 0.15975 0.42099 0.30991 0.0
H198 H 0.93051 0.26418 0.3068 0.0
C199 C 0.16118 0.48644 0.28955 0.0
C200 C 0.07952 0.47147 0.27549 0.0
H201 H 0.2234 0.43335 0.32027 0.0
H202 H 0.22586 0.54804 0.28468 0.0
C203 C -0.00302 0.39063 0.28248 0.0
loop_
_geom_bond_atom_site_label_1
_geom_bond_atom_site_label_2
_geom_bond_distance
_geom_bond_site_symmetry_2
_ccdc_geom_bond_type
C0 O1 1.306 1_455 S
C0 O3 1.160 . S
O1 C0 1.306 1_655 S
O1 Cd2 2.228 . S
Cd2 O1 2.228 . S
Cd2 O6 2.273 . S
Cd2 O10 2.277 1_655 S
O3 C0 1.160 . S
O3 Cd4 2.203 . S
Cd4 O3 2.203 . S
Cd4 O6 2.411 1_455 S
Cd4 O7 2.333 1_445 S
Cd4 O8 2.352 1_445 S
Cd4 O12 2.277 . S
Cd4 O13 2.356 . S
C5 O10 1.209 . S
C5 O12 1.226 . S
O6 Cd2 2.273 . S
O6 Cd4 2.411 1_655 S
O6 C9 1.320 1_545 S
O7 Cd4 2.333 1_665 S
O7 C9 1.214 . S
O8 Cd4 2.352 1_665 S
O8 C11 1.258 1_655 S
C9 O6 1.320 1_565 S
C9 O7 1.214 . S
O10 Cd2 2.277 1_455 S
O10 C5 1.209 . S
C11 O8 1.258 1_455 S
C11 O13 1.282 1_565 S
O12 Cd4 2.277 . S
O12 C5 1.226 . S
O13 Cd4 2.356 . S
O13 C11 1.282 1_545 S
C14 O15 1.306 . S
C14 O17 1.160 . S
O15 C14 1.306 . S
O15 Cd16 2.228 . S
Cd16 O15 2.228 . S
Cd16 O20 2.273 . S
Cd16 O24 2.277 . S
O17 C14 1.160 . S
O17 Cd18 2.203 . S
Cd18 O17 2.203 . S
Cd18 O20 2.411 . S
Cd18 O21 2.333 1_455 S
Cd18 O22 2.352 1_455 S
Cd18 O26 2.277 1_445 S
Cd18 O27 2.356 1_455 S
C19 O24 1.209 1_565 S
C19 O26 1.226 1_455 S
O20 Cd16 2.273 . S
O20 Cd18 2.411 . S
O20 C23 1.320 . S
O21 Cd18 2.333 1_655 S
O21 C23 1.214 1_655 S
O22 Cd18 2.352 1_655 S
O22 C25 1.258 . S
C23 O20 1.320 . S
C23 O21 1.214 1_455 S
O24 Cd16 2.277 . S
O24 C19 1.209 1_545 S
C25 O22 1.258 . S
C25 O27 1.282 . S
O26 Cd18 2.277 1_665 S
O26 C19 1.226 1_655 S
O27 Cd18 2.356 1_655 S
O27 C25 1.282 . S
C28 O29 1.306 . S
C28 O31 1.160 . S
O29 C28 1.306 . S
O29 Cd30 2.228 . S
Cd30 O29 2.228 . S
Cd30 O34 2.273 1_655 S
Cd30 O38 2.277 . S
O31 C28 1.160 . S
O31 Cd32 2.203 1_655 S
Cd32 O31 2.203 1_455 S
Cd32 O34 2.411 . S
Cd32 O35 2.333 . S
Cd32 O36 2.352 . S
Cd32 O40 2.277 1_445 S
Cd32 O41 2.356 . S
C33 O38 1.209 1_565 S
C33 O40 1.226 . S
O34 Cd30 2.273 1_455 S
O34 Cd32 2.411 . S
O34 C37 1.320 . S
O35 Cd32 2.333 . S
O35 C37 1.214 . S
O36 Cd32 2.352 . S
O36 C39 1.258 . S
C37 O34 1.320 . S
C37 O35 1.214 . S
O38 Cd30 2.277 . S
O38 C33 1.209 1_545 S
C39 O36 1.258 . S
C39 O41 1.282 . S
O40 Cd32 2.277 1_665 S
O40 C33 1.226 . S
O41 Cd32 2.356 . S
O41 C39 1.282 . S
C42 O44 1.247 . S
C42 O46 1.258 1_455 S
C43 O50 1.247 1_455 S
C43 O51 1.258 . S
O44 C42 1.247 . S
O44 Zn45 2.028 . S
Zn45 O44 2.028 . S
Zn45 O49 2.035 . S
Zn45 O51 2.035 . S
Zn45 O52 2.028 . S
O46 C42 1.258 1_655 S
O46 Zn47 2.035 . S
Zn47 O46 2.035 . S
Zn47 O48 2.028 . S
Zn47 O50 2.028 . S
Zn47 O53 2.035 . S
O48 Zn47 2.028 . S
O48 C54 1.247 1_655 S
O49 Zn45 2.035 . S
O49 C54 1.258 . S
O50 C43 1.247 1_655 S
O50 Zn47 2.028 . S
O51 C43 1.258 . S
O51 Zn45 2.035 . S
O52 Zn45 2.028 . S
O52 C55 1.247 . S
O53 Zn47 2.035 . S
O53 C55 1.258 1_655 S
C54 O48 1.247 1_455 S
C54 O49 1.258 . S
C55 O52 1.247 . S
C55 O53 1.258 1_455 S
C56 O58 1.247 . S
C56 O60 1.258 . S
C57 O64 1.247 . S
C57 O65 1.258 . S
O58 C56 1.247 . S
O58 Zn59 2.028 1_545 S
Zn59 O58 2.028 1_565 S
Zn59 O63 2.035 1_565 S
Zn59 O65 2.035 1_565 S
Zn59 O66 2.028 1_565 S
O60 C56 1.258 . S
O60 Zn61 2.035 . S
Zn61 O60 2.035 . S
Zn61 O62 2.028 . S
Zn61 O64 2.028 . S
Zn61 O67 2.035 . S
O62 Zn61 2.028 . S
O62 C68 1.247 . S
O63 Zn59 2.035 1_545 S
O63 C68 1.258 . S
O64 C57 1.247 . S
O64 Zn61 2.028 . S
O65 C57 1.258 . S
O65 Zn59 2.035 1_545 S
O66 Zn59 2.028 1_545 S
O66 C69 1.247 . S
O67 Zn61 2.035 . S
O67 C69 1.258 . S
C68 O62 1.247 . S
C68 O63 1.258 . S
C69 O66 1.247 . S
C69 O67 1.258 . S
C70 O72 1.247 . S
C70 O74 1.258 . S
C71 O78 1.247 . S
C71 O79 1.258 . S
O72 C70 1.247 . S
O72 Zn73 2.028 . S
Zn73 O72 2.028 . S
Zn73 O77 2.035 . S
Zn73 O79 2.035 . S
Zn73 O80 2.028 . S
O74 C70 1.258 . S
O74 Zn75 2.035 . S
Zn75 O74 2.035 . S
Zn75 O76 2.028 . S
Zn75 O78 2.028 . S
Zn75 O81 2.035 . S
O76 Zn75 2.028 . S
O76 C82 1.247 . S
O77 Zn73 2.035 . S
O77 C82 1.258 . S
O78 C71 1.247 . S
O78 Zn75 2.028 . S
O79 C71 1.258 . S
O79 Zn73 2.035 . S
O80 Zn73 2.028 . S
O80 C83 1.247 . S
O81 Zn75 2.035 . S
O81 C83 1.258 . S
C82 O76 1.247 . S
C82 O77 1.258 . S
C83 O80 1.247 . S
C83 O81 1.258 . S
C84 C85 1.387 1_655 S
C84 H88 0.950 . S
C84 C93 1.390 . S
C85 C84 1.387 1_455 S
C85 C87 1.387 . S
H86 C93 0.950 . S
C87 C85 1.387 . S
C87 C89 1.390 . S
C87 H91 0.950 . S
H88 C84 0.950 . S
C89 C87 1.390 . S
C89 C90 1.387 . S
C89 H92 0.950 . S
C90 C89 1.387 . S
C90 C93 1.387 1_455 S
H91 C87 0.950 . S
H92 C89 0.950 . S
C93 C84 1.390 . S
C93 H86 0.950 . S
C93 C90 1.387 1_655 S
C94 C95 1.387 . S
C94 H98 0.950 . S
C94 C103 1.390 . S
C95 C94 1.387 . S
C95 C97 1.387 . S
H96 C103 0.950 . S
C97 C95 1.387 . S
C97 C99 1.390 . S
C97 H101 0.950 1_545 S
H98 C94 0.950 . S
C99 C97 1.390 . S
C99 C100 1.387 . S
C99 H102 0.950 1_545 S
C100 C99 1.387 . S
C100 C103 1.387 . S
H101 C97 0.950 1_565 S
H102 C99 0.950 1_565 S
C103 C94 1.390 . S
C103 H96 0.950 . S
C103 C100 1.387 . S
C104 C105 1.387 . S
C104 H108 0.950 1_565 S
C104 C113 1.390 . S
C105 C104 1.387 . S
C105 C107 1.387 . S
H106 C113 0.950 . S
C107 C105 1.387 . S
C107 C109 1.390 . S
C107 H111 0.950 . S
H108 C104 0.950 1_545 S
C109 C107 1.390 . S
C109 C110 1.387 . S
C109 H112 0.950 . S
C110 C109 1.387 . S
C110 C113 1.387 . S
H111 C107 0.950 . S
H112 C109 0.950 . S
C113 C104 1.390 . S
C113 H106 0.950 . S
C113 C110 1.387 . S
C114 C115 1.387 . S
C114 H118 0.950 . S
C114 C123 1.390 . S
C115 C114 1.387 . S
C115 C117 1.387 1_455 S
H116 C123 0.950 . S
C117 C115 1.387 1_655 S
C117 C119 1.390 . S
C117 H121 0.950 . S
H118 C114 0.950 . S
C119 C117 1.390 . S
C119 C120 1.387 1_655 S
C119 H122 0.950 . S
C120 C119 1.387 1_455 S
C120 C123 1.387 . S
H121 C117 0.950 . S
H122 C119 0.950 . S
C123 C114 1.390 . S
C123 H116 0.950 . S
C123 C120 1.387 . S
C124 C125 1.387 . S
C124 H128 0.950 . S
C124 C133 1.390 . S
C125 C124 1.387 . S
C125 C127 1.387 . S
H126 C133 0.950 . S
C127 C125 1.387 . S
C127 C129 1.390 . S
C127 H131 0.950 1_545 S
H128 C124 0.950 . S
C129 C127 1.390 . S
C129 C130 1.387 . S
C129 H132 0.950 1_545 S
C130 C129 1.387 . S
C130 C133 1.387 . S
H131 C127 0.950 1_565 S
H132 C129 0.950 1_565 S
C133 C124 1.390 . S
C133 H126 0.950 . S
C133 C130 1.387 . S
C134 C135 1.387 . S
C134 H138 0.950 . S
C134 C143 1.390 . S
C135 C134 1.387 . S
C135 C137 1.387 . S
H136 C143 0.950 . S
C137 C135 1.387 . S
C137 C139 1.390 . S
C137 H141 0.950 . S
H138 C134 0.950 . S
C139 C137 1.390 . S
C139 C140 1.387 . S
C139 H142 0.950 . S
C140 C139 1.387 . S
C140 C143 1.387 . S
H141 C137 0.950 . S
H142 C139 0.950 . S
C143 C134 1.390 . S
C143 H136 0.950 . S
C143 C140 1.387 . S
C144 C145 1.387 . S
C144 H148 0.950 1_545 S
C144 C153 1.390 . S
C145 C144 1.387 . S
C145 C147 1.387 . S
H146 C153 0.950 1_565 S
C147 C145 1.387 . S
C147 C149 1.390 . S
C147 H151 0.950 . S
H148 C144 0.950 1_565 S
C149 C147 1.390 . S
C149 C150 1.387 . S
C149 H152 0.950 . S
C150 C149 1.387 . S
C150 C153 1.387 . S
H151 C147 0.950 . S
H152 C149 0.950 . S
C153 C144 1.390 . S
C153 H146 0.950 1_545 S
C153 C150 1.387 . S
C154 C155 1.387 . S
C154 H158 0.950 1_565 S
C154 C163 1.390 . S
C155 C154 1.387 . S
C155 C157 1.387 . S
H156 C163 0.950 . S
C157 C155 1.387 . S
C157 C159 1.390 . S
C157 H161 0.950 1_556 S
H158 C154 0.950 1_545 S
C159 C157 1.390 . S
C159 C160 1.387 . S
C159 H162 0.950 . S
C160 C159 1.387 . S
C160 C163 1.387 . S
H161 C157 0.950 1_554 S
H162 C159 0.950 . S
C163 C154 1.390 . S
C163 H156 0.950 . S
C163 C160 1.387 . S
C164 C165 1.387 1_655 S
C164 H168 0.950 . S
C164 C173 1.390 . S
C165 C164 1.387 1_455 S
C165 C167 1.387 . S
H166 C173 0.950 . S
C167 C165 1.387 . S
C167 C169 1.390 . S
C167 H171 0.950 1_565 S
H168 C164 0.950 . S
C169 C167 1.390 . S
C169 C170 1.387 . S
C169 H172 0.950 . S
C170 C169 1.387 . S
C170 C173 1.387 1_455 S
H171 C167 0.950 1_545 S
H172 C169 0.950 . S
C173 C164 1.390 . S
C173 H166 0.950 . S
C173 C170 1.387 1_655 S
C174 C175 1.387 . S
C174 H178 0.950 . S
C174 C183 1.390 . S
C175 C174 1.387 . S
C175 C177 1.387 . S
H176 C183 0.950 . S
C177 C175 1.387 . S
C177 C179 1.390 . S
C177 H181 0.950 1_545 S
H178 C174 0.950 . S
C179 C177 1.390 . S
C179 C180 1.387 . S
C179 H182 0.950 1_545 S
C180 C179 1.387 . S
C180 C183 1.387 . S
H181 C177 0.950 1_565 S
H182 C179 0.950 1_565 S
C183 C174 1.390 . S
C183 H176 0.950 . S
C183 C180 1.387 . S
C184 C185 1.387 . S
C184 H188 0.950 1_556 S
C184 C193 1.390 . S
C185 C184 1.387 . S
C185 C187 1.387 . S
H186 C193 0.950 . S
C187 C185 1.387 . S
C187 C189 1.390 . S
C187 H191 0.950 . S
H188 C184 0.950 1_554 S
C189 C187 1.390 . S
C189 C190 1.387 . S
C189 H192 0.950 . S
C190 C189 1.387 . S
C190 C193 1.387 . S
H191 C187 0.950 . S
H192 C189 0.950 . S
C193 C184 1.390 . S
C193 H186 0.950 . S
C193 C190 1.387 . S
C194 C195 1.387 . S
C194 H198 0.950 . S
C194 C203 1.390 . S
C195 C194 1.387 . S
C195 C197 1.387 . S
H196 C203 0.950 . S
C197 C195 1.387 . S
C197 C199 1.390 . S
C197 H201 0.950 . S
H198 C194 0.950 . S
C199 C197 1.390 . S
C199 C200 1.387 . S
C199 H202 0.950 . S
C200 C199 1.387 . S
C200 C203 1.387 . S
H201 C197 0.950 . S
H202 C199 0.950 . S
C203 C194 1.390 . S
C203 H196 0.950 . S
C203 C200 1.387 . S
C90 C43 1.458 . S
C85 C0 1.458 . S
C95 C25 1.478 . S
C100 C69 1.476 . S
C105 C33 1.490 . S
C110 C71 1.491 . S
C115 C11 1.436 . S
C120 C55 1.435 . S
C130 C57 1.476 . S
C125 C14 1.473 . S
C135 C37 1.483 . S
C140 C83 1.487 . S
C150 C56 1.474 . S
C145 C28 1.473 . S
C155 C9 1.483 1_556 S
C160 C82 1.486 . S
C170 C42 1.509 . S
C165 C19 1.506 . S
C180 C68 1.474 . S
C175 C39 1.476 . S
C190 C70 1.490 . S
C185 C5 1.489 1_556 S
C195 C23 1.519 . S
C200 C54 1.526 . S
