# Generated by pormake.
# Topology nia, (6,6)-cn, num edge types: 1
# Building blocks:
#     Node 0, Type 0, BuildingBlock: CIFDUS_clean_sbu_1, # of connection points: 6
#     Node 1, Type 0, BuildingBlock: CIFDUS_clean_sbu_1, # of connection points: 6
#     Node 2, Type 1, BuildingBlock: MIDCAF_clean_sbu_0, # of connection points: 6
#     Node 3, Type 1, BuildingBlock: MIDCAF_clean_sbu_0, # of connection points: 6
#     Edge 4, Type (0, 1), None
#     Edge 5, Type (0, 1), None
#     Edge 6, Type (0, 1), None
#     Edge 7, Type (0, 1), None
#     Edge 8, Type (0, 1), None
#     Edge 9, Type (0, 1), None
#     Edge 10, Type (0, 1), None
#     Edge 11, Type (0, 1), None
#     Edge 12, Type (0, 1), None
#     Edge 13, Type (0, 1), None
#     Edge 14, Type (0, 1), None
#     Edge 15, Type (0, 1), None
# Relax obj value: 0.124
# Max RMSD: 0.238
# Mean RMSD: 0.158
data_MOF--net-nia--node1-CIFDUS_clean_sbu_1--node2-MIDCAF_clean_sbu_0--edge1-none
_symmetry_space_group_name_H-M    P1
_symmetry_Int_Tables_number       1
_symmetry_cell_setting            triclinic
loop_
_symmetry_equiv_pos_as_xyz
'x, y, z'
_cell_length_a     11.629996
_cell_length_b     11.630935
_cell_length_c     14.258353
_cell_angle_alpha  88.62744
_cell_angle_beta   88.616046
_cell_angle_gamma 130.67104
loop_
_atom_site_label
_atom_site_type_symbol
_atom_site_fract_x
_atom_site_fract_y
_atom_site_fract_z
_atom_type_partial_charge
O0 O 0.84451 0.78237 1.02133 0.0
Mn1 Mn -0.03066 0.00493 0.07333 0.0
O2 O 0.72083 0.61803 0.14731 0.0
Mn3 Mn 0.82559 0.76099 0.23668 0.0
O4 O 0.09417 0.22749 0.12533 0.0
O5 O 0.08799 0.08974 0.94876 0.0
Mn6 Mn 0.1131 0.24888 0.90998 0.0
O7 O 0.81227 0.02691 1.02286 0.0
O8 O 0.21786 0.39183 0.99936 0.0
O9 O 0.12642 0.98296 0.12381 0.0
O10 O 0.01086 0.82037 0.25091 0.0
O11 O 0.20985 0.22647 0.81941 0.0
O12 O 0.92783 0.18949 0.89576 0.0
C13 C 0.7612 0.88909 0.26874 0.0
C14 C 0.75518 0.6456 1.05934 0.0
C15 C 0.1835 0.36427 0.08733 0.0
C16 C 0.17748 0.12076 0.87793 0.0
C17 C 0.81498 0.10286 0.95335 0.0
C18 C 0.12371 0.90701 0.19332 0.0
O19 O 0.85069 0.92013 0.19791 0.0
O20 O 0.72885 0.78339 0.32726 0.0
O21 O 0.19188 0.12969 0.62532 0.0
Mn22 Mn -0.03068 0.00491 0.57334 0.0
O23 O 0.3562 0.25308 0.4993 0.0
Mn24 Mn 0.21318 0.14849 0.40993 0.0
O25 O 0.74675 0.88013 0.52137 0.0
O26 O 0.88448 0.88625 0.6979 0.0
Mn27 Mn 0.72545 0.86132 0.73676 0.0
O28 O 0.9474 0.16202 0.62384 0.0
O29 O 0.58243 0.75673 0.64739 0.0
O30 O -0.00877 0.84779 0.52285 0.0
O31 O 0.15355 0.96315 0.39562 0.0
O32 O 0.74773 0.76441 0.82726 0.0
O33 O 0.78508 0.04666 0.75107 0.0
C34 C 0.08524 0.2131 0.37797 0.0
C35 C 0.32865 0.21886 0.58728 0.0
C36 C 0.60998 0.79097 0.55941 0.0
C37 C 0.85341 0.79673 0.76871 0.0
C38 C 0.87162 0.15943 0.69342 0.0
C39 C 0.06701 0.85038 0.45327 0.0
O40 O 0.05416 0.12357 0.44878 0.0
O41 O 0.19092 0.24539 0.31942 0.0
Zn42 Zn 0.42232 0.83169 0.15073 0.0
Zn43 Zn 0.14253 0.55198 0.49597 0.0
Zn44 Zn 0.29235 0.6819 0.32334 0.0
C45 C 0.47399 0.72998 0.50494 0.0
C46 C 0.06722 0.32508 0.38367 0.0
O47 O 0.21925 0.80467 0.27152 0.0
O48 O 0.32891 0.9275 0.1334 0.0
C49 C 0.64924 0.90715 0.26307 0.0
O50 O 0.48197 0.765 0.41725 0.0
O51 O 0.34624 0.64707 0.55031 0.0
O52 O 0.02491 0.33774 0.46208 0.0
O53 O 0.15491 0.44052 0.32533 0.0
O54 O 0.63658 0.94944 0.18466 0.0
O55 O 0.53377 0.81944 0.32139 0.0
O56 O 0.20935 0.49227 0.22947 0.0
O57 O 0.32737 0.62798 0.09643 0.0
C58 C 0.24444 0.50025 0.14179 0.0
O59 O 0.16946 0.75491 0.3751 0.0
O60 O 0.0466 0.64529 0.51323 0.0
C61 C 0.23769 0.88964 0.2018 0.0
C62 C 0.08444 0.73646 0.44481 0.0
Zn63 Zn 0.51636 0.17817 0.99594 0.0
Zn64 Zn 0.79612 0.45784 0.65072 0.0
Zn65 Zn 0.6463 0.32794 0.82333 0.0
C66 C 0.87149 0.68479 0.76299 0.0
C67 C 0.46464 0.27986 0.64175 0.0
O68 O 0.71942 0.2052 0.87516 0.0
O69 O 0.6098 0.08239 1.01329 0.0
C70 C 0.69421 0.50962 1.00487 0.0
O71 O 0.78374 0.56934 0.82131 0.0
O72 O 0.91382 0.67209 0.68459 0.0
O73 O 0.5924 0.36278 0.59639 0.0
O74 O 0.45666 0.24483 0.72944 0.0
O75 O 0.61129 0.38188 1.05023 0.0
O76 O 0.72933 0.51759 0.91719 0.0
O77 O 0.40488 0.19041 0.82531 0.0
O78 O 0.30209 0.06033 0.96202 0.0
C79 C 0.2894 0.10264 0.88362 0.0
O80 O 0.76918 0.25492 0.77157 0.0
O81 O 0.89201 0.3645 0.63344 0.0
C82 C 0.70101 0.12024 0.94488 0.0
C83 C 0.85418 0.27335 0.70186 0.0
loop_
_geom_bond_atom_site_label_1
_geom_bond_atom_site_label_2
_geom_bond_distance
_geom_bond_site_symmetry_2
_ccdc_geom_bond_type
O0 Mn1 2.163 1_666 S
O0 C14 1.244 . S
Mn1 O0 2.163 1_444 S
Mn1 O4 2.160 . S
Mn1 O5 2.221 1_554 S
Mn1 O7 2.163 1_454 S
Mn1 O9 2.160 1_545 S
Mn1 O19 2.221 1_445 S
O2 Mn3 2.087 1_556 S
O2 C14 1.256 . S
Mn3 O2 2.087 1_554 S
Mn3 O10 2.089 . S
Mn3 O19 2.290 . S
Mn3 O20 2.251 . S
O4 Mn1 2.160 . S
O4 C15 1.239 . S
O5 Mn1 2.221 1_556 S
O5 Mn6 2.290 . S
O5 C16 1.278 . S
Mn6 O5 2.290 . S
Mn6 O8 2.089 1_556 S
Mn6 O11 2.251 . S
Mn6 O12 2.087 . S
O7 Mn1 2.163 1_656 S
O7 C17 1.244 . S
O8 Mn6 2.089 1_554 S
O8 C15 1.256 . S
O9 Mn1 2.160 1_565 S
O9 C18 1.239 . S
O10 Mn3 2.089 . S
O10 C18 1.256 1_655 S
O11 Mn6 2.251 . S
O11 C16 1.241 . S
O12 Mn6 2.087 . S
O12 C17 1.256 1_455 S
C13 O19 1.278 . S
C13 O20 1.241 . S
C14 O0 1.244 . S
C14 O2 1.256 . S
C15 O4 1.239 . S
C15 O8 1.256 . S
C16 O5 1.278 . S
C16 O11 1.241 . S
C17 O7 1.244 . S
C17 O12 1.256 1_655 S
C18 O9 1.239 . S
C18 O10 1.256 1_455 S
O19 Mn1 2.221 1_665 S
O19 Mn3 2.290 . S
O19 C13 1.278 . S
O20 Mn3 2.251 . S
O20 C13 1.241 . S
O21 Mn22 2.163 . S
O21 C35 1.244 . S
Mn22 O21 2.163 . S
Mn22 O25 2.160 1_445 S
Mn22 O26 2.221 1_445 S
Mn22 O28 2.163 1_455 S
Mn22 O30 2.160 1_545 S
Mn22 O40 2.221 . S
O23 Mn24 2.087 . S
O23 C35 1.256 . S
Mn24 O23 2.087 . S
Mn24 O31 2.089 . S
Mn24 O40 2.290 . S
Mn24 O41 2.251 . S
O25 Mn22 2.160 1_665 S
O25 C36 1.239 . S
O26 Mn22 2.221 1_665 S
O26 Mn27 2.290 . S
O26 C37 1.278 . S
Mn27 O26 2.290 . S
Mn27 O29 2.089 . S
Mn27 O32 2.251 . S
Mn27 O33 2.087 . S
O28 Mn22 2.163 1_655 S
O28 C38 1.244 . S
O29 Mn27 2.089 . S
O29 C36 1.256 . S
O30 Mn22 2.160 1_565 S
O30 C39 1.239 . S
O31 Mn24 2.089 . S
O31 C39 1.256 1_545 S
O32 Mn27 2.251 . S
O32 C37 1.241 . S
O33 Mn27 2.087 . S
O33 C38 1.256 1_565 S
C34 O40 1.278 . S
C34 O41 1.241 . S
C35 O21 1.244 . S
C35 O23 1.256 . S
C36 O25 1.239 . S
C36 O29 1.256 . S
C37 O26 1.278 . S
C37 O32 1.241 . S
C38 O28 1.244 . S
C38 O33 1.256 1_545 S
C39 O30 1.239 . S
C39 O31 1.256 1_565 S
O40 Mn22 2.221 . S
O40 Mn24 2.290 . S
O40 C34 1.278 . S
O41 Mn24 2.251 . S
O41 C34 1.241 . S
Zn42 O48 1.920 . S
Zn42 O54 1.898 . S
Zn42 O57 1.905 . S
Zn43 O51 1.905 . S
Zn43 O52 1.898 . S
Zn43 O60 1.920 . S
Zn44 O47 2.080 . S
Zn44 O50 2.114 . S
Zn44 O53 2.120 . S
Zn44 O55 2.120 . S
Zn44 O56 2.114 . S
Zn44 O59 2.080 . S
C45 O50 1.166 . S
C45 O51 1.182 . S
C46 O52 1.167 . S
C46 O53 1.299 . S
O47 Zn44 2.080 . S
O47 C61 1.305 . S
O48 Zn42 1.920 . S
O48 C61 1.234 . S
C49 O54 1.167 . S
C49 O55 1.299 . S
O50 Zn44 2.114 . S
O50 C45 1.166 . S
O51 Zn43 1.905 . S
O51 C45 1.182 . S
O52 Zn43 1.898 . S
O52 C46 1.167 . S
O53 Zn44 2.120 . S
O53 C46 1.299 . S
O54 Zn42 1.898 . S
O54 C49 1.167 . S
O55 Zn44 2.120 . S
O55 C49 1.299 . S
O56 Zn44 2.114 . S
O56 C58 1.166 . S
O57 Zn42 1.905 . S
O57 C58 1.182 . S
C58 O56 1.166 . S
C58 O57 1.182 . S
O59 Zn44 2.080 . S
O59 C62 1.305 . S
O60 Zn43 1.920 . S
O60 C62 1.234 . S
C61 O47 1.305 . S
C61 O48 1.234 . S
C62 O59 1.305 . S
C62 O60 1.234 . S
Zn63 O69 1.920 . S
Zn63 O75 1.898 . S
Zn63 O78 1.905 . S
Zn64 O72 1.905 . S
Zn64 O73 1.898 . S
Zn64 O81 1.920 . S
Zn65 O68 2.080 . S
Zn65 O71 2.114 . S
Zn65 O74 2.120 . S
Zn65 O76 2.120 . S
Zn65 O77 2.114 . S
Zn65 O80 2.080 . S
C66 O71 1.166 . S
C66 O72 1.182 . S
C67 O73 1.167 . S
C67 O74 1.299 . S
O68 Zn65 2.080 . S
O68 C82 1.305 . S
O69 Zn63 1.920 . S
O69 C82 1.234 . S
C70 O75 1.167 . S
C70 O76 1.299 . S
O71 Zn65 2.114 . S
O71 C66 1.166 . S
O72 Zn64 1.905 . S
O72 C66 1.182 . S
O73 Zn64 1.898 . S
O73 C67 1.167 . S
O74 Zn65 2.120 . S
O74 C67 1.299 . S
O75 Zn63 1.898 . S
O75 C70 1.167 . S
O76 Zn65 2.120 . S
O76 C70 1.299 . S
O77 Zn65 2.114 . S
O77 C79 1.166 . S
O78 Zn63 1.905 . S
O78 C79 1.182 . S
C79 O77 1.166 . S
C79 O78 1.182 . S
O80 Zn65 2.080 . S
O80 C83 1.305 . S
O81 Zn64 1.920 . S
O81 C83 1.234 . S
C82 O68 1.305 . S
C82 O69 1.234 . S
C83 O80 1.305 . S
C83 O81 1.234 . S
C18 C61 1.254 . S
C35 C67 1.505 . S
C15 C58 1.163 . S
C38 C83 1.805 . S
C13 C49 1.719 . S
C66 C37 1.371 . S
C39 C62 1.254 . S
C79 C16 1.371 . S
C46 C34 1.719 . S
C82 C17 1.805 . S
C45 C36 1.163 . S
C70 C14 1.505 . S
