# Generated by pormake.
# Topology rtl, (3,6)-cn, num edge types: 1
# Building blocks:
#     Node 0, Type 0, BuildingBlock: OLANEW_clean_sbu_2, # of connection points: 3
#     Node 1, Type 0, BuildingBlock: OLANEW_clean_sbu_2, # of connection points: 3
#     Node 2, Type 0, BuildingBlock: OLANEW_clean_sbu_2, # of connection points: 3
#     Node 3, Type 0, BuildingBlock: OLANEW_clean_sbu_2, # of connection points: 3
#     Node 4, Type 1, BuildingBlock: LEVNOQ01_clean_sbu_1, # of connection points: 6
#     Node 5, Type 1, BuildingBlock: LEVNOQ01_clean_sbu_1, # of connection points: 6
#     Edge 6, Type (0, 1), None
#     Edge 7, Type (0, 1), None
#     Edge 8, Type (0, 1), None
#     Edge 9, Type (0, 1), None
#     Edge 10, Type (0, 1), None
#     Edge 11, Type (0, 1), None
#     Edge 12, Type (0, 1), None
#     Edge 13, Type (0, 1), None
#     Edge 14, Type (0, 1), None
#     Edge 15, Type (0, 1), None
#     Edge 16, Type (0, 1), None
#     Edge 17, Type (0, 1), None
# Relax obj value: 0.021
# Max RMSD: 0.110
# Mean RMSD: 0.065
data_MOF--net-rtl--node1-OLANEW_clean_sbu_2--node2-LEVNOQ01_clean_sbu_1--edge1-none
_symmetry_space_group_name_H-M    P1
_symmetry_Int_Tables_number       1
_symmetry_cell_setting            triclinic
loop_
_symmetry_equiv_pos_as_xyz
'x, y, z'
_cell_length_a     18.730811
_cell_length_b     18.086768
_cell_length_c     11.345119
_cell_angle_alpha  82.470929
_cell_angle_beta   112.14117
_cell_angle_gamma 97.979145
loop_
_atom_site_label
_atom_site_type_symbol
_atom_site_fract_x
_atom_site_fract_y
_atom_site_fract_z
_atom_type_partial_charge
O0 O 0.22914 0.85282 0.92463 0.0
Cd1 Cd 0.33791 0.77998 0.0471 0.0
O2 O 0.2437 0.89767 0.10383 0.0
Cd3 Cd 0.20969 0.96383 0.22051 0.0
O4 O 0.14726 0.98086 0.34355 0.0
C5 C 0.08687 0.93527 0.32592 0.0
O6 O 0.06905 0.88733 0.23919 0.0
C7 C 0.21012 0.89719 0.98327 0.0
C8 C 0.39618 0.72551 0.88679 0.0
O9 O 0.35654 0.68139 0.94219 0.0
O10 O 0.40862 0.79489 0.90708 0.0
O11 O 0.77955 0.64399 0.97201 0.0
Cd12 Cd 0.91107 0.70426 1.0002 0.0
O13 O 0.75787 0.69032 0.77621 0.0
Cd14 Cd 0.70149 0.71663 0.57171 0.0
O15 O 0.69742 0.68314 0.39215 0.0
C16 C 0.65115 0.70281 0.28111 0.0
O17 O 0.60225 0.75173 0.26696 0.0
C18 C 0.73252 0.65255 0.85737 0.0
C19 C 0.91159 0.78376 0.7714 0.0
O20 O 0.90993 0.81896 0.86108 0.0
O21 O 0.91501 0.7128 0.79093 0.0
O22 O 0.73076 0.10654 0.39616 0.0
Cd23 Cd 0.61127 0.15797 0.24509 0.0
O24 O 0.76527 0.12227 0.23099 0.0
Cd25 Cd 0.83375 0.09851 0.12665 0.0
O26 O 0.90499 0.10252 1.01378 0.0
C27 C 0.89505 0.05741 0.93086 0.0
O28 O 0.839 1.00269 0.91001 0.0
C29 C 0.77876 0.0974 0.34627 0.0
C30 C 0.60801 0.31282 0.20501 0.0
O31 O 0.60423 0.27545 0.30687 0.0
O32 O 0.61569 0.27764 0.12023 0.0
O33 O 0.3819 0.34189 0.65254 0.0
Cd34 Cd 0.28399 0.2606 0.49777 0.0
O35 O 0.31752 0.41815 0.49563 0.0
Cd36 Cd 0.29273 0.52425 0.38176 0.0
O37 O 0.36489 0.55724 0.2702 0.0
C38 C 0.35321 0.52939 0.16655 0.0
O39 O 0.28916 0.48662 0.11298 0.0
C40 C 0.37212 0.40856 0.60317 0.0
C41 C 0.17216 0.19677 0.59616 0.0
O42 O 0.22368 0.15806 0.59329 0.0
O43 O 0.17227 0.26521 0.54994 0.0
O44 O 0.00111 0.12029 0.88786 0.0
Mg45 Mg 0.10044 0.1076 0.85634 0.0
O46 O 0.94917 0.01558 0.79453 0.0
Mg47 Mg 0.0048 0.99817 0.64576 0.0
O48 O 0.08562 0.10847 0.66885 0.0
O49 O 0.15481 0.20045 0.78922 0.0
O50 O 0.05403 0.97673 0.49016 0.0
O51 O 0.90093 0.06036 0.49359 0.0
Mg52 Mg 0.88162 0.88324 0.43334 0.0
O53 O 0.93302 0.88647 0.62474 0.0
O54 O 0.97337 0.89166 0.36449 0.0
O55 O 0.81411 0.97583 0.37442 0.0
O56 O 0.85674 0.78719 0.54456 0.0
C57 C 0.15429 0.95107 0.91113 0.0
C58 C 0.94996 0.06525 0.86553 0.0
C59 C 0.13099 0.17044 0.68235 0.0
C60 C 0.03578 0.93506 0.39786 0.0
C61 C 0.83514 0.04229 0.40739 0.0
C62 C 0.90018 0.82103 0.64382 0.0
O63 O 0.16128 0.0135 0.95629 0.0
O64 O 0.10479 0.93725 0.80067 0.0
O65 O 0.67906 0.60043 0.20547 0.0
Mg66 Mg 0.58379 0.51822 0.17274 0.0
O67 O 0.56703 0.64177 0.1012 0.0
Mg68 Mg 0.51815 0.54503 0.95642 0.0
O69 O 0.57415 0.42957 0.07532 0.0
O70 O 0.6189 0.42726 0.29026 0.0
O71 O 0.4573 0.46607 0.79019 0.0
O72 O 0.62865 0.5818 0.90522 0.0
Mg73 Mg 0.47656 0.64454 0.66304 0.0
O74 O 0.46164 0.63948 0.83001 0.0
O75 O 0.41856 0.53676 0.60388 0.0
O76 O 0.60092 0.65779 0.72478 0.0
O77 O 0.41622 0.73145 0.68881 0.0
C78 C 0.41905 0.53141 0.12661 0.0
C79 C 0.63557 0.65202 0.18215 0.0
C80 C 0.60189 0.39373 0.18849 0.0
C81 C 0.42047 0.47344 0.66896 0.0
C82 C 0.64965 0.62646 0.82405 0.0
C83 C 0.42508 0.69771 0.79965 0.0
O84 O 0.48624 0.54311 0.20934 0.0
O85 O 0.41103 0.51719 0.01516 0.0
loop_
_geom_bond_atom_site_label_1
_geom_bond_atom_site_label_2
_geom_bond_distance
_geom_bond_site_symmetry_2
_ccdc_geom_bond_type
O0 Cd1 2.300 1_556 S
O0 C7 1.275 . S
Cd1 O0 2.300 1_554 S
Cd1 O9 2.381 1_554 S
Cd1 O10 2.378 . S
O2 Cd3 2.392 1_565 S
O2 C7 1.249 1_554 S
Cd3 O2 2.392 1_545 S
Cd3 O4 2.317 1_545 S
O4 Cd3 2.317 1_565 S
O4 C5 1.232 . S
C5 O4 1.232 . S
C5 O6 1.218 1_565 S
O6 C5 1.218 1_545 S
C7 O0 1.275 . S
C7 O2 1.249 1_556 S
C8 O9 1.258 1_554 S
C8 O10 1.256 . S
O9 Cd1 2.381 1_556 S
O9 C8 1.258 1_556 S
O10 Cd1 2.378 . S
O10 C8 1.256 . S
O11 Cd12 2.300 . S
O11 C18 1.275 . S
Cd12 O11 2.300 . S
Cd12 O20 2.381 . S
Cd12 O21 2.378 . S
O13 Cd14 2.385 . S
O13 C18 1.255 . S
Cd14 O13 2.385 . S
Cd14 O15 2.317 . S
O15 Cd14 2.317 . S
O15 C16 1.232 . S
C16 O15 1.232 . S
C16 O17 1.218 . S
O17 C16 1.218 . S
C18 O11 1.275 . S
C18 O13 1.255 . S
C19 O20 1.258 . S
C19 O21 1.256 . S
O20 Cd12 2.381 . S
O20 C19 1.258 . S
O21 Cd12 2.378 . S
O21 C19 1.256 . S
O22 Cd23 2.300 . S
O22 C29 1.275 . S
Cd23 O22 2.300 . S
Cd23 O31 2.381 . S
Cd23 O32 2.376 1_554 S
O24 Cd25 2.385 1_655 S
O24 C29 1.255 . S
Cd25 O24 2.385 1_455 S
Cd25 O26 2.317 1_454 S
O26 Cd25 2.317 1_656 S
O26 C27 1.232 . S
C27 O26 1.232 . S
C27 O28 1.218 1_655 S
O28 C27 1.218 1_455 S
C29 O22 1.275 . S
C29 O24 1.255 . S
C30 O31 1.258 . S
C30 O32 1.251 1_554 S
O31 Cd23 2.381 . S
O31 C30 1.258 . S
O32 Cd23 2.376 1_556 S
O32 C30 1.251 1_556 S
O33 Cd34 2.300 . S
O33 C40 1.275 . S
Cd34 O33 2.300 . S
Cd34 O42 2.381 . S
Cd34 O43 2.378 . S
O35 Cd36 2.385 . S
O35 C40 1.255 . S
Cd36 O35 2.385 . S
Cd36 O37 2.317 . S
O37 Cd36 2.317 . S
O37 C38 1.232 . S
C38 O37 1.232 . S
C38 O39 1.218 . S
O39 C38 1.218 . S
C40 O33 1.275 . S
C40 O35 1.255 . S
C41 O42 1.258 . S
C41 O43 1.256 . S
O42 Cd34 2.381 . S
O42 C41 1.258 . S
O43 Cd34 2.378 . S
O43 C41 1.256 . S
O44 Mg45 1.990 . S
O44 C58 1.253 1_455 S
Mg45 O44 1.990 . S
Mg45 O48 2.180 . S
Mg45 O49 2.117 . S
Mg45 O63 2.030 . S
O46 Mg47 2.072 1_655 S
O46 C58 1.260 . S
Mg47 O46 2.072 1_455 S
Mg47 O48 2.099 . S
Mg47 O50 2.079 1_545 S
Mg47 O51 2.072 1_455 S
Mg47 O53 2.099 1_445 S
Mg47 O64 2.079 1_545 S
O48 Mg45 2.180 . S
O48 Mg47 2.099 . S
O48 C59 1.279 . S
O49 Mg45 2.117 . S
O49 C59 1.250 . S
O50 Mg47 2.079 1_565 S
O50 C60 1.264 . S
O51 Mg47 2.072 1_655 S
O51 C61 1.260 . S
Mg52 O53 2.180 . S
Mg52 O54 2.030 1_655 S
Mg52 O55 1.990 1_565 S
Mg52 O56 2.117 . S
O53 Mg47 2.099 1_665 S
O53 Mg52 2.180 . S
O53 C62 1.279 . S
O54 Mg52 2.030 1_455 S
O54 C60 1.248 . S
O55 Mg52 1.990 1_545 S
O55 C61 1.253 . S
O56 Mg52 2.117 . S
O56 C62 1.250 . S
C57 O63 1.248 1_565 S
C57 O64 1.264 . S
C58 O44 1.253 1_655 S
C58 O46 1.260 . S
C59 O48 1.279 . S
C59 O49 1.250 . S
C60 O50 1.264 . S
C60 O54 1.248 . S
C61 O51 1.260 . S
C61 O55 1.253 . S
C62 O53 1.279 . S
C62 O56 1.250 . S
O63 Mg45 2.030 . S
O63 C57 1.248 1_545 S
O64 Mg47 2.079 1_565 S
O64 C57 1.264 . S
O65 Mg66 1.990 . S
O65 C79 1.253 . S
Mg66 O65 1.990 . S
Mg66 O69 2.180 . S
Mg66 O70 2.117 . S
Mg66 O84 2.030 . S
O67 Mg68 2.072 . S
O67 C79 1.260 . S
Mg68 O67 2.072 . S
Mg68 O69 2.099 . S
Mg68 O71 2.079 1_554 S
Mg68 O72 2.072 1_554 S
Mg68 O74 2.099 1_554 S
Mg68 O85 2.079 . S
O69 Mg66 2.180 . S
O69 Mg68 2.099 . S
O69 C80 1.279 . S
O70 Mg66 2.117 . S
O70 C80 1.250 . S
O71 Mg68 2.079 1_556 S
O71 C81 1.264 . S
O72 Mg68 2.072 1_556 S
O72 C82 1.260 . S
Mg73 O74 2.180 . S
Mg73 O75 2.030 . S
Mg73 O76 1.990 . S
Mg73 O77 2.117 . S
O74 Mg68 2.099 1_556 S
O74 Mg73 2.180 . S
O74 C83 1.279 . S
O75 Mg73 2.030 . S
O75 C81 1.248 . S
O76 Mg73 1.990 . S
O76 C82 1.253 . S
O77 Mg73 2.117 . S
O77 C83 1.250 . S
C78 O84 1.248 . S
C78 O85 1.264 . S
C79 O65 1.253 . S
C79 O67 1.260 . S
C80 O69 1.279 . S
C80 O70 1.250 . S
C81 O71 1.264 . S
C81 O75 1.248 . S
C82 O72 1.260 . S
C82 O76 1.253 . S
C83 O74 1.279 . S
C83 O77 1.250 . S
O84 Mg66 2.030 . S
O84 C78 1.248 . S
O85 Mg68 2.079 . S
O85 C78 1.264 . S
C59 C41 1.176 . S
C8 C83 1.447 1_554 S
C19 C62 1.871 . S
C30 C80 1.204 . S
C60 C5 1.618 . S
C82 C18 1.897 . S
C29 C61 1.615 . S
C40 C81 1.632 . S
C79 C16 1.275 . S
C58 C27 1.080 . S
C78 C38 1.566 . S
C7 C57 1.286 . S
