# Generated by pormake.
# Topology scu, (8,4)-cn, num edge types: 1
# Building blocks:
#     Node 0, Type 0, BuildingBlock: TAGTUT_clean_sbu_3, # of connection points: 8
#     Node 1, Type 1, BuildingBlock: NAWXER_clean_sbu_0, # of connection points: 4
#     Node 2, Type 1, BuildingBlock: NAWXER_clean_sbu_0, # of connection points: 4
#     Edge 3, Type (0, 1), BuildingBlock: KIFKEQ_clean_linker_1, # of connection points: 2
#     Edge 4, Type (0, 1), BuildingBlock: KIFKEQ_clean_linker_1, # of connection points: 2
#     Edge 5, Type (0, 1), BuildingBlock: KIFKEQ_clean_linker_1, # of connection points: 2
#     Edge 6, Type (0, 1), BuildingBlock: KIFKEQ_clean_linker_1, # of connection points: 2
#     Edge 7, Type (0, 1), BuildingBlock: KIFKEQ_clean_linker_1, # of connection points: 2
#     Edge 8, Type (0, 1), BuildingBlock: KIFKEQ_clean_linker_1, # of connection points: 2
#     Edge 9, Type (0, 1), BuildingBlock: KIFKEQ_clean_linker_1, # of connection points: 2
#     Edge 10, Type (0, 1), BuildingBlock: KIFKEQ_clean_linker_1, # of connection points: 2
# Relax obj value: 0.033
# Max RMSD: 0.097
# Mean RMSD: 0.064
data_MOF--net-scu--node1-TAGTUT_clean_sbu_3--node2-NAWXER_clean_sbu_0--edge1-KIFKEQ_clean_linker_1
_symmetry_space_group_name_H-M    P1
_symmetry_Int_Tables_number       1
_symmetry_cell_setting            triclinic
loop_
_symmetry_equiv_pos_as_xyz
'x, y, z'
_cell_length_a     27.198251
_cell_length_b     23.004626
_cell_length_c     20.510067
_cell_angle_alpha  90.058518
_cell_angle_beta   91.310845
_cell_angle_gamma 90.194312
loop_
_atom_site_label
_atom_site_type_symbol
_atom_site_fract_x
_atom_site_fract_y
_atom_site_fract_z
_atom_type_partial_charge
C0 C 1.00369 0.89199 0.08298 0.0
C1 C 0.8253 0.98253 0.06559 0.0
C2 C 0.87053 0.03703 0.87693 0.0
Mg3 Mg 0.10516 0.93569 0.01437 0.0
Mg4 Mg 0.11971 0.07304 0.97157 0.0
O5 O 0.08088 0.00562 0.96509 0.0
Mg6 Mg 1.01164 0.00748 0.99468 0.0
O7 O 0.94243 0.00431 0.0246 0.0
Mg8 Mg 0.91951 0.93274 0.97672 0.0
Mg9 Mg 0.90309 0.07087 0.0146 0.0
C10 C 0.02304 0.12492 0.90328 0.0
O11 O 0.02497 0.08174 0.06829 0.0
O12 O 0.17659 0.9438 0.95173 0.0
O13 O 0.95365 0.13173 0.06408 0.0
O14 O 0.1428 0.99063 0.09612 0.0
O15 O 0.18084 0.03758 0.92088 0.0
O16 O 0.14391 0.08502 0.07136 0.0
O17 O 0.99384 0.93414 0.9223 0.0
O18 O 0.06475 0.88523 0.93423 0.0
C19 C 0.02165 0.89102 0.9086 0.0
C20 C 0.1974 0.98545 0.92047 0.0
O21 O 0.99719 0.08052 0.91951 0.0
O22 O 0.84814 0.94018 0.03857 0.0
O23 O 0.068 0.13211 0.92264 0.0
O24 O 0.88064 0.98497 0.89443 0.0
O25 O 0.84025 0.0354 0.06265 0.0
O26 O 0.88114 0.08031 0.91366 0.0
O27 O 0.03062 0.93584 0.06841 0.0
O28 O 0.96066 0.88451 0.05766 0.0
C29 C 0.15328 0.0434 0.11077 0.0
C30 C 0.9986 0.12566 0.08393 0.0
C31 C 0.03147 0.56515 0.58922 0.0
C32 C 0.06368 0.41686 0.42522 0.0
O33 O 0.07294 0.54233 0.57748 0.0
Zn34 Zn 0.05003 0.48968 0.50936 0.0
O35 O 0.99311 0.54885 0.55666 0.0
Zn36 Zn 0.97338 0.49007 0.48001 0.0
O37 O 0.92796 0.43709 0.52234 0.0
O38 O 1.00421 0.43211 0.56194 0.0
O39 O 0.01881 0.43331 0.4262 0.0
O40 O 0.09506 0.43723 0.46615 0.0
O41 O 0.03085 0.54959 0.4337 0.0
O42 O 0.95094 0.54379 0.4129 0.0
C43 C 0.9592 0.41581 0.56264 0.0
C44 C 0.99263 0.56652 0.40148 0.0
C45 C 0.58629 0.05075 0.56317 0.0
C46 C 0.43301 0.04682 0.43365 0.0
O47 O 0.57231 -0.0008 0.54725 0.0
Zn48 Zn 0.5117 0.95755 0.49601 0.0
O49 O 0.55957 0.09414 0.54784 0.0
Zn50 Zn 0.50901 0.05048 0.50078 0.0
O51 O 0.47359 0.00654 0.57829 0.0
O52 O 0.4792 0.91187 0.56283 0.0
O53 O 0.45507 0.09129 0.4569 0.0
O54 O 0.45082 0.9962 0.44488 0.0
O55 O 0.54606 0.91891 0.42618 0.0
O56 O 0.54982 0.01474 0.42168 0.0
C57 C 0.4644 0.95448 0.59658 0.0
C58 C 0.56154 0.96486 0.39874 0.0
H59 H 0.96785 0.23714 0.10063 0.0
H60 H 0.07732 0.11446 0.16872 0.0
H61 H 0.99856 0.30806 0.1795 0.0
H62 H 0.10914 0.18633 0.24695 0.0
H63 H 0.0713 0.44096 0.29784 0.0
H64 H 0.06796 0.37064 0.20855 0.0
H65 H 0.07737 0.23029 0.34814 0.0
H66 H 0.08206 0.30129 0.43722 0.0
C67 C 0.99897 0.22559 0.13183 0.0
C68 C 0.02017 0.17018 0.1283 0.0
C69 C 0.01699 0.26651 0.17663 0.0
C70 C 0.05658 0.25302 0.21927 0.0
C71 C 0.07858 0.19801 0.21484 0.0
C72 C 0.06063 0.15705 0.16963 0.0
C73 C 0.0748 0.39509 0.30897 0.0
C74 C 0.07746 0.37619 0.37386 0.0
C75 C 0.07228 0.35484 0.25808 0.0
C76 C 0.07145 0.2949 0.27134 0.0
C77 C 0.07824 0.27613 0.33626 0.0
C78 C 0.0811 0.31662 0.38727 0.0
H79 H 0.7447 0.05056 0.07217 0.0
H80 H 0.80528 0.88906 0.14375 0.0
H81 H 0.67565 0.04026 0.14439 0.0
H82 H 0.73713 0.87992 0.21928 0.0
H83 H 0.59201 0.86877 0.3298 0.0
H84 H 0.65079 0.86681 0.24089 0.0
H85 H 0.66783 0.05323 0.25679 0.0
H86 H 0.60866 0.05536 0.34254 0.0
C87 C 0.74302 0.01263 0.10335 0.0
C88 C 0.78056 0.97098 0.10302 0.0
C89 C 0.70362 0.00686 0.14515 0.0
C90 C 0.70134 0.96002 0.18906 0.0
C91 C 0.73755 0.91648 0.1861 0.0
C92 C 0.77668 0.92173 0.14303 0.0
C93 C 0.60802 0.90928 0.31358 0.0
C94 C 0.59534 0.96223 0.34307 0.0
C95 C 0.6419 0.90814 0.26292 0.0
C96 C 0.66382 0.95992 0.24101 0.0
C97 C 0.65088 0.0126 0.2708 0.0
C98 C 0.61701 0.01377 0.32065 0.0
H99 H 0.96772 0.89542 0.20318 0.0
H100 H 0.0654 0.79913 0.081 0.0
H101 H 0.9682 0.81598 0.28207 0.0
H102 H 0.06598 0.71888 0.16001 0.0
H103 H 0.07745 0.60683 0.34942 0.0
H104 H 0.08778 0.68941 0.27646 0.0
H105 H 0.93068 0.71616 0.27199 0.0
H106 H 0.92018 0.63351 0.34525 0.0
C107 C 0.99077 0.85795 0.19465 0.0
C108 C 0.01725 0.85342 0.13704 0.0
C109 C 0.99041 0.81218 0.2391 0.0
C110 C 0.01638 0.7609 0.22653 0.0
C111 C 0.04571 0.75801 0.17093 0.0
C112 C 0.04584 0.80395 0.12612 0.0
C113 C 0.04502 0.63017 0.3327 0.0
C114 C 0.99792 0.61384 0.35338 0.0
C115 C 0.05105 0.67733 0.29078 0.0
C116 C 1.01017 0.70958 0.26924 0.0
C117 C 0.96297 0.6926 0.28882 0.0
C118 C 0.95687 0.64501 0.33023 0.0
H119 H 0.16116 0.97518 0.21913 0.0
H120 H 0.21332 0.13656 0.13799 0.0
H121 H 0.223 0.9823 0.30642 0.0
H122 H 0.27664 0.14257 0.2239 0.0
H123 H 0.3795 0.1454 0.40385 0.0
H124 H 0.30404 0.15166 0.33654 0.0
H125 H 0.30894 0.96606 0.30454 0.0
H126 H 0.38255 0.95969 0.37233 0.0
C127 C 0.1854 0.01265 0.22049 0.0
C128 C 0.18291 0.05473 0.17098 0.0
C129 C 0.22116 0.01654 0.27025 0.0
C130 C 0.25584 0.06211 0.27118 0.0
C131 C 0.25067 0.10682 0.22478 0.0
C132 C 0.21435 0.10332 0.17536 0.0
C133 C 0.36414 0.10601 0.38267 0.0
C134 C 0.38711 0.05207 0.39357 0.0
C135 C 0.32098 0.10959 0.34401 0.0
C136 C 0.29997 0.05929 0.31557 0.0
C137 C 0.32311 0.00556 0.32687 0.0
C138 C 0.36585 0.00199 0.3654 0.0
H139 H 0.06028 0.89258 0.78995 0.0
H140 H 0.95888 0.79852 0.90951 0.0
H141 H 0.0596 0.81289 0.71125 0.0
H142 H 0.95824 0.71786 0.83079 0.0
H143 H 0.94697 0.60607 0.64095 0.0
H144 H 0.93745 0.68841 0.71449 0.0
H145 H 0.09497 0.71287 0.72112 0.0
H146 H 0.10465 0.63056 0.64714 0.0
C147 C 0.03654 0.85545 0.79801 0.0
C148 C 1.00901 0.85162 0.85478 0.0
C149 C 0.03675 0.80955 0.75367 0.0
C150 C 1.00963 0.75879 0.76559 0.0
C151 C 0.97943 0.75658 0.8204 0.0
C152 C 0.97936 0.80271 0.86505 0.0
C153 C 0.97966 0.62884 0.65829 0.0
C154 C 0.02663 0.61203 0.63795 0.0
C155 C 0.9741 0.67585 0.70057 0.0
C156 C 0.01535 0.70741 0.72285 0.0
C157 C 0.06242 0.68985 0.70372 0.0
C158 C 0.06804 0.64245 0.66189 0.0
H159 H 0.25373 0.065 0.85845 0.0
H160 H 0.24074 0.88004 0.89156 0.0
H161 H 0.3224 0.0486 0.78863 0.0
H162 H 0.31149 0.86361 0.82162 0.0
H163 H 0.46562 0.02073 0.70534 0.0
H164 H 0.4066 0.02017 0.79259 0.0
H165 H 0.33397 0.87097 0.70521 0.0
H166 H 0.39495 0.87023 0.61881 0.0
C167 C 0.26582 0.02066 0.85149 0.0
C168 C 0.24145 0.97385 0.88088 0.0
C169 C 0.30576 0.01128 0.81166 0.0
C170 C 0.32303 0.9548 0.80001 0.0
C171 C 0.29905 0.90767 0.82954 0.0
C172 C 0.25871 0.91712 0.86985 0.0
C173 C 0.43769 0.98701 0.70556 0.0
C174 C 0.43441 0.94599 0.65497 0.0
C175 C 0.40365 0.98686 0.75532 0.0
C176 C 0.3647 0.94649 0.755 0.0
C177 C 0.3635 0.90267 0.70695 0.0
C178 C 0.39832 0.90225 0.65744 0.0
H179 H 0.94572 0.11141 0.81624 0.0
H180 H 0.0514 0.23761 0.88895 0.0
H181 H 0.91397 0.18269 0.73753 0.0
H182 H 0.02075 0.30792 0.80986 0.0
H183 H 0.94815 0.43894 0.68982 0.0
H184 H 0.95074 0.36827 0.77864 0.0
H185 H 0.94739 0.22837 0.63782 0.0
H186 H 0.94357 0.29966 0.54918 0.0
C187 C 0.96153 0.15463 0.81626 0.0
C188 C 1.00098 0.16892 0.85895 0.0
C189 C 0.94364 0.19525 0.77081 0.0
C190 C 0.96464 0.25108 0.76758 0.0
C191 C 1.00308 0.26571 0.81171 0.0
C192 C 0.02108 0.22514 0.85666 0.0
C193 C 0.9458 0.39302 0.67823 0.0
C194 C 0.94506 0.37439 0.61315 0.0
C195 C 0.94788 0.35258 0.72888 0.0
C196 C 0.95015 0.29274 0.71526 0.0
C197 C 0.94534 0.27411 0.64998 0.0
C198 C 0.943 0.31477 0.59921 0.0
H199 H 0.83558 0.13972 0.82474 0.0
H200 H 0.8342 0.95374 0.79449 0.0
H201 H 0.77282 0.1506 0.73846 0.0
H202 H 0.77069 0.9641 0.71154 0.0
H203 H 0.66892 0.98828 0.54598 0.0
H204 H 0.74579 0.9932 0.60852 0.0
H205 H 0.68727 0.13333 0.72392 0.0
H206 H 0.61128 0.13051 0.65777 0.0
C207 C 0.82245 0.10126 0.79919 0.0
C208 C 0.83966 0.04578 0.81714 0.0
C209 C 0.78607 0.10744 0.75013 0.0
C210 C 0.766 0.05825 0.71822 0.0
C211 C 0.78541 0.00326 0.73395 0.0
C212 C 0.82191 -0.0028 0.78223 0.0
C213 C 0.67282 0.02061 0.58424 0.0
C214 C 0.63402 0.05844 0.59781 0.0
C215 C 0.71681 0.0233 0.62041 0.0
C216 C 0.72265 0.06278 0.67249 0.0
C217 C 0.68448 0.1026 0.68399 0.0
C218 C 0.64073 0.10081 0.64649 0.0
loop_
_geom_bond_atom_site_label_1
_geom_bond_atom_site_label_2
_geom_bond_distance
_geom_bond_site_symmetry_2
_ccdc_geom_bond_type
C0 O27 1.312 1_655 S
C0 O28 1.208 . S
C1 O22 1.331 . S
C1 O25 1.244 1_565 S
C2 O24 1.264 1_545 S
C2 O26 1.273 . S
Mg3 O5 1.936 1_565 S
Mg3 O12 2.081 . S
Mg3 O14 2.023 1_556 S
Mg3 O18 2.031 . S
Mg3 O27 2.291 1_556 S
Mg4 O5 1.963 . S
Mg4 O15 1.942 . S
Mg4 O16 1.955 1_556 S
Mg4 O23 1.986 . S
O5 Mg3 1.936 1_545 S
O5 Mg4 1.963 . S
O5 Mg6 1.915 1_556 S
Mg6 O5 1.915 1_554 S
Mg6 O7 1.915 1_455 S
Mg6 O11 2.013 . S
Mg6 O17 2.114 1_444 S
Mg6 O21 2.013 1_454 S
Mg6 O27 2.114 1_545 S
O7 Mg6 1.915 1_655 S
O7 Mg8 1.936 1_545 S
O7 Mg9 1.963 . S
Mg8 O7 1.936 1_565 S
Mg8 O17 2.291 1_554 S
Mg8 O22 2.081 . S
Mg8 O24 2.023 1_554 S
Mg8 O28 2.031 . S
Mg9 O7 1.963 . S
Mg9 O13 1.986 . S
Mg9 O25 1.942 . S
Mg9 O26 1.955 1_554 S
C10 O21 1.191 1_455 S
C10 O23 1.307 . S
O11 Mg6 2.013 . S
O11 C30 1.191 1_455 S
O12 Mg3 2.081 . S
O12 C20 1.331 . S
O13 Mg9 1.986 . S
O13 C30 1.307 . S
O14 Mg3 2.023 1_554 S
O14 C29 1.264 1_565 S
O15 Mg4 1.942 . S
O15 C20 1.244 1_545 S
O16 Mg4 1.955 1_554 S
O16 C29 1.273 . S
O17 Mg6 2.114 1_666 S
O17 Mg8 2.291 1_556 S
O17 C19 1.312 1_655 S
O18 Mg3 2.031 . S
O18 C19 1.208 . S
C19 O17 1.312 1_455 S
C19 O18 1.208 . S
C20 O12 1.331 . S
C20 O15 1.244 1_565 S
O21 Mg6 2.013 1_656 S
O21 C10 1.191 1_655 S
O22 C1 1.331 . S
O22 Mg8 2.081 . S
O23 Mg4 1.986 . S
O23 C10 1.307 . S
O24 C2 1.264 1_565 S
O24 Mg8 2.023 1_556 S
O25 C1 1.244 1_545 S
O25 Mg9 1.942 . S
O26 C2 1.273 . S
O26 Mg9 1.955 1_556 S
O27 C0 1.312 1_455 S
O27 Mg3 2.291 1_554 S
O27 Mg6 2.114 1_565 S
O28 C0 1.208 . S
O28 Mg8 2.031 . S
C29 O14 1.264 1_545 S
C29 O16 1.273 . S
C30 O11 1.191 1_655 S
C30 O13 1.307 . S
C31 O33 1.251 . S
C31 O35 1.254 1_455 S
C32 O39 1.246 . S
C32 O40 1.259 1_655 S
O33 C31 1.251 . S
O33 Zn34 2.028 . S
Zn34 O33 2.028 . S
Zn34 O38 2.035 . S
Zn34 O40 2.035 . S
Zn34 O41 2.028 . S
O35 C31 1.254 1_655 S
O35 Zn36 2.035 . S
Zn36 O35 2.035 . S
Zn36 O37 2.028 . S
Zn36 O39 2.028 . S
Zn36 O42 2.035 . S
O37 Zn36 2.028 . S
O37 C43 1.246 . S
O38 Zn34 2.035 . S
O38 C43 1.259 1_455 S
O39 C32 1.246 . S
O39 Zn36 2.028 . S
O40 C32 1.259 1_455 S
O40 Zn34 2.035 . S
O41 Zn34 2.028 . S
O41 C44 1.251 . S
O42 Zn36 2.035 . S
O42 C44 1.253 1_655 S
C43 O37 1.246 . S
C43 O38 1.259 1_655 S
C44 O41 1.251 . S
C44 O42 1.253 1_455 S
C45 O47 1.247 1_545 S
C45 O49 1.258 . S
C46 O53 1.247 . S
C46 O54 1.258 1_545 S
O47 C45 1.247 1_565 S
O47 Zn48 2.028 . S
Zn48 O47 2.028 . S
Zn48 O52 2.035 . S
Zn48 O54 2.035 . S
Zn48 O55 2.028 . S
O49 C45 1.258 . S
O49 Zn50 2.035 . S
Zn50 O49 2.035 . S
Zn50 O51 2.028 . S
Zn50 O53 2.028 . S
Zn50 O56 2.035 . S
O51 Zn50 2.028 . S
O51 C57 1.247 . S
O52 Zn48 2.035 . S
O52 C57 1.258 1_565 S
O53 C46 1.247 . S
O53 Zn50 2.028 . S
O54 C46 1.258 1_565 S
O54 Zn48 2.035 . S
O55 Zn48 2.028 . S
O55 C58 1.247 1_565 S
O56 Zn50 2.035 . S
O56 C58 1.258 . S
C57 O51 1.247 . S
C57 O52 1.258 1_545 S
C58 O55 1.247 1_545 S
C58 O56 1.258 . S
H59 C67 0.950 . S
H60 C72 0.950 . S
H61 C69 0.950 . S
H62 C71 0.950 . S
H63 C73 0.950 . S
H64 C75 0.950 . S
H65 C77 0.950 . S
H66 C78 0.950 . S
C67 H59 0.950 . S
C67 C68 1.381 1_655 S
C67 C69 1.391 . S
C68 C67 1.381 1_455 S
C68 C72 1.398 . S
C69 H61 0.950 . S
C69 C67 1.391 . S
C69 C70 1.400 1_655 S
C70 C69 1.400 1_455 S
C70 C71 1.398 . S
C70 C76 1.491 1_455 S
C71 H62 0.950 . S
C71 C70 1.398 . S
C71 C72 1.391 . S
C72 H60 0.950 . S
C72 C68 1.398 . S
C72 C71 1.391 . S
C73 H63 0.950 . S
C73 C74 1.386 1_455 S
C73 C75 1.391 . S
C74 C73 1.386 1_655 S
C74 C78 1.393 . S
C75 H64 0.950 . S
C75 C73 1.391 . S
C75 C76 1.400 1_455 S
C76 C70 1.491 1_655 S
C76 C75 1.400 1_655 S
C76 C77 1.398 . S
C77 H65 0.950 . S
C77 C76 1.398 . S
C77 C78 1.391 . S
C78 H66 0.950 . S
C78 C74 1.393 . S
C78 C77 1.391 . S
H79 C87 0.950 . S
H80 C92 0.950 . S
H81 C89 0.950 . S
H82 C91 0.950 . S
H83 C93 0.950 . S
H84 C95 0.950 . S
H85 C97 0.950 . S
H86 C98 0.950 . S
C87 H79 0.950 . S
C87 C88 1.386 1_545 S
C87 C89 1.391 . S
C88 C87 1.386 1_565 S
C88 C92 1.393 . S
C89 H81 0.950 . S
C89 C87 1.391 . S
C89 C90 1.400 1_545 S
C90 C89 1.400 1_565 S
C90 C91 1.398 . S
C90 C96 1.491 . S
C91 H82 0.950 . S
C91 C90 1.398 . S
C91 C92 1.391 . S
C92 H80 0.950 . S
C92 C88 1.393 . S
C92 C91 1.391 . S
C93 H83 0.950 . S
C93 C94 1.378 1_565 S
C93 C95 1.391 . S
C94 C93 1.378 1_545 S
C94 C98 1.400 . S
C95 H84 0.950 . S
C95 C93 1.391 . S
C95 C96 1.400 . S
C96 C90 1.491 . S
C96 C95 1.400 . S
C96 C97 1.398 1_565 S
C97 H85 0.950 . S
C97 C96 1.398 1_545 S
C97 C98 1.391 . S
C98 H86 0.950 . S
C98 C94 1.400 . S
C98 C97 1.391 . S
H99 C107 0.950 . S
H100 C112 0.950 . S
H101 C109 0.950 . S
H102 C111 0.950 . S
H103 C113 0.950 . S
H104 C115 0.950 . S
H105 C117 0.950 . S
H106 C118 0.950 . S
C107 H99 0.950 . S
C107 C108 1.386 1_655 S
C107 C109 1.391 . S
C108 C107 1.386 1_455 S
C108 C112 1.393 . S
C109 H101 0.950 . S
C109 C107 1.391 . S
C109 C110 1.400 1_655 S
C110 C109 1.400 1_455 S
C110 C111 1.398 . S
C110 C116 1.491 . S
C111 H102 0.950 . S
C111 C110 1.398 . S
C111 C112 1.391 . S
C112 H100 0.950 . S
C112 C108 1.393 . S
C112 C111 1.391 . S
C113 H103 0.950 . S
C113 C114 1.386 . S
C113 C115 1.391 . S
C114 C113 1.386 . S
C114 C118 1.393 1_455 S
C115 H104 0.950 . S
C115 C113 1.391 . S
C115 C116 1.400 . S
C116 C110 1.491 . S
C116 C115 1.400 . S
C116 C117 1.398 1_455 S
C117 H105 0.950 . S
C117 C116 1.398 1_655 S
C117 C118 1.391 . S
C118 H106 0.950 . S
C118 C114 1.393 1_655 S
C118 C117 1.391 . S
H119 C127 0.950 1_565 S
H120 C132 0.950 . S
H121 C129 0.950 1_565 S
H122 C131 0.950 . S
H123 C133 0.950 . S
H124 C135 0.950 . S
H125 C137 0.950 1_565 S
H126 C138 0.950 . S
C127 H119 0.950 1_545 S
C127 C128 1.386 . S
C127 C129 1.391 . S
C128 C127 1.386 . S
C128 C132 1.393 . S
C129 H121 0.950 1_545 S
C129 C127 1.391 . S
C129 C130 1.400 . S
C130 C129 1.400 . S
C130 C131 1.398 . S
C130 C136 1.491 . S
C131 H122 0.950 . S
C131 C130 1.398 . S
C131 C132 1.391 . S
C132 H120 0.950 . S
C132 C128 1.393 . S
C132 C131 1.391 . S
C133 H123 0.950 . S
C133 C134 1.386 . S
C133 C135 1.391 . S
C134 C133 1.386 . S
C134 C138 1.393 1_545 S
C135 H124 0.950 . S
C135 C133 1.391 . S
C135 C136 1.400 . S
C136 C130 1.491 . S
C136 C135 1.400 . S
C136 C137 1.398 . S
C137 H125 0.950 1_545 S
C137 C136 1.398 . S
C137 C138 1.391 1_545 S
C138 H126 0.950 . S
C138 C134 1.393 1_565 S
C138 C137 1.391 1_565 S
H139 C147 0.950 . S
H140 C152 0.950 . S
H141 C149 0.950 . S
H142 C151 0.950 . S
H143 C153 0.950 . S
H144 C155 0.950 . S
H145 C157 0.950 . S
H146 C158 0.950 . S
C147 H139 0.950 . S
C147 C148 1.386 1_455 S
C147 C149 1.391 . S
C148 C147 1.386 1_655 S
C148 C152 1.393 . S
C149 H141 0.950 . S
C149 C147 1.391 . S
C149 C150 1.400 1_455 S
C150 C149 1.400 1_655 S
C150 C151 1.398 . S
C150 C156 1.491 . S
C151 H142 0.950 . S
C151 C150 1.398 . S
C151 C152 1.391 . S
C152 H140 0.950 . S
C152 C148 1.393 . S
C152 C151 1.391 . S
C153 H143 0.950 . S
C153 C154 1.403 . S
C153 C155 1.391 . S
C154 C153 1.403 . S
C154 C158 1.377 1_655 S
C155 H144 0.950 . S
C155 C153 1.391 . S
C155 C156 1.400 . S
C156 C150 1.491 . S
C156 C155 1.400 . S
C156 C157 1.398 1_655 S
C157 H145 0.950 . S
C157 C156 1.398 1_455 S
C157 C158 1.391 . S
C158 H146 0.950 . S
C158 C154 1.377 1_455 S
C158 C157 1.391 . S
H159 C167 0.950 . S
H160 C172 0.950 . S
H161 C169 0.950 . S
H162 C171 0.950 . S
H163 C173 0.950 . S
H164 C175 0.950 . S
H165 C177 0.950 . S
H166 C178 0.950 . S
C167 H159 0.950 . S
C167 C168 1.386 . S
C167 C169 1.391 . S
C168 C167 1.386 . S
C168 C172 1.392 1_565 S
C169 H161 0.950 . S
C169 C167 1.391 . S
C169 C170 1.400 . S
C170 C169 1.400 . S
C170 C171 1.398 1_565 S
C170 C176 1.491 . S
C171 H162 0.950 . S
C171 C170 1.398 1_545 S
C171 C172 1.391 . S
C172 H160 0.950 . S
C172 C168 1.392 1_545 S
C172 C171 1.391 . S
C173 H163 0.950 . S
C173 C174 1.386 . S
C173 C175 1.391 . S
C174 C173 1.386 . S
C174 C178 1.392 1_545 S
C175 H164 0.950 . S
C175 C173 1.391 . S
C175 C176 1.400 1_545 S
C176 C170 1.491 . S
C176 C175 1.400 1_565 S
C176 C177 1.398 . S
C177 H165 0.950 . S
C177 C176 1.398 . S
C177 C178 1.391 . S
C178 H166 0.950 . S
C178 C174 1.392 1_565 S
C178 C177 1.391 . S
H179 C187 0.950 . S
H180 C192 0.950 . S
H181 C189 0.950 . S
H182 C191 0.950 . S
H183 C193 0.950 . S
H184 C195 0.950 . S
H185 C197 0.950 . S
H186 C198 0.950 . S
C187 H179 0.950 . S
C187 C188 1.386 1_655 S
C187 C189 1.391 . S
C188 C187 1.386 1_455 S
C188 C192 1.393 . S
C189 H181 0.950 . S
C189 C187 1.391 . S
C189 C190 1.384 1_655 S
C190 C189 1.384 1_455 S
C190 C191 1.414 . S
C190 C196 1.491 . S
C191 H182 0.950 . S
C191 C190 1.414 . S
C191 C192 1.391 . S
C192 H180 0.950 . S
C192 C188 1.393 . S
C192 C191 1.391 . S
C193 H183 0.950 . S
C193 C194 1.389 . S
C193 C195 1.391 . S
C194 C193 1.389 . S
C194 C198 1.389 1_455 S
C195 H184 0.950 . S
C195 C193 1.391 . S
C195 C196 1.414 . S
C196 C190 1.491 . S
C196 C195 1.414 . S
C196 C197 1.385 1_455 S
C197 H185 0.950 . S
C197 C196 1.385 1_655 S
C197 C198 1.391 . S
C198 H186 0.950 . S
C198 C194 1.389 1_655 S
C198 C197 1.391 . S
H199 C207 0.950 . S
H200 C212 0.950 . S
H201 C209 0.950 . S
H202 C211 0.950 . S
H203 C213 0.948 1_565 S
H204 C215 0.950 . S
H205 C217 0.950 . S
H206 C218 0.950 . S
C207 H199 0.950 . S
C207 C208 1.386 . S
C207 C209 1.391 . S
C208 C207 1.386 . S
C208 C212 1.393 . S
C209 H201 0.950 . S
C209 C207 1.391 . S
C209 C210 1.400 . S
C210 C209 1.400 . S
C210 C211 1.398 . S
C210 C216 1.491 . S
C211 H202 0.950 . S
C211 C210 1.398 . S
C211 C212 1.391 . S
C212 H200 0.950 . S
C212 C208 1.393 . S
C212 C211 1.391 . S
C213 H203 0.948 1_545 S
C213 C214 1.386 . S
C213 C215 1.392 . S
C214 C213 1.386 . S
C214 C218 1.393 . S
C215 H204 0.950 . S
C215 C213 1.392 . S
C215 C216 1.400 . S
C216 C210 1.491 . S
C216 C215 1.400 . S
C216 C217 1.398 . S
C217 H205 0.950 . S
C217 C216 1.398 . S
C217 C218 1.391 . S
C218 H206 0.950 . S
C218 C214 1.393 . S
C218 C217 1.391 . S
C68 C30 1.347 1_455 S
C74 C32 1.368 . S
C88 C1 1.495 . S
C94 C58 1.530 . S
C108 C0 1.315 1_455 S
C114 C44 1.386 . S
C128 C29 1.536 . S
C134 C46 1.569 . S
C148 C19 1.315 1_655 S
C154 C31 1.387 1_655 S
C168 C20 1.498 . S
C174 C57 1.531 . S
C194 C43 1.373 1_455 S
C188 C10 1.331 . S
C208 C2 1.545 . S
C214 C45 1.573 . S
