# Generated by pormake.
# Topology bcu-b, (8,8)-cn, num edge types: 1
# Building blocks:
#     Node 0, Type 0, BuildingBlock: TAGTUT_clean_sbu_1, # of connection points: 8
#     Node 1, Type 1, BuildingBlock: GIZVER_clean_sbu_0, # of connection points: 8
#     Edge 2, Type (0, 1), None
#     Edge 3, Type (0, 1), None
#     Edge 4, Type (0, 1), None
#     Edge 5, Type (0, 1), None
#     Edge 6, Type (0, 1), None
#     Edge 7, Type (0, 1), None
#     Edge 8, Type (0, 1), None
#     Edge 9, Type (0, 1), None
# Relax obj value: 0.094
# Max RMSD: 0.167
# Mean RMSD: 0.166
data_MOF--net-bcu-b--node1-TAGTUT_clean_sbu_1--node2-GIZVER_clean_sbu_0--edge1-none
_symmetry_space_group_name_H-M    P1
_symmetry_Int_Tables_number       1
_symmetry_cell_setting            triclinic
loop_
_symmetry_equiv_pos_as_xyz
'x, y, z'
_cell_length_a     10.734463
_cell_length_b     12.759623
_cell_length_c     9.2158406
_cell_angle_alpha  85.761847
_cell_angle_beta   94.789969
_cell_angle_gamma 123.15146
loop_
_atom_site_label
_atom_site_type_symbol
_atom_site_fract_x
_atom_site_fract_y
_atom_site_fract_z
_atom_type_partial_charge
C0 C 0.78587 0.22149 0.09034 0.0
C1 C 0.90316 0.23679 0.66523 0.0
C2 C 0.78839 0.76333 0.79969 0.0
Mg3 Mg 0.05758 0.25145 0.96632 0.0
O4 O 0.93912 0.08138 0.01456 0.0
Mg5 Mg 0.74778 0.98652 0.89676 0.0
Mg6 Mg 0.03603 -0.01021 -0.00796 0.0
O7 O 0.13266 0.89802 0.96944 0.0
Mg8 Mg 1.01397 0.72787 0.01756 0.0
Mg9 Mg 0.32396 -0.00732 0.08718 0.0
C10 C 0.28303 0.216 0.1847 0.0
C11 C 0.3539 0.18725 0.82757 0.0
O12 O 0.70182 0.11388 0.0298 0.0
O13 O 0.92615 0.29183 0.07682 0.0
O14 O 0.80242 0.12671 0.70539 0.0
O15 O 1.02703 0.29798 0.73964 0.0
O16 O 0.24946 0.2838 0.1017 0.0
O17 O 0.21588 0.09667 0.17487 0.0
C18 C 0.71807 0.7922 0.15647 0.0
O19 O 0.85695 0.83022 0.1551 0.0
O20 O 0.66392 0.84205 0.07232 0.0
O21 O 0.36969 0.86527 0.95407 0.0
O22 O 0.14527 0.68747 0.90679 0.0
O23 O 0.26928 0.85249 0.27849 0.0
C24 C 0.28559 0.75774 0.8934 0.0
O25 O 0.04472 0.68117 0.24413 0.0
O26 O 0.82159 0.69532 0.88275 0.0
C27 C 0.16856 0.74238 0.31858 0.0
O28 O 0.85634 0.88273 0.80942 0.0
O29 O 0.21506 0.14932 0.829 0.0
O30 O 0.40796 0.13727 0.91164 0.0
Co31 Co 0.63456 0.31101 0.33555 0.0
Co32 Co 0.73158 0.38747 0.59041 0.0
Co33 Co 0.536 0.48975 0.49201 0.0
O34 O 0.68968 0.45869 0.43664 0.0
H35 H 0.77993 0.53324 0.40391 0.0
O36 O 0.38228 0.52075 0.54737 0.0
Co37 Co 0.43719 0.66837 0.64839 0.0
Co38 Co 0.34032 0.59186 0.39354 0.0
H39 H 0.29204 0.44618 0.58008 0.0
O40 O 0.92005 0.42577 0.61236 0.0
O41 O 0.7153 0.25155 0.51304 0.0
O42 O 0.59779 0.32302 0.74936 0.0
O43 O 0.42036 0.3345 0.62407 0.0
O44 O 0.66167 0.58999 0.65517 0.0
O45 O 0.48072 0.79804 0.74923 0.0
O46 O 0.26581 0.60818 0.73267 0.0
O47 O 0.63128 0.74594 0.58974 0.0
O48 O 0.65165 0.64501 0.36 0.0
O49 O 0.47417 0.65636 0.23463 0.0
O50 O 0.35644 0.72773 0.47082 0.0
O51 O 0.1518 0.55341 0.37149 0.0
C52 C 0.72392 0.26106 0.19267 0.0
C53 C 0.37807 0.27905 0.31229 0.0
C54 C 0.46236 0.28985 0.73068 0.0
C55 C 0.85109 0.30918 0.5775 0.0
C56 C 0.34762 0.71821 0.79113 0.0
C57 C 0.6938 0.70049 0.67176 0.0
C58 C 0.60963 0.68961 0.25336 0.0
C59 C 0.22069 0.67002 0.40627 0.0
O60 O 0.59084 0.18129 0.23464 0.0
O61 O 0.80584 0.37108 0.25114 0.0
O62 O 0.41031 0.38958 0.32883 0.0
O63 O 0.44054 0.23355 0.39432 0.0
loop_
_geom_bond_atom_site_label_1
_geom_bond_atom_site_label_2
_geom_bond_distance
_geom_bond_site_symmetry_2
_ccdc_geom_bond_type
C0 O12 1.241 . S
C0 O13 1.280 . S
C1 O14 1.277 . S
C1 O15 1.245 . S
C2 O26 1.247 . S
C2 O28 1.289 . S
Mg3 O4 1.926 . S
Mg3 O13 1.984 . S
Mg3 O15 1.988 1_554 S
Mg3 O16 2.061 1_655 S
O4 Mg3 1.926 . S
O4 Mg5 1.986 1_544 S
O4 Mg6 1.916 1_655 S
Mg5 O4 1.986 1_566 S
Mg5 O12 2.042 1_566 S
Mg5 O14 2.041 1_565 S
Mg5 O20 2.038 1_556 S
Mg5 O28 2.238 . S
Mg6 O4 1.916 1_455 S
Mg6 O7 1.918 1_544 S
Mg6 O17 2.107 . S
Mg6 O19 2.078 1_445 S
Mg6 O28 2.106 1_444 S
Mg6 O29 2.079 1_554 S
O7 Mg6 1.918 1_566 S
O7 Mg8 1.926 . S
O7 Mg9 1.986 1_566 S
Mg8 O7 1.926 . S
Mg8 O22 1.984 . S
Mg8 O25 1.988 1_556 S
Mg8 O26 2.061 1_455 S
Mg9 O7 1.986 1_544 S
Mg9 O17 2.238 . S
Mg9 O21 2.042 1_544 S
Mg9 O23 2.041 1_545 S
Mg9 O30 2.038 1_554 S
C10 O16 1.247 . S
C10 O17 1.289 . S
C11 O29 1.245 . S
C11 O30 1.274 . S
O12 C0 1.241 . S
O12 Mg5 2.042 1_544 S
O13 C0 1.280 . S
O13 Mg3 1.984 . S
O14 C1 1.277 . S
O14 Mg5 2.041 1_545 S
O15 C1 1.245 . S
O15 Mg3 1.988 1_556 S
O16 Mg3 2.061 1_455 S
O16 C10 1.247 . S
O17 Mg6 2.107 . S
O17 Mg9 2.238 . S
O17 C10 1.289 . S
C18 O19 1.245 . S
C18 O20 1.274 . S
O19 Mg6 2.078 1_665 S
O19 C18 1.245 . S
O20 Mg5 2.038 1_554 S
O20 C18 1.274 . S
O21 Mg9 2.042 1_566 S
O21 C24 1.241 . S
O22 Mg8 1.984 . S
O22 C24 1.280 . S
O23 Mg9 2.041 1_565 S
O23 C27 1.277 . S
C24 O21 1.241 . S
C24 O22 1.280 . S
O25 Mg8 1.988 1_554 S
O25 C27 1.245 . S
O26 C2 1.247 . S
O26 Mg8 2.061 1_655 S
C27 O23 1.277 . S
C27 O25 1.245 . S
O28 C2 1.289 . S
O28 Mg5 2.238 . S
O28 Mg6 2.106 1_666 S
O29 Mg6 2.079 1_556 S
O29 C11 1.245 . S
O30 Mg9 2.038 1_556 S
O30 C11 1.274 . S
Co31 O34 2.042 . S
Co31 O41 2.264 . S
Co31 O60 2.286 . S
Co31 O61 2.069 . S
Co31 O63 2.015 . S
Co32 O34 2.122 . S
Co32 O40 2.073 . S
Co32 O41 2.327 . S
Co32 O42 1.976 . S
Co33 O34 2.087 . S
Co33 O36 2.087 . S
Co33 O43 2.111 . S
Co33 O44 2.143 . S
Co33 O48 2.111 . S
Co33 O62 2.143 . S
O34 Co31 2.042 . S
O34 Co32 2.122 . S
O34 Co33 2.087 . S
O34 H35 0.980 . S
H35 O34 0.980 . S
O36 Co33 2.087 . S
O36 Co37 2.042 . S
O36 Co38 2.122 . S
O36 H39 0.980 . S
Co37 O36 2.042 . S
Co37 O45 2.286 . S
Co37 O46 2.069 . S
Co37 O47 2.015 . S
Co37 O50 2.264 . S
Co38 O36 2.122 . S
Co38 O49 1.976 . S
Co38 O50 2.327 . S
Co38 O51 2.073 . S
H39 O36 0.980 . S
O40 Co32 2.073 . S
O40 C55 1.245 . S
O41 Co31 2.264 . S
O41 Co32 2.327 . S
O41 C55 1.257 . S
O42 Co32 1.976 . S
O42 C54 1.251 . S
O43 Co33 2.111 . S
O43 C54 1.274 . S
O44 Co33 2.143 . S
O44 C57 1.246 . S
O45 Co37 2.286 . S
O45 C56 1.259 . S
O46 Co37 2.069 . S
O46 C56 1.289 . S
O47 Co37 2.015 . S
O47 C57 1.257 . S
O48 Co33 2.111 . S
O48 C58 1.274 . S
O49 Co38 1.976 . S
O49 C58 1.251 . S
O50 Co37 2.264 . S
O50 Co38 2.327 . S
O50 C59 1.257 . S
O51 Co38 2.073 . S
O51 C59 1.245 . S
C52 O60 1.259 . S
C52 O61 1.289 . S
C53 O62 1.246 . S
C53 O63 1.257 . S
C54 O42 1.251 . S
C54 O43 1.274 . S
C55 O40 1.245 . S
C55 O41 1.257 . S
C56 O45 1.259 . S
C56 O46 1.289 . S
C57 O44 1.246 . S
C57 O47 1.257 . S
C58 O48 1.274 . S
C58 O49 1.251 . S
C59 O50 1.257 . S
C59 O51 1.245 . S
O60 Co31 2.286 . S
O60 C52 1.259 . S
O61 Co31 2.069 . S
O61 C52 1.289 . S
O62 Co33 2.143 . S
O62 C53 1.246 . S
O63 Co31 2.015 . S
O63 C53 1.257 . S
C10 C53 1.398 . S
C0 C52 1.402 . S
C18 C58 1.543 . S
C27 C59 1.449 . S
C24 C56 1.404 . S
C54 C11 1.543 . S
C1 C55 1.449 . S
C57 C2 1.399 . S
