# Generated by pormake.
# Topology pts, (4,4)-cn, num edge types: 1
# Building blocks:
#     Node 0, Type 0, BuildingBlock: NAWXER_clean_sbu_0, # of connection points: 4
#     Node 1, Type 0, BuildingBlock: NAWXER_clean_sbu_0, # of connection points: 4
#     Node 2, Type 1, BuildingBlock: UXUYUI_clean_sbu_0, # of connection points: 4
#     Node 3, Type 1, BuildingBlock: UXUYUI_clean_sbu_0, # of connection points: 4
#     Edge 4, Type (0, 1), None
#     Edge 5, Type (0, 1), None
#     Edge 6, Type (0, 1), None
#     Edge 7, Type (0, 1), None
#     Edge 8, Type (0, 1), None
#     Edge 9, Type (0, 1), None
#     Edge 10, Type (0, 1), None
#     Edge 11, Type (0, 1), None
# Relax obj value: 0.015
# Max RMSD: 0.059
# Mean RMSD: 0.051
data_MOF--net-pts--node1-NAWXER_clean_sbu_0--node2-UXUYUI_clean_sbu_0--edge1-none
_symmetry_space_group_name_H-M    P1
_symmetry_Int_Tables_number       1
_symmetry_cell_setting            triclinic
loop_
_symmetry_equiv_pos_as_xyz
'x, y, z'
_cell_length_a     15.966683
_cell_length_b     15.966692
_cell_length_c     24.767533
_cell_angle_alpha  89.999897
_cell_angle_beta   90.000075
_cell_angle_gamma 90.000016
loop_
_atom_site_label
_atom_site_type_symbol
_atom_site_fract_x
_atom_site_fract_y
_atom_site_fract_z
_atom_type_partial_charge
C0 C 0.40019 0.95612 0.95652 0.0
C1 C 0.62105 0.95612 0.09758 0.0
O2 O 0.42791 0.88827 0.97733 0.0
Zn3 Zn 0.51062 0.94013 0.02705 0.0
O4 O 0.42845 0.02647 0.97256 0.0
Zn5 Zn 0.51063 0.08111 0.02705 0.0
O6 O 0.59334 0.13297 0.97733 0.0
O7 O 0.5928 0.99477 0.97256 0.0
O8 O 0.5928 0.02646 0.08154 0.0
O9 O 0.59333 0.88827 0.07677 0.0
O10 O 0.42845 0.99479 0.08154 0.0
O11 O 0.42792 0.13298 0.07677 0.0
C12 C 0.62106 0.06511 0.95652 0.0
C13 C 0.4002 0.06513 0.09758 0.0
C14 C 0.95612 0.62107 0.45652 0.0
C15 C 0.95612 0.40021 0.59759 0.0
O16 O 0.88827 0.59335 0.47733 0.0
Zn17 Zn 0.94013 0.51064 0.52705 0.0
O18 O 0.02646 0.59281 0.47256 0.0
Zn19 Zn 0.08111 0.51063 0.52705 0.0
O20 O 0.13297 0.42792 0.47733 0.0
O21 O 0.99477 0.42846 0.47256 0.0
O22 O 0.02646 0.42846 0.58154 0.0
O23 O 0.88827 0.42793 0.57677 0.0
O24 O 0.99479 0.59281 0.58154 0.0
O25 O 0.13298 0.59334 0.57677 0.0
C26 C 0.06511 0.40019 0.45652 0.0
C27 C 0.06513 0.62106 0.59758 0.0
Li28 Li 0.01442 0.09013 0.31107 0.0
Li29 Li 1.00683 0.93113 0.31107 0.0
Li30 Li 0.09012 0.01442 0.24302 0.0
Li31 Li 0.93113 1.00684 0.24302 0.0
C32 C 0.18993 1.00111 0.33055 0.0
N33 N 0.36116 0.98901 0.34515 0.0
C34 C 0.22542 0.92627 0.34877 0.0
C35 C 0.24154 0.07009 0.32024 0.0
C36 C 0.31212 0.92133 0.35578 0.0
C37 C 0.32794 0.06265 0.32774 0.0
C38 C 0.83132 0.02015 0.33055 0.0
C39 C 0.69331 0.9586 0.32774 0.0
N40 N 0.66009 0.03223 0.34514 0.0
C41 C 0.79582 0.09498 0.34877 0.0
C42 C 0.77972 0.95116 0.32024 0.0
C43 C 0.70912 0.09992 0.35577 0.0
C44 C 0.9803 0.25641 0.34968 0.0
N45 N 0.03039 0.1883 0.35565 0.0
C46 C 0.11332 0.26066 0.42197 0.0
C47 C 0.0957 0.18918 0.39119 0.0
C48 C 0.06193 0.33116 0.41691 0.0
C49 C 0.99511 0.32863 0.37988 0.0
H50 H 0.92861 0.25474 0.32156 0.0
H51 H 0.13344 0.13383 0.39663 0.0
C52 C 0.04093 0.76485 0.34968 0.0
N53 N 0.99085 0.83296 0.35566 0.0
C54 C 0.02612 0.69263 0.37988 0.0
C55 C 0.90792 0.76062 0.42198 0.0
C56 C 0.92555 0.8321 0.3912 0.0
C57 C 0.95929 0.6901 0.41692 0.0
H58 H 0.09263 0.76651 0.32156 0.0
H59 H 0.88782 0.88745 0.39664 0.0
C60 C 1.0011 0.18993 0.22355 0.0
N61 N 0.98901 0.36117 0.20895 0.0
C62 C 0.92627 0.22543 0.20532 0.0
C63 C 0.07008 0.24154 0.23385 0.0
C64 C 0.92133 0.31213 0.19832 0.0
C65 C 0.06264 0.32794 0.22636 0.0
C66 C 0.02015 0.83133 0.22355 0.0
C67 C 0.09499 0.79584 0.20532 0.0
C68 C 0.95117 0.77972 0.23385 0.0
C69 C 0.09993 0.70913 0.19832 0.0
C70 C 0.95861 0.69332 0.22636 0.0
N71 N 0.03225 0.66009 0.20895 0.0
C72 C 0.25641 0.98032 0.20441 0.0
C73 C 0.18916 0.09571 0.1629 0.0
C74 C 0.32863 0.99513 0.17422 0.0
N75 N 0.1883 0.0304 0.19844 0.0
C76 C 0.26065 0.11334 0.13212 0.0
C77 C 0.33116 0.06196 0.13718 0.0
H78 H 0.25474 0.92863 0.23254 0.0
H79 H 0.13381 0.13344 0.15746 0.0
C80 C 0.76484 0.04094 0.20441 0.0
N81 N 0.83295 0.99086 0.19844 0.0
C82 C 0.69262 0.02612 0.17422 0.0
C83 C 0.7606 0.90791 0.13212 0.0
C84 C 0.83209 0.92555 0.1629 0.0
C85 C 0.69009 0.9593 0.13719 0.0
H86 H 0.76651 0.09263 0.23254 0.0
H87 H 0.88744 0.88781 0.15746 0.0
O88 O 0.10508 1.007 0.3234 0.0
O89 O 0.91617 0.01427 0.3234 0.0
O90 O 1.00699 0.10508 0.23069 0.0
O91 O 0.01426 0.91618 0.23069 0.0
H92 H 0.18648 0.87264 0.35754 0.0
H93 H 0.21523 0.1285 0.30607 0.0
H94 H 0.34041 0.86368 0.3697 0.0
H95 H 0.3686 0.11533 0.31955 0.0
H96 H 0.65266 0.90591 0.31955 0.0
H97 H 0.83475 0.14862 0.35754 0.0
H98 H 0.80603 0.89276 0.30607 0.0
H99 H 0.68082 0.15756 0.3697 0.0
H100 H 0.16352 0.25912 0.45138 0.0
H101 H 0.95304 0.38144 0.37541 0.0
H102 H 0.06818 0.63981 0.37541 0.0
H103 H 0.85772 0.76217 0.45139 0.0
H104 H 0.87264 0.18649 0.19655 0.0
H105 H 0.12849 0.21523 0.24802 0.0
H106 H 0.86368 0.34043 0.18439 0.0
H107 H 0.11533 0.3686 0.23455 0.0
H108 H 0.14862 0.83477 0.19656 0.0
H109 H 0.89276 0.80602 0.24802 0.0
H110 H 0.15757 0.68084 0.18439 0.0
H111 H 0.90592 0.65266 0.23455 0.0
H112 H 0.38144 0.95307 0.17869 0.0
H113 H 0.2591 0.16354 0.10271 0.0
H114 H 0.63981 0.06818 0.17869 0.0
H115 H 0.76215 0.85772 0.10272 0.0
Li116 Li 0.93113 0.01442 0.81107 0.0
Li117 Li 0.09012 1.00684 0.81107 0.0
Li118 Li 1.00683 0.09013 0.74302 0.0
Li119 Li 0.01442 0.93113 0.74302 0.0
C120 C 0.02015 0.18993 0.83055 0.0
N121 N 0.03225 0.36116 0.84514 0.0
C122 C 0.09499 0.22542 0.84877 0.0
C123 C 0.95117 0.24154 0.82024 0.0
C124 C 0.09993 0.31213 0.85577 0.0
C125 C 0.95861 0.32795 0.82774 0.0
C126 C 1.00111 0.83133 0.83055 0.0
C127 C 0.06266 0.69332 0.82774 0.0
N128 N 0.98903 0.66009 0.84515 0.0
C129 C 0.92628 0.79583 0.84877 0.0
C130 C 0.0701 0.77972 0.82024 0.0
C131 C 0.92134 0.70913 0.85578 0.0
C132 C 0.76485 0.9803 0.84968 0.0
N133 N 0.83295 0.0304 0.85565 0.0
C134 C 0.7606 0.11333 0.92197 0.0
C135 C 0.83208 0.09571 0.89119 0.0
C136 C 0.69009 0.06193 0.91692 0.0
C137 C 0.69263 0.99511 0.87988 0.0
H138 H 0.76652 0.92861 0.82156 0.0
H139 H 0.88743 0.13345 0.89663 0.0
C140 C 0.25641 0.04094 0.84968 0.0
N141 N 0.1883 0.99086 0.85566 0.0
C142 C 0.32863 0.02612 0.87988 0.0
C143 C 0.26064 0.90792 0.92198 0.0
C144 C 0.18916 0.92555 0.8912 0.0
C145 C 0.33116 0.9593 0.91692 0.0
H146 H 0.25475 0.09263 0.82156 0.0
H147 H 0.1338 0.88783 0.89664 0.0
C148 C 0.83133 1.0011 0.72355 0.0
N149 N 0.66009 0.98901 0.70895 0.0
C150 C 0.79583 0.92627 0.70532 0.0
C151 C 0.77971 0.07009 0.73386 0.0
C152 C 0.70913 0.92133 0.69832 0.0
C153 C 0.69331 0.06265 0.72636 0.0
C154 C 0.18993 0.02016 0.72355 0.0
C155 C 0.22542 0.09499 0.70532 0.0
C156 C 0.24154 0.95117 0.73385 0.0
C157 C 0.31213 0.09993 0.69832 0.0
C158 C 0.32794 0.95861 0.72635 0.0
N159 N 0.36116 0.03225 0.70895 0.0
C160 C 0.04094 0.25642 0.70441 0.0
C161 C 0.92554 0.18917 0.6629 0.0
C162 C 0.02612 0.32864 0.67422 0.0
N163 N 0.99085 0.1883 0.69844 0.0
C164 C 0.90791 0.26066 0.63212 0.0
C165 C 0.9593 0.33117 0.63719 0.0
H166 H 0.09263 0.25475 0.73254 0.0
H167 H 0.88781 0.13382 0.65746 0.0
C168 C 0.98032 0.76485 0.70441 0.0
N169 N 0.0304 0.83296 0.69844 0.0
C170 C 0.99513 0.69263 0.67422 0.0
C171 C 0.11334 0.76061 0.63212 0.0
C172 C 0.09571 0.8321 0.6629 0.0
C173 C 0.06196 0.6901 0.63718 0.0
H174 H 0.92863 0.76652 0.73254 0.0
H175 H 0.13344 0.88745 0.65746 0.0
O176 O 0.01426 0.10508 0.8234 0.0
O177 O 1.00699 0.91618 0.8234 0.0
O178 O 0.91618 1.00699 0.73069 0.0
O179 O 0.10508 0.01427 0.73069 0.0
H180 H 0.14862 0.18649 0.85754 0.0
H181 H 0.89276 0.21524 0.80607 0.0
H182 H 0.15758 0.34042 0.8697 0.0
H183 H 0.90593 0.3686 0.81955 0.0
H184 H 0.11535 0.65267 0.81955 0.0
H185 H 0.87264 0.83476 0.85754 0.0
H186 H 0.1285 0.80603 0.80607 0.0
H187 H 0.8637 0.68083 0.8697 0.0
H188 H 0.76214 0.16353 0.95138 0.0
H189 H 0.63982 0.95304 0.87541 0.0
H190 H 0.38145 0.06818 0.87541 0.0
H191 H 0.25909 0.85773 0.95139 0.0
H192 H 0.83477 0.87264 0.69655 0.0
H193 H 0.80602 0.12849 0.74802 0.0
H194 H 0.68083 0.86369 0.68439 0.0
H195 H 0.65266 0.11533 0.73455 0.0
H196 H 0.18649 0.14862 0.69656 0.0
H197 H 0.21523 0.89277 0.74802 0.0
H198 H 0.34042 0.15758 0.68439 0.0
H199 H 0.3686 0.90592 0.73454 0.0
H200 H 0.06818 0.38145 0.67869 0.0
H201 H 0.85772 0.25911 0.60272 0.0
H202 H 0.95307 0.63981 0.67869 0.0
H203 H 0.16353 0.76216 0.60271 0.0
loop_
_geom_bond_atom_site_label_1
_geom_bond_atom_site_label_2
_geom_bond_distance
_geom_bond_site_symmetry_2
_ccdc_geom_bond_type
C0 O2 1.248 . S
C0 O4 1.257 1_565 S
C1 O8 1.251 . S
C1 O9 1.254 1_545 S
O2 C0 1.248 . S
O2 Zn3 2.028 1_556 S
Zn3 O2 2.028 1_554 S
Zn3 O7 2.035 1_554 S
Zn3 O9 2.035 . S
Zn3 O10 2.028 . S
O4 C0 1.257 1_545 S
O4 Zn5 2.035 1_556 S
Zn5 O4 2.035 1_554 S
Zn5 O6 2.028 1_554 S
Zn5 O8 2.028 . S
Zn5 O11 2.035 . S
O6 Zn5 2.028 1_556 S
O6 C12 1.251 . S
O7 Zn3 2.035 1_556 S
O7 C12 1.254 1_565 S
O8 C1 1.251 . S
O8 Zn5 2.028 . S
O9 C1 1.254 1_565 S
O9 Zn3 2.035 . S
O10 Zn3 2.028 . S
O10 C13 1.248 . S
O11 Zn5 2.035 . S
O11 C13 1.257 1_545 S
C12 O6 1.251 . S
C12 O7 1.254 1_545 S
C13 O10 1.248 . S
C13 O11 1.257 1_565 S
C14 O16 1.248 . S
C14 O18 1.257 1_655 S
C15 O22 1.251 . S
C15 O23 1.254 1_455 S
O16 C14 1.248 . S
O16 Zn17 2.028 . S
Zn17 O16 2.028 . S
Zn17 O21 2.035 . S
Zn17 O23 2.035 . S
Zn17 O24 2.028 . S
O18 C14 1.257 1_455 S
O18 Zn19 2.035 . S
Zn19 O18 2.035 . S
Zn19 O20 2.028 . S
Zn19 O22 2.028 . S
Zn19 O25 2.035 . S
O20 Zn19 2.028 . S
O20 C26 1.251 . S
O21 Zn17 2.035 . S
O21 C26 1.254 1_655 S
O22 C15 1.251 . S
O22 Zn19 2.028 . S
O23 C15 1.254 1_655 S
O23 Zn17 2.035 . S
O24 Zn17 2.028 . S
O24 C27 1.248 . S
O25 Zn19 2.035 . S
O25 C27 1.257 1_455 S
C26 O20 1.251 . S
C26 O21 1.254 1_455 S
C27 O24 1.248 . S
C27 O25 1.257 1_655 S
Li28 N45 1.990 . S
Li28 O88 1.956 1_545 S
Li28 O89 1.970 1_455 S
Li28 O90 1.961 1_455 S
Li29 N53 1.990 . S
Li29 O88 1.970 1_655 S
Li29 O89 1.956 1_565 S
Li29 O91 1.961 1_655 S
Li30 N75 1.990 . S
Li30 O88 1.961 1_545 S
Li30 O90 1.956 1_455 S
Li30 O91 1.970 1_545 S
Li31 N81 1.990 . S
Li31 O89 1.961 1_565 S
Li31 O90 1.970 1_565 S
Li31 O91 1.956 1_655 S
C32 C34 1.348 1_545 S
C32 C35 1.356 . S
C32 O88 1.325 1_545 S
N33 C36 1.314 1_545 S
N33 C37 1.279 . S
C34 C32 1.348 1_565 S
C34 C36 1.353 . S
C34 H92 0.929 . S
C35 C32 1.356 . S
C35 C37 1.358 . S
C35 H93 0.930 . S
C36 N33 1.314 1_565 S
C36 C34 1.353 . S
C36 H94 0.930 . S
C37 N33 1.279 . S
C37 C35 1.358 . S
C37 H95 0.930 . S
C38 C41 1.348 . S
C38 C42 1.356 1_545 S
C38 O89 1.325 . S
C39 N40 1.279 . S
C39 C42 1.358 . S
C39 H96 0.930 . S
N40 C39 1.279 . S
N40 C43 1.314 1_565 S
C41 C38 1.348 . S
C41 C43 1.353 . S
C41 H97 0.929 . S
C42 C38 1.356 1_565 S
C42 C39 1.358 . S
C42 H98 0.930 . S
C43 N40 1.314 1_545 S
C43 C41 1.353 . S
C43 H99 0.930 . S
C44 N45 1.314 1_655 S
C44 C49 1.353 . S
C44 H50 0.930 . S
N45 Li28 1.990 . S
N45 C44 1.314 1_455 S
N45 C47 1.279 . S
C46 C47 1.358 . S
C46 C48 1.356 . S
C46 H100 0.930 . S
C47 N45 1.279 . S
C47 C46 1.358 . S
C47 H51 0.930 . S
C48 C46 1.356 . S
C48 C49 1.348 1_455 S
C49 C44 1.353 . S
C49 C48 1.348 1_655 S
C49 H101 0.929 . S
H50 C44 0.930 . S
H51 C47 0.930 . S
C52 N53 1.314 1_455 S
C52 C54 1.353 . S
C52 H58 0.930 . S
N53 Li29 1.990 . S
N53 C52 1.314 1_655 S
N53 C56 1.279 . S
C54 C52 1.353 . S
C54 C57 1.348 . S
C54 H102 0.929 . S
C55 C56 1.358 . S
C55 C57 1.356 1_655 S
C55 H103 0.930 . S
C56 N53 1.279 . S
C56 C55 1.358 . S
C56 H59 0.930 . S
C57 C54 1.348 . S
C57 C55 1.356 1_455 S
H58 C52 0.930 . S
H59 C56 0.930 . S
C60 C62 1.348 1_455 S
C60 C63 1.356 . S
C60 O90 1.325 1_455 S
N61 C64 1.314 1_455 S
N61 C65 1.279 . S
C62 C60 1.348 1_655 S
C62 C64 1.353 . S
C62 H104 0.929 . S
C63 C60 1.356 . S
C63 C65 1.358 . S
C63 H105 0.930 . S
C64 N61 1.314 1_655 S
C64 C62 1.353 . S
C64 H106 0.930 . S
C65 N61 1.279 . S
C65 C63 1.358 . S
C65 H107 0.930 . S
C66 C67 1.348 . S
C66 C68 1.356 1_455 S
C66 O91 1.325 . S
C67 C66 1.348 . S
C67 C69 1.353 . S
C67 H108 0.929 . S
C68 C66 1.356 1_655 S
C68 C70 1.358 . S
C68 H109 0.930 . S
C69 C67 1.353 . S
C69 N71 1.314 1_455 S
C69 H110 0.930 . S
C70 C68 1.358 . S
C70 N71 1.279 . S
C70 H111 0.930 . S
N71 C69 1.314 1_655 S
N71 C70 1.279 . S
C72 C74 1.353 . S
C72 N75 1.314 1_565 S
C72 H78 0.930 . S
C73 N75 1.279 . S
C73 C76 1.358 . S
C73 H79 0.930 . S
C74 C72 1.353 . S
C74 C77 1.348 1_565 S
C74 H112 0.929 . S
N75 Li30 1.990 . S
N75 C72 1.314 1_545 S
N75 C73 1.279 . S
C76 C73 1.358 . S
C76 C77 1.356 . S
C76 H113 0.930 . S
C77 C74 1.348 1_545 S
C77 C76 1.356 . S
H78 C72 0.930 . S
H79 C73 0.930 . S
C80 N81 1.314 1_545 S
C80 C82 1.353 . S
C80 H86 0.930 . S
N81 Li31 1.990 . S
N81 C80 1.314 1_565 S
N81 C84 1.279 . S
C82 C80 1.353 . S
C82 C85 1.348 . S
C82 H114 0.929 . S
C83 C84 1.358 . S
C83 C85 1.356 1_565 S
C83 H115 0.930 . S
C84 N81 1.279 . S
C84 C83 1.358 . S
C84 H87 0.930 . S
C85 C82 1.348 . S
C85 C83 1.356 1_545 S
H86 C80 0.930 . S
H87 C84 0.930 . S
O88 Li28 1.956 1_565 S
O88 Li29 1.970 1_455 S
O88 Li30 1.961 1_565 S
O88 C32 1.325 1_565 S
O89 Li28 1.970 1_655 S
O89 Li29 1.956 1_545 S
O89 Li31 1.961 1_545 S
O89 C38 1.325 . S
O90 Li28 1.961 1_655 S
O90 Li30 1.956 1_655 S
O90 Li31 1.970 1_545 S
O90 C60 1.325 1_655 S
O91 Li29 1.961 1_455 S
O91 Li30 1.970 1_565 S
O91 Li31 1.956 1_455 S
O91 C66 1.325 . S
H92 C34 0.929 . S
H93 C35 0.930 . S
H94 C36 0.930 . S
H95 C37 0.930 . S
H96 C39 0.930 . S
H97 C41 0.929 . S
H98 C42 0.930 . S
H99 C43 0.930 . S
H100 C46 0.930 . S
H101 C49 0.929 . S
H102 C54 0.929 . S
H103 C55 0.930 . S
H104 C62 0.929 . S
H105 C63 0.930 . S
H106 C64 0.930 . S
H107 C65 0.930 . S
H108 C67 0.929 . S
H109 C68 0.930 . S
H110 C69 0.930 . S
H111 C70 0.930 . S
H112 C74 0.929 . S
H113 C76 0.930 . S
H114 C82 0.929 . S
H115 C83 0.930 . S
Li116 N133 1.990 . S
Li116 O176 1.956 1_655 S
Li116 O177 1.970 1_545 S
Li116 O178 1.961 1_545 S
Li117 N141 1.990 . S
Li117 O176 1.970 1_565 S
Li117 O177 1.956 1_455 S
Li117 O179 1.961 1_565 S
Li118 N163 1.990 . S
Li118 O176 1.961 1_655 S
Li118 O178 1.956 1_545 S
Li118 O179 1.970 1_655 S
Li119 N169 1.990 . S
Li119 O177 1.961 1_455 S
Li119 O178 1.970 1_455 S
Li119 O179 1.956 1_565 S
C120 C122 1.348 . S
C120 C123 1.356 1_455 S
C120 O176 1.325 . S
N121 C124 1.314 1_655 S
N121 C125 1.279 . S
C122 C120 1.348 . S
C122 C124 1.353 . S
C122 H180 0.929 . S
C123 C120 1.356 1_655 S
C123 C125 1.358 . S
C123 H181 0.930 . S
C124 N121 1.314 1_455 S
C124 C122 1.353 . S
C124 H182 0.930 . S
C125 N121 1.279 . S
C125 C123 1.358 . S
C125 H183 0.930 . S
C126 C129 1.348 1_455 S
C126 C130 1.356 . S
C126 O177 1.325 1_455 S
C127 N128 1.279 . S
C127 C130 1.358 . S
C127 H184 0.930 . S
N128 C127 1.279 . S
N128 C131 1.314 1_455 S
C129 C126 1.348 1_655 S
C129 C131 1.353 . S
C129 H185 0.929 . S
C130 C126 1.356 . S
C130 C127 1.358 . S
C130 H186 0.930 . S
C131 N128 1.314 1_655 S
C131 C129 1.353 . S
C131 H187 0.930 . S
C132 N133 1.314 1_565 S
C132 C137 1.353 . S
C132 H138 0.930 . S
N133 Li116 1.990 . S
N133 C132 1.314 1_545 S
N133 C135 1.279 . S
C134 C135 1.358 . S
C134 C136 1.356 . S
C134 H188 0.930 . S
C135 N133 1.279 . S
C135 C134 1.358 . S
C135 H139 0.930 . S
C136 C134 1.356 . S
C136 C137 1.348 1_545 S
C137 C132 1.353 . S
C137 C136 1.348 1_565 S
C137 H189 0.929 . S
H138 C132 0.930 . S
H139 C135 0.930 . S
C140 N141 1.314 1_545 S
C140 C142 1.353 . S
C140 H146 0.930 . S
N141 Li117 1.990 . S
N141 C140 1.314 1_565 S
N141 C144 1.279 . S
C142 C140 1.353 . S
C142 C145 1.348 . S
C142 H190 0.929 . S
C143 C144 1.358 . S
C143 C145 1.356 1_565 S
C143 H191 0.930 . S
C144 N141 1.279 . S
C144 C143 1.358 . S
C144 H147 0.930 . S
C145 C142 1.348 . S
C145 C143 1.356 1_545 S
H146 C140 0.930 . S
H147 C144 0.930 . S
C148 C150 1.348 1_545 S
C148 C151 1.356 . S
C148 O178 1.325 1_545 S
N149 C152 1.314 1_545 S
N149 C153 1.279 . S
C150 C148 1.348 1_565 S
C150 C152 1.353 . S
C150 H192 0.929 . S
C151 C148 1.356 . S
C151 C153 1.358 . S
C151 H193 0.930 . S
C152 N149 1.314 1_565 S
C152 C150 1.353 . S
C152 H194 0.930 . S
C153 N149 1.279 . S
C153 C151 1.358 . S
C153 H195 0.930 . S
C154 C155 1.348 . S
C154 C156 1.356 1_545 S
C154 O179 1.325 . S
C155 C154 1.348 . S
C155 C157 1.353 . S
C155 H196 0.929 . S
C156 C154 1.356 1_565 S
C156 C158 1.358 . S
C156 H197 0.930 . S
C157 C155 1.353 . S
C157 N159 1.314 1_545 S
C157 H198 0.930 . S
C158 C156 1.358 . S
C158 N159 1.279 . S
C158 H199 0.930 . S
N159 C157 1.314 1_565 S
N159 C158 1.279 . S
C160 C162 1.353 . S
C160 N163 1.314 1_455 S
C160 H166 0.930 . S
C161 N163 1.279 . S
C161 C164 1.358 . S
C161 H167 0.930 . S
C162 C160 1.353 . S
C162 C165 1.348 . S
C162 H200 0.929 . S
N163 Li118 1.990 . S
N163 C160 1.314 1_655 S
N163 C161 1.279 . S
C164 C161 1.358 . S
C164 C165 1.356 1_655 S
C164 H201 0.930 . S
C165 C162 1.348 . S
C165 C164 1.356 1_455 S
H166 C160 0.930 . S
H167 C161 0.930 . S
C168 N169 1.314 1_655 S
C168 C170 1.353 . S
C168 H174 0.930 . S
N169 Li119 1.990 . S
N169 C168 1.314 1_455 S
N169 C172 1.279 . S
C170 C168 1.353 . S
C170 C173 1.348 1_655 S
C170 H202 0.929 . S
C171 C172 1.358 . S
C171 C173 1.356 . S
C171 H203 0.930 . S
C172 N169 1.279 . S
C172 C171 1.358 . S
C172 H175 0.930 . S
C173 C170 1.348 1_455 S
C173 C171 1.356 . S
H174 C168 0.930 . S
H175 C172 0.930 . S
O176 Li116 1.956 1_455 S
O176 Li117 1.970 1_545 S
O176 Li118 1.961 1_455 S
O176 C120 1.325 . S
O177 Li116 1.970 1_565 S
O177 Li117 1.956 1_655 S
O177 Li119 1.961 1_655 S
O177 C126 1.325 1_655 S
O178 Li116 1.961 1_565 S
O178 Li118 1.956 1_565 S
O178 Li119 1.970 1_655 S
O178 C148 1.325 1_565 S
O179 Li117 1.961 1_545 S
O179 Li118 1.970 1_455 S
O179 Li119 1.956 1_545 S
O179 C154 1.325 . S
H180 C122 0.929 . S
H181 C123 0.930 . S
H182 C124 0.930 . S
H183 C125 0.930 . S
H184 C127 0.930 . S
H185 C129 0.929 . S
H186 C130 0.930 . S
H187 C131 0.930 . S
H188 C134 0.930 . S
H189 C137 0.929 . S
H190 C142 0.929 . S
H191 C143 0.930 . S
H192 C150 0.929 . S
H193 C151 0.930 . S
H194 C152 0.930 . S
H195 C153 0.930 . S
H196 C155 0.929 . S
H197 C156 0.930 . S
H198 C157 0.930 . S
H199 C158 0.930 . S
H200 C162 0.929 . S
H201 C164 0.930 . S
H202 C170 0.929 . S
H203 C171 0.930 . S
C77 C13 1.469 1_545 S
C165 C15 1.472 . S
C85 C1 1.471 . S
C173 C27 1.472 1_455 S
C145 C0 1.473 1_545 S
C48 C26 1.472 . S
C136 C12 1.474 . S
C14 C57 1.472 1_655 S
