# Generated by pormake.
# Topology scu, (8,4)-cn, num edge types: 1
# Building blocks:
#     Node 0, Type 0, BuildingBlock: GIZVER_clean_sbu_0, # of connection points: 8
#     Node 1, Type 1, BuildingBlock: MUDLON_clean_sbu_0, # of connection points: 4
#     Node 2, Type 1, BuildingBlock: MUDLON_clean_sbu_0, # of connection points: 4
#     Edge 3, Type (0, 1), BuildingBlock: KIFKEQ_clean_linker_1, # of connection points: 2
#     Edge 4, Type (0, 1), BuildingBlock: KIFKEQ_clean_linker_1, # of connection points: 2
#     Edge 5, Type (0, 1), BuildingBlock: KIFKEQ_clean_linker_1, # of connection points: 2
#     Edge 6, Type (0, 1), BuildingBlock: KIFKEQ_clean_linker_1, # of connection points: 2
#     Edge 7, Type (0, 1), BuildingBlock: KIFKEQ_clean_linker_1, # of connection points: 2
#     Edge 8, Type (0, 1), BuildingBlock: KIFKEQ_clean_linker_1, # of connection points: 2
#     Edge 9, Type (0, 1), BuildingBlock: KIFKEQ_clean_linker_1, # of connection points: 2
#     Edge 10, Type (0, 1), BuildingBlock: KIFKEQ_clean_linker_1, # of connection points: 2
# Relax obj value: 0.010
# Max RMSD: 0.074
# Mean RMSD: 0.042
data_MOF--net-scu--node1-GIZVER_clean_sbu_0--node2-MUDLON_clean_sbu_0--edge1-KIFKEQ_clean_linker_1
_symmetry_space_group_name_H-M    P1
_symmetry_Int_Tables_number       1
_symmetry_cell_setting            triclinic
loop_
_symmetry_equiv_pos_as_xyz
'x, y, z'
_cell_length_a     23.648416
_cell_length_b     24.460324
_cell_length_c     22.593943
_cell_angle_alpha  98.914503
_cell_angle_beta   81.53572
_cell_angle_gamma 116.58742
loop_
_atom_site_label
_atom_site_type_symbol
_atom_site_fract_x
_atom_site_fract_y
_atom_site_fract_z
_atom_type_partial_charge
Co0 Co 0.03131 0.95454 0.18947 0.0
Co1 Co 0.11965 0.04439 0.13252 0.0
Co2 Co 0.9971 1.00599 0.07118 0.0
O3 O 0.04672 0.97492 0.1084 0.0
H4 H 0.05853 0.94682 0.08053 0.0
O5 O 0.95035 0.04073 1.03387 0.0
Co6 Co 0.98858 0.07725 0.95987 0.0
Co7 Co 0.88478 0.9859 0.9906 0.0
H8 H 0.93608 0.06652 0.06274 0.0
O9 O 0.19207 0.04021 0.14647 0.0
O10 O 0.10795 0.03153 0.21305 0.0
O11 O 0.12537 0.12577 0.13077 0.0
O12 O 0.02163 0.08401 0.12726 0.0
O13 O 0.07367 0.04324 1.01379 0.0
O14 O 0.02282 0.11629 0.89512 0.0
O15 O 0.9652 0.13982 0.97458 0.0
O16 O 0.02043 1.0182 0.93435 0.0
O17 O 0.96886 0.92585 1.01563 0.0
O18 O 0.87999 0.90528 0.97434 0.0
O19 O 0.90986 0.02388 0.91986 0.0
O20 O 0.8194 1.00419 0.9801 0.0
C21 C 0.05756 0.90493 0.23622 0.0
C22 C 0.92422 0.97717 0.18624 0.0
C23 C 0.07332 0.12996 0.14035 0.0
C24 C 0.16683 0.03958 0.20162 0.0
C25 C 0.99851 0.15257 0.92272 0.0
C26 C 0.06886 0.025 0.95812 0.0
C27 C 0.92271 0.89041 0.98367 0.0
C28 C 0.85482 0.02536 0.93157 0.0
O29 O 0.02153 0.93075 0.26264 0.0
O30 O 0.07764 0.91111 0.17954 0.0
O31 O 0.92207 0.96769 0.1292 0.0
O32 O 0.97623 0.99452 0.20996 0.0
Mg33 Mg 0.03713 0.53316 0.56668 0.0
C34 C 0.05227 0.44243 0.47744 0.0
O35 O 0.10094 0.46568 0.5101 0.0
C36 C 0.99873 0.58925 0.6736 0.0
O37 O 0.05767 0.59855 0.67534 0.0
C38 C 0.01618 0.44997 0.65242 0.0
O39 O 0.9613 0.43732 0.63342 0.0
O40 O 0.0659 0.49281 0.62987 0.0
O41 O 0.00986 0.46209 0.49072 0.0
O42 O 0.09848 0.62017 0.52956 0.0
C43 C 0.118 0.62324 0.474 0.0
O44 O 0.11477 0.57323 0.44043 0.0
O45 O 0.97026 0.55943 0.62694 0.0
Mg46 Mg 0.50782 0.02818 0.57591 0.0
C47 C 0.43114 0.0841 0.53369 0.0
O48 O 0.40085 0.07241 0.5872 0.0
C49 C 0.6383 0.08788 0.61881 0.0
O50 O 0.6511 0.06943 0.56287 0.0
C51 C 0.42223 0.97833 0.68766 0.0
O52 O 0.47706 0.99991 0.71049 0.0
O53 O 0.42157 0.97875 0.63156 0.0
O54 O 0.48179 0.077 0.52032 0.0
O55 O 0.54488 0.97172 0.51423 0.0
C56 C 0.5448 0.97144 0.45789 0.0
O57 O 0.51211 0.99573 0.43886 0.0
O58 O 0.58253 0.08291 0.63539 0.0
H59 H 0.96712 0.14553 0.18624 0.0
H60 H 0.17188 0.23612 0.18195 0.0
H61 H 0.96035 0.2241 0.26351 0.0
H62 H 0.165 0.31572 0.25801 0.0
H63 H 0.12775 0.38368 0.45142 0.0
H64 H 0.13253 0.31477 0.36377 0.0
H65 H 0.9806 0.33112 0.29432 0.0
H66 H 0.97496 0.40022 0.38391 0.0
C67 C 0.01084 0.18298 0.20069 0.0
C68 C 0.07013 0.18391 0.17843 0.0
C69 C 0.00684 0.22824 0.24496 0.0
C70 C 0.06202 0.27564 0.26783 0.0
C71 C 0.12143 0.27895 0.24247 0.0
C72 C 0.12545 0.23355 0.19846 0.0
C73 C 0.09522 0.37282 0.41761 0.0
C74 C 0.05109 0.39773 0.42464 0.0
C75 C 0.09844 0.33362 0.36686 0.0
C76 C 0.05783 0.31822 0.32129 0.0
C77 C 0.01264 0.34211 0.32861 0.0
C78 C 0.00931 0.38157 0.37988 0.0
H79 H 0.91266 1.00812 0.30771 0.0
H80 H 0.80312 0.92986 0.1534 0.0
H81 H 0.81669 0.99756 0.37154 0.0
H82 H 0.70685 0.91746 0.21755 0.0
H83 H 0.56833 0.98219 0.33735 0.0
H84 H 0.65772 0.97853 0.27156 0.0
H85 H 0.71793 0.92553 0.41595 0.0
H86 H 0.62934 0.93132 0.48267 0.0
C87 C 0.86804 0.98822 0.28744 0.0
C88 C 0.86574 0.97021 0.22533 0.0
C89 C 0.81281 0.9816 0.32419 0.0
C90 C 0.75381 0.95643 0.29982 0.0
C91 C 0.75149 0.93775 0.23778 0.0
C92 C 0.80677 0.94474 0.20098 0.0
C93 C 0.59996 0.96876 0.35493 0.0
C94 C 0.59188 0.95755 0.4155 0.0
C95 C 0.65128 0.96645 0.31701 0.0
C96 C 0.69562 0.95242 0.33854 0.0
C97 C 0.6855 0.9378 0.39822 0.0
C98 C 0.63427 0.94044 0.43631 0.0
H99 H 0.09164 0.81165 0.19511 0.0
H100 H 0.06763 0.92141 0.35687 0.0
H101 H 0.11593 0.75098 0.25431 0.0
H102 H 0.09788 0.86543 0.41562 0.0
H103 H 0.0683 0.70485 0.51403 0.0
H104 H 0.06061 0.77669 0.45709 0.0
H105 H 0.17999 0.73626 0.30968 0.0
H106 H 0.18306 0.66028 0.3658 0.0
C107 C 0.09291 0.82359 0.24327 0.0
C108 C 0.07714 0.87088 0.27134 0.0
C109 C 0.10757 0.7892 0.27745 0.0
C110 C 0.10866 0.80243 0.34049 0.0
C111 C 0.09574 0.85199 0.36778 0.0
C112 C 0.07899 0.88483 0.33388 0.0
C113 C 0.09397 0.71214 0.46992 0.0
C114 C 0.12613 0.67664 0.44439 0.0
C115 C 0.08979 0.75385 0.43693 0.0
C116 C 0.1191 0.76258 0.37787 0.0
C117 C 0.15503 0.72989 0.35407 0.0
C118 C 0.15772 0.68686 0.3866 0.0
H119 H 0.12897 0.02337 0.32093 0.0
H120 H 0.29562 0.08575 0.19493 0.0
H121 H 0.19519 0.03968 0.401 0.0
H122 H 0.36233 0.10737 0.27526 0.0
H123 H 0.45865 0.06931 0.4124 0.0
H124 H 0.39519 0.06119 0.33393 0.0
H125 H 0.26794 0.10809 0.4666 0.0
H126 H 0.32975 0.11202 0.54586 0.0
C127 C 0.17978 0.04078 0.31042 0.0
C128 C 0.20674 0.05164 0.25128 0.0
C129 C 0.21809 0.05121 0.35658 0.0
C130 C 0.2846 0.07466 0.34502 0.0
C131 C 0.31143 0.08762 0.28603 0.0
C132 C 0.27303 0.07555 0.23976 0.0
C133 C 0.41761 0.07868 0.42489 0.0
C134 C 0.39911 0.09093 0.48554 0.0
C135 C 0.38107 0.07431 0.37959 0.0
C136 C 0.3257 0.08351 0.39343 0.0
C137 C 0.30917 0.09909 0.45402 0.0
C138 C 0.34513 0.1022 0.49954 0.0
H139 H 0.82729 0.79687 0.92338 0.0
H140 H 0.02081 0.8575 0.96339 0.0
H141 H 0.83427 0.71304 0.85359 0.0
H142 H 0.02817 0.77475 0.89281 0.0
H143 H 0.02045 0.60347 0.78993 0.0
H144 H 0.99245 0.66602 0.87236 0.0
H145 H 0.88737 0.70251 0.75484 0.0
H146 H 0.91413 0.63777 0.67241 0.0
C147 C 0.87108 0.79188 0.91793 0.0
C148 C 0.92356 0.83405 0.94904 0.0
C149 C 0.87515 0.74404 0.87753 0.0
C150 C 0.93179 0.73723 0.86724 0.0
C151 C 0.98338 0.77792 0.90023 0.0
C152 C 0.97924 0.82556 0.9408 0.0
C153 C 0.99022 0.62384 0.78206 0.0
C154 C 0.96991 0.61638 0.72473 0.0
C155 C 0.97459 0.66008 0.82919 0.0
C156 C 0.93889 0.69047 0.81998 0.0
C157 C 0.91482 0.67959 0.76358 0.0
C158 C 0.93 0.64253 0.71632 0.0
H159 H 0.19194 0.06235 0.97988 0.0
H160 H 0.05256 0.94555 0.85625 0.0
H161 H 0.27243 0.03885 0.91636 0.0
H162 H 0.13193 0.91929 0.79417 0.0
H163 H 0.30807 0.96378 0.65811 0.0
H164 H 0.21967 0.96595 0.72624 0.0
H165 H 0.31386 0.96806 0.87736 0.0
H166 H 0.40404 0.9688 0.80886 0.0
C167 C 0.17835 0.03084 0.93956 0.0
C168 C 0.11637 1.00674 0.92241 0.0
C169 C 0.22434 1.01682 0.9033 0.0
C170 C 0.20907 0.97745 0.84958 0.0
C171 C 0.14601 0.95099 0.83425 0.0
C172 C 0.10039 0.9659 0.86993 0.0
C173 C 0.30956 0.96361 0.70576 0.0
C174 C 0.36354 0.96689 0.72806 0.0
C175 C 0.25849 0.96457 0.74506 0.0
C176 C 0.25965 0.96799 0.80768 0.0
C177 C 0.31189 0.967 0.8296 0.0
C178 C 0.36339 0.9668 0.79027 0.0
H179 H 0.93034 0.22106 0.94585 0.0
H180 H 0.08504 0.20313 0.83031 0.0
H181 H 0.93913 0.30169 0.88775 0.0
H182 H 0.09305 0.28217 0.7722 0.0
H183 H 0.12035 0.45411 0.69749 0.0
H184 H 0.12028 0.39086 0.77174 0.0
H185 H 0.91522 0.30248 0.78644 0.0
H186 H 0.91522 0.36573 0.71379 0.0
C187 C 0.9667 0.23489 0.90871 0.0
C188 C 0.00674 0.20556 0.89255 0.0
C189 C 0.97152 0.28072 0.87518 0.0
C190 C 0.0168 0.29833 0.82522 0.0
C191 C 0.05828 0.27046 0.81077 0.0
C192 C 0.05321 0.22463 0.84387 0.0
C193 C 0.07539 0.42155 0.71705 0.0
C194 C 0.01791 0.41464 0.69928 0.0
C195 C 0.07527 0.38523 0.75945 0.0
C196 C 0.01767 0.3416 0.78508 0.0
C197 C 0.96038 0.33618 0.76843 0.0
C198 C 0.9605 0.37214 0.72612 0.0
H199 H 0.73751 0.02236 0.93654 0.0
H200 H 0.91671 0.07822 0.8277 0.0
H201 H 0.69444 0.05182 0.86274 0.0
H202 H 0.87494 0.11168 0.75539 0.0
H203 H 0.62986 0.12951 0.73822 0.0
H204 H 0.69096 0.12893 0.81596 0.0
H205 H 0.80472 0.06701 0.68035 0.0
H206 H 0.74605 0.07072 0.60296 0.0
C207 C 0.7682 0.04199 0.89733 0.0
C208 C 0.83052 0.04749 0.88801 0.0
C209 C 0.74366 0.05971 0.85513 0.0
C210 C 0.78102 0.08431 0.80273 0.0
C211 C 0.84426 0.09199 0.79456 0.0
C212 C 0.86848 0.07321 0.83637 0.0
C213 C 0.66897 0.11727 0.72498 0.0
C214 C 0.68249 0.09942 0.66446 0.0
C215 C 0.70367 0.1163 0.76962 0.0
C216 C 0.75206 0.09657 0.75486 0.0
C217 C 0.76826 0.08286 0.69377 0.0
C218 C 0.7342 0.08468 0.64915 0.0
loop_
_geom_bond_atom_site_label_1
_geom_bond_atom_site_label_2
_geom_bond_distance
_geom_bond_site_symmetry_2
_ccdc_geom_bond_type
Co0 O3 2.042 . S
Co0 O10 2.264 1_565 S
Co0 O29 2.286 1_455 S
Co0 O30 2.069 . S
Co0 O32 2.015 1_455 S
Co1 O3 2.122 1_545 S
Co1 O9 2.073 . S
Co1 O10 2.327 . S
Co1 O11 1.976 . S
Co2 O3 2.087 1_545 S
Co2 O5 2.087 1_454 S
Co2 O12 2.111 . S
Co2 O13 2.143 1_554 S
Co2 O17 2.111 1_444 S
Co2 O31 2.143 1_445 S
O3 Co0 2.042 . S
O3 Co1 2.122 1_565 S
O3 Co2 2.087 1_565 S
O3 H4 0.980 . S
H4 O3 0.980 . S
O5 Co2 2.087 1_656 S
O5 Co6 2.042 1_655 S
O5 Co7 2.122 1_545 S
O5 H8 0.980 1_556 S
Co6 O5 2.042 1_455 S
Co6 O14 2.286 . S
Co6 O15 2.069 1_455 S
Co6 O16 2.015 . S
Co6 O19 2.264 1_455 S
Co7 O5 2.122 1_565 S
Co7 O18 1.976 . S
Co7 O19 2.327 1_565 S
Co7 O20 2.073 . S
H8 O5 0.980 1_554 S
O9 Co1 2.073 . S
O9 C24 1.245 . S
O10 Co0 2.264 1_545 S
O10 Co1 2.327 . S
O10 C24 1.257 . S
O11 Co1 1.976 . S
O11 C23 1.251 . S
O12 Co2 2.111 . S
O12 C23 1.274 . S
O13 Co2 2.143 1_556 S
O13 C26 1.246 . S
O14 Co6 2.286 . S
O14 C25 1.259 . S
O15 Co6 2.069 1_655 S
O15 C25 1.289 1_655 S
O16 Co6 2.015 . S
O16 C26 1.257 . S
O17 Co2 2.111 1_666 S
O17 C27 1.274 . S
O18 Co7 1.976 . S
O18 C27 1.251 . S
O19 Co6 2.264 1_655 S
O19 Co7 2.327 1_545 S
O19 C28 1.257 . S
O20 Co7 2.073 . S
O20 C28 1.245 1_565 S
C21 O29 1.259 1_455 S
C21 O30 1.289 . S
C22 O31 1.246 . S
C22 O32 1.257 . S
C23 O11 1.251 . S
C23 O12 1.274 . S
C24 O9 1.245 . S
C24 O10 1.257 . S
C25 O14 1.259 . S
C25 O15 1.289 1_455 S
C26 O13 1.246 . S
C26 O16 1.257 . S
C27 O17 1.274 . S
C27 O18 1.251 . S
C28 O19 1.257 . S
C28 O20 1.245 1_545 S
O29 Co0 2.286 1_655 S
O29 C21 1.259 1_655 S
O30 Co0 2.069 . S
O30 C21 1.289 . S
O31 Co2 2.143 1_665 S
O31 C22 1.246 . S
O32 Co0 2.015 1_655 S
O32 C22 1.257 . S
Mg33 O40 2.141 . S
Mg33 O41 2.048 . S
Mg33 O42 2.048 . S
Mg33 O45 2.141 . S
C34 O35 1.313 . S
C34 O41 1.195 1_455 S
O35 C34 1.313 . S
C36 O37 1.245 . S
C36 O45 1.289 1_455 S
O37 C36 1.245 . S
C38 O39 1.245 . S
C38 O40 1.289 1_455 S
O39 C38 1.245 . S
O40 Mg33 2.141 . S
O40 C38 1.289 1_655 S
O41 Mg33 2.048 . S
O41 C34 1.195 1_655 S
O42 Mg33 2.048 . S
O42 C43 1.195 1_655 S
C43 O42 1.195 1_455 S
C43 O44 1.313 . S
O44 C43 1.313 . S
O45 Mg33 2.141 . S
O45 C36 1.289 1_655 S
Mg46 O53 2.141 . S
Mg46 O54 2.048 . S
Mg46 O55 2.048 . S
Mg46 O58 2.141 . S
C47 O48 1.313 . S
C47 O54 1.195 1_565 S
O48 C47 1.313 . S
C49 O50 1.245 . S
C49 O58 1.289 1_565 S
O50 C49 1.245 . S
C51 O52 1.245 . S
C51 O53 1.289 1_565 S
O52 C51 1.245 . S
O53 Mg46 2.141 . S
O53 C51 1.289 1_545 S
O54 Mg46 2.048 . S
O54 C47 1.195 1_545 S
O55 Mg46 2.048 . S
O55 C56 1.195 1_545 S
C56 O55 1.195 1_565 S
C56 O57 1.313 . S
O57 C56 1.313 . S
O58 Mg46 2.141 . S
O58 C49 1.289 1_545 S
H59 C67 0.950 . S
H60 C72 0.950 . S
H61 C69 0.950 . S
H62 C71 0.950 . S
H63 C73 0.950 . S
H64 C75 0.950 . S
H65 C77 0.950 . S
H66 C78 0.950 . S
C67 H59 0.950 . S
C67 C68 1.386 1_655 S
C67 C69 1.391 . S
C68 C67 1.386 1_455 S
C68 C72 1.393 . S
C69 H61 0.950 . S
C69 C67 1.391 . S
C69 C70 1.400 1_655 S
C70 C69 1.400 1_455 S
C70 C71 1.398 . S
C70 C76 1.491 . S
C71 H62 0.950 . S
C71 C70 1.398 . S
C71 C72 1.391 . S
C72 H60 0.950 . S
C72 C68 1.393 . S
C72 C71 1.391 . S
C73 H63 0.950 . S
C73 C74 1.386 . S
C73 C75 1.391 . S
C74 C73 1.386 . S
C74 C78 1.393 1_455 S
C75 H64 0.950 . S
C75 C73 1.391 . S
C75 C76 1.400 . S
C76 C70 1.491 . S
C76 C75 1.400 . S
C76 C77 1.398 1_455 S
C77 H65 0.950 . S
C77 C76 1.398 1_655 S
C77 C78 1.391 . S
C78 H66 0.950 . S
C78 C74 1.393 1_655 S
C78 C77 1.391 . S
H79 C87 0.950 . S
H80 C92 0.950 . S
H81 C89 0.950 . S
H82 C91 0.950 . S
H83 C93 0.950 . S
H84 C95 0.950 . S
H85 C97 0.950 . S
H86 C98 0.950 . S
C87 H79 0.950 . S
C87 C88 1.386 1_545 S
C87 C89 1.391 . S
C88 C87 1.386 1_565 S
C88 C92 1.393 . S
C89 H81 0.950 . S
C89 C87 1.391 . S
C89 C90 1.402 1_545 S
C90 C89 1.402 1_565 S
C90 C91 1.398 . S
C90 C96 1.490 . S
C91 H82 0.950 . S
C91 C90 1.398 . S
C91 C92 1.391 . S
C92 H80 0.950 . S
C92 C88 1.393 . S
C92 C91 1.391 . S
C93 H83 0.950 . S
C93 C94 1.386 1_565 S
C93 C95 1.391 . S
C94 C93 1.386 1_545 S
C94 C98 1.393 . S
C95 H84 0.950 . S
C95 C93 1.391 . S
C95 C96 1.399 . S
C96 C90 1.490 . S
C96 C95 1.399 . S
C96 C97 1.398 1_565 S
C97 H85 0.950 . S
C97 C96 1.398 1_545 S
C97 C98 1.391 . S
C98 H86 0.950 . S
C98 C94 1.393 . S
C98 C97 1.391 . S
H99 C107 0.950 . S
H100 C112 0.950 . S
H101 C109 0.950 . S
H102 C111 0.950 . S
H103 C113 0.950 . S
H104 C115 0.950 . S
H105 C117 0.950 . S
H106 C118 0.950 . S
C107 H99 0.950 . S
C107 C108 1.386 . S
C107 C109 1.391 . S
C108 C107 1.386 . S
C108 C112 1.393 1_455 S
C109 H101 0.950 . S
C109 C107 1.391 . S
C109 C110 1.400 . S
C110 C109 1.400 . S
C110 C111 1.398 1_455 S
C110 C116 1.491 . S
C111 H102 0.950 . S
C111 C110 1.398 1_655 S
C111 C112 1.391 . S
C112 H100 0.950 . S
C112 C108 1.393 1_655 S
C112 C111 1.391 . S
C113 H103 0.950 . S
C113 C114 1.386 1_655 S
C113 C115 1.391 . S
C114 C113 1.386 1_455 S
C114 C118 1.393 . S
C115 H104 0.950 . S
C115 C113 1.391 . S
C115 C116 1.400 1_655 S
C116 C110 1.491 . S
C116 C115 1.400 1_455 S
C116 C117 1.398 . S
C117 H105 0.950 . S
C117 C116 1.398 . S
C117 C118 1.391 . S
C118 H106 0.950 . S
C118 C114 1.393 . S
C118 C117 1.391 . S
H119 C127 0.950 . S
H120 C132 0.950 . S
H121 C129 0.950 . S
H122 C131 0.950 . S
H123 C133 0.950 . S
H124 C135 0.950 . S
H125 C137 0.950 . S
H126 C138 0.950 . S
C127 H119 0.950 . S
C127 C128 1.386 . S
C127 C129 1.391 . S
C128 C127 1.386 . S
C128 C132 1.393 . S
C129 H121 0.950 . S
C129 C127 1.391 . S
C129 C130 1.400 . S
C130 C129 1.400 . S
C130 C131 1.398 . S
C130 C136 1.491 . S
C131 H122 0.950 . S
C131 C130 1.398 . S
C131 C132 1.391 . S
C132 H120 0.950 . S
C132 C128 1.393 . S
C132 C131 1.391 . S
C133 H123 0.950 . S
C133 C134 1.386 . S
C133 C135 1.391 1_545 S
C134 C133 1.386 . S
C134 C138 1.393 . S
C135 H124 0.950 . S
C135 C133 1.391 1_565 S
C135 C136 1.400 . S
C136 C130 1.491 . S
C136 C135 1.400 . S
C136 C137 1.398 1_565 S
C137 H125 0.950 . S
C137 C136 1.398 1_545 S
C137 C138 1.391 . S
C138 H126 0.950 . S
C138 C134 1.393 . S
C138 C137 1.391 . S
H139 C147 0.950 . S
H140 C152 0.950 . S
H141 C149 0.950 . S
H142 C151 0.950 . S
H143 C153 0.950 . S
H144 C155 0.950 . S
H145 C157 0.950 . S
H146 C158 0.950 . S
C147 H139 0.950 . S
C147 C148 1.386 1_655 S
C147 C149 1.391 . S
C148 C147 1.386 1_455 S
C148 C152 1.393 . S
C149 H141 0.950 . S
C149 C147 1.391 . S
C149 C150 1.400 1_655 S
C150 C149 1.400 1_455 S
C150 C151 1.398 . S
C150 C156 1.491 . S
C151 H142 0.950 . S
C151 C150 1.398 . S
C151 C152 1.391 . S
C152 H140 0.950 . S
C152 C148 1.393 . S
C152 C151 1.391 . S
C153 H143 0.950 . S
C153 C154 1.386 . S
C153 C155 1.391 . S
C154 C153 1.386 . S
C154 C158 1.393 1_455 S
C155 H144 0.950 . S
C155 C153 1.391 . S
C155 C156 1.400 . S
C156 C150 1.491 . S
C156 C155 1.400 . S
C156 C157 1.398 1_455 S
C157 H145 0.950 . S
C157 C156 1.398 1_655 S
C157 C158 1.391 . S
C158 H146 0.950 . S
C158 C154 1.393 1_655 S
C158 C157 1.391 . S
H159 C167 0.950 . S
H160 C172 0.950 . S
H161 C169 0.950 . S
H162 C171 0.950 . S
H163 C173 0.950 . S
H164 C175 0.950 . S
H165 C177 0.950 . S
H166 C178 0.950 . S
C167 H159 0.950 . S
C167 C168 1.386 1_565 S
C167 C169 1.391 . S
C168 C167 1.386 1_545 S
C168 C172 1.393 . S
C169 H161 0.950 . S
C169 C167 1.391 . S
C169 C170 1.400 1_565 S
C170 C169 1.400 1_545 S
C170 C171 1.398 . S
C170 C176 1.491 . S
C171 H162 0.950 . S
C171 C170 1.398 . S
C171 C172 1.391 . S
C172 H160 0.950 . S
C172 C168 1.393 . S
C172 C171 1.391 . S
C173 H163 0.950 . S
C173 C174 1.386 . S
C173 C175 1.391 . S
C174 C173 1.386 . S
C174 C178 1.393 1_545 S
C175 H164 0.950 . S
C175 C173 1.391 . S
C175 C176 1.400 . S
C176 C170 1.491 . S
C176 C175 1.400 . S
C176 C177 1.398 1_545 S
C177 H165 0.950 . S
C177 C176 1.398 1_565 S
C177 C178 1.391 . S
C178 H166 0.950 . S
C178 C174 1.393 1_565 S
C178 C177 1.391 . S
H179 C187 0.950 . S
H180 C192 0.950 . S
H181 C189 0.950 . S
H182 C191 0.950 . S
H183 C193 0.950 . S
H184 C195 0.950 . S
H185 C197 0.950 . S
H186 C198 0.950 . S
C187 H179 0.950 . S
C187 C188 1.386 1_655 S
C187 C189 1.391 . S
C188 C187 1.386 1_455 S
C188 C192 1.393 . S
C189 H181 0.950 . S
C189 C187 1.391 . S
C189 C190 1.400 1_655 S
C190 C189 1.400 1_455 S
C190 C191 1.398 . S
C190 C196 1.491 . S
C191 H182 0.950 . S
C191 C190 1.398 . S
C191 C192 1.391 . S
C192 H180 0.950 . S
C192 C188 1.393 . S
C192 C191 1.391 . S
C193 H183 0.950 . S
C193 C194 1.386 . S
C193 C195 1.391 . S
C194 C193 1.386 . S
C194 C198 1.393 1_455 S
C195 H184 0.950 . S
C195 C193 1.391 . S
C195 C196 1.400 . S
C196 C190 1.491 . S
C196 C195 1.400 . S
C196 C197 1.398 1_455 S
C197 H185 0.950 . S
C197 C196 1.398 1_655 S
C197 C198 1.391 . S
C198 H186 0.950 . S
C198 C194 1.393 1_655 S
C198 C197 1.391 . S
H199 C207 0.950 . S
H200 C212 0.950 . S
H201 C209 0.950 . S
H202 C211 0.950 . S
H203 C213 0.950 . S
H204 C215 0.950 . S
H205 C217 0.950 . S
H206 C218 0.950 . S
C207 H199 0.950 . S
C207 C208 1.386 1_565 S
C207 C209 1.391 . S
C208 C207 1.386 1_545 S
C208 C212 1.393 . S
C209 H201 0.950 . S
C209 C207 1.391 . S
C209 C210 1.400 1_565 S
C210 C209 1.400 1_545 S
C210 C211 1.398 . S
C210 C216 1.491 . S
C211 H202 0.950 . S
C211 C210 1.398 . S
C211 C212 1.391 . S
C212 H200 0.950 . S
C212 C208 1.393 . S
C212 C211 1.391 . S
C213 H203 0.950 . S
C213 C214 1.386 . S
C213 C215 1.391 . S
C214 C213 1.386 . S
C214 C218 1.393 1_545 S
C215 H204 0.950 . S
C215 C213 1.391 . S
C215 C216 1.400 . S
C216 C210 1.491 . S
C216 C215 1.400 . S
C216 C217 1.398 1_545 S
C217 H205 0.950 . S
C217 C216 1.398 1_565 S
C217 C218 1.391 . S
C218 H206 0.950 . S
C218 C214 1.393 1_565 S
C218 C217 1.391 . S
C68 C23 1.300 . S
C74 C34 1.380 . S
C88 C22 1.433 . S
C94 C56 1.461 1_545 S
C108 C21 1.720 . S
C114 C43 1.730 . S
C128 C24 1.488 1_565 S
C134 C47 1.533 1_545 S
C148 C27 1.233 1_455 S
C154 C36 1.311 . S
C168 C26 1.359 . S
C174 C51 1.407 1_545 S
C194 C38 1.672 . S
C188 C25 1.658 . S
C208 C28 1.424 . S
C214 C49 1.474 1_545 S
