# Generated by pormake.
# Topology scu, (8,4)-cn, num edge types: 1
# Building blocks:
#     Node 0, Type 0, BuildingBlock: TAGTUT_clean_sbu_3, # of connection points: 8
#     Node 1, Type 1, BuildingBlock: MUDLON_clean_sbu_0, # of connection points: 4
#     Node 2, Type 1, BuildingBlock: MUDLON_clean_sbu_0, # of connection points: 4
#     Edge 3, Type (0, 1), BuildingBlock: AJUNOK_clean_linker_0, # of connection points: 2
#     Edge 4, Type (0, 1), BuildingBlock: AJUNOK_clean_linker_0, # of connection points: 2
#     Edge 5, Type (0, 1), BuildingBlock: AJUNOK_clean_linker_0, # of connection points: 2
#     Edge 6, Type (0, 1), BuildingBlock: AJUNOK_clean_linker_0, # of connection points: 2
#     Edge 7, Type (0, 1), BuildingBlock: AJUNOK_clean_linker_0, # of connection points: 2
#     Edge 8, Type (0, 1), BuildingBlock: AJUNOK_clean_linker_0, # of connection points: 2
#     Edge 9, Type (0, 1), BuildingBlock: AJUNOK_clean_linker_0, # of connection points: 2
#     Edge 10, Type (0, 1), BuildingBlock: AJUNOK_clean_linker_0, # of connection points: 2
# Relax obj value: 0.057
# Max RMSD: 0.133
# Mean RMSD: 0.084
data_MOF--net-scu--node1-TAGTUT_clean_sbu_3--node2-MUDLON_clean_sbu_0--edge1-AJUNOK_clean_linker_0
_symmetry_space_group_name_H-M    P1
_symmetry_Int_Tables_number       1
_symmetry_cell_setting            triclinic
loop_
_symmetry_equiv_pos_as_xyz
'x, y, z'
_cell_length_a     20.876936
_cell_length_b     16.54882
_cell_length_c     15.827176
_cell_angle_alpha  89.76317
_cell_angle_beta   90.535931
_cell_angle_gamma 90.678164
loop_
_atom_site_label
_atom_site_type_symbol
_atom_site_fract_x
_atom_site_fract_y
_atom_site_fract_z
_atom_type_partial_charge
C0 C 0.99819 0.85783 0.12933 0.0
C1 C 0.77021 0.97663 0.12234 0.0
C2 C 0.82016 0.06695 0.87342 0.0
Mg3 Mg 0.12673 0.90254 0.03348 0.0
Mg4 Mg 0.1701 0.08964 0.99719 0.0
O5 O 0.10603 0.01101 0.98142 0.0
Mg6 Mg 0.01399 0.02386 0.01792 0.0
O7 O 0.92113 0.02058 0.05353 0.0
Mg8 Mg 0.8892 0.92001 0.99482 0.0
Mg9 Mg 0.86486 0.10742 0.05155 0.0
C10 C 0.05542 0.1918 0.91651 0.0
O11 O 0.02822 0.12362 0.12116 0.0
O12 O 0.21819 0.90107 0.95082 0.0
O13 O 0.93233 0.18721 0.11508 0.0
O14 O 0.18421 0.96072 0.14395 0.0
O15 O 0.24451 0.03118 0.9258 0.0
O16 O 0.19876 0.09304 0.12738 0.0
O17 O 0.9843 0.92875 0.92025 0.0
O18 O 0.06669 0.84435 0.92556 0.0
C19 C 0.0123 0.86533 0.89513 0.0
C20 C 0.25429 0.95531 0.91684 0.0
O21 O 0.01135 0.13684 0.92683 0.0
O22 O 0.79892 0.92241 0.07958 0.0
O23 O 0.11322 0.18552 0.94412 0.0
O24 O 0.83701 0.99467 0.89125 0.0
O25 O 0.78815 0.05098 0.122 0.0
O26 O 0.83056 0.12526 0.92435 0.0
O27 O 0.03295 0.91742 0.10626 0.0
O28 O 0.94155 0.84751 0.0996 0.0
C29 C 0.20457 0.02899 0.1715 0.0
C30 C 0.99041 0.18155 0.14229 0.0
Mg31 Mg 0.01796 0.53855 0.53628 0.0
C32 C 0.03365 0.40195 0.42157 0.0
O33 O 0.08834 0.40565 0.46308 0.0
C34 C 0.93552 0.66594 0.61415 0.0
O35 O 0.94274 0.7 0.53978 0.0
C36 C 0.06562 0.47397 0.70221 0.0
O37 O 0.0481 0.54512 0.72915 0.0
O38 O 0.07166 0.46317 0.62328 0.0
O39 O 0.98965 0.45153 0.44034 0.0
O40 O 0.0572 0.64056 0.46496 0.0
C41 C 0.07762 0.63263 0.38992 0.0
O42 O 0.09218 0.5603 0.36302 0.0
O43 O 0.94822 0.59126 0.62139 0.0
Mg44 Mg 0.51251 0.00715 0.5308 0.0
C45 C 0.40057 0.00634 0.42564 0.0
O46 O 0.42913 0.93674 0.41588 0.0
C47 C 0.63724 0.04647 0.6007 0.0
O48 O 0.64312 0.9789 0.55844 0.0
C49 C 0.4247 0.89838 0.64033 0.0
O50 O 0.39102 0.8865 0.57107 0.0
O51 O 0.48023 0.93035 0.63507 0.0
O52 O 0.42651 0.05889 0.47406 0.0
O53 O 0.56322 0.96901 0.41862 0.0
C54 C 0.5908 0.90718 0.3897 0.0
O55 O 0.59299 0.8405 0.43491 0.0
O56 O 0.58339 0.08197 0.59752 0.0
C57 C 0.97444 0.31284 0.21502 0.0
C58 C 0.00999 0.24125 0.2075 0.0
C59 C 0.98224 0.36404 0.28445 0.0
C60 C 0.02658 0.34656 0.34886 0.0
H61 H 0.93866 0.32858 0.16793 0.0
H62 H 0.95308 0.41765 0.28761 0.0
S63 S 0.1346 0.16979 0.35778 0.0
N64 N 0.09323 0.15746 0.26925 0.0
N65 N 0.10903 0.25478 0.39929 0.0
C66 C 0.06466 0.27724 0.34063 0.0
C67 C 0.05629 0.2245 0.26995 0.0
C68 C 0.72271 0.88092 0.22823 0.0
C69 C 0.71786 0.95206 0.1796 0.0
C70 C 0.67914 0.86384 0.29334 0.0
C71 C 0.62899 0.91705 0.3114 0.0
H72 H 0.76253 0.84055 0.21923 0.0
H73 H 0.68688 0.81085 0.33234 0.0
S74 S 0.58882 0.1033 0.19063 0.0
N75 N 0.65479 0.07037 0.14634 0.0
N76 N 0.57196 0.03786 0.26645 0.0
C77 C 0.62084 0.98494 0.25824 0.0
C78 C 0.66557 1.00264 0.19302 0.0
C79 C 0.99171 0.80089 0.27417 0.0
C80 C 0.02232 0.80326 0.19574 0.0
C81 C 0.01314 0.74967 0.33893 0.0
C82 C 0.06503 0.69735 0.32695 0.0
H83 H 0.95064 0.83868 0.28542 0.0
H84 H 0.98675 0.74859 0.39731 0.0
S85 S 0.16325 0.68415 0.13349 0.0
N86 N 0.10898 0.75282 0.11031 0.0
N87 N 0.1483 0.65434 0.23119 0.0
C88 C 0.09709 0.70092 0.24919 0.0
C89 C 0.07596 0.75443 0.18377 0.0
C90 C 0.28586 0.09669 0.26651 0.0
C91 C 0.24362 0.03113 0.25045 0.0
C92 C 0.33376 0.09177 0.32931 0.0
C93 C 0.34097 0.02106 0.37756 0.0
H94 H 0.28483 0.15009 0.22675 0.0
H95 H 0.36819 0.14093 0.33553 0.0
S96 S 0.23461 0.83992 0.37363 0.0
N97 N 0.2058 0.89914 0.29859 0.0
N98 N 0.29646 0.88952 0.41468 0.0
C99 C 0.29551 0.95846 0.36766 0.0
C100 C 0.24655 0.96363 0.30465 0.0
C101 C 0.96896 0.85017 0.74919 0.0
C102 C 0.98151 0.81586 0.82874 0.0
C103 C 0.94823 0.80206 0.68126 0.0
C104 C 0.93851 0.71797 0.69083 0.0
H105 H 0.97877 0.91377 0.73811 0.0
H106 H 0.94361 0.83048 0.61977 0.0
S107 S 0.94754 0.60473 0.89377 0.0
N108 N 0.97246 0.69695 0.91797 0.0
N109 N 0.92982 0.6068 0.79181 0.0
C110 C 0.94378 0.68519 0.77302 0.0
C111 C 0.96658 0.73397 0.84156 0.0
C112 C 0.29186 0.86846 0.79902 0.0
C113 C 0.30485 0.92997 0.85803 0.0
C114 C 0.33359 0.85425 0.73178 0.0
C115 C 0.39051 0.89973 0.72223 0.0
H116 H 0.24707 0.83481 0.80139 0.0
H117 H 0.31953 0.81011 0.68454 0.0
S118 S 0.45098 0.05906 0.86858 0.0
N119 N 0.38137 0.03072 0.90834 0.0
N120 N 0.46096 1.00267 0.784 0.0
C121 C 0.40662 0.9566 0.78538 0.0
C122 C 0.36338 0.97221 0.85263 0.0
C123 C 0.03691 0.25812 0.77786 0.0
C124 C 0.04342 0.26472 0.86583 0.0
C125 C 0.04537 0.32592 0.72534 0.0
C126 C 0.06034 0.40278 0.75911 0.0
H127 H 0.02883 0.19949 0.74918 0.0
H128 H 0.04045 0.31777 0.6577 0.0
S129 S 0.07995 0.45131 0.98665 0.0
N130 N 0.06403 0.35331 0.98505 0.0
N131 N 0.07891 0.48112 0.8869 0.0
C132 C 0.06474 0.41027 0.84743 0.0
C133 C 0.05656 0.34116 0.90061 0.0
C134 C 0.79208 0.03236 0.72484 0.0
C135 C 0.78066 0.07954 0.79647 0.0
C136 C 0.74748 0.02806 0.65845 0.0
C137 C 0.68889 0.06946 0.66161 0.0
H138 H 0.83446 0.9953 0.72187 0.0
H139 H 0.7576 0.98794 0.60647 0.0
S140 S 0.63898 0.20801 0.83191 0.0
N141 N 0.70955 0.17475 0.86364 0.0
N142 N 0.62481 0.16537 0.73932 0.0
C143 C 0.67895 0.12164 0.73011 0.0
C144 C 0.72504 0.12688 0.79752 0.0
loop_
_geom_bond_atom_site_label_1
_geom_bond_atom_site_label_2
_geom_bond_distance
_geom_bond_site_symmetry_2
_ccdc_geom_bond_type
C0 O27 1.312 1_655 S
C0 O28 1.208 . S
C1 O22 1.331 . S
C1 O25 1.244 1_565 S
C2 O24 1.264 1_545 S
C2 O26 1.273 . S
Mg3 O5 1.936 1_564 S
Mg3 O12 2.081 1_554 S
Mg3 O14 2.023 . S
Mg3 O18 2.031 1_554 S
Mg3 O27 2.291 . S
Mg4 O5 1.963 . S
Mg4 O15 1.942 . S
Mg4 O16 1.955 1_556 S
Mg4 O23 1.986 . S
O5 Mg3 1.936 1_546 S
O5 Mg4 1.963 . S
O5 Mg6 1.915 1_556 S
Mg6 O5 1.915 1_554 S
Mg6 O7 1.915 1_455 S
Mg6 O11 2.013 . S
Mg6 O17 2.114 1_444 S
Mg6 O21 2.013 1_454 S
Mg6 O27 2.114 1_545 S
O7 Mg6 1.915 1_655 S
O7 Mg8 1.936 1_545 S
O7 Mg9 1.963 . S
Mg8 O7 1.936 1_565 S
Mg8 O17 2.291 1_554 S
Mg8 O22 2.081 . S
Mg8 O24 2.023 1_554 S
Mg8 O28 2.031 . S
Mg9 O7 1.963 . S
Mg9 O13 1.986 . S
Mg9 O25 1.942 . S
Mg9 O26 1.955 1_554 S
C10 O21 1.191 1_455 S
C10 O23 1.307 . S
O11 Mg6 2.013 . S
O11 C30 1.191 1_455 S
O12 Mg3 2.081 1_556 S
O12 C20 1.331 . S
O13 Mg9 1.986 . S
O13 C30 1.307 . S
O14 Mg3 2.023 . S
O14 C29 1.264 1_565 S
O15 Mg4 1.942 . S
O15 C20 1.244 1_545 S
O16 Mg4 1.955 1_554 S
O16 C29 1.273 . S
O17 Mg6 2.114 1_666 S
O17 Mg8 2.291 1_556 S
O17 C19 1.312 1_655 S
O18 Mg3 2.031 1_556 S
O18 C19 1.208 . S
C19 O17 1.312 1_455 S
C19 O18 1.208 . S
C20 O12 1.331 . S
C20 O15 1.244 1_565 S
O21 Mg6 2.013 1_656 S
O21 C10 1.191 1_655 S
O22 C1 1.331 . S
O22 Mg8 2.081 . S
O23 Mg4 1.986 . S
O23 C10 1.307 . S
O24 C2 1.264 1_565 S
O24 Mg8 2.023 1_556 S
O25 C1 1.244 1_545 S
O25 Mg9 1.942 . S
O26 C2 1.273 . S
O26 Mg9 1.955 1_556 S
O27 C0 1.312 1_455 S
O27 Mg3 2.291 . S
O27 Mg6 2.114 1_565 S
O28 C0 1.208 . S
O28 Mg8 2.031 . S
C29 O14 1.264 1_545 S
C29 O16 1.273 . S
C30 O11 1.191 1_655 S
C30 O13 1.307 . S
Mg31 O38 2.141 . S
Mg31 O39 2.048 . S
Mg31 O40 2.048 . S
Mg31 O43 2.141 . S
C32 O33 1.313 . S
C32 O39 1.195 1_455 S
O33 C32 1.313 . S
C34 O35 1.245 . S
C34 O43 1.289 1_455 S
O35 C34 1.245 . S
C36 O37 1.245 . S
C36 O38 1.289 1_455 S
O37 C36 1.245 . S
O38 Mg31 2.141 . S
O38 C36 1.289 1_655 S
O39 Mg31 2.048 . S
O39 C32 1.195 1_655 S
O40 Mg31 2.048 . S
O40 C41 1.195 1_655 S
C41 O40 1.195 1_455 S
C41 O42 1.313 . S
O42 C41 1.313 . S
O43 Mg31 2.141 . S
O43 C34 1.289 1_655 S
Mg44 O51 2.141 . S
Mg44 O52 2.048 . S
Mg44 O53 2.048 . S
Mg44 O56 2.141 . S
C45 O46 1.313 . S
C45 O52 1.195 1_565 S
O46 C45 1.313 . S
C47 O48 1.245 . S
C47 O56 1.289 1_565 S
O48 C47 1.245 . S
C49 O50 1.245 . S
C49 O51 1.289 1_565 S
O50 C49 1.245 . S
O51 Mg44 2.141 . S
O51 C49 1.289 1_545 S
O52 Mg44 2.048 . S
O52 C45 1.195 1_545 S
O53 Mg44 2.048 . S
O53 C54 1.195 1_545 S
C54 O53 1.195 1_565 S
C54 O55 1.313 . S
O55 C54 1.313 . S
O56 Mg44 2.141 . S
O56 C47 1.289 1_545 S
C57 C58 1.369 1_655 S
C57 C59 1.419 . S
C57 H61 0.930 . S
C58 C57 1.369 1_455 S
C58 C67 1.429 . S
C59 C57 1.419 . S
C59 C60 1.363 1_655 S
C59 H62 0.929 . S
C60 C59 1.363 1_455 S
C60 C66 1.428 . S
H61 C57 0.930 . S
H62 C59 0.929 . S
S63 N64 1.613 . S
S63 N65 1.610 . S
N64 S63 1.613 . S
N64 C67 1.350 . S
N65 S63 1.610 . S
N65 C66 1.351 . S
C66 C60 1.428 . S
C66 N65 1.351 . S
C66 C67 1.434 . S
C67 C58 1.429 . S
C67 N64 1.350 . S
C67 C66 1.434 . S
C68 C69 1.369 . S
C68 C70 1.419 . S
C68 H72 0.930 . S
C69 C68 1.369 . S
C69 C78 1.429 1_565 S
C70 C68 1.419 . S
C70 C71 1.363 1_565 S
C70 H73 0.929 . S
C71 C70 1.363 1_545 S
C71 C77 1.428 . S
H72 C68 0.930 . S
H73 C70 0.929 . S
S74 N75 1.613 . S
S74 N76 1.610 . S
N75 S74 1.613 . S
N75 C78 1.350 . S
N76 S74 1.610 . S
N76 C77 1.351 . S
C77 C71 1.428 . S
C77 N76 1.351 . S
C77 C78 1.434 . S
C78 C69 1.429 1_545 S
C78 N75 1.350 . S
C78 C77 1.434 . S
C79 C80 1.369 1_655 S
C79 C81 1.419 . S
C79 H83 0.930 . S
C80 C79 1.369 1_455 S
C80 C89 1.429 . S
C81 C79 1.419 . S
C81 C82 1.363 1_655 S
C81 H84 0.929 . S
C82 C81 1.363 1_455 S
C82 C88 1.428 . S
H83 C79 0.930 . S
H84 C81 0.929 . S
S85 N86 1.613 . S
S85 N87 1.610 . S
N86 S85 1.613 . S
N86 C89 1.350 . S
N87 S85 1.610 . S
N87 C88 1.351 . S
C88 C82 1.428 . S
C88 N87 1.351 . S
C88 C89 1.434 . S
C89 C80 1.429 . S
C89 N86 1.350 . S
C89 C88 1.434 . S
C90 C91 1.369 . S
C90 C92 1.419 . S
C90 H94 0.930 . S
C91 C90 1.369 . S
C91 C100 1.429 1_545 S
C92 C90 1.419 . S
C92 C93 1.363 . S
C92 H95 0.929 . S
C93 C92 1.363 . S
C93 C99 1.428 1_545 S
H94 C90 0.930 . S
H95 C92 0.929 . S
S96 N97 1.613 . S
S96 N98 1.610 . S
N97 S96 1.613 . S
N97 C100 1.350 . S
N98 S96 1.610 . S
N98 C99 1.351 . S
C99 C93 1.428 1_565 S
C99 N98 1.351 . S
C99 C100 1.434 . S
C100 C91 1.429 1_565 S
C100 N97 1.350 . S
C100 C99 1.434 . S
C101 C102 1.367 1_655 S
C101 C103 1.419 . S
C101 H105 0.930 . S
C102 C101 1.367 1_455 S
C102 C111 1.431 . S
C103 C101 1.419 . S
C103 C104 1.363 1_655 S
C103 H106 0.929 . S
C104 C103 1.363 1_455 S
C104 C110 1.428 . S
H105 C101 0.930 . S
H106 C103 0.929 . S
S107 N108 1.613 . S
S107 N109 1.610 . S
N108 S107 1.613 . S
N108 C111 1.350 . S
N109 S107 1.610 . S
N109 C110 1.351 . S
C110 C104 1.428 . S
C110 N109 1.351 . S
C110 C111 1.434 . S
C111 C102 1.431 . S
C111 N108 1.350 . S
C111 C110 1.434 . S
C112 C113 1.369 . S
C112 C114 1.419 . S
C112 H116 0.930 . S
C113 C112 1.369 . S
C113 C122 1.429 1_565 S
C114 C112 1.419 . S
C114 C115 1.363 1_565 S
C114 H117 0.929 . S
C115 C114 1.363 1_545 S
C115 C121 1.428 . S
H116 C112 0.930 . S
H117 C114 0.929 . S
S118 N119 1.613 . S
S118 N120 1.610 . S
N119 S118 1.613 . S
N119 C122 1.350 . S
N120 S118 1.610 . S
N120 C121 1.351 . S
C121 C115 1.428 . S
C121 N120 1.351 . S
C121 C122 1.434 . S
C122 C113 1.429 1_545 S
C122 N119 1.350 . S
C122 C121 1.434 . S
C123 C124 1.369 1_655 S
C123 C125 1.419 . S
C123 H127 0.930 . S
C124 C123 1.369 1_455 S
C124 C133 1.429 . S
C125 C123 1.419 . S
C125 C126 1.363 1_655 S
C125 H128 0.929 . S
C126 C125 1.363 1_455 S
C126 C132 1.428 . S
H127 C123 0.930 . S
H128 C125 0.929 . S
S129 N130 1.613 . S
S129 N131 1.610 . S
N130 S129 1.613 . S
N130 C133 1.350 . S
N131 S129 1.610 . S
N131 C132 1.351 . S
C132 C126 1.428 . S
C132 N131 1.351 . S
C132 C133 1.434 . S
C133 C124 1.429 . S
C133 N130 1.350 . S
C133 C132 1.434 . S
C134 C135 1.369 . S
C134 C136 1.419 1_545 S
C134 H138 0.930 1_545 S
C135 C134 1.369 . S
C135 C144 1.429 . S
C136 C134 1.419 1_565 S
C136 C137 1.363 1_565 S
C136 H139 0.929 . S
C137 C136 1.363 1_545 S
C137 C143 1.428 . S
H138 C134 0.930 1_565 S
H139 C136 0.929 . S
S140 N141 1.613 . S
S140 N142 1.610 . S
N141 S140 1.613 . S
N141 C144 1.350 . S
N142 S140 1.610 . S
N142 C143 1.351 . S
C143 C137 1.428 . S
C143 N142 1.351 . S
C143 C144 1.434 . S
C144 C135 1.429 . S
C144 N141 1.350 . S
C144 C143 1.434 . S
C58 C30 1.414 1_455 S
C60 C32 1.441 . S
C69 C1 1.487 . S
C71 C54 1.508 1_545 S
C80 C0 1.402 1_455 S
C82 C41 1.455 . S
C91 C29 1.522 . S
C93 C45 1.555 1_545 S
C102 C19 1.352 . S
C104 C34 1.400 . S
C113 C20 1.427 . S
C115 C49 1.439 1_545 S
C126 C36 1.381 . S
C124 C10 1.357 . S
C135 C2 1.459 . S
C137 C47 1.486 1_545 S
