# Generated by pormake.
# Topology bcu-b, (8,8)-cn, num edge types: 1
# Building blocks:
#     Node 0, Type 0, BuildingBlock: TAGTUT_clean_sbu_3, # of connection points: 8
#     Node 1, Type 1, BuildingBlock: TAGTUT_clean_sbu_3, # of connection points: 8
#     Edge 2, Type (0, 1), BuildingBlock: EYOCIG_clean_linker_4, # of connection points: 2
#     Edge 3, Type (0, 1), BuildingBlock: EYOCIG_clean_linker_4, # of connection points: 2
#     Edge 4, Type (0, 1), BuildingBlock: EYOCIG_clean_linker_4, # of connection points: 2
#     Edge 5, Type (0, 1), BuildingBlock: EYOCIG_clean_linker_4, # of connection points: 2
#     Edge 6, Type (0, 1), BuildingBlock: EYOCIG_clean_linker_4, # of connection points: 2
#     Edge 7, Type (0, 1), BuildingBlock: EYOCIG_clean_linker_4, # of connection points: 2
#     Edge 8, Type (0, 1), BuildingBlock: EYOCIG_clean_linker_4, # of connection points: 2
#     Edge 9, Type (0, 1), BuildingBlock: EYOCIG_clean_linker_4, # of connection points: 2
# Relax obj value: 0.009
# Max RMSD: 0.056
# Mean RMSD: 0.056
data_MOF--net-bcu-b--node1-TAGTUT_clean_sbu_3--node2-TAGTUT_clean_sbu_3--edge1-EYOCIG_clean_linker_4
_symmetry_space_group_name_H-M    P1
_symmetry_Int_Tables_number       1
_symmetry_cell_setting            triclinic
loop_
_symmetry_equiv_pos_as_xyz
'x, y, z'
_cell_length_a     16.646742
_cell_length_b     16.659132
_cell_length_c     17.646045
_cell_angle_alpha  90.893492
_cell_angle_beta   89.112736
_cell_angle_gamma 109.61351
loop_
_atom_site_label
_atom_site_type_symbol
_atom_site_fract_x
_atom_site_fract_y
_atom_site_fract_z
_atom_type_partial_charge
C0 C 0.11522 0.09654 0.07512 0.0
C1 C 0.19958 0.84046 0.07787 0.0
C2 C 0.10294 0.77926 0.85165 0.0
Mg3 Mg 0.97197 0.15186 -0.01007 0.0
Mg4 Mg 0.78718 0.01468 0.93493 0.0
O5 O 0.90456 0.04067 0.94104 0.0
Mg6 Mg 0.96898 0.96423 0.97042 0.0
O7 O 0.04577 0.90023 -0.00015 0.0
Mg8 Mg 0.15678 0.96732 0.9504 0.0
Mg9 Mg 0.02003 0.78306 0.00701 0.0
C10 C 0.80925 0.84874 0.85985 0.0
O11 O 0.87125 0.88327 0.06046 0.0
O12 O 0.90727 0.2191 0.90828 0.0
O13 O 0.89719 0.75768 0.06164 0.0
O14 O 0.8639 0.14103 0.07931 0.0
O15 O 0.79096 0.11749 0.86234 0.0
O16 O 0.74211 0.04042 0.04426 0.0
O17 O 0.07446 0.0307 0.88184 0.0
O18 O 0.07159 0.16298 0.89781 0.0
C19 C 0.1002 0.10965 0.86443 0.0
C20 C 0.84366 0.19364 0.86332 0.0
O21 O 0.88721 0.8659 0.88117 0.0
O22 O 0.22471 0.90357 0.03239 0.0
O23 O 0.76139 0.89159 0.88078 0.0
O24 O 0.14534 0.85849 0.86173 0.0
O25 O 0.12342 0.78773 0.07935 0.0
O26 O 0.04504 0.73703 0.89787 0.0
O27 O 0.03609 0.07007 0.05815 0.0
O28 O 0.16859 0.06789 0.04183 0.0
C29 C 0.78471 0.0987 0.08998 0.0
C30 C 0.85431 0.8056 0.08233 0.0
C31 C 0.61443 0.59555 0.57627 0.0
C32 C 0.69823 0.33896 0.57667 0.0
C33 C 0.60282 0.28055 0.35008 0.0
Mg34 Mg 0.4718 0.65214 0.49129 0.0
Mg35 Mg 0.28718 0.51578 0.43482 0.0
O36 O 0.40448 0.54147 0.44149 0.0
Mg37 Mg 0.46857 0.46456 0.47037 0.0
O38 O 0.54506 0.40005 0.49932 0.0
Mg39 Mg 0.65631 0.46751 0.45047 0.0
Mg40 Mg 0.51902 0.28274 0.50526 0.0
C41 C 0.30942 0.35044 0.35863 0.0
O42 O 0.37035 0.38269 0.55967 0.0
O43 O 0.40772 0.72044 0.40998 0.0
O44 O 0.39597 0.2569 0.55964 0.0
O45 O 0.36326 0.64043 0.58038 0.0
O46 O 0.29163 0.61944 0.363 0.0
O47 O 0.24157 0.54036 0.54429 0.0
O48 O 0.57447 0.53182 0.38246 0.0
O49 O 0.57188 0.66407 0.39942 0.0
C50 C 0.6005 0.61096 0.36569 0.0
C51 C 0.34441 0.69553 0.36465 0.0
O52 O 0.38722 0.36725 0.38027 0.0
O53 O 0.72364 0.40264 0.53185 0.0
O54 O 0.26154 0.39323 0.3797 0.0
O55 O 0.64524 0.35964 0.36088 0.0
O56 O 0.62202 0.2863 0.57765 0.0
O57 O 0.54453 0.2379 0.39578 0.0
O58 O 0.53539 0.56946 0.55901 0.0
O59 O 0.66784 0.56711 0.54278 0.0
C60 C 0.28401 0.59805 0.59059 0.0
C61 C 0.35318 0.30473 0.58082 0.0
C62 C 0.18343 0.19257 0.19265 0.0
C63 C 0.14513 0.14988 0.14045 0.0
C64 C 0.23381 0.24049 0.25217 0.0
C65 C 0.27515 0.28775 0.30047 0.0
C66 C 0.7014 0.15717 0.19388 0.0
C67 C 0.73842 0.12965 0.1462 0.0
C68 C 0.66118 0.19741 0.24597 0.0
C69 C 0.63373 0.23437 0.29374 0.0
C70 C 0.74399 0.73019 0.18859 0.0
C71 C 0.79135 0.77153 0.14034 0.0
C72 C 0.69612 0.67972 0.24807 0.0
C73 C 0.65361 0.64125 0.30028 0.0
C74 C 0.29193 0.81725 0.18893 0.0
C75 C 0.25555 0.83347 0.13606 0.0
C76 C 0.321 0.78817 0.25396 0.0
C77 C 0.33733 0.75167 0.30667 0.0
C78 C 0.16047 0.69551 0.74749 0.0
C79 C 0.13331 0.73264 0.79532 0.0
C80 C 0.2005 0.65544 0.69509 0.0
C81 C 0.23752 0.62835 0.64711 0.0
C82 C 0.19526 0.17787 0.74636 0.0
C83 C 0.15305 0.1395 0.79877 0.0
C84 C 0.2429 0.22852 0.68686 0.0
C85 C 0.29024 0.27021 0.63877 0.0
C86 C 0.81951 0.28549 0.75235 0.0
C87 C 0.83606 0.24921 0.80509 0.0
C88 C 0.79029 0.31466 0.68747 0.0
C89 C 0.7539 0.33126 0.63481 0.0
C90 C 0.73315 0.73829 0.75391 0.0
C91 C 0.77479 0.78571 0.80198 0.0
C92 C 0.68256 0.69058 0.69439 0.0
C93 C 0.64425 0.64835 0.64196 0.0
loop_
_geom_bond_atom_site_label_1
_geom_bond_atom_site_label_2
_geom_bond_distance
_geom_bond_site_symmetry_2
_ccdc_geom_bond_type
C0 O27 1.312 . S
C0 O28 1.208 . S
C1 O22 1.331 . S
C1 O25 1.244 . S
C2 O24 1.264 . S
C2 O26 1.273 . S
Mg3 O5 1.936 1_455 S
Mg3 O12 2.082 1_455 S
Mg3 O14 2.011 1_456 S
Mg3 O18 2.043 . S
Mg3 O27 2.291 1_556 S
Mg4 O5 1.963 . S
Mg4 O15 1.942 . S
Mg4 O16 1.955 1_556 S
Mg4 O23 1.986 1_545 S
O5 Mg3 1.936 1_655 S
O5 Mg4 1.963 . S
O5 Mg6 1.915 1_546 S
Mg6 O5 1.915 1_564 S
Mg6 O7 1.915 1_655 S
Mg6 O11 2.013 . S
Mg6 O17 2.114 1_664 S
Mg6 O21 2.013 1_554 S
Mg6 O27 2.114 1_665 S
O7 Mg6 1.915 1_455 S
O7 Mg8 1.937 1_565 S
O7 Mg9 1.963 . S
Mg8 O7 1.937 1_545 S
Mg8 O17 2.289 1_554 S
Mg8 O22 2.085 1_545 S
Mg8 O24 2.009 1_544 S
Mg8 O28 2.045 . S
Mg9 O7 1.963 . S
Mg9 O13 1.986 1_455 S
Mg9 O25 1.942 . S
Mg9 O26 1.955 1_554 S
C10 O21 1.191 . S
C10 O23 1.307 . S
O11 Mg6 2.013 . S
O11 C30 1.191 . S
O12 Mg3 2.082 1_655 S
O12 C20 1.331 . S
O13 Mg9 1.986 1_655 S
O13 C30 1.307 . S
O14 Mg3 2.011 1_654 S
O14 C29 1.264 . S
O15 Mg4 1.942 . S
O15 C20 1.244 . S
O16 Mg4 1.955 1_554 S
O16 C29 1.273 . S
O17 Mg6 2.114 1_446 S
O17 Mg8 2.289 1_556 S
O17 C19 1.312 . S
O18 Mg3 2.043 . S
O18 C19 1.208 . S
C19 O17 1.312 . S
C19 O18 1.208 . S
C20 O12 1.331 . S
C20 O15 1.244 . S
O21 Mg6 2.013 1_556 S
O21 C10 1.191 . S
O22 C1 1.331 . S
O22 Mg8 2.085 1_565 S
O23 Mg4 1.986 1_565 S
O23 C10 1.307 . S
O24 C2 1.264 . S
O24 Mg8 2.009 1_566 S
O25 C1 1.244 . S
O25 Mg9 1.942 . S
O26 C2 1.273 . S
O26 Mg9 1.955 1_556 S
O27 C0 1.312 . S
O27 Mg3 2.291 1_554 S
O27 Mg6 2.114 1_445 S
O28 C0 1.208 . S
O28 Mg8 2.045 . S
C29 O14 1.264 . S
C29 O16 1.273 . S
C30 O11 1.191 . S
C30 O13 1.307 . S
C31 O58 1.312 . S
C31 O59 1.208 . S
C32 O53 1.331 . S
C32 O56 1.244 . S
C33 O55 1.264 . S
C33 O57 1.273 . S
Mg34 O36 1.936 . S
Mg34 O43 2.081 . S
Mg34 O45 2.023 . S
Mg34 O49 2.031 . S
Mg34 O58 2.291 . S
Mg35 O36 1.963 . S
Mg35 O46 1.942 . S
Mg35 O47 1.955 . S
Mg35 O54 1.986 . S
O36 Mg34 1.936 . S
O36 Mg35 1.963 . S
O36 Mg37 1.915 . S
Mg37 O36 1.915 . S
Mg37 O38 1.915 . S
Mg37 O42 2.013 . S
Mg37 O48 2.114 . S
Mg37 O52 2.013 . S
Mg37 O58 2.114 . S
O38 Mg37 1.915 . S
O38 Mg39 1.936 . S
O38 Mg40 1.963 . S
Mg39 O38 1.936 . S
Mg39 O48 2.291 . S
Mg39 O53 2.081 . S
Mg39 O55 2.023 . S
Mg39 O59 2.031 . S
Mg40 O38 1.963 . S
Mg40 O44 1.986 . S
Mg40 O56 1.942 . S
Mg40 O57 1.955 . S
C41 O52 1.191 . S
C41 O54 1.307 . S
O42 Mg37 2.013 . S
O42 C61 1.191 . S
O43 Mg34 2.081 . S
O43 C51 1.331 . S
O44 Mg40 1.986 . S
O44 C61 1.307 . S
O45 Mg34 2.023 . S
O45 C60 1.264 . S
O46 Mg35 1.942 . S
O46 C51 1.244 . S
O47 Mg35 1.955 . S
O47 C60 1.273 . S
O48 Mg37 2.114 . S
O48 Mg39 2.291 . S
O48 C50 1.312 . S
O49 Mg34 2.031 . S
O49 C50 1.208 . S
C50 O48 1.312 . S
C50 O49 1.208 . S
C51 O43 1.331 . S
C51 O46 1.244 . S
O52 Mg37 2.013 . S
O52 C41 1.191 . S
O53 C32 1.331 . S
O53 Mg39 2.081 . S
O54 Mg35 1.986 . S
O54 C41 1.307 . S
O55 C33 1.264 . S
O55 Mg39 2.023 . S
O56 C32 1.244 . S
O56 Mg40 1.942 . S
O57 C33 1.273 . S
O57 Mg40 1.955 . S
O58 C31 1.312 . S
O58 Mg34 2.291 . S
O58 Mg37 2.114 . S
O59 C31 1.208 . S
O59 Mg39 2.031 . S
C60 O45 1.264 . S
C60 O47 1.273 . S
C61 O42 1.191 . S
C61 O44 1.307 . S
C62 C63 1.170 . S
C62 C64 1.380 . S
C63 C62 1.170 . S
C64 C62 1.380 . S
C64 C65 1.170 . S
C65 C64 1.170 . S
C66 C67 1.170 . S
C66 C68 1.380 . S
C67 C66 1.170 . S
C68 C66 1.380 . S
C68 C69 1.170 . S
C69 C68 1.170 . S
C70 C71 1.170 . S
C70 C72 1.380 . S
C71 C70 1.170 . S
C72 C70 1.380 . S
C72 C73 1.170 . S
C73 C72 1.170 . S
C74 C75 1.170 . S
C74 C76 1.380 . S
C75 C74 1.170 . S
C76 C74 1.380 . S
C76 C77 1.170 . S
C77 C76 1.170 . S
C78 C79 1.170 . S
C78 C80 1.380 . S
C79 C78 1.170 . S
C80 C78 1.380 . S
C80 C81 1.170 . S
C81 C80 1.170 . S
C82 C83 1.170 . S
C82 C84 1.380 . S
C83 C82 1.170 . S
C84 C82 1.380 . S
C84 C85 1.170 . S
C85 C84 1.170 . S
C86 C87 1.170 . S
C86 C88 1.380 . S
C87 C86 1.170 . S
C88 C86 1.380 . S
C88 C89 1.170 . S
C89 C88 1.170 . S
C90 C91 1.170 . S
C90 C92 1.380 . S
C91 C90 1.170 . S
C92 C90 1.380 . S
C92 C93 1.170 . S
C93 C92 1.170 . S
C63 C0 1.334 . S
C65 C41 1.326 . S
C67 C29 1.624 . S
C69 C33 1.643 . S
C71 C30 1.351 . S
C73 C50 1.305 . S
C75 C1 1.504 . S
C77 C51 1.507 . S
C79 C2 1.620 . S
C81 C60 1.646 . S
C85 C61 1.335 . S
C83 C19 1.308 . S
C87 C20 1.512 . S
C89 C32 1.494 . S
C93 C31 1.340 . S
C91 C10 1.321 . S
