# Generated by pormake.
# Topology tsx, (6,3)-cn, num edge types: 1
# Building blocks:
#     Node 0, Type 0, BuildingBlock: LEVNOQ01_clean_sbu_1, # of connection points: 6
#     Node 1, Type 0, BuildingBlock: LEVNOQ01_clean_sbu_1, # of connection points: 6
#     Node 2, Type 1, BuildingBlock: OLANEW_clean_sbu_2, # of connection points: 3
#     Node 3, Type 1, BuildingBlock: OLANEW_clean_sbu_2, # of connection points: 3
#     Node 4, Type 1, BuildingBlock: OLANEW_clean_sbu_2, # of connection points: 3
#     Node 5, Type 1, BuildingBlock: OLANEW_clean_sbu_2, # of connection points: 3
#     Edge 6, Type (0, 1), BuildingBlock: AJUNOK_clean_linker_0, # of connection points: 2
#     Edge 7, Type (0, 1), BuildingBlock: AJUNOK_clean_linker_0, # of connection points: 2
#     Edge 8, Type (0, 1), BuildingBlock: AJUNOK_clean_linker_0, # of connection points: 2
#     Edge 9, Type (0, 1), BuildingBlock: AJUNOK_clean_linker_0, # of connection points: 2
#     Edge 10, Type (0, 1), BuildingBlock: AJUNOK_clean_linker_0, # of connection points: 2
#     Edge 11, Type (0, 1), BuildingBlock: AJUNOK_clean_linker_0, # of connection points: 2
#     Edge 12, Type (0, 1), BuildingBlock: AJUNOK_clean_linker_0, # of connection points: 2
#     Edge 13, Type (0, 1), BuildingBlock: AJUNOK_clean_linker_0, # of connection points: 2
#     Edge 14, Type (0, 1), BuildingBlock: AJUNOK_clean_linker_0, # of connection points: 2
#     Edge 15, Type (0, 1), BuildingBlock: AJUNOK_clean_linker_0, # of connection points: 2
#     Edge 16, Type (0, 1), BuildingBlock: AJUNOK_clean_linker_0, # of connection points: 2
#     Edge 17, Type (0, 1), BuildingBlock: AJUNOK_clean_linker_0, # of connection points: 2
# Relax obj value: 0.040
# Max RMSD: 0.095
# Mean RMSD: 0.047
data_MOF--net-tsx--node1-LEVNOQ01_clean_sbu_1--node2-OLANEW_clean_sbu_2--edge1-AJUNOK_clean_linker_0
_symmetry_space_group_name_H-M    P1
_symmetry_Int_Tables_number       1
_symmetry_cell_setting            triclinic
loop_
_symmetry_equiv_pos_as_xyz
'x, y, z'
_cell_length_a     15.643938
_cell_length_b     20.407666
_cell_length_c     26.350021
_cell_angle_alpha  102.069
_cell_angle_beta   100.22302
_cell_angle_gamma 87.015485
loop_
_atom_site_label
_atom_site_type_symbol
_atom_site_fract_x
_atom_site_fract_y
_atom_site_fract_z
_atom_type_partial_charge
O0 O 0.12585 0.00322 0.12985 0.0
Mg1 Mg 0.18775 -0.00935 0.06534 0.0
O2 O 0.00959 -0.04304 0.0765 0.0
Mg3 Mg 0.02517 -0.04384 0.98831 0.0
O4 O 0.13126 0.03889 0.00683 0.0
O5 O 0.25655 0.06922 0.06192 0.0
O6 O 0.04156 -0.04429 0.90142 0.0
O7 O 0.92419 0.0443 0.98785 0.0
Mg8 Mg 0.86281 0.90831 0.90178 0.0
O9 O 0.91855 0.87592 0.96831 0.0
O10 O 0.94263 0.89384 0.84347 0.0
O11 O 0.81067 0.00605 0.9268 0.0
O12 O 0.8037 0.8266 0.91371 0.0
C13 C 0.20047 0.85266 0.00708 0.0
C14 C 0.05127 -0.02118 0.12282 0.0
C15 C 0.19694 0.07905 0.0235 0.0
C16 C 0.01169 0.9272 0.85412 0.0
C17 C 0.84818 0.05256 0.96247 0.0
C18 C 0.85866 0.83097 0.95694 0.0
O19 O 0.24347 0.89688 0.04153 0.0
O20 O 0.12368 0.86537 0.98513 0.0
O21 O 0.64217 0.50712 0.62784 0.0
Mg22 Mg 0.69547 0.48854 0.55981 0.0
O23 O 0.51922 0.46493 0.57995 0.0
Mg24 Mg 0.52603 0.45896 0.48974 0.0
O25 O 0.63504 0.53825 0.50324 0.0
O26 O 0.76766 0.56244 0.55177 0.0
O27 O 0.53573 0.45349 0.39994 0.0
O28 O 0.43214 0.55438 0.49142 0.0
Mg29 Mg 0.36282 0.42234 0.41721 0.0
O30 O 0.41615 0.37955 0.47816 0.0
O31 O 0.41783 0.40814 0.34958 0.0
O32 O 0.30855 0.51558 0.44245 0.0
O33 O 0.29375 0.34455 0.42136 0.0
C34 C 0.69619 0.34907 0.5046 0.0
C35 C 0.56636 0.48663 0.62466 0.0
C36 C 0.70377 0.57548 0.51682 0.0
C37 C 0.49243 0.43145 0.35408 0.0
C38 C 0.35333 0.56386 0.47075 0.0
C39 C 0.34959 0.33994 0.46289 0.0
O40 O 0.74434 0.39273 0.53619 0.0
O41 O 0.61878 0.36395 0.48508 0.0
O42 O 0.03088 0.92088 0.35432 0.0
Cd43 Cd 0.06248 0.92432 0.45018 0.0
O44 O 0.06315 0.02708 0.3666 0.0
Cd45 Cd 0.068 0.04309 0.45068 0.0
O46 O 0.96587 0.10313 0.48358 0.0
C47 C 0.89623 0.10789 0.45121 0.0
O48 O 0.88925 0.07195 0.40313 0.0
C49 C 0.03963 -0.02775 0.33559 0.0
C50 C 0.17042 0.8174 0.47108 0.0
O51 O 0.0878 0.81175 0.45855 0.0
O52 O 0.20357 0.8748 0.47538 0.0
O53 O 0.11607 0.05792 0.66964 0.0
Cd54 Cd 0.08411 0.06755 0.57747 0.0
O55 O 0.08437 -0.04038 0.62297 0.0
Cd56 Cd 0.03695 0.8605 0.58592 0.0
O57 O 0.94599 0.78788 0.53703 0.0
C58 C 0.86782 0.8069 0.52467 0.0
O59 O 0.84608 0.86994 0.54053 0.0
C60 C 0.10089 -0.0028 0.66846 0.0
C61 C 0.18544 0.15907 0.55292 0.0
O62 O 0.11416 0.17685 0.56993 0.0
O63 O 0.20896 0.09724 0.54776 0.0
O64 O 0.53346 0.42164 0.85357 0.0
Cd65 Cd 0.56294 0.41844 0.94797 0.0
O66 O 0.58053 0.52477 0.87186 0.0
Cd67 Cd 0.57369 0.53947 0.95468 0.0
O68 O 0.47364 0.6049 0.98556 0.0
C69 C 0.40747 0.61413 0.95187 0.0
O70 O 0.40239 0.58037 0.9032 0.0
C71 C 0.55252 0.47315 0.83805 0.0
C72 C 0.65887 0.3045 0.96796 0.0
O73 O 0.57562 0.30557 0.95979 0.0
O74 O 0.69744 0.35802 0.967 0.0
O75 O 0.59092 0.56859 0.17553 0.0
Cd76 Cd 0.56707 0.60125 0.09001 0.0
O77 O 0.56298 0.47383 0.12082 0.0
Cd78 Cd 0.52902 0.37089 0.08335 0.0
O79 O 0.44297 0.2917 0.03777 0.0
C80 C 0.36476 0.30697 0.02087 0.0
O81 O 0.33961 0.37014 0.0299 0.0
C82 C 0.57499 0.50668 0.16818 0.0
C83 C 0.6953 0.67236 0.06519 0.0
O84 O 0.6362 0.70241 0.08996 0.0
O85 O 0.6956 0.60811 0.05403 0.0
C86 C 0.28008 0.13264 0.97365 0.0
C87 C 0.20843 0.13585 -0.00043 0.0
C88 C 0.32582 0.19046 0.97547 0.0
C89 C 0.30053 0.25309 0.00283 0.0
H90 H 0.30735 0.08442 0.95762 0.0
H91 H 0.38573 0.1852 0.95964 0.0
S92 S 0.10614 0.28913 0.06719 0.0
N93 N 0.10587 0.20705 0.0457 0.0
N94 N 0.1906 0.31646 0.04834 0.0
C95 C 0.22183 0.25805 0.02228 0.0
C96 C 0.17578 0.19896 0.02075 0.0
C97 C 0.30494 0.76395 0.03076 0.0
C98 C 0.24202 0.78644 -0.00721 0.0
C99 C 0.3547 0.70614 0.01759 0.0
C100 C 0.34423 0.66869 0.96572 0.0
H101 H 0.31754 0.79228 0.07091 0.0
H102 H 0.40401 0.69228 0.04811 0.0
S103 S 0.18308 0.70387 0.8523 0.0
N104 N 0.16747 0.76498 0.90198 0.0
N105 N 0.26148 0.65596 0.87663 0.0
C106 C 0.27823 0.68872 0.92776 0.0
C107 C 0.22694 0.74769 0.94145 0.0
C108 C 0.79796 0.82097 0.0352 0.0
C109 C 0.84303 0.79096 -0.00544 0.0
C110 C 0.75491 0.78187 0.06038 0.0
C111 C 0.75572 0.71135 0.04583 0.0
H112 H 0.79002 0.875 0.04467 0.0
H113 H 0.71669 0.80737 0.08932 0.0
S114 S 0.87529 0.60921 0.94606 0.0
N115 N 0.89322 0.68757 0.94396 0.0
N116 N 0.81444 0.6134 -0.0081 0.0
C117 C 0.80682 0.68086 0.00808 0.0
C118 C 0.84975 0.7209 0.98215 0.0
C119 C 0.84559 0.17754 0.97476 0.0
C120 C 0.80277 0.11797 0.97274 0.0
C121 C 0.79922 0.2385 0.97543 0.0
C122 C 0.70868 0.24195 0.9747 0.0
H123 H 0.91434 0.17641 0.97297 0.0
H124 H 0.83413 0.28257 0.97448 0.0
S125 S 0.57054 0.10149 0.97965 0.0
N126 N 0.66791 0.06717 0.97663 0.0
N127 N 0.58098 0.18146 0.97929 0.0
C128 C 0.66685 0.18336 0.97682 0.0
C129 C 0.71383 0.12141 0.97542 0.0
C130 C 0.77575 0.63711 0.46673 0.0
C131 C 0.71025 0.63614 0.49668 0.0
C132 C 0.82085 0.69596 0.47096 0.0
C133 C 0.80098 0.75537 0.50494 0.0
H134 H 0.7997 0.59056 0.44533 0.0
H135 H 0.87705 0.69327 0.45172 0.0
S136 S 0.62345 0.78098 0.58366 0.0
N137 N 0.61867 0.70087 0.5548 0.0
N138 N 0.70241 0.81222 0.5623 0.0
C139 C 0.72756 0.7571 0.52917 0.0
C140 C 0.68208 0.69698 0.52502 0.0
C141 C 0.7935 0.2574 0.52964 0.0
C142 C 0.7327 0.28093 0.49119 0.0
C143 C 0.84182 0.19874 0.51689 0.0
C144 C 0.83192 0.1615 0.46498 0.0
H145 H 0.80627 0.28599 0.56971 0.0
H146 H 0.89019 0.18432 0.54763 0.0
S147 S 0.67465 0.19862 0.35069 0.0
N148 N 0.65953 0.26022 0.40015 0.0
N149 N 0.75086 0.14945 0.37552 0.0
C150 C 0.76703 0.18208 0.4267 0.0
C151 C 0.71723 0.24198 0.43997 0.0
C152 C 0.34839 0.22987 0.48861 0.0
C153 C 0.32586 0.29817 0.49677 0.0
C154 C 0.3053 0.18544 0.50917 0.0
C155 C 0.23722 0.20796 0.53749 0.0
H156 H 0.39596 0.21016 0.46381 0.0
H157 H 0.32255 0.13268 0.50046 0.0
S158 S 0.15658 0.38358 0.56995 0.0
N159 N 0.23462 0.38715 0.53593 0.0
N160 N 0.15252 0.30427 0.57419 0.0
C161 C 0.21671 0.27693 0.54735 0.0
C162 C 0.26133 0.32189 0.52698 0.0
C163 C 0.33069 0.6849 0.51535 0.0
C164 C 0.31535 0.63189 0.47112 0.0
C165 C 0.28596 0.74686 0.51527 0.0
C166 C 0.22507 0.75663 0.47109 0.0
H167 H 0.37477 0.67773 0.55048 0.0
H168 H 0.29655 0.78617 0.55032 0.0
S169 S 0.17486 0.63877 0.34274 0.0
N170 N 0.24475 0.5977 0.37975 0.0
N171 N 0.16031 0.71233 0.3806 0.0
C172 C 0.2137 0.70564 0.42605 0.0
C173 C 0.25909 0.6437 0.4258 0.0
C174 C 0.0425 0.91204 0.18972 0.0
C175 C 0.01929 -0.02937 0.17005 0.0
C176 C 0.04363 0.91118 0.243 0.0
C177 C 0.02303 -0.03064 0.27816 0.0
H178 H 0.06655 0.86836 0.16481 0.0
H179 H 0.06669 0.86634 0.2574 0.0
S180 S 0.94485 0.13193 0.24354 0.0
N181 N 0.96589 0.08526 0.18777 0.0
N182 N 0.96712 0.08409 0.28777 0.0
C183 C 0.99297 0.02645 0.25775 0.0
C184 C 0.99143 0.027 0.20365 0.0
C185 C 0.06068 0.00878 0.80792 0.0
C186 C 0.04892 0.94188 0.8102 0.0
C187 C 0.08073 0.02547 0.76251 0.0
C188 C 0.09083 -0.02416 0.71775 0.0
H189 H 0.04956 0.04885 0.84036 0.0
H190 H 0.08483 0.07812 0.76192 0.0
S191 S 0.08504 0.79206 0.70914 0.0
N192 N 0.05903 0.82509 0.76729 0.0
N193 N 0.10191 0.856 0.68288 0.0
C194 C 0.08614 0.90828 0.72144 0.0
C195 C 0.06378 0.89142 0.76741 0.0
C196 C 0.54674 0.54108 0.71443 0.0
C197 C 0.53849 0.48342 0.67436 0.0
C198 C 0.54744 0.53714 0.76676 0.0
C199 C 0.54128 0.47512 0.78127 0.0
H200 H 0.55755 0.58923 0.70559 0.0
H201 H 0.55633 0.58308 0.79628 0.0
S202 S 0.51277 0.30963 0.68976 0.0
N203 N 0.51881 0.36303 0.65129 0.0
N204 N 0.52047 0.35498 0.75015 0.0
C205 C 0.5279 0.41733 0.74095 0.0
C206 C 0.52647 0.42164 0.68732 0.0
C207 C 0.59132 0.48424 0.30906 0.0
C208 C 0.52326 0.4402 0.30563 0.0
C209 C 0.61052 0.50261 0.26386 0.0
C210 C 0.56314 0.47726 0.21343 0.0
H211 H 0.62724 0.50741 0.3471 0.0
H212 H 0.66103 0.53886 0.26867 0.0
S213 S 0.38121 0.35771 0.18252 0.0
N214 N 0.41185 0.36834 0.24688 0.0
N215 N 0.44602 0.40494 0.16288 0.0
C216 C 0.4975 0.43099 0.20919 0.0
C217 C 0.47814 0.41195 0.25504 0.0
loop_
_geom_bond_atom_site_label_1
_geom_bond_atom_site_label_2
_geom_bond_distance
_geom_bond_site_symmetry_2
_ccdc_geom_bond_type
O0 Mg1 1.990 . S
O0 C14 1.253 . S
Mg1 O0 1.990 . S
Mg1 O4 2.180 . S
Mg1 O5 2.117 . S
Mg1 O19 2.030 1_545 S
O2 Mg3 2.072 1_554 S
O2 C14 1.260 . S
Mg3 O2 2.072 1_556 S
Mg3 O4 2.099 1_556 S
Mg3 O6 2.079 . S
Mg3 O7 2.072 1_456 S
Mg3 O9 2.099 1_445 S
Mg3 O20 2.079 1_545 S
O4 Mg1 2.180 . S
O4 Mg3 2.099 1_554 S
O4 C15 1.279 . S
O5 Mg1 2.117 . S
O5 C15 1.250 . S
O6 Mg3 2.079 . S
O6 C16 1.264 . S
O7 Mg3 2.072 1_654 S
O7 C17 1.260 1_554 S
Mg8 O9 2.180 . S
Mg8 O10 2.030 1_565 S
Mg8 O11 1.990 1_565 S
Mg8 O12 2.117 . S
O9 Mg3 2.099 1_665 S
O9 Mg8 2.180 . S
O9 C18 1.279 . S
O10 Mg8 2.030 1_545 S
O10 C16 1.248 1_655 S
O11 Mg8 1.990 1_545 S
O11 C17 1.253 . S
O12 Mg8 2.117 . S
O12 C18 1.250 . S
C13 O19 1.248 . S
C13 O20 1.264 1_554 S
C14 O0 1.253 . S
C14 O2 1.260 . S
C15 O4 1.279 . S
C15 O5 1.250 . S
C16 O6 1.264 . S
C16 O10 1.248 1_455 S
C17 O7 1.260 1_556 S
C17 O11 1.253 . S
C18 O9 1.279 . S
C18 O12 1.250 . S
O19 Mg1 2.030 1_565 S
O19 C13 1.248 . S
O20 Mg3 2.079 1_565 S
O20 C13 1.264 1_556 S
O21 Mg22 1.990 . S
O21 C35 1.253 . S
Mg22 O21 1.990 . S
Mg22 O25 2.180 . S
Mg22 O26 2.117 . S
Mg22 O40 2.030 . S
O23 Mg24 2.072 . S
O23 C35 1.260 . S
Mg24 O23 2.072 . S
Mg24 O25 2.099 . S
Mg24 O27 2.079 . S
Mg24 O28 2.072 . S
Mg24 O30 2.099 . S
Mg24 O41 2.079 . S
O25 Mg22 2.180 . S
O25 Mg24 2.099 . S
O25 C36 1.279 . S
O26 Mg22 2.117 . S
O26 C36 1.250 . S
O27 Mg24 2.079 . S
O27 C37 1.264 . S
O28 Mg24 2.072 . S
O28 C38 1.260 . S
Mg29 O30 2.180 . S
Mg29 O31 2.030 . S
Mg29 O32 1.990 . S
Mg29 O33 2.117 . S
O30 Mg24 2.099 . S
O30 Mg29 2.180 . S
O30 C39 1.279 . S
O31 Mg29 2.030 . S
O31 C37 1.248 . S
O32 Mg29 1.990 . S
O32 C38 1.253 . S
O33 Mg29 2.117 . S
O33 C39 1.250 . S
C34 O40 1.248 . S
C34 O41 1.264 . S
C35 O21 1.253 . S
C35 O23 1.260 . S
C36 O25 1.279 . S
C36 O26 1.250 . S
C37 O27 1.264 . S
C37 O31 1.248 . S
C38 O28 1.260 . S
C38 O32 1.253 . S
C39 O30 1.279 . S
C39 O33 1.250 . S
O40 Mg22 2.030 . S
O40 C34 1.248 . S
O41 Mg24 2.079 . S
O41 C34 1.264 . S
O42 Cd43 2.300 . S
O42 C49 1.275 1_565 S
Cd43 O42 2.300 . S
Cd43 O51 2.381 . S
Cd43 O52 2.378 . S
O44 Cd45 2.385 . S
O44 C49 1.255 . S
Cd45 O44 2.385 . S
Cd45 O46 2.317 1_455 S
O46 Cd45 2.317 1_655 S
O46 C47 1.232 . S
C47 O46 1.232 . S
C47 O48 1.218 . S
O48 C47 1.218 . S
C49 O42 1.275 1_545 S
C49 O44 1.255 . S
C50 O51 1.258 . S
C50 O52 1.256 . S
O51 Cd43 2.381 . S
O51 C50 1.258 . S
O52 Cd43 2.378 . S
O52 C50 1.256 . S
O53 Cd54 2.300 . S
O53 C60 1.275 . S
Cd54 O53 2.300 . S
Cd54 O62 2.381 . S
Cd54 O63 2.378 . S
O55 Cd56 2.385 . S
O55 C60 1.255 1_565 S
Cd56 O55 2.385 . S
Cd56 O57 2.317 1_455 S
O57 Cd56 2.317 1_655 S
O57 C58 1.232 . S
C58 O57 1.232 . S
C58 O59 1.218 . S
O59 C58 1.218 . S
C60 O53 1.275 . S
C60 O55 1.255 1_545 S
C61 O62 1.258 . S
C61 O63 1.256 . S
O62 Cd54 2.381 . S
O62 C61 1.258 . S
O63 Cd54 2.378 . S
O63 C61 1.256 . S
O64 Cd65 2.300 . S
O64 C71 1.275 . S
Cd65 O64 2.300 . S
Cd65 O73 2.381 . S
Cd65 O74 2.378 1_556 S
O66 Cd67 2.385 . S
O66 C71 1.255 . S
Cd67 O66 2.385 . S
Cd67 O68 2.317 . S
O68 Cd67 2.317 . S
O68 C69 1.232 . S
C69 O68 1.232 . S
C69 O70 1.218 . S
O70 C69 1.218 . S
C71 O64 1.275 . S
C71 O66 1.255 . S
C72 O73 1.258 . S
C72 O74 1.256 1_556 S
O73 Cd65 2.381 . S
O73 C72 1.258 . S
O74 Cd65 2.378 1_554 S
O74 C72 1.256 1_554 S
O75 Cd76 2.300 . S
O75 C82 1.275 . S
Cd76 O75 2.300 . S
Cd76 O84 2.381 . S
Cd76 O85 2.378 . S
O77 Cd78 2.385 . S
O77 C82 1.255 . S
Cd78 O77 2.385 . S
Cd78 O79 2.317 . S
O79 Cd78 2.317 . S
O79 C80 1.232 . S
C80 O79 1.232 . S
C80 O81 1.218 . S
O81 C80 1.218 . S
C82 O75 1.275 . S
C82 O77 1.255 . S
C83 O84 1.258 . S
C83 O85 1.256 . S
O84 Cd76 2.381 . S
O84 C83 1.258 . S
O85 Cd76 2.378 . S
O85 C83 1.256 . S
C86 C87 1.369 1_556 S
C86 C88 1.419 1_556 S
C86 H90 0.930 . S
C87 C86 1.369 1_554 S
C87 C96 1.429 . S
C88 C86 1.419 1_554 S
C88 C89 1.364 . S
C88 H91 0.928 1_554 S
C89 C88 1.364 . S
C89 C95 1.428 . S
H90 C86 0.930 . S
H91 C88 0.928 1_556 S
S92 N93 1.613 . S
S92 N94 1.610 . S
N93 S92 1.613 . S
N93 C96 1.350 . S
N94 S92 1.610 . S
N94 C95 1.351 . S
C95 C89 1.428 . S
C95 N94 1.351 . S
C95 C96 1.434 . S
C96 C87 1.429 . S
C96 N93 1.350 . S
C96 C95 1.434 . S
C97 C98 1.369 1_554 S
C97 C99 1.419 . S
C97 H101 0.930 . S
C98 C97 1.369 1_556 S
C98 C107 1.429 . S
C99 C97 1.419 . S
C99 C100 1.363 1_554 S
C99 H102 0.929 . S
C100 C99 1.363 1_556 S
C100 C106 1.428 . S
H101 C97 0.930 . S
H102 C99 0.929 . S
S103 N104 1.613 . S
S103 N105 1.610 . S
N104 S103 1.613 . S
N104 C107 1.350 . S
N105 S103 1.610 . S
N105 C106 1.351 . S
C106 C100 1.428 . S
C106 N105 1.351 . S
C106 C107 1.434 . S
C107 C98 1.429 . S
C107 N104 1.350 . S
C107 C106 1.434 . S
C108 C109 1.369 . S
C108 C110 1.419 . S
C108 H112 0.930 . S
C109 C108 1.369 . S
C109 C118 1.429 1_554 S
C110 C108 1.419 . S
C110 C111 1.363 . S
C110 H113 0.929 . S
C111 C110 1.363 . S
C111 C117 1.428 1_554 S
H112 C108 0.930 . S
H113 C110 0.929 . S
S114 N115 1.613 . S
S114 N116 1.610 . S
N115 S114 1.613 . S
N115 C118 1.350 . S
N116 S114 1.610 . S
N116 C117 1.351 . S
C117 C111 1.428 1_556 S
C117 N116 1.351 . S
C117 C118 1.434 . S
C118 C109 1.429 1_556 S
C118 N115 1.350 . S
C118 C117 1.434 . S
C119 C120 1.369 . S
C119 C121 1.419 . S
C119 H123 0.930 . S
C120 C119 1.369 . S
C120 C129 1.429 1_554 S
C121 C119 1.419 . S
C121 C122 1.363 1_554 S
C121 H124 0.929 . S
C122 C121 1.363 1_556 S
C122 C128 1.428 . S
H123 C119 0.930 . S
H124 C121 0.929 . S
S125 N126 1.613 . S
S125 N127 1.610 . S
N126 S125 1.613 . S
N126 C129 1.350 . S
N127 S125 1.610 . S
N127 C128 1.351 . S
C128 C122 1.428 . S
C128 N127 1.351 . S
C128 C129 1.434 . S
C129 C120 1.429 1_556 S
C129 N126 1.350 . S
C129 C128 1.434 . S
C130 C131 1.369 . S
C130 C132 1.419 . S
C130 H134 0.930 . S
C131 C130 1.369 . S
C131 C140 1.429 . S
C132 C130 1.419 . S
C132 C133 1.363 . S
C132 H135 0.929 . S
C133 C132 1.363 . S
C133 C139 1.428 . S
H134 C130 0.930 . S
H135 C132 0.929 . S
S136 N137 1.613 . S
S136 N138 1.610 . S
N137 S136 1.613 . S
N137 C140 1.350 . S
N138 S136 1.610 . S
N138 C139 1.351 . S
C139 C133 1.428 . S
C139 N138 1.351 . S
C139 C140 1.434 . S
C140 C131 1.429 . S
C140 N137 1.350 . S
C140 C139 1.434 . S
C141 C142 1.369 . S
C141 C143 1.419 . S
C141 H145 0.930 . S
C142 C141 1.369 . S
C142 C151 1.429 . S
C143 C141 1.419 . S
C143 C144 1.363 . S
C143 H146 0.929 . S
C144 C143 1.363 . S
C144 C150 1.428 . S
H145 C141 0.930 . S
H146 C143 0.929 . S
S147 N148 1.613 . S
S147 N149 1.610 . S
N148 S147 1.613 . S
N148 C151 1.350 . S
N149 S147 1.610 . S
N149 C150 1.351 . S
C150 C144 1.428 . S
C150 N149 1.351 . S
C150 C151 1.434 . S
C151 C142 1.429 . S
C151 N148 1.350 . S
C151 C150 1.434 . S
C152 C153 1.369 . S
C152 C154 1.419 . S
C152 H156 0.930 . S
C153 C152 1.369 . S
C153 C162 1.429 . S
C154 C152 1.419 . S
C154 C155 1.363 . S
C154 H157 0.929 . S
C155 C154 1.363 . S
C155 C161 1.428 . S
H156 C152 0.930 . S
H157 C154 0.929 . S
S158 N159 1.613 . S
S158 N160 1.610 . S
N159 S158 1.613 . S
N159 C162 1.350 . S
N160 S158 1.610 . S
N160 C161 1.351 . S
C161 C155 1.428 . S
C161 N160 1.351 . S
C161 C162 1.434 . S
C162 C153 1.429 . S
C162 N159 1.350 . S
C162 C161 1.434 . S
C163 C164 1.369 . S
C163 C165 1.419 . S
C163 H167 0.930 . S
C164 C163 1.369 . S
C164 C173 1.429 . S
C165 C163 1.419 . S
C165 C166 1.363 . S
C165 H168 0.929 . S
C166 C165 1.363 . S
C166 C172 1.428 . S
H167 C163 0.930 . S
H168 C165 0.929 . S
S169 N170 1.613 . S
S169 N171 1.610 . S
N170 S169 1.613 . S
N170 C173 1.350 . S
N171 S169 1.610 . S
N171 C172 1.351 . S
C172 C166 1.428 . S
C172 N171 1.351 . S
C172 C173 1.434 . S
C173 C164 1.429 . S
C173 N170 1.350 . S
C173 C172 1.434 . S
C174 C175 1.369 1_565 S
C174 C176 1.419 . S
C174 H178 0.930 . S
C175 C174 1.369 1_545 S
C175 C184 1.429 . S
C176 C174 1.419 . S
C176 C177 1.363 1_565 S
C176 H179 0.929 . S
C177 C176 1.363 1_545 S
C177 C183 1.426 1_455 S
H178 C174 0.930 . S
H179 C176 0.929 . S
S180 N181 1.613 . S
S180 N182 1.610 . S
N181 S180 1.613 . S
N181 C184 1.350 1_655 S
N182 S180 1.610 . S
N182 C183 1.354 . S
C183 C177 1.426 1_655 S
C183 N182 1.354 . S
C183 C184 1.434 1_655 S
C184 C175 1.429 . S
C184 N181 1.350 1_455 S
C184 C183 1.434 1_455 S
C185 C186 1.369 1_655 S
C185 C187 1.419 . S
C185 H189 0.930 . S
C186 C185 1.369 1_455 S
C186 C195 1.429 1_545 S
C187 C185 1.419 . S
C187 C188 1.363 1_655 S
C187 H190 0.929 . S
C188 C187 1.363 1_455 S
C188 C194 1.428 1_545 S
H189 C185 0.930 . S
H190 C187 0.929 . S
S191 N192 1.613 . S
S191 N193 1.610 . S
N192 S191 1.613 . S
N192 C195 1.350 . S
N193 S191 1.610 . S
N193 C194 1.351 . S
C194 C188 1.428 1_565 S
C194 N193 1.351 . S
C194 C195 1.434 . S
C195 C186 1.429 1_565 S
C195 N192 1.350 . S
C195 C194 1.434 . S
C196 C197 1.369 . S
C196 C198 1.419 . S
C196 H200 0.930 . S
C197 C196 1.369 . S
C197 C206 1.429 . S
C198 C196 1.419 . S
C198 C199 1.363 . S
C198 H201 0.929 . S
C199 C198 1.363 . S
C199 C205 1.428 . S
H200 C196 0.930 . S
H201 C198 0.929 . S
S202 N203 1.613 . S
S202 N204 1.610 . S
N203 S202 1.613 . S
N203 C206 1.350 . S
N204 S202 1.610 . S
N204 C205 1.351 . S
C205 C199 1.428 . S
C205 N204 1.351 . S
C205 C206 1.434 . S
C206 C197 1.429 . S
C206 N203 1.350 . S
C206 C205 1.434 . S
C207 C208 1.369 . S
C207 C209 1.419 . S
C207 H211 0.930 . S
C208 C207 1.369 . S
C208 C217 1.429 . S
C209 C207 1.419 . S
C209 C210 1.363 . S
C209 H212 0.929 . S
C210 C209 1.363 . S
C210 C216 1.428 . S
H211 C207 0.930 . S
H212 C209 0.929 . S
S213 N214 1.613 . S
S213 N215 1.610 . S
N214 S213 1.613 . S
N214 C217 1.350 . S
N215 S213 1.610 . S
N215 C216 1.351 . S
C216 C210 1.428 . S
C216 N215 1.351 . S
C216 C217 1.434 . S
C217 C208 1.429 . S
C217 N214 1.350 . S
C217 C216 1.434 . S
C89 C80 1.206 . S
C87 C15 1.324 . S
C98 C13 1.484 1_556 S
C100 C69 1.266 . S
C109 C18 1.289 1_554 S
C111 C83 1.453 . S
C120 C17 1.398 1_554 S
C122 C72 1.429 . S
C131 C36 1.321 . S
C133 C58 1.204 . S
C142 C34 1.484 . S
C144 C47 1.267 . S
C155 C61 1.454 . S
C153 C39 1.285 . S
C166 C50 1.427 . S
C164 C38 1.400 . S
C175 C14 1.508 . S
C177 C49 1.510 . S
C186 C16 1.388 . S
C188 C60 1.378 . S
C199 C71 1.510 . S
C197 C35 1.513 . S
C208 C37 1.382 . S
C210 C82 1.383 . S
