# Generated by pormake.
# Topology bcu-b, (8,8)-cn, num edge types: 1
# Building blocks:
#     Node 0, Type 0, BuildingBlock: VETTIZ_charged_sbu_0, # of connection points: 8
#     Node 1, Type 1, BuildingBlock: TAGTUT_clean_sbu_3, # of connection points: 8
#     Edge 2, Type (0, 1), BuildingBlock: CIFDUS_clean_linker_0, # of connection points: 2
#     Edge 3, Type (0, 1), BuildingBlock: CIFDUS_clean_linker_0, # of connection points: 2
#     Edge 4, Type (0, 1), BuildingBlock: CIFDUS_clean_linker_0, # of connection points: 2
#     Edge 5, Type (0, 1), BuildingBlock: CIFDUS_clean_linker_0, # of connection points: 2
#     Edge 6, Type (0, 1), BuildingBlock: CIFDUS_clean_linker_0, # of connection points: 2
#     Edge 7, Type (0, 1), BuildingBlock: CIFDUS_clean_linker_0, # of connection points: 2
#     Edge 8, Type (0, 1), BuildingBlock: CIFDUS_clean_linker_0, # of connection points: 2
#     Edge 9, Type (0, 1), BuildingBlock: CIFDUS_clean_linker_0, # of connection points: 2
# Relax obj value: 0.019
# Max RMSD: 0.097
# Mean RMSD: 0.073
data_MOF--net-bcu-b--node1-VETTIZ_charged_sbu_0--node2-TAGTUT_clean_sbu_3--edge1-CIFDUS_clean_linker_0
_symmetry_space_group_name_H-M    P1
_symmetry_Int_Tables_number       1
_symmetry_cell_setting            triclinic
loop_
_symmetry_equiv_pos_as_xyz
'x, y, z'
_cell_length_a     17.317034
_cell_length_b     17.264337
_cell_length_c     18.850579
_cell_angle_alpha  90.821277
_cell_angle_beta   90.931801
_cell_angle_gamma 101.47772
loop_
_atom_site_label
_atom_site_type_symbol
_atom_site_fract_x
_atom_site_fract_y
_atom_site_fract_z
_atom_type_partial_charge
Fe0 Fe 0.05078 0.85414 0.01403 0.0
O1 O 0.05995 0.9682 -4e-05 0.0
Fe2 Fe 0.01513 1.00468 0.90456 0.0
Fe3 Fe 0.01394 0.0366 0.06696 0.0
O4 O 0.0587 0.96606 -0.00697 0.0
O5 O 0.97027 0.07421 0.97143 0.0
O6 O 0.96962 0.07509 0.97854 0.0
Fe7 Fe 0.97976 0.18818 0.95837 0.0
C8 C 0.91168 0.8834 0.10157 0.0
O9 O 0.13159 0.89678 0.09343 0.0
O10 O 0.07156 0.98812 0.15064 0.0
O11 O 0.06826 0.1968 0.88478 0.0
O12 O 0.11746 0.08764 0.8948 0.0
O13 O 0.06811 0.9253 0.84629 0.0
O14 O 0.12721 0.8602 0.9311 0.0
O15 O 0.11501 0.12192 0.0629 0.0
O16 O 0.0628 0.2258 0.03714 0.0
C17 C 0.11533 0.87912 0.86605 0.0
O18 O 0.90454 0.14936 0.87431 0.0
O19 O 0.96398 0.05604 0.82002 0.0
O20 O 0.96742 0.84661 0.09175 0.0
O21 O 0.91343 0.95157 0.07639 0.0
C22 C 0.12495 0.94431 0.14607 0.0
C23 C 0.1176 0.19589 0.0643 0.0
C24 C 0.90412 0.15496 0.10263 0.0
O25 O 0.95456 0.1127 0.12465 0.0
O26 O 0.89877 0.17917 0.03806 0.0
C27 C 0.12156 0.15741 0.8721 0.0
O28 O 0.91278 0.92069 0.90847 0.0
O29 O 0.96222 0.8158 0.9388 0.0
C30 C 0.91787 0.10713 0.82007 0.0
C31 C 0.90908 0.84632 0.90865 0.0
C32 C 0.64877 0.62905 0.58798 0.0
C33 C 0.72841 0.35064 0.54578 0.0
C34 C 0.62717 0.35646 0.34422 0.0
Mg35 Mg 0.50258 0.69821 0.51499 0.0
Mg36 Mg 0.33845 0.57532 0.46718 0.0
O37 O 0.44749 0.60289 0.45885 0.0
Mg38 Mg 0.51408 0.52446 0.48466 0.0
O39 O 0.58789 0.4533 0.50976 0.0
Mg40 Mg 0.68566 0.50887 0.46215 0.0
Mg41 Mg 0.55719 0.3444 0.49123 0.0
C42 C 0.37226 0.42831 0.378 0.0
O43 O 0.42598 0.4515 0.56341 0.0
O44 O 0.41898 0.77063 0.4553 0.0
O45 O 0.44741 0.32718 0.5492 0.0
O46 O 0.41251 0.67855 0.60394 0.0
O47 O 0.30999 0.68017 0.42498 0.0
O48 O 0.3091 0.58257 0.5762 0.0
O49 O 0.60695 0.58772 0.40891 0.0
O50 O 0.59126 0.71217 0.42512 0.0
C51 C 0.62507 0.66147 0.39439 0.0
C52 C 0.34908 0.75135 0.42749 0.0
O53 O 0.44528 0.4406 0.39766 0.0
O54 O 0.75033 0.42092 0.5216 0.0
O55 O 0.32299 0.46837 0.40221 0.0
O56 O 0.66951 0.42165 0.36676 0.0
O57 O 0.65708 0.3125 0.5411 0.0
O58 O 0.5719 0.31737 0.38098 0.0
O59 O 0.57578 0.61426 0.5689 0.0
O60 O 0.69851 0.59372 0.5583 0.0
C61 C 0.34691 0.63446 0.61949 0.0
C62 C 0.40979 0.37692 0.57699 0.0
H63 H 0.21573 0.15485 0.16685 0.0
H64 H 0.15779 0.35561 0.05886 0.0
H65 H 0.23854 0.44516 0.14379 0.0
H66 H 0.31078 0.46619 0.25662 0.0
H67 H 0.37169 0.26933 0.3667 0.0
H68 H 0.30507 0.1781 0.27282 0.0
C69 C 0.22221 0.21822 0.16104 0.0
C70 C 0.17945 0.24841 0.10729 0.0
C71 C 0.26826 0.26987 0.21092 0.0
C72 C 0.18886 0.3307 0.10034 0.0
C73 C 0.23495 0.38209 0.14896 0.0
C74 C 0.31033 0.40332 0.25933 0.0
C75 C 0.34454 0.37378 0.3183 0.0
C76 C 0.27235 0.35222 0.20574 0.0
C77 C 0.34512 0.29279 0.32148 0.0
C78 C 0.30686 0.24092 0.26808 0.0
H79 H 0.82264 0.27314 0.08879 0.0
H80 H 0.85894 0.08953 0.23139 0.0
H81 H 0.76466 0.12826 0.31357 0.0
H82 H 0.6785 0.22 0.34809 0.0
H83 H 0.65316 0.41056 0.21021 0.0
H84 H 0.73469 0.36181 0.12144 0.0
C85 C 0.80978 0.24101 0.1376 0.0
C86 C 0.84825 0.1785 0.15387 0.0
C87 C 0.75642 0.2642 0.18478 0.0
C88 C 0.83099 0.1383 0.21777 0.0
C89 C 0.77663 0.16008 0.26453 0.0
C90 C 0.68881 0.24905 0.29746 0.0
C91 C 0.65812 0.31723 0.28433 0.0
C92 C 0.73946 0.22333 0.2488 0.0
C93 C 0.67455 0.35679 0.22026 0.0
C94 C 0.72196 0.32952 0.17015 0.0
H95 H 0.8845 0.73714 0.15984 0.0
H96 H 0.79685 0.95459 0.15501 0.0
H97 H 0.70131 0.9046 0.24525 0.0
H98 H 0.64605 0.80192 0.32822 0.0
H99 H 0.73125 0.58337 0.33299 0.0
H100 H 0.82481 0.63144 0.23987 0.0
C101 C 0.84415 0.77349 0.17808 0.0
C102 C 0.84828 0.84978 0.15075 0.0
C103 C 0.78946 0.74452 0.23031 0.0
C104 C 0.79511 0.89571 0.17486 0.0
C105 C 0.74063 0.86731 0.22678 0.0
C106 C 0.68524 0.76469 0.30926 0.0
C107 C 0.68223 0.6894 0.3382 0.0
C108 C 0.73805 0.79232 0.25545 0.0
C109 C 0.73258 0.64163 0.31194 0.0
C110 C 0.78601 0.6691 0.25866 0.0
H111 H 0.09385 0.90536 0.28287 0.0
H112 H 0.28323 0.97823 0.13816 0.0
H113 H 0.37695 0.93881 0.22192 0.0
H114 H 0.39865 0.85814 0.32469 0.0
H115 H 0.20602 0.77509 0.46379 0.0
H116 H 0.12073 0.84462 0.39562 0.0
C117 C 0.15619 0.91542 0.27127 0.0
C118 C 0.18195 0.94447 0.20488 0.0
C119 C 0.20906 0.88923 0.31841 0.0
C120 C 0.26249 0.95596 0.18934 0.0
C121 C 0.31592 0.93283 0.23693 0.0
C122 C 0.33895 0.85801 0.34133 0.0
C123 C 0.30833 0.81164 0.39871 0.0
C124 C 0.28916 0.89559 0.30002 0.0
C125 C 0.2305 0.81051 0.41944 0.0
C126 C 0.18158 0.84983 0.38027 0.0
H127 H 0.24067 0.80804 0.8822 0.0
H128 H 0.07008 0.854 0.72669 0.0
H129 H 0.12023 0.77094 0.63989 0.0
H130 H 0.21365 0.6873 0.6078 0.0
H131 H 0.3914 0.65067 0.75908 0.0
H132 H 0.33511 0.7256 0.84965 0.0
C133 C 0.21452 0.80014 0.82925 0.0
C134 C 0.15175 0.83729 0.81094 0.0
C135 C 0.24349 0.75232 0.7798 0.0
C136 C 0.11903 0.82692 0.74194 0.0
C137 C 0.14699 0.77866 0.69257 0.0
C138 C 0.23832 0.69382 0.66138 0.0
C139 C 0.30455 0.66173 0.67817 0.0
C140 C 0.20873 0.74073 0.71115 0.0
C141 C 0.33889 0.67325 0.74627 0.0
C142 C 0.30747 0.71692 0.79737 0.0
H143 H 0.14438 0.30011 0.80691 0.0
H144 H 0.24023 0.08815 0.82305 0.0
H145 H 0.33574 0.13665 0.73219 0.0
H146 H 0.3901 0.23732 0.6463 0.0
H147 H 0.29558 0.44956 0.63081 0.0
H148 H 0.20114 0.40247 0.72295 0.0
C149 C 0.18655 0.26464 0.79118 0.0
C150 C 0.18485 0.19043 0.82218 0.0
C151 C 0.24107 0.29256 0.7384 0.0
C152 C 0.24008 0.14553 0.80061 0.0
C153 C 0.29457 0.17305 0.74826 0.0
C154 C 0.34854 0.27326 0.66255 0.0
C155 C 0.34979 0.34705 0.63092 0.0
C156 C 0.29504 0.24605 0.71628 0.0
C157 C 0.29609 0.39285 0.65384 0.0
C158 C 0.24205 0.36585 0.70674 0.0
H159 H 0.96482 0.24678 0.76136 0.0
H160 H 0.80602 0.02244 0.73 0.0
H161 H 0.73886 0.0775 0.63265 0.0
H162 H 0.71439 0.19449 0.57053 0.0
H163 H 0.8701 0.42067 0.60684 0.0
H164 H 0.95112 0.35947 0.68774 0.0
C165 C 0.91661 0.20971 0.73178 0.0
C166 C 0.88941 0.13131 0.7522 0.0
C167 C 0.87769 0.24234 0.6778 0.0
C168 C 0.82751 0.08294 0.71435 0.0
C169 C 0.78901 0.11465 0.65939 0.0
C170 C 0.7666 0.23033 0.59548 0.0
C171 C 0.78531 0.3124 0.58409 0.0
C172 C 0.81173 0.19509 0.64281 0.0
C173 C 0.85412 0.35762 0.61529 0.0
C174 C 0.90019 0.32273 0.66174 0.0
H175 H 0.80199 0.88854 0.81437 0.0
H176 H 0.8802 0.68557 0.89988 0.0
H177 H 0.80046 0.60022 0.8115 0.0
H178 H 0.7214 0.58469 0.70183 0.0
H179 H 0.63916 0.78366 0.61516 0.0
H180 H 0.70697 0.8691 0.71227 0.0
C181 C 0.80039 0.82544 0.81464 0.0
C182 C 0.84839 0.79403 0.86341 0.0
C183 C 0.75432 0.77606 0.76294 0.0
C184 C 0.84495 0.7119 0.86281 0.0
C185 C 0.79939 0.66279 0.81205 0.0
C186 C 0.71724 0.64656 0.70505 0.0
C187 C 0.67619 0.67834 0.65156 0.0
C188 C 0.75598 0.69455 0.76063 0.0
C189 C 0.67041 0.75817 0.65612 0.0
C190 C 0.70954 0.80689 0.71134 0.0
loop_
_geom_bond_atom_site_label_1
_geom_bond_atom_site_label_2
_geom_bond_distance
_geom_bond_site_symmetry_2
_ccdc_geom_bond_type
Fe0 O1 1.894 . S
Fe0 O4 1.707 1_554 S
Fe0 O9 2.085 1_655 S
Fe0 O14 1.929 1_654 S
Fe0 O20 2.084 . S
Fe0 O29 1.929 1_554 S
O1 Fe0 1.894 . S
O1 Fe3 1.715 1_665 S
Fe2 O4 1.886 1_445 S
Fe2 O5 1.715 . S
Fe2 O12 1.935 . S
Fe2 O13 2.077 1_545 S
Fe2 O19 1.935 1_455 S
Fe2 O28 2.077 1_445 S
Fe3 O1 1.715 1_445 S
Fe3 O6 1.886 . S
Fe3 O10 1.935 1_545 S
Fe3 O15 2.077 . S
Fe3 O21 1.935 1_445 S
Fe3 O25 2.077 1_455 S
O4 Fe0 1.707 1_556 S
O4 Fe2 1.886 1_665 S
O5 Fe2 1.715 . S
O5 Fe7 1.888 . S
O6 Fe3 1.886 . S
O6 Fe7 1.713 1_554 S
Fe7 O5 1.888 . S
Fe7 O6 1.713 1_556 S
Fe7 O11 2.079 . S
Fe7 O16 1.934 1_556 S
Fe7 O18 2.079 1_455 S
Fe7 O26 1.934 1_456 S
C8 O20 1.381 . S
C8 O21 1.421 . S
O9 Fe0 2.085 1_455 S
O9 C22 1.381 . S
O10 Fe3 1.935 1_565 S
O10 C22 1.421 . S
O11 Fe7 2.079 . S
O11 C27 1.381 . S
O12 Fe2 1.935 . S
O12 C27 1.421 . S
O13 Fe2 2.077 1_565 S
O13 C17 1.381 . S
O14 Fe0 1.929 1_456 S
O14 C17 1.421 . S
O15 Fe3 2.077 . S
O15 C23 1.381 . S
O16 Fe7 1.934 1_554 S
O16 C23 1.421 . S
C17 O13 1.381 . S
C17 O14 1.421 . S
O18 Fe7 2.079 1_655 S
O18 C30 1.381 . S
O19 Fe2 1.935 1_655 S
O19 C30 1.421 . S
O20 Fe0 2.084 . S
O20 C8 1.381 . S
O21 Fe3 1.935 1_665 S
O21 C8 1.421 . S
C22 O9 1.381 . S
C22 O10 1.421 . S
C23 O15 1.381 . S
C23 O16 1.421 . S
C24 O25 1.381 . S
C24 O26 1.421 . S
O25 Fe3 2.077 1_655 S
O25 C24 1.381 . S
O26 Fe7 1.934 1_654 S
O26 C24 1.421 . S
C27 O11 1.381 . S
C27 O12 1.421 . S
O28 Fe2 2.077 1_665 S
O28 C31 1.381 . S
O29 Fe0 1.929 1_556 S
O29 C31 1.421 . S
C30 O18 1.381 . S
C30 O19 1.421 . S
C31 O28 1.381 . S
C31 O29 1.421 . S
C32 O59 1.312 . S
C32 O60 1.208 . S
C33 O54 1.331 . S
C33 O57 1.244 . S
C34 O56 1.264 . S
C34 O58 1.273 . S
Mg35 O37 1.936 . S
Mg35 O44 2.081 . S
Mg35 O46 2.023 . S
Mg35 O50 2.031 . S
Mg35 O59 2.291 . S
Mg36 O37 1.963 . S
Mg36 O47 1.942 . S
Mg36 O48 1.955 . S
Mg36 O55 1.986 . S
O37 Mg35 1.936 . S
O37 Mg36 1.963 . S
O37 Mg38 1.915 . S
Mg38 O37 1.915 . S
Mg38 O39 1.915 . S
Mg38 O43 2.013 . S
Mg38 O49 2.114 . S
Mg38 O53 2.013 . S
Mg38 O59 2.114 . S
O39 Mg38 1.915 . S
O39 Mg40 1.936 . S
O39 Mg41 1.963 . S
Mg40 O39 1.936 . S
Mg40 O49 2.291 . S
Mg40 O54 2.081 . S
Mg40 O56 2.023 . S
Mg40 O60 2.031 . S
Mg41 O39 1.963 . S
Mg41 O45 1.986 . S
Mg41 O57 1.942 . S
Mg41 O58 1.955 . S
C42 O53 1.191 . S
C42 O55 1.307 . S
O43 Mg38 2.013 . S
O43 C62 1.191 . S
O44 Mg35 2.081 . S
O44 C52 1.331 . S
O45 Mg41 1.986 . S
O45 C62 1.307 . S
O46 Mg35 2.023 . S
O46 C61 1.264 . S
O47 Mg36 1.942 . S
O47 C52 1.244 . S
O48 Mg36 1.955 . S
O48 C61 1.273 . S
O49 Mg38 2.114 . S
O49 Mg40 2.291 . S
O49 C51 1.312 . S
O50 Mg35 2.031 . S
O50 C51 1.208 . S
C51 O49 1.312 . S
C51 O50 1.208 . S
C52 O44 1.331 . S
C52 O47 1.244 . S
O53 Mg38 2.013 . S
O53 C42 1.191 . S
O54 C33 1.331 . S
O54 Mg40 2.081 . S
O55 Mg36 1.986 . S
O55 C42 1.307 . S
O56 C34 1.264 . S
O56 Mg40 2.023 . S
O57 C33 1.244 . S
O57 Mg41 1.942 . S
O58 C34 1.273 . S
O58 Mg41 1.955 . S
O59 C32 1.312 . S
O59 Mg35 2.291 . S
O59 Mg38 2.114 . S
O60 C32 1.208 . S
O60 Mg40 2.031 . S
C61 O46 1.264 . S
C61 O48 1.273 . S
C62 O43 1.191 . S
C62 O45 1.307 . S
H63 C69 0.930 . S
H64 C72 0.930 . S
H65 C73 0.930 . S
H66 C74 0.930 . S
H67 C77 0.930 . S
H68 C78 0.930 . S
C69 H63 0.930 . S
C69 C70 1.355 . S
C69 C71 1.415 . S
C70 C69 1.355 . S
C70 C72 1.419 . S
C71 C69 1.415 . S
C71 C76 1.425 . S
C71 C78 1.409 . S
C72 H64 0.930 . S
C72 C70 1.419 . S
C72 C73 1.362 . S
C73 H65 0.930 . S
C73 C72 1.362 . S
C73 C76 1.409 . S
C74 H66 0.930 . S
C74 C75 1.355 . S
C74 C76 1.415 . S
C75 C74 1.355 . S
C75 C77 1.419 . S
C76 C71 1.425 . S
C76 C73 1.409 . S
C76 C74 1.415 . S
C77 H67 0.930 . S
C77 C75 1.419 . S
C77 C78 1.362 . S
C78 H68 0.930 . S
C78 C71 1.409 . S
C78 C77 1.362 . S
H79 C85 0.930 . S
H80 C88 0.930 . S
H81 C89 0.930 . S
H82 C90 0.930 . S
H83 C93 0.930 . S
H84 C94 0.930 . S
C85 H79 0.930 . S
C85 C86 1.355 . S
C85 C87 1.415 . S
C86 C85 1.355 . S
C86 C88 1.419 . S
C87 C85 1.415 . S
C87 C92 1.425 . S
C87 C94 1.409 . S
C88 H80 0.930 . S
C88 C86 1.419 . S
C88 C89 1.362 . S
C89 H81 0.930 . S
C89 C88 1.362 . S
C89 C92 1.409 . S
C90 H82 0.930 . S
C90 C91 1.355 . S
C90 C92 1.415 . S
C91 C90 1.355 . S
C91 C93 1.419 . S
C92 C87 1.425 . S
C92 C89 1.409 . S
C92 C90 1.415 . S
C93 H83 0.930 . S
C93 C91 1.419 . S
C93 C94 1.362 . S
C94 H84 0.930 . S
C94 C87 1.409 . S
C94 C93 1.362 . S
H95 C101 0.930 . S
H96 C104 0.930 . S
H97 C105 0.930 . S
H98 C106 0.930 . S
H99 C109 0.930 . S
H100 C110 0.930 . S
C101 H95 0.930 . S
C101 C102 1.355 . S
C101 C103 1.415 . S
C102 C101 1.355 . S
C102 C104 1.419 . S
C103 C101 1.415 . S
C103 C108 1.425 . S
C103 C110 1.409 . S
C104 H96 0.930 . S
C104 C102 1.419 . S
C104 C105 1.362 . S
C105 H97 0.930 . S
C105 C104 1.362 . S
C105 C108 1.409 . S
C106 H98 0.930 . S
C106 C107 1.355 . S
C106 C108 1.415 . S
C107 C106 1.355 . S
C107 C109 1.419 . S
C108 C103 1.425 . S
C108 C105 1.409 . S
C108 C106 1.415 . S
C109 H99 0.930 . S
C109 C107 1.419 . S
C109 C110 1.362 . S
C110 H100 0.930 . S
C110 C103 1.409 . S
C110 C109 1.362 . S
H111 C117 0.930 . S
H112 C120 0.930 . S
H113 C121 0.930 . S
H114 C122 0.930 . S
H115 C125 0.930 . S
H116 C126 0.930 . S
C117 H111 0.930 . S
C117 C118 1.355 . S
C117 C119 1.415 . S
C118 C117 1.355 . S
C118 C120 1.419 . S
C119 C117 1.415 . S
C119 C124 1.425 . S
C119 C126 1.409 . S
C120 H112 0.930 . S
C120 C118 1.419 . S
C120 C121 1.362 . S
C121 H113 0.930 . S
C121 C120 1.362 . S
C121 C124 1.409 . S
C122 H114 0.930 . S
C122 C123 1.355 . S
C122 C124 1.415 . S
C123 C122 1.355 . S
C123 C125 1.419 . S
C124 C119 1.425 . S
C124 C121 1.409 . S
C124 C122 1.415 . S
C125 H115 0.930 . S
C125 C123 1.419 . S
C125 C126 1.362 . S
C126 H116 0.930 . S
C126 C119 1.409 . S
C126 C125 1.362 . S
H127 C133 0.930 . S
H128 C136 0.930 . S
H129 C137 0.930 . S
H130 C138 0.930 . S
H131 C141 0.930 . S
H132 C142 0.930 . S
C133 H127 0.930 . S
C133 C134 1.355 . S
C133 C135 1.415 . S
C134 C133 1.355 . S
C134 C136 1.419 . S
C135 C133 1.415 . S
C135 C140 1.425 . S
C135 C142 1.409 . S
C136 H128 0.930 . S
C136 C134 1.419 . S
C136 C137 1.362 . S
C137 H129 0.930 . S
C137 C136 1.362 . S
C137 C140 1.409 . S
C138 H130 0.930 . S
C138 C139 1.355 . S
C138 C140 1.415 . S
C139 C138 1.355 . S
C139 C141 1.419 . S
C140 C135 1.425 . S
C140 C137 1.409 . S
C140 C138 1.415 . S
C141 H131 0.930 . S
C141 C139 1.419 . S
C141 C142 1.362 . S
C142 H132 0.930 . S
C142 C135 1.409 . S
C142 C141 1.362 . S
H143 C149 0.930 . S
H144 C152 0.930 . S
H145 C153 0.930 . S
H146 C154 0.930 . S
H147 C157 0.930 . S
H148 C158 0.930 . S
C149 H143 0.930 . S
C149 C150 1.355 . S
C149 C151 1.415 . S
C150 C149 1.355 . S
C150 C152 1.419 . S
C151 C149 1.415 . S
C151 C156 1.425 . S
C151 C158 1.409 . S
C152 H144 0.930 . S
C152 C150 1.419 . S
C152 C153 1.362 . S
C153 H145 0.930 . S
C153 C152 1.362 . S
C153 C156 1.409 . S
C154 H146 0.930 . S
C154 C155 1.355 . S
C154 C156 1.415 . S
C155 C154 1.355 . S
C155 C157 1.419 . S
C156 C151 1.425 . S
C156 C153 1.409 . S
C156 C154 1.415 . S
C157 H147 0.930 . S
C157 C155 1.419 . S
C157 C158 1.362 . S
C158 H148 0.930 . S
C158 C151 1.409 . S
C158 C157 1.362 . S
H159 C165 0.930 . S
H160 C168 0.930 . S
H161 C169 0.930 . S
H162 C170 0.930 . S
H163 C173 0.930 . S
H164 C174 0.930 . S
C165 H159 0.930 . S
C165 C166 1.355 . S
C165 C167 1.415 . S
C166 C165 1.355 . S
C166 C168 1.419 . S
C167 C165 1.415 . S
C167 C172 1.425 . S
C167 C174 1.409 . S
C168 H160 0.930 . S
C168 C166 1.419 . S
C168 C169 1.362 . S
C169 H161 0.930 . S
C169 C168 1.362 . S
C169 C172 1.409 . S
C170 H162 0.930 . S
C170 C171 1.355 . S
C170 C172 1.415 . S
C171 C170 1.355 . S
C171 C173 1.419 . S
C172 C167 1.425 . S
C172 C169 1.409 . S
C172 C170 1.415 . S
C173 H163 0.930 . S
C173 C171 1.419 . S
C173 C174 1.362 . S
C174 H164 0.930 . S
C174 C167 1.409 . S
C174 C173 1.362 . S
H175 C181 0.930 . S
H176 C184 0.930 . S
H177 C185 0.930 . S
H178 C186 0.930 . S
H179 C189 0.930 . S
H180 C190 0.930 . S
C181 H175 0.930 . S
C181 C182 1.355 . S
C181 C183 1.415 . S
C182 C181 1.355 . S
C182 C184 1.419 . S
C183 C181 1.415 . S
C183 C188 1.425 . S
C183 C190 1.409 . S
C184 H176 0.930 . S
C184 C182 1.419 . S
C184 C185 1.362 . S
C185 H177 0.930 . S
C185 C184 1.362 . S
C185 C188 1.409 . S
C186 H178 0.930 . S
C186 C187 1.355 . S
C186 C188 1.415 . S
C187 C186 1.355 . S
C187 C189 1.419 . S
C188 C183 1.425 . S
C188 C185 1.409 . S
C188 C186 1.415 . S
C189 H179 0.930 . S
C189 C187 1.419 . S
C189 C190 1.362 . S
C190 H180 0.930 . S
C190 C183 1.409 . S
C190 C189 1.362 . S
C70 C23 1.318 . S
C75 C42 1.370 . S
C86 C24 1.531 . S
C91 C34 1.575 . S
C102 C8 1.369 . S
C107 C51 1.416 . S
C118 C22 1.511 . S
C123 C52 1.491 . S
C134 C17 1.513 . S
C139 C61 1.567 . S
C155 C62 1.367 . S
C150 C27 1.305 . S
C166 C30 1.450 . S
C171 C33 1.526 . S
C187 C32 1.381 . S
C182 C31 1.377 . S
