# Generated by pormake.
# Topology csq, (4,8)-cn, num edge types: 1
# Building blocks:
#     Node 0, Type 0, BuildingBlock: MUDLON_clean_sbu_0, # of connection points: 4
#     Node 1, Type 0, BuildingBlock: MUDLON_clean_sbu_0, # of connection points: 4
#     Node 2, Type 0, BuildingBlock: MUDLON_clean_sbu_0, # of connection points: 4
#     Node 3, Type 0, BuildingBlock: MUDLON_clean_sbu_0, # of connection points: 4
#     Node 4, Type 0, BuildingBlock: MUDLON_clean_sbu_0, # of connection points: 4
#     Node 5, Type 0, BuildingBlock: MUDLON_clean_sbu_0, # of connection points: 4
#     Node 6, Type 1, BuildingBlock: TAGTUT_clean_sbu_1, # of connection points: 8
#     Node 7, Type 1, BuildingBlock: TAGTUT_clean_sbu_1, # of connection points: 8
#     Node 8, Type 1, BuildingBlock: TAGTUT_clean_sbu_1, # of connection points: 8
#     Edge 9, Type (0, 1), None
#     Edge 10, Type (0, 1), None
#     Edge 11, Type (0, 1), None
#     Edge 12, Type (0, 1), None
#     Edge 13, Type (0, 1), None
#     Edge 14, Type (0, 1), None
#     Edge 15, Type (0, 1), None
#     Edge 16, Type (0, 1), None
#     Edge 17, Type (0, 1), None
#     Edge 18, Type (0, 1), None
#     Edge 19, Type (0, 1), None
#     Edge 20, Type (0, 1), None
#     Edge 21, Type (0, 1), None
#     Edge 22, Type (0, 1), None
#     Edge 23, Type (0, 1), None
#     Edge 24, Type (0, 1), None
#     Edge 25, Type (0, 1), None
#     Edge 26, Type (0, 1), None
#     Edge 27, Type (0, 1), None
#     Edge 28, Type (0, 1), None
#     Edge 29, Type (0, 1), None
#     Edge 30, Type (0, 1), None
#     Edge 31, Type (0, 1), None
#     Edge 32, Type (0, 1), None
# Relax obj value: 0.064
# Max RMSD: 0.126
# Mean RMSD: 0.091
data_MOF--net-csq--node1-MUDLON_clean_sbu_0--node2-TAGTUT_clean_sbu_1--edge1-none
_symmetry_space_group_name_H-M    P1
_symmetry_Int_Tables_number       1
_symmetry_cell_setting            triclinic
loop_
_symmetry_equiv_pos_as_xyz
'x, y, z'
_cell_length_a     23.932162
_cell_length_b     23.960886
_cell_length_c     10.287285
_cell_angle_alpha  93.219259
_cell_angle_beta   95.796016
_cell_angle_gamma 119.24546
loop_
_atom_site_label
_atom_site_type_symbol
_atom_site_fract_x
_atom_site_fract_y
_atom_site_fract_z
_atom_type_partial_charge
Mg0 Mg 0.23156 0.4578 0.22864 0.0
C1 C 0.1474 0.38583 0.91388 0.0
O2 O 0.15983 0.34783 0.84038 0.0
C3 C 0.30855 0.44127 0.51764 0.0
O4 O 0.27742 0.42516 0.61944 0.0
C5 C 0.14289 0.47515 0.414 0.0
O6 O 0.15458 0.43606 0.48128 0.0
O7 O 0.17037 0.49446 0.31127 0.0
O8 O 0.18 0.4103 0.02841 0.0
O9 O 0.31954 0.49223 0.1325 0.0
C10 C 0.31948 0.44365 0.07258 0.0
O11 O 0.27221 0.38548 0.08136 0.0
O12 O 0.2804 0.44737 0.41158 0.0
Mg13 Mg 0.79158 0.2299 0.2282 0.0
C14 C 0.86133 0.28571 0.02403 0.0
O15 O 0.8057 0.28424 -0.00069 0.0
C16 C 0.77447 0.17803 0.49248 0.0
O17 O 0.78275 0.23479 0.53316 0.0
C18 C 0.85929 0.37513 0.32707 0.0
O19 O 0.87952 0.39049 0.21387 0.0
O20 O 0.80946 0.32049 0.33247 0.0
O21 O 0.87184 0.26096 0.12238 0.0
O22 O 0.69948 0.16916 0.09235 0.0
C23 C 0.69285 0.14095 0.97764 0.0
O24 O 0.74412 0.15002 0.92575 0.0
O25 O 0.79006 0.17008 0.38084 0.0
Mg26 Mg 0.50981 0.75687 0.05443 0.0
C27 C 0.62364 0.88452 0.22579 0.0
O28 O 0.67057 0.88595 0.16759 0.0
C29 C 0.5919 0.70392 0.94443 0.0
O30 O 0.64158 0.73993 0.03553 0.0
C31 C 0.54386 0.8585 0.90076 0.0
O32 O 0.59266 0.84901 0.934 0.0
O33 O 0.48821 0.81722 0.92679 0.0
O34 O 0.56588 0.8387 0.19858 0.0
O35 O 0.48541 0.67527 0.17058 0.0
C36 C 0.53918 0.68657 0.23486 0.0
O37 O 0.58922 0.74459 0.24237 0.0
O38 O 0.54484 0.71407 0.92289 0.0
Mg39 Mg 0.81479 0.58795 0.16433 0.0
C40 C 0.73002 0.57256 0.90501 0.0
O41 O 0.74161 0.52647 0.86709 0.0
C42 C 0.91652 0.69155 0.41984 0.0
O43 O 0.93447 0.74852 0.48151 0.0
C44 C 0.72951 0.554 0.38379 0.0
O45 O 0.78632 0.58965 0.45578 0.0
O46 O 0.72738 0.53454 0.26397 0.0
O47 O 0.76428 0.61167 0.00782 0.0
O48 O 0.87016 0.55135 0.05936 0.0
C49 C 0.88976 0.5668 0.94788 0.0
O50 O 0.87651 0.60626 0.88581 0.0
O51 O 0.87552 0.67237 0.31409 0.0
Mg52 Mg 0.24295 0.78975 0.07103 0.0
C53 C 0.18893 0.64166 0.97617 0.0
O54 O 0.1957 0.59092 0.98826 0.0
C55 C 0.34588 0.87377 0.32273 0.0
O56 O 0.29661 0.85633 0.38768 0.0
C57 C 0.17526 0.73494 0.27706 0.0
O58 O 0.22664 0.7281 0.28834 0.0
O59 O 0.16622 0.76443 0.18578 0.0
O60 O 0.23518 0.69619 0.03055 0.0
O61 O 0.23908 0.836 0.89703 0.0
C62 C 0.26701 0.82965 0.8032 0.0
O63 O 0.27153 0.77728 0.78906 0.0
O64 O 0.33637 0.85462 0.1997 0.0
Mg65 Mg 0.45203 0.23585 0.25339 0.0
C66 C 0.46152 0.32222 0.45479 0.0
O67 O 0.51683 0.32304 0.45741 0.0
C68 C 0.4368 0.14284 0.07125 0.0
O69 O 0.49734 0.17739 0.12613 0.0
C70 C 0.56401 0.36789 0.18229 0.0
O71 O 0.62636 0.40739 0.1888 0.0
O72 O 0.54587 0.31226 0.21859 0.0
O73 O 0.41385 0.28371 0.36849 0.0
O74 O 0.46044 0.17019 0.38342 0.0
C75 C 0.49905 0.14796 0.40111 0.0
O76 O 0.55339 0.17263 0.35103 0.0
O77 O 0.39862 0.16472 0.08488 0.0
C78 C 0.91349 0.32826 0.9573 0.0
C79 C 0.09915 0.40282 0.8616 0.0
C80 C 0.133 0.63337 0.88458 0.0
Mg81 Mg 0.96834 0.36764 0.70121 0.0
O82 O 0.97429 0.44434 0.77113 0.0
Mg83 Mg 0.02554 0.48363 0.95078 0.0
Mg84 Mg 0.01164 0.51954 0.66961 0.0
O85 O 0.05009 0.5936 0.56719 0.0
Mg86 Mg 0.08175 0.67921 0.63123 0.0
Mg87 Mg 1.00212 0.55493 0.38435 0.0
C88 C 0.9076 0.40284 0.44562 0.0
C89 C 0.09536 0.49365 0.45371 0.0
O90 O 0.95277 0.38555 0.01543 0.0
O91 O 0.90905 0.31141 0.83515 0.0
O92 O 0.09258 0.44335 0.93398 0.0
O93 O 0.06061 0.37187 0.75509 0.0
O94 O 0.91739 0.36271 0.5085 0.0
O95 O 0.93496 0.46338 0.48769 0.0
C96 C 0.93211 0.54478 0.89495 0.0
O97 O 0.9451 0.55117 0.77567 0.0
O98 O 0.95671 0.52099 0.97428 0.0
O99 O 0.07804 0.64651 0.30806 0.0
O100 O 0.14061 0.72029 0.48216 0.0
O101 O 0.94191 0.60688 0.3994 0.0
C102 C 0.12645 0.70104 0.35879 0.0
O103 O 0.99659 0.68756 0.56629 0.0
O104 O 0.13765 0.68051 0.82262 0.0
C105 C 0.95066 0.65755 0.46845 0.0
O106 O 0.08779 0.5752 0.84683 0.0
O107 O 0.08018 0.4888 0.57108 0.0
O108 O 0.06995 0.51412 0.36773 0.0
C109 C 0.41963 0.08532 0.98472 0.0
C110 C 0.32362 0.88907 0.78188 0.0
C111 C 0.55574 0.91018 0.81741 0.0
Mg112 Mg 0.39612 0.02441 0.70337 0.0
O113 O 0.47642 0.03186 0.77065 0.0
Mg114 Mg 0.47914 0.98516 0.92234 0.0
Mg115 Mg 0.51944 1.00351 0.65153 0.0
O116 O 0.56292 0.97575 0.53048 0.0
Mg117 Mg 0.64461 0.98816 0.60294 0.0
Mg118 Mg 0.56168 0.0256 0.38184 0.0
C119 C 0.48348 0.09728 0.48684 0.0
C120 C 0.4119 0.91908 0.39035 0.0
O121 O 0.44751 0.05301 0.02008 0.0
O122 O 0.39358 0.08048 0.86717 0.0
O123 O 0.37486 0.90652 0.86234 0.0
O124 O 0.31952 0.92521 0.69934 0.0
O125 O 0.43126 0.07843 0.53825 0.0
O126 O 0.52404 0.07788 0.51762 0.0
C127 C 0.62776 0.0924 0.91032 0.0
O128 O 0.61708 0.07738 0.78488 0.0
O129 O 0.5835 0.06429 0.98126 0.0
O130 O 0.59969 0.96481 0.27991 0.0
O131 O 0.65481 0.93969 0.43518 0.0
O132 O 0.66565 0.1037 0.44222 0.0
C133 C 0.63286 0.93762 0.3155 0.0
O134 O 0.72038 0.08793 0.61084 0.0
O135 O 0.60841 0.932 0.76616 0.0
C136 C 0.71692 0.12212 0.52307 0.0
O137 O 0.51367 0.92793 0.78787 0.0
O138 O 0.42267 0.93159 0.51648 0.0
O139 O 0.4567 0.94693 0.31999 0.0
C140 C 0.54769 0.64202 0.31605 0.0
C141 C 0.67321 0.55521 0.43105 0.0
C142 C 0.45754 0.36413 0.55587 0.0
Mg143 Mg 0.61933 0.63053 0.57257 0.0
O144 O 0.53556 0.56079 0.55909 0.0
Mg145 Mg 0.50803 0.49452 0.40344 0.0
Mg146 Mg 0.52078 0.50918 0.70718 0.0
O147 O 0.50695 0.45791 0.85687 0.0
Mg148 Mg 0.43381 0.37672 0.85876 0.0
Mg149 Mg 0.53542 0.52692 0.00821 0.0
C150 C 0.59097 0.65451 0.85663 0.0
C151 C 0.66297 0.55857 0.87909 0.0
O152 O 0.51522 0.5802 0.28523 0.0
O153 O 0.5918 0.66952 0.41621 0.0
O154 O 0.61499 0.51747 0.37442 0.0
O155 O 0.6857 0.59955 0.52248 0.0
O156 O 0.62719 0.6746 0.76692 0.0
O157 O 0.54253 0.59676 0.84935 0.0
C158 C 0.37843 0.46279 0.53357 0.0
O159 O 0.41096 0.47566 0.64946 0.0
O160 O 0.40492 0.46822 0.42971 0.0
O161 O 0.53744 0.44768 0.13246 0.0
O162 O 0.47959 0.34927 0.0154 0.0
O163 O 0.43002 0.49734 0.04006 0.0
C164 C 0.51965 0.38714 0.11514 0.0
O165 O 0.36397 0.3982 0.93513 0.0
O166 O 0.4277 0.33817 0.65255 0.0
C167 C 0.37362 0.44828 0.00763 0.0
O168 O 0.49951 0.4242 0.56352 0.0
O169 O 0.63041 0.5402 0.76272 0.0
O170 O 0.63663 0.55762 0.98085 0.0
loop_
_geom_bond_atom_site_label_1
_geom_bond_atom_site_label_2
_geom_bond_distance
_geom_bond_site_symmetry_2
_ccdc_geom_bond_type
Mg0 O7 2.141 . S
Mg0 O8 2.048 . S
Mg0 O9 2.048 . S
Mg0 O12 2.141 . S
C1 O2 1.313 . S
C1 O8 1.195 . S
O2 C1 1.313 . S
C3 O4 1.245 . S
C3 O12 1.289 . S
O4 C3 1.245 . S
C5 O6 1.245 . S
C5 O7 1.289 . S
O6 C5 1.245 . S
O7 Mg0 2.141 . S
O7 C5 1.289 . S
O8 Mg0 2.048 . S
O8 C1 1.195 . S
O9 Mg0 2.048 . S
O9 C10 1.195 . S
C10 O9 1.195 . S
C10 O11 1.313 . S
O11 C10 1.313 . S
O12 Mg0 2.141 . S
O12 C3 1.289 . S
Mg13 O20 2.141 . S
Mg13 O21 2.048 . S
Mg13 O22 2.048 . S
Mg13 O25 2.141 . S
C14 O15 1.313 . S
C14 O21 1.195 . S
O15 C14 1.313 . S
C16 O17 1.245 . S
C16 O25 1.289 . S
O17 C16 1.245 . S
C18 O19 1.245 . S
C18 O20 1.289 . S
O19 C18 1.245 . S
O20 Mg13 2.141 . S
O20 C18 1.289 . S
O21 Mg13 2.048 . S
O21 C14 1.195 . S
O22 Mg13 2.048 . S
O22 C23 1.195 1_554 S
C23 O22 1.195 1_556 S
C23 O24 1.313 . S
O24 C23 1.313 . S
O25 Mg13 2.141 . S
O25 C16 1.289 . S
Mg26 O33 2.141 1_554 S
Mg26 O34 2.048 . S
Mg26 O35 2.048 . S
Mg26 O38 2.141 1_554 S
C27 O28 1.313 . S
C27 O34 1.195 . S
O28 C27 1.313 . S
C29 O30 1.245 . S
C29 O38 1.289 . S
O30 C29 1.245 . S
C31 O32 1.245 . S
C31 O33 1.289 . S
O32 C31 1.245 . S
O33 Mg26 2.141 1_556 S
O33 C31 1.289 . S
O34 Mg26 2.048 . S
O34 C27 1.195 . S
O35 Mg26 2.048 . S
O35 C36 1.195 . S
C36 O35 1.195 . S
C36 O37 1.313 . S
O37 C36 1.313 . S
O38 Mg26 2.141 1_556 S
O38 C29 1.289 . S
Mg39 O46 2.141 . S
Mg39 O47 2.048 1_554 S
Mg39 O48 2.048 1_554 S
Mg39 O51 2.141 . S
C40 O41 1.313 . S
C40 O47 1.195 . S
O41 C40 1.313 . S
C42 O43 1.245 . S
C42 O51 1.289 . S
O43 C42 1.245 . S
C44 O45 1.245 . S
C44 O46 1.289 . S
O45 C44 1.245 . S
O46 Mg39 2.141 . S
O46 C44 1.289 . S
O47 Mg39 2.048 1_556 S
O47 C40 1.195 . S
O48 Mg39 2.048 1_556 S
O48 C49 1.195 . S
C49 O48 1.195 . S
C49 O50 1.313 . S
O50 C49 1.313 . S
O51 Mg39 2.141 . S
O51 C42 1.289 . S
Mg52 O59 2.141 . S
Mg52 O60 2.048 . S
Mg52 O61 2.048 . S
Mg52 O64 2.141 . S
C53 O54 1.313 . S
C53 O60 1.195 1_556 S
O54 C53 1.313 . S
C55 O56 1.245 . S
C55 O64 1.289 . S
O56 C55 1.245 . S
C57 O58 1.245 . S
C57 O59 1.289 . S
O58 C57 1.245 . S
O59 Mg52 2.141 . S
O59 C57 1.289 . S
O60 Mg52 2.048 . S
O60 C53 1.195 1_554 S
O61 Mg52 2.048 . S
O61 C62 1.195 1_554 S
C62 O61 1.195 1_556 S
C62 O63 1.313 . S
O63 C62 1.313 . S
O64 Mg52 2.141 . S
O64 C55 1.289 . S
Mg65 O72 2.141 . S
Mg65 O73 2.048 . S
Mg65 O74 2.048 . S
Mg65 O77 2.141 . S
C66 O67 1.313 . S
C66 O73 1.195 . S
O67 C66 1.313 . S
C68 O69 1.245 . S
C68 O77 1.289 . S
O69 C68 1.245 . S
C70 O71 1.245 . S
C70 O72 1.289 . S
O71 C70 1.245 . S
O72 Mg65 2.141 . S
O72 C70 1.289 . S
O73 Mg65 2.048 . S
O73 C66 1.195 . S
O74 Mg65 2.048 . S
O74 C75 1.195 . S
C75 O74 1.195 . S
C75 O76 1.313 . S
O76 C75 1.313 . S
O77 Mg65 2.141 . S
O77 C68 1.289 . S
C78 O90 1.241 . S
C78 O91 1.280 1_554 S
C79 O92 1.277 1_556 S
C79 O93 1.245 . S
C80 O104 1.247 . S
C80 O106 1.289 . S
Mg81 O82 1.926 . S
Mg81 O91 1.984 . S
Mg81 O93 1.988 1_655 S
Mg81 O94 2.061 . S
O82 Mg81 1.926 . S
O82 Mg83 1.986 1_655 S
O82 Mg84 1.917 1_655 S
Mg83 O82 1.986 1_455 S
Mg83 O90 2.042 1_456 S
Mg83 O92 2.041 1_556 S
Mg83 O98 2.038 1_455 S
Mg83 O106 2.238 . S
Mg84 O82 1.917 1_455 S
Mg84 O85 1.917 . S
Mg84 O95 2.106 1_455 S
Mg84 O97 2.079 1_455 S
Mg84 O106 2.106 . S
Mg84 O107 2.079 . S
O85 Mg84 1.917 . S
O85 Mg86 1.926 . S
O85 Mg87 1.986 . S
Mg86 O85 1.926 . S
Mg86 O100 1.984 . S
Mg86 O103 1.988 1_455 S
Mg86 O104 2.061 . S
Mg87 O85 1.986 . S
Mg87 O95 2.238 1_455 S
Mg87 O99 2.042 . S
Mg87 O101 2.041 1_455 S
Mg87 O108 2.038 . S
C88 O94 1.247 . S
C88 O95 1.289 . S
C89 O107 1.245 . S
C89 O108 1.274 . S
O90 C78 1.241 . S
O90 Mg83 2.042 1_654 S
O91 C78 1.280 1_556 S
O91 Mg81 1.984 . S
O92 C79 1.277 1_554 S
O92 Mg83 2.041 1_554 S
O93 C79 1.245 . S
O93 Mg81 1.988 1_455 S
O94 Mg81 2.061 . S
O94 C88 1.247 . S
O95 Mg84 2.106 1_655 S
O95 Mg87 2.238 1_655 S
O95 C88 1.289 . S
C96 O97 1.245 . S
C96 O98 1.274 . S
O97 Mg84 2.079 1_655 S
O97 C96 1.245 . S
O98 Mg83 2.038 1_655 S
O98 C96 1.274 . S
O99 Mg87 2.042 . S
O99 C102 1.241 . S
O100 Mg86 1.984 . S
O100 C102 1.280 . S
O101 Mg87 2.041 1_655 S
O101 C105 1.277 . S
C102 O99 1.241 . S
C102 O100 1.280 . S
O103 Mg86 1.988 1_655 S
O103 C105 1.245 . S
O104 C80 1.247 . S
O104 Mg86 2.061 . S
C105 O101 1.277 . S
C105 O103 1.245 . S
O106 C80 1.289 . S
O106 Mg83 2.238 . S
O106 Mg84 2.106 . S
O107 Mg84 2.079 . S
O107 C89 1.245 . S
O108 Mg87 2.038 . S
O108 C89 1.274 . S
C109 O121 1.241 . S
C109 O122 1.280 1_554 S
C110 O123 1.277 . S
C110 O124 1.245 . S
C111 O135 1.247 . S
C111 O137 1.289 . S
Mg112 O113 1.926 . S
Mg112 O122 1.984 . S
Mg112 O124 1.988 1_545 S
Mg112 O125 2.061 . S
O113 Mg112 1.926 . S
O113 Mg114 1.986 . S
O113 Mg115 1.917 . S
Mg114 O113 1.986 . S
Mg114 O121 2.042 1_556 S
Mg114 O123 2.041 1_545 S
Mg114 O129 2.038 . S
Mg114 O137 2.238 1_545 S
Mg115 O113 1.917 . S
Mg115 O116 1.917 1_545 S
Mg115 O126 2.106 . S
Mg115 O128 2.079 . S
Mg115 O137 2.106 1_545 S
Mg115 O138 2.079 1_545 S
O116 Mg115 1.917 1_565 S
O116 Mg117 1.926 . S
O116 Mg118 1.986 1_565 S
Mg117 O116 1.926 . S
Mg117 O131 1.984 . S
Mg117 O134 1.988 1_565 S
Mg117 O135 2.061 . S
Mg118 O116 1.986 1_545 S
Mg118 O126 2.238 . S
Mg118 O130 2.042 1_545 S
Mg118 O132 2.041 . S
Mg118 O139 2.038 1_545 S
C119 O125 1.247 . S
C119 O126 1.289 . S
C120 O138 1.245 . S
C120 O139 1.274 . S
O121 C109 1.241 . S
O121 Mg114 2.042 1_554 S
O122 C109 1.280 1_556 S
O122 Mg112 1.984 . S
O123 C110 1.277 . S
O123 Mg114 2.041 1_565 S
O124 C110 1.245 . S
O124 Mg112 1.988 1_565 S
O125 Mg112 2.061 . S
O125 C119 1.247 . S
O126 Mg115 2.106 . S
O126 Mg118 2.238 . S
O126 C119 1.289 . S
C127 O128 1.245 . S
C127 O129 1.274 . S
O128 Mg115 2.079 . S
O128 C127 1.245 . S
O129 Mg114 2.038 . S
O129 C127 1.274 . S
O130 Mg118 2.042 1_565 S
O130 C133 1.241 . S
O131 Mg117 1.984 . S
O131 C133 1.280 . S
O132 Mg118 2.041 . S
O132 C136 1.277 . S
C133 O130 1.241 . S
C133 O131 1.280 . S
O134 Mg117 1.988 1_545 S
O134 C136 1.245 . S
O135 C111 1.247 . S
O135 Mg117 2.061 . S
C136 O132 1.277 . S
C136 O134 1.245 . S
O137 C111 1.289 . S
O137 Mg114 2.238 1_565 S
O137 Mg115 2.106 1_565 S
O138 Mg115 2.079 1_565 S
O138 C120 1.245 . S
O139 Mg118 2.038 1_565 S
O139 C120 1.274 . S
C140 O152 1.241 . S
C140 O153 1.280 . S
C141 O154 1.277 . S
C141 O155 1.245 . S
C142 O166 1.247 . S
C142 O168 1.289 . S
Mg143 O144 1.926 . S
Mg143 O153 1.984 . S
Mg143 O155 1.988 . S
Mg143 O156 2.061 . S
O144 Mg143 1.926 . S
O144 Mg145 1.986 . S
O144 Mg146 1.917 . S
Mg145 O144 1.986 . S
Mg145 O152 2.042 . S
Mg145 O154 2.041 . S
Mg145 O160 2.038 . S
Mg145 O168 2.238 . S
Mg146 O144 1.917 . S
Mg146 O147 1.917 . S
Mg146 O157 2.106 . S
Mg146 O159 2.079 . S
Mg146 O168 2.106 . S
Mg146 O169 2.079 . S
O147 Mg146 1.917 . S
O147 Mg148 1.926 . S
O147 Mg149 1.986 . S
Mg148 O147 1.926 . S
Mg148 O162 1.984 . S
Mg148 O165 1.988 . S
Mg148 O166 2.061 . S
Mg149 O147 1.986 . S
Mg149 O157 2.238 . S
Mg149 O161 2.042 1_556 S
Mg149 O163 2.041 . S
Mg149 O170 2.038 . S
C150 O156 1.247 . S
C150 O157 1.289 . S
C151 O169 1.245 . S
C151 O170 1.274 . S
O152 C140 1.241 . S
O152 Mg145 2.042 . S
O153 C140 1.280 . S
O153 Mg143 1.984 . S
O154 C141 1.277 . S
O154 Mg145 2.041 . S
O155 C141 1.245 . S
O155 Mg143 1.988 . S
O156 Mg143 2.061 . S
O156 C150 1.247 . S
O157 Mg146 2.106 . S
O157 Mg149 2.238 . S
O157 C150 1.289 . S
C158 O159 1.245 . S
C158 O160 1.274 . S
O159 Mg146 2.079 . S
O159 C158 1.245 . S
O160 Mg145 2.038 . S
O160 C158 1.274 . S
O161 Mg149 2.042 1_554 S
O161 C164 1.241 . S
O162 Mg148 1.984 . S
O162 C164 1.280 1_556 S
O163 Mg149 2.041 . S
O163 C167 1.277 . S
C164 O161 1.241 . S
C164 O162 1.280 1_554 S
O165 Mg148 1.988 . S
O165 C167 1.245 . S
O166 C142 1.247 . S
O166 Mg148 2.061 . S
C167 O163 1.277 . S
C167 O165 1.245 . S
O168 C142 1.289 . S
O168 Mg145 2.238 . S
O168 Mg146 2.106 . S
O169 Mg146 2.079 . S
O169 C151 1.245 . S
O170 Mg149 2.038 . S
O170 C151 1.274 . S
C5 C89 2.116 . S
C16 C136 1.376 . S
C140 C36 1.675 . S
C105 C42 1.249 . S
C55 C120 1.866 . S
C142 C66 1.216 . S
C111 C31 1.655 . S
C40 C151 1.520 . S
C80 C53 1.548 . S
C68 C109 1.073 . S
C10 C167 1.840 1_554 S
C78 C14 1.459 . S
C96 C49 2.131 . S
C110 C62 1.525 . S
C164 C70 1.520 . S
C79 C1 1.304 1_556 S
C127 C23 1.993 . S
C29 C150 1.062 . S
C119 C75 1.769 . S
C158 C3 1.504 . S
C88 C18 1.411 . S
C133 C27 1.218 . S
C44 C141 1.767 . S
C57 C102 1.275 . S
