# Generated by pormake.
# Topology scu, (8,4)-cn, num edge types: 1
# Building blocks:
#     Node 0, Type 0, BuildingBlock: VETTIZ_charged_sbu_0, # of connection points: 8
#     Node 1, Type 1, BuildingBlock: NAWXER_clean_sbu_0, # of connection points: 4
#     Node 2, Type 1, BuildingBlock: NAWXER_clean_sbu_0, # of connection points: 4
#     Edge 3, Type (0, 1), BuildingBlock: EZIPEK_clean_linker_0, # of connection points: 2
#     Edge 4, Type (0, 1), BuildingBlock: EZIPEK_clean_linker_0, # of connection points: 2
#     Edge 5, Type (0, 1), BuildingBlock: EZIPEK_clean_linker_0, # of connection points: 2
#     Edge 6, Type (0, 1), BuildingBlock: EZIPEK_clean_linker_0, # of connection points: 2
#     Edge 7, Type (0, 1), BuildingBlock: EZIPEK_clean_linker_0, # of connection points: 2
#     Edge 8, Type (0, 1), BuildingBlock: EZIPEK_clean_linker_0, # of connection points: 2
#     Edge 9, Type (0, 1), BuildingBlock: EZIPEK_clean_linker_0, # of connection points: 2
#     Edge 10, Type (0, 1), BuildingBlock: EZIPEK_clean_linker_0, # of connection points: 2
# Relax obj value: 0.013
# Max RMSD: 0.059
# Mean RMSD: 0.052
data_MOF--net-scu--node1-VETTIZ_charged_sbu_0--node2-NAWXER_clean_sbu_0--edge1-EZIPEK_clean_linker_0
_symmetry_space_group_name_H-M    P1
_symmetry_Int_Tables_number       1
_symmetry_cell_setting            triclinic
loop_
_symmetry_equiv_pos_as_xyz
'x, y, z'
_cell_length_a     18.747043
_cell_length_b     18.861588
_cell_length_c     14.302415
_cell_angle_alpha  92.040319
_cell_angle_beta   91.657645
_cell_angle_gamma 91.841213
loop_
_atom_site_label
_atom_site_type_symbol
_atom_site_fract_x
_atom_site_fract_y
_atom_site_fract_z
_atom_type_partial_charge
Fe0 Fe 0.98382 0.98645 0.2324 0.0
O1 O 0.97819 0.98273 0.09574 0.0
Fe2 Fe 0.06629 0.94326 0.02321 0.0
Fe3 Fe 0.95931 0.06842 0.02271 0.0
O4 O 0.9823 0.97617 0.09477 0.0
O5 O 0.04548 0.02738 0.94684 0.0
O6 O 0.04129 0.03433 0.94783 0.0
Fe7 Fe 0.03705 0.02197 0.81025 0.0
C8 C 0.84306 0.04452 0.16899 0.0
O9 O 0.99124 0.09628 0.24579 0.0
O10 O 0.02978 0.13102 0.10901 0.0
O11 O 0.14536 0.00868 0.82508 0.0
O12 O 0.15403 0.92301 0.93672 0.0
O13 O 0.13664 1.00702 0.10544 0.0
O14 O 0.09398 0.98395 0.2449 0.0
O15 O 0.95119 0.15423 0.93133 0.0
O16 O 0.03425 0.13067 0.82108 0.0
C17 C 0.14357 1.0075 0.19399 0.0
O18 O 0.03431 0.91285 0.80069 0.0
O19 O 1.00118 0.87523 0.93837 0.0
O20 O 0.87648 0.99716 0.21477 0.0
O21 O 0.87207 0.08756 0.11009 0.0
C22 C 0.02505 0.1408 0.19752 0.0
C23 C 0.98914 0.17234 0.86043 0.0
C24 C 0.87473 0.01966 0.85373 0.0
O25 O 0.88529 0.011 0.9404 0.0
O26 O 0.92629 0.02722 0.79825 0.0
C27 C 0.1793 0.9597 0.86843 0.0
O28 O 0.07311 0.85793 0.1162 0.0
O29 O 0.98231 0.87833 0.21855 0.0
C30 C 0.01288 0.8634 0.85196 0.0
C31 C 0.02735 0.83776 0.17822 0.0
C32 C 0.02935 0.59087 0.64774 0.0
C33 C 0.08083 0.39652 0.41572 0.0
O34 O 0.09141 0.56721 0.63372 0.0
Zn35 Zn 0.06592 0.49265 0.53585 0.0
O36 O 0.97572 0.56169 0.60308 0.0
Zn37 Zn 0.95131 0.48778 0.49266 0.0
O38 O 0.8883 0.41924 0.55676 0.0
O39 O 1.00133 0.42128 0.60626 0.0
O40 O 0.01627 0.41611 0.41971 0.0
O41 O 0.12876 0.42676 0.47016 0.0
O42 O 0.04211 0.55659 0.42575 0.0
O43 O 0.92662 0.55534 0.39363 0.0
C44 C 0.93733 0.39656 0.61081 0.0
C45 C 0.98952 0.58033 0.37998 0.0
C46 C 0.61202 0.05972 0.64078 0.0
C47 C 0.3986 0.07439 0.42174 0.0
O48 O 0.58429 1.00298 0.60259 0.0
Zn49 Zn 0.50861 0.96527 0.50283 0.0
O50 O 0.58526 0.11933 0.62146 0.0
Zn51 Zn 0.50628 0.08345 0.5333 0.0
O52 O 0.4493 0.02083 0.62328 0.0
O53 O 0.44323 0.90799 0.58236 0.0
O54 O 0.42356 0.12961 0.46776 0.0
O55 O 0.42927 0.01569 0.43091 0.0
O56 O 0.57516 0.94123 0.40049 0.0
O57 O 0.56823 0.05697 0.42146 0.0
C58 C 0.42423 0.95882 0.63694 0.0
C59 C 0.5946 1.00411 0.37882 0.0
C60 C 0.0356 0.2755 0.21096 0.0
C61 C 0.05384 0.20855 0.24611 0.0
C62 C 0.11709 0.27085 0.38189 0.0
C63 C 0.09451 0.33638 0.3485 0.0
N64 N 0.05668 0.4034 0.21798 0.0
N65 N 0.11962 0.14316 0.36121 0.0
C66 C 0.06249 0.33904 0.25792 0.0
C67 C 0.09749 0.20657 0.33005 0.0
N68 N 0.98685 0.27897 0.13846 0.0
N69 N 0.15385 0.26981 0.4658 0.0
H70 H 0.10074 0.09483 0.3328 0.0
H71 H 0.15893 0.1375 0.41291 0.0
H72 H 0.17351 0.31563 0.50157 0.0
H73 H 0.16484 0.22419 0.50146 0.0
H74 H 0.96611 0.32628 0.11621 0.0
H75 H 0.96074 0.23442 0.10696 0.0
H76 H 0.0397 0.40932 0.14879 0.0
H77 H 0.07635 0.45034 0.25178 0.0
C78 C 0.71842 0.9946 0.16981 0.0
C79 C 0.76791 0.05107 0.19482 0.0
C80 C 0.70473 0.07627 0.33723 0.0
C81 C 0.65351 0.01982 0.31326 0.0
N82 N 0.60159 0.93967 0.19256 0.0
N83 N 0.79365 0.15985 0.28209 0.0
C84 C 0.65713 0.98326 0.22497 0.0
C85 C 0.75501 0.09734 0.27085 0.0
N86 N 0.73165 0.95052 0.09499 0.0
N87 N 0.71031 0.10602 0.42582 0.0
H88 H 0.83172 0.1754 0.23441 0.0
H89 H 0.78232 0.19908 0.33217 0.0
H90 H 0.67994 0.08959 0.4809 0.0
H91 H 0.75154 0.14154 0.44816 0.0
H92 H 0.7028 0.90327 0.07932 0.0
H93 H 0.77389 0.96052 0.05076 0.0
H94 H 0.5988 0.91653 0.12528 0.0
H95 H 0.55503 0.93207 0.22954 0.0
C96 C 0.05513 0.76508 0.31436 0.0
C97 C 0.03137 0.76706 0.21959 0.0
C98 C 0.98208 0.64452 0.22707 0.0
C99 C 1.00373 0.64396 0.3232 0.0
N100 N 0.07787 0.69916 0.45079 0.0
N101 N 0.96716 0.71251 0.08645 0.0
C102 C 0.0457 0.70241 0.36404 0.0
C103 C 0.99443 0.70728 0.17553 0.0
N104 N 0.08087 0.82576 0.36078 0.0
N105 N 0.95324 0.58387 0.18407 0.0
H106 H 0.97616 0.75726 0.04714 0.0
H107 H 0.93293 0.67467 0.05279 0.0
H108 H 0.94478 0.53698 0.21922 0.0
H109 H 0.94265 0.57778 0.11241 0.0
H110 H 0.08712 0.83123 0.43333 0.0
H111 H 0.0903 0.87323 0.32824 0.0
H112 H 0.12045 0.73288 0.47372 0.0
H113 H 0.0653 0.66209 0.49963 0.0
C114 C 0.23954 0.98077 0.30827 0.0
C115 C 0.21393 0.02733 0.24136 0.0
C116 C 0.3115 0.1129 0.2919 0.0
C117 C 0.32851 0.06951 0.36825 0.0
N118 N 0.28766 0.97429 0.46434 0.0
N119 N 0.22196 0.14314 0.17448 0.0
C120 C 0.28551 1.00751 0.38126 0.0
C121 C 0.24901 0.09516 0.23399 0.0
N122 N 0.22248 0.90996 0.30001 0.0
N123 N 0.35563 0.16904 0.27264 0.0
H124 H 0.17778 0.13151 0.1301 0.0
H125 H 0.24051 0.19577 0.17391 0.0
H126 H 0.4006 0.18369 0.31431 0.0
H127 H 0.34993 0.198 0.21236 0.0
H128 H 0.24422 0.87319 0.34463 0.0
H129 H 0.19384 0.88774 0.24186 0.0
H130 H 0.25389 0.93109 0.47814 0.0
H131 H 0.31635 0.99599 0.52231 0.0
C132 C 0.97349 0.77951 0.71782 0.0
C133 C 1.00747 0.78975 0.80792 0.0
C134 C 0.04798 0.66609 0.79732 0.0
C135 C 0.01876 0.65794 0.70485 0.0
N136 N 0.9388 0.70305 0.58508 0.0
N137 N 0.08917 0.7457 0.92494 0.0
C138 C 0.97701 0.71324 0.66777 0.0
C139 C 0.04692 0.73342 0.84621 0.0
N140 N 0.942 0.8352 0.67587 0.0
N141 N 0.07361 0.60825 0.84068 0.0
H142 H 0.09359 0.79439 0.96108 0.0
H143 H 0.12589 0.70991 0.94929 0.0
H144 H 0.0739 0.55787 0.8082 0.0
H145 H 0.08731 0.60824 0.91177 0.0
H146 H 0.92894 0.83602 0.60468 0.0
H147 H 0.93278 0.88338 0.71002 0.0
H148 H 0.89605 0.73395 0.56605 0.0
H149 H 0.94632 0.66266 0.53576 0.0
C150 C 0.29455 0.01204 0.82658 0.0
C151 C 0.2535 0.9496 0.83736 0.0
C152 C 0.33973 0.88655 0.74109 0.0
C153 C 0.36673 0.9528 0.70882 0.0
N154 N 0.33986 0.07971 0.70362 0.0
N155 N 0.23488 0.82474 0.79796 0.0
C156 C 0.33707 0.01645 0.74757 0.0
C157 C 0.27571 0.88553 0.79351 0.0
N158 N 0.28683 0.06957 0.88556 0.0
N159 N 0.37486 0.82535 0.72478 0.0
H160 H 0.18847 0.82223 0.83604 0.0
H161 H 0.24501 0.77865 0.75883 0.0
H162 H 0.42474 0.82418 0.69484 0.0
H163 H 0.35865 0.77723 0.75243 0.0
H164 H 0.31852 0.11583 0.88155 0.0
H165 H 0.2542 0.0674 0.94348 0.0
H166 H 0.31601 0.12497 0.73061 0.0
H167 H 0.35207 0.08473 0.63368 0.0
C168 C 0.91589 0.28517 0.82531 0.0
C169 C 0.97417 0.23915 0.80803 0.0
C170 C 0.97776 0.28025 0.64897 0.0
C171 C 0.92863 0.33306 0.66809 0.0
N172 N 0.85506 0.3918 0.77921 0.0
N173 N 0.08207 0.2327 0.71858 0.0
C174 C 0.898 0.3369 0.75755 0.0
C175 C 0.01169 0.24827 0.72421 0.0
N176 N 0.87946 0.28245 0.90627 0.0
N177 N 0.99657 0.26486 0.55941 0.0
H178 H 0.11307 0.22097 0.77752 0.0
H179 H 0.11116 0.24229 0.65896 0.0
H180 H 0.97227 0.28853 0.50231 0.0
H181 H 0.02997 0.22318 0.54344 0.0
H182 H 0.83082 0.30666 0.91513 0.0
H183 H 0.89803 0.25754 0.96527 0.0
H184 H 0.83767 0.40301 0.84648 0.0
H185 H 0.83972 0.42811 0.72964 0.0
C186 C 0.75785 0.08441 0.83623 0.0
C187 C 0.80033 0.02493 0.81511 0.0
C188 C 0.72516 0.99575 0.67736 0.0
C189 C 0.67856 0.05213 0.7001 0.0
N190 N 0.6421 0.13718 0.81857 0.0
N191 N 0.80156 0.90872 0.74318 0.0
C192 C 0.69241 0.09312 0.78454 0.0
C193 C 0.77674 0.9758 0.7443 0.0
N194 N 0.77976 0.13287 0.90486 0.0
N195 N 0.72355 0.96294 0.59056 0.0
H196 H 0.83457 0.89165 0.79742 0.0
H197 H 0.78188 0.86872 0.6962 0.0
H198 H 0.69211 0.97884 0.5346 0.0
H199 H 0.76064 0.9255 0.57107 0.0
H200 H 0.75597 0.18159 0.91516 0.0
H201 H 0.82349 0.12537 0.94918 0.0
H202 H 0.64677 0.16273 0.88435 0.0
H203 H 0.59227 0.14251 0.786 0.0
loop_
_geom_bond_atom_site_label_1
_geom_bond_atom_site_label_2
_geom_bond_distance
_geom_bond_site_symmetry_2
_ccdc_geom_bond_type
Fe0 O1 1.886 . S
Fe0 O4 1.715 1_645 S
Fe0 O9 2.077 1_655 S
Fe0 O14 1.935 1_655 S
Fe0 O20 2.077 1_545 S
Fe0 O29 1.935 1_545 S
O1 Fe0 1.886 . S
O1 Fe3 1.715 1_554 S
Fe2 O4 1.886 . S
Fe2 O5 1.715 1_554 S
Fe2 O12 1.935 1_554 S
Fe2 O13 2.077 . S
Fe2 O19 1.935 1_554 S
Fe2 O28 2.077 . S
Fe3 O1 1.715 1_556 S
Fe3 O6 1.886 . S
Fe3 O10 1.935 1_556 S
Fe3 O15 2.077 . S
Fe3 O21 1.935 1_556 S
Fe3 O25 2.077 . S
O4 Fe0 1.715 1_465 S
O4 Fe2 1.886 . S
O5 Fe2 1.715 1_556 S
O5 Fe7 1.886 . S
O6 Fe3 1.886 . S
O6 Fe7 1.715 1_645 S
Fe7 O5 1.886 . S
Fe7 O6 1.715 1_465 S
Fe7 O11 2.077 1_565 S
Fe7 O16 1.935 1_565 S
Fe7 O18 2.077 1_455 S
Fe7 O26 1.935 1_455 S
C8 O20 1.381 1_545 S
C8 O21 1.421 . S
O9 Fe0 2.077 1_455 S
O9 C22 1.381 1_455 S
O10 Fe3 1.935 1_554 S
O10 C22 1.421 . S
O11 Fe7 2.077 1_545 S
O11 C27 1.381 1_545 S
O12 Fe2 1.935 1_556 S
O12 C27 1.421 . S
O13 Fe2 2.077 . S
O13 C17 1.381 . S
O14 Fe0 1.935 1_455 S
O14 C17 1.421 1_545 S
O15 Fe3 2.077 . S
O15 C23 1.381 . S
O16 Fe7 1.935 1_545 S
O16 C23 1.421 1_455 S
C17 O13 1.381 . S
C17 O14 1.421 1_565 S
O18 Fe7 2.077 1_655 S
O18 C30 1.381 1_655 S
O19 Fe2 1.935 1_556 S
O19 C30 1.421 . S
O20 Fe0 2.077 1_565 S
O20 C8 1.381 1_565 S
O21 Fe3 1.935 1_554 S
O21 C8 1.421 . S
C22 O9 1.381 1_655 S
C22 O10 1.421 . S
C23 O15 1.381 . S
C23 O16 1.421 1_655 S
C24 O25 1.381 . S
C24 O26 1.421 1_545 S
O25 Fe3 2.077 . S
O25 C24 1.381 . S
O26 Fe7 1.935 1_655 S
O26 C24 1.421 1_565 S
C27 O11 1.381 1_565 S
C27 O12 1.421 . S
O28 Fe2 2.077 . S
O28 C31 1.381 . S
O29 Fe0 1.935 1_565 S
O29 C31 1.421 1_655 S
C30 O18 1.381 1_455 S
C30 O19 1.421 . S
C31 O28 1.381 . S
C31 O29 1.421 1_455 S
C32 O34 1.251 . S
C32 O36 1.253 1_455 S
C33 O40 1.247 . S
C33 O41 1.258 1_655 S
O34 C32 1.251 . S
O34 Zn35 2.028 . S
Zn35 O34 2.028 . S
Zn35 O39 2.035 . S
Zn35 O41 2.035 . S
Zn35 O42 2.028 . S
O36 C32 1.253 1_655 S
O36 Zn37 2.035 . S
Zn37 O36 2.035 . S
Zn37 O38 2.028 . S
Zn37 O40 2.028 . S
Zn37 O43 2.035 . S
O38 Zn37 2.028 . S
O38 C44 1.247 . S
O39 Zn35 2.035 . S
O39 C44 1.258 1_455 S
O40 C33 1.247 . S
O40 Zn37 2.028 . S
O41 C33 1.258 1_455 S
O41 Zn35 2.035 . S
O42 Zn35 2.028 . S
O42 C45 1.251 . S
O43 Zn37 2.035 . S
O43 C45 1.253 1_655 S
C44 O38 1.247 . S
C44 O39 1.258 1_655 S
C45 O42 1.251 . S
C45 O43 1.253 1_455 S
C46 O48 1.247 . S
C46 O50 1.258 1_565 S
C47 O54 1.251 . S
C47 O55 1.253 1_545 S
O48 C46 1.247 . S
O48 Zn49 2.028 . S
Zn49 O48 2.028 . S
Zn49 O53 2.035 . S
Zn49 O55 2.035 . S
Zn49 O56 2.028 . S
O50 C46 1.258 1_545 S
O50 Zn51 2.035 . S
Zn51 O50 2.035 . S
Zn51 O52 2.028 . S
Zn51 O54 2.028 . S
Zn51 O57 2.035 . S
O52 Zn51 2.028 . S
O52 C58 1.251 . S
O53 Zn49 2.035 . S
O53 C58 1.253 1_565 S
O54 C47 1.251 . S
O54 Zn51 2.028 . S
O55 C47 1.253 1_565 S
O55 Zn49 2.035 . S
O56 Zn49 2.028 . S
O56 C59 1.247 . S
O57 Zn51 2.035 . S
O57 C59 1.258 1_545 S
C58 O52 1.251 . S
C58 O53 1.253 1_545 S
C59 O56 1.247 . S
C59 O57 1.258 1_565 S
C60 C61 1.361 1_655 S
C60 C66 1.379 . S
C60 N68 1.356 . S
C61 C60 1.361 1_455 S
C61 C67 1.365 . S
C62 C63 1.364 . S
C62 C67 1.379 . S
C62 N69 1.356 . S
C63 C62 1.364 . S
C63 C66 1.362 1_455 S
N64 C66 1.356 . S
N64 H76 0.984 . S
N64 H77 0.985 . S
N65 C67 1.356 . S
N65 H70 0.984 . S
N65 H71 0.985 . S
C66 C60 1.379 . S
C66 C63 1.362 1_655 S
C66 N64 1.356 . S
C67 C61 1.365 . S
C67 C62 1.379 . S
C67 N65 1.356 . S
N68 C60 1.356 . S
N68 H74 0.984 . S
N68 H75 0.984 . S
N69 C62 1.356 . S
N69 H72 0.984 . S
N69 H73 0.985 . S
H70 N65 0.984 . S
H71 N65 0.985 . S
H72 N69 0.984 . S
H73 N69 0.985 . S
H74 N68 0.984 . S
H75 N68 0.984 . S
H76 N64 0.984 . S
H77 N64 0.985 . S
C78 C79 1.362 . S
C78 C84 1.379 . S
C78 N86 1.356 . S
C79 C78 1.362 . S
C79 C85 1.364 1_565 S
C80 C81 1.363 . S
C80 C85 1.379 . S
C80 N87 1.356 . S
C81 C80 1.363 . S
C81 C84 1.363 1_545 S
N82 C84 1.356 . S
N82 H94 0.984 . S
N82 H95 0.985 . S
N83 C85 1.356 . S
N83 H88 0.984 . S
N83 H89 0.985 . S
C84 C78 1.379 . S
C84 C81 1.363 1_565 S
C84 N82 1.356 . S
C85 C79 1.364 1_545 S
C85 C80 1.379 . S
C85 N83 1.356 . S
N86 C78 1.356 . S
N86 H92 0.984 . S
N86 H93 0.984 . S
N87 C80 1.356 . S
N87 H90 0.984 . S
N87 H91 0.985 . S
H88 N83 0.984 . S
H89 N83 0.985 . S
H90 N87 0.984 . S
H91 N87 0.985 . S
H92 N86 0.984 . S
H93 N86 0.984 . S
H94 N82 0.984 . S
H95 N82 0.985 . S
C96 C97 1.364 1_455 S
C96 C102 1.379 . S
C96 N104 1.356 . S
C97 C96 1.364 1_655 S
C97 C103 1.362 . S
C98 C99 1.363 1_655 S
C98 C103 1.379 . S
C98 N105 1.356 . S
C99 C98 1.363 1_455 S
C99 C102 1.363 . S
N100 C102 1.356 . S
N100 H112 0.984 . S
N100 H113 0.985 . S
N101 C103 1.356 . S
N101 H106 0.984 . S
N101 H107 0.985 . S
C102 C96 1.379 . S
C102 C99 1.363 . S
C102 N100 1.356 . S
C103 C97 1.362 . S
C103 C98 1.379 . S
C103 N101 1.356 . S
N104 C96 1.356 . S
N104 H110 0.984 . S
N104 H111 0.984 . S
N105 C98 1.356 . S
N105 H108 0.984 . S
N105 H109 0.985 . S
H106 N101 0.984 . S
H107 N101 0.985 . S
H108 N105 0.984 . S
H109 N105 0.985 . S
H110 N104 0.984 . S
H111 N104 0.984 . S
H112 N100 0.984 . S
H113 N100 0.985 . S
C114 C115 1.361 1_565 S
C114 C120 1.379 . S
C114 N122 1.356 . S
C115 C114 1.361 1_545 S
C115 C121 1.365 . S
C116 C117 1.364 . S
C116 C121 1.379 . S
C116 N123 1.356 . S
C117 C116 1.364 . S
C117 C120 1.362 1_545 S
N118 C120 1.356 . S
N118 H130 0.984 . S
N118 H131 0.985 . S
N119 C121 1.356 . S
N119 H124 0.984 . S
N119 H125 0.985 . S
C120 C114 1.379 . S
C120 C117 1.362 1_565 S
C120 N118 1.356 . S
C121 C115 1.365 . S
C121 C116 1.379 . S
C121 N119 1.356 . S
N122 C114 1.356 . S
N122 H128 0.984 . S
N122 H129 0.984 . S
N123 C116 1.356 . S
N123 H126 0.984 . S
N123 H127 0.985 . S
H124 N119 0.984 . S
H125 N119 0.985 . S
H126 N123 0.984 . S
H127 N123 0.985 . S
H128 N122 0.984 . S
H129 N122 0.984 . S
H130 N118 0.984 . S
H131 N118 0.985 . S
C132 C133 1.362 . S
C132 C138 1.379 . S
C132 N140 1.356 . S
C133 C132 1.362 . S
C133 C139 1.364 1_655 S
C134 C135 1.363 . S
C134 C139 1.379 . S
C134 N141 1.356 . S
C135 C134 1.363 . S
C135 C138 1.363 1_455 S
N136 C138 1.356 . S
N136 H148 0.984 . S
N136 H149 0.985 . S
N137 C139 1.356 . S
N137 H142 0.984 . S
N137 H143 0.985 . S
C138 C132 1.379 . S
C138 C135 1.363 1_655 S
C138 N136 1.356 . S
C139 C133 1.364 1_455 S
C139 C134 1.379 . S
C139 N137 1.356 . S
N140 C132 1.356 . S
N140 H146 0.984 . S
N140 H147 0.984 . S
N141 C134 1.356 . S
N141 H144 0.984 . S
N141 H145 0.985 . S
H142 N137 0.984 . S
H143 N137 0.985 . S
H144 N141 0.984 . S
H145 N141 0.985 . S
H146 N140 0.984 . S
H147 N140 0.984 . S
H148 N136 0.984 . S
H149 N136 0.985 . S
C150 C151 1.365 . S
C150 C156 1.379 . S
C150 N158 1.356 . S
C151 C150 1.365 . S
C151 C157 1.361 1_545 S
C152 C153 1.362 1_565 S
C152 C157 1.379 . S
C152 N159 1.356 . S
C153 C152 1.362 1_545 S
C153 C156 1.364 . S
N154 C156 1.356 . S
N154 H166 0.984 . S
N154 H167 0.985 . S
N155 C157 1.356 . S
N155 H160 0.984 . S
N155 H161 0.985 . S
C156 C150 1.379 . S
C156 C153 1.364 . S
C156 N154 1.356 . S
C157 C151 1.361 1_565 S
C157 C152 1.379 . S
C157 N155 1.356 . S
N158 C150 1.356 . S
N158 H164 0.984 . S
N158 H165 0.984 . S
N159 C152 1.356 . S
N159 H162 0.984 . S
N159 H163 0.985 . S
H160 N155 0.984 . S
H161 N155 0.985 . S
H162 N159 0.984 . S
H163 N159 0.985 . S
H164 N158 0.984 . S
H165 N158 0.984 . S
H166 N154 0.984 . S
H167 N154 0.985 . S
C168 C169 1.361 1_655 S
C168 C174 1.379 . S
C168 N176 1.356 . S
C169 C168 1.361 1_455 S
C169 C175 1.364 . S
C170 C171 1.364 . S
C170 C175 1.379 . S
C170 N177 1.356 . S
C171 C170 1.364 . S
C171 C174 1.363 1_455 S
N172 C174 1.356 . S
N172 H184 0.984 . S
N172 H185 0.985 . S
N173 C175 1.356 . S
N173 H178 0.984 . S
N173 H179 0.985 . S
C174 C168 1.379 . S
C174 C171 1.363 1_655 S
C174 N172 1.356 . S
C175 C169 1.364 . S
C175 C170 1.379 . S
C175 N173 1.356 . S
N176 C168 1.356 . S
N176 H182 0.984 . S
N176 H183 0.984 . S
N177 C170 1.356 . S
N177 H180 0.984 . S
N177 H181 0.985 . S
H178 N173 0.984 . S
H179 N173 0.985 . S
H180 N177 0.984 . S
H181 N177 0.985 . S
H182 N176 0.984 . S
H183 N176 0.984 . S
H184 N172 0.984 . S
H185 N172 0.985 . S
C186 C187 1.364 1_545 S
C186 C192 1.379 . S
C186 N194 1.356 . S
C187 C186 1.364 1_565 S
C187 C193 1.362 . S
C188 C189 1.363 1_565 S
C188 C193 1.379 . S
C188 N195 1.356 . S
C189 C188 1.363 1_545 S
C189 C192 1.363 . S
N190 C192 1.356 . S
N190 H202 0.984 . S
N190 H203 0.985 . S
N191 C193 1.356 . S
N191 H196 0.984 . S
N191 H197 0.985 . S
C192 C186 1.379 . S
C192 C189 1.363 . S
C192 N190 1.356 . S
C193 C187 1.362 . S
C193 C188 1.379 . S
C193 N191 1.356 . S
N194 C186 1.356 . S
N194 H200 0.984 . S
N194 H201 0.984 . S
N195 C188 1.356 . S
N195 H198 0.984 . S
N195 H199 0.985 . S
H196 N191 0.984 . S
H197 N191 0.985 . S
H198 N195 0.984 . S
H199 N195 0.985 . S
H200 N194 0.984 . S
H201 N194 0.984 . S
H202 N190 0.984 . S
H203 N190 0.985 . S
C61 C22 1.418 1_455 S
C63 C33 1.469 1_455 S
C79 C8 1.419 1_565 S
C81 C59 1.469 1_545 S
C97 C31 1.417 1_655 S
C99 C45 1.469 . S
C115 C17 1.416 1_545 S
C117 C47 1.469 . S
C133 C30 1.419 1_655 S
C135 C32 1.471 . S
C151 C27 1.418 1_545 S
C153 C58 1.471 . S
C171 C44 1.470 1_455 S
C169 C23 1.417 1_455 S
C187 C24 1.417 1_565 S
C189 C46 1.471 1_545 S
