# Generated by pormake.
# Topology pyr, (3,6)-cn, num edge types: 1
# Building blocks:
#     Node 0, Type 0, BuildingBlock: OLANEW_clean_sbu_2, # of connection points: 3
#     Node 1, Type 0, BuildingBlock: OLANEW_clean_sbu_2, # of connection points: 3
#     Node 2, Type 0, BuildingBlock: OLANEW_clean_sbu_2, # of connection points: 3
#     Node 3, Type 0, BuildingBlock: OLANEW_clean_sbu_2, # of connection points: 3
#     Node 4, Type 0, BuildingBlock: OLANEW_clean_sbu_2, # of connection points: 3
#     Node 5, Type 0, BuildingBlock: OLANEW_clean_sbu_2, # of connection points: 3
#     Node 6, Type 0, BuildingBlock: OLANEW_clean_sbu_2, # of connection points: 3
#     Node 7, Type 0, BuildingBlock: OLANEW_clean_sbu_2, # of connection points: 3
#     Node 8, Type 1, BuildingBlock: JUFBIX_clean_sbu_0, # of connection points: 6
#     Node 9, Type 1, BuildingBlock: JUFBIX_clean_sbu_0, # of connection points: 6
#     Node 10, Type 1, BuildingBlock: JUFBIX_clean_sbu_0, # of connection points: 6
#     Node 11, Type 1, BuildingBlock: JUFBIX_clean_sbu_0, # of connection points: 6
#     Edge 12, Type (0, 1), None
#     Edge 13, Type (0, 1), None
#     Edge 14, Type (0, 1), None
#     Edge 15, Type (0, 1), None
#     Edge 16, Type (0, 1), None
#     Edge 17, Type (0, 1), None
#     Edge 18, Type (0, 1), None
#     Edge 19, Type (0, 1), None
#     Edge 20, Type (0, 1), None
#     Edge 21, Type (0, 1), None
#     Edge 22, Type (0, 1), None
#     Edge 23, Type (0, 1), None
#     Edge 24, Type (0, 1), None
#     Edge 25, Type (0, 1), None
#     Edge 26, Type (0, 1), None
#     Edge 27, Type (0, 1), None
#     Edge 28, Type (0, 1), None
#     Edge 29, Type (0, 1), None
#     Edge 30, Type (0, 1), None
#     Edge 31, Type (0, 1), None
#     Edge 32, Type (0, 1), None
#     Edge 33, Type (0, 1), None
#     Edge 34, Type (0, 1), None
#     Edge 35, Type (0, 1), None
# Relax obj value: 0.282
# Max RMSD: 0.185
# Mean RMSD: 0.126
data_MOF--net-pyr--node1-OLANEW_clean_sbu_2--node2-JUFBIX_clean_sbu_0--edge1-none
_symmetry_space_group_name_H-M    P1
_symmetry_Int_Tables_number       1
_symmetry_cell_setting            triclinic
loop_
_symmetry_equiv_pos_as_xyz
'x, y, z'
_cell_length_a     19.870282
_cell_length_b     17.865836
_cell_length_c     18.929209
_cell_angle_alpha  87.3167
_cell_angle_beta   89.201962
_cell_angle_gamma 97.8105
loop_
_atom_site_label
_atom_site_type_symbol
_atom_site_fract_x
_atom_site_fract_y
_atom_site_fract_z
_atom_type_partial_charge
O0 O 0.29227 0.15808 0.13307 0.0
Cd1 Cd 0.17487 0.19934 0.12338 0.0
O2 O 0.3119 0.11393 0.24283 0.0
Cd3 Cd 0.22674 0.11584 0.32081 0.0
O4 O 0.17505 0.0838 0.42626 0.0
C5 C 0.11145 0.08267 0.4369 0.0
O6 O 0.07397 0.1023 0.38439 0.0
C7 C 0.33044 0.12925 0.17815 0.0
C8 C 0.13656 0.34051 0.07067 0.0
O9 O 0.14713 0.29027 0.02713 0.0
O10 O 0.14818 0.32639 0.13612 0.0
O11 O 0.53907 0.86212 0.88982 0.0
Cd12 Cd 0.59624 0.75455 0.87744 0.0
O13 O 0.44139 0.79714 0.86498 0.0
Cd14 Cd 0.33307 0.78213 0.84446 0.0
O15 O 0.25571 0.84076 0.79606 0.0
C16 C 0.27979 0.90702 0.77294 0.0
O17 O 0.34478 0.93047 0.78052 0.0
C18 C 0.4751 0.85835 0.88433 0.0
C19 C 0.58209 0.69777 0.74542 0.0
O20 O 0.63105 0.74943 0.75842 0.0
O21 O 0.53805 0.67481 0.79451 0.0
O22 O 0.84186 0.42667 0.94888 0.0
Cd23 Cd 0.72001 0.40494 0.91566 0.0
O24 O 0.81948 0.43134 0.06272 0.0
Cd25 Cd 0.71197 0.38939 0.04598 0.0
O26 O 0.62346 0.30329 0.06498 0.0
C27 C 0.58502 0.26366 1.02346 0.0
O28 O 0.59281 0.27517 0.95464 0.0
C29 C 0.86246 0.43716 1.01179 0.0
C30 C 0.68143 0.45862 0.78171 0.0
O31 O 0.7049 0.50387 0.8287 0.0
O32 O 0.67755 0.38744 0.79624 0.0
O33 O 0.97405 0.78972 0.4965 0.0
Cd34 Cd 0.92893 0.6604 0.46721 0.0
O35 O 1.02272 0.74289 0.58847 0.0
Cd36 Cd 0.04364 0.73672 0.7021 0.0
O37 O 0.9383 0.68357 0.69493 0.0
C38 C 0.89967 0.73254 0.67928 0.0
O39 O 0.92095 0.80367 0.6906 0.0
C40 C 1.00645 0.80005 0.55344 0.0
C41 C 0.98886 0.60299 0.35165 0.0
O42 O 1.01254 0.59643 0.41403 0.0
O43 O 0.93725 0.63823 0.34331 0.0
O44 O 0.94868 0.90819 0.85964 0.0
Cd45 Cd 0.90002 0.84705 0.96994 0.0
O46 O 0.86307 0.96797 0.82407 0.0
Cd47 Cd 0.78924 0.96425 0.91823 0.0
O48 O 0.69501 0.98445 0.98164 0.0
C49 C 0.69049 1.00895 0.04394 0.0
O50 O 0.74587 0.02458 0.08049 0.0
C51 C 0.92119 0.94638 0.81259 0.0
C52 C 0.96814 0.72275 1.00103 0.0
O53 O 0.92487 0.72192 0.95157 0.0
O54 O 0.97878 0.78155 0.03761 0.0
O55 O 0.55064 0.07685 0.45935 0.0
Cd56 Cd 0.57202 0.03513 0.57942 0.0
O57 O 0.64138 0.15968 0.46927 0.0
Cd58 Cd 0.72057 0.25714 0.44716 0.0
O59 O 0.73039 0.37403 0.47998 0.0
C60 C 0.67082 0.39096 0.48744 0.0
O61 O 0.6192 0.34163 0.4701 0.0
C62 C 0.59573 0.12658 0.4304 0.0
C63 C 0.70808 0.01836 0.56629 0.0
O64 O 0.66148 0.97423 0.5373 0.0
O65 O 0.69048 0.06818 0.60678 0.0
O66 O 0.51089 0.83964 0.25694 0.0
Cd67 Cd 0.51228 0.70502 0.29344 0.0
O68 O 0.43045 0.80086 0.18433 0.0
Cd69 Cd 0.34777 0.77791 0.10813 0.0
O70 O 0.2531 0.70022 0.08978 0.0
C71 C 0.23868 0.66226 0.03533 0.0
O72 O 0.28105 0.66985 0.98081 0.0
C73 C 0.47123 0.85515 0.20762 0.0
C74 C 0.55921 0.66001 0.42595 0.0
O75 O 0.60115 0.68498 0.37549 0.0
O76 O 0.49561 0.65976 0.4153 0.0
O77 O 0.12686 0.53903 0.64421 0.0
Cd78 Cd 0.18128 0.49264 0.54282 0.0
O79 O 0.15596 0.43883 0.69926 0.0
Cd80 Cd 0.12591 0.34315 0.77202 0.0
O81 O 0.08725 0.23105 0.73879 0.0
C82 C 0.03955 0.21784 0.69491 0.0
O83 O 1.00659 0.27255 0.67141 0.0
C84 C 0.12795 0.49831 0.70089 0.0
C85 C 0.30869 0.46257 0.58383 0.0
O86 O 0.25884 0.40875 0.58514 0.0
O87 O 0.29807 0.52886 0.562 0.0
Co88 Co 0.9705 0.0195 0.60121 0.0
C89 C 1.01343 0.87505 0.58323 0.0
Co90 Co 0.06757 0.9992 0.64825 0.0
C91 C 0.82919 0.04139 0.58847 0.0
C92 C 0.86722 0.98511 0.50187 0.0
N93 N 0.88693 0.02233 0.56019 0.0
N94 N 0.7743 0.01403 0.55169 0.0
C95 C 0.79795 0.97863 0.49731 0.0
H96 H 0.82682 0.06861 0.63821 0.0
H97 H 0.90057 0.95946 0.46751 0.0
C98 C 0.02744 0.14279 0.66606 0.0
N99 N 0.15114 0.99419 0.68741 0.0
C100 C 0.1737 0.93626 0.72398 0.0
C101 C 0.20516 0.04886 0.68081 0.0
N102 N 0.2399 0.95271 0.73967 0.0
C103 C 0.25986 0.02352 0.71296 0.0
C104 C 0.07859 0.05718 0.50632 0.0
O105 O 0.97534 0.12113 0.63003 0.0
O106 O 0.07145 0.09881 0.6774 0.0
O107 O 0.11246 0.03564 0.55837 0.0
O108 O 1.01477 0.05507 0.51387 0.0
O109 O 0.06412 0.89848 0.61974 0.0
H110 H 0.2051 0.10316 0.65303 0.0
H111 H 0.14269 0.8826 0.73715 0.0
O112 O 0.96784 0.91734 0.57214 0.0
O113 O 0.92539 0.9853 0.68981 0.0
O114 O 1.02149 0.96395 0.73717 0.0
C115 C 0.95766 0.96584 0.74358 0.0
H116 H 0.76723 0.94939 0.45759 0.0
H117 H 0.3106 0.05425 0.71547 0.0
Co118 Co 0.48571 0.04651 0.06518 0.0
C119 C 0.47796 0.9336 0.17694 0.0
Co120 Co 0.53326 0.08301 0.16438 0.0
C121 C 0.4786 0.97934 0.93256 0.0
C122 C 0.38194 0.96619 0.98541 0.0
N123 N 0.44417 1.00744 0.98459 0.0
N124 N 0.44403 0.91616 0.90763 0.0
C125 C 0.38172 0.90976 0.93823 0.0
H126 H 0.53219 0.99664 0.9216 0.0
H127 H 0.34384 0.96722 0.0266 0.0
C128 C 0.54661 0.19344 0.05421 0.0
N129 N 0.57337 0.12065 0.2454 0.0
C130 C 0.55358 0.10348 0.31329 0.0
C131 C 0.63038 0.17074 0.24888 0.0
N132 N 0.59643 0.1401 0.3591 0.0
C133 C 0.64468 0.18287 0.31866 0.0
C134 C 0.62415 0.02576 0.07301 0.0
O135 O 0.51618 0.14256 1.01648 0.0
O136 O 0.55411 0.1789 0.11951 0.0
O137 O 0.62042 0.05745 0.13161 0.0
O138 O 0.57044 0.01238 0.03773 0.0
O139 O 0.51323 0.98557 0.20904 0.0
H140 H 0.6607 0.19536 0.20358 0.0
H141 H 0.50983 0.06271 0.32882 0.0
O142 O 0.45738 0.9486 0.11512 0.0
O143 O 0.40265 0.08272 0.09296 0.0
O144 O 0.44627 0.10884 0.1961 0.0
C145 C 0.39637 0.10739 0.1543 0.0
H146 H 0.34346 0.8607 0.93797 0.0
H147 H 0.68901 0.21732 0.33734 0.0
Co148 Co 0.67219 0.5885 0.59327 0.0
C149 C 0.58288 0.62667 0.49216 0.0
Co150 Co 0.57003 0.52584 0.61208 0.0
C151 C 0.81024 0.64579 0.62862 0.0
C152 C 0.75983 0.72461 0.56754 0.0
N153 N 0.75563 0.65032 0.58743 0.0
N154 N 0.84491 0.71474 0.63847 0.0
C155 C 0.81387 0.76426 0.59959 0.0
H156 H 0.82004 0.59463 0.65724 0.0
H157 H 0.7213 0.75019 0.53911 0.0
C158 C 0.65928 0.48871 0.71352 0.0
N159 N 0.48373 0.47232 0.61932 0.0
C160 C 0.42687 0.50258 0.60393 0.0
C161 C 0.46287 0.39762 0.63117 0.0
N162 N 0.37168 0.44997 0.60364 0.0
C163 C 0.39346 0.38367 0.62182 0.0
C164 C 0.65694 0.45633 0.52641 0.0
O165 O 0.69784 0.54107 0.67959 0.0
O166 O 0.59969 0.46834 0.69138 0.0
O167 O 0.59675 0.45571 0.55021 0.0
O168 O 0.70317 0.51027 0.54032 0.0
O169 O 0.54134 0.58392 0.5326 0.0
H170 H 0.49625 0.35579 0.64284 0.0
H171 H 0.4263 0.56209 0.59062 0.0
O172 O 0.64535 0.63535 0.50702 0.0
O173 O 0.641 0.66409 0.64695 0.0
O174 O 0.54407 0.59539 0.6753 0.0
C175 C 0.58607 0.6542 0.6828 0.0
H176 H 0.82784 0.82513 0.5965 0.0
H177 H 0.36218 0.32896 0.62525 0.0
Co178 Co 0.06282 0.5285 0.9726 0.0
C179 C 0.93501 0.46411 1.02341 0.0
Co180 Co 0.04792 0.54083 0.08782 0.0
C181 C 0.10614 0.49543 0.82825 0.0
C182 C 0.02785 0.56642 0.83045 0.0
N183 N 0.06671 0.52795 0.87336 0.0
N184 N 0.09469 0.51499 0.75986 0.0
C185 C 0.04616 0.56018 0.76134 0.0
H186 H 0.14482 0.4617 0.84522 0.0
H187 H 0.98825 0.59776 0.84752 0.0
C188 C 0.17329 0.61219 0.03288 0.0
N189 N 0.0427 0.54376 0.18588 0.0
C190 C 1.0001 0.57611 0.22749 0.0
C191 C 0.08859 0.51984 0.23067 0.0
N192 N 1.01818 0.57346 0.29607 0.0
C193 C 0.07343 0.53757 0.29832 0.0
C194 C 0.10759 0.41074 0.04922 0.0
O195 O 0.15152 0.58608 0.97472 0.0
O196 O 0.13693 0.59712 0.08894 0.0
O197 O 0.08561 0.44801 0.09802 0.0
O198 O 0.10258 0.43425 0.98484 0.0
O199 O 0.95659 0.48604 0.08344 0.0
H200 H 0.13202 0.49357 0.21492 0.0
H201 H 0.95801 0.60302 0.20767 0.0
O202 O 0.97502 0.47371 0.97005 0.0
O203 O 1.02296 0.62103 0.96447 0.0
O204 O 1.01117 0.63286 0.07821 0.0
C205 C 1.00355 0.65708 1.01542 0.0
H206 H 1.02464 0.58559 0.71542 0.0
H207 H 0.10196 0.52678 0.34521 0.0
loop_
_geom_bond_atom_site_label_1
_geom_bond_atom_site_label_2
_geom_bond_distance
_geom_bond_site_symmetry_2
_ccdc_geom_bond_type
O0 Cd1 2.300 . S
O0 C7 1.275 . S
Cd1 O0 2.300 . S
Cd1 O9 2.381 . S
Cd1 O10 2.378 . S
O2 Cd3 2.385 1_545 S
O2 C7 1.255 . S
Cd3 O2 2.385 1_565 S
Cd3 O4 2.317 1_565 S
O4 Cd3 2.317 1_545 S
O4 C5 1.232 1_545 S
C5 O4 1.232 1_565 S
C5 O6 1.218 . S
O6 C5 1.218 . S
C7 O0 1.275 . S
C7 O2 1.255 . S
C8 O9 1.258 . S
C8 O10 1.256 . S
O9 Cd1 2.381 . S
O9 C8 1.258 . S
O10 Cd1 2.378 . S
O10 C8 1.256 . S
O11 Cd12 2.300 . S
O11 C18 1.275 . S
Cd12 O11 2.300 . S
Cd12 O20 2.381 . S
Cd12 O21 2.378 . S
O13 Cd14 2.385 . S
O13 C18 1.255 . S
Cd14 O13 2.385 . S
Cd14 O15 2.317 . S
O15 Cd14 2.317 . S
O15 C16 1.232 . S
C16 O15 1.232 . S
C16 O17 1.218 . S
O17 C16 1.218 . S
C18 O11 1.275 . S
C18 O13 1.255 . S
C19 O20 1.258 . S
C19 O21 1.256 . S
O20 Cd12 2.381 . S
O20 C19 1.258 . S
O21 Cd12 2.378 . S
O21 C19 1.256 . S
O22 Cd23 2.300 . S
O22 C29 1.275 . S
Cd23 O22 2.300 . S
Cd23 O31 2.381 . S
Cd23 O32 2.378 . S
O24 Cd25 2.385 . S
O24 C29 1.255 . S
Cd25 O24 2.385 . S
Cd25 O26 2.317 . S
O26 Cd25 2.317 . S
O26 C27 1.232 1_556 S
C27 O26 1.232 1_554 S
C27 O28 1.218 . S
O28 C27 1.218 . S
C29 O22 1.275 . S
C29 O24 1.255 . S
C30 O31 1.258 . S
C30 O32 1.256 . S
O31 Cd23 2.381 . S
O31 C30 1.258 . S
O32 Cd23 2.378 . S
O32 C30 1.256 . S
O33 Cd34 2.300 . S
O33 C40 1.275 . S
Cd34 O33 2.300 . S
Cd34 O42 2.381 . S
Cd34 O43 2.378 . S
O35 Cd36 2.385 1_455 S
O35 C40 1.255 . S
Cd36 O35 2.385 1_655 S
Cd36 O37 2.317 . S
O37 Cd36 2.317 . S
O37 C38 1.232 . S
C38 O37 1.232 . S
C38 O39 1.218 . S
O39 C38 1.218 . S
C40 O33 1.275 . S
C40 O35 1.255 . S
C41 O42 1.258 . S
C41 O43 1.256 . S
O42 Cd34 2.381 . S
O42 C41 1.258 . S
O43 Cd34 2.378 . S
O43 C41 1.256 . S
O44 Cd45 2.300 . S
O44 C51 1.275 . S
Cd45 O44 2.300 . S
Cd45 O53 2.381 . S
Cd45 O54 2.378 1_556 S
O46 Cd47 2.385 1_556 S
O46 C51 1.255 1_545 S
Cd47 O46 2.385 1_554 S
Cd47 O48 2.317 1_545 S
O48 Cd47 2.317 1_565 S
O48 C49 1.232 1_564 S
C49 O48 1.232 1_546 S
C49 O50 1.218 . S
O50 C49 1.218 . S
C51 O44 1.275 . S
C51 O46 1.255 1_565 S
C52 O53 1.258 1_554 S
C52 O54 1.256 . S
O53 Cd45 2.381 . S
O53 C52 1.258 1_556 S
O54 Cd45 2.378 1_554 S
O54 C52 1.256 . S
O55 Cd56 2.300 . S
O55 C62 1.275 . S
Cd56 O55 2.300 . S
Cd56 O64 2.381 . S
Cd56 O65 2.378 . S
O57 Cd58 2.385 . S
O57 C62 1.255 . S
Cd58 O57 2.385 . S
Cd58 O59 2.317 . S
O59 Cd58 2.317 . S
O59 C60 1.232 . S
C60 O59 1.232 . S
C60 O61 1.218 . S
O61 C60 1.218 . S
C62 O55 1.275 . S
C62 O57 1.255 . S
C63 O64 1.258 . S
C63 O65 1.256 . S
O64 Cd56 2.381 . S
O64 C63 1.258 . S
O65 Cd56 2.378 . S
O65 C63 1.256 . S
O66 Cd67 2.300 . S
O66 C73 1.275 . S
Cd67 O66 2.300 . S
Cd67 O75 2.381 . S
Cd67 O76 2.378 . S
O68 Cd69 2.385 . S
O68 C73 1.255 . S
Cd69 O68 2.385 . S
Cd69 O70 2.317 . S
O70 Cd69 2.317 . S
O70 C71 1.232 . S
C71 O70 1.232 . S
C71 O72 1.218 . S
O72 C71 1.218 . S
C73 O66 1.275 . S
C73 O68 1.255 . S
C74 O75 1.258 . S
C74 O76 1.256 . S
O75 Cd67 2.381 . S
O75 C74 1.258 . S
O76 Cd67 2.378 . S
O76 C74 1.256 . S
O77 Cd78 2.300 . S
O77 C84 1.275 . S
Cd78 O77 2.300 . S
Cd78 O86 2.381 . S
Cd78 O87 2.378 . S
O79 Cd80 2.385 . S
O79 C84 1.255 . S
Cd80 O79 2.385 . S
Cd80 O81 2.317 . S
O81 Cd80 2.317 . S
O81 C82 1.232 1_455 S
C82 O81 1.232 1_655 S
C82 O83 1.218 . S
O83 C82 1.218 . S
C84 O77 1.275 . S
C84 O79 1.255 . S
C85 O86 1.258 . S
C85 O87 1.256 . S
O86 Cd78 2.381 . S
O86 C85 1.258 . S
O87 Cd78 2.378 . S
O87 C85 1.256 . S
Co88 N93 2.057 . S
Co88 O105 2.021 . S
Co88 O108 2.062 . S
Co88 O112 2.117 1_545 S
Co88 O113 2.020 1_545 S
C89 O109 1.259 1_655 S
C89 O112 1.258 . S
Co90 N99 2.057 . S
Co90 O106 2.117 1_565 S
Co90 O107 2.020 1_565 S
Co90 O109 2.021 . S
Co90 O114 2.062 . S
C91 N93 1.316 . S
C91 N94 1.347 . S
C91 H96 0.931 . S
C92 N93 1.375 1_565 S
C92 C95 1.350 . S
C92 H97 0.930 . S
N93 Co88 2.057 . S
N93 C91 1.316 . S
N93 C92 1.375 1_545 S
N94 C91 1.347 . S
N94 C95 1.373 1_545 S
C95 C92 1.350 . S
C95 N94 1.373 1_565 S
C95 H116 0.931 . S
H96 C91 0.931 . S
H97 C92 0.930 . S
C98 O105 1.259 1_455 S
C98 O106 1.258 . S
N99 Co90 2.057 . S
N99 C100 1.316 . S
N99 C101 1.375 1_565 S
C100 N99 1.316 . S
C100 N102 1.347 . S
C100 H111 0.931 . S
C101 N99 1.375 1_545 S
C101 C103 1.350 . S
C101 H110 0.930 . S
N102 C100 1.347 . S
N102 C103 1.373 1_565 S
C103 C101 1.350 . S
C103 N102 1.373 1_545 S
C103 H117 0.931 . S
C104 O107 1.256 . S
C104 O108 1.255 1_455 S
O105 Co88 2.021 . S
O105 C98 1.259 1_655 S
O106 Co90 2.117 1_545 S
O106 C98 1.258 . S
O107 Co90 2.020 1_545 S
O107 C104 1.256 . S
O108 Co88 2.062 . S
O108 C104 1.255 1_655 S
O109 C89 1.259 1_455 S
O109 Co90 2.021 . S
H110 C101 0.930 . S
H111 C100 0.931 . S
O112 Co88 2.117 1_565 S
O112 C89 1.258 . S
O113 Co88 2.020 1_565 S
O113 C115 1.256 . S
O114 Co90 2.062 . S
O114 C115 1.255 1_455 S
C115 O113 1.256 . S
C115 O114 1.255 1_655 S
H116 C95 0.931 . S
H117 C103 0.931 . S
Co118 N123 2.057 1_544 S
Co118 O135 2.021 1_554 S
Co118 O138 2.062 1_545 S
Co118 O142 2.117 1_545 S
Co118 O143 2.020 . S
C119 O139 1.259 . S
C119 O142 1.258 . S
Co120 N129 2.057 . S
Co120 O136 2.117 . S
Co120 O137 2.020 . S
Co120 O139 2.021 1_545 S
Co120 O144 2.062 . S
C121 N123 1.316 . S
C121 N124 1.347 . S
C121 H126 0.931 1_565 S
C122 N123 1.375 . S
C122 C125 1.350 . S
C122 H127 0.930 . S
N123 Co118 2.057 1_566 S
N123 C121 1.316 . S
N123 C122 1.375 . S
N124 C121 1.347 . S
N124 C125 1.373 . S
C125 C122 1.350 . S
C125 N124 1.373 . S
C125 H146 0.931 . S
H126 C121 0.931 1_545 S
H127 C122 0.930 . S
C128 O135 1.259 1_554 S
C128 O136 1.258 . S
N129 Co120 2.057 . S
N129 C130 1.316 . S
N129 C131 1.375 . S
C130 N129 1.316 . S
C130 N132 1.347 . S
C130 H141 0.931 . S
C131 N129 1.375 . S
C131 C133 1.350 . S
C131 H140 0.930 . S
N132 C130 1.347 . S
N132 C133 1.373 . S
C133 C131 1.350 . S
C133 N132 1.373 . S
C133 H147 0.931 . S
C134 O137 1.257 . S
C134 O138 1.255 1_545 S
O135 Co118 2.021 1_556 S
O135 C128 1.259 1_556 S
O136 Co120 2.117 . S
O136 C128 1.258 . S
O137 Co120 2.020 . S
O137 C134 1.257 . S
O138 Co118 2.062 1_565 S
O138 C134 1.255 1_565 S
O139 C119 1.259 . S
O139 Co120 2.021 1_565 S
H140 C131 0.930 . S
H141 C130 0.931 . S
O142 Co118 2.117 1_565 S
O142 C119 1.258 . S
O143 Co118 2.020 . S
O143 C145 1.256 . S
O144 Co120 2.062 . S
O144 C145 1.255 . S
C145 O143 1.256 . S
C145 O144 1.255 . S
H146 C125 0.931 . S
H147 C133 0.931 . S
Co148 N153 2.057 . S
Co148 O165 2.021 . S
Co148 O168 2.062 . S
Co148 O172 2.117 . S
Co148 O173 2.020 . S
C149 O169 1.259 . S
C149 O172 1.258 . S
Co150 N159 2.057 . S
Co150 O166 2.117 . S
Co150 O167 2.020 . S
Co150 O169 2.021 . S
Co150 O174 2.062 . S
C151 N153 1.316 . S
C151 N154 1.347 . S
C151 H156 0.931 . S
C152 N153 1.375 . S
C152 C155 1.350 . S
C152 H157 0.930 . S
N153 Co148 2.057 . S
N153 C151 1.316 . S
N153 C152 1.375 . S
N154 C151 1.347 . S
N154 C155 1.373 . S
C155 C152 1.350 . S
C155 N154 1.373 . S
C155 H176 0.931 . S
H156 C151 0.931 . S
H157 C152 0.930 . S
C158 O165 1.259 . S
C158 O166 1.258 . S
N159 Co150 2.057 . S
N159 C160 1.316 . S
N159 C161 1.375 . S
C160 N159 1.316 . S
C160 N162 1.347 . S
C160 H171 0.931 . S
C161 N159 1.375 . S
C161 C163 1.350 . S
C161 H170 0.930 . S
N162 C160 1.347 . S
N162 C163 1.373 . S
C163 C161 1.350 . S
C163 N162 1.373 . S
C163 H177 0.931 . S
C164 O167 1.256 . S
C164 O168 1.255 . S
O165 Co148 2.021 . S
O165 C158 1.259 . S
O166 Co150 2.117 . S
O166 C158 1.258 . S
O167 Co150 2.020 . S
O167 C164 1.256 . S
O168 Co148 2.062 . S
O168 C164 1.255 . S
O169 C149 1.259 . S
O169 Co150 2.021 . S
H170 C161 0.930 . S
H171 C160 0.931 . S
O172 Co148 2.117 . S
O172 C149 1.258 . S
O173 Co148 2.020 . S
O173 C175 1.256 . S
O174 Co150 2.062 . S
O174 C175 1.255 . S
C175 O173 1.256 . S
C175 O174 1.255 . S
H176 C155 0.931 . S
H177 C163 0.931 . S
Co178 N183 2.057 . S
Co178 O195 2.021 . S
Co178 O198 2.062 1_556 S
Co178 O202 2.117 1_455 S
Co178 O203 2.020 . S
C179 O199 1.259 . S
C179 O202 1.258 1_554 S
Co180 N189 2.057 . S
Co180 O196 2.117 . S
Co180 O197 2.020 . S
Co180 O199 2.021 1_455 S
Co180 O204 2.062 1_455 S
C181 N183 1.316 . S
C181 N184 1.347 . S
C181 H186 0.931 . S
C182 N183 1.375 . S
C182 C185 1.350 . S
C182 H187 0.930 1_455 S
N183 Co178 2.057 . S
N183 C181 1.316 . S
N183 C182 1.375 . S
N184 C181 1.347 . S
N184 C185 1.373 . S
C185 C182 1.350 . S
C185 N184 1.373 . S
C185 H206 0.931 1_455 S
H186 C181 0.931 . S
H187 C182 0.930 1_655 S
C188 O195 1.259 1_554 S
C188 O196 1.258 . S
N189 Co180 2.057 . S
N189 C190 1.316 1_455 S
N189 C191 1.375 . S
C190 N189 1.316 1_655 S
C190 N192 1.347 . S
C190 H201 0.931 . S
C191 N189 1.375 . S
C191 C193 1.350 . S
C191 H200 0.930 . S
N192 C190 1.347 . S
N192 C193 1.373 1_655 S
C193 C191 1.350 . S
C193 N192 1.373 1_455 S
C193 H207 0.931 . S
C194 O197 1.256 . S
C194 O198 1.255 . S
O195 Co178 2.021 . S
O195 C188 1.259 1_556 S
O196 Co180 2.117 . S
O196 C188 1.258 . S
O197 Co180 2.020 . S
O197 C194 1.256 . S
O198 Co178 2.062 1_554 S
O198 C194 1.255 . S
O199 C179 1.259 . S
O199 Co180 2.021 1_655 S
H200 C191 0.930 . S
H201 C190 0.931 . S
O202 Co178 2.117 1_655 S
O202 C179 1.258 1_556 S
O203 Co178 2.020 . S
O203 C205 1.256 . S
O204 Co180 2.062 1_655 S
O204 C205 1.255 1_654 S
C205 O203 1.256 . S
C205 O204 1.255 1_456 S
H206 C185 0.931 1_655 S
H207 C193 0.931 . S
C5 C104 3.459 1_565 S
C18 N124 1.093 . S
C158 C30 2.161 . S
C41 N192 1.992 1_455 S
C145 C7 3.527 . S
N102 C16 0.565 . S
C179 C29 2.752 1_554 S
N154 C38 2.226 . S
C8 C194 2.311 . S
C128 C27 2.299 . S
C40 C89 1.563 1_455 S
C19 C175 0.850 . S
C115 C51 2.961 . S
C62 N132 0.919 . S
C74 C149 2.292 . S
C84 N184 1.115 . S
C49 C134 3.407 1_556 S
N94 C63 0.987 . S
C188 C71 2.143 . S
N162 C85 1.030 . S
C52 C205 2.188 1_654 S
C119 C73 2.206 . S
C98 C82 1.299 1_455 S
C60 C164 1.510 . S
