# Generated by pormake.
# Topology nia, (6,6)-cn, num edge types: 1
# Building blocks:
#     Node 0, Type 0, BuildingBlock: CIFDUS_clean_sbu_1, # of connection points: 6
#     Node 1, Type 0, BuildingBlock: CIFDUS_clean_sbu_1, # of connection points: 6
#     Node 2, Type 1, BuildingBlock: MIDCAF_clean_sbu_0, # of connection points: 6
#     Node 3, Type 1, BuildingBlock: MIDCAF_clean_sbu_0, # of connection points: 6
#     Edge 4, Type (0, 1), BuildingBlock: OJICUG_clean_linker_0, # of connection points: 2
#     Edge 5, Type (0, 1), BuildingBlock: OJICUG_clean_linker_0, # of connection points: 2
#     Edge 6, Type (0, 1), BuildingBlock: OJICUG_clean_linker_0, # of connection points: 2
#     Edge 7, Type (0, 1), BuildingBlock: OJICUG_clean_linker_0, # of connection points: 2
#     Edge 8, Type (0, 1), BuildingBlock: OJICUG_clean_linker_0, # of connection points: 2
#     Edge 9, Type (0, 1), BuildingBlock: OJICUG_clean_linker_0, # of connection points: 2
#     Edge 10, Type (0, 1), BuildingBlock: OJICUG_clean_linker_0, # of connection points: 2
#     Edge 11, Type (0, 1), BuildingBlock: OJICUG_clean_linker_0, # of connection points: 2
#     Edge 12, Type (0, 1), BuildingBlock: OJICUG_clean_linker_0, # of connection points: 2
#     Edge 13, Type (0, 1), BuildingBlock: OJICUG_clean_linker_0, # of connection points: 2
#     Edge 14, Type (0, 1), BuildingBlock: OJICUG_clean_linker_0, # of connection points: 2
#     Edge 15, Type (0, 1), BuildingBlock: OJICUG_clean_linker_0, # of connection points: 2
# Relax obj value: 0.123
# Max RMSD: 0.237
# Mean RMSD: 0.158
data_MOF--net-nia--node1-CIFDUS_clean_sbu_1--node2-MIDCAF_clean_sbu_0--edge1-OJICUG_clean_linker_0
_symmetry_space_group_name_H-M    P1
_symmetry_Int_Tables_number       1
_symmetry_cell_setting            triclinic
loop_
_symmetry_equiv_pos_as_xyz
'x, y, z'
_cell_length_a     17.456872
_cell_length_b     17.504381
_cell_length_c     25.198273
_cell_angle_alpha  89.237577
_cell_angle_beta   89.397965
_cell_angle_gamma 127.46017
loop_
_atom_site_label
_atom_site_type_symbol
_atom_site_fract_x
_atom_site_fract_y
_atom_site_fract_z
_atom_type_partial_charge
O0 O 0.96118 0.9079 0.95773 0.0
Mn1 Mn 0.98992 0.00264 0.01885 0.0
O2 O 0.82774 0.7624 0.98294 0.0
Mn3 Mn 0.84294 0.78988 0.05382 0.0
O4 O 0.01988 0.09711 0.0806 0.0
O5 O 0.11271 0.10347 0.97695 0.0
Mn6 Mn 0.13127 0.21379 0.98373 0.0
O7 O 0.91541 0.04221 0.9766 0.0
O8 O 0.15225 0.24232 0.05429 0.0
O9 O 0.06147 0.96115 0.06246 0.0
O10 O 0.94477 0.80616 0.08773 0.0
O11 O 0.23027 0.24283 0.94049 0.0
O12 O 0.02658 0.19939 0.95483 0.0
C13 C 0.79232 0.85925 0.09085 0.0
C14 C 0.89108 0.81997 0.94806 0.0
C15 C 0.09153 0.1846 0.09004 0.0
C16 C 0.19005 0.15203 0.94681 0.0
C17 C 0.94074 0.12148 0.95468 0.0
C18 C 0.03104 0.88361 0.08907 0.0
O19 O 0.86705 0.90228 0.0593 0.0
O20 O 0.74473 0.7669 0.09578 0.0
O21 O 0.09933 0.03302 0.58082 0.0
Mn22 Mn 0.00447 0.00914 0.52083 0.0
O23 O 0.24945 0.15367 0.55189 0.0
Mn24 Mn 0.21712 0.14354 0.4815 0.0
O25 O 0.91282 0.98804 0.45868 0.0
O26 O 0.90027 0.88928 0.56754 0.0
Mn27 Mn 0.79916 0.88502 0.55091 0.0
O28 O 0.97769 0.09199 0.56244 0.0
O29 O 0.76928 0.85457 0.48155 0.0
O30 O 0.0343 0.92915 0.47653 0.0
O31 O 0.18725 0.03878 0.44499 0.0
O32 O 0.74621 0.78508 0.59579 0.0
O33 O 0.81724 0.99315 0.57632 0.0
C34 C 0.15442 0.20583 0.4496 0.0
C35 C 0.19018 0.09586 0.58826 0.0
C36 C 0.82735 0.91575 0.44667 0.0
C37 C 0.83427 0.81353 0.59703 0.0
C38 C 0.89955 0.07409 0.58057 0.0
C39 C 0.10642 0.95494 0.44588 0.0
O40 O 0.10879 0.12943 0.47984 0.0
O41 O 0.24525 0.24657 0.44189 0.0
Zn42 Zn 0.30631 0.67966 0.17286 0.0
Zn43 Zn 0.32882 0.7097 0.368 0.0
Zn44 Zn 0.31302 0.68982 0.27066 0.0
C45 C 0.51426 0.80775 0.3373 0.0
C46 C 0.20965 0.51336 0.35614 0.0
O47 O 0.24839 0.75986 0.23996 0.0
O48 O 0.24123 0.73268 0.15398 0.0
C49 C 0.49828 0.80738 0.18964 0.0
O50 O 0.46933 0.7749 0.29316 0.0
O51 O 0.46783 0.79193 0.37988 0.0
O52 O 0.24976 0.57526 0.39176 0.0
O53 O 0.22748 0.54075 0.30674 0.0
O54 O 0.44131 0.77144 0.15154 0.0
O55 O 0.46489 0.78056 0.23779 0.0
O56 O 0.23203 0.53451 0.25098 0.0
O57 O 0.23948 0.54223 0.16317 0.0
C58 C 0.21244 0.4932 0.20582 0.0
O59 O 0.23431 0.74718 0.29602 0.0
O60 O 0.25863 0.75885 0.38247 0.0
C61 C 0.22966 0.77047 0.19216 0.0
C62 C 0.21829 0.76375 0.34297 0.0
Zn63 Zn 0.70611 0.32496 0.91621 0.0
Zn64 Zn 0.66795 0.31822 0.68025 0.0
Zn65 Zn 0.68309 0.3114 0.77177 0.0
C66 C 0.75702 0.50135 0.70477 0.0
C67 C 0.48341 0.1866 0.71454 0.0
O68 O 0.74593 0.2327 0.7832 0.0
O69 O 0.72525 0.2811 0.85375 0.0
C70 C 0.79672 0.50532 0.84979 0.0
O71 O 0.76386 0.46601 0.74803 0.0
O72 O 0.70184 0.44609 0.66894 0.0
O73 O 0.53287 0.20346 0.67307 0.0
O74 O 0.52641 0.22753 0.75795 0.0
O75 O 0.77752 0.46445 0.8954 0.0
O76 O 0.76699 0.45826 0.80603 0.0
O77 O 0.54172 0.22643 0.81776 0.0
O78 O 0.56211 0.23871 0.90655 0.0
C79 C 0.50782 0.20482 0.86634 0.0
O80 O 0.75784 0.25972 0.73013 0.0
O81 O 0.76823 0.31526 0.64937 0.0
C82 C 0.74932 0.23411 0.83345 0.0
C83 C 0.79164 0.2782 0.68196 0.0
C84 C 0.18911 0.91764 0.1074 0.0
C85 C 0.09569 0.88048 0.12427 0.0
H86 H 0.30689 0.91186 0.11786 0.0
C87 C 0.05759 0.8259 0.17216 0.0
H88 H 0.21983 0.95975 0.07079 0.0
C89 C 0.10748 0.79921 0.19942 0.0
C90 C 0.19571 0.82674 0.17883 0.0
H91 H 0.98583 0.79775 0.18633 0.0
H92 H 0.07279 0.74941 0.23309 0.0
C93 C 0.23867 0.89037 0.13445 0.0
C94 C 0.28373 0.18414 0.66724 0.0
C95 C 0.23244 0.09848 0.63894 0.0
H96 H 0.40331 0.27737 0.71721 0.0
C97 C 0.24774 0.02989 0.6496 0.0
H98 H 0.27431 0.2388 0.65875 0.0
C99 C 0.3225 0.05241 0.68277 0.0
C100 C 0.38136 0.14298 0.70623 0.0
H101 H 0.21036 0.96429 0.62727 0.0
H102 H 0.34153 0.00397 0.68493 0.0
C103 C 0.35715 0.20588 0.70104 0.0
C104 C 0.19078 0.27957 0.16553 0.0
C105 C 0.10058 0.2279 0.1413 0.0
H106 H 0.2969 0.4062 0.20769 0.0
C107 C 0.03688 0.24897 0.15387 0.0
H108 H 0.24151 0.26529 0.15566 0.0
C109 C 0.06908 0.33042 0.18333 0.0
C110 C 0.16436 0.38996 0.20104 0.0
H111 H 0.96775 0.2112 0.1348 0.0
H112 H 0.0238 0.35322 0.18656 0.0
C113 C 0.22258 0.36032 0.19522 0.0
C114 C 0.91373 0.22286 0.58394 0.0
C115 C 0.90299 0.1463 0.61055 0.0
H116 H 0.88837 0.3275 0.58688 0.0
C117 C 0.8742 0.12649 0.66421 0.0
H118 H 0.93483 0.23804 0.54229 0.0
C119 C 0.84695 0.17684 0.68972 0.0
C120 C 0.84668 0.24603 0.66152 0.0
H121 H 0.86557 0.06706 0.68509 0.0
H122 H 0.81823 0.15569 0.72971 0.0
C123 C 0.8861 0.27301 0.60944 0.0
C124 C 0.74457 0.87566 0.178 0.0
C125 C 0.7642 0.90614 0.1244 0.0
H126 H 0.63815 0.81353 0.24013 0.0
C127 C 0.7156 0.93786 0.10095 0.0
H128 H 0.7817 0.85082 0.19675 0.0
C129 C 0.63462 0.91941 0.12703 0.0
C130 C 0.60224 0.86863 0.17619 0.0
H131 H 0.72983 0.96184 0.0597 0.0
H132 H 0.59005 0.93256 0.10555 0.0
C133 C 0.66229 0.85468 0.2034 0.0
C134 C 0.90035 0.72567 0.622 0.0
C135 C 0.8541 0.76539 0.6367 0.0
H136 H 0.90683 0.60837 0.63501 0.0
C137 C 0.79925 0.73355 0.68452 0.0
H138 H 0.94205 0.74826 0.58516 0.0
C139 C 0.77747 0.65286 0.71222 0.0
C140 C 0.8133 0.60512 0.69371 0.0
H141 H 0.76255 0.76312 0.69668 0.0
H142 H 0.72268 0.62089 0.74346 0.0
C143 C 0.87988 0.64557 0.65053 0.0
C144 C 0.06502 0.79513 0.42644 0.0
C145 C 0.10001 0.88733 0.409 0.0
H146 H 0.07451 0.68018 0.41615 0.0
C147 C 0.14898 0.9233 0.35941 0.0
H148 H 0.02682 0.766 0.46429 0.0
C149 C 0.17644 0.87463 0.33187 0.0
C150 C 0.15442 0.78961 0.35381 0.0
H151 H 0.1749 0.994 0.34479 0.0
H152 H 0.22467 0.90934 0.29755 0.0
C153 C 0.09224 0.74632 0.39878 0.0
C154 C 0.26157 0.14254 0.86577 0.0
C155 C 0.23324 0.11307 0.91912 0.0
H156 H 0.37446 0.199 0.80775 0.0
C157 C 0.28084 0.08615 0.94892 0.0
H158 H 0.22623 0.16468 0.84221 0.0
C159 C 0.36542 0.10412 0.9284 0.0
C160 C 0.40312 0.14962 0.87808 0.0
H161 H 0.26111 0.06456 0.99031 0.0
H162 H 0.40699 0.09275 0.95429 0.0
C163 C 0.34667 0.1619 0.84562 0.0
C164 C 0.12941 0.26111 0.3671 0.0
C165 C 0.11185 0.24539 0.42218 0.0
H166 H 0.17826 0.36207 0.30282 0.0
C167 C 0.09675 0.30315 0.45083 0.0
H168 H 0.14195 0.21736 0.34438 0.0
C169 C 0.11613 0.38563 0.42651 0.0
C170 C 0.15183 0.4112 0.37363 0.0
H171 H 0.08451 0.29305 0.49343 0.0
H172 H 0.11435 0.43506 0.45092 0.0
C173 C 0.15046 0.34436 0.34303 0.0
C174 C 0.85653 0.19342 0.94918 0.0
C175 C 0.86951 0.12772 0.92922 0.0
H176 H 0.80938 0.27858 0.93439 0.0
C177 C 0.83336 0.08822 0.87922 0.0
H178 H 0.88487 0.22548 0.98743 0.0
C179 C 0.79011 0.11922 0.84823 0.0
C180 C 0.78418 0.19099 0.86668 0.0
H181 H 0.84371 0.03804 0.86292 0.0
H182 H 0.76308 0.08838 0.80982 0.0
C183 C 0.814 0.22437 0.91843 0.0
C184 C 0.72758 0.82102 0.3715 0.0
C185 C 0.78367 0.91065 0.3961 0.0
H186 H 0.59567 0.71787 0.33215 0.0
C187 C 0.76436 0.97644 0.38624 0.0
H188 H 0.7403 0.76857 0.37936 0.0
C189 C 0.68067 0.94688 0.35961 0.0
C190 C 0.61732 0.85234 0.34161 0.0
H191 H 0.80546 0.04514 0.40568 0.0
H192 H 0.66002 0.99404 0.35843 0.0
C193 C 0.64443 0.79173 0.34476 0.0
C194 C 0.95881 0.75782 0.89341 0.0
C195 C 0.89024 0.77473 0.89926 0.0
H196 H 0.98184 0.65499 0.87163 0.0
C197 C 0.80255 0.71603 0.87281 0.0
H198 H 0.02615 0.80113 0.91436 0.0
C199 C 0.77734 0.6327 0.84847 0.0
C200 C 0.84001 0.60799 0.8497 0.0
H201 H 0.74801 0.72686 0.87764 0.0
H202 H 0.70393 0.58131 0.83541 0.0
C203 C 0.93325 0.67388 0.86924 0.0
loop_
_geom_bond_atom_site_label_1
_geom_bond_atom_site_label_2
_geom_bond_distance
_geom_bond_site_symmetry_2
_ccdc_geom_bond_type
O0 Mn1 2.163 1_666 S
O0 C14 1.244 . S
Mn1 O0 2.163 1_444 S
Mn1 O4 2.160 . S
Mn1 O5 2.221 1_554 S
Mn1 O7 2.163 1_454 S
Mn1 O9 2.160 1_545 S
Mn1 O19 2.221 1_445 S
O2 Mn3 2.087 1_556 S
O2 C14 1.256 . S
Mn3 O2 2.087 1_554 S
Mn3 O10 2.089 . S
Mn3 O19 2.290 . S
Mn3 O20 2.251 . S
O4 Mn1 2.160 . S
O4 C15 1.239 . S
O5 Mn1 2.221 1_556 S
O5 Mn6 2.290 . S
O5 C16 1.278 . S
Mn6 O5 2.290 . S
Mn6 O8 2.089 1_556 S
Mn6 O11 2.251 . S
Mn6 O12 2.087 . S
O7 Mn1 2.163 1_656 S
O7 C17 1.244 . S
O8 Mn6 2.089 1_554 S
O8 C15 1.256 . S
O9 Mn1 2.160 1_565 S
O9 C18 1.239 . S
O10 Mn3 2.089 . S
O10 C18 1.256 1_655 S
O11 Mn6 2.251 . S
O11 C16 1.241 . S
O12 Mn6 2.087 . S
O12 C17 1.256 1_455 S
C13 O19 1.278 . S
C13 O20 1.241 . S
C14 O0 1.244 . S
C14 O2 1.256 . S
C15 O4 1.239 . S
C15 O8 1.256 . S
C16 O5 1.278 . S
C16 O11 1.241 . S
C17 O7 1.244 . S
C17 O12 1.256 1_655 S
C18 O9 1.239 . S
C18 O10 1.256 1_455 S
O19 Mn1 2.221 1_665 S
O19 Mn3 2.290 . S
O19 C13 1.278 . S
O20 Mn3 2.251 . S
O20 C13 1.241 . S
O21 Mn22 2.172 1_545 S
O21 C35 1.244 . S
Mn22 O21 2.172 1_565 S
Mn22 O25 2.153 1_455 S
Mn22 O26 2.229 1_455 S
Mn22 O28 2.145 1_465 S
Mn22 O30 2.177 . S
Mn22 O40 2.215 1_565 S
O23 Mn24 2.087 . S
O23 C35 1.256 . S
Mn24 O23 2.087 . S
Mn24 O31 2.089 . S
Mn24 O40 2.290 . S
Mn24 O41 2.251 . S
O25 Mn22 2.153 1_655 S
O25 C36 1.239 . S
O26 Mn22 2.229 1_655 S
O26 Mn27 2.290 . S
O26 C37 1.278 . S
Mn27 O26 2.290 . S
Mn27 O29 2.089 . S
Mn27 O32 2.251 . S
Mn27 O33 2.087 . S
O28 Mn22 2.145 1_645 S
O28 C38 1.244 . S
O29 Mn27 2.089 . S
O29 C36 1.256 . S
O30 Mn22 2.177 . S
O30 C39 1.239 . S
O31 Mn24 2.089 . S
O31 C39 1.256 1_545 S
O32 Mn27 2.251 . S
O32 C37 1.241 . S
O33 Mn27 2.087 . S
O33 C38 1.256 1_565 S
C34 O40 1.278 . S
C34 O41 1.241 . S
C35 O21 1.244 . S
C35 O23 1.256 . S
C36 O25 1.239 . S
C36 O29 1.256 . S
C37 O26 1.278 . S
C37 O32 1.241 . S
C38 O28 1.244 . S
C38 O33 1.256 1_545 S
C39 O30 1.239 . S
C39 O31 1.256 1_565 S
O40 Mn22 2.215 1_545 S
O40 Mn24 2.290 . S
O40 C34 1.278 . S
O41 Mn24 2.251 . S
O41 C34 1.241 . S
Zn42 O48 1.920 . S
Zn42 O54 1.898 . S
Zn42 O57 1.905 . S
Zn43 O51 1.905 . S
Zn43 O52 1.898 . S
Zn43 O60 1.920 . S
Zn44 O47 2.080 . S
Zn44 O50 2.114 . S
Zn44 O53 2.120 . S
Zn44 O55 2.120 . S
Zn44 O56 2.114 . S
Zn44 O59 2.080 . S
C45 O50 1.166 . S
C45 O51 1.182 . S
C46 O52 1.167 . S
C46 O53 1.299 . S
O47 Zn44 2.080 . S
O47 C61 1.305 . S
O48 Zn42 1.920 . S
O48 C61 1.234 . S
C49 O54 1.167 . S
C49 O55 1.299 . S
O50 Zn44 2.114 . S
O50 C45 1.166 . S
O51 Zn43 1.905 . S
O51 C45 1.182 . S
O52 Zn43 1.898 . S
O52 C46 1.167 . S
O53 Zn44 2.120 . S
O53 C46 1.299 . S
O54 Zn42 1.898 . S
O54 C49 1.167 . S
O55 Zn44 2.120 . S
O55 C49 1.299 . S
O56 Zn44 2.114 . S
O56 C58 1.166 . S
O57 Zn42 1.905 . S
O57 C58 1.182 . S
C58 O56 1.166 . S
C58 O57 1.182 . S
O59 Zn44 2.080 . S
O59 C62 1.305 . S
O60 Zn43 1.920 . S
O60 C62 1.234 . S
C61 O47 1.305 . S
C61 O48 1.234 . S
C62 O59 1.305 . S
C62 O60 1.234 . S
Zn63 O69 1.920 . S
Zn63 O75 1.898 . S
Zn63 O78 1.905 . S
Zn64 O72 1.905 . S
Zn64 O73 1.898 . S
Zn64 O81 1.920 . S
Zn65 O68 2.080 . S
Zn65 O71 2.114 . S
Zn65 O74 2.120 . S
Zn65 O76 2.120 . S
Zn65 O77 2.114 . S
Zn65 O80 2.080 . S
C66 O71 1.166 . S
C66 O72 1.182 . S
C67 O73 1.167 . S
C67 O74 1.299 . S
O68 Zn65 2.080 . S
O68 C82 1.305 . S
O69 Zn63 1.920 . S
O69 C82 1.234 . S
C70 O75 1.167 . S
C70 O76 1.299 . S
O71 Zn65 2.114 . S
O71 C66 1.166 . S
O72 Zn64 1.905 . S
O72 C66 1.182 . S
O73 Zn64 1.898 . S
O73 C67 1.167 . S
O74 Zn65 2.120 . S
O74 C67 1.299 . S
O75 Zn63 1.898 . S
O75 C70 1.167 . S
O76 Zn65 2.120 . S
O76 C70 1.299 . S
O77 Zn65 2.114 . S
O77 C79 1.166 . S
O78 Zn63 1.905 . S
O78 C79 1.182 . S
C79 O77 1.166 . S
C79 O78 1.182 . S
O80 Zn65 2.080 . S
O80 C83 1.305 . S
O81 Zn64 1.920 . S
O81 C83 1.234 . S
C82 O68 1.305 . S
C82 O69 1.234 . S
C83 O80 1.305 . S
C83 O81 1.234 . S
C84 C85 1.387 . S
C84 H88 0.950 . S
C84 C93 1.390 . S
C85 C84 1.387 . S
C85 C87 1.387 . S
H86 C93 0.950 . S
C87 C85 1.387 . S
C87 C89 1.390 . S
C87 H91 0.950 . S
H88 C84 0.950 . S
C89 C87 1.390 . S
C89 C90 1.387 . S
C89 H92 0.950 . S
C90 C89 1.387 . S
C90 C93 1.387 . S
H91 C87 0.950 . S
H92 C89 0.950 . S
C93 C84 1.390 . S
C93 H86 0.950 . S
C93 C90 1.387 . S
C94 C95 1.387 . S
C94 H98 0.950 . S
C94 C103 1.390 . S
C95 C94 1.387 . S
C95 C97 1.387 . S
H96 C103 0.950 . S
C97 C95 1.387 . S
C97 C99 1.390 . S
C97 H101 0.950 1_545 S
H98 C94 0.950 . S
C99 C97 1.390 . S
C99 C100 1.387 . S
C99 H102 0.950 . S
C100 C99 1.387 . S
C100 C103 1.387 . S
H101 C97 0.950 1_565 S
H102 C99 0.950 . S
C103 C94 1.390 . S
C103 H96 0.950 . S
C103 C100 1.387 . S
C104 C105 1.387 . S
C104 H108 0.950 . S
C104 C113 1.390 . S
C105 C104 1.387 . S
C105 C107 1.387 . S
H106 C113 0.950 . S
C107 C105 1.387 . S
C107 C109 1.390 . S
C107 H111 0.950 . S
H108 C104 0.950 . S
C109 C107 1.390 . S
C109 C110 1.387 . S
C109 H112 0.950 . S
C110 C109 1.387 . S
C110 C113 1.387 . S
H111 C107 0.950 . S
H112 C109 0.950 . S
C113 C104 1.390 . S
C113 H106 0.950 . S
C113 C110 1.387 . S
C114 C115 1.387 . S
C114 H118 0.950 . S
C114 C123 1.390 . S
C115 C114 1.387 . S
C115 C117 1.387 . S
H116 C123 0.950 . S
C117 C115 1.387 . S
C117 C119 1.390 . S
C117 H121 0.950 . S
H118 C114 0.950 . S
C119 C117 1.390 . S
C119 C120 1.387 . S
C119 H122 0.950 . S
C120 C119 1.387 . S
C120 C123 1.387 . S
H121 C117 0.950 . S
H122 C119 0.950 . S
C123 C114 1.390 . S
C123 H116 0.950 . S
C123 C120 1.387 . S
C124 C125 1.387 . S
C124 H128 0.950 . S
C124 C133 1.390 . S
C125 C124 1.387 . S
C125 C127 1.387 . S
H126 C133 0.950 . S
C127 C125 1.387 . S
C127 C129 1.390 . S
C127 H131 0.950 1_565 S
H128 C124 0.950 . S
C129 C127 1.390 . S
C129 C130 1.387 . S
C129 H132 0.950 1_565 S
C130 C129 1.387 . S
C130 C133 1.387 . S
H131 C127 0.950 1_545 S
H132 C129 0.950 1_545 S
C133 C124 1.390 . S
C133 H126 0.950 . S
C133 C130 1.387 . S
C134 C135 1.387 . S
C134 H138 0.950 . S
C134 C143 1.390 . S
C135 C134 1.387 . S
C135 C137 1.387 . S
H136 C143 0.950 . S
C137 C135 1.387 . S
C137 C139 1.390 . S
C137 H141 0.950 . S
H138 C134 0.950 . S
C139 C137 1.390 . S
C139 C140 1.387 . S
C139 H142 0.950 . S
C140 C139 1.387 . S
C140 C143 1.387 . S
H141 C137 0.950 . S
H142 C139 0.950 . S
C143 C134 1.390 . S
C143 H136 0.950 . S
C143 C140 1.387 . S
C144 C145 1.387 . S
C144 H148 0.950 . S
C144 C153 1.390 . S
C145 C144 1.387 . S
C145 C147 1.387 . S
H146 C153 0.950 . S
C147 C145 1.387 . S
C147 C149 1.390 . S
C147 H151 0.950 1_565 S
H148 C144 0.950 . S
C149 C147 1.390 . S
C149 C150 1.387 . S
C149 H152 0.950 . S
C150 C149 1.387 . S
C150 C153 1.387 . S
H151 C147 0.950 1_545 S
H152 C149 0.950 . S
C153 C144 1.390 . S
C153 H146 0.950 . S
C153 C150 1.387 . S
C154 C155 1.387 . S
C154 H158 0.950 . S
C154 C163 1.390 . S
C155 C154 1.387 . S
C155 C157 1.387 . S
H156 C163 0.950 . S
C157 C155 1.387 . S
C157 C159 1.390 . S
C157 H161 0.950 . S
H158 C154 0.950 . S
C159 C157 1.390 . S
C159 C160 1.387 . S
C159 H162 0.950 . S
C160 C159 1.387 . S
C160 C163 1.387 . S
H161 C157 0.950 . S
H162 C159 0.950 . S
C163 C154 1.390 . S
C163 H156 0.950 . S
C163 C160 1.387 . S
C164 C165 1.387 . S
C164 H168 0.950 1_455 S
C164 C173 1.390 . S
C165 C164 1.387 . S
C165 C167 1.387 . S
H166 C173 0.950 . S
C167 C165 1.387 . S
C167 C169 1.390 . S
C167 H171 0.950 . S
H168 C164 0.950 1_655 S
C169 C167 1.390 . S
C169 C170 1.387 . S
C169 H172 0.950 . S
C170 C169 1.387 . S
C170 C173 1.387 . S
H171 C167 0.950 . S
H172 C169 0.950 . S
C173 C164 1.390 . S
C173 H166 0.950 . S
C173 C170 1.387 . S
C174 C175 1.387 . S
C174 H178 0.950 . S
C174 C183 1.390 . S
C175 C174 1.387 . S
C175 C177 1.387 . S
H176 C183 0.950 . S
C177 C175 1.387 . S
C177 C179 1.390 . S
C177 H181 0.950 . S
H178 C174 0.950 . S
C179 C177 1.390 . S
C179 C180 1.387 . S
C179 H182 0.950 . S
C180 C179 1.387 . S
C180 C183 1.387 . S
H181 C177 0.950 . S
H182 C179 0.950 . S
C183 C174 1.390 . S
C183 H176 0.950 . S
C183 C180 1.387 . S
C184 C185 1.387 . S
C184 H188 0.950 . S
C184 C193 1.390 . S
C185 C184 1.387 . S
C185 C187 1.387 . S
H186 C193 0.950 . S
C187 C185 1.387 . S
C187 C189 1.390 . S
C187 H191 0.950 . S
H188 C184 0.950 . S
C189 C187 1.390 . S
C189 C190 1.387 . S
C189 H192 0.950 . S
C190 C189 1.387 . S
C190 C193 1.387 . S
H191 C187 0.950 . S
H192 C189 0.950 . S
C193 C184 1.390 . S
C193 H186 0.950 . S
C193 C190 1.387 . S
C194 C195 1.387 . S
C194 H198 0.950 1_655 S
C194 C203 1.390 . S
C195 C194 1.387 . S
C195 C197 1.387 . S
H196 C203 0.950 1_455 S
C197 C195 1.387 . S
C197 C199 1.390 . S
C197 H201 0.950 . S
H198 C194 0.950 1_455 S
C199 C197 1.390 . S
C199 C200 1.387 . S
C199 H202 0.950 . S
C200 C199 1.387 . S
C200 C203 1.387 . S
H201 C197 0.950 . S
H202 C199 0.950 . S
C203 C194 1.390 . S
C203 H196 0.950 1_655 S
C203 C200 1.387 . S
C85 C18 1.390 . S
C90 C61 1.317 . S
C95 C35 1.546 . S
C100 C67 1.409 . S
C105 C15 1.378 . S
C110 C58 1.297 . S
C115 C38 1.590 . S
C120 C83 1.428 . S
C125 C13 1.454 . S
C130 C49 1.393 . S
C140 C66 1.437 . S
C135 C37 1.266 . S
C145 C39 1.390 . S
C150 C62 1.318 . S
C160 C79 1.437 . S
C155 C16 1.269 . S
C170 C46 1.389 . S
C165 C34 1.452 . S
C180 C82 1.430 . S
C175 C17 1.591 . S
C190 C45 1.298 . S
C185 C36 1.377 . S
C200 C70 1.406 . S
C195 C14 1.548 . S
