# Generated by pormake.
# Topology pts, (4,4)-cn, num edge types: 1
# Building blocks:
#     Node 0, Type 0, BuildingBlock: ESEHIV_clean_sbu_0, # of connection points: 4
#     Node 1, Type 0, BuildingBlock: ESEHIV_clean_sbu_0, # of connection points: 4
#     Node 2, Type 1, BuildingBlock: AZAVOO_clean_sbu_0, # of connection points: 4
#     Node 3, Type 1, BuildingBlock: AZAVOO_clean_sbu_0, # of connection points: 4
#     Edge 4, Type (0, 1), BuildingBlock: KIFKEQ_clean_linker_1, # of connection points: 2
#     Edge 5, Type (0, 1), BuildingBlock: KIFKEQ_clean_linker_1, # of connection points: 2
#     Edge 6, Type (0, 1), BuildingBlock: KIFKEQ_clean_linker_1, # of connection points: 2
#     Edge 7, Type (0, 1), BuildingBlock: KIFKEQ_clean_linker_1, # of connection points: 2
#     Edge 8, Type (0, 1), BuildingBlock: KIFKEQ_clean_linker_1, # of connection points: 2
#     Edge 9, Type (0, 1), BuildingBlock: KIFKEQ_clean_linker_1, # of connection points: 2
#     Edge 10, Type (0, 1), BuildingBlock: KIFKEQ_clean_linker_1, # of connection points: 2
#     Edge 11, Type (0, 1), BuildingBlock: KIFKEQ_clean_linker_1, # of connection points: 2
# Relax obj value: 0.001
# Max RMSD: 0.095
# Mean RMSD: 0.062
data_MOF--net-pts--node1-ESEHIV_clean_sbu_0--node2-AZAVOO_clean_sbu_0--edge1-KIFKEQ_clean_linker_1
_symmetry_space_group_name_H-M    P1
_symmetry_Int_Tables_number       1
_symmetry_cell_setting            triclinic
loop_
_symmetry_equiv_pos_as_xyz
'x, y, z'
_cell_length_a     24.250304
_cell_length_b     25.959046
_cell_length_c     37.140722
_cell_angle_alpha  93.727796
_cell_angle_beta   100.06068
_cell_angle_gamma 89.431921
loop_
_atom_site_label
_atom_site_type_symbol
_atom_site_fract_x
_atom_site_fract_y
_atom_site_fract_z
_atom_type_partial_charge
Cu0 Cu 0.57875 0.08622 0.04322 0.0
N1 N 0.61918 0.12342 1.01471 0.0
N2 N 0.68457 0.14207 0.98154 0.0
C3 C 0.67245 0.11579 1.0095 0.0
C4 C 0.63717 0.16809 0.9693 0.0
C5 C 0.59708 0.15623 0.98952 0.0
O6 O 0.63023 0.04844 0.07813 0.0
C7 C 0.48117 0.02441 1.01611 0.0
O8 O 0.47194 0.02834 0.04993 0.0
H9 H 0.70067 0.08905 1.02435 0.0
H10 H 0.55371 0.16813 0.9846 0.0
N11 N 0.53745 0.13117 0.06998 0.0
N12 N 0.47812 0.15616 0.10768 0.0
C13 C 0.51165 0.11812 0.09742 0.0
C14 C 0.52104 0.17988 0.06344 0.0
C15 C 0.48451 0.19541 0.08666 0.0
C16 C 0.66625 0.01587 0.06986 0.0
O17 O 0.66681 0.00176 0.03532 0.0
H18 H 0.5159 0.08065 0.10876 0.0
H19 H 0.53273 0.20192 0.04226 0.0
O20 O 0.52624 0.04261 1.0088 0.0
H21 H 0.63076 0.19225 0.94628 0.0
H22 H 0.46196 0.23161 0.08656 0.0
Cu23 Cu 0.1082 0.54116 0.53713 0.0
N24 N 0.15229 0.50047 0.57027 0.0
N25 N 0.17142 0.44301 0.613 0.0
C26 C 0.13125 0.47034 0.59266 0.0
C27 C 0.21988 0.45702 0.60301 0.0
C28 C 0.2079 0.49251 0.57659 0.0
O29 O 0.05608 0.49329 0.50649 0.0
C30 C 0.11132 0.62178 0.58747 0.0
O31 O 0.16458 0.61118 0.5881 0.0
H32 H 0.087 0.46853 0.59365 0.0
H33 H 0.23743 0.51052 0.5626 0.0
N34 N 0.15051 0.57402 0.50793 0.0
N35 N 0.17199 0.63356 0.47185 0.0
C36 C 0.14178 0.62257 0.49761 0.0
C37 C 0.18786 0.5535 0.48822 0.0
C38 C 0.20112 0.59021 0.46579 0.0
C39 C 0.04543 0.4928 0.47165 0.0
O40 O 0.06034 0.53242 0.45526 0.0
H41 H 0.11105 0.64818 0.50707 0.0
H42 H 0.2021 0.51389 0.48874 0.0
O43 O 0.07497 0.59429 0.56582 0.0
H44 H 0.26088 0.44161 0.61312 0.0
H45 H 0.22871 0.58497 0.44587 0.0
Mg46 Mg 0.12348 0.04957 0.31322 0.0
O47 O 0.03995 0.0279 0.2747 0.0
O48 O 0.9797 0.00974 0.31148 0.0
Mg49 Mg 1.02448 0.01238 0.371 0.0
C50 C 0.99099 0.0155 0.27965 0.0
C51 C 0.20247 0.1134 0.27671 0.0
O52 O 0.21954 0.12579 0.31173 0.0
O53 O 0.08572 0.12642 0.33133 0.0
O54 O 1.03106 0.10053 0.3694 0.0
O55 O 0.1534 0.96796 0.31104 0.0
O56 O 0.10469 1.00068 0.3519 0.0
C57 C 0.05246 0.13629 0.35411 0.0
C58 C 0.12905 0.96124 0.33874 0.0
O59 O 0.15965 0.08446 0.26727 0.0
Mg60 Mg 0.03701 0.03763 0.7646 0.0
O61 O 0.11944 0.0178 0.80304 0.0
O62 O 0.1825 0.99842 0.76686 0.0
Mg63 Mg 0.14176 1.00136 0.70699 0.0
C64 C 0.16903 0.00501 0.79856 0.0
C65 C 0.98809 0.0462 0.83795 0.0
O66 O 1.00449 0.99781 0.83815 0.0
O67 O 0.07445 0.11528 0.75397 0.0
O68 O 0.13438 0.08872 0.71712 0.0
O69 O 1.00984 0.95402 0.75796 0.0
O70 O 0.05969 0.99036 0.72233 0.0
C71 C 0.11083 0.12466 0.73407 0.0
C72 C 0.03648 0.94953 0.73059 0.0
O73 O 0.99815 0.07335 0.81251 0.0
H74 H 0.43913 0.23429 0.14839 0.0
H75 H 0.42444 0.07025 0.12101 0.0
H76 H 0.36807 0.22859 0.18741 0.0
H77 H 0.35459 0.06437 0.16035 0.0
H78 H 0.19217 0.07797 0.20466 0.0
H79 H 0.2571 0.09143 0.16274 0.0
H80 H 0.35797 0.1911 0.24579 0.0
H81 H 0.29297 0.17804 0.28762 0.0
C82 C 0.42081 0.19707 0.15075 0.0
C83 C 0.43776 0.15272 0.13177 0.0
C84 C 0.38035 0.19374 0.17321 0.0
C85 C 0.35546 0.14606 0.17684 0.0
C86 C 0.37238 0.10179 0.1578 0.0
C87 C 0.41309 0.10504 0.13565 0.0
C88 C 0.22773 0.10335 0.21382 0.0
C89 C 0.23752 0.12666 0.2496 0.0
C90 C 0.26519 0.11074 0.18989 0.0
C91 C 0.31304 0.1419 0.20107 0.0
C92 C 0.32141 0.16707 0.23626 0.0
C93 C 0.2842 0.1594 0.26028 0.0
H94 H 0.24869 0.40662 0.66766 0.0
H95 H 0.07557 0.39049 0.61492 0.0
H96 H 0.23639 0.3363 0.70611 0.0
H97 H 0.06342 0.32122 0.65346 0.0
H98 H 0.20596 0.1593 0.71452 0.0
H99 H 0.22182 0.24296 0.69243 0.0
H100 H 0.06196 0.29588 0.7165 0.0
H101 H 0.04573 0.21128 0.73848 0.0
C102 C 0.20801 0.38843 0.6643 0.0
C103 C 0.16335 0.40422 0.63783 0.0
C104 C 0.2009 0.34831 0.68651 0.0
C105 C 0.1489 0.32322 0.68288 0.0
C106 C 0.10375 0.34031 0.65746 0.0
C107 C 0.11088 0.38015 0.63518 0.0
C108 C 0.17458 0.18905 0.71578 0.0
C109 C 0.12423 0.17847 0.72778 0.0
C110 C 0.18391 0.23721 0.70335 0.0
C111 C 0.14294 0.27592 0.70238 0.0
C112 C 0.09402 0.26652 0.71654 0.0
C113 C 0.08489 0.21827 0.72936 0.0
H114 H 0.66301 0.99226 0.1397 0.0
H115 H 0.77666 0.01363 0.0647 0.0
H116 H 0.74197 0.98371 0.18931 0.0
H117 H 0.85598 0.00975 0.11461 0.0
H118 H 0.99521 0.97945 0.20901 0.0
H119 H 0.91716 0.96939 0.15768 0.0
H120 H 0.80507 0.03365 0.22771 0.0
H121 H 0.88197 0.03961 0.27892 0.0
C122 C 0.70514 0.99486 0.13392 0.0
C123 C 0.71386 0.00338 0.09848 0.0
C124 C 0.75063 0.9908 0.16245 0.0
C125 C 0.80602 0.99727 0.15657 0.0
C126 C 0.81445 0.0039 0.12054 0.0
C127 C 0.76889 0.00628 0.09176 0.0
C128 C 0.95364 0.99098 0.21323 0.0
C129 C 0.94458 0.00999 0.24797 0.0
C130 C 0.90876 0.98553 0.18377 0.0
C131 C 0.85402 1.00033 0.18816 0.0
C132 C 0.84571 0.02008 0.22305 0.0
C133 C 0.89012 0.02412 0.25256 0.0
H134 H 0.18164 0.69388 0.62613 0.0
H135 H 1.00646 0.65165 0.6004 0.0
H136 H 0.15853 0.77044 0.66145 0.0
H137 H 0.98347 0.72926 0.63666 0.0
H138 H 0.99893 0.85351 0.74316 0.0
H139 H 1.0116 0.77117 0.70882 0.0
H140 H 0.09863 0.85112 0.63719 0.0
H141 H 0.08509 0.93257 0.67028 0.0
C142 C 0.13813 0.70065 0.6282 0.0
C143 C 0.0958 0.66677 0.61018 0.0
C144 C 0.125 0.74463 0.64846 0.0
C145 C 0.0693 0.75571 0.65158 0.0
C146 C 1.0268 0.72126 0.63468 0.0
C147 C 0.03992 0.67719 0.61384 0.0
C148 C 1.02055 0.8534 0.71999 0.0
C149 C 0.04218 0.89949 0.71002 0.0
C150 C 1.02744 0.80644 0.70029 0.0
C151 C 0.05651 0.80501 0.67067 0.0
C152 C 0.07671 0.85118 0.66025 0.0
C153 C 0.06928 0.89783 0.67947 0.0
H154 H 0.4886 0.98468 0.94713 0.0
H155 H 0.36933 0.03102 1.01666 0.0
H156 H 0.41237 0.97043 0.89532 0.0
H157 H 0.29348 0.02075 0.96469 0.0
H158 H 0.15878 0.97952 0.86775 0.0
H159 H 0.23359 0.97308 0.92061 0.0
H160 H 0.35424 0.01776 0.85512 0.0
H161 H 0.28037 0.02054 0.80235 0.0
C162 C 0.44597 0.99159 0.9513 0.0
C163 C 0.43496 0.00907 0.98587 0.0
C164 C 0.40213 0.98406 0.92151 0.0
C165 C 0.34632 0.99541 0.9253 0.0
C166 C 0.33542 0.01089 0.96042 0.0
C167 C 0.37913 0.01706 0.99038 0.0
C168 C 0.20148 0.98745 0.86478 0.0
C169 C 0.2137 1.00036 0.8309 0.0
C170 C 0.24449 0.98408 0.89513 0.0
C171 C 0.30055 0.9948 0.89249 0.0
C172 C 0.31226 0.00772 0.85837 0.0
C173 C 0.26961 0.00986 0.82799 0.0
H174 H 0.03731 0.47208 0.3976 0.0
H175 H 1.01951 0.40107 0.49703 0.0
H176 H 1.02939 0.38744 0.36444 0.0
H177 H 1.01269 0.31673 0.46413 0.0
H178 H 0.97343 0.1714 0.3939 0.0
H179 H 0.95963 0.25919 0.41767 0.0
H180 H 0.09055 0.31249 0.36381 0.0
H181 H 0.10365 0.22459 0.33928 0.0
C182 C 1.03066 0.4386 0.41227 0.0
C183 C 1.0295 0.44341 0.45009 0.0
C184 C 1.02666 0.39001 0.3933 0.0
C185 C 1.02113 0.34516 0.41166 0.0
C186 C 1.0165 0.35039 0.44897 0.0
C187 C 1.02058 0.39888 0.46793 0.0
C188 C 0.99895 0.20185 0.38674 0.0
C189 C 0.04017 0.19072 0.36499 0.0
C190 C 0.9911 0.25224 0.40052 0.0
C191 C 1.02435 0.29288 0.39304 0.0
C192 C 0.06381 0.28222 0.36988 0.0
C193 C 0.07156 0.23172 0.35594 0.0
H194 H 0.69408 0.16298 0.91191 0.0
H195 H 0.78768 0.10697 1.0117 0.0
H196 H 0.77331 0.1455 0.88139 0.0
H197 H 0.86713 0.08893 0.98067 0.0
H198 H 0.95686 0.9977 0.89451 0.0
H199 H 0.8885 0.02671 0.93233 0.0
H200 H 0.86925 0.17009 0.87864 0.0
H201 H 0.93708 0.14081 0.84039 0.0
C202 C 0.73172 0.14786 0.92771 0.0
C203 C 0.73381 0.13618 0.96444 0.0
C204 C 0.77744 0.13779 0.91005 0.0
C205 C 0.82662 0.11562 0.92849 0.0
C206 C 0.82957 0.10534 0.9655 0.0
C207 C 0.78385 0.11566 0.98328 0.0
C208 C 0.93862 0.0357 0.89106 0.0
C209 C 0.95211 0.06667 0.86412 0.0
C210 C 0.8996 0.05247 0.91293 0.0
C211 C 0.87298 0.10057 0.90834 0.0
C212 C 0.88831 0.13248 0.8825 0.0
C213 C 0.92747 0.11579 0.8607 0.0
H214 H 0.1568 0.73049 0.49902 0.0
H215 H 0.17761 0.64133 0.40023 0.0
H216 H 0.1453 0.80865 0.46556 0.0
H217 H 0.16415 0.71905 0.36614 0.0
H218 H 0.19254 0.87743 0.32464 0.0
H219 H 0.20435 0.79805 0.35654 0.0
H220 H 0.08175 0.85105 0.42221 0.0
H221 H 0.07217 0.93134 0.3915 0.0
C222 C 0.1586 0.72769 0.47003 0.0
C223 C 0.16815 0.6799 0.45224 0.0
C224 C 0.1516 0.77239 0.45071 0.0
C225 C 0.15318 0.77034 0.41293 0.0
C226 C 0.16338 0.72242 0.39525 0.0
C227 C 0.17111 0.67779 0.41475 0.0
C228 C 0.16777 0.87195 0.3457 0.0
C229 C 0.13146 0.91085 0.35554 0.0
C230 C 0.17439 0.82623 0.36395 0.0
C231 C 0.14436 0.81802 0.39226 0.0
C232 C 0.10662 0.85635 0.40119 0.0
C233 C 0.10057 0.90232 0.38325 0.0
loop_
_geom_bond_atom_site_label_1
_geom_bond_atom_site_label_2
_geom_bond_distance
_geom_bond_site_symmetry_2
_ccdc_geom_bond_type
Cu0 N1 1.999 1_554 S
Cu0 O6 1.974 . S
Cu0 N11 1.985 . S
Cu0 O20 1.959 1_554 S
N1 Cu0 1.999 1_556 S
N1 C3 1.263 . S
N1 C5 1.389 . S
N2 C3 1.358 . S
N2 C4 1.400 . S
C3 N1 1.263 . S
C3 N2 1.358 . S
C3 H9 0.930 . S
C4 N2 1.400 . S
C4 C5 1.351 . S
C4 H21 0.930 . S
C5 N1 1.389 . S
C5 C4 1.351 . S
C5 H10 0.930 . S
O6 Cu0 1.974 . S
O6 C16 1.282 . S
C7 O8 1.261 1_545 S
C7 O20 1.251 . S
O8 C7 1.261 1_565 S
H9 C3 0.930 . S
H10 C5 0.930 . S
N11 Cu0 1.985 . S
N11 C13 1.335 . S
N11 C14 1.390 . S
N12 C13 1.345 . S
N12 C15 1.336 . S
C13 N11 1.335 . S
C13 N12 1.345 . S
C13 H18 0.930 . S
C14 N11 1.390 . S
C14 C15 1.346 . S
C14 H19 0.930 . S
C15 N12 1.336 . S
C15 C14 1.346 . S
C15 H22 0.929 . S
C16 O6 1.282 . S
C16 O17 1.216 1_545 S
O17 C16 1.216 1_565 S
H18 C13 0.930 . S
H19 C14 0.930 . S
O20 Cu0 1.959 1_556 S
O20 C7 1.251 . S
H21 C4 0.930 . S
H22 C15 0.929 . S
Cu23 N24 1.999 . S
Cu23 O29 1.974 . S
Cu23 N34 1.985 . S
Cu23 O43 1.959 . S
N24 Cu23 1.999 . S
N24 C26 1.263 . S
N24 C28 1.381 1_455 S
N25 C26 1.358 . S
N25 C27 1.400 . S
C26 N24 1.263 . S
C26 N25 1.358 . S
C26 H32 0.930 . S
C27 N25 1.400 . S
C27 C28 1.351 1_455 S
C27 H44 0.930 1_455 S
C28 N24 1.381 1_655 S
C28 C27 1.351 1_655 S
C28 H33 0.937 . S
O29 Cu23 1.974 . S
O29 C39 1.282 . S
C30 O31 1.261 . S
C30 O43 1.251 . S
O31 C30 1.261 . S
H32 C26 0.930 . S
H33 C28 0.937 . S
N34 Cu23 1.985 . S
N34 C36 1.335 . S
N34 C37 1.390 . S
N35 C36 1.345 . S
N35 C38 1.336 . S
C36 N34 1.335 . S
C36 N35 1.345 . S
C36 H41 0.930 . S
C37 N34 1.390 . S
C37 C38 1.346 . S
C37 H42 0.930 . S
C38 N35 1.336 . S
C38 C37 1.346 . S
C38 H45 0.929 . S
C39 O29 1.282 . S
C39 O40 1.216 . S
O40 C39 1.216 . S
H41 C36 0.930 . S
H42 C37 0.930 . S
O43 Cu23 1.959 . S
O43 C30 1.251 . S
H44 C27 0.930 1_655 S
H45 C38 0.929 . S
Mg46 O47 2.028 . S
Mg46 O53 1.986 . S
Mg46 O55 2.114 1_545 S
Mg46 O56 2.251 . S
Mg46 O59 2.010 . S
O47 Mg46 2.028 . S
O47 C50 1.250 1_455 S
O48 Mg49 2.028 . S
O48 C50 1.248 . S
Mg49 O48 2.028 . S
Mg49 O54 2.032 1_655 S
Mg49 O56 2.079 1_655 S
C50 O47 1.250 1_655 S
C50 O48 1.248 . S
C51 O52 1.264 . S
C51 O59 1.249 . S
O52 C51 1.264 . S
O53 Mg46 1.986 . S
O53 C57 1.246 . S
O54 Mg49 2.032 1_455 S
O54 C57 1.259 . S
O55 Mg46 2.114 1_565 S
O55 C58 1.252 . S
O56 Mg46 2.251 . S
O56 Mg49 2.079 1_455 S
O56 C58 1.273 1_545 S
C57 O53 1.246 . S
C57 O54 1.259 . S
C58 O55 1.252 . S
C58 O56 1.273 1_565 S
O59 Mg46 2.010 . S
O59 C51 1.249 . S
Mg60 O61 2.028 . S
Mg60 O67 1.986 . S
Mg60 O69 2.114 1_545 S
Mg60 O70 2.251 . S
Mg60 O73 2.010 1_455 S
O61 Mg60 2.028 . S
O61 C64 1.250 . S
O62 Mg63 2.028 . S
O62 C64 1.248 . S
Mg63 O62 2.028 . S
Mg63 O68 2.032 . S
Mg63 O70 2.079 . S
C64 O61 1.250 . S
C64 O62 1.248 . S
C65 O66 1.264 . S
C65 O73 1.249 . S
O66 C65 1.264 . S
O67 Mg60 1.986 . S
O67 C71 1.246 . S
O68 Mg63 2.032 . S
O68 C71 1.259 . S
O69 Mg60 2.114 1_565 S
O69 C72 1.252 . S
O70 Mg60 2.251 . S
O70 Mg63 2.079 . S
O70 C72 1.273 1_545 S
C71 O67 1.246 . S
C71 O68 1.259 . S
C72 O69 1.252 . S
C72 O70 1.273 1_565 S
O73 Mg60 2.010 1_655 S
O73 C65 1.249 . S
H74 C82 0.950 1_565 S
H75 C87 0.950 . S
H76 C84 0.950 1_565 S
H77 C86 0.950 . S
H78 C88 0.950 . S
H79 C90 0.950 . S
H80 C92 0.950 1_565 S
H81 C93 0.950 1_565 S
C82 H74 0.950 1_545 S
C82 C83 1.386 . S
C82 C84 1.391 . S
C83 C82 1.386 . S
C83 C87 1.393 . S
C84 H76 0.950 1_545 S
C84 C82 1.391 . S
C84 C85 1.400 . S
C85 C84 1.400 . S
C85 C86 1.398 . S
C85 C91 1.491 . S
C86 H77 0.950 . S
C86 C85 1.398 . S
C86 C87 1.391 . S
C87 H75 0.950 . S
C87 C83 1.393 . S
C87 C86 1.391 . S
C88 H78 0.950 . S
C88 C89 1.386 . S
C88 C90 1.391 . S
C89 C88 1.386 . S
C89 C93 1.393 . S
C90 H79 0.950 . S
C90 C88 1.391 . S
C90 C91 1.400 . S
C91 C85 1.491 . S
C91 C90 1.400 . S
C91 C92 1.398 . S
C92 H80 0.950 1_545 S
C92 C91 1.398 . S
C92 C93 1.391 . S
C93 H81 0.950 1_545 S
C93 C89 1.393 . S
C93 C92 1.391 . S
H94 C102 0.950 . S
H95 C107 0.950 . S
H96 C104 0.950 . S
H97 C106 0.950 . S
H98 C108 0.950 . S
H99 C110 0.950 . S
H100 C112 0.950 . S
H101 C113 0.950 . S
C102 H94 0.950 . S
C102 C103 1.386 . S
C102 C104 1.391 . S
C103 C102 1.386 . S
C103 C107 1.393 . S
C104 H96 0.950 . S
C104 C102 1.391 . S
C104 C105 1.400 . S
C105 C104 1.400 . S
C105 C106 1.398 . S
C105 C111 1.491 . S
C106 H97 0.950 . S
C106 C105 1.398 . S
C106 C107 1.391 . S
C107 H95 0.950 . S
C107 C103 1.393 . S
C107 C106 1.391 . S
C108 H98 0.950 . S
C108 C109 1.386 . S
C108 C110 1.391 . S
C109 C108 1.386 . S
C109 C113 1.393 . S
C110 H99 0.950 . S
C110 C108 1.391 . S
C110 C111 1.400 . S
C111 C105 1.491 . S
C111 C110 1.400 . S
C111 C112 1.398 . S
C112 H100 0.950 . S
C112 C111 1.398 . S
C112 C113 1.391 . S
C113 H101 0.950 . S
C113 C109 1.393 . S
C113 C112 1.391 . S
H114 C122 0.950 . S
H115 C127 0.950 . S
H116 C124 0.950 . S
H117 C126 0.950 . S
H118 C128 0.950 . S
H119 C130 0.950 . S
H120 C132 0.950 . S
H121 C133 0.950 . S
C122 H114 0.950 . S
C122 C123 1.386 . S
C122 C124 1.391 . S
C123 C122 1.386 . S
C123 C127 1.393 . S
C124 H116 0.950 . S
C124 C122 1.391 . S
C124 C125 1.400 . S
C125 C124 1.400 . S
C125 C126 1.398 . S
C125 C131 1.491 . S
C126 H117 0.950 . S
C126 C125 1.398 . S
C126 C127 1.391 . S
C127 H115 0.950 . S
C127 C123 1.393 . S
C127 C126 1.391 . S
C128 H118 0.950 . S
C128 C129 1.386 . S
C128 C130 1.391 . S
C129 C128 1.386 . S
C129 C133 1.393 . S
C130 H119 0.950 . S
C130 C128 1.391 . S
C130 C131 1.400 . S
C131 C125 1.491 . S
C131 C130 1.400 . S
C131 C132 1.398 . S
C132 H120 0.950 . S
C132 C131 1.398 . S
C132 C133 1.391 . S
C133 H121 0.950 . S
C133 C129 1.393 . S
C133 C132 1.391 . S
H134 C142 0.950 . S
H135 C147 0.950 1_655 S
H136 C144 0.950 . S
H137 C146 0.950 1_655 S
H138 C148 0.950 1_655 S
H139 C150 0.950 1_655 S
H140 C152 0.950 . S
H141 C153 0.950 . S
C142 H134 0.950 . S
C142 C143 1.386 . S
C142 C144 1.391 . S
C143 C142 1.386 . S
C143 C147 1.393 . S
C144 H136 0.950 . S
C144 C142 1.391 . S
C144 C145 1.400 . S
C145 C144 1.400 . S
C145 C146 1.398 . S
C145 C151 1.491 . S
C146 H137 0.950 1_455 S
C146 C145 1.398 . S
C146 C147 1.391 . S
C147 H135 0.950 1_455 S
C147 C143 1.393 . S
C147 C146 1.391 . S
C148 H138 0.950 1_455 S
C148 C149 1.386 . S
C148 C150 1.391 . S
C149 C148 1.386 . S
C149 C153 1.393 . S
C150 H139 0.950 1_455 S
C150 C148 1.391 . S
C150 C151 1.400 . S
C151 C145 1.491 . S
C151 C150 1.400 . S
C151 C152 1.398 . S
C152 H140 0.950 . S
C152 C151 1.398 . S
C152 C153 1.391 . S
C153 H141 0.950 . S
C153 C149 1.393 . S
C153 C152 1.391 . S
H154 C162 0.950 . S
H155 C167 0.950 1_565 S
H156 C164 0.950 . S
H157 C166 0.950 1_565 S
H158 C168 0.947 1_565 S
H159 C170 0.950 1_565 S
H160 C172 0.950 . S
H161 C173 0.950 . S
C162 H154 0.950 . S
C162 C163 1.386 . S
C162 C164 1.391 . S
C163 C162 1.386 . S
C163 C167 1.393 . S
C164 H156 0.950 . S
C164 C162 1.391 . S
C164 C165 1.400 . S
C165 C164 1.400 . S
C165 C166 1.398 . S
C165 C171 1.491 . S
C166 H157 0.950 1_545 S
C166 C165 1.398 . S
C166 C167 1.391 . S
C167 H155 0.950 1_545 S
C167 C163 1.393 . S
C167 C166 1.391 . S
C168 H158 0.947 1_545 S
C168 C169 1.386 . S
C168 C170 1.391 . S
C169 C168 1.386 . S
C169 C173 1.393 . S
C170 H159 0.950 1_545 S
C170 C168 1.391 . S
C170 C171 1.400 . S
C171 C165 1.491 . S
C171 C170 1.400 . S
C171 C172 1.398 . S
C172 H160 0.950 . S
C172 C171 1.398 . S
C172 C173 1.391 . S
C173 H161 0.950 . S
C173 C169 1.393 . S
C173 C172 1.391 . S
H174 C182 0.950 . S
H175 C187 0.932 1_655 S
H176 C184 0.950 . S
H177 C186 0.950 1_655 S
H178 C188 0.950 1_655 S
H179 C190 0.950 1_655 S
H180 C192 0.950 . S
H181 C193 0.950 . S
C182 H174 0.950 . S
C182 C183 1.386 . S
C182 C184 1.391 . S
C183 C182 1.386 . S
C183 C187 1.393 . S
C184 H176 0.950 . S
C184 C182 1.391 . S
C184 C185 1.400 . S
C185 C184 1.400 . S
C185 C186 1.398 . S
C185 C191 1.491 . S
C186 H177 0.950 1_455 S
C186 C185 1.398 . S
C186 C187 1.391 . S
C187 H175 0.932 1_455 S
C187 C183 1.393 . S
C187 C186 1.391 . S
C188 H178 0.950 1_455 S
C188 C189 1.386 . S
C188 C190 1.391 . S
C189 C188 1.386 . S
C189 C193 1.393 . S
C190 H179 0.950 1_455 S
C190 C188 1.391 . S
C190 C191 1.400 . S
C191 C185 1.491 . S
C191 C190 1.400 . S
C191 C192 1.398 . S
C192 H180 0.950 . S
C192 C191 1.398 . S
C192 C193 1.391 . S
C193 H181 0.950 . S
C193 C189 1.393 . S
C193 C192 1.391 . S
H194 C202 0.950 . S
H195 C207 0.950 . S
H196 C204 0.950 . S
H197 C206 0.950 . S
H198 C208 0.950 . S
H199 C210 0.950 . S
H200 C212 0.950 . S
H201 C213 0.950 . S
C202 H194 0.950 . S
C202 C203 1.386 . S
C202 C204 1.391 . S
C203 C202 1.386 . S
C203 C207 1.393 . S
C204 H196 0.950 . S
C204 C202 1.391 . S
C204 C205 1.400 . S
C205 C204 1.400 . S
C205 C206 1.398 . S
C205 C211 1.491 . S
C206 H197 0.950 . S
C206 C205 1.398 . S
C206 C207 1.391 . S
C207 H195 0.950 . S
C207 C203 1.393 . S
C207 C206 1.391 . S
C208 H198 0.950 . S
C208 C209 1.386 . S
C208 C210 1.391 . S
C209 C208 1.386 . S
C209 C213 1.393 . S
C210 H199 0.950 . S
C210 C208 1.391 . S
C210 C211 1.400 . S
C211 C205 1.491 . S
C211 C210 1.400 . S
C211 C212 1.398 . S
C212 H200 0.950 . S
C212 C211 1.398 . S
C212 C213 1.391 . S
C213 H201 0.950 . S
C213 C209 1.393 . S
C213 C212 1.391 . S
H214 C222 0.950 . S
H215 C227 0.950 . S
H216 C224 0.950 . S
H217 C226 0.950 . S
H218 C228 0.950 . S
H219 C230 0.950 . S
H220 C232 0.950 . S
H221 C233 0.950 . S
C222 H214 0.950 . S
C222 C223 1.386 . S
C222 C224 1.391 . S
C223 C222 1.386 . S
C223 C227 1.393 . S
C224 H216 0.950 . S
C224 C222 1.391 . S
C224 C225 1.400 . S
C225 C224 1.400 . S
C225 C226 1.398 . S
C225 C231 1.491 . S
C226 H217 0.950 . S
C226 C225 1.398 . S
C226 C227 1.391 . S
C227 H215 0.950 . S
C227 C223 1.393 . S
C227 C226 1.391 . S
C228 H218 0.950 . S
C228 C229 1.386 . S
C228 C230 1.391 . S
C229 C228 1.386 . S
C229 C233 1.393 . S
C230 H219 0.950 . S
C230 C228 1.391 . S
C230 C231 1.400 . S
C231 C225 1.491 . S
C231 C230 1.400 . S
C231 C232 1.398 . S
C232 H220 0.950 . S
C232 C231 1.398 . S
C232 C233 1.391 . S
C233 H221 0.950 . S
C233 C229 1.393 . S
C233 C232 1.391 . S
C89 C51 1.263 . S
C83 N12 1.429 . S
C109 C71 1.480 . S
C103 N25 1.472 . S
C129 C50 1.436 . S
C123 C16 1.467 . S
C149 C72 1.513 . S
C143 C30 1.513 . S
C169 C64 1.482 . S
C163 C7 1.515 . S
C189 C57 1.442 . S
C183 C39 1.456 . S
C209 C65 1.249 . S
C203 N2 1.468 . S
C223 N35 1.439 . S
C229 C58 1.481 . S
