# Generated by pormake.
# Topology pth, (4,4)-cn, num edge types: 1
# Building blocks:
#     Node 0, Type 0, BuildingBlock: TATPOV_clean_sbu_0, # of connection points: 4
#     Node 1, Type 0, BuildingBlock: TATPOV_clean_sbu_0, # of connection points: 4
#     Node 2, Type 0, BuildingBlock: TATPOV_clean_sbu_0, # of connection points: 4
#     Node 3, Type 1, BuildingBlock: MUDLON_clean_sbu_0, # of connection points: 4
#     Node 4, Type 1, BuildingBlock: MUDLON_clean_sbu_0, # of connection points: 4
#     Node 5, Type 1, BuildingBlock: MUDLON_clean_sbu_0, # of connection points: 4
#     Edge 6, Type (0, 1), BuildingBlock: AJUNOK_clean_linker_0, # of connection points: 2
#     Edge 7, Type (0, 1), BuildingBlock: AJUNOK_clean_linker_0, # of connection points: 2
#     Edge 8, Type (0, 1), BuildingBlock: AJUNOK_clean_linker_0, # of connection points: 2
#     Edge 9, Type (0, 1), BuildingBlock: AJUNOK_clean_linker_0, # of connection points: 2
#     Edge 10, Type (0, 1), BuildingBlock: AJUNOK_clean_linker_0, # of connection points: 2
#     Edge 11, Type (0, 1), BuildingBlock: AJUNOK_clean_linker_0, # of connection points: 2
#     Edge 12, Type (0, 1), BuildingBlock: AJUNOK_clean_linker_0, # of connection points: 2
#     Edge 13, Type (0, 1), BuildingBlock: AJUNOK_clean_linker_0, # of connection points: 2
#     Edge 14, Type (0, 1), BuildingBlock: AJUNOK_clean_linker_0, # of connection points: 2
#     Edge 15, Type (0, 1), BuildingBlock: AJUNOK_clean_linker_0, # of connection points: 2
#     Edge 16, Type (0, 1), BuildingBlock: AJUNOK_clean_linker_0, # of connection points: 2
#     Edge 17, Type (0, 1), BuildingBlock: AJUNOK_clean_linker_0, # of connection points: 2
# Relax obj value: 0.073
# Max RMSD: 0.186
# Mean RMSD: 0.119
data_MOF--net-pth--node1-TATPOV_clean_sbu_0--node2-MUDLON_clean_sbu_0--edge1-AJUNOK_clean_linker_0
_symmetry_space_group_name_H-M    P1
_symmetry_Int_Tables_number       1
_symmetry_cell_setting            triclinic
loop_
_symmetry_equiv_pos_as_xyz
'x, y, z'
_cell_length_a     16.833363
_cell_length_b     16.73577
_cell_length_c     43.444707
_cell_angle_alpha  93.224762
_cell_angle_beta   91.071349
_cell_angle_gamma 119.94224
loop_
_atom_site_label
_atom_site_type_symbol
_atom_site_fract_x
_atom_site_fract_y
_atom_site_fract_z
_atom_type_partial_charge
Zn0 Zn 0.16167 0.97435 0.06287 0.0
Zn1 Zn 0.14299 0.09097 0.10186 0.0
O2 O 0.1725 0.01258 0.13093 0.0
O3 O 0.18493 0.91477 0.09819 0.0
O4 O 0.12685 0.18078 0.13104 0.0
O5 O 0.26646 0.07696 0.04339 0.0
O6 O 0.24735 0.17549 0.07354 0.0
C7 C 0.18734 0.94535 0.12571 0.0
C8 C 0.98492 0.95933 0.05565 0.0
O9 O 0.01545 0.01929 0.07865 0.0
O10 O 0.03451 0.92931 0.04422 0.0
C11 C 0.0699 0.15041 0.1522 0.0
O12 O 0.02528 0.06113 0.15559 0.0
C13 C 0.28852 0.15942 0.05166 0.0
Zn14 Zn 0.23412 0.15478 0.40099 0.0
Zn15 Zn 0.08255 0.09839 0.43293 0.0
O16 O 0.18432 0.11135 0.46395 0.0
O17 O 0.3083 0.15475 0.43793 0.0
O18 O 0.97373 0.06203 0.46012 0.0
O19 O 0.23475 0.27056 0.39143 0.0
O20 O 0.10415 0.21929 0.41419 0.0
C21 C 0.26849 0.13322 0.46305 0.0
C22 C 0.07751 0.98003 0.37625 0.0
O23 O 0.03754 0.98925 0.3997 0.0
O24 O 0.15939 0.04084 0.37175 0.0
C25 C 0.95095 0.9971 0.47803 0.0
O26 O 0.99615 0.95189 0.47757 0.0
C27 C 0.16747 0.28007 0.39882 0.0
Zn28 Zn 0.20197 0.00388 0.80923 0.0
Zn29 Zn 0.08013 0.0304 0.77661 0.0
O30 O 0.15307 0.00511 0.74349 0.0
O31 O 0.25281 0.98274 0.76941 0.0
O32 O 0.98582 0.04464 0.75156 0.0
O33 O 0.10014 0.89813 0.82953 0.0
O34 O 1.00161 0.92486 0.80468 0.0
C35 C 0.21888 0.98795 0.74384 0.0
C36 C 0.21781 0.1844 0.82225 0.0
O37 O 0.15428 0.15646 0.80114 0.0
O38 O 0.24905 0.13294 0.8299 0.0
C39 C 1.00714 0.09939 0.73005 0.0
O40 O 0.09378 0.14892 0.72367 0.0
C41 C 0.01844 0.8801 0.82417 0.0
Mg42 Mg 0.07236 0.58909 0.26921 0.0
C43 C 0.0926 0.52201 0.32905 0.0
O44 O 1.00922 0.50965 0.32942 0.0
C45 C 0.18565 0.71334 0.22033 0.0
O46 O 0.18444 0.63699 0.21065 0.0
C47 C 0.0254 0.39979 0.24033 0.0
O48 O 0.03184 0.38595 0.2695 0.0
O49 O 0.0295 0.47486 0.23366 0.0
O50 O 0.14136 0.56113 0.30653 0.0
O51 O 0.97233 0.61454 0.292 0.0
C52 C 0.96221 0.68004 0.28307 0.0
O53 O 0.98064 0.70233 0.2545 0.0
O54 O 0.1532 0.71618 0.24628 0.0
Mg55 Mg 0.58819 0.04578 0.60061 0.0
C56 C 0.46335 0.06852 0.56066 0.0
O57 O 0.41969 0.98221 0.5679 0.0
C58 C 0.70385 0.08153 0.65757 0.0
O59 O 0.62358 0.01306 0.66405 0.0
C60 C 0.43953 0.0257 0.63948 0.0
O61 O 0.47708 0.11025 0.6307 0.0
O62 O 0.47126 0.97421 0.62993 0.0
O63 O 0.54564 0.12133 0.5714 0.0
O64 O 0.62707 0.97309 0.56605 0.0
C65 C 0.69415 0.96019 0.57173 0.0
O66 O 0.72642 0.97234 0.6004 0.0
O67 O 0.71016 0.11882 0.63225 0.0
Mg68 Mg 0.5624 0.61977 0.94046 0.0
C69 C 0.42242 0.54385 0.88731 0.0
O70 O 0.49431 0.59904 0.87229 0.0
C71 C 0.62657 0.76168 0.99406 0.0
O72 O 0.56914 0.68936 1.00836 0.0
C73 C 0.50781 0.43956 0.96847 0.0
O74 O 0.4948 0.41008 0.93914 0.0
O75 O 0.54483 0.52575 0.97553 0.0
O76 O 0.42799 0.55375 0.91664 0.0
O77 O 0.65885 0.63606 0.90541 0.0
C78 C 0.74477 0.67743 0.91177 0.0
O79 O 0.77482 0.69887 0.94086 0.0
O80 O 0.62186 0.75555 0.96469 0.0
C81 C 0.01803 0.186 0.20216 0.0
C82 C 0.05458 0.21413 0.17327 0.0
C83 C 1.0059 0.24541 0.22315 0.0
C84 C 0.02811 0.335 0.21597 0.0
H85 H 1.00078 0.11822 0.20906 0.0
H86 H 0.98015 0.22121 0.24543 0.0
S87 S 0.11992 0.44012 0.14238 0.0
N88 N 0.10916 0.33646 0.13798 0.0
N89 N 0.08442 0.44726 0.17706 0.0
C90 C 0.06141 0.36283 0.18665 0.0
C91 C 0.07532 0.30278 0.16545 0.0
C92 C 0.81452 0.00631 0.49615 0.0
C93 C 0.87893 0.97713 0.50063 0.0
C94 C 0.75058 0.99474 0.51833 0.0
C95 C 0.74957 0.9551 0.5462 0.0
H96 H 0.8145 0.03998 0.47557 0.0
H97 H 0.70473 0.02137 0.51423 0.0
S98 S 0.89956 0.86179 0.5685 0.0
N99 N 0.93349 0.90131 0.53438 0.0
N100 N 0.81523 0.88194 0.57624 0.0
C101 C 0.81134 0.92268 0.55049 0.0
C102 C 0.87542 0.93303 0.5277 0.0
C103 C 0.9702 0.79673 0.87239 0.0
C104 C 0.94535 0.81575 0.8437 0.0
C105 C 0.90434 0.7482 0.89362 0.0
C106 C 0.81056 0.7152 0.88694 0.0
H107 H 0.04173 0.82336 0.87926 0.0
H108 H 0.92764 0.73904 0.91587 0.0
S109 S 0.70797 0.73657 0.81352 0.0
N110 N 0.81946 0.79096 0.80869 0.0
N111 N 0.69528 0.69817 0.8483 0.0
C112 C 0.78399 0.72851 0.85754 0.0
C113 C 0.85142 0.77924 0.83604 0.0
C114 C 0.16988 0.90266 0.18082 0.0
C115 C 0.20195 0.89816 0.15145 0.0
C116 C 0.17048 0.84712 0.20385 0.0
C117 C 0.20328 0.785 0.1984 0.0
H118 H 0.13977 0.94581 0.18558 0.0
H119 H 0.14052 0.84956 0.22548 0.0
S120 S 0.31037 0.75969 0.12734 0.0
N121 N 0.27888 0.8357 0.11969 0.0
N122 N 0.27983 0.73182 0.16278 0.0
C123 C 0.24197 0.78527 0.16996 0.0
C124 C 0.24127 0.84158 0.14655 0.0
C125 C 0.41504 0.16539 0.49069 0.0
C126 C 0.31903 0.1282 0.49066 0.0
C127 C 0.46321 0.15174 0.51464 0.0
C128 C 0.41683 0.09923 0.53916 0.0
H129 H 0.45312 0.20298 0.47156 0.0
H130 H 0.53613 0.17785 0.51302 0.0
S131 S 0.16893 0.99708 0.5525 0.0
N132 N 0.18167 0.04498 0.5194 0.0
N133 N 0.272 0.01766 0.56382 0.0
C134 C 0.32216 0.0662 0.5404 0.0
C135 C 0.27329 0.0812 0.51634 0.0
C136 C 0.29481 0.35654 0.82277 0.0
C137 C 0.25447 0.27613 0.83882 0.0
C138 C 0.34354 0.4443 0.83877 0.0
C139 C 0.35173 0.45447 0.87133 0.0
H140 H 0.29354 0.35138 0.79777 0.0
H141 H 0.37886 0.50424 0.82552 0.0
S142 S 0.24398 0.2637 0.92362 0.0
N143 N 0.21685 0.21117 0.88855 0.0
N144 N 0.30421 0.37537 0.91879 0.0
C145 C 0.30414 0.37419 0.88747 0.0
C146 C 0.25686 0.28512 0.87115 0.0
C147 C 0.84605 0.06833 0.72354 0.0
C148 C 0.93424 0.10521 0.71213 0.0
C149 C 0.77376 0.06632 0.70638 0.0
C150 C 0.78609 0.10075 0.67694 0.0
H151 H 0.83197 0.03904 0.74575 0.0
H152 H 0.70672 0.03476 0.71598 0.0
S153 S 1.00452 0.20815 0.63685 0.0
N154 N 0.03092 0.18056 0.66989 0.0
N155 N 0.89459 0.17615 0.63755 0.0
C156 C 0.87475 0.14122 0.66567 0.0
C157 C 0.9488 0.14345 0.68325 0.0
C158 C 0.88185 0.91839 1.00882 0.0
C159 C 0.89268 0.9255 0.04116 0.0
C160 C 0.7946 0.87347 0.99378 0.0
C161 C 0.71461 0.83115 1.01051 0.0
H162 H 0.94147 0.94496 0.99496 0.0
H163 H 0.79047 0.86628 0.96878 0.0
S164 S 0.70654 0.84051 0.09592 0.0
N165 N 0.8173 0.89634 0.08968 0.0
N166 N 0.65233 0.80827 0.06146 0.0
C167 C 0.72465 0.8434 0.043 0.0
C168 C 0.81396 0.89134 0.05833 0.0
C169 C 0.03786 0.91647 0.32168 0.0
C170 C 0.02925 0.90046 0.35315 0.0
C171 C 1.00707 0.84335 0.29889 0.0
C172 C 0.9687 0.75118 0.30672 0.0
H173 H 0.07201 0.9866 0.31464 0.0
H174 H 0.01975 0.86033 0.27512 0.0
S175 S 0.92113 0.67216 0.38596 0.0
N176 N 0.97081 0.78595 0.39106 0.0
N177 N 0.915 0.64764 0.34831 0.0
C178 C 0.95389 0.73384 0.33811 0.0
C179 C 0.98379 0.80871 0.36132 0.0
C180 C 0.32375 0.94849 0.71456 0.0
C181 C 0.26184 0.98229 0.71473 0.0
C182 C 0.37609 0.95547 0.68895 0.0
C183 C 0.36941 0.99783 0.6628 0.0
H184 H 0.33457 0.91954 0.73483 0.0
H185 H 0.42629 0.93315 0.69048 0.0
S186 S 0.21016 0.08683 0.64961 0.0
N187 N 0.19039 0.05057 0.68471 0.0
N188 N 0.29047 0.06576 0.63717 0.0
C189 C 0.30407 0.02668 0.66184 0.0
C190 C 0.24972 0.01826 0.68763 0.0
C191 C 0.37908 0.21084 1.00461 0.0
C192 C 0.35513 0.23453 0.03325 0.0
C193 C 0.43207 0.27808 0.98456 0.0
C194 C 0.46467 0.37233 0.99233 0.0
H195 H 0.35366 0.13913 0.99686 0.0
H196 H 0.44514 0.25542 0.96235 0.0
S197 S 0.43029 0.47268 0.06598 0.0
N198 N 0.37423 0.36002 0.06935 0.0
N199 N 0.4752 0.48694 0.03187 0.0
C200 C 0.44589 0.39785 0.02165 0.0
C201 C 0.39075 0.32892 0.04201 0.0
C202 C 0.07298 0.35347 0.38734 0.0
C203 C 0.15711 0.35507 0.3859 0.0
C204 C 0.05511 0.41202 0.37033 0.0
C205 C 0.12045 0.47441 0.35104 0.0
H206 H 0.01846 0.30338 0.40044 0.0
H207 H 0.98753 0.40464 0.37119 0.0
S208 S 0.35778 0.51808 0.34351 0.0
N209 N 0.31145 0.43393 0.36696 0.0
N210 N 0.27707 0.54291 0.33479 0.0
C211 C 0.20743 0.48199 0.35129 0.0
C212 C 0.22595 0.42266 0.36875 0.0
loop_
_geom_bond_atom_site_label_1
_geom_bond_atom_site_label_2
_geom_bond_distance
_geom_bond_site_symmetry_2
_ccdc_geom_bond_type
Zn0 O3 2.031 . S
Zn0 O5 2.049 1_565 S
Zn0 O10 2.067 . S
Zn1 O2 1.962 . S
Zn1 O4 1.986 . S
Zn1 O6 1.996 . S
Zn1 O9 1.943 . S
O2 Zn1 1.962 . S
O2 C7 1.254 1_545 S
O3 Zn0 2.031 . S
O3 C7 1.269 . S
O4 Zn1 1.986 . S
O4 C11 1.262 . S
O5 Zn0 2.049 1_545 S
O5 C13 1.260 . S
O6 Zn1 1.996 . S
O6 C13 1.257 . S
C7 O2 1.254 1_565 S
C7 O3 1.269 . S
C8 O9 1.249 1_565 S
C8 O10 1.270 . S
O9 Zn1 1.943 . S
O9 C8 1.249 1_545 S
O10 Zn0 2.067 . S
O10 C8 1.270 . S
C11 O4 1.262 . S
C11 O12 1.232 . S
O12 C11 1.232 . S
C13 O5 1.260 . S
C13 O6 1.257 . S
Zn14 O17 2.031 . S
Zn14 O19 2.049 . S
Zn14 O24 2.067 . S
Zn15 O16 1.962 . S
Zn15 O18 1.986 1_455 S
Zn15 O20 1.996 . S
Zn15 O23 1.943 . S
O16 Zn15 1.962 . S
O16 C21 1.254 . S
O17 Zn14 2.031 . S
O17 C21 1.269 . S
O18 Zn15 1.986 1_655 S
O18 C25 1.262 . S
O19 Zn14 2.049 . S
O19 C27 1.260 . S
O20 Zn15 1.996 . S
O20 C27 1.257 . S
C21 O16 1.254 . S
C21 O17 1.269 . S
C22 O23 1.249 1_565 S
C22 O24 1.270 1_565 S
O23 Zn15 1.943 . S
O23 C22 1.249 1_545 S
O24 Zn14 2.067 . S
O24 C22 1.270 1_545 S
C25 O18 1.262 . S
C25 O26 1.232 . S
O26 C25 1.232 . S
C27 O19 1.260 . S
C27 O20 1.257 . S
Zn28 O31 2.031 1_565 S
Zn28 O33 2.049 . S
Zn28 O38 2.067 1_565 S
Zn29 O30 1.962 1_545 S
Zn29 O32 1.986 1_455 S
Zn29 O34 1.996 1_445 S
Zn29 O37 1.943 . S
O30 Zn29 1.962 1_565 S
O30 C35 1.254 1_565 S
O31 Zn28 2.031 1_545 S
O31 C35 1.269 . S
O32 Zn29 1.986 1_655 S
O32 C39 1.262 . S
O33 Zn28 2.049 . S
O33 C41 1.260 1_455 S
O34 Zn29 1.996 1_665 S
O34 C41 1.257 . S
C35 O30 1.254 1_545 S
C35 O31 1.269 . S
C36 O37 1.249 . S
C36 O38 1.270 . S
O37 Zn29 1.943 . S
O37 C36 1.249 . S
O38 Zn28 2.067 1_545 S
O38 C36 1.270 . S
C39 O32 1.262 . S
C39 O40 1.232 1_655 S
O40 C39 1.232 1_455 S
C41 O33 1.260 1_655 S
C41 O34 1.257 . S
Mg42 O49 2.141 . S
Mg42 O50 2.048 . S
Mg42 O51 2.048 . S
Mg42 O54 2.141 . S
C43 O44 1.313 1_455 S
C43 O50 1.195 . S
O44 C43 1.313 1_655 S
C45 O46 1.245 1_455 S
C45 O54 1.289 . S
O46 C45 1.245 1_655 S
C47 O48 1.245 1_455 S
C47 O49 1.289 . S
O48 C47 1.245 1_655 S
O49 Mg42 2.141 . S
O49 C47 1.289 . S
O50 Mg42 2.048 . S
O50 C43 1.195 . S
O51 Mg42 2.048 . S
O51 C52 1.195 . S
C52 O51 1.195 . S
C52 O53 1.313 1_455 S
O53 C52 1.313 1_655 S
O54 Mg42 2.141 . S
O54 C45 1.289 . S
Mg55 O62 2.141 . S
Mg55 O63 2.048 . S
Mg55 O64 2.048 . S
Mg55 O67 2.141 . S
C56 O57 1.313 1_545 S
C56 O63 1.195 . S
O57 C56 1.313 1_565 S
C58 O59 1.245 1_545 S
C58 O67 1.289 . S
O59 C58 1.245 1_565 S
C60 O61 1.245 1_545 S
C60 O62 1.289 . S
O61 C60 1.245 1_565 S
O62 Mg55 2.141 . S
O62 C60 1.289 . S
O63 Mg55 2.048 . S
O63 C56 1.195 . S
O64 Mg55 2.048 . S
O64 C65 1.195 . S
C65 O64 1.195 . S
C65 O66 1.313 1_545 S
O66 C65 1.313 1_565 S
O67 Mg55 2.141 . S
O67 C58 1.289 . S
Mg68 O75 2.141 . S
Mg68 O76 2.048 . S
Mg68 O77 2.048 . S
Mg68 O80 2.141 . S
C69 O70 1.313 . S
C69 O76 1.195 . S
O70 C69 1.313 . S
C71 O72 1.245 . S
C71 O80 1.289 . S
O72 C71 1.245 . S
C73 O74 1.245 . S
C73 O75 1.289 . S
O74 C73 1.245 . S
O75 Mg68 2.141 . S
O75 C73 1.289 . S
O76 Mg68 2.048 . S
O76 C69 1.195 . S
O77 Mg68 2.048 . S
O77 C78 1.195 . S
C78 O77 1.195 . S
C78 O79 1.313 . S
O79 C78 1.313 . S
O80 Mg68 2.141 . S
O80 C71 1.289 . S
C81 C82 1.369 . S
C81 C83 1.419 . S
C81 H85 0.930 1_455 S
C82 C81 1.369 . S
C82 C91 1.429 . S
C83 C81 1.419 . S
C83 C84 1.363 . S
C83 H86 0.929 1_455 S
C84 C83 1.363 . S
C84 C90 1.428 . S
H85 C81 0.930 1_655 S
H86 C83 0.929 1_655 S
S87 N88 1.613 . S
S87 N89 1.610 . S
N88 S87 1.613 . S
N88 C91 1.350 . S
N89 S87 1.610 . S
N89 C90 1.351 . S
C90 C84 1.428 . S
C90 N89 1.351 . S
C90 C91 1.434 . S
C91 C82 1.429 . S
C91 N88 1.350 . S
C91 C90 1.434 . S
C92 C93 1.369 . S
C92 C94 1.419 . S
C92 H96 0.930 . S
C93 C92 1.369 . S
C93 C102 1.429 . S
C94 C92 1.419 . S
C94 C95 1.363 . S
C94 H97 0.929 . S
C95 C94 1.363 . S
C95 C101 1.428 . S
H96 C92 0.930 . S
H97 C94 0.929 . S
S98 N99 1.613 . S
S98 N100 1.610 . S
N99 S98 1.613 . S
N99 C102 1.350 1_565 S
N100 S98 1.610 . S
N100 C101 1.351 1_565 S
C101 C95 1.428 . S
C101 N100 1.351 1_545 S
C101 C102 1.434 . S
C102 C93 1.429 . S
C102 N99 1.350 1_545 S
C102 C101 1.434 . S
C103 C104 1.369 . S
C103 C105 1.419 . S
C103 H107 0.930 . S
C104 C103 1.369 . S
C104 C113 1.429 . S
C105 C103 1.419 . S
C105 C106 1.363 . S
C105 H108 0.929 . S
C106 C105 1.363 . S
C106 C112 1.428 . S
H107 C103 0.930 . S
H108 C105 0.929 . S
S109 N110 1.613 . S
S109 N111 1.610 . S
N110 S109 1.613 . S
N110 C113 1.350 . S
N111 S109 1.610 . S
N111 C112 1.351 . S
C112 C106 1.428 . S
C112 N111 1.351 . S
C112 C113 1.434 . S
C113 C104 1.429 . S
C113 N110 1.350 . S
C113 C112 1.434 . S
C114 C115 1.369 . S
C114 C116 1.419 . S
C114 H118 0.930 1_565 S
C115 C114 1.369 . S
C115 C124 1.429 . S
C116 C114 1.419 . S
C116 C117 1.363 . S
C116 H119 0.929 . S
C117 C116 1.363 . S
C117 C123 1.428 . S
H118 C114 0.930 1_545 S
H119 C116 0.929 . S
S120 N121 1.613 . S
S120 N122 1.610 . S
N121 S120 1.613 . S
N121 C124 1.350 . S
N122 S120 1.610 . S
N122 C123 1.351 . S
C123 C117 1.428 . S
C123 N122 1.351 . S
C123 C124 1.434 . S
C124 C115 1.429 . S
C124 N121 1.350 . S
C124 C123 1.434 . S
C125 C126 1.369 . S
C125 C127 1.419 . S
C125 H129 0.930 . S
C126 C125 1.369 . S
C126 C135 1.429 . S
C127 C125 1.419 . S
C127 C128 1.363 . S
C127 H130 0.929 . S
C128 C127 1.363 . S
C128 C134 1.428 . S
H129 C125 0.930 . S
H130 C127 0.929 . S
S131 N132 1.613 . S
S131 N133 1.610 . S
N132 S131 1.613 . S
N132 C135 1.350 1_565 S
N133 S131 1.610 . S
N133 C134 1.351 1_565 S
C134 C128 1.428 . S
C134 N133 1.351 1_545 S
C134 C135 1.434 . S
C135 C126 1.429 . S
C135 N132 1.350 1_545 S
C135 C134 1.434 . S
C136 C137 1.369 . S
C136 C138 1.419 . S
C136 H140 0.930 . S
C137 C136 1.369 . S
C137 C146 1.429 . S
C138 C136 1.419 . S
C138 C139 1.363 . S
C138 H141 0.929 . S
C139 C138 1.363 . S
C139 C145 1.428 . S
H140 C136 0.930 . S
H141 C138 0.929 . S
S142 N143 1.613 . S
S142 N144 1.610 . S
N143 S142 1.613 . S
N143 C146 1.350 . S
N144 S142 1.610 . S
N144 C145 1.351 . S
C145 C139 1.428 . S
C145 N144 1.351 . S
C145 C146 1.434 . S
C146 C137 1.429 . S
C146 N143 1.350 . S
C146 C145 1.434 . S
C147 C148 1.369 . S
C147 C149 1.419 . S
C147 H151 0.930 . S
C148 C147 1.369 . S
C148 C157 1.429 . S
C149 C147 1.419 . S
C149 C150 1.363 . S
C149 H152 0.929 . S
C150 C149 1.363 . S
C150 C156 1.428 . S
H151 C147 0.930 . S
H152 C149 0.929 . S
S153 N154 1.613 . S
S153 N155 1.610 . S
N154 S153 1.613 . S
N154 C157 1.350 . S
N155 S153 1.610 . S
N155 C156 1.351 . S
C156 C150 1.428 . S
C156 N155 1.351 . S
C156 C157 1.434 . S
C157 C148 1.429 . S
C157 N154 1.350 . S
C157 C156 1.434 . S
C158 C159 1.369 . S
C158 C160 1.419 1_554 S
C158 H162 0.930 . S
C159 C158 1.369 . S
C159 C168 1.429 . S
C160 C158 1.419 1_556 S
C160 C161 1.363 . S
C160 H163 0.929 . S
C161 C160 1.363 . S
C161 C167 1.428 1_556 S
H162 C158 0.930 . S
H163 C160 0.929 . S
S164 N165 1.613 . S
S164 N166 1.610 . S
N165 S164 1.613 . S
N165 C168 1.350 . S
N166 S164 1.610 . S
N166 C167 1.351 . S
C167 C161 1.428 1_554 S
C167 N166 1.351 . S
C167 C168 1.434 . S
C168 C159 1.429 . S
C168 N165 1.350 . S
C168 C167 1.434 . S
C169 C170 1.369 1_655 S
C169 C171 1.419 1_655 S
C169 H173 0.930 . S
C170 C169 1.369 1_455 S
C170 C179 1.429 . S
C171 C169 1.419 1_455 S
C171 C172 1.363 . S
C171 H174 0.929 1_455 S
C172 C171 1.363 . S
C172 C178 1.428 . S
H173 C169 0.930 . S
H174 C171 0.929 1_655 S
S175 N176 1.613 . S
S175 N177 1.610 . S
N176 S175 1.613 . S
N176 C179 1.350 . S
N177 S175 1.610 . S
N177 C178 1.351 . S
C178 C172 1.428 . S
C178 N177 1.351 . S
C178 C179 1.434 . S
C179 C170 1.429 . S
C179 N176 1.350 . S
C179 C178 1.434 . S
C180 C181 1.369 . S
C180 C182 1.419 . S
C180 H184 0.930 . S
C181 C180 1.369 . S
C181 C190 1.429 . S
C182 C180 1.419 . S
C182 C183 1.363 . S
C182 H185 0.929 . S
C183 C182 1.363 . S
C183 C189 1.428 . S
H184 C180 0.930 . S
H185 C182 0.929 . S
S186 N187 1.613 . S
S186 N188 1.610 . S
N187 S186 1.613 . S
N187 C190 1.350 1_565 S
N188 S186 1.610 . S
N188 C189 1.351 1_565 S
C189 C183 1.428 . S
C189 N188 1.351 1_545 S
C189 C190 1.434 . S
C190 C181 1.429 . S
C190 N187 1.350 1_545 S
C190 C189 1.434 . S
C191 C192 1.369 . S
C191 C193 1.419 1_554 S
C191 H195 0.938 . S
C192 C191 1.369 . S
C192 C201 1.429 . S
C193 C191 1.419 1_556 S
C193 C194 1.363 . S
C193 H196 0.929 . S
C194 C193 1.363 . S
C194 C200 1.428 1_556 S
H195 C191 0.938 . S
H196 C193 0.929 . S
S197 N198 1.613 . S
S197 N199 1.610 . S
N198 S197 1.613 . S
N198 C201 1.350 . S
N199 S197 1.610 . S
N199 C200 1.351 . S
C200 C194 1.428 1_554 S
C200 N199 1.351 . S
C200 C201 1.434 . S
C201 C192 1.429 . S
C201 N198 1.350 . S
C201 C200 1.434 . S
C202 C203 1.369 . S
C202 C204 1.419 . S
C202 H206 0.930 . S
C203 C202 1.369 . S
C203 C212 1.429 . S
C204 C202 1.419 . S
C204 C205 1.363 . S
C204 H207 0.929 . S
C205 C204 1.363 . S
C205 C211 1.428 . S
H206 C202 0.930 . S
H207 C204 0.929 . S
S208 N209 1.613 . S
S208 N210 1.610 . S
N209 S208 1.613 . S
N209 C212 1.350 . S
N210 S208 1.610 . S
N210 C211 1.351 . S
C211 C205 1.428 . S
C211 N210 1.351 . S
C211 C212 1.434 . S
C212 C203 1.429 . S
C212 N209 1.350 . S
C212 C211 1.434 . S
C84 C47 1.329 . S
C82 C11 1.313 . S
C93 C25 1.429 . S
C95 C65 1.442 . S
C104 C41 1.413 . S
C106 C78 1.464 . S
C115 C7 1.395 . S
C117 C45 1.395 . S
C128 C56 1.500 . S
C126 C21 1.494 . S
C137 C36 1.420 . S
C139 C69 1.510 . S
C150 C58 1.390 . S
C148 C39 1.361 . S
C159 C8 1.355 1_655 S
C161 C71 1.446 . S
C172 C52 1.537 . S
C170 C22 1.466 . S
C183 C60 1.413 . S
C181 C35 1.434 . S
C194 C73 1.399 . S
C192 C13 1.347 . S
C203 C27 1.449 . S
C205 C43 1.504 . S
