# Generated by pormake.
# Topology scu, (8,4)-cn, num edge types: 1
# Building blocks:
#     Node 0, Type 0, BuildingBlock: GIZVER_clean_sbu_0, # of connection points: 8
#     Node 1, Type 1, BuildingBlock: NAWXER_clean_sbu_0, # of connection points: 4
#     Node 2, Type 1, BuildingBlock: NAWXER_clean_sbu_0, # of connection points: 4
#     Edge 3, Type (0, 1), BuildingBlock: EZIPEK_clean_linker_0, # of connection points: 2
#     Edge 4, Type (0, 1), BuildingBlock: EZIPEK_clean_linker_0, # of connection points: 2
#     Edge 5, Type (0, 1), BuildingBlock: EZIPEK_clean_linker_0, # of connection points: 2
#     Edge 6, Type (0, 1), BuildingBlock: EZIPEK_clean_linker_0, # of connection points: 2
#     Edge 7, Type (0, 1), BuildingBlock: EZIPEK_clean_linker_0, # of connection points: 2
#     Edge 8, Type (0, 1), BuildingBlock: EZIPEK_clean_linker_0, # of connection points: 2
#     Edge 9, Type (0, 1), BuildingBlock: EZIPEK_clean_linker_0, # of connection points: 2
#     Edge 10, Type (0, 1), BuildingBlock: EZIPEK_clean_linker_0, # of connection points: 2
# Relax obj value: 0.015
# Max RMSD: 0.069
# Mean RMSD: 0.056
data_MOF--net-scu--node1-GIZVER_clean_sbu_0--node2-NAWXER_clean_sbu_0--edge1-EZIPEK_clean_linker_0
_symmetry_space_group_name_H-M    P1
_symmetry_Int_Tables_number       1
_symmetry_cell_setting            triclinic
loop_
_symmetry_equiv_pos_as_xyz
'x, y, z'
_cell_length_a     17.409831
_cell_length_b     18.15508
_cell_length_c     16.811438
_cell_angle_alpha  102.8626
_cell_angle_beta   79.584021
_cell_angle_gamma 113.24906
loop_
_atom_site_label
_atom_site_type_symbol
_atom_site_fract_x
_atom_site_fract_y
_atom_site_fract_z
_atom_type_partial_charge
Co0 Co 1.00822 0.9119 0.18126 0.0
Co1 Co 0.14542 0.01907 0.1266 0.0
Co2 Co 1.00753 1.00373 0.02496 0.0
O3 O 0.05502 0.94358 0.07638 0.0
H4 H 0.06801 0.90026 0.03942 0.0
O5 O 0.9571 0.06248 0.97524 0.0
Co6 Co 1.0078 0.11196 0.8796 0.0
Co7 Co 0.8719 0.98759 0.91194 0.0
H8 H 0.93451 0.09697 1.01668 0.0
O9 O 0.23154 0.99335 0.13826 0.0
O10 O 0.11679 0.99115 0.23092 0.0
O11 O 0.16949 0.13471 0.13057 0.0
O12 O 0.03749 0.10532 0.11317 0.0
O13 O 0.11834 0.0468 0.95861 0.0
O14 O 0.0515 0.16272 0.79402 0.0
O15 O 0.96151 0.18905 0.89941 0.0
O16 O 0.06577 0.03832 0.84443 0.0
O17 O 0.98193 0.90482 0.93576 0.0
O18 O 0.8755 0.88243 0.86636 0.0
O19 O 0.90622 0.03821 0.8218 0.0
O20 O 0.78233 1.01326 0.90228 0.0
C21 C 0.99716 0.82083 0.24186 0.0
C22 C 0.89126 0.96785 0.16777 0.0
C23 C 0.10736 0.1561 0.13853 0.0
C24 C 0.19515 0.99526 0.21303 0.0
C25 C 1.00247 0.20206 0.82729 0.0
C26 C 0.12212 0.03404 0.88047 0.0
C27 C 0.93479 0.86426 0.87889 0.0
C28 C 0.83056 0.0406 0.83849 0.0
O29 O 0.96439 0.87491 0.27488 0.0
O30 O 0.04324 0.82777 0.17099 0.0
O31 O 0.89672 0.95797 0.08982 0.0
O32 O 0.95657 0.98884 0.20428 0.0
C33 C 0.04125 0.63479 0.63195 0.0
C34 C 0.07974 0.42756 0.38969 0.0
O35 O 0.11466 0.63743 0.59966 0.0
Zn36 Zn 0.07925 0.53929 0.51224 0.0
O37 O 0.97701 0.57847 0.60251 0.0
Zn38 Zn 0.93977 0.47391 0.51649 0.0
O39 O 0.8989 0.39091 0.59179 0.0
O40 O 0.0358 0.45441 0.59086 0.0
O41 O 1.00617 0.42353 0.42003 0.0
O42 O 0.14242 0.48463 0.42245 0.0
O43 O 0.01785 0.58014 0.44386 0.0
O44 O 0.88042 0.51075 0.45248 0.0
C45 C 0.96779 0.40278 0.61862 0.0
C46 C 0.94517 0.56693 0.42491 0.0
C47 C 0.64562 0.09898 0.62619 0.0
C48 C 0.43579 0.06574 0.44288 0.0
O49 O 0.59472 0.02717 0.60295 0.0
Zn50 Zn 0.49839 0.96236 0.52831 0.0
O51 O 0.64089 0.15917 0.60268 0.0
Zn52 Zn 0.54442 0.09638 0.53644 0.0
O53 O 0.44779 0.05227 0.62497 0.0
O54 O 0.39858 0.91858 0.60739 0.0
O55 O 0.48303 0.13505 0.478 0.0
O56 O 0.44124 1.0015 0.4558 0.0
O57 O 0.56175 0.90695 0.44337 0.0
O58 O 0.60053 0.03623 0.43797 0.0
C59 C 0.39361 0.9862 0.64522 0.0
C60 C 0.60833 0.96836 0.40906 0.0
C61 C 0.14601 0.30948 0.18448 0.0
C62 C 0.10745 0.22882 0.20135 0.0
C63 C 0.04101 0.27726 0.3312 0.0
C64 C 0.08813 0.36017 0.322 0.0
N65 N 0.18895 0.45467 0.23757 0.0
N66 N 0.0489 0.14527 0.30637 0.0
C67 C 0.14262 0.37625 0.24813 0.0
C68 C 0.06467 0.21578 0.27944 0.0
N69 N 0.18382 0.32196 0.10753 0.0
N70 N 0.9714 0.25424 0.38623 0.0
H71 H 0.07172 0.1018 0.27245 0.0
H72 H 0.02461 0.13598 0.36633 0.0
H73 H 0.94307 0.29214 0.42341 0.0
H74 H 0.93566 0.19333 0.38973 0.0
H75 H 0.20591 0.37808 0.08824 0.0
H76 H 0.18829 0.27438 0.06123 0.0
H77 H 0.23612 0.47028 0.18959 0.0
H78 H 0.1824 0.50456 0.27873 0.0
C79 C 0.74945 0.89133 0.23601 0.0
C80 C 0.81137 0.96562 0.21705 0.0
C81 C 0.74374 0.0414 0.32333 0.0
C82 C 0.67685 0.96672 0.34035 0.0
N83 N 0.6046 0.82414 0.28651 0.0
N84 N 0.84961 0.10853 0.2207 0.0
C85 C 0.67611 0.89238 0.28912 0.0
C86 C 0.80174 0.03959 0.25282 0.0
N87 N 0.76066 0.81981 0.20396 0.0
N88 N 0.7571 0.11361 0.37616 0.0
H89 H 0.89252 0.10842 0.16878 0.0
H90 H 0.83946 0.16296 0.23899 0.0
H91 H 0.73269 0.1195 0.4372 0.0
H92 H 0.80302 0.16856 0.3639 0.0
H93 H 0.72169 0.76488 0.223 0.0
H94 H 0.81213 0.81662 0.16248 0.0
H95 H 0.60026 0.77062 0.24559 0.0
H96 H 0.54659 0.82404 0.31597 0.0
C97 C 0.95122 0.67025 0.24787 0.0
C98 C 0.98155 0.75306 0.28722 0.0
C99 C 0.95843 0.70704 0.41966 0.0
C100 C 0.9401 0.62577 0.3789 0.0
N101 N 0.92784 0.5301 0.25288 0.0
N102 N 0.028 0.84965 0.41007 0.0
C103 C 0.93869 0.60729 0.29256 0.0
C104 C 0.9885 0.77127 0.37316 0.0
N105 N 0.93043 0.6511 0.16927 0.0
N106 N 0.94676 0.72275 0.50341 0.0
H107 H 0.05466 0.89858 0.3783 0.0
H108 H 0.04283 0.86515 0.47041 0.0
H109 H 0.92361 0.6767 0.53901 0.0
H110 H 0.95135 0.77977 0.5368 0.0
H111 H 0.90035 0.59165 0.14059 0.0
H112 H 0.93563 0.69457 0.13519 0.0
H113 H 0.93644 0.51485 0.18928 0.0
H114 H 0.91509 0.48222 0.28414 0.0
C115 C 0.31282 0.09625 0.2932 0.0
C116 C 0.24998 0.01706 0.27925 0.0
C117 C 0.29533 0.98169 0.38902 0.0
C118 C 0.36892 0.05468 0.3917 0.0
N119 N 0.45401 0.1738 0.32916 0.0
N120 N 0.19935 0.87772 0.29912 0.0
C121 C 0.37941 0.11054 0.33961 0.0
C122 C 0.2461 0.95775 0.32294 0.0
N123 N 0.30912 0.15803 0.26243 0.0
N124 N 0.27018 0.93569 0.44994 0.0
H125 H 0.16699 0.85731 0.24734 0.0
H126 H 0.20071 0.83147 0.32554 0.0
H127 H 0.29936 0.95208 0.50335 0.0
H128 H 0.21342 0.88602 0.45185 0.0
H129 H 0.34928 0.21839 0.277 0.0
H130 H 0.26001 0.15004 0.2303 0.0
H131 H 0.46589 0.21098 0.2857 0.0
H132 H 0.50734 0.18373 0.35598 0.0
C133 C 0.94895 0.72844 0.83496 0.0
C134 C 0.96175 0.8047 0.81668 0.0
C135 C 0.04895 0.77764 0.68956 0.0
C136 C 0.02476 0.69613 0.70125 0.0
N137 N 0.92783 0.58961 0.77732 0.0
N138 N 1.00797 0.89402 0.71577 0.0
C139 C 0.96843 0.67013 0.77196 0.0
C140 C 1.00748 0.82736 0.74102 0.0
N141 N 0.91592 0.7103 0.91152 0.0
N142 N 0.10892 0.80728 0.62791 0.0
H143 H 0.97383 0.92892 0.74841 0.0
H144 H 0.03389 0.90896 0.6579 0.0
H145 H 0.13825 0.77245 0.58606 0.0
H146 H 0.13481 0.86875 0.62289 0.0
H147 H 0.91384 0.65838 0.93011 0.0
H148 H 0.89686 0.75004 0.9582 0.0
H149 H 0.88078 0.56886 0.8241 0.0
H150 H 0.93261 0.54276 0.73107 0.0
C151 C 0.24041 0.07805 0.77362 0.0
C152 C 0.19694 0.02318 0.82854 0.0
C153 C 0.28805 0.94529 0.76937 0.0
C154 C 0.32158 0.99305 0.70603 0.0
N155 N 0.30694 0.09116 0.63748 0.0
N156 N 0.1713 0.89594 0.87066 0.0
C157 C 0.29134 0.05556 0.70517 0.0
C158 C 0.21848 0.95431 0.82444 0.0
N159 N 0.23414 0.15266 0.78724 0.0
N160 N 0.3243 0.8942 0.77984 0.0
H161 H 0.12143 0.90126 0.91221 0.0
H162 H 0.17763 0.83992 0.86262 0.0
H163 H 0.37703 0.88787 0.74308 0.0
H164 H 0.30708 0.86428 0.8302 0.0
H165 H 0.27089 0.19774 0.75235 0.0
H166 H 0.19984 0.17267 0.83905 0.0
H167 H 0.27894 0.13092 0.63226 0.0
H168 H 0.33855 0.07374 0.58288 0.0
C169 C 0.98024 0.22402 0.6915 0.0
C170 C 0.98762 0.25305 0.7772 0.0
C171 C 0.9879 0.38387 0.75816 0.0
C172 C 0.97425 0.35199 0.67441 0.0
N173 N 1.00675 0.26183 0.55802 0.0
N174 N 0.99154 0.36022 0.89346 0.0
C175 C 0.98324 0.27719 0.63999 0.0
C176 C 0.98812 0.3324 0.81119 0.0
N177 N 0.96842 0.14487 0.65831 0.0
N178 N 0.01364 0.46587 0.78394 0.0
H179 H 1.00265 0.33019 0.9335 0.0
H180 H 0.97912 0.41183 0.92297 0.0
H181 H 0.032 0.50621 0.74268 0.0
H182 H 0.03053 0.4947 0.84249 0.0
H183 H 0.95348 0.11967 0.59842 0.0
H184 H 0.9633 0.10119 0.69175 0.0
H185 H 0.02281 0.21195 0.52956 0.0
H186 H 0.02492 0.30661 0.5218 0.0
C187 C 0.76271 0.1305 0.80914 0.0
C188 C 0.79499 0.06716 0.78094 0.0
C189 C 0.75684 0.05276 0.64389 0.0
C190 C 0.71232 0.10578 0.67477 0.0
N191 N 0.66951 0.19336 0.78822 0.0
N192 N 0.80943 0.95837 0.67411 0.0
C193 C 0.71566 0.14556 0.75748 0.0
C194 C 0.78899 0.02602 0.69887 0.0
N195 N 0.77693 0.17626 0.88521 0.0
N196 N 0.76776 0.02733 0.56137 0.0
H197 H 0.83107 0.93471 0.71264 0.0
H198 H 0.7974 0.92104 0.61737 0.0
H199 H 0.74446 0.04553 0.51957 0.0
H200 H 0.80691 0.99555 0.53434 0.0
H201 H 0.76423 0.22924 0.90524 0.0
H202 H 0.80702 0.16465 0.92651 0.0
H203 H 0.66031 0.21552 0.85042 0.0
H204 H 0.63641 0.20743 0.75178 0.0
loop_
_geom_bond_atom_site_label_1
_geom_bond_atom_site_label_2
_geom_bond_distance
_geom_bond_site_symmetry_2
_ccdc_geom_bond_type
Co0 O3 2.042 . S
Co0 O10 2.264 1_565 S
Co0 O29 2.286 1_455 S
Co0 O30 2.069 . S
Co0 O32 2.015 1_455 S
Co1 O3 2.122 1_545 S
Co1 O9 2.073 . S
Co1 O10 2.327 . S
Co1 O11 1.976 . S
Co2 O3 2.089 1_545 S
Co2 O5 2.085 1_454 S
Co2 O12 2.123 . S
Co2 O13 2.155 1_554 S
Co2 O17 2.099 1_444 S
Co2 O31 2.132 1_445 S
O3 Co0 2.042 . S
O3 Co1 2.122 1_565 S
O3 Co2 2.089 1_565 S
O3 H4 0.980 . S
H4 O3 0.980 . S
O5 Co2 2.085 1_656 S
O5 Co6 2.042 1_655 S
O5 Co7 2.122 1_545 S
O5 H8 0.980 . S
Co6 O5 2.042 1_455 S
Co6 O14 2.286 . S
Co6 O15 2.069 1_455 S
Co6 O16 2.015 . S
Co6 O19 2.264 1_445 S
Co7 O5 2.122 1_565 S
Co7 O18 1.976 . S
Co7 O19 2.327 . S
Co7 O20 2.073 . S
H8 O5 0.980 . S
O9 Co1 2.073 . S
O9 C24 1.245 1_545 S
O10 Co0 2.264 1_545 S
O10 Co1 2.327 . S
O10 C24 1.257 1_545 S
O11 Co1 1.976 . S
O11 C23 1.251 . S
O12 Co2 2.123 . S
O12 C23 1.274 . S
O13 Co2 2.155 1_556 S
O13 C26 1.246 . S
O14 Co6 2.286 . S
O14 C25 1.259 1_455 S
O15 Co6 2.069 1_655 S
O15 C25 1.289 . S
O16 Co6 2.015 . S
O16 C26 1.257 . S
O17 Co2 2.099 1_666 S
O17 C27 1.274 . S
O18 Co7 1.976 . S
O18 C27 1.251 . S
O19 Co6 2.264 1_665 S
O19 Co7 2.327 . S
O19 C28 1.257 1_565 S
O20 Co7 2.073 . S
O20 C28 1.245 1_565 S
C21 O29 1.259 1_455 S
C21 O30 1.289 . S
C22 O31 1.246 . S
C22 O32 1.257 . S
C23 O11 1.251 . S
C23 O12 1.274 . S
C24 O9 1.245 1_565 S
C24 O10 1.257 1_565 S
C25 O14 1.259 1_655 S
C25 O15 1.289 . S
C26 O13 1.246 . S
C26 O16 1.257 . S
C27 O17 1.274 . S
C27 O18 1.251 . S
C28 O19 1.257 1_545 S
C28 O20 1.245 1_545 S
O29 Co0 2.286 1_655 S
O29 C21 1.259 1_655 S
O30 Co0 2.069 . S
O30 C21 1.289 . S
O31 Co2 2.132 1_665 S
O31 C22 1.246 . S
O32 Co0 2.015 1_655 S
O32 C22 1.257 . S
C33 O35 1.247 . S
C33 O37 1.258 1_455 S
C34 O41 1.237 1_455 S
C34 O42 1.265 . S
O35 C33 1.247 . S
O35 Zn36 2.028 . S
Zn36 O35 2.028 . S
Zn36 O40 2.035 . S
Zn36 O42 2.035 . S
Zn36 O43 2.028 . S
O37 C33 1.258 1_655 S
O37 Zn38 2.035 . S
Zn38 O37 2.035 . S
Zn38 O39 2.028 . S
Zn38 O41 2.028 . S
Zn38 O44 2.035 . S
O39 Zn38 2.028 . S
O39 C45 1.236 1_655 S
O40 Zn36 2.035 . S
O40 C45 1.265 . S
O41 C34 1.237 1_655 S
O41 Zn38 2.028 . S
O42 C34 1.265 . S
O42 Zn36 2.035 . S
O43 Zn36 2.028 . S
O43 C46 1.247 . S
O44 Zn38 2.035 . S
O44 C46 1.258 1_655 S
C45 O39 1.236 1_455 S
C45 O40 1.265 . S
C46 O43 1.247 . S
C46 O44 1.258 1_455 S
C47 O49 1.241 1_545 S
C47 O51 1.268 . S
C48 O55 1.247 . S
C48 O56 1.258 1_545 S
O49 C47 1.241 1_565 S
O49 Zn50 2.028 . S
Zn50 O49 2.028 . S
Zn50 O54 2.035 . S
Zn50 O56 2.035 . S
Zn50 O57 2.028 . S
O51 C47 1.268 . S
O51 Zn52 2.035 . S
Zn52 O51 2.035 . S
Zn52 O53 2.028 . S
Zn52 O55 2.028 . S
Zn52 O58 2.035 . S
O53 Zn52 2.028 . S
O53 C59 1.247 . S
O54 Zn50 2.035 . S
O54 C59 1.258 1_565 S
O55 C48 1.247 . S
O55 Zn52 2.028 . S
O56 C48 1.258 1_565 S
O56 Zn50 2.035 . S
O57 Zn50 2.028 . S
O57 C60 1.240 1_565 S
O58 Zn52 2.035 . S
O58 C60 1.267 . S
C59 O53 1.247 . S
C59 O54 1.258 1_545 S
C60 O57 1.240 1_545 S
C60 O58 1.267 . S
C61 C62 1.363 . S
C61 C67 1.379 . S
C61 N69 1.356 . S
C62 C61 1.363 . S
C62 C68 1.363 1_455 S
C63 C64 1.363 1_655 S
C63 C68 1.379 . S
C63 N70 1.356 . S
C64 C63 1.363 1_455 S
C64 C67 1.363 . S
N65 C67 1.356 . S
N65 H77 0.984 . S
N65 H78 0.985 . S
N66 C68 1.356 . S
N66 H71 0.984 . S
N66 H72 0.985 . S
C67 C61 1.379 . S
C67 C64 1.363 . S
C67 N65 1.356 . S
C68 C62 1.363 1_655 S
C68 C63 1.379 . S
C68 N66 1.356 . S
N69 C61 1.356 . S
N69 H75 0.984 . S
N69 H76 0.984 . S
N70 C63 1.356 . S
N70 H73 0.984 . S
N70 H74 0.985 . S
H71 N66 0.984 . S
H72 N66 0.985 . S
H73 N70 0.984 . S
H74 N70 0.985 . S
H75 N69 0.984 . S
H76 N69 0.984 . S
H77 N65 0.984 . S
H78 N65 0.985 . S
C79 C80 1.363 . S
C79 C85 1.379 . S
C79 N87 1.356 . S
C80 C79 1.363 . S
C80 C86 1.363 1_565 S
C81 C82 1.354 1_545 S
C81 C86 1.379 . S
C81 N88 1.356 . S
C82 C81 1.354 1_565 S
C82 C85 1.375 . S
N83 C85 1.356 . S
N83 H95 0.984 . S
N83 H96 0.985 . S
N84 C86 1.356 . S
N84 H89 0.984 . S
N84 H90 0.985 . S
C85 C79 1.379 . S
C85 C82 1.375 . S
C85 N83 1.356 . S
C86 C80 1.363 1_545 S
C86 C81 1.379 . S
C86 N84 1.356 . S
N87 C79 1.356 . S
N87 H93 0.984 . S
N87 H94 0.984 . S
N88 C81 1.356 . S
N88 H91 0.984 . S
N88 H92 0.985 . S
H89 N84 0.984 . S
H90 N84 0.985 . S
H91 N88 0.984 . S
H92 N88 0.985 . S
H93 N87 0.984 . S
H94 N87 0.984 . S
H95 N83 0.984 . S
H96 N83 0.985 . S
C97 C98 1.363 1_655 S
C97 C103 1.379 . S
C97 N105 1.356 . S
C98 C97 1.363 1_455 S
C98 C104 1.363 . S
C99 C100 1.363 . S
C99 C104 1.379 . S
C99 N106 1.356 . S
C100 C99 1.363 . S
C100 C103 1.363 1_455 S
N101 C103 1.356 . S
N101 H113 0.984 . S
N101 H114 0.985 . S
N102 C104 1.356 . S
N102 H107 0.984 . S
N102 H108 0.985 . S
C103 C97 1.379 . S
C103 C100 1.363 1_655 S
C103 N101 1.356 . S
C104 C98 1.363 . S
C104 C99 1.379 . S
C104 N102 1.356 . S
N105 C97 1.356 . S
N105 H111 0.984 . S
N105 H112 0.984 . S
N106 C99 1.356 . S
N106 H109 0.984 . S
N106 H110 0.985 . S
H107 N102 0.984 . S
H108 N102 0.985 . S
H109 N106 0.984 . S
H110 N106 0.985 . S
H111 N105 0.984 . S
H112 N105 0.984 . S
H113 N101 0.984 . S
H114 N101 0.985 . S
C115 C116 1.363 1_545 S
C115 C121 1.379 . S
C115 N123 1.356 . S
C116 C115 1.363 1_565 S
C116 C122 1.363 . S
C117 C118 1.363 . S
C117 C122 1.379 . S
C117 N124 1.356 . S
C118 C117 1.363 . S
C118 C121 1.363 1_565 S
N119 C121 1.356 . S
N119 H131 0.984 . S
N119 H132 0.985 . S
N120 C122 1.356 . S
N120 H125 0.984 . S
N120 H126 0.985 . S
C121 C115 1.379 . S
C121 C118 1.363 1_545 S
C121 N119 1.356 . S
C122 C116 1.363 . S
C122 C117 1.379 . S
C122 N120 1.356 . S
N123 C115 1.356 . S
N123 H129 0.984 . S
N123 H130 0.984 . S
N124 C117 1.356 . S
N124 H127 0.984 . S
N124 H128 0.985 . S
H125 N120 0.984 . S
H126 N120 0.985 . S
H127 N124 0.984 . S
H128 N124 0.985 . S
H129 N123 0.984 . S
H130 N123 0.984 . S
H131 N119 0.984 . S
H132 N119 0.985 . S
C133 C134 1.363 . S
C133 C139 1.379 . S
C133 N141 1.356 . S
C134 C133 1.363 . S
C134 C140 1.363 1_655 S
C135 C136 1.363 . S
C135 C140 1.379 . S
C135 N142 1.356 . S
C136 C135 1.363 . S
C136 C139 1.362 1_455 S
N137 C139 1.356 . S
N137 H149 0.984 . S
N137 H150 0.985 . S
N138 C140 1.356 . S
N138 H143 0.984 . S
N138 H144 0.985 . S
C139 C133 1.379 . S
C139 C136 1.362 1_655 S
C139 N137 1.356 . S
C140 C134 1.363 1_455 S
C140 C135 1.379 . S
C140 N138 1.356 . S
N141 C133 1.356 . S
N141 H147 0.984 . S
N141 H148 0.984 . S
N142 C135 1.356 . S
N142 H145 0.984 . S
N142 H146 0.985 . S
H143 N138 0.984 . S
H144 N138 0.985 . S
H145 N142 0.984 . S
H146 N142 0.985 . S
H147 N141 0.984 . S
H148 N141 0.984 . S
H149 N137 0.984 . S
H150 N137 0.985 . S
C151 C152 1.363 . S
C151 C157 1.379 . S
C151 N159 1.356 . S
C152 C151 1.363 . S
C152 C158 1.363 1_545 S
C153 C154 1.363 1_565 S
C153 C158 1.379 . S
C153 N160 1.356 . S
C154 C153 1.363 1_545 S
C154 C157 1.363 . S
N155 C157 1.356 . S
N155 H167 0.984 . S
N155 H168 0.985 . S
N156 C158 1.356 . S
N156 H161 0.984 . S
N156 H162 0.985 . S
C157 C151 1.379 . S
C157 C154 1.363 . S
C157 N155 1.356 . S
C158 C152 1.363 1_565 S
C158 C153 1.379 . S
C158 N156 1.356 . S
N159 C151 1.356 . S
N159 H165 0.984 . S
N159 H166 0.984 . S
N160 C153 1.356 . S
N160 H163 0.984 . S
N160 H164 0.985 . S
H161 N156 0.984 . S
H162 N156 0.985 . S
H163 N160 0.984 . S
H164 N160 0.985 . S
H165 N159 0.984 . S
H166 N159 0.984 . S
H167 N155 0.984 . S
H168 N155 0.985 . S
C169 C170 1.363 1_455 S
C169 C175 1.379 . S
C169 N177 1.356 . S
C170 C169 1.363 1_655 S
C170 C176 1.363 . S
C171 C172 1.363 . S
C171 C176 1.379 . S
C171 N178 1.356 . S
C172 C171 1.363 . S
C172 C175 1.363 1_655 S
N173 C175 1.356 . S
N173 H185 0.984 . S
N173 H186 0.985 . S
N174 C176 1.356 . S
N174 H179 0.984 . S
N174 H180 0.985 . S
C175 C169 1.379 . S
C175 C172 1.363 1_455 S
C175 N173 1.356 . S
C176 C170 1.363 . S
C176 C171 1.379 . S
C176 N174 1.356 . S
N177 C169 1.356 . S
N177 H183 0.984 . S
N177 H184 0.984 . S
N178 C171 1.356 . S
N178 H181 0.984 . S
N178 H182 0.985 . S
H179 N174 0.984 . S
H180 N174 0.985 . S
H181 N178 0.984 . S
H182 N178 0.985 . S
H183 N177 0.984 . S
H184 N177 0.984 . S
H185 N173 0.984 . S
H186 N173 0.985 . S
C187 C188 1.363 . S
C187 C193 1.379 . S
C187 N195 1.356 . S
C188 C187 1.363 . S
C188 C194 1.363 1_545 S
C189 C190 1.363 1_565 S
C189 C194 1.379 . S
C189 N196 1.356 . S
C190 C189 1.363 1_545 S
C190 C193 1.363 . S
N191 C193 1.356 . S
N191 H203 0.984 . S
N191 H204 0.985 . S
N192 C194 1.356 . S
N192 H197 0.984 . S
N192 H198 0.985 . S
C193 C187 1.379 . S
C193 C190 1.363 . S
C193 N191 1.356 . S
C194 C188 1.363 1_565 S
C194 C189 1.379 . S
C194 N192 1.356 . S
N195 C187 1.356 . S
N195 H201 0.984 . S
N195 H202 0.984 . S
N196 C189 1.356 . S
N196 H199 0.984 . S
N196 H200 0.985 . S
H197 N192 0.984 . S
H198 N192 0.985 . S
H199 N196 0.984 . S
H200 N196 0.985 . S
H201 N195 0.984 . S
H202 N195 0.984 . S
H203 N191 0.984 . S
H204 N191 0.985 . S
C62 C23 1.345 . S
C64 C34 1.428 . S
C80 C22 1.452 . S
C82 C60 1.495 1_565 S
C98 C21 1.632 . S
C100 C46 1.647 . S
C116 C24 1.473 . S
C118 C48 1.542 1_565 S
C134 C27 1.345 . S
C136 C33 1.426 . S
C152 C26 1.452 . S
C154 C59 1.499 . S
C172 C45 1.651 1_655 S
C170 C25 1.632 . S
C188 C28 1.473 . S
C190 C47 1.538 . S
