# Generated by pormake.
# Topology bcu-b, (8,8)-cn, num edge types: 1
# Building blocks:
#     Node 0, Type 0, BuildingBlock: TAGTUT_clean_sbu_3, # of connection points: 8
#     Node 1, Type 1, BuildingBlock: GIZVER_clean_sbu_0, # of connection points: 8
#     Edge 2, Type (0, 1), BuildingBlock: FUNLAD_clean_linker_0, # of connection points: 2
#     Edge 3, Type (0, 1), BuildingBlock: FUNLAD_clean_linker_0, # of connection points: 2
#     Edge 4, Type (0, 1), BuildingBlock: FUNLAD_clean_linker_0, # of connection points: 2
#     Edge 5, Type (0, 1), BuildingBlock: FUNLAD_clean_linker_0, # of connection points: 2
#     Edge 6, Type (0, 1), BuildingBlock: FUNLAD_clean_linker_0, # of connection points: 2
#     Edge 7, Type (0, 1), BuildingBlock: FUNLAD_clean_linker_0, # of connection points: 2
#     Edge 8, Type (0, 1), BuildingBlock: FUNLAD_clean_linker_0, # of connection points: 2
#     Edge 9, Type (0, 1), BuildingBlock: FUNLAD_clean_linker_0, # of connection points: 2
# Relax obj value: 0.092
# Max RMSD: 0.159
# Mean RMSD: 0.157
data_MOF--net-bcu-b--node1-TAGTUT_clean_sbu_3--node2-GIZVER_clean_sbu_0--edge1-FUNLAD_clean_linker_0
_symmetry_space_group_name_H-M    P1
_symmetry_Int_Tables_number       1
_symmetry_cell_setting            triclinic
loop_
_symmetry_equiv_pos_as_xyz
'x, y, z'
_cell_length_a     23.520187
_cell_length_b     25.827604
_cell_length_c     19.947262
_cell_angle_alpha  89.318716
_cell_angle_beta   90.187203
_cell_angle_gamma 106.21758
loop_
_atom_site_label
_atom_site_type_symbol
_atom_site_fract_x
_atom_site_fract_y
_atom_site_fract_z
_atom_type_partial_charge
C0 C 0.10635 0.09997 0.06881 0.0
C1 C 0.17729 0.92665 0.09621 0.0
C2 C 0.09027 0.88198 0.90531 0.0
Mg3 Mg 0.99231 0.11975 0.99115 0.0
Mg4 Mg 0.869 0.02145 0.98041 0.0
O5 O 0.95049 0.0448 0.96161 0.0
Mg6 Mg 0.00472 0.00451 -0.00088 0.0
O7 O 0.06438 0.96965 0.03618 0.0
Mg8 Mg 0.13564 0.00479 0.97936 0.0
Mg9 Mg 0.04695 0.89509 0.04709 0.0
C10 C 0.89444 0.91159 0.93446 0.0
O11 O 0.941 0.9636 0.08465 0.0
O12 O 0.92769 0.14662 0.91867 0.0
O13 O 0.96407 0.88468 0.09948 0.0
O14 O 0.92878 0.11942 0.07886 0.0
O15 O 0.84695 0.07548 0.90859 0.0
O16 O 0.85008 0.04773 0.07899 0.0
O17 O 0.07224 0.03987 0.91595 0.0
O18 O 0.05654 0.12092 0.90562 0.0
C19 C 0.08361 0.08665 0.88832 0.0
C20 C 0.8768 0.12365 0.89267 0.0
O21 O 0.95114 0.9309 0.93873 0.0
O22 O 0.19091 0.96559 0.05294 0.0
O23 O 0.8578 0.93722 0.95401 0.0
O24 O 0.12169 0.931 0.91001 0.0
O25 O 0.12451 0.89599 0.10347 0.0
O26 O 0.05337 0.8596 0.95101 0.0
O27 O 0.05088 0.08006 0.05775 0.0
O28 O 0.14486 0.07749 0.04716 0.0
C29 C 0.88029 0.09174 0.10528 0.0
C30 C 0.93199 0.91641 0.11147 0.0
Co31 Co 0.55327 0.40477 0.44887 0.0
Co32 Co 0.5813 0.44827 0.56605 0.0
Co33 Co 0.50193 0.50999 0.50063 0.0
O34 O 0.56761 0.47691 0.48469 0.0
H35 H 0.60314 0.50222 0.46752 0.0
O36 O 0.43544 0.54209 0.51432 0.0
Co37 Co 0.44448 0.6122 0.54985 0.0
Co38 Co 0.42206 0.57062 0.43185 0.0
H39 H 0.39991 0.51589 0.52993 0.0
O40 O 0.65217 0.43642 0.58232 0.0
O41 O 0.56997 0.37771 0.53937 0.0
O42 O 0.5281 0.4466 0.63996 0.0
O43 O 0.45929 0.45212 0.56681 0.0
O44 O 0.54824 0.55414 0.57386 0.0
O45 O 0.44432 0.67503 0.58536 0.0
O46 O 0.36655 0.60328 0.56485 0.0
O47 O 0.52916 0.63037 0.54225 0.0
O48 O 0.54434 0.56785 0.43503 0.0
O49 O 0.47617 0.57001 0.35957 0.0
O50 O 0.43698 0.64192 0.45805 0.0
O51 O 0.35439 0.58883 0.4096 0.0
C52 C 0.60311 0.36033 0.4041 0.0
C53 C 0.44035 0.41533 0.43009 0.0
C54 C 0.47413 0.4363 0.62346 0.0
C55 C 0.62338 0.38784 0.56467 0.0
C56 C 0.38751 0.65205 0.58778 0.0
C57 C 0.56158 0.60551 0.57305 0.0
C58 C 0.52995 0.58142 0.37707 0.0
C59 C 0.38753 0.63644 0.42529 0.0
O60 O 0.54659 0.34069 0.4141 0.0
O61 O 0.62944 0.4094 0.42374 0.0
O62 O 0.45622 0.46655 0.42781 0.0
O63 O 0.46965 0.38975 0.46491 0.0
C64 C 0.18366 0.18224 0.10186 0.0
C65 C 0.12727 0.14674 0.11265 0.0
C66 C 0.20957 0.22022 0.14989 0.0
C67 C 0.17974 0.22307 0.21014 0.0
C68 C 0.1222 0.18914 0.21969 0.0
C69 C 0.09567 0.15169 0.17072 0.0
C70 C 0.21115 0.25643 0.266 0.0
C71 C 0.25256 0.30335 0.25479 0.0
C72 C 0.29464 0.33163 0.30652 0.0
C73 C 0.31908 0.38744 0.29994 0.0
C74 C 0.36498 0.4146 0.34179 0.0
C75 C 0.38839 0.38628 0.39032 0.0
H76 H 0.2993 0.25999 0.36196 0.0
C77 C 0.36303 0.33048 0.39814 0.0
C78 C 0.31631 0.30334 0.35672 0.0
H79 H 0.38005 0.30765 0.43518 0.0
H80 H 0.20889 0.17898 0.0575 0.0
H81 H 0.25448 0.24486 0.14147 0.0
H82 H 0.0986 0.1904 0.26593 0.0
H83 H 0.05227 0.12429 0.18032 0.0
H84 H 0.20194 0.24079 0.31684 0.0
H85 H 0.25739 0.32116 0.20472 0.0
H86 H 0.30354 0.40995 0.26122 0.0
H87 H 0.38343 0.45766 0.33438 0.0
C88 C 0.79447 0.09906 0.1762 0.0
C89 C 0.85525 0.11635 0.16104 0.0
C90 C 0.76899 0.12937 0.21861 0.0
C91 C 0.80378 0.17778 0.24681 0.0
C92 C 0.86514 0.19261 0.23575 0.0
C93 C 0.89054 0.16253 0.19317 0.0
C94 C 0.77773 0.21451 0.28625 0.0
C95 C 0.72182 0.21742 0.27698 0.0
C96 C 0.69434 0.25517 0.31226 0.0
C97 C 0.6324 0.24324 0.31149 0.0
C98 C 0.60361 0.27753 0.34121 0.0
C99 C 0.63583 0.32544 0.37217 0.0
H100 H 0.77495 0.31457 0.34395 0.0
C101 C 0.69801 0.33799 0.37293 0.0
C102 C 0.72708 0.30315 0.34336 0.0
H103 H 0.72411 0.37449 0.39655 0.0
H104 H 0.76598 0.06354 0.15281 0.0
H105 H 0.72191 0.11511 0.22812 0.0
H106 H 0.8933 0.22902 0.25768 0.0
H107 H 0.93764 0.17685 0.18329 0.0
H108 H 0.80659 0.24163 0.32109 0.0
H109 H 0.69387 0.19069 0.24103 0.0
H110 H 0.60585 0.20696 0.2877 0.0
H111 H 0.55569 0.26641 0.33936 0.0
C112 C 0.82366 0.88856 0.13389 0.0
C113 C 0.88174 0.89567 0.15677 0.0
C114 C 0.77597 0.85645 0.17081 0.0
C115 C 0.78615 0.832 0.23142 0.0
C116 C 0.84393 0.84325 0.25671 0.0
C117 C 0.89147 0.87408 0.21914 0.0
C118 C 0.73874 0.79152 0.26731 0.0
C119 C 0.69603 0.75453 0.23497 0.0
C120 C 0.65507 0.70797 0.26998 0.0
C121 C 0.59859 0.68495 0.24315 0.0
C122 C 0.55854 0.64205 0.27624 0.0
C123 C 0.5746 0.62094 0.33648 0.0
H124 H 0.71631 0.70001 0.34883 0.0
C125 C 0.63235 0.6421 0.36122 0.0
C126 C 0.67218 0.68504 0.32832 0.0
H127 H 0.64644 0.62653 0.40713 0.0
H128 H 0.81544 0.90468 0.08558 0.0
H129 H 0.7316 0.84947 0.15097 0.0
H130 H 0.85272 0.82521 0.30354 0.0
H131 H 0.93612 0.87905 0.23736 0.0
H132 H 0.7431 0.78867 0.32135 0.0
H133 H 0.69157 0.7575 0.18093 0.0
H134 H 0.58482 0.70115 0.1975 0.0
H135 H 0.51447 0.62655 0.25561 0.0
C136 C 0.20963 0.8978 0.20548 0.0
C137 C 0.22332 0.91443 0.13875 0.0
C138 C 0.24699 0.87509 0.24283 0.0
C139 C 0.29854 0.86779 0.21375 0.0
C140 C 0.31396 0.88735 0.14825 0.0
C141 C 0.27699 0.91118 0.11123 0.0
C142 C 0.33043 0.83194 0.24592 0.0
C143 C 0.33087 0.82306 0.3126 0.0
C144 C 0.34726 0.77594 0.34102 0.0
C145 C 0.37899 0.78017 0.40142 0.0
C146 C 0.39247 0.73491 0.42929 0.0
C147 C 0.37236 0.68441 0.3984 0.0
H148 H 0.30121 0.72059 0.26478 0.0
C149 C 0.33926 0.68014 0.339 0.0
C150 C 0.32727 0.72542 0.31034 0.0
H151 H 0.3234 0.64185 0.31381 0.0
H152 H 0.16835 0.89987 0.22772 0.0
H153 H 0.23284 0.85959 0.29251 0.0
H154 H 0.35316 0.88175 0.12452 0.0
H155 H 0.28816 0.92327 0.05964 0.0
H156 H 0.35035 0.80868 0.2129 0.0
H157 H 0.31623 0.84903 0.34696 0.0
H158 H 0.39393 0.81857 0.4265 0.0
H159 H 0.41806 0.73931 0.47515 0.0
C160 C 0.14126 0.87357 0.79756 0.0
C161 C 0.10365 0.84883 0.85043 0.0
C162 C 0.16397 0.84274 0.75336 0.0
C163 C 0.15022 0.78636 0.76156 0.0
C164 C 0.10864 0.76132 0.81072 0.0
C165 C 0.0856 0.79217 0.85479 0.0
C166 C 0.18077 0.75302 0.72258 0.0
C167 C 0.2364 0.77309 0.69883 0.0
C168 C 0.27268 0.74051 0.66815 0.0
C169 C 0.33394 0.76426 0.66208 0.0
C170 C 0.37081 0.73557 0.63584 0.0
C171 C 0.34744 0.68219 0.6145 0.0
H172 H 0.20184 0.66775 0.64758 0.0
C173 C 0.28596 0.65851 0.61901 0.0
C174 C 0.24886 0.68733 0.64548 0.0
H175 H 0.26645 0.61763 0.60231 0.0
H176 H 0.15515 0.91706 0.79182 0.0
H177 H 0.19351 0.86349 0.71404 0.0
H178 H 0.09633 0.71791 0.81744 0.0
H179 H 0.05638 0.77169 0.89459 0.0
H180 H 0.15917 0.71011 0.71985 0.0
H181 H 0.25894 0.81535 0.70687 0.0
H182 H 0.35371 0.8052 0.67856 0.0
H183 H 0.41785 0.75535 0.63263 0.0
C184 C 0.19176 0.12061 0.86795 0.0
C185 C 0.13385 0.1063 0.84255 0.0
C186 C 0.23779 0.15539 0.83122 0.0
C187 C 0.22631 0.17603 0.76849 0.0
C188 C 0.16936 0.15759 0.74092 0.0
C189 C 0.1233 0.12373 0.77808 0.0
C190 C 0.27101 0.21935 0.73232 0.0
C191 C 0.31168 0.25869 0.76416 0.0
C192 C 0.35131 0.30615 0.72884 0.0
C193 C 0.40613 0.33248 0.75765 0.0
C194 C 0.44512 0.37638 0.72498 0.0
C195 C 0.4297 0.39545 0.66311 0.0
H196 H 0.29187 0.30902 0.646 0.0
C197 C 0.37349 0.37084 0.63602 0.0
C198 C 0.33474 0.32671 0.66845 0.0
H199 H 0.35999 0.38452 0.58858 0.0
H200 H 0.20055 0.1083 0.91814 0.0
H201 H 0.28164 0.16755 0.85306 0.0
H202 H 0.15947 0.17244 0.69247 0.0
H203 H 0.07867 0.11385 0.75818 0.0
H204 H 0.26673 0.22128 0.6782 0.0
H205 H 0.31598 0.25672 0.81829 0.0
H206 H 0.41954 0.31814 0.80475 0.0
H207 H 0.48796 0.39447 0.74744 0.0
C208 C 0.79838 0.12755 0.80894 0.0
C209 C 0.85285 0.1525 0.83988 0.0
C210 C 0.77651 0.15377 0.75752 0.0
C211 C 0.80851 0.2058 0.73617 0.0
C212 C 0.86332 0.23032 0.76634 0.0
C213 C 0.88519 0.20414 0.81779 0.0
C214 C 0.78615 0.23655 0.68391 0.0
C215 C 0.72811 0.22877 0.67044 0.0
C216 C 0.70423 0.26694 0.63015 0.0
C217 C 0.6432 0.2528 0.61583 0.0
C218 C 0.61683 0.29102 0.58959 0.0
C219 C 0.65114 0.34419 0.57793 0.0
H220 H 0.78592 0.33281 0.62265 0.0
C221 C 0.71265 0.35722 0.5871 0.0
C222 C 0.73897 0.31924 0.61291 0.0
H223 H 0.74035 0.3978 0.57745 0.0
H224 H 0.77262 0.08745 0.82398 0.0
H225 H 0.73499 0.13272 0.73433 0.0
H226 H 0.88902 0.27032 0.75072 0.0
H227 H 0.92753 0.22438 0.83998 0.0
H228 H 0.81907 0.26943 0.66009 0.0
H229 H 0.69565 0.19561 0.69466 0.0
H230 H 0.61528 0.21282 0.62817 0.0
H231 H 0.56928 0.27986 0.58262 0.0
C232 C 0.89441 0.84568 0.84351 0.0
C233 C 0.86907 0.85919 0.90209 0.0
C234 C 0.86364 0.80122 0.80574 0.0
C235 C 0.80777 0.76909 0.82699 0.0
C236 C 0.78506 0.78012 0.88843 0.0
C237 C 0.81497 0.82522 0.92515 0.0
C238 C 0.76993 0.72651 0.78429 0.0
C239 C 0.7644 0.734 0.71792 0.0
C240 C 0.71577 0.69891 0.67772 0.0
C241 C 0.69011 0.72244 0.62637 0.0
C242 C 0.64053 0.69196 0.59172 0.0
C243 C 0.6163 0.63691 0.60679 0.0
H244 H 0.71261 0.62376 0.72951 0.0
C245 C 0.64383 0.61265 0.65588 0.0
C246 C 0.69293 0.6434 0.69129 0.0
H247 H 0.6265 0.5702 0.66827 0.0
H248 H 0.93616 0.87127 0.82482 0.0
H249 H 0.8827 0.79288 0.75914 0.0
H250 H 0.74236 0.75568 0.9061 0.0
H251 H 0.79481 0.83458 0.97054 0.0
H252 H 0.73918 0.69259 0.80946 0.0
H253 H 0.79091 0.77104 0.69438 0.0
H254 H 0.70714 0.76504 0.61461 0.0
H255 H 0.62083 0.7117 0.55359 0.0
loop_
_geom_bond_atom_site_label_1
_geom_bond_atom_site_label_2
_geom_bond_distance
_geom_bond_site_symmetry_2
_ccdc_geom_bond_type
C0 O27 1.312 . S
C0 O28 1.208 . S
C1 O22 1.331 . S
C1 O25 1.244 . S
C2 O24 1.264 . S
C2 O26 1.273 . S
Mg3 O5 1.936 . S
Mg3 O12 2.081 . S
Mg3 O14 2.023 1_556 S
Mg3 O18 2.031 1_655 S
Mg3 O27 2.291 1_656 S
Mg4 O5 1.963 . S
Mg4 O15 1.942 . S
Mg4 O16 1.955 1_556 S
Mg4 O23 1.986 1_545 S
O5 Mg3 1.936 . S
O5 Mg4 1.963 . S
O5 Mg6 1.922 1_556 S
Mg6 O5 1.922 1_554 S
Mg6 O7 1.908 1_645 S
Mg6 O11 2.025 1_545 S
Mg6 O17 2.101 1_654 S
Mg6 O21 2.010 1_544 S
Mg6 O27 2.117 1_655 S
O7 Mg6 1.908 1_465 S
O7 Mg8 1.936 1_565 S
O7 Mg9 1.963 . S
Mg8 O7 1.936 1_545 S
Mg8 O17 2.291 1_554 S
Mg8 O22 2.081 1_545 S
Mg8 O24 2.023 1_544 S
Mg8 O28 2.031 . S
Mg9 O7 1.963 . S
Mg9 O13 1.986 1_455 S
Mg9 O25 1.942 . S
Mg9 O26 1.955 1_554 S
C10 O21 1.191 . S
C10 O23 1.307 . S
O11 Mg6 2.025 1_565 S
O11 C30 1.191 . S
O12 Mg3 2.081 . S
O12 C20 1.331 . S
O13 Mg9 1.986 1_655 S
O13 C30 1.307 . S
O14 Mg3 2.023 1_554 S
O14 C29 1.264 . S
O15 Mg4 1.942 . S
O15 C20 1.244 . S
O16 Mg4 1.955 1_554 S
O16 C29 1.273 . S
O17 Mg6 2.101 1_456 S
O17 Mg8 2.291 1_556 S
O17 C19 1.312 . S
O18 Mg3 2.031 1_455 S
O18 C19 1.208 . S
C19 O17 1.312 . S
C19 O18 1.208 . S
C20 O12 1.331 . S
C20 O15 1.244 . S
O21 Mg6 2.010 1_566 S
O21 C10 1.191 . S
O22 C1 1.331 . S
O22 Mg8 2.081 1_565 S
O23 Mg4 1.986 1_565 S
O23 C10 1.307 . S
O24 C2 1.264 . S
O24 Mg8 2.023 1_566 S
O25 C1 1.244 . S
O25 Mg9 1.942 . S
O26 C2 1.273 . S
O26 Mg9 1.955 1_556 S
O27 C0 1.312 . S
O27 Mg3 2.291 1_454 S
O27 Mg6 2.117 1_455 S
O28 C0 1.208 . S
O28 Mg8 2.031 . S
C29 O14 1.264 . S
C29 O16 1.273 . S
C30 O11 1.191 . S
C30 O13 1.307 . S
Co31 O34 2.042 . S
Co31 O41 2.264 . S
Co31 O60 2.286 . S
Co31 O61 2.069 . S
Co31 O63 2.015 . S
Co32 O34 2.122 . S
Co32 O40 2.073 . S
Co32 O41 2.327 . S
Co32 O42 1.976 . S
Co33 O34 2.087 . S
Co33 O36 2.087 . S
Co33 O43 2.111 . S
Co33 O44 2.143 . S
Co33 O48 2.111 . S
Co33 O62 2.143 . S
O34 Co31 2.042 . S
O34 Co32 2.122 . S
O34 Co33 2.087 . S
O34 H35 0.980 . S
H35 O34 0.980 . S
O36 Co33 2.087 . S
O36 Co37 2.042 . S
O36 Co38 2.122 . S
O36 H39 0.980 . S
Co37 O36 2.042 . S
Co37 O45 2.286 . S
Co37 O46 2.069 . S
Co37 O47 2.015 . S
Co37 O50 2.264 . S
Co38 O36 2.122 . S
Co38 O49 1.976 . S
Co38 O50 2.327 . S
Co38 O51 2.073 . S
H39 O36 0.980 . S
O40 Co32 2.073 . S
O40 C55 1.245 . S
O41 Co31 2.264 . S
O41 Co32 2.327 . S
O41 C55 1.257 . S
O42 Co32 1.976 . S
O42 C54 1.251 . S
O43 Co33 2.111 . S
O43 C54 1.274 . S
O44 Co33 2.143 . S
O44 C57 1.246 . S
O45 Co37 2.286 . S
O45 C56 1.259 . S
O46 Co37 2.069 . S
O46 C56 1.289 . S
O47 Co37 2.015 . S
O47 C57 1.257 . S
O48 Co33 2.111 . S
O48 C58 1.274 . S
O49 Co38 1.976 . S
O49 C58 1.251 . S
O50 Co37 2.264 . S
O50 Co38 2.327 . S
O50 C59 1.257 . S
O51 Co38 2.073 . S
O51 C59 1.245 . S
C52 O60 1.259 . S
C52 O61 1.289 . S
C53 O62 1.246 . S
C53 O63 1.257 . S
C54 O42 1.251 . S
C54 O43 1.274 . S
C55 O40 1.245 . S
C55 O41 1.257 . S
C56 O45 1.259 . S
C56 O46 1.289 . S
C57 O44 1.246 . S
C57 O47 1.257 . S
C58 O48 1.274 . S
C58 O49 1.251 . S
C59 O50 1.257 . S
C59 O51 1.245 . S
O60 Co31 2.286 . S
O60 C52 1.259 . S
O61 Co31 2.069 . S
O61 C52 1.289 . S
O62 Co33 2.143 . S
O62 C53 1.246 . S
O63 Co31 2.015 . S
O63 C53 1.257 . S
C64 C65 1.386 . S
C64 C66 1.383 . S
C64 H80 0.951 . S
C65 C64 1.386 . S
C65 C69 1.383 . S
C66 C64 1.383 . S
C66 C67 1.402 . S
C66 H81 0.951 . S
C67 C66 1.402 . S
C67 C68 1.375 . S
C67 C70 1.481 . S
C68 C67 1.375 . S
C68 C69 1.367 . S
C68 H82 0.951 . S
C69 C65 1.383 . S
C69 C68 1.367 . S
C69 H83 0.950 . S
C70 C67 1.481 . S
C70 C71 1.297 . S
C70 H84 0.950 . S
C71 C70 1.297 . S
C71 C72 1.479 . S
C71 H85 0.950 . S
C72 C71 1.479 . S
C72 C73 1.375 . S
C72 C78 1.404 . S
C73 C72 1.375 . S
C73 C74 1.369 . S
C73 H86 0.950 . S
C74 C73 1.369 . S
C74 C75 1.392 . S
C74 H87 0.951 . S
C75 C74 1.392 . S
C75 C77 1.384 . S
H76 C78 0.949 . S
C77 C75 1.384 . S
C77 C78 1.385 . S
C77 H79 0.950 . S
C78 C72 1.404 . S
C78 H76 0.949 . S
C78 C77 1.385 . S
H79 C77 0.950 . S
H80 C64 0.951 . S
H81 C66 0.951 . S
H82 C68 0.951 . S
H83 C69 0.950 . S
H84 C70 0.950 . S
H85 C71 0.950 . S
H86 C73 0.950 . S
H87 C74 0.951 . S
C88 C89 1.386 . S
C88 C90 1.383 . S
C88 H104 0.951 . S
C89 C88 1.386 . S
C89 C93 1.383 . S
C90 C88 1.383 . S
C90 C91 1.402 . S
C90 H105 0.951 . S
C91 C90 1.402 . S
C91 C92 1.375 . S
C91 C94 1.481 . S
C92 C91 1.375 . S
C92 C93 1.367 . S
C92 H106 0.951 . S
C93 C89 1.383 . S
C93 C92 1.367 . S
C93 H107 0.950 . S
C94 C91 1.481 . S
C94 C95 1.297 . S
C94 H108 0.950 . S
C95 C94 1.297 . S
C95 C96 1.479 . S
C95 H109 0.950 . S
C96 C95 1.479 . S
C96 C97 1.375 . S
C96 C102 1.404 . S
C97 C96 1.375 . S
C97 C98 1.369 . S
C97 H110 0.950 . S
C98 C97 1.369 . S
C98 C99 1.392 . S
C98 H111 0.951 . S
C99 C98 1.392 . S
C99 C101 1.384 . S
H100 C102 0.949 . S
C101 C99 1.384 . S
C101 C102 1.385 . S
C101 H103 0.950 . S
C102 C96 1.404 . S
C102 H100 0.949 . S
C102 C101 1.385 . S
H103 C101 0.950 . S
H104 C88 0.951 . S
H105 C90 0.951 . S
H106 C92 0.951 . S
H107 C93 0.950 . S
H108 C94 0.950 . S
H109 C95 0.950 . S
H110 C97 0.950 . S
H111 C98 0.951 . S
C112 C113 1.386 . S
C112 C114 1.383 . S
C112 H128 0.951 . S
C113 C112 1.386 . S
C113 C117 1.383 . S
C114 C112 1.383 . S
C114 C115 1.402 . S
C114 H129 0.951 . S
C115 C114 1.402 . S
C115 C116 1.375 . S
C115 C118 1.481 . S
C116 C115 1.375 . S
C116 C117 1.367 . S
C116 H130 0.951 . S
C117 C113 1.383 . S
C117 C116 1.367 . S
C117 H131 0.950 . S
C118 C115 1.481 . S
C118 C119 1.297 . S
C118 H132 0.950 . S
C119 C118 1.297 . S
C119 C120 1.479 . S
C119 H133 0.950 . S
C120 C119 1.479 . S
C120 C121 1.375 . S
C120 C126 1.404 . S
C121 C120 1.375 . S
C121 C122 1.369 . S
C121 H134 0.950 . S
C122 C121 1.369 . S
C122 C123 1.392 . S
C122 H135 0.951 . S
C123 C122 1.392 . S
C123 C125 1.384 . S
H124 C126 0.949 . S
C125 C123 1.384 . S
C125 C126 1.385 . S
C125 H127 0.950 . S
C126 C120 1.404 . S
C126 H124 0.949 . S
C126 C125 1.385 . S
H127 C125 0.950 . S
H128 C112 0.951 . S
H129 C114 0.951 . S
H130 C116 0.951 . S
H131 C117 0.950 . S
H132 C118 0.950 . S
H133 C119 0.950 . S
H134 C121 0.950 . S
H135 C122 0.951 . S
C136 C137 1.386 . S
C136 C138 1.383 . S
C136 H152 0.951 . S
C137 C136 1.386 . S
C137 C141 1.383 . S
C138 C136 1.383 . S
C138 C139 1.402 . S
C138 H153 0.951 . S
C139 C138 1.402 . S
C139 C140 1.375 . S
C139 C142 1.481 . S
C140 C139 1.375 . S
C140 C141 1.367 . S
C140 H154 0.951 . S
C141 C137 1.383 . S
C141 C140 1.367 . S
C141 H155 0.950 . S
C142 C139 1.481 . S
C142 C143 1.297 . S
C142 H156 0.950 . S
C143 C142 1.297 . S
C143 C144 1.479 . S
C143 H157 0.950 . S
C144 C143 1.479 . S
C144 C145 1.375 . S
C144 C150 1.404 . S
C145 C144 1.375 . S
C145 C146 1.369 . S
C145 H158 0.950 . S
C146 C145 1.369 . S
C146 C147 1.392 . S
C146 H159 0.951 . S
C147 C146 1.392 . S
C147 C149 1.384 . S
H148 C150 0.949 . S
C149 C147 1.384 . S
C149 C150 1.385 . S
C149 H151 0.950 . S
C150 C144 1.404 . S
C150 H148 0.949 . S
C150 C149 1.385 . S
H151 C149 0.950 . S
H152 C136 0.951 . S
H153 C138 0.951 . S
H154 C140 0.951 . S
H155 C141 0.950 . S
H156 C142 0.950 . S
H157 C143 0.950 . S
H158 C145 0.950 . S
H159 C146 0.951 . S
C160 C161 1.386 . S
C160 C162 1.383 . S
C160 H176 0.951 . S
C161 C160 1.386 . S
C161 C165 1.383 . S
C162 C160 1.383 . S
C162 C163 1.402 . S
C162 H177 0.951 . S
C163 C162 1.402 . S
C163 C164 1.375 . S
C163 C166 1.481 . S
C164 C163 1.375 . S
C164 C165 1.367 . S
C164 H178 0.951 . S
C165 C161 1.383 . S
C165 C164 1.367 . S
C165 H179 0.950 . S
C166 C163 1.481 . S
C166 C167 1.297 . S
C166 H180 0.950 . S
C167 C166 1.297 . S
C167 C168 1.479 . S
C167 H181 0.950 . S
C168 C167 1.479 . S
C168 C169 1.375 . S
C168 C174 1.404 . S
C169 C168 1.375 . S
C169 C170 1.369 . S
C169 H182 0.950 . S
C170 C169 1.369 . S
C170 C171 1.392 . S
C170 H183 0.951 . S
C171 C170 1.392 . S
C171 C173 1.384 . S
H172 C174 0.949 . S
C173 C171 1.384 . S
C173 C174 1.385 . S
C173 H175 0.950 . S
C174 C168 1.404 . S
C174 H172 0.949 . S
C174 C173 1.385 . S
H175 C173 0.950 . S
H176 C160 0.951 . S
H177 C162 0.951 . S
H178 C164 0.951 . S
H179 C165 0.950 . S
H180 C166 0.950 . S
H181 C167 0.950 . S
H182 C169 0.950 . S
H183 C170 0.951 . S
C184 C185 1.386 . S
C184 C186 1.383 . S
C184 H200 0.951 . S
C185 C184 1.386 . S
C185 C189 1.383 . S
C186 C184 1.383 . S
C186 C187 1.402 . S
C186 H201 0.951 . S
C187 C186 1.402 . S
C187 C188 1.375 . S
C187 C190 1.481 . S
C188 C187 1.375 . S
C188 C189 1.367 . S
C188 H202 0.951 . S
C189 C185 1.383 . S
C189 C188 1.367 . S
C189 H203 0.950 . S
C190 C187 1.481 . S
C190 C191 1.297 . S
C190 H204 0.950 . S
C191 C190 1.297 . S
C191 C192 1.479 . S
C191 H205 0.950 . S
C192 C191 1.479 . S
C192 C193 1.375 . S
C192 C198 1.404 . S
C193 C192 1.375 . S
C193 C194 1.369 . S
C193 H206 0.950 . S
C194 C193 1.369 . S
C194 C195 1.392 . S
C194 H207 0.951 . S
C195 C194 1.392 . S
C195 C197 1.384 . S
H196 C198 0.949 . S
C197 C195 1.384 . S
C197 C198 1.385 . S
C197 H199 0.950 . S
C198 C192 1.404 . S
C198 H196 0.949 . S
C198 C197 1.385 . S
H199 C197 0.950 . S
H200 C184 0.951 . S
H201 C186 0.951 . S
H202 C188 0.951 . S
H203 C189 0.950 . S
H204 C190 0.950 . S
H205 C191 0.950 . S
H206 C193 0.950 . S
H207 C194 0.951 . S
C208 C209 1.386 . S
C208 C210 1.383 . S
C208 H224 0.951 . S
C209 C208 1.386 . S
C209 C213 1.383 . S
C210 C208 1.383 . S
C210 C211 1.402 . S
C210 H225 0.951 . S
C211 C210 1.402 . S
C211 C212 1.375 . S
C211 C214 1.481 . S
C212 C211 1.375 . S
C212 C213 1.367 . S
C212 H226 0.951 . S
C213 C209 1.383 . S
C213 C212 1.367 . S
C213 H227 0.950 . S
C214 C211 1.481 . S
C214 C215 1.297 . S
C214 H228 0.950 . S
C215 C214 1.297 . S
C215 C216 1.479 . S
C215 H229 0.950 . S
C216 C215 1.479 . S
C216 C217 1.375 . S
C216 C222 1.404 . S
C217 C216 1.375 . S
C217 C218 1.369 . S
C217 H230 0.950 . S
C218 C217 1.369 . S
C218 C219 1.392 . S
C218 H231 0.951 . S
C219 C218 1.392 . S
C219 C221 1.384 . S
H220 C222 0.949 . S
C221 C219 1.384 . S
C221 C222 1.385 . S
C221 H223 0.950 . S
C222 C216 1.404 . S
C222 H220 0.949 . S
C222 C221 1.385 . S
H223 C221 0.950 . S
H224 C208 0.951 . S
H225 C210 0.951 . S
H226 C212 0.951 . S
H227 C213 0.950 . S
H228 C214 0.950 . S
H229 C215 0.950 . S
H230 C217 0.950 . S
H231 C218 0.951 . S
C232 C233 1.386 . S
C232 C234 1.383 . S
C232 H248 0.951 . S
C233 C232 1.386 . S
C233 C237 1.383 . S
C234 C232 1.383 . S
C234 C235 1.402 . S
C234 H249 0.951 . S
C235 C234 1.402 . S
C235 C236 1.375 . S
C235 C238 1.481 . S
C236 C235 1.375 . S
C236 C237 1.367 . S
C236 H250 0.951 . S
C237 C233 1.383 . S
C237 C236 1.367 . S
C237 H251 0.950 . S
C238 C235 1.481 . S
C238 C239 1.297 . S
C238 H252 0.950 . S
C239 C238 1.297 . S
C239 C240 1.479 . S
C239 H253 0.950 . S
C240 C239 1.479 . S
C240 C241 1.375 . S
C240 C246 1.404 . S
C241 C240 1.375 . S
C241 C242 1.369 . S
C241 H254 0.950 . S
C242 C241 1.369 . S
C242 C243 1.392 . S
C242 H255 0.951 . S
C243 C242 1.392 . S
C243 C245 1.384 . S
H244 C246 0.949 . S
C245 C243 1.384 . S
C245 C246 1.385 . S
C245 H247 0.950 . S
C246 C240 1.404 . S
C246 H244 0.949 . S
C246 C245 1.385 . S
H247 C245 0.950 . S
H248 C232 0.951 . S
H249 C234 0.951 . S
H250 C236 0.951 . S
H251 C237 0.950 . S
H252 C238 0.950 . S
H253 C239 0.950 . S
H254 C241 0.950 . S
H255 C242 0.951 . S
C65 C0 1.335 . S
C75 C53 1.360 . S
C89 C29 1.770 . S
C99 C52 1.823 . S
C113 C30 1.235 . S
C123 C58 1.189 . S
C137 C1 1.511 . S
C147 C59 1.505 . S
C161 C2 1.770 . S
C171 C56 1.793 . S
C195 C54 1.299 . S
C185 C19 1.288 . S
C209 C20 1.502 . S
C219 C55 1.457 . S
C243 C57 1.321 . S
C233 C10 1.270 . S
