# Generated by pormake.
# Topology bcu-b, (8,8)-cn, num edge types: 1
# Building blocks:
#     Node 0, Type 0, BuildingBlock: VETTIZ_charged_sbu_0, # of connection points: 8
#     Node 1, Type 1, BuildingBlock: GIZVER_clean_sbu_0, # of connection points: 8
#     Edge 2, Type (0, 1), BuildingBlock: KIFKEQ_clean_linker_1, # of connection points: 2
#     Edge 3, Type (0, 1), BuildingBlock: KIFKEQ_clean_linker_1, # of connection points: 2
#     Edge 4, Type (0, 1), BuildingBlock: KIFKEQ_clean_linker_1, # of connection points: 2
#     Edge 5, Type (0, 1), BuildingBlock: KIFKEQ_clean_linker_1, # of connection points: 2
#     Edge 6, Type (0, 1), BuildingBlock: KIFKEQ_clean_linker_1, # of connection points: 2
#     Edge 7, Type (0, 1), BuildingBlock: KIFKEQ_clean_linker_1, # of connection points: 2
#     Edge 8, Type (0, 1), BuildingBlock: KIFKEQ_clean_linker_1, # of connection points: 2
#     Edge 9, Type (0, 1), BuildingBlock: KIFKEQ_clean_linker_1, # of connection points: 2
# Relax obj value: 0.083
# Max RMSD: 0.152
# Mean RMSD: 0.139
data_MOF--net-bcu-b--node1-VETTIZ_charged_sbu_0--node2-GIZVER_clean_sbu_0--edge1-KIFKEQ_clean_linker_1
_symmetry_space_group_name_H-M    P1
_symmetry_Int_Tables_number       1
_symmetry_cell_setting            triclinic
loop_
_symmetry_equiv_pos_as_xyz
'x, y, z'
_cell_length_a     21.497768
_cell_length_b     22.614685
_cell_length_c     15.893149
_cell_angle_alpha  89.39466
_cell_angle_beta   93.026669
_cell_angle_gamma 100.83119
loop_
_atom_site_label
_atom_site_type_symbol
_atom_site_fract_x
_atom_site_fract_y
_atom_site_fract_z
_atom_type_partial_charge
Fe0 Fe 0.99457 0.95544 1.05303 0.0
O1 O 0.96485 1.01608 0.12373 0.0
Fe2 Fe 0.03031 0.03459 0.86669 0.0
Fe3 Fe 0.97063 1.01507 0.24733 0.0
O4 O 0.03766 0.02753 0.99034 0.0
O5 O 0.03823 0.03349 0.99077 0.0
O6 O 0.96525 1.0219 0.12405 0.0
Fe7 Fe 0.00873 0.09401 0.06249 0.0
C8 C 0.90184 0.8919 0.18334 0.0
O9 O 0.07484 0.95808 0.12993 0.0
O10 O 0.03356 0.95633 0.25575 0.0
O11 O 0.06069 0.16177 0.9885 0.0
O12 O 0.10015 0.11007 0.88465 0.0
O13 O 0.08493 0.96867 0.87404 0.0
O14 O 0.03325 0.90144 0.96995 0.0
O15 O 0.04548 0.08686 0.26414 0.0
O16 O 0.08938 0.09981 0.13999 0.0
C17 C 0.07228 0.916 0.90959 0.0
O18 O 0.92824 0.09229 0.98602 0.0
O19 O 0.96852 0.09427 0.85984 0.0
O20 O 0.94286 0.88727 0.12723 0.0
O21 O 0.90085 0.93989 0.22713 0.0
C22 C 0.07636 0.94623 0.20834 0.0
C23 C 0.09164 0.10853 0.21907 0.0
C24 C 0.92665 0.13194 0.20089 0.0
O25 O 0.9147 0.07928 0.2364 0.0
O26 O 0.96937 0.14809 0.14534 0.0
C27 C 0.0988 0.15818 0.9282 0.0
O28 O 0.95436 0.96401 0.85107 0.0
O29 O 0.91352 0.94874 0.9769 0.0
C30 C 0.92632 0.10465 0.90785 0.0
C31 C 0.90929 0.94184 0.89749 0.0
Co32 Co 0.58234 0.41446 0.52199 0.0
Co33 Co 0.58557 0.44857 0.67268 0.0
Co34 Co 0.50101 0.52562 0.55656 0.0
O35 O 0.57824 0.48901 0.57393 0.0
H36 H 0.61642 0.51855 0.56716 0.0
O37 O 0.42361 0.56181 0.53953 0.0
Co38 Co 0.41867 0.63656 0.58961 0.0
Co39 Co 0.41456 0.59964 0.43943 0.0
H40 H 0.38568 0.5321 0.54737 0.0
O41 O 0.66364 0.44569 0.72119 0.0
O42 O 0.60354 0.37749 0.63255 0.0
O43 O 0.51238 0.43391 0.7388 0.0
O44 O 0.45261 0.47931 0.64982 0.0
O45 O 0.54234 0.58983 0.6379 0.0
O46 O 0.407 0.70239 0.6414 0.0
O47 O 0.33542 0.61803 0.61036 0.0
O48 O 0.50594 0.66542 0.57632 0.0
O49 O 0.54961 0.57214 0.46289 0.0
O50 O 0.48645 0.61207 0.37178 0.0
O51 O 0.39871 0.67201 0.47788 0.0
O52 O 0.33602 0.6034 0.39251 0.0
C53 C 0.64927 0.38043 0.46193 0.0
C54 C 0.45402 0.40535 0.48979 0.0
C55 C 0.45966 0.44811 0.71612 0.0
C56 C 0.65276 0.39316 0.68498 0.0
C57 C 0.35 0.67098 0.64582 0.0
C58 C 0.54762 0.64593 0.62269 0.0
C59 C 0.54038 0.6007 0.39467 0.0
C60 C 0.34849 0.65643 0.42724 0.0
O61 O 0.5924 0.3494 0.46889 0.0
O62 O 0.6655 0.43287 0.49867 0.0
O63 O 0.45919 0.46153 0.4754 0.0
O64 O 0.4954 0.38561 0.53634 0.0
H65 H 0.21184 0.14072 0.16271 0.0
H66 H 0.09474 0.17203 0.3644 0.0
H67 H 0.30053 0.21313 0.22726 0.0
H68 H 0.18272 0.24509 0.42707 0.0
H69 H 0.33606 0.42448 0.43827 0.0
H70 H 0.24868 0.35178 0.37154 0.0
H71 H 0.36639 0.21672 0.38003 0.0
H72 H 0.45313 0.28856 0.44863 0.0
C73 C 0.20508 0.16287 0.22073 0.0
C74 C 0.14645 0.15028 0.25879 0.0
C75 C 0.25572 0.20419 0.25752 0.0
C76 C 0.2481 0.23467 0.33179 0.0
C77 C 0.18954 0.22238 0.36952 0.0
C78 C 0.13945 0.18021 0.33391 0.0
C79 C 0.34319 0.37928 0.42583 0.0
C80 C 0.40124 0.36209 0.44888 0.0
C81 C 0.29329 0.33779 0.38794 0.0
C82 C 0.30113 0.27889 0.3706 0.0
C83 C 0.35943 0.26199 0.39236 0.0
C84 C 0.40877 0.30298 0.43203 0.0
H85 H 0.95525 0.2565 0.19893 0.0
H86 H 0.81046 0.10554 0.26408 0.0
H87 H 0.89117 0.32578 0.25374 0.0
H88 H 0.74824 0.17348 0.31869 0.0
H89 H 0.61852 0.29974 0.33589 0.0
H90 H 0.68822 0.2485 0.26088 0.0
H91 H 0.8508 0.35065 0.39923 0.0
H92 H 0.78017 0.4038 0.4739 0.0
C93 C 0.90977 0.23821 0.2241 0.0
C94 C 0.88805 0.17556 0.22739 0.0
C95 C 0.87347 0.27771 0.256 0.0
C96 C 0.8146 0.25501 0.29008 0.0
C97 C 0.79291 0.19251 0.29181 0.0
C98 C 0.82898 0.15346 0.26094 0.0
C99 C 0.66917 0.31181 0.35005 0.0
C100 C 0.69387 0.3549 0.41197 0.0
C101 C 0.70911 0.2825 0.30687 0.0
C102 C 0.77484 0.29482 0.32519 0.0
C103 C 0.80027 0.34042 0.38371 0.0
C104 C 0.75995 0.3705 0.42671 0.0
H105 H 0.77995 0.89693 0.20665 0.0
H106 H 0.90722 0.77117 0.1918 0.0
H107 H 0.69462 0.81538 0.24207 0.0
H108 H 0.82085 0.68844 0.22907 0.0
H109 H 0.66707 0.60409 0.43463 0.0
H110 H 0.75681 0.66552 0.3671 0.0
H111 H 0.62845 0.72014 0.17672 0.0
H112 H 0.53888 0.65928 0.24351 0.0
C113 C 0.78945 0.85154 0.2104 0.0
C114 C 0.85017 0.8403 0.19705 0.0
C115 C 0.74043 0.80477 0.23002 0.0
C116 C 0.75105 0.74555 0.238 0.0
C117 C 0.81154 0.73377 0.2232 0.0
C118 C 0.86067 0.78084 0.20163 0.0
C119 C 0.65805 0.62801 0.3772 0.0
C120 C 0.59555 0.62767 0.34553 0.0
C121 C 0.70955 0.66292 0.33835 0.0
C122 C 0.69939 0.69811 0.26738 0.0
C123 C 0.63748 0.69399 0.23202 0.0
C124 C 0.58618 0.65911 0.27049 0.0
H125 H 0.10199 0.9211 0.37415 0.0
H126 H 0.16035 0.89539 0.12298 0.0
H127 H 0.17121 0.85443 0.43033 0.0
H128 H 0.22923 0.82871 0.17947 0.0
H129 H 0.26213 0.64899 0.2943 0.0
H130 H 0.20274 0.72498 0.24399 0.0
H131 H 0.28712 0.84242 0.44831 0.0
H132 H 0.34735 0.76611 0.49908 0.0
C133 C 0.13014 0.90191 0.33102 0.0
C134 C 0.12492 0.91297 0.24382 0.0
C135 C 0.16995 0.86393 0.36337 0.0
C136 C 0.20488 0.83583 0.30913 0.0
C137 C 0.20201 0.84908 0.22256 0.0
C138 C 0.16276 0.88752 0.19029 0.0
C139 C 0.26799 0.69083 0.32894 0.0
C140 C 0.3097 0.70156 0.40059 0.0
C141 C 0.23436 0.73459 0.29955 0.0
C142 C 0.24099 0.78988 0.34157 0.0
C143 C 0.2813 0.8002 0.41461 0.0
C144 C 0.31575 0.75657 0.44353 0.0
H145 H 0.12412 0.82937 0.99513 0.0
H146 H 0.08991 0.89743 0.74551 0.0
H147 H 0.18595 0.76008 0.93575 0.0
H148 H 0.14944 0.82723 0.68638 0.0
H149 H 0.22219 0.65652 0.60882 0.0
H150 H 0.1463 0.70664 0.67763 0.0
H151 H 0.29571 0.79163 0.8529 0.0
H152 H 0.37158 0.74329 0.78302 0.0
C153 C 0.12881 0.82865 0.92767 0.0
C154 C 0.10301 0.86909 0.87494 0.0
C155 C 0.16404 0.78918 0.8938 0.0
C156 C 0.1721 0.78837 0.80655 0.0
C157 C 0.14342 0.82664 0.75368 0.0
C158 C 0.10983 0.86703 0.78761 0.0
C159 C 0.23841 0.68531 0.66271 0.0
C160 C 0.30262 0.69638 0.69048 0.0
C161 C 0.19518 0.71388 0.7019 0.0
C162 C 0.21528 0.75249 0.77086 0.0
C163 C 0.27895 0.76149 0.80057 0.0
C164 C 0.32234 0.73427 0.76015 0.0
H165 H 0.16811 0.24473 1.03267 0.0
H166 H 0.13102 0.19376 0.77118 0.0
H167 H 0.25194 0.32835 0.99197 0.0
H168 H 0.21329 0.27688 0.73076 0.0
H169 H 0.33565 0.44987 0.66997 0.0
H170 H 0.2419 0.3912 0.73084 0.0
H171 H 0.36001 0.3273 0.92617 0.0
H172 H 0.45425 0.38595 0.86561 0.0
C173 C 0.17701 0.25225 0.96658 0.0
C174 C 0.14356 0.21283 0.90498 0.0
C175 C 0.22496 0.29973 0.94341 0.0
C176 C 0.23883 0.30914 0.85823 0.0
C177 C 0.20313 0.27123 0.79672 0.0
C178 C 0.1564 0.22336 0.8199 0.0
C179 C 0.34179 0.42447 0.72699 0.0
C180 C 0.40269 0.42186 0.76208 0.0
C181 C 0.28798 0.3908 0.7617 0.0
C182 C 0.29382 0.35432 0.83264 0.0
C183 C 0.35415 0.35531 0.87169 0.0
C184 C 0.40813 0.38859 0.83656 0.0
H185 H 0.84699 0.16056 0.99471 0.0
H186 H 0.89658 0.12593 0.74213 0.0
H187 H 0.7775 0.22663 0.93781 0.0
H188 H 0.82735 0.19242 0.68562 0.0
H189 H 0.65344 0.28219 0.61644 0.0
H190 H 0.71378 0.20652 0.66925 0.0
H191 H 0.80017 0.32742 0.86887 0.0
H192 H 0.74038 0.40254 0.81687 0.0
C193 C 0.84244 0.16629 0.92703 0.0
C194 C 0.87785 0.13832 0.87307 0.0
C195 C 0.80297 0.20452 0.8945 0.0
C196 C 0.79759 0.21526 0.80731 0.0
C197 C 0.83039 0.18491 0.75302 0.0
C198 C 0.87028 0.14704 0.78555 0.0
C199 C 0.68545 0.2926 0.67144 0.0
C200 C 0.69184 0.34835 0.71259 0.0
C201 C 0.72003 0.24932 0.70156 0.0
C202 C 0.76103 0.26075 0.7739 0.0
C203 C 0.76802 0.31681 0.81402 0.0
C204 C 0.73412 0.36012 0.78358 0.0
H205 H 0.87266 0.93127 0.73034 0.0
H206 H 0.81867 0.86163 0.97573 0.0
H207 H 0.78514 0.85976 0.66434 0.0
H208 H 0.73085 0.79022 0.90925 0.0
H209 H 0.63379 0.6253 0.74777 0.0
H210 H 0.71919 0.69882 0.81558 0.0
H211 H 0.66686 0.8387 0.65508 0.0
H212 H 0.58183 0.76561 0.58714 0.0
C213 C 0.84183 0.90108 0.77027 0.0
C214 C 0.85272 0.90218 0.8583 0.0
C215 C 0.79157 0.86024 0.73241 0.0
C216 C 0.75139 0.81922 0.78162 0.0
C217 C 0.76154 0.82088 0.86972 0.0
C218 C 0.81147 0.86217 0.90775 0.0
C219 C 0.64064 0.67169 0.72677 0.0
C220 C 0.60095 0.68957 0.66209 0.0
C221 C 0.68921 0.71383 0.76605 0.0
C222 C 0.69949 0.77452 0.7408 0.0
C223 C 0.66032 0.79219 0.67549 0.0
C224 C 0.61147 0.75028 0.63681 0.0
loop_
_geom_bond_atom_site_label_1
_geom_bond_atom_site_label_2
_geom_bond_distance
_geom_bond_site_symmetry_2
_ccdc_geom_bond_type
Fe0 O1 1.886 . S
Fe0 O4 1.715 1_554 S
Fe0 O9 2.077 1_655 S
Fe0 O14 1.935 1_654 S
Fe0 O20 2.077 . S
Fe0 O29 1.935 1_554 S
O1 Fe0 1.886 . S
O1 Fe3 1.715 1_655 S
Fe2 O4 1.886 1_545 S
Fe2 O5 1.715 1_655 S
Fe2 O12 1.935 1_655 S
Fe2 O13 2.077 1_645 S
Fe2 O19 1.935 . S
Fe2 O28 2.077 1_545 S
Fe3 O1 1.715 1_455 S
Fe3 O6 1.886 1_565 S
Fe3 O10 1.935 . S
Fe3 O15 2.077 1_565 S
Fe3 O21 1.935 1_455 S
Fe3 O25 2.077 1_465 S
O4 Fe0 1.715 1_556 S
O4 Fe2 1.886 1_565 S
O5 Fe2 1.715 1_455 S
O5 Fe7 1.886 . S
O6 Fe3 1.886 1_545 S
O6 Fe7 1.715 1_554 S
Fe7 O5 1.886 . S
Fe7 O6 1.715 1_556 S
Fe7 O11 2.077 . S
Fe7 O16 1.935 1_556 S
Fe7 O18 2.077 1_455 S
Fe7 O26 1.935 1_456 S
C8 O20 1.381 . S
C8 O21 1.421 . S
O9 Fe0 2.077 1_455 S
O9 C22 1.381 . S
O10 Fe3 1.935 . S
O10 C22 1.421 . S
O11 Fe7 2.077 . S
O11 C27 1.381 . S
O12 Fe2 1.935 1_455 S
O12 C27 1.421 . S
O13 Fe2 2.077 1_465 S
O13 C17 1.381 . S
O14 Fe0 1.935 1_456 S
O14 C17 1.421 . S
O15 Fe3 2.077 1_545 S
O15 C23 1.381 . S
O16 Fe7 1.935 1_554 S
O16 C23 1.421 . S
C17 O13 1.381 . S
C17 O14 1.421 . S
O18 Fe7 2.077 1_655 S
O18 C30 1.381 . S
O19 Fe2 1.935 . S
O19 C30 1.421 . S
O20 Fe0 2.077 . S
O20 C8 1.381 . S
O21 Fe3 1.935 1_655 S
O21 C8 1.421 . S
C22 O9 1.381 . S
C22 O10 1.421 . S
C23 O15 1.381 . S
C23 O16 1.421 . S
C24 O25 1.381 . S
C24 O26 1.421 . S
O25 Fe3 2.077 1_645 S
O25 C24 1.381 . S
O26 Fe7 1.935 1_654 S
O26 C24 1.421 . S
C27 O11 1.381 . S
C27 O12 1.421 . S
O28 Fe2 2.077 1_565 S
O28 C31 1.381 . S
O29 Fe0 1.935 1_556 S
O29 C31 1.421 . S
C30 O18 1.381 . S
C30 O19 1.421 . S
C31 O28 1.381 . S
C31 O29 1.421 . S
Co32 O35 2.042 . S
Co32 O42 2.264 . S
Co32 O61 2.286 . S
Co32 O62 2.069 . S
Co32 O64 2.015 . S
Co33 O35 2.122 . S
Co33 O41 2.073 . S
Co33 O42 2.327 . S
Co33 O43 1.976 . S
Co34 O35 2.087 . S
Co34 O37 2.087 . S
Co34 O44 2.111 . S
Co34 O45 2.143 . S
Co34 O49 2.111 . S
Co34 O63 2.143 . S
O35 Co32 2.042 . S
O35 Co33 2.122 . S
O35 Co34 2.087 . S
O35 H36 0.980 . S
H36 O35 0.980 . S
O37 Co34 2.087 . S
O37 Co38 2.042 . S
O37 Co39 2.122 . S
O37 H40 0.980 . S
Co38 O37 2.042 . S
Co38 O46 2.286 . S
Co38 O47 2.069 . S
Co38 O48 2.015 . S
Co38 O51 2.264 . S
Co39 O37 2.122 . S
Co39 O50 1.976 . S
Co39 O51 2.327 . S
Co39 O52 2.073 . S
H40 O37 0.980 . S
O41 Co33 2.073 . S
O41 C56 1.245 . S
O42 Co32 2.264 . S
O42 Co33 2.327 . S
O42 C56 1.257 . S
O43 Co33 1.976 . S
O43 C55 1.251 . S
O44 Co34 2.111 . S
O44 C55 1.274 . S
O45 Co34 2.143 . S
O45 C58 1.246 . S
O46 Co38 2.286 . S
O46 C57 1.259 . S
O47 Co38 2.069 . S
O47 C57 1.289 . S
O48 Co38 2.015 . S
O48 C58 1.257 . S
O49 Co34 2.111 . S
O49 C59 1.274 . S
O50 Co39 1.976 . S
O50 C59 1.251 . S
O51 Co38 2.264 . S
O51 Co39 2.327 . S
O51 C60 1.257 . S
O52 Co39 2.073 . S
O52 C60 1.245 . S
C53 O61 1.259 . S
C53 O62 1.289 . S
C54 O63 1.246 . S
C54 O64 1.257 . S
C55 O43 1.251 . S
C55 O44 1.274 . S
C56 O41 1.245 . S
C56 O42 1.257 . S
C57 O46 1.259 . S
C57 O47 1.289 . S
C58 O45 1.246 . S
C58 O48 1.257 . S
C59 O49 1.274 . S
C59 O50 1.251 . S
C60 O51 1.257 . S
C60 O52 1.245 . S
O61 Co32 2.286 . S
O61 C53 1.259 . S
O62 Co32 2.069 . S
O62 C53 1.289 . S
O63 Co34 2.143 . S
O63 C54 1.246 . S
O64 Co32 2.015 . S
O64 C54 1.257 . S
H65 C73 0.950 . S
H66 C78 0.950 . S
H67 C75 0.950 . S
H68 C77 0.950 . S
H69 C79 0.950 . S
H70 C81 0.950 . S
H71 C83 0.950 . S
H72 C84 0.950 . S
C73 H65 0.950 . S
C73 C74 1.386 . S
C73 C75 1.391 . S
C74 C73 1.386 . S
C74 C78 1.393 . S
C75 H67 0.950 . S
C75 C73 1.391 . S
C75 C76 1.400 . S
C76 C75 1.400 . S
C76 C77 1.398 . S
C76 C82 1.491 . S
C77 H68 0.950 . S
C77 C76 1.398 . S
C77 C78 1.391 . S
C78 H66 0.950 . S
C78 C74 1.393 . S
C78 C77 1.391 . S
C79 H69 0.950 . S
C79 C80 1.386 . S
C79 C81 1.391 . S
C80 C79 1.386 . S
C80 C84 1.393 . S
C81 H70 0.950 . S
C81 C79 1.391 . S
C81 C82 1.400 . S
C82 C76 1.491 . S
C82 C81 1.400 . S
C82 C83 1.398 . S
C83 H71 0.950 . S
C83 C82 1.398 . S
C83 C84 1.391 . S
C84 H72 0.950 . S
C84 C80 1.393 . S
C84 C83 1.391 . S
H85 C93 0.950 . S
H86 C98 0.950 . S
H87 C95 0.950 . S
H88 C97 0.950 . S
H89 C99 0.950 . S
H90 C101 0.950 . S
H91 C103 0.950 . S
H92 C104 0.950 . S
C93 H85 0.950 . S
C93 C94 1.386 . S
C93 C95 1.391 . S
C94 C93 1.386 . S
C94 C98 1.393 . S
C95 H87 0.950 . S
C95 C93 1.391 . S
C95 C96 1.400 . S
C96 C95 1.400 . S
C96 C97 1.398 . S
C96 C102 1.491 . S
C97 H88 0.950 . S
C97 C96 1.398 . S
C97 C98 1.391 . S
C98 H86 0.950 . S
C98 C94 1.393 . S
C98 C97 1.391 . S
C99 H89 0.950 . S
C99 C100 1.386 . S
C99 C101 1.391 . S
C100 C99 1.386 . S
C100 C104 1.393 . S
C101 H90 0.950 . S
C101 C99 1.391 . S
C101 C102 1.400 . S
C102 C96 1.491 . S
C102 C101 1.400 . S
C102 C103 1.398 . S
C103 H91 0.950 . S
C103 C102 1.398 . S
C103 C104 1.391 . S
C104 H92 0.950 . S
C104 C100 1.393 . S
C104 C103 1.391 . S
H105 C113 0.950 . S
H106 C118 0.950 . S
H107 C115 0.950 . S
H108 C117 0.950 . S
H109 C119 0.950 . S
H110 C121 0.950 . S
H111 C123 0.950 . S
H112 C124 0.950 . S
C113 H105 0.950 . S
C113 C114 1.386 . S
C113 C115 1.391 . S
C114 C113 1.386 . S
C114 C118 1.393 . S
C115 H107 0.950 . S
C115 C113 1.391 . S
C115 C116 1.400 . S
C116 C115 1.400 . S
C116 C117 1.398 . S
C116 C122 1.491 . S
C117 H108 0.950 . S
C117 C116 1.398 . S
C117 C118 1.391 . S
C118 H106 0.950 . S
C118 C114 1.393 . S
C118 C117 1.391 . S
C119 H109 0.950 . S
C119 C120 1.386 . S
C119 C121 1.391 . S
C120 C119 1.386 . S
C120 C124 1.393 . S
C121 H110 0.950 . S
C121 C119 1.391 . S
C121 C122 1.400 . S
C122 C116 1.491 . S
C122 C121 1.400 . S
C122 C123 1.398 . S
C123 H111 0.950 . S
C123 C122 1.398 . S
C123 C124 1.391 . S
C124 H112 0.950 . S
C124 C120 1.393 . S
C124 C123 1.391 . S
H125 C133 0.950 . S
H126 C138 0.950 . S
H127 C135 0.950 . S
H128 C137 0.950 . S
H129 C139 0.950 . S
H130 C141 0.950 . S
H131 C143 0.950 . S
H132 C144 0.950 . S
C133 H125 0.950 . S
C133 C134 1.386 . S
C133 C135 1.391 . S
C134 C133 1.386 . S
C134 C138 1.393 . S
C135 H127 0.950 . S
C135 C133 1.391 . S
C135 C136 1.400 . S
C136 C135 1.400 . S
C136 C137 1.398 . S
C136 C142 1.491 . S
C137 H128 0.950 . S
C137 C136 1.398 . S
C137 C138 1.391 . S
C138 H126 0.950 . S
C138 C134 1.393 . S
C138 C137 1.391 . S
C139 H129 0.950 . S
C139 C140 1.386 . S
C139 C141 1.391 . S
C140 C139 1.386 . S
C140 C144 1.393 . S
C141 H130 0.950 . S
C141 C139 1.391 . S
C141 C142 1.400 . S
C142 C136 1.491 . S
C142 C141 1.400 . S
C142 C143 1.398 . S
C143 H131 0.950 . S
C143 C142 1.398 . S
C143 C144 1.391 . S
C144 H132 0.950 . S
C144 C140 1.393 . S
C144 C143 1.391 . S
H145 C153 0.950 . S
H146 C158 0.950 . S
H147 C155 0.950 . S
H148 C157 0.950 . S
H149 C159 0.950 . S
H150 C161 0.950 . S
H151 C163 0.950 . S
H152 C164 0.950 . S
C153 H145 0.950 . S
C153 C154 1.386 . S
C153 C155 1.391 . S
C154 C153 1.386 . S
C154 C158 1.393 . S
C155 H147 0.950 . S
C155 C153 1.391 . S
C155 C156 1.400 . S
C156 C155 1.400 . S
C156 C157 1.398 . S
C156 C162 1.491 . S
C157 H148 0.950 . S
C157 C156 1.398 . S
C157 C158 1.391 . S
C158 H146 0.950 . S
C158 C154 1.393 . S
C158 C157 1.391 . S
C159 H149 0.950 . S
C159 C160 1.386 . S
C159 C161 1.391 . S
C160 C159 1.386 . S
C160 C164 1.393 . S
C161 H150 0.950 . S
C161 C159 1.391 . S
C161 C162 1.400 . S
C162 C156 1.491 . S
C162 C161 1.400 . S
C162 C163 1.398 . S
C163 H151 0.950 . S
C163 C162 1.398 . S
C163 C164 1.391 . S
C164 H152 0.950 . S
C164 C160 1.393 . S
C164 C163 1.391 . S
H165 C173 0.950 . S
H166 C178 0.950 . S
H167 C175 0.950 . S
H168 C177 0.950 . S
H169 C179 0.950 . S
H170 C181 0.950 . S
H171 C183 0.950 . S
H172 C184 0.950 . S
C173 H165 0.950 . S
C173 C174 1.386 . S
C173 C175 1.391 . S
C174 C173 1.386 . S
C174 C178 1.393 . S
C175 H167 0.950 . S
C175 C173 1.391 . S
C175 C176 1.400 . S
C176 C175 1.400 . S
C176 C177 1.398 . S
C176 C182 1.491 . S
C177 H168 0.950 . S
C177 C176 1.398 . S
C177 C178 1.391 . S
C178 H166 0.950 . S
C178 C174 1.393 . S
C178 C177 1.391 . S
C179 H169 0.950 . S
C179 C180 1.386 . S
C179 C181 1.391 . S
C180 C179 1.386 . S
C180 C184 1.393 . S
C181 H170 0.950 . S
C181 C179 1.391 . S
C181 C182 1.400 . S
C182 C176 1.491 . S
C182 C181 1.400 . S
C182 C183 1.398 . S
C183 H171 0.950 . S
C183 C182 1.398 . S
C183 C184 1.391 . S
C184 H172 0.950 . S
C184 C180 1.393 . S
C184 C183 1.391 . S
H185 C193 0.950 . S
H186 C198 0.950 . S
H187 C195 0.950 . S
H188 C197 0.950 . S
H189 C199 0.950 . S
H190 C201 0.950 . S
H191 C203 0.950 . S
H192 C204 0.950 . S
C193 H185 0.950 . S
C193 C194 1.386 . S
C193 C195 1.391 . S
C194 C193 1.386 . S
C194 C198 1.393 . S
C195 H187 0.950 . S
C195 C193 1.391 . S
C195 C196 1.400 . S
C196 C195 1.400 . S
C196 C197 1.398 . S
C196 C202 1.491 . S
C197 H188 0.950 . S
C197 C196 1.398 . S
C197 C198 1.391 . S
C198 H186 0.950 . S
C198 C194 1.393 . S
C198 C197 1.391 . S
C199 H189 0.950 . S
C199 C200 1.386 . S
C199 C201 1.391 . S
C200 C199 1.386 . S
C200 C204 1.393 . S
C201 H190 0.950 . S
C201 C199 1.391 . S
C201 C202 1.400 . S
C202 C196 1.491 . S
C202 C201 1.400 . S
C202 C203 1.398 . S
C203 H191 0.950 . S
C203 C202 1.398 . S
C203 C204 1.391 . S
C204 H192 0.950 . S
C204 C200 1.393 . S
C204 C203 1.391 . S
H205 C213 0.950 . S
H206 C218 0.950 . S
H207 C215 0.950 . S
H208 C217 0.950 . S
H209 C219 0.950 . S
H210 C221 0.950 . S
H211 C223 0.950 . S
H212 C224 0.950 . S
C213 H205 0.950 . S
C213 C214 1.386 . S
C213 C215 1.391 . S
C214 C213 1.386 . S
C214 C218 1.393 . S
C215 H207 0.950 . S
C215 C213 1.391 . S
C215 C216 1.400 . S
C216 C215 1.400 . S
C216 C217 1.398 . S
C216 C222 1.491 . S
C217 H208 0.950 . S
C217 C216 1.398 . S
C217 C218 1.391 . S
C218 H206 0.950 . S
C218 C214 1.393 . S
C218 C217 1.391 . S
C219 H209 0.950 . S
C219 C220 1.386 . S
C219 C221 1.391 . S
C220 C219 1.386 . S
C220 C224 1.393 . S
C221 H210 0.950 . S
C221 C219 1.391 . S
C221 C222 1.400 . S
C222 C216 1.491 . S
C222 C221 1.400 . S
C222 C223 1.398 . S
C223 H211 0.950 . S
C223 C222 1.398 . S
C223 C224 1.391 . S
C224 H212 0.950 . S
C224 C220 1.393 . S
C224 C223 1.391 . S
C74 C23 1.447 . S
C80 C54 1.449 . S
C94 C24 1.590 . S
C100 C53 1.627 . S
C114 C8 1.443 . S
C120 C59 1.380 . S
C134 C22 1.451 . S
C140 C60 1.398 . S
C154 C17 1.580 . S
C160 C57 1.620 . S
C180 C55 1.375 . S
C174 C27 1.446 . S
C194 C30 1.449 . S
C200 C56 1.406 . S
C220 C58 1.446 . S
C214 C31 1.447 . S
