# Generated by pormake.
# Topology pth, (4,4)-cn, num edge types: 1
# Building blocks:
#     Node 0, Type 0, BuildingBlock: GALJAG_clean_sbu_0, # of connection points: 4
#     Node 1, Type 0, BuildingBlock: GALJAG_clean_sbu_0, # of connection points: 4
#     Node 2, Type 0, BuildingBlock: GALJAG_clean_sbu_0, # of connection points: 4
#     Node 3, Type 1, BuildingBlock: MUDLON_clean_sbu_0, # of connection points: 4
#     Node 4, Type 1, BuildingBlock: MUDLON_clean_sbu_0, # of connection points: 4
#     Node 5, Type 1, BuildingBlock: MUDLON_clean_sbu_0, # of connection points: 4
#     Edge 6, Type (0, 1), None
#     Edge 7, Type (0, 1), None
#     Edge 8, Type (0, 1), None
#     Edge 9, Type (0, 1), None
#     Edge 10, Type (0, 1), None
#     Edge 11, Type (0, 1), None
#     Edge 12, Type (0, 1), None
#     Edge 13, Type (0, 1), None
#     Edge 14, Type (0, 1), None
#     Edge 15, Type (0, 1), None
#     Edge 16, Type (0, 1), None
#     Edge 17, Type (0, 1), None
# Relax obj value: 0.044
# Max RMSD: 0.090
# Mean RMSD: 0.080
data_MOF--net-pth--node1-GALJAG_clean_sbu_0--node2-MUDLON_clean_sbu_0--edge1-none
_symmetry_space_group_name_H-M    P1
_symmetry_Int_Tables_number       1
_symmetry_cell_setting            triclinic
loop_
_symmetry_equiv_pos_as_xyz
'x, y, z'
_cell_length_a     10.258751
_cell_length_b     10.228766
_cell_length_c     26.744872
_cell_angle_alpha  89.95156
_cell_angle_beta   90.446446
_cell_angle_gamma 119.79152
loop_
_atom_site_label
_atom_site_type_symbol
_atom_site_fract_x
_atom_site_fract_y
_atom_site_fract_z
_atom_type_partial_charge
In0 In 0.05698 0.05298 0.07966 0.0
O1 O 1.01329 0.25218 0.07581 0.0
O2 O 0.96723 0.13154 0.144 0.0
C3 C 0.86978 0.8609 1.0094 0.0
C4 C 0.32888 0.23877 0.03896 0.0
C5 C 0.05234 0.86216 0.15026 0.0
O6 O 0.84501 0.95923 0.02851 0.0
O7 O 0.98695 0.86309 0.0249 0.0
O8 O 0.17484 0.95865 0.13101 0.0
O9 O 0.93802 0.86529 0.13459 0.0
C10 C 0.97039 0.23984 0.12054 0.0
O11 O 0.29818 0.25204 0.08362 0.0
O12 O 0.22474 0.12986 0.01545 0.0
In13 In 0.04661 1.01288 0.41368 0.0
O14 O 0.16609 0.22587 0.36377 0.0
O15 O 0.92928 0.08425 0.35804 0.0
C16 C 0.31884 0.09664 0.45525 0.0
C17 C 0.86005 1.01603 0.48368 0.0
C18 C 0.96041 0.74046 0.37184 0.0
O19 O 0.21573 0.10283 0.47849 0.0
O20 O 0.28687 0.05248 0.4105 0.0
O21 O 1.00297 0.77033 0.41685 0.0
O22 O 0.95683 0.8457 0.34854 0.0
C23 C 0.04446 0.20139 0.34347 0.0
O24 O 0.97629 0.13133 0.46868 0.0
O25 O 0.8355 0.89367 0.46397 0.0
In26 In 1.01945 1.01155 0.74723 0.0
O27 O 0.8212 0.76964 0.74349 0.0
O28 O 0.94212 0.84406 0.81197 0.0
C29 C 0.20865 1.01442 0.67712 0.0
C30 C 0.83165 0.09741 0.706 0.0
C31 C 0.21164 0.2 0.81726 0.0
O32 O 0.20571 0.1295 0.69205 0.0
O33 O 0.11286 0.89218 0.69689 0.0
O34 O 0.11448 0.22549 0.79736 0.0
O35 O 0.20847 0.08164 0.80256 0.0
C36 C 0.83383 0.73935 0.78841 0.0
O37 O 0.93877 0.10002 0.68247 0.0
O38 O 0.82113 0.05559 0.75091 0.0
Mg39 Mg 0.03626 0.52569 0.24666 0.0
C40 C 1.03006 0.30087 0.30722 0.0
O41 O 0.89422 0.26276 0.29139 0.0
C42 C 0.03569 0.74714 0.18628 0.0
O43 O 0.89879 0.6494 0.2003 0.0
C44 C 0.96073 0.36077 0.14664 0.0
O45 O 0.03699 0.49761 0.12864 0.0
O46 O 0.92219 0.34223 0.1924 0.0
O47 O 0.13963 0.42732 0.29371 0.0
O48 O 0.9176 0.5932 0.29921 0.0
C49 C 0.95236 0.61087 0.34552 0.0
O50 O 1.02689 0.54893 0.36453 0.0
O51 O 0.14412 0.72907 0.20117 0.0
Mg52 Mg 0.54024 0.02627 0.58064 0.0
C53 C 0.44834 0.10392 0.48151 0.0
O54 O 0.50693 0.02596 0.46316 0.0
C55 C 0.70983 0.10612 0.67995 0.0
O56 O 0.57426 0.03025 0.69849 0.0
C57 C 0.32243 0.02984 0.64122 0.0
O58 O 0.4195 0.16659 0.62646 0.0
O59 O 0.33968 0.92045 0.62694 0.0
O60 O 0.46979 0.14251 0.52743 0.0
O61 O 0.63674 0.92128 0.53408 0.0
C62 C 0.7616 0.03118 0.51971 0.0
O63 O 0.7992 0.16786 0.5346 0.0
O64 O 0.72605 0.14313 0.63398 0.0
Mg65 Mg 0.54699 0.52407 0.91341 0.0
C66 C 0.32702 0.29981 0.85305 0.0
O67 O 0.42493 0.26079 0.86824 0.0
C68 C 0.77031 0.745 0.97369 0.0
O69 O 0.80848 0.64581 0.95949 0.0
C70 C 0.45838 0.3594 0.01299 0.0
O71 O 0.51779 0.4965 0.03111 0.0
O72 O 0.47876 0.34039 0.96725 0.0
O73 O 0.34465 0.42702 0.86684 0.0
O74 O 0.73101 0.59043 0.86044 0.0
C75 C 0.71303 0.6099 0.8144 0.0
O76 O 0.57672 0.55001 0.79568 0.0
O77 O 0.64403 0.72797 0.95916 0.0
loop_
_geom_bond_atom_site_label_1
_geom_bond_atom_site_label_2
_geom_bond_distance
_geom_bond_site_symmetry_2
_ccdc_geom_bond_type
In0 O1 2.294 1_455 S
In0 O2 2.326 . S
In0 O6 2.266 1_445 S
In0 O7 2.326 1_445 S
In0 O8 2.266 1_545 S
In0 O9 2.326 1_445 S
In0 O11 2.294 . S
In0 O12 2.326 . S
O1 In0 2.294 1_655 S
O1 C10 1.240 1_655 S
O2 In0 2.326 . S
O2 C10 1.252 . S
C3 O6 1.252 . S
C3 O7 1.260 . S
C4 O11 1.240 . S
C4 O12 1.252 . S
C5 O8 1.252 1_655 S
C5 O9 1.260 . S
O6 In0 2.266 1_665 S
O6 C3 1.252 . S
O7 In0 2.326 1_665 S
O7 C3 1.260 . S
O8 In0 2.266 1_565 S
O8 C5 1.252 1_455 S
O9 In0 2.326 1_665 S
O9 C5 1.260 . S
C10 O1 1.240 1_455 S
C10 O2 1.252 . S
O11 In0 2.294 . S
O11 C4 1.240 . S
O12 In0 2.326 . S
O12 C4 1.252 . S
In13 O14 2.294 . S
In13 O15 2.326 1_455 S
In13 O19 2.266 . S
In13 O20 2.326 1_545 S
In13 O21 2.266 1_445 S
In13 O22 2.326 1_545 S
In13 O24 2.294 1_445 S
In13 O25 2.326 1_455 S
O14 In13 2.294 . S
O14 C23 1.240 1_455 S
O15 In13 2.326 1_655 S
O15 C23 1.252 . S
C16 O19 1.252 1_565 S
C16 O20 1.260 . S
C17 O24 1.240 1_545 S
C17 O25 1.252 . S
C18 O21 1.252 1_455 S
C18 O22 1.260 . S
O19 In13 2.266 . S
O19 C16 1.252 1_545 S
O20 In13 2.326 1_565 S
O20 C16 1.260 . S
O21 In13 2.266 1_665 S
O21 C18 1.252 1_655 S
O22 In13 2.326 1_565 S
O22 C18 1.260 . S
C23 O14 1.240 1_655 S
C23 O15 1.252 . S
O24 In13 2.294 1_665 S
O24 C17 1.240 1_565 S
O25 In13 2.326 1_655 S
O25 C17 1.252 . S
In26 O27 2.294 1_445 S
In26 O28 2.326 1_445 S
In26 O32 2.266 1_545 S
In26 O33 2.326 . S
In26 O34 2.266 . S
In26 O35 2.326 . S
In26 O37 2.294 1_455 S
In26 O38 2.326 1_445 S
O27 In26 2.294 1_665 S
O27 C36 1.240 . S
O28 In26 2.326 1_665 S
O28 C36 1.252 . S
C29 O32 1.252 1_545 S
C29 O33 1.260 . S
C30 O37 1.240 1_565 S
C30 O38 1.252 . S
C31 O34 1.252 . S
C31 O35 1.260 . S
O32 In26 2.266 1_565 S
O32 C29 1.252 1_565 S
O33 In26 2.326 . S
O33 C29 1.260 . S
O34 In26 2.266 . S
O34 C31 1.252 . S
O35 In26 2.326 . S
O35 C31 1.260 . S
C36 O27 1.240 . S
C36 O28 1.252 . S
O37 In26 2.294 1_655 S
O37 C30 1.240 1_545 S
O38 In26 2.326 1_665 S
O38 C30 1.252 . S
Mg39 O46 2.141 . S
Mg39 O47 2.048 . S
Mg39 O48 2.048 . S
Mg39 O51 2.141 . S
C40 O41 1.313 . S
C40 O47 1.195 1_655 S
O41 C40 1.313 . S
C42 O43 1.245 . S
C42 O51 1.289 1_655 S
O43 C42 1.245 . S
C44 O45 1.245 . S
C44 O46 1.289 1_655 S
O45 C44 1.245 . S
O46 Mg39 2.141 . S
O46 C44 1.289 1_455 S
O47 Mg39 2.048 . S
O47 C40 1.195 1_455 S
O48 Mg39 2.048 . S
O48 C49 1.195 1_455 S
C49 O48 1.195 1_655 S
C49 O50 1.313 . S
O50 C49 1.313 . S
O51 Mg39 2.141 . S
O51 C42 1.289 1_455 S
Mg52 O59 2.141 . S
Mg52 O60 2.048 . S
Mg52 O61 2.048 . S
Mg52 O64 2.141 . S
C53 O54 1.313 . S
C53 O60 1.195 1_565 S
O54 C53 1.313 . S
C55 O56 1.245 . S
C55 O64 1.289 1_565 S
O56 C55 1.245 . S
C57 O58 1.245 . S
C57 O59 1.289 1_565 S
O58 C57 1.245 . S
O59 Mg52 2.141 . S
O59 C57 1.289 1_545 S
O60 Mg52 2.048 . S
O60 C53 1.195 1_545 S
O61 Mg52 2.048 . S
O61 C62 1.195 1_545 S
C62 O61 1.195 1_565 S
C62 O63 1.313 . S
O63 C62 1.313 . S
O64 Mg52 2.141 . S
O64 C55 1.289 1_545 S
Mg65 O72 2.141 . S
Mg65 O73 2.048 . S
Mg65 O74 2.048 . S
Mg65 O77 2.141 . S
C66 O67 1.313 . S
C66 O73 1.195 . S
O67 C66 1.313 . S
C68 O69 1.245 . S
C68 O77 1.289 . S
O69 C68 1.245 . S
C70 O71 1.245 . S
C70 O72 1.289 . S
O71 C70 1.245 . S
O72 Mg65 2.141 . S
O72 C70 1.289 . S
O73 Mg65 2.048 . S
O73 C66 1.195 . S
O74 Mg65 2.048 . S
O74 C75 1.195 . S
C75 O74 1.195 . S
C75 O76 1.313 . S
O76 C75 1.313 . S
O77 Mg65 2.141 . S
O77 C68 1.289 . S
C44 C10 1.460 1_655 S
C17 C62 1.556 1_545 S
C36 C75 1.567 . S
C5 C42 1.432 . S
C53 C16 1.539 . S
C31 C66 1.547 . S
C55 C30 1.427 . S
C3 C68 1.435 1_554 S
C49 C18 1.566 1_655 S
C57 C29 1.459 1_565 S
C70 C4 1.468 1_556 S
C23 C40 1.538 . S
