# Generated by pormake.
# Topology scu, (8,4)-cn, num edge types: 1
# Building blocks:
#     Node 0, Type 0, BuildingBlock: VETTIZ_charged_sbu_0, # of connection points: 8
#     Node 1, Type 1, BuildingBlock: KOZSID_clean_sbu_0, # of connection points: 4
#     Node 2, Type 1, BuildingBlock: KOZSID_clean_sbu_0, # of connection points: 4
#     Edge 3, Type (0, 1), BuildingBlock: AJUNOK_clean_linker_0, # of connection points: 2
#     Edge 4, Type (0, 1), BuildingBlock: AJUNOK_clean_linker_0, # of connection points: 2
#     Edge 5, Type (0, 1), BuildingBlock: AJUNOK_clean_linker_0, # of connection points: 2
#     Edge 6, Type (0, 1), BuildingBlock: AJUNOK_clean_linker_0, # of connection points: 2
#     Edge 7, Type (0, 1), BuildingBlock: AJUNOK_clean_linker_0, # of connection points: 2
#     Edge 8, Type (0, 1), BuildingBlock: AJUNOK_clean_linker_0, # of connection points: 2
#     Edge 9, Type (0, 1), BuildingBlock: AJUNOK_clean_linker_0, # of connection points: 2
#     Edge 10, Type (0, 1), BuildingBlock: AJUNOK_clean_linker_0, # of connection points: 2
# Relax obj value: 0.003
# Max RMSD: 0.036
# Mean RMSD: 0.018
data_MOF--net-scu--node1-VETTIZ_charged_sbu_0--node2-KOZSID_clean_sbu_0--edge1-AJUNOK_clean_linker_0
_symmetry_space_group_name_H-M    P1
_symmetry_Int_Tables_number       1
_symmetry_cell_setting            triclinic
loop_
_symmetry_equiv_pos_as_xyz
'x, y, z'
_cell_length_a     22.060766
_cell_length_b     22.100507
_cell_length_c     15.808484
_cell_angle_alpha  85.58747
_cell_angle_beta   85.585238
_cell_angle_gamma 91.743238
loop_
_atom_site_label
_atom_site_type_symbol
_atom_site_fract_x
_atom_site_fract_y
_atom_site_fract_z
_atom_type_partial_charge
Fe0 Fe 0.97875 0.97674 0.2086 0.0
O1 O 0.97979 0.98321 0.08389 0.0
Fe2 Fe 0.06052 0.95936 1.01415 0.0
Fe3 Fe 0.96233 0.0604 0.01626 0.0
O4 O 0.98433 0.97805 0.0836 0.0
O5 O 0.04209 0.03566 0.94533 0.0
O6 O 0.03777 0.04087 0.94575 0.0
Fe7 Fe 0.04252 0.04126 0.82062 0.0
C8 C 0.85973 0.02963 0.16282 0.0
O9 O 0.97941 0.0689 0.21804 0.0
O10 O 0.01303 0.11292 0.09137 0.0
O11 O 0.13446 0.03373 0.82967 0.0
O12 O 0.13919 0.95232 0.93005 0.0
O13 O 0.11465 1.00848 0.0878 0.0
O14 O 0.07151 0.97874 0.21717 0.0
O15 O 0.95611 0.13965 0.93274 0.0
O16 O 0.0362 0.13297 0.83065 0.0
C17 C 0.1166 1.00085 0.16831 0.0
O18 O 0.04071 0.94879 0.81172 0.0
O19 O 1.01088 0.90544 0.9406 0.0
O20 O 0.88683 0.98421 0.19869 0.0
O21 O 0.88396 0.0676 0.10094 0.0
C22 C 1.00312 0.11441 0.1719 0.0
C23 C 0.99266 0.16192 0.86786 0.0
C24 C 0.90408 0.02088 0.86249 0.0
O25 O 0.9069 0.0128 0.94277 0.0
O26 O 0.94963 0.04022 0.81245 0.0
C27 C 0.16248 0.98944 0.86662 0.0
O28 O 0.06776 0.88075 0.09764 0.0
O29 O 0.98621 0.88498 0.19811 0.0
C30 C 0.01876 0.90352 0.8601 0.0
C31 C 0.03063 0.85724 0.16087 0.0
C32 C 0.08585 0.59391 0.38022 0.0
C33 C 0.14541 0.61209 0.35331 0.0
C34 C 0.18164 0.58048 0.40576 0.0
C35 C 0.14227 0.54493 0.46135 0.0
N36 N 0.08305 0.55122 0.44695 0.0
Co37 Co 1.01069 0.50976 0.51454 0.0
N38 N 0.06383 0.46533 0.59414 0.0
C39 C 0.12532 0.4685 0.59096 0.0
C40 C 0.14914 0.43193 0.65312 0.0
C41 C 0.09999 0.40297 0.69814 0.0
C42 C 0.04886 0.42368 0.6606 0.0
N43 N 0.93826 0.46915 0.5833 0.0
C44 C 0.93535 0.42727 0.65109 0.0
C45 C 0.87575 0.41056 0.67967 0.0
C46 C 0.83954 0.44266 0.62767 0.0
C47 C 0.87898 0.47701 0.57062 0.0
N48 N 0.95758 0.55327 0.43393 0.0
C49 C 0.8962 0.54835 0.43548 0.0
C50 C 0.87229 0.5844 0.37289 0.0
C51 C 0.92121 0.6146 0.32905 0.0
C52 C 0.97243 0.59508 0.36754 0.0
N53 N 0.0149 0.44071 0.43995 0.0
C54 C 0.01983 0.34066 0.33876 0.0
C55 C 0.96445 0.36552 0.36306 0.0
C56 C 0.96301 0.41519 0.41296 0.0
C57 C 0.07287 0.3669 0.36478 0.0
C58 C 0.06944 0.41664 0.41483 0.0
N59 N 1.00647 0.57889 0.58893 0.0
C60 C 0.95008 0.65898 0.65191 0.0
C61 C 1.00144 0.67971 0.68895 0.0
C62 C 0.05504 0.64847 0.67665 0.0
C63 C 0.0567 0.59892 0.62632 0.0
C64 C 0.95341 0.60869 0.60321 0.0
H65 H 0.09943 0.57817 0.61759 0.0
H66 H 0.91256 0.59524 0.57699 0.0
H67 H 0.91921 0.43145 0.4301 0.0
H68 H 0.11144 0.43413 0.43359 0.0
C69 C 0.15937 0.50608 0.52855 0.0
C70 C 0.0336 0.62056 0.34247 0.0
C71 C 0.98752 0.39984 0.68782 0.0
C72 C 0.86202 0.51336 0.50075 0.0
H73 H 0.16085 0.64553 0.30191 0.0
H74 H 0.23077 0.58373 0.40438 0.0
H75 H 0.19661 0.42644 0.66379 0.0
H76 H 0.1015 0.36963 0.75175 0.0
H77 H 0.86024 0.37768 0.73173 0.0
H78 H 0.79037 0.44001 0.62973 0.0
H79 H 0.82479 0.58961 0.36216 0.0
H80 H 0.91911 0.64837 0.27618 0.0
H81 H 0.92219 0.34571 0.34529 0.0
H82 H 0.11665 0.34813 0.34847 0.0
H83 H 0.90747 0.68178 0.66009 0.0
H84 H 0.09612 0.66341 0.70355 0.0
C85 C 0.42846 0.93672 0.65131 0.0
C86 C 0.41148 0.87729 0.68004 0.0
C87 C 0.4435 0.84096 0.62823 0.0
C88 C 0.47807 0.88018 0.5712 0.0
N89 N 0.47072 0.9394 0.58398 0.0
Co90 Co 0.51077 0.01153 0.51433 0.0
N91 N 0.55507 0.95815 0.43489 0.0
C92 C 0.55156 0.89676 0.43828 0.0
C93 C 0.58894 0.87261 0.3774 0.0
C94 C 0.61889 0.92138 0.33306 0.0
C95 C 0.59775 0.97276 0.36948 0.0
N96 N 0.55075 0.08364 0.44462 0.0
C97 C 0.59394 0.08622 0.37842 0.0
C98 C 0.61061 0.14563 0.34926 0.0
C99 C 0.57754 0.18204 0.39979 0.0
C100 C 0.54261 0.1429 0.45653 0.0
N101 N 0.46668 0.06486 0.5941 0.0
C102 C 0.47011 0.12626 0.59072 0.0
C103 C 0.43353 0.15022 0.65275 0.0
C104 C 0.40439 0.10131 0.69798 0.0
C105 C 0.42505 0.05009 0.66081 0.0
N106 N 0.58061 1.009 0.58749 0.0
C107 C 0.68151 1.00673 0.68768 0.0
C108 C 0.653 0.06086 0.6673 0.0
C109 C 0.60326 0.06101 0.61751 0.0
C110 C 0.6588 0.95369 0.65686 0.0
C111 C 0.60844 0.95573 0.60787 0.0
N112 N 0.44087 0.01426 0.44101 0.0
C113 C 0.3618 0.07013 0.37453 0.0
C114 C 0.33923 0.01774 0.3421 0.0
C115 C 0.36901 0.96374 0.35858 0.0
C116 C 0.41902 0.96291 0.40825 0.0
C117 C 0.41236 0.06749 0.42286 0.0
H118 H 0.43871 0.92 0.42014 0.0
H119 H 0.42711 0.10913 0.44541 0.0
H120 H 0.58436 0.10397 0.60339 0.0
H121 H 0.59309 0.9137 0.58677 0.0
C122 C 0.51561 0.86292 0.50275 0.0
C123 C 0.40073 0.98888 0.68752 0.0
C124 C 0.62258 0.03394 0.34366 0.0
C125 C 0.50535 0.16021 0.52542 0.0
H126 H 0.37842 0.86199 0.73204 0.0
H127 H 0.44085 0.79187 0.63061 0.0
H128 H 0.59515 0.82511 0.36812 0.0
H129 H 0.65358 0.91904 0.28136 0.0
H130 H 0.64429 0.16088 0.29801 0.0
H131 H 0.58006 0.23114 0.39718 0.0
H132 H 0.42747 0.19769 0.66244 0.0
H133 H 0.37063 0.10324 0.751 0.0
H134 H 0.66983 0.10337 0.68811 0.0
H135 H 0.67963 0.91068 0.67086 0.0
H136 H 0.34042 0.11314 0.36273 0.0
H137 H 0.35276 0.92189 0.33518 0.0
C138 C 0.02516 0.22813 0.1667 0.0
C139 C 0.01345 0.17177 0.21445 0.0
C140 C 0.02864 0.28291 0.20682 0.0
C141 C 0.02097 0.28316 0.29601 0.0
H142 H 0.03002 0.2302 0.09786 0.0
H143 H 0.0361 0.32539 0.16787 0.0
S144 S 0.99319 0.14938 0.45134 0.0
N145 N 0.99706 0.12089 0.35767 0.0
N146 N 1.00379 0.22344 0.43096 0.0
C147 C 1.01117 0.22758 0.34448 0.0
C148 C 1.00747 0.17204 0.30432 0.0
C149 C 0.74639 0.03167 0.16235 0.0
C150 C 0.79948 0.04162 0.20366 0.0
C151 C 0.68867 0.03224 0.20672 0.0
C152 C 0.68272 0.04187 0.29392 0.0
H153 H 0.74966 0.01992 0.09708 0.0
H154 H 0.64865 0.02233 0.17388 0.0
S155 S 0.80778 0.07241 0.42986 0.0
N156 N 0.84244 0.06392 0.33529 0.0
N157 N 0.73422 0.0639 0.41881 0.0
C158 C 0.73536 0.05395 0.33492 0.0
C159 C 0.79378 0.0538 0.28981 0.0
C160 C 0.03476 0.74395 0.15962 0.0
C161 C 0.04247 0.79704 0.20177 0.0
C162 C 0.03412 0.68636 0.20461 0.0
C163 C 0.0412 0.68061 0.29264 0.0
H164 H 0.02615 0.74705 0.09291 0.0
H165 H 0.02585 0.64625 0.17128 0.0
S166 S 0.06924 0.80558 0.42931 0.0
N167 N 0.06211 0.84005 0.33431 0.0
N168 N 0.06075 0.73216 0.41832 0.0
C169 C 0.05212 0.73321 0.33401 0.0
C170 C 0.05269 0.79142 0.28864 0.0
C171 C 0.23019 0.99482 0.16995 0.0
C172 C 0.17435 0.01267 0.20774 0.0
C173 C 0.28362 0.99712 0.21321 0.0
C174 C 0.28334 0.01871 0.29483 0.0
H175 H 0.23208 0.97643 0.10826 0.0
H176 H 0.32532 0.98134 0.18301 0.0
S177 S 0.14976 0.07429 0.41907 0.0
N178 N 0.12269 0.05458 0.33021 0.0
N179 N 0.22299 0.06037 0.41003 0.0
C180 C 0.22832 0.03884 0.33166 0.0
C181 C 0.1739 0.03544 0.28852 0.0
C182 C 0.01891 0.78925 0.86195 0.0
C183 C 1.00731 0.84582 0.82003 0.0
C184 C 0.01632 0.73538 0.81978 0.0
C185 C 1.00037 0.73598 0.7351 0.0
H186 H 0.03264 0.78689 0.92642 0.0
H187 H 0.02741 0.69305 0.8533 0.0
S188 S 0.96281 0.87137 0.59849 0.0
N189 N 0.9783 0.8984 0.68919 0.0
N190 N 0.97079 0.79732 0.61217 0.0
C191 C 0.98649 0.79176 0.6938 0.0
C192 C 0.99063 0.84657 0.73567 0.0
C193 C 0.27585 0.98384 0.86914 0.0
C194 C 0.22298 0.97825 0.82563 0.0
C195 C 0.33385 0.98529 0.82482 0.0
C196 C 0.34023 0.98088 0.73619 0.0
H197 H 0.27229 0.99025 0.93657 0.0
H198 H 0.37379 0.99194 0.85928 0.0
S199 S 0.21616 0.95978 0.59524 0.0
N200 N 0.18093 0.96401 0.69056 0.0
N201 N 0.28959 0.96656 0.60804 0.0
C202 C 0.28787 0.97223 0.69321 0.0
C203 C 0.22926 0.971 0.73782 0.0
C204 C 0.99027 0.23016 0.7361 0.0
C205 C 0.98225 0.22252 0.82573 0.0
C206 C 0.98915 0.28745 0.69233 0.0
C207 C 0.9801 0.33944 0.73638 0.0
H208 H 0.99899 0.19151 0.69927 0.0
H209 H 0.9974 0.29143 0.6236 0.0
S210 S 0.95364 0.34472 0.96997 0.0
N211 N 0.96186 0.27187 0.95655 0.0
N212 N 0.96045 0.38039 0.87364 0.0
C213 C 0.96964 0.33271 0.82551 0.0
C214 C 0.97032 0.27394 0.87039 0.0
C215 C 0.84377 0.9848 0.74714 0.0
C216 C 0.8452 0.01184 0.82476 0.0
C217 C 0.79017 0.98126 0.70497 0.0
C218 C 0.73617 1.00624 0.73759 0.0
H219 H 0.88475 0.96717 0.71793 0.0
H220 H 0.79163 0.96087 0.6447 0.0
S221 S 0.71613 0.08429 0.93683 0.0
N222 N 0.78797 0.06479 0.93187 0.0
N223 N 0.68739 0.05905 0.8522 0.0
C224 C 0.73683 0.03325 0.81533 0.0
C225 C 0.79122 0.0358 0.85905 0.0
loop_
_geom_bond_atom_site_label_1
_geom_bond_atom_site_label_2
_geom_bond_distance
_geom_bond_site_symmetry_2
_ccdc_geom_bond_type
Fe0 O1 1.886 1_565 S
Fe0 O4 1.715 1_655 S
Fe0 O9 2.077 1_565 S
Fe0 O14 1.935 1_665 S
Fe0 O20 2.077 . S
Fe0 O29 1.935 . S
O1 Fe0 1.886 1_545 S
O1 Fe3 1.715 1_554 S
Fe2 O4 1.886 . S
Fe2 O5 1.715 1_554 S
Fe2 O12 1.935 1_554 S
Fe2 O13 2.077 . S
Fe2 O19 1.935 1_554 S
Fe2 O28 2.077 . S
Fe3 O1 1.715 1_556 S
Fe3 O6 1.886 . S
Fe3 O10 1.935 1_556 S
Fe3 O15 2.077 . S
Fe3 O21 1.935 1_556 S
Fe3 O25 2.077 . S
O4 Fe0 1.715 1_455 S
O4 Fe2 1.886 . S
O5 Fe2 1.715 1_556 S
O5 Fe7 1.886 1_565 S
O6 Fe3 1.886 . S
O6 Fe7 1.715 1_655 S
Fe7 O5 1.886 1_545 S
Fe7 O6 1.715 1_455 S
Fe7 O11 2.077 . S
Fe7 O16 1.935 . S
Fe7 O18 2.077 1_545 S
Fe7 O26 1.935 1_445 S
C8 O20 1.381 1_545 S
C8 O21 1.421 . S
O9 Fe0 2.077 1_545 S
O9 C22 1.381 . S
O10 Fe3 1.935 1_554 S
O10 C22 1.421 . S
O11 Fe7 2.077 . S
O11 C27 1.381 1_545 S
O12 Fe2 1.935 1_556 S
O12 C27 1.421 . S
O13 Fe2 2.077 . S
O13 C17 1.381 . S
O14 Fe0 1.935 1_445 S
O14 C17 1.421 1_545 S
O15 Fe3 2.077 . S
O15 C23 1.381 . S
O16 Fe7 1.935 . S
O16 C23 1.421 1_455 S
C17 O13 1.381 . S
C17 O14 1.421 1_565 S
O18 Fe7 2.077 1_565 S
O18 C30 1.381 . S
O19 Fe2 1.935 1_556 S
O19 C30 1.421 . S
O20 Fe0 2.077 . S
O20 C8 1.381 1_565 S
O21 Fe3 1.935 1_554 S
O21 C8 1.421 . S
C22 O9 1.381 . S
C22 O10 1.421 . S
C23 O15 1.381 . S
C23 O16 1.421 1_655 S
C24 O25 1.381 . S
C24 O26 1.421 1_545 S
O25 Fe3 2.077 . S
O25 C24 1.381 . S
O26 Fe7 1.935 1_665 S
O26 C24 1.421 1_565 S
C27 O11 1.381 1_565 S
C27 O12 1.421 . S
O28 Fe2 2.077 . S
O28 C31 1.381 . S
O29 Fe0 1.935 . S
O29 C31 1.421 1_655 S
C30 O18 1.381 . S
C30 O19 1.421 . S
C31 O28 1.381 . S
C31 O29 1.421 1_455 S
C32 C33 1.443 . S
C32 N36 1.376 . S
C32 C70 1.404 . S
C33 C32 1.443 . S
C33 C34 1.340 . S
C33 H73 0.951 . S
C34 C33 1.340 . S
C34 C35 1.439 . S
C34 H74 0.950 . S
C35 C34 1.439 . S
C35 N36 1.374 . S
C35 C69 1.395 . S
N36 C32 1.376 . S
N36 C35 1.374 . S
N36 Co37 2.008 . S
Co37 N36 2.008 . S
Co37 N38 1.995 . S
Co37 N43 2.008 1_455 S
Co37 N48 1.995 1_455 S
Co37 N53 2.282 . S
Co37 N59 2.282 1_455 S
N38 Co37 1.995 . S
N38 C39 1.376 . S
N38 C42 1.383 . S
C39 N38 1.376 . S
C39 C40 1.446 . S
C39 C69 1.391 . S
C40 C39 1.446 . S
C40 C41 1.339 . S
C40 H75 0.949 . S
C41 C40 1.339 . S
C41 C42 1.439 . S
C41 H76 0.950 . S
C42 N38 1.383 . S
C42 C41 1.439 . S
C42 C71 1.382 1_455 S
N43 Co37 2.008 1_655 S
N43 C44 1.376 . S
N43 C47 1.374 . S
C44 N43 1.376 . S
C44 C45 1.443 . S
C44 C71 1.400 . S
C45 C44 1.443 . S
C45 C46 1.340 . S
C45 H77 0.951 . S
C46 C45 1.340 . S
C46 C47 1.439 . S
C46 H78 0.950 . S
C47 N43 1.374 . S
C47 C46 1.439 . S
C47 C72 1.395 . S
N48 Co37 1.995 1_655 S
N48 C49 1.376 . S
N48 C52 1.383 . S
C49 N48 1.376 . S
C49 C50 1.446 . S
C49 C72 1.391 . S
C50 C49 1.446 . S
C50 C51 1.339 . S
C50 H79 0.949 . S
C51 C50 1.339 . S
C51 C52 1.439 . S
C51 H80 0.950 . S
C52 N48 1.383 . S
C52 C51 1.439 . S
C52 C70 1.378 1_655 S
N53 Co37 2.282 . S
N53 C56 1.332 1_455 S
N53 C58 1.332 . S
C54 C55 1.375 1_455 S
C54 C57 1.400 . S
C55 C54 1.375 1_655 S
C55 C56 1.382 . S
C55 H81 0.950 . S
C56 N53 1.332 1_655 S
C56 C55 1.382 . S
C56 H67 0.952 . S
C57 C54 1.400 . S
C57 C58 1.382 . S
C57 H82 0.950 . S
C58 N53 1.332 . S
C58 C57 1.382 . S
C58 H68 0.948 . S
N59 Co37 2.282 1_655 S
N59 C63 1.332 1_655 S
N59 C64 1.332 . S
C60 C61 1.396 . S
C60 C64 1.382 . S
C60 H83 0.950 . S
C61 C60 1.396 . S
C61 C62 1.378 1_655 S
C62 C61 1.378 1_455 S
C62 C63 1.382 . S
C62 H84 0.950 . S
C63 N59 1.332 1_455 S
C63 C62 1.382 . S
C63 H65 0.952 . S
C64 N59 1.332 . S
C64 C60 1.382 . S
C64 H66 0.948 . S
H65 C63 0.952 . S
H66 C64 0.948 . S
H67 C56 0.952 . S
H68 C58 0.948 . S
C69 C35 1.395 . S
C69 C39 1.391 . S
C70 C32 1.404 . S
C70 C52 1.378 1_455 S
C71 C42 1.382 1_655 S
C71 C44 1.400 . S
C72 C47 1.395 . S
C72 C49 1.391 . S
H73 C33 0.951 . S
H74 C34 0.950 . S
H75 C40 0.949 . S
H76 C41 0.950 . S
H77 C45 0.951 . S
H78 C46 0.950 . S
H79 C50 0.949 . S
H80 C51 0.950 . S
H81 C55 0.950 . S
H82 C57 0.950 . S
H83 C60 0.950 . S
H84 C62 0.950 . S
C85 C86 1.443 . S
C85 N89 1.376 . S
C85 C123 1.398 . S
C86 C85 1.443 . S
C86 C87 1.340 . S
C86 H126 0.951 . S
C87 C86 1.340 . S
C87 C88 1.439 . S
C87 H127 0.950 . S
C88 C87 1.439 . S
C88 N89 1.374 . S
C88 C122 1.395 . S
N89 C85 1.376 . S
N89 C88 1.374 . S
N89 Co90 2.007 1_565 S
Co90 N89 2.007 1_545 S
Co90 N91 1.993 1_545 S
Co90 N96 2.010 . S
Co90 N101 1.996 . S
Co90 N106 2.282 1_545 S
Co90 N112 2.282 . S
N91 Co90 1.993 1_565 S
N91 C92 1.376 . S
N91 C95 1.383 . S
C92 N91 1.376 . S
C92 C93 1.446 . S
C92 C122 1.391 . S
C93 C92 1.446 . S
C93 C94 1.339 . S
C93 H128 0.949 . S
C94 C93 1.339 . S
C94 C95 1.439 . S
C94 H129 0.950 . S
C95 N91 1.383 . S
C95 C94 1.439 . S
C95 C124 1.376 1_565 S
N96 Co90 2.010 . S
N96 C97 1.376 . S
N96 C100 1.374 . S
C97 N96 1.376 . S
C97 C98 1.443 . S
C97 C124 1.406 . S
C98 C97 1.443 . S
C98 C99 1.340 . S
C98 H130 0.951 . S
C99 C98 1.340 . S
C99 C100 1.439 . S
C99 H131 0.950 . S
C100 N96 1.374 . S
C100 C99 1.439 . S
C100 C125 1.395 . S
N101 Co90 1.996 . S
N101 C102 1.376 . S
N101 C105 1.383 . S
C102 N101 1.376 . S
C102 C103 1.446 . S
C102 C125 1.391 . S
C103 C102 1.446 . S
C103 C104 1.339 . S
C103 H132 0.949 . S
C104 C103 1.339 . S
C104 C105 1.439 . S
C104 H133 0.950 . S
C105 N101 1.383 . S
C105 C104 1.439 . S
C105 C123 1.384 1_545 S
N106 Co90 2.282 1_565 S
N106 C109 1.332 1_565 S
N106 C111 1.332 . S
C107 C108 1.380 1_565 S
C107 C110 1.394 . S
C108 C107 1.380 1_545 S
C108 C109 1.382 . S
C108 H134 0.950 . S
C109 N106 1.332 1_545 S
C109 C108 1.382 . S
C109 H120 0.952 . S
C110 C107 1.394 . S
C110 C111 1.382 . S
C110 H135 0.950 . S
C111 N106 1.332 . S
C111 C110 1.382 . S
C111 H121 0.948 . S
N112 Co90 2.282 . S
N112 C116 1.332 1_545 S
N112 C117 1.332 . S
C113 C114 1.402 . S
C113 C117 1.382 . S
C113 H136 0.950 . S
C114 C113 1.402 . S
C114 C115 1.373 1_545 S
C115 C114 1.373 1_565 S
C115 C116 1.382 . S
C115 H137 0.950 . S
C116 N112 1.332 1_565 S
C116 C115 1.382 . S
C116 H118 0.952 . S
C117 N112 1.332 . S
C117 C113 1.382 . S
C117 H119 0.948 . S
H118 C116 0.952 . S
H119 C117 0.948 . S
H120 C109 0.952 . S
H121 C111 0.948 . S
C122 C88 1.395 . S
C122 C92 1.391 . S
C123 C85 1.398 . S
C123 C105 1.384 1_565 S
C124 C95 1.376 1_545 S
C124 C97 1.406 . S
C125 C100 1.395 . S
C125 C102 1.391 . S
H126 C86 0.951 . S
H127 C87 0.950 . S
H128 C93 0.949 . S
H129 C94 0.950 . S
H130 C98 0.951 . S
H131 C99 0.950 . S
H132 C103 0.949 . S
H133 C104 0.950 . S
H134 C108 0.950 . S
H135 C110 0.950 . S
H136 C113 0.950 . S
H137 C115 0.950 . S
C138 C139 1.369 . S
C138 C140 1.419 . S
C138 H142 0.930 . S
C139 C138 1.369 . S
C139 C148 1.429 1_655 S
C140 C138 1.419 . S
C140 C141 1.369 . S
C140 H143 0.929 . S
C141 C140 1.369 . S
C141 C147 1.424 1_655 S
H142 C138 0.930 . S
H143 C140 0.929 . S
S144 N145 1.613 . S
S144 N146 1.610 . S
N145 S144 1.613 . S
N145 C148 1.350 . S
N146 S144 1.610 . S
N146 C147 1.351 . S
C147 C141 1.424 1_455 S
C147 N146 1.351 . S
C147 C148 1.434 . S
C148 C139 1.429 1_455 S
C148 N145 1.350 . S
C148 C147 1.434 . S
C149 C150 1.369 . S
C149 C151 1.419 . S
C149 H153 0.930 . S
C150 C149 1.369 . S
C150 C159 1.429 1_565 S
C151 C149 1.419 . S
C151 C152 1.371 . S
C151 H154 0.929 . S
C152 C151 1.371 . S
C152 C158 1.421 1_565 S
H153 C149 0.930 . S
H154 C151 0.929 . S
S155 N156 1.613 . S
S155 N157 1.610 . S
N156 S155 1.613 . S
N156 C159 1.350 . S
N157 S155 1.610 . S
N157 C158 1.351 . S
C158 C152 1.421 1_545 S
C158 N157 1.351 . S
C158 C159 1.434 . S
C159 C150 1.429 1_545 S
C159 N156 1.350 . S
C159 C158 1.434 . S
C160 C161 1.369 1_455 S
C160 C162 1.419 . S
C160 H164 0.930 . S
C161 C160 1.369 1_655 S
C161 C170 1.429 . S
C162 C160 1.419 . S
C162 C163 1.363 1_455 S
C162 H165 0.929 . S
C163 C162 1.363 1_655 S
C163 C169 1.428 . S
H164 C160 0.930 . S
H165 C162 0.929 . S
S166 N167 1.613 . S
S166 N168 1.610 . S
N167 S166 1.613 . S
N167 C170 1.350 . S
N168 S166 1.610 . S
N168 C169 1.351 . S
C169 C163 1.428 . S
C169 N168 1.351 . S
C169 C170 1.434 . S
C170 C161 1.429 . S
C170 N167 1.350 . S
C170 C169 1.434 . S
C171 C172 1.369 . S
C171 C173 1.419 . S
C171 H175 0.930 . S
C172 C171 1.369 . S
C172 C181 1.429 1_565 S
C173 C171 1.419 . S
C173 C174 1.365 . S
C173 H176 0.929 . S
C174 C173 1.365 . S
C174 C180 1.427 1_565 S
H175 C171 0.930 . S
H176 C173 0.929 . S
S177 N178 1.613 . S
S177 N179 1.610 . S
N178 S177 1.613 . S
N178 C181 1.350 . S
N179 S177 1.610 . S
N179 C180 1.351 . S
C180 C174 1.427 1_545 S
C180 N179 1.351 . S
C180 C181 1.434 . S
C181 C172 1.429 1_545 S
C181 N178 1.350 . S
C181 C180 1.434 . S
C182 C183 1.369 . S
C182 C184 1.419 . S
C182 H186 0.930 . S
C183 C182 1.369 . S
C183 C192 1.429 1_455 S
C184 C182 1.419 . S
C184 C185 1.368 . S
C184 H187 0.929 . S
C185 C184 1.368 . S
C185 C191 1.423 1_455 S
H186 C182 0.930 . S
H187 C184 0.929 . S
S188 N189 1.613 . S
S188 N190 1.610 . S
N189 S188 1.613 . S
N189 C192 1.350 . S
N190 S188 1.610 . S
N190 C191 1.351 . S
C191 C185 1.423 1_655 S
C191 N190 1.351 . S
C191 C192 1.434 . S
C192 C183 1.429 1_655 S
C192 N189 1.350 . S
C192 C191 1.434 . S
C193 C194 1.369 . S
C193 C195 1.419 . S
C193 H197 0.930 . S
C194 C193 1.369 . S
C194 C203 1.429 1_545 S
C195 C193 1.419 . S
C195 C196 1.377 . S
C195 H198 0.929 . S
C196 C195 1.377 . S
C196 C202 1.416 1_545 S
H197 C193 0.930 . S
H198 C195 0.929 . S
S199 N200 1.613 . S
S199 N201 1.610 . S
N200 S199 1.613 . S
N200 C203 1.350 . S
N201 S199 1.610 . S
N201 C202 1.351 . S
C202 C196 1.416 1_565 S
C202 N201 1.351 . S
C202 C203 1.434 . S
C203 C194 1.429 1_565 S
C203 N200 1.350 . S
C203 C202 1.434 . S
C204 C205 1.369 1_655 S
C204 C206 1.419 . S
C204 H208 0.930 . S
C205 C204 1.369 1_455 S
C205 C214 1.429 . S
C206 C204 1.419 . S
C206 C207 1.363 1_655 S
C206 H209 0.929 . S
C207 C206 1.363 1_455 S
C207 C213 1.428 . S
H208 C204 0.930 . S
H209 C206 0.929 . S
S210 N211 1.613 . S
S210 N212 1.610 . S
N211 S210 1.613 . S
N211 C214 1.350 . S
N212 S210 1.610 . S
N212 C213 1.351 . S
C213 C207 1.428 . S
C213 N212 1.351 . S
C213 C214 1.434 . S
C214 C205 1.429 . S
C214 N211 1.350 . S
C214 C213 1.434 . S
C215 C216 1.369 1_565 S
C215 C217 1.419 . S
C215 H219 0.930 . S
C216 C215 1.369 1_545 S
C216 C225 1.429 . S
C217 C215 1.419 . S
C217 C218 1.363 1_565 S
C217 H220 0.929 . S
C218 C217 1.363 1_545 S
C218 C224 1.428 . S
H219 C215 0.930 . S
H220 C217 0.929 . S
S221 N222 1.613 . S
S221 N223 1.610 . S
N222 S221 1.613 . S
N222 C225 1.350 . S
N223 S221 1.610 . S
N223 C224 1.351 . S
C224 C218 1.428 . S
C224 N223 1.351 . S
C224 C225 1.434 . S
C225 C216 1.429 . S
C225 N222 1.350 . S
C225 C224 1.434 . S
C139 C22 1.386 . S
C141 C54 1.427 1_655 S
C150 C8 1.502 1_565 S
C152 C124 1.567 1_565 S
C161 C31 1.510 1_655 S
C163 C70 1.567 1_655 S
C172 C17 1.384 . S
C174 C114 1.427 1_565 S
C183 C30 1.392 . S
C185 C61 1.428 1_455 S
C194 C27 1.502 1_545 S
C196 C123 1.567 1_545 S
C207 C71 1.568 1_455 S
C205 C23 1.514 1_455 S
C216 C24 1.384 . S
C218 C107 1.428 1_545 S
