# Generated by pormake.
# Topology bcu-b, (8,8)-cn, num edge types: 1
# Building blocks:
#     Node 0, Type 0, BuildingBlock: TAGTUT_clean_sbu_1, # of connection points: 8
#     Node 1, Type 1, BuildingBlock: TAGTUT_clean_sbu_3, # of connection points: 8
#     Edge 2, Type (0, 1), BuildingBlock: EZIPEK_clean_linker_0, # of connection points: 2
#     Edge 3, Type (0, 1), BuildingBlock: EZIPEK_clean_linker_0, # of connection points: 2
#     Edge 4, Type (0, 1), BuildingBlock: EZIPEK_clean_linker_0, # of connection points: 2
#     Edge 5, Type (0, 1), BuildingBlock: EZIPEK_clean_linker_0, # of connection points: 2
#     Edge 6, Type (0, 1), BuildingBlock: EZIPEK_clean_linker_0, # of connection points: 2
#     Edge 7, Type (0, 1), BuildingBlock: EZIPEK_clean_linker_0, # of connection points: 2
#     Edge 8, Type (0, 1), BuildingBlock: EZIPEK_clean_linker_0, # of connection points: 2
#     Edge 9, Type (0, 1), BuildingBlock: EZIPEK_clean_linker_0, # of connection points: 2
# Relax obj value: 0.012
# Max RMSD: 0.078
# Mean RMSD: 0.066
data_MOF--net-bcu-b--node1-TAGTUT_clean_sbu_1--node2-TAGTUT_clean_sbu_3--edge1-EZIPEK_clean_linker_0
_symmetry_space_group_name_H-M    P1
_symmetry_Int_Tables_number       1
_symmetry_cell_setting            triclinic
loop_
_symmetry_equiv_pos_as_xyz
'x, y, z'
_cell_length_a     15.439731
_cell_length_b     14.710452
_cell_length_c     16.339553
_cell_angle_alpha  90.756019
_cell_angle_beta   90.721669
_cell_angle_gamma 110.93748
loop_
_atom_site_label
_atom_site_type_symbol
_atom_site_fract_x
_atom_site_fract_y
_atom_site_fract_z
_atom_type_partial_charge
C0 C 0.81913 0.22153 0.07194 0.0
C1 C 0.93742 0.22583 0.83323 0.0
C2 C 0.82562 0.823 0.89094 0.0
Mg3 Mg 0.0097 0.22579 0.01014 0.0
O4 O 0.94571 0.09091 0.01081 0.0
Mg5 Mg 0.82303 0.03441 0.95479 0.0
Mg6 Mg 0.00028 -0.00514 0.97305 0.0
O7 O 0.05675 0.89793 0.93858 0.0
Mg8 Mg 0.99407 0.7705 0.97366 0.0
Mg9 Mg 0.18626 0.9614 -0.01623 0.0
C10 C 0.16944 0.1562 0.08161 0.0
C11 C 0.15761 0.09854 0.84026 0.0
O12 O 0.78007 0.14564 0.02679 0.0
O13 O 0.90741 0.26406 0.07783 0.0
O14 O 0.87079 0.14605 0.84864 0.0
O15 O 0.00441 0.26581 0.88402 0.0
O16 O 0.13582 0.22404 0.0731 0.0
O17 O 0.13066 0.07143 0.04887 0.0
C18 C 0.835 0.89201 0.10067 0.0
O19 O 0.91829 0.90248 0.08033 0.0
O20 O 0.7871 0.93358 0.06223 0.0
O21 O 0.21517 0.83724 0.90844 0.0
O22 O 0.0789 0.71008 0.90548 0.0
O23 O 0.16342 0.86873 0.09687 0.0
C24 C 0.1641 0.74979 0.88564 0.0
O25 O 0.02252 0.75526 0.10291 0.0
O26 O 0.86098 0.76237 0.91945 0.0
C27 C 0.10265 0.80098 0.13459 0.0
O28 O 0.87147 0.91581 0.89404 0.0
O29 O 0.07673 0.08803 0.86606 0.0
O30 O 0.20844 0.0567 0.87331 0.0
C31 C 0.65455 0.6599 0.59926 0.0
C32 C 0.79059 0.37967 0.57334 0.0
C33 C 0.64783 0.34583 0.32926 0.0
Mg34 Mg 0.47762 0.68811 0.50288 0.0
Mg35 Mg 0.30033 0.48756 0.46212 0.0
O36 O 0.42521 0.5599 0.44224 0.0
Mg37 Mg 0.51361 0.49732 0.47982 0.0
O38 O 0.60922 0.44454 0.51937 0.0
Mg39 Mg 0.72027 0.53546 0.46227 0.0
Mg40 Mg 0.58723 0.31181 0.50766 0.0
C41 C 0.36488 0.34147 0.35519 0.0
O42 O 0.41029 0.39019 0.56722 0.0
O43 O 0.36993 0.73022 0.42305 0.0
O44 O 0.45914 0.26309 0.57501 0.0
O45 O 0.37216 0.6452 0.60442 0.0
O46 O 0.24941 0.58822 0.4041 0.0
O47 O 0.27457 0.49183 0.59231 0.0
O48 O 0.62051 0.5957 0.39512 0.0
O49 O 0.58642 0.73063 0.40323 0.0
C50 C 0.63563 0.68376 0.37539 0.0
C51 C 0.28831 0.67994 0.39413 0.0
O52 O 0.44956 0.38068 0.38005 0.0
O53 O 0.80855 0.46183 0.53757 0.0
O54 O 0.29845 0.36355 0.38606 0.0
O55 O 0.70344 0.42957 0.3536 0.0
O56 O 0.71073 0.31199 0.56868 0.0
O57 O 0.5916 0.28821 0.3784 0.0
O58 O 0.57071 0.61893 0.57366 0.0
O59 O 0.72107 0.63755 0.56953 0.0
C60 C 0.30658 0.57268 0.63205 0.0
C61 C 0.40164 0.30502 0.59295 0.0
C62 C 0.32776 0.24949 0.13506 0.0
C63 C 0.24254 0.17239 0.14515 0.0
C64 C 0.26763 0.18156 0.29349 0.0
C65 C 0.34087 0.27194 0.28447 0.0
N66 N 0.45027 0.38759 0.19689 0.0
N67 N 0.13629 0.05363 0.23158 0.0
C68 C 0.37595 0.30319 0.20529 0.0
C69 C 0.21589 0.13265 0.22349 0.0
N70 N 0.36036 0.27179 0.05774 0.0
N71 N 0.24642 0.14448 0.36983 0.0
H72 H 0.09982 0.01158 0.182 0.0
H73 H 0.10473 0.0307 0.28726 0.0
H74 H 0.2801 0.18308 0.42182 0.0
H75 H 0.201 0.07438 0.38147 0.0
H76 H 0.42514 0.32278 0.04463 0.0
H77 H 0.32451 0.23208 0.00653 0.0
H78 H 0.47237 0.42037 0.1411 0.0
H79 H 0.48963 0.4272 0.24617 0.0
C80 C 0.75854 0.34863 0.12475 0.0
C81 C 0.75933 0.25241 0.12711 0.0
C82 C 0.63914 0.21146 0.23018 0.0
C83 C 0.65897 0.31157 0.24499 0.0
N84 N 0.71022 0.47252 0.1896 0.0
N85 N 0.70542 0.0933 0.18955 0.0
C86 C 0.70995 0.37955 0.18634 0.0
C87 C 0.69995 0.18344 0.18094 0.0
N88 N 0.80263 0.40879 0.06324 0.0
N89 N 0.56108 0.14352 0.26033 0.0
H90 H 0.75358 0.07092 0.15939 0.0
H91 H 0.66874 0.04479 0.23382 0.0
H92 H 0.50914 0.16278 0.28754 0.0
H93 H 0.54152 0.06941 0.24657 0.0
H94 H 0.80119 0.47814 0.05471 0.0
H95 H 0.83688 0.38657 0.01693 0.0
H96 H 0.75274 0.52947 0.15496 0.0
H97 H 0.66526 0.49197 0.2272 0.0
C98 C 0.7036 0.75307 0.15711 0.0
C99 C 0.79034 0.83006 0.17033 0.0
C100 C 0.78374 0.79465 0.31691 0.0
C101 C 0.69372 0.72449 0.30444 0.0
N102 N 0.56238 0.64228 0.21551 0.0
N103 N 0.90282 0.9379 0.26498 0.0
C104 C 0.65249 0.70427 0.22513 0.0
C105 C 0.82854 0.85397 0.25073 0.0
N106 N 0.66964 0.72693 0.0793 0.0
N107 N 0.82589 0.80491 0.39224 0.0
H108 H 0.93523 0.98554 0.21869 0.0
H109 H 0.92729 0.96478 0.32339 0.0
H110 H 0.7939 0.76296 0.44191 0.0
H111 H 0.89487 0.84857 0.40358 0.0
H112 H 0.6132 0.66413 0.06469 0.0
H113 H 0.70145 0.76476 0.02799 0.0
H114 H 0.52381 0.63402 0.16142 0.0
H115 H 0.52319 0.60298 0.26344 0.0
C116 C 0.2021 0.71425 0.18586 0.0
C117 C 0.1379 0.76006 0.20422 0.0
C118 C 0.17342 0.75683 0.35084 0.0
C119 C 0.24492 0.72125 0.33085 0.0
N120 N 0.33777 0.68065 0.22905 0.0
N121 N 0.06294 0.8286 0.30232 0.0
C122 C 0.26247 0.70465 0.24816 0.0
C123 C 0.12338 0.78226 0.28641 0.0
N124 N 0.20309 0.67698 0.10891 0.0
N125 N 0.15255 0.76432 0.43107 0.0
H126 H 0.02207 0.84227 0.25627 0.0
H127 H 0.05614 0.85674 0.35965 0.0
H128 H 0.19065 0.74983 0.47909 0.0
H129 H 0.09543 0.78041 0.44998 0.0
H130 H 0.24136 0.63362 0.09392 0.0
H131 H 0.15793 0.68059 0.06208 0.0
H132 H 0.35962 0.67783 0.16933 0.0
H133 H 0.38375 0.67242 0.27312 0.0
C134 C 0.14787 0.66252 0.75064 0.0
C135 C 0.19929 0.69598 0.82483 0.0
C136 C 0.31604 0.63057 0.77801 0.0
C137 C 0.26107 0.59166 0.7064 0.0
N138 N 0.1134 0.5503 0.63509 0.0
N139 N 0.32343 0.69637 0.916 0.0
C140 C 0.17267 0.59968 0.69694 0.0
C141 C 0.28068 0.67507 0.84079 0.0
N142 N 0.07972 0.69689 0.72807 0.0
N143 N 0.4037 0.62855 0.7844 0.0
H144 H 0.30052 0.73071 0.96265 0.0
H145 H 0.37709 0.67339 0.93414 0.0
H146 H 0.43058 0.59352 0.74114 0.0
H147 H 0.45145 0.66608 0.82987 0.0
H148 H 0.04716 0.68353 0.67061 0.0
H149 H 0.06282 0.74814 0.76256 0.0
H150 H 0.04548 0.54818 0.62944 0.0
H151 H 0.12801 0.50339 0.59398 0.0
C152 C 0.19633 0.11202 0.69389 0.0
C153 C 0.19571 0.15926 0.76923 0.0
C154 C 0.3202 0.30576 0.72536 0.0
C155 C 0.3267 0.25607 0.65135 0.0
N156 N 0.27961 0.10502 0.57165 0.0
N157 N 0.23603 0.30594 0.85018 0.0
C158 C 0.26624 0.15767 0.63666 0.0
C159 C 0.2506 0.25813 0.78246 0.0
N160 N 0.12897 0.02334 0.6774 0.0
N161 N 0.387 0.3936 0.74572 0.0
H162 H 0.18649 0.27131 0.89345 0.0
H163 H 0.26612 0.38093 0.85965 0.0
H164 H 0.44293 0.42936 0.70881 0.0
H165 H 0.3929 0.42712 0.80304 0.0
H166 H 0.1185 0.98833 0.62038 0.0
H167 H 0.07705 0.98934 0.719 0.0
H168 H 0.24477 0.03048 0.5633 0.0
H169 H 0.33132 0.13275 0.52909 0.0
C170 C 0.92298 0.242 0.6812 0.0
C171 C 0.92673 0.28194 0.76109 0.0
C172 C 0.88102 0.4133 0.70557 0.0
C173 C 0.85985 0.36248 0.62923 0.0
N174 N 0.86754 0.23416 0.5403 0.0
N175 N 0.90746 0.40522 0.851 0.0
C176 C 0.88444 0.27924 0.61558 0.0
C177 C 0.9077 0.36901 0.77346 0.0
N178 N 0.95672 0.16887 0.66859 0.0
N179 N 0.87339 0.50275 0.71397 0.0
H180 H 0.92724 0.37684 0.90292 0.0
H181 H 0.88137 0.45959 0.86524 0.0
H182 H 0.85201 0.53697 0.66669 0.0
H183 H 0.89712 0.54791 0.76535 0.0
H184 H 0.96303 0.14083 0.61111 0.0
H185 H 0.98576 0.14145 0.7159 0.0
H186 H 0.87306 0.16692 0.52786 0.0
H187 H 0.8452 0.26382 0.49016 0.0
C188 C 0.70077 0.67753 0.82635 0.0
C189 C 0.74166 0.78043 0.83591 0.0
C190 C 0.69066 0.80077 0.69733 0.0
C191 C 0.66888 0.70018 0.68283 0.0
N192 N 0.64253 0.53896 0.73308 0.0
N193 N 0.71915 0.9281 0.80021 0.0
C194 C 0.66811 0.63697 0.74789 0.0
C195 C 0.71972 0.83923 0.7772 0.0
N196 N 0.69205 0.61914 0.89239 0.0
N197 N 0.68697 0.85961 0.63446 0.0
H198 H 0.7222 0.94696 0.86186 0.0
H199 H 0.69977 0.97358 0.7616 0.0
H200 H 0.66257 0.83231 0.57594 0.0
H201 H 0.7124 0.93532 0.63943 0.0
H202 H 0.65455 0.54462 0.89138 0.0
H203 H 0.71481 0.64651 0.95082 0.0
H204 H 0.65358 0.49069 0.77428 0.0
H205 H 0.61378 0.50568 0.67742 0.0
loop_
_geom_bond_atom_site_label_1
_geom_bond_atom_site_label_2
_geom_bond_distance
_geom_bond_site_symmetry_2
_ccdc_geom_bond_type
C0 O12 1.241 . S
C0 O13 1.280 . S
C1 O14 1.277 . S
C1 O15 1.245 . S
C2 O26 1.247 . S
C2 O28 1.289 . S
Mg3 O4 1.926 . S
Mg3 O13 1.984 . S
Mg3 O15 1.988 1_554 S
Mg3 O16 2.061 1_655 S
O4 Mg3 1.926 . S
O4 Mg5 1.986 1_545 S
O4 Mg6 1.924 1_655 S
Mg5 O4 1.986 1_565 S
Mg5 O12 2.042 1_565 S
Mg5 O14 2.041 1_564 S
Mg5 O20 2.038 . S
Mg5 O28 2.238 1_554 S
Mg6 O4 1.924 1_455 S
Mg6 O7 1.910 1_544 S
Mg6 O17 2.108 . S
Mg6 O19 2.075 1_445 S
Mg6 O28 2.105 1_444 S
Mg6 O29 2.083 1_554 S
O7 Mg6 1.910 1_566 S
O7 Mg8 1.926 . S
O7 Mg9 1.985 1_566 S
Mg8 O7 1.926 . S
Mg8 O22 1.984 . S
Mg8 O25 1.988 1_556 S
Mg8 O26 2.061 1_455 S
Mg9 O7 1.985 1_544 S
Mg9 O17 2.240 . S
Mg9 O21 2.039 1_544 S
Mg9 O23 2.045 1_545 S
Mg9 O30 2.035 1_554 S
C10 O16 1.247 . S
C10 O17 1.289 . S
C11 O29 1.245 . S
C11 O30 1.274 . S
O12 C0 1.241 . S
O12 Mg5 2.042 1_545 S
O13 C0 1.280 . S
O13 Mg3 1.984 . S
O14 C1 1.277 . S
O14 Mg5 2.041 1_546 S
O15 C1 1.245 . S
O15 Mg3 1.988 1_556 S
O16 Mg3 2.061 1_455 S
O16 C10 1.247 . S
O17 Mg6 2.108 . S
O17 Mg9 2.240 . S
O17 C10 1.289 . S
C18 O19 1.245 . S
C18 O20 1.274 . S
O19 Mg6 2.075 1_665 S
O19 C18 1.245 . S
O20 Mg5 2.038 . S
O20 C18 1.274 . S
O21 Mg9 2.039 1_566 S
O21 C24 1.241 . S
O22 Mg8 1.984 . S
O22 C24 1.280 . S
O23 Mg9 2.045 1_565 S
O23 C27 1.277 . S
C24 O21 1.241 . S
C24 O22 1.280 . S
O25 Mg8 1.988 1_554 S
O25 C27 1.245 . S
O26 C2 1.247 . S
O26 Mg8 2.061 1_655 S
C27 O23 1.277 . S
C27 O25 1.245 . S
O28 C2 1.289 . S
O28 Mg5 2.238 1_556 S
O28 Mg6 2.105 1_666 S
O29 Mg6 2.083 1_556 S
O29 C11 1.245 . S
O30 Mg9 2.035 1_556 S
O30 C11 1.274 . S
C31 O58 1.312 . S
C31 O59 1.208 . S
C32 O53 1.331 . S
C32 O56 1.244 . S
C33 O55 1.264 . S
C33 O57 1.273 . S
Mg34 O36 1.936 . S
Mg34 O43 2.081 . S
Mg34 O45 2.023 . S
Mg34 O49 2.031 . S
Mg34 O58 2.291 . S
Mg35 O36 1.963 . S
Mg35 O46 1.942 . S
Mg35 O47 1.955 . S
Mg35 O54 1.986 . S
O36 Mg34 1.936 . S
O36 Mg35 1.963 . S
O36 Mg37 1.915 . S
Mg37 O36 1.915 . S
Mg37 O38 1.915 . S
Mg37 O42 2.013 . S
Mg37 O48 2.114 . S
Mg37 O52 2.013 . S
Mg37 O58 2.114 . S
O38 Mg37 1.915 . S
O38 Mg39 1.936 . S
O38 Mg40 1.963 . S
Mg39 O38 1.936 . S
Mg39 O48 2.291 . S
Mg39 O53 2.081 . S
Mg39 O55 2.023 . S
Mg39 O59 2.031 . S
Mg40 O38 1.963 . S
Mg40 O44 1.986 . S
Mg40 O56 1.942 . S
Mg40 O57 1.955 . S
C41 O52 1.191 . S
C41 O54 1.307 . S
O42 Mg37 2.013 . S
O42 C61 1.191 . S
O43 Mg34 2.081 . S
O43 C51 1.331 . S
O44 Mg40 1.986 . S
O44 C61 1.307 . S
O45 Mg34 2.023 . S
O45 C60 1.264 . S
O46 Mg35 1.942 . S
O46 C51 1.244 . S
O47 Mg35 1.955 . S
O47 C60 1.273 . S
O48 Mg37 2.114 . S
O48 Mg39 2.291 . S
O48 C50 1.312 . S
O49 Mg34 2.031 . S
O49 C50 1.208 . S
C50 O48 1.312 . S
C50 O49 1.208 . S
C51 O43 1.331 . S
C51 O46 1.244 . S
O52 Mg37 2.013 . S
O52 C41 1.191 . S
O53 C32 1.331 . S
O53 Mg39 2.081 . S
O54 Mg35 1.986 . S
O54 C41 1.307 . S
O55 C33 1.264 . S
O55 Mg39 2.023 . S
O56 C32 1.244 . S
O56 Mg40 1.942 . S
O57 C33 1.273 . S
O57 Mg40 1.955 . S
O58 C31 1.312 . S
O58 Mg34 2.291 . S
O58 Mg37 2.114 . S
O59 C31 1.208 . S
O59 Mg39 2.031 . S
C60 O45 1.264 . S
C60 O47 1.273 . S
C61 O42 1.191 . S
C61 O44 1.307 . S
C62 C63 1.363 . S
C62 C68 1.379 . S
C62 N70 1.356 . S
C63 C62 1.363 . S
C63 C69 1.363 . S
C64 C65 1.363 . S
C64 C69 1.379 . S
C64 N71 1.356 . S
C65 C64 1.363 . S
C65 C68 1.363 . S
N66 C68 1.356 . S
N66 H78 0.984 . S
N66 H79 0.985 . S
N67 C69 1.356 . S
N67 H72 0.984 . S
N67 H73 0.985 . S
C68 C62 1.379 . S
C68 C65 1.363 . S
C68 N66 1.356 . S
C69 C63 1.363 . S
C69 C64 1.379 . S
C69 N67 1.356 . S
N70 C62 1.356 . S
N70 H76 0.984 . S
N70 H77 0.984 . S
N71 C64 1.356 . S
N71 H74 0.984 . S
N71 H75 0.985 . S
H72 N67 0.984 . S
H73 N67 0.985 . S
H74 N71 0.984 . S
H75 N71 0.985 . S
H76 N70 0.984 . S
H77 N70 0.984 . S
H78 N66 0.984 . S
H79 N66 0.985 . S
C80 C81 1.363 . S
C80 C86 1.379 . S
C80 N88 1.356 . S
C81 C80 1.363 . S
C81 C87 1.363 . S
C82 C83 1.363 . S
C82 C87 1.379 . S
C82 N89 1.356 . S
C83 C82 1.363 . S
C83 C86 1.363 . S
N84 C86 1.356 . S
N84 H96 0.984 . S
N84 H97 0.985 . S
N85 C87 1.356 . S
N85 H90 0.984 . S
N85 H91 0.985 1_545 S
C86 C80 1.379 . S
C86 C83 1.363 . S
C86 N84 1.356 . S
C87 C81 1.363 . S
C87 C82 1.379 . S
C87 N85 1.356 . S
N88 C80 1.356 . S
N88 H94 0.984 . S
N88 H95 0.984 . S
N89 C82 1.356 . S
N89 H92 0.984 . S
N89 H93 0.985 . S
H90 N85 0.984 . S
H91 N85 0.985 1_565 S
H92 N89 0.984 . S
H93 N89 0.985 . S
H94 N88 0.984 . S
H95 N88 0.984 . S
H96 N84 0.984 . S
H97 N84 0.985 . S
C98 C99 1.363 . S
C98 C104 1.379 . S
C98 N106 1.356 . S
C99 C98 1.363 . S
C99 C105 1.363 . S
C100 C101 1.363 . S
C100 C105 1.379 . S
C100 N107 1.356 . S
C101 C100 1.363 . S
C101 C104 1.363 . S
N102 C104 1.356 . S
N102 H114 0.984 . S
N102 H115 0.985 . S
N103 C105 1.356 . S
N103 H108 0.984 . S
N103 H109 0.985 . S
C104 C98 1.379 . S
C104 C101 1.363 . S
C104 N102 1.356 . S
C105 C99 1.363 . S
C105 C100 1.379 . S
C105 N103 1.356 . S
N106 C98 1.356 . S
N106 H112 0.984 . S
N106 H113 0.984 . S
N107 C100 1.356 . S
N107 H110 0.984 . S
N107 H111 0.985 . S
H108 N103 0.984 . S
H109 N103 0.985 . S
H110 N107 0.984 . S
H111 N107 0.985 . S
H112 N106 0.984 . S
H113 N106 0.984 . S
H114 N102 0.984 . S
H115 N102 0.985 . S
C116 C117 1.363 . S
C116 C122 1.379 . S
C116 N124 1.356 . S
C117 C116 1.363 . S
C117 C123 1.363 . S
C118 C119 1.363 . S
C118 C123 1.379 . S
C118 N125 1.356 . S
C119 C118 1.363 . S
C119 C122 1.363 . S
N120 C122 1.356 . S
N120 H132 0.984 . S
N120 H133 0.985 . S
N121 C123 1.356 . S
N121 H126 0.984 . S
N121 H127 0.985 . S
C122 C116 1.379 . S
C122 C119 1.363 . S
C122 N120 1.356 . S
C123 C117 1.363 . S
C123 C118 1.379 . S
C123 N121 1.356 . S
N124 C116 1.356 . S
N124 H130 0.984 . S
N124 H131 0.984 . S
N125 C118 1.356 . S
N125 H128 0.984 . S
N125 H129 0.985 . S
H126 N121 0.984 . S
H127 N121 0.985 . S
H128 N125 0.984 . S
H129 N125 0.985 . S
H130 N124 0.984 . S
H131 N124 0.984 . S
H132 N120 0.984 . S
H133 N120 0.985 . S
C134 C135 1.363 . S
C134 C140 1.379 . S
C134 N142 1.356 . S
C135 C134 1.363 . S
C135 C141 1.363 . S
C136 C137 1.363 . S
C136 C141 1.379 . S
C136 N143 1.356 . S
C137 C136 1.363 . S
C137 C140 1.363 . S
N138 C140 1.356 . S
N138 H150 0.984 . S
N138 H151 0.985 . S
N139 C141 1.356 . S
N139 H144 0.984 . S
N139 H145 0.985 . S
C140 C134 1.379 . S
C140 C137 1.363 . S
C140 N138 1.356 . S
C141 C135 1.363 . S
C141 C136 1.379 . S
C141 N139 1.356 . S
N142 C134 1.356 . S
N142 H148 0.984 . S
N142 H149 0.984 . S
N143 C136 1.356 . S
N143 H146 0.984 . S
N143 H147 0.985 . S
H144 N139 0.984 . S
H145 N139 0.985 . S
H146 N143 0.984 . S
H147 N143 0.985 . S
H148 N142 0.984 . S
H149 N142 0.984 . S
H150 N138 0.984 . S
H151 N138 0.985 . S
C152 C153 1.363 . S
C152 C158 1.379 . S
C152 N160 1.356 . S
C153 C152 1.363 . S
C153 C159 1.363 . S
C154 C155 1.363 . S
C154 C159 1.379 . S
C154 N161 1.356 . S
C155 C154 1.363 . S
C155 C158 1.363 . S
N156 C158 1.356 . S
N156 H168 0.984 . S
N156 H169 0.985 . S
N157 C159 1.356 . S
N157 H162 0.984 . S
N157 H163 0.985 . S
C158 C152 1.379 . S
C158 C155 1.363 . S
C158 N156 1.356 . S
C159 C153 1.363 . S
C159 C154 1.379 . S
C159 N157 1.356 . S
N160 C152 1.356 . S
N160 H166 0.984 . S
N160 H167 0.984 . S
N161 C154 1.356 . S
N161 H164 0.984 . S
N161 H165 0.985 . S
H162 N157 0.984 . S
H163 N157 0.985 . S
H164 N161 0.984 . S
H165 N161 0.985 . S
H166 N160 0.984 . S
H167 N160 0.984 . S
H168 N156 0.984 . S
H169 N156 0.985 . S
C170 C171 1.363 . S
C170 C176 1.379 . S
C170 N178 1.356 . S
C171 C170 1.363 . S
C171 C177 1.363 . S
C172 C173 1.363 . S
C172 C177 1.379 . S
C172 N179 1.356 . S
C173 C172 1.363 . S
C173 C176 1.363 . S
N174 C176 1.356 . S
N174 H186 0.984 . S
N174 H187 0.985 . S
N175 C177 1.356 . S
N175 H180 0.984 . S
N175 H181 0.985 . S
C176 C170 1.379 . S
C176 C173 1.363 . S
C176 N174 1.356 . S
C177 C171 1.363 . S
C177 C172 1.379 . S
C177 N175 1.356 . S
N178 C170 1.356 . S
N178 H184 0.984 . S
N178 H185 0.984 . S
N179 C172 1.356 . S
N179 H182 0.984 . S
N179 H183 0.985 . S
H180 N175 0.984 . S
H181 N175 0.985 . S
H182 N179 0.984 . S
H183 N179 0.985 . S
H184 N178 0.984 . S
H185 N178 0.984 . S
H186 N174 0.984 . S
H187 N174 0.985 . S
C188 C189 1.363 . S
C188 C194 1.379 . S
C188 N196 1.356 . S
C189 C188 1.363 . S
C189 C195 1.363 . S
C190 C191 1.363 . S
C190 C195 1.379 . S
C190 N197 1.356 . S
C191 C190 1.363 . S
C191 C194 1.363 . S
N192 C194 1.356 . S
N192 H204 0.984 . S
N192 H205 0.985 . S
N193 C195 1.356 . S
N193 H198 0.984 . S
N193 H199 0.985 . S
C194 C188 1.379 . S
C194 C191 1.363 . S
C194 N192 1.356 . S
C195 C189 1.363 . S
C195 C190 1.379 . S
C195 N193 1.356 . S
N196 C188 1.356 . S
N196 H202 0.984 . S
N196 H203 0.984 . S
N197 C190 1.356 . S
N197 H200 0.984 . S
N197 H201 0.985 . S
H198 N193 0.984 . S
H199 N193 0.985 . S
H200 N197 0.984 . S
H201 N197 0.985 . S
H202 N196 0.984 . S
H203 N196 0.984 . S
H204 N192 0.984 . S
H205 N192 0.985 . S
C63 C10 1.197 . S
C65 C41 1.208 . S
C81 C0 1.539 . S
C83 C33 1.558 . S
C99 C18 1.493 . S
C101 C50 1.487 . S
C117 C27 1.569 . S
C119 C51 1.569 . S
C135 C24 1.545 . S
C137 C60 1.570 . S
C155 C61 1.469 . S
C153 C11 1.444 . S
C171 C1 1.546 . S
C173 C32 1.552 . S
C191 C31 1.236 . S
C189 C2 1.248 . S
