# Generated by pormake.
# Topology rtl, (3,6)-cn, num edge types: 1
# Building blocks:
#     Node 0, Type 0, BuildingBlock: OLANEW_clean_sbu_2, # of connection points: 3
#     Node 1, Type 0, BuildingBlock: OLANEW_clean_sbu_2, # of connection points: 3
#     Node 2, Type 0, BuildingBlock: OLANEW_clean_sbu_2, # of connection points: 3
#     Node 3, Type 0, BuildingBlock: OLANEW_clean_sbu_2, # of connection points: 3
#     Node 4, Type 1, BuildingBlock: CIFDUS_clean_sbu_1, # of connection points: 6
#     Node 5, Type 1, BuildingBlock: CIFDUS_clean_sbu_1, # of connection points: 6
#     Edge 6, Type (0, 1), BuildingBlock: AJUNOK_clean_linker_0, # of connection points: 2
#     Edge 7, Type (0, 1), BuildingBlock: AJUNOK_clean_linker_0, # of connection points: 2
#     Edge 8, Type (0, 1), BuildingBlock: AJUNOK_clean_linker_0, # of connection points: 2
#     Edge 9, Type (0, 1), BuildingBlock: AJUNOK_clean_linker_0, # of connection points: 2
#     Edge 10, Type (0, 1), BuildingBlock: AJUNOK_clean_linker_0, # of connection points: 2
#     Edge 11, Type (0, 1), BuildingBlock: AJUNOK_clean_linker_0, # of connection points: 2
#     Edge 12, Type (0, 1), BuildingBlock: AJUNOK_clean_linker_0, # of connection points: 2
#     Edge 13, Type (0, 1), BuildingBlock: AJUNOK_clean_linker_0, # of connection points: 2
#     Edge 14, Type (0, 1), BuildingBlock: AJUNOK_clean_linker_0, # of connection points: 2
#     Edge 15, Type (0, 1), BuildingBlock: AJUNOK_clean_linker_0, # of connection points: 2
#     Edge 16, Type (0, 1), BuildingBlock: AJUNOK_clean_linker_0, # of connection points: 2
#     Edge 17, Type (0, 1), BuildingBlock: AJUNOK_clean_linker_0, # of connection points: 2
# Relax obj value: 0.017
# Max RMSD: 0.116
# Mean RMSD: 0.072
data_MOF--net-rtl--node1-OLANEW_clean_sbu_2--node2-CIFDUS_clean_sbu_1--edge1-AJUNOK_clean_linker_0
_symmetry_space_group_name_H-M    P1
_symmetry_Int_Tables_number       1
_symmetry_cell_setting            triclinic
loop_
_symmetry_equiv_pos_as_xyz
'x, y, z'
_cell_length_a     28.02085
_cell_length_b     28.416407
_cell_length_c     17.839639
_cell_angle_alpha  86.561851
_cell_angle_beta   101.9737
_cell_angle_gamma 90.522801
loop_
_atom_site_label
_atom_site_type_symbol
_atom_site_fract_x
_atom_site_fract_y
_atom_site_fract_z
_atom_type_partial_charge
O0 O 0.18256 0.81677 0.98201 0.0
Cd1 Cd 0.22699 0.77132 0.09788 0.0
O2 O 0.17604 0.87537 0.05454 0.0
Cd3 Cd 0.211 0.84727 0.169 0.0
O4 O 0.19272 0.86199 0.27848 0.0
C5 C 0.19644 0.90404 0.29986 0.0
O6 O 0.21688 0.93577 0.26011 0.0
C7 C 0.16741 0.85806 0.98895 0.0
C8 C 0.30448 0.71503 0.07688 0.0
O9 O 0.2611 0.69859 0.06951 0.0
O10 O 0.31103 0.7582 0.09347 0.0
O11 O 0.74173 0.67995 0.76069 0.0
Cd12 Cd 0.78162 0.72033 0.6639 0.0
O13 O 0.70003 0.63731 0.67004 0.0
Cd14 Cd 0.71798 0.66807 0.5638 0.0
O15 O 0.69568 0.65524 0.44129 0.0
C16 C 0.653 0.66611 0.40381 0.0
O17 O 0.62424 0.68982 0.43755 0.0
C18 C 0.71165 0.64684 0.74032 0.0
C19 C 0.83671 0.80354 0.68958 0.0
O20 O 0.79014 0.80469 0.66707 0.0
O21 O 0.85699 0.76286 0.70518 0.0
O22 O 0.82065 0.20477 0.15213 0.0
Cd23 Cd 0.78546 0.23519 0.01839 0.0
O24 O 0.89505 0.20694 0.13091 0.0
Cd25 Cd 0.86951 0.22397 0.00871 0.0
O26 O 0.86624 0.20464 0.89166 0.0
C27 C 0.85203 0.16374 0.87163 0.0
O28 O 0.8342 0.13562 0.92012 0.0
C29 C 0.86638 0.1984 0.17661 0.0
C30 C 0.70873 0.30094 0.99445 0.0
O31 O 0.70062 0.25646 0.99516 0.0
O32 O 0.75334 0.3144 0.00669 0.0
O33 O 0.34478 0.33006 0.60298 0.0
Cd34 Cd 0.30811 0.29065 0.48369 0.0
O35 O 0.31072 0.39807 0.55637 0.0
Cd36 Cd 0.2849 0.37899 0.43795 0.0
O37 O 0.30065 0.39431 0.32383 0.0
C38 C 0.30304 0.43724 0.30005 0.0
O39 O 0.29117 0.47011 0.34167 0.0
C40 C 0.33669 0.37328 0.61146 0.0
C41 C 0.23599 0.22214 0.4946 0.0
O42 O 0.28145 0.21135 0.50928 0.0
O43 O 0.22458 0.26548 0.47591 0.0
O44 O 0.9836 0.07283 0.48711 0.0
Mn45 Mn 0.01599 0.0275 0.58192 0.0
O46 O 0.93063 0.02897 0.40808 0.0
Mn47 Mn 0.95533 0.97172 0.45322 0.0
O48 O 0.04814 0.98317 0.67745 0.0
O49 O 0.06853 0.07734 0.61124 0.0
Mn50 Mn 0.06814 0.0879 0.70779 0.0
O51 O 0.96799 0.05673 0.64307 0.0
O52 O 0.08412 0.03225 0.76646 0.0
O53 O 0.06199 0.99758 0.51887 0.0
O54 O 0.01441 0.95224 0.4345 0.0
O55 O 0.11596 0.12609 0.68467 0.0
O56 O 0.00881 0.1141 0.70913 0.0
C57 C 0.93257 0.9442 0.5536 0.0
C58 C 0.94861 0.06862 0.4284 0.0
C59 C 0.07303 0.99093 0.74472 0.0
C60 C 0.10332 0.10854 0.61812 0.0
C61 C 0.96936 0.09309 0.68275 0.0
C62 C 0.05609 0.96781 0.46621 0.0
O63 O 0.96492 0.9771 0.55327 0.0
O64 O 0.91422 0.92874 0.48701 0.0
O65 O 0.54028 0.5588 0.09344 0.0
Mn66 Mn 0.50512 0.51953 1.0017 0.0
O67 O 0.57323 0.50657 0.18947 0.0
Mn68 Mn 0.54166 0.45475 0.14487 0.0
O69 O 0.46883 0.48078 0.90911 0.0
O70 O 0.467 0.57814 0.95688 0.0
Mn71 Mn 0.46852 0.58676 0.85885 0.0
O72 O 0.56243 0.53844 0.94554 0.0
O73 O 0.43752 0.5346 0.81397 0.0
O74 O 0.4482 0.50193 0.05904 0.0
O75 O 0.47753 0.44637 0.15174 0.0
O76 O 0.43204 0.6359 0.87994 0.0
O77 O 0.53321 0.59543 0.85473 0.0
C78 C 0.57031 0.42221 0.06082 0.0
C79 C 0.56681 0.54857 0.1603 0.0
C80 C 0.4423 0.49219 0.84237 0.0
C81 C 0.44001 0.61554 0.9482 0.0
C82 C 0.56809 0.57048 0.89393 0.0
C83 C 0.44274 0.47148 0.11294 0.0
O84 O 0.5438 0.46033 0.04644 0.0
O85 O 0.57749 0.40428 0.13071 0.0
C86 C 0.21314 0.14257 0.54449 0.0
C87 C 0.19843 0.18632 0.50553 0.0
C88 C 0.17947 0.11241 0.57092 0.0
C89 C 0.1298 0.12439 0.55832 0.0
H90 H 0.25143 0.13313 0.56025 0.0
H91 H 0.19318 0.08178 0.60804 0.0
S92 S 0.07062 0.22943 0.44562 0.0
N93 N 0.12916 0.23614 0.44482 0.0
N94 N 0.0663 0.17909 0.49507 0.0
C95 C 0.11375 0.16509 0.51199 0.0
C96 C 0.14799 0.1962 0.48551 0.0
C97 C 0.33587 0.6389 0.04089 0.0
C98 C 0.34487 0.68581 0.06153 0.0
C99 C 0.37043 0.61313 0.01322 0.0
C100 C 0.41522 0.63322 0.00569 0.0
H101 H 0.30084 0.62274 0.04192 0.0
H102 H 0.36039 0.57876 0.99177 0.0
S103 S 0.45966 0.75201 0.0599 0.0
N104 N 0.4047 0.74911 0.07992 0.0
N105 N 0.46875 0.70066 0.02637 0.0
C106 C 0.42625 0.67847 0.03135 0.0
C107 C 0.39134 0.70475 0.05987 0.0
C108 C 0.84212 0.88969 0.65384 0.0
C109 C 0.86615 0.84723 0.68408 0.0
C110 C 0.86694 0.92659 0.62269 0.0
C111 C 0.9167 0.92265 0.62138 0.0
H112 H 0.80293 0.89278 0.64688 0.0
H113 H 0.84577 0.95591 0.59131 0.0
S114 S 0.99938 0.8252 0.71228 0.0
N115 N 0.94508 0.80811 0.72567 0.0
N116 N 0.99116 0.87766 0.66633 0.0
C117 C 0.94257 0.88376 0.66156 0.0
C118 C 0.91739 0.8459 0.69314 0.0
C119 C 0.67861 0.38396 0.99453 0.0
C120 C 0.66816 0.33567 0.98619 0.0
C121 C 0.64272 0.41572 0.00493 0.0
C122 C 0.59528 0.40027 0.00724 0.0
H123 H 0.7156 0.39671 0.9993 0.0
H124 H 0.65369 0.45115 0.02023 0.0
S125 S 0.54619 0.28047 0.97181 0.0
N126 N 0.60422 0.27624 0.96713 0.0
N127 N 0.53761 0.33595 0.98857 0.0
C128 C 0.58292 0.35373 0.98958 0.0
C129 C 0.61921 0.32133 0.97879 0.0
C130 C 0.13336 0.88803 0.37836 0.0
C131 C 0.16827 0.9189 0.35645 0.0
C132 C 0.09895 0.90375 0.4179 0.0
C133 C 0.09854 0.9507 0.43847 0.0
H134 H 0.13054 0.85206 0.36097 0.0
H135 H 0.07116 0.87932 0.42984 0.0
S136 S 0.18627 0.04403 0.40538 0.0
N137 N 0.2035 0.99762 0.36598 0.0
N138 N 0.13884 0.02675 0.44149 0.0
C139 C 0.13555 0.981 0.42287 0.0
C140 C 0.1704 0.96519 0.38152 0.0
C141 C 0.6629 0.57783 0.7749 0.0
C142 C 0.68595 0.62098 0.79529 0.0
C143 C 0.62858 0.55776 0.8143 0.0
C144 C 0.61629 0.57989 0.87586 0.0
H145 H 0.66893 0.56093 0.7248 0.0
H146 H 0.60854 0.527 0.79227 0.0
S147 S 0.6706 0.68914 0.9597 0.0
N148 N 0.69793 0.68192 0.88751 0.0
N149 N 0.63294 0.64416 0.9609 0.0
C150 C 0.64205 0.62052 0.90136 0.0
C151 C 0.6772 0.64101 0.86142 0.0
C152 C 0.93731 0.17124 0.28092 0.0
C153 C 0.88627 0.17447 0.25338 0.0
C154 C 0.9578 0.13989 0.3431 0.0
C155 C 0.92795 0.11041 0.37942 0.0
H156 H 0.96184 0.19107 0.25148 0.0
H157 H 0.99712 0.13618 0.35882 0.0
S158 S 0.79271 0.11026 0.33921 0.0
N159 N 0.80667 0.14957 0.27526 0.0
N160 N 0.84528 0.09033 0.3907 0.0
C161 C 0.8771 0.11606 0.35699 0.0
C162 C 0.85619 0.14826 0.29448 0.0
C163 C 0.3415 0.44058 0.69601 0.0
C164 C 0.36064 0.39722 0.68163 0.0
C165 C 0.36729 0.46935 0.75133 0.0
C166 C 0.41345 0.45622 0.79531 0.0
H167 H 0.30702 0.45352 0.66193 0.0
H168 H 0.35153 0.50319 0.75774 0.0
S169 S 0.4783 0.34435 0.78607 0.0
N170 N 0.42738 0.34079 0.72054 0.0
N171 N 0.47579 0.39526 0.8253 0.0
C172 C 0.4318 0.41159 0.78572 0.0
C173 C 0.4054 0.38203 0.72871 0.0
C174 C 0.66038 0.60862 0.30601 0.0
C175 C 0.63306 0.64394 0.33026 0.0
C176 C 0.63935 0.58 0.24684 0.0
C177 C 0.59054 0.58614 0.2083 0.0
H178 H 0.69747 0.60091 0.33593 0.0
H179 H 0.66083 0.55132 0.2335 0.0
S180 S 0.50477 0.67706 0.24174 0.0
N181 N 0.5555 0.68628 0.30515 0.0
N182 N 0.51655 0.6325 0.19298 0.0
C183 C 0.56387 0.62358 0.22717 0.0
C184 C 0.58501 0.6525 0.28839 0.0
C185 C 0.89034 0.17551 0.75799 0.0
C186 C 0.86756 0.14486 0.80459 0.0
C187 C 0.91921 0.15801 0.71083 0.0
C188 C 0.92572 0.10929 0.70754 0.0
H189 H 0.88944 0.21331 0.76274 0.0
H190 H 0.93983 0.18279 0.68161 0.0
S191 S 0.86425 0.01414 0.80211 0.0
N192 N 0.84592 0.06327 0.83271 0.0
N193 N 0.90034 0.03067 0.74304 0.0
C194 C 0.89799 0.07829 0.74523 0.0
C195 C 0.86873 0.09606 0.79409 0.0
C196 C 0.34305 0.4135 0.19508 0.0
C197 C 0.32823 0.4497 0.23589 0.0
C198 C 0.37666 0.42208 0.14775 0.0
C199 C 0.39615 0.46725 0.13844 0.0
H200 H 0.33127 0.37753 0.20373 0.0
H201 H 0.39018 0.39246 0.12259 0.0
S202 S 0.36536 0.57545 0.22418 0.0
N203 N 0.33199 0.53386 0.25662 0.0
N204 N 0.39573 0.5493 0.16821 0.0
C205 C 0.37861 0.50458 0.1731 0.0
C206 C 0.34439 0.49597 0.22164 0.0
C207 C 0.11441 0.92744 0.93829 0.0
C208 C 0.13871 0.88711 0.92276 0.0
C209 C 0.09081 0.95887 0.87954 0.0
C210 C 0.09002 0.95161 0.80213 0.0
H211 H 0.11452 0.93575 0.9968 0.0
H212 H 0.07426 0.99016 0.89523 0.0
S213 S 0.14366 0.84959 0.72862 0.0
N214 N 0.15717 0.83973 0.82294 0.0
N215 N 0.11249 0.89956 0.71188 0.0
C216 C 0.11145 0.91017 0.78473 0.0
C217 C 0.13589 0.87779 0.84515 0.0
loop_
_geom_bond_atom_site_label_1
_geom_bond_atom_site_label_2
_geom_bond_distance
_geom_bond_site_symmetry_2
_ccdc_geom_bond_type
O0 Cd1 2.300 1_556 S
O0 C7 1.275 . S
Cd1 O0 2.300 1_554 S
Cd1 O9 2.381 . S
Cd1 O10 2.378 . S
O2 Cd3 2.385 . S
O2 C7 1.255 1_554 S
Cd3 O2 2.385 . S
Cd3 O4 2.317 . S
O4 Cd3 2.317 . S
O4 C5 1.232 . S
C5 O4 1.232 . S
C5 O6 1.218 . S
O6 C5 1.218 . S
C7 O0 1.275 . S
C7 O2 1.255 1_556 S
C8 O9 1.258 . S
C8 O10 1.256 . S
O9 Cd1 2.381 . S
O9 C8 1.258 . S
O10 Cd1 2.378 . S
O10 C8 1.256 . S
O11 Cd12 2.300 . S
O11 C18 1.275 . S
Cd12 O11 2.300 . S
Cd12 O20 2.381 . S
Cd12 O21 2.378 . S
O13 Cd14 2.385 . S
O13 C18 1.255 . S
Cd14 O13 2.385 . S
Cd14 O15 2.317 . S
O15 Cd14 2.317 . S
O15 C16 1.232 . S
C16 O15 1.232 . S
C16 O17 1.218 . S
O17 C16 1.218 . S
C18 O11 1.275 . S
C18 O13 1.255 . S
C19 O20 1.258 . S
C19 O21 1.256 . S
O20 Cd12 2.381 . S
O20 C19 1.258 . S
O21 Cd12 2.378 . S
O21 C19 1.256 . S
O22 Cd23 2.300 . S
O22 C29 1.275 . S
Cd23 O22 2.300 . S
Cd23 O31 2.381 . S
Cd23 O32 2.378 1_554 S
O24 Cd25 2.385 . S
O24 C29 1.255 . S
Cd25 O24 2.385 . S
Cd25 O26 2.317 1_554 S
O26 Cd25 2.317 1_556 S
O26 C27 1.232 . S
C27 O26 1.232 . S
C27 O28 1.218 . S
O28 C27 1.218 . S
C29 O22 1.275 . S
C29 O24 1.255 . S
C30 O31 1.258 . S
C30 O32 1.256 1_554 S
O31 Cd23 2.381 . S
O31 C30 1.258 . S
O32 Cd23 2.378 1_556 S
O32 C30 1.256 1_556 S
O33 Cd34 2.300 . S
O33 C40 1.275 . S
Cd34 O33 2.300 . S
Cd34 O42 2.381 . S
Cd34 O43 2.378 . S
O35 Cd36 2.385 . S
O35 C40 1.255 . S
Cd36 O35 2.385 . S
Cd36 O37 2.317 . S
O37 Cd36 2.317 . S
O37 C38 1.232 . S
C38 O37 1.232 . S
C38 O39 1.218 . S
O39 C38 1.218 . S
C40 O33 1.275 . S
C40 O35 1.255 . S
C41 O42 1.258 . S
C41 O43 1.256 . S
O42 Cd34 2.381 . S
O42 C41 1.258 . S
O43 Cd34 2.378 . S
O43 C41 1.256 . S
O44 Mn45 2.163 1_655 S
O44 C58 1.244 . S
Mn45 O44 2.163 1_455 S
Mn45 O48 2.160 1_545 S
Mn45 O49 2.221 . S
Mn45 O51 2.163 1_455 S
Mn45 O53 2.160 1_545 S
Mn45 O63 2.221 1_445 S
O46 Mn47 2.087 1_545 S
O46 C58 1.256 . S
Mn47 O46 2.087 1_565 S
Mn47 O54 2.089 1_655 S
Mn47 O63 2.290 . S
Mn47 O64 2.251 . S
O48 Mn45 2.160 1_565 S
O48 C59 1.239 . S
O49 Mn45 2.221 . S
O49 Mn50 2.290 . S
O49 C60 1.278 . S
Mn50 O49 2.290 . S
Mn50 O52 2.089 . S
Mn50 O55 2.251 . S
Mn50 O56 2.087 . S
O51 Mn45 2.163 1_655 S
O51 C61 1.244 . S
O52 Mn50 2.089 . S
O52 C59 1.256 1_545 S
O53 Mn45 2.160 1_565 S
O53 C62 1.239 . S
O54 Mn47 2.089 1_455 S
O54 C62 1.256 . S
O55 Mn50 2.251 . S
O55 C60 1.241 . S
O56 Mn50 2.087 . S
O56 C61 1.256 1_455 S
C57 O63 1.278 . S
C57 O64 1.241 . S
C58 O44 1.244 . S
C58 O46 1.256 . S
C59 O48 1.239 . S
C59 O52 1.256 1_565 S
C60 O49 1.278 . S
C60 O55 1.241 . S
C61 O51 1.244 . S
C61 O56 1.256 1_655 S
C62 O53 1.239 . S
C62 O54 1.256 . S
O63 Mn45 2.221 1_665 S
O63 Mn47 2.290 . S
O63 C57 1.278 . S
O64 Mn47 2.251 . S
O64 C57 1.241 . S
O65 Mn66 2.163 . S
O65 C79 1.244 . S
Mn66 O65 2.163 . S
Mn66 O69 2.160 1_554 S
Mn66 O70 2.221 1_554 S
Mn66 O72 2.163 1_554 S
Mn66 O74 2.160 . S
Mn66 O84 2.221 . S
O67 Mn68 2.087 . S
O67 C79 1.256 . S
Mn68 O67 2.087 . S
Mn68 O75 2.089 . S
Mn68 O84 2.290 . S
Mn68 O85 2.251 . S
O69 Mn66 2.160 1_556 S
O69 C80 1.239 . S
O70 Mn66 2.221 1_556 S
O70 Mn71 2.290 . S
O70 C81 1.278 . S
Mn71 O70 2.290 . S
Mn71 O73 2.089 . S
Mn71 O76 2.251 . S
Mn71 O77 2.087 . S
O72 Mn66 2.163 1_556 S
O72 C82 1.244 . S
O73 Mn71 2.089 . S
O73 C80 1.256 . S
O74 Mn66 2.160 . S
O74 C83 1.239 . S
O75 Mn68 2.089 . S
O75 C83 1.256 . S
O76 Mn71 2.251 . S
O76 C81 1.241 . S
O77 Mn71 2.087 . S
O77 C82 1.256 . S
C78 O84 1.278 . S
C78 O85 1.241 . S
C79 O65 1.244 . S
C79 O67 1.256 . S
C80 O69 1.239 . S
C80 O73 1.256 . S
C81 O70 1.278 . S
C81 O76 1.241 . S
C82 O72 1.244 . S
C82 O77 1.256 . S
C83 O74 1.239 . S
C83 O75 1.256 . S
O84 Mn66 2.221 . S
O84 Mn68 2.290 . S
O84 C78 1.278 . S
O85 Mn68 2.251 . S
O85 C78 1.241 . S
C86 C87 1.369 . S
C86 C88 1.419 . S
C86 H90 0.930 . S
C87 C86 1.369 . S
C87 C96 1.429 . S
C88 C86 1.419 . S
C88 C89 1.363 . S
C88 H91 0.929 . S
C89 C88 1.363 . S
C89 C95 1.428 . S
H90 C86 0.930 . S
H91 C88 0.929 . S
S92 N93 1.613 . S
S92 N94 1.610 . S
N93 S92 1.613 . S
N93 C96 1.350 . S
N94 S92 1.610 . S
N94 C95 1.351 . S
C95 C89 1.428 . S
C95 N94 1.351 . S
C95 C96 1.434 . S
C96 C87 1.429 . S
C96 N93 1.350 . S
C96 C95 1.434 . S
C97 C98 1.369 . S
C97 C99 1.419 . S
C97 H101 0.930 . S
C98 C97 1.369 . S
C98 C107 1.429 . S
C99 C97 1.419 . S
C99 C100 1.363 . S
C99 H102 0.929 . S
C100 C99 1.363 . S
C100 C106 1.428 . S
H101 C97 0.930 . S
H102 C99 0.929 . S
S103 N104 1.613 1_556 S
S103 N105 1.610 1_556 S
N104 S103 1.613 1_554 S
N104 C107 1.350 . S
N105 S103 1.610 1_554 S
N105 C106 1.351 . S
C106 C100 1.428 . S
C106 N105 1.351 . S
C106 C107 1.434 . S
C107 C98 1.429 . S
C107 N104 1.350 . S
C107 C106 1.434 . S
C108 C109 1.369 . S
C108 C110 1.419 . S
C108 H112 0.930 . S
C109 C108 1.369 . S
C109 C118 1.429 . S
C110 C108 1.419 . S
C110 C111 1.363 . S
C110 H113 0.929 . S
C111 C110 1.363 . S
C111 C117 1.428 . S
H112 C108 0.930 . S
H113 C110 0.929 . S
S114 N115 1.613 . S
S114 N116 1.610 . S
N115 S114 1.613 . S
N115 C118 1.350 . S
N116 S114 1.610 . S
N116 C117 1.351 . S
C117 C111 1.428 . S
C117 N116 1.351 . S
C117 C118 1.434 . S
C118 C109 1.429 . S
C118 N115 1.350 . S
C118 C117 1.434 . S
C119 C120 1.369 1_556 S
C119 C121 1.419 . S
C119 H123 0.930 . S
C120 C119 1.369 1_554 S
C120 C129 1.429 . S
C121 C119 1.419 . S
C121 C122 1.363 1_556 S
C121 H124 0.929 . S
C122 C121 1.363 1_554 S
C122 C128 1.428 . S
H123 C119 0.930 . S
H124 C121 0.929 . S
S125 N126 1.613 . S
S125 N127 1.610 . S
N126 S125 1.613 . S
N126 C129 1.350 . S
N127 S125 1.610 . S
N127 C128 1.351 . S
C128 C122 1.428 . S
C128 N127 1.351 . S
C128 C129 1.434 . S
C129 C120 1.429 . S
C129 N126 1.350 . S
C129 C128 1.434 . S
C130 C131 1.369 . S
C130 C132 1.419 . S
C130 H134 0.930 . S
C131 C130 1.369 . S
C131 C140 1.429 . S
C132 C130 1.419 . S
C132 C133 1.363 . S
C132 H135 0.929 . S
C133 C132 1.363 . S
C133 C139 1.428 . S
H134 C130 0.930 . S
H135 C132 0.929 . S
S136 N137 1.613 . S
S136 N138 1.610 . S
N137 S136 1.613 . S
N137 C140 1.350 1_545 S
N138 S136 1.610 . S
N138 C139 1.351 1_545 S
C139 C133 1.428 . S
C139 N138 1.351 1_565 S
C139 C140 1.434 . S
C140 C131 1.429 . S
C140 N137 1.350 1_565 S
C140 C139 1.434 . S
C141 C142 1.369 . S
C141 C143 1.419 . S
C141 H145 0.930 . S
C142 C141 1.369 . S
C142 C151 1.429 . S
C143 C141 1.419 . S
C143 C144 1.363 . S
C143 H146 0.929 . S
C144 C143 1.363 . S
C144 C150 1.428 . S
H145 C141 0.930 . S
H146 C143 0.929 . S
S147 N148 1.613 . S
S147 N149 1.610 . S
N148 S147 1.613 . S
N148 C151 1.350 . S
N149 S147 1.610 . S
N149 C150 1.351 . S
C150 C144 1.428 . S
C150 N149 1.351 . S
C150 C151 1.434 . S
C151 C142 1.429 . S
C151 N148 1.350 . S
C151 C150 1.434 . S
C152 C153 1.369 . S
C152 C154 1.419 . S
C152 H156 0.930 . S
C153 C152 1.369 . S
C153 C162 1.429 . S
C154 C152 1.419 . S
C154 C155 1.363 . S
C154 H157 0.929 . S
C155 C154 1.363 . S
C155 C161 1.428 . S
H156 C152 0.930 . S
H157 C154 0.929 . S
S158 N159 1.613 . S
S158 N160 1.610 . S
N159 S158 1.613 . S
N159 C162 1.350 . S
N160 S158 1.610 . S
N160 C161 1.351 . S
C161 C155 1.428 . S
C161 N160 1.351 . S
C161 C162 1.434 . S
C162 C153 1.429 . S
C162 N159 1.350 . S
C162 C161 1.434 . S
C163 C164 1.369 . S
C163 C165 1.419 . S
C163 H167 0.930 . S
C164 C163 1.369 . S
C164 C173 1.429 . S
C165 C163 1.419 . S
C165 C166 1.363 . S
C165 H168 0.929 . S
C166 C165 1.363 . S
C166 C172 1.428 . S
H167 C163 0.930 . S
H168 C165 0.929 . S
S169 N170 1.613 . S
S169 N171 1.610 . S
N170 S169 1.613 . S
N170 C173 1.350 . S
N171 S169 1.610 . S
N171 C172 1.351 . S
C172 C166 1.428 . S
C172 N171 1.351 . S
C172 C173 1.434 . S
C173 C164 1.429 . S
C173 N170 1.350 . S
C173 C172 1.434 . S
C174 C175 1.369 . S
C174 C176 1.419 . S
C174 H178 0.930 . S
C175 C174 1.369 . S
C175 C184 1.429 . S
C176 C174 1.419 . S
C176 C177 1.363 . S
C176 H179 0.929 . S
C177 C176 1.363 . S
C177 C183 1.428 . S
H178 C174 0.930 . S
H179 C176 0.929 . S
S180 N181 1.613 . S
S180 N182 1.610 . S
N181 S180 1.613 . S
N181 C184 1.350 . S
N182 S180 1.610 . S
N182 C183 1.351 . S
C183 C177 1.428 . S
C183 N182 1.351 . S
C183 C184 1.434 . S
C184 C175 1.429 . S
C184 N181 1.350 . S
C184 C183 1.434 . S
C185 C186 1.369 . S
C185 C187 1.419 . S
C185 H189 0.930 . S
C186 C185 1.369 . S
C186 C195 1.429 . S
C187 C185 1.419 . S
C187 C188 1.363 . S
C187 H190 0.929 . S
C188 C187 1.363 . S
C188 C194 1.428 . S
H189 C185 0.930 . S
H190 C187 0.929 . S
S191 N192 1.613 1_565 S
S191 N193 1.610 1_565 S
N192 S191 1.613 1_545 S
N192 C195 1.350 . S
N193 S191 1.610 1_545 S
N193 C194 1.351 . S
C194 C188 1.428 . S
C194 N193 1.351 . S
C194 C195 1.434 . S
C195 C186 1.429 . S
C195 N192 1.350 . S
C195 C194 1.434 . S
C196 C197 1.369 . S
C196 C198 1.419 . S
C196 H200 0.930 . S
C197 C196 1.369 . S
C197 C206 1.429 . S
C198 C196 1.419 . S
C198 C199 1.363 . S
C198 H201 0.929 . S
C199 C198 1.363 . S
C199 C205 1.428 . S
H200 C196 0.930 . S
H201 C198 0.929 . S
S202 N203 1.613 . S
S202 N204 1.610 . S
N203 S202 1.613 . S
N203 C206 1.350 . S
N204 S202 1.610 . S
N204 C205 1.351 . S
C205 C199 1.428 . S
C205 N204 1.351 . S
C205 C206 1.434 . S
C206 C197 1.429 . S
C206 N203 1.350 . S
C206 C205 1.434 . S
C207 C208 1.369 . S
C207 C209 1.419 . S
C207 H211 0.930 . S
C208 C207 1.369 . S
C208 C217 1.429 . S
C209 C207 1.419 . S
C209 C210 1.363 . S
C209 H212 0.929 . S
C210 C209 1.363 . S
C210 C216 1.428 . S
H211 C207 0.930 . S
H212 C209 0.929 . S
S213 N214 1.613 . S
S213 N215 1.610 . S
N214 S213 1.613 . S
N214 C217 1.350 . S
N215 S213 1.610 . S
N215 C216 1.351 . S
C216 C210 1.428 . S
C216 N215 1.351 . S
C216 C217 1.434 . S
C217 C208 1.429 . S
C217 N214 1.350 . S
C217 C216 1.434 . S
C89 C60 1.256 . S
C87 C41 1.449 . S
C98 C8 1.454 . S
C100 C81 1.315 1_554 S
C109 C19 1.635 . S
C111 C57 1.474 . S
C120 C30 1.566 . S
C122 C78 1.326 . S
C133 C62 1.513 . S
C131 C5 1.384 . S
C144 C82 1.626 . S
C142 C18 1.654 . S
C153 C29 1.552 . S
C155 C58 1.547 . S
C164 C40 1.573 . S
C166 C80 1.544 . S
C177 C79 1.416 . S
C175 C16 1.304 . S
C188 C61 1.430 . S
C186 C27 1.293 . S
C199 C83 1.361 . S
C197 C38 1.272 . S
C208 C7 1.401 . S
C210 C59 1.368 . S
