# Generated by pormake.
# Topology hwx, (6,3)-cn, num edge types: 1
# Building blocks:
#     Node 0, Type 0, BuildingBlock: OJICUG_clean_sbu_0, # of connection points: 6
#     Node 1, Type 0, BuildingBlock: OJICUG_clean_sbu_0, # of connection points: 6
#     Node 2, Type 0, BuildingBlock: OJICUG_clean_sbu_0, # of connection points: 6
#     Node 3, Type 0, BuildingBlock: OJICUG_clean_sbu_0, # of connection points: 6
#     Node 4, Type 1, BuildingBlock: OLANEW_clean_sbu_2, # of connection points: 3
#     Node 5, Type 1, BuildingBlock: OLANEW_clean_sbu_2, # of connection points: 3
#     Node 6, Type 1, BuildingBlock: OLANEW_clean_sbu_2, # of connection points: 3
#     Node 7, Type 1, BuildingBlock: OLANEW_clean_sbu_2, # of connection points: 3
#     Node 8, Type 1, BuildingBlock: OLANEW_clean_sbu_2, # of connection points: 3
#     Node 9, Type 1, BuildingBlock: OLANEW_clean_sbu_2, # of connection points: 3
#     Node 10, Type 1, BuildingBlock: OLANEW_clean_sbu_2, # of connection points: 3
#     Node 11, Type 1, BuildingBlock: OLANEW_clean_sbu_2, # of connection points: 3
#     Edge 12, Type (0, 1), None
#     Edge 13, Type (0, 1), None
#     Edge 14, Type (0, 1), None
#     Edge 15, Type (0, 1), None
#     Edge 16, Type (0, 1), None
#     Edge 17, Type (0, 1), None
#     Edge 18, Type (0, 1), None
#     Edge 19, Type (0, 1), None
#     Edge 20, Type (0, 1), None
#     Edge 21, Type (0, 1), None
#     Edge 22, Type (0, 1), None
#     Edge 23, Type (0, 1), None
#     Edge 24, Type (0, 1), None
#     Edge 25, Type (0, 1), None
#     Edge 26, Type (0, 1), None
#     Edge 27, Type (0, 1), None
#     Edge 28, Type (0, 1), None
#     Edge 29, Type (0, 1), None
#     Edge 30, Type (0, 1), None
#     Edge 31, Type (0, 1), None
#     Edge 32, Type (0, 1), None
#     Edge 33, Type (0, 1), None
#     Edge 34, Type (0, 1), None
#     Edge 35, Type (0, 1), None
# Relax obj value: 0.023
# Max RMSD: 0.073
# Mean RMSD: 0.058
data_MOF--net-hwx--node1-OJICUG_clean_sbu_0--node2-OLANEW_clean_sbu_2--edge1-none
_symmetry_space_group_name_H-M    P1
_symmetry_Int_Tables_number       1
_symmetry_cell_setting            triclinic
loop_
_symmetry_equiv_pos_as_xyz
'x, y, z'
_cell_length_a     27.23114
_cell_length_b     27.197614
_cell_length_c     10.461367
_cell_angle_alpha  81.53241
_cell_angle_beta   98.504688
_cell_angle_gamma 90.73289
loop_
_atom_site_label
_atom_site_type_symbol
_atom_site_fract_x
_atom_site_fract_y
_atom_site_fract_z
_atom_type_partial_charge
Sc0 Sc 0.24998 0.23809 0.16997 0.0
Sc1 Sc 0.1704 0.16586 0.97376 0.0
Sc2 Sc 0.26233 0.24189 0.84034 0.0
O3 O 0.22766 0.21502 -0.00518 0.0
C4 C 0.25361 0.33908 0.96952 0.0
C5 C 0.13183 0.23974 0.14616 0.0
C6 C 0.1485 0.23939 0.70646 0.0
C7 C 0.22654 0.12306 0.25624 0.0
C8 C 0.3537 0.22546 0.07517 0.0
C9 C 0.24881 0.12705 0.81328 0.0
O10 O 0.25185 0.31607 0.08403 0.0
O11 O 0.12299 0.20836 0.06687 0.0
O12 O 0.19227 0.25678 0.71128 0.0
O13 O 0.25 0.16276 0.27575 0.0
O14 O 0.33642 0.23091 0.95374 0.0
O15 O 0.21257 0.11923 0.87769 0.0
O16 O 0.32682 0.22687 0.16352 0.0
O17 O 0.19573 0.11974 0.15472 0.0
O18 O 0.26908 0.16911 0.79097 0.0
O19 O 0.17521 0.25199 0.19236 0.0
O20 O 0.25774 0.31712 0.87302 0.0
O21 O 0.13604 0.20514 0.79084 0.0
Sc22 Sc 0.26486 0.7679 0.36639 0.0
Sc23 Sc 0.36325 0.69851 0.56802 0.0
Sc24 Sc 0.26108 0.73826 0.70026 0.0
O25 O 0.29651 0.73455 0.54501 0.0
C26 C 0.23323 0.84436 0.5445 0.0
C27 C 0.37666 0.80105 0.38004 0.0
C28 C 0.37546 0.75077 0.82276 0.0
C29 C 0.31979 0.67574 0.2876 0.0
C30 C 0.17326 0.7146 0.47293 0.0
C31 C 0.30036 0.62537 0.74881 0.0
O32 O 0.23313 0.82959 0.43511 0.0
O33 O 0.39422 0.76123 0.45212 0.0
O34 O 0.32908 0.75728 0.82185 0.0
O35 O 0.29047 0.71286 0.26248 0.0
O36 O 0.18913 0.72038 0.5913 0.0
O37 O 0.33631 0.63298 0.68296 0.0
O38 O 0.19825 0.72642 0.3798 0.0
O39 O 0.34564 0.66299 0.39812 0.0
O40 O 0.27105 0.65952 0.76309 0.0
O41 O 0.33048 0.81037 0.34705 0.0
O42 O 0.24743 0.81714 0.6525 0.0
O43 O 0.39264 0.72906 0.73984 0.0
Sc44 Sc 0.74182 0.78574 0.85612 0.0
Sc45 Sc 0.84548 0.83862 0.02931 0.0
Sc46 Sc 0.78131 0.73866 0.18419 0.0
O47 O 0.78981 0.7878 0.02326 0.0
C48 C 0.6679 0.76764 0.06008 0.0
C49 C 0.75991 0.9033 0.84274 0.0
C50 C 0.80369 0.83933 0.29975 0.0
C51 C 0.84558 0.79998 0.75378 0.0
C52 C 0.75787 0.66944 0.96962 0.0
C53 C 0.9005 0.74615 0.21393 0.0
O54 O 0.67818 0.79026 0.95244 0.0
O55 O 0.79785 0.89958 0.93008 0.0
O56 O 0.78181 0.79774 0.29941 0.0
O57 O 0.80229 0.78158 0.7483 0.0
O58 O 0.78067 0.6761 0.08052 0.0
O59 O 0.90126 0.78537 0.13173 0.0
O60 O 0.73842 0.70484 0.88435 0.0
O61 O 0.86542 0.82347 0.84506 0.0
O62 O 0.86054 0.7261 0.24419 0.0
O63 O 0.73735 0.8659 0.80335 0.0
O64 O 0.70028 0.74397 0.14726 0.0
O65 O 0.8297 0.85784 0.21295 0.0
Sc66 Sc 0.78164 0.28301 0.6587 0.0
Sc67 Sc 0.69338 0.36559 0.45811 0.0
Sc68 Sc 0.74314 0.26604 0.33355 0.0
O69 O 0.73918 0.30482 0.48377 0.0
C70 C 0.85631 0.26113 0.46668 0.0
C71 C 0.79311 0.40061 0.61973 0.0
C72 C 0.73971 0.37903 0.19325 0.0
C73 C 0.68365 0.31979 0.75059 0.0
C74 C 0.73877 0.1804 0.57749 0.0
C75 C 0.62661 0.29115 0.30164 0.0
O76 O 0.84705 0.27158 0.57464 0.0
O77 O 0.75217 0.41055 0.54406 0.0
O78 O 0.75583 0.33445 0.2053 0.0
O79 O 0.72292 0.2935 0.76926 0.0
O80 O 0.73115 0.19571 0.45467 0.0
O81 O 0.63035 0.32564 0.37246 0.0
O82 O 0.75802 0.20719 0.66132 0.0
O83 O 0.66818 0.34712 0.64363 0.0
O84 O 0.66383 0.26925 0.27453 0.0
O85 O 0.80768 0.35679 0.66844 0.0
O86 O 0.82275 0.25626 0.37171 0.0
O87 O 0.71304 0.39367 0.27009 0.0
O88 O 0.24589 0.55748 0.75757 0.0
Cd89 Cd 0.20403 0.48915 0.87978 0.0
O90 O 0.31275 0.55105 0.90284 0.0
Cd91 Cd 0.37098 0.58563 0.02098 0.0
O92 O 0.36561 0.62238 0.18841 0.0
C93 C 0.32645 0.64814 0.18158 0.0
O94 O 0.29387 0.65287 0.07451 0.0
C95 C 0.28787 0.57426 0.80019 0.0
C96 C 0.24214 0.39254 0.94012 0.0
O97 O 0.22402 0.41134 0.82327 0.0
O98 O 0.24504 0.42023 0.02997 0.0
O99 O 0.96374 0.68432 0.24247 0.0
Cd100 Cd 0.03685 0.63944 0.37604 0.0
O101 O 0.97245 0.73931 0.37639 0.0
Cd102 Cd 0.94727 0.79808 0.47179 0.0
O103 O 0.91247 0.81794 0.63143 0.0
C104 C 0.87375 0.79296 0.64892 0.0
O105 O 0.85838 0.76078 0.5699 0.0
C106 C 0.9481 0.72308 0.2783 0.0
C107 C 0.1249 0.69093 0.44055 0.0
O108 O 0.11336 0.67645 0.32883 0.0
O109 O 0.094 0.68293 0.52241 0.0
O110 O 0.72616 0.45394 0.04312 0.0
Cd111 Cd 0.74757 0.52186 0.87658 0.0
O112 O 0.79837 0.4158 0.06187 0.0
Cd113 Cd 0.82259 0.47411 0.91804 0.0
O114 O 0.79719 0.47335 0.71225 0.0
C115 C 0.82159 0.44062 0.67349 0.0
O116 O 0.86655 0.42963 0.73562 0.0
C117 C 0.75493 0.41714 0.09207 0.0
C118 C 0.7538 0.61845 0.93886 0.0
O119 O 0.78728 0.5858 0.98969 0.0
O120 O 0.71662 0.60541 0.86133 0.0
O121 O 0.07242 0.23383 0.56536 0.0
Cd122 Cd 0.00519 0.26596 0.3912 0.0
O123 O 0.113 0.30458 0.54417 0.0
Cd124 Cd 0.0602 0.33499 0.37407 0.0
O125 O 0.10121 0.30131 0.24765 0.0
C126 C 0.09103 0.26343 0.19092 0.0
O127 O 0.04734 0.24243 0.18985 0.0
C128 C 0.10979 0.2601 0.59987 0.0
C129 C 0.90832 0.25991 0.44654 0.0
O130 O 0.9395 0.28982 0.4972 0.0
O131 O 0.92303 0.23145 0.37225 0.0
O132 O 0.70744 0.97256 0.83917 0.0
Cd133 Cd 0.66498 0.05016 0.72824 0.0
O134 O 0.75302 0.97594 0.68289 0.0
Cd135 Cd 0.8036 0.94461 0.57409 0.0
O136 O 0.82253 0.90655 0.41982 0.0
C137 C 0.79747 0.86766 0.40479 0.0
O138 O 0.7649 0.85337 0.48337 0.0
C139 C 0.74011 0.9531 0.78726 0.0
C140 C 0.71823 0.13232 0.62867 0.0
O141 O 0.71469 0.12224 0.75059 0.0
O142 O 0.69877 0.10215 0.55268 0.0
O143 O 0.56516 0.22978 0.31793 0.0
Cd144 Cd 0.50257 0.17717 0.21046 0.0
O145 O 0.55282 0.28844 0.14976 0.0
Cd146 Cd 0.58171 0.34629 0.01759 0.0
O147 O 0.62187 0.35243 0.85273 0.0
C148 C 0.65531 0.3197 0.85879 0.0
O149 O 0.66504 0.28653 0.96411 0.0
C150 C 0.57756 0.27121 0.2592 0.0
C151 C 0.40629 0.21247 0.1195 0.0
O152 O 0.42084 0.19637 0.24049 0.0
O153 O 0.43794 0.21421 0.03967 0.0
O154 O 0.19084 0.05719 0.38325 0.0
Cd155 Cd 0.1737 0.9879 0.55056 0.0
O156 O 0.27146 0.0676 0.43112 0.0
Cd157 Cd 0.2699 0.0104 0.59982 0.0
O158 O 0.24389 0.04643 0.74894 0.0
C159 C 0.26686 0.08718 0.75242 0.0
O160 O 0.30366 0.0963 0.68429 0.0
C161 C 0.23027 0.08038 0.36089 0.0
C162 C 0.21404 0.89439 0.54549 0.0
O163 O 0.22981 0.91914 0.63813 0.0
O164 O 0.18025 0.91394 0.45454 0.0
O165 O 0.45152 0.74602 0.96898 0.0
Cd166 Cd 0.51771 0.77471 0.12972 0.0
O167 O 0.40581 0.81388 0.94795 0.0
Cd168 Cd 0.46044 0.84447 0.08969 0.0
O169 O 0.44986 0.81613 0.28771 0.0
C170 C 0.40989 0.83403 0.31047 0.0
O171 O 0.39069 0.87375 0.23307 0.0
C172 C 0.41189 0.77064 0.92011 0.0
C173 C 0.61611 0.76931 0.08402 0.0
O174 O 0.5864 0.80354 0.02041 0.0
O175 O 0.59933 0.73658 0.16747 0.0
loop_
_geom_bond_atom_site_label_1
_geom_bond_atom_site_label_2
_geom_bond_distance
_geom_bond_site_symmetry_2
_ccdc_geom_bond_type
Sc0 O3 2.025 . S
Sc0 O10 2.105 . S
Sc0 O13 2.105 . S
Sc0 O16 2.105 . S
Sc0 O19 2.105 . S
Sc1 O3 2.025 . S
Sc1 O11 2.105 . S
Sc1 O15 2.105 1_554 S
Sc1 O17 2.105 . S
Sc1 O21 2.105 1_554 S
Sc2 O3 2.025 1_556 S
Sc2 O12 2.105 . S
Sc2 O14 2.105 . S
Sc2 O18 2.105 . S
Sc2 O20 2.105 . S
O3 Sc0 2.025 . S
O3 Sc1 2.025 . S
O3 Sc2 2.025 1_554 S
C4 O10 1.268 . S
C4 O20 1.268 1_554 S
C5 O11 1.268 . S
C5 O19 1.268 . S
C6 O12 1.268 . S
C6 O21 1.268 . S
C7 O13 1.268 . S
C7 O17 1.268 . S
C8 O14 1.268 1_554 S
C8 O16 1.268 . S
C9 O15 1.268 . S
C9 O18 1.268 . S
O10 Sc0 2.105 . S
O10 C4 1.268 . S
O11 Sc1 2.105 . S
O11 C5 1.268 . S
O12 Sc2 2.105 . S
O12 C6 1.268 . S
O13 Sc0 2.105 . S
O13 C7 1.268 . S
O14 Sc2 2.105 . S
O14 C8 1.268 1_556 S
O15 Sc1 2.105 1_556 S
O15 C9 1.268 . S
O16 Sc0 2.105 . S
O16 C8 1.268 . S
O17 Sc1 2.105 . S
O17 C7 1.268 . S
O18 Sc2 2.105 . S
O18 C9 1.268 . S
O19 Sc0 2.105 . S
O19 C5 1.268 . S
O20 Sc2 2.105 . S
O20 C4 1.268 1_556 S
O21 Sc1 2.105 1_556 S
O21 C6 1.268 . S
Sc22 O25 2.025 . S
Sc22 O32 2.105 . S
Sc22 O35 2.105 . S
Sc22 O38 2.105 . S
Sc22 O41 2.105 . S
Sc23 O25 2.025 . S
Sc23 O33 2.105 . S
Sc23 O37 2.105 . S
Sc23 O39 2.105 . S
Sc23 O43 2.105 . S
Sc24 O25 2.025 . S
Sc24 O34 2.105 . S
Sc24 O36 2.105 . S
Sc24 O40 2.105 . S
Sc24 O42 2.105 . S
O25 Sc22 2.025 . S
O25 Sc23 2.025 . S
O25 Sc24 2.025 . S
C26 O32 1.268 . S
C26 O42 1.268 . S
C27 O33 1.268 . S
C27 O41 1.268 . S
C28 O34 1.268 . S
C28 O43 1.268 . S
C29 O35 1.268 . S
C29 O39 1.268 . S
C30 O36 1.268 . S
C30 O38 1.268 . S
C31 O37 1.268 . S
C31 O40 1.268 . S
O32 Sc22 2.105 . S
O32 C26 1.268 . S
O33 Sc23 2.105 . S
O33 C27 1.268 . S
O34 Sc24 2.105 . S
O34 C28 1.268 . S
O35 Sc22 2.105 . S
O35 C29 1.268 . S
O36 Sc24 2.105 . S
O36 C30 1.268 . S
O37 Sc23 2.105 . S
O37 C31 1.268 . S
O38 Sc22 2.105 . S
O38 C30 1.268 . S
O39 Sc23 2.105 . S
O39 C29 1.268 . S
O40 Sc24 2.105 . S
O40 C31 1.268 . S
O41 Sc22 2.105 . S
O41 C27 1.268 . S
O42 Sc24 2.105 . S
O42 C26 1.268 . S
O43 Sc23 2.105 . S
O43 C28 1.268 . S
Sc44 O47 2.025 1_556 S
Sc44 O54 2.105 . S
Sc44 O57 2.105 . S
Sc44 O60 2.105 . S
Sc44 O63 2.105 . S
Sc45 O47 2.025 . S
Sc45 O55 2.105 1_554 S
Sc45 O59 2.105 . S
Sc45 O61 2.105 1_554 S
Sc45 O65 2.105 . S
Sc46 O47 2.025 . S
Sc46 O56 2.105 . S
Sc46 O58 2.105 . S
Sc46 O62 2.105 . S
Sc46 O64 2.105 . S
O47 Sc44 2.025 1_554 S
O47 Sc45 2.025 . S
O47 Sc46 2.025 . S
C48 O54 1.268 1_554 S
C48 O64 1.268 . S
C49 O55 1.268 . S
C49 O63 1.268 . S
C50 O56 1.268 . S
C50 O65 1.268 . S
C51 O57 1.268 . S
C51 O61 1.268 . S
C52 O58 1.268 . S
C52 O60 1.268 1_554 S
C53 O59 1.268 . S
C53 O62 1.268 . S
O54 Sc44 2.105 . S
O54 C48 1.268 1_556 S
O55 Sc45 2.105 1_556 S
O55 C49 1.268 . S
O56 Sc46 2.105 . S
O56 C50 1.268 . S
O57 Sc44 2.105 . S
O57 C51 1.268 . S
O58 Sc46 2.105 . S
O58 C52 1.268 . S
O59 Sc45 2.105 . S
O59 C53 1.268 . S
O60 Sc44 2.105 . S
O60 C52 1.268 1_556 S
O61 Sc45 2.105 1_556 S
O61 C51 1.268 . S
O62 Sc46 2.105 . S
O62 C53 1.268 . S
O63 Sc44 2.105 . S
O63 C49 1.268 . S
O64 Sc46 2.105 . S
O64 C48 1.268 . S
O65 Sc45 2.105 . S
O65 C50 1.268 . S
Sc66 O69 2.025 . S
Sc66 O76 2.105 . S
Sc66 O79 2.105 . S
Sc66 O82 2.105 . S
Sc66 O85 2.105 . S
Sc67 O69 2.025 . S
Sc67 O77 2.105 . S
Sc67 O81 2.105 . S
Sc67 O83 2.105 . S
Sc67 O87 2.105 . S
Sc68 O69 2.025 . S
Sc68 O78 2.105 . S
Sc68 O80 2.105 . S
Sc68 O84 2.105 . S
Sc68 O86 2.105 . S
O69 Sc66 2.025 . S
O69 Sc67 2.025 . S
O69 Sc68 2.025 . S
C70 O76 1.268 . S
C70 O86 1.268 . S
C71 O77 1.268 . S
C71 O85 1.268 . S
C72 O78 1.268 . S
C72 O87 1.268 . S
C73 O79 1.268 . S
C73 O83 1.268 . S
C74 O80 1.268 . S
C74 O82 1.268 . S
C75 O81 1.268 . S
C75 O84 1.268 . S
O76 Sc66 2.105 . S
O76 C70 1.268 . S
O77 Sc67 2.105 . S
O77 C71 1.268 . S
O78 Sc68 2.105 . S
O78 C72 1.268 . S
O79 Sc66 2.105 . S
O79 C73 1.268 . S
O80 Sc68 2.105 . S
O80 C74 1.268 . S
O81 Sc67 2.105 . S
O81 C75 1.268 . S
O82 Sc66 2.105 . S
O82 C74 1.268 . S
O83 Sc67 2.105 . S
O83 C73 1.268 . S
O84 Sc68 2.105 . S
O84 C75 1.268 . S
O85 Sc66 2.105 . S
O85 C71 1.268 . S
O86 Sc68 2.105 . S
O86 C70 1.268 . S
O87 Sc67 2.105 . S
O87 C72 1.268 . S
O88 Cd89 2.300 . S
O88 C95 1.275 . S
Cd89 O88 2.300 . S
Cd89 O97 2.381 . S
Cd89 O98 2.378 1_556 S
O90 Cd91 2.385 1_556 S
O90 C95 1.255 . S
Cd91 O90 2.385 1_554 S
Cd91 O92 2.317 . S
O92 Cd91 2.317 . S
O92 C93 1.232 . S
C93 O92 1.232 . S
C93 O94 1.218 . S
O94 C93 1.218 . S
C95 O88 1.275 . S
C95 O90 1.255 . S
C96 O97 1.258 . S
C96 O98 1.256 1_556 S
O97 Cd89 2.381 . S
O97 C96 1.258 . S
O98 Cd89 2.378 1_554 S
O98 C96 1.256 1_554 S
O99 Cd100 2.300 1_655 S
O99 C106 1.275 . S
Cd100 O99 2.300 1_455 S
Cd100 O108 2.381 . S
Cd100 O109 2.378 . S
O101 Cd102 2.385 . S
O101 C106 1.255 . S
Cd102 O101 2.385 . S
Cd102 O103 2.317 . S
O103 Cd102 2.317 . S
O103 C104 1.232 . S
C104 O103 1.232 . S
C104 O105 1.218 . S
O105 C104 1.218 . S
C106 O99 1.275 . S
C106 O101 1.255 . S
C107 O108 1.258 . S
C107 O109 1.256 . S
O108 Cd100 2.381 . S
O108 C107 1.258 . S
O109 Cd100 2.378 . S
O109 C107 1.256 . S
O110 Cd111 2.300 . S
O110 C117 1.275 . S
Cd111 O110 2.300 . S
Cd111 O119 2.381 . S
Cd111 O120 2.378 1_554 S
O112 Cd113 2.385 1_554 S
O112 C117 1.255 . S
Cd113 O112 2.385 1_556 S
Cd113 O114 2.317 . S
O114 Cd113 2.317 . S
O114 C115 1.232 . S
C115 O114 1.232 . S
C115 O116 1.218 . S
O116 C115 1.218 . S
C117 O110 1.275 . S
C117 O112 1.255 . S
C118 O119 1.258 . S
C118 O120 1.256 1_554 S
O119 Cd111 2.381 . S
O119 C118 1.258 . S
O120 Cd111 2.378 1_556 S
O120 C118 1.256 1_556 S
O121 Cd122 2.300 1_455 S
O121 C128 1.275 . S
Cd122 O121 2.300 1_655 S
Cd122 O130 2.381 . S
Cd122 O131 2.378 . S
O123 Cd124 2.385 . S
O123 C128 1.255 . S
Cd124 O123 2.385 . S
Cd124 O125 2.317 . S
O125 Cd124 2.317 . S
O125 C126 1.232 . S
C126 O125 1.232 . S
C126 O127 1.218 . S
O127 C126 1.218 . S
C128 O121 1.275 . S
C128 O123 1.255 . S
C129 O130 1.258 . S
C129 O131 1.256 . S
O130 Cd122 2.381 . S
O130 C129 1.258 . S
O131 Cd122 2.378 . S
O131 C129 1.256 . S
O132 Cd133 2.300 1_565 S
O132 C139 1.275 . S
Cd133 O132 2.300 1_545 S
Cd133 O141 2.381 . S
Cd133 O142 2.378 . S
O134 Cd135 2.385 . S
O134 C139 1.255 . S
Cd135 O134 2.385 . S
Cd135 O136 2.317 . S
O136 Cd135 2.317 . S
O136 C137 1.232 . S
C137 O136 1.232 . S
C137 O138 1.218 . S
O138 C137 1.218 . S
C139 O132 1.275 . S
C139 O134 1.255 . S
C140 O141 1.258 . S
C140 O142 1.256 . S
O141 Cd133 2.381 . S
O141 C140 1.258 . S
O142 Cd133 2.378 . S
O142 C140 1.256 . S
O143 Cd144 2.300 . S
O143 C150 1.275 . S
Cd144 O143 2.300 . S
Cd144 O152 2.381 . S
Cd144 O153 2.378 1_554 S
O145 Cd146 2.385 1_554 S
O145 C150 1.255 . S
Cd146 O145 2.385 1_556 S
Cd146 O147 2.317 . S
O147 Cd146 2.317 . S
O147 C148 1.232 . S
C148 O147 1.232 . S
C148 O149 1.218 . S
O149 C148 1.218 . S
C150 O143 1.275 . S
C150 O145 1.255 . S
C151 O152 1.258 . S
C151 O153 1.256 1_554 S
O152 Cd144 2.381 . S
O152 C151 1.258 . S
O153 Cd144 2.378 1_556 S
O153 C151 1.256 1_556 S
O154 Cd155 2.300 1_545 S
O154 C161 1.275 . S
Cd155 O154 2.300 1_565 S
Cd155 O163 2.381 . S
Cd155 O164 2.378 . S
O156 Cd157 2.385 . S
O156 C161 1.255 . S
Cd157 O156 2.385 . S
Cd157 O158 2.317 . S
O158 Cd157 2.317 . S
O158 C159 1.232 . S
C159 O158 1.232 . S
C159 O160 1.218 . S
O160 C159 1.218 . S
C161 O154 1.275 . S
C161 O156 1.255 . S
C162 O163 1.258 . S
C162 O164 1.256 . S
O163 Cd155 2.381 . S
O163 C162 1.258 . S
O164 Cd155 2.378 . S
O164 C162 1.256 . S
O165 Cd166 2.300 . S
O165 C172 1.275 . S
Cd166 O165 2.300 . S
Cd166 O174 2.381 . S
Cd166 O175 2.378 1_556 S
O167 Cd168 2.385 1_556 S
O167 C172 1.255 . S
Cd168 O167 2.385 1_554 S
Cd168 O169 2.317 . S
O169 Cd168 2.317 . S
O169 C170 1.232 . S
C170 O169 1.232 . S
C170 O171 1.218 . S
O171 C170 1.218 . S
C172 O165 1.275 . S
C172 O167 1.255 . S
C173 O174 1.258 . S
C173 O175 1.256 1_556 S
O174 Cd166 2.381 . S
O174 C173 1.258 . S
O175 Cd166 2.378 1_554 S
O175 C173 1.256 1_554 S
C5 C126 1.671 . S
C31 C95 1.627 . S
C106 C53 1.482 . S
C71 C115 1.439 . S
C150 C75 1.627 . S
C159 C9 1.671 . S
C170 C27 1.439 . S
C139 C49 1.481 . S
C51 C104 0.984 . S
C72 C117 1.853 . S
C6 C128 1.635 . S
C93 C29 0.935 . S
C28 C172 1.853 . S
C137 C50 0.984 . S
C148 C73 0.935 . S
C7 C161 1.635 . S
C96 C4 1.534 1_556 S
C107 C30 1.559 . S
C52 C118 1.676 . S
C70 C129 1.705 . S
C140 C74 1.559 . S
C8 C151 1.534 . S
C26 C162 1.705 . S
C48 C173 1.676 1_554 S
