# Generated by pormake.
# Topology scu, (8,4)-cn, num edge types: 1
# Building blocks:
#     Node 0, Type 0, BuildingBlock: TAGTUT_clean_sbu_3, # of connection points: 8
#     Node 1, Type 1, BuildingBlock: ESEHIV_clean_sbu_0, # of connection points: 4
#     Node 2, Type 1, BuildingBlock: ESEHIV_clean_sbu_0, # of connection points: 4
#     Edge 3, Type (0, 1), BuildingBlock: EZIPEK_clean_linker_0, # of connection points: 2
#     Edge 4, Type (0, 1), BuildingBlock: EZIPEK_clean_linker_0, # of connection points: 2
#     Edge 5, Type (0, 1), BuildingBlock: EZIPEK_clean_linker_0, # of connection points: 2
#     Edge 6, Type (0, 1), BuildingBlock: EZIPEK_clean_linker_0, # of connection points: 2
#     Edge 7, Type (0, 1), BuildingBlock: EZIPEK_clean_linker_0, # of connection points: 2
#     Edge 8, Type (0, 1), BuildingBlock: EZIPEK_clean_linker_0, # of connection points: 2
#     Edge 9, Type (0, 1), BuildingBlock: EZIPEK_clean_linker_0, # of connection points: 2
#     Edge 10, Type (0, 1), BuildingBlock: EZIPEK_clean_linker_0, # of connection points: 2
# Relax obj value: 0.025
# Max RMSD: 0.111
# Mean RMSD: 0.105
data_MOF--net-scu--node1-TAGTUT_clean_sbu_3--node2-ESEHIV_clean_sbu_0--edge1-EZIPEK_clean_linker_0
_symmetry_space_group_name_H-M    P1
_symmetry_Int_Tables_number       1
_symmetry_cell_setting            triclinic
loop_
_symmetry_equiv_pos_as_xyz
'x, y, z'
_cell_length_a     21.77045
_cell_length_b     18.104826
_cell_length_c     15.324449
_cell_angle_alpha  94.796974
_cell_angle_beta   98.631247
_cell_angle_gamma 90.082957
loop_
_atom_site_label
_atom_site_type_symbol
_atom_site_fract_x
_atom_site_fract_y
_atom_site_fract_z
_atom_type_partial_charge
C0 C 0.0259 0.86923 0.11683 0.0
C1 C 0.79721 0.96626 0.10201 0.0
C2 C 0.80401 0.98509 0.82708 0.0
Mg3 Mg 0.13578 0.92342 0.01349 0.0
Mg4 Mg 0.14427 0.09974 0.99168 0.0
O5 O 0.09709 0.01333 0.95974 0.0
Mg6 Mg 1.01078 0.01114 0.99331 0.0
O7 O 0.92587 0.99875 0.02606 0.0
Mg8 Mg 0.90077 0.89493 0.97721 0.0
Mg9 Mg 0.86614 0.07044 0.99606 0.0
C10 C 0.02095 0.15929 0.88313 0.0
O11 O 1.02001 0.11401 0.09723 0.0
O12 O 0.22176 0.94233 0.94131 0.0
O13 O 0.92508 0.16356 0.05634 0.0
O14 O 0.19353 0.98842 0.13247 0.0
O15 O 0.22139 0.06528 0.92783 0.0
O16 O 0.17999 0.10962 0.13223 0.0
O17 O 0.98365 0.91058 0.89576 0.0
O18 O 0.07592 0.85842 0.89033 0.0
C19 C 1.0173 0.86154 0.86273 0.0
C20 C 0.24574 0.00138 0.91778 0.0
O21 O 0.98704 0.10251 0.89306 0.0
O22 O 0.82449 0.90841 0.07164 0.0
O23 O 0.07699 0.17015 0.92247 0.0
O24 O 0.82944 0.9298 0.86319 0.0
O25 O 0.80605 0.03159 0.08003 0.0
O26 O 0.8163 0.05126 0.86117 0.0
O27 O 0.05021 0.92462 0.08792 0.0
O28 O 0.96938 0.85081 0.08946 0.0
C29 C 0.20485 0.05399 0.16883 0.0
C30 C 0.9798 0.16627 0.10238 0.0
Cu31 Cu 0.98463 0.53848 0.46562 0.0
N32 N 0.97869 0.47566 0.55526 0.0
N33 N 0.97748 0.3868 0.64736 0.0
C34 C 1.01218 0.42252 0.59698 0.0
C35 C 0.92125 0.41783 0.63699 0.0
C36 C 0.92207 0.47168 0.58011 0.0
O37 O 0.9571 0.47491 0.35877 0.0
C38 C 0.96962 0.65103 0.57896 0.0
O39 O 0.02117 0.61874 0.61084 0.0
H40 H 0.05952 0.40894 0.58903 0.0
H41 H 0.88282 0.50438 0.55512 0.0
N42 N 0.05679 0.58474 0.44263 0.0
N43 N 0.10107 0.66698 0.36971 0.0
C44 C 0.04789 0.63561 0.38315 0.0
C45 C 0.11877 0.58346 0.46846 0.0
C46 C 0.14649 0.63454 0.42276 0.0
C47 C 0.99886 0.42703 0.34708 0.0
O48 O 0.05131 0.43009 0.4022 0.0
H49 H 1.00245 0.64935 0.34968 0.0
H50 H 0.142 0.54817 0.51631 0.0
O51 O 0.93892 0.62431 0.50522 0.0
H52 H 0.88218 0.40156 0.66761 0.0
H53 H 0.19565 0.64669 0.42783 0.0
Cu54 Cu 0.52958 0.97828 0.52986 0.0
N55 N 0.51706 0.01897 0.64082 0.0
N56 N 0.46516 0.02709 0.75626 0.0
C57 C 0.4629 0.00677 0.6694 0.0
C58 C 0.52311 0.05524 0.78327 0.0
C59 C 0.55475 0.0516 0.71106 0.0
O60 O 0.44786 0.98726 0.45882 0.0
C61 C 0.60341 0.84895 0.57726 0.0
O62 O 0.61122 0.77691 0.57082 0.0
H63 H 0.42332 0.97943 0.62799 0.0
H64 H 0.60266 0.06741 0.71106 0.0
N65 N 0.59074 0.02266 0.47859 0.0
N66 N 0.65777 0.02995 0.38306 0.0
C67 C 0.61752 0.98645 0.41427 0.0
C68 C 0.61483 0.09191 0.48869 0.0
C69 C 0.6565 0.09662 0.42926 0.0
C70 C 0.43702 0.01316 0.38346 0.0
O71 O 0.48366 0.03006 0.34334 0.0
H72 H 0.6065 0.92956 0.38916 0.0
H73 H 0.60224 0.13591 0.53463 0.0
O74 O 0.5531 0.87491 0.53757 0.0
H75 H 0.5417 0.07504 0.85069 0.0
H76 H 0.68332 0.14499 0.42007 0.0
C77 C 0.03455 0.28539 0.1675 0.0
C78 C 0.99082 0.22858 0.17254 0.0
C79 C 0.95004 0.30337 0.29229 0.0
C80 C 0.98893 0.36322 0.27958 0.0
N81 N 0.06222 0.4158 0.19829 0.0
N82 N 0.90781 0.18066 0.24095 0.0
C83 C 0.02961 0.35537 0.21527 0.0
C84 C 0.94879 0.23691 0.23546 0.0
N85 N 0.08149 0.27202 0.11865 0.0
N86 N 0.91672 0.30871 0.36147 0.0
H87 H 0.91032 0.12802 0.20837 0.0
H88 H 0.87024 0.18633 0.27562 0.0
H89 H 0.91517 0.35695 0.40322 0.0
H90 H 0.89341 0.26431 0.38133 0.0
H91 H 0.11824 0.30887 0.11864 0.0
H92 H 0.08691 0.22082 0.08466 0.0
H93 H 0.08795 0.41594 0.14626 0.0
H94 H 0.05871 0.46809 0.23128 0.0
C95 C 0.69617 0.96313 0.15825 0.0
C96 C 0.76172 0.96253 0.17636 0.0
C97 C 0.7583 0.99961 0.3334 0.0
C98 C 0.69324 0.00839 0.31312 0.0
N99 N 0.60054 0.00776 0.20591 0.0
N100 N 0.85683 0.98171 0.27887 0.0
C101 C 0.66208 0.99177 0.22547 0.0
C102 C 0.79327 0.98029 0.26372 0.0
N103 N 0.66697 0.93675 0.07636 0.0
N104 N 0.78624 0.00889 0.41961 0.0
H105 H 0.88369 0.96376 0.23041 0.0
H106 H 0.88315 0.00326 0.33786 0.0
H107 H 0.76174 0.02387 0.47169 0.0
H108 H 0.83255 0.99686 0.44059 0.0
H109 H 0.61901 0.93018 0.06 0.0
H110 H 0.69161 0.91499 0.02688 0.0
H111 H 0.5758 0.00323 0.14204 0.0
H112 H 0.57548 0.03232 0.25315 0.0
C113 C 0.07243 0.84757 0.27313 0.0
C114 C 0.06302 0.82346 0.18142 0.0
C115 C 0.09811 0.69889 0.21614 0.0
C116 C 0.10431 0.72202 0.30757 0.0
N117 N 0.11368 0.82016 0.42344 0.0
N118 N 0.08041 0.7326 0.06421 0.0
C119 C 0.09738 0.79744 0.33588 0.0
C120 C 0.08068 0.7511 0.15252 0.0
N121 N 0.05362 0.91655 0.30045 0.0
N122 N 0.1058 0.62578 0.19101 0.0
H123 H 0.06789 0.77004 0.01675 0.0
H124 H 0.09707 0.68284 0.03852 0.0
H125 H 0.12132 0.58787 0.23689 0.0
H126 H 0.09501 0.60221 0.12619 0.0
H127 H 0.05228 0.9345 0.36645 0.0
H128 H 0.0366 0.95519 0.25632 0.0
H129 H 0.1152 0.87547 0.44856 0.0
H130 H 0.13082 0.78341 0.46992 0.0
C131 C 0.26172 0.00233 0.30271 0.0
C132 C 0.25489 0.06214 0.24797 0.0
C133 C 0.36112 0.10276 0.31189 0.0
C134 C 0.37243 0.03233 0.34521 0.0
N135 N 0.33191 0.91187 0.36766 0.0
N136 N 0.29994 0.17446 0.20576 0.0
C137 C 0.32206 0.98161 0.34107 0.0
C138 C 0.30461 0.11473 0.25507 0.0
N139 N 0.21015 0.96472 0.31646 0.0
N140 N 0.40327 0.1594 0.33744 0.0
H141 H 0.25855 0.19266 0.17208 0.0
H142 H 0.33842 0.20599 0.19745 0.0
H143 H 0.44344 0.15407 0.3829 0.0
H144 H 0.3948 0.21379 0.32202 0.0
H145 H 0.21143 0.924 0.3609 0.0
H146 H 0.16557 0.98087 0.29054 0.0
H147 H 0.29737 0.87081 0.35745 0.0
H148 H 0.37563 0.89245 0.39192 0.0
C149 C 0.95327 0.75141 0.78993 0.0
C150 C 0.98932 0.81523 0.78232 0.0
C151 C 0.98075 0.78529 0.62179 0.0
C152 C 0.95185 0.71724 0.63173 0.0
N153 N 0.8915 0.64644 0.71355 0.0
N154 N 0.02179 0.90495 0.69004 0.0
C155 C 0.93113 0.70465 0.71225 0.0
C156 C 0.99761 0.83641 0.69751 0.0
N157 N 0.94294 0.73385 0.87157 0.0
N158 N 0.99518 0.79821 0.54067 0.0
H159 H 0.03522 0.94298 0.7446 0.0
H160 H 0.0249 0.92639 0.62994 0.0
H161 H 0.98084 0.762 0.48457 0.0
H162 H 0.0213 0.84341 0.52883 0.0
H163 H 0.92222 0.68448 0.88301 0.0
H164 H 0.95779 0.76771 0.92933 0.0
H165 H 0.87113 0.63517 0.76829 0.0
H166 H 0.87473 0.61338 0.65576 0.0
C167 C 0.32274 0.94392 0.82264 0.0
C168 C 0.30725 0.99958 0.88614 0.0
C169 C 0.39775 0.07329 0.86626 0.0
C170 C 0.41593 0.01556 0.80776 0.0
N171 N 0.40703 0.88532 0.75831 0.0
N172 N 0.34626 0.10101 0.99356 0.0
C173 C 0.38199 0.94732 0.79484 0.0
C174 C 0.35007 0.05906 0.91626 0.0
N175 N 0.28058 0.89025 0.78503 0.0
N176 N 0.42248 0.143 0.87037 0.0
H177 H 0.31497 0.08873 0.03583 0.0
H178 H 0.37935 0.14157 0.0206 0.0
H179 H 0.45335 0.15806 0.82904 0.0
H180 H 0.40632 0.18779 0.90745 0.0
H181 H 0.28865 0.85297 0.73246 0.0
H182 H 0.2355 0.88746 0.79969 0.0
H183 H 0.38598 0.83307 0.7535 0.0
H184 H 0.45219 0.88484 0.7434 0.0
C185 C 0.99703 0.28969 0.85361 0.0
C186 C 0.99847 0.21446 0.81988 0.0
C187 C 0.98824 0.25363 0.66881 0.0
C188 C 0.99369 0.32854 0.70423 0.0
N189 N 1.01137 0.4188 0.82915 0.0
N190 N 1.00151 0.124 0.6956 0.0
C191 C 1.00076 0.34662 0.79655 0.0
C192 C 0.99525 0.19599 0.72727 0.0
N193 N 0.99003 0.30628 0.93999 0.0
N194 N 0.9747 0.23807 0.57927 0.0
H195 H 1.00468 0.08013 0.73589 0.0
H196 H 1.0068 0.10811 0.63029 0.0
H197 H 0.97173 0.27941 0.5354 0.0
H198 H 0.96303 0.18523 0.54903 0.0
H199 H 0.98382 0.35969 0.96781 0.0
H200 H 0.98363 0.26502 0.98111 0.0
H201 H 0.02264 0.43551 0.89635 0.0
H202 H 1.01435 0.46135 0.78795 0.0
C203 C 0.69092 0.95853 0.7821 0.0
C204 C 0.75005 0.96815 0.75599 0.0
C205 C 0.71042 0.90841 0.60761 0.0
C206 C 0.65187 0.89631 0.63543 0.0
N207 N 0.59215 0.89239 0.75521 0.0
N208 N 0.81759 0.95483 0.64585 0.0
C209 C 0.64363 0.91693 0.72423 0.0
C210 C 0.76009 0.94407 0.66882 0.0
N211 N 0.68004 0.98905 0.86297 0.0
N212 N 0.71902 0.88225 0.524 0.0
H213 H 0.85342 0.98286 0.68893 0.0
H214 H 0.8304 0.93764 0.58488 0.0
H215 H 0.68377 0.85605 0.47826 0.0
H216 H 0.76073 0.88462 0.49921 0.0
H217 H 0.63646 0.98994 0.88311 0.0
H218 H 0.71358 0.0193 0.90759 0.0
H219 H 0.58685 0.89719 0.82184 0.0
H220 H 0.5561 0.86251 0.71498 0.0
loop_
_geom_bond_atom_site_label_1
_geom_bond_atom_site_label_2
_geom_bond_distance
_geom_bond_site_symmetry_2
_ccdc_geom_bond_type
C0 O27 1.312 1_655 S
C0 O28 1.208 . S
C1 O22 1.331 1_545 S
C1 O25 1.244 . S
C2 O24 1.264 1_545 S
C2 O26 1.273 . S
Mg3 O5 1.936 1_564 S
Mg3 O12 2.081 1_554 S
Mg3 O14 2.023 . S
Mg3 O18 2.031 1_554 S
Mg3 O27 2.291 . S
Mg4 O5 1.963 . S
Mg4 O15 1.942 . S
Mg4 O16 1.955 1_556 S
Mg4 O23 1.986 . S
O5 Mg3 1.936 1_546 S
O5 Mg4 1.963 . S
O5 Mg6 1.915 1_556 S
Mg6 O5 1.915 1_554 S
Mg6 O7 1.915 1_455 S
Mg6 O11 2.013 . S
Mg6 O17 2.114 1_444 S
Mg6 O21 2.013 1_454 S
Mg6 O27 2.114 1_545 S
O7 Mg6 1.915 1_655 S
O7 Mg8 1.936 1_544 S
O7 Mg9 1.963 . S
Mg8 O7 1.936 1_566 S
Mg8 O17 2.291 . S
Mg8 O22 2.081 1_556 S
Mg8 O24 2.023 . S
Mg8 O28 2.031 1_556 S
Mg9 O7 1.963 . S
Mg9 O13 1.986 . S
Mg9 O25 1.942 . S
Mg9 O26 1.955 1_554 S
C10 O21 1.191 1_455 S
C10 O23 1.307 . S
O11 Mg6 2.013 . S
O11 C30 1.191 1_455 S
O12 Mg3 2.081 1_556 S
O12 C20 1.331 . S
O13 Mg9 1.986 . S
O13 C30 1.307 . S
O14 Mg3 2.023 . S
O14 C29 1.264 1_565 S
O15 Mg4 1.942 . S
O15 C20 1.244 1_545 S
O16 Mg4 1.955 1_554 S
O16 C29 1.273 . S
O17 Mg6 2.114 1_666 S
O17 Mg8 2.291 . S
O17 C19 1.312 1_655 S
O18 Mg3 2.031 1_556 S
O18 C19 1.208 . S
C19 O17 1.312 1_455 S
C19 O18 1.208 . S
C20 O12 1.331 . S
C20 O15 1.244 1_565 S
O21 Mg6 2.013 1_656 S
O21 C10 1.191 1_655 S
O22 C1 1.331 1_565 S
O22 Mg8 2.081 1_554 S
O23 Mg4 1.986 . S
O23 C10 1.307 . S
O24 C2 1.264 1_565 S
O24 Mg8 2.023 . S
O25 C1 1.244 . S
O25 Mg9 1.942 . S
O26 C2 1.273 . S
O26 Mg9 1.955 1_556 S
O27 C0 1.312 1_455 S
O27 Mg3 2.291 . S
O27 Mg6 2.114 1_565 S
O28 C0 1.208 . S
O28 Mg8 2.031 1_554 S
C29 O14 1.264 1_545 S
C29 O16 1.273 . S
C30 O11 1.191 1_655 S
C30 O13 1.307 . S
Cu31 N32 1.999 . S
Cu31 O37 1.974 . S
Cu31 N42 1.985 . S
Cu31 O51 1.959 . S
N32 Cu31 1.999 . S
N32 C34 1.263 . S
N32 C36 1.389 . S
N33 C34 1.358 . S
N33 C35 1.400 . S
C34 N32 1.263 . S
C34 N33 1.358 . S
C34 H40 0.930 1_655 S
C35 N33 1.400 . S
C35 C36 1.351 . S
C35 H52 0.930 . S
C36 N32 1.389 . S
C36 C35 1.351 . S
C36 H41 0.930 . S
O37 Cu31 1.974 . S
O37 C47 1.282 1_655 S
C38 O39 1.261 . S
C38 O51 1.251 1_455 S
O39 C38 1.261 . S
H40 C34 0.930 1_455 S
H41 C36 0.930 . S
N42 Cu31 1.985 . S
N42 C44 1.335 . S
N42 C45 1.390 1_655 S
N43 C44 1.345 . S
N43 C46 1.336 1_655 S
C44 N42 1.335 . S
C44 N43 1.345 . S
C44 H49 0.930 . S
C45 N42 1.390 1_455 S
C45 C46 1.346 . S
C45 H50 0.930 . S
C46 N43 1.336 1_455 S
C46 C45 1.346 . S
C46 H53 0.929 . S
C47 O37 1.282 1_455 S
C47 O48 1.216 . S
O48 C47 1.216 . S
H49 C44 0.930 . S
H50 C45 0.930 . S
O51 Cu31 1.959 . S
O51 C38 1.251 1_655 S
H52 C35 0.930 . S
H53 C46 0.929 . S
Cu54 N55 1.999 . S
Cu54 O60 1.974 . S
Cu54 N65 1.985 . S
Cu54 O74 1.959 . S
N55 Cu54 1.999 . S
N55 C57 1.263 . S
N55 C59 1.389 . S
N56 C57 1.358 . S
N56 C58 1.400 . S
C57 N55 1.263 . S
C57 N56 1.358 . S
C57 H63 0.930 1_545 S
C58 N56 1.400 . S
C58 C59 1.351 . S
C58 H75 0.930 . S
C59 N55 1.389 . S
C59 C58 1.351 . S
C59 H64 0.930 . S
O60 Cu54 1.974 . S
O60 C70 1.282 1_545 S
C61 O62 1.261 . S
C61 O74 1.251 1_565 S
O62 C61 1.261 . S
H63 C57 0.930 1_565 S
H64 C59 0.930 . S
N65 Cu54 1.985 . S
N65 C67 1.335 . S
N65 C68 1.390 1_545 S
N66 C67 1.345 . S
N66 C69 1.336 1_545 S
C67 N65 1.335 . S
C67 N66 1.345 . S
C67 H72 0.930 . S
C68 N65 1.390 1_565 S
C68 C69 1.346 . S
C68 H73 0.930 . S
C69 N66 1.336 1_565 S
C69 C68 1.346 . S
C69 H76 0.929 . S
C70 O60 1.282 1_565 S
C70 O71 1.216 . S
O71 C70 1.216 . S
H72 C67 0.930 . S
H73 C68 0.930 . S
O74 Cu54 1.959 . S
O74 C61 1.251 1_545 S
H75 C58 0.930 . S
H76 C69 0.929 . S
C77 C78 1.363 . S
C77 C83 1.379 . S
C77 N85 1.356 . S
C78 C77 1.363 . S
C78 C84 1.363 1_455 S
C79 C80 1.363 1_655 S
C79 C84 1.379 . S
C79 N86 1.356 . S
C80 C79 1.363 1_455 S
C80 C83 1.363 . S
N81 C83 1.356 . S
N81 H93 0.984 . S
N81 H94 0.985 . S
N82 C84 1.356 . S
N82 H87 0.984 . S
N82 H88 0.985 . S
C83 C77 1.379 . S
C83 C80 1.363 . S
C83 N81 1.356 . S
C84 C78 1.363 1_655 S
C84 C79 1.379 . S
C84 N82 1.356 . S
N85 C77 1.356 . S
N85 H91 0.984 . S
N85 H92 0.984 . S
N86 C79 1.356 . S
N86 H89 0.984 . S
N86 H90 0.985 . S
H87 N82 0.984 . S
H88 N82 0.985 . S
H89 N86 0.984 . S
H90 N86 0.985 . S
H91 N85 0.984 . S
H92 N85 0.984 . S
H93 N81 0.984 . S
H94 N81 0.985 . S
C95 C96 1.363 1_565 S
C95 C101 1.379 . S
C95 N103 1.356 . S
C96 C95 1.363 1_545 S
C96 C102 1.363 . S
C97 C98 1.363 . S
C97 C102 1.379 . S
C97 N104 1.356 . S
C98 C97 1.363 . S
C98 C101 1.363 1_545 S
N99 C101 1.356 . S
N99 H111 0.984 . S
N99 H112 0.985 . S
N100 C102 1.356 . S
N100 H105 0.984 . S
N100 H106 0.985 . S
C101 C95 1.379 . S
C101 C98 1.363 1_565 S
C101 N99 1.356 . S
C102 C96 1.363 . S
C102 C97 1.379 . S
C102 N100 1.356 . S
N103 C95 1.356 . S
N103 H109 0.984 . S
N103 H110 0.984 . S
N104 C97 1.356 . S
N104 H107 0.984 . S
N104 H108 0.985 . S
H105 N100 0.984 . S
H106 N100 0.985 . S
H107 N104 0.984 . S
H108 N104 0.985 . S
H109 N103 0.984 . S
H110 N103 0.984 . S
H111 N99 0.984 . S
H112 N99 0.985 . S
C113 C114 1.363 . S
C113 C119 1.379 . S
C113 N121 1.356 . S
C114 C113 1.363 . S
C114 C120 1.363 1_455 S
C115 C116 1.363 . S
C115 C120 1.379 . S
C115 N122 1.356 . S
C116 C115 1.363 . S
C116 C119 1.363 1_655 S
N117 C119 1.356 . S
N117 H129 0.984 . S
N117 H130 0.985 . S
N118 C120 1.356 . S
N118 H123 0.984 . S
N118 H124 0.985 . S
C119 C113 1.379 . S
C119 C116 1.363 1_455 S
C119 N117 1.356 . S
C120 C114 1.363 1_655 S
C120 C115 1.379 . S
C120 N118 1.356 . S
N121 C113 1.356 . S
N121 H127 0.984 . S
N121 H128 0.984 . S
N122 C115 1.356 . S
N122 H125 0.984 . S
N122 H126 0.985 . S
H123 N118 0.984 . S
H124 N118 0.985 . S
H125 N122 0.984 . S
H126 N122 0.985 . S
H127 N121 0.984 . S
H128 N121 0.984 . S
H129 N117 0.984 . S
H130 N117 0.985 . S
C131 C132 1.363 1_565 S
C131 C137 1.379 . S
C131 N139 1.356 . S
C132 C131 1.363 1_545 S
C132 C138 1.363 . S
C133 C134 1.363 1_545 S
C133 C138 1.379 . S
C133 N140 1.356 . S
C134 C133 1.363 1_565 S
C134 C137 1.363 . S
N135 C137 1.356 . S
N135 H147 0.984 . S
N135 H148 0.985 . S
N136 C138 1.356 . S
N136 H141 0.984 . S
N136 H142 0.985 . S
C137 C131 1.379 . S
C137 C134 1.363 . S
C137 N135 1.356 . S
C138 C132 1.363 . S
C138 C133 1.379 . S
C138 N136 1.356 . S
N139 C131 1.356 . S
N139 H145 0.984 . S
N139 H146 0.984 . S
N140 C133 1.356 . S
N140 H143 0.984 . S
N140 H144 0.985 . S
H141 N136 0.984 . S
H142 N136 0.985 . S
H143 N140 0.984 . S
H144 N140 0.985 . S
H145 N139 0.984 . S
H146 N139 0.984 . S
H147 N135 0.984 . S
H148 N135 0.985 . S
C149 C150 1.363 . S
C149 C155 1.379 1_655 S
C149 N157 1.356 . S
C150 C149 1.363 . S
C150 C156 1.363 1_655 S
C151 C152 1.363 . S
C151 C156 1.379 . S
C151 N158 1.356 . S
C152 C151 1.363 . S
C152 C155 1.363 . S
N153 C155 1.356 . S
N153 H165 0.989 . S
N153 H166 0.985 . S
N154 C156 1.356 . S
N154 H159 0.984 1_455 S
N154 H160 0.985 . S
C155 C149 1.379 1_455 S
C155 C152 1.363 . S
C155 N153 1.356 . S
C156 C150 1.363 1_455 S
C156 C151 1.379 . S
C156 N154 1.356 . S
N157 C149 1.356 . S
N157 H163 0.984 . S
N157 H164 0.984 . S
N158 C151 1.356 . S
N158 H161 0.984 . S
N158 H162 0.985 . S
H159 N154 0.984 1_655 S
H160 N154 0.985 . S
H161 N158 0.984 . S
H162 N158 0.985 . S
H163 N157 0.984 . S
H164 N157 0.984 . S
H165 N153 0.989 . S
H166 N153 0.985 . S
C167 C168 1.363 . S
C167 C173 1.379 . S
C167 N175 1.356 . S
C168 C167 1.363 . S
C168 C174 1.363 1_565 S
C169 C170 1.363 . S
C169 C174 1.379 . S
C169 N176 1.356 . S
C170 C169 1.363 . S
C170 C173 1.363 1_545 S
N171 C173 1.356 . S
N171 H183 0.984 . S
N171 H184 0.985 . S
N172 C174 1.356 . S
N172 H177 0.984 . S
N172 H178 0.985 . S
C173 C167 1.379 . S
C173 C170 1.363 1_565 S
C173 N171 1.356 . S
C174 C168 1.363 1_545 S
C174 C169 1.379 . S
C174 N172 1.356 . S
N175 C167 1.356 . S
N175 H181 0.984 . S
N175 H182 0.984 . S
N176 C169 1.356 . S
N176 H179 0.984 . S
N176 H180 0.985 . S
H177 N172 0.984 . S
H178 N172 0.985 . S
H179 N176 0.984 . S
H180 N176 0.985 . S
H181 N175 0.984 . S
H182 N175 0.984 . S
H183 N171 0.984 . S
H184 N171 0.985 . S
C185 C186 1.363 1_455 S
C185 C191 1.379 . S
C185 N193 1.356 . S
C186 C185 1.363 1_655 S
C186 C192 1.363 . S
C187 C188 1.363 . S
C187 C192 1.379 . S
C187 N194 1.356 . S
C188 C187 1.363 . S
C188 C191 1.363 1_655 S
N189 C191 1.356 . S
N189 H201 0.984 . S
N189 H202 0.985 . S
N190 C192 1.356 . S
N190 H195 0.984 . S
N190 H196 0.985 . S
C191 C185 1.379 . S
C191 C188 1.363 1_455 S
C191 N189 1.356 . S
C192 C186 1.363 . S
C192 C187 1.379 . S
C192 N190 1.356 . S
N193 C185 1.356 . S
N193 H199 0.984 . S
N193 H200 0.984 . S
N194 C187 1.356 . S
N194 H197 0.984 . S
N194 H198 0.985 . S
H195 N190 0.984 . S
H196 N190 0.985 . S
H197 N194 0.984 . S
H198 N194 0.985 . S
H199 N193 0.984 . S
H200 N193 0.984 . S
H201 N189 0.984 . S
H202 N189 0.985 . S
C203 C204 1.363 . S
C203 C209 1.379 . S
C203 N211 1.356 . S
C204 C203 1.363 . S
C204 C210 1.363 1_545 S
C205 C206 1.363 . S
C205 C210 1.379 . S
C205 N212 1.356 . S
C206 C205 1.363 . S
C206 C209 1.363 1_565 S
N207 C209 1.356 . S
N207 H219 0.984 . S
N207 H220 0.985 . S
N208 C210 1.356 . S
N208 H213 0.984 . S
N208 H214 0.985 . S
C209 C203 1.379 . S
C209 C206 1.363 1_545 S
C209 N207 1.356 . S
C210 C204 1.363 1_565 S
C210 C205 1.379 . S
C210 N208 1.356 . S
N211 C203 1.356 . S
N211 H217 0.984 . S
N211 H218 0.984 . S
N212 C205 1.356 . S
N212 H215 0.984 . S
N212 H216 0.985 . S
H213 N208 0.984 . S
H214 N208 0.985 . S
H215 N212 0.984 . S
H216 N212 0.985 . S
H217 N211 0.984 . S
H218 N211 0.984 . S
H219 N207 0.984 . S
H220 N207 0.985 . S
C78 C30 1.452 1_455 S
C80 C47 1.486 . S
C96 C1 1.432 . S
C98 N66 1.413 . S
C114 C0 1.347 1_455 S
C116 N43 1.368 . S
C132 C29 1.588 . S
C134 C70 1.643 . S
C150 C19 1.459 1_655 S
C152 C38 1.553 . S
C168 C20 1.473 . S
C170 N56 1.492 . S
C188 N33 1.386 . S
C186 C10 1.385 1_655 S
C204 C2 1.607 . S
C206 C61 1.651 . S
