# Generated by pormake.
# Topology ftw, (4,12)-cn, num edge types: 1
# Building blocks:
#     Node 0, Type 0, BuildingBlock: ESEHIV_clean_sbu_0, # of connection points: 4
#     Node 1, Type 0, BuildingBlock: ESEHIV_clean_sbu_0, # of connection points: 4
#     Node 2, Type 0, BuildingBlock: ESEHIV_clean_sbu_0, # of connection points: 4
#     Node 3, Type 1, BuildingBlock: EZIPEK_clean_sbu_0, # of connection points: 12
#     Edge 4, Type (0, 1), BuildingBlock: OJICUG_clean_linker_0, # of connection points: 2
#     Edge 5, Type (0, 1), BuildingBlock: OJICUG_clean_linker_0, # of connection points: 2
#     Edge 6, Type (0, 1), BuildingBlock: OJICUG_clean_linker_0, # of connection points: 2
#     Edge 7, Type (0, 1), BuildingBlock: OJICUG_clean_linker_0, # of connection points: 2
#     Edge 8, Type (0, 1), BuildingBlock: OJICUG_clean_linker_0, # of connection points: 2
#     Edge 9, Type (0, 1), BuildingBlock: OJICUG_clean_linker_0, # of connection points: 2
#     Edge 10, Type (0, 1), BuildingBlock: OJICUG_clean_linker_0, # of connection points: 2
#     Edge 11, Type (0, 1), BuildingBlock: OJICUG_clean_linker_0, # of connection points: 2
#     Edge 12, Type (0, 1), BuildingBlock: OJICUG_clean_linker_0, # of connection points: 2
#     Edge 13, Type (0, 1), BuildingBlock: OJICUG_clean_linker_0, # of connection points: 2
#     Edge 14, Type (0, 1), BuildingBlock: OJICUG_clean_linker_0, # of connection points: 2
#     Edge 15, Type (0, 1), BuildingBlock: OJICUG_clean_linker_0, # of connection points: 2
# Relax obj value: 0.026
# Max RMSD: 0.144
# Mean RMSD: 0.116
data_MOF--net-ftw--node1-ESEHIV_clean_sbu_0--node2-EZIPEK_clean_sbu_0--edge1-OJICUG_clean_linker_0
_symmetry_space_group_name_H-M    P1
_symmetry_Int_Tables_number       1
_symmetry_cell_setting            triclinic
loop_
_symmetry_equiv_pos_as_xyz
'x, y, z'
_cell_length_a     19.02392
_cell_length_b     18.995054
_cell_length_c     18.763808
_cell_angle_alpha  85.852072
_cell_angle_beta   85.537968
_cell_angle_gamma 94.299552
loop_
_atom_site_label
_atom_site_type_symbol
_atom_site_fract_x
_atom_site_fract_y
_atom_site_fract_z
_atom_type_partial_charge
Cu0 Cu 1.01177 0.53009 0.49251 0.0
N1 N 0.95951 0.47793 0.43148 0.0
N2 N 0.94955 0.40488 0.34413 0.0
C3 C 0.98799 0.42591 0.3971 0.0
C4 C 0.8943 0.44558 0.34479 0.0
C5 C 0.9006 0.49086 0.39904 0.0
O6 O 0.06702 0.46451 0.54437 0.0
C7 C 1.02289 0.65472 0.41114 0.0
O8 O 0.95651 0.65014 0.43725 0.0
H9 H 0.039 0.40749 0.40745 0.0
H10 H 0.86717 0.53284 0.4109 0.0
N11 N 0.96154 0.57286 0.56442 0.0
N12 N 0.95316 0.64593 0.65208 0.0
C13 C 0.99051 0.63022 0.59236 0.0
C14 C 0.90345 0.55074 0.6082 0.0
C15 C 0.89817 0.596 0.66274 0.0
C16 C 1.03007 0.40886 0.57158 0.0
O17 O 0.96281 0.40067 0.56026 0.0
H18 H 0.04099 0.65709 0.57177 0.0
H19 H 0.86981 0.50318 0.60321 0.0
O20 O 0.06219 0.60605 0.4293 0.0
H21 H 0.8538 0.44438 0.30736 0.0
H22 H 0.8585 0.5912 0.70778 0.0
Cu23 Cu 0.55335 1.00318 0.50002 0.0
N24 N 0.60399 0.9433 0.5555 0.0
N25 N 0.68683 0.92502 0.63129 0.0
C26 C 0.6374 0.96744 0.61046 0.0
C27 C 0.6841 0.87125 0.58803 0.0
C28 C 0.63262 0.88263 0.54119 0.0
O29 O 0.62386 0.04989 0.42737 0.0
C30 C 0.44616 0.08146 0.56257 0.0
O31 O 0.422 0.08406 0.49884 0.0
H32 H 0.63049 0.01897 0.62991 0.0
H33 H 0.62106 0.85194 0.49657 0.0
N34 N 0.48211 0.95705 0.45295 0.0
N35 N 0.39821 0.94762 0.37626 0.0
C36 C 0.45869 0.98308 0.39117 0.0
C37 C 0.43537 0.90254 0.47778 0.0
C38 C 0.38342 0.8966 0.43052 0.0
C39 C 0.64292 1.00901 0.37965 0.0
O40 O 0.61248 0.94442 0.38241 0.0
H41 H 0.48244 0.03084 0.36098 0.0
H42 H 0.43663 0.87222 0.52866 0.0
O43 O 0.50711 0.0598 0.56967 0.0
H44 H 0.71917 0.82894 0.58778 0.0
H45 H 0.33688 0.85954 0.43716 0.0
Cu46 Cu 0.5542 0.5313 0.01867 0.0
N47 N 0.49664 0.5871 0.07257 0.0
N48 N 0.42078 0.67008 0.08808 0.0
C49 C 0.46705 0.64266 0.0419 0.0
C50 C 0.42143 0.63047 0.15072 0.0
C51 C 0.46898 0.57959 0.14121 0.0
O52 O 0.49275 0.47738 0.95983 0.0
C53 C 0.66903 0.62182 0.01885 0.0
O54 O 0.6561 0.59761 0.08633 0.0
H55 H 0.47619 0.65991 0.98544 0.0
H56 H 0.47987 0.53823 0.18049 0.0
N57 N 0.60039 0.46242 0.06909 0.0
N58 N 0.67624 0.37851 0.07946 0.0
C59 C 0.65834 0.43536 0.03978 0.0
C60 C 0.58078 0.42143 0.12995 0.0
C61 C 0.62759 0.36946 0.13646 0.0
C62 C 0.44014 0.44343 0.9969 0.0
O63 O 0.43203 0.44991 0.06609 0.0
H64 H 0.68402 0.4543 0.98768 0.0
H65 H 0.53388 0.42642 0.16501 0.0
O66 O 0.62886 0.59893 0.97271 0.0
H67 H 0.38841 0.63656 0.19917 0.0
H68 H 0.62464 0.327 0.17855 0.0
C69 C 0.06902 0.20103 0.79692 0.0
C70 C 0.03768 0.20814 0.14312 0.0
C71 C 0.04734 0.85808 0.83432 0.0
C72 C 0.05262 0.86849 0.178 0.0
C73 C 0.22686 0.87472 0.00865 0.0
C74 C 0.23144 0.21863 0.96587 0.0
C75 C 0.88659 0.85015 0.9997 0.0
C76 C 0.88748 0.19214 0.99406 0.0
C77 C 0.876 0.03127 0.16352 0.0
C78 C 0.21764 0.03126 0.15768 0.0
C79 C 0.89536 1.0075 0.82151 0.0
C80 C 0.23777 0.05279 0.80697 0.0
Eu81 Eu 0.0592 0.16809 0.9738 0.0
O82 O 0.11962 0.10441 0.04365 0.0
O83 O 0.9976 0.09249 0.91772 0.0
Eu84 Eu 0.19294 0.04388 0.98314 0.0
Eu85 Eu 0.92442 0.02427 0.99104 0.0
O86 O 0.12369 0.09863 0.91733 0.0
O87 O 0.9941 0.09217 0.04408 0.0
Eu88 Eu 0.0649 0.0308 0.8528 0.0
Eu89 Eu 0.0499 0.03778 0.12222 0.0
O90 O 0.12576 0.97278 0.92697 0.0
O91 O 0.11494 0.98015 0.05307 0.0
O92 O 0.98924 0.96665 0.06093 0.0
O93 O 1.0002 0.96748 0.9345 0.0
Eu94 Eu 0.05694 0.9009 1.00157 0.0
O95 O 0.06676 0.22476 0.86232 0.0
O96 O 0.04348 0.22861 0.07315 0.0
O97 O 0.04894 0.83849 0.90389 0.0
O98 O 0.05623 0.84502 0.11257 0.0
O99 O 0.25064 0.94299 0.99595 0.0
O100 O 0.25273 0.15309 0.97298 0.0
O101 O 0.8653 0.91556 0.99311 0.0
O102 O 0.86597 0.12345 0.99606 0.0
O103 O 0.94178 0.03785 0.18411 0.0
O104 O 0.1497 0.03481 0.17987 0.0
O105 O 0.96368 1.01172 0.79752 0.0
O106 O 0.17141 0.04309 0.78897 0.0
O107 O 0.95273 0.83401 0.00793 0.0
O108 O 0.15944 0.84917 0.01002 0.0
O109 O 0.9546 0.21953 0.98188 0.0
O110 O 0.16417 0.23462 0.96588 0.0
O111 O 0.04348 0.14255 0.17149 0.0
O112 O 0.04678 0.93561 0.1927 0.0
O113 O 0.06676 0.13308 0.78262 0.0
O114 O 0.05724 0.92454 0.80462 0.0
O115 O 0.25715 0.05267 0.87412 0.0
O116 O 0.24453 0.03688 0.08917 0.0
O117 O 0.87048 1.01587 0.88855 0.0
O118 O 0.8593 0.02203 0.09693 0.0
C119 C 0.95706 0.36568 0.22091 0.0
C120 C 0.96977 0.35506 0.29349 0.0
H121 H 0.97007 0.32842 0.11591 0.0
C122 C 1.0065 0.29693 0.31566 0.0
H123 H 0.92954 0.41044 0.20225 0.0
C124 C 1.02992 0.25025 0.26656 0.0
C125 C 1.01792 0.26101 0.1938 0.0
H126 H 1.01663 0.28727 0.37137 0.0
H127 H 0.05736 0.20558 0.28575 0.0
C128 C 0.98132 0.31935 0.17139 0.0
C129 C 0.76785 0.0541 0.33906 0.0
C130 C 0.69998 0.0294 0.32284 0.0
H131 H 0.87776 0.07306 0.30155 0.0
C132 C 0.68983 1.01027 0.25344 0.0
H133 H 0.77701 0.06782 0.3928 0.0
C134 C 0.74671 1.01294 0.20166 0.0
C135 C 0.81569 0.03363 0.21834 0.0
H136 H 0.63799 0.99041 0.23999 0.0
H137 H 0.73659 0.99605 0.14925 0.0
C138 C 0.8255 0.05588 0.2872 0.0
C139 C 0.0736 0.69653 0.2878 0.0
C140 C 0.04607 0.71197 0.35583 0.0
H141 H 0.09541 0.73362 0.17727 0.0
C142 C 1.02634 0.78036 0.36635 0.0
H143 H 0.08768 0.64357 0.27835 0.0
C144 C 1.03119 0.83199 0.3091 0.0
C145 C 0.05422 0.81562 0.2397 0.0
H146 H 1.00411 0.79294 0.41842 0.0
H147 H 1.0136 0.88364 0.31879 0.0
C148 C 0.07702 0.74784 0.22993 0.0
C149 C 0.27964 0.95945 0.33392 0.0
C150 C 0.35353 0.96811 0.32085 0.0
H151 H 0.17939 0.97354 0.29376 0.0
C152 C 0.38296 0.99972 0.25392 0.0
H153 H 0.25531 0.93626 0.38515 0.0
C154 C 0.33929 0.02138 0.20091 0.0
C155 C 0.26525 1.01309 0.21429 0.0
H156 H 0.43979 1.00684 0.24232 0.0
H157 H 0.36352 0.04451 0.14956 0.0
C158 C 0.23614 0.98196 0.28161 0.0
C159 C 1.0107 0.76369 0.6683 0.0
C160 C 0.9745 0.69975 0.69802 0.0
H161 H 0.06271 0.86351 0.68764 0.0
C162 C 0.96384 0.6876 0.77286 0.0
H163 H 1.0192 0.77457 0.6107 0.0
C164 C 0.98971 0.73805 0.81709 0.0
C165 C 1.0261 0.80211 0.78735 0.0
H166 H 0.93678 0.63853 0.79716 0.0
H167 H 0.97992 0.72727 0.87463 0.0
C168 C 1.03583 0.81449 0.71239 0.0
C169 C 0.41602 0.06729 0.69657 0.0
C170 C 0.3962 0.08485 0.62705 0.0
H171 H 0.38181 0.0431 0.8081 0.0
C172 C 0.32516 0.09651 0.61869 0.0
H173 H 0.47029 0.05773 0.70502 0.0
C174 C 0.2746 0.08716 0.67733 0.0
C175 C 0.29352 0.06632 0.74633 0.0
H176 H 0.3078 0.11029 0.56621 0.0
H177 H 0.2202 0.09537 0.66808 0.0
C178 C 0.36524 0.05844 0.75567 0.0
C179 C 0.08522 0.37685 0.68439 0.0
C180 C 0.05731 0.35639 0.62134 0.0
H181 H 0.11007 0.34342 0.79054 0.0
C182 C 0.04048 0.28437 0.61362 0.0
H183 H 0.09721 0.43237 0.69185 0.0
C184 C 0.04796 0.23363 0.66941 0.0
C185 C 0.0708 0.25413 0.73486 0.0
H186 H 1.018 0.26768 0.56563 0.0
H187 H 1.03186 0.17879 0.66252 0.0
C188 C 0.09145 0.32606 0.74109 0.0
C189 C 0.80975 0.92764 0.66648 0.0
C190 C 0.73889 0.94232 0.68039 0.0
H191 H 0.91525 0.93808 0.69931 0.0
C192 C 0.72029 0.97923 0.74036 0.0
H193 H 0.82573 0.90004 0.62015 0.0
C194 C 0.77126 1.00126 0.78543 0.0
C195 C 0.84238 0.98769 0.7711 0.0
H196 H 0.66603 0.99101 0.75239 0.0
H197 H 0.75486 0.02925 0.8314 0.0
C198 C 0.86112 0.95049 0.71116 0.0
C199 C 0.31869 0.40423 0.97152 0.0
C200 C 0.39065 0.3923 0.96737 0.0
H201 H 0.21216 0.35945 0.9734 0.0
C202 C 0.41075 0.32428 0.95543 0.0
H203 H 0.30198 0.45592 0.98265 0.0
C204 C 0.35921 0.26807 0.95195 0.0
C205 C 0.28667 0.27908 0.9603 0.0
H206 H 0.46594 0.31347 0.95429 0.0
H207 H 0.37626 0.21555 0.94587 0.0
C208 C 0.26726 0.34852 0.96719 0.0
C209 C 0.39726 0.78357 0.02436 0.0
C210 C 0.37341 0.72315 0.07018 0.0
H211 H 0.37001 0.87989 0.96955 0.0
C212 C 0.30172 0.71328 0.09514 0.0
H213 H 0.45243 0.7922 0.00445 0.0
C214 C 0.25451 0.76199 0.07375 0.0
C215 C 0.27803 0.82272 0.02816 0.0
H216 H 0.28184 0.6668 0.12973 0.0
H217 H 0.19946 0.75234 0.09369 0.0
C218 C 0.35019 0.83353 0.00438 0.0
C219 C 0.71868 0.25889 0.07581 0.0
C220 C 0.72995 0.33228 0.05909 0.0
H221 H 0.75854 0.15741 0.06737 0.0
C222 C 0.79321 0.35953 0.01941 0.0
H223 H 0.67028 0.23622 0.10559 0.0
C224 C 0.84427 0.31432 0.99732 0.0
C225 C 0.83251 0.24072 0.01328 0.0
H226 H 0.80347 0.41597 0.00611 0.0
H227 H 0.8928 0.33702 0.96769 0.0
C228 C 0.76903 0.21367 0.05283 0.0
C229 C 0.79205 0.66704 0.03158 0.0
C230 C 0.7281 0.67621 1.00092 0.0
H231 H 0.89218 0.71439 0.05494 0.0
C232 C 0.71773 0.74185 0.96576 0.0
H233 H 0.80076 0.61695 0.05967 0.0
C234 C 0.7695 0.79866 0.96467 0.0
C235 C 0.83264 0.79007 0.9978 0.0
H236 H 0.66817 0.75036 0.94294 0.0
H237 H 0.75964 0.84946 0.93893 0.0
C238 C 0.84411 0.72303 0.02933 0.0
loop_
_geom_bond_atom_site_label_1
_geom_bond_atom_site_label_2
_geom_bond_distance
_geom_bond_site_symmetry_2
_ccdc_geom_bond_type
Cu0 N1 1.999 . S
Cu0 O6 1.974 . S
Cu0 N11 1.985 . S
Cu0 O20 1.959 . S
N1 Cu0 1.999 . S
N1 C3 1.263 . S
N1 C5 1.389 . S
N2 C3 1.358 . S
N2 C4 1.400 . S
C3 N1 1.263 . S
C3 N2 1.358 . S
C3 H9 0.930 1_455 S
C4 N2 1.400 . S
C4 C5 1.351 . S
C4 H21 0.930 . S
C5 N1 1.389 . S
C5 C4 1.351 . S
C5 H10 0.930 . S
O6 Cu0 1.974 . S
O6 C16 1.282 1_455 S
C7 O8 1.261 . S
C7 O20 1.251 1_655 S
O8 C7 1.261 . S
H9 C3 0.930 1_655 S
H10 C5 0.930 . S
N11 Cu0 1.985 . S
N11 C13 1.335 . S
N11 C14 1.390 1_455 S
N12 C13 1.345 . S
N12 C15 1.336 1_455 S
C13 N11 1.335 . S
C13 N12 1.345 . S
C13 H18 0.930 . S
C14 N11 1.390 1_655 S
C14 C15 1.346 . S
C14 H19 0.930 . S
C15 N12 1.336 1_655 S
C15 C14 1.346 . S
C15 H22 0.929 . S
C16 O6 1.282 1_655 S
C16 O17 1.216 . S
O17 C16 1.216 . S
H18 C13 0.930 . S
H19 C14 0.930 . S
O20 Cu0 1.959 . S
O20 C7 1.251 1_455 S
H21 C4 0.930 . S
H22 C15 0.929 . S
Cu23 N24 1.999 . S
Cu23 O29 1.974 . S
Cu23 N34 1.985 . S
Cu23 O43 1.959 . S
N24 Cu23 1.999 . S
N24 C26 1.263 . S
N24 C28 1.389 . S
N25 C26 1.358 . S
N25 C27 1.400 . S
C26 N24 1.263 . S
C26 N25 1.358 . S
C26 H32 0.930 1_565 S
C27 N25 1.400 . S
C27 C28 1.351 . S
C27 H44 0.930 . S
C28 N24 1.389 . S
C28 C27 1.351 . S
C28 H33 0.930 . S
O29 Cu23 1.974 . S
O29 C39 1.282 1_565 S
C30 O31 1.261 . S
C30 O43 1.251 1_545 S
O31 C30 1.261 . S
H32 C26 0.930 1_545 S
H33 C28 0.930 . S
N34 Cu23 1.985 . S
N34 C36 1.335 . S
N34 C37 1.390 1_565 S
N35 C36 1.345 . S
N35 C38 1.336 1_565 S
C36 N34 1.335 . S
C36 N35 1.345 . S
C36 H41 0.930 . S
C37 N34 1.390 1_545 S
C37 C38 1.346 . S
C37 H42 0.930 . S
C38 N35 1.336 1_545 S
C38 C37 1.346 . S
C38 H45 0.929 . S
C39 O29 1.282 1_545 S
C39 O40 1.216 . S
O40 C39 1.216 . S
H41 C36 0.930 . S
H42 C37 0.930 . S
O43 Cu23 1.959 . S
O43 C30 1.251 1_565 S
H44 C27 0.930 . S
H45 C38 0.929 . S
Cu46 N47 1.999 . S
Cu46 O52 1.974 . S
Cu46 N57 1.985 . S
Cu46 O66 1.959 . S
N47 Cu46 1.999 . S
N47 C49 1.263 . S
N47 C51 1.389 . S
N48 C49 1.358 . S
N48 C50 1.400 . S
C49 N47 1.263 . S
C49 N48 1.358 . S
C49 H55 0.930 1_556 S
C50 N48 1.400 . S
C50 C51 1.351 . S
C50 H67 0.930 . S
C51 N47 1.389 . S
C51 C50 1.351 . S
C51 H56 0.930 . S
O52 Cu46 1.974 . S
O52 C62 1.282 1_556 S
C53 O54 1.261 . S
C53 O66 1.251 1_554 S
O54 C53 1.261 . S
H55 C49 0.930 1_554 S
H56 C51 0.930 . S
N57 Cu46 1.985 . S
N57 C59 1.335 . S
N57 C60 1.390 1_556 S
N58 C59 1.345 . S
N58 C61 1.336 1_556 S
C59 N57 1.335 . S
C59 N58 1.345 . S
C59 H64 0.930 . S
C60 N57 1.390 1_554 S
C60 C61 1.346 . S
C60 H65 0.930 . S
C61 N58 1.336 1_554 S
C61 C60 1.346 . S
C61 H68 0.929 . S
C62 O52 1.282 1_554 S
C62 O63 1.216 . S
O63 C62 1.216 . S
H64 C59 0.930 . S
H65 C60 0.930 . S
O66 Cu46 1.959 . S
O66 C53 1.251 1_556 S
H67 C50 0.930 . S
H68 C61 0.929 . S
C69 O95 1.283 . S
C69 O113 1.283 . S
C70 O96 1.283 . S
C70 O111 1.283 1_455 S
C71 O97 1.284 1_455 S
C71 O114 1.282 . S
C72 O98 1.283 . S
C72 O112 1.283 . S
C73 O99 1.283 1_554 S
C73 O108 1.283 . S
C74 O100 1.283 . S
C74 O110 1.283 . S
C75 O101 1.283 . S
C75 O107 1.283 . S
C76 O102 1.283 . S
C76 O109 1.283 1_554 S
C77 O103 1.283 . S
C77 O118 1.283 . S
C78 O104 1.283 . S
C78 O116 1.283 . S
C79 O105 1.283 . S
C79 O117 1.283 . S
C80 O106 1.283 . S
C80 O115 1.283 . S
Eu81 O82 2.370 1_556 S
Eu81 O83 2.370 1_455 S
Eu81 O86 2.370 . S
Eu81 O87 2.370 1_456 S
Eu81 O95 2.363 . S
Eu81 O96 2.363 1_556 S
Eu81 O109 2.363 1_455 S
Eu81 O110 2.363 . S
O82 Eu81 2.370 1_554 S
O82 Eu84 2.370 1_554 S
O82 Eu89 2.365 1_445 S
O83 Eu81 2.370 1_655 S
O83 Eu85 2.369 1_556 S
O83 Eu88 2.370 1_655 S
Eu84 O82 2.370 1_556 S
Eu84 O86 2.370 . S
Eu84 O90 2.370 1_545 S
Eu84 O91 2.370 1_546 S
Eu84 O99 2.363 1_545 S
Eu84 O100 2.363 . S
Eu84 O115 2.363 . S
Eu84 O116 2.363 1_556 S
Eu85 O83 2.369 1_554 S
Eu85 O87 2.369 . S
Eu85 O92 2.371 1_545 S
Eu85 O93 2.371 1_544 S
Eu85 O101 2.364 1_545 S
Eu85 O102 2.362 . S
Eu85 O117 2.363 1_554 S
Eu85 O118 2.363 1_545 S
O86 Eu81 2.370 . S
O86 Eu84 2.370 . S
O86 Eu88 2.370 . S
O87 Eu81 2.370 1_654 S
O87 Eu85 2.369 . S
O87 Eu89 2.365 1_545 S
Eu88 O83 2.370 1_455 S
Eu88 O86 2.370 . S
Eu88 O90 2.370 1_545 S
Eu88 O93 2.370 1_445 S
Eu88 O105 2.363 1_455 S
Eu88 O106 2.363 . S
Eu88 O113 2.363 . S
Eu88 O114 2.363 1_545 S
Eu89 O82 2.365 1_665 S
Eu89 O87 2.365 1_565 S
Eu89 O91 2.376 1_655 S
Eu89 O92 2.375 . S
Eu89 O103 2.363 . S
Eu89 O104 2.363 1_665 S
Eu89 O111 2.354 1_565 S
Eu89 O112 2.371 . S
O90 Eu84 2.370 1_565 S
O90 Eu88 2.370 1_565 S
O90 Eu94 2.370 1_456 S
O91 Eu84 2.370 1_564 S
O91 Eu89 2.376 1_455 S
O91 Eu94 2.370 1_455 S
O92 Eu85 2.371 1_565 S
O92 Eu89 2.375 . S
O92 Eu94 2.370 . S
O93 Eu85 2.371 1_566 S
O93 Eu88 2.370 1_665 S
O93 Eu94 2.370 1_556 S
Eu94 O90 2.370 1_654 S
Eu94 O91 2.370 1_655 S
Eu94 O92 2.370 . S
Eu94 O93 2.370 1_554 S
Eu94 O97 2.363 1_554 S
Eu94 O98 2.363 . S
Eu94 O107 2.363 . S
Eu94 O108 2.363 1_655 S
O95 C69 1.283 . S
O95 Eu81 2.363 . S
O96 C70 1.283 . S
O96 Eu81 2.363 1_554 S
O97 C71 1.284 1_655 S
O97 Eu94 2.363 1_556 S
O98 C72 1.283 . S
O98 Eu94 2.363 . S
O99 C73 1.283 1_556 S
O99 Eu84 2.363 1_565 S
O100 C74 1.283 . S
O100 Eu84 2.363 . S
O101 C75 1.283 . S
O101 Eu85 2.364 1_565 S
O102 C76 1.283 . S
O102 Eu85 2.362 . S
O103 C77 1.283 . S
O103 Eu89 2.363 . S
O104 C78 1.283 . S
O104 Eu89 2.363 1_445 S
O105 C79 1.283 . S
O105 Eu88 2.363 1_655 S
O106 C80 1.283 . S
O106 Eu88 2.363 . S
O107 C75 1.283 . S
O107 Eu94 2.363 . S
O108 C73 1.283 . S
O108 Eu94 2.363 1_455 S
O109 C76 1.283 1_556 S
O109 Eu81 2.363 1_655 S
O110 C74 1.283 . S
O110 Eu81 2.363 . S
O111 C70 1.283 1_655 S
O111 Eu89 2.354 1_545 S
O112 C72 1.283 . S
O112 Eu89 2.371 . S
O113 C69 1.283 . S
O113 Eu88 2.363 . S
O114 C71 1.282 . S
O114 Eu88 2.363 1_565 S
O115 C80 1.283 . S
O115 Eu84 2.363 . S
O116 C78 1.283 . S
O116 Eu84 2.363 1_554 S
O117 C79 1.283 . S
O117 Eu85 2.363 1_556 S
O118 C77 1.283 . S
O118 Eu85 2.363 1_565 S
C119 C120 1.387 . S
C119 H123 0.950 . S
C119 C128 1.390 . S
C120 C119 1.387 . S
C120 C122 1.387 1_455 S
H121 C128 0.950 . S
C122 C120 1.387 1_655 S
C122 C124 1.390 . S
C122 H126 0.950 . S
H123 C119 0.950 . S
C124 C122 1.390 . S
C124 C125 1.387 1_655 S
C124 H127 0.950 . S
C125 C124 1.387 1_455 S
C125 C128 1.387 . S
H126 C122 0.950 . S
H127 C124 0.950 . S
C128 C119 1.390 . S
C128 H121 0.950 . S
C128 C125 1.387 . S
C129 C130 1.387 1_565 S
C129 H133 0.950 . S
C129 C138 1.390 . S
C130 C129 1.387 1_545 S
C130 C132 1.387 . S
H131 C138 0.950 . S
C132 C130 1.387 . S
C132 C134 1.390 . S
C132 H136 0.950 . S
H133 C129 0.950 . S
C134 C132 1.390 . S
C134 C135 1.387 1_545 S
C134 H137 0.950 . S
C135 C134 1.387 1_565 S
C135 C138 1.387 . S
H136 C132 0.950 . S
H137 C134 0.950 . S
C138 C129 1.390 . S
C138 H131 0.950 . S
C138 C135 1.387 . S
C139 C140 1.387 . S
C139 H143 0.950 . S
C139 C148 1.390 . S
C140 C139 1.387 . S
C140 C142 1.387 1_655 S
H141 C148 0.950 . S
C142 C140 1.387 1_455 S
C142 C144 1.390 . S
C142 H146 0.950 . S
H143 C139 0.950 . S
C144 C142 1.390 . S
C144 C145 1.387 1_455 S
C144 H147 0.950 . S
C145 C144 1.387 1_655 S
C145 C148 1.387 . S
H146 C142 0.950 . S
H147 C144 0.950 . S
C148 C139 1.390 . S
C148 H141 0.950 . S
C148 C145 1.387 . S
C149 C150 1.387 . S
C149 H153 0.950 . S
C149 C158 1.390 . S
C150 C149 1.387 . S
C150 C152 1.387 1_565 S
H151 C158 0.950 . S
C152 C150 1.387 1_545 S
C152 C154 1.390 . S
C152 H156 0.950 . S
H153 C149 0.950 . S
C154 C152 1.390 . S
C154 C155 1.387 . S
C154 H157 0.950 . S
C155 C154 1.387 . S
C155 C158 1.387 1_545 S
H156 C152 0.950 . S
H157 C154 0.950 . S
C158 C149 1.390 . S
C158 H151 0.950 . S
C158 C155 1.387 1_565 S
C159 C160 1.387 1_655 S
C159 H163 0.950 . S
C159 C168 1.390 . S
C160 C159 1.387 1_455 S
C160 C162 1.387 . S
H161 C168 0.950 . S
C162 C160 1.387 . S
C162 C164 1.390 . S
C162 H166 0.950 . S
H163 C159 0.950 . S
C164 C162 1.390 . S
C164 C165 1.387 . S
C164 H167 0.950 . S
C165 C164 1.387 . S
C165 C168 1.387 1_455 S
H166 C162 0.950 . S
H167 C164 0.950 . S
C168 C159 1.390 . S
C168 H161 0.950 . S
C168 C165 1.387 1_655 S
C169 C170 1.387 1_565 S
C169 H173 0.950 . S
C169 C178 1.390 . S
C170 C169 1.387 1_545 S
C170 C172 1.387 . S
H171 C178 0.950 . S
C172 C170 1.387 . S
C172 C174 1.390 . S
C172 H176 0.950 . S
H173 C169 0.950 . S
C174 C172 1.390 . S
C174 C175 1.387 . S
C174 H177 0.950 . S
C175 C174 1.387 . S
C175 C178 1.387 1_545 S
H176 C172 0.950 . S
H177 C174 0.950 . S
C178 C169 1.390 . S
C178 H171 0.950 . S
C178 C175 1.387 1_565 S
C179 C180 1.387 1_455 S
C179 H183 0.950 . S
C179 C188 1.390 . S
C180 C179 1.387 1_655 S
C180 C182 1.387 . S
H181 C188 0.950 . S
C182 C180 1.387 . S
C182 C184 1.390 . S
C182 H186 0.950 . S
H183 C179 0.950 . S
C184 C182 1.390 . S
C184 C185 1.387 1_655 S
C184 H187 0.950 . S
C185 C184 1.387 1_455 S
C185 C188 1.387 . S
H186 C182 0.950 . S
H187 C184 0.950 . S
C188 C179 1.390 . S
C188 H181 0.950 . S
C188 C185 1.387 . S
C189 C190 1.387 . S
C189 H193 0.950 . S
C189 C198 1.390 . S
C190 C189 1.387 . S
C190 C192 1.387 1_565 S
H191 C198 0.950 . S
C192 C190 1.387 1_545 S
C192 C194 1.390 . S
C192 H196 0.950 . S
H193 C189 0.950 . S
C194 C192 1.390 . S
C194 C195 1.387 . S
C194 H197 0.950 . S
C195 C194 1.387 . S
C195 C198 1.387 1_545 S
H196 C192 0.950 . S
H197 C194 0.950 . S
C198 C189 1.390 . S
C198 H191 0.950 . S
C198 C195 1.387 1_565 S
C199 C200 1.387 1_556 S
C199 H203 0.950 . S
C199 C208 1.390 . S
C200 C199 1.387 1_554 S
C200 C202 1.387 . S
H201 C208 0.950 . S
C202 C200 1.387 . S
C202 C204 1.390 . S
C202 H206 0.950 . S
H203 C199 0.950 . S
C204 C202 1.390 . S
C204 C205 1.387 1_554 S
C204 H207 0.950 . S
C205 C204 1.387 1_556 S
C205 C208 1.387 . S
H206 C202 0.950 . S
H207 C204 0.950 . S
C208 C199 1.390 . S
C208 H201 0.950 . S
C208 C205 1.387 . S
C209 C210 1.387 . S
C209 H213 0.950 . S
C209 C218 1.390 . S
C210 C209 1.387 . S
C210 C212 1.387 1_556 S
H211 C218 0.950 . S
C212 C210 1.387 1_554 S
C212 C214 1.390 . S
C212 H216 0.950 . S
H213 C209 0.950 . S
C214 C212 1.390 . S
C214 C215 1.387 1_554 S
C214 H217 0.950 . S
C215 C214 1.387 1_556 S
C215 C218 1.387 . S
H216 C212 0.950 . S
H217 C214 0.950 . S
C218 C209 1.390 . S
C218 H211 0.950 . S
C218 C215 1.387 . S
C219 C220 1.387 1_554 S
C219 H223 0.950 . S
C219 C228 1.390 . S
C220 C219 1.387 1_556 S
C220 C222 1.387 . S
H221 C228 0.950 . S
C222 C220 1.387 . S
C222 C224 1.390 . S
C222 H226 0.950 . S
H223 C219 0.950 . S
C224 C222 1.390 . S
C224 C225 1.387 . S
C224 H227 0.950 . S
C225 C224 1.387 . S
C225 C228 1.387 1_556 S
H226 C222 0.950 . S
H227 C224 0.950 . S
C228 C219 1.390 . S
C228 H221 0.950 . S
C228 C225 1.387 1_554 S
C229 C230 1.387 . S
C229 H233 0.950 . S
C229 C238 1.390 . S
C230 C229 1.387 . S
C230 C232 1.387 1_554 S
H231 C238 0.950 . S
C232 C230 1.387 1_556 S
C232 C234 1.390 . S
C232 H236 0.950 . S
H233 C229 0.950 . S
C234 C232 1.390 . S
C234 C235 1.387 1_556 S
C234 H237 0.950 . S
C235 C234 1.387 1_554 S
C235 C238 1.387 . S
H236 C232 0.950 . S
H237 C234 0.950 . S
C238 C229 1.390 . S
C238 H231 0.950 . S
C238 C235 1.387 . S
C125 C70 1.294 . S
C120 N2 1.248 . S
C135 C77 1.635 . S
C130 C39 1.633 . S
C145 C72 1.516 . S
C140 C7 1.506 . S
C155 C78 1.394 . S
C150 N35 1.330 . S
C160 N12 1.210 . S
C165 C71 1.277 . S
C175 C80 1.653 . S
C170 C30 1.648 . S
C180 C16 1.496 . S
C185 C69 1.502 . S
C190 N25 1.375 . S
C195 C79 1.418 . S
C200 C62 1.767 . S
C205 C74 1.777 . S
C210 N48 1.495 . S
C215 C73 1.553 1_556 S
C225 C76 1.534 1_556 S
C220 N58 1.453 . S
C235 C75 1.794 . S
C230 C53 1.782 . S
