# Generated by pormake.
# Topology tsx, (6,3)-cn, num edge types: 1
# Building blocks:
#     Node 0, Type 0, BuildingBlock: JUFBIX_clean_sbu_0, # of connection points: 6
#     Node 1, Type 0, BuildingBlock: JUFBIX_clean_sbu_0, # of connection points: 6
#     Node 2, Type 1, BuildingBlock: OLANEW_clean_sbu_2, # of connection points: 3
#     Node 3, Type 1, BuildingBlock: OLANEW_clean_sbu_2, # of connection points: 3
#     Node 4, Type 1, BuildingBlock: OLANEW_clean_sbu_2, # of connection points: 3
#     Node 5, Type 1, BuildingBlock: OLANEW_clean_sbu_2, # of connection points: 3
#     Edge 6, Type (0, 1), BuildingBlock: AJUNOK_clean_linker_0, # of connection points: 2
#     Edge 7, Type (0, 1), BuildingBlock: AJUNOK_clean_linker_0, # of connection points: 2
#     Edge 8, Type (0, 1), BuildingBlock: AJUNOK_clean_linker_0, # of connection points: 2
#     Edge 9, Type (0, 1), BuildingBlock: AJUNOK_clean_linker_0, # of connection points: 2
#     Edge 10, Type (0, 1), BuildingBlock: AJUNOK_clean_linker_0, # of connection points: 2
#     Edge 11, Type (0, 1), BuildingBlock: AJUNOK_clean_linker_0, # of connection points: 2
#     Edge 12, Type (0, 1), BuildingBlock: AJUNOK_clean_linker_0, # of connection points: 2
#     Edge 13, Type (0, 1), BuildingBlock: AJUNOK_clean_linker_0, # of connection points: 2
#     Edge 14, Type (0, 1), BuildingBlock: AJUNOK_clean_linker_0, # of connection points: 2
#     Edge 15, Type (0, 1), BuildingBlock: AJUNOK_clean_linker_0, # of connection points: 2
#     Edge 16, Type (0, 1), BuildingBlock: AJUNOK_clean_linker_0, # of connection points: 2
#     Edge 17, Type (0, 1), BuildingBlock: AJUNOK_clean_linker_0, # of connection points: 2
# Relax obj value: 0.060
# Max RMSD: 0.106
# Mean RMSD: 0.077
data_MOF--net-tsx--node1-JUFBIX_clean_sbu_0--node2-OLANEW_clean_sbu_2--edge1-AJUNOK_clean_linker_0
_symmetry_space_group_name_H-M    P1
_symmetry_Int_Tables_number       1
_symmetry_cell_setting            triclinic
loop_
_symmetry_equiv_pos_as_xyz
'x, y, z'
_cell_length_a     17.253414
_cell_length_b     20.185865
_cell_length_c     24.814154
_cell_angle_alpha  98.080526
_cell_angle_beta   88.367093
_cell_angle_gamma 102.62694
loop_
_atom_site_label
_atom_site_type_symbol
_atom_site_fract_x
_atom_site_fract_y
_atom_site_fract_z
_atom_type_partial_charge
Co0 Co 0.05479 0.97854 -0.00117 0.0
C1 C 0.99467 0.00617 0.90302 0.0
Co2 Co 0.96907 0.04593 0.01089 0.0
C3 C 0.13867 0.87045 0.00737 0.0
C4 C 0.18996 0.93585 0.94886 0.0
N5 N 0.12974 0.92539 0.98469 0.0
N6 N 0.20239 0.84659 0.98713 0.0
C7 C 0.2348 0.88774 0.95043 0.0
H8 H 0.09991 0.8491 0.0386 0.0
H9 H 0.20046 0.97591 0.9231 0.0
C10 C 0.03114 0.01728 0.10654 0.0
N11 N 0.89426 0.09946 0.02578 0.0
C12 C 0.87995 0.15023 -4e-05 0.0
C13 C 0.84312 0.09653 0.06808 0.0
N14 N 0.82282 0.17926 0.02512 0.0
C15 C 0.79961 0.14595 0.068 0.0
C16 C 0.90058 0.90618 0.00602 0.0
O17 O 0.07022 0.98284 0.07402 0.0
O18 O 0.98417 0.04855 0.08721 0.0
O19 O 0.88761 0.96626 0.01072 0.0
O20 O 0.97179 0.89849 0.0001 0.0
O21 O 0.95584 0.0427 0.93426 0.0
H22 H 0.83805 0.0609 0.0974 0.0
H23 H 0.91158 0.16639 0.9641 0.0
O24 O 0.03941 0.9742 0.92369 0.0
O25 O 0.13649 0.05941 -0.00223 0.0
O26 O 0.0504 0.12529 0.01102 0.0
C27 C 0.12167 0.119 0.00354 0.0
H28 H 0.28646 0.88251 0.92575 0.0
H29 H 0.75398 0.15636 0.09678 0.0
Co30 Co 0.55004 0.47464 0.50038 0.0
C31 C 0.49299 0.50364 0.40425 0.0
Co32 Co 0.46366 0.54147 0.51204 0.0
C33 C 0.63126 0.36485 0.50806 0.0
C34 C 0.69058 0.43574 0.45567 0.0
N35 N 0.62574 0.42209 0.48735 0.0
N36 N 0.6978 0.34346 0.4913 0.0
C37 C 0.73519 0.38764 0.45825 0.0
H38 H 0.58799 0.33985 0.53532 0.0
H39 H 0.70439 0.47786 0.43201 0.0
C40 C 0.5231 0.51165 0.60801 0.0
N41 N 0.38783 0.59409 0.52631 0.0
C42 C 0.37528 0.6469 0.50226 0.0
C43 C 0.33401 0.58819 0.56695 0.0
N44 N 0.3168 0.67445 0.52708 0.0
C45 C 0.29062 0.63781 0.56769 0.0
C46 C 0.39612 0.40121 0.50469 0.0
O47 O 0.56313 0.47795 0.57567 0.0
O48 O 0.47616 0.54282 0.58853 0.0
O49 O 0.38256 0.46112 0.50987 0.0
O50 O 0.46758 0.39411 0.49993 0.0
O51 O 0.45316 0.53955 0.43528 0.0
H52 H 0.32717 0.55046 0.59466 0.0
H53 H 0.40925 0.66566 0.46805 0.0
O54 O 0.53721 0.47134 0.42511 0.0
O55 O 0.63126 0.55609 0.50102 0.0
O56 O 0.54468 0.62153 0.51405 0.0
C57 C 0.61618 0.61559 0.50721 0.0
H58 H 0.78997 0.38437 0.43668 0.0
H59 H 0.24322 0.64625 0.59559 0.0
O60 O 0.08965 0.00146 0.36577 0.0
Cd61 Cd 0.07818 0.98177 0.46016 0.0
O62 O 0.96644 0.01479 0.36469 0.0
Cd63 Cd 0.94375 0.02559 0.452 0.0
O64 O 0.88926 0.1043 0.49717 0.0
C65 C 0.81545 0.09992 0.49065 0.0
O66 O 0.77356 0.04373 0.46313 0.0
C67 C 0.03071 0.00949 0.33982 0.0
C68 C 0.16564 0.88644 0.47952 0.0
O69 O 0.09823 0.86742 0.45536 0.0
O70 O 0.19227 0.95063 0.49446 0.0
O71 O 0.99316 0.05377 0.64719 0.0
Cd72 Cd 0.01269 0.05973 0.54971 0.0
O73 O 0.04459 0.9626 0.63904 0.0
Cd74 Cd 0.03148 0.94152 0.55138 0.0
O75 O 0.94071 0.85936 0.51057 0.0
C76 C 0.87007 0.86014 0.52601 0.0
O77 O 0.85739 0.91347 0.55917 0.0
C78 C 0.01687 0.00834 0.66898 0.0
C79 C 0.13576 0.16862 0.52903 0.0
O80 O 0.06369 0.17537 0.53424 0.0
O81 O 0.14992 0.10996 0.53378 0.0
O82 O 0.5905 0.50646 0.86744 0.0
Cd83 Cd 0.5852 0.48896 0.96233 0.0
O84 O 0.4641 0.51072 0.86746 0.0
Cd85 Cd 0.44731 0.5272 0.95533 0.0
O86 O 0.39737 0.61056 -0.00243 0.0
C87 C 0.32262 0.60517 -0.00341 0.0
O88 O 0.27749 0.54601 0.97667 0.0
C89 C 0.5286 0.50869 0.84185 0.0
C90 C 0.67105 0.3908 0.97746 0.0
O91 O 0.60174 0.37349 0.95594 0.0
O92 O 0.70005 0.45464 0.99233 0.0
O93 O 0.49824 0.55526 0.14913 0.0
Cd94 Cd 0.51913 0.56266 0.05196 0.0
O95 O 0.54686 0.46255 0.14049 0.0
Cd96 Cd 0.53645 0.44325 0.05255 0.0
O97 O 0.44727 0.36126 0.00985 0.0
C98 C 0.37584 0.3631 0.02231 0.0
O99 O 0.36188 0.41737 0.05364 0.0
C100 C 0.51999 0.50866 0.17061 0.0
C101 C 0.64119 0.67317 0.03292 0.0
O102 O 0.56887 0.67915 0.03844 0.0
O103 O 0.65607 0.61445 0.03651 0.0
C104 C 0.17175 0.24586 0.02189 0.0
C105 C 0.18651 0.18072 0.00302 0.0
C106 C 0.23275 0.3048 0.02556 0.0
C107 C 0.31105 0.30124 0.01022 0.0
H108 H 0.113 0.2514 0.03551 0.0
H109 H 0.21854 0.35333 0.04203 0.0
S110 S 0.37933 0.14384 0.95215 0.0
N111 N 0.28401 0.1167 0.96455 0.0
N112 N 0.39867 0.22751 0.97113 0.0
C113 C 0.32592 0.23683 0.98859 0.0
C114 C 0.26373 0.1766 0.9852 0.0
C115 C 0.31198 0.79131 0.0024 0.0
C116 C 0.23001 0.78806 -0.00063 0.0
C117 C 0.34128 0.73258 0.0057 0.0
C118 C 0.28964 0.66793 0.00521 0.0
H119 H 0.35387 0.83942 0.00036 0.0
H120 H 0.40509 0.73754 0.00555 0.0
S121 S 0.06917 0.63357 0.00385 0.0
N122 N 0.09726 0.71658 0.00081 0.0
N123 N 0.15189 0.60568 0.00685 0.0
C124 C 0.20721 0.66482 0.00569 0.0
C125 C 0.17746 0.725 0.00282 0.0
C126 C 0.84784 0.78134 0.01293 0.0
C127 C 0.83335 0.84667 0.00978 0.0
C128 C 0.78541 0.72547 0.01974 0.0
C129 C 0.70588 0.73256 0.02363 0.0
H130 H 0.908 0.77336 0.01104 0.0
H131 H 0.79991 0.67651 0.02262 0.0
S132 S 0.63529 0.89197 0.01487 0.0
N133 N 0.73265 0.91444 0.00896 0.0
N134 N 0.61601 0.80988 0.02173 0.0
C135 C 0.6904 0.79728 0.01935 0.0
C136 C 0.75386 0.85413 0.01245 0.0
C137 C 0.79762 0.29526 0.04592 0.0
C138 C 0.79145 0.23409 0.00995 0.0
C139 C 0.76094 0.34708 0.03407 0.0
C140 C 0.71488 0.33822 0.98666 0.0
H141 H 0.83026 0.30247 0.08369 0.0
H142 H 0.7662 0.3932 0.06316 0.0
S143 S 0.68209 0.18719 0.87928 0.0
N144 N 0.73885 0.16799 0.9247 0.0
N145 N 0.66711 0.2641 0.90292 0.0
C146 C 0.70913 0.27736 0.95015 0.0
C147 C 0.74821 0.22555 0.96166 0.0
C148 C 0.66631 0.74242 0.52709 0.0
C149 C 0.68098 0.67748 0.50739 0.0
C150 C 0.72724 0.80146 0.53081 0.0
C151 C 0.8053 0.79817 0.51457 0.0
H152 H 0.60768 0.7477 0.54121 0.0
H153 H 0.71317 0.84986 0.5478 0.0
S154 S 0.87345 0.64132 0.45498 0.0
N155 N 0.77834 0.61396 0.46783 0.0
N156 N 0.89273 0.72489 0.47441 0.0
C157 C 0.82011 0.73396 0.49241 0.0
C158 C 0.75807 0.67366 0.48905 0.0
C159 C 0.67303 0.21826 0.48734 0.0
C160 C 0.72218 0.28313 0.50209 0.0
C161 C 0.70215 0.15858 0.48738 0.0
C162 C 0.78129 0.16193 0.50254 0.0
H163 H 0.61349 0.21397 0.47246 0.0
H164 H 0.66349 0.10981 0.47267 0.0
S165 S 0.92777 0.32068 0.55471 0.0
N166 N 0.84894 0.34795 0.53888 0.0
N167 N 0.90408 0.23631 0.5404 0.0
C168 C 0.82848 0.22679 0.522 0.0
C169 C 0.79887 0.28731 0.52124 0.0
C170 C 0.34368 0.27752 0.51534 0.0
C171 C 0.32917 0.34119 0.50675 0.0
C172 C 0.28088 0.2217 0.52152 0.0
C173 C 0.20106 0.22726 0.51925 0.0
H174 H 0.404 0.27107 0.51864 0.0
H175 H 0.29523 0.17423 0.52917 0.0
S176 S 0.13104 0.38099 0.4923 0.0
N177 N 0.22875 0.40512 0.49265 0.0
N178 N 0.1113 0.30055 0.504 0.0
C179 C 0.18581 0.28999 0.50879 0.0
C180 C 0.24964 0.34679 0.50262 0.0
C181 C 0.24657 0.72458 0.46393 0.0
C182 C 0.28659 0.73066 0.5134 0.0
C183 C 0.20806 0.77572 0.45299 0.0
C184 C 0.21026 0.8352 0.49065 0.0
H185 H 0.24265 0.67885 0.43461 0.0
H186 H 0.17597 0.76849 0.41496 0.0
S187 S 0.30968 0.87534 0.62547 0.0
N188 N 0.32709 0.79985 0.59999 0.0
N189 N 0.25735 0.89746 0.57889 0.0
C190 C 0.25238 0.84259 0.53955 0.0
C191 C 0.28983 0.78981 0.5511 0.0
C192 C 0.98235 0.04628 0.20061 0.0
C193 C 0.03645 0.01807 0.16611 0.0
C194 C 0.98178 0.04372 0.25662 0.0
C195 C 0.03578 0.01347 0.28067 0.0
H196 H 0.9388 0.06946 0.18423 0.0
H197 H 0.93825 0.06555 0.28122 0.0
S198 S 0.19176 0.93433 0.20887 0.0
N199 N 0.14714 0.96032 0.16034 0.0
N200 N 0.14631 0.95612 0.26594 0.0
C201 C 0.09164 0.98655 0.247 0.0
C202 C 0.09185 0.98862 0.18968 0.0
C203 C 0.97703 0.05826 0.81944 0.0
C204 C 0.99317 0.00344 0.84321 0.0
C205 C 0.98485 0.05964 0.76308 0.0
C206 C 0.00888 0.00617 0.72851 0.0
H207 H 0.96064 0.10137 0.84469 0.0
H208 H 0.97297 0.1034 0.74668 0.0
S209 S 0.04995 0.84739 0.77053 0.0
N210 N 0.02842 0.89207 0.82768 0.0
N211 N 0.04312 0.89437 0.72232 0.0
C212 C 0.02248 0.94994 0.75183 0.0
C213 C 0.01454 0.94864 0.80899 0.0
C214 C 0.47092 0.53612 0.7018 0.0
C215 C 0.5284 0.51251 0.66757 0.0
C216 C 0.47182 0.53466 0.75794 0.0
C217 C 0.53077 0.51028 0.78235 0.0
H218 H 0.42386 0.55496 0.6851 0.0
H219 H 0.42583 0.55305 0.78241 0.0
S220 S 0.69628 0.44414 0.7111 0.0
N221 N 0.64695 0.46487 0.66226 0.0
N222 N 0.64893 0.46279 0.76806 0.0
C223 C 0.58952 0.48756 0.74882 0.0
C224 C 0.5882 0.48842 0.6914 0.0
C225 C 0.47831 0.55733 0.32098 0.0
C226 C 0.4929 0.50178 0.34448 0.0
C227 C 0.48725 0.55935 0.26475 0.0
C228 C 0.51084 0.50578 0.23002 0.0
H229 H 0.46225 0.6005 0.34636 0.0
H230 H 0.47653 0.60367 0.24857 0.0
S231 S 0.54807 0.3453 0.27133 0.0
N232 N 0.52636 0.38974 0.32855 0.0
N233 N 0.54304 0.39315 0.2234 0.0
C234 C 0.52293 0.44885 0.25307 0.0
C235 C 0.51393 0.44694 0.31012 0.0
loop_
_geom_bond_atom_site_label_1
_geom_bond_atom_site_label_2
_geom_bond_distance
_geom_bond_site_symmetry_2
_ccdc_geom_bond_type
Co0 N5 2.057 1_554 S
Co0 O17 2.021 . S
Co0 O20 2.062 1_455 S
Co0 O24 2.117 1_554 S
Co0 O25 2.020 1_565 S
C1 O21 1.259 . S
C1 O24 1.258 1_645 S
Co2 N11 2.057 . S
Co2 O18 2.117 . S
Co2 O19 2.020 1_545 S
Co2 O21 2.021 1_554 S
Co2 O26 2.062 1_655 S
C3 N5 1.316 1_554 S
C3 N6 1.347 1_554 S
C3 H8 0.931 . S
C4 N5 1.375 . S
C4 C7 1.350 . S
C4 H9 0.930 . S
N5 Co0 2.057 1_556 S
N5 C3 1.316 1_556 S
N5 C4 1.375 . S
N6 C3 1.347 1_556 S
N6 C7 1.373 . S
C7 C4 1.350 . S
C7 N6 1.373 . S
C7 H28 0.931 . S
H8 C3 0.931 . S
H9 C4 0.930 . S
C10 O17 1.259 1_545 S
C10 O18 1.258 1_455 S
N11 Co2 2.057 . S
N11 C12 1.316 . S
N11 C13 1.375 . S
C12 N11 1.316 . S
C12 N14 1.347 . S
C12 H23 0.931 1_554 S
C13 N11 1.375 . S
C13 C15 1.350 . S
C13 H22 0.930 . S
N14 C12 1.347 . S
N14 C15 1.373 . S
C15 C13 1.350 . S
C15 N14 1.373 . S
C15 H29 0.931 . S
C16 O19 1.256 . S
C16 O20 1.255 . S
O17 Co0 2.021 . S
O17 C10 1.259 1_565 S
O18 Co2 2.117 . S
O18 C10 1.258 1_655 S
O19 Co2 2.020 1_565 S
O19 C16 1.256 . S
O20 Co0 2.062 1_655 S
O20 C16 1.255 . S
O21 C1 1.259 . S
O21 Co2 2.021 1_556 S
H22 C13 0.930 . S
H23 C12 0.931 1_556 S
O24 Co0 2.117 1_556 S
O24 C1 1.258 1_465 S
O25 Co0 2.020 1_545 S
O25 C27 1.256 . S
O26 Co2 2.062 1_455 S
O26 C27 1.255 . S
C27 O25 1.256 . S
C27 O26 1.255 . S
H28 C7 0.931 . S
H29 C15 0.931 . S
Co30 N35 2.057 . S
Co30 O47 2.021 . S
Co30 O50 2.062 . S
Co30 O54 2.117 . S
Co30 O55 2.020 . S
C31 O51 1.259 . S
C31 O54 1.258 . S
Co32 N41 2.057 . S
Co32 O48 2.117 . S
Co32 O49 2.020 . S
Co32 O51 2.021 . S
Co32 O56 2.062 . S
C33 N35 1.316 . S
C33 N36 1.347 . S
C33 H38 0.931 . S
C34 N35 1.375 . S
C34 C37 1.350 . S
C34 H39 0.930 . S
N35 Co30 2.057 . S
N35 C33 1.316 . S
N35 C34 1.375 . S
N36 C33 1.347 . S
N36 C37 1.373 . S
C37 C34 1.350 . S
C37 N36 1.373 . S
C37 H58 0.931 . S
H38 C33 0.931 . S
H39 C34 0.930 . S
C40 O47 1.259 . S
C40 O48 1.258 . S
N41 Co32 2.057 . S
N41 C42 1.316 . S
N41 C43 1.375 . S
C42 N41 1.316 . S
C42 N44 1.347 . S
C42 H53 0.931 . S
C43 N41 1.375 . S
C43 C45 1.350 . S
C43 H52 0.930 . S
N44 C42 1.347 . S
N44 C45 1.373 . S
C45 C43 1.350 . S
C45 N44 1.373 . S
C45 H59 0.931 . S
C46 O49 1.256 . S
C46 O50 1.255 . S
O47 Co30 2.021 . S
O47 C40 1.259 . S
O48 Co32 2.117 . S
O48 C40 1.258 . S
O49 Co32 2.020 . S
O49 C46 1.256 . S
O50 Co30 2.062 . S
O50 C46 1.255 . S
O51 C31 1.259 . S
O51 Co32 2.021 . S
H52 C43 0.930 . S
H53 C42 0.931 . S
O54 Co30 2.117 . S
O54 C31 1.258 . S
O55 Co30 2.020 . S
O55 C57 1.256 . S
O56 Co32 2.062 . S
O56 C57 1.255 . S
C57 O55 1.256 . S
C57 O56 1.255 . S
H58 C37 0.931 . S
H59 C45 0.931 . S
O60 Cd61 2.300 1_565 S
O60 C67 1.275 1_565 S
Cd61 O60 2.300 1_545 S
Cd61 O69 2.381 1_545 S
Cd61 O70 2.378 1_545 S
O62 Cd63 2.385 . S
O62 C67 1.255 . S
Cd63 O62 2.385 . S
Cd63 O64 2.317 1_455 S
O64 Cd63 2.317 1_655 S
O64 C65 1.232 . S
C65 O64 1.232 . S
C65 O66 1.218 . S
O66 C65 1.218 . S
C67 O60 1.275 1_545 S
C67 O62 1.255 . S
C68 O69 1.258 . S
C68 O70 1.256 . S
O69 Cd61 2.381 1_565 S
O69 C68 1.258 . S
O70 Cd61 2.378 1_565 S
O70 C68 1.256 . S
O71 Cd72 2.300 . S
O71 C78 1.275 1_545 S
Cd72 O71 2.300 . S
Cd72 O80 2.381 . S
Cd72 O81 2.378 . S
O73 Cd74 2.385 . S
O73 C78 1.255 . S
Cd74 O73 2.385 . S
Cd74 O75 2.317 1_455 S
O75 Cd74 2.317 1_655 S
O75 C76 1.232 . S
C76 O75 1.232 . S
C76 O77 1.218 . S
O77 C76 1.218 . S
C78 O71 1.275 1_565 S
C78 O73 1.255 . S
C79 O80 1.258 . S
C79 O81 1.256 . S
O80 Cd72 2.381 . S
O80 C79 1.258 . S
O81 Cd72 2.378 . S
O81 C79 1.256 . S
O82 Cd83 2.300 . S
O82 C89 1.275 . S
Cd83 O82 2.300 . S
Cd83 O91 2.381 . S
Cd83 O92 2.378 1_556 S
O84 Cd85 2.385 . S
O84 C89 1.255 . S
Cd85 O84 2.385 . S
Cd85 O86 2.317 . S
O86 Cd85 2.317 . S
O86 C87 1.232 . S
C87 O86 1.232 . S
C87 O88 1.218 . S
O88 C87 1.218 . S
C89 O82 1.275 . S
C89 O84 1.255 . S
C90 O91 1.258 . S
C90 O92 1.256 1_556 S
O91 Cd83 2.381 . S
O91 C90 1.258 . S
O92 Cd83 2.378 1_554 S
O92 C90 1.256 1_554 S
O93 Cd94 2.300 . S
O93 C100 1.275 . S
Cd94 O93 2.300 . S
Cd94 O102 2.381 . S
Cd94 O103 2.378 1_554 S
O95 Cd96 2.385 . S
O95 C100 1.255 . S
Cd96 O95 2.385 . S
Cd96 O97 2.317 . S
O97 Cd96 2.317 . S
O97 C98 1.232 . S
C98 O97 1.232 . S
C98 O99 1.218 . S
O99 C98 1.218 . S
C100 O93 1.275 . S
C100 O95 1.255 . S
C101 O102 1.258 . S
C101 O103 1.256 1_554 S
O102 Cd94 2.381 . S
O102 C101 1.258 . S
O103 Cd94 2.378 1_556 S
O103 C101 1.256 1_556 S
C104 C105 1.369 . S
C104 C106 1.419 . S
C104 H108 0.930 . S
C105 C104 1.369 . S
C105 C114 1.429 1_554 S
C106 C104 1.419 . S
C106 C107 1.363 . S
C106 H109 0.929 . S
C107 C106 1.363 . S
C107 C113 1.428 1_554 S
H108 C104 0.930 . S
H109 C106 0.929 . S
S110 N111 1.613 . S
S110 N112 1.610 . S
N111 S110 1.613 . S
N111 C114 1.350 . S
N112 S110 1.610 . S
N112 C113 1.351 . S
C113 C107 1.428 1_556 S
C113 N112 1.351 . S
C113 C114 1.434 . S
C114 C105 1.429 1_556 S
C114 N111 1.350 . S
C114 C113 1.434 . S
C115 C116 1.369 1_556 S
C115 C117 1.419 . S
C115 H119 0.930 . S
C116 C115 1.369 1_554 S
C116 C125 1.429 . S
C117 C115 1.419 . S
C117 C118 1.363 . S
C117 H120 0.929 . S
C118 C117 1.363 . S
C118 C124 1.428 1_556 S
H119 C115 0.930 . S
H120 C117 0.929 . S
S121 N122 1.613 . S
S121 N123 1.610 . S
N122 S121 1.613 . S
N122 C125 1.350 . S
N123 S121 1.610 . S
N123 C124 1.351 . S
C124 C118 1.428 1_554 S
C124 N123 1.351 . S
C124 C125 1.434 . S
C125 C116 1.429 . S
C125 N122 1.350 . S
C125 C124 1.434 . S
C126 C127 1.369 1_556 S
C126 C128 1.419 . S
C126 H130 0.930 . S
C127 C126 1.369 1_554 S
C127 C136 1.429 . S
C128 C126 1.419 . S
C128 C129 1.363 1_556 S
C128 H131 0.929 . S
C129 C128 1.363 1_554 S
C129 C135 1.428 . S
H130 C126 0.930 . S
H131 C128 0.929 . S
S132 N133 1.613 . S
S132 N134 1.610 . S
N133 S132 1.613 . S
N133 C136 1.350 . S
N134 S132 1.610 . S
N134 C135 1.351 . S
C135 C129 1.428 . S
C135 N134 1.351 . S
C135 C136 1.434 . S
C136 C127 1.429 . S
C136 N133 1.350 . S
C136 C135 1.434 . S
C137 C138 1.369 . S
C137 C139 1.419 . S
C137 H141 0.930 . S
C138 C137 1.369 . S
C138 C147 1.429 1_554 S
C139 C137 1.419 . S
C139 C140 1.363 . S
C139 H142 0.929 . S
C140 C139 1.363 . S
C140 C146 1.428 1_554 S
H141 C137 0.930 . S
H142 C139 0.929 . S
S143 N144 1.613 . S
S143 N145 1.610 . S
N144 S143 1.613 . S
N144 C147 1.350 . S
N145 S143 1.610 . S
N145 C146 1.351 . S
C146 C140 1.428 1_556 S
C146 N145 1.351 . S
C146 C147 1.434 . S
C147 C138 1.429 1_556 S
C147 N144 1.350 . S
C147 C146 1.434 . S
C148 C149 1.369 . S
C148 C150 1.419 . S
C148 H152 0.930 . S
C149 C148 1.369 . S
C149 C158 1.429 . S
C150 C148 1.419 . S
C150 C151 1.363 . S
C150 H153 0.929 . S
C151 C150 1.363 . S
C151 C157 1.428 . S
H152 C148 0.930 . S
H153 C150 0.929 . S
S154 N155 1.613 . S
S154 N156 1.610 . S
N155 S154 1.613 . S
N155 C158 1.350 . S
N156 S154 1.610 . S
N156 C157 1.351 . S
C157 C151 1.428 . S
C157 N156 1.351 . S
C157 C158 1.434 . S
C158 C149 1.429 . S
C158 N155 1.350 . S
C158 C157 1.434 . S
C159 C160 1.369 . S
C159 C161 1.419 . S
C159 H163 0.930 . S
C160 C159 1.369 . S
C160 C169 1.429 . S
C161 C159 1.419 . S
C161 C162 1.363 . S
C161 H164 0.929 . S
C162 C161 1.363 . S
C162 C168 1.428 . S
H163 C159 0.930 . S
H164 C161 0.929 . S
S165 N166 1.613 . S
S165 N167 1.610 . S
N166 S165 1.613 . S
N166 C169 1.350 . S
N167 S165 1.610 . S
N167 C168 1.351 . S
C168 C162 1.428 . S
C168 N167 1.351 . S
C168 C169 1.434 . S
C169 C160 1.429 . S
C169 N166 1.350 . S
C169 C168 1.434 . S
C170 C171 1.369 . S
C170 C172 1.419 . S
C170 H174 0.930 . S
C171 C170 1.369 . S
C171 C180 1.429 . S
C172 C170 1.419 . S
C172 C173 1.363 . S
C172 H175 0.929 . S
C173 C172 1.363 . S
C173 C179 1.428 . S
H174 C170 0.930 . S
H175 C172 0.929 . S
S176 N177 1.613 . S
S176 N178 1.610 . S
N177 S176 1.613 . S
N177 C180 1.350 . S
N178 S176 1.610 . S
N178 C179 1.351 . S
C179 C173 1.428 . S
C179 N178 1.351 . S
C179 C180 1.434 . S
C180 C171 1.429 . S
C180 N177 1.350 . S
C180 C179 1.434 . S
C181 C182 1.369 . S
C181 C183 1.419 . S
C181 H185 0.930 . S
C182 C181 1.369 . S
C182 C191 1.429 . S
C183 C181 1.419 . S
C183 C184 1.363 . S
C183 H186 0.929 . S
C184 C183 1.363 . S
C184 C190 1.428 . S
H185 C181 0.930 . S
H186 C183 0.929 . S
S187 N188 1.613 . S
S187 N189 1.610 . S
N188 S187 1.613 . S
N188 C191 1.350 . S
N189 S187 1.610 . S
N189 C190 1.351 . S
C190 C184 1.428 . S
C190 N189 1.351 . S
C190 C191 1.434 . S
C191 C182 1.429 . S
C191 N188 1.350 . S
C191 C190 1.434 . S
C192 C193 1.369 1_655 S
C192 C194 1.419 . S
C192 H196 0.930 . S
C193 C192 1.369 1_455 S
C193 C202 1.429 1_545 S
C194 C192 1.419 . S
C194 C195 1.360 1_655 S
C194 H197 0.929 . S
C195 C194 1.360 1_455 S
C195 C201 1.431 1_545 S
H196 C192 0.930 . S
H197 C194 0.929 . S
S198 N199 1.613 . S
S198 N200 1.610 . S
N199 S198 1.613 . S
N199 C202 1.350 . S
N200 S198 1.610 . S
N200 C201 1.351 . S
C201 C195 1.431 1_565 S
C201 N200 1.351 . S
C201 C202 1.434 . S
C202 C193 1.429 1_565 S
C202 N199 1.350 . S
C202 C201 1.434 . S
C203 C204 1.365 1_545 S
C203 C205 1.419 . S
C203 H207 0.930 . S
C204 C203 1.365 1_565 S
C204 C213 1.431 1_455 S
C205 C203 1.419 . S
C205 C206 1.363 1_445 S
C205 H208 0.929 . S
C206 C205 1.363 1_665 S
C206 C212 1.428 . S
H207 C203 0.930 . S
H208 C205 0.929 . S
S209 N210 1.613 . S
S209 N211 1.610 . S
N210 S209 1.613 . S
N210 C213 1.350 . S
N211 S209 1.610 . S
N211 C212 1.351 . S
C212 C206 1.428 . S
C212 N211 1.351 . S
C212 C213 1.434 . S
C213 C204 1.431 1_655 S
C213 N210 1.350 . S
C213 C212 1.434 . S
C214 C215 1.369 . S
C214 C216 1.419 . S
C214 H218 0.930 . S
C215 C214 1.369 . S
C215 C224 1.429 . S
C216 C214 1.419 . S
C216 C217 1.363 . S
C216 H219 0.929 . S
C217 C216 1.363 . S
C217 C223 1.428 . S
H218 C214 0.930 . S
H219 C216 0.929 . S
S220 N221 1.613 . S
S220 N222 1.610 . S
N221 S220 1.613 . S
N221 C224 1.350 . S
N222 S220 1.610 . S
N222 C223 1.351 . S
C223 C217 1.428 . S
C223 N222 1.351 . S
C223 C224 1.434 . S
C224 C215 1.429 . S
C224 N221 1.350 . S
C224 C223 1.434 . S
C225 C226 1.369 . S
C225 C227 1.419 . S
C225 H229 0.930 . S
C226 C225 1.369 . S
C226 C235 1.429 . S
C227 C225 1.419 . S
C227 C228 1.363 . S
C227 H230 0.929 . S
C228 C227 1.363 . S
C228 C234 1.428 . S
H229 C225 0.930 . S
H230 C227 0.929 . S
S231 N232 1.613 . S
S231 N233 1.610 . S
N232 S231 1.613 . S
N232 C235 1.350 . S
N233 S231 1.610 . S
N233 C234 1.351 . S
C234 C228 1.428 . S
C234 N233 1.351 . S
C234 C235 1.434 . S
C235 C226 1.429 . S
C235 N232 1.350 . S
C235 C234 1.434 . S
C107 C98 1.263 . S
C105 C27 1.500 . S
C116 N6 1.436 1_554 S
C118 C87 1.257 . S
C127 C16 1.494 . S
C129 C101 1.452 . S
C138 N14 1.455 . S
C140 C90 1.437 1_554 S
C149 C57 1.500 . S
C151 C76 1.262 . S
C160 N36 1.431 . S
C162 C65 1.245 . S
C173 C79 1.454 . S
C171 C46 1.494 . S
C184 C68 1.442 . S
C182 N44 1.449 . S
C193 C10 1.454 . S
C195 C67 1.404 . S
C204 C1 1.534 1_465 S
C206 C78 1.483 1_655 S
C217 C89 1.402 . S
C215 C40 1.454 . S
C226 C31 1.534 . S
C228 C100 1.483 . S
