# Generated by pormake.
# Topology wbl, (4,4)-cn, num edge types: 1
# Building blocks:
#     Node 0, Type 0, BuildingBlock: MUDLON_clean_sbu_0, # of connection points: 4
#     Node 1, Type 0, BuildingBlock: MUDLON_clean_sbu_0, # of connection points: 4
#     Node 2, Type 0, BuildingBlock: MUDLON_clean_sbu_0, # of connection points: 4
#     Node 3, Type 0, BuildingBlock: MUDLON_clean_sbu_0, # of connection points: 4
#     Node 4, Type 0, BuildingBlock: MUDLON_clean_sbu_0, # of connection points: 4
#     Node 5, Type 0, BuildingBlock: MUDLON_clean_sbu_0, # of connection points: 4
#     Node 6, Type 0, BuildingBlock: MUDLON_clean_sbu_0, # of connection points: 4
#     Node 7, Type 0, BuildingBlock: MUDLON_clean_sbu_0, # of connection points: 4
#     Node 8, Type 1, BuildingBlock: NAHDIM_clean_sbu_0, # of connection points: 4
#     Node 9, Type 1, BuildingBlock: NAHDIM_clean_sbu_0, # of connection points: 4
#     Node 10, Type 1, BuildingBlock: NAHDIM_clean_sbu_0, # of connection points: 4
#     Node 11, Type 1, BuildingBlock: NAHDIM_clean_sbu_0, # of connection points: 4
#     Node 12, Type 1, BuildingBlock: NAHDIM_clean_sbu_0, # of connection points: 4
#     Node 13, Type 1, BuildingBlock: NAHDIM_clean_sbu_0, # of connection points: 4
#     Node 14, Type 1, BuildingBlock: NAHDIM_clean_sbu_0, # of connection points: 4
#     Node 15, Type 1, BuildingBlock: NAHDIM_clean_sbu_0, # of connection points: 4
#     Edge 16, Type (0, 1), None
#     Edge 17, Type (0, 1), None
#     Edge 18, Type (0, 1), None
#     Edge 19, Type (0, 1), None
#     Edge 20, Type (0, 1), None
#     Edge 21, Type (0, 1), None
#     Edge 22, Type (0, 1), None
#     Edge 23, Type (0, 1), None
#     Edge 24, Type (0, 1), None
#     Edge 25, Type (0, 1), None
#     Edge 26, Type (0, 1), None
#     Edge 27, Type (0, 1), None
#     Edge 28, Type (0, 1), None
#     Edge 29, Type (0, 1), None
#     Edge 30, Type (0, 1), None
#     Edge 31, Type (0, 1), None
#     Edge 32, Type (0, 1), None
#     Edge 33, Type (0, 1), None
#     Edge 34, Type (0, 1), None
#     Edge 35, Type (0, 1), None
#     Edge 36, Type (0, 1), None
#     Edge 37, Type (0, 1), None
#     Edge 38, Type (0, 1), None
#     Edge 39, Type (0, 1), None
#     Edge 40, Type (0, 1), None
#     Edge 41, Type (0, 1), None
#     Edge 42, Type (0, 1), None
#     Edge 43, Type (0, 1), None
#     Edge 44, Type (0, 1), None
#     Edge 45, Type (0, 1), None
#     Edge 46, Type (0, 1), None
#     Edge 47, Type (0, 1), None
# Relax obj value: 0.233
# Max RMSD: 0.232
# Mean RMSD: 0.186
data_MOF--net-wbl--node1-MUDLON_clean_sbu_0--node2-NAHDIM_clean_sbu_0--edge1-none
_symmetry_space_group_name_H-M    P1
_symmetry_Int_Tables_number       1
_symmetry_cell_setting            triclinic
loop_
_symmetry_equiv_pos_as_xyz
'x, y, z'
_cell_length_a     16.505319
_cell_length_b     17.097684
_cell_length_c     33.713356
_cell_angle_alpha  90.062981
_cell_angle_beta   89.213777
_cell_angle_gamma 89.676871
loop_
_atom_site_label
_atom_site_type_symbol
_atom_site_fract_x
_atom_site_fract_y
_atom_site_fract_z
_atom_type_partial_charge
Mg0 Mg 0.98882 -0.00547 0.33972 0.0
C1 C 0.068 0.87549 0.38921 0.0
O2 O 0.12953 0.90811 0.37077 0.0
C3 C 0.87727 0.07573 0.28387 0.0
O4 O 0.94527 0.11286 0.27654 0.0
C5 C 0.1119 0.92264 0.2844 0.0
O6 O 0.05984 0.86507 0.2874 0.0
O7 O 0.09556 -0.01213 0.30111 0.0
O8 O 0.9963 0.89383 0.37924 0.0
O9 O 0.98795 0.08531 0.38491 0.0
C10 C 0.93774 0.06681 0.41232 0.0
O11 O 0.89526 0.0026 0.40859 0.0
O12 O 0.8774 0.01785 0.30766 0.0
Mg13 Mg 0.95932 0.49183 0.58901 0.0
C14 C 0.05616 0.53205 0.65578 0.0
O15 O 0.9894 0.57397 0.65827 0.0
C16 C 0.97755 0.33202 0.5502 0.0
O17 O 0.04747 0.33267 0.56831 0.0
C18 C 0.03271 0.62391 0.5438 0.0
O19 O 0.09662 0.57885 0.54828 0.0
O20 O 0.96408 0.60161 0.55712 0.0
O21 O 0.06782 0.48846 0.62554 0.0
O22 O 0.86733 0.48224 0.63548 0.0
C23 C 0.88632 0.42287 0.65614 0.0
O24 O 0.94647 0.3779 0.64396 0.0
O25 O 0.93268 0.39238 0.55142 0.0
Mg26 Mg 0.49706 0.43962 0.84457 0.0
C27 C 0.43491 0.58231 0.88844 0.0
O28 O 0.36941 0.56642 0.8685 0.0
C29 C 0.60315 0.35666 0.78363 0.0
O30 O 0.53543 0.31958 0.77654 0.0
C31 C 0.36901 0.49501 0.78883 0.0
O32 O 0.42631 0.5461 0.7813 0.0
O33 O 0.38312 0.43898 0.81267 0.0
O34 O 0.50039 0.54616 0.88016 0.0
O35 O 0.51056 0.35582 0.8923 0.0
C36 C 0.56769 0.37861 0.91448 0.0
O37 O 0.60738 0.44241 0.90507 0.0
O38 O 0.6031 0.4136 0.80801 0.0
Mg39 Mg 0.49771 -0.01095 0.08532 0.0
C40 C 0.56753 0.0341 0.15834 0.0
O41 O 0.50309 0.07794 0.15281 0.0
C42 C 0.54012 0.83685 0.04186 0.0
O43 O 0.61188 0.84719 0.05731 0.0
C44 C 0.59281 0.11208 0.04356 0.0
O45 O 0.64835 0.05726 0.04683 0.0
O46 O 0.52047 0.09854 0.05515 0.0
O47 O 0.58905 -0.0143 0.13141 0.0
O48 O 0.3899 -0.01833 0.1227 0.0
C49 C 0.39983 0.9217 0.14443 0.0
O50 O 0.46253 0.87578 0.13747 0.0
O51 O 0.48547 0.88829 0.04697 0.0
Mg52 Mg 0.07102 0.44786 0.93921 0.0
C53 C 0.13727 0.57446 0.88749 0.0
O54 O 0.20361 0.55001 0.90458 0.0
C55 C 0.96616 0.37396 1.00308 0.0
O56 O 0.03527 0.3403 1.01192 0.0
C57 C 0.19887 0.51524 0.99057 0.0
O58 O 0.14308 0.57019 0.9929 0.0
O59 O 0.18379 0.45243 0.97179 0.0
O60 O 0.06916 0.54889 0.89962 0.0
O61 O 0.06055 0.35808 0.89421 0.0
C62 C 1.00184 0.37782 0.87217 0.0
O63 O 0.95992 0.44114 0.88098 0.0
O64 O 0.96438 0.42622 0.9762 0.0
Mg65 Mg 0.57327 0.49322 0.19365 0.0
C66 C 0.49627 0.53476 0.12059 0.0
O67 O 0.56295 0.57604 0.12231 0.0
C68 C 0.52663 0.34597 0.23922 0.0
O69 O 0.45392 0.36412 0.22671 0.0
C70 C 0.47677 0.61317 0.23725 0.0
O71 O 0.42378 0.55671 0.23356 0.0
O72 O 0.54941 0.60216 0.22509 0.0
O73 O 0.47746 0.49045 0.1496 0.0
O74 O 0.67786 0.48554 0.15383 0.0
C75 C 0.66644 0.4253 0.13246 0.0
O76 O 0.60605 0.37862 0.14159 0.0
O77 O 0.58538 0.391 0.23138 0.0
Mg78 Mg 0.481 -0.02615 0.44053 0.0
C79 C 0.56477 0.08694 0.39002 0.0
O80 O 0.62371 0.04754 0.40656 0.0
C81 C 0.36641 0.89577 0.4963 0.0
O82 O 0.43348 0.85605 0.50224 0.0
C83 C 0.60241 0.04616 0.49418 0.0
O84 O 0.55221 0.10526 0.48972 0.0
O85 O 0.58531 -0.01997 0.47908 0.0
O86 O 0.49199 0.07397 0.40092 0.0
O87 O 0.48326 0.88065 0.39655 0.0
C88 C 0.43777 0.89873 0.36772 0.0
O89 O 0.39719 0.96495 0.36909 0.0
O90 O 0.36801 0.95451 0.47309 0.0
Mg91 Mg 0.95398 0.9578 0.69709 0.0
C92 C 0.03578 0.92056 0.62361 0.0
O93 O 0.9681 0.88059 0.62411 0.0
C94 C 0.98727 0.11377 0.73517 0.0
O95 O 0.05311 0.10839 0.71301 0.0
C96 C 0.04053 0.8298 0.7377 0.0
O97 O 0.09932 0.87966 0.73092 0.0
O98 O 0.96857 0.84749 0.72774 0.0
O99 O 0.0538 0.96132 0.65384 0.0
O100 O 0.85246 0.97192 0.65728 0.0
C101 C 0.86801 0.032 0.63632 0.0
O102 O 0.93147 0.07445 0.64493 0.0
O103 O 0.93877 0.0567 0.73668 0.0
C104 C 0.28261 0.53349 1.00118 0.0
O105 O 0.3401 0.48132 0.99494 0.0
O106 O 0.4765 0.5757 0.05518 0.0
Zn107 Zn 0.42105 0.62968 1.01008 0.0
O108 O 0.46571 0.59867 0.95626 0.0
C109 C 0.51847 0.7607 0.02511 0.0
O110 O 0.57397 0.70567 0.02182 0.0
O111 O 0.30178 0.60331 1.01012 0.0
C112 C 0.42576 0.62265 0.92658 0.0
O113 O 0.36266 0.66847 0.9326 0.0
C114 C 0.4449 0.54457 0.08593 0.0
O115 O 0.36612 0.53566 0.08889 0.0
O116 O 0.44443 0.74377 0.01939 0.0
C117 C 0.19489 0.90645 0.27037 0.0
O118 O 0.2492 0.96221 0.27169 0.0
O119 O 0.3803 0.86235 0.20619 0.0
Zn120 Zn 0.33871 0.8185 0.25762 0.0
O121 O 0.38703 0.87369 0.30435 0.0
C122 C 0.44889 0.69177 0.24883 0.0
O123 O 0.49916 0.75088 0.24624 0.0
O124 O 0.21773 0.83649 0.26305 0.0
C125 C 0.42549 0.84676 0.33384 0.0
O126 O 0.44462 0.77226 0.3357 0.0
C127 C 0.35105 0.90778 0.18016 0.0
O128 O 0.27966 0.94066 0.18533 0.0
O129 O 0.37397 0.70495 0.25594 0.0
C130 C 0.28898 0.86495 0.51147 0.0
O131 O 0.28798 0.80169 0.53351 0.0
O132 O 0.05583 0.89161 0.5563 0.0
Zn133 Zn 0.11184 0.84571 0.50847 0.0
O134 O 0.04962 0.8646 0.45831 0.0
C135 C 0.04204 0.70291 0.52767 0.0
O136 O 0.97844 0.74914 0.52553 0.0
O137 O 0.22279 0.8932 0.49903 0.0
C138 C 0.08381 0.83758 0.42714 0.0
O139 O 0.15075 0.79647 0.43069 0.0
C140 C 0.0877 0.91562 0.58819 0.0
O141 O 0.16664 0.92225 0.59074 0.0
O142 O 0.11202 0.73008 0.51955 0.0
C143 C 0.28515 0.5131 0.77786 0.0
O144 O 0.2267 0.4653 0.78839 0.0
O145 O 0.08767 0.56444 0.72118 0.0
Zn146 Zn 0.14931 0.61413 0.76542 0.0
O147 O 0.10419 0.5876 0.81981 0.0
C148 C 0.05955 0.75107 0.7521 0.0
O149 O 1.00121 0.69977 0.75655 0.0
O150 O 0.26728 0.58082 0.76478 0.0
C151 C 0.14505 0.61278 0.84885 0.0
O152 O 0.20886 0.65628 0.84161 0.0
C153 C 0.114 0.53794 0.68813 0.0
O154 O 0.19216 0.53052 0.68133 0.0
O155 O 0.13291 0.72938 0.75622 0.0
C156 C 0.68459 0.06036 0.5084 0.0
O157 O 0.73768 0.00284 0.50799 0.0
O158 O 0.86154 0.09171 0.57412 0.0
Zn159 Zn 0.82895 0.14133 0.52277 0.0
O160 O 0.8805 0.08756 0.47558 0.0
C161 C 0.94462 0.25781 0.53583 0.0
O162 O 0.9889 0.19397 0.53825 0.0
O163 O 0.70831 0.12971 0.51556 0.0
C164 C 0.92276 0.1159 0.44725 0.0
O165 O 0.94387 0.18979 0.44747 0.0
C166 C 0.82531 0.04941 0.59972 0.0
O167 O 0.75133 0.02462 0.5939 0.0
O168 O 0.86997 0.2522 0.52704 0.0
C169 C 0.68029 0.32699 0.7673 0.0
O170 O 0.68207 0.28204 0.73569 0.0
O171 O 0.88849 0.36118 0.71792 0.0
Zn172 Zn 0.86119 0.31513 0.7709 0.0
O173 O 0.92695 0.36259 0.81425 0.0
C174 C 0.96206 0.18997 0.75116 0.0
O175 O 1.00965 0.25046 0.7458 0.0
O176 O 0.74533 0.3424 0.7853 0.0
C177 C 0.97694 0.33159 0.83805 0.0
O178 O 0.99714 0.2575 0.83481 0.0
C179 C 0.85108 0.40824 0.69539 0.0
O180 O 0.783 0.44162 0.70703 0.0
O181 O 0.89025 0.20091 0.76458 0.0
C182 C 0.89008 0.3446 0.02048 0.0
O183 O 0.8905 0.30194 0.05284 0.0
O184 O 0.67709 0.36596 0.07008 0.0
Zn185 Zn 0.70999 0.3232 0.01676 0.0
O186 O 0.64148 0.36771 0.97316 0.0
C187 C 0.61633 0.19167 0.03237 0.0
O188 O 0.564 0.2491 0.03742 0.0
O189 O 0.82428 0.35606 1.00225 0.0
C190 C 0.59442 0.33413 0.94891 0.0
O191 O 0.58021 0.25889 0.95153 0.0
C192 C 0.7089 0.41282 0.09459 0.0
O193 O 0.77634 0.44955 0.08567 0.0
O194 O 0.68875 0.20728 0.02149 0.0
C195 C 0.80065 0.10757 0.26877 0.0
O196 O 0.80125 0.16538 0.24317 0.0
O197 O 0.57616 0.08069 0.22344 0.0
Zn198 Zn 0.62164 0.12834 0.27266 0.0
O199 O 0.55416 0.10372 0.32119 0.0
C200 C 0.54198 0.26854 0.25643 0.0
O201 O 0.48164 0.21932 0.26045 0.0
O202 O 0.73387 0.08482 0.28371 0.0
C203 C 0.58351 0.12881 0.35341 0.0
O204 O 0.64953 0.17124 0.35185 0.0
C205 C 0.61142 0.04334 0.19543 0.0
O206 O 0.68801 0.02317 0.19802 0.0
O207 O 0.61408 0.24456 0.2624 0.0
loop_
_geom_bond_atom_site_label_1
_geom_bond_atom_site_label_2
_geom_bond_distance
_geom_bond_site_symmetry_2
_ccdc_geom_bond_type
Mg0 O7 2.141 1_545 S
Mg0 O8 2.048 1_545 S
Mg0 O9 2.048 1_455 S
Mg0 O12 2.141 1_455 S
C1 O2 1.313 . S
C1 O8 1.195 . S
O2 C1 1.313 . S
C3 O4 1.245 . S
C3 O12 1.289 . S
O4 C3 1.245 . S
C5 O6 1.245 . S
C5 O7 1.289 . S
O6 C5 1.245 . S
O7 Mg0 2.141 1_565 S
O7 C5 1.289 . S
O8 Mg0 2.048 1_565 S
O8 C1 1.195 . S
O9 Mg0 2.048 1_655 S
O9 C10 1.195 . S
C10 O9 1.195 . S
C10 O11 1.313 1_545 S
O11 C10 1.313 1_565 S
O12 Mg0 2.141 1_655 S
O12 C3 1.289 . S
Mg13 O20 2.141 1_655 S
Mg13 O21 2.048 1_655 S
Mg13 O22 2.048 . S
Mg13 O25 2.141 . S
C14 O15 1.313 . S
C14 O21 1.195 . S
O15 C14 1.313 . S
C16 O17 1.245 . S
C16 O25 1.289 . S
O17 C16 1.245 . S
C18 O19 1.245 . S
C18 O20 1.289 . S
O19 C18 1.245 . S
O20 Mg13 2.141 1_455 S
O20 C18 1.289 . S
O21 Mg13 2.048 1_455 S
O21 C14 1.195 . S
O22 Mg13 2.048 . S
O22 C23 1.195 . S
C23 O22 1.195 . S
C23 O24 1.313 1_655 S
O24 C23 1.313 1_455 S
O25 Mg13 2.141 . S
O25 C16 1.289 . S
Mg26 O33 2.141 . S
Mg26 O34 2.048 . S
Mg26 O35 2.048 . S
Mg26 O38 2.141 . S
C27 O28 1.313 . S
C27 O34 1.195 . S
O28 C27 1.313 . S
C29 O30 1.245 . S
C29 O38 1.289 . S
O30 C29 1.245 . S
C31 O32 1.245 . S
C31 O33 1.289 . S
O32 C31 1.245 . S
O33 Mg26 2.141 . S
O33 C31 1.289 . S
O34 Mg26 2.048 . S
O34 C27 1.195 . S
O35 Mg26 2.048 . S
O35 C36 1.195 . S
C36 O35 1.195 . S
C36 O37 1.313 . S
O37 C36 1.313 . S
O38 Mg26 2.141 . S
O38 C29 1.289 . S
Mg39 O46 2.141 . S
Mg39 O47 2.048 . S
Mg39 O48 2.048 1_545 S
Mg39 O51 2.141 1_545 S
C40 O41 1.313 . S
C40 O47 1.195 . S
O41 C40 1.313 . S
C42 O43 1.245 . S
C42 O51 1.289 . S
O43 C42 1.245 . S
C44 O45 1.245 . S
C44 O46 1.289 . S
O45 C44 1.245 . S
O46 Mg39 2.141 . S
O46 C44 1.289 . S
O47 Mg39 2.048 . S
O47 C40 1.195 . S
O48 Mg39 2.048 1_565 S
O48 C49 1.195 . S
C49 O48 1.195 . S
C49 O50 1.313 . S
O50 C49 1.313 . S
O51 Mg39 2.141 1_565 S
O51 C42 1.289 . S
Mg52 O59 2.141 . S
Mg52 O60 2.048 . S
Mg52 O61 2.048 1_455 S
Mg52 O64 2.141 1_455 S
C53 O54 1.313 . S
C53 O60 1.195 . S
O54 C53 1.313 . S
C55 O56 1.245 . S
C55 O64 1.289 . S
O56 C55 1.245 . S
C57 O58 1.245 . S
C57 O59 1.289 . S
O58 C57 1.245 . S
O59 Mg52 2.141 . S
O59 C57 1.289 . S
O60 Mg52 2.048 . S
O60 C53 1.195 . S
O61 Mg52 2.048 1_655 S
O61 C62 1.195 . S
C62 O61 1.195 . S
C62 O63 1.313 . S
O63 C62 1.313 . S
O64 Mg52 2.141 1_655 S
O64 C55 1.289 . S
Mg65 O72 2.141 . S
Mg65 O73 2.048 . S
Mg65 O74 2.048 . S
Mg65 O77 2.141 . S
C66 O67 1.313 . S
C66 O73 1.195 . S
O67 C66 1.313 . S
C68 O69 1.245 . S
C68 O77 1.289 . S
O69 C68 1.245 . S
C70 O71 1.245 . S
C70 O72 1.289 . S
O71 C70 1.245 . S
O72 Mg65 2.141 . S
O72 C70 1.289 . S
O73 Mg65 2.048 . S
O73 C66 1.195 . S
O74 Mg65 2.048 . S
O74 C75 1.195 . S
C75 O74 1.195 . S
C75 O76 1.313 . S
O76 C75 1.313 . S
O77 Mg65 2.141 . S
O77 C68 1.289 . S
Mg78 O85 2.141 1_565 S
Mg78 O86 2.048 1_565 S
Mg78 O87 2.048 . S
Mg78 O90 2.141 . S
C79 O80 1.313 . S
C79 O86 1.195 . S
O80 C79 1.313 . S
C81 O82 1.245 . S
C81 O90 1.289 . S
O82 C81 1.245 . S
C83 O84 1.245 . S
C83 O85 1.289 . S
O84 C83 1.245 . S
O85 Mg78 2.141 1_545 S
O85 C83 1.289 . S
O86 Mg78 2.048 1_545 S
O86 C79 1.195 . S
O87 Mg78 2.048 . S
O87 C88 1.195 . S
C88 O87 1.195 . S
C88 O89 1.313 1_565 S
O89 C88 1.313 1_545 S
O90 Mg78 2.141 . S
O90 C81 1.289 . S
Mg91 O98 2.141 1_655 S
Mg91 O99 2.048 1_655 S
Mg91 O100 2.048 1_565 S
Mg91 O103 2.141 1_565 S
C92 O93 1.313 . S
C92 O99 1.195 . S
O93 C92 1.313 . S
C94 O95 1.245 . S
C94 O103 1.289 . S
O95 C94 1.245 . S
C96 O97 1.245 . S
C96 O98 1.289 . S
O97 C96 1.245 . S
O98 Mg91 2.141 1_455 S
O98 C96 1.289 . S
O99 Mg91 2.048 1_455 S
O99 C92 1.195 . S
O100 Mg91 2.048 1_545 S
O100 C101 1.195 . S
C101 O100 1.195 . S
C101 O102 1.313 1_655 S
O102 C101 1.313 1_455 S
O103 Mg91 2.141 1_545 S
O103 C94 1.289 . S
C104 O105 1.160 . S
C104 O111 1.185 . S
O105 C104 1.160 . S
O106 Zn107 1.899 . S
O106 C114 1.284 . S
Zn107 O106 1.899 . S
Zn107 O108 2.032 1_554 S
Zn107 O111 2.086 1_554 S
Zn107 O116 1.977 . S
O108 Zn107 2.032 1_556 S
O108 C112 1.278 . S
C109 O110 1.203 . S
C109 O116 1.267 . S
O110 C109 1.203 . S
O111 C104 1.185 . S
O111 Zn107 2.086 1_556 S
C112 O108 1.278 . S
C112 O113 1.211 . S
O113 C112 1.211 . S
C114 O106 1.284 . S
C114 O115 1.273 . S
O115 C114 1.273 . S
O116 Zn107 1.977 . S
O116 C109 1.267 . S
C117 O118 1.160 . S
C117 O124 1.185 . S
O118 C117 1.160 . S
O119 Zn120 1.899 . S
O119 C127 1.284 . S
Zn120 O119 1.899 . S
Zn120 O121 2.032 . S
Zn120 O124 2.086 . S
Zn120 O129 1.977 . S
O121 Zn120 2.032 . S
O121 C125 1.278 . S
C122 O123 1.203 . S
C122 O129 1.267 . S
O123 C122 1.203 . S
O124 C117 1.185 . S
O124 Zn120 2.086 . S
C125 O121 1.278 . S
C125 O126 1.211 . S
O126 C125 1.211 . S
C127 O119 1.284 . S
C127 O128 1.273 . S
O128 C127 1.273 . S
O129 Zn120 1.977 . S
O129 C122 1.267 . S
C130 O131 1.160 . S
C130 O137 1.185 . S
O131 C130 1.160 . S
O132 Zn133 1.899 . S
O132 C140 1.284 . S
Zn133 O132 1.899 . S
Zn133 O134 2.032 . S
Zn133 O137 2.086 . S
Zn133 O142 1.977 . S
O134 Zn133 2.032 . S
O134 C138 1.278 . S
C135 O136 1.203 . S
C135 O142 1.267 . S
O136 C135 1.203 . S
O137 C130 1.185 . S
O137 Zn133 2.086 . S
C138 O134 1.278 . S
C138 O139 1.211 . S
O139 C138 1.211 . S
C140 O132 1.284 . S
C140 O141 1.273 . S
O141 C140 1.273 . S
O142 Zn133 1.977 . S
O142 C135 1.267 . S
C143 O144 1.160 . S
C143 O150 1.185 . S
O144 C143 1.160 . S
O145 Zn146 1.899 . S
O145 C153 1.284 . S
Zn146 O145 1.899 . S
Zn146 O147 2.032 . S
Zn146 O150 2.086 . S
Zn146 O155 1.977 . S
O147 Zn146 2.032 . S
O147 C151 1.278 . S
C148 O149 1.203 . S
C148 O155 1.267 . S
O149 C148 1.203 . S
O150 C143 1.185 . S
O150 Zn146 2.086 . S
C151 O147 1.278 . S
C151 O152 1.211 . S
O152 C151 1.211 . S
C153 O145 1.284 . S
C153 O154 1.273 . S
O154 C153 1.273 . S
O155 Zn146 1.977 . S
O155 C148 1.267 . S
C156 O157 1.160 . S
C156 O163 1.185 . S
O157 C156 1.160 . S
O158 Zn159 1.899 . S
O158 C166 1.284 . S
Zn159 O158 1.899 . S
Zn159 O160 2.032 . S
Zn159 O163 2.086 . S
Zn159 O168 1.977 . S
O160 Zn159 2.032 . S
O160 C164 1.278 . S
C161 O162 1.203 . S
C161 O168 1.267 . S
O162 C161 1.203 . S
O163 C156 1.185 . S
O163 Zn159 2.086 . S
C164 O160 1.278 . S
C164 O165 1.211 . S
O165 C164 1.211 . S
C166 O158 1.284 . S
C166 O167 1.273 . S
O167 C166 1.273 . S
O168 Zn159 1.977 . S
O168 C161 1.267 . S
C169 O170 1.160 . S
C169 O176 1.185 . S
O170 C169 1.160 . S
O171 Zn172 1.899 . S
O171 C179 1.284 . S
Zn172 O171 1.899 . S
Zn172 O173 2.032 . S
Zn172 O176 2.086 . S
Zn172 O181 1.977 . S
O173 Zn172 2.032 . S
O173 C177 1.278 . S
C174 O175 1.203 . S
C174 O181 1.267 . S
O175 C174 1.203 . S
O176 C169 1.185 . S
O176 Zn172 2.086 . S
C177 O173 1.278 . S
C177 O178 1.211 . S
O178 C177 1.211 . S
C179 O171 1.284 . S
C179 O180 1.273 . S
O180 C179 1.273 . S
O181 Zn172 1.977 . S
O181 C174 1.267 . S
C182 O183 1.160 . S
C182 O189 1.185 . S
O183 C182 1.160 . S
O184 Zn185 1.899 . S
O184 C192 1.284 . S
Zn185 O184 1.899 . S
Zn185 O186 2.032 1_554 S
Zn185 O189 2.086 1_554 S
Zn185 O194 1.977 . S
O186 Zn185 2.032 1_556 S
O186 C190 1.278 . S
C187 O188 1.203 . S
C187 O194 1.267 . S
O188 C187 1.203 . S
O189 C182 1.185 . S
O189 Zn185 2.086 1_556 S
C190 O186 1.278 . S
C190 O191 1.211 . S
O191 C190 1.211 . S
C192 O184 1.284 . S
C192 O193 1.273 . S
O193 C192 1.273 . S
O194 Zn185 1.977 . S
O194 C187 1.267 . S
C195 O196 1.160 . S
C195 O202 1.185 . S
O196 C195 1.160 . S
O197 Zn198 1.899 . S
O197 C205 1.284 . S
Zn198 O197 1.899 . S
Zn198 O199 2.032 . S
Zn198 O202 2.086 . S
Zn198 O207 1.977 . S
O199 Zn198 2.032 . S
O199 C203 1.278 . S
C200 O201 1.203 . S
C200 O207 1.267 . S
O201 C200 1.203 . S
O202 C195 1.185 . S
O202 Zn198 2.086 . S
C203 O199 1.278 . S
C203 O204 1.211 . S
O204 C203 1.211 . S
C205 O197 1.284 . S
C205 O206 1.273 . S
O206 C205 1.273 . S
O207 Zn198 1.977 . S
O207 C200 1.267 . S
C117 C5 1.427 . S
C135 C18 1.296 . S
C143 C31 1.427 . S
C42 C109 1.330 . S
C57 C104 1.426 . S
C70 C122 1.297 . S
C130 C81 1.493 . S
C148 C96 1.297 . S
C29 C169 1.492 . S
C187 C44 1.296 . S
C3 C195 1.492 . S
C161 C16 1.330 . S
C83 C156 1.427 . S
C94 C174 1.329 . S
C182 C55 1.493 . S
C68 C200 1.329 . S
C138 C1 1.637 . S
C153 C14 1.455 . S
C27 C112 1.635 . S
C49 C127 1.606 . S
C53 C151 1.636 . S
C114 C66 1.456 . S
C125 C88 1.820 . S
C140 C92 1.455 . S
C190 C36 1.819 . S
C205 C40 1.456 . S
C10 C164 1.817 . S
C179 C23 1.608 . S
C203 C79 1.634 . S
C101 C166 1.608 . S
C177 C62 1.819 . S
C192 C75 1.607 . S
