# Generated by pormake.
# Topology nia, (6,6)-cn, num edge types: 1
# Building blocks:
#     Node 0, Type 0, BuildingBlock: FUNLAD_clean_sbu_0, # of connection points: 6
#     Node 1, Type 0, BuildingBlock: FUNLAD_clean_sbu_0, # of connection points: 6
#     Node 2, Type 1, BuildingBlock: MIDCAF_clean_sbu_0, # of connection points: 6
#     Node 3, Type 1, BuildingBlock: MIDCAF_clean_sbu_0, # of connection points: 6
#     Edge 4, Type (0, 1), BuildingBlock: OJICUG_clean_linker_0, # of connection points: 2
#     Edge 5, Type (0, 1), BuildingBlock: OJICUG_clean_linker_0, # of connection points: 2
#     Edge 6, Type (0, 1), BuildingBlock: OJICUG_clean_linker_0, # of connection points: 2
#     Edge 7, Type (0, 1), BuildingBlock: OJICUG_clean_linker_0, # of connection points: 2
#     Edge 8, Type (0, 1), BuildingBlock: OJICUG_clean_linker_0, # of connection points: 2
#     Edge 9, Type (0, 1), BuildingBlock: OJICUG_clean_linker_0, # of connection points: 2
#     Edge 10, Type (0, 1), BuildingBlock: OJICUG_clean_linker_0, # of connection points: 2
#     Edge 11, Type (0, 1), BuildingBlock: OJICUG_clean_linker_0, # of connection points: 2
#     Edge 12, Type (0, 1), BuildingBlock: OJICUG_clean_linker_0, # of connection points: 2
#     Edge 13, Type (0, 1), BuildingBlock: OJICUG_clean_linker_0, # of connection points: 2
#     Edge 14, Type (0, 1), BuildingBlock: OJICUG_clean_linker_0, # of connection points: 2
#     Edge 15, Type (0, 1), BuildingBlock: OJICUG_clean_linker_0, # of connection points: 2
# Relax obj value: 0.171
# Max RMSD: 0.251
# Mean RMSD: 0.157
data_MOF--net-nia--node1-FUNLAD_clean_sbu_0--node2-MIDCAF_clean_sbu_0--edge1-OJICUG_clean_linker_0
_symmetry_space_group_name_H-M    P1
_symmetry_Int_Tables_number       1
_symmetry_cell_setting            triclinic
loop_
_symmetry_equiv_pos_as_xyz
'x, y, z'
_cell_length_a     18.379744
_cell_length_b     18.359623
_cell_length_c     25.361438
_cell_angle_alpha  99.367
_cell_angle_beta   99.23919
_cell_angle_gamma 116.08687
loop_
_atom_site_label
_atom_site_type_symbol
_atom_site_fract_x
_atom_site_fract_y
_atom_site_fract_z
_atom_type_partial_charge
C0 C 0.10157 0.96668 0.13743 0.0
N1 N 0.17411 0.04795 0.99935 0.0
C2 C 0.25555 0.0843 1.02884 0.0
C3 C 0.31867 0.10065 1.00146 0.0
C4 C 0.29761 0.08032 0.94334 0.0
C5 C 0.21319 0.04181 0.91386 0.0
C6 C 0.1519 0.02526 0.94292 0.0
Zn7 Zn 0.08342 0.03212 1.03928 0.0
C8 C 0.93963 0.85787 0.99547 0.0
N9 N 0.88824 0.99553 0.1179 0.0
C10 C 0.90986 0.01772 0.17431 0.0
C11 C 0.80703 0.95965 0.08807 0.0
C12 C 0.74348 0.94322 0.11506 0.0
C13 C 0.76389 0.96293 0.17314 0.0
C14 C 0.84812 0.00106 0.20299 0.0
Zn15 Zn 0.97922 0.01144 0.0783 0.0
O16 O 0.1386 0.99107 0.10044 0.0
C17 C 0.12323 0.18555 0.12254 0.0
O18 O 0.03365 0.96881 0.13783 0.0
H19 H 0.79141 0.94206 1.04331 0.0
H20 H 0.27163 0.10226 0.0736 0.0
H21 H 0.97501 0.04684 0.19718 0.0
O22 O 0.15407 0.15734 0.08827 0.0
O23 O 0.05105 0.13726 0.1273 0.0
H24 H 0.08659 -0.00423 0.92032 0.0
O25 O 0.9241 0.05247 1.01711 0.0
O26 O 0.02887 0.07452 0.97963 0.0
O27 O 0.90862 0.8863 1.02947 0.0
O28 O 0.01167 0.90618 0.99052 0.0
C29 C 0.96089 0.07652 0.97997 0.0
H30 H 0.38354 0.13148 1.02547 0.0
H31 H 0.19499 0.0252 0.86901 0.0
H32 H 0.67877 0.91266 0.09077 0.0
H33 H 0.8658 0.01715 0.24784 0.0
C34 C 0.08393 0.93359 0.49006 0.0
N35 N -0.01455 0.88834 0.62754 0.0
C36 C 0.93335 0.80569 0.6018 0.0
C37 C 0.90353 0.74848 0.63304 0.0
C38 C 0.92866 0.77686 0.69099 0.0
C39 C -0.01479 0.86137 0.71669 0.0
C40 C 0.01252 0.91676 0.68385 0.0
Zn41 Zn 0.01536 0.97359 0.58248 0.0
C42 C 0.19086 0.10634 0.62716 0.0
N43 N 0.07462 0.15448 0.48985 0.0
C44 C 0.055 0.12847 0.43355 0.0
C45 C 0.11166 0.23723 0.51698 0.0
C46 C 0.12921 0.29754 0.48726 0.0
C47 C 0.10948 0.27236 0.42926 0.0
C48 C 0.07289 0.18699 0.40218 0.0
Zn49 Zn 0.04577 0.06794 0.53415 0.0
O50 O 0.05648 0.90629 0.52971 0.0
C51 C 0.87007 0.93327 0.48914 0.0
O52 O 0.08484 0.00016 0.48182 0.0
H53 H 0.12722 0.2564 0.5617 0.0
H54 H 0.91287 0.78466 0.55709 0.0
H55 H 0.02491 0.0622 0.41284 0.0
O56 O 0.89277 0.907 0.52874 0.0
O57 O 0.92231 0.00139 0.48138 0.0
H58 H 0.05312 0.98298 0.70346 0.0
O59 O 0.00711 0.13585 0.58753 0.0
O60 O 0.97553 0.04188 0.63511 0.0
O61 O 0.16985 0.1341 0.58777 0.0
O62 O 0.13696 0.03926 0.63479 0.0
C63 C 0.97988 0.11004 0.6275 0.0
H64 H 0.86009 0.68301 0.61229 0.0
H65 H 0.00537 0.88464 0.76141 0.0
H66 H 0.15862 0.36336 0.50935 0.0
H67 H 0.05708 0.16588 0.35744 0.0
Zn68 Zn 0.29834 0.69491 0.20734 0.0
Zn69 Zn 0.36589 0.73273 0.40313 0.0
Zn70 Zn 0.33784 0.716 0.30658 0.0
C71 C 0.51765 0.77422 0.38774 0.0
C72 C 0.24879 0.56944 0.361 0.0
O73 O 0.26728 0.78368 0.28435 0.0
O74 O 0.19992 0.71438 0.19717 0.0
C75 C 0.46772 0.81208 0.2452 0.0
O76 O 0.4773 0.77735 0.34233 0.0
O77 O 0.47879 0.74502 0.42234 0.0
O78 O 0.27378 0.62624 0.40509 0.0
O79 O 0.27368 0.5881 0.31806 0.0
O80 O 0.40465 0.79036 0.20583 0.0
O81 O 0.45824 0.78307 0.28792 0.0
O82 O 0.27601 0.57921 0.26359 0.0
O83 O 0.28274 0.58138 0.17771 0.0
C84 C 0.26721 0.54094 0.21374 0.0
O85 O 0.27566 0.78288 0.34377 0.0
O86 O 0.34957 0.82864 0.43081 0.0
C87 C 0.21369 0.77011 0.23947 0.0
C88 C 0.29186 0.82441 0.39399 0.0
Zn89 Zn 0.76327 0.34694 0.91122 0.0
Zn90 Zn 0.69318 0.3198 0.71242 0.0
Zn91 Zn 0.72513 0.32884 0.81132 0.0
C92 C 0.7685 0.48597 0.75913 0.0
C93 C 0.54018 0.23596 0.7235 0.0
O94 O 0.79558 0.25994 0.83239 0.0
O95 O 0.8598 0.32496 0.92071 0.0
C96 C 0.79876 0.50191 0.90773 0.0
O97 O 0.78249 0.45841 0.80115 0.0
O98 O 0.72097 0.43547 0.71336 0.0
O99 O 0.57446 0.24201 0.68411 0.0
O100 O 0.58545 0.26513 0.7741 0.0
O101 O 0.7811 0.46063 0.94315 0.0
O102 O 0.78969 0.46417 0.85771 0.0
O103 O 0.60445 0.26109 0.82966 0.0
O104 O 0.65626 0.25199 0.91156 0.0
C105 C 0.59389 0.23105 0.87188 0.0
O106 O 0.79083 0.26554 0.77542 0.0
O107 O 0.77406 0.28644 0.69214 0.0
C108 C 0.84735 0.27118 0.87767 0.0
C109 C 0.8071 0.26209 0.72792 0.0
C110 C 0.21785 0.95376 0.19374 0.0
C111 C 0.13183 0.92738 0.17559 0.0
H112 H 0.31143 0.92539 0.23208 0.0
C113 C 0.07391 0.85684 0.18917 0.0
H114 H 0.26362 0.00803 0.1839 0.0
C115 C 0.1011 0.80857 0.21556 0.0
C116 C 0.18673 0.83234 0.23072 0.0
H117 H 0.00712 0.83505 0.17537 0.0
H118 H 0.05505 0.74998 0.22083 0.0
C119 C 0.24516 0.9072 0.22189 0.0
C120 C 0.33819 0.22231 0.65329 0.0
C121 C 0.27881 0.14671 0.66039 0.0
H122 H 0.46821 0.31009 0.66928 0.0
C123 C 0.30581 0.10611 0.69548 0.0
H124 H 0.3195 0.25537 0.62696 0.0
C125 C 0.39142 0.13757 0.71968 0.0
C126 C 0.45046 0.21038 0.70956 0.0
H127 H 0.26132 0.04766 0.70184 0.0
H128 H 0.41156 0.1027 0.74347 0.0
C129 C 0.42317 0.2537 0.67761 0.0
C130 C 0.23875 0.33188 0.13929 0.0
C131 C 0.16695 0.27561 0.1524 0.0
H132 H 0.32663 0.46057 0.14883 0.0
C133 C 0.13304 0.30742 0.19028 0.0
H134 H 0.2664 0.30952 0.11027 0.0
C135 C 0.16793 0.39409 0.21244 0.0
C136 C 0.23726 0.45001 0.19723 0.0
H137 H 0.07763 0.26565 0.20116 0.0
H138 H 0.13816 0.41745 0.23913 0.0
C139 C 0.27314 0.41829 0.16119 0.0
C140 C 0.90511 0.12215 0.70064 0.0
C141 C 0.94811 0.15602 0.66196 0.0
H142 H 0.82665 0.13053 0.75332 0.0
C143 C 0.95484 0.23179 0.65295 0.0
H144 H 0.89978 0.06417 0.70886 0.0
C145 C 0.91343 0.26904 0.67814 0.0
C146 C 0.86478 0.23175 0.71314 0.0
H147 H -0.01124 0.26043 0.62431 0.0
H148 H 0.9162 0.32522 0.66808 0.0
C149 C 0.86376 0.16013 0.72634 0.0
C150 C 0.69095 0.88692 0.23769 0.0
C151 C 0.69636 0.93855 0.20159 0.0
H152 H 0.61214 0.80437 0.27939 0.0
C153 C 0.63148 0.95813 0.18743 0.0
H154 H 0.74022 0.87055 0.24873 0.0
C155 C 0.55945 0.92175 0.20573 0.0
C156 C 0.55099 0.86486 0.23821 0.0
H157 H 0.63487 -0.00155 0.16006 0.0
H158 H 0.50837 0.93457 0.19195 0.0
C159 C 0.61819 0.84966 0.25557 0.0
C160 C 0.94012 0.68775 0.75238 0.0
C161 C 0.89219 0.71777 0.7236 0.0
H162 H 0.93654 0.58787 0.78733 0.0
C163 C 0.8057 0.68134 0.71839 0.0
H164 H 0.00697 0.71518 0.75627 0.0
C165 C 0.76602 0.61023 0.737 0.0
C166 C 0.81248 0.57486 0.76076 0.0
H167 H 0.7681 0.70414 0.69624 0.0
H168 H 0.69815 0.57853 0.72836 0.0
C169 C 0.90013 0.61586 0.77061 0.0
C170 C 0.15069 0.92139 0.41237 0.0
C171 C 0.12544 0.89573 0.45888 0.0
H172 H 0.22352 0.91802 0.35424 0.0
C173 C 0.14934 0.84113 0.47966 0.0
H174 H 0.13271 0.96329 0.39534 0.0
C175 C 0.20216 0.81742 0.45711 0.0
C176 C 0.23102 0.84643 0.41272 0.0
H177 H 0.13089 0.82004 0.5152 0.0
H178 H 0.22192 0.77734 0.47522 0.0
C179 C 0.20262 0.89597 0.38893 0.0
C180 C 0.42954 0.08441 0.92878 0.0
C181 C 0.36469 0.10396 0.91447 0.0
H182 H 0.55274 0.10812 0.92464 0.0
C183 C 0.36987 0.15489 0.87788 0.0
H184 H 0.42623 0.04442 0.95638 0.0
C185 C 0.44268 0.19199 0.85995 0.0
C186 C 0.51018 0.1775 0.87798 0.0
H187 H 0.32045 0.17094 0.86653 0.0
H188 H 0.44852 0.23662 0.8356 0.0
C189 C 0.50159 0.1207 0.91055 0.0
C190 C 0.1859 0.34764 0.36568 0.0
C191 C 0.12864 0.33649 0.39818 0.0
H192 H 0.27004 0.43282 0.32761 0.0
C193 C 0.09926 0.39476 0.40784 0.0
H194 H 0.20936 0.30321 0.35803 0.0
C195 C 0.13272 0.46745 0.38994 0.0
C196 C 0.19607 0.48289 0.36226 0.0
H197 H 0.05455 0.38671 0.43245 0.0
H198 H 0.1137 0.51466 0.40142 0.0
C199 C 0.22007 0.42115 0.34804 0.0
C200 C -0.01271 0.18417 0.92642 0.0
C201 C 0.92995 0.11476 0.94131 0.0
H202 H 0.00537 0.28984 0.89355 0.0
C203 C 0.84388 0.08854 0.92388 0.0
H204 H 0.05411 0.20577 0.93958 0.0
C205 C 0.81606 0.13445 0.8954 0.0
C206 C 0.87404 0.20847 0.88543 0.0
H207 H 0.79853 0.03507 0.93466 0.0
H208 H 0.74988 0.11669 0.886 0.0
C209 C 0.95961 0.23179 0.89963 0.0
C210 C 0.74942 0.925 0.42089 0.0
C211 C 0.78227 0.88731 0.45496 0.0
H212 H 0.63823 0.91839 0.37258 0.0
C213 C 0.72859 0.8072 0.45963 0.0
H214 H 0.7894 0.98675 0.41646 0.0
C215 C 0.64307 0.76799 0.43389 0.0
C216 C 0.60925 0.80784 0.40287 0.0
H217 H 0.752 0.77603 0.48499 0.0
H218 H 0.60257 0.70791 0.4404 0.0
C219 C 0.66321 0.88567 0.39528 0.0
C220 C 0.82567 0.71128 0.98054 0.0
C221 C 0.89675 0.76745 0.96668 0.0
H222 H 0.73926 0.58262 0.97256 0.0
C223 C 0.93127 0.73531 0.92948 0.0
H224 H 0.79766 0.73391 1.00914 0.0
C225 C 0.89754 0.64856 0.90861 0.0
C226 C 0.82884 0.59285 0.92438 0.0
H227 H -0.01367 0.77694 0.91822 0.0
H228 H 0.92799 0.62501 0.88275 0.0
C229 C 0.79245 0.62475 0.95988 0.0
loop_
_geom_bond_atom_site_label_1
_geom_bond_atom_site_label_2
_geom_bond_distance
_geom_bond_site_symmetry_2
_ccdc_geom_bond_type
C0 O16 1.251 1_565 S
C0 O18 1.254 . S
N1 C2 1.333 . S
N1 C6 1.307 . S
N1 Zn7 2.020 . S
C2 N1 1.333 . S
C2 C3 1.379 . S
C2 H20 0.952 1_556 S
C3 C2 1.379 . S
C3 C4 1.390 . S
C3 H30 0.949 . S
C4 C3 1.390 . S
C4 C5 1.357 . S
C5 C4 1.357 . S
C5 C6 1.370 . S
C5 H31 0.950 . S
C6 N1 1.307 . S
C6 C5 1.370 . S
C6 H24 0.948 . S
Zn7 N1 2.020 . S
Zn7 O16 2.039 1_556 S
Zn7 O22 2.034 1_556 S
Zn7 O26 2.025 . S
Zn7 O28 2.024 1_545 S
C8 O27 1.246 . S
C8 O28 1.249 1_655 S
N9 C10 1.307 . S
N9 C11 1.333 . S
N9 Zn15 2.020 1_565 S
C10 N9 1.307 . S
C10 C14 1.370 . S
C10 H21 0.948 . S
C11 N9 1.333 . S
C11 C12 1.379 . S
C11 H19 0.952 . S
C12 C11 1.379 . S
C12 C13 1.390 . S
C12 H32 0.949 . S
C13 C12 1.390 . S
C13 C14 1.357 . S
C14 C10 1.370 . S
C14 C13 1.357 . S
C14 H33 0.950 . S
Zn15 N9 2.020 1_545 S
Zn15 O18 2.025 1_645 S
Zn15 O23 2.024 1_655 S
Zn15 O25 2.039 1_554 S
Zn15 O27 2.034 1_544 S
O16 C0 1.251 1_545 S
O16 Zn7 2.039 1_554 S
C17 O22 1.246 . S
C17 O23 1.249 . S
O18 C0 1.254 . S
O18 Zn15 2.025 1_465 S
H19 C11 0.952 . S
H20 C2 0.952 1_554 S
H21 C10 0.948 . S
O22 Zn7 2.034 1_554 S
O22 C17 1.246 . S
O23 Zn15 2.024 1_455 S
O23 C17 1.249 . S
H24 C6 0.948 . S
O25 Zn15 2.039 1_556 S
O25 C29 1.251 . S
O26 Zn7 2.025 . S
O26 C29 1.254 1_455 S
O27 C8 1.246 . S
O27 Zn15 2.034 1_566 S
O28 Zn7 2.024 1_565 S
O28 C8 1.249 1_455 S
C29 O25 1.251 . S
C29 O26 1.254 1_655 S
H30 C3 0.949 . S
H31 C5 0.950 . S
H32 C12 0.949 . S
H33 C14 0.950 . S
C34 O50 1.251 . S
C34 O52 1.254 1_565 S
N35 C36 1.333 . S
N35 C40 1.307 . S
N35 Zn41 2.020 1_655 S
C36 N35 1.333 . S
C36 C37 1.379 . S
C36 H54 0.952 . S
C37 C36 1.379 . S
C37 C38 1.390 . S
C37 H64 0.949 . S
C38 C37 1.390 . S
C38 C39 1.357 . S
C39 C38 1.357 . S
C39 C40 1.370 . S
C39 H65 0.950 . S
C40 N35 1.307 . S
C40 C39 1.370 . S
C40 H58 0.948 . S
Zn41 N35 2.020 1_455 S
Zn41 O50 2.039 . S
Zn41 O56 2.034 1_455 S
Zn41 O60 2.025 1_465 S
Zn41 O62 2.024 1_565 S
C42 O61 1.246 . S
C42 O62 1.249 . S
N43 C44 1.307 . S
N43 C45 1.333 . S
N43 Zn49 2.020 . S
C44 N43 1.307 . S
C44 C48 1.370 . S
C44 H55 0.948 . S
C45 N43 1.333 . S
C45 C46 1.379 . S
C45 H53 0.952 . S
C46 C45 1.379 . S
C46 C47 1.390 . S
C46 H66 0.949 . S
C47 C46 1.390 . S
C47 C48 1.357 . S
C48 C44 1.370 . S
C48 C47 1.357 . S
C48 H67 0.950 . S
Zn49 N43 2.020 . S
Zn49 O52 2.025 . S
Zn49 O57 2.024 1_455 S
Zn49 O59 2.039 . S
Zn49 O61 2.034 . S
O50 C34 1.251 . S
O50 Zn41 2.039 . S
C51 O56 1.246 . S
C51 O57 1.249 1_565 S
O52 C34 1.254 1_545 S
O52 Zn49 2.025 . S
H53 C45 0.952 . S
H54 C36 0.952 . S
H55 C44 0.948 . S
O56 Zn41 2.034 1_655 S
O56 C51 1.246 . S
O57 Zn49 2.024 1_655 S
O57 C51 1.249 1_545 S
H58 C40 0.948 . S
O59 Zn49 2.039 . S
O59 C63 1.251 1_455 S
O60 Zn41 2.025 1_645 S
O60 C63 1.254 . S
O61 C42 1.246 . S
O61 Zn49 2.034 . S
O62 Zn41 2.024 1_545 S
O62 C42 1.249 . S
C63 O59 1.251 1_655 S
C63 O60 1.254 . S
H64 C37 0.949 . S
H65 C39 0.950 . S
H66 C46 0.949 . S
H67 C48 0.950 . S
Zn68 O74 1.920 . S
Zn68 O80 1.898 . S
Zn68 O83 1.905 . S
Zn69 O77 1.905 . S
Zn69 O78 1.898 . S
Zn69 O86 1.920 . S
Zn70 O73 2.080 . S
Zn70 O76 2.114 . S
Zn70 O79 2.120 . S
Zn70 O81 2.120 . S
Zn70 O82 2.114 . S
Zn70 O85 2.080 . S
C71 O76 1.166 . S
C71 O77 1.182 . S
C72 O78 1.167 . S
C72 O79 1.299 . S
O73 Zn70 2.080 . S
O73 C87 1.305 . S
O74 Zn68 1.920 . S
O74 C87 1.234 . S
C75 O80 1.167 . S
C75 O81 1.299 . S
O76 Zn70 2.114 . S
O76 C71 1.166 . S
O77 Zn69 1.905 . S
O77 C71 1.182 . S
O78 Zn69 1.898 . S
O78 C72 1.167 . S
O79 Zn70 2.120 . S
O79 C72 1.299 . S
O80 Zn68 1.898 . S
O80 C75 1.167 . S
O81 Zn70 2.120 . S
O81 C75 1.299 . S
O82 Zn70 2.114 . S
O82 C84 1.166 . S
O83 Zn68 1.905 . S
O83 C84 1.182 . S
C84 O82 1.166 . S
C84 O83 1.182 . S
O85 Zn70 2.080 . S
O85 C88 1.305 . S
O86 Zn69 1.920 . S
O86 C88 1.234 . S
C87 O73 1.305 . S
C87 O74 1.234 . S
C88 O85 1.305 . S
C88 O86 1.234 . S
Zn89 O95 1.920 . S
Zn89 O101 1.898 . S
Zn89 O104 1.905 . S
Zn90 O98 1.905 . S
Zn90 O99 1.898 . S
Zn90 O107 1.920 . S
Zn91 O94 2.080 . S
Zn91 O97 2.114 . S
Zn91 O100 2.120 . S
Zn91 O102 2.120 . S
Zn91 O103 2.114 . S
Zn91 O106 2.080 . S
C92 O97 1.166 . S
C92 O98 1.182 . S
C93 O99 1.167 . S
C93 O100 1.299 . S
O94 Zn91 2.080 . S
O94 C108 1.305 . S
O95 Zn89 1.920 . S
O95 C108 1.234 . S
C96 O101 1.167 . S
C96 O102 1.299 . S
O97 Zn91 2.114 . S
O97 C92 1.166 . S
O98 Zn90 1.905 . S
O98 C92 1.182 . S
O99 Zn90 1.898 . S
O99 C93 1.167 . S
O100 Zn91 2.120 . S
O100 C93 1.299 . S
O101 Zn89 1.898 . S
O101 C96 1.167 . S
O102 Zn91 2.120 . S
O102 C96 1.299 . S
O103 Zn91 2.114 . S
O103 C105 1.166 . S
O104 Zn89 1.905 . S
O104 C105 1.182 . S
C105 O103 1.166 . S
C105 O104 1.182 . S
O106 Zn91 2.080 . S
O106 C109 1.305 . S
O107 Zn90 1.920 . S
O107 C109 1.234 . S
C108 O94 1.305 . S
C108 O95 1.234 . S
C109 O106 1.305 . S
C109 O107 1.234 . S
C110 C111 1.387 . S
C110 H114 0.950 1_565 S
C110 C119 1.390 . S
C111 C110 1.387 . S
C111 C113 1.387 . S
H112 C119 0.950 . S
C113 C111 1.387 . S
C113 C115 1.390 . S
C113 H117 0.950 . S
H114 C110 0.950 1_545 S
C115 C113 1.390 . S
C115 C116 1.387 . S
C115 H118 0.950 . S
C116 C115 1.387 . S
C116 C119 1.387 . S
H117 C113 0.950 . S
H118 C115 0.950 . S
C119 C110 1.390 . S
C119 H112 0.950 . S
C119 C116 1.387 . S
C120 C121 1.387 . S
C120 H124 0.950 . S
C120 C129 1.390 . S
C121 C120 1.387 . S
C121 C123 1.387 . S
H122 C129 0.950 . S
C123 C121 1.387 . S
C123 C125 1.390 . S
C123 H127 0.950 . S
H124 C120 0.950 . S
C125 C123 1.390 . S
C125 C126 1.387 . S
C125 H128 0.950 . S
C126 C125 1.387 . S
C126 C129 1.387 . S
H127 C123 0.950 . S
H128 C125 0.950 . S
C129 C120 1.390 . S
C129 H122 0.950 . S
C129 C126 1.387 . S
C130 C131 1.387 . S
C130 H134 0.950 . S
C130 C139 1.390 . S
C131 C130 1.387 . S
C131 C133 1.387 . S
H132 C139 0.950 . S
C133 C131 1.387 . S
C133 C135 1.390 . S
C133 H137 0.950 . S
H134 C130 0.950 . S
C135 C133 1.390 . S
C135 C136 1.387 . S
C135 H138 0.950 . S
C136 C135 1.387 . S
C136 C139 1.387 . S
H137 C133 0.950 . S
H138 C135 0.950 . S
C139 C130 1.390 . S
C139 H132 0.950 . S
C139 C136 1.387 . S
C140 C141 1.387 . S
C140 H144 0.950 . S
C140 C149 1.390 . S
C141 C140 1.387 . S
C141 C143 1.387 . S
H142 C149 0.950 . S
C143 C141 1.387 . S
C143 C145 1.390 . S
C143 H147 0.950 1_655 S
H144 C140 0.950 . S
C145 C143 1.390 . S
C145 C146 1.387 . S
C145 H148 0.950 . S
C146 C145 1.387 . S
C146 C149 1.387 . S
H147 C143 0.950 1_455 S
H148 C145 0.950 . S
C149 C140 1.390 . S
C149 H142 0.950 . S
C149 C146 1.387 . S
C150 C151 1.387 . S
C150 H154 0.950 . S
C150 C159 1.390 . S
C151 C150 1.387 . S
C151 C153 1.387 . S
H152 C159 0.950 . S
C153 C151 1.387 . S
C153 C155 1.390 . S
C153 H157 0.950 1_565 S
H154 C150 0.950 . S
C155 C153 1.390 . S
C155 C156 1.387 . S
C155 H158 0.950 . S
C156 C155 1.387 . S
C156 C159 1.387 . S
H157 C153 0.950 1_545 S
H158 C155 0.950 . S
C159 C150 1.390 . S
C159 H152 0.950 . S
C159 C156 1.387 . S
C160 C161 1.387 . S
C160 H164 0.950 . S
C160 C169 1.390 . S
C161 C160 1.387 . S
C161 C163 1.387 . S
H162 C169 0.950 . S
C163 C161 1.387 . S
C163 C165 1.390 . S
C163 H167 0.950 . S
H164 C160 0.950 . S
C165 C163 1.390 . S
C165 C166 1.387 . S
C165 H168 0.950 . S
C166 C165 1.387 . S
C166 C169 1.387 . S
H167 C163 0.950 . S
H168 C165 0.950 . S
C169 C160 1.390 . S
C169 H162 0.950 . S
C169 C166 1.387 . S
C170 C171 1.387 . S
C170 H174 0.950 1_565 S
C170 C179 1.390 . S
C171 C170 1.387 . S
C171 C173 1.387 . S
H172 C179 0.950 1_545 S
C173 C171 1.387 . S
C173 C175 1.390 . S
C173 H177 0.950 . S
H174 C170 0.950 1_545 S
C175 C173 1.390 . S
C175 C176 1.387 . S
C175 H178 0.950 . S
C176 C175 1.387 . S
C176 C179 1.387 . S
H177 C173 0.950 . S
H178 C175 0.950 . S
C179 C170 1.390 . S
C179 H172 0.950 1_565 S
C179 C176 1.387 . S
C180 C181 1.387 . S
C180 H184 0.950 . S
C180 C189 1.390 . S
C181 C180 1.387 . S
C181 C183 1.387 . S
H182 C189 0.950 . S
C183 C181 1.387 . S
C183 C185 1.390 . S
C183 H187 0.950 . S
H184 C180 0.950 . S
C185 C183 1.390 . S
C185 C186 1.387 . S
C185 H188 0.950 . S
C186 C185 1.387 . S
C186 C189 1.387 . S
H187 C183 0.950 . S
H188 C185 0.950 . S
C189 C180 1.390 . S
C189 H182 0.950 . S
C189 C186 1.387 . S
C190 C191 1.387 . S
C190 H194 0.950 . S
C190 C199 1.390 . S
C191 C190 1.387 . S
C191 C193 1.387 . S
H192 C199 0.950 . S
C193 C191 1.387 . S
C193 C195 1.390 . S
C193 H197 0.950 . S
H194 C190 0.950 . S
C195 C193 1.390 . S
C195 C196 1.387 . S
C195 H198 0.950 . S
C196 C195 1.387 . S
C196 C199 1.387 . S
H197 C193 0.950 . S
H198 C195 0.950 . S
C199 C190 1.390 . S
C199 H192 0.950 . S
C199 C196 1.387 . S
C200 C201 1.387 . S
C200 H204 0.950 . S
C200 C209 1.390 . S
C201 C200 1.387 . S
C201 C203 1.387 . S
H202 C209 0.950 . S
C203 C201 1.387 . S
C203 C205 1.390 . S
C203 H207 0.950 . S
H204 C200 0.950 . S
C205 C203 1.390 . S
C205 C206 1.387 . S
C205 H208 0.950 . S
C206 C205 1.387 . S
C206 C209 1.387 . S
H207 C203 0.950 . S
H208 C205 0.950 . S
C209 C200 1.390 . S
C209 H202 0.950 . S
C209 C206 1.387 . S
C210 C211 1.387 . S
C210 H214 0.950 . S
C210 C219 1.390 . S
C211 C210 1.387 . S
C211 C213 1.387 . S
H212 C219 0.950 . S
C213 C211 1.387 . S
C213 C215 1.390 . S
C213 H217 0.950 . S
H214 C210 0.950 . S
C215 C213 1.390 . S
C215 C216 1.387 . S
C215 H218 0.950 . S
C216 C215 1.387 . S
C216 C219 1.387 . S
H217 C213 0.950 . S
H218 C215 0.950 . S
C219 C210 1.390 . S
C219 H212 0.950 . S
C219 C216 1.387 . S
C220 C221 1.387 . S
C220 H224 0.950 . S
C220 C229 1.390 . S
C221 C220 1.387 . S
C221 C223 1.387 . S
H222 C229 0.950 . S
C223 C221 1.387 . S
C223 C225 1.390 . S
C223 H227 0.950 1_655 S
H224 C220 0.950 . S
C225 C223 1.390 . S
C225 C226 1.387 . S
C225 H228 0.950 1_655 S
C226 C225 1.387 . S
C226 C229 1.387 . S
H227 C223 0.950 1_455 S
H228 C225 0.950 1_455 S
C229 C220 1.390 . S
C229 H222 0.950 . S
C229 C226 1.387 . S
C111 C0 1.760 . S
C116 C87 1.527 . S
C121 C42 1.880 . S
C126 C93 1.724 . S
C131 C17 1.692 . S
C136 C84 1.594 . S
C141 C63 1.519 . S
C146 C109 1.343 . S
C151 C13 1.248 . S
C156 C75 1.108 . S
C166 C92 1.171 . S
C161 C38 1.308 . S
C171 C34 1.760 . S
C176 C88 1.523 . S
C186 C105 1.174 . S
C181 C4 1.310 . S
C196 C72 1.105 . S
C191 C47 1.247 . S
C206 C108 1.339 . S
C201 C29 1.519 . S
C216 C71 1.595 . S
C211 C51 1.693 . S
C226 C96 1.724 . S
C221 C8 1.880 . S
