# Generated by pormake.
# Topology bcu-b, (8,8)-cn, num edge types: 1
# Building blocks:
#     Node 0, Type 0, BuildingBlock: TAGTUT_clean_sbu_3, # of connection points: 8
#     Node 1, Type 1, BuildingBlock: GIZVER_clean_sbu_0, # of connection points: 8
#     Edge 2, Type (0, 1), None
#     Edge 3, Type (0, 1), None
#     Edge 4, Type (0, 1), None
#     Edge 5, Type (0, 1), None
#     Edge 6, Type (0, 1), None
#     Edge 7, Type (0, 1), None
#     Edge 8, Type (0, 1), None
#     Edge 9, Type (0, 1), None
# Relax obj value: 0.078
# Max RMSD: 0.164
# Mean RMSD: 0.152
data_MOF--net-bcu-b--node1-TAGTUT_clean_sbu_3--node2-GIZVER_clean_sbu_0--edge1-none
_symmetry_space_group_name_H-M    P1
_symmetry_Int_Tables_number       1
_symmetry_cell_setting            triclinic
loop_
_symmetry_equiv_pos_as_xyz
'x, y, z'
_cell_length_a     11.086278
_cell_length_b     12.860693
_cell_length_c     9.1414237
_cell_angle_alpha  89.302563
_cell_angle_beta   92.541782
_cell_angle_gamma 124.64681
loop_
_atom_site_label
_atom_site_type_symbol
_atom_site_fract_x
_atom_site_fract_y
_atom_site_fract_z
_atom_type_partial_charge
C0 C 0.27191 0.18237 0.25076 0.0
C1 C 0.23673 0.76873 0.1651 0.0
C2 C 0.2096 0.81644 0.71819 0.0
Mg3 Mg 0.0745 0.27817 0.06501 0.0
Mg4 Mg 0.74217 0.03939 0.96487 0.0
O5 O 0.94425 0.11878 0.95117 0.0
Mg6 Mg 0.02089 0.01561 -0.00207 0.0
O7 O 0.10217 0.91647 0.04427 0.0
Mg8 Mg 0.31037 0.03086 -0.0049 0.0
Mg9 Mg 0.99769 0.75224 0.96236 0.0
C10 C 0.74467 0.84348 0.7673 0.0
O11 O 0.81954 0.86283 0.12799 0.0
O12 O 0.96058 0.34614 0.89749 0.0
O13 O 0.78033 0.68193 0.03784 0.0
O14 O 0.90737 0.24722 0.22758 0.0
O15 O 0.74097 0.16875 0.82726 0.0
O16 O 0.68393 0.07565 0.17519 0.0
O17 O 0.2341 0.15118 0.87145 0.0
O18 O 0.24771 0.32905 0.90959 0.0
C19 C 0.29929 0.27142 0.85866 0.0
C20 C 0.83887 0.28664 0.81772 0.0
O21 O 0.88073 0.89054 0.79944 0.0
O22 O 0.33193 0.88614 0.1352 0.0
O23 O 0.66833 0.87202 0.83593 0.0
O24 O 0.2938 0.91958 0.79056 0.0
O25 O 0.1061 0.70319 0.10917 0.0
O26 O 0.07695 0.73721 0.7533 0.0
O27 O 0.14932 0.15604 0.19312 0.0
O28 O 0.33919 0.13898 0.19781 0.0
C29 C 0.77193 0.17513 0.25338 0.0
C30 C 0.74336 0.74104 0.11621 0.0
Co31 Co 0.61655 0.31002 0.43495 0.0
Co32 Co 0.69758 0.43803 0.67622 0.0
Co33 Co 0.52236 0.5178 0.49499 0.0
O34 O 0.67234 0.47738 0.48909 0.0
H35 H 0.76466 0.54484 0.45133 0.0
O36 O 0.37014 0.55475 0.49503 0.0
Co37 Co 0.4073 0.71364 0.55225 0.0
Co38 Co 0.35861 0.60131 0.30833 0.0
H39 H 0.27542 0.48304 0.52273 0.0
O40 O 0.87385 0.47643 0.73831 0.0
O41 O 0.67343 0.28913 0.64225 0.0
O42 O 0.54986 0.38442 0.81414 0.0
O43 O 0.40063 0.38881 0.6481 0.0
O44 O 0.64137 0.64761 0.65001 0.0
O45 O 0.42503 0.85367 0.61285 0.0
O46 O 0.21683 0.65966 0.57856 0.0
O47 O 0.6107 0.78702 0.54327 0.0
O48 O 0.64599 0.64878 0.34329 0.0
O49 O 0.49091 0.62151 0.16224 0.0
O50 O 0.39455 0.75653 0.34251 0.0
O51 O 0.19179 0.57546 0.24169 0.0
C52 C 0.71286 0.22791 0.34694 0.0
C53 C 0.35002 0.272 0.37128 0.0
C54 C 0.42264 0.34641 0.7658 0.0
C55 C 0.7987 0.35459 0.7212 0.0
C56 C 0.2836 0.77644 0.6252 0.0
C57 C 0.67325 0.75927 0.64115 0.0
C58 C 0.61972 0.66519 0.21085 0.0
C59 C 0.27626 0.69822 0.25607 0.0
O60 O 0.57577 0.15854 0.37871 0.0
O61 O 0.79209 0.34889 0.38061 0.0
O62 O 0.40002 0.38656 0.34424 0.0
O63 O 0.4169 0.24701 0.46886 0.0
loop_
_geom_bond_atom_site_label_1
_geom_bond_atom_site_label_2
_geom_bond_distance
_geom_bond_site_symmetry_2
_ccdc_geom_bond_type
C0 O27 1.312 . S
C0 O28 1.208 . S
C1 O22 1.331 . S
C1 O25 1.244 . S
C2 O24 1.264 . S
C2 O26 1.273 . S
Mg3 O5 1.936 1_455 S
Mg3 O12 2.081 1_455 S
Mg3 O14 2.023 1_456 S
Mg3 O18 2.031 . S
Mg3 O27 2.291 1_556 S
Mg4 O5 1.963 1_565 S
Mg4 O15 1.942 1_565 S
Mg4 O16 1.955 1_566 S
Mg4 O23 1.986 . S
O5 Mg3 1.936 1_655 S
O5 Mg4 1.963 1_545 S
O5 Mg6 1.913 1_556 S
Mg6 O5 1.913 1_554 S
Mg6 O7 1.917 1_645 S
Mg6 O11 2.018 1_545 S
Mg6 O17 2.109 1_654 S
Mg6 O21 2.007 1_544 S
Mg6 O27 2.119 1_655 S
O7 Mg6 1.917 1_465 S
O7 Mg8 1.936 1_565 S
O7 Mg9 1.963 1_455 S
Mg8 O7 1.936 1_545 S
Mg8 O17 2.291 1_554 S
Mg8 O22 2.081 1_545 S
Mg8 O24 2.023 1_544 S
Mg8 O28 2.031 . S
Mg9 O7 1.963 1_655 S
Mg9 O13 1.986 . S
Mg9 O25 1.942 1_655 S
Mg9 O26 1.955 1_654 S
C10 O21 1.191 . S
C10 O23 1.307 . S
O11 Mg6 2.018 1_565 S
O11 C30 1.191 . S
O12 Mg3 2.081 1_655 S
O12 C20 1.331 . S
O13 Mg9 1.986 . S
O13 C30 1.307 . S
O14 Mg3 2.023 1_654 S
O14 C29 1.264 . S
O15 Mg4 1.942 1_545 S
O15 C20 1.244 . S
O16 Mg4 1.955 1_544 S
O16 C29 1.273 . S
O17 Mg6 2.109 1_456 S
O17 Mg8 2.291 1_556 S
O17 C19 1.312 . S
O18 Mg3 2.031 . S
O18 C19 1.208 . S
C19 O17 1.312 . S
C19 O18 1.208 . S
C20 O12 1.331 . S
C20 O15 1.244 . S
O21 Mg6 2.007 1_566 S
O21 C10 1.191 . S
O22 C1 1.331 . S
O22 Mg8 2.081 1_565 S
O23 Mg4 1.986 . S
O23 C10 1.307 . S
O24 C2 1.264 . S
O24 Mg8 2.023 1_566 S
O25 C1 1.244 . S
O25 Mg9 1.942 1_455 S
O26 C2 1.273 . S
O26 Mg9 1.955 1_456 S
O27 C0 1.312 . S
O27 Mg3 2.291 1_554 S
O27 Mg6 2.119 1_455 S
O28 C0 1.208 . S
O28 Mg8 2.031 . S
C29 O14 1.264 . S
C29 O16 1.273 . S
C30 O11 1.191 . S
C30 O13 1.307 . S
Co31 O34 2.042 . S
Co31 O41 2.264 . S
Co31 O60 2.286 . S
Co31 O61 2.069 . S
Co31 O63 2.015 . S
Co32 O34 2.122 . S
Co32 O40 2.073 . S
Co32 O41 2.327 . S
Co32 O42 1.976 . S
Co33 O34 2.087 . S
Co33 O36 2.087 . S
Co33 O43 2.111 . S
Co33 O44 2.143 . S
Co33 O48 2.111 . S
Co33 O62 2.143 . S
O34 Co31 2.042 . S
O34 Co32 2.122 . S
O34 Co33 2.087 . S
O34 H35 0.980 . S
H35 O34 0.980 . S
O36 Co33 2.087 . S
O36 Co37 2.042 . S
O36 Co38 2.122 . S
O36 H39 0.980 . S
Co37 O36 2.042 . S
Co37 O45 2.286 . S
Co37 O46 2.069 . S
Co37 O47 2.015 . S
Co37 O50 2.264 . S
Co38 O36 2.122 . S
Co38 O49 1.976 . S
Co38 O50 2.327 . S
Co38 O51 2.073 . S
H39 O36 0.980 . S
O40 Co32 2.073 . S
O40 C55 1.245 . S
O41 Co31 2.264 . S
O41 Co32 2.327 . S
O41 C55 1.257 . S
O42 Co32 1.976 . S
O42 C54 1.251 . S
O43 Co33 2.111 . S
O43 C54 1.274 . S
O44 Co33 2.143 . S
O44 C57 1.246 . S
O45 Co37 2.286 . S
O45 C56 1.259 . S
O46 Co37 2.069 . S
O46 C56 1.289 . S
O47 Co37 2.015 . S
O47 C57 1.257 . S
O48 Co33 2.111 . S
O48 C58 1.274 . S
O49 Co38 1.976 . S
O49 C58 1.251 . S
O50 Co37 2.264 . S
O50 Co38 2.327 . S
O50 C59 1.257 . S
O51 Co38 2.073 . S
O51 C59 1.245 . S
C52 O60 1.259 . S
C52 O61 1.289 . S
C53 O62 1.246 . S
C53 O63 1.257 . S
C54 O42 1.251 . S
C54 O43 1.274 . S
C55 O40 1.245 . S
C55 O41 1.257 . S
C56 O45 1.259 . S
C56 O46 1.289 . S
C57 O44 1.246 . S
C57 O47 1.257 . S
C58 O48 1.274 . S
C58 O49 1.251 . S
C59 O50 1.257 . S
C59 O51 1.245 . S
O60 Co31 2.286 . S
O60 C52 1.259 . S
O61 Co31 2.069 . S
O61 C52 1.289 . S
O62 Co33 2.143 . S
O62 C53 1.246 . S
O63 Co31 2.015 . S
O63 C53 1.257 . S
C0 C53 1.561 . S
C29 C52 1.490 . S
C30 C58 1.383 . S
C1 C59 1.248 . S
C2 C56 1.539 . S
C54 C19 1.385 . S
C20 C55 1.285 . S
C57 C10 1.482 . S
