# Generated by pormake.
# Topology pts, (4,4)-cn, num edge types: 1
# Building blocks:
#     Node 0, Type 0, BuildingBlock: MUDLON_clean_sbu_0, # of connection points: 4
#     Node 1, Type 0, BuildingBlock: MUDLON_clean_sbu_0, # of connection points: 4
#     Node 2, Type 1, BuildingBlock: AZAVOO_clean_sbu_0, # of connection points: 4
#     Node 3, Type 1, BuildingBlock: AZAVOO_clean_sbu_0, # of connection points: 4
#     Edge 4, Type (0, 1), BuildingBlock: CIFDUS_clean_linker_0, # of connection points: 2
#     Edge 5, Type (0, 1), BuildingBlock: CIFDUS_clean_linker_0, # of connection points: 2
#     Edge 6, Type (0, 1), BuildingBlock: CIFDUS_clean_linker_0, # of connection points: 2
#     Edge 7, Type (0, 1), BuildingBlock: CIFDUS_clean_linker_0, # of connection points: 2
#     Edge 8, Type (0, 1), BuildingBlock: CIFDUS_clean_linker_0, # of connection points: 2
#     Edge 9, Type (0, 1), BuildingBlock: CIFDUS_clean_linker_0, # of connection points: 2
#     Edge 10, Type (0, 1), BuildingBlock: CIFDUS_clean_linker_0, # of connection points: 2
#     Edge 11, Type (0, 1), BuildingBlock: CIFDUS_clean_linker_0, # of connection points: 2
# Relax obj value: 0.032
# Max RMSD: 0.087
# Mean RMSD: 0.074
data_MOF--net-pts--node1-MUDLON_clean_sbu_0--node2-AZAVOO_clean_sbu_0--edge1-CIFDUS_clean_linker_0
_symmetry_space_group_name_H-M    P1
_symmetry_Int_Tables_number       1
_symmetry_cell_setting            triclinic
loop_
_symmetry_equiv_pos_as_xyz
'x, y, z'
_cell_length_a     19.90136
_cell_length_b     20.780943
_cell_length_c     33.700772
_cell_angle_alpha  90.035446
_cell_angle_beta   97.205915
_cell_angle_gamma 88.954409
loop_
_atom_site_label
_atom_site_type_symbol
_atom_site_fract_x
_atom_site_fract_y
_atom_site_fract_z
_atom_type_partial_charge
Mg0 Mg 0.58131 0.03692 0.02895 0.0
C1 C 0.49769 0.0868 0.95376 0.0
O2 O 0.55298 0.06962 0.93861 0.0
C3 C 0.70398 0.10202 0.07559 0.0
O4 O 0.7303 0.09612 0.04191 0.0
C5 C 0.48921 0.01404 0.08367 0.0
O6 O 0.49365 0.07621 0.0776 0.0
O7 O 0.5249 0.97596 0.06485 0.0
O8 O 0.49836 0.08583 0.99154 0.0
O9 O 0.64799 0.99428 0.989 0.0
C10 C 0.70645 0.96891 0.99857 0.0
O11 O 0.72798 0.95783 0.03647 0.0
O12 O 0.64152 0.0905 0.07588 0.0
Mg13 Mg 0.05733 0.52356 0.54525 0.0
C14 C 0.1489 0.56752 0.61954 0.0
O15 O 0.13699 0.51003 0.63281 0.0
C16 C 0.12627 0.43072 0.48398 0.0
O17 O 0.15107 0.4792 0.46587 0.0
C18 C 0.99943 0.58835 0.46609 0.0
O19 O 0.01469 0.53266 0.45077 0.0
O20 O 1.00588 0.59461 0.50393 0.0
O21 O 0.13074 0.58072 0.58284 0.0
O22 O 0.99542 0.48002 0.58707 0.0
C23 C 0.02055 0.4263 0.6003 0.0
O24 O 0.0762 0.40423 0.5876 0.0
O25 O 0.09325 0.44092 0.5134 0.0
Mg26 Mg 0.13074 0.97719 0.30792 0.0
O27 O 0.03968 0.00675 0.263 0.0
O28 O 0.94834 0.0154 0.29493 0.0
Mg29 Mg 0.9807 0.98488 0.36035 0.0
C30 C 0.97686 0.01998 0.26317 0.0
C31 C 0.23402 0.96157 0.24537 0.0
O32 O 0.22808 0.90074 0.25466 0.0
O33 O 0.13347 0.07897 0.33462 0.0
O34 O 0.04614 0.07499 0.3704 0.0
O35 O 0.11006 0.87256 0.29729 0.0
O36 O 0.06861 0.93002 0.34382 0.0
C37 C 0.09705 0.10383 0.35952 0.0
C38 C 0.07303 0.87544 0.32621 0.0
O39 O 0.2009 0.00425 0.26233 0.0
Mg40 Mg 0.03441 0.98332 0.7648 0.0
O41 O 0.13813 0.0212 0.79425 0.0
O42 O 0.1973 0.03764 0.74303 0.0
Mg43 Mg 0.13754 0.00973 0.68344 0.0
C44 C 0.192 0.03903 0.78042 0.0
C45 C 0.91822 -0.00115 0.81281 0.0
O46 O 0.89276 2e-05 0.77489 0.0
O47 O 1.00165 0.08514 0.74202 0.0
O48 O 0.06088 0.09119 0.68981 0.0
O49 O 0.07388 0.88058 0.76731 0.0
O50 O 0.07926 0.9464 0.71684 0.0
C51 C 0.01739 0.114 0.7111 0.0
C52 C 0.09264 0.89061 0.73246 0.0
O53 O 0.98231 -0.00476 0.82138 0.0
H54 H 0.40869 0.08781 0.12424 0.0
H55 H 0.46792 0.88977 0.10753 0.0
H56 H 0.39352 0.85573 0.15618 0.0
H57 H 0.31246 0.88327 0.20393 0.0
H58 H 0.25564 0.08256 0.21942 0.0
H59 H 0.32876 0.11498 0.17058 0.0
C60 C 0.40557 0.03704 0.13107 0.0
C61 C 0.44399 0.99138 0.11228 0.0
C62 C 0.36319 0.01812 0.1589 0.0
C63 C 0.43891 0.92589 0.12157 0.0
C64 C 0.39644 0.90649 0.14939 0.0
C65 C 0.31607 0.93378 0.1966 0.0
C66 C 0.27859 0.98041 0.21545 0.0
C67 C 0.35847 0.9523 0.16834 0.0
C68 C 0.28386 0.04563 0.20552 0.0
C69 C 0.32568 0.06428 0.17755 0.0
H70 H 0.93019 0.33137 0.59226 0.0
H71 H 0.05973 0.43805 0.67951 0.0
H72 H 0.058 0.35095 0.72808 0.0
H73 H 0.04311 0.23464 0.73854 0.0
H74 H 0.91897 0.12651 0.64931 0.0
H75 H 0.89318 0.22372 0.60915 0.0
C76 C 0.95486 0.33674 0.62265 0.0
C77 C 0.99459 0.39079 0.63258 0.0
C78 C 0.9556 0.28537 0.6498 0.0
C79 C 0.02806 0.397 0.67156 0.0
C80 C 0.02783 0.34678 0.69913 0.0
C81 C 1.00778 0.23336 0.71128 0.0
C82 C 0.98263 0.17406 0.69678 0.0
C83 C 0.9952 0.28918 0.68768 0.0
C84 C 0.9382 0.1721 0.66104 0.0
C85 C 0.92408 0.2275 0.63789 0.0
H86 H 0.84082 0.08433 0.08785 0.0
H87 H 0.66743 0.11955 0.15049 0.0
H88 H 0.73729 0.09984 0.21436 0.0
H89 H 0.84509 0.06301 0.25194 0.0
H90 H 0.01743 0.02512 0.18868 0.0
H91 H 0.95033 0.0552 0.12575 0.0
C92 C 0.81849 0.08907 0.11548 0.0
C93 C 0.74881 0.1032 0.11425 0.0
C94 C 0.85854 0.07601 0.15208 0.0
C95 C 0.72087 0.10866 0.15047 0.0
C96 C 0.76071 0.09695 0.18705 0.0
C97 C 0.86814 0.06153 0.22444 0.0
C98 C 0.93617 0.04103 0.2252 0.0
C99 C 0.82917 0.07881 0.18813 0.0
C100 C 0.96515 0.04019 0.18918 0.0
C101 C 0.92682 0.05753 0.15306 0.0
H102 H 0.16529 0.69398 0.60292 0.0
H103 H 0.16085 0.56186 0.7013 0.0
H104 H 0.15165 0.65199 0.74684 0.0
H105 H 0.12602 0.76718 0.7563 0.0
H106 H 0.12637 0.89775 0.65671 0.0
H107 H 0.15651 0.80974 0.61452 0.0
C108 C 0.16391 0.6848 0.63448 0.0
C109 C 0.16234 0.62112 0.64839 0.0
C110 C 0.1568 0.73677 0.66036 0.0
C111 C 0.16147 0.61032 0.68956 0.0
C112 C 0.15568 0.66191 0.71567 0.0
C113 C 0.13403 0.77656 0.7256 0.0
C114 C 0.1231 0.83901 0.7097 0.0
C115 C 0.15023 0.72521 0.70103 0.0
C116 C 0.13418 0.85033 0.66989 0.0
C117 C 0.15117 0.79983 0.64554 0.0
H118 H 0.47962 0.09759 0.87296 0.0
H119 H 0.3688 0.08569 0.97476 0.0
H120 H 0.26308 0.07333 0.93014 0.0
H121 H 0.20378 0.05521 0.86209 0.0
H122 H 0.31697 0.06746 0.76105 0.0
H123 H 0.41933 0.09023 0.80547 0.0
C124 C 0.43224 0.09331 0.88545 0.0
C125 C 0.43244 0.09198 0.92716 0.0
C126 C 0.37181 0.08535 0.8597 0.0
C127 C 0.37033 0.08691 0.94275 0.0
C128 C 0.30979 0.07932 0.91723 0.0
C129 C 0.25067 0.0634 0.84976 0.0
C130 C 0.25231 0.05866 0.80816 0.0
C131 C 0.31016 0.07667 0.87563 0.0
C132 C 0.31371 0.07018 0.79284 0.0
C133 C 0.37265 0.08328 0.81826 0.0
H134 H 0.16801 0.38952 0.41309 0.0
H135 H 0.08606 0.32213 0.51813 0.0
H136 H 0.07196 0.21576 0.48912 0.0
H137 H 0.0752 0.1433 0.4328 0.0
H138 H 0.15937 0.20561 0.32779 0.0
H139 H 0.18059 0.31218 0.35796 0.0
C140 C 0.14797 0.35131 0.42981 0.0
C141 C 0.12737 0.36442 0.46759 0.0
C142 C 0.1397 0.2894 0.41284 0.0
C143 C 0.10174 0.31404 0.48886 0.0
C144 C 0.09346 0.25294 0.47229 0.0
C145 C 0.09828 0.18015 0.41645 0.0
C146 C 0.11467 0.16702 0.3779 0.0
C147 C 0.11083 0.2405 0.43405 0.0
C148 C 0.14598 0.21474 0.35749 0.0
C149 C 0.15797 0.27565 0.37471 0.0
H150 H 0.6802 -0.00083 0.91974 0.0
H151 H 0.84036 0.93045 1.0087 0.0
H152 H 0.92102 0.93536 0.95965 0.0
H153 H 0.94664 0.96229 0.89151 0.0
H154 H 0.78467 0.03126 0.80371 0.0
H155 H 0.70474 0.02403 0.85248 0.0
C156 C 0.7326 0.98467 0.92847 0.0
C157 C 0.75397 0.96442 0.96796 0.0
C158 C 0.7788 0.98853 0.90038 0.0
C159 C 0.82226 0.94597 0.97851 0.0
C160 C 0.86859 0.94918 0.95052 0.0
C161 C 0.89396 0.97615 0.88321 0.0
C162 C 0.87187 -0.00244 0.84399 0.0
C163 C 0.84762 0.97117 0.91144 0.0
C164 C 0.80321 0.01463 0.83361 0.0
C165 C 0.75727 0.01036 0.86147 0.0
H166 H 0.01874 0.59868 0.38774 0.0
H167 H 0.96186 0.70968 0.487 0.0
H168 H 0.9703 0.809 0.44949 0.0
H169 H 1.00955 0.86462 0.39274 0.0
H170 H 0.07265 0.75393 0.29506 0.0
H171 H 0.04516 0.65438 0.32747 0.0
C172 C 1.00672 0.64444 0.40089 0.0
C173 C 0.99055 0.64663 0.44039 0.0
C174 C 0.01356 0.70162 0.37957 0.0
C175 C 0.97505 0.70651 0.45683 0.0
C176 C 0.98011 0.76344 0.43543 0.0
C177 C 0.01596 0.81885 0.37808 0.0
C178 C 0.04387 0.81678 0.34171 0.0
C179 C 1.00177 0.76167 0.3974 0.0
C180 C 0.05171 0.75696 0.32317 0.0
C181 C 0.03624 0.69993 0.34179 0.0
loop_
_geom_bond_atom_site_label_1
_geom_bond_atom_site_label_2
_geom_bond_distance
_geom_bond_site_symmetry_2
_ccdc_geom_bond_type
Mg0 O7 2.141 . S
Mg0 O8 2.048 1_554 S
Mg0 O9 2.048 1_554 S
Mg0 O12 2.141 . S
C1 O2 1.313 1_545 S
C1 O8 1.195 . S
O2 C1 1.313 1_565 S
C3 O4 1.242 1_545 S
C3 O12 1.292 . S
O4 C3 1.242 1_565 S
C5 O6 1.242 1_545 S
C5 O7 1.292 . S
O6 C5 1.242 1_565 S
O7 Mg0 2.141 . S
O7 C5 1.292 . S
O8 Mg0 2.048 1_556 S
O8 C1 1.195 . S
O9 Mg0 2.048 1_556 S
O9 C10 1.195 . S
C10 O9 1.195 . S
C10 O11 1.313 1_545 S
O11 C10 1.313 1_565 S
O12 Mg0 2.141 . S
O12 C3 1.292 . S
Mg13 O20 2.141 . S
Mg13 O21 2.048 . S
Mg13 O22 2.048 . S
Mg13 O25 2.141 . S
C14 O15 1.313 . S
C14 O21 1.195 . S
O15 C14 1.313 . S
C16 O17 1.245 . S
C16 O25 1.289 . S
O17 C16 1.245 . S
C18 O19 1.245 . S
C18 O20 1.289 . S
O19 C18 1.245 . S
O20 Mg13 2.141 . S
O20 C18 1.289 . S
O21 Mg13 2.048 . S
O21 C14 1.195 . S
O22 Mg13 2.048 . S
O22 C23 1.195 . S
C23 O22 1.195 . S
C23 O24 1.313 . S
O24 C23 1.313 . S
O25 Mg13 2.141 . S
O25 C16 1.289 . S
Mg26 O27 2.028 . S
Mg26 O33 1.986 . S
Mg26 O35 2.114 1_545 S
Mg26 O36 2.251 1_545 S
Mg26 O39 2.010 . S
O27 Mg26 2.028 . S
O27 C30 1.250 1_455 S
O28 Mg29 2.028 . S
O28 C30 1.248 . S
Mg29 O28 2.028 . S
Mg29 O34 2.032 1_655 S
Mg29 O36 2.079 1_645 S
C30 O27 1.250 1_655 S
C30 O28 1.248 . S
C31 O32 1.264 . S
C31 O39 1.249 . S
O32 C31 1.264 . S
O33 Mg26 1.986 . S
O33 C37 1.246 . S
O34 Mg29 2.032 1_455 S
O34 C37 1.259 . S
O35 Mg26 2.114 1_565 S
O35 C38 1.252 . S
O36 Mg26 2.251 1_565 S
O36 Mg29 2.079 1_465 S
O36 C38 1.273 . S
C37 O33 1.246 . S
C37 O34 1.259 . S
C38 O35 1.252 . S
C38 O36 1.273 . S
O39 Mg26 2.010 . S
O39 C31 1.249 . S
Mg40 O41 2.028 . S
Mg40 O47 1.986 . S
Mg40 O49 2.114 1_545 S
Mg40 O50 2.251 1_545 S
Mg40 O53 2.010 1_455 S
O41 Mg40 2.028 . S
O41 C44 1.250 . S
O42 Mg43 2.028 . S
O42 C44 1.248 . S
Mg43 O42 2.028 . S
Mg43 O48 2.032 . S
Mg43 O50 2.079 1_545 S
C44 O41 1.250 . S
C44 O42 1.248 . S
C45 O46 1.264 . S
C45 O53 1.249 . S
O46 C45 1.264 . S
O47 Mg40 1.986 . S
O47 C51 1.246 . S
O48 Mg43 2.032 . S
O48 C51 1.259 . S
O49 Mg40 2.114 1_565 S
O49 C52 1.252 . S
O50 Mg40 2.251 1_565 S
O50 Mg43 2.079 1_565 S
O50 C52 1.273 . S
C51 O47 1.246 . S
C51 O48 1.259 . S
C52 O49 1.252 . S
C52 O50 1.273 . S
O53 Mg40 2.010 1_655 S
O53 C45 1.249 . S
H54 C60 0.931 . S
H55 C63 0.930 . S
H56 C64 0.930 . S
H57 C65 0.930 . S
H58 C68 0.930 . S
H59 C69 0.929 1_565 S
C60 H54 0.931 . S
C60 C61 1.355 . S
C60 C62 1.415 . S
C61 C60 1.355 . S
C61 C63 1.419 . S
C62 C60 1.415 . S
C62 C67 1.425 . S
C62 C69 1.410 . S
C63 H55 0.930 . S
C63 C61 1.419 . S
C63 C64 1.362 . S
C64 H56 0.930 . S
C64 C63 1.362 . S
C64 C67 1.409 . S
C65 H57 0.930 . S
C65 C66 1.355 . S
C65 C67 1.415 . S
C66 C65 1.355 . S
C66 C68 1.419 . S
C67 C62 1.425 . S
C67 C64 1.409 . S
C67 C65 1.415 . S
C68 H58 0.930 . S
C68 C66 1.419 . S
C68 C69 1.363 . S
C69 H59 0.929 1_545 S
C69 C62 1.410 . S
C69 C68 1.363 . S
H70 C76 0.930 . S
H71 C79 0.930 . S
H72 C80 0.930 . S
H73 C81 0.930 . S
H74 C84 0.930 . S
H75 C85 0.930 . S
C76 H70 0.930 . S
C76 C77 1.355 . S
C76 C78 1.415 . S
C77 C76 1.355 . S
C77 C79 1.419 . S
C78 C76 1.415 . S
C78 C83 1.425 . S
C78 C85 1.409 . S
C79 H71 0.930 . S
C79 C77 1.419 . S
C79 C80 1.362 . S
C80 H72 0.930 . S
C80 C79 1.362 . S
C80 C83 1.409 . S
C81 H73 0.930 . S
C81 C82 1.355 . S
C81 C83 1.415 . S
C82 C81 1.355 . S
C82 C84 1.419 . S
C83 C78 1.425 . S
C83 C80 1.409 . S
C83 C81 1.415 . S
C84 H74 0.930 . S
C84 C82 1.419 . S
C84 C85 1.362 . S
C85 H75 0.930 . S
C85 C78 1.409 . S
C85 C84 1.362 . S
H86 C92 0.930 . S
H87 C95 0.930 . S
H88 C96 0.930 . S
H89 C97 0.930 . S
H90 C100 0.930 1_455 S
H91 C101 0.930 . S
C92 H86 0.930 . S
C92 C93 1.355 . S
C92 C94 1.415 . S
C93 C92 1.355 . S
C93 C95 1.419 1_545 S
C94 C92 1.415 . S
C94 C99 1.425 . S
C94 C101 1.409 . S
C95 H87 0.930 . S
C95 C93 1.419 1_565 S
C95 C96 1.362 . S
C96 H88 0.930 . S
C96 C95 1.362 . S
C96 C99 1.409 1_565 S
C97 H89 0.930 . S
C97 C98 1.355 . S
C97 C99 1.415 . S
C98 C97 1.355 . S
C98 C100 1.419 . S
C99 C94 1.425 . S
C99 C96 1.409 1_545 S
C99 C97 1.415 . S
C100 H90 0.930 1_655 S
C100 C98 1.419 . S
C100 C101 1.362 . S
C101 H91 0.930 . S
C101 C94 1.409 . S
C101 C100 1.362 . S
H102 C108 0.930 1_655 S
H103 C111 0.930 . S
H104 C112 0.930 . S
H105 C113 0.930 . S
H106 C116 0.930 . S
H107 C117 0.930 . S
C108 H102 0.930 1_455 S
C108 C109 1.355 . S
C108 C110 1.415 . S
C109 C108 1.355 . S
C109 C111 1.419 . S
C110 C108 1.415 . S
C110 C115 1.425 . S
C110 C117 1.409 1_455 S
C111 H103 0.930 . S
C111 C109 1.419 . S
C111 C112 1.362 . S
C112 H104 0.930 . S
C112 C111 1.362 . S
C112 C115 1.409 . S
C113 H105 0.930 . S
C113 C114 1.355 . S
C113 C115 1.415 . S
C114 C113 1.355 . S
C114 C116 1.419 1_455 S
C115 C110 1.425 . S
C115 C112 1.409 . S
C115 C113 1.415 . S
C116 H106 0.930 . S
C116 C114 1.419 1_655 S
C116 C117 1.362 . S
C117 H107 0.930 . S
C117 C110 1.409 1_655 S
C117 C116 1.362 . S
H118 C124 0.930 . S
H119 C127 0.930 . S
H120 C128 0.930 . S
H121 C129 0.930 . S
H122 C132 0.930 . S
H123 C133 0.930 . S
C124 H118 0.930 . S
C124 C125 1.355 . S
C124 C126 1.415 . S
C125 C124 1.355 . S
C125 C127 1.419 . S
C126 C124 1.415 . S
C126 C131 1.425 . S
C126 C133 1.409 . S
C127 H119 0.930 . S
C127 C125 1.419 . S
C127 C128 1.362 . S
C128 H120 0.930 . S
C128 C127 1.362 . S
C128 C131 1.409 . S
C129 H121 0.930 . S
C129 C130 1.355 . S
C129 C131 1.415 . S
C130 C129 1.355 . S
C130 C132 1.419 . S
C131 C126 1.425 . S
C131 C128 1.409 . S
C131 C129 1.415 . S
C132 H122 0.930 . S
C132 C130 1.419 . S
C132 C133 1.362 . S
C133 H123 0.930 . S
C133 C126 1.409 . S
C133 C132 1.362 . S
H134 C140 0.930 . S
H135 C143 0.930 . S
H136 C144 0.930 . S
H137 C145 0.930 . S
H138 C148 0.930 . S
H139 C149 0.930 . S
C140 H134 0.930 . S
C140 C141 1.355 . S
C140 C142 1.415 . S
C141 C140 1.355 . S
C141 C143 1.419 . S
C142 C140 1.415 . S
C142 C147 1.425 . S
C142 C149 1.409 . S
C143 H135 0.930 . S
C143 C141 1.419 . S
C143 C144 1.362 . S
C144 H136 0.930 . S
C144 C143 1.362 . S
C144 C147 1.409 . S
C145 H137 0.930 . S
C145 C146 1.355 . S
C145 C147 1.415 . S
C146 C145 1.355 . S
C146 C148 1.419 . S
C147 C142 1.425 . S
C147 C144 1.409 . S
C147 C145 1.415 . S
C148 H138 0.930 . S
C148 C146 1.419 . S
C148 C149 1.362 . S
C149 H139 0.930 . S
C149 C142 1.409 . S
C149 C148 1.362 . S
H150 C156 0.930 . S
H151 C159 0.930 . S
H152 C160 0.930 . S
H153 C161 0.930 . S
H154 C164 0.930 . S
H155 C165 0.930 . S
C156 H150 0.930 . S
C156 C157 1.355 . S
C156 C158 1.415 . S
C157 C156 1.355 . S
C157 C159 1.419 1_545 S
C158 C156 1.415 . S
C158 C163 1.425 1_545 S
C158 C165 1.409 . S
C159 H151 0.930 . S
C159 C157 1.419 1_565 S
C159 C160 1.362 . S
C160 H152 0.930 . S
C160 C159 1.362 . S
C160 C163 1.409 . S
C161 H153 0.930 . S
C161 C162 1.355 1_565 S
C161 C163 1.415 . S
C162 C161 1.355 1_545 S
C162 C164 1.419 . S
C163 C158 1.425 1_565 S
C163 C160 1.409 . S
C163 C161 1.415 . S
C164 H154 0.930 . S
C164 C162 1.419 . S
C164 C165 1.362 . S
C165 H155 0.930 . S
C165 C158 1.409 . S
C165 C164 1.362 . S
H166 C172 0.930 . S
H167 C175 0.930 . S
H168 C176 0.930 . S
H169 C177 0.930 . S
H170 C180 0.930 . S
H171 C181 0.930 1_655 S
C172 H166 0.930 . S
C172 C173 1.355 . S
C172 C174 1.415 . S
C173 C172 1.355 . S
C173 C175 1.419 . S
C174 C172 1.415 . S
C174 C179 1.425 . S
C174 C181 1.409 . S
C175 H167 0.930 . S
C175 C173 1.419 . S
C175 C176 1.362 . S
C176 H168 0.930 . S
C176 C175 1.362 . S
C176 C179 1.409 . S
C177 H169 0.930 . S
C177 C178 1.355 . S
C177 C179 1.415 . S
C178 C177 1.355 . S
C178 C180 1.419 . S
C179 C174 1.425 . S
C179 C176 1.409 . S
C179 C177 1.415 . S
C180 H170 0.930 . S
C180 C178 1.419 . S
C180 C181 1.362 . S
C181 H171 0.930 1_455 S
C181 C174 1.409 . S
C181 C180 1.362 . S
C66 C31 1.291 . S
C61 C5 1.416 . S
C82 C51 1.420 . S
C77 C23 1.473 . S
C98 C30 1.429 . S
C93 C3 1.416 . S
C114 C52 1.491 . S
C109 C14 1.480 . S
C130 C44 1.438 . S
C125 C1 1.493 . S
C146 C37 1.367 . S
C141 C16 1.412 . S
C162 C45 1.249 . S
C157 C10 1.463 . S
C173 C18 1.410 . S
C178 C38 1.438 . S
