# Generated by pormake.
# Topology ant, (3,6)-cn, num edge types: 1
# Building blocks:
#     Node 0, Type 0, BuildingBlock: OLANEW_clean_sbu_2, # of connection points: 3
#     Node 1, Type 0, BuildingBlock: OLANEW_clean_sbu_2, # of connection points: 3
#     Node 2, Type 0, BuildingBlock: OLANEW_clean_sbu_2, # of connection points: 3
#     Node 3, Type 0, BuildingBlock: OLANEW_clean_sbu_2, # of connection points: 3
#     Node 4, Type 0, BuildingBlock: OLANEW_clean_sbu_2, # of connection points: 3
#     Node 5, Type 0, BuildingBlock: OLANEW_clean_sbu_2, # of connection points: 3
#     Node 6, Type 0, BuildingBlock: OLANEW_clean_sbu_2, # of connection points: 3
#     Node 7, Type 0, BuildingBlock: OLANEW_clean_sbu_2, # of connection points: 3
#     Node 8, Type 1, BuildingBlock: MIDCAF_clean_sbu_0, # of connection points: 6
#     Node 9, Type 1, BuildingBlock: MIDCAF_clean_sbu_0, # of connection points: 6
#     Node 10, Type 1, BuildingBlock: MIDCAF_clean_sbu_0, # of connection points: 6
#     Node 11, Type 1, BuildingBlock: MIDCAF_clean_sbu_0, # of connection points: 6
#     Edge 12, Type (0, 1), None
#     Edge 13, Type (0, 1), None
#     Edge 14, Type (0, 1), None
#     Edge 15, Type (0, 1), None
#     Edge 16, Type (0, 1), None
#     Edge 17, Type (0, 1), None
#     Edge 18, Type (0, 1), None
#     Edge 19, Type (0, 1), None
#     Edge 20, Type (0, 1), None
#     Edge 21, Type (0, 1), None
#     Edge 22, Type (0, 1), None
#     Edge 23, Type (0, 1), None
#     Edge 24, Type (0, 1), None
#     Edge 25, Type (0, 1), None
#     Edge 26, Type (0, 1), None
#     Edge 27, Type (0, 1), None
#     Edge 28, Type (0, 1), None
#     Edge 29, Type (0, 1), None
#     Edge 30, Type (0, 1), None
#     Edge 31, Type (0, 1), None
#     Edge 32, Type (0, 1), None
#     Edge 33, Type (0, 1), None
#     Edge 34, Type (0, 1), None
#     Edge 35, Type (0, 1), None
# Relax obj value: 0.059
# Max RMSD: 0.135
# Mean RMSD: 0.087
data_MOF--net-ant--node1-OLANEW_clean_sbu_2--node2-MIDCAF_clean_sbu_0--edge1-none
_symmetry_space_group_name_H-M    P1
_symmetry_Int_Tables_number       1
_symmetry_cell_setting            triclinic
loop_
_symmetry_equiv_pos_as_xyz
'x, y, z'
_cell_length_a     15.953182
_cell_length_b     14.704906
_cell_length_c     33.071937
_cell_angle_alpha  92.972101
_cell_angle_beta   95.677942
_cell_angle_gamma 84.568055
loop_
_atom_site_label
_atom_site_type_symbol
_atom_site_fract_x
_atom_site_fract_y
_atom_site_fract_z
_atom_type_partial_charge
O0 O 0.2423 0.08089 0.97159 0.0
Cd1 Cd 0.34605 0.03652 0.02911 0.0
O2 O 0.17403 0.15991 0.01795 0.0
Cd3 Cd 0.0875 0.27413 0.03886 0.0
O4 O 0.06955 0.39704 0.07821 0.0
C5 C 0.04867 0.47923 0.06836 0.0
O6 O 0.02837 0.49776 0.03006 0.0
C7 C 0.1807 0.13699 0.98074 0.0
C8 C 0.25731 0.96868 0.08688 0.0
O9 O 0.26265 0.0548 0.0856 0.0
O10 O 0.29796 0.91467 0.06249 0.0
O11 O 0.07015 0.72776 0.2931 0.0
Cd12 Cd 0.10838 0.80961 0.35781 0.0
O13 O 0.01698 0.85654 0.26665 0.0
Cd14 Cd 0.97113 0.89978 0.32574 0.0
O15 O 0.86933 0.89312 0.3654 0.0
C16 C 0.8094 0.85046 0.34774 0.0
O17 O 0.81674 0.81538 0.31081 0.0
C18 C 0.04626 0.77387 0.26188 0.0
C19 C 0.28441 0.79991 0.35962 0.0
O20 O 0.24903 0.74634 0.38062 0.0
O21 O 0.23733 0.86109 0.33983 0.0
O22 O 0.74266 0.57902 0.47153 0.0
Cd23 Cd 0.84746 0.53495 0.52869 0.0
O24 O 0.67559 0.65854 0.51815 0.0
Cd25 Cd 0.58986 0.77307 0.53944 0.0
O26 O 0.57256 0.89589 0.57892 0.0
C27 C 0.55141 0.97806 0.56911 0.0
O28 O 0.53049 0.99656 0.53085 0.0
C29 C 0.68135 0.63528 0.48091 0.0
C30 C 0.75975 0.4674 0.58694 0.0
O31 O 0.76509 0.55349 0.58555 0.0
O32 O 0.8 0.41327 0.56244 0.0
O33 O 0.57151 0.22815 0.79358 0.0
Cd34 Cd 0.60951 0.31152 0.85792 0.0
O35 O 0.51889 0.35676 0.76682 0.0
Cd36 Cd 0.47251 0.40072 0.82573 0.0
O37 O 0.37052 0.39456 0.86533 0.0
C38 C 0.31058 0.35194 0.84766 0.0
O39 O 0.31802 0.31667 0.81077 0.0
C40 C 0.54803 0.27399 0.76224 0.0
C41 C 0.78539 0.30295 0.85936 0.0
O42 O 0.75063 0.25 0.88092 0.0
O43 O 0.73776 0.36309 0.83921 0.0
O44 O 0.06908 0.77988 0.96892 0.0
Cd45 Cd 0.109 0.76948 0.89907 0.0
O46 O 0.00797 0.65645 0.98038 0.0
Cd47 Cd 0.00593 0.6237 0.91503 0.0
O48 O 4e-05 0.60696 0.84855 0.0
C49 C 0.01687 0.52957 0.83082 0.0
O50 O 0.01699 0.52361 0.79107 0.0
C51 C 0.03625 0.73161 -0.00702 0.0
C52 C 0.09079 0.94371 0.86701 0.0
O53 O 0.03659 0.88549 0.8572 0.0
O54 O 0.15508 0.92007 0.89176 0.0
O55 O 0.68361 0.90509 0.26411 0.0
Cd56 Cd 0.75904 1.01476 0.234 0.0
O57 O 0.64088 0.83097 0.20758 0.0
Cd58 Cd 0.56202 0.7342 0.1746 0.0
O59 O 0.43827 0.68439 0.16208 0.0
C60 C 0.37728 0.74035 0.14903 0.0
O61 O 0.39184 0.82373 0.14119 0.0
C62 C 0.64441 0.84114 0.24608 0.0
C63 C 0.86843 0.93031 0.18089 0.0
O64 O 0.88885 0.93203 0.21923 0.0
O65 O 0.79592 0.96804 0.16761 0.0
O66 O 0.57172 0.27754 0.46931 0.0
Cd67 Cd 0.61103 0.26732 0.39937 0.0
O68 O 0.50956 0.15493 0.48097 0.0
Cd69 Cd 0.50656 0.12182 0.41563 0.0
O70 O 0.49933 0.10508 0.34913 0.0
C71 C 0.51556 0.02764 0.33132 0.0
O72 O 0.51499 0.02169 0.29154 0.0
C73 C 0.53867 0.22974 0.49347 0.0
C74 C 0.59169 0.44155 0.3673 0.0
O75 O 0.5378 0.38297 0.35755 0.0
O76 O 0.65619 0.41829 0.39198 0.0
O77 O 0.18526 0.40649 0.76382 0.0
Cd78 Cd 0.26134 0.51555 0.73372 0.0
O79 O 0.14314 0.33171 0.70736 0.0
Cd80 Cd 0.06464 0.23437 0.67454 0.0
O81 O 0.941 0.18409 0.66249 0.0
C82 C 0.87983 0.23985 0.64947 0.0
O83 O 0.89419 0.32316 0.6414 0.0
C84 C 0.14618 0.3424 0.74584 0.0
C85 C 0.37089 0.43021 0.68089 0.0
O86 O 0.3911 0.43226 0.71925 0.0
O87 O 0.29852 0.46803 0.66747 0.0
Zn88 Zn 0.15657 0.62329 0.16765 0.0
Zn89 Zn 0.03366 0.90457 0.09699 0.0
Zn90 Zn 0.09188 0.76303 0.12673 0.0
C91 C 0.03321 0.76692 0.03514 0.0
C92 C 0.191 0.93457 0.10779 0.0
O93 O 0.04689 0.78022 0.18899 0.0
O94 O 0.1149 0.66204 0.22072 0.0
C95 C 0.0671 0.55221 0.09906 0.0
O96 O 0.0401 0.71479 0.06568 0.0
O97 O 0.03567 0.852 0.04109 0.0
O98 O 0.12499 0.98708 0.11236 0.0
O99 O 0.18962 0.84774 0.11073 0.0
O100 O 0.1023 0.52811 0.13318 0.0
O101 O 0.05895 0.63724 0.09026 0.0
O102 O 0.22819 0.77123 0.13471 0.0
O103 O 0.27749 0.6401 0.16171 0.0
C104 C 0.29051 0.71526 0.14772 0.0
O105 O -0.00641 0.83866 0.16302 0.0
O106 O 0.92306 0.93048 0.11811 0.0
C107 C 0.06742 0.73561 0.22172 0.0
C108 C 0.92973 0.89605 0.15245 0.0
Zn109 Zn 0.4911 0.67469 0.29886 0.0
Zn110 Zn 0.60703 0.85233 0.42018 0.0
Zn111 Zn 0.56258 0.74296 0.36408 0.0
C112 C 0.53721 0.94588 0.355 0.0
C113 C 0.73291 0.83833 0.36751 0.0
O114 O 0.60667 0.6021 0.37253 0.0
O115 O 0.52381 0.54792 0.32115 0.0
C116 C 0.37101 0.77556 0.34942 0.0
O117 O 0.57561 0.87375 0.33923 0.0
O118 O 0.52225 0.94698 0.39197 0.0
O119 O 0.73028 0.85158 0.4055 0.0
O120 O 0.66598 0.81619 0.34541 0.0
O121 O 0.38046 0.74176 0.31395 0.0
O122 O 0.43426 0.77823 0.37609 0.0
O123 O 0.60833 0.79884 0.30985 0.0
O124 O 0.55336 0.72484 0.25504 0.0
C125 C 0.60074 0.78388 0.27081 0.0
O126 O 0.63671 0.66765 0.41157 0.0
O127 O 0.58629 0.75942 0.45974 0.0
C128 C 0.57583 0.53449 0.35227 0.0
C129 C 0.62838 0.68609 0.44932 0.0
Zn130 Zn 0.53656 0.40333 0.59727 0.0
Zn131 Zn 0.65936 0.12244 0.66845 0.0
Zn132 Zn 0.59443 0.26211 0.6272 0.0
C133 C 0.79312 0.21463 0.64833 0.0
C134 C 0.56993 0.05111 0.59976 0.0
O135 O 0.49611 0.33819 0.66332 0.0
O136 O 0.42577 0.42948 0.61815 0.0
C137 C 0.69367 0.43344 0.60806 0.0
O138 O 0.73072 0.27028 0.63514 0.0
O139 O 0.78025 0.13969 0.66257 0.0
O140 O 0.60535 0.02716 0.63386 0.0
O141 O 0.56153 0.13612 0.59092 0.0
O142 O 0.62772 0.48602 0.61268 0.0
O143 O 0.69223 0.34664 0.61104 0.0
O144 O 0.54256 0.21349 0.56622 0.0
O145 O 0.53888 0.35042 0.54144 0.0
C146 C 0.536 0.26536 0.53561 0.0
O147 O 0.54925 0.27976 0.68938 0.0
O148 O 0.61701 0.16178 0.72137 0.0
C149 C 0.43229 0.39549 0.65258 0.0
C150 C 0.56952 0.23537 0.72219 0.0
Zn151 Zn -0.00828 0.1774 0.79859 0.0
Zn152 Zn 0.10775 0.35446 0.91987 0.0
Zn153 Zn 0.06341 0.24503 0.86379 0.0
C154 C 0.12841 0.18805 0.94903 0.0
C155 C 0.03836 0.44787 0.85456 0.0
O156 O 0.10959 0.30062 0.8096 0.0
O157 O 0.05455 0.22668 0.75479 0.0
C158 C 0.07552 0.03668 0.85198 0.0
O159 O 0.13714 0.16952 0.91132 0.0
O160 O 0.08645 0.26156 0.95933 0.0
O161 O 0.02321 0.44909 0.8915 0.0
O162 O 0.07679 0.37565 0.83887 0.0
O163 O 0.02345 0.05049 0.82091 0.0
O164 O 0.10691 0.10403 0.87221 0.0
O165 O 0.93518 0.28063 0.87582 0.0
O166 O 0.88136 0.24541 0.81355 0.0
C167 C 0.87197 0.27875 0.84909 0.0
O168 O 0.16707 0.31796 0.84522 0.0
O169 O 0.23115 0.35343 0.90535 0.0
C170 C 0.10215 0.2855 0.77057 0.0
C171 C 0.23395 0.34006 0.86737 0.0
loop_
_geom_bond_atom_site_label_1
_geom_bond_atom_site_label_2
_geom_bond_distance
_geom_bond_site_symmetry_2
_ccdc_geom_bond_type
O0 Cd1 2.300 . S
O0 C7 1.275 . S
Cd1 O0 2.300 . S
Cd1 O9 2.381 . S
Cd1 O10 2.378 . S
O2 Cd3 2.385 . S
O2 C7 1.255 . S
Cd3 O2 2.385 . S
Cd3 O4 2.317 . S
O4 Cd3 2.317 . S
O4 C5 1.232 . S
C5 O4 1.232 . S
C5 O6 1.218 . S
O6 C5 1.218 . S
C7 O0 1.275 . S
C7 O2 1.255 . S
C8 O9 1.258 . S
C8 O10 1.256 . S
O9 Cd1 2.381 . S
O9 C8 1.258 . S
O10 Cd1 2.378 . S
O10 C8 1.256 . S
O11 Cd12 2.300 . S
O11 C18 1.275 . S
Cd12 O11 2.300 . S
Cd12 O20 2.381 . S
Cd12 O21 2.378 . S
O13 Cd14 2.385 1_455 S
O13 C18 1.255 . S
Cd14 O13 2.385 1_655 S
Cd14 O15 2.317 . S
O15 Cd14 2.317 . S
O15 C16 1.232 . S
C16 O15 1.232 . S
C16 O17 1.218 . S
O17 C16 1.218 . S
C18 O11 1.275 . S
C18 O13 1.255 . S
C19 O20 1.258 . S
C19 O21 1.256 . S
O20 Cd12 2.381 . S
O20 C19 1.258 . S
O21 Cd12 2.378 . S
O21 C19 1.256 . S
O22 Cd23 2.300 . S
O22 C29 1.275 . S
Cd23 O22 2.300 . S
Cd23 O31 2.381 . S
Cd23 O32 2.378 . S
O24 Cd25 2.385 . S
O24 C29 1.255 . S
Cd25 O24 2.385 . S
Cd25 O26 2.317 . S
O26 Cd25 2.317 . S
O26 C27 1.232 . S
C27 O26 1.232 . S
C27 O28 1.218 1_565 S
O28 C27 1.218 1_545 S
C29 O22 1.275 . S
C29 O24 1.255 . S
C30 O31 1.258 . S
C30 O32 1.256 . S
O31 Cd23 2.381 . S
O31 C30 1.258 . S
O32 Cd23 2.378 . S
O32 C30 1.256 . S
O33 Cd34 2.300 . S
O33 C40 1.275 . S
Cd34 O33 2.300 . S
Cd34 O42 2.381 . S
Cd34 O43 2.378 . S
O35 Cd36 2.385 . S
O35 C40 1.255 . S
Cd36 O35 2.385 . S
Cd36 O37 2.317 . S
O37 Cd36 2.317 . S
O37 C38 1.232 . S
C38 O37 1.232 . S
C38 O39 1.218 . S
O39 C38 1.218 . S
C40 O33 1.275 . S
C40 O35 1.255 . S
C41 O42 1.258 . S
C41 O43 1.256 . S
O42 Cd34 2.381 . S
O42 C41 1.258 . S
O43 Cd34 2.378 . S
O43 C41 1.256 . S
O44 Cd45 2.300 . S
O44 C51 1.275 . S
Cd45 O44 2.300 . S
Cd45 O53 2.381 . S
Cd45 O54 2.378 . S
O46 Cd47 2.385 . S
O46 C51 1.255 . S
Cd47 O46 2.385 . S
Cd47 O48 2.317 . S
O48 Cd47 2.317 . S
O48 C49 1.232 . S
C49 O48 1.232 . S
C49 O50 1.218 . S
O50 C49 1.218 . S
C51 O44 1.275 . S
C51 O46 1.255 . S
C52 O53 1.258 . S
C52 O54 1.256 . S
O53 Cd45 2.381 . S
O53 C52 1.258 . S
O54 Cd45 2.378 . S
O54 C52 1.256 . S
O55 Cd56 2.300 . S
O55 C62 1.275 . S
Cd56 O55 2.300 . S
Cd56 O64 2.381 . S
Cd56 O65 2.378 . S
O57 Cd58 2.385 . S
O57 C62 1.255 . S
Cd58 O57 2.385 . S
Cd58 O59 2.317 . S
O59 Cd58 2.317 . S
O59 C60 1.232 . S
C60 O59 1.232 . S
C60 O61 1.218 . S
O61 C60 1.218 . S
C62 O55 1.275 . S
C62 O57 1.255 . S
C63 O64 1.258 . S
C63 O65 1.256 . S
O64 Cd56 2.381 . S
O64 C63 1.258 . S
O65 Cd56 2.378 . S
O65 C63 1.256 . S
O66 Cd67 2.300 . S
O66 C73 1.275 . S
Cd67 O66 2.300 . S
Cd67 O75 2.381 . S
Cd67 O76 2.378 . S
O68 Cd69 2.385 . S
O68 C73 1.255 . S
Cd69 O68 2.385 . S
Cd69 O70 2.317 . S
O70 Cd69 2.317 . S
O70 C71 1.232 . S
C71 O70 1.232 . S
C71 O72 1.218 1_545 S
O72 C71 1.218 1_565 S
C73 O66 1.275 . S
C73 O68 1.255 . S
C74 O75 1.258 . S
C74 O76 1.256 . S
O75 Cd67 2.381 . S
O75 C74 1.258 . S
O76 Cd67 2.378 . S
O76 C74 1.256 . S
O77 Cd78 2.300 . S
O77 C84 1.275 . S
Cd78 O77 2.300 . S
Cd78 O86 2.381 . S
Cd78 O87 2.378 . S
O79 Cd80 2.385 1_455 S
O79 C84 1.255 . S
Cd80 O79 2.385 1_655 S
Cd80 O81 2.317 . S
O81 Cd80 2.317 . S
O81 C82 1.232 . S
C82 O81 1.232 . S
C82 O83 1.218 . S
O83 C82 1.218 . S
C84 O77 1.275 . S
C84 O79 1.255 . S
C85 O86 1.258 . S
C85 O87 1.256 . S
O86 Cd78 2.381 . S
O86 C85 1.258 . S
O87 Cd78 2.378 . S
O87 C85 1.256 . S
Zn88 O94 1.920 . S
Zn88 O100 1.898 . S
Zn88 O103 1.905 . S
Zn89 O97 1.905 . S
Zn89 O98 1.898 1_655 S
Zn89 O106 1.920 . S
Zn90 O93 2.080 . S
Zn90 O96 2.114 . S
Zn90 O99 2.120 . S
Zn90 O101 2.120 . S
Zn90 O102 2.114 . S
Zn90 O105 2.080 1_455 S
C91 O96 1.166 . S
C91 O97 1.182 1_455 S
C92 O98 1.167 . S
C92 O99 1.299 . S
O93 Zn90 2.080 . S
O93 C107 1.305 . S
O94 Zn88 1.920 . S
O94 C107 1.234 . S
C95 O100 1.167 . S
C95 O101 1.299 . S
O96 Zn90 2.114 . S
O96 C91 1.166 . S
O97 Zn89 1.905 . S
O97 C91 1.182 1_655 S
O98 Zn89 1.898 1_455 S
O98 C92 1.167 . S
O99 Zn90 2.120 . S
O99 C92 1.299 . S
O100 Zn88 1.898 . S
O100 C95 1.167 . S
O101 Zn90 2.120 . S
O101 C95 1.299 . S
O102 Zn90 2.114 . S
O102 C104 1.166 . S
O103 Zn88 1.905 . S
O103 C104 1.182 . S
C104 O102 1.166 . S
C104 O103 1.182 . S
O105 Zn90 2.080 1_655 S
O105 C108 1.305 . S
O106 Zn89 1.920 . S
O106 C108 1.234 . S
C107 O93 1.305 . S
C107 O94 1.234 . S
C108 O105 1.305 . S
C108 O106 1.234 . S
Zn109 O115 1.920 . S
Zn109 O121 1.898 . S
Zn109 O124 1.905 . S
Zn110 O118 1.905 . S
Zn110 O119 1.898 . S
Zn110 O127 1.920 . S
Zn111 O114 2.080 . S
Zn111 O117 2.114 . S
Zn111 O120 2.120 . S
Zn111 O122 2.120 . S
Zn111 O123 2.114 . S
Zn111 O126 2.080 . S
C112 O117 1.166 . S
C112 O118 1.182 . S
C113 O119 1.167 . S
C113 O120 1.299 . S
O114 Zn111 2.080 . S
O114 C128 1.305 . S
O115 Zn109 1.920 . S
O115 C128 1.234 . S
C116 O121 1.167 . S
C116 O122 1.299 . S
O117 Zn111 2.114 . S
O117 C112 1.166 . S
O118 Zn110 1.905 . S
O118 C112 1.182 . S
O119 Zn110 1.898 . S
O119 C113 1.167 . S
O120 Zn111 2.120 . S
O120 C113 1.299 . S
O121 Zn109 1.898 . S
O121 C116 1.167 . S
O122 Zn111 2.120 . S
O122 C116 1.299 . S
O123 Zn111 2.114 . S
O123 C125 1.166 . S
O124 Zn109 1.905 . S
O124 C125 1.182 . S
C125 O123 1.166 . S
C125 O124 1.182 . S
O126 Zn111 2.080 . S
O126 C129 1.305 . S
O127 Zn110 1.920 . S
O127 C129 1.234 . S
C128 O114 1.305 . S
C128 O115 1.234 . S
C129 O126 1.305 . S
C129 O127 1.234 . S
Zn130 O136 1.920 . S
Zn130 O142 1.898 . S
Zn130 O145 1.905 . S
Zn131 O139 1.905 . S
Zn131 O140 1.898 . S
Zn131 O148 1.920 . S
Zn132 O135 2.080 . S
Zn132 O138 2.114 . S
Zn132 O141 2.120 . S
Zn132 O143 2.120 . S
Zn132 O144 2.114 . S
Zn132 O147 2.080 . S
C133 O138 1.166 . S
C133 O139 1.182 . S
C134 O140 1.167 . S
C134 O141 1.299 . S
O135 Zn132 2.080 . S
O135 C149 1.305 . S
O136 Zn130 1.920 . S
O136 C149 1.234 . S
C137 O142 1.167 . S
C137 O143 1.299 . S
O138 Zn132 2.114 . S
O138 C133 1.166 . S
O139 Zn131 1.905 . S
O139 C133 1.182 . S
O140 Zn131 1.898 . S
O140 C134 1.167 . S
O141 Zn132 2.120 . S
O141 C134 1.299 . S
O142 Zn130 1.898 . S
O142 C137 1.167 . S
O143 Zn132 2.120 . S
O143 C137 1.299 . S
O144 Zn132 2.114 . S
O144 C146 1.166 . S
O145 Zn130 1.905 . S
O145 C146 1.182 . S
C146 O144 1.166 . S
C146 O145 1.182 . S
O147 Zn132 2.080 . S
O147 C150 1.305 . S
O148 Zn131 1.920 . S
O148 C150 1.234 . S
C149 O135 1.305 . S
C149 O136 1.234 . S
C150 O147 1.305 . S
C150 O148 1.234 . S
Zn151 O157 1.920 1_655 S
Zn151 O163 1.898 1_655 S
Zn151 O166 1.905 . S
Zn152 O160 1.905 . S
Zn152 O161 1.898 . S
Zn152 O169 1.920 . S
Zn153 O156 2.080 . S
Zn153 O159 2.114 . S
Zn153 O162 2.120 . S
Zn153 O164 2.120 . S
Zn153 O165 2.114 1_455 S
Zn153 O168 2.080 . S
C154 O159 1.166 . S
C154 O160 1.182 . S
C155 O161 1.167 . S
C155 O162 1.299 . S
O156 Zn153 2.080 . S
O156 C170 1.305 . S
O157 Zn151 1.920 1_455 S
O157 C170 1.234 . S
C158 O163 1.170 . S
C158 O164 1.299 . S
O159 Zn153 2.114 . S
O159 C154 1.166 . S
O160 Zn152 1.905 . S
O160 C154 1.182 . S
O161 Zn152 1.898 . S
O161 C155 1.167 . S
O162 Zn153 2.120 . S
O162 C155 1.299 . S
O163 Zn151 1.898 1_455 S
O163 C158 1.170 . S
O164 Zn153 2.120 . S
O164 C158 1.299 . S
O165 Zn153 2.114 1_655 S
O165 C167 1.166 . S
O166 Zn151 1.905 . S
O166 C167 1.182 . S
C167 O165 1.166 . S
C167 O166 1.182 . S
O168 Zn153 2.080 . S
O168 C171 1.305 . S
O169 Zn152 1.920 . S
O169 C171 1.234 . S
C170 O156 1.305 . S
C170 O157 1.234 . S
C171 O168 1.305 . S
C171 O169 1.234 . S
C95 C5 1.470 . S
C113 C16 1.381 . S
C30 C137 1.658 . S
C167 C41 1.395 . S
C155 C49 0.795 . S
C63 C108 1.209 . S
C74 C128 1.426 . S
C82 C133 0.963 . S
C85 C149 1.193 . S
C60 C104 0.974 . S
C171 C38 1.394 . S
C116 C19 1.387 . S
C27 C134 1.452 1_565 S
C8 C92 1.658 1_545 S
C112 C71 0.797 1_565 S
C158 C52 1.401 1_545 S
C154 C7 1.284 1_556 S
C107 C18 1.949 . S
C29 C129 1.243 . S
C40 C150 1.929 . S
C91 C51 1.157 1_554 S
C62 C125 1.388 . S
C146 C73 1.195 . S
C170 C84 1.356 . S
