# Generated by pormake.
# Topology pts, (4,4)-cn, num edge types: 1
# Building blocks:
#     Node 0, Type 0, BuildingBlock: NAWXER_clean_sbu_0, # of connection points: 4
#     Node 1, Type 0, BuildingBlock: NAWXER_clean_sbu_0, # of connection points: 4
#     Node 2, Type 1, BuildingBlock: QUQFOY_clean_sbu_1, # of connection points: 4
#     Node 3, Type 1, BuildingBlock: QUQFOY_clean_sbu_1, # of connection points: 4
#     Edge 4, Type (0, 1), BuildingBlock: XIVTED_clean_linker_0, # of connection points: 2
#     Edge 5, Type (0, 1), BuildingBlock: XIVTED_clean_linker_0, # of connection points: 2
#     Edge 6, Type (0, 1), BuildingBlock: XIVTED_clean_linker_0, # of connection points: 2
#     Edge 7, Type (0, 1), BuildingBlock: XIVTED_clean_linker_0, # of connection points: 2
#     Edge 8, Type (0, 1), BuildingBlock: XIVTED_clean_linker_0, # of connection points: 2
#     Edge 9, Type (0, 1), BuildingBlock: XIVTED_clean_linker_0, # of connection points: 2
#     Edge 10, Type (0, 1), BuildingBlock: XIVTED_clean_linker_0, # of connection points: 2
#     Edge 11, Type (0, 1), BuildingBlock: XIVTED_clean_linker_0, # of connection points: 2
# Relax obj value: 0.106
# Max RMSD: 0.243
# Mean RMSD: 0.140
data_MOF--net-pts--node1-NAWXER_clean_sbu_0--node2-QUQFOY_clean_sbu_1--edge1-XIVTED_clean_linker_0
_symmetry_space_group_name_H-M    P1
_symmetry_Int_Tables_number       1
_symmetry_cell_setting            triclinic
loop_
_symmetry_equiv_pos_as_xyz
'x, y, z'
_cell_length_a     22.277817
_cell_length_b     24.483636
_cell_length_c     39.728918
_cell_angle_alpha  90.016322
_cell_angle_beta   90.017875
_cell_angle_gamma 90.272249
loop_
_atom_site_label
_atom_site_type_symbol
_atom_site_fract_x
_atom_site_fract_y
_atom_site_fract_z
_atom_type_partial_charge
C0 C 0.41407 0.96383 0.95812 0.0
C1 C 0.565 0.97109 0.04794 0.0
O2 O 0.43627 0.92218 0.97269 0.0
Zn3 Zn 0.48962 0.96272 1.00303 0.0
O4 O 0.42949 0.01186 0.96759 0.0
Zn5 Zn 0.48645 0.05209 1.00242 0.0
O6 O 0.5408 0.0914 0.97201 0.0
O7 O 0.54762 1.00157 0.96825 0.0
O8 O 0.54625 0.0175 0.03766 0.0
O9 O 0.54556 0.92747 0.03415 0.0
O10 O 0.42836 0.99861 0.03689 0.0
O11 O 0.4292 0.08851 0.03232 0.0
C12 C 0.56335 0.04921 0.95823 0.0
C13 C 0.4091 0.04531 0.04632 0.0
C14 C 0.94508 0.5813 0.4639 0.0
C15 C 0.95523 0.42929 0.54404 0.0
O16 O 0.90015 0.55378 0.47435 0.0
Zn17 Zn 0.94571 0.50288 0.5023 0.0
O18 O -0.0017 0.56783 0.47261 0.0
Zn19 Zn 0.04309 0.50911 0.50276 0.0
O20 O 0.08749 0.46368 0.47059 0.0
O21 O 0.98917 0.45531 0.46556 0.0
O22 O 0.00606 0.44986 0.5358 0.0
O23 O 0.90742 0.44658 0.53015 0.0
O24 O 0.98367 0.55649 0.53923 0.0
O25 O 0.08273 0.55847 0.53431 0.0
C26 C 0.04207 0.44287 0.4559 0.0
C27 C 0.03497 0.57465 0.54882 0.0
O28 O 0.92151 0.95445 0.22725 0.0
Cd29 Cd -0.0036 0.95128 0.25726 0.0
Cd30 Cd 0.97894 0.06204 0.25673 0.0
O31 O 0.8967 0.04019 0.2364 0.0
O32 O -0.00061 0.8721 0.26849 0.0
O33 O 0.98583 0.93643 0.30683 0.0
C34 C 0.98866 0.88514 0.29933 0.0
C35 C 0.98779 0.13196 0.29659 0.0
C36 C 0.88515 0.9937 0.22355 0.0
C37 C 0.08812 0.01809 0.22145 0.0
O38 O 0.05206 0.05759 0.22532 0.0
O39 O 0.07723 0.97199 0.235 0.0
O40 O 0.97314 0.14181 0.26583 0.0
O41 O -0.00541 0.08157 0.3054 0.0
O42 O 0.92656 0.05899 0.78337 0.0
Cd43 Cd -0.00025 0.0571 0.75178 0.0
Cd44 Cd 0.97634 0.94949 0.75287 0.0
O45 O 0.89529 0.97543 0.77229 0.0
O46 O 0.01191 0.13503 0.73948 0.0
O47 O 0.98485 0.07202 0.7025 0.0
C48 C -0.00379 0.12268 0.7092 0.0
C49 C 0.98159 0.88235 0.71135 0.0
C50 C 0.88707 0.02171 0.78605 0.0
C51 C 0.08861 0.98641 0.78675 0.0
O52 O 0.049 0.94914 0.78479 0.0
O53 O 0.08059 0.03192 0.77202 0.0
O54 O 0.96498 0.87103 0.74163 0.0
O55 O -0.00751 0.93285 0.70399 0.0
H56 H 0.34007 0.13168 0.06918 0.0
H57 H 0.17537 0.94345 0.20664 0.0
H58 H 0.37913 0.96169 0.0877 0.0
H59 H 0.12136 0.1092 0.18572 0.0
H60 H 0.2574 0.95382 0.1666 0.0
H61 H 0.26569 0.12854 0.11502 0.0
C62 C 0.33323 0.09394 0.08289 0.0
C63 C 0.36537 0.0468 0.07432 0.0
C64 C 0.2278 0.9881 0.17084 0.0
C65 C 0.28125 0.04294 0.12659 0.0
C66 C 0.18096 0.98216 0.1938 0.0
C67 C 0.14106 0.02529 0.19938 0.0
C68 C 0.23486 0.03747 0.15315 0.0
C69 C 0.15083 0.07468 0.18207 0.0
C70 C 0.29088 0.09212 0.10899 0.0
C71 C 0.35496 0.99897 0.09301 0.0
N72 N 0.19651 0.07932 0.15954 0.0
N73 N 0.31388 0.99831 0.11807 0.0
H74 H 0.03016 0.42102 0.59704 0.0
H75 H 0.93732 0.1179 0.64825 0.0
H76 H 0.88041 0.33933 0.54967 0.0
H77 H 0.03762 0.22717 0.71263 0.0
H78 H 0.92164 0.19373 0.60859 0.0
H79 H 0.03836 0.3461 0.63691 0.0
C80 C -0.00137 0.3873 0.59522 0.0
C81 C 0.95453 0.38629 0.57006 0.0
C82 C 0.94696 0.20088 0.63145 0.0
C83 C 0.96429 0.29959 0.61546 0.0
C84 C 0.9564 0.15763 0.65391 0.0
C85 C 0.98905 0.16622 0.68372 0.0
C86 C 0.97111 0.25266 0.63874 0.0
C87 C 0.01222 0.2186 0.68998 0.0
C88 C 0.00332 0.34451 0.61803 0.0
C89 C 0.91473 0.34171 0.56892 0.0
N90 N 0.00304 0.25962 0.66766 0.0
N91 N 0.92096 0.29961 0.59114 0.0
H92 H 0.59146 0.05531 0.0897 0.0
H93 H 0.84916 0.90068 0.19062 0.0
H94 H 0.63432 0.88587 0.07202 0.0
H95 H 0.79928 0.06886 0.20695 0.0
H96 H 0.76662 0.89131 0.15047 0.0
H97 H 0.66308 0.05765 0.13547 0.0
C98 C 0.61607 0.01839 0.09541 0.0
C99 C 0.60732 0.97039 0.07663 0.0
C100 C 0.77347 0.93008 0.16306 0.0
C101 C 0.69011 0.97298 0.12954 0.0
C102 C 0.82054 0.93554 0.18604 0.0
C103 C 0.83157 0.98589 0.20201 0.0
C104 C 0.73719 0.97528 0.15593 0.0
C105 C 0.79282 0.02941 0.19515 0.0
C106 C 0.65696 0.01979 0.12176 0.0
C107 C 0.63993 0.92378 0.08572 0.0
N108 N 0.74769 0.02317 0.17248 0.0
N109 N 0.6804 0.92634 0.11144 0.0
H110 H 0.9627 0.57836 0.60326 0.0
H111 H 0.04183 0.88615 0.65092 0.0
H112 H 0.10734 0.66557 0.55481 0.0
H113 H 0.94378 0.77677 0.71623 0.0
H114 H 0.06175 0.80917 0.61284 0.0
H115 H 0.95208 0.65314 0.64326 0.0
C116 C -0.00716 0.61311 0.6014 0.0
C117 C 0.03608 0.61586 0.57585 0.0
C118 C 0.03599 0.8022 0.63556 0.0
C119 C 0.02321 0.70243 0.62106 0.0
C120 C 0.02411 0.84612 0.6571 0.0
C121 C -0.00914 0.83788 0.68671 0.0
C122 C 0.01376 0.75 0.64355 0.0
C123 C 0.96954 0.78508 0.69369 0.0
C124 C 0.98668 0.65586 0.62418 0.0
C125 C 0.07388 0.6618 0.57444 0.0
N126 N 0.98112 0.74332 0.67224 0.0
N127 N 0.06606 0.70381 0.59652 0.0
H128 H 0.3393 0.87774 0.94035 0.0
H129 H 0.18523 0.05458 0.79439 0.0
H130 H 0.39396 0.03994 0.91033 0.0
H131 H 0.11528 0.89848 0.82689 0.0
H132 H 0.2699 0.04318 0.83241 0.0
H133 H 0.26431 0.87789 0.89469 0.0
C134 C 0.33593 0.91299 0.92401 0.0
C135 C 0.37216 0.95918 0.92944 0.0
C136 C 0.23625 0.01118 0.83116 0.0
C137 C 0.2874 0.95965 0.87747 0.0
C138 C 0.18782 0.01772 0.80938 0.0
C139 C 0.1427 0.97775 0.80768 0.0
C140 C 0.23964 0.96446 0.85164 0.0
C141 C 0.14886 0.93056 0.82756 0.0
C142 C 0.29317 0.91317 0.89808 0.0
C143 C 0.36623 1.00378 0.90752 0.0
N144 N 0.19618 0.92541 0.84896 0.0
N145 N 0.3246 1.00296 0.88272 0.0
H146 H 0.98155 0.44275 0.39722 0.0
H147 H 0.04248 0.12916 0.35874 0.0
H148 H 0.11126 0.35037 0.45371 0.0
H149 H 0.96066 0.23934 0.28764 0.0
H150 H 0.06535 0.20744 0.3954 0.0
H151 H 0.97268 0.36753 0.35725 0.0
C152 C 0.00921 0.40689 0.40069 0.0
C153 C 0.0476 0.40277 0.42849 0.0
C154 C 0.04259 0.21433 0.3717 0.0
C155 C 0.0361 0.31549 0.38358 0.0
C156 C 0.02901 0.16968 0.35094 0.0
C157 C -0.00072 0.17769 0.32017 0.0
C158 C 0.02565 0.26713 0.36174 0.0
C159 C 0.98347 0.23113 0.31115 0.0
C160 C 0.00391 0.36381 0.37801 0.0
C161 C 0.08187 0.35525 0.43222 0.0
N162 N -0.00345 0.27363 0.33187 0.0
N163 N 0.07464 0.31291 0.41025 0.0
H164 H 0.63689 0.13527 0.93874 0.0
H165 H 0.79076 0.95365 0.7949 0.0
H166 H 0.58533 0.97057 0.91228 0.0
H167 H 0.86042 0.11119 0.82495 0.0
H168 H 0.70678 0.96598 0.83322 0.0
H169 H 0.71143 0.13382 0.89285 0.0
C170 C 0.64089 0.09915 0.92317 0.0
C171 C 0.60559 0.05272 0.92964 0.0
C172 C 0.74021 0.9981 0.83137 0.0
C173 C 0.68975 0.05082 0.87738 0.0
C174 C 0.78823 0.99104 0.80941 0.0
C175 C 0.83311 0.03113 0.80694 0.0
C176 C 0.73696 0.04548 0.85129 0.0
C177 C 0.82702 0.079 0.82622 0.0
C178 C 0.68338 0.09825 0.8971 0.0
C179 C 0.61231 0.007 0.90866 0.0
N180 N 0.7801 0.08467 0.84784 0.0
N181 N 0.65357 0.00719 0.88369 0.0
H182 H -0.00337 0.67956 0.47449 0.0
H183 H 0.95656 0.77924 0.28781 0.0
H184 H 0.88077 0.59358 0.40539 0.0
H185 H -0.00804 0.89335 0.36828 0.0
H186 H 0.93499 0.70842 0.32954 0.0
H187 H 0.00024 0.75702 0.43564 0.0
C188 C 0.9711 0.67755 0.45128 0.0
C189 C 0.93816 0.63047 0.44302 0.0
C190 C 0.94711 0.74904 0.33804 0.0
C191 C 0.94359 0.71801 0.39812 0.0
C192 C 0.96004 0.78936 0.31429 0.0
C193 C 0.97663 0.84217 0.32463 0.0
C194 C 0.95195 0.76124 0.37242 0.0
C195 C 0.97961 0.85312 0.35925 0.0
C196 C 0.9732 0.72166 0.42918 0.0
C197 C 0.90616 0.62949 0.41268 0.0
N198 N 0.9681 0.81278 0.38194 0.0
N199 N 0.91052 0.67237 0.39094 0.0
loop_
_geom_bond_atom_site_label_1
_geom_bond_atom_site_label_2
_geom_bond_distance
_geom_bond_site_symmetry_2
_ccdc_geom_bond_type
C0 O2 1.247 . S
C0 O4 1.258 1_565 S
C1 O8 1.251 . S
C1 O9 1.254 1_545 S
O2 C0 1.247 . S
O2 Zn3 2.028 1_556 S
Zn3 O2 2.028 1_554 S
Zn3 O7 2.035 1_554 S
Zn3 O9 2.035 . S
Zn3 O10 2.028 . S
O4 C0 1.258 1_545 S
O4 Zn5 2.035 1_556 S
Zn5 O4 2.035 1_554 S
Zn5 O6 2.028 1_554 S
Zn5 O8 2.028 . S
Zn5 O11 2.035 . S
O6 Zn5 2.028 1_556 S
O6 C12 1.251 . S
O7 Zn3 2.035 1_556 S
O7 C12 1.254 1_565 S
O8 C1 1.251 . S
O8 Zn5 2.028 . S
O9 C1 1.254 1_565 S
O9 Zn3 2.035 . S
O10 Zn3 2.028 . S
O10 C13 1.247 . S
O11 Zn5 2.035 . S
O11 C13 1.258 1_545 S
C12 O6 1.251 . S
C12 O7 1.254 1_545 S
C13 O10 1.247 . S
C13 O11 1.258 1_565 S
C14 O16 1.247 . S
C14 O18 1.258 1_655 S
C15 O22 1.251 . S
C15 O23 1.254 1_455 S
O16 C14 1.247 . S
O16 Zn17 2.028 . S
Zn17 O16 2.028 . S
Zn17 O21 2.035 . S
Zn17 O23 2.035 . S
Zn17 O24 2.028 . S
O18 C14 1.258 1_455 S
O18 Zn19 2.035 . S
Zn19 O18 2.035 . S
Zn19 O20 2.028 . S
Zn19 O22 2.028 . S
Zn19 O25 2.035 . S
O20 Zn19 2.028 . S
O20 C26 1.251 . S
O21 Zn17 2.035 . S
O21 C26 1.254 1_655 S
O22 C15 1.251 . S
O22 Zn19 2.028 . S
O23 C15 1.254 1_655 S
O23 Zn17 2.035 . S
O24 Zn17 2.028 . S
O24 C27 1.247 . S
O25 Zn19 2.035 . S
O25 C27 1.258 1_455 S
C26 O20 1.251 . S
C26 O21 1.254 1_455 S
C27 O24 1.247 . S
C27 O25 1.258 1_655 S
O28 Cd29 2.223 1_655 S
O28 C36 1.315 . S
Cd29 O28 2.223 1_455 S
Cd29 O32 2.297 1_455 S
Cd29 O33 2.439 1_455 S
Cd29 O39 2.240 1_565 S
Cd30 O31 2.240 1_545 S
Cd30 O38 2.223 1_655 S
Cd30 O40 2.297 1_655 S
Cd30 O41 2.439 1_655 S
O31 Cd30 2.240 1_565 S
O31 C36 1.279 . S
O32 Cd29 2.297 1_655 S
O32 C34 1.247 . S
O33 Cd29 2.439 1_655 S
O33 C34 1.208 . S
C34 O32 1.247 . S
C34 O33 1.208 . S
C35 O40 1.247 . S
C35 O41 1.208 . S
C36 O28 1.315 . S
C36 O31 1.279 . S
C37 O38 1.315 . S
C37 O39 1.279 . S
O38 Cd30 2.223 1_455 S
O38 C37 1.315 . S
O39 Cd29 2.240 1_545 S
O39 C37 1.279 . S
O40 Cd30 2.297 1_455 S
O40 C35 1.247 . S
O41 Cd30 2.439 1_455 S
O41 C35 1.208 . S
O42 Cd43 2.223 1_655 S
O42 C50 1.315 . S
Cd43 O42 2.223 1_455 S
Cd43 O46 2.297 1_455 S
Cd43 O47 2.439 1_455 S
Cd43 O53 2.240 1_545 S
Cd44 O45 2.240 1_565 S
Cd44 O52 2.223 1_655 S
Cd44 O54 2.297 1_655 S
Cd44 O55 2.439 1_655 S
O45 Cd44 2.240 1_545 S
O45 C50 1.279 . S
O46 Cd43 2.297 1_655 S
O46 C48 1.247 . S
O47 Cd43 2.439 1_655 S
O47 C48 1.208 . S
C48 O46 1.247 . S
C48 O47 1.208 . S
C49 O54 1.247 . S
C49 O55 1.208 . S
C50 O42 1.315 . S
C50 O45 1.279 . S
C51 O52 1.315 . S
C51 O53 1.279 . S
O52 Cd44 2.223 1_455 S
O52 C51 1.315 . S
O53 Cd43 2.240 1_565 S
O53 C51 1.279 . S
O54 Cd44 2.297 1_455 S
O54 C49 1.247 . S
O55 Cd44 2.439 1_455 S
O55 C49 1.208 . S
H56 C62 0.930 . S
H57 C66 0.930 . S
H58 C71 0.929 . S
H59 C69 0.929 . S
H60 C64 0.929 . S
H61 C70 0.929 . S
C62 H56 0.930 . S
C62 C63 1.367 . S
C62 C70 1.378 . S
C63 C62 1.367 . S
C63 C71 1.433 1_545 S
C64 H60 0.929 . S
C64 C66 1.378 . S
C64 C68 1.350 1_565 S
C65 C68 1.463 . S
C65 C70 1.350 . S
C65 N73 1.427 1_545 S
C66 H57 0.930 . S
C66 C64 1.378 . S
C66 C67 1.367 1_565 S
C67 C66 1.367 1_545 S
C67 C69 1.433 . S
C68 C64 1.350 1_545 S
C68 C65 1.463 . S
C68 N72 1.427 . S
C69 H59 0.929 . S
C69 C67 1.433 . S
C69 N72 1.384 . S
C70 H61 0.929 . S
C70 C62 1.378 . S
C70 C65 1.350 . S
C71 H58 0.929 . S
C71 C63 1.433 1_565 S
C71 N73 1.384 . S
N72 C68 1.427 . S
N72 C69 1.384 . S
N73 C65 1.427 1_565 S
N73 C71 1.384 . S
H74 C80 0.930 . S
H75 C84 0.930 . S
H76 C89 0.929 . S
H77 C87 0.929 . S
H78 C82 0.929 . S
H79 C88 0.929 . S
C80 H74 0.930 . S
C80 C81 1.367 1_455 S
C80 C88 1.378 . S
C81 C80 1.367 1_655 S
C81 C89 1.433 . S
C82 H78 0.929 . S
C82 C84 1.378 . S
C82 C86 1.350 . S
C83 C86 1.463 . S
C83 C88 1.350 1_655 S
C83 N91 1.427 . S
C84 H75 0.930 . S
C84 C82 1.378 . S
C84 C85 1.367 . S
C85 C84 1.367 . S
C85 C87 1.433 1_655 S
C86 C82 1.350 . S
C86 C83 1.463 . S
C86 N90 1.427 1_655 S
C87 H77 0.929 . S
C87 C85 1.433 1_455 S
C87 N90 1.384 . S
C88 H79 0.929 . S
C88 C80 1.378 . S
C88 C83 1.350 1_455 S
C89 H76 0.929 . S
C89 C81 1.433 . S
C89 N91 1.384 . S
N90 C86 1.427 1_455 S
N90 C87 1.384 . S
N91 C83 1.427 . S
N91 C89 1.384 . S
H92 C98 0.930 . S
H93 C102 0.930 . S
H94 C107 0.929 . S
H95 C105 0.929 . S
H96 C100 0.929 . S
H97 C106 0.929 . S
C98 H92 0.930 . S
C98 C99 1.367 1_545 S
C98 C106 1.378 . S
C99 C98 1.367 1_565 S
C99 C107 1.433 . S
C100 H96 0.929 . S
C100 C102 1.378 . S
C100 C104 1.350 . S
C101 C104 1.463 . S
C101 C106 1.350 1_565 S
C101 N109 1.427 . S
C102 H93 0.930 . S
C102 C100 1.378 . S
C102 C103 1.367 . S
C103 C102 1.367 . S
C103 C105 1.433 1_565 S
C104 C100 1.350 . S
C104 C101 1.463 . S
C104 N108 1.427 1_565 S
C105 H95 0.929 . S
C105 C103 1.433 1_545 S
C105 N108 1.384 . S
C106 H97 0.929 . S
C106 C98 1.378 . S
C106 C101 1.350 1_545 S
C107 H94 0.929 . S
C107 C99 1.433 . S
C107 N109 1.384 . S
N108 C104 1.427 1_545 S
N108 C105 1.384 . S
N109 C101 1.427 . S
N109 C107 1.384 . S
H110 C116 0.930 . S
H111 C120 0.930 . S
H112 C125 0.929 . S
H113 C123 0.929 . S
H114 C118 0.929 . S
H115 C124 0.929 . S
C116 H110 0.930 . S
C116 C117 1.367 1_655 S
C116 C124 1.378 1_655 S
C117 C116 1.367 1_455 S
C117 C125 1.433 . S
C118 H114 0.929 . S
C118 C120 1.378 . S
C118 C122 1.350 . S
C119 C122 1.463 . S
C119 C124 1.350 . S
C119 N127 1.427 . S
C120 H111 0.930 . S
C120 C118 1.378 . S
C120 C121 1.367 . S
C121 C120 1.367 . S
C121 C123 1.433 . S
C122 C118 1.350 . S
C122 C119 1.463 . S
C122 N126 1.427 . S
C123 H113 0.929 . S
C123 C121 1.433 . S
C123 N126 1.384 . S
C124 H115 0.929 . S
C124 C116 1.378 1_455 S
C124 C119 1.350 . S
C125 H112 0.929 . S
C125 C117 1.433 . S
C125 N127 1.384 . S
N126 C122 1.427 . S
N126 C123 1.384 . S
N127 C119 1.427 . S
N127 C125 1.384 . S
H128 C134 0.930 . S
H129 C138 0.930 . S
H130 C143 0.929 . S
H131 C141 0.929 . S
H132 C136 0.929 . S
H133 C142 0.929 . S
C134 H128 0.930 . S
C134 C135 1.367 . S
C134 C142 1.378 . S
C135 C134 1.367 . S
C135 C143 1.433 1_565 S
C136 H132 0.929 . S
C136 C138 1.378 . S
C136 C140 1.350 1_545 S
C137 C140 1.463 . S
C137 C142 1.350 . S
C137 N145 1.427 1_565 S
C138 H129 0.930 . S
C138 C136 1.378 . S
C138 C139 1.367 1_545 S
C139 C138 1.367 1_565 S
C139 C141 1.433 . S
C140 C136 1.350 1_565 S
C140 C137 1.463 . S
C140 N144 1.427 . S
C141 H131 0.929 . S
C141 C139 1.433 . S
C141 N144 1.384 . S
C142 H133 0.929 . S
C142 C134 1.378 . S
C142 C137 1.350 . S
C143 H130 0.929 . S
C143 C135 1.433 1_545 S
C143 N145 1.384 . S
N144 C140 1.427 . S
N144 C141 1.384 . S
N145 C137 1.427 1_545 S
N145 C143 1.384 . S
H146 C152 0.930 . S
H147 C156 0.930 . S
H148 C161 0.929 . S
H149 C159 0.921 1_655 S
H150 C154 0.929 . S
H151 C160 0.929 . S
C152 H146 0.930 . S
C152 C153 1.367 1_655 S
C152 C160 1.378 . S
C153 C152 1.367 1_455 S
C153 C161 1.433 . S
C154 H150 0.929 . S
C154 C156 1.378 . S
C154 C158 1.350 . S
C155 C158 1.463 . S
C155 C160 1.350 1_455 S
C155 N163 1.427 . S
C156 H147 0.930 . S
C156 C154 1.378 . S
C156 C157 1.367 . S
C157 C156 1.367 . S
C157 C159 1.444 . S
C158 C154 1.350 . S
C158 C155 1.463 . S
C158 N162 1.427 1_455 S
C159 H149 0.921 1_455 S
C159 C157 1.444 . S
C159 N162 1.382 1_455 S
C160 H151 0.929 . S
C160 C152 1.378 . S
C160 C155 1.350 1_655 S
C161 H148 0.929 . S
C161 C153 1.433 . S
C161 N163 1.384 . S
N162 C158 1.427 1_655 S
N162 C159 1.382 1_655 S
N163 C155 1.427 . S
N163 C161 1.384 . S
H164 C170 0.930 . S
H165 C174 0.930 . S
H166 C179 0.929 . S
H167 C177 0.929 . S
H168 C172 0.929 . S
H169 C178 0.929 . S
C170 H164 0.930 . S
C170 C171 1.367 . S
C170 C178 1.378 . S
C171 C170 1.367 . S
C171 C179 1.433 1_545 S
C172 H168 0.929 . S
C172 C174 1.378 . S
C172 C176 1.350 1_565 S
C173 C176 1.463 . S
C173 C178 1.350 . S
C173 N181 1.427 1_545 S
C174 H165 0.930 . S
C174 C172 1.378 . S
C174 C175 1.367 1_565 S
C175 C174 1.367 1_545 S
C175 C177 1.433 . S
C176 C172 1.350 1_545 S
C176 C173 1.463 . S
C176 N180 1.427 . S
C177 H167 0.929 . S
C177 C175 1.433 . S
C177 N180 1.384 . S
C178 H169 0.929 . S
C178 C170 1.378 . S
C178 C173 1.350 . S
C179 H166 0.929 . S
C179 C171 1.433 1_565 S
C179 N181 1.384 . S
N180 C176 1.427 . S
N180 C177 1.384 . S
N181 C173 1.427 1_565 S
N181 C179 1.384 . S
H182 C188 0.930 . S
H183 C192 0.930 . S
H184 C197 0.929 . S
H185 C195 0.929 . S
H186 C190 0.929 . S
H187 C196 0.929 . S
C188 H182 0.930 . S
C188 C189 1.367 1_455 S
C188 C196 1.378 . S
C189 C188 1.367 1_655 S
C189 C197 1.433 . S
C190 H186 0.929 . S
C190 C192 1.378 . S
C190 C194 1.350 . S
C191 C194 1.463 . S
C191 C196 1.350 1_655 S
C191 N199 1.427 . S
C192 H183 0.930 . S
C192 C190 1.378 . S
C192 C193 1.367 . S
C193 C192 1.367 . S
C193 C195 1.433 1_655 S
C194 C190 1.350 . S
C194 C191 1.463 . S
C194 N198 1.427 1_655 S
C195 H185 0.929 . S
C195 C193 1.433 1_455 S
C195 N198 1.384 . S
C196 H187 0.929 . S
C196 C188 1.378 . S
C196 C191 1.350 1_455 S
C197 H184 0.929 . S
C197 C189 1.433 . S
C197 N199 1.384 . S
N198 C194 1.427 1_455 S
N198 C195 1.384 . S
N199 C191 1.427 . S
N199 C197 1.384 . S
C67 C37 1.554 . S
C63 C13 1.547 1_545 S
C85 C48 1.514 . S
C81 C15 1.565 1_655 S
C103 C36 1.554 . S
C99 C1 1.550 1_565 S
C121 C49 1.510 . S
C117 C27 1.566 1_455 S
C139 C51 1.554 . S
C135 C0 1.552 . S
C157 C35 1.513 . S
C153 C26 1.564 . S
C175 C50 1.555 . S
C171 C12 1.555 . S
C189 C14 1.567 . S
C193 C34 1.513 . S
