# Generated by pormake.
# Topology pts, (4,4)-cn, num edge types: 1
# Building blocks:
#     Node 0, Type 0, BuildingBlock: ESEHIV_clean_sbu_0, # of connection points: 4
#     Node 1, Type 0, BuildingBlock: ESEHIV_clean_sbu_0, # of connection points: 4
#     Node 2, Type 1, BuildingBlock: AZAVOO_clean_sbu_0, # of connection points: 4
#     Node 3, Type 1, BuildingBlock: AZAVOO_clean_sbu_0, # of connection points: 4
#     Edge 4, Type (0, 1), BuildingBlock: AJUNOK_clean_linker_0, # of connection points: 2
#     Edge 5, Type (0, 1), BuildingBlock: AJUNOK_clean_linker_0, # of connection points: 2
#     Edge 6, Type (0, 1), BuildingBlock: AJUNOK_clean_linker_0, # of connection points: 2
#     Edge 7, Type (0, 1), BuildingBlock: AJUNOK_clean_linker_0, # of connection points: 2
#     Edge 8, Type (0, 1), BuildingBlock: AJUNOK_clean_linker_0, # of connection points: 2
#     Edge 9, Type (0, 1), BuildingBlock: AJUNOK_clean_linker_0, # of connection points: 2
#     Edge 10, Type (0, 1), BuildingBlock: AJUNOK_clean_linker_0, # of connection points: 2
#     Edge 11, Type (0, 1), BuildingBlock: AJUNOK_clean_linker_0, # of connection points: 2
# Relax obj value: 0.001
# Max RMSD: 0.095
# Mean RMSD: 0.061
data_MOF--net-pts--node1-ESEHIV_clean_sbu_0--node2-AZAVOO_clean_sbu_0--edge1-AJUNOK_clean_linker_0
_symmetry_space_group_name_H-M    P1
_symmetry_Int_Tables_number       1
_symmetry_cell_setting            triclinic
loop_
_symmetry_equiv_pos_as_xyz
'x, y, z'
_cell_length_a     17.652147
_cell_length_b     19.243954
_cell_length_c     28.025533
_cell_angle_alpha  95.110336
_cell_angle_beta   101.55367
_cell_angle_gamma 89.983907
loop_
_atom_site_label
_atom_site_type_symbol
_atom_site_fract_x
_atom_site_fract_y
_atom_site_fract_z
_atom_type_partial_charge
Cu0 Cu 0.61507 0.06023 0.03393 0.0
N1 N 0.6644 0.01209 0.98844 0.0
N2 N 0.73678 0.00525 0.93138 0.0
C3 C 0.71645 0.04471 0.96872 0.0
C4 C 0.6954 0.94515 0.92718 0.0
C5 C 0.6508 0.9494 0.9627 0.0
O6 O 0.69681 0.10786 0.08304 0.0
C7 C 0.47958 0.07068 0.9712 0.0
O8 O 0.48338 0.00396 0.97755 0.0
H9 H 0.73482 0.09848 0.97947 0.0
H10 H 0.60866 0.91128 0.9676 0.0
N11 N 0.56181 0.00928 0.07061 0.0
N12 N 0.47529 0.99814 0.11775 0.0
C13 C 0.51479 0.0425 0.09695 0.0
C14 C 0.55228 0.94085 0.07469 0.0
C15 C 0.49816 0.93381 0.1037 0.0
C16 C 0.75012 0.06592 0.09911 0.0
O17 O 0.74519 1.00069 0.08036 0.0
H18 H 0.50679 0.09836 0.09846 0.0
H19 H 0.58031 0.89928 0.05661 0.0
O20 O 0.53489 0.11162 0.99366 0.0
H21 H 0.69523 0.90241 0.8993 0.0
H22 H 0.4764 0.88529 0.11302 0.0
Cu23 Cu 0.14945 0.60308 0.54788 0.0
N24 N 0.20295 0.5468 0.59343 0.0
N25 N 0.21655 0.46027 0.64219 0.0
C26 C 0.16899 0.49141 0.60702 0.0
C27 C 0.28408 0.49656 0.6504 0.0
C28 C 0.27526 0.55067 0.62045 0.0
O29 O 0.10045 0.53889 0.49284 0.0
C30 C 0.08859 0.67417 0.62411 0.0
O31 O 0.13057 0.63174 0.65231 0.0
H32 H 0.11035 0.47408 0.59097 0.0
H33 H 0.31804 0.59015 0.6189 0.0
N34 N 0.20996 0.66694 0.52552 0.0
N35 N 0.22916 0.75749 0.48488 0.0
C36 C 0.17753 0.72093 0.50229 0.0
C37 C 0.28535 0.66941 0.52315 0.0
C38 C 0.2972 0.72522 0.49742 0.0
C39 C 0.14384 0.51409 0.46438 0.0
O40 O 0.21516 0.53799 0.47132 0.0
H41 H 0.11616 0.73107 0.49616 0.0
H42 H 0.32769 0.63174 0.53705 0.0
O43 O 0.08003 0.66292 0.57783 0.0
H44 H 0.33568 0.48509 0.6764 0.0
H45 H 0.35097 0.74006 0.48778 0.0
Mg46 Mg 0.17956 0.09527 0.32231 0.0
O47 O 0.06157 0.08372 0.26951 0.0
O48 O 0.97091 0.08118 0.31452 0.0
Mg49 Mg 1.031 0.07872 0.39471 0.0
C50 C 0.9907 0.08296 0.2733 0.0
C51 C 0.23503 0.06544 0.22695 0.0
O52 O 0.1837 0.01574 0.22622 0.0
O53 O 0.15035 0.20873 0.34317 0.0
O54 O 0.06757 0.19247 0.39228 0.0
O55 O 0.19709 0.98149 0.32323 0.0
O56 O 0.14148 0.04315 0.37619 0.0
C57 C 0.10731 0.2327 0.37239 0.0
C58 C 0.16647 0.98365 0.36149 0.0
O59 O 0.24069 0.11615 0.26007 0.0
Mg60 Mg 0.04925 0.07852 0.74777 0.0
O61 O 0.16355 0.07641 0.80435 0.0
O62 O 0.25683 0.04882 0.76297 0.0
Mg63 Mg 0.2026 0.02759 0.68171 0.0
C64 C 0.23474 0.06679 0.80291 0.0
C65 C 0.91654 0.09042 0.79432 0.0
O66 O 0.89542 0.06183 0.74919 0.0
O67 O 0.09017 0.18401 0.7277 0.0
O68 O 0.17924 0.14473 0.68553 0.0
O69 O 1.02577 0.9657 0.75004 0.0
O70 O 0.08883 0.0067 0.69792 0.0
C71 C 0.14158 0.19459 0.70251 0.0
C72 C 0.06185 0.95363 0.71452 0.0
O73 O 0.98375 0.11864 0.80683 0.0
C74 C 0.34754 0.97611 0.13721 0.0
C75 C 0.41571 0.01663 0.14486 0.0
C76 C 0.2881 0.99444 0.16224 0.0
C77 C 0.29455 0.05384 0.1963 0.0
H78 H 0.33983 0.93016 0.11135 0.0
H79 H 0.23721 0.96075 0.15537 0.0
S80 S 0.46261 0.17704 0.22976 0.0
N81 N 0.48696 0.11858 0.18896 0.0
N82 N 0.37534 0.15348 0.2358 0.0
C83 C 0.36222 0.09545 0.20371 0.0
C84 C 0.42275 0.07669 0.17814 0.0
C85 C 0.2536 0.34421 0.66819 0.0
C86 C 0.19961 0.39781 0.66305 0.0
C87 C 0.23463 0.27958 0.68239 0.0
C88 C 0.16115 0.26622 0.69262 0.0
H89 H 0.30972 0.35129 0.65909 0.0
H90 H 0.2777 0.23925 0.68447 0.0
S91 S 1.00238 0.3929 0.68999 0.0
N92 N 0.07207 0.43606 0.67314 0.0
N93 N 1.03628 0.31439 0.70013 0.0
C94 C 0.10804 0.32082 0.69017 0.0
C95 C 0.12722 0.38657 0.67518 0.0
C96 C 0.88761 0.06032 0.14015 0.0
C97 C 0.81291 0.08468 0.14157 0.0
C98 C 0.94525 0.06188 0.18265 0.0
C99 C 0.92976 0.0861 0.22852 0.0
H100 H 0.9008 0.03751 0.10604 0.0
H101 H 1.00143 0.04126 0.17973 0.0
S102 S 0.74384 0.15907 0.25127 0.0
N103 N 0.72715 0.13698 0.19173 0.0
N104 N 0.83481 0.13919 0.27214 0.0
C105 C 0.85576 0.11293 0.23013 0.0
C106 C 0.79752 0.11252 0.18651 0.0
C107 C 0.07838 0.80301 0.62055 0.0
C108 C 0.07244 0.74397 0.64595 0.0
C109 C 0.0768 0.87065 0.64342 0.0
C110 C 0.06783 0.88176 0.69225 0.0
H111 H 0.08732 0.79708 0.58329 0.0
H112 H 0.08213 0.91451 0.62254 0.0
S113 S 0.0467 0.74462 0.77408 0.0
N114 N 0.05577 0.70092 0.72215 0.0
N115 N 0.05086 0.82798 0.76488 0.0
C116 C 0.05985 0.82318 0.71765 0.0
C117 C 0.06262 0.75434 0.69457 0.0
C118 C 0.43083 0.1028 0.88722 0.0
C119 C 0.41594 0.09194 0.93332 0.0
C120 C 0.37127 0.09654 0.84547 0.0
C121 C 0.29464 0.07955 0.84843 0.0
H122 H 0.48973 0.11068 0.88278 0.0
H123 H 0.38601 0.10273 0.81036 0.0
S124 S 0.22554 0.0523 0.96213 0.0
N125 N 0.3194 0.06765 0.98046 0.0
N126 N 0.2068 0.05777 0.90243 0.0
C127 C 0.27841 0.07334 0.89502 0.0
C128 C 0.3393 0.07893 0.93733 0.0
C129 C 0.0674 0.40266 0.44203 0.0
C130 C 0.12244 0.44899 0.43208 0.0
C131 C 0.05987 0.334 0.42018 0.0
C132 C 0.10701 0.30886 0.38744 0.0
H133 H 1.03336 0.41789 0.46927 0.0
H134 H 1.01919 0.29954 0.43109 0.0
S135 S 0.24917 0.41432 0.34194 0.0
N136 N 0.21668 0.46865 0.38191 0.0
N137 N 0.20277 0.33958 0.34091 0.0
C138 C 0.1573 0.35672 0.37385 0.0
C139 C 0.16496 0.42673 0.39618 0.0
C140 C 0.75733 0.0132 0.84761 0.0
C141 C 0.78248 0.02807 0.89823 0.0
C142 C 0.7994 0.0367 0.81461 0.0
C143 C 0.86916 0.07543 0.83076 0.0
H144 H 0.70415 0.9837 0.83337 0.0
H145 H 0.77745 0.02295 0.77598 0.0
S146 S 0.96016 0.12772 0.96029 0.0
N147 N 0.88096 0.08412 0.96341 0.0
N148 N 0.96095 0.1278 0.90145 0.0
C149 C 0.89455 0.09138 0.88148 0.0
C150 C 0.85108 0.06779 0.91514 0.0
C151 C 0.23813 0.81298 0.41042 0.0
C152 C 0.21172 0.81391 0.4544 0.0
C153 C 0.21926 0.86631 0.37942 0.0
C154 C 0.1743 0.92335 0.39163 0.0
H155 H 0.27308 0.77034 0.39977 0.0
H156 H 0.24215 0.86355 0.34623 0.0
S157 S 0.09123 0.94917 0.50355 0.0
N158 N 0.13774 0.87491 0.50878 0.0
N159 N 0.10336 0.9763 0.45126 0.0
C160 C 0.14682 0.92421 0.43551 0.0
C161 C 0.16532 0.86925 0.46671 0.0
loop_
_geom_bond_atom_site_label_1
_geom_bond_atom_site_label_2
_geom_bond_distance
_geom_bond_site_symmetry_2
_ccdc_geom_bond_type
Cu0 N1 1.999 1_554 S
Cu0 O6 1.974 . S
Cu0 N11 1.985 . S
Cu0 O20 1.959 1_554 S
N1 Cu0 1.999 1_556 S
N1 C3 1.263 . S
N1 C5 1.389 . S
N2 C3 1.358 . S
N2 C4 1.400 . S
C3 N1 1.263 . S
C3 N2 1.358 . S
C3 H9 0.930 . S
C4 N2 1.400 . S
C4 C5 1.351 . S
C4 H21 0.930 . S
C5 N1 1.389 . S
C5 C4 1.351 . S
C5 H10 0.930 . S
O6 Cu0 1.974 . S
O6 C16 1.282 . S
C7 O8 1.261 1_545 S
C7 O20 1.251 . S
O8 C7 1.261 1_565 S
H9 C3 0.930 . S
H10 C5 0.930 . S
N11 Cu0 1.985 . S
N11 C13 1.335 . S
N11 C14 1.390 . S
N12 C13 1.345 . S
N12 C15 1.336 . S
C13 N11 1.335 . S
C13 N12 1.345 . S
C13 H18 0.930 . S
C14 N11 1.390 . S
C14 C15 1.346 . S
C14 H19 0.930 . S
C15 N12 1.336 . S
C15 C14 1.346 . S
C15 H22 0.929 . S
C16 O6 1.282 . S
C16 O17 1.216 1_545 S
O17 C16 1.216 1_565 S
H18 C13 0.930 . S
H19 C14 0.930 . S
O20 Cu0 1.959 1_556 S
O20 C7 1.251 . S
H21 C4 0.930 . S
H22 C15 0.929 . S
Cu23 N24 1.999 . S
Cu23 O29 1.974 . S
Cu23 N34 1.985 . S
Cu23 O43 1.959 . S
N24 Cu23 1.999 . S
N24 C26 1.263 . S
N24 C28 1.389 . S
N25 C26 1.358 . S
N25 C27 1.400 . S
C26 N24 1.263 . S
C26 N25 1.358 . S
C26 H32 0.930 . S
C27 N25 1.400 . S
C27 C28 1.351 . S
C27 H44 0.930 1_455 S
C28 N24 1.389 . S
C28 C27 1.351 . S
C28 H33 0.930 1_455 S
O29 Cu23 1.974 . S
O29 C39 1.282 . S
C30 O31 1.261 . S
C30 O43 1.251 . S
O31 C30 1.261 . S
H32 C26 0.930 . S
H33 C28 0.930 1_655 S
N34 Cu23 1.985 . S
N34 C36 1.335 . S
N34 C37 1.390 . S
N35 C36 1.345 . S
N35 C38 1.336 . S
C36 N34 1.335 . S
C36 N35 1.345 . S
C36 H41 0.930 . S
C37 N34 1.390 . S
C37 C38 1.346 . S
C37 H42 0.930 . S
C38 N35 1.336 . S
C38 C37 1.346 . S
C38 H45 0.929 . S
C39 O29 1.282 . S
C39 O40 1.216 . S
O40 C39 1.216 . S
H41 C36 0.930 . S
H42 C37 0.930 . S
O43 Cu23 1.959 . S
O43 C30 1.251 . S
H44 C27 0.930 1_655 S
H45 C38 0.929 . S
Mg46 O47 2.028 . S
Mg46 O53 1.986 . S
Mg46 O55 2.114 1_545 S
Mg46 O56 2.251 . S
Mg46 O59 2.010 . S
O47 Mg46 2.028 . S
O47 C50 1.250 1_455 S
O48 Mg49 2.028 . S
O48 C50 1.248 . S
Mg49 O48 2.028 . S
Mg49 O54 2.032 1_655 S
Mg49 O56 2.079 1_655 S
C50 O47 1.250 1_655 S
C50 O48 1.248 . S
C51 O52 1.264 . S
C51 O59 1.249 . S
O52 C51 1.264 . S
O53 Mg46 1.986 . S
O53 C57 1.246 . S
O54 Mg49 2.032 1_455 S
O54 C57 1.259 . S
O55 Mg46 2.114 1_565 S
O55 C58 1.252 . S
O56 Mg46 2.251 . S
O56 Mg49 2.079 1_455 S
O56 C58 1.273 1_545 S
C57 O53 1.246 . S
C57 O54 1.259 . S
C58 O55 1.252 . S
C58 O56 1.273 1_565 S
O59 Mg46 2.010 . S
O59 C51 1.249 . S
Mg60 O61 2.028 . S
Mg60 O67 1.986 . S
Mg60 O69 2.114 1_545 S
Mg60 O70 2.251 1_545 S
Mg60 O73 2.010 1_455 S
O61 Mg60 2.028 . S
O61 C64 1.250 . S
O62 Mg63 2.028 . S
O62 C64 1.248 . S
Mg63 O62 2.028 . S
Mg63 O68 2.032 . S
Mg63 O70 2.079 1_545 S
C64 O61 1.250 . S
C64 O62 1.248 . S
C65 O66 1.264 . S
C65 O73 1.249 . S
O66 C65 1.264 . S
O67 Mg60 1.986 . S
O67 C71 1.246 . S
O68 Mg63 2.032 . S
O68 C71 1.259 . S
O69 Mg60 2.114 1_565 S
O69 C72 1.252 . S
O70 Mg60 2.251 1_565 S
O70 Mg63 2.079 1_565 S
O70 C72 1.273 . S
C71 O67 1.246 . S
C71 O68 1.259 . S
C72 O69 1.252 . S
C72 O70 1.273 . S
O73 Mg60 2.010 1_655 S
O73 C65 1.249 . S
C74 C75 1.369 . S
C74 C76 1.419 . S
C74 H78 0.930 . S
C75 C74 1.369 . S
C75 C84 1.429 . S
C76 C74 1.419 . S
C76 C77 1.363 . S
C76 H79 0.929 . S
C77 C76 1.363 . S
C77 C83 1.428 . S
H78 C74 0.930 . S
H79 C76 0.929 . S
S80 N81 1.613 . S
S80 N82 1.610 . S
N81 S80 1.613 . S
N81 C84 1.350 . S
N82 S80 1.610 . S
N82 C83 1.351 . S
C83 C77 1.428 . S
C83 N82 1.351 . S
C83 C84 1.434 . S
C84 C75 1.429 . S
C84 N81 1.350 . S
C84 C83 1.434 . S
C85 C86 1.369 . S
C85 C87 1.419 . S
C85 H89 0.930 . S
C86 C85 1.369 . S
C86 C95 1.429 . S
C87 C85 1.419 . S
C87 C88 1.363 . S
C87 H90 0.929 . S
C88 C87 1.363 . S
C88 C94 1.428 . S
H89 C85 0.930 . S
H90 C87 0.929 . S
S91 N92 1.613 . S
S91 N93 1.610 . S
N92 S91 1.613 . S
N92 C95 1.350 1_655 S
N93 S91 1.610 . S
N93 C94 1.351 1_655 S
C94 C88 1.428 . S
C94 N93 1.351 1_455 S
C94 C95 1.434 . S
C95 C86 1.429 . S
C95 N92 1.350 1_455 S
C95 C94 1.434 . S
C96 C97 1.369 . S
C96 C98 1.419 . S
C96 H100 0.930 . S
C97 C96 1.369 . S
C97 C106 1.429 . S
C98 C96 1.419 . S
C98 C99 1.363 . S
C98 H101 0.929 . S
C99 C98 1.363 . S
C99 C105 1.428 . S
H100 C96 0.930 . S
H101 C98 0.929 . S
S102 N103 1.613 . S
S102 N104 1.610 . S
N103 S102 1.613 . S
N103 C106 1.350 1_565 S
N104 S102 1.610 . S
N104 C105 1.351 1_565 S
C105 C99 1.428 . S
C105 N104 1.351 1_545 S
C105 C106 1.434 . S
C106 C97 1.429 . S
C106 N103 1.350 1_545 S
C106 C105 1.434 . S
C107 C108 1.369 . S
C107 C109 1.419 . S
C107 H111 0.930 . S
C108 C107 1.369 . S
C108 C117 1.429 . S
C109 C107 1.419 . S
C109 C110 1.363 . S
C109 H112 0.929 . S
C110 C109 1.363 . S
C110 C116 1.428 . S
H111 C107 0.930 . S
H112 C109 0.929 . S
S113 N114 1.613 . S
S113 N115 1.610 . S
N114 S113 1.613 . S
N114 C117 1.350 . S
N115 S113 1.610 . S
N115 C116 1.351 . S
C116 C110 1.428 . S
C116 N115 1.351 . S
C116 C117 1.434 . S
C117 C108 1.429 . S
C117 N114 1.350 . S
C117 C116 1.434 . S
C118 C119 1.369 1_565 S
C118 C120 1.420 . S
C118 H122 0.930 . S
C119 C118 1.369 1_545 S
C119 C128 1.429 . S
C120 C118 1.420 . S
C120 C121 1.354 1_565 S
C120 H123 0.937 . S
C121 C120 1.354 1_545 S
C121 C127 1.428 . S
H122 C118 0.930 . S
H123 C120 0.937 . S
S124 N125 1.613 . S
S124 N126 1.610 . S
N125 S124 1.613 . S
N125 C128 1.350 . S
N126 S124 1.610 . S
N126 C127 1.351 . S
C127 C121 1.428 . S
C127 N126 1.351 . S
C127 C128 1.434 . S
C128 C119 1.429 . S
C128 N125 1.350 . S
C128 C127 1.434 . S
C129 C130 1.369 . S
C129 C131 1.419 . S
C129 H133 0.930 . S
C130 C129 1.369 . S
C130 C139 1.429 . S
C131 C129 1.419 . S
C131 C132 1.363 . S
C131 H134 0.929 1_455 S
C132 C131 1.363 . S
C132 C138 1.428 . S
H133 C129 0.930 . S
H134 C131 0.929 1_655 S
S135 N136 1.613 . S
S135 N137 1.610 . S
N136 S135 1.613 . S
N136 C139 1.350 . S
N137 S135 1.610 . S
N137 C138 1.351 . S
C138 C132 1.428 . S
C138 N137 1.351 . S
C138 C139 1.434 . S
C139 C130 1.429 . S
C139 N136 1.350 . S
C139 C138 1.434 . S
C140 C141 1.369 . S
C140 C142 1.419 . S
C140 H144 0.930 . S
C141 C140 1.369 . S
C141 C150 1.429 . S
C142 C140 1.419 . S
C142 C143 1.363 . S
C142 H145 0.929 . S
C143 C142 1.363 . S
C143 C149 1.428 . S
H144 C140 0.930 . S
H145 C142 0.929 . S
S146 N147 1.613 . S
S146 N148 1.610 . S
N147 S146 1.613 . S
N147 C150 1.350 . S
N148 S146 1.610 . S
N148 C149 1.351 . S
C149 C143 1.428 . S
C149 N148 1.351 . S
C149 C150 1.434 . S
C150 C141 1.429 . S
C150 N147 1.350 . S
C150 C149 1.434 . S
C151 C152 1.369 . S
C151 C153 1.419 . S
C151 H155 0.930 . S
C152 C151 1.369 . S
C152 C161 1.429 . S
C153 C151 1.419 . S
C153 C154 1.363 . S
C153 H156 0.929 . S
C154 C153 1.363 . S
C154 C160 1.428 . S
H155 C151 0.930 . S
H156 C153 0.929 . S
S157 N158 1.613 . S
S157 N159 1.610 . S
N158 S157 1.613 . S
N158 C161 1.350 . S
N159 S157 1.610 . S
N159 C160 1.351 . S
C160 C154 1.428 . S
C160 N159 1.351 . S
C160 C161 1.434 . S
C161 C152 1.429 . S
C161 N158 1.350 . S
C161 C160 1.434 . S
C77 C51 1.246 . S
C75 N12 1.439 . S
C88 C71 1.497 . S
C86 N25 1.485 . S
C99 C50 1.447 . S
C97 C16 1.485 . S
C110 C72 1.521 . S
C108 C30 1.519 . S
C121 C64 1.486 . S
C119 C7 1.522 . S
C132 C57 1.453 . S
C130 C39 1.467 . S
C143 C65 1.272 . S
C141 N2 1.479 . S
C152 N35 1.454 . S
C154 C58 1.491 . S
