# Generated by pormake.
# Topology scu, (8,4)-cn, num edge types: 1
# Building blocks:
#     Node 0, Type 0, BuildingBlock: GIZVER_clean_sbu_0, # of connection points: 8
#     Node 1, Type 1, BuildingBlock: NAWXER_clean_sbu_0, # of connection points: 4
#     Node 2, Type 1, BuildingBlock: NAWXER_clean_sbu_0, # of connection points: 4
#     Edge 3, Type (0, 1), None
#     Edge 4, Type (0, 1), None
#     Edge 5, Type (0, 1), None
#     Edge 6, Type (0, 1), None
#     Edge 7, Type (0, 1), None
#     Edge 8, Type (0, 1), None
#     Edge 9, Type (0, 1), None
#     Edge 10, Type (0, 1), None
# Relax obj value: 0.012
# Max RMSD: 0.072
# Mean RMSD: 0.051
data_MOF--net-scu--node1-GIZVER_clean_sbu_0--node2-NAWXER_clean_sbu_0--edge1-none
_symmetry_space_group_name_H-M    P1
_symmetry_Int_Tables_number       1
_symmetry_cell_setting            triclinic
loop_
_symmetry_equiv_pos_as_xyz
'x, y, z'
_cell_length_a     10.734661
_cell_length_b     11.941322
_cell_length_c     11.059084
_cell_angle_alpha  108.41539
_cell_angle_beta   73.534348
_cell_angle_gamma 112.10661
loop_
_atom_site_label
_atom_site_type_symbol
_atom_site_fract_x
_atom_site_fract_y
_atom_site_fract_z
_atom_type_partial_charge
Co0 Co 0.07239 0.84449 0.23283 0.0
Co1 Co 0.14704 0.05879 0.25307 0.0
Co2 Co 1.03924 1.00829 0.02407 0.0
O3 O 0.13285 0.93546 0.10021 0.0
H4 H 0.22267 0.93466 0.05075 0.0
O5 O 0.9627 0.09596 0.95155 0.0
Co6 Co 0.0743 0.16344 0.80398 0.0
Co7 Co 0.84609 1.00177 0.84533 0.0
H8 H 0.9224 0.15432 1.01775 0.0
O9 O 0.31949 0.15849 0.26985 0.0
O10 O 0.17394 0.99498 0.35896 0.0
O11 O 0.99916 0.12298 0.33849 0.0
O12 O 0.07993 0.1777 0.15558 0.0
O13 O 0.21661 0.05746 0.905 0.0
O14 O 0.17699 0.23833 0.67402 0.0
O15 O 1.03834 0.31022 0.8518 0.0
O16 O 0.12971 0.01891 0.73362 0.0
O17 O 0.99103 0.8403 0.89294 0.0
O18 O 0.83378 0.82614 0.78656 0.0
O19 O 0.91514 0.08528 0.71153 0.0
O20 O 0.7138 0.06481 0.85353 0.0
C21 C 0.13743 0.74213 0.3048 0.0
C22 C 0.81888 0.89908 0.23176 0.0
C23 C 1.00851 0.19313 0.27085 0.0
C24 C 0.29454 0.08075 0.34015 0.0
C25 C 0.12359 0.32534 0.74256 0.0
C26 C 0.21327 1.00581 0.78571 0.0
C27 C 0.90957 0.77905 0.81151 0.0
C28 C 0.79545 0.10349 0.75268 0.0
O29 O 1.02104 0.7624 0.34801 0.0
O30 O 0.22125 0.78712 0.20675 0.0
O31 O 0.85714 0.94856 0.13508 0.0
O32 O 0.90209 0.87811 0.27811 0.0
C33 C 0.93099 0.66402 0.7206 0.0
C34 C 0.99742 0.31366 0.3487 0.0
O35 O 0.05485 0.66349 0.67537 0.0
Zn36 Zn 0.17113 0.55727 0.52561 0.0
O37 O 0.83353 0.57532 0.67211 0.0
Zn38 Zn 0.94365 0.4758 0.54339 0.0
O39 O 1.01676 0.41197 0.65569 0.0
O40 O 0.2419 0.48806 0.6254 0.0
O41 O 0.88117 0.32396 0.4123 0.0
O42 O 0.10633 0.39231 0.38609 0.0
O43 O 0.26737 0.67342 0.40173 0.0
O44 O 0.04338 0.59391 0.42205 0.0
C45 C 0.12949 0.41949 0.67911 0.0
C46 C 0.15636 0.66179 0.37056 0.0
C47 C 0.72564 0.10793 0.65975 0.0
C48 C 0.40496 0.0872 0.39836 0.0
O49 O 0.6405 1.00491 0.61699 0.0
Zn50 Zn 0.49557 0.91869 0.50332 0.0
O51 O 0.73264 0.20736 0.63348 0.0
Zn52 Zn 0.59007 0.12711 0.52142 0.0
O53 O 0.4226 0.07591 0.66148 0.0
O54 O 0.33652 0.87163 0.63822 0.0
O55 O 0.49947 0.18831 0.43315 0.0
O56 O 0.40185 0.98606 0.41598 0.0
O57 O 0.59885 0.82112 0.3618 0.0
O58 O 0.69096 0.02252 0.36987 0.0
C59 C 0.33385 0.9817 0.69874 0.0
C60 C 0.69194 0.91139 0.31873 0.0
loop_
_geom_bond_atom_site_label_1
_geom_bond_atom_site_label_2
_geom_bond_distance
_geom_bond_site_symmetry_2
_ccdc_geom_bond_type
Co0 O3 2.042 1_655 S
Co0 O10 2.264 1_665 S
Co0 O29 2.286 . S
Co0 O30 2.069 1_655 S
Co0 O32 2.015 . S
Co1 O3 2.122 1_545 S
Co1 O9 2.073 . S
Co1 O10 2.327 . S
Co1 O11 1.976 . S
Co2 O3 2.087 1_545 S
Co2 O5 2.087 1_454 S
Co2 O12 2.111 . S
Co2 O13 2.143 1_554 S
Co2 O17 2.111 1_444 S
Co2 O31 2.143 1_445 S
O3 Co0 2.042 1_455 S
O3 Co1 2.122 1_565 S
O3 Co2 2.087 1_565 S
O3 H4 0.980 . S
H4 O3 0.980 . S
O5 Co2 2.087 1_656 S
O5 Co6 2.042 1_655 S
O5 Co7 2.122 1_545 S
O5 H8 0.980 . S
Co6 O5 2.042 1_455 S
Co6 O14 2.286 . S
Co6 O15 2.069 1_455 S
Co6 O16 2.015 . S
Co6 O19 2.264 1_445 S
Co7 O5 2.122 1_565 S
Co7 O18 1.976 . S
Co7 O19 2.327 . S
Co7 O20 2.073 . S
H8 O5 0.980 . S
O9 Co1 2.073 . S
O9 C24 1.245 . S
O10 Co0 2.264 1_445 S
O10 Co1 2.327 . S
O10 C24 1.257 . S
O11 Co1 1.976 . S
O11 C23 1.251 . S
O12 Co2 2.111 . S
O12 C23 1.274 . S
O13 Co2 2.143 1_556 S
O13 C26 1.246 . S
O14 Co6 2.286 . S
O14 C25 1.259 . S
O15 Co6 2.069 1_655 S
O15 C25 1.289 1_655 S
O16 Co6 2.015 . S
O16 C26 1.257 . S
O17 Co2 2.111 1_666 S
O17 C27 1.274 . S
O18 Co7 1.976 . S
O18 C27 1.251 . S
O19 Co6 2.264 1_665 S
O19 Co7 2.327 . S
O19 C28 1.257 . S
O20 Co7 2.073 . S
O20 C28 1.245 . S
C21 O29 1.259 1_455 S
C21 O30 1.289 . S
C22 O31 1.246 . S
C22 O32 1.257 . S
C23 O11 1.251 . S
C23 O12 1.274 . S
C24 O9 1.245 . S
C24 O10 1.257 . S
C25 O14 1.259 . S
C25 O15 1.289 1_455 S
C26 O13 1.246 . S
C26 O16 1.257 . S
C27 O17 1.274 . S
C27 O18 1.251 . S
C28 O19 1.257 . S
C28 O20 1.245 . S
O29 Co0 2.286 . S
O29 C21 1.259 1_655 S
O30 Co0 2.069 1_455 S
O30 C21 1.289 . S
O31 Co2 2.143 1_665 S
O31 C22 1.246 . S
O32 Co0 2.015 . S
O32 C22 1.257 . S
C33 O35 1.247 . S
C33 O37 1.258 1_455 S
C34 O41 1.247 1_455 S
C34 O42 1.258 . S
O35 C33 1.247 . S
O35 Zn36 2.028 . S
Zn36 O35 2.028 . S
Zn36 O40 2.035 . S
Zn36 O42 2.035 . S
Zn36 O43 2.028 . S
O37 C33 1.258 1_655 S
O37 Zn38 2.035 . S
Zn38 O37 2.035 . S
Zn38 O39 2.028 . S
Zn38 O41 2.028 . S
Zn38 O44 2.035 . S
O39 Zn38 2.028 . S
O39 C45 1.247 1_655 S
O40 Zn36 2.035 . S
O40 C45 1.258 . S
O41 C34 1.247 1_655 S
O41 Zn38 2.028 . S
O42 C34 1.258 . S
O42 Zn36 2.035 . S
O43 Zn36 2.028 . S
O43 C46 1.247 . S
O44 Zn38 2.035 . S
O44 C46 1.258 1_655 S
C45 O39 1.247 1_455 S
C45 O40 1.258 . S
C46 O43 1.247 . S
C46 O44 1.258 1_455 S
C47 O49 1.247 1_545 S
C47 O51 1.258 . S
C48 O55 1.247 . S
C48 O56 1.258 1_545 S
O49 C47 1.247 1_565 S
O49 Zn50 2.028 . S
Zn50 O49 2.028 . S
Zn50 O54 2.035 . S
Zn50 O56 2.035 . S
Zn50 O57 2.028 . S
O51 C47 1.258 . S
O51 Zn52 2.035 . S
Zn52 O51 2.035 . S
Zn52 O53 2.028 . S
Zn52 O55 2.028 . S
Zn52 O58 2.035 . S
O53 Zn52 2.028 . S
O53 C59 1.247 . S
O54 Zn50 2.035 . S
O54 C59 1.258 1_565 S
O55 C48 1.247 . S
O55 Zn52 2.028 . S
O56 C48 1.258 1_565 S
O56 Zn50 2.035 . S
O57 Zn50 2.028 . S
O57 C60 1.247 1_565 S
O58 Zn52 2.035 . S
O58 C60 1.258 . S
C59 O53 1.247 . S
C59 O54 1.258 1_545 S
C60 O57 1.247 1_545 S
C60 O58 1.258 . S
C23 C34 1.341 . S
C22 C60 1.525 1_565 S
C21 C46 1.630 . S
C24 C48 1.477 . S
C27 C33 1.341 1_655 S
C26 C59 1.525 . S
C45 C25 1.630 . S
C28 C47 1.477 1_565 S
