# Generated by pormake.
# Topology bcu-b, (8,8)-cn, num edge types: 1
# Building blocks:
#     Node 0, Type 0, BuildingBlock: TAGTUT_clean_sbu_1, # of connection points: 8
#     Node 1, Type 1, BuildingBlock: TAGTUT_clean_sbu_3, # of connection points: 8
#     Edge 2, Type (0, 1), BuildingBlock: OJICUG_clean_linker_0, # of connection points: 2
#     Edge 3, Type (0, 1), BuildingBlock: OJICUG_clean_linker_0, # of connection points: 2
#     Edge 4, Type (0, 1), BuildingBlock: OJICUG_clean_linker_0, # of connection points: 2
#     Edge 5, Type (0, 1), BuildingBlock: OJICUG_clean_linker_0, # of connection points: 2
#     Edge 6, Type (0, 1), BuildingBlock: OJICUG_clean_linker_0, # of connection points: 2
#     Edge 7, Type (0, 1), BuildingBlock: OJICUG_clean_linker_0, # of connection points: 2
#     Edge 8, Type (0, 1), BuildingBlock: OJICUG_clean_linker_0, # of connection points: 2
#     Edge 9, Type (0, 1), BuildingBlock: OJICUG_clean_linker_0, # of connection points: 2
# Relax obj value: 0.012
# Max RMSD: 0.078
# Mean RMSD: 0.066
data_MOF--net-bcu-b--node1-TAGTUT_clean_sbu_1--node2-TAGTUT_clean_sbu_3--edge1-OJICUG_clean_linker_0
_symmetry_space_group_name_H-M    P1
_symmetry_Int_Tables_number       1
_symmetry_cell_setting            triclinic
loop_
_symmetry_equiv_pos_as_xyz
'x, y, z'
_cell_length_a     15.397281
_cell_length_b     14.545683
_cell_length_c     16.063281
_cell_angle_alpha  90.413571
_cell_angle_beta   90.352378
_cell_angle_gamma 110.17711
loop_
_atom_site_label
_atom_site_type_symbol
_atom_site_fract_x
_atom_site_fract_y
_atom_site_fract_z
_atom_type_partial_charge
C0 C 0.83087 0.24133 0.0437 0.0
C1 C 0.93949 0.2062 0.80528 0.0
C2 C 0.83352 0.82184 0.90018 0.0
Mg3 Mg 0.01961 0.23065 0.98379 0.0
O4 O 0.95435 0.09766 0.00385 0.0
Mg5 Mg 0.83071 0.03446 0.94929 0.0
Mg6 Mg 0.00791 -0.00638 0.98048 0.0
O7 O 0.05891 0.8876 0.95844 0.0
Mg8 Mg 0.98864 0.76315 0.0001 0.0
Mg9 Mg 0.18598 0.95114 0.00559 0.0
C10 C 0.17847 0.16665 0.07286 0.0
C11 C 0.16863 0.07135 0.84137 0.0
O12 O 0.78939 0.15743 0.00948 0.0
O13 O 0.91935 0.28213 0.04397 0.0
O14 O 0.87552 0.1291 0.83068 0.0
O15 O 0.00724 0.25509 0.85229 0.0
O16 O 0.148 0.23461 0.04914 0.0
O17 O 0.13514 0.07582 0.05611 0.0
C18 C 0.8407 0.90732 0.11287 0.0
O19 O 0.92344 0.91329 0.09426 0.0
O20 O 0.79427 0.9465 0.06793 0.0
O21 O 0.21182 0.81286 0.94865 0.0
O22 O 0.07314 0.69111 0.94159 0.0
O23 O 0.15326 0.87627 0.12921 0.0
C24 C 0.16042 0.72468 0.92798 0.0
O25 O 0.01358 0.76181 0.13462 0.0
O26 O 0.858 0.75552 0.93644 0.0
C27 C 0.09017 0.81281 0.1696 0.0
O28 O 0.88362 0.91277 0.90314 0.0
O29 O 0.09016 0.07264 0.86639 0.0
O30 O 0.21515 0.02877 0.88215 0.0
C31 C 0.64607 0.65658 0.61051 0.0
C32 C 0.77813 0.36337 0.5493 0.0
C33 C 0.65861 0.37321 0.30802 0.0
Mg34 Mg 0.46286 0.68524 0.52431 0.0
Mg35 Mg 0.2891 0.48105 0.48651 0.0
O36 O 0.41127 0.56035 0.45905 0.0
Mg37 Mg 0.50575 0.49951 0.48593 0.0
O38 O 0.60327 0.44353 0.51453 0.0
Mg39 Mg 0.71414 0.54281 0.46266 0.0
Mg40 Mg 0.57729 0.3137 0.478 0.0
C41 C 0.35417 0.33989 0.36867 0.0
O42 O 0.40907 0.38392 0.57302 0.0
O43 O 0.34377 0.72548 0.45546 0.0
O44 O 0.44537 0.25027 0.54159 0.0
O45 O 0.36977 0.6342 0.63388 0.0
O46 O 0.22951 0.58 0.4342 0.0
O47 O 0.26317 0.48651 0.61979 0.0
O48 O 0.6106 0.60825 0.40118 0.0
O49 O 0.56557 0.73711 0.4177 0.0
C50 C 0.61922 0.69699 0.38443 0.0
C51 C 0.26205 0.67348 0.42816 0.0
O52 O 0.43988 0.38995 0.38185 0.0
O53 O 0.79825 0.45492 0.53131 0.0
O54 O 0.288 0.3539 0.40978 0.0
O55 O 0.70838 0.45199 0.34468 0.0
O56 O 0.69893 0.29893 0.5324 0.0
O57 O 0.59149 0.30993 0.345 0.0
O58 O 0.56266 0.61496 0.5858 0.0
O59 O 0.71303 0.63589 0.57809 0.0
C60 C 0.30454 0.5629 0.66373 0.0
C61 C 0.39527 0.29182 0.57963 0.0
C62 C 0.32177 0.27831 0.14159 0.0
C63 C 0.24489 0.19153 0.14277 0.0
H64 H 0.42005 0.39128 0.21418 0.0
C65 C 0.21701 0.14332 0.21884 0.0
H66 H 0.34363 0.31721 0.08384 0.0
C67 C 0.25763 0.18785 0.29364 0.0
C68 C 0.3293 0.27885 0.29283 0.0
H69 H 0.157 0.07686 0.22143 0.0
H70 H 0.22906 0.15456 0.35208 0.0
C71 C 0.36504 0.32064 0.21617 0.0
C72 C 0.68724 0.2263 0.12266 0.0
C73 C 0.77571 0.28477 0.09548 0.0
H74 H 0.57979 0.20872 0.21148 0.0
C75 C 0.81585 0.37995 0.12806 0.0
H76 H 0.65384 0.15282 0.09821 0.0
C77 C 0.77287 0.41226 0.19244 0.0
C78 C 0.68953 0.34942 0.22626 0.0
H79 H 0.88312 0.42742 0.1074 0.0
H80 H 0.80861 0.48395 0.21952 0.0
C81 C 0.64467 0.25821 0.18778 0.0
C82 C 0.74241 0.89898 0.23563 0.0
C83 C 0.79621 0.85721 0.18905 0.0
H84 H 0.64674 0.88264 0.3341 0.0
C85 C 0.79835 0.76477 0.21143 0.0
H86 H 0.73998 0.97043 0.21997 0.0
C87 C 0.7433 0.7129 0.27696 0.0
C88 C 0.6862 0.75339 0.32127 0.0
H89 H 0.8384 0.73051 0.17565 0.0
H90 H 0.74318 0.64019 0.29096 0.0
C91 C 0.68879 0.84827 0.30115 0.0
C92 C 0.19861 0.85116 0.29141 0.0
C93 C 0.1165 0.78844 0.25322 0.0
H94 H 0.30978 0.86426 0.37676 0.0
C95 C 0.0732 0.69516 0.28646 0.0
H96 H 0.23285 0.92456 0.26838 0.0
C97 C 0.11728 0.66096 0.34919 0.0
C98 C 0.20563 0.71925 0.37953 0.0
H99 H 0.00964 0.64546 0.2592 0.0
H100 H 0.08493 0.58603 0.36932 0.0
C101 C 0.24304 0.81674 0.35365 0.0
C102 C 0.14139 0.58389 0.82952 0.0
C103 C 0.20007 0.66422 0.87614 0.0
H104 H 0.12947 0.48734 0.72479 0.0
C105 C 0.29581 0.69384 0.8635 0.0
H106 H 0.06719 0.5586 0.83804 0.0
C107 C 0.33097 0.65149 0.79975 0.0
C108 C 0.27111 0.57946 0.74665 0.0
H109 H 0.34314 0.75408 0.89913 0.0
H110 H 0.4046 0.68091 0.78772 0.0
C111 C 0.17673 0.54207 0.76508 0.0
C112 C 0.22299 0.22271 0.75658 0.0
C113 C 0.21044 0.12329 0.76563 0.0
H114 H 0.29551 0.35506 0.69345 0.0
C115 C 0.25095 0.07743 0.70832 0.0
H116 H 0.19389 0.25986 0.8013 0.0
C117 C 0.30633 0.13106 0.64458 0.0
C118 C 0.32437 0.23236 0.63833 0.0
H119 H 0.24234 0.00065 0.71465 0.0
H120 H 0.33843 0.09382 0.60273 0.0
C121 C 0.28074 0.2771 0.69426 0.0
C122 C 0.94122 0.35164 0.72237 0.0
C123 C 0.92257 0.24999 0.72655 0.0
H124 H 0.91146 0.46861 0.66164 0.0
C125 C 0.87016 0.18971 0.66254 0.0
H126 H 0.97853 0.39923 0.77247 0.0
C127 C 0.83083 0.22905 0.59968 0.0
C128 C 0.84226 0.32948 0.59977 0.0
H129 H 0.85428 0.11113 0.66424 0.0
H130 H 0.78591 0.1794 0.55425 0.0
C131 C 0.90195 0.3913 0.65922 0.0
C132 C 0.76436 0.84916 0.76661 0.0
C133 C 0.75893 0.79032 0.83706 0.0
H134 H 0.7321 0.8509 0.63673 0.0
C135 C 0.69582 0.69389 0.83653 0.0
H136 H 0.81208 0.92397 0.76504 0.0
C137 C 0.64805 0.65338 0.76341 0.0
C138 C 0.66416 0.70852 0.69023 0.0
H139 H 0.68972 0.64726 0.89007 0.0
H140 H 0.60654 0.57616 0.7618 0.0
C141 C 0.71859 0.80777 0.69301 0.0
loop_
_geom_bond_atom_site_label_1
_geom_bond_atom_site_label_2
_geom_bond_distance
_geom_bond_site_symmetry_2
_ccdc_geom_bond_type
C0 O12 1.241 . S
C0 O13 1.280 . S
C1 O14 1.277 . S
C1 O15 1.245 . S
C2 O26 1.247 . S
C2 O28 1.289 . S
Mg3 O4 1.926 . S
Mg3 O13 1.984 . S
Mg3 O15 1.988 1_554 S
Mg3 O16 2.061 1_655 S
O4 Mg3 1.926 . S
O4 Mg5 1.986 1_545 S
O4 Mg6 1.924 1_655 S
Mg5 O4 1.986 1_565 S
Mg5 O12 2.042 1_565 S
Mg5 O14 2.041 1_564 S
Mg5 O20 2.038 . S
Mg5 O28 2.238 1_554 S
Mg6 O4 1.924 1_455 S
Mg6 O7 1.910 1_544 S
Mg6 O17 2.108 . S
Mg6 O19 2.075 1_445 S
Mg6 O28 2.105 1_444 S
Mg6 O29 2.083 1_554 S
O7 Mg6 1.910 1_566 S
O7 Mg8 1.926 . S
O7 Mg9 1.985 1_566 S
Mg8 O7 1.926 . S
Mg8 O22 1.984 . S
Mg8 O25 1.988 1_556 S
Mg8 O26 2.061 1_455 S
Mg9 O7 1.985 1_544 S
Mg9 O17 2.241 . S
Mg9 O21 2.039 1_544 S
Mg9 O23 2.045 1_545 S
Mg9 O30 2.035 1_554 S
C10 O16 1.247 . S
C10 O17 1.289 . S
C11 O29 1.245 . S
C11 O30 1.274 . S
O12 C0 1.241 . S
O12 Mg5 2.042 1_545 S
O13 C0 1.280 . S
O13 Mg3 1.984 . S
O14 C1 1.277 . S
O14 Mg5 2.041 1_546 S
O15 C1 1.245 . S
O15 Mg3 1.988 1_556 S
O16 Mg3 2.061 1_455 S
O16 C10 1.247 . S
O17 Mg6 2.108 . S
O17 Mg9 2.241 . S
O17 C10 1.289 . S
C18 O19 1.245 . S
C18 O20 1.274 . S
O19 Mg6 2.075 1_665 S
O19 C18 1.245 . S
O20 Mg5 2.038 . S
O20 C18 1.274 . S
O21 Mg9 2.039 1_566 S
O21 C24 1.241 . S
O22 Mg8 1.984 . S
O22 C24 1.280 . S
O23 Mg9 2.045 1_565 S
O23 C27 1.277 . S
C24 O21 1.241 . S
C24 O22 1.280 . S
O25 Mg8 1.988 1_554 S
O25 C27 1.245 . S
O26 C2 1.247 . S
O26 Mg8 2.061 1_655 S
C27 O23 1.277 . S
C27 O25 1.245 . S
O28 C2 1.289 . S
O28 Mg5 2.238 1_556 S
O28 Mg6 2.105 1_666 S
O29 Mg6 2.083 1_556 S
O29 C11 1.245 . S
O30 Mg9 2.035 1_556 S
O30 C11 1.274 . S
C31 O58 1.312 . S
C31 O59 1.208 . S
C32 O53 1.331 . S
C32 O56 1.244 . S
C33 O55 1.264 . S
C33 O57 1.273 . S
Mg34 O36 1.936 . S
Mg34 O43 2.081 . S
Mg34 O45 2.023 . S
Mg34 O49 2.031 . S
Mg34 O58 2.291 . S
Mg35 O36 1.963 . S
Mg35 O46 1.942 . S
Mg35 O47 1.955 . S
Mg35 O54 1.986 . S
O36 Mg34 1.936 . S
O36 Mg35 1.963 . S
O36 Mg37 1.915 . S
Mg37 O36 1.915 . S
Mg37 O38 1.915 . S
Mg37 O42 2.013 . S
Mg37 O48 2.114 . S
Mg37 O52 2.013 . S
Mg37 O58 2.114 . S
O38 Mg37 1.915 . S
O38 Mg39 1.936 . S
O38 Mg40 1.963 . S
Mg39 O38 1.936 . S
Mg39 O48 2.291 . S
Mg39 O53 2.081 . S
Mg39 O55 2.023 . S
Mg39 O59 2.031 . S
Mg40 O38 1.963 . S
Mg40 O44 1.986 . S
Mg40 O56 1.942 . S
Mg40 O57 1.955 . S
C41 O52 1.191 . S
C41 O54 1.307 . S
O42 Mg37 2.013 . S
O42 C61 1.191 . S
O43 Mg34 2.081 . S
O43 C51 1.331 . S
O44 Mg40 1.986 . S
O44 C61 1.307 . S
O45 Mg34 2.023 . S
O45 C60 1.264 . S
O46 Mg35 1.942 . S
O46 C51 1.244 . S
O47 Mg35 1.955 . S
O47 C60 1.273 . S
O48 Mg37 2.114 . S
O48 Mg39 2.291 . S
O48 C50 1.312 . S
O49 Mg34 2.031 . S
O49 C50 1.208 . S
C50 O48 1.312 . S
C50 O49 1.208 . S
C51 O43 1.331 . S
C51 O46 1.244 . S
O52 Mg37 2.013 . S
O52 C41 1.191 . S
O53 C32 1.331 . S
O53 Mg39 2.081 . S
O54 Mg35 1.986 . S
O54 C41 1.307 . S
O55 C33 1.264 . S
O55 Mg39 2.023 . S
O56 C32 1.244 . S
O56 Mg40 1.942 . S
O57 C33 1.273 . S
O57 Mg40 1.955 . S
O58 C31 1.312 . S
O58 Mg34 2.291 . S
O58 Mg37 2.114 . S
O59 C31 1.208 . S
O59 Mg39 2.031 . S
C60 O45 1.264 . S
C60 O47 1.273 . S
C61 O42 1.191 . S
C61 O44 1.307 . S
C62 C63 1.387 . S
C62 H66 0.950 . S
C62 C71 1.390 . S
C63 C62 1.387 . S
C63 C65 1.387 . S
H64 C71 0.950 . S
C65 C63 1.387 . S
C65 C67 1.390 . S
C65 H69 0.950 . S
H66 C62 0.950 . S
C67 C65 1.390 . S
C67 C68 1.387 . S
C67 H70 0.950 . S
C68 C67 1.387 . S
C68 C71 1.387 . S
H69 C65 0.950 . S
H70 C67 0.950 . S
C71 C62 1.390 . S
C71 H64 0.950 . S
C71 C68 1.387 . S
C72 C73 1.387 . S
C72 H76 0.950 . S
C72 C81 1.390 . S
C73 C72 1.387 . S
C73 C75 1.387 . S
H74 C81 0.950 . S
C75 C73 1.387 . S
C75 C77 1.390 . S
C75 H79 0.950 . S
H76 C72 0.950 . S
C77 C75 1.390 . S
C77 C78 1.387 . S
C77 H80 0.950 . S
C78 C77 1.387 . S
C78 C81 1.387 . S
H79 C75 0.950 . S
H80 C77 0.950 . S
C81 C72 1.390 . S
C81 H74 0.950 . S
C81 C78 1.387 . S
C82 C83 1.387 . S
C82 H86 0.950 . S
C82 C91 1.390 . S
C83 C82 1.387 . S
C83 C85 1.387 . S
H84 C91 0.950 . S
C85 C83 1.387 . S
C85 C87 1.390 . S
C85 H89 0.950 . S
H86 C82 0.950 . S
C87 C85 1.390 . S
C87 C88 1.387 . S
C87 H90 0.950 . S
C88 C87 1.387 . S
C88 C91 1.387 . S
H89 C85 0.950 . S
H90 C87 0.950 . S
C91 C82 1.390 . S
C91 H84 0.950 . S
C91 C88 1.387 . S
C92 C93 1.387 . S
C92 H96 0.950 . S
C92 C101 1.390 . S
C93 C92 1.387 . S
C93 C95 1.387 . S
H94 C101 0.950 . S
C95 C93 1.387 . S
C95 C97 1.390 . S
C95 H99 0.950 . S
H96 C92 0.950 . S
C97 C95 1.390 . S
C97 C98 1.387 . S
C97 H100 0.950 . S
C98 C97 1.387 . S
C98 C101 1.387 . S
H99 C95 0.950 . S
H100 C97 0.950 . S
C101 C92 1.390 . S
C101 H94 0.950 . S
C101 C98 1.387 . S
C102 C103 1.387 . S
C102 H106 0.950 . S
C102 C111 1.390 . S
C103 C102 1.387 . S
C103 C105 1.387 . S
H104 C111 0.950 . S
C105 C103 1.387 . S
C105 C107 1.390 . S
C105 H109 0.950 . S
H106 C102 0.950 . S
C107 C105 1.390 . S
C107 C108 1.387 . S
C107 H110 0.950 . S
C108 C107 1.387 . S
C108 C111 1.387 . S
H109 C105 0.950 . S
H110 C107 0.950 . S
C111 C102 1.390 . S
C111 H104 0.950 . S
C111 C108 1.387 . S
C112 C113 1.387 . S
C112 H116 0.950 . S
C112 C121 1.390 . S
C113 C112 1.387 . S
C113 C115 1.387 . S
H114 C121 0.950 . S
C115 C113 1.387 . S
C115 C117 1.390 . S
C115 H119 0.950 . S
H116 C112 0.950 . S
C117 C115 1.390 . S
C117 C118 1.387 . S
C117 H120 0.950 . S
C118 C117 1.387 . S
C118 C121 1.387 . S
H119 C115 0.950 . S
H120 C117 0.950 . S
C121 C112 1.390 . S
C121 H114 0.950 . S
C121 C118 1.387 . S
C122 C123 1.387 . S
C122 H126 0.950 . S
C122 C131 1.390 . S
C123 C122 1.387 . S
C123 C125 1.387 . S
H124 C131 0.950 . S
C125 C123 1.387 . S
C125 C127 1.390 . S
C125 H129 0.950 . S
H126 C122 0.950 . S
C127 C125 1.390 . S
C127 C128 1.387 . S
C127 H130 0.950 . S
C128 C127 1.387 . S
C128 C131 1.387 . S
H129 C125 0.950 . S
H130 C127 0.950 . S
C131 C122 1.390 . S
C131 H124 0.950 . S
C131 C128 1.387 . S
C132 C133 1.387 . S
C132 H136 0.950 . S
C132 C141 1.390 . S
C133 C132 1.387 . S
C133 C135 1.387 . S
H134 C141 0.950 . S
C135 C133 1.387 . S
C135 C137 1.390 . S
C135 H139 0.950 . S
H136 C132 0.950 . S
C137 C135 1.390 . S
C137 C138 1.387 . S
C137 H140 0.950 . S
C138 C137 1.387 . S
C138 C141 1.387 . S
H139 C135 0.950 . S
H140 C137 0.950 . S
C141 C132 1.390 . S
C141 H134 0.950 . S
C141 C138 1.387 . S
C63 C10 1.199 . S
C68 C41 1.208 . S
C73 C0 1.538 . S
C78 C33 1.557 . S
C83 C18 1.495 . S
C88 C50 1.487 . S
C93 C27 1.567 . S
C98 C51 1.568 . S
C103 C24 1.544 . S
C108 C60 1.568 . S
C118 C61 1.468 . S
C113 C11 1.444 . S
C123 C1 1.545 . S
C128 C32 1.551 . S
C138 C31 1.236 . S
C133 C2 1.248 . S
