# Generated by pormake.
# Topology bcu-b, (8,8)-cn, num edge types: 1
# Building blocks:
#     Node 0, Type 0, BuildingBlock: VETTIZ_charged_sbu_0, # of connection points: 8
#     Node 1, Type 1, BuildingBlock: TAGTUT_clean_sbu_3, # of connection points: 8
#     Edge 2, Type (0, 1), BuildingBlock: EZIPEK_clean_linker_0, # of connection points: 2
#     Edge 3, Type (0, 1), BuildingBlock: EZIPEK_clean_linker_0, # of connection points: 2
#     Edge 4, Type (0, 1), BuildingBlock: EZIPEK_clean_linker_0, # of connection points: 2
#     Edge 5, Type (0, 1), BuildingBlock: EZIPEK_clean_linker_0, # of connection points: 2
#     Edge 6, Type (0, 1), BuildingBlock: EZIPEK_clean_linker_0, # of connection points: 2
#     Edge 7, Type (0, 1), BuildingBlock: EZIPEK_clean_linker_0, # of connection points: 2
#     Edge 8, Type (0, 1), BuildingBlock: EZIPEK_clean_linker_0, # of connection points: 2
#     Edge 9, Type (0, 1), BuildingBlock: EZIPEK_clean_linker_0, # of connection points: 2
# Relax obj value: 0.019
# Max RMSD: 0.093
# Mean RMSD: 0.074
data_MOF--net-bcu-b--node1-VETTIZ_charged_sbu_0--node2-TAGTUT_clean_sbu_3--edge1-EZIPEK_clean_linker_0
_symmetry_space_group_name_H-M    P1
_symmetry_Int_Tables_number       1
_symmetry_cell_setting            triclinic
loop_
_symmetry_equiv_pos_as_xyz
'x, y, z'
_cell_length_a     15.239759
_cell_length_b     14.961361
_cell_length_c     16.168064
_cell_angle_alpha  90.606441
_cell_angle_beta   89.9652
_cell_angle_gamma 103.1778
loop_
_atom_site_label
_atom_site_type_symbol
_atom_site_fract_x
_atom_site_fract_y
_atom_site_fract_z
_atom_type_partial_charge
Fe0 Fe 0.00127 0.81564 -0.01243 0.0
O1 O 0.03512 0.94998 -0.00667 0.0
Fe2 Fe 0.0185 0.02594 0.88814 0.0
Fe3 Fe 0.98806 0.02392 0.07922 0.0
O4 O 0.03727 0.95057 -0.01477 0.0
O5 O 0.96867 0.09903 0.97317 0.0
O6 O 0.96284 0.0967 0.98189 0.0
Fe7 Fe 0.00542 0.23337 0.97964 0.0
C8 C 0.84847 0.85099 0.09764 0.0
O9 O 0.08426 0.83276 0.089 0.0
O10 O 0.0316 0.93978 0.16821 0.0
O11 O 0.11499 0.24331 0.90241 0.0
O12 O 0.14678 0.10675 0.90143 0.0
O13 O 0.07489 0.93696 0.81192 0.0
O14 O 0.09921 0.82603 0.90137 0.0
O15 O 0.1154 0.10598 0.09096 0.0
O16 O 0.08613 0.24366 0.08449 0.0
C17 C 0.11049 0.86854 0.83214 0.0
O18 O 0.93422 0.22234 0.87213 0.0
O19 O 0.98903 0.11453 0.79692 0.0
O20 O 0.90176 0.80286 0.07334 0.0
O21 O 0.86047 0.93542 0.07754 0.0
C22 C 0.07908 0.87779 0.15746 0.0
C23 C 0.13149 0.18941 0.11304 0.0
C24 C 0.88722 0.17879 0.12937 0.0
O25 O 0.92812 0.11485 0.15246 0.0
O26 O 0.90001 0.22144 0.05961 0.0
C27 C 0.16767 0.19154 0.88375 0.0
O28 O 0.89094 0.9479 0.86859 0.0
O29 O 0.90876 0.80572 0.88944 0.0
C30 C 0.94653 0.18062 0.80394 0.0
C31 C 0.8685 0.86208 0.8549 0.0
C32 C 0.65162 0.66627 0.59684 0.0
C33 C 0.75672 0.34684 0.56891 0.0
C34 C 0.64753 0.33015 0.33574 0.0
Mg35 Mg 0.47969 0.72075 0.49922 0.0
Mg36 Mg 0.30086 0.55487 0.47848 0.0
O37 O 0.4216 0.59805 0.45058 0.0
Mg38 Mg 0.50336 0.52017 0.48694 0.0
O39 O 0.59345 0.45057 0.52254 0.0
Mg40 Mg 0.70428 0.51788 0.46385 0.0
Mg41 Mg 0.56219 0.32431 0.50007 0.0
C42 C 0.34052 0.38793 0.37614 0.0
O43 O 0.40639 0.43468 0.5868 0.0
O44 O 0.37953 0.77603 0.41291 0.0
O45 O 0.44468 0.29766 0.57892 0.0
O46 O 0.37337 0.71268 0.59983 0.0
O47 O 0.2565 0.6594 0.41621 0.0
O48 O 0.27366 0.57872 0.60569 0.0
O49 O 0.60835 0.59112 0.39 0.0
O50 O 0.58282 0.73213 0.3966 0.0
C51 C 0.62445 0.67475 0.36583 0.0
C52 C 0.29717 0.7393 0.39263 0.0
O53 O 0.42554 0.40982 0.39341 0.0
O54 O 0.78068 0.43102 0.54543 0.0
O55 O 0.2831 0.42756 0.41029 0.0
O56 O 0.69596 0.405 0.36492 0.0
O57 O 0.67897 0.29569 0.55368 0.0
O58 O 0.57399 0.29221 0.37109 0.0
O59 O 0.56794 0.63977 0.5771 0.0
O60 O 0.71129 0.62857 0.56482 0.0
C61 C 0.30494 0.66015 0.63264 0.0
C62 C 0.39745 0.35054 0.61031 0.0
C63 C 0.1683 0.20602 0.2649 0.0
C64 C 0.19657 0.22168 0.18158 0.0
C65 C 0.33495 0.32885 0.22789 0.0
C66 C 0.3038 0.31789 0.31124 0.0
N67 N 0.20278 0.23049 0.41078 0.0
N68 N 0.31751 0.27221 0.08584 0.0
C69 C 0.2243 0.25101 0.33002 0.0
C70 C 0.28362 0.27481 0.16383 0.0
N71 N 0.08682 0.14922 0.28171 0.0
N72 N 0.40959 0.39513 0.20867 0.0
H73 H 0.2815 0.23153 0.03876 0.0
H74 H 0.3838 0.30238 0.07001 0.0
H75 H 0.45091 0.43477 0.25277 0.0
H76 H 0.42816 0.41459 0.14835 0.0
H77 H 0.0546 0.14614 0.33873 0.0
H78 H 0.05139 0.10415 0.23774 0.0
H79 H 0.15183 0.17568 0.4296 0.0
H80 H 0.24062 0.26498 0.45979 0.0
C81 C 0.83134 0.3073 0.19339 0.0
C82 C 0.82305 0.21123 0.18559 0.0
C83 C 0.68165 0.18626 0.26503 0.0
C84 C 0.68883 0.28338 0.26828 0.0
N85 N 0.74993 0.4277 0.20192 0.0
N86 N 0.72558 0.05987 0.19369 0.0
C87 C 0.75683 0.3408 0.22089 0.0
C88 C 0.74417 0.15056 0.21588 0.0
N89 N 0.91142 0.36705 0.17686 0.0
N90 N 0.61678 0.12727 0.30845 0.0
H91 H 0.76741 0.03203 0.15527 0.0
H92 H 0.66456 0.01436 0.20653 0.0
H93 H 0.56023 0.14461 0.33374 0.0
H94 H 0.6194 0.0593 0.31903 0.0
H95 H 0.9221 0.43752 0.18793 0.0
H96 H 0.96966 0.34506 0.16146 0.0
H97 H 0.79516 0.47027 0.16284 0.0
H98 H 0.69304 0.4522 0.21744 0.0
C99 C 0.72276 0.72243 0.14967 0.0
C100 C 0.78449 0.80864 0.16435 0.0
C101 C 0.76089 0.78324 0.31357 0.0
C102 C 0.68788 0.7083 0.2974 0.0
N103 N 0.5898 0.61425 0.19773 0.0
N104 N 0.85487 0.92435 0.26506 0.0
C105 C 0.666 0.6799 0.21477 0.0
C106 C 0.80067 0.84044 0.2477 0.0
N107 N 0.72056 0.67839 0.07507 0.0
N108 N 0.79501 0.79707 0.39189 0.0
H109 H 0.88751 0.96799 0.21993 0.0
H110 H 0.86069 0.95407 0.32398 0.0
H111 H 0.77069 0.75159 0.43948 0.0
H112 H 0.85366 0.84562 0.40691 0.0
H113 H 0.6831 0.61169 0.06469 0.0
H114 H 0.7632 0.70377 0.02641 0.0
H115 H 0.56566 0.5983 0.13778 0.0
H116 H 0.54706 0.58108 0.24378 0.0
C117 C 0.11916 0.75354 0.23738 0.0
C118 C 0.12734 0.84879 0.22819 0.0
C119 C 0.24455 0.87682 0.33558 0.0
C120 C 0.24662 0.78242 0.33233 0.0
N121 N 0.20554 0.63965 0.25384 0.0
N122 N 0.21435 1.00252 0.25641 0.0
C123 C 0.1897 0.72317 0.27536 0.0
C124 C 0.19429 0.91143 0.2743 0.0
N125 N 0.04462 0.69188 0.20902 0.0
N126 N 0.28769 0.93287 0.39727 0.0
H127 H 0.18298 0.02895 0.20848 0.0
H128 H 0.26831 0.04928 0.28338 0.0
H129 H 0.3227 0.90968 0.44476 0.0
H130 H 0.28099 1.00025 0.40528 0.0
H131 H 0.03426 0.62154 0.21945 0.0
H132 H 0.98928 0.71233 0.18394 0.0
H133 H 0.16821 0.59761 0.20831 0.0
H134 H 0.26279 0.61829 0.27307 0.0
C135 C 0.25114 0.81953 0.79709 0.0
C136 C 0.16363 0.82745 0.77248 0.0
C137 C 0.16622 0.72034 0.65754 0.0
C138 C 0.24998 0.70571 0.68694 0.0
N139 N 0.36606 0.73072 0.7908 0.0
N140 N 0.0303 0.77069 0.68982 0.0
C141 C 0.29078 0.7526 0.75848 0.0
C142 C 0.11926 0.77436 0.70526 0.0
N143 N 0.29607 0.87611 0.85786 0.0
N144 N 0.13259 0.68605 0.58242 0.0
H145 H 0.99304 0.80914 0.72293 0.0
H146 H 0.99143 0.72385 0.64868 0.0
H147 H 0.16098 0.64248 0.54604 0.0
H148 H 0.07924 0.70606 0.55334 0.0
H149 H 0.36343 0.88088 0.87274 0.0
H150 H 0.26787 0.92383 0.88946 0.0
H151 H 0.3947 0.75577 0.84727 0.0
H152 H 0.39531 0.68045 0.76454 0.0
C153 C 0.26131 0.17498 0.75728 0.0
C154 C 0.24388 0.22925 0.82512 0.0
C155 C 0.33891 0.36466 0.75728 0.0
C156 C 0.33818 0.3129 0.68234 0.0
N157 N 0.28175 0.16812 0.61017 0.0
N158 N 0.27346 0.37816 0.89217 0.0
C159 C 0.29387 0.2181 0.68211 0.0
C160 C 0.28451 0.32501 0.82546 0.0
N161 N 0.25283 0.08276 0.7652 0.0
N162 N 0.39625 0.44886 0.76648 0.0
H163 H 0.24725 0.35053 0.94832 0.0
H164 H 0.28844 0.44966 0.89099 0.0
H165 H 0.44072 0.47951 0.72105 0.0
H166 H 0.40692 0.48471 0.8225 0.0
H167 H 0.27008 0.04151 0.71836 0.0
H168 H 0.24496 0.05084 0.82225 0.0
H169 H 0.24122 0.10184 0.60641 0.0
H170 H 0.30441 0.19514 0.55307 0.0
C171 C 0.80745 0.20386 0.74245 0.0
C172 C 0.90002 0.20738 0.73193 0.0
C173 C 0.90109 0.30007 0.60764 0.0
C174 C 0.81232 0.30819 0.62721 0.0
N175 N 0.69167 0.28797 0.72767 0.0
N176 N 0.03931 0.26543 0.65915 0.0
C177 C 0.76852 0.26579 0.69887 0.0
C178 C 0.9484 0.25683 0.66537 0.0
N179 N 0.75711 0.14184 0.7952 0.0
N180 N 0.93894 0.33091 0.53372 0.0
H181 H 0.07524 0.23286 0.69931 0.0
H182 H 0.07953 0.30887 0.61718 0.0
H183 H 0.90607 0.36291 0.49041 0.0
H184 H -0.00011 0.31858 0.51299 0.0
H185 H 0.68732 0.13184 0.80007 0.0
H186 H 0.78409 0.09387 0.827 0.0
H187 H 0.66182 0.26419 0.78371 0.0
H188 H 0.66399 0.33845 0.7008 0.0
C189 C 0.71955 0.76035 0.81241 0.0
C190 C 0.79736 0.82749 0.79106 0.0
C191 C 0.74326 0.81639 0.64733 0.0
C192 C 0.68215 0.73289 0.66567 0.0
N193 N 0.61173 0.62361 0.76799 0.0
N194 N 0.88248 0.92265 0.68445 0.0
C195 C 0.66895 0.70493 0.74917 0.0
C196 C 0.80825 0.858 0.70761 0.0
N197 N 0.69156 0.75309 0.89251 0.0
N198 N 0.73817 0.8559 0.57241 0.0
H199 H 0.9328 0.95401 0.72555 0.0
H200 H 0.89791 0.93959 0.62297 0.0
H201 H 0.68766 0.82776 0.52983 0.0
H202 H 0.77625 0.92063 0.55698 0.0
H203 H 0.63139 0.70956 0.91111 0.0
H204 H 0.72299 0.80015 0.93748 0.0
H205 H 0.60665 0.59589 0.82717 0.0
H206 H 0.57403 0.58151 0.72297 0.0
loop_
_geom_bond_atom_site_label_1
_geom_bond_atom_site_label_2
_geom_bond_distance
_geom_bond_site_symmetry_2
_ccdc_geom_bond_type
Fe0 O1 1.891 . S
Fe0 O4 1.709 1_554 S
Fe0 O9 2.083 1_655 S
Fe0 O14 1.931 1_654 S
Fe0 O20 2.082 . S
Fe0 O29 1.931 1_554 S
O1 Fe0 1.891 . S
O1 Fe3 1.715 1_665 S
Fe2 O4 1.886 1_445 S
Fe2 O5 1.715 . S
Fe2 O12 1.935 . S
Fe2 O13 2.077 1_545 S
Fe2 O19 1.935 1_455 S
Fe2 O28 2.077 1_445 S
Fe3 O1 1.715 1_445 S
Fe3 O6 1.886 . S
Fe3 O10 1.935 1_545 S
Fe3 O15 2.077 . S
Fe3 O21 1.935 1_445 S
Fe3 O25 2.077 1_455 S
O4 Fe0 1.709 1_556 S
O4 Fe2 1.886 1_665 S
O5 Fe2 1.715 . S
O5 Fe7 1.885 . S
O6 Fe3 1.886 . S
O6 Fe7 1.716 1_554 S
Fe7 O5 1.885 . S
Fe7 O6 1.716 1_556 S
Fe7 O11 2.076 . S
Fe7 O16 1.936 1_556 S
Fe7 O18 2.076 1_455 S
Fe7 O26 1.936 1_456 S
C8 O20 1.381 . S
C8 O21 1.421 . S
O9 Fe0 2.083 1_455 S
O9 C22 1.381 . S
O10 Fe3 1.935 1_565 S
O10 C22 1.421 . S
O11 Fe7 2.076 . S
O11 C27 1.381 . S
O12 Fe2 1.935 . S
O12 C27 1.421 . S
O13 Fe2 2.077 1_565 S
O13 C17 1.381 . S
O14 Fe0 1.931 1_456 S
O14 C17 1.421 . S
O15 Fe3 2.077 . S
O15 C23 1.381 . S
O16 Fe7 1.936 1_554 S
O16 C23 1.421 . S
C17 O13 1.381 . S
C17 O14 1.421 . S
O18 Fe7 2.076 1_655 S
O18 C30 1.381 . S
O19 Fe2 1.935 1_655 S
O19 C30 1.421 . S
O20 Fe0 2.082 . S
O20 C8 1.381 . S
O21 Fe3 1.935 1_665 S
O21 C8 1.421 . S
C22 O9 1.381 . S
C22 O10 1.421 . S
C23 O15 1.381 . S
C23 O16 1.421 . S
C24 O25 1.381 . S
C24 O26 1.421 . S
O25 Fe3 2.077 1_655 S
O25 C24 1.381 . S
O26 Fe7 1.936 1_654 S
O26 C24 1.421 . S
C27 O11 1.381 . S
C27 O12 1.421 . S
O28 Fe2 2.077 1_665 S
O28 C31 1.381 . S
O29 Fe0 1.931 1_556 S
O29 C31 1.421 . S
C30 O18 1.381 . S
C30 O19 1.421 . S
C31 O28 1.381 . S
C31 O29 1.421 . S
C32 O59 1.312 . S
C32 O60 1.208 . S
C33 O54 1.331 . S
C33 O57 1.244 . S
C34 O56 1.264 . S
C34 O58 1.273 . S
Mg35 O37 1.936 . S
Mg35 O44 2.081 . S
Mg35 O46 2.023 . S
Mg35 O50 2.031 . S
Mg35 O59 2.291 . S
Mg36 O37 1.963 . S
Mg36 O47 1.942 . S
Mg36 O48 1.955 . S
Mg36 O55 1.986 . S
O37 Mg35 1.936 . S
O37 Mg36 1.963 . S
O37 Mg38 1.915 . S
Mg38 O37 1.915 . S
Mg38 O39 1.915 . S
Mg38 O43 2.013 . S
Mg38 O49 2.114 . S
Mg38 O53 2.013 . S
Mg38 O59 2.114 . S
O39 Mg38 1.915 . S
O39 Mg40 1.936 . S
O39 Mg41 1.963 . S
Mg40 O39 1.936 . S
Mg40 O49 2.291 . S
Mg40 O54 2.081 . S
Mg40 O56 2.023 . S
Mg40 O60 2.031 . S
Mg41 O39 1.963 . S
Mg41 O45 1.986 . S
Mg41 O57 1.942 . S
Mg41 O58 1.955 . S
C42 O53 1.191 . S
C42 O55 1.307 . S
O43 Mg38 2.013 . S
O43 C62 1.191 . S
O44 Mg35 2.081 . S
O44 C52 1.331 . S
O45 Mg41 1.986 . S
O45 C62 1.307 . S
O46 Mg35 2.023 . S
O46 C61 1.264 . S
O47 Mg36 1.942 . S
O47 C52 1.244 . S
O48 Mg36 1.955 . S
O48 C61 1.273 . S
O49 Mg38 2.114 . S
O49 Mg40 2.291 . S
O49 C51 1.312 . S
O50 Mg35 2.031 . S
O50 C51 1.208 . S
C51 O49 1.312 . S
C51 O50 1.208 . S
C52 O44 1.331 . S
C52 O47 1.244 . S
O53 Mg38 2.013 . S
O53 C42 1.191 . S
O54 C33 1.331 . S
O54 Mg40 2.081 . S
O55 Mg36 1.986 . S
O55 C42 1.307 . S
O56 C34 1.264 . S
O56 Mg40 2.023 . S
O57 C33 1.244 . S
O57 Mg41 1.942 . S
O58 C34 1.273 . S
O58 Mg41 1.955 . S
O59 C32 1.312 . S
O59 Mg35 2.291 . S
O59 Mg38 2.114 . S
O60 C32 1.208 . S
O60 Mg40 2.031 . S
C61 O46 1.264 . S
C61 O48 1.273 . S
C62 O43 1.191 . S
C62 O45 1.307 . S
C63 C64 1.363 . S
C63 C69 1.379 . S
C63 N71 1.356 . S
C64 C63 1.363 . S
C64 C70 1.363 . S
C65 C66 1.363 . S
C65 C70 1.379 . S
C65 N72 1.356 . S
C66 C65 1.363 . S
C66 C69 1.363 . S
N67 C69 1.356 . S
N67 H79 0.984 . S
N67 H80 0.985 . S
N68 C70 1.356 . S
N68 H73 0.984 . S
N68 H74 0.985 . S
C69 C63 1.379 . S
C69 C66 1.363 . S
C69 N67 1.356 . S
C70 C64 1.363 . S
C70 C65 1.379 . S
C70 N68 1.356 . S
N71 C63 1.356 . S
N71 H77 0.984 . S
N71 H78 0.984 . S
N72 C65 1.356 . S
N72 H75 0.984 . S
N72 H76 0.985 . S
H73 N68 0.984 . S
H74 N68 0.985 . S
H75 N72 0.984 . S
H76 N72 0.985 . S
H77 N71 0.984 . S
H78 N71 0.984 . S
H79 N67 0.984 . S
H80 N67 0.985 . S
C81 C82 1.363 . S
C81 C87 1.379 . S
C81 N89 1.356 . S
C82 C81 1.363 . S
C82 C88 1.363 . S
C83 C84 1.363 . S
C83 C88 1.379 . S
C83 N90 1.356 . S
C84 C83 1.363 . S
C84 C87 1.363 . S
N85 C87 1.356 . S
N85 H97 0.984 . S
N85 H98 0.985 . S
N86 C88 1.356 . S
N86 H91 0.984 . S
N86 H92 0.985 . S
C87 C81 1.379 . S
C87 C84 1.363 . S
C87 N85 1.356 . S
C88 C82 1.363 . S
C88 C83 1.379 . S
C88 N86 1.356 . S
N89 C81 1.356 . S
N89 H95 0.984 . S
N89 H96 0.984 . S
N90 C83 1.356 . S
N90 H93 0.984 . S
N90 H94 0.985 . S
H91 N86 0.984 . S
H92 N86 0.985 . S
H93 N90 0.984 . S
H94 N90 0.985 . S
H95 N89 0.984 . S
H96 N89 0.984 . S
H97 N85 0.984 . S
H98 N85 0.985 . S
C99 C100 1.363 . S
C99 C105 1.379 . S
C99 N107 1.356 . S
C100 C99 1.363 . S
C100 C106 1.363 . S
C101 C102 1.363 . S
C101 C106 1.379 . S
C101 N108 1.356 . S
C102 C101 1.363 . S
C102 C105 1.363 . S
N103 C105 1.356 . S
N103 H115 0.984 . S
N103 H116 0.985 . S
N104 C106 1.356 . S
N104 H109 0.984 . S
N104 H110 0.985 . S
C105 C99 1.379 . S
C105 C102 1.363 . S
C105 N103 1.356 . S
C106 C100 1.363 . S
C106 C101 1.379 . S
C106 N104 1.356 . S
N107 C99 1.356 . S
N107 H113 0.984 . S
N107 H114 0.984 . S
N108 C101 1.356 . S
N108 H111 0.984 . S
N108 H112 0.985 . S
H109 N104 0.984 . S
H110 N104 0.985 . S
H111 N108 0.984 . S
H112 N108 0.985 . S
H113 N107 0.984 . S
H114 N107 0.984 . S
H115 N103 0.984 . S
H116 N103 0.985 . S
C117 C118 1.363 . S
C117 C123 1.379 . S
C117 N125 1.356 . S
C118 C117 1.363 . S
C118 C124 1.363 . S
C119 C120 1.363 . S
C119 C124 1.379 . S
C119 N126 1.356 . S
C120 C119 1.363 . S
C120 C123 1.363 . S
N121 C123 1.356 . S
N121 H133 0.984 . S
N121 H134 0.985 . S
N122 C124 1.356 . S
N122 H127 0.984 . S
N122 H128 0.985 1_565 S
C123 C117 1.379 . S
C123 C120 1.363 . S
C123 N121 1.356 . S
C124 C118 1.363 . S
C124 C119 1.379 . S
C124 N122 1.356 . S
N125 C117 1.356 . S
N125 H131 0.984 . S
N125 H132 0.984 . S
N126 C119 1.356 . S
N126 H129 0.984 . S
N126 H130 0.985 . S
H127 N122 0.984 . S
H128 N122 0.985 1_545 S
H129 N126 0.984 . S
H130 N126 0.985 . S
H131 N125 0.984 . S
H132 N125 0.984 . S
H133 N121 0.984 . S
H134 N121 0.985 . S
C135 C136 1.363 . S
C135 C141 1.379 . S
C135 N143 1.356 . S
C136 C135 1.363 . S
C136 C142 1.363 . S
C137 C138 1.363 . S
C137 C142 1.379 . S
C137 N144 1.356 . S
C138 C137 1.363 . S
C138 C141 1.363 . S
N139 C141 1.356 . S
N139 H151 0.984 . S
N139 H152 0.985 . S
N140 C142 1.356 . S
N140 H145 0.984 . S
N140 H146 0.985 . S
C141 C135 1.379 . S
C141 C138 1.363 . S
C141 N139 1.356 . S
C142 C136 1.363 . S
C142 C137 1.379 . S
C142 N140 1.356 . S
N143 C135 1.356 . S
N143 H149 0.984 . S
N143 H150 0.984 . S
N144 C137 1.356 . S
N144 H147 0.984 . S
N144 H148 0.985 . S
H145 N140 0.984 . S
H146 N140 0.985 . S
H147 N144 0.984 . S
H148 N144 0.985 . S
H149 N143 0.984 . S
H150 N143 0.984 . S
H151 N139 0.984 . S
H152 N139 0.985 . S
C153 C154 1.363 . S
C153 C159 1.379 . S
C153 N161 1.356 . S
C154 C153 1.363 . S
C154 C160 1.363 . S
C155 C156 1.363 . S
C155 C160 1.379 . S
C155 N162 1.356 . S
C156 C155 1.363 . S
C156 C159 1.363 . S
N157 C159 1.356 . S
N157 H169 0.984 . S
N157 H170 0.985 . S
N158 C160 1.356 . S
N158 H163 0.984 . S
N158 H164 0.985 . S
C159 C153 1.379 . S
C159 C156 1.363 . S
C159 N157 1.356 . S
C160 C154 1.363 . S
C160 C155 1.379 . S
C160 N158 1.356 . S
N161 C153 1.356 . S
N161 H167 0.984 . S
N161 H168 0.984 . S
N162 C155 1.356 . S
N162 H165 0.984 . S
N162 H166 0.985 . S
H163 N158 0.984 . S
H164 N158 0.985 . S
H165 N162 0.984 . S
H166 N162 0.985 . S
H167 N161 0.984 . S
H168 N161 0.984 . S
H169 N157 0.984 . S
H170 N157 0.985 . S
C171 C172 1.363 . S
C171 C177 1.379 . S
C171 N179 1.356 . S
C172 C171 1.363 . S
C172 C178 1.363 . S
C173 C174 1.363 . S
C173 C178 1.379 . S
C173 N180 1.356 . S
C174 C173 1.363 . S
C174 C177 1.363 . S
N175 C177 1.356 . S
N175 H187 0.984 . S
N175 H188 0.985 . S
N176 C178 1.356 . S
N176 H181 0.984 . S
N176 H182 0.985 . S
C177 C171 1.379 . S
C177 C174 1.363 . S
C177 N175 1.356 . S
C178 C172 1.363 . S
C178 C173 1.379 . S
C178 N176 1.356 . S
N179 C171 1.356 . S
N179 H185 0.984 . S
N179 H186 0.984 . S
N180 C173 1.356 . S
N180 H183 0.984 . S
N180 H184 0.985 . S
H181 N176 0.984 . S
H182 N176 0.985 . S
H183 N180 0.984 . S
H184 N180 0.985 . S
H185 N179 0.984 . S
H186 N179 0.984 . S
H187 N175 0.984 . S
H188 N175 0.985 . S
C189 C190 1.363 . S
C189 C195 1.379 . S
C189 N197 1.356 . S
C190 C189 1.363 . S
C190 C196 1.363 . S
C191 C192 1.363 . S
C191 C196 1.379 . S
C191 N198 1.356 . S
C192 C191 1.363 . S
C192 C195 1.363 . S
N193 C195 1.356 . S
N193 H205 0.984 . S
N193 H206 0.985 . S
N194 C196 1.356 . S
N194 H199 0.984 . S
N194 H200 0.985 . S
C195 C189 1.379 . S
C195 C192 1.363 . S
C195 N193 1.356 . S
C196 C190 1.363 . S
C196 C191 1.379 . S
C196 N194 1.356 . S
N197 C189 1.356 . S
N197 H203 0.984 . S
N197 H204 0.984 . S
N198 C191 1.356 . S
N198 H201 0.984 . S
N198 H202 0.985 . S
H199 N194 0.984 . S
H200 N194 0.985 . S
H201 N198 0.984 . S
H202 N198 0.985 . S
H203 N197 0.984 . S
H204 N197 0.984 . S
H205 N193 0.984 . S
H206 N193 0.985 . S
C64 C23 1.381 . S
C66 C42 1.389 . S
C82 C24 1.547 . S
C84 C34 1.548 . S
C100 C8 1.417 . S
C102 C51 1.410 . S
C118 C22 1.479 . S
C120 C52 1.485 . S
C136 C17 1.527 . S
C138 C61 1.548 . S
C156 C62 1.389 . S
C154 C27 1.375 . S
C172 C30 1.455 . S
C174 C33 1.486 . S
C192 C32 1.410 . S
C190 C31 1.433 . S
