# Generated by pormake.
# Topology bcu-b, (8,8)-cn, num edge types: 1
# Building blocks:
#     Node 0, Type 0, BuildingBlock: TAGTUT_clean_sbu_1, # of connection points: 8
#     Node 1, Type 1, BuildingBlock: VETTIZ_charged_sbu_0, # of connection points: 8
#     Edge 2, Type (0, 1), None
#     Edge 3, Type (0, 1), None
#     Edge 4, Type (0, 1), None
#     Edge 5, Type (0, 1), None
#     Edge 6, Type (0, 1), None
#     Edge 7, Type (0, 1), None
#     Edge 8, Type (0, 1), None
#     Edge 9, Type (0, 1), None
# Relax obj value: 0.024
# Max RMSD: 0.104
# Mean RMSD: 0.089
data_MOF--net-bcu-b--node1-TAGTUT_clean_sbu_1--node2-VETTIZ_charged_sbu_0--edge1-none
_symmetry_space_group_name_H-M    P1
_symmetry_Int_Tables_number       1
_symmetry_cell_setting            triclinic
loop_
_symmetry_equiv_pos_as_xyz
'x, y, z'
_cell_length_a     9.8361667
_cell_length_b     11.430782
_cell_length_c     9.8279004
_cell_angle_alpha  90.106881
_cell_angle_beta   94.81216
_cell_angle_gamma 109.10761
loop_
_atom_site_label
_atom_site_type_symbol
_atom_site_fract_x
_atom_site_fract_y
_atom_site_fract_z
_atom_type_partial_charge
C0 C 0.83223 0.24456 0.29603 0.0
C1 C 0.80662 0.26802 0.86501 0.0
C2 C 0.75134 0.74426 0.90858 0.0
Mg3 Mg 0.04801 0.25415 0.08329 0.0
O4 O 0.95049 0.08468 0.10234 0.0
Mg5 Mg 0.73692 0.01237 0.06362 0.0
Mg6 Mg 0.02234 -0.0471 0.03611 0.0
O7 O 0.09345 0.82108 0.9698 0.0
Mg8 Mg 0.99525 0.65174 0.98843 0.0
Mg9 Mg 0.30688 0.8927 1.00782 0.0
C10 C 0.29095 0.16102 0.16327 0.0
C11 C 0.22053 0.0656 0.78257 0.0
O12 O 0.73351 0.15564 0.22866 0.0
O13 O 0.96102 0.29184 0.26129 0.0
O14 O 0.72666 0.15969 0.89636 0.0
O15 O 0.93681 0.31565 0.91672 0.0
O16 O 0.24899 0.21624 0.06424 0.0
O17 O 0.25352 0.04146 0.15709 0.0
C18 C 0.82315 0.83977 0.28919 0.0
O19 O 0.93782 0.84978 0.23035 0.0
O20 O 0.7297 0.88533 0.23857 0.0
O21 O 0.30944 0.74948 0.84264 0.0
O22 O 0.08176 0.61358 0.81029 0.0
O23 O 0.3167 0.74512 0.1749 0.0
C24 C 0.21051 0.66071 0.77536 0.0
O25 O 0.10604 0.5897 0.1549 0.0
O26 O 0.79295 0.688 1.00688 0.0
C27 C 0.23634 0.63698 0.20643 0.0
O28 O 0.79216 0.86399 0.91505 0.0
O29 O 0.10622 0.05576 0.84183 0.0
O30 O 0.31406 0.01996 0.83285 0.0
Fe31 Fe 0.51766 0.58814 0.53384 0.0
O32 O 0.38879 0.41886 0.57768 0.0
Fe33 Fe 0.85906 0.5548 0.56121 0.0
Fe34 Fe 0.18362 0.3504 0.51062 0.0
O35 O 0.65212 0.49833 0.48731 0.0
O36 O 0.65393 0.48638 0.49405 0.0
O37 O 0.39061 0.40687 0.58448 0.0
Fe38 Fe 0.52497 0.31705 0.53762 0.0
C39 C 0.24975 0.5972 0.66563 0.0
O40 O 0.42289 0.57957 0.33654 0.0
O41 O 0.19301 0.48531 0.37125 0.0
O42 O 0.67941 0.24827 0.46794 0.0
O43 O 0.86858 0.42447 0.42328 0.0
O44 O 0.86684 0.68826 0.42422 0.0
O45 O 0.67405 0.75072 0.46971 0.0
O46 O 0.20373 0.22634 0.36064 0.0
O47 O 0.43848 0.29303 0.33895 0.0
C48 C 0.78823 0.75837 0.4054 0.0
O49 O 0.6198 0.32512 0.73487 0.0
O50 O 0.84965 0.41989 0.70049 0.0
O51 O 0.36299 0.65689 0.60319 0.0
O52 O 0.17412 0.48069 0.64847 0.0
C53 C 0.28892 0.56451 0.31046 0.0
C54 C 0.3121 0.22448 0.29865 0.0
C55 C 0.25486 0.14686 0.6662 0.0
O56 O 0.17614 0.21693 0.64763 0.0
O57 O 0.36869 0.15443 0.60144 0.0
C58 C 0.7928 0.308 0.40574 0.0
O59 O 0.83872 0.67891 0.71123 0.0
O60 O 0.60392 0.61258 0.73255 0.0
C61 C 0.75383 0.34038 0.761 0.0
C62 C 0.73025 0.68115 0.77292 0.0
loop_
_geom_bond_atom_site_label_1
_geom_bond_atom_site_label_2
_geom_bond_distance
_geom_bond_site_symmetry_2
_ccdc_geom_bond_type
C0 O12 1.241 . S
C0 O13 1.280 . S
C1 O14 1.277 . S
C1 O15 1.245 . S
C2 O26 1.247 . S
C2 O28 1.289 . S
Mg3 O4 1.926 . S
Mg3 O13 1.984 . S
Mg3 O15 1.988 1_554 S
Mg3 O16 2.061 1_655 S
O4 Mg3 1.926 . S
O4 Mg5 1.986 1_554 S
O4 Mg6 1.917 1_655 S
Mg5 O4 1.986 1_556 S
Mg5 O12 2.042 1_556 S
Mg5 O14 2.041 . S
Mg5 O20 2.038 1_546 S
Mg5 O28 2.238 1_545 S
Mg6 O4 1.917 1_455 S
Mg6 O7 1.917 1_544 S
Mg6 O17 2.106 . S
Mg6 O19 2.079 1_445 S
Mg6 O28 2.106 1_444 S
Mg6 O29 2.079 1_554 S
O7 Mg6 1.917 1_566 S
O7 Mg8 1.926 . S
O7 Mg9 1.986 1_556 S
Mg8 O7 1.926 . S
Mg8 O22 1.984 . S
Mg8 O25 1.988 1_556 S
Mg8 O26 2.061 1_455 S
Mg9 O7 1.986 1_554 S
Mg9 O17 2.238 1_565 S
Mg9 O21 2.042 1_554 S
Mg9 O23 2.041 . S
Mg9 O30 2.038 1_564 S
C10 O16 1.247 . S
C10 O17 1.289 . S
C11 O29 1.245 . S
C11 O30 1.274 . S
O12 C0 1.241 . S
O12 Mg5 2.042 1_554 S
O13 C0 1.280 . S
O13 Mg3 1.984 . S
O14 C1 1.277 . S
O14 Mg5 2.041 . S
O15 C1 1.245 . S
O15 Mg3 1.988 1_556 S
O16 Mg3 2.061 1_455 S
O16 C10 1.247 . S
O17 Mg6 2.106 . S
O17 Mg9 2.238 1_545 S
O17 C10 1.289 . S
C18 O19 1.245 . S
C18 O20 1.274 . S
O19 Mg6 2.079 1_665 S
O19 C18 1.245 . S
O20 Mg5 2.038 1_564 S
O20 C18 1.274 . S
O21 Mg9 2.042 1_556 S
O21 C24 1.241 . S
O22 Mg8 1.984 . S
O22 C24 1.280 . S
O23 Mg9 2.041 . S
O23 C27 1.277 . S
C24 O21 1.241 . S
C24 O22 1.280 . S
O25 Mg8 1.988 1_554 S
O25 C27 1.245 . S
O26 C2 1.247 . S
O26 Mg8 2.061 1_655 S
C27 O23 1.277 . S
C27 O25 1.245 . S
O28 C2 1.289 . S
O28 Mg5 2.238 1_565 S
O28 Mg6 2.106 1_666 S
O29 Mg6 2.079 1_556 S
O29 C11 1.245 . S
O30 Mg9 2.038 1_546 S
O30 C11 1.274 . S
Fe31 O32 1.886 . S
Fe31 O35 1.715 . S
Fe31 O40 2.077 . S
Fe31 O45 1.935 . S
Fe31 O51 2.077 . S
Fe31 O60 1.935 . S
O32 Fe31 1.886 . S
O32 Fe34 1.715 . S
Fe33 O35 1.886 . S
Fe33 O36 1.715 . S
Fe33 O43 1.935 . S
Fe33 O44 2.077 . S
Fe33 O50 1.935 . S
Fe33 O59 2.077 . S
Fe34 O32 1.715 . S
Fe34 O37 1.886 . S
Fe34 O41 1.935 . S
Fe34 O46 2.077 . S
Fe34 O52 1.935 . S
Fe34 O56 2.077 . S
O35 Fe31 1.715 . S
O35 Fe33 1.886 . S
O36 Fe33 1.715 . S
O36 Fe38 1.886 . S
O37 Fe34 1.886 . S
O37 Fe38 1.715 . S
Fe38 O36 1.886 . S
Fe38 O37 1.715 . S
Fe38 O42 2.077 . S
Fe38 O47 1.935 . S
Fe38 O49 2.077 . S
Fe38 O57 1.935 . S
C39 O51 1.381 . S
C39 O52 1.421 . S
O40 Fe31 2.077 . S
O40 C53 1.381 . S
O41 Fe34 1.935 . S
O41 C53 1.421 . S
O42 Fe38 2.077 . S
O42 C58 1.381 . S
O43 Fe33 1.935 . S
O43 C58 1.421 . S
O44 Fe33 2.077 . S
O44 C48 1.381 . S
O45 Fe31 1.935 . S
O45 C48 1.421 . S
O46 Fe34 2.077 . S
O46 C54 1.381 . S
O47 Fe38 1.935 . S
O47 C54 1.421 . S
C48 O44 1.381 . S
C48 O45 1.421 . S
O49 Fe38 2.077 . S
O49 C61 1.381 . S
O50 Fe33 1.935 . S
O50 C61 1.421 . S
O51 Fe31 2.077 . S
O51 C39 1.381 . S
O52 Fe34 1.935 . S
O52 C39 1.421 . S
C53 O40 1.381 . S
C53 O41 1.421 . S
C54 O46 1.381 . S
C54 O47 1.421 . S
C55 O56 1.381 . S
C55 O57 1.421 . S
O56 Fe34 2.077 . S
O56 C55 1.381 . S
O57 Fe38 1.935 . S
O57 C55 1.421 . S
C58 O42 1.381 . S
C58 O43 1.421 . S
O59 Fe33 2.077 . S
O59 C62 1.381 . S
O60 Fe31 1.935 . S
O60 C62 1.421 . S
C61 O49 1.381 . S
C61 O50 1.421 . S
C62 O59 1.381 . S
C62 O60 1.421 . S
C10 C54 1.421 . S
C0 C58 1.560 . S
C18 C48 1.623 . S
C27 C53 1.562 . S
C24 C39 1.562 . S
C55 C11 1.623 . S
C1 C61 1.563 . S
C62 C2 1.423 . S
