# Generated by pormake.
# Topology scu, (8,4)-cn, num edge types: 1
# Building blocks:
#     Node 0, Type 0, BuildingBlock: VETTIZ_charged_sbu_0, # of connection points: 8
#     Node 1, Type 1, BuildingBlock: NAWXER_clean_sbu_0, # of connection points: 4
#     Node 2, Type 1, BuildingBlock: NAWXER_clean_sbu_0, # of connection points: 4
#     Edge 3, Type (0, 1), BuildingBlock: KIFKEQ_clean_linker_1, # of connection points: 2
#     Edge 4, Type (0, 1), BuildingBlock: KIFKEQ_clean_linker_1, # of connection points: 2
#     Edge 5, Type (0, 1), BuildingBlock: KIFKEQ_clean_linker_1, # of connection points: 2
#     Edge 6, Type (0, 1), BuildingBlock: KIFKEQ_clean_linker_1, # of connection points: 2
#     Edge 7, Type (0, 1), BuildingBlock: KIFKEQ_clean_linker_1, # of connection points: 2
#     Edge 8, Type (0, 1), BuildingBlock: KIFKEQ_clean_linker_1, # of connection points: 2
#     Edge 9, Type (0, 1), BuildingBlock: KIFKEQ_clean_linker_1, # of connection points: 2
#     Edge 10, Type (0, 1), BuildingBlock: KIFKEQ_clean_linker_1, # of connection points: 2
# Relax obj value: 0.013
# Max RMSD: 0.059
# Mean RMSD: 0.052
data_MOF--net-scu--node1-VETTIZ_charged_sbu_0--node2-NAWXER_clean_sbu_0--edge1-KIFKEQ_clean_linker_1
_symmetry_space_group_name_H-M    P1
_symmetry_Int_Tables_number       1
_symmetry_cell_setting            triclinic
loop_
_symmetry_equiv_pos_as_xyz
'x, y, z'
_cell_length_a     25.287246
_cell_length_b     24.232339
_cell_length_c     20.361607
_cell_angle_alpha  90.368952
_cell_angle_beta   89.670516
_cell_angle_gamma 89.9451
loop_
_atom_site_label
_atom_site_type_symbol
_atom_site_fract_x
_atom_site_fract_y
_atom_site_fract_z
_atom_type_partial_charge
Fe0 Fe 0.0165 0.03987 0.06913 0.0
O1 O 0.9622 0.03877 -0.00204 0.0
Fe2 Fe 0.12633 0.98337 0.98809 0.0
Fe3 Fe 0.90336 0.09202 0.99304 0.0
O4 O 0.06762 0.03695 0.99357 0.0
O5 O 0.06714 0.03503 0.98661 0.0
O6 O 0.96242 0.04038 0.99115 0.0
Fe7 Fe 0.01287 1.03396 0.91595 0.0
C8 C 0.90198 1.03275 0.12513 0.0
O9 O 0.01851 0.12562 0.07056 0.0
O10 O 0.93257 0.14389 0.06331 0.0
O11 O 0.07364 1.02603 0.84513 0.0
O12 O 0.14963 1.02686 0.90668 0.0
O13 O 0.15482 0.03605 0.05972 0.0
O14 O 0.08329 0.04354 0.13135 0.0
O15 O 0.93564 0.1432 0.92062 0.0
O16 O 0.01992 0.11737 0.909 0.0
C17 C 0.13334 0.04986 0.11588 0.0
O18 O 1.00585 0.95039 0.92092 0.0
O19 O 0.09104 0.92711 0.92282 0.0
O20 O 0.95246 0.03983 0.13702 0.0
O21 O 0.87822 0.04442 0.07039 0.0
C22 C 0.9789 0.15726 0.0807 0.0
C23 C 0.98306 0.15218 0.90097 0.0
C24 C 0.89797 1.03187 0.86256 0.0
O25 O 0.87604 0.04255 0.91872 0.0
O26 O 0.94851 0.03441 0.8505 0.0
C27 C 0.12466 1.02998 0.85157 0.0
O28 O 0.10081 0.93725 0.06544 0.0
O29 O 0.01493 0.9542 0.07627 0.0
C30 C 0.04271 0.91607 0.90955 0.0
C31 C 0.05568 0.92499 0.08846 0.0
C32 C 0.97208 0.60685 0.59205 0.0
C33 C 0.97494 0.47385 0.40594 0.0
O34 O 0.01749 0.58987 0.57279 0.0
Zn35 Zn 0.05399 0.53877 0.50172 0.0
O36 O 0.93057 0.59099 0.56196 0.0
Zn37 Zn 0.96672 0.54221 0.49743 0.0
O38 O 0.99857 0.48146 0.55945 0.0
O39 O 0.0859 0.48295 0.56 0.0
O40 O 0.93278 0.49494 0.43014 0.0
O41 O 0.01973 0.48796 0.42942 0.0
O42 O 0.09228 0.59264 0.44663 0.0
O43 O 1.0056 0.60118 0.43958 0.0
C44 C 0.04243 0.462 0.58005 0.0
C45 C 0.05194 0.61724 0.42336 0.0
C46 C 0.58218 0.05303 0.57134 0.0
C47 C 0.43773 0.07857 0.41459 0.0
O48 O 0.56325 1.00839 0.54706 0.0
Zn49 Zn 0.50651 0.9814 0.47733 0.0
O50 O 0.5629 0.09942 0.55442 0.0
Zn51 Zn 0.51164 0.07016 0.49197 0.0
O52 O 0.45713 1.02814 0.55418 0.0
O53 O 0.45669 0.93889 0.52993 0.0
O54 O 0.4638 0.11747 0.44147 0.0
O55 O 0.45155 1.02843 0.4237 0.0
O56 O 0.55312 0.94729 0.41149 0.0
O57 O 0.56463 0.03715 0.42123 0.0
C58 C 0.43891 0.9795 0.56347 0.0
C59 C 0.57821 0.99084 0.39573 0.0
H60 H 0.05624 0.18609 0.16937 0.0
H61 H 0.91176 0.24485 0.08172 0.0
H62 H 0.05466 0.26465 0.24556 0.0
H63 H 0.91055 0.32322 0.15673 0.0
H64 H 0.89041 0.41569 0.35462 0.0
H65 H 0.89401 0.34152 0.27225 0.0
H66 H 0.06292 0.36359 0.2539 0.0
H67 H 0.05955 0.43626 0.33604 0.0
C68 C 0.02486 0.21633 0.16538 0.0
C69 C 0.98405 0.20896 0.11969 0.0
C70 C 0.02375 0.26131 0.20918 0.0
C71 C 0.98194 0.29996 0.20798 0.0
C72 C 0.94258 0.29369 0.16024 0.0
C73 C 0.94362 0.2489 0.11677 0.0
C74 C 0.92813 0.40493 0.33255 0.0
C75 C 0.97458 0.43182 0.35237 0.0
C76 C 0.9303 0.36249 0.28524 0.0
C77 C 0.97895 0.34619 0.25672 0.0
C78 C 0.025 0.37412 0.27561 0.0
C79 C 0.02286 0.41622 0.32262 0.0
H80 H 0.83104 0.95077 0.11171 0.0
H81 H 0.89211 0.06764 0.25273 0.0
H82 H 0.75577 0.93207 0.18343 0.0
H83 H 0.81649 0.0488 0.3253 0.0
H84 H 0.63752 0.07808 0.3568 0.0
H85 H 0.72317 0.07731 0.30336 0.0
H86 H 0.71842 0.89944 0.29136 0.0
H87 H 0.63156 0.89991 0.34612 0.0
C88 C 0.82914 0.97103 0.15928 0.0
C89 C 0.86695 1.01093 0.17672 0.0
C90 C 0.78611 0.96019 0.20039 0.0
C91 C 0.77975 0.98963 0.25942 0.0
C92 C 0.8201 1.02607 0.27952 0.0
C93 C 0.86361 0.03648 0.23851 0.0
C94 C 0.65433 0.03856 0.34279 0.0
C95 C 0.62741 0.98896 0.35577 0.0
C96 C 0.70398 0.0382 0.31292 0.0
C97 C 0.72814 0.9883 0.29454 0.0
C98 C 0.70086 0.93854 0.30561 0.0
C99 C 0.65101 0.93882 0.33636 0.0
H100 H 0.13899 0.87691 0.14909 0.0
H101 H 0.96862 0.86853 0.13681 0.0
H102 H 0.13906 0.80449 0.22959 0.0
H103 H 0.96882 0.79304 0.2163 0.0
H104 H 0.98161 0.70033 0.40869 0.0
H105 H 0.98157 0.77311 0.32744 0.0
H106 H 0.12926 0.7107 0.24844 0.0
H107 H 0.13019 0.63905 0.33252 0.0
C108 C 0.10132 0.85894 0.16274 0.0
C109 C 0.05366 0.87862 0.13593 0.0
C110 C 0.10152 0.81681 0.20899 0.0
C111 C 0.05411 0.7922 0.22963 0.0
C112 C 1.00622 0.81142 0.20243 0.0
C113 C 1.00596 0.85446 0.15645 0.0
C114 C 0.01439 0.70244 0.37428 0.0
C115 C 0.05606 0.66401 0.3771 0.0
C116 C 0.01401 0.74392 0.32702 0.0
C117 C 0.05499 0.74782 0.28043 0.0
C118 C 0.09722 0.70967 0.28388 0.0
C119 C 0.09795 0.6685 0.33207 0.0
H120 H 0.22807 0.10016 0.09483 0.0
H121 H 0.12217 0.04924 0.2503 0.0
H122 H 0.29587 0.12135 0.17513 0.0
H123 H 0.19032 0.07134 0.33121 0.0
H124 H 0.35301 1.01178 0.41326 0.0
H125 H 0.27311 1.01985 0.34921 0.0
H126 H 0.32779 0.17556 0.27221 0.0
H127 H 0.40912 0.16729 0.33756 0.0
C128 C 0.21888 0.09441 0.14637 0.0
C129 C 0.17012 0.07172 0.1661 0.0
C130 C 0.25764 0.10729 0.19248 0.0
C131 C 0.24871 0.0975 0.25944 0.0
C132 C 0.19852 0.07872 0.27973 0.0
C133 C 0.15945 0.06618 0.23348 0.0
C134 C 0.34798 0.04809 0.38311 0.0
C135 C 0.38775 0.08846 0.37934 0.0
C136 C 0.30168 0.05308 0.34709 0.0
C137 C 0.29396 0.09836 0.30569 0.0
C138 C 0.3328 0.14009 0.30367 0.0
C139 C 0.3792 0.13546 0.3409 0.0
H140 H 0.10972 0.83969 0.85342 0.0
H141 H 0.94385 0.87729 0.88025 0.0
H142 H 0.08631 0.76192 0.78301 0.0
H143 H 0.92051 0.79894 0.81087 0.0
H144 H 0.90943 0.69865 0.61284 0.0
H145 H 0.92363 0.77074 0.69621 0.0
H146 H 0.04726 0.67216 0.78259 0.0
H147 H 0.03398 0.60172 0.69887 0.0
C148 C 0.06828 0.83085 0.84535 0.0
C149 C 0.02884 0.86491 0.87268 0.0
C150 C 0.05473 0.78608 0.80498 0.0
C151 C 1.00137 0.77403 0.79107 0.0
C152 C 0.96193 0.80734 0.8197 0.0
C153 C 0.97545 0.8521 0.85999 0.0
C154 C 0.93861 0.69206 0.65073 0.0
C155 C 0.97082 0.64488 0.64917 0.0
C156 C 0.94698 0.73333 0.6984 0.0
C157 C 0.98745 0.72781 0.74545 0.0
C158 C 0.01687 0.67866 0.74618 0.0
C159 C 1.00886 0.63798 0.69853 0.0
H160 H 0.19682 0.10564 0.81331 0.0
H161 H 0.13199 0.94656 0.76324 0.0
H162 H 0.27126 0.08898 0.73921 0.0
H163 H 0.20802 0.92787 0.69176 0.0
H164 H 0.34463 0.92979 0.53737 0.0
H165 H 0.2616 0.94474 0.59753 0.0
H166 H 0.34709 1.03424 0.7476 0.0
H167 H 0.42871 1.02163 0.68562 0.0
C168 C 0.19793 0.06775 0.78475 0.0
C169 C 0.15862 1.02772 0.79299 0.0
C170 C 0.24108 0.05752 0.7434 0.0
C171 C 0.24671 1.00622 0.71107 0.0
C172 C 0.20517 0.96777 0.71574 0.0
C173 C 0.16134 0.9786 0.75621 0.0
C174 C 0.34553 0.95122 0.58421 0.0
C175 C 0.39287 0.97422 0.60736 0.0
C176 C 0.29797 0.96028 0.61843 0.0
C177 C 0.29722 0.99209 0.67662 0.0
C178 C 0.34559 1.01141 0.70177 0.0
C179 C 0.39265 1.00323 0.66709 0.0
H180 H 0.91759 0.23897 0.87117 0.0
H181 H 0.07706 0.17883 0.84159 0.0
H182 H 0.9363 0.31594 0.7981 0.0
H183 H 0.09509 0.2548 0.76736 0.0
H184 H 0.11812 0.42565 0.66799 0.0
H185 H 0.10637 0.35445 0.75247 0.0
H186 H 0.94845 0.3232 0.68152 0.0
H187 H 0.95968 0.39362 0.5993 0.0
C188 C 0.95666 0.24224 0.84948 0.0
C189 C 0.99546 0.20221 0.86186 0.0
C190 C 0.96739 0.28623 0.80724 0.0
C191 C 0.01704 0.29114 0.77598 0.0
C192 C 0.05658 0.25255 0.79073 0.0
C193 C 0.04597 0.2087 0.83314 0.0
C194 C 0.0812 0.40313 0.6704 0.0
C195 C 0.03975 0.41573 0.62734 0.0
C196 C 0.07433 0.3625 0.71879 0.0
C197 C 0.02595 0.33389 0.72474 0.0
C198 C 0.98554 0.34548 0.67998 0.0
C199 C 0.99228 0.38572 0.63225 0.0
H200 H 0.89799 0.08015 0.7418 0.0
H201 H 0.81179 0.96673 0.86475 0.0
H202 H 0.82234 0.0846 0.66684 0.0
H203 H 0.73659 0.9714 0.79121 0.0
H204 H 0.62379 0.95965 0.62259 0.0
H205 H 0.70555 0.94893 0.68241 0.0
H206 H 0.73092 0.12505 0.67575 0.0
H207 H 0.64878 0.13593 0.61356 0.0
C208 C 0.86363 0.05471 0.75138 0.0
C209 C 0.86066 1.0227 0.80851 0.0
C210 C 0.82004 0.05805 0.70934 0.0
C211 C 0.77327 1.0289 0.72359 0.0
C212 C 0.77203 0.99411 0.77851 0.0
C213 C 0.81516 0.9912 0.82055 0.0
C214 C 0.64648 0.99636 0.63393 0.0
C215 C 0.62946 0.04881 0.61357 0.0
C216 C 0.6935 0.99007 0.66829 0.0
C217 C 0.72484 0.03605 0.68364 0.0
C218 C 0.70792 0.08872 0.66374 0.0
C219 C 0.66055 0.09508 0.62907 0.0
loop_
_geom_bond_atom_site_label_1
_geom_bond_atom_site_label_2
_geom_bond_distance
_geom_bond_site_symmetry_2
_ccdc_geom_bond_type
Fe0 O1 1.894 . S
Fe0 O4 1.707 1_645 S
Fe0 O9 2.077 1_655 S
Fe0 O14 1.920 1_655 S
Fe0 O20 2.093 1_545 S
Fe0 O29 1.938 1_545 S
O1 Fe0 1.894 . S
O1 Fe3 1.715 1_554 S
Fe2 O4 1.886 . S
Fe2 O5 1.715 1_554 S
Fe2 O12 1.935 1_554 S
Fe2 O13 2.077 . S
Fe2 O19 1.935 1_554 S
Fe2 O28 2.077 . S
Fe3 O1 1.715 1_556 S
Fe3 O6 1.886 . S
Fe3 O10 1.935 1_556 S
Fe3 O15 2.077 . S
Fe3 O21 1.935 1_556 S
Fe3 O25 2.077 . S
O4 Fe0 1.707 1_465 S
O4 Fe2 1.886 . S
O5 Fe2 1.715 1_556 S
O5 Fe7 1.894 . S
O6 Fe3 1.886 . S
O6 Fe7 1.707 1_645 S
Fe7 O5 1.894 . S
Fe7 O6 1.707 1_465 S
Fe7 O11 2.077 1_565 S
Fe7 O16 1.920 1_565 S
Fe7 O18 2.093 1_455 S
Fe7 O26 1.938 1_455 S
C8 O20 1.381 1_545 S
C8 O21 1.421 . S
O9 Fe0 2.077 1_455 S
O9 C22 1.381 1_455 S
O10 Fe3 1.935 1_554 S
O10 C22 1.421 . S
O11 Fe7 2.077 1_545 S
O11 C27 1.381 1_545 S
O12 Fe2 1.935 1_556 S
O12 C27 1.421 . S
O13 Fe2 2.077 . S
O13 C17 1.381 . S
O14 Fe0 1.920 1_455 S
O14 C17 1.421 1_545 S
O15 Fe3 2.077 . S
O15 C23 1.381 . S
O16 Fe7 1.920 1_545 S
O16 C23 1.421 1_455 S
C17 O13 1.381 . S
C17 O14 1.421 1_565 S
O18 Fe7 2.093 1_655 S
O18 C30 1.381 1_655 S
O19 Fe2 1.935 1_556 S
O19 C30 1.421 . S
O20 Fe0 2.093 1_565 S
O20 C8 1.381 1_565 S
O21 Fe3 1.935 1_554 S
O21 C8 1.421 . S
C22 O9 1.381 1_655 S
C22 O10 1.421 . S
C23 O15 1.381 . S
C23 O16 1.421 1_655 S
C24 O25 1.381 . S
C24 O26 1.421 1_545 S
O25 Fe3 2.077 . S
O25 C24 1.381 . S
O26 Fe7 1.938 1_655 S
O26 C24 1.421 1_565 S
C27 O11 1.381 1_565 S
C27 O12 1.421 . S
O28 Fe2 2.077 . S
O28 C31 1.381 . S
O29 Fe0 1.938 1_565 S
O29 C31 1.421 1_655 S
C30 O18 1.381 1_455 S
C30 O19 1.421 . S
C31 O28 1.381 . S
C31 O29 1.421 1_455 S
C32 O34 1.252 . S
C32 O36 1.253 1_455 S
C33 O40 1.245 . S
C33 O41 1.260 1_655 S
O34 C32 1.252 . S
O34 Zn35 2.028 . S
Zn35 O34 2.028 . S
Zn35 O39 2.035 . S
Zn35 O41 2.035 . S
Zn35 O42 2.028 . S
O36 C32 1.253 1_655 S
O36 Zn37 2.035 . S
Zn37 O36 2.035 . S
Zn37 O38 2.028 . S
Zn37 O40 2.028 . S
Zn37 O43 2.035 . S
O38 Zn37 2.028 . S
O38 C44 1.245 . S
O39 Zn35 2.035 . S
O39 C44 1.260 1_455 S
O40 C33 1.245 . S
O40 Zn37 2.028 . S
O41 C33 1.260 1_455 S
O41 Zn35 2.035 . S
O42 Zn35 2.028 . S
O42 C45 1.252 . S
O43 Zn37 2.035 . S
O43 C45 1.253 1_655 S
C44 O38 1.245 . S
C44 O39 1.260 1_655 S
C45 O42 1.252 . S
C45 O43 1.253 1_455 S
C46 O48 1.245 . S
C46 O50 1.260 1_565 S
C47 O54 1.252 . S
C47 O55 1.253 1_545 S
O48 C46 1.245 . S
O48 Zn49 2.028 . S
Zn49 O48 2.028 . S
Zn49 O53 2.035 . S
Zn49 O55 2.035 . S
Zn49 O56 2.028 . S
O50 C46 1.260 1_545 S
O50 Zn51 2.035 . S
Zn51 O50 2.035 . S
Zn51 O52 2.028 . S
Zn51 O54 2.028 . S
Zn51 O57 2.035 . S
O52 Zn51 2.028 . S
O52 C58 1.252 . S
O53 Zn49 2.035 . S
O53 C58 1.253 1_565 S
O54 C47 1.252 . S
O54 Zn51 2.028 . S
O55 C47 1.253 1_565 S
O55 Zn49 2.035 . S
O56 Zn49 2.028 . S
O56 C59 1.245 . S
O57 Zn51 2.035 . S
O57 C59 1.260 1_545 S
C58 O52 1.252 . S
C58 O53 1.253 1_545 S
C59 O56 1.245 . S
C59 O57 1.260 1_565 S
H60 C68 0.950 . S
H61 C73 0.950 . S
H62 C70 0.950 . S
H63 C72 0.950 . S
H64 C74 0.950 . S
H65 C76 0.950 . S
H66 C78 0.950 . S
H67 C79 0.950 . S
C68 H60 0.950 . S
C68 C69 1.398 . S
C68 C70 1.391 . S
C69 C68 1.398 . S
C69 C73 1.380 1_455 S
C70 H62 0.950 . S
C70 C68 1.391 . S
C70 C71 1.408 . S
C71 C70 1.408 . S
C71 C72 1.391 1_455 S
C71 C77 1.490 1_455 S
C72 H63 0.950 . S
C72 C71 1.391 1_655 S
C72 C73 1.391 . S
C73 H61 0.950 . S
C73 C69 1.380 1_655 S
C73 C72 1.391 . S
C74 H64 0.950 . S
C74 C75 1.389 . S
C74 C76 1.391 . S
C75 C74 1.389 . S
C75 C79 1.389 1_655 S
C76 H65 0.950 . S
C76 C74 1.391 . S
C76 C77 1.399 . S
C77 C71 1.490 1_655 S
C77 C76 1.399 . S
C77 C78 1.399 1_655 S
C78 H66 0.950 . S
C78 C77 1.399 1_455 S
C78 C79 1.391 . S
C79 H67 0.950 . S
C79 C75 1.389 1_455 S
C79 C78 1.391 . S
H80 C88 0.950 . S
H81 C93 0.950 . S
H82 C90 0.950 . S
H83 C92 0.950 . S
H84 C94 0.950 . S
H85 C96 0.950 . S
H86 C98 0.950 . S
H87 C99 0.950 . S
C88 H80 0.950 . S
C88 C89 1.391 . S
C88 C90 1.391 . S
C89 C88 1.391 . S
C89 C93 1.387 1_565 S
C90 H82 0.950 . S
C90 C88 1.391 . S
C90 C91 1.401 . S
C91 C90 1.401 . S
C91 C92 1.397 1_565 S
C91 C97 1.490 1_565 S
C92 H83 0.950 . S
C92 C91 1.397 1_545 S
C92 C93 1.391 . S
C93 H81 0.950 . S
C93 C89 1.387 1_545 S
C93 C92 1.391 . S
C94 H84 0.950 . S
C94 C95 1.395 . S
C94 C96 1.391 . S
C95 C94 1.395 . S
C95 C99 1.383 1_545 S
C96 H85 0.950 . S
C96 C94 1.391 . S
C96 C97 1.405 . S
C97 C91 1.490 1_545 S
C97 C96 1.405 . S
C97 C98 1.393 1_545 S
C98 H86 0.950 . S
C98 C97 1.393 1_565 S
C98 C99 1.391 . S
C99 H87 0.950 . S
C99 C95 1.383 1_565 S
C99 C98 1.391 . S
H100 C108 0.950 . S
H101 C113 0.950 . S
H102 C110 0.950 . S
H103 C112 0.950 . S
H104 C114 0.950 . S
H105 C116 0.950 . S
H106 C118 0.950 . S
H107 C119 0.950 . S
C108 H100 0.950 . S
C108 C109 1.386 . S
C108 C110 1.391 . S
C109 C108 1.386 . S
C109 C113 1.393 1_455 S
C110 H102 0.950 . S
C110 C108 1.391 . S
C110 C111 1.400 . S
C111 C110 1.400 . S
C111 C112 1.398 1_455 S
C111 C117 1.490 1_455 S
C112 H103 0.950 . S
C112 C111 1.398 1_655 S
C112 C113 1.391 . S
C113 H101 0.950 . S
C113 C109 1.393 1_655 S
C113 C112 1.391 . S
C114 H104 0.950 . S
C114 C115 1.386 . S
C114 C116 1.391 . S
C115 C114 1.386 . S
C115 C119 1.393 1_655 S
C116 H105 0.950 . S
C116 C114 1.391 . S
C116 C117 1.402 . S
C117 C111 1.490 1_655 S
C117 C116 1.402 . S
C117 C118 1.397 1_655 S
C118 H106 0.950 . S
C118 C117 1.397 1_455 S
C118 C119 1.391 . S
C119 H107 0.950 . S
C119 C115 1.393 1_455 S
C119 C118 1.391 . S
H120 C128 0.950 . S
H121 C133 0.950 . S
H122 C130 0.950 . S
H123 C132 0.950 . S
H124 C134 0.950 . S
H125 C136 0.950 . S
H126 C138 0.950 . S
H127 C139 0.950 . S
C128 H120 0.950 . S
C128 C129 1.398 . S
C128 C130 1.391 . S
C129 C128 1.398 . S
C129 C133 1.380 1_545 S
C130 H122 0.950 . S
C130 C128 1.391 . S
C130 C131 1.408 . S
C131 C130 1.408 . S
C131 C132 1.391 1_545 S
C131 C137 1.490 1_545 S
C132 H123 0.950 . S
C132 C131 1.391 1_565 S
C132 C133 1.391 . S
C133 H121 0.950 . S
C133 C129 1.380 1_565 S
C133 C132 1.391 . S
C134 H124 0.950 . S
C134 C135 1.390 . S
C134 C136 1.391 . S
C135 C134 1.390 . S
C135 C139 1.389 1_565 S
C136 H125 0.950 . S
C136 C134 1.391 . S
C136 C137 1.400 . S
C137 C131 1.490 1_565 S
C137 C136 1.400 . S
C137 C138 1.399 1_565 S
C138 H126 0.950 . S
C138 C137 1.399 1_545 S
C138 C139 1.391 . S
C139 H127 0.950 . S
C139 C135 1.389 1_545 S
C139 C138 1.391 . S
H140 C148 0.950 . S
H141 C153 0.950 . S
H142 C150 0.950 . S
H143 C152 0.950 . S
H144 C154 0.950 . S
H145 C156 0.950 . S
H146 C158 0.950 . S
H147 C159 0.950 . S
C148 H140 0.950 . S
C148 C149 1.386 . S
C148 C150 1.391 . S
C149 C148 1.386 . S
C149 C153 1.393 1_455 S
C150 H142 0.950 . S
C150 C148 1.391 . S
C150 C151 1.410 . S
C151 C150 1.410 . S
C151 C152 1.389 1_455 S
C151 C157 1.491 1_455 S
C152 H143 0.950 . S
C152 C151 1.389 1_655 S
C152 C153 1.391 . S
C153 H141 0.950 . S
C153 C149 1.393 1_655 S
C153 C152 1.391 . S
C154 H144 0.950 . S
C154 C155 1.386 . S
C154 C156 1.391 . S
C155 C154 1.386 . S
C155 C159 1.393 1_655 S
C156 H145 0.950 . S
C156 C154 1.391 . S
C156 C157 1.407 . S
C157 C151 1.491 1_655 S
C157 C156 1.407 . S
C157 C158 1.392 1_655 S
C158 H146 0.950 . S
C158 C157 1.392 1_455 S
C158 C159 1.391 . S
C159 H147 0.950 . S
C159 C155 1.393 1_455 S
C159 C158 1.391 . S
H160 C168 0.950 . S
H161 C173 0.950 . S
H162 C170 0.950 . S
H163 C172 0.950 . S
H164 C174 0.950 . S
H165 C176 0.950 . S
H166 C178 0.950 . S
H167 C179 0.950 . S
C168 H160 0.950 . S
C168 C169 1.399 . S
C168 C170 1.391 . S
C169 C168 1.399 . S
C169 C173 1.379 1_545 S
C170 H162 0.950 . S
C170 C168 1.391 . S
C170 C171 1.409 . S
C171 C170 1.409 . S
C171 C172 1.390 1_545 S
C171 C177 1.490 1_545 S
C172 H163 0.950 . S
C172 C171 1.390 1_565 S
C172 C173 1.391 . S
C173 H161 0.950 . S
C173 C169 1.379 1_565 S
C173 C172 1.391 . S
C174 H164 0.950 . S
C174 C175 1.391 . S
C174 C176 1.391 . S
C175 C174 1.391 . S
C175 C179 1.388 1_565 S
C176 H165 0.950 . S
C176 C174 1.391 . S
C176 C177 1.400 . S
C177 C171 1.490 1_565 S
C177 C176 1.400 . S
C177 C178 1.398 1_565 S
C178 H166 0.950 . S
C178 C177 1.398 1_545 S
C178 C179 1.391 . S
C179 H167 0.950 . S
C179 C175 1.388 1_545 S
C179 C178 1.391 . S
H180 C188 0.950 . S
H181 C193 0.950 . S
H182 C190 0.950 . S
H183 C192 0.950 . S
H184 C194 0.950 . S
H185 C196 0.950 . S
H186 C198 0.950 . S
H187 C199 0.950 . S
C188 H180 0.950 . S
C188 C189 1.386 1_655 S
C188 C190 1.391 . S
C189 C188 1.386 1_455 S
C189 C193 1.393 . S
C190 H182 0.950 . S
C190 C188 1.391 . S
C190 C191 1.389 1_655 S
C191 C190 1.389 1_455 S
C191 C192 1.410 . S
C191 C197 1.490 1_455 S
C192 H183 0.950 . S
C192 C191 1.410 . S
C192 C193 1.391 . S
C193 H181 0.950 . S
C193 C189 1.393 . S
C193 C192 1.391 . S
C194 H184 0.950 . S
C194 C195 1.372 1_455 S
C194 C196 1.391 . S
C195 C194 1.372 1_655 S
C195 C199 1.406 . S
C196 H185 0.950 . S
C196 C194 1.391 . S
C196 C197 1.397 1_455 S
C197 C191 1.490 1_655 S
C197 C196 1.397 1_655 S
C197 C198 1.402 . S
C198 H186 0.950 . S
C198 C197 1.402 . S
C198 C199 1.391 . S
C199 H187 0.950 . S
C199 C195 1.406 . S
C199 C198 1.391 . S
H200 C208 0.950 . S
H201 C213 0.950 . S
H202 C210 0.950 . S
H203 C212 0.950 . S
H204 C214 0.950 . S
H205 C216 0.950 . S
H206 C218 0.950 . S
H207 C219 0.950 . S
C208 H200 0.950 . S
C208 C209 1.386 1_545 S
C208 C210 1.391 . S
C209 C208 1.386 1_565 S
C209 C213 1.393 . S
C210 H202 0.950 . S
C210 C208 1.391 . S
C210 C211 1.392 1_545 S
C211 C210 1.392 1_565 S
C211 C212 1.408 . S
C211 C217 1.489 1_565 S
C212 H203 0.950 . S
C212 C211 1.408 . S
C212 C213 1.391 . S
C213 H201 0.950 . S
C213 C209 1.393 . S
C213 C212 1.391 . S
C214 H204 0.950 . S
C214 C215 1.386 1_565 S
C214 C216 1.391 . S
C215 C214 1.386 1_545 S
C215 C219 1.393 . S
C216 H205 0.950 . S
C216 C214 1.391 . S
C216 C217 1.390 1_565 S
C217 C211 1.489 1_545 S
C217 C216 1.390 1_545 S
C217 C218 1.410 . S
C218 H206 0.950 . S
C218 C217 1.410 . S
C218 C219 1.391 . S
C219 H207 0.950 . S
C219 C215 1.393 . S
C219 C218 1.391 . S
C69 C22 1.411 1_455 S
C75 C33 1.457 . S
C89 C8 1.403 1_565 S
C95 C59 1.456 1_545 S
C109 C31 1.392 . S
C115 C45 1.456 1_655 S
C129 C17 1.395 1_545 S
C135 C47 1.456 1_565 S
C149 C30 1.403 . S
C155 C32 1.459 1_655 S
C169 C27 1.411 1_545 S
C175 C58 1.459 1_565 S
C195 C44 1.458 . S
C189 C23 1.418 1_455 S
C209 C24 1.408 1_565 S
C215 C46 1.458 1_545 S
