# Generated by pormake.
# Topology bcu-b, (8,8)-cn, num edge types: 1
# Building blocks:
#     Node 0, Type 0, BuildingBlock: VETTIZ_charged_sbu_0, # of connection points: 8
#     Node 1, Type 1, BuildingBlock: GIZVER_clean_sbu_0, # of connection points: 8
#     Edge 2, Type (0, 1), BuildingBlock: XIVTED_clean_linker_0, # of connection points: 2
#     Edge 3, Type (0, 1), BuildingBlock: XIVTED_clean_linker_0, # of connection points: 2
#     Edge 4, Type (0, 1), BuildingBlock: XIVTED_clean_linker_0, # of connection points: 2
#     Edge 5, Type (0, 1), BuildingBlock: XIVTED_clean_linker_0, # of connection points: 2
#     Edge 6, Type (0, 1), BuildingBlock: XIVTED_clean_linker_0, # of connection points: 2
#     Edge 7, Type (0, 1), BuildingBlock: XIVTED_clean_linker_0, # of connection points: 2
#     Edge 8, Type (0, 1), BuildingBlock: XIVTED_clean_linker_0, # of connection points: 2
#     Edge 9, Type (0, 1), BuildingBlock: XIVTED_clean_linker_0, # of connection points: 2
# Relax obj value: 0.083
# Max RMSD: 0.152
# Mean RMSD: 0.139
data_MOF--net-bcu-b--node1-VETTIZ_charged_sbu_0--node2-GIZVER_clean_sbu_0--edge1-XIVTED_clean_linker_0
_symmetry_space_group_name_H-M    P1
_symmetry_Int_Tables_number       1
_symmetry_cell_setting            triclinic
loop_
_symmetry_equiv_pos_as_xyz
'x, y, z'
_cell_length_a     20.933801
_cell_length_b     22.562453
_cell_length_c     16.476479
_cell_angle_alpha  89.124032
_cell_angle_beta   93.088757
_cell_angle_gamma 101.15429
loop_
_atom_site_label
_atom_site_type_symbol
_atom_site_fract_x
_atom_site_fract_y
_atom_site_fract_z
_atom_type_partial_charge
Fe0 Fe 0.99948 0.9514 1.02207 0.0
O1 O 0.96736 1.01116 0.08968 0.0
Fe2 Fe 0.03892 0.0334 0.84382 0.0
Fe3 Fe 0.97153 1.00901 0.20889 0.0
O4 O 0.04391 0.02465 0.96298 0.0
O5 O 0.04425 0.03068 0.96334 0.0
O6 O 0.96757 1.01708 0.08992 0.0
Fe7 Fe 0.01203 0.09047 0.03135 0.0
C8 C 0.90356 0.88523 0.14609 0.0
O9 O 0.08114 0.95451 0.09809 0.0
O10 O 0.03639 0.95072 0.21816 0.0
O11 O 0.06579 0.15965 0.96091 0.0
O12 O 0.11166 0.10826 0.86576 0.0
O13 O 0.09423 0.96676 0.85118 0.0
O14 O 0.04048 0.89843 0.94277 0.0
O15 O 0.04887 0.08088 0.22724 0.0
O16 O 0.09392 0.09775 0.10751 0.0
C17 C 0.08074 0.91361 0.88488 0.0
O18 O 0.9304 0.08753 0.95558 0.0
O19 O 0.97599 0.09359 0.83618 0.0
O20 O 0.94631 0.882 0.09243 0.0
O21 O 0.90025 0.93298 0.18759 0.0
C22 C 0.08149 0.9419 0.17363 0.0
C23 C 0.09627 0.10406 0.1842 0.0
C24 C 0.92566 0.12603 0.16345 0.0
O25 O 0.91366 0.07298 0.1975 0.0
O26 O 0.96981 0.14339 0.11042 0.0
C27 C 0.10886 0.15604 0.90765 0.0
O28 O 0.96002 0.9633 0.8257 0.0
O29 O 0.91715 0.94382 0.94652 0.0
C30 C 0.93056 0.1016 0.88062 0.0
C31 C 0.91356 0.93919 0.86954 0.0
Co32 Co 0.58371 0.40623 0.49921 0.0
Co33 Co 0.59828 0.45245 0.63986 0.0
Co34 Co 0.50495 0.5207 0.52816 0.0
O35 O 0.585 0.485 0.53997 0.0
H36 H 0.62359 0.51356 0.52611 0.0
O37 O 0.42461 0.55593 0.5157 0.0
Co38 Co 0.42034 0.63089 0.56425 0.0
Co39 Co 0.41254 0.59389 0.41973 0.0
H40 H 0.38613 0.52571 0.52488 0.0
O41 O 0.67987 0.44819 0.68044 0.0
O42 O 0.60893 0.37637 0.60929 0.0
O43 O 0.52841 0.44454 0.71135 0.0
O44 O 0.4576 0.4721 0.6194 0.0
O45 O 0.54812 0.58437 0.60716 0.0
O46 O 0.40907 0.6966 0.61498 0.0
O47 O 0.33513 0.61175 0.58574 0.0
O48 O 0.51011 0.66051 0.54968 0.0
O49 O 0.55242 0.56956 0.43703 0.0
O50 O 0.48388 0.60648 0.35088 0.0
O51 O 0.39813 0.66687 0.45695 0.0
O52 O 0.3314 0.59763 0.37691 0.0
C53 C 0.64787 0.36464 0.44348 0.0
C54 C 0.45429 0.40054 0.46865 0.0
C55 C 0.47082 0.44923 0.68845 0.0
C56 C 0.6627 0.39302 0.65426 0.0
C57 C 0.35058 0.66473 0.61992 0.0
C58 C 0.55304 0.6408 0.59397 0.0
C59 C 0.54041 0.59731 0.37119 0.0
C60 C 0.34634 0.65145 0.40817 0.0
O61 O 0.58902 0.33644 0.45664 0.0
O62 O 0.66787 0.4196 0.47055 0.0
O63 O 0.46198 0.45641 0.44994 0.0
O64 O 0.49414 0.38225 0.51954 0.0
H65 H 0.18292 0.19462 0.11439 0.0
H66 H 0.40242 0.28645 0.5201 0.0
H67 H 0.13852 0.10645 0.34457 0.0
H68 H 0.38618 0.41307 0.32463 0.0
H69 H 0.31736 0.21213 0.44997 0.0
H70 H 0.27076 0.26674 0.1836 0.0
C71 C 0.19211 0.18996 0.1793 0.0
C72 C 0.1532 0.14448 0.22387 0.0
C73 C 0.33239 0.25623 0.42261 0.0
C74 C 0.25359 0.22678 0.3031 0.0
C75 C 0.38096 0.29862 0.46244 0.0
C76 C 0.40132 0.35609 0.42819 0.0
C77 C 0.30484 0.27096 0.34724 0.0
C78 C 0.37169 0.36944 0.35342 0.0
C79 C 0.24187 0.23143 0.21876 0.0
C80 C 0.16707 0.14097 0.30796 0.0
N81 N 0.32527 0.32702 0.3151 0.0
N82 N 0.21627 0.18146 0.34482 0.0
H83 H 0.96088 0.24887 0.1922 0.0
H84 H 0.61618 0.25222 0.37915 0.0
H85 H 0.79827 0.09885 0.19442 0.0
H86 H 0.77549 0.40542 0.40118 0.0
H87 H 0.6823 0.2002 0.3008 0.0
H88 H 0.8936 0.3122 0.25577 0.0
C89 C 0.9108 0.2297 0.20466 0.0
C90 C 0.88512 0.1685 0.18888 0.0
C91 C 0.70328 0.24518 0.32252 0.0
C92 C 0.80873 0.23981 0.26148 0.0
C93 C 0.66537 0.27505 0.36777 0.0
C94 C 0.6903 0.33333 0.39739 0.0
C95 C 0.76727 0.27323 0.30646 0.0
C96 C 0.75444 0.36038 0.37983 0.0
C97 C 0.87272 0.26557 0.24145 0.0
C98 C 0.82026 0.1456 0.20656 0.0
N99 N 0.79096 0.32998 0.33559 0.0
N100 N 0.78465 0.18106 0.24209 0.0
H101 H 0.91879 0.77503 0.20746 0.0
H102 H 0.53365 0.66136 0.22975 0.0
H103 H 0.77397 0.87574 0.11923 0.0
H104 H 0.67208 0.59944 0.39862 0.0
H105 H 0.6238 0.72152 0.15997 0.0
H106 H 0.83072 0.69303 0.25017 0.0
C107 C 0.86841 0.77905 0.19552 0.0
C108 C 0.85302 0.83173 0.16009 0.0
C109 C 0.63446 0.69423 0.21176 0.0
C110 C 0.75315 0.7392 0.20789 0.0
C111 C 0.58298 0.65966 0.25171 0.0
C112 C 0.59509 0.62594 0.32127 0.0
C113 C 0.69878 0.69516 0.24106 0.0
C114 C 0.66034 0.62522 0.34585 0.0
C115 C 0.81843 0.73271 0.22022 0.0
C116 C 0.78742 0.83564 0.14659 0.0
N117 N 0.70985 0.65992 0.30626 0.0
N118 N 0.73986 0.79005 0.17059 0.0
H119 H 0.16021 0.88171 0.09308 0.0
H120 H 0.33169 0.75546 0.48396 0.0
H121 H 0.11458 0.92545 0.33468 0.0
H122 H 0.27912 0.65354 0.26275 0.0
H123 H 0.27318 0.83299 0.42804 0.0
H124 H 0.22873 0.81415 0.15228 0.0
C125 C 0.16525 0.87775 0.15853 0.0
C126 C 0.13076 0.9085 0.20888 0.0
C127 C 0.27468 0.79353 0.39212 0.0
C128 C 0.20951 0.83184 0.27691 0.0
C129 C 0.30786 0.7494 0.42386 0.0
C130 C 0.30972 0.69783 0.37814 0.0
C131 C 0.24508 0.78662 0.3134 0.0
C132 C 0.27828 0.69223 0.30046 0.0
C133 C 0.20407 0.839 0.19221 0.0
C134 C 0.13964 0.90197 0.29355 0.0
N135 N 0.24777 0.7363 0.27029 0.0
N136 N 0.1781 0.86419 0.32503 0.0
H137 H 0.13939 0.82945 0.9659 0.0
H138 H 0.225 0.66932 0.56972 0.0
H139 H 0.09095 0.89112 0.72561 0.0
H140 H 0.36789 0.7181 0.76766 0.0
H141 H 0.15036 0.72205 0.63839 0.0
H142 H 0.19948 0.75903 0.90474 0.0
C143 C 0.14075 0.82756 0.90047 0.0
C144 C 0.11133 0.86662 0.85062 0.0
C145 C 0.19773 0.72017 0.66708 0.0
C146 C 0.17731 0.78552 0.78086 0.0
C147 C 0.23995 0.69007 0.62831 0.0
C148 C 0.30238 0.68985 0.6633 0.0
C149 C 0.21768 0.74831 0.74215 0.0
C150 C 0.32011 0.71779 0.7388 0.0
C151 C 0.17487 0.78761 0.86577 0.0
C152 C 0.11395 0.86226 0.76602 0.0
N153 N 0.27783 0.74578 0.77606 0.0
N154 N 0.14626 0.8223 0.73366 0.0
H155 H 0.09452 0.26942 0.85785 0.0
H156 H 0.4788 0.38272 0.82763 0.0
H157 H 0.23872 0.16218 0.92463 0.0
H158 H 0.33907 0.44701 0.66315 0.0
H159 H 0.38915 0.32039 0.89614 0.0
H160 H 0.18255 0.35226 0.81717 0.0
C161 C 0.1448 0.264 0.86546 0.0
C162 C 0.15993 0.20929 0.89412 0.0
C163 C 0.37817 0.34877 0.8457 0.0
C164 C 0.25973 0.3029 0.84909 0.0
C165 C 0.42931 0.38461 0.80656 0.0
C166 C 0.41665 0.41957 0.73844 0.0
C167 C 0.31369 0.34802 0.81724 0.0
C168 C 0.35122 0.42025 0.71474 0.0
C169 C 0.19471 0.31087 0.84195 0.0
C170 C 0.22542 0.20378 0.90233 0.0
N171 N 0.30207 0.38449 0.75365 0.0
N172 N 0.27295 0.24999 0.87992 0.0
H173 H 0.88884 0.11052 0.72131 0.0
H174 H 0.73912 0.39846 0.79375 0.0
H175 H 0.86264 0.17185 0.96195 0.0
H176 H 0.66981 0.28328 0.58797 0.0
H177 H 0.79722 0.32189 0.8494 0.0
H178 H 0.81848 0.17793 0.66456 0.0
C179 C 0.86774 0.13767 0.76219 0.0
C180 C 0.88176 0.13579 0.84643 0.0
C181 C 0.76919 0.31333 0.79215 0.0
C182 C 0.80279 0.21352 0.78187 0.0
C183 C 0.73649 0.3572 0.75989 0.0
C184 C 0.69973 0.34731 0.6859 0.0
C185 C 0.76643 0.25956 0.74944 0.0
C186 C 0.69759 0.29265 0.6452 0.0
C187 C 0.8276 0.17591 0.72978 0.0
C188 C 0.853 0.17172 0.8967 0.0
N189 N 0.73112 0.25091 0.67714 0.0
N190 N 0.81572 0.20983 0.86353 0.0
H191 H 0.86645 0.94277 0.71177 0.0
H192 H 0.6284 0.62324 0.73007 0.0
H193 H 0.83122 0.84418 0.9367 0.0
H194 H 0.59966 0.75789 0.55002 0.0
H195 H 0.71367 0.69813 0.79922 0.0
H196 H 0.77772 0.8705 0.64432 0.0
C197 C 0.83977 0.90617 0.74704 0.0
C198 C 0.85617 0.8995 0.82995 0.0
C199 C 0.68856 0.71116 0.7446 0.0
C200 C 0.75576 0.81616 0.75286 0.0
C201 C 0.64031 0.6684 0.70481 0.0
C202 C 0.60682 0.68443 0.63428 0.0
C203 C 0.7043 0.76995 0.71274 0.0
C204 C 0.62403 0.74371 0.60446 0.0
C205 C 0.78919 0.86504 0.70856 0.0
C206 C 0.81992 0.85125 0.87279 0.0
N207 N 0.67187 0.78424 0.64355 0.0
N208 N 0.77189 0.81098 0.83352 0.0
loop_
_geom_bond_atom_site_label_1
_geom_bond_atom_site_label_2
_geom_bond_distance
_geom_bond_site_symmetry_2
_ccdc_geom_bond_type
Fe0 O1 1.886 . S
Fe0 O4 1.715 1_554 S
Fe0 O9 2.077 1_655 S
Fe0 O14 1.935 1_654 S
Fe0 O20 2.077 . S
Fe0 O29 1.935 1_554 S
O1 Fe0 1.886 . S
O1 Fe3 1.715 1_655 S
Fe2 O4 1.886 1_545 S
Fe2 O5 1.715 1_655 S
Fe2 O12 1.935 1_655 S
Fe2 O13 2.077 1_645 S
Fe2 O19 1.935 . S
Fe2 O28 2.077 1_545 S
Fe3 O1 1.715 1_455 S
Fe3 O6 1.886 1_565 S
Fe3 O10 1.935 . S
Fe3 O15 2.077 1_565 S
Fe3 O21 1.935 1_455 S
Fe3 O25 2.077 1_465 S
O4 Fe0 1.715 1_556 S
O4 Fe2 1.886 1_565 S
O5 Fe2 1.715 1_455 S
O5 Fe7 1.886 . S
O6 Fe3 1.886 1_545 S
O6 Fe7 1.715 1_554 S
Fe7 O5 1.886 . S
Fe7 O6 1.715 1_556 S
Fe7 O11 2.077 . S
Fe7 O16 1.935 1_556 S
Fe7 O18 2.077 1_455 S
Fe7 O26 1.935 1_456 S
C8 O20 1.381 . S
C8 O21 1.421 . S
O9 Fe0 2.077 1_455 S
O9 C22 1.381 . S
O10 Fe3 1.935 . S
O10 C22 1.421 . S
O11 Fe7 2.077 . S
O11 C27 1.381 . S
O12 Fe2 1.935 1_455 S
O12 C27 1.421 . S
O13 Fe2 2.077 1_465 S
O13 C17 1.381 . S
O14 Fe0 1.935 1_456 S
O14 C17 1.421 . S
O15 Fe3 2.077 1_545 S
O15 C23 1.381 . S
O16 Fe7 1.935 1_554 S
O16 C23 1.421 . S
C17 O13 1.381 . S
C17 O14 1.421 . S
O18 Fe7 2.077 1_655 S
O18 C30 1.381 . S
O19 Fe2 1.935 . S
O19 C30 1.421 . S
O20 Fe0 2.077 . S
O20 C8 1.381 . S
O21 Fe3 1.935 1_655 S
O21 C8 1.421 . S
C22 O9 1.381 . S
C22 O10 1.421 . S
C23 O15 1.381 . S
C23 O16 1.421 . S
C24 O25 1.381 . S
C24 O26 1.421 . S
O25 Fe3 2.077 1_645 S
O25 C24 1.381 . S
O26 Fe7 1.935 1_654 S
O26 C24 1.421 . S
C27 O11 1.381 . S
C27 O12 1.421 . S
O28 Fe2 2.077 1_565 S
O28 C31 1.381 . S
O29 Fe0 1.935 1_556 S
O29 C31 1.421 . S
C30 O18 1.381 . S
C30 O19 1.421 . S
C31 O28 1.381 . S
C31 O29 1.421 . S
Co32 O35 2.042 . S
Co32 O42 2.264 . S
Co32 O61 2.286 . S
Co32 O62 2.069 . S
Co32 O64 2.015 . S
Co33 O35 2.122 . S
Co33 O41 2.073 . S
Co33 O42 2.327 . S
Co33 O43 1.976 . S
Co34 O35 2.087 . S
Co34 O37 2.087 . S
Co34 O44 2.111 . S
Co34 O45 2.143 . S
Co34 O49 2.111 . S
Co34 O63 2.143 . S
O35 Co32 2.042 . S
O35 Co33 2.122 . S
O35 Co34 2.087 . S
O35 H36 0.980 . S
H36 O35 0.980 . S
O37 Co34 2.087 . S
O37 Co38 2.042 . S
O37 Co39 2.122 . S
O37 H40 0.980 . S
Co38 O37 2.042 . S
Co38 O46 2.286 . S
Co38 O47 2.069 . S
Co38 O48 2.015 . S
Co38 O51 2.264 . S
Co39 O37 2.122 . S
Co39 O50 1.976 . S
Co39 O51 2.327 . S
Co39 O52 2.073 . S
H40 O37 0.980 . S
O41 Co33 2.073 . S
O41 C56 1.245 . S
O42 Co32 2.264 . S
O42 Co33 2.327 . S
O42 C56 1.257 . S
O43 Co33 1.976 . S
O43 C55 1.251 . S
O44 Co34 2.111 . S
O44 C55 1.274 . S
O45 Co34 2.143 . S
O45 C58 1.246 . S
O46 Co38 2.286 . S
O46 C57 1.259 . S
O47 Co38 2.069 . S
O47 C57 1.289 . S
O48 Co38 2.015 . S
O48 C58 1.257 . S
O49 Co34 2.111 . S
O49 C59 1.274 . S
O50 Co39 1.976 . S
O50 C59 1.251 . S
O51 Co38 2.264 . S
O51 Co39 2.327 . S
O51 C60 1.257 . S
O52 Co39 2.073 . S
O52 C60 1.245 . S
C53 O61 1.259 . S
C53 O62 1.289 . S
C54 O63 1.246 . S
C54 O64 1.257 . S
C55 O43 1.251 . S
C55 O44 1.274 . S
C56 O41 1.245 . S
C56 O42 1.257 . S
C57 O46 1.259 . S
C57 O47 1.289 . S
C58 O45 1.246 . S
C58 O48 1.257 . S
C59 O49 1.274 . S
C59 O50 1.251 . S
C60 O51 1.257 . S
C60 O52 1.245 . S
O61 Co32 2.286 . S
O61 C53 1.259 . S
O62 Co32 2.069 . S
O62 C53 1.289 . S
O63 Co34 2.143 . S
O63 C54 1.246 . S
O64 Co32 2.015 . S
O64 C54 1.257 . S
H65 C71 0.930 . S
H66 C75 0.930 . S
H67 C80 0.929 . S
H68 C78 0.929 . S
H69 C73 0.929 . S
H70 C79 0.929 . S
C71 H65 0.930 . S
C71 C72 1.367 . S
C71 C79 1.378 . S
C72 C71 1.367 . S
C72 C80 1.433 . S
C73 H69 0.929 . S
C73 C75 1.378 . S
C73 C77 1.350 . S
C74 C77 1.463 . S
C74 C79 1.350 . S
C74 N82 1.427 . S
C75 H66 0.930 . S
C75 C73 1.378 . S
C75 C76 1.367 . S
C76 C75 1.367 . S
C76 C78 1.433 . S
C77 C73 1.350 . S
C77 C74 1.463 . S
C77 N81 1.427 . S
C78 H68 0.929 . S
C78 C76 1.433 . S
C78 N81 1.384 . S
C79 H70 0.929 . S
C79 C71 1.378 . S
C79 C74 1.350 . S
C80 H67 0.929 . S
C80 C72 1.433 . S
C80 N82 1.384 . S
N81 C77 1.427 . S
N81 C78 1.384 . S
N82 C74 1.427 . S
N82 C80 1.384 . S
H83 C89 0.930 . S
H84 C93 0.930 . S
H85 C98 0.929 . S
H86 C96 0.929 . S
H87 C91 0.929 . S
H88 C97 0.929 . S
C89 H83 0.930 . S
C89 C90 1.367 . S
C89 C97 1.378 . S
C90 C89 1.367 . S
C90 C98 1.433 . S
C91 H87 0.929 . S
C91 C93 1.378 . S
C91 C95 1.350 . S
C92 C95 1.463 . S
C92 C97 1.350 . S
C92 N100 1.427 . S
C93 H84 0.930 . S
C93 C91 1.378 . S
C93 C94 1.367 . S
C94 C93 1.367 . S
C94 C96 1.433 . S
C95 C91 1.350 . S
C95 C92 1.463 . S
C95 N99 1.427 . S
C96 H86 0.929 . S
C96 C94 1.433 . S
C96 N99 1.384 . S
C97 H88 0.929 . S
C97 C89 1.378 . S
C97 C92 1.350 . S
C98 H85 0.929 . S
C98 C90 1.433 . S
C98 N100 1.384 . S
N99 C95 1.427 . S
N99 C96 1.384 . S
N100 C92 1.427 . S
N100 C98 1.384 . S
H101 C107 0.930 . S
H102 C111 0.930 . S
H103 C116 0.929 . S
H104 C114 0.929 . S
H105 C109 0.929 . S
H106 C115 0.929 . S
C107 H101 0.930 . S
C107 C108 1.367 . S
C107 C115 1.378 . S
C108 C107 1.367 . S
C108 C116 1.433 . S
C109 H105 0.929 . S
C109 C111 1.378 . S
C109 C113 1.350 . S
C110 C113 1.463 . S
C110 C115 1.350 . S
C110 N118 1.427 . S
C111 H102 0.930 . S
C111 C109 1.378 . S
C111 C112 1.367 . S
C112 C111 1.367 . S
C112 C114 1.433 . S
C113 C109 1.350 . S
C113 C110 1.463 . S
C113 N117 1.427 . S
C114 H104 0.929 . S
C114 C112 1.433 . S
C114 N117 1.384 . S
C115 H106 0.929 . S
C115 C107 1.378 . S
C115 C110 1.350 . S
C116 H103 0.929 . S
C116 C108 1.433 . S
C116 N118 1.384 . S
N117 C113 1.427 . S
N117 C114 1.384 . S
N118 C110 1.427 . S
N118 C116 1.384 . S
H119 C125 0.930 . S
H120 C129 0.930 . S
H121 C134 0.929 . S
H122 C132 0.929 . S
H123 C127 0.929 . S
H124 C133 0.929 . S
C125 H119 0.930 . S
C125 C126 1.367 . S
C125 C133 1.378 . S
C126 C125 1.367 . S
C126 C134 1.433 . S
C127 H123 0.929 . S
C127 C129 1.378 . S
C127 C131 1.350 . S
C128 C131 1.463 . S
C128 C133 1.350 . S
C128 N136 1.427 . S
C129 H120 0.930 . S
C129 C127 1.378 . S
C129 C130 1.367 . S
C130 C129 1.367 . S
C130 C132 1.433 . S
C131 C127 1.350 . S
C131 C128 1.463 . S
C131 N135 1.427 . S
C132 H122 0.929 . S
C132 C130 1.433 . S
C132 N135 1.384 . S
C133 H124 0.929 . S
C133 C125 1.378 . S
C133 C128 1.350 . S
C134 H121 0.929 . S
C134 C126 1.433 . S
C134 N136 1.384 . S
N135 C131 1.427 . S
N135 C132 1.384 . S
N136 C128 1.427 . S
N136 C134 1.384 . S
H137 C143 0.930 . S
H138 C147 0.930 . S
H139 C152 0.929 . S
H140 C150 0.929 . S
H141 C145 0.929 . S
H142 C151 0.929 . S
C143 H137 0.930 . S
C143 C144 1.367 . S
C143 C151 1.378 . S
C144 C143 1.367 . S
C144 C152 1.433 . S
C145 H141 0.929 . S
C145 C147 1.378 . S
C145 C149 1.350 . S
C146 C149 1.463 . S
C146 C151 1.350 . S
C146 N154 1.427 . S
C147 H138 0.930 . S
C147 C145 1.378 . S
C147 C148 1.367 . S
C148 C147 1.367 . S
C148 C150 1.433 . S
C149 C145 1.350 . S
C149 C146 1.463 . S
C149 N153 1.427 . S
C150 H140 0.929 . S
C150 C148 1.433 . S
C150 N153 1.384 . S
C151 H142 0.929 . S
C151 C143 1.378 . S
C151 C146 1.350 . S
C152 H139 0.929 . S
C152 C144 1.433 . S
C152 N154 1.384 . S
N153 C149 1.427 . S
N153 C150 1.384 . S
N154 C146 1.427 . S
N154 C152 1.384 . S
H155 C161 0.930 . S
H156 C165 0.930 . S
H157 C170 0.929 . S
H158 C168 0.929 . S
H159 C163 0.929 . S
H160 C169 0.929 . S
C161 H155 0.930 . S
C161 C162 1.367 . S
C161 C169 1.378 . S
C162 C161 1.367 . S
C162 C170 1.433 . S
C163 H159 0.929 . S
C163 C165 1.378 . S
C163 C167 1.350 . S
C164 C167 1.463 . S
C164 C169 1.350 . S
C164 N172 1.427 . S
C165 H156 0.930 . S
C165 C163 1.378 . S
C165 C166 1.367 . S
C166 C165 1.367 . S
C166 C168 1.433 . S
C167 C163 1.350 . S
C167 C164 1.463 . S
C167 N171 1.427 . S
C168 H158 0.929 . S
C168 C166 1.433 . S
C168 N171 1.384 . S
C169 H160 0.929 . S
C169 C161 1.378 . S
C169 C164 1.350 . S
C170 H157 0.929 . S
C170 C162 1.433 . S
C170 N172 1.384 . S
N171 C167 1.427 . S
N171 C168 1.384 . S
N172 C164 1.427 . S
N172 C170 1.384 . S
H173 C179 0.930 . S
H174 C183 0.930 . S
H175 C188 0.929 . S
H176 C186 0.929 . S
H177 C181 0.929 . S
H178 C187 0.929 . S
C179 H173 0.930 . S
C179 C180 1.367 . S
C179 C187 1.378 . S
C180 C179 1.367 . S
C180 C188 1.433 . S
C181 H177 0.929 . S
C181 C183 1.378 . S
C181 C185 1.350 . S
C182 C185 1.463 . S
C182 C187 1.350 . S
C182 N190 1.427 . S
C183 H174 0.930 . S
C183 C181 1.378 . S
C183 C184 1.367 . S
C184 C183 1.367 . S
C184 C186 1.433 . S
C185 C181 1.350 . S
C185 C182 1.463 . S
C185 N189 1.427 . S
C186 H176 0.929 . S
C186 C184 1.433 . S
C186 N189 1.384 . S
C187 H178 0.929 . S
C187 C179 1.378 . S
C187 C182 1.350 . S
C188 H175 0.929 . S
C188 C180 1.433 . S
C188 N190 1.384 . S
N189 C185 1.427 . S
N189 C186 1.384 . S
N190 C182 1.427 . S
N190 C188 1.384 . S
H191 C197 0.930 . S
H192 C201 0.930 . S
H193 C206 0.929 . S
H194 C204 0.929 . S
H195 C199 0.929 . S
H196 C205 0.929 . S
C197 H191 0.930 . S
C197 C198 1.367 . S
C197 C205 1.378 . S
C198 C197 1.367 . S
C198 C206 1.433 . S
C199 H195 0.929 . S
C199 C201 1.378 . S
C199 C203 1.350 . S
C200 C203 1.463 . S
C200 C205 1.350 . S
C200 N208 1.427 . S
C201 H192 0.930 . S
C201 C199 1.378 . S
C201 C202 1.367 . S
C202 C201 1.367 . S
C202 C204 1.433 . S
C203 C199 1.350 . S
C203 C200 1.463 . S
C203 N207 1.427 . S
C204 H194 0.929 . S
C204 C202 1.433 . S
C204 N207 1.384 . S
C205 H196 0.929 . S
C205 C197 1.378 . S
C205 C200 1.350 . S
C206 H193 0.929 . S
C206 C198 1.433 . S
C206 N208 1.384 . S
N207 C203 1.427 . S
N207 C204 1.384 . S
N208 C200 1.427 . S
N208 C206 1.384 . S
C72 C23 1.454 . S
C76 C54 1.455 . S
C90 C24 1.583 . S
C94 C53 1.620 . S
C108 C8 1.449 . S
C112 C59 1.385 . S
C126 C22 1.460 . S
C130 C60 1.421 . S
C144 C17 1.588 . S
C148 C57 1.626 . S
C166 C55 1.390 . S
C162 C27 1.452 . S
C180 C30 1.466 . S
C184 C56 1.416 . S
C202 C58 1.459 . S
C198 C31 1.461 . S
