# Generated by pormake.
# Topology scu, (8,4)-cn, num edge types: 1
# Building blocks:
#     Node 0, Type 0, BuildingBlock: VETTIZ_charged_sbu_0, # of connection points: 8
#     Node 1, Type 1, BuildingBlock: ESEHIV_clean_sbu_0, # of connection points: 4
#     Node 2, Type 1, BuildingBlock: ESEHIV_clean_sbu_0, # of connection points: 4
#     Edge 3, Type (0, 1), None
#     Edge 4, Type (0, 1), None
#     Edge 5, Type (0, 1), None
#     Edge 6, Type (0, 1), None
#     Edge 7, Type (0, 1), None
#     Edge 8, Type (0, 1), None
#     Edge 9, Type (0, 1), None
#     Edge 10, Type (0, 1), None
# Relax obj value: 0.007
# Max RMSD: 0.097
# Mean RMSD: 0.081
data_MOF--net-scu--node1-VETTIZ_charged_sbu_0--node2-ESEHIV_clean_sbu_0--edge1-none
_symmetry_space_group_name_H-M    P1
_symmetry_Int_Tables_number       1
_symmetry_cell_setting            triclinic
loop_
_symmetry_equiv_pos_as_xyz
'x, y, z'
_cell_length_a     13.468613
_cell_length_b     13.468756
_cell_length_c     9.5996833
_cell_angle_alpha  95.096693
_cell_angle_beta   95.095793
_cell_angle_gamma 97.208163
loop_
_atom_site_label
_atom_site_type_symbol
_atom_site_fract_x
_atom_site_fract_y
_atom_site_fract_z
_atom_type_partial_charge
Fe0 Fe 0.04061 0.08348 0.35801 0.0
O1 O 0.04067 0.09469 0.15525 0.0
Fe2 Fe 0.07445 0.97153 0.03033 0.0
Fe3 Fe 0.92269 0.12329 0.03035 0.0
O4 O 0.04853 0.09031 0.15407 0.0
O5 O 0.95567 0.99746 0.9066 0.0
O6 O 0.95129 1.00531 0.90542 0.0
Fe7 Fe 0.96249 1.00538 0.70267 0.0
C8 C 0.81341 0.02287 0.25615 0.0
O9 O 0.02661 0.2316 0.35978 0.0
O10 O 0.90753 0.24572 0.17705 0.0
O11 O 0.11511 0.99753 0.70602 0.0
O12 O 0.16765 0.05967 0.92328 0.0
O13 O 0.20156 0.96823 0.17478 0.0
O14 O 0.1956 0.09501 0.35266 0.0
O15 O 0.02102 0.22191 0.93506 0.0
O16 O 0.98615 0.16202 0.70899 0.0
C17 C 0.24335 0.03406 0.27895 0.0
O18 O 0.95095 0.85039 0.70799 0.0
O19 O 0.07773 0.84442 0.88588 0.0
O20 O 0.88397 0.05981 0.3517 0.0
O21 O 0.82407 0.02495 0.12564 0.0
C22 C 0.96464 0.2804 0.29195 0.0
C23 C 0.0231 0.23258 0.80455 0.0
C24 C 0.76555 0.08132 0.76878 0.0
O25 O 0.80026 0.13845 0.88366 0.0
O26 O 0.81436 1.01938 0.70091 0.0
C27 C 0.18626 0.02572 0.80254 0.0
O28 O 0.98631 0.87833 0.13738 0.0
O29 O 0.04846 0.93086 0.35464 0.0
C30 C 1.0119 0.80264 0.7817 0.0
C31 C 1.02025 0.85971 0.25812 0.0
Cu32 Cu 1.00968 0.54453 0.51797 0.0
N33 N 0.07339 0.45899 0.64028 0.0
N34 N 0.0608 0.32357 0.76455 0.0
C35 C 0.02533 0.36552 0.65139 0.0
C36 C 0.13466 0.3928 0.83065 0.0
C37 C 0.14427 0.47473 0.75218 0.0
O38 O 0.92449 0.43844 0.39297 0.0
C39 C 0.02405 0.70057 0.72471 0.0
O40 O 0.11658 0.68021 0.72781 0.0
H41 H 0.95732 0.33259 0.5871 0.0
H42 H 0.1979 0.54153 0.77981 0.0
N43 N 0.06889 0.62797 0.38626 0.0
N44 N 0.0399 0.76526 0.27832 0.0
C45 C 0.06578 0.72881 0.40103 0.0
C46 C 0.05213 0.60474 0.24441 0.0
C47 C 0.03379 0.68783 0.17916 0.0
C48 C 0.98584 0.38806 0.33206 0.0
O49 O 0.0825 0.42166 0.35564 0.0
H50 H 0.07063 0.77352 0.50051 0.0
H51 H 0.03997 0.53094 0.18821 0.0
O52 O 0.95574 0.64458 0.64126 0.0
H53 H 0.17916 0.38455 0.92754 0.0
H54 H 1.01213 0.68971 0.06811 0.0
Cu55 Cu 0.50144 0.03624 0.5427 0.0
N56 N 0.41799 0.97703 0.67439 0.0
N57 N 0.28071 1.00604 0.78234 0.0
C58 C 0.31715 0.98018 0.65962 0.0
C59 C 0.35813 1.01211 0.8815 0.0
C60 C 0.44121 0.99374 0.81625 0.0
O61 O 0.4014 0.09018 0.41939 0.0
C62 C 0.65788 0.06016 0.72871 0.0
O63 O 0.62434 0.9635 0.70506 0.0
H64 H 0.27245 0.97535 0.56015 0.0
H65 H 0.515 1.00584 0.87246 0.0
N66 N 0.58701 0.97254 0.42042 0.0
N67 N 0.72243 0.98515 0.29615 0.0
C68 C 0.68047 1.02061 0.40931 0.0
C69 C 0.57128 0.90166 0.30852 0.0
C70 C 0.65321 0.91128 0.23005 0.0
C71 C 0.34539 1.02186 0.33595 0.0
O72 O 0.36579 0.92935 0.33277 0.0
H73 H 0.7134 0.08862 0.47361 0.0
H74 H 0.50448 0.84802 0.28089 0.0
O75 O 0.60751 0.12147 0.6677 0.0
H76 H 0.35625 0.03374 0.99255 0.0
H77 H 0.66147 0.86679 0.13316 0.0
loop_
_geom_bond_atom_site_label_1
_geom_bond_atom_site_label_2
_geom_bond_distance
_geom_bond_site_symmetry_2
_ccdc_geom_bond_type
Fe0 O1 1.886 1_455 S
Fe0 O4 1.715 1_545 S
Fe0 O9 2.077 . S
Fe0 O14 1.935 . S
Fe0 O20 2.077 1_455 S
Fe0 O29 1.935 1_445 S
O1 Fe0 1.886 1_655 S
O1 Fe3 1.711 1_554 S
Fe2 O4 1.886 . S
Fe2 O5 1.715 1_554 S
Fe2 O12 1.935 1_554 S
Fe2 O13 2.077 . S
Fe2 O19 1.935 1_554 S
Fe2 O28 2.077 . S
Fe3 O1 1.711 1_556 S
Fe3 O6 1.890 . S
Fe3 O10 1.932 1_556 S
Fe3 O15 2.082 . S
Fe3 O21 1.931 1_556 S
Fe3 O25 2.081 . S
O4 Fe0 1.715 1_565 S
O4 Fe2 1.886 . S
O5 Fe2 1.715 1_556 S
O5 Fe7 1.886 1_455 S
O6 Fe3 1.890 . S
O6 Fe7 1.715 1_545 S
Fe7 O5 1.886 1_655 S
Fe7 O6 1.715 1_565 S
Fe7 O11 2.077 1_655 S
Fe7 O16 1.935 1_665 S
Fe7 O18 2.077 . S
Fe7 O26 1.935 . S
C8 O20 1.381 . S
C8 O21 1.421 . S
O9 Fe0 2.077 . S
O9 C22 1.381 1_455 S
O10 Fe3 1.932 1_554 S
O10 C22 1.421 . S
O11 Fe7 2.077 1_455 S
O11 C27 1.381 . S
O12 Fe2 1.935 1_556 S
O12 C27 1.421 . S
O13 Fe2 2.077 . S
O13 C17 1.381 . S
O14 Fe0 1.935 . S
O14 C17 1.421 1_545 S
O15 Fe3 2.082 . S
O15 C23 1.381 . S
O16 Fe7 1.935 1_445 S
O16 C23 1.421 1_455 S
C17 O13 1.381 . S
C17 O14 1.421 1_565 S
O18 Fe7 2.077 . S
O18 C30 1.381 1_655 S
O19 Fe2 1.935 1_556 S
O19 C30 1.421 . S
O20 Fe0 2.077 1_655 S
O20 C8 1.381 . S
O21 Fe3 1.931 1_554 S
O21 C8 1.421 . S
C22 O9 1.381 1_655 S
C22 O10 1.421 . S
C23 O15 1.381 . S
C23 O16 1.421 1_655 S
C24 O25 1.381 . S
C24 O26 1.421 1_545 S
O25 Fe3 2.081 . S
O25 C24 1.381 . S
O26 Fe7 1.935 . S
O26 C24 1.421 1_565 S
C27 O11 1.381 . S
C27 O12 1.421 . S
O28 Fe2 2.077 . S
O28 C31 1.381 . S
O29 Fe0 1.935 1_665 S
O29 C31 1.421 1_655 S
C30 O18 1.381 1_455 S
C30 O19 1.421 . S
C31 O28 1.381 . S
C31 O29 1.421 1_455 S
Cu32 N33 1.999 . S
Cu32 O38 1.974 . S
Cu32 N43 1.985 . S
Cu32 O52 1.959 . S
N33 Cu32 1.999 . S
N33 C35 1.263 . S
N33 C37 1.389 . S
N34 C35 1.358 . S
N34 C36 1.400 . S
C35 N33 1.263 . S
C35 N34 1.358 . S
C35 H41 0.930 1_655 S
C36 N34 1.400 . S
C36 C37 1.351 . S
C36 H53 0.930 . S
C37 N33 1.389 . S
C37 C36 1.351 . S
C37 H42 0.930 . S
O38 Cu32 1.974 . S
O38 C48 1.282 1_655 S
C39 O40 1.261 . S
C39 O52 1.251 1_455 S
O40 C39 1.261 . S
H41 C35 0.930 1_455 S
H42 C37 0.930 . S
N43 Cu32 1.985 . S
N43 C45 1.335 . S
N43 C46 1.390 1_655 S
N44 C45 1.345 . S
N44 C47 1.336 1_655 S
C45 N43 1.335 . S
C45 N44 1.345 . S
C45 H50 0.930 . S
C46 N43 1.390 1_455 S
C46 C47 1.346 . S
C46 H51 0.930 . S
C47 N44 1.336 1_455 S
C47 C46 1.346 . S
C47 H54 0.929 . S
C48 O38 1.282 1_455 S
C48 O49 1.216 . S
O49 C48 1.216 . S
H50 C45 0.930 . S
H51 C46 0.930 . S
O52 Cu32 1.959 . S
O52 C39 1.251 1_655 S
H53 C36 0.930 . S
H54 C47 0.929 . S
Cu55 N56 1.999 . S
Cu55 O61 1.974 . S
Cu55 N66 1.985 . S
Cu55 O75 1.959 . S
N56 Cu55 1.999 . S
N56 C58 1.263 . S
N56 C60 1.389 . S
N57 C58 1.358 . S
N57 C59 1.400 . S
C58 N56 1.263 . S
C58 N57 1.358 . S
C58 H64 0.930 1_545 S
C59 N57 1.400 . S
C59 C60 1.351 . S
C59 H76 0.930 . S
C60 N56 1.389 . S
C60 C59 1.351 . S
C60 H65 0.930 . S
O61 Cu55 1.974 . S
O61 C71 1.282 1_545 S
C62 O63 1.261 . S
C62 O75 1.251 1_565 S
O63 C62 1.261 . S
H64 C58 0.930 1_565 S
H65 C60 0.930 . S
N66 Cu55 1.985 . S
N66 C68 1.335 . S
N66 C69 1.390 1_545 S
N67 C68 1.345 . S
N67 C70 1.336 1_545 S
C68 N66 1.335 . S
C68 N67 1.345 . S
C68 H73 0.930 . S
C69 N66 1.390 1_565 S
C69 C70 1.346 . S
C69 H74 0.930 . S
C70 N67 1.336 1_565 S
C70 C69 1.346 . S
C70 H77 0.929 . S
C71 O61 1.282 1_565 S
C71 O72 1.216 . S
O72 C71 1.216 . S
H73 C68 0.930 . S
H74 C69 0.930 . S
O75 Cu55 1.959 . S
O75 C62 1.251 1_545 S
H76 C59 0.930 . S
H77 C70 0.929 . S
C22 C48 1.624 1_655 S
C8 N67 1.247 . S
C31 N44 1.436 1_455 S
C17 C71 1.565 . S
C30 C39 1.586 . S
C27 N57 1.694 1_565 S
N34 C23 1.332 . S
C24 C62 1.667 1_545 S
