# Generated by pormake.
# Topology scu, (8,4)-cn, num edge types: 1
# Building blocks:
#     Node 0, Type 0, BuildingBlock: GIZVER_clean_sbu_0, # of connection points: 8
#     Node 1, Type 1, BuildingBlock: ESEHIV_clean_sbu_0, # of connection points: 4
#     Node 2, Type 1, BuildingBlock: ESEHIV_clean_sbu_0, # of connection points: 4
#     Edge 3, Type (0, 1), BuildingBlock: EZIPEK_clean_linker_0, # of connection points: 2
#     Edge 4, Type (0, 1), BuildingBlock: EZIPEK_clean_linker_0, # of connection points: 2
#     Edge 5, Type (0, 1), BuildingBlock: EZIPEK_clean_linker_0, # of connection points: 2
#     Edge 6, Type (0, 1), BuildingBlock: EZIPEK_clean_linker_0, # of connection points: 2
#     Edge 7, Type (0, 1), BuildingBlock: EZIPEK_clean_linker_0, # of connection points: 2
#     Edge 8, Type (0, 1), BuildingBlock: EZIPEK_clean_linker_0, # of connection points: 2
#     Edge 9, Type (0, 1), BuildingBlock: EZIPEK_clean_linker_0, # of connection points: 2
#     Edge 10, Type (0, 1), BuildingBlock: EZIPEK_clean_linker_0, # of connection points: 2
# Relax obj value: 0.029
# Max RMSD: 0.142
# Mean RMSD: 0.113
data_MOF--net-scu--node1-GIZVER_clean_sbu_0--node2-ESEHIV_clean_sbu_0--edge1-EZIPEK_clean_linker_0
_symmetry_space_group_name_H-M    P1
_symmetry_Int_Tables_number       1
_symmetry_cell_setting            triclinic
loop_
_symmetry_equiv_pos_as_xyz
'x, y, z'
_cell_length_a     19.075879
_cell_length_b     19.724701
_cell_length_c     16.566189
_cell_angle_alpha  107.17731
_cell_angle_beta   84.006595
_cell_angle_gamma 111.87096
loop_
_atom_site_label
_atom_site_type_symbol
_atom_site_fract_x
_atom_site_fract_y
_atom_site_fract_z
_atom_type_partial_charge
Co0 Co 0.02182 0.96643 0.20144 0.0
Co1 Co 0.12916 0.06764 0.13912 0.0
Co2 Co 0.98714 0.0348 1.04467 0.0
O3 O 0.04065 0.98634 0.0931 0.0
H4 H 0.0529 0.94676 0.05088 0.0
O5 O 0.9377 0.0868 0.99557 0.0
Co6 Co 0.98837 0.13006 0.90478 0.0
Co7 Co 0.86248 1.02512 0.918 0.0
H8 H 0.9187 0.12071 1.03861 0.0
O9 O 0.21419 0.05228 0.15452 0.0
O10 O 0.11844 0.05474 0.24725 0.0
O11 O 0.14185 0.1722 0.1456 0.0
O12 O 0.01837 0.13346 0.13996 0.0
O13 O 0.0808 0.06905 0.9781 0.0
O14 O 0.03346 0.17753 0.82703 0.0
O15 O 0.96588 0.21637 0.9383 0.0
O16 O 0.0252 0.04773 0.85832 0.0
O17 O 0.95048 0.9345 0.95128 0.0
O18 O 0.85386 0.92137 0.87463 0.0
O19 O 0.89391 0.07503 0.83421 0.0
O20 O 0.78563 0.05568 0.90814 0.0
C21 C 0.05019 0.90186 0.26114 0.0
C22 C 0.89675 1.00733 0.19121 0.0
C23 C 0.08176 0.18576 0.16558 0.0
C24 C 0.18686 0.05341 0.22991 0.0
C25 C 1.00803 0.22928 0.87295 0.0
C26 C 0.07804 0.04573 0.89779 0.0
C27 C 0.90085 0.89608 0.89198 0.0
C28 C 0.82805 0.08255 0.84971 0.0
O29 O 1.00872 0.94132 0.29902 0.0
O30 O 0.07327 0.90314 0.18437 0.0
O31 O 0.89602 0.99784 0.11161 0.0
O32 O 0.95812 1.02639 0.23168 0.0
Cu33 Cu 0.04126 0.56179 0.5566 0.0
N34 N 0.08776 0.54104 0.63601 0.0
N35 N 0.09428 0.47948 0.72707 0.0
C36 C 0.05689 0.47703 0.66096 0.0
C37 C 0.15125 0.54763 0.74458 0.0
C38 C 0.14736 0.58544 0.68794 0.0
O39 O 0.01403 0.46988 0.46097 0.0
C40 C 0.98394 0.65248 0.6807 0.0
O41 O 0.05546 0.67932 0.70194 0.0
H42 H 1.00604 0.43063 0.63329 0.0
H43 H 0.18312 0.64267 0.68772 0.0
N44 N 0.10145 0.64271 0.51361 0.0
N45 N 0.12521 0.72982 0.4437 0.0
C46 C 0.07273 0.66984 0.46463 0.0
C47 C 0.17515 0.68715 0.52382 0.0
C48 C 0.18998 0.74134 0.48062 0.0
C49 C 0.07104 0.45787 0.42055 0.0
O50 O 0.13896 0.5073 0.4446 0.0
H51 H 0.01392 0.64678 0.44581 0.0
H52 H 0.21507 0.6813 0.56054 0.0
O53 O 0.96031 0.59482 0.61636 0.0
H54 H 0.19147 0.56907 0.79588 0.0
H55 H 0.24346 0.78642 0.47781 0.0
Cu56 Cu 0.49253 0.04475 0.54499 0.0
N57 N 0.41957 0.99122 0.60956 0.0
N58 N 0.3238 0.98017 0.70025 0.0
C59 C 0.35649 1.00685 0.63445 0.0
C60 C 0.36667 0.94467 0.7166 0.0
C61 C 0.426 0.95161 0.66037 0.0
O62 O 0.43897 0.09448 0.50232 0.0
C63 C 0.61938 0.07242 0.63254 0.0
O64 O 0.59913 0.99902 0.59676 0.0
H65 H 0.33878 0.04342 0.61043 0.0
H66 H 0.47334 0.93442 0.66144 0.0
N67 N 0.52677 0.98307 0.45432 0.0
N68 N 0.61061 0.95488 0.35954 0.0
C69 C 0.59431 1.00996 0.41889 0.0
C70 C 0.49886 0.90785 0.41593 0.0
C71 C 0.5507 0.89025 0.35648 0.0
C72 C 0.43705 0.08987 0.42432 0.0
O73 O 0.49011 0.07377 0.37426 0.0
H74 H 0.63159 0.06891 0.43751 0.0
H75 H 0.44573 0.86863 0.43138 0.0
O76 O 0.58058 0.10849 0.6184 0.0
H77 H 0.35828 0.91993 0.76875 0.0
H78 H 0.54598 0.83443 0.3161 0.0
C79 C 0.04083 0.30024 0.2116 0.0
C80 C 0.08293 0.25921 0.22827 0.0
C81 C 0.10205 0.34044 0.37494 0.0
C82 C 0.06494 0.38447 0.35692 0.0
N83 N 1.00521 0.41236 0.25646 0.0
N84 N 0.17126 0.2568 0.32224 0.0
C85 C 0.03526 0.36561 0.2749 0.0
C86 C 0.11884 0.28415 0.30858 0.0
N87 N 1.0084 0.27812 0.13394 0.0
N88 N 0.11915 0.35056 0.45687 0.0
H89 H 0.18529 0.21378 0.27911 0.0
H90 H 0.20691 0.2827 0.3749 0.0
H91 H 0.10636 0.39013 0.50765 0.0
H92 H 0.13835 0.31426 0.47525 0.0
H93 H 0.96861 0.2977 0.12024 0.0
H94 H 0.02126 0.23892 0.08291 0.0
H95 H 0.98985 0.40729 0.19591 0.0
H96 H 0.99908 0.45938 0.30176 0.0
C97 C 0.77864 0.03677 0.23213 0.0
C98 C 0.82389 0.99492 0.23664 0.0
C99 C 0.72967 0.92967 0.32724 0.0
C100 C 0.68081 0.9648 0.31447 0.0
N101 N 0.65243 0.04057 0.24182 0.0
N102 N 0.83264 0.88709 0.27007 0.0
C103 C 0.70353 1.01517 0.26298 0.0
C104 C 0.79684 0.93731 0.27922 0.0
N105 N 0.80816 0.09865 0.20116 0.0
N106 N 0.71358 0.89159 0.3875 0.0
H107 H 0.87873 0.8873 0.23025 0.0
H108 H 0.81126 0.8401 0.2941 0.0
H109 H 0.66615 0.88722 0.426 0.0
H110 H 0.75125 0.87124 0.40487 0.0
H111 H 0.77987 0.13531 0.20351 0.0
H112 H 0.86393 0.11778 0.18096 0.0
H113 H 0.66357 0.07204 0.19827 0.0
H114 H 0.59631 1.02345 0.26144 0.0
C115 C 0.09906 0.89277 0.39245 0.0
C116 C 0.07326 0.85846 0.30698 0.0
C117 C 0.09508 0.74378 0.30944 0.0
C118 C 0.11185 0.77493 0.39678 0.0
N119 N 0.11513 0.87237 0.52545 0.0
N120 N 0.0326 0.74439 0.18996 0.0
C121 C 0.11001 0.84772 0.43937 0.0
C122 C 0.06797 0.78216 0.26662 0.0
N123 N 0.11576 0.9689 0.42847 0.0
N124 N 0.10564 0.6775 0.26748 0.0
H125 H 1.00762 0.76829 0.1585 0.0
H126 H 0.02079 0.6866 0.16168 0.0
H127 H 0.12518 0.6484 0.29782 0.0
H128 H 0.10168 0.65535 0.20203 0.0
H129 H 0.14282 0.99779 0.48684 0.0
H130 H 0.10991 1.00498 0.39704 0.0
H131 H 0.10607 0.92154 0.56122 0.0
H132 H 0.12099 0.83952 0.56146 0.0
C133 C 0.25878 0.11335 0.3692 0.0
C134 C 0.23611 0.0525 0.29384 0.0
C135 C 0.32894 1.005 0.32557 0.0
C136 C 0.36387 0.07549 0.38609 0.0
N137 N 0.36192 0.19838 0.46658 0.0
N138 N 0.25194 0.93877 0.20004 0.0
C139 C 0.32827 0.12991 0.40913 0.0
C140 C 0.27156 0.99756 0.27227 0.0
N141 N 0.21355 0.15397 0.4041 0.0
N142 N 0.34832 0.94396 0.3213 0.0
H143 H 0.2079 0.92794 0.16044 0.0
H144 H 0.28279 0.90325 0.17667 0.0
H145 H 0.3871 0.94614 0.36273 0.0
H146 H 0.31919 0.88916 0.2842 0.0
H147 H 0.22477 0.19486 0.46247 0.0
H148 H 0.16004 0.14001 0.38049 0.0
H149 H 0.34268 0.24341 0.47875 0.0
H150 H 0.41244 0.21209 0.4973 0.0
C151 C 0.91872 0.81699 0.74601 0.0
C152 C 0.90528 0.82377 0.83392 0.0
C153 C 0.92396 0.70331 0.81493 0.0
C154 C 0.93699 0.69687 0.72749 0.0
N155 N 0.92587 0.73529 0.60604 0.0
N156 N 0.87826 0.76537 0.94792 0.0
C157 C 0.92644 0.74926 0.69183 0.0
C158 C 0.90238 0.76412 0.86704 0.0
N159 N 0.93078 0.87745 0.71499 0.0
N160 N 0.93497 0.65252 0.84845 0.0
H161 H 0.86143 0.80876 0.98706 0.0
H162 H 0.86866 0.72061 0.97379 0.0
H163 H 0.94604 0.60494 0.81076 0.0
H164 H 0.93607 0.65894 0.91303 0.0
H165 H 0.95059 0.87887 0.65427 0.0
H166 H 0.9282 0.92935 0.75149 0.0
H167 H 0.91169 0.76789 0.57582 0.0
H168 H 0.93158 0.68626 0.5649 0.0
C169 C 0.1409 0.95309 0.81754 0.0
C170 C 0.14334 1.02918 0.85016 0.0
C171 C 0.27168 0.07352 0.79436 0.0
C172 C 0.26327 0.99717 0.75107 0.0
N173 N 0.18502 0.86492 0.71023 0.0
N174 N 0.2104 0.16284 0.86557 0.0
C175 C 0.19619 0.9372 0.75906 0.0
C176 C 0.20859 0.08981 0.83706 0.0
N177 N 0.08996 0.89671 0.84757 0.0
N178 N 0.34098 0.12979 0.79856 0.0
H179 H 0.16703 0.17702 0.90135 0.0
H180 H 0.25262 0.20843 0.84951 0.0
H181 H 0.38909 0.11905 0.77192 0.0
H182 H 0.35243 0.18555 0.83561 0.0
H183 H 0.08891 0.84106 0.82997 0.0
H184 H 0.05751 0.90872 0.89995 0.0
H185 H 0.13333 0.82039 0.7069 0.0
H186 H 0.22461 0.85147 0.66644 0.0
C187 C 0.10722 0.33555 0.82635 0.0
C188 C 0.03097 0.30273 0.85027 0.0
C189 C 1.0025 0.40065 0.811 0.0
C190 C 0.07426 0.42252 0.77231 0.0
N191 N 0.19123 0.40199 0.73212 0.0
N192 N 0.90363 0.30297 0.86041 0.0
C193 C 0.12585 0.38781 0.7773 0.0
C194 C 0.97789 0.33541 0.8421 0.0
N195 N 0.16251 0.31903 0.85352 0.0
N196 N 0.95892 0.44382 0.82038 0.0
H197 H 0.88361 0.25731 0.88612 0.0
H198 H 0.86121 0.31847 0.8451 0.0
H199 H 0.9769 0.4933 0.80096 0.0
H200 H 0.9091 0.43517 0.85505 0.0
H201 H 0.21981 0.34569 0.84321 0.0
H202 H 0.15148 0.28633 0.89581 0.0
H203 H 0.22741 0.37231 0.72715 0.0
H204 H 0.20532 0.43772 0.69279 0.0
C205 C 0.80935 0.10198 0.7076 0.0
C206 C 0.79426 0.11221 0.79568 0.0
C207 C 0.6767 0.13024 0.77773 0.0
C208 C 0.68622 0.10889 0.68923 0.0
N209 N 0.77013 0.10076 0.57163 0.0
N210 N 0.735 0.17349 0.91573 0.0
C211 C 0.75578 0.10362 0.65489 0.0
C212 C 0.73493 0.13899 0.83106 0.0
N213 N 0.87291 0.08874 0.67355 0.0
N214 N 0.6101 0.13681 0.81075 0.0
H215 H 0.77891 0.18367 0.95561 0.0
H216 H 0.69684 0.19972 0.94423 0.0
H217 H 0.56713 0.13306 0.7737 0.0
H218 H 0.59607 0.14222 0.87423 0.0
H219 H 0.87992 0.0669 0.60916 0.0
H220 H 0.92046 0.10234 0.70904 0.0
H221 H 0.82151 0.10237 0.54242 0.0
H222 H 0.73196 0.10389 0.53341 0.0
loop_
_geom_bond_atom_site_label_1
_geom_bond_atom_site_label_2
_geom_bond_distance
_geom_bond_site_symmetry_2
_ccdc_geom_bond_type
Co0 O3 2.042 1_565 S
Co0 O10 2.264 1_565 S
Co0 O29 2.286 1_455 S
Co0 O30 2.069 . S
Co0 O32 2.015 1_455 S
Co1 O3 2.122 . S
Co1 O9 2.073 . S
Co1 O10 2.327 . S
Co1 O11 1.976 . S
Co2 O3 2.087 . S
Co2 O5 2.087 1_454 S
Co2 O12 2.111 . S
Co2 O13 2.143 1_554 S
Co2 O17 2.111 1_444 S
Co2 O31 2.143 1_445 S
O3 Co0 2.042 1_545 S
O3 Co1 2.122 . S
O3 Co2 2.087 . S
O3 H4 0.980 1_545 S
H4 O3 0.980 1_565 S
O5 Co2 2.087 1_656 S
O5 Co6 2.042 1_655 S
O5 Co7 2.122 1_545 S
O5 H8 0.980 . S
Co6 O5 2.042 1_455 S
Co6 O14 2.286 . S
Co6 O15 2.069 1_455 S
Co6 O16 2.015 . S
Co6 O19 2.264 1_455 S
Co7 O5 2.122 1_565 S
Co7 O18 1.976 . S
Co7 O19 2.327 1_565 S
Co7 O20 2.073 . S
H8 O5 0.980 . S
O9 Co1 2.073 . S
O9 C24 1.245 . S
O10 Co0 2.264 1_545 S
O10 Co1 2.327 . S
O10 C24 1.257 . S
O11 Co1 1.976 . S
O11 C23 1.251 . S
O12 Co2 2.111 . S
O12 C23 1.274 . S
O13 Co2 2.143 1_556 S
O13 C26 1.246 . S
O14 Co6 2.286 . S
O14 C25 1.259 1_455 S
O15 Co6 2.069 1_655 S
O15 C25 1.289 . S
O16 Co6 2.015 . S
O16 C26 1.257 . S
O17 Co2 2.111 1_666 S
O17 C27 1.274 . S
O18 Co7 1.976 . S
O18 C27 1.251 . S
O19 Co6 2.264 1_655 S
O19 Co7 2.327 1_545 S
O19 C28 1.257 . S
O20 Co7 2.073 . S
O20 C28 1.245 1_565 S
C21 O29 1.259 1_455 S
C21 O30 1.289 . S
C22 O31 1.246 1_545 S
C22 O32 1.257 1_545 S
C23 O11 1.251 . S
C23 O12 1.274 . S
C24 O9 1.245 . S
C24 O10 1.257 . S
C25 O14 1.259 1_655 S
C25 O15 1.289 . S
C26 O13 1.246 . S
C26 O16 1.257 . S
C27 O17 1.274 . S
C27 O18 1.251 . S
C28 O19 1.257 . S
C28 O20 1.245 1_545 S
O29 Co0 2.286 1_655 S
O29 C21 1.259 1_655 S
O30 Co0 2.069 . S
O30 C21 1.289 . S
O31 Co2 2.143 1_665 S
O31 C22 1.246 1_565 S
O32 Co0 2.015 1_655 S
O32 C22 1.257 1_565 S
Cu33 N34 1.999 . S
Cu33 O39 1.974 . S
Cu33 N44 1.985 . S
Cu33 O53 1.959 . S
N34 Cu33 1.999 . S
N34 C36 1.263 . S
N34 C38 1.389 . S
N35 C36 1.358 . S
N35 C37 1.400 . S
C36 N34 1.263 . S
C36 N35 1.358 . S
C36 H42 0.930 1_655 S
C37 N35 1.400 . S
C37 C38 1.351 . S
C37 H54 0.930 . S
C38 N34 1.389 . S
C38 C37 1.351 . S
C38 H43 0.930 . S
O39 Cu33 1.974 . S
O39 C49 1.282 1_655 S
C40 O41 1.261 . S
C40 O53 1.251 1_455 S
O41 C40 1.261 . S
H42 C36 0.930 1_455 S
H43 C38 0.930 . S
N44 Cu33 1.985 . S
N44 C46 1.335 . S
N44 C47 1.390 1_655 S
N45 C46 1.345 . S
N45 C48 1.336 1_655 S
C46 N44 1.335 . S
C46 N45 1.345 . S
C46 H51 0.930 . S
C47 N44 1.390 1_455 S
C47 C48 1.346 . S
C47 H52 0.930 . S
C48 N45 1.336 1_455 S
C48 C47 1.346 . S
C48 H55 0.929 . S
C49 O39 1.282 1_455 S
C49 O50 1.216 . S
O50 C49 1.216 . S
H51 C46 0.930 . S
H52 C47 0.930 . S
O53 Cu33 1.959 . S
O53 C40 1.251 1_655 S
H54 C37 0.930 . S
H55 C48 0.929 . S
Cu56 N57 1.999 . S
Cu56 O62 1.974 . S
Cu56 N67 1.985 . S
Cu56 O76 1.959 . S
N57 Cu56 1.999 . S
N57 C59 1.263 . S
N57 C61 1.389 . S
N58 C59 1.358 . S
N58 C60 1.400 . S
C59 N57 1.263 . S
C59 N58 1.358 . S
C59 H65 0.930 . S
C60 N58 1.400 . S
C60 C61 1.351 . S
C60 H77 0.930 . S
C61 N57 1.389 . S
C61 C60 1.351 . S
C61 H66 0.930 . S
O62 Cu56 1.974 . S
O62 C72 1.282 1_545 S
C63 O64 1.258 1_545 S
C63 O76 1.258 . S
O64 C63 1.258 1_565 S
H65 C59 0.930 . S
H66 C61 0.930 . S
N67 Cu56 1.985 . S
N67 C69 1.335 . S
N67 C70 1.390 . S
N68 C69 1.345 . S
N68 C71 1.336 . S
C69 N67 1.335 . S
C69 N68 1.345 . S
C69 H74 0.930 . S
C70 N67 1.390 . S
C70 C71 1.346 . S
C70 H75 0.930 1_545 S
C71 N68 1.336 . S
C71 C70 1.346 . S
C71 H78 0.929 1_545 S
C72 O62 1.282 1_565 S
C72 O73 1.216 . S
O73 C72 1.216 . S
H74 C69 0.930 . S
H75 C70 0.930 1_565 S
O76 Cu56 1.959 . S
O76 C63 1.258 . S
H77 C60 0.930 . S
H78 C71 0.929 1_565 S
C79 C80 1.363 1_655 S
C79 C85 1.379 . S
C79 N87 1.356 . S
C80 C79 1.363 1_455 S
C80 C86 1.363 . S
C81 C82 1.363 . S
C81 C86 1.379 . S
C81 N88 1.356 . S
C82 C81 1.363 . S
C82 C85 1.363 1_455 S
N83 C85 1.356 . S
N83 H95 0.984 . S
N83 H96 0.985 . S
N84 C86 1.356 . S
N84 H89 0.984 . S
N84 H90 0.985 . S
C85 C79 1.379 . S
C85 C82 1.363 1_655 S
C85 N83 1.356 . S
C86 C80 1.363 . S
C86 C81 1.379 . S
C86 N84 1.356 . S
N87 C79 1.356 . S
N87 H93 0.984 . S
N87 H94 0.984 . S
N88 C81 1.356 . S
N88 H91 0.984 . S
N88 H92 0.985 . S
H89 N84 0.984 . S
H90 N84 0.985 . S
H91 N88 0.984 . S
H92 N88 0.985 . S
H93 N87 0.984 . S
H94 N87 0.984 . S
H95 N83 0.984 . S
H96 N83 0.985 . S
C97 C98 1.363 . S
C97 C103 1.379 . S
C97 N105 1.356 . S
C98 C97 1.363 . S
C98 C104 1.363 1_545 S
C99 C100 1.363 1_565 S
C99 C104 1.379 . S
C99 N106 1.356 . S
C100 C99 1.363 1_545 S
C100 C103 1.363 . S
N101 C103 1.356 . S
N101 H113 0.984 . S
N101 H114 0.985 . S
N102 C104 1.356 . S
N102 H107 0.984 . S
N102 H108 0.985 . S
C103 C97 1.379 . S
C103 C100 1.363 . S
C103 N101 1.356 . S
C104 C98 1.363 1_565 S
C104 C99 1.379 . S
C104 N102 1.356 . S
N105 C97 1.356 . S
N105 H111 0.984 . S
N105 H112 0.984 . S
N106 C99 1.356 . S
N106 H109 0.984 . S
N106 H110 0.985 . S
H107 N102 0.984 . S
H108 N102 0.985 . S
H109 N106 0.984 . S
H110 N106 0.985 . S
H111 N105 0.984 . S
H112 N105 0.984 . S
H113 N101 0.984 . S
H114 N101 0.985 . S
C115 C116 1.363 . S
C115 C121 1.379 . S
C115 N123 1.356 . S
C116 C115 1.363 . S
C116 C122 1.363 1_455 S
C117 C118 1.363 . S
C117 C122 1.379 . S
C117 N124 1.356 . S
C118 C117 1.363 . S
C118 C121 1.363 1_655 S
N119 C121 1.356 . S
N119 H131 0.984 . S
N119 H132 0.985 . S
N120 C122 1.356 . S
N120 H125 0.984 . S
N120 H126 0.985 . S
C121 C115 1.379 . S
C121 C118 1.363 1_455 S
C121 N119 1.356 . S
C122 C116 1.363 1_655 S
C122 C117 1.379 . S
C122 N120 1.356 . S
N123 C115 1.356 . S
N123 H129 0.984 . S
N123 H130 0.984 . S
N124 C117 1.356 . S
N124 H127 0.984 . S
N124 H128 0.985 . S
H125 N120 0.984 . S
H126 N120 0.985 . S
H127 N124 0.984 . S
H128 N124 0.985 . S
H129 N123 0.984 . S
H130 N123 0.984 . S
H131 N119 0.984 . S
H132 N119 0.985 . S
C133 C134 1.363 . S
C133 C139 1.379 . S
C133 N141 1.356 . S
C134 C133 1.363 . S
C134 C140 1.363 1_545 S
C135 C136 1.360 1_565 S
C135 C140 1.379 . S
C135 N142 1.356 . S
C136 C135 1.360 1_545 S
C136 C139 1.372 . S
N137 C139 1.356 . S
N137 H149 0.984 . S
N137 H150 0.985 . S
N138 C140 1.356 . S
N138 H143 0.984 . S
N138 H144 0.985 . S
C139 C133 1.379 . S
C139 C136 1.372 . S
C139 N137 1.356 . S
C140 C134 1.363 1_565 S
C140 C135 1.379 . S
C140 N138 1.356 . S
N141 C133 1.356 . S
N141 H147 0.984 . S
N141 H148 0.984 . S
N142 C135 1.356 . S
N142 H145 0.984 . S
N142 H146 0.985 . S
H143 N138 0.984 . S
H144 N138 0.985 . S
H145 N142 0.984 . S
H146 N142 0.985 . S
H147 N141 0.984 . S
H148 N141 0.984 . S
H149 N137 0.984 . S
H150 N137 0.985 . S
C151 C152 1.363 1_655 S
C151 C157 1.379 . S
C151 N159 1.356 . S
C152 C151 1.363 1_455 S
C152 C158 1.363 . S
C153 C154 1.363 . S
C153 C158 1.379 . S
C153 N160 1.356 . S
C154 C153 1.363 . S
C154 C157 1.363 1_455 S
N155 C157 1.356 . S
N155 H167 0.984 . S
N155 H168 0.985 . S
N156 C158 1.356 . S
N156 H161 0.984 . S
N156 H162 0.985 . S
C157 C151 1.379 . S
C157 C154 1.363 1_655 S
C157 N155 1.356 . S
C158 C152 1.363 . S
C158 C153 1.379 . S
C158 N156 1.356 . S
N159 C151 1.356 . S
N159 H165 0.984 . S
N159 H166 0.984 . S
N160 C153 1.356 . S
N160 H163 0.984 . S
N160 H164 0.985 . S
H161 N156 0.984 . S
H162 N156 0.985 . S
H163 N160 0.984 . S
H164 N160 0.985 . S
H165 N159 0.984 . S
H166 N159 0.984 . S
H167 N155 0.984 . S
H168 N155 0.985 . S
C169 C170 1.363 1_565 S
C169 C175 1.379 . S
C169 N177 1.356 . S
C170 C169 1.363 1_545 S
C170 C176 1.363 . S
C171 C172 1.363 . S
C171 C176 1.379 . S
C171 N178 1.356 . S
C172 C171 1.363 . S
C172 C175 1.363 1_545 S
N173 C175 1.356 . S
N173 H185 0.984 . S
N173 H186 0.985 . S
N174 C176 1.356 . S
N174 H179 0.984 . S
N174 H180 0.985 . S
C175 C169 1.379 . S
C175 C172 1.363 1_565 S
C175 N173 1.356 . S
C176 C170 1.363 . S
C176 C171 1.379 . S
C176 N174 1.356 . S
N177 C169 1.356 . S
N177 H183 0.984 . S
N177 H184 0.984 . S
N178 C171 1.356 . S
N178 H181 0.984 . S
N178 H182 0.985 . S
H179 N174 0.984 . S
H180 N174 0.985 . S
H181 N178 0.984 . S
H182 N178 0.985 . S
H183 N177 0.984 . S
H184 N177 0.984 . S
H185 N173 0.984 . S
H186 N173 0.985 . S
C187 C188 1.363 1_455 S
C187 C193 1.379 . S
C187 N195 1.356 . S
C188 C187 1.363 1_655 S
C188 C194 1.363 . S
C189 C190 1.363 . S
C189 C194 1.379 . S
C189 N196 1.356 . S
C190 C189 1.363 . S
C190 C193 1.363 1_655 S
N191 C193 1.356 . S
N191 H203 0.984 . S
N191 H204 0.985 . S
N192 C194 1.356 . S
N192 H197 0.984 . S
N192 H198 0.985 . S
C193 C187 1.379 . S
C193 C190 1.363 1_455 S
C193 N191 1.356 . S
C194 C188 1.363 . S
C194 C189 1.379 . S
C194 N192 1.356 . S
N195 C187 1.356 . S
N195 H201 0.984 . S
N195 H202 0.984 . S
N196 C189 1.356 . S
N196 H199 0.984 . S
N196 H200 0.985 . S
H197 N192 0.984 . S
H198 N192 0.985 . S
H199 N196 0.984 . S
H200 N196 0.985 . S
H201 N195 0.984 . S
H202 N195 0.984 . S
H203 N191 0.984 . S
H204 N191 0.985 . S
C205 C206 1.363 . S
C205 C211 1.379 . S
C205 N213 1.356 . S
C206 C205 1.363 . S
C206 C212 1.363 . S
C207 C208 1.363 . S
C207 C212 1.379 . S
C207 N214 1.356 . S
C208 C207 1.363 . S
C208 C211 1.363 . S
N209 C211 1.356 . S
N209 H221 0.984 . S
N209 H222 0.985 1_545 S
N210 C212 1.356 . S
N210 H215 0.984 . S
N210 H216 0.985 . S
C211 C205 1.379 . S
C211 C208 1.363 . S
C211 N209 1.356 . S
C212 C206 1.363 . S
C212 C207 1.379 . S
C212 N210 1.356 . S
N213 C205 1.356 . S
N213 H219 0.984 . S
N213 H220 0.984 . S
N214 C207 1.356 . S
N214 H217 0.984 1_545 S
N214 H218 0.985 . S
H215 N210 0.984 . S
H216 N210 0.985 . S
H217 N214 0.984 1_565 S
H218 N214 0.985 . S
H219 N213 0.984 . S
H220 N213 0.984 . S
H221 N209 0.984 . S
H222 N209 0.985 1_565 S
C80 C23 1.396 . S
C82 C49 1.484 . S
C98 C22 1.426 . S
C100 N68 1.413 . S
C116 C21 1.600 . S
C118 N45 1.572 . S
C134 C24 1.583 . S
C136 C72 1.617 1_545 S
C152 C27 1.478 1_455 S
C154 C40 1.533 . S
C170 C26 1.426 . S
C172 N58 1.450 . S
C190 N35 1.579 . S
C188 C25 1.611 . S
C206 C28 1.599 . S
C208 C63 1.679 . S
