# Generated by pormake.
# Topology scu, (8,4)-cn, num edge types: 1
# Building blocks:
#     Node 0, Type 0, BuildingBlock: GIZVER_clean_sbu_0, # of connection points: 8
#     Node 1, Type 1, BuildingBlock: NAWXER_clean_sbu_0, # of connection points: 4
#     Node 2, Type 1, BuildingBlock: NAWXER_clean_sbu_0, # of connection points: 4
#     Edge 3, Type (0, 1), BuildingBlock: AJUNOK_clean_linker_0, # of connection points: 2
#     Edge 4, Type (0, 1), BuildingBlock: AJUNOK_clean_linker_0, # of connection points: 2
#     Edge 5, Type (0, 1), BuildingBlock: AJUNOK_clean_linker_0, # of connection points: 2
#     Edge 6, Type (0, 1), BuildingBlock: AJUNOK_clean_linker_0, # of connection points: 2
#     Edge 7, Type (0, 1), BuildingBlock: AJUNOK_clean_linker_0, # of connection points: 2
#     Edge 8, Type (0, 1), BuildingBlock: AJUNOK_clean_linker_0, # of connection points: 2
#     Edge 9, Type (0, 1), BuildingBlock: AJUNOK_clean_linker_0, # of connection points: 2
#     Edge 10, Type (0, 1), BuildingBlock: AJUNOK_clean_linker_0, # of connection points: 2
# Relax obj value: 0.015
# Max RMSD: 0.070
# Mean RMSD: 0.056
data_MOF--net-scu--node1-GIZVER_clean_sbu_0--node2-NAWXER_clean_sbu_0--edge1-AJUNOK_clean_linker_0
_symmetry_space_group_name_H-M    P1
_symmetry_Int_Tables_number       1
_symmetry_cell_setting            triclinic
loop_
_symmetry_equiv_pos_as_xyz
'x, y, z'
_cell_length_a     17.540617
_cell_length_b     18.160074
_cell_length_c     16.18748
_cell_angle_alpha  101.81064
_cell_angle_beta   78.428085
_cell_angle_gamma 115.25879
loop_
_atom_site_label
_atom_site_type_symbol
_atom_site_fract_x
_atom_site_fract_y
_atom_site_fract_z
_atom_type_partial_charge
Co0 Co 0.03348 0.92872 0.20082 0.0
Co1 Co 0.14825 0.05235 0.12591 0.0
Co2 Co 0.98797 1.00701 0.04663 0.0
O3 O 0.05234 0.95995 0.09064 0.0
H4 H 0.07029 0.92357 0.04687 0.0
O5 O 0.93029 0.06102 1.00134 0.0
Co6 Co 0.98879 0.11091 0.89936 0.0
Co7 Co 0.84781 0.99466 0.93641 0.0
H8 H 0.91088 0.09684 1.04441 0.0
O9 O 0.24566 0.04279 0.1353 0.0
O10 O 0.13265 0.03213 0.23625 0.0
O11 O 0.15323 0.16301 0.13799 0.0
O12 O 0.01544 0.10748 0.13436 0.0
O13 O 0.09278 0.05769 0.9678 0.0
O14 O 0.04226 0.16363 0.81096 0.0
O15 O 0.96642 0.2028 0.92727 0.0
O16 O 0.02578 1.02475 0.85631 0.0
O17 O 0.95238 0.90188 0.96091 0.0
O18 O 0.83928 0.8847 0.90308 0.0
O19 O 0.88305 0.05168 0.84343 0.0
O20 O 0.76233 1.02568 0.93665 0.0
C21 C 0.07531 0.8622 0.25524 0.0
C22 C 0.8854 0.96303 0.20702 0.0
C23 C 0.08182 0.16772 0.1572 0.0
C24 C 0.21191 0.0416 0.21441 0.0
C25 C 0.01589 0.21833 0.85511 0.0
C26 C 0.08949 0.03262 0.88885 0.0
C27 C 0.89303 0.85892 0.9136 0.0
C28 C 0.80997 0.05774 0.86967 0.0
O29 O 0.02344 0.894 0.29976 0.0
O30 O 0.10158 0.87311 0.17561 0.0
O31 O 0.88563 0.9553 0.12672 0.0
O32 O 0.95187 0.97764 0.24024 0.0
C33 C 0.94534 0.60183 0.66174 0.0
C34 C 0.02033 0.41381 0.42493 0.0
O35 O 0.02424 0.61559 0.64443 0.0
Zn36 Zn 0.10823 0.57197 0.55862 0.0
O37 O 0.89227 0.54441 0.61626 0.0
Zn38 Zn 0.97403 0.50473 0.54095 0.0
O39 O 0.01446 0.46274 0.6299 0.0
O40 O 0.15164 0.53461 0.63758 0.0
O41 O 0.94509 0.40942 0.45136 0.0
O42 O 0.08244 0.471 0.46034 0.0
O43 O 0.17553 0.66636 0.49479 0.0
O44 O 0.04283 0.60125 0.46665 0.0
C45 C 0.08136 0.47762 0.6619 0.0
C46 C 0.11702 0.65785 0.45336 0.0
C47 C 0.62199 0.10975 0.65614 0.0
C48 C 0.4311 0.07643 0.45611 0.0
O49 O 0.57338 0.03511 0.6333 0.0
Zn50 Zn 0.47658 0.96664 0.55361 0.0
O51 O 0.61622 0.16827 0.62965 0.0
Zn52 Zn 0.52698 0.09868 0.55861 0.0
O53 O 0.42027 0.0486 0.64925 0.0
O54 O 0.37561 0.9134 0.63151 0.0
O55 O 0.48113 0.14449 0.492 0.0
O56 O 0.4262 1.00858 0.4729 0.0
O57 O 0.53222 0.90435 0.4734 0.0
O58 O 0.59197 0.03769 0.4638 0.0
C59 C 0.36767 0.9786 0.67038 0.0
C60 C 0.58912 0.96506 0.43845 0.0
C61 C 0.99116 0.24179 0.23793 0.0
C62 C 0.07105 0.23651 0.21967 0.0
C63 C 0.97513 0.29915 0.30378 0.0
C64 C 0.03832 0.35398 0.35425 0.0
H65 H 0.9396 0.20008 0.20212 0.0
H66 H 0.91249 0.30001 0.31545 0.0
S67 S 0.25855 0.36587 0.3333 0.0
N68 N 0.21419 0.29193 0.2578 0.0
N69 N 0.18471 0.39932 0.38097 0.0
C70 C 0.11904 0.3503 0.33581 0.0
C71 C 0.13528 0.29192 0.26873 0.0
C72 C 0.77996 0.91917 0.33524 0.0
C73 C 0.80704 0.96021 0.26303 0.0
C74 C 0.70545 0.91593 0.38916 0.0
C75 C 0.65717 0.95543 0.3735 0.0
H76 H 0.81661 0.88943 0.3501 0.0
H77 H 0.68767 0.88563 0.44541 0.0
S78 S 0.70077 0.07082 0.19319 0.0
N79 N 0.77864 0.03933 0.17782 0.0
N80 N 0.64066 0.03591 0.28094 0.0
C81 C 0.68318 0.99598 0.30127 0.0
C82 C 0.75765 0.99766 0.24547 0.0
C83 C 0.14075 0.84745 0.37138 0.0
C84 C 0.10334 0.81376 0.29561 0.0
C85 C 0.15524 0.79821 0.41797 0.0
C86 C 0.1294 0.71331 0.39199 0.0
H87 H 0.15617 0.91157 0.39626 0.0
H88 H 0.18092 0.82547 0.47753 0.0
S89 S 0.03612 0.59745 0.19424 0.0
N90 N 0.04906 0.69273 0.19232 0.0
N91 N 0.07153 0.59929 0.28215 0.0
C92 C 0.09663 0.68026 0.31379 0.0
C93 C 0.08456 0.73074 0.2651 0.0
C94 C 0.3188 1.00856 0.26089 0.0
C95 C 0.26482 0.05042 0.27878 0.0
C96 C 0.37324 1.01853 0.31853 0.0
C97 C 0.37773 0.07286 0.39469 0.0
H98 H 0.31816 0.96695 0.20229 0.0
H99 H 0.41254 0.98374 0.3032 0.0
S100 S 0.25004 0.19745 0.47093 0.0
N101 N 0.21824 0.14751 0.37822 0.0
N102 N 0.32332 0.16857 0.48565 0.0
C103 C 0.32482 0.11584 0.41311 0.0
C104 C 0.26747 0.10389 0.35536 0.0
C105 C 0.9629 0.76052 0.85755 0.0
C106 C 0.89459 0.78228 0.85942 0.0
C107 C 0.97551 0.69887 0.79609 0.0
C108 C 0.9202 0.65563 0.7339 0.0
H109 H 1.00994 0.79422 0.90091 0.0
H110 H 0.03139 0.68736 0.7954 0.0
S111 S 0.72415 0.67924 0.71838 0.0
N112 N 0.76475 0.74815 0.79916 0.0
N113 N 0.78938 0.63238 0.68369 0.0
C114 C 0.848 0.67191 0.73884 0.0
C115 C 0.83504 0.73516 0.80148 0.0
C116 C 0.24024 0.04857 0.85993 0.0
C117 C 0.15733 1.00912 0.83738 0.0
C118 C 0.3077 0.0336 0.8082 0.0
C119 C 0.29416 0.97654 0.73382 0.0
H120 H 0.25398 0.09449 0.91563 0.0
H121 H 0.37155 0.06935 0.82465 0.0
S122 S 0.08784 0.85019 0.65177 0.0
N123 N 0.06454 0.90675 0.73838 0.0
N124 N 0.19121 0.87575 0.64356 0.0
C125 C 0.21086 0.93246 0.71369 0.0
C126 C 0.14241 0.94959 0.76483 0.0
C127 C 0.98057 0.32946 0.82549 0.0
C128 C 0.03989 0.29511 0.81916 0.0
C129 C 0.99706 0.39238 0.77786 0.0
C130 C 0.07404 0.42426 0.72363 0.0
H131 H 0.91905 0.30419 0.86312 0.0
H132 H 0.94766 0.41407 0.78093 0.0
S133 S 0.2536 0.36092 0.69191 0.0
N134 N 0.18127 0.30168 0.75962 0.0
N135 N 0.21228 0.42072 0.67153 0.0
C136 C 0.13605 0.39426 0.72134 0.0
C137 C 0.11884 0.32933 0.76865 0.0
C138 C 0.80057 0.08996 0.72974 0.0
C139 C 0.77505 0.09177 0.81799 0.0
C140 C 0.75531 0.10482 0.67731 0.0
C141 C 0.68477 0.12406 0.71174 0.0
H142 H 0.85149 0.07082 0.70013 0.0
H143 H 0.7718 0.09544 0.60891 0.0
S144 S 0.60102 0.15016 0.9394 0.0
N145 N 0.68119 0.12481 0.93831 0.0
N146 N 0.59689 0.15267 0.83902 0.0
C147 C 0.66347 0.13339 0.80011 0.0
C148 C 0.70869 0.1175 0.85354 0.0
loop_
_geom_bond_atom_site_label_1
_geom_bond_atom_site_label_2
_geom_bond_distance
_geom_bond_site_symmetry_2
_ccdc_geom_bond_type
Co0 O3 2.043 . S
Co0 O10 2.265 1_565 S
Co0 O29 2.286 1_455 S
Co0 O30 2.070 . S
Co0 O32 2.014 1_455 S
Co1 O3 2.122 1_545 S
Co1 O9 2.073 . S
Co1 O10 2.327 . S
Co1 O11 1.976 . S
Co2 O3 2.088 1_545 S
Co2 O5 2.086 1_454 S
Co2 O12 2.124 . S
Co2 O13 2.155 1_554 S
Co2 O17 2.099 1_444 S
Co2 O31 2.132 1_445 S
O3 Co0 2.043 . S
O3 Co1 2.122 1_565 S
O3 Co2 2.088 1_565 S
O3 H4 0.980 . S
H4 O3 0.980 . S
O5 Co2 2.086 1_656 S
O5 Co6 2.042 1_655 S
O5 Co7 2.122 1_545 S
O5 H8 0.980 . S
Co6 O5 2.042 1_455 S
Co6 O14 2.286 . S
Co6 O15 2.069 1_455 S
Co6 O16 2.015 . S
Co6 O19 2.264 1_445 S
Co7 O5 2.122 1_565 S
Co7 O18 1.976 . S
Co7 O19 2.327 . S
Co7 O20 2.073 . S
H8 O5 0.980 . S
O9 Co1 2.073 . S
O9 C24 1.245 1_545 S
O10 Co0 2.265 1_545 S
O10 Co1 2.327 . S
O10 C24 1.257 1_545 S
O11 Co1 1.976 . S
O11 C23 1.251 . S
O12 Co2 2.124 . S
O12 C23 1.274 . S
O13 Co2 2.155 1_556 S
O13 C26 1.246 . S
O14 Co6 2.286 . S
O14 C25 1.259 1_455 S
O15 Co6 2.069 1_655 S
O15 C25 1.289 . S
O16 Co6 2.015 . S
O16 C26 1.257 . S
O17 Co2 2.099 1_666 S
O17 C27 1.274 . S
O18 Co7 1.976 . S
O18 C27 1.251 . S
O19 Co6 2.264 1_665 S
O19 Co7 2.327 . S
O19 C28 1.257 1_565 S
O20 Co7 2.073 . S
O20 C28 1.245 1_565 S
C21 O29 1.259 1_455 S
C21 O30 1.289 . S
C22 O31 1.246 . S
C22 O32 1.257 . S
C23 O11 1.251 . S
C23 O12 1.274 . S
C24 O9 1.245 1_565 S
C24 O10 1.257 1_565 S
C25 O14 1.259 1_655 S
C25 O15 1.289 . S
C26 O13 1.246 . S
C26 O16 1.257 . S
C27 O17 1.274 . S
C27 O18 1.251 . S
C28 O19 1.257 1_545 S
C28 O20 1.245 1_545 S
O29 Co0 2.286 1_655 S
O29 C21 1.259 1_655 S
O30 Co0 2.070 . S
O30 C21 1.289 . S
O31 Co2 2.132 1_665 S
O31 C22 1.246 . S
O32 Co0 2.014 1_655 S
O32 C22 1.257 . S
C33 O35 1.247 . S
C33 O37 1.258 1_455 S
C34 O41 1.237 1_455 S
C34 O42 1.265 . S
O35 C33 1.247 . S
O35 Zn36 2.028 . S
Zn36 O35 2.028 . S
Zn36 O40 2.035 . S
Zn36 O42 2.035 . S
Zn36 O43 2.028 . S
O37 C33 1.258 1_655 S
O37 Zn38 2.035 . S
Zn38 O37 2.035 . S
Zn38 O39 2.028 . S
Zn38 O41 2.028 . S
Zn38 O44 2.035 . S
O39 Zn38 2.028 . S
O39 C45 1.236 1_655 S
O40 Zn36 2.035 . S
O40 C45 1.265 . S
O41 C34 1.237 1_655 S
O41 Zn38 2.028 . S
O42 C34 1.265 . S
O42 Zn36 2.035 . S
O43 Zn36 2.028 . S
O43 C46 1.247 . S
O44 Zn38 2.035 . S
O44 C46 1.258 1_655 S
C45 O39 1.236 1_455 S
C45 O40 1.265 . S
C46 O43 1.247 . S
C46 O44 1.258 1_455 S
C47 O49 1.241 1_545 S
C47 O51 1.269 . S
C48 O55 1.247 . S
C48 O56 1.258 1_545 S
O49 C47 1.241 1_565 S
O49 Zn50 2.028 . S
Zn50 O49 2.028 . S
Zn50 O54 2.035 . S
Zn50 O56 2.035 . S
Zn50 O57 2.028 . S
O51 C47 1.269 . S
O51 Zn52 2.035 . S
Zn52 O51 2.035 . S
Zn52 O53 2.028 . S
Zn52 O55 2.028 . S
Zn52 O58 2.035 . S
O53 Zn52 2.028 . S
O53 C59 1.247 . S
O54 Zn50 2.035 . S
O54 C59 1.258 1_565 S
O55 C48 1.247 . S
O55 Zn52 2.028 . S
O56 C48 1.258 1_565 S
O56 Zn50 2.035 . S
O57 Zn50 2.028 . S
O57 C60 1.239 1_565 S
O58 Zn52 2.035 . S
O58 C60 1.268 . S
C59 O53 1.247 . S
C59 O54 1.258 1_545 S
C60 O57 1.239 1_545 S
C60 O58 1.268 . S
C61 C62 1.369 1_655 S
C61 C63 1.419 . S
C61 H65 0.930 . S
C62 C61 1.369 1_455 S
C62 C71 1.429 . S
C63 C61 1.419 . S
C63 C64 1.363 1_655 S
C63 H66 0.929 . S
C64 C63 1.363 1_455 S
C64 C70 1.428 . S
H65 C61 0.930 . S
H66 C63 0.929 . S
S67 N68 1.613 . S
S67 N69 1.610 . S
N68 S67 1.613 . S
N68 C71 1.350 . S
N69 S67 1.610 . S
N69 C70 1.351 . S
C70 C64 1.428 . S
C70 N69 1.351 . S
C70 C71 1.434 . S
C71 C62 1.429 . S
C71 N68 1.350 . S
C71 C70 1.434 . S
C72 C73 1.369 . S
C72 C74 1.419 . S
C72 H76 0.930 . S
C73 C72 1.369 . S
C73 C82 1.429 1_565 S
C74 C72 1.419 . S
C74 C75 1.364 . S
C74 H77 0.929 . S
C75 C74 1.364 . S
C75 C81 1.427 1_565 S
H76 C72 0.930 . S
H77 C74 0.929 . S
S78 N79 1.613 . S
S78 N80 1.610 . S
N79 S78 1.613 . S
N79 C82 1.350 . S
N80 S78 1.610 . S
N80 C81 1.351 . S
C81 C75 1.427 1_545 S
C81 N80 1.351 . S
C81 C82 1.434 . S
C82 C73 1.429 1_545 S
C82 N79 1.350 . S
C82 C81 1.434 . S
C83 C84 1.369 . S
C83 C85 1.419 . S
C83 H87 0.930 . S
C84 C83 1.369 . S
C84 C93 1.429 1_455 S
C85 C83 1.419 . S
C85 C86 1.363 . S
C85 H88 0.929 . S
C86 C85 1.363 . S
C86 C92 1.428 1_455 S
H87 C83 0.930 . S
H88 C85 0.929 . S
S89 N90 1.613 . S
S89 N91 1.610 . S
N90 S89 1.613 . S
N90 C93 1.350 . S
N91 S89 1.610 . S
N91 C92 1.351 . S
C92 C86 1.428 1_655 S
C92 N91 1.351 . S
C92 C93 1.434 . S
C93 C84 1.429 1_655 S
C93 N90 1.350 . S
C93 C92 1.434 . S
C94 C95 1.369 . S
C94 C96 1.419 . S
C94 H98 0.930 . S
C95 C94 1.369 . S
C95 C104 1.429 1_565 S
C96 C94 1.419 . S
C96 C97 1.363 . S
C96 H99 0.929 . S
C97 C96 1.363 . S
C97 C103 1.428 1_565 S
H98 C94 0.930 . S
H99 C96 0.929 . S
S100 N101 1.613 . S
S100 N102 1.610 . S
N101 S100 1.613 . S
N101 C104 1.350 . S
N102 S100 1.610 . S
N102 C103 1.351 . S
C103 C97 1.428 1_545 S
C103 N102 1.351 . S
C103 C104 1.434 . S
C104 C95 1.429 1_545 S
C104 N101 1.350 . S
C104 C103 1.434 . S
C105 C106 1.369 1_455 S
C105 C107 1.419 . S
C105 H109 0.930 . S
C106 C105 1.369 1_655 S
C106 C115 1.429 . S
C107 C105 1.419 . S
C107 C108 1.363 1_455 S
C107 H110 0.929 . S
C108 C107 1.363 1_655 S
C108 C114 1.429 . S
H109 C105 0.930 . S
H110 C107 0.929 . S
S111 N112 1.613 . S
S111 N113 1.610 . S
N112 S111 1.613 . S
N112 C115 1.350 . S
N113 S111 1.610 . S
N113 C114 1.351 . S
C114 C108 1.429 . S
C114 N113 1.351 . S
C114 C115 1.434 . S
C115 C106 1.429 . S
C115 N112 1.350 . S
C115 C114 1.434 . S
C116 C117 1.369 . S
C116 C118 1.419 . S
C116 H120 0.930 . S
C117 C116 1.369 . S
C117 C126 1.429 1_545 S
C118 C116 1.419 . S
C118 C119 1.363 . S
C118 H121 0.929 . S
C119 C118 1.363 . S
C119 C125 1.428 1_545 S
H120 C116 0.930 . S
H121 C118 0.929 . S
S122 N123 1.613 . S
S122 N124 1.610 . S
N123 S122 1.613 . S
N123 C126 1.350 . S
N124 S122 1.610 . S
N124 C125 1.351 . S
C125 C119 1.428 1_565 S
C125 N124 1.351 . S
C125 C126 1.434 . S
C126 C117 1.429 1_565 S
C126 N123 1.350 . S
C126 C125 1.434 . S
C127 C128 1.369 . S
C127 C129 1.419 . S
C127 H131 0.930 . S
C128 C127 1.369 . S
C128 C137 1.429 1_655 S
C129 C127 1.419 . S
C129 C130 1.363 . S
C129 H132 0.929 . S
C130 C129 1.363 . S
C130 C136 1.428 1_655 S
H131 C127 0.930 . S
H132 C129 0.929 . S
S133 N134 1.613 . S
S133 N135 1.610 . S
N134 S133 1.613 . S
N134 C137 1.350 . S
N135 S133 1.610 . S
N135 C136 1.351 . S
C136 C130 1.428 1_455 S
C136 N135 1.351 . S
C136 C137 1.434 . S
C137 C128 1.429 1_455 S
C137 N134 1.350 . S
C137 C136 1.434 . S
C138 C139 1.369 . S
C138 C140 1.419 . S
C138 H142 0.930 . S
C139 C138 1.369 . S
C139 C148 1.429 1_545 S
C140 C138 1.419 . S
C140 C141 1.363 . S
C140 H143 0.929 . S
C141 C140 1.363 . S
C141 C147 1.428 1_545 S
H142 C138 0.930 . S
H143 C140 0.929 . S
S144 N145 1.613 . S
S144 N146 1.610 . S
N145 S144 1.613 . S
N145 C148 1.350 . S
N146 S144 1.610 . S
N146 C147 1.351 . S
C147 C141 1.428 1_565 S
C147 N146 1.351 . S
C147 C148 1.434 . S
C148 C139 1.429 1_565 S
C148 N145 1.350 . S
C148 C147 1.434 . S
C62 C23 1.338 . S
C64 C34 1.428 . S
C73 C22 1.454 . S
C75 C60 1.496 1_565 S
C84 C21 1.634 . S
C86 C46 1.648 . S
C95 C24 1.468 . S
C97 C48 1.542 1_565 S
C106 C27 1.344 . S
C108 C33 1.423 1_655 S
C117 C26 1.450 . S
C119 C59 1.499 . S
C130 C45 1.653 1_655 S
C128 C25 1.633 . S
C139 C28 1.469 . S
C141 C47 1.537 . S
