# Generated by pormake.
# Topology pth, (4,4)-cn, num edge types: 1
# Building blocks:
#     Node 0, Type 0, BuildingBlock: TATPOV_clean_sbu_0, # of connection points: 4
#     Node 1, Type 0, BuildingBlock: TATPOV_clean_sbu_0, # of connection points: 4
#     Node 2, Type 0, BuildingBlock: TATPOV_clean_sbu_0, # of connection points: 4
#     Node 3, Type 1, BuildingBlock: NAWXER_clean_sbu_0, # of connection points: 4
#     Node 4, Type 1, BuildingBlock: NAWXER_clean_sbu_0, # of connection points: 4
#     Node 5, Type 1, BuildingBlock: NAWXER_clean_sbu_0, # of connection points: 4
#     Edge 6, Type (0, 1), None
#     Edge 7, Type (0, 1), None
#     Edge 8, Type (0, 1), None
#     Edge 9, Type (0, 1), None
#     Edge 10, Type (0, 1), None
#     Edge 11, Type (0, 1), None
#     Edge 12, Type (0, 1), None
#     Edge 13, Type (0, 1), None
#     Edge 14, Type (0, 1), None
#     Edge 15, Type (0, 1), None
#     Edge 16, Type (0, 1), None
#     Edge 17, Type (0, 1), None
# Relax obj value: 0.051
# Max RMSD: 0.177
# Mean RMSD: 0.098
data_MOF--net-pth--node1-TATPOV_clean_sbu_0--node2-NAWXER_clean_sbu_0--edge1-none
_symmetry_space_group_name_H-M    P1
_symmetry_Int_Tables_number       1
_symmetry_cell_setting            triclinic
loop_
_symmetry_equiv_pos_as_xyz
'x, y, z'
_cell_length_a     9.9803356
_cell_length_b     10.206822
_cell_length_c     26.201894
_cell_angle_alpha  93.440278
_cell_angle_beta   91.307611
_cell_angle_gamma 119.0873
loop_
_atom_site_label
_atom_site_type_symbol
_atom_site_fract_x
_atom_site_fract_y
_atom_site_fract_z
_atom_type_partial_charge
Zn0 Zn 0.15288 0.92674 0.01808 0.0
Zn1 Zn 0.0568 0.06765 0.06567 0.0
O2 O 0.10849 0.94498 0.11696 0.0
O3 O 0.15488 0.79084 0.06757 0.0
O4 O 0.0133 0.20759 0.1129 0.0
O5 O 0.35973 0.07654 0.00369 0.0
O6 O 0.2461 0.21065 0.02188 0.0
C7 C 0.14454 0.84069 0.11158 0.0
C8 C 0.85221 0.87135 -0.02069 0.0
O9 O 0.85111 0.93397 0.02252 0.0
O10 O 0.97518 0.87288 0.96702 0.0
C11 C 0.89665 0.20333 0.13385 0.0
O12 O 0.75963 0.08525 0.12544 0.0
C13 C 0.35959 0.19952 0.00398 0.0
Zn14 Zn 0.34795 0.21641 0.36344 0.0
Zn15 Zn 0.081 0.12297 0.39885 0.0
O16 O 0.23931 0.14312 0.45639 0.0
O17 O 0.47106 0.27744 0.42973 0.0
O18 O 0.89972 0.09234 0.44012 0.0
O19 O 0.35993 0.37596 0.32227 0.0
O20 O 0.13137 0.30158 0.35256 0.0
C21 C 0.38485 0.21364 0.46506 0.0
C22 C 0.09883 0.90099 0.33002 0.0
O23 O 1.00455 0.92769 0.35383 0.0
O24 O 0.2402 -0.00032 0.33161 0.0
C25 C 0.79362 0.96526 0.452 0.0
O26 O 0.79073 0.84074 0.43435 0.0
C27 C 0.23998 0.38711 0.32503 0.0
Zn28 Zn 0.18734 0.85909 0.76548 0.0
Zn29 Zn 1.01166 0.95353 0.72945 0.0
O30 O 0.1474 0.93879 0.67211 0.0
O31 O 0.25286 0.80874 0.69955 0.0
O32 O 0.8576 -0.01625 0.68779 0.0
O33 O 0.04182 0.68961 0.803 0.0
O34 O 0.88659 0.76829 0.77351 0.0
C35 C 0.2255 0.87172 0.66401 0.0
C36 C 0.24948 0.17508 0.80028 0.0
O37 O 0.12843 0.15003 0.77519 0.0
O38 O 0.29048 0.07475 0.79927 0.0
C39 C 0.87996 0.11169 0.67559 0.0
O40 O 1.00491 0.23482 0.69293 0.0
C41 C 0.91012 0.67752 0.79937 0.0
C42 C 0.05135 0.76275 0.29703 0.0
C43 C 0.92505 0.33034 0.17062 0.0
O44 O 0.15903 0.75643 0.27402 0.0
Zn45 Zn 0.20607 0.63005 0.22119 0.0
O46 O 0.91244 0.65776 0.28808 0.0
Zn47 Zn 0.95924 0.53572 0.23647 0.0
O48 O 0.08142 0.46388 0.28355 0.0
O49 O 0.32413 0.56889 0.26319 0.0
O50 O 0.8209 0.3415 0.19494 0.0
O51 O 0.06462 0.4313 0.17886 0.0
O52 O 0.28108 0.76425 0.16699 0.0
O53 O 0.03478 0.68563 0.17809 0.0
C54 C 0.21686 0.48255 0.29049 0.0
C55 C 0.15687 0.76538 0.15537 0.0
C56 C 0.774 0.11823 0.6375 0.0
C57 C 0.45311 0.18235 0.50899 0.0
O58 O 0.67319 -0.00474 0.61346 0.0
Zn59 Zn 0.49658 0.9208 0.55471 0.0
O60 O 0.78499 0.24274 0.62648 0.0
Zn61 Zn 0.61871 0.16074 0.57337 0.0
O62 O 0.42238 0.03871 0.61606 0.0
O63 O 0.31975 0.79589 0.5921 0.0
O64 O 0.56426 0.28799 0.53647 0.0
O65 O 0.41904 0.04537 0.5127 0.0
O66 O 0.57319 0.83728 0.50119 0.0
O67 O 0.71244 0.08432 0.5143 0.0
C68 C 0.31922 0.9023 0.61987 0.0
C69 C 0.68613 0.9608 0.49014 0.0
C70 C 0.47094 0.31206 0.97268 0.0
C71 C 0.79333 0.57831 0.83265 0.0
O72 O 0.43343 0.40008 0.95154 0.0
Zn73 Zn 0.50377 0.54823 0.89248 0.0
O74 O 0.58587 0.29999 0.9579 0.0
Zn75 Zn 0.64655 0.43229 0.9035 0.0
O76 O 0.72728 0.63216 0.94251 0.0
O77 O 0.59681 0.75285 0.93396 0.0
O78 O 0.81318 0.48519 0.85795 0.0
O79 O 0.68356 0.60497 0.84224 0.0
O80 O 0.32086 0.42487 0.84161 0.0
O81 O 0.46314 0.31777 0.85421 0.0
C82 C 0.71276 0.74683 0.9531 0.0
C83 C 0.34706 0.31483 0.83254 0.0
loop_
_geom_bond_atom_site_label_1
_geom_bond_atom_site_label_2
_geom_bond_distance
_geom_bond_site_symmetry_2
_ccdc_geom_bond_type
Zn0 O3 2.031 . S
Zn0 O5 2.049 1_564 S
Zn0 O10 2.067 1_454 S
Zn1 O2 1.962 . S
Zn1 O4 1.986 . S
Zn1 O6 1.996 . S
Zn1 O9 1.943 1_445 S
O2 Zn1 1.962 . S
O2 C7 1.254 1_545 S
O3 Zn0 2.031 . S
O3 C7 1.269 . S
O4 Zn1 1.986 . S
O4 C11 1.262 . S
O5 Zn0 2.049 1_546 S
O5 C13 1.260 1_556 S
O6 Zn1 1.996 . S
O6 C13 1.257 . S
C7 O2 1.254 1_565 S
C7 O3 1.269 . S
C8 O9 1.249 . S
C8 O10 1.270 1_554 S
O9 Zn1 1.943 1_665 S
O9 C8 1.249 . S
O10 Zn0 2.067 1_656 S
O10 C8 1.270 1_556 S
C11 O4 1.262 . S
C11 O12 1.232 1_455 S
O12 C11 1.232 1_655 S
C13 O5 1.260 1_554 S
C13 O6 1.257 . S
Zn14 O17 2.031 . S
Zn14 O19 2.049 . S
Zn14 O24 2.064 1_545 S
Zn15 O16 1.962 . S
Zn15 O18 1.986 1_455 S
Zn15 O20 1.996 . S
Zn15 O23 1.943 1_445 S
O16 Zn15 1.962 . S
O16 C21 1.254 . S
O17 Zn14 2.031 . S
O17 C21 1.269 . S
O18 Zn15 1.986 1_655 S
O18 C25 1.262 . S
O19 Zn14 2.049 . S
O19 C27 1.260 . S
O20 Zn15 1.996 . S
O20 C27 1.257 . S
C21 O16 1.254 . S
C21 O17 1.269 . S
C22 O23 1.249 1_455 S
C22 O24 1.272 . S
O23 Zn15 1.943 1_665 S
O23 C22 1.249 1_655 S
O24 Zn14 2.064 1_565 S
O24 C22 1.272 . S
C25 O18 1.262 . S
C25 O26 1.232 1_545 S
O26 C25 1.232 1_565 S
C27 O19 1.260 . S
C27 O20 1.257 . S
Zn28 O31 2.031 1_565 S
Zn28 O33 2.049 . S
Zn28 O38 2.067 1_565 S
Zn29 O30 1.962 1_545 S
Zn29 O32 1.986 1_445 S
Zn29 O34 1.996 1_445 S
Zn29 O37 1.943 . S
O30 Zn29 1.962 1_565 S
O30 C35 1.254 . S
O31 Zn28 2.031 1_545 S
O31 C35 1.269 1_545 S
O32 Zn29 1.986 1_665 S
O32 C39 1.262 1_565 S
O33 Zn28 2.049 . S
O33 C41 1.260 1_455 S
O34 Zn29 1.996 1_665 S
O34 C41 1.257 . S
C35 O30 1.254 . S
C35 O31 1.269 1_565 S
C36 O37 1.249 . S
C36 O38 1.270 . S
O37 Zn29 1.943 . S
O37 C36 1.249 . S
O38 Zn28 2.067 1_545 S
O38 C36 1.270 . S
C39 O32 1.262 1_545 S
C39 O40 1.232 . S
O40 C39 1.232 . S
C41 O33 1.260 1_655 S
C41 O34 1.257 . S
C42 O44 1.247 . S
C42 O46 1.258 1_455 S
C43 O50 1.247 1_455 S
C43 O51 1.258 . S
O44 C42 1.247 . S
O44 Zn45 2.028 . S
Zn45 O44 2.028 . S
Zn45 O49 2.035 . S
Zn45 O51 2.035 . S
Zn45 O52 2.028 . S
O46 C42 1.258 1_655 S
O46 Zn47 2.035 . S
Zn47 O46 2.035 . S
Zn47 O48 2.028 . S
Zn47 O50 2.028 . S
Zn47 O53 2.035 . S
O48 Zn47 2.028 . S
O48 C54 1.247 1_655 S
O49 Zn45 2.035 . S
O49 C54 1.258 . S
O50 C43 1.247 1_655 S
O50 Zn47 2.028 . S
O51 C43 1.258 . S
O51 Zn45 2.035 . S
O52 Zn45 2.028 . S
O52 C55 1.247 . S
O53 Zn47 2.035 . S
O53 C55 1.258 1_655 S
C54 O48 1.247 1_455 S
C54 O49 1.258 . S
C55 O52 1.247 . S
C55 O53 1.258 1_455 S
C56 O58 1.247 1_545 S
C56 O60 1.258 . S
C57 O64 1.247 . S
C57 O65 1.258 1_545 S
O58 C56 1.247 1_565 S
O58 Zn59 2.028 . S
Zn59 O58 2.028 . S
Zn59 O63 2.035 . S
Zn59 O65 2.035 . S
Zn59 O66 2.028 . S
O60 C56 1.258 . S
O60 Zn61 2.035 . S
Zn61 O60 2.035 . S
Zn61 O62 2.028 . S
Zn61 O64 2.028 . S
Zn61 O67 2.035 . S
O62 Zn61 2.028 . S
O62 C68 1.247 . S
O63 Zn59 2.035 . S
O63 C68 1.258 1_565 S
O64 C57 1.247 . S
O64 Zn61 2.028 . S
O65 C57 1.258 1_565 S
O65 Zn59 2.035 . S
O66 Zn59 2.028 . S
O66 C69 1.247 1_565 S
O67 Zn61 2.035 . S
O67 C69 1.258 . S
C68 O62 1.247 . S
C68 O63 1.258 1_545 S
C69 O66 1.247 1_545 S
C69 O67 1.258 . S
C70 O72 1.247 . S
C70 O74 1.258 . S
C71 O78 1.247 . S
C71 O79 1.258 . S
O72 C70 1.247 . S
O72 Zn73 2.028 . S
Zn73 O72 2.028 . S
Zn73 O77 2.035 . S
Zn73 O79 2.035 . S
Zn73 O80 2.028 . S
O74 C70 1.258 . S
O74 Zn75 2.035 . S
Zn75 O74 2.035 . S
Zn75 O76 2.028 . S
Zn75 O78 2.028 . S
Zn75 O81 2.035 . S
O76 Zn75 2.028 . S
O76 C82 1.247 . S
O77 Zn73 2.035 . S
O77 C82 1.258 . S
O78 C71 1.247 . S
O78 Zn75 2.028 . S
O79 C71 1.258 . S
O79 Zn73 2.035 . S
O80 Zn73 2.028 . S
O80 C83 1.247 . S
O81 Zn75 2.035 . S
O81 C83 1.258 . S
C82 O76 1.247 . S
C82 O77 1.258 . S
C83 O80 1.247 . S
C83 O81 1.258 . S
C43 C11 1.351 . S
C25 C69 1.469 . S
C41 C71 1.504 . S
C7 C55 1.500 . S
C57 C21 1.583 . S
C36 C83 1.452 . S
C56 C39 1.445 . S
C8 C82 1.440 1_554 S
C42 C22 1.519 . S
C68 C35 1.566 1_545 S
C70 C13 1.471 1_556 S
C27 C54 1.680 . S
