# Generated by pormake.
# Topology anh, (6,3)-cn, num edge types: 1
# Building blocks:
#     Node 0, Type 0, BuildingBlock: BETGAK_clean_sbu_0, # of connection points: 6
#     Node 1, Type 0, BuildingBlock: BETGAK_clean_sbu_0, # of connection points: 6
#     Node 2, Type 0, BuildingBlock: BETGAK_clean_sbu_0, # of connection points: 6
#     Node 3, Type 1, BuildingBlock: OLANEW_clean_sbu_2, # of connection points: 3
#     Node 4, Type 1, BuildingBlock: OLANEW_clean_sbu_2, # of connection points: 3
#     Node 5, Type 1, BuildingBlock: OLANEW_clean_sbu_2, # of connection points: 3
#     Node 6, Type 1, BuildingBlock: OLANEW_clean_sbu_2, # of connection points: 3
#     Node 7, Type 1, BuildingBlock: OLANEW_clean_sbu_2, # of connection points: 3
#     Node 8, Type 1, BuildingBlock: OLANEW_clean_sbu_2, # of connection points: 3
#     Edge 9, Type (0, 1), None
#     Edge 10, Type (0, 1), None
#     Edge 11, Type (0, 1), None
#     Edge 12, Type (0, 1), None
#     Edge 13, Type (0, 1), None
#     Edge 14, Type (0, 1), None
#     Edge 15, Type (0, 1), None
#     Edge 16, Type (0, 1), None
#     Edge 17, Type (0, 1), None
#     Edge 18, Type (0, 1), None
#     Edge 19, Type (0, 1), None
#     Edge 20, Type (0, 1), None
#     Edge 21, Type (0, 1), None
#     Edge 22, Type (0, 1), None
#     Edge 23, Type (0, 1), None
#     Edge 24, Type (0, 1), None
#     Edge 25, Type (0, 1), None
#     Edge 26, Type (0, 1), None
# Relax obj value: 0.347
# Max RMSD: 0.258
# Mean RMSD: 0.149
data_MOF--net-anh--node1-BETGAK_clean_sbu_0--node2-OLANEW_clean_sbu_2--edge1-none
_symmetry_space_group_name_H-M    P1
_symmetry_Int_Tables_number       1
_symmetry_cell_setting            triclinic
loop_
_symmetry_equiv_pos_as_xyz
'x, y, z'
_cell_length_a     19.732972
_cell_length_b     24.728476
_cell_length_c     22.204438
_cell_angle_alpha  91.593323
_cell_angle_beta   88.21644
_cell_angle_gamma 133.00834
loop_
_atom_site_label
_atom_site_type_symbol
_atom_site_fract_x
_atom_site_fract_y
_atom_site_fract_z
_atom_type_partial_charge
La0 La 0.13511 0.49111 0.20285 0.0
La1 La 1.01276 0.53107 0.21175 0.0
C2 C 0.25808 0.49244 0.16717 0.0
C3 C 0.35981 0.55163 0.16813 0.0
C4 C 0.40392 0.60779 0.21235 0.0
C5 C 0.5004 0.6656 0.21175 0.0
C6 C 0.55416 0.66774 0.16725 0.0
C7 C 0.50984 0.6127 0.12227 0.0
C8 C 0.41335 0.55485 0.12274 0.0
C9 C 0.08688 0.50133 0.31122 0.0
C10 C 0.23001 0.66145 0.20505 0.0
C11 C 0.91198 0.54816 0.26003 0.0
C12 C 0.81195 0.50287 0.25907 0.0
C13 C 0.77271 0.52657 0.28927 0.0
C14 C 0.67709 0.48329 0.28746 0.0
C15 C 0.61977 0.41562 0.25565 0.0
C16 C 0.65953 0.39126 0.22701 0.0
C17 C 0.7549 0.43473 0.22847 0.0
C18 C 1.02173 0.49332 0.10032 0.0
C19 C 0.92078 0.36336 0.20915 0.0
O20 O 0.21611 0.46714 0.2199 0.0
O21 O 0.21728 0.50388 0.13148 0.0
O22 O 0.10082 0.45793 0.29803 0.0
O23 O 0.10712 0.53973 0.26603 0.0
O24 O 0.23905 0.61283 0.20363 0.0
O25 O 0.14894 0.64249 0.20829 0.0
O26 O 0.95643 0.57843 0.20846 0.0
O27 O 0.93651 0.5174 0.28717 0.0
O28 O 0.97373 0.51026 0.11469 0.0
O29 O 0.05865 0.49892 0.14772 0.0
O30 O 0.91493 0.41185 0.22659 0.0
O31 O 0.99862 0.38218 0.18946 0.0
H32 H 0.36381 0.60709 0.24732 0.0
H33 H 0.53303 0.70794 0.24653 0.0
H34 H 0.55004 0.61542 0.08622 0.0
H35 H 0.38055 0.51313 0.0874 0.0
H36 H 0.81606 0.5789 0.31343 0.0
H37 H 0.6485 0.50371 0.30963 0.0
H38 H 0.61752 0.3398 0.20165 0.0
H39 H 0.78431 0.41566 0.20494 0.0
La40 La 0.6132 0.96135 0.49394 0.0
La41 La 0.52986 0.025 0.47965 0.0
C42 C 0.65485 0.89223 0.53127 0.0
C43 C 0.61177 0.82668 0.5683 0.0
C44 C 0.58821 0.76396 0.54116 0.0
C45 C 0.55498 0.70375 0.576 0.0
C46 C 0.54556 0.7054 0.63887 0.0
C47 C 0.56595 0.76705 0.66585 0.0
C48 C 0.59885 0.82723 0.63093 0.0
C49 C 0.60681 -0.01097 0.38146 0.0
C50 C 0.39603 0.85729 0.48587 0.0
C51 C 0.49012 0.0991 0.45408 0.0
C52 C 0.52294 0.16766 0.48241 0.0
C53 C 0.47765 0.19205 0.47284 0.0
C54 C 0.50431 0.25364 0.50458 0.0
C55 C 0.57663 0.29153 0.54633 0.0
C56 C 0.62274 0.26745 0.55482 0.0
C57 C 0.59583 0.20592 0.52339 0.0
C58 C 0.53834 -0.00172 0.59261 0.0
C59 C 0.75065 0.13082 0.47762 0.0
O60 O 0.61865 0.88019 0.47847 0.0
O61 O 0.67705 0.94985 0.55892 0.0
O62 O 0.67286 -0.00386 0.40279 0.0
O63 O 0.54591 0.96439 0.42185 0.0
O64 O 0.46421 0.86891 0.51238 0.0
O65 O 0.41128 0.91084 0.45717 0.0
O66 O 0.43908 0.04169 0.48932 0.0
O67 O 0.55303 0.10442 0.4248 0.0
O68 O 0.47652 -0.00347 0.57223 0.0
O69 O 0.5988 0.0231 0.55197 0.0
O70 O 0.6779 0.1217 0.46682 0.0
O71 O 0.7428 0.07629 0.49544 0.0
H72 H 0.59775 0.76221 0.49305 0.0
H73 H 0.53973 0.65701 0.55378 0.0
H74 H 0.55885 0.76968 0.71409 0.0
H75 H 0.6162 0.87471 0.65333 0.0
H76 H 0.42059 0.16264 0.44184 0.0
H77 H 0.46746 0.27088 0.49703 0.0
H78 H 0.67845 0.29513 0.58671 0.0
H79 H 0.63067 0.18718 0.53214 0.0
La80 La 0.56575 0.54327 0.94018 0.0
La81 La 0.43908 0.37645 0.94004 0.0
C82 C 0.65688 0.67572 0.91089 0.0
C83 C 0.6446 0.72333 0.8864 0.0
C84 C 0.72355 0.79611 0.87074 0.0
C85 C 0.71518 0.8436 0.84836 0.0
C86 C 0.62741 0.81928 0.84118 0.0
C87 C 0.54804 0.74577 0.8563 0.0
C88 C 0.55657 0.69815 0.87876 0.0
C89 C 0.50832 0.48057 0.04646 0.0
C90 C 0.34713 0.44059 0.93112 0.0
C91 C 0.35606 0.2441 0.96157 0.0
C92 C 0.37127 0.19537 0.94216 0.0
C93 C 0.29639 0.12423 0.92026 0.0
C94 C 0.31044 0.07999 0.89512 0.0
C95 C 0.39982 0.10591 0.89151 0.0
C96 C 0.47435 0.17614 0.91569 0.0
C97 C 0.46031 0.22062 0.94051 0.0
C98 C 0.50023 0.43888 0.83267 0.0
C99 C 0.6589 0.48198 0.96111 0.0
O100 O 0.62389 0.64997 0.96525 0.0
O101 O 0.64111 0.62588 0.87423 0.0
O102 O 0.58916 0.54586 0.03662 0.0
O103 O 0.46208 0.4555 0.99934 0.0
O104 O 0.4306 0.50419 0.91595 0.0
O105 O 0.33563 0.38479 0.95155 0.0
O106 O 0.33264 0.26373 0.91875 0.0
O107 O 0.41727 0.29955 0.99762 0.0
O108 O 0.42282 0.37208 0.84248 0.0
O109 O 0.54405 0.4637 0.88095 0.0
O110 O 0.57431 0.41471 0.96387 0.0
O111 O 0.67342 0.54078 0.94679 0.0
H112 H 0.79209 0.81653 0.87624 0.0
H113 H 0.77775 0.89969 0.83725 0.0
H114 H 0.47937 0.72517 0.85123 0.0
H115 H 0.4947 0.64203 0.8904 0.0
H116 H 0.22724 0.10371 0.92088 0.0
H117 H 0.25142 0.02616 0.87709 0.0
H118 H 0.54408 0.19787 0.91354 0.0
H119 H 0.51955 0.27547 0.95677 0.0
O120 O 0.66603 0.0941 0.32582 0.0
Cd121 Cd 0.67597 0.13782 0.22603 0.0
O122 O 0.58033 -0.01132 0.27751 0.0
Cd123 Cd 0.49626 0.87099 0.26369 0.0
O124 O 0.38598 0.7572 0.23396 0.0
C125 C 0.31333 0.73946 0.21409 0.0
O126 O 0.30872 0.78988 0.21154 0.0
C127 C 0.61649 0.0249 0.32637 0.0
C128 C 0.83628 0.28506 0.21345 0.0
O129 O 0.76074 0.2658 0.23311 0.0
O130 O 0.83635 0.23459 0.19896 0.0
O131 O 0.57174 0.4293 0.75127 0.0
Cd132 Cd 0.64963 0.47086 0.65247 0.0
O133 O 0.56241 0.51217 0.7449 0.0
Cd134 Cd 0.51964 0.56971 0.77458 0.0
O135 O 0.52652 0.65169 0.73316 0.0
C136 C 0.52199 0.64581 0.6761 0.0
O137 O 0.50724 0.59013 0.65034 0.0
C138 C 0.5468 0.4612 0.77394 0.0
C139 C 0.60245 0.35444 0.58225 0.0
O140 O 0.67075 0.39069 0.6184 0.0
O141 O 0.5563 0.37341 0.5791 0.0
O142 O 0.08828 0.46457 0.03179 0.0
Cd143 Cd 0.11731 0.42683 0.93644 0.0
O144 O 0.97674 0.45566 0.99791 0.0
Cd145 Cd 0.8643 0.45696 1.00098 0.0
O146 O 0.73497 0.44007 0.9878 0.0
C147 C 0.74108 0.49281 0.97219 0.0
O148 O 0.73064 0.43701 0.98815 0.0
C149 C 1.02902 0.47019 0.04066 0.0
C150 C 0.26799 0.43549 0.93245 0.0
O151 O 0.27862 0.49061 0.91753 0.0
O152 O 0.18737 0.37685 0.95062 0.0
O153 O 0.11962 0.58983 0.38052 0.0
Cd154 Cd 0.12949 0.64076 0.47868 0.0
O155 O 0.0537 0.48193 0.41733 0.0
Cd156 Cd 0.9775 0.36419 0.41647 0.0
O157 O 0.84943 0.25149 0.43827 0.0
C158 C 0.84279 0.20397 0.46647 0.0
O159 O 0.9178 0.2197 0.48333 0.0
C160 C 0.08601 0.52454 0.3724 0.0
C161 C 0.30333 0.78289 0.48544 0.0
O162 O 0.2891 0.72799 0.5062 0.0
O163 O 0.23518 0.77106 0.46296 0.0
O164 O 0.59828 -0.01509 0.67702 0.0
Cd165 Cd 0.60715 -0.02679 0.78589 0.0
O166 O 0.51119 0.01029 0.69355 0.0
Cd167 Cd 0.5161 0.027 0.79123 0.0
O168 O 0.49541 0.08376 0.85595 0.0
C169 C 0.41553 0.06212 0.85855 0.0
O170 O 0.34892 0.00416 0.82627 0.0
C171 C 0.55072 -0.00206 0.6574 0.0
C172 C 0.61956 0.87129 0.81981 0.0
O173 O 0.5405 0.85109 0.81429 0.0
O174 O 0.69209 0.93868 0.80778 0.0
O175 O 0.39753 0.37477 0.10646 0.0
Cd176 Cd 0.35204 0.31576 0.20428 0.0
O177 O 0.51744 0.47616 0.15207 0.0
Cd178 Cd 0.63612 0.59545 0.15257 0.0
O179 O 0.70543 0.71158 0.16017 0.0
C180 C 0.65608 0.72709 0.16759 0.0
O181 O 0.69638 0.79585 0.17827 0.0
C182 C 0.47344 0.44213 0.10404 0.0
C183 C 0.52155 0.37517 0.24579 0.0
O184 O 0.47049 0.31506 0.21477 0.0
O185 O 0.48839 0.40348 0.26193 0.0
loop_
_geom_bond_atom_site_label_1
_geom_bond_atom_site_label_2
_geom_bond_distance
_geom_bond_site_symmetry_2
_ccdc_geom_bond_type
La0 C2 2.928 . S
La0 O20 2.521 . S
La0 O21 2.628 . S
La0 O22 2.554 . S
La0 O23 2.757 . S
La0 O24 2.470 . S
La0 O29 2.482 . S
La0 O31 2.503 1_455 S
La1 C11 2.928 . S
La1 O23 2.482 1_655 S
La1 O25 2.503 1_655 S
La1 O26 2.521 . S
La1 O27 2.628 . S
La1 O28 2.554 . S
La1 O29 2.757 1_655 S
La1 O30 2.470 . S
C2 La0 2.928 . S
C2 C3 1.503 . S
C2 O20 1.261 . S
C2 O21 1.243 . S
C3 C2 1.503 . S
C3 C4 1.394 . S
C3 C8 1.373 . S
C4 C3 1.394 . S
C4 C5 1.380 . S
C4 H32 0.930 . S
C5 C4 1.380 . S
C5 C6 1.376 . S
C5 H33 0.930 . S
C6 C5 1.376 . S
C6 C7 1.370 . S
C7 C6 1.370 . S
C7 C8 1.396 . S
C7 H34 0.929 . S
C8 C3 1.373 . S
C8 C7 1.396 . S
C8 H35 0.929 . S
C9 O22 1.240 . S
C9 O23 1.289 . S
C10 O24 1.258 . S
C10 O25 1.256 . S
C11 La1 2.928 . S
C11 C12 1.503 . S
C11 O26 1.261 . S
C11 O27 1.243 . S
C12 C11 1.503 . S
C12 C13 1.394 . S
C12 C17 1.373 . S
C13 C12 1.394 . S
C13 C14 1.380 . S
C13 H36 0.930 . S
C14 C13 1.380 . S
C14 C15 1.376 . S
C14 H37 0.930 . S
C15 C14 1.376 . S
C15 C16 1.370 . S
C16 C15 1.370 . S
C16 C17 1.396 . S
C16 H38 0.929 . S
C17 C12 1.373 . S
C17 C16 1.396 . S
C17 H39 0.929 . S
C18 O28 1.240 1_455 S
C18 O29 1.289 . S
C19 O30 1.258 . S
C19 O31 1.256 . S
O20 La0 2.521 . S
O20 C2 1.261 . S
O21 La0 2.628 . S
O21 C2 1.243 . S
O22 La0 2.554 . S
O22 C9 1.240 . S
O23 La0 2.757 . S
O23 La1 2.482 1_455 S
O23 C9 1.289 . S
O24 La0 2.470 . S
O24 C10 1.258 . S
O25 La1 2.503 1_455 S
O25 C10 1.256 . S
O26 La1 2.521 . S
O26 C11 1.261 . S
O27 La1 2.628 . S
O27 C11 1.243 . S
O28 La1 2.554 . S
O28 C18 1.240 1_655 S
O29 La0 2.482 . S
O29 La1 2.757 1_455 S
O29 C18 1.289 . S
O30 La1 2.470 . S
O30 C19 1.258 . S
O31 La0 2.503 1_655 S
O31 C19 1.256 . S
H32 C4 0.930 . S
H33 C5 0.930 . S
H34 C7 0.929 . S
H35 C8 0.929 . S
H36 C13 0.930 . S
H37 C14 0.930 . S
H38 C16 0.929 . S
H39 C17 0.929 . S
La40 C42 2.928 1_545 S
La40 O60 2.521 1_545 S
La40 O61 2.628 1_545 S
La40 O62 2.554 1_545 S
La40 O63 2.757 . S
La40 O64 2.470 1_545 S
La40 O69 2.481 . S
La40 O71 2.503 . S
La41 C51 2.928 . S
La41 O63 2.482 . S
La41 O65 2.503 1_545 S
La41 O66 2.521 . S
La41 O67 2.628 . S
La41 O68 2.554 . S
La41 O69 2.759 . S
La41 O70 2.470 . S
C42 La40 2.928 1_565 S
C42 C43 1.503 . S
C42 O60 1.261 . S
C42 O61 1.243 . S
C43 C42 1.503 . S
C43 C44 1.394 . S
C43 C48 1.373 . S
C44 C43 1.394 . S
C44 C45 1.380 . S
C44 H72 0.930 . S
C45 C44 1.380 . S
C45 C46 1.376 . S
C45 H73 0.930 . S
C46 C45 1.376 . S
C46 C47 1.370 . S
C47 C46 1.370 . S
C47 C48 1.396 . S
C47 H74 0.929 . S
C48 C43 1.373 . S
C48 C47 1.396 . S
C48 H75 0.929 . S
C49 O62 1.240 1_545 S
C49 O63 1.289 . S
C50 O64 1.258 . S
C50 O65 1.256 . S
C51 La41 2.928 . S
C51 C52 1.503 . S
C51 O66 1.261 . S
C51 O67 1.243 . S
C52 C51 1.503 . S
C52 C53 1.394 . S
C52 C57 1.373 . S
C53 C52 1.394 . S
C53 C54 1.380 . S
C53 H76 0.930 . S
C54 C53 1.380 . S
C54 C55 1.376 . S
C54 H77 0.930 . S
C55 C54 1.376 . S
C55 C56 1.370 . S
C56 C55 1.370 . S
C56 C57 1.396 . S
C56 H78 0.929 . S
C57 C52 1.373 . S
C57 C56 1.396 . S
C57 H79 0.929 . S
C58 O68 1.240 . S
C58 O69 1.291 . S
C59 O70 1.258 . S
C59 O71 1.256 . S
O60 La40 2.521 1_565 S
O60 C42 1.261 . S
O61 La40 2.628 1_565 S
O61 C42 1.243 . S
O62 La40 2.554 1_565 S
O62 C49 1.240 1_565 S
O63 La40 2.757 . S
O63 La41 2.482 . S
O63 C49 1.289 . S
O64 La40 2.470 1_565 S
O64 C50 1.258 . S
O65 La41 2.503 1_565 S
O65 C50 1.256 . S
O66 La41 2.521 . S
O66 C51 1.261 . S
O67 La41 2.628 . S
O67 C51 1.243 . S
O68 La41 2.554 . S
O68 C58 1.240 . S
O69 La40 2.481 . S
O69 La41 2.759 . S
O69 C58 1.291 . S
O70 La41 2.470 . S
O70 C59 1.258 . S
O71 La40 2.503 . S
O71 C59 1.256 . S
H72 C44 0.930 . S
H73 C45 0.930 . S
H74 C47 0.929 . S
H75 C48 0.929 . S
H76 C53 0.930 . S
H77 C54 0.930 . S
H78 C56 0.929 . S
H79 C57 0.929 . S
La80 C82 2.928 . S
La80 O100 2.521 . S
La80 O101 2.628 . S
La80 O102 2.554 . S
La80 O103 2.757 . S
La80 O104 2.470 . S
La80 O109 2.482 . S
La80 O111 2.503 . S
La81 C91 2.928 . S
La81 O103 2.482 . S
La81 O105 2.503 . S
La81 O106 2.521 . S
La81 O107 2.628 . S
La81 O108 2.554 . S
La81 O109 2.757 . S
La81 O110 2.470 . S
C82 La80 2.928 . S
C82 C83 1.503 . S
C82 O100 1.261 . S
C82 O101 1.243 . S
C83 C82 1.503 . S
C83 C84 1.394 . S
C83 C88 1.373 . S
C84 C83 1.394 . S
C84 C85 1.380 . S
C84 H112 0.930 . S
C85 C84 1.380 . S
C85 C86 1.376 . S
C85 H113 0.930 . S
C86 C85 1.376 . S
C86 C87 1.370 . S
C87 C86 1.370 . S
C87 C88 1.396 . S
C87 H114 0.929 . S
C88 C83 1.373 . S
C88 C87 1.396 . S
C88 H115 0.929 . S
C89 O102 1.240 . S
C89 O103 1.289 . S
C90 O104 1.258 . S
C90 O105 1.256 . S
C91 La81 2.928 . S
C91 C92 1.503 . S
C91 O106 1.261 . S
C91 O107 1.243 . S
C92 C91 1.503 . S
C92 C93 1.394 . S
C92 C97 1.373 . S
C93 C92 1.394 . S
C93 C94 1.380 . S
C93 H116 0.930 . S
C94 C93 1.380 . S
C94 C95 1.376 . S
C94 H117 0.930 . S
C95 C94 1.376 . S
C95 C96 1.370 . S
C96 C95 1.370 . S
C96 C97 1.396 . S
C96 H118 0.929 . S
C97 C92 1.373 . S
C97 C96 1.396 . S
C97 H119 0.929 . S
C98 O108 1.240 . S
C98 O109 1.289 . S
C99 O110 1.258 . S
C99 O111 1.256 . S
O100 La80 2.521 . S
O100 C82 1.261 . S
O101 La80 2.628 . S
O101 C82 1.243 . S
O102 La80 2.554 . S
O102 C89 1.240 . S
O103 La80 2.757 . S
O103 La81 2.482 . S
O103 C89 1.289 . S
O104 La80 2.470 . S
O104 C90 1.258 . S
O105 La81 2.503 . S
O105 C90 1.256 . S
O106 La81 2.521 . S
O106 C91 1.261 . S
O107 La81 2.628 . S
O107 C91 1.243 . S
O108 La81 2.554 . S
O108 C98 1.240 . S
O109 La80 2.482 . S
O109 La81 2.757 . S
O109 C98 1.289 . S
O110 La81 2.470 . S
O110 C99 1.258 . S
O111 La80 2.503 . S
O111 C99 1.256 . S
H112 C84 0.930 . S
H113 C85 0.930 . S
H114 C87 0.929 . S
H115 C88 0.929 . S
H116 C93 0.930 . S
H117 C94 0.930 . S
H118 C96 0.929 . S
H119 C97 0.929 . S
O120 Cd121 2.300 . S
O120 C127 1.275 . S
Cd121 O120 2.300 . S
Cd121 O129 2.381 . S
Cd121 O130 2.378 . S
O122 Cd123 2.385 . S
O122 C127 1.255 1_565 S
Cd123 O122 2.385 . S
Cd123 O124 2.317 . S
O124 Cd123 2.317 . S
O124 C125 1.232 . S
C125 O124 1.232 . S
C125 O126 1.218 . S
O126 C125 1.218 . S
C127 O120 1.275 . S
C127 O122 1.255 1_545 S
C128 O129 1.258 . S
C128 O130 1.256 . S
O129 Cd121 2.381 . S
O129 C128 1.258 . S
O130 Cd121 2.378 . S
O130 C128 1.256 . S
O131 Cd132 2.300 . S
O131 C138 1.275 . S
Cd132 O131 2.300 . S
Cd132 O140 2.381 . S
Cd132 O141 2.378 . S
O133 Cd134 2.385 . S
O133 C138 1.255 . S
Cd134 O133 2.385 . S
Cd134 O135 2.317 . S
O135 Cd134 2.317 . S
O135 C136 1.232 . S
C136 O135 1.232 . S
C136 O137 1.218 . S
O137 C136 1.218 . S
C138 O131 1.275 . S
C138 O133 1.255 . S
C139 O140 1.258 . S
C139 O141 1.256 . S
O140 Cd132 2.381 . S
O140 C139 1.258 . S
O141 Cd132 2.378 . S
O141 C139 1.256 . S
O142 Cd143 2.300 1_554 S
O142 C149 1.275 . S
Cd143 O142 2.300 1_556 S
Cd143 O151 2.381 . S
Cd143 O152 2.378 . S
O144 Cd145 2.385 . S
O144 C149 1.255 1_656 S
Cd145 O144 2.385 . S
Cd145 O146 2.317 . S
O146 Cd145 2.317 . S
O146 C147 1.232 . S
C147 O146 1.232 . S
C147 O148 1.218 . S
O148 C147 1.218 . S
C149 O142 1.275 . S
C149 O144 1.255 1_454 S
C150 O151 1.258 . S
C150 O152 1.256 . S
O151 Cd143 2.381 . S
O151 C150 1.258 . S
O152 Cd143 2.378 . S
O152 C150 1.256 . S
O153 Cd154 2.300 . S
O153 C160 1.275 1_455 S
Cd154 O153 2.300 . S
Cd154 O162 2.381 . S
Cd154 O163 2.378 . S
O155 Cd156 2.385 . S
O155 C160 1.255 . S
Cd156 O155 2.385 . S
Cd156 O157 2.317 . S
O157 Cd156 2.317 . S
O157 C158 1.232 . S
C158 O157 1.232 . S
C158 O159 1.218 . S
O159 C158 1.218 . S
C160 O153 1.275 1_655 S
C160 O155 1.255 . S
C161 O162 1.258 . S
C161 O163 1.256 . S
O162 Cd154 2.381 . S
O162 C161 1.258 . S
O163 Cd154 2.378 . S
O163 C161 1.256 . S
O164 Cd165 2.300 . S
O164 C171 1.275 1_565 S
Cd165 O164 2.300 . S
Cd165 O173 2.381 . S
Cd165 O174 2.378 . S
O166 Cd167 2.385 . S
O166 C171 1.255 . S
Cd167 O166 2.385 . S
Cd167 O168 2.317 . S
O168 Cd167 2.317 . S
O168 C169 1.232 . S
C169 O168 1.232 . S
C169 O170 1.218 . S
O170 C169 1.218 . S
C171 O164 1.275 1_545 S
C171 O166 1.255 . S
C172 O173 1.258 . S
C172 O174 1.256 . S
O173 Cd165 2.381 . S
O173 C172 1.258 . S
O174 Cd165 2.378 . S
O174 C172 1.256 . S
O175 Cd176 2.300 1_556 S
O175 C182 1.275 . S
Cd176 O175 2.300 1_554 S
Cd176 O184 2.381 . S
Cd176 O185 2.378 . S
O177 Cd178 2.385 . S
O177 C182 1.255 1_554 S
Cd178 O177 2.385 . S
Cd178 O179 2.317 . S
O179 Cd178 2.317 . S
O179 C180 1.232 . S
C180 O179 1.232 . S
C180 O181 1.218 . S
O181 C180 1.218 . S
C182 O175 1.275 . S
C182 O177 1.255 1_556 S
C183 O184 1.258 . S
C183 O185 1.256 . S
O184 Cd176 2.381 . S
O184 C183 1.258 . S
O185 Cd176 2.378 . S
O185 C183 1.256 . S
C6 C180 3.658 . S
C59 C158 2.260 . S
C86 C172 2.339 . S
C15 C183 2.655 . S
C161 C50 2.612 . S
C169 C95 2.250 . S
C46 C136 1.895 . S
C99 C147 4.718 . S
C10 C125 2.326 . S
C139 C55 1.656 . S
C150 C90 4.648 . S
C19 C128 2.439 . S
C149 C18 1.889 . S
C49 C127 1.041 . S
C98 C138 1.340 . S
C171 C58 1.207 . S
C182 C89 1.120 . S
C9 C160 1.154 1_455 S
