# Generated by pormake.
# Topology nia, (6,6)-cn, num edge types: 1
# Building blocks:
#     Node 0, Type 0, BuildingBlock: NUHQIS_clean_sbu_0, # of connection points: 6
#     Node 1, Type 0, BuildingBlock: NUHQIS_clean_sbu_0, # of connection points: 6
#     Node 2, Type 1, BuildingBlock: MIDCAF_clean_sbu_0, # of connection points: 6
#     Node 3, Type 1, BuildingBlock: MIDCAF_clean_sbu_0, # of connection points: 6
#     Edge 4, Type (0, 1), BuildingBlock: EYOCIG_clean_linker_4, # of connection points: 2
#     Edge 5, Type (0, 1), BuildingBlock: EYOCIG_clean_linker_4, # of connection points: 2
#     Edge 6, Type (0, 1), BuildingBlock: EYOCIG_clean_linker_4, # of connection points: 2
#     Edge 7, Type (0, 1), BuildingBlock: EYOCIG_clean_linker_4, # of connection points: 2
#     Edge 8, Type (0, 1), BuildingBlock: EYOCIG_clean_linker_4, # of connection points: 2
#     Edge 9, Type (0, 1), BuildingBlock: EYOCIG_clean_linker_4, # of connection points: 2
#     Edge 10, Type (0, 1), BuildingBlock: EYOCIG_clean_linker_4, # of connection points: 2
#     Edge 11, Type (0, 1), BuildingBlock: EYOCIG_clean_linker_4, # of connection points: 2
#     Edge 12, Type (0, 1), BuildingBlock: EYOCIG_clean_linker_4, # of connection points: 2
#     Edge 13, Type (0, 1), BuildingBlock: EYOCIG_clean_linker_4, # of connection points: 2
#     Edge 14, Type (0, 1), BuildingBlock: EYOCIG_clean_linker_4, # of connection points: 2
#     Edge 15, Type (0, 1), BuildingBlock: EYOCIG_clean_linker_4, # of connection points: 2
# Relax obj value: 0.222
# Max RMSD: 0.289
# Mean RMSD: 0.220
data_MOF--net-nia--node1-NUHQIS_clean_sbu_0--node2-MIDCAF_clean_sbu_0--edge1-EYOCIG_clean_linker_4
_symmetry_space_group_name_H-M    P1
_symmetry_Int_Tables_number       1
_symmetry_cell_setting            triclinic
loop_
_symmetry_equiv_pos_as_xyz
'x, y, z'
_cell_length_a     24.210074
_cell_length_b     24.194538
_cell_length_c     24.951406
_cell_angle_alpha  89.9658
_cell_angle_beta   90.152919
_cell_angle_gamma 135.46555
loop_
_atom_site_label
_atom_site_type_symbol
_atom_site_fract_x
_atom_site_fract_y
_atom_site_fract_z
_atom_type_partial_charge
Tb0 Tb 0.95053 0.00952 1.01191 0.0
Eu1 Eu 0.00883 0.94424 0.08595 0.0
C2 C 0.1045 0.05272 0.98384 0.0
C3 C 0.90543 0.85624 0.97931 0.0
C4 C 0.88615 0.10315 0.95297 0.0
C5 C 0.88911 0.18899 0.89916 0.0
C6 C 0.91379 0.15241 0.90843 0.0
C7 C 0.83686 0.0947 0.99009 0.0
C8 C 0.81218 0.1316 0.98075 0.0
C9 C 0.83635 0.17676 0.93431 0.0
C10 C 0.90159 0.05423 0.95488 0.0
O11 O 0.8533 0.91512 0.06347 0.0
O12 O 0.92332 0.9323 0.13495 0.0
O13 O 0.08012 0.06832 0.11311 0.0
O14 O -2e-05 0.08242 0.08381 0.0
C15 C 0.85927 0.90796 0.11466 0.0
O16 O -0.02381 0.85474 0.14095 0.0
O17 O 0.09907 0.95429 0.11917 0.0
O18 O 0.0794 -0.00873 1.00998 0.0
O19 O 0.07195 0.07842 0.98919 0.0
O20 O 0.92792 0.9211 0.96251 0.0
O21 O 0.91666 0.84719 1.02863 0.0
C22 C 0.05794 0.10448 0.11355 0.0
O23 O -0.02538 0.09032 0.95675 0.0
O24 O 0.85632 -0.00892 0.98437 0.0
C25 C 0.05934 0.83542 0.14629 0.0
C26 C 0.1007 0.75402 0.16336 0.0
C27 C 0.04615 0.74081 0.19703 0.0
C28 C 0.02565 0.78136 0.18855 0.0
C29 C 0.10931 0.84388 0.11 0.0
C30 C 0.12985 0.80316 0.11857 0.0
C31 C 0.04819 0.88782 0.14533 0.0
H32 H 0.90844 0.22387 0.8632 0.0
H33 H 0.95151 0.15948 0.87924 0.0
H34 H 0.81479 0.05713 1.02485 0.0
H35 H 0.77163 0.12203 1.00845 0.0
H36 H 0.02292 0.70273 0.23166 0.0
H37 H -0.01329 0.77371 0.2168 0.0
H38 H 0.1354 0.88461 0.07674 0.0
H39 H 0.17176 0.81342 0.09201 0.0
Tb40 Tb 0.95421 0.01357 0.58401 0.0
Eu41 Eu 0.01682 0.952 0.51109 0.0
C42 C 0.90629 0.85737 0.61268 0.0
C43 C 0.10624 0.05647 0.61751 0.0
C44 C 0.85984 0.07776 0.64174 0.0
C45 C 0.77412 0.07164 0.69859 0.0
C46 C 0.81255 0.04931 0.68752 0.0
C47 C 0.86391 0.12503 0.60527 0.0
C48 C 0.82534 0.14737 0.61643 0.0
C49 C 0.78264 0.12292 0.66408 0.0
C50 C 0.91397 0.06867 0.63829 0.0
O51 O 0.05277 0.10965 0.53404 0.0
O52 O 0.02913 0.03779 0.4619 0.0
O53 O 0.89341 0.88173 0.48309 0.0
O54 O 0.87868 0.96112 0.51322 0.0
C55 C 0.05688 0.10312 0.48247 0.0
O56 O 0.10528 -0.01643 0.45578 0.0
O57 O 0.00648 0.8611 0.47908 0.0
O58 O -0.03225 0.88161 0.5873 0.0
O59 O 0.88181 0.89107 0.6065 0.0
O60 O 0.04266 0.03671 0.63386 0.0
O61 O 0.11428 0.04317 0.56863 0.0
C62 C 0.85695 0.90359 0.48315 0.0
O63 O 0.88544 -0.00097 0.64581 0.0
O64 O -0.03246 0.10737 0.60116 0.0
C65 C 0.12485 0.90054 0.45105 0.0
C66 C 0.206 0.85915 0.43312 0.0
C67 C 0.21934 0.91428 0.39991 0.0
C68 C 0.17892 0.9348 0.40882 0.0
C69 C 0.11633 0.85002 0.48692 0.0
C70 C 0.15693 0.82947 0.47793 0.0
C71 C 0.07231 0.9115 0.45225 0.0
H72 H 0.74114 0.05212 0.7355 0.0
H73 H 0.80896 0.01342 0.71643 0.0
H74 H 0.90004 0.14811 0.56967 0.0
H75 H 0.83213 0.18682 0.58924 0.0
H76 H 0.25739 0.93794 0.36529 0.0
H77 H 0.18663 -0.02585 0.38086 0.0
H78 H 0.0756 0.82347 0.52016 0.0
H79 H 0.14659 0.78713 0.50416 0.0
Zn80 Zn 0.35522 0.60261 0.18976 0.0
Zn81 Zn 0.35917 0.60673 0.40612 0.0
Zn82 Zn 0.3576 0.6042 0.29799 0.0
C83 C 0.51305 0.69627 0.37044 0.0
C84 C 0.25857 0.45009 0.37493 0.0
O85 O 0.30225 0.64253 0.27017 0.0
O86 O 0.29764 0.63238 0.18153 0.0
C87 C 0.51186 0.70414 0.22128 0.0
O88 O 0.48073 0.67976 0.32412 0.0
O89 O 0.47271 0.6695 0.41274 0.0
O90 O 0.28071 0.49096 0.41663 0.0
O91 O 0.28236 0.48239 0.32825 0.0
O92 O 0.47102 0.68171 0.17948 0.0
O93 O 0.47948 0.68016 0.2679 0.0
O94 O 0.28251 0.48108 0.27203 0.0
O95 O 0.29294 0.4891 0.18342 0.0
C96 C 0.26618 0.44876 0.22577 0.0
O97 O 0.31849 0.65888 0.32546 0.0
O98 O 0.32867 0.66364 0.41411 0.0
C99 C 0.28161 0.64681 0.22396 0.0
C100 C 0.31395 0.67936 0.37157 0.0
Zn101 Zn 0.6095 0.35892 0.90818 0.0
Zn102 Zn 0.60382 0.35237 0.6891 0.0
Zn103 Zn 0.60625 0.35594 0.79871 0.0
C104 C 0.69886 0.50899 0.72098 0.0
C105 C 0.44909 0.25781 0.72695 0.0
O106 O 0.65701 0.31297 0.8273 0.0
O107 O 0.65628 0.31739 0.91613 0.0
C108 C 0.7042 0.51352 0.86997 0.0
O109 O 0.67969 0.4775 0.76786 0.0
O110 O 0.67464 0.46767 0.67922 0.0
O111 O 0.488 0.28138 0.68415 0.0
O112 O 0.48315 0.27932 0.77302 0.0
O113 O 0.6804 0.47472 0.9129 0.0
O114 O 0.68284 0.47927 0.824 0.0
O115 O 0.48463 0.28204 0.82914 0.0
O116 O 0.4943 0.28781 0.91782 0.0
C117 C 0.45303 0.26293 0.87593 0.0
O118 O 0.64911 0.30486 0.77097 0.0
O119 O 0.64525 0.30532 0.68209 0.0
C120 C 0.67222 0.30283 0.87369 0.0
C121 C 0.65934 0.28931 0.72486 0.0
C122 C 0.16216 0.70196 0.19234 0.0
C123 C 0.13429 0.72579 0.17901 0.0
C124 C 0.20139 0.68137 0.20873 0.0
C125 C 0.23794 0.66616 0.21936 0.0
C126 C 0.22654 0.12605 0.68263 0.0
C127 C 0.16995 0.09416 0.65458 0.0
C128 C 0.29894 0.16781 0.70874 0.0
C129 C 0.36601 0.20794 0.72265 0.0
C130 C 0.13317 0.22785 0.17692 0.0
C131 C 0.0992 0.17145 0.14813 0.0
C132 C 0.17621 0.29929 0.20488 0.0
C133 C 0.21585 0.36562 0.22047 0.0
C134 C 0.73022 0.18369 0.69444 0.0
C135 C 0.75426 0.15624 0.68036 0.0
C136 C 0.7057 0.21945 0.7106 0.0
C137 C 0.68491 0.25113 0.72073 0.0
C138 C 0.73466 0.83725 0.17518 0.0
C139 C 0.79274 0.86982 0.14885 0.0
C140 C 0.66177 0.79494 0.2006 0.0
C141 C 0.59485 0.7542 0.21511 0.0
C142 C 0.82743 0.73084 0.67348 0.0
C143 C 0.86192 0.7887 0.64611 0.0
C144 C 0.78536 0.65819 0.69962 0.0
C145 C 0.74687 0.59174 0.71456 0.0
C146 C 0.25776 0.79776 0.40332 0.0
C147 C 0.23408 0.82562 0.417 0.0
C148 C 0.27846 0.75875 0.38667 0.0
C149 C 0.29405 0.72258 0.37598 0.0
C150 C 0.23078 0.13094 0.92316 0.0
C151 C 0.17309 0.09618 0.95061 0.0
C152 C 0.30347 0.1741 0.89695 0.0
C153 C 0.37007 0.21362 0.88208 0.0
C154 C 0.12726 0.22777 0.42184 0.0
C155 C 0.09475 0.1697 0.44827 0.0
C156 C 0.16901 0.30044 0.39611 0.0
C157 C 0.20918 0.36721 0.38132 0.0
C158 C 0.77473 0.22901 0.90595 0.0
C159 C 0.80198 0.20462 0.91974 0.0
C160 C 0.74005 0.25455 0.88934 0.0
C161 C 0.70933 0.2762 0.87855 0.0
C162 C 0.73366 0.8288 0.41971 0.0
C163 C 0.79003 0.86254 0.44852 0.0
C164 C 0.66235 0.78606 0.39162 0.0
C165 C 0.59611 0.74652 0.37588 0.0
C166 C 0.83594 0.73609 0.91411 0.0
C167 C 0.8679 0.79267 0.94216 0.0
C168 C 0.79424 0.66376 0.88794 0.0
C169 C 0.75414 0.59668 0.87403 0.0
loop_
_geom_bond_atom_site_label_1
_geom_bond_atom_site_label_2
_geom_bond_distance
_geom_bond_site_symmetry_2
_ccdc_geom_bond_type
Tb0 C10 2.825 . S
Tb0 O11 2.347 1_546 S
Tb0 O14 2.366 1_656 S
Tb0 O19 2.418 1_655 S
Tb0 O20 2.384 1_545 S
Tb0 O23 2.479 . S
Tb0 O24 2.471 . S
Eu1 O12 2.418 1_455 S
Eu1 O13 2.384 1_565 S
Eu1 O16 2.479 . S
Eu1 O17 2.471 . S
Eu1 O18 2.347 1_564 S
Eu1 O21 2.365 1_454 S
Eu1 C31 2.825 . S
C2 O18 1.259 . S
C2 O19 1.265 . S
C3 O20 1.255 . S
C3 O21 1.267 . S
C4 C6 1.380 . S
C4 C7 1.374 . S
C4 C10 1.507 . S
C5 C6 1.384 . S
C5 C9 1.387 . S
C5 H32 0.930 . S
C6 C4 1.380 . S
C6 C5 1.384 . S
C6 H33 0.931 . S
C7 C4 1.374 . S
C7 C8 1.390 . S
C7 H34 0.930 . S
C8 C7 1.390 . S
C8 C9 1.391 . S
C8 H35 0.930 . S
C9 C5 1.387 . S
C9 C8 1.391 . S
C10 Tb0 2.825 . S
C10 C4 1.507 . S
C10 O23 1.238 . S
C10 O24 1.247 . S
O11 Tb0 2.347 1_564 S
O11 C15 1.259 . S
O12 Eu1 2.418 1_655 S
O12 C15 1.265 . S
O13 Eu1 2.384 1_545 S
O13 C22 1.255 . S
O14 Tb0 2.366 1_454 S
O14 C22 1.265 . S
C15 O11 1.259 . S
C15 O12 1.265 . S
O16 Eu1 2.479 . S
O16 C31 1.238 . S
O17 Eu1 2.471 . S
O17 C31 1.247 . S
O18 Eu1 2.347 1_546 S
O18 C2 1.259 . S
O19 Tb0 2.418 1_455 S
O19 C2 1.265 . S
O20 Tb0 2.384 1_565 S
O20 C3 1.255 . S
O21 Eu1 2.365 1_656 S
O21 C3 1.267 . S
C22 O13 1.255 . S
C22 O14 1.265 . S
O23 Tb0 2.479 . S
O23 C10 1.238 . S
O24 Tb0 2.471 . S
O24 C10 1.247 . S
C25 C28 1.380 . S
C25 C29 1.374 . S
C25 C31 1.507 . S
C26 C27 1.387 . S
C26 C30 1.391 . S
C27 C26 1.387 . S
C27 C28 1.384 . S
C27 H36 0.930 . S
C28 C25 1.380 . S
C28 C27 1.384 . S
C28 H37 0.931 . S
C29 C25 1.374 . S
C29 C30 1.390 . S
C29 H38 0.930 . S
C30 C26 1.391 . S
C30 C29 1.390 . S
C30 H39 0.930 . S
C31 Eu1 2.825 . S
C31 O16 1.238 . S
C31 O17 1.247 . S
C31 C25 1.507 . S
H32 C5 0.930 . S
H33 C6 0.931 . S
H34 C7 0.930 . S
H35 C8 0.930 . S
H36 C27 0.930 . S
H37 C28 0.931 . S
H38 C29 0.930 . S
H39 C30 0.930 . S
Tb40 C50 2.825 1_455 S
Tb40 O51 2.347 . S
Tb40 O54 2.366 1_445 S
Tb40 O59 2.418 1_445 S
Tb40 O60 2.384 . S
Tb40 O63 2.479 1_455 S
Tb40 O64 2.471 1_455 S
Eu41 O52 2.418 1_565 S
Eu41 O53 2.384 1_455 S
Eu41 O56 2.479 . S
Eu41 O57 2.471 . S
Eu41 O58 2.347 1_455 S
Eu41 O61 2.366 1_565 S
Eu41 C71 2.825 . S
C42 O58 1.259 . S
C42 O59 1.265 . S
C43 O60 1.255 . S
C43 O61 1.265 . S
C44 C46 1.380 . S
C44 C47 1.374 . S
C44 C50 1.507 . S
C45 C46 1.384 . S
C45 C49 1.387 . S
C45 H72 0.930 . S
C46 C44 1.380 . S
C46 C45 1.384 . S
C46 H73 0.931 . S
C47 C44 1.374 . S
C47 C48 1.390 . S
C47 H74 0.930 . S
C48 C47 1.390 . S
C48 C49 1.391 . S
C48 H75 0.930 . S
C49 C45 1.387 . S
C49 C48 1.391 . S
C50 Tb40 2.825 1_655 S
C50 C44 1.507 . S
C50 O63 1.238 . S
C50 O64 1.247 . S
O51 Tb40 2.347 . S
O51 C55 1.259 . S
O52 Eu41 2.418 1_545 S
O52 C55 1.265 . S
O53 Eu41 2.384 1_655 S
O53 C62 1.255 . S
O54 Tb40 2.366 1_665 S
O54 C62 1.265 . S
C55 O51 1.259 . S
C55 O52 1.265 . S
O56 Eu41 2.479 . S
O56 C71 1.238 . S
O57 Eu41 2.471 . S
O57 C71 1.247 . S
O58 Eu41 2.347 1_655 S
O58 C42 1.259 . S
O59 Tb40 2.418 1_665 S
O59 C42 1.265 . S
O60 Tb40 2.384 . S
O60 C43 1.255 . S
O61 Eu41 2.366 1_545 S
O61 C43 1.265 . S
C62 O53 1.255 . S
C62 O54 1.265 . S
O63 Tb40 2.479 1_655 S
O63 C50 1.238 . S
O64 Tb40 2.471 1_655 S
O64 C50 1.247 . S
C65 C68 1.380 . S
C65 C69 1.374 . S
C65 C71 1.507 . S
C66 C67 1.387 . S
C66 C70 1.391 . S
C67 C66 1.387 . S
C67 C68 1.384 . S
C67 H76 0.930 . S
C68 C65 1.380 . S
C68 C67 1.384 . S
C68 H77 0.931 . S
C69 C65 1.374 . S
C69 C70 1.390 . S
C69 H78 0.930 . S
C70 C66 1.391 . S
C70 C69 1.390 . S
C70 H79 0.930 . S
C71 Eu41 2.825 . S
C71 O56 1.238 . S
C71 O57 1.247 . S
C71 C65 1.507 . S
H72 C45 0.930 . S
H73 C46 0.931 . S
H74 C47 0.930 . S
H75 C48 0.930 . S
H76 C67 0.930 . S
H77 C68 0.931 . S
H78 C69 0.930 . S
H79 C70 0.930 . S
Zn80 O86 1.920 . S
Zn80 O92 1.898 . S
Zn80 O95 1.905 . S
Zn81 O89 1.905 . S
Zn81 O90 1.898 . S
Zn81 O98 1.920 . S
Zn82 O85 2.080 . S
Zn82 O88 2.114 . S
Zn82 O91 2.120 . S
Zn82 O93 2.120 . S
Zn82 O94 2.114 . S
Zn82 O97 2.080 . S
C83 O88 1.166 . S
C83 O89 1.182 . S
C84 O90 1.167 . S
C84 O91 1.299 . S
O85 Zn82 2.080 . S
O85 C99 1.305 . S
O86 Zn80 1.920 . S
O86 C99 1.234 . S
C87 O92 1.167 . S
C87 O93 1.299 . S
O88 Zn82 2.114 . S
O88 C83 1.166 . S
O89 Zn81 1.905 . S
O89 C83 1.182 . S
O90 Zn81 1.898 . S
O90 C84 1.167 . S
O91 Zn82 2.120 . S
O91 C84 1.299 . S
O92 Zn80 1.898 . S
O92 C87 1.167 . S
O93 Zn82 2.120 . S
O93 C87 1.299 . S
O94 Zn82 2.114 . S
O94 C96 1.166 . S
O95 Zn80 1.905 . S
O95 C96 1.182 . S
C96 O94 1.166 . S
C96 O95 1.182 . S
O97 Zn82 2.080 . S
O97 C100 1.305 . S
O98 Zn81 1.920 . S
O98 C100 1.234 . S
C99 O85 1.305 . S
C99 O86 1.234 . S
C100 O97 1.305 . S
C100 O98 1.234 . S
Zn101 O107 1.920 . S
Zn101 O113 1.898 . S
Zn101 O116 1.905 . S
Zn102 O110 1.905 . S
Zn102 O111 1.898 . S
Zn102 O119 1.920 . S
Zn103 O106 2.080 . S
Zn103 O109 2.114 . S
Zn103 O112 2.120 . S
Zn103 O114 2.120 . S
Zn103 O115 2.114 . S
Zn103 O118 2.080 . S
C104 O109 1.166 . S
C104 O110 1.182 . S
C105 O111 1.167 . S
C105 O112 1.299 . S
O106 Zn103 2.080 . S
O106 C120 1.305 . S
O107 Zn101 1.920 . S
O107 C120 1.234 . S
C108 O113 1.167 . S
C108 O114 1.299 . S
O109 Zn103 2.114 . S
O109 C104 1.166 . S
O110 Zn102 1.905 . S
O110 C104 1.182 . S
O111 Zn102 1.898 . S
O111 C105 1.167 . S
O112 Zn103 2.120 . S
O112 C105 1.299 . S
O113 Zn101 1.898 . S
O113 C108 1.167 . S
O114 Zn103 2.120 . S
O114 C108 1.299 . S
O115 Zn103 2.114 . S
O115 C117 1.166 . S
O116 Zn101 1.905 . S
O116 C117 1.182 . S
C117 O115 1.166 . S
C117 O116 1.182 . S
O118 Zn103 2.080 . S
O118 C121 1.305 . S
O119 Zn102 1.920 . S
O119 C121 1.234 . S
C120 O106 1.305 . S
C120 O107 1.234 . S
C121 O118 1.305 . S
C121 O119 1.234 . S
C122 C123 1.170 . S
C122 C124 1.380 . S
C123 C122 1.170 . S
C124 C122 1.380 . S
C124 C125 1.170 . S
C125 C124 1.170 . S
C126 C127 1.170 . S
C126 C128 1.380 . S
C127 C126 1.170 . S
C128 C126 1.380 . S
C128 C129 1.170 . S
C129 C128 1.170 . S
C130 C131 1.170 . S
C130 C132 1.380 . S
C131 C130 1.170 . S
C132 C130 1.380 . S
C132 C133 1.170 . S
C133 C132 1.170 . S
C134 C135 1.170 . S
C134 C136 1.380 . S
C135 C134 1.170 . S
C136 C134 1.380 . S
C136 C137 1.170 . S
C137 C136 1.170 . S
C138 C139 1.170 . S
C138 C140 1.380 . S
C139 C138 1.170 . S
C140 C138 1.380 . S
C140 C141 1.170 . S
C141 C140 1.170 . S
C142 C143 1.170 . S
C142 C144 1.380 . S
C143 C142 1.170 . S
C144 C142 1.380 . S
C144 C145 1.170 . S
C145 C144 1.170 . S
C146 C147 1.170 . S
C146 C148 1.380 . S
C147 C146 1.170 . S
C148 C146 1.380 . S
C148 C149 1.170 . S
C149 C148 1.170 . S
C150 C151 1.170 . S
C150 C152 1.380 . S
C151 C150 1.170 . S
C152 C150 1.380 . S
C152 C153 1.170 . S
C153 C152 1.170 . S
C154 C155 1.170 . S
C154 C156 1.380 . S
C155 C154 1.170 . S
C156 C154 1.380 . S
C156 C157 1.170 . S
C157 C156 1.170 . S
C158 C159 1.170 . S
C158 C160 1.380 . S
C159 C158 1.170 . S
C160 C158 1.380 . S
C160 C161 1.170 . S
C161 C160 1.170 . S
C162 C163 1.170 . S
C162 C164 1.380 . S
C163 C162 1.170 . S
C164 C162 1.380 . S
C164 C165 1.170 . S
C165 C164 1.170 . S
C166 C167 1.170 . S
C166 C168 1.380 . S
C167 C166 1.170 . S
C168 C166 1.380 . S
C168 C169 1.170 . S
C169 C168 1.170 . S
C123 C26 1.390 . S
C125 C99 1.322 . S
C127 C43 1.350 . S
C129 C105 1.231 . S
C131 C22 1.455 . S
C133 C96 1.359 . S
C135 C49 1.480 . S
C137 C121 1.395 . S
C139 C15 1.864 . S
C141 C87 1.673 . S
C145 C104 1.772 . S
C143 C42 1.912 . S
C147 C66 1.354 . S
C149 C100 1.301 . S
C153 C117 1.767 . S
C151 C2 1.907 . S
C157 C84 1.678 . S
C155 C55 1.844 . S
C161 C120 1.399 . S
C159 C9 1.489 . S
C165 C83 1.329 . S
C163 C62 1.469 . S
C169 C108 1.193 . S
C167 C3 1.370 . S
