# Generated by pormake.
# Topology nia, (6,6)-cn, num edge types: 1
# Building blocks:
#     Node 0, Type 0, BuildingBlock: HISSIN_clean_sbu_0, # of connection points: 6
#     Node 1, Type 0, BuildingBlock: HISSIN_clean_sbu_0, # of connection points: 6
#     Node 2, Type 1, BuildingBlock: MIDCAF_clean_sbu_0, # of connection points: 6
#     Node 3, Type 1, BuildingBlock: MIDCAF_clean_sbu_0, # of connection points: 6
#     Edge 4, Type (0, 1), None
#     Edge 5, Type (0, 1), None
#     Edge 6, Type (0, 1), None
#     Edge 7, Type (0, 1), None
#     Edge 8, Type (0, 1), None
#     Edge 9, Type (0, 1), None
#     Edge 10, Type (0, 1), None
#     Edge 11, Type (0, 1), None
#     Edge 12, Type (0, 1), None
#     Edge 13, Type (0, 1), None
#     Edge 14, Type (0, 1), None
#     Edge 15, Type (0, 1), None
# Relax obj value: 0.595
# Max RMSD: 0.334
# Mean RMSD: 0.320
data_MOF--net-nia--node1-HISSIN_clean_sbu_0--node2-MIDCAF_clean_sbu_0--edge1-none
_symmetry_space_group_name_H-M    P1
_symmetry_Int_Tables_number       1
_symmetry_cell_setting            triclinic
loop_
_symmetry_equiv_pos_as_xyz
'x, y, z'
_cell_length_a     12.401546
_cell_length_b     12.355314
_cell_length_c     18.809258
_cell_angle_alpha  67.970223
_cell_angle_beta   68.004538
_cell_angle_gamma 104.60847
loop_
_atom_site_label
_atom_site_type_symbol
_atom_site_fract_x
_atom_site_fract_y
_atom_site_fract_z
_atom_type_partial_charge
Eu0 Eu 0.10159 0.21033 0.99874 0.0
Eu1 Eu 1.01689 0.90813 0.03648 0.0
C2 C 0.32845 0.14114 0.91194 0.0
C3 C 0.21773 0.50033 0.02265 0.0
C4 C 0.27738 0.63738 0.97289 0.0
C5 C 0.27822 0.50488 0.13041 0.0
C6 C 0.33405 0.70801 0.00306 0.0
C7 C 0.22315 0.43443 0.09954 0.0
C8 C 0.33023 0.64198 0.08398 0.0
C9 C 0.14144 0.42692 0.99826 0.0
O10 O 0.07617 0.89591 0.13854 0.0
O11 O 0.17471 0.11662 0.08721 0.0
C12 C 0.15308 0.99548 0.13545 0.0
O13 O 0.88097 0.10127 0.07525 0.0
O14 O 0.07864 0.81227 0.96517 0.0
O15 O 0.91072 0.69312 0.10171 0.0
O16 O 0.82431 0.8815 0.13737 0.0
C17 C 0.79255 0.97764 0.12896 0.0
O18 O 0.05732 0.2281 0.89065 0.0
O19 O 0.94291 1.00727 0.94971 0.0
O20 O 0.23903 1.01789 0.95903 0.0
O21 O 1.04359 0.31292 0.06524 0.0
O22 O 0.20677 0.42455 0.92637 0.0
O23 O 0.29805 0.23696 0.90637 0.0
C24 C 0.92675 0.61115 0.00107 0.0
C25 C 0.79875 0.5073 0.05795 0.0
C26 C 0.95858 0.54785 0.88944 0.0
C27 C 0.7509 0.42513 0.03022 0.0
C28 C 1.00577 0.6296 0.91677 0.0
C29 C 0.83073 0.44456 0.94558 0.0
C30 C 0.98482 0.69484 0.02972 0.0
C31 C 0.97319 0.13042 0.8972 0.0
H32 H 0.27529 0.68954 0.91291 0.0
H33 H 0.27563 0.45181 0.19224 0.0
H34 H 0.37355 0.81371 0.96581 0.0
H35 H 0.17963 0.32825 0.13807 0.0
H36 H 0.73603 0.48898 0.1239 0.0
H37 H 1.02302 0.56608 0.82384 0.0
H38 H 0.65186 0.34627 0.0751 0.0
H39 H 0.10557 0.70692 0.8717 0.0
Eu40 Eu 0.89639 1.00357 0.53627 0.0
Eu41 Eu 0.19564 0.09489 0.49989 0.0
C42 C 0.9711 0.77952 0.6238 0.0
C43 C 0.60806 0.88323 0.51125 0.0
C44 C 0.47152 0.82109 0.56176 0.0
C45 C 0.60384 0.82734 0.40139 0.0
C46 C 0.40128 0.76521 0.53114 0.0
C47 C 0.67401 0.88154 0.43276 0.0
C48 C 0.46702 0.77256 0.44886 0.0
C49 C 0.68025 0.95881 0.53666 0.0
O50 O 0.21257 1.01806 0.40664 0.0
O51 O 0.99726 0.93934 0.44301 0.0
C52 C 0.11633 0.95202 0.40195 0.0
O53 O 1.00039 0.2247 0.46176 0.0
O54 O 0.28195 0.07508 0.58197 0.0
O55 O 0.41049 0.20074 0.43426 0.0
O56 O 0.21823 0.27966 0.39273 0.0
C57 C 0.12306 0.31276 0.40364 0.0
O58 O 0.87311 0.04298 0.64752 0.0
O59 O 0.09144 0.17072 0.58129 0.0
O60 O 0.09295 0.87054 0.58084 0.0
O61 O 0.79275 0.05917 0.47026 0.0
O62 O 0.68356 0.89256 0.60798 0.0
O63 O 0.87574 0.80812 0.62536 0.0
C64 C 0.51253 0.18776 0.52547 0.0
C65 C 0.62118 0.31281 0.4669 0.0
C66 C 0.58249 0.14696 0.63349 0.0
C67 C 0.70627 0.35699 0.49355 0.0
C68 C 0.49727 0.10368 0.60735 0.0
C69 C 0.68427 0.27613 0.57888 0.0
C70 C 0.40031 0.15802 0.51284 0.0
C71 C 0.96924 0.13108 0.6395 0.0
H72 H 0.41933 0.82067 0.6228 0.0
H73 H 0.65681 0.83284 0.33844 0.0
H74 H 0.29587 0.72349 0.56929 0.0
H75 H 0.77985 0.92732 0.39349 0.0
H76 H 0.63424 0.38028 0.40386 0.0
H77 H 0.56366 0.08107 0.69907 0.0
H78 H 0.78473 0.45649 0.4495 0.0
H79 H 0.41431 1.00694 0.65408 0.0
Zn80 Zn 0.46573 0.96551 0.12063 0.0
Zn81 Zn 0.14275 0.64061 0.41294 0.0
Zn82 Zn 0.33953 0.7666 0.26672 0.0
C83 C 0.39367 0.73877 0.40815 0.0
C84 C 0.14898 0.44942 0.37824 0.0
O85 O 0.22965 0.86842 0.21925 0.0
O86 O 0.36754 0.07108 0.10794 0.0
C87 C 0.65684 0.9543 0.15417 0.0
O88 O 0.45178 0.78848 0.32318 0.0
O89 O 0.26993 0.6736 0.45655 0.0
O90 O 0.06604 0.46407 0.43288 0.0
O91 O 0.25681 0.55083 0.31063 0.0
O92 O 0.64318 0.03974 0.10005 0.0
O93 O 0.55491 0.84675 0.22174 0.0
O94 O 0.31593 0.65567 0.20968 0.0
O95 O 0.43037 0.83897 0.07663 0.0
C96 C 0.36489 0.7148 0.12476 0.0
O97 O 0.24015 0.87637 0.31613 0.0
O98 O 1.03793 0.73868 0.42735 0.0
C99 C 0.25144 0.98003 0.15973 0.0
C100 C 0.12955 0.85466 0.37613 0.0
Zn101 Zn 0.64854 0.14034 0.91127 0.0
Zn102 Zn 0.96651 0.45583 0.6274 0.0
Zn103 Zn 0.77181 0.33214 0.76879 0.0
C104 C 0.94699 0.64138 0.6566 0.0
C105 C 0.75865 0.32656 0.61513 0.0
O106 O 0.89846 0.27127 0.82128 0.0
O107 O 0.77257 0.05867 0.90398 0.0
C108 C 0.78259 0.36127 0.91344 0.0
O109 O 0.83202 0.5466 0.69921 0.0
O110 O 1.04375 0.61937 0.62852 0.0
O111 O 0.84891 0.44335 0.57028 0.0
O112 O 0.73488 0.24995 0.69349 0.0
O113 O 0.66635 0.26982 0.95978 0.0
O114 O 0.8602 0.37721 0.8382 0.0
O115 O 0.5607 0.28008 0.83744 0.0
O116 O 0.48729 0.06766 0.9075 0.0
C117 C 0.46591 0.16534 0.87969 0.0
O118 O 0.82848 0.20243 0.71843 0.0
O119 O 1.04066 0.32604 0.63953 0.0
C120 C 0.88264 0.15432 0.86687 0.0
C121 C 0.94474 0.21733 0.67391 0.0
loop_
_geom_bond_atom_site_label_1
_geom_bond_atom_site_label_2
_geom_bond_distance
_geom_bond_site_symmetry_2
_ccdc_geom_bond_type
Eu0 C9 2.828 . S
Eu0 O11 2.392 1_545 S
Eu0 O13 2.418 1_445 S
Eu0 O18 2.373 1_454 S
Eu0 O21 2.488 1_455 S
Eu0 O22 2.471 . S
Eu0 O23 2.349 1_554 S
Eu1 O10 2.373 1_556 S
Eu1 O14 2.488 . S
Eu1 O15 2.471 1_455 S
Eu1 O16 2.349 1_456 S
Eu1 O19 2.392 1_565 S
Eu1 O20 2.418 1_565 S
Eu1 C30 2.828 1_455 S
C2 O20 1.244 . S
C2 O23 1.265 . S
C3 C4 1.379 . S
C3 C7 1.373 . S
C3 C9 1.505 . S
C4 C3 1.379 . S
C4 C6 1.369 . S
C4 H32 0.930 1_554 S
C5 C7 1.383 . S
C5 C8 1.382 . S
C5 H33 0.930 . S
C6 C4 1.369 . S
C6 C8 1.392 . S
C6 H34 0.930 1_554 S
C7 C3 1.373 . S
C7 C5 1.383 . S
C7 H35 0.931 1_455 S
C8 C5 1.382 . S
C8 C6 1.392 . S
C9 Eu0 2.828 . S
C9 C3 1.505 . S
C9 O21 1.249 1_455 S
C9 O22 1.244 . S
O10 Eu1 2.373 1_554 S
O10 C12 1.258 . S
O11 Eu0 2.392 1_565 S
O11 C12 1.242 . S
C12 O10 1.258 . S
C12 O11 1.242 . S
O13 Eu0 2.418 1_665 S
O13 C17 1.244 . S
O14 Eu1 2.488 . S
O14 C30 1.249 1_455 S
O15 Eu1 2.471 1_655 S
O15 C30 1.244 . S
O16 Eu1 2.349 1_654 S
O16 C17 1.265 . S
C17 O13 1.244 . S
C17 O16 1.265 . S
O18 Eu0 2.373 1_656 S
O18 C31 1.258 1_655 S
O19 Eu1 2.392 1_545 S
O19 C31 1.242 . S
O20 Eu1 2.418 1_545 S
O20 C2 1.244 . S
O21 Eu0 2.488 1_655 S
O21 C9 1.249 1_655 S
O22 Eu0 2.471 . S
O22 C9 1.244 . S
O23 Eu0 2.349 1_556 S
O23 C2 1.265 . S
C24 C25 1.379 1_556 S
C24 C28 1.373 1_655 S
C24 C30 1.505 . S
C25 C24 1.379 1_554 S
C25 C27 1.369 . S
C25 H36 0.930 . S
C26 C28 1.383 1_655 S
C26 C29 1.382 . S
C26 H37 0.930 1_655 S
C27 C25 1.369 . S
C27 C29 1.392 1_554 S
C27 H38 0.930 . S
C28 C24 1.373 1_455 S
C28 C26 1.383 1_455 S
C28 H39 0.931 . S
C29 C26 1.382 . S
C29 C27 1.392 1_556 S
C30 Eu1 2.828 1_655 S
C30 O14 1.249 1_655 S
C30 O15 1.244 . S
C30 C24 1.505 . S
C31 O18 1.258 1_455 S
C31 O19 1.242 . S
H32 C4 0.930 1_556 S
H33 C5 0.930 . S
H34 C6 0.930 1_556 S
H35 C7 0.931 1_655 S
H36 C25 0.930 . S
H37 C26 0.930 1_455 S
H38 C27 0.930 . S
H39 C28 0.931 . S
Eu40 C49 2.828 1_545 S
Eu40 O51 2.392 1_655 S
Eu40 O53 2.418 1_655 S
Eu40 O58 2.373 . S
Eu40 O61 2.488 . S
Eu40 O62 2.471 1_545 S
Eu40 O63 2.349 1_545 S
Eu41 O50 2.373 1_545 S
Eu41 O54 2.488 1_545 S
Eu41 O55 2.471 . S
Eu41 O56 2.349 . S
Eu41 O59 2.392 1_455 S
Eu41 O60 2.418 1_445 S
Eu41 C70 2.828 . S
C42 O60 1.244 . S
C42 O63 1.265 . S
C43 C44 1.379 . S
C43 C47 1.373 1_565 S
C43 C49 1.505 . S
C44 C43 1.379 . S
C44 C46 1.369 . S
C44 H72 0.930 . S
C45 C47 1.383 1_565 S
C45 C48 1.382 . S
C45 H73 0.930 1_565 S
C46 C44 1.369 . S
C46 C48 1.392 . S
C46 H74 0.930 . S
C47 C43 1.373 1_545 S
C47 C45 1.383 1_545 S
C47 H75 0.931 . S
C48 C45 1.382 . S
C48 C46 1.392 . S
C49 Eu40 2.828 1_565 S
C49 C43 1.505 . S
C49 O61 1.249 1_565 S
C49 O62 1.244 . S
O50 Eu41 2.373 1_565 S
O50 C52 1.258 . S
O51 Eu40 2.392 1_455 S
O51 C52 1.242 1_545 S
C52 O50 1.258 . S
C52 O51 1.242 1_565 S
O53 Eu40 2.418 1_455 S
O53 C57 1.244 . S
O54 Eu41 2.488 1_565 S
O54 C70 1.249 1_565 S
O55 Eu41 2.471 . S
O55 C70 1.244 . S
O56 Eu41 2.349 . S
O56 C57 1.265 . S
C57 O53 1.244 . S
C57 O56 1.265 . S
O58 Eu40 2.373 . S
O58 C71 1.258 . S
O59 Eu41 2.392 1_655 S
O59 C71 1.242 . S
O60 Eu41 2.418 1_665 S
O60 C42 1.244 . S
O61 Eu40 2.488 . S
O61 C49 1.249 1_545 S
O62 Eu40 2.471 1_565 S
O62 C49 1.244 . S
O63 Eu40 2.349 1_565 S
O63 C42 1.265 . S
C64 C65 1.379 . S
C64 C68 1.373 . S
C64 C70 1.505 . S
C65 C64 1.379 . S
C65 C67 1.369 . S
C65 H76 0.930 . S
C66 C68 1.383 . S
C66 C69 1.382 . S
C66 H77 0.930 . S
C67 C65 1.369 . S
C67 C69 1.392 . S
C67 H78 0.930 . S
C68 C64 1.373 . S
C68 C66 1.383 . S
C68 H79 0.931 1_545 S
C69 C66 1.382 . S
C69 C67 1.392 . S
C70 Eu41 2.828 . S
C70 O54 1.249 1_545 S
C70 O55 1.244 . S
C70 C64 1.505 . S
C71 O58 1.258 . S
C71 O59 1.242 . S
H72 C44 0.930 . S
H73 C45 0.930 1_545 S
H74 C46 0.930 . S
H75 C47 0.931 . S
H76 C65 0.930 . S
H77 C66 0.930 . S
H78 C67 0.930 . S
H79 C68 0.931 1_565 S
Zn80 O86 1.920 . S
Zn80 O92 1.898 . S
Zn80 O95 1.905 . S
Zn81 O89 1.905 . S
Zn81 O90 1.898 . S
Zn81 O98 1.920 . S
Zn82 O85 2.080 . S
Zn82 O88 2.114 . S
Zn82 O91 2.120 . S
Zn82 O93 2.120 . S
Zn82 O94 2.114 . S
Zn82 O97 2.080 . S
C83 O88 1.166 . S
C83 O89 1.182 . S
C84 O90 1.167 . S
C84 O91 1.299 . S
O85 Zn82 2.080 . S
O85 C99 1.305 . S
O86 Zn80 1.920 . S
O86 C99 1.234 . S
C87 O92 1.167 . S
C87 O93 1.299 . S
O88 Zn82 2.114 . S
O88 C83 1.166 . S
O89 Zn81 1.905 . S
O89 C83 1.182 . S
O90 Zn81 1.898 . S
O90 C84 1.167 . S
O91 Zn82 2.120 . S
O91 C84 1.299 . S
O92 Zn80 1.898 . S
O92 C87 1.167 . S
O93 Zn82 2.120 . S
O93 C87 1.299 . S
O94 Zn82 2.114 . S
O94 C96 1.166 . S
O95 Zn80 1.905 . S
O95 C96 1.182 . S
C96 O94 1.166 . S
C96 O95 1.182 . S
O97 Zn82 2.080 . S
O97 C100 1.305 . S
O98 Zn81 1.920 . S
O98 C100 1.234 . S
C99 O85 1.305 . S
C99 O86 1.234 . S
C100 O97 1.305 . S
C100 O98 1.234 . S
Zn101 O107 1.920 . S
Zn101 O113 1.898 . S
Zn101 O116 1.908 1_556 S
Zn102 O110 1.905 . S
Zn102 O111 1.898 . S
Zn102 O119 1.920 . S
Zn103 O106 2.080 . S
Zn103 O109 2.114 . S
Zn103 O112 2.120 . S
Zn103 O114 2.120 . S
Zn103 O115 2.114 . S
Zn103 O118 2.080 . S
C104 O109 1.166 . S
C104 O110 1.182 . S
C105 O111 1.167 . S
C105 O112 1.299 . S
O106 Zn103 2.080 . S
O106 C120 1.305 . S
O107 Zn101 1.920 . S
O107 C120 1.234 . S
C108 O113 1.167 . S
C108 O114 1.299 . S
O109 Zn103 2.114 . S
O109 C104 1.166 . S
O110 Zn102 1.905 . S
O110 C104 1.182 . S
O111 Zn102 1.898 . S
O111 C105 1.167 . S
O112 Zn103 2.120 . S
O112 C105 1.299 . S
O113 Zn101 1.898 . S
O113 C108 1.167 . S
O114 Zn103 2.120 . S
O114 C108 1.299 . S
O115 Zn103 2.114 . S
O115 C117 1.166 . S
O116 Zn101 1.908 1_554 S
O116 C117 1.175 1_554 S
C117 O115 1.166 . S
C117 O116 1.175 1_556 S
O118 Zn103 2.080 . S
O118 C121 1.305 . S
O119 Zn102 1.920 . S
O119 C121 1.234 . S
C120 O106 1.305 . S
C120 O107 1.234 . S
C121 O118 1.305 . S
C121 O119 1.234 . S
C12 C99 2.017 . S
C69 C105 1.847 . S
C8 C96 2.622 . S
C71 C121 3.434 . S
C17 C87 3.929 . S
C104 C42 3.174 . S
C52 C100 2.017 . S
C117 C2 3.174 . S
C84 C57 3.929 . S
C120 C31 3.434 1_655 S
C83 C48 2.622 . S
C108 C29 1.846 . S
