# Generated by pormake.
# Topology bcu-b, (8,8)-cn, num edge types: 1
# Building blocks:
#     Node 0, Type 0, BuildingBlock: TAGTUT_clean_sbu_1, # of connection points: 8
#     Node 1, Type 1, BuildingBlock: GIZVER_clean_sbu_0, # of connection points: 8
#     Edge 2, Type (0, 1), BuildingBlock: CIFDUS_clean_linker_0, # of connection points: 2
#     Edge 3, Type (0, 1), BuildingBlock: CIFDUS_clean_linker_0, # of connection points: 2
#     Edge 4, Type (0, 1), BuildingBlock: CIFDUS_clean_linker_0, # of connection points: 2
#     Edge 5, Type (0, 1), BuildingBlock: CIFDUS_clean_linker_0, # of connection points: 2
#     Edge 6, Type (0, 1), BuildingBlock: CIFDUS_clean_linker_0, # of connection points: 2
#     Edge 7, Type (0, 1), BuildingBlock: CIFDUS_clean_linker_0, # of connection points: 2
#     Edge 8, Type (0, 1), BuildingBlock: CIFDUS_clean_linker_0, # of connection points: 2
#     Edge 9, Type (0, 1), BuildingBlock: CIFDUS_clean_linker_0, # of connection points: 2
# Relax obj value: 0.102
# Max RMSD: 0.173
# Mean RMSD: 0.168
data_MOF--net-bcu-b--node1-TAGTUT_clean_sbu_1--node2-GIZVER_clean_sbu_0--edge1-CIFDUS_clean_linker_0
_symmetry_space_group_name_H-M    P1
_symmetry_Int_Tables_number       1
_symmetry_cell_setting            triclinic
loop_
_symmetry_equiv_pos_as_xyz
'x, y, z'
_cell_length_a     18.822135
_cell_length_b     19.272198
_cell_length_c     16.176985
_cell_angle_alpha  87.923619
_cell_angle_beta   94.028954
_cell_angle_gamma 111.15336
loop_
_atom_site_label
_atom_site_type_symbol
_atom_site_fract_x
_atom_site_fract_y
_atom_site_fract_z
_atom_type_partial_charge
C0 C 0.87566 0.20447 0.06957 0.0
C1 C 0.9487 0.20069 0.82689 0.0
C2 C 0.87583 0.90492 0.88286 0.0
Mg3 Mg 0.02251 0.19855 -0.00024 0.0
O4 O 0.96854 0.09695 0.0191 0.0
Mg5 Mg 0.86643 0.05572 0.95702 0.0
Mg6 Mg 0.0174 1.02829 0.98269 0.0
O7 O 0.06617 0.95957 0.94625 0.0
Mg8 Mg 1.01221 0.85793 0.96551 0.0
Mg9 Mg 0.16826 1.00072 0.0083 0.0
C10 C 0.15874 0.1515 0.08287 0.0
C11 C 0.16133 0.12697 0.87294 0.0
O12 O 0.83628 0.14151 0.03536 0.0
O13 O 0.94791 0.23567 0.06408 0.0
O14 O 0.89617 0.14208 0.85133 0.0
O15 O 1.01039 0.23026 0.87144 0.0
O16 O 0.13127 0.20131 0.05771 0.0
O17 O 0.12181 0.08122 0.07336 0.0
C18 C 0.87347 0.92961 0.09247 0.0
O19 O 0.94347 0.94155 0.07844 0.0
O20 O 0.83717 0.96838 0.05719 0.0
O21 O 0.19836 0.91504 0.92978 0.0
O22 O 0.08675 0.82086 0.90102 0.0
O23 O 0.13855 0.91432 0.11389 0.0
C24 C 0.15899 0.8521 0.8955 0.0
O25 O 0.02438 0.82609 0.09377 0.0
O26 O 0.90333 0.85511 0.90791 0.0
C27 C 0.08606 0.85567 0.13832 0.0
O28 O 0.91298 0.97519 0.89219 0.0
O29 O 0.09133 0.11506 0.88694 0.0
O30 O 0.19756 0.08813 0.90823 0.0
Co31 Co 0.58906 0.39612 0.44446 0.0
Co32 Co 0.63453 0.4656 0.58204 0.0
Co33 Co 0.51749 0.52841 0.48278 0.0
O34 O 0.60652 0.49536 0.48004 0.0
H35 H 0.65001 0.53241 0.456 0.0
O36 O 0.42845 0.56143 0.48547 0.0
Co37 Co 0.44574 0.66072 0.52074 0.0
Co38 Co 0.40043 0.59088 0.38326 0.0
H39 H 0.38498 0.52439 0.50955 0.0
O40 O 0.73308 0.46941 0.60511 0.0
O41 O 0.63302 0.37256 0.55299 0.0
O42 O 0.56349 0.45012 0.66685 0.0
O43 O 0.47123 0.46428 0.58186 0.0
O44 O 0.57956 0.6121 0.55621 0.0
O45 O 0.45539 0.74876 0.55841 0.0
O46 O 0.35573 0.6406 0.56679 0.0
O47 O 0.54461 0.6938 0.48243 0.0
O48 O 0.56377 0.59254 0.38374 0.0
O49 O 0.47146 0.60616 0.29843 0.0
O50 O 0.40198 0.684 0.41198 0.0
O51 O 0.30189 0.58707 0.36006 0.0
C52 C 0.64567 0.346 0.37915 0.0
C53 C 0.44456 0.37728 0.42963 0.0
C54 C 0.49404 0.44252 0.65091 0.0
C55 C 0.70402 0.40038 0.58221 0.0
C56 C 0.38889 0.7109 0.58559 0.0
C57 C 0.59015 0.67957 0.53615 0.0
C58 C 0.54095 0.61401 0.31454 0.0
C59 C 0.33097 0.65615 0.38279 0.0
O60 O 0.57923 0.30815 0.40646 0.0
O61 O 0.67895 0.41625 0.3981 0.0
O62 O 0.45538 0.44475 0.40936 0.0
O63 O 0.49026 0.36297 0.48307 0.0
H64 H 0.19257 0.11394 0.23936 0.0
H65 H 0.28661 0.25686 0.0326 0.0
H66 H 0.39027 0.33722 0.12305 0.0
H67 H 0.43892 0.37941 0.26351 0.0
H68 H 0.34404 0.24134 0.4732 0.0
H69 H 0.25501 0.14687 0.37995 0.0
C70 C 0.23787 0.16077 0.21397 0.0
C71 C 0.23293 0.17925 0.12952 0.0
C72 C 0.29502 0.20918 0.26746 0.0
C73 C 0.29054 0.24099 0.09714 0.0
C74 C 0.34887 0.28775 0.14914 0.0
C75 C 0.39901 0.32828 0.2885 0.0
C76 C 0.39591 0.31767 0.37449 0.0
C77 C 0.34907 0.27458 0.23479 0.0
C78 C 0.34603 0.25065 0.4068 0.0
C79 C 0.2955 0.19678 0.3536 0.0
H80 H 0.74379 0.14237 0.1491 0.0
H81 H 0.92567 0.35158 0.10623 0.0
H82 H 0.87237 0.41365 0.19973 0.0
H83 H 0.77521 0.40863 0.29576 0.0
H84 H 0.59442 0.19897 0.3405 0.0
H85 H 0.64652 0.13738 0.2453 0.0
C86 C 0.77116 0.20166 0.15951 0.0
C87 C 0.83842 0.24215 0.12056 0.0
C88 C 0.74095 0.23703 0.21462 0.0
C89 C 0.87384 0.31891 0.13558 0.0
C90 C 0.84355 0.35457 0.18924 0.0
C91 C 0.74751 0.34941 0.28508 0.0
C92 C 0.68112 0.3087 0.32538 0.0
C93 C 0.77753 0.3141 0.22976 0.0
C94 C 0.64572 0.23192 0.31043 0.0
C95 C 0.67528 0.19649 0.25568 0.0
H96 H 0.7269 0.84848 0.05843 0.0
H97 H 0.91565 0.86132 0.23197 0.0
H98 H 0.82982 0.75837 0.31368 0.0
H99 H 0.69758 0.67264 0.34039 0.0
H100 H 0.51352 0.66089 0.15913 0.0
H101 H 0.60217 0.75465 0.07441 0.0
C102 C 0.74988 0.82848 0.11373 0.0
C103 C 0.82721 0.86342 0.14007 0.0
C104 C 0.70098 0.76936 0.15869 0.0
C105 C 0.85613 0.83585 0.21097 0.0
C106 C 0.807 0.77711 0.25751 0.0
C107 C 0.67711 0.68954 0.2816 0.0
C108 C 0.59833 0.66023 0.25702 0.0
C109 C 0.72877 0.74442 0.23272 0.0
C110 C 0.57324 0.68277 0.18037 0.0
C111 C 0.62392 0.7367 0.13183 0.0
H112 H 0.20891 0.90375 0.24901 0.0
H113 H 1.01042 0.71036 0.18376 0.0
H114 H 0.06605 0.63136 0.26506 0.0
H115 H 0.18062 0.61496 0.33157 0.0
H116 H 0.3811 0.80802 0.39172 0.0
H117 H 0.31492 0.88917 0.33577 0.0
C118 C 0.17677 0.84455 0.25422 0.0
C119 C 0.1063 0.81295 0.20845 0.0
C120 C 0.21031 0.79905 0.29861 0.0
C121 C 0.06499 0.73632 0.21748 0.0
C122 C 0.09722 0.69087 0.26331 0.0
C123 C 0.20957 0.67484 0.33364 0.0
C124 C 0.28654 0.70524 0.36368 0.0
C125 C 0.17149 0.72121 0.30031 0.0
C126 C 0.3224 0.78298 0.36766 0.0
C127 C 0.28456 0.82949 0.33557 0.0
H128 H 0.29019 0.91458 0.81493 0.0
H129 H 0.10964 0.70489 0.85967 0.0
H130 H 0.16296 0.64287 0.76609 0.0
H131 H 0.25981 0.64805 0.66962 0.0
H132 H 0.43925 0.85817 0.62297 0.0
H133 H 0.38705 0.91977 0.71807 0.0
C134 C 0.26312 0.8552 0.80491 0.0
C135 C 0.19625 0.81453 0.84442 0.0
C136 C 0.29332 0.81987 0.74974 0.0
C137 C 0.16118 0.73767 0.82988 0.0
C138 C 0.19147 0.70205 0.77618 0.0
C139 C 0.28718 0.70737 0.67985 0.0
C140 C 0.35325 0.74821 0.63909 0.0
C141 C 0.25713 0.74267 0.73513 0.0
C142 C 0.38823 0.82512 0.65344 0.0
C143 C 0.35861 0.86055 0.70813 0.0
H144 H 0.30812 0.20757 0.90659 0.0
H145 H 0.11914 0.19579 0.73385 0.0
H146 H 0.20502 0.29879 0.65224 0.0
H147 H 0.33734 0.38432 0.62537 0.0
H148 H 0.52157 0.39502 0.80596 0.0
H149 H 0.43294 0.30113 0.89053 0.0
C150 C 0.28509 0.2278 0.85148 0.0
C151 C 0.20767 0.19314 0.82535 0.0
C152 C 0.33402 0.28696 0.80659 0.0
C153 C 0.17872 0.22103 0.7547 0.0
C154 C 0.22788 0.2798 0.70821 0.0
C155 C 0.35785 0.36717 0.68399 0.0
C156 C 0.43667 0.39623 0.70841 0.0
C157 C 0.30618 0.31222 0.73281 0.0
C158 C 0.46182 0.37336 0.78484 0.0
C159 C 0.41115 0.31934 0.83329 0.0
H160 H 0.82589 0.15267 0.7161 0.0
H161 H 0.02441 0.346 0.78148 0.0
H162 H 0.96887 0.42505 0.70013 0.0
H163 H 0.85436 0.44151 0.63352 0.0
H164 H 0.65388 0.24851 0.57317 0.0
H165 H 0.71998 0.16732 0.62919 0.0
C166 C 0.85806 0.21187 0.71091 0.0
C167 C 0.9285 0.24343 0.75673 0.0
C168 C 0.82458 0.25739 0.66647 0.0
C169 C 0.96985 0.32006 0.74772 0.0
C170 C 0.93767 0.36554 0.70186 0.0
C171 C 0.82539 0.38163 0.63143 0.0
C172 C 0.74843 0.35127 0.60131 0.0
C173 C 0.86342 0.33523 0.6648 0.0
C174 C 0.71256 0.27353 0.59728 0.0
C175 C 0.75035 0.22698 0.62942 0.0
H176 H 0.84003 0.9438 0.72746 0.0
H177 H 0.7491 0.79813 0.93331 0.0
H178 H 0.64572 0.71747 0.84291 0.0
H179 H 0.5969 0.67597 0.70235 0.0
H180 H 0.68829 0.81701 0.49344 0.0
H181 H 0.77662 0.91157 0.5871 0.0
C182 C 0.79541 0.89628 0.75272 0.0
C183 C 0.8013 0.87708 0.83684 0.0
C184 C 0.73837 0.84777 0.69919 0.0
C185 C 0.74449 0.81453 0.86904 0.0
C186 C 0.68633 0.7676 0.81703 0.0
C187 C 0.63589 0.72774 0.6776 0.0
C188 C 0.6383 0.73916 0.59166 0.0
C189 C 0.68541 0.78149 0.73154 0.0
C190 C 0.68692 0.80703 0.55976 0.0
C191 C 0.73705 0.86096 0.6132 0.0
loop_
_geom_bond_atom_site_label_1
_geom_bond_atom_site_label_2
_geom_bond_distance
_geom_bond_site_symmetry_2
_ccdc_geom_bond_type
C0 O12 1.241 . S
C0 O13 1.280 . S
C1 O14 1.277 . S
C1 O15 1.245 . S
C2 O26 1.247 . S
C2 O28 1.289 . S
Mg3 O4 1.926 . S
Mg3 O13 1.984 . S
Mg3 O15 1.988 1_554 S
Mg3 O16 2.061 1_655 S
O4 Mg3 1.926 . S
O4 Mg5 1.986 1_544 S
O4 Mg6 1.917 1_655 S
Mg5 O4 1.986 1_566 S
Mg5 O12 2.042 1_566 S
Mg5 O14 2.041 1_565 S
Mg5 O20 2.038 1_556 S
Mg5 O28 2.238 . S
Mg6 O4 1.917 1_455 S
Mg6 O7 1.917 1_544 S
Mg6 O17 2.107 . S
Mg6 O19 2.079 1_445 S
Mg6 O28 2.106 1_444 S
Mg6 O29 2.079 1_554 S
O7 Mg6 1.917 1_566 S
O7 Mg8 1.926 . S
O7 Mg9 1.986 1_566 S
Mg8 O7 1.926 . S
Mg8 O22 1.984 . S
Mg8 O25 1.988 1_556 S
Mg8 O26 2.061 1_455 S
Mg9 O7 1.986 1_544 S
Mg9 O17 2.238 . S
Mg9 O21 2.042 1_544 S
Mg9 O23 2.041 1_545 S
Mg9 O30 2.038 1_554 S
C10 O16 1.247 . S
C10 O17 1.289 . S
C11 O29 1.245 . S
C11 O30 1.274 . S
O12 C0 1.241 . S
O12 Mg5 2.042 1_544 S
O13 C0 1.280 . S
O13 Mg3 1.984 . S
O14 C1 1.277 . S
O14 Mg5 2.041 1_545 S
O15 C1 1.245 . S
O15 Mg3 1.988 1_556 S
O16 Mg3 2.061 1_455 S
O16 C10 1.247 . S
O17 Mg6 2.107 . S
O17 Mg9 2.238 . S
O17 C10 1.289 . S
C18 O19 1.245 . S
C18 O20 1.274 . S
O19 Mg6 2.079 1_665 S
O19 C18 1.245 . S
O20 Mg5 2.038 1_554 S
O20 C18 1.274 . S
O21 Mg9 2.042 1_566 S
O21 C24 1.241 . S
O22 Mg8 1.984 . S
O22 C24 1.280 . S
O23 Mg9 2.041 1_565 S
O23 C27 1.277 . S
C24 O21 1.241 . S
C24 O22 1.280 . S
O25 Mg8 1.988 1_554 S
O25 C27 1.245 . S
O26 C2 1.247 . S
O26 Mg8 2.061 1_655 S
C27 O23 1.277 . S
C27 O25 1.245 . S
O28 C2 1.289 . S
O28 Mg5 2.238 . S
O28 Mg6 2.106 1_666 S
O29 Mg6 2.079 1_556 S
O29 C11 1.245 . S
O30 Mg9 2.038 1_556 S
O30 C11 1.274 . S
Co31 O34 2.042 . S
Co31 O41 2.264 . S
Co31 O60 2.286 . S
Co31 O61 2.069 . S
Co31 O63 2.015 . S
Co32 O34 2.122 . S
Co32 O40 2.073 . S
Co32 O41 2.327 . S
Co32 O42 1.976 . S
Co33 O34 2.087 . S
Co33 O36 2.087 . S
Co33 O43 2.111 . S
Co33 O44 2.143 . S
Co33 O48 2.111 . S
Co33 O62 2.143 . S
O34 Co31 2.042 . S
O34 Co32 2.122 . S
O34 Co33 2.087 . S
O34 H35 0.980 . S
H35 O34 0.980 . S
O36 Co33 2.087 . S
O36 Co37 2.042 . S
O36 Co38 2.122 . S
O36 H39 0.980 . S
Co37 O36 2.042 . S
Co37 O45 2.286 . S
Co37 O46 2.069 . S
Co37 O47 2.015 . S
Co37 O50 2.264 . S
Co38 O36 2.122 . S
Co38 O49 1.976 . S
Co38 O50 2.327 . S
Co38 O51 2.073 . S
H39 O36 0.980 . S
O40 Co32 2.073 . S
O40 C55 1.245 . S
O41 Co31 2.264 . S
O41 Co32 2.327 . S
O41 C55 1.257 . S
O42 Co32 1.976 . S
O42 C54 1.251 . S
O43 Co33 2.111 . S
O43 C54 1.274 . S
O44 Co33 2.143 . S
O44 C57 1.246 . S
O45 Co37 2.286 . S
O45 C56 1.259 . S
O46 Co37 2.069 . S
O46 C56 1.289 . S
O47 Co37 2.015 . S
O47 C57 1.257 . S
O48 Co33 2.111 . S
O48 C58 1.274 . S
O49 Co38 1.976 . S
O49 C58 1.251 . S
O50 Co37 2.264 . S
O50 Co38 2.327 . S
O50 C59 1.257 . S
O51 Co38 2.073 . S
O51 C59 1.245 . S
C52 O60 1.259 . S
C52 O61 1.289 . S
C53 O62 1.246 . S
C53 O63 1.257 . S
C54 O42 1.251 . S
C54 O43 1.274 . S
C55 O40 1.245 . S
C55 O41 1.257 . S
C56 O45 1.259 . S
C56 O46 1.289 . S
C57 O44 1.246 . S
C57 O47 1.257 . S
C58 O48 1.274 . S
C58 O49 1.251 . S
C59 O50 1.257 . S
C59 O51 1.245 . S
O60 Co31 2.286 . S
O60 C52 1.259 . S
O61 Co31 2.069 . S
O61 C52 1.289 . S
O62 Co33 2.143 . S
O62 C53 1.246 . S
O63 Co31 2.015 . S
O63 C53 1.257 . S
H64 C70 0.930 . S
H65 C73 0.930 . S
H66 C74 0.930 . S
H67 C75 0.930 . S
H68 C78 0.930 . S
H69 C79 0.930 . S
C70 H64 0.930 . S
C70 C71 1.355 . S
C70 C72 1.415 . S
C71 C70 1.355 . S
C71 C73 1.419 . S
C72 C70 1.415 . S
C72 C77 1.425 . S
C72 C79 1.409 . S
C73 H65 0.930 . S
C73 C71 1.419 . S
C73 C74 1.362 . S
C74 H66 0.930 . S
C74 C73 1.362 . S
C74 C77 1.409 . S
C75 H67 0.930 . S
C75 C76 1.355 . S
C75 C77 1.415 . S
C76 C75 1.355 . S
C76 C78 1.419 . S
C77 C72 1.425 . S
C77 C74 1.409 . S
C77 C75 1.415 . S
C78 H68 0.930 . S
C78 C76 1.419 . S
C78 C79 1.362 . S
C79 H69 0.930 . S
C79 C72 1.409 . S
C79 C78 1.362 . S
H80 C86 0.930 . S
H81 C89 0.930 . S
H82 C90 0.930 . S
H83 C91 0.930 . S
H84 C94 0.930 . S
H85 C95 0.930 . S
C86 H80 0.930 . S
C86 C87 1.355 . S
C86 C88 1.415 . S
C87 C86 1.355 . S
C87 C89 1.419 . S
C88 C86 1.415 . S
C88 C93 1.425 . S
C88 C95 1.409 . S
C89 H81 0.930 . S
C89 C87 1.419 . S
C89 C90 1.362 . S
C90 H82 0.930 . S
C90 C89 1.362 . S
C90 C93 1.409 . S
C91 H83 0.930 . S
C91 C92 1.355 . S
C91 C93 1.415 . S
C92 C91 1.355 . S
C92 C94 1.419 . S
C93 C88 1.425 . S
C93 C90 1.409 . S
C93 C91 1.415 . S
C94 H84 0.930 . S
C94 C92 1.419 . S
C94 C95 1.362 . S
C95 H85 0.930 . S
C95 C88 1.409 . S
C95 C94 1.362 . S
H96 C102 0.930 . S
H97 C105 0.930 . S
H98 C106 0.930 . S
H99 C107 0.930 . S
H100 C110 0.930 . S
H101 C111 0.930 . S
C102 H96 0.930 . S
C102 C103 1.355 . S
C102 C104 1.415 . S
C103 C102 1.355 . S
C103 C105 1.419 . S
C104 C102 1.415 . S
C104 C109 1.425 . S
C104 C111 1.409 . S
C105 H97 0.930 . S
C105 C103 1.419 . S
C105 C106 1.362 . S
C106 H98 0.930 . S
C106 C105 1.362 . S
C106 C109 1.409 . S
C107 H99 0.930 . S
C107 C108 1.355 . S
C107 C109 1.415 . S
C108 C107 1.355 . S
C108 C110 1.419 . S
C109 C104 1.425 . S
C109 C106 1.409 . S
C109 C107 1.415 . S
C110 H100 0.930 . S
C110 C108 1.419 . S
C110 C111 1.362 . S
C111 H101 0.930 . S
C111 C104 1.409 . S
C111 C110 1.362 . S
H112 C118 0.930 . S
H113 C121 0.930 . S
H114 C122 0.930 . S
H115 C123 0.930 . S
H116 C126 0.930 . S
H117 C127 0.930 . S
C118 H112 0.930 . S
C118 C119 1.355 . S
C118 C120 1.415 . S
C119 C118 1.355 . S
C119 C121 1.419 . S
C120 C118 1.415 . S
C120 C125 1.425 . S
C120 C127 1.409 . S
C121 H113 0.930 . S
C121 C119 1.419 . S
C121 C122 1.362 . S
C122 H114 0.930 . S
C122 C121 1.362 . S
C122 C125 1.409 . S
C123 H115 0.930 . S
C123 C124 1.355 . S
C123 C125 1.415 . S
C124 C123 1.355 . S
C124 C126 1.419 . S
C125 C120 1.425 . S
C125 C122 1.409 . S
C125 C123 1.415 . S
C126 H116 0.930 . S
C126 C124 1.419 . S
C126 C127 1.362 . S
C127 H117 0.930 . S
C127 C120 1.409 . S
C127 C126 1.362 . S
H128 C134 0.930 . S
H129 C137 0.930 . S
H130 C138 0.930 . S
H131 C139 0.930 . S
H132 C142 0.930 . S
H133 C143 0.930 . S
C134 H128 0.930 . S
C134 C135 1.355 . S
C134 C136 1.415 . S
C135 C134 1.355 . S
C135 C137 1.419 . S
C136 C134 1.415 . S
C136 C141 1.425 . S
C136 C143 1.409 . S
C137 H129 0.930 . S
C137 C135 1.419 . S
C137 C138 1.362 . S
C138 H130 0.930 . S
C138 C137 1.362 . S
C138 C141 1.409 . S
C139 H131 0.930 . S
C139 C140 1.355 . S
C139 C141 1.415 . S
C140 C139 1.355 . S
C140 C142 1.419 . S
C141 C136 1.425 . S
C141 C138 1.409 . S
C141 C139 1.415 . S
C142 H132 0.930 . S
C142 C140 1.419 . S
C142 C143 1.362 . S
C143 H133 0.930 . S
C143 C136 1.409 . S
C143 C142 1.362 . S
H144 C150 0.930 . S
H145 C153 0.930 . S
H146 C154 0.930 . S
H147 C155 0.930 . S
H148 C158 0.930 . S
H149 C159 0.930 . S
C150 H144 0.930 . S
C150 C151 1.355 . S
C150 C152 1.415 . S
C151 C150 1.355 . S
C151 C153 1.419 . S
C152 C150 1.415 . S
C152 C157 1.425 . S
C152 C159 1.409 . S
C153 H145 0.930 . S
C153 C151 1.419 . S
C153 C154 1.362 . S
C154 H146 0.930 . S
C154 C153 1.362 . S
C154 C157 1.409 . S
C155 H147 0.930 . S
C155 C156 1.355 . S
C155 C157 1.415 . S
C156 C155 1.355 . S
C156 C158 1.419 . S
C157 C152 1.425 . S
C157 C154 1.409 . S
C157 C155 1.415 . S
C158 H148 0.930 . S
C158 C156 1.419 . S
C158 C159 1.362 . S
C159 H149 0.930 . S
C159 C152 1.409 . S
C159 C158 1.362 . S
H160 C166 0.930 . S
H161 C169 0.930 . S
H162 C170 0.930 . S
H163 C171 0.930 . S
H164 C174 0.930 . S
H165 C175 0.930 . S
C166 H160 0.930 . S
C166 C167 1.355 . S
C166 C168 1.415 . S
C167 C166 1.355 . S
C167 C169 1.419 . S
C168 C166 1.415 . S
C168 C173 1.425 . S
C168 C175 1.409 . S
C169 H161 0.930 . S
C169 C167 1.419 . S
C169 C170 1.362 . S
C170 H162 0.930 . S
C170 C169 1.362 . S
C170 C173 1.409 . S
C171 H163 0.930 . S
C171 C172 1.355 . S
C171 C173 1.415 . S
C172 C171 1.355 . S
C172 C174 1.419 . S
C173 C168 1.425 . S
C173 C170 1.409 . S
C173 C171 1.415 . S
C174 H164 0.930 . S
C174 C172 1.419 . S
C174 C175 1.362 . S
C175 H165 0.930 . S
C175 C168 1.409 . S
C175 C174 1.362 . S
H176 C182 0.930 . S
H177 C185 0.930 . S
H178 C186 0.930 . S
H179 C187 0.930 . S
H180 C190 0.930 . S
H181 C191 0.930 . S
C182 H176 0.930 . S
C182 C183 1.355 . S
C182 C184 1.415 . S
C183 C182 1.355 . S
C183 C185 1.419 . S
C184 C182 1.415 . S
C184 C189 1.425 . S
C184 C191 1.409 . S
C185 H177 0.930 . S
C185 C183 1.419 . S
C185 C186 1.362 . S
C186 H178 0.930 . S
C186 C185 1.362 . S
C186 C189 1.409 . S
C187 H179 0.930 . S
C187 C188 1.355 . S
C187 C189 1.415 . S
C188 C187 1.355 . S
C188 C190 1.419 . S
C189 C184 1.425 . S
C189 C186 1.409 . S
C189 C187 1.415 . S
C190 H180 0.930 . S
C190 C188 1.419 . S
C190 C191 1.362 . S
C191 H181 0.930 . S
C191 C184 1.409 . S
C191 C190 1.362 . S
C71 C10 1.207 . S
C76 C53 1.269 . S
C87 C0 1.567 . S
C92 C52 1.618 . S
C103 C18 1.486 . S
C108 C58 1.512 . S
C119 C27 1.579 . S
C124 C59 1.533 . S
C135 C24 1.604 . S
C140 C56 1.613 . S
C156 C54 1.434 . S
C151 C11 1.555 . S
C167 C1 1.598 . S
C172 C55 1.510 . S
C188 C57 1.224 . S
C183 C2 1.161 . S
