# Generated by pormake.
# Topology wbl, (4,4)-cn, num edge types: 1
# Building blocks:
#     Node 0, Type 0, BuildingBlock: MUDLON_clean_sbu_0, # of connection points: 4
#     Node 1, Type 0, BuildingBlock: MUDLON_clean_sbu_0, # of connection points: 4
#     Node 2, Type 0, BuildingBlock: MUDLON_clean_sbu_0, # of connection points: 4
#     Node 3, Type 0, BuildingBlock: MUDLON_clean_sbu_0, # of connection points: 4
#     Node 4, Type 0, BuildingBlock: MUDLON_clean_sbu_0, # of connection points: 4
#     Node 5, Type 0, BuildingBlock: MUDLON_clean_sbu_0, # of connection points: 4
#     Node 6, Type 0, BuildingBlock: MUDLON_clean_sbu_0, # of connection points: 4
#     Node 7, Type 0, BuildingBlock: MUDLON_clean_sbu_0, # of connection points: 4
#     Node 8, Type 1, BuildingBlock: GALJAG_clean_sbu_0, # of connection points: 4
#     Node 9, Type 1, BuildingBlock: GALJAG_clean_sbu_0, # of connection points: 4
#     Node 10, Type 1, BuildingBlock: GALJAG_clean_sbu_0, # of connection points: 4
#     Node 11, Type 1, BuildingBlock: GALJAG_clean_sbu_0, # of connection points: 4
#     Node 12, Type 1, BuildingBlock: GALJAG_clean_sbu_0, # of connection points: 4
#     Node 13, Type 1, BuildingBlock: GALJAG_clean_sbu_0, # of connection points: 4
#     Node 14, Type 1, BuildingBlock: GALJAG_clean_sbu_0, # of connection points: 4
#     Node 15, Type 1, BuildingBlock: GALJAG_clean_sbu_0, # of connection points: 4
#     Edge 16, Type (0, 1), None
#     Edge 17, Type (0, 1), None
#     Edge 18, Type (0, 1), None
#     Edge 19, Type (0, 1), None
#     Edge 20, Type (0, 1), None
#     Edge 21, Type (0, 1), None
#     Edge 22, Type (0, 1), None
#     Edge 23, Type (0, 1), None
#     Edge 24, Type (0, 1), None
#     Edge 25, Type (0, 1), None
#     Edge 26, Type (0, 1), None
#     Edge 27, Type (0, 1), None
#     Edge 28, Type (0, 1), None
#     Edge 29, Type (0, 1), None
#     Edge 30, Type (0, 1), None
#     Edge 31, Type (0, 1), None
#     Edge 32, Type (0, 1), None
#     Edge 33, Type (0, 1), None
#     Edge 34, Type (0, 1), None
#     Edge 35, Type (0, 1), None
#     Edge 36, Type (0, 1), None
#     Edge 37, Type (0, 1), None
#     Edge 38, Type (0, 1), None
#     Edge 39, Type (0, 1), None
#     Edge 40, Type (0, 1), None
#     Edge 41, Type (0, 1), None
#     Edge 42, Type (0, 1), None
#     Edge 43, Type (0, 1), None
#     Edge 44, Type (0, 1), None
#     Edge 45, Type (0, 1), None
#     Edge 46, Type (0, 1), None
#     Edge 47, Type (0, 1), None
# Relax obj value: 0.156
# Max RMSD: 0.187
# Mean RMSD: 0.149
data_MOF--net-wbl--node1-MUDLON_clean_sbu_0--node2-GALJAG_clean_sbu_0--edge1-none
_symmetry_space_group_name_H-M    P1
_symmetry_Int_Tables_number       1
_symmetry_cell_setting            triclinic
loop_
_symmetry_equiv_pos_as_xyz
'x, y, z'
_cell_length_a     15.8949
_cell_length_b     15.934841
_cell_length_c     35.302309
_cell_angle_alpha  89.84948
_cell_angle_beta   90.180952
_cell_angle_gamma 89.992197
loop_
_atom_site_label
_atom_site_type_symbol
_atom_site_fract_x
_atom_site_fract_y
_atom_site_fract_z
_atom_type_partial_charge
Mg0 Mg -0.00132 0.0184 0.39914 0.0
C1 C 0.01135 0.86164 0.44421 0.0
O2 O 0.05889 0.83326 0.41677 0.0
C3 C 0.83656 0.0267 0.35429 0.0
O4 O 0.83132 0.94892 0.36645 0.0
C5 C 0.10977 0.92057 0.34509 0.0
O6 O 0.03929 0.87977 0.33896 0.0
O7 O 0.11083 0.98213 0.36799 0.0
O8 O 0.95818 0.91863 0.43666 0.0
O9 O 0.0226 0.10273 0.44561 0.0
C10 C 0.96648 0.15727 0.45209 0.0
O11 O 0.91889 0.18322 0.42393 0.0
O12 O 0.90056 0.07029 0.36282 0.0
Mg13 Mg 0.97791 0.52396 0.64842 0.0
C14 C 0.13385 0.54436 0.69457 0.0
O15 O 0.15411 0.59742 0.66764 0.0
C16 C 0.96149 0.35292 0.61074 0.0
O17 O 0.03246 0.33858 0.62877 0.0
C18 C 0.0714 0.63878 0.5936 0.0
O19 O 0.11924 0.57236 0.5892 0.0
O20 O 0.0085 0.6357 0.61579 0.0
O21 O 0.07693 0.49046 0.68809 0.0
O22 O 0.8896 0.54732 0.69336 0.0
C23 C 0.83722 0.48916 0.69991 0.0
O24 O 0.81024 0.44345 0.67147 0.0
O25 O 0.92712 0.4245 0.613 0.0
Mg26 Mg 0.48508 0.46131 0.89821 0.0
C27 C 0.47053 0.61421 0.9467 0.0
O28 O 0.41715 0.63777 0.92033 0.0
C29 C 0.65237 0.45536 0.85754 0.0
O30 O 0.65945 0.53007 0.87285 0.0
C31 C 0.37749 0.56416 0.84399 0.0
O32 O 0.44753 0.60706 0.84036 0.0
O33 O 0.37554 0.50009 0.86556 0.0
O34 O 0.52125 0.55486 0.93968 0.0
O35 O 0.45701 0.36935 0.94117 0.0
C36 C 0.51582 0.31753 0.94758 0.0
O37 O 0.55967 0.28972 0.91875 0.0
O38 O 0.5857 0.41329 0.86265 0.0
Mg39 Mg 0.49169 0.00278 0.14862 0.0
C40 C 0.64524 0.01656 0.19604 0.0
O41 O 0.6739 0.06713 0.1697 0.0
C42 C 0.48536 0.84136 0.10293 0.0
O43 O 0.56243 0.83336 0.11594 0.0
C44 C 0.59022 0.11869 0.09646 0.0
O45 O 0.63534 0.05068 0.09129 0.0
O46 O 0.52656 0.11654 0.11825 0.0
O47 O 0.59016 0.9626 0.18701 0.0
O48 O 0.40258 0.02106 0.19397 0.0
C49 C 0.34742 0.96438 0.19828 0.0
O50 O 0.32514 0.91906 0.16891 0.0
O51 O 0.44308 0.90629 0.11106 0.0
Mg52 Mg 0.02326 0.47865 0.95194 0.0
C53 C 0.04287 0.63444 0.90591 0.0
O54 O 0.09589 0.65491 0.93288 0.0
C55 C 0.85218 0.46196 0.98989 0.0
O56 O 0.83781 0.53314 0.97219 0.0
C57 C 0.13808 0.57228 1.00684 0.0
O58 O 0.07138 0.61982 1.01127 0.0
O59 O 0.13515 0.50958 0.98461 0.0
O60 O 0.98916 0.57734 0.91232 0.0
O61 O 0.04719 0.39073 0.90697 0.0
C62 C 0.98919 0.33816 0.90039 0.0
O63 O 0.94351 0.311 0.92881 0.0
O64 O 0.92379 0.42749 0.98731 0.0
Mg65 Mg 0.51765 0.49928 0.20157 0.0
C66 C 0.3606 0.5125 0.15642 0.0
O67 O 0.33214 0.55995 0.18385 0.0
C68 C 0.52553 0.33739 0.24631 0.0
O69 O 0.44769 0.33214 0.23396 0.0
C70 C 0.41989 0.61058 0.25549 0.0
O71 O 0.37882 0.5404 0.26164 0.0
O72 O 0.48165 0.61141 0.23263 0.0
O73 O 0.41749 0.45922 0.16401 0.0
O74 O 0.60231 0.52258 0.15512 0.0
C75 C 0.65664 0.46626 0.14863 0.0
O76 O 0.68233 0.41859 0.17677 0.0
O77 O 0.56926 0.4013 0.23795 0.0
Mg78 Mg 0.50207 0.99234 0.45174 0.0
C79 C 0.51493 0.1457 0.40442 0.0
O80 O 0.56545 0.17453 0.4308 0.0
C81 C 0.34078 0.98563 0.49774 0.0
O82 O 0.33285 0.06276 0.48504 0.0
C83 C 0.61797 0.09106 0.50396 0.0
O84 O 0.54966 0.13585 0.50916 0.0
O85 O 0.61599 0.02759 0.48214 0.0
O86 O 0.46119 0.0904 0.41339 0.0
O87 O 0.52088 0.90356 0.40638 0.0
C88 C 0.46436 0.84823 0.40205 0.0
O89 O 0.41911 0.82574 0.43142 0.0
O90 O 0.40562 0.9434 0.48928 0.0
Mg91 Mg 0.96053 0.98577 0.70249 0.0
C92 C 0.11372 0.97038 0.65405 0.0
O93 O 0.13698 0.9169 0.68038 0.0
C94 C 0.95482 0.15306 0.74288 0.0
O95 O 0.02946 0.16016 0.72735 0.0
C96 C 0.06313 0.87814 0.75673 0.0
O97 O 0.10631 0.9479 0.76038 0.0
O98 O -0.00108 0.87634 0.73513 0.0
O99 O 0.05458 0.02136 0.66109 0.0
O100 O 0.86835 0.95831 0.65942 0.0
C101 C 0.81667 0.01722 0.65301 0.0
O102 O 0.78894 0.06105 0.68184 0.0
O103 O 0.91275 0.08638 0.73802 0.0
In104 In 0.36872 0.63633 0.05332 0.0
O105 O 0.36891 0.77337 0.0722 0.0
O106 O 0.4824 0.70244 0.07814 0.0
C107 C 0.21804 0.59502 1.02478 0.0
C108 C 0.35703 0.54765 0.11798 0.0
C109 C 0.4471 0.62999 0.98617 0.0
O110 O 0.2318 0.66679 0.03896 0.0
O111 O 0.27948 0.54482 1.02544 0.0
O112 O 0.4637 0.57826 1.01258 0.0
O113 O 0.39379 0.68576 0.99432 0.0
C114 C 0.44495 0.77136 0.08308 0.0
O115 O 0.40796 0.52696 0.09199 0.0
O116 O 0.31216 0.61098 0.11078 0.0
In117 In 0.33568 0.83626 0.30019 0.0
O118 O 0.31975 0.69602 0.28847 0.0
O119 O 0.43277 0.75594 0.27024 0.0
C120 C 0.18846 0.89103 0.32821 0.0
C121 C 0.33559 0.928 0.23607 0.0
C122 C 0.42784 0.83632 0.36427 0.0
O123 O 0.19509 0.82057 0.312 0.0
O124 O 0.25542 0.93321 0.33021 0.0
O125 O 0.44487 0.88424 0.33663 0.0
O126 O 0.36576 0.78838 0.35921 0.0
C127 C 0.39038 0.68922 0.27229 0.0
O128 O 0.38366 0.94509 0.2637 0.0
O129 O 0.28759 0.86604 0.24115 0.0
In130 In 0.13548 0.86902 0.54734 0.0
O131 O 0.07747 0.96369 0.58818 0.0
O132 O 0.18517 0.89373 0.60636 0.0
C133 C 0.04649 0.85774 0.48267 0.0
C134 C 0.09412 0.7186 0.57573 0.0
C135 C 0.27072 0.9452 0.5176 0.0
O136 O 0.0258 0.90841 0.50872 0.0
O137 O 0.10994 0.81288 0.48982 0.0
O138 O 0.27274 0.86924 0.52831 0.0
O139 O 0.20171 0.98258 0.52271 0.0
C140 C 0.12937 0.94699 0.61456 0.0
O141 O 0.16608 0.73243 0.5616 0.0
O142 O 0.04375 0.77985 0.57509 0.0
In143 In 0.15196 0.65298 0.80029 0.0
O144 O 0.05026 0.6006 0.83977 0.0
O145 O 0.12825 0.70042 0.85959 0.0
C146 C 0.14857 0.57126 0.73373 0.0
C147 C 0.29943 0.59485 0.82669 0.0
C148 C 0.0938 0.8002 0.77398 0.0
O149 O 0.09967 0.5516 0.76068 0.0
O150 O 0.19971 0.62956 0.74099 0.0
O151 O 0.16694 0.79302 0.78796 0.0
O152 O 0.05027 0.73399 0.77384 0.0
C153 C 0.06986 0.64931 0.86677 0.0
O154 O 0.29233 0.66785 0.81275 0.0
O155 O 0.23304 0.55147 0.82674 0.0
In156 In 0.84363 0.15661 0.55482 0.0
O157 O 0.84678 0.29229 0.5756 0.0
O158 O 0.95356 0.21379 0.58643 0.0
C159 C 0.69717 0.11542 0.52221 0.0
C160 C 0.82023 0.05969 0.61613 0.0
C161 C 0.93255 0.16359 0.49052 0.0
O162 O 0.70743 0.18546 0.53866 0.0
O163 O 0.76043 0.06745 0.5221 0.0
O164 O 0.9468 0.10827 0.51571 0.0
O165 O 0.87486 0.21522 0.4982 0.0
C166 C 0.91973 0.28499 0.58997 0.0
O167 O 0.87286 0.04011 0.59061 0.0
O168 O 0.78029 0.12698 0.61038 0.0
In169 In 0.85669 0.35718 0.80016 0.0
O170 O 0.89289 0.46766 0.76245 0.0
O171 O 0.79203 0.38733 0.74476 0.0
C172 C 0.95035 0.33824 0.86268 0.0
C173 C 0.91915 0.22361 0.76408 0.0
C174 C 0.72296 0.41967 0.83629 0.0
O175 O 0.96754 0.39346 0.83782 0.0
O176 O 0.88712 0.29285 0.85556 0.0
O177 O 0.72242 0.34583 0.82272 0.0
O178 O 0.78999 0.4608 0.83137 0.0
C179 C 0.83747 0.45043 0.73761 0.0
O180 O 0.84521 0.22314 0.77773 0.0
O181 O 0.96039 0.29051 0.7689 0.0
In182 In 0.65569 0.344 0.04579 0.0
O183 O 0.68475 0.20814 0.06186 0.0
O184 O 0.56635 0.26081 0.0784 0.0
C185 C 0.78421 0.42014 1.01066 0.0
C186 C 0.66287 0.43246 0.11019 0.0
C187 C 0.55842 0.3209 0.98447 0.0
O188 O 0.79158 0.34725 1.02486 0.0
O189 O 0.71288 0.4539 1.01436 0.0
O190 O 0.53884 0.37331 1.01005 0.0
O191 O 0.62586 0.28101 0.99019 0.0
C192 C 0.61453 0.19777 0.07827 0.0
O193 O 0.60737 0.4468 0.08501 0.0
O194 O 0.71455 0.37488 0.10245 0.0
In195 In 0.63022 0.13136 0.30026 0.0
O196 O 0.52624 0.09161 0.34105 0.0
O197 O 0.60723 0.19396 0.35632 0.0
C198 C 0.64599 0.04821 0.23502 0.0
C199 C 0.76569 0.06436 0.33364 0.0
C200 C 0.56318 0.26662 0.26694 0.0
O201 O 0.59065 0.02773 0.25934 0.0
O202 O 0.69321 0.10868 0.24424 0.0
O203 O 0.63916 0.26607 0.27835 0.0
O204 O 0.52195 0.20005 0.27291 0.0
C205 C 0.54667 0.14672 0.36545 0.0
O206 O 0.76516 0.14022 0.32233 0.0
O207 O 0.69899 0.02325 0.32754 0.0
loop_
_geom_bond_atom_site_label_1
_geom_bond_atom_site_label_2
_geom_bond_distance
_geom_bond_site_symmetry_2
_ccdc_geom_bond_type
Mg0 O7 2.141 1_545 S
Mg0 O8 2.048 1_545 S
Mg0 O9 2.048 1_455 S
Mg0 O12 2.141 1_455 S
C1 O2 1.313 . S
C1 O8 1.195 . S
O2 C1 1.313 . S
C3 O4 1.245 . S
C3 O12 1.289 . S
O4 C3 1.245 . S
C5 O6 1.245 . S
C5 O7 1.289 . S
O6 C5 1.245 . S
O7 Mg0 2.141 1_565 S
O7 C5 1.289 . S
O8 Mg0 2.048 1_565 S
O8 C1 1.195 . S
O9 Mg0 2.048 1_655 S
O9 C10 1.195 . S
C10 O9 1.195 . S
C10 O11 1.313 1_545 S
O11 C10 1.313 1_565 S
O12 Mg0 2.141 1_655 S
O12 C3 1.289 . S
Mg13 O20 2.141 1_655 S
Mg13 O21 2.048 1_655 S
Mg13 O22 2.048 . S
Mg13 O25 2.141 . S
C14 O15 1.313 . S
C14 O21 1.195 . S
O15 C14 1.313 . S
C16 O17 1.245 . S
C16 O25 1.289 . S
O17 C16 1.245 . S
C18 O19 1.245 . S
C18 O20 1.289 . S
O19 C18 1.245 . S
O20 Mg13 2.141 1_455 S
O20 C18 1.289 . S
O21 Mg13 2.048 1_455 S
O21 C14 1.195 . S
O22 Mg13 2.048 . S
O22 C23 1.195 . S
C23 O22 1.195 . S
C23 O24 1.313 1_655 S
O24 C23 1.313 1_455 S
O25 Mg13 2.141 . S
O25 C16 1.289 . S
Mg26 O33 2.141 . S
Mg26 O34 2.048 . S
Mg26 O35 2.048 . S
Mg26 O38 2.141 . S
C27 O28 1.313 . S
C27 O34 1.195 . S
O28 C27 1.313 . S
C29 O30 1.245 . S
C29 O38 1.289 . S
O30 C29 1.245 . S
C31 O32 1.245 . S
C31 O33 1.289 . S
O32 C31 1.245 . S
O33 Mg26 2.141 . S
O33 C31 1.289 . S
O34 Mg26 2.048 . S
O34 C27 1.195 . S
O35 Mg26 2.048 . S
O35 C36 1.195 . S
C36 O35 1.195 . S
C36 O37 1.313 . S
O37 C36 1.313 . S
O38 Mg26 2.141 . S
O38 C29 1.289 . S
Mg39 O46 2.141 . S
Mg39 O47 2.048 . S
Mg39 O48 2.048 1_545 S
Mg39 O51 2.141 1_545 S
C40 O41 1.313 . S
C40 O47 1.195 . S
O41 C40 1.313 . S
C42 O43 1.245 . S
C42 O51 1.289 . S
O43 C42 1.245 . S
C44 O45 1.245 . S
C44 O46 1.289 . S
O45 C44 1.245 . S
O46 Mg39 2.141 . S
O46 C44 1.289 . S
O47 Mg39 2.048 . S
O47 C40 1.195 . S
O48 Mg39 2.048 1_565 S
O48 C49 1.195 . S
C49 O48 1.195 . S
C49 O50 1.313 . S
O50 C49 1.313 . S
O51 Mg39 2.141 1_565 S
O51 C42 1.289 . S
Mg52 O59 2.141 . S
Mg52 O60 2.048 . S
Mg52 O61 2.048 1_455 S
Mg52 O64 2.141 1_455 S
C53 O54 1.313 . S
C53 O60 1.195 . S
O54 C53 1.313 . S
C55 O56 1.245 . S
C55 O64 1.289 . S
O56 C55 1.245 . S
C57 O58 1.245 . S
C57 O59 1.289 . S
O58 C57 1.245 . S
O59 Mg52 2.141 . S
O59 C57 1.289 . S
O60 Mg52 2.048 . S
O60 C53 1.195 . S
O61 Mg52 2.048 1_655 S
O61 C62 1.195 . S
C62 O61 1.195 . S
C62 O63 1.313 . S
O63 C62 1.313 . S
O64 Mg52 2.141 1_655 S
O64 C55 1.289 . S
Mg65 O72 2.141 . S
Mg65 O73 2.048 . S
Mg65 O74 2.048 . S
Mg65 O77 2.141 . S
C66 O67 1.313 . S
C66 O73 1.195 . S
O67 C66 1.313 . S
C68 O69 1.245 . S
C68 O77 1.289 . S
O69 C68 1.245 . S
C70 O71 1.245 . S
C70 O72 1.289 . S
O71 C70 1.245 . S
O72 Mg65 2.141 . S
O72 C70 1.289 . S
O73 Mg65 2.048 . S
O73 C66 1.195 . S
O74 Mg65 2.048 . S
O74 C75 1.195 . S
C75 O74 1.195 . S
C75 O76 1.313 . S
O76 C75 1.313 . S
O77 Mg65 2.141 . S
O77 C68 1.289 . S
Mg78 O85 2.141 1_565 S
Mg78 O86 2.048 1_565 S
Mg78 O87 2.048 . S
Mg78 O90 2.141 . S
C79 O80 1.313 . S
C79 O86 1.195 . S
O80 C79 1.313 . S
C81 O82 1.245 . S
C81 O90 1.289 . S
O82 C81 1.245 . S
C83 O84 1.245 . S
C83 O85 1.289 . S
O84 C83 1.245 . S
O85 Mg78 2.141 1_545 S
O85 C83 1.289 . S
O86 Mg78 2.048 1_545 S
O86 C79 1.195 . S
O87 Mg78 2.048 . S
O87 C88 1.195 . S
C88 O87 1.195 . S
C88 O89 1.313 1_565 S
O89 C88 1.313 1_545 S
O90 Mg78 2.141 . S
O90 C81 1.289 . S
Mg91 O98 2.141 1_655 S
Mg91 O99 2.048 1_655 S
Mg91 O100 2.048 1_565 S
Mg91 O103 2.141 1_565 S
C92 O93 1.313 . S
C92 O99 1.195 . S
O93 C92 1.313 . S
C94 O95 1.245 . S
C94 O103 1.289 . S
O95 C94 1.245 . S
C96 O97 1.245 . S
C96 O98 1.289 . S
O97 C96 1.245 . S
O98 Mg91 2.141 1_455 S
O98 C96 1.289 . S
O99 Mg91 2.048 1_455 S
O99 C92 1.195 . S
O100 Mg91 2.048 1_545 S
O100 C101 1.195 . S
C101 O100 1.195 . S
C101 O102 1.313 1_655 S
O102 C101 1.313 1_455 S
O103 Mg91 2.141 1_545 S
O103 C94 1.289 . S
In104 O105 2.294 . S
In104 O106 2.326 . S
In104 O110 2.266 . S
In104 O111 2.323 1_554 S
In104 O112 2.266 1_554 S
In104 O113 2.326 1_554 S
In104 O115 2.294 . S
In104 O116 2.326 . S
O105 In104 2.294 . S
O105 C114 1.240 . S
O106 In104 2.326 . S
O106 C114 1.252 . S
C107 O110 1.252 1_556 S
C107 O111 1.261 . S
C108 O115 1.240 . S
C108 O116 1.252 . S
C109 O112 1.252 . S
C109 O113 1.260 . S
O110 In104 2.266 . S
O110 C107 1.252 1_554 S
O111 In104 2.323 1_556 S
O111 C107 1.261 . S
O112 In104 2.266 1_556 S
O112 C109 1.252 . S
O113 In104 2.326 1_556 S
O113 C109 1.260 . S
C114 O105 1.240 . S
C114 O106 1.252 . S
O115 In104 2.294 . S
O115 C108 1.240 . S
O116 In104 2.326 . S
O116 C108 1.252 . S
In117 O118 2.294 . S
In117 O119 2.326 . S
In117 O123 2.266 . S
In117 O124 2.326 . S
In117 O125 2.266 . S
In117 O126 2.326 . S
In117 O128 2.294 . S
In117 O129 2.326 . S
O118 In117 2.294 . S
O118 C127 1.240 . S
O119 In117 2.326 . S
O119 C127 1.252 . S
C120 O123 1.252 . S
C120 O124 1.260 . S
C121 O128 1.240 . S
C121 O129 1.252 . S
C122 O125 1.252 . S
C122 O126 1.260 . S
O123 In117 2.266 . S
O123 C120 1.252 . S
O124 In117 2.326 . S
O124 C120 1.260 . S
O125 In117 2.266 . S
O125 C122 1.252 . S
O126 In117 2.326 . S
O126 C122 1.260 . S
C127 O118 1.240 . S
C127 O119 1.252 . S
O128 In117 2.294 . S
O128 C121 1.240 . S
O129 In117 2.326 . S
O129 C121 1.252 . S
In130 O131 2.294 . S
In130 O132 2.326 . S
In130 O136 2.266 . S
In130 O137 2.326 . S
In130 O138 2.266 . S
In130 O139 2.326 . S
In130 O141 2.294 . S
In130 O142 2.326 . S
O131 In130 2.294 . S
O131 C140 1.240 . S
O132 In130 2.326 . S
O132 C140 1.252 . S
C133 O136 1.252 . S
C133 O137 1.260 . S
C134 O141 1.240 . S
C134 O142 1.252 . S
C135 O138 1.252 . S
C135 O139 1.260 . S
O136 In130 2.266 . S
O136 C133 1.252 . S
O137 In130 2.326 . S
O137 C133 1.260 . S
O138 In130 2.266 . S
O138 C135 1.252 . S
O139 In130 2.326 . S
O139 C135 1.260 . S
C140 O131 1.240 . S
C140 O132 1.252 . S
O141 In130 2.294 . S
O141 C134 1.240 . S
O142 In130 2.326 . S
O142 C134 1.252 . S
In143 O144 2.294 . S
In143 O145 2.326 . S
In143 O149 2.266 . S
In143 O150 2.326 . S
In143 O151 2.266 . S
In143 O152 2.326 . S
In143 O154 2.294 . S
In143 O155 2.326 . S
O144 In143 2.294 . S
O144 C153 1.240 . S
O145 In143 2.326 . S
O145 C153 1.252 . S
C146 O149 1.252 . S
C146 O150 1.260 . S
C147 O154 1.240 . S
C147 O155 1.252 . S
C148 O151 1.252 . S
C148 O152 1.260 . S
O149 In143 2.266 . S
O149 C146 1.252 . S
O150 In143 2.326 . S
O150 C146 1.260 . S
O151 In143 2.266 . S
O151 C148 1.252 . S
O152 In143 2.326 . S
O152 C148 1.260 . S
C153 O144 1.240 . S
C153 O145 1.252 . S
O154 In143 2.294 . S
O154 C147 1.240 . S
O155 In143 2.326 . S
O155 C147 1.252 . S
In156 O157 2.294 . S
In156 O158 2.326 . S
In156 O162 2.266 . S
In156 O163 2.326 . S
In156 O164 2.266 . S
In156 O165 2.326 . S
In156 O167 2.294 . S
In156 O168 2.326 . S
O157 In156 2.294 . S
O157 C166 1.240 . S
O158 In156 2.326 . S
O158 C166 1.252 . S
C159 O162 1.252 . S
C159 O163 1.260 . S
C160 O167 1.240 . S
C160 O168 1.252 . S
C161 O164 1.252 . S
C161 O165 1.260 . S
O162 In156 2.266 . S
O162 C159 1.252 . S
O163 In156 2.326 . S
O163 C159 1.260 . S
O164 In156 2.266 . S
O164 C161 1.252 . S
O165 In156 2.326 . S
O165 C161 1.260 . S
C166 O157 1.240 . S
C166 O158 1.252 . S
O167 In156 2.294 . S
O167 C160 1.240 . S
O168 In156 2.326 . S
O168 C160 1.252 . S
In169 O170 2.294 . S
In169 O171 2.326 . S
In169 O175 2.266 . S
In169 O176 2.326 . S
In169 O177 2.266 . S
In169 O178 2.326 . S
In169 O180 2.294 . S
In169 O181 2.326 . S
O170 In169 2.294 . S
O170 C179 1.240 . S
O171 In169 2.326 . S
O171 C179 1.252 . S
C172 O175 1.252 . S
C172 O176 1.260 . S
C173 O180 1.240 . S
C173 O181 1.252 . S
C174 O177 1.252 . S
C174 O178 1.260 . S
O175 In169 2.266 . S
O175 C172 1.252 . S
O176 In169 2.326 . S
O176 C172 1.260 . S
O177 In169 2.266 . S
O177 C174 1.252 . S
O178 In169 2.326 . S
O178 C174 1.260 . S
C179 O170 1.240 . S
C179 O171 1.252 . S
O180 In169 2.294 . S
O180 C173 1.240 . S
O181 In169 2.326 . S
O181 C173 1.252 . S
In182 O183 2.294 . S
In182 O184 2.326 . S
In182 O188 2.266 . S
In182 O189 2.326 1_554 S
In182 O190 2.266 1_554 S
In182 O191 2.326 1_554 S
In182 O193 2.294 . S
In182 O194 2.326 . S
O183 In182 2.294 . S
O183 C192 1.240 . S
O184 In182 2.326 . S
O184 C192 1.252 . S
C185 O188 1.252 1_556 S
C185 O189 1.260 . S
C186 O193 1.240 . S
C186 O194 1.252 . S
C187 O190 1.252 . S
C187 O191 1.260 . S
O188 In182 2.266 . S
O188 C185 1.252 1_554 S
O189 In182 2.326 1_556 S
O189 C185 1.260 . S
O190 In182 2.266 1_556 S
O190 C187 1.252 . S
O191 In182 2.326 1_556 S
O191 C187 1.260 . S
C192 O183 1.240 . S
C192 O184 1.252 . S
O193 In182 2.294 . S
O193 C186 1.240 . S
O194 In182 2.326 . S
O194 C186 1.252 . S
In195 O196 2.294 . S
In195 O197 2.326 . S
In195 O201 2.266 . S
In195 O202 2.326 . S
In195 O203 2.266 . S
In195 O204 2.326 . S
In195 O206 2.294 . S
In195 O207 2.326 . S
O196 In195 2.294 . S
O196 C205 1.240 . S
O197 In195 2.326 . S
O197 C205 1.252 . S
C198 O201 1.252 . S
C198 O202 1.260 . S
C199 O206 1.240 . S
C199 O207 1.252 . S
C200 O203 1.252 . S
C200 O204 1.260 . S
O201 In195 2.266 . S
O201 C198 1.252 . S
O202 In195 2.326 . S
O202 C198 1.260 . S
O203 In195 2.266 . S
O203 C200 1.252 . S
O204 In195 2.326 . S
O204 C200 1.260 . S
C205 O196 1.240 . S
C205 O197 1.252 . S
O206 In195 2.294 . S
O206 C199 1.240 . S
O207 In195 2.326 . S
O207 C199 1.252 . S
C120 C5 1.355 . S
C134 C18 1.350 . S
C147 C31 1.357 . S
C42 C114 1.355 . S
C57 C107 1.367 . S
C70 C127 1.362 . S
C135 C81 1.357 . S
C148 C96 1.360 . S
C29 C174 1.352 . S
C192 C44 1.350 . S
C3 C199 1.358 . S
C166 C16 1.356 . S
C83 C159 1.368 . S
C94 C173 1.360 . S
C185 C55 1.356 . S
C68 C200 1.355 . S
C133 C1 1.717 . S
C146 C14 1.715 . S
C27 C109 1.709 . S
C49 C121 1.817 . S
C53 C153 1.686 . S
C108 C66 1.684 . S
C122 C88 1.852 . S
C140 C92 1.692 . S
C187 C36 1.853 . S
C198 C40 1.717 . S
C10 C161 1.844 . S
C179 C23 1.819 . S
C205 C79 1.685 . S
C101 C160 1.815 . S
C172 C62 1.851 . S
C186 C75 1.825 . S
