# Generated by pormake.
# Topology pts, (4,4)-cn, num edge types: 1
# Building blocks:
#     Node 0, Type 0, BuildingBlock: KOZSID_clean_sbu_0, # of connection points: 4
#     Node 1, Type 0, BuildingBlock: KOZSID_clean_sbu_0, # of connection points: 4
#     Node 2, Type 1, BuildingBlock: AZAVOO_clean_sbu_0, # of connection points: 4
#     Node 3, Type 1, BuildingBlock: AZAVOO_clean_sbu_0, # of connection points: 4
#     Edge 4, Type (0, 1), None
#     Edge 5, Type (0, 1), None
#     Edge 6, Type (0, 1), None
#     Edge 7, Type (0, 1), None
#     Edge 8, Type (0, 1), None
#     Edge 9, Type (0, 1), None
#     Edge 10, Type (0, 1), None
#     Edge 11, Type (0, 1), None
# Relax obj value: 0.000
# Max RMSD: 0.042
# Mean RMSD: 0.021
data_MOF--net-pts--node1-KOZSID_clean_sbu_0--node2-AZAVOO_clean_sbu_0--edge1-none
_symmetry_space_group_name_H-M    P1
_symmetry_Int_Tables_number       1
_symmetry_cell_setting            triclinic
loop_
_symmetry_equiv_pos_as_xyz
'x, y, z'
_cell_length_a     13.313316
_cell_length_b     13.705145
_cell_length_c     20.011056
_cell_angle_alpha  82.43587
_cell_angle_beta   105.8128
_cell_angle_gamma 90.903438
loop_
_atom_site_label
_atom_site_type_symbol
_atom_site_fract_x
_atom_site_fract_y
_atom_site_fract_z
_atom_type_partial_charge
C0 C 0.80404 0.1668 0.11923 0.0
C1 C 0.84581 0.25577 0.1386 0.0
C2 C 0.77869 0.32818 0.09812 0.0
C3 C 0.69988 0.2797 0.0567 0.0
N4 N 0.71282 0.18072 0.06776 0.0
Co5 Co 0.61461 0.08303 0.01953 0.0
N6 N 0.52019 0.18984 0.95652 0.0
C7 C 0.53566 0.28781 0.95405 0.0
C8 C 0.45865 0.34369 0.90504 0.0
C9 C 0.38995 0.2774 0.87402 0.0
C10 C 0.42932 0.18439 0.90591 0.0
N11 N 0.51356 0.98504 0.97428 0.0
C12 C 0.42069 0.9988 0.92455 0.0
C13 C 0.37267 0.90988 0.91118 0.0
C14 C 0.4376 0.83749 0.95357 0.0
C15 C 0.52082 0.88595 0.9906 0.0
N16 N 0.71187 0.97575 0.07949 0.0
C17 C 0.70185 0.87783 0.07675 0.0
C18 C 0.78248 0.82186 0.12209 0.0
C19 C 0.84844 0.8879 0.15571 0.0
C20 C 0.80331 0.9808 0.1294 0.0
N21 N 0.53565 0.08266 0.09138 0.0
C22 C 0.41674 0.07537 0.18963 0.0
C23 C 0.47233 0.99287 0.18368 0.0
C24 C 0.52943 0.99767 0.13444 0.0
C25 C 0.4226 0.16252 0.14603 0.0
C26 C 0.48353 0.16499 0.09833 0.0
N27 N 0.69394 0.08308 0.94798 0.0
C28 C 0.76455 0.9943 0.8735 0.0
C29 C 0.82071 0.076 0.8556 0.0
C30 C 0.80989 0.16252 0.88325 0.0
C31 C 0.74557 0.16482 0.9283 0.0
C32 C 0.70273 0.99921 0.91932 0.0
H33 H 0.73945 0.2334 0.94692 0.0
H34 H 0.66379 0.93349 0.93136 0.0
H35 H 0.56683 0.93074 0.1319 0.0
H36 H 0.48678 0.23419 0.06749 0.0
C37 C 0.61806 0.32499 1.00271 0.0
C38 C 0.85208 0.07114 0.15292 0.0
C39 C 0.37549 0.09374 0.88721 0.0
C40 C 0.61068 0.84031 0.03658 0.0
H41 H 0.91754 0.26691 0.17794 0.0
H42 H 0.78725 0.40687 0.09804 0.0
H43 H 0.45184 0.42318 0.8944 0.0
H44 H 0.31779 0.29518 0.83342 0.0
H45 H 0.29877 0.89879 0.87391 0.0
H46 H 0.42643 0.75881 0.95613 0.0
H47 H 0.79123 0.74244 0.13067 0.0
H48 H 0.92156 0.86998 0.19533 0.0
H49 H 0.46995 0.92324 0.21584 0.0
H50 H 0.3815 0.22862 0.14916 0.0
H51 H 0.76941 0.92554 0.85323 0.0
H52 H 0.85036 0.22834 0.87004 0.0
C53 C 0.24821 0.44878 0.63928 0.0
C54 C 0.34666 0.41917 0.68224 0.0
C55 C 0.41648 0.48166 0.6609 0.0
C56 C 0.35686 0.54642 0.60706 0.0
N57 N 0.25407 0.52888 0.59359 0.0
Co58 Co 0.14043 0.6073 0.52353 0.0
N59 N 0.2391 0.66791 0.47142 0.0
C60 C 0.34417 0.66069 0.4938 0.0
C61 C 0.39184 0.69878 0.44394 0.0
C62 C 0.31234 0.73573 0.38749 0.0
C63 C 0.21924 0.72062 0.40648 0.0
N64 N 0.02655 0.68912 0.45419 0.0
C65 C 0.02994 0.7562 0.39841 0.0
C66 C 0.93272 0.80043 0.36642 0.0
C67 C 0.86783 0.76515 0.40601 0.0
C68 C 0.92825 0.69983 0.45897 0.0
N69 N 0.0419 0.54524 0.57552 0.0
C70 C 0.94483 0.57781 0.5698 0.0
C71 C 0.89775 0.52323 0.6149 0.0
C72 C 0.96946 0.45101 0.65107 0.0
C73 C 0.05627 0.46527 0.62522 0.0
N74 N 0.16356 0.71294 0.5831 0.0
C75 C 0.14673 0.86707 0.65798 0.0
C76 C 0.14835 0.76952 0.68909 0.0
C77 C 0.15984 0.69348 0.65135 0.0
C78 C 0.16505 0.88592 0.59191 0.0
C79 C 0.17288 0.80806 0.5554 0.0
N80 N 0.11732 0.49936 0.46517 0.0
C81 C 1.00582 0.3746 0.41081 0.0
C82 C 0.09136 0.32749 0.39944 0.0
C83 C 0.18909 0.37084 0.41885 0.0
C84 C 0.20063 0.45535 0.45238 0.0
C85 C 0.02011 0.46129 0.44247 0.0
H86 H 0.27825 0.48223 0.47048 0.0
H87 H 0.95298 0.49519 0.45095 0.0
H88 H 0.16027 0.61897 0.67645 0.0
H89 H 0.18146 0.82602 0.50361 0.0
C90 C 0.39474 0.60853 0.55887 0.0
C91 C 0.15052 0.40179 0.6454 0.0
C92 C 0.12381 0.78352 0.37532 0.0
C93 C 0.89611 0.64948 0.51475 0.0
H94 H 0.36601 0.35786 0.72376 0.0
H95 H 0.50079 0.47686 0.67978 0.0
H96 H 0.47458 0.69927 0.4479 0.0
H97 H 0.32395 0.77385 0.3395 0.0
H98 H 0.91195 0.85455 0.32031 0.0
H99 H 0.78691 0.78611 0.3979 0.0
H100 H 0.81921 0.53238 0.61915 0.0
H101 H 0.95797 0.39469 0.69132 0.0
H102 H 0.13762 0.75198 0.74105 0.0
H103 H 0.16649 0.96048 0.56629 0.0
H104 H 0.92863 0.34389 0.39637 0.0
H105 H 0.25769 0.33656 0.4119 0.0
Mg106 Mg 0.17438 0.05663 0.30669 0.0
O107 O 0.01947 0.07457 0.21839 0.0
O108 O 0.89081 0.03999 0.27015 0.0
Mg109 Mg 0.9598 0.00721 0.38879 0.0
C110 C 0.92269 0.06488 0.21573 0.0
C111 C 0.35322 0.0667 0.24073 0.0
O112 O 0.37363 0.99363 0.29232 0.0
O113 O 0.14358 0.20531 0.33987 0.0
O114 O 0.01828 0.16805 0.39358 0.0
O115 O 0.19099 0.89557 0.30299 0.0
O116 O 0.09993 0.95343 0.3655 0.0
C117 C 0.08174 0.22935 0.37428 0.0
C118 C 0.1347 0.87733 0.34615 0.0
O119 O 0.27238 0.1207 0.23221 0.0
Mg120 Mg 0.05638 0.10152 0.7275 0.0
O121 O 0.20994 0.10038 0.81708 0.0
O122 O 0.34543 0.09106 0.77161 0.0
Mg123 Mg 0.28167 0.09679 0.65373 0.0
C124 C 0.3081 0.09544 0.82347 0.0
C125 C 0.88857 0.06901 0.8082 0.0
O126 O 0.88085 0.99282 0.77369 0.0
O127 O 0.07689 0.26381 0.68857 0.0
O128 O 0.22042 0.2513 0.65272 0.0
O129 O 0.0635 0.93619 0.73542 0.0
O130 O 0.13376 0.03781 0.66675 0.0
C131 C 0.14918 0.30329 0.66375 0.0
C132 C 0.11623 0.94917 0.68946 0.0
O133 O 0.95643 0.13346 0.80116 0.0
loop_
_geom_bond_atom_site_label_1
_geom_bond_atom_site_label_2
_geom_bond_distance
_geom_bond_site_symmetry_2
_ccdc_geom_bond_type
C0 C1 1.443 . S
C0 N4 1.376 . S
C0 C38 1.389 . S
C1 C0 1.443 . S
C1 C2 1.340 . S
C1 H41 0.951 . S
C2 C1 1.340 . S
C2 C3 1.439 . S
C2 H42 0.950 . S
C3 C2 1.439 . S
C3 N4 1.374 . S
C3 C37 1.395 1_554 S
N4 C0 1.376 . S
N4 C3 1.374 . S
N4 Co5 2.008 . S
Co5 N4 2.008 . S
Co5 N6 1.995 1_554 S
Co5 N11 2.008 1_544 S
Co5 N16 1.995 1_545 S
Co5 N21 2.282 . S
Co5 N27 2.282 1_554 S
N6 Co5 1.995 1_556 S
N6 C7 1.376 . S
N6 C10 1.383 . S
C7 N6 1.376 . S
C7 C8 1.446 . S
C7 C37 1.391 . S
C8 C7 1.446 . S
C8 C9 1.339 . S
C8 H43 0.949 . S
C9 C8 1.339 . S
C9 C10 1.439 . S
C9 H44 0.950 . S
C10 N6 1.383 . S
C10 C9 1.439 . S
C10 C39 1.392 . S
N11 Co5 2.008 1_566 S
N11 C12 1.376 . S
N11 C15 1.374 . S
C12 N11 1.376 . S
C12 C13 1.443 . S
C12 C39 1.389 1_565 S
C13 C12 1.443 . S
C13 C14 1.340 . S
C13 H45 0.951 . S
C14 C13 1.340 . S
C14 C15 1.439 . S
C14 H46 0.950 . S
C15 N11 1.374 . S
C15 C14 1.439 . S
C15 C40 1.395 1_556 S
N16 Co5 1.995 1_565 S
N16 C17 1.376 . S
N16 C20 1.383 . S
C17 N16 1.376 . S
C17 C18 1.446 . S
C17 C40 1.391 . S
C18 C17 1.446 . S
C18 C19 1.339 . S
C18 H47 0.949 . S
C19 C18 1.339 . S
C19 C20 1.439 . S
C19 H48 0.950 . S
C20 N16 1.383 . S
C20 C19 1.439 . S
C20 C38 1.392 1_565 S
N21 Co5 2.282 . S
N21 C24 1.332 1_545 S
N21 C26 1.332 . S
C22 C23 1.386 1_545 S
C22 C25 1.388 . S
C23 C22 1.386 1_565 S
C23 C24 1.382 . S
C23 H49 0.950 . S
C24 N21 1.332 1_565 S
C24 C23 1.382 . S
C24 H35 0.952 . S
C25 C22 1.388 . S
C25 C26 1.382 . S
C25 H50 0.950 . S
C26 N21 1.332 . S
C26 C25 1.382 . S
C26 H36 0.948 . S
N27 Co5 2.282 1_556 S
N27 C31 1.332 . S
N27 C32 1.340 . S
C28 C29 1.388 . S
C28 C32 1.382 . S
C28 H51 0.950 1_545 S
C29 C28 1.388 . S
C29 C30 1.386 . S
C30 C29 1.386 . S
C30 C31 1.382 . S
C30 H52 0.950 . S
C31 N27 1.332 . S
C31 C30 1.382 . S
C31 H33 0.952 . S
C32 N27 1.340 . S
C32 C28 1.382 . S
C32 H34 0.940 1_545 S
H33 C31 0.952 . S
H34 C32 0.940 1_565 S
H35 C24 0.952 . S
H36 C26 0.948 . S
C37 C3 1.395 1_556 S
C37 C7 1.391 . S
C38 C0 1.389 . S
C38 C20 1.392 1_545 S
C39 C10 1.392 . S
C39 C12 1.389 1_545 S
C40 C15 1.395 1_554 S
C40 C17 1.391 . S
H41 C1 0.951 . S
H42 C2 0.950 . S
H43 C8 0.949 . S
H44 C9 0.950 . S
H45 C13 0.951 . S
H46 C14 0.950 . S
H47 C18 0.949 . S
H48 C19 0.950 . S
H49 C23 0.950 . S
H50 C25 0.950 . S
H51 C28 0.950 1_565 S
H52 C30 0.950 . S
C53 C54 1.443 . S
C53 N57 1.376 . S
C53 C91 1.389 . S
C54 C53 1.443 . S
C54 C55 1.340 . S
C54 H94 0.951 . S
C55 C54 1.340 . S
C55 C56 1.439 . S
C55 H95 0.950 . S
C56 C55 1.439 . S
C56 N57 1.374 . S
C56 C90 1.395 . S
N57 C53 1.376 . S
N57 C56 1.374 . S
N57 Co58 2.008 . S
Co58 N57 2.008 . S
Co58 N59 1.995 . S
Co58 N64 2.008 . S
Co58 N69 1.995 . S
Co58 N74 2.282 . S
Co58 N80 2.282 . S
N59 Co58 1.995 . S
N59 C60 1.376 . S
N59 C63 1.383 . S
C60 N59 1.376 . S
C60 C61 1.446 . S
C60 C90 1.391 . S
C61 C60 1.446 . S
C61 C62 1.339 . S
C61 H96 0.949 . S
C62 C61 1.339 . S
C62 C63 1.439 . S
C62 H97 0.950 . S
C63 N59 1.383 . S
C63 C62 1.439 . S
C63 C92 1.392 . S
N64 Co58 2.008 . S
N64 C65 1.376 . S
N64 C68 1.374 1_455 S
C65 N64 1.376 . S
C65 C66 1.443 1_455 S
C65 C92 1.389 . S
C66 C65 1.443 1_655 S
C66 C67 1.340 . S
C66 H98 0.951 . S
C67 C66 1.340 . S
C67 C68 1.439 . S
C67 H99 0.950 . S
C68 N64 1.374 1_655 S
C68 C67 1.439 . S
C68 C93 1.395 . S
N69 Co58 1.995 . S
N69 C70 1.376 1_455 S
N69 C73 1.383 . S
C70 N69 1.376 1_655 S
C70 C71 1.446 . S
C70 C93 1.391 . S
C71 C70 1.446 . S
C71 C72 1.339 . S
C71 H100 0.949 . S
C72 C71 1.339 . S
C72 C73 1.439 1_655 S
C72 H101 0.950 . S
C73 N69 1.383 . S
C73 C72 1.439 1_455 S
C73 C91 1.392 . S
N74 Co58 2.282 . S
N74 C77 1.332 . S
N74 C79 1.332 . S
C75 C76 1.386 . S
C75 C78 1.388 . S
C76 C75 1.386 . S
C76 C77 1.382 . S
C76 H102 0.950 1_455 S
C77 N74 1.332 . S
C77 C76 1.382 . S
C77 H88 0.952 1_455 S
C78 C75 1.388 . S
C78 C79 1.382 . S
C78 H103 0.950 . S
C79 N74 1.332 . S
C79 C78 1.382 . S
C79 H89 0.948 . S
N80 Co58 2.282 . S
N80 C84 1.332 . S
N80 C85 1.332 . S
C81 C82 1.388 . S
C81 C85 1.382 . S
C81 H104 0.950 1_455 S
C82 C81 1.388 . S
C82 C83 1.386 . S
C83 C82 1.386 . S
C83 C84 1.382 . S
C83 H105 0.950 . S
C84 N80 1.332 . S
C84 C83 1.382 . S
C84 H86 0.952 . S
C85 N80 1.332 . S
C85 C81 1.382 . S
C85 H87 0.948 1_455 S
H86 C84 0.952 . S
H87 C85 0.948 1_655 S
H88 C77 0.952 1_655 S
H89 C79 0.948 . S
C90 C56 1.395 . S
C90 C60 1.391 . S
C91 C53 1.389 . S
C91 C73 1.392 . S
C92 C63 1.392 . S
C92 C65 1.389 . S
C93 C68 1.395 . S
C93 C70 1.391 . S
H94 C54 0.951 . S
H95 C55 0.950 . S
H96 C61 0.949 . S
H97 C62 0.950 . S
H98 C66 0.951 . S
H99 C67 0.950 . S
H100 C71 0.949 . S
H101 C72 0.950 . S
H102 C76 0.950 1_655 S
H103 C78 0.950 . S
H104 C81 0.950 1_655 S
H105 C83 0.950 . S
Mg106 O107 2.028 . S
Mg106 O113 1.986 . S
Mg106 O115 2.114 1_545 S
Mg106 O116 2.251 1_545 S
Mg106 O119 2.010 . S
O107 Mg106 2.028 . S
O107 C110 1.250 1_455 S
O108 Mg109 2.028 . S
O108 C110 1.248 . S
Mg109 O108 2.028 . S
Mg109 O114 2.032 1_655 S
Mg109 O116 2.079 1_645 S
C110 O107 1.250 1_655 S
C110 O108 1.248 . S
C111 O112 1.264 . S
C111 O119 1.249 . S
O112 C111 1.264 . S
O113 Mg106 1.986 . S
O113 C117 1.246 . S
O114 Mg109 2.032 1_455 S
O114 C117 1.259 . S
O115 Mg106 2.114 1_565 S
O115 C118 1.252 . S
O116 Mg106 2.251 1_565 S
O116 Mg109 2.079 1_465 S
O116 C118 1.273 . S
C117 O113 1.246 . S
C117 O114 1.259 . S
C118 O115 1.252 . S
C118 O116 1.273 . S
O119 Mg106 2.010 . S
O119 C111 1.249 . S
Mg120 O121 2.028 . S
Mg120 O127 1.986 . S
Mg120 O129 2.114 1_545 S
Mg120 O130 2.251 . S
Mg120 O133 2.010 1_455 S
O121 Mg120 2.028 . S
O121 C124 1.250 . S
O122 Mg123 2.028 . S
O122 C124 1.248 . S
Mg123 O122 2.028 . S
Mg123 O128 2.032 . S
Mg123 O130 2.079 . S
C124 O121 1.250 . S
C124 O122 1.248 . S
C125 O126 1.264 . S
C125 O133 1.249 . S
O126 C125 1.264 . S
O127 Mg120 1.986 . S
O127 C131 1.246 . S
O128 Mg123 2.032 . S
O128 C131 1.259 . S
O129 Mg120 2.114 1_565 S
O129 C132 1.252 . S
O130 Mg120 2.251 . S
O130 Mg123 2.079 . S
O130 C132 1.273 1_545 S
C131 O127 1.246 . S
C131 O128 1.259 . S
C132 O129 1.252 . S
C132 O130 1.273 1_565 S
O133 Mg120 2.010 1_655 S
O133 C125 1.249 . S
C111 C22 1.236 . S
C131 C91 1.461 . S
C110 C38 1.449 . S
C132 C75 1.511 . S
C124 C39 1.453 . S
C117 C82 1.467 . S
C125 C29 1.239 . S
C92 C118 1.509 . S
