# Generated by pormake.
# Topology nia, (6,6)-cn, num edge types: 1
# Building blocks:
#     Node 0, Type 0, BuildingBlock: GEDQOX_clean_sbu_0, # of connection points: 6
#     Node 1, Type 0, BuildingBlock: GEDQOX_clean_sbu_0, # of connection points: 6
#     Node 2, Type 1, BuildingBlock: MIDCAF_clean_sbu_0, # of connection points: 6
#     Node 3, Type 1, BuildingBlock: MIDCAF_clean_sbu_0, # of connection points: 6
#     Edge 4, Type (0, 1), BuildingBlock: EYOCIG_clean_linker_4, # of connection points: 2
#     Edge 5, Type (0, 1), BuildingBlock: EYOCIG_clean_linker_4, # of connection points: 2
#     Edge 6, Type (0, 1), BuildingBlock: EYOCIG_clean_linker_4, # of connection points: 2
#     Edge 7, Type (0, 1), BuildingBlock: EYOCIG_clean_linker_4, # of connection points: 2
#     Edge 8, Type (0, 1), BuildingBlock: EYOCIG_clean_linker_4, # of connection points: 2
#     Edge 9, Type (0, 1), BuildingBlock: EYOCIG_clean_linker_4, # of connection points: 2
#     Edge 10, Type (0, 1), BuildingBlock: EYOCIG_clean_linker_4, # of connection points: 2
#     Edge 11, Type (0, 1), BuildingBlock: EYOCIG_clean_linker_4, # of connection points: 2
#     Edge 12, Type (0, 1), BuildingBlock: EYOCIG_clean_linker_4, # of connection points: 2
#     Edge 13, Type (0, 1), BuildingBlock: EYOCIG_clean_linker_4, # of connection points: 2
#     Edge 14, Type (0, 1), BuildingBlock: EYOCIG_clean_linker_4, # of connection points: 2
#     Edge 15, Type (0, 1), BuildingBlock: EYOCIG_clean_linker_4, # of connection points: 2
# Relax obj value: 0.334
# Max RMSD: 0.278
# Mean RMSD: 0.252
data_MOF--net-nia--node1-GEDQOX_clean_sbu_0--node2-MIDCAF_clean_sbu_0--edge1-EYOCIG_clean_linker_4
_symmetry_space_group_name_H-M    P1
_symmetry_Int_Tables_number       1
_symmetry_cell_setting            triclinic
loop_
_symmetry_equiv_pos_as_xyz
'x, y, z'
_cell_length_a     22.885829
_cell_length_b     20.971433
_cell_length_c     28.336133
_cell_angle_alpha  104.18894
_cell_angle_beta   64.606167
_cell_angle_gamma 127.21569
loop_
_atom_site_label
_atom_site_type_symbol
_atom_site_fract_x
_atom_site_fract_y
_atom_site_fract_z
_atom_type_partial_charge
Nd0 Nd 3e-05 0.05738 1.01022 0.0
Nd1 Nd 0.04621 0.98143 0.06284 0.0
C2 C 0.00119 0.1459 0.95871 0.0
C3 C 0.98819 0.20911 0.96827 0.0
C4 C 0.05338 0.28786 0.95169 0.0
C5 C 0.04346 0.34108 0.94035 0.0
C6 C 0.96815 0.31528 0.94635 0.0
C7 C 0.90209 0.2425 0.97202 0.0
C8 C 0.91189 0.18905 0.98285 0.0
C9 C 0.86811 0.95296 0.08865 0.0
C10 C 0.05624 0.14291 0.11138 0.0
C11 C 0.04619 0.89201 0.11297 0.0
C12 C 0.05541 0.82585 0.10384 0.0
C13 C 0.98821 0.74712 0.11804 0.0
C14 C 0.99375 0.68992 0.12911 0.0
C15 C 0.06674 0.71162 0.12551 0.0
C16 C 0.13522 0.78536 0.10254 0.0
C17 C 0.12976 0.84261 0.09187 0.0
C18 C 0.17932 0.09494 0.98818 0.0
C19 C -0.0031 0.89693 0.96015 0.0
O20 O 0.06511 0.1649 0.96239 0.0
O21 O 0.93958 0.07363 0.97615 0.0
O22 O 0.86883 0.99375 0.06071 0.0
O23 O 0.93636 0.96969 0.07515 0.0
O24 O 0.04225 0.14949 0.07262 0.0
O25 O 0.05038 0.07993 0.11995 0.0
O26 O 0.98143 0.87579 0.11248 0.0
O27 O 0.10897 0.96231 0.09269 0.0
O28 O 0.18008 0.05483 1.01568 0.0
O29 O 0.10947 0.07251 1.00056 0.0
O30 O 0.01142 0.89233 0.99897 0.0
O31 O -0.00488 0.95598 0.95345 0.0
H32 H 0.11263 0.30525 0.94164 0.0
H33 H 0.09502 0.39796 0.92129 0.0
H34 H 0.84341 0.22288 0.97778 0.0
H35 H 0.86024 0.12943 0.9971 0.0
H36 H 0.93039 0.73213 0.12616 0.0
H37 H 0.94024 0.63261 0.14607 0.0
H38 H 0.19221 0.80223 0.09859 0.0
H39 H 0.18296 0.9022 0.07968 0.0
Nd40 Nd 0.95375 0.96477 0.51712 0.0
Nd41 Nd 0.10577 0.08322 0.55708 0.0
C42 C 0.85119 0.90158 0.47163 0.0
C43 C 0.78031 0.89549 0.47916 0.0
C44 C 0.78436 0.96153 0.47052 0.0
C45 C 0.71985 0.94979 0.46637 0.0
C46 C 0.65261 0.87197 0.46974 0.0
C47 C 0.644 0.80847 0.48643 0.0
C48 C 0.70812 0.81988 0.4904 0.0
C49 C 0.93738 0.88944 0.59413 0.0
C50 C 0.95989 0.1037 0.60623 0.0
C51 C 0.20855 0.13837 0.60133 0.0
C52 C 0.27782 0.14081 0.59449 0.0
C53 C 0.26929 0.07308 0.60542 0.0
C54 C 0.33034 0.08138 0.61254 0.0
C55 C 0.39998 0.15716 0.60906 0.0
C56 C 0.41301 0.22289 0.59113 0.0
C57 C 0.35193 0.21475 0.58406 0.0
C58 C 0.1166 0.15808 0.48208 0.0
C59 C 0.10428 0.95 0.46595 0.0
O60 O 0.91973 0.97069 0.45661 0.0
O61 O 0.84341 0.86311 0.50615 0.0
O62 O 0.88558 0.85763 0.57286 0.0
O63 O 0.99247 0.95999 0.57576 0.0
O64 O 0.92601 0.05118 0.57331 0.0
O65 O 0.02109 0.11766 0.61225 0.0
O66 O 0.13876 0.0703 0.61546 0.0
O67 O 0.21815 0.18048 0.56813 0.0
O68 O 0.16857 0.19253 0.50375 0.0
O69 O 0.06586 0.08665 0.49917 0.0
O70 O 0.13874 0.00398 0.49778 0.0
O71 O 0.03966 0.93115 0.46226 0.0
H72 H 0.83889 0.02076 0.4628 0.0
H73 H 0.72675 0.99926 0.45341 0.0
H74 H 0.5917 0.74804 0.48931 0.0
H75 H 0.70313 0.76822 0.49789 0.0
H76 H 0.21367 0.01488 0.61243 0.0
H77 H 0.32027 0.0299 0.62552 0.0
H78 H 0.46732 0.28177 0.58734 0.0
H79 H 0.36067 0.26766 0.57461 0.0
Zn80 Zn 0.35352 0.63825 0.19397 0.0
Zn81 Zn 0.25381 0.61029 0.38839 0.0
Zn82 Zn 0.30285 0.61897 0.29171 0.0
C83 C 0.41789 0.68544 0.34556 0.0
C84 C 0.19456 0.45836 0.37178 0.0
O85 O 0.23411 0.64909 0.27374 0.0
O86 O 0.28595 0.66055 0.18733 0.0
C87 C 0.49 0.72862 0.20482 0.0
O88 O 0.41147 0.68618 0.30305 0.0
O89 O 0.35831 0.65253 0.38652 0.0
O90 O 0.17764 0.49667 0.41079 0.0
O91 O 0.23891 0.49323 0.32598 0.0
O92 O 0.46901 0.71666 0.16731 0.0
O93 O 0.43756 0.69672 0.25033 0.0
O94 O 0.24916 0.4979 0.27153 0.0
O95 O 0.30677 0.52126 0.18606 0.0
C96 C 0.26007 0.47297 0.22466 0.0
O97 O 0.24812 0.68633 0.32459 0.0
O98 O 0.22659 0.68896 0.40883 0.0
C99 C 0.23399 0.65712 0.22991 0.0
C100 C 0.22871 0.7125 0.37087 0.0
Zn101 Zn 0.69225 0.40873 0.88514 0.0
Zn102 Zn 0.81394 0.44089 0.67298 0.0
Zn103 Zn 0.73922 0.41698 0.78232 0.0
C104 C 0.83728 0.58202 0.70784 0.0
C105 C 0.66279 0.30856 0.70513 0.0
O106 O 0.81086 0.40542 0.80711 0.0
O107 O 0.73045 0.34536 0.8846 0.0
C108 C 0.8318 0.5589 0.84811 0.0
O109 O 0.79112 0.53922 0.75063 0.0
O110 O 0.86553 0.55475 0.66652 0.0
O111 O 0.70291 0.36921 0.67618 0.0
O112 O 0.68409 0.30984 0.74029 0.0
O113 O 0.77096 0.52555 0.88882 0.0
O114 O 0.8335 0.52506 0.80375 0.0
O115 O 0.60895 0.35768 0.82633 0.0
O116 O 0.57924 0.36082 0.91162 0.0
C117 C 0.55785 0.34122 0.87324 0.0
O118 O 0.78326 0.3403 0.74505 0.0
O119 O 0.86911 0.39131 0.6656 0.0
C120 C 0.79485 0.37038 0.84644 0.0
C121 C 0.837 0.34317 0.70219 0.0
C122 C 0.09237 0.65267 0.1804 0.0
C123 C 0.07118 0.67095 0.15678 0.0
C124 C 0.12948 0.64973 0.2083 0.0
C125 C 0.17088 0.65275 0.2259 0.0
C126 C 0.48959 0.1797 0.65533 0.0
C127 C 0.44879 0.16948 0.63424 0.0
C128 C 0.5393 0.20291 0.68183 0.0
C129 C 0.59127 0.24149 0.69892 0.0
C130 C 0.1242 0.26516 0.16818 0.0
C131 C 0.09269 0.2122 0.14083 0.0
C132 C 0.16814 0.32929 0.19609 0.0
C133 C 0.20645 0.39179 0.21481 0.0
C134 C 0.90971 0.19617 0.65549 0.0
C135 C 0.93337 0.15453 0.63335 0.0
C136 C 0.88206 0.24568 0.67795 0.0
C137 C 0.85794 0.2876 0.6926 0.0
C138 C 0.72706 0.85457 0.15426 0.0
C139 C 0.79601 0.89538 0.12716 0.0
C140 C 0.64402 0.81122 0.17934 0.0
C141 C 0.57297 0.77317 0.19477 0.0
C142 C 0.91107 0.79143 0.65619 0.0
C143 C 0.93157 0.84355 0.62903 0.0
C144 C 0.88048 0.72293 0.68453 0.0
C145 C 0.85532 0.66003 0.70251 0.0
C146 C 0.16245 0.86482 0.41668 0.0
C147 C 0.13433 0.9025 0.43852 0.0
C148 C 0.18983 0.81516 0.39553 0.0
C149 C 0.20834 0.76858 0.38105 0.0
C150 C 0.31969 0.20756 0.92804 0.0
C151 C 0.25105 0.15949 0.95326 0.0
C152 C 0.40292 0.25687 0.90209 0.0
C153 C 0.47425 0.29491 0.88418 0.0
C154 C 0.12683 0.25164 0.42584 0.0
C155 C 0.11486 0.20213 0.45057 0.0
C156 C 0.1491 0.31786 0.39956 0.0
C157 C 0.17249 0.38018 0.38186 0.0
C158 C 0.93447 0.36541 0.89232 0.0
C159 C 0.9585 0.3502 0.91516 0.0
C160 C 0.89518 0.3698 0.86764 0.0
C161 C 0.85459 0.3729 0.85323 0.0
C162 C 0.57306 0.81782 0.40991 0.0
C163 C 0.61147 0.85195 0.43694 0.0
C164 C 0.53554 0.7732 0.37441 0.0
C165 C 0.4913 0.73599 0.35151 0.0
C166 C 0.96557 0.774 0.89716 0.0
C167 C 0.97951 0.83156 0.92466 0.0
C168 C 0.93689 0.70171 0.8698 0.0
C169 C 0.89615 0.63781 0.85304 0.0
loop_
_geom_bond_atom_site_label_1
_geom_bond_atom_site_label_2
_geom_bond_distance
_geom_bond_site_symmetry_2
_ccdc_geom_bond_type
Nd0 C2 2.836 . S
Nd0 O20 2.500 1_655 S
Nd0 O21 2.492 . S
Nd0 O22 2.487 1_546 S
Nd0 O23 2.682 1_546 S
Nd0 O24 2.410 1_656 S
Nd0 O29 2.414 1_655 S
Nd0 O31 2.424 1_545 S
Nd1 C11 2.836 1_545 S
Nd1 O23 2.414 1_445 S
Nd1 O25 2.424 . S
Nd1 O26 2.500 1_545 S
Nd1 O27 2.492 1_545 S
Nd1 O28 2.487 1_554 S
Nd1 O29 2.682 1_554 S
Nd1 O30 2.410 1_544 S
C2 Nd0 2.836 . S
C2 C3 1.498 . S
C2 O20 1.258 1_655 S
C2 O21 1.239 . S
C3 C2 1.498 . S
C3 C4 1.366 1_655 S
C3 C8 1.407 . S
C4 C3 1.366 1_455 S
C4 C5 1.392 . S
C4 H32 0.930 . S
C5 C4 1.392 . S
C5 C6 1.398 1_455 S
C5 H33 0.929 . S
C6 C5 1.398 1_655 S
C6 C7 1.352 . S
C7 C6 1.352 . S
C7 C8 1.384 . S
C7 H34 0.930 . S
C8 C3 1.407 . S
C8 C7 1.384 . S
C8 H35 0.929 . S
C9 O22 1.241 . S
C9 O23 1.273 . S
C10 O24 1.251 . S
C10 O25 1.268 . S
C11 Nd1 2.836 1_565 S
C11 C12 1.498 . S
C11 O26 1.258 . S
C11 O27 1.239 . S
C12 C11 1.498 . S
C12 C13 1.366 1_455 S
C12 C17 1.407 . S
C13 C12 1.366 1_655 S
C13 C14 1.392 . S
C13 H36 0.930 . S
C14 C13 1.392 . S
C14 C15 1.398 1_655 S
C14 H37 0.929 . S
C15 C14 1.398 1_455 S
C15 C16 1.352 . S
C16 C15 1.352 . S
C16 C17 1.384 . S
C16 H38 0.930 . S
C17 C12 1.407 . S
C17 C16 1.384 . S
C17 H39 0.929 . S
C18 O28 1.241 . S
C18 O29 1.273 . S
C19 O30 1.251 1_655 S
C19 O31 1.268 . S
O20 Nd0 2.500 1_455 S
O20 C2 1.258 1_455 S
O21 Nd0 2.492 . S
O21 C2 1.239 . S
O22 Nd0 2.487 1_564 S
O22 C9 1.241 . S
O23 Nd0 2.682 1_564 S
O23 Nd1 2.414 1_665 S
O23 C9 1.273 . S
O24 Nd0 2.410 1_454 S
O24 C10 1.251 . S
O25 Nd1 2.424 . S
O25 C10 1.268 . S
O26 Nd1 2.500 1_565 S
O26 C11 1.258 . S
O27 Nd1 2.492 1_565 S
O27 C11 1.239 . S
O28 Nd1 2.487 1_556 S
O28 C18 1.241 . S
O29 Nd0 2.414 1_455 S
O29 Nd1 2.682 1_556 S
O29 C18 1.273 . S
O30 Nd1 2.410 1_566 S
O30 C19 1.251 1_455 S
O31 Nd0 2.424 1_565 S
O31 C19 1.268 . S
H32 C4 0.930 . S
H33 C5 0.929 . S
H34 C7 0.930 . S
H35 C8 0.929 . S
H36 C13 0.930 . S
H37 C14 0.929 . S
H38 C16 0.930 . S
H39 C17 0.929 . S
Nd40 C42 2.836 . S
Nd40 O60 2.500 . S
Nd40 O61 2.492 . S
Nd40 O62 2.487 . S
Nd40 O63 2.682 1_655 S
Nd40 O64 2.410 . S
Nd40 O69 2.414 1_665 S
Nd40 O71 2.424 1_655 S
Nd41 C51 2.836 . S
Nd41 O63 2.414 1_545 S
Nd41 O65 2.424 . S
Nd41 O66 2.500 . S
Nd41 O67 2.492 . S
Nd41 O68 2.487 . S
Nd41 O69 2.682 . S
Nd41 O70 2.410 . S
C42 Nd40 2.836 . S
C42 C43 1.498 . S
C42 O60 1.258 . S
C42 O61 1.239 . S
C43 C42 1.498 . S
C43 C44 1.366 . S
C43 C48 1.407 . S
C44 C43 1.366 . S
C44 C45 1.392 . S
C44 H72 0.924 1_565 S
C45 C44 1.392 . S
C45 C46 1.398 . S
C45 H73 0.929 . S
C46 C45 1.398 . S
C46 C47 1.352 . S
C47 C46 1.352 . S
C47 C48 1.384 . S
C47 H74 0.930 . S
C48 C43 1.407 . S
C48 C47 1.384 . S
C48 H75 0.929 . S
C49 O62 1.241 . S
C49 O63 1.273 1_655 S
C50 O64 1.251 1_545 S
C50 O65 1.268 1_655 S
C51 Nd41 2.836 . S
C51 C52 1.498 . S
C51 O66 1.258 . S
C51 O67 1.239 . S
C52 C51 1.498 . S
C52 C53 1.366 . S
C52 C57 1.407 . S
C53 C52 1.366 . S
C53 C54 1.392 . S
C53 H76 0.930 . S
C54 C53 1.392 . S
C54 C55 1.398 . S
C54 H77 0.929 . S
C55 C54 1.398 . S
C55 C56 1.352 . S
C56 C55 1.352 . S
C56 C57 1.384 . S
C56 H78 0.930 . S
C57 C52 1.407 . S
C57 C56 1.384 . S
C57 H79 0.929 . S
C58 O68 1.241 . S
C58 O69 1.273 . S
C59 O70 1.251 1_565 S
C59 O71 1.268 . S
O60 Nd40 2.500 . S
O60 C42 1.258 . S
O61 Nd40 2.492 . S
O61 C42 1.239 . S
O62 Nd40 2.487 . S
O62 C49 1.241 . S
O63 Nd40 2.682 1_455 S
O63 Nd41 2.414 1_565 S
O63 C49 1.273 1_455 S
O64 Nd40 2.410 . S
O64 C50 1.251 1_565 S
O65 Nd41 2.424 . S
O65 C50 1.268 1_455 S
O66 Nd41 2.500 . S
O66 C51 1.258 . S
O67 Nd41 2.492 . S
O67 C51 1.239 . S
O68 Nd41 2.487 . S
O68 C58 1.241 . S
O69 Nd40 2.414 1_445 S
O69 Nd41 2.682 . S
O69 C58 1.273 . S
O70 Nd41 2.410 . S
O70 C59 1.251 1_545 S
O71 Nd40 2.424 1_455 S
O71 C59 1.268 . S
H72 C44 0.924 1_545 S
H73 C45 0.929 . S
H74 C47 0.930 . S
H75 C48 0.929 . S
H76 C53 0.930 . S
H77 C54 0.929 . S
H78 C56 0.930 . S
H79 C57 0.929 . S
Zn80 O86 1.920 . S
Zn80 O92 1.898 . S
Zn80 O95 1.905 . S
Zn81 O89 1.905 . S
Zn81 O90 1.898 . S
Zn81 O98 1.920 . S
Zn82 O85 2.080 . S
Zn82 O88 2.114 . S
Zn82 O91 2.120 . S
Zn82 O93 2.120 . S
Zn82 O94 2.114 . S
Zn82 O97 2.080 . S
C83 O88 1.166 . S
C83 O89 1.182 . S
C84 O90 1.167 . S
C84 O91 1.299 . S
O85 Zn82 2.080 . S
O85 C99 1.305 . S
O86 Zn80 1.920 . S
O86 C99 1.234 . S
C87 O92 1.167 . S
C87 O93 1.299 . S
O88 Zn82 2.114 . S
O88 C83 1.166 . S
O89 Zn81 1.905 . S
O89 C83 1.182 . S
O90 Zn81 1.898 . S
O90 C84 1.167 . S
O91 Zn82 2.120 . S
O91 C84 1.299 . S
O92 Zn80 1.898 . S
O92 C87 1.167 . S
O93 Zn82 2.120 . S
O93 C87 1.299 . S
O94 Zn82 2.114 . S
O94 C96 1.166 . S
O95 Zn80 1.905 . S
O95 C96 1.182 . S
C96 O94 1.166 . S
C96 O95 1.182 . S
O97 Zn82 2.080 . S
O97 C100 1.305 . S
O98 Zn81 1.920 . S
O98 C100 1.234 . S
C99 O85 1.305 . S
C99 O86 1.234 . S
C100 O97 1.305 . S
C100 O98 1.234 . S
Zn101 O107 1.920 . S
Zn101 O113 1.898 . S
Zn101 O116 1.905 . S
Zn102 O110 1.905 . S
Zn102 O111 1.898 . S
Zn102 O119 1.920 . S
Zn103 O106 2.080 . S
Zn103 O109 2.114 . S
Zn103 O112 2.120 . S
Zn103 O114 2.120 . S
Zn103 O115 2.114 . S
Zn103 O118 2.080 . S
C104 O109 1.166 . S
C104 O110 1.182 . S
C105 O111 1.167 . S
C105 O112 1.299 . S
O106 Zn103 2.080 . S
O106 C120 1.305 . S
O107 Zn101 1.920 . S
O107 C120 1.234 . S
C108 O113 1.167 . S
C108 O114 1.299 . S
O109 Zn103 2.114 . S
O109 C104 1.166 . S
O110 Zn102 1.905 . S
O110 C104 1.182 . S
O111 Zn102 1.898 . S
O111 C105 1.167 . S
O112 Zn103 2.120 . S
O112 C105 1.299 . S
O113 Zn101 1.898 . S
O113 C108 1.167 . S
O114 Zn103 2.120 . S
O114 C108 1.299 . S
O115 Zn103 2.114 . S
O115 C117 1.166 . S
O116 Zn101 1.905 . S
O116 C117 1.182 . S
C117 O115 1.166 . S
C117 O116 1.182 . S
O118 Zn103 2.080 . S
O118 C121 1.305 . S
O119 Zn102 1.920 . S
O119 C121 1.234 . S
C120 O106 1.305 . S
C120 O107 1.234 . S
C121 O118 1.305 . S
C121 O119 1.234 . S
C122 C123 1.170 . S
C122 C124 1.380 . S
C123 C122 1.170 . S
C124 C122 1.380 . S
C124 C125 1.170 . S
C125 C124 1.170 . S
C126 C127 1.170 . S
C126 C128 1.380 . S
C127 C126 1.170 . S
C128 C126 1.380 . S
C128 C129 1.170 . S
C129 C128 1.170 . S
C130 C131 1.170 . S
C130 C132 1.380 . S
C131 C130 1.170 . S
C132 C130 1.380 . S
C132 C133 1.170 . S
C133 C132 1.170 . S
C134 C135 1.170 . S
C134 C136 1.380 . S
C135 C134 1.170 . S
C136 C134 1.380 . S
C136 C137 1.170 . S
C137 C136 1.170 . S
C138 C139 1.170 . S
C138 C140 1.380 . S
C139 C138 1.170 . S
C140 C138 1.380 . S
C140 C141 1.170 . S
C141 C140 1.170 . S
C142 C143 1.170 . S
C142 C144 1.380 . S
C143 C142 1.170 . S
C144 C142 1.380 . S
C144 C145 1.170 . S
C145 C144 1.170 . S
C146 C147 1.170 . S
C146 C148 1.380 . S
C147 C146 1.170 . S
C148 C146 1.380 . S
C148 C149 1.170 . S
C149 C148 1.170 . S
C150 C151 1.170 . S
C150 C152 1.380 . S
C151 C150 1.170 . S
C152 C150 1.380 . S
C152 C153 1.170 . S
C153 C152 1.170 . S
C154 C155 1.170 . S
C154 C156 1.380 . S
C155 C154 1.170 . S
C156 C154 1.380 . S
C156 C157 1.170 . S
C157 C156 1.170 . S
C158 C159 1.170 . S
C158 C160 1.380 . S
C159 C158 1.170 . S
C160 C158 1.380 . S
C160 C161 1.170 . S
C161 C160 1.170 . S
C162 C163 1.170 . S
C162 C164 1.380 . S
C163 C162 1.170 . S
C164 C162 1.380 . S
C164 C165 1.170 . S
C165 C164 1.170 . S
C166 C167 1.170 . S
C166 C168 1.380 . S
C167 C166 1.170 . S
C168 C166 1.380 . S
C168 C169 1.170 . S
C169 C168 1.170 . S
C123 C15 1.481 . S
C125 C99 1.433 . S
C127 C55 1.023 . S
C129 C105 0.996 . S
C131 C10 1.508 . S
C133 C96 1.332 . S
C135 C50 2.088 . S
C137 C121 2.012 . S
C139 C9 1.987 . S
C141 C87 2.035 . S
C145 C104 1.820 . S
C143 C49 1.913 . S
C147 C59 1.754 . S
C149 C100 1.683 . S
C153 C117 2.233 . S
C151 C18 2.238 . S
C157 C84 2.100 . S
C155 C58 2.353 . S
C161 C120 1.568 . S
C159 C6 1.700 . S
C165 C83 1.013 . S
C163 C46 1.126 . S
C169 C108 1.040 . S
C167 C19 1.184 . S
