# Generated by pormake.
# Topology scu, (8,4)-cn, num edge types: 1
# Building blocks:
#     Node 0, Type 0, BuildingBlock: TAGTUT_clean_sbu_3, # of connection points: 8
#     Node 1, Type 1, BuildingBlock: MUDLON_clean_sbu_0, # of connection points: 4
#     Node 2, Type 1, BuildingBlock: MUDLON_clean_sbu_0, # of connection points: 4
#     Edge 3, Type (0, 1), BuildingBlock: FUNLAD_clean_linker_0, # of connection points: 2
#     Edge 4, Type (0, 1), BuildingBlock: FUNLAD_clean_linker_0, # of connection points: 2
#     Edge 5, Type (0, 1), BuildingBlock: FUNLAD_clean_linker_0, # of connection points: 2
#     Edge 6, Type (0, 1), BuildingBlock: FUNLAD_clean_linker_0, # of connection points: 2
#     Edge 7, Type (0, 1), BuildingBlock: FUNLAD_clean_linker_0, # of connection points: 2
#     Edge 8, Type (0, 1), BuildingBlock: FUNLAD_clean_linker_0, # of connection points: 2
#     Edge 9, Type (0, 1), BuildingBlock: FUNLAD_clean_linker_0, # of connection points: 2
#     Edge 10, Type (0, 1), BuildingBlock: FUNLAD_clean_linker_0, # of connection points: 2
# Relax obj value: 0.056
# Max RMSD: 0.121
# Mean RMSD: 0.087
data_MOF--net-scu--node1-TAGTUT_clean_sbu_3--node2-MUDLON_clean_sbu_0--edge1-FUNLAD_clean_linker_0
_symmetry_space_group_name_H-M    P1
_symmetry_Int_Tables_number       1
_symmetry_cell_setting            triclinic
loop_
_symmetry_equiv_pos_as_xyz
'x, y, z'
_cell_length_a     30.38611
_cell_length_b     26.055136
_cell_length_c     23.95425
_cell_angle_alpha  89.994687
_cell_angle_beta   91.209673
_cell_angle_gamma 90.415155
loop_
_atom_site_label
_atom_site_type_symbol
_atom_site_fract_x
_atom_site_fract_y
_atom_site_fract_z
_atom_type_partial_charge
C0 C 1.01148 0.91048 0.07241 0.0
C1 C 0.85045 0.98068 0.07046 0.0
C2 C 0.88384 0.03891 0.90668 0.0
Mg3 Mg 0.09923 0.95457 0.01429 0.0
Mg4 Mg 0.11022 0.0756 0.97467 0.0
O5 O 0.07551 0.01579 0.97292 0.0
Mg6 Mg 1.01384 0.01527 1.00044 0.0
O7 O 0.95245 0.0092 0.02779 0.0
Mg8 Mg 0.93322 0.94606 0.98565 0.0
Mg9 Mg 0.91393 0.06555 0.0264 0.0
C10 C 0.02156 0.11848 0.91893 0.0
O11 O 0.02475 0.07959 0.06525 0.0
O12 O 0.16181 0.96248 0.95865 0.0
O13 O 0.9592 0.11982 0.06905 0.0
O14 O 0.13271 0.00524 0.08328 0.0
O15 O 0.16509 0.04493 0.93098 0.0
O16 O 0.13149 0.0882 0.05985 0.0
O17 O 0.99867 0.95084 0.93734 0.0
O18 O 0.06222 0.90815 0.94758 0.0
C19 C 0.02346 0.9126 0.92589 0.0
C20 C 0.17999 -0.00097 0.93099 0.0
O21 O 0.99849 0.08087 0.93772 0.0
O22 O 0.87102 0.94695 0.04185 0.0
O23 O 0.06277 0.12452 0.93079 0.0
O24 O 0.89622 0.99315 0.91793 0.0
O25 O 0.86176 0.02823 0.07121 0.0
O26 O 0.88993 0.07554 0.94147 0.0
O27 O 0.03347 0.9515 0.06181 0.0
O28 O 0.97305 0.90236 0.05102 0.0
C29 C 0.14088 0.0525 0.09454 0.0
C30 C 1.00027 0.11599 0.08287 0.0
Mg31 Mg 0.02677 0.48936 0.49335 0.0
C32 C 0.07447 0.38876 0.47715 0.0
O33 O 0.04902 0.37393 0.51785 0.0
C34 C 0.01888 0.58255 0.55956 0.0
O35 O 0.98785 0.58608 0.52075 0.0
C36 C 0.96007 0.44491 0.57265 0.0
O37 O 0.96862 0.488 0.59927 0.0
O38 O 0.97488 0.43909 0.52378 0.0
O39 O 0.07686 0.43631 0.46559 0.0
O40 O 1.01213 0.53717 0.42069 0.0
C41 C 0.042 0.54011 0.38432 0.0
O42 O 0.07693 0.51109 0.38982 0.0
O43 O 0.04405 0.54366 0.55925 0.0
Mg44 Mg 0.5038 0.02065 0.49038 0.0
C45 C 0.42403 0.08318 0.4564 0.0
O46 O 0.41247 0.06982 0.50691 0.0
C47 C 0.56985 0.03029 0.58239 0.0
O48 O 0.5511 0.98554 0.59111 0.0
C49 C 0.45634 0.93967 0.57014 0.0
O50 O 0.48803 0.90648 0.56278 0.0
O51 O 0.45733 0.98289 0.54546 0.0
O52 O 0.46261 0.07239 0.44049 0.0
O53 O 0.5351 0.97353 0.42753 0.0
C54 C 0.57485 0.95883 0.43227 0.0
O55 O 0.59606 0.96557 0.48007 0.0
O56 O 0.55575 0.05736 0.54163 0.0
C57 C 0.05649 0.14048 0.15644 0.0
C58 C 0.01969 0.15359 0.1229 0.0
C59 C 0.07326 0.1746 0.19681 0.0
C60 C 0.05347 0.22265 0.20446 0.0
C61 C 0.01768 0.23639 0.16963 0.0
C62 C 1.00068 0.20209 0.12966 0.0
C63 C 0.0684 0.25908 0.24885 0.0
C64 C 0.08636 0.24406 0.29814 0.0
C65 C 0.0924 0.28023 0.34573 0.0
C66 C 0.08386 0.26301 0.39999 0.0
C67 C 0.08146 0.29794 0.44417 0.0
C68 C 0.08825 0.3507 0.43501 0.0
H69 H 0.11147 0.34639 0.29658 0.0
C70 C 0.10131 0.36706 0.38182 0.0
C71 C 0.10319 0.33222 0.33756 0.0
H72 H 0.10735 0.40729 0.37333 0.0
H73 H 0.07154 0.10318 0.15269 0.0
H74 H 0.10153 0.16312 0.22195 0.0
H75 H 1.00201 0.27331 0.17436 0.0
H76 H 0.97249 0.21347 0.10427 0.0
H77 H 0.05961 0.29912 0.24314 0.0
H78 H 0.09109 0.20347 0.30644 0.0
H79 H 0.07613 0.22298 0.40755 0.0
H80 H 0.07176 0.28394 0.48471 0.0
C81 C 0.78315 3e-05 0.12494 0.0
C82 C 0.81389 0.96408 0.10648 0.0
C83 C 0.75106 0.98593 0.16307 0.0
C84 C 0.74914 0.93553 0.18404 0.0
C85 C 0.77941 0.89936 0.16499 0.0
C86 C 0.81113 0.91328 0.12605 0.0
C87 C 0.71873 0.92147 0.22954 0.0
C88 C 0.67914 0.94363 0.23521 0.0
C89 C 0.6514 0.93758 0.28529 0.0
C90 C 0.60637 0.94891 0.28067 0.0
C91 C 0.58061 0.95215 0.32822 0.0
C92 C 0.59954 0.94495 0.38171 0.0
H93 H 0.70447 0.91922 0.34408 0.0
C94 C 0.64406 0.93082 0.38617 0.0
C95 C 0.66975 0.92713 0.33852 0.0
H96 H 0.6597 0.92503 0.42671 0.0
H97 H 0.78441 0.03949 0.11077 0.0
H98 H 0.72909 0.01524 0.17784 0.0
H99 H 0.77894 0.86045 0.18092 0.0
H100 H 0.83456 0.88477 0.11301 0.0
H101 H 0.72968 0.89264 0.25937 0.0
H102 H 0.66675 0.96862 0.20222 0.0
H103 H 0.5914 0.95728 0.24026 0.0
H104 H 0.54645 0.96312 0.32314 0.0
C105 C 0.01966 0.81856 0.09503 0.0
C106 C 0.02986 0.86979 0.10829 0.0
C107 C 0.02804 0.77954 0.13333 0.0
C108 C 0.04692 0.79083 0.18604 0.0
C109 C 0.05921 0.84186 0.19828 0.0
C110 C 0.05117 0.88112 0.15937 0.0
C111 C 0.04945 0.75105 0.23043 0.0
C112 C 0.05183 0.70055 0.21896 0.0
C113 C 0.0483 0.65998 0.26199 0.0
C114 C 0.07022 0.61351 0.25397 0.0
C115 C 0.0671 0.57407 0.29312 0.0
C116 C 0.04108 0.57985 0.34046 0.0
H117 H 1.00306 0.70037 0.31523 0.0
C118 C 0.01773 0.62563 0.34757 0.0
C119 C 0.02149 0.66554 0.3088 0.0
H120 H 0.99759 0.63118 0.38384 0.0
H121 H 1.00315 0.80891 0.05582 0.0
H122 H 0.01705 0.74115 0.12253 0.0
H123 H 0.0736 0.85159 0.2387 0.0
H124 H 0.05893 0.92048 0.17064 0.0
H125 H 0.04844 0.76372 0.27361 0.0
H126 H 0.05741 0.68806 0.17646 0.0
H127 H 0.09045 0.608 0.21776 0.0
H128 H 0.08539 0.53913 0.28652 0.0
C129 C 0.18686 0.11272 0.15392 0.0
C130 C 0.16472 0.06538 0.14747 0.0
C131 C 0.21397 0.12212 0.20089 0.0
C132 C 0.21912 0.08451 0.24263 0.0
C133 C 0.19485 0.03862 0.23776 0.0
C134 C 0.16829 0.02891 0.19053 0.0
C135 C 0.25019 0.09095 0.291 0.0
C136 C 0.2885 0.11728 0.28808 0.0
C137 C 0.32291 0.1155 0.33323 0.0
C138 C 0.36748 0.1179 0.31895 0.0
C139 C 0.40069 0.11009 0.35944 0.0
C140 C 0.38996 0.10041 0.4153 0.0
H141 H 0.27835 0.10896 0.40259 0.0
C142 C 0.34544 0.10179 0.43023 0.0
C143 C 0.31228 0.10919 0.3897 0.0
H144 H 0.33594 0.09505 0.47296 0.0
H145 H 0.18452 0.14185 0.12177 0.0
H146 H 0.23114 0.15859 0.20412 0.0
H147 H 0.19774 0.00926 0.26964 0.0
H148 H 0.15128 0.9923 0.18727 0.0
H149 H 0.24362 0.06829 0.32801 0.0
H150 H 0.29717 0.13567 0.24908 0.0
H151 H 0.37664 0.1234 0.27587 0.0
H152 H 0.43462 0.10964 0.34651 0.0
C153 C 0.02705 0.82298 0.89147 0.0
C154 C 1.00859 0.87211 0.88663 0.0
C155 C 0.0198 0.78632 0.84997 0.0
C156 C 0.9944 0.79815 0.80205 0.0
C157 C 0.97311 0.8459 0.79918 0.0
C158 C 0.98014 0.88273 0.84121 0.0
C159 C 0.99057 0.76184 0.75428 0.0
C160 C 0.02306 0.72886 0.74173 0.0
C161 C 0.0215 0.69235 0.69398 0.0
C162 C 0.05085 0.65083 0.69438 0.0
C163 C 0.05067 0.61543 0.65048 0.0
C164 C 0.02126 0.62104 0.60497 0.0
H165 H 0.97058 0.7307 0.64461 0.0
C166 C 0.99258 0.66319 0.60392 0.0
C167 C 0.99272 0.69851 0.64776 0.0
H168 H 0.96973 0.66894 0.5692 0.0
H169 H 0.04821 0.81324 0.92682 0.0
H170 H 0.03482 0.74906 0.85528 0.0
H171 H 0.9526 0.85556 0.76321 0.0
H172 H 0.96529 0.92022 0.83668 0.0
H173 H 0.96105 0.76396 0.7282 0.0
H174 H 0.05273 0.72817 0.76778 0.0
H175 H 0.07372 0.64539 0.72916 0.0
H176 H 0.07321 0.58344 0.65253 0.0
C177 C 0.22699 0.9383 0.87625 0.0
C178 C 0.21809 0.98822 0.89518 0.0
C179 C 0.25966 0.93004 0.83665 0.0
C180 C 0.28426 0.97165 0.81579 0.0
C181 C 0.27652 0.02095 0.83687 0.0
C182 C 0.24395 0.02917 0.87589 0.0
C183 C 0.31577 0.96713 0.76927 0.0
C184 C 0.33137 0.923 0.74814 0.0
C185 C 0.36093 0.92354 0.69933 0.0
C186 C 0.39557 0.88831 0.69591 0.0
C187 C 0.42589 0.89183 0.6526 0.0
C188 C 0.42172 0.93045 0.61179 0.0
H189 H 0.32788 0.98621 0.6563 0.0
C190 C 0.38536 0.96341 0.61344 0.0
C191 C 0.35529 0.95987 0.65641 0.0
H192 H 0.38053 0.99288 0.58206 0.0
H193 H 0.20749 0.90596 0.89014 0.0
H194 H 0.26418 0.8915 0.82122 0.0
H195 H 0.29495 0.05377 0.82191 0.0
H196 H 0.23836 0.06807 0.8899 0.0
H197 H 0.32699 0.00309 0.75124 0.0
H198 H 0.32423 0.88648 0.76783 0.0
H199 H 0.40021 0.85939 0.72795 0.0
H200 H 0.45339 0.86564 0.65232 0.0
C201 C 0.02515 0.17567 0.83576 0.0
C202 C 1.00066 0.15502 0.87953 0.0
C203 C 1.00582 0.20964 0.79764 0.0
C204 C 0.96159 0.22419 0.80276 0.0
C205 C 0.93725 0.20424 0.84709 0.0
C206 C 0.95648 0.16946 0.88481 0.0
C207 C 0.94189 0.26332 0.76489 0.0
C208 C 0.9528 0.26672 0.71077 0.0
C209 C 0.94294 0.31156 0.67425 0.0
C210 C 0.94862 0.3065 0.61647 0.0
C211 C 0.94984 0.34977 0.58202 0.0
C212 C 0.94602 0.39922 0.60484 0.0
H213 H 0.93081 0.36651 0.74046 0.0
C214 C 0.93631 0.40397 0.66175 0.0
C215 C 0.93488 0.36066 0.69618 0.0
H216 H 0.93293 0.44146 0.68066 0.0
H217 H 0.0593 0.16528 0.83073 0.0
H218 H 0.02598 0.22554 0.76506 0.0
H219 H 0.90338 0.21558 0.85254 0.0
H220 H 0.93723 0.15499 0.91892 0.0
H221 H 0.91899 0.29034 0.78253 0.0
H222 H 0.97242 0.23632 0.69295 0.0
H223 H 0.95477 0.26919 0.59837 0.0
H224 H 0.95703 0.34457 0.53829 0.0
C225 C 0.82922 0.08983 0.8492 0.0
C226 C 0.85747 0.04747 0.85468 0.0
C227 C 0.79783 0.09194 0.80543 0.0
C228 C 0.79452 0.05188 0.76597 0.0
C229 C 0.82511 0.01179 0.76929 0.0
C230 C 0.85612 0.00954 0.81299 0.0
C231 C 0.75695 0.04634 0.72532 0.0
C232 C 0.72682 0.08266 0.71305 0.0
C233 C 0.68621 0.07008 0.67975 0.0
C234 C 0.66778 0.10601 0.64242 0.0
C235 C 0.62973 0.09369 0.61067 0.0
C236 C 0.60902 0.04558 0.61673 0.0
H237 H 0.67713 0.99463 0.71638 0.0
C238 C 0.62682 0.01053 0.65553 0.0
C239 C 0.66481 0.02256 0.68655 0.0
H240 H 0.61166 0.97328 0.66178 0.0
H241 H 0.82945 0.11975 0.88059 0.0
H242 H 0.77486 0.12343 0.80479 0.0
H243 H 0.82366 0.98054 0.73943 0.0
H244 H 0.87772 0.97667 0.81547 0.0
H245 H 0.75286 0.00885 0.70587 0.0
H246 H 0.73147 0.12183 0.72745 0.0
H247 H 0.68327 0.14321 0.63706 0.0
H248 H 0.6167 0.12164 0.58135 0.0
loop_
_geom_bond_atom_site_label_1
_geom_bond_atom_site_label_2
_geom_bond_distance
_geom_bond_site_symmetry_2
_ccdc_geom_bond_type
C0 O27 1.312 1_655 S
C0 O28 1.208 . S
C1 O22 1.331 . S
C1 O25 1.244 1_565 S
C2 O24 1.264 1_545 S
C2 O26 1.273 . S
Mg3 O5 1.937 1_565 S
Mg3 O12 2.087 . S
Mg3 O14 2.018 1_556 S
Mg3 O18 2.036 . S
Mg3 O27 2.286 1_556 S
Mg4 O5 1.963 . S
Mg4 O15 1.942 . S
Mg4 O16 1.955 1_556 S
Mg4 O23 1.986 . S
O5 Mg3 1.937 1_545 S
O5 Mg4 1.963 . S
O5 Mg6 1.932 1_556 S
Mg6 O5 1.932 1_554 S
Mg6 O7 1.898 1_455 S
Mg6 O11 2.016 . S
Mg6 O17 2.108 1_444 S
Mg6 O21 2.009 1_454 S
Mg6 O27 2.119 1_545 S
O7 Mg6 1.898 1_655 S
O7 Mg8 1.936 1_545 S
O7 Mg9 1.963 . S
Mg8 O7 1.936 1_565 S
Mg8 O17 2.291 1_554 S
Mg8 O22 2.081 . S
Mg8 O24 2.023 1_554 S
Mg8 O28 2.031 . S
Mg9 O7 1.963 . S
Mg9 O13 1.986 . S
Mg9 O25 1.942 . S
Mg9 O26 1.955 1_554 S
C10 O21 1.191 1_455 S
C10 O23 1.307 . S
O11 Mg6 2.016 . S
O11 C30 1.191 1_455 S
O12 Mg3 2.087 . S
O12 C20 1.331 . S
O13 Mg9 1.986 . S
O13 C30 1.307 . S
O14 Mg3 2.018 1_554 S
O14 C29 1.264 1_565 S
O15 Mg4 1.942 . S
O15 C20 1.244 1_545 S
O16 Mg4 1.955 1_554 S
O16 C29 1.273 . S
O17 Mg6 2.108 1_666 S
O17 Mg8 2.291 1_556 S
O17 C19 1.312 1_655 S
O18 Mg3 2.036 . S
O18 C19 1.208 . S
C19 O17 1.312 1_455 S
C19 O18 1.208 . S
C20 O12 1.331 . S
C20 O15 1.244 1_565 S
O21 Mg6 2.009 1_656 S
O21 C10 1.191 1_655 S
O22 C1 1.331 . S
O22 Mg8 2.081 . S
O23 Mg4 1.986 . S
O23 C10 1.307 . S
O24 C2 1.264 1_565 S
O24 Mg8 2.023 1_556 S
O25 C1 1.244 1_545 S
O25 Mg9 1.942 . S
O26 C2 1.273 . S
O26 Mg9 1.955 1_556 S
O27 C0 1.312 1_455 S
O27 Mg3 2.286 1_554 S
O27 Mg6 2.119 1_565 S
O28 C0 1.208 . S
O28 Mg8 2.031 . S
C29 O14 1.264 1_545 S
C29 O16 1.273 . S
C30 O11 1.191 1_655 S
C30 O13 1.307 . S
Mg31 O38 2.141 . S
Mg31 O39 2.048 . S
Mg31 O40 2.048 . S
Mg31 O43 2.141 . S
C32 O33 1.313 . S
C32 O39 1.195 1_455 S
O33 C32 1.313 . S
C34 O35 1.245 . S
C34 O43 1.289 1_455 S
O35 C34 1.245 . S
C36 O37 1.245 . S
C36 O38 1.289 1_455 S
O37 C36 1.245 . S
O38 Mg31 2.141 . S
O38 C36 1.289 1_655 S
O39 Mg31 2.048 . S
O39 C32 1.195 1_655 S
O40 Mg31 2.048 . S
O40 C41 1.195 1_655 S
C41 O40 1.195 1_455 S
C41 O42 1.313 . S
O42 C41 1.313 . S
O43 Mg31 2.141 . S
O43 C34 1.289 1_655 S
Mg44 O51 2.141 . S
Mg44 O52 2.048 . S
Mg44 O53 2.048 . S
Mg44 O56 2.141 . S
C45 O46 1.313 . S
C45 O52 1.195 1_565 S
O46 C45 1.313 . S
C47 O48 1.245 . S
C47 O56 1.289 1_565 S
O48 C47 1.245 . S
C49 O50 1.245 . S
C49 O51 1.289 1_565 S
O50 C49 1.245 . S
O51 Mg44 2.141 . S
O51 C49 1.289 1_545 S
O52 Mg44 2.048 . S
O52 C45 1.195 1_545 S
O53 Mg44 2.048 . S
O53 C54 1.195 1_545 S
C54 O53 1.195 1_565 S
C54 O55 1.313 . S
O55 C54 1.313 . S
O56 Mg44 2.141 . S
O56 C47 1.289 1_545 S
C57 C58 1.390 . S
C57 C59 1.383 . S
C57 H73 0.951 . S
C58 C57 1.390 . S
C58 C62 1.379 1_455 S
C59 C57 1.383 . S
C59 C60 1.402 . S
C59 H74 0.951 . S
C60 C59 1.402 . S
C60 C61 1.375 1_455 S
C60 C63 1.481 . S
C61 C60 1.375 1_655 S
C61 C62 1.367 . S
C61 H75 0.951 . S
C62 C58 1.379 1_655 S
C62 C61 1.367 . S
C62 H76 0.950 . S
C63 C60 1.481 . S
C63 C64 1.297 . S
C63 H77 0.950 1_455 S
C64 C63 1.297 . S
C64 C65 1.479 . S
C64 H78 0.950 . S
C65 C64 1.479 . S
C65 C66 1.375 . S
C65 C71 1.404 . S
C66 C65 1.375 . S
C66 C67 1.369 . S
C66 H79 0.950 . S
C67 C66 1.369 . S
C67 C68 1.392 . S
C67 H80 0.951 . S
C68 C67 1.392 . S
C68 C70 1.383 1_455 S
H69 C71 0.953 . S
C70 C68 1.383 1_655 S
C70 C71 1.383 1_655 S
C70 H72 0.953 . S
C71 C65 1.404 . S
C71 H69 0.953 . S
C71 C70 1.383 1_455 S
H72 C70 0.953 . S
H73 C57 0.951 . S
H74 C59 0.951 . S
H75 C61 0.951 . S
H76 C62 0.950 . S
H77 C63 0.950 1_655 S
H78 C64 0.950 . S
H79 C66 0.950 . S
H80 C67 0.951 . S
C81 C82 1.386 1_545 S
C81 C83 1.383 . S
C81 H97 0.951 . S
C82 C81 1.386 1_565 S
C82 C86 1.383 . S
C83 C81 1.383 . S
C83 C84 1.402 1_545 S
C83 H98 0.951 . S
C84 C83 1.402 1_565 S
C84 C85 1.375 . S
C84 C87 1.481 . S
C85 C84 1.375 . S
C85 C86 1.367 . S
C85 H99 0.951 . S
C86 C82 1.383 . S
C86 C85 1.367 . S
C86 H100 0.950 . S
C87 C84 1.481 . S
C87 C88 1.297 1_565 S
C87 H101 0.950 . S
C88 C87 1.297 1_545 S
C88 C89 1.479 1_545 S
C88 H102 0.950 . S
C89 C88 1.479 1_565 S
C89 C90 1.369 1_565 S
C89 C95 1.411 . S
C90 C89 1.369 1_545 S
C90 C91 1.369 . S
C90 H103 0.950 . S
C91 C90 1.369 . S
C91 C92 1.411 . S
C91 H104 0.951 . S
C92 C91 1.411 . S
C92 C94 1.365 1_545 S
H93 C95 0.949 . S
C94 C92 1.365 1_565 S
C94 C95 1.385 . S
C94 H96 0.950 . S
C95 C89 1.411 . S
C95 H93 0.949 . S
C95 C94 1.385 . S
H96 C94 0.950 . S
H97 C81 0.951 . S
H98 C83 0.951 . S
H99 C85 0.951 . S
H100 C86 0.950 . S
H101 C87 0.950 . S
H102 C88 0.950 . S
H103 C90 0.950 . S
H104 C91 0.951 . S
C105 C106 1.386 . S
C105 C107 1.383 . S
C105 H121 0.951 . S
C106 C105 1.386 . S
C106 C110 1.383 1_455 S
C107 C105 1.383 . S
C107 C108 1.402 . S
C107 H122 0.951 . S
C108 C107 1.402 . S
C108 C109 1.375 1_455 S
C108 C111 1.481 . S
C109 C108 1.375 1_655 S
C109 C110 1.367 . S
C109 H123 0.951 . S
C110 C106 1.383 1_655 S
C110 C109 1.367 . S
C110 H124 0.950 . S
C111 C108 1.481 . S
C111 C112 1.297 . S
C111 H125 0.950 1_455 S
C112 C111 1.297 . S
C112 C113 1.479 . S
C112 H126 0.950 . S
C113 C112 1.479 . S
C113 C114 1.375 . S
C113 C119 1.404 1_455 S
C114 C113 1.375 . S
C114 C115 1.369 . S
C114 H127 0.950 . S
C115 C114 1.369 . S
C115 C116 1.392 . S
C115 H128 0.951 . S
C116 C115 1.392 . S
C116 C118 1.384 1_455 S
H117 C119 0.949 . S
C118 C116 1.384 1_655 S
C118 C119 1.385 . S
C118 H120 0.950 . S
C119 C113 1.404 1_655 S
C119 H117 0.949 . S
C119 C118 1.385 . S
H120 C118 0.950 . S
H121 C105 0.951 . S
H122 C107 0.951 . S
H123 C109 0.951 . S
H124 C110 0.950 . S
H125 C111 0.950 1_655 S
H126 C112 0.950 . S
H127 C114 0.950 . S
H128 C115 0.951 . S
C129 C130 1.386 . S
C129 C131 1.383 . S
C129 H145 0.951 . S
C130 C129 1.386 . S
C130 C134 1.383 1_545 S
C131 C129 1.383 . S
C131 C132 1.402 . S
C131 H146 0.951 . S
C132 C131 1.402 . S
C132 C133 1.375 1_545 S
C132 C135 1.481 . S
C133 C132 1.375 1_565 S
C133 C134 1.367 . S
C133 H147 0.951 . S
C134 C130 1.383 1_565 S
C134 C133 1.367 . S
C134 H148 0.950 . S
C135 C132 1.481 . S
C135 C136 1.297 . S
C135 H149 0.950 1_545 S
C136 C135 1.297 . S
C136 C137 1.479 . S
C136 H150 0.950 . S
C137 C136 1.479 . S
C137 C138 1.375 . S
C137 C143 1.404 1_545 S
C138 C137 1.375 . S
C138 C139 1.369 . S
C138 H151 0.950 . S
C139 C138 1.369 . S
C139 C140 1.392 . S
C139 H152 0.951 . S
C140 C139 1.392 . S
C140 C142 1.384 1_545 S
H141 C143 0.949 . S
C142 C140 1.384 1_565 S
C142 C143 1.385 . S
C142 H144 0.950 . S
C143 C137 1.404 1_565 S
C143 H141 0.949 . S
C143 C142 1.385 . S
H144 C142 0.950 . S
H145 C129 0.951 . S
H146 C131 0.951 . S
H147 C133 0.951 . S
H148 C134 0.950 . S
H149 C135 0.950 1_565 S
H150 C136 0.950 . S
H151 C138 0.950 . S
H152 C139 0.951 . S
C153 C154 1.405 . S
C153 C155 1.383 . S
C153 H169 0.951 . S
C154 C153 1.405 . S
C154 C158 1.362 1_655 S
C155 C153 1.383 . S
C155 C156 1.402 1_655 S
C155 H170 0.951 . S
C156 C155 1.402 1_455 S
C156 C157 1.375 . S
C156 C159 1.481 . S
C157 C156 1.375 . S
C157 C158 1.367 . S
C157 H171 0.951 . S
C158 C154 1.362 1_455 S
C158 C157 1.367 . S
C158 H172 0.950 . S
C159 C156 1.481 . S
C159 C160 1.297 1_455 S
C159 H173 0.950 . S
C160 C159 1.297 1_655 S
C160 C161 1.479 . S
C160 H174 0.950 . S
C161 C160 1.479 . S
C161 C162 1.375 . S
C161 C167 1.404 1_655 S
C162 C161 1.375 . S
C162 C163 1.369 . S
C162 H175 0.950 . S
C163 C162 1.369 . S
C163 C164 1.392 . S
C163 H176 0.951 . S
C164 C163 1.392 . S
C164 C166 1.384 1_655 S
H165 C167 0.949 . S
C166 C164 1.384 1_455 S
C166 C167 1.385 . S
C166 H168 0.950 . S
C167 C161 1.404 1_455 S
C167 H165 0.949 . S
C167 C166 1.385 . S
H168 C166 0.950 . S
H169 C153 0.951 . S
H170 C155 0.951 . S
H171 C157 0.951 . S
H172 C158 0.950 . S
H173 C159 0.950 . S
H174 C160 0.950 . S
H175 C162 0.950 . S
H176 C163 0.951 . S
C177 C178 1.386 . S
C177 C179 1.383 . S
C177 H193 0.951 . S
C178 C177 1.386 . S
C178 C182 1.383 1_565 S
C179 C177 1.383 . S
C179 C180 1.402 1_565 S
C179 H194 0.951 . S
C180 C179 1.402 1_545 S
C180 C181 1.375 . S
C180 C183 1.481 . S
C181 C180 1.375 . S
C181 C182 1.367 . S
C181 H195 0.951 . S
C182 C178 1.383 1_545 S
C182 C181 1.367 . S
C182 H196 0.950 . S
C183 C180 1.481 . S
C183 C184 1.297 1_545 S
C183 H197 0.950 . S
C184 C183 1.297 1_565 S
C184 C185 1.479 . S
C184 H198 0.950 . S
C185 C184 1.479 . S
C185 C186 1.375 . S
C185 C191 1.404 1_565 S
C186 C185 1.375 . S
C186 C187 1.369 . S
C186 H199 0.950 . S
C187 C186 1.369 . S
C187 C188 1.395 . S
C187 H200 0.951 . S
C188 C187 1.395 . S
C188 C190 1.382 1_565 S
H189 C191 0.949 . S
C190 C188 1.382 1_545 S
C190 C191 1.385 . S
C190 H192 0.950 . S
C191 C185 1.404 1_545 S
C191 H189 0.949 . S
C191 C190 1.385 . S
H192 C190 0.950 . S
H193 C177 0.951 . S
H194 C179 0.951 . S
H195 C181 0.951 . S
H196 C182 0.950 . S
H197 C183 0.950 . S
H198 C184 0.950 . S
H199 C186 0.950 . S
H200 C187 0.951 . S
C201 C202 1.386 1_455 S
C201 C203 1.383 . S
C201 H217 0.951 . S
C202 C201 1.386 1_655 S
C202 C206 1.383 . S
C203 C201 1.383 . S
C203 C204 1.402 1_455 S
C203 H218 0.951 . S
C204 C203 1.402 1_655 S
C204 C205 1.375 . S
C204 C207 1.481 . S
C205 C204 1.375 . S
C205 C206 1.367 . S
C205 H219 0.951 . S
C206 C202 1.383 . S
C206 C205 1.367 . S
C206 H220 0.950 . S
C207 C204 1.481 . S
C207 C208 1.297 1_655 S
C207 H221 0.950 . S
C208 C207 1.297 1_455 S
C208 C209 1.479 1_455 S
C208 H222 0.950 . S
C209 C208 1.479 1_655 S
C209 C210 1.375 1_655 S
C209 C215 1.404 . S
C210 C209 1.375 1_455 S
C210 C211 1.369 . S
C210 H223 0.950 . S
C211 C210 1.369 . S
C211 C212 1.392 1_455 S
C211 H224 0.951 . S
C212 C211 1.392 1_655 S
C212 C214 1.384 . S
H213 C215 0.949 . S
C214 C212 1.384 . S
C214 C215 1.385 . S
C214 H216 0.950 . S
C215 C209 1.404 . S
C215 H213 0.949 . S
C215 C214 1.385 . S
H216 C214 0.950 . S
H217 C201 0.951 . S
H218 C203 0.951 . S
H219 C205 0.951 . S
H220 C206 0.950 . S
H221 C207 0.950 . S
H222 C208 0.950 . S
H223 C210 0.950 . S
H224 C211 0.951 . S
C225 C226 1.386 . S
C225 C227 1.383 . S
C225 H241 0.951 . S
C226 C225 1.386 . S
C226 C230 1.383 1_545 S
C227 C225 1.383 . S
C227 C228 1.402 1_545 S
C227 H242 0.951 . S
C228 C227 1.402 1_565 S
C228 C229 1.375 . S
C228 C231 1.481 . S
C229 C228 1.375 . S
C229 C230 1.367 . S
C229 H243 0.951 . S
C230 C226 1.383 1_565 S
C230 C229 1.367 . S
C230 H244 0.950 . S
C231 C228 1.481 . S
C231 C232 1.297 1_565 S
C231 H245 0.950 . S
C232 C231 1.297 1_545 S
C232 C233 1.479 . S
C232 H246 0.950 . S
C233 C232 1.479 . S
C233 C234 1.375 . S
C233 C239 1.404 1_545 S
C234 C233 1.375 . S
C234 C235 1.369 . S
C234 H247 0.950 . S
C235 C234 1.369 . S
C235 C236 1.392 . S
C235 H248 0.951 . S
C236 C235 1.392 . S
C236 C238 1.384 1_545 S
H237 C239 0.949 . S
C238 C236 1.384 1_565 S
C238 C239 1.385 . S
C238 H240 0.950 . S
C239 C233 1.404 1_565 S
C239 H237 0.949 . S
C239 C238 1.385 . S
H240 C238 0.950 . S
H241 C225 0.951 . S
H242 C227 0.951 . S
H243 C229 0.951 . S
H244 C230 0.950 . S
H245 C231 0.950 . S
H246 C232 0.950 . S
H247 C234 0.950 . S
H248 C235 0.951 . S
C58 C30 1.294 1_455 S
C68 C32 1.309 . S
C82 C1 1.540 . S
C92 C54 1.547 1_545 S
C106 C0 1.327 1_455 S
C116 C41 1.323 . S
C130 C29 1.594 . S
C140 C45 1.598 1_545 S
C154 C19 1.253 1_655 S
C164 C34 1.287 1_655 S
C178 C20 1.471 . S
C188 C49 1.453 . S
C212 C36 1.265 1_655 S
C202 C10 1.266 1_655 S
C226 C2 1.498 . S
C236 C47 1.498 1_545 S
