# Generated by pormake.
# Topology nia, (6,6)-cn, num edge types: 1
# Building blocks:
#     Node 0, Type 0, BuildingBlock: JUFBIX_clean_sbu_0, # of connection points: 6
#     Node 1, Type 0, BuildingBlock: JUFBIX_clean_sbu_0, # of connection points: 6
#     Node 2, Type 1, BuildingBlock: MIDCAF_clean_sbu_0, # of connection points: 6
#     Node 3, Type 1, BuildingBlock: MIDCAF_clean_sbu_0, # of connection points: 6
#     Edge 4, Type (0, 1), BuildingBlock: OJICUG_clean_linker_0, # of connection points: 2
#     Edge 5, Type (0, 1), BuildingBlock: OJICUG_clean_linker_0, # of connection points: 2
#     Edge 6, Type (0, 1), BuildingBlock: OJICUG_clean_linker_0, # of connection points: 2
#     Edge 7, Type (0, 1), BuildingBlock: OJICUG_clean_linker_0, # of connection points: 2
#     Edge 8, Type (0, 1), BuildingBlock: OJICUG_clean_linker_0, # of connection points: 2
#     Edge 9, Type (0, 1), BuildingBlock: OJICUG_clean_linker_0, # of connection points: 2
#     Edge 10, Type (0, 1), BuildingBlock: OJICUG_clean_linker_0, # of connection points: 2
#     Edge 11, Type (0, 1), BuildingBlock: OJICUG_clean_linker_0, # of connection points: 2
#     Edge 12, Type (0, 1), BuildingBlock: OJICUG_clean_linker_0, # of connection points: 2
#     Edge 13, Type (0, 1), BuildingBlock: OJICUG_clean_linker_0, # of connection points: 2
#     Edge 14, Type (0, 1), BuildingBlock: OJICUG_clean_linker_0, # of connection points: 2
#     Edge 15, Type (0, 1), BuildingBlock: OJICUG_clean_linker_0, # of connection points: 2
# Relax obj value: 0.169
# Max RMSD: 0.242
# Mean RMSD: 0.164
data_MOF--net-nia--node1-JUFBIX_clean_sbu_0--node2-MIDCAF_clean_sbu_0--edge1-OJICUG_clean_linker_0
_symmetry_space_group_name_H-M    P1
_symmetry_Int_Tables_number       1
_symmetry_cell_setting            triclinic
loop_
_symmetry_equiv_pos_as_xyz
'x, y, z'
_cell_length_a     17.680949
_cell_length_b     17.761153
_cell_length_c     25.666613
_cell_angle_alpha  82.921524
_cell_angle_beta   82.588903
_cell_angle_gamma 119.69838
loop_
_atom_site_label
_atom_site_type_symbol
_atom_site_fract_x
_atom_site_fract_y
_atom_site_fract_z
_atom_type_partial_charge
Co0 Co 0.9674 0.93269 1.02427 0.0
C1 C 0.84962 0.93355 0.11013 0.0
Co2 Co 0.01754 0.05929 0.05155 0.0
C3 C 0.92185 0.80219 0.95649 0.0
C4 C 0.87066 0.74514 0.04108 0.0
N5 N 0.91673 0.82357 1.00514 0.0
N6 N 0.88143 0.71351 0.9613 0.0
C7 C 0.84929 0.6776 1.01431 0.0
H8 H 0.95765 0.85042 0.91877 0.0
H9 H 0.85623 0.73766 0.0843 0.0
C10 C 0.13406 0.05737 0.96494 0.0
N11 N 0.07336 0.16694 0.07377 0.0
C12 C 0.04111 0.20295 0.10718 0.0
C13 C 0.16275 0.21439 0.06946 0.0
N14 N 0.10721 0.26921 0.12398 0.0
C15 C 0.18344 0.27687 0.09997 0.0
C16 C 0.05771 0.94204 0.1053 0.0
O17 O 0.07383 0.97653 0.97028 0.0
O18 O 0.1211 0.10224 0.99597 0.0
O19 O 0.06694 0.01804 0.10072 0.0
O20 O 0.01566 0.89185 0.07513 0.0
O21 O 0.91104 0.01363 0.10654 0.0
H22 H 0.21026 0.20058 0.04885 0.0
H23 H 0.9708 0.17755 0.12174 0.0
O24 O 0.86213 0.88978 0.07796 0.0
O25 O 0.91892 0.97448 0.97413 0.0
O26 O 0.96849 0.10044 1.00161 0.0
C27 C 0.92742 0.05062 0.9706 0.0
H28 H 0.81476 0.60738 0.03234 0.0
H29 H 0.2493 0.32279 0.10559 0.0
Co30 Co 0.05531 0.01657 0.54968 0.0
C31 C 0.06456 0.14378 0.46864 0.0
Co32 Co 0.92789 0.97745 0.52502 0.0
C33 C 0.19205 0.04872 0.61164 0.0
C34 C 0.23956 0.07482 0.5264 0.0
N35 N 0.16594 0.04858 0.56431 0.0
N36 N 0.27866 0.07247 0.60435 0.0
C37 C 0.30853 0.08904 0.55082 0.0
H38 H 0.14829 0.03041 0.65052 0.0
H39 H 0.24286 0.08289 0.48354 0.0
C40 C 0.9185 0.85017 0.60599 0.0
N41 N 0.81733 0.94546 0.5103 0.0
C42 C 0.79142 0.94483 0.4629 0.0
C43 C 0.74366 0.9197 0.54803 0.0
N44 N 0.70489 0.92125 0.46994 0.0
C45 C 0.67485 0.9053 0.5234 0.0
C46 C 0.02398 0.92467 0.46467 0.0
O47 O 0.00093 0.90651 0.60136 0.0
O48 O 0.87514 0.86881 0.57632 0.0
O49 O 0.95018 0.92195 0.47082 0.0
O50 O 0.07711 0.96159 0.49482 0.0
O51 O -0.01786 0.08738 0.4734 0.0
H52 H 0.74022 0.91207 0.5909 0.0
H53 H 0.83527 0.96268 0.42411 0.0
O54 O 0.10808 0.12532 0.49828 0.0
O55 O 0.03309 0.07206 0.60388 0.0
O56 O 0.90608 0.0324 0.57995 0.0
C57 C 0.95925 0.0693 0.61009 0.0
H58 H 0.37613 0.11133 0.53074 0.0
H59 H 0.60725 0.88331 0.5433 0.0
Zn60 Zn 0.32487 0.7353 0.19453 0.0
Zn61 Zn 0.24564 0.66422 0.38685 0.0
Zn62 Zn 0.29073 0.69719 0.29086 0.0
C63 C 0.426 0.79403 0.36098 0.0
C64 C 0.21595 0.50706 0.36744 0.0
O65 O 0.2283 0.77067 0.2604 0.0
O66 O 0.31429 0.8412 0.17944 0.0
C67 C 0.48525 0.77708 0.21563 0.0
O68 O 0.41837 0.76742 0.31646 0.0
O69 O 0.35686 0.76699 0.39692 0.0
O70 O 0.23269 0.54694 0.4056 0.0
O71 O 0.22416 0.54953 0.3205 0.0
O72 O 0.44556 0.75346 0.17793 0.0
O73 O 0.44071 0.77023 0.26176 0.0
O74 O 0.22553 0.56882 0.26591 0.0
O75 O 0.22382 0.6225 0.18425 0.0
C76 C 0.19849 0.55641 0.2217 0.0
O77 O 0.20834 0.75463 0.31897 0.0
O78 O 0.13642 0.67118 0.40022 0.0
C79 C 0.25173 0.82767 0.2163 0.0
C80 C 0.14857 0.73091 0.36219 0.0
Zn81 Zn 0.65602 0.25609 0.88027 0.0
Zn82 Zn 0.73825 0.32923 0.68751 0.0
Zn83 Zn 0.69255 0.29651 0.78378 0.0
C84 C 0.76757 0.48654 0.70634 0.0
C85 C 0.55813 0.19908 0.71296 0.0
O86 O 0.75665 0.2241 0.81515 0.0
O87 O 0.6719 0.15382 0.89649 0.0
C88 C 0.77874 0.43736 0.85322 0.0
O89 O 0.75858 0.44409 0.75347 0.0
O90 O 0.75166 0.44664 0.66815 0.0
O91 O 0.62737 0.22658 0.67701 0.0
O92 O 0.56552 0.22538 0.75759 0.0
O93 O 0.75263 0.37097 0.89064 0.0
O94 O 0.75504 0.42557 0.80813 0.0
O95 O 0.54243 0.22278 0.81205 0.0
O96 O 0.53403 0.23329 0.89711 0.0
C97 C 0.49621 0.21258 0.85842 0.0
O98 O 0.77571 0.23952 0.75646 0.0
O99 O 0.84728 0.32199 0.67492 0.0
C100 C 0.73465 0.16803 0.85953 0.0
C101 C 0.8354 0.26286 0.71325 0.0
C102 C 0.06051 0.82612 0.16928 0.0
C103 C 0.10058 0.91521 0.14278 0.0
H104 H 0.0768 0.72943 0.21698 0.0
C105 C 0.18518 0.97806 0.14952 0.0
H106 H -0.00503 0.77678 0.16494 0.0
C107 C 0.23255 0.95075 0.17816 0.0
C108 C 0.19437 0.86093 0.20222 0.0
H109 H 0.21727 0.04722 0.12944 0.0
H110 H 0.3008 -0.00122 0.17891 0.0
C111 C 0.10662 0.79941 0.19963 0.0
C112 C 0.39611 0.05785 0.63644 0.0
C113 C 0.33231 0.08281 0.64355 0.0
H114 H 0.51692 0.0736 0.65456 0.0
C115 C 0.33226 0.13028 0.68355 0.0
H116 H 0.39639 0.01992 0.60653 0.0
C117 C 0.40153 0.161 0.71154 0.0
C118 C 0.47102 0.14436 0.69948 0.0
H119 H 0.28351 0.15015 0.68966 0.0
H120 H 0.40511 0.20435 0.73859 0.0
C121 C 0.46474 0.08829 0.66408 0.0
C122 C 0.14658 0.33095 0.2034 0.0
C123 C 0.10217 0.32184 0.1608 0.0
H124 H 0.21055 0.41255 0.25756 0.0
C125 C 0.07249 0.37993 0.14724 0.0
H126 H 0.17023 0.28663 0.21417 0.0
C127 C 0.09649 0.4526 0.17144 0.0
C128 C 0.14937 0.46716 0.21003 0.0
H129 H 0.03896 0.37432 0.11419 0.0
H130 H 0.0798 0.50124 0.1569 0.0
C131 C 0.16941 0.40276 0.22826 0.0
C132 C -0.00494 0.20442 0.64618 0.0
C133 C 0.93667 0.11391 0.64868 0.0
H134 H 0.00797 0.32389 0.66543 0.0
C135 C 0.85077 0.07024 0.68199 0.0
H136 H 0.06129 0.23953 0.62033 0.0
C137 C 0.82152 0.11767 0.70952 0.0
C138 C 0.87659 0.21006 0.70234 0.0
H139 H 0.80459 0.00042 0.6843 0.0
H140 H 0.7529 0.08365 0.73185 0.0
C141 C 0.9647 0.2525 0.6721 0.0
C142 C 0.70056 0.79996 0.15392 0.0
C143 C 0.76153 0.89117 0.14832 0.0
H144 H 0.56528 0.69233 0.18107 0.0
C145 C 0.73355 0.94068 0.17521 0.0
H146 H 0.71975 0.75921 0.13459 0.0
C147 C 0.64417 0.90111 0.20301 0.0
C148 C 0.58209 0.81181 0.20414 0.0
H149 H 0.77896 0.01094 0.17193 0.0
H150 H 0.62218 0.94189 0.21976 0.0
C151 C 0.61203 0.76109 0.18112 0.0
C152 C 0.78674 0.69653 0.64004 0.0
C153 C 0.87429 0.76058 0.64169 0.0
H154 H 0.68421 0.55913 0.66028 0.0
C155 C 0.92032 0.73525 0.67378 0.0
H156 H 0.74877 0.71349 0.61629 0.0
C157 C 0.88183 0.64616 0.70021 0.0
C158 C 0.79743 0.58153 0.69432 0.0
H159 H -0.01239 0.78317 0.67623 0.0
H160 H 0.92059 0.62686 0.72166 0.0
C161 C 0.74923 0.60803 0.6656 0.0
C162 C 0.13219 0.92352 0.39271 0.0
C163 C 0.04652 0.87975 0.42631 0.0
H164 H 0.23015 0.91019 0.34288 0.0
C165 C -0.01143 0.78893 0.42948 0.0
H166 H 0.17805 -0.00642 0.38994 0.0
C167 C 0.0192 0.74079 0.40387 0.0
C168 C 0.10713 0.78343 0.3733 0.0
H169 H 0.92256 0.75375 0.45558 0.0
H170 H 0.97629 0.6693 0.41097 0.0
C171 C 0.16169 0.87598 0.36551 0.0
C172 C 0.28133 0.19103 0.91823 0.0
C173 C 0.22121 0.09918 0.92605 0.0
H174 H 0.41594 0.29919 0.88884 0.0
C175 C 0.24923 0.04846 0.90063 0.0
H176 H 0.26192 0.23253 0.93644 0.0
C177 C 0.33813 0.08771 0.87228 0.0
C178 C 0.3996 0.17794 0.86898 0.0
H179 H 0.20438 0.97764 0.90564 0.0
H180 H 0.36045 0.04619 0.85699 0.0
C181 C 0.36945 0.22971 0.89032 0.0
C182 C 0.06151 0.25865 0.40162 0.0
C183 C 0.10854 0.23312 0.43267 0.0
H184 H 0.0605 0.36713 0.35449 0.0
C185 C 0.19695 0.29677 0.43298 0.0
H186 H -0.00649 0.21106 0.40022 0.0
C187 C 0.23456 0.38517 0.4071 0.0
C188 C 0.18551 0.41192 0.37945 0.0
H189 H 0.23565 0.2796 0.4559 0.0
H190 H 0.30044 0.43386 0.4114 0.0
C191 C 0.09997 0.34761 0.375 0.0
C192 C 0.80151 0.01631 0.92474 0.0
C193 C 0.88524 0.07862 0.9329 0.0
H194 H 0.68694 -0.00345 0.89431 0.0
C195 C 0.92491 0.16839 0.90781 0.0
H196 H 0.76956 0.94669 0.94371 0.0
C197 C 0.87931 0.1961 0.87751 0.0
C198 C 0.79238 0.13485 0.87341 0.0
H199 H -0.01026 0.21748 0.91322 0.0
H200 H 0.9088 0.26641 0.86134 0.0
C201 C 0.75464 0.04451 0.8961 0.0
C202 C 0.65141 0.86242 0.39097 0.0
C203 C 0.65149 0.91061 0.43057 0.0
H204 H 0.57855 0.78767 0.33615 0.0
C205 C 0.58808 0.93613 0.4371 0.0
H206 H 0.69987 0.84212 0.38532 0.0
C207 C 0.51965 0.90559 0.40932 0.0
C208 C 0.51317 0.84883 0.37436 0.0
H209 H 0.58791 0.9746 0.46669 0.0
H210 H 0.46772 0.92074 0.41842 0.0
C211 C 0.58231 0.83157 0.36284 0.0
C212 C 0.82989 0.65849 0.88143 0.0
C213 C 0.87986 0.66441 0.92074 0.0
H214 H 0.75906 0.5805 0.82716 0.0
C215 C 0.91266 0.60731 0.92743 0.0
H216 H 0.80358 0.70182 0.87613 0.0
C217 C 0.88767 0.53881 0.8999 0.0
C218 C 0.82913 0.52603 0.86523 0.0
H219 H 0.95146 0.61127 0.95751 0.0
H220 H 0.90785 0.4911 0.90933 0.0
C221 C 0.80469 0.58941 0.85351 0.0
loop_
_geom_bond_atom_site_label_1
_geom_bond_atom_site_label_2
_geom_bond_distance
_geom_bond_site_symmetry_2
_ccdc_geom_bond_type
Co0 N5 2.057 . S
Co0 O17 2.021 1_665 S
Co0 O20 2.062 1_656 S
Co0 O24 2.117 1_556 S
Co0 O25 2.020 1_565 S
C1 O21 1.259 1_565 S
C1 O24 1.258 . S
Co2 N11 2.057 . S
Co2 O18 2.117 1_554 S
Co2 O19 2.020 . S
Co2 O21 2.021 1_455 S
Co2 O26 2.062 1_454 S
C3 N5 1.316 . S
C3 N6 1.347 . S
C3 H8 0.931 1_655 S
C4 N5 1.375 . S
C4 C7 1.350 . S
C4 H9 0.930 . S
N5 Co0 2.057 . S
N5 C3 1.316 . S
N5 C4 1.375 . S
N6 C3 1.347 . S
N6 C7 1.373 . S
C7 C4 1.350 . S
C7 N6 1.373 . S
C7 H28 0.931 . S
H8 C3 0.931 1_455 S
H9 C4 0.930 . S
C10 O17 1.259 . S
C10 O18 1.258 . S
N11 Co2 2.057 . S
N11 C12 1.316 . S
N11 C13 1.375 . S
C12 N11 1.316 . S
C12 N14 1.347 . S
C12 H23 0.931 . S
C13 N11 1.375 . S
C13 C15 1.350 . S
C13 H22 0.930 . S
N14 C12 1.347 . S
N14 C15 1.373 . S
C15 C13 1.350 . S
C15 N14 1.373 . S
C15 H29 0.931 . S
C16 O19 1.256 1_565 S
C16 O20 1.255 . S
O17 Co0 2.021 1_445 S
O17 C10 1.259 . S
O18 Co2 2.117 1_556 S
O18 C10 1.258 . S
O19 Co2 2.020 . S
O19 C16 1.256 1_545 S
O20 Co0 2.062 1_454 S
O20 C16 1.255 . S
O21 C1 1.259 1_545 S
O21 Co2 2.021 1_655 S
H22 C13 0.930 . S
H23 C12 0.931 . S
O24 Co0 2.117 1_554 S
O24 C1 1.258 . S
O25 Co0 2.020 1_545 S
O25 C27 1.256 . S
O26 Co2 2.062 1_656 S
O26 C27 1.255 . S
C27 O25 1.256 . S
C27 O26 1.255 . S
H28 C7 0.931 . S
H29 C15 0.931 . S
Co30 N35 2.057 . S
Co30 O47 2.021 1_545 S
Co30 O50 2.062 1_545 S
Co30 O54 2.117 . S
Co30 O55 2.020 1_455 S
C31 O51 1.259 . S
C31 O54 1.258 . S
Co32 N41 2.057 . S
Co32 O48 2.117 . S
Co32 O49 2.020 1_655 S
Co32 O51 2.021 1_665 S
Co32 O56 2.062 1_565 S
C33 N35 1.316 . S
C33 N36 1.347 . S
C33 H38 0.931 . S
C34 N35 1.375 . S
C34 C37 1.350 . S
C34 H39 0.930 . S
N35 Co30 2.057 . S
N35 C33 1.316 . S
N35 C34 1.375 . S
N36 C33 1.347 . S
N36 C37 1.373 . S
C37 C34 1.350 . S
C37 N36 1.373 . S
C37 H58 0.931 . S
H38 C33 0.931 . S
H39 C34 0.930 . S
C40 O47 1.259 1_655 S
C40 O48 1.258 . S
N41 Co32 2.057 . S
N41 C42 1.316 . S
N41 C43 1.375 . S
C42 N41 1.316 . S
C42 N44 1.347 . S
C42 H53 0.920 1_565 S
C43 N41 1.375 . S
C43 C45 1.350 . S
C43 H52 0.930 . S
N44 C42 1.347 . S
N44 C45 1.373 . S
C45 C43 1.350 . S
C45 N44 1.373 . S
C45 H59 0.931 . S
C46 O49 1.256 . S
C46 O50 1.255 . S
O47 Co30 2.021 1_565 S
O47 C40 1.259 1_455 S
O48 Co32 2.117 . S
O48 C40 1.258 . S
O49 Co32 2.020 1_455 S
O49 C46 1.256 . S
O50 Co30 2.062 1_565 S
O50 C46 1.255 . S
O51 C31 1.259 . S
O51 Co32 2.021 1_445 S
H52 C43 0.930 . S
H53 C42 0.920 1_545 S
O54 Co30 2.117 . S
O54 C31 1.258 . S
O55 Co30 2.020 1_655 S
O55 C57 1.256 . S
O56 Co32 2.062 1_545 S
O56 C57 1.255 . S
C57 O55 1.256 . S
C57 O56 1.255 . S
H58 C37 0.931 . S
H59 C45 0.931 . S
Zn60 O66 1.920 . S
Zn60 O72 1.898 . S
Zn60 O75 1.905 . S
Zn61 O69 1.905 . S
Zn61 O70 1.898 . S
Zn61 O78 1.920 . S
Zn62 O65 2.080 . S
Zn62 O68 2.114 . S
Zn62 O71 2.120 . S
Zn62 O73 2.120 . S
Zn62 O74 2.114 . S
Zn62 O77 2.080 . S
C63 O68 1.166 . S
C63 O69 1.182 . S
C64 O70 1.167 . S
C64 O71 1.299 . S
O65 Zn62 2.080 . S
O65 C79 1.305 . S
O66 Zn60 1.920 . S
O66 C79 1.234 . S
C67 O72 1.167 . S
C67 O73 1.299 . S
O68 Zn62 2.114 . S
O68 C63 1.166 . S
O69 Zn61 1.905 . S
O69 C63 1.182 . S
O70 Zn61 1.898 . S
O70 C64 1.167 . S
O71 Zn62 2.120 . S
O71 C64 1.299 . S
O72 Zn60 1.898 . S
O72 C67 1.167 . S
O73 Zn62 2.120 . S
O73 C67 1.299 . S
O74 Zn62 2.114 . S
O74 C76 1.166 . S
O75 Zn60 1.905 . S
O75 C76 1.182 . S
C76 O74 1.166 . S
C76 O75 1.182 . S
O77 Zn62 2.080 . S
O77 C80 1.305 . S
O78 Zn61 1.920 . S
O78 C80 1.234 . S
C79 O65 1.305 . S
C79 O66 1.234 . S
C80 O77 1.305 . S
C80 O78 1.234 . S
Zn81 O87 1.920 . S
Zn81 O93 1.898 . S
Zn81 O96 1.905 . S
Zn82 O90 1.905 . S
Zn82 O91 1.898 . S
Zn82 O99 1.920 . S
Zn83 O86 2.080 . S
Zn83 O89 2.114 . S
Zn83 O92 2.120 . S
Zn83 O94 2.120 . S
Zn83 O95 2.114 . S
Zn83 O98 2.080 . S
C84 O89 1.166 . S
C84 O90 1.182 . S
C85 O91 1.167 . S
C85 O92 1.299 . S
O86 Zn83 2.080 . S
O86 C100 1.305 . S
O87 Zn81 1.920 . S
O87 C100 1.234 . S
C88 O93 1.167 . S
C88 O94 1.299 . S
O89 Zn83 2.114 . S
O89 C84 1.166 . S
O90 Zn82 1.905 . S
O90 C84 1.182 . S
O91 Zn82 1.898 . S
O91 C85 1.167 . S
O92 Zn83 2.120 . S
O92 C85 1.299 . S
O93 Zn81 1.898 . S
O93 C88 1.167 . S
O94 Zn83 2.120 . S
O94 C88 1.299 . S
O95 Zn83 2.114 . S
O95 C97 1.166 . S
O96 Zn81 1.905 . S
O96 C97 1.182 . S
C97 O95 1.166 . S
C97 O96 1.182 . S
O98 Zn83 2.080 . S
O98 C101 1.305 . S
O99 Zn82 1.920 . S
O99 C101 1.234 . S
C100 O86 1.305 . S
C100 O87 1.234 . S
C101 O98 1.305 . S
C101 O99 1.234 . S
C102 C103 1.387 . S
C102 H106 0.950 . S
C102 C111 1.390 . S
C103 C102 1.387 . S
C103 C105 1.387 . S
H104 C111 0.950 . S
C105 C103 1.387 . S
C105 C107 1.390 . S
C105 H109 0.950 . S
H106 C102 0.950 . S
C107 C105 1.390 . S
C107 C108 1.387 . S
C107 H110 0.950 . S
C108 C107 1.387 . S
C108 C111 1.387 . S
H109 C105 0.950 . S
H110 C107 0.950 . S
C111 C102 1.390 . S
C111 H104 0.950 . S
C111 C108 1.387 . S
C112 C113 1.387 . S
C112 H116 0.950 . S
C112 C121 1.390 . S
C113 C112 1.387 . S
C113 C115 1.387 . S
H114 C121 0.950 . S
C115 C113 1.387 . S
C115 C117 1.390 . S
C115 H119 0.950 . S
H116 C112 0.950 . S
C117 C115 1.390 . S
C117 C118 1.387 . S
C117 H120 0.950 . S
C118 C117 1.387 . S
C118 C121 1.387 . S
H119 C115 0.950 . S
H120 C117 0.950 . S
C121 C112 1.390 . S
C121 H114 0.950 . S
C121 C118 1.387 . S
C122 C123 1.387 . S
C122 H126 0.950 . S
C122 C131 1.390 . S
C123 C122 1.387 . S
C123 C125 1.387 . S
H124 C131 0.950 . S
C125 C123 1.387 . S
C125 C127 1.390 . S
C125 H129 0.950 . S
H126 C122 0.950 . S
C127 C125 1.390 . S
C127 C128 1.387 . S
C127 H130 0.950 . S
C128 C127 1.387 . S
C128 C131 1.387 . S
H129 C125 0.950 . S
H130 C127 0.950 . S
C131 C122 1.390 . S
C131 H124 0.950 . S
C131 C128 1.387 . S
C132 C133 1.387 . S
C132 H136 0.950 1_655 S
C132 C141 1.390 . S
C133 C132 1.387 . S
C133 C135 1.387 . S
H134 C141 0.948 1_455 S
C135 C133 1.387 . S
C135 C137 1.390 . S
C135 H139 0.950 . S
H136 C132 0.950 1_455 S
C137 C135 1.390 . S
C137 C138 1.387 . S
C137 H140 0.950 . S
C138 C137 1.387 . S
C138 C141 1.387 . S
H139 C135 0.950 . S
H140 C137 0.950 . S
C141 C132 1.390 . S
C141 H134 0.948 1_655 S
C141 C138 1.387 . S
C142 C143 1.387 . S
C142 H146 0.950 . S
C142 C151 1.390 . S
C143 C142 1.387 . S
C143 C145 1.387 . S
H144 C151 0.950 . S
C145 C143 1.387 . S
C145 C147 1.390 . S
C145 H149 0.950 1_565 S
H146 C142 0.950 . S
C147 C145 1.390 . S
C147 C148 1.387 . S
C147 H150 0.950 1_565 S
C148 C147 1.387 . S
C148 C151 1.387 . S
H149 C145 0.950 1_545 S
H150 C147 0.950 1_545 S
C151 C142 1.390 . S
C151 H144 0.950 . S
C151 C148 1.387 . S
C152 C153 1.387 . S
C152 H156 0.950 . S
C152 C161 1.390 . S
C153 C152 1.387 . S
C153 C155 1.387 . S
H154 C161 0.950 . S
C155 C153 1.387 . S
C155 C157 1.390 . S
C155 H159 0.943 1_655 S
H156 C152 0.950 . S
C157 C155 1.390 . S
C157 C158 1.387 . S
C157 H160 0.950 . S
C158 C157 1.387 . S
C158 C161 1.387 . S
H159 C155 0.943 1_455 S
H160 C157 0.950 . S
C161 C152 1.390 . S
C161 H154 0.950 . S
C161 C158 1.387 . S
C162 C163 1.387 . S
C162 H166 0.950 1_565 S
C162 C171 1.390 . S
C163 C162 1.387 . S
C163 C165 1.387 . S
H164 C171 0.950 . S
C165 C163 1.387 . S
C165 C167 1.390 . S
C165 H169 0.950 . S
H166 C162 0.950 1_545 S
C167 C165 1.390 . S
C167 C168 1.387 . S
C167 H170 0.950 . S
C168 C167 1.387 . S
C168 C171 1.387 . S
H169 C165 0.950 . S
H170 C167 0.950 . S
C171 C162 1.390 . S
C171 H164 0.950 . S
C171 C168 1.387 . S
C172 C173 1.387 . S
C172 H176 0.950 . S
C172 C181 1.390 . S
C173 C172 1.387 . S
C173 C175 1.387 . S
H174 C181 0.950 . S
C175 C173 1.387 . S
C175 C177 1.390 . S
C175 H179 0.950 . S
H176 C172 0.950 . S
C177 C175 1.390 . S
C177 C178 1.387 . S
C177 H180 0.950 . S
C178 C177 1.387 . S
C178 C181 1.387 . S
H179 C175 0.950 . S
H180 C177 0.950 . S
C181 C172 1.390 . S
C181 H174 0.950 . S
C181 C178 1.387 . S
C182 C183 1.387 . S
C182 H186 0.950 . S
C182 C191 1.390 . S
C183 C182 1.387 . S
C183 C185 1.387 . S
H184 C191 0.950 . S
C185 C183 1.387 . S
C185 C187 1.390 . S
C185 H189 0.950 . S
H186 C182 0.950 . S
C187 C185 1.390 . S
C187 C188 1.387 . S
C187 H190 0.950 . S
C188 C187 1.387 . S
C188 C191 1.387 . S
H189 C185 0.950 . S
H190 C187 0.950 . S
C191 C182 1.390 . S
C191 H184 0.950 . S
C191 C188 1.387 . S
C192 C193 1.387 . S
C192 H196 0.956 . S
C192 C201 1.390 . S
C193 C192 1.387 . S
C193 C195 1.387 . S
H194 C201 0.950 . S
C195 C193 1.387 . S
C195 C197 1.390 . S
C195 H199 0.950 . S
H196 C192 0.956 . S
C197 C195 1.390 . S
C197 C198 1.387 . S
C197 H200 0.950 . S
C198 C197 1.387 . S
C198 C201 1.387 . S
H199 C195 0.950 . S
H200 C197 0.950 . S
C201 C192 1.390 . S
C201 H194 0.950 . S
C201 C198 1.387 . S
C202 C203 1.387 . S
C202 H206 0.950 . S
C202 C211 1.390 . S
C203 C202 1.387 . S
C203 C205 1.387 . S
H204 C211 0.950 . S
C205 C203 1.387 . S
C205 C207 1.390 . S
C205 H209 0.950 . S
H206 C202 0.950 . S
C207 C205 1.390 . S
C207 C208 1.387 . S
C207 H210 0.950 . S
C208 C207 1.387 . S
C208 C211 1.387 . S
H209 C205 0.950 . S
H210 C207 0.950 . S
C211 C202 1.390 . S
C211 H204 0.950 . S
C211 C208 1.387 . S
C212 C213 1.387 . S
C212 H216 0.950 . S
C212 C221 1.390 . S
C213 C212 1.387 . S
C213 C215 1.387 . S
H214 C221 0.950 . S
C215 C213 1.387 . S
C215 C217 1.390 . S
C215 H219 0.950 1_655 S
H216 C212 0.950 . S
C217 C215 1.390 . S
C217 C218 1.387 . S
C217 H220 0.950 . S
C218 C217 1.387 . S
C218 C221 1.387 . S
H219 C215 0.950 1_455 S
H220 C217 0.950 . S
C221 C212 1.390 . S
C221 H214 0.950 . S
C221 C218 1.387 . S
C103 C16 1.525 . S
C108 C79 1.345 . S
C113 N36 1.248 . S
C118 C85 1.121 . S
C123 N14 1.253 . S
C128 C76 1.186 . S
C133 C57 1.715 . S
C138 C101 1.499 . S
C143 C1 1.858 . S
C148 C67 1.707 . S
C158 C84 1.592 . S
C153 C40 1.700 . S
C163 C46 1.525 . S
C168 C80 1.346 . S
C178 C97 1.593 . S
C173 C10 1.700 . S
C188 C64 1.707 . S
C183 C31 1.859 . S
C198 C100 1.500 . S
C193 C27 1.716 . S
C208 C63 1.182 . S
C203 N44 1.252 . S
C218 C88 1.127 . S
C213 N6 1.249 . S
