# Generated by pormake.
# Topology cml, (3,6)-cn, num edge types: 1
# Building blocks:
#     Node 0, Type 0, BuildingBlock: OLANEW_clean_sbu_2, # of connection points: 3
#     Node 1, Type 0, BuildingBlock: OLANEW_clean_sbu_2, # of connection points: 3
#     Node 2, Type 0, BuildingBlock: OLANEW_clean_sbu_2, # of connection points: 3
#     Node 3, Type 0, BuildingBlock: OLANEW_clean_sbu_2, # of connection points: 3
#     Node 4, Type 0, BuildingBlock: OLANEW_clean_sbu_2, # of connection points: 3
#     Node 5, Type 0, BuildingBlock: OLANEW_clean_sbu_2, # of connection points: 3
#     Node 6, Type 0, BuildingBlock: OLANEW_clean_sbu_2, # of connection points: 3
#     Node 7, Type 0, BuildingBlock: OLANEW_clean_sbu_2, # of connection points: 3
#     Node 8, Type 1, BuildingBlock: OJICUG_clean_sbu_0, # of connection points: 6
#     Node 9, Type 1, BuildingBlock: OJICUG_clean_sbu_0, # of connection points: 6
#     Node 10, Type 1, BuildingBlock: OJICUG_clean_sbu_0, # of connection points: 6
#     Node 11, Type 1, BuildingBlock: OJICUG_clean_sbu_0, # of connection points: 6
#     Edge 12, Type (0, 1), None
#     Edge 13, Type (0, 1), None
#     Edge 14, Type (0, 1), None
#     Edge 15, Type (0, 1), None
#     Edge 16, Type (0, 1), None
#     Edge 17, Type (0, 1), None
#     Edge 18, Type (0, 1), None
#     Edge 19, Type (0, 1), None
#     Edge 20, Type (0, 1), None
#     Edge 21, Type (0, 1), None
#     Edge 22, Type (0, 1), None
#     Edge 23, Type (0, 1), None
#     Edge 24, Type (0, 1), None
#     Edge 25, Type (0, 1), None
#     Edge 26, Type (0, 1), None
#     Edge 27, Type (0, 1), None
#     Edge 28, Type (0, 1), None
#     Edge 29, Type (0, 1), None
#     Edge 30, Type (0, 1), None
#     Edge 31, Type (0, 1), None
#     Edge 32, Type (0, 1), None
#     Edge 33, Type (0, 1), None
#     Edge 34, Type (0, 1), None
#     Edge 35, Type (0, 1), None
# Relax obj value: 0.025
# Max RMSD: 0.068
# Mean RMSD: 0.060
data_MOF--net-cml--node1-OLANEW_clean_sbu_2--node2-OJICUG_clean_sbu_0--edge1-none
_symmetry_space_group_name_H-M    P1
_symmetry_Int_Tables_number       1
_symmetry_cell_setting            triclinic
loop_
_symmetry_equiv_pos_as_xyz
'x, y, z'
_cell_length_a     20.399084
_cell_length_b     20.162011
_cell_length_c     19.759689
_cell_angle_alpha  84.109651
_cell_angle_beta   85.155391
_cell_angle_gamma 89.668911
loop_
_atom_site_label
_atom_site_type_symbol
_atom_site_fract_x
_atom_site_fract_y
_atom_site_fract_z
_atom_type_partial_charge
O0 O 0.341 0.46064 0.83254 0.0
Cd1 Cd 0.22705 0.42847 0.87672 0.0
O2 O 0.35495 0.46066 0.94048 0.0
Cd3 Cd 0.41164 0.46597 0.02646 0.0
O4 O 0.45698 0.42267 0.11503 0.0
C5 C 0.44964 0.45046 0.16975 0.0
O6 O 0.41598 0.5061 0.17128 0.0
C7 C 0.37762 0.47286 0.87878 0.0
C8 C 0.16295 0.31469 0.84443 0.0
O9 O 0.1721 0.36644 0.80125 0.0
O10 O 0.18716 0.31464 0.90222 0.0
O11 O 0.69796 0.64848 0.54033 0.0
Cd12 Cd 0.77084 0.62374 0.43987 0.0
O13 O 0.75571 0.5878 0.61356 0.0
Cd14 Cd 0.81658 0.54685 0.53349 0.0
O15 O 0.74795 0.49797 0.47708 0.0
C16 C 0.7001 0.46661 0.51112 0.0
O17 O 0.69805 0.458 0.57805 0.0
C18 C 0.70697 0.62555 0.60137 0.0
C19 C 0.88633 0.69756 0.41146 0.0
O20 O 0.87901 0.65347 0.46292 0.0
O21 O 0.83866 0.70819 0.37355 0.0
O22 O 0.71296 0.42849 0.89561 0.0
Cd23 Cd 0.80888 0.37822 0.94516 0.0
O24 O 0.70982 0.50048 -0.02752 0.0
Cd25 Cd 0.76949 0.43876 0.04105 0.0
O26 O 0.73758 0.38461 0.13922 0.0
C27 C 0.72541 0.42242 0.1862 0.0
O28 O 0.74346 0.48529 0.17446 0.0
C29 C 0.68927 0.48088 0.9189 0.0
C30 C 0.88159 0.28752 0.87333 0.0
O31 O 0.88683 0.3502 0.85492 0.0
O32 O 0.84002 0.26769 0.92351 0.0
O33 O 0.36252 0.53378 0.45276 0.0
Cd34 Cd 0.24418 0.5475 0.48012 0.0
O35 O 0.34745 0.45178 0.53427 0.0
Cd36 Cd 0.28597 0.52115 0.5901 0.0
O37 O 0.34794 0.59465 0.62923 0.0
C38 C 0.40383 0.56798 0.6363 0.0
O39 O 0.41161 0.50499 0.62641 0.0
C40 C 0.3829 0.48019 0.4837 0.0
C41 C 0.18103 0.66363 0.43516 0.0
O42 O 0.19008 0.61668 0.39629 0.0
O43 O 0.20473 0.65699 0.49354 0.0
O44 O 0.84102 0.96057 0.83267 0.0
Cd45 Cd 0.72708 0.9284 0.87688 0.0
O46 O 0.85494 0.96076 0.94059 0.0
Cd47 Cd 0.9116 0.96623 0.02656 0.0
O48 O 0.95696 0.9229 0.11511 0.0
C49 C 0.94963 0.95066 0.16986 0.0
O50 O 0.91596 0.00629 0.17143 0.0
C51 C 0.87762 0.97287 0.87889 0.0
C52 C 0.66293 0.81467 0.84454 0.0
O53 O 0.67207 0.86645 0.80139 0.0
O54 O 0.68716 0.81457 0.90231 0.0
O55 O 0.19802 0.14834 0.54035 0.0
Cd56 Cd 0.27093 0.12359 0.43992 0.0
O57 O 0.25574 0.08768 0.61362 0.0
Cd58 Cd 0.31666 0.04672 0.53358 0.0
O59 O 0.248 -0.00214 0.47718 0.0
C60 C 0.20015 0.96651 0.51121 0.0
O61 O 0.19809 0.95787 0.57814 0.0
C62 C 0.20701 0.12542 0.60141 0.0
C63 C 0.38638 0.19746 0.41151 0.0
O64 O 0.37907 0.15341 0.46299 0.0
O65 O 0.33872 0.20804 0.37357 0.0
O66 O 0.21293 0.92846 0.89573 0.0
Cd67 Cd 0.30881 0.87814 0.9453 0.0
O68 O 0.20986 0.00053 -0.02748 0.0
Cd69 Cd 0.26952 0.93884 0.04111 0.0
O70 O 0.23758 0.8847 0.13929 0.0
C71 C 0.22538 0.92252 0.18625 0.0
O72 O 0.24342 0.9854 0.17452 0.0
C73 C 0.18927 0.98089 0.91897 0.0
C74 C 0.38155 0.78749 0.87341 0.0
O75 O 0.38679 0.85018 0.85506 0.0
O76 O 0.33997 0.76764 0.92358 0.0
O77 O 0.86255 0.03379 0.45295 0.0
Cd78 Cd 0.74422 0.04755 0.4803 0.0
O79 O 0.84746 0.95172 0.53438 0.0
Cd80 Cd 0.78593 0.02101 0.59026 0.0
O81 O 0.84793 0.09454 0.62932 0.0
C82 C 0.90381 0.06785 0.63643 0.0
O83 O 0.91155 0.00483 0.62665 0.0
C84 C 0.88292 0.98017 0.48385 0.0
C85 C 0.68107 0.16365 0.43525 0.0
O86 O 0.69013 0.11667 0.39643 0.0
O87 O 0.70477 0.15706 0.49364 0.0
Sc88 Sc 0.06207 0.80069 0.29796 0.0
Sc89 Sc 0.06589 0.96283 0.34597 0.0
Sc90 Sc 0.04204 0.82727 0.47126 0.0
O91 O 0.05715 0.86358 0.37153 0.0
C92 C 0.94646 0.73757 0.39939 0.0
C93 C 0.98569 0.92523 0.22762 0.0
C94 C 0.94607 0.95099 0.46128 0.0
C95 C 0.17414 0.90342 0.24122 0.0
C96 C 0.13911 0.72072 0.41637 0.0
C97 C 0.14644 0.94265 0.47576 0.0
O98 O 0.96885 0.75628 0.33844 0.0
O99 O 0.99594 0.96467 0.27147 0.0
O100 O 0.95931 0.89227 0.48607 0.0
O101 O 0.15376 0.84325 0.25037 0.0
O102 O 0.12209 0.75871 0.46216 0.0
O103 O 0.13867 0.97029 0.4165 0.0
O104 O 0.11682 0.72631 0.3577 0.0
O105 O 0.14563 0.95072 0.2699 0.0
O106 O 0.11007 0.89572 0.50539 0.0
O107 O 1.00945 0.86675 0.22854 0.0
O108 O 0.97308 0.75271 0.45152 0.0
O109 O 0.98405 0.9851 0.41665 0.0
Sc110 Sc 0.03281 0.20843 0.72277 0.0
Sc111 Sc 0.0611 0.03986 0.75168 0.0
Sc112 Sc 0.03079 0.13085 0.88964 0.0
O113 O 0.04254 0.12711 0.78925 0.0
C114 C 0.12101 0.25975 0.82927 0.0
C115 C 0.15442 0.12955 0.65611 0.0
C116 C 0.13772 0.01862 0.88466 0.0
C117 C 0.95882 0.10215 0.66054 0.0
C118 C 0.92924 0.24082 0.84526 0.0
C119 C 0.94245 0.00537 0.86061 0.0
O120 O 0.10842 0.2587 0.76716 0.0
O121 O 0.15092 0.0814 0.7031 0.0
O122 O 0.1171 0.07213 0.90743 0.0
O123 O 0.9526 0.15884 0.6828 0.0
O124 O 0.94358 0.1902 0.88456 0.0
O125 O 0.96933 0.00085 0.80068 0.0
O126 O 0.9606 0.25709 0.78769 0.0
O127 O 1.01274 0.071 0.66171 0.0
O128 O 0.96484 0.04312 0.90206 0.0
O129 O 0.10786 0.17187 0.64868 0.0
O130 O 0.09426 0.22004 0.87893 0.0
O131 O 0.11497 0.99588 0.83399 0.0
Sc132 Sc 0.5621 0.3006 0.29796 0.0
Sc133 Sc 0.56588 0.46278 0.34586 0.0
Sc134 Sc 0.54204 0.32729 0.47122 0.0
O135 O 0.55716 0.36354 0.37149 0.0
C136 C 0.44649 0.2375 0.39941 0.0
C137 C 0.4857 0.42508 0.22753 0.0
C138 C 0.44604 0.451 0.46115 0.0
C139 C 0.67416 0.40333 0.24117 0.0
C140 C 0.63915 0.22072 0.41643 0.0
C141 C 0.64641 0.44272 0.47567 0.0
O142 O 0.46889 0.25617 0.33846 0.0
O143 O 0.49596 0.46456 0.27134 0.0
O144 O 0.4593 0.39229 0.48599 0.0
O145 O 0.65379 0.34316 0.25034 0.0
O146 O 0.6221 0.25874 0.46219 0.0
O147 O 0.63864 0.47032 0.4164 0.0
O148 O 0.61687 0.22627 0.35775 0.0
O149 O 0.64564 0.45065 0.26983 0.0
O150 O 0.61005 0.39578 0.50531 0.0
O151 O 0.50947 0.36659 0.22849 0.0
O152 O 0.47309 0.2527 0.45153 0.0
O153 O 0.48402 0.48508 0.4165 0.0
Sc154 Sc 0.53278 0.7085 0.72281 0.0
Sc155 Sc 0.5611 0.53993 0.75163 0.0
Sc156 Sc 0.53077 0.63083 0.88964 0.0
O157 O 0.54252 0.62715 0.78925 0.0
C158 C 0.62098 0.75975 0.82934 0.0
C159 C 0.6544 0.62967 0.6561 0.0
C160 C 0.63771 0.51862 0.88461 0.0
C161 C 0.45882 0.60225 0.66048 0.0
C162 C 0.4292 0.74082 0.84532 0.0
C163 C 0.44245 0.50536 0.86053 0.0
O164 O 0.60838 0.75874 0.76723 0.0
O165 O 0.65091 0.5815 0.70307 0.0
O166 O 0.61708 0.57211 0.90741 0.0
O167 O 0.45258 0.65893 0.68279 0.0
O168 O 0.44355 0.69018 0.8846 0.0
O169 O 0.46933 0.50088 0.8006 0.0
O170 O 0.46056 0.75711 0.78775 0.0
O171 O 0.51273 0.5711 0.66166 0.0
O172 O 0.46482 0.5431 0.90201 0.0
O173 O 0.60784 0.67198 0.64869 0.0
O174 O 0.59423 0.72003 0.87899 0.0
O175 O 0.61497 0.49591 0.83391 0.0
loop_
_geom_bond_atom_site_label_1
_geom_bond_atom_site_label_2
_geom_bond_distance
_geom_bond_site_symmetry_2
_ccdc_geom_bond_type
O0 Cd1 2.300 . S
O0 C7 1.275 . S
Cd1 O0 2.300 . S
Cd1 O9 2.381 . S
Cd1 O10 2.378 . S
O2 Cd3 2.385 1_556 S
O2 C7 1.255 . S
Cd3 O2 2.385 1_554 S
Cd3 O4 2.317 . S
O4 Cd3 2.317 . S
O4 C5 1.232 . S
C5 O4 1.232 . S
C5 O6 1.218 . S
O6 C5 1.218 . S
C7 O0 1.275 . S
C7 O2 1.255 . S
C8 O9 1.258 . S
C8 O10 1.256 . S
O9 Cd1 2.381 . S
O9 C8 1.258 . S
O10 Cd1 2.378 . S
O10 C8 1.256 . S
O11 Cd12 2.300 . S
O11 C18 1.275 . S
Cd12 O11 2.300 . S
Cd12 O20 2.381 . S
Cd12 O21 2.378 . S
O13 Cd14 2.385 . S
O13 C18 1.255 . S
Cd14 O13 2.385 . S
Cd14 O15 2.317 . S
O15 Cd14 2.317 . S
O15 C16 1.232 . S
C16 O15 1.232 . S
C16 O17 1.218 . S
O17 C16 1.218 . S
C18 O11 1.275 . S
C18 O13 1.255 . S
C19 O20 1.258 . S
C19 O21 1.256 . S
O20 Cd12 2.381 . S
O20 C19 1.258 . S
O21 Cd12 2.378 . S
O21 C19 1.256 . S
O22 Cd23 2.300 . S
O22 C29 1.275 . S
Cd23 O22 2.300 . S
Cd23 O31 2.381 . S
Cd23 O32 2.378 . S
O24 Cd25 2.385 . S
O24 C29 1.255 1_554 S
Cd25 O24 2.385 . S
Cd25 O26 2.317 . S
O26 Cd25 2.317 . S
O26 C27 1.232 . S
C27 O26 1.232 . S
C27 O28 1.218 . S
O28 C27 1.218 . S
C29 O22 1.275 . S
C29 O24 1.255 1_556 S
C30 O31 1.258 . S
C30 O32 1.256 . S
O31 Cd23 2.381 . S
O31 C30 1.258 . S
O32 Cd23 2.378 . S
O32 C30 1.256 . S
O33 Cd34 2.300 . S
O33 C40 1.275 . S
Cd34 O33 2.300 . S
Cd34 O42 2.381 . S
Cd34 O43 2.378 . S
O35 Cd36 2.385 . S
O35 C40 1.255 . S
Cd36 O35 2.385 . S
Cd36 O37 2.317 . S
O37 Cd36 2.317 . S
O37 C38 1.232 . S
C38 O37 1.232 . S
C38 O39 1.218 . S
O39 C38 1.218 . S
C40 O33 1.275 . S
C40 O35 1.255 . S
C41 O42 1.258 . S
C41 O43 1.256 . S
O42 Cd34 2.381 . S
O42 C41 1.258 . S
O43 Cd34 2.378 . S
O43 C41 1.256 . S
O44 Cd45 2.300 . S
O44 C51 1.275 . S
Cd45 O44 2.300 . S
Cd45 O53 2.381 . S
Cd45 O54 2.378 . S
O46 Cd47 2.385 1_556 S
O46 C51 1.255 . S
Cd47 O46 2.385 1_554 S
Cd47 O48 2.317 . S
O48 Cd47 2.317 . S
O48 C49 1.232 . S
C49 O48 1.232 . S
C49 O50 1.218 . S
O50 C49 1.218 . S
C51 O44 1.275 . S
C51 O46 1.255 . S
C52 O53 1.258 . S
C52 O54 1.256 . S
O53 Cd45 2.381 . S
O53 C52 1.258 . S
O54 Cd45 2.378 . S
O54 C52 1.256 . S
O55 Cd56 2.300 . S
O55 C62 1.275 . S
Cd56 O55 2.300 . S
Cd56 O64 2.381 . S
Cd56 O65 2.378 . S
O57 Cd58 2.385 1_545 S
O57 C62 1.255 . S
Cd58 O57 2.385 1_565 S
Cd58 O59 2.317 . S
O59 Cd58 2.317 . S
O59 C60 1.232 . S
C60 O59 1.232 . S
C60 O61 1.218 . S
O61 C60 1.218 . S
C62 O55 1.275 . S
C62 O57 1.255 . S
C63 O64 1.258 . S
C63 O65 1.256 . S
O64 Cd56 2.381 . S
O64 C63 1.258 . S
O65 Cd56 2.378 . S
O65 C63 1.256 . S
O66 Cd67 2.300 . S
O66 C73 1.275 . S
Cd67 O66 2.300 . S
Cd67 O75 2.381 . S
Cd67 O76 2.378 . S
O68 Cd69 2.385 . S
O68 C73 1.255 1_544 S
Cd69 O68 2.385 . S
Cd69 O70 2.317 1_545 S
O70 Cd69 2.317 1_565 S
O70 C71 1.232 . S
C71 O70 1.232 . S
C71 O72 1.218 1_565 S
O72 C71 1.218 1_545 S
C73 O66 1.275 . S
C73 O68 1.255 1_566 S
C74 O75 1.258 . S
C74 O76 1.256 . S
O75 Cd67 2.381 . S
O75 C74 1.258 . S
O76 Cd67 2.378 . S
O76 C74 1.256 . S
O77 Cd78 2.300 . S
O77 C84 1.275 . S
Cd78 O77 2.300 . S
Cd78 O86 2.381 . S
Cd78 O87 2.378 . S
O79 Cd80 2.385 1_545 S
O79 C84 1.255 . S
Cd80 O79 2.385 1_565 S
Cd80 O81 2.317 1_565 S
O81 Cd80 2.317 1_545 S
O81 C82 1.232 . S
C82 O81 1.232 . S
C82 O83 1.218 . S
O83 C82 1.218 . S
C84 O77 1.275 . S
C84 O79 1.255 . S
C85 O86 1.258 . S
C85 O87 1.256 . S
O86 Cd78 2.381 . S
O86 C85 1.258 . S
O87 Cd78 2.378 . S
O87 C85 1.256 . S
Sc88 O91 2.025 . S
Sc88 O98 2.105 1_455 S
Sc88 O101 2.105 . S
Sc88 O104 2.105 . S
Sc88 O107 2.105 1_455 S
Sc89 O91 2.025 . S
Sc89 O99 2.105 1_455 S
Sc89 O103 2.105 1_565 S
Sc89 O105 2.105 . S
Sc89 O109 2.105 1_465 S
Sc90 O91 2.025 . S
Sc90 O100 2.105 1_455 S
Sc90 O102 2.105 . S
Sc90 O106 2.105 . S
Sc90 O108 2.105 1_455 S
O91 Sc88 2.025 . S
O91 Sc89 2.025 . S
O91 Sc90 2.025 . S
C92 O98 1.268 . S
C92 O108 1.268 . S
C93 O99 1.268 . S
C93 O107 1.268 . S
C94 O100 1.268 . S
C94 O109 1.268 1_565 S
C95 O101 1.268 . S
C95 O105 1.268 . S
C96 O102 1.268 . S
C96 O104 1.268 . S
C97 O103 1.268 1_565 S
C97 O106 1.268 . S
O98 Sc88 2.105 1_655 S
O98 C92 1.268 . S
O99 Sc89 2.105 1_655 S
O99 C93 1.268 . S
O100 Sc90 2.105 1_655 S
O100 C94 1.268 . S
O101 Sc88 2.105 . S
O101 C95 1.268 . S
O102 Sc90 2.105 . S
O102 C96 1.268 . S
O103 Sc89 2.105 1_545 S
O103 C97 1.268 1_545 S
O104 Sc88 2.105 . S
O104 C96 1.268 . S
O105 Sc89 2.105 . S
O105 C95 1.268 . S
O106 Sc90 2.105 . S
O106 C97 1.268 . S
O107 Sc88 2.105 1_655 S
O107 C93 1.268 . S
O108 Sc90 2.105 1_655 S
O108 C92 1.268 . S
O109 Sc89 2.105 1_645 S
O109 C94 1.268 1_545 S
Sc110 O113 2.025 . S
Sc110 O120 2.105 . S
Sc110 O123 2.105 1_455 S
Sc110 O126 2.105 1_455 S
Sc110 O129 2.105 . S
Sc111 O113 2.025 . S
Sc111 O121 2.105 . S
Sc111 O125 2.105 1_445 S
Sc111 O127 2.105 1_455 S
Sc111 O131 2.105 1_545 S
Sc112 O113 2.025 . S
Sc112 O122 2.105 . S
Sc112 O124 2.105 1_455 S
Sc112 O128 2.105 1_455 S
Sc112 O130 2.105 . S
O113 Sc110 2.025 . S
O113 Sc111 2.025 . S
O113 Sc112 2.025 . S
C114 O120 1.268 . S
C114 O130 1.268 . S
C115 O121 1.268 . S
C115 O129 1.268 . S
C116 O122 1.268 . S
C116 O131 1.268 1_545 S
C117 O123 1.268 . S
C117 O127 1.268 . S
C118 O124 1.268 . S
C118 O126 1.268 . S
C119 O125 1.268 1_545 S
C119 O128 1.268 . S
O120 Sc110 2.105 . S
O120 C114 1.268 . S
O121 Sc111 2.105 . S
O121 C115 1.268 . S
O122 Sc112 2.105 . S
O122 C116 1.268 . S
O123 Sc110 2.105 1_655 S
O123 C117 1.268 . S
O124 Sc112 2.105 1_655 S
O124 C118 1.268 . S
O125 Sc111 2.105 1_665 S
O125 C119 1.268 1_565 S
O126 Sc110 2.105 1_655 S
O126 C118 1.268 . S
O127 Sc111 2.105 1_655 S
O127 C117 1.268 . S
O128 Sc112 2.105 1_655 S
O128 C119 1.268 . S
O129 Sc110 2.105 . S
O129 C115 1.268 . S
O130 Sc112 2.105 . S
O130 C114 1.268 . S
O131 Sc111 2.105 1_565 S
O131 C116 1.268 1_565 S
Sc132 O135 2.025 . S
Sc132 O142 2.105 . S
Sc132 O145 2.105 . S
Sc132 O148 2.105 . S
Sc132 O151 2.105 . S
Sc133 O135 2.025 . S
Sc133 O143 2.105 . S
Sc133 O147 2.105 . S
Sc133 O149 2.105 . S
Sc133 O153 2.105 . S
Sc134 O135 2.025 . S
Sc134 O144 2.105 . S
Sc134 O146 2.105 . S
Sc134 O150 2.105 . S
Sc134 O152 2.105 . S
O135 Sc132 2.025 . S
O135 Sc133 2.025 . S
O135 Sc134 2.025 . S
C136 O142 1.268 . S
C136 O152 1.268 . S
C137 O143 1.268 . S
C137 O151 1.268 . S
C138 O144 1.268 . S
C138 O153 1.268 . S
C139 O145 1.268 . S
C139 O149 1.268 . S
C140 O146 1.268 . S
C140 O148 1.268 . S
C141 O147 1.268 . S
C141 O150 1.268 . S
O142 Sc132 2.105 . S
O142 C136 1.268 . S
O143 Sc133 2.105 . S
O143 C137 1.268 . S
O144 Sc134 2.105 . S
O144 C138 1.268 . S
O145 Sc132 2.105 . S
O145 C139 1.268 . S
O146 Sc134 2.105 . S
O146 C140 1.268 . S
O147 Sc133 2.105 . S
O147 C141 1.268 . S
O148 Sc132 2.105 . S
O148 C140 1.268 . S
O149 Sc133 2.105 . S
O149 C139 1.268 . S
O150 Sc134 2.105 . S
O150 C141 1.268 . S
O151 Sc132 2.105 . S
O151 C137 1.268 . S
O152 Sc134 2.105 . S
O152 C136 1.268 . S
O153 Sc133 2.105 . S
O153 C138 1.268 . S
Sc154 O157 2.025 . S
Sc154 O164 2.105 . S
Sc154 O167 2.105 . S
Sc154 O170 2.105 . S
Sc154 O173 2.105 . S
Sc155 O157 2.025 . S
Sc155 O165 2.105 . S
Sc155 O169 2.105 . S
Sc155 O171 2.105 . S
Sc155 O175 2.105 . S
Sc156 O157 2.025 . S
Sc156 O166 2.105 . S
Sc156 O168 2.105 . S
Sc156 O172 2.105 . S
Sc156 O174 2.105 . S
O157 Sc154 2.025 . S
O157 Sc155 2.025 . S
O157 Sc156 2.025 . S
C158 O164 1.268 . S
C158 O174 1.268 . S
C159 O165 1.268 . S
C159 O173 1.268 . S
C160 O166 1.268 . S
C160 O175 1.268 . S
C161 O167 1.268 . S
C161 O171 1.268 . S
C162 O168 1.268 . S
C162 O170 1.268 . S
C163 O169 1.268 . S
C163 O172 1.268 . S
O164 Sc154 2.105 . S
O164 C158 1.268 . S
O165 Sc155 2.105 . S
O165 C159 1.268 . S
O166 Sc156 2.105 . S
O166 C160 1.268 . S
O167 Sc154 2.105 . S
O167 C161 1.268 . S
O168 Sc156 2.105 . S
O168 C162 1.268 . S
O169 Sc155 2.105 . S
O169 C163 1.268 . S
O170 Sc154 2.105 . S
O170 C162 1.268 . S
O171 Sc155 2.105 . S
O171 C161 1.268 . S
O172 Sc156 2.105 . S
O172 C163 1.268 . S
O173 Sc154 2.105 . S
O173 C159 1.268 . S
O174 Sc156 2.105 . S
O174 C158 1.268 . S
O175 Sc155 2.105 . S
O175 C160 1.268 . S
C8 C114 1.758 . S
C92 C19 1.508 . S
C118 C30 1.632 . S
C96 C41 1.609 . S
C158 C52 1.758 . S
C136 C63 1.507 . S
C74 C162 1.631 . S
C140 C85 1.608 . S
C7 C163 1.988 . S
C141 C16 1.790 . S
C29 C160 1.923 . S
C40 C138 1.742 . S
C119 C51 1.988 1_545 S
C60 C97 1.790 . S
C116 C73 1.923 1_545 S
C94 C84 1.742 1_565 S
C137 C5 0.988 . S
C159 C18 1.668 . S
C27 C139 1.697 . S
C161 C38 1.819 . S
C93 C49 0.988 . S
C62 C115 1.669 . S
C71 C95 1.697 . S
C82 C117 1.819 . S
