# Generated by pormake.
# Topology bcu-b, (8,8)-cn, num edge types: 1
# Building blocks:
#     Node 0, Type 0, BuildingBlock: TAGTUT_clean_sbu_1, # of connection points: 8
#     Node 1, Type 1, BuildingBlock: VETTIZ_charged_sbu_0, # of connection points: 8
#     Edge 2, Type (0, 1), BuildingBlock: FUNLAD_clean_linker_0, # of connection points: 2
#     Edge 3, Type (0, 1), BuildingBlock: FUNLAD_clean_linker_0, # of connection points: 2
#     Edge 4, Type (0, 1), BuildingBlock: FUNLAD_clean_linker_0, # of connection points: 2
#     Edge 5, Type (0, 1), BuildingBlock: FUNLAD_clean_linker_0, # of connection points: 2
#     Edge 6, Type (0, 1), BuildingBlock: FUNLAD_clean_linker_0, # of connection points: 2
#     Edge 7, Type (0, 1), BuildingBlock: FUNLAD_clean_linker_0, # of connection points: 2
#     Edge 8, Type (0, 1), BuildingBlock: FUNLAD_clean_linker_0, # of connection points: 2
#     Edge 9, Type (0, 1), BuildingBlock: FUNLAD_clean_linker_0, # of connection points: 2
# Relax obj value: 0.028
# Max RMSD: 0.122
# Mean RMSD: 0.087
data_MOF--net-bcu-b--node1-TAGTUT_clean_sbu_1--node2-VETTIZ_charged_sbu_0--edge1-FUNLAD_clean_linker_0
_symmetry_space_group_name_H-M    P1
_symmetry_Int_Tables_number       1
_symmetry_cell_setting            triclinic
loop_
_symmetry_equiv_pos_as_xyz
'x, y, z'
_cell_length_a     22.018715
_cell_length_b     22.298621
_cell_length_c     23.708891
_cell_angle_alpha  89.973796
_cell_angle_beta   91.393237
_cell_angle_gamma 97.427057
loop_
_atom_site_label
_atom_site_type_symbol
_atom_site_fract_x
_atom_site_fract_y
_atom_site_fract_z
_atom_type_partial_charge
C0 C 0.84282 0.12932 0.03038 0.0
C1 C 0.92242 0.11019 0.87034 0.0
C2 C 0.93317 0.87841 0.93084 0.0
Mg3 Mg 0.97692 0.13033 -0.00946 0.0
O4 O 0.95716 0.04855 0.00789 0.0
Mg5 Mg 0.88254 0.00373 0.96972 0.0
Mg6 Mg 1.01807 0.99203 -0.00668 0.0
O7 O 0.07875 0.93624 0.97819 0.0
Mg8 Mg 0.06132 0.85285 0.98725 0.0
Mg9 Mg 0.15461 0.97961 0.01499 0.0
C10 C 0.10306 0.10497 0.05442 0.0
C11 C 0.11916 0.05918 0.90727 0.0
O12 O 0.82886 0.0755 0.01046 0.0
O13 O 0.89707 0.1582 0.02834 0.0
O14 O 0.89175 0.06209 0.88931 0.0
O15 O 0.96359 0.14163 0.90067 0.0
O16 O 0.06733 0.14155 0.034 0.0
O17 O 0.09036 0.04708 0.05006 0.0
C18 C 0.91732 0.93036 0.08186 0.0
O19 O 0.97436 0.93748 0.06956 0.0
O20 O 0.87673 0.95023 0.05006 0.0
O21 O 0.20805 0.91141 0.96645 0.0
O22 O 0.13747 0.83371 0.93918 0.0
O23 O 0.14756 0.91533 0.09229 0.0
C24 C 0.1918 0.86228 0.93831 0.0
O25 O 0.07944 0.83381 0.0747 0.0
O26 O 0.96958 0.84104 0.94786 0.0
C27 C 0.11896 0.86433 0.10732 0.0
O28 O 0.94627 0.93589 0.93758 0.0
O29 O 0.06167 0.04761 0.91716 0.0
O30 O 0.15955 0.0391 0.93902 0.0
Fe31 Fe 0.52379 0.55801 0.5012 0.0
O32 O 0.47328 0.48341 0.5289 0.0
Fe33 Fe 0.65738 0.50519 0.46041 0.0
Fe34 Fe 0.38392 0.47484 0.52935 0.0
O35 O 0.56719 0.49978 0.45878 0.0
O36 O 0.56795 0.49364 0.4601 0.0
O37 O 0.47392 0.47705 0.53002 0.0
Fe38 Fe 0.51665 0.41886 0.48642 0.0
C39 C 0.43507 0.58988 0.59287 0.0
O40 O 0.46469 0.56641 0.4334 0.0
O41 O 0.37721 0.54877 0.47887 0.0
O42 O 0.56765 0.36826 0.43463 0.0
O43 O 0.64243 0.43937 0.39881 0.0
O44 O 0.64713 0.57817 0.41093 0.0
O45 O 0.58382 0.62914 0.46449 0.0
O46 O 0.36873 0.41874 0.459 0.0
O47 O 0.45939 0.42563 0.41812 0.0
C48 C 0.62263 0.62599 0.42395 0.0
O49 O 0.5749 0.40819 0.5544 0.0
O50 O 0.66606 0.43647 0.51624 0.0
O51 O 0.47306 0.60872 0.55323 0.0
O52 O 0.40255 0.53681 0.5943 0.0
C53 C 0.40813 0.57183 0.43784 0.0
C54 C 0.40167 0.41155 0.41658 0.0
C55 C 0.41277 0.34904 0.55751 0.0
O56 O 0.3903 0.39694 0.5738 0.0
O57 O 0.45522 0.34778 0.52015 0.0
C58 C 0.60994 0.38635 0.39851 0.0
O59 O 0.67067 0.56644 0.52715 0.0
O60 O 0.58126 0.55284 0.56934 0.0
C61 C 0.63304 0.41025 0.55451 0.0
C62 C 0.63808 0.57127 0.57019 0.0
C63 C 0.17759 0.19337 0.08496 0.0
C64 C 0.15603 0.1315 0.08974 0.0
C65 C 0.21719 0.22262 0.12602 0.0
C66 C 0.23632 0.19052 0.1729 0.0
C67 C 0.21801 0.12784 0.17568 0.0
C68 C 0.17863 0.0984 0.13423 0.0
C69 C 0.26865 0.22214 0.2224 0.0
C70 C 0.30114 0.27753 0.21968 0.0
C71 C 0.32584 0.31184 0.27059 0.0
C72 C 0.38045 0.35153 0.26709 0.0
C73 C 0.40445 0.38486 0.31424 0.0
C74 C 0.37346 0.38027 0.36557 0.0
H75 H 0.25092 0.27919 0.32516 0.0
C76 C 0.31764 0.34209 0.36854 0.0
C77 C 0.29417 0.30798 0.32159 0.0
H78 H 0.2928 0.3374 0.40751 0.0
H79 H 0.16115 0.22009 0.05103 0.0
H80 H 0.22917 0.27104 0.12251 0.0
H81 H 0.23202 0.10201 0.21134 0.0
H82 H 0.16265 0.05072 0.13922 0.0
H83 H 0.26426 0.19935 0.26292 0.0
H84 H 0.31114 0.29834 0.17898 0.0
H85 H 0.40518 0.35597 0.22803 0.0
H86 H 0.44751 0.41403 0.31056 0.0
C87 C 0.74992 0.12378 0.09025 0.0
C88 C 0.79592 0.15836 0.05971 0.0
C89 C 0.71099 0.15226 0.12429 0.0
C90 C 0.71701 0.21577 0.12744 0.0
C91 C 0.76039 0.24994 0.09401 0.0
C92 C 0.79993 0.22164 0.06106 0.0
C93 C 0.68228 0.24881 0.16719 0.0
C94 C 0.66437 0.22743 0.21819 0.0
C95 C 0.64782 0.26834 0.26319 0.0
C96 C 0.6063 0.24673 0.3049 0.0
C97 C 0.59319 0.28473 0.34899 0.0
C98 C 0.62239 0.34468 0.35257 0.0
H99 H 0.71149 0.3457 0.23752 0.0
C100 C 0.66451 0.36557 0.31103 0.0
C101 C 0.67718 0.32803 0.26726 0.0
H102 H 0.68843 0.41117 0.31219 0.0
H103 H 0.74583 0.07484 0.08984 0.0
H104 H 0.67708 0.12457 0.14855 0.0
H105 H 0.76571 0.29893 0.09537 0.0
H106 H 0.83456 0.24938 0.03753 0.0
H107 H 0.67842 0.29571 0.15697 0.0
H108 H 0.66651 0.18046 0.22911 0.0
H109 H 0.58392 0.20054 0.30326 0.0
H110 H 0.56067 0.26704 0.38031 0.0
C111 C 0.84482 0.92114 0.16067 0.0
C112 C 0.89597 0.90174 0.13523 0.0
C113 C 0.81771 0.89043 0.20663 0.0
C114 C 0.84097 0.83917 0.2283 0.0
C115 C 0.89405 0.82146 0.20467 0.0
C116 C 0.92184 0.85293 0.1588 0.0
C117 C 0.80593 0.79879 0.26935 0.0
C118 C 0.76266 0.81608 0.30305 0.0
C119 C 0.71954 0.7709 0.33281 0.0
C120 C 0.70137 0.78152 0.38802 0.0
C121 C 0.66475 0.73607 0.41736 0.0
C122 C 0.64535 0.68013 0.3912 0.0
H123 H 0.70662 0.70841 0.26217 0.0
C124 C 0.65902 0.67212 0.33434 0.0
C125 C 0.69571 0.71684 0.30553 0.0
H126 H 0.64394 0.62968 0.31291 0.0
H127 H 0.82428 0.95918 0.14374 0.0
H128 H 0.77641 0.90505 0.22258 0.0
H129 H 0.91269 0.78183 0.22035 0.0
H130 H 0.96126 0.83714 0.14001 0.0
H131 H 0.81357 0.75157 0.26929 0.0
H132 H 0.75791 0.86357 0.30841 0.0
H133 H 0.71811 0.82357 0.40936 0.0
H134 H 0.65514 0.74315 0.46128 0.0
C135 C 0.19689 0.85743 0.18524 0.0
C136 C 0.1406 0.83475 0.15886 0.0
C137 C 0.22436 0.82308 0.22559 0.0
C138 C 0.19598 0.76535 0.24069 0.0
C139 C 0.13764 0.7448 0.21761 0.0
C140 C 0.11039 0.77885 0.17688 0.0
C141 C 0.22567 0.72531 0.2801 0.0
C142 C 0.28706 0.72696 0.28657 0.0
C143 C 0.31697 0.68549 0.32465 0.0
C144 C 0.37861 0.67759 0.31666 0.0
C145 C 0.40846 0.64002 0.35252 0.0
C146 C 0.37723 0.60969 0.39737 0.0
H147 H 0.23936 0.66126 0.37894 0.0
C148 C 0.31558 0.61768 0.40518 0.0
C149 C 0.28603 0.65524 0.36971 0.0
H150 H 0.28996 0.59565 0.43953 0.0
H151 H 0.22139 0.90047 0.17278 0.0
H152 H 0.26818 0.84156 0.24414 0.0
H153 H 0.11412 0.70103 0.22933 0.0
H154 H 0.06682 0.76015 0.15785 0.0
H155 H 0.19546 0.69054 0.30119 0.0
H156 H 0.31696 0.75816 0.26121 0.0
H157 H 0.40387 0.70067 0.2826 0.0
H158 H 0.45601 0.63526 0.34542 0.0
C159 C 0.29666 0.84452 0.90665 0.0
C160 C 0.23337 0.84271 0.89612 0.0
C161 C 0.33421 0.82533 0.86497 0.0
C162 C 0.30899 0.80613 0.81183 0.0
C163 C 0.24625 0.80642 0.80108 0.0
C164 C 0.20873 0.82357 0.84295 0.0
C165 C 0.34576 0.7839 0.76675 0.0
C166 C 0.38517 0.7437 0.77688 0.0
C167 C 0.40579 0.707 0.73061 0.0
C168 C 0.40606 0.64487 0.73922 0.0
C169 C 0.4164 0.60718 0.69445 0.0
C170 C 0.42829 0.63111 0.6404 0.0
H171 H 0.42131 0.77958 0.66956 0.0
C172 C 0.43198 0.69389 0.63245 0.0
C173 C 0.42021 0.73155 0.67711 0.0
H174 H 0.44162 0.71354 0.59132 0.0
H175 H 0.31671 0.85967 0.94716 0.0
H176 H 0.38274 0.82602 0.87399 0.0
H177 H 0.22585 0.79192 0.76047 0.0
H178 H 0.16026 0.82275 0.83331 0.0
H179 H 0.33198 0.79239 0.72342 0.0
H180 H 0.39358 0.73001 0.8201 0.0
H181 H 0.39537 0.62495 0.78008 0.0
H182 H 0.4144 0.55905 0.70202 0.0
C183 C 0.20471 0.1158 0.85524 0.0
C184 C 0.14191 0.09393 0.85709 0.0
C185 C 0.23016 0.14151 0.80643 0.0
C186 C 0.19363 0.14614 0.75773 0.0
C187 C 0.13012 0.12773 0.76018 0.0
C188 C 0.10436 0.10142 0.80947 0.0
C189 C 0.22117 0.1734 0.70554 0.0
C190 C 0.27943 0.16794 0.69151 0.0
C191 C 0.31394 0.20533 0.64789 0.0
C192 C 0.37845 0.21447 0.65205 0.0
C193 C 0.41238 0.25784 0.61859 0.0
C194 C 0.38206 0.2922 0.58032 0.0
H195 H 0.23533 0.22866 0.59919 0.0
C196 C 0.31831 0.27935 0.57252 0.0
C197 C 0.2845 0.23599 0.60559 0.0
H198 H 0.29419 0.30541 0.54286 0.0
H199 H 0.23492 0.11223 0.89151 0.0
H200 H 0.2786 0.15812 0.80727 0.0
H201 H 0.10073 0.13234 0.72355 0.0
H202 H 0.05579 0.08537 0.8097 0.0
H203 H 0.19355 0.20078 0.68044 0.0
H204 H 0.30525 0.13894 0.71687 0.0
H205 H 0.40243 0.19093 0.68382 0.0
H206 H 0.46148 0.26755 0.62558 0.0
C207 C 0.9171 0.19788 0.80479 0.0
C208 C 0.89954 0.13658 0.8176 0.0
C209 C 0.88339 0.22745 0.76516 0.0
C210 C 0.83131 0.1963 0.73747 0.0
C211 C 0.8177 0.13379 0.7461 0.0
C212 C 0.85122 0.10425 0.78582 0.0
C213 C 0.78914 0.2275 0.7009 0.0
C214 C 0.78267 0.28651 0.70663 0.0
C215 C 0.74034 0.31784 0.67075 0.0
C216 C 0.75753 0.37895 0.65779 0.0
C217 C 0.72094 0.40949 0.62187 0.0
C218 C 0.66536 0.38013 0.59938 0.0
H219 H 0.66807 0.24224 0.66053 0.0
C220 C 0.64602 0.32003 0.61483 0.0
C221 C 0.6835 0.28886 0.64995 0.0
H222 H 0.60346 0.29641 0.59774 0.0
H223 H 0.95449 0.22412 0.82785 0.0
H224 H 0.89743 0.27501 0.75763 0.0
H225 H 0.77882 0.10828 0.72439 0.0
H226 H 0.83676 0.05681 0.794 0.0
H227 H 0.7607 0.20027 0.6699 0.0
H228 H 0.8108 0.31409 0.73751 0.0
H229 H 0.80056 0.40258 0.67389 0.0
H230 H 0.73673 0.45592 0.61062 0.0
C231 C 0.85599 0.79203 0.90142 0.0
C232 C 0.87873 0.85359 0.89673 0.0
C233 C 0.81564 0.76372 0.8605 0.0
C234 C 0.79695 0.79649 0.81388 0.0
C235 C 0.81618 0.85904 0.81144 0.0
C236 C 0.85636 0.88755 0.85278 0.0
C237 C 0.76465 0.76549 0.76408 0.0
C238 C 0.7323 0.71004 0.76639 0.0
C239 C 0.70889 0.67536 0.71532 0.0
C240 C 0.65547 0.63403 0.71875 0.0
C241 C 0.63315 0.59949 0.67183 0.0
C242 C 0.6646 0.60463 0.62075 0.0
H243 H 0.78346 0.71001 0.66106 0.0
C244 C 0.71913 0.64472 0.61775 0.0
C245 C 0.74099 0.67996 0.66453 0.0
H246 H 0.74431 0.64978 0.57898 0.0
H247 H 0.87234 0.76475 0.93496 0.0
H248 H 0.803 0.71537 0.86379 0.0
H249 H 0.80254 0.88537 0.77599 0.0
H250 H 0.87339 0.93501 0.84789 0.0
H251 H 0.76949 0.7885 0.7237 0.0
H252 H 0.72187 0.6891 0.80696 0.0
H253 H 0.63048 0.62899 0.75764 0.0
H254 H 0.59105 0.56886 0.67558 0.0
loop_
_geom_bond_atom_site_label_1
_geom_bond_atom_site_label_2
_geom_bond_distance
_geom_bond_site_symmetry_2
_ccdc_geom_bond_type
C0 O12 1.241 . S
C0 O13 1.280 . S
C1 O14 1.277 . S
C1 O15 1.245 . S
C2 O26 1.247 . S
C2 O28 1.289 . S
Mg3 O4 1.926 . S
Mg3 O13 1.984 . S
Mg3 O15 1.988 1_554 S
Mg3 O16 2.061 1_655 S
O4 Mg3 1.926 . S
O4 Mg5 1.987 . S
O4 Mg6 1.917 1_655 S
Mg5 O4 1.987 . S
Mg5 O12 2.045 . S
Mg5 O14 2.038 1_554 S
Mg5 O20 2.041 1_545 S
Mg5 O28 2.236 1_544 S
Mg6 O4 1.917 1_455 S
Mg6 O7 1.917 1_544 S
Mg6 O17 2.106 . S
Mg6 O19 2.079 1_445 S
Mg6 O28 2.106 1_444 S
Mg6 O29 2.079 1_554 S
O7 Mg6 1.917 1_566 S
O7 Mg8 1.926 . S
O7 Mg9 1.986 . S
Mg8 O7 1.926 . S
Mg8 O22 1.984 . S
Mg8 O25 1.988 1_556 S
Mg8 O26 2.061 1_455 S
Mg9 O7 1.986 . S
Mg9 O17 2.238 1_566 S
Mg9 O21 2.042 . S
Mg9 O23 2.042 1_556 S
Mg9 O30 2.038 1_565 S
C10 O16 1.247 . S
C10 O17 1.289 . S
C11 O29 1.245 . S
C11 O30 1.274 . S
O12 C0 1.241 . S
O12 Mg5 2.045 . S
O13 C0 1.280 . S
O13 Mg3 1.984 . S
O14 C1 1.277 . S
O14 Mg5 2.038 1_556 S
O15 C1 1.245 . S
O15 Mg3 1.988 1_556 S
O16 Mg3 2.061 1_455 S
O16 C10 1.247 . S
O17 Mg6 2.106 . S
O17 Mg9 2.238 1_544 S
O17 C10 1.289 . S
C18 O19 1.245 . S
C18 O20 1.274 . S
O19 Mg6 2.079 1_665 S
O19 C18 1.245 . S
O20 Mg5 2.041 1_565 S
O20 C18 1.274 . S
O21 Mg9 2.042 . S
O21 C24 1.241 . S
O22 Mg8 1.984 . S
O22 C24 1.280 . S
O23 Mg9 2.042 1_554 S
O23 C27 1.277 . S
C24 O21 1.241 . S
C24 O22 1.280 . S
O25 Mg8 1.988 1_554 S
O25 C27 1.245 . S
O26 C2 1.247 . S
O26 Mg8 2.061 1_655 S
C27 O23 1.277 . S
C27 O25 1.245 . S
O28 C2 1.289 . S
O28 Mg5 2.236 1_566 S
O28 Mg6 2.106 1_666 S
O29 Mg6 2.079 1_556 S
O29 C11 1.245 . S
O30 Mg9 2.038 1_545 S
O30 C11 1.274 . S
Fe31 O32 1.886 . S
Fe31 O35 1.715 . S
Fe31 O40 2.077 . S
Fe31 O45 1.935 . S
Fe31 O51 2.077 . S
Fe31 O60 1.935 . S
O32 Fe31 1.886 . S
O32 Fe34 1.715 . S
Fe33 O35 1.886 . S
Fe33 O36 1.715 . S
Fe33 O43 1.935 . S
Fe33 O44 2.077 . S
Fe33 O50 1.935 . S
Fe33 O59 2.077 . S
Fe34 O32 1.715 . S
Fe34 O37 1.886 . S
Fe34 O41 1.935 . S
Fe34 O46 2.077 . S
Fe34 O52 1.935 . S
Fe34 O56 2.077 . S
O35 Fe31 1.715 . S
O35 Fe33 1.886 . S
O36 Fe33 1.715 . S
O36 Fe38 1.886 . S
O37 Fe34 1.886 . S
O37 Fe38 1.715 . S
Fe38 O36 1.886 . S
Fe38 O37 1.715 . S
Fe38 O42 2.077 . S
Fe38 O47 1.935 . S
Fe38 O49 2.077 . S
Fe38 O57 1.935 . S
C39 O51 1.381 . S
C39 O52 1.421 . S
O40 Fe31 2.077 . S
O40 C53 1.381 . S
O41 Fe34 1.935 . S
O41 C53 1.421 . S
O42 Fe38 2.077 . S
O42 C58 1.381 . S
O43 Fe33 1.935 . S
O43 C58 1.421 . S
O44 Fe33 2.077 . S
O44 C48 1.381 . S
O45 Fe31 1.935 . S
O45 C48 1.421 . S
O46 Fe34 2.077 . S
O46 C54 1.381 . S
O47 Fe38 1.935 . S
O47 C54 1.421 . S
C48 O44 1.381 . S
C48 O45 1.421 . S
O49 Fe38 2.077 . S
O49 C61 1.381 . S
O50 Fe33 1.935 . S
O50 C61 1.421 . S
O51 Fe31 2.077 . S
O51 C39 1.381 . S
O52 Fe34 1.935 . S
O52 C39 1.421 . S
C53 O40 1.381 . S
C53 O41 1.421 . S
C54 O46 1.381 . S
C54 O47 1.421 . S
C55 O56 1.381 . S
C55 O57 1.421 . S
O56 Fe34 2.077 . S
O56 C55 1.381 . S
O57 Fe38 1.935 . S
O57 C55 1.421 . S
C58 O42 1.381 . S
C58 O43 1.421 . S
O59 Fe33 2.077 . S
O59 C62 1.381 . S
O60 Fe31 1.935 . S
O60 C62 1.421 . S
C61 O49 1.381 . S
C61 O50 1.421 . S
C62 O59 1.381 . S
C62 O60 1.421 . S
C63 C64 1.386 . S
C63 C65 1.383 . S
C63 H79 0.951 . S
C64 C63 1.386 . S
C64 C68 1.383 . S
C65 C63 1.383 . S
C65 C66 1.402 . S
C65 H80 0.951 . S
C66 C65 1.402 . S
C66 C67 1.375 . S
C66 C69 1.481 . S
C67 C66 1.375 . S
C67 C68 1.367 . S
C67 H81 0.951 . S
C68 C64 1.383 . S
C68 C67 1.367 . S
C68 H82 0.950 . S
C69 C66 1.481 . S
C69 C70 1.297 . S
C69 H83 0.950 . S
C70 C69 1.297 . S
C70 C71 1.479 . S
C70 H84 0.950 . S
C71 C70 1.479 . S
C71 C72 1.375 . S
C71 C77 1.404 . S
C72 C71 1.375 . S
C72 C73 1.369 . S
C72 H85 0.950 . S
C73 C72 1.369 . S
C73 C74 1.392 . S
C73 H86 0.951 . S
C74 C73 1.392 . S
C74 C76 1.384 . S
H75 C77 0.949 . S
C76 C74 1.384 . S
C76 C77 1.385 . S
C76 H78 0.950 . S
C77 C71 1.404 . S
C77 H75 0.949 . S
C77 C76 1.385 . S
H78 C76 0.950 . S
H79 C63 0.951 . S
H80 C65 0.951 . S
H81 C67 0.951 . S
H82 C68 0.950 . S
H83 C69 0.950 . S
H84 C70 0.950 . S
H85 C72 0.950 . S
H86 C73 0.951 . S
C87 C88 1.386 . S
C87 C89 1.383 . S
C87 H103 0.951 . S
C88 C87 1.386 . S
C88 C92 1.383 . S
C89 C87 1.383 . S
C89 C90 1.402 . S
C89 H104 0.951 . S
C90 C89 1.402 . S
C90 C91 1.375 . S
C90 C93 1.481 . S
C91 C90 1.375 . S
C91 C92 1.367 . S
C91 H105 0.951 . S
C92 C88 1.383 . S
C92 C91 1.367 . S
C92 H106 0.950 . S
C93 C90 1.481 . S
C93 C94 1.297 . S
C93 H107 0.950 . S
C94 C93 1.297 . S
C94 C95 1.479 . S
C94 H108 0.950 . S
C95 C94 1.479 . S
C95 C96 1.375 . S
C95 C101 1.404 . S
C96 C95 1.375 . S
C96 C97 1.369 . S
C96 H109 0.950 . S
C97 C96 1.369 . S
C97 C98 1.392 . S
C97 H110 0.951 . S
C98 C97 1.392 . S
C98 C100 1.384 . S
H99 C101 0.949 . S
C100 C98 1.384 . S
C100 C101 1.385 . S
C100 H102 0.950 . S
C101 C95 1.404 . S
C101 H99 0.949 . S
C101 C100 1.385 . S
H102 C100 0.950 . S
H103 C87 0.951 . S
H104 C89 0.951 . S
H105 C91 0.951 . S
H106 C92 0.950 . S
H107 C93 0.950 . S
H108 C94 0.950 . S
H109 C96 0.950 . S
H110 C97 0.951 . S
C111 C112 1.386 . S
C111 C113 1.383 . S
C111 H127 0.951 . S
C112 C111 1.386 . S
C112 C116 1.383 . S
C113 C111 1.383 . S
C113 C114 1.402 . S
C113 H128 0.951 . S
C114 C113 1.402 . S
C114 C115 1.375 . S
C114 C117 1.481 . S
C115 C114 1.375 . S
C115 C116 1.367 . S
C115 H129 0.951 . S
C116 C112 1.383 . S
C116 C115 1.367 . S
C116 H130 0.950 . S
C117 C114 1.481 . S
C117 C118 1.297 . S
C117 H131 0.950 . S
C118 C117 1.297 . S
C118 C119 1.479 . S
C118 H132 0.950 . S
C119 C118 1.479 . S
C119 C120 1.375 . S
C119 C125 1.404 . S
C120 C119 1.375 . S
C120 C121 1.369 . S
C120 H133 0.950 . S
C121 C120 1.369 . S
C121 C122 1.392 . S
C121 H134 0.951 . S
C122 C121 1.392 . S
C122 C124 1.384 . S
H123 C125 0.949 . S
C124 C122 1.384 . S
C124 C125 1.385 . S
C124 H126 0.950 . S
C125 C119 1.404 . S
C125 H123 0.949 . S
C125 C124 1.385 . S
H126 C124 0.950 . S
H127 C111 0.951 . S
H128 C113 0.951 . S
H129 C115 0.951 . S
H130 C116 0.950 . S
H131 C117 0.950 . S
H132 C118 0.950 . S
H133 C120 0.950 . S
H134 C121 0.951 . S
C135 C136 1.386 . S
C135 C137 1.383 . S
C135 H151 0.951 . S
C136 C135 1.386 . S
C136 C140 1.383 . S
C137 C135 1.383 . S
C137 C138 1.402 . S
C137 H152 0.951 . S
C138 C137 1.402 . S
C138 C139 1.375 . S
C138 C141 1.481 . S
C139 C138 1.375 . S
C139 C140 1.367 . S
C139 H153 0.951 . S
C140 C136 1.383 . S
C140 C139 1.367 . S
C140 H154 0.950 . S
C141 C138 1.481 . S
C141 C142 1.297 . S
C141 H155 0.950 . S
C142 C141 1.297 . S
C142 C143 1.479 . S
C142 H156 0.950 . S
C143 C142 1.479 . S
C143 C144 1.375 . S
C143 C149 1.404 . S
C144 C143 1.375 . S
C144 C145 1.369 . S
C144 H157 0.950 . S
C145 C144 1.369 . S
C145 C146 1.392 . S
C145 H158 0.951 . S
C146 C145 1.392 . S
C146 C148 1.384 . S
H147 C149 0.949 . S
C148 C146 1.384 . S
C148 C149 1.385 . S
C148 H150 0.950 . S
C149 C143 1.404 . S
C149 H147 0.949 . S
C149 C148 1.385 . S
H150 C148 0.950 . S
H151 C135 0.951 . S
H152 C137 0.951 . S
H153 C139 0.951 . S
H154 C140 0.950 . S
H155 C141 0.950 . S
H156 C142 0.950 . S
H157 C144 0.950 . S
H158 C145 0.951 . S
C159 C160 1.386 . S
C159 C161 1.383 . S
C159 H175 0.951 . S
C160 C159 1.386 . S
C160 C164 1.383 . S
C161 C159 1.383 . S
C161 C162 1.402 . S
C161 H176 0.951 . S
C162 C161 1.402 . S
C162 C163 1.375 . S
C162 C165 1.481 . S
C163 C162 1.375 . S
C163 C164 1.367 . S
C163 H177 0.951 . S
C164 C160 1.383 . S
C164 C163 1.367 . S
C164 H178 0.950 . S
C165 C162 1.481 . S
C165 C166 1.297 . S
C165 H179 0.950 . S
C166 C165 1.297 . S
C166 C167 1.479 . S
C166 H180 0.950 . S
C167 C166 1.479 . S
C167 C168 1.375 . S
C167 C173 1.404 . S
C168 C167 1.375 . S
C168 C169 1.369 . S
C168 H181 0.950 . S
C169 C168 1.369 . S
C169 C170 1.392 . S
C169 H182 0.951 . S
C170 C169 1.392 . S
C170 C172 1.384 . S
H171 C173 0.949 . S
C172 C170 1.384 . S
C172 C173 1.385 . S
C172 H174 0.950 . S
C173 C167 1.404 . S
C173 H171 0.949 . S
C173 C172 1.385 . S
H174 C172 0.950 . S
H175 C159 0.951 . S
H176 C161 0.951 . S
H177 C163 0.951 . S
H178 C164 0.950 . S
H179 C165 0.950 . S
H180 C166 0.950 . S
H181 C168 0.950 . S
H182 C169 0.951 . S
C183 C184 1.386 . S
C183 C185 1.383 . S
C183 H199 0.951 . S
C184 C183 1.386 . S
C184 C188 1.383 . S
C185 C183 1.383 . S
C185 C186 1.402 . S
C185 H200 0.951 . S
C186 C185 1.402 . S
C186 C187 1.375 . S
C186 C189 1.481 . S
C187 C186 1.375 . S
C187 C188 1.367 . S
C187 H201 0.951 . S
C188 C184 1.383 . S
C188 C187 1.367 . S
C188 H202 0.950 . S
C189 C186 1.481 . S
C189 C190 1.297 . S
C189 H203 0.950 . S
C190 C189 1.297 . S
C190 C191 1.479 . S
C190 H204 0.950 . S
C191 C190 1.479 . S
C191 C192 1.375 . S
C191 C197 1.404 . S
C192 C191 1.375 . S
C192 C193 1.369 . S
C192 H205 0.950 . S
C193 C192 1.369 . S
C193 C194 1.392 . S
C193 H206 0.951 . S
C194 C193 1.392 . S
C194 C196 1.384 . S
H195 C197 0.949 . S
C196 C194 1.384 . S
C196 C197 1.385 . S
C196 H198 0.950 . S
C197 C191 1.404 . S
C197 H195 0.949 . S
C197 C196 1.385 . S
H198 C196 0.950 . S
H199 C183 0.951 . S
H200 C185 0.951 . S
H201 C187 0.951 . S
H202 C188 0.950 . S
H203 C189 0.950 . S
H204 C190 0.950 . S
H205 C192 0.950 . S
H206 C193 0.951 . S
C207 C208 1.386 . S
C207 C209 1.383 . S
C207 H223 0.951 . S
C208 C207 1.386 . S
C208 C212 1.383 . S
C209 C207 1.383 . S
C209 C210 1.402 . S
C209 H224 0.951 . S
C210 C209 1.402 . S
C210 C211 1.375 . S
C210 C213 1.481 . S
C211 C210 1.375 . S
C211 C212 1.367 . S
C211 H225 0.951 . S
C212 C208 1.383 . S
C212 C211 1.367 . S
C212 H226 0.950 . S
C213 C210 1.481 . S
C213 C214 1.297 . S
C213 H227 0.950 . S
C214 C213 1.297 . S
C214 C215 1.479 . S
C214 H228 0.950 . S
C215 C214 1.479 . S
C215 C216 1.375 . S
C215 C221 1.404 . S
C216 C215 1.375 . S
C216 C217 1.369 . S
C216 H229 0.950 . S
C217 C216 1.369 . S
C217 C218 1.392 . S
C217 H230 0.951 . S
C218 C217 1.392 . S
C218 C220 1.384 . S
H219 C221 0.949 . S
C220 C218 1.384 . S
C220 C221 1.385 . S
C220 H222 0.950 . S
C221 C215 1.404 . S
C221 H219 0.949 . S
C221 C220 1.385 . S
H222 C220 0.950 . S
H223 C207 0.951 . S
H224 C209 0.951 . S
H225 C211 0.951 . S
H226 C212 0.950 . S
H227 C213 0.950 . S
H228 C214 0.950 . S
H229 C216 0.950 . S
H230 C217 0.951 . S
C231 C232 1.386 . S
C231 C233 1.383 . S
C231 H247 0.951 . S
C232 C231 1.386 . S
C232 C236 1.383 . S
C233 C231 1.383 . S
C233 C234 1.402 . S
C233 H248 0.951 . S
C234 C233 1.402 . S
C234 C235 1.375 . S
C234 C237 1.481 . S
C235 C234 1.375 . S
C235 C236 1.367 . S
C235 H249 0.951 . S
C236 C232 1.383 . S
C236 C235 1.367 . S
C236 H250 0.950 . S
C237 C234 1.481 . S
C237 C238 1.297 . S
C237 H251 0.950 . S
C238 C237 1.297 . S
C238 C239 1.479 . S
C238 H252 0.950 . S
C239 C238 1.479 . S
C239 C240 1.375 . S
C239 C245 1.404 . S
C240 C239 1.375 . S
C240 C241 1.369 . S
C240 H253 0.950 . S
C241 C240 1.369 . S
C241 C242 1.392 . S
C241 H254 0.951 . S
C242 C241 1.392 . S
C242 C244 1.384 . S
H243 C245 0.949 . S
C244 C242 1.384 . S
C244 C245 1.385 . S
C244 H246 0.950 . S
C245 C239 1.404 . S
C245 H243 0.949 . S
C245 C244 1.385 . S
H246 C244 0.950 . S
H247 C231 0.951 . S
H248 C233 0.951 . S
H249 C235 0.951 . S
H250 C236 0.950 . S
H251 C237 0.950 . S
H252 C238 0.950 . S
H253 C240 0.950 . S
H254 C241 0.951 . S
C64 C10 1.145 . S
C74 C54 1.116 . S
C88 C0 1.539 . S
C98 C58 1.491 . S
C112 C18 1.445 . S
C122 C48 1.479 . S
C136 C27 1.638 . S
C146 C53 1.560 . S
C160 C24 1.555 . S
C170 C39 1.525 . S
C194 C55 1.491 . S
C184 C11 1.485 . S
C208 C1 1.622 . S
C218 C61 1.562 . S
C242 C62 1.156 . S
C232 C2 1.157 . S
