# Generated by pormake.
# Topology pth, (4,4)-cn, num edge types: 1
# Building blocks:
#     Node 0, Type 0, BuildingBlock: GALJAG_clean_sbu_0, # of connection points: 4
#     Node 1, Type 0, BuildingBlock: GALJAG_clean_sbu_0, # of connection points: 4
#     Node 2, Type 0, BuildingBlock: GALJAG_clean_sbu_0, # of connection points: 4
#     Node 3, Type 1, BuildingBlock: NAWXER_clean_sbu_0, # of connection points: 4
#     Node 4, Type 1, BuildingBlock: NAWXER_clean_sbu_0, # of connection points: 4
#     Node 5, Type 1, BuildingBlock: NAWXER_clean_sbu_0, # of connection points: 4
#     Edge 6, Type (0, 1), None
#     Edge 7, Type (0, 1), None
#     Edge 8, Type (0, 1), None
#     Edge 9, Type (0, 1), None
#     Edge 10, Type (0, 1), None
#     Edge 11, Type (0, 1), None
#     Edge 12, Type (0, 1), None
#     Edge 13, Type (0, 1), None
#     Edge 14, Type (0, 1), None
#     Edge 15, Type (0, 1), None
#     Edge 16, Type (0, 1), None
#     Edge 17, Type (0, 1), None
# Relax obj value: 0.017
# Max RMSD: 0.060
# Mean RMSD: 0.053
data_MOF--net-pth--node1-GALJAG_clean_sbu_0--node2-NAWXER_clean_sbu_0--edge1-none
_symmetry_space_group_name_H-M    P1
_symmetry_Int_Tables_number       1
_symmetry_cell_setting            triclinic
loop_
_symmetry_equiv_pos_as_xyz
'x, y, z'
_cell_length_a     9.506919
_cell_length_b     9.5073851
_cell_length_c     27.419238
_cell_angle_alpha  90.13161
_cell_angle_beta   90.128949
_cell_angle_gamma 120.0047
loop_
_atom_site_label
_atom_site_type_symbol
_atom_site_fract_x
_atom_site_fract_y
_atom_site_fract_z
_atom_type_partial_charge
In0 In 0.09539 0.05938 0.02497 0.0
O1 O 0.91282 0.09001 0.07489 0.0
O2 O 0.159 0.2782 0.07109 0.0
C3 C 0.85066 0.88921 -0.03939 0.0
C4 C 0.33953 0.22833 -0.03906 0.0
C5 C 0.16981 0.89003 0.0893 0.0
O6 O 0.88256 1.0285 -0.0255 0.0
O7 O 0.94038 0.84027 -0.0211 0.0
O8 O 0.27709 1.02945 0.0758 0.0
O9 O 1.03142 0.84054 0.07063 0.0
C10 C 1.02006 0.22912 0.08902 0.0
O11 O 0.30736 0.08907 -0.02533 0.0
O12 O 0.25051 0.27795 -0.02073 0.0
In13 In 0.09092 0.0594 0.35829 0.0
O14 O 0.27364 0.27219 0.30845 0.0
O15 O 1.02762 0.21464 0.31235 0.0
C16 C 0.33501 0.13352 0.42278 0.0
C17 C 0.84614 0.98377 0.42218 0.0
C18 C 1.0168 0.81531 0.29379 0.0
O19 O 0.30299 0.24093 0.40921 0.0
O20 O 0.24574 0.99512 0.40413 0.0
O21 O 0.90937 0.84731 0.30738 0.0
O22 O 0.15521 0.90459 0.31245 0.0
C23 C 0.16654 0.30417 0.2944 0.0
O24 O 0.87813 0.87669 0.40813 0.0
O25 O 0.93566 0.12269 0.40423 0.0
In26 In 0.09089 0.05492 0.69162 0.0
O27 O 1.06122 0.84295 0.74191 0.0
O28 O 0.87232 0.89978 0.73732 0.0
C29 C 0.26025 0.98049 0.62728 0.0
C30 C 0.92116 0.13024 0.62757 0.0
C31 C 0.26105 0.29963 0.75598 0.0
O32 O 0.12081 0.87323 0.64078 0.0
O33 O 0.30974 0.11888 0.64596 0.0
O34 O 0.12175 0.26772 0.7421 0.0
O35 O 0.31002 0.20994 0.73769 0.0
C36 C 0.92195 0.81077 0.75565 0.0
O37 O 1.06028 0.23747 0.64169 0.0
O38 O 0.87206 0.99132 0.6455 0.0
C39 C 0.9967 0.6974 0.25581 0.0
C40 C 0.99893 0.32647 0.12689 0.0
O41 O 0.12901 0.71351 0.23971 0.0
Zn42 Zn 0.23589 0.63095 0.192 0.0
O43 O 0.86068 0.58577 0.23865 0.0
Zn44 Zn 0.95077 0.48837 0.19126 0.0
O45 O 1.05589 0.40583 0.23966 0.0
O46 O 0.32424 0.53368 0.24001 0.0
O47 O 0.8624 0.30185 0.14335 0.0
O48 O 0.13075 0.44235 0.14369 0.0
O49 O 0.32596 0.81755 0.14451 0.0
O50 O 1.05763 0.6769 0.14345 0.0
C51 C 0.18771 0.42209 0.2565 0.0
C52 C 0.18994 0.79281 0.12731 0.0
C53 C 0.82381 0.15138 0.5897 0.0
C54 C 0.45291 0.15361 0.46077 0.0
O55 O 0.70794 1.01956 0.57289 0.0
Zn56 Zn 0.51934 0.91443 0.52458 0.0
O57 O 0.84844 0.2879 0.57324 0.0
Zn58 Zn 0.66193 0.19954 0.52533 0.0
O59 O 0.47338 0.09267 0.57314 0.0
O60 O 0.33272 0.82436 0.57207 0.0
O61 O 0.56454 0.28962 0.47794 0.0
O62 O 0.43679 1.0213 0.47687 0.0
O63 O 0.61662 0.82609 0.47657 0.0
O64 O 0.74448 0.09442 0.47692 0.0
C65 C 0.35747 0.96037 0.58927 0.0
C66 C 0.72821 0.96261 0.46008 0.0
C67 C 0.45688 0.32502 0.92296 0.0
C68 C 0.82527 0.69342 0.79362 0.0
O69 O 0.4404 0.44059 0.90646 0.0
Zn70 Zn 0.52205 0.62822 0.8583 0.0
O71 O 0.56814 0.30001 0.9061 0.0
Zn72 Zn 0.66461 0.48569 0.85829 0.0
O73 O 0.74808 0.67516 0.90626 0.0
O74 O 0.62026 0.81566 0.9059 0.0
O75 O 0.85029 0.58218 0.81048 0.0
O76 O 0.70969 0.70989 0.81013 0.0
O77 O 0.3346 0.53001 0.8107 0.0
O78 O 0.47512 0.40222 0.81033 0.0
C79 C 0.7322 0.79134 0.92269 0.0
C80 C 0.35893 0.41809 0.7939 0.0
loop_
_geom_bond_atom_site_label_1
_geom_bond_atom_site_label_2
_geom_bond_distance
_geom_bond_site_symmetry_2
_ccdc_geom_bond_type
In0 O1 2.294 1_455 S
In0 O2 2.326 . S
In0 O6 2.266 1_445 S
In0 O7 2.326 1_445 S
In0 O8 2.266 1_545 S
In0 O9 2.326 1_445 S
In0 O11 2.294 . S
In0 O12 2.326 . S
O1 In0 2.294 1_655 S
O1 C10 1.240 1_655 S
O2 In0 2.326 . S
O2 C10 1.252 . S
C3 O6 1.252 . S
C3 O7 1.260 . S
C4 O11 1.240 . S
C4 O12 1.252 . S
C5 O8 1.252 . S
C5 O9 1.260 1_455 S
O6 In0 2.266 1_665 S
O6 C3 1.252 . S
O7 In0 2.326 1_665 S
O7 C3 1.260 . S
O8 In0 2.266 1_565 S
O8 C5 1.252 . S
O9 In0 2.326 1_665 S
O9 C5 1.260 1_655 S
C10 O1 1.240 1_455 S
C10 O2 1.252 . S
O11 In0 2.294 . S
O11 C4 1.240 . S
O12 In0 2.326 . S
O12 C4 1.252 . S
In13 O14 2.294 . S
In13 O15 2.326 1_455 S
In13 O19 2.266 . S
In13 O20 2.326 1_545 S
In13 O21 2.266 1_445 S
In13 O22 2.326 1_545 S
In13 O24 2.294 1_445 S
In13 O25 2.326 1_455 S
O14 In13 2.294 . S
O14 C23 1.244 . S
O15 In13 2.326 1_655 S
O15 C23 1.250 1_655 S
C16 O19 1.252 1_565 S
C16 O20 1.260 . S
C17 O24 1.240 1_545 S
C17 O25 1.252 . S
C18 O21 1.252 1_455 S
C18 O22 1.260 . S
O19 In13 2.266 . S
O19 C16 1.252 1_545 S
O20 In13 2.326 1_565 S
O20 C16 1.260 . S
O21 In13 2.266 1_665 S
O21 C18 1.252 1_655 S
O22 In13 2.326 1_565 S
O22 C18 1.260 . S
C23 O14 1.244 . S
C23 O15 1.250 1_455 S
O24 In13 2.294 1_665 S
O24 C17 1.240 1_565 S
O25 In13 2.326 1_655 S
O25 C17 1.252 . S
In26 O27 2.294 1_445 S
In26 O28 2.326 1_445 S
In26 O32 2.266 1_545 S
In26 O33 2.326 . S
In26 O34 2.266 . S
In26 O35 2.326 . S
In26 O37 2.294 1_455 S
In26 O38 2.326 1_445 S
O27 In26 2.294 1_665 S
O27 C36 1.240 . S
O28 In26 2.326 1_665 S
O28 C36 1.252 . S
C29 O32 1.252 1_545 S
C29 O33 1.260 . S
C30 O37 1.240 1_565 S
C30 O38 1.252 . S
C31 O34 1.252 . S
C31 O35 1.260 . S
O32 In26 2.266 1_565 S
O32 C29 1.252 1_565 S
O33 In26 2.326 . S
O33 C29 1.260 . S
O34 In26 2.266 . S
O34 C31 1.252 . S
O35 In26 2.326 . S
O35 C31 1.260 . S
C36 O27 1.240 . S
C36 O28 1.252 . S
O37 In26 2.294 1_655 S
O37 C30 1.240 1_545 S
O38 In26 2.326 1_665 S
O38 C30 1.252 . S
C39 O41 1.247 . S
C39 O43 1.258 1_455 S
C40 O47 1.247 1_455 S
C40 O48 1.258 . S
O41 C39 1.247 . S
O41 Zn42 2.028 . S
Zn42 O41 2.028 . S
Zn42 O46 2.035 . S
Zn42 O48 2.035 . S
Zn42 O49 2.028 . S
O43 C39 1.258 1_655 S
O43 Zn44 2.035 . S
Zn44 O43 2.035 . S
Zn44 O45 2.028 . S
Zn44 O47 2.028 . S
Zn44 O50 2.035 . S
O45 Zn44 2.028 . S
O45 C51 1.247 1_655 S
O46 Zn42 2.035 . S
O46 C51 1.258 . S
O47 C40 1.247 1_655 S
O47 Zn44 2.028 . S
O48 C40 1.258 . S
O48 Zn42 2.035 . S
O49 Zn42 2.028 . S
O49 C52 1.247 . S
O50 Zn44 2.035 . S
O50 C52 1.258 1_655 S
C51 O45 1.247 1_455 S
C51 O46 1.258 . S
C52 O49 1.247 . S
C52 O50 1.258 1_455 S
C53 O55 1.247 1_545 S
C53 O57 1.258 . S
C54 O61 1.247 . S
C54 O62 1.258 1_545 S
O55 C53 1.247 1_565 S
O55 Zn56 2.028 . S
Zn56 O55 2.028 . S
Zn56 O60 2.035 . S
Zn56 O62 2.035 . S
Zn56 O63 2.028 . S
O57 C53 1.258 . S
O57 Zn58 2.035 . S
Zn58 O57 2.035 . S
Zn58 O59 2.028 . S
Zn58 O61 2.028 . S
Zn58 O64 2.035 . S
O59 Zn58 2.028 . S
O59 C65 1.247 . S
O60 Zn56 2.035 . S
O60 C65 1.258 1_565 S
O61 C54 1.247 . S
O61 Zn58 2.028 . S
O62 C54 1.258 1_565 S
O62 Zn56 2.035 . S
O63 Zn56 2.028 . S
O63 C66 1.247 1_565 S
O64 Zn58 2.035 . S
O64 C66 1.258 . S
C65 O59 1.247 . S
C65 O60 1.258 1_545 S
C66 O63 1.247 1_545 S
C66 O64 1.258 . S
C67 O69 1.247 . S
C67 O71 1.258 . S
C68 O75 1.247 . S
C68 O76 1.258 . S
O69 C67 1.247 . S
O69 Zn70 2.028 . S
Zn70 O69 2.028 . S
Zn70 O74 2.035 . S
Zn70 O76 2.035 . S
Zn70 O77 2.028 . S
O71 C67 1.258 . S
O71 Zn72 2.035 . S
Zn72 O71 2.035 . S
Zn72 O73 2.028 . S
Zn72 O75 2.028 . S
Zn72 O78 2.035 . S
O73 Zn72 2.028 . S
O73 C79 1.247 . S
O74 Zn70 2.035 . S
O74 C79 1.258 . S
O75 C68 1.247 . S
O75 Zn72 2.028 . S
O76 C68 1.258 . S
O76 Zn70 2.035 . S
O77 Zn70 2.028 . S
O77 C80 1.247 . S
O78 Zn72 2.035 . S
O78 C80 1.258 . S
C79 O73 1.247 . S
C79 O74 1.258 . S
C80 O77 1.247 . S
C80 O78 1.258 . S
C40 C10 1.506 . S
C17 C66 1.506 . S
C36 C68 1.509 . S
C5 C52 1.510 . S
C54 C16 1.511 1_545 S
C31 C80 1.508 . S
C53 C30 1.506 1_545 S
C3 C79 1.508 1_554 S
C39 C18 1.510 . S
C65 C29 1.510 . S
C67 C4 1.508 1_556 S
C23 C51 1.504 . S
