# Generated by pormake.
# Topology scu, (8,4)-cn, num edge types: 1
# Building blocks:
#     Node 0, Type 0, BuildingBlock: GIZVER_clean_sbu_0, # of connection points: 8
#     Node 1, Type 1, BuildingBlock: ESEHIV_clean_sbu_0, # of connection points: 4
#     Node 2, Type 1, BuildingBlock: ESEHIV_clean_sbu_0, # of connection points: 4
#     Edge 3, Type (0, 1), BuildingBlock: OJICUG_clean_linker_0, # of connection points: 2
#     Edge 4, Type (0, 1), BuildingBlock: OJICUG_clean_linker_0, # of connection points: 2
#     Edge 5, Type (0, 1), BuildingBlock: OJICUG_clean_linker_0, # of connection points: 2
#     Edge 6, Type (0, 1), BuildingBlock: OJICUG_clean_linker_0, # of connection points: 2
#     Edge 7, Type (0, 1), BuildingBlock: OJICUG_clean_linker_0, # of connection points: 2
#     Edge 8, Type (0, 1), BuildingBlock: OJICUG_clean_linker_0, # of connection points: 2
#     Edge 9, Type (0, 1), BuildingBlock: OJICUG_clean_linker_0, # of connection points: 2
#     Edge 10, Type (0, 1), BuildingBlock: OJICUG_clean_linker_0, # of connection points: 2
# Relax obj value: 0.029
# Max RMSD: 0.142
# Mean RMSD: 0.113
data_MOF--net-scu--node1-GIZVER_clean_sbu_0--node2-ESEHIV_clean_sbu_0--edge1-OJICUG_clean_linker_0
_symmetry_space_group_name_H-M    P1
_symmetry_Int_Tables_number       1
_symmetry_cell_setting            triclinic
loop_
_symmetry_equiv_pos_as_xyz
'x, y, z'
_cell_length_a     18.804999
_cell_length_b     19.941447
_cell_length_c     16.332284
_cell_angle_alpha  106.75432
_cell_angle_beta   83.289419
_cell_angle_gamma 113.87496
loop_
_atom_site_label
_atom_site_type_symbol
_atom_site_fract_x
_atom_site_fract_y
_atom_site_fract_z
_atom_type_partial_charge
Co0 Co 0.04296 0.97175 0.19423 0.0
Co1 Co 0.09745 0.11046 0.23701 0.0
Co2 Co 0.02148 0.07783 0.06369 0.0
O3 O 0.08195 0.04716 0.12943 0.0
H4 H 0.13106 0.04921 0.10236 0.0
O5 O 0.96626 0.11358 0.99978 0.0
Co6 Co 1.01328 0.14556 0.89981 0.0
Co7 Co 0.8931 0.03999 0.92572 0.0
H8 H 0.94498 0.14814 1.03733 0.0
O9 O 0.19511 0.15006 0.2784 0.0
O10 O 0.08938 0.05001 0.30361 0.0
O11 O 0.0368 0.1703 0.27024 0.0
O12 O 0.05587 0.18679 0.13996 0.0
O13 O 0.11434 0.10401 0.98674 0.0
O14 O 0.0573 0.18248 0.81199 0.0
O15 O 0.99038 0.22966 0.92012 0.0
O16 O 0.04846 0.06498 0.86676 0.0
O17 O 0.98711 0.96921 0.98858 0.0
O18 O 0.89587 0.94051 0.89364 0.0
O19 O 0.9134 0.08102 0.83343 0.0
O20 O 0.80708 0.05663 0.92041 0.0
C21 C 0.08166 0.90019 0.22715 0.0
C22 C 0.90567 1.013 0.1933 0.0
C23 C 0.03595 0.20641 0.21839 0.0
C24 C 0.16269 0.09636 0.31727 0.0
C25 C 0.03305 0.23595 0.85122 0.0
C26 C 0.10531 0.06992 0.90694 0.0
C27 C 0.9417 0.9227 0.92609 0.0
C28 C 0.84308 0.07917 0.85416 0.0
O29 O 1.01327 0.90088 0.24887 0.0
O30 O 0.12726 0.94541 0.18155 0.0
O31 O 0.92517 0.04763 0.13463 0.0
O32 O 0.94929 0.98731 0.21699 0.0
Cu33 Cu 0.07451 0.59972 0.56518 0.0
N34 N 0.12148 0.56533 0.63014 0.0
N35 N 0.12811 0.49091 0.70629 0.0
C36 C 0.08108 0.51058 0.67016 0.0
C37 C 0.20114 0.5354 0.68853 0.0
C38 C 0.19689 0.58152 0.64186 0.0
O39 O 1.01686 0.50776 0.47756 0.0
C40 C 0.04308 0.69339 0.71267 0.0
O41 O 0.11451 0.70404 0.72774 0.0
H42 H 1.01824 0.48317 0.66921 0.0
H43 H 0.24525 0.62246 0.61665 0.0
N44 N 0.14299 0.67312 0.51142 0.0
N45 N 0.16627 0.74689 0.42249 0.0
C46 C 0.11703 0.7145 0.48019 0.0
C47 C 0.21298 0.68161 0.47456 0.0
C48 C 0.22776 0.72774 0.42003 0.0
C49 C 0.03062 0.49752 0.39737 0.0
O50 O 0.07337 0.55599 0.36755 0.0
H51 H 0.05952 0.71492 0.49417 0.0
H52 H 0.24723 0.65077 0.48011 0.0
O53 O 1.01059 0.64693 0.64283 0.0
H54 H 0.25385 0.53379 0.70671 0.0
H55 H 0.27642 0.74024 0.37644 0.0
Cu56 Cu 0.48125 1.0136 0.55443 0.0
N57 N 0.41026 0.95304 0.62017 0.0
N58 N 0.31234 0.93717 0.71423 0.0
C59 C 0.37945 0.98636 0.69028 0.0
C60 C 0.30096 0.86923 0.65761 0.0
C61 C 0.36223 0.87898 0.59998 0.0
O62 O 0.42653 0.0669 0.52165 0.0
C63 C 0.60778 0.03674 0.63856 0.0
O64 O 0.57866 0.96275 0.60517 0.0
H65 H 0.40035 0.0475 0.71607 0.0
H66 H 0.36616 0.8374 0.54202 0.0
N67 N 0.51729 0.96342 0.45347 0.0
N68 N 0.60463 0.95025 0.35147 0.0
C69 C 0.59272 0.98865 0.43053 0.0
C70 C 0.47952 0.90737 0.38534 0.0
C71 C 0.53363 0.89915 0.32191 0.0
C72 C 0.35713 1.02497 0.49496 0.0
O73 O 0.33021 0.95207 0.48954 0.0
H74 H 0.63817 0.03666 0.46981 0.0
H75 H 0.41716 0.87632 0.38103 0.0
O76 O 0.57249 0.07602 0.62688 0.0
H77 H 0.24901 0.81795 0.65364 0.0
H78 H 0.52182 0.85915 0.25926 0.0
C79 C 0.05109 0.33744 0.21607 0.0
C80 C 0.02172 0.27709 0.25466 0.0
H81 H 0.07606 0.45508 0.2308 0.0
C82 C 0.9836 0.28681 0.33406 0.0
H83 H 0.08 0.33143 0.15461 0.0
C84 C 0.98092 0.35707 0.37749 0.0
C85 C 1.01644 0.41958 0.34271 0.0
H86 H 0.95866 0.24079 0.3647 0.0
H87 H 0.95487 0.36334 0.44055 0.0
C88 C 0.04861 0.40822 0.25985 0.0
C89 C 0.7635 0.98703 0.18743 0.0
C90 C 0.82808 0.99886 0.23374 0.0
H91 H 0.64031 0.95977 0.18838 0.0
C92 C 0.81719 0.99283 0.31828 0.0
H93 H 0.77009 0.99058 0.12184 0.0
C94 C 0.74372 0.97626 0.35611 0.0
C95 C 0.67901 0.96355 0.3098 0.0
H96 H 0.86573 1.00149 0.35552 0.0
H97 H 0.7371 0.9727 0.42165 0.0
C98 C 0.68929 0.96853 0.22488 0.0
C99 C 0.18587 0.87127 0.27788 0.0
C100 C 0.10717 0.85292 0.26267 0.0
H101 H 0.26678 0.85172 0.34176 0.0
C102 C 0.05001 0.79398 0.29299 0.0
H103 H 0.23128 0.91661 0.2555 0.0
C104 C 0.07 0.7581 0.34262 0.0
C105 C 0.14791 0.78 0.36398 0.0
H106 H 0.9889 0.77713 0.28099 0.0
H107 H 0.02368 0.71367 0.36527 0.0
C108 C 0.20611 0.8348 0.32808 0.0
C109 C 0.29187 0.13022 0.38102 0.0
C110 C 0.21108 0.08663 0.37476 0.0
H111 H 0.40201 0.14561 0.42524 0.0
C112 C 0.17851 1.03028 0.41896 0.0
H113 H 0.31888 0.17474 0.34847 0.0
C114 C 0.22628 1.01379 0.46264 0.0
C115 C 0.30748 0.05367 0.46363 0.0
H116 H 0.11655 0.99649 0.41669 0.0
H117 H 0.19979 0.96743 0.49265 0.0
C118 C 0.33967 0.11401 0.42535 0.0
C119 C 0.91765 0.8069 0.80111 0.0
C120 C 0.95446 0.85233 0.88003 0.0
H121 H 0.91644 0.7205 0.68599 0.0
C122 C 1.01327 0.83721 0.90738 0.0
H123 H 0.87217 0.81685 0.77781 0.0
C124 C 0.03891 0.78264 0.85443 0.0
C125 C 1.00605 0.74116 0.77304 0.0
H126 H 0.04297 0.87064 0.96765 0.0
H127 H 0.08695 0.77531 0.87605 0.0
C128 C 0.94311 0.75171 0.7482 0.0
C129 C 0.23049 0.05046 0.89371 0.0
C130 C 0.15577 1.0293 0.86267 0.0
H131 H 0.33928 0.03692 0.86984 0.0
C132 C 0.13033 0.97019 0.78709 0.0
H133 H 0.2516 0.09538 0.95192 0.0
C134 C 0.17976 0.93541 0.74159 0.0
C135 C 0.25618 0.9601 0.76979 0.0
H136 H 0.07264 0.95174 0.76207 0.0
H137 H 0.15983 0.89245 0.68174 0.0
C138 C 0.28047 1.01682 0.84714 0.0
C139 C 0.12465 0.32199 0.76693 0.0
C140 C 0.05691 0.30349 0.81718 0.0
H141 H 0.20057 0.39614 0.69343 0.0
C142 C 1.01371 0.34923 0.83251 0.0
H143 H 0.15967 0.2883 0.75421 0.0
C144 C 0.03701 0.41098 0.79632 0.0
C145 C 0.10489 0.42914 0.74601 0.0
H146 H 0.96129 0.3364 0.87084 0.0
H147 H 1.0023 0.44484 0.80796 0.0
C148 C 0.14865 0.38426 0.73255 0.0
C149 C 0.7383 0.117 0.82858 0.0
C150 C 0.79702 0.08977 0.79548 0.0
H151 H 0.63235 0.12382 0.80287 0.0
C152 C 0.80123 0.06003 0.70699 0.0
H153 H 0.73417 0.14048 0.89676 0.0
C154 C 0.74229 0.04936 0.65388 0.0
C155 C 0.67989 0.0704 0.68822 0.0
H156 H 0.84562 0.03837 0.67998 0.0
H157 H 0.74248 1.01971 0.58691 0.0
C158 C 0.68041 0.10805 0.77505 0.0
loop_
_geom_bond_atom_site_label_1
_geom_bond_atom_site_label_2
_geom_bond_distance
_geom_bond_site_symmetry_2
_ccdc_geom_bond_type
Co0 O3 2.042 1_565 S
Co0 O10 2.264 1_565 S
Co0 O29 2.286 1_455 S
Co0 O30 2.069 . S
Co0 O32 2.015 1_455 S
Co1 O3 2.122 . S
Co1 O9 2.073 . S
Co1 O10 2.327 . S
Co1 O11 1.976 . S
Co2 O3 2.087 . S
Co2 O5 2.087 1_454 S
Co2 O12 2.111 . S
Co2 O13 2.143 1_554 S
Co2 O17 2.111 1_444 S
Co2 O31 2.143 1_445 S
O3 Co0 2.042 1_545 S
O3 Co1 2.122 . S
O3 Co2 2.087 . S
O3 H4 0.980 1_545 S
H4 O3 0.980 1_565 S
O5 Co2 2.087 1_656 S
O5 Co6 2.042 1_655 S
O5 Co7 2.122 1_545 S
O5 H8 0.980 . S
Co6 O5 2.042 1_455 S
Co6 O14 2.286 . S
Co6 O15 2.069 1_455 S
Co6 O16 2.015 . S
Co6 O19 2.264 1_455 S
Co7 O5 2.122 1_565 S
Co7 O18 1.976 . S
Co7 O19 2.327 1_565 S
Co7 O20 2.073 . S
H8 O5 0.980 . S
O9 Co1 2.073 . S
O9 C24 1.245 . S
O10 Co0 2.264 1_545 S
O10 Co1 2.327 . S
O10 C24 1.257 . S
O11 Co1 1.976 . S
O11 C23 1.251 . S
O12 Co2 2.111 . S
O12 C23 1.274 . S
O13 Co2 2.143 1_556 S
O13 C26 1.246 . S
O14 Co6 2.286 . S
O14 C25 1.259 1_455 S
O15 Co6 2.069 1_655 S
O15 C25 1.289 . S
O16 Co6 2.015 . S
O16 C26 1.257 . S
O17 Co2 2.111 1_666 S
O17 C27 1.274 . S
O18 Co7 1.976 . S
O18 C27 1.251 . S
O19 Co6 2.264 1_655 S
O19 Co7 2.327 1_545 S
O19 C28 1.257 . S
O20 Co7 2.073 . S
O20 C28 1.245 1_565 S
C21 O29 1.259 1_455 S
C21 O30 1.289 . S
C22 O31 1.246 1_545 S
C22 O32 1.257 1_545 S
C23 O11 1.251 . S
C23 O12 1.274 . S
C24 O9 1.245 . S
C24 O10 1.257 . S
C25 O14 1.259 1_655 S
C25 O15 1.289 . S
C26 O13 1.246 . S
C26 O16 1.257 . S
C27 O17 1.274 . S
C27 O18 1.251 . S
C28 O19 1.257 . S
C28 O20 1.245 1_545 S
O29 Co0 2.286 1_655 S
O29 C21 1.259 1_655 S
O30 Co0 2.069 . S
O30 C21 1.289 . S
O31 Co2 2.143 1_665 S
O31 C22 1.246 1_565 S
O32 Co0 2.015 1_655 S
O32 C22 1.257 1_565 S
Cu33 N34 1.999 . S
Cu33 O39 1.974 . S
Cu33 N44 1.985 . S
Cu33 O53 1.959 . S
N34 Cu33 1.999 . S
N34 C36 1.263 . S
N34 C38 1.389 . S
N35 C36 1.358 . S
N35 C37 1.400 . S
C36 N34 1.263 . S
C36 N35 1.358 . S
C36 H42 0.930 1_655 S
C37 N35 1.400 . S
C37 C38 1.351 . S
C37 H54 0.930 . S
C38 N34 1.389 . S
C38 C37 1.351 . S
C38 H43 0.930 . S
O39 Cu33 1.974 . S
O39 C49 1.282 1_655 S
C40 O41 1.261 . S
C40 O53 1.251 1_455 S
O41 C40 1.261 . S
H42 C36 0.930 1_455 S
H43 C38 0.930 . S
N44 Cu33 1.985 . S
N44 C46 1.335 . S
N44 C47 1.390 1_655 S
N45 C46 1.345 . S
N45 C48 1.336 1_655 S
C46 N44 1.335 . S
C46 N45 1.345 . S
C46 H51 0.930 . S
C47 N44 1.390 1_455 S
C47 C48 1.346 . S
C47 H52 0.930 . S
C48 N45 1.336 1_455 S
C48 C47 1.346 . S
C48 H55 0.929 . S
C49 O39 1.282 1_455 S
C49 O50 1.216 . S
O50 C49 1.216 . S
H51 C46 0.930 . S
H52 C47 0.930 . S
O53 Cu33 1.959 . S
O53 C40 1.251 1_655 S
H54 C37 0.930 . S
H55 C48 0.929 . S
Cu56 N57 1.999 . S
Cu56 O62 1.974 . S
Cu56 N67 1.985 . S
Cu56 O76 1.959 . S
N57 Cu56 1.999 . S
N57 C59 1.263 . S
N57 C61 1.389 . S
N58 C59 1.358 . S
N58 C60 1.400 . S
C59 N57 1.263 . S
C59 N58 1.358 . S
C59 H65 0.930 . S
C60 N58 1.400 . S
C60 C61 1.351 . S
C60 H77 0.930 . S
C61 N57 1.389 . S
C61 C60 1.351 . S
C61 H66 0.930 . S
O62 Cu56 1.974 . S
O62 C72 1.282 1_545 S
C63 O64 1.258 1_545 S
C63 O76 1.258 . S
O64 C63 1.258 1_565 S
H65 C59 0.930 . S
H66 C61 0.930 . S
N67 Cu56 1.985 . S
N67 C69 1.335 . S
N67 C70 1.390 . S
N68 C69 1.345 . S
N68 C71 1.336 . S
C69 N67 1.335 . S
C69 N68 1.345 . S
C69 H74 0.930 . S
C70 N67 1.390 . S
C70 C71 1.346 . S
C70 H75 0.930 1_545 S
C71 N68 1.336 . S
C71 C70 1.346 . S
C71 H78 0.929 1_545 S
C72 O62 1.282 1_565 S
C72 O73 1.216 . S
O73 C72 1.216 . S
H74 C69 0.930 . S
H75 C70 0.930 1_565 S
O76 Cu56 1.959 . S
O76 C63 1.258 . S
H77 C60 0.930 . S
H78 C71 0.929 1_565 S
C79 C80 1.387 . S
C79 H83 0.950 . S
C79 C88 1.390 . S
C80 C79 1.387 . S
C80 C82 1.387 1_455 S
H81 C88 0.950 . S
C82 C80 1.387 1_655 S
C82 C84 1.390 . S
C82 H86 0.950 . S
H83 C79 0.950 . S
C84 C82 1.390 . S
C84 C85 1.387 1_655 S
C84 H87 0.950 . S
C85 C84 1.387 1_455 S
C85 C88 1.387 . S
H86 C82 0.950 . S
H87 C84 0.950 . S
C88 C79 1.390 . S
C88 H81 0.950 . S
C88 C85 1.387 . S
C89 C90 1.387 . S
C89 H93 0.950 . S
C89 C98 1.390 . S
C90 C89 1.387 . S
C90 C92 1.387 1_545 S
H91 C98 0.950 . S
C92 C90 1.387 1_565 S
C92 C94 1.390 . S
C92 H96 0.950 . S
H93 C89 0.950 . S
C94 C92 1.390 . S
C94 C95 1.387 1_565 S
C94 H97 0.950 . S
C95 C94 1.387 1_545 S
C95 C98 1.387 . S
H96 C92 0.950 . S
H97 C94 0.950 . S
C98 C89 1.390 . S
C98 H91 0.950 . S
C98 C95 1.387 . S
C99 C100 1.387 . S
C99 H103 0.950 . S
C99 C108 1.390 . S
C100 C99 1.387 . S
C100 C102 1.387 1_455 S
H101 C108 0.950 . S
C102 C100 1.387 1_655 S
C102 C104 1.390 . S
C102 H106 0.950 . S
H103 C99 0.950 . S
C104 C102 1.390 . S
C104 C105 1.387 . S
C104 H107 0.950 . S
C105 C104 1.387 . S
C105 C108 1.387 1_655 S
H106 C102 0.950 . S
H107 C104 0.950 . S
C108 C99 1.390 . S
C108 H101 0.950 . S
C108 C105 1.387 1_455 S
C109 C110 1.387 . S
C109 H113 0.950 . S
C109 C118 1.390 . S
C110 C109 1.387 . S
C110 C112 1.387 1_545 S
H111 C118 0.950 . S
C112 C110 1.387 1_565 S
C112 C114 1.390 . S
C112 H116 0.950 . S
H113 C109 0.950 . S
C114 C112 1.390 . S
C114 C115 1.382 1_565 S
C114 H117 0.950 . S
C115 C114 1.382 1_545 S
C115 C118 1.398 . S
H116 C112 0.950 . S
H117 C114 0.950 . S
C118 C109 1.390 . S
C118 H111 0.950 . S
C118 C115 1.398 . S
C119 C120 1.387 . S
C119 H123 0.950 . S
C119 C128 1.390 . S
C120 C119 1.387 . S
C120 C122 1.387 . S
H121 C128 0.950 . S
C122 C120 1.387 . S
C122 C124 1.390 . S
C122 H126 0.950 1_455 S
H123 C119 0.950 . S
C124 C122 1.390 . S
C124 C125 1.387 . S
C124 H127 0.950 . S
C125 C124 1.387 . S
C125 C128 1.387 . S
H126 C122 0.950 1_655 S
H127 C124 0.950 . S
C128 C119 1.390 . S
C128 H121 0.950 . S
C128 C125 1.387 . S
C129 C130 1.387 . S
C129 H133 0.950 . S
C129 C138 1.390 . S
C130 C129 1.387 . S
C130 C132 1.387 1_545 S
H131 C138 0.950 . S
C132 C130 1.387 1_565 S
C132 C134 1.390 . S
C132 H136 0.950 . S
H133 C129 0.950 . S
C134 C132 1.390 . S
C134 C135 1.387 1_565 S
C134 H137 0.950 . S
C135 C134 1.387 1_545 S
C135 C138 1.387 . S
H136 C132 0.950 . S
H137 C134 0.950 . S
C138 C129 1.390 . S
C138 H131 0.950 . S
C138 C135 1.387 . S
C139 C140 1.387 1_455 S
C139 H143 0.950 . S
C139 C148 1.390 . S
C140 C139 1.387 1_655 S
C140 C142 1.387 . S
H141 C148 0.950 . S
C142 C140 1.387 . S
C142 C144 1.390 . S
C142 H146 0.950 . S
H143 C139 0.950 . S
C144 C142 1.390 . S
C144 C145 1.387 . S
C144 H147 0.950 . S
C145 C144 1.387 . S
C145 C148 1.387 1_655 S
H146 C142 0.950 . S
H147 C144 0.950 . S
C148 C139 1.390 . S
C148 H141 0.950 . S
C148 C145 1.387 1_455 S
C149 C150 1.387 . S
C149 H153 0.950 . S
C149 C158 1.390 . S
C150 C149 1.387 . S
C150 C152 1.387 1_545 S
H151 C158 0.950 . S
C152 C150 1.387 1_565 S
C152 C154 1.390 . S
C152 H156 0.950 . S
H153 C149 0.950 . S
C154 C152 1.390 . S
C154 C155 1.387 1_565 S
C154 H157 0.950 . S
C155 C154 1.387 1_545 S
C155 C158 1.387 . S
H156 C152 0.950 . S
H157 C154 0.950 . S
C158 C149 1.390 . S
C158 H151 0.950 . S
C158 C155 1.387 . S
C80 C23 1.394 . S
C85 C49 1.484 . S
C90 C22 1.424 . S
C95 N68 1.412 . S
C100 C21 1.600 . S
C105 N45 1.572 . S
C110 C24 1.582 . S
C115 C72 1.617 1_545 S
C120 C27 1.477 1_455 S
C125 C40 1.533 . S
C130 C26 1.425 . S
C135 N58 1.448 . S
C145 N35 1.579 . S
C140 C25 1.611 . S
C150 C28 1.599 . S
C155 C63 1.679 . S
