# Generated by pormake.
# Topology nia, (6,6)-cn, num edge types: 1
# Building blocks:
#     Node 0, Type 0, BuildingBlock: LEVNOQ01_clean_sbu_1, # of connection points: 6
#     Node 1, Type 0, BuildingBlock: LEVNOQ01_clean_sbu_1, # of connection points: 6
#     Node 2, Type 1, BuildingBlock: MIDCAF_clean_sbu_0, # of connection points: 6
#     Node 3, Type 1, BuildingBlock: MIDCAF_clean_sbu_0, # of connection points: 6
#     Edge 4, Type (0, 1), BuildingBlock: EYOCIG_clean_linker_4, # of connection points: 2
#     Edge 5, Type (0, 1), BuildingBlock: EYOCIG_clean_linker_4, # of connection points: 2
#     Edge 6, Type (0, 1), BuildingBlock: EYOCIG_clean_linker_4, # of connection points: 2
#     Edge 7, Type (0, 1), BuildingBlock: EYOCIG_clean_linker_4, # of connection points: 2
#     Edge 8, Type (0, 1), BuildingBlock: EYOCIG_clean_linker_4, # of connection points: 2
#     Edge 9, Type (0, 1), BuildingBlock: EYOCIG_clean_linker_4, # of connection points: 2
#     Edge 10, Type (0, 1), BuildingBlock: EYOCIG_clean_linker_4, # of connection points: 2
#     Edge 11, Type (0, 1), BuildingBlock: EYOCIG_clean_linker_4, # of connection points: 2
#     Edge 12, Type (0, 1), BuildingBlock: EYOCIG_clean_linker_4, # of connection points: 2
#     Edge 13, Type (0, 1), BuildingBlock: EYOCIG_clean_linker_4, # of connection points: 2
#     Edge 14, Type (0, 1), BuildingBlock: EYOCIG_clean_linker_4, # of connection points: 2
#     Edge 15, Type (0, 1), BuildingBlock: EYOCIG_clean_linker_4, # of connection points: 2
# Relax obj value: 0.123
# Max RMSD: 0.238
# Mean RMSD: 0.156
data_MOF--net-nia--node1-LEVNOQ01_clean_sbu_1--node2-MIDCAF_clean_sbu_0--edge1-EYOCIG_clean_linker_4
_symmetry_space_group_name_H-M    P1
_symmetry_Int_Tables_number       1
_symmetry_cell_setting            triclinic
loop_
_symmetry_equiv_pos_as_xyz
'x, y, z'
_cell_length_a     19.442142
_cell_length_b     19.428835
_cell_length_c     26.645762
_cell_angle_alpha  89.657384
_cell_angle_beta   89.604473
_cell_angle_gamma 129.4558
loop_
_atom_site_label
_atom_site_type_symbol
_atom_site_fract_x
_atom_site_fract_y
_atom_site_fract_z
_atom_type_partial_charge
O0 O -0.0031 0.17961 0.95662 0.0
Mg1 Mg 0.10728 0.21901 0.99962 0.0
O2 O 0.90148 0.03497 0.97825 0.0
Mg3 Mg -0.02459 0.00025 0.02714 0.0
O4 O 0.10625 0.11506 0.99251 0.0
O5 O 0.22054 0.24868 0.96456 0.0
O6 O 0.04931 0.96552 0.07602 0.0
O7 O 0.95988 0.91437 0.95909 0.0
Mg8 Mg 0.84349 0.78148 0.05464 0.0
O9 O 0.8446 0.88547 0.0618 0.0
O10 O 0.95388 0.82087 0.09764 0.0
O11 O 0.85489 0.76951 0.97705 0.0
O12 O 0.73021 0.75182 0.08966 0.0
C13 C 0.04044 0.16822 0.10755 0.0
C14 C 0.92093 0.10284 0.95447 0.0
C15 C 0.18171 0.16521 0.96925 0.0
C16 C 0.02984 0.89763 0.0998 0.0
C17 C 0.91037 0.8323 0.94672 0.0
C18 C 0.76904 0.83529 0.08497 0.0
O19 O 0.09589 0.231 0.07721 0.0
O20 O -0.00905 0.08614 0.09518 0.0
O21 O 0.79491 0.97606 0.59805 0.0
Mg22 Mg 0.75678 0.86641 0.5546 0.0
O23 O 0.93943 0.07271 0.57647 0.0
Mg24 Mg -0.02461 0.00024 0.52711 0.0
O25 O 0.86142 0.8686 0.56149 0.0
O26 O 0.72814 0.75332 0.58923 0.0
O27 O 0.01137 0.92779 0.47775 0.0
O28 O 0.06165 0.0162 0.59497 0.0
Mg29 Mg 0.19401 0.13409 0.49963 0.0
O30 O 0.08934 0.13184 0.49269 0.0
O31 O 0.1559 0.02445 0.45618 0.0
O32 O 0.20625 0.1224 0.57712 0.0
O33 O 0.22265 0.24721 0.46504 0.0
C34 C 0.80711 0.93419 0.44686 0.0
C35 C 0.87129 0.05238 0.60036 0.0
C36 C 0.81173 0.79289 0.58456 0.0
C37 C 0.07952 0.94813 0.45386 0.0
C38 C 0.14367 0.06628 0.60736 0.0
C39 C 0.13907 0.20765 0.46972 0.0
O40 O 0.74452 0.87809 0.47711 0.0
O41 O 0.88913 0.98426 0.45925 0.0
Zn42 Zn 0.26071 0.6574 0.17654 0.0
Zn43 Zn 0.31816 0.71566 0.37747 0.0
Zn44 Zn 0.28962 0.68637 0.27702 0.0
C45 C 0.48413 0.80575 0.33002 0.0
C46 C 0.20879 0.5316 0.361 0.0
O47 O 0.23297 0.74809 0.25039 0.0
O48 O 0.21337 0.72181 0.16867 0.0
C49 C 0.44451 0.76588 0.19334 0.0
O50 O 0.43469 0.77027 0.29105 0.0
O51 O 0.45031 0.79457 0.37293 0.0
O52 O 0.24914 0.58791 0.39553 0.0
O53 O 0.21658 0.55624 0.31496 0.0
O54 O 0.38837 0.72565 0.15874 0.0
O55 O 0.41974 0.75851 0.23931 0.0
O56 O 0.20517 0.54106 0.26323 0.0
O57 O 0.1812 0.52512 0.18132 0.0
C58 C 0.16969 0.49142 0.2243 0.0
O59 O 0.22865 0.74404 0.30315 0.0
O60 O 0.25453 0.76389 0.3849 0.0
C61 C 0.21052 0.75739 0.20717 0.0
C62 C 0.21941 0.76693 0.34626 0.0
Zn63 Zn 0.68995 0.34299 0.87773 0.0
Zn64 Zn 0.63274 0.28498 0.67675 0.0
Zn65 Zn 0.66118 0.31412 0.77723 0.0
C66 C 0.74206 0.46901 0.69331 0.0
C67 C 0.46671 0.19477 0.72416 0.0
O68 O 0.71781 0.25237 0.80385 0.0
O69 O 0.73725 0.27852 0.88559 0.0
C70 C 0.78108 0.50901 0.83001 0.0
O71 O 0.73425 0.44429 0.73933 0.0
O72 O 0.70175 0.41275 0.65874 0.0
O73 O 0.50057 0.20602 0.68126 0.0
O74 O 0.51612 0.23022 0.76315 0.0
O75 O 0.7695 0.47527 0.87298 0.0
O76 O 0.74563 0.45941 0.79107 0.0
O77 O 0.53102 0.24196 0.81489 0.0
O78 O 0.56226 0.27475 0.89548 0.0
C79 C 0.50617 0.23456 0.86085 0.0
O80 O 0.72217 0.25647 0.75109 0.0
O81 O 0.69642 0.23679 0.66933 0.0
C82 C 0.74018 0.24301 0.84708 0.0
C83 C 0.73147 0.23366 0.70797 0.0
C84 C 0.13298 0.89142 0.15815 0.0
C85 C 0.09433 0.90556 0.13064 0.0
C86 C 0.16464 0.85461 0.18543 0.0
C87 C 0.18636 0.81269 0.20082 0.0
C88 C 0.21744 0.07331 0.69027 0.0
C89 C 0.16975 0.05934 0.65616 0.0
C90 C 0.2953 0.10724 0.71723 0.0
C91 C 0.37245 0.14713 0.72741 0.0
C92 C 0.04766 0.24181 0.19064 0.0
C93 C 0.03367 0.19412 0.15648 0.0
C94 C 0.08169 0.31978 0.21761 0.0
C95 C 0.12175 0.39705 0.22773 0.0
C96 C 0.86428 0.15476 0.65914 0.0
C97 C 0.87853 0.11633 0.63145 0.0
C98 C 0.82774 0.18663 0.68652 0.0
C99 C 0.78624 0.20886 0.70187 0.0
C100 C 0.68132 0.87435 0.13299 0.0
C101 C 0.73054 0.8694 0.10899 0.0
C102 C 0.60843 0.85306 0.16104 0.0
C103 C 0.53658 0.81632 0.18037 0.0
C104 C 0.85156 0.70597 0.63266 0.0
C105 C 0.84646 0.75503 0.6086 0.0
C106 C 0.83008 0.63306 0.66082 0.0
C107 C 0.79296 0.56117 0.68025 0.0
C108 C 0.08655 0.84578 0.39507 0.0
C109 C 0.07229 0.8842 0.42276 0.0
C110 C 0.1231 0.81393 0.36769 0.0
C111 C 0.16461 0.7917 0.35235 0.0
C112 C 0.26933 0.12612 0.92112 0.0
C113 C 0.22015 0.13107 0.94516 0.0
C114 C 0.34222 0.1474 0.89307 0.0
C115 C 0.41409 0.18413 0.87377 0.0
C116 C 0.09927 0.29468 0.42173 0.0
C117 C 0.10436 0.24557 0.44574 0.0
C118 C 0.12075 0.3676 0.39357 0.0
C119 C 0.15789 0.43946 0.37411 0.0
C120 C 0.81776 0.10903 0.89613 0.0
C121 C 0.85643 0.0949 0.92364 0.0
C122 C 0.7861 0.14582 0.86884 0.0
C123 C 0.76437 0.18773 0.85344 0.0
C124 C 0.73337 0.92716 0.36393 0.0
C125 C 0.78103 0.94112 0.39806 0.0
C126 C 0.65554 0.89324 0.33694 0.0
C127 C 0.57839 0.85337 0.32675 0.0
C128 C 0.90316 0.75867 0.86365 0.0
C129 C 0.91716 0.80639 0.89779 0.0
C130 C 0.86911 0.68068 0.8367 0.0
C131 C 0.82904 0.6034 0.8266 0.0
loop_
_geom_bond_atom_site_label_1
_geom_bond_atom_site_label_2
_geom_bond_distance
_geom_bond_site_symmetry_2
_ccdc_geom_bond_type
O0 Mg1 1.990 . S
O0 C14 1.253 1_455 S
Mg1 O0 1.990 . S
Mg1 O4 2.180 . S
Mg1 O5 2.117 . S
Mg1 O19 2.030 1_556 S
O2 Mg3 2.072 1_656 S
O2 C14 1.260 . S
Mg3 O2 2.072 1_454 S
Mg3 O4 2.099 1_554 S
Mg3 O6 2.079 1_545 S
Mg3 O7 2.072 1_444 S
Mg3 O9 2.099 1_445 S
Mg3 O20 2.079 . S
O4 Mg1 2.180 . S
O4 Mg3 2.099 1_556 S
O4 C15 1.279 . S
O5 Mg1 2.117 . S
O5 C15 1.250 . S
O6 Mg3 2.079 1_565 S
O6 C16 1.264 . S
O7 Mg3 2.072 1_666 S
O7 C17 1.260 . S
Mg8 O9 2.180 . S
Mg8 O10 2.030 . S
Mg8 O11 1.990 1_554 S
Mg8 O12 2.117 . S
O9 Mg3 2.099 1_665 S
O9 Mg8 2.180 . S
O9 C18 1.279 . S
O10 Mg8 2.030 . S
O10 C16 1.248 1_655 S
O11 Mg8 1.990 1_556 S
O11 C17 1.253 . S
O12 Mg8 2.117 . S
O12 C18 1.250 . S
C13 O19 1.248 . S
C13 O20 1.264 . S
C14 O0 1.253 1_655 S
C14 O2 1.260 . S
C15 O4 1.279 . S
C15 O5 1.250 . S
C16 O6 1.264 . S
C16 O10 1.248 1_455 S
C17 O7 1.260 . S
C17 O11 1.253 . S
C18 O9 1.279 . S
C18 O12 1.250 . S
O19 Mg1 2.030 1_554 S
O19 C13 1.248 . S
O20 Mg3 2.079 . S
O20 C13 1.264 . S
O21 Mg22 1.990 . S
O21 C35 1.253 1_565 S
Mg22 O21 1.990 . S
Mg22 O25 2.180 . S
Mg22 O26 2.117 . S
Mg22 O40 2.030 . S
O23 Mg24 2.072 1_545 S
O23 C35 1.260 . S
Mg24 O23 2.072 1_565 S
Mg24 O25 2.099 . S
Mg24 O27 2.079 1_655 S
Mg24 O28 2.072 1_665 S
Mg24 O30 2.099 1_665 S
Mg24 O41 2.079 . S
O25 Mg22 2.180 . S
O25 Mg24 2.099 . S
O25 C36 1.279 . S
O26 Mg22 2.117 . S
O26 C36 1.250 . S
O27 Mg24 2.079 1_455 S
O27 C37 1.264 . S
O28 Mg24 2.072 1_445 S
O28 C38 1.260 . S
Mg29 O30 2.180 . S
Mg29 O31 2.030 . S
Mg29 O32 1.990 . S
Mg29 O33 2.117 . S
O30 Mg24 2.099 1_445 S
O30 Mg29 2.180 . S
O30 C39 1.279 . S
O31 Mg29 2.030 . S
O31 C37 1.248 1_545 S
O32 Mg29 1.990 . S
O32 C38 1.253 . S
O33 Mg29 2.117 . S
O33 C39 1.250 . S
C34 O40 1.248 . S
C34 O41 1.264 . S
C35 O21 1.253 1_545 S
C35 O23 1.260 . S
C36 O25 1.279 . S
C36 O26 1.250 . S
C37 O27 1.264 . S
C37 O31 1.248 1_565 S
C38 O28 1.260 . S
C38 O32 1.253 . S
C39 O30 1.279 . S
C39 O33 1.250 . S
O40 Mg22 2.030 . S
O40 C34 1.248 . S
O41 Mg24 2.079 . S
O41 C34 1.264 . S
Zn42 O48 1.920 . S
Zn42 O54 1.898 . S
Zn42 O57 1.905 . S
Zn43 O51 1.905 . S
Zn43 O52 1.898 . S
Zn43 O60 1.920 . S
Zn44 O47 2.080 . S
Zn44 O50 2.114 . S
Zn44 O53 2.120 . S
Zn44 O55 2.120 . S
Zn44 O56 2.114 . S
Zn44 O59 2.080 . S
C45 O50 1.166 . S
C45 O51 1.182 . S
C46 O52 1.167 . S
C46 O53 1.299 . S
O47 Zn44 2.080 . S
O47 C61 1.305 . S
O48 Zn42 1.920 . S
O48 C61 1.234 . S
C49 O54 1.167 . S
C49 O55 1.299 . S
O50 Zn44 2.114 . S
O50 C45 1.166 . S
O51 Zn43 1.905 . S
O51 C45 1.182 . S
O52 Zn43 1.898 . S
O52 C46 1.167 . S
O53 Zn44 2.120 . S
O53 C46 1.299 . S
O54 Zn42 1.898 . S
O54 C49 1.167 . S
O55 Zn44 2.120 . S
O55 C49 1.299 . S
O56 Zn44 2.114 . S
O56 C58 1.166 . S
O57 Zn42 1.905 . S
O57 C58 1.182 . S
C58 O56 1.166 . S
C58 O57 1.182 . S
O59 Zn44 2.080 . S
O59 C62 1.305 . S
O60 Zn43 1.920 . S
O60 C62 1.234 . S
C61 O47 1.305 . S
C61 O48 1.234 . S
C62 O59 1.305 . S
C62 O60 1.234 . S
Zn63 O69 1.920 . S
Zn63 O75 1.898 . S
Zn63 O78 1.905 . S
Zn64 O72 1.905 . S
Zn64 O73 1.898 . S
Zn64 O81 1.920 . S
Zn65 O68 2.080 . S
Zn65 O71 2.114 . S
Zn65 O74 2.120 . S
Zn65 O76 2.120 . S
Zn65 O77 2.114 . S
Zn65 O80 2.080 . S
C66 O71 1.166 . S
C66 O72 1.182 . S
C67 O73 1.167 . S
C67 O74 1.299 . S
O68 Zn65 2.080 . S
O68 C82 1.305 . S
O69 Zn63 1.920 . S
O69 C82 1.234 . S
C70 O75 1.167 . S
C70 O76 1.299 . S
O71 Zn65 2.114 . S
O71 C66 1.166 . S
O72 Zn64 1.905 . S
O72 C66 1.182 . S
O73 Zn64 1.898 . S
O73 C67 1.167 . S
O74 Zn65 2.120 . S
O74 C67 1.299 . S
O75 Zn63 1.898 . S
O75 C70 1.167 . S
O76 Zn65 2.120 . S
O76 C70 1.299 . S
O77 Zn65 2.114 . S
O77 C79 1.166 . S
O78 Zn63 1.905 . S
O78 C79 1.182 . S
C79 O77 1.166 . S
C79 O78 1.182 . S
O80 Zn65 2.080 . S
O80 C83 1.305 . S
O81 Zn64 1.920 . S
O81 C83 1.234 . S
C82 O68 1.305 . S
C82 O69 1.234 . S
C83 O80 1.305 . S
C83 O81 1.234 . S
C84 C85 1.170 . S
C84 C86 1.380 . S
C85 C84 1.170 . S
C86 C84 1.380 . S
C86 C87 1.170 . S
C87 C86 1.170 . S
C88 C89 1.170 . S
C88 C90 1.380 . S
C89 C88 1.170 . S
C90 C88 1.380 . S
C90 C91 1.170 . S
C91 C90 1.170 . S
C92 C93 1.170 . S
C92 C94 1.380 . S
C93 C92 1.170 . S
C94 C92 1.380 . S
C94 C95 1.170 . S
C95 C94 1.170 . S
C96 C97 1.170 . S
C96 C98 1.380 . S
C97 C96 1.170 . S
C98 C96 1.380 . S
C98 C99 1.170 . S
C99 C98 1.170 . S
C100 C101 1.170 . S
C100 C102 1.380 . S
C101 C100 1.170 . S
C102 C100 1.380 . S
C102 C103 1.170 . S
C103 C102 1.170 . S
C104 C105 1.170 . S
C104 C106 1.380 . S
C105 C104 1.170 . S
C106 C104 1.380 . S
C106 C107 1.170 . S
C107 C106 1.170 . S
C108 C109 1.170 . S
C108 C110 1.380 . S
C109 C108 1.170 . S
C110 C108 1.380 . S
C110 C111 1.170 . S
C111 C110 1.170 . S
C112 C113 1.170 . S
C112 C114 1.380 . S
C113 C112 1.170 . S
C114 C112 1.380 . S
C114 C115 1.170 . S
C115 C114 1.170 . S
C116 C117 1.170 . S
C116 C118 1.380 . S
C117 C116 1.170 . S
C118 C116 1.380 . S
C118 C119 1.170 . S
C119 C118 1.170 . S
C120 C121 1.170 . S
C120 C122 1.380 . S
C121 C120 1.170 . S
C122 C120 1.380 . S
C122 C123 1.170 . S
C123 C122 1.170 . S
C124 C125 1.170 . S
C124 C126 1.380 . S
C125 C124 1.170 . S
C126 C124 1.380 . S
C126 C127 1.170 . S
C127 C126 1.170 . S
C128 C129 1.170 . S
C128 C130 1.380 . S
C129 C128 1.170 . S
C130 C128 1.380 . S
C130 C131 1.170 . S
C131 C130 1.170 . S
C85 C16 1.387 . S
C87 C61 1.291 . S
C89 C38 1.541 . S
C91 C67 1.424 . S
C93 C13 1.340 . S
C95 C58 1.286 . S
C97 C35 1.564 . S
C99 C83 1.397 . S
C101 C18 1.429 . S
C103 C49 1.374 . S
C107 C66 1.397 . S
C105 C36 1.310 . S
C109 C37 1.359 . S
C111 C62 1.339 . S
C115 C79 1.446 . S
C113 C15 1.234 . S
C119 C46 1.413 . S
C117 C39 1.462 . S
C123 C82 1.403 . S
C121 C14 1.559 . S
C127 C45 1.289 . S
C125 C34 1.340 . S
C131 C70 1.404 . S
C129 C17 1.536 . S
