# Generated by pormake.
# Topology pts, (4,4)-cn, num edge types: 1
# Building blocks:
#     Node 0, Type 0, BuildingBlock: NAWXER_clean_sbu_0, # of connection points: 4
#     Node 1, Type 0, BuildingBlock: NAWXER_clean_sbu_0, # of connection points: 4
#     Node 2, Type 1, BuildingBlock: QUQFOY_clean_sbu_1, # of connection points: 4
#     Node 3, Type 1, BuildingBlock: QUQFOY_clean_sbu_1, # of connection points: 4
#     Edge 4, Type (0, 1), BuildingBlock: OJICUG_clean_linker_0, # of connection points: 2
#     Edge 5, Type (0, 1), BuildingBlock: OJICUG_clean_linker_0, # of connection points: 2
#     Edge 6, Type (0, 1), BuildingBlock: OJICUG_clean_linker_0, # of connection points: 2
#     Edge 7, Type (0, 1), BuildingBlock: OJICUG_clean_linker_0, # of connection points: 2
#     Edge 8, Type (0, 1), BuildingBlock: OJICUG_clean_linker_0, # of connection points: 2
#     Edge 9, Type (0, 1), BuildingBlock: OJICUG_clean_linker_0, # of connection points: 2
#     Edge 10, Type (0, 1), BuildingBlock: OJICUG_clean_linker_0, # of connection points: 2
#     Edge 11, Type (0, 1), BuildingBlock: OJICUG_clean_linker_0, # of connection points: 2
# Relax obj value: 0.106
# Max RMSD: 0.241
# Mean RMSD: 0.139
data_MOF--net-pts--node1-NAWXER_clean_sbu_0--node2-QUQFOY_clean_sbu_1--edge1-OJICUG_clean_linker_0
_symmetry_space_group_name_H-M    P1
_symmetry_Int_Tables_number       1
_symmetry_cell_setting            triclinic
loop_
_symmetry_equiv_pos_as_xyz
'x, y, z'
_cell_length_a     16.764216
_cell_length_b     17.271929
_cell_length_c     28.323901
_cell_angle_alpha  90.029807
_cell_angle_beta   90.079633
_cell_angle_gamma 92.117861
loop_
_atom_site_label
_atom_site_type_symbol
_atom_site_fract_x
_atom_site_fract_y
_atom_site_fract_z
_atom_type_partial_charge
C0 C 0.36868 0.97632 0.95549 0.0
C1 C 0.5743 0.98067 0.07983 0.0
O2 O 0.3949 0.91537 0.9746 0.0
Zn3 Zn 0.47132 0.96865 0.0176 0.0
O4 O 0.39423 0.04308 0.96947 0.0
Zn5 Zn 0.47345 0.09703 0.01774 0.0
O6 O 0.5496 0.15049 0.97481 0.0
O7 O 0.55023 1.0228 0.96939 0.0
O8 O 0.55103 0.04638 0.0658 0.0
O9 O 0.54585 0.91863 0.06073 0.0
O10 O 0.39403 1.0191 0.06582 0.0
O11 O 0.39919 0.14687 0.06103 0.0
C12 C 0.5757 0.08962 0.95554 0.0
C13 C 0.37084 0.08476 0.08 0.0
C14 C 0.90651 0.62613 0.45425 0.0
C15 C 0.92581 0.4261 0.57717 0.0
O16 O 0.84629 0.59044 0.47261 0.0
Zn17 Zn 0.90666 0.52434 0.51539 0.0
O18 O -0.02293 0.61119 0.46752 0.0
Zn19 Zn 0.03764 0.54169 0.51556 0.0
O20 O 0.09808 0.4756 0.47285 0.0
O21 O 0.96731 0.45504 0.46735 0.0
O22 O -0.00837 0.45916 0.56417 0.0
O23 O 0.86044 0.44412 0.55764 0.0
O24 O 0.95258 0.60685 0.56417 0.0
O25 O 0.08381 0.62182 0.558 0.0
C26 C 0.03787 0.44007 0.45423 0.0
C27 C 0.01838 0.63988 0.57736 0.0
O28 O 0.88965 0.95798 0.21084 0.0
Cd29 Cd -0.01672 0.95631 0.25728 0.0
Cd30 Cd 0.96255 0.10874 0.2574 0.0
O31 O 0.85089 0.07347 0.2317 0.0
O32 O -0.01444 0.84468 0.27449 0.0
O33 O 0.9542 0.93586 0.32534 0.0
C34 C 0.96057 0.8631 0.3159 0.0
C35 C -0.01504 0.20241 0.3159 0.0
C36 C 0.83809 1.0098 0.20972 0.0
C37 C 0.10769 0.05524 0.20988 0.0
O38 O 0.05617 0.10709 0.21109 0.0
O39 O 0.09492 0.99148 0.23171 0.0
O40 O 0.95991 0.22046 0.27442 0.0
O41 O -0.00834 0.12975 0.32547 0.0
O42 O 0.89716 0.11135 0.82838 0.0
Cd43 Cd -0.01042 0.10678 0.78116 0.0
Cd44 Cd 0.95396 0.95948 0.78116 0.0
O45 O 0.84579 0.99849 0.80555 0.0
O46 O 0.00632 0.21555 0.75968 0.0
O47 O 0.95848 0.1218 0.71309 0.0
C48 C -0.02368 0.19451 0.7195 0.0
C49 C 0.96725 0.87167 0.71953 0.0
C50 C 0.83952 0.06173 0.82819 0.0
C51 C 0.10413 1.00457 0.82828 0.0
O52 O 0.04646 0.95497 0.82845 0.0
O53 O 0.0978 0.06776 0.80564 0.0
O54 O 0.93726 0.85067 0.75966 0.0
O55 O -0.015 0.94438 0.71314 0.0
C56 C 0.30005 1.01788 0.14617 0.0
C57 C 0.31006 0.08437 0.11772 0.0
H58 H 0.22911 0.95669 0.19751 0.0
C59 C 0.25719 0.14475 0.12305 0.0
H60 H 0.34056 0.97063 0.1434 0.0
C61 C 0.19265 0.13649 0.1543 0.0
C62 C 0.18034 0.0679 0.18081 0.0
H63 H 0.26348 0.19652 0.10161 0.0
H64 H 0.151 0.18281 0.1565 0.0
C65 C 0.2361 1.00974 0.17731 0.0
C66 C 0.88997 0.29584 0.61261 0.0
C67 C 0.92963 0.3687 0.61551 0.0
H68 H 0.87539 0.18199 0.64284 0.0
C69 C -0.01689 0.38378 0.65288 0.0
H70 H 0.84944 0.28257 0.58366 0.0
C71 C -0.00224 0.32712 0.68643 0.0
C72 C 0.96042 0.25329 0.68301 0.0
H73 H 0.01478 0.43946 0.65574 0.0
H74 H 0.03964 0.34089 0.71464 0.0
C75 C 0.90582 0.23817 0.64597 0.0
C76 C 0.64535 0.04725 0.14616 0.0
C77 C 0.63529 0.98091 0.11753 0.0
H78 H 0.71647 0.10825 0.19764 0.0
C79 C 0.68827 0.92058 0.12267 0.0
H80 H 0.60476 0.09446 0.14353 0.0
C81 C 0.75298 0.92875 0.15392 0.0
C82 C 0.76532 0.99721 0.18061 0.0
H83 H 0.68194 0.86892 0.10109 0.0
H84 H 0.79471 0.88247 0.15599 0.0
C85 C 0.70946 0.0553 0.17729 0.0
C86 C 0.96103 0.68219 0.65298 0.0
C87 C 0.01447 0.69732 0.61571 0.0
H88 H 0.90434 0.72511 0.71462 0.0
C89 C 0.05392 0.77027 0.61283 0.0
H90 H 0.92951 0.62644 0.65581 0.0
C91 C 0.03788 0.82799 0.64614 0.0
C92 C -0.01669 0.81283 0.68308 0.0
H93 H 0.09439 0.78357 0.58394 0.0
H94 H 0.06815 0.88424 0.64303 0.0
C95 C 0.94619 0.73891 0.68648 0.0
C96 C 0.24718 0.91609 0.91567 0.0
C97 C 0.30771 0.97422 0.91782 0.0
H98 H 0.1343 0.88026 0.88556 0.0
C99 C 0.30468 0.03774 0.88688 0.0
H100 H 0.248 0.86674 0.93922 0.0
C101 C 0.24015 0.04582 0.85654 0.0
C102 C 0.17677 0.99059 0.85638 0.0
H103 H 0.35113 0.08308 0.88732 0.0
H104 H 0.2388 0.0969 0.83442 0.0
C105 C 0.18197 0.92432 0.8852 0.0
C106 C 0.05783 0.30483 0.42782 0.0
C107 C 0.04487 0.38246 0.41652 0.0
H108 H 0.04828 0.18629 0.40492 0.0
C109 C 0.01608 0.40068 0.37156 0.0
H110 H 0.07734 0.28936 0.46294 0.0
C111 C -0.00176 0.34221 0.33875 0.0
C112 C 0.00769 0.26395 0.35047 0.0
H113 H 0.00324 0.45999 0.3627 0.0
H114 H -0.02557 0.35835 0.30473 0.0
C115 C 0.03964 0.24593 0.39496 0.0
C116 C 0.63924 1.02846 0.88676 0.0
C117 C 0.63642 0.09187 0.91784 0.0
H118 H 0.7048 0.96948 0.83415 0.0
C119 C 0.69695 0.14999 0.91578 0.0
H120 H 0.59278 0.98314 0.88712 0.0
C121 C 0.76199 0.14185 0.88526 0.0
C122 C 0.76701 0.07568 0.85631 0.0
H123 H 0.69629 0.19925 0.93944 0.0
H124 H 0.80968 0.18588 0.88571 0.0
C125 C 0.7036 1.02048 0.85637 0.0
C126 C 0.9268 0.66517 0.37146 0.0
C127 C 0.89955 0.68387 0.41665 0.0
H128 H 0.96763 0.70686 0.3044 0.0
C129 C 0.88851 0.76178 0.42815 0.0
H130 H 0.93822 0.6056 0.36242 0.0
C131 C 0.90699 0.82042 0.39524 0.0
C132 C 0.93745 0.80187 0.35052 0.0
H133 H 0.87026 0.77758 0.46344 0.0
H134 H 0.89984 0.88023 0.40537 0.0
C135 C 0.94502 0.7234 0.33862 0.0
loop_
_geom_bond_atom_site_label_1
_geom_bond_atom_site_label_2
_geom_bond_distance
_geom_bond_site_symmetry_2
_ccdc_geom_bond_type
C0 O2 1.247 1_545 S
C0 O4 1.258 . S
C1 O8 1.255 . S
C1 O9 1.250 1_545 S
O2 C0 1.247 1_565 S
O2 Zn3 2.028 1_556 S
Zn3 O2 2.028 1_554 S
Zn3 O7 2.035 1_554 S
Zn3 O9 2.035 . S
Zn3 O10 2.028 . S
O4 C0 1.258 . S
O4 Zn5 2.035 1_556 S
Zn5 O4 2.035 1_554 S
Zn5 O6 2.028 1_554 S
Zn5 O8 2.028 . S
Zn5 O11 2.035 . S
O6 Zn5 2.028 1_556 S
O6 C12 1.255 . S
O7 Zn3 2.035 1_556 S
O7 C12 1.250 1_565 S
O8 C1 1.255 . S
O8 Zn5 2.028 . S
O9 C1 1.250 1_565 S
O9 Zn3 2.035 . S
O10 Zn3 2.028 . S
O10 C13 1.247 1_565 S
O11 Zn5 2.035 . S
O11 C13 1.258 . S
C12 O6 1.255 . S
C12 O7 1.250 1_545 S
C13 O10 1.247 1_545 S
C13 O11 1.258 . S
C14 O16 1.248 . S
C14 O18 1.257 1_655 S
C15 O22 1.251 . S
C15 O23 1.254 1_455 S
O16 C14 1.248 . S
O16 Zn17 2.028 . S
Zn17 O16 2.028 . S
Zn17 O21 2.035 . S
Zn17 O23 2.035 . S
Zn17 O24 2.028 . S
O18 C14 1.257 1_455 S
O18 Zn19 2.035 . S
Zn19 O18 2.035 . S
Zn19 O20 2.028 . S
Zn19 O22 2.028 . S
Zn19 O25 2.035 . S
O20 Zn19 2.028 . S
O20 C26 1.251 . S
O21 Zn17 2.035 . S
O21 C26 1.254 1_655 S
O22 C15 1.251 . S
O22 Zn19 2.028 . S
O23 C15 1.254 1_655 S
O23 Zn17 2.035 . S
O24 Zn17 2.028 . S
O24 C27 1.248 . S
O25 Zn19 2.035 . S
O25 C27 1.257 1_455 S
C26 O20 1.251 . S
C26 O21 1.254 1_455 S
C27 O24 1.248 . S
C27 O25 1.257 1_655 S
O28 Cd29 2.223 1_655 S
O28 C36 1.315 . S
Cd29 O28 2.223 1_455 S
Cd29 O32 2.297 1_455 S
Cd29 O33 2.439 1_455 S
Cd29 O39 2.240 1_565 S
Cd30 O31 2.240 1_545 S
Cd30 O38 2.223 1_655 S
Cd30 O40 2.297 1_655 S
Cd30 O41 2.439 1_655 S
O31 Cd30 2.240 1_565 S
O31 C36 1.279 . S
O32 Cd29 2.297 1_655 S
O32 C34 1.247 . S
O33 Cd29 2.439 1_655 S
O33 C34 1.208 . S
C34 O32 1.247 . S
C34 O33 1.208 . S
C35 O40 1.247 . S
C35 O41 1.208 . S
C36 O28 1.315 . S
C36 O31 1.279 . S
C37 O38 1.315 . S
C37 O39 1.279 . S
O38 Cd30 2.223 1_455 S
O38 C37 1.315 . S
O39 Cd29 2.240 1_545 S
O39 C37 1.279 . S
O40 Cd30 2.297 1_455 S
O40 C35 1.247 . S
O41 Cd30 2.439 1_455 S
O41 C35 1.208 . S
O42 Cd43 2.223 1_655 S
O42 C50 1.315 . S
Cd43 O42 2.223 1_455 S
Cd43 O46 2.297 1_455 S
Cd43 O47 2.439 1_455 S
Cd43 O53 2.240 1_545 S
Cd44 O45 2.240 1_565 S
Cd44 O52 2.223 1_655 S
Cd44 O54 2.297 1_655 S
Cd44 O55 2.439 1_655 S
O45 Cd44 2.240 1_545 S
O45 C50 1.279 . S
O46 Cd43 2.297 1_655 S
O46 C48 1.247 . S
O47 Cd43 2.439 1_655 S
O47 C48 1.208 . S
C48 O46 1.247 . S
C48 O47 1.208 . S
C49 O54 1.247 . S
C49 O55 1.208 . S
C50 O42 1.315 . S
C50 O45 1.279 . S
C51 O52 1.315 . S
C51 O53 1.279 . S
O52 Cd44 2.223 1_455 S
O52 C51 1.315 . S
O53 Cd43 2.240 1_565 S
O53 C51 1.279 . S
O54 Cd44 2.297 1_455 S
O54 C49 1.247 . S
O55 Cd44 2.439 1_455 S
O55 C49 1.208 . S
C56 C57 1.387 1_565 S
C56 H60 0.950 . S
C56 C65 1.390 . S
C57 C56 1.387 1_545 S
C57 C59 1.387 . S
H58 C65 0.950 . S
C59 C57 1.387 . S
C59 C61 1.390 . S
C59 H63 0.950 . S
H60 C56 0.950 . S
C61 C59 1.390 . S
C61 C62 1.387 . S
C61 H64 0.950 . S
C62 C61 1.387 . S
C62 C65 1.387 1_545 S
H63 C59 0.950 . S
H64 C61 0.950 . S
C65 C56 1.390 . S
C65 H58 0.950 . S
C65 C62 1.387 1_565 S
C66 C67 1.387 . S
C66 H70 0.950 . S
C66 C75 1.390 . S
C67 C66 1.387 . S
C67 C69 1.387 1_655 S
H68 C75 0.950 . S
C69 C67 1.387 1_455 S
C69 C71 1.390 . S
C69 H73 0.950 . S
H70 C66 0.950 . S
C71 C69 1.390 . S
C71 C72 1.387 1_455 S
C71 H74 0.950 . S
C72 C71 1.387 1_655 S
C72 C75 1.387 . S
H73 C69 0.950 . S
H74 C71 0.950 . S
C75 C66 1.390 . S
C75 H68 0.950 . S
C75 C72 1.387 . S
C76 C77 1.387 1_545 S
C76 H80 0.950 . S
C76 C85 1.390 . S
C77 C76 1.387 1_565 S
C77 C79 1.387 . S
H78 C85 0.950 . S
C79 C77 1.387 . S
C79 C81 1.390 . S
C79 H83 0.950 . S
H80 C76 0.950 . S
C81 C79 1.390 . S
C81 C82 1.387 . S
C81 H84 0.950 . S
C82 C81 1.387 . S
C82 C85 1.387 1_565 S
H83 C79 0.950 . S
H84 C81 0.950 . S
C85 C76 1.390 . S
C85 H78 0.950 . S
C85 C82 1.387 1_545 S
C86 C87 1.387 1_655 S
C86 H90 0.950 . S
C86 C95 1.390 . S
C87 C86 1.387 1_455 S
C87 C89 1.387 . S
H88 C95 0.950 . S
C89 C87 1.387 . S
C89 C91 1.390 . S
C89 H93 0.950 . S
H90 C86 0.950 . S
C91 C89 1.390 . S
C91 C92 1.387 . S
C91 H94 0.950 . S
C92 C91 1.387 . S
C92 C95 1.387 1_455 S
H93 C89 0.950 . S
H94 C91 0.950 . S
C95 C86 1.390 . S
C95 H88 0.950 . S
C95 C92 1.387 1_655 S
C96 C97 1.387 . S
C96 H100 0.950 . S
C96 C105 1.390 . S
C97 C96 1.387 . S
C97 C99 1.387 1_565 S
H98 C105 0.950 . S
C99 C97 1.387 1_545 S
C99 C101 1.390 . S
C99 H103 0.950 . S
H100 C96 0.950 . S
C101 C99 1.390 . S
C101 C102 1.387 1_545 S
C101 H104 0.950 . S
C102 C101 1.387 1_565 S
C102 C105 1.387 . S
H103 C99 0.950 . S
H104 C101 0.950 . S
C105 C96 1.390 . S
C105 H98 0.950 . S
C105 C102 1.387 . S
C106 C107 1.387 1_655 S
C106 H110 0.950 . S
C106 C115 1.390 1_655 S
C107 C106 1.387 1_455 S
C107 C109 1.387 . S
H108 C115 0.950 . S
C109 C107 1.387 . S
C109 C111 1.390 . S
C109 H113 0.950 . S
H110 C106 0.950 . S
C111 C109 1.390 . S
C111 C112 1.387 . S
C111 H114 0.950 . S
C112 C111 1.387 . S
C112 C115 1.387 . S
H113 C109 0.950 . S
H114 C111 0.950 . S
C115 C106 1.390 1_455 S
C115 H108 0.950 . S
C115 C112 1.387 . S
C116 C117 1.387 1_565 S
C116 H120 0.950 . S
C116 C125 1.390 . S
C117 C116 1.387 1_545 S
C117 C119 1.387 . S
H118 C125 0.950 . S
C119 C117 1.387 . S
C119 C121 1.390 . S
C119 H123 0.950 . S
H120 C116 0.950 . S
C121 C119 1.390 . S
C121 C122 1.387 . S
C121 H124 0.950 . S
C122 C121 1.387 . S
C122 C125 1.387 1_545 S
H123 C119 0.950 . S
H124 C121 0.950 . S
C125 C116 1.390 . S
C125 H118 0.950 . S
C125 C122 1.387 1_565 S
C126 C127 1.387 . S
C126 H130 0.950 . S
C126 C135 1.390 . S
C127 C126 1.387 . S
C127 C129 1.387 1_655 S
H128 C135 0.950 . S
C129 C127 1.387 1_455 S
C129 C131 1.390 . S
C129 H133 0.950 . S
H130 C126 0.950 . S
C131 C129 1.390 . S
C131 C132 1.387 1_455 S
C131 H134 0.950 . S
C132 C131 1.387 1_655 S
C132 C135 1.387 . S
H133 C129 0.950 . S
H134 C131 0.950 . S
C135 C126 1.390 . S
C135 H128 0.950 . S
C135 C132 1.387 . S
C62 C37 1.574 . S
C57 C13 1.566 . S
C72 C48 1.512 . S
C67 C15 1.585 1_655 S
C82 C36 1.574 . S
C77 C1 1.568 1_565 S
C92 C49 1.513 . S
C87 C27 1.586 1_455 S
C102 C51 1.574 . S
C97 C0 1.568 1_565 S
C112 C35 1.511 . S
C107 C26 1.585 . S
C122 C50 1.574 . S
C117 C12 1.572 . S
C127 C14 1.585 . S
C132 C34 1.514 . S
