# Generated by pormake.
# Topology rtl, (3,6)-cn, num edge types: 1
# Building blocks:
#     Node 0, Type 0, BuildingBlock: OLANEW_clean_sbu_2, # of connection points: 3
#     Node 1, Type 0, BuildingBlock: OLANEW_clean_sbu_2, # of connection points: 3
#     Node 2, Type 0, BuildingBlock: OLANEW_clean_sbu_2, # of connection points: 3
#     Node 3, Type 0, BuildingBlock: OLANEW_clean_sbu_2, # of connection points: 3
#     Node 4, Type 1, BuildingBlock: VOLQOD_clean_sbu_1, # of connection points: 6
#     Node 5, Type 1, BuildingBlock: VOLQOD_clean_sbu_1, # of connection points: 6
#     Edge 6, Type (0, 1), BuildingBlock: OJICUG_clean_linker_0, # of connection points: 2
#     Edge 7, Type (0, 1), BuildingBlock: OJICUG_clean_linker_0, # of connection points: 2
#     Edge 8, Type (0, 1), BuildingBlock: OJICUG_clean_linker_0, # of connection points: 2
#     Edge 9, Type (0, 1), BuildingBlock: OJICUG_clean_linker_0, # of connection points: 2
#     Edge 10, Type (0, 1), BuildingBlock: OJICUG_clean_linker_0, # of connection points: 2
#     Edge 11, Type (0, 1), BuildingBlock: OJICUG_clean_linker_0, # of connection points: 2
#     Edge 12, Type (0, 1), BuildingBlock: OJICUG_clean_linker_0, # of connection points: 2
#     Edge 13, Type (0, 1), BuildingBlock: OJICUG_clean_linker_0, # of connection points: 2
#     Edge 14, Type (0, 1), BuildingBlock: OJICUG_clean_linker_0, # of connection points: 2
#     Edge 15, Type (0, 1), BuildingBlock: OJICUG_clean_linker_0, # of connection points: 2
#     Edge 16, Type (0, 1), BuildingBlock: OJICUG_clean_linker_0, # of connection points: 2
#     Edge 17, Type (0, 1), BuildingBlock: OJICUG_clean_linker_0, # of connection points: 2
# Relax obj value: 0.056
# Max RMSD: 0.146
# Mean RMSD: 0.097
data_MOF--net-rtl--node1-OLANEW_clean_sbu_2--node2-VOLQOD_clean_sbu_1--edge1-OJICUG_clean_linker_0
_symmetry_space_group_name_H-M    P1
_symmetry_Int_Tables_number       1
_symmetry_cell_setting            triclinic
loop_
_symmetry_equiv_pos_as_xyz
'x, y, z'
_cell_length_a     30.635818
_cell_length_b     28.798464
_cell_length_c     17.574232
_cell_angle_alpha  86.801464
_cell_angle_beta   93.316792
_cell_angle_gamma 90.21366
loop_
_atom_site_label
_atom_site_type_symbol
_atom_site_fract_x
_atom_site_fract_y
_atom_site_fract_z
_atom_type_partial_charge
O0 O 0.11886 0.73028 0.84134 0.0
Cd1 Cd 0.1444 0.65604 0.90097 0.0
O2 O 0.12118 0.76379 0.95069 0.0
Cd3 Cd 0.10784 0.81887 0.02774 0.0
O4 O 0.09331 0.86685 0.1154 0.0
C5 C 0.06513 0.85422 0.16268 0.0
O6 O 0.04589 0.81367 0.15601 0.0
C7 C 0.11258 0.76593 0.87885 0.0
C8 C 0.23418 0.6413 0.89794 0.0
O9 O 0.20811 0.6287 0.8432 0.0
O10 O 0.21778 0.66164 0.95275 0.0
O11 O 0.62658 0.8014 0.73721 0.0
Cd12 Cd 0.63614 0.8757 0.66454 0.0
O13 O 0.63456 0.77077 0.62811 0.0
Cd14 Cd 0.6383 0.71493 0.55107 0.0
O15 O 0.63021 0.67791 0.44741 0.0
C16 C 0.59653 0.68938 0.40524 0.0
O17 O 0.57009 0.72102 0.42788 0.0
C18 C 0.62616 0.76565 0.69795 0.0
C19 C 0.72155 0.90708 0.6473 0.0
O20 O 0.69877 0.92153 0.70015 0.0
O21 O 0.70447 0.87671 0.60397 0.0
O22 O 0.87647 0.24644 0.16554 0.0
Cd23 Cd 0.85251 0.28071 0.03933 0.0
O24 O 0.93773 0.28649 0.17437 0.0
Cd25 Cd 0.92708 0.31367 0.05716 0.0
O26 O 0.93452 0.2742 0.9569 0.0
C27 C 0.95811 0.23819 0.97123 0.0
O28 O 0.97578 0.23034 0.04068 0.0
C29 C 0.91174 0.25662 0.20283 0.0
C30 C 0.77635 0.33361 0.0365 0.0
O31 O 0.81406 0.35249 0.04658 0.0
O32 O 0.77472 0.2896 0.02892 0.0
O33 O 0.40788 0.23072 0.72092 0.0
Cd34 Cd 0.38758 0.16104 0.65272 0.0
O35 O 0.37905 0.27502 0.62648 0.0
Cd36 Cd 0.36184 0.33858 0.55953 0.0
O37 O 0.37552 0.3791 0.45632 0.0
C38 C 0.3969 0.35683 0.41042 0.0
O39 O 0.40706 0.31316 0.42861 0.0
C40 C 0.40053 0.27124 0.69056 0.0
C41 C 0.29869 0.13919 0.63844 0.0
O42 O 0.32245 0.12581 0.69803 0.0
O43 O 0.31669 0.16411 0.5862 0.0
O44 O 0.89954 0.02712 0.60261 0.0
Zn45 Zn 0.95282 0.06785 0.5914 0.0
O46 O 0.00566 0.03102 0.58517 0.0
Zn47 Zn 0.04144 0.03382 0.6806 0.0
Zn48 Zn 0.98829 0.96694 0.56999 0.0
Zn49 Zn 0.03896 0.05523 0.49955 0.0
O50 O 0.10084 0.05963 0.66026 0.0
O51 O 0.09967 0.07653 0.5354 0.0
O52 O 0.95786 0.10678 0.68253 0.0
O53 O 0.01529 0.07742 0.75154 0.0
O54 O 0.05139 0.97007 0.73254 0.0
O55 O 0.01893 0.92397 0.64935 0.0
O56 O 0.00487 0.94738 0.46773 0.0
O57 O 0.94335 0.11195 0.49908 0.0
O58 O 0.0448 0.00597 0.42204 0.0
O59 O 0.00711 0.10977 0.44485 0.0
C60 C 0.89281 0.98388 0.59528 0.0
C61 C 0.11945 0.07554 0.60136 0.0
C62 C 0.04168 0.92958 0.71111 0.0
C63 C 0.98328 0.10571 0.74249 0.0
C64 C 0.02829 0.96548 0.41632 0.0
C65 C 0.96898 0.12681 0.44859 0.0
O66 O 0.92356 0.9569 0.57995 0.0
O67 O 0.62064 0.48826 0.00652 0.0
Zn68 Zn 0.57436 0.53817 0.00043 0.0
O69 O 0.51585 0.51348 0.98301 0.0
Zn70 Zn 0.49205 0.52773 0.87731 0.0
Zn71 Zn 0.51911 0.44711 0.00592 0.0
Zn72 Zn 0.47883 0.54085 0.05421 0.0
O73 O 0.43289 0.56056 0.87869 0.0
O74 O 0.42742 0.57263 0.0014 0.0
O75 O 0.58534 0.58412 0.91495 0.0
O76 O 0.53329 0.57434 0.82332 0.0
O77 O 0.47865 0.46684 0.82292 0.0
O78 O 0.48833 0.41526 0.92148 0.0
O79 O 0.48962 0.42784 0.10184 0.0
O80 O 0.58044 0.57273 0.09729 0.0
O81 O 0.45643 0.49271 0.12853 0.0
O82 O 0.51104 0.58591 0.11846 0.0
C83 C 0.61808 0.4441 0.01348 0.0
C84 C 0.41245 0.57698 0.93245 0.0
C85 C 0.47557 0.42534 0.85241 0.0
C86 C 0.56785 0.59491 0.84887 0.0
C87 C 0.46454 0.44974 0.14263 0.0
C88 C 0.55158 0.59208 0.13409 0.0
O89 O 0.58117 0.42372 0.01512 0.0
C90 C 0.23204 0.10153 0.69019 0.0
C91 C 0.25229 0.12476 0.62928 0.0
H92 H 0.17452 0.06802 0.72928 0.0
C93 C 0.22828 0.13243 0.55905 0.0
H94 H 0.24957 0.09508 0.74506 0.0
C95 C 0.18515 0.11651 0.54967 0.0
C96 C 0.16501 0.09295 0.61055 0.0
H97 H 0.24301 0.15011 0.5109 0.0
H98 H 0.16764 0.12264 0.49472 0.0
C99 C 0.18892 0.08599 0.68106 0.0
C100 C 0.3084 0.64108 0.96448 0.0
C101 C 0.28139 0.63003 0.90077 0.0
H102 H 0.37095 0.63348 0.02378 0.0
C103 C 0.29933 0.6054 0.84304 0.0
H104 H 0.29581 0.66032 0.00969 0.0
C105 C 0.34283 0.5901 0.85094 0.0
C106 C 0.36895 0.59889 0.91698 0.0
H107 H 0.27939 0.59656 0.79301 0.0
H108 H 0.35529 0.5696 0.80714 0.0
C109 C 0.35157 0.62561 0.97257 0.0
C110 C 0.7949 0.90274 0.59165 0.0
C111 C 0.76566 0.92615 0.63492 0.0
H112 H 0.8582 0.9024 0.54574 0.0
C113 C 0.77845 0.96877 0.6645 0.0
H114 H 0.78594 0.86984 0.56809 0.0
C115 C 0.81943 0.98786 0.65045 0.0
C116 C 0.84886 0.9643 0.60774 0.0
H117 H 0.75654 0.98778 0.69765 0.0
H118 H 0.82826 0.02081 0.67397 0.0
C119 C 0.83626 0.92139 0.57886 0.0
C120 C 0.69469 0.34039 0.02612 0.0
C121 C 0.73592 0.36186 0.03216 0.0
H122 H 0.6253 0.34934 0.01565 0.0
C123 C 0.73812 0.41061 0.03251 0.0
H124 H 0.69185 0.3029 0.0257 0.0
C125 C 0.69992 0.43733 0.02631 0.0
C126 C 0.65865 0.41587 0.02007 0.0
H127 H 0.76938 0.42824 0.03694 0.0
H128 H 0.7028 0.47482 0.02652 0.0
C129 C 0.65651 0.36706 0.02036 0.0
C130 C 0.07508 0.92734 0.23388 0.0
C131 C 0.05495 0.88376 0.2258 0.0
H132 H 0.08243 0.9875 0.30008 0.0
C133 C 0.02533 0.86803 0.27966 0.0
H134 H 0.09802 0.94052 0.19327 0.0
C135 C 0.01648 0.89481 0.34076 0.0
C136 C 0.03693 0.93815 0.3496 0.0
H137 H 0.00915 0.8347 0.27518 0.0
H138 H 0.9937 0.88125 0.38137 0.0
C139 C 0.06611 0.95429 0.29508 0.0
C140 C 0.62829 0.70782 0.80882 0.0
C141 C 0.61472 0.71961 0.73279 0.0
H142 H 0.62521 0.65899 0.90395 0.0
C143 C 0.58747 0.68866 0.69276 0.0
H144 H 0.64917 0.73107 0.841 0.0
C145 C 0.57288 0.64732 0.72924 0.0
C146 C 0.58593 0.6359 0.80599 0.0
H147 H 0.5758 0.6974 0.63441 0.0
H148 H 0.55076 0.62488 0.69793 0.0
C149 C 0.61456 0.6663 0.84466 0.0
C150 C 0.89494 0.20198 0.31323 0.0
C151 C 0.92548 0.22879 0.27326 0.0
H152 H 0.88479 0.14903 0.40098 0.0
C153 C 0.97014 0.22433 0.29553 0.0
H154 H 0.86032 0.20467 0.29728 0.0
C155 C 0.98419 0.1918 0.35358 0.0
C156 C 0.95381 0.16375 0.39162 0.0
H157 H 0.99452 0.24427 0.26555 0.0
H158 H 0.01893 0.18803 0.36772 0.0
C159 C 0.90896 0.1701 0.37247 0.0
C160 C 0.42976 0.35368 0.68972 0.0
C161 C 0.4176 0.31237 0.72996 0.0
H162 H 0.45753 0.42221 0.69645 0.0
C163 C 0.42442 0.30914 0.80962 0.0
H164 H 0.42677 0.35665 0.6281 0.0
C165 C 0.44291 0.34597 0.8483 0.0
C166 C 0.45525 0.38736 0.8086 0.0
H167 H 0.41559 0.27786 0.84237 0.0
H168 H 0.44748 0.34179 0.90989 0.0
C169 C 0.44808 0.39104 0.72877 0.0
C170 C 0.61726 0.63807 0.30266 0.0
C171 C 0.58636 0.66667 0.33318 0.0
H172 H 0.63073 0.59249 0.21467 0.0
C173 C 0.5451 0.67278 0.29499 0.0
H174 H 0.64946 0.633 0.33064 0.0
C175 C 0.53433 0.64946 0.2291 0.0
C176 C 0.56478 0.61995 0.1995 0.0
H177 H 0.52065 0.69473 0.31692 0.0
H178 H 0.50187 0.65409 0.20195 0.0
C179 C 0.60665 0.61512 0.23606 0.0
C180 C 0.9406 0.20844 0.84171 0.0
C181 C 0.96464 0.20469 0.91226 0.0
H182 H 0.92729 0.17987 0.73306 0.0
C183 C 0.9945 0.16789 0.9269 0.0
H184 H 0.91721 0.23629 0.82887 0.0
C185 C 1.00041 0.13562 0.87201 0.0
C186 C 0.97632 0.13922 0.80146 0.0
H187 H 0.01352 0.16401 0.98078 0.0
H188 H 0.02383 0.10781 0.88501 0.0
C189 C 0.94625 0.17593 0.78698 0.0
C190 C 0.40284 0.42715 0.32147 0.0
C191 C 0.4122 0.38003 0.33986 0.0
H192 H 0.4119 0.48609 0.24472 0.0
C193 C 0.43756 0.35553 0.29138 0.0
H194 H 0.38331 0.44694 0.35762 0.0
C195 C 0.45402 0.37794 0.22665 0.0
C196 C 0.44543 0.42533 0.20904 0.0
H197 H 0.44526 0.31913 0.3039 0.0
H198 H 0.47392 0.35821 0.19102 0.0
C199 C 0.41926 0.44957 0.25671 0.0
C200 C 0.06509 0.80385 0.7739 0.0
C201 C 0.09351 0.80815 0.83868 0.0
H202 H 0.02601 0.8385 0.68371 0.0
C203 C 0.10425 0.85274 0.86242 0.0
H204 H 0.05625 0.76989 0.75424 0.0
C205 C 0.08679 0.89232 0.82204 0.0
C206 C 0.05847 0.88799 0.75687 0.0
H207 H 0.12724 0.85721 0.91052 0.0
H208 H 0.09619 0.92626 0.84104 0.0
C209 C 0.04765 0.84324 0.73363 0.0
loop_
_geom_bond_atom_site_label_1
_geom_bond_atom_site_label_2
_geom_bond_distance
_geom_bond_site_symmetry_2
_ccdc_geom_bond_type
O0 Cd1 2.300 1_556 S
O0 C7 1.275 . S
Cd1 O0 2.300 1_554 S
Cd1 O9 2.381 1_554 S
Cd1 O10 2.378 . S
O2 Cd3 2.385 1_556 S
O2 C7 1.255 . S
Cd3 O2 2.385 1_554 S
Cd3 O4 2.317 . S
O4 Cd3 2.317 . S
O4 C5 1.232 . S
C5 O4 1.232 . S
C5 O6 1.218 . S
O6 C5 1.218 . S
C7 O0 1.275 . S
C7 O2 1.255 . S
C8 O9 1.258 1_554 S
C8 O10 1.256 . S
O9 Cd1 2.381 1_556 S
O9 C8 1.258 1_556 S
O10 Cd1 2.378 . S
O10 C8 1.256 . S
O11 Cd12 2.300 . S
O11 C18 1.275 . S
Cd12 O11 2.300 . S
Cd12 O20 2.381 . S
Cd12 O21 2.378 . S
O13 Cd14 2.385 . S
O13 C18 1.255 . S
Cd14 O13 2.385 . S
Cd14 O15 2.317 . S
O15 Cd14 2.317 . S
O15 C16 1.232 . S
C16 O15 1.232 . S
C16 O17 1.218 . S
O17 C16 1.218 . S
C18 O11 1.275 . S
C18 O13 1.255 . S
C19 O20 1.258 . S
C19 O21 1.256 . S
O20 Cd12 2.381 . S
O20 C19 1.258 . S
O21 Cd12 2.378 . S
O21 C19 1.256 . S
O22 Cd23 2.300 . S
O22 C29 1.275 . S
Cd23 O22 2.300 . S
Cd23 O31 2.381 . S
Cd23 O32 2.378 . S
O24 Cd25 2.385 . S
O24 C29 1.255 . S
Cd25 O24 2.385 . S
Cd25 O26 2.317 1_554 S
O26 Cd25 2.317 1_556 S
O26 C27 1.232 . S
C27 O26 1.232 . S
C27 O28 1.218 . S
O28 C27 1.218 . S
C29 O22 1.275 . S
C29 O24 1.255 . S
C30 O31 1.258 . S
C30 O32 1.256 . S
O31 Cd23 2.381 . S
O31 C30 1.258 . S
O32 Cd23 2.378 . S
O32 C30 1.256 . S
O33 Cd34 2.300 . S
O33 C40 1.275 . S
Cd34 O33 2.300 . S
Cd34 O42 2.381 . S
Cd34 O43 2.378 . S
O35 Cd36 2.385 . S
O35 C40 1.255 . S
Cd36 O35 2.385 . S
Cd36 O37 2.317 . S
O37 Cd36 2.317 . S
O37 C38 1.232 . S
C38 O37 1.232 . S
C38 O39 1.218 . S
O39 C38 1.218 . S
C40 O33 1.275 . S
C40 O35 1.255 . S
C41 O42 1.258 . S
C41 O43 1.256 . S
O42 Cd34 2.381 . S
O42 C41 1.258 . S
O43 Cd34 2.378 . S
O43 C41 1.256 . S
O44 Zn45 1.953 1_565 S
O44 C60 1.225 . S
Zn45 O44 1.953 1_545 S
Zn45 O46 1.949 1_655 S
Zn45 O52 1.919 . S
Zn45 O57 1.924 . S
O46 Zn45 1.949 1_455 S
O46 Zn47 1.923 . S
O46 Zn48 1.950 1_545 S
O46 Zn49 1.945 . S
Zn47 O46 1.923 . S
Zn47 O50 1.933 . S
Zn47 O53 1.941 . S
Zn47 O54 1.965 1_545 S
Zn48 O46 1.950 1_565 S
Zn48 O55 1.938 . S
Zn48 O56 1.906 . S
Zn48 O66 1.953 1_455 S
Zn49 O46 1.945 . S
Zn49 O51 1.932 . S
Zn49 O58 1.977 . S
Zn49 O59 1.910 1_455 S
O50 Zn47 1.933 . S
O50 C61 1.226 . S
O51 Zn49 1.932 . S
O51 C61 1.307 . S
O52 Zn45 1.919 . S
O52 C63 1.253 . S
O53 Zn47 1.941 . S
O53 C63 1.283 1_455 S
O54 Zn47 1.965 1_565 S
O54 C62 1.303 . S
O55 Zn48 1.938 . S
O55 C62 1.247 . S
O56 Zn48 1.906 . S
O56 C64 1.304 . S
O57 Zn45 1.924 . S
O57 C65 1.311 . S
O58 Zn49 1.977 . S
O58 C64 1.272 1_545 S
O59 Zn49 1.910 1_655 S
O59 C65 1.231 . S
C60 O44 1.225 . S
C60 O66 1.298 . S
C61 O50 1.226 . S
C61 O51 1.307 . S
C62 O54 1.303 . S
C62 O55 1.247 . S
C63 O52 1.253 . S
C63 O53 1.283 1_655 S
C64 O56 1.304 . S
C64 O58 1.272 1_565 S
C65 O57 1.311 . S
C65 O59 1.231 . S
O66 Zn48 1.953 1_655 S
O66 C60 1.298 . S
O67 Zn68 1.953 . S
O67 C83 1.225 . S
Zn68 O67 1.953 . S
Zn68 O69 1.949 . S
Zn68 O75 1.919 1_554 S
Zn68 O80 1.924 . S
O69 Zn68 1.949 . S
O69 Zn70 1.923 1_554 S
O69 Zn71 1.950 . S
O69 Zn72 1.945 . S
Zn70 O69 1.923 1_556 S
Zn70 O73 1.933 . S
Zn70 O76 1.941 . S
Zn70 O77 1.965 . S
Zn71 O69 1.950 . S
Zn71 O78 1.938 1_554 S
Zn71 O79 1.906 . S
Zn71 O89 1.953 . S
Zn72 O69 1.945 . S
Zn72 O74 1.932 . S
Zn72 O81 1.977 . S
Zn72 O82 1.910 . S
O73 Zn70 1.933 . S
O73 C84 1.226 1_556 S
O74 Zn72 1.932 . S
O74 C84 1.307 . S
O75 Zn68 1.919 1_556 S
O75 C86 1.253 . S
O76 Zn70 1.941 . S
O76 C86 1.283 . S
O77 Zn70 1.965 . S
O77 C85 1.303 . S
O78 Zn71 1.938 1_556 S
O78 C85 1.247 . S
O79 Zn71 1.906 . S
O79 C87 1.304 . S
O80 Zn68 1.924 . S
O80 C88 1.311 . S
O81 Zn72 1.977 . S
O81 C87 1.272 . S
O82 Zn72 1.910 . S
O82 C88 1.231 . S
C83 O67 1.225 . S
C83 O89 1.298 . S
C84 O73 1.226 1_554 S
C84 O74 1.307 . S
C85 O77 1.303 . S
C85 O78 1.247 . S
C86 O75 1.253 . S
C86 O76 1.283 . S
C87 O79 1.304 . S
C87 O81 1.272 . S
C88 O80 1.311 . S
C88 O82 1.231 . S
O89 Zn71 1.953 . S
O89 C83 1.298 . S
C90 C91 1.387 . S
C90 H94 0.950 . S
C90 C99 1.390 . S
C91 C90 1.387 . S
C91 C93 1.387 . S
H92 C99 0.950 . S
C93 C91 1.387 . S
C93 C95 1.390 . S
C93 H97 0.950 . S
H94 C90 0.950 . S
C95 C93 1.390 . S
C95 C96 1.387 . S
C95 H98 0.950 . S
C96 C95 1.387 . S
C96 C99 1.387 . S
H97 C93 0.950 . S
H98 C95 0.950 . S
C99 C90 1.390 . S
C99 H92 0.950 . S
C99 C96 1.387 . S
C100 C101 1.387 . S
C100 H104 0.950 . S
C100 C109 1.390 . S
C101 C100 1.387 . S
C101 C103 1.387 1_554 S
H102 C109 0.950 . S
C103 C101 1.387 1_556 S
C103 C105 1.390 . S
C103 H107 0.950 . S
H104 C100 0.950 . S
C105 C103 1.390 . S
C105 C106 1.387 1_556 S
C105 H108 0.950 . S
C106 C105 1.387 1_554 S
C106 C109 1.387 . S
H107 C103 0.950 . S
H108 C105 0.950 . S
C109 C100 1.390 . S
C109 H102 0.950 . S
C109 C106 1.387 . S
C110 C111 1.387 . S
C110 H114 0.950 . S
C110 C119 1.390 . S
C111 C110 1.387 . S
C111 C113 1.387 . S
H112 C119 0.950 . S
C113 C111 1.387 . S
C113 C115 1.390 . S
C113 H117 0.950 . S
H114 C110 0.950 . S
C115 C113 1.390 . S
C115 C116 1.387 . S
C115 H118 0.950 . S
C116 C115 1.387 . S
C116 C119 1.387 . S
H117 C113 0.950 . S
H118 C115 0.950 . S
C119 C110 1.390 . S
C119 H112 0.950 . S
C119 C116 1.387 . S
C120 C121 1.387 . S
C120 H124 0.950 1_554 S
C120 C129 1.390 1_554 S
C121 C120 1.387 . S
C121 C123 1.387 . S
H122 C129 0.950 . S
C123 C121 1.387 . S
C123 C125 1.390 . S
C123 H127 0.950 . S
H124 C120 0.950 1_556 S
C125 C123 1.390 . S
C125 C126 1.387 . S
C125 H128 0.950 . S
C126 C125 1.387 . S
C126 C129 1.387 1_554 S
H127 C123 0.950 . S
H128 C125 0.950 . S
C129 C120 1.390 1_556 S
C129 H122 0.950 . S
C129 C126 1.387 1_556 S
C130 C131 1.387 . S
C130 H134 0.950 . S
C130 C139 1.390 . S
C131 C130 1.387 . S
C131 C133 1.387 . S
H132 C139 0.950 . S
C133 C131 1.387 . S
C133 C135 1.390 . S
C133 H137 0.950 . S
H134 C130 0.950 . S
C135 C133 1.390 . S
C135 C136 1.387 . S
C135 H138 0.950 . S
C136 C135 1.387 . S
C136 C139 1.387 . S
H137 C133 0.950 . S
H138 C135 0.950 . S
C139 C130 1.390 . S
C139 H132 0.950 . S
C139 C136 1.387 . S
C140 C141 1.387 . S
C140 H144 0.950 . S
C140 C149 1.390 . S
C141 C140 1.387 . S
C141 C143 1.387 . S
H142 C149 0.950 . S
C143 C141 1.387 . S
C143 C145 1.390 . S
C143 H147 0.950 . S
H144 C140 0.950 . S
C145 C143 1.390 . S
C145 C146 1.387 . S
C145 H148 0.950 . S
C146 C145 1.387 . S
C146 C149 1.387 . S
H147 C143 0.950 . S
H148 C145 0.950 . S
C149 C140 1.390 . S
C149 H142 0.950 . S
C149 C146 1.387 . S
C150 C151 1.387 . S
C150 H154 0.950 . S
C150 C159 1.390 . S
C151 C150 1.387 . S
C151 C153 1.387 . S
H152 C159 0.950 . S
C153 C151 1.387 . S
C153 C155 1.390 . S
C153 H157 0.950 . S
H154 C150 0.950 . S
C155 C153 1.390 . S
C155 C156 1.387 . S
C155 H158 0.950 . S
C156 C155 1.387 . S
C156 C159 1.387 . S
H157 C153 0.950 . S
H158 C155 0.950 . S
C159 C150 1.390 . S
C159 H152 0.950 . S
C159 C156 1.387 . S
C160 C161 1.387 . S
C160 H164 0.950 . S
C160 C169 1.390 . S
C161 C160 1.387 . S
C161 C163 1.387 . S
H162 C169 0.950 . S
C163 C161 1.387 . S
C163 C165 1.390 . S
C163 H167 0.950 . S
H164 C160 0.950 . S
C165 C163 1.390 . S
C165 C166 1.387 . S
C165 H168 0.950 . S
C166 C165 1.387 . S
C166 C169 1.387 . S
H167 C163 0.950 . S
H168 C165 0.950 . S
C169 C160 1.390 . S
C169 H162 0.950 . S
C169 C166 1.387 . S
C170 C171 1.387 . S
C170 H174 0.950 . S
C170 C179 1.390 . S
C171 C170 1.387 . S
C171 C173 1.387 . S
H172 C179 0.950 . S
C173 C171 1.387 . S
C173 C175 1.390 . S
C173 H177 0.950 . S
H174 C170 0.950 . S
C175 C173 1.390 . S
C175 C176 1.387 . S
C175 H178 0.950 . S
C176 C175 1.387 . S
C176 C179 1.387 . S
H177 C173 0.950 . S
H178 C175 0.950 . S
C179 C170 1.390 . S
C179 H172 0.950 . S
C179 C176 1.387 . S
C180 C181 1.387 . S
C180 H184 0.950 . S
C180 C189 1.390 . S
C181 C180 1.387 . S
C181 C183 1.387 . S
H182 C189 0.950 . S
C183 C181 1.387 . S
C183 C185 1.390 . S
C183 H187 0.950 . S
H184 C180 0.950 . S
C185 C183 1.390 . S
C185 C186 1.387 . S
C185 H188 0.950 . S
C186 C185 1.387 . S
C186 C189 1.387 . S
H187 C183 0.950 . S
H188 C185 0.950 . S
C189 C180 1.390 . S
C189 H182 0.950 . S
C189 C186 1.387 . S
C190 C191 1.387 . S
C190 H194 0.950 . S
C190 C199 1.390 . S
C191 C190 1.387 . S
C191 C193 1.387 . S
H192 C199 0.950 . S
C193 C191 1.387 . S
C193 C195 1.390 . S
C193 H197 0.950 . S
H194 C190 0.950 . S
C195 C193 1.390 . S
C195 C196 1.387 . S
C195 H198 0.950 . S
C196 C195 1.387 . S
C196 C199 1.387 . S
H197 C193 0.950 . S
H198 C195 0.950 . S
C199 C190 1.390 . S
C199 H192 0.950 . S
C199 C196 1.387 . S
C200 C201 1.387 . S
C200 H204 0.950 . S
C200 C209 1.390 . S
C201 C200 1.387 . S
C201 C203 1.387 . S
H202 C209 0.950 . S
C203 C201 1.387 . S
C203 C205 1.390 . S
C203 H207 0.950 . S
H204 C200 0.950 . S
C205 C203 1.390 . S
C205 C206 1.387 . S
C205 H208 0.950 . S
C206 C205 1.387 . S
C206 C209 1.387 . S
H207 C203 0.950 . S
H208 C205 0.950 . S
C209 C200 1.390 . S
C209 H202 0.950 . S
C209 C206 1.387 . S
C96 C61 1.535 . S
C91 C41 1.506 . S
C101 C8 1.492 . S
C106 C84 1.519 . S
C111 C19 1.517 . S
C116 C60 1.548 . S
C121 C30 1.571 . S
C126 C83 1.568 . S
C136 C64 1.526 . S
C131 C5 1.262 . S
C146 C86 1.617 . S
C141 C18 1.661 . S
C151 C29 1.633 . S
C156 C65 1.547 . S
C161 C40 1.619 . S
C166 C85 1.581 . S
C176 C88 1.391 . S
C171 C16 1.152 . S
C186 C63 1.421 . S
C181 C27 1.303 . S
C196 C87 1.358 . S
C191 C38 1.126 . S
C201 C7 1.439 . S
C206 C62 1.403 . S
