# Generated by pormake.
# Topology nia, (6,6)-cn, num edge types: 1
# Building blocks:
#     Node 0, Type 0, BuildingBlock: BETGAK_clean_sbu_0, # of connection points: 6
#     Node 1, Type 0, BuildingBlock: BETGAK_clean_sbu_0, # of connection points: 6
#     Node 2, Type 1, BuildingBlock: MIDCAF_clean_sbu_0, # of connection points: 6
#     Node 3, Type 1, BuildingBlock: MIDCAF_clean_sbu_0, # of connection points: 6
#     Edge 4, Type (0, 1), BuildingBlock: OJICUG_clean_linker_0, # of connection points: 2
#     Edge 5, Type (0, 1), BuildingBlock: OJICUG_clean_linker_0, # of connection points: 2
#     Edge 6, Type (0, 1), BuildingBlock: OJICUG_clean_linker_0, # of connection points: 2
#     Edge 7, Type (0, 1), BuildingBlock: OJICUG_clean_linker_0, # of connection points: 2
#     Edge 8, Type (0, 1), BuildingBlock: OJICUG_clean_linker_0, # of connection points: 2
#     Edge 9, Type (0, 1), BuildingBlock: OJICUG_clean_linker_0, # of connection points: 2
#     Edge 10, Type (0, 1), BuildingBlock: OJICUG_clean_linker_0, # of connection points: 2
#     Edge 11, Type (0, 1), BuildingBlock: OJICUG_clean_linker_0, # of connection points: 2
#     Edge 12, Type (0, 1), BuildingBlock: OJICUG_clean_linker_0, # of connection points: 2
#     Edge 13, Type (0, 1), BuildingBlock: OJICUG_clean_linker_0, # of connection points: 2
#     Edge 14, Type (0, 1), BuildingBlock: OJICUG_clean_linker_0, # of connection points: 2
#     Edge 15, Type (0, 1), BuildingBlock: OJICUG_clean_linker_0, # of connection points: 2
# Relax obj value: 0.381
# Max RMSD: 0.284
# Mean RMSD: 0.265
data_MOF--net-nia--node1-BETGAK_clean_sbu_0--node2-MIDCAF_clean_sbu_0--edge1-OJICUG_clean_linker_0
_symmetry_space_group_name_H-M    P1
_symmetry_Int_Tables_number       1
_symmetry_cell_setting            triclinic
loop_
_symmetry_equiv_pos_as_xyz
'x, y, z'
_cell_length_a     19.04869
_cell_length_b     22.926767
_cell_length_c     25.036456
_cell_angle_alpha  58.846391
_cell_angle_beta   107.55342
_cell_angle_gamma 129.73695
loop_
_atom_site_label
_atom_site_type_symbol
_atom_site_fract_x
_atom_site_fract_y
_atom_site_fract_z
_atom_type_partial_charge
La0 La 0.09955 0.00772 0.13016 0.0
La1 La 0.98393 0.90431 1.06396 0.0
C2 C 0.21576 0.11717 0.16956 0.0
C3 C 0.21347 0.16193 0.19416 0.0
C4 C 0.22593 0.14166 0.25804 0.0
C5 C 0.22322 0.18241 0.28283 0.0
C6 C 0.20919 0.24506 0.24397 0.0
C7 C 0.19587 0.26471 0.18007 0.0
C8 C 0.19765 0.22333 0.15541 0.0
C9 C 0.92742 0.88687 0.17767 0.0
C10 C 0.98894 0.06123 1.01808 0.0
C11 C 0.86398 0.79296 1.02677 0.0
C12 C 0.8634 0.74701 1.00253 0.0
C13 C 0.78056 0.68714 0.98663 0.0
C14 C 0.77924 0.64587 0.96025 0.0
C15 C 0.86102 0.66433 0.94916 0.0
C16 C 0.94427 0.72518 0.9648 0.0
C17 C 0.94543 0.76634 0.99137 0.0
C18 C 0.15605 0.02505 1.01618 0.0
C19 C 0.09571 0.85173 0.17584 0.0
O20 O 0.172 0.03585 0.20467 0.0
O21 O 0.2018 0.13581 0.11006 0.0
O22 O 0.99898 0.91467 0.20956 0.0
O23 O 0.95421 0.9303 0.12138 0.0
O24 O 0.064 0.0891 1.04982 0.0
O25 O 0.93738 -0.01748 1.02643 0.0
O26 O 0.90846 0.87411 0.99082 0.0
O27 O 0.8824 0.77559 0.08566 0.0
O28 O 0.08434 -0.00345 0.98447 0.0
O29 O 0.12924 -0.0182 1.07249 0.0
O30 O 0.02043 0.82356 0.1443 0.0
O31 O 0.14718 0.93052 0.16723 0.0
H32 H 0.23799 0.09424 0.28889 0.0
H33 H 0.23305 0.16548 0.33226 0.0
H34 H 0.18697 0.31406 0.14851 0.0
H35 H 0.18767 0.24022 0.106 0.0
H36 H 0.7169 0.67227 0.99465 0.0
H37 H 0.71385 0.59791 0.95006 0.0
H38 H 1.00824 0.74072 0.95664 0.0
H39 H 0.01012 0.81349 1.00287 0.0
La40 La 0.99158 -0.01247 0.59624 0.0
La41 La 0.09381 0.92621 0.59748 0.0
C42 C 0.94314 0.07028 0.59113 0.0
C43 C 0.92737 0.09017 0.63217 0.0
C44 C 0.99987 0.1541 0.6502 0.0
C45 C 0.98227 0.17883 0.68243 0.0
C46 C 0.8919 0.14035 0.69717 0.0
C47 C 0.81986 0.07445 0.68098 0.0
C48 C 0.83739 0.04995 0.64874 0.0
C49 C 0.91714 0.82484 0.66945 0.0
C50 C 0.93141 0.91127 0.50483 0.0
C51 C 0.14234 0.84355 0.60258 0.0
C52 C 0.15802 0.82375 0.56147 0.0
C53 C 0.08545 0.76001 0.54328 0.0
C54 C 0.10298 0.7353 0.51099 0.0
C55 C 0.19333 0.77362 0.49635 0.0
C56 C 0.26544 0.8394 0.51264 0.0
C57 C 0.24799 0.86388 0.54494 0.0
C58 C 0.16827 0.08895 0.52435 0.0
C59 C 0.15398 0.00254 0.68886 0.0
O60 O 0.02729 0.10336 0.58022 0.0
O61 O 0.88628 -0.00798 0.59903 0.0
O62 O 0.87193 0.85651 0.64155 0.0
O63 O 1.00094 0.88464 0.66047 0.0
O64 O 0.94018 -0.03098 0.51191 0.0
O65 O 0.98031 0.88193 0.53684 0.0
O66 O 0.05819 0.81039 0.61358 0.0
O67 O 0.19916 0.92182 0.59465 0.0
O68 O 0.21349 0.05728 0.5522 0.0
O69 O 0.08453 0.02902 0.53335 0.0
O70 O 0.14526 -0.0552 0.68179 0.0
O71 O 0.10504 0.03183 0.65686 0.0
H72 H 0.07007 0.18674 0.6379 0.0
H73 H 0.03937 0.2294 0.69459 0.0
H74 H 0.74939 0.04443 0.69039 0.0
H75 H 0.77999 0.00135 0.63478 0.0
H76 H 0.01527 0.72748 0.55552 0.0
H77 H 0.04584 0.68482 0.49875 0.0
H78 H 0.33589 0.8693 0.50329 0.0
H79 H 0.30542 0.91235 0.55901 0.0
Zn80 Zn 0.38177 0.67414 0.23177 0.0
Zn81 Zn 0.409 0.57248 0.47386 0.0
Zn82 Zn 0.40313 0.62974 0.35109 0.0
C83 C 0.58932 0.70734 0.42068 0.0
C84 C 0.32704 0.4337 0.45748 0.0
O85 O 0.32256 0.68278 0.31401 0.0
O86 O 0.31604 0.72169 0.21215 0.0
C87 C 0.57015 0.75048 0.2503 0.0
O88 O 0.5497 0.70664 0.36904 0.0
O89 O 0.54359 0.65585 0.47201 0.0
O90 O 0.35908 0.4543 0.50175 0.0
O91 O 0.33569 0.48961 0.40091 0.0
O92 O 0.51306 0.74531 0.20776 0.0
O93 O 0.54324 0.71519 0.30727 0.0
O94 O 0.33128 0.51766 0.33616 0.0
O95 O 0.30503 0.56105 0.23522 0.0
C96 C 0.29695 0.50287 0.28805 0.0
O97 O 0.33799 0.66381 0.37858 0.0
O98 O 0.33012 0.59648 0.48201 0.0
C99 C 0.29471 0.71338 0.25987 0.0
C100 C 0.31345 0.6424 0.4322 0.0
Zn101 Zn 0.70123 0.23733 0.96258 0.0
Zn102 Zn 0.67635 0.34099 0.72061 0.0
Zn103 Zn 0.68172 0.28362 0.84323 0.0
C104 C 0.75874 0.47988 0.73709 0.0
C105 C 0.49589 0.20651 0.77314 0.0
O106 O 0.76257 0.23076 0.8802 0.0
O107 O 0.76929 0.19191 0.98203 0.0
C108 C 0.78415 0.40851 0.90758 0.0
O109 O 0.74969 0.42394 0.79376 0.0
O110 O 0.72685 0.45921 0.69287 0.0
O111 O 0.54177 0.25822 0.72188 0.0
O112 O 0.53535 0.20688 0.82488 0.0
O113 O 0.77502 0.34951 0.96016 0.0
O114 O 0.75227 0.39516 0.85875 0.0
O115 O 0.54107 0.1977 0.8868 0.0
O116 O 0.56969 0.16423 0.98679 0.0
C117 C 0.51326 0.16062 0.94388 0.0
O118 O 0.74733 0.24985 0.81564 0.0
O119 O 0.75483 0.31683 0.7122 0.0
C120 C 0.79079 0.20046 0.93426 0.0
C121 C 0.77172 0.2711 0.762 0.0
C122 C 0.10053 0.73238 0.20334 0.0
C123 C 0.13517 0.80393 0.20954 0.0
H124 H 0.12499 0.647 0.21554 0.0
C125 C 0.21691 0.83757 0.24092 0.0
H126 H 0.03826 0.70529 0.17915 0.0
C127 C 0.26661 0.80469 0.26109 0.0
C128 C 0.2345 0.7364 0.25173 0.0
H129 H 0.24581 0.89291 0.24641 0.0
H130 H 0.33327 0.83672 0.27948 0.0
C131 C 0.15018 0.69919 0.22402 0.0
C132 C 0.25941 0.1233 0.71666 0.0
C133 C 0.22847 0.0438 0.72648 0.0
H134 H 0.37017 0.23776 0.72474 0.0
C135 C 0.27874 0.01188 0.76424 0.0
H136 H 0.22263 0.15001 0.68779 0.0
C137 C 0.36253 0.06186 0.78669 0.0
C138 C 0.39733 0.1445 0.7711 0.0
H139 H 0.25657 -0.04922 0.77285 0.0
H140 H 0.40378 0.03893 0.8112 0.0
C141 C 0.34374 0.17362 0.73803 0.0
C142 C 0.16247 0.32467 0.24487 0.0
C143 C 0.217 0.29574 0.26809 0.0
H144 H 0.14537 0.41396 0.23374 0.0
C145 C 0.28715 0.3247 0.30817 0.0
H146 H 0.10652 0.30193 0.21517 0.0
C147 C 0.30801 0.3875 0.31968 0.0
C148 C 0.25902 0.42196 0.29132 0.0
H149 H 0.33074 0.30404 0.32662 0.0
H150 H 0.36697 0.41376 0.34652 0.0
C151 C 0.184 0.38804 0.25587 0.0
C152 C 0.91951 0.26154 0.69993 0.0
C153 C 0.87156 0.17375 0.72345 0.0
H154 H 0.9254 0.36112 0.69446 0.0
C155 C 0.79737 0.11879 0.76651 0.0
H156 H 0.97597 0.30578 0.66597 0.0
C157 C 0.76829 0.15082 0.7824 0.0
C158 C 0.81369 0.23825 0.75649 0.0
H159 H 0.7592 0.05087 0.78579 0.0
H160 H 0.70666 0.10715 0.81159 0.0
C161 C 0.89044 0.29337 0.71599 0.0
C162 C 0.77431 0.85889 0.1526 0.0
C163 C 0.83632 0.85062 0.19777 0.0
H164 H 0.64466 0.83724 0.13347 0.0
C165 C 0.81214 0.81225 0.26113 0.0
H166 H 0.79075 0.88867 0.10335 0.0
C167 C 0.72685 0.78157 0.27878 0.0
C168 C 0.66483 0.79008 0.23336 0.0
H169 H 0.85874 0.80525 0.29702 0.0
H170 H 0.70879 0.74943 0.3279 0.0
C171 C 0.69036 0.82977 0.17003 0.0
C172 C 0.79174 0.68628 0.66811 0.0
C173 C 0.87699 0.73577 0.6898 0.0
H174 H 0.68869 0.56691 0.66577 0.0
C175 C 0.92326 0.70004 0.72873 0.0
H176 H 0.75491 0.71237 0.6376 0.0
C177 C 0.88449 0.61586 0.74554 0.0
C178 C 0.79963 0.56708 0.72298 0.0
H179 H 0.98921 0.73717 0.74591 0.0
H180 H 0.92118 0.58934 0.77524 0.0
C181 C 0.75402 0.60321 0.68395 0.0
C182 C 0.16569 0.65224 0.49399 0.0
C183 C 0.21356 0.74007 0.47022 0.0
H184 H 0.15992 0.55253 0.49985 0.0
C185 C 0.28768 0.79491 0.42713 0.0
H186 H 0.10928 0.60812 0.52796 0.0
C187 C 0.3168 0.76274 0.41147 0.0
C188 C 0.27152 0.6753 0.43765 0.0
H189 H 0.32579 0.86284 0.4077 0.0
H190 H 0.37836 0.80633 0.38223 0.0
C191 C 0.19481 0.62028 0.47816 0.0
C192 C 0.27174 0.10016 0.93278 0.0
C193 C 0.24705 0.06088 0.99619 0.0
H194 H 0.3755 0.16361 0.86604 0.0
C195 C 0.30845 0.05137 1.04142 0.0
H196 H 0.22563 0.10809 0.89684 0.0
C197 C 0.3923 0.08025 1.02401 0.0
C198 C 0.41843 0.121 0.96065 0.0
H199 H 0.29162 0.02081 0.09069 0.0
H200 H 0.4375 0.07184 1.06064 0.0
C201 C 0.35699 0.13066 0.91516 0.0
C202 C 0.16262 0.21401 0.46501 0.0
C203 C 0.20845 0.17794 0.50423 0.0
H204 H 0.1651 0.3249 0.41857 0.0
C205 C 0.29345 0.22708 0.52633 0.0
H206 H 0.09688 0.17715 0.44751 0.0
C207 C 0.33136 0.31014 0.51062 0.0
C208 C 0.28618 0.34661 0.47132 0.0
H209 H 0.32995 0.20071 0.55706 0.0
H210 H 0.39646 0.34614 0.52914 0.0
C211 C 0.20158 0.29818 0.44835 0.0
C212 C 0.98455 0.18076 0.99086 0.0
C213 C 0.94977 0.10931 0.98442 0.0
H214 H 0.96042 0.26624 0.97893 0.0
C215 C 0.86813 0.07605 0.95286 0.0
H216 H 0.04675 0.20758 1.01518 0.0
C217 C 0.81869 0.10919 0.93273 0.0
C218 C 0.85092 0.17736 0.94232 0.0
H219 H 0.8391 0.02079 0.94721 0.0
H220 H 0.75208 0.07739 0.91422 0.0
C221 C 0.93514 0.21418 0.97024 0.0
C222 C 0.80655 0.90196 0.42955 0.0
C223 C 0.85688 0.87004 0.46719 0.0
H224 H 0.68143 0.87491 0.38273 0.0
C225 C 0.82594 0.79061 0.47688 0.0
H226 H 0.82871 -0.03699 0.42103 0.0
C227 C 0.74157 0.74031 0.45551 0.0
C228 C 0.68792 0.7694 0.42257 0.0
H229 H 0.86276 0.7639 0.50566 0.0
H230 H 0.71514 0.6762 0.46873 0.0
C231 C 0.72272 0.852 0.40711 0.0
C232 C 0.7954 0.59039 0.88178 0.0
C233 C 0.85744 0.61412 0.92688 0.0
H234 H 0.72272 0.50497 0.84062 0.0
C235 C 0.9069 0.57998 0.9569 0.0
H236 H 0.75746 0.61681 0.85722 0.0
C237 C 0.88842 0.51751 0.94629 0.0
C238 C 0.82067 0.48862 0.90535 0.0
H239 H 0.95471 0.5966 0.99215 0.0
H240 H 0.92288 0.48791 0.9731 0.0
C241 C 0.7765 0.52742 0.87152 0.0
loop_
_geom_bond_atom_site_label_1
_geom_bond_atom_site_label_2
_geom_bond_distance
_geom_bond_site_symmetry_2
_ccdc_geom_bond_type
La0 C2 2.928 . S
La0 O20 2.521 . S
La0 O21 2.628 . S
La0 O22 2.554 1_445 S
La0 O23 2.757 1_445 S
La0 O24 2.470 . S
La0 O29 2.482 1_554 S
La0 O31 2.503 1_545 S
La1 C11 2.928 . S
La1 O23 2.482 1_556 S
La1 O25 2.503 1_565 S
La1 O26 2.521 . S
La1 O27 2.628 . S
La1 O28 2.554 1_665 S
La1 O29 2.757 1_665 S
La1 O30 2.470 1_656 S
C2 La0 2.928 . S
C2 C3 1.503 . S
C2 O20 1.261 . S
C2 O21 1.243 . S
C3 C2 1.503 . S
C3 C4 1.394 . S
C3 C8 1.373 . S
C4 C3 1.394 . S
C4 C5 1.380 . S
C4 H32 0.930 . S
C5 C4 1.380 . S
C5 C6 1.376 . S
C5 H33 0.930 . S
C6 C5 1.376 . S
C6 C7 1.370 . S
C7 C6 1.370 . S
C7 C8 1.396 . S
C7 H34 0.929 . S
C8 C3 1.373 . S
C8 C7 1.396 . S
C8 H35 0.929 . S
C9 O22 1.240 . S
C9 O23 1.289 . S
C10 O24 1.258 1_656 S
C10 O25 1.256 . S
C11 La1 2.928 . S
C11 C12 1.503 . S
C11 O26 1.261 . S
C11 O27 1.243 . S
C12 C11 1.503 . S
C12 C13 1.394 . S
C12 C17 1.373 . S
C13 C12 1.394 . S
C13 C14 1.380 . S
C13 H36 0.930 . S
C14 C13 1.380 . S
C14 C15 1.376 . S
C14 H37 0.930 . S
C15 C14 1.376 . S
C15 C16 1.370 . S
C16 C15 1.370 . S
C16 C17 1.396 . S
C16 H38 0.929 1_556 S
C17 C12 1.373 . S
C17 C16 1.396 . S
C17 H39 0.929 1_556 S
C18 O28 1.240 . S
C18 O29 1.289 . S
C19 O30 1.258 . S
C19 O31 1.256 . S
O20 La0 2.521 . S
O20 C2 1.261 . S
O21 La0 2.628 . S
O21 C2 1.243 . S
O22 La0 2.554 1_665 S
O22 C9 1.240 . S
O23 La0 2.757 1_665 S
O23 La1 2.482 1_554 S
O23 C9 1.289 . S
O24 La0 2.470 . S
O24 C10 1.258 1_454 S
O25 La1 2.503 1_545 S
O25 C10 1.256 . S
O26 La1 2.521 . S
O26 C11 1.261 . S
O27 La1 2.628 . S
O27 C11 1.243 . S
O28 La1 2.554 1_445 S
O28 C18 1.240 . S
O29 La0 2.482 1_556 S
O29 La1 2.757 1_445 S
O29 C18 1.289 . S
O30 La1 2.470 1_454 S
O30 C19 1.258 . S
O31 La0 2.503 1_565 S
O31 C19 1.256 . S
H32 C4 0.930 . S
H33 C5 0.930 . S
H34 C7 0.929 . S
H35 C8 0.929 . S
H36 C13 0.930 . S
H37 C14 0.930 . S
H38 C16 0.929 1_554 S
H39 C17 0.929 1_554 S
La40 C42 2.928 1_455 S
La40 O60 2.521 1_455 S
La40 O61 2.628 1_455 S
La40 O62 2.554 1_445 S
La40 O63 2.757 1_545 S
La40 O64 2.470 1_445 S
La40 O69 2.482 . S
La40 O71 2.503 . S
La41 C51 2.928 . S
La41 O63 2.482 . S
La41 O65 2.503 1_455 S
La41 O66 2.521 1_565 S
La41 O67 2.628 . S
La41 O68 2.554 1_565 S
La41 O69 2.757 1_565 S
La41 O70 2.470 1_565 S
C42 La40 2.928 1_655 S
C42 C43 1.503 . S
C42 O60 1.261 . S
C42 O61 1.243 . S
C43 C42 1.503 . S
C43 C44 1.394 . S
C43 C48 1.373 . S
C44 C43 1.394 . S
C44 C45 1.380 . S
C44 H72 0.930 1_545 S
C45 C44 1.380 . S
C45 C46 1.376 . S
C45 H73 0.930 . S
C46 C45 1.376 . S
C46 C47 1.370 . S
C47 C46 1.370 . S
C47 C48 1.396 . S
C47 H74 0.929 . S
C48 C43 1.373 . S
C48 C47 1.396 . S
C48 H75 0.929 . S
C49 O62 1.240 . S
C49 O63 1.289 1_655 S
C50 O64 1.258 . S
C50 O65 1.256 . S
C51 La41 2.928 . S
C51 C52 1.503 . S
C51 O66 1.261 1_565 S
C51 O67 1.243 . S
C52 C51 1.503 . S
C52 C53 1.394 1_565 S
C52 C57 1.373 . S
C53 C52 1.394 1_545 S
C53 C54 1.380 . S
C53 H76 0.930 . S
C54 C53 1.380 . S
C54 C55 1.376 1_545 S
C54 H77 0.930 . S
C55 C54 1.376 1_565 S
C55 C56 1.370 . S
C56 C55 1.370 . S
C56 C57 1.396 . S
C56 H78 0.929 . S
C57 C52 1.373 . S
C57 C56 1.396 . S
C57 H79 0.929 . S
C58 O68 1.240 . S
C58 O69 1.289 . S
C59 O70 1.258 . S
C59 O71 1.256 . S
O60 La40 2.521 1_655 S
O60 C42 1.261 . S
O61 La40 2.628 1_655 S
O61 C42 1.243 . S
O62 La40 2.554 1_665 S
O62 C49 1.240 . S
O63 La40 2.757 1_565 S
O63 La41 2.482 . S
O63 C49 1.289 1_455 S
O64 La40 2.470 1_665 S
O64 C50 1.258 . S
O65 La41 2.503 1_655 S
O65 C50 1.256 . S
O66 La41 2.521 1_545 S
O66 C51 1.261 1_545 S
O67 La41 2.628 . S
O67 C51 1.243 . S
O68 La41 2.554 1_545 S
O68 C58 1.240 . S
O69 La40 2.482 . S
O69 La41 2.757 1_545 S
O69 C58 1.289 . S
O70 La41 2.470 1_545 S
O70 C59 1.258 . S
O71 La40 2.503 . S
O71 C59 1.256 . S
H72 C44 0.930 1_565 S
H73 C45 0.930 . S
H74 C47 0.929 . S
H75 C48 0.929 . S
H76 C53 0.930 . S
H77 C54 0.930 . S
H78 C56 0.929 . S
H79 C57 0.929 . S
Zn80 O86 1.920 . S
Zn80 O92 1.898 . S
Zn80 O95 1.905 . S
Zn81 O89 1.905 . S
Zn81 O90 1.898 . S
Zn81 O98 1.920 . S
Zn82 O85 2.080 . S
Zn82 O88 2.114 . S
Zn82 O91 2.120 . S
Zn82 O93 2.120 . S
Zn82 O94 2.114 . S
Zn82 O97 2.080 . S
C83 O88 1.166 . S
C83 O89 1.182 . S
C84 O90 1.167 . S
C84 O91 1.299 . S
O85 Zn82 2.080 . S
O85 C99 1.305 . S
O86 Zn80 1.920 . S
O86 C99 1.234 . S
C87 O92 1.167 . S
C87 O93 1.299 . S
O88 Zn82 2.114 . S
O88 C83 1.166 . S
O89 Zn81 1.905 . S
O89 C83 1.182 . S
O90 Zn81 1.898 . S
O90 C84 1.167 . S
O91 Zn82 2.120 . S
O91 C84 1.299 . S
O92 Zn80 1.898 . S
O92 C87 1.167 . S
O93 Zn82 2.120 . S
O93 C87 1.299 . S
O94 Zn82 2.114 . S
O94 C96 1.166 . S
O95 Zn80 1.905 . S
O95 C96 1.182 . S
C96 O94 1.166 . S
C96 O95 1.182 . S
O97 Zn82 2.080 . S
O97 C100 1.305 . S
O98 Zn81 1.920 . S
O98 C100 1.234 . S
C99 O85 1.305 . S
C99 O86 1.234 . S
C100 O97 1.305 . S
C100 O98 1.234 . S
Zn101 O107 1.920 . S
Zn101 O113 1.898 . S
Zn101 O116 1.905 . S
Zn102 O110 1.905 . S
Zn102 O111 1.898 . S
Zn102 O119 1.920 . S
Zn103 O106 2.080 . S
Zn103 O109 2.114 . S
Zn103 O112 2.120 . S
Zn103 O114 2.120 . S
Zn103 O115 2.114 . S
Zn103 O118 2.080 . S
C104 O109 1.166 . S
C104 O110 1.182 . S
C105 O111 1.167 . S
C105 O112 1.299 . S
O106 Zn103 2.080 . S
O106 C120 1.305 . S
O107 Zn101 1.920 . S
O107 C120 1.234 . S
C108 O113 1.167 . S
C108 O114 1.299 . S
O109 Zn103 2.114 . S
O109 C104 1.166 . S
O110 Zn102 1.905 . S
O110 C104 1.182 . S
O111 Zn102 1.898 . S
O111 C105 1.167 . S
O112 Zn103 2.120 . S
O112 C105 1.299 . S
O113 Zn101 1.898 . S
O113 C108 1.167 . S
O114 Zn103 2.120 . S
O114 C108 1.299 . S
O115 Zn103 2.114 . S
O115 C117 1.166 . S
O116 Zn101 1.905 . S
O116 C117 1.182 . S
C117 O115 1.166 . S
C117 O116 1.182 . S
O118 Zn103 2.080 . S
O118 C121 1.305 . S
O119 Zn102 1.920 . S
O119 C121 1.234 . S
C120 O106 1.305 . S
C120 O107 1.234 . S
C121 O118 1.305 . S
C121 O119 1.234 . S
C122 C123 1.387 . S
C122 H126 0.950 . S
C122 C131 1.390 . S
C123 C122 1.387 . S
C123 C125 1.387 . S
H124 C131 0.950 . S
C125 C123 1.387 . S
C125 C127 1.390 . S
C125 H129 0.950 . S
H126 C122 0.950 . S
C127 C125 1.390 . S
C127 C128 1.387 . S
C127 H130 0.950 . S
C128 C127 1.387 . S
C128 C131 1.387 . S
H129 C125 0.950 . S
H130 C127 0.950 . S
C131 C122 1.390 . S
C131 H124 0.950 . S
C131 C128 1.387 . S
C132 C133 1.387 . S
C132 H136 0.950 . S
C132 C141 1.390 . S
C133 C132 1.387 . S
C133 C135 1.387 . S
H134 C141 0.950 . S
C135 C133 1.387 . S
C135 C137 1.390 . S
C135 H139 0.950 . S
H136 C132 0.950 . S
C137 C135 1.390 . S
C137 C138 1.387 . S
C137 H140 0.950 . S
C138 C137 1.387 . S
C138 C141 1.387 . S
H139 C135 0.950 . S
H140 C137 0.950 . S
C141 C132 1.390 . S
C141 H134 0.950 . S
C141 C138 1.387 . S
C142 C143 1.387 . S
C142 H146 0.950 . S
C142 C151 1.390 . S
C143 C142 1.387 . S
C143 C145 1.387 . S
H144 C151 0.950 . S
C145 C143 1.387 . S
C145 C147 1.390 . S
C145 H149 0.950 . S
H146 C142 0.950 . S
C147 C145 1.390 . S
C147 C148 1.387 . S
C147 H150 0.950 . S
C148 C147 1.387 . S
C148 C151 1.387 . S
H149 C145 0.950 . S
H150 C147 0.950 . S
C151 C142 1.390 . S
C151 H144 0.950 . S
C151 C148 1.387 . S
C152 C153 1.387 . S
C152 H156 0.950 . S
C152 C161 1.390 . S
C153 C152 1.387 . S
C153 C155 1.387 . S
H154 C161 0.950 . S
C155 C153 1.387 . S
C155 C157 1.390 . S
C155 H159 0.950 . S
H156 C152 0.950 . S
C157 C155 1.390 . S
C157 C158 1.387 . S
C157 H160 0.950 . S
C158 C157 1.387 . S
C158 C161 1.387 . S
H159 C155 0.950 . S
H160 C157 0.950 . S
C161 C152 1.390 . S
C161 H154 0.950 . S
C161 C158 1.387 . S
C162 C163 1.387 . S
C162 H166 0.950 1_565 S
C162 C171 1.390 . S
C163 C162 1.387 . S
C163 C165 1.387 . S
H164 C171 0.950 1_545 S
C165 C163 1.387 . S
C165 C167 1.390 . S
C165 H169 0.950 . S
H166 C162 0.950 1_545 S
C167 C165 1.390 . S
C167 C168 1.387 . S
C167 H170 0.950 . S
C168 C167 1.387 . S
C168 C171 1.387 . S
H169 C165 0.950 . S
H170 C167 0.950 . S
C171 C162 1.390 . S
C171 H164 0.950 1_565 S
C171 C168 1.387 . S
C172 C173 1.387 . S
C172 H176 0.950 . S
C172 C181 1.390 . S
C173 C172 1.387 . S
C173 C175 1.387 . S
H174 C181 0.950 . S
C175 C173 1.387 . S
C175 C177 1.390 . S
C175 H179 0.950 . S
H176 C172 0.950 . S
C177 C175 1.390 . S
C177 C178 1.387 . S
C177 H180 0.950 . S
C178 C177 1.387 . S
C178 C181 1.387 . S
H179 C175 0.950 . S
H180 C177 0.950 . S
C181 C172 1.390 . S
C181 H174 0.950 . S
C181 C178 1.387 . S
C182 C183 1.387 . S
C182 H186 0.950 . S
C182 C191 1.390 . S
C183 C182 1.387 . S
C183 C185 1.387 . S
H184 C191 0.950 . S
C185 C183 1.387 . S
C185 C187 1.390 . S
C185 H189 0.950 . S
H186 C182 0.950 . S
C187 C185 1.390 . S
C187 C188 1.387 . S
C187 H190 0.950 . S
C188 C187 1.387 . S
C188 C191 1.387 . S
H189 C185 0.950 . S
H190 C187 0.950 . S
C191 C182 1.390 . S
C191 H184 0.950 . S
C191 C188 1.387 . S
C192 C193 1.387 . S
C192 H196 0.950 . S
C192 C201 1.390 . S
C193 C192 1.387 . S
C193 C195 1.387 . S
H194 C201 0.950 . S
C195 C193 1.387 . S
C195 C197 1.390 . S
C195 H199 0.950 . S
H196 C192 0.950 . S
C197 C195 1.390 . S
C197 C198 1.387 . S
C197 H200 0.950 . S
C198 C197 1.387 . S
C198 C201 1.387 . S
H199 C195 0.950 . S
H200 C197 0.950 . S
C201 C192 1.390 . S
C201 H194 0.950 . S
C201 C198 1.387 . S
C202 C203 1.387 . S
C202 H206 0.950 . S
C202 C211 1.390 . S
C203 C202 1.387 . S
C203 C205 1.387 . S
H204 C211 0.950 . S
C205 C203 1.387 . S
C205 C207 1.390 . S
C205 H209 0.950 . S
H206 C202 0.950 . S
C207 C205 1.390 . S
C207 C208 1.387 . S
C207 H210 0.950 . S
C208 C207 1.387 . S
C208 C211 1.387 . S
H209 C205 0.950 . S
H210 C207 0.950 . S
C211 C202 1.390 . S
C211 H204 0.950 . S
C211 C208 1.387 . S
C212 C213 1.387 . S
C212 H216 0.950 . S
C212 C221 1.390 . S
C213 C212 1.387 . S
C213 C215 1.387 . S
H214 C221 0.950 . S
C215 C213 1.387 . S
C215 C217 1.390 . S
C215 H219 0.950 . S
H216 C212 0.950 . S
C217 C215 1.390 . S
C217 C218 1.387 . S
C217 H220 0.950 . S
C218 C217 1.387 . S
C218 C221 1.387 . S
H219 C215 0.950 . S
H220 C217 0.950 . S
C221 C212 1.390 . S
C221 H214 0.950 . S
C221 C218 1.387 . S
C222 C223 1.387 . S
C222 H226 0.950 . S
C222 C231 1.390 . S
C223 C222 1.387 . S
C223 C225 1.387 . S
H224 C231 0.950 . S
C225 C223 1.387 . S
C225 C227 1.390 . S
C225 H229 0.950 . S
H226 C222 0.950 . S
C227 C225 1.390 . S
C227 C228 1.387 . S
C227 H230 0.950 . S
C228 C227 1.387 . S
C228 C231 1.387 . S
H229 C225 0.950 . S
H230 C227 0.950 . S
C231 C222 1.390 . S
C231 H224 0.950 . S
C231 C228 1.387 . S
C232 C233 1.387 . S
C232 H236 0.950 . S
C232 C241 1.390 . S
C233 C232 1.387 . S
C233 C235 1.387 . S
H234 C241 0.950 . S
C235 C233 1.387 . S
C235 C237 1.390 . S
C235 H239 0.950 . S
H236 C232 0.950 . S
C237 C235 1.390 . S
C237 C238 1.387 . S
C237 H240 0.950 . S
C238 C237 1.387 . S
C238 C241 1.387 . S
H239 C235 0.950 . S
H240 C237 0.950 . S
C241 C232 1.390 . S
C241 H234 0.950 . S
C241 C238 1.387 . S
C123 C19 1.890 . S
C128 C99 1.909 . S
C133 C59 1.294 . S
C138 C105 1.228 . S
C143 C6 1.105 . S
C148 C96 0.970 . S
C153 C46 1.649 . S
C158 C121 1.476 . S
C163 C9 2.162 . S
C168 C87 2.063 . S
C178 C104 2.324 . S
C173 C49 2.368 . S
C183 C55 1.419 . S
C188 C100 1.328 . S
C198 C117 1.739 . S
C193 C18 1.777 . S
C208 C84 2.106 . S
C203 C58 2.173 . S
C218 C120 2.196 . S
C213 C10 2.154 . S
C228 C83 1.572 . S
C223 C50 1.621 . S
C238 C108 0.930 . S
C233 C15 1.068 . S
