# Generated by pormake.
# Topology bcu-b, (8,8)-cn, num edge types: 1
# Building blocks:
#     Node 0, Type 0, BuildingBlock: TAGTUT_clean_sbu_1, # of connection points: 8
#     Node 1, Type 1, BuildingBlock: VETTIZ_charged_sbu_0, # of connection points: 8
#     Edge 2, Type (0, 1), BuildingBlock: KIFKEQ_clean_linker_1, # of connection points: 2
#     Edge 3, Type (0, 1), BuildingBlock: KIFKEQ_clean_linker_1, # of connection points: 2
#     Edge 4, Type (0, 1), BuildingBlock: KIFKEQ_clean_linker_1, # of connection points: 2
#     Edge 5, Type (0, 1), BuildingBlock: KIFKEQ_clean_linker_1, # of connection points: 2
#     Edge 6, Type (0, 1), BuildingBlock: KIFKEQ_clean_linker_1, # of connection points: 2
#     Edge 7, Type (0, 1), BuildingBlock: KIFKEQ_clean_linker_1, # of connection points: 2
#     Edge 8, Type (0, 1), BuildingBlock: KIFKEQ_clean_linker_1, # of connection points: 2
#     Edge 9, Type (0, 1), BuildingBlock: KIFKEQ_clean_linker_1, # of connection points: 2
# Relax obj value: 0.028
# Max RMSD: 0.120
# Mean RMSD: 0.087
data_MOF--net-bcu-b--node1-TAGTUT_clean_sbu_1--node2-VETTIZ_charged_sbu_0--edge1-KIFKEQ_clean_linker_1
_symmetry_space_group_name_H-M    P1
_symmetry_Int_Tables_number       1
_symmetry_cell_setting            triclinic
loop_
_symmetry_equiv_pos_as_xyz
'x, y, z'
_cell_length_a     20.536511
_cell_length_b     19.242209
_cell_length_c     20.65309
_cell_angle_alpha  90.751508
_cell_angle_beta   91.50225
_cell_angle_gamma 99.392499
loop_
_atom_site_label
_atom_site_type_symbol
_atom_site_fract_x
_atom_site_fract_y
_atom_site_fract_z
_atom_type_partial_charge
C0 C 0.83241 0.16846 0.08769 0.0
C1 C 0.89573 0.15866 0.89058 0.0
C2 C 0.89541 0.88255 0.93144 0.0
Mg3 Mg 0.96761 0.1703 0.02275 0.0
O4 O 0.94426 0.07316 0.03581 0.0
Mg5 Mg 0.85702 0.0263 0.99802 0.0
Mg6 Mg 1.0018 1.00969 0.99906 0.0
O7 O 0.05985 0.94648 0.96237 0.0
Mg8 Mg 0.03778 0.84953 0.97599 0.0
Mg9 Mg 0.14703 0.99403 0.99996 0.0
C10 C 0.10884 0.13589 0.06746 0.0
C11 C 0.09506 0.09569 0.89194 0.0
O12 O 0.81149 0.10771 0.061 0.0
O13 O 0.89133 0.20124 0.0806 0.0
O14 O 0.86099 0.10238 0.91136 0.0
O15 O 0.94454 0.19183 0.9238 0.0
O16 O 0.07046 0.1814 0.05707 0.0
O17 O 0.09025 0.06957 0.05643 0.0
C18 C 0.90824 0.92427 0.10621 0.0
O19 O 0.96622 0.93548 0.08268 0.0
O20 O 0.86062 0.95302 0.08338 0.0
O21 O 0.19328 0.91347 0.93728 0.0
O22 O 0.11426 0.81911 0.91816 0.0
O23 O 0.14452 0.91854 0.08641 0.0
C24 C 0.17293 0.85246 0.91097 0.0
O25 O 0.06146 0.82854 0.07497 0.0
O26 O 0.93505 0.8383 0.94201 0.0
C27 C 0.11047 0.86216 0.1076 0.0
O28 O 0.91311 0.94924 0.94192 0.0
O29 O 0.03712 0.08401 0.91546 0.0
O30 O 0.1429 0.06728 0.9147 0.0
Fe31 Fe 0.52172 0.66879 0.46064 0.0
O32 O 0.50559 0.56526 0.45895 0.0
Fe33 Fe 0.57736 0.51468 0.50413 0.0
Fe34 Fe 0.42602 0.50742 0.49607 0.0
O35 O 0.51205 0.56566 0.45957 0.0
O36 O 0.49755 0.45596 0.53967 0.0
O37 O 0.49138 0.45534 0.5387 0.0
Fe38 Fe 0.4828 0.35253 0.53787 0.0
C39 C 0.43211 0.6387 0.57738 0.0
O40 O 0.44214 0.65419 0.39586 0.0
O41 O 0.3675 0.57046 0.44632 0.0
O42 O 0.55471 0.34444 0.47115 0.0
O43 O 0.57444 0.44916 0.42448 0.0
O44 O 0.65271 0.58297 0.45833 0.0
O45 O 0.5967 0.65701 0.3988 0.0
O46 O 0.41749 0.44218 0.41581 0.0
O47 O 0.41374 0.33771 0.46252 0.0
C48 C 0.64814 0.62764 0.41201 0.0
O49 O 0.5588 0.3697 0.60592 0.0
O50 O 0.63553 0.45244 0.55703 0.0
O51 O 0.45316 0.67787 0.53054 0.0
O52 O 0.43153 0.5725 0.57618 0.0
C53 C 0.3829 0.62091 0.40527 0.0
C54 C 0.40483 0.37521 0.41373 0.0
C55 C 0.35452 0.39272 0.58585 0.0
O56 O 0.35061 0.43978 0.54173 0.0
O57 O 0.40541 0.36216 0.59759 0.0
C58 C 0.57535 0.38325 0.42398 0.0
O59 O 0.58298 0.58111 0.58412 0.0
O60 O 0.59458 0.68265 0.53229 0.0
C61 C 0.61841 0.40352 0.59954 0.0
C62 C 0.59936 0.64781 0.58359 0.0
H63 H 0.19113 0.25916 0.04943 0.0
H64 H 0.16776 0.07109 0.16363 0.0
H65 H 0.2784 0.31524 0.12406 0.0
H66 H 0.25181 0.12816 0.24084 0.0
H67 H 0.41144 0.24147 0.37222 0.0
H68 H 0.35737 0.17962 0.27656 0.0
H69 H 0.27538 0.36582 0.22615 0.0
H70 H 0.3322 0.42809 0.31961 0.0
C71 C 0.20578 0.22941 0.08996 0.0
C72 C 0.17245 0.16121 0.10129 0.0
C73 C 0.25513 0.26178 0.13329 0.0
C74 C 0.2709 0.22733 0.18988 0.0
C75 C 0.24141 0.15661 0.19793 0.0
C76 C 0.19306 0.12363 0.15363 0.0
C77 C 0.38226 0.26916 0.34017 0.0
C78 C 0.37541 0.33934 0.35368 0.0
C79 C 0.35111 0.23368 0.28538 0.0
C80 C 0.31148 0.26724 0.2434 0.0
C81 C 0.30641 0.33829 0.25626 0.0
C82 C 0.33851 0.37406 0.31035 0.0
H83 H 0.70785 0.1126 0.12631 0.0
H84 H 0.85717 0.29865 0.14607 0.0
H85 H 0.63904 0.16488 0.20168 0.0
H86 H 0.78928 0.34977 0.22186 0.0
H87 H 0.63311 0.44964 0.31832 0.0
H88 H 0.68809 0.39808 0.23106 0.0
H89 H 0.64126 0.19333 0.31739 0.0
H90 H 0.58499 0.24438 0.4039 0.0
C91 C 0.7259 0.16469 0.14633 0.0
C92 C 0.78825 0.20118 0.13022 0.0
C93 C 0.6866 0.19447 0.18981 0.0
C94 C 0.70868 0.26148 0.21789 0.0
C95 C 0.77029 0.29852 0.20051 0.0
C96 C 0.80951 0.26882 0.15729 0.0
C97 C 0.63395 0.3935 0.31847 0.0
C98 C 0.60511 0.35132 0.3686 0.0
C99 C 0.66578 0.364 0.26854 0.0
C100 C 0.66952 0.29166 0.26747 0.0
C101 C 0.63878 0.2491 0.31637 0.0
C102 C 0.60695 0.27856 0.36633 0.0
H103 H 0.9266 0.78731 0.11357 0.0
H104 H 0.85504 0.95287 0.21943 0.0
H105 H 0.88048 0.7019 0.19486 0.0
H106 H 0.81132 0.86875 0.30139 0.0
H107 H 0.66307 0.60574 0.28406 0.0
H108 H 0.74782 0.67031 0.21624 0.0
H109 H 0.84609 0.77482 0.38669 0.0
H110 H 0.76209 0.70837 0.45469 0.0
C111 C 0.90321 0.80569 0.15547 0.0
C112 C 0.89419 0.87629 0.1607 0.0
C113 C 0.87676 0.75702 0.20164 0.0
C114 C 0.84274 0.779 0.25439 0.0
C115 C 0.83809 0.85066 0.26168 0.0
C116 C 0.86279 0.89866 0.21479 0.0
C117 C 0.70437 0.64038 0.307 0.0
C118 C 0.70675 0.65209 0.37424 0.0
C119 C 0.75286 0.67709 0.26839 0.0
C120 C 0.80337 0.7274 0.29639 0.0
C121 C 0.80783 0.73594 0.36415 0.0
C122 C 0.7601 0.69794 0.40292 0.0
H123 H 0.0632 0.73364 0.15979 0.0
H124 H 0.21444 0.91693 0.1876 0.0
H125 H 0.11785 0.67214 0.24252 0.0
H126 H 0.26963 0.85525 0.26804 0.0
H127 H 0.35052 0.74771 0.42996 0.0
H128 H 0.27049 0.80571 0.37136 0.0
H129 H 0.21711 0.6202 0.24854 0.0
H130 H 0.29545 0.56122 0.31015 0.0
C131 C 0.1074 0.76129 0.18425 0.0
C132 C 0.13489 0.82998 0.16638 0.0
C133 C 0.13905 0.72575 0.23124 0.0
C134 C 0.19865 0.75824 0.26146 0.0
C135 C 0.22353 0.82853 0.24645 0.0
C136 C 0.19194 0.864 0.19981 0.0
C137 C 0.32066 0.71918 0.39107 0.0
C138 C 0.32908 0.65062 0.37381 0.0
C139 C 0.27513 0.75237 0.35727 0.0
C140 C 0.23805 0.71822 0.30442 0.0
C141 C 0.24436 0.64795 0.28929 0.0
C142 C 0.28938 0.61421 0.32408 0.0
H143 H 0.2975 0.9092 0.87341 0.0
H144 H 0.14962 0.72191 0.85327 0.0
H145 H 0.36769 0.85714 0.79938 0.0
H146 H 0.21898 0.67097 0.77881 0.0
H147 H 0.37676 0.5726 0.68423 0.0
H148 H 0.32156 0.62404 0.77142 0.0
H149 H 0.36555 0.82824 0.68353 0.0
H150 H 0.42189 0.77739 0.59705 0.0
C151 C 0.28006 0.85689 0.85357 0.0
C152 C 0.2177 0.81997 0.86912 0.0
C153 C 0.32017 0.82723 0.81093 0.0
C154 C 0.29889 0.75996 0.78316 0.0
C155 C 0.2373 0.72246 0.8 0.0
C156 C 0.19724 0.75205 0.8424 0.0
C157 C 0.37532 0.62863 0.68377 0.0
C158 C 0.40325 0.6707 0.63319 0.0
C159 C 0.3434 0.65802 0.73365 0.0
C160 C 0.33872 0.73012 0.73413 0.0
C161 C 0.36881 0.77266 0.68493 0.0
C162 C 0.40072 0.74331 0.63504 0.0
H163 H 0.146 0.06694 0.77762 0.0
H164 H 0.07854 0.23325 0.88607 0.0
H165 H 0.18974 0.1512 0.69578 0.0
H166 H 0.12455 0.31873 0.80485 0.0
H167 H 0.34009 0.4145 0.71386 0.0
H168 H 0.25564 0.34987 0.78195 0.0
H169 H 0.15666 0.24554 0.61172 0.0
H170 H 0.24047 0.31192 0.5435 0.0
C171 C 0.1391 0.12136 0.78284 0.0
C172 C 0.10883 0.14388 0.83759 0.0
C173 C 0.16381 0.16947 0.73602 0.0
C174 C 0.16032 0.24134 0.74405 0.0
C175 C 0.1274 0.26348 0.7975 0.0
C176 C 0.10097 0.21476 0.84363 0.0
C177 C 0.2987 0.37986 0.69103 0.0
C178 C 0.29608 0.36818 0.6238 0.0
C179 C 0.25039 0.34311 0.7298 0.0
C180 C 0.19975 0.29283 0.70194 0.0
C181 C 0.19505 0.28433 0.63418 0.0
C182 C 0.24267 0.3223 0.59527 0.0
H183 H 0.79431 0.10411 0.8073 0.0
H184 H 0.94169 0.28958 0.84221 0.0
H185 H 0.7365 0.16925 0.73081 0.0
H186 H 0.88301 0.35468 0.7652 0.0
H187 H 0.75289 0.41792 0.58107 0.0
H188 H 0.83208 0.35829 0.64172 0.0
H189 H 0.67816 0.27298 0.77042 0.0
H190 H 0.60023 0.33227 0.71175 0.0
C191 C 0.81538 0.1582 0.79758 0.0
C192 C 0.87176 0.19204 0.83221 0.0
C193 C 0.7821 0.19552 0.75383 0.0
C194 C 0.80459 0.26732 0.74341 0.0
C195 C 0.86457 0.29944 0.77273 0.0
C196 C 0.89798 0.26205 0.81687 0.0
C197 C 0.73648 0.38753 0.62309 0.0
C198 C 0.66995 0.37896 0.64089 0.0
C199 C 0.78163 0.35318 0.65741 0.0
C200 C 0.76052 0.30956 0.70945 0.0
C201 C 0.69522 0.30467 0.72932 0.0
C202 C 0.65066 0.33904 0.69574 0.0
H203 H 0.81331 0.95407 0.86023 0.0
H204 H 0.83298 0.74688 0.928 0.0
H205 H 0.72493 0.90118 0.78461 0.0
H206 H 0.7481 0.69416 0.85113 0.0
H207 H 0.5901 0.60514 0.70967 0.0
H208 H 0.64182 0.66835 0.80593 0.0
H209 H 0.72798 0.83986 0.68585 0.0
H210 H 0.67404 0.77839 0.59098 0.0
C211 C 0.79773 0.8975 0.86015 0.0
C212 C 0.83116 0.85458 0.89903 0.0
C213 C 0.74765 0.86698 0.81622 0.0
C214 C 0.7304 0.79308 0.81026 0.0
C215 C 0.75954 0.75107 0.85395 0.0
C216 C 0.80895 0.78146 0.89793 0.0
C217 C 0.61978 0.65657 0.70415 0.0
C218 C 0.62873 0.68627 0.64264 0.0
C219 C 0.64943 0.69294 0.75929 0.0
C220 C 0.68959 0.75932 0.75398 0.0
C221 C 0.69657 0.78968 0.69246 0.0
C222 C 0.6662 0.75387 0.63767 0.0
loop_
_geom_bond_atom_site_label_1
_geom_bond_atom_site_label_2
_geom_bond_distance
_geom_bond_site_symmetry_2
_ccdc_geom_bond_type
C0 O12 1.241 . S
C0 O13 1.280 . S
C1 O14 1.277 . S
C1 O15 1.245 . S
C2 O26 1.247 . S
C2 O28 1.289 . S
Mg3 O4 1.926 . S
Mg3 O13 1.984 . S
Mg3 O15 1.988 1_554 S
Mg3 O16 2.061 1_655 S
O4 Mg3 1.926 . S
O4 Mg5 1.986 . S
O4 Mg6 1.917 1_655 S
Mg5 O4 1.986 . S
Mg5 O12 2.042 . S
Mg5 O14 2.041 1_554 S
Mg5 O20 2.038 1_545 S
Mg5 O28 2.238 1_544 S
Mg6 O4 1.917 1_455 S
Mg6 O7 1.917 1_544 S
Mg6 O17 2.106 . S
Mg6 O19 2.079 1_445 S
Mg6 O28 2.106 1_444 S
Mg6 O29 2.079 1_554 S
O7 Mg6 1.917 1_566 S
O7 Mg8 1.926 . S
O7 Mg9 1.986 1_556 S
Mg8 O7 1.926 . S
Mg8 O22 1.984 . S
Mg8 O25 1.988 1_556 S
Mg8 O26 2.061 1_455 S
Mg9 O7 1.986 1_554 S
Mg9 O17 2.238 1_565 S
Mg9 O21 2.042 1_554 S
Mg9 O23 2.041 . S
Mg9 O30 2.038 1_564 S
C10 O16 1.247 . S
C10 O17 1.289 . S
C11 O29 1.245 . S
C11 O30 1.274 . S
O12 C0 1.241 . S
O12 Mg5 2.042 . S
O13 C0 1.280 . S
O13 Mg3 1.984 . S
O14 C1 1.277 . S
O14 Mg5 2.041 1_556 S
O15 C1 1.245 . S
O15 Mg3 1.988 1_556 S
O16 Mg3 2.061 1_455 S
O16 C10 1.247 . S
O17 Mg6 2.106 . S
O17 Mg9 2.238 1_545 S
O17 C10 1.289 . S
C18 O19 1.245 . S
C18 O20 1.274 . S
O19 Mg6 2.079 1_665 S
O19 C18 1.245 . S
O20 Mg5 2.038 1_565 S
O20 C18 1.274 . S
O21 Mg9 2.042 1_556 S
O21 C24 1.241 . S
O22 Mg8 1.984 . S
O22 C24 1.280 . S
O23 Mg9 2.041 . S
O23 C27 1.277 . S
C24 O21 1.241 . S
C24 O22 1.280 . S
O25 Mg8 1.988 1_554 S
O25 C27 1.245 . S
O26 C2 1.247 . S
O26 Mg8 2.061 1_655 S
C27 O23 1.277 . S
C27 O25 1.245 . S
O28 C2 1.289 . S
O28 Mg5 2.238 1_566 S
O28 Mg6 2.106 1_666 S
O29 Mg6 2.079 1_556 S
O29 C11 1.245 . S
O30 Mg9 2.038 1_546 S
O30 C11 1.274 . S
Fe31 O32 1.886 . S
Fe31 O35 1.715 . S
Fe31 O40 2.077 . S
Fe31 O45 1.935 . S
Fe31 O51 2.077 . S
Fe31 O60 1.935 . S
O32 Fe31 1.886 . S
O32 Fe34 1.715 . S
Fe33 O35 1.886 . S
Fe33 O36 1.715 . S
Fe33 O43 1.935 . S
Fe33 O44 2.077 . S
Fe33 O50 1.935 . S
Fe33 O59 2.077 . S
Fe34 O32 1.715 . S
Fe34 O37 1.886 . S
Fe34 O41 1.935 . S
Fe34 O46 2.077 . S
Fe34 O52 1.935 . S
Fe34 O56 2.077 . S
O35 Fe31 1.715 . S
O35 Fe33 1.886 . S
O36 Fe33 1.715 . S
O36 Fe38 1.886 . S
O37 Fe34 1.886 . S
O37 Fe38 1.715 . S
Fe38 O36 1.886 . S
Fe38 O37 1.715 . S
Fe38 O42 2.077 . S
Fe38 O47 1.935 . S
Fe38 O49 2.077 . S
Fe38 O57 1.935 . S
C39 O51 1.381 . S
C39 O52 1.421 . S
O40 Fe31 2.077 . S
O40 C53 1.381 . S
O41 Fe34 1.935 . S
O41 C53 1.421 . S
O42 Fe38 2.077 . S
O42 C58 1.381 . S
O43 Fe33 1.935 . S
O43 C58 1.421 . S
O44 Fe33 2.077 . S
O44 C48 1.381 . S
O45 Fe31 1.935 . S
O45 C48 1.421 . S
O46 Fe34 2.077 . S
O46 C54 1.381 . S
O47 Fe38 1.935 . S
O47 C54 1.421 . S
C48 O44 1.381 . S
C48 O45 1.421 . S
O49 Fe38 2.077 . S
O49 C61 1.381 . S
O50 Fe33 1.935 . S
O50 C61 1.421 . S
O51 Fe31 2.077 . S
O51 C39 1.381 . S
O52 Fe34 1.935 . S
O52 C39 1.421 . S
C53 O40 1.381 . S
C53 O41 1.421 . S
C54 O46 1.381 . S
C54 O47 1.421 . S
C55 O56 1.381 . S
C55 O57 1.421 . S
O56 Fe34 2.077 . S
O56 C55 1.381 . S
O57 Fe38 1.935 . S
O57 C55 1.421 . S
C58 O42 1.381 . S
C58 O43 1.421 . S
O59 Fe33 2.077 . S
O59 C62 1.381 . S
O60 Fe31 1.935 . S
O60 C62 1.421 . S
C61 O49 1.381 . S
C61 O50 1.421 . S
C62 O59 1.381 . S
C62 O60 1.421 . S
H63 C71 0.950 . S
H64 C76 0.950 . S
H65 C73 0.950 . S
H66 C75 0.950 . S
H67 C77 0.950 . S
H68 C79 0.950 . S
H69 C81 0.950 . S
H70 C82 0.950 . S
C71 H63 0.950 . S
C71 C72 1.386 . S
C71 C73 1.391 . S
C72 C71 1.386 . S
C72 C76 1.393 . S
C73 H65 0.950 . S
C73 C71 1.391 . S
C73 C74 1.400 . S
C74 C73 1.400 . S
C74 C75 1.398 . S
C74 C80 1.491 . S
C75 H66 0.950 . S
C75 C74 1.398 . S
C75 C76 1.391 . S
C76 H64 0.950 . S
C76 C72 1.393 . S
C76 C75 1.391 . S
C77 H67 0.950 . S
C77 C78 1.386 . S
C77 C79 1.391 . S
C78 C77 1.386 . S
C78 C82 1.393 . S
C79 H68 0.950 . S
C79 C77 1.391 . S
C79 C80 1.400 . S
C80 C74 1.491 . S
C80 C79 1.400 . S
C80 C81 1.398 . S
C81 H69 0.950 . S
C81 C80 1.398 . S
C81 C82 1.391 . S
C82 H70 0.950 . S
C82 C78 1.393 . S
C82 C81 1.391 . S
H83 C91 0.950 . S
H84 C96 0.950 . S
H85 C93 0.950 . S
H86 C95 0.950 . S
H87 C97 0.950 . S
H88 C99 0.950 . S
H89 C101 0.950 . S
H90 C102 0.950 . S
C91 H83 0.950 . S
C91 C92 1.386 . S
C91 C93 1.391 . S
C92 C91 1.386 . S
C92 C96 1.393 . S
C93 H85 0.950 . S
C93 C91 1.391 . S
C93 C94 1.400 . S
C94 C93 1.400 . S
C94 C95 1.398 . S
C94 C100 1.491 . S
C95 H86 0.950 . S
C95 C94 1.398 . S
C95 C96 1.391 . S
C96 H84 0.950 . S
C96 C92 1.393 . S
C96 C95 1.391 . S
C97 H87 0.950 . S
C97 C98 1.386 . S
C97 C99 1.391 . S
C98 C97 1.386 . S
C98 C102 1.393 . S
C99 H88 0.950 . S
C99 C97 1.391 . S
C99 C100 1.400 . S
C100 C94 1.491 . S
C100 C99 1.400 . S
C100 C101 1.398 . S
C101 H89 0.950 . S
C101 C100 1.398 . S
C101 C102 1.391 . S
C102 H90 0.950 . S
C102 C98 1.393 . S
C102 C101 1.391 . S
H103 C111 0.950 . S
H104 C116 0.950 . S
H105 C113 0.950 . S
H106 C115 0.950 . S
H107 C117 0.950 . S
H108 C119 0.950 . S
H109 C121 0.950 . S
H110 C122 0.950 . S
C111 H103 0.950 . S
C111 C112 1.386 . S
C111 C113 1.391 . S
C112 C111 1.386 . S
C112 C116 1.393 . S
C113 H105 0.950 . S
C113 C111 1.391 . S
C113 C114 1.400 . S
C114 C113 1.400 . S
C114 C115 1.398 . S
C114 C120 1.491 . S
C115 H106 0.950 . S
C115 C114 1.398 . S
C115 C116 1.391 . S
C116 H104 0.950 . S
C116 C112 1.393 . S
C116 C115 1.391 . S
C117 H107 0.950 . S
C117 C118 1.386 . S
C117 C119 1.391 . S
C118 C117 1.386 . S
C118 C122 1.393 . S
C119 H108 0.950 . S
C119 C117 1.391 . S
C119 C120 1.400 . S
C120 C114 1.491 . S
C120 C119 1.400 . S
C120 C121 1.398 . S
C121 H109 0.950 . S
C121 C120 1.398 . S
C121 C122 1.391 . S
C122 H110 0.950 . S
C122 C118 1.393 . S
C122 C121 1.391 . S
H123 C131 0.950 . S
H124 C136 0.950 . S
H125 C133 0.950 . S
H126 C135 0.950 . S
H127 C137 0.950 . S
H128 C139 0.950 . S
H129 C141 0.950 . S
H130 C142 0.950 . S
C131 H123 0.950 . S
C131 C132 1.386 . S
C131 C133 1.391 . S
C132 C131 1.386 . S
C132 C136 1.393 . S
C133 H125 0.950 . S
C133 C131 1.391 . S
C133 C134 1.400 . S
C134 C133 1.400 . S
C134 C135 1.398 . S
C134 C140 1.491 . S
C135 H126 0.950 . S
C135 C134 1.398 . S
C135 C136 1.391 . S
C136 H124 0.950 . S
C136 C132 1.393 . S
C136 C135 1.391 . S
C137 H127 0.950 . S
C137 C138 1.386 . S
C137 C139 1.391 . S
C138 C137 1.386 . S
C138 C142 1.393 . S
C139 H128 0.950 . S
C139 C137 1.391 . S
C139 C140 1.400 . S
C140 C134 1.491 . S
C140 C139 1.400 . S
C140 C141 1.398 . S
C141 H129 0.950 . S
C141 C140 1.398 . S
C141 C142 1.391 . S
C142 H130 0.950 . S
C142 C138 1.393 . S
C142 C141 1.391 . S
H143 C151 0.950 . S
H144 C156 0.950 . S
H145 C153 0.950 . S
H146 C155 0.950 . S
H147 C157 0.950 . S
H148 C159 0.950 . S
H149 C161 0.950 . S
H150 C162 0.950 . S
C151 H143 0.950 . S
C151 C152 1.386 . S
C151 C153 1.391 . S
C152 C151 1.386 . S
C152 C156 1.393 . S
C153 H145 0.950 . S
C153 C151 1.391 . S
C153 C154 1.400 . S
C154 C153 1.400 . S
C154 C155 1.398 . S
C154 C160 1.491 . S
C155 H146 0.950 . S
C155 C154 1.398 . S
C155 C156 1.391 . S
C156 H144 0.950 . S
C156 C152 1.393 . S
C156 C155 1.391 . S
C157 H147 0.950 . S
C157 C158 1.386 . S
C157 C159 1.391 . S
C158 C157 1.386 . S
C158 C162 1.393 . S
C159 H148 0.950 . S
C159 C157 1.391 . S
C159 C160 1.400 . S
C160 C154 1.491 . S
C160 C159 1.400 . S
C160 C161 1.398 . S
C161 H149 0.950 . S
C161 C160 1.398 . S
C161 C162 1.391 . S
C162 H150 0.950 . S
C162 C158 1.393 . S
C162 C161 1.391 . S
H163 C171 0.950 . S
H164 C176 0.950 . S
H165 C173 0.950 . S
H166 C175 0.950 . S
H167 C177 0.950 . S
H168 C179 0.950 . S
H169 C181 0.950 . S
H170 C182 0.950 . S
C171 H163 0.950 . S
C171 C172 1.386 . S
C171 C173 1.391 . S
C172 C171 1.386 . S
C172 C176 1.393 . S
C173 H165 0.950 . S
C173 C171 1.391 . S
C173 C174 1.400 . S
C174 C173 1.400 . S
C174 C175 1.398 . S
C174 C180 1.491 . S
C175 H166 0.950 . S
C175 C174 1.398 . S
C175 C176 1.391 . S
C176 H164 0.950 . S
C176 C172 1.393 . S
C176 C175 1.391 . S
C177 H167 0.950 . S
C177 C178 1.386 . S
C177 C179 1.391 . S
C178 C177 1.386 . S
C178 C182 1.393 . S
C179 H168 0.950 . S
C179 C177 1.391 . S
C179 C180 1.400 . S
C180 C174 1.491 . S
C180 C179 1.400 . S
C180 C181 1.398 . S
C181 H169 0.950 . S
C181 C180 1.398 . S
C181 C182 1.391 . S
C182 H170 0.950 . S
C182 C178 1.393 . S
C182 C181 1.391 . S
H183 C191 0.950 . S
H184 C196 0.950 . S
H185 C193 0.950 . S
H186 C195 0.950 . S
H187 C197 0.950 . S
H188 C199 0.950 . S
H189 C201 0.950 . S
H190 C202 0.950 . S
C191 H183 0.950 . S
C191 C192 1.386 . S
C191 C193 1.391 . S
C192 C191 1.386 . S
C192 C196 1.393 . S
C193 H185 0.950 . S
C193 C191 1.391 . S
C193 C194 1.400 . S
C194 C193 1.400 . S
C194 C195 1.398 . S
C194 C200 1.491 . S
C195 H186 0.950 . S
C195 C194 1.398 . S
C195 C196 1.391 . S
C196 H184 0.950 . S
C196 C192 1.393 . S
C196 C195 1.391 . S
C197 H187 0.950 . S
C197 C198 1.386 . S
C197 C199 1.391 . S
C198 C197 1.386 . S
C198 C202 1.393 . S
C199 H188 0.950 . S
C199 C197 1.391 . S
C199 C200 1.400 . S
C200 C194 1.491 . S
C200 C199 1.400 . S
C200 C201 1.398 . S
C201 H189 0.950 . S
C201 C200 1.398 . S
C201 C202 1.391 . S
C202 H190 0.950 . S
C202 C198 1.393 . S
C202 C201 1.391 . S
H203 C211 0.950 . S
H204 C216 0.950 . S
H205 C213 0.950 . S
H206 C215 0.950 . S
H207 C217 0.950 . S
H208 C219 0.950 . S
H209 C221 0.950 . S
H210 C222 0.950 . S
C211 H203 0.950 . S
C211 C212 1.386 . S
C211 C213 1.391 . S
C212 C211 1.386 . S
C212 C216 1.393 . S
C213 H205 0.950 . S
C213 C211 1.391 . S
C213 C214 1.400 . S
C214 C213 1.400 . S
C214 C215 1.398 . S
C214 C220 1.491 . S
C215 H206 0.950 . S
C215 C214 1.398 . S
C215 C216 1.391 . S
C216 H204 0.950 . S
C216 C212 1.393 . S
C216 C215 1.391 . S
C217 H207 0.950 . S
C217 C218 1.386 . S
C217 C219 1.391 . S
C218 C217 1.386 . S
C218 C222 1.393 . S
C219 H208 0.950 . S
C219 C217 1.391 . S
C219 C220 1.400 . S
C220 C214 1.491 . S
C220 C219 1.400 . S
C220 C221 1.398 . S
C221 H209 0.950 . S
C221 C220 1.398 . S
C221 C222 1.391 . S
C222 H210 0.950 . S
C222 C218 1.393 . S
C222 C221 1.391 . S
C72 C10 1.172 . S
C78 C54 1.190 . S
C92 C0 1.531 . S
C98 C58 1.535 . S
C112 C18 1.498 . S
C118 C48 1.527 . S
C132 C27 1.589 . S
C138 C53 1.575 . S
C152 C24 1.512 . S
C158 C39 1.516 . S
C178 C55 1.510 . S
C172 C11 1.491 . S
C192 C1 1.588 . S
C198 C61 1.577 . S
C218 C62 1.174 . S
C212 C2 1.157 . S
