# Generated by pormake.
# Topology tsx, (6,3)-cn, num edge types: 1
# Building blocks:
#     Node 0, Type 0, BuildingBlock: VOLQOD_clean_sbu_1, # of connection points: 6
#     Node 1, Type 0, BuildingBlock: VOLQOD_clean_sbu_1, # of connection points: 6
#     Node 2, Type 1, BuildingBlock: OLANEW_clean_sbu_2, # of connection points: 3
#     Node 3, Type 1, BuildingBlock: OLANEW_clean_sbu_2, # of connection points: 3
#     Node 4, Type 1, BuildingBlock: OLANEW_clean_sbu_2, # of connection points: 3
#     Node 5, Type 1, BuildingBlock: OLANEW_clean_sbu_2, # of connection points: 3
#     Edge 6, Type (0, 1), BuildingBlock: AJUNOK_clean_linker_0, # of connection points: 2
#     Edge 7, Type (0, 1), BuildingBlock: AJUNOK_clean_linker_0, # of connection points: 2
#     Edge 8, Type (0, 1), BuildingBlock: AJUNOK_clean_linker_0, # of connection points: 2
#     Edge 9, Type (0, 1), BuildingBlock: AJUNOK_clean_linker_0, # of connection points: 2
#     Edge 10, Type (0, 1), BuildingBlock: AJUNOK_clean_linker_0, # of connection points: 2
#     Edge 11, Type (0, 1), BuildingBlock: AJUNOK_clean_linker_0, # of connection points: 2
#     Edge 12, Type (0, 1), BuildingBlock: AJUNOK_clean_linker_0, # of connection points: 2
#     Edge 13, Type (0, 1), BuildingBlock: AJUNOK_clean_linker_0, # of connection points: 2
#     Edge 14, Type (0, 1), BuildingBlock: AJUNOK_clean_linker_0, # of connection points: 2
#     Edge 15, Type (0, 1), BuildingBlock: AJUNOK_clean_linker_0, # of connection points: 2
#     Edge 16, Type (0, 1), BuildingBlock: AJUNOK_clean_linker_0, # of connection points: 2
#     Edge 17, Type (0, 1), BuildingBlock: AJUNOK_clean_linker_0, # of connection points: 2
# Relax obj value: 0.029
# Max RMSD: 0.071
# Mean RMSD: 0.068
data_MOF--net-tsx--node1-VOLQOD_clean_sbu_1--node2-OLANEW_clean_sbu_2--edge1-AJUNOK_clean_linker_0
_symmetry_space_group_name_H-M    P1
_symmetry_Int_Tables_number       1
_symmetry_cell_setting            triclinic
loop_
_symmetry_equiv_pos_as_xyz
'x, y, z'
_cell_length_a     17.570017
_cell_length_b     18.077839
_cell_length_c     29.348357
_cell_angle_alpha  96.18147
_cell_angle_beta   89.966226
_cell_angle_gamma 90.063677
loop_
_atom_site_label
_atom_site_type_symbol
_atom_site_fract_x
_atom_site_fract_y
_atom_site_fract_z
_atom_type_partial_charge
O0 O 0.06773 0.0091 0.0982 0.0
Zn1 Zn 0.09 0.00211 0.03047 0.0
O2 O -0.00338 0.00785 0.9948 0.0
Zn3 Zn 0.98438 0.91614 0.95284 0.0
Zn4 Zn 0.90953 0.02008 0.03649 0.0
Zn5 Zn 0.00293 0.09375 0.95958 0.0
O6 O 0.98677 0.93826 0.88649 0.0
O7 O 0.00873 0.05988 0.89189 0.0
O8 O 0.14659 0.90638 0.01289 0.0
O9 O 0.07289 0.84699 0.95964 0.0
O10 O 0.88937 0.85843 0.96773 0.0
O11 O 0.84703 0.92686 0.03013 0.0
O12 O 0.84177 0.10629 0.0219 0.0
O13 O 0.16052 0.0861 0.02029 0.0
O14 O 0.90956 0.1582 0.9698 0.0
O15 O 0.09699 0.15597 0.9756 0.0
C16 C 0.00746 0.02134 0.12192 0.0
C17 C 0.00023 -0.00253 0.86778 0.0
C18 C 0.84347 0.86897 0.00147 0.0
C19 C 0.1326 0.84986 0.98436 0.0
C20 C 0.85032 0.15632 0.99472 0.0
C21 C 0.15581 0.14366 -0.00102 0.0
O22 O 0.94324 0.03048 0.10306 0.0
O23 O 0.5467 0.49876 0.60959 0.0
Zn24 Zn 0.57717 0.50449 0.54454 0.0
O25 O 0.48926 0.51254 0.50522 0.0
Zn26 Zn 0.48216 0.42152 0.46237 0.0
Zn27 Zn 0.39774 0.52507 0.54355 0.0
Zn28 Zn 0.50243 0.59951 0.47132 0.0
O29 O 0.48448 0.44724 0.39667 0.0
O30 O 0.5122 0.56788 0.4037 0.0
O31 O 0.64231 0.416 0.52364 0.0
O32 O 0.57414 0.3556 0.46809 0.0
O33 O 0.38675 0.36225 0.47457 0.0
O34 O 0.32916 0.43705 0.52901 0.0
O35 O 0.33713 0.61643 0.53001 0.0
O36 O 0.64241 0.59456 0.54531 0.0
O37 O 0.40973 0.66537 0.47899 0.0
O38 O 0.59522 0.66104 0.49258 0.0
C39 C 0.48498 0.51088 0.63177 0.0
C40 C 0.50055 0.50674 0.37883 0.0
C41 C 0.33111 0.37704 0.50203 0.0
C42 C 0.63354 0.3611 0.49316 0.0
C43 C 0.34898 0.66575 0.50277 0.0
C44 C 0.64421 0.65142 0.52338 0.0
O45 O 0.42335 0.52595 0.61164 0.0
O46 O 0.00205 0.97519 0.34223 0.0
Cd47 Cd 0.01193 0.97774 0.4264 0.0
O48 O 0.06093 0.08257 0.34168 0.0
Cd49 Cd 0.04054 0.11112 0.41479 0.0
O50 O 0.95125 0.17039 0.45564 0.0
C51 C 0.8841 0.15882 0.44037 0.0
O52 O 0.87438 0.10971 0.40443 0.0
C53 C 0.03127 0.02497 0.32003 0.0
C54 C 0.11901 0.87844 0.45671 0.0
O55 O 0.04888 0.85998 0.4513 0.0
O56 O 0.13869 0.94336 0.44723 0.0
O57 O 0.00477 0.04429 0.64991 0.0
Cd58 Cd 0.00356 0.04983 0.56642 0.0
O59 O 0.06315 0.93633 0.64483 0.0
Cd60 Cd 0.04595 0.91899 0.5708 0.0
O61 O 0.9477 0.86116 0.53862 0.0
C62 C 0.89654 0.85347 0.56837 0.0
O63 O 0.9077 0.88417 0.61046 0.0
C64 C 0.03434 0.99158 0.66932 0.0
C65 C 0.10422 0.15596 0.53805 0.0
O66 O 0.03603 0.17312 0.55055 0.0
O67 O 0.12498 0.08816 0.53891 0.0
O68 O 0.46578 0.44834 0.8491 0.0
Cd69 Cd 0.47708 0.43943 0.93216 0.0
O70 O 0.54051 0.54643 0.85202 0.0
Cd71 Cd 0.52312 0.57036 0.92568 0.0
O72 O 0.43422 0.6365 0.96256 0.0
C73 C 0.36756 0.62465 0.94655 0.0
O74 O 0.35814 0.5712 0.91298 0.0
C75 C 0.50223 0.496 0.8287 0.0
C76 C 0.60019 0.3523 0.95619 0.0
O77 O 0.53413 0.32371 0.94812 0.0
O78 O 0.60825 0.42188 0.95252 0.0
O79 O 0.51995 0.53943 0.15653 0.0
Cd80 Cd 0.5386 0.52815 0.07284 0.0
O81 O 0.55854 0.4245 0.15957 0.0
Cd82 Cd 0.55065 0.3945 0.0859 0.0
O83 O 0.47192 0.3244 0.04358 0.0
C84 C 0.40799 0.35004 0.03255 0.0
O85 O 0.39422 0.42133 0.04268 0.0
C86 C 0.53725 0.4866 0.18001 0.0
C87 C 0.63802 0.63595 0.04588 0.0
O88 O 0.56602 0.64281 0.04092 0.0
O89 O 0.66284 0.5784 0.06304 0.0
C90 C 0.29262 0.17241 0.01507 0.0
C91 C 0.22053 0.19676 0.00212 0.0
C92 C 0.35389 0.22171 0.02215 0.0
C93 C 0.34557 0.29786 0.01724 0.0
H94 H 0.30173 0.1148 0.02061 0.0
H95 H 0.40736 0.20015 0.03345 0.0
S96 S 0.17076 0.38897 0.97939 0.0
N97 N 0.14583 0.30118 0.98107 0.0
N98 N 0.26109 0.39429 0.99493 0.0
C99 C 0.27483 0.32251 0.00217 0.0
C100 C 0.21234 0.27191 0.99447 0.0
C101 C 0.26271 0.79846 0.99657 0.0
C102 C 0.18892 0.78815 0.97818 0.0
C103 C 0.31917 0.744 0.98785 0.0
C104 C 0.30428 0.67681 0.9604 0.0
H105 H 0.278 0.85006 0.01673 0.0
H106 H 0.37565 0.75595 0.00151 0.0
S107 S 0.11767 0.61789 0.90904 0.0
N108 N 0.1022 0.70228 0.93473 0.0
N109 N 0.20803 0.60004 0.91851 0.0
C110 C 0.22967 0.66404 0.9438 0.0
C111 C 0.17217 0.71962 0.95258 0.0
C112 C 0.73596 0.78001 0.98068 0.0
C113 C 0.79202 0.80858 0.01192 0.0
C114 C 0.68519 0.7245 0.99201 0.0
C115 C 0.69101 0.69438 0.03417 0.0
H116 H 0.73035 0.80173 0.94786 0.0
H117 H 0.64186 0.70435 0.96749 0.0
S118 S 0.82917 0.74976 0.12702 0.0
N119 N 0.85013 0.8033 0.08657 0.0
N120 N 0.75736 0.69697 0.10689 0.0
C121 C 0.74776 0.72171 0.06515 0.0
C122 C 0.79764 0.77941 0.05425 0.0
C123 C 0.71158 0.18928 0.99465 0.0
C124 C 0.78795 0.21014 0.98906 0.0
C125 C 0.65141 0.23587 0.98437 0.0
C126 C 0.66511 0.30578 0.96886 0.0
H127 H 0.69803 0.13537 0.00548 0.0
H128 H 0.59363 0.21654 0.9883 0.0
S129 S 0.85504 0.38926 0.95224 0.0
N130 N 0.87402 0.30717 0.9693 0.0
N131 N 0.76132 0.39515 0.95089 0.0
C132 C 0.74129 0.32857 0.96491 0.0
C133 C 0.80251 0.28066 0.97472 0.0
C134 C 0.74234 0.74155 0.50084 0.0
C135 C 0.70424 0.70734 0.53515 0.0
C136 C 0.8044 0.78934 0.51173 0.0
C137 C 0.82906 0.80571 0.55737 0.0
H138 H 0.72576 0.72937 0.46527 0.0
H139 H 0.83345 0.81327 0.48422 0.0
S140 S 0.74437 0.73345 0.65992 0.0
N141 N 0.6932 0.6951 0.61651 0.0
N142 N 0.80825 0.78553 0.63719 0.0
C143 C 0.78948 0.77356 0.59205 0.0
C144 C 0.72747 0.72419 0.58087 0.0
C145 C 0.68812 0.24744 0.44848 0.0
C146 C 0.69575 0.3054 0.48427 0.0
C147 C 0.74834 0.19876 0.43592 0.0
C148 C 0.81911 0.20582 0.45847 0.0
H149 H 0.63581 0.24057 0.42896 0.0
H150 H 0.73972 0.15663 0.40725 0.0
S151 S 0.86679 0.343 0.55778 0.0
N152 N 0.77842 0.36316 0.54467 0.0
N153 N 0.89148 0.27172 0.52084 0.0
C154 C 0.82662 0.2612 0.49576 0.0
C155 C 0.76508 0.31087 0.50869 0.0
C156 C 0.28554 0.24499 0.49804 0.0
C157 C 0.26971 0.32157 0.50566 0.0
C158 C 0.23111 0.1918 0.50758 0.0
C159 C 0.15843 0.21309 0.52462 0.0
H160 H 0.34146 0.22598 0.48647 0.0
H161 H 0.24686 0.13358 0.50246 0.0
S162 S 0.0858 0.40684 0.54515 0.0
N163 N 0.17423 0.41599 0.52759 0.0
N164 N 0.07189 0.31652 0.54507 0.0
C165 C 0.14069 0.28952 0.53008 0.0
C166 C 0.19631 0.34357 0.52076 0.0
C167 C 0.30944 0.78669 0.47549 0.0
C168 C 0.2895 0.72216 0.49576 0.0
C169 C 0.25419 0.83762 0.46421 0.0
C170 C 0.17632 0.8258 0.47201 0.0
H171 H 0.36837 0.79766 0.46763 0.0
H172 H 0.27273 0.88566 0.44804 0.0
S173 S 0.09363 0.6679 0.52659 0.0
N174 N 0.18603 0.6512 0.52515 0.0
N175 N 0.08224 0.74643 0.50343 0.0
C176 C 0.1555 0.76258 0.49335 0.0
C177 C 0.21199 0.71103 0.50541 0.0
C178 C 0.07618 0.0522 0.19623 0.0
C179 C 0.01217 0.02156 0.17233 0.0
C180 C 0.08233 0.05227 0.24393 0.0
C181 C 0.02588 0.01957 0.26933 0.0
H182 H 0.12128 0.07749 0.17802 0.0
H183 H 0.13183 0.07798 0.26103 0.0
S184 S 0.8486 0.92887 0.2226 0.0
N185 N 0.89188 0.95646 0.1774 0.0
N186 N 0.90444 0.95452 0.26677 0.0
C187 C 0.96242 0.98717 0.24566 0.0
C188 C 0.95526 0.98879 0.19726 0.0
C189 C 0.0043 0.05958 0.79533 0.0
C190 C 0.00901 0.99396 0.81712 0.0
C191 C 0.01368 0.05845 0.74777 0.0
C192 C 0.02937 0.99185 0.71996 0.0
H193 H 0.99249 0.11244 0.81509 0.0
H194 H 0.00851 0.11036 0.73272 0.0
S195 S 0.04875 0.80452 0.7599 0.0
N196 N 0.03113 0.86034 0.80699 0.0
N197 N 0.04935 0.85826 0.71787 0.0
C198 C 0.03509 0.92585 0.74131 0.0
C199 C 0.02464 0.92687 0.78972 0.0
C200 C 0.55308 0.52853 0.70677 0.0
C201 C 0.48656 0.50729 0.68198 0.0
C202 C 0.55775 0.52407 0.75407 0.0
C203 C 0.49685 0.49634 0.7783 0.0
H204 H 0.6018 0.54968 0.68957 0.0
H205 H 0.60976 0.54212 0.77175 0.0
S206 S 0.31029 0.43237 0.72935 0.0
N207 N 0.35833 0.45762 0.68516 0.0
N208 N 0.36769 0.4474 0.77396 0.0
C209 C 0.43022 0.47408 0.75388 0.0
C210 C 0.42487 0.48018 0.70579 0.0
C211 C 0.51984 0.43517 0.30182 0.0
C212 C 0.50875 0.50398 0.32821 0.0
C213 C 0.53005 0.43066 0.25427 0.0
C214 C 0.52882 0.49466 0.23077 0.0
H215 H 0.52155 0.38411 0.31802 0.0
H216 H 0.53824 0.37608 0.23578 0.0
S217 S 0.50064 0.68865 0.28365 0.0
N218 N 0.49668 0.63799 0.32716 0.0
N219 N 0.51522 0.62928 0.23769 0.0
C220 C 0.51738 0.56394 0.25662 0.0
C221 C 0.50759 0.56865 0.30527 0.0
loop_
_geom_bond_atom_site_label_1
_geom_bond_atom_site_label_2
_geom_bond_distance
_geom_bond_site_symmetry_2
_ccdc_geom_bond_type
O0 Zn1 1.953 . S
O0 C16 1.225 1_565 S
Zn1 O0 1.953 . S
Zn1 O2 1.949 1_565 S
Zn1 O8 1.919 . S
Zn1 O13 1.924 1_565 S
O2 Zn1 1.949 1_545 S
O2 Zn3 1.923 1_444 S
O2 Zn4 1.950 1_455 S
O2 Zn5 1.945 1_554 S
Zn3 O2 1.923 1_666 S
Zn3 O6 1.933 . S
Zn3 O9 1.941 1_655 S
Zn3 O10 1.965 . S
Zn4 O2 1.950 1_655 S
Zn4 O11 1.938 1_545 S
Zn4 O12 1.906 . S
Zn4 O22 1.953 . S
Zn5 O2 1.945 1_556 S
Zn5 O7 1.932 . S
Zn5 O14 1.977 1_455 S
Zn5 O15 1.910 . S
O6 Zn3 1.933 . S
O6 C17 1.228 1_655 S
O7 Zn5 1.932 . S
O7 C17 1.305 1_545 S
O8 Zn1 1.919 . S
O8 C19 1.253 1_554 S
O9 Zn3 1.941 1_455 S
O9 C19 1.283 . S
O10 Zn3 1.965 . S
O10 C18 1.303 1_556 S
O11 Zn4 1.938 1_565 S
O11 C18 1.247 . S
O12 Zn4 1.906 . S
O12 C20 1.304 1_554 S
O13 Zn1 1.924 1_545 S
O13 C21 1.311 . S
O14 Zn5 1.977 1_655 S
O14 C20 1.272 . S
O15 Zn5 1.910 . S
O15 C21 1.231 1_556 S
C16 O0 1.225 1_545 S
C16 O22 1.298 1_455 S
C17 O6 1.228 1_455 S
C17 O7 1.305 1_565 S
C18 O10 1.303 1_554 S
C18 O11 1.247 . S
C19 O8 1.253 1_556 S
C19 O9 1.283 . S
C20 O12 1.304 1_556 S
C20 O14 1.272 . S
C21 O13 1.311 . S
C21 O15 1.231 1_554 S
O22 Zn4 1.953 . S
O22 C16 1.298 1_655 S
O23 Zn24 1.953 . S
O23 C39 1.225 . S
Zn24 O23 1.953 . S
Zn24 O25 1.949 . S
Zn24 O31 1.919 . S
Zn24 O36 1.924 . S
O25 Zn24 1.949 . S
O25 Zn26 1.923 . S
O25 Zn27 1.950 . S
O25 Zn28 1.945 . S
Zn26 O25 1.923 . S
Zn26 O29 1.933 . S
Zn26 O32 1.941 . S
Zn26 O33 1.965 . S
Zn27 O25 1.950 . S
Zn27 O34 1.938 . S
Zn27 O35 1.906 . S
Zn27 O45 1.953 . S
Zn28 O25 1.945 . S
Zn28 O30 1.932 . S
Zn28 O37 1.977 . S
Zn28 O38 1.910 . S
O29 Zn26 1.933 . S
O29 C40 1.226 . S
O30 Zn28 1.932 . S
O30 C40 1.307 . S
O31 Zn24 1.919 . S
O31 C42 1.253 . S
O32 Zn26 1.941 . S
O32 C42 1.283 . S
O33 Zn26 1.965 . S
O33 C41 1.303 . S
O34 Zn27 1.938 . S
O34 C41 1.247 . S
O35 Zn27 1.906 . S
O35 C43 1.304 . S
O36 Zn24 1.924 . S
O36 C44 1.311 . S
O37 Zn28 1.977 . S
O37 C43 1.272 . S
O38 Zn28 1.910 . S
O38 C44 1.231 . S
C39 O23 1.225 . S
C39 O45 1.298 . S
C40 O29 1.226 . S
C40 O30 1.307 . S
C41 O33 1.303 . S
C41 O34 1.247 . S
C42 O31 1.253 . S
C42 O32 1.283 . S
C43 O35 1.304 . S
C43 O37 1.272 . S
C44 O36 1.311 . S
C44 O38 1.231 . S
O45 Zn27 1.953 . S
O45 C39 1.298 . S
O46 Cd47 2.300 . S
O46 C53 1.275 1_565 S
Cd47 O46 2.300 . S
Cd47 O55 2.381 . S
Cd47 O56 2.378 . S
O48 Cd49 2.385 . S
O48 C53 1.255 . S
Cd49 O48 2.385 . S
Cd49 O50 2.317 1_455 S
O50 Cd49 2.317 1_655 S
O50 C51 1.232 . S
C51 O50 1.232 . S
C51 O52 1.218 . S
O52 C51 1.218 . S
C53 O46 1.275 1_545 S
C53 O48 1.255 . S
C54 O55 1.258 . S
C54 O56 1.256 . S
O55 Cd47 2.381 . S
O55 C54 1.258 . S
O56 Cd47 2.378 . S
O56 C54 1.256 . S
O57 Cd58 2.300 . S
O57 C64 1.275 1_545 S
Cd58 O57 2.300 . S
Cd58 O66 2.381 . S
Cd58 O67 2.378 . S
O59 Cd60 2.385 . S
O59 C64 1.255 . S
Cd60 O59 2.385 . S
Cd60 O61 2.317 1_455 S
O61 Cd60 2.317 1_655 S
O61 C62 1.232 . S
C62 O61 1.232 . S
C62 O63 1.218 . S
O63 C62 1.218 . S
C64 O57 1.275 1_565 S
C64 O59 1.255 . S
C65 O66 1.258 . S
C65 O67 1.256 . S
O66 Cd58 2.381 . S
O66 C65 1.258 . S
O67 Cd58 2.378 . S
O67 C65 1.256 . S
O68 Cd69 2.300 . S
O68 C75 1.275 . S
Cd69 O68 2.300 . S
Cd69 O77 2.381 . S
Cd69 O78 2.378 . S
O70 Cd71 2.385 . S
O70 C75 1.255 . S
Cd71 O70 2.385 . S
Cd71 O72 2.317 . S
O72 Cd71 2.317 . S
O72 C73 1.232 . S
C73 O72 1.232 . S
C73 O74 1.218 . S
O74 C73 1.218 . S
C75 O68 1.275 . S
C75 O70 1.255 . S
C76 O77 1.258 . S
C76 O78 1.256 . S
O77 Cd69 2.381 . S
O77 C76 1.258 . S
O78 Cd69 2.378 . S
O78 C76 1.256 . S
O79 Cd80 2.300 . S
O79 C86 1.275 . S
Cd80 O79 2.300 . S
Cd80 O88 2.381 . S
Cd80 O89 2.378 . S
O81 Cd82 2.385 . S
O81 C86 1.255 . S
Cd82 O81 2.385 . S
Cd82 O83 2.317 . S
O83 Cd82 2.317 . S
O83 C84 1.232 . S
C84 O83 1.232 . S
C84 O85 1.218 . S
O85 C84 1.218 . S
C86 O79 1.275 . S
C86 O81 1.255 . S
C87 O88 1.258 . S
C87 O89 1.256 . S
O88 Cd80 2.381 . S
O88 C87 1.258 . S
O89 Cd80 2.378 . S
O89 C87 1.256 . S
C90 C91 1.369 . S
C90 C92 1.419 . S
C90 H94 0.930 1_554 S
C91 C90 1.369 . S
C91 C100 1.429 . S
C92 C90 1.419 . S
C92 C93 1.363 . S
C92 H95 0.929 . S
C93 C92 1.363 . S
C93 C99 1.428 . S
H94 C90 0.930 1_556 S
H95 C92 0.929 . S
S96 N97 1.613 . S
S96 N98 1.610 . S
N97 S96 1.613 . S
N97 C100 1.350 . S
N98 S96 1.610 . S
N98 C99 1.351 . S
C99 C93 1.428 . S
C99 N98 1.351 . S
C99 C100 1.434 . S
C100 C91 1.429 . S
C100 N97 1.350 . S
C100 C99 1.434 . S
C101 C102 1.369 . S
C101 C103 1.419 . S
C101 H105 0.930 1_556 S
C102 C101 1.369 . S
C102 C111 1.429 . S
C103 C101 1.419 . S
C103 C104 1.363 . S
C103 H106 0.929 1_556 S
C104 C103 1.363 . S
C104 C110 1.428 . S
H105 C101 0.930 1_554 S
H106 C103 0.929 1_554 S
S107 N108 1.613 . S
S107 N109 1.610 . S
N108 S107 1.613 . S
N108 C111 1.350 . S
N109 S107 1.610 . S
N109 C110 1.351 . S
C110 C104 1.428 . S
C110 N109 1.351 . S
C110 C111 1.434 . S
C111 C102 1.429 . S
C111 N108 1.350 . S
C111 C110 1.434 . S
C112 C113 1.369 1_556 S
C112 C114 1.419 1_556 S
C112 H116 0.930 . S
C113 C112 1.369 1_554 S
C113 C122 1.429 . S
C114 C112 1.419 1_554 S
C114 C115 1.363 . S
C114 H117 0.929 1_554 S
C115 C114 1.363 . S
C115 C121 1.428 . S
H116 C112 0.930 . S
H117 C114 0.929 1_556 S
S118 N119 1.613 . S
S118 N120 1.610 . S
N119 S118 1.613 . S
N119 C122 1.350 . S
N120 S118 1.610 . S
N120 C121 1.351 . S
C121 C115 1.428 . S
C121 N120 1.351 . S
C121 C122 1.434 . S
C122 C113 1.429 . S
C122 N119 1.350 . S
C122 C121 1.434 . S
C123 C124 1.369 . S
C123 C125 1.419 . S
C123 H127 0.930 . S
C124 C123 1.369 . S
C124 C133 1.429 . S
C125 C123 1.419 . S
C125 C126 1.363 . S
C125 H128 0.929 . S
C126 C125 1.363 . S
C126 C132 1.428 . S
H127 C123 0.930 . S
H128 C125 0.929 . S
S129 N130 1.613 . S
S129 N131 1.610 . S
N130 S129 1.613 . S
N130 C133 1.350 . S
N131 S129 1.610 . S
N131 C132 1.351 . S
C132 C126 1.428 . S
C132 N131 1.351 . S
C132 C133 1.434 . S
C133 C124 1.429 . S
C133 N130 1.350 . S
C133 C132 1.434 . S
C134 C135 1.369 . S
C134 C136 1.419 . S
C134 H138 0.930 . S
C135 C134 1.369 . S
C135 C144 1.429 . S
C136 C134 1.419 . S
C136 C137 1.363 . S
C136 H139 0.929 . S
C137 C136 1.363 . S
C137 C143 1.428 . S
H138 C134 0.930 . S
H139 C136 0.929 . S
S140 N141 1.613 . S
S140 N142 1.610 . S
N141 S140 1.613 . S
N141 C144 1.350 . S
N142 S140 1.610 . S
N142 C143 1.351 . S
C143 C137 1.428 . S
C143 N142 1.351 . S
C143 C144 1.434 . S
C144 C135 1.429 . S
C144 N141 1.350 . S
C144 C143 1.434 . S
C145 C146 1.369 . S
C145 C147 1.419 . S
C145 H149 0.930 . S
C146 C145 1.369 . S
C146 C155 1.429 . S
C147 C145 1.419 . S
C147 C148 1.363 . S
C147 H150 0.929 . S
C148 C147 1.363 . S
C148 C154 1.428 . S
H149 C145 0.930 . S
H150 C147 0.929 . S
S151 N152 1.613 . S
S151 N153 1.610 . S
N152 S151 1.613 . S
N152 C155 1.350 . S
N153 S151 1.610 . S
N153 C154 1.351 . S
C154 C148 1.428 . S
C154 N153 1.351 . S
C154 C155 1.434 . S
C155 C146 1.429 . S
C155 N152 1.350 . S
C155 C154 1.434 . S
C156 C157 1.369 . S
C156 C158 1.419 . S
C156 H160 0.930 . S
C157 C156 1.369 . S
C157 C166 1.429 . S
C158 C156 1.419 . S
C158 C159 1.363 . S
C158 H161 0.929 . S
C159 C158 1.363 . S
C159 C165 1.428 . S
H160 C156 0.930 . S
H161 C158 0.929 . S
S162 N163 1.613 . S
S162 N164 1.610 . S
N163 S162 1.613 . S
N163 C166 1.350 . S
N164 S162 1.610 . S
N164 C165 1.351 . S
C165 C159 1.428 . S
C165 N164 1.351 . S
C165 C166 1.434 . S
C166 C157 1.429 . S
C166 N163 1.350 . S
C166 C165 1.434 . S
C167 C168 1.369 . S
C167 C169 1.419 . S
C167 H171 0.930 . S
C168 C167 1.369 . S
C168 C177 1.429 . S
C169 C167 1.419 . S
C169 C170 1.363 . S
C169 H172 0.929 . S
C170 C169 1.363 . S
C170 C176 1.428 . S
H171 C167 0.930 . S
H172 C169 0.929 . S
S173 N174 1.613 . S
S173 N175 1.610 . S
N174 S173 1.613 . S
N174 C177 1.350 . S
N175 S173 1.610 . S
N175 C176 1.351 . S
C176 C170 1.428 . S
C176 N175 1.351 . S
C176 C177 1.434 . S
C177 C168 1.429 . S
C177 N174 1.350 . S
C177 C176 1.434 . S
C178 C179 1.369 . S
C178 C180 1.419 . S
C178 H182 0.930 1_545 S
C179 C178 1.369 . S
C179 C188 1.429 1_455 S
C180 C178 1.419 . S
C180 C181 1.363 1_455 S
C180 H183 0.931 . S
C181 C180 1.363 1_655 S
C181 C187 1.428 . S
H182 C178 0.930 1_565 S
H183 C180 0.931 . S
S184 N185 1.613 . S
S184 N186 1.610 . S
N185 S184 1.613 . S
N185 C188 1.350 . S
N186 S184 1.610 . S
N186 C187 1.351 . S
C187 C181 1.428 . S
C187 N186 1.351 . S
C187 C188 1.434 . S
C188 C179 1.429 1_655 S
C188 N185 1.350 . S
C188 C187 1.434 . S
C189 C190 1.369 1_545 S
C189 C191 1.419 . S
C189 H193 0.930 . S
C190 C189 1.369 1_565 S
C190 C199 1.429 1_455 S
C191 C189 1.419 . S
C191 C192 1.363 1_545 S
C191 H194 0.929 . S
C192 C191 1.363 1_565 S
C192 C198 1.428 1_455 S
H193 C189 0.930 . S
H194 C191 0.929 . S
S195 N196 1.613 . S
S195 N197 1.610 . S
N196 S195 1.613 . S
N196 C199 1.350 . S
N197 S195 1.610 . S
N197 C198 1.351 . S
C198 C192 1.428 1_655 S
C198 N197 1.351 . S
C198 C199 1.434 . S
C199 C190 1.429 1_655 S
C199 N196 1.350 . S
C199 C198 1.434 . S
C200 C201 1.369 . S
C200 C202 1.419 . S
C200 H204 0.930 . S
C201 C200 1.369 . S
C201 C210 1.429 . S
C202 C200 1.419 . S
C202 C203 1.363 . S
C202 H205 0.929 . S
C203 C202 1.363 . S
C203 C209 1.428 . S
H204 C200 0.930 . S
H205 C202 0.929 . S
S206 N207 1.613 . S
S206 N208 1.610 . S
N207 S206 1.613 . S
N207 C210 1.350 . S
N208 S206 1.610 . S
N208 C209 1.351 . S
C209 C203 1.428 . S
C209 N208 1.351 . S
C209 C210 1.434 . S
C210 C201 1.429 . S
C210 N207 1.350 . S
C210 C209 1.434 . S
C211 C212 1.369 . S
C211 C213 1.419 . S
C211 H215 0.930 . S
C212 C211 1.369 . S
C212 C221 1.429 . S
C213 C211 1.419 . S
C213 C214 1.363 . S
C213 H216 0.929 . S
C214 C213 1.363 . S
C214 C220 1.428 . S
H215 C211 0.930 . S
H216 C213 0.929 . S
S217 N218 1.613 . S
S217 N219 1.610 . S
N218 S217 1.613 . S
N218 C221 1.350 . S
N219 S217 1.610 . S
N219 C220 1.351 . S
C220 C214 1.428 . S
C220 N219 1.351 . S
C220 C221 1.434 . S
C221 C212 1.429 . S
C221 N218 1.350 . S
C221 C220 1.434 . S
C93 C84 1.327 . S
C91 C21 1.502 . S
C102 C19 1.498 . S
C104 C73 1.309 . S
C113 C18 1.439 . S
C115 C87 1.431 . S
C124 C20 1.441 . S
C126 C76 1.434 . S
C135 C44 1.502 . S
C137 C62 1.323 . S
C146 C42 1.495 . S
C148 C51 1.310 . S
C159 C65 1.435 . S
C157 C41 1.433 . S
C170 C54 1.437 . S
C168 C43 1.446 . S
C179 C16 1.520 . S
C181 C53 1.459 1_655 S
C190 C17 1.490 . S
C192 C64 1.435 . S
C203 C75 1.459 . S
C201 C39 1.520 . S
C212 C40 1.489 . S
C214 C86 1.436 . S
