# Generated by pormake.
# Topology pts, (4,4)-cn, num edge types: 1
# Building blocks:
#     Node 0, Type 0, BuildingBlock: ESEHIV_clean_sbu_0, # of connection points: 4
#     Node 1, Type 0, BuildingBlock: ESEHIV_clean_sbu_0, # of connection points: 4
#     Node 2, Type 1, BuildingBlock: QUQFOY_clean_sbu_1, # of connection points: 4
#     Node 3, Type 1, BuildingBlock: QUQFOY_clean_sbu_1, # of connection points: 4
#     Edge 4, Type (0, 1), None
#     Edge 5, Type (0, 1), None
#     Edge 6, Type (0, 1), None
#     Edge 7, Type (0, 1), None
#     Edge 8, Type (0, 1), None
#     Edge 9, Type (0, 1), None
#     Edge 10, Type (0, 1), None
#     Edge 11, Type (0, 1), None
# Relax obj value: 0.094
# Max RMSD: 0.250
# Mean RMSD: 0.176
data_MOF--net-pts--node1-ESEHIV_clean_sbu_0--node2-QUQFOY_clean_sbu_1--edge1-none
_symmetry_space_group_name_H-M    P1
_symmetry_Int_Tables_number       1
_symmetry_cell_setting            triclinic
loop_
_symmetry_equiv_pos_as_xyz
'x, y, z'
_cell_length_a     10.989374
_cell_length_b     11.406781
_cell_length_c     18.3633
_cell_angle_alpha  101.15009
_cell_angle_beta   101.63619
_cell_angle_gamma 87.298038
loop_
_atom_site_label
_atom_site_type_symbol
_atom_site_fract_x
_atom_site_fract_y
_atom_site_fract_z
_atom_type_partial_charge
Cu0 Cu 0.58909 0.2207 0.06593 0.0
N1 N 0.70211 0.30916 1.0375 0.0
N2 N 0.82267 0.33877 0.95876 0.0
C3 C 0.7424 0.26536 0.97342 0.0
C4 C 0.83246 0.43466 1.01584 0.0
C5 C 0.7566 0.41629 0.06457 0.0
O6 O 0.65616 1.0609 0.07025 0.0
C7 C 0.37505 0.12385 0.95723 0.0
O8 O 0.38441 1.02968 0.9894 0.0
H9 H 0.71595 0.17826 0.93948 0.0
H10 H 0.74387 0.47537 0.11621 0.0
N11 N 0.52548 0.28691 0.15208 0.0
N12 N 0.37312 0.29979 0.21804 0.0
C13 C 0.40286 0.30747 0.15123 0.0
C14 C 0.57523 0.27102 0.22267 0.0
C15 C 0.48175 0.27826 0.26321 0.0
C16 C 0.76068 1.02167 0.1013 0.0
O17 O 0.77824 0.9054 0.09107 0.0
H18 H 0.33473 0.30783 0.09965 0.0
H19 H 0.66902 0.24037 0.24055 0.0
O20 O 0.45186 0.2087 0.98213 0.0
H21 H 0.89314 0.50995 1.02335 0.0
H22 H 0.49126 0.25777 0.31929 0.0
Cu23 Cu 0.05782 0.70361 0.53426 0.0
N24 N 0.14906 0.62971 0.61049 0.0
N25 N 0.1679 0.53408 0.70751 0.0
C26 C 0.1069 0.54001 0.63681 0.0
C27 C 0.25228 0.62243 0.72637 0.0
C28 C 0.24067 0.68101 0.66625 0.0
O29 O 0.96468 0.58671 0.45193 0.0
C30 C 0.02814 0.92514 0.62371 0.0
O31 O 0.13954 0.93822 0.61116 0.0
H32 H 0.02507 0.48842 0.6079 0.0
H33 H 0.288 0.76184 0.66594 0.0
N34 N 0.15467 0.77457 0.48284 0.0
N35 N 0.17901 0.88479 0.39907 0.0
C36 C 0.11668 0.87183 0.4528 0.0
C37 C 0.24426 0.72372 0.44644 0.0
C38 C 0.25957 0.79193 0.39439 0.0
C39 C 0.01974 0.4879 0.4325 0.0
O40 O 0.12288 0.4608 0.4762 0.0
H41 H 0.03634 0.92514 0.46475 0.0
H42 H 0.28739 0.63804 0.45255 0.0
O43 O 0.96761 0.82988 0.59118 0.0
H44 H 0.31431 0.64605 0.78075 0.0
H45 H 0.32049 0.77168 0.35394 0.0
O46 O 0.95768 1.04756 0.18197 0.0
Cd47 Cd 0.10318 0.10404 0.27324 0.0
Cd48 Cd 0.9944 0.31512 0.23209 0.0
O49 O 0.84839 0.21141 0.1663 0.0
O50 O 0.19671 0.95451 0.29234 0.0
O51 O 0.08243 1.05787 0.36952 0.0
C52 C 0.15367 0.96702 0.35365 0.0
C53 C 0.99101 0.41822 0.35501 0.0
C54 C 0.86057 0.09865 0.15102 0.0
C55 C 0.25806 0.28047 0.23033 0.0
O56 O 0.15968 0.31774 0.19138 0.0
O57 O 0.24914 0.21556 0.27779 0.0
O58 O 0.9499 0.46904 0.29758 0.0
O59 O 0.02849 0.30869 0.34216 0.0
O60 O 0.98002 0.37685 0.90247 0.0
Cd61 Cd 0.10705 0.33292 0.83185 0.0
Cd62 Cd 0.01357 0.11141 0.81187 0.0
O63 O 0.87986 0.20544 0.86273 0.0
O64 O 0.1875 0.48301 0.82454 0.0
O65 O 0.07367 0.36814 0.72584 0.0
C66 C 0.14269 0.46115 0.7529 0.0
C67 C 0.99571 1.00424 0.68998 0.0
C68 C 0.89293 0.30879 0.90484 0.0
C69 C 0.26486 0.14519 0.90193 0.0
O70 O 0.17144 1.07721 0.88666 0.0
O71 O 0.25955 0.24219 0.87723 0.0
O72 O 0.95367 0.96039 0.73982 0.0
O73 O 0.03778 0.11221 0.70818 0.0
loop_
_geom_bond_atom_site_label_1
_geom_bond_atom_site_label_2
_geom_bond_distance
_geom_bond_site_symmetry_2
_ccdc_geom_bond_type
Cu0 N1 1.999 1_554 S
Cu0 O6 1.974 . S
Cu0 N11 1.985 . S
Cu0 O20 1.959 1_554 S
N1 Cu0 1.999 1_556 S
N1 C3 1.263 . S
N1 C5 1.389 . S
N2 C3 1.358 . S
N2 C4 1.400 . S
C3 N1 1.263 . S
C3 N2 1.358 . S
C3 H9 0.930 . S
C4 N2 1.400 . S
C4 C5 1.351 . S
C4 H21 0.930 . S
C5 N1 1.389 . S
C5 C4 1.351 . S
C5 H10 0.930 . S
O6 Cu0 1.974 . S
O6 C16 1.282 . S
C7 O8 1.261 . S
C7 O20 1.251 . S
O8 C7 1.261 . S
H9 C3 0.930 . S
H10 C5 0.930 . S
N11 Cu0 1.985 . S
N11 C13 1.335 . S
N11 C14 1.390 . S
N12 C13 1.345 . S
N12 C15 1.336 . S
C13 N11 1.335 . S
C13 N12 1.345 . S
C13 H18 0.930 . S
C14 N11 1.390 . S
C14 C15 1.346 . S
C14 H19 0.930 . S
C15 N12 1.336 . S
C15 C14 1.346 . S
C15 H22 0.929 . S
C16 O6 1.282 . S
C16 O17 1.216 . S
O17 C16 1.216 . S
H18 C13 0.930 . S
H19 C14 0.930 . S
O20 Cu0 1.959 1_556 S
O20 C7 1.251 . S
H21 C4 0.930 . S
H22 C15 0.929 . S
Cu23 N24 1.999 . S
Cu23 O29 1.974 . S
Cu23 N34 1.985 . S
Cu23 O43 1.959 . S
N24 Cu23 1.999 . S
N24 C26 1.263 . S
N24 C28 1.389 1_455 S
N25 C26 1.358 . S
N25 C27 1.400 1_455 S
C26 N24 1.263 . S
C26 N25 1.358 . S
C26 H32 0.930 . S
C27 N25 1.400 1_655 S
C27 C28 1.351 . S
C27 H44 0.930 . S
C28 N24 1.389 1_655 S
C28 C27 1.351 . S
C28 H33 0.930 . S
O29 Cu23 1.974 . S
O29 C39 1.282 . S
C30 O31 1.261 . S
C30 O43 1.251 . S
O31 C30 1.261 . S
H32 C26 0.930 . S
H33 C28 0.930 . S
N34 Cu23 1.985 . S
N34 C36 1.335 . S
N34 C37 1.390 . S
N35 C36 1.345 . S
N35 C38 1.336 . S
C36 N34 1.335 . S
C36 N35 1.345 . S
C36 H41 0.930 1_455 S
C37 N34 1.390 . S
C37 C38 1.346 . S
C37 H42 0.930 . S
C38 N35 1.336 . S
C38 C37 1.346 . S
C38 H45 0.929 . S
C39 O29 1.282 . S
C39 O40 1.216 . S
O40 C39 1.216 . S
H41 C36 0.930 1_655 S
H42 C37 0.930 . S
O43 Cu23 1.959 . S
O43 C30 1.251 . S
H44 C27 0.930 . S
H45 C38 0.929 . S
O46 Cd47 2.223 . S
O46 C54 1.315 1_465 S
Cd47 O46 2.223 . S
Cd47 O50 2.297 . S
Cd47 O51 2.439 . S
Cd47 O57 2.240 1_565 S
Cd48 O49 2.240 1_455 S
Cd48 O56 2.223 . S
Cd48 O58 2.297 . S
Cd48 O59 2.439 . S
O49 Cd48 2.240 1_655 S
O49 C54 1.279 . S
O50 Cd47 2.297 . S
O50 C52 1.247 . S
O51 Cd47 2.439 . S
O51 C52 1.208 . S
C52 O50 1.247 . S
C52 O51 1.208 . S
C53 O58 1.247 . S
C53 O59 1.208 . S
C54 O46 1.315 1_645 S
C54 O49 1.279 . S
C55 O56 1.315 . S
C55 O57 1.279 . S
O56 Cd48 2.223 . S
O56 C55 1.315 . S
O57 Cd47 2.240 1_545 S
O57 C55 1.279 . S
O58 Cd48 2.297 . S
O58 C53 1.247 . S
O59 Cd48 2.439 . S
O59 C53 1.208 . S
O60 Cd61 2.223 . S
O60 C68 1.315 . S
Cd61 O60 2.223 . S
Cd61 O64 2.297 . S
Cd61 O65 2.439 . S
Cd61 O71 2.240 . S
Cd62 O63 2.240 1_465 S
Cd62 O70 2.223 . S
Cd62 O72 2.297 . S
Cd62 O73 2.439 . S
O63 Cd62 2.240 1_645 S
O63 C68 1.279 1_655 S
O64 Cd61 2.297 . S
O64 C66 1.247 . S
O65 Cd61 2.439 . S
O65 C66 1.208 . S
C66 O64 1.247 . S
C66 O65 1.208 . S
C67 O72 1.247 . S
C67 O73 1.208 . S
C68 O60 1.315 . S
C68 O63 1.279 1_455 S
C69 O70 1.315 1_545 S
C69 O71 1.279 . S
O70 Cd62 2.223 . S
O70 C69 1.315 1_565 S
O71 Cd61 2.240 . S
O71 C69 1.279 . S
O72 Cd62 2.297 . S
O72 C67 1.247 . S
O73 Cd62 2.439 . S
O73 C67 1.208 . S
C55 N12 1.581 . S
C66 N25 1.499 . S
C54 C16 1.707 . S
C67 C30 1.654 . S
C69 C7 1.847 . S
C53 C39 1.516 . S
C68 N2 1.643 1_455 S
N35 C52 1.442 . S
