# Generated by pormake.
# Topology nia, (6,6)-cn, num edge types: 1
# Building blocks:
#     Node 0, Type 0, BuildingBlock: BETFEN_clean_sbu_0, # of connection points: 6
#     Node 1, Type 0, BuildingBlock: BETFEN_clean_sbu_0, # of connection points: 6
#     Node 2, Type 1, BuildingBlock: MIDCAF_clean_sbu_0, # of connection points: 6
#     Node 3, Type 1, BuildingBlock: MIDCAF_clean_sbu_0, # of connection points: 6
#     Edge 4, Type (0, 1), BuildingBlock: OJICUG_clean_linker_0, # of connection points: 2
#     Edge 5, Type (0, 1), BuildingBlock: OJICUG_clean_linker_0, # of connection points: 2
#     Edge 6, Type (0, 1), BuildingBlock: OJICUG_clean_linker_0, # of connection points: 2
#     Edge 7, Type (0, 1), BuildingBlock: OJICUG_clean_linker_0, # of connection points: 2
#     Edge 8, Type (0, 1), BuildingBlock: OJICUG_clean_linker_0, # of connection points: 2
#     Edge 9, Type (0, 1), BuildingBlock: OJICUG_clean_linker_0, # of connection points: 2
#     Edge 10, Type (0, 1), BuildingBlock: OJICUG_clean_linker_0, # of connection points: 2
#     Edge 11, Type (0, 1), BuildingBlock: OJICUG_clean_linker_0, # of connection points: 2
#     Edge 12, Type (0, 1), BuildingBlock: OJICUG_clean_linker_0, # of connection points: 2
#     Edge 13, Type (0, 1), BuildingBlock: OJICUG_clean_linker_0, # of connection points: 2
#     Edge 14, Type (0, 1), BuildingBlock: OJICUG_clean_linker_0, # of connection points: 2
#     Edge 15, Type (0, 1), BuildingBlock: OJICUG_clean_linker_0, # of connection points: 2
# Relax obj value: 0.235
# Max RMSD: 0.293
# Mean RMSD: 0.224
data_MOF--net-nia--node1-BETFEN_clean_sbu_0--node2-MIDCAF_clean_sbu_0--edge1-OJICUG_clean_linker_0
_symmetry_space_group_name_H-M    P1
_symmetry_Int_Tables_number       1
_symmetry_cell_setting            triclinic
loop_
_symmetry_equiv_pos_as_xyz
'x, y, z'
_cell_length_a     22.412063
_cell_length_b     22.49311
_cell_length_c     23.738789
_cell_angle_alpha  89.209376
_cell_angle_beta   89.167691
_cell_angle_gamma 137.59586
loop_
_atom_site_label
_atom_site_type_symbol
_atom_site_fract_x
_atom_site_fract_y
_atom_site_fract_z
_atom_type_partial_charge
Pr0 Pr 0.94557 0.00254 1.02463 0.0
Pr1 Pr 0.04341 0.97174 0.08089 0.0
C2 C 0.83913 0.01406 0.9945 0.0
C3 C 0.83437 0.07325 0.9761 0.0
C4 C 0.84437 0.09646 0.91865 0.0
C5 C 0.8249 0.13981 0.90044 0.0
C6 C 0.7944 0.15975 0.9393 0.0
C7 C 0.78931 0.14106 0.99698 0.0
C8 C 0.80875 0.09789 1.01519 0.0
C9 C 0.11537 0.10758 0.97814 0.0
C10 C 0.06316 0.11406 0.13574 0.0
C11 C 0.14718 0.95821 0.11462 0.0
C12 C 0.14641 0.89757 0.14015 0.0
C13 C 0.16626 0.90462 0.19721 0.0
C14 C 0.17631 0.85515 0.22035 0.0
C15 C 0.16722 0.79815 0.18673 0.0
C16 C 0.14426 0.7889 0.13017 0.0
C17 C 0.13402 0.83814 0.10709 0.0
C18 C 0.87208 0.86632 0.12592 0.0
C19 C 0.93096 0.86356 0.96841 0.0
O20 O 0.85782 0.01625 1.04695 0.0
O21 O 0.87267 0.00037 0.95882 0.0
O22 O 0.09401 0.08984 1.02984 0.0
O23 O 0.05049 0.07896 0.94866 0.0
O24 O 0.10912 0.10091 0.12038 0.0
O25 O -0.01022 0.07455 0.11042 0.0
O26 O 0.12227 0.94629 0.06262 0.0
O27 O 0.12244 -0.01624 0.14718 0.0
O28 O 0.89521 0.88432 0.07461 0.0
O29 O 0.93649 0.89562 0.15631 0.0
O30 O 0.88352 0.87531 0.98321 0.0
O31 O 0.00448 0.90432 0.99404 0.0
H32 H 0.86339 0.07776 0.8874 0.0
H33 H 0.82895 0.15327 0.85579 0.0
H34 H 0.76716 0.15705 1.02788 0.0
H35 H 0.8 0.0805 0.05964 0.0
H36 H 0.17683 0.95049 0.22358 0.0
H37 H 0.19349 0.86329 0.2641 0.0
H38 H 0.13845 0.74682 0.10277 0.0
H39 H 0.11952 0.83181 0.06287 0.0
Pr40 Pr -0.01416 0.04074 0.58188 0.0
Pr41 Pr 0.00425 0.93454 0.52165 0.0
C42 C -0.01251 0.15501 0.61735 0.0
C43 C 0.93422 0.16781 0.6346 0.0
C44 C 0.90735 0.15557 0.69145 0.0
C45 C 0.86762 0.17933 0.709 0.0
C46 C 0.85493 0.21651 0.67016 0.0
C47 C 0.87884 0.22568 0.61305 0.0
C48 C 0.91843 0.20195 0.59549 0.0
C49 C 0.87215 0.86822 0.62515 0.0
C50 C 0.86874 0.92927 0.47065 0.0
C51 C 0.00097 0.82054 0.48283 0.0
C52 C 0.05579 0.81114 0.46264 0.0
C53 C 0.04622 0.7841 0.40743 0.0
C54 C 0.09283 0.76875 0.38816 0.0
C55 C 0.14947 0.77973 0.42399 0.0
C56 C 0.16018 0.80844 0.47897 0.0
C57 C 0.1139 0.82421 0.49812 0.0
C58 C 0.11768 0.10772 0.47895 0.0
C59 C 0.1224 0.04521 0.63256 0.0
O60 O -0.00871 0.14374 0.56395 0.0
O61 O -0.0124 0.109 0.6515 0.0
O62 O 0.89021 0.89155 0.57379 0.0
O63 O 0.90684 0.93366 0.65642 0.0
O64 O 0.87813 0.87975 0.48397 0.0
O65 O 0.91078 0.00184 0.4978 0.0
O66 O -0.00041 0.83172 0.5367 0.0
O67 O -0.00094 0.86623 0.45009 0.0
O68 O 0.09966 0.08349 0.53008 0.0
O69 O 0.08285 0.04261 0.44728 0.0
O70 O 0.11081 0.09361 0.62147 0.0
O71 O 0.08079 -0.02664 0.60462 0.0
H72 H 0.91965 0.13044 0.72278 0.0
H73 H 0.85022 0.17203 0.75325 0.0
H74 H 0.8684 0.25282 0.58201 0.0
H75 H 0.93906 0.21289 0.55154 0.0
H76 H 0.00142 0.7734 0.37943 0.0
H77 H 0.0838 0.74738 0.3455 0.0
H78 H 0.20213 0.81598 0.50797 0.0
H79 H 0.12229 0.84477 0.54095 0.0
Zn80 Zn 0.35338 0.59663 0.19853 0.0
Zn81 Zn 0.38294 0.62497 0.41088 0.0
Zn82 Zn 0.37374 0.60449 0.30517 0.0
C83 C 0.5547 0.7466 0.36462 0.0
C84 C 0.29643 0.454 0.40031 0.0
O85 O 0.31439 0.64698 0.27711 0.0
O86 O 0.30754 0.64198 0.18403 0.0
C87 C 0.52964 0.69694 0.20883 0.0
O88 O 0.51489 0.70151 0.32027 0.0
O89 O 0.51143 0.72898 0.40873 0.0
O90 O 0.33077 0.51069 0.43734 0.0
O91 O 0.30194 0.47492 0.34801 0.0
O92 O 0.47398 0.66567 0.17147 0.0
O93 O 0.50583 0.68353 0.26153 0.0
O94 O 0.28488 0.46536 0.28945 0.0
O95 O 0.26377 0.46837 0.19899 0.0
C96 C 0.24642 0.42589 0.24337 0.0
O97 O 0.321 0.65298 0.3352 0.0
O98 O 0.31954 0.65098 0.42861 0.0
C99 C 0.29396 0.65757 0.23033 0.0
C100 C 0.3033 0.66504 0.38291 0.0
Zn101 Zn 0.63045 0.38151 0.9003 0.0
Zn102 Zn 0.61088 0.3573 0.69941 0.0
Zn103 Zn 0.61608 0.37267 0.79996 0.0
C104 C 0.68359 0.52001 0.70726 0.0
C105 C 0.43935 0.2253 0.73903 0.0
O106 O 0.66952 0.32473 0.8307 0.0
O107 O 0.63599 0.30223 0.92196 0.0
C108 C 0.75452 0.55164 0.86 0.0
O109 O 0.68845 0.50312 0.7582 0.0
O110 O 0.6407 0.45984 0.672 0.0
O111 O 0.4862 0.23917 0.69887 0.0
O112 O 0.47627 0.27593 0.78136 0.0
O113 O 0.74279 0.508 0.90145 0.0
O114 O 0.70575 0.5119 0.81693 0.0
O115 O 0.48179 0.29359 0.84003 0.0
O116 O 0.52205 0.34175 0.92644 0.0
C117 C 0.46238 0.29628 0.89079 0.0
O118 O 0.67323 0.32747 0.77217 0.0
O119 O 0.69993 0.36271 0.68108 0.0
C120 C 0.66531 0.29594 0.8797 0.0
C121 C 0.70674 0.33517 0.72422 0.0
C122 C 0.26645 0.80273 0.23963 0.0
C123 C 0.19009 0.75504 0.20821 0.0
H124 H 0.35956 0.80824 0.27157 0.0
C125 C 0.14226 0.66998 0.19146 0.0
H126 H 0.30512 0.86869 0.25283 0.0
C127 C 0.17419 0.63643 0.20158 0.0
C128 C 0.25329 0.68652 0.22963 0.0
H129 H 0.08232 0.63101 0.16822 0.0
H130 H 0.13886 0.57264 0.18563 0.0
C131 C 0.29794 0.76859 0.25021 0.0
C132 C 0.2378 0.15829 0.69891 0.0
C133 C 0.19153 0.07932 0.67179 0.0
H134 H 0.35563 0.26809 0.74002 0.0
C135 C 0.21872 0.03994 0.67779 0.0
H136 H 0.21847 0.1903 0.6953 0.0
C137 C 0.29591 0.08343 0.706 0.0
C138 C 0.34588 0.16601 0.72877 0.0
H139 H 0.18406 -0.02111 0.65758 0.0
H140 H 0.32017 0.05594 0.70629 0.0
C141 C 0.31515 0.20192 0.72627 0.0
C142 C 0.1841 0.23065 0.19843 0.0
C143 C 0.10024 0.18121 0.1773 0.0
H144 H 0.29707 0.3493 0.2378 0.0
C145 C 0.05716 0.20267 0.19192 0.0
H146 H 0.21859 0.21504 0.18855 0.0
C147 C 0.10155 0.27831 0.22186 0.0
C148 C 0.18886 0.33251 0.23758 0.0
H149 H -0.00795 0.16501 0.17682 0.0
H150 H 0.071 0.29898 0.22793 0.0
C151 C 0.22861 0.30659 0.22765 0.0
C152 C 0.86095 0.33159 0.66778 0.0
C153 C 0.82083 0.24972 0.68907 0.0
H154 H 0.85636 0.42312 0.66329 0.0
C155 C 0.74727 0.19966 0.72686 0.0
H156 H 0.91887 0.37246 0.63959 0.0
C157 C 0.71185 0.2292 0.74072 0.0
C158 C 0.75044 0.30957 0.71761 0.0
H159 H 0.71509 0.13625 0.74383 0.0
H160 H 0.65253 0.18782 0.76763 0.0
C161 C 0.82579 0.36097 0.68169 0.0
C162 C 0.7584 0.79433 0.20483 0.0
C163 C 0.7858 0.82465 0.14832 0.0
H164 H 0.65362 0.7263 0.26736 0.0
C165 C 0.73018 0.81575 0.11293 0.0
H166 H 0.79975 0.7997 0.23294 0.0
C167 C 0.64888 0.77749 0.13353 0.0
C168 C 0.62029 0.74564 0.18986 0.0
H169 H 0.74944 0.8384 0.06916 0.0
H170 H 0.60771 0.77165 0.10486 0.0
C171 C 0.67574 0.75406 0.22508 0.0
C172 C 0.80583 0.75794 0.70486 0.0
C173 C 0.82183 0.77894 0.64672 0.0
H174 H 0.7477 0.6586 0.76932 0.0
C175 C 0.79135 0.71436 0.60902 0.0
H176 H 0.82843 0.8065 0.73491 0.0
C177 C 0.74633 0.63062 0.62904 0.0
C178 C 0.73082 0.60937 0.68729 0.0
H179 H 0.80294 0.72869 0.56397 0.0
H180 H 0.72459 0.58277 0.59864 0.0
C181 C 0.76055 0.67376 0.72482 0.0
C182 C 0.27979 0.80738 0.42223 0.0
C183 C 0.19344 0.75651 0.40573 0.0
H184 H 0.38193 0.81705 0.42765 0.0
C185 C 0.14691 0.6793 0.37594 0.0
H186 H 0.31791 0.86802 0.44416 0.0
C187 C 0.18434 0.65107 0.36579 0.0
C188 C 0.26848 0.69979 0.38525 0.0
H189 H 0.08001 0.63837 0.36302 0.0
H190 H 0.14631 0.58956 0.34499 0.0
C191 C 0.31661 0.7787 0.41255 0.0
C192 C 0.26294 0.16938 0.98909 0.0
C193 C 0.20284 0.15412 0.95449 0.0
H194 H 0.39094 0.22447 0.9954 0.0
C195 C 0.22701 0.18299 0.89754 0.0
H196 H 0.24589 0.14726 1.03301 0.0
C197 C 0.3109 0.22807 0.87599 0.0
C198 C 0.37113 0.24371 0.91069 0.0
H199 H 0.1819 0.17237 0.87001 0.0
H200 H 0.32993 0.25378 0.83318 0.0
C201 C 0.34597 0.21349 0.96742 0.0
C202 C 0.18593 0.2205 0.40048 0.0
C203 C 0.16479 0.19627 0.45813 0.0
H204 H 0.24709 0.32248 0.33745 0.0
C205 C 0.18712 0.25693 0.49617 0.0
H206 H 0.16994 0.17511 0.37021 0.0
C207 C 0.22873 0.33973 0.47695 0.0
C208 C 0.24993 0.36446 0.41923 0.0
H209 H 0.17172 0.2402 0.54086 0.0
H210 H 0.24417 0.38441 0.50766 0.0
C211 C 0.22883 0.30421 0.38137 0.0
C212 C 0.67806 0.15202 0.94188 0.0
C213 C 0.75997 0.19224 0.91984 0.0
H214 H 0.58352 0.15293 0.94517 0.0
C215 C 0.80765 0.26286 0.88012 0.0
H216 H 0.63906 0.09623 0.9716 0.0
C217 C 0.77549 0.2953 0.86487 0.0
C218 C 0.6947 0.25619 0.88837 0.0
H219 H 0.87094 0.29476 0.86249 0.0
H220 H 0.81499 0.35255 0.83642 0.0
C221 C 0.64594 0.18386 0.92643 0.0
C222 C 0.77586 0.93559 0.42071 0.0
C223 C 0.80211 0.89578 0.42942 0.0
H224 H 0.67485 0.91863 0.38972 0.0
C225 C 0.75695 0.81658 0.403 0.0
H226 H 0.81002 -0.00298 0.44013 0.0
C227 C 0.68012 0.77212 0.37476 0.0
C228 C 0.64927 0.80775 0.37043 0.0
H229 H 0.77615 0.78462 0.40829 0.0
H230 H 0.6398 0.70545 0.36214 0.0
C231 C 0.69943 0.89148 0.39132 0.0
C232 C 0.8112 0.74431 0.90621 0.0
C233 C 0.89528 0.7958 0.92771 0.0
H234 H 0.69999 0.62442 0.86701 0.0
C235 C 0.93984 0.77542 0.91478 0.0
H236 H 0.77539 0.75869 0.91507 0.0
C237 C 0.89713 0.69953 0.88571 0.0
C238 C 0.81012 0.64413 0.86882 0.0
H239 H 0.00502 0.81441 0.9304 0.0
H240 H 0.92918 0.68034 0.88048 0.0
C241 C 0.76846 0.66827 0.87773 0.0
loop_
_geom_bond_atom_site_label_1
_geom_bond_atom_site_label_2
_geom_bond_distance
_geom_bond_site_symmetry_2
_ccdc_geom_bond_type
Pr0 C2 2.880 . S
Pr0 O20 2.562 . S
Pr0 O21 2.490 . S
Pr0 O22 2.695 1_655 S
Pr0 O23 2.512 1_655 S
Pr0 O25 2.437 1_656 S
Pr0 O28 2.436 1_546 S
Pr0 O30 2.438 1_545 S
Pr1 C11 2.880 . S
Pr1 O22 2.436 1_564 S
Pr1 O24 2.438 1_565 S
Pr1 O26 2.562 . S
Pr1 O27 2.490 . S
Pr1 O28 2.695 1_455 S
Pr1 O29 2.512 1_455 S
Pr1 O31 2.442 1_455 S
C2 Pr0 2.880 . S
C2 C3 1.491 . S
C2 O20 1.254 . S
C2 O21 1.225 . S
C3 C2 1.491 . S
C3 C4 1.392 . S
C3 C8 1.356 . S
C4 C3 1.392 . S
C4 C5 1.368 . S
C4 H32 0.929 . S
C5 C4 1.368 . S
C5 C6 1.386 . S
C5 H33 0.929 . S
C6 C5 1.386 . S
C6 C7 1.373 . S
C7 C6 1.373 . S
C7 C8 1.409 . S
C7 H34 0.931 . S
C8 C3 1.356 . S
C8 C7 1.409 . S
C8 H35 0.930 . S
C9 O22 1.270 . S
C9 O23 1.248 . S
C10 O24 1.267 . S
C10 O25 1.278 . S
C11 Pr1 2.880 . S
C11 C12 1.491 . S
C11 O26 1.254 . S
C11 O27 1.225 . S
C12 C11 1.491 . S
C12 C13 1.392 . S
C12 C17 1.356 . S
C13 C12 1.392 . S
C13 C14 1.368 . S
C13 H36 0.929 . S
C14 C13 1.368 . S
C14 C15 1.386 . S
C14 H37 0.929 . S
C15 C14 1.386 . S
C15 C16 1.373 . S
C16 C15 1.373 . S
C16 C17 1.409 . S
C16 H38 0.931 . S
C17 C12 1.356 . S
C17 C16 1.409 . S
C17 H39 0.930 . S
C18 O28 1.270 . S
C18 O29 1.248 . S
C19 O30 1.267 . S
C19 O31 1.270 1_556 S
O20 Pr0 2.562 . S
O20 C2 1.254 . S
O21 Pr0 2.490 . S
O21 C2 1.225 . S
O22 Pr0 2.695 1_455 S
O22 Pr1 2.436 1_546 S
O22 C9 1.270 . S
O23 Pr0 2.512 1_455 S
O23 C9 1.248 . S
O24 Pr1 2.438 1_545 S
O24 C10 1.267 . S
O25 Pr0 2.437 1_454 S
O25 C10 1.278 . S
O26 Pr1 2.562 . S
O26 C11 1.254 . S
O27 Pr1 2.490 . S
O27 C11 1.225 . S
O28 Pr0 2.436 1_564 S
O28 Pr1 2.695 1_655 S
O28 C18 1.270 . S
O29 Pr1 2.512 1_655 S
O29 C18 1.248 . S
O30 Pr0 2.438 1_565 S
O30 C19 1.267 . S
O31 Pr1 2.442 1_655 S
O31 C19 1.270 1_554 S
H32 C4 0.929 . S
H33 C5 0.929 . S
H34 C7 0.931 . S
H35 C8 0.930 . S
H36 C13 0.929 . S
H37 C14 0.929 . S
H38 C16 0.931 . S
H39 C17 0.930 . S
Pr40 C42 2.880 1_455 S
Pr40 O60 2.562 1_455 S
Pr40 O61 2.490 1_455 S
Pr40 O62 2.695 1_445 S
Pr40 O63 2.512 1_445 S
Pr40 O65 2.437 1_445 S
Pr40 O68 2.436 . S
Pr40 O70 2.438 . S
Pr41 C51 2.880 . S
Pr41 O62 2.436 1_455 S
Pr41 O64 2.438 1_455 S
Pr41 O66 2.562 . S
Pr41 O67 2.490 . S
Pr41 O68 2.695 1_565 S
Pr41 O69 2.512 1_565 S
Pr41 O71 2.437 1_565 S
C42 Pr40 2.880 1_655 S
C42 C43 1.491 . S
C42 O60 1.254 . S
C42 O61 1.225 . S
C43 C42 1.491 . S
C43 C44 1.392 . S
C43 C48 1.356 . S
C44 C43 1.392 . S
C44 C45 1.368 . S
C44 H72 0.929 . S
C45 C44 1.368 . S
C45 C46 1.386 . S
C45 H73 0.929 . S
C46 C45 1.386 . S
C46 C47 1.373 . S
C47 C46 1.373 . S
C47 C48 1.409 . S
C47 H74 0.931 . S
C48 C43 1.356 . S
C48 C47 1.409 . S
C48 H75 0.930 . S
C49 O62 1.270 . S
C49 O63 1.248 . S
C50 O64 1.267 . S
C50 O65 1.278 . S
C51 Pr41 2.880 . S
C51 C52 1.491 . S
C51 O66 1.254 . S
C51 O67 1.225 . S
C52 C51 1.491 . S
C52 C53 1.392 . S
C52 C57 1.356 . S
C53 C52 1.392 . S
C53 C54 1.368 . S
C53 H76 0.929 1_565 S
C54 C53 1.368 . S
C54 C55 1.386 . S
C54 H77 0.929 . S
C55 C54 1.386 . S
C55 C56 1.373 . S
C56 C55 1.373 . S
C56 C57 1.409 . S
C56 H78 0.931 . S
C57 C52 1.356 . S
C57 C56 1.409 . S
C57 H79 0.930 . S
C58 O68 1.270 . S
C58 O69 1.248 . S
C59 O70 1.267 . S
C59 O71 1.278 . S
O60 Pr40 2.562 1_655 S
O60 C42 1.254 . S
O61 Pr40 2.490 1_655 S
O61 C42 1.225 . S
O62 Pr40 2.695 1_665 S
O62 Pr41 2.436 1_655 S
O62 C49 1.270 . S
O63 Pr40 2.512 1_665 S
O63 C49 1.248 . S
O64 Pr41 2.438 1_655 S
O64 C50 1.267 . S
O65 Pr40 2.437 1_665 S
O65 C50 1.278 . S
O66 Pr41 2.562 . S
O66 C51 1.254 . S
O67 Pr41 2.490 . S
O67 C51 1.225 . S
O68 Pr40 2.436 . S
O68 Pr41 2.695 1_545 S
O68 C58 1.270 . S
O69 Pr41 2.512 1_545 S
O69 C58 1.248 . S
O70 Pr40 2.438 . S
O70 C59 1.267 . S
O71 Pr41 2.437 1_545 S
O71 C59 1.278 . S
H72 C44 0.929 . S
H73 C45 0.929 . S
H74 C47 0.931 . S
H75 C48 0.930 . S
H76 C53 0.929 1_545 S
H77 C54 0.929 . S
H78 C56 0.931 . S
H79 C57 0.930 . S
Zn80 O86 1.920 . S
Zn80 O92 1.898 . S
Zn80 O95 1.905 . S
Zn81 O89 1.905 . S
Zn81 O90 1.898 . S
Zn81 O98 1.920 . S
Zn82 O85 2.080 . S
Zn82 O88 2.114 . S
Zn82 O91 2.120 . S
Zn82 O93 2.120 . S
Zn82 O94 2.114 . S
Zn82 O97 2.080 . S
C83 O88 1.166 . S
C83 O89 1.182 . S
C84 O90 1.167 . S
C84 O91 1.299 . S
O85 Zn82 2.080 . S
O85 C99 1.305 . S
O86 Zn80 1.920 . S
O86 C99 1.234 . S
C87 O92 1.167 . S
C87 O93 1.299 . S
O88 Zn82 2.114 . S
O88 C83 1.166 . S
O89 Zn81 1.905 . S
O89 C83 1.182 . S
O90 Zn81 1.898 . S
O90 C84 1.167 . S
O91 Zn82 2.120 . S
O91 C84 1.299 . S
O92 Zn80 1.898 . S
O92 C87 1.167 . S
O93 Zn82 2.120 . S
O93 C87 1.299 . S
O94 Zn82 2.114 . S
O94 C96 1.166 . S
O95 Zn80 1.905 . S
O95 C96 1.182 . S
C96 O94 1.166 . S
C96 O95 1.182 . S
O97 Zn82 2.080 . S
O97 C100 1.305 . S
O98 Zn81 1.920 . S
O98 C100 1.234 . S
C99 O85 1.305 . S
C99 O86 1.234 . S
C100 O97 1.305 . S
C100 O98 1.234 . S
Zn101 O107 1.920 . S
Zn101 O113 1.898 . S
Zn101 O116 1.905 . S
Zn102 O110 1.905 . S
Zn102 O111 1.898 . S
Zn102 O119 1.920 . S
Zn103 O106 2.080 . S
Zn103 O109 2.114 . S
Zn103 O112 2.120 . S
Zn103 O114 2.120 . S
Zn103 O115 2.114 . S
Zn103 O118 2.080 . S
C104 O109 1.166 . S
C104 O110 1.182 . S
C105 O111 1.167 . S
C105 O112 1.299 . S
O106 Zn103 2.080 . S
O106 C120 1.305 . S
O107 Zn101 1.920 . S
O107 C120 1.234 . S
C108 O113 1.167 . S
C108 O114 1.299 . S
O109 Zn103 2.114 . S
O109 C104 1.166 . S
O110 Zn102 1.905 . S
O110 C104 1.182 . S
O111 Zn102 1.898 . S
O111 C105 1.167 . S
O112 Zn103 2.120 . S
O112 C105 1.299 . S
O113 Zn101 1.898 . S
O113 C108 1.167 . S
O114 Zn103 2.120 . S
O114 C108 1.299 . S
O115 Zn103 2.114 . S
O115 C117 1.166 . S
O116 Zn101 1.905 . S
O116 C117 1.182 . S
C117 O115 1.166 . S
C117 O116 1.182 . S
O118 Zn103 2.080 . S
O118 C121 1.305 . S
O119 Zn102 1.920 . S
O119 C121 1.234 . S
C120 O106 1.305 . S
C120 O107 1.234 . S
C121 O118 1.305 . S
C121 O119 1.234 . S
C122 C123 1.387 . S
C122 H126 0.950 . S
C122 C131 1.390 . S
C123 C122 1.387 . S
C123 C125 1.387 . S
H124 C131 0.950 . S
C125 C123 1.387 . S
C125 C127 1.390 . S
C125 H129 0.950 . S
H126 C122 0.950 . S
C127 C125 1.390 . S
C127 C128 1.387 . S
C127 H130 0.950 . S
C128 C127 1.387 . S
C128 C131 1.387 . S
H129 C125 0.950 . S
H130 C127 0.950 . S
C131 C122 1.390 . S
C131 H124 0.950 . S
C131 C128 1.387 . S
C132 C133 1.387 . S
C132 H136 0.950 . S
C132 C141 1.390 . S
C133 C132 1.387 . S
C133 C135 1.387 . S
H134 C141 0.950 . S
C135 C133 1.387 . S
C135 C137 1.390 . S
C135 H139 0.950 . S
H136 C132 0.950 . S
C137 C135 1.390 . S
C137 C138 1.387 . S
C137 H140 0.950 . S
C138 C137 1.387 . S
C138 C141 1.387 . S
H139 C135 0.950 . S
H140 C137 0.950 . S
C141 C132 1.390 . S
C141 H134 0.950 . S
C141 C138 1.387 . S
C142 C143 1.387 . S
C142 H146 0.950 . S
C142 C151 1.390 . S
C143 C142 1.387 . S
C143 C145 1.387 . S
H144 C151 0.950 . S
C145 C143 1.387 . S
C145 C147 1.390 . S
C145 H149 0.950 . S
H146 C142 0.950 . S
C147 C145 1.390 . S
C147 C148 1.387 . S
C147 H150 0.950 . S
C148 C147 1.387 . S
C148 C151 1.387 . S
H149 C145 0.950 . S
H150 C147 0.950 . S
C151 C142 1.390 . S
C151 H144 0.950 . S
C151 C148 1.387 . S
C152 C153 1.387 . S
C152 H156 0.950 . S
C152 C161 1.390 . S
C153 C152 1.387 . S
C153 C155 1.387 . S
H154 C161 0.950 . S
C155 C153 1.387 . S
C155 C157 1.390 . S
C155 H159 0.950 . S
H156 C152 0.950 . S
C157 C155 1.390 . S
C157 C158 1.387 . S
C157 H160 0.950 . S
C158 C157 1.387 . S
C158 C161 1.387 . S
H159 C155 0.950 . S
H160 C157 0.950 . S
C161 C152 1.390 . S
C161 H154 0.950 . S
C161 C158 1.387 . S
C162 C163 1.387 . S
C162 H166 0.950 . S
C162 C171 1.390 . S
C163 C162 1.387 . S
C163 C165 1.387 . S
H164 C171 0.950 . S
C165 C163 1.387 . S
C165 C167 1.390 . S
C165 H169 0.950 . S
H166 C162 0.950 . S
C167 C165 1.390 . S
C167 C168 1.387 . S
C167 H170 0.950 . S
C168 C167 1.387 . S
C168 C171 1.387 . S
H169 C165 0.950 . S
H170 C167 0.950 . S
C171 C162 1.390 . S
C171 H164 0.950 . S
C171 C168 1.387 . S
C172 C173 1.387 . S
C172 H176 0.950 . S
C172 C181 1.390 . S
C173 C172 1.387 . S
C173 C175 1.387 . S
H174 C181 0.950 . S
C175 C173 1.387 . S
C175 C177 1.390 . S
C175 H179 0.950 . S
H176 C172 0.950 . S
C177 C175 1.390 . S
C177 C178 1.387 . S
C177 H180 0.950 . S
C178 C177 1.387 . S
C178 C181 1.387 . S
H179 C175 0.950 . S
H180 C177 0.950 . S
C181 C172 1.390 . S
C181 H174 0.950 . S
C181 C178 1.387 . S
C182 C183 1.387 . S
C182 H186 0.950 . S
C182 C191 1.390 . S
C183 C182 1.387 . S
C183 C185 1.387 . S
H184 C191 0.950 . S
C185 C183 1.387 . S
C185 C187 1.390 . S
C185 H189 0.950 . S
H186 C182 0.950 . S
C187 C185 1.390 . S
C187 C188 1.387 . S
C187 H190 0.950 . S
C188 C187 1.387 . S
C188 C191 1.387 . S
H189 C185 0.950 . S
H190 C187 0.950 . S
C191 C182 1.390 . S
C191 H184 0.950 . S
C191 C188 1.387 . S
C192 C193 1.387 . S
C192 H196 0.950 . S
C192 C201 1.390 . S
C193 C192 1.387 . S
C193 C195 1.387 . S
H194 C201 0.950 . S
C195 C193 1.387 . S
C195 C197 1.390 . S
C195 H199 0.950 . S
H196 C192 0.950 . S
C197 C195 1.390 . S
C197 C198 1.387 . S
C197 H200 0.950 . S
C198 C197 1.387 . S
C198 C201 1.387 . S
H199 C195 0.950 . S
H200 C197 0.950 . S
C201 C192 1.390 . S
C201 H194 0.950 . S
C201 C198 1.387 . S
C202 C203 1.387 . S
C202 H206 0.950 . S
C202 C211 1.390 . S
C203 C202 1.387 . S
C203 C205 1.387 . S
H204 C211 0.950 . S
C205 C203 1.387 . S
C205 C207 1.390 . S
C205 H209 0.950 . S
H206 C202 0.950 . S
C207 C205 1.390 . S
C207 C208 1.387 . S
C207 H210 0.950 . S
C208 C207 1.387 . S
C208 C211 1.387 . S
H209 C205 0.950 . S
H210 C207 0.950 . S
C211 C202 1.390 . S
C211 H204 0.950 . S
C211 C208 1.387 . S
C212 C213 1.387 . S
C212 H216 0.950 . S
C212 C221 1.390 . S
C213 C212 1.387 . S
C213 C215 1.387 . S
H214 C221 0.950 . S
C215 C213 1.387 . S
C215 C217 1.390 . S
C215 H219 0.950 . S
H216 C212 0.950 . S
C217 C215 1.390 . S
C217 C218 1.387 . S
C217 H220 0.950 . S
C218 C217 1.387 . S
C218 C221 1.387 . S
H219 C215 0.950 . S
H220 C217 0.950 . S
C221 C212 1.390 . S
C221 H214 0.950 . S
C221 C218 1.387 . S
C222 C223 1.387 . S
C222 H226 0.950 . S
C222 C231 1.390 . S
C223 C222 1.387 . S
C223 C225 1.387 . S
H224 C231 0.950 . S
C225 C223 1.387 . S
C225 C227 1.390 . S
C225 H229 0.950 . S
H226 C222 0.950 . S
C227 C225 1.390 . S
C227 C228 1.387 . S
C227 H230 0.950 . S
C228 C227 1.387 . S
C228 C231 1.387 . S
H229 C225 0.950 . S
H230 C227 0.950 . S
C231 C222 1.390 . S
C231 H224 0.950 . S
C231 C228 1.387 . S
C232 C233 1.387 . S
C232 H236 0.950 . S
C232 C241 1.390 . S
C233 C232 1.387 . S
C233 C235 1.387 . S
H234 C241 0.950 . S
C235 C233 1.387 . S
C235 C237 1.390 . S
C235 H239 0.950 . S
H236 C232 0.950 . S
C237 C235 1.390 . S
C237 C238 1.387 . S
C237 H240 0.950 . S
C238 C237 1.387 . S
C238 C241 1.387 . S
H239 C235 0.950 . S
H240 C237 0.950 . S
C241 C232 1.390 . S
C241 H234 0.950 . S
C241 C238 1.387 . S
C123 C15 1.412 . S
C128 C99 1.348 . S
C133 C59 1.355 . S
C138 C105 1.180 . S
C143 C10 1.433 . S
C148 C96 1.306 . S
C153 C46 1.567 . S
C158 C121 1.463 . S
C163 C18 1.883 . S
C168 C87 1.700 . S
C178 C104 1.785 . S
C173 C49 1.916 . S
C183 C55 1.412 . S
C188 C100 1.344 . S
C198 C117 1.789 . S
C193 C9 1.918 . S
C208 C84 1.701 . S
C203 C58 1.884 . S
C218 C120 1.464 . S
C213 C6 1.568 . S
C228 C83 1.310 . S
C223 C50 1.437 . S
C238 C108 1.178 . S
C233 C19 1.355 . S
