# Generated by pormake.
# Topology tsx, (6,3)-cn, num edge types: 1
# Building blocks:
#     Node 0, Type 0, BuildingBlock: LEVNOQ01_clean_sbu_1, # of connection points: 6
#     Node 1, Type 0, BuildingBlock: LEVNOQ01_clean_sbu_1, # of connection points: 6
#     Node 2, Type 1, BuildingBlock: OLANEW_clean_sbu_2, # of connection points: 3
#     Node 3, Type 1, BuildingBlock: OLANEW_clean_sbu_2, # of connection points: 3
#     Node 4, Type 1, BuildingBlock: OLANEW_clean_sbu_2, # of connection points: 3
#     Node 5, Type 1, BuildingBlock: OLANEW_clean_sbu_2, # of connection points: 3
#     Edge 6, Type (0, 1), None
#     Edge 7, Type (0, 1), None
#     Edge 8, Type (0, 1), None
#     Edge 9, Type (0, 1), None
#     Edge 10, Type (0, 1), None
#     Edge 11, Type (0, 1), None
#     Edge 12, Type (0, 1), None
#     Edge 13, Type (0, 1), None
#     Edge 14, Type (0, 1), None
#     Edge 15, Type (0, 1), None
#     Edge 16, Type (0, 1), None
#     Edge 17, Type (0, 1), None
# Relax obj value: 0.039
# Max RMSD: 0.097
# Mean RMSD: 0.048
data_MOF--net-tsx--node1-LEVNOQ01_clean_sbu_1--node2-OLANEW_clean_sbu_2--edge1-none
_symmetry_space_group_name_H-M    P1
_symmetry_Int_Tables_number       1
_symmetry_cell_setting            triclinic
loop_
_symmetry_equiv_pos_as_xyz
'x, y, z'
_cell_length_a     9.941891
_cell_length_b     12.49892
_cell_length_c     14.730546
_cell_angle_alpha  99.795622
_cell_angle_beta   93.144663
_cell_angle_gamma 93.196911
loop_
_atom_site_label
_atom_site_type_symbol
_atom_site_fract_x
_atom_site_fract_y
_atom_site_fract_z
_atom_type_partial_charge
O0 O 0.15484 0.07043 0.28966 0.0
Mg1 Mg 0.28948 0.12809 0.19664 0.0
O2 O 0.99363 -0.02169 0.19019 0.0
Mg3 Mg 0.04127 0.00673 0.04173 0.0
O4 O 0.15674 0.16364 0.09773 0.0
O5 O 0.301 0.29137 0.17068 0.0
O6 O 0.10534 0.03138 0.89791 0.0
O7 O 0.83908 0.09321 0.02442 0.0
Mg8 Mg 0.83663 0.86121 0.86439 0.0
O9 O 0.93813 0.84844 0.98297 0.0
O10 O 0.98828 0.91862 0.78397 0.0
O11 O 0.70502 -0.01782 0.9161 0.0
O12 O 0.83306 0.70311 0.90248 0.0
C13 C 0.35503 0.91981 0.07614 0.0
C14 C 0.04649 0.0094 0.27257 0.0
C15 C 0.20298 0.2631 0.10944 0.0
C16 C 0.08237 -0.00864 0.81249 0.0
C17 C 0.72632 0.06856 0.97628 0.0
C18 C 0.90391 0.74732 0.97598 0.0
O19 O 0.41103 0.00308 0.12947 0.0
O20 O 0.23107 0.91502 0.04886 0.0
O21 O 0.65484 0.57043 0.78966 0.0
Mg22 Mg 0.78948 0.62809 0.69664 0.0
O23 O 0.49363 0.47831 0.69019 0.0
Mg24 Mg 0.54127 0.50673 0.54173 0.0
O25 O 0.65674 0.66364 0.59773 0.0
O26 O 0.80101 0.79137 0.67068 0.0
O27 O 0.60534 0.53138 0.39791 0.0
O28 O 0.33908 0.59321 0.52442 0.0
Mg29 Mg 0.33663 0.36121 0.36439 0.0
O30 O 0.43813 0.34844 0.48297 0.0
O31 O 0.48828 0.41861 0.28398 0.0
O32 O 0.20501 0.48218 0.4161 0.0
O33 O 0.33306 0.20311 0.40248 0.0
C34 C 0.85503 0.41981 0.57614 0.0
C35 C 0.54649 0.5094 0.77257 0.0
C36 C 0.70298 0.7631 0.60944 0.0
C37 C 0.58237 0.49136 0.31249 0.0
C38 C 0.22632 0.56856 0.47628 0.0
C39 C 0.40391 0.24732 0.47598 0.0
O40 O 0.91103 0.50308 0.62947 0.0
O41 O 0.73107 0.41502 0.54886 0.0
O42 O 0.93867 0.86409 0.33165 0.0
Cd43 Cd 0.91579 0.78636 0.47204 0.0
O44 O 0.02506 0.00228 0.43239 0.0
Cd45 Cd 0.11379 0.16589 0.48744 0.0
O46 O 0.05761 0.32543 0.55421 0.0
C47 C 0.93037 0.32543 0.54188 0.0
O48 O 0.86377 0.238 0.4946 0.0
C49 C 0.99661 0.95889 0.34845 0.0
C50 C 0.1181 0.64394 0.48333 0.0
O51 O 0.00297 0.6133 0.44071 0.0
O52 O 0.13821 0.74287 0.52452 0.0
O53 O 0.30199 0.04236 0.77617 0.0
Cd54 Cd 0.49613 0.06416 0.68439 0.0
O55 O 0.14411 0.00741 0.66166 0.0
Cd56 Cd 0.93156 0.96417 0.60975 0.0
O57 O 0.7234 0.92613 0.54696 0.0
C58 C 0.65203 0.84025 0.55352 0.0
O59 O 0.5334 0.81996 0.5082 0.0
C60 C 0.1793 0.01804 0.74727 0.0
C61 C 0.44073 0.18445 0.54745 0.0
O62 O 0.4121 0.08155 0.5341 0.0
O63 O 0.49668 0.23117 0.6256 0.0
O64 O 0.43867 0.36409 0.83165 0.0
Cd65 Cd 0.41579 0.28636 0.97204 0.0
O66 O 0.52506 0.50228 0.93239 0.0
Cd67 Cd 0.61379 0.66589 0.98744 0.0
O68 O 0.55761 0.82543 0.05421 0.0
C69 C 0.43038 0.82543 0.04188 0.0
O70 O 0.36377 0.738 0.9946 0.0
C71 C 0.49661 0.45889 0.84845 0.0
C72 C 0.6181 0.14394 0.98333 0.0
O73 O 0.50298 0.1133 0.94071 0.0
O74 O 0.63821 0.24288 0.02452 0.0
O75 O 0.80199 0.54236 0.27617 0.0
Cd76 Cd 0.99612 0.56415 0.18438 0.0
O77 O 0.6441 0.50741 0.16166 0.0
Cd78 Cd 0.43156 0.46418 0.10975 0.0
O79 O 0.22339 0.42613 0.04696 0.0
C80 C 0.15203 0.34025 0.05352 0.0
O81 O 0.0334 0.31996 1.0082 0.0
C82 C 0.6793 0.51803 0.24726 0.0
C83 C 0.94073 0.68445 0.04745 0.0
O84 O 0.9121 0.58155 0.03409 0.0
O85 O 0.99667 0.73117 0.1256 0.0
loop_
_geom_bond_atom_site_label_1
_geom_bond_atom_site_label_2
_geom_bond_distance
_geom_bond_site_symmetry_2
_ccdc_geom_bond_type
O0 Mg1 1.990 . S
O0 C14 1.253 . S
Mg1 O0 1.990 . S
Mg1 O4 2.180 . S
Mg1 O5 2.117 . S
Mg1 O19 2.030 1_545 S
O2 Mg3 2.072 1_565 S
O2 C14 1.260 1_565 S
Mg3 O2 2.072 1_545 S
Mg3 O4 2.099 . S
Mg3 O6 2.079 1_544 S
Mg3 O7 2.072 1_455 S
Mg3 O9 2.099 1_444 S
Mg3 O20 2.079 1_544 S
O4 Mg1 2.180 . S
O4 Mg3 2.099 . S
O4 C15 1.279 . S
O5 Mg1 2.117 . S
O5 C15 1.250 . S
O6 Mg3 2.079 1_566 S
O6 C16 1.264 1_465 S
O7 Mg3 2.072 1_655 S
O7 C17 1.260 . S
Mg8 O9 2.180 . S
Mg8 O10 2.030 1_565 S
Mg8 O11 1.990 1_565 S
Mg8 O12 2.117 . S
O9 Mg3 2.099 1_666 S
O9 Mg8 2.180 . S
O9 C18 1.279 1_556 S
O10 Mg8 2.030 1_545 S
O10 C16 1.248 . S
O11 Mg8 1.990 1_545 S
O11 C17 1.253 1_556 S
O12 Mg8 2.117 . S
O12 C18 1.250 1_556 S
C13 O19 1.248 . S
C13 O20 1.264 1_554 S
C14 O0 1.253 . S
C14 O2 1.260 1_545 S
C15 O4 1.279 . S
C15 O5 1.250 . S
C16 O6 1.264 1_645 S
C16 O10 1.248 . S
C17 O7 1.260 . S
C17 O11 1.253 1_554 S
C18 O9 1.279 1_554 S
C18 O12 1.250 1_554 S
O19 Mg1 2.030 1_565 S
O19 C13 1.248 . S
O20 Mg3 2.079 1_566 S
O20 C13 1.264 1_556 S
O21 Mg22 1.990 . S
O21 C35 1.253 . S
Mg22 O21 1.990 . S
Mg22 O25 2.180 . S
Mg22 O26 2.117 . S
Mg22 O40 2.030 . S
O23 Mg24 2.072 . S
O23 C35 1.260 . S
Mg24 O23 2.072 . S
Mg24 O25 2.099 . S
Mg24 O27 2.079 . S
Mg24 O28 2.072 . S
Mg24 O30 2.099 . S
Mg24 O41 2.079 . S
O25 Mg22 2.180 . S
O25 Mg24 2.099 . S
O25 C36 1.279 . S
O26 Mg22 2.117 . S
O26 C36 1.250 . S
O27 Mg24 2.079 . S
O27 C37 1.264 . S
O28 Mg24 2.072 . S
O28 C38 1.260 . S
Mg29 O30 2.180 . S
Mg29 O31 2.030 . S
Mg29 O32 1.990 . S
Mg29 O33 2.117 . S
O30 Mg24 2.099 . S
O30 Mg29 2.180 . S
O30 C39 1.279 . S
O31 Mg29 2.030 . S
O31 C37 1.248 . S
O32 Mg29 1.990 . S
O32 C38 1.253 . S
O33 Mg29 2.117 . S
O33 C39 1.250 . S
C34 O40 1.248 . S
C34 O41 1.264 . S
C35 O21 1.253 . S
C35 O23 1.260 . S
C36 O25 1.279 . S
C36 O26 1.250 . S
C37 O27 1.264 . S
C37 O31 1.248 . S
C38 O28 1.260 . S
C38 O32 1.253 . S
C39 O30 1.279 . S
C39 O33 1.250 . S
O40 Mg22 2.030 . S
O40 C34 1.248 . S
O41 Mg24 2.079 . S
O41 C34 1.264 . S
O42 Cd43 2.300 . S
O42 C49 1.275 1_565 S
Cd43 O42 2.300 . S
Cd43 O51 2.381 . S
Cd43 O52 2.378 . S
O44 Cd45 2.385 . S
O44 C49 1.255 . S
Cd45 O44 2.385 . S
Cd45 O46 2.317 1_455 S
O46 Cd45 2.317 1_655 S
O46 C47 1.232 . S
C47 O46 1.232 . S
C47 O48 1.218 . S
O48 C47 1.218 . S
C49 O42 1.275 1_545 S
C49 O44 1.255 . S
C50 O51 1.258 . S
C50 O52 1.256 . S
O51 Cd43 2.381 . S
O51 C50 1.258 . S
O52 Cd43 2.378 . S
O52 C50 1.256 . S
O53 Cd54 2.300 . S
O53 C60 1.275 . S
Cd54 O53 2.300 . S
Cd54 O62 2.381 . S
Cd54 O63 2.378 . S
O55 Cd56 2.385 . S
O55 C60 1.255 1_565 S
Cd56 O55 2.385 . S
Cd56 O57 2.317 1_455 S
O57 Cd56 2.317 1_655 S
O57 C58 1.232 . S
C58 O57 1.232 . S
C58 O59 1.218 . S
O59 C58 1.218 . S
C60 O53 1.275 . S
C60 O55 1.255 1_545 S
C61 O62 1.258 . S
C61 O63 1.256 . S
O62 Cd54 2.381 . S
O62 C61 1.258 . S
O63 Cd54 2.378 . S
O63 C61 1.256 . S
O64 Cd65 2.300 . S
O64 C71 1.275 . S
Cd65 O64 2.300 . S
Cd65 O73 2.381 . S
Cd65 O74 2.378 1_556 S
O66 Cd67 2.385 . S
O66 C71 1.255 . S
Cd67 O66 2.385 . S
Cd67 O68 2.317 1_556 S
O68 Cd67 2.317 1_554 S
O68 C69 1.232 . S
C69 O68 1.232 . S
C69 O70 1.218 1_554 S
O70 C69 1.218 1_556 S
C71 O64 1.275 . S
C71 O66 1.255 . S
C72 O73 1.258 1_554 S
C72 O74 1.256 . S
O73 Cd65 2.381 . S
O73 C72 1.258 1_556 S
O74 Cd65 2.378 1_554 S
O74 C72 1.256 . S
O75 Cd76 2.300 . S
O75 C82 1.275 . S
Cd76 O75 2.300 . S
Cd76 O84 2.381 . S
Cd76 O85 2.378 1_554 S
O77 Cd78 2.385 . S
O77 C82 1.255 . S
Cd78 O77 2.385 . S
Cd78 O79 2.318 . S
O79 Cd78 2.318 . S
O79 C80 1.232 . S
C80 O79 1.232 . S
C80 O81 1.218 . S
O81 C80 1.218 . S
C82 O75 1.275 . S
C82 O77 1.255 . S
C83 O84 1.258 . S
C83 O85 1.256 1_554 S
O84 Cd76 2.381 . S
O84 C83 1.258 . S
O85 Cd76 2.378 1_556 S
O85 C83 1.256 1_556 S
C80 C15 0.959 . S
C13 C69 1.095 . S
C18 C83 1.213 . S
C17 C72 1.438 . S
C36 C58 0.959 . S
C34 C47 1.095 . S
C61 C39 1.213 . S
C50 C38 1.438 . S
C14 C49 1.427 . S
C16 C60 1.304 1_655 S
C71 C35 1.427 . S
C37 C82 1.304 . S
