# Generated by pormake.
# Topology pth, (4,4)-cn, num edge types: 1
# Building blocks:
#     Node 0, Type 0, BuildingBlock: NAHDIM_clean_sbu_0, # of connection points: 4
#     Node 1, Type 0, BuildingBlock: NAHDIM_clean_sbu_0, # of connection points: 4
#     Node 2, Type 0, BuildingBlock: NAHDIM_clean_sbu_0, # of connection points: 4
#     Node 3, Type 1, BuildingBlock: NAWXER_clean_sbu_0, # of connection points: 4
#     Node 4, Type 1, BuildingBlock: NAWXER_clean_sbu_0, # of connection points: 4
#     Node 5, Type 1, BuildingBlock: NAWXER_clean_sbu_0, # of connection points: 4
#     Edge 6, Type (0, 1), None
#     Edge 7, Type (0, 1), None
#     Edge 8, Type (0, 1), None
#     Edge 9, Type (0, 1), None
#     Edge 10, Type (0, 1), None
#     Edge 11, Type (0, 1), None
#     Edge 12, Type (0, 1), None
#     Edge 13, Type (0, 1), None
#     Edge 14, Type (0, 1), None
#     Edge 15, Type (0, 1), None
#     Edge 16, Type (0, 1), None
#     Edge 17, Type (0, 1), None
# Relax obj value: 0.053
# Max RMSD: 0.178
# Mean RMSD: 0.101
data_MOF--net-pth--node1-NAHDIM_clean_sbu_0--node2-NAWXER_clean_sbu_0--edge1-none
_symmetry_space_group_name_H-M    P1
_symmetry_Int_Tables_number       1
_symmetry_cell_setting            triclinic
loop_
_symmetry_equiv_pos_as_xyz
'x, y, z'
_cell_length_a     9.8376657
_cell_length_b     9.6464471
_cell_length_c     26.659059
_cell_angle_alpha  91.415064
_cell_angle_beta   90.134577
_cell_angle_gamma 120.96648
loop_
_atom_site_label
_atom_site_type_symbol
_atom_site_fract_x
_atom_site_fract_y
_atom_site_fract_z
_atom_type_partial_charge
C0 C 0.25969 0.97812 0.10042 0.0
O1 O 0.40384 0.09951 0.09313 0.0
O2 O 0.06068 0.26063 0.07837 0.0
Zn3 Zn 0.10148 0.11377 0.03396 0.0
O4 O 0.91326 0.96606 -0.01073 0.0
C5 C 0.39525 0.24947 0.96748 0.0
O6 O 0.41677 0.12794 0.97478 0.0
O7 O 0.14058 0.9724 0.0793 0.0
C8 C 0.80138 0.97961 0.97075 0.0
O9 O 0.79381 0.10962 -0.0198 0.0
C10 C 0.93434 0.24686 0.09608 0.0
O11 O 0.7959 0.11708 0.08591 0.0
O12 O 0.28252 0.25559 -0.01131 0.0
C13 C 0.1257 0.35153 0.30527 0.0
O14 O 0.98139 0.23394 0.31473 0.0
O15 O 0.0914 0.96453 0.31978 0.0
Zn16 Zn 0.16073 0.15327 0.36835 0.0
O17 O 0.98363 0.12819 0.4125 0.0
C18 C 0.44048 0.28193 0.43736 0.0
O19 O 0.46166 0.42681 0.43231 0.0
O20 O 0.24186 0.35312 0.32666 0.0
C21 C 0.86902 0.99696 0.42853 0.0
O22 O 0.8551 0.85796 0.4156 0.0
C23 C 0.96207 0.86615 0.29677 0.0
O24 O 0.83384 0.87338 0.3039 0.0
O25 O 0.32841 0.16093 0.41362 0.0
C26 C 0.27018 0.94216 0.62916 0.0
O27 O 0.14471 0.79756 0.63404 0.0
O28 O 0.9681 0.09403 0.65386 0.0
Zn29 Zn 0.12095 0.07019 0.69814 0.0
O30 O 0.24094 0.25923 0.74668 0.0
C31 C 0.88802 0.87257 0.76154 0.0
O32 O 0.86126 0.98927 0.75174 0.0
O33 O 0.28104 0.06322 0.65303 0.0
C34 C 0.20893 0.3561 0.7696 0.0
O35 O 0.07254 0.34689 0.76214 0.0
C36 C 0.98607 0.2253 0.63772 0.0
O37 O 0.11281 0.36418 0.6506 0.0
O38 O 1.00218 0.87091 0.7401 0.0
C39 C 0.96498 0.75391 0.25937 0.0
C40 C 0.94963 0.371 0.13231 0.0
O41 O 0.09948 0.76958 0.24981 0.0
Zn42 Zn 0.20131 0.66774 0.20308 0.0
O43 O 0.84052 0.64634 0.23597 0.0
Zn44 Zn 0.94494 0.55904 0.19474 0.0
O45 O 1.01944 0.45514 0.24904 0.0
O46 O 0.28109 0.57874 0.25293 0.0
O47 O 0.82977 0.37624 0.1476 0.0
O48 O 0.08828 0.47242 0.14987 0.0
O49 O 0.33874 0.85046 0.16085 0.0
O50 O 0.08315 0.75334 0.147 0.0
C51 C 0.1457 0.46976 0.26806 0.0
C52 C 0.22816 0.85461 0.13726 0.0
C53 C 0.87089 0.21768 0.60113 0.0
C54 C 0.53595 0.25401 0.47348 0.0
O55 O 0.76351 0.07905 0.58334 0.0
Zn56 Zn 0.57462 0.98279 0.52859 0.0
O57 O 0.88032 0.34569 0.58547 0.0
Zn58 Zn 0.70494 0.24035 0.53778 0.0
O59 O 0.50327 0.11558 0.58506 0.0
O60 O 0.38858 0.85297 0.56834 0.0
O61 O 0.64982 0.37064 0.4981 0.0
O62 O 0.49863 0.10808 0.48141 0.0
O63 O 0.64247 0.877 0.48082 0.0
O64 O 0.79533 0.14358 0.48297 0.0
C65 C 0.3932 0.96978 0.593 0.0
C66 C 0.76217 1.00484 0.46515 0.0
C67 C 0.48718 0.3722 0.93037 0.0
C68 C 0.79008 0.75518 0.79905 0.0
O69 O 0.44313 0.4723 0.92019 0.0
Zn70 Zn 0.49906 0.66508 0.87193 0.0
O71 O 0.60215 0.37676 0.90699 0.0
Zn72 Zn 0.6476 0.55831 0.86434 0.0
O73 O 0.72998 0.75419 0.91725 0.0
O74 O 0.5669 0.84846 0.91867 0.0
O75 O 0.81696 0.64754 0.81465 0.0
O76 O 0.67806 0.76908 0.81778 0.0
O77 O 0.30652 0.57563 0.83038 0.0
O78 O 0.44324 0.45448 0.81727 0.0
C79 C 0.69245 0.85495 0.9344 0.0
C80 C 0.32388 0.46877 0.80727 0.0
loop_
_geom_bond_atom_site_label_1
_geom_bond_atom_site_label_2
_geom_bond_distance
_geom_bond_site_symmetry_2
_ccdc_geom_bond_type
C0 O1 1.160 . S
C0 O7 1.185 . S
O1 C0 1.160 . S
O2 Zn3 1.899 . S
O2 C10 1.284 1_455 S
Zn3 O2 1.899 . S
Zn3 O4 2.032 1_445 S
Zn3 O7 2.086 1_545 S
Zn3 O12 1.977 . S
O4 Zn3 2.032 1_665 S
O4 C8 1.278 1_554 S
C5 O6 1.203 1_556 S
C5 O12 1.267 1_556 S
O6 C5 1.203 1_554 S
O7 C0 1.185 . S
O7 Zn3 2.086 1_565 S
C8 O4 1.278 1_556 S
C8 O9 1.211 1_565 S
O9 C8 1.211 1_545 S
C10 O2 1.284 1_655 S
C10 O11 1.273 . S
O11 C10 1.273 . S
O12 Zn3 1.977 . S
O12 C5 1.267 1_554 S
C13 O14 1.160 . S
C13 O20 1.185 . S
O14 C13 1.160 . S
O15 Zn16 1.899 1_565 S
O15 C23 1.285 . S
Zn16 O15 1.899 1_545 S
Zn16 O17 2.032 1_455 S
Zn16 O20 2.086 . S
Zn16 O25 1.977 . S
O17 Zn16 2.032 1_655 S
O17 C21 1.278 . S
C18 O19 1.203 1_545 S
C18 O25 1.267 . S
O19 C18 1.203 1_565 S
O20 C13 1.185 . S
O20 Zn16 2.086 . S
C21 O17 1.278 . S
C21 O22 1.211 1_545 S
O22 C21 1.211 1_565 S
C23 O15 1.285 . S
C23 O24 1.273 1_455 S
O24 C23 1.273 1_655 S
O25 Zn16 1.977 . S
O25 C18 1.267 . S
C26 O27 1.160 . S
C26 O33 1.185 1_545 S
O27 C26 1.160 . S
O28 Zn29 1.899 1_655 S
O28 C36 1.284 . S
Zn29 O28 1.899 1_455 S
Zn29 O30 2.032 . S
Zn29 O33 2.086 1_545 S
Zn29 O38 1.977 1_445 S
O30 Zn29 2.032 . S
O30 C34 1.278 . S
C31 O32 1.203 . S
C31 O38 1.267 . S
O32 C31 1.203 . S
O33 C26 1.185 1_565 S
O33 Zn29 2.086 1_565 S
C34 O30 1.278 . S
C34 O35 1.211 . S
O35 C34 1.211 . S
C36 O28 1.284 . S
C36 O37 1.273 . S
O37 C36 1.273 . S
O38 Zn29 1.977 1_665 S
O38 C31 1.267 . S
C39 O41 1.247 . S
C39 O43 1.258 1_455 S
C40 O47 1.247 1_455 S
C40 O48 1.258 . S
O41 C39 1.247 . S
O41 Zn42 2.028 . S
Zn42 O41 2.028 . S
Zn42 O46 2.035 . S
Zn42 O48 2.035 . S
Zn42 O49 2.028 . S
O43 C39 1.258 1_655 S
O43 Zn44 2.035 . S
Zn44 O43 2.035 . S
Zn44 O45 2.028 . S
Zn44 O47 2.028 . S
Zn44 O50 2.035 . S
O45 Zn44 2.028 . S
O45 C51 1.247 1_655 S
O46 Zn42 2.035 . S
O46 C51 1.258 . S
O47 C40 1.247 1_655 S
O47 Zn44 2.028 . S
O48 C40 1.258 . S
O48 Zn42 2.035 . S
O49 Zn42 2.028 . S
O49 C52 1.247 . S
O50 Zn44 2.035 . S
O50 C52 1.258 1_655 S
C51 O45 1.247 1_455 S
C51 O46 1.258 . S
C52 O49 1.247 . S
C52 O50 1.258 1_455 S
C53 O55 1.247 1_545 S
C53 O57 1.258 . S
C54 O61 1.247 . S
C54 O62 1.258 1_545 S
O55 C53 1.247 1_565 S
O55 Zn56 2.028 . S
Zn56 O55 2.028 . S
Zn56 O60 2.035 . S
Zn56 O62 2.035 . S
Zn56 O63 2.028 . S
O57 C53 1.258 . S
O57 Zn58 2.035 . S
Zn58 O57 2.035 . S
Zn58 O59 2.028 . S
Zn58 O61 2.028 . S
Zn58 O64 2.035 . S
O59 Zn58 2.028 . S
O59 C65 1.247 . S
O60 Zn56 2.035 . S
O60 C65 1.258 1_565 S
O61 C54 1.247 . S
O61 Zn58 2.028 . S
O62 C54 1.258 1_565 S
O62 Zn56 2.035 . S
O63 Zn56 2.028 . S
O63 C66 1.247 1_565 S
O64 Zn58 2.035 . S
O64 C66 1.258 . S
C65 O59 1.247 . S
C65 O60 1.258 1_545 S
C66 O63 1.247 1_545 S
C66 O64 1.258 . S
C67 O69 1.247 . S
C67 O71 1.258 . S
C68 O75 1.247 . S
C68 O76 1.258 . S
O69 C67 1.247 . S
O69 Zn70 2.028 . S
Zn70 O69 2.028 . S
Zn70 O74 2.035 . S
Zn70 O76 2.035 . S
Zn70 O77 2.028 . S
O71 C67 1.258 . S
O71 Zn72 2.035 . S
Zn72 O71 2.035 . S
Zn72 O73 2.028 . S
Zn72 O75 2.028 . S
Zn72 O78 2.035 . S
O73 Zn72 2.028 . S
O73 C79 1.247 . S
O74 Zn70 2.035 . S
O74 C79 1.258 . S
O75 C68 1.247 . S
O75 Zn72 2.028 . S
O76 C68 1.258 . S
O76 Zn70 2.035 . S
O77 Zn70 2.028 . S
O77 C80 1.247 . S
O78 Zn72 2.035 . S
O78 C80 1.258 . S
C79 O73 1.247 . S
C79 O74 1.258 . S
C80 O77 1.247 . S
C80 O78 1.258 . S
C40 C10 1.531 1_455 S
C21 C66 1.524 . S
C31 C68 1.392 . S
C0 C52 1.451 . S
C54 C18 1.376 . S
C34 C80 1.424 . S
C53 C36 1.563 . S
C8 C79 1.433 . S
C39 C23 1.539 . S
C65 C26 1.354 . S
C67 C5 1.397 . S
C13 C51 1.473 . S
