# Generated by pormake.
# Topology pyr, (3,6)-cn, num edge types: 1
# Building blocks:
#     Node 0, Type 0, BuildingBlock: OLANEW_clean_sbu_2, # of connection points: 3
#     Node 1, Type 0, BuildingBlock: OLANEW_clean_sbu_2, # of connection points: 3
#     Node 2, Type 0, BuildingBlock: OLANEW_clean_sbu_2, # of connection points: 3
#     Node 3, Type 0, BuildingBlock: OLANEW_clean_sbu_2, # of connection points: 3
#     Node 4, Type 0, BuildingBlock: OLANEW_clean_sbu_2, # of connection points: 3
#     Node 5, Type 0, BuildingBlock: OLANEW_clean_sbu_2, # of connection points: 3
#     Node 6, Type 0, BuildingBlock: OLANEW_clean_sbu_2, # of connection points: 3
#     Node 7, Type 0, BuildingBlock: OLANEW_clean_sbu_2, # of connection points: 3
#     Node 8, Type 1, BuildingBlock: BETDEL_clean_sbu_0, # of connection points: 6
#     Node 9, Type 1, BuildingBlock: BETDEL_clean_sbu_0, # of connection points: 6
#     Node 10, Type 1, BuildingBlock: BETDEL_clean_sbu_0, # of connection points: 6
#     Node 11, Type 1, BuildingBlock: BETDEL_clean_sbu_0, # of connection points: 6
#     Edge 12, Type (0, 1), None
#     Edge 13, Type (0, 1), None
#     Edge 14, Type (0, 1), None
#     Edge 15, Type (0, 1), None
#     Edge 16, Type (0, 1), None
#     Edge 17, Type (0, 1), None
#     Edge 18, Type (0, 1), None
#     Edge 19, Type (0, 1), None
#     Edge 20, Type (0, 1), None
#     Edge 21, Type (0, 1), None
#     Edge 22, Type (0, 1), None
#     Edge 23, Type (0, 1), None
#     Edge 24, Type (0, 1), None
#     Edge 25, Type (0, 1), None
#     Edge 26, Type (0, 1), None
#     Edge 27, Type (0, 1), None
#     Edge 28, Type (0, 1), None
#     Edge 29, Type (0, 1), None
#     Edge 30, Type (0, 1), None
#     Edge 31, Type (0, 1), None
#     Edge 32, Type (0, 1), None
#     Edge 33, Type (0, 1), None
#     Edge 34, Type (0, 1), None
#     Edge 35, Type (0, 1), None
# Relax obj value: 0.092
# Max RMSD: 0.143
# Mean RMSD: 0.107
data_MOF--net-pyr--node1-OLANEW_clean_sbu_2--node2-BETDEL_clean_sbu_0--edge1-none
_symmetry_space_group_name_H-M    P1
_symmetry_Int_Tables_number       1
_symmetry_cell_setting            triclinic
loop_
_symmetry_equiv_pos_as_xyz
'x, y, z'
_cell_length_a     18.057037
_cell_length_b     20.276832
_cell_length_c     17.393059
_cell_angle_alpha  97.32166
_cell_angle_beta   89.688993
_cell_angle_gamma 101.48275
loop_
_atom_site_label
_atom_site_type_symbol
_atom_site_fract_x
_atom_site_fract_y
_atom_site_fract_z
_atom_type_partial_charge
O0 O 0.41294 0.2615 0.20153 0.0
Cd1 Cd 0.34217 0.35293 0.23647 0.0
O2 O 0.30855 0.18539 0.18187 0.0
Cd3 Cd 0.24398 0.08314 0.17387 0.0
O4 O 0.17948 0.04876 0.27105 0.0
C5 C 0.20896 0.07075 0.33789 0.0
O6 O 0.27715 0.10869 0.34473 0.0
C7 C 0.38007 0.19972 0.18662 0.0
C8 C 0.22832 0.37955 0.14315 0.0
O9 O 0.29824 0.40379 0.13253 0.0
O10 O 0.21183 0.33904 0.19436 0.0
O11 O 0.30967 0.78732 1.00394 0.0
Cd12 Cd 0.24495 0.68748 0.92246 0.0
O13 O 0.2579 0.84077 0.92458 0.0
Cd14 Cd 0.23066 0.91946 0.86252 0.0
O15 O 0.16852 0.94946 0.77013 0.0
C16 C 0.16926 0.91901 0.70164 0.0
O17 O 0.20922 0.87157 0.68691 0.0
C18 C 0.30314 0.84277 0.98082 0.0
C19 C 0.3523 0.65426 0.81782 0.0
O20 O 0.31906 0.70314 0.80969 0.0
O21 O 0.33322 0.6193 0.87369 0.0
O22 O 0.78811 0.40998 0.91762 0.0
Cd23 Cd 0.66566 0.36106 0.84716 0.0
O24 O 0.83492 0.3237 0.94948 0.0
Cd25 Cd 0.73625 0.24662 0.90682 0.0
O26 O 0.64343 0.16225 0.92224 0.0
C27 C 0.62119 0.16355 0.99164 0.0
O28 O 0.65289 0.21376 0.04373 0.0
C29 C 0.83997 0.38706 0.94922 0.0
C30 C 0.61266 0.43944 0.7428 0.0
O31 O 0.59651 0.44672 0.81482 0.0
O32 O 0.65495 0.39716 0.72034 0.0
O33 O 0.95135 0.78628 0.39421 0.0
Cd34 Cd 0.87502 0.68325 0.31924 0.0
O35 O 0.92182 0.75088 0.50746 0.0
Cd36 Cd 0.84681 0.65511 0.46828 0.0
O37 O 0.73973 0.61468 0.51925 0.0
C38 C 0.71095 0.65877 0.56117 0.0
O39 O 0.74531 0.72277 0.5686 0.0
C40 C 0.95572 0.7959 0.46804 0.0
C41 C 0.94942 0.60032 0.21809 0.0
O42 O 0.92439 0.64884 0.19352 0.0
O43 O 0.94127 0.59229 0.28974 0.0
O44 O 0.78236 0.8009 0.7405 0.0
Cd45 Cd 0.72164 0.71459 0.81594 0.0
O46 O 0.80757 0.85993 0.85438 0.0
Cd47 Cd 0.83626 0.9487 0.94025 0.0
O48 O 0.76013 0.99349 0.01921 0.0
C49 C 0.69211 0.96105 0.01968 0.0
O50 O 0.67187 0.90293 0.97499 0.0
C51 C 0.81529 0.85487 0.78146 0.0
C52 C 0.84065 0.6734 0.88254 0.0
O53 O 0.81313 0.64568 0.81579 0.0
O54 O 0.8102 0.71929 0.92009 0.0
O55 O 0.80091 0.17546 0.35038 0.0
Cd56 Cd 0.9257 0.20373 0.40995 0.0
O57 O 0.81398 0.271 0.30026 0.0
Cd58 Cd 0.76571 0.3439 0.24589 0.0
O59 O 0.70661 0.41784 0.30604 0.0
C60 C 0.64037 0.39504 0.32788 0.0
O61 O 0.60851 0.33138 0.30595 0.0
C62 C 0.77394 0.21424 0.31154 0.0
C63 C 0.9316 0.10378 0.50259 0.0
O64 O 0.90674 0.15706 0.52853 0.0
O65 O 0.95614 0.09826 0.43333 0.0
O66 O 0.50777 0.87122 0.28063 0.0
Cd67 Cd 0.43497 0.7566 0.3037 0.0
O68 O 0.41053 0.88656 0.21383 0.0
Cd69 Cd 0.34305 0.78349 0.20854 0.0
O70 O 0.26291 0.69195 0.15927 0.0
C71 C 0.20562 0.7024 0.12421 0.0
O72 O 0.19719 0.76509 0.1227 0.0
C73 C 0.47678 0.9086 0.24232 0.0
C74 C 0.47325 0.67878 0.41582 0.0
O75 O 0.49944 0.67344 0.34712 0.0
O76 O 0.43232 0.72321 0.43345 0.0
O77 O 0.16725 0.5036 0.78788 0.0
Cd78 Cd 0.19171 0.42866 0.67089 0.0
O79 O 0.12232 0.41697 0.85085 0.0
Cd80 Cd 0.14677 0.33786 0.76223 0.0
O81 O 0.12935 0.23853 0.6913 0.0
C82 C 0.09298 0.18899 0.72282 0.0
O83 O 0.07045 0.19987 0.79441 0.0
C84 C 0.1364 0.48052 0.84751 0.0
C85 C 0.33394 0.45416 0.60395 0.0
O86 O 0.28701 0.49323 0.59887 0.0
O87 O 0.31522 0.40385 0.64253 0.0
Dy88 Dy 0.08877 0.01034 0.5305 0.0
C89 C 0.86295 0.9075 0.74319 0.0
C90 C 0.16702 0.05324 0.40658 0.0
Dy91 Dy 0.9691 0.97427 0.65338 0.0
O92 O 0.1955 0.06035 0.47631 0.0
O93 O 0.09607 0.02503 0.40518 0.0
O94 O 0.15455 0.93613 0.56741 0.0
O95 O 0.09184 0.98588 0.64923 0.0
C96 C 0.13148 0.94125 0.63839 0.0
C97 C 0.93312 0.05127 0.55223 0.0
O98 O 0.03232 0.07198 0.71523 0.0
O99 O 0.09298 0.11096 0.60554 0.0
O100 O 0.92896 0.94177 0.76889 0.0
O101 O 0.8556 0.91079 0.66988 0.0
O102 O 0.90863 0.05414 0.62259 0.0
O103 O 0.96799 0.00334 0.53795 0.0
O104 O 0.02545 0.91112 0.47146 0.0
O105 O 0.97566 0.87399 0.58454 0.0
C106 C 0.07262 0.12081 0.67929 0.0
C107 C 0.98964 0.86267 0.50978 0.0
Dy108 Dy 0.58671 0.09971 0.19174 0.0
C109 C 0.35353 0.90519 0.01492 0.0
C110 C 0.70018 0.18894 0.27352 0.0
Dy111 Dy 0.46266 0.0127 0.07162 0.0
O112 O 0.645 0.1496 0.30398 0.0
O113 O 0.6917 0.18092 0.19867 0.0
O114 O 0.58609 0.00471 0.24866 0.0
O115 O 0.4881 0.01772 0.19463 0.0
C116 C 0.51687 0.977 0.22815 0.0
C117 C 0.56159 0.11013 0.01499 0.0
O118 O 0.39747 0.08943 0.128 0.0
O119 O 0.4955 0.16154 0.20484 0.0
O120 O 0.35978 0.96581 0.99446 0.0
O121 O 0.40578 0.90442 0.06523 0.0
O122 O 0.52529 0.05706 0.97034 0.0
O123 O 0.53679 0.11019 0.08249 0.0
O124 O 0.65766 0.05044 0.10666 0.0
O125 O 0.56271 0.96187 0.05278 0.0
C126 C 0.42532 0.14642 0.17483 0.0
C127 C 0.63499 0.99162 0.06321 0.0
Dy128 Dy 0.54763 0.50129 0.51296 0.0
C129 C 0.40829 0.63681 0.76217 0.0
C130 C 0.6056 0.43525 0.38794 0.0
Dy131 Dy 0.49948 0.59992 0.64667 0.0
O132 O 0.53987 0.41486 0.4167 0.0
O133 O 0.64005 0.49159 0.42742 0.0
O134 O 0.44866 0.4232 0.54549 0.0
O135 O 0.44146 0.52581 0.55562 0.0
C136 C 0.40762 0.46776 0.56709 0.0
C137 C 0.63912 0.6393 0.59934 0.0
O138 O 0.54126 0.52311 0.71209 0.0
O139 O 0.59981 0.46522 0.61254 0.0
O140 O 0.44867 0.67858 0.72007 0.0
O141 O 0.41945 0.57573 0.74301 0.0
O142 O 0.60224 0.68184 0.63732 0.0
O143 O 0.60492 0.57917 0.60145 0.0
O144 O 0.52865 0.58704 0.44937 0.0
O145 O 0.46104 0.64151 0.54307 0.0
C146 C 0.5826 0.47729 0.6867 0.0
C147 C 0.48903 0.63435 0.47235 0.0
Dy148 Dy 0.06919 0.48317 0.07124 0.0
C149 C 0.90294 0.64978 0.91607 0.0
C150 C 0.16925 0.40643 0.10674 0.0
Dy151 Dy 1.00192 0.58813 0.98209 0.0
O152 O 0.09881 0.39724 0.12754 0.0
O153 O 0.18377 0.45567 0.06429 0.0
O154 O 0.01929 0.50826 0.18921 0.0
O155 O 1.00097 0.5575 0.09601 0.0
C156 C 0.98817 0.55541 0.16677 0.0
C157 C 0.10462 0.5249 0.90681 0.0
O158 O 0.08914 0.66183 0.05396 0.0
O159 O 0.15565 0.58232 0.09115 0.0
O160 O 0.93425 0.60255 0.88059 0.0
O161 O 0.9283 0.66627 0.98725 0.0
O162 O 0.09692 0.58591 0.89723 0.0
O163 O 0.05464 0.50074 0.9519 0.0
O164 O 0.96707 0.41449 1.00843 0.0
O165 O 0.90555 0.50039 0.98161 0.0
C166 C 0.14768 0.64592 0.08763 0.0
C167 C 0.90725 0.43565 0.98286 0.0
loop_
_geom_bond_atom_site_label_1
_geom_bond_atom_site_label_2
_geom_bond_distance
_geom_bond_site_symmetry_2
_ccdc_geom_bond_type
O0 Cd1 2.300 . S
O0 C7 1.275 . S
Cd1 O0 2.300 . S
Cd1 O9 2.381 . S
Cd1 O10 2.378 . S
O2 Cd3 2.385 . S
O2 C7 1.255 . S
Cd3 O2 2.385 . S
Cd3 O4 2.317 . S
O4 Cd3 2.317 . S
O4 C5 1.232 . S
C5 O4 1.232 . S
C5 O6 1.218 . S
O6 C5 1.218 . S
C7 O0 1.275 . S
C7 O2 1.255 . S
C8 O9 1.258 . S
C8 O10 1.256 . S
O9 Cd1 2.381 . S
O9 C8 1.258 . S
O10 Cd1 2.378 . S
O10 C8 1.256 . S
O11 Cd12 2.300 . S
O11 C18 1.275 . S
Cd12 O11 2.300 . S
Cd12 O20 2.381 . S
Cd12 O21 2.378 . S
O13 Cd14 2.385 . S
O13 C18 1.255 . S
Cd14 O13 2.385 . S
Cd14 O15 2.317 . S
O15 Cd14 2.317 . S
O15 C16 1.232 . S
C16 O15 1.232 . S
C16 O17 1.218 . S
O17 C16 1.218 . S
C18 O11 1.275 . S
C18 O13 1.255 . S
C19 O20 1.258 . S
C19 O21 1.256 . S
O20 Cd12 2.381 . S
O20 C19 1.258 . S
O21 Cd12 2.378 . S
O21 C19 1.256 . S
O22 Cd23 2.300 . S
O22 C29 1.275 . S
Cd23 O22 2.300 . S
Cd23 O31 2.381 . S
Cd23 O32 2.378 . S
O24 Cd25 2.385 . S
O24 C29 1.255 . S
Cd25 O24 2.385 . S
Cd25 O26 2.317 . S
O26 Cd25 2.317 . S
O26 C27 1.232 . S
C27 O26 1.232 . S
C27 O28 1.215 1_556 S
O28 C27 1.215 1_554 S
C29 O22 1.275 . S
C29 O24 1.255 . S
C30 O31 1.258 . S
C30 O32 1.256 . S
O31 Cd23 2.381 . S
O31 C30 1.258 . S
O32 Cd23 2.378 . S
O32 C30 1.256 . S
O33 Cd34 2.300 . S
O33 C40 1.275 . S
Cd34 O33 2.300 . S
Cd34 O42 2.381 . S
Cd34 O43 2.378 . S
O35 Cd36 2.385 . S
O35 C40 1.255 . S
Cd36 O35 2.385 . S
Cd36 O37 2.317 . S
O37 Cd36 2.317 . S
O37 C38 1.232 . S
C38 O37 1.232 . S
C38 O39 1.218 . S
O39 C38 1.218 . S
C40 O33 1.275 . S
C40 O35 1.255 . S
C41 O42 1.258 . S
C41 O43 1.256 . S
O42 Cd34 2.381 . S
O42 C41 1.258 . S
O43 Cd34 2.378 . S
O43 C41 1.256 . S
O44 Cd45 2.300 . S
O44 C51 1.275 . S
Cd45 O44 2.300 . S
Cd45 O53 2.381 . S
Cd45 O54 2.378 . S
O46 Cd47 2.385 . S
O46 C51 1.255 . S
Cd47 O46 2.385 . S
Cd47 O48 2.317 . S
O48 Cd47 2.317 . S
O48 C49 1.232 . S
C49 O48 1.232 . S
C49 O50 1.218 . S
O50 C49 1.218 . S
C51 O44 1.275 . S
C51 O46 1.255 . S
C52 O53 1.258 . S
C52 O54 1.256 . S
O53 Cd45 2.381 . S
O53 C52 1.258 . S
O54 Cd45 2.378 . S
O54 C52 1.256 . S
O55 Cd56 2.300 . S
O55 C62 1.275 . S
Cd56 O55 2.300 . S
Cd56 O64 2.381 . S
Cd56 O65 2.378 . S
O57 Cd58 2.385 . S
O57 C62 1.255 . S
Cd58 O57 2.385 . S
Cd58 O59 2.317 . S
O59 Cd58 2.317 . S
O59 C60 1.232 . S
C60 O59 1.232 . S
C60 O61 1.218 . S
O61 C60 1.218 . S
C62 O55 1.275 . S
C62 O57 1.255 . S
C63 O64 1.258 . S
C63 O65 1.256 . S
O64 Cd56 2.381 . S
O64 C63 1.258 . S
O65 Cd56 2.378 . S
O65 C63 1.256 . S
O66 Cd67 2.300 . S
O66 C73 1.275 . S
Cd67 O66 2.300 . S
Cd67 O75 2.381 . S
Cd67 O76 2.378 . S
O68 Cd69 2.385 . S
O68 C73 1.255 . S
Cd69 O68 2.385 . S
Cd69 O70 2.317 . S
O70 Cd69 2.317 . S
O70 C71 1.232 . S
C71 O70 1.232 . S
C71 O72 1.218 . S
O72 C71 1.218 . S
C73 O66 1.275 . S
C73 O68 1.255 . S
C74 O75 1.258 . S
C74 O76 1.256 . S
O75 Cd67 2.381 . S
O75 C74 1.258 . S
O76 Cd67 2.378 . S
O76 C74 1.256 . S
O77 Cd78 2.300 . S
O77 C84 1.275 . S
Cd78 O77 2.300 . S
Cd78 O86 2.381 . S
Cd78 O87 2.378 . S
O79 Cd80 2.385 . S
O79 C84 1.255 . S
Cd80 O79 2.385 . S
Cd80 O81 2.317 . S
O81 Cd80 2.317 . S
O81 C82 1.232 . S
C82 O81 1.232 . S
C82 O83 1.218 . S
O83 C82 1.218 . S
C84 O77 1.275 . S
C84 O79 1.255 . S
C85 O86 1.258 . S
C85 O87 1.256 . S
O86 Cd78 2.381 . S
O86 C85 1.258 . S
O87 Cd78 2.378 . S
O87 C85 1.256 . S
Dy88 O92 2.398 . S
Dy88 O93 2.491 . S
Dy88 O94 2.403 1_545 S
Dy88 O95 2.664 1_545 S
Dy88 O99 2.326 . S
Dy88 O103 2.310 1_455 S
Dy88 O104 2.351 1_445 S
C89 O100 1.185 . S
C89 O101 1.355 . S
C90 O92 1.185 . S
C90 O93 1.355 . S
Dy91 O95 2.310 1_645 S
Dy91 O98 2.351 1_655 S
Dy91 O100 2.398 1_545 S
Dy91 O101 2.491 1_545 S
Dy91 O102 2.403 . S
Dy91 O103 2.664 . S
Dy91 O105 2.326 1_545 S
O92 Dy88 2.398 . S
O92 C90 1.185 . S
O93 Dy88 2.491 . S
O93 C90 1.355 . S
O94 Dy88 2.403 1_565 S
O94 C96 1.254 . S
O95 Dy88 2.664 1_565 S
O95 Dy91 2.310 1_465 S
O95 C96 1.268 . S
C96 O94 1.254 . S
C96 O95 1.268 . S
C97 O102 1.254 . S
C97 O103 1.268 . S
O98 Dy91 2.351 1_455 S
O98 C106 1.249 . S
O99 Dy88 2.326 . S
O99 C106 1.267 . S
O100 C89 1.185 . S
O100 Dy91 2.398 1_565 S
O101 C89 1.355 . S
O101 Dy91 2.491 1_565 S
O102 Dy91 2.403 . S
O102 C97 1.254 . S
O103 Dy88 2.310 1_655 S
O103 Dy91 2.664 . S
O103 C97 1.268 . S
O104 Dy88 2.351 1_665 S
O104 C107 1.249 . S
O105 Dy91 2.326 1_565 S
O105 C107 1.267 . S
C106 O98 1.249 . S
C106 O99 1.267 . S
C107 O104 1.249 . S
C107 O105 1.267 . S
Dy108 O112 2.398 . S
Dy108 O113 2.491 . S
Dy108 O114 2.403 1_545 S
Dy108 O115 2.664 1_545 S
Dy108 O119 2.326 . S
Dy108 O123 2.310 . S
Dy108 O124 2.351 1_545 S
C109 O120 1.185 1_565 S
C109 O121 1.355 . S
C110 O112 1.185 . S
C110 O113 1.355 . S
Dy111 O115 2.310 1_545 S
Dy111 O118 2.351 . S
Dy111 O120 2.398 1_554 S
Dy111 O121 2.491 1_544 S
Dy111 O122 2.403 1_554 S
Dy111 O123 2.664 . S
Dy111 O125 2.323 1_544 S
O112 Dy108 2.398 . S
O112 C110 1.185 . S
O113 Dy108 2.491 . S
O113 C110 1.355 . S
O114 Dy108 2.403 1_565 S
O114 C116 1.254 . S
O115 Dy108 2.664 1_565 S
O115 Dy111 2.310 1_565 S
O115 C116 1.268 . S
C116 O114 1.254 . S
C116 O115 1.268 . S
C117 O122 1.254 1_554 S
C117 O123 1.268 . S
O118 Dy111 2.351 . S
O118 C126 1.249 . S
O119 Dy108 2.326 . S
O119 C126 1.267 . S
O120 C109 1.185 1_545 S
O120 Dy111 2.398 1_556 S
O121 C109 1.355 . S
O121 Dy111 2.491 1_566 S
O122 Dy111 2.403 1_556 S
O122 C117 1.254 1_556 S
O123 Dy108 2.310 . S
O123 Dy111 2.664 . S
O123 C117 1.268 . S
O124 Dy108 2.351 1_565 S
O124 C127 1.249 1_554 S
O125 Dy111 2.323 1_566 S
O125 C127 1.272 . S
C126 O118 1.249 . S
C126 O119 1.267 . S
C127 O124 1.249 1_556 S
C127 O125 1.272 . S
Dy128 O132 2.398 . S
Dy128 O133 2.491 . S
Dy128 O134 2.403 . S
Dy128 O135 2.664 . S
Dy128 O139 2.326 . S
Dy128 O143 2.310 . S
Dy128 O144 2.351 . S
C129 O140 1.185 . S
C129 O141 1.355 . S
C130 O132 1.185 . S
C130 O133 1.355 . S
Dy131 O135 2.310 . S
Dy131 O138 2.351 . S
Dy131 O140 2.398 . S
Dy131 O141 2.491 . S
Dy131 O142 2.403 . S
Dy131 O143 2.664 . S
Dy131 O145 2.326 . S
O132 Dy128 2.398 . S
O132 C130 1.185 . S
O133 Dy128 2.491 . S
O133 C130 1.355 . S
O134 Dy128 2.403 . S
O134 C136 1.254 . S
O135 Dy128 2.664 . S
O135 Dy131 2.310 . S
O135 C136 1.268 . S
C136 O134 1.254 . S
C136 O135 1.268 . S
C137 O142 1.254 . S
C137 O143 1.268 . S
O138 Dy131 2.351 . S
O138 C146 1.249 . S
O139 Dy128 2.326 . S
O139 C146 1.267 . S
O140 C129 1.185 . S
O140 Dy131 2.398 . S
O141 C129 1.355 . S
O141 Dy131 2.491 . S
O142 Dy131 2.403 . S
O142 C137 1.254 . S
O143 Dy128 2.310 . S
O143 Dy131 2.664 . S
O143 C137 1.268 . S
O144 Dy128 2.351 . S
O144 C147 1.249 . S
O145 Dy131 2.326 . S
O145 C147 1.267 . S
C146 O138 1.249 . S
C146 O139 1.267 . S
C147 O144 1.249 . S
C147 O145 1.267 . S
Dy148 O152 2.398 . S
Dy148 O153 2.491 . S
Dy148 O154 2.403 1_455 S
Dy148 O155 2.664 1_455 S
Dy148 O159 2.326 . S
Dy148 O163 2.310 1_554 S
Dy148 O164 2.351 1_455 S
C149 O160 1.185 . S
C149 O161 1.355 . S
C150 O152 1.185 . S
C150 O153 1.355 . S
Dy151 O155 2.310 1_456 S
Dy151 O158 2.351 1_556 S
Dy151 O160 2.398 1_455 S
Dy151 O161 2.491 1_455 S
Dy151 O162 2.403 . S
Dy151 O163 2.664 . S
Dy151 O165 2.326 1_455 S
O152 Dy148 2.398 . S
O152 C150 1.185 . S
O153 Dy148 2.491 . S
O153 C150 1.355 . S
O154 Dy148 2.403 1_655 S
O154 C156 1.254 . S
O155 Dy148 2.664 1_655 S
O155 Dy151 2.310 1_654 S
O155 C156 1.268 . S
C156 O154 1.254 . S
C156 O155 1.268 . S
C157 O162 1.254 . S
C157 O163 1.268 . S
O158 Dy151 2.351 1_554 S
O158 C166 1.249 . S
O159 Dy148 2.326 . S
O159 C166 1.267 . S
O160 C149 1.185 . S
O160 Dy151 2.398 1_655 S
O161 C149 1.355 . S
O161 Dy151 2.491 1_655 S
O162 Dy151 2.403 . S
O162 C157 1.254 . S
O163 Dy148 2.310 1_556 S
O163 Dy151 2.664 . S
O163 C157 1.268 . S
O164 Dy148 2.351 1_655 S
O164 C167 1.249 1_554 S
O165 Dy151 2.326 1_655 S
O165 C167 1.267 . S
C166 O158 1.249 . S
C166 O159 1.267 . S
C167 O164 1.249 1_556 S
C167 O165 1.267 . S
C5 C90 1.419 . S
C18 C109 1.196 . S
C146 C30 1.851 . S
C41 C156 2.000 . S
C126 C7 2.212 . S
C96 C16 1.203 . S
C167 C29 1.703 . S
C137 C38 1.210 . S
C8 C150 1.863 . S
C117 C27 2.231 1_554 S
C40 C107 2.225 . S
C19 C129 1.222 . S
C89 C51 1.442 . S
C62 C110 1.501 . S
C74 C147 2.188 . S
C84 C157 1.874 . S
C49 C127 1.796 . S
C97 C63 1.267 . S
C166 C71 1.745 . S
C136 C85 1.531 . S
C52 C149 1.867 . S
C116 C73 2.362 . S
C106 C82 1.611 . S
C60 C130 0.738 . S
