# Generated by pormake.
# Topology pth, (4,4)-cn, num edge types: 1
# Building blocks:
#     Node 0, Type 0, BuildingBlock: GALJAG_clean_sbu_0, # of connection points: 4
#     Node 1, Type 0, BuildingBlock: GALJAG_clean_sbu_0, # of connection points: 4
#     Node 2, Type 0, BuildingBlock: GALJAG_clean_sbu_0, # of connection points: 4
#     Node 3, Type 1, BuildingBlock: MUDLON_clean_sbu_0, # of connection points: 4
#     Node 4, Type 1, BuildingBlock: MUDLON_clean_sbu_0, # of connection points: 4
#     Node 5, Type 1, BuildingBlock: MUDLON_clean_sbu_0, # of connection points: 4
#     Edge 6, Type (0, 1), BuildingBlock: EYOCIG_clean_linker_4, # of connection points: 2
#     Edge 7, Type (0, 1), BuildingBlock: EYOCIG_clean_linker_4, # of connection points: 2
#     Edge 8, Type (0, 1), BuildingBlock: EYOCIG_clean_linker_4, # of connection points: 2
#     Edge 9, Type (0, 1), BuildingBlock: EYOCIG_clean_linker_4, # of connection points: 2
#     Edge 10, Type (0, 1), BuildingBlock: EYOCIG_clean_linker_4, # of connection points: 2
#     Edge 11, Type (0, 1), BuildingBlock: EYOCIG_clean_linker_4, # of connection points: 2
#     Edge 12, Type (0, 1), BuildingBlock: EYOCIG_clean_linker_4, # of connection points: 2
#     Edge 13, Type (0, 1), BuildingBlock: EYOCIG_clean_linker_4, # of connection points: 2
#     Edge 14, Type (0, 1), BuildingBlock: EYOCIG_clean_linker_4, # of connection points: 2
#     Edge 15, Type (0, 1), BuildingBlock: EYOCIG_clean_linker_4, # of connection points: 2
#     Edge 16, Type (0, 1), BuildingBlock: EYOCIG_clean_linker_4, # of connection points: 2
#     Edge 17, Type (0, 1), BuildingBlock: EYOCIG_clean_linker_4, # of connection points: 2
# Relax obj value: 0.043
# Max RMSD: 0.088
# Mean RMSD: 0.080
data_MOF--net-pth--node1-GALJAG_clean_sbu_0--node2-MUDLON_clean_sbu_0--edge1-EYOCIG_clean_linker_4
_symmetry_space_group_name_H-M    P1
_symmetry_Int_Tables_number       1
_symmetry_cell_setting            triclinic
loop_
_symmetry_equiv_pos_as_xyz
'x, y, z'
_cell_length_a     18.489509
_cell_length_b     18.518376
_cell_length_c     48.298519
_cell_angle_alpha  90.145693
_cell_angle_beta   90.184309
_cell_angle_gamma 119.92164
loop_
_atom_site_label
_atom_site_type_symbol
_atom_site_fract_x
_atom_site_fract_y
_atom_site_fract_z
_atom_type_partial_charge
In0 In 0.01685 0.01259 0.08302 0.0
O1 O 0.95537 0.08138 0.10154 0.0
O2 O 0.07543 0.10973 0.11698 0.0
C3 C 0.90384 0.89855 0.0487 0.0
C4 C 0.12927 0.12587 0.04882 0.0
C5 C 0.01763 0.902 0.11817 0.0
O6 O 0.88632 0.94187 0.0646 0.0
O7 O 0.97861 0.91456 0.04931 0.0
O8 O 0.07756 0.94356 0.10189 0.0
O9 O 0.95841 0.91727 0.11724 0.0
C10 C 0.0157 0.12423 0.11778 0.0
O11 O 0.1472 0.08259 0.06458 0.0
O12 O 0.05469 0.11025 0.04959 0.0
In13 In 0.01273 0.01308 0.41641 0.0
O14 O 0.07311 0.14359 0.39808 0.0
O15 O 0.95293 0.05232 0.38286 0.0
C16 C 0.12731 0.0135 0.45074 0.0
C17 C 0.90093 0.01475 0.45132 0.0
C18 C 0.01299 0.90104 0.38105 0.0
O19 O 0.14406 0.07348 0.43466 0.0
O20 O 0.05264 0.95476 0.45027 0.0
O21 O 0.95269 0.88259 0.39725 0.0
O22 O 0.07135 0.97567 0.38207 0.0
C23 C 0.01216 0.12664 0.38219 0.0
O24 O 0.88268 0.95338 0.43551 0.0
O25 O 0.97542 0.07344 0.45024 0.0
In26 In 0.01261 0.00824 0.75038 0.0
O27 O 0.9427 0.87746 0.76859 0.0
O28 O 0.91417 0.96895 0.7838 0.0
C29 C 0.12555 0.01046 0.71548 0.0
C30 C 0.89922 0.00725 0.71566 0.0
C31 C 0.12747 0.12237 0.78457 0.0
O32 O 0.0845 0.9499 0.7316 0.0
O33 O 0.10766 0.06778 0.7162 0.0
O34 O 0.08345 0.13921 0.76871 0.0
O35 O 0.11144 0.04771 0.7841 0.0
C36 C 0.89862 0.89447 0.78432 0.0
O37 O 0.94176 0.06783 0.73182 0.0
O38 O 0.91534 0.94864 0.71636 0.0
Mg39 Mg 0.03494 0.52222 0.2492 0.0
C40 C 0.99985 0.40026 0.29481 0.0
O41 O 0.92571 0.39151 0.29084 0.0
C42 C 1.00427 0.62141 0.20751 0.0
O43 O 0.92828 0.5681 0.2155 0.0
C44 C 1.00219 0.39183 0.20744 0.0
O45 O 0.92648 0.37017 0.21562 0.0
O46 O 0.06418 0.45596 0.21788 0.0
O47 O 0.0611 0.45268 0.28044 0.0
O48 O 0.06191 0.61993 0.27966 0.0
C49 C 1.00191 0.61354 0.29427 0.0
O50 O 0.92732 0.54816 0.29137 0.0
O51 O 0.06573 0.61815 0.21797 0.0
Mg52 Mg 0.52219 0.02985 0.58394 0.0
C53 C 0.40102 0.99825 0.53791 0.0
O54 O 0.39115 0.9236 0.54117 0.0
C55 C 0.61852 0.99477 0.62547 0.0
O56 O 0.56505 0.92007 0.61627 0.0
C57 C 0.39401 1.00191 0.6259 0.0
O58 O 0.36944 0.92544 0.61773 0.0
O59 O 0.45863 0.06227 0.61528 0.0
O60 O 0.45348 0.05813 0.55296 0.0
O61 O 0.62064 0.06078 0.55368 0.0
C62 C 0.61528 1.00226 0.5384 0.0
O63 O 0.5509 0.92692 0.54073 0.0
O64 O 0.61705 0.05759 0.61565 0.0
Mg65 Mg 0.50685 0.51854 0.91709 0.0
C66 C 0.41811 0.39604 0.87139 0.0
O67 O 0.48363 0.38724 0.8749 0.0
C68 C 0.63691 0.61522 0.95926 0.0
O69 O 0.65977 0.56276 0.9503 0.0
C70 C 0.40723 0.39111 0.95927 0.0
O71 O 0.45904 0.36624 0.95127 0.0
O72 O 0.41111 0.45536 0.94839 0.0
O73 O 0.40978 0.4483 0.88619 0.0
O74 O 0.57345 0.61584 0.8864 0.0
C75 C 0.62649 0.60998 0.87126 0.0
O76 O 0.63861 0.5464 0.87423 0.0
O77 O 0.5727 0.61325 0.94891 0.0
C78 C 0.01825 0.23665 0.15193 0.0
C79 C 0.01641 0.18514 0.13625 0.0
C80 C 0.018 0.29452 0.1709 0.0
C81 C 0.01392 0.34081 0.1876 0.0
C82 C 0.79178 0.02199 0.48471 0.0
C83 C 0.84121 0.01817 0.46941 0.0
C84 C 0.73297 0.02212 0.50329 0.0
C85 C 0.68111 0.01646 0.51959 0.0
C86 C 0.7808 0.78313 0.81653 0.0
C87 C 0.83475 0.8334 0.80174 0.0
C88 C 0.72192 0.72476 0.83512 0.0
C89 C 0.67672 0.67432 0.85188 0.0
C90 C 0.01792 0.79168 0.15243 0.0
C91 C 0.01732 0.84198 0.13684 0.0
C92 C 0.01914 0.7341 0.17121 0.0
C93 C 0.01655 0.68435 0.18778 0.0
C94 C 0.24216 0.01264 0.48321 0.0
C95 C 0.18924 0.01239 0.46847 0.0
C96 C 0.30188 0.01308 0.50167 0.0
C97 C 0.34865 0.00981 0.51845 0.0
C98 C 0.24503 0.23637 0.81672 0.0
C99 C 0.19144 0.18406 0.80208 0.0
C100 C 0.30469 0.29579 0.83515 0.0
C101 C 0.3546 0.34292 0.85191 0.0
C102 C 0.78518 0.00467 0.68207 0.0
C103 C 0.83718 0.00549 0.69737 0.0
C104 C 0.7274 0.00547 0.66309 0.0
C105 C 0.67914 0.00413 0.64596 0.0
C106 C 0.7908 0.7823 0.01617 0.0
C107 C 0.84271 0.83533 0.03099 0.0
C108 C 0.7323 0.72381 -0.00265 0.0
C109 C 0.68657 0.67567 0.97999 0.0
C110 C 0.01762 0.79079 0.34732 0.0
C111 C 0.01559 0.84118 0.36271 0.0
C112 C 0.01752 0.73121 0.32893 0.0
C113 C 0.01353 0.67926 0.31288 0.0
C114 C 0.24249 0.01953 0.6822 0.0
C115 C 0.18894 0.01465 0.69749 0.0
C116 C 0.30095 0.02096 0.6632 0.0
C117 C 0.34589 0.01624 0.64616 0.0
C118 C 0.23878 0.24188 0.01586 0.0
C119 C 0.18937 0.18872 0.03101 0.0
C120 C 0.29602 0.29959 -0.00315 0.0
C121 C 0.34532 0.34376 0.97967 0.0
C122 C 0.01053 0.24016 0.34956 0.0
C123 C 0.01062 0.18784 0.36438 0.0
C124 C 0.01136 0.29964 0.33106 0.0
C125 C 0.00933 0.34693 0.31432 0.0
loop_
_geom_bond_atom_site_label_1
_geom_bond_atom_site_label_2
_geom_bond_distance
_geom_bond_site_symmetry_2
_ccdc_geom_bond_type
In0 O1 2.294 1_455 S
In0 O2 2.326 . S
In0 O6 2.266 1_445 S
In0 O7 2.326 1_445 S
In0 O8 2.266 1_545 S
In0 O9 2.326 1_445 S
In0 O11 2.294 . S
In0 O12 2.326 . S
O1 In0 2.294 1_655 S
O1 C10 1.240 1_655 S
O2 In0 2.326 . S
O2 C10 1.252 . S
C3 O6 1.252 . S
C3 O7 1.260 . S
C4 O11 1.240 . S
C4 O12 1.252 . S
C5 O8 1.252 . S
C5 O9 1.260 1_455 S
O6 In0 2.266 1_665 S
O6 C3 1.252 . S
O7 In0 2.326 1_665 S
O7 C3 1.260 . S
O8 In0 2.266 1_565 S
O8 C5 1.252 . S
O9 In0 2.326 1_665 S
O9 C5 1.260 1_655 S
C10 O1 1.240 1_455 S
C10 O2 1.252 . S
O11 In0 2.294 . S
O11 C4 1.240 . S
O12 In0 2.326 . S
O12 C4 1.252 . S
In13 O14 2.294 . S
In13 O15 2.326 1_455 S
In13 O19 2.266 . S
In13 O20 2.326 1_545 S
In13 O21 2.266 1_445 S
In13 O22 2.326 1_545 S
In13 O24 2.294 1_445 S
In13 O25 2.326 1_455 S
O14 In13 2.294 . S
O14 C23 1.238 1_455 S
O15 In13 2.326 1_655 S
O15 C23 1.253 . S
C16 O19 1.258 . S
C16 O20 1.257 1_545 S
C17 O24 1.240 1_545 S
C17 O25 1.252 . S
C18 O21 1.252 1_455 S
C18 O22 1.260 . S
O19 In13 2.266 . S
O19 C16 1.258 . S
O20 In13 2.326 1_565 S
O20 C16 1.257 1_565 S
O21 In13 2.266 1_665 S
O21 C18 1.252 1_655 S
O22 In13 2.326 1_565 S
O22 C18 1.260 . S
C23 O14 1.238 1_655 S
C23 O15 1.253 . S
O24 In13 2.294 1_665 S
O24 C17 1.240 1_565 S
O25 In13 2.326 1_655 S
O25 C17 1.252 . S
In26 O27 2.294 1_445 S
In26 O28 2.326 1_445 S
In26 O32 2.266 1_545 S
In26 O33 2.326 . S
In26 O34 2.266 . S
In26 O35 2.326 . S
In26 O37 2.294 1_455 S
In26 O38 2.326 1_445 S
O27 In26 2.294 1_665 S
O27 C36 1.240 . S
O28 In26 2.326 1_665 S
O28 C36 1.252 . S
C29 O32 1.252 1_545 S
C29 O33 1.260 . S
C30 O37 1.240 1_565 S
C30 O38 1.252 . S
C31 O34 1.252 . S
C31 O35 1.260 . S
O32 In26 2.266 1_565 S
O32 C29 1.252 1_565 S
O33 In26 2.326 . S
O33 C29 1.260 . S
O34 In26 2.266 . S
O34 C31 1.252 . S
O35 In26 2.326 . S
O35 C31 1.260 . S
C36 O27 1.240 . S
C36 O28 1.252 . S
O37 In26 2.294 1_655 S
O37 C30 1.240 1_545 S
O38 In26 2.326 1_665 S
O38 C30 1.252 . S
Mg39 O46 2.141 . S
Mg39 O47 2.048 . S
Mg39 O48 2.048 . S
Mg39 O51 2.141 . S
C40 O41 1.310 1_455 S
C40 O47 1.196 . S
O41 C40 1.310 1_655 S
C42 O43 1.245 . S
C42 O51 1.289 1_655 S
O43 C42 1.245 . S
C44 O45 1.245 . S
C44 O46 1.289 1_655 S
O45 C44 1.245 . S
O46 Mg39 2.141 . S
O46 C44 1.289 1_455 S
O47 Mg39 2.048 . S
O47 C40 1.196 . S
O48 Mg39 2.048 . S
O48 C49 1.198 . S
C49 O48 1.198 . S
C49 O50 1.311 1_455 S
O50 C49 1.311 1_655 S
O51 Mg39 2.141 . S
O51 C42 1.289 1_455 S
Mg52 O59 2.141 . S
Mg52 O60 2.048 . S
Mg52 O61 2.048 . S
Mg52 O64 2.141 . S
C53 O54 1.321 . S
C53 O60 1.192 1_565 S
O54 C53 1.321 . S
C55 O56 1.245 . S
C55 O64 1.289 1_565 S
O56 C55 1.245 . S
C57 O58 1.245 . S
C57 O59 1.289 1_565 S
O58 C57 1.245 . S
O59 Mg52 2.141 . S
O59 C57 1.289 1_545 S
O60 Mg52 2.048 . S
O60 C53 1.192 1_545 S
O61 Mg52 2.048 . S
O61 C62 1.188 1_545 S
C62 O61 1.188 1_565 S
C62 O63 1.319 . S
O63 C62 1.319 . S
O64 Mg52 2.141 . S
O64 C55 1.289 1_545 S
Mg65 O72 2.141 . S
Mg65 O73 2.048 . S
Mg65 O74 2.048 . S
Mg65 O77 2.141 . S
C66 O67 1.313 . S
C66 O73 1.195 . S
O67 C66 1.313 . S
C68 O69 1.245 . S
C68 O77 1.289 . S
O69 C68 1.245 . S
C70 O71 1.245 . S
C70 O72 1.289 . S
O71 C70 1.245 . S
O72 Mg65 2.141 . S
O72 C70 1.289 . S
O73 Mg65 2.048 . S
O73 C66 1.195 . S
O74 Mg65 2.048 . S
O74 C75 1.195 . S
C75 O74 1.195 . S
C75 O76 1.313 . S
O76 C75 1.313 . S
O77 Mg65 2.141 . S
O77 C68 1.289 . S
C78 C79 1.170 . S
C78 C80 1.380 . S
C79 C78 1.170 . S
C80 C78 1.380 . S
C80 C81 1.170 . S
C81 C80 1.170 . S
C82 C83 1.170 . S
C82 C84 1.380 . S
C83 C82 1.170 . S
C84 C82 1.380 . S
C84 C85 1.170 . S
C85 C84 1.170 . S
C86 C87 1.170 . S
C86 C88 1.380 . S
C87 C86 1.170 . S
C88 C86 1.380 . S
C88 C89 1.170 . S
C89 C88 1.170 . S
C90 C91 1.170 . S
C90 C92 1.380 . S
C91 C90 1.170 . S
C92 C90 1.380 . S
C92 C93 1.170 . S
C93 C92 1.170 . S
C94 C95 1.170 . S
C94 C96 1.380 . S
C95 C94 1.170 . S
C96 C94 1.380 . S
C96 C97 1.170 . S
C97 C96 1.170 . S
C98 C99 1.170 . S
C98 C100 1.380 . S
C99 C98 1.170 . S
C100 C98 1.380 . S
C100 C101 1.170 . S
C101 C100 1.170 . S
C102 C103 1.170 . S
C102 C104 1.380 . S
C103 C102 1.170 . S
C104 C102 1.380 . S
C104 C105 1.165 1_565 S
C105 C104 1.165 1_545 S
C106 C107 1.170 . S
C106 C108 1.380 . S
C107 C106 1.170 . S
C108 C106 1.380 . S
C108 C109 1.170 1_554 S
C109 C108 1.170 1_556 S
C110 C111 1.170 . S
C110 C112 1.380 . S
C111 C110 1.170 . S
C112 C110 1.380 . S
C112 C113 1.170 . S
C113 C112 1.170 . S
C114 C115 1.170 . S
C114 C116 1.380 . S
C115 C114 1.170 . S
C116 C114 1.380 . S
C116 C117 1.170 . S
C117 C116 1.170 . S
C118 C119 1.170 . S
C118 C120 1.380 . S
C119 C118 1.170 . S
C120 C118 1.380 . S
C120 C121 1.170 1_554 S
C121 C120 1.170 1_556 S
C122 C123 1.173 . S
C122 C124 1.383 1_655 S
C123 C122 1.173 . S
C124 C122 1.383 1_455 S
C124 C125 1.167 . S
C125 C124 1.167 . S
C81 C44 1.444 1_455 S
C79 C10 1.458 . S
C83 C17 1.519 . S
C85 C62 1.520 1_545 S
C87 C36 1.526 . S
C89 C75 1.525 . S
C91 C5 1.458 . S
C93 C42 1.458 1_455 S
C97 C53 1.511 1_545 S
C95 C16 1.519 . S
C99 C31 1.528 . S
C101 C66 1.514 . S
C105 C55 1.438 1_545 S
C103 C30 1.458 . S
C107 C3 1.466 . S
C109 C68 1.446 . S
C113 C49 1.513 . S
C111 C18 1.520 . S
C117 C57 1.459 1_545 S
C115 C29 1.460 . S
C121 C70 1.462 . S
C119 C4 1.464 . S
C123 C23 1.519 . S
C125 C40 1.509 . S
