# Generated by pormake.
# Topology bcu-b, (8,8)-cn, num edge types: 1
# Building blocks:
#     Node 0, Type 0, BuildingBlock: TAGTUT_clean_sbu_1, # of connection points: 8
#     Node 1, Type 1, BuildingBlock: VETTIZ_charged_sbu_0, # of connection points: 8
#     Edge 2, Type (0, 1), BuildingBlock: AJUNOK_clean_linker_0, # of connection points: 2
#     Edge 3, Type (0, 1), BuildingBlock: AJUNOK_clean_linker_0, # of connection points: 2
#     Edge 4, Type (0, 1), BuildingBlock: AJUNOK_clean_linker_0, # of connection points: 2
#     Edge 5, Type (0, 1), BuildingBlock: AJUNOK_clean_linker_0, # of connection points: 2
#     Edge 6, Type (0, 1), BuildingBlock: AJUNOK_clean_linker_0, # of connection points: 2
#     Edge 7, Type (0, 1), BuildingBlock: AJUNOK_clean_linker_0, # of connection points: 2
#     Edge 8, Type (0, 1), BuildingBlock: AJUNOK_clean_linker_0, # of connection points: 2
#     Edge 9, Type (0, 1), BuildingBlock: AJUNOK_clean_linker_0, # of connection points: 2
# Relax obj value: 0.026
# Max RMSD: 0.115
# Mean RMSD: 0.087
data_MOF--net-bcu-b--node1-TAGTUT_clean_sbu_1--node2-VETTIZ_charged_sbu_0--edge1-AJUNOK_clean_linker_0
_symmetry_space_group_name_H-M    P1
_symmetry_Int_Tables_number       1
_symmetry_cell_setting            triclinic
loop_
_symmetry_equiv_pos_as_xyz
'x, y, z'
_cell_length_a     15.92143
_cell_length_b     14.437037
_cell_length_c     15.58326
_cell_angle_alpha  91.300913
_cell_angle_beta   91.66463
_cell_angle_gamma 100.38509
loop_
_atom_site_label
_atom_site_type_symbol
_atom_site_fract_x
_atom_site_fract_y
_atom_site_fract_z
_atom_type_partial_charge
C0 C 0.76349 0.21694 0.09862 0.0
C1 C 0.86431 0.21073 0.84526 0.0
C2 C 0.86732 0.84264 0.89968 0.0
Mg3 Mg 0.94529 0.22997 0.02669 0.0
O4 O 0.91594 0.09884 0.04107 0.0
Mg5 Mg 0.80835 0.03081 0.98279 0.0
Mg6 Mg -0.00447 1.01596 1.00215 0.0
O7 O 0.07526 0.93404 0.96301 0.0
Mg8 Mg 0.04539 0.80319 0.97754 0.0
Mg9 Mg 0.18267 1.00107 0.02273 0.0
C10 C 0.12095 0.18744 0.10971 0.0
C11 C 0.12928 0.13828 0.87623 0.0
O12 O 0.74152 0.13461 0.06259 0.0
O13 O 0.8388 0.26594 0.09435 0.0
O14 O 0.8202 0.13322 0.86966 0.0
O15 O 0.92332 0.25895 0.89347 0.0
O16 O 0.07314 0.24723 0.08933 0.0
O17 O 0.10036 0.09894 0.08989 0.0
C18 C 0.86488 0.90002 0.13411 0.0
O19 O 0.94265 0.91763 0.11109 0.0
O20 O 0.80575 0.93442 0.09573 0.0
O21 O 0.24974 0.89746 0.94147 0.0
O22 O 0.15002 0.76909 0.90763 0.0
O23 O 0.17094 0.89596 0.1329 0.0
C24 C 0.22608 0.81627 0.90333 0.0
O25 O 0.0691 0.76972 0.10912 0.0
O26 O 0.9165 0.78406 0.91915 0.0
C27 C 0.12868 0.81734 0.15681 0.0
O28 O 0.88918 0.93178 0.91603 0.0
O29 O 0.05024 0.11556 0.89445 0.0
O30 O 0.1881 0.10386 0.915 0.0
Fe31 Fe 0.51574 0.73166 0.4766 0.0
O32 O 0.49714 0.59414 0.45858 0.0
Fe33 Fe 0.59565 0.52401 0.49939 0.0
Fe34 Fe 0.39866 0.50797 0.50729 0.0
O35 O 0.50588 0.59474 0.45802 0.0
O36 O 0.49689 0.43804 0.54795 0.0
O37 O 0.48843 0.43756 0.54874 0.0
Fe38 Fe 0.47707 0.30061 0.53388 0.0
C39 C 0.41101 0.67104 0.63285 0.0
O40 O 0.41011 0.71627 0.39527 0.0
O41 O 0.31726 0.59418 0.45445 0.0
O42 O 0.55918 0.30122 0.43414 0.0
O43 O 0.58411 0.44711 0.38484 0.0
O44 O 0.68795 0.62586 0.44096 0.0
O45 O 0.60811 0.73217 0.38809 0.0
O46 O 0.38089 0.43048 0.3933 0.0
O47 O 0.3769 0.2879 0.44579 0.0
C48 C 0.67743 0.69679 0.39363 0.0
O49 O 0.58489 0.31649 0.61287 0.0
O50 O 0.67708 0.43808 0.55205 0.0
O51 O 0.43117 0.72931 0.57384 0.0
O52 O 0.41114 0.58356 0.62201 0.0
C53 C 0.33453 0.66676 0.40522 0.0
C54 C 0.35842 0.34136 0.38714 0.0
C55 C 0.31888 0.34268 0.62009 0.0
O56 O 0.30721 0.4086 0.56754 0.0
O57 O 0.38635 0.30377 0.6251 0.0
C58 C 0.58307 0.35897 0.37522 0.0
O59 O 0.61114 0.59916 0.61425 0.0
O60 O 0.61368 0.74381 0.56789 0.0
C61 C 0.66038 0.3653 0.60099 0.0
C62 C 0.62885 0.68799 0.62596 0.0
C63 C 0.24296 0.30833 0.16815 0.0
C64 C 0.19073 0.21918 0.17373 0.0
C65 C 0.29876 0.34682 0.23652 0.0
C66 C 0.30317 0.29797 0.31327 0.0
H67 H 0.23895 0.34959 0.11145 0.0
H68 H 0.33734 0.41601 0.22981 0.0
S69 S 0.17131 0.06708 0.36321 0.0
N70 N 0.14302 0.08573 0.2633 0.0
N71 N 0.24602 0.15795 0.39208 0.0
C72 C 0.25092 0.20861 0.31929 0.0
C73 C 0.19519 0.16921 0.24944 0.0
C74 C 0.67644 0.19338 0.22792 0.0
C75 C 0.70514 0.2501 0.15905 0.0
C76 C 0.63443 0.2285 0.29566 0.0
C77 C 0.61879 0.32173 0.29699 0.0
H78 H 0.69061 0.12289 0.23184 0.0
H79 H 0.61707 0.18277 0.34891 0.0
S80 S 0.66571 0.49124 0.12132 0.0
N81 N 0.70612 0.39896 0.08957 0.0
N82 N 0.62448 0.46489 0.21573 0.0
C83 C 0.64186 0.37684 0.22492 0.0
C84 C 0.68587 0.34114 0.15635 0.0
C85 C 0.79995 0.8958 0.27484 0.0
C86 C 0.84184 0.84994 0.21356 0.0
C87 C 0.75492 0.84589 0.33949 0.0
C88 C 0.74864 0.74769 0.34459 0.0
H89 H 0.79707 0.96991 0.26926 0.0
H90 H 0.71904 0.88359 0.38184 0.0
S91 S 0.86521 0.59927 0.21236 0.0
N92 N 0.88834 0.70484 0.17077 0.0
N93 N 0.80197 0.60951 0.29313 0.0
C94 C 0.79872 0.7027 0.29017 0.0
C95 C 0.84561 0.75432 0.22398 0.0
C96 C 0.21857 0.83453 0.29106 0.0
C97 C 0.1609 0.77559 0.2347 0.0
C98 C 0.26897 0.79766 0.3514 0.0
C99 C 0.26454 0.70003 0.35779 0.0
H100 H 0.22989 0.91006 0.28434 0.0
H101 H 0.3159 0.84639 0.38972 0.0
S102 S 0.11713 0.51376 0.23343 0.0
N103 N 0.09584 0.6134 0.19573 0.0
N104 N 0.19227 0.54418 0.30941 0.0
C105 C 0.20226 0.63957 0.30749 0.0
C106 C 0.15005 0.67734 0.24575 0.0
C107 C 0.26529 0.68217 0.81856 0.0
C108 C 0.2851 0.77768 0.84591 0.0
C109 C 0.30982 0.64659 0.75298 0.0
C110 C 0.37573 0.70515 0.71187 0.0
H111 H 0.2125 0.635 0.84551 0.0
H112 H 0.28895 0.57417 0.73101 0.0
S113 S 0.46173 0.9564 0.76725 0.0
N114 N 0.38194 0.92745 0.83258 0.0
N115 N 0.46574 0.86014 0.70942 0.0
C116 C 0.40038 0.79892 0.7424 0.0
C117 C 0.35524 0.83523 0.80956 0.0
C118 C 0.13739 0.18564 0.72336 0.0
C119 C 0.15685 0.20797 0.8108 0.0
C120 C 0.1853 0.23625 0.65955 0.0
C121 C 0.253 0.31052 0.68202 0.0
H122 H 0.09033 0.12402 0.70454 0.0
H123 H 0.17382 0.21255 0.59306 0.0
S124 S 0.32081 0.40353 0.90128 0.0
N125 N 0.24155 0.31492 0.91594 0.0
N126 N 0.33141 0.4094 0.7963 0.0
C127 C 0.26795 0.33801 0.76868 0.0
C128 C 0.21965 0.28684 0.83317 0.0
C129 C 0.83707 0.3511 0.76436 0.0
C130 C 0.83422 0.25287 0.7668 0.0
C131 C 0.7863 0.38979 0.70439 0.0
C132 C 0.73132 0.33122 0.64562 0.0
H133 H 0.87287 0.39753 0.81347 0.0
H134 H 0.78494 0.46448 0.70863 0.0
S135 S 0.71588 0.07385 0.61191 0.0
N136 N 0.7837 0.10115 0.69468 0.0
N137 N 0.68804 0.17373 0.58323 0.0
C138 C 0.73508 0.23487 0.64144 0.0
C139 C 0.78671 0.19568 0.70175 0.0
C140 C 0.7663 0.86409 0.77983 0.0
C141 C 0.79102 0.80679 0.84398 0.0
C142 C 0.7104 0.82559 0.71189 0.0
C143 C 0.67681 0.72832 0.70556 0.0
H144 H 0.79501 0.93793 0.77861 0.0
H145 H 0.69705 0.87191 0.66168 0.0
S146 S 0.70634 0.55232 0.86889 0.0
N147 N 0.76704 0.65119 0.90522 0.0
N148 N 0.66121 0.57866 0.77808 0.0
C149 C 0.69459 0.67195 0.77402 0.0
C150 C 0.75184 0.71125 0.84307 0.0
loop_
_geom_bond_atom_site_label_1
_geom_bond_atom_site_label_2
_geom_bond_distance
_geom_bond_site_symmetry_2
_ccdc_geom_bond_type
C0 O12 1.241 . S
C0 O13 1.280 . S
C1 O14 1.277 . S
C1 O15 1.245 . S
C2 O26 1.247 . S
C2 O28 1.289 . S
Mg3 O4 1.926 . S
Mg3 O13 1.984 . S
Mg3 O15 1.988 1_554 S
Mg3 O16 2.061 1_655 S
O4 Mg3 1.926 . S
O4 Mg5 1.985 1_554 S
O4 Mg6 1.917 1_655 S
Mg5 O4 1.985 1_556 S
Mg5 O12 2.037 1_556 S
Mg5 O14 2.047 . S
Mg5 O20 2.032 1_546 S
Mg5 O28 2.242 1_545 S
Mg6 O4 1.917 1_455 S
Mg6 O7 1.917 1_544 S
Mg6 O17 2.106 . S
Mg6 O19 2.079 1_445 S
Mg6 O28 2.106 1_444 S
Mg6 O29 2.079 1_554 S
O7 Mg6 1.917 1_566 S
O7 Mg8 1.926 . S
O7 Mg9 1.984 1_556 S
Mg8 O7 1.926 . S
Mg8 O22 1.984 . S
Mg8 O25 1.988 1_556 S
Mg8 O26 2.061 1_455 S
Mg9 O7 1.984 1_554 S
Mg9 O17 2.244 1_565 S
Mg9 O21 2.035 1_554 S
Mg9 O23 2.050 . S
Mg9 O30 2.030 1_564 S
C10 O16 1.247 . S
C10 O17 1.289 . S
C11 O29 1.245 . S
C11 O30 1.274 . S
O12 C0 1.241 . S
O12 Mg5 2.037 1_554 S
O13 C0 1.280 . S
O13 Mg3 1.984 . S
O14 C1 1.277 . S
O14 Mg5 2.047 . S
O15 C1 1.245 . S
O15 Mg3 1.988 1_556 S
O16 Mg3 2.061 1_455 S
O16 C10 1.247 . S
O17 Mg6 2.106 . S
O17 Mg9 2.244 1_545 S
O17 C10 1.289 . S
C18 O19 1.245 . S
C18 O20 1.274 . S
O19 Mg6 2.079 1_665 S
O19 C18 1.245 . S
O20 Mg5 2.032 1_564 S
O20 C18 1.274 . S
O21 Mg9 2.035 1_556 S
O21 C24 1.241 . S
O22 Mg8 1.984 . S
O22 C24 1.280 . S
O23 Mg9 2.050 . S
O23 C27 1.277 . S
C24 O21 1.241 . S
C24 O22 1.280 . S
O25 Mg8 1.988 1_554 S
O25 C27 1.245 . S
O26 C2 1.247 . S
O26 Mg8 2.061 1_655 S
C27 O23 1.277 . S
C27 O25 1.245 . S
O28 C2 1.289 . S
O28 Mg5 2.242 1_565 S
O28 Mg6 2.106 1_666 S
O29 Mg6 2.079 1_556 S
O29 C11 1.245 . S
O30 Mg9 2.030 1_546 S
O30 C11 1.274 . S
Fe31 O32 1.886 . S
Fe31 O35 1.715 . S
Fe31 O40 2.077 . S
Fe31 O45 1.935 . S
Fe31 O51 2.077 . S
Fe31 O60 1.935 . S
O32 Fe31 1.886 . S
O32 Fe34 1.715 . S
Fe33 O35 1.886 . S
Fe33 O36 1.715 . S
Fe33 O43 1.935 . S
Fe33 O44 2.077 . S
Fe33 O50 1.935 . S
Fe33 O59 2.077 . S
Fe34 O32 1.715 . S
Fe34 O37 1.886 . S
Fe34 O41 1.935 . S
Fe34 O46 2.077 . S
Fe34 O52 1.935 . S
Fe34 O56 2.077 . S
O35 Fe31 1.715 . S
O35 Fe33 1.886 . S
O36 Fe33 1.715 . S
O36 Fe38 1.886 . S
O37 Fe34 1.886 . S
O37 Fe38 1.715 . S
Fe38 O36 1.886 . S
Fe38 O37 1.715 . S
Fe38 O42 2.077 . S
Fe38 O47 1.935 . S
Fe38 O49 2.077 . S
Fe38 O57 1.935 . S
C39 O51 1.381 . S
C39 O52 1.421 . S
O40 Fe31 2.077 . S
O40 C53 1.381 . S
O41 Fe34 1.935 . S
O41 C53 1.421 . S
O42 Fe38 2.077 . S
O42 C58 1.381 . S
O43 Fe33 1.935 . S
O43 C58 1.421 . S
O44 Fe33 2.077 . S
O44 C48 1.381 . S
O45 Fe31 1.935 . S
O45 C48 1.421 . S
O46 Fe34 2.077 . S
O46 C54 1.381 . S
O47 Fe38 1.935 . S
O47 C54 1.421 . S
C48 O44 1.381 . S
C48 O45 1.421 . S
O49 Fe38 2.077 . S
O49 C61 1.381 . S
O50 Fe33 1.935 . S
O50 C61 1.421 . S
O51 Fe31 2.077 . S
O51 C39 1.381 . S
O52 Fe34 1.935 . S
O52 C39 1.421 . S
C53 O40 1.381 . S
C53 O41 1.421 . S
C54 O46 1.381 . S
C54 O47 1.421 . S
C55 O56 1.381 . S
C55 O57 1.421 . S
O56 Fe34 2.077 . S
O56 C55 1.381 . S
O57 Fe38 1.935 . S
O57 C55 1.421 . S
C58 O42 1.381 . S
C58 O43 1.421 . S
O59 Fe33 2.077 . S
O59 C62 1.381 . S
O60 Fe31 1.935 . S
O60 C62 1.421 . S
C61 O49 1.381 . S
C61 O50 1.421 . S
C62 O59 1.381 . S
C62 O60 1.421 . S
C63 C64 1.369 . S
C63 C65 1.419 . S
C63 H67 0.930 . S
C64 C63 1.369 . S
C64 C73 1.429 . S
C65 C63 1.419 . S
C65 C66 1.363 . S
C65 H68 0.929 . S
C66 C65 1.363 . S
C66 C72 1.428 . S
H67 C63 0.930 . S
H68 C65 0.929 . S
S69 N70 1.613 . S
S69 N71 1.610 . S
N70 S69 1.613 . S
N70 C73 1.350 . S
N71 S69 1.610 . S
N71 C72 1.351 . S
C72 C66 1.428 . S
C72 N71 1.351 . S
C72 C73 1.434 . S
C73 C64 1.429 . S
C73 N70 1.350 . S
C73 C72 1.434 . S
C74 C75 1.369 . S
C74 C76 1.419 . S
C74 H78 0.930 . S
C75 C74 1.369 . S
C75 C84 1.429 . S
C76 C74 1.419 . S
C76 C77 1.363 . S
C76 H79 0.929 . S
C77 C76 1.363 . S
C77 C83 1.428 . S
H78 C74 0.930 . S
H79 C76 0.929 . S
S80 N81 1.613 . S
S80 N82 1.610 . S
N81 S80 1.613 . S
N81 C84 1.350 . S
N82 S80 1.610 . S
N82 C83 1.351 . S
C83 C77 1.428 . S
C83 N82 1.351 . S
C83 C84 1.434 . S
C84 C75 1.429 . S
C84 N81 1.350 . S
C84 C83 1.434 . S
C85 C86 1.369 . S
C85 C87 1.419 . S
C85 H89 0.930 . S
C86 C85 1.369 . S
C86 C95 1.429 . S
C87 C85 1.419 . S
C87 C88 1.363 . S
C87 H90 0.929 . S
C88 C87 1.363 . S
C88 C94 1.428 . S
H89 C85 0.930 . S
H90 C87 0.929 . S
S91 N92 1.613 . S
S91 N93 1.610 . S
N92 S91 1.613 . S
N92 C95 1.350 . S
N93 S91 1.610 . S
N93 C94 1.351 . S
C94 C88 1.428 . S
C94 N93 1.351 . S
C94 C95 1.434 . S
C95 C86 1.429 . S
C95 N92 1.350 . S
C95 C94 1.434 . S
C96 C97 1.369 . S
C96 C98 1.419 . S
C96 H100 0.930 . S
C97 C96 1.369 . S
C97 C106 1.429 . S
C98 C96 1.419 . S
C98 C99 1.363 . S
C98 H101 0.929 . S
C99 C98 1.363 . S
C99 C105 1.428 . S
H100 C96 0.930 . S
H101 C98 0.929 . S
S102 N103 1.613 . S
S102 N104 1.610 . S
N103 S102 1.613 . S
N103 C106 1.350 . S
N104 S102 1.610 . S
N104 C105 1.351 . S
C105 C99 1.428 . S
C105 N104 1.351 . S
C105 C106 1.434 . S
C106 C97 1.429 . S
C106 N103 1.350 . S
C106 C105 1.434 . S
C107 C108 1.369 . S
C107 C109 1.419 . S
C107 H111 0.930 . S
C108 C107 1.369 . S
C108 C117 1.429 . S
C109 C107 1.419 . S
C109 C110 1.363 . S
C109 H112 0.929 . S
C110 C109 1.363 . S
C110 C116 1.428 . S
H111 C107 0.930 . S
H112 C109 0.929 . S
S113 N114 1.613 . S
S113 N115 1.610 . S
N114 S113 1.613 . S
N114 C117 1.350 . S
N115 S113 1.610 . S
N115 C116 1.351 . S
C116 C110 1.428 . S
C116 N115 1.351 . S
C116 C117 1.434 . S
C117 C108 1.429 . S
C117 N114 1.350 . S
C117 C116 1.434 . S
C118 C119 1.369 . S
C118 C120 1.419 . S
C118 H122 0.930 . S
C119 C118 1.369 . S
C119 C128 1.429 . S
C120 C118 1.419 . S
C120 C121 1.363 . S
C120 H123 0.929 . S
C121 C120 1.363 . S
C121 C127 1.428 . S
H122 C118 0.930 . S
H123 C120 0.929 . S
S124 N125 1.613 . S
S124 N126 1.610 . S
N125 S124 1.613 . S
N125 C128 1.350 . S
N126 S124 1.610 . S
N126 C127 1.351 . S
C127 C121 1.428 . S
C127 N126 1.351 . S
C127 C128 1.434 . S
C128 C119 1.429 . S
C128 N125 1.350 . S
C128 C127 1.434 . S
C129 C130 1.369 . S
C129 C131 1.419 . S
C129 H133 0.930 . S
C130 C129 1.369 . S
C130 C139 1.429 . S
C131 C129 1.419 . S
C131 C132 1.363 . S
C131 H134 0.929 . S
C132 C131 1.363 . S
C132 C138 1.428 . S
H133 C129 0.930 . S
H134 C131 0.929 . S
S135 N136 1.613 . S
S135 N137 1.610 . S
N136 S135 1.613 . S
N136 C139 1.350 . S
N137 S135 1.610 . S
N137 C138 1.351 . S
C138 C132 1.428 . S
C138 N137 1.351 . S
C138 C139 1.434 . S
C139 C130 1.429 . S
C139 N136 1.350 . S
C139 C138 1.434 . S
C140 C141 1.369 . S
C140 C142 1.419 . S
C140 H144 0.930 . S
C141 C140 1.369 . S
C141 C150 1.429 . S
C142 C140 1.419 . S
C142 C143 1.363 . S
C142 H145 0.929 . S
C143 C142 1.363 . S
C143 C149 1.428 . S
H144 C140 0.930 . S
H145 C142 0.929 . S
S146 N147 1.613 . S
S146 N148 1.610 . S
N147 S146 1.613 . S
N147 C150 1.350 . S
N148 S146 1.610 . S
N148 C149 1.351 . S
C149 C143 1.428 . S
C149 N148 1.351 . S
C149 C150 1.434 . S
C150 C141 1.429 . S
C150 N147 1.350 . S
C150 C149 1.434 . S
C64 C10 1.271 . S
C66 C54 1.279 . S
C75 C0 1.480 . S
C77 C58 1.491 . S
C86 C18 1.512 . S
C88 C48 1.539 . S
C97 C27 1.554 . S
C99 C53 1.540 . S
C108 C24 1.486 . S
C110 C39 1.491 . S
C121 C55 1.541 . S
C119 C11 1.504 . S
C130 C1 1.553 . S
C132 C61 1.544 . S
C143 C62 1.287 . S
C141 C2 1.264 . S
