# Generated by pormake.
# Topology scu, (8,4)-cn, num edge types: 1
# Building blocks:
#     Node 0, Type 0, BuildingBlock: TAGTUT_clean_sbu_3, # of connection points: 8
#     Node 1, Type 1, BuildingBlock: MUDLON_clean_sbu_0, # of connection points: 4
#     Node 2, Type 1, BuildingBlock: MUDLON_clean_sbu_0, # of connection points: 4
#     Edge 3, Type (0, 1), None
#     Edge 4, Type (0, 1), None
#     Edge 5, Type (0, 1), None
#     Edge 6, Type (0, 1), None
#     Edge 7, Type (0, 1), None
#     Edge 8, Type (0, 1), None
#     Edge 9, Type (0, 1), None
#     Edge 10, Type (0, 1), None
# Relax obj value: 0.065
# Max RMSD: 0.152
# Mean RMSD: 0.085
data_MOF--net-scu--node1-TAGTUT_clean_sbu_3--node2-MUDLON_clean_sbu_0--edge1-none
_symmetry_space_group_name_H-M    P1
_symmetry_Int_Tables_number       1
_symmetry_cell_setting            triclinic
loop_
_symmetry_equiv_pos_as_xyz
'x, y, z'
_cell_length_a     14.400956
_cell_length_b     11.375822
_cell_length_c     9.5405379
_cell_angle_alpha  88.240924
_cell_angle_beta   88.857682
_cell_angle_gamma 88.181747
loop_
_atom_site_label
_atom_site_type_symbol
_atom_site_fract_x
_atom_site_fract_y
_atom_site_fract_z
_atom_type_partial_charge
C0 C 0.96479 0.73344 0.25507 0.0
C1 C 0.65929 0.94234 0.27079 0.0
C2 C 0.71082 0.09174 0.86749 0.0
Mg3 Mg 0.15876 0.78184 0.11468 0.0
Mg4 Mg 0.24225 0.04371 1.02614 0.0
O5 O 0.14153 0.94151 1.02079 0.0
Mg6 Mg 0.0079 -0.02372 0.0772 0.0
O7 O 0.87243 -0.00908 0.12969 0.0
Mg8 Mg 0.81754 0.85554 1.0335 0.0
Mg9 Mg 0.79708 0.12496 0.15258 0.0
C10 C 0.08374 0.20346 0.87701 0.0
O11 O 0.03288 0.11482 0.24864 0.0
O12 O 0.29498 0.76084 0.98367 0.0
O13 O 0.8977 0.22378 0.26056 0.0
O14 O 0.23784 0.86057 0.29547 0.0
O15 O 0.34522 0.93743 0.90891 0.0
O16 O 0.27763 0.04632 0.24899 0.0
O17 O 0.95989 0.85004 0.90966 0.0
O18 O 0.07276 0.71172 0.93524 0.0
C19 C -0.00164 0.75172 0.87653 0.0
C20 C 0.35198 0.82471 0.91254 0.0
O21 O 0.01779 0.13609 0.92089 0.0
O22 O 0.68789 0.86667 0.18168 0.0
O23 O 0.16924 0.18842 0.91231 0.0
O24 O 0.74051 -0.01554 0.87853 0.0
O25 O 0.69506 0.04302 0.28085 0.0
O26 O 0.72826 0.16795 0.95802 0.0
O27 O 0.0211 0.8162 0.23094 0.0
O28 O 0.88666 0.73289 0.19463 0.0
C29 C 0.27268 -0.04348 0.33287 0.0
C30 C 0.9823 0.20175 0.29554 0.0
Mg31 Mg 0.03751 0.48364 0.58036 0.0
C32 C 0.02176 0.28175 0.39409 0.0
O33 O 0.11208 0.28291 0.41011 0.0
C34 C 0.96522 0.69003 0.75561 0.0
O35 O 0.95746 0.74938 0.63622 0.0
C36 C 0.05853 0.30139 0.78017 0.0
O37 O 0.96985 0.32554 0.76051 0.0
O38 O 0.11878 0.36012 0.70956 0.0
O39 O 0.96886 0.3545 0.45964 0.0
O40 O 0.06219 0.62061 0.41832 0.0
C41 C 0.98379 0.63896 0.35991 0.0
O42 O 0.91328 0.57623 0.40346 0.0
O43 O 0.97688 0.57881 0.7557 0.0
Mg44 Mg 0.47873 -0.01048 0.64479 0.0
C45 C 0.31954 -0.04653 0.46927 0.0
O46 O 0.33706 0.85016 0.52978 0.0
C47 C 0.6421 0.11956 0.7594 0.0
O48 O 0.67163 0.11786 0.62865 0.0
C49 C 0.42637 0.76251 0.83323 0.0
O50 O 0.44094 0.64947 0.85947 0.0
O51 O 0.47426 0.81151 0.73542 0.0
O52 O 0.35983 0.04237 0.51465 0.0
O53 O 0.57575 -0.01836 0.47487 0.0
C54 C 0.58651 0.91362 0.37296 0.0
O55 O 0.53429 0.82202 0.36131 0.0
O56 O 0.55792 0.0935 0.78882 0.0
loop_
_geom_bond_atom_site_label_1
_geom_bond_atom_site_label_2
_geom_bond_distance
_geom_bond_site_symmetry_2
_ccdc_geom_bond_type
C0 O27 1.312 1_655 S
C0 O28 1.208 . S
C1 O22 1.331 . S
C1 O25 1.244 1_565 S
C2 O24 1.264 1_545 S
C2 O26 1.273 . S
Mg3 O5 1.936 1_565 S
Mg3 O12 2.081 1_554 S
Mg3 O14 2.023 . S
Mg3 O18 2.031 1_554 S
Mg3 O27 2.291 . S
Mg4 O5 1.963 . S
Mg4 O15 1.942 1_554 S
Mg4 O16 1.955 . S
Mg4 O23 1.986 1_554 S
O5 Mg3 1.936 1_545 S
O5 Mg4 1.963 . S
O5 Mg6 1.915 . S
Mg6 O5 1.915 . S
Mg6 O7 1.915 1_455 S
Mg6 O11 2.013 . S
Mg6 O17 2.114 1_444 S
Mg6 O21 2.013 1_454 S
Mg6 O27 2.114 1_545 S
O7 Mg6 1.915 1_655 S
O7 Mg8 1.936 1_545 S
O7 Mg9 1.963 . S
Mg8 O7 1.936 1_565 S
Mg8 O17 2.291 1_554 S
Mg8 O22 2.081 . S
Mg8 O24 2.023 1_554 S
Mg8 O28 2.031 . S
Mg9 O7 1.963 . S
Mg9 O13 1.986 . S
Mg9 O25 1.942 . S
Mg9 O26 1.955 1_554 S
C10 O21 1.191 1_455 S
C10 O23 1.307 . S
O11 Mg6 2.013 . S
O11 C30 1.191 1_455 S
O12 Mg3 2.081 1_556 S
O12 C20 1.331 . S
O13 Mg9 1.986 . S
O13 C30 1.307 . S
O14 Mg3 2.023 . S
O14 C29 1.264 1_565 S
O15 Mg4 1.942 1_556 S
O15 C20 1.244 1_545 S
O16 Mg4 1.955 . S
O16 C29 1.273 . S
O17 Mg6 2.114 1_666 S
O17 Mg8 2.291 1_556 S
O17 C19 1.312 1_655 S
O18 Mg3 2.031 1_556 S
O18 C19 1.208 . S
C19 O17 1.312 1_455 S
C19 O18 1.208 . S
C20 O12 1.331 . S
C20 O15 1.244 1_565 S
O21 Mg6 2.013 1_656 S
O21 C10 1.191 1_655 S
O22 C1 1.331 . S
O22 Mg8 2.081 . S
O23 Mg4 1.986 1_556 S
O23 C10 1.307 . S
O24 C2 1.264 1_565 S
O24 Mg8 2.023 1_556 S
O25 C1 1.244 1_545 S
O25 Mg9 1.942 . S
O26 C2 1.273 . S
O26 Mg9 1.955 1_556 S
O27 C0 1.312 1_455 S
O27 Mg3 2.291 . S
O27 Mg6 2.114 1_565 S
O28 C0 1.208 . S
O28 Mg8 2.031 . S
C29 O14 1.264 1_545 S
C29 O16 1.273 . S
C30 O11 1.191 1_655 S
C30 O13 1.307 . S
Mg31 O38 2.141 . S
Mg31 O39 2.048 . S
Mg31 O40 2.048 . S
Mg31 O43 2.141 . S
C32 O33 1.313 . S
C32 O39 1.195 1_455 S
O33 C32 1.313 . S
C34 O35 1.245 . S
C34 O43 1.289 1_455 S
O35 C34 1.245 . S
C36 O37 1.245 . S
C36 O38 1.289 1_455 S
O37 C36 1.245 . S
O38 Mg31 2.141 . S
O38 C36 1.289 1_655 S
O39 Mg31 2.048 . S
O39 C32 1.195 1_655 S
O40 Mg31 2.048 . S
O40 C41 1.195 1_655 S
C41 O40 1.195 1_455 S
C41 O42 1.313 . S
O42 C41 1.313 . S
O43 Mg31 2.141 . S
O43 C34 1.289 1_655 S
Mg44 O51 2.141 . S
Mg44 O52 2.048 . S
Mg44 O53 2.048 . S
Mg44 O56 2.141 . S
C45 O46 1.313 . S
C45 O52 1.195 1_565 S
O46 C45 1.313 . S
C47 O48 1.245 . S
C47 O56 1.289 1_565 S
O48 C47 1.245 . S
C49 O50 1.245 . S
C49 O51 1.289 1_565 S
O50 C49 1.245 . S
O51 Mg44 2.141 . S
O51 C49 1.289 1_545 S
O52 Mg44 2.048 . S
O52 C45 1.195 1_545 S
O53 Mg44 2.048 . S
O53 C54 1.195 1_545 S
C54 O53 1.195 1_565 S
C54 O55 1.313 . S
O55 C54 1.313 . S
O56 Mg44 2.141 . S
O56 C47 1.289 1_545 S
C30 C32 1.507 1_655 S
C1 C54 1.426 . S
C0 C41 1.497 1_655 S
C29 C45 1.523 1_545 S
C19 C34 1.420 . S
C20 C49 1.350 . S
C36 C10 1.380 . S
C2 C47 1.441 1_545 S
