# Generated by pormake.
# Topology pts, (4,4)-cn, num edge types: 1
# Building blocks:
#     Node 0, Type 0, BuildingBlock: MUDLON_clean_sbu_0, # of connection points: 4
#     Node 1, Type 0, BuildingBlock: MUDLON_clean_sbu_0, # of connection points: 4
#     Node 2, Type 1, BuildingBlock: UXUYUI_clean_sbu_0, # of connection points: 4
#     Node 3, Type 1, BuildingBlock: UXUYUI_clean_sbu_0, # of connection points: 4
#     Edge 4, Type (0, 1), None
#     Edge 5, Type (0, 1), None
#     Edge 6, Type (0, 1), None
#     Edge 7, Type (0, 1), None
#     Edge 8, Type (0, 1), None
#     Edge 9, Type (0, 1), None
#     Edge 10, Type (0, 1), None
#     Edge 11, Type (0, 1), None
# Relax obj value: 0.040
# Max RMSD: 0.093
# Mean RMSD: 0.080
data_MOF--net-pts--node1-MUDLON_clean_sbu_0--node2-UXUYUI_clean_sbu_0--edge1-none
_symmetry_space_group_name_H-M    P1
_symmetry_Int_Tables_number       1
_symmetry_cell_setting            triclinic
loop_
_symmetry_equiv_pos_as_xyz
'x, y, z'
_cell_length_a     15.894219
_cell_length_b     15.894298
_cell_length_c     26.493589
_cell_angle_alpha  89.879415
_cell_angle_beta   89.87893
_cell_angle_gamma 89.883754
loop_
_atom_site_label
_atom_site_type_symbol
_atom_site_fract_x
_atom_site_fract_y
_atom_site_fract_z
_atom_type_partial_charge
Mg0 Mg 0.50746 0.03281 0.04157 0.0
C1 C 0.35947 0.02028 0.98512 0.0
O2 O 0.38163 0.94608 1.00264 0.0
C3 C 0.65802 0.03431 0.09744 0.0
O4 O 0.6447 0.95828 0.07992 0.0
C5 C 0.40945 0.03471 0.13113 0.0
O6 O 0.44109 0.11022 0.12433 0.0
O7 O 0.43211 0.97614 0.10117 0.0
O8 O 0.4049 0.08371 0.99633 0.0
O9 O 0.58468 0.96821 0.98543 0.0
C10 C 0.58976 1.00493 0.94271 0.0
O11 O 0.53699 0.06617 0.93238 0.0
O12 O 0.60571 0.09253 0.08644 0.0
Mg13 Mg 0.99557 0.52092 0.54382 0.0
C14 C 1.00811 0.6689 0.60027 0.0
O15 O 0.08231 0.64674 0.58275 0.0
C16 C 0.99405 0.37037 0.48794 0.0
O17 O 0.07008 0.38369 0.50545 0.0
C18 C 0.99366 0.61894 0.45426 0.0
O19 O 0.91816 0.5873 0.46106 0.0
O20 O 0.05223 0.59627 0.48421 0.0
O21 O 0.94468 0.62349 0.58906 0.0
O22 O 0.06017 0.44369 0.59995 0.0
C23 C 0.02346 0.43861 0.64267 0.0
O24 O 0.96221 0.49138 0.65301 0.0
O25 O 0.93583 0.42268 0.49894 0.0
Li26 Li 1.00973 0.08823 0.33166 0.0
Li27 Li 1.01187 0.93515 0.31905 0.0
Li28 Li 0.09323 0.01651 0.26634 0.0
Li29 Li 0.94016 0.01865 0.25373 0.0
C30 C 0.1889 0.01847 0.34618 0.0
N31 N 0.36087 0.03895 0.35511 0.0
C32 C 0.24334 0.95149 0.33569 0.0
C33 C 0.22199 0.09582 0.36133 0.0
C34 C 0.33006 0.96315 0.34034 0.0
C35 C 0.3091 0.10489 0.36565 0.0
C36 C 0.86035 0.97105 0.36041 0.0
C37 C 0.73655 0.88973 0.37976 0.0
N38 N 0.75977 0.8875 0.42915 0.0
C39 C 0.8828 0.96845 0.41136 0.0
C40 C 0.78654 0.93178 0.34439 0.0
C41 C 0.83119 0.92566 0.44553 0.0
C42 C 0.9481 0.24526 0.3705 0.0
N43 N 0.99457 0.17498 0.3802 0.0
C44 C 0.02667 0.22422 0.46288 0.0
C45 C 0.03129 0.16241 0.42581 0.0
C46 C 0.98233 0.29899 0.45335 0.0
C47 C 0.9407 0.30862 0.40705 0.0
H48 H 0.91858 0.25297 0.33402 0.0
H49 H 0.06633 0.10517 0.43283 0.0
C50 C 0.94396 0.77772 0.35277 0.0
N51 N 1.00904 0.83234 0.35774 0.0
C52 C 0.94033 0.70526 0.38242 0.0
C53 C 0.07167 0.7449 0.42132 0.0
C54 C 0.07253 0.81703 0.39098 0.0
C55 C 1.00412 0.68868 0.41778 0.0
H56 H 0.89382 0.7912 0.32654 0.0
H57 H 0.12291 0.86189 0.39505 0.0
C58 C 0.05734 0.16803 0.22498 0.0
N59 N 0.1409 0.2686 0.15624 0.0
C60 C 0.05994 0.14558 0.17403 0.0
C61 C 0.09661 0.24183 0.24099 0.0
C62 C 0.10274 0.19718 0.13986 0.0
C63 C 0.13867 0.29182 0.20562 0.0
C64 C 1.00992 0.83948 0.23921 0.0
C65 C 0.07691 0.78505 0.24971 0.0
C66 C 0.93257 0.80638 0.22406 0.0
C67 C 0.06525 0.69832 0.24506 0.0
C68 C 0.92352 0.71927 0.21975 0.0
N69 N 0.98945 0.6675 0.23029 0.0
C70 C 0.25067 0.08441 0.23262 0.0
C71 C 0.21135 0.95585 0.19441 0.0
C72 C 0.32314 0.08805 0.20297 0.0
N73 N 0.19604 0.01934 0.22765 0.0
C74 C 0.28349 0.95671 0.16407 0.0
C75 C 0.3397 0.02426 0.16761 0.0
H76 H 0.2372 0.13456 0.25886 0.0
H77 H 0.16649 0.90548 0.19033 0.0
C78 C 0.78313 0.08028 0.21488 0.0
N79 N 0.8534 0.0338 0.20519 0.0
C80 C 0.71977 0.08767 0.17832 0.0
C81 C 0.80417 1.00168 0.1225 0.0
C82 C 0.86598 0.99706 0.15957 0.0
C83 C 0.7294 0.04602 0.13203 0.0
H84 H 0.77542 0.10981 0.25136 0.0
H85 H 0.92322 0.96203 0.15256 0.0
O86 O 0.10375 1.00835 0.3416 0.0
O87 O 0.91055 1.0116 0.32629 0.0
O88 O 0.01678 0.11783 0.2591 0.0
O89 O 0.02003 0.92463 0.24379 0.0
H90 H 0.21893 0.89137 0.32358 0.0
H91 H 0.18109 0.14878 0.36885 0.0
H92 H 0.37288 0.91199 0.33209 0.0
H93 H 0.33557 0.16451 0.37708 0.0
H94 H 0.67939 0.85871 0.36793 0.0
H95 H 0.93998 0.99825 0.42423 0.0
H96 H 0.76849 0.9333 0.30501 0.0
H97 H 0.84801 0.92264 0.48504 0.0
H98 H 0.05986 0.21486 0.49815 0.0
H99 H 0.90721 0.36617 0.39817 0.0
H100 H 0.88674 0.66379 0.37857 0.0
H101 H 0.12137 0.73522 0.44863 0.0
H102 H 0.03014 0.08839 0.16116 0.0
H103 H 0.09509 0.25988 0.28037 0.0
H104 H 0.10576 0.18036 0.10035 0.0
H105 H 0.16969 0.34897 0.21745 0.0
H106 H 0.13702 0.80946 0.26181 0.0
H107 H 0.87962 0.84727 0.21654 0.0
H108 H 0.11642 0.65551 0.25331 0.0
H109 H 0.8639 0.69279 0.20831 0.0
H110 H 0.3646 0.14163 0.20682 0.0
H111 H 0.29317 0.90701 0.13675 0.0
H112 H 0.66222 0.12117 0.1872 0.0
H113 H 0.81353 0.96848 0.08724 0.0
Li114 Li 0.9171 0.02457 0.81991 0.0
Li115 Li 0.06958 0.02163 0.83156 0.0
Li116 Li 1.00382 0.11128 0.76547 0.0
Li117 Li 1.00676 0.9588 0.75383 0.0
C118 C 0.94883 0.14989 0.88027 0.0
N119 N 0.85658 0.20685 0.96189 0.0
C120 C 0.97342 0.1291 0.92938 0.0
C121 C 0.87773 0.20021 0.87269 0.0
C122 C 0.92589 0.15845 0.97015 0.0
C123 C 0.83178 0.22817 0.91444 0.0
C124 C 1.01391 0.84492 0.84071 0.0
C125 C 0.09686 0.71885 0.8294 0.0
N126 N 0.05861 0.68381 0.87027 0.0
C127 C 0.97471 0.80704 0.88223 0.0
C128 C 0.07488 0.79993 0.81378 0.0
C129 C 0.99847 0.72585 0.89674 0.0
C130 C 0.73926 0.02822 0.83306 0.0
N131 N 0.81383 1.01118 0.85591 0.0
C132 C 0.74344 0.97579 0.93299 0.0
C133 C 0.81714 0.98456 0.90469 0.0
C134 C 0.66579 0.99625 0.91101 0.0
C135 C 0.66407 0.02182 0.86022 0.0
H136 H 0.73834 0.0487 0.79414 0.0
H137 H 0.87739 0.97272 0.92215 0.0
C138 C 0.21099 0.08868 0.88119 0.0
N139 N 0.15743 0.0219 0.88036 0.0
C140 C 0.27642 0.09189 0.91648 0.0
C141 C 0.22893 0.95829 0.9496 0.0
C142 C 0.16439 0.95804 0.91415 0.0
C143 C 0.28653 0.02531 0.95075 0.0
H144 H 0.20322 0.13909 0.85409 0.0
H145 H 0.12025 0.9066 0.91348 0.0
C146 C 0.87851 0.07954 0.70511 0.0
N147 N 0.82154 0.17177 0.62348 0.0
C148 C 0.8993 0.05493 0.656 0.0
C149 C 0.82818 0.15063 0.71269 0.0
C150 C 0.86995 0.10246 0.61523 0.0
C151 C 0.80022 0.19657 0.67093 0.0
C152 C 0.18347 0.01447 0.74468 0.0
C153 C 0.22134 0.05367 0.70315 0.0
C154 C 0.22847 0.95352 0.77161 0.0
C155 C 0.30253 0.0299 0.68864 0.0
C156 C 0.30955 0.93154 0.75599 0.0
N157 N 0.34458 0.96978 0.71511 0.0
C158 C 1.00016 0.28912 0.75232 0.0
C159 C 0.04382 0.21123 0.68069 0.0
C160 C 1.00657 0.36431 0.72516 0.0
N161 N 0.0172 0.21455 0.72947 0.0
C162 C 0.05259 0.28493 0.65239 0.0
C163 C 0.03214 0.36259 0.67436 0.0
H164 H 0.97969 0.29005 0.79124 0.0
H165 H 0.05566 0.15098 0.66323 0.0
C166 C 0.93971 0.8174 0.7042 0.0
N167 N 1.00649 0.87094 0.70504 0.0
C168 C 0.9365 0.75197 0.66891 0.0
C169 C 0.07011 0.79943 0.6358 0.0
C170 C 0.07037 0.86397 0.67125 0.0
C171 C 1.00308 0.74184 0.63464 0.0
H172 H 0.88929 0.82518 0.7313 0.0
H173 H 0.12182 0.9081 0.67192 0.0
O174 O 0.99322 0.11995 0.83979 0.0
O175 O 0.99059 0.92426 0.82569 0.0
O176 O 0.90844 0.03515 0.74559 0.0
O177 O 0.10413 0.03779 0.7597 0.0
H178 H 0.02804 0.08999 0.936 0.0
H179 H 0.85764 0.21659 0.83494 0.0
H180 H 0.9439 0.14245 1.00835 0.0
H181 H 0.77626 0.26662 0.90911 0.0
H182 H 0.14405 0.68361 0.80886 0.0
H183 H 0.92645 0.8397 0.90319 0.0
H184 H 0.10438 0.82657 0.78075 0.0
H185 H 0.96888 0.69616 0.92897 0.0
H186 H 0.74776 0.9579 0.97238 0.0
H187 H 0.60543 0.03897 0.84211 0.0
H188 H 0.31977 0.14436 0.91597 0.0
H189 H 0.23405 0.90587 0.97562 0.0
H190 H 0.9384 1.00031 0.64938 0.0
H191 H 0.8118 0.17074 0.75043 0.0
H192 H 0.88595 0.08444 0.57703 0.0
H193 H 0.76177 0.2521 0.67625 0.0
H194 H 0.18868 0.10191 0.68218 0.0
H195 H 0.20184 0.92403 0.80465 0.0
H196 H 0.33221 0.05948 0.65641 0.0
H197 H 0.3448 0.88436 0.77654 0.0
H198 H 0.98943 0.42295 0.74327 0.0
H199 H 0.07048 0.28061 0.613 0.0
H200 H 0.88403 0.70862 0.66941 0.0
H201 H 0.12255 0.7943 0.60979 0.0
loop_
_geom_bond_atom_site_label_1
_geom_bond_atom_site_label_2
_geom_bond_distance
_geom_bond_site_symmetry_2
_ccdc_geom_bond_type
Mg0 O7 2.141 . S
Mg0 O8 2.048 1_554 S
Mg0 O9 2.048 1_554 S
Mg0 O12 2.141 . S
C1 O2 1.313 . S
C1 O8 1.195 1_565 S
O2 C1 1.313 . S
C3 O4 1.245 . S
C3 O12 1.289 1_565 S
O4 C3 1.245 . S
C5 O6 1.245 . S
C5 O7 1.289 1_565 S
O6 C5 1.245 . S
O7 Mg0 2.141 . S
O7 C5 1.289 1_545 S
O8 Mg0 2.048 1_556 S
O8 C1 1.195 1_545 S
O9 Mg0 2.048 1_556 S
O9 C10 1.195 1_545 S
C10 O9 1.195 1_565 S
C10 O11 1.313 . S
O11 C10 1.313 . S
O12 Mg0 2.141 . S
O12 C3 1.289 1_545 S
Mg13 O20 2.141 . S
Mg13 O21 2.048 . S
Mg13 O22 2.048 . S
Mg13 O25 2.141 . S
C14 O15 1.313 . S
C14 O21 1.195 1_455 S
O15 C14 1.313 . S
C16 O17 1.245 . S
C16 O25 1.289 1_455 S
O17 C16 1.245 . S
C18 O19 1.245 . S
C18 O20 1.289 1_455 S
O19 C18 1.245 . S
O20 Mg13 2.141 . S
O20 C18 1.289 1_655 S
O21 Mg13 2.048 . S
O21 C14 1.195 1_655 S
O22 Mg13 2.048 . S
O22 C23 1.195 1_655 S
C23 O22 1.195 1_455 S
C23 O24 1.313 . S
O24 C23 1.313 . S
O25 Mg13 2.141 . S
O25 C16 1.289 1_655 S
Li26 N43 1.990 . S
Li26 O86 1.956 1_545 S
Li26 O87 1.970 1_455 S
Li26 O88 1.961 1_455 S
Li27 N51 1.990 . S
Li27 O86 1.970 1_655 S
Li27 O87 1.956 1_565 S
Li27 O89 1.961 1_655 S
Li28 N73 1.990 . S
Li28 O86 1.961 1_545 S
Li28 O88 1.956 1_455 S
Li28 O89 1.970 1_545 S
Li29 N79 1.990 . S
Li29 O87 1.961 1_565 S
Li29 O88 1.970 1_565 S
Li29 O89 1.956 1_655 S
C30 C32 1.348 1_545 S
C30 C33 1.356 . S
C30 O86 1.325 1_545 S
N31 C34 1.314 1_545 S
N31 C35 1.279 . S
C32 C30 1.348 1_565 S
C32 C34 1.353 . S
C32 H90 0.929 . S
C33 C30 1.356 . S
C33 C35 1.358 . S
C33 H91 0.930 . S
C34 N31 1.314 1_565 S
C34 C32 1.353 . S
C34 H92 0.930 . S
C35 N31 1.279 . S
C35 C33 1.358 . S
C35 H93 0.930 . S
C36 C39 1.348 . S
C36 C40 1.356 1_545 S
C36 O87 1.325 . S
C37 N38 1.279 . S
C37 C40 1.358 . S
C37 H94 0.930 . S
N38 C37 1.279 . S
N38 C41 1.314 1_565 S
C39 C36 1.348 . S
C39 C41 1.353 . S
C39 H95 0.929 . S
C40 C36 1.356 1_565 S
C40 C37 1.358 . S
C40 H96 0.930 . S
C41 N38 1.314 1_545 S
C41 C39 1.353 . S
C41 H97 0.930 . S
C42 N43 1.314 1_655 S
C42 C47 1.353 . S
C42 H48 0.930 . S
N43 Li26 1.990 . S
N43 C42 1.314 1_455 S
N43 C45 1.279 . S
C44 C45 1.358 . S
C44 C46 1.356 . S
C44 H98 0.930 . S
C45 N43 1.279 . S
C45 C44 1.358 . S
C45 H49 0.930 . S
C46 C44 1.356 . S
C46 C47 1.348 1_455 S
C47 C42 1.353 . S
C47 C46 1.348 1_655 S
C47 H99 0.929 . S
H48 C42 0.930 . S
H49 C45 0.930 . S
C50 N51 1.314 1_455 S
C50 C52 1.353 . S
C50 H56 0.930 . S
N51 Li27 1.990 . S
N51 C50 1.314 1_655 S
N51 C54 1.279 . S
C52 C50 1.353 . S
C52 C55 1.348 . S
C52 H100 0.929 . S
C53 C54 1.358 . S
C53 C55 1.356 1_655 S
C53 H101 0.930 . S
C54 N51 1.279 . S
C54 C53 1.358 . S
C54 H57 0.930 . S
C55 C52 1.348 . S
C55 C53 1.356 1_455 S
H56 C50 0.930 . S
H57 C54 0.930 . S
C58 C60 1.348 1_455 S
C58 C61 1.356 . S
C58 O88 1.325 1_455 S
N59 C62 1.314 1_455 S
N59 C63 1.279 . S
C60 C58 1.348 1_655 S
C60 C62 1.353 . S
C60 H102 0.929 . S
C61 C58 1.356 . S
C61 C63 1.358 . S
C61 H103 0.930 . S
C62 N59 1.314 1_655 S
C62 C60 1.353 . S
C62 H104 0.930 . S
C63 N59 1.279 . S
C63 C61 1.358 . S
C63 H105 0.930 . S
C64 C65 1.348 . S
C64 C66 1.356 1_455 S
C64 O89 1.325 . S
C65 C64 1.348 . S
C65 C67 1.353 . S
C65 H106 0.929 . S
C66 C64 1.356 1_655 S
C66 C68 1.358 . S
C66 H107 0.930 . S
C67 C65 1.353 . S
C67 N69 1.314 1_455 S
C67 H108 0.930 . S
C68 C66 1.358 . S
C68 N69 1.279 . S
C68 H109 0.930 . S
N69 C67 1.314 1_655 S
N69 C68 1.279 . S
C70 C72 1.353 . S
C70 N73 1.314 1_565 S
C70 H76 0.930 . S
C71 N73 1.279 . S
C71 C74 1.358 . S
C71 H77 0.930 . S
C72 C70 1.353 . S
C72 C75 1.348 1_565 S
C72 H110 0.929 . S
N73 Li28 1.990 . S
N73 C70 1.314 1_545 S
N73 C71 1.279 . S
C74 C71 1.358 . S
C74 C75 1.356 . S
C74 H111 0.930 . S
C75 C72 1.348 1_545 S
C75 C74 1.356 . S
H76 C70 0.930 . S
H77 C71 0.930 . S
C78 N79 1.314 1_545 S
C78 C80 1.353 . S
C78 H84 0.930 . S
N79 Li29 1.990 . S
N79 C78 1.314 1_565 S
N79 C82 1.279 . S
C80 C78 1.353 . S
C80 C83 1.348 . S
C80 H112 0.929 . S
C81 C82 1.358 . S
C81 C83 1.356 1_565 S
C81 H113 0.930 . S
C82 N79 1.279 . S
C82 C81 1.358 . S
C82 H85 0.930 . S
C83 C80 1.348 . S
C83 C81 1.356 1_545 S
H84 C78 0.930 . S
H85 C82 0.930 . S
O86 Li26 1.956 1_565 S
O86 Li27 1.970 1_455 S
O86 Li28 1.961 1_565 S
O86 C30 1.325 1_565 S
O87 Li26 1.970 1_655 S
O87 Li27 1.956 1_545 S
O87 Li29 1.961 1_545 S
O87 C36 1.325 . S
O88 Li26 1.961 1_655 S
O88 Li28 1.956 1_655 S
O88 Li29 1.970 1_545 S
O88 C58 1.325 1_655 S
O89 Li27 1.961 1_455 S
O89 Li28 1.970 1_565 S
O89 Li29 1.956 1_455 S
O89 C64 1.325 . S
H90 C32 0.929 . S
H91 C33 0.930 . S
H92 C34 0.930 . S
H93 C35 0.930 . S
H94 C37 0.930 . S
H95 C39 0.929 . S
H96 C40 0.930 . S
H97 C41 0.930 . S
H98 C44 0.930 . S
H99 C47 0.929 . S
H100 C52 0.929 . S
H101 C53 0.930 . S
H102 C60 0.929 . S
H103 C61 0.930 . S
H104 C62 0.930 . S
H105 C63 0.930 . S
H106 C65 0.929 . S
H107 C66 0.930 . S
H108 C67 0.930 . S
H109 C68 0.930 . S
H110 C72 0.929 . S
H111 C74 0.930 . S
H112 C80 0.929 . S
H113 C81 0.930 . S
Li114 N131 1.990 . S
Li114 O174 1.956 1_655 S
Li114 O175 1.970 1_545 S
Li114 O176 1.961 1_545 S
Li115 N139 1.990 . S
Li115 O174 1.970 1_565 S
Li115 O175 1.956 1_455 S
Li115 O177 1.961 1_565 S
Li116 N161 1.990 . S
Li116 O174 1.961 1_655 S
Li116 O176 1.956 1_545 S
Li116 O177 1.970 1_655 S
Li117 N167 1.990 . S
Li117 O175 1.961 1_455 S
Li117 O176 1.970 1_455 S
Li117 O177 1.956 1_565 S
C118 C120 1.348 . S
C118 C121 1.355 1_455 S
C118 O174 1.325 . S
N119 C122 1.314 1_655 S
N119 C123 1.279 . S
C120 C118 1.348 . S
C120 C122 1.353 . S
C120 H178 0.929 . S
C121 C118 1.355 1_655 S
C121 C123 1.358 . S
C121 H179 0.930 . S
C122 N119 1.314 1_455 S
C122 C120 1.353 . S
C122 H180 0.930 . S
C123 N119 1.279 . S
C123 C121 1.358 . S
C123 H181 0.930 . S
C124 C127 1.348 1_455 S
C124 C128 1.355 . S
C124 O175 1.325 1_455 S
C125 N126 1.279 . S
C125 C128 1.358 . S
C125 H182 0.930 . S
N126 C125 1.279 . S
N126 C129 1.314 1_455 S
C127 C124 1.348 1_655 S
C127 C129 1.353 . S
C127 H183 0.929 . S
C128 C124 1.355 . S
C128 C125 1.358 . S
C128 H184 0.930 . S
C129 N126 1.314 1_655 S
C129 C127 1.353 . S
C129 H185 0.930 . S
C130 N131 1.314 1_565 S
C130 C135 1.353 . S
C130 H136 0.930 . S
N131 Li114 1.990 . S
N131 C130 1.314 1_545 S
N131 C133 1.279 . S
C132 C133 1.358 . S
C132 C134 1.355 . S
C132 H186 0.930 . S
C133 N131 1.279 . S
C133 C132 1.358 . S
C133 H137 0.930 . S
C134 C132 1.355 . S
C134 C135 1.348 1_545 S
C135 C130 1.353 . S
C135 C134 1.348 1_565 S
C135 H187 0.929 . S
H136 C130 0.930 . S
H137 C133 0.930 . S
C138 N139 1.314 1_545 S
C138 C140 1.353 . S
C138 H144 0.930 . S
N139 Li115 1.990 . S
N139 C138 1.314 1_565 S
N139 C142 1.279 . S
C140 C138 1.353 . S
C140 C143 1.348 . S
C140 H188 0.929 . S
C141 C142 1.358 . S
C141 C143 1.355 1_565 S
C141 H189 0.930 . S
C142 N139 1.279 . S
C142 C141 1.358 . S
C142 H145 0.930 . S
C143 C140 1.348 . S
C143 C141 1.355 1_545 S
H144 C138 0.930 . S
H145 C142 0.930 . S
C146 C148 1.348 1_545 S
C146 C149 1.355 . S
C146 O176 1.325 1_545 S
N147 C150 1.314 1_545 S
N147 C151 1.279 . S
C148 C146 1.348 1_565 S
C148 C150 1.353 . S
C148 H190 0.929 . S
C149 C146 1.355 . S
C149 C151 1.358 . S
C149 H191 0.930 . S
C150 N147 1.314 1_565 S
C150 C148 1.353 . S
C150 H192 0.930 . S
C151 N147 1.279 . S
C151 C149 1.358 . S
C151 H193 0.930 . S
C152 C153 1.348 . S
C152 C154 1.355 1_545 S
C152 O177 1.325 . S
C153 C152 1.348 . S
C153 C155 1.353 . S
C153 H194 0.929 . S
C154 C152 1.355 1_565 S
C154 C156 1.358 . S
C154 H195 0.930 . S
C155 C153 1.353 . S
C155 N157 1.314 1_545 S
C155 H196 0.930 . S
C156 C154 1.358 . S
C156 N157 1.279 . S
C156 H197 0.930 . S
N157 C155 1.314 1_565 S
N157 C156 1.279 . S
C158 C160 1.353 . S
C158 N161 1.314 1_455 S
C158 H164 0.930 . S
C159 N161 1.279 . S
C159 C162 1.358 . S
C159 H165 0.930 . S
C160 C158 1.353 . S
C160 C163 1.348 . S
C160 H198 0.929 . S
N161 Li116 1.990 . S
N161 C158 1.314 1_655 S
N161 C159 1.279 . S
C162 C159 1.358 . S
C162 C163 1.355 1_655 S
C162 H199 0.930 . S
C163 C160 1.348 . S
C163 C162 1.355 1_455 S
H164 C158 0.930 . S
H165 C159 0.930 . S
C166 N167 1.314 1_655 S
C166 C168 1.353 . S
C166 H172 0.930 . S
N167 Li117 1.990 . S
N167 C166 1.314 1_455 S
N167 C170 1.279 . S
C168 C166 1.353 . S
C168 C171 1.348 1_655 S
C168 H200 0.929 . S
C169 C170 1.358 . S
C169 C171 1.355 . S
C169 H201 0.930 . S
C170 N167 1.279 . S
C170 C169 1.358 . S
C170 H173 0.930 . S
C171 C168 1.348 1_455 S
C171 C169 1.355 . S
H172 C166 0.930 . S
H173 C170 0.930 . S
O174 Li114 1.956 1_455 S
O174 Li115 1.970 1_545 S
O174 Li116 1.961 1_455 S
O174 C118 1.325 . S
O175 Li114 1.970 1_565 S
O175 Li115 1.956 1_655 S
O175 Li117 1.961 1_655 S
O175 C124 1.325 1_655 S
O176 Li114 1.961 1_565 S
O176 Li116 1.956 1_565 S
O176 Li117 1.970 1_655 S
O176 C146 1.325 1_565 S
O177 Li115 1.961 1_545 S
O177 Li116 1.970 1_455 S
O177 Li117 1.956 1_545 S
O177 C152 1.325 . S
H178 C120 0.929 . S
H179 C121 0.930 . S
H180 C122 0.930 . S
H181 C123 0.930 . S
H182 C125 0.930 . S
H183 C127 0.929 . S
H184 C128 0.930 . S
H185 C129 0.930 . S
H186 C132 0.930 . S
H187 C135 0.929 . S
H188 C140 0.929 . S
H189 C141 0.930 . S
H190 C148 0.929 . S
H191 C149 0.930 . S
H192 C150 0.930 . S
H193 C151 0.930 . S
H194 C153 0.929 . S
H195 C154 0.930 . S
H196 C155 0.930 . S
H197 C156 0.930 . S
H198 C160 0.929 . S
H199 C162 0.930 . S
H200 C168 0.929 . S
H201 C169 0.930 . S
C75 C5 1.444 1_545 S
C163 C23 1.523 . S
C83 C3 1.446 1_545 S
C171 C14 1.525 . S
C143 C1 1.523 1_545 S
C46 C16 1.444 . S
C134 C10 1.525 1_545 S
C18 C55 1.446 . S
