# Generated by pormake.
# Topology bcu-b, (8,8)-cn, num edge types: 1
# Building blocks:
#     Node 0, Type 0, BuildingBlock: TAGTUT_clean_sbu_3, # of connection points: 8
#     Node 1, Type 1, BuildingBlock: TAGTUT_clean_sbu_3, # of connection points: 8
#     Edge 2, Type (0, 1), BuildingBlock: XIVTED_clean_linker_0, # of connection points: 2
#     Edge 3, Type (0, 1), BuildingBlock: XIVTED_clean_linker_0, # of connection points: 2
#     Edge 4, Type (0, 1), BuildingBlock: XIVTED_clean_linker_0, # of connection points: 2
#     Edge 5, Type (0, 1), BuildingBlock: XIVTED_clean_linker_0, # of connection points: 2
#     Edge 6, Type (0, 1), BuildingBlock: XIVTED_clean_linker_0, # of connection points: 2
#     Edge 7, Type (0, 1), BuildingBlock: XIVTED_clean_linker_0, # of connection points: 2
#     Edge 8, Type (0, 1), BuildingBlock: XIVTED_clean_linker_0, # of connection points: 2
#     Edge 9, Type (0, 1), BuildingBlock: XIVTED_clean_linker_0, # of connection points: 2
# Relax obj value: 0.012
# Max RMSD: 0.062
# Mean RMSD: 0.062
data_MOF--net-bcu-b--node1-TAGTUT_clean_sbu_3--node2-TAGTUT_clean_sbu_3--edge1-XIVTED_clean_linker_0
_symmetry_space_group_name_H-M    P1
_symmetry_Int_Tables_number       1
_symmetry_cell_setting            triclinic
loop_
_symmetry_equiv_pos_as_xyz
'x, y, z'
_cell_length_a     19.389152
_cell_length_b     19.141428
_cell_length_c     21.712684
_cell_angle_alpha  89.888941
_cell_angle_beta   90.303471
_cell_angle_gamma 105.07109
loop_
_atom_site_label
_atom_site_type_symbol
_atom_site_fract_x
_atom_site_fract_y
_atom_site_fract_z
_atom_type_partial_charge
C0 C 0.10848 0.1224 0.05313 0.0
C1 C 0.1747 0.88789 0.10934 0.0
C2 C 0.13613 0.82885 0.91679 0.0
Mg3 Mg 0.99417 0.154 0.95535 0.0
Mg4 Mg 0.85249 0.02522 0.91909 0.0
O5 O 0.95207 0.0539 0.92306 0.0
Mg6 Mg 1.00526 0.99639 -0.02904 0.0
O7 O 0.06514 0.94591 0.01904 0.0
Mg8 Mg 0.16318 0.99282 -0.01271 0.0
Mg9 Mg 0.04139 0.84514 0.02326 0.0
C10 C 0.8888 0.87614 0.89125 0.0
O11 O 0.91052 0.94127 0.03445 0.0
O12 O 0.94092 0.19214 0.86862 0.0
O13 O 0.92941 0.82972 0.04244 0.0
O14 O 0.89529 0.156 0.0133 0.0
O15 O 0.84941 0.09644 0.84409 0.0
O16 O 0.80378 0.06002 -0.00203 0.0
O17 O 0.1051 0.04123 0.90998 0.0
O18 O 0.09179 0.15323 0.90003 0.0
C19 C 0.12665 0.10629 0.89007 0.0
C20 C 0.88947 0.15971 0.83266 0.0
O21 O 0.95522 0.89959 0.90643 0.0
O22 O 0.20417 0.94103 0.07364 0.0
O23 O 0.84261 0.91262 0.89964 0.0
O24 O 0.16978 0.89422 0.92865 0.0
O25 O 0.11322 0.84507 0.098 0.0
O26 O 0.07807 0.7985 0.94411 0.0
O27 O 0.04467 0.09771 0.03279 0.0
O28 O 0.1572 0.09001 0.04323 0.0
C29 C 0.83157 0.11968 0.02513 0.0
C30 C 0.89041 0.87394 0.04996 0.0
C31 C 0.64516 0.58278 0.54631 0.0
C32 C 0.70815 0.35592 0.47247 0.0
C33 C 0.57912 0.36427 0.3125 0.0
Mg34 Mg 0.50926 0.64656 0.52104 0.0
Mg35 Mg 0.34889 0.53918 0.49581 0.0
O36 O 0.44493 0.56512 0.47382 0.0
Mg37 Mg 0.50464 0.49479 0.47073 0.0
O38 O 0.57284 0.43299 0.46735 0.0
Mg39 Mg 0.65234 0.49568 0.41784 0.0
Mg40 Mg 0.54545 0.33505 0.44721 0.0
C41 C 0.35348 0.41748 0.39803 0.0
O42 O 0.44169 0.41372 0.54304 0.0
O43 O 0.43569 0.71711 0.48705 0.0
O44 O 0.45641 0.30624 0.51025 0.0
O45 O 0.44098 0.61914 0.6097 0.0
O46 O 0.32845 0.63977 0.46826 0.0
O47 O 0.341 0.53213 0.59382 0.0
O48 O 0.57262 0.56477 0.39574 0.0
O49 O 0.57267 0.67339 0.43239 0.0
C50 C 0.59047 0.63379 0.39129 0.0
C51 C 0.3706 0.70365 0.46828 0.0
O52 O 0.42214 0.43019 0.40068 0.0
O53 O 0.72177 0.42113 0.45211 0.0
O54 O 0.31732 0.44737 0.43423 0.0
O55 O 0.62157 0.42373 0.33079 0.0
O56 O 0.64476 0.31402 0.47412 0.0
O57 O 0.53585 0.32329 0.34946 0.0
O58 O 0.57688 0.56514 0.54335 0.0
O59 O 0.68253 0.56289 0.50487 0.0
C60 C 0.38271 0.577 0.62949 0.0
C61 C 0.42828 0.34412 0.54643 0.0
H62 H 0.03733 0.15245 0.15407 0.0
H63 H 0.40802 0.37822 0.29144 0.0
H64 H 0.22754 0.23177 0.04602 0.0
H65 H 0.20927 0.35891 0.38738 0.0
H66 H 0.34064 0.32 0.20202 0.0
H67 H 0.09478 0.23072 0.23947 0.0
C68 C 0.08995 0.1886 0.14755 0.0
C69 C 0.12825 0.18569 0.09354 0.0
C70 C 0.31172 0.32863 0.24263 0.0
C71 C 0.19486 0.27222 0.19076 0.0
C72 C 0.35028 0.36097 0.29401 0.0
C73 C 0.31428 0.37353 0.34695 0.0
C74 C 0.23665 0.30796 0.24436 0.0
C75 C 0.23922 0.35049 0.34738 0.0
C76 C 0.12315 0.23232 0.19645 0.0
C77 C 0.1967 0.23238 0.08739 0.0
N78 N 0.20282 0.31864 0.29685 0.0
N79 N 0.22839 0.27275 0.13586 0.0
H80 H 0.69578 0.05916 0.06916 0.0
H81 H 0.67059 0.43174 0.22207 0.0
H82 H 0.86432 0.25767 0.06938 0.0
H83 H 0.52543 0.22618 0.26808 0.0
H84 H 0.7251 0.37122 0.14482 0.0
H85 H 0.62025 0.12118 0.1266 0.0
C86 C 0.71709 0.11548 0.08153 0.0
C87 C 0.78683 0.153 0.06478 0.0
C88 C 0.68059 0.33949 0.1712 0.0
C89 C 0.70014 0.22448 0.12873 0.0
C90 C 0.64883 0.37418 0.21494 0.0
C91 C 0.5945 0.33381 0.25293 0.0
C92 C 0.6579 0.2639 0.16525 0.0
C93 C 0.56798 0.25944 0.24064 0.0
C94 C 0.67379 0.15089 0.11388 0.0
C95 C 0.81131 0.22612 0.08167 0.0
N96 N 0.60089 0.22656 0.19866 0.0
N97 N 0.76804 0.25934 0.11242 0.0
H98 H 0.82705 0.94559 0.13261 0.0
H99 H 0.62406 0.57018 0.28628 0.0
H100 H 0.80518 0.73716 0.04805 0.0
H101 H 0.63804 0.77874 0.36864 0.0
H102 H 0.67915 0.63139 0.19315 0.0
H103 H 0.74132 0.88731 0.21163 0.0
C104 C 0.80249 0.88798 0.12962 0.0
C105 C 0.82414 0.84574 0.08478 0.0
C106 C 0.66986 0.66375 0.23154 0.0
C107 C 0.72811 0.77867 0.17528 0.0
C108 C 0.639 0.62876 0.28495 0.0
C109 C 0.62709 0.6693 0.33563 0.0
C110 C 0.68925 0.73981 0.22891 0.0
C111 C 0.64671 0.74518 0.33091 0.0
C112 C 0.75426 0.85453 0.17507 0.0
C113 C 0.79086 0.77132 0.08282 0.0
N114 N 0.67713 0.77792 0.27866 0.0
N115 N 0.74548 0.73993 0.12813 0.0
H116 H 0.31622 0.93803 0.1455 0.0
H117 H 0.23606 0.72121 0.46235 0.0
H118 H 0.10875 0.81849 0.21019 0.0
H119 H 0.44974 0.8109 0.39513 0.0
H120 H 0.19043 0.78674 0.38228 0.0
H121 H 0.36758 0.91661 0.24565 0.0
C122 C 0.28156 0.90766 0.18067 0.0
C123 C 0.20845 0.87851 0.16893 0.0
C124 C 0.24752 0.79336 0.38556 0.0
C125 C 0.26607 0.85552 0.28329 0.0
C126 C 0.27353 0.7564 0.43167 0.0
C127 C 0.34648 0.75989 0.43465 0.0
C128 C 0.29461 0.8327 0.3412 0.0
C129 C 0.39295 0.80663 0.3941 0.0
C130 C 0.31074 0.8958 0.23777 0.0
C131 C 0.16571 0.84048 0.21639 0.0
N132 N 0.36604 0.83994 0.34787 0.0
N133 N 0.19517 0.82992 0.27107 0.0
H134 H 0.08174 0.68917 0.87542 0.0
H135 H 0.44906 0.67838 0.71444 0.0
H136 H 0.27077 0.86812 0.86914 0.0
H137 H 0.2502 0.51835 0.67953 0.0
H138 H 0.38906 0.73403 0.79115 0.0
H139 H 0.14582 0.61549 0.81803 0.0
C140 C 0.13641 0.71317 0.86167 0.0
C141 C 0.17065 0.78523 0.87682 0.0
C142 C 0.35877 0.68608 0.76733 0.0
C143 C 0.24462 0.70069 0.81271 0.0
C144 C 0.39323 0.65367 0.72392 0.0
C145 C 0.3543 0.5946 0.68912 0.0
C146 C 0.28491 0.65921 0.77623 0.0
C147 C 0.2822 0.56458 0.70437 0.0
C148 C 0.17305 0.67091 0.82935 0.0
C149 C 0.24179 0.81315 0.85817 0.0
N150 N 0.24945 0.59804 0.74599 0.0
N151 N 0.27631 0.77084 0.82735 0.0
H152 H 0.22694 0.23317 0.89727 0.0
H153 H 0.37026 0.19839 0.5581 0.0
H154 H 0.1669 0.03519 0.79274 0.0
H155 H 0.38871 0.40107 0.65233 0.0
H156 H 0.31024 0.13387 0.64795 0.0
H157 H 0.3071 0.28944 0.81474 0.0
C158 C 0.2324 0.20097 0.85746 0.0
C159 C 0.19013 0.1298 0.85125 0.0
C160 C 0.32735 0.19241 0.64887 0.0
C161 C 0.27968 0.1944 0.75586 0.0
C162 C 0.36129 0.22945 0.59751 0.0
C163 C 0.38451 0.30544 0.59759 0.0
C164 C 0.31694 0.23151 0.70092 0.0
C165 C 0.37135 0.34261 0.64996 0.0
C166 C 0.27742 0.23334 0.81009 0.0
C167 C 0.19894 0.09017 0.7991 0.0
N168 N 0.33868 0.3052 0.69961 0.0
N169 N 0.24204 0.12352 0.75263 0.0
H170 H 0.83113 0.08745 0.73024 0.0
H171 H 0.81781 0.43831 0.54133 0.0
H172 H 0.92835 0.3034 0.79632 0.0
H173 H 0.72228 0.21884 0.48354 0.0
H174 H 0.88149 0.39246 0.6234 0.0
H175 H 0.81157 0.13664 0.63098 0.0
C176 C 0.84802 0.14558 0.72399 0.0
C177 C 0.87976 0.1916 0.77227 0.0
C178 C 0.8481 0.3545 0.59173 0.0
C179 C 0.85739 0.24873 0.65761 0.0
C180 C 0.81238 0.38063 0.54442 0.0
C181 C 0.76391 0.33202 0.50634 0.0
C182 C 0.83509 0.27949 0.60047 0.0
C183 C 0.75838 0.25799 0.51256 0.0
C184 C 0.83739 0.17366 0.66685 0.0
C185 C 0.90261 0.26619 0.76058 0.0
N186 N 0.79259 0.23397 0.5594 0.0
N187 N 0.88989 0.29271 0.70454 0.0
H188 H 0.95972 0.82394 0.80085 0.0
H189 H 0.58657 0.61228 0.65485 0.0
H190 H 0.75921 0.77993 0.89738 0.0
H191 H 0.78892 0.63533 0.56392 0.0
H192 H 0.65069 0.66537 0.74764 0.0
H193 H 0.90155 0.74059 0.71927 0.0
C194 C 0.90415 0.79468 0.8059 0.0
C195 C 0.8637 0.80953 0.85506 0.0
C196 C 0.68109 0.65854 0.70744 0.0
C197 C 0.79651 0.71654 0.76169 0.0
C198 C 0.6444 0.62896 0.65422 0.0
C199 C 0.68233 0.61987 0.60136 0.0
C200 C 0.75622 0.67966 0.70767 0.0
C201 C 0.75738 0.64164 0.60351 0.0
C202 C 0.87065 0.74793 0.759 0.0
C203 C 0.7918 0.77069 0.85944 0.0
N204 N 0.79182 0.67081 0.65566 0.0
N205 N 0.7601 0.72703 0.81272 0.0
loop_
_geom_bond_atom_site_label_1
_geom_bond_atom_site_label_2
_geom_bond_distance
_geom_bond_site_symmetry_2
_ccdc_geom_bond_type
C0 O27 1.312 . S
C0 O28 1.208 . S
C1 O22 1.331 . S
C1 O25 1.244 . S
C2 O24 1.264 . S
C2 O26 1.273 . S
Mg3 O5 1.936 . S
Mg3 O12 2.081 . S
Mg3 O14 2.023 1_556 S
Mg3 O18 2.031 1_655 S
Mg3 O27 2.291 1_656 S
Mg4 O5 1.963 . S
Mg4 O15 1.942 . S
Mg4 O16 1.955 1_556 S
Mg4 O23 1.986 1_545 S
O5 Mg3 1.936 . S
O5 Mg4 1.963 . S
O5 Mg6 1.915 1_546 S
Mg6 O5 1.915 1_564 S
Mg6 O7 1.915 1_655 S
Mg6 O11 2.013 . S
Mg6 O17 2.114 1_664 S
Mg6 O21 2.013 1_554 S
Mg6 O27 2.114 1_665 S
O7 Mg6 1.915 1_455 S
O7 Mg8 1.936 . S
O7 Mg9 1.963 . S
Mg8 O7 1.936 . S
Mg8 O17 2.291 1_564 S
Mg8 O22 2.081 . S
Mg8 O24 2.023 1_554 S
Mg8 O28 2.031 1_565 S
Mg9 O7 1.963 . S
Mg9 O13 1.986 1_455 S
Mg9 O25 1.942 . S
Mg9 O26 1.955 1_554 S
C10 O21 1.191 . S
C10 O23 1.307 . S
O11 Mg6 2.013 . S
O11 C30 1.191 . S
O12 Mg3 2.081 . S
O12 C20 1.331 . S
O13 Mg9 1.986 1_655 S
O13 C30 1.307 . S
O14 Mg3 2.023 1_554 S
O14 C29 1.264 . S
O15 Mg4 1.942 . S
O15 C20 1.244 . S
O16 Mg4 1.955 1_554 S
O16 C29 1.273 . S
O17 Mg6 2.114 1_446 S
O17 Mg8 2.291 1_546 S
O17 C19 1.312 . S
O18 Mg3 2.031 1_455 S
O18 C19 1.208 . S
C19 O17 1.312 . S
C19 O18 1.208 . S
C20 O12 1.331 . S
C20 O15 1.244 . S
O21 Mg6 2.013 1_556 S
O21 C10 1.191 . S
O22 C1 1.331 . S
O22 Mg8 2.081 . S
O23 Mg4 1.986 1_565 S
O23 C10 1.307 . S
O24 C2 1.264 . S
O24 Mg8 2.023 1_556 S
O25 C1 1.244 . S
O25 Mg9 1.942 . S
O26 C2 1.273 . S
O26 Mg9 1.955 1_556 S
O27 C0 1.312 . S
O27 Mg3 2.291 1_454 S
O27 Mg6 2.114 1_445 S
O28 C0 1.208 . S
O28 Mg8 2.031 1_545 S
C29 O14 1.264 . S
C29 O16 1.273 . S
C30 O11 1.191 . S
C30 O13 1.307 . S
C31 O58 1.312 . S
C31 O59 1.208 . S
C32 O53 1.331 . S
C32 O56 1.244 . S
C33 O55 1.264 . S
C33 O57 1.273 . S
Mg34 O36 1.936 . S
Mg34 O43 2.081 . S
Mg34 O45 2.023 . S
Mg34 O49 2.031 . S
Mg34 O58 2.291 . S
Mg35 O36 1.963 . S
Mg35 O46 1.942 . S
Mg35 O47 1.955 . S
Mg35 O54 1.986 . S
O36 Mg34 1.936 . S
O36 Mg35 1.963 . S
O36 Mg37 1.915 . S
Mg37 O36 1.915 . S
Mg37 O38 1.915 . S
Mg37 O42 2.013 . S
Mg37 O48 2.114 . S
Mg37 O52 2.013 . S
Mg37 O58 2.114 . S
O38 Mg37 1.915 . S
O38 Mg39 1.936 . S
O38 Mg40 1.963 . S
Mg39 O38 1.936 . S
Mg39 O48 2.291 . S
Mg39 O53 2.081 . S
Mg39 O55 2.023 . S
Mg39 O59 2.031 . S
Mg40 O38 1.963 . S
Mg40 O44 1.986 . S
Mg40 O56 1.942 . S
Mg40 O57 1.955 . S
C41 O52 1.191 . S
C41 O54 1.307 . S
O42 Mg37 2.013 . S
O42 C61 1.191 . S
O43 Mg34 2.081 . S
O43 C51 1.331 . S
O44 Mg40 1.986 . S
O44 C61 1.307 . S
O45 Mg34 2.023 . S
O45 C60 1.264 . S
O46 Mg35 1.942 . S
O46 C51 1.244 . S
O47 Mg35 1.955 . S
O47 C60 1.273 . S
O48 Mg37 2.114 . S
O48 Mg39 2.291 . S
O48 C50 1.312 . S
O49 Mg34 2.031 . S
O49 C50 1.208 . S
C50 O48 1.312 . S
C50 O49 1.208 . S
C51 O43 1.331 . S
C51 O46 1.244 . S
O52 Mg37 2.013 . S
O52 C41 1.191 . S
O53 C32 1.331 . S
O53 Mg39 2.081 . S
O54 Mg35 1.986 . S
O54 C41 1.307 . S
O55 C33 1.264 . S
O55 Mg39 2.023 . S
O56 C32 1.244 . S
O56 Mg40 1.942 . S
O57 C33 1.273 . S
O57 Mg40 1.955 . S
O58 C31 1.312 . S
O58 Mg34 2.291 . S
O58 Mg37 2.114 . S
O59 C31 1.208 . S
O59 Mg39 2.031 . S
C60 O45 1.264 . S
C60 O47 1.273 . S
C61 O42 1.191 . S
C61 O44 1.307 . S
H62 C68 0.930 . S
H63 C72 0.930 . S
H64 C77 0.929 . S
H65 C75 0.929 . S
H66 C70 0.929 . S
H67 C76 0.929 . S
C68 H62 0.930 . S
C68 C69 1.367 . S
C68 C76 1.378 . S
C69 C68 1.367 . S
C69 C77 1.433 . S
C70 H66 0.929 . S
C70 C72 1.378 . S
C70 C74 1.350 . S
C71 C74 1.463 . S
C71 C76 1.350 . S
C71 N79 1.427 . S
C72 H63 0.930 . S
C72 C70 1.378 . S
C72 C73 1.367 . S
C73 C72 1.367 . S
C73 C75 1.433 . S
C74 C70 1.350 . S
C74 C71 1.463 . S
C74 N78 1.427 . S
C75 H65 0.929 . S
C75 C73 1.433 . S
C75 N78 1.384 . S
C76 H67 0.929 . S
C76 C68 1.378 . S
C76 C71 1.350 . S
C77 H64 0.929 . S
C77 C69 1.433 . S
C77 N79 1.384 . S
N78 C74 1.427 . S
N78 C75 1.384 . S
N79 C71 1.427 . S
N79 C77 1.384 . S
H80 C86 0.930 . S
H81 C90 0.930 . S
H82 C95 0.929 . S
H83 C93 0.929 . S
H84 C88 0.929 . S
H85 C94 0.929 . S
C86 H80 0.930 . S
C86 C87 1.367 . S
C86 C94 1.378 . S
C87 C86 1.367 . S
C87 C95 1.433 . S
C88 H84 0.929 . S
C88 C90 1.378 . S
C88 C92 1.350 . S
C89 C92 1.463 . S
C89 C94 1.350 . S
C89 N97 1.427 . S
C90 H81 0.930 . S
C90 C88 1.378 . S
C90 C91 1.367 . S
C91 C90 1.367 . S
C91 C93 1.433 . S
C92 C88 1.350 . S
C92 C89 1.463 . S
C92 N96 1.427 . S
C93 H83 0.929 . S
C93 C91 1.433 . S
C93 N96 1.384 . S
C94 H85 0.929 . S
C94 C86 1.378 . S
C94 C89 1.350 . S
C95 H82 0.929 . S
C95 C87 1.433 . S
C95 N97 1.384 . S
N96 C92 1.427 . S
N96 C93 1.384 . S
N97 C89 1.427 . S
N97 C95 1.384 . S
H98 C104 0.930 . S
H99 C108 0.930 . S
H100 C113 0.929 . S
H101 C111 0.929 . S
H102 C106 0.929 . S
H103 C112 0.929 . S
C104 H98 0.930 . S
C104 C105 1.367 . S
C104 C112 1.378 . S
C105 C104 1.367 . S
C105 C113 1.433 . S
C106 H102 0.929 . S
C106 C108 1.378 . S
C106 C110 1.350 . S
C107 C110 1.463 . S
C107 C112 1.350 . S
C107 N115 1.427 . S
C108 H99 0.930 . S
C108 C106 1.378 . S
C108 C109 1.367 . S
C109 C108 1.367 . S
C109 C111 1.433 . S
C110 C106 1.350 . S
C110 C107 1.463 . S
C110 N114 1.427 . S
C111 H101 0.929 . S
C111 C109 1.433 . S
C111 N114 1.384 . S
C112 H103 0.929 . S
C112 C104 1.378 . S
C112 C107 1.350 . S
C113 H100 0.929 . S
C113 C105 1.433 . S
C113 N115 1.384 . S
N114 C110 1.427 . S
N114 C111 1.384 . S
N115 C107 1.427 . S
N115 C113 1.384 . S
H116 C122 0.930 . S
H117 C126 0.930 . S
H118 C131 0.929 . S
H119 C129 0.929 . S
H120 C124 0.929 . S
H121 C130 0.929 . S
C122 H116 0.930 . S
C122 C123 1.367 . S
C122 C130 1.378 . S
C123 C122 1.367 . S
C123 C131 1.433 . S
C124 H120 0.929 . S
C124 C126 1.378 . S
C124 C128 1.350 . S
C125 C128 1.463 . S
C125 C130 1.350 . S
C125 N133 1.427 . S
C126 H117 0.930 . S
C126 C124 1.378 . S
C126 C127 1.367 . S
C127 C126 1.367 . S
C127 C129 1.433 . S
C128 C124 1.350 . S
C128 C125 1.463 . S
C128 N132 1.427 . S
C129 H119 0.929 . S
C129 C127 1.433 . S
C129 N132 1.384 . S
C130 H121 0.929 . S
C130 C122 1.378 . S
C130 C125 1.350 . S
C131 H118 0.929 . S
C131 C123 1.433 . S
C131 N133 1.384 . S
N132 C128 1.427 . S
N132 C129 1.384 . S
N133 C125 1.427 . S
N133 C131 1.384 . S
H134 C140 0.930 . S
H135 C144 0.930 . S
H136 C149 0.929 . S
H137 C147 0.929 . S
H138 C142 0.929 . S
H139 C148 0.929 . S
C140 H134 0.930 . S
C140 C141 1.367 . S
C140 C148 1.378 . S
C141 C140 1.367 . S
C141 C149 1.433 . S
C142 H138 0.929 . S
C142 C144 1.378 . S
C142 C146 1.350 . S
C143 C146 1.463 . S
C143 C148 1.350 . S
C143 N151 1.427 . S
C144 H135 0.930 . S
C144 C142 1.378 . S
C144 C145 1.367 . S
C145 C144 1.367 . S
C145 C147 1.433 . S
C146 C142 1.350 . S
C146 C143 1.463 . S
C146 N150 1.427 . S
C147 H137 0.929 . S
C147 C145 1.433 . S
C147 N150 1.384 . S
C148 H139 0.929 . S
C148 C140 1.378 . S
C148 C143 1.350 . S
C149 H136 0.929 . S
C149 C141 1.433 . S
C149 N151 1.384 . S
N150 C146 1.427 . S
N150 C147 1.384 . S
N151 C143 1.427 . S
N151 C149 1.384 . S
H152 C158 0.930 . S
H153 C162 0.930 . S
H154 C167 0.929 . S
H155 C165 0.929 . S
H156 C160 0.929 . S
H157 C166 0.929 . S
C158 H152 0.930 . S
C158 C159 1.367 . S
C158 C166 1.378 . S
C159 C158 1.367 . S
C159 C167 1.433 . S
C160 H156 0.929 . S
C160 C162 1.378 . S
C160 C164 1.350 . S
C161 C164 1.463 . S
C161 C166 1.350 . S
C161 N169 1.427 . S
C162 H153 0.930 . S
C162 C160 1.378 . S
C162 C163 1.367 . S
C163 C162 1.367 . S
C163 C165 1.433 . S
C164 C160 1.350 . S
C164 C161 1.463 . S
C164 N168 1.427 . S
C165 H155 0.929 . S
C165 C163 1.433 . S
C165 N168 1.384 . S
C166 H157 0.929 . S
C166 C158 1.378 . S
C166 C161 1.350 . S
C167 H154 0.929 . S
C167 C159 1.433 . S
C167 N169 1.384 . S
N168 C164 1.427 . S
N168 C165 1.384 . S
N169 C161 1.427 . S
N169 C167 1.384 . S
H170 C176 0.930 . S
H171 C180 0.930 . S
H172 C185 0.929 . S
H173 C183 0.929 . S
H174 C178 0.929 . S
H175 C184 0.929 . S
C176 H170 0.930 . S
C176 C177 1.367 . S
C176 C184 1.378 . S
C177 C176 1.367 . S
C177 C185 1.433 . S
C178 H174 0.929 . S
C178 C180 1.378 . S
C178 C182 1.350 . S
C179 C182 1.463 . S
C179 C184 1.350 . S
C179 N187 1.427 . S
C180 H171 0.930 . S
C180 C178 1.378 . S
C180 C181 1.367 . S
C181 C180 1.367 . S
C181 C183 1.433 . S
C182 C178 1.350 . S
C182 C179 1.463 . S
C182 N186 1.427 . S
C183 H173 0.929 . S
C183 C181 1.433 . S
C183 N186 1.384 . S
C184 H175 0.929 . S
C184 C176 1.378 . S
C184 C179 1.350 . S
C185 H172 0.929 . S
C185 C177 1.433 . S
C185 N187 1.384 . S
N186 C182 1.427 . S
N186 C183 1.384 . S
N187 C179 1.427 . S
N187 C185 1.384 . S
H188 C194 0.930 . S
H189 C198 0.930 . S
H190 C203 0.929 . S
H191 C201 0.929 . S
H192 C196 0.929 . S
H193 C202 0.929 . S
C194 H188 0.930 . S
C194 C195 1.367 . S
C194 C202 1.378 . S
C195 C194 1.367 . S
C195 C203 1.433 . S
C196 H192 0.929 . S
C196 C198 1.378 . S
C196 C200 1.350 . S
C197 C200 1.463 . S
C197 C202 1.350 . S
C197 N205 1.427 . S
C198 H189 0.930 . S
C198 C196 1.378 . S
C198 C199 1.367 . S
C199 C198 1.367 . S
C199 C201 1.433 . S
C200 C196 1.350 . S
C200 C197 1.463 . S
C200 N204 1.427 . S
C201 H191 0.929 . S
C201 C199 1.433 . S
C201 N204 1.384 . S
C202 H193 0.929 . S
C202 C194 1.378 . S
C202 C197 1.350 . S
C203 H190 0.929 . S
C203 C195 1.433 . S
C203 N205 1.384 . S
N204 C200 1.427 . S
N204 C201 1.384 . S
N205 C197 1.427 . S
N205 C203 1.384 . S
C69 C0 1.229 . S
C73 C41 1.244 . S
C87 C29 1.703 . S
C91 C33 1.700 . S
C105 C30 1.260 . S
C109 C50 1.242 . S
C123 C1 1.565 . S
C127 C51 1.560 . S
C141 C2 1.700 . S
C145 C60 1.700 . S
C163 C61 1.246 . S
C159 C19 1.226 . S
C177 C20 1.565 . S
C181 C32 1.570 . S
C199 C31 1.242 . S
C195 C10 1.261 . S
