# Generated by pormake.
# Topology tsx, (6,3)-cn, num edge types: 1
# Building blocks:
#     Node 0, Type 0, BuildingBlock: JUFBIX_clean_sbu_0, # of connection points: 6
#     Node 1, Type 0, BuildingBlock: JUFBIX_clean_sbu_0, # of connection points: 6
#     Node 2, Type 1, BuildingBlock: OLANEW_clean_sbu_2, # of connection points: 3
#     Node 3, Type 1, BuildingBlock: OLANEW_clean_sbu_2, # of connection points: 3
#     Node 4, Type 1, BuildingBlock: OLANEW_clean_sbu_2, # of connection points: 3
#     Node 5, Type 1, BuildingBlock: OLANEW_clean_sbu_2, # of connection points: 3
#     Edge 6, Type (0, 1), BuildingBlock: OJICUG_clean_linker_0, # of connection points: 2
#     Edge 7, Type (0, 1), BuildingBlock: OJICUG_clean_linker_0, # of connection points: 2
#     Edge 8, Type (0, 1), BuildingBlock: OJICUG_clean_linker_0, # of connection points: 2
#     Edge 9, Type (0, 1), BuildingBlock: OJICUG_clean_linker_0, # of connection points: 2
#     Edge 10, Type (0, 1), BuildingBlock: OJICUG_clean_linker_0, # of connection points: 2
#     Edge 11, Type (0, 1), BuildingBlock: OJICUG_clean_linker_0, # of connection points: 2
#     Edge 12, Type (0, 1), BuildingBlock: OJICUG_clean_linker_0, # of connection points: 2
#     Edge 13, Type (0, 1), BuildingBlock: OJICUG_clean_linker_0, # of connection points: 2
#     Edge 14, Type (0, 1), BuildingBlock: OJICUG_clean_linker_0, # of connection points: 2
#     Edge 15, Type (0, 1), BuildingBlock: OJICUG_clean_linker_0, # of connection points: 2
#     Edge 16, Type (0, 1), BuildingBlock: OJICUG_clean_linker_0, # of connection points: 2
#     Edge 17, Type (0, 1), BuildingBlock: OJICUG_clean_linker_0, # of connection points: 2
# Relax obj value: 0.060
# Max RMSD: 0.106
# Mean RMSD: 0.077
data_MOF--net-tsx--node1-JUFBIX_clean_sbu_0--node2-OLANEW_clean_sbu_2--edge1-OJICUG_clean_linker_0
_symmetry_space_group_name_H-M    P1
_symmetry_Int_Tables_number       1
_symmetry_cell_setting            triclinic
loop_
_symmetry_equiv_pos_as_xyz
'x, y, z'
_cell_length_a     16.997077
_cell_length_b     20.080632
_cell_length_c     24.909701
_cell_angle_alpha  95.184614
_cell_angle_beta   85.726686
_cell_angle_gamma 102.32533
loop_
_atom_site_label
_atom_site_type_symbol
_atom_site_fract_x
_atom_site_fract_y
_atom_site_fract_z
_atom_type_partial_charge
Co0 Co 0.06156 0.97484 -0.00936 0.0
C1 C 0.01254 0.01398 0.89527 0.0
Co2 Co 0.96648 0.03552 0.00169 0.0
C3 C 0.16499 0.87527 -0.00441 0.0
C4 C 0.2115 0.95453 0.94262 0.0
N5 N 0.14788 0.93129 0.9765 0.0
N6 N 0.23736 0.86354 0.97519 0.0
C7 C 0.26621 0.91333 0.94175 0.0
H8 H 0.12573 0.84435 0.02422 0.0
H9 H 0.21772 -0.00114 0.91976 0.0
C10 C 0.01645 -0.004 0.09692 0.0
N11 N 0.88112 0.07972 0.01503 0.0
C12 C 0.86865 0.13639 -0.00547 0.0
C13 C 0.81528 0.05915 0.04785 0.0
N14 N 0.79723 0.15153 0.01302 0.0
C15 C 0.76365 0.10299 0.04662 0.0
C16 C 0.91092 0.89295 -0.01079 0.0
O17 O 0.06588 0.96956 0.06562 0.0
O18 O 0.96828 0.02648 0.07706 0.0
O19 O 0.89249 0.95129 -0.00553 0.0
O20 O 0.98506 0.88926 -0.01334 0.0
O21 O 0.96584 0.04396 0.92622 0.0
H22 H 0.80524 0.01472 0.07099 0.0
H23 H 0.91035 0.16505 0.96576 0.0
O24 O 0.05673 0.98045 0.91568 0.0
O25 O 0.13621 0.06099 -0.00492 0.0
O26 O 0.04077 0.11969 0.00876 0.0
C27 C 0.11521 0.11833 0.00319 0.0
H28 H 0.32228 0.91882 0.91732 0.0
H29 H 0.7061 0.09968 0.06908 0.0
Co30 Co 0.56152 0.47466 0.49057 0.0
C31 C 0.5125 0.51382 0.3952 0.0
Co32 Co 0.46643 0.53534 0.50162 0.0
C33 C 0.66494 0.37511 0.49553 0.0
C34 C 0.71146 0.45436 0.44256 0.0
N35 N 0.64783 0.43112 0.47644 0.0
N36 N 0.73731 0.36337 0.47513 0.0
C37 C 0.76617 0.41316 0.44169 0.0
H38 H 0.62568 0.34418 0.52416 0.0
H39 H 0.71768 0.49868 0.41969 0.0
C40 C 0.51638 0.49581 0.59685 0.0
N41 N 0.38106 0.57953 0.51496 0.0
C42 C 0.36858 0.6362 0.49446 0.0
C43 C 0.31521 0.55894 0.54777 0.0
N44 N 0.29715 0.65133 0.51295 0.0
C45 C 0.26357 0.60277 0.54654 0.0
C46 C 0.41088 0.39276 0.48912 0.0
O47 O 0.56582 0.46938 0.56555 0.0
O48 O 0.46821 0.52628 0.57698 0.0
O49 O 0.39244 0.45111 0.49439 0.0
O50 O 0.48502 0.38909 0.48658 0.0
O51 O 0.4658 0.54379 0.42616 0.0
H52 H 0.30516 0.5145 0.57089 0.0
H53 H 0.41029 0.66488 0.46571 0.0
O54 O 0.5567 0.48029 0.41561 0.0
O55 O 0.63616 0.56082 0.49502 0.0
O56 O 0.54071 0.61951 0.5087 0.0
C57 C 0.61516 0.61816 0.50314 0.0
H58 H 0.82224 0.41864 0.41726 0.0
H59 H 0.20601 0.59945 0.56899 0.0
O60 O 0.07111 0.98445 0.35135 0.0
Cd61 Cd 0.08115 0.98002 0.44776 0.0
O62 O 0.94052 0.98276 0.35551 0.0
Cd63 Cd 0.91873 -0.00087 0.44269 0.0
O64 O 0.85842 0.07792 0.48225 0.0
C65 C 0.89266 0.13751 0.46962 0.0
O66 O 0.96006 0.14475 0.4392 0.0
C67 C 0.00655 0.98237 0.32798 0.0
C68 C 0.15533 0.87328 0.46595 0.0
O69 O 0.07922 0.86353 0.46107 0.0
O70 O 0.19731 0.93394 0.46199 0.0
O71 O 0.99386 0.0589 0.64004 0.0
Cd72 Cd 0.01114 0.06155 0.5418 0.0
O73 O 0.05687 0.97365 0.63509 0.0
Cd74 Cd 0.02643 0.94391 0.55205 0.0
O75 O 0.93339 0.86334 0.51716 0.0
C76 C 0.85975 0.86512 0.5285 0.0
O77 O 0.84176 0.91889 0.55676 0.0
C78 C 0.02694 0.0191 0.66329 0.0
C79 C 0.14426 0.16353 0.51497 0.0
O80 O 0.07305 0.17551 0.52273 0.0
O81 O 0.15317 0.10255 0.51957 0.0
O82 O 0.57115 0.4845 0.85128 0.0
Cd83 Cd 0.58126 0.48019 0.94771 0.0
O84 O 0.44056 0.48283 0.85546 0.0
Cd85 Cd 0.41881 0.49931 0.94265 0.0
O86 O 0.3585 0.57809 0.98221 0.0
C87 C 0.39274 0.6377 0.96962 0.0
O88 O 0.46015 0.64496 0.93921 0.0
C89 C 0.50658 0.4824 0.82792 0.0
C90 C 0.65543 0.37346 0.96595 0.0
O91 O 0.57932 0.36372 0.96107 0.0
O92 O 0.69742 0.43411 0.96195 0.0
O93 O 0.49388 0.55894 0.14001 0.0
Cd94 Cd 0.51117 0.5617 0.04178 0.0
O95 O 0.55697 0.47374 0.13502 0.0
Cd96 Cd 0.52653 0.44406 0.05197 0.0
O97 O 0.43346 0.36352 0.0171 0.0
C98 C 0.35983 0.36529 0.02848 0.0
O99 O 0.34186 0.41906 0.05676 0.0
C100 C 0.527 0.51914 0.16324 0.0
C101 C 0.64429 0.6637 0.01501 0.0
O102 O 0.57308 0.67568 0.02279 0.0
O103 O 0.6532 0.60271 0.01956 0.0
C104 C 0.2585 0.18145 -0.00716 0.0
C105 C 0.17699 0.18247 0.00633 0.0
H106 H 0.37997 0.23855 -0.0117 0.0
C107 C 0.15544 0.24511 0.02352 0.0
H108 H 0.27698 0.13411 0.97897 0.0
C109 C 0.21462 0.30509 0.02904 0.0
C110 C 0.29639 0.30368 0.01704 0.0
H111 H 0.09305 0.24762 0.03391 0.0
H112 H 0.19639 0.35227 0.04375 0.0
C113 C 0.31751 0.24144 -0.0021 0.0
C114 C 0.36059 0.81816 0.97773 0.0
C115 C 0.27609 0.80839 0.98377 0.0
H116 H 0.46349 0.772 0.96922 0.0
C117 C 0.23078 0.74277 -0.00698 0.0
H118 H 0.39741 0.86837 0.97208 0.0
C119 C 0.26904 0.68721 -0.00798 0.0
C120 C 0.35305 0.69657 0.98157 0.0
H121 H 0.16564 0.73369 -0.00217 0.0
H122 H 0.23242 0.63654 -0.00377 0.0
C123 C 0.39854 0.76295 0.97639 0.0
C124 C 0.85895 0.76636 -0.00351 0.0
C125 C 0.84483 0.83145 -0.01038 0.0
H126 H 0.80624 0.66163 0.00995 0.0
C127 C 0.76484 0.83914 -0.0128 0.0
H128 H 0.91985 0.75883 -0.00144 0.0
C129 C 0.70037 0.78411 -0.00612 0.0
C130 C 0.71392 0.71969 0.00307 0.0
H131 H 0.75156 0.88837 0.98149 0.0
H132 H 0.63966 0.79263 -0.00702 0.0
C133 C 0.79392 0.71084 0.00314 0.0
C134 C 0.67837 0.19882 -0.00065 0.0
C135 C 0.76252 0.20686 -0.00057 0.0
H136 H 0.57884 0.24471 -0.01157 0.0
C137 C 0.81169 0.26995 -0.01277 0.0
H138 H 0.63895 0.15056 0.00781 0.0
C139 C 0.77718 0.3243 0.97621 0.0
C140 C 0.69289 0.31624 0.97662 0.0
H141 H 0.87668 0.27773 -0.0126 0.0
H142 H 0.81648 0.3726 0.96757 0.0
C143 C 0.64397 0.25273 -0.01209 0.0
C144 C 0.75845 0.68128 0.49284 0.0
C145 C 0.67693 0.6823 0.50629 0.0
H146 H 0.87992 0.73838 0.48833 0.0
C147 C 0.65537 0.74494 0.52347 0.0
H148 H 0.77694 0.63394 0.47897 0.0
C149 C 0.71455 0.80492 0.52901 0.0
C150 C 0.79632 0.80351 0.51704 0.0
H151 H 0.59298 0.74745 0.53384 0.0
H152 H 0.69631 0.85209 0.54371 0.0
C153 C 0.81746 0.74127 0.49791 0.0
C154 C 0.86054 0.31798 0.47768 0.0
C155 C 0.77604 0.30822 0.48373 0.0
H156 H 0.96343 0.2718 0.46917 0.0
C157 C 0.73073 0.24261 0.49299 0.0
H158 H 0.89737 0.36818 0.47201 0.0
C159 C 0.76898 0.18705 0.49202 0.0
C160 C 0.85299 0.19639 0.48156 0.0
H161 H 0.66559 0.23353 0.49782 0.0
H162 H 0.73235 0.13638 0.49624 0.0
C163 C 0.89848 0.26277 0.47635 0.0
C164 C 0.35892 0.26618 0.49645 0.0
C165 C 0.3448 0.33126 0.48953 0.0
H166 H 0.30621 0.16147 0.50995 0.0
C167 C 0.26481 0.33894 0.48708 0.0
H168 H 0.41982 0.25867 0.49854 0.0
C169 C 0.20034 0.28392 0.49377 0.0
C170 C 0.21389 0.21951 0.50301 0.0
H171 H 0.25153 0.38816 0.48134 0.0
H172 H 0.13963 0.29242 0.49284 0.0
C173 C 0.29389 0.21067 0.50311 0.0
C174 C 0.17829 0.69861 0.49927 0.0
C175 C 0.26244 0.70666 0.49938 0.0
H176 H 0.07875 0.74449 0.48836 0.0
C177 C 0.3116 0.76977 0.48721 0.0
H178 H 0.13887 0.65034 0.50771 0.0
C179 C 0.27708 0.82412 0.47621 0.0
C180 C 0.19279 0.81604 0.4766 0.0
H181 H 0.37659 0.77755 0.48738 0.0
H182 H 0.31638 0.87243 0.46759 0.0
C183 C 0.14388 0.75253 0.48785 0.0
C184 C 0.07747 0.9726 0.18001 0.0
C185 C 0.01382 0.99086 0.15579 0.0
H186 H 0.12546 0.95598 0.25368 0.0
C187 C 0.94714 0.00436 0.18839 0.0
H188 H 0.12964 0.96188 0.15585 0.0
C189 C 0.94422 5e-05 0.2441 0.0
C190 C 0.00845 0.98309 0.26859 0.0
H191 H 0.8969 0.01812 0.17087 0.0
H192 H 0.89213 0.01129 0.26807 0.0
C193 C 0.07511 0.96928 0.23598 0.0
C194 C 0.06594 0.98048 0.80322 0.0
C195 C 0.01707 0.01777 0.83612 0.0
H196 H 0.10781 0.9522 0.7233 0.0
C197 C 0.97396 0.05833 0.81186 0.0
H198 H 0.10039 0.94899 0.82054 0.0
C199 C 0.97878 0.06057 0.75565 0.0
C200 C 0.0264 0.02195 0.72283 0.0
H201 H 0.93621 0.08798 0.8362 0.0
H202 H 0.94395 0.09137 0.7379 0.0
C203 C 0.07039 0.98242 0.74733 0.0
C204 C 0.44708 0.5042 0.68832 0.0
C205 C 0.51377 0.4907 0.65572 0.0
H206 H 0.3921 0.5112 0.768 0.0
C207 C 0.57744 0.47248 0.67995 0.0
H208 H 0.39683 0.51793 0.67079 0.0
C209 C 0.57509 0.46922 0.73593 0.0
C210 C 0.50844 0.48304 0.76853 0.0
H211 H 0.62961 0.46175 0.65579 0.0
H212 H 0.62546 0.45595 0.75363 0.0
C213 C 0.44419 0.49995 0.74403 0.0
C214 C 0.56594 0.48039 0.30315 0.0
C215 C 0.51705 0.51765 0.33605 0.0
H216 H 0.60785 0.45218 0.22321 0.0
C217 C 0.47395 0.55824 0.31182 0.0
H218 H 0.60038 0.44888 0.32045 0.0
C219 C 0.4788 0.56053 0.25561 0.0
C220 C 0.52643 0.52194 0.22277 0.0
H221 H 0.43619 0.58786 0.33617 0.0
H222 H 0.44397 0.59134 0.23788 0.0
C223 C 0.57041 0.48238 0.24726 0.0
loop_
_geom_bond_atom_site_label_1
_geom_bond_atom_site_label_2
_geom_bond_distance
_geom_bond_site_symmetry_2
_ccdc_geom_bond_type
Co0 N5 2.057 1_554 S
Co0 O17 2.021 . S
Co0 O20 2.062 1_455 S
Co0 O24 2.117 1_554 S
Co0 O25 2.020 1_565 S
C1 O21 1.259 . S
C1 O24 1.258 1_645 S
Co2 N11 2.057 . S
Co2 O18 2.117 . S
Co2 O19 2.020 1_545 S
Co2 O21 2.021 1_554 S
Co2 O26 2.062 1_655 S
C3 N5 1.316 1_554 S
C3 N6 1.347 1_554 S
C3 H8 0.931 . S
C4 N5 1.375 . S
C4 C7 1.350 . S
C4 H9 0.930 . S
N5 Co0 2.057 1_556 S
N5 C3 1.316 1_556 S
N5 C4 1.375 . S
N6 C3 1.347 1_556 S
N6 C7 1.373 . S
C7 C4 1.350 . S
C7 N6 1.373 . S
C7 H28 0.931 . S
H8 C3 0.931 . S
H9 C4 0.930 . S
C10 O17 1.259 1_545 S
C10 O18 1.258 1_455 S
N11 Co2 2.057 . S
N11 C12 1.311 1_554 S
N11 C13 1.375 . S
C12 N11 1.311 1_556 S
C12 N14 1.343 1_556 S
C12 H23 0.938 . S
C13 N11 1.375 . S
C13 C15 1.350 . S
C13 H22 0.930 . S
N14 C12 1.343 1_554 S
N14 C15 1.373 . S
C15 C13 1.350 . S
C15 N14 1.373 . S
C15 H29 0.931 . S
C16 O19 1.256 . S
C16 O20 1.255 . S
O17 Co0 2.021 . S
O17 C10 1.259 1_565 S
O18 Co2 2.117 . S
O18 C10 1.258 1_655 S
O19 Co2 2.020 1_565 S
O19 C16 1.256 . S
O20 Co0 2.062 1_655 S
O20 C16 1.255 . S
O21 C1 1.259 . S
O21 Co2 2.021 1_556 S
H22 C13 0.930 . S
H23 C12 0.938 . S
O24 Co0 2.117 1_556 S
O24 C1 1.258 1_465 S
O25 Co0 2.020 1_545 S
O25 C27 1.256 . S
O26 Co2 2.062 1_455 S
O26 C27 1.255 . S
C27 O25 1.256 . S
C27 O26 1.255 . S
H28 C7 0.931 . S
H29 C15 0.931 . S
Co30 N35 2.057 . S
Co30 O47 2.021 . S
Co30 O50 2.062 . S
Co30 O54 2.117 . S
Co30 O55 2.020 . S
C31 O51 1.259 . S
C31 O54 1.258 . S
Co32 N41 2.057 . S
Co32 O48 2.117 . S
Co32 O49 2.020 . S
Co32 O51 2.021 . S
Co32 O56 2.062 . S
C33 N35 1.316 . S
C33 N36 1.347 . S
C33 H38 0.931 . S
C34 N35 1.375 . S
C34 C37 1.350 . S
C34 H39 0.930 . S
N35 Co30 2.057 . S
N35 C33 1.316 . S
N35 C34 1.375 . S
N36 C33 1.347 . S
N36 C37 1.373 . S
C37 C34 1.350 . S
C37 N36 1.373 . S
C37 H58 0.931 . S
H38 C33 0.931 . S
H39 C34 0.930 . S
C40 O47 1.259 . S
C40 O48 1.258 . S
N41 Co32 2.057 . S
N41 C42 1.316 . S
N41 C43 1.375 . S
C42 N41 1.316 . S
C42 N44 1.347 . S
C42 H53 0.931 . S
C43 N41 1.375 . S
C43 C45 1.350 . S
C43 H52 0.930 . S
N44 C42 1.347 . S
N44 C45 1.373 . S
C45 C43 1.350 . S
C45 N44 1.373 . S
C45 H59 0.931 . S
C46 O49 1.256 . S
C46 O50 1.255 . S
O47 Co30 2.021 . S
O47 C40 1.259 . S
O48 Co32 2.117 . S
O48 C40 1.258 . S
O49 Co32 2.020 . S
O49 C46 1.256 . S
O50 Co30 2.062 . S
O50 C46 1.255 . S
O51 C31 1.259 . S
O51 Co32 2.021 . S
H52 C43 0.930 . S
H53 C42 0.931 . S
O54 Co30 2.117 . S
O54 C31 1.258 . S
O55 Co30 2.020 . S
O55 C57 1.256 . S
O56 Co32 2.062 . S
O56 C57 1.255 . S
C57 O55 1.256 . S
C57 O56 1.255 . S
H58 C37 0.931 . S
H59 C45 0.931 . S
O60 Cd61 2.300 1_565 S
O60 C67 1.275 1_565 S
Cd61 O60 2.300 1_545 S
Cd61 O69 2.381 1_545 S
Cd61 O70 2.378 1_545 S
O62 Cd63 2.385 . S
O62 C67 1.255 . S
Cd63 O62 2.385 . S
Cd63 O64 2.317 1_455 S
O64 Cd63 2.317 1_655 S
O64 C65 1.232 . S
C65 O64 1.232 . S
C65 O66 1.218 . S
O66 C65 1.218 . S
C67 O60 1.275 1_545 S
C67 O62 1.255 . S
C68 O69 1.258 . S
C68 O70 1.256 . S
O69 Cd61 2.381 1_565 S
O69 C68 1.258 . S
O70 Cd61 2.378 1_565 S
O70 C68 1.256 . S
O71 Cd72 2.300 . S
O71 C78 1.275 1_545 S
Cd72 O71 2.300 . S
Cd72 O80 2.381 . S
Cd72 O81 2.378 . S
O73 Cd74 2.385 . S
O73 C78 1.255 . S
Cd74 O73 2.385 . S
Cd74 O75 2.317 1_455 S
O75 Cd74 2.317 1_655 S
O75 C76 1.232 . S
C76 O75 1.232 . S
C76 O77 1.218 . S
O77 C76 1.218 . S
C78 O71 1.275 1_565 S
C78 O73 1.255 . S
C79 O80 1.258 . S
C79 O81 1.256 . S
O80 Cd72 2.381 . S
O80 C79 1.258 . S
O81 Cd72 2.378 . S
O81 C79 1.256 . S
O82 Cd83 2.300 . S
O82 C89 1.275 . S
Cd83 O82 2.300 . S
Cd83 O91 2.381 . S
Cd83 O92 2.378 1_556 S
O84 Cd85 2.385 . S
O84 C89 1.255 . S
Cd85 O84 2.385 . S
Cd85 O86 2.317 . S
O86 Cd85 2.317 . S
O86 C87 1.232 . S
C87 O86 1.232 . S
C87 O88 1.218 . S
O88 C87 1.218 . S
C89 O82 1.275 . S
C89 O84 1.255 . S
C90 O91 1.258 . S
C90 O92 1.256 1_556 S
O91 Cd83 2.381 . S
O91 C90 1.258 . S
O92 Cd83 2.378 1_554 S
O92 C90 1.256 1_554 S
O93 Cd94 2.300 . S
O93 C100 1.275 . S
Cd94 O93 2.300 . S
Cd94 O102 2.381 . S
Cd94 O103 2.378 1_554 S
O95 Cd96 2.385 . S
O95 C100 1.255 . S
Cd96 O95 2.385 . S
Cd96 O97 2.317 . S
O97 Cd96 2.317 . S
O97 C98 1.232 . S
C98 O97 1.232 . S
C98 O99 1.218 . S
O99 C98 1.218 . S
C100 O93 1.275 . S
C100 O95 1.255 . S
C101 O102 1.258 . S
C101 O103 1.256 1_554 S
O102 Cd94 2.381 . S
O102 C101 1.258 . S
O103 Cd94 2.378 1_556 S
O103 C101 1.256 1_556 S
C104 C105 1.387 1_556 S
C104 H108 0.950 . S
C104 C113 1.390 . S
C105 C104 1.387 1_554 S
C105 C107 1.387 . S
H106 C113 0.950 . S
C107 C105 1.387 . S
C107 C109 1.390 . S
C107 H111 0.950 . S
H108 C104 0.950 . S
C109 C107 1.390 . S
C109 C110 1.387 . S
C109 H112 0.950 . S
C110 C109 1.387 . S
C110 C113 1.387 1_554 S
H111 C107 0.950 . S
H112 C109 0.950 . S
C113 C104 1.390 . S
C113 H106 0.950 . S
C113 C110 1.387 1_556 S
C114 C115 1.387 . S
C114 H118 0.950 . S
C114 C123 1.390 . S
C115 C114 1.387 . S
C115 C117 1.387 1_554 S
H116 C123 0.950 . S
C117 C115 1.387 1_556 S
C117 C119 1.390 . S
C117 H121 0.950 . S
H118 C114 0.950 . S
C119 C117 1.390 . S
C119 C120 1.387 . S
C119 H122 0.950 . S
C120 C119 1.387 . S
C120 C123 1.387 1_556 S
H121 C117 0.950 . S
H122 C119 0.950 . S
C123 C114 1.390 . S
C123 H116 0.950 . S
C123 C120 1.387 1_554 S
C124 C125 1.387 1_556 S
C124 H128 0.950 . S
C124 C133 1.390 . S
C125 C124 1.387 1_554 S
C125 C127 1.387 . S
H126 C133 0.950 . S
C127 C125 1.387 . S
C127 C129 1.390 . S
C127 H131 0.950 . S
H128 C124 0.950 . S
C129 C127 1.390 . S
C129 C130 1.387 . S
C129 H132 0.950 . S
C130 C129 1.387 . S
C130 C133 1.387 1_554 S
H131 C127 0.950 . S
H132 C129 0.950 . S
C133 C124 1.390 . S
C133 H126 0.950 . S
C133 C130 1.387 1_556 S
C134 C135 1.387 1_556 S
C134 H138 0.950 . S
C134 C143 1.390 . S
C135 C134 1.387 1_554 S
C135 C137 1.387 . S
H136 C143 0.950 . S
C137 C135 1.387 . S
C137 C139 1.390 . S
C137 H141 0.950 . S
H138 C134 0.950 . S
C139 C137 1.390 . S
C139 C140 1.387 . S
C139 H142 0.950 . S
C140 C139 1.387 . S
C140 C143 1.387 1_554 S
H141 C137 0.950 . S
H142 C139 0.950 . S
C143 C134 1.390 . S
C143 H136 0.950 . S
C143 C140 1.387 1_556 S
C144 C145 1.387 . S
C144 H148 0.950 . S
C144 C153 1.390 . S
C145 C144 1.387 . S
C145 C147 1.387 . S
H146 C153 0.950 . S
C147 C145 1.387 . S
C147 C149 1.390 . S
C147 H151 0.950 . S
H148 C144 0.950 . S
C149 C147 1.390 . S
C149 C150 1.387 . S
C149 H152 0.950 . S
C150 C149 1.387 . S
C150 C153 1.387 . S
H151 C147 0.950 . S
H152 C149 0.950 . S
C153 C144 1.390 . S
C153 H146 0.950 . S
C153 C150 1.387 . S
C154 C155 1.387 . S
C154 H158 0.950 . S
C154 C163 1.390 . S
C155 C154 1.387 . S
C155 C157 1.387 . S
H156 C163 0.950 . S
C157 C155 1.387 . S
C157 C159 1.390 . S
C157 H161 0.950 . S
H158 C154 0.950 . S
C159 C157 1.390 . S
C159 C160 1.387 . S
C159 H162 0.950 . S
C160 C159 1.387 . S
C160 C163 1.387 . S
H161 C157 0.950 . S
H162 C159 0.950 . S
C163 C154 1.390 . S
C163 H156 0.950 . S
C163 C160 1.387 . S
C164 C165 1.387 . S
C164 H168 0.950 . S
C164 C173 1.390 . S
C165 C164 1.387 . S
C165 C167 1.387 . S
H166 C173 0.950 . S
C167 C165 1.387 . S
C167 C169 1.390 . S
C167 H171 0.950 . S
H168 C164 0.950 . S
C169 C167 1.390 . S
C169 C170 1.387 . S
C169 H172 0.950 . S
C170 C169 1.387 . S
C170 C173 1.387 . S
H171 C167 0.950 . S
H172 C169 0.950 . S
C173 C164 1.390 . S
C173 H166 0.950 . S
C173 C170 1.387 . S
C174 C175 1.387 . S
C174 H178 0.950 . S
C174 C183 1.390 . S
C175 C174 1.387 . S
C175 C177 1.387 . S
H176 C183 0.950 . S
C177 C175 1.387 . S
C177 C179 1.390 . S
C177 H181 0.950 . S
H178 C174 0.950 . S
C179 C177 1.390 . S
C179 C180 1.387 . S
C179 H182 0.950 . S
C180 C179 1.387 . S
C180 C183 1.387 . S
H181 C177 0.950 . S
H182 C179 0.950 . S
C183 C174 1.390 . S
C183 H176 0.950 . S
C183 C180 1.387 . S
C184 C185 1.387 1_565 S
C184 H188 0.950 . S
C184 C193 1.390 . S
C185 C184 1.387 1_545 S
C185 C187 1.387 1_455 S
H186 C193 0.950 . S
C187 C185 1.387 1_655 S
C187 C189 1.390 . S
C187 H191 0.950 . S
H188 C184 0.950 . S
C189 C187 1.390 . S
C189 C190 1.384 1_655 S
C189 H192 0.950 . S
C190 C189 1.384 1_455 S
C190 C193 1.391 1_545 S
H191 C187 0.950 . S
H192 C189 0.950 . S
C193 C184 1.390 . S
C193 H186 0.950 . S
C193 C190 1.391 1_565 S
C194 C195 1.386 1_665 S
C194 H198 0.948 1_655 S
C194 C203 1.390 . S
C195 C194 1.386 1_445 S
C195 C197 1.392 . S
H196 C203 0.950 . S
C197 C195 1.392 . S
C197 C199 1.390 1_455 S
C197 H201 0.948 . S
H198 C194 0.948 1_455 S
C199 C197 1.390 1_655 S
C199 C200 1.387 1_545 S
C199 H202 0.950 . S
C200 C199 1.387 1_565 S
C200 C203 1.387 . S
H201 C197 0.948 . S
H202 C199 0.950 . S
C203 C194 1.390 . S
C203 H196 0.950 . S
C203 C200 1.387 . S
C204 C205 1.387 . S
C204 H208 0.950 . S
C204 C213 1.390 . S
C205 C204 1.387 . S
C205 C207 1.387 . S
H206 C213 0.950 . S
C207 C205 1.387 . S
C207 C209 1.390 . S
C207 H211 0.950 . S
H208 C204 0.950 . S
C209 C207 1.390 . S
C209 C210 1.387 . S
C209 H212 0.950 . S
C210 C209 1.387 . S
C210 C213 1.387 . S
H211 C207 0.950 . S
H212 C209 0.950 . S
C213 C204 1.390 . S
C213 H206 0.950 . S
C213 C210 1.387 . S
C214 C215 1.387 . S
C214 H218 0.950 . S
C214 C223 1.390 . S
C215 C214 1.387 . S
C215 C217 1.387 . S
H216 C223 0.950 . S
C217 C215 1.387 . S
C217 C219 1.390 . S
C217 H221 0.950 . S
H218 C214 0.950 . S
C219 C217 1.390 . S
C219 C220 1.387 . S
C219 H222 0.950 . S
C220 C219 1.387 . S
C220 C223 1.387 . S
H221 C217 0.950 . S
H222 C219 0.950 . S
C223 C214 1.390 . S
C223 H216 0.950 . S
C223 C220 1.387 . S
C110 C98 1.271 . S
C105 C27 1.501 . S
C115 N6 1.433 1_554 S
C120 C87 1.254 . S
C125 C16 1.496 . S
C130 C101 1.453 . S
C135 N14 1.453 . S
C140 C90 1.441 1_554 S
C145 C57 1.502 . S
C150 C76 1.271 . S
C155 N36 1.432 . S
C160 C65 1.254 . S
C170 C79 1.453 . S
C165 C46 1.496 . S
C180 C68 1.442 . S
C175 N44 1.454 . S
C185 C10 1.455 . S
C190 C67 1.405 . S
C195 C1 1.533 1_455 S
C200 C78 1.483 1_655 S
C210 C89 1.404 . S
C205 C40 1.455 . S
C215 C31 1.534 . S
C220 C100 1.482 . S
