# Generated by pormake.
# Topology the, (3,8)-cn, num edge types: 1
# Building blocks:
#     Node 0, Type 0, BuildingBlock: OLANEW_clean_sbu_2, # of connection points: 3
#     Node 1, Type 0, BuildingBlock: OLANEW_clean_sbu_2, # of connection points: 3
#     Node 2, Type 0, BuildingBlock: OLANEW_clean_sbu_2, # of connection points: 3
#     Node 3, Type 0, BuildingBlock: OLANEW_clean_sbu_2, # of connection points: 3
#     Node 4, Type 0, BuildingBlock: OLANEW_clean_sbu_2, # of connection points: 3
#     Node 5, Type 0, BuildingBlock: OLANEW_clean_sbu_2, # of connection points: 3
#     Node 6, Type 0, BuildingBlock: OLANEW_clean_sbu_2, # of connection points: 3
#     Node 7, Type 0, BuildingBlock: OLANEW_clean_sbu_2, # of connection points: 3
#     Node 8, Type 1, BuildingBlock: GIZVER_clean_sbu_0, # of connection points: 8
#     Node 9, Type 1, BuildingBlock: GIZVER_clean_sbu_0, # of connection points: 8
#     Node 10, Type 1, BuildingBlock: GIZVER_clean_sbu_0, # of connection points: 8
#     Edge 11, Type (0, 1), None
#     Edge 12, Type (0, 1), None
#     Edge 13, Type (0, 1), None
#     Edge 14, Type (0, 1), None
#     Edge 15, Type (0, 1), None
#     Edge 16, Type (0, 1), None
#     Edge 17, Type (0, 1), None
#     Edge 18, Type (0, 1), None
#     Edge 19, Type (0, 1), None
#     Edge 20, Type (0, 1), None
#     Edge 21, Type (0, 1), None
#     Edge 22, Type (0, 1), None
#     Edge 23, Type (0, 1), None
#     Edge 24, Type (0, 1), None
#     Edge 25, Type (0, 1), None
#     Edge 26, Type (0, 1), None
#     Edge 27, Type (0, 1), None
#     Edge 28, Type (0, 1), None
#     Edge 29, Type (0, 1), None
#     Edge 30, Type (0, 1), None
#     Edge 31, Type (0, 1), None
#     Edge 32, Type (0, 1), None
#     Edge 33, Type (0, 1), None
#     Edge 34, Type (0, 1), None
# Relax obj value: 0.103
# Max RMSD: 0.262
# Mean RMSD: 0.129
data_MOF--net-the--node1-OLANEW_clean_sbu_2--node2-GIZVER_clean_sbu_0--edge1-none
_symmetry_space_group_name_H-M    P1
_symmetry_Int_Tables_number       1
_symmetry_cell_setting            triclinic
loop_
_symmetry_equiv_pos_as_xyz
'x, y, z'
_cell_length_a     22.781799
_cell_length_b     21.764192
_cell_length_c     18.790717
_cell_angle_alpha  88.407505
_cell_angle_beta   98.385439
_cell_angle_gamma 117.33267
loop_
_atom_site_label
_atom_site_type_symbol
_atom_site_fract_x
_atom_site_fract_y
_atom_site_fract_z
_atom_type_partial_charge
O0 O 0.33836 0.35564 0.31129 0.0
Cd1 Cd 0.31259 0.29739 0.42514 0.0
O2 O 0.37506 0.46395 0.34986 0.0
Cd3 Cd 0.32775 0.43789 0.44823 0.0
O4 O 0.25538 0.44911 0.50609 0.0
C5 C 0.19752 0.4273 0.46956 0.0
O6 O 0.18566 0.39619 0.40633 0.0
C7 C 0.36566 0.4202 0.30044 0.0
C8 C 0.36578 0.20318 0.44778 0.0
O9 O 0.30701 0.18436 0.41316 0.0
O10 O 0.39954 0.26604 0.4723 0.0
O11 O 0.77101 0.44325 0.35102 0.0
Cd12 Cd 0.69804 0.36907 0.24391 0.0
O13 O 0.81294 0.37179 0.38306 0.0
Cd14 Cd 0.7233 0.28835 0.32172 0.0
O15 O 0.62229 0.20963 0.33511 0.0
C16 C 0.62437 0.16646 0.38088 0.0
O17 O 0.68284 0.17051 0.40703 0.0
C18 C 0.81364 0.4299 0.39099 0.0
C19 C 0.60533 0.40896 0.17199 0.0
O20 O 0.5919 0.36827 0.22452 0.0
O21 O 0.66326 0.43191 0.15292 0.0
O22 O 0.7242 0.72145 0.16216 0.0
Cd23 Cd 0.81678 0.80653 0.24518 0.0
O24 O 0.66755 0.70923 0.25149 0.0
Cd25 Cd 0.73128 0.81159 0.30557 0.0
O26 O 0.71603 0.88572 0.36693 0.0
C27 C 0.65355 0.86261 0.36503 0.0
O28 O 0.61298 0.80516 0.32689 0.0
C29 C 0.67219 0.6876 0.19141 0.0
C30 C 0.85325 0.73044 0.34754 0.0
O31 O 0.89033 0.76179 0.29987 0.0
O32 O 0.80026 0.73661 0.34875 0.0
O33 O 0.4331 0.82274 0.37139 0.0
Cd34 Cd 0.3443 0.73404 0.28826 0.0
O35 O 0.34938 0.83361 0.40028 0.0
Cd36 Cd 0.28347 0.84979 0.46128 0.0
O37 O 0.21202 0.74339 0.47832 0.0
C38 C 0.15282 0.70739 0.44597 0.0
O39 O 0.12423 0.73567 0.40002 0.0
C40 C 0.41119 0.85001 0.41227 0.0
C41 C 0.39607 0.65673 0.23286 0.0
O42 O 0.38688 0.70233 0.19517 0.0
O43 O 0.37955 0.64647 0.29599 0.0
O44 O 0.47147 0.83563 0.75547 0.0
Cd45 Cd 0.401 0.73372 0.82194 0.0
O46 O 0.39941 0.87213 0.70644 0.0
Cd47 Cd 0.31654 0.78498 0.74437 0.0
O48 O 0.23114 0.68619 0.7091 0.0
C49 C 0.17984 0.6853 0.67108 0.0
O50 O 0.1773 0.74371 0.65812 0.0
C51 C 0.45819 0.87827 0.71684 0.0
C52 C 0.46257 0.6509 0.87525 0.0
O53 O 0.43869 0.64807 0.80866 0.0
O54 O 0.45817 0.69309 0.9178 0.0
O55 O 0.3962 0.34954 0.80852 0.0
Cd56 Cd 0.31316 0.27147 0.7136 0.0
O57 O 0.34237 0.37479 0.88207 0.0
Cd58 Cd 0.246 0.32682 0.80949 0.0
O59 O 0.18236 0.36633 0.74647 0.0
C60 C 0.12893 0.34305 0.70093 0.0
O61 O 0.09675 0.27724 0.68033 0.0
C62 C 0.39653 0.37982 0.86544 0.0
C63 C 0.38004 0.20902 0.65703 0.0
O64 O 0.39108 0.27079 0.64229 0.0
O65 O 0.33488 0.17456 0.69607 0.0
O66 O 0.78128 0.4498 0.88507 0.0
Cd67 Cd 0.8582 0.41252 0.8449 0.0
O68 O 0.69299 0.35236 0.84402 0.0
Cd69 Cd 0.73842 0.29325 0.80414 0.0
O70 O 0.68881 0.20561 0.72535 0.0
C71 C 0.65654 0.21959 0.672 0.0
O72 O 0.66227 0.28246 0.66872 0.0
C73 C 0.71838 0.41251 0.87402 0.0
C74 C 0.90964 0.48832 0.72711 0.0
O75 O 0.9305 0.51443 0.79156 0.0
O76 O 0.86487 0.42505 0.7172 0.0
O77 O 0.86426 0.79471 0.52689 0.0
Cd78 Cd 0.7944 0.84741 0.47452 0.0
O79 O 0.77712 0.70097 0.55163 0.0
Cd80 Cd 0.73216 0.60267 0.60499 0.0
O81 O 0.68334 0.55825 0.69921 0.0
C82 C 0.70349 0.60238 0.75146 0.0
O83 O 0.75155 0.66487 0.74494 0.0
C84 C 0.8396 0.73417 0.55047 0.0
C85 C 0.72193 0.88204 0.55889 0.0
O86 O 0.78431 0.92167 0.55832 0.0
O87 O 0.69438 0.8238 0.52327 0.0
Co88 Co 0.09334 0.4716 0.61985 0.0
Co89 Co 0.10403 0.50769 0.49933 0.0
Co90 Co 0.9993 0.5538 0.5309 0.0
O91 O 0.02981 0.47953 0.54323 0.0
H92 H 0.99519 0.43488 0.52359 0.0
O93 O 0.97265 0.62872 0.51566 0.0
Co94 Co 0.89337 0.61965 0.45845 0.0
Co95 Co 0.94546 0.65232 0.59305 0.0
H96 H 0.01013 0.67064 0.50431 0.0
O97 O 0.10395 0.44738 0.43661 0.0
O98 O 0.15823 0.47867 0.55221 0.0
O99 O 0.15259 0.60463 0.4866 0.0
O100 O 0.05436 0.60026 0.45171 0.0
O101 O 0.92373 0.49014 0.45637 0.0
O102 O 0.82407 0.62165 0.40203 0.0
O103 O 0.9284 0.70845 0.43425 0.0
O104 O 0.84852 0.52431 0.47318 0.0
O105 O 0.94346 0.50869 0.61078 0.0
O106 O 0.93898 0.59337 0.67181 0.0
O107 O 0.86299 0.63869 0.54571 0.0
O108 O 0.94322 0.73698 0.60329 0.0
C109 C 0.10884 0.39378 0.66778 0.0
C110 C 0.12684 0.62015 0.63647 0.0
C111 C 0.118 0.63385 0.46109 0.0
C112 C 0.14937 0.44929 0.48858 0.0
C113 C 0.86913 0.68526 0.39667 0.0
C114 C 0.86405 0.48256 0.44476 0.0
C115 C 0.93276 0.53256 0.66666 0.0
C116 C 0.88255 0.70114 0.5706 0.0
O117 O 0.1456 0.45799 0.68956 0.0
O118 O 0.05933 0.37738 0.61474 0.0
O119 O 0.0735 0.61927 0.60374 0.0
O120 O 0.13768 0.5679 0.63814 0.0
Co121 Co 0.58237 0.92115 0.48289 0.0
Co122 Co 0.62739 0.95904 0.61849 0.0
Co123 Co 0.53343 0.0297 0.54815 0.0
O124 O 0.60598 1.00313 0.54139 0.0
H125 H 0.64649 0.04188 0.53062 0.0
O126 O 0.4606 0.05682 0.54862 0.0
Co127 Co 0.47635 0.14347 0.58919 0.0
Co128 Co 0.44284 0.09058 0.45757 0.0
H129 H 0.42034 0.01872 0.56084 0.0
O130 O 0.71133 0.96172 0.6346 0.0
O131 O 0.61823 0.88372 0.56571 0.0
O132 O 0.56504 0.92756 0.68451 0.0
O133 O 0.49135 0.96009 0.62467 0.0
O134 O 0.59382 0.10218 0.62535 0.0
O135 O 0.48301 0.22035 0.62833 0.0
O136 O 0.39249 0.11563 0.60778 0.0
O137 O 0.5672 0.18182 0.5771 0.0
O138 O 0.57832 0.0974 0.47501 0.0
O139 O 0.50888 0.11672 0.39257 0.0
O140 O 0.45399 0.17421 0.49291 0.0
O141 O 0.36161 0.09283 0.42677 0.0
C142 C 0.62574 0.89052 0.41328 0.0
C143 C 0.45652 0.89627 0.47302 0.0
C144 C 0.50871 0.9276 0.67527 0.0
C145 C 0.68157 0.90761 0.59066 0.0
C146 C 0.42008 0.18003 0.6313 0.0
C147 C 0.60559 0.16543 0.62045 0.0
C148 C 0.56633 0.12252 0.41602 0.0
C149 C 0.39437 0.15441 0.45731 0.0
O150 O 0.56616 0.85001 0.42714 0.0
O151 O 0.6602 0.95181 0.44568 0.0
O152 O 0.47167 0.96 0.47036 0.0
O153 O 0.49694 0.87888 0.51078 0.0
Co154 Co 0.48173 0.57927 0.16693 0.0
Co155 Co 0.44497 0.45284 0.15009 0.0
Co156 Co 0.53688 0.53425 0.02716 0.0
O157 O 0.46578 0.52169 0.0856 0.0
H158 H 0.42539 0.51489 0.05443 0.0
O159 O 0.6077 0.5452 0.96855 0.0
Co160 Co 0.60543 0.47139 0.91098 0.0
Co161 Co 0.60179 0.57892 0.8815 0.0
H162 H 0.65185 0.57217 0.99516 0.0
O163 O 0.36197 0.40234 0.17507 0.0
O164 O 0.44838 0.49921 0.23225 0.0
O165 O 0.50571 0.41579 0.16906 0.0
O166 O 0.57109 0.4748 0.08794 0.0
O167 O 0.46434 0.45196 0.96838 0.0
O168 O 0.61032 0.40527 0.86392 0.0
O169 O 0.69415 0.49567 0.93082 0.0
O170 O 0.51347 0.43517 0.88235 0.0
O171 O 0.50627 0.59747 0.96696 0.0
O172 O 0.52652 0.59608 0.85402 0.0
O173 O 0.61937 0.52688 0.82145 0.0
O174 O 0.68025 0.64131 0.85533 0.0
C175 C 0.43021 0.62162 0.20674 0.0
C176 C 0.61459 0.62633 0.1549 0.0
C177 C 0.55717 0.43304 0.1396 0.0
C178 C 0.39108 0.44376 0.2319 0.0
C179 C 0.67297 0.4389 0.89128 0.0
C180 C 0.46159 0.42464 0.90834 0.0
C181 C 0.49894 0.61098 0.90005 0.0
C182 C 0.66766 0.58866 0.81359 0.0
O183 O 0.48958 0.63487 0.23888 0.0
O184 O 0.40205 0.57854 0.15102 0.0
O185 O 0.60646 0.61775 0.08673 0.0
O186 O 0.5688 0.58897 0.19121 0.0
loop_
_geom_bond_atom_site_label_1
_geom_bond_atom_site_label_2
_geom_bond_distance
_geom_bond_site_symmetry_2
_ccdc_geom_bond_type
O0 Cd1 2.300 . S
O0 C7 1.275 . S
Cd1 O0 2.300 . S
Cd1 O9 2.381 . S
Cd1 O10 2.378 . S
O2 Cd3 2.385 . S
O2 C7 1.255 . S
Cd3 O2 2.385 . S
Cd3 O4 2.317 . S
O4 Cd3 2.317 . S
O4 C5 1.232 . S
C5 O4 1.232 . S
C5 O6 1.218 . S
O6 C5 1.218 . S
C7 O0 1.275 . S
C7 O2 1.255 . S
C8 O9 1.258 . S
C8 O10 1.256 . S
O9 Cd1 2.381 . S
O9 C8 1.258 . S
O10 Cd1 2.378 . S
O10 C8 1.256 . S
O11 Cd12 2.300 . S
O11 C18 1.275 . S
Cd12 O11 2.300 . S
Cd12 O20 2.381 . S
Cd12 O21 2.378 . S
O13 Cd14 2.385 . S
O13 C18 1.255 . S
Cd14 O13 2.385 . S
Cd14 O15 2.317 . S
O15 Cd14 2.317 . S
O15 C16 1.232 . S
C16 O15 1.232 . S
C16 O17 1.218 . S
O17 C16 1.218 . S
C18 O11 1.275 . S
C18 O13 1.255 . S
C19 O20 1.258 . S
C19 O21 1.256 . S
O20 Cd12 2.381 . S
O20 C19 1.258 . S
O21 Cd12 2.378 . S
O21 C19 1.256 . S
O22 Cd23 2.300 . S
O22 C29 1.275 . S
Cd23 O22 2.300 . S
Cd23 O31 2.381 . S
Cd23 O32 2.378 . S
O24 Cd25 2.385 . S
O24 C29 1.255 . S
Cd25 O24 2.385 . S
Cd25 O26 2.317 . S
O26 Cd25 2.317 . S
O26 C27 1.232 . S
C27 O26 1.232 . S
C27 O28 1.218 . S
O28 C27 1.218 . S
C29 O22 1.275 . S
C29 O24 1.255 . S
C30 O31 1.258 . S
C30 O32 1.256 . S
O31 Cd23 2.381 . S
O31 C30 1.258 . S
O32 Cd23 2.378 . S
O32 C30 1.256 . S
O33 Cd34 2.300 . S
O33 C40 1.275 . S
Cd34 O33 2.300 . S
Cd34 O42 2.381 . S
Cd34 O43 2.378 . S
O35 Cd36 2.385 . S
O35 C40 1.255 . S
Cd36 O35 2.385 . S
Cd36 O37 2.317 . S
O37 Cd36 2.317 . S
O37 C38 1.232 . S
C38 O37 1.232 . S
C38 O39 1.218 . S
O39 C38 1.218 . S
C40 O33 1.275 . S
C40 O35 1.255 . S
C41 O42 1.258 . S
C41 O43 1.256 . S
O42 Cd34 2.381 . S
O42 C41 1.258 . S
O43 Cd34 2.378 . S
O43 C41 1.256 . S
O44 Cd45 2.300 . S
O44 C51 1.275 . S
Cd45 O44 2.300 . S
Cd45 O53 2.381 . S
Cd45 O54 2.378 . S
O46 Cd47 2.385 . S
O46 C51 1.255 . S
Cd47 O46 2.385 . S
Cd47 O48 2.317 . S
O48 Cd47 2.317 . S
O48 C49 1.232 . S
C49 O48 1.232 . S
C49 O50 1.218 . S
O50 C49 1.218 . S
C51 O44 1.275 . S
C51 O46 1.255 . S
C52 O53 1.258 . S
C52 O54 1.256 . S
O53 Cd45 2.381 . S
O53 C52 1.258 . S
O54 Cd45 2.378 . S
O54 C52 1.256 . S
O55 Cd56 2.300 . S
O55 C62 1.275 . S
Cd56 O55 2.300 . S
Cd56 O64 2.381 . S
Cd56 O65 2.378 . S
O57 Cd58 2.385 . S
O57 C62 1.255 . S
Cd58 O57 2.385 . S
Cd58 O59 2.317 . S
O59 Cd58 2.317 . S
O59 C60 1.232 . S
C60 O59 1.232 . S
C60 O61 1.218 . S
O61 C60 1.218 . S
C62 O55 1.275 . S
C62 O57 1.255 . S
C63 O64 1.258 . S
C63 O65 1.256 . S
O64 Cd56 2.381 . S
O64 C63 1.258 . S
O65 Cd56 2.378 . S
O65 C63 1.256 . S
O66 Cd67 2.300 . S
O66 C73 1.275 . S
Cd67 O66 2.300 . S
Cd67 O75 2.381 . S
Cd67 O76 2.378 . S
O68 Cd69 2.385 . S
O68 C73 1.255 . S
Cd69 O68 2.385 . S
Cd69 O70 2.317 . S
O70 Cd69 2.317 . S
O70 C71 1.232 . S
C71 O70 1.232 . S
C71 O72 1.218 . S
O72 C71 1.218 . S
C73 O66 1.275 . S
C73 O68 1.255 . S
C74 O75 1.258 . S
C74 O76 1.256 . S
O75 Cd67 2.381 . S
O75 C74 1.258 . S
O76 Cd67 2.378 . S
O76 C74 1.256 . S
O77 Cd78 2.300 . S
O77 C84 1.275 . S
Cd78 O77 2.300 . S
Cd78 O86 2.381 . S
Cd78 O87 2.378 . S
O79 Cd80 2.385 . S
O79 C84 1.255 . S
Cd80 O79 2.385 . S
Cd80 O81 2.317 . S
O81 Cd80 2.317 . S
O81 C82 1.232 . S
C82 O81 1.232 . S
C82 O83 1.218 . S
O83 C82 1.218 . S
C84 O77 1.275 . S
C84 O79 1.255 . S
C85 O86 1.258 . S
C85 O87 1.256 . S
O86 Cd78 2.381 . S
O86 C85 1.258 . S
O87 Cd78 2.378 . S
O87 C85 1.256 . S
Co88 O91 2.042 . S
Co88 O98 2.264 . S
Co88 O117 2.286 . S
Co88 O118 2.069 . S
Co88 O120 2.015 . S
Co89 O91 2.122 . S
Co89 O97 2.073 . S
Co89 O98 2.327 . S
Co89 O99 1.976 . S
Co90 O91 2.087 . S
Co90 O93 2.087 1_455 S
Co90 O100 2.111 . S
Co90 O101 2.143 1_455 S
Co90 O105 2.111 1_455 S
Co90 O119 2.143 . S
O91 Co88 2.042 . S
O91 Co89 2.122 . S
O91 Co90 2.087 . S
O91 H92 0.980 . S
H92 O91 0.980 . S
O93 Co90 2.087 1_655 S
O93 Co94 2.042 . S
O93 Co95 2.122 . S
O93 H96 0.980 1_655 S
Co94 O93 2.042 . S
Co94 O102 2.286 . S
Co94 O103 2.069 . S
Co94 O104 2.015 . S
Co94 O107 2.264 . S
Co95 O93 2.122 . S
Co95 O106 1.976 . S
Co95 O107 2.327 . S
Co95 O108 2.073 . S
H96 O93 0.980 1_455 S
O97 Co89 2.073 . S
O97 C112 1.245 . S
O98 Co88 2.264 . S
O98 Co89 2.327 . S
O98 C112 1.257 . S
O99 Co89 1.976 . S
O99 C111 1.251 . S
O100 Co90 2.111 . S
O100 C111 1.274 . S
O101 Co90 2.143 1_655 S
O101 C114 1.246 . S
O102 Co94 2.286 . S
O102 C113 1.259 . S
O103 Co94 2.069 . S
O103 C113 1.289 . S
O104 Co94 2.015 . S
O104 C114 1.257 . S
O105 Co90 2.111 1_655 S
O105 C115 1.274 . S
O106 Co95 1.976 . S
O106 C115 1.251 . S
O107 Co94 2.264 . S
O107 Co95 2.327 . S
O107 C116 1.257 . S
O108 Co95 2.073 . S
O108 C116 1.245 . S
C109 O117 1.259 . S
C109 O118 1.289 . S
C110 O119 1.246 . S
C110 O120 1.257 . S
C111 O99 1.251 . S
C111 O100 1.274 . S
C112 O97 1.245 . S
C112 O98 1.257 . S
C113 O102 1.259 . S
C113 O103 1.289 . S
C114 O101 1.246 . S
C114 O104 1.257 . S
C115 O105 1.274 . S
C115 O106 1.251 . S
C116 O107 1.257 . S
C116 O108 1.245 . S
O117 Co88 2.286 . S
O117 C109 1.259 . S
O118 Co88 2.069 . S
O118 C109 1.289 . S
O119 Co90 2.143 . S
O119 C110 1.246 . S
O120 Co88 2.015 . S
O120 C110 1.257 . S
Co121 O124 2.042 . S
Co121 O131 2.264 . S
Co121 O150 2.286 . S
Co121 O151 2.069 . S
Co121 O153 2.015 . S
Co122 O124 2.122 . S
Co122 O130 2.073 . S
Co122 O131 2.327 . S
Co122 O132 1.976 . S
Co123 O124 2.087 1_545 S
Co123 O126 2.087 . S
Co123 O133 2.111 1_545 S
Co123 O134 2.143 . S
Co123 O138 2.111 . S
Co123 O152 2.143 1_545 S
O124 Co121 2.042 . S
O124 Co122 2.122 . S
O124 Co123 2.087 1_565 S
O124 H125 0.980 1_565 S
H125 O124 0.980 1_545 S
O126 Co123 2.087 . S
O126 Co127 2.042 . S
O126 Co128 2.122 . S
O126 H129 0.980 . S
Co127 O126 2.042 . S
Co127 O135 2.286 . S
Co127 O136 2.069 . S
Co127 O137 2.015 . S
Co127 O140 2.264 . S
Co128 O126 2.122 . S
Co128 O139 1.976 . S
Co128 O140 2.327 . S
Co128 O141 2.073 . S
H129 O126 0.980 . S
O130 Co122 2.073 . S
O130 C145 1.245 . S
O131 Co121 2.264 . S
O131 Co122 2.327 . S
O131 C145 1.257 . S
O132 Co122 1.976 . S
O132 C144 1.251 . S
O133 Co123 2.111 1_565 S
O133 C144 1.274 . S
O134 Co123 2.143 . S
O134 C147 1.246 . S
O135 Co127 2.286 . S
O135 C146 1.259 . S
O136 Co127 2.069 . S
O136 C146 1.289 . S
O137 Co127 2.015 . S
O137 C147 1.257 . S
O138 Co123 2.111 . S
O138 C148 1.274 . S
O139 Co128 1.976 . S
O139 C148 1.251 . S
O140 Co127 2.264 . S
O140 Co128 2.327 . S
O140 C149 1.257 . S
O141 Co128 2.073 . S
O141 C149 1.245 . S
C142 O150 1.259 . S
C142 O151 1.289 . S
C143 O152 1.246 . S
C143 O153 1.257 . S
C144 O132 1.251 . S
C144 O133 1.274 . S
C145 O130 1.245 . S
C145 O131 1.257 . S
C146 O135 1.259 . S
C146 O136 1.289 . S
C147 O134 1.246 . S
C147 O137 1.257 . S
C148 O138 1.274 . S
C148 O139 1.251 . S
C149 O140 1.257 . S
C149 O141 1.245 . S
O150 Co121 2.286 . S
O150 C142 1.259 . S
O151 Co121 2.069 . S
O151 C142 1.289 . S
O152 Co123 2.143 1_565 S
O152 C143 1.246 . S
O153 Co121 2.015 . S
O153 C143 1.257 . S
Co154 O157 2.042 . S
Co154 O164 2.264 . S
Co154 O183 2.286 . S
Co154 O184 2.069 . S
Co154 O186 2.015 . S
Co155 O157 2.122 . S
Co155 O163 2.073 . S
Co155 O164 2.327 . S
Co155 O165 1.976 . S
Co156 O157 2.087 . S
Co156 O159 2.087 1_554 S
Co156 O166 2.111 . S
Co156 O167 2.143 1_554 S
Co156 O171 2.111 1_554 S
Co156 O185 2.143 . S
O157 Co154 2.042 . S
O157 Co155 2.122 . S
O157 Co156 2.087 . S
O157 H158 0.980 . S
H158 O157 0.980 . S
O159 Co156 2.087 1_556 S
O159 Co160 2.042 . S
O159 Co161 2.122 . S
O159 H162 0.980 . S
Co160 O159 2.042 . S
Co160 O168 2.286 . S
Co160 O169 2.069 . S
Co160 O170 2.015 . S
Co160 O173 2.264 . S
Co161 O159 2.122 . S
Co161 O172 1.976 . S
Co161 O173 2.327 . S
Co161 O174 2.073 . S
H162 O159 0.980 . S
O163 Co155 2.073 . S
O163 C178 1.245 . S
O164 Co154 2.264 . S
O164 Co155 2.327 . S
O164 C178 1.257 . S
O165 Co155 1.976 . S
O165 C177 1.251 . S
O166 Co156 2.111 . S
O166 C177 1.274 . S
O167 Co156 2.143 1_556 S
O167 C180 1.246 . S
O168 Co160 2.286 . S
O168 C179 1.259 . S
O169 Co160 2.069 . S
O169 C179 1.289 . S
O170 Co160 2.015 . S
O170 C180 1.257 . S
O171 Co156 2.111 1_556 S
O171 C181 1.274 . S
O172 Co161 1.976 . S
O172 C181 1.251 . S
O173 Co160 2.264 . S
O173 Co161 2.327 . S
O173 C182 1.257 . S
O174 Co161 2.073 . S
O174 C182 1.245 . S
C175 O183 1.259 . S
C175 O184 1.289 . S
C176 O185 1.246 . S
C176 O186 1.257 . S
C177 O165 1.251 . S
C177 O166 1.274 . S
C178 O163 1.245 . S
C178 O164 1.257 . S
C179 O168 1.259 . S
C179 O169 1.289 . S
C180 O167 1.246 . S
C180 O170 1.257 . S
C181 O171 1.274 . S
C181 O172 1.251 . S
C182 O173 1.257 . S
C182 O174 1.245 . S
O183 Co154 2.286 . S
O183 C175 1.259 . S
O184 Co154 2.069 . S
O184 C175 1.289 . S
O185 Co156 2.143 . S
O185 C176 1.246 . S
O186 Co154 2.015 . S
O186 C176 1.257 . S
C112 C5 1.410 . S
C148 C16 2.377 . S
C113 C30 1.400 . S
C143 C40 1.152 . S
C110 C49 1.658 . S
C63 C146 1.758 . S
C74 C115 0.701 . S
C145 C85 2.444 . S
C149 C8 1.449 . S
C114 C18 2.182 . S
C142 C27 2.473 . S
C111 C38 1.132 . S
C144 C51 2.229 . S
C60 C109 1.944 . S
C71 C147 1.630 . S
C116 C84 1.673 . S
C178 C7 2.106 . S
C52 C181 2.485 . S
C180 C62 2.469 . S
C73 C179 2.495 . S
C182 C82 1.525 . S
C29 C176 2.414 . S
C175 C41 1.707 . S
C19 C177 2.464 . S
