# Generated by pormake.
# Topology scu, (8,4)-cn, num edge types: 1
# Building blocks:
#     Node 0, Type 0, BuildingBlock: GIZVER_clean_sbu_0, # of connection points: 8
#     Node 1, Type 1, BuildingBlock: MUDLON_clean_sbu_0, # of connection points: 4
#     Node 2, Type 1, BuildingBlock: MUDLON_clean_sbu_0, # of connection points: 4
#     Edge 3, Type (0, 1), BuildingBlock: OJICUG_clean_linker_0, # of connection points: 2
#     Edge 4, Type (0, 1), BuildingBlock: OJICUG_clean_linker_0, # of connection points: 2
#     Edge 5, Type (0, 1), BuildingBlock: OJICUG_clean_linker_0, # of connection points: 2
#     Edge 6, Type (0, 1), BuildingBlock: OJICUG_clean_linker_0, # of connection points: 2
#     Edge 7, Type (0, 1), BuildingBlock: OJICUG_clean_linker_0, # of connection points: 2
#     Edge 8, Type (0, 1), BuildingBlock: OJICUG_clean_linker_0, # of connection points: 2
#     Edge 9, Type (0, 1), BuildingBlock: OJICUG_clean_linker_0, # of connection points: 2
#     Edge 10, Type (0, 1), BuildingBlock: OJICUG_clean_linker_0, # of connection points: 2
# Relax obj value: 0.008
# Max RMSD: 0.064
# Mean RMSD: 0.039
data_MOF--net-scu--node1-GIZVER_clean_sbu_0--node2-MUDLON_clean_sbu_0--edge1-OJICUG_clean_linker_0
_symmetry_space_group_name_H-M    P1
_symmetry_Int_Tables_number       1
_symmetry_cell_setting            triclinic
loop_
_symmetry_equiv_pos_as_xyz
'x, y, z'
_cell_length_a     17.635363
_cell_length_b     18.563915
_cell_length_c     16.706724
_cell_angle_alpha  101.95104
_cell_angle_beta   78.790767
_cell_angle_gamma 117.7011
loop_
_atom_site_label
_atom_site_type_symbol
_atom_site_fract_x
_atom_site_fract_y
_atom_site_fract_z
_atom_type_partial_charge
Co0 Co 0.0427 0.94469 0.28748 0.0
Co1 Co 0.165 0.07071 0.21914 0.0
Co2 Co 0.00535 0.02305 0.13599 0.0
O3 O 0.06771 0.97859 0.18161 0.0
H4 H 0.08599 0.94341 0.14 0.0
O5 O 0.9476 0.07149 0.08765 0.0
Co6 Co 0.00809 0.1267 0.99133 0.0
Co7 Co 0.8649 0.99992 1.02046 0.0
H8 H 0.9248 0.10334 0.12908 0.0
O9 O 0.2612 0.06214 0.23127 0.0
O10 O 0.14529 0.0472 0.32536 0.0
O11 O 0.17283 0.1794 0.22857 0.0
O12 O 0.03302 0.12338 0.22137 0.0
O13 O 0.11386 0.0781 0.06429 0.0
O14 O 0.06076 0.18451 0.90801 0.0
O15 O 0.97347 0.20735 1.01727 0.0
O16 O 0.05563 0.05061 0.95054 0.0
O17 O 0.97241 0.9197 0.05214 0.0
O18 O 0.86082 0.8934 0.98702 0.0
O19 O 0.90652 0.05682 0.93026 0.0
O20 O 0.77868 0.02537 1.00886 0.0
C21 C 0.07815 0.87668 0.34184 0.0
C22 C 0.89789 0.97693 0.2887 0.0
C23 C 0.10191 0.18389 0.24423 0.0
C24 C 0.22408 0.05527 0.30634 0.0
C25 C 0.02238 0.22849 0.94832 0.0
C26 C 0.11469 0.05515 0.98729 0.0
C27 C 0.91627 0.87385 1.00194 0.0
C28 C 0.832 0.05882 0.94679 0.0
O29 O 0.02677 0.90751 0.38301 0.0
O30 O 0.10718 0.88924 0.26545 0.0
O31 O 0.89942 0.96771 0.21043 0.0
O32 O 0.96452 0.99384 0.32277 0.0
Mg33 Mg 0.04107 0.54543 0.63043 0.0
C34 C 0.07695 0.43329 0.50492 0.0
O35 O 0.14647 0.48167 0.54172 0.0
C36 C 0.9965 0.63688 0.77055 0.0
O37 O 0.07698 0.65041 0.7677 0.0
C38 C 0.01962 0.45555 0.76293 0.0
O39 O 0.94219 0.44485 0.75529 0.0
O40 O 0.08357 0.50073 0.71637 0.0
O41 O 0.00891 0.44314 0.53062 0.0
O42 O 0.12084 0.65745 0.5727 0.0
C43 C 0.12787 0.65431 0.49477 0.0
O44 O 0.10577 0.58274 0.44876 0.0
O45 O 0.95286 0.5869 0.71309 0.0
Mg46 Mg 0.51523 0.04385 0.65353 0.0
C47 C 0.40796 0.02939 0.53899 0.0
O48 O 0.39811 0.95538 0.54233 0.0
C49 C 0.68879 0.13776 0.71712 0.0
O50 O 0.71544 0.12328 0.63915 0.0
C51 C 0.39576 0.99286 0.80705 0.0
O52 O 0.46869 0.03501 0.83968 0.0
O53 O 0.39842 0.97395 0.7293 0.0
O54 O 0.46094 0.09031 0.58252 0.0
O55 O 0.5793 0.97899 0.56622 0.0
C56 C 0.60952 1.00537 0.49679 0.0
O57 O 0.59272 0.06215 0.47996 0.0
O58 O 0.61074 0.12573 0.73675 0.0
C59 C 0.16964 0.3165 0.33613 0.0
C60 C 0.09575 0.25323 0.30322 0.0
H61 H 0.22129 0.42211 0.42505 0.0
C62 C 0.015 0.25253 0.33374 0.0
H63 H 0.23279 0.31923 0.31423 0.0
C64 C 0.00822 0.31196 0.39806 0.0
C65 C 0.082 0.37292 0.43317 0.0
H66 H 0.95657 0.20449 0.30992 0.0
H67 H 0.94518 0.30874 0.42174 0.0
C68 C 0.16282 0.37536 0.40027 0.0
C69 C 0.76021 0.9895 0.30806 0.0
C70 C 0.8196 0.97628 0.34084 0.0
H71 H 0.64671 1.0085 0.33209 0.0
C72 C 0.80434 0.96452 0.42406 0.0
H73 H 0.77002 0.99876 0.2442 0.0
C74 C 0.73239 0.96838 0.47405 0.0
C75 C 0.67556 0.98562 0.44194 0.0
H76 H 0.84866 0.95356 0.45082 0.0
H77 H 0.72374 0.96201 0.53864 0.0
C78 C 0.68944 0.99488 0.35828 0.0
C79 C 0.09278 0.83339 0.46845 0.0
C80 C 0.10424 0.82897 0.38217 0.0
H81 H 0.09436 0.78341 0.57245 0.0
C82 C 0.13745 0.77594 0.33478 0.0
H83 H 0.06896 0.87492 0.50678 0.0
C84 C 0.15177 0.72332 0.37238 0.0
C85 C 0.13458 0.72362 0.45824 0.0
H86 H 0.14811 0.77193 0.26827 0.0
H87 H 0.17222 0.67947 0.33378 0.0
C88 C 0.10845 0.78167 0.50621 0.0
C89 C 0.31239 0.99923 0.34545 0.0
C90 C 0.26945 0.049 0.36759 0.0
H91 H 0.38877 0.95338 0.38362 0.0
C92 C 0.27324 0.09412 0.44658 0.0
H93 H 0.30984 0.96362 0.28493 0.0
C94 C 0.32123 0.09062 0.50222 0.0
C95 C 0.36308 0.03974 0.48007 0.0
H96 H 0.24071 0.13315 0.46448 0.0
H97 H 0.32389 0.12584 0.56292 0.0
C98 C 0.35747 0.9935 0.4017 0.0
C99 C 0.8753 0.75793 0.88454 0.0
C100 C 0.92433 0.80153 0.95115 0.0
H101 H 0.85907 0.67052 0.77466 0.0
C102 C 0.9886 0.78151 0.9629 0.0
H103 H 0.82501 0.77157 0.87376 0.0
C104 C 0.00778 0.72404 0.90635 0.0
C105 C 0.96321 0.68488 0.83661 0.0
H106 H 0.02719 0.81305 1.01367 0.0
H107 H 0.06034 0.71287 0.91563 0.0
C108 C 0.89454 0.6999 0.82773 0.0
C109 C 0.24742 0.03703 0.98377 0.0
C110 C 0.1805 0.02834 0.94282 0.0
H111 H 0.367 0.03064 0.97326 0.0
C112 C 0.17859 0.99572 0.85904 0.0
H113 H 0.25012 0.06064 0.04866 0.0
C114 C 0.24534 0.97748 0.81589 0.0
C115 C 0.31559 0.99205 0.85562 0.0
H116 H 0.12707 0.98681 0.82607 0.0
H117 H 0.24417 0.95645 0.75043 0.0
C118 C 0.31423 1.01923 0.94064 0.0
C119 C 0.96201 0.3207 0.92789 0.0
C120 C 0.02875 0.29683 0.91075 0.0
H121 H 0.90704 0.38984 0.89411 0.0
C122 C 0.09761 0.3327 0.85044 0.0
H123 H 0.90786 0.29368 0.97347 0.0
C124 C 0.09779 0.3886 0.8055 0.0
C125 C 0.02829 0.40843 0.81908 0.0
H126 H 0.15015 0.31556 0.83611 0.0
H127 H 0.14994 0.41275 0.7573 0.0
C128 C 0.96145 0.37544 0.88203 0.0
C129 C 0.84905 0.11064 0.81368 0.0
C130 C 0.80496 0.09427 0.89238 0.0
H131 H 0.84772 0.13928 0.69638 0.0
C132 C 0.73133 0.10788 0.91738 0.0
H133 H 0.90696 0.10233 0.79315 0.0
C134 C 0.69809 0.13028 0.86253 0.0
C135 C 0.73713 0.13855 0.78102 0.0
H136 H 0.69711 0.09795 0.97843 0.0
H137 H 0.63859 0.13579 0.88263 0.0
C138 C 0.81532 0.1324 0.7584 0.0
loop_
_geom_bond_atom_site_label_1
_geom_bond_atom_site_label_2
_geom_bond_distance
_geom_bond_site_symmetry_2
_ccdc_geom_bond_type
Co0 O3 2.047 . S
Co0 O10 2.264 1_565 S
Co0 O29 2.286 1_455 S
Co0 O30 2.069 . S
Co0 O32 2.015 1_455 S
Co1 O3 2.119 1_545 S
Co1 O9 2.073 . S
Co1 O10 2.327 . S
Co1 O11 1.976 . S
Co2 O3 2.082 1_545 S
Co2 O5 2.087 1_455 S
Co2 O12 2.111 . S
Co2 O13 2.143 . S
Co2 O17 2.111 1_445 S
Co2 O31 2.143 1_445 S
O3 Co0 2.047 . S
O3 Co1 2.119 1_565 S
O3 Co2 2.082 1_565 S
O3 H4 0.985 . S
H4 O3 0.985 . S
O5 Co2 2.087 1_655 S
O5 Co6 2.042 1_654 S
O5 Co7 2.122 1_544 S
O5 H8 0.980 . S
Co6 O5 2.042 1_456 S
Co6 O14 2.286 . S
Co6 O15 2.069 1_455 S
Co6 O16 2.015 . S
Co6 O19 2.264 1_455 S
Co7 O5 2.122 1_566 S
Co7 O18 1.976 . S
Co7 O19 2.327 1_565 S
Co7 O20 2.073 . S
H8 O5 0.980 . S
O9 Co1 2.073 . S
O9 C24 1.245 . S
O10 Co0 2.264 1_545 S
O10 Co1 2.327 . S
O10 C24 1.257 . S
O11 Co1 1.976 . S
O11 C23 1.251 . S
O12 Co2 2.111 . S
O12 C23 1.274 . S
O13 Co2 2.143 . S
O13 C26 1.246 1_554 S
O14 Co6 2.286 . S
O14 C25 1.259 . S
O15 Co6 2.069 1_655 S
O15 C25 1.289 1_655 S
O16 Co6 2.015 . S
O16 C26 1.257 . S
O17 Co2 2.111 1_665 S
O17 C27 1.274 1_554 S
O18 Co7 1.976 . S
O18 C27 1.251 . S
O19 Co6 2.264 1_655 S
O19 Co7 2.327 1_545 S
O19 C28 1.257 . S
O20 Co7 2.073 . S
O20 C28 1.245 1_565 S
C21 O29 1.259 1_455 S
C21 O30 1.289 . S
C22 O31 1.246 . S
C22 O32 1.257 . S
C23 O11 1.251 . S
C23 O12 1.274 . S
C24 O9 1.245 . S
C24 O10 1.257 . S
C25 O14 1.259 . S
C25 O15 1.289 1_455 S
C26 O13 1.246 1_556 S
C26 O16 1.257 . S
C27 O17 1.274 1_556 S
C27 O18 1.251 . S
C28 O19 1.257 . S
C28 O20 1.245 1_545 S
O29 Co0 2.286 1_655 S
O29 C21 1.259 1_655 S
O30 Co0 2.069 . S
O30 C21 1.289 . S
O31 Co2 2.143 1_665 S
O31 C22 1.246 . S
O32 Co0 2.015 1_655 S
O32 C22 1.257 . S
Mg33 O40 2.141 . S
Mg33 O41 2.048 . S
Mg33 O42 2.048 . S
Mg33 O45 2.141 . S
C34 O35 1.313 . S
C34 O41 1.195 1_455 S
O35 C34 1.313 . S
C36 O37 1.245 . S
C36 O45 1.289 1_455 S
O37 C36 1.245 . S
C38 O39 1.245 . S
C38 O40 1.289 1_455 S
O39 C38 1.245 . S
O40 Mg33 2.141 . S
O40 C38 1.289 1_655 S
O41 Mg33 2.048 . S
O41 C34 1.195 1_655 S
O42 Mg33 2.048 . S
O42 C43 1.195 1_655 S
C43 O42 1.195 1_455 S
C43 O44 1.313 . S
O44 C43 1.313 . S
O45 Mg33 2.141 . S
O45 C36 1.289 1_655 S
Mg46 O53 2.141 . S
Mg46 O54 2.048 . S
Mg46 O55 2.048 . S
Mg46 O58 2.141 . S
C47 O48 1.313 1_545 S
C47 O54 1.195 . S
O48 C47 1.313 1_565 S
C49 O50 1.245 1_545 S
C49 O58 1.289 . S
O50 C49 1.245 1_565 S
C51 O52 1.245 1_545 S
C51 O53 1.289 . S
O52 C51 1.245 1_565 S
O53 Mg46 2.141 . S
O53 C51 1.289 . S
O54 Mg46 2.048 . S
O54 C47 1.195 . S
O55 Mg46 2.048 . S
O55 C56 1.195 . S
C56 O55 1.195 . S
C56 O57 1.313 1_545 S
O57 C56 1.313 1_565 S
O58 Mg46 2.141 . S
O58 C49 1.289 . S
C59 C60 1.387 . S
C59 H63 0.950 . S
C59 C68 1.390 . S
C60 C59 1.387 . S
C60 C62 1.387 1_455 S
H61 C68 0.950 . S
C62 C60 1.387 1_655 S
C62 C64 1.390 . S
C62 H66 0.950 . S
H63 C59 0.950 . S
C64 C62 1.390 . S
C64 C65 1.387 1_655 S
C64 H67 0.950 . S
C65 C64 1.387 1_455 S
C65 C68 1.387 . S
H66 C62 0.950 . S
H67 C64 0.950 . S
C68 C59 1.390 . S
C68 H61 0.950 . S
C68 C65 1.387 . S
C69 C70 1.387 1_565 S
C69 H73 0.950 . S
C69 C78 1.390 . S
C70 C69 1.387 1_545 S
C70 C72 1.387 . S
H71 C78 0.950 . S
C72 C70 1.387 . S
C72 C74 1.390 . S
C72 H76 0.950 . S
H73 C69 0.950 . S
C74 C72 1.390 . S
C74 C75 1.387 . S
C74 H77 0.950 . S
C75 C74 1.387 . S
C75 C78 1.387 1_545 S
H76 C72 0.950 . S
H77 C74 0.950 . S
C78 C69 1.390 . S
C78 H71 0.950 . S
C78 C75 1.387 1_565 S
C79 C80 1.387 1_655 S
C79 H83 0.950 . S
C79 C88 1.390 . S
C80 C79 1.387 1_455 S
C80 C82 1.387 . S
H81 C88 0.950 . S
C82 C80 1.387 . S
C82 C84 1.390 . S
C82 H86 0.950 . S
H83 C79 0.950 . S
C84 C82 1.390 . S
C84 C85 1.387 . S
C84 H87 0.950 . S
C85 C84 1.387 . S
C85 C88 1.387 1_455 S
H86 C82 0.950 . S
H87 C84 0.950 . S
C88 C79 1.390 . S
C88 H81 0.950 . S
C88 C85 1.387 1_655 S
C89 C90 1.387 1_565 S
C89 H93 0.950 . S
C89 C98 1.390 . S
C90 C89 1.387 1_545 S
C90 C92 1.387 . S
H91 C98 0.950 . S
C92 C90 1.387 . S
C92 C94 1.390 . S
C92 H96 0.950 . S
H93 C89 0.950 . S
C94 C92 1.390 . S
C94 C95 1.387 . S
C94 H97 0.950 . S
C95 C94 1.387 . S
C95 C98 1.387 1_545 S
H96 C92 0.950 . S
H97 C94 0.950 . S
C98 C89 1.390 . S
C98 H91 0.950 . S
C98 C95 1.387 1_565 S
C99 C100 1.387 . S
C99 H103 0.950 . S
C99 C108 1.390 . S
C100 C99 1.387 . S
C100 C102 1.387 . S
H101 C108 0.950 . S
C102 C100 1.387 . S
C102 C104 1.390 . S
C102 H106 0.950 . S
H103 C99 0.950 . S
C104 C102 1.390 . S
C104 C105 1.387 . S
C104 H107 0.950 . S
C105 C104 1.387 . S
C105 C108 1.387 . S
H106 C102 0.950 . S
H107 C104 0.950 . S
C108 C99 1.390 . S
C108 H101 0.950 . S
C108 C105 1.387 . S
C109 C110 1.387 1_565 S
C109 H113 0.950 . S
C109 C118 1.390 . S
C110 C109 1.387 1_545 S
C110 C112 1.387 . S
H111 C118 0.950 . S
C112 C110 1.387 . S
C112 C114 1.390 . S
C112 H116 0.950 . S
H113 C109 0.950 . S
C114 C112 1.390 . S
C114 C115 1.387 . S
C114 H117 0.950 . S
C115 C114 1.387 . S
C115 C118 1.387 1_545 S
H116 C112 0.950 . S
H117 C114 0.950 . S
C118 C109 1.390 . S
C118 H111 0.950 . S
C118 C115 1.387 1_565 S
C119 C120 1.387 1_655 S
C119 H123 0.950 . S
C119 C128 1.390 . S
C120 C119 1.387 1_455 S
C120 C122 1.387 . S
H121 C128 0.950 . S
C122 C120 1.387 . S
C122 C124 1.390 . S
C122 H126 0.950 . S
H123 C119 0.950 . S
C124 C122 1.390 . S
C124 C125 1.387 . S
C124 H127 0.950 . S
C125 C124 1.387 . S
C125 C128 1.387 1_455 S
H126 C122 0.950 . S
H127 C124 0.950 . S
C128 C119 1.390 . S
C128 H121 0.950 . S
C128 C125 1.387 1_655 S
C129 C130 1.387 1_565 S
C129 H133 0.950 . S
C129 C138 1.390 . S
C130 C129 1.387 1_545 S
C130 C132 1.387 . S
H131 C138 0.950 . S
C132 C130 1.387 . S
C132 C134 1.390 . S
C132 H136 0.950 . S
H133 C129 0.950 . S
C134 C132 1.390 . S
C134 C135 1.387 . S
C134 H137 0.950 . S
C135 C134 1.387 . S
C135 C138 1.387 1_545 S
H136 C132 0.950 . S
H137 C134 0.950 . S
C138 C129 1.390 . S
C138 H131 0.950 . S
C138 C135 1.387 1_565 S
C60 C23 1.347 . S
C65 C34 1.423 . S
C70 C22 1.455 1_545 S
C75 C56 1.493 . S
C80 C21 1.641 . S
C85 C43 1.647 . S
C90 C24 1.474 . S
C95 C47 1.529 . S
C100 C27 1.293 1_455 S
C105 C36 1.367 . S
C110 C26 1.398 . S
C115 C51 1.444 . S
C125 C38 1.596 . S
C120 C25 1.585 . S
C130 C28 1.428 . S
C135 C49 1.489 . S
