# Generated by pormake.
# Topology tsx, (6,3)-cn, num edge types: 1
# Building blocks:
#     Node 0, Type 0, BuildingBlock: LEVNOQ01_clean_sbu_1, # of connection points: 6
#     Node 1, Type 0, BuildingBlock: LEVNOQ01_clean_sbu_1, # of connection points: 6
#     Node 2, Type 1, BuildingBlock: WUSLED_clean_sbu_0, # of connection points: 3
#     Node 3, Type 1, BuildingBlock: WUSLED_clean_sbu_0, # of connection points: 3
#     Node 4, Type 1, BuildingBlock: WUSLED_clean_sbu_0, # of connection points: 3
#     Node 5, Type 1, BuildingBlock: WUSLED_clean_sbu_0, # of connection points: 3
#     Edge 6, Type (0, 1), BuildingBlock: EYOCIG_clean_linker_4, # of connection points: 2
#     Edge 7, Type (0, 1), BuildingBlock: EYOCIG_clean_linker_4, # of connection points: 2
#     Edge 8, Type (0, 1), BuildingBlock: EYOCIG_clean_linker_4, # of connection points: 2
#     Edge 9, Type (0, 1), BuildingBlock: EYOCIG_clean_linker_4, # of connection points: 2
#     Edge 10, Type (0, 1), BuildingBlock: EYOCIG_clean_linker_4, # of connection points: 2
#     Edge 11, Type (0, 1), BuildingBlock: EYOCIG_clean_linker_4, # of connection points: 2
#     Edge 12, Type (0, 1), BuildingBlock: EYOCIG_clean_linker_4, # of connection points: 2
#     Edge 13, Type (0, 1), BuildingBlock: EYOCIG_clean_linker_4, # of connection points: 2
#     Edge 14, Type (0, 1), BuildingBlock: EYOCIG_clean_linker_4, # of connection points: 2
#     Edge 15, Type (0, 1), BuildingBlock: EYOCIG_clean_linker_4, # of connection points: 2
#     Edge 16, Type (0, 1), BuildingBlock: EYOCIG_clean_linker_4, # of connection points: 2
#     Edge 17, Type (0, 1), BuildingBlock: EYOCIG_clean_linker_4, # of connection points: 2
# Relax obj value: 0.123
# Max RMSD: 0.154
# Mean RMSD: 0.115
data_MOF--net-tsx--node1-LEVNOQ01_clean_sbu_1--node2-WUSLED_clean_sbu_0--edge1-EYOCIG_clean_linker_4
_symmetry_space_group_name_H-M    P1
_symmetry_Int_Tables_number       1
_symmetry_cell_setting            triclinic
loop_
_symmetry_equiv_pos_as_xyz
'x, y, z'
_cell_length_a     19.525483
_cell_length_b     24.459011
_cell_length_c     39.623843
_cell_angle_alpha  97.373241
_cell_angle_beta   91.666683
_cell_angle_gamma 90.417245
loop_
_atom_site_label
_atom_site_type_symbol
_atom_site_fract_x
_atom_site_fract_y
_atom_site_fract_z
_atom_type_partial_charge
O0 O 0.15967 0.03546 0.09425 0.0
Mg1 Mg 0.21328 0.04297 0.04994 0.0
O2 O 0.05865 0.01814 0.0673 0.0
Mg3 Mg 0.06949 0.03058 0.00944 0.0
O4 O 0.16045 0.09146 0.02042 0.0
O5 O 0.26278 0.11542 0.04451 0.0
O6 O 0.08567 0.04368 0.95173 0.0
O7 O 1.00184 0.11056 0.02069 0.0
Mg8 Mg 0.93943 0.02197 0.96724 0.0
O9 O 0.97582 0.96824 0.99921 0.0
O10 O 0.98938 0.02505 0.92169 0.0
O11 O 0.90344 0.09662 0.99162 0.0
O12 O 0.87727 0.95611 0.96806 0.0
C13 C 0.19993 0.93652 0.00481 0.0
C14 C 0.09678 0.02269 0.09438 0.0
C15 C 0.21067 0.12678 0.02606 0.0
C16 C 0.05194 0.03848 0.92336 0.0
C17 C 0.94223 0.12659 0.01245 0.0
C18 C 0.92025 0.9396 0.98979 0.0
O19 O 0.24255 0.96844 0.02226 0.0
O20 O 0.13826 0.95112 0.99918 0.0
O21 O 0.65976 0.53592 0.59435 0.0
Mg22 Mg 0.71354 0.54317 0.55006 0.0
O23 O 0.55882 0.5185 0.56733 0.0
Mg24 Mg 0.56974 0.53079 0.50946 0.0
O25 O 0.66083 0.59151 0.5204 0.0
O26 O 0.76314 0.61554 0.54449 0.0
O27 O 0.58603 0.54375 0.45174 0.0
O28 O 0.50224 0.61084 0.52064 0.0
Mg29 Mg 0.43978 0.52217 0.46718 0.0
O30 O 0.47591 0.4686 0.49932 0.0
O31 O 0.48985 0.52494 0.42164 0.0
O32 O 0.40398 0.59698 0.49143 0.0
O33 O 0.37742 0.45644 0.46811 0.0
C34 C 0.70001 0.4366 0.50501 0.0
C35 C 0.59686 0.52314 0.59445 0.0
C36 C 0.71106 0.62681 0.52599 0.0
C37 C 0.5524 0.53842 0.42334 0.0
C38 C 0.44272 0.62693 0.5123 0.0
C39 C 0.42028 0.44002 0.48993 0.0
O40 O 0.74262 0.4685 0.52248 0.0
O41 O 0.63839 0.45124 0.4993 0.0
C42 C 0.98158 0.12578 0.48053 0.0
C43 C 0.95537 0.14383 0.45051 0.0
C44 C 0.88573 0.21134 0.48364 0.0
C45 C 0.90784 0.18647 0.45208 0.0
C46 C 0.91224 0.19382 0.51369 0.0
C47 C 0.96028 0.15137 0.51213 0.0
U48 U 0.08032 0.02028 0.42538 0.0
O49 O 0.18321 0.98548 0.42946 0.0
O50 O 0.09232 0.93097 0.42581 0.0
C51 C 0.15941 0.93496 0.42908 0.0
C52 C 0.02909 0.07916 0.47852 0.0
C53 C 0.19292 0.90111 0.45258 0.0
C54 C 0.23066 0.88251 0.50903 0.0
C55 C 0.19398 0.91511 0.48815 0.0
C56 C 0.26337 0.82177 0.45895 0.0
C57 C 0.26614 0.83612 0.4943 0.0
C58 C 0.22702 0.854 0.43828 0.0
C59 C 0.05361 0.03598 0.32904 0.0
C60 C 0.09696 0.98045 0.27899 0.0
C61 C 0.02269 0.05773 0.27264 0.0
C62 C 1.01884 0.06884 0.30788 0.0
C63 C 0.06136 0.01348 0.25799 0.0
C64 C 0.09309 0.99165 0.31457 0.0
C65 C 0.04587 0.04954 0.36585 0.0
O66 O 1.00226 0.03215 0.46428 0.0
O67 O 0.09004 0.08887 0.46719 0.0
O68 O 0.10023 0.06929 0.38381 0.0
O69 O 1.00959 0.0148 0.3809 0.0
H70 H 0.97141 0.12464 0.42587 0.0
H71 H 0.88822 0.19987 0.42865 0.0
H72 H 0.89597 0.21298 0.5383 0.0
H73 H 0.98067 0.13857 0.53551 0.0
H74 H 0.23215 0.89387 0.53638 0.0
H75 H 0.16754 0.95133 0.49958 0.0
H76 H 0.29026 0.78596 0.44722 0.0
H77 H 0.22651 0.8426 0.41092 0.0
H78 H 0.12753 0.94629 0.26795 0.0
H79 H 0.99529 0.08379 0.2568 0.0
H80 H 0.9883 0.1032 0.31869 0.0
H81 H 0.12043 0.96593 0.33064 0.0
C82 C 0.92877 0.95681 0.53506 0.0
C83 C 0.91094 0.92533 0.56079 0.0
C84 C 0.84035 0.86526 0.52004 0.0
C85 C 0.86694 0.87971 0.55328 0.0
C86 C 0.85793 0.89668 0.49438 0.0
C87 C 0.9018 0.94232 0.5019 0.0
U88 U 0.03155 0.05699 0.59863 0.0
O89 O 0.13549 0.0908 0.59664 0.0
O90 O 0.04771 0.14694 0.60159 0.0
C91 C 0.11441 0.14202 0.59898 0.0
C92 C 0.97487 0.00488 0.5426 0.0
C93 C 0.14993 0.17888 0.5785 0.0
C94 C 0.20892 0.19675 0.52766 0.0
C95 C 0.16565 0.16324 0.54422 0.0
C96 C 0.21861 0.26211 0.57905 0.0
C97 C 0.23687 0.24564 0.54543 0.0
C98 C 0.17543 0.22902 0.59541 0.0
C99 C 0.02488 0.03599 0.69318 0.0
C100 C 0.09689 0.08398 0.73898 0.0
C101 C 1.01087 0.01803 0.7514 0.0
C102 C 0.99143 0.00846 0.71697 0.0
C103 C 0.0641 0.05527 0.76254 0.0
C104 C 0.07733 0.07437 0.70433 0.0
C105 C 1.00538 0.02221 0.65697 0.0
O106 O 0.9478 0.04842 0.55993 0.0
O107 O 0.03684 0.99428 0.55373 0.0
O108 O 0.05423 0.00194 0.6371 0.0
O109 O 0.96739 0.05843 0.64353 0.0
H110 H 0.93112 0.93599 0.58659 0.0
H111 H 0.85395 0.8556 0.57335 0.0
H112 H 0.83804 0.88584 0.46856 0.0
H113 H 0.91441 0.9662 0.48177 0.0
H114 H 0.22213 0.18373 0.50151 0.0
H115 H 0.14658 0.12453 0.53082 0.0
H116 H 0.2394 0.29986 0.59305 0.0
H117 H 0.16411 0.24161 0.62188 0.0
H118 H 0.13791 0.11313 0.74726 0.0
H119 H 0.98483 0.99574 0.7693 0.0
H120 H 0.95081 0.97886 0.70882 0.0
H121 H 0.10353 0.09615 0.68625 0.0
C122 C 0.48123 0.62554 0.98046 0.0
C123 C 0.45502 0.64345 0.9504 0.0
C124 C 0.38546 0.71115 0.98344 0.0
C125 C 0.40752 0.68612 0.9519 0.0
C126 C 0.41198 0.69374 0.01353 0.0
C127 C 0.45998 0.65128 0.01203 0.0
U128 U 0.58028 0.52015 0.92542 0.0
O129 O 0.68322 0.48546 0.92957 0.0
O130 O 0.59242 0.43085 0.92581 0.0
C131 C 0.65949 0.43491 0.92915 0.0
C132 C 0.5288 0.57895 0.97852 0.0
C133 C 0.69296 0.40105 0.95265 0.0
C134 C 0.73058 0.3824 0.0091 0.0
C135 C 0.694 0.41504 0.98822 0.0
C136 C 0.76326 0.32163 0.95904 0.0
C137 C 0.76599 0.33596 0.99439 0.0
C138 C 0.72702 0.35391 0.93836 0.0
C139 C 0.55366 0.53607 0.82909 0.0
C140 C 0.59698 0.48071 0.77897 0.0
C141 C 0.52265 0.55801 0.77274 0.0
C142 C 0.51884 0.569 0.80799 0.0
C143 C 0.56132 0.51381 0.75803 0.0
C144 C 0.59315 0.4918 0.81456 0.0
C145 C 0.54591 0.54949 0.86591 0.0
O146 O 0.50207 0.53191 0.96426 0.0
O147 O 0.58979 0.58871 0.96726 0.0
O148 O 0.60023 0.56925 0.88389 0.0
O149 O 0.50966 0.51467 0.8809 0.0
H150 H 0.47104 0.62417 0.92578 0.0
H151 H 0.38791 0.69943 0.92846 0.0
H152 H 0.39575 0.71302 0.03812 0.0
H153 H 0.48039 0.63858 0.03544 0.0
H154 H 0.73203 0.39375 0.03646 0.0
H155 H 0.66759 0.45129 0.99964 0.0
H156 H 0.79011 0.28579 0.94731 0.0
H157 H 0.72652 0.34251 0.91099 0.0
H158 H 0.62755 0.4466 0.76788 0.0
H159 H 0.49522 0.58412 0.75694 0.0
H160 H 0.48829 0.60332 0.81884 0.0
H161 H 0.62051 0.46603 0.83058 0.0
C162 C 0.42825 0.45697 0.03523 0.0
C163 C 0.41067 0.42541 0.06097 0.0
C164 C 0.33969 0.36547 0.02033 0.0
C165 C 0.3666 0.37983 0.05351 0.0
C166 C 0.35699 0.39699 0.99467 0.0
C167 C 0.40093 0.4426 1.00213 0.0
U168 U 0.53149 0.55703 0.09866 0.0
O169 O 0.63555 0.59054 0.09656 0.0
O170 O 0.54801 0.64693 0.10152 0.0
C171 C 0.61468 0.64182 0.09884 0.0
C172 C 0.4745 0.50495 0.0427 0.0
C173 C 0.65024 0.67847 0.07824 0.0
C174 C 0.70944 0.69585 0.02737 0.0
C175 C 0.66612 0.66251 0.04402 0.0
C176 C 0.71884 0.76168 0.07855 0.0
C177 C 0.73727 0.74489 0.04499 0.0
C178 C 0.67561 0.72876 0.095 0.0
C179 C 0.52494 0.5362 0.19325 0.0
C180 C 0.59713 0.58411 0.239 0.0
C181 C 0.51114 0.51817 0.25146 0.0
C182 C 0.49157 0.50864 0.21705 0.0
C183 C 0.56441 0.55537 0.26258 0.0
C184 C 0.57743 0.57455 0.20436 0.0
C185 C 0.50531 0.52245 0.15704 0.0
O186 O 0.44761 0.54857 0.06002 0.0
O187 O 0.53646 0.49424 0.05378 0.0
O188 O 0.55404 0.50201 0.13715 0.0
O189 O 0.46746 0.55876 0.14361 0.0
H190 H 0.43112 0.43598 0.08672 0.0
H191 H 0.35383 0.35564 0.07359 0.0
H192 H 0.33685 0.38623 0.96888 0.0
H193 H 0.41335 0.46655 0.982 0.0
H194 H 0.72278 0.68259 1.00126 0.0
H195 H 0.64715 0.62368 0.03073 0.0
H196 H 0.73955 0.79955 0.09244 0.0
H197 H 0.66417 0.74159 0.12143 0.0
H198 H 0.63818 0.61324 0.24726 0.0
H199 H 0.48517 0.49586 0.26938 0.0
H200 H 0.45091 0.47906 0.20892 0.0
H201 H 0.60357 0.59634 0.18627 0.0
C202 C 0.22686 0.22516 0.00886 0.0
C203 C 0.20987 0.17949 0.01387 0.0
C204 C 0.26047 0.2765 0.00898 0.0
C205 C 0.29616 0.31741 0.01262 0.0
C206 C 0.2526 0.83862 0.98828 0.0
C207 C 0.22206 0.88137 0.99394 0.0
C208 C 0.29601 0.79235 0.98566 0.0
C209 C 0.33677 0.75538 0.98479 0.0
C210 C 0.87273 0.85116 0.01249 0.0
C211 C 0.90176 0.89115 0.00458 0.0
C212 C 0.82828 0.80932 0.0209 0.0
C213 C 0.78677 0.77769 0.02985 0.0
C214 C 0.88723 0.22349 0.02818 0.0
C215 C 0.91925 0.18129 0.02388 0.0
C216 C 0.84417 0.26869 0.02458 0.0
C217 C 0.80706 0.30271 0.01448 0.0
C218 C 0.72741 0.72502 0.50856 0.0
C219 C 0.71033 0.67941 0.51366 0.0
C220 C 0.76109 0.77632 0.50864 0.0
C221 C 0.79681 0.8172 0.5123 0.0
C222 C 0.75267 0.33868 0.48855 0.0
C223 C 0.72213 0.38144 0.49417 0.0
C224 C 0.79614 0.29245 0.48594 0.0
C225 C 0.83696 0.25552 0.48504 0.0
C226 C 0.37237 0.35192 0.51289 0.0
C227 C 0.40155 0.39177 0.50486 0.0
C228 C 0.32783 0.3102 0.52139 0.0
C229 C 0.28633 0.27858 0.53036 0.0
C230 C 0.38769 0.72381 0.52804 0.0
C231 C 0.41972 0.68162 0.52375 0.0
C232 C 0.34455 0.76897 0.52446 0.0
C233 C 0.30734 0.80294 0.51438 0.0
C234 C 0.06209 0.0047 0.15548 0.0
C235 C 0.07044 0.01156 0.12627 0.0
C236 C 0.06215 0.00118 0.1908 0.0
C237 C 0.06448 0.00379 0.22143 0.0
C238 C 0.09424 0.05734 0.86359 0.0
C239 C 0.08265 0.05017 0.89249 0.0
C240 C 0.09398 0.06243 0.82842 0.0
C241 C 0.0846 0.06234 0.79814 0.0
C242 C 0.56202 0.50522 0.65553 0.0
C243 C 0.57043 0.51204 0.62632 0.0
C244 C 0.56205 0.50167 0.69084 0.0
C245 C 0.5644 0.50423 0.72146 0.0
C246 C 0.59479 0.55728 0.36359 0.0
C247 C 0.58317 0.55012 0.39249 0.0
C248 C 0.5945 0.56242 0.32842 0.0
C249 C 0.58504 0.56239 0.29816 0.0
loop_
_geom_bond_atom_site_label_1
_geom_bond_atom_site_label_2
_geom_bond_distance
_geom_bond_site_symmetry_2
_ccdc_geom_bond_type
O0 Mg1 1.990 . S
O0 C14 1.253 . S
Mg1 O0 1.990 . S
Mg1 O4 2.180 . S
Mg1 O5 2.117 . S
Mg1 O19 2.030 1_545 S
O2 Mg3 2.084 . S
O2 C14 1.260 . S
Mg3 O2 2.084 . S
Mg3 O4 2.100 . S
Mg3 O6 2.067 1_554 S
Mg3 O7 2.072 . S
Mg3 O9 2.097 1_444 S
Mg3 O20 2.079 1_544 S
O4 Mg1 2.180 . S
O4 Mg3 2.100 . S
O4 C15 1.279 . S
O5 Mg1 2.117 . S
O5 C15 1.250 . S
O6 Mg3 2.067 1_556 S
O6 C16 1.264 . S
O7 Mg3 2.072 . S
O7 C17 1.252 1_454 S
Mg8 O9 2.180 1_545 S
Mg8 O10 2.030 . S
Mg8 O11 1.990 . S
Mg8 O12 2.117 1_545 S
O9 Mg3 2.097 1_666 S
O9 Mg8 2.180 1_565 S
O9 C18 1.279 1_556 S
O10 Mg8 2.030 . S
O10 C16 1.248 1_655 S
O11 Mg8 1.990 . S
O11 C17 1.263 . S
O12 Mg8 2.117 1_565 S
O12 C18 1.250 1_556 S
C13 O19 1.248 . S
C13 O20 1.264 1_554 S
C14 O0 1.253 . S
C14 O2 1.260 . S
C15 O4 1.279 . S
C15 O5 1.250 . S
C16 O6 1.264 . S
C16 O10 1.248 1_455 S
C17 O7 1.252 1_656 S
C17 O11 1.263 . S
C18 O9 1.279 1_554 S
C18 O12 1.250 1_554 S
O19 Mg1 2.030 1_565 S
O19 C13 1.248 . S
O20 Mg3 2.079 1_566 S
O20 C13 1.264 1_556 S
O21 Mg22 1.990 . S
O21 C35 1.253 . S
Mg22 O21 1.990 . S
Mg22 O25 2.180 . S
Mg22 O26 2.117 . S
Mg22 O40 2.030 . S
O23 Mg24 2.072 . S
O23 C35 1.260 . S
Mg24 O23 2.072 . S
Mg24 O25 2.099 . S
Mg24 O27 2.079 . S
Mg24 O28 2.072 . S
Mg24 O30 2.099 . S
Mg24 O41 2.079 . S
O25 Mg22 2.180 . S
O25 Mg24 2.099 . S
O25 C36 1.279 . S
O26 Mg22 2.117 . S
O26 C36 1.250 . S
O27 Mg24 2.079 . S
O27 C37 1.264 . S
O28 Mg24 2.072 . S
O28 C38 1.260 . S
Mg29 O30 2.180 . S
Mg29 O31 2.030 . S
Mg29 O32 1.990 . S
Mg29 O33 2.117 . S
O30 Mg24 2.099 . S
O30 Mg29 2.180 . S
O30 C39 1.279 . S
O31 Mg29 2.030 . S
O31 C37 1.248 . S
O32 Mg29 1.990 . S
O32 C38 1.253 . S
O33 Mg29 2.117 . S
O33 C39 1.250 . S
C34 O40 1.248 . S
C34 O41 1.264 . S
C35 O21 1.253 . S
C35 O23 1.260 . S
C36 O25 1.279 . S
C36 O26 1.250 . S
C37 O27 1.264 . S
C37 O31 1.248 . S
C38 O28 1.260 . S
C38 O32 1.253 . S
C39 O30 1.279 . S
C39 O33 1.250 . S
O40 Mg22 2.030 . S
O40 C34 1.248 . S
O41 Mg24 2.079 . S
O41 C34 1.264 . S
C42 C43 1.264 . S
C42 C47 1.479 . S
C42 C52 1.465 . S
C43 C42 1.264 . S
C43 C45 1.339 . S
C43 H70 0.931 . S
C44 C45 1.395 . S
C44 C46 1.320 . S
C45 C43 1.339 . S
C45 C44 1.395 . S
C45 H71 0.929 . S
C46 C44 1.320 . S
C46 C47 1.405 . S
C46 H72 0.930 . S
C47 C42 1.479 . S
C47 C46 1.405 . S
C47 H73 0.931 . S
U48 O49 2.454 1_545 S
U48 O50 2.458 1_545 S
U48 C51 2.984 1_545 S
U48 C52 2.847 1_455 S
U48 C65 2.882 . S
U48 O66 2.441 . S
U48 O67 2.420 . S
U48 O68 2.455 1_545 S
U48 O69 2.449 . S
O49 U48 2.454 1_565 S
O49 C51 1.353 . S
O50 U48 2.458 1_565 S
O50 C51 1.286 . S
C51 U48 2.984 1_565 S
C51 O49 1.353 . S
C51 O50 1.286 . S
C51 C53 1.363 . S
C52 C42 1.465 . S
C52 U48 2.847 1_655 S
C52 O66 1.249 1_655 S
C52 O67 1.202 1_655 S
C53 C51 1.363 . S
C53 C55 1.408 . S
C53 C58 1.342 . S
C54 C55 1.310 . S
C54 C57 1.461 . S
C54 H74 0.932 . S
C55 C53 1.408 . S
C55 C54 1.310 . S
C55 H75 0.930 . S
C56 C57 1.474 . S
C56 C58 1.285 . S
C56 H76 0.929 . S
C57 C54 1.461 . S
C57 C56 1.474 . S
C58 C53 1.342 . S
C58 C56 1.285 . S
C58 H77 0.930 . S
C59 C62 1.424 . S
C59 C64 1.245 1_545 S
C59 C65 1.428 . S
C60 C63 1.260 . S
C60 C64 1.477 . S
C60 H78 0.932 . S
C61 C62 1.384 . S
C61 C63 1.479 1_545 S
C61 H79 0.929 . S
C62 C59 1.424 . S
C62 C61 1.384 . S
C62 H80 0.928 . S
C63 C60 1.260 . S
C63 C61 1.479 1_565 S
C64 C59 1.245 1_565 S
C64 C60 1.477 . S
C64 H81 0.932 . S
C65 U48 2.882 . S
C65 C59 1.428 . S
C65 O68 1.301 1_545 S
C65 O69 1.282 . S
O66 U48 2.441 . S
O66 C52 1.249 1_455 S
O67 U48 2.420 . S
O67 C52 1.202 1_455 S
O68 U48 2.455 1_565 S
O68 C65 1.301 1_565 S
O69 U48 2.449 . S
O69 C65 1.282 . S
H70 C43 0.931 . S
H71 C45 0.929 . S
H72 C46 0.930 . S
H73 C47 0.931 . S
H74 C54 0.932 . S
H75 C55 0.930 . S
H76 C56 0.929 . S
H77 C58 0.930 . S
H78 C60 0.932 . S
H79 C61 0.929 . S
H80 C62 0.928 . S
H81 C64 0.932 . S
C82 C83 1.264 . S
C82 C87 1.479 . S
C82 C92 1.465 . S
C83 C82 1.264 . S
C83 C85 1.339 . S
C83 H110 0.931 . S
C84 C85 1.395 . S
C84 C86 1.320 . S
C85 C83 1.339 . S
C85 C84 1.395 . S
C85 H111 0.929 . S
C86 C84 1.320 . S
C86 C87 1.405 . S
C86 H112 0.930 . S
C87 C82 1.479 . S
C87 C86 1.405 . S
C87 H113 0.931 . S
U88 O89 2.454 . S
U88 O90 2.458 . S
U88 C91 2.984 . S
U88 C92 2.847 1_445 S
U88 C105 2.882 . S
U88 O106 2.441 1_455 S
U88 O107 2.420 1_445 S
U88 O108 2.455 . S
U88 O109 2.449 . S
O89 U88 2.454 . S
O89 C91 1.353 . S
O90 U88 2.458 . S
O90 C91 1.286 . S
C91 U88 2.984 . S
C91 O89 1.353 . S
C91 O90 1.286 . S
C91 C93 1.363 . S
C92 C82 1.465 . S
C92 U88 2.847 1_665 S
C92 O106 1.249 1_565 S
C92 O107 1.202 . S
C93 C91 1.363 . S
C93 C95 1.408 . S
C93 C98 1.342 . S
C94 C95 1.310 . S
C94 C97 1.461 . S
C94 H114 0.932 . S
C95 C93 1.408 . S
C95 C94 1.310 . S
C95 H115 0.930 . S
C96 C97 1.474 . S
C96 C98 1.285 . S
C96 H116 0.929 . S
C97 C94 1.461 . S
C97 C96 1.474 . S
C98 C93 1.342 . S
C98 C96 1.285 . S
C98 H117 0.930 . S
C99 C102 1.424 1_455 S
C99 C104 1.245 . S
C99 C105 1.428 . S
C100 C103 1.260 . S
C100 C104 1.477 . S
C100 H118 0.932 . S
C101 C102 1.384 . S
C101 C103 1.479 1_655 S
C101 H119 0.929 . S
C102 C99 1.424 1_655 S
C102 C101 1.384 . S
C102 H120 0.928 . S
C103 C100 1.260 . S
C103 C101 1.479 1_455 S
C104 C99 1.245 . S
C104 C100 1.477 . S
C104 H121 0.932 . S
C105 U88 2.882 . S
C105 C99 1.428 . S
C105 O108 1.301 . S
C105 O109 1.282 . S
O106 U88 2.441 1_655 S
O106 C92 1.249 1_545 S
O107 U88 2.420 1_665 S
O107 C92 1.202 . S
O108 U88 2.455 . S
O108 C105 1.301 . S
O109 U88 2.449 . S
O109 C105 1.282 . S
H110 C83 0.931 . S
H111 C85 0.929 . S
H112 C86 0.930 . S
H113 C87 0.931 . S
H114 C94 0.932 . S
H115 C95 0.930 . S
H116 C96 0.929 . S
H117 C98 0.930 . S
H118 C100 0.932 . S
H119 C101 0.929 . S
H120 C102 0.928 . S
H121 C104 0.932 . S
C122 C123 1.264 . S
C122 C127 1.479 1_556 S
C122 C132 1.465 . S
C123 C122 1.264 . S
C123 C125 1.339 . S
C123 H150 0.931 . S
C124 C125 1.395 1_554 S
C124 C126 1.320 . S
C125 C123 1.339 . S
C125 C124 1.395 1_556 S
C125 H151 0.929 . S
C126 C124 1.320 . S
C126 C127 1.405 . S
C126 H152 0.930 . S
C127 C122 1.479 1_554 S
C127 C126 1.405 . S
C127 H153 0.931 . S
U128 O129 2.454 . S
U128 O130 2.458 . S
U128 C131 2.984 . S
U128 C132 2.847 . S
U128 C145 2.882 . S
U128 O146 2.441 . S
U128 O147 2.420 . S
U128 O148 2.455 . S
U128 O149 2.449 . S
O129 U128 2.454 . S
O129 C131 1.353 . S
O130 U128 2.458 . S
O130 C131 1.286 . S
C131 U128 2.984 . S
C131 O129 1.353 . S
C131 O130 1.286 . S
C131 C133 1.363 . S
C132 C122 1.465 . S
C132 U128 2.847 . S
C132 O146 1.249 . S
C132 O147 1.202 . S
C133 C131 1.363 . S
C133 C135 1.408 1_556 S
C133 C138 1.342 . S
C134 C135 1.310 . S
C134 C137 1.461 1_554 S
C134 H154 0.932 . S
C135 C133 1.408 1_554 S
C135 C134 1.310 . S
C135 H155 0.930 . S
C136 C137 1.474 . S
C136 C138 1.285 . S
C136 H156 0.929 . S
C137 C134 1.461 1_556 S
C137 C136 1.474 . S
C138 C133 1.342 . S
C138 C136 1.285 . S
C138 H157 0.930 . S
C139 C142 1.424 . S
C139 C144 1.245 . S
C139 C145 1.428 . S
C140 C143 1.260 . S
C140 C144 1.477 . S
C140 H158 0.932 . S
C141 C142 1.384 . S
C141 C143 1.479 . S
C141 H159 0.929 . S
C142 C139 1.424 . S
C142 C141 1.384 . S
C142 H160 0.928 . S
C143 C140 1.260 . S
C143 C141 1.479 . S
C144 C139 1.245 . S
C144 C140 1.477 . S
C144 H161 0.932 . S
C145 U128 2.882 . S
C145 C139 1.428 . S
C145 O148 1.301 . S
C145 O149 1.282 . S
O146 U128 2.441 . S
O146 C132 1.249 . S
O147 U128 2.420 . S
O147 C132 1.202 . S
O148 U128 2.455 . S
O148 C145 1.301 . S
O149 U128 2.449 . S
O149 C145 1.282 . S
H150 C123 0.931 . S
H151 C125 0.929 . S
H152 C126 0.930 . S
H153 C127 0.931 . S
H154 C134 0.932 . S
H155 C135 0.930 . S
H156 C136 0.929 . S
H157 C138 0.930 . S
H158 C140 0.932 . S
H159 C141 0.929 . S
H160 C142 0.928 . S
H161 C144 0.932 . S
C162 C163 1.264 . S
C162 C167 1.469 1_554 S
C162 C172 1.465 . S
C163 C162 1.264 . S
C163 C165 1.339 . S
C163 H190 0.931 . S
C164 C165 1.395 . S
C164 C166 1.320 1_554 S
C165 C163 1.339 . S
C165 C164 1.395 . S
C165 H191 0.929 . S
C166 C164 1.320 1_556 S
C166 C167 1.408 . S
C166 H192 0.930 . S
C167 C162 1.469 1_556 S
C167 C166 1.408 . S
C167 H193 0.937 . S
U168 O169 2.454 . S
U168 O170 2.458 . S
U168 C171 2.984 . S
U168 C172 2.847 . S
U168 C185 2.882 . S
U168 O186 2.441 . S
U168 O187 2.420 . S
U168 O188 2.455 . S
U168 O189 2.449 . S
O169 U168 2.454 . S
O169 C171 1.353 . S
O170 U168 2.458 . S
O170 C171 1.286 . S
C171 U168 2.984 . S
C171 O169 1.353 . S
C171 O170 1.286 . S
C171 C173 1.363 . S
C172 C162 1.465 . S
C172 U168 2.847 . S
C172 O186 1.249 . S
C172 O187 1.202 . S
C173 C171 1.363 . S
C173 C175 1.408 . S
C173 C178 1.342 . S
C174 C175 1.310 1_556 S
C174 C177 1.461 1_556 S
C174 H194 0.932 . S
C175 C173 1.408 . S
C175 C174 1.310 1_554 S
C175 H195 0.930 1_554 S
C176 C177 1.474 . S
C176 C178 1.285 . S
C176 H196 0.929 . S
C177 C174 1.461 1_554 S
C177 C176 1.474 . S
C178 C173 1.342 . S
C178 C176 1.285 . S
C178 H197 0.930 . S
C179 C182 1.424 . S
C179 C184 1.245 . S
C179 C185 1.428 . S
C180 C183 1.260 . S
C180 C184 1.477 . S
C180 H198 0.932 . S
C181 C182 1.384 . S
C181 C183 1.479 . S
C181 H199 0.929 . S
C182 C179 1.424 . S
C182 C181 1.384 . S
C182 H200 0.928 . S
C183 C180 1.260 . S
C183 C181 1.479 . S
C184 C179 1.245 . S
C184 C180 1.477 . S
C184 H201 0.932 . S
C185 U168 2.882 . S
C185 C179 1.428 . S
C185 O188 1.301 . S
C185 O189 1.282 . S
O186 U168 2.441 . S
O186 C172 1.249 . S
O187 U168 2.420 . S
O187 C172 1.202 . S
O188 U168 2.455 . S
O188 C185 1.301 . S
O189 U168 2.449 . S
O189 C185 1.282 . S
H190 C163 0.931 . S
H191 C165 0.929 . S
H192 C166 0.930 . S
H193 C167 0.937 . S
H194 C174 0.932 . S
H195 C175 0.930 1_556 S
H196 C176 0.929 . S
H197 C178 0.930 . S
H198 C180 0.932 . S
H199 C181 0.929 . S
H200 C182 0.928 . S
H201 C184 0.932 . S
C202 C203 1.170 . S
C202 C204 1.380 1_554 S
C203 C202 1.170 . S
C204 C202 1.380 1_556 S
C204 C205 1.170 . S
C205 C204 1.170 . S
C206 C207 1.170 . S
C206 C208 1.380 . S
C207 C206 1.170 . S
C208 C206 1.380 . S
C208 C209 1.170 . S
C209 C208 1.170 . S
C210 C211 1.170 . S
C210 C212 1.380 . S
C211 C210 1.170 . S
C212 C210 1.380 . S
C212 C213 1.170 . S
C213 C212 1.170 . S
C214 C215 1.170 . S
C214 C216 1.380 . S
C215 C214 1.170 . S
C216 C214 1.380 . S
C216 C217 1.170 . S
C217 C216 1.170 . S
C218 C219 1.170 . S
C218 C220 1.380 . S
C219 C218 1.170 . S
C220 C218 1.380 . S
C220 C221 1.170 . S
C221 C220 1.170 . S
C222 C223 1.170 . S
C222 C224 1.380 . S
C223 C222 1.170 . S
C224 C222 1.380 . S
C224 C225 1.170 . S
C225 C224 1.170 . S
C226 C227 1.170 . S
C226 C228 1.380 . S
C227 C226 1.170 . S
C228 C226 1.380 . S
C228 C229 1.170 . S
C229 C228 1.170 . S
C230 C231 1.170 . S
C230 C232 1.380 . S
C231 C230 1.170 . S
C232 C230 1.380 . S
C232 C233 1.170 . S
C233 C232 1.170 . S
C234 C235 1.170 . S
C234 C236 1.380 1_545 S
C235 C234 1.170 . S
C236 C234 1.380 1_565 S
C236 C237 1.170 . S
C237 C236 1.170 . S
C238 C239 1.170 . S
C238 C240 1.380 . S
C239 C238 1.170 . S
C240 C238 1.380 . S
C240 C241 1.170 . S
C241 C240 1.170 . S
C242 C243 1.170 . S
C242 C244 1.380 . S
C243 C242 1.170 . S
C244 C242 1.380 . S
C244 C245 1.170 . S
C245 C244 1.170 . S
C246 C247 1.170 . S
C246 C248 1.380 . S
C247 C246 1.170 . S
C248 C246 1.380 . S
C248 C249 1.170 . S
C249 C248 1.170 . S
C205 C164 1.616 1_556 S
C203 C15 1.587 . S
C207 C13 1.663 . S
C209 C124 1.646 . S
C211 C18 1.314 . S
C213 C177 1.590 . S
C215 C17 1.450 1_554 S
C217 C137 1.485 1_554 S
C219 C36 1.588 . S
C221 C84 1.606 . S
C223 C34 1.653 . S
C225 C44 1.645 . S
C229 C97 1.575 . S
C227 C39 1.297 . S
C233 C57 1.486 . S
C231 C38 1.455 . S
C235 C14 1.535 . S
C237 C63 1.552 . S
C239 C16 1.386 . S
C241 C103 1.435 . S
C245 C143 1.549 . S
C243 C35 1.537 . S
C247 C37 1.390 . S
C249 C183 1.437 . S
