# Generated by pormake.
# Topology scu, (8,4)-cn, num edge types: 1
# Building blocks:
#     Node 0, Type 0, BuildingBlock: GIZVER_clean_sbu_0, # of connection points: 8
#     Node 1, Type 1, BuildingBlock: NAWXER_clean_sbu_0, # of connection points: 4
#     Node 2, Type 1, BuildingBlock: NAWXER_clean_sbu_0, # of connection points: 4
#     Edge 3, Type (0, 1), BuildingBlock: FUNLAD_clean_linker_0, # of connection points: 2
#     Edge 4, Type (0, 1), BuildingBlock: FUNLAD_clean_linker_0, # of connection points: 2
#     Edge 5, Type (0, 1), BuildingBlock: FUNLAD_clean_linker_0, # of connection points: 2
#     Edge 6, Type (0, 1), BuildingBlock: FUNLAD_clean_linker_0, # of connection points: 2
#     Edge 7, Type (0, 1), BuildingBlock: FUNLAD_clean_linker_0, # of connection points: 2
#     Edge 8, Type (0, 1), BuildingBlock: FUNLAD_clean_linker_0, # of connection points: 2
#     Edge 9, Type (0, 1), BuildingBlock: FUNLAD_clean_linker_0, # of connection points: 2
#     Edge 10, Type (0, 1), BuildingBlock: FUNLAD_clean_linker_0, # of connection points: 2
# Relax obj value: 0.018
# Max RMSD: 0.083
# Mean RMSD: 0.060
data_MOF--net-scu--node1-GIZVER_clean_sbu_0--node2-NAWXER_clean_sbu_0--edge1-FUNLAD_clean_linker_0
_symmetry_space_group_name_H-M    P1
_symmetry_Int_Tables_number       1
_symmetry_cell_setting            triclinic
loop_
_symmetry_equiv_pos_as_xyz
'x, y, z'
_cell_length_a     27.103346
_cell_length_b     27.416628
_cell_length_c     25.250623
_cell_angle_alpha  98.36642
_cell_angle_beta   82.520738
_cell_angle_gamma 114.64884
loop_
_atom_site_label
_atom_site_type_symbol
_atom_site_fract_x
_atom_site_fract_y
_atom_site_fract_z
_atom_type_partial_charge
Co0 Co 0.02995 0.97605 0.13247 0.0
Co1 Co 0.10606 0.0512 0.07903 0.0
Co2 Co 0.99827 1.01849 0.02459 0.0
O3 O 0.04263 0.9915 0.05916 0.0
H4 H 0.05206 0.96518 0.03539 0.0
O5 O 0.95673 0.04839 0.98963 0.0
Co6 Co 0.98203 0.07214 0.91891 0.0
Co7 Co 0.89592 0.99685 0.95964 0.0
H8 H 0.94659 0.07405 1.01379 0.0
O9 O 0.16801 0.04358 0.0907 0.0
O10 O 0.09771 0.04029 0.15078 0.0
O11 O 0.11016 0.12332 0.07879 0.0
O12 O 0.02167 0.08995 0.07016 0.0
O13 O 0.06096 0.04624 0.97037 0.0
O14 O 0.00296 0.09809 0.85583 0.0
O15 O 0.96036 0.1277 0.92746 0.0
O16 O 0.0118 1.01938 0.90033 0.0
O17 O 0.9723 0.9456 0.97943 0.0
O18 O 0.89018 0.92447 0.95164 0.0
O19 O 0.91051 0.02152 0.89245 0.0
O20 O 0.83872 1.01406 0.95226 0.0
C21 C 0.05037 0.93077 0.1769 0.0
C22 C 0.94092 1.002 0.12968 0.0
C23 C 0.0657 0.12895 0.08382 0.0
C24 C 0.14698 0.04264 0.13999 0.0
C25 C 0.98246 0.13199 0.87817 0.0
C26 C 0.05528 0.02759 0.92126 0.0
C27 C 0.92951 0.91223 0.95662 0.0
C28 C 0.8646 0.02671 0.9058 0.0
O29 O 0.02165 0.95749 0.19887 0.0
O30 O 0.06649 0.93284 0.12589 0.0
O31 O 0.9359 0.98995 0.07929 0.0
O32 O 0.98704 1.01728 0.14871 0.0
C33 C 0.95496 0.5735 0.59219 0.0
C34 C 0.98336 0.44863 0.44338 0.0
O35 O 0.00475 0.58054 0.58078 0.0
Zn36 Zn 0.05258 0.54824 0.52596 0.0
O37 O 0.91827 0.53712 0.56458 0.0
Zn38 Zn 0.96622 0.51002 0.51696 0.0
O39 O 0.99431 0.47644 0.57155 0.0
O40 O 0.08308 0.52102 0.57529 0.0
O41 O 0.93783 0.44954 0.46244 0.0
O42 O 0.02725 0.48266 0.46382 0.0
O43 O 0.09757 0.60969 0.48516 0.0
O44 O 0.01104 0.57409 0.46803 0.0
C45 C 0.03857 0.48358 0.59081 0.0
C46 C 0.0599 0.60872 0.45915 0.0
C47 C 0.57567 0.04565 0.58916 0.0
C48 C 0.4462 0.03859 0.46731 0.0
O49 O 0.54359 0.99769 0.57248 0.0
Zn50 Zn 0.47641 0.958 0.52382 0.0
O51 O 0.56914 0.08583 0.57679 0.0
Zn52 Zn 0.50901 0.04487 0.53184 0.0
O53 O 0.44275 1.00792 0.58804 0.0
O54 O 0.41475 0.91961 0.57301 0.0
O55 O 0.4795 0.08109 0.49207 0.0
O56 O 0.44218 0.99225 0.47632 0.0
O57 O 0.50694 0.91943 0.46786 0.0
O58 O 0.54678 1.00813 0.46817 0.0
C59 C 0.40998 0.96066 0.59979 0.0
C60 C 0.54294 0.96112 0.4478 0.0
C61 C 0.01138 0.18125 0.12652 0.0
C62 C 0.06219 0.17786 0.11498 0.0
C63 C 0.0058 0.22266 0.16274 0.0
C64 C 0.05097 0.26176 0.18843 0.0
C65 C 0.10229 0.26032 0.17438 0.0
C66 C 0.10788 0.21872 0.1383 0.0
C67 C 0.04622 0.30391 0.23065 0.0
C68 C 1.00011 0.29787 0.26214 0.0
C69 C 0.99676 0.33765 0.30798 0.0
C70 C 0.9456 0.33728 0.32761 0.0
C71 C 0.94077 0.37306 0.37163 0.0
C72 C 0.9871 0.40973 0.39723 0.0
H73 H 0.08287 0.3744 0.32205 0.0
C74 C 0.03813 0.40954 0.378 0.0
C75 C 0.04293 0.37392 0.33419 0.0
H76 H 0.07471 0.43682 0.39699 0.0
H77 H 0.97531 0.15085 0.10892 0.0
H78 H 0.96594 0.22345 0.17073 0.0
H79 H 0.13796 0.29035 0.19296 0.0
H80 H 0.14764 0.21757 0.13025 0.0
H81 H 0.08311 0.33992 0.23752 0.0
H82 H 0.96319 0.26191 0.25513 0.0
H83 H 0.9092 0.30932 0.30871 0.0
H84 H 0.90084 0.37201 0.38548 0.0
C85 C 0.8399 0.96997 0.15117 0.0
C86 C 0.8932 0.99995 0.16666 0.0
C87 C 0.79499 0.96659 0.18724 0.0
C88 C 0.80269 0.99364 0.23929 0.0
C89 C 0.85591 0.02442 0.25422 0.0
C90 C 0.90066 0.02713 0.21858 0.0
C91 C 0.75657 0.99311 0.27829 0.0
C92 C 0.70687 0.95203 0.27975 0.0
C93 C 0.66258 0.95365 0.32047 0.0
C94 C 0.62462 0.906 0.34117 0.0
C95 C 0.58473 0.90769 0.38197 0.0
C96 C 0.58192 0.9571 0.40222 0.0
H97 H 0.68522 0.03975 0.32271 0.0
C98 C 0.61845 1.00425 0.37956 0.0
C99 C 0.65807 1.00255 0.33917 0.0
H100 H 0.61697 0.04295 0.3934 0.0
H101 H 0.83288 0.94865 0.11138 0.0
H102 H 0.75449 0.94366 0.17395 0.0
H103 H 0.86295 0.04614 0.29386 0.0
H104 H 0.94116 0.05088 0.23166 0.0
H105 H 0.76509 0.0271 0.30905 0.0
H106 H 0.69939 0.91536 0.25288 0.0
H107 H 0.6268 0.86767 0.32686 0.0
H108 H 0.55695 0.87062 0.39829 0.0
C109 C 0.08353 0.85978 0.18767 0.0
C110 C 0.066 0.90027 0.21065 0.0
C111 C 0.09526 0.82936 0.22039 0.0
C112 C 0.09023 0.83931 0.27677 0.0
C113 C 0.07524 0.88149 0.29941 0.0
C114 C 0.06273 0.91123 0.26686 0.0
C115 C 0.0986 0.80577 0.31331 0.0
C116 C 0.08615 0.75269 0.30088 0.0
C117 C 0.08355 0.71642 0.34068 0.0
C118 C 0.04401 0.66328 0.33636 0.0
C119 C 0.03728 0.62856 0.37455 0.0
C120 C 0.07089 0.64559 0.41744 0.0
H121 H 0.14999 0.77381 0.38668 0.0
C122 C 0.11231 0.698 0.42068 0.0
C123 C 0.1183 0.73339 0.38286 0.0
H124 H 0.13887 0.71211 0.45324 0.0
H125 H 0.08704 0.8508 0.14449 0.0
H126 H 0.10816 0.79813 0.20144 0.0
H127 H 0.07156 0.89045 0.34261 0.0
H128 H 0.05025 0.94276 0.28588 0.0
H129 H 0.10889 0.82376 0.35383 0.0
H130 H 0.07065 0.73362 0.26216 0.0
H131 H 0.01698 0.64897 0.30414 0.0
H132 H 0.00536 0.58821 0.37059 0.0
C133 C 0.23339 0.04958 0.17166 0.0
C134 C 0.18019 0.04657 0.18379 0.0
C135 C 0.2658 0.05494 0.21254 0.0
C136 C 0.2456 0.05692 0.26665 0.0
C137 C 0.19266 0.05451 0.27894 0.0
C138 C 0.1601 0.04911 0.23789 0.0
C139 C 0.2793 0.06186 0.31066 0.0
C140 C 0.31586 0.03971 0.30434 0.0
C141 C 0.34858 0.04118 0.34759 0.0
C142 C 0.36312 0.99778 0.34731 0.0
C143 C 0.3946 0.99736 0.38644 0.0
C144 C 0.4134 0.04099 0.42623 0.0
H145 H 0.35772 0.1198 0.38769 0.0
C146 C 0.39995 0.08522 0.42611 0.0
C147 C 0.36733 0.08516 0.38724 0.0
H148 H 0.41405 0.11939 0.45627 0.0
H149 H 0.25041 0.04831 0.13048 0.0
H150 H 0.30698 0.05835 0.20154 0.0
H151 H 0.17627 0.05622 0.32032 0.0
H152 H 0.11936 0.04719 0.2486 0.0
H153 H 0.2714 0.08093 0.34973 0.0
H154 H 0.31936 1.01582 0.26687 0.0
H155 H 0.34964 0.96371 0.31692 0.0
H156 H 0.40472 0.96289 0.38508 0.0
C157 C 0.8822 0.82335 0.90307 0.0
C158 C 0.92898 0.86086 0.92768 0.0
C159 C 0.88405 0.77951 0.86814 0.0
C160 C 0.93291 0.77228 0.8568 0.0
C161 C 0.97859 0.80771 0.88413 0.0
C162 C 0.97678 0.8516 0.91903 0.0
C163 C 0.93894 0.73005 0.81545 0.0
C164 C 0.90703 0.70706 0.77403 0.0
C165 C 0.91926 0.67164 0.72849 0.0
C166 C 0.87704 0.63404 0.69799 0.0
C167 C 0.88805 0.60184 0.65358 0.0
C168 C 0.94172 0.60723 0.63846 0.0
H169 H 0.00699 0.70719 0.73361 0.0
C170 C 0.98388 0.64544 0.66863 0.0
C171 C 0.97292 0.67728 0.71282 0.0
H172 H 0.02584 0.65117 0.65804 0.0
H173 H 0.84442 0.82876 0.90936 0.0
H174 H 0.8473 0.75208 0.84968 0.0
H175 H 0.01664 0.80283 0.87669 0.0
H176 H 0.01361 0.87957 0.93723 0.0
H177 H 0.97356 0.72035 0.81747 0.0
H178 H 0.87173 0.71557 0.77186 0.0
H179 H 0.83541 0.62944 0.70865 0.0
H180 H 0.85467 0.57293 0.63113 0.0
C181 C 0.09122 0.98813 0.83684 0.0
C182 C 0.09817 1.01296 0.88976 0.0
C183 C 0.13286 0.97643 0.80669 0.0
C184 C 0.18236 0.98927 0.82897 0.0
C185 C 0.18871 1.01312 0.88214 0.0
C186 C 0.14711 0.02455 0.91229 0.0
C187 C 0.23005 0.98342 0.79689 0.0
C188 C 0.22701 0.95022 0.75125 0.0
C189 C 0.2762 0.95136 0.71642 0.0
C190 C 0.27401 0.90541 0.682 0.0
C191 C 0.31839 0.90722 0.64558 0.0
C192 C 0.36539 0.95542 0.64231 0.0
H193 H 0.32688 0.03584 0.73845 0.0
C194 C 0.36785 1.00095 0.67751 0.0
C195 C 0.32393 0.99904 0.71396 0.0
H196 H 0.40336 0.03881 0.67599 0.0
H197 H 0.05397 0.97855 0.81831 0.0
H198 H 0.12672 0.95921 0.76548 0.0
H199 H 0.22644 0.0238 0.90027 0.0
H200 H 0.15385 0.04347 0.95299 0.0
H201 H 0.26972 1.00811 0.8118 0.0
H202 H 0.18755 0.92152 0.7386 0.0
H203 H 0.23757 0.86829 0.68268 0.0
H204 H 0.31507 0.87158 0.6187 0.0
C205 C 0.98716 0.22427 0.86863 0.0
C206 C 0.98257 0.17282 0.84566 0.0
C207 C 0.99142 0.26333 0.83579 0.0
C208 C 0.98971 0.25083 0.77974 0.0
C209 C 0.98325 0.19886 0.7574 0.0
C210 C 0.98069 0.16068 0.78976 0.0
C211 C 0.99211 0.28972 0.74322 0.0
C212 C 0.02433 0.3429 0.7489 0.0
C213 C 0.0279 0.37951 0.70891 0.0
C214 C 0.0771 0.42381 0.69804 0.0
C215 C 0.08132 0.4576 0.65929 0.0
C216 C 0.03606 0.44813 0.63131 0.0
H217 H 0.94352 0.3381 0.68982 0.0
C218 C 0.98664 0.40443 0.64321 0.0
C219 C 0.98257 0.37071 0.68145 0.0
H220 H 0.95067 0.39605 0.62297 0.0
H221 H 0.98883 0.23467 0.9116 0.0
H222 H 0.99525 0.30284 0.85421 0.0
H223 H 0.98119 0.188 0.71447 0.0
H224 H 0.97696 0.12134 0.77085 0.0
H225 H 0.96973 0.27272 0.70754 0.0
H226 H 0.05123 0.35916 0.78138 0.0
H227 H 0.11256 0.43179 0.71896 0.0
H228 H 0.11982 0.49117 0.65149 0.0
C229 C 0.85943 0.04778 0.81366 0.0
C230 C 0.84112 0.04647 0.8683 0.0
C231 C 0.83474 0.0638 0.77816 0.0
C232 C 0.79112 0.07863 0.79677 0.0
C233 C 0.77491 0.08001 0.8518 0.0
C234 C 0.79932 0.06375 0.88713 0.0
C235 C 0.7592 0.08948 0.7599 0.0
C236 C 0.75049 0.06352 0.71027 0.0
C237 C 0.70786 0.06239 0.67809 0.0
C238 C 0.68165 1.01548 0.64434 0.0
C239 C 0.63881 1.01049 0.6159 0.0
C240 C 0.62171 0.0528 0.6196 0.0
H241 H 0.71196 0.1427 0.70598 0.0
C242 C 0.64915 0.1008 0.6518 0.0
C243 C 0.69173 0.10547 0.68118 0.0
H244 H 0.63717 0.13424 0.65495 0.0
H245 H 0.89202 0.03534 0.7981 0.0
H246 H 0.84947 0.0639 0.73621 0.0
H247 H 0.74179 0.09172 0.86729 0.0
H248 H 0.78487 0.0641 0.92919 0.0
H249 H 0.73604 0.11303 0.77676 0.0
H250 H 0.76971 0.03588 0.69556 0.0
H251 H 0.69342 0.98184 0.64095 0.0
H252 H 0.61917 0.97326 0.59078 0.0
loop_
_geom_bond_atom_site_label_1
_geom_bond_atom_site_label_2
_geom_bond_distance
_geom_bond_site_symmetry_2
_ccdc_geom_bond_type
Co0 O3 2.042 . S
Co0 O10 2.264 1_565 S
Co0 O29 2.286 1_455 S
Co0 O30 2.069 . S
Co0 O32 2.015 1_455 S
Co1 O3 2.122 1_545 S
Co1 O9 2.073 . S
Co1 O10 2.327 . S
Co1 O11 1.976 . S
Co2 O3 2.092 1_545 S
Co2 O5 2.082 1_454 S
Co2 O12 2.128 . S
Co2 O13 2.142 1_554 S
Co2 O17 2.094 1_444 S
Co2 O31 2.145 1_445 S
O3 Co0 2.042 . S
O3 Co1 2.122 1_565 S
O3 Co2 2.092 1_565 S
O3 H4 0.980 . S
H4 O3 0.980 . S
O5 Co2 2.082 1_656 S
O5 Co6 2.048 . S
O5 Co7 2.122 1_545 S
O5 H8 0.980 . S
Co6 O5 2.048 . S
Co6 O14 2.287 1_655 S
Co6 O15 2.086 . S
Co6 O16 1.994 1_655 S
Co6 O19 2.276 1_545 S
Co7 O5 2.122 1_565 S
Co7 O18 1.976 . S
Co7 O19 2.335 . S
Co7 O20 2.073 . S
H8 O5 0.980 . S
O9 Co1 2.073 . S
O9 C24 1.245 1_545 S
O10 Co0 2.264 1_545 S
O10 Co1 2.327 . S
O10 C24 1.257 1_545 S
O11 Co1 1.976 . S
O11 C23 1.251 . S
O12 Co2 2.128 . S
O12 C23 1.274 . S
O13 Co2 2.142 1_556 S
O13 C26 1.246 . S
O14 Co6 2.287 1_455 S
O14 C25 1.259 1_455 S
O15 Co6 2.086 . S
O15 C25 1.289 . S
O16 Co6 1.994 1_455 S
O16 C26 1.257 . S
O17 Co2 2.094 1_666 S
O17 C27 1.274 . S
O18 Co7 1.976 . S
O18 C27 1.251 . S
O19 Co6 2.276 1_565 S
O19 Co7 2.335 . S
O19 C28 1.251 1_565 S
O20 Co7 2.073 . S
O20 C28 1.245 1_565 S
C21 O29 1.259 1_455 S
C21 O30 1.289 . S
C22 O31 1.246 . S
C22 O32 1.257 . S
C23 O11 1.251 . S
C23 O12 1.274 . S
C24 O9 1.245 1_565 S
C24 O10 1.257 1_565 S
C25 O14 1.259 1_655 S
C25 O15 1.289 . S
C26 O13 1.246 . S
C26 O16 1.257 . S
C27 O17 1.274 . S
C27 O18 1.251 . S
C28 O19 1.251 1_545 S
C28 O20 1.245 1_545 S
O29 Co0 2.286 1_655 S
O29 C21 1.259 1_655 S
O30 Co0 2.069 . S
O30 C21 1.289 . S
O31 Co2 2.145 1_665 S
O31 C22 1.246 . S
O32 Co0 2.015 1_655 S
O32 C22 1.257 . S
C33 O35 1.258 . S
C33 O37 1.250 1_455 S
C34 O41 1.245 1_455 S
C34 O42 1.259 . S
O35 C33 1.258 . S
O35 Zn36 2.028 . S
Zn36 O35 2.028 . S
Zn36 O40 2.035 . S
Zn36 O42 2.035 . S
Zn36 O43 2.028 . S
O37 C33 1.250 1_655 S
O37 Zn38 2.035 . S
Zn38 O37 2.035 . S
Zn38 O39 2.028 . S
Zn38 O41 2.028 . S
Zn38 O44 2.035 . S
O39 Zn38 2.028 . S
O39 C45 1.245 1_655 S
O40 Zn36 2.035 . S
O40 C45 1.259 . S
O41 C34 1.245 1_655 S
O41 Zn38 2.028 . S
O42 C34 1.259 . S
O42 Zn36 2.035 . S
O43 Zn36 2.028 . S
O43 C46 1.259 . S
O44 Zn38 2.035 . S
O44 C46 1.250 1_655 S
C45 O39 1.245 1_455 S
C45 O40 1.259 . S
C46 O43 1.259 . S
C46 O44 1.250 1_455 S
C47 O49 1.240 1_545 S
C47 O51 1.269 . S
C48 O55 1.260 . S
C48 O56 1.236 1_545 S
O49 C47 1.240 1_565 S
O49 Zn50 2.028 . S
Zn50 O49 2.028 . S
Zn50 O54 2.035 . S
Zn50 O56 2.035 . S
Zn50 O57 2.028 . S
O51 C47 1.269 . S
O51 Zn52 2.035 . S
Zn52 O51 2.035 . S
Zn52 O53 2.028 . S
Zn52 O55 2.028 . S
Zn52 O58 2.035 . S
O53 Zn52 2.028 . S
O53 C59 1.262 . S
O54 Zn50 2.035 . S
O54 C59 1.238 1_565 S
O55 C48 1.260 . S
O55 Zn52 2.028 . S
O56 C48 1.236 1_565 S
O56 Zn50 2.035 . S
O57 Zn50 2.028 . S
O57 C60 1.239 1_565 S
O58 Zn52 2.035 . S
O58 C60 1.268 . S
C59 O53 1.262 . S
C59 O54 1.238 1_545 S
C60 O57 1.239 1_545 S
C60 O58 1.268 . S
C61 C62 1.386 1_655 S
C61 C63 1.383 . S
C61 H77 0.951 . S
C62 C61 1.386 1_455 S
C62 C66 1.383 . S
C63 C61 1.383 . S
C63 C64 1.402 1_655 S
C63 H78 0.951 . S
C64 C63 1.402 1_455 S
C64 C65 1.375 . S
C64 C67 1.481 . S
C65 C64 1.375 . S
C65 C66 1.367 . S
C65 H79 0.951 . S
C66 C62 1.383 . S
C66 C65 1.367 . S
C66 H80 0.950 . S
C67 C64 1.481 . S
C67 C68 1.297 1_455 S
C67 H81 0.950 . S
C68 C67 1.297 1_655 S
C68 C69 1.479 . S
C68 H82 0.950 . S
C69 C68 1.479 . S
C69 C70 1.375 . S
C69 C75 1.404 1_655 S
C70 C69 1.375 . S
C70 C71 1.369 . S
C70 H83 0.950 . S
C71 C70 1.369 . S
C71 C72 1.392 . S
C71 H84 0.951 . S
C72 C71 1.392 . S
C72 C74 1.384 1_655 S
H73 C75 0.949 . S
C74 C72 1.384 1_455 S
C74 C75 1.385 . S
C74 H76 0.950 . S
C75 C69 1.404 1_455 S
C75 H73 0.949 . S
C75 C74 1.385 . S
H76 C74 0.950 . S
H77 C61 0.951 . S
H78 C63 0.951 . S
H79 C65 0.951 . S
H80 C66 0.950 . S
H81 C67 0.950 . S
H82 C68 0.950 . S
H83 C70 0.950 . S
H84 C71 0.951 . S
C85 C86 1.386 . S
C85 C87 1.383 . S
C85 H101 0.951 . S
C86 C85 1.386 . S
C86 C90 1.383 1_565 S
C87 C85 1.383 . S
C87 C88 1.402 . S
C87 H102 0.951 . S
C88 C87 1.402 . S
C88 C89 1.375 1_565 S
C88 C91 1.481 . S
C89 C88 1.375 1_545 S
C89 C90 1.367 . S
C89 H103 0.951 . S
C90 C86 1.383 1_545 S
C90 C89 1.367 . S
C90 H104 0.950 . S
C91 C88 1.481 . S
C91 C92 1.297 . S
C91 H105 0.950 1_565 S
C92 C91 1.297 . S
C92 C93 1.479 . S
C92 H106 0.950 . S
C93 C92 1.479 . S
C93 C94 1.375 . S
C93 C99 1.404 . S
C94 C93 1.375 . S
C94 C95 1.369 . S
C94 H107 0.950 . S
C95 C94 1.369 . S
C95 C96 1.392 . S
C95 H108 0.951 . S
C96 C95 1.392 . S
C96 C98 1.384 . S
H97 C99 0.949 . S
C98 C96 1.384 . S
C98 C99 1.385 . S
C98 H100 0.950 1_565 S
C99 C93 1.404 . S
C99 H97 0.949 . S
C99 C98 1.385 . S
H100 C98 0.950 1_545 S
H101 C85 0.951 . S
H102 C87 0.951 . S
H103 C89 0.951 . S
H104 C90 0.950 . S
H105 C91 0.950 1_545 S
H106 C92 0.950 . S
H107 C94 0.950 . S
H108 C95 0.951 . S
C109 C110 1.386 1_655 S
C109 C111 1.383 . S
C109 H125 0.951 . S
C110 C109 1.386 1_455 S
C110 C114 1.383 . S
C111 C109 1.383 . S
C111 C112 1.402 1_655 S
C111 H126 0.951 . S
C112 C111 1.402 1_455 S
C112 C113 1.375 . S
C112 C115 1.481 . S
C113 C112 1.375 . S
C113 C114 1.367 . S
C113 H127 0.951 . S
C114 C110 1.383 . S
C114 C113 1.367 . S
C114 H128 0.950 . S
C115 C112 1.481 . S
C115 C116 1.297 . S
C115 H129 0.950 . S
C116 C115 1.297 . S
C116 C117 1.479 . S
C116 H130 0.950 1_455 S
C117 C116 1.479 . S
C117 C118 1.375 1_455 S
C117 C123 1.404 . S
C118 C117 1.375 1_655 S
C118 C119 1.369 . S
C118 H131 0.950 . S
C119 C118 1.369 . S
C119 C120 1.392 1_655 S
C119 H132 0.951 . S
C120 C119 1.392 1_455 S
C120 C122 1.384 . S
H121 C123 0.949 . S
C122 C120 1.384 . S
C122 C123 1.385 . S
C122 H124 0.950 . S
C123 C117 1.404 . S
C123 H121 0.949 . S
C123 C122 1.385 . S
H124 C122 0.950 . S
H125 C109 0.951 . S
H126 C111 0.951 . S
H127 C113 0.951 . S
H128 C114 0.950 . S
H129 C115 0.950 . S
H130 C116 0.950 1_655 S
H131 C118 0.950 . S
H132 C119 0.951 . S
C133 C134 1.386 . S
C133 C135 1.383 . S
C133 H149 0.951 . S
C134 C133 1.386 . S
C134 C138 1.383 1_565 S
C135 C133 1.383 . S
C135 C136 1.402 1_565 S
C135 H150 0.951 . S
C136 C135 1.402 1_545 S
C136 C137 1.375 . S
C136 C139 1.481 . S
C137 C136 1.375 . S
C137 C138 1.367 . S
C137 H151 0.951 . S
C138 C134 1.383 1_545 S
C138 C137 1.367 . S
C138 H152 0.950 . S
C139 C136 1.481 . S
C139 C140 1.297 1_545 S
C139 H153 0.950 . S
C140 C139 1.297 1_565 S
C140 C141 1.479 . S
C140 H154 0.950 . S
C141 C140 1.479 . S
C141 C142 1.375 . S
C141 C147 1.404 1_565 S
C142 C141 1.375 . S
C142 C143 1.369 . S
C142 H155 0.950 . S
C143 C142 1.369 . S
C143 C144 1.392 1_565 S
C143 H156 0.951 . S
C144 C143 1.392 1_545 S
C144 C146 1.385 . S
H145 C147 0.949 . S
C146 C144 1.385 . S
C146 C147 1.385 . S
C146 H148 0.950 . S
C147 C141 1.404 1_545 S
C147 H145 0.949 . S
C147 C146 1.385 . S
H148 C146 0.950 . S
H149 C133 0.951 . S
H150 C135 0.951 . S
H151 C137 0.951 . S
H152 C138 0.950 . S
H153 C139 0.950 . S
H154 C140 0.950 . S
H155 C142 0.950 . S
H156 C143 0.951 . S
C157 C158 1.386 . S
C157 C159 1.383 . S
C157 H173 0.951 . S
C158 C157 1.386 . S
C158 C162 1.383 1_655 S
C159 C157 1.383 . S
C159 C160 1.402 1_655 S
C159 H174 0.951 . S
C160 C159 1.402 1_455 S
C160 C161 1.375 . S
C160 C163 1.481 . S
C161 C160 1.375 . S
C161 C162 1.367 . S
C161 H175 0.951 . S
C162 C158 1.383 1_455 S
C162 C161 1.367 . S
C162 H176 0.950 . S
C163 C160 1.481 . S
C163 C164 1.297 1_455 S
C163 H177 0.950 . S
C164 C163 1.297 1_655 S
C164 C165 1.479 . S
C164 H178 0.950 . S
C165 C164 1.479 . S
C165 C166 1.375 . S
C165 C171 1.404 1_655 S
C166 C165 1.375 . S
C166 C167 1.369 . S
C166 H179 0.950 . S
C167 C166 1.369 . S
C167 C168 1.392 . S
C167 H180 0.951 . S
C168 C167 1.392 . S
C168 C170 1.384 1_655 S
H169 C171 0.949 . S
C170 C168 1.384 1_455 S
C170 C171 1.385 . S
C170 H172 0.950 . S
C171 C165 1.404 1_455 S
C171 H169 0.949 . S
C171 C170 1.385 . S
H172 C170 0.950 . S
H173 C157 0.951 . S
H174 C159 0.951 . S
H175 C161 0.951 . S
H176 C162 0.950 . S
H177 C163 0.950 . S
H178 C164 0.950 . S
H179 C166 0.950 . S
H180 C167 0.951 . S
C181 C182 1.386 1_565 S
C181 C183 1.383 . S
C181 H197 0.951 . S
C182 C181 1.386 1_545 S
C182 C186 1.383 . S
C183 C181 1.383 . S
C183 C184 1.402 1_565 S
C183 H198 0.951 . S
C184 C183 1.402 1_545 S
C184 C185 1.375 . S
C184 C187 1.481 . S
C185 C184 1.375 . S
C185 C186 1.367 . S
C185 H199 0.951 . S
C186 C182 1.383 . S
C186 C185 1.367 . S
C186 H200 0.950 . S
C187 C184 1.481 . S
C187 C188 1.297 . S
C187 H201 0.950 . S
C188 C187 1.297 . S
C188 C189 1.479 . S
C188 H202 0.950 1_545 S
C189 C188 1.479 . S
C189 C190 1.375 1_545 S
C189 C195 1.404 . S
C190 C189 1.375 1_565 S
C190 C191 1.369 . S
C190 H203 0.950 . S
C191 C190 1.369 . S
C191 C192 1.392 1_565 S
C191 H204 0.951 . S
C192 C191 1.392 1_545 S
C192 C194 1.384 . S
H193 C195 0.949 . S
C194 C192 1.384 . S
C194 C195 1.385 . S
C194 H196 0.950 . S
C195 C189 1.404 . S
C195 H193 0.949 . S
C195 C194 1.385 . S
H196 C194 0.950 . S
H197 C181 0.951 . S
H198 C183 0.951 . S
H199 C185 0.951 . S
H200 C186 0.950 . S
H201 C187 0.950 . S
H202 C188 0.950 1_565 S
H203 C190 0.950 . S
H204 C191 0.951 . S
C205 C206 1.386 1_455 S
C205 C207 1.383 . S
C205 H221 0.951 . S
C206 C205 1.386 1_655 S
C206 C210 1.383 . S
C207 C205 1.383 . S
C207 C208 1.402 1_455 S
C207 H222 0.951 . S
C208 C207 1.402 1_655 S
C208 C209 1.375 . S
C208 C211 1.481 . S
C209 C208 1.375 . S
C209 C210 1.367 . S
C209 H223 0.951 . S
C210 C206 1.383 . S
C210 C209 1.367 . S
C210 H224 0.950 . S
C211 C208 1.481 . S
C211 C212 1.297 1_655 S
C211 H225 0.950 . S
C212 C211 1.297 1_455 S
C212 C213 1.479 . S
C212 H226 0.950 . S
C213 C212 1.479 . S
C213 C214 1.375 . S
C213 C219 1.404 1_455 S
C214 C213 1.375 . S
C214 C215 1.369 . S
C214 H227 0.950 . S
C215 C214 1.369 . S
C215 C216 1.392 . S
C215 H228 0.951 . S
C216 C215 1.392 . S
C216 C218 1.384 1_455 S
H217 C219 0.949 . S
C218 C216 1.384 1_655 S
C218 C219 1.385 . S
C218 H220 0.950 . S
C219 C213 1.404 1_655 S
C219 H217 0.949 . S
C219 C218 1.385 . S
H220 C218 0.950 . S
H221 C205 0.951 . S
H222 C207 0.951 . S
H223 C209 0.951 . S
H224 C210 0.950 . S
H225 C211 0.950 . S
H226 C212 0.950 . S
H227 C214 0.950 . S
H228 C215 0.951 . S
C229 C230 1.386 1_565 S
C229 C231 1.383 . S
C229 H245 0.951 . S
C230 C229 1.386 1_545 S
C230 C234 1.383 . S
C231 C229 1.383 . S
C231 C232 1.402 1_565 S
C231 H246 0.951 . S
C232 C231 1.402 1_545 S
C232 C233 1.375 . S
C232 C235 1.481 . S
C233 C232 1.375 . S
C233 C234 1.367 . S
C233 H247 0.951 . S
C234 C230 1.383 . S
C234 C233 1.367 . S
C234 H248 0.950 . S
C235 C232 1.481 . S
C235 C236 1.297 1_545 S
C235 H249 0.950 . S
C236 C235 1.297 1_565 S
C236 C237 1.479 . S
C236 H250 0.950 . S
C237 C236 1.479 . S
C237 C238 1.375 . S
C237 C243 1.404 1_565 S
C238 C237 1.375 . S
C238 C239 1.369 . S
C238 H251 0.950 . S
C239 C238 1.369 . S
C239 C240 1.382 1_565 S
C239 H252 0.951 . S
C240 C239 1.382 1_545 S
C240 C242 1.390 . S
H241 C243 0.949 . S
C242 C240 1.390 . S
C242 C243 1.385 . S
C242 H244 0.950 . S
C243 C237 1.404 1_545 S
C243 H241 0.949 . S
C243 C242 1.385 . S
H244 C242 0.950 . S
H245 C229 0.951 . S
H246 C231 0.951 . S
H247 C233 0.951 . S
H248 C234 0.950 . S
H249 C235 0.950 . S
H250 C236 0.950 . S
H251 C238 0.950 . S
H252 C239 0.951 . S
C62 C23 1.254 . S
C72 C34 1.373 1_655 S
C86 C22 1.380 . S
C96 C60 1.445 1_565 S
C110 C21 1.764 . S
C120 C46 1.749 . S
C134 C24 1.447 . S
C144 C48 1.527 . S
C158 C27 1.288 . S
C168 C33 1.367 1_655 S
C182 C26 1.401 . S
C192 C59 1.464 . S
C216 C45 1.767 . S
C206 C25 1.746 . S
C230 C28 1.494 . S
C240 C47 1.518 . S
