# Generated by pormake.
# Topology pts, (4,4)-cn, num edge types: 1
# Building blocks:
#     Node 0, Type 0, BuildingBlock: MUDLON_clean_sbu_0, # of connection points: 4
#     Node 1, Type 0, BuildingBlock: MUDLON_clean_sbu_0, # of connection points: 4
#     Node 2, Type 1, BuildingBlock: QUQFOY_clean_sbu_1, # of connection points: 4
#     Node 3, Type 1, BuildingBlock: QUQFOY_clean_sbu_1, # of connection points: 4
#     Edge 4, Type (0, 1), BuildingBlock: OJICUG_clean_linker_0, # of connection points: 2
#     Edge 5, Type (0, 1), BuildingBlock: OJICUG_clean_linker_0, # of connection points: 2
#     Edge 6, Type (0, 1), BuildingBlock: OJICUG_clean_linker_0, # of connection points: 2
#     Edge 7, Type (0, 1), BuildingBlock: OJICUG_clean_linker_0, # of connection points: 2
#     Edge 8, Type (0, 1), BuildingBlock: OJICUG_clean_linker_0, # of connection points: 2
#     Edge 9, Type (0, 1), BuildingBlock: OJICUG_clean_linker_0, # of connection points: 2
#     Edge 10, Type (0, 1), BuildingBlock: OJICUG_clean_linker_0, # of connection points: 2
#     Edge 11, Type (0, 1), BuildingBlock: OJICUG_clean_linker_0, # of connection points: 2
# Relax obj value: 0.129
# Max RMSD: 0.243
# Mean RMSD: 0.142
data_MOF--net-pts--node1-MUDLON_clean_sbu_0--node2-QUQFOY_clean_sbu_1--edge1-OJICUG_clean_linker_0
_symmetry_space_group_name_H-M    P1
_symmetry_Int_Tables_number       1
_symmetry_cell_setting            triclinic
loop_
_symmetry_equiv_pos_as_xyz
'x, y, z'
_cell_length_a     17.71169
_cell_length_b     16.591459
_cell_length_c     28.835151
_cell_angle_alpha  91.633822
_cell_angle_beta   90.699134
_cell_angle_gamma 90.149362
loop_
_atom_site_label
_atom_site_type_symbol
_atom_site_fract_x
_atom_site_fract_y
_atom_site_fract_z
_atom_type_partial_charge
Mg0 Mg 0.43329 0.06338 0.05404 0.0
C1 C 0.28526 0.98634 1.02137 0.0
O2 O 0.26532 0.99935 0.06465 0.0
C3 C 0.57751 0.98541 0.0891 0.0
O4 O 0.59655 0.98764 0.04528 0.0
C5 C 0.3605 0.11953 0.14161 0.0
O6 O 0.41927 0.08125 0.15808 0.0
O7 O 0.35813 0.13418 0.09851 0.0
O8 O 0.354 0.99502 1.01042 0.0
O9 O 0.50883 0.12225 1.00606 0.0
C10 C 0.51328 0.08779 0.96611 0.0
O11 O 0.4646 1.03059 0.95484 0.0
O12 O 0.51003 1.00179 0.10041 0.0
Mg13 Mg -0.03754 0.55776 0.55428 0.0
C14 C 0.00898 0.72246 0.59364 0.0
O15 O -0.02701 0.74729 0.55668 0.0
C16 C -0.00833 0.39253 0.51153 0.0
O17 O -0.05105 0.37115 0.54597 0.0
C18 C -0.0521 0.63859 0.46809 0.0
O19 O 0.0143 0.60368 0.46874 0.0
O20 O 0.904 0.62907 0.50226 0.0
O21 O 0.0249 0.6479 0.59638 0.0
O22 O 0.90646 0.48927 0.60779 0.0
C23 C -0.04731 0.47719 0.64113 0.0
O24 O 0.02044 0.50915 0.63964 0.0
O25 O 0.01643 0.46467 0.51089 0.0
O26 O 0.87639 0.97562 0.22274 0.0
Cd27 Cd -0.0397 0.97743 0.27307 0.0
Cd28 Cd 0.93048 0.13071 0.27311 0.0
O29 O 0.82872 0.09376 0.24301 0.0
O30 O -0.027 0.86211 0.28868 0.0
O31 O 0.92991 0.95385 0.33865 0.0
C32 C -0.05336 0.87952 0.32921 0.0
C33 C 0.9448 0.20211 0.34318 0.0
C34 C 0.82396 1.02736 0.21991 0.0
C35 C 0.07685 0.08514 0.23461 0.0
O36 O 0.02359 0.13568 0.23124 0.0
O37 O 0.06643 1.02 0.25592 0.0
O38 O 0.92525 0.23799 0.30572 0.0
O39 O -0.04855 0.12451 0.34137 0.0
O40 O 0.84518 0.13514 0.87526 0.0
Cd41 Cd 0.94369 0.14077 0.83809 0.0
Cd42 Cd 0.91827 0.9869 0.82602 0.0
O43 O 0.80921 1.0187 0.84359 0.0
O44 O -0.0426 0.25669 0.82397 0.0
O45 O 0.93142 0.16261 0.77012 0.0
C46 C 0.94251 0.23778 0.78111 0.0
C47 C -0.05091 0.91525 0.75818 0.0
C48 C 0.79467 0.08158 0.86817 0.0
C49 C 0.04672 1.03117 0.88746 0.0
O50 O -0.00422 0.97862 0.8794 0.0
O51 O 0.04266 0.09961 0.86877 0.0
O52 O 0.92056 0.87962 0.79315 0.0
O53 O -0.04306 0.99271 0.76091 0.0
C54 C 0.28547 0.07679 0.20937 0.0
C55 C 0.29039 0.12239 0.16909 0.0
H56 H 0.21398 1.02807 0.26097 0.0
C57 C 0.22519 0.16087 0.15256 0.0
H58 H 0.33442 1.0461 0.22311 0.0
C59 C 0.15605 0.15124 0.17487 0.0
C60 C 0.15065 0.10157 0.21343 0.0
H61 H 0.22706 0.19616 0.12157 0.0
H62 H 0.10626 0.17989 0.16076 0.0
C63 C 0.21627 0.06573 0.23093 0.0
C64 C -0.03103 0.43652 0.72254 0.0
C65 C 0.93722 0.42068 0.67837 0.0
H66 H -0.00495 0.39155 0.78954 0.0
C67 C 0.90294 0.34556 0.66876 0.0
H68 H -0.0038 0.49388 0.73065 0.0
C69 C 0.90407 0.28578 0.70222 0.0
C70 C 0.93825 0.30095 0.74596 0.0
H71 H 0.87914 0.33154 0.63469 0.0
H72 H 0.87931 0.22741 0.69362 0.0
C73 C -0.03121 0.37769 0.75612 0.0
C74 C 0.62767 1.03219 0.16668 0.0
C75 C 0.6373 0.98637 0.12535 0.0
H76 H 0.67976 0.08273 0.22847 0.0
C77 C 0.70765 0.95062 0.11669 0.0
H78 H 0.57441 0.06143 0.1741 0.0
C79 C 0.76759 0.96176 0.1483 0.0
C80 C 0.7589 1.01085 0.18846 0.0
H81 H 0.71677 0.91552 0.085 0.0
H82 H 0.82161 0.9345 0.1404 0.0
C83 C 0.68816 1.0452 0.19761 0.0
C84 C -0.0031 0.85782 0.6337 0.0
C85 C 0.00788 0.77411 0.6364 0.0
H86 H -0.02973 0.96846 0.67021 0.0
C87 C 0.00516 0.73872 0.68008 0.0
H88 H -0.00161 0.88676 0.60051 0.0
C89 C -0.01292 0.78502 0.71962 0.0
C90 C -0.02716 0.868 0.71659 0.0
H91 H 0.01268 0.67437 0.68344 0.0
H92 H -0.01712 0.75541 0.7525 0.0
C93 C -0.01967 0.90449 0.67351 0.0
C94 C 0.24049 1.0296 0.94367 0.0
C95 C 0.22689 0.9873 0.98438 0.0
H96 H 0.19334 0.07853 0.8817 0.0
C97 C 0.15452 0.95584 0.99167 0.0
H98 H 0.29547 1.05561 0.9374 0.0
C99 C 0.09652 0.96751 0.95915 0.0
C100 C 0.10937 1.01331 0.9197 0.0
H101 H 0.14246 0.92369 1.02293 0.0
H102 H 0.04084 0.94362 0.96582 0.0
C103 C 0.18197 1.04355 0.91201 0.0
C104 C -0.00444 0.37701 0.42507 0.0
C105 C -0.00857 0.3414 0.46862 0.0
H106 H -0.01784 0.36123 0.35148 0.0
C107 C -0.02462 0.25849 0.47047 0.0
H108 H 0.00685 0.4409 0.42241 0.0
C109 C -0.0383 0.21262 0.4297 0.0
C110 C -0.03793 0.24924 0.38637 0.0
H111 H -0.02862 0.22952 0.50356 0.0
H112 H -0.05152 0.14913 0.43222 0.0
C113 C -0.01971 0.33158 0.38444 0.0
C114 C 0.64125 0.14752 0.95161 0.0
C115 C 0.58119 0.09689 0.93724 0.0
H116 H 0.75605 0.18272 0.94078 0.0
C117 C 0.59007 1.04667 0.89751 0.0
H118 H 0.63628 0.18679 0.98207 0.0
C119 C 0.65879 1.04326 0.87445 0.0
C120 C 0.72 0.0909 0.89008 0.0
H121 H 0.54492 1.00709 0.88524 0.0
H122 H 0.66441 1.00191 0.84494 0.0
C123 C 0.70992 0.1449 0.92804 0.0
C124 C 0.90097 0.77174 0.44033 0.0
C125 C 0.93231 0.69546 0.43084 0.0
H126 H 0.88205 0.89111 0.41565 0.0
C127 C -0.0379 0.67856 0.38677 0.0
H128 H 0.8786 0.78652 0.47431 0.0
C129 C -0.03583 0.7377 0.35348 0.0
C130 C 0.93738 0.81572 0.36364 0.0
H131 H -0.01322 0.6202 0.37866 0.0
H132 H -0.01046 0.72289 0.32033 0.0
C133 C 0.90389 0.83173 0.40699 0.0
loop_
_geom_bond_atom_site_label_1
_geom_bond_atom_site_label_2
_geom_bond_distance
_geom_bond_site_symmetry_2
_ccdc_geom_bond_type
Mg0 O7 2.141 . S
Mg0 O8 2.048 1_554 S
Mg0 O9 2.048 1_554 S
Mg0 O12 2.141 . S
C1 O2 1.313 . S
C1 O8 1.195 1_565 S
O2 C1 1.313 . S
C3 O4 1.245 . S
C3 O12 1.289 1_565 S
O4 C3 1.245 . S
C5 O6 1.245 . S
C5 O7 1.289 1_565 S
O6 C5 1.245 . S
O7 Mg0 2.141 . S
O7 C5 1.289 1_545 S
O8 Mg0 2.048 1_556 S
O8 C1 1.195 1_545 S
O9 Mg0 2.048 1_556 S
O9 C10 1.195 1_545 S
C10 O9 1.195 1_565 S
C10 O11 1.313 . S
O11 C10 1.313 . S
O12 Mg0 2.141 . S
O12 C3 1.289 1_545 S
Mg13 O20 2.141 . S
Mg13 O21 2.048 . S
Mg13 O22 2.048 . S
Mg13 O25 2.141 . S
C14 O15 1.313 . S
C14 O21 1.195 1_455 S
O15 C14 1.313 . S
C16 O17 1.245 . S
C16 O25 1.289 1_455 S
O17 C16 1.245 . S
C18 O19 1.245 . S
C18 O20 1.289 1_455 S
O19 C18 1.245 . S
O20 Mg13 2.141 . S
O20 C18 1.289 1_655 S
O21 Mg13 2.048 . S
O21 C14 1.195 1_655 S
O22 Mg13 2.048 . S
O22 C23 1.195 1_655 S
C23 O22 1.195 1_455 S
C23 O24 1.313 . S
O24 C23 1.313 . S
O25 Mg13 2.141 . S
O25 C16 1.289 1_655 S
O26 Cd27 2.223 1_655 S
O26 C34 1.315 . S
Cd27 O26 2.223 1_455 S
Cd27 O30 2.297 1_455 S
Cd27 O31 2.439 1_455 S
Cd27 O37 2.240 1_565 S
Cd28 O29 2.240 1_545 S
Cd28 O36 2.223 1_655 S
Cd28 O38 2.297 1_655 S
Cd28 O39 2.439 1_655 S
O29 Cd28 2.240 1_565 S
O29 C34 1.279 . S
O30 Cd27 2.297 1_655 S
O30 C32 1.247 . S
O31 Cd27 2.439 1_655 S
O31 C32 1.208 . S
C32 O30 1.247 . S
C32 O31 1.208 . S
C33 O38 1.247 . S
C33 O39 1.208 . S
C34 O26 1.315 . S
C34 O29 1.279 . S
C35 O36 1.315 . S
C35 O37 1.279 . S
O36 Cd28 2.223 1_455 S
O36 C35 1.315 . S
O37 Cd27 2.240 1_545 S
O37 C35 1.279 . S
O38 Cd28 2.297 1_455 S
O38 C33 1.247 . S
O39 Cd28 2.439 1_455 S
O39 C33 1.208 . S
O40 Cd41 2.223 1_655 S
O40 C48 1.315 . S
Cd41 O40 2.223 1_455 S
Cd41 O44 2.297 1_455 S
Cd41 O45 2.439 1_455 S
Cd41 O51 2.240 1_545 S
Cd42 O43 2.240 1_565 S
Cd42 O50 2.223 1_655 S
Cd42 O52 2.297 1_655 S
Cd42 O53 2.439 1_655 S
O43 Cd42 2.240 1_545 S
O43 C48 1.279 . S
O44 Cd41 2.297 1_655 S
O44 C46 1.247 . S
O45 Cd41 2.439 1_655 S
O45 C46 1.208 . S
C46 O44 1.247 . S
C46 O45 1.208 . S
C47 O52 1.247 . S
C47 O53 1.208 . S
C48 O40 1.315 . S
C48 O43 1.279 . S
C49 O50 1.315 . S
C49 O51 1.279 . S
O50 Cd42 2.223 1_455 S
O50 C49 1.315 . S
O51 Cd41 2.240 1_565 S
O51 C49 1.279 . S
O52 Cd42 2.297 1_455 S
O52 C47 1.247 . S
O53 Cd42 2.439 1_455 S
O53 C47 1.208 . S
C54 C55 1.387 1_565 S
C54 H58 0.950 . S
C54 C63 1.390 . S
C55 C54 1.387 1_545 S
C55 C57 1.387 . S
H56 C63 0.950 . S
C57 C55 1.387 . S
C57 C59 1.390 . S
C57 H61 0.950 . S
H58 C54 0.950 . S
C59 C57 1.390 . S
C59 C60 1.387 . S
C59 H62 0.950 . S
C60 C59 1.387 . S
C60 C63 1.387 1_545 S
H61 C57 0.950 . S
H62 C59 0.950 . S
C63 C54 1.390 . S
C63 H56 0.950 . S
C63 C60 1.387 1_565 S
C64 C65 1.387 1_455 S
C64 H68 0.950 . S
C64 C73 1.390 . S
C65 C64 1.387 1_655 S
C65 C67 1.387 . S
H66 C73 0.950 . S
C67 C65 1.387 . S
C67 C69 1.390 . S
C67 H71 0.950 . S
H68 C64 0.950 . S
C69 C67 1.390 . S
C69 C70 1.387 . S
C69 H72 0.950 . S
C70 C69 1.387 . S
C70 C73 1.387 1_655 S
H71 C67 0.950 . S
H72 C69 0.950 . S
C73 C64 1.390 . S
C73 H66 0.950 . S
C73 C70 1.387 1_455 S
C74 C75 1.387 1_545 S
C74 H78 0.950 . S
C74 C83 1.390 . S
C75 C74 1.387 1_565 S
C75 C77 1.387 . S
H76 C83 0.950 . S
C77 C75 1.387 . S
C77 C79 1.390 . S
C77 H81 0.950 . S
H78 C74 0.950 . S
C79 C77 1.390 . S
C79 C80 1.387 . S
C79 H82 0.950 . S
C80 C79 1.387 . S
C80 C83 1.387 1_565 S
H81 C77 0.950 . S
H82 C79 0.950 . S
C83 C74 1.390 . S
C83 H76 0.950 . S
C83 C80 1.387 1_545 S
C84 C85 1.387 . S
C84 H88 0.950 . S
C84 C93 1.390 . S
C85 C84 1.387 . S
C85 C87 1.387 . S
H86 C93 0.950 . S
C87 C85 1.387 . S
C87 C89 1.390 . S
C87 H91 0.950 1_455 S
H88 C84 0.950 . S
C89 C87 1.390 . S
C89 C90 1.387 . S
C89 H92 0.950 . S
C90 C89 1.387 . S
C90 C93 1.387 . S
H91 C87 0.950 1_655 S
H92 C89 0.950 . S
C93 C84 1.390 . S
C93 H86 0.950 . S
C93 C90 1.387 . S
C94 C95 1.387 1_545 S
C94 H98 0.950 . S
C94 C103 1.390 . S
C95 C94 1.387 1_565 S
C95 C97 1.387 . S
H96 C103 0.950 . S
C97 C95 1.387 . S
C97 C99 1.390 . S
C97 H101 0.950 . S
H98 C94 0.950 . S
C99 C97 1.390 . S
C99 C100 1.387 . S
C99 H102 0.950 . S
C100 C99 1.387 . S
C100 C103 1.387 1_565 S
H101 C97 0.950 . S
H102 C99 0.950 . S
C103 C94 1.390 . S
C103 H96 0.950 . S
C103 C100 1.387 1_545 S
C104 C105 1.387 1_655 S
C104 H108 0.950 . S
C104 C113 1.390 . S
C105 C104 1.387 1_455 S
C105 C107 1.387 . S
H106 C113 0.950 . S
C107 C105 1.387 . S
C107 C109 1.390 . S
C107 H111 0.950 . S
H108 C104 0.950 . S
C109 C107 1.390 . S
C109 C110 1.387 . S
C109 H112 0.950 . S
C110 C109 1.387 . S
C110 C113 1.387 1_455 S
H111 C107 0.950 . S
H112 C109 0.950 . S
C113 C104 1.390 . S
C113 H106 0.950 . S
C113 C110 1.387 1_655 S
C114 C115 1.387 . S
C114 H118 0.950 . S
C114 C123 1.390 . S
C115 C114 1.387 . S
C115 C117 1.387 1_545 S
H116 C123 0.950 . S
C117 C115 1.387 1_565 S
C117 C119 1.390 . S
C117 H121 0.950 . S
H118 C114 0.950 . S
C119 C117 1.390 . S
C119 C120 1.387 1_565 S
C119 H122 0.950 . S
C120 C119 1.387 1_545 S
C120 C123 1.387 . S
H121 C117 0.950 . S
H122 C119 0.950 . S
C123 C114 1.390 . S
C123 H116 0.950 . S
C123 C120 1.387 . S
C124 C125 1.387 . S
C124 H128 0.950 . S
C124 C133 1.390 . S
C125 C124 1.387 . S
C125 C127 1.387 1_655 S
H126 C133 0.950 . S
C127 C125 1.387 1_455 S
C127 C129 1.390 1_455 S
C127 H131 0.950 . S
H128 C124 0.950 . S
C129 C127 1.390 1_655 S
C129 C130 1.387 . S
C129 H132 0.950 1_655 S
C130 C129 1.387 . S
C130 C133 1.387 . S
H131 C127 0.950 . S
H132 C129 0.950 1_455 S
C133 C124 1.390 . S
C133 H126 0.950 . S
C133 C130 1.387 . S
C60 C35 1.525 . S
C55 C5 1.523 1_545 S
C70 C46 1.536 . S
C65 C23 1.616 1_655 S
C80 C34 1.525 . S
C75 C3 1.495 . S
C90 C47 1.535 . S
C85 C14 1.588 . S
C100 C49 1.578 . S
C95 C1 1.555 . S
C110 C33 1.481 . S
C105 C16 1.517 . S
C120 C48 1.579 . S
C115 C10 1.581 1_545 S
C125 C18 1.556 1_655 S
C130 C32 1.481 . S
