# Generated by pormake.
# Topology alb, (6,12)-cn, num edge types: 1
# Building blocks:
#     Node 0, Type 0, BuildingBlock: IZENUY_clean_sbu_0, # of connection points: 6
#     Node 1, Type 0, BuildingBlock: IZENUY_clean_sbu_0, # of connection points: 6
#     Node 2, Type 1, BuildingBlock: QEWDON_clean_sbu_0, # of connection points: 12
#     Edge 3, Type (0, 1), BuildingBlock: AJUNOK_clean_linker_0, # of connection points: 2
#     Edge 4, Type (0, 1), BuildingBlock: AJUNOK_clean_linker_0, # of connection points: 2
#     Edge 5, Type (0, 1), BuildingBlock: AJUNOK_clean_linker_0, # of connection points: 2
#     Edge 6, Type (0, 1), BuildingBlock: AJUNOK_clean_linker_0, # of connection points: 2
#     Edge 7, Type (0, 1), BuildingBlock: AJUNOK_clean_linker_0, # of connection points: 2
#     Edge 8, Type (0, 1), BuildingBlock: AJUNOK_clean_linker_0, # of connection points: 2
#     Edge 9, Type (0, 1), BuildingBlock: AJUNOK_clean_linker_0, # of connection points: 2
#     Edge 10, Type (0, 1), BuildingBlock: AJUNOK_clean_linker_0, # of connection points: 2
#     Edge 11, Type (0, 1), BuildingBlock: AJUNOK_clean_linker_0, # of connection points: 2
#     Edge 12, Type (0, 1), BuildingBlock: AJUNOK_clean_linker_0, # of connection points: 2
#     Edge 13, Type (0, 1), BuildingBlock: AJUNOK_clean_linker_0, # of connection points: 2
#     Edge 14, Type (0, 1), BuildingBlock: AJUNOK_clean_linker_0, # of connection points: 2
# Relax obj value: 0.111
# Max RMSD: 0.218
# Mean RMSD: 0.114
data_MOF--net-alb--node1-IZENUY_clean_sbu_0--node2-QEWDON_clean_sbu_0--edge1-AJUNOK_clean_linker_0
_symmetry_space_group_name_H-M    P1
_symmetry_Int_Tables_number       1
_symmetry_cell_setting            triclinic
loop_
_symmetry_equiv_pos_as_xyz
'x, y, z'
_cell_length_a     19.194516
_cell_length_b     18.79737
_cell_length_c     15.533528
_cell_angle_alpha  90.893567
_cell_angle_beta   89.655029
_cell_angle_gamma 119.7194
loop_
_atom_site_label
_atom_site_type_symbol
_atom_site_fract_x
_atom_site_fract_y
_atom_site_fract_z
_atom_type_partial_charge
Fe0 Fe 0.36314 0.76446 0.12213 0.0
Fe1 Fe 0.37062 0.60496 0.12269 0.0
O2 O 0.31464 0.65646 0.13259 0.0
Fe3 Fe 0.21031 0.60122 0.1543 0.0
O4 O 0.18857 0.67074 0.092 0.0
O5 O 0.30245 0.75545 0.02879 0.0
O6 O 0.44179 0.77224 0.049 0.0
C7 C 0.44965 0.72097 0.00243 0.0
C8 C 0.25363 0.73602 0.25732 0.0
O9 O 0.40776 0.64541 0.01647 0.0
C10 C 0.2706 0.51874 0.25614 0.0
O11 O 0.42568 0.77903 0.21479 0.0
O12 O 0.45952 0.68714 0.17474 0.0
O13 O 0.22299 0.65903 0.2544 0.0
O14 O 0.29535 0.77877 0.19503 0.0
C15 C 0.22592 0.50143 0.03303 0.0
O16 O 0.34087 0.56092 0.2282 0.0
O17 O 0.2128 0.52125 0.2201 0.0
C18 C 0.46797 0.74533 0.22364 0.0
O19 O 0.28999 0.51398 0.06945 0.0
O20 O 0.19097 0.54049 0.05623 0.0
C21 C 0.22698 0.72188 0.03319 0.0
Fe22 Fe 0.67945 0.45979 0.04766 0.0
Fe23 Fe 0.6732 0.29407 0.06622 0.0
O24 O 0.72999 0.40189 0.05106 0.0
Fe25 Fe 0.83594 0.45256 0.03709 0.0
O26 O 0.85254 0.54426 0.09948 0.0
O27 O 0.73238 0.51883 0.14298 0.0
O28 O 0.5969 0.39203 0.11596 0.0
C29 C 0.58507 0.33713 0.16876 0.0
C30 C 0.79609 0.53585 0.9213 0.0
O31 O 0.62911 0.30478 0.16668 0.0
C32 C 0.7805 0.3048 0.93971 0.0
O33 O 0.62346 0.40359 0.95195 0.0
O34 O 0.58778 0.28152 0.00352 0.0
O35 O 0.83057 0.49499 0.93426 0.0
O36 O 0.75083 0.53957 0.97771 0.0
C37 C 0.81611 0.34047 0.16168 0.0
O38 O 0.70966 0.27235 0.96728 0.0
O39 O 0.83651 0.36952 0.97351 0.0
C40 C 0.58187 0.3262 0.9473 0.0
O41 O 0.74978 0.28775 0.12956 0.0
O42 O 0.85211 0.41372 0.13691 0.0
C43 C 0.80796 0.55735 0.15096 0.0
Zn44 Zn 0.11341 0.16209 0.37596 0.0
Zn45 Zn 0.13075 0.99819 0.39298 0.0
O46 O 0.06211 0.0489 0.42327 0.0
H47 H 0.01247 0.0261 0.45493 0.0
C48 C 0.22562 0.27991 0.51946 0.0
O49 O 0.28986 0.27856 0.54589 0.0
Zn50 Zn 0.92315 0.87265 0.80748 0.0
Zn51 Zn 0.92186 0.03886 0.80775 0.0
O52 O 0.99597 0.99237 0.8149 0.0
H53 H 0.04859 1.0186 0.84108 0.0
Zn54 Zn 0.15911 0.14359 0.63862 0.0
O55 O 0.10123 1.01883 0.62293 0.0
Zn56 Zn 0.1588 0.97089 0.68764 0.0
H57 H 0.06116 0.98804 0.57983 0.0
Zn58 Zn 0.87559 0.03439 0.54264 0.0
O59 O 0.92263 0.96538 0.5859 0.0
H60 H 0.94833 0.97853 0.64162 0.0
Zn61 Zn 0.88653 0.8642 0.50723 0.0
C62 C 0.82679 0.10072 0.68686 0.0
O63 O 0.78255 1.02142 0.69759 0.0
O64 O 0.2252 0.19698 0.32786 0.0
O65 O 0.23406 0.08331 0.33327 0.0
O66 O 0.80539 0.95255 0.8441 0.0
O67 O 0.81104 0.8378 0.8559 0.0
O68 O 0.26173 0.18275 0.70985 0.0
O69 O 0.26023 0.06614 0.74031 0.0
C70 C 0.99133 0.85113 0.35729 0.0
O71 O 0.77739 0.96149 0.4673 0.0
O72 O 0.78836 0.84937 0.44696 0.0
O73 O 0.97668 0.16304 0.84256 0.0
C74 C 0.26371 0.15881 0.31444 0.0
O75 O 0.04391 0.20485 0.31828 0.0
C76 C 0.05296 0.8486 0.84225 0.0
O77 O 0.15756 0.22589 0.54775 0.0
C78 C 0.77188 0.87645 0.86129 0.0
O79 O 0.87408 0.1259 0.62278 0.0
C80 C 0.18174 0.91292 0.52453 0.0
O81 O 0.06151 0.89268 0.32601 0.0
O82 O 0.97307 0.88247 0.42075 0.0
C83 C 0.29352 0.14444 0.74408 0.0
O84 O 0.98127 0.82425 0.86659 0.0
O85 O 0.0796 0.89684 0.77844 0.0
C86 C 0.8771 0.77039 0.65179 0.0
O87 O 0.18758 0.90336 0.60455 0.0
O88 O 0.16091 0.96486 0.50334 0.0
C89 C 0.75144 0.8894 0.43628 0.0
O90 O 0.8592 0.76042 0.57253 0.0
O91 O 0.90924 0.84204 0.68338 0.0
C92 C 0.05158 0.20511 0.82765 0.0
O93 O 0.08773 0.16972 0.78906 0.0
C94 C 0.97999 0.20024 0.34834 0.0
O95 O 0.95285 0.16559 0.42314 0.0
C96 C 0.23859 0.85338 0.31143 0.0
C97 C 0.23326 0.77736 0.32756 0.0
C98 C 0.22146 0.89571 0.37529 0.0
C99 C 0.198 0.86456 0.45844 0.0
H100 H 0.25606 0.88083 0.24851 0.0
H101 H 0.2281 0.95416 0.35935 0.0
S102 S 0.17468 0.66762 0.53501 0.0
N103 N 0.20321 0.67233 0.43371 0.0
N104 N 0.17022 0.75203 0.55391 0.0
C105 C 0.19261 0.78857 0.47607 0.0
C106 C 0.21015 0.74498 0.41063 0.0
C107 C 0.48213 0.22629 0.26325 0.0
C108 C 0.50588 0.29649 0.21321 0.0
C109 C 0.40344 0.18125 0.29522 0.0
C110 C 0.34567 0.2047 0.2782 0.0
H111 H 0.52401 0.20496 0.27645 0.0
H112 H 0.38787 0.12784 0.3337 0.0
S113 S 0.37466 0.38031 0.14637 0.0
N114 N 0.46314 0.3861 0.14751 0.0
N115 N 0.31623 0.29999 0.2049 0.0
C116 C 0.36838 0.2744 0.22826 0.0
C117 C 0.44818 0.32071 0.19669 0.0
C118 C 0.3157 0.43795 0.34313 0.0
C119 C 0.25645 0.45929 0.32597 0.0
C120 C 0.30453 0.38011 0.40526 0.0
C121 C 0.23404 0.34149 0.4547 0.0
H122 H 0.37146 0.46545 0.30754 0.0
H123 H 0.35168 0.36504 0.41375 0.0
S124 S 0.0676 0.3884 0.44893 0.0
N125 N 0.12857 0.44451 0.37144 0.0
N126 N 0.1085 0.33724 0.49056 0.0
C127 C 0.1757 0.36506 0.44172 0.0
C128 C 0.18671 0.42359 0.37707 0.0
C129 C 0.83671 0.27957 0.29513 0.0
C130 C 0.86099 0.31062 0.212 0.0
C131 C 0.87557 0.24416 0.33932 0.0
C132 C 0.93899 0.23742 0.30104 0.0
H133 H 0.78725 0.2823 0.32587 0.0
H134 H 0.85549 0.2217 0.40367 0.0
S135 S 0.01716 0.30109 0.08032 0.0
N136 N 0.9478 0.32798 0.091 0.0
N137 N 0.01993 0.26055 0.17251 0.0
C138 C 0.96229 0.26717 0.21712 0.0
C139 C 0.92345 0.30387 0.17296 0.0
C140 C 0.57535 0.86392 0.30455 0.0
C141 C 0.53524 0.77987 0.28433 0.0
C142 C 0.64484 0.89883 0.35496 0.0
C143 C 0.67607 0.85063 0.38686 0.0
H144 H 0.55464 0.90347 0.27884 0.0
H145 H 0.67526 0.96433 0.3671 0.0
S146 S 0.58583 0.62502 0.36114 0.0
N147 N 0.52638 0.64777 0.30618 0.0
N148 N 0.65687 0.71297 0.40119 0.0
C149 C 0.63408 0.76565 0.37018 0.0
C150 C 0.56357 0.73035 0.31887 0.0
C151 C 0.81853 0.68047 0.23099 0.0
C152 C 0.84664 0.6248 0.21591 0.0
C153 C 0.86258 0.75156 0.28248 0.0
C154 C 0.93571 0.76873 0.32072 0.0
H155 H 0.76468 0.67148 0.19905 0.0
H156 H 0.84178 0.7955 0.28813 0.0
S157 S 0.02627 0.63446 0.31464 0.0
N158 N 0.94578 0.58619 0.25324 0.0
N159 N 0.02802 0.71884 0.34948 0.0
C160 C 0.96053 0.71014 0.31174 0.0
C161 C 0.91614 0.63841 0.25944 0.0
C162 C 0.2039 0.77954 0.89733 0.0
C163 C 0.18531 0.75681 0.98412 0.0
C164 C 0.16268 0.81149 0.85112 0.0
C165 C 0.10221 0.82209 0.89077 0.0
H166 H 0.24925 0.77097 0.86459 0.0
H167 H 0.17676 0.82598 0.78379 0.0
S168 S 0.04259 0.78693 0.1204 0.0
N169 N 0.10957 0.75679 0.10997 0.0
N170 N 0.03338 0.817 0.02423 0.0
C171 C 0.08639 0.8034 0.97849 0.0
C172 C 0.12757 0.77072 0.02491 0.0
C173 C 0.46832 0.31976 0.86301 0.0
C174 C 0.51603 0.28531 0.88456 0.0
C175 C 0.39702 0.27416 0.81612 0.0
C176 C 0.37126 0.19273 0.78925 0.0
H177 H 0.484 0.38062 0.886 0.0
H178 H 0.36061 0.30214 0.80337 0.0
S179 S 0.4823 0.07991 0.81902 0.0
N180 N 0.53783 0.16898 0.86818 0.0
N181 N 0.40424 0.08338 0.78011 0.0
C182 C 0.4211 0.15957 0.80657 0.0
C183 C 0.49345 0.20593 0.85408 0.0
C184 C 0.21309 0.375 0.9622 0.0
C185 C 0.18655 0.43255 0.96995 0.0
C186 C 0.17095 0.30355 0.91224 0.0
C187 C 0.10019 0.28635 0.86883 0.0
H188 H 0.26506 0.38331 -0.00238 0.0
H189 H 0.19187 0.25953 0.91119 0.0
S190 S 0.01361 0.42335 0.85439 0.0
N191 N 0.0916 0.47286 0.91901 0.0
N192 N 0.01095 0.33669 0.82723 0.0
C193 C 0.0759 0.34552 0.87086 0.0
C194 C 0.11967 0.41926 0.92061 0.0
C195 C 0.78916 0.18214 0.8969 0.0
C196 C 0.79918 0.2586 0.87494 0.0
C197 C 0.80042 0.13326 0.83594 0.0
C198 C 0.82157 0.15816 0.75022 0.0
H199 H 0.77195 0.15965 0.9618 0.0
H200 H 0.79282 0.07557 0.85687 0.0
S201 S 0.85515 0.35447 0.66045 0.0
N202 N 0.83142 0.35822 0.76227 0.0
N203 N 0.85352 0.26621 0.64714 0.0
C204 C 0.83334 0.23565 0.72775 0.0
C205 C 0.82151 0.28566 0.79018 0.0
C206 C 0.57291 0.71598 0.95832 0.0
C207 C 0.52414 0.75213 0.95107 0.0
C208 C 0.65231 0.75563 0.92771 0.0
C209 C 0.68572 0.83249 0.8878 0.0
H210 H 0.55137 0.6591 0.99256 0.0
H211 H 0.68855 0.72707 0.93823 0.0
S212 S 0.57815 0.94698 0.84299 0.0
N213 N 0.51218 0.86533 0.89547 0.0
N214 N 0.65924 0.93812 0.83459 0.0
C215 C 0.63537 0.86645 0.87563 0.0
C216 C 0.55523 0.8267 0.90796 0.0
C217 C 0.88996 0.62397 0.80584 0.0
C218 C 0.81338 0.58644 0.84375 0.0
C219 C 0.90922 0.68055 0.73935 0.0
C220 C 0.85233 0.70044 0.70872 0.0
H221 H 0.9363 0.61278 0.83044 0.0
H222 H 0.96984 0.7115 0.7143 0.0
S223 S 0.64038 0.60938 0.77599 0.0
N224 N 0.67787 0.56612 0.83826 0.0
N225 N 0.71491 0.67263 0.71374 0.0
C226 C 0.77446 0.65948 0.74181 0.0
C227 C 0.75479 0.60241 0.80945 0.0
loop_
_geom_bond_atom_site_label_1
_geom_bond_atom_site_label_2
_geom_bond_distance
_geom_bond_site_symmetry_2
_ccdc_geom_bond_type
Fe0 O2 1.918 . S
Fe0 O5 1.997 . S
Fe0 O6 2.002 . S
Fe0 O11 1.976 . S
Fe0 O14 1.996 . S
Fe1 O2 1.918 . S
Fe1 O9 1.997 . S
Fe1 O12 1.996 . S
Fe1 O16 1.976 . S
Fe1 O19 2.002 . S
O2 Fe0 1.918 . S
O2 Fe1 1.918 . S
O2 Fe3 1.918 . S
Fe3 O2 1.918 . S
Fe3 O4 2.002 . S
Fe3 O13 1.976 . S
Fe3 O17 1.996 . S
Fe3 O20 1.997 . S
O4 Fe3 2.002 . S
O4 C21 1.295 . S
O5 Fe0 1.997 . S
O5 C21 1.235 . S
O6 Fe0 2.002 . S
O6 C7 1.295 . S
C7 O6 1.295 . S
C7 O9 1.235 . S
C8 O13 1.287 . S
C8 O14 1.255 . S
O9 Fe1 1.997 . S
O9 C7 1.235 . S
C10 O16 1.287 . S
C10 O17 1.255 . S
O11 Fe0 1.976 . S
O11 C18 1.287 . S
O12 Fe1 1.996 . S
O12 C18 1.255 . S
O13 Fe3 1.976 . S
O13 C8 1.287 . S
O14 Fe0 1.996 . S
O14 C8 1.255 . S
C15 O19 1.295 . S
C15 O20 1.235 . S
O16 Fe1 1.976 . S
O16 C10 1.287 . S
O17 Fe3 1.996 . S
O17 C10 1.255 . S
C18 O11 1.287 . S
C18 O12 1.255 . S
O19 Fe1 2.002 . S
O19 C15 1.295 . S
O20 Fe3 1.997 . S
O20 C15 1.235 . S
C21 O4 1.295 . S
C21 O5 1.235 . S
Fe22 O24 1.918 . S
Fe22 O27 1.997 . S
Fe22 O28 2.002 . S
Fe22 O33 1.976 1_554 S
Fe22 O36 1.996 1_554 S
Fe23 O24 1.918 . S
Fe23 O31 1.997 . S
Fe23 O34 1.996 1_554 S
Fe23 O38 1.976 1_554 S
Fe23 O41 2.002 . S
O24 Fe22 1.918 . S
O24 Fe23 1.918 . S
O24 Fe25 1.918 . S
Fe25 O24 1.918 . S
Fe25 O26 2.002 . S
Fe25 O35 1.976 1_554 S
Fe25 O39 1.996 1_554 S
Fe25 O42 1.997 . S
O26 Fe25 2.002 . S
O26 C43 1.295 . S
O27 Fe22 1.997 . S
O27 C43 1.235 . S
O28 Fe22 2.002 . S
O28 C29 1.295 . S
C29 O28 1.295 . S
C29 O31 1.235 . S
C30 O35 1.287 . S
C30 O36 1.255 . S
O31 Fe23 1.997 . S
O31 C29 1.235 . S
C32 O38 1.287 . S
C32 O39 1.255 . S
O33 Fe22 1.976 1_556 S
O33 C40 1.287 . S
O34 Fe23 1.996 1_556 S
O34 C40 1.255 . S
O35 Fe25 1.976 1_556 S
O35 C30 1.287 . S
O36 Fe22 1.996 1_556 S
O36 C30 1.255 . S
C37 O41 1.295 . S
C37 O42 1.235 . S
O38 Fe23 1.976 1_556 S
O38 C32 1.287 . S
O39 Fe25 1.996 1_556 S
O39 C32 1.255 . S
C40 O33 1.287 . S
C40 O34 1.255 . S
O41 Fe23 2.002 . S
O41 C37 1.295 . S
O42 Fe25 1.997 . S
O42 C37 1.235 . S
C43 O26 1.295 . S
C43 O27 1.235 . S
Zn44 O46 1.933 . S
Zn44 O64 1.985 . S
Zn44 O75 1.955 . S
Zn45 O46 1.911 1_565 S
Zn45 O65 1.970 1_565 S
Zn45 O81 1.945 . S
Zn45 O88 1.981 . S
O46 Zn44 1.933 . S
O46 Zn45 1.911 1_545 S
O46 H47 0.841 1_445 S
H47 O46 0.841 1_665 S
C48 O49 1.246 . S
C48 O77 1.276 . S
O49 C48 1.246 . S
Zn50 O52 1.911 . S
Zn50 O67 1.970 . S
Zn50 O84 1.945 1_655 S
Zn50 O91 1.981 . S
Zn51 O52 1.933 1_545 S
Zn51 O66 1.985 1_545 S
Zn51 O73 1.955 1_655 S
O52 Zn50 1.911 . S
O52 Zn51 1.933 1_565 S
O52 H53 0.841 1_665 S
H53 O52 0.841 1_445 S
Zn54 O55 1.933 . S
Zn54 O68 1.985 . S
Zn54 O77 1.955 . S
O55 Zn54 1.933 . S
O55 Zn56 1.911 . S
O55 H57 0.841 . S
Zn56 O55 1.911 . S
Zn56 O69 1.970 . S
Zn56 O85 1.981 1_545 S
Zn56 O87 1.945 1_545 S
H57 O55 0.841 . S
Zn58 O59 1.933 . S
Zn58 O71 1.985 . S
Zn58 O79 1.955 1_565 S
O59 Zn58 1.933 . S
O59 H60 0.841 . S
O59 Zn61 1.911 . S
H60 O59 0.841 . S
Zn61 O59 1.911 . S
Zn61 O72 1.970 . S
Zn61 O82 1.981 . S
Zn61 O90 1.945 . S
C62 O63 1.246 . S
C62 O79 1.276 . S
O63 C62 1.246 . S
O64 Zn44 1.985 . S
O64 C74 1.245 . S
O65 Zn45 1.970 1_545 S
O65 C74 1.263 . S
O66 Zn51 1.985 1_565 S
O66 C78 1.245 . S
O67 Zn50 1.970 . S
O67 C78 1.263 . S
O68 Zn54 1.985 . S
O68 C83 1.245 . S
O69 Zn56 1.970 . S
O69 C83 1.263 . S
C70 O81 1.262 1_655 S
C70 O82 1.245 . S
O71 Zn58 1.985 . S
O71 C89 1.245 . S
O72 Zn61 1.970 . S
O72 C89 1.263 . S
O73 Zn51 1.955 1_455 S
O73 C92 1.276 . S
C74 O64 1.245 . S
C74 O65 1.263 . S
O75 Zn44 1.955 . S
O75 C94 1.276 1_455 S
C76 O84 1.262 . S
C76 O85 1.245 . S
O77 C48 1.276 . S
O77 Zn54 1.955 . S
C78 O66 1.245 . S
C78 O67 1.263 . S
O79 Zn58 1.955 1_545 S
O79 C62 1.276 . S
C80 O87 1.262 . S
C80 O88 1.245 . S
O81 Zn45 1.945 . S
O81 C70 1.262 1_455 S
O82 Zn61 1.981 . S
O82 C70 1.245 . S
C83 O68 1.245 . S
C83 O69 1.263 . S
O84 Zn50 1.945 1_455 S
O84 C76 1.262 . S
O85 Zn56 1.981 1_565 S
O85 C76 1.245 . S
C86 O90 1.262 . S
C86 O91 1.245 . S
O87 Zn56 1.945 1_565 S
O87 C80 1.262 . S
O88 Zn45 1.981 . S
O88 C80 1.245 . S
C89 O71 1.245 . S
C89 O72 1.263 . S
O90 Zn61 1.945 . S
O90 C86 1.262 . S
O91 Zn50 1.981 . S
O91 C86 1.245 . S
C92 O73 1.276 . S
C92 O93 1.246 . S
O93 C92 1.246 . S
C94 O75 1.276 1_655 S
C94 O95 1.246 . S
O95 C94 1.246 . S
C96 C97 1.369 . S
C96 C98 1.419 . S
C96 H100 0.930 . S
C97 C96 1.369 . S
C97 C106 1.429 . S
C98 C96 1.419 . S
C98 C99 1.363 . S
C98 H101 0.929 . S
C99 C98 1.363 . S
C99 C105 1.428 . S
H100 C96 0.930 . S
H101 C98 0.929 . S
S102 N103 1.613 . S
S102 N104 1.610 . S
N103 S102 1.613 . S
N103 C106 1.350 . S
N104 S102 1.610 . S
N104 C105 1.351 . S
C105 C99 1.428 . S
C105 N104 1.351 . S
C105 C106 1.434 . S
C106 C97 1.429 . S
C106 N103 1.350 . S
C106 C105 1.434 . S
C107 C108 1.369 . S
C107 C109 1.419 . S
C107 H111 0.930 . S
C108 C107 1.369 . S
C108 C117 1.429 . S
C109 C107 1.419 . S
C109 C110 1.363 . S
C109 H112 0.929 . S
C110 C109 1.363 . S
C110 C116 1.428 . S
H111 C107 0.930 . S
H112 C109 0.929 . S
S113 N114 1.613 . S
S113 N115 1.610 . S
N114 S113 1.613 . S
N114 C117 1.350 . S
N115 S113 1.610 . S
N115 C116 1.351 . S
C116 C110 1.428 . S
C116 N115 1.351 . S
C116 C117 1.434 . S
C117 C108 1.429 . S
C117 N114 1.350 . S
C117 C116 1.434 . S
C118 C119 1.369 . S
C118 C120 1.419 . S
C118 H122 0.930 . S
C119 C118 1.369 . S
C119 C128 1.429 . S
C120 C118 1.419 . S
C120 C121 1.363 . S
C120 H123 0.929 . S
C121 C120 1.363 . S
C121 C127 1.428 . S
H122 C118 0.930 . S
H123 C120 0.929 . S
S124 N125 1.613 . S
S124 N126 1.610 . S
N125 S124 1.613 . S
N125 C128 1.350 . S
N126 S124 1.610 . S
N126 C127 1.351 . S
C127 C121 1.428 . S
C127 N126 1.351 . S
C127 C128 1.434 . S
C128 C119 1.429 . S
C128 N125 1.350 . S
C128 C127 1.434 . S
C129 C130 1.369 . S
C129 C131 1.419 . S
C129 H133 0.930 . S
C130 C129 1.369 . S
C130 C139 1.429 . S
C131 C129 1.419 . S
C131 C132 1.363 . S
C131 H134 0.929 . S
C132 C131 1.363 . S
C132 C138 1.428 . S
H133 C129 0.930 . S
H134 C131 0.929 . S
S135 N136 1.613 . S
S135 N137 1.610 . S
N136 S135 1.613 . S
N136 C139 1.350 . S
N137 S135 1.610 . S
N137 C138 1.351 . S
C138 C132 1.428 . S
C138 N137 1.351 . S
C138 C139 1.434 . S
C139 C130 1.429 . S
C139 N136 1.350 . S
C139 C138 1.434 . S
C140 C141 1.369 . S
C140 C142 1.419 . S
C140 H144 0.930 . S
C141 C140 1.369 . S
C141 C150 1.429 . S
C142 C140 1.419 . S
C142 C143 1.363 . S
C142 H145 0.929 . S
C143 C142 1.363 . S
C143 C149 1.428 . S
H144 C140 0.930 . S
H145 C142 0.929 . S
S146 N147 1.613 . S
S146 N148 1.610 . S
N147 S146 1.613 . S
N147 C150 1.350 . S
N148 S146 1.610 . S
N148 C149 1.351 . S
C149 C143 1.428 . S
C149 N148 1.351 . S
C149 C150 1.434 . S
C150 C141 1.429 . S
C150 N147 1.350 . S
C150 C149 1.434 . S
C151 C152 1.369 . S
C151 C153 1.419 . S
C151 H155 0.930 . S
C152 C151 1.369 . S
C152 C161 1.429 . S
C153 C151 1.419 . S
C153 C154 1.363 . S
C153 H156 0.929 . S
C154 C153 1.363 . S
C154 C160 1.428 . S
H155 C151 0.930 . S
H156 C153 0.929 . S
S157 N158 1.613 . S
S157 N159 1.610 . S
N158 S157 1.613 . S
N158 C161 1.350 . S
N159 S157 1.610 . S
N159 C160 1.351 . S
C160 C154 1.428 . S
C160 N159 1.351 . S
C160 C161 1.434 . S
C161 C152 1.429 . S
C161 N158 1.350 . S
C161 C160 1.434 . S
C162 C163 1.369 . S
C162 C164 1.419 . S
C162 H166 0.930 . S
C163 C162 1.369 . S
C163 C172 1.429 . S
C164 C162 1.419 . S
C164 C165 1.363 . S
C164 H167 0.929 . S
C165 C164 1.363 . S
C165 C171 1.428 . S
H166 C162 0.930 . S
H167 C164 0.929 . S
S168 N169 1.613 . S
S168 N170 1.610 1_554 S
N169 S168 1.613 . S
N169 C172 1.350 1_554 S
N170 S168 1.610 1_556 S
N170 C171 1.351 . S
C171 C165 1.428 . S
C171 N170 1.351 . S
C171 C172 1.434 . S
C172 C163 1.429 . S
C172 N169 1.350 1_556 S
C172 C171 1.434 . S
C173 C174 1.369 . S
C173 C175 1.419 . S
C173 H177 0.930 . S
C174 C173 1.369 . S
C174 C183 1.429 . S
C175 C173 1.419 . S
C175 C176 1.363 . S
C175 H178 0.929 . S
C176 C175 1.363 . S
C176 C182 1.428 . S
H177 C173 0.930 . S
H178 C175 0.929 . S
S179 N180 1.613 . S
S179 N181 1.610 . S
N180 S179 1.613 . S
N180 C183 1.350 . S
N181 S179 1.610 . S
N181 C182 1.351 . S
C182 C176 1.428 . S
C182 N181 1.351 . S
C182 C183 1.434 . S
C183 C174 1.429 . S
C183 N180 1.350 . S
C183 C182 1.434 . S
C184 C185 1.369 . S
C184 C186 1.419 . S
C184 H188 0.930 . S
C185 C184 1.369 . S
C185 C194 1.429 . S
C186 C184 1.419 . S
C186 C187 1.363 . S
C186 H189 0.929 . S
C187 C186 1.363 . S
C187 C193 1.428 . S
H188 C184 0.930 . S
H189 C186 0.929 . S
S190 N191 1.613 . S
S190 N192 1.610 1_554 S
N191 S190 1.613 . S
N191 C194 1.350 1_554 S
N192 S190 1.610 1_556 S
N192 C193 1.351 . S
C193 C187 1.428 . S
C193 N192 1.351 . S
C193 C194 1.434 . S
C194 C185 1.429 . S
C194 N191 1.350 1_556 S
C194 C193 1.434 . S
C195 C196 1.369 . S
C195 C197 1.419 . S
C195 H199 0.930 . S
C196 C195 1.369 . S
C196 C205 1.429 . S
C197 C195 1.419 . S
C197 C198 1.363 . S
C197 H200 0.929 . S
C198 C197 1.363 . S
C198 C204 1.428 . S
H199 C195 0.930 . S
H200 C197 0.929 . S
S201 N202 1.613 . S
S201 N203 1.610 . S
N202 S201 1.613 . S
N202 C205 1.350 . S
N203 S201 1.610 . S
N203 C204 1.351 . S
C204 C198 1.428 . S
C204 N203 1.351 . S
C204 C205 1.434 . S
C205 C196 1.429 . S
C205 N202 1.350 . S
C205 C204 1.434 . S
C206 C207 1.369 1_554 S
C206 C208 1.419 . S
C206 H210 0.930 . S
C207 C206 1.369 1_556 S
C207 C216 1.429 . S
C208 C206 1.419 . S
C208 C209 1.363 1_554 S
C208 H211 0.929 . S
C209 C208 1.363 1_556 S
C209 C215 1.428 . S
H210 C206 0.930 . S
H211 C208 0.929 . S
S212 N213 1.613 . S
S212 N214 1.610 . S
N213 S212 1.613 . S
N213 C216 1.350 . S
N214 S212 1.610 . S
N214 C215 1.351 . S
C215 C209 1.428 . S
C215 N214 1.351 . S
C215 C216 1.434 . S
C216 C207 1.429 . S
C216 N213 1.350 . S
C216 C215 1.434 . S
C217 C218 1.369 . S
C217 C219 1.419 . S
C217 H221 0.930 . S
C218 C217 1.369 . S
C218 C227 1.429 . S
C219 C217 1.419 . S
C219 C220 1.363 . S
C219 H222 0.929 . S
C220 C219 1.363 . S
C220 C226 1.428 . S
H221 C217 0.930 . S
H222 C219 0.929 . S
S223 N224 1.613 . S
S223 N225 1.610 . S
N224 S223 1.613 . S
N224 C227 1.350 . S
N225 S223 1.610 . S
N225 C226 1.351 . S
C226 C220 1.428 . S
C226 N225 1.351 . S
C226 C227 1.434 . S
C227 C218 1.429 . S
C227 N224 1.350 . S
C227 C226 1.434 . S
C97 C8 1.481 . S
C99 C80 1.479 . S
C110 C74 1.823 . S
C108 C29 1.790 . S
C121 C48 1.492 . S
C119 C10 1.504 . S
C132 C94 1.836 . S
C130 C37 1.924 . S
C143 C89 0.514 . S
C141 C18 0.523 . S
C152 C43 1.849 . S
C154 C70 1.794 . S
C163 C21 1.846 1_556 S
C165 C76 1.789 . S
C174 C40 0.523 . S
C176 C83 0.513 . S
C185 C15 1.924 1_556 S
C187 C92 1.837 . S
C196 C32 1.504 . S
C198 C62 1.492 . S
C209 C78 1.821 . S
C207 C7 1.793 1_556 S
C218 C30 1.478 . S
C220 C86 1.476 . S
