# Generated by pormake.
# Topology scu, (8,4)-cn, num edge types: 1
# Building blocks:
#     Node 0, Type 0, BuildingBlock: GIZVER_clean_sbu_0, # of connection points: 8
#     Node 1, Type 1, BuildingBlock: KOZSID_clean_sbu_0, # of connection points: 4
#     Node 2, Type 1, BuildingBlock: KOZSID_clean_sbu_0, # of connection points: 4
#     Edge 3, Type (0, 1), BuildingBlock: EYOCIG_clean_linker_4, # of connection points: 2
#     Edge 4, Type (0, 1), BuildingBlock: EYOCIG_clean_linker_4, # of connection points: 2
#     Edge 5, Type (0, 1), BuildingBlock: EYOCIG_clean_linker_4, # of connection points: 2
#     Edge 6, Type (0, 1), BuildingBlock: EYOCIG_clean_linker_4, # of connection points: 2
#     Edge 7, Type (0, 1), BuildingBlock: EYOCIG_clean_linker_4, # of connection points: 2
#     Edge 8, Type (0, 1), BuildingBlock: EYOCIG_clean_linker_4, # of connection points: 2
#     Edge 9, Type (0, 1), BuildingBlock: EYOCIG_clean_linker_4, # of connection points: 2
#     Edge 10, Type (0, 1), BuildingBlock: EYOCIG_clean_linker_4, # of connection points: 2
# Relax obj value: 0.045
# Max RMSD: 0.111
# Mean RMSD: 0.103
data_MOF--net-scu--node1-GIZVER_clean_sbu_0--node2-KOZSID_clean_sbu_0--edge1-EYOCIG_clean_linker_4
_symmetry_space_group_name_H-M    P1
_symmetry_Int_Tables_number       1
_symmetry_cell_setting            triclinic
loop_
_symmetry_equiv_pos_as_xyz
'x, y, z'
_cell_length_a     22.132665
_cell_length_b     22.789621
_cell_length_c     19.559131
_cell_angle_alpha  95.967923
_cell_angle_beta   76.193794
_cell_angle_gamma 112.28227
loop_
_atom_site_label
_atom_site_type_symbol
_atom_site_fract_x
_atom_site_fract_y
_atom_site_fract_z
_atom_type_partial_charge
Co0 Co 1.00084 0.92122 0.16535 0.0
Co1 Co 0.09575 0.02548 0.13387 0.0
Co2 Co 1.00097 0.00747 0.02569 0.0
O3 O 0.04357 0.96912 0.07925 0.0
H4 H 0.07055 0.94883 0.04719 0.0
O5 O 0.95836 0.04582 0.97214 0.0
Co6 Co 0.00109 0.09371 0.88604 0.0
Co7 Co 0.90619 0.98946 0.91751 0.0
H8 H 0.93137 0.06611 1.00419 0.0
O9 O 0.1717 0.01768 0.14153 0.0
O10 O 0.06884 0.98212 0.21568 0.0
O11 O 0.08696 0.10507 0.15279 0.0
O12 O 0.02006 0.09183 0.07874 0.0
O13 O 0.08909 0.04017 0.95654 0.0
O14 O 0.03648 0.14314 0.80964 0.0
O15 O 0.95479 0.14716 0.90194 0.0
O16 O 0.05717 0.0454 0.85774 0.0
O17 O 0.98187 0.92311 0.97264 0.0
O18 O 0.915 0.90988 0.89856 0.0
O19 O 0.93306 0.03284 0.83572 0.0
O20 O 0.83021 0.99723 0.90991 0.0
C21 C 0.00841 0.84616 0.21033 0.0
C22 C 0.90435 0.97729 0.16189 0.0
C23 C 0.05175 0.12405 0.12521 0.0
C24 C 0.1332 0.99423 0.20132 0.0
C25 C 0.99355 0.16878 0.84107 0.0
C26 C 0.09756 0.03762 0.88948 0.0
C27 C 0.95021 0.8909 0.92615 0.0
C28 C 0.86869 0.0207 0.85011 0.0
O29 O 0.96545 0.87178 0.24175 0.0
O30 O 0.04717 0.86779 0.14947 0.0
O31 O 0.91284 0.97477 0.09483 0.0
O32 O 0.94472 0.9695 0.19364 0.0
C33 C 0.07017 0.62049 0.42503 0.0
C34 C 0.13313 0.6635 0.39603 0.0
C35 C 0.17801 0.64931 0.42182 0.0
C36 C 0.14018 0.59865 0.46496 0.0
N37 N 0.0737 0.57946 0.46844 0.0
Co38 Co 0.00104 0.50749 0.52569 0.0
N39 N 0.06732 0.48679 0.56383 0.0
C40 C 0.13456 0.51703 0.54904 0.0
C41 C 0.16725 0.49258 0.58273 0.0
C42 C 0.11807 0.44369 0.62145 0.0
C43 C 0.05786 0.44107 0.60914 0.0
N44 N 0.92838 0.4355 0.58291 0.0
C45 C 0.9319 0.39446 0.6263 0.0
C46 C 0.86895 0.35141 0.65525 0.0
C47 C 0.82408 0.36557 0.62943 0.0
C48 C 0.8619 0.41627 0.58633 0.0
N49 N 0.93475 0.52821 0.48758 0.0
C50 C 0.86751 0.49801 0.50242 0.0
C51 C 0.83481 0.5225 0.46878 0.0
C52 C 0.88399 0.57138 0.43005 0.0
C53 C 0.9442 0.57396 0.4423 0.0
N54 N 0.00866 0.44809 0.44507 0.0
C55 C 0.01949 0.36228 0.33316 0.0
C56 C 0.9571 0.36214 0.36902 0.0
C57 C 0.95282 0.4053 0.42448 0.0
C58 C 0.07643 0.40593 0.35308 0.0
C59 C 0.06996 0.44829 0.40877 0.0
N60 N 0.99342 0.56689 0.6063 0.0
C61 C 0.92562 0.60889 0.69845 0.0
C62 C 0.98256 0.65269 0.71821 0.0
C63 C 0.04497 0.65298 0.68221 0.0
C64 C 0.04926 0.60982 0.62675 0.0
C65 C 0.9321 0.56654 0.64275 0.0
H66 H 0.09829 0.6125 0.601 0.0
H67 H 0.88682 0.53437 0.62989 0.0
H68 H 0.9038 0.40273 0.45012 0.0
H69 H 0.11523 0.48035 0.42174 0.0
C70 C 0.16553 0.56824 0.50314 0.0
C71 C 0.00879 0.62081 0.40965 0.0
C72 C 0.99328 0.39419 0.64174 0.0
C73 C 0.83655 0.44673 0.54823 0.0
H74 H 0.14531 0.70131 0.35997 0.0
H75 H 0.23183 0.67318 0.41056 0.0
H76 H 0.22054 0.50841 0.57949 0.0
H77 H 0.12562 0.41332 0.65498 0.0
H78 H 0.85677 0.31359 0.69129 0.0
H79 H 0.77026 0.34169 0.64067 0.0
H80 H 0.78152 0.50669 0.47206 0.0
H81 H 0.87644 0.60178 0.39655 0.0
H82 H 0.91177 0.32845 0.35497 0.0
H83 H 0.12573 0.40697 0.32637 0.0
H84 H 0.8763 0.60774 0.72527 0.0
H85 H 0.0903 0.68679 0.69614 0.0
C86 C 0.37341 0.949 0.63872 0.0
C87 C 0.32651 0.89081 0.66393 0.0
C88 C 0.34703 0.84543 0.62604 0.0
C89 C 0.40509 0.87827 0.58007 0.0
N90 N 0.42316 0.94203 0.58637 0.0
Co91 Co 0.50095 0.00745 0.52567 0.0
N92 N 0.52813 0.94034 0.46631 0.0
C93 C 0.49738 0.87673 0.47359 0.0
C94 C 0.52803 0.84267 0.426 0.0
C95 C 0.58228 0.88706 0.38654 0.0
C96 C 0.58157 0.94594 0.41247 0.0
N97 N 0.57875 0.07287 0.46498 0.0
C98 C 0.62846 0.06591 0.41258 0.0
C99 C 0.67532 0.12409 0.38731 0.0
C100 C 0.65481 0.16947 0.42522 0.0
C101 C 0.59679 0.13664 0.47124 0.0
N102 N 0.47378 0.07457 0.58504 0.0
C103 C 0.50454 0.13817 0.57777 0.0
C104 C 0.47389 0.17224 0.62536 0.0
C105 C 0.41963 0.12784 0.66481 0.0
C106 C 0.42034 0.06897 0.63887 0.0
N107 N 0.55981 0.00985 0.58871 0.0
C108 C 0.656 0.01463 0.66156 0.0
C109 C 0.65041 0.07011 0.64598 0.0
C110 C 0.602 0.06667 0.60998 0.0
C111 C 0.611 0.95647 0.644 0.0
C112 C 0.56295 0.95515 0.60818 0.0
N113 N 0.4421 1.00506 0.46264 0.0
C114 C 0.39083 0.05843 0.40744 0.0
C115 C 0.34586 1.00026 0.38985 0.0
C116 C 0.3515 0.94479 0.40536 0.0
C117 C 0.39994 0.94823 0.44133 0.0
C118 C 0.43891 0.05975 0.44322 0.0
H119 H 0.40114 0.90419 0.45257 0.0
H120 H 0.47199 0.10537 0.45578 0.0
H121 H 0.60085 0.11072 0.59868 0.0
H122 H 0.52985 0.90953 0.59565 0.0
C123 C 0.44102 0.85054 0.52722 0.0
C124 C 0.36769 0.00936 0.66524 0.0
C125 C 0.63419 1.00554 0.38607 0.0
C126 C 0.56089 0.16437 0.52412 0.0
H127 H 0.28149 0.88212 0.70469 0.0
H128 H 0.32166 0.79452 0.63016 0.0
H129 H 0.5134 0.79164 0.42144 0.0
H130 H 0.61896 0.87725 0.34425 0.0
H131 H 0.72031 0.13278 0.34651 0.0
H132 H 0.68016 0.22039 0.42107 0.0
H133 H 0.48852 0.22326 0.62992 0.0
H134 H 0.38294 0.13765 0.70708 0.0
H135 H 0.68405 0.11602 0.6603 0.0
H136 H 0.61347 0.9124 0.6568 0.0
H137 H 0.38832 0.10249 0.39468 0.0
H138 H 0.31789 0.89887 0.39102 0.0
C139 C 0.03651 0.22762 0.18574 0.0
C140 C 0.04064 0.18033 0.15464 0.0
C141 C 0.0304 0.27746 0.23265 0.0
C142 C 0.02503 0.31596 0.2785 0.0
C143 C 0.79732 0.99386 0.24305 0.0
C144 C 0.84544 0.98642 0.20417 0.0
C145 C 0.74118 1.00071 0.29126 0.0
C146 C 0.69298 1.00436 0.33374 0.0
C147 C 0.01519 0.75484 0.27968 0.0
C148 C 0.01449 0.79614 0.24547 0.0
C149 C 0.01394 0.70773 0.32346 0.0
C150 C 0.01191 0.6682 0.36214 0.0
C151 C 0.20016 0.9877 0.292 0.0
C152 C 0.16462 0.98864 0.25472 0.0
C153 C 0.24906 0.99209 0.32869 0.0
C154 C 0.29355 0.99688 0.35659 0.0
C155 C 0.96548 0.78734 0.86562 0.0
C156 C 0.96133 0.83463 0.89672 0.0
C157 C 0.97162 0.73751 0.81871 0.0
C158 C 0.977 0.69901 0.77286 0.0
C159 C 0.20458 0.02105 0.80829 0.0
C160 C 0.15646 0.02849 0.84718 0.0
C161 C 0.26071 0.0142 0.76006 0.0
C162 C 0.30891 0.01055 0.71756 0.0
C163 C 0.98683 0.26014 0.77174 0.0
C164 C 0.9875 0.21883 0.80594 0.0
C165 C 0.98811 0.30727 0.72795 0.0
C166 C 0.99016 0.3468 0.68927 0.0
C167 C 0.80167 0.0272 0.75948 0.0
C168 C 0.83723 0.02628 0.79673 0.0
C169 C 0.75276 0.0228 0.72279 0.0
C170 C 0.70829 0.01801 0.69486 0.0
loop_
_geom_bond_atom_site_label_1
_geom_bond_atom_site_label_2
_geom_bond_distance
_geom_bond_site_symmetry_2
_ccdc_geom_bond_type
Co0 O3 2.042 1_655 S
Co0 O10 2.264 1_655 S
Co0 O29 2.286 . S
Co0 O30 2.069 1_655 S
Co0 O32 2.015 . S
Co1 O3 2.122 1_545 S
Co1 O9 2.073 . S
Co1 O10 2.327 1_545 S
Co1 O11 1.976 . S
Co2 O3 2.089 1_545 S
Co2 O5 2.085 1_454 S
Co2 O12 2.118 . S
Co2 O13 2.146 1_554 S
Co2 O17 2.105 1_444 S
Co2 O31 2.141 1_445 S
O3 Co0 2.042 1_455 S
O3 Co1 2.122 1_565 S
O3 Co2 2.089 1_565 S
O3 H4 0.980 . S
H4 O3 0.980 . S
O5 Co2 2.085 1_656 S
O5 Co6 2.042 1_655 S
O5 Co7 2.122 1_545 S
O5 H8 0.980 . S
Co6 O5 2.042 1_455 S
Co6 O14 2.286 . S
Co6 O15 2.069 1_455 S
Co6 O16 2.015 . S
Co6 O19 2.264 1_455 S
Co7 O5 2.122 1_565 S
Co7 O18 1.976 . S
Co7 O19 2.327 1_565 S
Co7 O20 2.073 . S
H8 O5 0.980 . S
O9 Co1 2.073 . S
O9 C24 1.245 1_545 S
O10 Co0 2.264 1_455 S
O10 Co1 2.327 1_565 S
O10 C24 1.257 . S
O11 Co1 1.976 . S
O11 C23 1.251 . S
O12 Co2 2.118 . S
O12 C23 1.274 . S
O13 Co2 2.146 1_556 S
O13 C26 1.246 . S
O14 Co6 2.286 . S
O14 C25 1.259 . S
O15 Co6 2.069 1_655 S
O15 C25 1.289 1_655 S
O16 Co6 2.015 . S
O16 C26 1.257 . S
O17 Co2 2.105 1_666 S
O17 C27 1.274 . S
O18 Co7 1.976 . S
O18 C27 1.251 . S
O19 Co6 2.264 1_655 S
O19 Co7 2.327 1_545 S
O19 C28 1.257 . S
O20 Co7 2.073 . S
O20 C28 1.245 1_565 S
C21 O29 1.269 . S
C21 O30 1.286 1_655 S
C22 O31 1.246 . S
C22 O32 1.257 . S
C23 O11 1.251 . S
C23 O12 1.274 . S
C24 O9 1.245 1_565 S
C24 O10 1.257 . S
C25 O14 1.259 . S
C25 O15 1.289 1_455 S
C26 O13 1.246 . S
C26 O16 1.257 . S
C27 O17 1.274 . S
C27 O18 1.251 . S
C28 O19 1.257 . S
C28 O20 1.245 1_545 S
O29 Co0 2.286 . S
O29 C21 1.269 . S
O30 Co0 2.069 1_455 S
O30 C21 1.286 1_455 S
O31 Co2 2.141 1_665 S
O31 C22 1.246 . S
O32 Co0 2.015 . S
O32 C22 1.257 . S
C33 C34 1.443 . S
C33 N37 1.376 . S
C33 C71 1.389 . S
C34 C33 1.443 . S
C34 C35 1.340 . S
C34 H74 0.951 . S
C35 C34 1.340 . S
C35 C36 1.439 . S
C35 H75 0.950 . S
C36 C35 1.439 . S
C36 N37 1.374 . S
C36 C70 1.395 . S
N37 C33 1.376 . S
N37 C36 1.374 . S
N37 Co38 2.010 . S
Co38 N37 2.010 . S
Co38 N39 1.999 . S
Co38 N44 2.006 1_455 S
Co38 N49 1.990 1_455 S
Co38 N54 2.283 . S
Co38 N60 2.282 1_455 S
N39 Co38 1.999 . S
N39 C40 1.376 . S
N39 C43 1.383 . S
C40 N39 1.376 . S
C40 C41 1.446 . S
C40 C70 1.391 . S
C41 C40 1.446 . S
C41 C42 1.339 . S
C41 H76 0.949 . S
C42 C41 1.339 . S
C42 C43 1.439 . S
C42 H77 0.950 . S
C43 N39 1.383 . S
C43 C42 1.439 . S
C43 C72 1.387 1_455 S
N44 Co38 2.006 1_655 S
N44 C45 1.376 . S
N44 C48 1.374 . S
C45 N44 1.376 . S
C45 C46 1.443 . S
C45 C72 1.397 . S
C46 C45 1.443 . S
C46 C47 1.340 . S
C46 H78 0.951 . S
C47 C46 1.340 . S
C47 C48 1.439 . S
C47 H79 0.950 . S
C48 N44 1.374 . S
C48 C47 1.439 . S
C48 C73 1.395 . S
N49 Co38 1.990 1_655 S
N49 C50 1.376 . S
N49 C53 1.383 . S
C50 N49 1.376 . S
C50 C51 1.446 . S
C50 C73 1.391 . S
C51 C50 1.446 . S
C51 C52 1.339 . S
C51 H80 0.949 . S
C52 C51 1.339 . S
C52 C53 1.439 . S
C52 H81 0.950 . S
C53 N49 1.383 . S
C53 C52 1.439 . S
C53 C71 1.392 1_655 S
N54 Co38 2.283 . S
N54 C57 1.332 1_455 S
N54 C59 1.332 . S
C55 C56 1.367 1_455 S
C55 C58 1.403 . S
C56 C55 1.367 1_655 S
C56 C57 1.382 . S
C56 H82 0.950 . S
C57 N54 1.332 1_655 S
C57 C56 1.382 . S
C57 H68 0.952 . S
C58 C55 1.403 . S
C58 C59 1.382 . S
C58 H83 0.950 . S
C59 N54 1.332 . S
C59 C58 1.382 . S
C59 H69 0.948 . S
N60 Co38 2.282 1_655 S
N60 C64 1.332 1_655 S
N60 C65 1.332 . S
C61 C62 1.392 . S
C61 C65 1.382 . S
C61 H84 0.950 . S
C62 C61 1.392 . S
C62 C63 1.380 1_655 S
C63 C62 1.380 1_455 S
C63 C64 1.382 . S
C63 H85 0.950 . S
C64 N60 1.332 1_455 S
C64 C63 1.382 . S
C64 H66 0.952 . S
C65 N60 1.332 . S
C65 C61 1.382 . S
C65 H67 0.948 . S
H66 C64 0.952 . S
H67 C65 0.948 . S
H68 C57 0.952 . S
H69 C59 0.948 . S
C70 C36 1.395 . S
C70 C40 1.391 . S
C71 C33 1.389 . S
C71 C53 1.392 1_455 S
C72 C43 1.387 1_655 S
C72 C45 1.397 . S
C73 C48 1.395 . S
C73 C50 1.391 . S
H74 C34 0.951 . S
H75 C35 0.950 . S
H76 C41 0.949 . S
H77 C42 0.950 . S
H78 C46 0.951 . S
H79 C47 0.950 . S
H80 C51 0.949 . S
H81 C52 0.950 . S
H82 C56 0.950 . S
H83 C58 0.950 . S
H84 C61 0.950 . S
H85 C63 0.950 . S
C86 C87 1.443 . S
C86 N90 1.376 . S
C86 C124 1.395 . S
C87 C86 1.443 . S
C87 C88 1.340 . S
C87 H127 0.951 . S
C88 C87 1.340 . S
C88 C89 1.439 . S
C88 H128 0.950 . S
C89 C88 1.439 . S
C89 N90 1.374 . S
C89 C123 1.395 . S
N90 C86 1.376 . S
N90 C89 1.374 . S
N90 Co91 2.005 1_565 S
Co91 N90 2.005 1_545 S
Co91 N92 1.989 1_545 S
Co91 N97 2.011 . S
Co91 N102 2.000 . S
Co91 N107 2.280 1_545 S
Co91 N113 2.285 . S
N92 Co91 1.989 1_565 S
N92 C93 1.376 . S
N92 C96 1.383 . S
C93 N92 1.376 . S
C93 C94 1.446 . S
C93 C123 1.391 . S
C94 C93 1.446 . S
C94 C95 1.339 . S
C94 H129 0.949 . S
C95 C94 1.339 . S
C95 C96 1.439 . S
C95 H130 0.950 . S
C96 N92 1.383 . S
C96 C95 1.439 . S
C96 C125 1.392 1_565 S
N97 Co91 2.011 . S
N97 C98 1.376 . S
N97 C101 1.374 . S
C98 N97 1.376 . S
C98 C99 1.443 . S
C98 C125 1.389 . S
C99 C98 1.443 . S
C99 C100 1.340 . S
C99 H131 0.951 . S
C100 C99 1.340 . S
C100 C101 1.439 . S
C100 H132 0.950 . S
C101 N97 1.374 . S
C101 C100 1.439 . S
C101 C126 1.395 . S
N102 Co91 2.000 . S
N102 C103 1.376 . S
N102 C106 1.383 . S
C103 N102 1.376 . S
C103 C104 1.446 . S
C103 C126 1.391 . S
C104 C103 1.446 . S
C104 C105 1.339 . S
C104 H133 0.949 . S
C105 C104 1.339 . S
C105 C106 1.439 . S
C105 H134 0.950 . S
C106 N102 1.383 . S
C106 C105 1.439 . S
C106 C124 1.388 1_545 S
N107 Co91 2.280 1_565 S
N107 C110 1.332 1_565 S
N107 C112 1.332 . S
C108 C109 1.382 1_565 S
C108 C111 1.390 . S
C109 C108 1.382 1_545 S
C109 C110 1.382 . S
C109 H135 0.950 . S
C110 N107 1.332 1_545 S
C110 C109 1.382 . S
C110 H121 0.952 . S
C111 C108 1.390 . S
C111 C112 1.382 . S
C111 H136 0.950 . S
C112 N107 1.332 . S
C112 C111 1.382 . S
C112 H122 0.948 . S
N113 Co91 2.285 . S
N113 C117 1.332 1_545 S
N113 C118 1.332 . S
C114 C115 1.388 . S
C114 C118 1.382 . S
C114 H137 0.950 . S
C115 C114 1.388 . S
C115 C116 1.386 1_545 S
C116 C115 1.386 1_565 S
C116 C117 1.382 . S
C116 H138 0.950 . S
C117 N113 1.332 1_565 S
C117 C116 1.382 . S
C117 H119 0.952 . S
C118 N113 1.332 . S
C118 C114 1.382 . S
C118 H120 0.948 . S
H119 C117 0.952 . S
H120 C118 0.948 . S
H121 C110 0.952 . S
H122 C112 0.948 . S
C123 C89 1.395 . S
C123 C93 1.391 . S
C124 C86 1.395 . S
C124 C106 1.388 1_565 S
C125 C96 1.392 1_545 S
C125 C98 1.389 . S
C126 C101 1.395 . S
C126 C103 1.391 . S
H127 C87 0.951 . S
H128 C88 0.950 . S
H129 C94 0.949 . S
H130 C95 0.950 . S
H131 C99 0.951 . S
H132 C100 0.950 . S
H133 C104 0.949 . S
H134 C105 0.950 . S
H135 C109 0.950 . S
H136 C111 0.950 . S
H137 C114 0.950 . S
H138 C116 0.950 . S
C139 C140 1.170 . S
C139 C141 1.380 . S
C140 C139 1.170 . S
C141 C139 1.380 . S
C141 C142 1.170 . S
C142 C141 1.170 . S
C143 C144 1.170 . S
C143 C145 1.380 . S
C144 C143 1.170 . S
C145 C143 1.380 . S
C145 C146 1.170 1_565 S
C146 C145 1.170 1_545 S
C147 C148 1.170 . S
C147 C149 1.380 . S
C148 C147 1.170 . S
C149 C147 1.380 . S
C149 C150 1.170 . S
C150 C149 1.170 . S
C151 C152 1.170 . S
C151 C153 1.380 . S
C152 C151 1.170 . S
C153 C151 1.380 . S
C153 C154 1.170 . S
C154 C153 1.170 . S
C155 C156 1.171 1_655 S
C155 C157 1.380 . S
C156 C155 1.171 1_455 S
C157 C155 1.380 . S
C157 C158 1.170 . S
C158 C157 1.170 . S
C159 C160 1.170 . S
C159 C161 1.380 . S
C160 C159 1.170 . S
C161 C159 1.380 . S
C161 C162 1.169 1_545 S
C162 C161 1.169 1_565 S
C163 C164 1.170 . S
C163 C165 1.380 . S
C164 C163 1.170 . S
C165 C163 1.380 . S
C165 C166 1.170 . S
C166 C165 1.170 . S
C167 C168 1.170 . S
C167 C169 1.380 . S
C168 C167 1.170 . S
C169 C167 1.380 . S
C169 C170 1.170 . S
C170 C169 1.170 . S
C140 C23 1.297 1_655 S
C142 C55 1.408 1_655 S
C144 C22 1.577 . S
C146 C125 1.595 . S
C148 C21 1.825 1_455 S
C150 C71 1.839 . S
C152 C24 1.464 . S
C154 C115 1.521 1_565 S
C156 C27 1.282 1_455 S
C158 C62 1.407 . S
C160 C26 1.549 . S
C162 C124 1.602 . S
C166 C72 1.833 . S
C164 C25 1.837 1_655 S
C168 C28 1.462 . S
C170 C108 1.513 1_545 S
