# Generated by pormake.
# Topology zzz, (3,6)-cn, num edge types: 1
# Building blocks:
#     Node 0, Type 0, BuildingBlock: OLANEW_clean_sbu_2, # of connection points: 3
#     Node 1, Type 0, BuildingBlock: OLANEW_clean_sbu_2, # of connection points: 3
#     Node 2, Type 0, BuildingBlock: OLANEW_clean_sbu_2, # of connection points: 3
#     Node 3, Type 0, BuildingBlock: OLANEW_clean_sbu_2, # of connection points: 3
#     Node 4, Type 0, BuildingBlock: OLANEW_clean_sbu_2, # of connection points: 3
#     Node 5, Type 0, BuildingBlock: OLANEW_clean_sbu_2, # of connection points: 3
#     Node 6, Type 0, BuildingBlock: OLANEW_clean_sbu_2, # of connection points: 3
#     Node 7, Type 0, BuildingBlock: OLANEW_clean_sbu_2, # of connection points: 3
#     Node 8, Type 1, BuildingBlock: FUNLAD_clean_sbu_0, # of connection points: 6
#     Node 9, Type 1, BuildingBlock: FUNLAD_clean_sbu_0, # of connection points: 6
#     Node 10, Type 1, BuildingBlock: FUNLAD_clean_sbu_0, # of connection points: 6
#     Node 11, Type 1, BuildingBlock: FUNLAD_clean_sbu_0, # of connection points: 6
#     Edge 12, Type (0, 1), None
#     Edge 13, Type (0, 1), None
#     Edge 14, Type (0, 1), None
#     Edge 15, Type (0, 1), None
#     Edge 16, Type (0, 1), None
#     Edge 17, Type (0, 1), None
#     Edge 18, Type (0, 1), None
#     Edge 19, Type (0, 1), None
#     Edge 20, Type (0, 1), None
#     Edge 21, Type (0, 1), None
#     Edge 22, Type (0, 1), None
#     Edge 23, Type (0, 1), None
#     Edge 24, Type (0, 1), None
#     Edge 25, Type (0, 1), None
#     Edge 26, Type (0, 1), None
#     Edge 27, Type (0, 1), None
#     Edge 28, Type (0, 1), None
#     Edge 29, Type (0, 1), None
#     Edge 30, Type (0, 1), None
#     Edge 31, Type (0, 1), None
#     Edge 32, Type (0, 1), None
#     Edge 33, Type (0, 1), None
#     Edge 34, Type (0, 1), None
#     Edge 35, Type (0, 1), None
# Relax obj value: 0.116
# Max RMSD: 0.167
# Mean RMSD: 0.109
data_MOF--net-zzz--node1-OLANEW_clean_sbu_2--node2-FUNLAD_clean_sbu_0--edge1-none
_symmetry_space_group_name_H-M    P1
_symmetry_Int_Tables_number       1
_symmetry_cell_setting            triclinic
loop_
_symmetry_equiv_pos_as_xyz
'x, y, z'
_cell_length_a     27.532161
_cell_length_b     31.999046
_cell_length_c     9.8730826
_cell_angle_alpha  82.354237
_cell_angle_beta   82.152484
_cell_angle_gamma 82.604465
loop_
_atom_site_label
_atom_site_type_symbol
_atom_site_fract_x
_atom_site_fract_y
_atom_site_fract_z
_atom_type_partial_charge
O0 O 0.8438 0.61411 0.97908 0.0
Cd1 Cd 0.78011 0.67276 0.95776 0.0
O2 O 0.82663 0.58739 0.1961 0.0
Cd3 Cd 0.85659 0.54742 0.36978 0.0
O4 O 0.89497 0.52373 0.54964 0.0
C5 C 0.93212 0.54027 0.57341 0.0
O6 O 0.94887 0.57145 0.48667 0.0
C7 C 0.85191 0.58585 0.07911 0.0
C8 C 0.6994 0.63327 0.93332 0.0
O9 O 0.72912 0.64366 0.82607 0.0
O10 O 0.70679 0.64373 0.04914 0.0
O11 O 0.0651 0.85979 0.91919 0.0
Cd12 Cd 0.11795 0.79107 0.94995 0.0
O13 O 0.05935 0.87027 0.13669 0.0
Cd14 Cd 0.11027 0.81576 0.20191 0.0
O15 O 0.08993 0.86108 0.35193 0.0
C16 C 0.10534 0.89744 0.33957 0.0
O17 O 0.14058 0.90724 0.24098 0.0
C18 C 0.04898 0.88256 0.01598 0.0
C19 C 0.08125 0.71401 0.93297 0.0
O20 O 0.10348 0.7339 0.82577 0.0
O21 O 0.07478 0.73134 0.04495 0.0
O22 O 0.67873 0.96769 0.88714 0.0
Cd23 Cd 0.76552 0.93663 0.91625 0.0
O24 O 0.66651 1.00221 0.06918 0.0
Cd25 Cd 0.6165 0.0364 0.21893 0.0
O26 O 0.57409 0.05053 0.41386 0.0
C27 C 0.55164 0.02099 0.48385 0.0
O28 O 0.55321 0.98473 0.43386 0.0
C29 C 0.65004 0.99013 0.96869 0.0
C30 C 0.85156 0.97745 0.89827 0.0
O31 O 0.83803 0.96635 0.79025 0.0
O32 O 0.82297 0.97225 0.01173 0.0
O33 O 0.41447 0.66774 0.94822 0.0
Cd34 Cd 0.37534 0.73604 0.0231 0.0
O35 O 0.38696 0.64018 0.15493 0.0
Cd36 Cd 0.39635 0.5881 0.31614 0.0
O37 O 0.42281 0.55662 0.50425 0.0
C38 C 0.46526 0.56016 0.53568 0.0
O39 O 0.49605 0.58193 0.44959 0.0
C40 C 0.40939 0.63531 0.03638 0.0
C41 C 0.42696 0.80792 0.97296 0.0
O42 O 0.43065 0.78187 0.08258 0.0
O43 O 0.40091 0.79892 0.88483 0.0
O44 O 0.1293 0.41868 0.96303 0.0
Cd45 Cd 0.19056 0.35841 -0.0088 0.0
O46 O 0.11273 0.40651 0.76137 0.0
Cd47 Cd 0.06362 0.42074 0.60138 0.0
O48 O 0.02244 0.43912 0.42509 0.0
C49 C 0.02581 0.47594 0.361 0.0
O50 O 0.05234 0.50146 0.4051 0.0
C51 C 0.10619 0.42941 0.85918 0.0
C52 C 0.27281 0.39823 -0.00791 0.0
O53 O 0.26313 0.38566 0.88171 0.0
O54 O 0.24517 0.38914 0.10483 0.0
O55 O 0.92012 0.16081 0.84661 0.0
Cd56 Cd 0.89118 0.23526 0.76203 0.0
O57 O 0.97158 0.15802 0.65617 0.0
Cd58 Cd 0.94274 0.21736 0.54427 0.0
O59 O 0.93034 0.16794 0.42449 0.0
C60 C 0.96908 0.14472 0.38291 0.0
O61 O 0.01244 0.15606 0.39439 0.0
C62 C 0.95361 0.14027 0.77087 0.0
C63 C 0.89926 0.30507 0.89995 0.0
O64 O 0.93741 0.28374 0.84288 0.0
O65 O 0.85704 0.29247 0.89834 0.0
O66 O 0.31429 0.05427 0.92856 0.0
Cd67 Cd 0.22932 0.08482 0.87599 0.0
O68 O 0.34033 0.08201 0.72038 0.0
Cd69 Cd 0.40034 0.08448 0.5535 0.0
O70 O 0.44241 0.07082 0.35897 0.0
C71 C 0.44914 0.03374 0.32175 0.0
O72 O 0.43236 1.00183 0.40482 0.0
C73 C 0.34989 0.0628 0.836 0.0
C74 C 0.14263 0.04427 0.89819 0.0
O75 O 0.15386 0.06009 0.00103 0.0
O76 O 0.17366 0.04474 0.78869 0.0
O77 O 0.59684 0.37969 0.90561 0.0
Cd78 Cd 0.63352 0.31161 0.82317 0.0
O79 O 0.54608 0.38257 0.7519 0.0
Cd80 Cd 0.49132 0.41754 0.6285 0.0
O81 O 0.47015 0.44967 0.43415 0.0
C82 C 0.50074 0.47257 0.3617 0.0
O83 O 0.54159 0.47747 0.4097 0.0
C84 C 0.56173 0.39957 0.84402 0.0
C85 C 0.57802 0.24215 0.85618 0.0
O86 O 0.60271 0.24915 0.95041 0.0
O87 O 0.57746 0.26913 0.7479 0.0
C88 C 0.02566 0.92622 -0.0151 0.0
N89 N 0.02764 0.98684 0.59538 0.0
C90 C 0.07239 0.99496 0.52574 0.0
C91 C 0.09831 0.96678 0.43731 0.0
C92 C 0.0777 0.93024 0.42055 0.0
C93 C 0.02964 0.92498 0.48259 0.0
C94 C 0.00519 0.95371 0.56966 0.0
Zn95 Zn 0.0067 1.0058 0.78755 0.0
C96 C 0.90069 0.99181 0.89587 0.0
N97 N 0.9687 0.0335 0.19902 0.0
C98 C 0.00716 0.037 0.26763 0.0
C99 C 0.9256 0.05948 0.21712 0.0
C100 C 0.92346 0.09514 0.28607 0.0
C101 C 0.966 0.10348 0.33611 0.0
C102 C 0.00705 0.07258 0.33488 0.0
Zn103 Zn 0.98747 0.01527 0.00731 0.0
O104 O 0.02484 0.94136 0.86011 0.0
C105 C 0.09354 0.02973 0.90082 0.0
O106 O 0.01261 0.95067 0.07881 0.0
H107 H 0.89547 0.05666 0.16055 0.0
H108 H 0.08978 0.02158 0.54531 0.0
H109 H 0.0407 0.01577 0.253 0.0
O110 O 0.0815 0.01743 0.79456 0.0
O111 O 0.0612 0.03301 0.00451 0.0
H112 H 0.97058 0.94646 0.62757 0.0
O113 O 0.96317 0.07916 0.93328 0.0
O114 O 0.98894 0.07134 0.71666 0.0
O115 O 0.91524 0.99783 0.00767 0.0
O116 O 0.9305 0.99456 0.78527 0.0
C117 C 0.96967 0.09505 0.80866 0.0
H118 H 0.13487 0.97249 0.38805 0.0
H119 H 0.01184 0.89774 0.46953 0.0
H120 H 0.89068 0.11786 0.28809 0.0
H121 H 0.04002 0.07728 0.37679 0.0
C122 C 0.40187 0.0505 0.85941 0.0
N123 N 0.5211 0.12287 0.87986 0.0
C124 C 0.51375 0.15237 0.76953 0.0
C125 C 0.53025 0.1925 0.76151 0.0
C126 C 0.55442 0.2023 0.86816 0.0
C127 C 0.55956 0.17182 -0.01718 0.0
C128 C 0.5429 0.13228 -0.01377 0.0
Zn129 Zn 0.50642 0.06051 0.88962 0.0
C130 C 0.47002 0.02839 0.17995 0.0
N131 N 0.47926 0.92956 0.9306 0.0
C132 C 0.45437 0.91931 0.8318 0.0
C133 C 0.49096 0.90041 0.03817 0.0
C134 C 0.47589 0.85966 0.05171 0.0
C135 C 0.44869 0.8488 0.95336 0.0
C136 C 0.43895 0.87902 0.8408 0.0
Zn137 Zn 0.49348 0.99188 0.91764 0.0
O138 O 0.43186 0.07858 0.84325 0.0
C139 C 0.53013 0.025 0.62627 0.0
O140 O 0.41742 1.01182 0.89182 0.0
H141 H 0.51069 0.90913 0.11579 0.0
H142 H 0.49661 0.14435 0.68558 0.0
H143 H 0.44494 0.9429 0.74766 0.0
O144 O 0.53185 0.05889 0.67865 0.0
O145 O 0.51367 0.99313 0.70103 0.0
H146 H 0.5492 0.10848 0.07244 0.0
O147 O 0.56994 0.97307 0.94357 0.0
O148 O 0.58008 0.04041 0.93638 0.0
O149 O 0.47379 0.99262 0.13419 0.0
O150 O 0.4808 0.061 0.09922 0.0
C151 C 0.59775 1.0016 0.94841 0.0
H152 H 0.52555 0.21501 0.67088 0.0
H153 H 0.57801 0.17775 0.06735 0.0
H154 H 0.48423 0.83737 0.1403 0.0
H155 H 0.41801 0.87223 0.76266 0.0
C156 C 0.53831 0.44115 0.87991 0.0
N157 N 0.38848 0.47497 0.97277 0.0
C158 C 0.38474 0.45424 0.86356 0.0
C159 C 0.34714 0.42887 0.86838 0.0
C160 C 0.31329 0.42435 -0.01269 0.0
C161 C 0.31734 0.44652 0.09817 0.0
C162 C 0.35547 0.47202 0.08842 0.0
Zn163 Zn 0.45013 0.50393 0.96334 0.0
C164 C 0.49313 0.48947 0.22023 0.0
N165 N 0.58267 0.55992 0.92282 0.0
C166 C 0.61892 0.56151 0.81448 0.0
C167 C 0.58297 0.58184 0.0317 0.0
C168 C 0.6208 0.60612 0.03593 0.0
C169 C 0.65853 0.60862 0.92605 0.0
C170 C 0.65752 0.58607 0.81372 0.0
Zn171 Zn 0.52165 0.53003 0.92954 0.0
O172 O 0.4916 0.44738 0.90093 0.0
C173 C 0.47658 0.54386 0.67455 0.0
O174 O 0.5637 0.47104 0.8882 0.0
H175 H 0.55318 0.58132 0.11509 0.0
H176 H 0.41183 0.45633 0.77353 0.0
H177 H 0.61754 0.54424 0.72831 0.0
O178 O 0.44332 0.52729 0.75811 0.0
O179 O 0.51725 0.54842 0.71528 0.0
H180 H 0.3594 0.48859 0.17422 0.0
O181 O 0.47952 0.58883 0.96787 0.0
O182 O 0.40956 0.56126 0.02486 0.0
O183 O 0.52487 0.51055 0.14506 0.0
O184 O 0.45644 0.48072 0.16932 0.0
C185 C 0.43367 0.59332 0.00784 0.0
H186 H 0.34514 0.41246 0.78047 0.0
H187 H 0.29142 0.44424 0.19109 0.0
H188 H 0.62009 0.62318 0.12405 0.0
H189 H 0.68636 0.58706 0.72734 0.0
C190 C 0.06382 0.46121 0.87152 0.0
N191 N 0.92544 0.42405 0.00393 0.0
C192 C 0.88314 0.42133 0.94994 0.0
C193 C 0.87132 0.38175 0.92591 0.0
C194 C 0.90408 0.34509 0.95432 0.0
C195 C 0.94545 0.34852 0.01846 0.0
C196 C 0.95503 0.38831 0.0445 0.0
Zn197 Zn 0.95672 0.48043 -0.01259 0.0
C198 C 0.00612 0.48777 0.22898 0.0
N199 N 0.03358 0.59177 0.93232 0.0
C200 C 0.06013 0.60937 0.81695 0.0
C201 C 0.02217 0.61281 0.04583 0.0
C202 C 0.03743 0.6526 0.04711 0.0
C203 C 0.06455 0.67177 0.93005 0.0
C204 C 0.07607 0.64959 0.8136 0.0
Zn205 Zn 0.00197 0.53553 0.94652 0.0
O206 O 0.022 0.44776 0.90178 0.0
C207 C 0.95211 0.52792 0.70516 0.0
O208 O 0.06882 0.49954 0.88258 0.0
H209 H 6e-05 0.5992 0.13581 0.0
H210 H 0.8604 0.44999 0.9165 0.0
H211 H 0.0683 0.5926 0.72691 0.0
O212 O 0.93478 0.49812 0.78857 0.0
O213 O 0.98378 0.5488 0.74067 0.0
H214 H 0.98857 0.39082 0.08697 0.0
O215 O 0.93529 0.56949 0.01021 0.0
O216 O 0.89159 0.51552 0.07189 0.0
O217 O 0.01893 0.52053 0.15208 0.0
O218 O 0.97952 0.46386 0.18636 0.0
C219 C 0.89511 0.55518 0.06035 0.0
H220 H 0.83916 0.38035 0.87528 0.0
H221 H 0.97146 0.32096 0.0423 0.0
H222 H 0.0275 0.66835 0.13916 0.0
H223 H 0.09707 0.66314 0.72102 0.0
loop_
_geom_bond_atom_site_label_1
_geom_bond_atom_site_label_2
_geom_bond_distance
_geom_bond_site_symmetry_2
_ccdc_geom_bond_type
O0 Cd1 2.300 . S
O0 C7 1.275 . S
Cd1 O0 2.300 . S
Cd1 O9 2.381 . S
Cd1 O10 2.378 . S
O2 Cd3 2.385 . S
O2 C7 1.255 . S
Cd3 O2 2.385 . S
Cd3 O4 2.317 . S
O4 Cd3 2.317 . S
O4 C5 1.232 . S
C5 O4 1.232 . S
C5 O6 1.218 . S
O6 C5 1.218 . S
C7 O0 1.275 . S
C7 O2 1.255 . S
C8 O9 1.258 . S
C8 O10 1.256 . S
O9 Cd1 2.381 . S
O9 C8 1.258 . S
O10 Cd1 2.378 . S
O10 C8 1.256 . S
O11 Cd12 2.300 1_655 S
O11 C18 1.275 1_655 S
Cd12 O11 2.300 1_455 S
Cd12 O20 2.381 1_455 S
Cd12 O21 2.378 1_556 S
O13 Cd14 2.385 1_556 S
O13 C18 1.255 . S
Cd14 O13 2.385 1_554 S
Cd14 O15 2.317 . S
O15 Cd14 2.317 . S
O15 C16 1.232 . S
C16 O15 1.232 . S
C16 O17 1.218 . S
O17 C16 1.218 . S
C18 O11 1.275 1_455 S
C18 O13 1.255 . S
C19 O20 1.258 1_455 S
C19 O21 1.256 1_556 S
O20 Cd12 2.381 1_655 S
O20 C19 1.258 1_655 S
O21 Cd12 2.378 1_554 S
O21 C19 1.256 1_554 S
O22 Cd23 2.300 1_565 S
O22 C29 1.275 . S
Cd23 O22 2.300 1_545 S
Cd23 O31 2.381 1_545 S
Cd23 O32 2.378 . S
O24 Cd25 2.385 . S
O24 C29 1.255 1_545 S
Cd25 O24 2.385 . S
Cd25 O26 2.317 . S
O26 Cd25 2.317 . S
O26 C27 1.232 1_545 S
C27 O26 1.232 1_565 S
C27 O28 1.218 1_565 S
O28 C27 1.218 1_545 S
C29 O22 1.275 . S
C29 O24 1.255 1_565 S
C30 O31 1.258 . S
C30 O32 1.256 1_565 S
O31 Cd23 2.381 1_565 S
O31 C30 1.258 . S
O32 Cd23 2.378 . S
O32 C30 1.256 1_545 S
O33 Cd34 2.300 . S
O33 C40 1.275 . S
Cd34 O33 2.300 . S
Cd34 O42 2.381 . S
Cd34 O43 2.378 . S
O35 Cd36 2.385 . S
O35 C40 1.255 . S
Cd36 O35 2.385 . S
Cd36 O37 2.317 . S
O37 Cd36 2.317 . S
O37 C38 1.232 . S
C38 O37 1.232 . S
C38 O39 1.218 . S
O39 C38 1.218 . S
C40 O33 1.275 . S
C40 O35 1.255 . S
C41 O42 1.258 . S
C41 O43 1.256 . S
O42 Cd34 2.381 . S
O42 C41 1.258 . S
O43 Cd34 2.378 . S
O43 C41 1.256 . S
O44 Cd45 2.300 . S
O44 C51 1.275 . S
Cd45 O44 2.300 . S
Cd45 O53 2.381 . S
Cd45 O54 2.378 . S
O46 Cd47 2.385 . S
O46 C51 1.255 . S
Cd47 O46 2.385 . S
Cd47 O48 2.317 . S
O48 Cd47 2.317 . S
O48 C49 1.232 . S
C49 O48 1.232 . S
C49 O50 1.218 . S
O50 C49 1.218 . S
C51 O44 1.275 . S
C51 O46 1.255 . S
C52 O53 1.258 . S
C52 O54 1.256 . S
O53 Cd45 2.381 . S
O53 C52 1.258 . S
O54 Cd45 2.378 . S
O54 C52 1.256 . S
O55 Cd56 2.300 1_654 S
O55 C62 1.275 1_654 S
Cd56 O55 2.300 1_456 S
Cd56 O64 2.381 1_456 S
Cd56 O65 2.378 . S
O57 Cd58 2.385 . S
O57 C62 1.255 . S
Cd58 O57 2.385 . S
Cd58 O59 2.317 . S
O59 Cd58 2.317 . S
O59 C60 1.232 . S
C60 O59 1.232 . S
C60 O61 1.218 . S
O61 C60 1.218 . S
C62 O55 1.275 1_456 S
C62 O57 1.255 . S
C63 O64 1.258 1_456 S
C63 O65 1.256 . S
O64 Cd56 2.381 1_654 S
O64 C63 1.258 1_654 S
O65 Cd56 2.378 . S
O65 C63 1.256 . S
O66 Cd67 2.300 . S
O66 C73 1.275 . S
Cd67 O66 2.300 . S
Cd67 O75 2.381 . S
Cd67 O76 2.378 . S
O68 Cd69 2.385 . S
O68 C73 1.255 . S
Cd69 O68 2.385 . S
Cd69 O70 2.317 . S
O70 Cd69 2.317 . S
O70 C71 1.232 . S
C71 O70 1.232 . S
C71 O72 1.218 . S
O72 C71 1.218 . S
C73 O66 1.275 . S
C73 O68 1.255 . S
C74 O75 1.258 . S
C74 O76 1.256 . S
O75 Cd67 2.381 . S
O75 C74 1.258 . S
O76 Cd67 2.378 . S
O76 C74 1.256 . S
O77 Cd78 2.300 . S
O77 C84 1.275 . S
Cd78 O77 2.300 . S
Cd78 O86 2.381 . S
Cd78 O87 2.378 . S
O79 Cd80 2.385 . S
O79 C84 1.255 . S
Cd80 O79 2.385 . S
Cd80 O81 2.317 . S
O81 Cd80 2.317 . S
O81 C82 1.232 . S
C82 O81 1.232 . S
C82 O83 1.218 . S
O83 C82 1.218 . S
C84 O77 1.275 . S
C84 O79 1.255 . S
C85 O86 1.258 . S
C85 O87 1.256 . S
O86 Cd78 2.381 . S
O86 C85 1.258 . S
O87 Cd78 2.378 . S
O87 C85 1.256 . S
C88 O104 1.251 1_554 S
C88 O106 1.254 . S
N89 C90 1.333 1_655 S
N89 C94 1.307 . S
N89 Zn95 2.020 . S
C90 N89 1.333 1_455 S
C90 C91 1.379 . S
C90 H108 0.952 . S
C91 C90 1.379 . S
C91 C92 1.390 1_455 S
C91 H118 0.949 . S
C92 C91 1.390 1_655 S
C92 C93 1.357 . S
C93 C92 1.357 . S
C93 C94 1.370 . S
C93 H119 0.950 . S
C94 N89 1.307 . S
C94 C93 1.370 . S
C94 H112 0.948 1_565 S
Zn95 N89 2.020 . S
Zn95 O104 2.039 1_655 S
Zn95 O110 2.034 1_655 S
Zn95 O114 2.025 1_565 S
Zn95 O116 2.024 . S
C96 O115 1.246 . S
C96 O116 1.249 1_544 S
N97 C98 1.307 . S
N97 C99 1.333 1_455 S
N97 Zn103 2.020 . S
C98 N97 1.307 . S
C98 C102 1.370 . S
C98 H109 0.948 1_545 S
C99 N97 1.333 1_655 S
C99 C100 1.379 . S
C99 H107 0.952 . S
C100 C99 1.379 . S
C100 C101 1.390 1_655 S
C100 H120 0.949 . S
C101 C100 1.390 1_455 S
C101 C102 1.357 . S
C102 C98 1.370 . S
C102 C101 1.357 . S
C102 H121 0.950 . S
Zn103 N97 2.020 . S
Zn103 O106 2.025 1_545 S
Zn103 O111 2.024 1_554 S
Zn103 O113 2.039 1_454 S
Zn103 O115 2.034 1_455 S
O104 C88 1.251 1_556 S
O104 Zn95 2.039 1_455 S
C105 O110 1.246 1_545 S
C105 O111 1.249 . S
O106 C88 1.254 . S
O106 Zn103 2.025 1_565 S
H107 C99 0.952 . S
H108 C90 0.952 . S
H109 C98 0.948 1_565 S
O110 Zn95 2.034 1_455 S
O110 C105 1.246 1_565 S
O111 Zn103 2.024 1_556 S
O111 C105 1.249 . S
H112 C94 0.948 1_545 S
O113 Zn103 2.039 1_656 S
O113 C117 1.251 . S
O114 Zn95 2.025 1_545 S
O114 C117 1.254 . S
O115 C96 1.246 . S
O115 Zn103 2.034 1_655 S
O116 Zn95 2.024 . S
O116 C96 1.249 1_566 S
C117 O113 1.251 . S
C117 O114 1.254 . S
H118 C91 0.949 . S
H119 C93 0.950 . S
H120 C100 0.949 . S
H121 C102 0.950 . S
C122 O138 1.251 . S
C122 O140 1.254 1_545 S
N123 C124 1.333 . S
N123 C128 1.307 . S
N123 Zn129 2.020 . S
C124 N123 1.333 . S
C124 C125 1.379 . S
C124 H142 0.952 . S
C125 C124 1.379 . S
C125 C126 1.390 . S
C125 H152 0.949 . S
C126 C125 1.390 . S
C126 C127 1.357 . S
C127 C126 1.357 . S
C127 C128 1.370 . S
C127 H153 0.950 . S
C128 N123 1.307 . S
C128 C127 1.370 . S
C128 H146 0.948 1_556 S
Zn129 N123 2.020 . S
Zn129 O138 2.039 . S
Zn129 O144 2.034 . S
Zn129 O148 2.025 1_556 S
Zn129 O150 2.024 1_556 S
C130 O149 1.246 1_545 S
C130 O150 1.249 . S
N131 C132 1.307 1_554 S
N131 C133 1.333 . S
N131 Zn137 2.020 1_554 S
C132 N131 1.307 1_556 S
C132 C136 1.370 . S
C132 H143 0.948 . S
C133 N131 1.333 . S
C133 C134 1.379 . S
C133 H141 0.952 . S
C134 C133 1.379 . S
C134 C135 1.390 . S
C134 H154 0.949 . S
C135 C134 1.390 . S
C135 C136 1.357 1_554 S
C136 C132 1.370 . S
C136 C135 1.357 1_556 S
C136 H155 0.950 . S
Zn137 N131 2.020 1_556 S
Zn137 O140 2.025 . S
Zn137 O145 2.024 . S
Zn137 O147 2.039 1_556 S
Zn137 O149 2.034 1_556 S
O138 C122 1.251 . S
O138 Zn129 2.039 . S
C139 O144 1.246 1_565 S
C139 O145 1.249 . S
O140 C122 1.254 1_565 S
O140 Zn137 2.025 . S
H141 C133 0.952 . S
H142 C124 0.952 . S
H143 C132 0.948 . S
O144 Zn129 2.034 . S
O144 C139 1.246 1_545 S
O145 Zn137 2.024 . S
O145 C139 1.249 . S
H146 C128 0.948 1_554 S
O147 Zn137 2.039 1_554 S
O147 C151 1.251 . S
O148 Zn129 2.025 1_554 S
O148 C151 1.254 1_545 S
O149 C130 1.246 1_565 S
O149 Zn137 2.034 1_554 S
O150 Zn129 2.024 1_554 S
O150 C130 1.249 . S
C151 O147 1.251 . S
C151 O148 1.254 1_565 S
H152 C125 0.949 . S
H153 C127 0.950 . S
H154 C134 0.949 . S
H155 C136 0.950 . S
C156 O172 1.251 . S
C156 O174 1.254 . S
N157 C158 1.333 . S
N157 C162 1.307 1_556 S
N157 Zn163 2.020 . S
C158 N157 1.333 . S
C158 C159 1.379 . S
C158 H176 0.952 . S
C159 C158 1.379 . S
C159 C160 1.390 . S
C159 H186 0.949 . S
C160 C159 1.390 . S
C160 C161 1.357 . S
C161 C160 1.357 . S
C161 C162 1.370 1_556 S
C161 H187 0.950 1_556 S
C162 N157 1.307 1_554 S
C162 C161 1.370 1_554 S
C162 H180 0.948 . S
Zn163 N157 2.020 . S
Zn163 O172 2.039 . S
Zn163 O178 2.034 . S
Zn163 O182 2.025 1_556 S
Zn163 O184 2.024 1_556 S
C164 O183 1.246 . S
C164 O184 1.249 . S
N165 C166 1.307 . S
N165 C167 1.333 1_556 S
N165 Zn171 2.020 . S
C166 N165 1.307 . S
C166 C170 1.370 . S
C166 H177 0.948 . S
C167 N165 1.333 1_554 S
C167 C168 1.379 . S
C167 H175 0.952 . S
C168 C167 1.379 . S
C168 C169 1.390 . S
C168 H188 0.949 . S
C169 C168 1.390 . S
C169 C170 1.357 1_554 S
C170 C166 1.370 . S
C170 C169 1.357 1_556 S
C170 H189 0.950 . S
Zn171 N165 2.020 . S
Zn171 O174 2.025 . S
Zn171 O179 2.024 . S
Zn171 O181 2.039 1_556 S
Zn171 O183 2.034 1_556 S
O172 C156 1.251 . S
O172 Zn163 2.039 . S
C173 O178 1.246 . S
C173 O179 1.249 . S
O174 C156 1.254 . S
O174 Zn171 2.025 . S
H175 C167 0.952 . S
H176 C158 0.952 . S
H177 C166 0.948 . S
O178 Zn163 2.034 . S
O178 C173 1.246 . S
O179 Zn171 2.024 . S
O179 C173 1.249 . S
H180 C162 0.948 . S
O181 Zn171 2.039 1_554 S
O181 C185 1.251 . S
O182 Zn163 2.025 1_554 S
O182 C185 1.254 . S
O183 C164 1.246 . S
O183 Zn171 2.034 1_554 S
O184 Zn163 2.024 1_554 S
O184 C164 1.249 . S
C185 O181 1.251 . S
C185 O182 1.254 . S
H186 C159 0.949 . S
H187 C161 0.950 1_554 S
H188 C168 0.949 . S
H189 C170 0.950 . S
C190 O206 1.251 . S
C190 O208 1.254 . S
N191 C192 1.333 1_655 S
N191 C196 1.307 1_556 S
N191 Zn197 2.020 . S
C192 N191 1.333 1_455 S
C192 C193 1.379 . S
C192 H210 0.952 . S
C193 C192 1.379 . S
C193 C194 1.390 1_455 S
C193 H220 0.949 . S
C194 C193 1.390 1_655 S
C194 C195 1.357 1_556 S
C195 C194 1.357 1_554 S
C195 C196 1.370 . S
C195 H221 0.950 . S
C196 N191 1.307 1_554 S
C196 C195 1.370 . S
C196 H214 0.948 . S
Zn197 N191 2.020 . S
Zn197 O206 2.039 1_655 S
Zn197 O212 2.034 . S
Zn197 O216 2.025 1_556 S
Zn197 O218 2.024 1_656 S
C198 O217 1.246 . S
C198 O218 1.249 . S
N199 C200 1.307 . S
N199 C201 1.333 1_456 S
N199 Zn205 2.020 . S
C200 N199 1.307 . S
C200 C204 1.370 . S
C200 H211 0.948 . S
C201 N199 1.333 1_654 S
C201 C202 1.379 . S
C201 H209 0.952 . S
C202 C201 1.379 . S
C202 C203 1.390 1_654 S
C202 H222 0.949 . S
C203 C202 1.390 1_456 S
C203 C204 1.357 . S
C204 C200 1.370 . S
C204 C203 1.357 . S
C204 H223 0.950 . S
Zn205 N199 2.020 . S
Zn205 O208 2.025 . S
Zn205 O213 2.024 1_455 S
Zn205 O215 2.039 1_456 S
Zn205 O217 2.034 1_556 S
O206 C190 1.251 . S
O206 Zn197 2.039 1_455 S
C207 O212 1.246 . S
C207 O213 1.249 . S
O208 C190 1.254 . S
O208 Zn205 2.025 . S
H209 C201 0.952 . S
H210 C192 0.952 . S
H211 C200 0.948 . S
O212 Zn197 2.034 . S
O212 C207 1.246 . S
O213 Zn205 2.024 1_655 S
O213 C207 1.249 . S
H214 C196 0.948 . S
O215 Zn205 2.039 1_654 S
O215 C219 1.251 . S
O216 Zn197 2.025 1_554 S
O216 C219 1.254 . S
O217 C198 1.246 . S
O217 Zn205 2.034 1_554 S
O218 Zn197 2.024 1_454 S
O218 C198 1.249 . S
C219 O215 1.251 . S
C219 O216 1.254 . S
H220 C193 0.949 . S
H221 C195 0.950 . S
H222 C202 0.949 . S
H223 C204 0.950 . S
C74 C105 2.314 . S
C126 C85 1.511 . S
C160 C52 1.975 . S
C194 C63 1.789 1_655 S
C96 C30 2.203 1_545 S
C41 C135 1.554 . S
C8 C169 1.836 . S
C19 C203 1.669 . S
C117 C62 1.929 1_655 S
C122 C73 1.931 . S
C156 C84 1.536 . S
C51 C190 1.162 . S
C18 C88 1.866 1_556 S
C151 C29 1.781 . S
C185 C40 1.490 . S
C7 C219 0.728 . S
C60 C101 1.238 . S
C71 C130 1.896 . S
C164 C82 1.136 . S
C198 C49 1.913 . S
C16 C92 1.594 1_455 S
C139 C27 1.559 . S
C173 C38 1.700 . S
C5 C207 1.442 . S
