# Generated by pormake.
# Topology anh, (6,3)-cn, num edge types: 1
# Building blocks:
#     Node 0, Type 0, BuildingBlock: VOLQOD_clean_sbu_1, # of connection points: 6
#     Node 1, Type 0, BuildingBlock: VOLQOD_clean_sbu_1, # of connection points: 6
#     Node 2, Type 0, BuildingBlock: VOLQOD_clean_sbu_1, # of connection points: 6
#     Node 3, Type 1, BuildingBlock: OLANEW_clean_sbu_2, # of connection points: 3
#     Node 4, Type 1, BuildingBlock: OLANEW_clean_sbu_2, # of connection points: 3
#     Node 5, Type 1, BuildingBlock: OLANEW_clean_sbu_2, # of connection points: 3
#     Node 6, Type 1, BuildingBlock: OLANEW_clean_sbu_2, # of connection points: 3
#     Node 7, Type 1, BuildingBlock: OLANEW_clean_sbu_2, # of connection points: 3
#     Node 8, Type 1, BuildingBlock: OLANEW_clean_sbu_2, # of connection points: 3
#     Edge 9, Type (0, 1), None
#     Edge 10, Type (0, 1), None
#     Edge 11, Type (0, 1), None
#     Edge 12, Type (0, 1), None
#     Edge 13, Type (0, 1), None
#     Edge 14, Type (0, 1), None
#     Edge 15, Type (0, 1), None
#     Edge 16, Type (0, 1), None
#     Edge 17, Type (0, 1), None
#     Edge 18, Type (0, 1), None
#     Edge 19, Type (0, 1), None
#     Edge 20, Type (0, 1), None
#     Edge 21, Type (0, 1), None
#     Edge 22, Type (0, 1), None
#     Edge 23, Type (0, 1), None
#     Edge 24, Type (0, 1), None
#     Edge 25, Type (0, 1), None
#     Edge 26, Type (0, 1), None
# Relax obj value: 0.173
# Max RMSD: 0.207
# Mean RMSD: 0.137
data_MOF--net-anh--node1-VOLQOD_clean_sbu_1--node2-OLANEW_clean_sbu_2--edge1-none
_symmetry_space_group_name_H-M    P1
_symmetry_Int_Tables_number       1
_symmetry_cell_setting            triclinic
loop_
_symmetry_equiv_pos_as_xyz
'x, y, z'
_cell_length_a     17.398272
_cell_length_b     16.645809
_cell_length_c     28.424372
_cell_angle_alpha  94.029439
_cell_angle_beta   89.128759
_cell_angle_gamma 122.36027
loop_
_atom_site_label
_atom_site_type_symbol
_atom_site_fract_x
_atom_site_fract_y
_atom_site_fract_z
_atom_type_partial_charge
O0 O 0.91458 0.53826 0.26574 0.0
Zn1 Zn 0.91564 0.56134 0.1968 0.0
O2 O 0.9344 0.47024 0.15874 0.0
Zn3 Zn 0.8296 0.38683 0.11752 0.0
Zn4 Zn -0.04455 0.39073 0.19846 0.0
Zn5 Zn 0.03731 0.54278 0.1192 0.0
O6 O 0.86144 0.39192 0.04858 0.0
O7 O 0.00429 0.51615 0.04999 0.0
O8 O 0.798 0.55124 0.17675 0.0
O9 O 0.74127 0.42656 0.12388 0.0
O10 O 0.76002 0.25371 0.13749 0.0
O11 O 0.84734 0.25236 0.19331 0.0
O12 O 0.07565 0.40009 0.18324 0.0
O13 O 0.02366 0.69653 0.19334 0.0
O14 O 0.12608 0.50758 0.12975 0.0
O15 O 0.108 0.68279 0.13799 0.0
C16 C 0.93988 0.49199 0.28801 0.0
C17 C 0.93291 0.45071 0.02739 0.0
C18 C 0.7741 0.2107 0.16814 0.0
C19 C 0.73551 0.49066 0.14742 0.0
C20 C 0.13629 0.45379 0.15487 0.0
C21 C 0.09523 0.73295 0.169 0.0
O22 O -0.03855 0.43709 0.26668 0.0
O23 O 0.42217 0.01758 0.38528 0.0
Zn24 Zn 0.39382 0.0208 0.45477 0.0
O25 O 0.4703 -0.00829 0.49121 0.0
Zn26 Zn 0.55442 0.09969 0.53357 0.0
Zn27 Zn 0.5424 0.95842 0.45012 0.0
Zn28 Zn 0.39204 0.88782 0.52981 0.0
O29 O 0.5461 0.06409 0.60076 0.0
O30 O 0.41029 0.92872 0.59962 0.0
O31 O 0.418 0.1526 0.47683 0.0
O32 O 0.52791 0.20181 0.53136 0.0
O33 O 0.68242 0.1641 0.51174 0.0
O34 O 0.67591 0.06461 0.45345 0.0
O35 O 0.52441 0.83074 0.46464 0.0
O36 O 0.25883 0.91698 0.45887 0.0
O37 O 0.41897 0.78631 0.51935 0.0
O38 O 0.26139 0.82306 0.5098 0.0
C39 C 0.46379 0.98424 0.36213 0.0
C40 C 0.48037 -0.00288 0.62198 0.0
C41 C 0.72017 0.14281 0.47892 0.0
C42 C 0.47514 0.21549 0.50758 0.0
C43 C 0.47027 0.77076 0.49325 0.0
C44 C 0.21836 0.84177 0.48139 0.0
O45 O 0.50631 0.95293 0.38256 0.0
O46 O 0.37836 0.45174 0.71418 0.0
Zn47 Zn 0.35518 0.42405 0.78285 0.0
O48 O 0.46511 0.51618 0.82078 0.0
Zn49 Zn 0.44317 0.59865 0.86231 0.0
Zn50 Zn 0.56848 0.59644 0.78071 0.0
Zn51 Zn 0.49306 0.44455 0.86016 0.0
O52 O 0.4679 0.59428 0.9312 0.0
O53 O 0.48344 0.46995 0.92949 0.0
O54 O 0.24565 0.43042 0.80435 0.0
O55 O 0.31394 0.55679 0.85627 0.0
O56 O 0.50848 0.73159 0.8421 0.0
O57 O 0.59903 0.73431 0.78538 0.0
O58 O 0.67991 0.58956 0.79586 0.0
O59 O 0.3294 0.28969 0.78451 0.0
O60 O 0.61896 0.48252 0.84962 0.0
O61 O 0.42403 0.30477 0.84089 0.0
C62 C 0.45198 0.49655 0.69166 0.0
C63 C 0.47829 0.53545 0.95226 0.0
C64 C 0.56663 0.77505 0.81088 0.0
C65 C 0.24353 0.49126 0.83336 0.0
C66 C 0.68515 0.53677 0.82445 0.0
C67 C 0.36334 0.25428 0.80904 0.0
O68 O 0.52948 0.54843 0.7127 0.0
O69 O 0.51117 0.95582 0.28783 0.0
Cd70 Cd 0.54805 0.94291 0.20497 0.0
O71 O 0.40787 -0.00457 0.28885 0.0
Cd72 Cd 0.36903 0.96449 0.21388 0.0
O73 O 0.25193 0.8533 0.17082 0.0
C74 C 0.17234 0.82901 0.18369 0.0
O75 O 0.16331 0.87826 0.21907 0.0
C76 C 0.46134 0.97924 0.31033 0.0
C77 C 0.69811 0.11561 0.17879 0.0
O78 O 0.61643 0.08894 0.1673 0.0
O79 O 0.71022 0.06052 0.20255 0.0
O80 O 0.5207 0.52566 0.61693 0.0
Cd81 Cd 0.51852 0.49233 0.53141 0.0
O82 O 0.37175 0.45112 0.61787 0.0
Cd83 Cd 0.37603 0.48486 0.54476 0.0
O84 O 0.39912 0.61713 0.5203 0.0
C85 C 0.46461 0.68041 0.49743 0.0
O86 O 0.52882 0.66764 0.4815 0.0
C87 C 0.44774 0.49002 0.63991 0.0
C88 C 0.48746 0.30993 0.51419 0.0
O89 O 0.56549 0.38221 0.5276 0.0
O90 O 0.42222 0.32275 0.50758 0.0
O91 O 0.00348 0.50032 0.95387 0.0
Cd92 Cd 0.00805 0.49406 0.86753 0.0
O93 O 0.85598 0.39778 0.95284 0.0
Cd94 Cd 0.84631 0.42421 0.87979 0.0
O95 O 0.7577 0.46452 0.85163 0.0
C96 C 0.76626 0.53203 0.82899 0.0
O97 O 0.84574 0.59786 0.81389 0.0
C98 C 0.93106 0.44769 0.97569 0.0
C99 C 0.15957 0.48959 0.84135 0.0
O100 O 0.16462 0.56726 0.85506 0.0
O101 O 0.08125 0.41178 0.83826 0.0
O102 O 0.93279 0.56426 0.3614 0.0
Cd103 Cd 0.94386 0.62153 0.44457 0.0
O104 O -0.04422 0.44531 0.36212 0.0
Cd105 Cd 0.9402 0.41954 0.43697 0.0
O106 O 0.84047 0.30432 0.47875 0.0
C107 C 0.81004 0.21823 0.46386 0.0
O108 O 0.84631 0.20106 0.42672 0.0
C109 C 0.94332 0.50127 0.33981 0.0
C110 C 0.12218 0.76843 0.47055 0.0
O111 O 0.08981 0.68237 0.48072 0.0
O112 O 0.07041 0.78653 0.44822 0.0
O113 O 0.56096 0.0335 0.69444 0.0
Cd114 Cd 0.61101 0.04265 0.77629 0.0
O115 O 0.41297 0.97812 0.69653 0.0
Cd116 Cd 0.4059 0.02037 0.77036 0.0
O117 O 0.39856 0.13498 0.80922 0.0
C118 C 0.34529 0.15896 0.7945 0.0
O119 O 0.28929 0.10893 0.75863 0.0
C120 C 0.48459 0.00156 0.67361 0.0
C121 C 0.58635 0.86961 0.80044 0.0
O122 O 0.53124 0.89529 0.81333 0.0
O123 O 0.65441 0.92551 0.77594 0.0
O124 O 0.49326 0.48438 0.02565 0.0
Cd125 Cd 0.49915 0.48818 0.11209 0.0
O126 O 0.4547 0.59021 0.02705 0.0
Cd127 Cd 0.41579 0.56591 0.10038 0.0
O128 O 0.28473 0.52768 0.12814 0.0
C129 C 0.22293 0.45947 0.15038 0.0
O130 O 0.23439 0.39336 0.16493 0.0
C131 C 0.47756 0.53853 0.004 0.0
C132 C 0.6535 0.49204 0.13922 0.0
O133 O 0.58023 0.41469 0.12459 0.0
O134 O 0.65441 0.56968 0.14263 0.0
loop_
_geom_bond_atom_site_label_1
_geom_bond_atom_site_label_2
_geom_bond_distance
_geom_bond_site_symmetry_2
_ccdc_geom_bond_type
O0 Zn1 1.953 . S
O0 C16 1.225 1_655 S
Zn1 O0 1.953 . S
Zn1 O2 1.949 1_655 S
Zn1 O8 1.919 . S
Zn1 O13 1.924 1_655 S
O2 Zn1 1.949 1_455 S
O2 Zn3 1.923 1_455 S
O2 Zn4 1.950 . S
O2 Zn5 1.945 . S
Zn3 O2 1.923 1_655 S
Zn3 O6 1.933 . S
Zn3 O9 1.941 . S
Zn3 O10 1.965 . S
Zn4 O2 1.950 . S
Zn4 O11 1.938 1_455 S
Zn4 O12 1.906 . S
Zn4 O22 1.953 . S
Zn5 O2 1.945 . S
Zn5 O7 1.932 . S
Zn5 O14 1.977 . S
Zn5 O15 1.910 . S
O6 Zn3 1.933 . S
O6 C17 1.226 1_655 S
O7 Zn5 1.932 . S
O7 C17 1.307 . S
O8 Zn1 1.919 . S
O8 C19 1.253 . S
O9 Zn3 1.941 . S
O9 C19 1.283 . S
O10 Zn3 1.965 . S
O10 C18 1.303 . S
O11 Zn4 1.938 1_655 S
O11 C18 1.247 . S
O12 Zn4 1.906 . S
O12 C20 1.304 . S
O13 Zn1 1.924 1_455 S
O13 C21 1.311 . S
O14 Zn5 1.977 . S
O14 C20 1.272 . S
O15 Zn5 1.910 . S
O15 C21 1.231 . S
C16 O0 1.225 1_455 S
C16 O22 1.298 . S
C17 O6 1.226 1_455 S
C17 O7 1.307 . S
C18 O10 1.303 . S
C18 O11 1.247 . S
C19 O8 1.253 . S
C19 O9 1.283 . S
C20 O12 1.304 . S
C20 O14 1.272 . S
C21 O13 1.311 . S
C21 O15 1.231 . S
O22 Zn4 1.953 . S
O22 C16 1.298 . S
O23 Zn24 1.953 . S
O23 C39 1.225 . S
Zn24 O23 1.953 . S
Zn24 O25 1.949 . S
Zn24 O31 1.919 . S
Zn24 O36 1.924 1_545 S
O25 Zn24 1.949 . S
O25 Zn26 1.923 . S
O25 Zn27 1.950 1_545 S
O25 Zn28 1.945 1_545 S
Zn26 O25 1.923 . S
Zn26 O29 1.933 . S
Zn26 O32 1.941 . S
Zn26 O33 1.965 . S
Zn27 O25 1.950 1_565 S
Zn27 O34 1.938 1_565 S
Zn27 O35 1.906 . S
Zn27 O45 1.953 . S
Zn28 O25 1.945 1_565 S
Zn28 O30 1.932 . S
Zn28 O37 1.977 . S
Zn28 O38 1.910 . S
O29 Zn26 1.933 . S
O29 C40 1.226 . S
O30 Zn28 1.932 . S
O30 C40 1.307 1_565 S
O31 Zn24 1.919 . S
O31 C42 1.253 . S
O32 Zn26 1.941 . S
O32 C42 1.283 . S
O33 Zn26 1.965 . S
O33 C41 1.303 . S
O34 Zn27 1.938 1_545 S
O34 C41 1.247 . S
O35 Zn27 1.906 . S
O35 C43 1.304 . S
O36 Zn24 1.924 1_565 S
O36 C44 1.311 . S
O37 Zn28 1.977 . S
O37 C43 1.272 . S
O38 Zn28 1.910 . S
O38 C44 1.231 . S
C39 O23 1.225 . S
C39 O45 1.298 1_545 S
C40 O29 1.226 . S
C40 O30 1.307 1_545 S
C41 O33 1.303 . S
C41 O34 1.247 . S
C42 O31 1.253 . S
C42 O32 1.283 . S
C43 O35 1.304 . S
C43 O37 1.272 . S
C44 O36 1.311 . S
C44 O38 1.231 . S
O45 Zn27 1.953 . S
O45 C39 1.298 1_565 S
O46 Zn47 1.953 . S
O46 C62 1.225 . S
Zn47 O46 1.953 . S
Zn47 O48 1.949 . S
Zn47 O54 1.919 . S
Zn47 O59 1.924 . S
O48 Zn47 1.949 . S
O48 Zn49 1.923 . S
O48 Zn50 1.950 . S
O48 Zn51 1.945 . S
Zn49 O48 1.923 . S
Zn49 O52 1.933 . S
Zn49 O55 1.941 . S
Zn49 O56 1.965 . S
Zn50 O48 1.950 . S
Zn50 O57 1.938 . S
Zn50 O58 1.906 . S
Zn50 O68 1.953 . S
Zn51 O48 1.945 . S
Zn51 O53 1.932 . S
Zn51 O60 1.977 . S
Zn51 O61 1.910 . S
O52 Zn49 1.933 . S
O52 C63 1.226 . S
O53 Zn51 1.932 . S
O53 C63 1.307 . S
O54 Zn47 1.919 . S
O54 C65 1.253 . S
O55 Zn49 1.941 . S
O55 C65 1.283 . S
O56 Zn49 1.965 . S
O56 C64 1.303 . S
O57 Zn50 1.938 . S
O57 C64 1.247 . S
O58 Zn50 1.906 . S
O58 C66 1.304 . S
O59 Zn47 1.924 . S
O59 C67 1.311 . S
O60 Zn51 1.977 . S
O60 C66 1.272 . S
O61 Zn51 1.910 . S
O61 C67 1.231 . S
C62 O46 1.225 . S
C62 O68 1.298 . S
C63 O52 1.226 . S
C63 O53 1.307 . S
C64 O56 1.303 . S
C64 O57 1.247 . S
C65 O54 1.253 . S
C65 O55 1.283 . S
C66 O58 1.304 . S
C66 O60 1.272 . S
C67 O59 1.311 . S
C67 O61 1.231 . S
O68 Zn50 1.953 . S
O68 C62 1.298 . S
O69 Cd70 2.300 . S
O69 C76 1.275 1_545 S
Cd70 O69 2.300 . S
Cd70 O78 2.381 . S
Cd70 O79 2.378 . S
O71 Cd72 2.385 . S
O71 C76 1.255 . S
Cd72 O71 2.385 . S
Cd72 O73 2.317 . S
O73 Cd72 2.317 . S
O73 C74 1.232 . S
C74 O73 1.232 . S
C74 O75 1.218 . S
O75 C74 1.218 . S
C76 O69 1.275 1_565 S
C76 O71 1.255 . S
C77 O78 1.258 . S
C77 O79 1.256 . S
O78 Cd70 2.381 . S
O78 C77 1.258 . S
O79 Cd70 2.378 . S
O79 C77 1.256 . S
O80 Cd81 2.300 . S
O80 C87 1.275 . S
Cd81 O80 2.300 . S
Cd81 O89 2.381 . S
Cd81 O90 2.378 . S
O82 Cd83 2.385 . S
O82 C87 1.255 . S
Cd83 O82 2.385 . S
Cd83 O84 2.317 . S
O84 Cd83 2.317 . S
O84 C85 1.232 . S
C85 O84 1.232 . S
C85 O86 1.218 . S
O86 C85 1.218 . S
C87 O80 1.275 . S
C87 O82 1.255 . S
C88 O89 1.258 . S
C88 O90 1.256 . S
O89 Cd81 2.381 . S
O89 C88 1.258 . S
O90 Cd81 2.378 . S
O90 C88 1.256 . S
O91 Cd92 2.300 . S
O91 C98 1.275 1_455 S
Cd92 O91 2.300 . S
Cd92 O100 2.381 . S
Cd92 O101 2.378 . S
O93 Cd94 2.385 . S
O93 C98 1.255 . S
Cd94 O93 2.385 . S
Cd94 O95 2.317 . S
O95 Cd94 2.317 . S
O95 C96 1.232 . S
C96 O95 1.232 . S
C96 O97 1.218 . S
O97 C96 1.218 . S
C98 O91 1.275 1_655 S
C98 O93 1.255 . S
C99 O100 1.258 . S
C99 O101 1.256 . S
O100 Cd92 2.381 . S
O100 C99 1.258 . S
O101 Cd92 2.378 . S
O101 C99 1.256 . S
O102 Cd103 2.300 . S
O102 C109 1.275 1_455 S
Cd103 O102 2.300 . S
Cd103 O111 2.381 . S
Cd103 O112 2.378 . S
O104 Cd105 2.385 . S
O104 C109 1.255 . S
Cd105 O104 2.385 . S
Cd105 O106 2.317 . S
O106 Cd105 2.317 . S
O106 C107 1.232 . S
C107 O106 1.232 . S
C107 O108 1.218 . S
O108 C107 1.218 . S
C109 O102 1.275 1_655 S
C109 O104 1.255 . S
C110 O111 1.258 . S
C110 O112 1.256 . S
O111 Cd103 2.381 . S
O111 C110 1.258 . S
O112 Cd103 2.378 . S
O112 C110 1.256 . S
O113 Cd114 2.300 . S
O113 C120 1.275 1_565 S
Cd114 O113 2.300 . S
Cd114 O122 2.381 . S
Cd114 O123 2.378 . S
O115 Cd116 2.385 . S
O115 C120 1.255 . S
Cd116 O115 2.385 . S
Cd116 O117 2.317 . S
O117 Cd116 2.317 . S
O117 C118 1.232 . S
C118 O117 1.232 . S
C118 O119 1.218 . S
O119 C118 1.218 . S
C120 O113 1.275 1_545 S
C120 O115 1.255 . S
C121 O122 1.258 . S
C121 O123 1.256 . S
O122 Cd114 2.381 . S
O122 C121 1.258 . S
O123 Cd114 2.378 . S
O123 C121 1.256 . S
O124 Cd125 2.300 . S
O124 C131 1.275 . S
Cd125 O124 2.300 . S
Cd125 O133 2.381 . S
Cd125 O134 2.378 . S
O126 Cd127 2.385 . S
O126 C131 1.255 . S
Cd127 O126 2.385 . S
Cd127 O128 2.317 . S
O128 Cd127 2.317 . S
O128 C129 1.232 . S
C129 O128 1.232 . S
C129 O130 1.218 . S
O130 C129 1.218 . S
C131 O124 1.275 . S
C131 O126 1.255 . S
C132 O133 1.258 . S
C132 O134 1.256 . S
O133 Cd125 2.381 . S
O133 C132 1.258 . S
O134 Cd125 2.378 . S
O134 C132 1.256 . S
C20 C129 1.722 . S
C41 C107 2.146 . S
C64 C121 1.490 . S
C19 C132 1.256 . S
C110 C44 1.334 . S
C118 C67 1.967 . S
C43 C85 1.792 . S
C66 C96 1.721 . S
C21 C74 2.030 . S
C88 C42 1.207 . S
C99 C65 1.258 . S
C18 C77 1.436 . S
C98 C17 1.392 1_656 S
C39 C76 1.414 1_545 S
C62 C87 1.413 . S
C120 C40 1.379 . S
C131 C63 1.391 1_554 S
C16 C109 1.413 1_455 S
