# Generated by pormake.
# Topology pts, (4,4)-cn, num edge types: 1
# Building blocks:
#     Node 0, Type 0, BuildingBlock: MUDLON_clean_sbu_0, # of connection points: 4
#     Node 1, Type 0, BuildingBlock: MUDLON_clean_sbu_0, # of connection points: 4
#     Node 2, Type 1, BuildingBlock: AZAVOO_clean_sbu_0, # of connection points: 4
#     Node 3, Type 1, BuildingBlock: AZAVOO_clean_sbu_0, # of connection points: 4
#     Edge 4, Type (0, 1), BuildingBlock: KIFKEQ_clean_linker_1, # of connection points: 2
#     Edge 5, Type (0, 1), BuildingBlock: KIFKEQ_clean_linker_1, # of connection points: 2
#     Edge 6, Type (0, 1), BuildingBlock: KIFKEQ_clean_linker_1, # of connection points: 2
#     Edge 7, Type (0, 1), BuildingBlock: KIFKEQ_clean_linker_1, # of connection points: 2
#     Edge 8, Type (0, 1), BuildingBlock: KIFKEQ_clean_linker_1, # of connection points: 2
#     Edge 9, Type (0, 1), BuildingBlock: KIFKEQ_clean_linker_1, # of connection points: 2
#     Edge 10, Type (0, 1), BuildingBlock: KIFKEQ_clean_linker_1, # of connection points: 2
#     Edge 11, Type (0, 1), BuildingBlock: KIFKEQ_clean_linker_1, # of connection points: 2
# Relax obj value: 0.032
# Max RMSD: 0.087
# Mean RMSD: 0.074
data_MOF--net-pts--node1-MUDLON_clean_sbu_0--node2-AZAVOO_clean_sbu_0--edge1-KIFKEQ_clean_linker_1
_symmetry_space_group_name_H-M    P1
_symmetry_Int_Tables_number       1
_symmetry_cell_setting            triclinic
loop_
_symmetry_equiv_pos_as_xyz
'x, y, z'
_cell_length_a     22.594748
_cell_length_b     23.948919
_cell_length_c     39.337097
_cell_angle_alpha  89.931175
_cell_angle_beta   95.849204
_cell_angle_gamma 90.384
loop_
_atom_site_label
_atom_site_type_symbol
_atom_site_fract_x
_atom_site_fract_y
_atom_site_fract_z
_atom_type_partial_charge
Mg0 Mg 0.58461 0.03208 0.02406 0.0
C1 C 0.53258 0.09447 0.95948 0.0
O2 O 0.5858 0.08721 0.94962 0.0
C3 C 0.65914 0.04059 0.08859 0.0
O4 O 0.63407 0.99098 0.08857 0.0
C5 C 0.4693 0.99039 0.04939 0.0
O6 O 0.44689 0.01961 0.02295 0.0
O7 O 0.52534 0.98281 0.05367 0.0
O8 O 0.52392 0.08284 0.99014 0.0
O9 O 0.64651 0.99017 0.99332 0.0
C10 C 0.63429 0.9699 0.96353 0.0
O11 O 0.57834 0.96557 0.95087 0.0
O12 O 0.64555 0.07297 0.0633 0.0
Mg13 Mg 0.07891 0.51263 0.5305 0.0
C14 C 0.16236 0.59656 0.57353 0.0
O15 O 0.18528 0.60816 0.54494 0.0
C16 C 0.15253 0.41751 0.50514 0.0
O17 O 0.14191 0.39454 0.53428 0.0
C18 C 0.02877 0.62247 0.5019 0.0
O19 O 0.04383 0.6387 0.5335 0.0
O20 O 0.03344 0.57114 0.49449 0.0
O21 O 0.12276 0.55869 0.57367 0.0
O22 O 0.02256 0.45103 0.55268 0.0
C23 C 1.01269 0.45545 0.58388 0.0
O24 O 0.02989 0.50108 0.60066 0.0
O25 O 0.13603 0.46744 0.49892 0.0
Mg26 Mg 0.13377 -0.00226 0.3013 0.0
O27 O 0.04536 0.02164 0.26942 0.0
O28 O 0.97874 0.03598 0.3067 0.0
Mg29 Mg 0.0209 0.02034 0.36092 0.0
C30 C 0.99298 0.03483 0.27613 0.0
C31 C 0.2232 0.96951 0.24981 0.0
O32 O 0.22978 0.92861 0.27215 0.0
O33 O 0.14989 0.08899 0.31896 0.0
O34 O 0.08121 0.09623 0.356 0.0
O35 O 0.10832 0.90656 0.30129 0.0
O36 O 0.08695 0.9664 0.34057 0.0
C37 C 0.12384 0.11659 0.3409 0.0
C38 C 0.08362 0.91622 0.32895 0.0
O39 O 0.18591 0.0078 0.25434 0.0
Mg40 Mg 0.05125 0.98706 0.75552 0.0
O41 O 0.13684 0.01865 0.7878 0.0
O42 O 0.20417 0.03124 0.75044 0.0
Mg43 Mg 0.16766 0.00206 0.69706 0.0
C44 C 0.18862 0.034 0.78072 0.0
C45 C 0.95229 0.96237 0.79965 0.0
O46 O 0.95093 0.92253 0.77663 0.0
O47 O 0.03402 0.07512 0.73179 0.0
O48 O 0.10129 0.07331 0.69379 0.0
O49 O 0.07977 0.89653 0.76148 0.0
O50 O 0.10187 0.95153 0.71988 0.0
C51 C 0.05776 0.09643 0.70647 0.0
C52 C 0.10568 0.90319 0.7339 0.0
O53 O 0.99169 0.00061 0.79901 0.0
H54 H 0.50388 0.95023 0.11378 0.0
H55 H 0.34896 0.00226 0.04821 0.0
H56 H 0.44365 0.94329 0.16172 0.0
H57 H 0.28871 0.99447 0.09594 0.0
H58 H 0.21971 0.04564 0.19733 0.0
H59 H 0.27795 0.04532 0.14832 0.0
H60 H 0.3636 0.89302 0.18514 0.0
H61 H 0.30633 0.89386 0.23432 0.0
C62 C 0.45677 0.95908 0.10938 0.0
C63 C 0.43142 0.97707 0.07712 0.0
C64 C 0.42216 0.95514 0.13692 0.0
C65 C 0.36138 0.96906 0.13285 0.0
C66 C 0.33559 0.98462 0.1002 0.0
C67 C 0.37012 0.98854 0.07272 0.0
C68 C 0.25098 0.01213 0.19498 0.0
C69 C 0.25833 0.96988 0.21984 0.0
C70 C 0.2841 0.01167 0.16673 0.0
C71 C 0.32544 0.96901 0.16267 0.0
C72 C 0.33272 0.92683 0.18758 0.0
C73 C 0.29958 0.92722 0.21575 0.0
H74 H 0.96725 0.35651 0.55767 0.0
H75 H 1.01883 0.44109 0.65315 0.0
H76 H 0.95928 0.26884 0.58844 0.0
H77 H 1.01312 0.35309 0.68374 0.0
H78 H 0.99211 0.18146 0.73203 0.0
H79 H 0.96149 0.26926 0.70287 0.0
H80 H 0.04065 0.2141 0.61333 0.0
H81 H 0.06973 0.12795 0.64164 0.0
C82 C 0.97584 0.35662 0.58527 0.0
C83 C 0.99491 0.40555 0.60284 0.0
C84 C 0.97152 0.30633 0.60294 0.0
C85 C 0.98706 0.30364 0.6385 0.0
C86 C 1.00078 0.35356 0.65641 0.0
C87 C 1.00442 0.40406 0.63876 0.0
C88 C 1.00202 0.18809 0.70597 0.0
C89 C 0.034 0.14803 0.68936 0.0
C90 C 0.98469 0.2383 0.6893 0.0
C91 C 0.99825 0.24865 0.65563 0.0
C92 C 0.02826 0.20742 0.63891 0.0
C93 C 0.0458 0.15806 0.65547 0.0
H94 H 0.66319 0.00587 0.15394 0.0
H95 H 0.76036 0.1046 0.08616 0.0
H96 H 0.74531 0.01423 0.19859 0.0
H97 H 0.84382 0.11288 0.13133 0.0
H98 H 0.9995 0.02928 0.20653 0.0
H99 H 0.91836 0.04274 0.16104 0.0
H100 H 0.79989 0.08413 0.23652 0.0
H101 H 0.87991 0.07045 0.28174 0.0
C102 C 0.70186 0.0303 0.14884 0.0
C103 C 0.70536 0.0547 0.11664 0.0
C104 C 0.74891 0.03522 0.17447 0.0
C105 C 0.80114 0.06414 0.16849 0.0
C106 C 0.80418 0.09011 0.13657 0.0
C107 C 0.75631 0.08591 0.11091 0.0
C108 C 0.95632 0.04186 0.21338 0.0
C109 C 0.94616 0.04784 0.24791 0.0
C110 C 0.90999 0.04997 0.18729 0.0
C111 C 0.85263 0.06403 0.19525 0.0
C112 C 0.84336 0.07256 0.2296 0.0
C113 C 0.88941 0.06463 0.25555 0.0
H114 H 0.10731 0.5937 0.63215 0.0
H115 H 0.24068 0.68472 0.58296 0.0
H116 H 0.10918 0.66485 0.67588 0.0
H117 H 0.24473 0.75515 0.62793 0.0
H118 H 0.15143 0.90551 0.67259 0.0
H119 H 0.18033 0.82743 0.63947 0.0
H120 H 0.15339 0.71584 0.72309 0.0
H121 H 0.12211 0.79489 0.75612 0.0
C122 C 0.13831 0.62821 0.63114 0.0
C123 C 0.17299 0.63403 0.60358 0.0
C124 C 0.13976 0.669 0.65655 0.0
C125 C 0.17646 0.71647 0.65534 0.0
C126 C 0.21478 0.71991 0.62927 0.0
C127 C 0.2128 0.67932 0.60357 0.0
C128 C 0.15293 0.86464 0.68439 0.0
C129 C 0.13396 0.85652 0.71699 0.0
C130 C 0.16997 0.81954 0.66532 0.0
C131 C 0.1689 0.7649 0.67835 0.0
C132 C 0.15372 0.75717 0.71194 0.0
C133 C 0.13618 0.80251 0.73101 0.0
H134 H 0.53113 0.09259 0.88999 0.0
H135 H 0.4156 0.10996 0.97027 0.0
H136 H 0.44506 0.08539 0.84806 0.0
H137 H 0.3289 0.10486 0.92797 0.0
H138 H 0.19488 0.01231 0.84963 0.0
H139 H 0.27579 0.03677 0.89314 0.0
H140 H 0.36357 0.12788 0.81744 0.0
H141 H 0.2843 0.10131 0.77396 0.0
C142 C 0.48734 0.09645 0.89864 0.0
C143 C 0.48047 0.10153 0.93359 0.0
C144 C 0.43765 0.09245 0.87446 0.0
C145 C 0.37956 0.09405 0.88448 0.0
C146 C 0.37276 0.10227 0.9193 0.0
C147 C 0.42258 0.10581 0.94356 0.0
C148 C 0.23121 0.03804 0.84244 0.0
C149 C 0.23352 0.05417 0.80824 0.0
C150 C 0.27758 0.05239 0.86743 0.0
C151 C 0.32695 0.08387 0.85888 0.0
C152 C 0.32734 0.10239 0.82495 0.0
C153 C 0.28158 0.08738 0.79997 0.0
H154 H 0.14717 0.44292 0.43703 0.0
H155 H 0.19783 0.31174 0.50952 0.0
H156 H 0.15623 0.37816 0.38999 0.0
H157 H 0.20748 0.24733 0.46238 0.0
H158 H 0.23393 0.14264 0.3713 0.0
H159 H 0.25863 0.22421 0.40794 0.0
H160 H 0.08645 0.2943 0.37567 0.0
H161 H 0.06162 0.2125 0.33999 0.0
C162 C 0.16189 0.40076 0.44299 0.0
C163 C 0.17093 0.38226 0.4771 0.0
C164 C 0.16697 0.36371 0.41599 0.0
C165 C 0.18219 0.30768 0.42251 0.0
C166 C 0.19613 0.29041 0.45655 0.0
C167 C 0.19023 0.32724 0.48358 0.0
C168 C 0.20262 0.17675 0.37097 0.0
C169 C 0.14615 0.17182 0.35267 0.0
C170 C 0.21644 0.22304 0.39217 0.0
C171 C 0.17435 0.26543 0.39477 0.0
C172 C 0.12004 0.26265 0.37394 0.0
C173 C 0.1058 0.21594 0.35343 0.0
H174 H 0.62468 0.93548 0.89677 0.0
H175 H 0.754 0.98771 0.97929 0.0
H176 H 0.70259 0.93321 0.85828 0.0
H177 H 0.83206 0.98472 0.94083 0.0
H178 H 0.93883 0.03791 0.85117 0.0
H179 H 0.86345 0.03639 0.89174 0.0
H180 H 0.79091 0.8832 0.84651 0.0
H181 H 0.86502 0.88513 0.80593 0.0
C182 C 0.66985 0.94565 0.90687 0.0
C183 C 0.68287 0.96176 0.94119 0.0
C184 C 0.71465 0.94431 0.88477 0.0
C185 C 0.77369 0.95915 0.89635 0.0
C186 C 0.78699 0.97391 0.93089 0.0
C187 C 0.74222 0.97505 0.95304 0.0
C188 C 0.90682 0.00393 0.84996 0.0
C189 C 0.90794 0.96185 0.82515 0.0
C190 C 0.8638 0.00283 0.87333 0.0
C191 C 0.82085 0.95972 0.87235 0.0
C192 C 0.82257 0.91747 0.84773 0.0
C193 C 0.86545 0.9185 0.82452 0.0
H194 H 0.03083 0.73592 0.50816 0.0
H195 H 1.00441 0.60442 0.43294 0.0
H196 H 0.03139 0.80461 0.46289 0.0
H197 H 1.00303 0.67371 0.3873 0.0
H198 H 0.10117 0.8039 0.32381 0.0
H199 H 0.07461 0.73157 0.36328 0.0
H200 H 0.9793 0.8534 0.41721 0.0
H201 H 1.00791 0.92568 0.37868 0.0
C202 C 0.02366 0.72173 0.48192 0.0
C203 C 1.01816 0.66454 0.47426 0.0
C204 C 0.02363 0.7613 0.45581 0.0
C205 C 1.01764 0.74486 0.42127 0.0
C206 C 1.00879 0.68785 0.41358 0.0
C207 C 1.00909 0.64814 0.43977 0.0
C208 C 0.07355 0.81498 0.34368 0.0
C209 C 0.05744 0.8708 0.34836 0.0
C210 C 0.05808 0.77341 0.36632 0.0
C211 C 0.02557 0.78669 0.39391 0.0
C212 C 1.00572 0.84183 0.39688 0.0
C213 C 0.02184 0.88338 0.37457 0.0
loop_
_geom_bond_atom_site_label_1
_geom_bond_atom_site_label_2
_geom_bond_distance
_geom_bond_site_symmetry_2
_ccdc_geom_bond_type
Mg0 O7 2.141 . S
Mg0 O8 2.048 1_554 S
Mg0 O9 2.048 1_554 S
Mg0 O12 2.141 . S
C1 O2 1.313 1_545 S
C1 O8 1.195 . S
O2 C1 1.313 1_565 S
C3 O4 1.245 1_545 S
C3 O12 1.289 . S
O4 C3 1.245 1_565 S
C5 O6 1.245 1_545 S
C5 O7 1.289 . S
O6 C5 1.245 1_565 S
O7 Mg0 2.141 . S
O7 C5 1.289 . S
O8 Mg0 2.048 1_556 S
O8 C1 1.195 . S
O9 Mg0 2.048 1_556 S
O9 C10 1.195 . S
C10 O9 1.195 . S
C10 O11 1.313 1_545 S
O11 C10 1.313 1_565 S
O12 Mg0 2.141 . S
O12 C3 1.289 . S
Mg13 O20 2.141 . S
Mg13 O21 2.048 . S
Mg13 O22 2.048 . S
Mg13 O25 2.141 . S
C14 O15 1.313 . S
C14 O21 1.195 . S
O15 C14 1.313 . S
C16 O17 1.245 . S
C16 O25 1.289 . S
O17 C16 1.245 . S
C18 O19 1.245 . S
C18 O20 1.289 . S
O19 C18 1.245 . S
O20 Mg13 2.141 . S
O20 C18 1.289 . S
O21 Mg13 2.048 . S
O21 C14 1.195 . S
O22 Mg13 2.048 . S
O22 C23 1.195 . S
C23 O22 1.195 . S
C23 O24 1.313 . S
O24 C23 1.313 . S
O25 Mg13 2.141 . S
O25 C16 1.289 . S
Mg26 O27 2.028 . S
Mg26 O33 1.986 . S
Mg26 O35 2.114 1_545 S
Mg26 O36 2.251 1_545 S
Mg26 O39 2.010 . S
O27 Mg26 2.028 . S
O27 C30 1.250 . S
O28 Mg29 2.028 . S
O28 C30 1.248 1_655 S
Mg29 O28 2.028 . S
Mg29 O34 2.032 1_655 S
Mg29 O36 2.079 1_645 S
C30 O27 1.250 . S
C30 O28 1.248 1_455 S
C31 O32 1.264 . S
C31 O39 1.249 . S
O32 C31 1.264 . S
O33 Mg26 1.986 . S
O33 C37 1.246 . S
O34 Mg29 2.032 1_455 S
O34 C37 1.259 . S
O35 Mg26 2.114 1_565 S
O35 C38 1.252 . S
O36 Mg26 2.251 1_565 S
O36 Mg29 2.079 1_465 S
O36 C38 1.273 . S
C37 O33 1.246 . S
C37 O34 1.259 . S
C38 O35 1.252 . S
C38 O36 1.273 . S
O39 Mg26 2.010 . S
O39 C31 1.249 . S
Mg40 O41 2.028 . S
Mg40 O47 1.986 . S
Mg40 O49 2.114 1_545 S
Mg40 O50 2.251 1_545 S
Mg40 O53 2.010 1_455 S
O41 Mg40 2.028 . S
O41 C44 1.250 . S
O42 Mg43 2.028 . S
O42 C44 1.248 . S
Mg43 O42 2.028 . S
Mg43 O48 2.032 . S
Mg43 O50 2.079 1_545 S
C44 O41 1.250 . S
C44 O42 1.248 . S
C45 O46 1.264 . S
C45 O53 1.249 . S
O46 C45 1.264 . S
O47 Mg40 1.986 . S
O47 C51 1.246 . S
O48 Mg43 2.032 . S
O48 C51 1.259 . S
O49 Mg40 2.114 1_565 S
O49 C52 1.252 . S
O50 Mg40 2.251 1_565 S
O50 Mg43 2.079 1_565 S
O50 C52 1.273 . S
C51 O47 1.246 . S
C51 O48 1.259 . S
C52 O49 1.252 . S
C52 O50 1.273 . S
O53 Mg40 2.010 1_655 S
O53 C45 1.249 . S
H54 C62 0.950 . S
H55 C67 0.950 . S
H56 C64 0.950 . S
H57 C66 0.950 . S
H58 C68 0.952 . S
H59 C70 0.950 . S
H60 C72 0.950 . S
H61 C73 0.950 . S
C62 H54 0.950 . S
C62 C63 1.386 . S
C62 C64 1.391 . S
C63 C62 1.386 . S
C63 C67 1.393 1_545 S
C64 H56 0.950 . S
C64 C62 1.391 . S
C64 C65 1.400 . S
C65 C64 1.400 . S
C65 C66 1.398 1_545 S
C65 C71 1.491 . S
C66 H57 0.950 . S
C66 C65 1.398 1_565 S
C66 C67 1.391 . S
C67 H55 0.950 . S
C67 C63 1.393 1_565 S
C67 C66 1.391 . S
C68 H58 0.952 . S
C68 C69 1.383 1_565 S
C68 C70 1.391 . S
C69 C68 1.383 1_545 S
C69 C73 1.393 . S
C70 H59 0.950 . S
C70 C68 1.391 . S
C70 C71 1.400 1_565 S
C71 C65 1.491 . S
C71 C70 1.400 1_545 S
C71 C72 1.398 . S
C72 H60 0.950 . S
C72 C71 1.398 . S
C72 C73 1.391 . S
C73 H61 0.950 . S
C73 C69 1.393 . S
C73 C72 1.391 . S
H74 C82 0.950 1_655 S
H75 C87 0.950 . S
H76 C84 0.950 1_655 S
H77 C86 0.950 . S
H78 C88 0.950 . S
H79 C90 0.950 . S
H80 C92 0.950 . S
H81 C93 0.950 . S
C82 H74 0.950 1_455 S
C82 C83 1.386 . S
C82 C84 1.391 . S
C83 C82 1.386 . S
C83 C87 1.393 . S
C84 H76 0.950 1_455 S
C84 C82 1.391 . S
C84 C85 1.400 . S
C85 C84 1.400 . S
C85 C86 1.398 . S
C85 C91 1.491 . S
C86 H77 0.950 . S
C86 C85 1.398 . S
C86 C87 1.391 . S
C87 H75 0.950 . S
C87 C83 1.393 . S
C87 C86 1.391 . S
C88 H78 0.950 . S
C88 C89 1.386 . S
C88 C90 1.391 . S
C89 C88 1.386 . S
C89 C93 1.393 1_455 S
C90 H79 0.950 . S
C90 C88 1.391 . S
C90 C91 1.400 . S
C91 C85 1.491 . S
C91 C90 1.400 . S
C91 C92 1.398 1_455 S
C92 H80 0.950 . S
C92 C91 1.398 1_655 S
C92 C93 1.391 . S
C93 H81 0.950 . S
C93 C89 1.393 1_655 S
C93 C92 1.391 . S
H94 C102 0.950 . S
H95 C107 0.950 . S
H96 C104 0.950 . S
H97 C106 0.950 . S
H98 C108 0.950 . S
H99 C110 0.950 . S
H100 C112 0.950 . S
H101 C113 0.950 . S
C102 H94 0.950 . S
C102 C103 1.386 1_565 S
C102 C104 1.391 . S
C103 C102 1.386 1_545 S
C103 C107 1.393 . S
C104 H96 0.950 . S
C104 C102 1.391 . S
C104 C105 1.400 1_565 S
C105 C104 1.400 1_545 S
C105 C106 1.398 . S
C105 C111 1.491 . S
C106 H97 0.950 . S
C106 C105 1.398 . S
C106 C107 1.391 . S
C107 H95 0.950 . S
C107 C103 1.393 . S
C107 C106 1.391 . S
C108 H98 0.950 . S
C108 C109 1.386 . S
C108 C110 1.391 . S
C109 C108 1.386 . S
C109 C113 1.393 1_545 S
C110 H99 0.950 . S
C110 C108 1.391 . S
C110 C111 1.400 . S
C111 C105 1.491 . S
C111 C110 1.400 . S
C111 C112 1.398 1_545 S
C112 H100 0.950 . S
C112 C111 1.398 1_565 S
C112 C113 1.391 . S
C113 H101 0.950 . S
C113 C109 1.393 1_565 S
C113 C112 1.391 . S
H114 C122 0.950 1_655 S
H115 C127 0.950 . S
H116 C124 0.950 1_655 S
H117 C126 0.950 . S
H118 C128 0.950 . S
H119 C130 0.950 . S
H120 C132 0.950 . S
H121 C133 0.950 . S
C122 H114 0.950 1_455 S
C122 C123 1.386 . S
C122 C124 1.391 . S
C123 C122 1.386 . S
C123 C127 1.393 . S
C124 H116 0.950 1_455 S
C124 C122 1.391 . S
C124 C125 1.400 . S
C125 C124 1.400 . S
C125 C126 1.398 . S
C125 C131 1.491 . S
C126 H117 0.950 . S
C126 C125 1.398 . S
C126 C127 1.391 . S
C127 H115 0.950 . S
C127 C123 1.393 . S
C127 C126 1.391 . S
C128 H118 0.950 . S
C128 C129 1.386 . S
C128 C130 1.391 . S
C129 C128 1.386 . S
C129 C133 1.393 1_455 S
C130 H119 0.950 . S
C130 C128 1.391 . S
C130 C131 1.400 . S
C131 C125 1.491 . S
C131 C130 1.400 . S
C131 C132 1.398 1_455 S
C132 H120 0.950 . S
C132 C131 1.398 1_655 S
C132 C133 1.391 . S
C133 H121 0.950 . S
C133 C129 1.393 1_655 S
C133 C132 1.391 . S
H134 C142 0.950 . S
H135 C147 0.950 . S
H136 C144 0.950 . S
H137 C146 0.950 . S
H138 C148 0.950 . S
H139 C150 0.950 . S
H140 C152 0.950 . S
H141 C153 0.950 . S
C142 H134 0.950 . S
C142 C143 1.386 1_565 S
C142 C144 1.391 . S
C143 C142 1.386 1_545 S
C143 C147 1.393 . S
C144 H136 0.950 . S
C144 C142 1.391 . S
C144 C145 1.400 1_565 S
C145 C144 1.400 1_545 S
C145 C146 1.398 . S
C145 C151 1.491 . S
C146 H137 0.950 . S
C146 C145 1.398 . S
C146 C147 1.391 . S
C147 H135 0.950 . S
C147 C143 1.393 . S
C147 C146 1.391 . S
C148 H138 0.950 . S
C148 C149 1.386 . S
C148 C150 1.391 . S
C149 C148 1.386 . S
C149 C153 1.393 1_545 S
C150 H139 0.950 . S
C150 C148 1.391 . S
C150 C151 1.400 . S
C151 C145 1.491 . S
C151 C150 1.400 . S
C151 C152 1.398 1_545 S
C152 H140 0.950 . S
C152 C151 1.398 1_565 S
C152 C153 1.391 . S
C153 H141 0.950 . S
C153 C149 1.393 1_565 S
C153 C152 1.391 . S
H154 C162 0.950 . S
H155 C167 0.950 . S
H156 C164 0.950 . S
H157 C166 0.950 . S
H158 C168 0.950 . S
H159 C170 0.950 . S
H160 C172 0.950 . S
H161 C173 0.950 . S
C162 H154 0.950 . S
C162 C163 1.386 . S
C162 C164 1.391 . S
C163 C162 1.386 . S
C163 C167 1.393 . S
C164 H156 0.950 . S
C164 C162 1.391 . S
C164 C165 1.400 . S
C165 C164 1.400 . S
C165 C166 1.398 . S
C165 C171 1.491 . S
C166 H157 0.950 . S
C166 C165 1.398 . S
C166 C167 1.391 . S
C167 H155 0.950 . S
C167 C163 1.393 . S
C167 C166 1.391 . S
C168 H158 0.950 . S
C168 C169 1.386 . S
C168 C170 1.391 . S
C169 C168 1.386 . S
C169 C173 1.393 . S
C170 H159 0.950 . S
C170 C168 1.391 . S
C170 C171 1.400 . S
C171 C165 1.491 . S
C171 C170 1.400 . S
C171 C172 1.398 . S
C172 H160 0.950 . S
C172 C171 1.398 . S
C172 C173 1.391 . S
C173 H161 0.950 . S
C173 C169 1.393 . S
C173 C172 1.391 . S
H174 C182 0.950 . S
H175 C187 0.950 . S
H176 C184 0.950 . S
H177 C186 0.950 . S
H178 C188 0.950 . S
H179 C190 0.950 . S
H180 C192 0.950 . S
H181 C193 0.950 . S
C182 H174 0.950 . S
C182 C183 1.386 1_565 S
C182 C184 1.391 . S
C183 C182 1.386 1_545 S
C183 C187 1.393 . S
C184 H176 0.950 . S
C184 C182 1.391 . S
C184 C185 1.400 1_565 S
C185 C184 1.400 1_545 S
C185 C186 1.398 . S
C185 C191 1.491 . S
C186 H177 0.950 . S
C186 C185 1.398 . S
C186 C187 1.391 . S
C187 H175 0.950 . S
C187 C183 1.393 . S
C187 C186 1.391 . S
C188 H178 0.950 . S
C188 C189 1.386 . S
C188 C190 1.391 . S
C189 C188 1.386 . S
C189 C193 1.393 1_545 S
C190 H179 0.950 . S
C190 C188 1.391 . S
C190 C191 1.400 . S
C191 C185 1.491 . S
C191 C190 1.400 . S
C191 C192 1.398 1_545 S
C192 H180 0.950 . S
C192 C191 1.398 1_565 S
C192 C193 1.391 . S
C193 H181 0.950 . S
C193 C189 1.393 1_565 S
C193 C192 1.391 . S
H194 C202 0.950 . S
H195 C207 0.950 . S
H196 C204 0.950 . S
H197 C206 0.950 . S
H198 C208 0.950 . S
H199 C210 0.950 . S
H200 C212 0.950 . S
H201 C213 0.950 . S
C202 H194 0.950 . S
C202 C203 1.386 . S
C202 C204 1.391 . S
C203 C202 1.386 . S
C203 C207 1.393 . S
C204 H196 0.950 . S
C204 C202 1.391 . S
C204 C205 1.400 . S
C205 C204 1.400 . S
C205 C206 1.398 . S
C205 C211 1.491 . S
C206 H197 0.950 . S
C206 C205 1.398 . S
C206 C207 1.391 . S
C207 H195 0.950 . S
C207 C203 1.393 . S
C207 C206 1.391 . S
C208 H198 0.950 . S
C208 C209 1.386 . S
C208 C210 1.391 . S
C209 C208 1.386 . S
C209 C213 1.393 . S
C210 H199 0.950 . S
C210 C208 1.391 . S
C210 C211 1.400 . S
C211 C205 1.491 . S
C211 C210 1.400 . S
C211 C212 1.398 . S
C212 H200 0.950 . S
C212 C211 1.398 . S
C212 C213 1.391 . S
C213 H201 0.950 . S
C213 C209 1.393 . S
C213 C212 1.391 . S
C69 C31 1.209 . S
C63 C5 1.407 . S
C89 C51 1.452 . S
C83 C23 1.469 . S
C109 C30 1.395 1_655 S
C103 C3 1.417 . S
C129 C52 1.494 . S
C123 C14 1.492 . S
C149 C44 1.461 . S
C143 C1 1.490 . S
C169 C37 1.363 . S
C163 C16 1.396 . S
C189 C45 1.294 . S
C183 C10 1.470 . S
C203 C18 1.417 . S
C209 C38 1.426 . S
