# Generated by pormake.
# Topology ssb, (4,4)-cn, num edge types: 1
# Building blocks:
#     Node 0, Type 0, BuildingBlock: NAWXER_clean_sbu_0, # of connection points: 4
#     Node 1, Type 0, BuildingBlock: NAWXER_clean_sbu_0, # of connection points: 4
#     Node 2, Type 0, BuildingBlock: NAWXER_clean_sbu_0, # of connection points: 4
#     Node 3, Type 0, BuildingBlock: NAWXER_clean_sbu_0, # of connection points: 4
#     Node 4, Type 0, BuildingBlock: NAWXER_clean_sbu_0, # of connection points: 4
#     Node 5, Type 0, BuildingBlock: NAWXER_clean_sbu_0, # of connection points: 4
#     Node 6, Type 0, BuildingBlock: NAWXER_clean_sbu_0, # of connection points: 4
#     Node 7, Type 0, BuildingBlock: NAWXER_clean_sbu_0, # of connection points: 4
#     Node 8, Type 1, BuildingBlock: NAWXER_clean_sbu_0, # of connection points: 4
#     Node 9, Type 1, BuildingBlock: NAWXER_clean_sbu_0, # of connection points: 4
#     Node 10, Type 1, BuildingBlock: NAWXER_clean_sbu_0, # of connection points: 4
#     Node 11, Type 1, BuildingBlock: NAWXER_clean_sbu_0, # of connection points: 4
#     Node 12, Type 1, BuildingBlock: NAWXER_clean_sbu_0, # of connection points: 4
#     Node 13, Type 1, BuildingBlock: NAWXER_clean_sbu_0, # of connection points: 4
#     Node 14, Type 1, BuildingBlock: NAWXER_clean_sbu_0, # of connection points: 4
#     Node 15, Type 1, BuildingBlock: NAWXER_clean_sbu_0, # of connection points: 4
#     Edge 16, Type (0, 1), None
#     Edge 17, Type (0, 1), None
#     Edge 18, Type (0, 1), None
#     Edge 19, Type (0, 1), None
#     Edge 20, Type (0, 1), None
#     Edge 21, Type (0, 1), None
#     Edge 22, Type (0, 1), None
#     Edge 23, Type (0, 1), None
#     Edge 24, Type (0, 1), None
#     Edge 25, Type (0, 1), None
#     Edge 26, Type (0, 1), None
#     Edge 27, Type (0, 1), None
#     Edge 28, Type (0, 1), None
#     Edge 29, Type (0, 1), None
#     Edge 30, Type (0, 1), None
#     Edge 31, Type (0, 1), None
#     Edge 32, Type (0, 1), None
#     Edge 33, Type (0, 1), None
#     Edge 34, Type (0, 1), None
#     Edge 35, Type (0, 1), None
#     Edge 36, Type (0, 1), None
#     Edge 37, Type (0, 1), None
#     Edge 38, Type (0, 1), None
#     Edge 39, Type (0, 1), None
#     Edge 40, Type (0, 1), None
#     Edge 41, Type (0, 1), None
#     Edge 42, Type (0, 1), None
#     Edge 43, Type (0, 1), None
#     Edge 44, Type (0, 1), None
#     Edge 45, Type (0, 1), None
#     Edge 46, Type (0, 1), None
#     Edge 47, Type (0, 1), None
# Relax obj value: 0.002
# Max RMSD: 0.009
# Mean RMSD: 0.008
data_MOF--net-ssb--node1-NAWXER_clean_sbu_0--node2-NAWXER_clean_sbu_0--edge1-none
_symmetry_space_group_name_H-M    P1
_symmetry_Int_Tables_number       1
_symmetry_cell_setting            triclinic
loop_
_symmetry_equiv_pos_as_xyz
'x, y, z'
_cell_length_a     18.883147
_cell_length_b     18.855153
_cell_length_c     16.299421
_cell_angle_alpha  90.099654
_cell_angle_beta   89.468813
_cell_angle_gamma 96.227384
loop_
_atom_site_label
_atom_site_type_symbol
_atom_site_fract_x
_atom_site_fract_y
_atom_site_fract_z
_atom_type_partial_charge
C0 C 0.16292 0.30017 0.43333 0.0
C1 C 0.36969 0.25357 0.2647 0.0
O2 O 0.14858 0.26978 0.3649 0.0
Zn3 Zn 0.19942 0.24024 0.25852 0.0
O4 O 0.22484 0.33258 0.44626 0.0
Zn5 Zn 0.2742 0.30437 0.34582 0.0
O6 O 0.24743 0.36824 0.25007 0.0
O7 O 0.1692 0.30679 0.171 0.0
O8 O 0.37558 0.29668 0.32556 0.0
O9 O 0.30878 0.23497 0.23332 0.0
O10 O 0.17792 0.13491 0.2861 0.0
O11 O 0.25275 0.19869 0.3682 0.0
C12 C 0.20706 0.36531 0.18773 0.0
C13 C 0.21936 0.13962 0.34841 0.0
C14 C 0.6885 0.32529 0.23163 0.0
C15 C 0.88346 0.36378 0.42899 0.0
O16 O 0.68931 0.36542 0.29471 0.0
Zn17 Zn 0.78446 0.34814 0.32937 0.0
O18 O 0.74099 0.28997 0.21546 0.0
Zn19 Zn 0.84618 0.28118 0.25836 0.0
O20 O 0.83916 0.17973 0.27981 0.0
O21 O 0.7675 0.2344 0.36048 0.0
O22 O 0.8949 0.3221 0.36909 0.0
O23 O 0.82735 0.39528 0.4293 0.0
O24 O 0.83812 0.39753 0.22479 0.0
O25 O 0.90086 0.32145 0.1622 0.0
C26 C 0.79167 0.1767 0.33598 0.0
C27 C 0.87691 0.38189 0.1639 0.0
C28 C 0.73742 0.6118 0.18835 0.0
C29 C 0.68011 0.82868 0.33547 0.0
O30 O 0.69084 0.60767 0.24616 0.0
Zn31 Zn 0.71157 0.70709 0.28834 0.0
O32 O 0.77942 0.66859 0.17822 0.0
Zn33 Zn 0.79254 0.77414 0.21359 0.0
O34 O 0.88751 0.78851 0.25945 0.0
O35 O 0.8184 0.71486 0.33897 0.0
O36 O 0.73403 0.83258 0.28807 0.0
O37 O 0.65144 0.76726 0.35828 0.0
O38 O 0.67565 0.74515 0.18008 0.0
O39 O 0.75986 0.8131 0.11218 0.0
C40 C 0.87995 0.74812 0.32214 0.0
C41 C 0.6959 0.78317 0.11868 0.0
C42 C 0.33247 0.70559 0.20961 0.0
C43 C 0.39264 0.91392 0.38196 0.0
O44 O 0.30595 0.76146 0.18438 0.0
Zn45 Zn 0.3105 0.87329 0.21524 0.0
O46 O 0.37445 0.70951 0.27041 0.0
Zn47 Zn 0.37088 0.80981 0.29371 0.0
O48 O 0.26154 0.81322 0.32743 0.0
O49 O 0.21151 0.88505 0.24332 0.0
O50 O 0.41652 0.85396 0.39118 0.0
O51 O 0.35615 0.9255 0.31882 0.0
O52 O 0.36017 0.92367 0.12206 0.0
O53 O 0.42774 0.85717 0.19146 0.0
C54 C 0.20785 0.8447 0.3062 0.0
C55 C 0.41967 0.89921 0.1315 0.0
C56 C 0.39723 0.77267 0.80181 0.0
C57 C 0.19163 0.70171 0.62812 0.0
O58 O 0.34035 0.79762 0.8272 0.0
Zn59 Zn 0.22879 0.78932 0.795 0.0
O60 O 0.39488 0.72993 0.74116 0.0
Zn61 Zn 0.29458 0.7301 0.71833 0.0
O62 O 0.28943 0.83975 0.6853 0.0
O63 O 0.21578 0.88674 0.77161 0.0
O64 O 0.25229 0.67889 0.62131 0.0
O65 O 0.17872 0.74072 0.6897 0.0
O66 O 0.17886 0.74381 0.88953 0.0
O67 O 0.24965 0.6762 0.82423 0.0
C68 C 0.2575 0.89267 0.70976 0.0
C69 C 0.20726 0.68605 0.88403 0.0
C70 C 0.33051 0.22666 0.67291 0.0
C71 C 0.32425 0.43333 0.86018 0.0
O72 O 0.29144 0.21602 0.73688 0.0
Zn73 Zn 0.26439 0.27027 0.8426 0.0
O74 O 0.36559 0.28756 0.66148 0.0
Zn75 Zn 0.33306 0.34 0.75885 0.0
O76 O 0.38836 0.29917 0.85538 0.0
O77 O 0.31458 0.2287 0.93302 0.0
O78 O 0.36087 0.44008 0.79357 0.0
O79 O 0.28763 0.37495 0.87827 0.0
O80 O 0.16192 0.27178 0.83266 0.0
O81 O 0.22084 0.3437 0.74256 0.0
C82 C 0.37656 0.26086 0.9192 0.0
C83 C 0.16178 0.31841 0.77601 0.0
C84 C 0.65155 0.11723 0.66932 0.0
C85 C 0.71861 0.32771 0.84149 0.0
O86 O 0.62462 0.17605 0.66619 0.0
Zn87 Zn 0.67797 0.22248 0.75827 0.0
O88 O 0.69382 0.1062 0.72786 0.0
Zn89 Zn 0.74242 0.16007 0.83192 0.0
O90 O 0.69744 0.1151 0.93409 0.0
O91 O 0.62835 0.18101 0.86703 0.0
O92 O 0.74753 0.27236 0.86369 0.0
O93 O 0.67432 0.32328 0.78271 0.0
O94 O 0.78691 0.22289 0.71855 0.0
O95 O 0.84212 0.15303 0.79977 0.0
C96 C 0.63938 0.14341 0.92991 0.0
C97 C 0.84281 0.19369 0.73722 0.0
C98 C 0.9508 0.815 0.68296 0.0
C99 C 0.73886 0.8715 0.83425 0.0
O100 O 0.89563 0.77014 0.67596 0.0
Zn101 Zn 0.79061 0.75479 0.7158 0.0
O102 O 0.95515 0.86061 0.74129 0.0
Zn103 Zn 0.85781 0.83702 0.7876 0.0
O104 O 0.84925 0.72997 0.84236 0.0
O105 O 0.77545 0.65995 0.76546 0.0
O106 O 0.80015 0.90043 0.85592 0.0
O107 O 0.73443 0.81592 0.78976 0.0
O108 O 0.74779 0.78661 0.61499 0.0
O109 O 0.81679 0.87117 0.67962 0.0
C110 C 0.8151 0.6682 0.82821 0.0
C111 C 0.77728 0.85089 0.62003 0.0
C112 C 0.90819 0.21505 0.68981 0.0
C113 C 0.10953 0.28609 0.49857 0.0
O114 O 0.92864 0.28186 0.68418 0.0
Zn115 Zn 1.00721 0.35395 0.62469 0.0
O116 O 0.93874 0.1706 0.64666 0.0
Zn117 Zn 1.00859 0.24032 0.59177 0.0
O118 O 0.07516 0.27068 0.68725 0.0
O119 O 0.07307 0.38471 0.71583 0.0
O120 O 0.07983 0.22265 0.51031 0.0
O121 O 0.08718 0.33821 0.53707 0.0
O122 O 0.94528 0.4089 0.55312 0.0
O123 O 0.94705 0.29664 0.51575 0.0
C124 C 0.09675 0.32492 0.7299 0.0
C125 C 0.92655 0.35784 0.50344 0.0
C126 C 0.65616 0.07332 0.59527 0.0
C127 C 0.67072 0.8956 0.37798 0.0
O128 O 0.71879 0.06326 0.57075 0.0
Zn129 Zn 0.76955 1.00967 0.47698 0.0
O130 O 0.60202 0.04574 0.5559 0.0
Zn131 Zn 0.65568 0.99541 0.47243 0.0
O132 O 0.70322 0.92111 0.54891 0.0
O133 O 0.82008 0.94758 0.53792 0.0
O134 O 0.61151 0.91562 0.40195 0.0
O135 O 0.72901 0.93258 0.39535 0.0
O136 O 0.82445 0.08017 0.41277 0.0
O137 O 0.7088 0.08471 0.39808 0.0
C138 C 0.7664 0.90611 0.56233 0.0
C139 C 0.77384 0.10987 0.38225 0.0
C140 C 0.99914 0.81806 0.61179 0.0
C141 C 0.14532 0.83593 0.3602 0.0
O142 O 1.02645 0.87676 0.58038 0.0
Zn143 Zn 0.06427 0.83456 0.47964 0.0
O144 O 1.00017 0.76016 0.57104 0.0
Zn145 Zn 0.04613 0.71889 0.46453 0.0
O146 O 0.10843 0.65714 0.52304 0.0
O147 O 0.1347 0.77331 0.54153 0.0
O148 O 0.11982 0.77227 0.37906 0.0
O149 O 0.12775 0.88845 0.40202 0.0
O150 O 0.97459 0.80202 0.40443 0.0
O151 O 0.96156 0.68454 0.39862 0.0
C152 C 0.14646 0.7092 0.55666 0.0
C153 C 0.94081 0.74402 0.3781 0.0
C154 C 0.33353 0.16633 0.61553 0.0
C155 C 0.37931 0.95851 0.4519 0.0
O156 O 0.39264 0.14938 0.58866 0.0
Zn157 Zn 0.35788 0.05876 0.53564 0.0
O158 O 0.27636 0.12492 0.60145 0.0
Zn159 Zn 0.24552 1.02673 0.5366 0.0
O160 O 0.20294 0.96628 0.62055 0.0
O161 O 0.32039 0.98369 0.63033 0.0
O162 O 0.31332 0.96052 0.4705 0.0
O163 O 0.42632 1.00668 0.47746 0.0
O164 O 0.29688 0.09056 0.43398 0.0
O165 O 0.18314 0.0508 0.44718 0.0
C166 C 0.25984 0.95401 0.65589 0.0
C167 C 0.23332 0.08355 0.40517 0.0
C168 C 0.47052 0.89761 0.06341 0.0
C169 C 0.67141 0.884 0.87321 0.0
O170 O 0.50361 0.95314 0.03053 0.0
Zn171 Zn 0.56448 0.90207 0.9552 0.0
O172 O 0.48423 0.83574 0.04099 0.0
Zn173 Zn 0.54838 0.78576 0.95988 0.0
O174 O 0.60372 0.73697 0.03219 0.0
O175 O 0.62883 0.85451 0.04079 0.0
O176 O 0.63208 0.82668 0.88903 0.0
O177 O 0.65128 0.94438 0.89274 0.0
O178 O 0.48565 0.84997 0.87126 0.0
O179 O 0.48579 0.73313 0.88526 0.0
C180 C 0.64212 0.79166 0.05907 0.0
C181 C 0.4616 0.78579 0.85127 0.0
C182 C 0.31983 0.64004 0.16115 0.0
C183 C 0.32026 0.48811 0.92175 0.0
O184 O 0.37251 0.61274 0.13031 0.0
Zn185 Zn 0.32166 0.55238 0.05004 0.0
O186 O 0.25638 0.61859 0.13766 0.0
Zn187 Zn 0.20697 0.54162 0.0514 0.0
O188 O 0.15809 0.45774 0.11101 0.0
O189 O 0.27474 0.46021 0.11647 0.0
O190 O 0.25811 0.49184 0.95262 0.0
O191 O 0.37532 0.51383 0.96059 0.0
O192 O 0.27132 0.62534 0.97601 0.0
O193 O 0.15362 0.6035 0.98446 0.0
C194 C 0.21254 0.42904 0.13365 0.0
C195 C 0.20925 0.63858 0.95412 0.0
C196 C 0.59823 0.15999 1.00374 0.0
C197 C 0.43142 0.23533 0.21827 0.0
O198 O 0.58774 0.22537 1.01065 0.0
Zn199 Zn 0.53331 0.29702 0.07661 0.0
O200 O 0.56761 0.11424 0.05391 0.0
Zn201 Zn 0.51336 0.18475 0.11637 0.0
O202 O 0.44195 0.21107 0.02438 0.0
O203 O 0.47307 0.32369 0.99 0.0
O204 O 0.4441 0.17062 0.20777 0.0
O205 O 0.46077 0.28392 0.17172 0.0
O206 O 0.60801 0.35877 0.13059 0.0
O207 O 0.59661 0.24759 0.17679 0.0
C208 C 0.43284 0.26535 0.9807 0.0
C209 C 0.62609 0.3118 0.18007 0.0
C210 C 0.7399 0.5595 0.12202 0.0
C211 C 0.73092 0.39284 0.8915 0.0
O212 O 0.79929 0.55946 0.08316 0.0
Zn213 Zn 0.84512 0.50681 0.98144 0.0
O214 O 0.68372 0.52607 0.09236 0.0
Zn215 Zn 0.73224 0.48572 0.99843 0.0
O216 O 0.79845 0.42465 0.07143 0.0
O217 O 0.91291 0.45688 0.04702 0.0
O218 O 0.67912 0.4152 0.9302 0.0
O219 O 0.79477 0.42091 0.90555 0.0
O220 O 0.87807 0.58776 0.90769 0.0
O221 O 0.76107 0.57404 0.91525 0.0
C222 C 0.86407 0.41962 0.08736 0.0
C223 C 0.8187 0.60765 0.88641 0.0
loop_
_geom_bond_atom_site_label_1
_geom_bond_atom_site_label_2
_geom_bond_distance
_geom_bond_site_symmetry_2
_ccdc_geom_bond_type
C0 O2 1.247 . S
C0 O4 1.258 . S
C1 O8 1.247 . S
C1 O9 1.258 . S
O2 C0 1.247 . S
O2 Zn3 2.028 . S
Zn3 O2 2.028 . S
Zn3 O7 2.035 . S
Zn3 O9 2.035 . S
Zn3 O10 2.028 . S
O4 C0 1.258 . S
O4 Zn5 2.035 . S
Zn5 O4 2.035 . S
Zn5 O6 2.028 . S
Zn5 O8 2.028 . S
Zn5 O11 2.035 . S
O6 Zn5 2.028 . S
O6 C12 1.247 . S
O7 Zn3 2.035 . S
O7 C12 1.258 . S
O8 C1 1.247 . S
O8 Zn5 2.028 . S
O9 C1 1.258 . S
O9 Zn3 2.035 . S
O10 Zn3 2.028 . S
O10 C13 1.247 . S
O11 Zn5 2.035 . S
O11 C13 1.258 . S
C12 O6 1.247 . S
C12 O7 1.258 . S
C13 O10 1.247 . S
C13 O11 1.258 . S
C14 O16 1.247 . S
C14 O18 1.258 . S
C15 O22 1.247 . S
C15 O23 1.258 . S
O16 C14 1.247 . S
O16 Zn17 2.028 . S
Zn17 O16 2.028 . S
Zn17 O21 2.035 . S
Zn17 O23 2.035 . S
Zn17 O24 2.028 . S
O18 C14 1.258 . S
O18 Zn19 2.035 . S
Zn19 O18 2.035 . S
Zn19 O20 2.028 . S
Zn19 O22 2.028 . S
Zn19 O25 2.035 . S
O20 Zn19 2.028 . S
O20 C26 1.247 . S
O21 Zn17 2.035 . S
O21 C26 1.258 . S
O22 C15 1.247 . S
O22 Zn19 2.028 . S
O23 C15 1.258 . S
O23 Zn17 2.035 . S
O24 Zn17 2.028 . S
O24 C27 1.247 . S
O25 Zn19 2.035 . S
O25 C27 1.258 . S
C26 O20 1.247 . S
C26 O21 1.258 . S
C27 O24 1.247 . S
C27 O25 1.258 . S
C28 O30 1.247 . S
C28 O32 1.258 . S
C29 O36 1.247 . S
C29 O37 1.258 . S
O30 C28 1.247 . S
O30 Zn31 2.028 . S
Zn31 O30 2.028 . S
Zn31 O35 2.035 . S
Zn31 O37 2.035 . S
Zn31 O38 2.028 . S
O32 C28 1.258 . S
O32 Zn33 2.035 . S
Zn33 O32 2.035 . S
Zn33 O34 2.028 . S
Zn33 O36 2.028 . S
Zn33 O39 2.035 . S
O34 Zn33 2.028 . S
O34 C40 1.247 . S
O35 Zn31 2.035 . S
O35 C40 1.258 . S
O36 C29 1.247 . S
O36 Zn33 2.028 . S
O37 C29 1.258 . S
O37 Zn31 2.035 . S
O38 Zn31 2.028 . S
O38 C41 1.247 . S
O39 Zn33 2.035 . S
O39 C41 1.258 . S
C40 O34 1.247 . S
C40 O35 1.258 . S
C41 O38 1.247 . S
C41 O39 1.258 . S
C42 O44 1.247 . S
C42 O46 1.258 . S
C43 O50 1.247 . S
C43 O51 1.258 . S
O44 C42 1.247 . S
O44 Zn45 2.028 . S
Zn45 O44 2.028 . S
Zn45 O49 2.035 . S
Zn45 O51 2.035 . S
Zn45 O52 2.028 . S
O46 C42 1.258 . S
O46 Zn47 2.035 . S
Zn47 O46 2.035 . S
Zn47 O48 2.028 . S
Zn47 O50 2.028 . S
Zn47 O53 2.035 . S
O48 Zn47 2.028 . S
O48 C54 1.247 . S
O49 Zn45 2.035 . S
O49 C54 1.258 . S
O50 C43 1.247 . S
O50 Zn47 2.028 . S
O51 C43 1.258 . S
O51 Zn45 2.035 . S
O52 Zn45 2.028 . S
O52 C55 1.247 . S
O53 Zn47 2.035 . S
O53 C55 1.258 . S
C54 O48 1.247 . S
C54 O49 1.258 . S
C55 O52 1.247 . S
C55 O53 1.258 . S
C56 O58 1.247 . S
C56 O60 1.258 . S
C57 O64 1.247 . S
C57 O65 1.258 . S
O58 C56 1.247 . S
O58 Zn59 2.028 . S
Zn59 O58 2.028 . S
Zn59 O63 2.035 . S
Zn59 O65 2.035 . S
Zn59 O66 2.028 . S
O60 C56 1.258 . S
O60 Zn61 2.035 . S
Zn61 O60 2.035 . S
Zn61 O62 2.028 . S
Zn61 O64 2.028 . S
Zn61 O67 2.035 . S
O62 Zn61 2.028 . S
O62 C68 1.247 . S
O63 Zn59 2.035 . S
O63 C68 1.258 . S
O64 C57 1.247 . S
O64 Zn61 2.028 . S
O65 C57 1.258 . S
O65 Zn59 2.035 . S
O66 Zn59 2.028 . S
O66 C69 1.247 . S
O67 Zn61 2.035 . S
O67 C69 1.258 . S
C68 O62 1.247 . S
C68 O63 1.258 . S
C69 O66 1.247 . S
C69 O67 1.258 . S
C70 O72 1.247 . S
C70 O74 1.258 . S
C71 O78 1.247 . S
C71 O79 1.258 . S
O72 C70 1.247 . S
O72 Zn73 2.028 . S
Zn73 O72 2.028 . S
Zn73 O77 2.035 . S
Zn73 O79 2.035 . S
Zn73 O80 2.028 . S
O74 C70 1.258 . S
O74 Zn75 2.035 . S
Zn75 O74 2.035 . S
Zn75 O76 2.028 . S
Zn75 O78 2.028 . S
Zn75 O81 2.035 . S
O76 Zn75 2.028 . S
O76 C82 1.247 . S
O77 Zn73 2.035 . S
O77 C82 1.258 . S
O78 C71 1.247 . S
O78 Zn75 2.028 . S
O79 C71 1.258 . S
O79 Zn73 2.035 . S
O80 Zn73 2.028 . S
O80 C83 1.247 . S
O81 Zn75 2.035 . S
O81 C83 1.258 . S
C82 O76 1.247 . S
C82 O77 1.258 . S
C83 O80 1.247 . S
C83 O81 1.258 . S
C84 O86 1.247 . S
C84 O88 1.258 . S
C85 O92 1.247 . S
C85 O93 1.258 . S
O86 C84 1.247 . S
O86 Zn87 2.028 . S
Zn87 O86 2.028 . S
Zn87 O91 2.035 . S
Zn87 O93 2.035 . S
Zn87 O94 2.028 . S
O88 C84 1.258 . S
O88 Zn89 2.035 . S
Zn89 O88 2.035 . S
Zn89 O90 2.028 . S
Zn89 O92 2.028 . S
Zn89 O95 2.035 . S
O90 Zn89 2.028 . S
O90 C96 1.247 . S
O91 Zn87 2.035 . S
O91 C96 1.258 . S
O92 C85 1.247 . S
O92 Zn89 2.028 . S
O93 C85 1.258 . S
O93 Zn87 2.035 . S
O94 Zn87 2.028 . S
O94 C97 1.247 . S
O95 Zn89 2.035 . S
O95 C97 1.258 . S
C96 O90 1.247 . S
C96 O91 1.258 . S
C97 O94 1.247 . S
C97 O95 1.258 . S
C98 O100 1.247 . S
C98 O102 1.258 . S
C99 O106 1.247 . S
C99 O107 1.258 . S
O100 C98 1.247 . S
O100 Zn101 2.028 . S
Zn101 O100 2.028 . S
Zn101 O105 2.035 . S
Zn101 O107 2.035 . S
Zn101 O108 2.028 . S
O102 C98 1.258 . S
O102 Zn103 2.035 . S
Zn103 O102 2.035 . S
Zn103 O104 2.028 . S
Zn103 O106 2.028 . S
Zn103 O109 2.035 . S
O104 Zn103 2.028 . S
O104 C110 1.247 . S
O105 Zn101 2.035 . S
O105 C110 1.258 . S
O106 C99 1.247 . S
O106 Zn103 2.028 . S
O107 C99 1.258 . S
O107 Zn101 2.035 . S
O108 Zn101 2.028 . S
O108 C111 1.247 . S
O109 Zn103 2.035 . S
O109 C111 1.258 . S
C110 O104 1.247 . S
C110 O105 1.258 . S
C111 O108 1.247 . S
C111 O109 1.258 . S
C112 O114 1.247 . S
C112 O116 1.258 . S
C113 O120 1.247 . S
C113 O121 1.258 . S
O114 C112 1.247 . S
O114 Zn115 2.032 . S
Zn115 O114 2.032 . S
Zn115 O119 2.031 1_655 S
Zn115 O121 2.031 1_655 S
Zn115 O122 2.032 . S
O116 C112 1.258 . S
O116 Zn117 2.028 1_655 S
Zn117 O116 2.028 1_455 S
Zn117 O118 2.035 . S
Zn117 O120 2.035 . S
Zn117 O123 2.028 1_455 S
O118 Zn117 2.035 . S
O118 C124 1.247 . S
O119 Zn115 2.031 1_455 S
O119 C124 1.258 . S
O120 C113 1.247 . S
O120 Zn117 2.035 . S
O121 C113 1.258 . S
O121 Zn115 2.031 1_455 S
O122 Zn115 2.032 . S
O122 C125 1.247 . S
O123 Zn117 2.028 1_655 S
O123 C125 1.258 . S
C124 O118 1.247 . S
C124 O119 1.258 . S
C125 O122 1.247 . S
C125 O123 1.258 . S
C126 O128 1.247 . S
C126 O130 1.258 . S
C127 O134 1.247 . S
C127 O135 1.258 . S
O128 C126 1.247 . S
O128 Zn129 2.035 . S
Zn129 O128 2.035 . S
Zn129 O133 2.028 1_545 S
Zn129 O135 2.028 1_545 S
Zn129 O136 2.035 . S
O130 C126 1.258 . S
O130 Zn131 2.031 1_545 S
Zn131 O130 2.031 1_565 S
Zn131 O132 2.033 . S
Zn131 O134 2.033 . S
Zn131 O137 2.031 1_565 S
O132 Zn131 2.033 . S
O132 C138 1.247 . S
O133 Zn129 2.028 1_565 S
O133 C138 1.258 . S
O134 C127 1.247 . S
O134 Zn131 2.033 . S
O135 C127 1.258 . S
O135 Zn129 2.028 1_565 S
O136 Zn129 2.035 . S
O136 C139 1.247 . S
O137 Zn131 2.031 1_545 S
O137 C139 1.258 . S
C138 O132 1.247 . S
C138 O133 1.258 . S
C139 O136 1.247 . S
C139 O137 1.258 . S
C140 O142 1.247 . S
C140 O144 1.258 . S
C141 O148 1.247 . S
C141 O149 1.258 . S
O142 C140 1.247 . S
O142 Zn143 2.032 . S
Zn143 O142 2.032 . S
Zn143 O147 2.031 1_655 S
Zn143 O149 2.031 1_655 S
Zn143 O150 2.032 . S
O144 C140 1.258 . S
O144 Zn145 2.028 1_655 S
Zn145 O144 2.028 1_455 S
Zn145 O146 2.035 . S
Zn145 O148 2.035 . S
Zn145 O151 2.028 1_455 S
O146 Zn145 2.035 . S
O146 C152 1.247 . S
O147 Zn143 2.031 1_455 S
O147 C152 1.258 . S
O148 C141 1.247 . S
O148 Zn145 2.035 . S
O149 C141 1.258 . S
O149 Zn143 2.031 1_455 S
O150 Zn143 2.032 . S
O150 C153 1.247 . S
O151 Zn145 2.028 1_655 S
O151 C153 1.258 . S
C152 O146 1.247 . S
C152 O147 1.258 . S
C153 O150 1.247 . S
C153 O151 1.258 . S
C154 O156 1.247 . S
C154 O158 1.258 . S
C155 O162 1.247 . S
C155 O163 1.258 . S
O156 C154 1.247 . S
O156 Zn157 2.035 . S
Zn157 O156 2.035 . S
Zn157 O161 2.028 1_545 S
Zn157 O163 2.028 1_545 S
Zn157 O164 2.035 . S
O158 C154 1.258 . S
O158 Zn159 2.031 1_545 S
Zn159 O158 2.031 1_565 S
Zn159 O160 2.033 . S
Zn159 O162 2.033 . S
Zn159 O165 2.031 1_565 S
O160 Zn159 2.033 . S
O160 C166 1.247 . S
O161 Zn157 2.028 1_565 S
O161 C166 1.258 . S
O162 C155 1.247 . S
O162 Zn159 2.033 . S
O163 C155 1.258 . S
O163 Zn157 2.028 1_565 S
O164 Zn157 2.035 . S
O164 C167 1.247 . S
O165 Zn159 2.031 1_545 S
O165 C167 1.258 . S
C166 O160 1.247 . S
C166 O161 1.258 . S
C167 O164 1.247 . S
C167 O165 1.258 . S
C168 O170 1.247 . S
C168 O172 1.258 . S
C169 O176 1.247 . S
C169 O177 1.258 . S
O170 C168 1.247 . S
O170 Zn171 2.028 . S
Zn171 O170 2.028 . S
Zn171 O175 2.035 . S
Zn171 O177 2.035 1_554 S
Zn171 O178 2.028 1_554 S
O172 C168 1.258 . S
O172 Zn173 2.035 . S
Zn173 O172 2.035 . S
Zn173 O174 2.028 . S
Zn173 O176 2.028 1_554 S
Zn173 O179 2.035 1_554 S
O174 Zn173 2.028 . S
O174 C180 1.247 . S
O175 Zn171 2.035 . S
O175 C180 1.258 . S
O176 C169 1.247 . S
O176 Zn173 2.028 1_556 S
O177 C169 1.258 . S
O177 Zn171 2.035 1_556 S
O178 Zn171 2.028 1_556 S
O178 C181 1.247 . S
O179 Zn173 2.035 1_556 S
O179 C181 1.258 . S
C180 O174 1.247 . S
C180 O175 1.258 . S
C181 O178 1.247 . S
C181 O179 1.258 . S
C182 O184 1.247 . S
C182 O186 1.258 . S
C183 O190 1.247 . S
C183 O191 1.258 . S
O184 C182 1.247 . S
O184 Zn185 2.028 . S
Zn185 O184 2.028 . S
Zn185 O189 2.035 . S
Zn185 O191 2.035 1_554 S
Zn185 O192 2.028 1_554 S
O186 C182 1.258 . S
O186 Zn187 2.035 . S
Zn187 O186 2.035 . S
Zn187 O188 2.028 . S
Zn187 O190 2.028 1_554 S
Zn187 O193 2.035 1_554 S
O188 Zn187 2.028 . S
O188 C194 1.247 . S
O189 Zn185 2.035 . S
O189 C194 1.258 . S
O190 C183 1.247 . S
O190 Zn187 2.028 1_556 S
O191 C183 1.258 . S
O191 Zn185 2.035 1_556 S
O192 Zn185 2.028 1_556 S
O192 C195 1.247 . S
O193 Zn187 2.035 1_556 S
O193 C195 1.258 . S
C194 O188 1.247 . S
C194 O189 1.258 . S
C195 O192 1.247 . S
C195 O193 1.258 . S
C196 O198 1.247 . S
C196 O200 1.258 . S
C197 O204 1.247 . S
C197 O205 1.258 . S
O198 C196 1.247 . S
O198 Zn199 2.028 1_556 S
Zn199 O198 2.028 1_554 S
Zn199 O203 2.035 1_554 S
Zn199 O205 2.035 . S
Zn199 O206 2.028 . S
O200 C196 1.258 . S
O200 Zn201 2.035 1_556 S
Zn201 O200 2.035 1_554 S
Zn201 O202 2.028 1_554 S
Zn201 O204 2.028 . S
Zn201 O207 2.035 . S
O202 Zn201 2.028 1_556 S
O202 C208 1.247 . S
O203 Zn199 2.035 1_556 S
O203 C208 1.258 . S
O204 C197 1.247 . S
O204 Zn201 2.028 . S
O205 C197 1.258 . S
O205 Zn199 2.035 . S
O206 Zn199 2.028 . S
O206 C209 1.247 . S
O207 Zn201 2.035 . S
O207 C209 1.258 . S
C208 O202 1.247 . S
C208 O203 1.258 . S
C209 O206 1.247 . S
C209 O207 1.258 . S
C210 O212 1.247 . S
C210 O214 1.258 . S
C211 O218 1.247 . S
C211 O219 1.258 . S
O212 C210 1.247 . S
O212 Zn213 2.028 . S
Zn213 O212 2.028 . S
Zn213 O217 2.035 . S
Zn213 O219 2.035 1_554 S
Zn213 O220 2.028 1_554 S
O214 C210 1.258 . S
O214 Zn215 2.035 . S
Zn215 O214 2.035 . S
Zn215 O216 2.028 . S
Zn215 O218 2.028 1_554 S
Zn215 O221 2.035 1_554 S
O216 Zn215 2.028 . S
O216 C222 1.247 . S
O217 Zn213 2.035 . S
O217 C222 1.258 . S
O218 C211 1.247 . S
O218 Zn215 2.028 1_556 S
O219 C211 1.258 . S
O219 Zn213 2.035 1_556 S
O220 Zn213 2.028 1_556 S
O220 C223 1.247 . S
O221 Zn215 2.035 1_556 S
O221 C223 1.258 . S
C222 O216 1.247 . S
C222 O217 1.258 . S
C223 O220 1.247 . S
C223 O221 1.258 . S
C113 C0 1.605 . S
C139 C26 1.605 . S
C153 C40 1.607 . S
C155 C43 1.606 . S
C57 C152 1.608 . S
C154 C70 1.609 . S
C112 C97 1.610 . S
C138 C111 1.609 . S
C140 C98 1.606 . S
C166 C68 1.606 . S
C124 C83 1.605 . S
C126 C84 1.604 . S
C125 C15 1.611 . S
C127 C29 1.611 . S
C141 C54 1.608 . S
C167 C13 1.609 . S
C169 C99 1.605 . S
C69 C195 1.605 . S
C82 C208 1.611 . S
C85 C211 1.605 . S
C14 C209 1.605 . S
C28 C210 1.609 . S
C55 C168 1.608 . S
C194 C12 1.609 . S
C197 C1 1.609 . S
C27 C222 1.605 . S
C41 C180 1.605 . S
C42 C182 1.604 . S
C181 C56 1.609 . S
C183 C71 1.611 . S
C96 C196 1.605 . S
C223 C110 1.609 . S
