# Generated by pormake.
# Topology alb, (6,12)-cn, num edge types: 1
# Building blocks:
#     Node 0, Type 0, BuildingBlock: OJICUG_clean_sbu_0, # of connection points: 6
#     Node 1, Type 0, BuildingBlock: OJICUG_clean_sbu_0, # of connection points: 6
#     Node 2, Type 1, BuildingBlock: QEWDON_clean_sbu_0, # of connection points: 12
#     Edge 3, Type (0, 1), BuildingBlock: OJICUG_clean_linker_0, # of connection points: 2
#     Edge 4, Type (0, 1), BuildingBlock: OJICUG_clean_linker_0, # of connection points: 2
#     Edge 5, Type (0, 1), BuildingBlock: OJICUG_clean_linker_0, # of connection points: 2
#     Edge 6, Type (0, 1), BuildingBlock: OJICUG_clean_linker_0, # of connection points: 2
#     Edge 7, Type (0, 1), BuildingBlock: OJICUG_clean_linker_0, # of connection points: 2
#     Edge 8, Type (0, 1), BuildingBlock: OJICUG_clean_linker_0, # of connection points: 2
#     Edge 9, Type (0, 1), BuildingBlock: OJICUG_clean_linker_0, # of connection points: 2
#     Edge 10, Type (0, 1), BuildingBlock: OJICUG_clean_linker_0, # of connection points: 2
#     Edge 11, Type (0, 1), BuildingBlock: OJICUG_clean_linker_0, # of connection points: 2
#     Edge 12, Type (0, 1), BuildingBlock: OJICUG_clean_linker_0, # of connection points: 2
#     Edge 13, Type (0, 1), BuildingBlock: OJICUG_clean_linker_0, # of connection points: 2
#     Edge 14, Type (0, 1), BuildingBlock: OJICUG_clean_linker_0, # of connection points: 2
# Relax obj value: 0.127
# Max RMSD: 0.224
# Mean RMSD: 0.143
data_MOF--net-alb--node1-OJICUG_clean_sbu_0--node2-QEWDON_clean_sbu_0--edge1-OJICUG_clean_linker_0
_symmetry_space_group_name_H-M    P1
_symmetry_Int_Tables_number       1
_symmetry_cell_setting            triclinic
loop_
_symmetry_equiv_pos_as_xyz
'x, y, z'
_cell_length_a     19.252059
_cell_length_b     18.978028
_cell_length_c     15.938796
_cell_angle_alpha  90.140694
_cell_angle_beta   90.473633
_cell_angle_gamma 119.67931
loop_
_atom_site_label
_atom_site_type_symbol
_atom_site_fract_x
_atom_site_fract_y
_atom_site_fract_z
_atom_type_partial_charge
Sc0 Sc 0.32403 0.76351 0.12224 0.0
Sc1 Sc 0.143 0.5855 0.16456 0.0
Sc2 Sc 0.31728 0.57451 0.12491 0.0
O3 O 0.26152 0.64124 0.13692 0.0
C4 C 0.40376 0.7072 0.98233 0.0
C5 C 0.15844 0.71955 0.03216 0.0
C6 C 0.15119 0.46322 0.03164 0.0
C7 C 0.21322 0.74444 0.27927 0.0
C8 C 0.45032 0.73019 0.22041 0.0
C9 C 0.20233 0.48787 0.28054 0.0
O10 O 0.38348 0.75677 0.01143 0.0
O11 O 0.11857 0.65334 0.07163 0.0
O12 O 0.22467 0.48698 0.04478 0.0
O13 O 0.27424 0.78475 0.23374 0.0
O14 O 0.4167 0.65538 0.20159 0.0
O15 O 0.15341 0.51224 0.26198 0.0
O16 O 0.42306 0.77613 0.19756 0.0
O17 O 0.16011 0.67186 0.2621 0.0
O18 O 0.26285 0.50427 0.23591 0.0
O19 O 0.23327 0.7655 0.04314 0.0
O20 O 0.38227 0.63856 0.0153 0.0
O21 O 0.11359 0.49263 0.07028 0.0
Sc22 Sc 0.68324 0.25892 0.05214 0.0
Sc23 Sc 0.85794 0.44466 0.01319 0.0
Sc24 Sc 0.67711 0.44142 0.05551 0.0
O25 O 0.73937 0.38166 0.04065 0.0
C26 C 0.55032 0.28114 0.95724 0.0
C27 C 0.79804 0.28764 0.89625 0.0
C28 C 0.78776 0.53284 0.89857 0.0
C29 C 0.84926 0.3135 0.14486 0.0
C30 C 0.59757 0.30568 0.19535 0.0
C31 C 0.84292 0.56361 0.14593 0.0
O32 O 0.58397 0.24011 0.97554 0.0
O33 O 0.84707 0.36113 0.91506 0.0
O34 O 0.72648 0.5117 0.94373 0.0
O35 O 0.7756 0.26394 0.13201 0.0
O36 O 0.61826 0.37572 0.16657 0.0
O37 O 0.88265 0.5368 0.10699 0.0
O38 O 0.61838 0.25814 0.1619 0.0
O39 O 0.88713 0.38065 0.10646 0.0
O40 O 0.76827 0.535 0.13422 0.0
O41 O 0.73762 0.24323 0.94091 0.0
O42 O 0.5776 0.35441 0.98058 0.0
O43 O 0.84118 0.51425 0.91626 0.0
Zn44 Zn 0.14757 0.16834 0.3982 0.0
Zn45 Zn 0.14672 0.99993 0.41009 0.0
O46 O 0.07649 0.04866 0.4118 0.0
H47 H 0.01878 0.0207 0.41262 0.0
C48 C 0.13462 0.27595 0.56657 0.0
O49 O 0.08354 0.26979 0.62417 0.0
Zn50 Zn 0.85549 0.85241 0.77118 0.0
Zn51 Zn 0.85398 0.01904 0.77677 0.0
O52 O 0.9265 0.97144 0.77272 0.0
H53 H 0.9827 1.0002 0.78729 0.0
Zn54 Zn 0.13567 0.14169 0.66274 0.0
O55 O 0.08274 0.02431 0.62719 0.0
Zn56 Zn 0.11567 0.95949 0.70132 0.0
H57 H 0.06144 0.01004 0.571 0.0
Zn58 Zn 0.86514 0.00876 0.51343 0.0
O59 O 0.91541 0.94344 0.55236 0.0
H60 H 0.93533 0.95172 0.60924 0.0
Zn61 Zn 0.88437 0.84574 0.47772 0.0
C62 C 0.86537 0.14414 0.60887 0.0
O63 O 0.91701 0.18924 0.55178 0.0
O64 O 0.26461 0.20114 0.37343 0.0
O65 O 0.25836 0.08076 0.36987 0.0
O66 O 0.73666 0.93468 0.80147 0.0
O67 O 0.74366 0.82124 0.81067 0.0
O68 O 0.22377 0.16309 0.74736 0.0
O69 O 0.21089 0.04116 0.77193 0.0
C70 C 0.01627 0.85098 0.35468 0.0
O71 O 0.77768 0.94119 0.42847 0.0
O72 O 0.78943 0.83113 0.40621 0.0
O73 O 0.90612 0.12837 0.83964 0.0
C74 C 0.29759 0.15786 0.36234 0.0
O75 O 0.09368 0.22204 0.33285 0.0
C76 C 0.98469 0.83252 0.82497 0.0
O77 O 0.16415 0.22905 0.5695 0.0
C78 C 0.70401 0.85876 0.81536 0.0
O79 O 0.83568 0.06758 0.60568 0.0
C80 C 0.16128 0.91094 0.55286 0.0
O81 O 0.09016 0.89762 0.33973 0.0
O82 O 0.98471 0.87305 0.41156 0.0
C83 C 0.24674 0.11814 0.78333 0.0
O84 O 0.91092 0.80526 0.84038 0.0
O85 O 0.01609 0.88613 0.76816 0.0
C86 C 0.8403 0.75093 0.62585 0.0
O87 O 0.14826 0.8907 0.62948 0.0
O88 O 0.15424 0.97044 0.52855 0.0
C89 C 0.75424 0.87249 0.39351 0.0
O90 O 0.85194 0.74396 0.54869 0.0
O91 O 0.84878 0.81772 0.65176 0.0
C92 C 0.97966 0.17662 0.826 0.0
O93 O 0.01722 0.15571 0.77159 0.0
C94 C 0.02032 0.19698 0.34708 0.0
O95 O 0.98325 0.13999 0.40301 0.0
C96 C 0.1412 0.74133 0.41199 0.0
C97 C 0.20329 0.78464 0.35461 0.0
H98 H 0.07977 0.74756 0.52153 0.0
C99 C 0.2552 0.86791 0.36876 0.0
H100 H 0.10034 0.67707 0.40325 0.0
C101 C 0.24327 0.90753 0.43613 0.0
C102 C 0.17966 0.86502 0.49116 0.0
H103 H 0.30399 0.90326 0.32657 0.0
H104 H 0.28304 0.97206 0.44443 0.0
C105 C 0.12972 0.78125 0.48008 0.0
C106 C 0.50065 0.31911 0.28833 0.0
C107 C 0.53304 0.27183 0.25836 0.0
H108 H 0.4008 0.32022 0.34436 0.0
C109 C 0.49277 0.18819 0.27549 0.0
H110 H 0.53031 0.38381 0.27724 0.0
C111 C 0.41793 0.15151 0.31357 0.0
C112 C 0.38202 0.19778 0.33557 0.0
H113 H 0.51611 0.14985 0.25403 0.0
H114 H 0.38644 0.0863 0.32139 0.0
C115 C 0.42588 0.28245 0.32632 0.0
C116 C 0.23733 0.40463 0.37656 0.0
C117 C 0.18775 0.43743 0.35681 0.0
H118 H 0.25991 0.32873 0.45849 0.0
C119 C 0.12312 0.42009 0.4098 0.0
H120 H 0.28792 0.4169 0.33768 0.0
C121 C 0.10711 0.36937 0.47914 0.0
C122 C 0.15512 0.33451 0.49701 0.0
H123 H 0.0838 0.44443 0.39692 0.0
H124 H 0.05577 0.35578 0.51738 0.0
C125 C 0.22123 0.35386 0.44583 0.0
C126 C 0.85214 0.22335 0.25782 0.0
C127 C 0.89349 0.28877 0.20291 0.0
H128 H 0.86 0.14396 0.34777 0.0
C129 C 0.97711 0.32633 0.19974 0.0
H130 H 0.78763 0.1934 0.26241 0.0
C131 C 0.0181 0.2959 0.24583 0.0
C132 C 0.97685 0.23001 0.29981 0.0
H133 H 0.01086 0.3776 0.15965 0.0
H134 H 0.08206 0.32347 0.23825 0.0
C135 C 0.89355 0.19487 0.30659 0.0
C136 C 0.56793 0.84894 0.28745 0.0
C137 C 0.52787 0.76639 0.26533 0.0
H138 H 0.67151 0.94751 0.34354 0.0
C139 C 0.5649 0.71981 0.28196 0.0
H140 H 0.54158 0.88678 0.2748 0.0
C141 C 0.63998 0.75486 0.32075 0.0
C142 C 0.67929 0.83707 0.34411 0.0
H143 H 0.53612 0.65617 0.26485 0.0
H144 H 0.66631 0.7171 0.33394 0.0
C145 C 0.64278 0.88387 0.32639 0.0
C146 C 0.84499 0.65942 0.25757 0.0
C147 C 0.88637 0.63369 0.20434 0.0
H148 H 0.85337 0.74705 0.34841 0.0
C149 C 0.97034 0.67783 0.20489 0.0
H150 H 0.78028 0.62656 0.25935 0.0
C151 C 0.01172 0.74769 0.25408 0.0
C152 C 0.97062 0.77432 0.30621 0.0
H153 H 0.00447 0.65968 0.16579 0.0
H154 H 0.07628 0.78137 0.25039 0.0
C155 C 0.88678 0.72856 0.30864 0.0
C156 C 0.03098 0.70611 0.97424 0.0
C157 C 0.11492 0.74593 0.97407 0.0
H158 H 0.925 0.70356 0.92982 0.0
C159 C 0.15616 0.81277 0.92053 0.0
H160 H -0.00303 0.65403 0.0136 0.0
C161 C 0.11424 0.83986 0.86982 0.0
C162 C 0.03044 0.80176 0.87297 0.0
H163 H 0.22084 0.84464 0.91823 0.0
H164 H 0.14753 0.89161 0.82981 0.0
C165 C 0.9895 0.73434 0.92547 0.0
C166 C 0.43341 0.28212 0.88912 0.0
C167 C 0.47284 0.23952 0.91217 0.0
H168 H 0.33043 0.27689 0.8319 0.0
C169 C 0.43532 0.15554 0.89612 0.0
H170 H 0.46018 0.34661 0.90126 0.0
C171 C 0.36039 0.11525 0.85704 0.0
C172 C 0.3217 0.15822 0.83273 0.0
H173 H 0.46361 0.12058 0.91394 0.0
H174 H 0.33368 0.05085 0.84438 0.0
C175 C 0.3587 0.24193 0.84979 0.0
C176 C 0.14813 0.37084 0.91735 0.0
C177 C 0.10684 0.39472 0.97261 0.0
H178 H 0.14011 0.284 0.82628 0.0
C179 C 0.02312 0.34898 0.97493 0.0
H180 H 0.2127 0.40521 0.91334 0.0
C181 C 0.98195 0.27791 0.92772 0.0
C182 C 0.02316 0.25334 0.87355 0.0
H183 H 0.98938 0.36637 0.01527 0.0
H184 H 0.9179 0.24159 0.93478 0.0
C185 C 0.10657 0.30132 0.86755 0.0
C186 C 0.76294 0.16933 0.79961 0.0
C187 C 0.81238 0.25198 0.81956 0.0
H188 H 0.7405 0.07076 0.71728 0.0
C189 C 0.87674 0.29973 0.76641 0.0
H190 H 0.7126 0.13066 0.83865 0.0
C191 C 0.89265 0.2652 0.69669 0.0
C192 C 0.84478 0.18208 0.6786 0.0
H193 H 0.91595 0.36361 0.77947 0.0
H194 H 0.94385 0.30327 0.65837 0.0
C195 C 0.77894 0.13485 0.72996 0.0
C196 C 0.50842 0.6942 0.90245 0.0
C197 C 0.4685 0.73781 0.91952 0.0
H198 H 0.61445 0.69825 0.85658 0.0
C199 C 0.50131 0.81756 0.8896 0.0
H200 H 0.48478 0.63245 0.92388 0.0
C201 C 0.57608 0.85548 0.85153 0.0
C202 C 0.61957 0.81443 0.84226 0.0
H203 H 0.47196 0.8528 0.90071 0.0
H204 H 0.60148 0.91841 0.83349 0.0
C205 C 0.58329 0.7322 0.8644 0.0
C206 C 0.86019 0.60182 0.76613 0.0
C207 C 0.79757 0.58236 0.82298 0.0
H208 H 0.92223 0.67009 0.65721 0.0
C209 C 0.74497 0.61246 0.80806 0.0
H210 H 0.90155 0.57934 0.77545 0.0
C211 C 0.7569 0.66374 0.74066 0.0
C212 C 0.82117 0.68576 0.68636 0.0
H213 H 0.69574 0.59842 0.8498 0.0
H214 H 0.71682 0.68787 0.73199 0.0
C215 C 0.87169 0.65296 0.69802 0.0
loop_
_geom_bond_atom_site_label_1
_geom_bond_atom_site_label_2
_geom_bond_distance
_geom_bond_site_symmetry_2
_ccdc_geom_bond_type
Sc0 O3 2.025 . S
Sc0 O10 2.105 . S
Sc0 O13 2.105 . S
Sc0 O16 2.105 . S
Sc0 O19 2.105 . S
Sc1 O3 2.025 . S
Sc1 O11 2.105 . S
Sc1 O15 2.105 . S
Sc1 O17 2.105 . S
Sc1 O21 2.105 . S
Sc2 O3 2.025 . S
Sc2 O12 2.105 . S
Sc2 O14 2.105 . S
Sc2 O18 2.105 . S
Sc2 O20 2.105 . S
O3 Sc0 2.025 . S
O3 Sc1 2.025 . S
O3 Sc2 2.025 . S
C4 O10 1.268 . S
C4 O20 1.268 . S
C5 O11 1.268 . S
C5 O19 1.268 . S
C6 O12 1.268 . S
C6 O21 1.268 . S
C7 O13 1.268 . S
C7 O17 1.268 . S
C8 O14 1.268 . S
C8 O16 1.268 . S
C9 O15 1.268 . S
C9 O18 1.268 . S
O10 Sc0 2.105 . S
O10 C4 1.268 . S
O11 Sc1 2.105 . S
O11 C5 1.268 . S
O12 Sc2 2.105 . S
O12 C6 1.268 . S
O13 Sc0 2.105 . S
O13 C7 1.268 . S
O14 Sc2 2.105 . S
O14 C8 1.268 . S
O15 Sc1 2.105 . S
O15 C9 1.268 . S
O16 Sc0 2.105 . S
O16 C8 1.268 . S
O17 Sc1 2.105 . S
O17 C7 1.268 . S
O18 Sc2 2.105 . S
O18 C9 1.268 . S
O19 Sc0 2.105 . S
O19 C5 1.268 . S
O20 Sc2 2.105 . S
O20 C4 1.268 . S
O21 Sc1 2.105 . S
O21 C6 1.268 . S
Sc22 O25 2.025 . S
Sc22 O32 2.105 1_554 S
Sc22 O35 2.105 . S
Sc22 O38 2.105 . S
Sc22 O41 2.105 1_554 S
Sc23 O25 2.025 . S
Sc23 O33 2.105 1_554 S
Sc23 O37 2.105 . S
Sc23 O39 2.105 . S
Sc23 O43 2.105 1_554 S
Sc24 O25 2.025 . S
Sc24 O34 2.105 1_554 S
Sc24 O36 2.105 . S
Sc24 O40 2.105 . S
Sc24 O42 2.105 1_554 S
O25 Sc22 2.025 . S
O25 Sc23 2.025 . S
O25 Sc24 2.025 . S
C26 O32 1.268 . S
C26 O42 1.268 . S
C27 O33 1.268 . S
C27 O41 1.268 . S
C28 O34 1.268 . S
C28 O43 1.268 . S
C29 O35 1.268 . S
C29 O39 1.268 . S
C30 O36 1.268 . S
C30 O38 1.268 . S
C31 O37 1.268 . S
C31 O40 1.268 . S
O32 Sc22 2.105 1_556 S
O32 C26 1.268 . S
O33 Sc23 2.105 1_556 S
O33 C27 1.268 . S
O34 Sc24 2.105 1_556 S
O34 C28 1.268 . S
O35 Sc22 2.105 . S
O35 C29 1.268 . S
O36 Sc24 2.105 . S
O36 C30 1.268 . S
O37 Sc23 2.105 . S
O37 C31 1.268 . S
O38 Sc22 2.105 . S
O38 C30 1.268 . S
O39 Sc23 2.105 . S
O39 C29 1.268 . S
O40 Sc24 2.105 . S
O40 C31 1.268 . S
O41 Sc22 2.105 1_556 S
O41 C27 1.268 . S
O42 Sc24 2.105 1_556 S
O42 C26 1.268 . S
O43 Sc23 2.105 1_556 S
O43 C28 1.268 . S
Zn44 O46 1.933 . S
Zn44 O64 1.985 . S
Zn44 O75 1.965 . S
Zn45 O46 1.911 1_565 S
Zn45 O65 1.970 1_565 S
Zn45 O81 1.945 . S
Zn45 O88 1.981 . S
O46 Zn44 1.933 . S
O46 Zn45 1.911 1_545 S
O46 H47 0.841 1_445 S
H47 O46 0.841 1_665 S
C48 O49 1.246 . S
C48 O77 1.276 . S
O49 C48 1.246 . S
Zn50 O52 1.911 . S
Zn50 O67 1.970 . S
Zn50 O84 1.945 1_655 S
Zn50 O91 1.981 . S
Zn51 O52 1.933 1_545 S
Zn51 O66 1.985 1_545 S
Zn51 O73 1.955 1_655 S
O52 Zn50 1.911 . S
O52 Zn51 1.933 1_565 S
O52 H53 0.841 1_665 S
H53 O52 0.841 1_445 S
Zn54 O55 1.933 . S
Zn54 O68 1.985 . S
Zn54 O77 1.955 . S
O55 Zn54 1.933 . S
O55 Zn56 1.911 . S
O55 H57 0.841 . S
Zn56 O55 1.911 . S
Zn56 O69 1.970 . S
Zn56 O85 1.981 1_545 S
Zn56 O87 1.945 1_545 S
H57 O55 0.841 . S
Zn58 O59 1.933 . S
Zn58 O71 1.985 . S
Zn58 O79 1.955 1_565 S
O59 Zn58 1.933 . S
O59 H60 0.841 . S
O59 Zn61 1.911 . S
H60 O59 0.841 . S
Zn61 O59 1.911 . S
Zn61 O72 1.970 . S
Zn61 O82 1.981 . S
Zn61 O90 1.945 . S
C62 O63 1.246 . S
C62 O79 1.276 . S
O63 C62 1.246 . S
O64 Zn44 1.985 . S
O64 C74 1.245 . S
O65 Zn45 1.970 1_545 S
O65 C74 1.263 . S
O66 Zn51 1.985 1_565 S
O66 C78 1.245 . S
O67 Zn50 1.970 . S
O67 C78 1.263 . S
O68 Zn54 1.985 . S
O68 C83 1.245 . S
O69 Zn56 1.970 . S
O69 C83 1.263 . S
C70 O81 1.262 1_655 S
C70 O82 1.245 . S
O71 Zn58 1.985 . S
O71 C89 1.245 . S
O72 Zn61 1.970 . S
O72 C89 1.263 . S
O73 Zn51 1.955 1_455 S
O73 C92 1.276 . S
C74 O64 1.245 . S
C74 O65 1.263 . S
O75 Zn44 1.965 . S
O75 C94 1.266 1_455 S
C76 O84 1.262 . S
C76 O85 1.245 . S
O77 C48 1.276 . S
O77 Zn54 1.955 . S
C78 O66 1.245 . S
C78 O67 1.263 . S
O79 Zn58 1.955 1_545 S
O79 C62 1.276 . S
C80 O87 1.262 . S
C80 O88 1.245 . S
O81 Zn45 1.945 . S
O81 C70 1.262 1_455 S
O82 Zn61 1.981 . S
O82 C70 1.245 . S
C83 O68 1.245 . S
C83 O69 1.263 . S
O84 Zn50 1.945 1_455 S
O84 C76 1.262 . S
O85 Zn56 1.981 1_565 S
O85 C76 1.245 . S
C86 O90 1.262 . S
C86 O91 1.245 . S
O87 Zn56 1.945 1_565 S
O87 C80 1.262 . S
O88 Zn45 1.981 . S
O88 C80 1.245 . S
C89 O71 1.245 . S
C89 O72 1.263 . S
O90 Zn61 1.945 . S
O90 C86 1.262 . S
O91 Zn50 1.981 . S
O91 C86 1.245 . S
C92 O73 1.276 . S
C92 O93 1.246 . S
O93 C92 1.246 . S
C94 O75 1.266 1_655 S
C94 O95 1.246 . S
O95 C94 1.246 . S
C96 C97 1.387 . S
C96 H100 0.950 . S
C96 C105 1.390 . S
C97 C96 1.387 . S
C97 C99 1.387 . S
H98 C105 0.950 . S
C99 C97 1.387 . S
C99 C101 1.390 . S
C99 H103 0.950 . S
H100 C96 0.950 . S
C101 C99 1.390 . S
C101 C102 1.387 . S
C101 H104 0.950 . S
C102 C101 1.387 . S
C102 C105 1.387 . S
H103 C99 0.950 . S
H104 C101 0.950 . S
C105 C96 1.390 . S
C105 H98 0.950 . S
C105 C102 1.387 . S
C106 C107 1.387 . S
C106 H110 0.950 . S
C106 C115 1.390 . S
C107 C106 1.387 . S
C107 C109 1.387 . S
H108 C115 0.950 . S
C109 C107 1.387 . S
C109 C111 1.390 . S
C109 H113 0.950 . S
H110 C106 0.950 . S
C111 C109 1.390 . S
C111 C112 1.387 . S
C111 H114 0.950 . S
C112 C111 1.387 . S
C112 C115 1.387 . S
H113 C109 0.950 . S
H114 C111 0.950 . S
C115 C106 1.390 . S
C115 H108 0.950 . S
C115 C112 1.387 . S
C116 C117 1.387 . S
C116 H120 0.950 . S
C116 C125 1.390 . S
C117 C116 1.387 . S
C117 C119 1.387 . S
H118 C125 0.950 . S
C119 C117 1.387 . S
C119 C121 1.390 . S
C119 H123 0.950 . S
H120 C116 0.950 . S
C121 C119 1.390 . S
C121 C122 1.387 . S
C121 H124 0.950 . S
C122 C121 1.387 . S
C122 C125 1.387 . S
H123 C119 0.950 . S
H124 C121 0.950 . S
C125 C116 1.390 . S
C125 H118 0.950 . S
C125 C122 1.387 . S
C126 C127 1.387 . S
C126 H130 0.950 . S
C126 C135 1.390 . S
C127 C126 1.387 . S
C127 C129 1.387 . S
H128 C135 0.950 . S
C129 C127 1.387 . S
C129 C131 1.390 . S
C129 H133 0.950 . S
H130 C126 0.950 . S
C131 C129 1.390 . S
C131 C132 1.387 . S
C131 H134 0.950 . S
C132 C131 1.387 . S
C132 C135 1.387 . S
H133 C129 0.950 . S
H134 C131 0.950 . S
C135 C126 1.390 . S
C135 H128 0.950 . S
C135 C132 1.387 . S
C136 C137 1.387 . S
C136 H140 0.950 . S
C136 C145 1.390 . S
C137 C136 1.387 . S
C137 C139 1.387 . S
H138 C145 0.950 . S
C139 C137 1.387 . S
C139 C141 1.390 . S
C139 H143 0.950 . S
H140 C136 0.950 . S
C141 C139 1.390 . S
C141 C142 1.387 . S
C141 H144 0.950 . S
C142 C141 1.387 . S
C142 C145 1.387 . S
H143 C139 0.950 . S
H144 C141 0.950 . S
C145 C136 1.390 . S
C145 H138 0.950 . S
C145 C142 1.387 . S
C146 C147 1.387 . S
C146 H150 0.950 . S
C146 C155 1.390 . S
C147 C146 1.387 . S
C147 C149 1.387 . S
H148 C155 0.950 . S
C149 C147 1.387 . S
C149 C151 1.390 . S
C149 H153 0.950 . S
H150 C146 0.950 . S
C151 C149 1.390 . S
C151 C152 1.387 . S
C151 H154 0.950 . S
C152 C151 1.387 . S
C152 C155 1.387 . S
H153 C149 0.950 . S
H154 C151 0.950 . S
C155 C146 1.390 . S
C155 H148 0.950 . S
C155 C152 1.387 . S
C156 C157 1.387 . S
C156 H160 0.950 . S
C156 C165 1.390 . S
C157 C156 1.387 . S
C157 C159 1.387 . S
H158 C165 0.950 . S
C159 C157 1.387 . S
C159 C161 1.390 . S
C159 H163 0.950 . S
H160 C156 0.950 . S
C161 C159 1.390 . S
C161 C162 1.387 . S
C161 H164 0.950 . S
C162 C161 1.387 . S
C162 C165 1.387 . S
H163 C159 0.950 . S
H164 C161 0.950 . S
C165 C156 1.390 . S
C165 H158 0.950 . S
C165 C162 1.387 . S
C166 C167 1.387 . S
C166 H170 0.950 . S
C166 C175 1.390 . S
C167 C166 1.387 . S
C167 C169 1.387 . S
H168 C175 0.950 . S
C169 C167 1.387 . S
C169 C171 1.390 . S
C169 H173 0.950 . S
H170 C166 0.950 . S
C171 C169 1.390 . S
C171 C172 1.387 . S
C171 H174 0.950 . S
C172 C171 1.387 . S
C172 C175 1.387 . S
H173 C169 0.950 . S
H174 C171 0.950 . S
C175 C166 1.390 . S
C175 H168 0.950 . S
C175 C172 1.387 . S
C176 C177 1.387 . S
C176 H180 0.950 . S
C176 C185 1.390 . S
C177 C176 1.387 . S
C177 C179 1.387 . S
H178 C185 0.950 . S
C179 C177 1.387 . S
C179 C181 1.390 . S
C179 H183 0.950 . S
H180 C176 0.950 . S
C181 C179 1.390 . S
C181 C182 1.387 . S
C181 H184 0.950 . S
C182 C181 1.387 . S
C182 C185 1.387 . S
H183 C179 0.950 . S
H184 C181 0.950 . S
C185 C176 1.390 . S
C185 H178 0.950 . S
C185 C182 1.387 . S
C186 C187 1.387 . S
C186 H190 0.950 . S
C186 C195 1.390 . S
C187 C186 1.387 . S
C187 C189 1.387 . S
H188 C195 0.950 . S
C189 C187 1.387 . S
C189 C191 1.390 . S
C189 H193 0.950 . S
H190 C186 0.950 . S
C191 C189 1.390 . S
C191 C192 1.387 . S
C191 H194 0.950 . S
C192 C191 1.387 . S
C192 C195 1.387 . S
H193 C189 0.950 . S
H194 C191 0.950 . S
C195 C186 1.390 . S
C195 H188 0.950 . S
C195 C192 1.387 . S
C196 C197 1.387 . S
C196 H200 0.950 . S
C196 C205 1.390 . S
C197 C196 1.387 . S
C197 C199 1.387 1_556 S
H198 C205 0.950 . S
C199 C197 1.387 1_554 S
C199 C201 1.390 . S
C199 H203 0.950 . S
H200 C196 0.950 . S
C201 C199 1.390 . S
C201 C202 1.387 1_554 S
C201 H204 0.950 . S
C202 C201 1.387 1_556 S
C202 C205 1.387 . S
H203 C199 0.950 . S
H204 C201 0.950 . S
C205 C196 1.390 . S
C205 H198 0.950 . S
C205 C202 1.387 . S
C206 C207 1.387 . S
C206 H210 0.950 . S
C206 C215 1.390 . S
C207 C206 1.387 . S
C207 C209 1.387 . S
H208 C215 0.950 . S
C209 C207 1.387 . S
C209 C211 1.390 . S
C209 H213 0.950 . S
H210 C206 0.950 . S
C211 C209 1.390 . S
C211 C212 1.387 . S
C211 H214 0.950 . S
C212 C211 1.387 . S
C212 C215 1.387 . S
H213 C209 0.950 . S
H214 C211 0.950 . S
C215 C206 1.390 . S
C215 H208 0.950 . S
C215 C212 1.387 . S
C97 C7 1.515 . S
C102 C80 1.534 . S
C112 C74 1.784 . S
C107 C30 1.704 . S
C122 C48 1.545 . S
C117 C9 1.530 . S
C132 C94 1.815 . S
C127 C29 1.889 . S
C142 C89 0.551 . S
C137 C8 0.589 . S
C147 C31 1.808 . S
C152 C70 1.766 . S
C157 C5 1.809 1_556 S
C162 C76 1.764 . S
C167 C26 0.585 . S
C172 C83 0.548 . S
C177 C6 1.890 1_556 S
C182 C92 1.813 . S
C187 C27 1.530 . S
C192 C62 1.544 . S
C202 C78 1.783 . S
C197 C4 1.703 1_556 S
C207 C28 1.515 . S
C212 C86 1.534 . S
