# Generated by pormake.
# Topology nia, (6,6)-cn, num edge types: 1
# Building blocks:
#     Node 0, Type 0, BuildingBlock: MIFKUJ_clean_sbu_0, # of connection points: 6
#     Node 1, Type 0, BuildingBlock: MIFKUJ_clean_sbu_0, # of connection points: 6
#     Node 2, Type 1, BuildingBlock: MIDCAF_clean_sbu_0, # of connection points: 6
#     Node 3, Type 1, BuildingBlock: MIDCAF_clean_sbu_0, # of connection points: 6
#     Edge 4, Type (0, 1), None
#     Edge 5, Type (0, 1), None
#     Edge 6, Type (0, 1), None
#     Edge 7, Type (0, 1), None
#     Edge 8, Type (0, 1), None
#     Edge 9, Type (0, 1), None
#     Edge 10, Type (0, 1), None
#     Edge 11, Type (0, 1), None
#     Edge 12, Type (0, 1), None
#     Edge 13, Type (0, 1), None
#     Edge 14, Type (0, 1), None
#     Edge 15, Type (0, 1), None
# Relax obj value: 0.213
# Max RMSD: 0.264
# Mean RMSD: 0.197
data_MOF--net-nia--node1-MIFKUJ_clean_sbu_0--node2-MIDCAF_clean_sbu_0--edge1-none
_symmetry_space_group_name_H-M    P1
_symmetry_Int_Tables_number       1
_symmetry_cell_setting            triclinic
loop_
_symmetry_equiv_pos_as_xyz
'x, y, z'
_cell_length_a     12.460332
_cell_length_b     12.461417
_cell_length_c     14.171004
_cell_angle_alpha  86.653648
_cell_angle_beta   86.658278
_cell_angle_gamma 128.18257
loop_
_atom_site_label
_atom_site_type_symbol
_atom_site_fract_x
_atom_site_fract_y
_atom_site_fract_z
_atom_type_partial_charge
Zn0 Zn 0.00949 0.92186 0.11805 0.0
Zn1 Zn 0.95631 0.09407 0.98458 0.0
C2 C 0.8966 0.75671 0.93982 0.0
O3 O 0.92448 0.85427 0.87663 0.0
C4 C 0.06918 0.25923 0.16281 0.0
O5 O 0.04128 0.16165 0.226 0.0
O6 O 0.09906 0.86158 0.19834 0.0
O7 O 0.16666 0.116 0.05934 0.0
O8 O 0.12151 0.12531 0.91285 0.0
C9 C 0.19564 0.88022 0.144 0.0
O10 O 0.22114 0.93576 0.05583 0.0
O11 O 0.92714 0.78054 1.02427 0.0
C12 C 0.77011 0.13565 0.9586 0.0
O13 O 0.74461 0.08013 0.04677 0.0
O14 O 0.86674 0.15434 0.90428 0.0
O15 O 0.79913 0.89993 1.0433 0.0
O16 O 0.84429 0.89061 0.18978 0.0
O17 O 0.03866 0.2354 0.07835 0.0
C18 C 0.20719 0.15291 0.97071 0.0
C19 C 0.75861 0.86301 0.13193 0.0
Zn20 Zn 0.06902 -0.01863 0.48458 0.0
Zn21 Zn 0.89676 0.03454 0.61805 0.0
C22 C 0.23418 0.09429 0.6628 0.0
O23 O 0.1366 0.06645 0.72596 0.0
C24 C 0.73159 0.92163 0.43983 0.0
O25 O 0.82918 0.9495 0.37666 0.0
O26 O 0.12927 0.89179 0.40429 0.0
O27 O 0.87487 0.82422 0.54329 0.0
O28 O 0.86553 0.86935 0.68978 0.0
C29 C 0.11061 0.79519 0.45863 0.0
O30 O 0.05508 0.76969 0.5468 0.0
O31 O 0.21036 0.06373 0.57835 0.0
C32 C 0.85523 0.22077 0.64402 0.0
O33 O 0.91074 0.24626 0.55585 0.0
O34 O 0.83651 0.12412 0.69834 0.0
O35 O 0.09091 0.19169 0.55932 0.0
O36 O 0.10026 0.14656 0.41284 0.0
O37 O 0.75541 0.95218 0.52428 0.0
C38 C 0.83796 0.78369 0.63192 0.0
C39 C 0.12783 0.23222 0.47069 0.0
Zn40 Zn 0.35239 0.67834 0.13269 0.0
Zn41 Zn 0.31244 0.63839 0.46993 0.0
Zn42 Zn 0.334 0.65681 0.30131 0.0
C43 C 0.58706 0.83212 0.42232 0.0
C44 C 0.20811 0.38045 0.44176 0.0
O45 O 0.24372 0.75845 0.25112 0.0
O46 O 0.32967 0.81652 0.09995 0.0
C47 C 0.61037 0.78271 0.16086 0.0
O48 O 0.54815 0.78518 0.34195 0.0
O49 O 0.49849 0.79269 0.49214 0.0
O50 O 0.25717 0.45658 0.50713 0.0
O51 O 0.21637 0.43242 0.35752 0.0
O52 O 0.53423 0.73364 0.0955 0.0
O53 O 0.5584 0.77444 0.2451 0.0
O54 O 0.20562 0.44267 0.26068 0.0
O55 O 0.19811 0.4923 0.11047 0.0
C56 C 0.15868 0.40375 0.18031 0.0
O57 O 0.23236 0.74709 0.35151 0.0
O58 O 0.17423 0.66109 0.50267 0.0
C59 C 0.26166 0.81884 0.16784 0.0
C60 C 0.17196 0.72913 0.43479 0.0
Zn61 Zn 0.61342 0.33759 0.96994 0.0
Zn62 Zn 0.65334 0.37751 0.63269 0.0
Zn63 Zn 0.63179 0.35912 0.80131 0.0
C64 C 0.7577 0.63547 0.66085 0.0
C65 C 0.37871 0.18378 0.68032 0.0
O66 O 0.72205 0.25746 0.8515 0.0
O67 O 0.63615 0.19942 1.00268 0.0
C68 C 0.80712 0.61219 0.92231 0.0
O69 O 0.74941 0.5835 0.7451 0.0
O70 O 0.70863 0.55933 0.59549 0.0
O71 O 0.46728 0.22322 0.61049 0.0
O72 O 0.41763 0.23075 0.76068 0.0
O73 O 0.7677 0.52364 0.99215 0.0
O74 O 0.76016 0.57325 0.84195 0.0
O75 O 0.40739 0.24148 0.85753 0.0
O76 O 0.43157 0.28227 1.00714 0.0
C77 C 0.35542 0.23318 0.94179 0.0
O78 O 0.73344 0.26885 0.75112 0.0
O79 O 0.79154 0.3548 0.59995 0.0
C80 C 0.70413 0.19708 0.93479 0.0
C81 C 0.79383 0.28679 0.66785 0.0
loop_
_geom_bond_atom_site_label_1
_geom_bond_atom_site_label_2
_geom_bond_distance
_geom_bond_site_symmetry_2
_ccdc_geom_bond_type
Zn0 O6 1.969 1_655 S
Zn0 O7 1.965 1_664 S
Zn0 O11 2.024 1_554 S
Zn0 O16 1.969 . S
Zn1 O8 1.969 . S
Zn1 O14 1.969 1_455 S
Zn1 O15 1.965 1_456 S
Zn1 O17 2.024 1_556 S
C2 O3 1.229 . S
C2 O11 1.058 . S
O3 C2 1.229 . S
C4 O5 1.229 . S
C4 O17 1.058 . S
O5 C4 1.229 . S
O6 Zn0 1.969 1_455 S
O6 C9 1.267 . S
O7 Zn0 1.965 1_446 S
O7 C18 1.260 . S
O8 Zn1 1.969 . S
O8 C18 1.258 . S
C9 O6 1.267 . S
C9 O10 1.228 . S
O10 C9 1.228 . S
O11 Zn0 2.024 1_556 S
O11 C2 1.058 . S
C12 O13 1.228 . S
C12 O14 1.267 . S
O13 C12 1.228 . S
O14 Zn1 1.969 1_655 S
O14 C12 1.267 . S
O15 Zn1 1.965 1_654 S
O15 C19 1.260 1_545 S
O16 Zn0 1.969 . S
O16 C19 1.258 . S
O17 Zn1 2.024 1_554 S
O17 C4 1.058 . S
C18 O7 1.260 . S
C18 O8 1.258 . S
C19 O15 1.260 1_565 S
C19 O16 1.258 . S
Zn20 O26 1.969 . S
Zn20 O27 1.965 1_445 S
Zn20 O31 2.024 . S
Zn20 O36 1.969 . S
Zn21 O28 1.969 1_545 S
Zn21 O34 1.969 . S
Zn21 O35 1.965 1_655 S
Zn21 O37 2.024 1_545 S
C22 O23 1.229 . S
C22 O31 1.058 . S
O23 C22 1.229 . S
C24 O25 1.229 . S
C24 O37 1.058 . S
O25 C24 1.229 . S
O26 Zn20 1.969 . S
O26 C29 1.267 1_545 S
O27 Zn20 1.965 1_665 S
O27 C38 1.260 . S
O28 Zn21 1.969 1_565 S
O28 C38 1.258 . S
C29 O26 1.267 1_565 S
C29 O30 1.228 . S
O30 C29 1.228 . S
O31 Zn20 2.024 . S
O31 C22 1.058 . S
C32 O33 1.228 . S
C32 O34 1.267 . S
O33 C32 1.228 . S
O34 Zn21 1.969 . S
O34 C32 1.267 . S
O35 Zn21 1.965 1_455 S
O35 C39 1.260 . S
O36 Zn20 1.969 . S
O36 C39 1.258 . S
O37 Zn21 2.024 1_565 S
O37 C24 1.058 . S
C38 O27 1.260 . S
C38 O28 1.258 . S
C39 O35 1.260 . S
C39 O36 1.258 . S
Zn40 O46 1.920 . S
Zn40 O52 1.898 . S
Zn40 O55 1.905 . S
Zn41 O49 1.905 . S
Zn41 O50 1.898 . S
Zn41 O58 1.920 . S
Zn42 O45 2.080 . S
Zn42 O48 2.114 . S
Zn42 O51 2.120 . S
Zn42 O53 2.120 . S
Zn42 O54 2.114 . S
Zn42 O57 2.080 . S
C43 O48 1.166 . S
C43 O49 1.182 . S
C44 O50 1.167 . S
C44 O51 1.299 . S
O45 Zn42 2.080 . S
O45 C59 1.305 . S
O46 Zn40 1.920 . S
O46 C59 1.234 . S
C47 O52 1.167 . S
C47 O53 1.299 . S
O48 Zn42 2.114 . S
O48 C43 1.166 . S
O49 Zn41 1.905 . S
O49 C43 1.182 . S
O50 Zn41 1.898 . S
O50 C44 1.167 . S
O51 Zn42 2.120 . S
O51 C44 1.299 . S
O52 Zn40 1.898 . S
O52 C47 1.167 . S
O53 Zn42 2.120 . S
O53 C47 1.299 . S
O54 Zn42 2.114 . S
O54 C56 1.166 . S
O55 Zn40 1.905 . S
O55 C56 1.182 . S
C56 O54 1.166 . S
C56 O55 1.182 . S
O57 Zn42 2.080 . S
O57 C60 1.305 . S
O58 Zn41 1.920 . S
O58 C60 1.234 . S
C59 O45 1.305 . S
C59 O46 1.234 . S
C60 O57 1.305 . S
C60 O58 1.234 . S
Zn61 O67 1.920 . S
Zn61 O73 1.898 . S
Zn61 O76 1.905 . S
Zn62 O70 1.905 . S
Zn62 O71 1.898 . S
Zn62 O79 1.920 . S
Zn63 O66 2.080 . S
Zn63 O69 2.114 . S
Zn63 O72 2.120 . S
Zn63 O74 2.120 . S
Zn63 O75 2.114 . S
Zn63 O78 2.080 . S
C64 O69 1.166 . S
C64 O70 1.182 . S
C65 O71 1.167 . S
C65 O72 1.299 . S
O66 Zn63 2.080 . S
O66 C80 1.305 . S
O67 Zn61 1.920 . S
O67 C80 1.234 . S
C68 O73 1.167 . S
C68 O74 1.299 . S
O69 Zn63 2.114 . S
O69 C64 1.166 . S
O70 Zn62 1.905 . S
O70 C64 1.182 . S
O71 Zn62 1.898 . S
O71 C65 1.167 . S
O72 Zn63 2.120 . S
O72 C65 1.299 . S
O73 Zn61 1.898 . S
O73 C68 1.167 . S
O74 Zn63 2.120 . S
O74 C68 1.299 . S
O75 Zn63 2.114 . S
O75 C77 1.166 . S
O76 Zn61 1.905 . S
O76 C77 1.182 . S
C77 O75 1.166 . S
C77 O76 1.182 . S
O78 Zn63 2.080 . S
O78 C81 1.305 . S
O79 Zn62 1.920 . S
O79 C81 1.234 . S
C80 O66 1.305 . S
C80 O67 1.234 . S
C81 O78 1.305 . S
C81 O79 1.234 . S
C9 C59 1.251 . S
C22 C65 0.869 . S
C4 C56 1.589 . S
C32 C81 2.094 . S
C19 C47 2.295 . S
C64 C38 1.863 . S
C29 C60 1.251 . S
C77 C18 1.863 . S
C44 C39 2.295 . S
C80 C12 2.094 . S
C43 C24 1.589 . S
C68 C2 0.869 . S
