# Generated by pormake.
# Topology bcu-b, (8,8)-cn, num edge types: 1
# Building blocks:
#     Node 0, Type 0, BuildingBlock: TAGTUT_clean_sbu_3, # of connection points: 8
#     Node 1, Type 1, BuildingBlock: TAGTUT_clean_sbu_1, # of connection points: 8
#     Edge 2, Type (0, 1), None
#     Edge 3, Type (0, 1), None
#     Edge 4, Type (0, 1), None
#     Edge 5, Type (0, 1), None
#     Edge 6, Type (0, 1), None
#     Edge 7, Type (0, 1), None
#     Edge 8, Type (0, 1), None
#     Edge 9, Type (0, 1), None
# Relax obj value: 0.008
# Max RMSD: 0.072
# Mean RMSD: 0.060
data_MOF--net-bcu-b--node1-TAGTUT_clean_sbu_3--node2-TAGTUT_clean_sbu_1--edge1-none
_symmetry_space_group_name_H-M    P1
_symmetry_Int_Tables_number       1
_symmetry_cell_setting            triclinic
loop_
_symmetry_equiv_pos_as_xyz
'x, y, z'
_cell_length_a     11.411964
_cell_length_b     11.294358
_cell_length_c     9.7053871
_cell_angle_alpha  90.453056
_cell_angle_beta   91.002459
_cell_angle_gamma 116.25744
loop_
_atom_site_label
_atom_site_type_symbol
_atom_site_fract_x
_atom_site_fract_y
_atom_site_fract_z
_atom_type_partial_charge
C0 C 0.17559 0.1221 0.24507 0.0
C1 C 0.25534 0.71182 0.11799 0.0
C2 C 0.10677 0.7357 0.72491 0.0
Mg3 Mg -0.05307 0.20089 0.10774 0.0
Mg4 Mg 0.66899 -0.06756 0.06843 0.0
O5 O 0.84044 0.03271 1.00554 0.0
Mg6 Mg -0.05294 -0.06413 1.03497 0.0
O7 O 0.05639 0.84361 0.06666 0.0
Mg8 Mg 0.2227 -0.03209 0.98129 0.0
Mg9 Mg -0.01824 0.66818 0.99854 0.0
C10 C 0.7083 0.74459 0.841 0.0
O11 O 0.79544 0.78229 0.185 0.0
O12 O 0.78617 0.25042 0.99188 0.0
O13 O 0.8007 0.59402 0.11562 0.0
O14 O 0.82614 0.16236 0.28973 0.0
O15 O 0.59771 0.06072 0.98456 0.0
O16 O 0.65659 -0.03452 0.29152 0.0
O17 O 0.10663 0.07542 0.88491 0.0
O18 O 0.0826 0.2563 0.92804 0.0
C19 C 0.13987 0.19826 0.86466 0.0
C20 C 0.66255 0.1832 0.95888 0.0
O21 O 0.83234 0.80102 0.85771 0.0
O22 O 0.3077 0.83616 0.09104 0.0
O23 O 0.63108 0.76434 0.92425 0.0
O24 O 0.18669 0.84025 0.78877 0.0
O25 O 0.13666 0.6334 0.08427 0.0
O26 O 0.0001 0.65601 0.77886 0.0
O27 O 0.05645 0.08493 0.2078 0.0
O28 O 0.25132 0.08844 0.17723 0.0
C29 C 0.72792 0.07789 0.34906 0.0
C30 C 0.7527 0.65593 0.19025 0.0
C31 C 0.16447 0.68809 0.61719 0.0
C32 C 0.31129 0.66292 0.22832 0.0
C33 C 0.22304 0.17823 0.38184 0.0
Mg34 Mg 0.43465 0.71871 0.51068 0.0
O35 O 0.35124 0.54212 0.56509 0.0
Mg36 Mg 0.18029 0.42709 0.47179 0.0
Mg37 Mg 0.44569 0.43422 0.53271 0.0
O38 O 0.53438 0.32054 0.50387 0.0
Mg39 Mg 0.44031 0.15102 0.5784 0.0
Mg40 Mg 0.70891 0.43325 0.58843 0.0
C41 C 0.65475 0.69219 0.70323 0.0
C42 C 0.68461 0.58562 0.31471 0.0
O43 O 0.10571 0.56629 0.57752 0.0
O44 O 0.28633 0.76104 0.59775 0.0
O45 O 0.22952 0.5577 0.28441 0.0
O46 O 0.41659 0.74092 0.29131 0.0
O47 O 0.6091 0.76322 0.63965 0.0
O48 O 0.61245 0.56772 0.67844 0.0
C49 C 0.20179 0.26262 0.73626 0.0
O50 O 0.32399 0.30116 0.71537 0.0
O51 O 0.13295 0.29959 0.65919 0.0
O52 O 0.74463 0.25862 0.48782 0.0
O53 O 0.55558 0.06984 0.4828 0.0
O54 O 0.68507 0.33141 0.78759 0.0
C55 C 0.67665 0.13406 0.45591 0.0
O56 O 0.49205 0.15648 0.79845 0.0
O57 O 0.25612 0.10614 0.46118 0.0
C58 C 0.60433 0.23335 0.85182 0.0
O59 O 0.28121 0.30401 0.38807 0.0
O60 O 0.56832 0.56594 0.34591 0.0
O61 O 0.7486 0.54156 0.38934 0.0
loop_
_geom_bond_atom_site_label_1
_geom_bond_atom_site_label_2
_geom_bond_distance
_geom_bond_site_symmetry_2
_ccdc_geom_bond_type
C0 O27 1.312 . S
C0 O28 1.208 . S
C1 O22 1.331 . S
C1 O25 1.244 . S
C2 O24 1.264 . S
C2 O26 1.273 . S
Mg3 O5 1.936 1_455 S
Mg3 O12 2.081 1_455 S
Mg3 O14 2.023 1_456 S
Mg3 O18 2.031 . S
Mg3 O27 2.291 1_556 S
Mg4 O5 1.963 1_565 S
Mg4 O15 1.942 1_565 S
Mg4 O16 1.955 1_566 S
Mg4 O23 1.986 . S
O5 Mg3 1.936 1_655 S
O5 Mg4 1.963 1_545 S
O5 Mg6 1.916 1_546 S
Mg6 O5 1.916 1_564 S
Mg6 O7 1.915 1_655 S
Mg6 O11 2.020 . S
Mg6 O17 2.107 1_664 S
Mg6 O21 2.008 1_554 S
Mg6 O27 2.118 1_665 S
O7 Mg6 1.915 1_455 S
O7 Mg8 1.936 1_565 S
O7 Mg9 1.964 1_455 S
Mg8 O7 1.936 1_545 S
Mg8 O17 2.291 1_554 S
Mg8 O22 2.081 1_545 S
Mg8 O24 2.023 1_544 S
Mg8 O28 2.031 . S
Mg9 O7 1.964 1_655 S
Mg9 O13 1.988 . S
Mg9 O25 1.940 1_655 S
Mg9 O26 1.954 1_654 S
C10 O21 1.191 . S
C10 O23 1.307 . S
O11 Mg6 2.020 . S
O11 C30 1.191 . S
O12 Mg3 2.081 1_655 S
O12 C20 1.331 . S
O13 Mg9 1.988 . S
O13 C30 1.307 . S
O14 Mg3 2.023 1_654 S
O14 C29 1.264 . S
O15 Mg4 1.942 1_545 S
O15 C20 1.244 . S
O16 Mg4 1.955 1_544 S
O16 C29 1.273 . S
O17 Mg6 2.107 1_446 S
O17 Mg8 2.291 1_556 S
O17 C19 1.312 . S
O18 Mg3 2.031 . S
O18 C19 1.208 . S
C19 O17 1.312 . S
C19 O18 1.208 . S
C20 O12 1.331 . S
C20 O15 1.244 . S
O21 Mg6 2.008 1_556 S
O21 C10 1.191 . S
O22 C1 1.331 . S
O22 Mg8 2.081 1_565 S
O23 Mg4 1.986 . S
O23 C10 1.307 . S
O24 C2 1.264 . S
O24 Mg8 2.023 1_566 S
O25 C1 1.244 . S
O25 Mg9 1.940 1_455 S
O26 C2 1.273 . S
O26 Mg9 1.954 1_456 S
O27 C0 1.312 . S
O27 Mg3 2.291 1_554 S
O27 Mg6 2.118 1_445 S
O28 C0 1.208 . S
O28 Mg8 2.031 . S
C29 O14 1.264 . S
C29 O16 1.273 . S
C30 O11 1.191 . S
C30 O13 1.307 . S
C31 O43 1.241 . S
C31 O44 1.280 . S
C32 O45 1.277 . S
C32 O46 1.245 . S
C33 O57 1.247 . S
C33 O59 1.289 . S
Mg34 O35 1.926 . S
Mg34 O44 1.984 . S
Mg34 O46 1.988 . S
Mg34 O47 2.061 . S
O35 Mg34 1.926 . S
O35 Mg36 1.986 . S
O35 Mg37 1.917 . S
Mg36 O35 1.986 . S
Mg36 O43 2.042 . S
Mg36 O45 2.041 . S
Mg36 O51 2.038 . S
Mg36 O59 2.238 . S
Mg37 O35 1.917 . S
Mg37 O38 1.917 . S
Mg37 O48 2.106 . S
Mg37 O50 2.079 . S
Mg37 O59 2.106 . S
Mg37 O60 2.079 . S
O38 Mg37 1.917 . S
O38 Mg39 1.926 . S
O38 Mg40 1.986 . S
Mg39 O38 1.926 . S
Mg39 O53 1.984 . S
Mg39 O56 1.988 . S
Mg39 O57 2.061 . S
Mg40 O38 1.986 . S
Mg40 O48 2.238 . S
Mg40 O52 2.042 . S
Mg40 O54 2.041 . S
Mg40 O61 2.038 . S
C41 O47 1.247 . S
C41 O48 1.289 . S
C42 O60 1.245 . S
C42 O61 1.274 . S
O43 C31 1.241 . S
O43 Mg36 2.042 . S
O44 C31 1.280 . S
O44 Mg34 1.984 . S
O45 C32 1.277 . S
O45 Mg36 2.041 . S
O46 C32 1.245 . S
O46 Mg34 1.988 . S
O47 Mg34 2.061 . S
O47 C41 1.247 . S
O48 Mg37 2.106 . S
O48 Mg40 2.238 . S
O48 C41 1.289 . S
C49 O50 1.245 . S
C49 O51 1.274 . S
O50 Mg37 2.079 . S
O50 C49 1.245 . S
O51 Mg36 2.038 . S
O51 C49 1.274 . S
O52 Mg40 2.042 . S
O52 C55 1.241 . S
O53 Mg39 1.984 . S
O53 C55 1.280 . S
O54 Mg40 2.041 . S
O54 C58 1.277 . S
C55 O52 1.241 . S
C55 O53 1.280 . S
O56 Mg39 1.988 . S
O56 C58 1.245 . S
O57 C33 1.247 . S
O57 Mg39 2.061 . S
C58 O54 1.277 . S
C58 O56 1.245 . S
O59 C33 1.289 . S
O59 Mg36 2.238 . S
O59 Mg37 2.106 . S
O60 Mg37 2.079 . S
O60 C42 1.245 . S
O61 Mg40 2.038 . S
O61 C42 1.274 . S
C0 C33 1.399 . S
C29 C55 1.543 . S
C30 C42 1.559 . S
C1 C32 1.463 . S
C2 C31 1.468 . S
C49 C19 1.641 . S
C20 C58 1.587 . S
C41 C10 1.286 . S
