# Generated by pormake.
# Topology nia, (6,6)-cn, num edge types: 1
# Building blocks:
#     Node 0, Type 0, BuildingBlock: PAMTOO_clean_sbu_0, # of connection points: 6
#     Node 1, Type 0, BuildingBlock: PAMTOO_clean_sbu_0, # of connection points: 6
#     Node 2, Type 1, BuildingBlock: MIDCAF_clean_sbu_0, # of connection points: 6
#     Node 3, Type 1, BuildingBlock: MIDCAF_clean_sbu_0, # of connection points: 6
#     Edge 4, Type (0, 1), None
#     Edge 5, Type (0, 1), None
#     Edge 6, Type (0, 1), None
#     Edge 7, Type (0, 1), None
#     Edge 8, Type (0, 1), None
#     Edge 9, Type (0, 1), None
#     Edge 10, Type (0, 1), None
#     Edge 11, Type (0, 1), None
#     Edge 12, Type (0, 1), None
#     Edge 13, Type (0, 1), None
#     Edge 14, Type (0, 1), None
#     Edge 15, Type (0, 1), None
# Relax obj value: 0.232
# Max RMSD: 0.328
# Mean RMSD: 0.222
data_MOF--net-nia--node1-PAMTOO_clean_sbu_0--node2-MIDCAF_clean_sbu_0--edge1-none
_symmetry_space_group_name_H-M    P1
_symmetry_Int_Tables_number       1
_symmetry_cell_setting            triclinic
loop_
_symmetry_equiv_pos_as_xyz
'x, y, z'
_cell_length_a     15.936142
_cell_length_b     15.92212
_cell_length_c     15.656922
_cell_angle_alpha  90.05572
_cell_angle_beta   90.031539
_cell_angle_gamma 141.45389
loop_
_atom_site_label
_atom_site_type_symbol
_atom_site_fract_x
_atom_site_fract_y
_atom_site_fract_z
_atom_type_partial_charge
Dy0 Dy -0.00368 0.90845 0.14042 0.0
Dy1 Dy -0.05085 0.02038 1.00099 0.0
C2 C 0.18278 0.07222 0.97378 0.0
O3 O 0.13314 0.1194 0.1827 0.0
O4 O -0.00181 0.11531 0.12838 0.0
O5 O 0.12463 0.93408 0.22063 0.0
O6 O 0.91491 0.73532 0.20421 0.0
O7 O 0.76408 0.86679 0.07895 0.0
O8 O 0.83764 0.86337 0.20405 0.0
O9 O 0.86974 0.84159 0.93257 0.0
O10 O 0.82133 0.73992 1.0593 0.0
O11 O 0.83347 0.00646 0.91497 0.0
O12 O 0.0386 0.20247 0.94741 0.0
C13 C 0.09685 0.16985 0.17895 0.0
O14 O 0.11652 -0.03132 1.02388 0.0
O15 O 0.14978 0.12546 0.96842 0.0
C16 C 0.07252 0.74851 0.2187 0.0
C17 C 0.17652 0.66621 0.20995 0.0
C18 C 0.22052 0.76235 0.15239 0.0
C19 C 0.16954 0.80396 0.15706 0.0
C20 C 0.02166 0.64562 0.27222 0.0
C21 C 0.07414 0.60529 0.26834 0.0
C22 C 0.0324 0.80478 0.23288 0.0
C23 C 0.74683 0.83409 0.15988 0.0
C24 C 0.80928 0.73427 0.97624 0.0
C25 C 0.88357 0.19121 0.92327 0.0
C26 C 0.77918 0.27375 0.93181 0.0
C27 C 0.7345 0.17666 0.98888 0.0
C28 C 0.78558 0.13494 0.98428 0.0
C29 C 0.93478 0.29466 0.8701 0.0
C30 C 0.88206 0.33491 0.87377 0.0
C31 C 0.92668 0.13731 0.9104 0.0
H32 H 0.29816 0.80909 0.10599 0.0
H33 H 0.20904 0.88242 0.11446 0.0
H34 H -0.05389 0.60118 0.31977 0.0
H35 H 0.0371 0.52899 0.31208 0.0
H36 H 0.65599 0.129 1.03475 0.0
H37 H 0.74578 0.05607 1.02658 0.0
H38 H 0.01117 0.33993 0.82304 0.0
H39 H 0.91926 0.4113 0.83005 0.0
Dy40 Dy 0.02811 0.94037 0.50083 0.0
Dy41 Dy 0.91768 -0.01126 0.64064 0.0
C42 C 0.84157 0.73792 0.65963 0.0
O43 O 0.84973 0.86149 0.43259 0.0
O44 O 0.74868 0.81436 0.55935 0.0
O45 O 0.01368 0.82412 0.41481 0.0
O46 O 0.20966 0.02968 0.44666 0.0
O47 O -0.02221 0.10899 0.52415 0.0
O48 O 0.13381 0.14152 0.46847 0.0
O49 O 0.12817 0.12464 0.68281 0.0
O50 O 0.12302 -0.01112 0.62805 0.0
O51 O -0.05554 0.11828 0.72046 0.0
O52 O 0.74567 0.90801 0.7055 0.0
C53 C 0.74284 0.80179 0.47632 0.0
O54 O 0.87401 0.75505 0.57864 0.0
O55 O 0.87169 0.82923 0.70397 0.0
C56 C 0.19855 0.87465 0.42262 0.0
C57 C 0.28209 0.77125 0.43135 0.0
C58 C 0.18518 0.72652 0.48856 0.0
C59 C 0.14297 0.77711 0.48387 0.0
C60 C 0.30178 0.92592 0.36927 0.0
C61 C 0.34254 0.87368 0.37304 0.0
C62 C 0.14439 0.91748 0.40985 0.0
C63 C 0.08104 0.17497 0.47395 0.0
C64 C 0.17794 0.08767 0.67881 0.0
C65 C 0.75882 0.06582 0.71919 0.0
C66 C 0.67548 0.16878 0.71029 0.0
C67 C 0.77217 0.2136 0.653 0.0
C68 C 0.81429 0.16312 0.65773 0.0
C69 C 0.65548 0.0142 0.77247 0.0
C70 C 0.61463 0.06617 0.76852 0.0
C71 C 0.81543 0.02607 0.7334 0.0
H72 H 0.13806 0.64833 0.53464 0.0
H73 H 0.06431 0.73733 0.52632 0.0
H74 H 0.34654 0.002 0.32203 0.0
H75 H 0.41875 0.91089 0.3292 0.0
H76 H 0.8189 0.29146 0.60673 0.0
H77 H 0.89311 0.20322 0.61531 0.0
H78 H 0.61104 0.93842 0.81988 0.0
H79 H 0.53793 0.02853 0.81206 0.0
Zn80 Zn 0.34091 0.57009 0.1646 0.0
Zn81 Zn 0.34185 0.57243 0.47347 0.0
Zn82 Zn 0.36705 0.56989 0.32067 0.0
C83 C 0.60715 0.71356 0.44072 0.0
C84 C 0.16084 0.30939 0.44498 0.0
O85 O 0.2757 0.62275 0.27775 0.0
O86 O 0.2578 0.61178 0.13673 0.0
C87 C 0.61204 0.74721 0.19272 0.0
O88 O 0.57968 0.70663 0.36169 0.0
O89 O 0.51656 0.65368 0.49624 0.0
O90 O 0.17778 0.38075 0.49838 0.0
O91 O 0.22888 0.3623 0.37457 0.0
O92 O 0.52912 0.70767 0.13758 0.0
O93 O 0.57394 0.70543 0.2704 0.0
O94 O 0.22789 0.35711 0.2789 0.0
O95 O 0.23052 0.38608 0.14038 0.0
C96 C 0.19198 0.31103 0.20171 0.0
O97 O 0.31908 0.66645 0.36216 0.0
O98 O 0.33198 0.68409 0.5029 0.0
C99 C 0.23777 0.63023 0.20799 0.0
C100 C 0.31614 0.70774 0.43216 0.0
Zn101 Zn 0.57967 0.33272 0.97346 0.0
Zn102 Zn 0.57768 0.33148 0.66457 0.0
Zn103 Zn 0.57769 0.3582 0.82065 0.0
C104 C 0.75443 0.60295 0.69248 0.0
C105 C 0.31884 0.18225 0.70161 0.0
O106 O 0.67419 0.31031 0.8624 0.0
O107 O 0.69123 0.32291 1.00316 0.0
C108 C 0.72098 0.59844 0.94057 0.0
O109 O 0.71324 0.56517 0.77028 0.0
O110 O 0.71439 0.51969 0.63734 0.0
O111 O 0.39358 0.22003 0.64035 0.0
O112 O 0.36512 0.21903 0.77875 0.0
O113 O 0.66084 0.50767 0.99606 0.0
O114 O 0.71439 0.57105 0.86157 0.0
O115 O 0.37015 0.22001 0.87447 0.0
O116 O 0.38811 0.16853 0.99829 0.0
C117 C 0.31704 0.15183 0.94486 0.0
O118 O 0.6309 0.26708 0.77791 0.0
O119 O 0.62046 0.24933 0.63688 0.0
C120 C 0.71525 0.30732 0.93248 0.0
C121 C 0.63885 0.22942 0.70821 0.0
loop_
_geom_bond_atom_site_label_1
_geom_bond_atom_site_label_2
_geom_bond_distance
_geom_bond_site_symmetry_2
_ccdc_geom_bond_type
Dy0 O3 2.307 1_565 S
Dy0 O5 2.395 . S
Dy0 O6 2.379 . S
Dy0 O8 2.339 1_455 S
Dy0 O10 2.298 1_454 S
Dy0 O14 2.275 1_564 S
Dy0 C22 2.738 . S
Dy1 O4 2.298 1_656 S
Dy1 O7 2.275 1_546 S
Dy1 O9 2.307 1_545 S
Dy1 O11 2.395 . S
Dy1 O12 2.379 . S
Dy1 O15 2.339 1_655 S
Dy1 C31 2.738 . S
C2 O14 1.254 . S
C2 O15 1.257 . S
O3 Dy0 2.307 1_545 S
O3 C13 1.266 . S
O4 Dy1 2.298 1_454 S
O4 C13 1.236 . S
O5 Dy0 2.395 . S
O5 C22 1.255 . S
O6 Dy0 2.379 . S
O6 C22 1.249 . S
O7 Dy1 2.275 1_564 S
O7 C23 1.254 . S
O8 Dy0 2.339 1_655 S
O8 C23 1.257 . S
O9 Dy1 2.307 1_565 S
O9 C24 1.266 . S
O10 Dy0 2.298 1_656 S
O10 C24 1.236 . S
O11 Dy1 2.395 . S
O11 C31 1.255 . S
O12 Dy1 2.379 . S
O12 C31 1.249 . S
C13 O3 1.266 . S
C13 O4 1.236 . S
O14 Dy0 2.275 1_546 S
O14 C2 1.254 . S
O15 Dy1 2.339 1_455 S
O15 C2 1.257 . S
C16 C19 1.344 . S
C16 C20 1.328 . S
C16 C22 1.516 . S
C17 C18 1.304 . S
C17 C21 1.323 . S
C18 C17 1.304 . S
C18 C19 1.371 . S
C18 H32 0.930 . S
C19 C16 1.344 . S
C19 C18 1.371 . S
C19 H33 0.931 . S
C20 C16 1.328 . S
C20 C21 1.433 . S
C20 H34 0.931 . S
C21 C17 1.323 . S
C21 C20 1.433 . S
C21 H35 0.933 . S
C22 Dy0 2.738 . S
C22 O5 1.255 . S
C22 O6 1.249 . S
C22 C16 1.516 . S
C23 O7 1.254 . S
C23 O8 1.257 . S
C24 O9 1.266 . S
C24 O10 1.236 . S
C25 C28 1.344 . S
C25 C29 1.328 . S
C25 C31 1.516 . S
C26 C27 1.304 . S
C26 C30 1.323 . S
C27 C26 1.304 . S
C27 C28 1.371 . S
C27 H36 0.930 . S
C28 C25 1.344 . S
C28 C27 1.371 . S
C28 H37 0.931 . S
C29 C25 1.328 . S
C29 C30 1.433 . S
C29 H38 0.931 . S
C30 C26 1.323 . S
C30 C29 1.433 . S
C30 H39 0.933 . S
C31 Dy1 2.738 . S
C31 O11 1.255 . S
C31 O12 1.249 . S
C31 C25 1.516 . S
H32 C18 0.930 . S
H33 C19 0.931 . S
H34 C20 0.931 . S
H35 C21 0.933 . S
H36 C27 0.930 . S
H37 C28 0.931 . S
H38 C29 0.931 . S
H39 C30 0.933 . S
Dy40 O43 2.307 1_455 S
Dy40 O45 2.395 . S
Dy40 O46 2.379 1_565 S
Dy40 O48 2.339 1_565 S
Dy40 O50 2.298 1_565 S
Dy40 O54 2.275 1_455 S
Dy40 C62 2.738 . S
Dy41 O44 2.298 1_445 S
Dy41 O47 2.275 . S
Dy41 O49 2.307 . S
Dy41 O51 2.395 1_455 S
Dy41 O52 2.379 1_455 S
Dy41 O55 2.339 1_445 S
Dy41 C71 2.738 1_455 S
C42 O54 1.254 . S
C42 O55 1.257 . S
O43 Dy40 2.307 1_655 S
O43 C53 1.266 . S
O44 Dy41 2.298 1_665 S
O44 C53 1.236 . S
O45 Dy40 2.395 . S
O45 C62 1.255 . S
O46 Dy40 2.379 1_545 S
O46 C62 1.249 1_545 S
O47 Dy41 2.275 . S
O47 C63 1.254 . S
O48 Dy40 2.339 1_545 S
O48 C63 1.257 . S
O49 Dy41 2.307 . S
O49 C64 1.266 . S
O50 Dy40 2.298 1_545 S
O50 C64 1.236 . S
O51 Dy41 2.395 1_655 S
O51 C71 1.255 . S
O52 Dy41 2.379 1_655 S
O52 C71 1.249 . S
C53 O43 1.266 . S
C53 O44 1.236 . S
O54 Dy40 2.275 1_655 S
O54 C42 1.254 . S
O55 Dy41 2.339 1_665 S
O55 C42 1.257 . S
C56 C59 1.344 . S
C56 C60 1.328 . S
C56 C62 1.516 . S
C57 C58 1.304 . S
C57 C61 1.323 . S
C58 C57 1.304 . S
C58 C59 1.371 . S
C58 H72 0.930 . S
C59 C56 1.344 . S
C59 C58 1.371 . S
C59 H73 0.931 . S
C60 C56 1.328 . S
C60 C61 1.433 . S
C60 H74 0.931 1_565 S
C61 C57 1.323 . S
C61 C60 1.433 . S
C61 H75 0.933 . S
C62 Dy40 2.738 . S
C62 O45 1.255 . S
C62 O46 1.249 1_565 S
C62 C56 1.516 . S
C63 O47 1.254 . S
C63 O48 1.257 . S
C64 O49 1.266 . S
C64 O50 1.236 . S
C65 C68 1.344 . S
C65 C69 1.328 . S
C65 C71 1.516 . S
C66 C67 1.304 . S
C66 C70 1.323 . S
C67 C66 1.304 . S
C67 C68 1.371 . S
C67 H76 0.930 . S
C68 C65 1.344 . S
C68 C67 1.371 . S
C68 H77 0.931 . S
C69 C65 1.328 . S
C69 C70 1.433 . S
C69 H78 0.931 . S
C70 C66 1.323 . S
C70 C69 1.433 . S
C70 H79 0.933 . S
C71 Dy41 2.738 1_655 S
C71 O51 1.255 . S
C71 O52 1.249 . S
C71 C65 1.516 . S
H72 C58 0.930 . S
H73 C59 0.931 . S
H74 C60 0.931 1_545 S
H75 C61 0.933 . S
H76 C67 0.930 . S
H77 C68 0.931 . S
H78 C69 0.931 . S
H79 C70 0.933 . S
Zn80 O86 1.920 . S
Zn80 O92 1.898 . S
Zn80 O95 1.905 . S
Zn81 O89 1.905 . S
Zn81 O90 1.898 . S
Zn81 O98 1.920 . S
Zn82 O85 2.080 . S
Zn82 O88 2.114 . S
Zn82 O91 2.120 . S
Zn82 O93 2.120 . S
Zn82 O94 2.114 . S
Zn82 O97 2.080 . S
C83 O88 1.166 . S
C83 O89 1.182 . S
C84 O90 1.167 . S
C84 O91 1.299 . S
O85 Zn82 2.080 . S
O85 C99 1.305 . S
O86 Zn80 1.920 . S
O86 C99 1.234 . S
C87 O92 1.167 . S
C87 O93 1.299 . S
O88 Zn82 2.114 . S
O88 C83 1.166 . S
O89 Zn81 1.905 . S
O89 C83 1.182 . S
O90 Zn81 1.898 . S
O90 C84 1.167 . S
O91 Zn82 2.120 . S
O91 C84 1.299 . S
O92 Zn80 1.898 . S
O92 C87 1.167 . S
O93 Zn82 2.120 . S
O93 C87 1.299 . S
O94 Zn82 2.114 . S
O94 C96 1.166 . S
O95 Zn80 1.905 . S
O95 C96 1.182 . S
C96 O94 1.166 . S
C96 O95 1.182 . S
O97 Zn82 2.080 . S
O97 C100 1.305 . S
O98 Zn81 1.920 . S
O98 C100 1.234 . S
C99 O85 1.305 . S
C99 O86 1.234 . S
C100 O97 1.305 . S
C100 O98 1.234 . S
Zn101 O107 1.920 . S
Zn101 O113 1.898 . S
Zn101 O116 1.905 . S
Zn102 O110 1.905 . S
Zn102 O111 1.898 . S
Zn102 O119 1.920 . S
Zn103 O106 2.080 . S
Zn103 O109 2.114 . S
Zn103 O112 2.120 . S
Zn103 O114 2.120 . S
Zn103 O115 2.114 . S
Zn103 O118 2.080 . S
C104 O109 1.166 . S
C104 O110 1.182 . S
C105 O111 1.167 . S
C105 O112 1.299 . S
O106 Zn103 2.080 . S
O106 C120 1.305 . S
O107 Zn101 1.920 . S
O107 C120 1.234 . S
C108 O113 1.167 . S
C108 O114 1.299 . S
O109 Zn103 2.114 . S
O109 C104 1.166 . S
O110 Zn102 1.905 . S
O110 C104 1.182 . S
O111 Zn102 1.898 . S
O111 C105 1.167 . S
O112 Zn103 2.120 . S
O112 C105 1.299 . S
O113 Zn101 1.898 . S
O113 C108 1.167 . S
O114 Zn103 2.120 . S
O114 C108 1.299 . S
O115 Zn103 2.114 . S
O115 C117 1.166 . S
O116 Zn101 1.905 . S
O116 C117 1.182 . S
C117 O115 1.166 . S
C117 O116 1.182 . S
O118 Zn103 2.080 . S
O118 C121 1.305 . S
O119 Zn102 1.920 . S
O119 C121 1.234 . S
C120 O106 1.305 . S
C120 O107 1.234 . S
C121 O118 1.305 . S
C121 O119 1.234 . S
C17 C99 1.205 . S
C64 C105 1.372 . S
C13 C96 1.541 . S
C66 C121 1.854 . S
C23 C87 2.069 . S
C104 C42 1.935 . S
C57 C100 1.205 . S
C117 C2 1.935 . S
C84 C63 2.069 . S
C120 C26 1.854 . S
C83 C53 1.541 . S
C108 C24 1.372 . S
