# Generated by pormake.
# Topology scu, (8,4)-cn, num edge types: 1
# Building blocks:
#     Node 0, Type 0, BuildingBlock: GIZVER_clean_sbu_0, # of connection points: 8
#     Node 1, Type 1, BuildingBlock: MUDLON_clean_sbu_0, # of connection points: 4
#     Node 2, Type 1, BuildingBlock: MUDLON_clean_sbu_0, # of connection points: 4
#     Edge 3, Type (0, 1), BuildingBlock: EYOCIG_clean_linker_4, # of connection points: 2
#     Edge 4, Type (0, 1), BuildingBlock: EYOCIG_clean_linker_4, # of connection points: 2
#     Edge 5, Type (0, 1), BuildingBlock: EYOCIG_clean_linker_4, # of connection points: 2
#     Edge 6, Type (0, 1), BuildingBlock: EYOCIG_clean_linker_4, # of connection points: 2
#     Edge 7, Type (0, 1), BuildingBlock: EYOCIG_clean_linker_4, # of connection points: 2
#     Edge 8, Type (0, 1), BuildingBlock: EYOCIG_clean_linker_4, # of connection points: 2
#     Edge 9, Type (0, 1), BuildingBlock: EYOCIG_clean_linker_4, # of connection points: 2
#     Edge 10, Type (0, 1), BuildingBlock: EYOCIG_clean_linker_4, # of connection points: 2
# Relax obj value: 0.009
# Max RMSD: 0.066
# Mean RMSD: 0.040
data_MOF--net-scu--node1-GIZVER_clean_sbu_0--node2-MUDLON_clean_sbu_0--edge1-EYOCIG_clean_linker_4
_symmetry_space_group_name_H-M    P1
_symmetry_Int_Tables_number       1
_symmetry_cell_setting            triclinic
loop_
_symmetry_equiv_pos_as_xyz
'x, y, z'
_cell_length_a     20.063084
_cell_length_b     20.763325
_cell_length_c     17.728947
_cell_angle_alpha  100.7107
_cell_angle_beta   79.079529
_cell_angle_gamma 116.80256
loop_
_atom_site_label
_atom_site_type_symbol
_atom_site_fract_x
_atom_site_fract_y
_atom_site_fract_z
_atom_type_partial_charge
Co0 Co -0.00074 0.93515 0.27643 0.0
Co1 Co 0.10454 0.05934 0.25185 0.0
Co2 Co -0.01708 0.0167 0.1341 0.0
O3 O 0.04144 0.98667 0.1875 0.0
H4 H 0.07039 0.9657 0.15053 0.0
O5 O 0.92507 0.04766 0.08092 0.0
Co6 Co -0.03048 0.09814 0.99134 0.0
Co7 Co 0.85961 0.97633 1.01838 0.0
H8 H 0.8976 0.07034 0.11768 0.0
O9 O 0.19352 0.0602 0.26221 0.0
O10 O 0.08111 0.01075 0.33669 0.0
O11 O 0.08749 0.14395 0.28193 0.0
O12 O -0.00162 0.10996 0.20495 0.0
O13 O 0.07784 0.06739 0.06634 0.0
O14 O 0.00688 0.15053 0.91224 0.0
O15 O 0.92158 0.15644 1.01329 0.0
O16 O 0.02821 0.04526 0.95746 0.0
O17 O -0.03405 0.9228 0.06301 0.0
O18 O 0.87129 0.88884 0.9928 0.0
O19 O 0.88722 0.02406 0.93186 0.0
O20 O 0.77365 0.98079 1.00509 0.0
C21 C 0.01035 0.85534 0.31754 0.0
C22 C 0.88465 0.97791 0.27552 0.0
C23 C 0.03784 0.15359 0.2574 0.0
C24 C 0.15321 0.02817 0.32238 0.0
C25 C -0.03687 0.17982 0.94921 0.0
C26 C 0.08165 0.05434 0.9931 0.0
C27 C 0.92181 0.8782 1.01426 0.0
C28 C 0.81641 0.01149 0.94512 0.0
O29 O -0.03579 0.8817 0.35509 0.0
O30 O 0.05036 0.87989 0.25331 0.0
O31 O 0.88848 0.96613 0.20216 0.0
O32 O 0.9374 0.98513 0.31128 0.0
Mg33 Mg -0.01725 0.51769 0.63417 0.0
C34 C 0.00453 0.42112 0.50138 0.0
O35 O 0.07282 0.46728 0.5161 0.0
C36 C -0.01994 0.62175 0.76758 0.0
O37 O 0.05118 0.63438 0.75118 0.0
C38 C 0.01236 0.4334 0.73816 0.0
O39 O 0.08316 0.47249 0.71389 0.0
O40 O 0.96094 0.44126 0.7146 0.0
O41 O 0.94837 0.42747 0.54325 0.0
O42 O -0.01836 0.58825 0.55829 0.0
C43 C 0.03922 0.62719 0.5159 0.0
O44 O 0.10441 0.62733 0.5172 0.0
O45 O 0.93191 0.57184 0.72655 0.0
Mg46 Mg 0.48252 0.01358 0.63457 0.0
C47 C 0.36964 0.98865 0.5359 0.0
O48 O 0.35473 0.92252 0.547 0.0
C49 C 0.59234 0.013 0.71985 0.0
O50 O 0.55817 0.94514 0.69022 0.0
C51 C 0.35281 0.99345 0.7569 0.0
O52 O 0.33397 0.92575 0.72692 0.0
O53 O 0.41417 0.04324 0.73117 0.0
O54 O 0.42471 0.04232 0.56463 0.0
O55 O 0.57353 0.03289 0.54124 0.0
C56 C 0.57978 0.97791 0.5019 0.0
O57 O 0.52948 0.91247 0.51594 0.0
O58 O 0.57209 0.05953 0.7075 0.0
C59 C 0.00764 0.26014 0.33629 0.0
C60 C 0.0186 0.21071 0.29777 0.0
C61 C -0.00244 0.31512 0.39058 0.0
C62 C -0.00475 0.36151 0.44184 0.0
C63 C 0.76467 0.98802 0.35698 0.0
C64 C 0.81911 0.98327 0.31901 0.0
C65 C 0.70065 0.98967 0.40483 0.0
C66 C 0.64637 0.98671 0.44958 0.0
C67 C 0.02382 0.7583 0.38321 0.0
C68 C 0.02 0.80235 0.35051 0.0
C69 C 0.02836 0.71051 0.42725 0.0
C70 C 0.03316 0.67243 0.46777 0.0
C71 C 0.2293 0.01012 0.41609 0.0
C72 C 0.19087 0.01659 0.37607 0.0
C73 C 0.27876 0.00489 0.45907 0.0
C74 C 0.3214 -0.0005 0.49441 0.0
C75 C 0.94036 0.76547 0.93537 0.0
C76 C 0.93538 0.81775 0.97408 0.0
C77 C 0.94816 0.70985 0.88034 0.0
C78 C 0.95911 0.66785 0.82837 0.0
C79 C 0.1977 0.03703 0.91071 0.0
C80 C 0.14558 0.0453 0.95009 0.0
C81 C 0.25517 0.02456 0.86028 0.0
C82 C 0.30066 0.01168 0.81314 0.0
C83 C -0.0349 0.28327 0.88131 0.0
C84 C 0.96018 0.23674 0.91677 0.0
C85 C -0.0221 0.33624 0.83371 0.0
C86 C -0.00729 0.38036 0.7901 0.0
C87 C 0.74769 0.03702 0.84958 0.0
C88 C 0.78295 0.02704 0.89044 0.0
C89 C 0.69839 0.0396 0.80436 0.0
C90 C 0.65101 0.0327 0.76675 0.0
loop_
_geom_bond_atom_site_label_1
_geom_bond_atom_site_label_2
_geom_bond_distance
_geom_bond_site_symmetry_2
_ccdc_geom_bond_type
Co0 O3 2.042 1_565 S
Co0 O10 2.264 1_565 S
Co0 O29 2.286 1_455 S
Co0 O30 2.069 . S
Co0 O32 2.015 1_455 S
Co1 O3 2.122 . S
Co1 O9 2.073 . S
Co1 O10 2.327 . S
Co1 O11 1.976 . S
Co2 O3 2.087 . S
Co2 O5 2.087 1_455 S
Co2 O12 2.111 . S
Co2 O13 2.143 . S
Co2 O17 2.111 1_445 S
Co2 O31 2.143 1_445 S
O3 Co0 2.042 1_545 S
O3 Co1 2.122 . S
O3 Co2 2.087 . S
O3 H4 0.980 1_545 S
H4 O3 0.980 1_565 S
O5 Co2 2.087 1_655 S
O5 Co6 2.042 1_654 S
O5 Co7 2.122 1_544 S
O5 H8 0.980 . S
Co6 O5 2.042 1_456 S
Co6 O14 2.286 . S
Co6 O15 2.069 1_455 S
Co6 O16 2.015 . S
Co6 O19 2.264 1_455 S
Co7 O5 2.122 1_566 S
Co7 O18 1.976 . S
Co7 O19 2.327 1_565 S
Co7 O20 2.073 . S
H8 O5 0.980 . S
O9 Co1 2.073 . S
O9 C24 1.245 . S
O10 Co0 2.264 1_545 S
O10 Co1 2.327 . S
O10 C24 1.257 . S
O11 Co1 1.976 . S
O11 C23 1.251 . S
O12 Co2 2.111 . S
O12 C23 1.274 . S
O13 Co2 2.143 . S
O13 C26 1.246 1_554 S
O14 Co6 2.286 . S
O14 C25 1.259 . S
O15 Co6 2.069 1_655 S
O15 C25 1.289 1_655 S
O16 Co6 2.015 . S
O16 C26 1.257 . S
O17 Co2 2.111 1_665 S
O17 C27 1.274 1_554 S
O18 Co7 1.976 . S
O18 C27 1.251 . S
O19 Co6 2.264 1_655 S
O19 Co7 2.327 1_545 S
O19 C28 1.257 . S
O20 Co7 2.073 . S
O20 C28 1.245 1_565 S
C21 O29 1.259 1_455 S
C21 O30 1.289 . S
C22 O31 1.246 . S
C22 O32 1.257 . S
C23 O11 1.251 . S
C23 O12 1.274 . S
C24 O9 1.245 . S
C24 O10 1.257 . S
C25 O14 1.259 . S
C25 O15 1.289 1_455 S
C26 O13 1.246 1_556 S
C26 O16 1.257 . S
C27 O17 1.274 1_556 S
C27 O18 1.251 . S
C28 O19 1.257 . S
C28 O20 1.245 1_545 S
O29 Co0 2.286 1_655 S
O29 C21 1.259 1_655 S
O30 Co0 2.069 . S
O30 C21 1.289 . S
O31 Co2 2.143 1_665 S
O31 C22 1.246 . S
O32 Co0 2.015 1_655 S
O32 C22 1.257 . S
Mg33 O40 2.141 . S
Mg33 O41 2.048 . S
Mg33 O42 2.048 . S
Mg33 O45 2.141 . S
C34 O35 1.313 . S
C34 O41 1.195 1_455 S
O35 C34 1.313 . S
C36 O37 1.245 . S
C36 O45 1.289 1_455 S
O37 C36 1.245 . S
C38 O39 1.245 . S
C38 O40 1.289 1_455 S
O39 C38 1.245 . S
O40 Mg33 2.141 . S
O40 C38 1.289 1_655 S
O41 Mg33 2.048 . S
O41 C34 1.195 1_655 S
O42 Mg33 2.048 . S
O42 C43 1.195 1_655 S
C43 O42 1.195 1_455 S
C43 O44 1.313 . S
O44 C43 1.313 . S
O45 Mg33 2.141 . S
O45 C36 1.289 1_655 S
Mg46 O53 2.141 . S
Mg46 O54 2.048 . S
Mg46 O55 2.048 . S
Mg46 O58 2.141 . S
C47 O48 1.313 1_545 S
C47 O54 1.195 . S
O48 C47 1.313 1_565 S
C49 O50 1.245 1_545 S
C49 O58 1.289 . S
O50 C49 1.245 1_565 S
C51 O52 1.245 1_545 S
C51 O53 1.289 . S
O52 C51 1.245 1_565 S
O53 Mg46 2.141 . S
O53 C51 1.289 . S
O54 Mg46 2.048 . S
O54 C47 1.195 . S
O55 Mg46 2.048 . S
O55 C56 1.195 . S
C56 O55 1.195 . S
C56 O57 1.313 1_545 S
O57 C56 1.313 1_565 S
O58 Mg46 2.141 . S
O58 C49 1.289 . S
C59 C60 1.170 . S
C59 C61 1.380 . S
C60 C59 1.170 . S
C61 C59 1.380 . S
C61 C62 1.170 . S
C62 C61 1.170 . S
C63 C64 1.170 . S
C63 C65 1.380 . S
C64 C63 1.170 . S
C65 C63 1.380 . S
C65 C66 1.170 . S
C66 C65 1.170 . S
C67 C68 1.170 . S
C67 C69 1.380 . S
C68 C67 1.170 . S
C69 C67 1.380 . S
C69 C70 1.170 . S
C70 C69 1.170 . S
C71 C72 1.170 . S
C71 C73 1.380 . S
C72 C71 1.170 . S
C73 C71 1.380 . S
C73 C74 1.170 . S
C74 C73 1.170 . S
C75 C76 1.170 . S
C75 C77 1.380 . S
C76 C75 1.170 . S
C77 C75 1.380 . S
C77 C78 1.170 . S
C78 C77 1.170 . S
C79 C80 1.170 . S
C79 C81 1.380 . S
C80 C79 1.170 . S
C81 C79 1.380 . S
C81 C82 1.170 . S
C82 C81 1.170 . S
C83 C84 1.170 . S
C83 C85 1.380 . S
C84 C83 1.170 . S
C85 C83 1.380 . S
C85 C86 1.170 . S
C86 C85 1.170 . S
C87 C88 1.170 . S
C87 C89 1.380 . S
C88 C87 1.170 . S
C89 C87 1.380 . S
C89 C90 1.170 . S
C90 C89 1.170 . S
C60 C23 1.350 . S
C62 C34 1.421 . S
C64 C22 1.455 1_545 S
C66 C56 1.483 . S
C68 C21 1.664 . S
C70 C43 1.657 . S
C72 C24 1.472 . S
C74 C47 1.520 . S
C76 C27 1.257 1_455 S
C78 C36 1.362 . S
C80 C26 1.389 . S
C82 C51 1.426 . S
C86 C38 1.617 . S
C84 C25 1.610 . S
C88 C28 1.447 . S
C90 C49 1.487 . S
