# Generated by pormake.
# Topology bcu-b, (8,8)-cn, num edge types: 1
# Building blocks:
#     Node 0, Type 0, BuildingBlock: VETTIZ_charged_sbu_0, # of connection points: 8
#     Node 1, Type 1, BuildingBlock: GIZVER_clean_sbu_0, # of connection points: 8
#     Edge 2, Type (0, 1), BuildingBlock: AJUNOK_clean_linker_0, # of connection points: 2
#     Edge 3, Type (0, 1), BuildingBlock: AJUNOK_clean_linker_0, # of connection points: 2
#     Edge 4, Type (0, 1), BuildingBlock: AJUNOK_clean_linker_0, # of connection points: 2
#     Edge 5, Type (0, 1), BuildingBlock: AJUNOK_clean_linker_0, # of connection points: 2
#     Edge 6, Type (0, 1), BuildingBlock: AJUNOK_clean_linker_0, # of connection points: 2
#     Edge 7, Type (0, 1), BuildingBlock: AJUNOK_clean_linker_0, # of connection points: 2
#     Edge 8, Type (0, 1), BuildingBlock: AJUNOK_clean_linker_0, # of connection points: 2
#     Edge 9, Type (0, 1), BuildingBlock: AJUNOK_clean_linker_0, # of connection points: 2
# Relax obj value: 0.086
# Max RMSD: 0.149
# Mean RMSD: 0.139
data_MOF--net-bcu-b--node1-VETTIZ_charged_sbu_0--node2-GIZVER_clean_sbu_0--edge1-AJUNOK_clean_linker_0
_symmetry_space_group_name_H-M    P1
_symmetry_Int_Tables_number       1
_symmetry_cell_setting            triclinic
loop_
_symmetry_equiv_pos_as_xyz
'x, y, z'
_cell_length_a     16.214859
_cell_length_b     16.973067
_cell_length_c     12.499897
_cell_angle_alpha  90.136797
_cell_angle_beta   94.080874
_cell_angle_gamma 103.90134
loop_
_atom_site_label
_atom_site_type_symbol
_atom_site_fract_x
_atom_site_fract_y
_atom_site_fract_z
_atom_type_partial_charge
Fe0 Fe 0.99876 0.94308 1.03256 0.0
O1 O 0.96855 1.02601 0.12711 0.0
Fe2 Fe 0.04914 0.04875 0.79758 0.0
Fe3 Fe 0.98468 1.02535 0.28543 0.0
O4 O 0.06008 1.0396 0.95436 0.0
O5 O 0.06151 0.04759 0.95522 0.0
O6 O 0.97031 1.03418 0.12818 0.0
Fe7 Fe 0.03133 0.13051 0.04893 0.0
C8 C 0.87799 0.86041 0.20401 0.0
O9 O 0.10806 0.9455 0.127 0.0
O10 O 0.06006 0.94332 0.28949 0.0
O11 O 0.10316 0.22113 0.95509 0.0
O12 O 0.14948 0.14887 0.82397 0.0
O13 O 0.11684 0.9605 0.80739 0.0
O14 O 0.04279 0.86897 0.92461 0.0
O15 O 0.09289 0.11949 0.30542 0.0
O16 O 0.14196 0.13924 0.14339 0.0
C17 C 0.09819 0.89028 0.85272 0.0
O18 O 0.92246 0.12795 0.95325 0.0
O19 O 0.97248 0.1301 0.79134 0.0
O20 O 0.92631 0.85314 0.1271 0.0
O21 O 0.88391 0.92533 0.26221 0.0
C22 C 0.11244 0.92864 0.22579 0.0
C23 C 0.15159 0.14966 0.24453 0.0
C24 C 0.93736 0.18507 0.235 0.0
O25 O 0.91863 0.11493 0.28042 0.0
O26 O 0.98823 0.20457 0.15776 0.0
C27 C 0.15396 0.21385 0.88135 0.0
O28 O 0.94213 0.95412 0.77561 0.0
O29 O 0.8889 0.93388 0.93572 0.0
C30 C 0.91949 0.14493 0.85423 0.0
C31 C 0.88169 0.92422 0.83419 0.0
Co32 Co 0.62514 0.39343 0.49692 0.0
Co33 Co 0.62302 0.43403 0.68947 0.0
Co34 Co 0.51582 0.53615 0.54292 0.0
O35 O 0.61714 0.49022 0.56792 0.0
H36 H 0.66917 0.53217 0.56569 0.0
O37 O 0.41432 0.58243 0.51736 0.0
Co38 Co 0.41127 0.67918 0.59176 0.0
Co39 Co 0.40965 0.64265 0.39881 0.0
H40 H 0.36178 0.54111 0.51906 0.0
O41 O 0.7258 0.43664 0.75716 0.0
O42 O 0.64939 0.34195 0.63706 0.0
O43 O 0.52364 0.40969 0.76689 0.0
O44 O 0.44589 0.4695 0.65446 0.0
O45 O 0.57113 0.6216 0.65359 0.0
O46 O 0.39956 0.76284 0.66728 0.0
O47 O 0.29974 0.6492 0.61854 0.0
O48 O 0.52852 0.72304 0.57658 0.0
O49 O 0.58548 0.60268 0.43139 0.0
O50 O 0.51045 0.66881 0.32391 0.0
O51 O 0.38377 0.73381 0.4555 0.0
O52 O 0.30813 0.64355 0.32898 0.0
C53 C 0.71946 0.35577 0.4271 0.0
C54 C 0.45135 0.37489 0.44603 0.0
C55 C 0.45362 0.42654 0.73697 0.0
C56 C 0.71382 0.36653 0.70853 0.0
C57 C 0.32229 0.71859 0.67098 0.0
C58 C 0.58351 0.69695 0.63411 0.0
C59 C 0.57914 0.64869 0.35172 0.0
C60 C 0.32147 0.71269 0.38056 0.0
O61 O 0.64271 0.30947 0.42478 0.0
O62 O 0.73788 0.42534 0.47891 0.0
O63 O 0.46133 0.45087 0.43232 0.0
O64 O 0.50602 0.34773 0.50332 0.0
C65 C 0.26854 0.18822 0.39103 0.0
C66 C 0.23027 0.20551 0.29217 0.0
C67 C 0.341 0.24265 0.43948 0.0
C68 C 0.37619 0.31732 0.39226 0.0
H69 H 0.24244 0.13213 0.431 0.0
H70 H 0.36853 0.22688 0.51558 0.0
S71 S 0.29747 0.39245 0.13536 0.0
N72 N 0.23208 0.30273 0.14941 0.0
N73 N 0.36658 0.4057 0.24128 0.0
C74 C 0.33788 0.33549 0.29381 0.0
C75 C 0.26543 0.27938 0.24351 0.0
C76 C 0.82178 0.25787 0.21778 0.0
C77 C 0.89511 0.24554 0.27504 0.0
C78 C 0.76692 0.29725 0.26648 0.0
C79 C 0.7849 0.32713 0.37285 0.0
H80 H 0.8038 0.2322 0.13759 0.0
H81 H 0.7085 0.30185 0.22194 0.0
S82 S 0.97135 0.31353 0.55437 0.0
N83 N 0.98419 0.26764 0.44215 0.0
N84 N 0.88328 0.34553 0.53169 0.0
C85 C 0.8607 0.31952 0.42851 0.0
C86 C 0.9153 0.27753 0.38001 0.0
C87 C 0.81133 0.74728 0.31858 0.0
C88 C 0.80703 0.79191 0.22494 0.0
C89 C 0.73786 0.69584 0.35484 0.0
C90 C 0.65739 0.68873 0.29959 0.0
H91 H 0.87098 0.75561 0.36716 0.0
H92 H 0.74359 0.66584 0.43045 0.0
S93 S 0.61481 0.79027 0.04574 0.0
N94 N 0.71827 0.82391 0.07517 0.0
N95 N 0.57997 0.72636 0.14119 0.0
C96 C 0.65362 0.72995 0.20227 0.0
C97 C 0.72854 0.78203 0.16563 0.0
C98 C 0.18577 0.81788 0.19854 0.0
C99 C 0.17207 0.87984 0.26466 0.0
C100 C 0.2339 0.76432 0.23729 0.0
C101 C 0.27201 0.77174 0.34292 0.0
H102 H 0.15656 0.80878 0.1173 0.0
H103 H 0.24126 0.7167 0.18357 0.0
S104 S 0.2611 0.92907 0.54488 0.0
N105 N 0.20269 0.94818 0.43896 0.0
N106 N 0.29701 0.85014 0.51037 0.0
C107 C 0.26172 0.83584 0.40832 0.0
C108 C 0.21068 0.88911 0.36962 0.0
C109 C 0.23866 0.86049 0.84385 0.0
C110 C 0.15006 0.83431 0.82443 0.0
C111 C 0.29305 0.81951 0.79844 0.0
C112 C 0.26109 0.75114 0.73026 0.0
H113 H 0.26637 0.91542 0.89092 0.0
H114 H 0.36102 0.84401 0.8136 0.0
S115 S 0.03246 0.65473 0.66137 0.0
N116 N 0.03147 0.73324 0.73937 0.0
N117 N 0.13387 0.65554 0.65229 0.0
C118 C 0.172 0.72145 0.7151 0.0
C119 C 0.11637 0.76335 0.76245 0.0
C120 C 0.30863 0.2716 0.89938 0.0
C121 C 0.22742 0.28125 0.86583 0.0
C122 C 0.38181 0.32326 0.86381 0.0
C123 C 0.3764 0.38555 0.7911 0.0
H124 H 0.31543 0.22103 0.94923 0.0
H125 H 0.44265 0.31064 0.88851 0.0
S126 S 0.17705 0.44184 0.69167 0.0
N127 N 0.1445 0.36178 0.76645 0.0
N128 N 0.28204 0.45948 0.6977 0.0
C129 C 0.29513 0.39932 0.76338 0.0
C130 C 0.22052 0.3468 0.80095 0.0
C131 C 0.80199 0.17766 0.73482 0.0
C132 C 0.86675 0.20035 0.81758 0.0
C133 C 0.75315 0.23193 0.69899 0.0
C134 C 0.76882 0.31117 0.74335 0.0
H135 H 0.78842 0.11744 0.69861 0.0
H136 H 0.70275 0.21146 0.63635 0.0
S137 S 0.93986 0.40146 0.95387 0.0
N138 N 0.94857 0.30738 0.93785 0.0
N139 N 0.8597 0.41048 0.86959 0.0
C140 C 0.83621 0.33494 0.82367 0.0
C141 C 0.88443 0.27923 0.861 0.0
C142 C 0.76797 0.79558 0.8324 0.0
C143 C 0.8042 0.8689 0.7831 0.0
C144 C 0.6974 0.73963 0.78297 0.0
C145 C 0.66009 0.75533 0.68271 0.0
H146 H 0.79577 0.78036 0.90859 0.0
H147 H 0.67136 0.68411 0.8242 0.0
S148 S 0.73496 0.93592 0.51659 0.0
N149 N 0.80059 0.95235 0.62599 0.0
N150 N 0.66737 0.84779 0.53331 0.0
C151 C 0.69659 0.82793 0.63174 0.0
C152 C 0.76897 0.88442 0.68167 0.0
loop_
_geom_bond_atom_site_label_1
_geom_bond_atom_site_label_2
_geom_bond_distance
_geom_bond_site_symmetry_2
_ccdc_geom_bond_type
Fe0 O1 1.886 . S
Fe0 O4 1.715 1_554 S
Fe0 O9 2.077 1_655 S
Fe0 O14 1.935 1_654 S
Fe0 O20 2.077 . S
Fe0 O29 1.935 1_554 S
O1 Fe0 1.886 . S
O1 Fe3 1.715 1_655 S
Fe2 O4 1.886 1_545 S
Fe2 O5 1.715 1_655 S
Fe2 O12 1.935 1_655 S
Fe2 O13 2.077 1_645 S
Fe2 O19 1.935 . S
Fe2 O28 2.077 1_545 S
Fe3 O1 1.715 1_455 S
Fe3 O6 1.886 1_565 S
Fe3 O10 1.935 . S
Fe3 O15 2.077 1_565 S
Fe3 O21 1.935 1_455 S
Fe3 O25 2.077 1_465 S
O4 Fe0 1.715 1_556 S
O4 Fe2 1.886 1_565 S
O5 Fe2 1.715 1_455 S
O5 Fe7 1.886 . S
O6 Fe3 1.886 1_545 S
O6 Fe7 1.715 1_554 S
Fe7 O5 1.886 . S
Fe7 O6 1.715 1_556 S
Fe7 O11 2.077 . S
Fe7 O16 1.935 1_556 S
Fe7 O18 2.077 1_455 S
Fe7 O26 1.935 1_456 S
C8 O20 1.381 . S
C8 O21 1.421 . S
O9 Fe0 2.077 1_455 S
O9 C22 1.381 . S
O10 Fe3 1.935 . S
O10 C22 1.421 . S
O11 Fe7 2.077 . S
O11 C27 1.381 . S
O12 Fe2 1.935 1_455 S
O12 C27 1.421 . S
O13 Fe2 2.077 1_465 S
O13 C17 1.381 . S
O14 Fe0 1.935 1_456 S
O14 C17 1.421 . S
O15 Fe3 2.077 1_545 S
O15 C23 1.381 . S
O16 Fe7 1.935 1_554 S
O16 C23 1.421 . S
C17 O13 1.381 . S
C17 O14 1.421 . S
O18 Fe7 2.077 1_655 S
O18 C30 1.381 . S
O19 Fe2 1.935 . S
O19 C30 1.421 . S
O20 Fe0 2.077 . S
O20 C8 1.381 . S
O21 Fe3 1.935 1_655 S
O21 C8 1.421 . S
C22 O9 1.381 . S
C22 O10 1.421 . S
C23 O15 1.381 . S
C23 O16 1.421 . S
C24 O25 1.381 . S
C24 O26 1.421 . S
O25 Fe3 2.077 1_645 S
O25 C24 1.381 . S
O26 Fe7 1.935 1_654 S
O26 C24 1.421 . S
C27 O11 1.381 . S
C27 O12 1.421 . S
O28 Fe2 2.077 1_565 S
O28 C31 1.381 . S
O29 Fe0 1.935 1_556 S
O29 C31 1.421 . S
C30 O18 1.381 . S
C30 O19 1.421 . S
C31 O28 1.381 . S
C31 O29 1.421 . S
Co32 O35 2.042 . S
Co32 O42 2.264 . S
Co32 O61 2.286 . S
Co32 O62 2.069 . S
Co32 O64 2.015 . S
Co33 O35 2.122 . S
Co33 O41 2.073 . S
Co33 O42 2.327 . S
Co33 O43 1.976 . S
Co34 O35 2.087 . S
Co34 O37 2.087 . S
Co34 O44 2.111 . S
Co34 O45 2.143 . S
Co34 O49 2.111 . S
Co34 O63 2.143 . S
O35 Co32 2.042 . S
O35 Co33 2.122 . S
O35 Co34 2.087 . S
O35 H36 0.980 . S
H36 O35 0.980 . S
O37 Co34 2.087 . S
O37 Co38 2.042 . S
O37 Co39 2.122 . S
O37 H40 0.980 . S
Co38 O37 2.042 . S
Co38 O46 2.286 . S
Co38 O47 2.069 . S
Co38 O48 2.015 . S
Co38 O51 2.264 . S
Co39 O37 2.122 . S
Co39 O50 1.976 . S
Co39 O51 2.327 . S
Co39 O52 2.073 . S
H40 O37 0.980 . S
O41 Co33 2.073 . S
O41 C56 1.245 . S
O42 Co32 2.264 . S
O42 Co33 2.327 . S
O42 C56 1.257 . S
O43 Co33 1.976 . S
O43 C55 1.251 . S
O44 Co34 2.111 . S
O44 C55 1.274 . S
O45 Co34 2.143 . S
O45 C58 1.246 . S
O46 Co38 2.286 . S
O46 C57 1.259 . S
O47 Co38 2.069 . S
O47 C57 1.289 . S
O48 Co38 2.015 . S
O48 C58 1.257 . S
O49 Co34 2.111 . S
O49 C59 1.274 . S
O50 Co39 1.976 . S
O50 C59 1.251 . S
O51 Co38 2.264 . S
O51 Co39 2.327 . S
O51 C60 1.257 . S
O52 Co39 2.073 . S
O52 C60 1.245 . S
C53 O61 1.259 . S
C53 O62 1.289 . S
C54 O63 1.246 . S
C54 O64 1.257 . S
C55 O43 1.251 . S
C55 O44 1.274 . S
C56 O41 1.245 . S
C56 O42 1.257 . S
C57 O46 1.259 . S
C57 O47 1.289 . S
C58 O45 1.246 . S
C58 O48 1.257 . S
C59 O49 1.274 . S
C59 O50 1.251 . S
C60 O51 1.257 . S
C60 O52 1.245 . S
O61 Co32 2.286 . S
O61 C53 1.259 . S
O62 Co32 2.069 . S
O62 C53 1.289 . S
O63 Co34 2.143 . S
O63 C54 1.246 . S
O64 Co32 2.015 . S
O64 C54 1.257 . S
C65 C66 1.369 . S
C65 C67 1.419 . S
C65 H69 0.930 . S
C66 C65 1.369 . S
C66 C75 1.429 . S
C67 C65 1.419 . S
C67 C68 1.363 . S
C67 H70 0.929 . S
C68 C67 1.363 . S
C68 C74 1.428 . S
H69 C65 0.930 . S
H70 C67 0.929 . S
S71 N72 1.613 . S
S71 N73 1.610 . S
N72 S71 1.613 . S
N72 C75 1.350 . S
N73 S71 1.610 . S
N73 C74 1.351 . S
C74 C68 1.428 . S
C74 N73 1.351 . S
C74 C75 1.434 . S
C75 C66 1.429 . S
C75 N72 1.350 . S
C75 C74 1.434 . S
C76 C77 1.369 . S
C76 C78 1.419 . S
C76 H80 0.930 . S
C77 C76 1.369 . S
C77 C86 1.429 . S
C78 C76 1.419 . S
C78 C79 1.363 . S
C78 H81 0.929 . S
C79 C78 1.363 . S
C79 C85 1.428 . S
H80 C76 0.930 . S
H81 C78 0.929 . S
S82 N83 1.613 . S
S82 N84 1.610 . S
N83 S82 1.613 . S
N83 C86 1.350 . S
N84 S82 1.610 . S
N84 C85 1.351 . S
C85 C79 1.428 . S
C85 N84 1.351 . S
C85 C86 1.434 . S
C86 C77 1.429 . S
C86 N83 1.350 . S
C86 C85 1.434 . S
C87 C88 1.369 . S
C87 C89 1.419 . S
C87 H91 0.930 . S
C88 C87 1.369 . S
C88 C97 1.429 . S
C89 C87 1.419 . S
C89 C90 1.363 . S
C89 H92 0.929 . S
C90 C89 1.363 . S
C90 C96 1.428 . S
H91 C87 0.930 . S
H92 C89 0.929 . S
S93 N94 1.613 . S
S93 N95 1.610 . S
N94 S93 1.613 . S
N94 C97 1.350 . S
N95 S93 1.610 . S
N95 C96 1.351 . S
C96 C90 1.428 . S
C96 N95 1.351 . S
C96 C97 1.434 . S
C97 C88 1.429 . S
C97 N94 1.350 . S
C97 C96 1.434 . S
C98 C99 1.369 . S
C98 C100 1.419 . S
C98 H102 0.930 . S
C99 C98 1.369 . S
C99 C108 1.429 . S
C100 C98 1.419 . S
C100 C101 1.363 . S
C100 H103 0.929 . S
C101 C100 1.363 . S
C101 C107 1.428 . S
H102 C98 0.930 . S
H103 C100 0.929 . S
S104 N105 1.613 . S
S104 N106 1.610 . S
N105 S104 1.613 . S
N105 C108 1.350 . S
N106 S104 1.610 . S
N106 C107 1.351 . S
C107 C101 1.428 . S
C107 N106 1.351 . S
C107 C108 1.434 . S
C108 C99 1.429 . S
C108 N105 1.350 . S
C108 C107 1.434 . S
C109 C110 1.369 . S
C109 C111 1.419 . S
C109 H113 0.930 . S
C110 C109 1.369 . S
C110 C119 1.429 . S
C111 C109 1.419 . S
C111 C112 1.363 . S
C111 H114 0.929 . S
C112 C111 1.363 . S
C112 C118 1.428 . S
H113 C109 0.930 . S
H114 C111 0.929 . S
S115 N116 1.613 . S
S115 N117 1.610 . S
N116 S115 1.613 . S
N116 C119 1.350 . S
N117 S115 1.610 . S
N117 C118 1.351 . S
C118 C112 1.428 . S
C118 N117 1.351 . S
C118 C119 1.434 . S
C119 C110 1.429 . S
C119 N116 1.350 . S
C119 C118 1.434 . S
C120 C121 1.369 . S
C120 C122 1.419 . S
C120 H124 0.930 . S
C121 C120 1.369 . S
C121 C130 1.429 . S
C122 C120 1.419 . S
C122 C123 1.363 . S
C122 H125 0.929 . S
C123 C122 1.363 . S
C123 C129 1.428 . S
H124 C120 0.930 . S
H125 C122 0.929 . S
S126 N127 1.613 . S
S126 N128 1.610 . S
N127 S126 1.613 . S
N127 C130 1.350 . S
N128 S126 1.610 . S
N128 C129 1.351 . S
C129 C123 1.428 . S
C129 N128 1.351 . S
C129 C130 1.434 . S
C130 C121 1.429 . S
C130 N127 1.350 . S
C130 C129 1.434 . S
C131 C132 1.369 . S
C131 C133 1.419 . S
C131 H135 0.930 . S
C132 C131 1.369 . S
C132 C141 1.429 . S
C133 C131 1.419 . S
C133 C134 1.363 . S
C133 H136 0.929 . S
C134 C133 1.363 . S
C134 C140 1.428 . S
H135 C131 0.930 . S
H136 C133 0.929 . S
S137 N138 1.613 . S
S137 N139 1.610 . S
N138 S137 1.613 . S
N138 C141 1.350 . S
N139 S137 1.610 . S
N139 C140 1.351 . S
C140 C134 1.428 . S
C140 N139 1.351 . S
C140 C141 1.434 . S
C141 C132 1.429 . S
C141 N138 1.350 . S
C141 C140 1.434 . S
C142 C143 1.369 . S
C142 C144 1.419 . S
C142 H146 0.930 . S
C143 C142 1.369 . S
C143 C152 1.429 . S
C144 C142 1.419 . S
C144 C145 1.363 . S
C144 H147 0.929 . S
C145 C144 1.363 . S
C145 C151 1.428 . S
H146 C142 0.930 . S
H147 C144 0.929 . S
S148 N149 1.613 . S
S148 N150 1.610 . S
N149 S148 1.613 . S
N149 C152 1.350 . S
N150 S148 1.610 . S
N150 C151 1.351 . S
C151 C145 1.428 . S
C151 N150 1.351 . S
C151 C152 1.434 . S
C152 C143 1.429 . S
C152 N149 1.350 . S
C152 C151 1.434 . S
C66 C23 1.489 . S
C68 C54 1.483 . S
C77 C24 1.532 . S
C79 C53 1.565 . S
C88 C8 1.485 . S
C90 C59 1.418 . S
C99 C22 1.470 . S
C101 C60 1.426 . S
C110 C17 1.536 . S
C112 C57 1.562 . S
C123 C55 1.422 . S
C121 C27 1.482 . S
C132 C30 1.469 . S
C134 C56 1.422 . S
C145 C58 1.488 . S
C143 C31 1.487 . S
