# Generated by pormake.
# Topology nia, (6,6)-cn, num edge types: 1
# Building blocks:
#     Node 0, Type 0, BuildingBlock: BETGAK_clean_sbu_0, # of connection points: 6
#     Node 1, Type 0, BuildingBlock: BETGAK_clean_sbu_0, # of connection points: 6
#     Node 2, Type 1, BuildingBlock: MIDCAF_clean_sbu_0, # of connection points: 6
#     Node 3, Type 1, BuildingBlock: MIDCAF_clean_sbu_0, # of connection points: 6
#     Edge 4, Type (0, 1), None
#     Edge 5, Type (0, 1), None
#     Edge 6, Type (0, 1), None
#     Edge 7, Type (0, 1), None
#     Edge 8, Type (0, 1), None
#     Edge 9, Type (0, 1), None
#     Edge 10, Type (0, 1), None
#     Edge 11, Type (0, 1), None
#     Edge 12, Type (0, 1), None
#     Edge 13, Type (0, 1), None
#     Edge 14, Type (0, 1), None
#     Edge 15, Type (0, 1), None
# Relax obj value: 0.528
# Max RMSD: 0.330
# Mean RMSD: 0.311
data_MOF--net-nia--node1-BETGAK_clean_sbu_0--node2-MIDCAF_clean_sbu_0--edge1-none
_symmetry_space_group_name_H-M    P1
_symmetry_Int_Tables_number       1
_symmetry_cell_setting            triclinic
loop_
_symmetry_equiv_pos_as_xyz
'x, y, z'
_cell_length_a     12.28467
_cell_length_b     15.814737
_cell_length_c     18.560691
_cell_angle_alpha  53.987861
_cell_angle_beta   112.97946
_cell_angle_gamma 132.11898
loop_
_atom_site_label
_atom_site_type_symbol
_atom_site_fract_x
_atom_site_fract_y
_atom_site_fract_z
_atom_type_partial_charge
La0 La 0.17455 0.10366 0.07314 0.0
La1 La 0.99305 0.9419 0.98155 0.0
C2 C 0.36158 0.30051 0.0921 0.0
C3 C 0.34782 0.37287 0.10918 0.0
C4 C 0.25847 0.30935 0.17874 0.0
C5 C 0.25781 0.38105 0.19916 0.0
C6 C 0.34581 0.51644 0.15035 0.0
C7 C 0.42413 0.57878 0.0758 0.0
C8 C 0.42577 0.5075 0.05577 0.0
C9 C 0.90848 0.93095 0.14375 0.0
C10 C 0.93814 0.14103 0.92605 0.0
C11 C 0.82634 0.74873 0.95638 0.0
C12 C 0.83939 0.65609 0.96601 0.0
C13 C 0.90375 0.68477 0.89941 0.0
C14 C 0.90268 0.5904 0.90746 0.0
C15 C 0.83721 0.46657 0.98181 0.0
C16 C 0.78282 0.4414 0.05106 0.0
C17 C 0.78229 0.53447 0.04274 0.0
C18 C 0.26575 0.1413 0.91354 0.0
C19 C 0.2204 0.89257 0.13506 0.0
O20 O 0.31891 0.18318 0.1572 0.0
O21 O 0.31822 0.30658 1.01318 0.0
O22 O 1.02285 0.00953 0.17266 0.0
O23 O 0.95089 0.94127 0.08443 0.0
O24 O 0.06276 0.19322 0.96817 0.0
O25 O 0.88264 0.03375 0.92756 0.0
O26 O 0.90055 0.86848 0.89201 0.0
O27 O 0.83097 0.74305 0.03071 0.0
O28 O 0.14908 0.09673 0.86727 0.0
O29 O 0.22063 0.07526 0.99217 0.0
O30 O 0.11054 0.85499 0.08013 0.0
O31 O 0.26729 0.99168 0.14214 0.0
H32 H 0.19256 0.20481 0.21909 0.0
H33 H 0.191 0.33116 0.25385 0.0
H34 H 0.4914 0.68354 0.03588 0.0
H35 H 0.49198 0.55805 1.00036 0.0
H36 H 0.95173 0.77873 0.84036 0.0
H37 H 0.95017 0.61316 0.85506 0.0
H38 H 0.73122 0.3465 0.10933 0.0
H39 H 0.73245 0.50934 0.09544 0.0
La40 La 0.97381 0.99722 0.58272 0.0
La41 La 0.19991 0.04322 0.50207 0.0
C42 C 0.83031 0.03497 0.60608 0.0
C43 C 0.74548 0.05674 0.62048 0.0
C44 C 0.71618 0.0077 0.70789 0.0
C45 C 0.70215 0.07393 0.72586 0.0
C46 C 0.71839 0.18881 0.65631 0.0
C47 C 0.71956 0.22192 0.56774 0.0
C48 C 0.73391 0.15634 0.54986 0.0
C49 C 0.94163 0.77643 0.65712 0.0
C50 C 0.87275 0.90546 0.43828 0.0
C51 C 0.34538 0.01069 0.47468 0.0
C52 C 0.4313 0.99297 0.45671 0.0
C53 C 0.45425 0.04134 0.36801 0.0
C54 C 0.46188 0.97394 0.34722 0.0
C55 C 0.44772 0.8596 0.41557 0.0
C56 C 0.45593 0.82898 0.50486 0.0
C57 C 0.44661 0.895 0.5254 0.0
C58 C 0.23525 0.26459 0.43145 0.0
C59 C 0.3025 0.13677 0.6444 0.0
O60 O 0.88872 0.97766 0.67288 0.0
O61 O 0.85194 0.06984 0.52584 0.0
O62 O 0.86545 0.78826 0.6783 0.0
O63 O 1.03679 0.89032 0.60246 0.0
O64 O 0.84354 0.93322 0.48089 0.0
O65 O 1.00175 0.93422 0.44057 0.0
O66 O 0.28647 0.0686 0.40947 0.0
O67 O 0.32189 0.97076 0.55611 0.0
O68 O 0.31213 0.2537 0.41001 0.0
O69 O 0.13836 0.14998 0.48405 0.0
O70 O 0.3301 0.10475 0.60461 0.0
O71 O 0.17434 0.11041 0.64077 0.0
H72 H 0.72005 0.92755 0.76299 0.0
H73 H 0.69081 0.04154 0.7942 0.0
H74 H 0.72158 0.30505 0.5123 0.0
H75 H 0.75257 0.1933 0.48162 0.0
H76 H 0.44868 0.12109 0.31438 0.0
H77 H 0.46677 0.00501 0.2781 0.0
H78 H 0.45714 0.74713 0.55935 0.0
H79 H 0.43351 0.85885 0.59455 0.0
Zn80 Zn 0.49296 0.88614 0.04289 0.0
Zn81 Zn 0.44508 0.58771 0.44136 0.0
Zn82 Zn 0.49346 0.72285 0.28374 0.0
C83 C 0.74626 0.80764 0.41 0.0
C84 C 0.29618 0.38824 0.42398 0.0
O85 O 0.36699 0.80796 0.22994 0.0
O86 O 0.36742 0.8942 0.08258 0.0
C87 C 0.75721 0.87654 0.15729 0.0
O88 O 0.71772 0.83313 0.32796 0.0
O89 O 0.65351 0.70043 0.47031 0.0
O90 O 0.31286 0.39412 0.49272 0.0
O91 O 0.35838 0.49572 0.34992 0.0
O92 O 0.67919 0.88889 0.08794 0.0
O93 O 0.71646 0.83968 0.23128 0.0
O94 O 0.37594 0.56145 0.26242 0.0
O95 O 0.41963 0.711 0.12591 0.0
C96 C 0.37141 0.59585 0.18037 0.0
O97 O 0.44516 0.80326 0.31923 0.0
O98 O 0.39286 0.66173 0.4619 0.0
C99 C 0.3251 0.86392 0.15174 0.0
C100 C 0.42392 0.77004 0.39708 0.0
Zn101 Zn 0.64332 0.12014 0.0223 0.0
Zn102 Zn 0.72468 0.45839 0.6352 0.0
Zn103 Zn 0.68878 0.33114 0.79409 0.0
C104 C 0.87802 0.65291 0.66348 0.0
C105 C 0.42955 0.23748 0.66944 0.0
O106 O 0.81547 0.24975 0.835 0.0
O107 O 0.77286 0.1198 0.97964 0.0
C108 C 0.80283 0.35698 0.98309 0.0
O109 O 0.81828 0.5458 0.73647 0.0
O110 O 0.85599 0.64872 0.59302 0.0
O111 O 0.51446 0.34765 0.60694 0.0
O112 O 0.46621 0.21249 0.75095 0.0
O113 O 0.78076 0.25853 0.05743 0.0
O114 O 0.75945 0.3456 0.91258 0.0
O115 O 0.4593 0.23598 0.82332 0.0
O116 O 0.46663 0.13108 0.97024 0.0
C117 C 0.40475 0.1734 0.90014 0.0
O118 O 0.71192 0.2423 0.75082 0.0
O119 O 0.78217 0.39039 0.61082 0.0
C120 C 0.83612 0.17177 0.91094 0.0
C121 C 0.7391 0.27773 0.67374 0.0
loop_
_geom_bond_atom_site_label_1
_geom_bond_atom_site_label_2
_geom_bond_distance
_geom_bond_site_symmetry_2
_ccdc_geom_bond_type
La0 C2 2.928 . S
La0 O20 2.521 . S
La0 O21 2.628 . S
La0 O22 2.554 1_445 S
La0 O23 2.757 1_445 S
La0 O24 2.470 1_455 S
La0 O29 2.482 1_554 S
La0 O31 2.503 1_545 S
La1 C11 2.928 . S
La1 O23 2.482 1_556 S
La1 O25 2.503 1_565 S
La1 O26 2.521 . S
La1 O27 2.628 1_556 S
La1 O28 2.554 1_665 S
La1 O29 2.757 1_665 S
La1 O30 2.470 1_656 S
C2 La0 2.928 . S
C2 C3 1.503 . S
C2 O20 1.261 . S
C2 O21 1.243 . S
C3 C2 1.503 . S
C3 C4 1.394 . S
C3 C8 1.373 . S
C4 C3 1.394 . S
C4 C5 1.380 . S
C4 H32 0.930 . S
C5 C4 1.380 . S
C5 C6 1.376 . S
C5 H33 0.930 . S
C6 C5 1.376 . S
C6 C7 1.370 . S
C7 C6 1.370 . S
C7 C8 1.396 . S
C7 H34 0.929 1_554 S
C8 C3 1.373 . S
C8 C7 1.396 . S
C8 H35 0.929 1_554 S
C9 O22 1.240 . S
C9 O23 1.289 . S
C10 O24 1.258 1_556 S
C10 O25 1.256 . S
C11 La1 2.928 . S
C11 C12 1.503 . S
C11 O26 1.261 . S
C11 O27 1.243 1_556 S
C12 C11 1.503 . S
C12 C13 1.394 . S
C12 C17 1.373 1_556 S
C13 C12 1.394 . S
C13 C14 1.380 . S
C13 H36 0.930 . S
C14 C13 1.380 . S
C14 C15 1.376 . S
C14 H37 0.930 . S
C15 C14 1.376 . S
C15 C16 1.370 1_556 S
C16 C15 1.370 1_554 S
C16 C17 1.396 . S
C16 H38 0.929 . S
C17 C12 1.373 1_554 S
C17 C16 1.396 . S
C17 H39 0.929 . S
C18 O28 1.240 . S
C18 O29 1.289 . S
C19 O30 1.258 . S
C19 O31 1.256 . S
O20 La0 2.521 . S
O20 C2 1.261 . S
O21 La0 2.628 . S
O21 C2 1.243 . S
O22 La0 2.554 1_665 S
O22 C9 1.240 . S
O23 La0 2.757 1_665 S
O23 La1 2.482 1_554 S
O23 C9 1.289 . S
O24 La0 2.470 1_655 S
O24 C10 1.258 1_554 S
O25 La1 2.503 1_545 S
O25 C10 1.256 . S
O26 La1 2.521 . S
O26 C11 1.261 . S
O27 La1 2.628 1_554 S
O27 C11 1.243 1_554 S
O28 La1 2.554 1_445 S
O28 C18 1.240 . S
O29 La0 2.482 1_556 S
O29 La1 2.757 1_445 S
O29 C18 1.289 . S
O30 La1 2.470 1_454 S
O30 C19 1.258 . S
O31 La0 2.503 1_565 S
O31 C19 1.256 . S
H32 C4 0.930 . S
H33 C5 0.930 . S
H34 C7 0.929 1_556 S
H35 C8 0.929 1_556 S
H36 C13 0.930 . S
H37 C14 0.930 . S
H38 C16 0.929 . S
H39 C17 0.929 . S
La40 C42 2.928 . S
La40 O60 2.521 1_545 S
La40 O61 2.628 . S
La40 O62 2.554 1_545 S
La40 O63 2.757 1_545 S
La40 O64 2.470 1_545 S
La40 O69 2.482 1_655 S
La40 O71 2.503 1_655 S
La41 C51 2.928 1_545 S
La41 O63 2.482 1_445 S
La41 O65 2.503 1_445 S
La41 O66 2.521 . S
La41 O67 2.628 1_545 S
La41 O68 2.554 . S
La41 O69 2.757 . S
La41 O70 2.470 . S
C42 La40 2.928 . S
C42 C43 1.503 . S
C42 O60 1.261 1_545 S
C42 O61 1.243 . S
C43 C42 1.503 . S
C43 C44 1.394 1_545 S
C43 C48 1.373 . S
C44 C43 1.394 1_565 S
C44 C45 1.380 . S
C44 H72 0.930 . S
C45 C44 1.380 . S
C45 C46 1.376 1_565 S
C45 H73 0.930 . S
C46 C45 1.376 1_545 S
C46 C47 1.370 . S
C47 C46 1.370 . S
C47 C48 1.396 . S
C47 H74 0.929 . S
C48 C43 1.373 . S
C48 C47 1.396 . S
C48 H75 0.929 . S
C49 O62 1.240 . S
C49 O63 1.289 . S
C50 O64 1.258 . S
C50 O65 1.256 . S
C51 La41 2.928 1_565 S
C51 C52 1.503 . S
C51 O66 1.261 1_565 S
C51 O67 1.243 . S
C52 C51 1.503 . S
C52 C53 1.394 1_565 S
C52 C57 1.373 . S
C53 C52 1.394 1_545 S
C53 C54 1.380 . S
C53 H76 0.930 . S
C54 C53 1.380 . S
C54 C55 1.376 1_545 S
C54 H77 0.930 . S
C55 C54 1.376 1_565 S
C55 C56 1.370 . S
C56 C55 1.370 . S
C56 C57 1.396 . S
C56 H78 0.929 . S
C57 C52 1.373 . S
C57 C56 1.396 . S
C57 H79 0.929 . S
C58 O68 1.240 . S
C58 O69 1.289 . S
C59 O70 1.258 . S
C59 O71 1.256 . S
O60 La40 2.521 1_565 S
O60 C42 1.261 1_565 S
O61 La40 2.628 . S
O61 C42 1.243 . S
O62 La40 2.554 1_565 S
O62 C49 1.240 . S
O63 La40 2.757 1_565 S
O63 La41 2.482 1_665 S
O63 C49 1.289 . S
O64 La40 2.470 1_565 S
O64 C50 1.258 . S
O65 La41 2.503 1_665 S
O65 C50 1.256 . S
O66 La41 2.521 . S
O66 C51 1.261 1_545 S
O67 La41 2.628 1_565 S
O67 C51 1.243 . S
O68 La41 2.554 . S
O68 C58 1.240 . S
O69 La40 2.482 1_455 S
O69 La41 2.757 . S
O69 C58 1.289 . S
O70 La41 2.470 . S
O70 C59 1.258 . S
O71 La40 2.503 1_455 S
O71 C59 1.256 . S
H72 C44 0.930 . S
H73 C45 0.930 . S
H74 C47 0.929 . S
H75 C48 0.929 . S
H76 C53 0.930 . S
H77 C54 0.930 . S
H78 C56 0.929 . S
H79 C57 0.929 . S
Zn80 O86 1.920 . S
Zn80 O92 1.898 . S
Zn80 O95 1.905 . S
Zn81 O89 1.905 . S
Zn81 O90 1.898 . S
Zn81 O98 1.920 . S
Zn82 O85 2.080 . S
Zn82 O88 2.114 . S
Zn82 O91 2.120 . S
Zn82 O93 2.120 . S
Zn82 O94 2.114 . S
Zn82 O97 2.080 . S
C83 O88 1.166 . S
C83 O89 1.182 . S
C84 O90 1.167 . S
C84 O91 1.299 . S
O85 Zn82 2.080 . S
O85 C99 1.305 . S
O86 Zn80 1.920 . S
O86 C99 1.234 . S
C87 O92 1.167 . S
C87 O93 1.299 . S
O88 Zn82 2.114 . S
O88 C83 1.166 . S
O89 Zn81 1.905 . S
O89 C83 1.182 . S
O90 Zn81 1.898 . S
O90 C84 1.167 . S
O91 Zn82 2.120 . S
O91 C84 1.299 . S
O92 Zn80 1.898 . S
O92 C87 1.167 . S
O93 Zn82 2.120 . S
O93 C87 1.299 . S
O94 Zn82 2.114 . S
O94 C96 1.166 . S
O95 Zn80 1.905 . S
O95 C96 1.182 . S
C96 O94 1.166 . S
C96 O95 1.182 . S
O97 Zn82 2.080 . S
O97 C100 1.305 . S
O98 Zn81 1.920 . S
O98 C100 1.234 . S
C99 O85 1.305 . S
C99 O86 1.234 . S
C100 O97 1.305 . S
C100 O98 1.234 . S
Zn101 O107 1.920 . S
Zn101 O113 1.898 1_554 S
Zn101 O116 1.905 1_554 S
Zn102 O110 1.905 . S
Zn102 O111 1.898 . S
Zn102 O119 1.920 . S
Zn103 O106 2.080 . S
Zn103 O109 2.114 . S
Zn103 O112 2.120 . S
Zn103 O114 2.120 . S
Zn103 O115 2.114 . S
Zn103 O118 2.080 . S
C104 O109 1.166 . S
C104 O110 1.182 . S
C105 O111 1.167 . S
C105 O112 1.299 . S
O106 Zn103 2.080 . S
O106 C120 1.305 . S
O107 Zn101 1.920 . S
O107 C120 1.234 1_554 S
C108 O113 1.167 . S
C108 O114 1.299 . S
O109 Zn103 2.114 . S
O109 C104 1.166 . S
O110 Zn102 1.905 . S
O110 C104 1.182 . S
O111 Zn102 1.898 . S
O111 C105 1.167 . S
O112 Zn103 2.120 . S
O112 C105 1.299 . S
O113 Zn101 1.898 1_556 S
O113 C108 1.167 . S
O114 Zn103 2.120 . S
O114 C108 1.299 . S
O115 Zn103 2.114 . S
O115 C117 1.166 . S
O116 Zn101 1.905 1_556 S
O116 C117 1.182 . S
C117 O115 1.166 . S
C117 O116 1.182 . S
O118 Zn103 2.080 . S
O118 C121 1.305 . S
O119 Zn102 1.920 . S
O119 C121 1.234 . S
C120 O106 1.305 . S
C120 O107 1.234 1_556 S
C121 O118 1.305 . S
C121 O119 1.234 . S
C19 C99 2.702 . S
C59 C105 1.309 . S
C6 C96 1.379 . S
C46 C121 3.279 . S
C9 C87 3.482 . S
C104 C49 3.786 . S
C55 C100 2.432 . S
C117 C18 2.242 . S
C84 C58 3.225 . S
C120 C10 3.645 . S
C83 C50 2.703 . S
C108 C15 1.050 . S
