# Generated by pormake.
# Topology pth, (4,4)-cn, num edge types: 1
# Building blocks:
#     Node 0, Type 0, BuildingBlock: AZAVOO_clean_sbu_0, # of connection points: 4
#     Node 1, Type 0, BuildingBlock: AZAVOO_clean_sbu_0, # of connection points: 4
#     Node 2, Type 0, BuildingBlock: AZAVOO_clean_sbu_0, # of connection points: 4
#     Node 3, Type 1, BuildingBlock: MUDLON_clean_sbu_0, # of connection points: 4
#     Node 4, Type 1, BuildingBlock: MUDLON_clean_sbu_0, # of connection points: 4
#     Node 5, Type 1, BuildingBlock: MUDLON_clean_sbu_0, # of connection points: 4
#     Edge 6, Type (0, 1), BuildingBlock: OJICUG_clean_linker_0, # of connection points: 2
#     Edge 7, Type (0, 1), BuildingBlock: OJICUG_clean_linker_0, # of connection points: 2
#     Edge 8, Type (0, 1), BuildingBlock: OJICUG_clean_linker_0, # of connection points: 2
#     Edge 9, Type (0, 1), BuildingBlock: OJICUG_clean_linker_0, # of connection points: 2
#     Edge 10, Type (0, 1), BuildingBlock: OJICUG_clean_linker_0, # of connection points: 2
#     Edge 11, Type (0, 1), BuildingBlock: OJICUG_clean_linker_0, # of connection points: 2
#     Edge 12, Type (0, 1), BuildingBlock: OJICUG_clean_linker_0, # of connection points: 2
#     Edge 13, Type (0, 1), BuildingBlock: OJICUG_clean_linker_0, # of connection points: 2
#     Edge 14, Type (0, 1), BuildingBlock: OJICUG_clean_linker_0, # of connection points: 2
#     Edge 15, Type (0, 1), BuildingBlock: OJICUG_clean_linker_0, # of connection points: 2
#     Edge 16, Type (0, 1), BuildingBlock: OJICUG_clean_linker_0, # of connection points: 2
#     Edge 17, Type (0, 1), BuildingBlock: OJICUG_clean_linker_0, # of connection points: 2
# Relax obj value: 0.106
# Max RMSD: 0.232
# Mean RMSD: 0.137
data_MOF--net-pth--node1-AZAVOO_clean_sbu_0--node2-MUDLON_clean_sbu_0--edge1-OJICUG_clean_linker_0
_symmetry_space_group_name_H-M    P1
_symmetry_Int_Tables_number       1
_symmetry_cell_setting            triclinic
loop_
_symmetry_equiv_pos_as_xyz
'x, y, z'
_cell_length_a     16.590376
_cell_length_b     17.031291
_cell_length_c     43.782121
_cell_angle_alpha  91.234144
_cell_angle_beta   93.722927
_cell_angle_gamma 122.6027
loop_
_atom_site_label
_atom_site_type_symbol
_atom_site_fract_x
_atom_site_fract_y
_atom_site_fract_z
_atom_type_partial_charge
Mg0 Mg 0.16645 0.14088 0.10293 0.0
O1 O 0.02897 0.05099 0.07072 0.0
O2 O 1.00488 0.14274 0.04101 0.0
Mg3 Mg 0.12726 0.29345 0.05588 0.0
C4 C 0.97996 0.06199 0.04949 0.0
C5 C 0.19494 0.01669 0.14724 0.0
O6 O 0.28385 0.08846 0.1473 0.0
O7 O 0.08642 0.18289 0.13274 0.0
O8 O 0.06915 0.27966 0.10349 0.0
O9 O 0.254 0.13605 0.06726 0.0
O10 O 0.22185 0.24586 0.07245 0.0
C11 C 0.05766 0.23817 0.12838 0.0
C12 C 0.26139 0.2109 0.0577 0.0
O13 O 0.12857 0.01676 0.13098 0.0
Mg14 Mg 0.96393 0.04528 0.42047 0.0
O15 O 0.09921 0.09244 0.45304 0.0
O16 O 0.13149 0.2167 0.48253 0.0
Mg17 Mg 0.018 0.24963 0.46856 0.0
C18 C 0.15088 0.15674 0.47426 0.0
C19 C 0.96695 0.86915 0.4007 0.0
O20 O 0.94007 0.84852 0.42851 0.0
O21 O 0.05371 0.16854 0.39133 0.0
O22 O 0.07775 0.28852 0.42135 0.0
O23 O 0.86774 0.95552 0.45568 0.0
O24 O 0.91754 0.10348 0.45132 0.0
C25 C 0.08774 0.25567 0.39634 0.0
C26 C 0.86955 0.02862 0.4656 0.0
O27 O 0.98696 0.94729 0.39123 0.0
Mg28 Mg 0.01217 0.01016 0.75273 0.0
O29 O 0.11285 0.14372 0.78409 0.0
O30 O 0.02164 0.16597 0.81402 0.0
Mg31 Mg 0.86458 0.04899 0.80134 0.0
C32 C 0.10361 0.19055 0.8053 0.0
C33 C 0.09732 0.9836 0.69748 0.0
O34 O 1.00406 0.92523 0.69171 0.0
O35 O 0.96605 0.09116 0.72353 0.0
O36 O 0.87175 0.10753 0.75372 0.0
O37 O 0.02254 0.92333 0.78817 0.0
O38 O 0.91167 0.9582 0.78481 0.0
C39 C 0.91067 0.11979 0.7285 0.0
C40 C 0.94931 0.91835 0.79902 0.0
O41 O 0.12901 0.03705 0.72193 0.0
Mg42 Mg 0.08122 0.5822 0.26678 0.0
C43 C 0.18222 0.49033 0.29575 0.0
O44 O 0.17629 0.4583 0.26759 0.0
C45 C 0.09768 0.70919 0.22321 0.0
O46 O 1.00647 0.64265 0.22337 0.0
C47 C 0.97712 0.38487 0.23287 0.0
O48 O 0.97408 0.35328 0.26017 0.0
O49 O 0.00678 0.47047 0.23068 0.0
O50 O 0.16126 0.55107 0.30022 0.0
O51 O 0.99723 0.61806 0.29297 0.0
C52 C 0.99741 0.61141 0.32185 0.0
O53 O 0.03265 0.56584 0.33468 0.0
O54 O 0.15889 0.70502 0.24103 0.0
Mg55 Mg 0.55969 0.12716 0.5933 0.0
C56 C 0.46228 0.15101 0.53926 0.0
O57 O 0.4754 0.08505 0.53016 0.0
C58 C 0.7588 0.22114 0.626 0.0
O59 O 0.78038 0.21014 0.59857 0.0
C60 C 0.35711 0.00442 0.6117 0.0
O61 O 0.33432 0.00893 0.5828 0.0
O62 O 0.44411 0.03483 0.62061 0.0
O63 O 0.49874 0.19188 0.56586 0.0
O64 O 0.61319 0.07219 0.56064 0.0
C65 C 0.64725 0.02111 0.56311 0.0
O66 O 0.64483 0.98238 0.58894 0.0
O67 O 0.67692 0.20883 0.62877 0.0
Mg68 Mg 0.57967 0.59312 0.9285 0.0
C69 C 0.44856 0.49011 0.87353 0.0
O70 O 0.52785 0.49413 0.86856 0.0
C71 C 0.67103 0.72407 0.98353 0.0
O72 O 0.66195 0.64692 0.99255 0.0
C73 C 0.47536 0.40149 0.95609 0.0
O74 O 0.43229 0.36878 0.92837 0.0
O75 O 0.54551 0.48598 0.96054 0.0
O76 O 0.44805 0.53314 0.89765 0.0
O77 O 0.69158 0.63178 0.89807 0.0
C78 C 0.77514 0.70554 0.90248 0.0
O79 O 0.80573 0.7497 0.92978 0.0
O80 O 0.63391 0.72243 0.95691 0.0
C81 C 0.01103 0.22374 0.18254 0.0
C82 C 0.0178 0.2618 0.15388 0.0
H83 H 0.99067 0.23151 0.23008 0.0
C84 C 0.99441 0.32942 0.15066 0.0
H85 H 0.02746 0.1708 0.18581 0.0
C86 C 0.97311 0.36398 0.17602 0.0
C87 C 0.97423 0.3315 0.20519 0.0
H88 H 0.99747 0.3595 0.12888 0.0
H89 H 0.96107 0.42 0.17308 0.0
C90 C 0.98919 0.25808 0.20793 0.0
C91 C 0.78014 0.95391 0.51169 0.0
C92 C 0.8157 0.02636 0.49151 0.0
H93 H 0.69931 0.89557 0.55068 0.0
C94 C 0.79545 0.09583 0.49523 0.0
H95 H 0.79462 0.89932 0.50929 0.0
C96 C 0.73967 0.09247 0.51818 0.0
C97 C 0.7039 0.02043 0.53846 0.0
H98 H 0.82113 0.1522 0.47996 0.0
H99 H 0.72551 0.14739 0.52017 0.0
C100 C 0.72554 0.9516 0.53527 0.0
C101 C 0.80677 0.81061 0.82601 0.0
C102 C 0.90692 0.86457 0.82577 0.0
H103 H 0.68698 0.71516 0.85002 0.0
C104 C 0.96461 0.86335 0.85049 0.0
H105 H 0.76086 0.8098 0.80706 0.0
C106 C 0.9223 0.81079 0.8756 0.0
C107 C 0.82187 0.75583 0.87555 0.0
H108 H 0.04216 0.90446 0.85067 0.0
H109 H 0.96774 0.8128 0.89492 0.0
C110 C 0.76462 0.75562 0.8504 0.0
C111 C 0.07683 0.86073 0.16561 0.0
C112 C 0.1719 0.93746 0.1662 0.0
H113 H 0.97949 0.72908 0.18291 0.0
C114 C 0.24386 0.9379 0.18526 0.0
H115 H 0.01969 0.8579 0.15115 0.0
C116 C 0.22072 0.86342 0.20366 0.0
C117 C 0.12524 0.78732 0.20327 0.0
H118 H 0.31793 0.99605 0.18619 0.0
H119 H 0.27726 0.8659 0.21835 0.0
C120 C 0.05384 0.78668 0.18388 0.0
C121 C 0.28358 0.21873 0.51706 0.0
C122 C 0.23565 0.16156 0.48991 0.0
H123 H 0.39341 0.26099 0.55401 0.0
C124 C 0.26864 0.10764 0.47805 0.0
H125 H 0.26029 0.26152 0.52678 0.0
C126 C 0.34544 0.10838 0.49341 0.0
C127 C 0.39085 0.16236 0.52121 0.0
H128 H 0.23435 0.06367 0.45704 0.0
H129 H 0.36723 0.06415 0.48384 0.0
C130 C 0.36022 0.21887 0.53262 0.0
C131 C 0.28172 0.30606 0.81104 0.0
C132 C 0.19091 0.27417 0.82105 0.0
H133 H 0.43357 0.40036 0.81934 0.0
C134 C 0.18499 0.32086 0.84695 0.0
H135 H 0.28916 0.27272 0.79103 0.0
C136 C 0.26837 0.39467 0.8633 0.0
C137 C 0.35926 0.42327 0.85404 0.0
H138 H 0.11614 0.29858 0.85523 0.0
H139 H 0.26173 0.42662 0.88384 0.0
C140 C 0.36471 0.37968 0.82728 0.0
C141 C 0.81781 0.18736 0.70755 0.0
C142 C 0.88495 0.16247 0.70357 0.0
H143 H 0.72669 0.22755 0.68631 0.0
C144 C 0.92144 0.1723 0.67481 0.0
H145 H 0.789 0.18197 0.72946 0.0
C146 C 0.88613 0.19933 0.65007 0.0
C147 C 0.81319 0.21666 0.65347 0.0
H148 H 0.97409 0.15497 0.67097 0.0
H149 H 0.91198 0.20099 0.62785 0.0
C150 C 0.78231 0.21406 0.68279 0.0
C151 C 0.85064 0.98192 0.0055 0.0
C152 C 0.89308 0.97783 0.03386 0.0
H153 H 0.74623 0.90473 0.96718 0.0
C154 C 0.85408 0.89111 0.04674 0.0
H155 H 0.87868 0.04776 0.99501 0.0
C156 C 0.77791 0.80991 0.03106 0.0
C157 C 0.73899 0.81288 1.00192 0.0
H158 H 0.88381 0.88539 0.06873 0.0
H159 H 0.75195 0.7441 0.0414 0.0
C160 C 0.77442 0.90009 0.98962 0.0
C161 C 0.96645 0.72285 0.39215 0.0
C162 C 0.96984 0.80046 0.38023 0.0
H163 H 0.9717 0.60169 0.38298 0.0
C164 C 0.97466 0.81106 0.34852 0.0
H165 H 0.96214 0.71237 0.41645 0.0
C166 C 0.97821 0.74662 0.32926 0.0
C167 C 0.97847 0.6709 0.34135 0.0
H168 H 0.97626 0.86951 0.33857 0.0
H169 H 0.98433 0.75819 0.30505 0.0
C170 C 0.97142 0.65914 0.37295 0.0
C171 C 0.12844 0.94359 0.64607 0.0
C172 C 0.16328 0.98435 0.67613 0.0
H173 H 0.16238 0.91731 0.60214 0.0
C174 C 0.26095 0.02436 0.68557 0.0
H175 H 0.05337 0.91172 0.63815 0.0
C176 C 0.32295 0.02553 0.66513 0.0
C177 C 0.28886 0.98822 0.63466 0.0
H178 H 0.28966 0.05529 0.7087 0.0
H179 H 0.39839 0.05923 0.67289 0.0
C180 C 0.19072 0.94624 0.62548 0.0
C181 C 0.31924 0.20649 0.00649 0.0
C182 C 0.31709 0.25767 0.03168 0.0
H183 H 0.37039 0.21229 0.96215 0.0
C184 C 0.37112 0.35549 0.03247 0.0
H185 H 0.27818 0.13086 0.00549 0.0
C186 C 0.42643 0.40167 0.00852 0.0
C187 C 0.42653 0.35095 0.98279 0.0
H188 H 0.37137 0.39648 0.05179 0.0
H189 H 0.46638 0.47731 0.00969 0.0
C190 C 0.37215 0.25287 0.98187 0.0
C191 C 0.1668 0.41547 0.37658 0.0
C192 C 0.13202 0.32004 0.37153 0.0
H193 H 0.21212 0.54486 0.35658 0.0
C194 C 0.13127 0.28598 0.34188 0.0
H195 H 0.16999 0.44474 0.39917 0.0
C196 C 0.15651 0.34411 0.31738 0.0
C197 C 0.18249 0.4372 0.32207 0.0
H198 H 0.1059 0.21315 0.3372 0.0
H199 H 0.14878 0.31408 0.29448 0.0
C200 C 0.19151 0.47325 0.35214 0.0
loop_
_geom_bond_atom_site_label_1
_geom_bond_atom_site_label_2
_geom_bond_distance
_geom_bond_site_symmetry_2
_ccdc_geom_bond_type
Mg0 O1 2.028 . S
Mg0 O7 1.986 . S
Mg0 O9 2.114 . S
Mg0 O10 2.251 . S
Mg0 O13 2.010 . S
O1 Mg0 2.028 . S
O1 C4 1.250 1_455 S
O2 Mg3 2.028 1_655 S
O2 C4 1.248 . S
Mg3 O2 2.028 1_455 S
Mg3 O8 2.032 . S
Mg3 O10 2.079 . S
C4 O1 1.250 1_655 S
C4 O2 1.248 . S
C5 O6 1.264 1_565 S
C5 O13 1.249 1_565 S
O6 C5 1.264 1_545 S
O7 Mg0 1.986 . S
O7 C11 1.246 . S
O8 Mg3 2.032 . S
O8 C11 1.259 . S
O9 Mg0 2.114 . S
O9 C12 1.252 . S
O10 Mg0 2.251 . S
O10 Mg3 2.079 . S
O10 C12 1.273 . S
C11 O7 1.246 . S
C11 O8 1.259 . S
C12 O9 1.252 . S
C12 O10 1.273 . S
O13 Mg0 2.010 . S
O13 C5 1.249 1_545 S
Mg14 O15 2.028 1_655 S
Mg14 O21 1.986 1_655 S
Mg14 O23 2.114 1_545 S
Mg14 O24 2.251 . S
Mg14 O27 2.010 1_545 S
O15 Mg14 2.028 1_455 S
O15 C18 1.250 . S
O16 Mg17 2.028 . S
O16 C18 1.248 . S
Mg17 O16 2.028 . S
Mg17 O22 2.032 . S
Mg17 O24 2.079 1_455 S
C18 O15 1.250 . S
C18 O16 1.248 . S
C19 O20 1.264 . S
C19 O27 1.249 . S
O20 C19 1.264 . S
O21 Mg14 1.986 1_455 S
O21 C25 1.246 . S
O22 Mg17 2.032 . S
O22 C25 1.259 . S
O23 Mg14 2.114 1_565 S
O23 C26 1.252 1_565 S
O24 Mg14 2.251 . S
O24 Mg17 2.079 1_655 S
O24 C26 1.273 . S
C25 O21 1.246 . S
C25 O22 1.259 . S
C26 O23 1.252 1_545 S
C26 O24 1.273 . S
O27 Mg14 2.010 1_565 S
O27 C19 1.249 . S
Mg28 O29 2.028 . S
Mg28 O35 1.986 1_455 S
Mg28 O37 2.114 1_545 S
Mg28 O38 2.251 1_445 S
Mg28 O41 2.010 . S
O29 Mg28 2.028 . S
O29 C32 1.250 . S
O30 Mg31 2.028 1_455 S
O30 C32 1.248 . S
Mg31 O30 2.028 1_655 S
Mg31 O36 2.032 . S
Mg31 O38 2.079 1_545 S
C32 O29 1.250 . S
C32 O30 1.248 . S
C33 O34 1.264 1_545 S
C33 O41 1.249 . S
O34 C33 1.264 1_565 S
O35 Mg28 1.986 1_655 S
O35 C39 1.246 . S
O36 Mg31 2.032 . S
O36 C39 1.259 . S
O37 Mg28 2.114 1_565 S
O37 C40 1.252 1_455 S
O38 Mg28 2.251 1_665 S
O38 Mg31 2.079 1_565 S
O38 C40 1.273 . S
C39 O35 1.246 . S
C39 O36 1.259 . S
C40 O37 1.252 1_655 S
C40 O38 1.273 . S
O41 Mg28 2.010 . S
O41 C33 1.249 . S
Mg42 O49 2.141 . S
Mg42 O50 2.048 . S
Mg42 O51 2.048 . S
Mg42 O54 2.141 . S
C43 O44 1.313 1_455 S
C43 O50 1.195 . S
O44 C43 1.313 1_655 S
C45 O46 1.245 1_455 S
C45 O54 1.289 . S
O46 C45 1.245 1_655 S
C47 O48 1.245 1_455 S
C47 O49 1.289 . S
O48 C47 1.245 1_655 S
O49 Mg42 2.141 . S
O49 C47 1.289 . S
O50 Mg42 2.048 . S
O50 C43 1.195 . S
O51 Mg42 2.048 . S
O51 C52 1.195 . S
C52 O51 1.195 . S
C52 O53 1.313 1_455 S
O53 C52 1.313 1_655 S
O54 Mg42 2.141 . S
O54 C45 1.289 . S
Mg55 O62 2.141 . S
Mg55 O63 2.048 . S
Mg55 O64 2.048 . S
Mg55 O67 2.141 . S
C56 O57 1.313 . S
C56 O63 1.195 . S
O57 C56 1.313 . S
C58 O59 1.245 . S
C58 O67 1.289 . S
O59 C58 1.245 . S
C60 O61 1.245 . S
C60 O62 1.289 . S
O61 C60 1.245 . S
O62 Mg55 2.141 . S
O62 C60 1.289 . S
O63 Mg55 2.048 . S
O63 C56 1.195 . S
O64 Mg55 2.048 . S
O64 C65 1.195 . S
C65 O64 1.195 . S
C65 O66 1.313 . S
O66 C65 1.313 . S
O67 Mg55 2.141 . S
O67 C58 1.289 . S
Mg68 O75 2.141 . S
Mg68 O76 2.048 . S
Mg68 O77 2.048 . S
Mg68 O80 2.141 . S
C69 O70 1.313 . S
C69 O76 1.195 . S
O70 C69 1.313 . S
C71 O72 1.245 . S
C71 O80 1.289 . S
O72 C71 1.245 . S
C73 O74 1.245 . S
C73 O75 1.289 . S
O74 C73 1.245 . S
O75 Mg68 2.141 . S
O75 C73 1.289 . S
O76 Mg68 2.048 . S
O76 C69 1.195 . S
O77 Mg68 2.048 . S
O77 C78 1.195 . S
C78 O77 1.195 . S
C78 O79 1.313 . S
O79 C78 1.313 . S
O80 Mg68 2.141 . S
O80 C71 1.289 . S
C81 C82 1.387 . S
C81 H85 0.950 1_455 S
C81 C90 1.390 . S
C82 C81 1.387 . S
C82 C84 1.387 . S
H83 C90 0.950 . S
C84 C82 1.387 . S
C84 C86 1.390 . S
C84 H88 0.950 . S
H85 C81 0.950 1_655 S
C86 C84 1.390 . S
C86 C87 1.387 . S
C86 H89 0.950 . S
C87 C86 1.387 . S
C87 C90 1.387 . S
H88 C84 0.950 . S
H89 C86 0.950 . S
C90 C81 1.390 . S
C90 H83 0.950 . S
C90 C87 1.387 . S
C91 C92 1.387 1_565 S
C91 H95 0.950 . S
C91 C100 1.390 . S
C92 C91 1.387 1_545 S
C92 C94 1.387 . S
H93 C100 0.950 . S
C94 C92 1.387 . S
C94 C96 1.390 . S
C94 H98 0.950 . S
H95 C91 0.950 . S
C96 C94 1.390 . S
C96 C97 1.387 . S
C96 H99 0.950 . S
C97 C96 1.387 . S
C97 C100 1.387 1_545 S
H98 C94 0.950 . S
H99 C96 0.950 . S
C100 C91 1.390 . S
C100 H93 0.950 . S
C100 C97 1.387 1_565 S
C101 C102 1.387 . S
C101 H105 0.950 . S
C101 C110 1.390 . S
C102 C101 1.387 . S
C102 C104 1.387 . S
H103 C110 0.950 . S
C104 C102 1.387 . S
C104 C106 1.390 . S
C104 H108 0.950 . S
H105 C101 0.950 . S
C106 C104 1.390 . S
C106 C107 1.387 . S
C106 H109 0.950 . S
C107 C106 1.387 . S
C107 C110 1.387 . S
H108 C104 0.950 . S
H109 C106 0.950 . S
C110 C101 1.390 . S
C110 H103 0.950 . S
C110 C107 1.387 . S
C111 C112 1.387 . S
C111 H115 0.950 1_455 S
C111 C120 1.390 . S
C112 C111 1.387 . S
C112 C114 1.387 . S
H113 C120 0.950 1_655 S
C114 C112 1.387 . S
C114 C116 1.390 . S
C114 H118 0.950 . S
H115 C111 0.950 1_655 S
C116 C114 1.390 . S
C116 C117 1.387 . S
C116 H119 0.950 . S
C117 C116 1.387 . S
C117 C120 1.387 . S
H118 C114 0.950 . S
H119 C116 0.950 . S
C120 C111 1.390 . S
C120 H113 0.950 1_455 S
C120 C117 1.387 . S
C121 C122 1.387 . S
C121 H125 0.950 . S
C121 C130 1.390 . S
C122 C121 1.387 . S
C122 C124 1.387 . S
H123 C130 0.950 . S
C124 C122 1.387 . S
C124 C126 1.390 . S
C124 H128 0.950 1_545 S
H125 C121 0.950 . S
C126 C124 1.390 . S
C126 C127 1.387 . S
C126 H129 0.950 1_545 S
C127 C126 1.387 . S
C127 C130 1.387 . S
H128 C124 0.950 1_565 S
H129 C126 0.950 1_565 S
C130 C121 1.390 . S
C130 H123 0.950 . S
C130 C127 1.387 . S
C131 C132 1.387 . S
C131 H135 0.950 . S
C131 C140 1.390 . S
C132 C131 1.387 . S
C132 C134 1.387 . S
H133 C140 0.950 . S
C134 C132 1.387 . S
C134 C136 1.390 . S
C134 H138 0.950 . S
H135 C131 0.950 . S
C136 C134 1.390 . S
C136 C137 1.387 . S
C136 H139 0.950 . S
C137 C136 1.387 . S
C137 C140 1.387 . S
H138 C134 0.950 . S
H139 C136 0.950 . S
C140 C131 1.390 . S
C140 H133 0.950 . S
C140 C137 1.387 . S
C141 C142 1.387 . S
C141 H145 0.950 . S
C141 C150 1.390 . S
C142 C141 1.387 . S
C142 C144 1.387 . S
H143 C150 0.950 . S
C144 C142 1.387 . S
C144 C146 1.390 . S
C144 H148 0.950 1_545 S
H145 C141 0.950 . S
C146 C144 1.390 . S
C146 C147 1.387 . S
C146 H149 0.950 1_545 S
C147 C146 1.387 . S
C147 C150 1.387 . S
H148 C144 0.950 1_565 S
H149 C146 0.950 1_565 S
C150 C141 1.390 . S
C150 H143 0.950 . S
C150 C147 1.387 . S
C151 C152 1.387 . S
C151 H155 0.950 1_565 S
C151 C160 1.390 1_554 S
C152 C151 1.387 . S
C152 C154 1.387 . S
H153 C160 0.950 . S
C154 C152 1.387 . S
C154 C156 1.390 . S
C154 H158 0.950 . S
H155 C151 0.950 1_545 S
C156 C154 1.390 . S
C156 C157 1.387 1_554 S
C156 H159 0.950 . S
C157 C156 1.387 1_556 S
C157 C160 1.387 . S
H158 C154 0.950 . S
H159 C156 0.950 . S
C160 C151 1.390 1_556 S
C160 H153 0.950 . S
C160 C157 1.387 . S
C161 C162 1.387 . S
C161 H165 0.950 . S
C161 C170 1.390 . S
C162 C161 1.387 . S
C162 C164 1.387 1_655 S
H163 C170 0.950 . S
C164 C162 1.387 1_455 S
C164 C166 1.390 . S
C164 H168 0.950 . S
H165 C161 0.950 . S
C166 C164 1.390 . S
C166 C167 1.387 . S
C166 H169 0.950 . S
C167 C166 1.387 . S
C167 C170 1.387 1_455 S
H168 C164 0.950 . S
H169 C166 0.950 . S
C170 C161 1.390 . S
C170 H163 0.950 . S
C170 C167 1.387 1_655 S
C171 C172 1.387 1_565 S
C171 H175 0.950 . S
C171 C180 1.389 . S
C172 C171 1.387 1_545 S
C172 C174 1.387 . S
H173 C180 0.957 . S
C174 C172 1.387 . S
C174 C176 1.390 . S
C174 H178 0.950 . S
H175 C171 0.950 . S
C176 C174 1.390 . S
C176 C177 1.387 . S
C176 H179 0.950 . S
C177 C176 1.387 . S
C177 C180 1.381 1_545 S
H178 C174 0.950 . S
H179 C176 0.950 . S
C180 C171 1.389 . S
C180 H173 0.957 . S
C180 C177 1.381 1_565 S
C181 C182 1.387 . S
C181 H185 0.950 . S
C181 C190 1.390 . S
C182 C181 1.387 . S
C182 C184 1.387 . S
H183 C190 0.950 1_556 S
C184 C182 1.387 . S
C184 C186 1.409 . S
C184 H188 0.950 . S
H185 C181 0.950 . S
C186 C184 1.409 . S
C186 C187 1.378 1_554 S
C186 H189 0.941 1_554 S
C187 C186 1.378 1_556 S
C187 C190 1.387 1_556 S
H188 C184 0.950 . S
H189 C186 0.941 1_556 S
C190 C181 1.390 . S
C190 H183 0.950 1_554 S
C190 C187 1.387 1_554 S
C191 C192 1.387 . S
C191 H195 0.950 . S
C191 C200 1.390 . S
C192 C191 1.387 . S
C192 C194 1.387 . S
H193 C200 0.950 . S
C194 C192 1.387 . S
C194 C196 1.390 . S
C194 H198 0.950 . S
H195 C191 0.950 . S
C196 C194 1.390 . S
C196 C197 1.387 . S
C196 H199 0.950 . S
C197 C196 1.387 . S
C197 C200 1.387 . S
H198 C194 0.950 . S
H199 C196 0.950 . S
C200 C191 1.390 . S
C200 H193 0.950 . S
C200 C197 1.387 . S
C87 C47 1.401 . S
C82 C11 1.411 . S
C92 C26 1.551 . S
C97 C65 1.548 . S
C102 C40 1.457 . S
C107 C78 1.453 . S
C112 C5 1.252 . S
C117 C45 1.425 . S
C127 C56 1.565 . S
C122 C18 1.552 . S
C132 C32 1.440 . S
C137 C69 1.462 . S
C147 C58 1.320 . S
C142 C39 1.315 . S
C152 C4 1.395 1_565 S
C157 C71 1.415 . S
C167 C52 1.466 . S
C162 C19 1.331 . S
C177 C60 1.341 . S
C172 C33 1.200 . S
C187 C73 1.407 . S
C182 C12 1.415 . S
C192 C25 1.475 . S
C197 C43 1.498 . S
