# Generated by pormake.
# Topology pts, (4,4)-cn, num edge types: 1
# Building blocks:
#     Node 0, Type 0, BuildingBlock: ESEHIV_clean_sbu_0, # of connection points: 4
#     Node 1, Type 0, BuildingBlock: ESEHIV_clean_sbu_0, # of connection points: 4
#     Node 2, Type 1, BuildingBlock: UXUYUI_clean_sbu_0, # of connection points: 4
#     Node 3, Type 1, BuildingBlock: UXUYUI_clean_sbu_0, # of connection points: 4
#     Edge 4, Type (0, 1), None
#     Edge 5, Type (0, 1), None
#     Edge 6, Type (0, 1), None
#     Edge 7, Type (0, 1), None
#     Edge 8, Type (0, 1), None
#     Edge 9, Type (0, 1), None
#     Edge 10, Type (0, 1), None
#     Edge 11, Type (0, 1), None
# Relax obj value: 0.002
# Max RMSD: 0.096
# Mean RMSD: 0.066
data_MOF--net-pts--node1-ESEHIV_clean_sbu_0--node2-UXUYUI_clean_sbu_0--edge1-none
_symmetry_space_group_name_H-M    P1
_symmetry_Int_Tables_number       1
_symmetry_cell_setting            triclinic
loop_
_symmetry_equiv_pos_as_xyz
'x, y, z'
_cell_length_a     17.181308
_cell_length_b     17.180634
_cell_length_c     25.57339
_cell_angle_alpha  95.266281
_cell_angle_beta   95.265612
_cell_angle_gamma 90.081874
loop_
_atom_site_label
_atom_site_type_symbol
_atom_site_fract_x
_atom_site_fract_y
_atom_site_fract_z
_atom_type_partial_charge
Cu0 Cu 0.58357 0.08354 0.03785 0.0
N1 N 0.6537 0.03098 0.99575 0.0
N2 N 0.75466 1.02404 0.94615 0.0
C3 C 0.70218 0.07074 0.96923 0.0
C4 C 0.73793 0.95139 0.95869 0.0
C5 C 0.67573 0.95591 0.98954 0.0
O6 O 0.65333 0.13263 0.09618 0.0
C7 C 0.49007 0.10756 0.949 0.0
O8 O 0.52021 0.03925 0.93574 0.0
H9 H 0.69928 0.1334 0.96792 0.0
H10 H 0.65055 0.90857 1.00768 0.0
N11 N 0.51066 1.02473 0.06715 0.0
N12 N 0.40402 1.01322 0.10978 0.0
C13 C 0.46096 0.06118 0.0986 0.0
C14 C 0.48459 0.95042 0.05768 0.0
C15 C 0.4189 0.94292 0.0846 0.0
C16 C 0.68719 0.0798 0.12182 0.0
O17 O 0.66345 1.007 0.11039 0.0
H18 H 0.46548 0.12288 0.11167 0.0
H19 H 0.50906 0.90615 0.03131 0.0
O20 O 0.51525 0.14514 0.99278 0.0
H21 H 0.76998 0.89901 0.94813 0.0
H22 H 0.38292 0.89096 0.08366 0.0
Cu23 Cu 0.11511 0.6157 0.53776 0.0
N24 N 0.16733 0.545 0.57961 0.0
N25 N 0.17464 0.44346 0.62858 0.0
C26 C 0.12727 0.4925 0.60275 0.0
C27 C 0.24797 0.46624 0.62133 0.0
C28 C 0.24328 0.5288 0.59075 0.0
O29 O 0.06643 0.54621 0.47914 0.0
C30 C 0.08767 0.70688 0.62777 0.0
O31 O 0.15301 0.67308 0.64348 0.0
H32 H 0.06409 0.49075 0.60049 0.0
H33 H 0.2915 0.55901 0.57688 0.0
N34 N 0.17422 0.6886 0.50866 0.0
N35 N 0.1857 0.79523 0.46602 0.0
C36 C 0.13801 0.73775 0.4767 0.0
C37 C 0.2481 0.71564 0.51899 0.0
C38 C 0.25561 0.7813 0.49206 0.0
C39 C 0.11976 0.51163 0.45436 0.0
O40 O 0.1926 0.53465 0.46678 0.0
H41 H 0.07655 0.7326 0.46301 0.0
H42 H 0.29198 0.69203 0.54606 0.0
O43 O 0.05302 0.6842 0.58253 0.0
H44 H 0.30117 0.4386 0.63589 0.0
H45 H 0.30718 0.81802 0.49364 0.0
Li46 Li 0.0891 0.19652 0.3168 0.0
Li47 Li 0.09349 0.05816 0.32657 0.0
Li48 Li 0.14099 0.10562 0.24913 0.0
Li49 Li 1.00262 0.11015 0.25893 0.0
C50 C 0.25154 0.17031 0.32511 0.0
N51 N 0.3898 0.25371 0.32826 0.0
C52 C 0.3181 0.14756 0.35535 0.0
C53 C 0.2553 0.23557 0.2965 0.0
C54 C 0.38745 0.19049 0.35644 0.0
C55 C 0.32574 0.27691 0.29859 0.0
C56 C 0.99602 0.14471 0.39003 0.0
C57 C 0.91571 0.1725 0.46195 0.0
N58 N 0.98068 0.17397 0.49671 0.0
C59 C 0.062 0.14645 0.4265 0.0
C60 C 0.92227 0.15782 0.40787 0.0
C61 C 0.05302 0.16137 0.48024 0.0
C62 C 0.03996 0.35251 0.35017 0.0
N63 N 0.09522 0.29663 0.3575 0.0
C64 C 0.1612 0.37705 0.42897 0.0
C65 C 0.15403 0.30725 0.39679 0.0
C66 C 0.10632 0.43644 0.42188 0.0
C67 C 0.04411 0.42347 0.38251 0.0
H68 H 0.99259 0.34189 0.3194 0.0
H69 H 0.19527 0.26119 0.4037 0.0
C70 C 0.19331 0.95298 0.37477 0.0
N71 N 0.11844 0.979 0.3731 0.0
C72 C 0.2175 0.89361 0.4063 0.0
C73 C 0.08679 0.88855 0.43366 0.0
C74 C 0.06529 0.94848 0.40194 0.0
C75 C 0.16369 0.85988 0.43576 0.0
H76 H 0.23404 0.97765 0.35085 0.0
H77 H 1.00611 0.97013 0.39994 0.0
C78 C 0.05449 0.20321 0.18572 0.0
N79 N 1.02508 0.21862 0.07906 0.0
C80 C 0.05246 0.13723 0.14924 0.0
C81 C 0.0416 0.27701 0.1679 0.0
C82 C 0.03745 0.14623 0.09552 0.0
C83 C 1.02685 0.2836 0.11383 0.0
C84 C 1.02883 0.94762 0.25058 0.0
C85 C 0.05189 0.88097 0.22058 0.0
C86 C 0.96336 0.9439 0.27901 0.0
C87 C 1.00905 0.81157 0.21952 0.0
C88 C 0.92212 0.8734 0.27695 0.0
N89 N 0.94562 0.80925 0.24751 0.0
C90 C 0.24653 1.00585 0.20128 0.0
C91 C 0.25022 0.13349 0.17339 0.0
C92 C 0.30594 0.98162 0.16979 0.0
N93 N 0.22011 0.08057 0.20258 0.0
C94 C 0.31012 0.11192 0.14166 0.0
C95 C 0.33926 0.03521 0.13996 0.0
H96 H 0.22216 0.96531 0.22546 0.0
H97 H 0.22828 0.19256 0.17512 0.0
C98 C 0.84678 0.15957 0.22559 0.0
N99 N 0.9025 0.10415 0.21825 0.0
C100 C 0.77577 0.15554 0.19334 0.0
C101 C 0.8218 0.03824 0.14688 0.0
C102 C 0.89168 0.0453 0.17899 0.0
C103 C 0.76257 0.09328 0.15402 0.0
H104 H 0.85757 0.20696 0.25633 0.0
H105 H 0.9376 1.0039 0.17207 0.0
O106 O 0.18339 0.12842 0.32357 0.0
O107 O 1.00293 0.13013 0.3371 0.0
O108 O 0.06907 0.19626 0.23864 0.0
O109 O 0.07063 1.01581 0.25213 0.0
H110 H 0.31618 0.09739 0.3779 0.0
H111 H 0.20449 0.25439 0.27303 0.0
H112 H 0.43939 0.17355 0.37971 0.0
H113 H 0.32945 0.32749 0.27664 0.0
H114 H 0.85896 0.18271 0.47629 0.0
H115 H 0.11958 0.13628 0.41362 0.0
H116 H 0.87062 0.15662 0.38015 0.0
H117 H 0.10358 0.16291 0.50886 0.0
H118 H 0.20935 0.38428 0.45956 0.0
H119 H 1.00075 0.46808 0.37597 0.0
H120 H 0.27692 0.87273 0.40643 0.0
H121 H 0.04367 0.86503 0.45637 0.0
H122 H 0.06247 0.07962 0.16212 0.0
H123 H 0.04302 0.32867 0.19562 0.0
H124 H 0.03564 0.09567 0.0669 0.0
H125 H 1.01681 0.34038 0.09949 0.0
H126 H 0.10223 0.88286 0.1982 0.0
H127 H 0.94432 0.99478 0.30231 0.0
H128 H 1.02623 0.75955 0.19643 0.0
H129 H 0.87139 0.86971 0.29876 0.0
H130 H 0.32717 0.92235 0.17 0.0
H131 H 0.33328 0.15488 0.11866 0.0
H132 H 0.73125 0.19898 0.19992 0.0
H133 H 0.81432 0.99002 0.11636 0.0
Li134 Li 1.02719 0.10748 0.82134 0.0
Li135 Li 0.17018 0.10797 0.82213 0.0
Li136 Li 0.09134 0.17113 0.75261 0.0
Li137 Li 0.09078 1.02795 0.75356 0.0
C138 C 0.06756 0.25868 0.86008 0.0
N139 N 1.00242 0.37973 0.9197 0.0
C140 C 0.07518 0.26131 0.91513 0.0
C141 C 1.02716 0.31788 0.8354 0.0
C142 C 0.04183 0.32299 0.94457 0.0
C143 C 0.99443 0.37841 0.86622 0.0
C144 C 0.13888 0.99621 0.87587 0.0
C145 C 0.2462 0.92952 0.91952 0.0
N146 N 0.22148 0.95529 0.96705 0.0
C147 C 0.11453 1.02204 0.92517 0.0
C148 C 0.2052 0.9495 0.87297 0.0
C149 C 0.15703 1.00062 0.97079 0.0
C150 C 0.91538 1.01736 0.85595 0.0
N151 N 0.93933 0.09339 0.86093 0.0
C152 C 0.84264 0.12666 0.92055 0.0
C153 C 0.9037 0.14824 0.89199 0.0
C154 C 0.81729 0.04799 0.91673 0.0
C155 C 0.85448 0.9933 0.88347 0.0
H156 H 0.94432 0.97495 0.83065 0.0
H157 H 0.92234 0.20856 0.89485 0.0
C158 C 0.33357 0.10424 0.83725 0.0
N159 N 0.26953 0.12084 0.86352 0.0
C160 C 0.40787 0.10665 0.86431 0.0
C161 C 0.35034 0.14902 0.94469 0.0
C162 C 0.27666 0.14507 0.91601 0.0
C163 C 0.41671 0.12746 0.91888 0.0
H164 H 0.3268 0.08655 0.79547 0.0
H165 H 0.22515 0.15818 0.93615 0.0
C166 C 0.93721 0.13374 0.7192 0.0
N167 N 0.81154 0.20789 0.67059 0.0
C168 C 0.91366 0.11402 0.66583 0.0
C169 C 0.89652 0.19075 0.7479 0.0
C170 C 0.85009 0.1523 0.64193 0.0
C171 C 0.83321 0.22766 0.72262 0.0
C172 C 0.20397 0.0583 0.7003 0.0
C173 C 0.18104 0.08305 0.65066 0.0
C174 C 0.24897 0.99094 0.70409 0.0
C175 C 0.20349 0.03987 0.60558 0.0
C176 C 0.27007 0.9493 0.65807 0.0
N177 N 0.24708 0.97441 0.61019 0.0
C178 C 0.17689 0.2918 0.72509 0.0
C179 C 0.05501 0.28271 0.6734 0.0
C180 C 0.20104 0.35299 0.69786 0.0
N181 N 0.10524 0.25787 0.71249 0.0
C182 C 0.07675 0.34406 0.64514 0.0
C183 C 0.15089 0.37997 0.65714 0.0
H184 H 0.21584 0.27041 0.75615 0.0
H185 H 0.99878 0.2545 0.66349 0.0
C186 C 0.0916 0.8645 0.73901 0.0
N187 N 0.07779 0.9287 0.71242 0.0
C188 C 0.08809 0.7901 0.7121 0.0
C189 C 0.05061 0.84811 0.63108 0.0
C190 C 0.05541 0.9219 0.65967 0.0
C191 C 0.06924 0.78135 0.6573 0.0
H192 H 0.10776 0.87118 0.781 0.0
H193 H 0.04431 0.97379 0.63941 0.0
O194 O 0.10094 0.1995 0.83058 0.0
O195 O 0.09987 1.01888 0.83074 0.0
O196 O 0.9998 0.0973 0.74298 0.0
O197 O 0.1803 0.09814 0.74486 0.0
H198 H 0.10517 0.21558 0.93495 0.0
H199 H 1.02089 0.31706 0.79289 0.0
H200 H 0.04691 0.3255 0.98717 0.0
H201 H 0.96275 0.42441 0.8476 0.0
H202 H 0.29794 0.8939 0.91787 0.0
H203 H 0.0641 0.05916 0.92832 0.0
H204 H 0.22557 0.93 0.83518 0.0
H205 H 0.13912 1.02051 1.0092 0.0
H206 H 0.81667 0.17127 0.94584 0.0
H207 H 0.83664 0.93249 0.87838 0.0
H208 H 0.45767 0.0886 0.8432 0.0
H209 H 0.35458 0.16318 0.98703 0.0
H210 H 0.94452 0.07016 0.64295 0.0
H211 H 0.9136 0.20645 0.78921 0.0
H212 H 0.83155 0.13797 0.60058 0.0
H213 H 0.80133 0.27205 0.74436 0.0
H214 H 0.14543 0.13437 0.6468 0.0
H215 H 0.26622 0.97025 0.74214 0.0
H216 H 0.18583 0.05812 0.56691 0.0
H217 H 0.30435 0.89676 0.6604 0.0
H218 H 0.25816 0.3792 0.70891 0.0
H219 H 0.03643 0.36197 0.61358 0.0
H220 H 0.10371 0.74004 0.73359 0.0
H221 H 0.03789 0.84392 0.58863 0.0
loop_
_geom_bond_atom_site_label_1
_geom_bond_atom_site_label_2
_geom_bond_distance
_geom_bond_site_symmetry_2
_ccdc_geom_bond_type
Cu0 N1 1.999 1_554 S
Cu0 O6 1.974 . S
Cu0 N11 1.985 . S
Cu0 O20 1.959 1_554 S
N1 Cu0 1.999 1_556 S
N1 C3 1.263 . S
N1 C5 1.389 . S
N2 C3 1.358 . S
N2 C4 1.400 . S
C3 N1 1.263 . S
C3 N2 1.358 . S
C3 H9 0.930 . S
C4 N2 1.400 . S
C4 C5 1.351 . S
C4 H21 0.930 . S
C5 N1 1.389 . S
C5 C4 1.351 . S
C5 H10 0.930 . S
O6 Cu0 1.974 . S
O6 C16 1.282 . S
C7 O8 1.261 1_545 S
C7 O20 1.251 . S
O8 C7 1.261 1_565 S
H9 C3 0.930 . S
H10 C5 0.930 . S
N11 Cu0 1.985 . S
N11 C13 1.335 . S
N11 C14 1.390 . S
N12 C13 1.345 . S
N12 C15 1.336 . S
C13 N11 1.335 . S
C13 N12 1.345 . S
C13 H18 0.930 . S
C14 N11 1.390 . S
C14 C15 1.346 . S
C14 H19 0.930 . S
C15 N12 1.336 . S
C15 C14 1.346 . S
C15 H22 0.929 . S
C16 O6 1.282 . S
C16 O17 1.216 1_545 S
O17 C16 1.216 1_565 S
H18 C13 0.930 . S
H19 C14 0.930 . S
O20 Cu0 1.959 1_556 S
O20 C7 1.251 . S
H21 C4 0.930 . S
H22 C15 0.929 . S
Cu23 N24 1.999 . S
Cu23 O29 1.974 . S
Cu23 N34 1.985 . S
Cu23 O43 1.959 . S
N24 Cu23 1.999 . S
N24 C26 1.263 . S
N24 C28 1.389 1_455 S
N25 C26 1.358 . S
N25 C27 1.400 . S
C26 N24 1.263 . S
C26 N25 1.358 . S
C26 H32 0.930 . S
C27 N25 1.400 . S
C27 C28 1.351 1_455 S
C27 H44 0.930 1_455 S
C28 N24 1.389 1_655 S
C28 C27 1.351 1_655 S
C28 H33 0.930 . S
O29 Cu23 1.974 . S
O29 C39 1.282 . S
C30 O31 1.261 . S
C30 O43 1.251 . S
O31 C30 1.261 . S
H32 C26 0.930 . S
H33 C28 0.930 . S
N34 Cu23 1.985 . S
N34 C36 1.335 . S
N34 C37 1.390 . S
N35 C36 1.345 . S
N35 C38 1.336 . S
C36 N34 1.335 . S
C36 N35 1.345 . S
C36 H41 0.930 . S
C37 N34 1.390 . S
C37 C38 1.346 . S
C37 H42 0.930 . S
C38 N35 1.336 . S
C38 C37 1.346 . S
C38 H45 0.929 . S
C39 O29 1.282 . S
C39 O40 1.216 . S
O40 C39 1.216 . S
H41 C36 0.930 . S
H42 C37 0.930 . S
O43 Cu23 1.959 . S
O43 C30 1.251 . S
H44 C27 0.930 1_655 S
H45 C38 0.929 . S
Li46 N63 1.990 . S
Li46 O106 1.956 . S
Li46 O107 1.970 1_455 S
Li46 O108 1.961 . S
Li47 N71 1.990 1_545 S
Li47 O106 1.970 . S
Li47 O107 1.956 1_455 S
Li47 O109 1.961 . S
Li48 N93 1.990 . S
Li48 O106 1.961 . S
Li48 O108 1.956 . S
Li48 O109 1.970 . S
Li49 N99 1.990 . S
Li49 O107 1.961 . S
Li49 O108 1.970 1_655 S
Li49 O109 1.956 1_655 S
C50 C52 1.348 . S
C50 C53 1.356 . S
C50 O106 1.325 . S
N51 C54 1.314 . S
N51 C55 1.279 . S
C52 C50 1.348 . S
C52 C54 1.353 . S
C52 H110 0.929 . S
C53 C50 1.356 . S
C53 C55 1.358 . S
C53 H111 0.930 . S
C54 N51 1.314 . S
C54 C52 1.353 . S
C54 H112 0.930 . S
C55 N51 1.279 . S
C55 C53 1.358 . S
C55 H113 0.930 . S
C56 C59 1.348 . S
C56 C60 1.356 . S
C56 O107 1.325 . S
C57 N58 1.279 . S
C57 C60 1.358 . S
C57 H114 0.930 . S
N58 C57 1.279 . S
N58 C61 1.314 . S
C59 C56 1.348 . S
C59 C61 1.353 . S
C59 H115 0.929 . S
C60 C56 1.356 . S
C60 C57 1.358 . S
C60 H116 0.930 . S
C61 N58 1.314 . S
C61 C59 1.353 . S
C61 H117 0.930 . S
C62 N63 1.314 . S
C62 C67 1.353 . S
C62 H68 0.930 1_455 S
N63 Li46 1.990 . S
N63 C62 1.314 . S
N63 C65 1.279 . S
C64 C65 1.358 . S
C64 C66 1.356 . S
C64 H118 0.930 . S
C65 N63 1.279 . S
C65 C64 1.358 . S
C65 H69 0.930 . S
C66 C64 1.356 . S
C66 C67 1.348 . S
C67 C62 1.353 . S
C67 C66 1.348 . S
C67 H119 0.929 1_455 S
H68 C62 0.930 1_655 S
H69 C65 0.930 . S
C70 N71 1.314 . S
C70 C72 1.353 . S
C70 H76 0.930 . S
N71 Li47 1.990 1_565 S
N71 C70 1.314 . S
N71 C74 1.279 . S
C72 C70 1.353 . S
C72 C75 1.348 . S
C72 H120 0.929 . S
C73 C74 1.358 . S
C73 C75 1.356 . S
C73 H121 0.930 1_455 S
C74 N71 1.279 . S
C74 C73 1.358 . S
C74 H77 0.930 1_455 S
C75 C72 1.348 . S
C75 C73 1.356 . S
H76 C70 0.930 . S
H77 C74 0.930 1_655 S
C78 C80 1.348 . S
C78 C81 1.356 . S
C78 O108 1.325 . S
N79 C82 1.314 . S
N79 C83 1.279 . S
C80 C78 1.348 . S
C80 C82 1.353 . S
C80 H122 0.929 1_455 S
C81 C78 1.356 . S
C81 C83 1.358 . S
C81 H123 0.930 . S
C82 N79 1.314 . S
C82 C80 1.353 . S
C82 H124 0.930 1_455 S
C83 N79 1.279 . S
C83 C81 1.358 . S
C83 H125 0.930 . S
C84 C85 1.348 . S
C84 C86 1.356 . S
C84 O109 1.325 1_565 S
C85 C84 1.348 . S
C85 C87 1.353 . S
C85 H126 0.929 . S
C86 C84 1.356 . S
C86 C88 1.359 1_455 S
C86 H127 0.930 1_455 S
C87 C85 1.353 . S
C87 N89 1.314 . S
C87 H128 0.930 . S
C88 C86 1.359 1_655 S
C88 N89 1.271 1_655 S
C88 H129 0.939 . S
N89 C87 1.314 . S
N89 C88 1.271 1_455 S
C90 C92 1.353 . S
C90 N93 1.314 . S
C90 H96 0.930 . S
C91 N93 1.279 . S
C91 C94 1.358 . S
C91 H97 0.930 . S
C92 C90 1.353 . S
C92 C95 1.348 . S
C92 H130 0.929 . S
N93 Li48 1.990 . S
N93 C90 1.314 . S
N93 C91 1.279 . S
C94 C91 1.358 . S
C94 C95 1.356 . S
C94 H131 0.930 . S
C95 C92 1.348 . S
C95 C94 1.356 . S
H96 C90 0.930 . S
H97 C91 0.930 . S
C98 N99 1.314 . S
C98 C100 1.353 . S
C98 H104 0.930 . S
N99 Li49 1.990 . S
N99 C98 1.314 . S
N99 C102 1.279 . S
C100 C98 1.353 . S
C100 C103 1.348 . S
C100 H132 0.929 . S
C101 C102 1.358 . S
C101 C103 1.356 . S
C101 H133 0.930 1_545 S
C102 N99 1.279 . S
C102 C101 1.358 . S
C102 H105 0.923 1_545 S
C103 C100 1.348 . S
C103 C101 1.356 . S
H104 C98 0.930 . S
H105 C102 0.923 1_565 S
O106 Li46 1.956 . S
O106 Li47 1.970 . S
O106 Li48 1.961 . S
O106 C50 1.325 . S
O107 Li46 1.970 1_655 S
O107 Li47 1.956 1_655 S
O107 Li49 1.961 . S
O107 C56 1.325 . S
O108 Li46 1.961 . S
O108 Li48 1.956 . S
O108 Li49 1.970 1_455 S
O108 C78 1.325 . S
O109 Li47 1.961 . S
O109 Li48 1.970 . S
O109 Li49 1.956 1_455 S
O109 C84 1.325 1_545 S
H110 C52 0.929 . S
H111 C53 0.930 . S
H112 C54 0.930 . S
H113 C55 0.930 . S
H114 C57 0.930 . S
H115 C59 0.929 . S
H116 C60 0.930 . S
H117 C61 0.930 . S
H118 C64 0.930 . S
H119 C67 0.929 1_655 S
H120 C72 0.929 . S
H121 C73 0.930 1_655 S
H122 C80 0.929 1_655 S
H123 C81 0.930 . S
H124 C82 0.930 1_655 S
H125 C83 0.930 . S
H126 C85 0.929 . S
H127 C86 0.930 1_655 S
H128 C87 0.930 . S
H129 C88 0.939 . S
H130 C92 0.929 . S
H131 C94 0.930 . S
H132 C100 0.929 . S
H133 C101 0.930 1_565 S
Li134 N151 1.990 1_455 S
Li134 O194 1.956 . S
Li134 O195 1.970 1_545 S
Li134 O196 1.961 . S
Li135 N159 1.990 . S
Li135 O194 1.970 . S
Li135 O195 1.956 1_545 S
Li135 O197 1.961 . S
Li136 N181 1.990 . S
Li136 O194 1.961 . S
Li136 O196 1.956 . S
Li136 O197 1.970 . S
Li137 N187 1.990 . S
Li137 O195 1.961 . S
Li137 O196 1.970 1_565 S
Li137 O197 1.956 1_565 S
C138 C140 1.348 . S
C138 C141 1.356 . S
C138 O194 1.325 . S
N139 C142 1.314 . S
N139 C143 1.279 . S
C140 C138 1.348 . S
C140 C142 1.353 . S
C140 H198 0.929 . S
C141 C138 1.356 . S
C141 C143 1.358 . S
C141 H199 0.930 . S
C142 N139 1.314 . S
C142 C140 1.353 . S
C142 H200 0.930 . S
C143 N139 1.279 . S
C143 C141 1.358 . S
C143 H201 0.930 . S
C144 C147 1.348 . S
C144 C148 1.356 . S
C144 O195 1.325 . S
C145 N146 1.279 . S
C145 C148 1.358 . S
C145 H202 0.930 . S
N146 C145 1.279 . S
N146 C149 1.314 . S
C147 C144 1.348 . S
C147 C149 1.353 . S
C147 H203 0.929 . S
C148 C144 1.356 . S
C148 C145 1.358 . S
C148 H204 0.930 . S
C149 N146 1.314 . S
C149 C147 1.353 . S
C149 H205 0.930 . S
C150 N151 1.314 . S
C150 C155 1.353 . S
C150 H156 0.930 1_545 S
N151 Li134 1.990 1_655 S
N151 C150 1.314 . S
N151 C153 1.279 . S
C152 C153 1.358 . S
C152 C154 1.356 . S
C152 H206 0.930 . S
C153 N151 1.279 . S
C153 C152 1.358 . S
C153 H157 0.930 . S
C154 C152 1.356 . S
C154 C155 1.348 . S
C155 C150 1.353 . S
C155 C154 1.348 . S
C155 H207 0.929 1_545 S
H156 C150 0.930 1_565 S
H157 C153 0.930 . S
C158 N159 1.314 . S
C158 C160 1.353 . S
C158 H164 0.930 . S
N159 Li135 1.990 . S
N159 C158 1.314 . S
N159 C162 1.279 . S
C160 C158 1.353 . S
C160 C163 1.348 . S
C160 H208 0.929 . S
C161 C162 1.358 . S
C161 C163 1.356 . S
C161 H209 0.930 1_545 S
C162 N159 1.279 . S
C162 C161 1.358 . S
C162 H165 0.930 1_545 S
C163 C160 1.348 . S
C163 C161 1.356 . S
H164 C158 0.930 . S
H165 C162 0.930 1_565 S
C166 C168 1.348 . S
C166 C169 1.356 . S
C166 O196 1.325 1_655 S
N167 C170 1.314 . S
N167 C171 1.279 . S
C168 C166 1.348 . S
C168 C170 1.353 . S
C168 H210 0.929 1_545 S
C169 C166 1.356 . S
C169 C171 1.358 . S
C169 H211 0.930 . S
C170 N167 1.314 . S
C170 C168 1.353 . S
C170 H212 0.930 1_545 S
C171 N167 1.279 . S
C171 C169 1.358 . S
C171 H213 0.930 . S
C172 C173 1.348 . S
C172 C174 1.356 . S
C172 O197 1.325 . S
C173 C172 1.348 . S
C173 C175 1.353 . S
C173 H214 0.929 . S
C174 C172 1.356 . S
C174 C176 1.358 . S
C174 H215 0.930 1_545 S
C175 C173 1.353 . S
C175 N177 1.314 . S
C175 H216 0.930 . S
C176 C174 1.358 . S
C176 N177 1.283 . S
C176 H217 0.926 1_545 S
N177 C175 1.314 . S
N177 C176 1.283 . S
C178 C180 1.353 . S
C178 N181 1.314 . S
C178 H184 0.930 . S
C179 N181 1.279 . S
C179 C182 1.358 . S
C179 H185 0.928 1_455 S
C180 C178 1.353 . S
C180 C183 1.348 . S
C180 H218 0.929 . S
N181 Li136 1.990 . S
N181 C178 1.314 . S
N181 C179 1.279 . S
C182 C179 1.358 . S
C182 C183 1.356 . S
C182 H219 0.930 1_455 S
C183 C180 1.348 . S
C183 C182 1.356 . S
H184 C178 0.930 . S
H185 C179 0.928 1_655 S
C186 N187 1.314 . S
C186 C188 1.353 . S
C186 H192 0.930 . S
N187 Li137 1.990 . S
N187 C186 1.314 . S
N187 C190 1.279 . S
C188 C186 1.353 . S
C188 C191 1.348 . S
C188 H220 0.929 . S
C189 C190 1.358 . S
C189 C191 1.356 . S
C189 H221 0.930 . S
C190 N187 1.279 . S
C190 C189 1.358 . S
C190 H193 0.930 . S
C191 C188 1.348 . S
C191 C189 1.356 . S
H192 C186 0.930 . S
H193 C190 0.930 . S
O194 Li134 1.956 . S
O194 Li135 1.970 . S
O194 Li136 1.961 . S
O194 C138 1.325 . S
O195 Li134 1.970 1_565 S
O195 Li135 1.956 1_565 S
O195 Li137 1.961 . S
O195 C144 1.325 . S
O196 Li134 1.961 . S
O196 Li136 1.956 . S
O196 Li137 1.970 1_545 S
O196 C166 1.325 1_455 S
O197 Li135 1.961 . S
O197 Li136 1.970 . S
O197 Li137 1.956 1_545 S
O197 C172 1.325 . S
H198 C140 0.929 . S
H199 C141 0.930 . S
H200 C142 0.930 . S
H201 C143 0.930 . S
H202 C145 0.930 . S
H203 C147 0.929 . S
H204 C148 0.930 . S
H205 C149 0.930 . S
H206 C152 0.930 . S
H207 C155 0.929 1_565 S
H208 C160 0.929 . S
H209 C161 0.930 1_565 S
H210 C168 0.929 1_565 S
H211 C169 0.930 . S
H212 C170 0.930 1_565 S
H213 C171 0.930 . S
H214 C173 0.929 . S
H215 C174 0.930 1_565 S
H216 C175 0.930 . S
H217 C176 0.926 1_565 S
H218 C180 0.929 . S
H219 C182 0.930 1_655 S
H220 C188 0.929 . S
H221 C189 0.930 . S
C95 N12 1.420 . S
C183 N25 1.583 . S
C103 C16 1.516 . S
C191 C30 1.547 . S
C163 C7 1.548 . S
C66 C39 1.516 . S
C154 N2 1.583 . S
N35 C75 1.420 . S
