# Generated by pormake.
# Topology scu, (8,4)-cn, num edge types: 1
# Building blocks:
#     Node 0, Type 0, BuildingBlock: GIZVER_clean_sbu_0, # of connection points: 8
#     Node 1, Type 1, BuildingBlock: MUDLON_clean_sbu_0, # of connection points: 4
#     Node 2, Type 1, BuildingBlock: MUDLON_clean_sbu_0, # of connection points: 4
#     Edge 3, Type (0, 1), BuildingBlock: FUNLAD_clean_linker_0, # of connection points: 2
#     Edge 4, Type (0, 1), BuildingBlock: FUNLAD_clean_linker_0, # of connection points: 2
#     Edge 5, Type (0, 1), BuildingBlock: FUNLAD_clean_linker_0, # of connection points: 2
#     Edge 6, Type (0, 1), BuildingBlock: FUNLAD_clean_linker_0, # of connection points: 2
#     Edge 7, Type (0, 1), BuildingBlock: FUNLAD_clean_linker_0, # of connection points: 2
#     Edge 8, Type (0, 1), BuildingBlock: FUNLAD_clean_linker_0, # of connection points: 2
#     Edge 9, Type (0, 1), BuildingBlock: FUNLAD_clean_linker_0, # of connection points: 2
#     Edge 10, Type (0, 1), BuildingBlock: FUNLAD_clean_linker_0, # of connection points: 2
# Relax obj value: 0.011
# Max RMSD: 0.077
# Mean RMSD: 0.043
data_MOF--net-scu--node1-GIZVER_clean_sbu_0--node2-MUDLON_clean_sbu_0--edge1-FUNLAD_clean_linker_0
_symmetry_space_group_name_H-M    P1
_symmetry_Int_Tables_number       1
_symmetry_cell_setting            triclinic
loop_
_symmetry_equiv_pos_as_xyz
'x, y, z'
_cell_length_a     26.871067
_cell_length_b     27.515478
_cell_length_c     25.806622
_cell_angle_alpha  97.8593
_cell_angle_beta   82.564488
_cell_angle_gamma 115.32196
loop_
_atom_site_label
_atom_site_type_symbol
_atom_site_fract_x
_atom_site_fract_y
_atom_site_fract_z
_atom_type_partial_charge
Co0 Co 0.01653 0.96279 0.13778 0.0
Co1 Co 0.10196 0.04287 0.09838 0.0
Co2 Co 0.99736 0.01982 0.03539 0.0
O3 O 0.03916 0.98907 0.06907 0.0
H4 H 0.04973 0.96472 0.04445 0.0
O5 O 0.95619 0.05179 1.00246 0.0
Co6 Co 0.97947 0.07554 0.93355 0.0
Co7 Co 0.89332 1.00099 0.97448 0.0
H8 H 0.94711 0.07744 1.02665 0.0
O9 O 0.1615 0.02821 0.10605 0.0
O10 O 0.08779 0.01705 0.16369 0.0
O11 O 0.10652 0.11499 0.11009 0.0
O12 O 0.02496 0.09157 0.07943 0.0
O13 O 0.06137 0.04676 0.98128 0.0
O14 O 0.00045 0.10269 0.87188 0.0
O15 O 0.95759 0.13034 0.94263 0.0
O16 O 0.00815 0.0235 0.91579 0.0
O17 O 0.96819 0.94748 0.99147 0.0
O18 O 0.88444 0.92767 0.96714 0.0
O19 O 0.90676 0.02394 0.90781 0.0
O20 O 0.83586 0.01836 0.96805 0.0
C21 C 0.02401 0.90543 0.17622 0.0
C22 C 0.94004 1.0085 0.13778 0.0
C23 C 0.06603 0.1253 0.10416 0.0
C24 C 0.13537 0.01459 0.15143 0.0
C25 C 0.98109 0.13682 0.89489 0.0
C26 C 0.05519 0.03641 0.93214 0.0
C27 C 0.92375 0.91463 0.9705 0.0
C28 C 0.85936 0.02664 0.92083 0.0
O29 O -0.00173 0.93434 0.19886 0.0
O30 O 0.04463 0.91211 0.12759 0.0
O31 O 0.93375 0.99331 0.08919 0.0
O32 O 0.98216 1.01147 0.15814 0.0
Mg33 Mg 0.00242 0.52825 0.53253 0.0
C34 C 0.9952 0.43322 0.46364 0.0
O35 O 0.03693 0.44604 0.49204 0.0
C36 C 0.98285 0.59669 0.61641 0.0
O37 O 0.03536 0.60586 0.61158 0.0
C38 C 0.07053 0.49337 0.60305 0.0
O39 O 0.11704 0.51914 0.57532 0.0
O40 O 0.0261 0.49406 0.59203 0.0
O41 O 0.96674 0.46093 0.47289 0.0
O42 O 0.06007 0.597 0.48947 0.0
C43 C 0.07187 0.59026 0.44032 0.0
O44 O 0.0584 0.54092 0.41814 0.0
O45 O 0.95142 0.5619 0.58343 0.0
Mg46 Mg 0.49631 0.02152 0.51319 0.0
C47 C 0.43763 0.95453 0.41814 0.0
O48 O 0.48845 0.97341 0.39631 0.0
C49 C 0.55514 0.01991 0.60036 0.0
O50 O 0.54597 0.06352 0.61178 0.0
C51 C 0.42348 0.0237 0.60443 0.0
O52 O 0.42297 0.97527 0.59719 0.0
O53 O 0.45297 0.0579 0.5719 0.0
O54 O 0.42976 0.96349 0.46748 0.0
O55 O 0.56061 0.07033 0.4572 0.0
C56 C 0.61084 0.09362 0.46808 0.0
O57 O 0.6223 0.09675 0.51668 0.0
O58 O 0.53774 0.99015 0.55841 0.0
C59 C 0.0096 0.17552 0.14471 0.0
C60 C 0.06135 0.17316 0.13465 0.0
C61 C 0.00235 0.21459 0.18182 0.0
C62 C 0.04699 0.25263 0.20936 0.0
C63 C 0.09937 0.25233 0.19658 0.0
C64 C 0.10648 0.21302 0.1599 0.0
C65 C 0.0408 0.2902 0.25458 0.0
C66 C 0.99315 0.29375 0.27394 0.0
C67 C 0.98999 0.32656 0.32409 0.0
C68 C 0.9556 0.35408 0.33113 0.0
C69 C 0.95506 0.38741 0.37741 0.0
C70 C 0.98839 0.39297 0.41756 0.0
H71 H 0.04576 0.30737 0.36252 0.0
C72 C 0.02 0.36269 0.41152 0.0
C73 C 0.02074 0.32991 0.36555 0.0
H74 H 0.04543 0.36515 0.44196 0.0
H75 H 0.97376 0.14531 0.12613 0.0
H76 H 0.96129 0.21308 0.18991 0.0
H77 H 0.1347 0.28122 0.21679 0.0
H78 H 0.14691 0.21256 0.15302 0.0
H79 H 0.07784 0.31506 0.2747 0.0
H80 H 0.95591 0.27285 0.25343 0.0
H81 H 0.93062 0.35125 0.30014 0.0
H82 H 0.9301 0.41007 0.38099 0.0
C83 C 0.91065 0.05162 0.22101 0.0
C84 C 0.89973 0.02603 0.17009 0.0
C85 C 0.87206 0.0669 0.25204 0.0
C86 C 0.82151 0.05695 0.23282 0.0
C87 C 0.811 0.03198 0.18172 0.0
C88 C 0.84976 0.01708 0.15055 0.0
C89 C 0.77697 0.06754 0.26624 0.0
C90 C 0.78601 0.10382 0.3088 0.0
C91 C 0.74095 0.10809 0.34687 0.0
C92 C 0.75327 0.12917 0.39869 0.0
C93 C 0.7113 0.12759 0.43752 0.0
C94 C 0.65593 0.10531 0.42535 0.0
H95 H 0.67496 0.07497 0.29404 0.0
C96 C 0.64404 0.08811 0.37271 0.0
C97 C 0.68606 0.08951 0.33384 0.0
H98 H 0.60191 0.07124 0.36181 0.0
H99 H 0.94882 0.05936 0.23724 0.0
H100 H 0.88138 0.08466 0.29161 0.0
H101 H 0.77233 0.02341 0.16599 0.0
H102 H 0.84002 0.9976 0.11146 0.0
H103 H 0.73503 0.04264 0.25602 0.0
H104 H 0.82811 0.12886 0.3186 0.0
H105 H 0.79521 0.14455 0.40981 0.0
H106 H 0.72209 0.14168 0.47756 0.0
C107 C 0.07362 0.84916 0.19165 0.0
C108 C 0.03357 0.86945 0.20798 0.0
C109 C 0.0855 0.81962 0.22484 0.0
C110 C 0.05708 0.8094 0.27495 0.0
C111 C 0.01694 0.82953 0.29066 0.0
C112 C 0.00534 0.859 0.25782 0.0
C113 C 0.06705 0.77836 0.31266 0.0
C114 C 0.0962 0.74813 0.30099 0.0
C115 C 0.09809 0.71219 0.33854 0.0
C116 C 0.10383 0.66463 0.31849 0.0
C117 C 0.09874 0.62651 0.35197 0.0
C118 C 0.08835 0.63526 0.40653 0.0
H119 H 0.08952 0.76003 0.41069 0.0
C120 C 0.08694 0.68476 0.42702 0.0
C121 C 0.09183 0.72286 0.39345 0.0
H122 H 0.07953 0.69314 0.46884 0.0
H123 H 0.09691 0.85743 0.15391 0.0
H124 H 0.11751 0.80593 0.21126 0.0
H125 H 0.9943 0.82258 0.32884 0.0
H126 H 0.97444 0.87417 0.27197 0.0
H127 H 0.04575 0.77766 0.35148 0.0
H128 H 0.1146 0.74509 0.26142 0.0
H129 H 0.10958 0.65563 0.27653 0.0
H130 H 0.10059 0.58909 0.33476 0.0
C131 C 0.20408 0.98171 0.17044 0.0
C132 C 0.15947 0.99515 0.18819 0.0
C133 C 0.2278 0.96402 0.20461 0.0
C134 C 0.20734 0.95908 0.25759 0.0
C135 C 0.16235 0.97201 0.27522 0.0
C136 C 0.13852 0.9897 0.2409 0.0
C137 C 0.23557 0.94627 0.29637 0.0
C138 C 0.26926 0.92083 0.283 0.0
C139 C 0.30769 0.91996 0.31919 0.0
C140 C 0.35811 0.91914 0.29767 0.0
C141 C 0.39927 0.92693 0.33005 0.0
C142 C 0.39057 0.93496 0.38481 0.0
H143 H 0.25815 0.92238 0.39224 0.0
C144 C 0.3383 0.93101 0.40658 0.0
C145 C 0.29727 0.92367 0.37412 0.0
H146 H 0.32994 0.93639 0.44866 0.0
H147 H 0.22122 0.98534 0.13006 0.0
H148 H 0.26344 0.95632 0.1895 0.0
H149 H 0.14601 0.96909 0.31588 0.0
H150 H 0.10413 0.99966 0.25581 0.0
H151 H 0.23104 0.96183 0.33683 0.0
H152 H 0.2734 0.90492 0.2426 0.0
H153 H 0.36699 0.91557 0.2555 0.0
H154 H 0.4388 0.92918 0.31198 0.0
C155 C 0.87782 0.83079 0.91058 0.0
C156 C 0.92144 0.86301 0.94216 0.0
C157 C 0.88003 0.78717 0.87698 0.0
C158 C 0.92598 0.77473 0.87426 0.0
C159 C 0.96762 0.80462 0.90842 0.0
C160 C 0.9656 0.84838 0.94178 0.0
C161 C 0.93397 0.73315 0.83496 0.0
C162 C 0.90963 0.71547 0.78923 0.0
C163 C 0.92743 0.68285 0.74627 0.0
C164 C 0.89038 0.64877 0.70933 0.0
C165 C 0.90761 0.62007 0.66704 0.0
C166 C 0.96251 0.62573 0.6606 0.0
H167 H 0.01289 0.71594 0.76542 0.0
C168 C -0.00054 0.66025 0.69734 0.0
C169 C 0.98232 0.68849 0.73937 0.0
H170 H 0.04221 0.66604 0.69358 0.0
H171 H 0.8428 0.84044 0.91019 0.0
H172 H 0.8461 0.76411 0.85275 0.0
H173 H 0.00325 0.79562 0.9077 0.0
H174 H -0.00025 0.87195 0.96575 0.0
H175 H 0.96486 0.71986 0.84239 0.0
H176 H 0.87769 0.72706 0.78141 0.0
H177 H 0.84806 0.64436 0.71321 0.0
H178 H 0.87821 0.59396 0.63931 0.0
C179 C 0.1559 0.05742 0.90901 0.0
C180 C 0.10315 0.04429 0.89323 0.0
C181 C 0.20087 0.06556 0.87163 0.0
C182 C 0.19387 0.06069 0.81767 0.0
C183 C 0.14138 0.04852 0.80221 0.0
C184 C 0.09655 0.04006 0.83936 0.0
C185 C 0.23966 0.06723 0.77612 0.0
C186 C 0.28311 0.05683 0.78202 0.0
C187 C 0.32282 0.0533 0.73747 0.0
C188 C 0.34539 0.01591 0.73772 0.0
C189 C 0.37893 1.00747 0.69481 0.0
C190 C 0.39179 0.03711 0.65096 0.0
H191 H 0.32167 0.11482 0.69363 0.0
C192 C 0.37184 0.07678 0.65164 0.0
C193 C 0.33725 0.0846 0.69445 0.0
H194 H 0.38143 0.1004 0.61847 0.0
H195 H 0.16251 0.06151 0.9502 0.0
H196 H 0.24097 0.07624 0.88526 0.0
H197 H 0.13475 0.04472 0.76103 0.0
H198 H 0.05666 0.03041 0.82566 0.0
H199 H 0.23422 0.07522 0.73764 0.0
H200 H 0.28601 0.04382 0.81896 0.0
H201 H 0.33545 0.99165 0.77048 0.0
H202 H 0.39434 0.97711 0.69578 0.0
C203 C 0.01509 0.1896 0.81616 0.0
C204 C 0.98692 0.18264 0.86641 0.0
C205 C 0.02316 0.23353 0.78938 0.0
C206 C 0.00346 0.27204 0.81219 0.0
C207 C 0.97415 0.26449 0.8619 0.0
C208 C 0.96623 0.22046 0.88892 0.0
C209 C 0.0104 0.31865 0.78387 0.0
C210 C 0.05183 0.34006 0.74656 0.0
C211 C 0.05703 0.38326 0.71411 0.0
C212 C 0.10759 0.41073 0.68536 0.0
C213 C 0.11286 0.44797 0.65064 0.0
C214 C 0.06744 0.4583 0.64352 0.0
H215 H 0.97192 0.37389 0.72814 0.0
C216 C 0.01725 0.43185 0.67328 0.0
C217 C 0.012 0.39475 0.70795 0.0
H218 H 0.98127 0.43869 0.66883 0.0
H219 H 0.03125 0.16109 0.79729 0.0
H220 H 0.04405 0.23647 0.75041 0.0
H221 H 0.95773 0.29303 0.88012 0.0
H222 H 0.94414 0.21622 0.92742 0.0
H223 H 0.98085 0.33618 0.79513 0.0
H224 H 0.08401 0.32546 0.73917 0.0
H225 H 0.14298 0.40259 0.68897 0.0
H226 H 0.15207 0.46745 0.62834 0.0
C227 C 0.83692 0.01784 0.82772 0.0
C228 C 0.82937 0.03444 0.88101 0.0
C229 C 0.80388 0.0202 0.7912 0.0
C230 C 0.76359 0.04019 0.80744 0.0
C231 C 0.75817 0.05919 0.86019 0.0
C232 C 0.79018 0.05572 0.89673 0.0
C233 C 0.72646 0.04231 0.77096 0.0
C234 C 0.70631 1.00482 0.73054 0.0
C235 C 0.66418 1.00488 0.69833 0.0
C236 C 0.65995 0.98043 0.64655 0.0
C237 C 0.62251 0.9827 0.61478 0.0
C238 C 0.58883 1.00951 0.63451 0.0
H239 H 0.62708 0.04505 0.75918 0.0
C240 C 0.59094 0.03122 0.68704 0.0
C241 C 0.62763 0.02845 0.71874 0.0
H242 H 0.56457 0.05113 0.70361 0.0
H243 H 0.86703 1.00144 0.81457 0.0
H244 H 0.81 1.00657 0.75049 0.0
H245 H 0.72785 0.07534 0.87352 0.0
H246 H 0.78389 0.0693 0.93747 0.0
H247 H 0.71276 0.07454 0.78023 0.0
H248 H 0.72063 0.97301 0.72086 0.0
H249 H 0.6868 0.96101 0.63015 0.0
H250 H 0.62161 0.96557 0.57436 0.0
loop_
_geom_bond_atom_site_label_1
_geom_bond_atom_site_label_2
_geom_bond_distance
_geom_bond_site_symmetry_2
_ccdc_geom_bond_type
Co0 O3 2.042 . S
Co0 O10 2.264 1_565 S
Co0 O29 2.286 1_455 S
Co0 O30 2.069 . S
Co0 O32 2.015 1_455 S
Co1 O3 2.122 1_545 S
Co1 O9 2.073 . S
Co1 O10 2.327 . S
Co1 O11 1.976 . S
Co2 O3 2.093 1_545 S
Co2 O5 2.081 1_454 S
Co2 O12 2.114 . S
Co2 O13 2.139 1_554 S
Co2 O17 2.109 1_444 S
Co2 O31 2.148 1_445 S
O3 Co0 2.042 . S
O3 Co1 2.122 1_565 S
O3 Co2 2.093 1_565 S
O3 H4 0.980 . S
H4 O3 0.980 . S
O5 Co2 2.081 1_656 S
O5 Co6 2.042 1_655 S
O5 Co7 2.122 1_545 S
O5 H8 0.980 . S
Co6 O5 2.042 1_455 S
Co6 O14 2.286 . S
Co6 O15 2.069 1_455 S
Co6 O16 2.015 . S
Co6 O19 2.264 1_455 S
Co7 O5 2.122 1_565 S
Co7 O18 1.976 . S
Co7 O19 2.327 1_565 S
Co7 O20 2.073 . S
H8 O5 0.980 . S
O9 Co1 2.073 . S
O9 C24 1.245 . S
O10 Co0 2.264 1_545 S
O10 Co1 2.327 . S
O10 C24 1.257 . S
O11 Co1 1.976 . S
O11 C23 1.251 . S
O12 Co2 2.114 . S
O12 C23 1.274 . S
O13 Co2 2.139 1_556 S
O13 C26 1.246 . S
O14 Co6 2.286 . S
O14 C25 1.259 . S
O15 Co6 2.069 1_655 S
O15 C25 1.289 1_655 S
O16 Co6 2.015 . S
O16 C26 1.257 . S
O17 Co2 2.109 1_666 S
O17 C27 1.274 . S
O18 Co7 1.976 . S
O18 C27 1.251 . S
O19 Co6 2.264 1_655 S
O19 Co7 2.327 1_545 S
O19 C28 1.257 . S
O20 Co7 2.073 . S
O20 C28 1.245 1_565 S
C21 O29 1.259 1_455 S
C21 O30 1.289 . S
C22 O31 1.246 . S
C22 O32 1.257 . S
C23 O11 1.251 . S
C23 O12 1.274 . S
C24 O9 1.245 . S
C24 O10 1.257 . S
C25 O14 1.259 . S
C25 O15 1.289 1_455 S
C26 O13 1.246 . S
C26 O16 1.257 . S
C27 O17 1.274 . S
C27 O18 1.251 . S
C28 O19 1.257 . S
C28 O20 1.245 1_545 S
O29 Co0 2.286 1_655 S
O29 C21 1.259 1_655 S
O30 Co0 2.069 . S
O30 C21 1.289 . S
O31 Co2 2.148 1_665 S
O31 C22 1.246 . S
O32 Co0 2.015 1_655 S
O32 C22 1.257 . S
Mg33 O40 2.141 . S
Mg33 O41 2.048 . S
Mg33 O42 2.048 . S
Mg33 O45 2.141 . S
C34 O35 1.313 . S
C34 O41 1.195 1_455 S
O35 C34 1.313 . S
C36 O37 1.245 . S
C36 O45 1.289 1_455 S
O37 C36 1.245 . S
C38 O39 1.245 . S
C38 O40 1.289 1_455 S
O39 C38 1.245 . S
O40 Mg33 2.141 . S
O40 C38 1.289 1_655 S
O41 Mg33 2.048 . S
O41 C34 1.195 1_655 S
O42 Mg33 2.048 . S
O42 C43 1.195 1_655 S
C43 O42 1.195 1_455 S
C43 O44 1.313 . S
O44 C43 1.313 . S
O45 Mg33 2.141 . S
O45 C36 1.289 1_655 S
Mg46 O53 2.141 . S
Mg46 O54 2.048 . S
Mg46 O55 2.048 . S
Mg46 O58 2.141 . S
C47 O48 1.313 1_545 S
C47 O54 1.195 . S
O48 C47 1.313 1_565 S
C49 O50 1.245 1_545 S
C49 O58 1.289 . S
O50 C49 1.245 1_565 S
C51 O52 1.245 1_545 S
C51 O53 1.289 . S
O52 C51 1.245 1_565 S
O53 Mg46 2.141 . S
O53 C51 1.289 . S
O54 Mg46 2.048 . S
O54 C47 1.195 . S
O55 Mg46 2.048 . S
O55 C56 1.195 . S
C56 O55 1.195 . S
C56 O57 1.313 1_545 S
O57 C56 1.313 1_565 S
O58 Mg46 2.141 . S
O58 C49 1.289 . S
C59 C60 1.386 1_655 S
C59 C61 1.383 . S
C59 H75 0.951 . S
C60 C59 1.386 1_455 S
C60 C64 1.383 . S
C61 C59 1.383 . S
C61 C62 1.402 1_655 S
C61 H76 0.951 . S
C62 C61 1.402 1_455 S
C62 C63 1.375 . S
C62 C65 1.481 . S
C63 C62 1.375 . S
C63 C64 1.367 . S
C63 H77 0.951 . S
C64 C60 1.383 . S
C64 C63 1.367 . S
C64 H78 0.950 . S
C65 C62 1.481 . S
C65 C66 1.297 1_455 S
C65 H79 0.950 . S
C66 C65 1.297 1_655 S
C66 C67 1.479 . S
C66 H80 0.950 . S
C67 C66 1.479 . S
C67 C68 1.375 . S
C67 C73 1.404 1_655 S
C68 C67 1.375 . S
C68 C69 1.369 . S
C68 H81 0.950 . S
C69 C68 1.369 . S
C69 C70 1.392 1_655 S
C69 H82 0.951 . S
C70 C69 1.392 1_455 S
C70 C72 1.384 . S
H71 C73 0.949 . S
C72 C70 1.384 . S
C72 C73 1.385 . S
C72 H74 0.950 . S
C73 C67 1.404 1_455 S
C73 H71 0.949 . S
C73 C72 1.385 . S
H74 C72 0.950 . S
H75 C59 0.951 . S
H76 C61 0.951 . S
H77 C63 0.951 . S
H78 C64 0.950 . S
H79 C65 0.950 . S
H80 C66 0.950 . S
H81 C68 0.950 . S
H82 C69 0.951 . S
C83 C84 1.386 1_565 S
C83 C85 1.383 . S
C83 H99 0.951 . S
C84 C83 1.386 1_545 S
C84 C88 1.383 . S
C85 C83 1.383 . S
C85 C86 1.402 1_565 S
C85 H100 0.951 . S
C86 C85 1.402 1_545 S
C86 C87 1.375 . S
C86 C89 1.481 . S
C87 C86 1.375 . S
C87 C88 1.367 . S
C87 H101 0.951 . S
C88 C84 1.383 . S
C88 C87 1.367 . S
C88 H102 0.950 . S
C89 C86 1.481 . S
C89 C90 1.297 . S
C89 H103 0.950 . S
C90 C89 1.297 . S
C90 C91 1.479 . S
C90 H104 0.950 1_545 S
C91 C90 1.479 . S
C91 C92 1.375 1_545 S
C91 C97 1.404 . S
C92 C91 1.375 1_565 S
C92 C93 1.369 . S
C92 H105 0.950 . S
C93 C92 1.369 . S
C93 C94 1.392 1_565 S
C93 H106 0.951 . S
C94 C93 1.392 1_545 S
C94 C96 1.384 . S
H95 C97 0.949 . S
C96 C94 1.384 . S
C96 C97 1.385 . S
C96 H98 0.950 . S
C97 C91 1.404 . S
C97 H95 0.949 . S
C97 C96 1.385 . S
H98 C96 0.950 . S
H99 C83 0.951 . S
H100 C85 0.951 . S
H101 C87 0.951 . S
H102 C88 0.950 . S
H103 C89 0.950 . S
H104 C90 0.950 1_565 S
H105 C92 0.950 . S
H106 C93 0.951 . S
C107 C108 1.386 . S
C107 C109 1.383 . S
C107 H123 0.951 . S
C108 C107 1.386 . S
C108 C112 1.383 1_455 S
C109 C107 1.383 . S
C109 C110 1.402 . S
C109 H124 0.951 . S
C110 C109 1.402 . S
C110 C111 1.375 1_455 S
C110 C113 1.477 . S
C111 C110 1.375 1_655 S
C111 C112 1.367 . S
C111 H125 0.951 . S
C112 C108 1.383 1_655 S
C112 C111 1.367 . S
C112 H126 0.950 . S
C113 C110 1.477 . S
C113 C114 1.311 . S
C113 H127 0.939 1_455 S
C114 C113 1.311 . S
C114 C115 1.479 . S
C114 H128 0.950 . S
C115 C114 1.479 . S
C115 C116 1.375 . S
C115 C121 1.404 1_455 S
C116 C115 1.375 . S
C116 C117 1.369 . S
C116 H129 0.950 . S
C117 C116 1.369 . S
C117 C118 1.392 . S
C117 H130 0.951 . S
C118 C117 1.392 . S
C118 C120 1.384 1_455 S
H119 C121 0.949 . S
C120 C118 1.384 1_655 S
C120 C121 1.385 . S
C120 H122 0.950 . S
C121 C115 1.404 1_655 S
C121 H119 0.949 . S
C121 C120 1.385 . S
H122 C120 0.950 . S
H123 C107 0.951 . S
H124 C109 0.951 . S
H125 C111 0.951 . S
H126 C112 0.950 . S
H127 C113 0.939 1_655 S
H128 C114 0.950 . S
H129 C116 0.950 . S
H130 C117 0.951 . S
C131 C132 1.386 . S
C131 C133 1.383 . S
C131 H147 0.951 . S
C132 C131 1.386 . S
C132 C136 1.383 1_565 S
C133 C131 1.383 . S
C133 C134 1.402 1_565 S
C133 H148 0.951 . S
C134 C133 1.402 1_545 S
C134 C135 1.375 . S
C134 C137 1.481 . S
C135 C134 1.375 . S
C135 C136 1.367 . S
C135 H149 0.951 . S
C136 C132 1.383 1_545 S
C136 C135 1.367 . S
C136 H150 0.950 . S
C137 C134 1.481 . S
C137 C138 1.297 . S
C137 H151 0.950 . S
C138 C137 1.297 . S
C138 C139 1.479 . S
C138 H152 0.950 1_545 S
C139 C138 1.479 . S
C139 C140 1.375 1_545 S
C139 C145 1.404 . S
C140 C139 1.375 1_565 S
C140 C141 1.369 . S
C140 H153 0.950 . S
C141 C140 1.369 . S
C141 C142 1.392 1_565 S
C141 H154 0.951 . S
C142 C141 1.392 1_545 S
C142 C144 1.384 . S
H143 C145 0.949 . S
C144 C142 1.384 . S
C144 C145 1.385 . S
C144 H146 0.950 . S
C145 C139 1.404 . S
C145 H143 0.949 . S
C145 C144 1.385 . S
H146 C144 0.950 . S
H147 C131 0.951 . S
H148 C133 0.951 . S
H149 C135 0.951 . S
H150 C136 0.950 . S
H151 C137 0.950 . S
H152 C138 0.950 1_565 S
H153 C140 0.950 . S
H154 C141 0.951 . S
C155 C156 1.386 1_655 S
C155 C157 1.383 . S
C155 H171 0.951 . S
C156 C155 1.386 1_455 S
C156 C160 1.383 . S
C157 C155 1.383 . S
C157 C158 1.402 1_655 S
C157 H172 0.951 . S
C158 C157 1.402 1_455 S
C158 C159 1.375 . S
C158 C161 1.481 . S
C159 C158 1.375 . S
C159 C160 1.367 . S
C159 H173 0.951 . S
C160 C156 1.383 . S
C160 C159 1.367 . S
C160 H174 0.950 . S
C161 C158 1.481 . S
C161 C162 1.297 1_455 S
C161 H175 0.950 . S
C162 C161 1.297 1_655 S
C162 C163 1.479 1_655 S
C162 H176 0.950 . S
C163 C162 1.479 1_455 S
C163 C164 1.375 1_455 S
C163 C169 1.404 . S
C164 C163 1.375 1_655 S
C164 C165 1.369 . S
C164 H177 0.950 . S
C165 C164 1.369 . S
C165 C166 1.392 1_655 S
C165 H178 0.951 . S
C166 C165 1.392 1_455 S
C166 C168 1.384 . S
H167 C169 0.949 . S
C168 C166 1.384 . S
C168 C169 1.385 . S
C168 H170 0.950 . S
C169 C163 1.404 . S
C169 H167 0.949 . S
C169 C168 1.385 . S
H170 C168 0.950 . S
H171 C155 0.951 . S
H172 C157 0.951 . S
H173 C159 0.951 . S
H174 C160 0.950 . S
H175 C161 0.950 . S
H176 C162 0.950 . S
H177 C164 0.950 . S
H178 C165 0.951 . S
C179 C180 1.386 1_565 S
C179 C181 1.383 . S
C179 H195 0.951 . S
C180 C179 1.386 1_545 S
C180 C184 1.383 . S
C181 C179 1.383 . S
C181 C182 1.402 1_565 S
C181 H196 0.951 . S
C182 C181 1.402 1_545 S
C182 C183 1.375 . S
C182 C185 1.481 . S
C183 C182 1.375 . S
C183 C184 1.367 . S
C183 H197 0.951 . S
C184 C180 1.383 . S
C184 C183 1.367 . S
C184 H198 0.950 . S
C185 C182 1.481 . S
C185 C186 1.297 1_545 S
C185 H199 0.950 . S
C186 C185 1.297 1_565 S
C186 C187 1.479 1_565 S
C186 H200 0.950 . S
C187 C186 1.479 1_545 S
C187 C188 1.375 1_545 S
C187 C193 1.404 . S
C188 C187 1.375 1_565 S
C188 C189 1.369 . S
C188 H201 0.950 . S
C189 C188 1.369 . S
C189 C190 1.392 1_565 S
C189 H202 0.951 . S
C190 C189 1.392 1_545 S
C190 C192 1.384 . S
H191 C193 0.949 . S
C192 C190 1.384 . S
C192 C193 1.385 . S
C192 H194 0.950 . S
C193 C187 1.404 . S
C193 H191 0.949 . S
C193 C192 1.385 . S
H194 C192 0.950 . S
H195 C179 0.951 . S
H196 C181 0.951 . S
H197 C183 0.951 . S
H198 C184 0.950 . S
H199 C185 0.950 . S
H200 C186 0.950 . S
H201 C188 0.950 . S
H202 C189 0.951 . S
C203 C204 1.386 1_455 S
C203 C205 1.383 . S
C203 H219 0.951 . S
C204 C203 1.386 1_655 S
C204 C208 1.383 . S
C205 C203 1.383 . S
C205 C206 1.402 1_455 S
C205 H220 0.951 . S
C206 C205 1.402 1_655 S
C206 C207 1.375 . S
C206 C209 1.481 . S
C207 C206 1.375 . S
C207 C208 1.367 . S
C207 H221 0.951 . S
C208 C204 1.383 . S
C208 C207 1.367 . S
C208 H222 0.950 . S
C209 C206 1.481 . S
C209 C210 1.297 1_655 S
C209 H223 0.950 . S
C210 C209 1.297 1_455 S
C210 C211 1.479 . S
C210 H224 0.950 . S
C211 C210 1.479 . S
C211 C212 1.375 . S
C211 C217 1.404 1_455 S
C212 C211 1.375 . S
C212 C213 1.369 . S
C212 H225 0.950 . S
C213 C212 1.369 . S
C213 C214 1.392 . S
C213 H226 0.951 . S
C214 C213 1.392 . S
C214 C216 1.384 1_455 S
H215 C217 0.949 . S
C216 C214 1.384 1_655 S
C216 C217 1.385 . S
C216 H218 0.950 . S
C217 C211 1.404 1_655 S
C217 H215 0.949 . S
C217 C216 1.385 . S
H218 C216 0.950 . S
H219 C203 0.951 . S
H220 C205 0.951 . S
H221 C207 0.951 . S
H222 C208 0.950 . S
H223 C209 0.950 . S
H224 C210 0.950 . S
H225 C212 0.950 . S
H226 C213 0.951 . S
C227 C228 1.386 . S
C227 C229 1.383 . S
C227 H243 0.951 . S
C228 C227 1.386 . S
C228 C232 1.383 . S
C229 C227 1.383 . S
C229 C230 1.402 . S
C229 H244 0.951 . S
C230 C229 1.402 . S
C230 C231 1.375 . S
C230 C233 1.484 1_545 S
C231 C230 1.375 . S
C231 C232 1.367 . S
C231 H245 0.951 1_545 S
C232 C228 1.383 . S
C232 C231 1.367 . S
C232 H246 0.950 . S
C233 C230 1.484 1_565 S
C233 C234 1.296 . S
C233 H247 0.948 . S
C234 C233 1.296 . S
C234 C235 1.478 . S
C234 H248 0.951 1_565 S
C235 C234 1.478 . S
C235 C236 1.375 1_565 S
C235 C241 1.404 . S
C236 C235 1.375 1_545 S
C236 C237 1.369 . S
C236 H249 0.950 . S
C237 C236 1.369 . S
C237 C238 1.392 . S
C237 H250 0.951 . S
C238 C237 1.392 . S
C238 C240 1.384 1_545 S
H239 C241 0.949 . S
C240 C238 1.384 1_565 S
C240 C241 1.385 . S
C240 H242 0.950 . S
C241 C235 1.404 . S
C241 H239 0.949 . S
C241 C240 1.385 . S
H242 C240 0.950 . S
H243 C227 0.951 . S
H244 C229 0.951 . S
H245 C231 0.951 1_565 S
H246 C232 0.950 . S
H247 C233 0.948 . S
H248 C234 0.951 1_545 S
H249 C236 0.950 . S
H250 C237 0.951 . S
C60 C23 1.282 . S
C70 C34 1.373 . S
C84 C22 1.413 1_545 S
C94 C56 1.455 . S
C108 C21 1.746 . S
C118 C43 1.750 . S
C132 C24 1.442 1_565 S
C142 C47 1.525 . S
C156 C27 1.242 1_455 S
C166 C36 1.290 . S
C180 C26 1.306 . S
C190 C51 1.372 . S
C214 C38 1.686 . S
C204 C25 1.688 1_655 S
C228 C28 1.386 . S
C238 C49 1.441 . S
