# Generated by pormake.
# Topology bcu-b, (8,8)-cn, num edge types: 1
# Building blocks:
#     Node 0, Type 0, BuildingBlock: VETTIZ_charged_sbu_0, # of connection points: 8
#     Node 1, Type 1, BuildingBlock: TAGTUT_clean_sbu_3, # of connection points: 8
#     Edge 2, Type (0, 1), None
#     Edge 3, Type (0, 1), None
#     Edge 4, Type (0, 1), None
#     Edge 5, Type (0, 1), None
#     Edge 6, Type (0, 1), None
#     Edge 7, Type (0, 1), None
#     Edge 8, Type (0, 1), None
#     Edge 9, Type (0, 1), None
# Relax obj value: 0.017
# Max RMSD: 0.081
# Mean RMSD: 0.075
data_MOF--net-bcu-b--node1-VETTIZ_charged_sbu_0--node2-TAGTUT_clean_sbu_3--edge1-none
_symmetry_space_group_name_H-M    P1
_symmetry_Int_Tables_number       1
_symmetry_cell_setting            triclinic
loop_
_symmetry_equiv_pos_as_xyz
'x, y, z'
_cell_length_a     10.108909
_cell_length_b     10.71593
_cell_length_c     10.749643
_cell_angle_alpha  89.296462
_cell_angle_beta   90.532696
_cell_angle_gamma 101.76057
loop_
_atom_site_label
_atom_site_type_symbol
_atom_site_fract_x
_atom_site_fract_y
_atom_site_fract_z
_atom_type_partial_charge
Fe0 Fe 0.88939 0.69455 -0.00014 0.0
O1 O 0.91426 0.88049 -0.00463 0.0
Fe2 Fe 0.02065 -0.0205 0.84612 0.0
Fe3 Fe 0.99667 -0.00701 0.13454 0.0
O4 O 0.91267 0.8814 0.98315 0.0
O5 O 0.1108 0.09038 0.98399 0.0
O6 O 0.10322 0.09357 -0.00266 0.0
Fe7 Fe 0.12635 0.27848 0.98447 0.0
C8 C 0.78115 0.76674 0.23665 0.0
O9 O 0.02966 0.69722 0.14447 0.0
O10 O 0.14837 0.89596 0.162 0.0
O11 O 0.26608 0.2624 0.84878 0.0
O12 O 0.15344 0.09782 0.72337 0.0
O13 O 0.16285 0.86352 0.8536 0.0
O14 O 0.02628 0.67462 0.86646 0.0
O15 O 0.09915 0.12643 0.26339 0.0
O16 O 0.2438 0.26999 0.14122 0.0
C17 C 0.13336 0.74524 0.82674 0.0
O18 O 0.0073 0.28784 0.82957 0.0
O19 O 0.88193 0.09353 0.82001 0.0
O20 O 0.75794 0.70798 0.13339 0.0
O21 O 0.87321 0.86859 0.25807 0.0
C22 C 0.12379 0.77997 0.19534 0.0
C23 C 0.20462 0.2179 0.24754 0.0
C24 C 0.86006 0.20725 0.14658 0.0
O25 O 0.84164 0.09023 0.11977 0.0
O26 O 0.96737 0.28519 0.11026 0.0
C27 C 0.25014 0.19631 0.74638 0.0
O28 O 0.89868 0.85034 0.72632 0.0
O29 O 0.75976 0.7057 0.85421 0.0
C30 C 0.9172 0.20629 0.77632 0.0
C31 C 0.78874 0.76481 0.74904 0.0
C32 C 0.73075 0.6904 0.64481 0.0
C33 C 0.85025 0.2451 0.6639 0.0
C34 C 0.7804 0.24696 0.25087 0.0
Mg35 Mg 0.45595 0.76589 0.51373 0.0
Mg36 Mg 0.19835 0.52155 0.49421 0.0
O37 O 0.3779 0.59283 0.45221 0.0
Mg38 Mg 0.5094 0.4887 0.49279 0.0
O39 O 0.64458 0.3842 0.5307 0.0
Mg40 Mg 0.8121 0.48638 0.45864 0.0
Mg41 Mg 0.60147 0.20719 0.49289 0.0
C42 C 0.26412 0.29094 0.35559 0.0
O43 O 0.37985 0.367 0.63679 0.0
O44 O 0.29514 0.81161 0.35944 0.0
O45 O 0.39891 0.16748 0.58257 0.0
O46 O 0.30595 0.76476 0.67472 0.0
O47 O 0.13352 0.63116 0.35196 0.0
O48 O 0.14857 0.58688 0.67632 0.0
O49 O 0.66229 0.59625 0.35323 0.0
O50 O 0.61292 0.78949 0.36956 0.0
C51 C 0.68735 0.71647 0.33133 0.0
C52 C 0.18939 0.74034 0.30831 0.0
O53 O 0.39051 0.34452 0.35266 0.0
O54 O 0.89788 0.35353 0.60884 0.0
O55 O 0.18083 0.32655 0.43014 0.0
O56 O 0.82905 0.35416 0.29882 0.0
O57 O 0.7424 0.16968 0.62811 0.0
O58 O 0.6822 0.17023 0.30424 0.0
O59 O 0.6025 0.65341 0.63006 0.0
O60 O 0.81364 0.63001 0.59916 0.0
C61 C 0.2032 0.69401 0.72421 0.0
C62 C 0.34604 0.24515 0.64768 0.0
loop_
_geom_bond_atom_site_label_1
_geom_bond_atom_site_label_2
_geom_bond_distance
_geom_bond_site_symmetry_2
_ccdc_geom_bond_type
Fe0 O1 1.886 1_556 S
Fe0 O4 1.715 . S
Fe0 O9 2.077 1_656 S
Fe0 O14 1.935 1_655 S
Fe0 O20 2.077 1_556 S
Fe0 O29 1.935 . S
O1 Fe0 1.886 1_554 S
O1 Fe3 1.715 1_665 S
Fe2 O4 1.886 1_445 S
Fe2 O5 1.715 . S
Fe2 O12 1.935 . S
Fe2 O13 2.077 1_545 S
Fe2 O19 1.935 1_455 S
Fe2 O28 2.077 1_445 S
Fe3 O1 1.715 1_445 S
Fe3 O6 1.886 . S
Fe3 O10 1.935 1_545 S
Fe3 O15 2.077 . S
Fe3 O21 1.935 1_445 S
Fe3 O25 2.077 1_455 S
O4 Fe0 1.715 . S
O4 Fe2 1.886 1_665 S
O5 Fe2 1.715 . S
O5 Fe7 1.886 1_556 S
O6 Fe3 1.886 . S
O6 Fe7 1.715 . S
Fe7 O5 1.886 1_554 S
Fe7 O6 1.715 . S
Fe7 O11 2.077 1_554 S
Fe7 O16 1.935 . S
Fe7 O18 2.077 1_454 S
Fe7 O26 1.935 1_455 S
C8 O20 1.381 . S
C8 O21 1.421 . S
O9 Fe0 2.077 1_454 S
O9 C22 1.381 . S
O10 Fe3 1.935 1_565 S
O10 C22 1.421 . S
O11 Fe7 2.077 1_556 S
O11 C27 1.381 . S
O12 Fe2 1.935 . S
O12 C27 1.421 . S
O13 Fe2 2.077 1_565 S
O13 C17 1.381 . S
O14 Fe0 1.935 1_455 S
O14 C17 1.421 . S
O15 Fe3 2.077 . S
O15 C23 1.381 . S
O16 Fe7 1.935 . S
O16 C23 1.421 . S
C17 O13 1.381 . S
C17 O14 1.421 . S
O18 Fe7 2.077 1_656 S
O18 C30 1.381 . S
O19 Fe2 1.935 1_655 S
O19 C30 1.421 . S
O20 Fe0 2.077 1_554 S
O20 C8 1.381 . S
O21 Fe3 1.935 1_665 S
O21 C8 1.421 . S
C22 O9 1.381 . S
C22 O10 1.421 . S
C23 O15 1.381 . S
C23 O16 1.421 . S
C24 O25 1.381 . S
C24 O26 1.421 . S
O25 Fe3 2.077 1_655 S
O25 C24 1.381 . S
O26 Fe7 1.935 1_655 S
O26 C24 1.421 . S
C27 O11 1.381 . S
C27 O12 1.421 . S
O28 Fe2 2.077 1_665 S
O28 C31 1.381 . S
O29 Fe0 1.935 . S
O29 C31 1.421 . S
C30 O18 1.381 . S
C30 O19 1.421 . S
C31 O28 1.381 . S
C31 O29 1.421 . S
C32 O59 1.312 . S
C32 O60 1.208 . S
C33 O54 1.331 . S
C33 O57 1.244 . S
C34 O56 1.264 . S
C34 O58 1.273 . S
Mg35 O37 1.936 . S
Mg35 O44 2.081 . S
Mg35 O46 2.023 . S
Mg35 O50 2.031 . S
Mg35 O59 2.291 . S
Mg36 O37 1.963 . S
Mg36 O47 1.942 . S
Mg36 O48 1.955 . S
Mg36 O55 1.986 . S
O37 Mg35 1.936 . S
O37 Mg36 1.963 . S
O37 Mg38 1.915 . S
Mg38 O37 1.915 . S
Mg38 O39 1.915 . S
Mg38 O43 2.013 . S
Mg38 O49 2.114 . S
Mg38 O53 2.013 . S
Mg38 O59 2.114 . S
O39 Mg38 1.915 . S
O39 Mg40 1.936 . S
O39 Mg41 1.963 . S
Mg40 O39 1.936 . S
Mg40 O49 2.291 . S
Mg40 O54 2.081 . S
Mg40 O56 2.023 . S
Mg40 O60 2.031 . S
Mg41 O39 1.963 . S
Mg41 O45 1.986 . S
Mg41 O57 1.942 . S
Mg41 O58 1.955 . S
C42 O53 1.191 . S
C42 O55 1.307 . S
O43 Mg38 2.013 . S
O43 C62 1.191 . S
O44 Mg35 2.081 . S
O44 C52 1.331 . S
O45 Mg41 1.986 . S
O45 C62 1.307 . S
O46 Mg35 2.023 . S
O46 C61 1.264 . S
O47 Mg36 1.942 . S
O47 C52 1.244 . S
O48 Mg36 1.955 . S
O48 C61 1.273 . S
O49 Mg38 2.114 . S
O49 Mg40 2.291 . S
O49 C51 1.312 . S
O50 Mg35 2.031 . S
O50 C51 1.208 . S
C51 O49 1.312 . S
C51 O50 1.208 . S
C52 O44 1.331 . S
C52 O47 1.244 . S
O53 Mg38 2.013 . S
O53 C42 1.191 . S
O54 C33 1.331 . S
O54 Mg40 2.081 . S
O55 Mg36 1.986 . S
O55 C42 1.307 . S
O56 C34 1.264 . S
O56 Mg40 2.023 . S
O57 C33 1.244 . S
O57 Mg41 1.942 . S
O58 C34 1.273 . S
O58 Mg41 1.955 . S
O59 C32 1.312 . S
O59 Mg35 2.291 . S
O59 Mg38 2.114 . S
O60 C32 1.208 . S
O60 Mg40 2.031 . S
C61 O46 1.264 . S
C61 O48 1.273 . S
C62 O43 1.191 . S
C62 O45 1.307 . S
C23 C42 1.316 . S
C24 C34 1.514 . S
C8 C51 1.385 . S
C22 C52 1.394 . S
C17 C61 1.422 . S
C62 C27 1.373 . S
C30 C33 1.280 . S
C32 C31 1.400 . S
