# Generated by pormake.
# Topology scu, (8,4)-cn, num edge types: 1
# Building blocks:
#     Node 0, Type 0, BuildingBlock: TAGTUT_clean_sbu_3, # of connection points: 8
#     Node 1, Type 1, BuildingBlock: KOZSID_clean_sbu_0, # of connection points: 4
#     Node 2, Type 1, BuildingBlock: KOZSID_clean_sbu_0, # of connection points: 4
#     Edge 3, Type (0, 1), BuildingBlock: OJICUG_clean_linker_0, # of connection points: 2
#     Edge 4, Type (0, 1), BuildingBlock: OJICUG_clean_linker_0, # of connection points: 2
#     Edge 5, Type (0, 1), BuildingBlock: OJICUG_clean_linker_0, # of connection points: 2
#     Edge 6, Type (0, 1), BuildingBlock: OJICUG_clean_linker_0, # of connection points: 2
#     Edge 7, Type (0, 1), BuildingBlock: OJICUG_clean_linker_0, # of connection points: 2
#     Edge 8, Type (0, 1), BuildingBlock: OJICUG_clean_linker_0, # of connection points: 2
#     Edge 9, Type (0, 1), BuildingBlock: OJICUG_clean_linker_0, # of connection points: 2
#     Edge 10, Type (0, 1), BuildingBlock: OJICUG_clean_linker_0, # of connection points: 2
# Relax obj value: 0.022
# Max RMSD: 0.097
# Mean RMSD: 0.066
data_MOF--net-scu--node1-TAGTUT_clean_sbu_3--node2-KOZSID_clean_sbu_0--edge1-OJICUG_clean_linker_0
_symmetry_space_group_name_H-M    P1
_symmetry_Int_Tables_number       1
_symmetry_cell_setting            triclinic
loop_
_symmetry_equiv_pos_as_xyz
'x, y, z'
_cell_length_a     23.923337
_cell_length_b     19.755777
_cell_length_c     16.527697
_cell_angle_alpha  83.697936
_cell_angle_beta   85.800364
_cell_angle_gamma 89.724028
loop_
_atom_site_label
_atom_site_type_symbol
_atom_site_fract_x
_atom_site_fract_y
_atom_site_fract_z
_atom_type_partial_charge
C0 C 1.00293 0.87039 0.11858 0.0
C1 C 0.79292 0.97037 0.09137 0.0
C2 C 0.85276 0.02628 0.84781 0.0
Mg3 Mg 0.11893 0.92868 0.01773 0.0
Mg4 Mg 0.13262 0.09331 0.96759 0.0
O5 O 0.09032 0.01498 0.95994 0.0
Mg6 Mg 0.00888 0.01055 -0.00213 0.0
O7 O 0.92781 2e-05 0.03668 0.0
Mg8 Mg 0.90868 0.91431 0.9895 0.0
Mg9 Mg 0.88178 0.07483 0.0066 0.0
C10 C 0.02265 0.15862 0.89261 0.0
O11 O 0.01316 0.09505 0.08184 0.0
O12 O 0.20134 0.95011 0.93134 0.0
O13 O 0.93212 0.15027 0.05588 0.0
O14 O 0.15951 0.98033 0.11626 0.0
O15 O 0.20106 0.06284 0.88893 0.0
O16 O 0.16358 0.09291 0.08791 0.0
O17 O 0.99535 0.9269 0.91533 0.0
O18 O 0.07865 0.87611 0.92121 0.0
C19 C 0.02985 0.88113 0.89454 0.0
C20 C 0.22214 0.00322 0.88707 0.0
O21 O 0.99516 0.10201 0.90243 0.0
O22 O 0.82278 0.91989 0.06941 0.0
O23 O 0.07102 0.16583 0.92002 0.0
O24 O 0.86585 0.96802 0.88189 0.0
O25 O 0.80801 0.0327 0.07389 0.0
O26 O 0.86135 0.08044 0.88067 0.0
O27 O 0.03145 0.92373 0.09192 0.0
O28 O 0.95482 0.85904 0.09351 0.0
C29 C 0.17322 0.03877 0.13438 0.0
C30 C 0.97987 0.14605 0.08739 0.0
C31 C 0.07683 0.61708 0.39238 0.0
C32 C 0.13133 0.63246 0.36117 0.0
C33 C 0.1639 0.57866 0.38826 0.0
C34 C 0.12762 0.53375 0.43436 0.0
N35 N 0.07437 0.55617 0.43862 0.0
Co36 Co 0.00875 0.50679 0.49738 0.0
N37 N 0.05794 0.44626 0.56444 0.0
C38 C 0.11284 0.43507 0.54651 0.0
C39 C 0.13559 0.38816 0.60194 0.0
C40 C 0.09221 0.36795 0.65777 0.0
C41 C 0.04508 0.40408 0.63332 0.0
N42 N 0.9431 0.45716 0.55581 0.0
C43 C 0.93982 0.41458 0.62596 0.0
C44 C 0.8854 0.39094 0.64557 0.0
C45 C 0.85392 0.4185 0.58432 0.0
C46 C 0.89061 0.45768 0.53131 0.0
N47 N 0.9598 0.56708 0.42974 0.0
C48 C 0.90566 0.55569 0.41816 0.0
C49 C 0.88251 0.60716 0.36895 0.0
C50 C 0.92486 0.65353 0.34778 0.0
C51 C 0.97178 0.62747 0.38522 0.0
N52 N 0.01206 0.44247 0.41578 0.0
C53 C 0.01634 0.3503 0.29921 0.0
C54 C 0.0216 0.42027 0.27537 0.0
C55 C 0.01961 0.46547 0.33461 0.0
C56 C 0.00955 0.3273 0.38243 0.0
C57 C 0.00721 0.37415 0.43961 0.0
N58 N 1.00559 0.57138 0.57856 0.0
C59 C 0.95477 0.65417 0.65132 0.0
C60 C 1.00447 0.67475 0.68141 0.0
C61 C 0.05404 0.63981 0.66229 0.0
C62 C 0.05377 0.58884 0.61057 0.0
C63 C 0.95621 0.6021 0.60033 0.0
H64 H 0.09293 0.56469 0.59487 0.0
H65 H 0.91764 0.58811 0.57662 0.0
H66 H 0.02378 0.51908 0.31457 0.0
H67 H 1.00092 0.35492 0.50311 0.0
C68 C 0.14298 0.47581 0.48387 0.0
C69 C 0.028 0.65793 0.37018 0.0
C70 C 0.98801 0.39066 0.67091 0.0
C71 C 0.87584 0.50289 0.46532 0.0
H72 H 0.14583 0.67737 0.32195 0.0
H73 H 0.20885 0.57384 0.37755 0.0
H74 H 0.17874 0.37147 0.60259 0.0
H75 H 0.09494 0.32951 0.70921 0.0
H76 H 0.87018 0.35658 0.698 0.0
H77 H 0.80932 0.41229 0.58027 0.0
H78 H 0.8395 0.61174 0.35287 0.0
H79 H 0.92168 0.70077 0.30849 0.0
H80 H 0.027 0.43992 0.21146 0.0
H81 H 1.0043 0.27361 0.40322 0.0
H82 H 0.91546 0.67947 0.66468 0.0
H83 H 0.09322 0.65234 0.68615 0.0
C84 C 0.43219 0.91367 0.63449 0.0
C85 C 0.41158 0.8517 0.67277 0.0
C86 C 0.44285 0.80201 0.64007 0.0
C87 C 0.48002 0.83599 0.58293 0.0
N88 N 0.47419 0.90417 0.57728 0.0
Co89 Co 0.51612 0.97207 0.49757 0.0
N90 N 0.54332 0.90005 0.42876 0.0
C91 C 0.53974 0.83223 0.44973 0.0
C92 C 0.55991 0.79472 0.38902 0.0
C93 C 0.57858 0.84165 0.32615 0.0
C94 C 0.56941 0.90539 0.35272 0.0
N95 N 0.55856 0.03997 0.41837 0.0
C96 C 0.58622 0.03283 0.34498 0.0
C97 C 0.61416 0.09271 0.31383 0.0
C98 C 0.60458 0.1381 0.37002 0.0
C99 C 0.57154 0.10384 0.43231 0.0
N100 N 0.48858 0.04345 0.56664 0.0
C101 C 0.51032 0.10628 0.56522 0.0
C102 C 0.48336 0.14388 0.62124 0.0
C103 C 0.44213 0.10193 0.66063 0.0
C104 C 0.44618 0.04103 0.62593 0.0
N105 N 0.58258 0.96024 0.5604 0.0
C106 C 0.67795 0.98206 0.64237 0.0
C107 C 0.62473 0.97832 0.68399 0.0
C108 C 0.57774 0.96612 0.64229 0.0
C109 C 0.68299 0.96819 0.56101 0.0
C110 C 0.63482 0.9573 0.52122 0.0
N111 N 0.44969 0.9864 0.43503 0.0
C112 C 0.38403 0.06446 0.37149 0.0
C113 C 0.3521 0.01042 0.35096 0.0
C114 C 0.37053 0.94376 0.37376 0.0
C115 C 0.41904 0.9329 0.41607 0.0
C116 C 0.4326 0.05144 0.41236 0.0
H117 H 0.43164 0.88125 0.43341 0.0
H118 H 0.456 0.09449 0.42629 0.0
H119 H 0.53717 0.96555 0.67535 0.0
H120 H 0.64003 0.95046 0.45758 0.0
C121 C 0.51178 0.80561 0.52301 0.0
C122 C 0.41222 0.98043 0.65514 0.0
C123 C 0.59438 0.96797 0.3094 0.0
C124 C 0.5496 0.13111 0.50249 0.0
H125 H 0.37688 0.84263 0.71828 0.0
H126 H 0.43671 0.74752 0.65275 0.0
H127 H 0.56041 0.73984 0.38999 0.0
H128 H 0.59879 0.83026 0.26848 0.0
H129 H 0.64083 0.1021 0.25808 0.0
H130 H 0.62036 0.18969 0.36624 0.0
H131 H 0.49146 0.19621 0.63058 0.0
H132 H 0.41284 0.11448 0.70976 0.0
H133 H 0.61932 0.98622 0.74793 0.0
H134 H 0.72355 0.96914 0.52714 0.0
H135 H 0.37158 0.11686 0.35684 0.0
H136 H 0.3483 0.89998 0.35813 0.0
C137 C 0.03394 0.18989 0.19469 0.0
C138 C 0.99552 0.20134 0.13437 0.0
H139 H 0.07077 0.2287 0.29468 0.0
C140 C 0.9688 0.26483 0.12325 0.0
H141 H 0.05537 0.14155 0.20431 0.0
C142 C 0.9779 0.31459 0.1744 0.0
C143 C 0.01354 0.30158 0.238 0.0
H144 H 0.93954 0.27543 0.07647 0.0
H145 H 0.95486 0.36193 0.16671 0.0
C146 C 0.04256 0.2395 0.24655 0.0
C147 C 0.73821 0.92182 0.21831 0.0
C148 C 0.73945 0.95843 0.14068 0.0
H149 H 0.69158 0.89824 0.33363 0.0
C150 C 0.69141 0.99412 0.1163 0.0
H151 H 0.77518 0.89525 0.23893 0.0
C152 C 0.64325 0.99471 0.16956 0.0
C153 C 0.64302 0.96136 0.24892 0.0
H154 H 0.69185 0.02345 0.05687 0.0
H155 H 0.60705 0.02355 0.15013 0.0
C156 C 0.69061 0.924 0.27241 0.0
C157 C 0.02884 0.83503 0.25948 0.0
C158 C 0.02463 0.81973 0.17923 0.0
H159 H 0.03291 0.79394 0.38493 0.0
C160 C 0.03027 0.75237 0.16101 0.0
H161 H 0.02369 0.88685 0.27441 0.0
C162 C 0.03644 0.70007 0.22323 0.0
C163 C 0.03572 0.7146 0.30444 0.0
H164 H 0.02654 0.73988 0.09938 0.0
H165 H 0.03756 0.64782 0.20891 0.0
C166 C 0.03388 0.78231 0.32229 0.0
C167 C 0.25412 0.08931 0.19462 0.0
C168 C 0.21101 0.04061 0.20129 0.0
H169 H 0.33319 0.11683 0.23356 0.0
C170 C 0.21147 0.98593 0.26336 0.0
H171 H 0.25551 0.13142 0.14665 0.0
C172 C 0.25577 0.97784 0.31435 0.0
C173 C 0.30132 0.0236 0.30371 0.0
H174 H 0.17872 0.94759 0.27016 0.0
H175 H 0.25495 0.9345 0.36059 0.0
C176 C 0.29895 0.08062 0.24465 0.0
C177 C 0.05801 0.82795 0.77012 0.0
C178 C 0.01699 0.83636 0.83315 0.0
H179 H 0.08507 0.77242 0.6711 0.0
C180 C 0.96843 0.79595 0.84162 0.0
H181 H 0.09555 0.85921 0.76202 0.0
C182 C 0.96301 0.74438 0.79064 0.0
C183 C 0.00589 0.73341 0.73032 0.0
H184 H 0.93649 0.80155 0.89036 0.0
H185 H 0.92668 0.71124 0.80096 0.0
C186 C 0.05225 0.77768 0.71873 0.0
C187 C 0.27137 0.03085 0.74954 0.0
C188 C 0.27066 0.99594 0.82847 0.0
H189 H 0.31651 0.05168 0.63238 0.0
C190 C 0.31711 0.95664 0.85101 0.0
H191 H 0.23604 0.06179 0.73097 0.0
C192 C 0.3638 0.95292 0.79551 0.0
C193 C 0.3636 0.98578 0.71556 0.0
H194 H 0.31786 0.93038 0.912 0.0
H195 H 0.4 0.92405 0.81487 0.0
C196 C 0.31721 0.02524 0.69331 0.0
C197 C 0.0101 0.28363 0.86713 0.0
C198 C 0.99969 0.21827 0.84548 0.0
H199 H 0.01247 0.39081 0.82835 0.0
C200 C 0.97468 0.21135 0.77274 0.0
H201 H 0.02884 0.28998 0.92358 0.0
C202 C 0.96603 0.26889 0.71813 0.0
C203 C 0.98092 0.3338 0.73693 0.0
H204 H 0.96644 0.16138 0.75494 0.0
H205 H 0.95179 0.26224 0.65875 0.0
C206 C 1.00038 0.34116 0.81333 0.0
C207 C 0.76983 0.07056 0.77599 0.0
C208 C 0.8164 0.02709 0.77929 0.0
H209 H 0.6888 0.08939 0.73076 0.0
C210 C 0.82012 0.97375 0.72929 0.0
H211 H 0.76547 0.11146 0.81461 0.0
C212 C 0.7763 0.96112 0.68145 0.0
C213 C 0.72759 0.00091 0.6838 0.0
H214 H 0.85542 0.93918 0.73109 0.0
H215 H 0.77907 0.91769 0.64664 0.0
C216 C 0.72556 0.05718 0.72919 0.0
loop_
_geom_bond_atom_site_label_1
_geom_bond_atom_site_label_2
_geom_bond_distance
_geom_bond_site_symmetry_2
_ccdc_geom_bond_type
C0 O27 1.312 1_655 S
C0 O28 1.208 . S
C1 O22 1.331 . S
C1 O25 1.244 1_565 S
C2 O24 1.264 1_545 S
C2 O26 1.273 . S
Mg3 O5 1.936 1_565 S
Mg3 O12 2.081 . S
Mg3 O14 2.023 1_556 S
Mg3 O18 2.031 . S
Mg3 O27 2.291 1_556 S
Mg4 O5 1.963 . S
Mg4 O15 1.942 . S
Mg4 O16 1.955 1_556 S
Mg4 O23 1.986 . S
O5 Mg3 1.936 1_545 S
O5 Mg4 1.963 . S
O5 Mg6 1.913 1_556 S
Mg6 O5 1.913 1_554 S
Mg6 O7 1.918 1_455 S
Mg6 O11 2.020 . S
Mg6 O17 2.108 1_444 S
Mg6 O21 2.006 1_454 S
Mg6 O27 2.119 1_545 S
O7 Mg6 1.918 1_655 S
O7 Mg8 1.936 1_545 S
O7 Mg9 1.963 . S
Mg8 O7 1.936 1_565 S
Mg8 O17 2.291 1_554 S
Mg8 O22 2.081 . S
Mg8 O24 2.023 1_554 S
Mg8 O28 2.031 . S
Mg9 O7 1.963 . S
Mg9 O13 1.986 . S
Mg9 O25 1.942 . S
Mg9 O26 1.955 1_554 S
C10 O21 1.191 1_455 S
C10 O23 1.307 . S
O11 Mg6 2.020 . S
O11 C30 1.191 1_455 S
O12 Mg3 2.081 . S
O12 C20 1.331 . S
O13 Mg9 1.986 . S
O13 C30 1.307 . S
O14 Mg3 2.023 1_554 S
O14 C29 1.264 1_565 S
O15 Mg4 1.942 . S
O15 C20 1.244 1_545 S
O16 Mg4 1.955 1_554 S
O16 C29 1.273 . S
O17 Mg6 2.108 1_666 S
O17 Mg8 2.291 1_556 S
O17 C19 1.312 1_655 S
O18 Mg3 2.031 . S
O18 C19 1.208 . S
C19 O17 1.312 1_455 S
C19 O18 1.208 . S
C20 O12 1.331 . S
C20 O15 1.244 1_565 S
O21 Mg6 2.006 1_656 S
O21 C10 1.191 1_655 S
O22 C1 1.331 . S
O22 Mg8 2.081 . S
O23 Mg4 1.986 . S
O23 C10 1.307 . S
O24 C2 1.264 1_565 S
O24 Mg8 2.023 1_556 S
O25 C1 1.244 1_545 S
O25 Mg9 1.942 . S
O26 C2 1.273 . S
O26 Mg9 1.955 1_556 S
O27 C0 1.312 1_455 S
O27 Mg3 2.291 1_554 S
O27 Mg6 2.119 1_565 S
O28 C0 1.208 . S
O28 Mg8 2.031 . S
C29 O14 1.264 1_545 S
C29 O16 1.273 . S
C30 O11 1.191 1_655 S
C30 O13 1.307 . S
C31 C32 1.443 . S
C31 N35 1.376 . S
C31 C69 1.389 . S
C32 C31 1.443 . S
C32 C33 1.340 . S
C32 H72 0.951 . S
C33 C32 1.340 . S
C33 C34 1.439 . S
C33 H73 0.950 . S
C34 C33 1.439 . S
C34 N35 1.374 . S
C34 C68 1.395 . S
N35 C31 1.376 . S
N35 C34 1.374 . S
N35 Co36 2.008 . S
Co36 N35 2.008 . S
Co36 N37 1.995 . S
Co36 N42 2.008 1_455 S
Co36 N47 1.995 1_455 S
Co36 N52 2.282 . S
Co36 N58 2.283 . S
N37 Co36 1.995 . S
N37 C38 1.376 . S
N37 C41 1.383 . S
C38 N37 1.376 . S
C38 C39 1.446 . S
C38 C68 1.391 . S
C39 C38 1.446 . S
C39 C40 1.339 . S
C39 H74 0.949 . S
C40 C39 1.339 . S
C40 C41 1.439 . S
C40 H75 0.950 . S
C41 N37 1.383 . S
C41 C40 1.439 . S
C41 C70 1.392 . S
N42 Co36 2.008 1_655 S
N42 C43 1.376 . S
N42 C46 1.374 . S
C43 N42 1.376 . S
C43 C44 1.443 . S
C43 C70 1.389 1_655 S
C44 C43 1.443 . S
C44 C45 1.340 . S
C44 H76 0.951 . S
C45 C44 1.340 . S
C45 C46 1.439 . S
C45 H77 0.950 . S
C46 N42 1.374 . S
C46 C45 1.439 . S
C46 C71 1.395 . S
N47 Co36 1.995 1_655 S
N47 C48 1.376 . S
N47 C51 1.383 . S
C48 N47 1.376 . S
C48 C49 1.446 . S
C48 C71 1.391 . S
C49 C48 1.446 . S
C49 C50 1.339 . S
C49 H78 0.949 . S
C50 C49 1.339 . S
C50 C51 1.439 . S
C50 H79 0.950 . S
C51 N47 1.383 . S
C51 C50 1.439 . S
C51 C69 1.392 1_655 S
N52 Co36 2.282 . S
N52 C55 1.332 1_455 S
N52 C57 1.332 . S
C53 C54 1.386 1_455 S
C53 C56 1.388 . S
C54 C53 1.386 1_655 S
C54 C55 1.382 . S
C54 H80 0.950 . S
C55 N52 1.332 1_655 S
C55 C54 1.382 . S
C55 H66 0.952 . S
C56 C53 1.388 . S
C56 C57 1.382 . S
C56 H81 0.950 . S
C57 N52 1.332 . S
C57 C56 1.382 . S
C57 H67 0.948 . S
N58 Co36 2.283 . S
N58 C62 1.343 . S
N58 C63 1.322 1_455 S
C59 C60 1.388 1_655 S
C59 C63 1.382 . S
C59 H82 0.950 . S
C60 C59 1.388 1_455 S
C60 C61 1.386 . S
C61 C60 1.386 . S
C61 C62 1.382 . S
C61 H83 0.950 . S
C62 N58 1.343 . S
C62 C61 1.382 . S
C62 H64 0.952 . S
C63 N58 1.322 1_655 S
C63 C59 1.382 . S
C63 H65 0.948 . S
H64 C62 0.952 . S
H65 C63 0.948 . S
H66 C55 0.952 . S
H67 C57 0.948 . S
C68 C34 1.395 . S
C68 C38 1.391 . S
C69 C31 1.389 . S
C69 C51 1.392 1_455 S
C70 C41 1.392 . S
C70 C43 1.389 1_455 S
C71 C46 1.395 . S
C71 C48 1.391 . S
H72 C32 0.951 . S
H73 C33 0.950 . S
H74 C39 0.949 . S
H75 C40 0.950 . S
H76 C44 0.951 . S
H77 C45 0.950 . S
H78 C49 0.949 . S
H79 C50 0.950 . S
H80 C54 0.950 . S
H81 C56 0.950 . S
H82 C59 0.950 . S
H83 C61 0.950 . S
C84 C85 1.443 . S
C84 N88 1.376 . S
C84 C122 1.376 1_565 S
C85 C84 1.443 . S
C85 C86 1.340 . S
C85 H125 0.951 . S
C86 C85 1.340 . S
C86 C87 1.439 . S
C86 H126 0.950 . S
C87 C86 1.439 . S
C87 N88 1.374 . S
C87 C121 1.395 . S
N88 C84 1.376 . S
N88 C87 1.374 . S
N88 Co89 2.008 1_565 S
Co89 N88 2.008 1_545 S
Co89 N90 1.995 1_545 S
Co89 N95 2.008 . S
Co89 N100 1.995 . S
Co89 N105 2.282 1_545 S
Co89 N111 2.282 . S
N90 Co89 1.995 1_565 S
N90 C91 1.376 . S
N90 C94 1.383 . S
C91 N90 1.376 . S
C91 C92 1.446 . S
C91 C121 1.391 . S
C92 C91 1.446 . S
C92 C93 1.339 . S
C92 H127 0.949 . S
C93 C92 1.339 . S
C93 C94 1.439 . S
C93 H128 0.950 . S
C94 N90 1.383 . S
C94 C93 1.439 . S
C94 C123 1.392 1_565 S
N95 Co89 2.008 . S
N95 C96 1.376 . S
N95 C99 1.374 . S
C96 N95 1.376 . S
C96 C97 1.443 . S
C96 C123 1.389 . S
C97 C96 1.443 . S
C97 C98 1.340 . S
C97 H129 0.951 . S
C98 C97 1.340 . S
C98 C99 1.439 . S
C98 H130 0.950 . S
C99 N95 1.374 . S
C99 C98 1.439 . S
C99 C124 1.395 . S
N100 Co89 1.995 . S
N100 C101 1.376 . S
N100 C104 1.383 . S
C101 N100 1.376 . S
C101 C102 1.446 . S
C101 C124 1.391 . S
C102 C101 1.446 . S
C102 C103 1.339 . S
C102 H131 0.949 . S
C103 C102 1.339 . S
C103 C104 1.439 . S
C103 H132 0.950 . S
C104 N100 1.383 . S
C104 C103 1.439 . S
C104 C122 1.404 . S
N105 Co89 2.282 1_565 S
N105 C108 1.332 1_565 S
N105 C110 1.332 . S
C106 C107 1.399 . S
C106 C109 1.373 1_545 S
C107 C106 1.399 . S
C107 C108 1.382 . S
C107 H133 0.950 . S
C108 N105 1.332 1_545 S
C108 C107 1.382 . S
C108 H119 0.952 . S
C109 C106 1.373 1_565 S
C109 C110 1.382 . S
C109 H134 0.950 . S
C110 N105 1.332 . S
C110 C109 1.382 . S
C110 H120 0.948 . S
N111 Co89 2.282 . S
N111 C115 1.332 1_545 S
N111 C116 1.332 . S
C112 C113 1.388 . S
C112 C116 1.382 . S
C112 H135 0.950 . S
C113 C112 1.388 . S
C113 C114 1.386 1_545 S
C114 C113 1.386 1_565 S
C114 C115 1.382 . S
C114 H136 0.950 . S
C115 N111 1.332 1_565 S
C115 C114 1.382 . S
C115 H117 0.952 . S
C116 N111 1.332 . S
C116 C112 1.382 . S
C116 H118 0.948 . S
H117 C115 0.952 . S
H118 C116 0.948 . S
H119 C108 0.952 . S
H120 C110 0.948 . S
C121 C87 1.395 . S
C121 C91 1.391 . S
C122 C84 1.376 1_545 S
C122 C104 1.404 . S
C123 C94 1.392 1_545 S
C123 C96 1.389 . S
C124 C99 1.395 . S
C124 C101 1.391 . S
H125 C85 0.951 . S
H126 C86 0.950 . S
H127 C92 0.949 . S
H128 C93 0.950 . S
H129 C97 0.951 . S
H130 C98 0.950 . S
H131 C102 0.949 . S
H132 C103 0.950 . S
H133 C107 0.950 . S
H134 C109 0.950 . S
H135 C112 0.950 . S
H136 C114 0.950 . S
C137 C138 1.394 . S
C137 H141 0.950 . S
C137 C146 1.390 . S
C138 C137 1.394 . S
C138 C140 1.381 1_455 S
H139 C146 0.950 . S
C140 C138 1.381 1_655 S
C140 C142 1.390 . S
C140 H144 0.950 . S
H141 C137 0.950 . S
C142 C140 1.390 . S
C142 C143 1.387 1_655 S
C142 H145 0.950 . S
C143 C142 1.387 1_455 S
C143 C146 1.387 . S
H144 C140 0.950 . S
H145 C142 0.950 . S
C146 C137 1.390 . S
C146 H139 0.950 . S
C146 C143 1.387 . S
C147 C148 1.387 . S
C147 H151 0.950 . S
C147 C156 1.390 . S
C148 C147 1.387 . S
C148 C150 1.387 1_565 S
H149 C156 0.950 . S
C150 C148 1.387 1_545 S
C150 C152 1.390 . S
C150 H154 0.950 . S
H151 C147 0.950 . S
C152 C150 1.390 . S
C152 C153 1.387 1_545 S
C152 H155 0.950 . S
C153 C152 1.387 1_565 S
C153 C156 1.387 . S
H154 C150 0.950 . S
H155 C152 0.950 . S
C156 C147 1.390 . S
C156 H149 0.950 . S
C156 C153 1.387 . S
C157 C158 1.387 . S
C157 H161 0.950 . S
C157 C166 1.390 . S
C158 C157 1.387 . S
C158 C160 1.387 1_455 S
H159 C166 0.950 . S
C160 C158 1.387 1_655 S
C160 C162 1.390 . S
C160 H164 0.950 . S
H161 C157 0.950 . S
C162 C160 1.390 . S
C162 C163 1.387 1_655 S
C162 H165 0.950 . S
C163 C162 1.387 1_455 S
C163 C166 1.387 . S
H164 C160 0.950 . S
H165 C162 0.950 . S
C166 C157 1.390 . S
C166 H159 0.950 . S
C166 C163 1.387 . S
C167 C168 1.387 . S
C167 H171 0.950 . S
C167 C176 1.390 . S
C168 C167 1.387 . S
C168 C170 1.387 1_545 S
H169 C176 0.950 . S
C170 C168 1.387 1_565 S
C170 C172 1.390 . S
C170 H174 0.950 . S
H171 C167 0.950 . S
C172 C170 1.390 . S
C172 C173 1.387 1_565 S
C172 H175 0.950 . S
C173 C172 1.387 1_545 S
C173 C176 1.387 . S
H174 C170 0.950 . S
H175 C172 0.950 . S
C176 C167 1.390 . S
C176 H169 0.950 . S
C176 C173 1.387 . S
C177 C178 1.387 . S
C177 H181 0.950 . S
C177 C186 1.390 . S
C178 C177 1.387 . S
C178 C180 1.387 1_455 S
H179 C186 0.950 . S
C180 C178 1.387 1_655 S
C180 C182 1.390 . S
C180 H184 0.950 . S
H181 C177 0.950 . S
C182 C180 1.390 . S
C182 C183 1.387 1_655 S
C182 H185 0.950 . S
C183 C182 1.387 1_455 S
C183 C186 1.387 . S
H184 C180 0.950 . S
H185 C182 0.950 . S
C186 C177 1.390 . S
C186 H179 0.950 . S
C186 C183 1.387 . S
C187 C188 1.387 1_545 S
C187 H191 0.950 . S
C187 C196 1.390 . S
C188 C187 1.387 1_565 S
C188 C190 1.387 . S
H189 C196 0.950 . S
C190 C188 1.387 . S
C190 C192 1.390 . S
C190 H194 0.950 . S
H191 C187 0.950 . S
C192 C190 1.390 . S
C192 C193 1.387 1_565 S
C192 H195 0.950 . S
C193 C192 1.387 1_545 S
C193 C196 1.388 . S
H194 C190 0.950 . S
H195 C192 0.950 . S
C196 C187 1.390 . S
C196 H189 0.950 . S
C196 C193 1.388 . S
C197 C198 1.387 1_655 S
C197 H201 0.950 . S
C197 C206 1.390 . S
C198 C197 1.387 1_455 S
C198 C200 1.387 . S
H199 C206 0.950 . S
C200 C198 1.387 . S
C200 C202 1.390 . S
C200 H204 0.950 . S
H201 C197 0.950 . S
C202 C200 1.390 . S
C202 C203 1.387 . S
C202 H205 0.950 . S
C203 C202 1.387 . S
C203 C206 1.387 1_455 S
H204 C200 0.950 . S
H205 C202 0.950 . S
C206 C197 1.390 . S
C206 H199 0.950 . S
C206 C203 1.387 1_655 S
C207 C208 1.387 . S
C207 H211 0.950 . S
C207 C216 1.390 . S
C208 C207 1.387 . S
C208 C210 1.387 1_545 S
H209 C216 0.950 . S
C210 C208 1.387 1_565 S
C210 C212 1.390 . S
C210 H214 0.950 . S
H211 C207 0.950 . S
C212 C210 1.390 . S
C212 C213 1.387 1_565 S
C212 H215 0.950 . S
C213 C212 1.387 1_545 S
C213 C216 1.387 . S
H214 C210 0.950 . S
H215 C212 0.950 . S
C216 C207 1.390 . S
C216 H209 0.950 . S
C216 C213 1.387 . S
C138 C30 1.357 1_455 S
C143 C53 1.383 . S
C148 C1 1.574 . S
C153 C123 1.622 1_565 S
C158 C0 1.453 1_455 S
C163 C69 1.518 . S
C168 C29 1.479 . S
C173 C113 1.508 . S
C178 C19 1.353 . S
C183 C60 1.396 . S
C188 C20 1.566 . S
C193 C122 1.601 . S
C203 C70 1.509 . S
C198 C10 1.473 . S
C208 C2 1.490 . S
C213 C106 1.527 . S
