# Generated by pormake.
# Topology bcu-b, (8,8)-cn, num edge types: 1
# Building blocks:
#     Node 0, Type 0, BuildingBlock: TAGTUT_clean_sbu_3, # of connection points: 8
#     Node 1, Type 1, BuildingBlock: TAGTUT_clean_sbu_1, # of connection points: 8
#     Edge 2, Type (0, 1), BuildingBlock: CIFDUS_clean_linker_0, # of connection points: 2
#     Edge 3, Type (0, 1), BuildingBlock: CIFDUS_clean_linker_0, # of connection points: 2
#     Edge 4, Type (0, 1), BuildingBlock: CIFDUS_clean_linker_0, # of connection points: 2
#     Edge 5, Type (0, 1), BuildingBlock: CIFDUS_clean_linker_0, # of connection points: 2
#     Edge 6, Type (0, 1), BuildingBlock: CIFDUS_clean_linker_0, # of connection points: 2
#     Edge 7, Type (0, 1), BuildingBlock: CIFDUS_clean_linker_0, # of connection points: 2
#     Edge 8, Type (0, 1), BuildingBlock: CIFDUS_clean_linker_0, # of connection points: 2
#     Edge 9, Type (0, 1), BuildingBlock: CIFDUS_clean_linker_0, # of connection points: 2
# Relax obj value: 0.014
# Max RMSD: 0.082
# Mean RMSD: 0.071
data_MOF--net-bcu-b--node1-TAGTUT_clean_sbu_3--node2-TAGTUT_clean_sbu_1--edge1-CIFDUS_clean_linker_0
_symmetry_space_group_name_H-M    P1
_symmetry_Int_Tables_number       1
_symmetry_cell_setting            triclinic
loop_
_symmetry_equiv_pos_as_xyz
'x, y, z'
_cell_length_a     17.231832
_cell_length_b     17.13708
_cell_length_c     19.062304
_cell_angle_alpha  90.36671
_cell_angle_beta   89.53635
_cell_angle_gamma 107.97303
loop_
_atom_site_label
_atom_site_type_symbol
_atom_site_fract_x
_atom_site_fract_y
_atom_site_fract_z
_atom_type_partial_charge
C0 C 0.13844 0.10114 0.10506 0.0
C1 C 0.23593 0.83774 0.03825 0.0
C2 C 0.16009 0.88709 0.83372 0.0
Mg3 Mg 0.99694 0.16135 0.02461 0.0
Mg4 Mg 0.83802 0.01312 0.96699 0.0
O5 O 0.95128 0.06601 0.95997 0.0
Mg6 Mg 0.02205 -0.00276 -0.01591 0.0
O7 O 0.09657 0.93274 0.00913 0.0
Mg8 Mg 0.20364 0.00994 0.9767 0.0
Mg9 Mg 0.06835 0.82739 0.9689 0.0
C10 C 0.89604 0.89155 0.8672 0.0
O11 O 0.92193 0.90081 0.04579 0.0
O12 O 0.91067 0.22221 0.96295 0.0
O13 O 0.94604 0.78304 0.01495 0.0
O14 O 0.89762 0.11638 0.10684 0.0
O15 O 0.80587 0.1143 0.92673 0.0
O16 O 0.79655 0.00622 0.0754 0.0
O17 O 0.12803 0.08593 0.92507 0.0
O18 O 0.10076 0.20315 0.94375 0.0
C19 C 0.14497 0.16331 0.91558 0.0
C20 C 0.84165 0.19166 0.93128 0.0
O21 O 0.97009 0.92054 0.88779 0.0
O22 O 0.26234 0.91639 0.02987 0.0
O23 O 0.83644 0.91133 0.89533 0.0
O24 O 0.20385 0.94522 0.87182 0.0
O25 O 0.16489 0.79433 0.01795 0.0
O26 O 0.0948 0.83592 0.85763 0.0
O27 O 0.06795 0.08049 0.07693 0.0
O28 O 0.19645 0.07681 0.08014 0.0
C29 C 0.83132 0.06038 0.12097 0.0
C30 C 0.90325 0.82204 0.0471 0.0
C31 C 0.35246 0.6953 0.52933 0.0
C32 C 0.46057 0.66739 0.3302 0.0
C33 C 0.37577 0.3433 0.41528 0.0
Mg34 Mg 0.52421 0.68913 0.48221 0.0
O35 O 0.47286 0.57706 0.49654 0.0
Mg36 Mg 0.36531 0.52298 0.45169 0.0
Mg37 Mg 0.52534 0.49011 0.47856 0.0
O38 O 0.57572 0.40147 0.46229 0.0
Mg39 Mg 0.51891 0.2962 0.49605 0.0
Mg40 Mg 0.6867 0.45629 0.50089 0.0
C41 C 0.67046 0.63777 0.55361 0.0
C42 C 0.66477 0.54919 0.35807 0.0
O43 O 0.32144 0.62538 0.49961 0.0
O44 O 0.42987 0.73068 0.53197 0.0
O45 O 0.40496 0.60225 0.35048 0.0
O46 O 0.51715 0.70791 0.3713 0.0
O47 O 0.63865 0.69361 0.53563 0.0
O48 O 0.63621 0.56156 0.53958 0.0
C49 C 0.38038 0.42357 0.59362 0.0
O50 O 0.45406 0.42812 0.57728 0.0
O51 O 0.33636 0.45293 0.55426 0.0
O52 O 0.71787 0.34178 0.45543 0.0
O53 O 0.5998 0.23834 0.44636 0.0
O54 O 0.65882 0.39372 0.60677 0.0
C55 C 0.67712 0.26804 0.43681 0.0
O56 O 0.53869 0.29595 0.6092 0.0
O57 O 0.40202 0.28865 0.44464 0.0
C58 C 0.60386 0.33899 0.6398 0.0
O59 O 0.41686 0.41971 0.41599 0.0
O60 O 0.59448 0.55088 0.37916 0.0
O61 O 0.70897 0.51736 0.39467 0.0
H62 H 0.17593 0.26108 0.14162 0.0
H63 H 0.12705 0.01749 0.22473 0.0
H64 H 0.18094 0.07378 0.33878 0.0
H65 H 0.26787 0.19027 0.40454 0.0
H66 H 0.32411 0.43443 0.31935 0.0
H67 H 0.23906 0.38069 0.21792 0.0
C68 C 0.1747 0.22095 0.1857 0.0
C69 C 0.14865 0.13585 0.1757 0.0
C70 C 0.20798 0.25384 0.2504 0.0
C71 C 0.14728 0.08346 0.23216 0.0
C72 C 0.1784 0.11556 0.29703 0.0
C73 C 0.25976 0.23206 0.36478 0.0
C74 C 0.30455 0.31567 0.36835 0.0
C75 C 0.21298 0.20048 0.30543 0.0
C76 C 0.2916 0.36938 0.31736 0.0
C77 C 0.24339 0.33866 0.25886 0.0
H78 H 0.90316 0.14535 0.23507 0.0
H79 H 0.67021 -0.00837 0.15982 0.0
H80 H 0.60203 0.03391 0.2598 0.0
H81 H 0.60753 0.13288 0.35577 0.0
H82 H 0.84109 0.29396 0.42353 0.0
H83 H 0.91013 0.23034 0.33904 0.0
C84 C 0.83748 0.11989 0.24097 0.0
C85 C 0.79161 0.06695 0.18908 0.0
C86 C 0.79876 0.14702 0.29662 0.0
C87 C 0.70692 0.03303 0.19859 0.0
C88 C 0.66789 0.05785 0.25544 0.0
C89 C 0.67364 0.153 0.35317 0.0
C90 C 0.71902 0.2192 0.39533 0.0
C91 C 0.71295 0.11774 0.30285 0.0
C92 C 0.8046 0.24409 0.39121 0.0
C93 C 0.84414 0.20774 0.34283 0.0
H94 H 0.86404 0.66071 0.08143 0.0
H95 H 0.79589 0.87804 0.12374 0.0
H96 H 0.70442 0.80812 0.21701 0.0
H97 H 0.65926 0.69103 0.29828 0.0
H98 H 0.74187 0.48055 0.26409 0.0
H99 H 0.81184 0.54121 0.1565 0.0
C100 C 0.82815 0.69256 0.11001 0.0
C101 C 0.83706 0.77512 0.095 0.0
C102 C 0.77899 0.65305 0.16626 0.0
C103 C 0.78993 0.81479 0.13321 0.0
C104 C 0.73803 0.77482 0.18733 0.0
C105 C 0.69133 0.65812 0.26635 0.0
C106 C 0.69626 0.58208 0.28893 0.0
C107 C 0.73432 0.69488 0.20601 0.0
C108 C 0.73834 0.53983 0.24778 0.0
C109 C 0.77826 0.57438 0.18634 0.0
H110 H 0.38008 0.90169 0.111 0.0
H111 H 0.20226 0.67267 0.05079 0.0
H112 H 0.26495 0.59794 0.12765 0.0
H113 H 0.35669 0.59832 0.22437 0.0
H114 H 0.53639 0.82496 0.28584 0.0
H115 H 0.48851 0.89836 0.19497 0.0
C116 C 0.35599 0.83538 0.11374 0.0
C117 C 0.28496 0.79366 0.0763 0.0
C118 C 0.39251 0.79173 0.15867 0.0
C119 C 0.25558 0.70729 0.07996 0.0
C120 C 0.29153 0.66396 0.12396 0.0
C121 C 0.38677 0.66343 0.21695 0.0
C122 C 0.44867 0.70603 0.26317 0.0
C123 C 0.358 0.70573 0.16549 0.0
C124 C 0.48786 0.7903 0.25168 0.0
C125 C 0.46 0.83274 0.19998 0.0
H126 H 0.10041 0.75875 0.74298 0.0
H127 H 0.29492 0.98697 0.76775 0.0
H128 H 0.36794 0.95214 0.66889 0.0
H129 H 0.38683 0.84779 0.58775 0.0
H130 H 0.19251 0.61962 0.56262 0.0
H131 H 0.10939 0.6643 0.64807 0.0
C132 C 0.15787 0.80166 0.72584 0.0
C133 C 0.19298 0.87414 0.76412 0.0
C134 C 0.20049 0.78093 0.66922 0.0
C135 C 0.26698 0.92974 0.7403 0.0
C136 C 0.30917 0.9099 0.68372 0.0
C137 C 0.32578 0.80843 0.60002 0.0
C138 C 0.29697 0.72985 0.56988 0.0
C139 C 0.27821 0.83407 0.64982 0.0
C140 C 0.21695 0.68022 0.58547 0.0
C141 C 0.16921 0.7055 0.63468 0.0
H142 H 0.177 0.31882 0.86938 0.0
H143 H 0.25361 0.10334 0.84276 0.0
H144 H 0.34136 0.16831 0.74418 0.0
H145 H 0.38472 0.28194 0.65742 0.0
H146 H 0.29714 0.49077 0.68208 0.0
H147 H 0.22561 0.43308 0.78958 0.0
C148 C 0.21353 0.28606 0.84283 0.0
C149 C 0.20773 0.20572 0.86309 0.0
C150 C 0.26152 0.32266 0.78518 0.0
C151 C 0.25613 0.16486 0.82793 0.0
C152 C 0.30623 0.20199 0.77137 0.0
C153 C 0.35107 0.31505 0.68722 0.0
C154 C 0.34568 0.39016 0.66198 0.0
C155 C 0.30768 0.28012 0.74825 0.0
C156 C 0.30128 0.43241 0.70034 0.0
C157 C 0.26048 0.39957 0.7618 0.0
H158 H 0.68239 0.15404 0.89701 0.0
H159 H 0.91151 0.34809 0.88087 0.0
H160 H 0.85041 0.41993 0.79738 0.0
H161 H 0.74009 0.41463 0.71517 0.0
H162 H 0.51498 0.21386 0.72491 0.0
H163 H 0.56601 0.1584 0.82619 0.0
C164 C 0.71889 0.21271 0.87605 0.0
C165 C 0.80209 0.24482 0.89393 0.0
C166 C 0.68417 0.25195 0.82659 0.0
C167 C 0.84769 0.32177 0.86767 0.0
C168 C 0.81283 0.36248 0.81957 0.0
C169 C 0.70129 0.35946 0.74006 0.0
C170 C 0.62438 0.31726 0.7111 0.0
C171 C 0.73229 0.32622 0.79645 0.0
C172 C 0.57466 0.24698 0.74525 0.0
C173 C 0.60409 0.21497 0.80295 0.0
H174 H 0.82872 0.72772 0.84427 0.0
H175 H 0.93074 0.9599 0.74067 0.0
H176 H 0.88421 0.89626 0.62713 0.0
H177 H 0.79281 0.78081 0.56231 0.0
H178 H 0.69101 0.54768 0.66484 0.0
H179 H 0.762 0.60383 0.77289 0.0
C180 C 0.84214 0.76338 0.79638 0.0
C181 C 0.88135 0.8481 0.79999 0.0
C182 C 0.81547 0.7262 0.73126 0.0
C183 C 0.89975 0.89446 0.73831 0.0
C184 C 0.87319 0.85821 0.67362 0.0
C185 C 0.78874 0.74164 0.60759 0.0
C186 C 0.73594 0.66089 0.60611 0.0
C187 C 0.82794 0.77495 0.66997 0.0
C188 C 0.73156 0.61014 0.66465 0.0
C189 C 0.77108 0.64262 0.72693 0.0
loop_
_geom_bond_atom_site_label_1
_geom_bond_atom_site_label_2
_geom_bond_distance
_geom_bond_site_symmetry_2
_ccdc_geom_bond_type
C0 O27 1.312 . S
C0 O28 1.208 . S
C1 O22 1.331 . S
C1 O25 1.244 . S
C2 O24 1.264 . S
C2 O26 1.273 . S
Mg3 O5 1.936 1_454 S
Mg3 O12 2.081 1_454 S
Mg3 O14 2.023 1_455 S
Mg3 O18 2.031 1_554 S
Mg3 O27 2.291 . S
Mg4 O5 1.963 . S
Mg4 O15 1.942 . S
Mg4 O16 1.955 1_556 S
Mg4 O23 1.986 1_545 S
O5 Mg3 1.936 1_656 S
O5 Mg4 1.963 . S
O5 Mg6 1.915 1_546 S
Mg6 O5 1.915 1_564 S
Mg6 O7 1.915 1_655 S
Mg6 O11 2.013 . S
Mg6 O17 2.114 1_664 S
Mg6 O21 2.013 1_554 S
Mg6 O27 2.114 1_665 S
O7 Mg6 1.915 1_455 S
O7 Mg8 1.936 1_565 S
O7 Mg9 1.963 . S
Mg8 O7 1.936 1_545 S
Mg8 O17 2.291 1_554 S
Mg8 O22 2.081 1_545 S
Mg8 O24 2.023 1_544 S
Mg8 O28 2.031 . S
Mg9 O7 1.963 . S
Mg9 O13 1.986 1_455 S
Mg9 O25 1.942 . S
Mg9 O26 1.955 1_554 S
C10 O21 1.191 . S
C10 O23 1.307 . S
O11 Mg6 2.013 . S
O11 C30 1.191 . S
O12 Mg3 2.081 1_656 S
O12 C20 1.331 . S
O13 Mg9 1.986 1_655 S
O13 C30 1.307 . S
O14 Mg3 2.023 1_655 S
O14 C29 1.264 . S
O15 Mg4 1.942 . S
O15 C20 1.244 . S
O16 Mg4 1.955 1_554 S
O16 C29 1.273 . S
O17 Mg6 2.114 1_446 S
O17 Mg8 2.291 1_556 S
O17 C19 1.312 . S
O18 Mg3 2.031 1_556 S
O18 C19 1.208 . S
C19 O17 1.312 . S
C19 O18 1.208 . S
C20 O12 1.331 . S
C20 O15 1.244 . S
O21 Mg6 2.013 1_556 S
O21 C10 1.191 . S
O22 C1 1.331 . S
O22 Mg8 2.081 1_565 S
O23 Mg4 1.986 1_565 S
O23 C10 1.307 . S
O24 C2 1.264 . S
O24 Mg8 2.023 1_566 S
O25 C1 1.244 . S
O25 Mg9 1.942 . S
O26 C2 1.273 . S
O26 Mg9 1.955 1_556 S
O27 C0 1.312 . S
O27 Mg3 2.291 . S
O27 Mg6 2.114 1_445 S
O28 C0 1.208 . S
O28 Mg8 2.031 . S
C29 O14 1.264 . S
C29 O16 1.273 . S
C30 O11 1.191 . S
C30 O13 1.307 . S
C31 O43 1.241 . S
C31 O44 1.280 . S
C32 O45 1.277 . S
C32 O46 1.245 . S
C33 O57 1.247 . S
C33 O59 1.289 . S
Mg34 O35 1.926 . S
Mg34 O44 1.984 . S
Mg34 O46 1.988 . S
Mg34 O47 2.061 . S
O35 Mg34 1.926 . S
O35 Mg36 1.986 . S
O35 Mg37 1.917 . S
Mg36 O35 1.986 . S
Mg36 O43 2.042 . S
Mg36 O45 2.041 . S
Mg36 O51 2.038 . S
Mg36 O59 2.238 . S
Mg37 O35 1.917 . S
Mg37 O38 1.917 . S
Mg37 O48 2.106 . S
Mg37 O50 2.079 . S
Mg37 O59 2.106 . S
Mg37 O60 2.079 . S
O38 Mg37 1.917 . S
O38 Mg39 1.926 . S
O38 Mg40 1.986 . S
Mg39 O38 1.926 . S
Mg39 O53 1.984 . S
Mg39 O56 1.988 . S
Mg39 O57 2.061 . S
Mg40 O38 1.986 . S
Mg40 O48 2.238 . S
Mg40 O52 2.042 . S
Mg40 O54 2.041 . S
Mg40 O61 2.038 . S
C41 O47 1.247 . S
C41 O48 1.289 . S
C42 O60 1.245 . S
C42 O61 1.274 . S
O43 C31 1.241 . S
O43 Mg36 2.042 . S
O44 C31 1.280 . S
O44 Mg34 1.984 . S
O45 C32 1.277 . S
O45 Mg36 2.041 . S
O46 C32 1.245 . S
O46 Mg34 1.988 . S
O47 Mg34 2.061 . S
O47 C41 1.247 . S
O48 Mg37 2.106 . S
O48 Mg40 2.238 . S
O48 C41 1.289 . S
C49 O50 1.245 . S
C49 O51 1.274 . S
O50 Mg37 2.079 . S
O50 C49 1.245 . S
O51 Mg36 2.038 . S
O51 C49 1.274 . S
O52 Mg40 2.042 . S
O52 C55 1.241 . S
O53 Mg39 1.984 . S
O53 C55 1.280 . S
O54 Mg40 2.041 . S
O54 C58 1.277 . S
C55 O52 1.241 . S
C55 O53 1.280 . S
O56 Mg39 1.988 . S
O56 C58 1.245 . S
O57 C33 1.247 . S
O57 Mg39 2.061 . S
C58 O54 1.277 . S
C58 O56 1.245 . S
O59 C33 1.289 . S
O59 Mg36 2.238 . S
O59 Mg37 2.106 . S
O60 Mg37 2.079 . S
O60 C42 1.245 . S
O61 Mg40 2.038 . S
O61 C42 1.274 . S
H62 C68 0.930 . S
H63 C71 0.930 . S
H64 C72 0.930 . S
H65 C73 0.930 . S
H66 C76 0.930 . S
H67 C77 0.930 . S
C68 H62 0.930 . S
C68 C69 1.355 . S
C68 C70 1.415 . S
C69 C68 1.355 . S
C69 C71 1.419 . S
C70 C68 1.415 . S
C70 C75 1.425 . S
C70 C77 1.409 . S
C71 H63 0.930 . S
C71 C69 1.419 . S
C71 C72 1.362 . S
C72 H64 0.930 . S
C72 C71 1.362 . S
C72 C75 1.409 . S
C73 H65 0.930 . S
C73 C74 1.355 . S
C73 C75 1.415 . S
C74 C73 1.355 . S
C74 C76 1.419 . S
C75 C70 1.425 . S
C75 C72 1.409 . S
C75 C73 1.415 . S
C76 H66 0.930 . S
C76 C74 1.419 . S
C76 C77 1.362 . S
C77 H67 0.930 . S
C77 C70 1.409 . S
C77 C76 1.362 . S
H78 C84 0.930 . S
H79 C87 0.930 . S
H80 C88 0.930 . S
H81 C89 0.930 . S
H82 C92 0.930 . S
H83 C93 0.930 . S
C84 H78 0.930 . S
C84 C85 1.355 . S
C84 C86 1.415 . S
C85 C84 1.355 . S
C85 C87 1.419 . S
C86 C84 1.415 . S
C86 C91 1.425 . S
C86 C93 1.409 . S
C87 H79 0.930 . S
C87 C85 1.419 . S
C87 C88 1.362 . S
C88 H80 0.930 . S
C88 C87 1.362 . S
C88 C91 1.409 . S
C89 H81 0.930 . S
C89 C90 1.355 . S
C89 C91 1.415 . S
C90 C89 1.355 . S
C90 C92 1.419 . S
C91 C86 1.425 . S
C91 C88 1.409 . S
C91 C89 1.415 . S
C92 H82 0.930 . S
C92 C90 1.419 . S
C92 C93 1.362 . S
C93 H83 0.930 . S
C93 C86 1.409 . S
C93 C92 1.362 . S
H94 C100 0.930 . S
H95 C103 0.930 . S
H96 C104 0.930 . S
H97 C105 0.930 . S
H98 C108 0.930 . S
H99 C109 0.930 . S
C100 H94 0.930 . S
C100 C101 1.355 . S
C100 C102 1.415 . S
C101 C100 1.355 . S
C101 C103 1.419 . S
C102 C100 1.415 . S
C102 C107 1.425 . S
C102 C109 1.409 . S
C103 H95 0.930 . S
C103 C101 1.419 . S
C103 C104 1.362 . S
C104 H96 0.930 . S
C104 C103 1.362 . S
C104 C107 1.409 . S
C105 H97 0.930 . S
C105 C106 1.355 . S
C105 C107 1.415 . S
C106 C105 1.355 . S
C106 C108 1.419 . S
C107 C102 1.425 . S
C107 C104 1.409 . S
C107 C105 1.415 . S
C108 H98 0.930 . S
C108 C106 1.419 . S
C108 C109 1.362 . S
C109 H99 0.930 . S
C109 C102 1.409 . S
C109 C108 1.362 . S
H110 C116 0.930 . S
H111 C119 0.930 . S
H112 C120 0.930 . S
H113 C121 0.930 . S
H114 C124 0.930 . S
H115 C125 0.930 . S
C116 H110 0.930 . S
C116 C117 1.355 . S
C116 C118 1.415 . S
C117 C116 1.355 . S
C117 C119 1.419 . S
C118 C116 1.415 . S
C118 C123 1.425 . S
C118 C125 1.409 . S
C119 H111 0.930 . S
C119 C117 1.419 . S
C119 C120 1.362 . S
C120 H112 0.930 . S
C120 C119 1.362 . S
C120 C123 1.409 . S
C121 H113 0.930 . S
C121 C122 1.355 . S
C121 C123 1.415 . S
C122 C121 1.355 . S
C122 C124 1.419 . S
C123 C118 1.425 . S
C123 C120 1.409 . S
C123 C121 1.415 . S
C124 H114 0.930 . S
C124 C122 1.419 . S
C124 C125 1.362 . S
C125 H115 0.930 . S
C125 C118 1.409 . S
C125 C124 1.362 . S
H126 C132 0.930 . S
H127 C135 0.930 . S
H128 C136 0.930 . S
H129 C137 0.930 . S
H130 C140 0.930 . S
H131 C141 0.930 . S
C132 H126 0.930 . S
C132 C133 1.355 . S
C132 C134 1.415 . S
C133 C132 1.355 . S
C133 C135 1.419 . S
C134 C132 1.415 . S
C134 C139 1.425 . S
C134 C141 1.409 . S
C135 H127 0.930 . S
C135 C133 1.419 . S
C135 C136 1.362 . S
C136 H128 0.930 . S
C136 C135 1.362 . S
C136 C139 1.409 . S
C137 H129 0.930 . S
C137 C138 1.355 . S
C137 C139 1.415 . S
C138 C137 1.355 . S
C138 C140 1.419 . S
C139 C134 1.425 . S
C139 C136 1.409 . S
C139 C137 1.415 . S
C140 H130 0.930 . S
C140 C138 1.419 . S
C140 C141 1.362 . S
C141 H131 0.930 . S
C141 C134 1.409 . S
C141 C140 1.362 . S
H142 C148 0.930 . S
H143 C151 0.930 . S
H144 C152 0.930 . S
H145 C153 0.930 . S
H146 C156 0.930 . S
H147 C157 0.930 . S
C148 H142 0.930 . S
C148 C149 1.355 . S
C148 C150 1.415 . S
C149 C148 1.355 . S
C149 C151 1.419 . S
C150 C148 1.415 . S
C150 C155 1.425 . S
C150 C157 1.409 . S
C151 H143 0.930 . S
C151 C149 1.419 . S
C151 C152 1.362 . S
C152 H144 0.930 . S
C152 C151 1.362 . S
C152 C155 1.409 . S
C153 H145 0.930 . S
C153 C154 1.355 . S
C153 C155 1.415 . S
C154 C153 1.355 . S
C154 C156 1.419 . S
C155 C150 1.425 . S
C155 C152 1.409 . S
C155 C153 1.415 . S
C156 H146 0.930 . S
C156 C154 1.419 . S
C156 C157 1.362 . S
C157 H147 0.930 . S
C157 C150 1.409 . S
C157 C156 1.362 . S
H158 C164 0.930 . S
H159 C167 0.930 . S
H160 C168 0.930 . S
H161 C169 0.930 . S
H162 C172 0.930 . S
H163 C173 0.930 . S
C164 H158 0.930 . S
C164 C165 1.355 . S
C164 C166 1.415 . S
C165 C164 1.355 . S
C165 C167 1.419 . S
C166 C164 1.415 . S
C166 C171 1.425 . S
C166 C173 1.409 . S
C167 H159 0.930 . S
C167 C165 1.419 . S
C167 C168 1.362 . S
C168 H160 0.930 . S
C168 C167 1.362 . S
C168 C171 1.409 . S
C169 H161 0.930 . S
C169 C170 1.355 . S
C169 C171 1.415 . S
C170 C169 1.355 . S
C170 C172 1.419 . S
C171 C166 1.425 . S
C171 C168 1.409 . S
C171 C169 1.415 . S
C172 H162 0.930 . S
C172 C170 1.419 . S
C172 C173 1.362 . S
C173 H163 0.930 . S
C173 C166 1.409 . S
C173 C172 1.362 . S
H174 C180 0.930 . S
H175 C183 0.930 . S
H176 C184 0.930 . S
H177 C185 0.930 . S
H178 C188 0.930 . S
H179 C189 0.930 . S
C180 H174 0.930 . S
C180 C181 1.355 . S
C180 C182 1.415 . S
C181 C180 1.355 . S
C181 C183 1.419 . S
C182 C180 1.415 . S
C182 C187 1.425 . S
C182 C189 1.409 . S
C183 H175 0.930 . S
C183 C181 1.419 . S
C183 C184 1.362 . S
C184 H176 0.930 . S
C184 C183 1.362 . S
C184 C187 1.409 . S
C185 H177 0.930 . S
C185 C186 1.355 . S
C185 C187 1.415 . S
C186 C185 1.355 . S
C186 C188 1.419 . S
C187 C182 1.425 . S
C187 C184 1.409 . S
C187 C185 1.415 . S
C188 H178 0.930 . S
C188 C186 1.419 . S
C188 C189 1.362 . S
C189 H179 0.930 . S
C189 C182 1.409 . S
C189 C188 1.362 . S
C69 C0 1.200 . S
C74 C33 1.176 . S
C85 C29 1.604 . S
C90 C55 1.590 . S
C101 C30 1.449 . S
C106 C42 1.423 . S
C117 C1 1.567 . S
C122 C32 1.564 . S
C133 C2 1.579 . S
C138 C31 1.574 . S
C154 C49 1.411 . S
C149 C19 1.423 . S
C165 C20 1.584 . S
C170 C58 1.578 . S
C186 C41 1.091 . S
C181 C10 1.158 . S
