# Generated by pormake.
# Topology bcu-b, (8,8)-cn, num edge types: 1
# Building blocks:
#     Node 0, Type 0, BuildingBlock: TAGTUT_clean_sbu_3, # of connection points: 8
#     Node 1, Type 1, BuildingBlock: VETTIZ_charged_sbu_0, # of connection points: 8
#     Edge 2, Type (0, 1), BuildingBlock: KIFKEQ_clean_linker_1, # of connection points: 2
#     Edge 3, Type (0, 1), BuildingBlock: KIFKEQ_clean_linker_1, # of connection points: 2
#     Edge 4, Type (0, 1), BuildingBlock: KIFKEQ_clean_linker_1, # of connection points: 2
#     Edge 5, Type (0, 1), BuildingBlock: KIFKEQ_clean_linker_1, # of connection points: 2
#     Edge 6, Type (0, 1), BuildingBlock: KIFKEQ_clean_linker_1, # of connection points: 2
#     Edge 7, Type (0, 1), BuildingBlock: KIFKEQ_clean_linker_1, # of connection points: 2
#     Edge 8, Type (0, 1), BuildingBlock: KIFKEQ_clean_linker_1, # of connection points: 2
#     Edge 9, Type (0, 1), BuildingBlock: KIFKEQ_clean_linker_1, # of connection points: 2
# Relax obj value: 0.021
# Max RMSD: 0.102
# Mean RMSD: 0.075
data_MOF--net-bcu-b--node1-TAGTUT_clean_sbu_3--node2-VETTIZ_charged_sbu_0--edge1-KIFKEQ_clean_linker_1
_symmetry_space_group_name_H-M    P1
_symmetry_Int_Tables_number       1
_symmetry_cell_setting            triclinic
loop_
_symmetry_equiv_pos_as_xyz
'x, y, z'
_cell_length_a     20.795079
_cell_length_b     19.190319
_cell_length_c     20.501321
_cell_angle_alpha  89.791338
_cell_angle_beta   89.59977
_cell_angle_gamma 98.730806
loop_
_atom_site_label
_atom_site_type_symbol
_atom_site_fract_x
_atom_site_fract_y
_atom_site_fract_z
_atom_type_partial_charge
C0 C 0.09164 0.14083 0.08553 0.0
C1 C 0.184 0.89039 0.0794 0.0
C2 C 0.10003 0.8818 0.88773 0.0
Mg3 Mg 0.96341 0.17955 0.00973 0.0
Mg4 Mg 0.84164 0.05074 0.98838 0.0
O5 O 0.92954 0.08607 0.96946 0.0
Mg6 Mg -0.00601 0.02835 0.00288 0.0
O7 O 0.06141 0.97461 0.03687 0.0
Mg8 Mg 0.13984 1.02313 0.98808 0.0
Mg9 Mg 0.04339 0.87667 0.02364 0.0
C10 C 0.88965 0.91508 0.92659 0.0
O11 O 0.92227 0.96785 0.07814 0.0
O12 O 0.88556 0.22237 0.94236 0.0
O13 O 0.94788 0.85804 0.0689 0.0
O14 O 0.89123 0.16802 0.09377 0.0
O15 O 0.8081 0.12765 0.92685 0.0
O16 O 0.8152 0.07367 0.08846 0.0
O17 O 0.06976 0.08329 0.92988 0.0
O18 O 0.04093 0.1909 0.93029 0.0
C19 C 0.07875 0.14807 0.91142 0.0
C20 C 0.83224 0.19222 0.91603 0.0
O21 O 0.94987 0.94128 0.933 0.0
O22 O 0.19883 0.95237 0.05352 0.0
O23 O 0.84275 0.94403 0.95044 0.0
O24 O 0.1343 0.93914 0.90655 0.0
O25 O 0.12751 0.85367 0.07344 0.0
O26 O 0.05441 0.84976 0.92329 0.0
O27 O 0.03265 0.11894 0.0696 0.0
O28 O 0.13905 0.11045 0.06534 0.0
C29 C 0.84238 0.12853 0.11831 0.0
C30 C 0.91106 0.90115 0.09007 0.0
Fe31 Fe 0.51511 0.68973 0.54179 0.0
O32 O 0.49594 0.58637 0.54232 0.0
Fe33 Fe 0.56759 0.5305 0.50442 0.0
Fe34 Fe 0.41796 0.53268 0.49953 0.0
O35 O 0.50268 0.58658 0.54174 0.0
O36 O 0.4896 0.47655 0.46177 0.0
O37 O 0.48283 0.47645 0.46208 0.0
Fe38 Fe 0.47144 0.37299 0.4638 0.0
C39 C 0.37638 0.64747 0.59133 0.0
O40 O 0.45088 0.7028 0.46809 0.0
O41 O 0.43013 0.59856 0.41903 0.0
O42 O 0.54908 0.38522 0.40107 0.0
O43 O 0.62516 0.46255 0.45697 0.0
O44 O 0.58343 0.59585 0.42461 0.0
O45 O 0.58896 0.70031 0.47337 0.0
O46 O 0.34516 0.46868 0.44669 0.0
O47 O 0.40052 0.38672 0.39752 0.0
C48 C 0.59969 0.66247 0.4248 0.0
O49 O 0.53824 0.36174 0.53696 0.0
O50 O 0.55521 0.46657 0.58456 0.0
O51 O 0.43546 0.67753 0.60281 0.0
O52 O 0.36035 0.59957 0.54676 0.0
C53 C 0.43236 0.66528 0.41865 0.0
C54 C 0.35173 0.42151 0.40244 0.0
C55 C 0.38704 0.40014 0.58071 0.0
O56 O 0.40171 0.46705 0.57999 0.0
O57 O 0.39894 0.36216 0.53285 0.0
C58 C 0.60813 0.41509 0.41207 0.0
O59 O 0.64046 0.59402 0.55809 0.0
O60 O 0.58418 0.67392 0.609 0.0
C61 C 0.55895 0.40134 0.58458 0.0
C62 C 0.63296 0.63918 0.60399 0.0
H63 H 0.16009 0.26642 0.05125 0.0
H64 H 0.05892 0.15337 0.21278 0.0
H65 H 0.2075 0.35957 0.12492 0.0
H66 H 0.10961 0.24386 0.28786 0.0
H67 H 0.21849 0.40887 0.41588 0.0
H68 H 0.13777 0.36079 0.33417 0.0
H69 H 0.29376 0.34895 0.19582 0.0
H70 H 0.37235 0.39746 0.27578 0.0
C71 C 0.14704 0.26261 0.10253 0.0
C72 C 0.10682 0.20302 0.12694 0.0
C73 C 0.17434 0.31552 0.14483 0.0
C74 C 0.16393 0.30823 0.21262 0.0
C75 C 0.11864 0.25143 0.23605 0.0
C76 C 0.08992 0.19931 0.19327 0.0
C77 C 0.23476 0.39767 0.36726 0.0
C78 C 0.30145 0.40569 0.35219 0.0
C79 C 0.1888 0.36982 0.32069 0.0
C80 C 0.20913 0.35066 0.25839 0.0
C81 C 0.27577 0.36389 0.24262 0.0
C82 C 0.32118 0.39097 0.28886 0.0
H83 H 0.90417 0.21087 0.21354 0.0
H84 H 0.71395 0.10934 0.15458 0.0
H85 H 0.85418 0.28347 0.29076 0.0
H86 H 0.66395 0.18189 0.23222 0.0
H87 H 0.60407 0.39225 0.28291 0.0
H88 H 0.66324 0.31338 0.22214 0.0
H89 H 0.78017 0.28886 0.39149 0.0
H90 H 0.71987 0.36845 0.45304 0.0
C91 C 0.85164 0.20254 0.21856 0.0
C92 C 0.81286 0.15497 0.17741 0.0
C93 C 0.82313 0.24421 0.26281 0.0
C94 C 0.75527 0.23958 0.26633 0.0
C95 C 0.71653 0.18752 0.22948 0.0
C96 C 0.74507 0.14529 0.18564 0.0
C97 C 0.64359 0.37152 0.30672 0.0
C98 C 0.65757 0.38657 0.37255 0.0
C99 C 0.67668 0.32539 0.27228 0.0
C100 C 0.72483 0.29314 0.30271 0.0
C101 C 0.74268 0.31241 0.3671 0.0
C102 C 0.70899 0.3587 0.40199 0.0
H103 H 0.8564 0.96304 0.19224 0.0
H104 H 0.83867 0.77216 0.07879 0.0
H105 H 0.77429 0.90581 0.26865 0.0
H106 H 0.75378 0.71632 0.15197 0.0
H107 H 0.67984 0.60622 0.34085 0.0
H108 H 0.74789 0.66696 0.25511 0.0
H109 H 0.66724 0.85779 0.29424 0.0
H110 H 0.60192 0.79748 0.38261 0.0
C111 C 0.83364 0.90944 0.18283 0.0
C112 C 0.85447 0.87158 0.13038 0.0
C113 C 0.78629 0.87656 0.22638 0.0
C114 C 0.75796 0.8057 0.21736 0.0
C115 C 0.77589 0.76996 0.16196 0.0
C116 C 0.82415 0.80219 0.11954 0.0
C117 C 0.67636 0.66097 0.33067 0.0
C118 C 0.63616 0.69733 0.36869 0.0
C119 C 0.71506 0.69591 0.28112 0.0
C120 C 0.71338 0.76768 0.26745 0.0
C121 C 0.67104 0.80312 0.3041 0.0
C122 C 0.63329 0.76847 0.35453 0.0
H123 H 0.30098 0.95448 0.1307 0.0
H124 H 0.1751 0.75392 0.11873 0.0
H125 H 0.37233 0.90137 0.2047 0.0
H126 H 0.24414 0.70234 0.19303 0.0
H127 H 0.39262 0.60672 0.30078 0.0
H128 H 0.34517 0.66313 0.21004 0.0
H129 H 0.36859 0.85957 0.31588 0.0
H130 H 0.41802 0.80406 0.40535 0.0
C131 C 0.28883 0.89915 0.14323 0.0
C132 C 0.2319 0.85885 0.11914 0.0
C133 C 0.32942 0.86876 0.18597 0.0
C134 C 0.31403 0.79743 0.20512 0.0
C135 C 0.2584 0.75694 0.17887 0.0
C136 C 0.21817 0.78705 0.13655 0.0
C137 C 0.38837 0.66214 0.3044 0.0
C138 C 0.40838 0.70044 0.3609 0.0
C139 C 0.3609 0.69453 0.25241 0.0
C140 C 0.35222 0.76587 0.25578 0.0
C141 C 0.37497 0.80486 0.31108 0.0
C142 C 0.40283 0.77265 0.36283 0.0
H143 H 0.18148 0.94166 0.79163 0.0
H144 H 0.06549 0.74431 0.84888 0.0
H145 H 0.23714 0.88006 0.71028 0.0
H146 H 0.12207 0.68269 0.76707 0.0
H147 H 0.24221 0.61974 0.57698 0.0
H148 H 0.16056 0.67548 0.63715 0.0
H149 H 0.31328 0.79123 0.75242 0.0
H150 H 0.39352 0.73628 0.69479 0.0
C151 C 0.16663 0.88544 0.78578 0.0
C152 C 0.12026 0.84764 0.82789 0.0
C153 C 0.19845 0.85025 0.73909 0.0
C154 C 0.18461 0.77659 0.73345 0.0
C155 C 0.13354 0.73953 0.77059 0.0
C156 C 0.10141 0.77488 0.81751 0.0
C157 C 0.2581 0.6566 0.61558 0.0
C158 C 0.32471 0.67413 0.63018 0.0
C159 C 0.21145 0.68852 0.64971 0.0
C160 C 0.23108 0.73886 0.69811 0.0
C161 C 0.29706 0.75401 0.71411 0.0
C162 C 0.34307 0.72202 0.68099 0.0
H163 H 0.15207 0.27511 0.92697 0.0
H164 H 0.13328 0.08923 0.8067 0.0
H165 H 0.23544 0.33467 0.85419 0.0
H166 H 0.21467 0.15024 0.73088 0.0
H167 H 0.38778 0.26514 0.62085 0.0
H168 H 0.32274 0.20089 0.70715 0.0
H169 H 0.23863 0.38813 0.75172 0.0
H170 H 0.30602 0.45292 0.66719 0.0
C171 C 0.16626 0.24687 0.88487 0.0
C172 C 0.13594 0.17787 0.87196 0.0
C173 C 0.2136 0.28131 0.84269 0.0
C174 C 0.23091 0.24821 0.78559 0.0
C175 C 0.20292 0.1775 0.77449 0.0
C176 C 0.1562 0.14238 0.81772 0.0
C177 C 0.35576 0.29268 0.64962 0.0
C178 C 0.35166 0.364 0.63709 0.0
C179 C 0.31813 0.25566 0.69885 0.0
C180 C 0.27485 0.28881 0.73635 0.0
C181 C 0.27211 0.36086 0.72474 0.0
C182 C 0.31053 0.39818 0.67605 0.0
H183 H 0.78893 0.14252 0.7996 0.0
H184 H 0.79831 0.32523 0.92297 0.0
H185 H 0.72326 0.19531 0.72179 0.0
H186 H 0.72861 0.37749 0.84655 0.0
H187 H 0.64904 0.47518 0.66438 0.0
H188 H 0.71758 0.42887 0.7442 0.0
H189 H 0.61834 0.21798 0.70732 0.0
H190 H 0.55239 0.26432 0.62475 0.0
C191 C 0.77662 0.19427 0.80997 0.0
C192 C 0.79845 0.22984 0.86721 0.0
C193 C 0.73815 0.22428 0.76574 0.0
C194 C 0.71894 0.29014 0.77823 0.0
C195 C 0.74252 0.32684 0.83492 0.0
C196 C 0.78246 0.29713 0.87879 0.0
C197 C 0.64156 0.41889 0.67366 0.0
C198 C 0.59554 0.37323 0.63783 0.0
C199 C 0.68083 0.39231 0.71979 0.0
C200 C 0.67445 0.31943 0.73203 0.0
C201 C 0.6263 0.27421 0.69802 0.0
C202 C 0.58789 0.30069 0.651 0.0
H203 H 0.93005 0.89276 0.80325 0.0
H204 H 0.81011 0.79542 0.9608 0.0
H205 H 0.87906 0.8025 0.72853 0.0
H206 H 0.76318 0.70121 0.88826 0.0
H207 H 0.60827 0.6632 0.72975 0.0
H208 H 0.68398 0.70923 0.8125 0.0
H209 H 0.84474 0.69011 0.68182 0.0
H210 H 0.7666 0.64567 0.59659 0.0
C211 C 0.89461 0.85016 0.82228 0.0
C212 C 0.87253 0.85149 0.88699 0.0
C213 C 0.86567 0.79797 0.77965 0.0
C214 C 0.81529 0.74552 0.80172 0.0
C215 C 0.79984 0.7423 0.86883 0.0
C216 C 0.82698 0.7958 0.91066 0.0
C217 C 0.65981 0.66776 0.71879 0.0
C218 C 0.68156 0.6525 0.6563 0.0
C219 C 0.70369 0.69332 0.76687 0.0
C220 C 0.77102 0.70404 0.75421 0.0
C221 C 0.79321 0.68353 0.69301 0.0
C222 C 0.74867 0.65761 0.64436 0.0
loop_
_geom_bond_atom_site_label_1
_geom_bond_atom_site_label_2
_geom_bond_distance
_geom_bond_site_symmetry_2
_ccdc_geom_bond_type
C0 O27 1.312 . S
C0 O28 1.208 . S
C1 O22 1.331 . S
C1 O25 1.244 . S
C2 O24 1.264 . S
C2 O26 1.273 . S
Mg3 O5 1.936 . S
Mg3 O12 2.081 . S
Mg3 O14 2.023 1_556 S
Mg3 O18 2.031 1_655 S
Mg3 O27 2.291 1_656 S
Mg4 O5 1.963 . S
Mg4 O15 1.942 . S
Mg4 O16 1.955 1_556 S
Mg4 O23 1.986 1_545 S
O5 Mg3 1.936 . S
O5 Mg4 1.963 . S
O5 Mg6 1.915 1_656 S
Mg6 O5 1.915 1_454 S
Mg6 O7 1.915 1_545 S
Mg6 O11 2.010 1_445 S
Mg6 O17 2.116 1_554 S
Mg6 O21 2.010 1_444 S
Mg6 O27 2.116 . S
O7 Mg6 1.915 1_565 S
O7 Mg8 1.936 . S
O7 Mg9 1.963 . S
Mg8 O7 1.936 . S
Mg8 O17 2.291 1_564 S
Mg8 O22 2.081 . S
Mg8 O24 2.023 1_554 S
Mg8 O28 2.031 1_565 S
Mg9 O7 1.963 . S
Mg9 O13 1.986 1_455 S
Mg9 O25 1.942 . S
Mg9 O26 1.955 1_554 S
C10 O21 1.191 . S
C10 O23 1.307 . S
O11 Mg6 2.010 1_665 S
O11 C30 1.191 . S
O12 Mg3 2.081 . S
O12 C20 1.331 . S
O13 Mg9 1.986 1_655 S
O13 C30 1.307 . S
O14 Mg3 2.023 1_554 S
O14 C29 1.264 . S
O15 Mg4 1.942 . S
O15 C20 1.244 . S
O16 Mg4 1.955 1_554 S
O16 C29 1.273 . S
O17 Mg6 2.116 1_556 S
O17 Mg8 2.291 1_546 S
O17 C19 1.312 . S
O18 Mg3 2.031 1_455 S
O18 C19 1.208 . S
C19 O17 1.312 . S
C19 O18 1.208 . S
C20 O12 1.331 . S
C20 O15 1.244 . S
O21 Mg6 2.010 1_666 S
O21 C10 1.191 . S
O22 C1 1.331 . S
O22 Mg8 2.081 . S
O23 Mg4 1.986 1_565 S
O23 C10 1.307 . S
O24 C2 1.264 . S
O24 Mg8 2.023 1_556 S
O25 C1 1.244 . S
O25 Mg9 1.942 . S
O26 C2 1.273 . S
O26 Mg9 1.955 1_556 S
O27 C0 1.312 . S
O27 Mg3 2.291 1_454 S
O27 Mg6 2.116 . S
O28 C0 1.208 . S
O28 Mg8 2.031 1_545 S
C29 O14 1.264 . S
C29 O16 1.273 . S
C30 O11 1.191 . S
C30 O13 1.307 . S
Fe31 O32 1.886 . S
Fe31 O35 1.715 . S
Fe31 O40 2.077 . S
Fe31 O45 1.935 . S
Fe31 O51 2.077 . S
Fe31 O60 1.935 . S
O32 Fe31 1.886 . S
O32 Fe34 1.715 . S
Fe33 O35 1.886 . S
Fe33 O36 1.715 . S
Fe33 O43 1.935 . S
Fe33 O44 2.077 . S
Fe33 O50 1.935 . S
Fe33 O59 2.077 . S
Fe34 O32 1.715 . S
Fe34 O37 1.886 . S
Fe34 O41 1.935 . S
Fe34 O46 2.077 . S
Fe34 O52 1.935 . S
Fe34 O56 2.077 . S
O35 Fe31 1.715 . S
O35 Fe33 1.886 . S
O36 Fe33 1.715 . S
O36 Fe38 1.886 . S
O37 Fe34 1.886 . S
O37 Fe38 1.715 . S
Fe38 O36 1.886 . S
Fe38 O37 1.715 . S
Fe38 O42 2.077 . S
Fe38 O47 1.935 . S
Fe38 O49 2.077 . S
Fe38 O57 1.935 . S
C39 O51 1.381 . S
C39 O52 1.421 . S
O40 Fe31 2.077 . S
O40 C53 1.381 . S
O41 Fe34 1.935 . S
O41 C53 1.421 . S
O42 Fe38 2.077 . S
O42 C58 1.381 . S
O43 Fe33 1.935 . S
O43 C58 1.421 . S
O44 Fe33 2.077 . S
O44 C48 1.381 . S
O45 Fe31 1.935 . S
O45 C48 1.421 . S
O46 Fe34 2.077 . S
O46 C54 1.381 . S
O47 Fe38 1.935 . S
O47 C54 1.421 . S
C48 O44 1.381 . S
C48 O45 1.421 . S
O49 Fe38 2.077 . S
O49 C61 1.381 . S
O50 Fe33 1.935 . S
O50 C61 1.421 . S
O51 Fe31 2.077 . S
O51 C39 1.381 . S
O52 Fe34 1.935 . S
O52 C39 1.421 . S
C53 O40 1.381 . S
C53 O41 1.421 . S
C54 O46 1.381 . S
C54 O47 1.421 . S
C55 O56 1.381 . S
C55 O57 1.421 . S
O56 Fe34 2.077 . S
O56 C55 1.381 . S
O57 Fe38 1.935 . S
O57 C55 1.421 . S
C58 O42 1.381 . S
C58 O43 1.421 . S
O59 Fe33 2.077 . S
O59 C62 1.381 . S
O60 Fe31 1.935 . S
O60 C62 1.421 . S
C61 O49 1.381 . S
C61 O50 1.421 . S
C62 O59 1.381 . S
C62 O60 1.421 . S
H63 C71 0.950 . S
H64 C76 0.950 . S
H65 C73 0.950 . S
H66 C75 0.950 . S
H67 C77 0.950 . S
H68 C79 0.950 . S
H69 C81 0.950 . S
H70 C82 0.950 . S
C71 H63 0.950 . S
C71 C72 1.386 . S
C71 C73 1.391 . S
C72 C71 1.386 . S
C72 C76 1.393 . S
C73 H65 0.950 . S
C73 C71 1.391 . S
C73 C74 1.400 . S
C74 C73 1.400 . S
C74 C75 1.398 . S
C74 C80 1.491 . S
C75 H66 0.950 . S
C75 C74 1.398 . S
C75 C76 1.391 . S
C76 H64 0.950 . S
C76 C72 1.393 . S
C76 C75 1.391 . S
C77 H67 0.950 . S
C77 C78 1.386 . S
C77 C79 1.391 . S
C78 C77 1.386 . S
C78 C82 1.393 . S
C79 H68 0.950 . S
C79 C77 1.391 . S
C79 C80 1.400 . S
C80 C74 1.491 . S
C80 C79 1.400 . S
C80 C81 1.398 . S
C81 H69 0.950 . S
C81 C80 1.398 . S
C81 C82 1.391 . S
C82 H70 0.950 . S
C82 C78 1.393 . S
C82 C81 1.391 . S
H83 C91 0.950 . S
H84 C96 0.950 . S
H85 C93 0.950 . S
H86 C95 0.950 . S
H87 C97 0.950 . S
H88 C99 0.950 . S
H89 C101 0.950 . S
H90 C102 0.950 . S
C91 H83 0.950 . S
C91 C92 1.386 . S
C91 C93 1.391 . S
C92 C91 1.386 . S
C92 C96 1.393 . S
C93 H85 0.950 . S
C93 C91 1.391 . S
C93 C94 1.400 . S
C94 C93 1.400 . S
C94 C95 1.398 . S
C94 C100 1.491 . S
C95 H86 0.950 . S
C95 C94 1.398 . S
C95 C96 1.391 . S
C96 H84 0.950 . S
C96 C92 1.393 . S
C96 C95 1.391 . S
C97 H87 0.950 . S
C97 C98 1.386 . S
C97 C99 1.391 . S
C98 C97 1.386 . S
C98 C102 1.393 . S
C99 H88 0.950 . S
C99 C97 1.391 . S
C99 C100 1.400 . S
C100 C94 1.491 . S
C100 C99 1.400 . S
C100 C101 1.398 . S
C101 H89 0.950 . S
C101 C100 1.398 . S
C101 C102 1.391 . S
C102 H90 0.950 . S
C102 C98 1.393 . S
C102 C101 1.391 . S
H103 C111 0.950 . S
H104 C116 0.950 . S
H105 C113 0.950 . S
H106 C115 0.950 . S
H107 C117 0.950 . S
H108 C119 0.950 . S
H109 C121 0.950 . S
H110 C122 0.950 . S
C111 H103 0.950 . S
C111 C112 1.386 . S
C111 C113 1.391 . S
C112 C111 1.386 . S
C112 C116 1.393 . S
C113 H105 0.950 . S
C113 C111 1.391 . S
C113 C114 1.400 . S
C114 C113 1.400 . S
C114 C115 1.398 . S
C114 C120 1.491 . S
C115 H106 0.950 . S
C115 C114 1.398 . S
C115 C116 1.391 . S
C116 H104 0.950 . S
C116 C112 1.393 . S
C116 C115 1.391 . S
C117 H107 0.950 . S
C117 C118 1.386 . S
C117 C119 1.391 . S
C118 C117 1.386 . S
C118 C122 1.393 . S
C119 H108 0.950 . S
C119 C117 1.391 . S
C119 C120 1.400 . S
C120 C114 1.491 . S
C120 C119 1.400 . S
C120 C121 1.398 . S
C121 H109 0.950 . S
C121 C120 1.398 . S
C121 C122 1.391 . S
C122 H110 0.950 . S
C122 C118 1.393 . S
C122 C121 1.391 . S
H123 C131 0.950 . S
H124 C136 0.950 . S
H125 C133 0.950 . S
H126 C135 0.950 . S
H127 C137 0.950 . S
H128 C139 0.950 . S
H129 C141 0.950 . S
H130 C142 0.950 . S
C131 H123 0.950 . S
C131 C132 1.386 . S
C131 C133 1.391 . S
C132 C131 1.386 . S
C132 C136 1.393 . S
C133 H125 0.950 . S
C133 C131 1.391 . S
C133 C134 1.400 . S
C134 C133 1.400 . S
C134 C135 1.398 . S
C134 C140 1.491 . S
C135 H126 0.950 . S
C135 C134 1.398 . S
C135 C136 1.391 . S
C136 H124 0.950 . S
C136 C132 1.393 . S
C136 C135 1.391 . S
C137 H127 0.950 . S
C137 C138 1.386 . S
C137 C139 1.391 . S
C138 C137 1.386 . S
C138 C142 1.393 . S
C139 H128 0.950 . S
C139 C137 1.391 . S
C139 C140 1.400 . S
C140 C134 1.491 . S
C140 C139 1.400 . S
C140 C141 1.398 . S
C141 H129 0.950 . S
C141 C140 1.398 . S
C141 C142 1.391 . S
C142 H130 0.950 . S
C142 C138 1.393 . S
C142 C141 1.391 . S
H143 C151 0.950 . S
H144 C156 0.950 . S
H145 C153 0.950 . S
H146 C155 0.950 . S
H147 C157 0.950 . S
H148 C159 0.950 . S
H149 C161 0.950 . S
H150 C162 0.950 . S
C151 H143 0.950 . S
C151 C152 1.386 . S
C151 C153 1.391 . S
C152 C151 1.386 . S
C152 C156 1.393 . S
C153 H145 0.950 . S
C153 C151 1.391 . S
C153 C154 1.400 . S
C154 C153 1.400 . S
C154 C155 1.398 . S
C154 C160 1.491 . S
C155 H146 0.950 . S
C155 C154 1.398 . S
C155 C156 1.391 . S
C156 H144 0.950 . S
C156 C152 1.393 . S
C156 C155 1.391 . S
C157 H147 0.950 . S
C157 C158 1.386 . S
C157 C159 1.391 . S
C158 C157 1.386 . S
C158 C162 1.393 . S
C159 H148 0.950 . S
C159 C157 1.391 . S
C159 C160 1.400 . S
C160 C154 1.491 . S
C160 C159 1.400 . S
C160 C161 1.398 . S
C161 H149 0.950 . S
C161 C160 1.398 . S
C161 C162 1.391 . S
C162 H150 0.950 . S
C162 C158 1.393 . S
C162 C161 1.391 . S
H163 C171 0.950 . S
H164 C176 0.950 . S
H165 C173 0.950 . S
H166 C175 0.950 . S
H167 C177 0.950 . S
H168 C179 0.950 . S
H169 C181 0.950 . S
H170 C182 0.950 . S
C171 H163 0.950 . S
C171 C172 1.386 . S
C171 C173 1.391 . S
C172 C171 1.386 . S
C172 C176 1.393 . S
C173 H165 0.950 . S
C173 C171 1.391 . S
C173 C174 1.400 . S
C174 C173 1.400 . S
C174 C175 1.398 . S
C174 C180 1.491 . S
C175 H166 0.950 . S
C175 C174 1.398 . S
C175 C176 1.391 . S
C176 H164 0.950 . S
C176 C172 1.393 . S
C176 C175 1.391 . S
C177 H167 0.950 . S
C177 C178 1.386 . S
C177 C179 1.391 . S
C178 C177 1.386 . S
C178 C182 1.393 . S
C179 H168 0.950 . S
C179 C177 1.391 . S
C179 C180 1.400 . S
C180 C174 1.491 . S
C180 C179 1.400 . S
C180 C181 1.398 . S
C181 H169 0.950 . S
C181 C180 1.398 . S
C181 C182 1.391 . S
C182 H170 0.950 . S
C182 C178 1.393 . S
C182 C181 1.391 . S
H183 C191 0.950 . S
H184 C196 0.950 . S
H185 C193 0.950 . S
H186 C195 0.950 . S
H187 C197 0.950 . S
H188 C199 0.950 . S
H189 C201 0.950 . S
H190 C202 0.950 . S
C191 H183 0.950 . S
C191 C192 1.386 . S
C191 C193 1.391 . S
C192 C191 1.386 . S
C192 C196 1.393 . S
C193 H185 0.950 . S
C193 C191 1.391 . S
C193 C194 1.400 . S
C194 C193 1.400 . S
C194 C195 1.398 . S
C194 C200 1.491 . S
C195 H186 0.950 . S
C195 C194 1.398 . S
C195 C196 1.391 . S
C196 H184 0.950 . S
C196 C192 1.393 . S
C196 C195 1.391 . S
C197 H187 0.950 . S
C197 C198 1.386 . S
C197 C199 1.391 . S
C198 C197 1.386 . S
C198 C202 1.393 . S
C199 H188 0.950 . S
C199 C197 1.391 . S
C199 C200 1.400 . S
C200 C194 1.491 . S
C200 C199 1.400 . S
C200 C201 1.398 . S
C201 H189 0.950 . S
C201 C200 1.398 . S
C201 C202 1.391 . S
C202 H190 0.950 . S
C202 C198 1.393 . S
C202 C201 1.391 . S
H203 C211 0.950 . S
H204 C216 0.950 . S
H205 C213 0.950 . S
H206 C215 0.950 . S
H207 C217 0.950 . S
H208 C219 0.950 . S
H209 C221 0.950 . S
H210 C222 0.950 . S
C211 H203 0.950 . S
C211 C212 1.386 . S
C211 C213 1.391 . S
C212 C211 1.386 . S
C212 C216 1.393 . S
C213 H205 0.950 . S
C213 C211 1.391 . S
C213 C214 1.400 . S
C214 C213 1.400 . S
C214 C215 1.398 . S
C214 C220 1.491 . S
C215 H206 0.950 . S
C215 C214 1.398 . S
C215 C216 1.391 . S
C216 H204 0.950 . S
C216 C212 1.393 . S
C216 C215 1.391 . S
C217 H207 0.950 . S
C217 C218 1.386 . S
C217 C219 1.391 . S
C218 C217 1.386 . S
C218 C222 1.393 . S
C219 H208 0.950 . S
C219 C217 1.391 . S
C219 C220 1.400 . S
C220 C214 1.491 . S
C220 C219 1.400 . S
C220 C221 1.398 . S
C221 H209 0.950 . S
C221 C220 1.398 . S
C221 C222 1.391 . S
C222 H210 0.950 . S
C222 C218 1.393 . S
C222 C221 1.391 . S
C72 C0 1.364 . S
C78 C54 1.380 . S
C92 C29 1.591 . S
C98 C58 1.579 . S
C112 C30 1.326 . S
C118 C48 1.321 . S
C132 C1 1.538 . S
C138 C53 1.526 . S
C152 C2 1.588 . S
C158 C39 1.572 . S
C178 C55 1.382 . S
C172 C19 1.362 . S
C192 C20 1.519 . S
C198 C61 1.505 . S
C218 C62 1.320 . S
C212 C10 1.328 . S
