# Generated by pormake.
# Topology anh, (6,3)-cn, num edge types: 1
# Building blocks:
#     Node 0, Type 0, BuildingBlock: CUKXOW_clean_sbu_0, # of connection points: 6
#     Node 1, Type 0, BuildingBlock: CUKXOW_clean_sbu_0, # of connection points: 6
#     Node 2, Type 0, BuildingBlock: CUKXOW_clean_sbu_0, # of connection points: 6
#     Node 3, Type 1, BuildingBlock: OLANEW_clean_sbu_2, # of connection points: 3
#     Node 4, Type 1, BuildingBlock: OLANEW_clean_sbu_2, # of connection points: 3
#     Node 5, Type 1, BuildingBlock: OLANEW_clean_sbu_2, # of connection points: 3
#     Node 6, Type 1, BuildingBlock: OLANEW_clean_sbu_2, # of connection points: 3
#     Node 7, Type 1, BuildingBlock: OLANEW_clean_sbu_2, # of connection points: 3
#     Node 8, Type 1, BuildingBlock: OLANEW_clean_sbu_2, # of connection points: 3
#     Edge 9, Type (0, 1), None
#     Edge 10, Type (0, 1), None
#     Edge 11, Type (0, 1), None
#     Edge 12, Type (0, 1), None
#     Edge 13, Type (0, 1), None
#     Edge 14, Type (0, 1), None
#     Edge 15, Type (0, 1), None
#     Edge 16, Type (0, 1), None
#     Edge 17, Type (0, 1), None
#     Edge 18, Type (0, 1), None
#     Edge 19, Type (0, 1), None
#     Edge 20, Type (0, 1), None
#     Edge 21, Type (0, 1), None
#     Edge 22, Type (0, 1), None
#     Edge 23, Type (0, 1), None
#     Edge 24, Type (0, 1), None
#     Edge 25, Type (0, 1), None
#     Edge 26, Type (0, 1), None
# Relax obj value: 0.103
# Max RMSD: 0.154
# Mean RMSD: 0.118
data_MOF--net-anh--node1-CUKXOW_clean_sbu_0--node2-OLANEW_clean_sbu_2--edge1-none
_symmetry_space_group_name_H-M    P1
_symmetry_Int_Tables_number       1
_symmetry_cell_setting            triclinic
loop_
_symmetry_equiv_pos_as_xyz
'x, y, z'
_cell_length_a     16.824077
_cell_length_b     14.922187
_cell_length_c     22.956999
_cell_angle_alpha  98.055104
_cell_angle_beta   89.472743
_cell_angle_gamma 108.45361
loop_
_atom_site_label
_atom_site_type_symbol
_atom_site_fract_x
_atom_site_fract_y
_atom_site_fract_z
_atom_type_partial_charge
Tb0 Tb 0.0575 0.58554 0.13753 0.0
C1 C 0.0003 0.504 0.25394 0.0
Tb2 Tb 0.94528 0.37684 0.12882 0.0
O3 O 0.95196 0.63877 0.16215 0.0
O4 O 0.93153 0.50628 0.1116 0.0
O5 O 0.0592 0.56829 0.22965 0.0
C6 C 0.81534 0.22153 0.13697 0.0
O7 O 0.94491 0.42914 0.22272 0.0
C8 C 0.10577 0.40215 0.12092 0.0
C9 C 0.00023 0.46074 0.01154 0.0
O10 O 0.89348 0.22779 0.14373 0.0
O11 O 0.81032 0.30189 0.12496 0.0
O12 O 0.0478 0.32628 0.09598 0.0
O13 O 0.07242 0.45522 0.15324 0.0
O14 O 0.94832 0.38932 0.03551 0.0
O15 O 0.04957 0.54081 0.04253 0.0
C16 C 0.19201 0.73893 0.13548 0.0
O17 O 0.18874 0.65155 0.11747 0.0
O18 O 0.11923 0.74025 0.15394 0.0
C19 C 0.89537 0.55991 0.1396 0.0
Tb20 Tb 0.43698 0.95751 0.49565 0.0
C21 C 0.53127 -0.00201 0.3797 0.0
Tb22 Tb 0.62632 0.0687 0.50601 0.0
O23 O 0.40828 0.079 0.4674 0.0
O24 O 0.51392 0.10011 0.52102 0.0
O25 O 0.46454 0.94289 0.40324 0.0
C26 C 0.77423 0.20183 0.50147 0.0
O27 O 0.59726 0.05806 0.4115 0.0
C28 C 0.58668 0.88656 0.51054 0.0
C29 C 0.53079 0.0235 0.62174 0.0
O30 O 0.7591 0.11097 0.48543 0.0
O31 O 0.70645 0.21762 0.52048 0.0
O32 O 0.65365 0.94915 0.53669 0.0
O33 O 0.55011 0.92638 0.47973 0.0
O34 O 0.59854 0.07916 0.59914 0.0
O35 O 0.46444 0.96593 0.58942 0.0
C36 C 0.28831 0.82386 0.49576 0.0
O37 O 0.30051 0.915 0.50221 0.0
O38 O 0.35941 0.80787 0.48919 0.0
C39 C 0.47749 0.1407 0.49083 0.0
Tb40 Tb 0.42521 0.5261 0.81445 0.0
C41 C 0.5202 0.54225 0.93316 0.0
Tb42 Tb 0.61624 0.56766 0.81239 0.0
O43 O 0.40953 0.38212 0.8362 0.0
O44 O 0.50843 0.45149 0.78648 0.0
O45 O 0.45221 0.55038 0.90848 0.0
C46 C 0.76386 0.53993 0.81361 0.0
O47 O 0.58699 0.53716 0.90288 0.0
C48 C 0.56745 0.717 0.81495 0.0
C49 C 0.51831 0.54771 0.6933 0.0
O50 O 0.74698 0.61165 0.84377 0.0
O51 O 0.69825 0.48454 0.783 0.0
O52 O 0.63896 0.71366 0.7943 0.0
O53 O 0.53338 0.64428 0.83924 0.0
O54 O 0.5887 0.54668 0.7183 0.0
O55 O 0.45069 0.54937 0.72312 0.0
C56 C 0.27198 0.53649 0.80413 0.0
O57 O 0.29132 0.45846 0.79353 0.0
O58 O 0.33805 0.60799 0.82195 0.0
C59 C 0.47877 0.37938 0.81158 0.0
O60 O 0.60056 0.02215 0.28966 0.0
Cd61 Cd 0.60967 -0.00323 0.18258 0.0
O62 O 0.46604 0.93989 0.28551 0.0
Cd63 Cd 0.4468 0.90619 0.19025 0.0
O64 O 0.33951 0.80401 0.13979 0.0
C65 C 0.26964 0.81874 0.14782 0.0
O66 O 0.26769 0.89839 0.17945 0.0
C67 C 0.53284 0.98766 0.31532 0.0
C68 C 0.74385 0.14141 0.14921 0.0
O69 O 0.66985 0.14823 0.15013 0.0
O70 O 0.75457 0.06558 0.1628 0.0
O71 O 0.566 0.51085 0.59888 0.0
Cd72 Cd 0.55091 0.44319 0.49488 0.0
O73 O 0.45254 0.55533 0.60427 0.0
Cd74 Cd 0.45714 0.58371 0.51367 0.0
O75 O 0.49722 0.72563 0.48668 0.0
C76 C 0.5573 0.78581 0.51842 0.0
O77 O 0.59214 0.75754 0.56024 0.0
C78 C 0.5127 0.53921 0.62916 0.0
C79 C 0.50263 0.24415 0.49005 0.0
O80 O 0.57892 0.29638 0.50087 0.0
O81 O 0.44866 0.2848 0.47984 0.0
O82 O 0.01901 0.5349 0.92652 0.0
Cd83 Cd 0.02926 0.54905 0.82242 0.0
O84 O 0.96734 0.37783 0.91461 0.0
Cd85 Cd 0.93928 0.38231 0.82355 0.0
O86 O 0.84652 0.43918 0.79239 0.0
C87 C 0.83849 0.51404 0.82229 0.0
O88 O 0.88861 0.55737 0.8681 0.0
C89 C -0.00355 0.45707 0.94797 0.0
C90 C 0.18736 0.54158 0.8038 0.0
O91 O 0.17486 0.622 0.81801 0.0
O92 O 0.12444 0.46516 0.79392 0.0
O93 O 0.04723 0.5865 0.34948 0.0
Cd94 Cd 0.05465 0.61068 0.45667 0.0
O95 O 0.94637 0.44879 0.34222 0.0
Cd96 Cd 0.93315 0.45112 0.43653 0.0
O97 O 0.84824 0.36129 0.49175 0.0
C98 C 0.84826 0.2755 0.48594 0.0
O99 O 0.90472 0.25064 0.45362 0.0
C100 C -0.00218 0.51377 0.31813 0.0
C101 C 0.20662 0.75012 0.48767 0.0
O102 O 0.20139 0.66176 0.47909 0.0
O103 O 0.13958 0.77265 0.48432 0.0
O104 O 0.46609 0.96895 0.70793 0.0
Cd105 Cd 0.47773 0.95237 0.81139 0.0
O106 O 0.58229 0.091 0.71925 0.0
Cd107 Cd 0.55082 0.12653 0.81017 0.0
O108 O 0.4889 0.23339 0.83731 0.0
C109 C 0.51346 0.30041 0.80629 0.0
O110 O 0.57069 0.29781 0.76741 0.0
C111 C 0.52682 0.02744 0.68574 0.0
C112 C 0.53658 0.79849 0.81571 0.0
O113 O 0.45903 0.7894 0.82283 0.0
O114 O 0.58667 0.88033 0.80813 0.0
O115 O 0.58535 0.5337 0.02286 0.0
Cd116 Cd 0.63123 0.51984 0.12248 0.0
O117 O 0.45157 0.53109 0.02302 0.0
Cd118 Cd 0.38126 0.51751 0.10478 0.0
O119 O 0.25205 0.49341 0.13678 0.0
C120 C 0.19542 0.42309 0.10842 0.0
O121 O 0.2174 0.36844 0.06571 0.0
C122 C 0.51964 0.53617 -0.00338 0.0
C123 C 0.8048 0.54614 0.13425 0.0
O124 O 0.75297 0.46547 0.11217 0.0
O125 O 0.77575 0.61501 0.15043 0.0
loop_
_geom_bond_atom_site_label_1
_geom_bond_atom_site_label_2
_geom_bond_distance
_geom_bond_site_symmetry_2
_ccdc_geom_bond_type
Tb0 O3 2.453 1_455 S
Tb0 O4 2.596 1_455 S
Tb0 O5 2.374 . S
Tb0 O13 2.343 . S
Tb0 O15 2.353 . S
Tb0 O17 2.427 . S
Tb0 O18 2.513 . S
C1 O5 1.251 . S
C1 O7 1.263 . S
Tb2 O4 2.343 . S
Tb2 O7 2.353 1_655 S
Tb2 O10 2.427 . S
Tb2 O11 2.513 . S
Tb2 O12 2.453 1_655 S
Tb2 O13 2.596 1_655 S
Tb2 O14 2.374 1_655 S
O3 Tb0 2.453 1_655 S
O3 C19 1.245 . S
O4 Tb0 2.596 1_655 S
O4 Tb2 2.343 . S
O4 C19 1.259 . S
O5 Tb0 2.374 . S
O5 C1 1.251 . S
C6 O10 1.275 . S
C6 O11 1.246 . S
O7 C1 1.263 . S
O7 Tb2 2.353 1_455 S
C8 O12 1.245 . S
C8 O13 1.259 . S
C9 O14 1.250 . S
C9 O15 1.263 . S
O10 Tb2 2.427 . S
O10 C6 1.275 . S
O11 Tb2 2.513 . S
O11 C6 1.246 . S
O12 Tb2 2.453 1_455 S
O12 C8 1.245 . S
O13 Tb0 2.343 . S
O13 Tb2 2.596 1_455 S
O13 C8 1.259 . S
O14 Tb2 2.374 1_455 S
O14 C9 1.250 . S
O15 Tb0 2.353 . S
O15 C9 1.263 . S
C16 O17 1.275 . S
C16 O18 1.246 . S
O17 Tb0 2.427 . S
O17 C16 1.275 . S
O18 Tb0 2.513 . S
O18 C16 1.246 . S
C19 O3 1.245 . S
C19 O4 1.259 . S
Tb20 O23 2.453 1_565 S
Tb20 O24 2.596 1_565 S
Tb20 O25 2.374 . S
Tb20 O33 2.343 . S
Tb20 O35 2.353 1_565 S
Tb20 O37 2.427 . S
Tb20 O38 2.513 . S
C21 O25 1.250 1_545 S
C21 O27 1.263 . S
Tb22 O24 2.343 . S
Tb22 O27 2.353 . S
Tb22 O30 2.427 . S
Tb22 O31 2.513 . S
Tb22 O32 2.453 1_545 S
Tb22 O33 2.596 1_545 S
Tb22 O34 2.374 . S
O23 Tb20 2.453 1_545 S
O23 C39 1.245 . S
O24 Tb20 2.596 1_545 S
O24 Tb22 2.343 . S
O24 C39 1.259 . S
O25 Tb20 2.374 . S
O25 C21 1.250 1_565 S
C26 O30 1.275 . S
C26 O31 1.246 . S
O27 C21 1.263 . S
O27 Tb22 2.353 . S
C28 O32 1.245 . S
C28 O33 1.259 . S
C29 O34 1.250 . S
C29 O35 1.263 . S
O30 Tb22 2.427 . S
O30 C26 1.275 . S
O31 Tb22 2.513 . S
O31 C26 1.246 . S
O32 Tb22 2.453 1_565 S
O32 C28 1.245 . S
O33 Tb20 2.343 . S
O33 Tb22 2.596 1_565 S
O33 C28 1.259 . S
O34 Tb22 2.374 . S
O34 C29 1.250 . S
O35 Tb20 2.353 1_545 S
O35 C29 1.263 . S
C36 O37 1.275 . S
C36 O38 1.246 . S
O37 Tb20 2.427 . S
O37 C36 1.275 . S
O38 Tb20 2.513 . S
O38 C36 1.246 . S
C39 O23 1.245 . S
C39 O24 1.259 . S
Tb40 O43 2.453 . S
Tb40 O44 2.596 . S
Tb40 O45 2.374 . S
Tb40 O53 2.343 . S
Tb40 O55 2.353 . S
Tb40 O57 2.427 . S
Tb40 O58 2.513 . S
C41 O45 1.251 . S
C41 O47 1.263 . S
Tb42 O44 2.343 . S
Tb42 O47 2.353 . S
Tb42 O50 2.427 . S
Tb42 O51 2.513 . S
Tb42 O52 2.453 . S
Tb42 O53 2.596 . S
Tb42 O54 2.374 . S
O43 Tb40 2.453 . S
O43 C59 1.245 . S
O44 Tb40 2.596 . S
O44 Tb42 2.343 . S
O44 C59 1.259 . S
O45 Tb40 2.374 . S
O45 C41 1.251 . S
C46 O50 1.275 . S
C46 O51 1.246 . S
O47 C41 1.263 . S
O47 Tb42 2.353 . S
C48 O52 1.245 . S
C48 O53 1.259 . S
C49 O54 1.250 . S
C49 O55 1.263 . S
O50 Tb42 2.427 . S
O50 C46 1.275 . S
O51 Tb42 2.513 . S
O51 C46 1.246 . S
O52 Tb42 2.453 . S
O52 C48 1.245 . S
O53 Tb40 2.343 . S
O53 Tb42 2.596 . S
O53 C48 1.259 . S
O54 Tb42 2.374 . S
O54 C49 1.250 . S
O55 Tb40 2.353 . S
O55 C49 1.263 . S
C56 O57 1.275 . S
C56 O58 1.246 . S
O57 Tb40 2.427 . S
O57 C56 1.275 . S
O58 Tb40 2.513 . S
O58 C56 1.246 . S
C59 O43 1.245 . S
C59 O44 1.259 . S
O60 Cd61 2.300 . S
O60 C67 1.275 . S
Cd61 O60 2.300 . S
Cd61 O69 2.381 . S
Cd61 O70 2.378 . S
O62 Cd63 2.385 . S
O62 C67 1.255 1_565 S
Cd63 O62 2.385 . S
Cd63 O64 2.317 . S
O64 Cd63 2.317 . S
O64 C65 1.232 . S
C65 O64 1.232 . S
C65 O66 1.218 . S
O66 C65 1.218 . S
C67 O60 1.275 . S
C67 O62 1.255 1_545 S
C68 O69 1.258 . S
C68 O70 1.256 . S
O69 Cd61 2.381 . S
O69 C68 1.258 . S
O70 Cd61 2.378 . S
O70 C68 1.256 . S
O71 Cd72 2.300 . S
O71 C78 1.275 . S
Cd72 O71 2.300 . S
Cd72 O80 2.381 . S
Cd72 O81 2.378 . S
O73 Cd74 2.385 . S
O73 C78 1.255 . S
Cd74 O73 2.385 . S
Cd74 O75 2.317 . S
O75 Cd74 2.317 . S
O75 C76 1.232 . S
C76 O75 1.232 . S
C76 O77 1.218 . S
O77 C76 1.218 . S
C78 O71 1.275 . S
C78 O73 1.255 . S
C79 O80 1.258 . S
C79 O81 1.256 . S
O80 Cd72 2.381 . S
O80 C79 1.258 . S
O81 Cd72 2.378 . S
O81 C79 1.256 . S
O82 Cd83 2.300 . S
O82 C89 1.275 . S
Cd83 O82 2.300 . S
Cd83 O91 2.381 . S
Cd83 O92 2.378 . S
O84 Cd85 2.385 . S
O84 C89 1.255 1_655 S
Cd85 O84 2.385 . S
Cd85 O86 2.317 . S
O86 Cd85 2.317 . S
O86 C87 1.232 . S
C87 O86 1.232 . S
C87 O88 1.218 . S
O88 C87 1.218 . S
C89 O82 1.275 . S
C89 O84 1.255 1_455 S
C90 O91 1.258 . S
C90 O92 1.256 . S
O91 Cd83 2.381 . S
O91 C90 1.258 . S
O92 Cd83 2.378 . S
O92 C90 1.256 . S
O93 Cd94 2.300 . S
O93 C100 1.275 1_455 S
Cd94 O93 2.300 . S
Cd94 O102 2.381 . S
Cd94 O103 2.378 . S
O95 Cd96 2.385 . S
O95 C100 1.255 . S
Cd96 O95 2.385 . S
Cd96 O97 2.317 . S
O97 Cd96 2.317 . S
O97 C98 1.232 . S
C98 O97 1.232 . S
C98 O99 1.218 . S
O99 C98 1.218 . S
C100 O93 1.275 1_655 S
C100 O95 1.255 . S
C101 O102 1.258 . S
C101 O103 1.256 . S
O102 Cd94 2.381 . S
O102 C101 1.258 . S
O103 Cd94 2.378 . S
O103 C101 1.256 . S
O104 Cd105 2.300 . S
O104 C111 1.275 1_565 S
Cd105 O104 2.300 . S
Cd105 O113 2.381 . S
Cd105 O114 2.378 . S
O106 Cd107 2.385 . S
O106 C111 1.255 . S
Cd107 O106 2.385 . S
Cd107 O108 2.317 . S
O108 Cd107 2.317 . S
O108 C109 1.232 . S
C109 O108 1.232 . S
C109 O110 1.218 . S
O110 C109 1.218 . S
C111 O104 1.275 1_545 S
C111 O106 1.255 . S
C112 O113 1.258 . S
C112 O114 1.256 . S
O113 Cd105 2.381 . S
O113 C112 1.258 . S
O114 Cd105 2.378 . S
O114 C112 1.256 . S
O115 Cd116 2.300 . S
O115 C122 1.275 . S
Cd116 O115 2.300 . S
Cd116 O124 2.381 . S
Cd116 O125 2.378 . S
O117 Cd118 2.385 . S
O117 C122 1.255 . S
Cd118 O117 2.385 . S
Cd118 O119 2.317 . S
O119 Cd118 2.317 . S
O119 C120 1.232 . S
C120 O119 1.232 . S
C120 O121 1.218 . S
O121 C120 1.218 . S
C122 O115 1.275 . S
C122 O117 1.255 . S
C123 O124 1.258 . S
C123 O125 1.256 . S
O124 Cd116 2.381 . S
O124 C123 1.258 . S
O125 Cd116 2.378 . S
O125 C123 1.256 . S
C8 C120 2.256 . S
C26 C98 1.477 . S
C48 C112 1.542 . S
C19 C123 2.287 . S
C101 C36 1.368 . S
C109 C59 1.503 . S
C28 C76 1.599 . S
C46 C87 0.585 . S
C16 C65 1.134 . S
C79 C39 1.818 . S
C90 C56 0.589 . S
C6 C68 1.410 . S
C89 C9 1.274 1_556 S
C21 C67 1.364 . S
C49 C78 1.491 . S
C111 C29 1.320 . S
C122 C41 1.536 1_554 S
C1 C100 1.501 1_455 S
