# Generated by pormake.
# Topology pts, (4,4)-cn, num edge types: 1
# Building blocks:
#     Node 0, Type 0, BuildingBlock: MUDLON_clean_sbu_0, # of connection points: 4
#     Node 1, Type 0, BuildingBlock: MUDLON_clean_sbu_0, # of connection points: 4
#     Node 2, Type 1, BuildingBlock: QUQFOY_clean_sbu_1, # of connection points: 4
#     Node 3, Type 1, BuildingBlock: QUQFOY_clean_sbu_1, # of connection points: 4
#     Edge 4, Type (0, 1), BuildingBlock: CIFDUS_clean_linker_0, # of connection points: 2
#     Edge 5, Type (0, 1), BuildingBlock: CIFDUS_clean_linker_0, # of connection points: 2
#     Edge 6, Type (0, 1), BuildingBlock: CIFDUS_clean_linker_0, # of connection points: 2
#     Edge 7, Type (0, 1), BuildingBlock: CIFDUS_clean_linker_0, # of connection points: 2
#     Edge 8, Type (0, 1), BuildingBlock: CIFDUS_clean_linker_0, # of connection points: 2
#     Edge 9, Type (0, 1), BuildingBlock: CIFDUS_clean_linker_0, # of connection points: 2
#     Edge 10, Type (0, 1), BuildingBlock: CIFDUS_clean_linker_0, # of connection points: 2
#     Edge 11, Type (0, 1), BuildingBlock: CIFDUS_clean_linker_0, # of connection points: 2
# Relax obj value: 0.129
# Max RMSD: 0.243
# Mean RMSD: 0.143
data_MOF--net-pts--node1-MUDLON_clean_sbu_0--node2-QUQFOY_clean_sbu_1--edge1-CIFDUS_clean_linker_0
_symmetry_space_group_name_H-M    P1
_symmetry_Int_Tables_number       1
_symmetry_cell_setting            triclinic
loop_
_symmetry_equiv_pos_as_xyz
'x, y, z'
_cell_length_a     19.562785
_cell_length_b     21.157159
_cell_length_c     36.103486
_cell_angle_alpha  90.163898
_cell_angle_beta   90.058016
_cell_angle_gamma 89.182725
loop_
_atom_site_label
_atom_site_type_symbol
_atom_site_fract_x
_atom_site_fract_y
_atom_site_fract_z
_atom_type_partial_charge
Mg0 Mg 0.48393 0.01448 0.02677 0.0
C1 C 0.39253 1.00794 0.96722 0.0
O2 O 0.41137 0.06664 0.97264 0.0
C3 C 0.57855 1.01247 0.08503 0.0
O4 O 0.55851 0.07088 0.07829 0.0
C5 C 0.39036 0.01962 0.08522 0.0
O6 O 0.41088 0.96103 0.07927 0.0
O7 O 0.41361 0.0627 0.06432 0.0
O8 O 0.41628 0.9655 0.98884 0.0
O9 O 0.55336 0.0607 0.98889 0.0
C10 C 0.57997 0.01648 0.96941 0.0
O11 O 0.56214 0.95805 0.97641 0.0
O12 O 0.55411 0.96841 0.0651 0.0
Mg13 Mg 0.97566 0.51332 0.52688 0.0
C14 C 0.0345 0.63084 0.56121 0.0
O15 O 0.01234 0.65475 0.52982 0.0
C16 C 0.03446 0.39409 0.49272 0.0
O17 O 0.01199 0.37075 0.52402 0.0
C18 C 0.92172 0.57701 0.45839 0.0
O19 O 0.94761 0.52517 0.44362 0.0
O20 O 0.91804 0.58108 0.49347 0.0
O21 O 0.03339 0.57117 0.56562 0.0
O22 O 0.91739 0.44725 0.55999 0.0
C23 C 0.92043 0.45128 0.59509 0.0
O24 O 0.94618 0.5024 0.61001 0.0
O25 O 0.03362 0.45379 0.48837 0.0
O26 O 0.89775 0.9691 0.24379 0.0
Cd27 Cd 0.98157 0.94483 0.27552 0.0
Cd28 Cd -0.01051 0.07518 0.27979 0.0
O29 O 0.89604 0.07216 0.25331 0.0
O30 O 0.97406 0.85111 0.27742 0.0
O31 O 0.96731 0.91108 0.32739 0.0
C32 C 0.96541 0.85544 0.31265 0.0
C33 C 0.00371 0.13445 0.33376 0.0
C34 C 0.8698 0.02303 0.23912 0.0
C35 C 0.10351 1.00774 0.24078 0.0
O36 O 0.07482 0.06075 0.2474 0.0
O37 O 0.07688 0.95681 0.25211 0.0
O38 O 0.00016 0.16103 0.30169 0.0
O39 O -0.00244 0.07373 0.3353 0.0
O40 O 0.89699 0.05871 0.81015 0.0
Cd41 Cd 0.97995 0.08231 0.77819 0.0
Cd42 Cd -0.00916 0.95159 0.77389 0.0
O43 O 0.89798 0.95557 0.8009 0.0
O44 O 0.97074 0.17614 0.77638 0.0
O45 O 0.9647 0.11637 0.72636 0.0
C46 C 0.96208 0.17201 0.74113 0.0
C47 C 0.00475 0.89172 0.71999 0.0
C48 C 0.8706 1.00489 0.81506 0.0
C49 C 0.10418 0.01827 0.8122 0.0
O50 O 0.0767 0.9654 0.80571 0.0
O51 O 0.07594 0.06937 0.80116 0.0
O52 O 0.00255 0.86544 0.75215 0.0
O53 O -0.0025 0.9525 0.71833 0.0
H54 H 0.35243 0.93861 0.13831 0.0
H55 H 0.31687 0.12915 0.09977 0.0
H56 H 0.22802 0.1443 0.1471 0.0
H57 H 0.15516 0.0999 0.19637 0.0
H58 H 0.19078 0.90759 0.23228 0.0
H59 H 0.28553 0.89685 0.18895 0.0
C60 C 0.32555 0.9837 0.1402 0.0
C61 C 0.34064 0.03247 0.11525 0.0
C62 C 0.2745 0.99162 0.16696 0.0
C63 C 0.30596 0.09079 0.11856 0.0
C64 C 0.25511 0.09934 0.14554 0.0
C65 C 0.18426 0.05594 0.19505 0.0
C66 C 0.16556 1.00444 0.21741 0.0
C67 C 0.23817 0.04963 0.16949 0.0
C68 C 0.20366 0.94777 0.21525 0.0
C69 C 0.25784 0.94154 0.19045 0.0
H70 H 0.93312 0.44228 0.66965 0.0
H71 H 0.89075 0.33085 0.57218 0.0
H72 H 0.89813 0.23412 0.60892 0.0
H73 H 0.92602 0.18062 0.66798 0.0
H74 H 0.96966 0.29374 0.76468 0.0
H75 H 0.95293 0.38998 0.72889 0.0
C76 C 0.92446 0.39697 0.65645 0.0
C77 C 0.91193 0.39399 0.61814 0.0
C78 C 0.93011 0.34154 0.67753 0.0
C79 C 0.90053 0.3347 0.60163 0.0
C80 C 0.90527 0.27923 0.62258 0.0
C81 C 0.93169 0.22635 0.68119 0.0
C82 C 0.94979 0.22981 0.71888 0.0
C83 C 0.92177 0.28196 0.66039 0.0
C84 C 0.95617 0.28951 0.73568 0.0
C85 C 0.94649 0.34473 0.71525 0.0
H86 H 0.62512 0.09752 0.13428 0.0
H87 H 0.646 0.90136 0.10251 0.0
H88 H 0.73547 0.88636 0.14945 0.0
H89 H 0.81176 0.93107 0.19688 0.0
H90 H 0.79098 0.12836 0.22674 0.0
H91 H 0.69673 0.14063 0.18303 0.0
C92 C 0.64895 0.05127 0.13758 0.0
C93 C 0.62938 1.00071 0.11467 0.0
C94 C 0.70035 0.04331 0.1642 0.0
C95 C 0.66034 0.94107 0.1197 0.0
C96 C 0.71151 0.93257 0.14647 0.0
C97 C 0.78625 0.97666 0.19411 0.0
C98 C 0.8088 0.02886 0.21497 0.0
C99 C 0.73254 0.98364 0.16852 0.0
C100 C 0.77505 0.0875 0.21096 0.0
C101 C 0.72117 0.09459 0.18593 0.0
H102 H 0.02176 0.75907 0.56341 0.0
H103 H 0.06865 0.5974 0.63214 0.0
H104 H 0.06604 0.66469 0.68717 0.0
H105 H 0.04113 0.76748 0.71624 0.0
H106 H -0.00721 0.92893 0.64773 0.0
H107 H 0.00502 0.86346 0.59216 0.0
C108 C 0.03248 0.73858 0.59034 0.0
C109 C 0.04491 0.67305 0.59357 0.0
C110 C 0.02962 0.77735 0.62199 0.0
C111 C 0.05881 0.64757 0.62875 0.0
C112 C 0.0569 0.68598 0.66031 0.0
C113 C 0.03345 0.78847 0.68915 0.0
C114 C 0.01524 0.85289 0.68619 0.0
C115 C 0.04066 0.75058 0.65734 0.0
C116 C 0.00641 0.87942 0.65084 0.0
C117 C 0.01346 0.842 0.61903 0.0
H118 H 0.35417 0.08693 0.91264 0.0
H119 H 0.32077 0.89882 0.95412 0.0
H120 H 0.23184 0.88308 0.90707 0.0
H121 H 0.15773 0.92681 0.85744 0.0
H122 H 0.19078 0.11699 0.81879 0.0
H123 H 0.28632 0.12769 0.86152 0.0
C124 C 0.32777 0.04222 0.91143 0.0
C125 C 0.34342 0.99436 0.93716 0.0
C126 C 0.27656 0.03405 0.88487 0.0
C127 C 0.30941 0.93649 0.93472 0.0
C128 C 0.2585 0.92761 0.9079 0.0
C129 C 0.18647 0.97025 0.85803 0.0
C130 C 0.16679 0.02124 0.83511 0.0
C131 C 0.24077 0.97661 0.88328 0.0
C132 C 0.20441 0.07726 0.8363 0.0
C133 C 0.25905 0.08346 0.86075 0.0
H134 H 0.02216 0.26614 0.49045 0.0
H135 H 0.06801 0.42686 0.42179 0.0
H136 H 0.06494 0.35982 0.3667 0.0
H137 H 0.03982 0.25777 0.33757 0.0
H138 H -0.0072 0.09722 0.40599 0.0
H139 H 0.00549 0.1622 0.46163 0.0
C140 C 0.03256 0.28644 0.46353 0.0
C141 C 0.04479 0.35168 0.46034 0.0
C142 C 0.02948 0.24784 0.43184 0.0
C143 C 0.05832 0.37692 0.42515 0.0
C144 C 0.05615 0.33867 0.39356 0.0
C145 C 0.03252 0.23687 0.36466 0.0
C146 C 0.01452 0.17288 0.36759 0.0
C147 C 0.04005 0.27446 0.3965 0.0
C148 C 0.00624 0.14641 0.40292 0.0
C149 C 0.01355 0.18355 0.43476 0.0
H150 H 0.62906 0.9312 0.92037 0.0
H151 H 0.64416 0.12749 0.95182 0.0
H152 H 0.73303 0.14219 0.90483 0.0
H153 H 0.81037 0.09717 0.85734 0.0
H154 H 0.79503 0.89979 0.82779 0.0
H155 H 0.7016 0.88782 0.87166 0.0
C156 C 0.65151 0.97741 0.91701 0.0
C157 C 0.63048 0.02809 0.93983 0.0
C158 C 0.70251 0.98521 0.89035 0.0
C159 C 0.65964 0.08769 0.93469 0.0
C160 C 0.71047 0.09602 0.90789 0.0
C161 C 0.78621 0.05164 0.86023 0.0
C162 C 0.81007 0.99932 0.83938 0.0
C163 C 0.7329 0.04482 0.88591 0.0
C164 C 0.77807 0.94074 0.84354 0.0
C165 C 0.72465 0.93381 0.86867 0.0
H166 H 0.93662 0.5858 0.38398 0.0
H167 H 0.89121 0.69816 0.48108 0.0
H168 H 0.89926 0.79475 0.44444 0.0
H169 H 0.92822 0.84763 0.3856 0.0
H170 H 0.97493 0.73352 0.28929 0.0
H171 H 0.95795 0.63766 0.32496 0.0
C172 C 0.92746 0.6313 0.39712 0.0
C173 C 0.91382 0.63455 0.43531 0.0
C174 C 0.93352 0.68661 0.37611 0.0
C175 C 0.90182 0.6941 0.45173 0.0
C176 C 0.90694 0.74948 0.43084 0.0
C177 C 0.93457 0.80177 0.37246 0.0
C178 C 0.95352 0.79791 0.3349 0.0
C179 C 0.92446 0.74638 0.39317 0.0
C180 C 0.96076 0.73806 0.31818 0.0
C181 C 0.95092 0.68305 0.33854 0.0
loop_
_geom_bond_atom_site_label_1
_geom_bond_atom_site_label_2
_geom_bond_distance
_geom_bond_site_symmetry_2
_ccdc_geom_bond_type
Mg0 O7 2.141 . S
Mg0 O8 2.048 1_554 S
Mg0 O9 2.048 1_554 S
Mg0 O12 2.141 . S
C1 O2 1.313 . S
C1 O8 1.195 1_565 S
O2 C1 1.313 . S
C3 O4 1.245 . S
C3 O12 1.289 1_565 S
O4 C3 1.245 . S
C5 O6 1.245 . S
C5 O7 1.289 1_565 S
O6 C5 1.245 . S
O7 Mg0 2.141 . S
O7 C5 1.289 1_545 S
O8 Mg0 2.048 1_556 S
O8 C1 1.195 1_545 S
O9 Mg0 2.048 1_556 S
O9 C10 1.195 1_545 S
C10 O9 1.195 1_565 S
C10 O11 1.313 . S
O11 C10 1.313 . S
O12 Mg0 2.141 . S
O12 C3 1.289 1_545 S
Mg13 O20 2.141 . S
Mg13 O21 2.048 . S
Mg13 O22 2.048 . S
Mg13 O25 2.141 . S
C14 O15 1.313 . S
C14 O21 1.195 1_455 S
O15 C14 1.313 . S
C16 O17 1.245 . S
C16 O25 1.289 1_455 S
O17 C16 1.245 . S
C18 O19 1.245 . S
C18 O20 1.289 1_455 S
O19 C18 1.245 . S
O20 Mg13 2.141 . S
O20 C18 1.289 1_655 S
O21 Mg13 2.048 . S
O21 C14 1.195 1_655 S
O22 Mg13 2.048 . S
O22 C23 1.195 1_655 S
C23 O22 1.195 1_455 S
C23 O24 1.313 . S
O24 C23 1.313 . S
O25 Mg13 2.141 . S
O25 C16 1.289 1_655 S
O26 Cd27 2.223 1_655 S
O26 C34 1.315 . S
Cd27 O26 2.223 1_455 S
Cd27 O30 2.297 1_455 S
Cd27 O31 2.439 1_455 S
Cd27 O37 2.240 1_565 S
Cd28 O29 2.240 1_545 S
Cd28 O36 2.223 1_655 S
Cd28 O38 2.297 1_655 S
Cd28 O39 2.439 1_655 S
O29 Cd28 2.240 1_565 S
O29 C34 1.279 . S
O30 Cd27 2.297 1_655 S
O30 C32 1.247 . S
O31 Cd27 2.439 1_655 S
O31 C32 1.208 . S
C32 O30 1.247 . S
C32 O31 1.208 . S
C33 O38 1.247 . S
C33 O39 1.208 . S
C34 O26 1.315 . S
C34 O29 1.279 . S
C35 O36 1.315 . S
C35 O37 1.279 . S
O36 Cd28 2.223 1_455 S
O36 C35 1.315 . S
O37 Cd27 2.240 1_545 S
O37 C35 1.279 . S
O38 Cd28 2.297 1_455 S
O38 C33 1.247 . S
O39 Cd28 2.439 1_455 S
O39 C33 1.208 . S
O40 Cd41 2.223 1_655 S
O40 C48 1.315 . S
Cd41 O40 2.223 1_455 S
Cd41 O44 2.297 1_455 S
Cd41 O45 2.439 1_455 S
Cd41 O51 2.240 1_545 S
Cd42 O43 2.240 1_565 S
Cd42 O50 2.223 1_655 S
Cd42 O52 2.297 1_655 S
Cd42 O53 2.439 1_655 S
O43 Cd42 2.240 1_545 S
O43 C48 1.279 . S
O44 Cd41 2.297 1_655 S
O44 C46 1.247 . S
O45 Cd41 2.439 1_655 S
O45 C46 1.208 . S
C46 O44 1.247 . S
C46 O45 1.208 . S
C47 O52 1.247 . S
C47 O53 1.208 . S
C48 O40 1.315 . S
C48 O43 1.279 . S
C49 O50 1.315 . S
C49 O51 1.279 . S
O50 Cd42 2.223 1_455 S
O50 C49 1.315 . S
O51 Cd41 2.240 1_565 S
O51 C49 1.279 . S
O52 Cd42 2.297 1_455 S
O52 C47 1.247 . S
O53 Cd42 2.439 1_455 S
O53 C47 1.208 . S
H54 C60 0.930 . S
H55 C63 0.930 . S
H56 C64 0.930 . S
H57 C65 0.930 . S
H58 C68 0.930 . S
H59 C69 0.930 . S
C60 H54 0.930 . S
C60 C61 1.355 . S
C60 C62 1.415 . S
C61 C60 1.355 . S
C61 C63 1.419 . S
C62 C60 1.415 . S
C62 C67 1.425 . S
C62 C69 1.409 . S
C63 H55 0.930 . S
C63 C61 1.419 . S
C63 C64 1.362 . S
C64 H56 0.930 . S
C64 C63 1.362 . S
C64 C67 1.409 . S
C65 H57 0.930 . S
C65 C66 1.355 . S
C65 C67 1.415 . S
C66 C65 1.355 . S
C66 C68 1.419 . S
C67 C62 1.425 . S
C67 C64 1.409 . S
C67 C65 1.415 . S
C68 H58 0.930 . S
C68 C66 1.419 . S
C68 C69 1.362 . S
C69 H59 0.930 . S
C69 C62 1.409 . S
C69 C68 1.362 . S
H70 C76 0.930 . S
H71 C79 0.930 . S
H72 C80 0.930 . S
H73 C81 0.930 1_455 S
H74 C84 0.930 . S
H75 C85 0.930 . S
C76 H70 0.930 . S
C76 C77 1.357 . S
C76 C78 1.415 . S
C77 C76 1.357 . S
C77 C79 1.417 1_655 S
C78 C76 1.415 . S
C78 C83 1.425 . S
C78 C85 1.409 . S
C79 H71 0.930 . S
C79 C77 1.417 1_455 S
C79 C80 1.362 . S
C80 H72 0.930 . S
C80 C79 1.362 . S
C80 C83 1.409 1_455 S
C81 H73 0.930 1_655 S
C81 C82 1.355 . S
C81 C83 1.415 . S
C82 C81 1.355 . S
C82 C84 1.419 . S
C83 C78 1.425 . S
C83 C80 1.409 1_655 S
C83 C81 1.415 . S
C84 H74 0.930 . S
C84 C82 1.419 . S
C84 C85 1.362 . S
C85 H75 0.930 . S
C85 C78 1.409 . S
C85 C84 1.362 . S
H86 C92 0.930 1_545 S
H87 C95 0.930 . S
H88 C96 0.930 . S
H89 C97 0.930 . S
H90 C100 0.930 . S
H91 C101 0.930 1_545 S
C92 H86 0.930 1_565 S
C92 C93 1.355 . S
C92 C94 1.415 . S
C93 C92 1.355 . S
C93 C95 1.419 . S
C94 C92 1.415 . S
C94 C99 1.425 . S
C94 C101 1.409 . S
C95 H87 0.930 . S
C95 C93 1.419 . S
C95 C96 1.362 . S
C96 H88 0.930 . S
C96 C95 1.362 . S
C96 C99 1.409 . S
C97 H89 0.930 . S
C97 C98 1.355 . S
C97 C99 1.415 . S
C98 C97 1.355 . S
C98 C100 1.419 . S
C99 C94 1.425 . S
C99 C96 1.409 . S
C99 C97 1.415 . S
C100 H90 0.930 . S
C100 C98 1.419 . S
C100 C101 1.362 . S
C101 H91 0.930 1_565 S
C101 C94 1.409 . S
C101 C100 1.362 . S
H102 C108 0.930 . S
H103 C111 0.930 . S
H104 C112 0.930 . S
H105 C113 0.930 . S
H106 C116 0.930 . S
H107 C117 0.930 . S
C108 H102 0.930 . S
C108 C109 1.355 . S
C108 C110 1.415 . S
C109 C108 1.355 . S
C109 C111 1.419 1_455 S
C110 C108 1.415 . S
C110 C115 1.425 . S
C110 C117 1.409 . S
C111 H103 0.930 . S
C111 C109 1.419 1_655 S
C111 C112 1.362 . S
C112 H104 0.930 . S
C112 C111 1.362 . S
C112 C115 1.409 1_655 S
C113 H105 0.930 . S
C113 C114 1.355 . S
C113 C115 1.415 . S
C114 C113 1.355 . S
C114 C116 1.419 . S
C115 C110 1.425 . S
C115 C112 1.409 1_455 S
C115 C113 1.415 . S
C116 H106 0.930 . S
C116 C114 1.419 . S
C116 C117 1.362 . S
C117 H107 0.930 . S
C117 C110 1.409 . S
C117 C116 1.362 . S
H118 C124 0.930 . S
H119 C127 0.930 . S
H120 C128 0.930 . S
H121 C129 0.930 1_545 S
H122 C132 0.930 . S
H123 C133 0.930 . S
C124 H118 0.930 . S
C124 C125 1.345 1_565 S
C124 C126 1.415 . S
C125 C124 1.345 1_545 S
C125 C127 1.429 . S
C126 C124 1.415 . S
C126 C131 1.432 . S
C126 C133 1.409 . S
C127 H119 0.930 . S
C127 C125 1.429 . S
C127 C128 1.362 . S
C128 H120 0.930 . S
C128 C127 1.362 . S
C128 C131 1.402 1_545 S
C129 H121 0.930 1_565 S
C129 C130 1.355 . S
C129 C131 1.415 . S
C130 C129 1.355 . S
C130 C132 1.419 . S
C131 C126 1.432 . S
C131 C128 1.402 1_565 S
C131 C129 1.415 . S
C132 H122 0.930 . S
C132 C130 1.419 . S
C132 C133 1.362 . S
C133 H123 0.930 . S
C133 C126 1.409 . S
C133 C132 1.362 . S
H134 C140 0.930 . S
H135 C143 0.930 . S
H136 C144 0.930 . S
H137 C145 0.930 . S
H138 C148 0.930 . S
H139 C149 0.930 . S
C140 H134 0.930 . S
C140 C141 1.348 1_455 S
C140 C142 1.415 . S
C141 C140 1.348 1_655 S
C141 C143 1.426 . S
C142 C140 1.415 . S
C142 C147 1.425 1_455 S
C142 C149 1.409 . S
C143 H135 0.930 . S
C143 C141 1.426 . S
C143 C144 1.362 . S
C144 H136 0.930 . S
C144 C143 1.362 . S
C144 C147 1.409 . S
C145 H137 0.930 . S
C145 C146 1.355 1_655 S
C145 C147 1.415 . S
C146 C145 1.355 1_455 S
C146 C148 1.419 . S
C147 C142 1.425 1_655 S
C147 C144 1.409 . S
C147 C145 1.415 . S
C148 H138 0.930 . S
C148 C146 1.419 . S
C148 C149 1.362 . S
C149 H139 0.930 . S
C149 C142 1.409 . S
C149 C148 1.362 . S
H150 C156 0.930 . S
H151 C159 0.930 . S
H152 C160 0.930 . S
H153 C161 0.930 . S
H154 C164 0.930 . S
H155 C165 0.930 . S
C156 H150 0.930 . S
C156 C157 1.355 1_565 S
C156 C158 1.415 1_565 S
C157 C156 1.355 1_545 S
C157 C159 1.419 . S
C158 C156 1.415 1_545 S
C158 C163 1.425 . S
C158 C165 1.409 1_545 S
C159 H151 0.930 . S
C159 C157 1.419 . S
C159 C160 1.362 . S
C160 H152 0.930 . S
C160 C159 1.362 . S
C160 C163 1.409 . S
C161 H153 0.930 . S
C161 C162 1.355 . S
C161 C163 1.415 . S
C162 C161 1.355 . S
C162 C164 1.419 1_545 S
C163 C158 1.425 . S
C163 C160 1.409 . S
C163 C161 1.415 . S
C164 H154 0.930 . S
C164 C162 1.419 1_565 S
C164 C165 1.362 . S
C165 H155 0.930 . S
C165 C158 1.409 1_565 S
C165 C164 1.362 . S
H166 C172 0.930 . S
H167 C175 0.930 . S
H168 C176 0.930 . S
H169 C177 0.930 1_455 S
H170 C180 0.930 . S
H171 C181 0.930 . S
C172 H166 0.930 . S
C172 C173 1.356 . S
C172 C174 1.415 . S
C173 C172 1.356 . S
C173 C175 1.418 1_655 S
C174 C172 1.415 . S
C174 C179 1.425 . S
C174 C181 1.409 . S
C175 H167 0.930 . S
C175 C173 1.418 1_455 S
C175 C176 1.362 . S
C176 H168 0.930 . S
C176 C175 1.362 . S
C176 C179 1.409 1_455 S
C177 H169 0.930 1_655 S
C177 C178 1.355 . S
C177 C179 1.415 . S
C178 C177 1.355 . S
C178 C180 1.419 . S
C179 C174 1.425 . S
C179 C176 1.409 1_655 S
C179 C177 1.415 . S
C180 H170 0.930 . S
C180 C178 1.419 . S
C180 C181 1.362 . S
C181 H171 0.930 . S
C181 C174 1.409 . S
C181 C180 1.362 . S
C66 C35 1.501 . S
C61 C5 1.496 1_545 S
C82 C46 1.543 . S
C77 C23 1.587 1_655 S
C98 C34 1.502 . S
C93 C3 1.465 . S
C114 C47 1.541 . S
C109 C14 1.573 . S
C130 C49 1.556 . S
C125 C1 1.554 1_545 S
C146 C33 1.502 . S
C141 C16 1.518 1_655 S
C162 C48 1.556 . S
C157 C10 1.560 1_545 S
C173 C18 1.519 1_655 S
C178 C32 1.482 . S
