# Generated by pormake.
# Topology bcu-b, (8,8)-cn, num edge types: 1
# Building blocks:
#     Node 0, Type 0, BuildingBlock: TAGTUT_clean_sbu_1, # of connection points: 8
#     Node 1, Type 1, BuildingBlock: VETTIZ_charged_sbu_0, # of connection points: 8
#     Edge 2, Type (0, 1), BuildingBlock: XIVTED_clean_linker_0, # of connection points: 2
#     Edge 3, Type (0, 1), BuildingBlock: XIVTED_clean_linker_0, # of connection points: 2
#     Edge 4, Type (0, 1), BuildingBlock: XIVTED_clean_linker_0, # of connection points: 2
#     Edge 5, Type (0, 1), BuildingBlock: XIVTED_clean_linker_0, # of connection points: 2
#     Edge 6, Type (0, 1), BuildingBlock: XIVTED_clean_linker_0, # of connection points: 2
#     Edge 7, Type (0, 1), BuildingBlock: XIVTED_clean_linker_0, # of connection points: 2
#     Edge 8, Type (0, 1), BuildingBlock: XIVTED_clean_linker_0, # of connection points: 2
#     Edge 9, Type (0, 1), BuildingBlock: XIVTED_clean_linker_0, # of connection points: 2
# Relax obj value: 0.028
# Max RMSD: 0.120
# Mean RMSD: 0.087
data_MOF--net-bcu-b--node1-TAGTUT_clean_sbu_1--node2-VETTIZ_charged_sbu_0--edge1-XIVTED_clean_linker_0
_symmetry_space_group_name_H-M    P1
_symmetry_Int_Tables_number       1
_symmetry_cell_setting            triclinic
loop_
_symmetry_equiv_pos_as_xyz
'x, y, z'
_cell_length_a     20.384689
_cell_length_b     18.773122
_cell_length_c     20.854983
_cell_angle_alpha  90.817692
_cell_angle_beta   91.222401
_cell_angle_gamma 99.787986
loop_
_atom_site_label
_atom_site_type_symbol
_atom_site_fract_x
_atom_site_fract_y
_atom_site_fract_z
_atom_type_partial_charge
C0 C 0.82508 0.17758 0.06807 0.0
C1 C 0.89117 0.15954 0.8744 0.0
C2 C 0.89412 0.88027 0.92627 0.0
Mg3 Mg 0.96224 0.18022 0.00546 0.0
O4 O 0.94083 0.08115 0.02191 0.0
Mg5 Mg 0.85364 0.02894 0.98593 0.0
Mg6 Mg 0.00025 1.01555 -0.01089 0.0
O7 O 0.05934 0.94974 0.95629 0.0
Mg8 Mg 0.03711 0.85074 0.97322 0.0
Mg9 Mg 0.14656 1.00159 -0.00774 0.0
C10 C 0.10602 0.1511 0.05135 0.0
C11 C 0.09404 0.09808 0.87957 0.0
O12 O 0.80567 0.11368 0.04406 0.0
O13 O 0.88402 0.21272 0.06052 0.0
O14 O 0.85699 0.10196 0.8967 0.0
O15 O 0.93933 0.19662 0.90659 0.0
O16 O 0.06576 0.19538 0.03933 0.0
O17 O 0.08869 0.08222 0.04335 0.0
C18 C 0.90655 0.93272 0.09858 0.0
O19 O 0.9652 0.94435 0.07549 0.0
O20 O 0.85806 0.95928 0.07388 0.0
O21 O 0.19403 0.91603 0.93432 0.0
O22 O 0.11515 0.81723 0.91885 0.0
O23 O 0.14278 0.92875 0.08158 0.0
C24 C 0.17419 0.85188 0.91096 0.0
O25 O 0.05981 0.83465 0.07223 0.0
O26 O 0.93379 0.83542 0.93846 0.0
C27 C 0.10828 0.87153 0.10417 0.0
O28 O 0.91197 0.94895 0.93493 0.0
O29 O 0.0354 0.08677 0.90274 0.0
O30 O 0.14239 0.07121 0.90421 0.0
Fe31 Fe 0.52405 0.68201 0.46523 0.0
O32 O 0.50681 0.57637 0.45456 0.0
Fe33 Fe 0.57673 0.51819 0.4946 0.0
Fe34 Fe 0.42385 0.51422 0.4841 0.0
O35 O 0.51344 0.57664 0.45536 0.0
O36 O 0.49375 0.45601 0.52416 0.0
O37 O 0.48708 0.45576 0.5234 0.0
Fe38 Fe 0.47618 0.35035 0.51304 0.0
C39 C 0.42823 0.64063 0.57472 0.0
O40 O 0.44875 0.67375 0.39705 0.0
O41 O 0.36849 0.58518 0.43798 0.0
O42 O 0.54902 0.34783 0.44631 0.0
O43 O 0.57434 0.46 0.4101 0.0
O44 O 0.65564 0.59177 0.4564 0.0
O45 O 0.6035 0.6775 0.40693 0.0
O46 O 0.41836 0.45532 0.39918 0.0
O47 O 0.40752 0.34476 0.43901 0.0
C48 C 0.65438 0.64564 0.41775 0.0
O49 O 0.55187 0.35805 0.58078 0.0
O50 O 0.6321 0.44706 0.54042 0.0
O51 O 0.4508 0.68457 0.53136 0.0
O52 O 0.4261 0.57275 0.56852 0.0
C53 C 0.3876 0.641 0.40204 0.0
C54 C 0.4036 0.3869 0.39248 0.0
C55 C 0.34627 0.38679 0.56112 0.0
O56 O 0.34494 0.44059 0.52237 0.0
O57 O 0.39717 0.35491 0.57185 0.0
C58 C 0.57226 0.3922 0.4035 0.0
O59 O 0.5825 0.5771 0.57952 0.0
O60 O 0.59188 0.68788 0.53987 0.0
C61 C 0.613 0.39091 0.57596 0.0
C62 C 0.59577 0.6456 0.58632 0.0
H63 H 0.18838 0.08129 0.12447 0.0
H64 H 0.36298 0.45431 0.28579 0.0
H65 H 0.16996 0.29092 0.05085 0.0
H66 H 0.3839 0.24429 0.35715 0.0
H67 H 0.30857 0.39558 0.18843 0.0
H68 H 0.27795 0.13945 0.19724 0.0
C69 C 0.20429 0.13927 0.1224 0.0
C70 C 0.17064 0.18149 0.08264 0.0
C71 C 0.32575 0.36245 0.22515 0.0
C72 C 0.272 0.24851 0.16643 0.0
C73 C 0.35672 0.39602 0.28078 0.0
C74 C 0.37663 0.35412 0.33038 0.0
C75 C 0.31455 0.28654 0.21923 0.0
C76 C 0.36796 0.27876 0.32087 0.0
C77 C 0.25512 0.1726 0.16431 0.0
C78 C 0.19354 0.25642 0.08183 0.0
N79 N 0.3369 0.24741 0.26686 0.0
N80 N 0.24194 0.28766 0.12393 0.0
H81 H 0.70809 0.11228 0.12056 0.0
H82 H 0.65379 0.46755 0.31553 0.0
H83 H 0.8379 0.31871 0.10861 0.0
H84 H 0.55713 0.25185 0.36062 0.0
H85 H 0.70855 0.41737 0.22636 0.0
H86 H 0.63917 0.16656 0.19546 0.0
C87 C 0.72175 0.16914 0.13309 0.0
C88 C 0.77928 0.21079 0.10868 0.0
C89 C 0.67506 0.38113 0.25562 0.0
C90 C 0.70062 0.27314 0.19435 0.0
C91 C 0.64367 0.40976 0.30642 0.0
C92 C 0.60156 0.36377 0.3462 0.0
C93 C 0.66376 0.30606 0.24413 0.0
C94 C 0.58998 0.28927 0.33183 0.0
C95 C 0.68252 0.2 0.17604 0.0
C96 C 0.79444 0.28427 0.12671 0.0
N97 N 0.62111 0.26274 0.28215 0.0
N98 N 0.75553 0.31299 0.1686 0.0
H99 H 0.92865 0.79472 0.1204 0.0
H100 H 0.72068 0.77969 0.44182 0.0
H101 H 0.85234 0.97274 0.20699 0.0
H102 H 0.7253 0.59031 0.32413 0.0
H103 H 0.80417 0.84891 0.37448 0.0
H104 H 0.88643 0.71849 0.2112 0.0
C105 C 0.90463 0.81807 0.15939 0.0
C106 C 0.8934 0.88964 0.15659 0.0
C107 C 0.78813 0.79184 0.36402 0.0
C108 C 0.84598 0.80403 0.2596 0.0
C109 C 0.7409 0.75234 0.40265 0.0
C110 C 0.71628 0.67963 0.38804 0.0
C111 C 0.80998 0.75871 0.30957 0.0
C112 C 0.74349 0.6464 0.33675 0.0
C113 C 0.88033 0.77468 0.21075 0.0
C114 C 0.86147 0.91757 0.20749 0.0
N115 N 0.78828 0.68666 0.29835 0.0
N116 N 0.83871 0.87468 0.25674 0.0
H117 H 0.07017 0.73571 0.15291 0.0
H118 H 0.3963 0.78283 0.37568 0.0
H119 H 0.20218 0.93806 0.1909 0.0
H120 H 0.26275 0.57888 0.3541 0.0
H121 H 0.31715 0.84149 0.31735 0.0
H122 H 0.12927 0.6795 0.23646 0.0
C123 C 0.11057 0.7688 0.17971 0.0
C124 C 0.13214 0.84149 0.16389 0.0
C125 C 0.30458 0.78396 0.32534 0.0
C126 C 0.20016 0.77719 0.25897 0.0
C127 C 0.35018 0.75015 0.35835 0.0
C128 C 0.33673 0.67544 0.36868 0.0
C129 C 0.24494 0.74298 0.30132 0.0
C130 C 0.27527 0.63648 0.34659 0.0
C131 C 0.14448 0.73646 0.2272 0.0
C132 C 0.18448 0.88162 0.20053 0.0
N133 N 0.23186 0.67059 0.31301 0.0
N134 N 0.21714 0.8487 0.24563 0.0
H135 H 0.16087 0.70975 0.87365 0.0
H136 H 0.44775 0.78077 0.6182 0.0
H137 H 0.29053 0.91547 0.85606 0.0
H138 H 0.34442 0.56747 0.66223 0.0
H139 H 0.39354 0.83035 0.70757 0.0
H140 H 0.22988 0.65592 0.79917 0.0
C141 C 0.20415 0.74359 0.85448 0.0
C142 C 0.21954 0.81751 0.87076 0.0
C143 C 0.38307 0.77263 0.69807 0.0
C144 C 0.29867 0.75604 0.78494 0.0
C145 C 0.41381 0.74424 0.64684 0.0
C146 C 0.3999 0.66989 0.63215 0.0
C147 C 0.33742 0.72653 0.73457 0.0
C148 C 0.35628 0.62513 0.67156 0.0
C149 C 0.24366 0.71267 0.81204 0.0
C150 C 0.27663 0.85836 0.84481 0.0
N151 N 0.32598 0.65427 0.72052 0.0
N152 N 0.3137 0.82724 0.80262 0.0
H153 H 0.0713 0.23588 0.85781 0.0
H154 H 0.27969 0.253 0.53648 0.0
H155 H 0.14932 0.05886 0.77142 0.0
H156 H 0.27578 0.44162 0.65538 0.0
H157 H 0.19639 0.18339 0.60381 0.0
H158 H 0.11372 0.31261 0.76736 0.0
C159 C 0.09575 0.21285 0.81894 0.0
C160 C 0.1074 0.14142 0.82172 0.0
C161 C 0.21253 0.24039 0.61452 0.0
C162 C 0.15497 0.22759 0.71907 0.0
C163 C 0.25964 0.28011 0.5759 0.0
C164 C 0.2844 0.35272 0.59084 0.0
C165 C 0.19089 0.2732 0.66924 0.0
C166 C 0.25745 0.38563 0.64248 0.0
C167 C 0.12016 0.25653 0.76779 0.0
C168 C 0.13986 0.11391 0.77096 0.0
N169 N 0.21273 0.34517 0.68082 0.0
N170 N 0.16267 0.15706 0.72188 0.0
H171 H 0.92958 0.29531 0.82569 0.0
H172 H 0.60456 0.24884 0.60123 0.0
H173 H 0.79703 0.09331 0.7877 0.0
H174 H 0.7375 0.45296 0.62481 0.0
H175 H 0.68342 0.18996 0.65978 0.0
H176 H 0.87085 0.35168 0.74199 0.0
C177 C 0.88912 0.26233 0.79887 0.0
C178 C 0.86732 0.18968 0.81472 0.0
C179 C 0.69591 0.24757 0.65217 0.0
C180 C 0.79974 0.25419 0.71942 0.0
C181 C 0.6505 0.28151 0.61903 0.0
C182 C 0.66384 0.35632 0.60921 0.0
C183 C 0.75526 0.28854 0.67685 0.0
C184 C 0.72506 0.39527 0.63189 0.0
C185 C 0.85543 0.29476 0.75129 0.0
C186 C 0.81493 0.1497 0.77804 0.0
N187 N 0.76829 0.36103 0.6656 0.0
N188 N 0.78249 0.18272 0.73283 0.0
H189 H 0.81273 0.9528 0.85512 0.0
H190 H 0.58407 0.77897 0.63185 0.0
H191 H 0.8297 0.74042 0.92287 0.0
H192 H 0.66294 0.58776 0.68296 0.0
H193 H 0.63645 0.8403 0.72785 0.0
H194 H 0.72346 0.8985 0.78183 0.0
C195 C 0.79616 0.89487 0.85601 0.0
C196 C 0.82954 0.85106 0.89434 0.0
C197 C 0.64326 0.78535 0.71822 0.0
C198 C 0.72661 0.78756 0.81036 0.0
C199 C 0.61281 0.75 0.66341 0.0
C200 C 0.62076 0.67883 0.6486 0.0
C201 C 0.68324 0.74972 0.758 0.0
C202 C 0.6564 0.64301 0.69215 0.0
C203 C 0.7448 0.86345 0.81388 0.0
C204 C 0.80616 0.77621 0.89326 0.0
N205 N 0.68722 0.67928 0.74441 0.0
N206 N 0.75701 0.74681 0.85114 0.0
loop_
_geom_bond_atom_site_label_1
_geom_bond_atom_site_label_2
_geom_bond_distance
_geom_bond_site_symmetry_2
_ccdc_geom_bond_type
C0 O12 1.241 . S
C0 O13 1.280 . S
C1 O14 1.277 . S
C1 O15 1.245 . S
C2 O26 1.247 . S
C2 O28 1.289 . S
Mg3 O4 1.926 . S
Mg3 O13 1.984 . S
Mg3 O15 1.988 1_554 S
Mg3 O16 2.061 1_655 S
O4 Mg3 1.926 . S
O4 Mg5 1.986 . S
O4 Mg6 1.917 1_655 S
Mg5 O4 1.986 . S
Mg5 O12 2.042 . S
Mg5 O14 2.041 1_554 S
Mg5 O20 2.038 1_545 S
Mg5 O28 2.238 1_544 S
Mg6 O4 1.917 1_455 S
Mg6 O7 1.917 1_544 S
Mg6 O17 2.106 . S
Mg6 O19 2.079 1_445 S
Mg6 O28 2.106 1_444 S
Mg6 O29 2.079 1_554 S
O7 Mg6 1.917 1_566 S
O7 Mg8 1.926 . S
O7 Mg9 1.986 1_556 S
Mg8 O7 1.926 . S
Mg8 O22 1.984 . S
Mg8 O25 1.988 1_556 S
Mg8 O26 2.061 1_455 S
Mg9 O7 1.986 1_554 S
Mg9 O17 2.238 1_565 S
Mg9 O21 2.042 1_554 S
Mg9 O23 2.041 . S
Mg9 O30 2.038 1_564 S
C10 O16 1.247 . S
C10 O17 1.289 . S
C11 O29 1.245 . S
C11 O30 1.274 . S
O12 C0 1.241 . S
O12 Mg5 2.042 . S
O13 C0 1.280 . S
O13 Mg3 1.984 . S
O14 C1 1.277 . S
O14 Mg5 2.041 1_556 S
O15 C1 1.245 . S
O15 Mg3 1.988 1_556 S
O16 Mg3 2.061 1_455 S
O16 C10 1.247 . S
O17 Mg6 2.106 . S
O17 Mg9 2.238 1_545 S
O17 C10 1.289 . S
C18 O19 1.245 . S
C18 O20 1.274 . S
O19 Mg6 2.079 1_665 S
O19 C18 1.245 . S
O20 Mg5 2.038 1_565 S
O20 C18 1.274 . S
O21 Mg9 2.042 1_556 S
O21 C24 1.241 . S
O22 Mg8 1.984 . S
O22 C24 1.280 . S
O23 Mg9 2.041 . S
O23 C27 1.277 . S
C24 O21 1.241 . S
C24 O22 1.280 . S
O25 Mg8 1.988 1_554 S
O25 C27 1.245 . S
O26 C2 1.247 . S
O26 Mg8 2.061 1_655 S
C27 O23 1.277 . S
C27 O25 1.245 . S
O28 C2 1.289 . S
O28 Mg5 2.238 1_566 S
O28 Mg6 2.106 1_666 S
O29 Mg6 2.079 1_556 S
O29 C11 1.245 . S
O30 Mg9 2.038 1_546 S
O30 C11 1.274 . S
Fe31 O32 1.886 . S
Fe31 O35 1.715 . S
Fe31 O40 2.077 . S
Fe31 O45 1.935 . S
Fe31 O51 2.077 . S
Fe31 O60 1.935 . S
O32 Fe31 1.886 . S
O32 Fe34 1.715 . S
Fe33 O35 1.886 . S
Fe33 O36 1.715 . S
Fe33 O43 1.935 . S
Fe33 O44 2.077 . S
Fe33 O50 1.935 . S
Fe33 O59 2.077 . S
Fe34 O32 1.715 . S
Fe34 O37 1.886 . S
Fe34 O41 1.935 . S
Fe34 O46 2.077 . S
Fe34 O52 1.935 . S
Fe34 O56 2.077 . S
O35 Fe31 1.715 . S
O35 Fe33 1.886 . S
O36 Fe33 1.715 . S
O36 Fe38 1.886 . S
O37 Fe34 1.886 . S
O37 Fe38 1.715 . S
Fe38 O36 1.886 . S
Fe38 O37 1.715 . S
Fe38 O42 2.077 . S
Fe38 O47 1.935 . S
Fe38 O49 2.077 . S
Fe38 O57 1.935 . S
C39 O51 1.381 . S
C39 O52 1.421 . S
O40 Fe31 2.077 . S
O40 C53 1.381 . S
O41 Fe34 1.935 . S
O41 C53 1.421 . S
O42 Fe38 2.077 . S
O42 C58 1.381 . S
O43 Fe33 1.935 . S
O43 C58 1.421 . S
O44 Fe33 2.077 . S
O44 C48 1.381 . S
O45 Fe31 1.935 . S
O45 C48 1.421 . S
O46 Fe34 2.077 . S
O46 C54 1.381 . S
O47 Fe38 1.935 . S
O47 C54 1.421 . S
C48 O44 1.381 . S
C48 O45 1.421 . S
O49 Fe38 2.077 . S
O49 C61 1.381 . S
O50 Fe33 1.935 . S
O50 C61 1.421 . S
O51 Fe31 2.077 . S
O51 C39 1.381 . S
O52 Fe34 1.935 . S
O52 C39 1.421 . S
C53 O40 1.381 . S
C53 O41 1.421 . S
C54 O46 1.381 . S
C54 O47 1.421 . S
C55 O56 1.381 . S
C55 O57 1.421 . S
O56 Fe34 2.077 . S
O56 C55 1.381 . S
O57 Fe38 1.935 . S
O57 C55 1.421 . S
C58 O42 1.381 . S
C58 O43 1.421 . S
O59 Fe33 2.077 . S
O59 C62 1.381 . S
O60 Fe31 1.935 . S
O60 C62 1.421 . S
C61 O49 1.381 . S
C61 O50 1.421 . S
C62 O59 1.381 . S
C62 O60 1.421 . S
H63 C69 0.930 . S
H64 C73 0.930 . S
H65 C78 0.929 . S
H66 C76 0.929 . S
H67 C71 0.929 . S
H68 C77 0.929 . S
C69 H63 0.930 . S
C69 C70 1.367 . S
C69 C77 1.378 . S
C70 C69 1.367 . S
C70 C78 1.433 . S
C71 H67 0.929 . S
C71 C73 1.378 . S
C71 C75 1.350 . S
C72 C75 1.463 . S
C72 C77 1.350 . S
C72 N80 1.427 . S
C73 H64 0.930 . S
C73 C71 1.378 . S
C73 C74 1.367 . S
C74 C73 1.367 . S
C74 C76 1.433 . S
C75 C71 1.350 . S
C75 C72 1.463 . S
C75 N79 1.427 . S
C76 H66 0.929 . S
C76 C74 1.433 . S
C76 N79 1.384 . S
C77 H68 0.929 . S
C77 C69 1.378 . S
C77 C72 1.350 . S
C78 H65 0.929 . S
C78 C70 1.433 . S
C78 N80 1.384 . S
N79 C75 1.427 . S
N79 C76 1.384 . S
N80 C72 1.427 . S
N80 C78 1.384 . S
H81 C87 0.930 . S
H82 C91 0.930 . S
H83 C96 0.929 . S
H84 C94 0.929 . S
H85 C89 0.929 . S
H86 C95 0.929 . S
C87 H81 0.930 . S
C87 C88 1.367 . S
C87 C95 1.378 . S
C88 C87 1.367 . S
C88 C96 1.433 . S
C89 H85 0.929 . S
C89 C91 1.378 . S
C89 C93 1.350 . S
C90 C93 1.463 . S
C90 C95 1.350 . S
C90 N98 1.427 . S
C91 H82 0.930 . S
C91 C89 1.378 . S
C91 C92 1.367 . S
C92 C91 1.367 . S
C92 C94 1.433 . S
C93 C89 1.350 . S
C93 C90 1.463 . S
C93 N97 1.427 . S
C94 H84 0.929 . S
C94 C92 1.433 . S
C94 N97 1.384 . S
C95 H86 0.929 . S
C95 C87 1.378 . S
C95 C90 1.350 . S
C96 H83 0.929 . S
C96 C88 1.433 . S
C96 N98 1.384 . S
N97 C93 1.427 . S
N97 C94 1.384 . S
N98 C90 1.427 . S
N98 C96 1.384 . S
H99 C105 0.930 . S
H100 C109 0.930 . S
H101 C114 0.929 . S
H102 C112 0.929 . S
H103 C107 0.929 . S
H104 C113 0.929 . S
C105 H99 0.930 . S
C105 C106 1.367 . S
C105 C113 1.378 . S
C106 C105 1.367 . S
C106 C114 1.433 . S
C107 H103 0.929 . S
C107 C109 1.378 . S
C107 C111 1.350 . S
C108 C111 1.463 . S
C108 C113 1.350 . S
C108 N116 1.427 . S
C109 H100 0.930 . S
C109 C107 1.378 . S
C109 C110 1.367 . S
C110 C109 1.367 . S
C110 C112 1.433 . S
C111 C107 1.350 . S
C111 C108 1.463 . S
C111 N115 1.427 . S
C112 H102 0.929 . S
C112 C110 1.433 . S
C112 N115 1.384 . S
C113 H104 0.929 . S
C113 C105 1.378 . S
C113 C108 1.350 . S
C114 H101 0.929 . S
C114 C106 1.433 . S
C114 N116 1.384 . S
N115 C111 1.427 . S
N115 C112 1.384 . S
N116 C108 1.427 . S
N116 C114 1.384 . S
H117 C123 0.930 . S
H118 C127 0.930 . S
H119 C132 0.929 . S
H120 C130 0.929 . S
H121 C125 0.929 . S
H122 C131 0.929 . S
C123 H117 0.930 . S
C123 C124 1.367 . S
C123 C131 1.378 . S
C124 C123 1.367 . S
C124 C132 1.433 . S
C125 H121 0.929 . S
C125 C127 1.378 . S
C125 C129 1.350 . S
C126 C129 1.463 . S
C126 C131 1.350 . S
C126 N134 1.427 . S
C127 H118 0.930 . S
C127 C125 1.378 . S
C127 C128 1.367 . S
C128 C127 1.367 . S
C128 C130 1.433 . S
C129 C125 1.350 . S
C129 C126 1.463 . S
C129 N133 1.427 . S
C130 H120 0.929 . S
C130 C128 1.433 . S
C130 N133 1.384 . S
C131 H122 0.929 . S
C131 C123 1.378 . S
C131 C126 1.350 . S
C132 H119 0.929 . S
C132 C124 1.433 . S
C132 N134 1.384 . S
N133 C129 1.427 . S
N133 C130 1.384 . S
N134 C126 1.427 . S
N134 C132 1.384 . S
H135 C141 0.930 . S
H136 C145 0.930 . S
H137 C150 0.929 . S
H138 C148 0.929 . S
H139 C143 0.929 . S
H140 C149 0.929 . S
C141 H135 0.930 . S
C141 C142 1.367 . S
C141 C149 1.378 . S
C142 C141 1.367 . S
C142 C150 1.433 . S
C143 H139 0.929 . S
C143 C145 1.378 . S
C143 C147 1.350 . S
C144 C147 1.463 . S
C144 C149 1.350 . S
C144 N152 1.427 . S
C145 H136 0.930 . S
C145 C143 1.378 . S
C145 C146 1.367 . S
C146 C145 1.367 . S
C146 C148 1.433 . S
C147 C143 1.350 . S
C147 C144 1.463 . S
C147 N151 1.427 . S
C148 H138 0.929 . S
C148 C146 1.433 . S
C148 N151 1.384 . S
C149 H140 0.929 . S
C149 C141 1.378 . S
C149 C144 1.350 . S
C150 H137 0.929 . S
C150 C142 1.433 . S
C150 N152 1.384 . S
N151 C147 1.427 . S
N151 C148 1.384 . S
N152 C144 1.427 . S
N152 C150 1.384 . S
H153 C159 0.930 . S
H154 C163 0.930 . S
H155 C168 0.929 . S
H156 C166 0.929 . S
H157 C161 0.929 . S
H158 C167 0.929 . S
C159 H153 0.930 . S
C159 C160 1.367 . S
C159 C167 1.378 . S
C160 C159 1.367 . S
C160 C168 1.433 . S
C161 H157 0.929 . S
C161 C163 1.378 . S
C161 C165 1.350 . S
C162 C165 1.463 . S
C162 C167 1.350 . S
C162 N170 1.427 . S
C163 H154 0.930 . S
C163 C161 1.378 . S
C163 C164 1.367 . S
C164 C163 1.367 . S
C164 C166 1.433 . S
C165 C161 1.350 . S
C165 C162 1.463 . S
C165 N169 1.427 . S
C166 H156 0.929 . S
C166 C164 1.433 . S
C166 N169 1.384 . S
C167 H158 0.929 . S
C167 C159 1.378 . S
C167 C162 1.350 . S
C168 H155 0.929 . S
C168 C160 1.433 . S
C168 N170 1.384 . S
N169 C165 1.427 . S
N169 C166 1.384 . S
N170 C162 1.427 . S
N170 C168 1.384 . S
H171 C177 0.930 . S
H172 C181 0.930 . S
H173 C186 0.929 . S
H174 C184 0.929 . S
H175 C179 0.929 . S
H176 C185 0.929 . S
C177 H171 0.930 . S
C177 C178 1.367 . S
C177 C185 1.378 . S
C178 C177 1.367 . S
C178 C186 1.433 . S
C179 H175 0.929 . S
C179 C181 1.378 . S
C179 C183 1.350 . S
C180 C183 1.463 . S
C180 C185 1.350 . S
C180 N188 1.427 . S
C181 H172 0.930 . S
C181 C179 1.378 . S
C181 C182 1.367 . S
C182 C181 1.367 . S
C182 C184 1.433 . S
C183 C179 1.350 . S
C183 C180 1.463 . S
C183 N187 1.427 . S
C184 H174 0.929 . S
C184 C182 1.433 . S
C184 N187 1.384 . S
C185 H176 0.929 . S
C185 C177 1.378 . S
C185 C180 1.350 . S
C186 H173 0.929 . S
C186 C178 1.433 . S
C186 N188 1.384 . S
N187 C183 1.427 . S
N187 C184 1.384 . S
N188 C180 1.427 . S
N188 C186 1.384 . S
H189 C195 0.930 . S
H190 C199 0.930 . S
H191 C204 0.929 . S
H192 C202 0.929 . S
H193 C197 0.929 . S
H194 C203 0.929 . S
C195 H189 0.930 . S
C195 C196 1.367 . S
C195 C203 1.378 . S
C196 C195 1.367 . S
C196 C204 1.433 . S
C197 H193 0.929 . S
C197 C199 1.378 . S
C197 C201 1.350 . S
C198 C201 1.463 . S
C198 C203 1.350 . S
C198 N206 1.427 . S
C199 H190 0.930 . S
C199 C197 1.378 . S
C199 C200 1.367 . S
C200 C199 1.367 . S
C200 C202 1.433 . S
C201 C197 1.350 . S
C201 C198 1.463 . S
C201 N205 1.427 . S
C202 H192 0.929 . S
C202 C200 1.433 . S
C202 N205 1.384 . S
C203 H194 0.929 . S
C203 C195 1.378 . S
C203 C198 1.350 . S
C204 H191 0.929 . S
C204 C196 1.433 . S
C204 N206 1.384 . S
N205 C201 1.427 . S
N205 C202 1.384 . S
N206 C198 1.427 . S
N206 C204 1.384 . S
C70 C10 1.184 . S
C74 C54 1.191 . S
C88 C0 1.518 . S
C92 C58 1.518 . S
C106 C18 1.494 . S
C110 C48 1.516 . S
C124 C27 1.591 . S
C128 C53 1.578 . S
C142 C24 1.514 . S
C146 C39 1.523 . S
C164 C55 1.517 . S
C160 C11 1.495 . S
C178 C1 1.592 . S
C182 C61 1.582 . S
C200 C62 1.193 . S
C196 C2 1.177 . S
