# Generated by pormake.
# Topology pth, (4,4)-cn, num edge types: 1
# Building blocks:
#     Node 0, Type 0, BuildingBlock: GALJAG_clean_sbu_0, # of connection points: 4
#     Node 1, Type 0, BuildingBlock: GALJAG_clean_sbu_0, # of connection points: 4
#     Node 2, Type 0, BuildingBlock: GALJAG_clean_sbu_0, # of connection points: 4
#     Node 3, Type 1, BuildingBlock: NAWXER_clean_sbu_0, # of connection points: 4
#     Node 4, Type 1, BuildingBlock: NAWXER_clean_sbu_0, # of connection points: 4
#     Node 5, Type 1, BuildingBlock: NAWXER_clean_sbu_0, # of connection points: 4
#     Edge 6, Type (0, 1), BuildingBlock: OJICUG_clean_linker_0, # of connection points: 2
#     Edge 7, Type (0, 1), BuildingBlock: OJICUG_clean_linker_0, # of connection points: 2
#     Edge 8, Type (0, 1), BuildingBlock: OJICUG_clean_linker_0, # of connection points: 2
#     Edge 9, Type (0, 1), BuildingBlock: OJICUG_clean_linker_0, # of connection points: 2
#     Edge 10, Type (0, 1), BuildingBlock: OJICUG_clean_linker_0, # of connection points: 2
#     Edge 11, Type (0, 1), BuildingBlock: OJICUG_clean_linker_0, # of connection points: 2
#     Edge 12, Type (0, 1), BuildingBlock: OJICUG_clean_linker_0, # of connection points: 2
#     Edge 13, Type (0, 1), BuildingBlock: OJICUG_clean_linker_0, # of connection points: 2
#     Edge 14, Type (0, 1), BuildingBlock: OJICUG_clean_linker_0, # of connection points: 2
#     Edge 15, Type (0, 1), BuildingBlock: OJICUG_clean_linker_0, # of connection points: 2
#     Edge 16, Type (0, 1), BuildingBlock: OJICUG_clean_linker_0, # of connection points: 2
#     Edge 17, Type (0, 1), BuildingBlock: OJICUG_clean_linker_0, # of connection points: 2
# Relax obj value: 0.017
# Max RMSD: 0.060
# Mean RMSD: 0.053
data_MOF--net-pth--node1-GALJAG_clean_sbu_0--node2-NAWXER_clean_sbu_0--edge1-OJICUG_clean_linker_0
_symmetry_space_group_name_H-M    P1
_symmetry_Int_Tables_number       1
_symmetry_cell_setting            triclinic
loop_
_symmetry_equiv_pos_as_xyz
'x, y, z'
_cell_length_a     16.546328
_cell_length_b     16.557819
_cell_length_c     42.207062
_cell_angle_alpha  90.163234
_cell_angle_beta   90.079333
_cell_angle_gamma 119.98541
loop_
_atom_site_label
_atom_site_type_symbol
_atom_site_fract_x
_atom_site_fract_y
_atom_site_fract_z
_atom_type_partial_charge
In0 In 0.03717 0.02334 0.05521 0.0
O1 O 0.98186 0.10827 0.07962 0.0
O2 O 0.11692 0.13139 0.09302 0.0
C3 C 0.92451 0.89145 0.01418 0.0
C4 C 0.14996 0.15442 0.01439 0.0
C5 C 1.01839 0.89231 0.09618 0.0
O6 O 0.89721 0.93793 0.03056 0.0
O7 O 1.00962 0.91539 0.01746 0.0
O8 O 0.09216 0.93869 0.0799 0.0
O9 O 0.95702 0.91589 0.0928 0.0
C10 C 0.05542 0.15491 0.09616 0.0
O11 O 0.17714 0.10806 0.03082 0.0
O12 O 0.06495 0.13084 0.01756 0.0
In13 In 0.03427 0.0243 0.38837 0.0
O14 O 0.08959 0.16416 0.36397 0.0
O15 O 0.95439 0.05232 0.35066 0.0
C16 C 0.14694 1.00543 0.42937 0.0
C17 C 0.92132 0.04258 0.42934 0.0
C18 C 0.05305 0.9116 0.34731 0.0
O19 O 0.17408 0.07924 0.41317 0.0
O20 O 0.06202 0.94401 0.42589 0.0
O21 O 0.97926 0.88451 0.36358 0.0
O22 O 0.11448 0.9965 0.35075 0.0
C23 C 1.01597 0.13717 0.34748 0.0
O24 O 0.89428 0.96907 0.41278 0.0
O25 O 1.00626 0.10407 0.42618 0.0
In26 In 0.03356 0.02063 0.72197 0.0
O27 O 0.94935 0.8809 0.74648 0.0
O28 O 0.926 0.99273 0.7597 0.0
C29 C 0.16478 0.03937 0.68097 0.0
C30 C 0.90191 1.00208 0.681 0.0
C31 C 0.16524 0.13361 0.76302 0.0
O32 O 0.11822 0.96562 0.6972 0.0
O33 O 0.14133 0.10081 0.68443 0.0
O34 O 0.11821 0.16047 0.74676 0.0
O35 O 0.14207 0.04881 0.75954 0.0
C36 C 0.90285 0.90794 0.76295 0.0
O37 O 0.94859 0.07571 0.69749 0.0
O38 O 0.92534 0.9406 0.68421 0.0
C39 C 0.09804 0.66139 0.2633 0.0
C40 C 0.09866 0.44915 0.1804 0.0
O41 O 0.17337 0.67138 0.2513 0.0
Zn42 Zn 0.11411 0.56311 0.22189 0.0
O43 O 1.01943 0.59556 0.25357 0.0
Zn44 Zn 0.95737 0.48477 0.22161 0.0
O45 O 0.89776 0.37688 0.25085 0.0
O46 O 0.05167 0.45265 0.25366 0.0
O47 O 1.01989 0.43627 0.18986 0.0
O48 O 0.17381 0.51437 0.19268 0.0
O49 O 0.05197 0.61126 0.1899 0.0
O50 O 0.89802 0.53325 0.19217 0.0
C51 C 0.97293 0.38696 0.26313 0.0
C52 C 0.97333 0.59831 0.18015 0.0
C53 C 0.60836 0.95908 0.59647 0.0
C54 C 0.39669 0.96027 0.5135 0.0
O55 O 0.54323 0.88405 0.58411 0.0
Zn56 Zn 0.49464 0.94387 0.55493 0.0
O57 O 0.62127 0.03783 0.58708 0.0
Zn58 Zn 0.573 0.10053 0.5554 0.0
O59 O 0.52418 0.15954 0.58491 0.0
O60 O 0.44609 1.00568 0.58697 0.0
O61 O 0.46243 0.03874 0.52336 0.0
O62 O 0.38659 0.88489 0.52541 0.0
O63 O 0.60542 1.00656 0.52325 0.0
O64 O 0.68122 0.16034 0.52623 0.0
C65 C 0.45892 0.08417 0.59681 0.0
C66 C 0.67122 0.08531 0.51386 0.0
C67 C 0.39953 0.44757 0.93035 0.0
C68 C 0.61059 0.65854 0.84742 0.0
O69 O 0.38954 0.51279 0.9183 0.0
Zn70 Zn 0.49718 0.5609 0.8889 0.0
O71 O 0.46501 0.43433 0.92065 0.0
Zn72 Zn 0.5752 0.48221 0.88867 0.0
O73 O 0.68382 0.53073 0.91792 0.0
O74 O 0.60824 0.60904 0.9207 0.0
O75 O 0.62342 0.59269 0.8569 0.0
O76 O 0.54567 0.66882 0.85966 0.0
O77 O 0.44794 0.45004 0.85697 0.0
O78 O 0.52577 0.37394 0.85925 0.0
C79 C 0.67404 0.59597 0.93019 0.0
C80 C 0.46044 0.38408 0.84725 0.0
C81 C 0.15324 0.28453 0.13453 0.0
C82 C 0.07061 0.23409 0.11661 0.0
H83 H 0.22851 0.3941 0.16868 0.0
C84 C 1.00308 0.26134 0.11777 0.0
H85 H 0.20715 0.26566 0.1338 0.0
C86 C 1.01591 0.33488 0.13725 0.0
C87 C 0.0965 0.38319 0.15621 0.0
H88 H 0.9395 0.22507 0.10393 0.0
H89 H 0.96102 0.35244 0.13803 0.0
C90 C 0.16618 0.35872 0.1542 0.0
C91 C 0.88986 0.14019 0.46784 0.0
C92 C 0.85754 0.05767 0.44985 0.0
H93 H 0.8559 0.21524 0.5021 0.0
C94 C 0.76282 0.9901 0.45105 0.0
H95 H 0.96259 0.19412 0.46708 0.0
C96 C 0.70233 1.00278 0.47061 0.0
C97 C 0.73476 0.08327 0.48962 0.0
H98 H 0.73539 0.92659 0.43717 0.0
H99 H 0.62993 0.94787 0.4714 0.0
C100 C 0.82883 0.15298 0.48758 0.0
C101 C 0.77379 0.87661 0.80125 0.0
C102 C 0.82426 0.84432 0.78348 0.0
H103 H 0.66469 0.8428 0.83532 0.0
C104 C 0.79764 0.74981 0.78491 0.0
H105 H 0.7922 0.94919 0.80033 0.0
C106 C 0.72463 0.68947 0.80446 0.0
C107 C 0.67623 0.72188 0.82323 0.0
H108 H 0.83396 0.72241 0.7712 0.0
H109 H 0.70753 0.61723 0.80541 0.0
C110 C 0.70014 0.81575 0.82099 0.0
C111 C 0.92004 0.76332 0.13428 0.0
C112 C 1.00274 0.81319 0.11655 0.0
H113 H 0.84427 0.65425 0.16822 0.0
C114 C 0.0698 0.78534 0.1178 0.0
H115 H 0.86647 0.78266 0.13348 0.0
C116 C 0.05647 0.71178 0.13718 0.0
C117 C 0.97583 0.66407 0.15597 0.0
H118 H 0.1334 0.82113 0.10409 0.0
H119 H 0.11102 0.69375 0.13805 0.0
C120 C 0.9066 0.68914 0.15386 0.0
C121 C 0.30534 0.05733 0.45136 0.0
C122 C 0.21062 0.98984 0.4498 0.0
H123 H 0.43817 0.09892 0.47189 0.0
C124 C 0.17822 0.90682 0.46728 0.0
H125 H 0.33284 0.12122 0.43787 0.0
C126 C 0.23916 0.89342 0.4869 0.0
C127 C 0.33324 0.96303 0.48932 0.0
H128 H 0.10548 0.85292 0.46622 0.0
H129 H 0.21203 0.83076 0.50104 0.0
C130 C 0.36576 0.04406 0.4708 0.0
C131 C 0.27095 0.29193 0.78519 0.0
C132 C 0.24448 0.19746 0.7835 0.0
H133 H 0.36163 0.42472 0.80583 0.0
C134 C 0.29578 0.16548 0.80092 0.0
H135 H 0.23398 0.3191 0.77175 0.0
C136 C 0.37014 0.2266 0.82058 0.0
C137 C 0.39392 0.32044 0.8231 0.0
H138 H 0.27752 0.09295 0.79977 0.0
H139 H 0.40628 0.1998 0.83465 0.0
C140 C 0.34465 0.35252 0.80466 0.0
C141 C 0.77254 0.90435 0.64251 0.0
C142 C 0.82284 0.98689 0.66049 0.0
H143 H 0.66328 0.82923 0.60824 0.0
C144 C 0.79562 0.0544 0.65929 0.0
H145 H 0.79139 0.85046 0.64327 0.0
C146 C 0.72227 0.04164 0.63973 0.0
C147 C 0.67411 0.96115 0.62072 0.0
H148 H 0.83178 0.11792 0.67316 0.0
H149 H 0.70474 0.09652 0.63894 0.0
C150 C 0.69855 0.89149 0.62276 0.0
C151 C 0.89366 0.76267 0.97558 0.0
C152 C 0.86076 0.81179 -0.00617 0.0
H153 H 0.86 0.65385 0.9412 0.0
C154 C 0.76548 0.78266 -0.00687 0.0
H155 H 0.96686 0.78301 0.97595 0.0
C156 C 0.70492 0.70864 0.97377 0.0
C157 C 0.73786 0.66178 0.95443 0.0
H158 H 0.73762 0.8178 0.00726 0.0
H159 H 0.63203 0.68964 0.97332 0.0
C160 C 0.83257 0.68805 0.956 0.0
C161 C 0.15138 0.8803 0.30919 0.0
C162 C 0.06865 0.84786 0.3269 0.0
H163 H 0.22716 0.84639 0.27526 0.0
C164 C 1.00149 0.75304 0.3256 0.0
H165 H 0.20501 0.95313 0.31003 0.0
C166 C 1.01479 0.69251 0.30621 0.0
C167 C 0.09548 0.72503 0.28746 0.0
H168 H 0.93785 0.72552 0.33929 0.0
H169 H 0.96018 0.62001 0.30532 0.0
C170 C 0.16478 0.81926 0.2896 0.0
C171 C 0.29442 0.13785 0.64305 0.0
C172 C 0.24385 0.05485 0.66053 0.0
H173 H 0.40407 0.21381 0.60928 0.0
C174 C 0.27092 0.98726 0.65895 0.0
H175 H 0.27569 0.19182 0.64411 0.0
C176 C 0.34443 1.00044 0.63951 0.0
C177 C 0.3929 0.08147 0.62099 0.0
H178 H 0.23455 0.92338 0.67245 0.0
H179 H 0.36186 0.94551 0.63841 0.0
C180 C 0.36857 0.15115 0.62342 0.0
C181 C 0.30841 0.2606 -0.00725 0.0
C182 C 0.21366 0.23338 -0.00598 0.0
H183 H 0.44124 0.35142 0.97244 0.0
C184 C 0.18119 0.28365 0.97628 0.0
H185 H 0.33595 0.22447 0.00645 0.0
C186 C 0.24211 0.35759 0.95668 0.0
C187 C 0.33621 0.382 0.95454 0.0
H188 H 0.10843 0.26481 0.9771 0.0
H189 H 0.21492 0.39281 0.94232 0.0
C190 C 0.36881 0.3339 0.97332 0.0
C191 C 0.91808 0.16867 0.30918 0.0
C192 C 1.00086 0.2009 0.32701 0.0
H193 H 0.84275 0.20261 0.27507 0.0
C194 C 0.06865 0.29547 0.32571 0.0
H195 H 0.86397 0.09605 0.31002 0.0
C196 C 0.05591 0.35591 0.30619 0.0
C197 C 0.97514 0.32355 0.28733 0.0
H198 H 0.13238 0.32284 0.33947 0.0
H199 H 0.111 0.42818 0.30532 0.0
C200 C 0.90523 0.22962 0.28948 0.0
loop_
_geom_bond_atom_site_label_1
_geom_bond_atom_site_label_2
_geom_bond_distance
_geom_bond_site_symmetry_2
_ccdc_geom_bond_type
In0 O1 2.294 1_455 S
In0 O2 2.326 . S
In0 O6 2.266 1_445 S
In0 O7 2.326 1_445 S
In0 O8 2.266 1_545 S
In0 O9 2.326 1_445 S
In0 O11 2.294 . S
In0 O12 2.326 . S
O1 In0 2.294 1_655 S
O1 C10 1.240 1_655 S
O2 In0 2.326 . S
O2 C10 1.252 . S
C3 O6 1.252 . S
C3 O7 1.260 . S
C4 O11 1.240 . S
C4 O12 1.252 . S
C5 O8 1.250 1_655 S
C5 O9 1.263 . S
O6 In0 2.266 1_665 S
O6 C3 1.252 . S
O7 In0 2.326 1_665 S
O7 C3 1.260 . S
O8 In0 2.266 1_565 S
O8 C5 1.250 1_455 S
O9 In0 2.326 1_665 S
O9 C5 1.263 . S
C10 O1 1.240 1_455 S
C10 O2 1.252 . S
O11 In0 2.294 . S
O11 C4 1.240 . S
O12 In0 2.326 . S
O12 C4 1.252 . S
In13 O14 2.294 . S
In13 O15 2.326 1_455 S
In13 O19 2.266 . S
In13 O20 2.326 1_545 S
In13 O21 2.266 1_445 S
In13 O22 2.326 1_545 S
In13 O24 2.294 1_445 S
In13 O25 2.326 1_455 S
O14 In13 2.294 . S
O14 C23 1.240 1_455 S
O15 In13 2.326 1_655 S
O15 C23 1.252 . S
C16 O19 1.252 1_565 S
C16 O20 1.260 . S
C17 O24 1.240 1_545 S
C17 O25 1.252 . S
C18 O21 1.252 1_455 S
C18 O22 1.260 . S
O19 In13 2.266 . S
O19 C16 1.252 1_545 S
O20 In13 2.326 1_565 S
O20 C16 1.260 . S
O21 In13 2.266 1_665 S
O21 C18 1.252 1_655 S
O22 In13 2.326 1_565 S
O22 C18 1.260 . S
C23 O14 1.240 1_655 S
C23 O15 1.252 . S
O24 In13 2.294 1_665 S
O24 C17 1.240 1_565 S
O25 In13 2.326 1_655 S
O25 C17 1.252 . S
In26 O27 2.294 1_445 S
In26 O28 2.326 1_445 S
In26 O32 2.266 1_545 S
In26 O33 2.326 . S
In26 O34 2.266 . S
In26 O35 2.326 . S
In26 O37 2.294 1_455 S
In26 O38 2.326 1_445 S
O27 In26 2.294 1_665 S
O27 C36 1.240 . S
O28 In26 2.326 1_665 S
O28 C36 1.252 . S
C29 O32 1.252 1_545 S
C29 O33 1.260 . S
C30 O37 1.240 1_565 S
C30 O38 1.252 . S
C31 O34 1.252 . S
C31 O35 1.260 . S
O32 In26 2.266 1_565 S
O32 C29 1.252 1_565 S
O33 In26 2.326 . S
O33 C29 1.260 . S
O34 In26 2.266 . S
O34 C31 1.252 . S
O35 In26 2.326 . S
O35 C31 1.260 . S
C36 O27 1.240 . S
C36 O28 1.252 . S
O37 In26 2.294 1_655 S
O37 C30 1.240 1_545 S
O38 In26 2.326 1_665 S
O38 C30 1.252 . S
C39 O41 1.247 . S
C39 O43 1.258 1_455 S
C40 O47 1.247 1_455 S
C40 O48 1.258 . S
O41 C39 1.247 . S
O41 Zn42 2.028 . S
Zn42 O41 2.028 . S
Zn42 O46 2.035 . S
Zn42 O48 2.035 . S
Zn42 O49 2.028 . S
O43 C39 1.258 1_655 S
O43 Zn44 2.035 . S
Zn44 O43 2.035 . S
Zn44 O45 2.028 . S
Zn44 O47 2.028 . S
Zn44 O50 2.035 . S
O45 Zn44 2.028 . S
O45 C51 1.247 1_655 S
O46 Zn42 2.035 . S
O46 C51 1.258 . S
O47 C40 1.247 1_655 S
O47 Zn44 2.028 . S
O48 C40 1.258 . S
O48 Zn42 2.035 . S
O49 Zn42 2.028 . S
O49 C52 1.247 . S
O50 Zn44 2.035 . S
O50 C52 1.258 1_655 S
C51 O45 1.247 1_455 S
C51 O46 1.258 . S
C52 O49 1.247 . S
C52 O50 1.258 1_455 S
C53 O55 1.247 1_545 S
C53 O57 1.258 . S
C54 O61 1.247 . S
C54 O62 1.258 1_545 S
O55 C53 1.247 1_565 S
O55 Zn56 2.028 . S
Zn56 O55 2.028 . S
Zn56 O60 2.035 . S
Zn56 O62 2.035 . S
Zn56 O63 2.028 . S
O57 C53 1.258 . S
O57 Zn58 2.035 . S
Zn58 O57 2.035 . S
Zn58 O59 2.028 . S
Zn58 O61 2.028 . S
Zn58 O64 2.035 . S
O59 Zn58 2.028 . S
O59 C65 1.247 . S
O60 Zn56 2.035 . S
O60 C65 1.258 1_565 S
O61 C54 1.247 . S
O61 Zn58 2.028 . S
O62 C54 1.258 1_565 S
O62 Zn56 2.035 . S
O63 Zn56 2.028 . S
O63 C66 1.247 1_565 S
O64 Zn58 2.035 . S
O64 C66 1.258 . S
C65 O59 1.247 . S
C65 O60 1.258 1_545 S
C66 O63 1.247 1_545 S
C66 O64 1.258 . S
C67 O69 1.247 . S
C67 O71 1.258 . S
C68 O75 1.247 . S
C68 O76 1.258 . S
O69 C67 1.247 . S
O69 Zn70 2.028 . S
Zn70 O69 2.028 . S
Zn70 O74 2.035 . S
Zn70 O76 2.035 . S
Zn70 O77 2.028 . S
O71 C67 1.258 . S
O71 Zn72 2.035 . S
Zn72 O71 2.035 . S
Zn72 O73 2.028 . S
Zn72 O75 2.028 . S
Zn72 O78 2.035 . S
O73 Zn72 2.028 . S
O73 C79 1.247 . S
O74 Zn70 2.035 . S
O74 C79 1.258 . S
O75 C68 1.247 . S
O75 Zn72 2.028 . S
O76 C68 1.258 . S
O76 Zn70 2.035 . S
O77 Zn70 2.028 . S
O77 C80 1.247 . S
O78 Zn72 2.035 . S
O78 C80 1.258 . S
C79 O73 1.247 . S
C79 O74 1.258 . S
C80 O77 1.247 . S
C80 O78 1.258 . S
C81 C82 1.387 . S
C81 H85 0.950 . S
C81 C90 1.390 . S
C82 C81 1.387 . S
C82 C84 1.387 1_455 S
H83 C90 0.950 . S
C84 C82 1.387 1_655 S
C84 C86 1.390 . S
C84 H88 0.950 . S
H85 C81 0.950 . S
C86 C84 1.390 . S
C86 C87 1.387 1_655 S
C86 H89 0.950 . S
C87 C86 1.387 1_455 S
C87 C90 1.387 . S
H88 C84 0.950 . S
H89 C86 0.950 . S
C90 C81 1.390 . S
C90 H83 0.950 . S
C90 C87 1.387 . S
C91 C92 1.387 . S
C91 H95 0.950 . S
C91 C100 1.390 . S
C92 C91 1.387 . S
C92 C94 1.387 1_545 S
H93 C100 0.950 . S
C94 C92 1.387 1_565 S
C94 C96 1.390 . S
C94 H98 0.950 . S
H95 C91 0.950 . S
C96 C94 1.390 . S
C96 C97 1.387 1_565 S
C96 H99 0.950 . S
C97 C96 1.387 1_545 S
C97 C100 1.387 . S
H98 C94 0.950 . S
H99 C96 0.950 . S
C100 C91 1.390 . S
C100 H93 0.950 . S
C100 C97 1.387 . S
C101 C102 1.387 . S
C101 H105 0.950 . S
C101 C110 1.390 . S
C102 C101 1.387 . S
C102 C104 1.387 . S
H103 C110 0.950 . S
C104 C102 1.387 . S
C104 C106 1.390 . S
C104 H108 0.950 . S
H105 C101 0.950 . S
C106 C104 1.390 . S
C106 C107 1.387 . S
C106 H109 0.950 . S
C107 C106 1.387 . S
C107 C110 1.387 . S
H108 C104 0.950 . S
H109 C106 0.950 . S
C110 C101 1.390 . S
C110 H103 0.950 . S
C110 C107 1.387 . S
C111 C112 1.387 . S
C111 H115 0.950 . S
C111 C120 1.390 . S
C112 C111 1.387 . S
C112 C114 1.387 1_455 S
H113 C120 0.950 . S
C114 C112 1.387 1_655 S
C114 C116 1.389 1_655 S
C114 H118 0.950 . S
H115 C111 0.950 . S
C116 C114 1.389 1_455 S
C116 C117 1.387 . S
C116 H119 0.951 1_455 S
C117 C116 1.387 . S
C117 C120 1.387 . S
H118 C114 0.950 . S
H119 C116 0.951 1_655 S
C120 C111 1.390 . S
C120 H113 0.950 . S
C120 C117 1.387 . S
C121 C122 1.387 1_545 S
C121 H125 0.950 . S
C121 C130 1.390 . S
C122 C121 1.387 1_565 S
C122 C124 1.387 . S
H123 C130 0.950 . S
C124 C122 1.387 . S
C124 C126 1.390 . S
C124 H128 0.950 . S
H125 C121 0.950 . S
C126 C124 1.390 . S
C126 C127 1.387 1_565 S
C126 H129 0.950 . S
C127 C126 1.387 1_545 S
C127 C130 1.387 . S
H128 C124 0.950 . S
H129 C126 0.950 . S
C130 C121 1.390 . S
C130 H123 0.950 . S
C130 C127 1.387 . S
C131 C132 1.387 . S
C131 H135 0.950 . S
C131 C140 1.390 . S
C132 C131 1.387 . S
C132 C134 1.387 . S
H133 C140 0.950 . S
C134 C132 1.387 . S
C134 C136 1.390 . S
C134 H138 0.950 . S
H135 C131 0.950 . S
C136 C134 1.390 . S
C136 C137 1.387 . S
C136 H139 0.950 . S
C137 C136 1.387 . S
C137 C140 1.387 . S
H138 C134 0.950 . S
H139 C136 0.950 . S
C140 C131 1.390 . S
C140 H133 0.950 . S
C140 C137 1.387 . S
C141 C142 1.387 . S
C141 H145 0.950 . S
C141 C150 1.390 . S
C142 C141 1.387 . S
C142 C144 1.387 1_565 S
H143 C150 0.950 . S
C144 C142 1.387 1_545 S
C144 C146 1.390 . S
C144 H148 0.950 . S
H145 C141 0.950 . S
C146 C144 1.390 . S
C146 C147 1.387 . S
C146 H149 0.950 . S
C147 C146 1.387 . S
C147 C150 1.387 1_545 S
H148 C144 0.950 . S
H149 C146 0.950 . S
C150 C141 1.390 . S
C150 H143 0.950 . S
C150 C147 1.387 1_565 S
C151 C152 1.387 1_556 S
C151 H155 0.950 . S
C151 C160 1.390 . S
C152 C151 1.387 1_554 S
C152 C154 1.387 . S
H153 C160 0.950 . S
C154 C152 1.387 . S
C154 C156 1.390 1_554 S
C154 H158 0.950 . S
H155 C151 0.950 . S
C156 C154 1.390 1_556 S
C156 C157 1.387 . S
C156 H159 0.950 1_556 S
C157 C156 1.387 . S
C157 C160 1.387 . S
H158 C154 0.950 . S
H159 C156 0.950 1_554 S
C160 C151 1.390 . S
C160 H153 0.950 . S
C160 C157 1.387 . S
C161 C162 1.387 1_655 S
C161 H165 0.950 . S
C161 C170 1.390 . S
C162 C161 1.387 1_455 S
C162 C164 1.387 . S
H163 C170 0.950 . S
C164 C162 1.387 . S
C164 C166 1.390 . S
C164 H168 0.950 . S
H165 C161 0.950 . S
C166 C164 1.390 . S
C166 C167 1.387 . S
C166 H169 0.950 . S
C167 C166 1.387 . S
C167 C170 1.387 1_455 S
H168 C164 0.950 . S
H169 C166 0.950 . S
C170 C161 1.390 . S
C170 H163 0.950 . S
C170 C167 1.387 1_655 S
C171 C172 1.387 . S
C171 H175 0.950 . S
C171 C180 1.390 . S
C172 C171 1.387 . S
C172 C174 1.387 1_545 S
H173 C180 0.950 . S
C174 C172 1.387 1_565 S
C174 C176 1.390 . S
C174 H178 0.950 . S
H175 C171 0.950 . S
C176 C174 1.390 . S
C176 C177 1.387 1_565 S
C176 H179 0.950 . S
C177 C176 1.387 1_545 S
C177 C180 1.387 . S
H178 C174 0.950 . S
H179 C176 0.950 . S
C180 C171 1.390 . S
C180 H173 0.950 . S
C180 C177 1.387 . S
C181 C182 1.387 . S
C181 H185 0.950 . S
C181 C190 1.390 1_554 S
C182 C181 1.387 . S
C182 C184 1.387 1_554 S
H183 C190 0.950 1_554 S
C184 C182 1.387 1_556 S
C184 C186 1.390 . S
C184 H188 0.950 . S
H185 C181 0.950 . S
C186 C184 1.390 . S
C186 C187 1.387 . S
C186 H189 0.950 . S
C187 C186 1.387 . S
C187 C190 1.387 . S
H188 C184 0.950 . S
H189 C186 0.950 . S
C190 C181 1.390 1_556 S
C190 H183 0.950 1_556 S
C190 C187 1.387 . S
C191 C192 1.389 . S
C191 H195 0.950 . S
C191 C200 1.390 . S
C192 C191 1.389 . S
C192 C194 1.387 1_655 S
H193 C200 0.950 . S
C194 C192 1.387 1_455 S
C194 C196 1.390 . S
C194 H198 0.950 . S
H195 C191 0.950 . S
C196 C194 1.390 . S
C196 C197 1.387 . S
C196 H199 0.950 . S
C197 C196 1.387 . S
C197 C200 1.387 1_455 S
H198 C194 0.950 . S
H199 C196 0.950 . S
C200 C191 1.390 . S
C200 H193 0.950 . S
C200 C197 1.387 1_655 S
C87 C40 1.499 . S
C82 C10 1.499 . S
C92 C17 1.499 . S
C97 C66 1.499 . S
C102 C36 1.500 . S
C107 C68 1.500 . S
C112 C5 1.500 1_455 S
C117 C52 1.501 . S
C127 C54 1.501 . S
C122 C16 1.501 . S
C132 C31 1.500 . S
C137 C80 1.500 . S
C147 C53 1.499 . S
C142 C30 1.499 . S
C152 C3 1.500 . S
C157 C79 1.500 . S
C167 C39 1.501 . S
C162 C18 1.501 . S
C177 C65 1.500 . S
C172 C29 1.501 . S
C187 C67 1.500 . S
C182 C4 1.500 . S
C192 C23 1.498 . S
C197 C51 1.499 . S
