# Generated by pormake.
# Topology pth, (4,4)-cn, num edge types: 1
# Building blocks:
#     Node 0, Type 0, BuildingBlock: QUQFOY_clean_sbu_1, # of connection points: 4
#     Node 1, Type 0, BuildingBlock: QUQFOY_clean_sbu_1, # of connection points: 4
#     Node 2, Type 0, BuildingBlock: QUQFOY_clean_sbu_1, # of connection points: 4
#     Node 3, Type 1, BuildingBlock: NAWXER_clean_sbu_0, # of connection points: 4
#     Node 4, Type 1, BuildingBlock: NAWXER_clean_sbu_0, # of connection points: 4
#     Node 5, Type 1, BuildingBlock: NAWXER_clean_sbu_0, # of connection points: 4
#     Edge 6, Type (0, 1), BuildingBlock: AJUNOK_clean_linker_0, # of connection points: 2
#     Edge 7, Type (0, 1), BuildingBlock: AJUNOK_clean_linker_0, # of connection points: 2
#     Edge 8, Type (0, 1), BuildingBlock: AJUNOK_clean_linker_0, # of connection points: 2
#     Edge 9, Type (0, 1), BuildingBlock: AJUNOK_clean_linker_0, # of connection points: 2
#     Edge 10, Type (0, 1), BuildingBlock: AJUNOK_clean_linker_0, # of connection points: 2
#     Edge 11, Type (0, 1), BuildingBlock: AJUNOK_clean_linker_0, # of connection points: 2
#     Edge 12, Type (0, 1), BuildingBlock: AJUNOK_clean_linker_0, # of connection points: 2
#     Edge 13, Type (0, 1), BuildingBlock: AJUNOK_clean_linker_0, # of connection points: 2
#     Edge 14, Type (0, 1), BuildingBlock: AJUNOK_clean_linker_0, # of connection points: 2
#     Edge 15, Type (0, 1), BuildingBlock: AJUNOK_clean_linker_0, # of connection points: 2
#     Edge 16, Type (0, 1), BuildingBlock: AJUNOK_clean_linker_0, # of connection points: 2
#     Edge 17, Type (0, 1), BuildingBlock: AJUNOK_clean_linker_0, # of connection points: 2
# Relax obj value: 0.027
# Max RMSD: 0.123
# Mean RMSD: 0.063
data_MOF--net-pth--node1-QUQFOY_clean_sbu_1--node2-NAWXER_clean_sbu_0--edge1-AJUNOK_clean_linker_0
_symmetry_space_group_name_H-M    P1
_symmetry_Int_Tables_number       1
_symmetry_cell_setting            triclinic
loop_
_symmetry_equiv_pos_as_xyz
'x, y, z'
_cell_length_a     16.456348
_cell_length_b     17.212197
_cell_length_c     42.363302
_cell_angle_alpha  89.936764
_cell_angle_beta   90.021032
_cell_angle_gamma 120.53417
loop_
_atom_site_label
_atom_site_type_symbol
_atom_site_fract_x
_atom_site_fract_y
_atom_site_fract_z
_atom_type_partial_charge
O0 O 0.04264 0.15406 0.05866 0.0
Cd1 Cd 0.95373 0.05701 0.09025 0.0
Cd2 Cd 0.08865 1.01722 0.09049 0.0
O3 O 0.16733 0.15053 0.07533 0.0
O4 O 0.87239 0.10247 0.10764 0.0
O5 O 0.98344 0.09669 0.13522 0.0
C6 C 0.92188 0.122 0.13318 0.0
C7 C 0.11504 0.95204 0.13462 0.0
C8 C 0.13164 0.18958 0.05983 0.0
C9 C 0.91199 0.88473 0.05975 0.0
O10 O 1.001 0.92037 0.05872 0.0
O11 O 0.87599 0.92361 0.07513 0.0
O12 O 0.16675 0.97032 0.10965 0.0
O13 O 0.05474 0.97906 0.13539 0.0
O14 O 0.99194 0.12827 0.45973 0.0
Cd15 Cd 0.08405 0.12259 0.42842 0.0
Cd16 Cd 0.95541 0.94893 0.42864 0.0
O17 O 0.87116 0.99711 0.44572 0.0
O18 O 0.15934 0.24708 0.41042 0.0
O19 O 0.05547 0.12874 0.38293 0.0
C20 C 0.11244 0.21495 0.38456 0.0
C21 C 0.92325 0.85205 0.38598 0.0
C22 C 0.90411 0.0715 0.46058 0.0
C23 C 0.13598 1.00091 0.46066 0.0
O24 O 0.04814 0.94417 0.45994 0.0
O25 O 0.16884 0.07515 0.44565 0.0
O26 O 0.87767 0.82294 0.41222 0.0
O27 O 0.98139 0.93781 0.38323 0.0
O28 O 0.90333 0.95917 0.72315 0.0
Cd29 Cd 0.98834 0.9569 0.75752 0.0
Cd30 Cd 0.05233 0.12117 0.75833 0.0
O31 O 0.91463 0.08069 0.7442 0.0
O32 O 0.91533 0.83605 0.77783 0.0
O33 O 0.9401 0.96203 0.80052 0.0
C34 C 0.89727 0.87501 0.80062 0.0
C35 C 0.14398 0.20172 0.80144 0.0
C36 C 0.87257 1.01308 0.7257 0.0
C37 C 0.16828 0.06726 0.72532 0.0
O38 O 0.13763 0.12138 0.72358 0.0
O39 O 0.12577 0.99784 0.74307 0.0
O40 O 0.12515 0.24127 0.77902 0.0
O41 O 0.10134 0.11472 0.80106 0.0
C42 C 0.94336 0.60093 0.299 0.0
C43 C 0.94338 0.39602 0.2189 0.0
O44 O 0.02676 0.62176 0.29035 0.0
Zn45 Zn 0.09181 0.57101 0.25878 0.0
O46 O 0.87258 0.53038 0.28788 0.0
Zn47 Zn 0.94198 0.49806 0.25886 0.0
O48 O 1.00716 0.44468 0.28912 0.0
O49 O 0.16147 0.53636 0.28697 0.0
O50 O 0.87264 0.39789 0.23001 0.0
O51 O 0.02681 0.45655 0.2274 0.0
O52 O 0.16085 0.67356 0.23062 0.0
O53 O 1.00652 0.61491 0.22864 0.0
C54 C 0.09055 0.46461 0.29738 0.0
C55 C 0.08976 0.67635 0.22036 0.0
C56 C 0.59095 0.97665 0.63563 0.0
C57 C 0.38253 0.97027 0.55111 0.0
O58 O 0.5272 0.90447 0.62255 0.0
Zn59 Zn 0.48206 0.96255 0.59307 0.0
O60 O 0.60682 0.05325 0.62577 0.0
Zn61 Zn 0.55836 0.11154 0.59286 0.0
O62 O 0.51216 0.17025 0.62154 0.0
O63 O 0.43156 1.02164 0.62489 0.0
O64 O 0.44654 0.04823 0.56051 0.0
O65 O 0.37456 0.89973 0.56405 0.0
O66 O 0.59446 1.02504 0.56097 0.0
O67 O 0.66675 0.17356 0.56405 0.0
C68 C 0.44658 0.09834 0.63427 0.0
C69 C 0.65877 0.10274 0.55143 0.0
C70 C 0.38481 0.48046 0.97821 0.0
C71 C 0.60958 0.66831 0.89483 0.0
O72 O 0.3838 0.54744 0.96563 0.0
Zn73 Zn 0.49109 0.58216 0.93649 0.0
O74 O 0.44364 0.45808 0.96867 0.0
Zn75 Zn 0.55293 0.49275 0.93645 0.0
O76 O 0.66041 0.5274 0.9655 0.0
O77 O 0.60058 0.61675 0.9686 0.0
O78 O 0.61337 0.59978 0.90427 0.0
O79 O 0.55106 0.68695 0.90746 0.0
O80 O 0.43034 0.47513 0.90441 0.0
O81 O 0.49262 0.38789 0.90753 0.0
C82 C 0.65947 0.59433 0.97809 0.0
C83 C 0.43397 0.40655 0.895 0.0
C84 C 0.99479 0.22947 0.1781 0.0
C85 C 0.91809 0.18262 0.15738 0.0
C86 C 1.00156 0.29773 0.19785 0.0
C87 C 0.93125 0.32134 0.19816 0.0
H88 H 0.05229 0.21594 0.17827 0.0
H89 H 0.06299 0.33267 0.21292 0.0
S90 S 0.71181 0.21444 0.15048 0.0
N91 N 0.76749 0.16153 0.13964 0.0
N92 N 0.77946 0.28874 0.17737 0.0
C93 C 0.85195 0.27242 0.17867 0.0
C94 C 0.84562 0.20348 0.15814 0.0
C95 C 0.74604 1.02078 0.48415 0.0
C96 C 0.8411 0.08852 0.48089 0.0
C97 C 0.68733 1.02894 0.50599 0.0
C98 C 0.72064 0.10529 0.52557 0.0
H99 H 0.71706 0.95914 0.47052 0.0
H100 H 0.61542 0.97325 0.50809 0.0
S101 S 0.96043 0.30718 0.52392 0.0
N102 N 0.96383 0.23908 0.49719 0.0
N103 N 0.85228 0.25362 0.53844 0.0
C104 C 0.81364 0.17626 0.52132 0.0
C105 C 0.87415 0.16797 0.49899 0.0
C106 C 0.80183 0.86548 0.84857 0.0
C107 C 0.82297 0.82164 0.8245 0.0
C108 C 0.72868 0.81652 0.87043 0.0
C109 C 0.67434 0.72204 0.86898 0.0
H110 H 0.84243 0.93824 0.85072 0.0
H111 H 0.71703 0.85245 0.8892 0.0
S112 S 0.69422 0.57482 0.80928 0.0
N113 N 0.77836 0.6777 0.79977 0.0
N114 N 0.642 0.58669 0.8406 0.0
C115 C 0.6927 0.67772 0.84456 0.0
C116 C 0.76672 0.72713 0.82242 0.0
C117 C 0.18052 0.86032 0.15764 0.0
C118 C 0.11641 0.89175 0.15962 0.0
C119 C 0.17376 0.79258 0.17797 0.0
C120 C 0.10161 0.75262 0.20063 0.0
H121 H 0.23475 0.8862 0.13963 0.0
H122 H 0.22309 0.76899 0.17509 0.0
S123 S 0.92329 0.81768 0.21844 0.0
N124 N 0.98404 0.88297 0.18853 0.0
N125 N 0.97073 0.75522 0.22611 0.0
C126 C 0.03993 0.78618 0.20389 0.0
C127 C 0.04756 0.8559 0.1836 0.0
C128 C 0.29477 0.05069 0.48346 0.0
C129 C 0.19916 0.98381 0.48087 0.0
C130 C 0.35389 0.04253 0.50516 0.0
C131 C 0.32042 0.96707 0.52524 0.0
H132 H 0.32392 0.11169 0.46942 0.0
H133 H 0.42624 0.09763 0.5068 0.0
S134 S 0.079 0.76752 0.52549 0.0
N135 N 0.07558 0.83486 0.49838 0.0
N136 N 0.1879 0.82041 0.53935 0.0
C137 C 0.22678 0.89684 0.52165 0.0
C138 C 0.16588 0.9051 0.49948 0.0
C139 C 0.23916 0.21022 0.84936 0.0
C140 C 0.21905 0.25451 0.82512 0.0
C141 C 0.3129 0.25864 0.87105 0.0
C142 C 0.36897 0.35296 0.86922 0.0
H143 H 0.19716 0.1376 0.8518 0.0
H144 H 0.32365 0.22251 0.89001 0.0
S145 S 0.35256 0.5009 0.80889 0.0
N146 N 0.26667 0.39852 0.79977 0.0
N147 N 0.40414 0.48845 0.8403 0.0
C148 C 0.35174 0.39761 0.8446 0.0
C149 C 0.27708 0.34879 0.82265 0.0
C150 C 0.75157 0.92585 0.68409 0.0
C151 C 0.79146 0.99816 0.70583 0.0
C152 C 0.68171 0.91503 0.66257 0.0
C153 C 0.64957 0.97638 0.66197 0.0
H154 H 0.7767 0.87871 0.68283 0.0
H155 H 0.65656 0.86137 0.64529 0.0
S156 S 0.71908 0.16835 0.71683 0.0
N157 N 0.78491 0.12568 0.7275 0.0
N158 N 0.65384 0.10537 0.6872 0.0
C159 C 0.68408 0.04528 0.68485 0.0
C160 C 0.75495 0.05624 0.70675 0.0
C161 C 0.75163 0.75835 0.04536 0.0
C162 C 0.85002 0.79995 0.04211 0.0
C163 C 0.69063 0.68551 0.02632 0.0
C164 C 0.72506 0.65077 1.00323 0.0
H165 H 0.72099 0.78439 0.06184 0.0
H166 H 0.61543 0.65919 0.02854 0.0
S167 S 0.97587 0.72687 0.98768 0.0
N168 N 0.97913 0.79424 1.01604 0.0
N169 N 0.86302 0.6573 0.98002 0.0
C170 C 0.82272 0.68666 1.00123 0.0
C171 C 0.88553 0.76139 1.02069 0.0
C172 C 0.99418 0.81675 0.34012 0.0
C173 C 0.91897 0.78814 0.36155 0.0
C174 C 1.0006 0.75556 0.32 0.0
C175 C 0.93133 0.6633 0.32003 0.0
H176 H 0.05086 0.8865 0.33967 0.0
H177 H 0.06095 0.78093 0.30438 0.0
S178 S 0.71577 0.55462 0.36962 0.0
N179 N 0.7708 0.66168 0.38037 0.0
N180 N 0.78202 0.54704 0.34192 0.0
C181 C 0.85341 0.63424 0.34024 0.0
C182 C 0.8475 0.69648 0.36117 0.0
C183 C 0.26578 1.01137 0.7 0.0
C184 C 0.24826 0.08209 0.70496 0.0
C185 C 0.33279 1.01945 0.67796 0.0
C186 C 0.38561 0.09871 0.65994 0.0
H187 H 0.2251 0.94784 0.71237 0.0
H188 H 0.34145 0.96169 0.67455 0.0
S189 S 0.3755 0.30818 0.66683 0.0
N190 N 0.29586 0.23783 0.69223 0.0
N191 N 0.42184 0.25228 0.65061 0.0
C192 C 0.37302 0.17203 0.66594 0.0
C193 C 0.30425 0.1638 0.68842 0.0
C194 C 0.29227 0.31544 0.04533 0.0
C195 C 0.1939 0.27442 0.0422 0.0
C196 C 0.35343 0.38838 0.02631 0.0
C197 C 0.3192 0.42379 1.00336 0.0
H198 H 0.32274 0.28889 0.0617 0.0
H199 H 0.42857 0.41427 0.02844 0.0
S200 S 0.06861 0.3494 0.98819 0.0
N201 N 0.0651 0.28143 1.01641 0.0
N202 N 0.18151 0.41852 0.98042 0.0
C203 C 0.22162 0.38847 1.00148 0.0
C204 C 0.15864 0.31364 1.02092 0.0
C205 C 0.17728 0.37057 0.36192 0.0
C206 C 0.11543 0.27656 0.35927 0.0
C207 C 0.17154 0.43141 0.34115 0.0
C208 C 0.10262 0.40054 0.31736 0.0
H209 H 0.22877 0.39777 0.38079 0.0
H210 H 0.21876 0.50311 0.34457 0.0
S211 S 0.93191 0.16172 0.29751 0.0
N212 N 0.9893 0.15599 0.32856 0.0
N213 N 0.97773 0.27025 0.29016 0.0
C214 C 0.04352 0.30694 0.31343 0.0
C215 C 0.05021 0.24499 0.33419 0.0
loop_
_geom_bond_atom_site_label_1
_geom_bond_atom_site_label_2
_geom_bond_distance
_geom_bond_site_symmetry_2
_ccdc_geom_bond_type
O0 Cd1 2.223 1_455 S
O0 C8 1.315 . S
Cd1 O0 2.223 1_655 S
Cd1 O4 2.297 . S
Cd1 O5 2.439 . S
Cd1 O11 2.240 1_545 S
Cd2 O3 2.240 1_565 S
Cd2 O10 2.223 1_455 S
Cd2 O12 2.297 . S
Cd2 O13 2.439 . S
O3 Cd2 2.240 1_545 S
O3 C8 1.279 . S
O4 Cd1 2.297 . S
O4 C6 1.247 . S
O5 Cd1 2.439 . S
O5 C6 1.208 . S
C6 O4 1.247 . S
C6 O5 1.208 . S
C7 O12 1.247 . S
C7 O13 1.208 . S
C8 O0 1.315 . S
C8 O3 1.279 . S
C9 O10 1.315 . S
C9 O11 1.279 . S
O10 Cd2 2.223 1_655 S
O10 C9 1.315 . S
O11 Cd1 2.240 1_565 S
O11 C9 1.279 . S
O12 Cd2 2.297 . S
O12 C7 1.247 . S
O13 Cd2 2.439 . S
O13 C7 1.208 . S
O14 Cd15 2.223 1_655 S
O14 C22 1.315 . S
Cd15 O14 2.223 1_455 S
Cd15 O18 2.297 . S
Cd15 O19 2.439 . S
Cd15 O25 2.240 . S
Cd16 O17 2.240 . S
Cd16 O24 2.223 1_655 S
Cd16 O26 2.297 . S
Cd16 O27 2.439 . S
O17 Cd16 2.240 . S
O17 C22 1.279 1_565 S
O18 Cd15 2.297 . S
O18 C20 1.247 . S
O19 Cd15 2.439 . S
O19 C20 1.208 . S
C20 O18 1.247 . S
C20 O19 1.208 . S
C21 O26 1.247 . S
C21 O27 1.208 . S
C22 O14 1.315 . S
C22 O17 1.279 1_545 S
C23 O24 1.315 . S
C23 O25 1.279 1_565 S
O24 Cd16 2.223 1_455 S
O24 C23 1.315 . S
O25 Cd15 2.240 . S
O25 C23 1.279 1_545 S
O26 Cd16 2.297 . S
O26 C21 1.247 . S
O27 Cd16 2.439 . S
O27 C21 1.208 . S
O28 Cd29 2.223 . S
O28 C36 1.315 . S
Cd29 O28 2.223 . S
Cd29 O32 2.297 . S
Cd29 O33 2.439 . S
Cd29 O39 2.240 1_655 S
Cd30 O31 2.240 1_455 S
Cd30 O38 2.223 . S
Cd30 O40 2.297 . S
Cd30 O41 2.439 . S
O31 Cd30 2.240 1_655 S
O31 C36 1.279 1_545 S
O32 Cd29 2.297 . S
O32 C34 1.247 . S
O33 Cd29 2.439 . S
O33 C34 1.208 . S
C34 O32 1.247 . S
C34 O33 1.208 . S
C35 O40 1.247 . S
C35 O41 1.208 . S
C36 O28 1.315 . S
C36 O31 1.279 1_565 S
C37 O38 1.315 . S
C37 O39 1.279 1_545 S
O38 Cd30 2.223 . S
O38 C37 1.315 . S
O39 Cd29 2.240 1_455 S
O39 C37 1.279 1_565 S
O40 Cd30 2.297 . S
O40 C35 1.247 . S
O41 Cd30 2.439 . S
O41 C35 1.208 . S
C42 O44 1.252 . S
C42 O46 1.255 1_455 S
C43 O50 1.249 . S
C43 O51 1.257 1_655 S
O44 C42 1.252 . S
O44 Zn45 2.028 . S
Zn45 O44 2.028 . S
Zn45 O49 2.035 . S
Zn45 O51 2.035 . S
Zn45 O52 2.028 . S
O46 C42 1.255 1_655 S
O46 Zn47 2.035 . S
Zn47 O46 2.035 . S
Zn47 O48 2.028 . S
Zn47 O50 2.028 . S
Zn47 O53 2.035 . S
O48 Zn47 2.028 . S
O48 C54 1.249 . S
O49 Zn45 2.035 . S
O49 C54 1.257 1_455 S
O50 C43 1.249 . S
O50 Zn47 2.028 . S
O51 C43 1.257 1_455 S
O51 Zn45 2.035 . S
O52 Zn45 2.028 . S
O52 C55 1.252 . S
O53 Zn47 2.035 . S
O53 C55 1.255 1_655 S
C54 O48 1.249 . S
C54 O49 1.257 1_655 S
C55 O52 1.252 . S
C55 O53 1.255 1_455 S
C56 O58 1.248 . S
C56 O60 1.256 1_565 S
C57 O64 1.250 . S
C57 O65 1.253 1_545 S
O58 C56 1.248 . S
O58 Zn59 2.028 . S
Zn59 O58 2.028 . S
Zn59 O63 2.035 . S
Zn59 O65 2.035 . S
Zn59 O66 2.028 . S
O60 C56 1.256 1_545 S
O60 Zn61 2.035 . S
Zn61 O60 2.035 . S
Zn61 O62 2.028 . S
Zn61 O64 2.028 . S
Zn61 O67 2.035 . S
O62 Zn61 2.028 . S
O62 C68 1.250 . S
O63 Zn59 2.035 . S
O63 C68 1.253 1_565 S
O64 C57 1.250 . S
O64 Zn61 2.028 . S
O65 C57 1.253 1_565 S
O65 Zn59 2.035 . S
O66 Zn59 2.028 . S
O66 C69 1.248 . S
O67 Zn61 2.035 . S
O67 C69 1.256 1_545 S
C68 O62 1.250 . S
C68 O63 1.253 1_545 S
C69 O66 1.248 . S
C69 O67 1.256 1_565 S
C70 O72 1.247 . S
C70 O74 1.258 . S
C71 O78 1.247 . S
C71 O79 1.258 . S
O72 C70 1.247 . S
O72 Zn73 2.028 . S
Zn73 O72 2.028 . S
Zn73 O77 2.035 . S
Zn73 O79 2.035 . S
Zn73 O80 2.028 . S
O74 C70 1.258 . S
O74 Zn75 2.035 . S
Zn75 O74 2.035 . S
Zn75 O76 2.028 . S
Zn75 O78 2.028 . S
Zn75 O81 2.035 . S
O76 Zn75 2.028 . S
O76 C82 1.247 . S
O77 Zn73 2.035 . S
O77 C82 1.258 . S
O78 C71 1.247 . S
O78 Zn75 2.028 . S
O79 C71 1.258 . S
O79 Zn73 2.035 . S
O80 Zn73 2.028 . S
O80 C83 1.247 . S
O81 Zn75 2.035 . S
O81 C83 1.258 . S
C82 O76 1.247 . S
C82 O77 1.258 . S
C83 O80 1.247 . S
C83 O81 1.258 . S
C84 C85 1.369 1_455 S
C84 C86 1.419 . S
C84 H88 0.930 . S
C85 C84 1.369 1_655 S
C85 C94 1.429 . S
C86 C84 1.419 . S
C86 C87 1.363 1_455 S
C86 H89 0.929 . S
C87 C86 1.363 1_655 S
C87 C93 1.428 . S
H88 C84 0.930 . S
H89 C86 0.929 . S
S90 N91 1.613 . S
S90 N92 1.610 . S
N91 S90 1.613 . S
N91 C94 1.350 . S
N92 S90 1.610 . S
N92 C93 1.351 . S
C93 C87 1.428 . S
C93 N92 1.351 . S
C93 C94 1.434 . S
C94 C85 1.429 . S
C94 N91 1.350 . S
C94 C93 1.434 . S
C95 C96 1.369 1_565 S
C95 C97 1.419 . S
C95 H99 0.930 . S
C96 C95 1.369 1_545 S
C96 C105 1.429 . S
C97 C95 1.419 . S
C97 C98 1.363 1_565 S
C97 H100 0.929 . S
C98 C97 1.363 1_545 S
C98 C104 1.428 . S
H99 C95 0.930 . S
H100 C97 0.929 . S
S101 N102 1.613 . S
S101 N103 1.610 . S
N102 S101 1.613 . S
N102 C105 1.350 . S
N103 S101 1.610 . S
N103 C104 1.351 . S
C104 C98 1.428 . S
C104 N103 1.351 . S
C104 C105 1.434 . S
C105 C96 1.429 . S
C105 N102 1.350 . S
C105 C104 1.434 . S
C106 C107 1.369 . S
C106 C108 1.419 . S
C106 H110 0.930 . S
C107 C106 1.369 . S
C107 C116 1.429 . S
C108 C106 1.419 . S
C108 C109 1.363 . S
C108 H111 0.929 . S
C109 C108 1.363 . S
C109 C115 1.428 . S
H110 C106 0.930 . S
H111 C108 0.929 . S
S112 N113 1.613 . S
S112 N114 1.610 . S
N113 S112 1.613 . S
N113 C116 1.350 . S
N114 S112 1.610 . S
N114 C115 1.351 . S
C115 C109 1.428 . S
C115 N114 1.351 . S
C115 C116 1.434 . S
C116 C107 1.429 . S
C116 N113 1.350 . S
C116 C115 1.434 . S
C117 C118 1.370 . S
C117 C119 1.419 . S
C117 H121 0.930 . S
C118 C117 1.370 . S
C118 C127 1.428 1_455 S
C119 C117 1.419 . S
C119 C120 1.363 1_455 S
C119 H122 0.929 . S
C120 C119 1.363 1_655 S
C120 C126 1.431 . S
H121 C117 0.930 . S
H122 C119 0.929 . S
S123 N124 1.613 . S
S123 N125 1.610 . S
N124 S123 1.613 . S
N124 C127 1.350 . S
N125 S123 1.610 . S
N125 C126 1.351 . S
C126 C120 1.431 . S
C126 N125 1.351 . S
C126 C127 1.434 . S
C127 C118 1.428 1_655 S
C127 N124 1.350 . S
C127 C126 1.434 . S
C128 C129 1.369 . S
C128 C130 1.419 1_565 S
C128 H132 0.930 . S
C129 C128 1.369 . S
C129 C138 1.429 . S
C130 C128 1.419 1_545 S
C130 C131 1.364 1_545 S
C130 H133 0.928 . S
C131 C130 1.364 1_565 S
C131 C137 1.423 . S
H132 C128 0.930 . S
H133 C130 0.928 . S
S134 N135 1.613 1_545 S
S134 N136 1.610 . S
N135 S134 1.613 1_565 S
N135 C138 1.350 . S
N136 S134 1.610 . S
N136 C137 1.351 1_545 S
C137 C131 1.423 . S
C137 N136 1.351 1_565 S
C137 C138 1.434 . S
C138 C129 1.429 . S
C138 N135 1.350 . S
C138 C137 1.434 . S
C139 C140 1.369 . S
C139 C141 1.419 . S
C139 H143 0.930 . S
C140 C139 1.369 . S
C140 C149 1.429 . S
C141 C139 1.419 . S
C141 C142 1.363 . S
C141 H144 0.929 . S
C142 C141 1.363 . S
C142 C148 1.428 . S
H143 C139 0.930 . S
H144 C141 0.929 . S
S145 N146 1.613 . S
S145 N147 1.610 . S
N146 S145 1.613 . S
N146 C149 1.350 . S
N147 S145 1.610 . S
N147 C148 1.351 . S
C148 C142 1.428 . S
C148 N147 1.351 . S
C148 C149 1.434 . S
C149 C140 1.429 . S
C149 N146 1.350 . S
C149 C148 1.434 . S
C150 C151 1.369 . S
C150 C152 1.419 . S
C150 H154 0.930 . S
C151 C150 1.369 . S
C151 C160 1.429 1_565 S
C152 C150 1.419 . S
C152 C153 1.363 . S
C152 H155 0.929 . S
C153 C152 1.363 . S
C153 C159 1.428 1_565 S
H154 C150 0.930 . S
H155 C152 0.929 . S
S156 N157 1.613 . S
S156 N158 1.610 . S
N157 S156 1.613 . S
N157 C160 1.350 . S
N158 S156 1.610 . S
N158 C159 1.351 . S
C159 C153 1.428 1_545 S
C159 N158 1.351 . S
C159 C160 1.434 . S
C160 C151 1.429 1_545 S
C160 N157 1.350 . S
C160 C159 1.434 . S
C161 C162 1.369 . S
C161 C163 1.419 1_554 S
C161 H165 0.930 . S
C162 C161 1.369 . S
C162 C171 1.429 1_554 S
C163 C161 1.419 1_556 S
C163 C164 1.363 . S
C163 H166 0.929 1_556 S
C164 C163 1.363 . S
C164 C170 1.428 . S
H165 C161 0.930 . S
H166 C163 0.929 1_554 S
S167 N168 1.613 . S
S167 N169 1.610 . S
N168 S167 1.613 . S
N168 C171 1.350 . S
N169 S167 1.610 . S
N169 C170 1.351 . S
C170 C164 1.428 . S
C170 N169 1.351 . S
C170 C171 1.434 . S
C171 C162 1.429 1_556 S
C171 N168 1.350 . S
C171 C170 1.434 . S
C172 C173 1.369 . S
C172 C174 1.419 . S
C172 H176 0.930 . S
C173 C172 1.369 . S
C173 C182 1.429 1_455 S
C174 C172 1.419 . S
C174 C175 1.363 . S
C174 H177 0.929 . S
C175 C174 1.363 . S
C175 C181 1.428 1_455 S
H176 C172 0.930 . S
H177 C174 0.929 . S
S178 N179 1.613 . S
S178 N180 1.610 . S
N179 S178 1.613 . S
N179 C182 1.350 . S
N180 S178 1.610 . S
N180 C181 1.351 . S
C181 C175 1.428 1_655 S
C181 N180 1.351 . S
C181 C182 1.434 . S
C182 C173 1.429 1_655 S
C182 N179 1.350 . S
C182 C181 1.434 . S
C183 C184 1.369 1_565 S
C183 C185 1.419 . S
C183 H187 0.930 . S
C184 C183 1.369 1_545 S
C184 C193 1.429 . S
C185 C183 1.419 . S
C185 C186 1.363 1_565 S
C185 H188 0.929 . S
C186 C185 1.363 1_545 S
C186 C192 1.428 . S
H187 C183 0.930 . S
H188 C185 0.929 . S
S189 N190 1.613 . S
S189 N191 1.610 . S
N190 S189 1.613 . S
N190 C193 1.350 . S
N191 S189 1.610 . S
N191 C192 1.351 . S
C192 C186 1.428 . S
C192 N191 1.351 . S
C192 C193 1.434 . S
C193 C184 1.429 . S
C193 N190 1.350 . S
C193 C192 1.434 . S
C194 C195 1.369 . S
C194 C196 1.419 1_554 S
C194 H198 0.930 . S
C195 C194 1.369 . S
C195 C204 1.429 1_554 S
C196 C194 1.419 1_556 S
C196 C197 1.363 . S
C196 H199 0.929 . S
C197 C196 1.363 . S
C197 C203 1.428 . S
H198 C194 0.930 . S
H199 C196 0.929 . S
S200 N201 1.613 . S
S200 N202 1.610 . S
N201 S200 1.613 . S
N201 C204 1.350 . S
N202 S200 1.610 . S
N202 C203 1.351 . S
C203 C197 1.428 . S
C203 N202 1.351 . S
C203 C204 1.434 . S
C204 C195 1.429 1_556 S
C204 N201 1.350 . S
C204 C203 1.434 . S
C205 C206 1.369 . S
C205 C207 1.419 . S
C205 H209 0.930 . S
C206 C205 1.369 . S
C206 C215 1.429 1_655 S
C207 C205 1.419 . S
C207 C208 1.367 . S
C207 H210 0.929 . S
C208 C207 1.367 . S
C208 C214 1.422 1_655 S
H209 C205 0.930 . S
H210 C207 0.929 . S
S211 N212 1.613 . S
S211 N213 1.610 . S
N212 S211 1.613 . S
N212 C215 1.350 . S
N213 S211 1.610 . S
N213 C214 1.351 . S
C214 C208 1.422 1_455 S
C214 N213 1.351 . S
C214 C215 1.434 . S
C215 C206 1.429 1_455 S
C215 N212 1.350 . S
C215 C214 1.434 . S
C87 C43 1.477 . S
C85 C6 1.463 . S
C96 C22 1.528 . S
C98 C69 1.553 1_545 S
C107 C34 1.316 . S
C109 C71 1.335 . S
C118 C7 1.467 . S
C120 C55 1.475 1_655 S
C131 C57 1.558 1_565 S
C129 C23 1.530 . S
C140 C35 1.318 . S
C142 C83 1.331 . S
C153 C56 1.553 . S
C151 C36 1.539 . S
C162 C9 1.693 . S
C164 C82 1.732 . S
C175 C42 1.472 . S
C173 C21 1.457 1_455 S
C186 C68 1.554 . S
C184 C37 1.536 . S
C197 C70 1.731 . S
C195 C8 1.690 . S
C206 C20 1.456 1_655 S
C208 C54 1.476 . S
