# Generated by pormake.
# Topology dag, (6,3)-cn, num edge types: 1
# Building blocks:
#     Node 0, Type 0, BuildingBlock: MIDCAF_clean_sbu_0, # of connection points: 6
#     Node 1, Type 0, BuildingBlock: MIDCAF_clean_sbu_0, # of connection points: 6
#     Node 2, Type 0, BuildingBlock: MIDCAF_clean_sbu_0, # of connection points: 6
#     Node 3, Type 0, BuildingBlock: MIDCAF_clean_sbu_0, # of connection points: 6
#     Node 4, Type 1, BuildingBlock: OLANEW_clean_sbu_2, # of connection points: 3
#     Node 5, Type 1, BuildingBlock: OLANEW_clean_sbu_2, # of connection points: 3
#     Node 6, Type 1, BuildingBlock: OLANEW_clean_sbu_2, # of connection points: 3
#     Node 7, Type 1, BuildingBlock: OLANEW_clean_sbu_2, # of connection points: 3
#     Node 8, Type 1, BuildingBlock: OLANEW_clean_sbu_2, # of connection points: 3
#     Node 9, Type 1, BuildingBlock: OLANEW_clean_sbu_2, # of connection points: 3
#     Node 10, Type 1, BuildingBlock: OLANEW_clean_sbu_2, # of connection points: 3
#     Node 11, Type 1, BuildingBlock: OLANEW_clean_sbu_2, # of connection points: 3
#     Edge 12, Type (0, 1), None
#     Edge 13, Type (0, 1), None
#     Edge 14, Type (0, 1), None
#     Edge 15, Type (0, 1), None
#     Edge 16, Type (0, 1), None
#     Edge 17, Type (0, 1), None
#     Edge 18, Type (0, 1), None
#     Edge 19, Type (0, 1), None
#     Edge 20, Type (0, 1), None
#     Edge 21, Type (0, 1), None
#     Edge 22, Type (0, 1), None
#     Edge 23, Type (0, 1), None
#     Edge 24, Type (0, 1), None
#     Edge 25, Type (0, 1), None
#     Edge 26, Type (0, 1), None
#     Edge 27, Type (0, 1), None
#     Edge 28, Type (0, 1), None
#     Edge 29, Type (0, 1), None
#     Edge 30, Type (0, 1), None
#     Edge 31, Type (0, 1), None
#     Edge 32, Type (0, 1), None
#     Edge 33, Type (0, 1), None
#     Edge 34, Type (0, 1), None
#     Edge 35, Type (0, 1), None
# Relax obj value: 0.184
# Max RMSD: 0.176
# Mean RMSD: 0.159
data_MOF--net-dag--node1-MIDCAF_clean_sbu_0--node2-OLANEW_clean_sbu_2--edge1-none
_symmetry_space_group_name_H-M    P1
_symmetry_Int_Tables_number       1
_symmetry_cell_setting            triclinic
loop_
_symmetry_equiv_pos_as_xyz
'x, y, z'
_cell_length_a     21.051673
_cell_length_b     20.023527
_cell_length_c     15.665898
_cell_angle_alpha  92.484981
_cell_angle_beta   94.769037
_cell_angle_gamma 90.903695
loop_
_atom_site_label
_atom_site_type_symbol
_atom_site_fract_x
_atom_site_fract_y
_atom_site_fract_z
_atom_type_partial_charge
Zn0 Zn 0.13604 0.78925 0.16035 0.0
Zn1 Zn 0.13714 0.9059 0.89205 0.0
Zn2 Zn 0.1378 0.84393 0.01907 0.0
C3 C 0.16048 0.0067 0.9847 0.0
C4 C 0.03942 0.81442 0.85468 0.0
O5 O 0.21588 0.76802 0.03317 0.0
O6 O 0.19825 0.71617 0.15063 0.0
C7 C 0.17512 0.92469 0.19412 0.0
O8 O 0.16975 0.95373 0.02849 0.0
O9 O 0.1245 0.00298 0.91611 0.0
O10 O 0.07508 0.85271 0.81757 0.0
O11 O 0.04727 0.81102 0.93727 0.0
O12 O 0.16865 0.86979 0.22941 0.0
O13 O 0.16338 0.92775 0.11252 0.0
O14 O 0.03568 0.81065 0.03059 0.0
O15 O 0.04411 0.769 0.15957 0.0
C16 C 0.00976 0.78541 0.09436 0.0
O17 O 0.20515 0.79308 0.94317 0.0
O18 O 0.22505 0.87961 0.86704 0.0
C19 C 0.23149 0.7238 0.08825 0.0
C20 C 0.23582 0.81992 0.88553 0.0
Zn21 Zn 0.64905 0.47453 0.32908 0.0
Zn22 Zn 0.64203 0.64406 0.59276 0.0
Zn23 Zn 0.65989 0.56 0.45211 0.0
C24 C 0.65018 0.50662 0.63798 0.0
C25 C 0.53605 0.65298 0.47921 0.0
O26 O 0.72978 0.60332 0.37659 0.0
O27 O 0.69736 0.53881 0.26257 0.0
C28 C 0.72301 0.41284 0.4529 0.0
O29 O 0.66719 0.49716 0.56132 0.0
O30 O 0.63237 0.56336 0.66448 0.0
O31 O 0.56314 0.68722 0.54184 0.0
O32 O 0.56498 0.60435 0.44374 0.0
O33 O 0.7066 0.40327 0.37396 0.0
O34 O 0.69963 0.46241 0.49487 0.0
O35 O 0.56774 0.56393 0.36559 0.0
O36 O 0.55462 0.46746 0.29206 0.0
C37 C 0.5338 0.52459 0.31155 0.0
O38 O 0.74228 0.62922 0.464 0.0
O39 O 0.7299 0.68443 0.58737 0.0
C40 C 0.73087 0.58748 0.29641 0.0
C41 C 0.7635 0.67 0.52609 0.0
Zn42 Zn 0.90278 0.13657 0.8523 0.0
Zn43 Zn 0.80157 0.11055 0.23197 0.0
Zn44 Zn 0.87149 0.16067 1.00294 0.0
C45 C 0.9259 0.09799 0.18736 0.0
C46 C 0.76102 0.09791 0.04487 0.0
O47 O 0.7855 0.17436 0.91977 0.0
O48 O 0.8257 0.17937 0.79401 0.0
C49 C 0.97428 0.2444 0.93784 0.0
O50 O 0.89399 0.12161 0.12348 0.0
O51 O 0.89631 0.08363 0.25157 0.0
O52 O 0.76218 0.1342 0.11348 0.0
O53 O 0.77334 0.12896 0.97862 0.0
O54 O 0.9813 0.19507 0.88636 0.0
O55 O 0.92615 0.24674 0.9819 0.0
O56 O 0.92016 0.06879 1.00998 0.0
O57 O 0.90277 0.03843 0.87338 0.0
C58 C 0.91952 0.02417 0.94964 0.0
O59 O 0.87722 0.23405 0.10759 0.0
O60 O 0.78917 0.20396 0.16828 0.0
C61 C 0.7801 0.18879 0.84039 0.0
C62 C 0.83454 0.24614 0.15989 0.0
Zn63 Zn 0.25586 0.39221 0.79815 0.0
Zn64 Zn 0.39138 0.35756 0.48246 0.0
Zn65 Zn 0.35271 0.33288 0.617 0.0
C66 C 0.49365 0.32725 0.55851 0.0
C67 C 0.2813 0.41033 0.46088 0.0
O68 O 0.3303 0.27186 0.72382 0.0
O69 O 0.23705 0.29105 0.77503 0.0
C70 C 0.3776 0.39952 0.80308 0.0
O71 O 0.44842 0.30463 0.59863 0.0
O72 O 0.48385 0.37328 0.50664 0.0
O73 O 0.33485 0.42543 0.43585 0.0
O74 O 0.27812 0.3719 0.52408 0.0
O75 O 0.34468 0.41663 0.86416 0.0
O76 O 0.349 0.36469 0.74144 0.0
O77 O 0.3331 0.43872 0.62451 0.0
O78 O 0.24914 0.45936 0.70079 0.0
C79 C 0.29145 0.47836 0.65256 0.0
O80 O 0.29426 0.26062 0.5455 0.0
O81 O 0.36344 0.26067 0.44784 0.0
C82 C 0.28559 0.25464 0.76991 0.0
C83 C 0.31765 0.23245 0.48094 0.0
O84 O 0.23959 0.96477 0.31474 0.0
Cd85 Cd 0.29678 0.02404 0.43716 0.0
O86 O 0.19689 0.04118 0.23253 0.0
Cd87 Cd 0.12433 0.07502 0.13888 0.0
O88 O 0.02457 0.10046 0.12328 0.0
C89 C 0.9943 0.08625 0.18713 0.0
O90 O 0.02491 0.05978 0.25347 0.0
C91 C 0.20588 0.98011 0.24769 0.0
C92 C 0.30229 0.1623 0.45603 0.0
O93 O 0.26039 0.1294 0.49281 0.0
O94 O 0.33778 0.13029 0.40633 0.0
O95 O 0.2652 0.58962 0.68595 0.0
Cd96 Cd 0.29696 0.70554 0.67798 0.0
O97 O 0.33728 0.57652 0.59579 0.0
Cd98 Cd 0.40895 0.55077 0.50784 0.0
O99 O 0.42537 0.6398 0.43483 0.0
C100 C 0.47614 0.6753 0.43706 0.0
O101 O 0.47549 0.7316 0.39714 0.0
C102 C 0.29713 0.55045 0.64132 0.0
C103 C 0.25875 0.77736 0.8178 0.0
O104 O 0.22221 0.76664 0.74891 0.0
O105 O 0.31531 0.75445 0.82201 0.0
O106 O 0.9257 0.70615 0.09769 0.0
Cd107 Cd 0.81171 0.70791 0.11712 0.0
O108 O 0.89777 0.80971 0.09803 0.0
Cd109 Cd 0.86789 0.91427 0.10968 0.0
O110 O 0.81489 0.00846 0.11413 0.0
C111 C 0.7821 0.02813 0.04838 0.0
O112 O 0.7766 -0.01043 0.9781 0.0
C113 C 0.94161 0.76698 0.09157 0.0
C114 C 0.76543 0.62792 0.23915 0.0
O115 O 0.76786 0.60733 0.16089 0.0
O116 O 0.7877 0.68644 0.26229 0.0
O117 O 0.67383 0.3959 0.67228 0.0
Cd118 Cd 0.6289 0.30272 0.7435 0.0
O119 O 0.61573 0.4503 0.75819 0.0
Cd120 Cd 0.55063 0.52223 0.80717 0.0
O121 O 0.45842 0.48297 0.83764 0.0
C122 C 0.44085 0.42904 0.79585 0.0
O123 O 0.47724 0.40371 0.7391 0.0
C124 C 0.64852 0.45001 0.69382 0.0
C125 C 0.72381 0.22303 0.80716 0.0
O126 O 0.69569 0.26315 0.85696 0.0
O127 O 0.70582 0.21917 0.72702 0.0
O128 O 0.83411 0.39351 0.45045 0.0
Cd129 Cd 0.82916 0.43089 0.3043 0.0
O130 O 0.78546 0.3428 0.54715 0.0
Cd131 Cd 0.6977 0.29712 0.57339 0.0
O132 O 0.60274 0.32834 0.54152 0.0
C133 C 0.55645 0.29924 0.5714 0.0
O134 O 0.56545 0.24468 0.61398 0.0
C135 C 0.78355 0.3837 0.48749 0.0
C136 C 0.83299 0.31186 0.20496 0.0
O137 O 0.88336 0.34862 0.22015 0.0
O138 O 0.78104 0.33269 0.23284 0.0
O139 O 0.26639 0.04678 1.00976 0.0
Cd140 Cd 0.34037 0.13829 0.98495 0.0
O141 O 0.19558 0.12112 0.97629 0.0
Cd142 Cd 0.11288 0.18104 0.93857 0.0
O143 O 0.08027 0.28505 0.94133 0.0
C144 C 0.02183 0.29848 0.94528 0.0
O145 O 0.00463 0.36079 0.95631 0.0
C146 C 0.20814 0.06145 0.99565 0.0
C147 C 0.30137 0.21015 0.84045 0.0
O148 O 0.34405 0.16554 0.83559 0.0
O149 O 0.27734 0.22025 0.91221 0.0
O150 O 0.48333 0.58316 0.19622 0.0
Cd151 Cd 0.39831 0.6034 0.07817 0.0
O152 O 0.42068 0.53234 0.27995 0.0
Cd153 Cd 0.32392 0.50264 0.31109 0.0
O154 O 0.22959 0.47761 0.35676 0.0
C155 C 0.22433 0.43952 0.419 0.0
O156 O 0.16784 0.42609 0.44445 0.0
C157 C 0.47644 0.54936 0.26217 0.0
C158 C 0.28923 0.68325 0.08322 0.0
O159 O 0.33708 0.7033 0.04499 0.0
O160 O 0.2944 0.62851 0.12261 0.0
O161 O 0.00785 0.7624 0.71971 0.0
Cd162 Cd 0.95992 0.72633 0.57369 0.0
O163 O 0.94084 0.75275 0.8191 0.0
Cd164 Cd 0.90952 0.80316 0.9302 0.0
O165 O 0.89891 0.90971 0.92449 0.0
C166 C 0.93182 0.95482 0.96798 0.0
O167 O 0.97517 0.93921 0.02856 0.0
C168 C 0.99488 0.771 0.79754 0.0
C169 C 0.83091 0.69103 0.53574 0.0
O170 O 0.87449 0.64738 0.53148 0.0
O171 O 0.84759 0.75088 0.56123 0.0
loop_
_geom_bond_atom_site_label_1
_geom_bond_atom_site_label_2
_geom_bond_distance
_geom_bond_site_symmetry_2
_ccdc_geom_bond_type
Zn0 O6 1.920 . S
Zn0 O12 1.898 . S
Zn0 O15 1.905 . S
Zn1 O9 1.905 1_565 S
Zn1 O10 1.898 . S
Zn1 O18 1.920 . S
Zn2 O5 2.081 . S
Zn2 O8 2.114 1_554 S
Zn2 O11 2.119 1_554 S
Zn2 O13 2.120 . S
Zn2 O14 2.114 . S
Zn2 O17 2.080 1_554 S
C3 O8 1.166 1_545 S
C3 O9 1.182 . S
C4 O10 1.167 . S
C4 O11 1.299 . S
O5 Zn2 2.081 . S
O5 C19 1.305 . S
O6 Zn0 1.920 . S
O6 C19 1.234 . S
C7 O12 1.167 . S
C7 O13 1.299 . S
O8 Zn2 2.114 1_556 S
O8 C3 1.166 1_565 S
O9 Zn1 1.905 1_545 S
O9 C3 1.182 . S
O10 Zn1 1.898 . S
O10 C4 1.167 . S
O11 Zn2 2.119 1_556 S
O11 C4 1.299 . S
O12 Zn0 1.898 . S
O12 C7 1.167 . S
O13 Zn2 2.120 . S
O13 C7 1.299 . S
O14 Zn2 2.114 . S
O14 C16 1.166 . S
O15 Zn0 1.905 . S
O15 C16 1.182 . S
C16 O14 1.166 . S
C16 O15 1.182 . S
O17 Zn2 2.080 1_556 S
O17 C20 1.305 . S
O18 Zn1 1.920 . S
O18 C20 1.234 . S
C19 O5 1.305 . S
C19 O6 1.234 . S
C20 O17 1.305 . S
C20 O18 1.234 . S
Zn21 O27 1.920 . S
Zn21 O33 1.898 . S
Zn21 O36 1.905 . S
Zn22 O30 1.905 . S
Zn22 O31 1.898 . S
Zn22 O39 1.920 . S
Zn23 O26 2.080 . S
Zn23 O29 2.114 . S
Zn23 O32 2.120 . S
Zn23 O34 2.120 . S
Zn23 O35 2.114 . S
Zn23 O38 2.080 . S
C24 O29 1.166 . S
C24 O30 1.182 . S
C25 O31 1.167 . S
C25 O32 1.299 . S
O26 Zn23 2.080 . S
O26 C40 1.305 . S
O27 Zn21 1.920 . S
O27 C40 1.234 . S
C28 O33 1.167 . S
C28 O34 1.299 . S
O29 Zn23 2.114 . S
O29 C24 1.166 . S
O30 Zn22 1.905 . S
O30 C24 1.182 . S
O31 Zn22 1.898 . S
O31 C25 1.167 . S
O32 Zn23 2.120 . S
O32 C25 1.299 . S
O33 Zn21 1.898 . S
O33 C28 1.167 . S
O34 Zn23 2.120 . S
O34 C28 1.299 . S
O35 Zn23 2.114 . S
O35 C37 1.166 . S
O36 Zn21 1.905 . S
O36 C37 1.182 . S
C37 O35 1.166 . S
C37 O36 1.182 . S
O38 Zn23 2.080 . S
O38 C41 1.305 . S
O39 Zn22 1.920 . S
O39 C41 1.234 . S
C40 O26 1.305 . S
C40 O27 1.234 . S
C41 O38 1.305 . S
C41 O39 1.234 . S
Zn42 O48 1.920 . S
Zn42 O54 1.898 . S
Zn42 O57 1.905 . S
Zn43 O51 1.905 . S
Zn43 O52 1.898 . S
Zn43 O60 1.920 . S
Zn44 O47 2.080 1_554 S
Zn44 O50 2.114 . S
Zn44 O53 2.120 . S
Zn44 O55 2.120 1_554 S
Zn44 O56 2.114 1_554 S
Zn44 O59 2.080 . S
C45 O50 1.166 . S
C45 O51 1.182 . S
C46 O52 1.167 . S
C46 O53 1.298 . S
O47 Zn44 2.080 1_556 S
O47 C61 1.305 . S
O48 Zn42 1.920 . S
O48 C61 1.234 . S
C49 O54 1.167 . S
C49 O55 1.299 . S
O50 Zn44 2.114 . S
O50 C45 1.166 . S
O51 Zn43 1.905 . S
O51 C45 1.182 . S
O52 Zn43 1.898 . S
O52 C46 1.167 . S
O53 Zn44 2.120 . S
O53 C46 1.298 . S
O54 Zn42 1.898 . S
O54 C49 1.167 . S
O55 Zn44 2.120 1_556 S
O55 C49 1.299 . S
O56 Zn44 2.114 1_556 S
O56 C58 1.166 . S
O57 Zn42 1.905 . S
O57 C58 1.182 . S
C58 O56 1.166 . S
C58 O57 1.182 . S
O59 Zn44 2.080 . S
O59 C62 1.305 . S
O60 Zn43 1.920 . S
O60 C62 1.234 . S
C61 O47 1.305 . S
C61 O48 1.234 . S
C62 O59 1.305 . S
C62 O60 1.234 . S
Zn63 O69 1.920 . S
Zn63 O75 1.898 . S
Zn63 O78 1.905 . S
Zn64 O72 1.905 . S
Zn64 O73 1.898 . S
Zn64 O81 1.920 . S
Zn65 O68 2.080 . S
Zn65 O71 2.114 . S
Zn65 O74 2.120 . S
Zn65 O76 2.120 . S
Zn65 O77 2.114 . S
Zn65 O80 2.080 . S
C66 O71 1.166 . S
C66 O72 1.182 . S
C67 O73 1.167 . S
C67 O74 1.299 . S
O68 Zn65 2.080 . S
O68 C82 1.305 . S
O69 Zn63 1.920 . S
O69 C82 1.234 . S
C70 O75 1.167 . S
C70 O76 1.299 . S
O71 Zn65 2.114 . S
O71 C66 1.166 . S
O72 Zn64 1.905 . S
O72 C66 1.182 . S
O73 Zn64 1.898 . S
O73 C67 1.167 . S
O74 Zn65 2.120 . S
O74 C67 1.299 . S
O75 Zn63 1.898 . S
O75 C70 1.167 . S
O76 Zn65 2.120 . S
O76 C70 1.299 . S
O77 Zn65 2.114 . S
O77 C79 1.166 . S
O78 Zn63 1.905 . S
O78 C79 1.182 . S
C79 O77 1.166 . S
C79 O78 1.182 . S
O80 Zn65 2.080 . S
O80 C83 1.305 . S
O81 Zn64 1.920 . S
O81 C83 1.234 . S
C82 O68 1.305 . S
C82 O69 1.234 . S
C83 O80 1.305 . S
C83 O81 1.234 . S
O84 Cd85 2.300 1_565 S
O84 C91 1.275 . S
Cd85 O84 2.300 1_545 S
Cd85 O93 2.381 . S
Cd85 O94 2.378 . S
O86 Cd87 2.385 . S
O86 C91 1.255 1_545 S
Cd87 O86 2.385 . S
Cd87 O88 2.317 . S
O88 Cd87 2.317 . S
O88 C89 1.232 . S
C89 O88 1.232 . S
C89 O90 1.218 . S
O90 C89 1.218 . S
C91 O84 1.275 . S
C91 O86 1.255 1_565 S
C92 O93 1.258 . S
C92 O94 1.256 . S
O93 Cd85 2.381 . S
O93 C92 1.258 . S
O94 Cd85 2.378 . S
O94 C92 1.256 . S
O95 Cd96 2.300 . S
O95 C102 1.275 . S
Cd96 O95 2.300 . S
Cd96 O104 2.381 . S
Cd96 O105 2.378 . S
O97 Cd98 2.385 . S
O97 C102 1.255 . S
Cd98 O97 2.385 . S
Cd98 O99 2.317 . S
O99 Cd98 2.317 . S
O99 C100 1.232 . S
C100 O99 1.232 . S
C100 O101 1.218 . S
O101 C100 1.218 . S
C102 O95 1.275 . S
C102 O97 1.255 . S
C103 O104 1.258 . S
C103 O105 1.256 . S
O104 Cd96 2.381 . S
O104 C103 1.258 . S
O105 Cd96 2.378 . S
O105 C103 1.256 . S
O106 Cd107 2.300 . S
O106 C113 1.275 . S
Cd107 O106 2.300 . S
Cd107 O115 2.381 . S
Cd107 O116 2.378 . S
O108 Cd109 2.385 . S
O108 C113 1.255 . S
Cd109 O108 2.385 . S
Cd109 O110 2.317 . S
O110 Cd109 2.317 . S
O110 C111 1.232 . S
C111 O110 1.232 . S
C111 O112 1.218 1_565 S
O112 C111 1.218 1_545 S
C113 O106 1.275 . S
C113 O108 1.255 . S
C114 O115 1.258 . S
C114 O116 1.256 . S
O115 Cd107 2.381 . S
O115 C114 1.258 . S
O116 Cd107 2.378 . S
O116 C114 1.256 . S
O117 Cd118 2.300 . S
O117 C124 1.275 . S
Cd118 O117 2.300 . S
Cd118 O126 2.381 . S
Cd118 O127 2.378 . S
O119 Cd120 2.385 . S
O119 C124 1.255 . S
Cd120 O119 2.385 . S
Cd120 O121 2.317 . S
O121 Cd120 2.317 . S
O121 C122 1.232 . S
C122 O121 1.232 . S
C122 O123 1.218 . S
O123 C122 1.218 . S
C124 O117 1.275 . S
C124 O119 1.255 . S
C125 O126 1.258 . S
C125 O127 1.256 . S
O126 Cd118 2.381 . S
O126 C125 1.258 . S
O127 Cd118 2.378 . S
O127 C125 1.256 . S
O128 Cd129 2.300 . S
O128 C135 1.275 . S
Cd129 O128 2.300 . S
Cd129 O137 2.381 . S
Cd129 O138 2.378 . S
O130 Cd131 2.385 . S
O130 C135 1.255 . S
Cd131 O130 2.385 . S
Cd131 O132 2.317 . S
O132 Cd131 2.317 . S
O132 C133 1.232 . S
C133 O132 1.232 . S
C133 O134 1.218 . S
O134 C133 1.218 . S
C135 O128 1.275 . S
C135 O130 1.255 . S
C136 O137 1.258 . S
C136 O138 1.256 . S
O137 Cd129 2.381 . S
O137 C136 1.258 . S
O138 Cd129 2.378 . S
O138 C136 1.256 . S
O139 Cd140 2.300 . S
O139 C146 1.275 . S
Cd140 O139 2.300 . S
Cd140 O148 2.381 . S
Cd140 O149 2.378 . S
O141 Cd142 2.385 . S
O141 C146 1.255 . S
Cd142 O141 2.385 . S
Cd142 O143 2.317 . S
O143 Cd142 2.317 . S
O143 C144 1.232 1_455 S
C144 O143 1.232 1_655 S
C144 O145 1.218 . S
O145 C144 1.218 . S
C146 O139 1.275 . S
C146 O141 1.255 . S
C147 O148 1.258 . S
C147 O149 1.256 . S
O148 Cd140 2.381 . S
O148 C147 1.258 . S
O149 Cd140 2.378 . S
O149 C147 1.256 . S
O150 Cd151 2.300 . S
O150 C157 1.275 . S
Cd151 O150 2.300 . S
Cd151 O159 2.381 . S
Cd151 O160 2.378 . S
O152 Cd153 2.385 . S
O152 C157 1.255 . S
Cd153 O152 2.385 . S
Cd153 O154 2.317 . S
O154 Cd153 2.317 . S
O154 C155 1.232 . S
C155 O154 1.232 . S
C155 O156 1.218 . S
O156 C155 1.218 . S
C157 O150 1.275 . S
C157 O152 1.255 . S
C158 O159 1.258 . S
C158 O160 1.256 . S
O159 Cd151 2.381 . S
O159 C158 1.258 . S
O160 Cd151 2.378 . S
O160 C158 1.256 . S
O161 Cd162 2.300 1_455 S
O161 C168 1.275 . S
Cd162 O161 2.300 1_655 S
Cd162 O170 2.381 . S
Cd162 O171 2.378 . S
O163 Cd164 2.385 . S
O163 C168 1.255 1_655 S
Cd164 O163 2.385 . S
Cd164 O165 2.317 . S
O165 Cd164 2.317 . S
O165 C166 1.232 . S
C166 O165 1.232 . S
C166 O167 1.218 . S
O167 C166 1.218 . S
C168 O161 1.275 . S
C168 O163 1.255 1_455 S
C169 O170 1.258 . S
C169 O171 1.256 . S
O170 Cd162 2.381 . S
O170 C169 1.258 . S
O171 Cd162 2.378 . S
O171 C169 1.256 . S
C7 C91 1.199 . S
C25 C100 0.792 . S
C46 C111 0.635 1_545 S
C122 C70 0.366 . S
C135 C28 1.185 . S
C49 C144 0.559 . S
C67 C155 0.873 . S
C4 C168 1.263 . S
C58 C166 1.050 1_545 S
C133 C66 2.009 . S
C146 C3 2.237 . S
C37 C157 2.248 . S
C102 C79 1.781 . S
C16 C113 2.319 1_455 S
C124 C24 1.888 . S
C89 C45 0.938 1_455 S
C158 C19 1.663 . S
C169 C41 1.748 . S
C62 C136 0.970 . S
C147 C82 1.213 . S
C114 C40 1.319 . S
C61 C125 1.160 . S
C92 C83 1.604 . S
C103 C20 1.341 . S
