# Generated by pormake.
# Topology scu, (8,4)-cn, num edge types: 1
# Building blocks:
#     Node 0, Type 0, BuildingBlock: TAGTUT_clean_sbu_3, # of connection points: 8
#     Node 1, Type 1, BuildingBlock: KOZSID_clean_sbu_0, # of connection points: 4
#     Node 2, Type 1, BuildingBlock: KOZSID_clean_sbu_0, # of connection points: 4
#     Edge 3, Type (0, 1), BuildingBlock: AJUNOK_clean_linker_0, # of connection points: 2
#     Edge 4, Type (0, 1), BuildingBlock: AJUNOK_clean_linker_0, # of connection points: 2
#     Edge 5, Type (0, 1), BuildingBlock: AJUNOK_clean_linker_0, # of connection points: 2
#     Edge 6, Type (0, 1), BuildingBlock: AJUNOK_clean_linker_0, # of connection points: 2
#     Edge 7, Type (0, 1), BuildingBlock: AJUNOK_clean_linker_0, # of connection points: 2
#     Edge 8, Type (0, 1), BuildingBlock: AJUNOK_clean_linker_0, # of connection points: 2
#     Edge 9, Type (0, 1), BuildingBlock: AJUNOK_clean_linker_0, # of connection points: 2
#     Edge 10, Type (0, 1), BuildingBlock: AJUNOK_clean_linker_0, # of connection points: 2
# Relax obj value: 0.022
# Max RMSD: 0.097
# Mean RMSD: 0.066
data_MOF--net-scu--node1-TAGTUT_clean_sbu_3--node2-KOZSID_clean_sbu_0--edge1-AJUNOK_clean_linker_0
_symmetry_space_group_name_H-M    P1
_symmetry_Int_Tables_number       1
_symmetry_cell_setting            triclinic
loop_
_symmetry_equiv_pos_as_xyz
'x, y, z'
_cell_length_a     24.126603
_cell_length_b     19.914329
_cell_length_c     16.602696
_cell_angle_alpha  83.863955
_cell_angle_beta   86.052088
_cell_angle_gamma 89.854797
loop_
_atom_site_label
_atom_site_type_symbol
_atom_site_fract_x
_atom_site_fract_y
_atom_site_fract_z
_atom_type_partial_charge
C0 C 0.0073 0.86992 0.12003 0.0
C1 C 0.79891 0.97241 0.09913 0.0
C2 C 0.85326 0.02377 0.85575 0.0
Mg3 Mg 0.12163 0.92727 0.01717 0.0
Mg4 Mg 0.13389 0.09002 0.96109 0.0
O5 O 0.09207 0.01132 0.95815 0.0
Mg6 Mg 0.01212 0.00789 -0.00077 0.0
O7 O 0.93232 -0.00097 0.04101 0.0
Mg8 Mg 0.91117 0.91394 0.99585 0.0
Mg9 Mg 0.8871 0.07357 0.01072 0.0
C10 C 0.02349 0.15127 0.88711 0.0
O11 O 0.01937 0.0943 0.07968 0.0
O12 O 0.20204 0.94738 0.92823 0.0
O13 O 0.93874 0.14889 0.0564 0.0
O14 O 0.16461 0.98164 0.11129 0.0
O15 O 0.20093 0.05852 0.88291 0.0
O16 O 0.16718 0.09296 0.07893 0.0
O17 O 0.99642 0.92325 0.92025 0.0
O18 O 0.07905 0.87254 0.9253 0.0
C19 C 0.02996 0.87676 0.9008 0.0
C20 C 0.2221 -0.00052 0.88261 0.0
O21 O 0.99636 0.09531 0.90208 0.0
O22 O 0.82755 0.92163 0.07736 0.0
O23 O 0.07219 0.1602 0.91149 0.0
O24 O 0.86646 0.96624 0.89001 0.0
O25 O 0.81438 0.0339 0.08035 0.0
O26 O 0.86424 0.07787 0.88643 0.0
O27 O 0.03592 0.92272 0.09359 0.0
O28 O 0.95859 0.86006 0.09727 0.0
C29 C 0.17865 0.04056 0.12607 0.0
C30 C 0.98684 0.14521 0.08576 0.0
C31 C 0.07783 0.61549 0.39465 0.0
C32 C 0.13215 0.63771 0.37606 0.0
C33 C 0.16506 0.59377 0.41953 0.0
C34 C 0.12906 0.54761 0.46196 0.0
N35 N 0.07505 0.55909 0.44808 0.0
Co36 Co 0.00865 0.50622 0.49978 0.0
N37 N 0.05731 0.44198 0.56353 0.0
C38 C 0.11354 0.44073 0.55901 0.0
C39 C 0.13524 0.38823 0.60678 0.0
C40 C 0.09025 0.3539 0.64437 0.0
C41 C 0.04345 0.3881 0.61775 0.0
N42 N 0.94221 0.45467 0.55378 0.0
C43 C 0.93935 0.40163 0.61229 0.0
C44 C 0.88486 0.38247 0.63566 0.0
C45 C 0.85192 0.42503 0.59025 0.0
C46 C 0.88807 0.4677 0.54233 0.0
N47 N 0.96016 0.56931 0.434 0.0
C48 C 0.90412 0.56702 0.43317 0.0
C49 C 0.8826 0.61732 0.3818 0.0
C50 C 0.92751 0.65388 0.34757 0.0
C51 C 0.9741 0.62355 0.38019 0.0
N52 N 0.01323 0.44626 0.41146 0.0
C53 C 0.01819 0.35586 0.29197 0.0
C54 C 0.96734 0.37917 0.32293 0.0
C55 C 0.96584 0.42407 0.38171 0.0
C56 C 0.06675 0.37989 0.32008 0.0
C57 C 0.06334 0.42487 0.37939 0.0
N58 N 1.004 0.56623 0.58765 0.0
C59 C 0.95371 0.64858 0.66082 0.0
C60 C 1.00153 0.66401 0.69776 0.0
C61 C 0.04962 0.62687 0.68264 0.0
C62 C 0.04992 0.57846 0.62795 0.0
C63 C 0.95574 0.59935 0.60681 0.0
H64 H 0.08813 0.5528 0.61765 0.0
H65 H 0.91815 0.59039 0.5797 0.0
H66 H 0.92571 0.43948 0.4026 0.0
H67 H 0.10179 0.44128 0.39843 0.0
C68 C 0.14484 0.49151 0.51265 0.0
C69 C 0.03051 0.64861 0.35848 0.0
C70 C 0.98697 0.36882 0.64824 0.0
C71 C 0.87258 0.51968 0.48512 0.0
H72 H 0.14647 0.68094 0.33485 0.0
H73 H 0.2099 0.59494 0.41963 0.0
H74 H 0.1786 0.37682 0.61424 0.0
H75 H 0.09181 0.3092 0.68737 0.0
H76 H 0.87048 0.34206 0.68105 0.0
H77 H 0.80699 0.42503 0.5921 0.0
H78 H 0.83933 0.627 0.37158 0.0
H79 H 0.92607 0.69831 0.3041 0.0
H80 H 0.92853 0.36175 0.30304 0.0
H81 H 0.10715 0.36426 0.29642 0.0
H82 H 0.91554 0.67617 0.67079 0.0
H83 H 0.08738 0.63636 0.71142 0.0
C84 C 0.43237 0.91761 0.63109 0.0
C85 C 0.41159 0.85621 0.6685 0.0
C86 C 0.4426 0.80695 0.63608 0.0
C87 C 0.47991 0.84075 0.58019 0.0
N88 N 0.47445 0.90839 0.5751 0.0
Co89 Co 0.51744 0.97602 0.49835 0.0
N90 N 0.5457 0.9048 0.43022 0.0
C91 C 0.54112 0.83747 0.44974 0.0
C92 C 0.56181 0.80062 0.3894 0.0
C93 C 0.5819 0.84741 0.32837 0.0
C94 C 0.5731 0.91037 0.35572 0.0
N95 N 0.56106 0.04357 0.42194 0.0
C96 C 0.59065 0.03642 0.35063 0.0
C97 C 0.61892 0.0958 0.32151 0.0
C98 C 0.6075 0.14095 0.37685 0.0
C99 C 0.57316 0.10702 0.4367 0.0
N100 N 0.4888 0.04656 0.56671 0.0
C101 C 0.50982 0.10912 0.56628 0.0
C102 C 0.48179 0.14629 0.62092 0.0
C103 C 0.44063 0.10434 0.65841 0.0
C104 C 0.4459 0.04387 0.62413 0.0
N105 N 0.58195 0.96395 0.56441 0.0
C106 C 0.67532 0.98317 0.65063 0.0
C107 C 0.62197 0.97996 0.68995 0.0
C108 C 0.57591 0.96928 0.64604 0.0
C109 C 0.68137 0.97039 0.56941 0.0
C110 C 0.63424 0.96091 0.52759 0.0
N111 N 0.45293 0.99065 0.43263 0.0
C112 C 0.38925 0.0685 0.36665 0.0
C113 C 0.35902 0.01521 0.34217 0.0
C114 C 0.37658 0.94901 0.36532 0.0
C115 C 0.42328 0.93784 0.41083 0.0
C116 C 0.43621 0.05527 0.41029 0.0
H117 H 0.43529 0.8865 0.42826 0.0
H118 H 0.45864 0.09783 0.42655 0.0
H119 H 0.53524 0.96909 0.67729 0.0
H120 H 0.64027 0.95509 0.46431 0.0
C121 C 0.51207 0.81078 0.52125 0.0
C122 C 0.41247 0.98348 0.652 0.0
C123 C 0.59995 0.97209 0.3155 0.0
C124 C 0.54973 0.13396 0.50559 0.0
H125 H 0.37716 0.84756 0.71367 0.0
H126 H 0.43647 0.7529 0.6484 0.0
H127 H 0.56186 0.74625 0.38948 0.0
H128 H 0.60313 0.83641 0.27172 0.0
H129 H 0.64693 0.10498 0.26779 0.0
H130 H 0.62307 0.19212 0.37426 0.0
H131 H 0.48917 0.19833 0.63053 0.0
H132 H 0.41053 0.11657 0.70597 0.0
H133 H 0.61579 0.98708 0.75372 0.0
H134 H 0.72205 0.97097 0.5373 0.0
H135 H 0.37664 0.12043 0.35287 0.0
H136 H 0.3548 0.90599 0.34769 0.0
C137 C 0.97679 0.26412 0.11764 0.0
C138 C 1.00341 0.20132 0.13084 0.0
C139 C 0.98468 0.31532 0.16702 0.0
C140 C 0.01918 0.30573 0.23205 0.0
H141 H 0.94815 0.27327 0.07023 0.0
H142 H 0.96194 0.36202 0.15601 0.0
S143 S 0.10251 0.1531 0.28824 0.0
N144 N 0.06936 0.13439 0.20972 0.0
N145 N 0.08339 0.23061 0.30381 0.0
C146 C 0.04879 0.24485 0.24309 0.0
C147 C 0.04106 0.19261 0.19219 0.0
C148 C 0.69865 0.99731 0.12558 0.0
C149 C 0.74634 0.96167 0.14944 0.0
C150 C 0.6507 -0.00171 0.17831 0.0
C151 C 0.64945 0.96536 0.25754 0.0
H152 H 0.69899 0.02611 0.06634 0.0
H153 H 0.61506 0.02692 0.1581 0.0
S154 S 0.76386 0.86503 0.34901 0.0
N155 N 0.78909 0.89125 0.25599 0.0
N156 N 0.70011 0.89517 0.35674 0.0
C157 C 0.69666 0.9284 0.28142 0.0
C158 C 0.74487 0.92605 0.22693 0.0
C159 C 0.03989 0.82649 0.25408 0.0
C160 C 0.03038 0.81579 0.17396 0.0
C161 C 0.04411 0.77146 0.31355 0.0
C162 C 0.03939 0.705 0.29359 0.0
H163 H 0.03933 0.87719 0.27218 0.0
H164 H 0.04737 0.78082 0.37615 0.0
S165 S 0.02241 0.65127 0.09024 0.0
N166 N 0.0223 0.73465 0.07601 0.0
N167 N 0.0311 0.63133 0.18773 0.0
C168 C 0.03483 0.69394 0.21251 0.0
C169 C 0.03011 0.74956 0.15246 0.0
C170 C 0.21747 0.99559 0.25708 0.0
C171 C 0.21872 0.04484 0.18946 0.0
C172 C 0.26198 0.98791 0.30758 0.0
C173 C 0.3101 0.02847 0.29194 0.0
H174 H 0.1826 0.96096 0.26937 0.0
H175 H 0.25915 0.94873 0.35824 0.0
S176 S 0.33429 0.16472 0.12178 0.0
N177 N 0.2715 0.13596 0.11066 0.0
N178 N 0.35584 0.1201 0.20317 0.0
C179 C 0.31111 0.07934 0.22577 0.0
C180 C 0.2653 0.0879 0.17527 0.0
C181 C 0.05339 0.82093 0.77787 0.0
C182 C 0.01536 0.82936 0.84382 0.0
C183 C 0.0473 0.7685 0.7298 0.0
C184 C 1.00332 0.72189 0.74654 0.0
H185 H 0.08915 0.85413 0.76471 0.0
H186 H 0.07802 0.7636 0.68002 0.0
S187 S 0.89215 0.72269 0.91236 0.0
N188 N 0.93154 0.78852 0.92287 0.0
N189 N 0.92017 0.68846 0.83282 0.0
C190 C 0.96377 0.73106 0.81081 0.0
C191 C 0.96982 0.78521 0.85954 0.0
C192 C 0.26876 0.02017 0.74384 0.0
C193 C 0.2705 0.99212 0.82514 0.0
C194 C 0.31495 0.01732 0.68828 0.0
C195 C 0.36463 0.98739 0.71265 0.0
H196 H 0.23121 0.04414 0.72294 0.0
H197 H 0.31184 0.03846 0.62586 0.0
S198 S 0.39246 0.91334 0.92037 0.0
N199 N 0.32668 0.93664 0.92817 0.0
N200 N 0.41452 0.93398 0.82449 0.0
C201 C 0.36755 0.96122 0.79434 0.0
C202 C 0.32011 0.96265 0.8504 0.0
C203 C 0.97711 0.19556 0.76314 0.0
C204 C 0.99982 0.20739 0.83611 0.0
C205 C 0.96766 0.24939 0.70413 0.0
C206 C 0.97955 0.31607 0.71779 0.0
H207 H 0.97109 0.14439 0.74875 0.0
H208 H 0.95505 0.23853 0.64548 0.0
S209 S 0.02874 0.37395 0.90503 0.0
N210 N 0.02656 0.29078 0.92315 0.0
N211 N 0.00708 0.39194 0.81299 0.0
C212 C 0.99638 0.32881 0.79378 0.0
C213 C 0.00705 0.27428 0.85294 0.0
C214 C 0.81459 0.96813 0.74404 0.0
C215 C 0.81508 0.02411 0.78937 0.0
C216 C 0.77029 0.95661 0.69679 0.0
C217 C 0.72439 0.0001 0.69393 0.0
H218 H 0.84744 0.93096 0.74835 0.0
H219 H 0.77069 0.91154 0.66552 0.0
S220 S 0.70818 0.15834 0.79222 0.0
N221 N 0.76795 0.1271 0.82142 0.0
N222 N 0.68458 0.10505 0.7328 0.0
C223 C 0.72585 0.05846 0.73454 0.0
C224 C 0.77133 0.07073 0.78192 0.0
loop_
_geom_bond_atom_site_label_1
_geom_bond_atom_site_label_2
_geom_bond_distance
_geom_bond_site_symmetry_2
_ccdc_geom_bond_type
C0 O27 1.312 1_655 S
C0 O28 1.208 . S
C1 O22 1.331 . S
C1 O25 1.244 1_565 S
C2 O24 1.264 1_545 S
C2 O26 1.273 . S
Mg3 O5 1.936 1_565 S
Mg3 O12 2.081 . S
Mg3 O14 2.023 1_556 S
Mg3 O18 2.031 . S
Mg3 O27 2.291 1_556 S
Mg4 O5 1.963 . S
Mg4 O15 1.942 . S
Mg4 O16 1.955 1_556 S
Mg4 O23 1.986 . S
O5 Mg3 1.936 1_545 S
O5 Mg4 1.963 . S
O5 Mg6 1.913 1_556 S
Mg6 O5 1.913 1_554 S
Mg6 O7 1.918 1_455 S
Mg6 O11 2.020 . S
Mg6 O17 2.108 1_444 S
Mg6 O21 2.006 1_454 S
Mg6 O27 2.119 1_545 S
O7 Mg6 1.918 1_655 S
O7 Mg8 1.936 1_545 S
O7 Mg9 1.963 . S
Mg8 O7 1.936 1_565 S
Mg8 O17 2.291 1_554 S
Mg8 O22 2.081 . S
Mg8 O24 2.023 1_554 S
Mg8 O28 2.031 . S
Mg9 O7 1.963 . S
Mg9 O13 1.986 . S
Mg9 O25 1.942 . S
Mg9 O26 1.955 1_554 S
C10 O21 1.191 1_455 S
C10 O23 1.307 . S
O11 Mg6 2.020 . S
O11 C30 1.191 1_455 S
O12 Mg3 2.081 . S
O12 C20 1.331 . S
O13 Mg9 1.986 . S
O13 C30 1.307 . S
O14 Mg3 2.023 1_554 S
O14 C29 1.264 1_565 S
O15 Mg4 1.942 . S
O15 C20 1.244 1_545 S
O16 Mg4 1.955 1_554 S
O16 C29 1.273 . S
O17 Mg6 2.108 1_666 S
O17 Mg8 2.291 1_556 S
O17 C19 1.312 1_655 S
O18 Mg3 2.031 . S
O18 C19 1.208 . S
C19 O17 1.312 1_455 S
C19 O18 1.208 . S
C20 O12 1.331 . S
C20 O15 1.244 1_565 S
O21 Mg6 2.006 1_656 S
O21 C10 1.191 1_655 S
O22 C1 1.331 . S
O22 Mg8 2.081 . S
O23 Mg4 1.986 . S
O23 C10 1.307 . S
O24 C2 1.264 1_565 S
O24 Mg8 2.023 1_556 S
O25 C1 1.244 1_545 S
O25 Mg9 1.942 . S
O26 C2 1.273 . S
O26 Mg9 1.955 1_556 S
O27 C0 1.312 1_455 S
O27 Mg3 2.291 1_554 S
O27 Mg6 2.119 1_565 S
O28 C0 1.208 . S
O28 Mg8 2.031 . S
C29 O14 1.264 1_545 S
C29 O16 1.273 . S
C30 O11 1.191 1_655 S
C30 O13 1.307 . S
C31 C32 1.443 . S
C31 N35 1.376 . S
C31 C69 1.389 . S
C32 C31 1.443 . S
C32 C33 1.340 . S
C32 H72 0.951 . S
C33 C32 1.340 . S
C33 C34 1.439 . S
C33 H73 0.950 . S
C34 C33 1.439 . S
C34 N35 1.374 . S
C34 C68 1.395 . S
N35 C31 1.376 . S
N35 C34 1.374 . S
N35 Co36 2.008 . S
Co36 N35 2.008 . S
Co36 N37 1.995 . S
Co36 N42 2.008 1_455 S
Co36 N47 1.995 1_455 S
Co36 N52 2.282 . S
Co36 N58 2.283 . S
N37 Co36 1.995 . S
N37 C38 1.376 . S
N37 C41 1.383 . S
C38 N37 1.376 . S
C38 C39 1.446 . S
C38 C68 1.391 . S
C39 C38 1.446 . S
C39 C40 1.339 . S
C39 H74 0.949 . S
C40 C39 1.339 . S
C40 C41 1.439 . S
C40 H75 0.950 . S
C41 N37 1.383 . S
C41 C40 1.439 . S
C41 C70 1.392 . S
N42 Co36 2.008 1_655 S
N42 C43 1.376 . S
N42 C46 1.374 . S
C43 N42 1.376 . S
C43 C44 1.443 . S
C43 C70 1.389 1_655 S
C44 C43 1.443 . S
C44 C45 1.340 . S
C44 H76 0.951 . S
C45 C44 1.340 . S
C45 C46 1.439 . S
C45 H77 0.950 . S
C46 N42 1.374 . S
C46 C45 1.439 . S
C46 C71 1.395 . S
N47 Co36 1.995 1_655 S
N47 C48 1.376 . S
N47 C51 1.383 . S
C48 N47 1.376 . S
C48 C49 1.446 . S
C48 C71 1.391 . S
C49 C48 1.446 . S
C49 C50 1.339 . S
C49 H78 0.949 . S
C50 C49 1.339 . S
C50 C51 1.439 . S
C50 H79 0.950 . S
C51 N47 1.383 . S
C51 C50 1.439 . S
C51 C69 1.392 1_655 S
N52 Co36 2.282 . S
N52 C55 1.332 1_455 S
N52 C57 1.332 . S
C53 C54 1.386 1_455 S
C53 C56 1.388 . S
C54 C53 1.386 1_655 S
C54 C55 1.382 . S
C54 H80 0.950 . S
C55 N52 1.332 1_655 S
C55 C54 1.382 . S
C55 H66 0.952 . S
C56 C53 1.388 . S
C56 C57 1.382 . S
C56 H81 0.950 . S
C57 N52 1.332 . S
C57 C56 1.382 . S
C57 H67 0.948 . S
N58 Co36 2.283 . S
N58 C62 1.343 . S
N58 C63 1.322 1_455 S
C59 C60 1.388 1_655 S
C59 C63 1.382 . S
C59 H82 0.950 . S
C60 C59 1.388 1_455 S
C60 C61 1.386 . S
C61 C60 1.386 . S
C61 C62 1.382 . S
C61 H83 0.950 . S
C62 N58 1.343 . S
C62 C61 1.382 . S
C62 H64 0.952 . S
C63 N58 1.322 1_655 S
C63 C59 1.382 . S
C63 H65 0.948 . S
H64 C62 0.952 . S
H65 C63 0.948 . S
H66 C55 0.952 . S
H67 C57 0.948 . S
C68 C34 1.395 . S
C68 C38 1.391 . S
C69 C31 1.389 . S
C69 C51 1.392 1_455 S
C70 C41 1.392 . S
C70 C43 1.389 1_455 S
C71 C46 1.395 . S
C71 C48 1.391 . S
H72 C32 0.951 . S
H73 C33 0.950 . S
H74 C39 0.949 . S
H75 C40 0.950 . S
H76 C44 0.951 . S
H77 C45 0.950 . S
H78 C49 0.949 . S
H79 C50 0.950 . S
H80 C54 0.950 . S
H81 C56 0.950 . S
H82 C59 0.950 . S
H83 C61 0.950 . S
C84 C85 1.443 . S
C84 N88 1.376 . S
C84 C122 1.376 1_565 S
C85 C84 1.443 . S
C85 C86 1.340 . S
C85 H125 0.951 . S
C86 C85 1.340 . S
C86 C87 1.439 . S
C86 H126 0.950 . S
C87 C86 1.439 . S
C87 N88 1.374 . S
C87 C121 1.395 . S
N88 C84 1.376 . S
N88 C87 1.374 . S
N88 Co89 2.008 1_565 S
Co89 N88 2.008 1_545 S
Co89 N90 1.995 1_545 S
Co89 N95 2.008 . S
Co89 N100 1.995 . S
Co89 N105 2.282 1_545 S
Co89 N111 2.282 . S
N90 Co89 1.995 1_565 S
N90 C91 1.376 . S
N90 C94 1.383 . S
C91 N90 1.376 . S
C91 C92 1.446 . S
C91 C121 1.391 . S
C92 C91 1.446 . S
C92 C93 1.339 . S
C92 H127 0.949 . S
C93 C92 1.339 . S
C93 C94 1.439 . S
C93 H128 0.950 . S
C94 N90 1.383 . S
C94 C93 1.439 . S
C94 C123 1.392 1_565 S
N95 Co89 2.008 . S
N95 C96 1.376 . S
N95 C99 1.374 . S
C96 N95 1.376 . S
C96 C97 1.443 . S
C96 C123 1.389 . S
C97 C96 1.443 . S
C97 C98 1.340 . S
C97 H129 0.951 . S
C98 C97 1.340 . S
C98 C99 1.439 . S
C98 H130 0.950 . S
C99 N95 1.374 . S
C99 C98 1.439 . S
C99 C124 1.395 . S
N100 Co89 1.995 . S
N100 C101 1.376 . S
N100 C104 1.383 . S
C101 N100 1.376 . S
C101 C102 1.446 . S
C101 C124 1.391 . S
C102 C101 1.446 . S
C102 C103 1.339 . S
C102 H131 0.949 . S
C103 C102 1.339 . S
C103 C104 1.439 . S
C103 H132 0.950 . S
C104 N100 1.383 . S
C104 C103 1.439 . S
C104 C122 1.404 . S
N105 Co89 2.282 1_565 S
N105 C108 1.332 1_565 S
N105 C110 1.332 . S
C106 C107 1.399 . S
C106 C109 1.373 1_545 S
C107 C106 1.399 . S
C107 C108 1.382 . S
C107 H133 0.950 . S
C108 N105 1.332 1_545 S
C108 C107 1.382 . S
C108 H119 0.952 . S
C109 C106 1.373 1_565 S
C109 C110 1.382 . S
C109 H134 0.950 . S
C110 N105 1.332 . S
C110 C109 1.382 . S
C110 H120 0.948 . S
N111 Co89 2.282 . S
N111 C115 1.332 1_545 S
N111 C116 1.332 . S
C112 C113 1.388 . S
C112 C116 1.382 . S
C112 H135 0.950 . S
C113 C112 1.388 . S
C113 C114 1.386 1_545 S
C114 C113 1.386 1_565 S
C114 C115 1.382 . S
C114 H136 0.950 . S
C115 N111 1.332 1_565 S
C115 C114 1.382 . S
C115 H117 0.952 . S
C116 N111 1.332 . S
C116 C112 1.382 . S
C116 H118 0.948 . S
H117 C115 0.952 . S
H118 C116 0.948 . S
H119 C108 0.952 . S
H120 C110 0.948 . S
C121 C87 1.395 . S
C121 C91 1.391 . S
C122 C84 1.376 1_545 S
C122 C104 1.404 . S
C123 C94 1.392 1_545 S
C123 C96 1.389 . S
C124 C99 1.395 . S
C124 C101 1.391 . S
H125 C85 0.951 . S
H126 C86 0.950 . S
H127 C92 0.949 . S
H128 C93 0.950 . S
H129 C97 0.951 . S
H130 C98 0.950 . S
H131 C102 0.949 . S
H132 C103 0.950 . S
H133 C107 0.950 . S
H134 C109 0.950 . S
H135 C112 0.950 . S
H136 C114 0.950 . S
C137 C138 1.356 1_655 S
C137 C139 1.419 . S
C137 H141 0.930 . S
C138 C137 1.356 1_455 S
C138 C147 1.444 . S
C139 C137 1.419 . S
C139 C140 1.363 1_655 S
C139 H142 0.929 . S
C140 C139 1.363 1_455 S
C140 C146 1.428 . S
H141 C137 0.930 . S
H142 C139 0.929 . S
S143 N144 1.613 . S
S143 N145 1.610 . S
N144 S143 1.613 . S
N144 C147 1.350 . S
N145 S143 1.610 . S
N145 C146 1.351 . S
C146 C140 1.428 . S
C146 N145 1.351 . S
C146 C147 1.434 . S
C147 C138 1.444 . S
C147 N144 1.350 . S
C147 C146 1.434 . S
C148 C149 1.369 1_545 S
C148 C150 1.419 . S
C148 H152 0.930 . S
C149 C148 1.369 1_565 S
C149 C158 1.429 . S
C150 C148 1.419 . S
C150 C151 1.363 1_545 S
C150 H153 0.929 . S
C151 C150 1.363 1_565 S
C151 C157 1.428 . S
H152 C148 0.930 . S
H153 C150 0.929 . S
S154 N155 1.613 . S
S154 N156 1.610 . S
N155 S154 1.613 . S
N155 C158 1.350 . S
N156 S154 1.610 . S
N156 C157 1.351 . S
C157 C151 1.428 . S
C157 N156 1.351 . S
C157 C158 1.434 . S
C158 C149 1.429 . S
C158 N155 1.350 . S
C158 C157 1.434 . S
C159 C160 1.369 . S
C159 C161 1.419 . S
C159 H163 0.930 . S
C160 C159 1.369 . S
C160 C169 1.429 1_455 S
C161 C159 1.419 . S
C161 C162 1.363 . S
C161 H164 0.929 . S
C162 C161 1.363 . S
C162 C168 1.428 1_455 S
H163 C159 0.930 . S
H164 C161 0.929 . S
S165 N166 1.613 . S
S165 N167 1.610 . S
N166 S165 1.613 . S
N166 C169 1.350 . S
N167 S165 1.610 . S
N167 C168 1.351 . S
C168 C162 1.428 1_655 S
C168 N167 1.351 . S
C168 C169 1.434 . S
C169 C160 1.429 1_655 S
C169 N166 1.350 . S
C169 C168 1.434 . S
C170 C171 1.369 1_565 S
C170 C172 1.419 . S
C170 H174 0.930 . S
C171 C170 1.369 1_545 S
C171 C180 1.429 . S
C172 C170 1.419 . S
C172 C173 1.363 1_565 S
C172 H175 0.929 . S
C173 C172 1.363 1_545 S
C173 C179 1.428 . S
H174 C170 0.930 . S
H175 C172 0.929 . S
S176 N177 1.613 . S
S176 N178 1.610 . S
N177 S176 1.613 . S
N177 C180 1.350 . S
N178 S176 1.610 . S
N178 C179 1.351 . S
C179 C173 1.428 . S
C179 N178 1.351 . S
C179 C180 1.434 . S
C180 C171 1.429 . S
C180 N177 1.350 . S
C180 C179 1.434 . S
C181 C182 1.369 . S
C181 C183 1.419 . S
C181 H185 0.930 . S
C182 C181 1.369 . S
C182 C191 1.429 1_455 S
C183 C181 1.419 . S
C183 C184 1.363 . S
C183 H186 0.929 . S
C184 C183 1.363 . S
C184 C190 1.428 1_455 S
H185 C181 0.930 . S
H186 C183 0.929 . S
S187 N188 1.613 . S
S187 N189 1.610 . S
N188 S187 1.613 . S
N188 C191 1.350 . S
N189 S187 1.610 . S
N189 C190 1.351 . S
C190 C184 1.428 1_655 S
C190 N189 1.351 . S
C190 C191 1.434 . S
C191 C182 1.429 1_655 S
C191 N188 1.350 . S
C191 C190 1.434 . S
C192 C193 1.369 1_545 S
C192 C194 1.419 . S
C192 H196 0.930 . S
C193 C192 1.369 1_565 S
C193 C202 1.429 . S
C194 C192 1.419 . S
C194 C195 1.363 . S
C194 H197 0.929 . S
C195 C194 1.363 . S
C195 C201 1.428 1_545 S
H196 C192 0.930 . S
H197 C194 0.929 . S
S198 N199 1.613 . S
S198 N200 1.610 . S
N199 S198 1.613 . S
N199 C202 1.350 . S
N200 S198 1.610 . S
N200 C201 1.351 . S
C201 C195 1.428 1_565 S
C201 N200 1.351 . S
C201 C202 1.434 . S
C202 C193 1.429 . S
C202 N199 1.350 . S
C202 C201 1.434 . S
C203 C204 1.369 1_655 S
C203 C205 1.419 . S
C203 H207 0.930 . S
C204 C203 1.369 1_455 S
C204 C213 1.429 . S
C205 C203 1.419 . S
C205 C206 1.363 1_655 S
C205 H208 0.929 . S
C206 C205 1.363 1_455 S
C206 C212 1.428 . S
H207 C203 0.930 . S
H208 C205 0.929 . S
S209 N210 1.613 . S
S209 N211 1.610 . S
N210 S209 1.613 . S
N210 C213 1.350 . S
N211 S209 1.610 . S
N211 C212 1.351 . S
C212 C206 1.428 . S
C212 N211 1.351 . S
C212 C213 1.434 . S
C213 C204 1.429 . S
C213 N210 1.350 . S
C213 C212 1.434 . S
C214 C215 1.369 1_565 S
C214 C216 1.419 . S
C214 H218 0.930 . S
C215 C214 1.369 1_545 S
C215 C224 1.429 . S
C216 C214 1.419 . S
C216 C217 1.363 1_565 S
C216 H219 0.929 . S
C217 C216 1.363 1_545 S
C217 C223 1.428 . S
H218 C214 0.930 . S
H219 C216 0.929 . S
S220 N221 1.613 . S
S220 N222 1.610 . S
N221 S220 1.613 . S
N221 C224 1.350 . S
N222 S220 1.610 . S
N222 C223 1.351 . S
C223 C217 1.428 . S
C223 N222 1.351 . S
C223 C224 1.434 . S
C224 C215 1.429 . S
C224 N221 1.350 . S
C224 C223 1.434 . S
C138 C30 1.355 1_455 S
C140 C53 1.382 . S
C149 C1 1.579 . S
C151 C123 1.622 1_565 S
C160 C0 1.447 1_455 S
C162 C69 1.515 . S
C171 C29 1.478 . S
C173 C113 1.509 . S
C182 C19 1.346 . S
C184 C60 1.393 . S
C193 C20 1.563 . S
C195 C122 1.603 . S
C206 C70 1.507 . S
C204 C10 1.466 . S
C215 C2 1.494 . S
C217 C106 1.527 . S
