# Generated by pormake.
# Topology dag, (6,3)-cn, num edge types: 1
# Building blocks:
#     Node 0, Type 0, BuildingBlock: OJICUG_clean_sbu_0, # of connection points: 6
#     Node 1, Type 0, BuildingBlock: OJICUG_clean_sbu_0, # of connection points: 6
#     Node 2, Type 0, BuildingBlock: OJICUG_clean_sbu_0, # of connection points: 6
#     Node 3, Type 0, BuildingBlock: OJICUG_clean_sbu_0, # of connection points: 6
#     Node 4, Type 1, BuildingBlock: OLANEW_clean_sbu_2, # of connection points: 3
#     Node 5, Type 1, BuildingBlock: OLANEW_clean_sbu_2, # of connection points: 3
#     Node 6, Type 1, BuildingBlock: OLANEW_clean_sbu_2, # of connection points: 3
#     Node 7, Type 1, BuildingBlock: OLANEW_clean_sbu_2, # of connection points: 3
#     Node 8, Type 1, BuildingBlock: OLANEW_clean_sbu_2, # of connection points: 3
#     Node 9, Type 1, BuildingBlock: OLANEW_clean_sbu_2, # of connection points: 3
#     Node 10, Type 1, BuildingBlock: OLANEW_clean_sbu_2, # of connection points: 3
#     Node 11, Type 1, BuildingBlock: OLANEW_clean_sbu_2, # of connection points: 3
#     Edge 12, Type (0, 1), None
#     Edge 13, Type (0, 1), None
#     Edge 14, Type (0, 1), None
#     Edge 15, Type (0, 1), None
#     Edge 16, Type (0, 1), None
#     Edge 17, Type (0, 1), None
#     Edge 18, Type (0, 1), None
#     Edge 19, Type (0, 1), None
#     Edge 20, Type (0, 1), None
#     Edge 21, Type (0, 1), None
#     Edge 22, Type (0, 1), None
#     Edge 23, Type (0, 1), None
#     Edge 24, Type (0, 1), None
#     Edge 25, Type (0, 1), None
#     Edge 26, Type (0, 1), None
#     Edge 27, Type (0, 1), None
#     Edge 28, Type (0, 1), None
#     Edge 29, Type (0, 1), None
#     Edge 30, Type (0, 1), None
#     Edge 31, Type (0, 1), None
#     Edge 32, Type (0, 1), None
#     Edge 33, Type (0, 1), None
#     Edge 34, Type (0, 1), None
#     Edge 35, Type (0, 1), None
# Relax obj value: 0.132
# Max RMSD: 0.176
# Mean RMSD: 0.140
data_MOF--net-dag--node1-OJICUG_clean_sbu_0--node2-OLANEW_clean_sbu_2--edge1-none
_symmetry_space_group_name_H-M    P1
_symmetry_Int_Tables_number       1
_symmetry_cell_setting            triclinic
loop_
_symmetry_equiv_pos_as_xyz
'x, y, z'
_cell_length_a     20.695376
_cell_length_b     18.927036
_cell_length_c     19.77189
_cell_angle_alpha  93.901532
_cell_angle_beta   96.090043
_cell_angle_gamma 92.869482
loop_
_atom_site_label
_atom_site_type_symbol
_atom_site_fract_x
_atom_site_fract_y
_atom_site_fract_z
_atom_type_partial_charge
Sc0 Sc 0.04177 0.8906 0.04893 0.0
Sc1 Sc 0.10556 0.72647 1.00627 0.0
Sc2 Sc 0.20782 0.87782 0.02885 0.0
O3 O 0.11797 0.83213 0.0303 0.0
C4 C 0.12497 0.00556 0.97792 0.0
C5 C -0.00336 0.79758 0.90956 0.0
C6 C 0.19676 0.7702 0.90136 0.0
C7 C -0.00699 0.74335 0.10306 0.0
C8 C 0.15626 0.94351 0.16642 0.0
C9 C 0.23636 0.73053 0.09675 0.0
O10 O 0.07212 0.98055 0.99614 0.0
O11 O 0.03574 0.74821 0.92089 0.0
O12 O 0.20827 0.83508 0.92289 0.0
O13 O -0.00576 0.81074 0.10481 0.0
O14 O 0.20305 0.92297 0.13329 0.0
O15 O 0.17748 0.7052 0.08919 0.0
O16 O 0.09604 0.93625 0.14277 0.0
O17 O 0.02951 0.70743 0.06864 0.0
O18 O 0.25419 0.7866 0.06974 0.0
O19 O -0.01021 0.8492 0.95278 0.0
O20 O 0.17793 0.97516 0.98775 0.0
O21 O 0.18111 0.72415 0.94072 0.0
Sc22 Sc 0.76939 0.51598 0.48346 0.0
Sc23 Sc 0.66938 0.65582 0.44154 0.0
Sc24 Sc 0.60464 0.49254 0.47875 0.0
O25 O 0.68123 0.55625 0.46771 0.0
C26 C 0.68222 0.38686 0.40623 0.0
C27 C 0.7758 0.5924 0.34838 0.0
C28 C 0.54307 0.58206 0.35849 0.0
C29 C 0.7998 0.67507 0.54209 0.0
C30 C 0.70602 0.45507 0.60096 0.0
C31 C 0.56957 0.63207 0.55395 0.0
O32 O 0.73324 0.40879 0.44522 0.0
O33 O 0.73957 0.64205 0.36616 0.0
O34 O 0.54083 0.53603 0.40194 0.0
O35 O 0.81799 0.61452 0.52377 0.0
O36 O 0.65629 0.43688 0.55871 0.0
O37 O 0.59636 0.6716 0.51336 0.0
O38 O 0.75245 0.49528 0.58605 0.0
O39 O 0.74414 0.69662 0.52224 0.0
O40 O 0.5758 0.5656 0.5543 0.0
O41 O 0.78769 0.53926 0.383 0.0
O42 O 0.63187 0.42189 0.40068 0.0
O43 O 0.5913 0.62674 0.3594 0.0
Sc44 Sc 0.87515 0.30723 0.09602 0.0
Sc45 Sc 0.79105 0.16641 0.99054 0.0
Sc46 Sc 0.95887 0.16105 0.0413 0.0
O47 O 0.87496 0.21175 0.04251 0.0
C48 C 0.00192 0.3209 0.01835 0.0
C49 C 0.77456 0.32974 0.96733 0.0
C50 C 0.89243 0.1292 0.8876 0.0
C51 C 0.74779 0.22067 0.13293 0.0
C52 C 0.97624 0.23039 0.19406 0.0
C53 C 0.8583 0.03526 0.05661 0.0
O54 O 0.95759 0.34931 0.04916 0.0
O55 O 0.75978 0.26429 0.95222 0.0
O56 O 0.93921 0.12657 0.93424 0.0
O57 O 0.79362 0.26883 0.1465 0.0
O58 O -0.00956 0.18539 0.14831 0.0
O59 O 0.81071 0.0619 0.0232 0.0
O60 O 0.93591 0.27728 0.18238 0.0
O61 O 0.73892 0.18131 0.0778 0.0
O62 O 0.91429 0.06622 0.07012 0.0
O63 O 0.81515 0.35278 0.01729 0.0
O64 O 0.0084 0.25447 0.01269 0.0
O65 O 0.83645 0.14841 0.89873 0.0
Sc66 Sc 0.39312 0.41598 0.57509 0.0
Sc67 Sc 0.23453 0.33427 0.56406 0.0
Sc68 Sc 0.37192 0.24187 0.62237 0.0
O69 O 0.33295 0.33081 0.58709 0.0
C70 C 0.47494 0.28552 0.52463 0.0
C71 C 0.29143 0.40978 0.44117 0.0
C72 C 0.25872 0.17422 0.51132 0.0
C73 C 0.27291 0.49445 0.62846 0.0
C74 C 0.46032 0.36418 0.71243 0.0
C75 C 0.24866 0.25786 0.70451 0.0
O76 O 0.46311 0.35092 0.53046 0.0
O77 O 0.24515 0.37676 0.46588 0.0
O78 O 0.31133 0.17204 0.54995 0.0
O79 O 0.33226 0.49248 0.61805 0.0
O80 O 0.43939 0.30009 0.69853 0.0
O81 O 0.21555 0.29214 0.6608 0.0
O82 O 0.44521 0.41371 0.67461 0.0
O83 O 0.23197 0.44156 0.61282 0.0
O84 O 0.30495 0.2372 0.69691 0.0
O85 O 0.34667 0.42643 0.47451 0.0
O86 O 0.44379 0.23786 0.55198 0.0
O87 O 0.22451 0.22842 0.51064 0.0
O88 O 0.21317 0.94342 0.27793 0.0
Cd89 Cd 0.19633 0.97744 0.39826 0.0
O90 O 0.13608 0.01628 0.26479 0.0
Cd91 Cd 0.06173 0.08247 0.22165 0.0
O92 O 0.03992 0.17727 0.28266 0.0
C93 C 0.00691 0.22872 0.26416 0.0
O94 O -0.0016 0.28028 0.30971 0.0
C95 C 0.17059 0.97058 0.23837 0.0
C96 C 0.23716 0.1091 0.46771 0.0
O97 O 0.27385 0.05646 0.46693 0.0
O98 O 0.18142 0.10184 0.4321 0.0
O99 O 0.19063 0.5703 0.66185 0.0
Cd100 Cd 0.16465 0.69495 0.69122 0.0
O101 O 0.28937 0.61723 0.67056 0.0
Cd102 Cd 0.39306 0.62674 0.66101 0.0
O103 O 0.48707 0.61493 0.62419 0.0
C104 C 0.52006 0.65971 0.59468 0.0
O105 O 0.49996 0.72381 0.58786 0.0
C106 C 0.25038 0.5628 0.65611 0.0
C107 C 0.1888 0.74687 0.82837 0.0
O108 O 0.14289 0.70054 0.80613 0.0
O109 O 0.22614 0.7697 0.78599 0.0
O110 O 0.94023 0.63555 0.12811 0.0
Cd111 Cd 0.83828 0.57559 0.15078 0.0
O112 O 0.8975 0.73264 0.16212 0.0
Cd113 Cd 0.88755 0.84452 0.1656 0.0
O114 O 0.89297 0.94672 0.12673 0.0
C115 C 0.84905 0.96626 0.08344 0.0
O116 O 0.79658 0.92495 0.06389 0.0
C117 C 0.94307 0.70279 0.1353 0.0
C118 C 0.80145 0.59193 0.28191 0.0
O119 O 0.83738 0.54221 0.26403 0.0
O120 O 0.78451 0.6367 0.2385 0.0
O121 O 0.71412 0.48057 0.72048 0.0
Cd122 Cd 0.68553 0.47692 0.83931 0.0
O123 O 0.67967 0.37255 0.67827 0.0
Cd124 Cd 0.64781 0.33827 0.77142 0.0
O125 O 0.54592 0.32508 0.78369 0.0
C126 C 0.51565 0.37827 0.76482 0.0
O127 O 0.54822 0.43999 0.76755 0.0
C128 C 0.70444 0.43371 0.67054 0.0
C129 C 0.74386 0.38121 0.92441 0.0
O130 O 0.77188 0.44226 0.91932 0.0
O131 O 0.6886 0.36554 0.89021 0.0
O132 O 0.62375 0.29427 0.33787 0.0
Cd133 Cd 0.6283 0.1767 0.28703 0.0
O134 O 0.70343 0.26642 0.41091 0.0
Cd135 Cd 0.63172 0.1826 0.42735 0.0
O136 O 0.54299 0.20065 0.47727 0.0
C137 C 0.52968 0.26527 0.48752 0.0
O138 O 0.56821 0.31526 0.46835 0.0
C139 C 0.67386 0.31332 0.37908 0.0
C140 C 0.70601 0.20533 0.18566 0.0
O141 O 0.64496 0.18997 0.17054 0.0
O142 O 0.73073 0.20267 0.24748 0.0
O143 O 0.17864 0.10366 0.93308 0.0
Cd144 Cd 0.18747 0.22661 0.89933 0.0
O145 O 0.07536 0.11124 0.94753 0.0
Cd146 Cd 0.07635 0.22177 0.92079 0.0
O147 O 0.08069 0.33799 0.94107 0.0
C148 C 0.04606 0.366 0.98407 0.0
O149 O 0.04733 0.43534 0.99448 0.0
C150 C 0.12597 0.07579 0.94982 0.0
C151 C 0.22476 0.24542 0.77021 0.0
O152 O 0.26545 0.23273 0.82081 0.0
O153 O 0.16453 0.24803 0.77937 0.0
O154 O 0.47533 0.62926 0.26669 0.0
Cd155 Cd 0.38599 0.5997 0.17292 0.0
O156 O 0.44631 0.52594 0.30246 0.0
Cd157 Cd 0.3477 0.50488 0.25098 0.0
O158 O 0.3298 0.464 0.34847 0.0
C159 C 0.28265 0.43023 0.37052 0.0
O160 O 0.22854 0.41313 0.33057 0.0
C161 C 0.48651 0.57948 0.30573 0.0
C162 C 0.288 0.68902 0.12915 0.0
O163 O 0.34704 0.69987 0.11646 0.0
O164 O 0.27516 0.63833 0.16632 0.0
O165 O 0.96139 0.74787 0.79672 0.0
Cd166 Cd 0.93484 0.79708 0.68515 0.0
O167 O 0.94717 0.85944 0.81806 0.0
Cd168 Cd 0.95369 0.96975 0.86 0.0
O169 O 0.93307 0.05987 0.7985 0.0
C170 C 0.90553 0.1153 0.81702 0.0
O171 O 0.88839 0.16056 0.77187 0.0
C172 C 0.96434 0.80084 0.83998 0.0
C173 C 0.84562 0.71968 0.59047 0.0
O174 O 0.90544 0.70448 0.59953 0.0
O175 O 0.82676 0.77142 0.62727 0.0
loop_
_geom_bond_atom_site_label_1
_geom_bond_atom_site_label_2
_geom_bond_distance
_geom_bond_site_symmetry_2
_ccdc_geom_bond_type
Sc0 O3 2.025 . S
Sc0 O10 2.105 1_564 S
Sc0 O13 2.105 . S
Sc0 O16 2.105 . S
Sc0 O19 2.105 1_554 S
Sc1 O3 2.025 1_556 S
Sc1 O11 2.105 . S
Sc1 O15 2.105 1_556 S
Sc1 O17 2.105 1_556 S
Sc1 O21 2.105 . S
Sc2 O3 2.025 . S
Sc2 O12 2.105 1_554 S
Sc2 O14 2.105 . S
Sc2 O18 2.105 . S
Sc2 O20 2.105 1_554 S
O3 Sc0 2.025 . S
O3 Sc1 2.025 1_554 S
O3 Sc2 2.025 . S
C4 O10 1.268 . S
C4 O20 1.268 1_545 S
C5 O11 1.268 . S
C5 O19 1.268 . S
C6 O12 1.268 . S
C6 O21 1.268 . S
C7 O13 1.268 . S
C7 O17 1.268 . S
C8 O14 1.268 . S
C8 O16 1.268 . S
C9 O15 1.268 . S
C9 O18 1.268 . S
O10 Sc0 2.105 1_546 S
O10 C4 1.268 . S
O11 Sc1 2.105 . S
O11 C5 1.268 . S
O12 Sc2 2.105 1_556 S
O12 C6 1.268 . S
O13 Sc0 2.105 . S
O13 C7 1.268 . S
O14 Sc2 2.105 . S
O14 C8 1.268 . S
O15 Sc1 2.105 1_554 S
O15 C9 1.268 . S
O16 Sc0 2.105 . S
O16 C8 1.268 . S
O17 Sc1 2.105 1_554 S
O17 C7 1.268 . S
O18 Sc2 2.105 . S
O18 C9 1.268 . S
O19 Sc0 2.105 1_556 S
O19 C5 1.268 . S
O20 Sc2 2.105 1_556 S
O20 C4 1.268 1_565 S
O21 Sc1 2.105 . S
O21 C6 1.268 . S
Sc22 O25 2.025 . S
Sc22 O32 2.105 . S
Sc22 O35 2.105 . S
Sc22 O38 2.105 . S
Sc22 O41 2.105 . S
Sc23 O25 2.025 . S
Sc23 O33 2.105 . S
Sc23 O37 2.105 . S
Sc23 O39 2.105 . S
Sc23 O43 2.105 . S
Sc24 O25 2.025 . S
Sc24 O34 2.105 . S
Sc24 O36 2.105 . S
Sc24 O40 2.105 . S
Sc24 O42 2.105 . S
O25 Sc22 2.025 . S
O25 Sc23 2.025 . S
O25 Sc24 2.025 . S
C26 O32 1.268 . S
C26 O42 1.268 . S
C27 O33 1.268 . S
C27 O41 1.268 . S
C28 O34 1.268 . S
C28 O43 1.268 . S
C29 O35 1.268 . S
C29 O39 1.268 . S
C30 O36 1.268 . S
C30 O38 1.268 . S
C31 O37 1.268 . S
C31 O40 1.268 . S
O32 Sc22 2.105 . S
O32 C26 1.268 . S
O33 Sc23 2.105 . S
O33 C27 1.268 . S
O34 Sc24 2.105 . S
O34 C28 1.268 . S
O35 Sc22 2.105 . S
O35 C29 1.268 . S
O36 Sc24 2.105 . S
O36 C30 1.268 . S
O37 Sc23 2.105 . S
O37 C31 1.268 . S
O38 Sc22 2.105 . S
O38 C30 1.268 . S
O39 Sc23 2.105 . S
O39 C29 1.268 . S
O40 Sc24 2.105 . S
O40 C31 1.268 . S
O41 Sc22 2.105 . S
O41 C27 1.268 . S
O42 Sc24 2.105 . S
O42 C26 1.268 . S
O43 Sc23 2.105 . S
O43 C28 1.268 . S
Sc44 O47 2.025 . S
Sc44 O54 2.105 . S
Sc44 O57 2.105 . S
Sc44 O60 2.105 . S
Sc44 O63 2.105 1_554 S
Sc45 O47 2.025 . S
Sc45 O55 2.105 1_554 S
Sc45 O59 2.104 . S
Sc45 O61 2.104 . S
Sc45 O65 2.106 1_554 S
Sc46 O47 2.025 . S
Sc46 O56 2.105 1_554 S
Sc46 O58 2.105 . S
Sc46 O62 2.105 1_545 S
Sc46 O64 2.105 1_654 S
O47 Sc44 2.025 . S
O47 Sc45 2.025 . S
O47 Sc46 2.025 . S
C48 O54 1.268 1_456 S
C48 O64 1.268 . S
C49 O55 1.268 . S
C49 O63 1.268 . S
C50 O56 1.268 . S
C50 O65 1.268 . S
C51 O57 1.268 . S
C51 O61 1.268 . S
C52 O58 1.268 . S
C52 O60 1.268 . S
C53 O59 1.268 1_565 S
C53 O62 1.268 . S
O54 Sc44 2.105 . S
O54 C48 1.268 1_654 S
O55 Sc45 2.105 1_556 S
O55 C49 1.268 . S
O56 Sc46 2.105 1_556 S
O56 C50 1.268 . S
O57 Sc44 2.105 . S
O57 C51 1.268 . S
O58 Sc46 2.105 . S
O58 C52 1.268 . S
O59 Sc45 2.104 . S
O59 C53 1.268 1_545 S
O60 Sc44 2.105 . S
O60 C52 1.268 . S
O61 Sc45 2.104 . S
O61 C51 1.268 . S
O62 Sc46 2.105 1_565 S
O62 C53 1.268 . S
O63 Sc44 2.105 1_556 S
O63 C49 1.268 . S
O64 Sc46 2.105 1_456 S
O64 C48 1.268 . S
O65 Sc45 2.106 1_556 S
O65 C50 1.268 . S
Sc66 O69 2.025 . S
Sc66 O76 2.105 . S
Sc66 O79 2.105 . S
Sc66 O82 2.105 . S
Sc66 O85 2.105 . S
Sc67 O69 2.025 . S
Sc67 O77 2.105 . S
Sc67 O81 2.105 . S
Sc67 O83 2.105 . S
Sc67 O87 2.105 . S
Sc68 O69 2.025 . S
Sc68 O78 2.105 . S
Sc68 O80 2.105 . S
Sc68 O84 2.105 . S
Sc68 O86 2.105 . S
O69 Sc66 2.025 . S
O69 Sc67 2.025 . S
O69 Sc68 2.025 . S
C70 O76 1.268 . S
C70 O86 1.268 . S
C71 O77 1.268 . S
C71 O85 1.268 . S
C72 O78 1.268 . S
C72 O87 1.268 . S
C73 O79 1.268 . S
C73 O83 1.268 . S
C74 O80 1.268 . S
C74 O82 1.268 . S
C75 O81 1.268 . S
C75 O84 1.268 . S
O76 Sc66 2.105 . S
O76 C70 1.268 . S
O77 Sc67 2.105 . S
O77 C71 1.268 . S
O78 Sc68 2.105 . S
O78 C72 1.268 . S
O79 Sc66 2.105 . S
O79 C73 1.268 . S
O80 Sc68 2.105 . S
O80 C74 1.268 . S
O81 Sc67 2.105 . S
O81 C75 1.268 . S
O82 Sc66 2.105 . S
O82 C74 1.268 . S
O83 Sc67 2.105 . S
O83 C73 1.268 . S
O84 Sc68 2.105 . S
O84 C75 1.268 . S
O85 Sc66 2.105 . S
O85 C71 1.268 . S
O86 Sc68 2.105 . S
O86 C70 1.268 . S
O87 Sc67 2.105 . S
O87 C72 1.268 . S
O88 Cd89 2.300 1_565 S
O88 C95 1.275 . S
Cd89 O88 2.300 1_545 S
Cd89 O97 2.381 . S
Cd89 O98 2.378 . S
O90 Cd91 2.385 . S
O90 C95 1.255 1_545 S
Cd91 O90 2.385 . S
Cd91 O92 2.317 . S
O92 Cd91 2.317 . S
O92 C93 1.232 1_455 S
C93 O92 1.232 1_655 S
C93 O94 1.218 . S
O94 C93 1.218 . S
C95 O88 1.275 . S
C95 O90 1.255 1_565 S
C96 O97 1.258 . S
C96 O98 1.256 . S
O97 Cd89 2.381 . S
O97 C96 1.258 . S
O98 Cd89 2.378 . S
O98 C96 1.256 . S
O99 Cd100 2.300 . S
O99 C106 1.275 . S
Cd100 O99 2.300 . S
Cd100 O108 2.381 . S
Cd100 O109 2.378 . S
O101 Cd102 2.385 . S
O101 C106 1.255 . S
Cd102 O101 2.385 . S
Cd102 O103 2.317 . S
O103 Cd102 2.317 . S
O103 C104 1.232 . S
C104 O103 1.232 . S
C104 O105 1.218 . S
O105 C104 1.218 . S
C106 O99 1.275 . S
C106 O101 1.255 . S
C107 O108 1.258 . S
C107 O109 1.256 . S
O108 Cd100 2.381 . S
O108 C107 1.258 . S
O109 Cd100 2.378 . S
O109 C107 1.256 . S
O110 Cd111 2.300 . S
O110 C117 1.275 . S
Cd111 O110 2.300 . S
Cd111 O119 2.381 . S
Cd111 O120 2.378 . S
O112 Cd113 2.385 . S
O112 C117 1.255 . S
Cd113 O112 2.385 . S
Cd113 O114 2.317 . S
O114 Cd113 2.317 . S
O114 C115 1.232 . S
C115 O114 1.232 . S
C115 O116 1.218 . S
O116 C115 1.218 . S
C117 O110 1.275 . S
C117 O112 1.255 . S
C118 O119 1.258 . S
C118 O120 1.256 . S
O119 Cd111 2.381 . S
O119 C118 1.258 . S
O120 Cd111 2.378 . S
O120 C118 1.256 . S
O121 Cd122 2.300 . S
O121 C128 1.275 . S
Cd122 O121 2.300 . S
Cd122 O130 2.381 . S
Cd122 O131 2.378 . S
O123 Cd124 2.385 . S
O123 C128 1.255 . S
Cd124 O123 2.385 . S
Cd124 O125 2.317 . S
O125 Cd124 2.317 . S
O125 C126 1.232 . S
C126 O125 1.232 . S
C126 O127 1.218 . S
O127 C126 1.218 . S
C128 O121 1.275 . S
C128 O123 1.255 . S
C129 O130 1.258 . S
C129 O131 1.256 . S
O130 Cd122 2.381 . S
O130 C129 1.258 . S
O131 Cd122 2.378 . S
O131 C129 1.256 . S
O132 Cd133 2.300 . S
O132 C139 1.275 . S
Cd133 O132 2.300 . S
Cd133 O141 2.381 . S
Cd133 O142 2.378 . S
O134 Cd135 2.385 . S
O134 C139 1.255 . S
Cd135 O134 2.385 . S
Cd135 O136 2.317 . S
O136 Cd135 2.317 . S
O136 C137 1.232 . S
C137 O136 1.232 . S
C137 O138 1.218 . S
O138 C137 1.218 . S
C139 O132 1.275 . S
C139 O134 1.255 . S
C140 O141 1.258 . S
C140 O142 1.256 . S
O141 Cd133 2.381 . S
O141 C140 1.258 . S
O142 Cd133 2.378 . S
O142 C140 1.256 . S
O143 Cd144 2.300 . S
O143 C150 1.275 . S
Cd144 O143 2.300 . S
Cd144 O152 2.381 . S
Cd144 O153 2.378 . S
O145 Cd146 2.385 . S
O145 C150 1.255 . S
Cd146 O145 2.385 . S
Cd146 O147 2.317 . S
O147 Cd146 2.317 . S
O147 C148 1.232 . S
C148 O147 1.232 . S
C148 O149 1.218 . S
O149 C148 1.218 . S
C150 O143 1.275 . S
C150 O145 1.255 . S
C151 O152 1.258 . S
C151 O153 1.256 . S
O152 Cd144 2.381 . S
O152 C151 1.258 . S
O153 Cd144 2.378 . S
O153 C151 1.256 . S
O154 Cd155 2.300 . S
O154 C161 1.275 . S
Cd155 O154 2.300 . S
Cd155 O163 2.381 . S
Cd155 O164 2.378 . S
O156 Cd157 2.385 . S
O156 C161 1.255 . S
Cd157 O156 2.385 . S
Cd157 O158 2.317 . S
O158 Cd157 2.317 . S
O158 C159 1.232 . S
C159 O158 1.232 . S
C159 O160 1.218 . S
O160 C159 1.218 . S
C161 O154 1.275 . S
C161 O156 1.255 . S
C162 O163 1.258 . S
C162 O164 1.256 . S
O163 Cd155 2.381 . S
O163 C162 1.258 . S
O164 Cd155 2.378 . S
O164 C162 1.256 . S
O165 Cd166 2.300 . S
O165 C172 1.275 . S
Cd166 O165 2.300 . S
Cd166 O174 2.381 . S
Cd166 O175 2.378 . S
O167 Cd168 2.385 . S
O167 C172 1.255 . S
Cd168 O167 2.385 . S
Cd168 O169 2.317 . S
O169 Cd168 2.317 . S
O169 C170 1.232 1_565 S
C170 O169 1.232 1_545 S
C170 O171 1.218 . S
O171 C170 1.218 . S
C172 O165 1.275 . S
C172 O167 1.255 . S
C173 O174 1.258 . S
C173 O175 1.256 . S
O174 Cd166 2.381 . S
O174 C173 1.258 . S
O175 Cd166 2.378 . S
O175 C173 1.256 . S
C8 C95 1.922 . S
C31 C104 1.385 . S
C53 C115 0.679 . S
C126 C74 1.676 . S
C139 C26 1.360 . S
C48 C148 0.573 . S
C71 C159 1.820 . S
C5 C172 2.016 1_455 S
C50 C170 0.781 . S
C137 C70 1.475 . S
C150 C4 1.857 . S
C28 C161 2.148 . S
C106 C73 1.465 . S
C7 C117 2.083 1_455 S
C128 C30 2.204 . S
C93 C52 0.888 . S
C162 C9 1.605 . S
C173 C29 1.571 . S
C51 C140 1.755 . S
C151 C75 1.799 . S
C118 C27 1.973 . S
C49 C129 1.733 . S
C96 C72 1.619 . S
C107 C6 1.529 . S
