# Generated by pormake.
# Topology scu, (8,4)-cn, num edge types: 1
# Building blocks:
#     Node 0, Type 0, BuildingBlock: TAGTUT_clean_sbu_3, # of connection points: 8
#     Node 1, Type 1, BuildingBlock: MUDLON_clean_sbu_0, # of connection points: 4
#     Node 2, Type 1, BuildingBlock: MUDLON_clean_sbu_0, # of connection points: 4
#     Edge 3, Type (0, 1), BuildingBlock: KIFKEQ_clean_linker_1, # of connection points: 2
#     Edge 4, Type (0, 1), BuildingBlock: KIFKEQ_clean_linker_1, # of connection points: 2
#     Edge 5, Type (0, 1), BuildingBlock: KIFKEQ_clean_linker_1, # of connection points: 2
#     Edge 6, Type (0, 1), BuildingBlock: KIFKEQ_clean_linker_1, # of connection points: 2
#     Edge 7, Type (0, 1), BuildingBlock: KIFKEQ_clean_linker_1, # of connection points: 2
#     Edge 8, Type (0, 1), BuildingBlock: KIFKEQ_clean_linker_1, # of connection points: 2
#     Edge 9, Type (0, 1), BuildingBlock: KIFKEQ_clean_linker_1, # of connection points: 2
#     Edge 10, Type (0, 1), BuildingBlock: KIFKEQ_clean_linker_1, # of connection points: 2
# Relax obj value: 0.056
# Max RMSD: 0.124
# Mean RMSD: 0.086
data_MOF--net-scu--node1-TAGTUT_clean_sbu_3--node2-MUDLON_clean_sbu_0--edge1-KIFKEQ_clean_linker_1
_symmetry_space_group_name_H-M    P1
_symmetry_Int_Tables_number       1
_symmetry_cell_setting            triclinic
loop_
_symmetry_equiv_pos_as_xyz
'x, y, z'
_cell_length_a     27.10655
_cell_length_b     23.068594
_cell_length_c     21.117496
_cell_angle_alpha  90.519861
_cell_angle_beta   91.81032
_cell_angle_gamma 90.185991
loop_
_atom_site_label
_atom_site_type_symbol
_atom_site_fract_x
_atom_site_fract_y
_atom_site_fract_z
_atom_type_partial_charge
C0 C 0.99779 0.89248 0.07957 0.0
C1 C 0.82502 0.00356 0.065 0.0
C2 C 0.87207 0.0479 0.88106 0.0
Mg3 Mg 0.10305 0.93399 0.01432 0.0
Mg4 Mg 0.11857 0.07503 1.00209 0.0
O5 O 0.08116 0.00907 0.97621 0.0
Mg6 Mg 1.01149 0.01112 1.0018 0.0
O7 O 0.94182 0.01158 0.02771 0.0
Mg8 Mg 0.91558 0.94314 0.97866 0.0
Mg9 Mg 0.90843 0.08247 0.01447 0.0
C10 C 0.02636 0.13568 0.93394 0.0
O11 O 0.02674 0.0797 0.07922 0.0
O12 O 0.1753 0.95119 0.95517 0.0
O13 O 0.96117 0.13904 0.0676 0.0
O14 O 0.14139 0.97465 0.10124 0.0
O15 O 0.17976 0.04875 0.94876 0.0
O16 O 0.14454 0.07089 0.10067 0.0
O17 O 0.99078 0.94231 0.926 0.0
O18 O 0.06121 0.89182 0.93169 0.0
C19 C 0.01745 0.89937 0.90877 0.0
C20 C 0.19614 -0.00185 0.93568 0.0
O21 O 1.00075 0.08885 0.93607 0.0
O22 O 0.84406 0.95816 0.03902 0.0
O23 O 0.06892 0.14148 0.96221 0.0
O24 O 0.87988 -0.00371 0.89952 0.0
O25 O 0.84431 0.05414 0.0611 0.0
O26 O 0.88397 0.09174 0.91573 0.0
O27 O 0.02764 0.93358 0.06619 0.0
O28 O 0.9537 0.89057 0.05605 0.0
C29 C 0.15309 0.02263 0.12796 0.0
C30 C 1.00375 0.12663 0.09269 0.0
Mg31 Mg 0.03032 0.49794 0.49584 0.0
C32 C 0.07954 0.38631 0.45916 0.0
O33 O 0.05308 0.3667 0.50541 0.0
C34 C 1.01325 0.60598 0.55959 0.0
O35 O 0.97239 0.5925 0.52759 0.0
C36 C 0.01355 0.44284 0.61204 0.0
O37 O 0.05625 0.47001 0.61503 0.0
O38 O 0.98766 0.44597 0.56073 0.0
O39 O 0.08403 0.44086 0.45288 0.0
O40 O 1.00215 0.54245 0.4124 0.0
C41 C 0.03952 0.56772 0.3897 0.0
O42 O 0.08306 0.55888 0.41699 0.0
O43 O 0.05054 0.5729 0.55448 0.0
Mg44 Mg 0.51346 0.97335 0.50335 0.0
C45 C 0.40768 0.93547 0.4682 0.0
O46 O 0.39915 0.95153 0.52657 0.0
C47 C 0.62004 0.94103 0.54298 0.0
O48 O 0.63061 0.95359 0.48448 0.0
C49 C 0.47262 0.98487 0.62726 0.0
O50 O 0.49554 0.93487 0.62567 0.0
O51 O 0.47546 0.01812 0.57945 0.0
O52 O 0.45218 0.9297 0.45146 0.0
O53 O 0.55058 0.01504 0.42549 0.0
C54 C 0.55547 0.9782 0.38065 0.0
O55 O 0.53576 0.92654 0.38669 0.0
O56 O 0.57509 0.93429 0.55732 0.0
H57 H 0.07437 0.10135 0.18323 0.0
H58 H 0.98345 0.24148 0.1125 0.0
H59 H 0.10734 0.16433 0.26778 0.0
H60 H 0.01565 0.30414 0.19806 0.0
H61 H 0.09875 0.41661 0.33708 0.0
H62 H 0.09064 0.35408 0.24345 0.0
H63 H 0.07009 0.20587 0.36335 0.0
H64 H 0.07838 0.26809 0.45686 0.0
C65 C 0.06208 0.14591 0.18497 0.0
C66 C 0.02631 0.16642 0.14099 0.0
C67 C 0.0807 0.18184 0.23381 0.0
C68 C 0.06414 0.23922 0.23968 0.0
C69 C 0.02967 0.26037 0.19438 0.0
C70 C 1.01081 0.2243 0.14572 0.0
C71 C 0.09405 0.37042 0.34362 0.0
C72 C 0.0886 0.34742 0.40451 0.0
C73 C 0.0889 0.33472 0.28987 0.0
C74 C 0.07884 0.27524 0.29595 0.0
C75 C 0.07788 0.25149 0.35698 0.0
C76 C 0.08258 0.28721 0.41066 0.0
H77 H 0.76587 0.09163 0.10242 0.0
H78 H 0.78293 0.90579 0.1152 0.0
H79 H 0.69783 0.08799 0.17405 0.0
H80 H 0.71445 0.90236 0.18807 0.0
H81 H 0.56322 0.91177 0.27476 0.0
H82 H 0.62517 0.91762 0.1943 0.0
H83 H 0.68688 0.07045 0.28662 0.0
H84 H 0.62426 0.0649 0.36733 0.0
C85 C 0.75504 0.04979 0.12037 0.0
C86 C 0.78026 -0.00108 0.10335 0.0
C87 C 0.71608 0.0479 0.16182 0.0
C88 C 0.70106 -0.00489 0.18742 0.0
C89 C 0.72499 0.94379 0.16881 0.0
C90 C 0.76421 0.94566 0.12709 0.0
C91 C 0.58966 0.94709 0.27765 0.0
C92 C 0.58892 0.98784 0.32765 0.0
C93 C 0.62542 0.95006 0.23171 0.0
C94 C 0.66133 0.99398 0.23439 0.0
C95 C 0.6595 0.0362 0.28298 0.0
C96 C 0.6236 0.03318 0.32918 0.0
H97 H 0.94177 0.86264 0.17626 0.0
H98 H 0.0806 0.82471 0.0908 0.0
H99 H 0.95335 0.78209 0.24823 0.0
H100 H 0.09171 0.74149 0.16156 0.0
H101 H 0.11325 0.63277 0.3424 0.0
H102 H 0.10645 0.71199 0.26817 0.0
H103 H 0.94966 0.67965 0.24542 0.0
H104 H 0.9562 0.60147 0.3224 0.0
C105 C 0.97505 0.83694 0.17334 0.0
C106 C 1.01037 0.84956 0.12827 0.0
C107 C 0.98136 0.79025 0.21392 0.0
C108 C 0.02281 0.7543 0.20972 0.0
C109 C 0.05933 0.76837 0.16612 0.0
C110 C 0.05325 0.816 0.12583 0.0
C111 C 0.07724 0.64221 0.32137 0.0
C112 C 0.03505 0.6112 0.33889 0.0
C113 C 0.07349 0.68756 0.27834 0.0
C114 C 0.0275 0.70279 0.25128 0.0
C115 C 0.98556 0.67 0.26659 0.0
C116 C 0.98926 0.62484 0.31024 0.0
H117 H 0.23149 0.09046 0.167 0.0
H118 H 0.14269 0.94485 0.22209 0.0
H119 H 0.29214 0.06778 0.25185 0.0
H120 H 0.20272 0.92264 0.30692 0.0
H121 H 0.30824 0.93464 0.48559 0.0
H122 H 0.24287 0.96175 0.40914 0.0
H123 H 0.3509 0.98075 0.26489 0.0
H124 H 0.41625 0.95316 0.34092 0.0
C125 C 0.22414 0.05489 0.19853 0.0
C126 C 0.18239 0.01949 0.18808 0.0
C127 C 0.25914 0.04135 0.24642 0.0
C128 C 0.25249 0.99286 0.28535 0.0
C129 C 0.2089 0.96019 0.27774 0.0
C130 C 0.17446 0.97306 0.22931 0.0
C131 C 0.31794 0.94358 0.43726 0.0
C132 C 0.36747 0.94144 0.41937 0.0
C133 C 0.28053 0.95942 0.39362 0.0
C134 C 0.2919 0.9744 0.33138 0.0
C135 C 0.34117 0.97053 0.3129 0.0
C136 C 0.37849 0.95381 0.35623 0.0
H137 H 0.02458 0.78379 0.91625 0.0
H138 H 0.97526 0.9204 0.79151 0.0
H139 H 0.02117 0.71493 0.82828 0.0
H140 H 0.97247 0.85119 0.7022 0.0
H141 H 0.94211 0.68815 0.57162 0.0
H142 H 0.93487 0.76008 0.65612 0.0
H143 H 0.0753 0.7054 0.73695 0.0
H144 H 0.08229 0.63276 0.65293 0.0
C145 C 1.0117 0.79861 0.87006 0.0
C146 C 1.00027 0.8572 0.86036 0.0
C147 C 1.01047 0.75943 0.81956 0.0
C148 C 0.99809 0.77807 0.75804 0.0
C149 C 0.98251 0.83574 0.74912 0.0
C150 C 0.98359 0.87519 0.80014 0.0
C151 C 0.97171 0.69179 0.60712 0.0
C152 C 1.01264 0.65435 0.60598 0.0
C153 C 0.96753 0.73317 0.65537 0.0
C154 C 1.00403 0.73772 0.7037 0.0
C155 C 0.046 0.702 0.70101 0.0
C156 C 0.05031 0.66079 0.65259 0.0
H157 H 0.24476 0.90233 0.88861 0.0
H158 H 0.24588 0.0899 0.888 0.0
H159 H 0.31361 0.9023 0.81593 0.0
H160 H 0.31383 0.08945 0.81669 0.0
H161 H 0.3953 0.06189 0.62936 0.0
H162 H 0.32908 0.06429 0.70556 0.0
H163 H 0.40228 0.93022 0.81425 0.0
H164 H 0.46801 0.92767 0.73854 0.0
C165 C 0.25971 0.94336 0.8735 0.0
C166 C 0.2395 -0.00407 0.89429 0.0
C167 C 0.29918 0.94341 0.832 0.0
C168 C 0.31892 -0.004 0.81026 0.0
C169 C 0.29903 0.04829 0.83165 0.0
C170 C 0.26008 0.04829 0.8731 0.0
C171 C 0.39769 0.03385 0.6702 0.0
C172 C 0.43682 -0.00544 0.67777 0.0
C173 C 0.35968 0.03493 0.71368 0.0
C174 C 0.36013 -0.00327 0.76545 0.0
C175 C 0.40029 0.9592 0.77419 0.0
C176 C 0.4382 0.95826 0.73103 0.0
H177 H 0.98124 0.12846 0.81722 0.0
H178 H 0.02953 0.25069 0.96211 0.0
H179 H 0.96548 0.20784 0.74396 0.0
H180 H 1.0099 0.33067 0.89129 0.0
H181 H 0.05986 0.43872 0.72682 0.0
H182 H 0.05065 0.36836 0.80849 0.0
H183 H 0.92726 0.29101 0.70319 0.0
H184 H 0.93883 0.36102 0.61809 0.0
C185 C 0.98702 0.17262 0.83385 0.0
C186 C 1.00779 0.1837 0.89451 0.0
C187 C 0.97759 0.2183 0.79205 0.0
C188 C 0.98763 0.27602 0.8108 0.0
C189 C 1.00363 0.28686 0.87402 0.0
C190 C 0.01458 0.24116 0.91494 0.0
C191 C 0.03033 0.40719 0.72096 0.0
C192 C 1.00058 0.405 0.66533 0.0
C193 C 0.02452 0.3669 0.76869 0.0
C194 C 0.98813 0.32345 0.76308 0.0
C195 C 0.95624 0.32321 0.70889 0.0
C196 C 0.9625 0.36359 0.66031 0.0
H197 H 0.77513 0.06663 0.88543 0.0
H198 H 0.89136 0.0342 0.75569 0.0
H199 H 0.71396 0.04028 0.80459 0.0
H200 H 0.83018 0.01322 0.67118 0.0
H201 H 0.71731 0.91012 0.55341 0.0
H202 H 0.77875 0.94448 0.63197 0.0
H203 H 0.66688 0.05021 0.71834 0.0
H204 H 0.60558 0.01073 0.64414 0.0
C205 C 0.78731 0.05707 0.83806 0.0
C206 C 0.83777 0.05376 0.82626 0.0
C207 C 0.7521 0.04153 0.79117 0.0
C208 C 0.76634 0.02356 0.73035 0.0
C209 C 0.81719 0.0248 0.71749 0.0
C210 C 0.85251 0.03847 0.76535 0.0
C211 C 0.70604 0.93957 0.59046 0.0
C212 C 0.65658 0.95654 0.59379 0.0
C213 C 0.74144 0.96047 0.63498 0.0
C214 C 0.72861 0.00087 0.6824 0.0
C215 C 0.67879 0.01811 0.68454 0.0
C216 C 0.64326 -0.00453 0.64167 0.0
loop_
_geom_bond_atom_site_label_1
_geom_bond_atom_site_label_2
_geom_bond_distance
_geom_bond_site_symmetry_2
_ccdc_geom_bond_type
C0 O27 1.312 1_655 S
C0 O28 1.208 . S
C1 O22 1.331 . S
C1 O25 1.244 1_565 S
C2 O24 1.264 1_545 S
C2 O26 1.273 . S
Mg3 O5 1.936 1_565 S
Mg3 O12 2.081 . S
Mg3 O14 2.023 1_556 S
Mg3 O18 2.031 . S
Mg3 O27 2.291 1_556 S
Mg4 O5 1.963 . S
Mg4 O15 1.942 . S
Mg4 O16 1.955 1_556 S
Mg4 O23 1.986 . S
O5 Mg3 1.936 1_545 S
O5 Mg4 1.963 . S
O5 Mg6 1.914 1_556 S
Mg6 O5 1.914 1_554 S
Mg6 O7 1.916 1_455 S
Mg6 O11 2.015 . S
Mg6 O17 2.112 1_444 S
Mg6 O21 2.010 1_454 S
Mg6 O27 2.116 1_545 S
O7 Mg6 1.916 1_655 S
O7 Mg8 1.936 1_545 S
O7 Mg9 1.963 . S
Mg8 O7 1.936 1_565 S
Mg8 O17 2.291 1_554 S
Mg8 O22 2.081 . S
Mg8 O24 2.023 1_554 S
Mg8 O28 2.031 . S
Mg9 O7 1.963 . S
Mg9 O13 1.986 . S
Mg9 O25 1.942 . S
Mg9 O26 1.955 1_554 S
C10 O21 1.191 1_455 S
C10 O23 1.307 . S
O11 Mg6 2.015 . S
O11 C30 1.191 1_455 S
O12 Mg3 2.081 . S
O12 C20 1.331 . S
O13 Mg9 1.986 . S
O13 C30 1.307 . S
O14 Mg3 2.023 1_554 S
O14 C29 1.264 1_565 S
O15 Mg4 1.942 . S
O15 C20 1.244 1_545 S
O16 Mg4 1.955 1_554 S
O16 C29 1.273 . S
O17 Mg6 2.112 1_666 S
O17 Mg8 2.291 1_556 S
O17 C19 1.312 1_655 S
O18 Mg3 2.031 . S
O18 C19 1.208 . S
C19 O17 1.312 1_455 S
C19 O18 1.208 . S
C20 O12 1.331 . S
C20 O15 1.244 1_565 S
O21 Mg6 2.010 1_656 S
O21 C10 1.191 1_655 S
O22 C1 1.331 . S
O22 Mg8 2.081 . S
O23 Mg4 1.986 . S
O23 C10 1.307 . S
O24 C2 1.264 1_565 S
O24 Mg8 2.023 1_556 S
O25 C1 1.244 1_545 S
O25 Mg9 1.942 . S
O26 C2 1.273 . S
O26 Mg9 1.955 1_556 S
O27 C0 1.312 1_455 S
O27 Mg3 2.291 1_554 S
O27 Mg6 2.116 1_565 S
O28 C0 1.208 . S
O28 Mg8 2.031 . S
C29 O14 1.264 1_545 S
C29 O16 1.273 . S
C30 O11 1.191 1_655 S
C30 O13 1.307 . S
Mg31 O38 2.141 . S
Mg31 O39 2.048 . S
Mg31 O40 2.048 . S
Mg31 O43 2.141 . S
C32 O33 1.313 . S
C32 O39 1.195 1_455 S
O33 C32 1.313 . S
C34 O35 1.245 . S
C34 O43 1.289 1_455 S
O35 C34 1.245 . S
C36 O37 1.245 . S
C36 O38 1.289 1_455 S
O37 C36 1.245 . S
O38 Mg31 2.141 . S
O38 C36 1.289 1_655 S
O39 Mg31 2.048 . S
O39 C32 1.195 1_655 S
O40 Mg31 2.048 . S
O40 C41 1.195 1_655 S
C41 O40 1.195 1_455 S
C41 O42 1.313 . S
O42 C41 1.313 . S
O43 Mg31 2.141 . S
O43 C34 1.289 1_655 S
Mg44 O51 2.141 . S
Mg44 O52 2.048 . S
Mg44 O53 2.048 . S
Mg44 O56 2.141 . S
C45 O46 1.313 . S
C45 O52 1.195 1_565 S
O46 C45 1.313 . S
C47 O48 1.245 . S
C47 O56 1.289 1_565 S
O48 C47 1.245 . S
C49 O50 1.245 . S
C49 O51 1.289 1_565 S
O50 C49 1.245 . S
O51 Mg44 2.141 . S
O51 C49 1.289 1_545 S
O52 Mg44 2.048 . S
O52 C45 1.195 1_545 S
O53 Mg44 2.048 . S
O53 C54 1.195 1_545 S
C54 O53 1.195 1_565 S
C54 O55 1.313 . S
O55 C54 1.313 . S
O56 Mg44 2.141 . S
O56 C47 1.289 1_545 S
H57 C65 0.950 . S
H58 C70 0.950 . S
H59 C67 0.950 . S
H60 C69 0.950 . S
H61 C71 0.950 . S
H62 C73 0.950 . S
H63 C75 0.950 . S
H64 C76 0.950 . S
C65 H57 0.950 . S
C65 C66 1.386 . S
C65 C67 1.391 . S
C66 C65 1.386 . S
C66 C70 1.393 1_455 S
C67 H59 0.950 . S
C67 C65 1.391 . S
C67 C68 1.400 . S
C68 C67 1.400 . S
C68 C69 1.398 1_455 S
C68 C74 1.491 . S
C69 H60 0.950 . S
C69 C68 1.398 1_655 S
C69 C70 1.391 . S
C70 H58 0.950 . S
C70 C66 1.393 1_655 S
C70 C69 1.391 . S
C71 H61 0.950 . S
C71 C72 1.386 1_655 S
C71 C73 1.391 . S
C72 C71 1.386 1_455 S
C72 C76 1.393 . S
C73 H62 0.950 . S
C73 C71 1.391 . S
C73 C74 1.400 1_655 S
C74 C68 1.491 . S
C74 C73 1.400 1_455 S
C74 C75 1.398 . S
C75 H63 0.950 . S
C75 C74 1.398 . S
C75 C76 1.391 . S
C76 H64 0.950 . S
C76 C72 1.393 . S
C76 C75 1.391 . S
H77 C85 0.950 . S
H78 C90 0.950 . S
H79 C87 0.950 . S
H80 C89 0.950 . S
H81 C91 0.950 . S
H82 C93 0.950 . S
H83 C95 0.950 . S
H84 C96 0.950 . S
C85 H77 0.950 . S
C85 C86 1.386 1_545 S
C85 C87 1.391 . S
C86 C85 1.386 1_565 S
C86 C90 1.393 . S
C87 H79 0.950 . S
C87 C85 1.391 . S
C87 C88 1.400 1_545 S
C88 C87 1.400 1_565 S
C88 C89 1.398 . S
C88 C94 1.491 . S
C89 H80 0.950 . S
C89 C88 1.398 . S
C89 C90 1.391 . S
C90 H78 0.950 . S
C90 C86 1.393 . S
C90 C89 1.391 . S
C91 H81 0.950 . S
C91 C92 1.386 1_565 S
C91 C93 1.391 . S
C92 C91 1.386 1_545 S
C92 C96 1.393 . S
C93 H82 0.950 . S
C93 C91 1.391 . S
C93 C94 1.400 . S
C94 C88 1.491 . S
C94 C93 1.400 . S
C94 C95 1.398 1_565 S
C95 H83 0.950 . S
C95 C94 1.398 1_545 S
C95 C96 1.391 . S
C96 H84 0.950 . S
C96 C92 1.393 . S
C96 C95 1.391 . S
H97 C105 0.950 . S
H98 C110 0.950 . S
H99 C107 0.950 . S
H100 C109 0.950 . S
H101 C111 0.950 . S
H102 C113 0.950 . S
H103 C115 0.950 . S
H104 C116 0.950 . S
C105 H97 0.950 . S
C105 C106 1.386 1_655 S
C105 C107 1.391 . S
C106 C105 1.386 1_455 S
C106 C110 1.393 . S
C107 H99 0.950 . S
C107 C105 1.391 . S
C107 C108 1.400 1_655 S
C108 C107 1.400 1_455 S
C108 C109 1.398 . S
C108 C114 1.491 . S
C109 H100 0.950 . S
C109 C108 1.398 . S
C109 C110 1.391 . S
C110 H98 0.950 . S
C110 C106 1.393 . S
C110 C109 1.391 . S
C111 H101 0.950 . S
C111 C112 1.386 . S
C111 C113 1.391 . S
C112 C111 1.386 . S
C112 C116 1.393 1_455 S
C113 H102 0.950 . S
C113 C111 1.391 . S
C113 C114 1.400 . S
C114 C108 1.491 . S
C114 C113 1.400 . S
C114 C115 1.398 1_455 S
C115 H103 0.950 . S
C115 C114 1.398 1_655 S
C115 C116 1.391 . S
C116 H104 0.950 . S
C116 C112 1.393 1_655 S
C116 C115 1.391 . S
H117 C125 0.950 . S
H118 C130 0.950 . S
H119 C127 0.950 . S
H120 C129 0.950 . S
H121 C131 0.950 . S
H122 C133 0.950 . S
H123 C135 0.950 . S
H124 C136 0.950 . S
C125 H117 0.950 . S
C125 C126 1.386 . S
C125 C127 1.391 . S
C126 C125 1.386 . S
C126 C130 1.393 1_545 S
C127 H119 0.950 . S
C127 C125 1.391 . S
C127 C128 1.400 . S
C128 C127 1.400 . S
C128 C129 1.398 1_545 S
C128 C134 1.491 . S
C129 H120 0.950 . S
C129 C128 1.398 1_565 S
C129 C130 1.391 . S
C130 H118 0.950 . S
C130 C126 1.393 1_565 S
C130 C129 1.391 . S
C131 H121 0.950 . S
C131 C132 1.386 1_565 S
C131 C133 1.391 . S
C132 C131 1.386 1_545 S
C132 C136 1.393 . S
C133 H122 0.950 . S
C133 C131 1.391 . S
C133 C134 1.400 1_565 S
C134 C128 1.491 . S
C134 C133 1.400 1_545 S
C134 C135 1.398 . S
C135 H123 0.950 . S
C135 C134 1.398 . S
C135 C136 1.391 . S
C136 H124 0.950 . S
C136 C132 1.393 . S
C136 C135 1.391 . S
H137 C145 0.950 . S
H138 C150 0.950 . S
H139 C147 0.950 . S
H140 C149 0.950 . S
H141 C151 0.950 . S
H142 C153 0.950 . S
H143 C155 0.950 . S
H144 C156 0.950 . S
C145 H137 0.950 . S
C145 C146 1.386 . S
C145 C147 1.391 . S
C146 C145 1.386 . S
C146 C150 1.393 1_655 S
C147 H139 0.950 . S
C147 C145 1.391 . S
C147 C148 1.400 . S
C148 C147 1.400 . S
C148 C149 1.398 1_655 S
C148 C154 1.491 1_655 S
C149 H140 0.950 . S
C149 C148 1.398 1_455 S
C149 C150 1.391 . S
C150 H138 0.950 . S
C150 C146 1.393 1_455 S
C150 C149 1.391 . S
C151 H141 0.950 . S
C151 C152 1.386 . S
C151 C153 1.391 . S
C152 C151 1.386 . S
C152 C156 1.393 1_455 S
C153 H142 0.950 . S
C153 C151 1.391 . S
C153 C154 1.400 . S
C154 C148 1.491 1_455 S
C154 C153 1.400 . S
C154 C155 1.398 1_455 S
C155 H143 0.950 . S
C155 C154 1.398 1_655 S
C155 C156 1.391 . S
C156 H144 0.950 . S
C156 C152 1.393 1_655 S
C156 C155 1.391 . S
H157 C165 0.950 . S
H158 C170 0.950 . S
H159 C167 0.950 . S
H160 C169 0.950 . S
H161 C171 0.950 . S
H162 C173 0.950 . S
H163 C175 0.950 . S
H164 C176 0.950 . S
C165 H157 0.950 . S
C165 C166 1.386 . S
C165 C167 1.391 . S
C166 C165 1.386 . S
C166 C170 1.393 1_565 S
C167 H159 0.950 . S
C167 C165 1.391 . S
C167 C168 1.400 . S
C168 C167 1.400 . S
C168 C169 1.398 1_565 S
C168 C174 1.491 . S
C169 H160 0.950 . S
C169 C168 1.398 1_545 S
C169 C170 1.391 . S
C170 H158 0.950 . S
C170 C166 1.393 1_545 S
C170 C169 1.391 . S
C171 H161 0.950 . S
C171 C172 1.386 . S
C171 C173 1.391 . S
C172 C171 1.386 . S
C172 C176 1.393 1_545 S
C173 H162 0.950 . S
C173 C171 1.391 . S
C173 C174 1.400 1_545 S
C174 C168 1.491 . S
C174 C173 1.400 1_565 S
C174 C175 1.398 . S
C175 H163 0.950 . S
C175 C174 1.398 . S
C175 C176 1.391 . S
C176 H164 0.950 . S
C176 C172 1.393 1_565 S
C176 C175 1.391 . S
H177 C185 0.950 . S
H178 C190 0.950 . S
H179 C187 0.950 . S
H180 C189 0.950 . S
H181 C191 0.950 . S
H182 C193 0.950 . S
H183 C195 0.950 . S
H184 C196 0.950 . S
C185 H177 0.950 . S
C185 C186 1.386 1_655 S
C185 C187 1.391 . S
C186 C185 1.386 1_455 S
C186 C190 1.393 . S
C187 H179 0.950 . S
C187 C185 1.391 . S
C187 C188 1.400 1_655 S
C188 C187 1.400 1_455 S
C188 C189 1.398 . S
C188 C194 1.491 . S
C189 H180 0.950 . S
C189 C188 1.398 . S
C189 C190 1.391 . S
C190 H178 0.950 . S
C190 C186 1.393 . S
C190 C189 1.391 . S
C191 H181 0.950 . S
C191 C192 1.386 . S
C191 C193 1.391 . S
C192 C191 1.386 . S
C192 C196 1.393 1_455 S
C193 H182 0.950 . S
C193 C191 1.391 . S
C193 C194 1.400 . S
C194 C188 1.491 . S
C194 C193 1.400 . S
C194 C195 1.398 1_455 S
C195 H183 0.950 . S
C195 C194 1.398 1_655 S
C195 C196 1.391 . S
C196 H184 0.950 . S
C196 C192 1.393 1_655 S
C196 C195 1.391 . S
H197 C205 0.950 . S
H198 C210 0.950 . S
H199 C207 0.950 . S
H200 C209 0.950 . S
H201 C211 0.950 . S
H202 C213 0.950 . S
H203 C215 0.950 . S
H204 C216 0.950 . S
C205 H197 0.950 . S
C205 C206 1.386 . S
C205 C207 1.391 . S
C206 C205 1.386 . S
C206 C210 1.393 1_545 S
C207 H199 0.950 . S
C207 C205 1.391 . S
C207 C208 1.400 . S
C208 C207 1.400 . S
C208 C209 1.398 1_545 S
C208 C214 1.491 . S
C209 H200 0.950 . S
C209 C208 1.398 1_565 S
C209 C210 1.391 . S
C210 H198 0.950 . S
C210 C206 1.393 1_565 S
C210 C209 1.391 . S
C211 H201 0.950 . S
C211 C212 1.386 1_565 S
C211 C213 1.391 . S
C212 C211 1.386 1_545 S
C212 C216 1.393 . S
C213 H202 0.950 . S
C213 C211 1.391 . S
C213 C214 1.400 1_565 S
C214 C208 1.491 . S
C214 C213 1.400 1_545 S
C214 C215 1.398 . S
C215 H203 0.950 . S
C215 C214 1.398 . S
C215 C216 1.391 . S
C216 H204 0.950 . S
C216 C212 1.393 . S
C216 C215 1.391 . S
C66 C30 1.335 1_455 S
C72 C32 1.371 . S
C86 C1 1.515 . S
C92 C54 1.539 1_545 S
C106 C0 1.325 1_455 S
C112 C41 1.385 . S
C126 C29 1.569 . S
C132 C45 1.585 1_545 S
C146 C19 1.292 1_655 S
C152 C34 1.313 . S
C166 C20 1.459 . S
C172 C49 1.469 1_545 S
C192 C36 1.299 . S
C186 C10 1.284 . S
C206 C2 1.495 . S
C212 C47 1.504 1_545 S
