# Generated by pormake.
# Topology rtl, (3,6)-cn, num edge types: 1
# Building blocks:
#     Node 0, Type 0, BuildingBlock: WUSLED_clean_sbu_0, # of connection points: 3
#     Node 1, Type 0, BuildingBlock: WUSLED_clean_sbu_0, # of connection points: 3
#     Node 2, Type 0, BuildingBlock: WUSLED_clean_sbu_0, # of connection points: 3
#     Node 3, Type 0, BuildingBlock: WUSLED_clean_sbu_0, # of connection points: 3
#     Node 4, Type 1, BuildingBlock: LEVNOQ01_clean_sbu_1, # of connection points: 6
#     Node 5, Type 1, BuildingBlock: LEVNOQ01_clean_sbu_1, # of connection points: 6
#     Edge 6, Type (0, 1), BuildingBlock: EYOCIG_clean_linker_4, # of connection points: 2
#     Edge 7, Type (0, 1), BuildingBlock: EYOCIG_clean_linker_4, # of connection points: 2
#     Edge 8, Type (0, 1), BuildingBlock: EYOCIG_clean_linker_4, # of connection points: 2
#     Edge 9, Type (0, 1), BuildingBlock: EYOCIG_clean_linker_4, # of connection points: 2
#     Edge 10, Type (0, 1), BuildingBlock: EYOCIG_clean_linker_4, # of connection points: 2
#     Edge 11, Type (0, 1), BuildingBlock: EYOCIG_clean_linker_4, # of connection points: 2
#     Edge 12, Type (0, 1), BuildingBlock: EYOCIG_clean_linker_4, # of connection points: 2
#     Edge 13, Type (0, 1), BuildingBlock: EYOCIG_clean_linker_4, # of connection points: 2
#     Edge 14, Type (0, 1), BuildingBlock: EYOCIG_clean_linker_4, # of connection points: 2
#     Edge 15, Type (0, 1), BuildingBlock: EYOCIG_clean_linker_4, # of connection points: 2
#     Edge 16, Type (0, 1), BuildingBlock: EYOCIG_clean_linker_4, # of connection points: 2
#     Edge 17, Type (0, 1), BuildingBlock: EYOCIG_clean_linker_4, # of connection points: 2
# Relax obj value: 0.023
# Max RMSD: 0.058
# Mean RMSD: 0.042
data_MOF--net-rtl--node1-WUSLED_clean_sbu_0--node2-LEVNOQ01_clean_sbu_1--edge1-EYOCIG_clean_linker_4
_symmetry_space_group_name_H-M    P1
_symmetry_Int_Tables_number       1
_symmetry_cell_setting            triclinic
loop_
_symmetry_equiv_pos_as_xyz
'x, y, z'
_cell_length_a     33.934912
_cell_length_b     37.476218
_cell_length_c     25.965061
_cell_angle_alpha  90.34093
_cell_angle_beta   97.625282
_cell_angle_gamma 89.731044
loop_
_atom_site_label
_atom_site_type_symbol
_atom_site_fract_x
_atom_site_fract_y
_atom_site_fract_z
_atom_type_partial_charge
C0 C 0.25701 0.94938 0.24258 0.0
C1 C 0.229 0.97738 0.23547 0.0
C2 C 0.21059 0.96754 0.32194 0.0
C3 C 0.20608 0.98639 0.27502 0.0
C4 C 0.23921 0.94046 0.33 0.0
C5 C 0.26213 0.93151 0.29072 0.0
U6 U 0.27821 0.90414 0.11078 0.0
O7 O 0.32495 0.86875 0.15338 0.0
O8 O 0.31587 0.86703 0.07036 0.0
C9 C 0.33382 0.85304 0.11223 0.0
C10 C 0.28296 0.93873 0.20269 0.0
C11 C 0.36474 0.8246 0.11268 0.0
C12 C 0.40261 0.77635 0.15916 0.0
C13 C 0.38056 0.80807 0.15958 0.0
C14 C 0.39524 0.77773 0.06523 0.0
C15 C 0.40904 0.76056 0.11203 0.0
C16 C 0.37326 0.8095 0.06558 0.0
C17 C 0.24932 0.95641 0.97836 0.0
C18 C 0.23689 0.95216 0.88367 0.0
C19 C 0.19532 0.9905 0.92909 0.0
C20 C 0.21753 0.98106 0.97637 0.0
C21 C 0.20422 0.97528 0.88271 0.0
C22 C 0.25929 0.94268 0.93111 0.0
C23 C 0.27369 0.94896 0.02961 0.0
O24 O 0.28652 0.90489 0.1964 0.0
O25 O 0.28043 0.95461 0.15826 0.0
O26 O 0.29774 0.92187 0.03551 0.0
O27 O 0.25511 0.95246 0.06955 0.0
H28 H 0.22457 0.99211 0.19943 0.0
H29 H 0.18413 1.00754 0.26845 0.0
H30 H 0.24324 0.92566 0.36608 0.0
H31 H 0.28392 0.91028 0.29791 0.0
H32 H 0.41283 0.76319 0.19558 0.0
H33 H 0.37405 0.81849 0.19652 0.0
H34 H 0.3997 0.76571 0.02835 0.0
H35 H 0.36105 0.82115 0.0288 0.0
H36 H 0.2442 0.94039 0.84788 0.0
H37 H 0.17029 1.00859 0.92908 0.0
H38 H 0.20963 0.99311 1.01163 0.0
H39 H 0.28412 0.92448 0.93077 0.0
C40 C 0.69717 0.63858 0.72561 0.0
C41 C 0.66899 0.61102 0.7169 0.0
C42 C 0.67402 0.60075 0.80985 0.0
C43 C 0.65754 0.59224 0.75897 0.0
C44 C 0.70389 0.62642 0.81866 0.0
C45 C 0.7154 0.64514 0.77679 0.0
U46 U 0.74489 0.6636 0.601 0.0
O47 O 0.7789 0.70896 0.64206 0.0
O48 O 0.78221 0.70066 0.56118 0.0
C49 C 0.79619 0.71772 0.60276 0.0
C50 C 0.70575 0.66359 0.68423 0.0
C51 C 0.82477 0.74784 0.60329 0.0
C52 C 0.86984 0.79091 0.65091 0.0
C53 C 0.84104 0.76414 0.65038 0.0
C54 C 0.86848 0.78443 0.55794 0.0
C55 C 0.8826 0.80196 0.6045 0.0
C56 C 0.83978 0.7576 0.55737 0.0
C57 C 0.69166 0.63092 0.46539 0.0
C58 C 0.69215 0.62321 0.37245 0.0
C59 C 0.65429 0.58254 0.41868 0.0
C60 C 0.66749 0.60032 0.465 0.0
C61 C 0.66496 0.59523 0.37212 0.0
C62 C 0.70537 0.6412 0.4189 0.0
C63 C 0.69599 0.65431 0.51224 0.0
O64 O 0.74269 0.67097 0.68465 0.0
O65 O 0.68844 0.66012 0.63702 0.0
O66 O 0.7228 0.67904 0.51864 0.0
O67 O 0.6937 0.63802 0.55523 0.0
H68 H 0.65454 0.60508 0.67812 0.0
H69 H 0.63433 0.57234 0.75197 0.0
H70 H 0.71679 0.63336 0.85788 0.0
H71 H 0.73722 0.66615 0.78473 0.0
H72 H 0.88089 0.80399 0.68729 0.0
H73 H 0.83139 0.75635 0.68679 0.0
H74 H 0.87836 0.79243 0.52172 0.0
H75 H 0.82906 0.74469 0.5208 0.0
H76 H 0.70034 0.63321 0.33624 0.0
H77 H 0.63293 0.56111 0.41878 0.0
H78 H 0.65612 0.59167 0.49992 0.0
H79 H 0.72388 0.66454 0.41769 0.0
C80 C 0.79209 0.10733 0.15526 0.0
C81 C 0.82061 0.07986 0.15424 0.0
C82 C 0.84021 0.08662 0.24752 0.0
C83 C 0.8445 0.06949 0.20035 0.0
C84 C 0.81125 0.11299 0.24892 0.0
C85 C 0.78758 0.12326 0.2034 0.0
U86 U 0.764 0.1586 0.02239 0.0
O87 O 0.71823 0.1911 0.05684 0.0
O88 O 0.72312 0.19699 0.97615 0.0
C89 C 0.70705 0.20881 1.01512 0.0
C90 C 0.76434 0.11905 0.1088 0.0
C91 C 0.67534 0.2368 1.01071 0.0
C92 C 0.63904 0.28264 0.05285 0.0
C93 C 0.6616 0.25103 0.05552 0.0
C94 C 0.64167 0.2856 0.96034 0.0
C95 C 0.62993 0.30052 1.00544 0.0
C96 C 0.66423 0.25408 0.96294 0.0
C97 C 0.78857 0.11298 0.89227 0.0
C98 C 0.79741 0.11892 0.80068 0.0
C99 C 0.84064 0.07952 0.85613 0.0
C100 C 0.82066 0.08861 0.898 0.0
C101 C 0.82921 0.09456 0.80736 0.0
C102 C 0.77709 0.12805 0.84285 0.0
C103 C 0.76511 0.11808 0.9367 0.0
O104 O 0.75848 0.1529 0.1055 0.0
O105 O 0.76643 0.10571 0.06326 0.0
O106 O 0.74186 0.14538 0.93884 0.0
O107 O 0.78421 0.11172 0.98195 0.0
H108 H 0.82457 0.06662 0.11812 0.0
H109 H 0.86693 0.04895 0.19893 0.0
H110 H 0.80758 0.12642 0.2851 0.0
H111 H 0.76553 0.14398 0.2059 0.0
H112 H 0.63024 0.29392 0.08817 0.0
H113 H 0.67013 0.23888 0.09311 0.0
H114 H 0.63497 0.29915 0.92344 0.0
H115 H 0.67477 0.24431 0.92787 0.0
H116 H 0.78818 0.13068 0.76294 0.0
H117 H 0.865 0.06052 0.86192 0.0
H118 H 0.82994 0.07574 0.93487 0.0
H119 H 0.75211 0.1463 0.83658 0.0
C120 C 0.25739 0.4485 0.37452 0.0
C121 C 0.28525 0.47648 0.38158 0.0
C122 C 0.3028 0.46681 0.29431 0.0
C123 C 0.30767 0.48552 0.34168 0.0
C124 C 0.27439 0.43969 0.2864 0.0
C125 C 0.25199 0.43068 0.32605 0.0
U126 U 0.23586 0.40353 0.50604 0.0
O127 O 0.18878 0.36845 0.46318 0.0
O128 O 0.19857 0.36646 0.54607 0.0
C129 C 0.18038 0.35256 0.50414 0.0
C130 C 0.23156 0.43807 0.41456 0.0
C131 C 0.14952 0.32414 0.5037 0.0
C132 C 0.11161 0.27574 0.45719 0.0
C133 C 0.13356 0.30738 0.4568 0.0
C134 C 0.11931 0.27759 0.55109 0.0
C135 C 0.10536 0.2602 0.5043 0.0
C136 C 0.14122 0.30926 0.55078 0.0
C137 C 0.2651 0.4564 0.63871 0.0
C138 C 0.27853 0.45279 0.73334 0.0
C139 C 0.31927 0.4907 0.68711 0.0
C140 C 0.29666 0.48102 0.64017 0.0
C141 C 0.31105 0.47574 0.73364 0.0
C142 C 0.25571 0.44307 0.68623 0.0
C143 C 0.24031 0.4486 0.58781 0.0
O144 O 0.22769 0.40429 0.42035 0.0
O145 O 0.23426 0.45395 0.45925 0.0
O146 O 0.21696 0.42121 0.58213 0.0
O147 O 0.25818 0.45223 0.5474 0.0
H148 H 0.28988 0.49122 0.41783 0.0
H149 H 0.32947 0.50667 0.34825 0.0
H150 H 0.27005 0.42495 0.25005 0.0
H151 H 0.23031 0.4095 0.31881 0.0
H152 H 0.10127 0.26245 0.42073 0.0
H153 H 0.1399 0.31756 0.41985 0.0
H154 H 0.115 0.26583 0.58797 0.0
H155 H 0.15349 0.32102 0.58759 0.0
H156 H 0.27177 0.44124 0.76931 0.0
H157 H 0.34419 0.50866 0.6867 0.0
H158 H 0.30412 0.49279 0.60474 0.0
H159 H 0.23104 0.42496 0.68699 0.0
O160 O 0.98494 0.08301 0.6679 0.0
Mg161 Mg 0.04335 0.08258 0.65521 0.0
O162 O 0.96795 0.03647 0.61635 0.0
Mg163 Mg 0.0174 0.02383 0.56341 0.0
O164 O 0.04852 0.07724 0.57993 0.0
O165 O 0.05922 0.1286 0.62179 0.0
O166 O 0.0642 1.00996 0.5084 0.0
O167 O 0.97842 0.05361 0.49568 0.0
Mg168 Mg 0.97802 0.97127 0.46929 0.0
O169 O 0.98879 0.96825 0.54854 0.0
O170 O 0.03615 0.97197 0.44749 0.0
O171 O 0.94741 0.01437 0.44052 0.0
O172 O 0.9361 0.94402 0.50293 0.0
C173 C 0.07765 1.00916 0.67731 0.0
C174 C 0.9603 0.05956 0.65013 0.0
C175 C 0.05418 0.11132 0.57842 0.0
C176 C 0.06549 0.99055 0.46794 0.0
C177 C 0.95412 0.04582 0.45551 0.0
C178 C 0.95609 0.95049 0.54739 0.0
O179 O 0.07644 0.04144 0.69144 0.0
O180 O 0.05892 0.9974 0.63431 0.0
O181 O 0.56636 0.51332 0.17482 0.0
Mg182 Mg 0.53464 0.47125 0.145 0.0
O183 O 0.53429 0.55291 0.12167 0.0
Mg184 Mg 0.49594 0.52322 0.05349 0.0
O185 O 0.52585 0.46754 0.06578 0.0
O186 O 0.57688 0.44224 0.11437 0.0
O187 O 0.45568 0.49699 0.98196 0.0
O188 O 0.54435 0.53535 1.00111 0.0
Mg189 Mg 0.46988 0.58279 0.96201 0.0
O190 O 0.46519 0.57691 0.03706 0.0
O191 O 0.43788 0.54113 0.9256 0.0
O192 O 0.52831 0.58212 0.95009 0.0
O193 O 0.45458 0.62869 0.99715 0.0
C194 C 0.44736 0.49022 0.14789 0.0
C195 C 0.5591 0.54485 0.16107 0.0
C196 C 0.55899 0.44979 0.06905 0.0
C197 C 0.43736 0.50876 0.93892 0.0
C198 C 0.55226 0.55794 0.9675 0.0
C199 C 0.45953 0.61099 0.03989 0.0
O200 O 0.47685 0.47168 0.16817 0.0
O201 O 0.44874 0.50951 0.10768 0.0
C202 C 0.07535 0.19497 0.50545 0.0
C203 C 0.08897 0.22465 0.50451 0.0
C204 C 0.06405 0.15929 0.51278 0.0
C205 C 0.05774 0.13139 0.53287 0.0
C206 C 0.43901 0.69514 0.11161 0.0
C207 C 0.42537 0.72493 0.11188 0.0
C208 C 0.4503 0.6592 0.10554 0.0
C209 C 0.45648 0.63087 0.08603 0.0
C210 C 0.92397 0.86167 0.60436 0.0
C211 C 0.90513 0.83444 0.60386 0.0
C212 C 0.94103 0.8956 0.60009 0.0
C213 C 0.95261 0.92333 0.58461 0.0
C214 C 0.59629 0.36458 1.00419 0.0
C215 C 0.61162 0.33546 1.00374 0.0
C216 C 0.57974 0.39859 1.01149 0.0
C217 C 0.56616 0.42484 0.02962 0.0
C218 C 0.15976 0.98062 0.389 0.0
C219 C 0.18341 0.97396 0.35939 0.0
C220 C 0.12903 0.98658 0.41985 0.0
C221 C 0.10103 0.9896 0.44367 0.0
C222 C 0.63952 0.5726 0.88481 0.0
C223 C 0.65655 0.58626 0.85243 0.0
C224 C 0.61411 0.56048 0.91922 0.0
C225 C 0.58802 0.55546 0.94511 0.0
C226 C 0.88853 0.07917 0.33493 0.0
C227 C 0.86785 0.08077 0.29364 0.0
C228 C 0.91337 0.07921 0.38277 0.0
C229 C 0.93468 0.0718 0.42186 0.0
C230 C 0.36203 0.48104 0.81955 0.0
C231 C 0.33934 0.47915 0.77985 0.0
C232 C 0.38958 0.4809 0.86519 0.0
C233 C 0.41265 0.48677 0.90353 0.0
C234 C 0.62303 0.5803 0.28254 0.0
C235 C 0.64125 0.58598 0.32442 0.0
C236 C 0.59885 0.57827 0.23468 0.0
C237 C 0.57788 0.57054 0.19558 0.0
C238 C 0.87123 0.07551 0.73275 0.0
C239 C 0.85104 0.08515 0.76516 0.0
C240 C 0.89774 0.06491 0.69796 0.0
C241 C 0.92404 0.05882 0.67228 0.0
C242 C 0.3526 0.48026 0.2261 0.0
C243 C 0.3294 0.47341 0.25617 0.0
C244 C 0.3833 0.48628 0.1952 0.0
C245 C 0.41154 0.48927 0.17176 0.0
C246 C 0.15468 0.98105 0.79536 0.0
C247 C 0.17672 0.97892 0.83567 0.0
C248 C 0.12732 0.98135 0.74938 0.0
C249 C 0.1036 0.98736 0.71165 0.0
loop_
_geom_bond_atom_site_label_1
_geom_bond_atom_site_label_2
_geom_bond_distance
_geom_bond_site_symmetry_2
_ccdc_geom_bond_type
C0 C1 1.264 . S
C0 C5 1.479 . S
C0 C10 1.465 . S
C1 C0 1.264 . S
C1 C3 1.339 . S
C1 H28 0.931 . S
C2 C3 1.395 . S
C2 C4 1.320 . S
C3 C1 1.339 . S
C3 C2 1.395 . S
C3 H29 0.929 . S
C4 C2 1.320 . S
C4 C5 1.405 . S
C4 H30 0.930 . S
C5 C0 1.479 . S
C5 C4 1.405 . S
C5 H31 0.931 . S
U6 O7 2.454 . S
U6 O8 2.458 . S
U6 C9 2.984 . S
U6 C10 2.847 . S
U6 C23 2.882 . S
U6 O24 2.441 . S
U6 O25 2.420 . S
U6 O26 2.455 . S
U6 O27 2.449 . S
O7 U6 2.454 . S
O7 C9 1.353 . S
O8 U6 2.458 . S
O8 C9 1.286 . S
C9 U6 2.984 . S
C9 O7 1.353 . S
C9 O8 1.286 . S
C9 C11 1.363 . S
C10 C0 1.465 . S
C10 U6 2.847 . S
C10 O24 1.249 . S
C10 O25 1.202 . S
C11 C9 1.363 . S
C11 C13 1.408 . S
C11 C16 1.342 . S
C12 C13 1.310 . S
C12 C15 1.461 . S
C12 H32 0.932 . S
C13 C11 1.408 . S
C13 C12 1.310 . S
C13 H33 0.930 . S
C14 C15 1.474 . S
C14 C16 1.285 . S
C14 H34 0.929 . S
C15 C12 1.461 . S
C15 C14 1.474 . S
C16 C11 1.342 . S
C16 C14 1.285 . S
C16 H35 0.930 . S
C17 C20 1.424 . S
C17 C22 1.245 . S
C17 C23 1.428 1_556 S
C18 C21 1.260 . S
C18 C22 1.477 . S
C18 H36 0.932 . S
C19 C20 1.384 . S
C19 C21 1.479 . S
C19 H37 0.929 1_565 S
C20 C17 1.424 . S
C20 C19 1.384 . S
C20 H38 0.928 . S
C21 C18 1.260 . S
C21 C19 1.479 . S
C22 C17 1.245 . S
C22 C18 1.477 . S
C22 H39 0.932 . S
C23 U6 2.882 . S
C23 C17 1.428 1_554 S
C23 O26 1.301 . S
C23 O27 1.282 . S
O24 U6 2.441 . S
O24 C10 1.249 . S
O25 U6 2.420 . S
O25 C10 1.202 . S
O26 U6 2.455 . S
O26 C23 1.301 . S
O27 U6 2.449 . S
O27 C23 1.282 . S
H28 C1 0.931 . S
H29 C3 0.929 . S
H30 C4 0.930 . S
H31 C5 0.931 . S
H32 C12 0.932 . S
H33 C13 0.930 . S
H34 C14 0.929 . S
H35 C16 0.930 . S
H36 C18 0.932 . S
H37 C19 0.929 1_545 S
H38 C20 0.928 . S
H39 C22 0.932 . S
C40 C41 1.264 . S
C40 C45 1.479 . S
C40 C50 1.465 . S
C41 C40 1.264 . S
C41 C43 1.339 . S
C41 H68 0.931 . S
C42 C43 1.395 . S
C42 C44 1.320 . S
C43 C41 1.339 . S
C43 C42 1.395 . S
C43 H69 0.929 . S
C44 C42 1.320 . S
C44 C45 1.405 . S
C44 H70 0.930 . S
C45 C40 1.479 . S
C45 C44 1.405 . S
C45 H71 0.931 . S
U46 O47 2.454 . S
U46 O48 2.458 . S
U46 C49 2.984 . S
U46 C50 2.847 . S
U46 C63 2.882 . S
U46 O64 2.441 . S
U46 O65 2.420 . S
U46 O66 2.455 . S
U46 O67 2.449 . S
O47 U46 2.454 . S
O47 C49 1.353 . S
O48 U46 2.458 . S
O48 C49 1.286 . S
C49 U46 2.984 . S
C49 O47 1.353 . S
C49 O48 1.286 . S
C49 C51 1.363 . S
C50 C40 1.465 . S
C50 U46 2.847 . S
C50 O64 1.249 . S
C50 O65 1.202 . S
C51 C49 1.363 . S
C51 C53 1.408 . S
C51 C56 1.342 . S
C52 C53 1.310 . S
C52 C55 1.461 . S
C52 H72 0.932 . S
C53 C51 1.408 . S
C53 C52 1.310 . S
C53 H73 0.930 . S
C54 C55 1.474 . S
C54 C56 1.285 . S
C54 H74 0.929 . S
C55 C52 1.461 . S
C55 C54 1.474 . S
C56 C51 1.342 . S
C56 C54 1.285 . S
C56 H75 0.930 . S
C57 C60 1.424 . S
C57 C62 1.245 . S
C57 C63 1.428 . S
C58 C61 1.260 . S
C58 C62 1.477 . S
C58 H76 0.932 . S
C59 C60 1.384 . S
C59 C61 1.479 . S
C59 H77 0.929 . S
C60 C57 1.424 . S
C60 C59 1.384 . S
C60 H78 0.928 . S
C61 C58 1.260 . S
C61 C59 1.479 . S
C62 C57 1.245 . S
C62 C58 1.477 . S
C62 H79 0.932 . S
C63 U46 2.882 . S
C63 C57 1.428 . S
C63 O66 1.301 . S
C63 O67 1.282 . S
O64 U46 2.441 . S
O64 C50 1.249 . S
O65 U46 2.420 . S
O65 C50 1.202 . S
O66 U46 2.455 . S
O66 C63 1.301 . S
O67 U46 2.449 . S
O67 C63 1.282 . S
H68 C41 0.931 . S
H69 C43 0.929 . S
H70 C44 0.930 . S
H71 C45 0.931 . S
H72 C52 0.932 . S
H73 C53 0.930 . S
H74 C54 0.929 . S
H75 C56 0.930 . S
H76 C58 0.932 . S
H77 C59 0.929 . S
H78 C60 0.928 . S
H79 C62 0.932 . S
C80 C81 1.264 . S
C80 C85 1.479 . S
C80 C90 1.465 . S
C81 C80 1.264 . S
C81 C83 1.339 . S
C81 H108 0.931 . S
C82 C83 1.395 . S
C82 C84 1.320 . S
C83 C81 1.339 . S
C83 C82 1.395 . S
C83 H109 0.929 . S
C84 C82 1.320 . S
C84 C85 1.405 . S
C84 H110 0.930 . S
C85 C80 1.479 . S
C85 C84 1.405 . S
C85 H111 0.931 . S
U86 O87 2.454 . S
U86 O88 2.458 1_554 S
U86 C89 2.984 1_554 S
U86 C90 2.847 . S
U86 C103 2.882 1_554 S
U86 O104 2.441 . S
U86 O105 2.420 . S
U86 O106 2.455 1_554 S
U86 O107 2.449 1_554 S
O87 U86 2.454 . S
O87 C89 1.353 1_554 S
O88 U86 2.458 1_556 S
O88 C89 1.286 . S
C89 U86 2.984 1_556 S
C89 O87 1.353 1_556 S
C89 O88 1.286 . S
C89 C91 1.363 . S
C90 C80 1.465 . S
C90 U86 2.847 . S
C90 O104 1.249 . S
C90 O105 1.202 . S
C91 C89 1.363 . S
C91 C93 1.408 1_556 S
C91 C96 1.342 . S
C92 C93 1.310 . S
C92 C95 1.461 1_554 S
C92 H112 0.932 . S
C93 C91 1.408 1_554 S
C93 C92 1.310 . S
C93 H113 0.930 . S
C94 C95 1.474 . S
C94 C96 1.285 . S
C94 H114 0.929 . S
C95 C92 1.461 1_556 S
C95 C94 1.474 . S
C96 C91 1.342 . S
C96 C94 1.285 . S
C96 H115 0.930 . S
C97 C100 1.424 . S
C97 C102 1.245 . S
C97 C103 1.428 . S
C98 C101 1.260 . S
C98 C102 1.477 . S
C98 H116 0.932 . S
C99 C100 1.384 . S
C99 C101 1.479 . S
C99 H117 0.929 . S
C100 C97 1.424 . S
C100 C99 1.384 . S
C100 H118 0.928 . S
C101 C98 1.260 . S
C101 C99 1.479 . S
C102 C97 1.245 . S
C102 C98 1.477 . S
C102 H119 0.932 . S
C103 U86 2.882 1_556 S
C103 C97 1.428 . S
C103 O106 1.301 . S
C103 O107 1.282 . S
O104 U86 2.441 . S
O104 C90 1.249 . S
O105 U86 2.420 . S
O105 C90 1.202 . S
O106 U86 2.455 1_556 S
O106 C103 1.301 . S
O107 U86 2.449 1_556 S
O107 C103 1.282 . S
H108 C81 0.931 . S
H109 C83 0.929 . S
H110 C84 0.930 . S
H111 C85 0.931 . S
H112 C92 0.932 . S
H113 C93 0.930 . S
H114 C94 0.929 . S
H115 C96 0.930 . S
H116 C98 0.932 . S
H117 C99 0.929 . S
H118 C100 0.928 . S
H119 C102 0.932 . S
C120 C121 1.264 . S
C120 C125 1.479 . S
C120 C130 1.465 . S
C121 C120 1.264 . S
C121 C123 1.339 . S
C121 H148 0.931 . S
C122 C123 1.395 . S
C122 C124 1.320 . S
C123 C121 1.339 . S
C123 C122 1.395 . S
C123 H149 0.929 . S
C124 C122 1.320 . S
C124 C125 1.405 . S
C124 H150 0.930 . S
C125 C120 1.479 . S
C125 C124 1.405 . S
C125 H151 0.931 . S
U126 O127 2.454 . S
U126 O128 2.458 . S
U126 C129 2.984 . S
U126 C130 2.847 . S
U126 C143 2.882 . S
U126 O144 2.441 . S
U126 O145 2.420 . S
U126 O146 2.455 . S
U126 O147 2.449 . S
O127 U126 2.454 . S
O127 C129 1.353 . S
O128 U126 2.458 . S
O128 C129 1.286 . S
C129 U126 2.984 . S
C129 O127 1.353 . S
C129 O128 1.286 . S
C129 C131 1.363 . S
C130 C120 1.465 . S
C130 U126 2.847 . S
C130 O144 1.249 . S
C130 O145 1.202 . S
C131 C129 1.363 . S
C131 C133 1.408 . S
C131 C136 1.342 . S
C132 C133 1.310 . S
C132 C135 1.461 . S
C132 H152 0.932 . S
C133 C131 1.408 . S
C133 C132 1.310 . S
C133 H153 0.930 . S
C134 C135 1.474 . S
C134 C136 1.285 . S
C134 H154 0.929 . S
C135 C132 1.461 . S
C135 C134 1.474 . S
C136 C131 1.342 . S
C136 C134 1.285 . S
C136 H155 0.930 . S
C137 C140 1.424 . S
C137 C142 1.245 . S
C137 C143 1.428 . S
C138 C141 1.260 . S
C138 C142 1.477 . S
C138 H156 0.932 . S
C139 C140 1.384 . S
C139 C141 1.479 . S
C139 H157 0.929 . S
C140 C137 1.424 . S
C140 C139 1.384 . S
C140 H158 0.928 . S
C141 C138 1.260 . S
C141 C139 1.479 . S
C142 C137 1.245 . S
C142 C138 1.477 . S
C142 H159 0.932 . S
C143 U126 2.882 . S
C143 C137 1.428 . S
C143 O146 1.301 . S
C143 O147 1.282 . S
O144 U126 2.441 . S
O144 C130 1.249 . S
O145 U126 2.420 . S
O145 C130 1.202 . S
O146 U126 2.455 . S
O146 C143 1.301 . S
O147 U126 2.449 . S
O147 C143 1.282 . S
H148 C121 0.931 . S
H149 C123 0.929 . S
H150 C124 0.930 . S
H151 C125 0.931 . S
H152 C132 0.932 . S
H153 C133 0.930 . S
H154 C134 0.929 . S
H155 C136 0.930 . S
H156 C138 0.932 . S
H157 C139 0.929 . S
H158 C140 0.928 . S
H159 C142 0.932 . S
O160 Mg161 1.990 1_655 S
O160 C174 1.253 . S
Mg161 O160 1.990 1_455 S
Mg161 O164 2.180 . S
Mg161 O165 2.117 . S
Mg161 O179 2.030 . S
O162 Mg163 2.072 1_655 S
O162 C174 1.260 . S
Mg163 O162 2.072 1_455 S
Mg163 O164 2.099 . S
Mg163 O166 2.079 1_545 S
Mg163 O167 2.072 1_455 S
Mg163 O169 2.099 1_445 S
Mg163 O180 2.079 1_545 S
O164 Mg161 2.180 . S
O164 Mg163 2.099 . S
O164 C175 1.279 . S
O165 Mg161 2.117 . S
O165 C175 1.250 . S
O166 Mg163 2.079 1_565 S
O166 C176 1.264 . S
O167 Mg163 2.072 1_655 S
O167 C177 1.260 . S
Mg168 O169 2.180 . S
Mg168 O170 2.030 1_655 S
Mg168 O171 1.990 1_565 S
Mg168 O172 2.117 . S
O169 Mg163 2.099 1_665 S
O169 Mg168 2.180 . S
O169 C178 1.279 . S
O170 Mg168 2.030 1_455 S
O170 C176 1.248 . S
O171 Mg168 1.990 1_545 S
O171 C177 1.253 . S
O172 Mg168 2.117 . S
O172 C178 1.250 . S
C173 O179 1.248 1_565 S
C173 O180 1.264 . S
C174 O160 1.253 . S
C174 O162 1.260 . S
C175 O164 1.279 . S
C175 O165 1.250 . S
C176 O166 1.264 . S
C176 O170 1.248 . S
C177 O167 1.260 . S
C177 O171 1.253 . S
C178 O169 1.279 . S
C178 O172 1.250 . S
O179 Mg161 2.030 . S
O179 C173 1.248 1_545 S
O180 Mg163 2.079 1_565 S
O180 C173 1.264 . S
O181 Mg182 1.990 . S
O181 C195 1.253 . S
Mg182 O181 1.990 . S
Mg182 O185 2.180 . S
Mg182 O186 2.117 . S
Mg182 O200 2.030 . S
O183 Mg184 2.072 . S
O183 C195 1.260 . S
Mg184 O183 2.072 . S
Mg184 O185 2.099 . S
Mg184 O187 2.079 1_554 S
Mg184 O188 2.072 1_554 S
Mg184 O190 2.099 . S
Mg184 O201 2.079 . S
O185 Mg182 2.180 . S
O185 Mg184 2.099 . S
O185 C196 1.279 . S
O186 Mg182 2.117 . S
O186 C196 1.250 . S
O187 Mg184 2.079 1_556 S
O187 C197 1.264 . S
O188 Mg184 2.072 1_556 S
O188 C198 1.260 . S
Mg189 O190 2.180 1_556 S
Mg189 O191 2.030 . S
Mg189 O192 1.990 . S
Mg189 O193 2.117 . S
O190 Mg184 2.099 . S
O190 Mg189 2.180 1_554 S
O190 C199 1.279 . S
O191 Mg189 2.030 . S
O191 C197 1.248 . S
O192 Mg189 1.990 . S
O192 C198 1.253 . S
O193 Mg189 2.117 . S
O193 C199 1.250 1_556 S
C194 O200 1.248 . S
C194 O201 1.264 . S
C195 O181 1.253 . S
C195 O183 1.260 . S
C196 O185 1.279 . S
C196 O186 1.250 . S
C197 O187 1.264 . S
C197 O191 1.248 . S
C198 O188 1.260 . S
C198 O192 1.253 . S
C199 O190 1.279 . S
C199 O193 1.250 1_554 S
O200 Mg182 2.030 . S
O200 C194 1.248 . S
O201 Mg184 2.079 . S
O201 C194 1.264 . S
C202 C203 1.170 . S
C202 C204 1.380 . S
C203 C202 1.170 . S
C204 C202 1.380 . S
C204 C205 1.170 . S
C205 C204 1.170 . S
C206 C207 1.170 . S
C206 C208 1.380 . S
C207 C206 1.170 . S
C208 C206 1.380 . S
C208 C209 1.170 . S
C209 C208 1.170 . S
C210 C211 1.170 . S
C210 C212 1.380 . S
C211 C210 1.170 . S
C212 C210 1.380 . S
C212 C213 1.170 . S
C213 C212 1.170 . S
C214 C215 1.170 . S
C214 C216 1.381 1_556 S
C215 C214 1.170 . S
C216 C214 1.381 1_554 S
C216 C217 1.170 . S
C217 C216 1.170 . S
C218 C219 1.170 . S
C218 C220 1.380 . S
C219 C218 1.170 . S
C220 C218 1.380 . S
C220 C221 1.170 . S
C221 C220 1.170 . S
C222 C223 1.170 . S
C222 C224 1.380 . S
C223 C222 1.170 . S
C224 C222 1.380 . S
C224 C225 1.170 . S
C225 C224 1.170 . S
C226 C227 1.170 . S
C226 C228 1.380 . S
C227 C226 1.170 . S
C228 C226 1.380 . S
C228 C229 1.170 . S
C229 C228 1.170 . S
C230 C231 1.170 . S
C230 C232 1.380 . S
C231 C230 1.170 . S
C232 C230 1.380 . S
C232 C233 1.170 . S
C233 C232 1.170 . S
C234 C235 1.170 . S
C234 C236 1.380 . S
C235 C234 1.170 . S
C236 C234 1.380 . S
C236 C237 1.170 . S
C237 C236 1.170 . S
C238 C239 1.170 . S
C238 C240 1.380 . S
C239 C238 1.170 . S
C240 C238 1.380 . S
C240 C241 1.170 . S
C241 C240 1.170 . S
C242 C243 1.170 . S
C242 C244 1.380 . S
C243 C242 1.170 . S
C244 C242 1.380 . S
C244 C245 1.170 . S
C245 C244 1.170 . S
C246 C247 1.170 . S
C246 C248 1.380 . S
C247 C246 1.170 . S
C248 C246 1.380 . S
C248 C249 1.170 . S
C249 C248 1.170 . S
C205 C175 1.469 . S
C203 C135 1.608 . S
C207 C15 1.604 . S
C209 C199 1.462 . S
C211 C55 1.697 . S
C213 C178 1.511 . S
C215 C95 1.701 . S
C217 C196 1.549 . S
C221 C176 1.696 . S
C219 C2 1.687 . S
C225 C198 1.635 . S
C223 C42 1.605 . S
C227 C82 1.625 . S
C229 C177 1.538 . S
C231 C141 1.669 . S
C233 C197 1.580 . S
C237 C195 1.542 . S
C235 C61 1.558 . S
C241 C174 1.673 . S
C239 C101 1.693 . S
C245 C194 1.728 . S
C243 C122 1.726 . S
C247 C21 1.699 . S
C249 C173 1.599 . S
