# Generated by pormake.
# Topology pts, (4,4)-cn, num edge types: 1
# Building blocks:
#     Node 0, Type 0, BuildingBlock: ESEHIV_clean_sbu_0, # of connection points: 4
#     Node 1, Type 0, BuildingBlock: ESEHIV_clean_sbu_0, # of connection points: 4
#     Node 2, Type 1, BuildingBlock: AZAVOO_clean_sbu_0, # of connection points: 4
#     Node 3, Type 1, BuildingBlock: AZAVOO_clean_sbu_0, # of connection points: 4
#     Edge 4, Type (0, 1), BuildingBlock: OJICUG_clean_linker_0, # of connection points: 2
#     Edge 5, Type (0, 1), BuildingBlock: OJICUG_clean_linker_0, # of connection points: 2
#     Edge 6, Type (0, 1), BuildingBlock: OJICUG_clean_linker_0, # of connection points: 2
#     Edge 7, Type (0, 1), BuildingBlock: OJICUG_clean_linker_0, # of connection points: 2
#     Edge 8, Type (0, 1), BuildingBlock: OJICUG_clean_linker_0, # of connection points: 2
#     Edge 9, Type (0, 1), BuildingBlock: OJICUG_clean_linker_0, # of connection points: 2
#     Edge 10, Type (0, 1), BuildingBlock: OJICUG_clean_linker_0, # of connection points: 2
#     Edge 11, Type (0, 1), BuildingBlock: OJICUG_clean_linker_0, # of connection points: 2
# Relax obj value: 0.001
# Max RMSD: 0.095
# Mean RMSD: 0.061
data_MOF--net-pts--node1-ESEHIV_clean_sbu_0--node2-AZAVOO_clean_sbu_0--edge1-OJICUG_clean_linker_0
_symmetry_space_group_name_H-M    P1
_symmetry_Int_Tables_number       1
_symmetry_cell_setting            triclinic
loop_
_symmetry_equiv_pos_as_xyz
'x, y, z'
_cell_length_a     17.255281
_cell_length_b     19.184926
_cell_length_c     28.324515
_cell_angle_alpha  94.14132
_cell_angle_beta   102.06737
_cell_angle_gamma 89.778122
loop_
_atom_site_label
_atom_site_type_symbol
_atom_site_fract_x
_atom_site_fract_y
_atom_site_fract_z
_atom_type_partial_charge
Cu0 Cu 0.5978 0.05019 0.01452 0.0
N1 N 0.64992 -0.0008 0.97233 0.0
N2 N 0.73572 0.98698 0.9233 0.0
C3 C 0.69538 0.03202 0.94747 0.0
C4 C 0.71404 0.92273 0.93299 0.0
C5 C 0.66053 0.93044 0.96322 0.0
O6 O 0.6798 0.10638 0.05899 0.0
C7 C 0.45329 0.05197 0.95372 0.0
O8 O 0.45492 0.98856 0.96846 0.0
H9 H 0.70208 0.08831 0.94949 0.0
H10 H 0.634 0.88924 0.97887 0.0
N11 N 0.55205 0.00145 0.05647 0.0
N12 N 0.485 0.99501 0.11552 0.0
C13 C 0.49983 0.03272 0.08008 0.0
C14 C 0.57138 0.94139 0.07754 0.0
C15 C 0.52979 0.9372 0.11409 0.0
C16 C 0.74056 0.07039 0.07586 0.0
O17 O 0.74288 0.00438 0.06057 0.0
H18 H 0.47772 0.08479 0.07355 0.0
H19 H 0.61577 0.90548 0.06898 0.0
O20 O 0.51148 0.09373 0.97111 0.0
H21 H 0.73637 0.87381 0.92001 0.0
H22 H 0.53448 0.89615 0.13878 0.0
Cu23 Cu 0.13546 0.59695 0.52874 0.0
N24 N 0.1908 0.54831 0.57947 0.0
N25 N 0.20508 0.47085 0.63581 0.0
C26 C 0.15485 0.50001 0.59978 0.0
C27 C 0.27595 0.50229 0.6382 0.0
C28 C 0.26682 0.55052 0.60347 0.0
O29 O 0.0862 0.52611 0.47903 0.0
C30 C 0.10981 0.70544 0.58679 0.0
O31 O 0.18716 0.69867 0.59653 0.0
H32 H 0.09327 0.48485 0.58693 0.0
H33 H 0.3123 0.58421 0.59611 0.0
N34 N 0.19484 0.656 0.50016 0.0
N35 N 0.211 0.74214 0.45428 0.0
C36 C 0.15974 0.70751 0.47406 0.0
C37 C 0.27174 0.65835 0.49737 0.0
C38 C 0.28174 0.71142 0.46852 0.0
C39 C 0.13494 0.49573 0.45632 0.0
O40 O 0.20945 0.51611 0.46717 0.0
H41 H 0.09694 0.7181 0.46862 0.0
H42 H 0.31671 0.62318 0.51403 0.0
O43 O 0.06754 0.66114 0.55659 0.0
H44 H 0.33064 0.49076 0.6628 0.0
H45 H 0.33648 0.72622 0.45875 0.0
Mg46 Mg 0.16935 0.08998 0.30448 0.0
O47 O 0.052 0.08665 0.24827 0.0
O48 O 0.95451 0.07886 0.28853 0.0
Mg49 Mg 1.00969 0.06582 0.3683 0.0
C50 C 0.9784 0.08568 0.2494 0.0
C51 C 0.30537 0.08436 0.25845 0.0
O52 O 0.324 0.05795 0.30085 0.0
O53 O 0.1414 0.20171 0.32979 0.0
O54 O 0.05044 0.1805 0.37323 0.0
O55 O 0.18252 0.97543 0.29863 0.0
O56 O 0.12428 0.031 0.35242 0.0
C57 C 0.09473 0.2227 0.35753 0.0
C58 C 0.14892 0.97291 0.33516 0.0
O59 O 0.23951 0.11591 0.24783 0.0
Mg60 Mg 1.02597 0.08159 0.72548 0.0
O61 O 0.14417 0.06637 0.77926 0.0
O62 O 0.24145 0.04929 0.73868 0.0
Mg63 Mg 0.18513 0.04734 0.65813 0.0
C64 C 0.21724 0.05769 0.77827 0.0
C65 C 0.97044 0.05497 0.81602 0.0
O66 O 1.02219 0.00641 0.81031 0.0
O67 O 0.07132 0.19318 0.71769 0.0
O68 O 0.16342 0.16269 0.67481 0.0
O69 O 0.99722 0.96738 0.71273 0.0
O70 O 0.06692 0.02315 0.67027 0.0
C71 C 0.12593 0.20896 0.69555 0.0
C72 C 1.03649 0.96533 0.67863 0.0
O73 O 0.96283 0.10575 0.78868 0.0
C74 C 0.46179 -0.00194 0.1988 0.0
C75 C 0.43967 0.01769 0.15114 0.0
H76 H 0.43838 0.00522 0.27001 0.0
C77 C 0.37459 0.06241 0.13932 0.0
H78 H 0.51238 0.96486 0.20933 0.0
C79 C 0.33187 0.08603 0.17427 0.0
C80 C 0.35381 0.06585 0.22188 0.0
H81 H 0.35593 0.07826 0.1028 0.0
H82 H 0.28108 0.11912 0.16381 0.0
C83 C 0.41971 0.02208 0.23373 0.0
C84 C 0.24659 0.36218 0.675 0.0
C85 C 0.18778 0.41147 0.66053 0.0
H86 H 0.27264 0.25961 0.69819 0.0
C87 C 0.10986 0.39785 0.66584 0.0
H88 H 0.30698 0.37077 0.67146 0.0
C89 C 0.09003 0.33383 0.68149 0.0
C90 C 0.14778 0.28236 0.69165 0.0
H91 H 0.0635 0.43548 0.65591 0.0
H92 H 1.02881 0.32286 0.68229 0.0
C93 C 0.22672 0.29829 0.69015 0.0
C94 C 0.88176 0.08098 0.11616 0.0
C95 C 0.80235 0.09492 0.11771 0.0
H96 H 0.99976 0.06755 0.15638 0.0
C97 C 0.78225 0.11246 0.16251 0.0
H98 H 0.89818 0.06576 0.082 0.0
C99 C 0.83995 0.11128 0.20538 0.0
C100 C 0.9188 0.09331 0.20403 0.0
H101 H 0.721 0.12142 0.16466 0.0
H102 H 0.82217 0.12205 0.23964 0.0
C103 C 0.93962 0.08102 0.15881 0.0
C104 C 1.02977 0.77228 0.63792 0.0
C105 C 0.07777 0.77102 0.60371 0.0
H106 H 0.97979 0.83548 0.68928 0.0
C107 C 0.10794 0.83381 0.59203 0.0
H108 H 1.00727 0.72406 0.64793 0.0
C109 C 0.09271 0.89716 0.61544 0.0
C110 C 0.04822 0.89867 0.65168 0.0
H111 H 0.14575 0.83354 0.56588 0.0
H112 H 0.11759 0.94457 0.60594 0.0
C113 C 1.01514 0.83584 0.66189 0.0
C114 C 0.31268 0.04481 0.9104 0.0
C115 C 0.39068 0.06718 0.91197 0.0
H116 H 0.19634 0.02489 0.86698 0.0
C117 C 0.41046 0.08979 0.86998 0.0
H118 H 0.29654 0.02607 0.94227 0.0
C119 C 0.35395 0.08662 0.82644 0.0
C120 C 0.2764 0.06217 0.8245 0.0
H121 H 0.47067 0.10572 0.87009 0.0
H122 H 0.37121 0.10257 0.79415 0.0
C123 C 0.2557 0.04338 0.86727 0.0
C124 C 0.16423 0.40943 0.39268 0.0
C125 C 0.11365 0.43215 0.4236 0.0
H126 H 0.19756 0.3259 0.34707 0.0
C127 C 0.05022 0.38898 0.42738 0.0
H128 H 0.21325 0.44201 0.38865 0.0
C129 C 0.0415 0.322 0.40369 0.0
C130 C 0.09577 0.29727 0.37556 0.0
H131 H 1.01038 0.40511 0.45092 0.0
H132 H 0.99424 0.28855 0.40921 0.0
C133 C 0.15524 0.34284 0.36877 0.0
C134 C 0.86075 0.96212 0.89629 0.0
C135 C 0.7952 0.00521 0.89715 0.0
H136 H 0.9683 0.94521 0.87153 0.0
C137 C 0.79001 0.06771 0.87346 0.0
H138 H 0.86735 0.91449 0.91495 0.0
C139 C 0.84821 0.08578 0.84844 0.0
C140 C 0.91312 0.0419 0.84695 0.0
H141 H 0.74 0.10196 0.87338 0.0
H142 H 0.84139 0.13314 0.82943 0.0
C143 C 0.91913 0.9804 0.87178 0.0
C144 C 0.22665 0.80179 0.38271 0.0
C145 C 0.19195 0.79821 0.42297 0.0
H146 H 0.23759 0.85833 0.32221 0.0
C147 C 0.13706 0.84936 0.43181 0.0
H148 H 0.26805 0.76234 0.37477 0.0
C149 C 0.11971 0.90484 0.40196 0.0
C150 C 0.15585 0.90929 0.36221 0.0
H151 H 0.10952 0.84755 0.46273 0.0
H152 H 0.07975 0.94508 0.41074 0.0
C153 C 0.20817 0.85631 0.35233 0.0
loop_
_geom_bond_atom_site_label_1
_geom_bond_atom_site_label_2
_geom_bond_distance
_geom_bond_site_symmetry_2
_ccdc_geom_bond_type
Cu0 N1 1.999 1_554 S
Cu0 O6 1.974 . S
Cu0 N11 1.985 . S
Cu0 O20 1.959 1_554 S
N1 Cu0 1.999 1_556 S
N1 C3 1.263 . S
N1 C5 1.389 . S
N2 C3 1.358 . S
N2 C4 1.400 . S
C3 N1 1.263 . S
C3 N2 1.358 . S
C3 H9 0.930 . S
C4 N2 1.400 . S
C4 C5 1.351 . S
C4 H21 0.930 . S
C5 N1 1.389 . S
C5 C4 1.351 . S
C5 H10 0.930 . S
O6 Cu0 1.974 . S
O6 C16 1.282 . S
C7 O8 1.261 1_545 S
C7 O20 1.251 . S
O8 C7 1.261 1_565 S
H9 C3 0.930 . S
H10 C5 0.930 . S
N11 Cu0 1.985 . S
N11 C13 1.335 . S
N11 C14 1.390 . S
N12 C13 1.345 . S
N12 C15 1.336 . S
C13 N11 1.335 . S
C13 N12 1.345 . S
C13 H18 0.930 . S
C14 N11 1.390 . S
C14 C15 1.346 . S
C14 H19 0.930 . S
C15 N12 1.336 . S
C15 C14 1.346 . S
C15 H22 0.929 . S
C16 O6 1.282 . S
C16 O17 1.216 1_545 S
O17 C16 1.216 1_565 S
H18 C13 0.930 . S
H19 C14 0.930 . S
O20 Cu0 1.959 1_556 S
O20 C7 1.251 . S
H21 C4 0.930 . S
H22 C15 0.929 . S
Cu23 N24 1.999 . S
Cu23 O29 1.974 . S
Cu23 N34 1.985 . S
Cu23 O43 1.959 . S
N24 Cu23 1.999 . S
N24 C26 1.263 . S
N24 C28 1.389 . S
N25 C26 1.358 . S
N25 C27 1.400 . S
C26 N24 1.263 . S
C26 N25 1.358 . S
C26 H32 0.930 . S
C27 N25 1.400 . S
C27 C28 1.351 . S
C27 H44 0.930 1_455 S
C28 N24 1.389 . S
C28 C27 1.351 . S
C28 H33 0.930 1_455 S
O29 Cu23 1.974 . S
O29 C39 1.282 . S
C30 O31 1.261 . S
C30 O43 1.251 . S
O31 C30 1.261 . S
H32 C26 0.930 . S
H33 C28 0.930 1_655 S
N34 Cu23 1.985 . S
N34 C36 1.335 . S
N34 C37 1.390 . S
N35 C36 1.345 . S
N35 C38 1.336 . S
C36 N34 1.335 . S
C36 N35 1.345 . S
C36 H41 0.930 . S
C37 N34 1.390 . S
C37 C38 1.346 . S
C37 H42 0.930 . S
C38 N35 1.336 . S
C38 C37 1.346 . S
C38 H45 0.929 . S
C39 O29 1.282 . S
C39 O40 1.216 . S
O40 C39 1.216 . S
H41 C36 0.930 . S
H42 C37 0.930 . S
O43 Cu23 1.959 . S
O43 C30 1.251 . S
H44 C27 0.930 1_655 S
H45 C38 0.929 . S
Mg46 O47 2.028 . S
Mg46 O53 1.986 . S
Mg46 O55 2.114 1_545 S
Mg46 O56 2.251 . S
Mg46 O59 2.010 . S
O47 Mg46 2.028 . S
O47 C50 1.250 1_455 S
O48 Mg49 2.028 . S
O48 C50 1.248 . S
Mg49 O48 2.028 . S
Mg49 O54 2.032 1_655 S
Mg49 O56 2.079 1_655 S
C50 O47 1.250 1_655 S
C50 O48 1.248 . S
C51 O52 1.264 . S
C51 O59 1.249 . S
O52 C51 1.264 . S
O53 Mg46 1.986 . S
O53 C57 1.246 . S
O54 Mg49 2.032 1_455 S
O54 C57 1.259 . S
O55 Mg46 2.114 1_565 S
O55 C58 1.252 . S
O56 Mg46 2.251 . S
O56 Mg49 2.079 1_455 S
O56 C58 1.273 1_545 S
C57 O53 1.246 . S
C57 O54 1.259 . S
C58 O55 1.252 . S
C58 O56 1.273 1_565 S
O59 Mg46 2.010 . S
O59 C51 1.249 . S
Mg60 O61 2.028 . S
Mg60 O67 1.986 . S
Mg60 O69 2.114 1_545 S
Mg60 O70 2.251 1_545 S
Mg60 O73 2.010 1_455 S
O61 Mg60 2.028 . S
O61 C64 1.250 . S
O62 Mg63 2.028 . S
O62 C64 1.248 . S
Mg63 O62 2.028 . S
Mg63 O68 2.032 . S
Mg63 O70 2.079 1_545 S
C64 O61 1.250 . S
C64 O62 1.248 . S
C65 O66 1.264 . S
C65 O73 1.249 . S
O66 C65 1.264 . S
O67 Mg60 1.986 . S
O67 C71 1.246 . S
O68 Mg63 2.032 . S
O68 C71 1.259 . S
O69 Mg60 2.114 1_565 S
O69 C72 1.252 . S
O70 Mg60 2.251 1_565 S
O70 Mg63 2.079 1_565 S
O70 C72 1.273 . S
C71 O67 1.246 . S
C71 O68 1.259 . S
C72 O69 1.252 . S
C72 O70 1.273 . S
O73 Mg60 2.010 1_655 S
O73 C65 1.249 . S
C74 C75 1.387 . S
C74 H78 0.950 1_545 S
C74 C83 1.390 . S
C75 C74 1.387 . S
C75 C77 1.387 . S
H76 C83 0.950 1_565 S
C77 C75 1.387 . S
C77 C79 1.390 . S
C77 H81 0.950 . S
H78 C74 0.950 1_565 S
C79 C77 1.390 . S
C79 C80 1.387 . S
C79 H82 0.950 . S
C80 C79 1.387 . S
C80 C83 1.387 . S
H81 C77 0.950 . S
H82 C79 0.950 . S
C83 C74 1.390 . S
C83 H76 0.950 1_545 S
C83 C80 1.387 . S
C84 C85 1.387 . S
C84 H88 0.950 1_455 S
C84 C93 1.390 . S
C85 C84 1.387 . S
C85 C87 1.387 . S
H86 C93 0.950 1_655 S
C87 C85 1.387 . S
C87 C89 1.390 . S
C87 H91 0.950 . S
H88 C84 0.950 1_655 S
C89 C87 1.390 . S
C89 C90 1.387 . S
C89 H92 0.950 . S
C90 C89 1.387 . S
C90 C93 1.387 . S
H91 C87 0.950 . S
H92 C89 0.950 . S
C93 C84 1.390 . S
C93 H86 0.950 1_455 S
C93 C90 1.387 . S
C94 C95 1.387 . S
C94 H98 0.950 . S
C94 C103 1.390 . S
C95 C94 1.387 . S
C95 C97 1.387 1_545 S
H96 C103 0.950 . S
C97 C95 1.387 1_565 S
C97 C99 1.390 1_565 S
C97 H101 0.950 . S
H98 C94 0.950 . S
C99 C97 1.390 1_545 S
C99 C100 1.387 . S
C99 H102 0.950 1_545 S
C100 C99 1.387 . S
C100 C103 1.387 . S
H101 C97 0.950 . S
H102 C99 0.950 1_565 S
C103 C94 1.390 . S
C103 H96 0.950 . S
C103 C100 1.387 . S
C104 C105 1.387 . S
C104 H108 0.950 . S
C104 C113 1.390 . S
C105 C104 1.387 . S
C105 C107 1.387 . S
H106 C113 0.950 . S
C107 C105 1.387 . S
C107 C109 1.390 . S
C107 H111 0.950 . S
H108 C104 0.950 . S
C109 C107 1.390 . S
C109 C110 1.387 . S
C109 H112 0.950 . S
C110 C109 1.387 . S
C110 C113 1.387 . S
H111 C107 0.950 . S
H112 C109 0.950 . S
C113 C104 1.390 . S
C113 H106 0.950 . S
C113 C110 1.387 . S
C114 C115 1.387 . S
C114 H118 0.950 . S
C114 C123 1.390 . S
C115 C114 1.387 . S
C115 C117 1.387 1_545 S
H116 C123 0.950 . S
C117 C115 1.387 1_565 S
C117 C119 1.390 . S
C117 H121 0.950 . S
H118 C114 0.950 . S
C119 C117 1.390 . S
C119 C120 1.387 1_565 S
C119 H122 0.950 . S
C120 C119 1.387 1_545 S
C120 C123 1.387 . S
H121 C117 0.950 . S
H122 C119 0.950 . S
C123 C114 1.390 . S
C123 H116 0.950 . S
C123 C120 1.387 . S
C124 C125 1.387 . S
C124 H128 0.950 . S
C124 C133 1.390 . S
C125 C124 1.387 . S
C125 C127 1.387 . S
H126 C133 0.950 . S
C127 C125 1.387 . S
C127 C129 1.390 . S
C127 H131 0.950 1_455 S
H128 C124 0.950 . S
C129 C127 1.390 . S
C129 C130 1.387 . S
C129 H132 0.950 1_455 S
C130 C129 1.387 . S
C130 C133 1.387 . S
H131 C127 0.950 1_655 S
H132 C129 0.950 1_655 S
C133 C124 1.390 . S
C133 H126 0.950 . S
C133 C130 1.387 . S
C134 C135 1.387 . S
C134 H138 0.950 1_545 S
C134 C143 1.390 . S
C135 C134 1.387 . S
C135 C137 1.387 . S
H136 C143 0.950 1_565 S
C137 C135 1.387 . S
C137 C139 1.390 . S
C137 H141 0.950 . S
H138 C134 0.950 1_565 S
C139 C137 1.390 . S
C139 C140 1.387 . S
C139 H142 0.950 . S
C140 C139 1.387 . S
C140 C143 1.387 . S
H141 C137 0.950 . S
H142 C139 0.950 . S
C143 C134 1.390 . S
C143 H136 0.950 1_545 S
C143 C140 1.387 . S
C144 C145 1.387 . S
C144 H148 0.950 . S
C144 C153 1.390 . S
C145 C144 1.387 . S
C145 C147 1.387 . S
H146 C153 0.950 . S
C147 C145 1.387 . S
C147 C149 1.390 . S
C147 H151 0.950 1_455 S
H148 C144 0.950 . S
C149 C147 1.390 . S
C149 C150 1.387 . S
C149 H152 0.950 1_455 S
C150 C149 1.387 . S
C150 C153 1.387 . S
H151 C147 0.950 1_655 S
H152 C149 0.950 1_655 S
C153 C144 1.390 . S
C153 H146 0.950 . S
C153 C150 1.387 . S
C80 C51 1.250 . S
C75 N12 1.444 . S
C90 C71 1.495 . S
C85 N25 1.488 . S
C100 C50 1.449 . S
C95 C16 1.487 . S
C110 C72 1.521 . S
C105 C30 1.519 . S
C120 C64 1.482 . S
C115 C7 1.523 . S
C130 C57 1.450 . S
C125 C39 1.468 . S
C140 C65 1.262 . S
C135 N2 1.480 . S
C145 N35 1.452 . S
C150 C58 1.492 . S
