# Generated by pormake.
# Topology tsx, (6,3)-cn, num edge types: 1
# Building blocks:
#     Node 0, Type 0, BuildingBlock: FUNLAD_clean_sbu_0, # of connection points: 6
#     Node 1, Type 0, BuildingBlock: FUNLAD_clean_sbu_0, # of connection points: 6
#     Node 2, Type 1, BuildingBlock: OLANEW_clean_sbu_2, # of connection points: 3
#     Node 3, Type 1, BuildingBlock: OLANEW_clean_sbu_2, # of connection points: 3
#     Node 4, Type 1, BuildingBlock: OLANEW_clean_sbu_2, # of connection points: 3
#     Node 5, Type 1, BuildingBlock: OLANEW_clean_sbu_2, # of connection points: 3
#     Edge 6, Type (0, 1), None
#     Edge 7, Type (0, 1), None
#     Edge 8, Type (0, 1), None
#     Edge 9, Type (0, 1), None
#     Edge 10, Type (0, 1), None
#     Edge 11, Type (0, 1), None
#     Edge 12, Type (0, 1), None
#     Edge 13, Type (0, 1), None
#     Edge 14, Type (0, 1), None
#     Edge 15, Type (0, 1), None
#     Edge 16, Type (0, 1), None
#     Edge 17, Type (0, 1), None
# Relax obj value: 0.086
# Max RMSD: 0.114
# Mean RMSD: 0.106
data_MOF--net-tsx--node1-FUNLAD_clean_sbu_0--node2-OLANEW_clean_sbu_2--edge1-none
_symmetry_space_group_name_H-M    P1
_symmetry_Int_Tables_number       1
_symmetry_cell_setting            triclinic
loop_
_symmetry_equiv_pos_as_xyz
'x, y, z'
_cell_length_a     10.702202
_cell_length_b     12.148228
_cell_length_c     19.543816
_cell_angle_alpha  100.27488
_cell_angle_beta   92.084963
_cell_angle_gamma 91.398065
loop_
_atom_site_label
_atom_site_type_symbol
_atom_site_fract_x
_atom_site_fract_y
_atom_site_fract_z
_atom_type_partial_charge
C0 C 0.75579 0.88372 0.07383 0.0
N1 N 0.04332 -0.01239 0.22547 0.0
C2 C 0.96082 0.03802 0.27154 0.0
C3 C -0.01527 0.04655 0.3431 0.0
C4 C 0.09362 0.00144 0.36743 0.0
C5 C 0.17787 0.95117 0.31884 0.0
C6 C 0.15073 0.94497 0.24779 0.0
Zn7 Zn 0.01014 -0.01826 0.12088 0.0
C8 C 0.08689 0.76287 1.03701 0.0
N9 N 0.94142 0.96766 0.9015 0.0
C10 C 0.8375 0.01799 0.88124 0.0
C11 C 0.03311 0.93625 0.85606 0.0
C12 C 0.02573 0.96152 0.78882 0.0
C13 C 0.92459 0.02191 0.76902 0.0
C14 C 0.82808 0.04748 0.81537 0.0
Zn15 Zn -0.02778 0.96564 1.00638 0.0
O16 O 0.82558 0.9216 0.12723 0.0
C17 C 0.89581 0.18399 0.08958 0.0
O18 O 0.79477 0.88497 1.01316 0.0
H19 H 0.11579 0.89773 0.87326 0.0
H20 H 0.87689 0.07284 0.25283 0.0
H21 H 0.76506 0.04178 0.91766 0.0
O22 O 0.94818 0.14874 0.14041 0.0
O23 O 0.88919 0.12289 1.02975 0.0
H24 H 0.21589 0.90639 0.21044 0.0
O25 O 0.15068 0.04922 1.00338 0.0
O26 O 0.19126 0.0443 0.11373 0.0
O27 O 0.05527 0.8085 0.98558 0.0
O28 O 0.07373 0.81463 0.09881 0.0
C29 C 0.22416 0.07088 0.05707 0.0
H30 H 0.92012 0.09041 0.37874 0.0
H31 H 0.26318 0.91567 0.33555 0.0
H32 H 0.10277 0.9416 0.75476 0.0
H33 H 0.7484 0.0938 0.80183 0.0
C34 C 0.25579 0.38372 0.57383 0.0
N35 N 0.54332 0.48762 0.72547 0.0
C36 C 0.46082 0.53802 0.77154 0.0
C37 C 0.48473 0.54655 0.8431 0.0
C38 C 0.59362 0.50144 0.86743 0.0
C39 C 0.67787 0.45117 0.81884 0.0
C40 C 0.65073 0.44497 0.74779 0.0
Zn41 Zn 0.51014 0.48174 0.62088 0.0
C42 C 0.58689 0.26287 0.53701 0.0
N43 N 0.44142 0.46766 0.4015 0.0
C44 C 0.3375 0.51799 0.38124 0.0
C45 C 0.53311 0.43625 0.35606 0.0
C46 C 0.52573 0.46152 0.28882 0.0
C47 C 0.42459 0.52191 0.26902 0.0
C48 C 0.32808 0.54748 0.31537 0.0
Zn49 Zn 0.47222 0.46564 0.50638 0.0
O50 O 0.32558 0.4216 0.62723 0.0
C51 C 0.39582 0.68399 0.58958 0.0
O52 O 0.29477 0.38497 0.51316 0.0
H53 H 0.61579 0.39773 0.37326 0.0
H54 H 0.37689 0.57284 0.75283 0.0
H55 H 0.26507 0.54178 0.41766 0.0
O56 O 0.44818 0.64874 0.64041 0.0
O57 O 0.38919 0.62289 0.52975 0.0
H58 H 0.71589 0.40639 0.71044 0.0
O59 O 0.65068 0.54922 0.50338 0.0
O60 O 0.69126 0.5443 0.61374 0.0
O61 O 0.55527 0.3085 0.48558 0.0
O62 O 0.57373 0.31463 0.59881 0.0
C63 C 0.72416 0.57088 0.55707 0.0
H64 H 0.42012 0.59041 0.87874 0.0
H65 H 0.76318 0.41567 0.83555 0.0
H66 H 0.60277 0.4416 0.25476 0.0
H67 H 0.2484 0.5938 0.30183 0.0
O68 O 0.23192 0.0123 0.46699 0.0
Cd69 Cd 0.25339 0.00397 0.59064 0.0
O70 O 0.03211 -0.00236 0.48394 0.0
Cd71 Cd 0.83154 -0.0069 0.45881 0.0
O72 O 0.68618 0.11586 0.46518 0.0
C73 C 0.65118 0.15659 0.52557 0.0
O74 O 0.69184 0.11385 0.57909 0.0
C75 C 0.11983 0.00484 0.44257 0.0
C76 C 0.34537 0.79544 0.5979 0.0
O77 O 0.23036 0.80722 0.58155 0.0
O78 O 0.41767 0.88262 0.61304 0.0
O79 O 0.89211 0.17101 0.70734 0.0
Cd80 Cd 0.89004 0.27005 0.60856 0.0
O81 O 0.9655 0.01695 0.6485 0.0
Cd82 Cd -0.00184 0.83822 0.63379 0.0
O83 O 0.89195 0.68038 0.61642 0.0
C84 C 0.83468 0.64476 0.55826 0.0
O85 O 0.85339 0.69597 0.50558 0.0
C86 C 0.9275 0.07143 0.70522 0.0
C87 C 0.12881 0.34414 0.58367 0.0
O88 O 0.06831 0.39207 0.63544 0.0
O89 O 0.07676 0.2606 0.54235 0.0
O90 O 0.73192 0.5123 0.96699 0.0
Cd91 Cd 0.75338 0.50397 0.09064 0.0
O92 O 0.53211 0.49764 0.98394 0.0
Cd93 Cd 0.33154 0.4931 0.95881 0.0
O94 O 0.18618 0.61586 0.96518 0.0
C95 C 0.15118 0.65659 1.02557 0.0
O96 O 0.19184 0.61385 0.07909 0.0
C97 C 0.61983 0.50484 0.94257 0.0
C98 C 0.84536 0.29544 0.0979 0.0
O99 O 0.73036 0.30722 0.08155 0.0
O100 O 0.91767 0.38262 0.11304 0.0
O101 O 0.39211 0.67101 0.20734 0.0
Cd102 Cd 0.39004 0.77005 0.10856 0.0
O103 O 0.4655 0.51695 0.1485 0.0
Cd104 Cd 0.49816 0.33822 0.13379 0.0
O105 O 0.39195 0.18038 0.11642 0.0
C106 C 0.33468 0.14476 0.05826 0.0
O107 O 0.35339 0.19597 1.00558 0.0
C108 C 0.4275 0.57143 0.20522 0.0
C109 C 0.62881 0.84414 0.08367 0.0
O110 O 0.56831 0.89207 0.13544 0.0
O111 O 0.57676 0.7606 1.04235 0.0
loop_
_geom_bond_atom_site_label_1
_geom_bond_atom_site_label_2
_geom_bond_distance
_geom_bond_site_symmetry_2
_ccdc_geom_bond_type
C0 O16 1.251 . S
C0 O18 1.254 1_554 S
N1 C2 1.333 1_455 S
N1 C6 1.307 . S
N1 Zn7 2.020 . S
C2 N1 1.333 1_655 S
C2 C3 1.379 . S
C2 H20 0.952 1_545 S
C3 C2 1.379 . S
C3 C4 1.386 1_655 S
C3 H30 0.949 . S
C4 C3 1.386 1_455 S
C4 C5 1.362 . S
C5 C4 1.362 . S
C5 C6 1.370 . S
C5 H31 0.950 . S
C6 N1 1.307 . S
C6 C5 1.370 . S
C6 H24 0.948 . S
Zn7 N1 2.020 . S
Zn7 O16 2.039 1_445 S
Zn7 O22 2.034 1_455 S
Zn7 O26 2.025 . S
Zn7 O28 2.024 1_545 S
C8 O27 1.246 1_554 S
C8 O28 1.249 . S
N9 C10 1.307 . S
N9 C11 1.333 1_665 S
N9 Zn15 2.020 1_565 S
C10 N9 1.307 . S
C10 C14 1.370 . S
C10 H21 0.948 . S
C11 N9 1.333 1_445 S
C11 C12 1.379 . S
C11 H19 0.952 . S
C12 C11 1.379 . S
C12 C13 1.390 1_545 S
C12 H32 0.949 . S
C13 C12 1.390 1_565 S
C13 C14 1.357 1_455 S
C14 C10 1.370 . S
C14 C13 1.357 1_655 S
C14 H33 0.950 . S
Zn15 N9 2.020 1_545 S
Zn15 O18 2.025 1_545 S
Zn15 O23 2.024 . S
Zn15 O25 2.039 1_655 S
Zn15 O27 2.034 1_645 S
O16 C0 1.251 . S
O16 Zn7 2.039 1_665 S
C17 O22 1.246 . S
C17 O23 1.249 1_554 S
O18 C0 1.254 1_556 S
O18 Zn15 2.025 1_565 S
H19 C11 0.952 . S
H20 C2 0.952 1_565 S
H21 C10 0.948 . S
O22 Zn7 2.034 1_655 S
O22 C17 1.246 . S
O23 Zn15 2.024 . S
O23 C17 1.249 1_556 S
H24 C6 0.948 . S
O25 Zn15 2.039 1_455 S
O25 C29 1.251 1_556 S
O26 Zn7 2.025 . S
O26 C29 1.254 . S
O27 C8 1.246 1_556 S
O27 Zn15 2.034 1_465 S
O28 Zn7 2.024 1_565 S
O28 C8 1.249 . S
C29 O25 1.251 1_554 S
C29 O26 1.254 . S
H30 C3 0.949 . S
H31 C5 0.950 . S
H32 C12 0.949 . S
H33 C14 0.950 . S
C34 O50 1.251 . S
C34 O52 1.254 . S
N35 C36 1.333 . S
N35 C40 1.307 . S
N35 Zn41 2.020 . S
C36 N35 1.333 . S
C36 C37 1.379 . S
C36 H54 0.952 . S
C37 C36 1.379 . S
C37 C38 1.390 . S
C37 H64 0.949 . S
C38 C37 1.390 . S
C38 C39 1.357 . S
C39 C38 1.357 . S
C39 C40 1.370 . S
C39 H65 0.950 . S
C40 N35 1.307 . S
C40 C39 1.370 . S
C40 H58 0.948 . S
Zn41 N35 2.020 . S
Zn41 O50 2.039 . S
Zn41 O56 2.034 . S
Zn41 O60 2.025 . S
Zn41 O62 2.024 . S
C42 O61 1.246 . S
C42 O62 1.249 . S
N43 C44 1.307 . S
N43 C45 1.333 . S
N43 Zn49 2.020 . S
C44 N43 1.307 . S
C44 C48 1.370 . S
C44 H55 0.948 . S
C45 N43 1.333 . S
C45 C46 1.379 . S
C45 H53 0.952 . S
C46 C45 1.379 . S
C46 C47 1.390 . S
C46 H66 0.949 . S
C47 C46 1.390 . S
C47 C48 1.357 . S
C48 C44 1.370 . S
C48 C47 1.357 . S
C48 H67 0.950 . S
Zn49 N43 2.020 . S
Zn49 O52 2.025 . S
Zn49 O57 2.024 . S
Zn49 O59 2.039 . S
Zn49 O61 2.034 . S
O50 C34 1.251 . S
O50 Zn41 2.039 . S
C51 O56 1.246 . S
C51 O57 1.249 . S
O52 C34 1.254 . S
O52 Zn49 2.025 . S
H53 C45 0.952 . S
H54 C36 0.952 . S
H55 C44 0.948 . S
O56 Zn41 2.034 . S
O56 C51 1.246 . S
O57 Zn49 2.024 . S
O57 C51 1.249 . S
H58 C40 0.948 . S
O59 Zn49 2.039 . S
O59 C63 1.251 . S
O60 Zn41 2.025 . S
O60 C63 1.254 . S
O61 C42 1.246 . S
O61 Zn49 2.034 . S
O62 Zn41 2.024 . S
O62 C42 1.249 . S
C63 O59 1.251 . S
C63 O60 1.254 . S
H64 C37 0.949 . S
H65 C39 0.950 . S
H66 C46 0.949 . S
H67 C48 0.950 . S
O68 Cd69 2.300 1_565 S
O68 C75 1.275 1_565 S
Cd69 O68 2.300 1_545 S
Cd69 O77 2.381 1_545 S
Cd69 O78 2.378 1_545 S
O70 Cd71 2.385 . S
O70 C75 1.255 . S
Cd71 O70 2.385 . S
Cd71 O72 2.317 1_455 S
O72 Cd71 2.317 1_655 S
O72 C73 1.232 . S
C73 O72 1.232 . S
C73 O74 1.218 . S
O74 C73 1.218 . S
C75 O68 1.275 1_545 S
C75 O70 1.255 . S
C76 O77 1.258 . S
C76 O78 1.256 . S
O77 Cd69 2.381 1_565 S
O77 C76 1.258 . S
O78 Cd69 2.378 1_565 S
O78 C76 1.256 . S
O79 Cd80 2.300 . S
O79 C86 1.275 1_545 S
Cd80 O79 2.300 . S
Cd80 O88 2.381 . S
Cd80 O89 2.378 . S
O81 Cd82 2.385 . S
O81 C86 1.255 . S
Cd82 O81 2.385 . S
Cd82 O83 2.317 1_455 S
O83 Cd82 2.317 1_655 S
O83 C84 1.232 . S
C84 O83 1.232 . S
C84 O85 1.218 . S
O85 C84 1.218 . S
C86 O79 1.275 1_565 S
C86 O81 1.255 . S
C87 O88 1.258 . S
C87 O89 1.256 . S
O88 Cd80 2.381 . S
O88 C87 1.258 . S
O89 Cd80 2.378 . S
O89 C87 1.256 . S
O90 Cd91 2.300 . S
O90 C97 1.275 . S
Cd91 O90 2.300 . S
Cd91 O99 2.381 . S
Cd91 O100 2.378 1_556 S
O92 Cd93 2.385 . S
O92 C97 1.255 . S
Cd93 O92 2.385 . S
Cd93 O94 2.317 1_556 S
O94 Cd93 2.317 1_554 S
O94 C95 1.232 . S
C95 O94 1.232 . S
C95 O96 1.218 1_554 S
O96 C95 1.218 1_556 S
C97 O90 1.275 . S
C97 O92 1.255 . S
C98 O99 1.258 1_554 S
C98 O100 1.256 . S
O99 Cd91 2.381 . S
O99 C98 1.258 1_556 S
O100 Cd91 2.378 1_554 S
O100 C98 1.256 . S
O101 Cd102 2.300 . S
O101 C108 1.275 . S
Cd102 O101 2.300 . S
Cd102 O110 2.381 . S
Cd102 O111 2.378 1_554 S
O103 Cd104 2.385 . S
O103 C108 1.255 . S
Cd104 O103 2.385 . S
Cd104 O105 2.317 1_554 S
O105 Cd104 2.317 1_556 S
O105 C106 1.232 1_556 S
C106 O105 1.232 1_554 S
C106 O107 1.218 . S
O107 C106 1.218 . S
C108 O101 1.275 . S
C108 O103 1.255 . S
C109 O110 1.258 1_556 S
C109 O111 1.256 . S
O110 Cd102 2.381 . S
O110 C109 1.258 1_554 S
O111 Cd102 2.378 1_556 S
O111 C109 1.256 . S
C106 C29 1.451 . S
C8 C95 1.317 . S
C0 C109 1.589 1_554 S
C17 C98 1.593 . S
C63 C84 1.451 . S
C42 C73 1.317 . S
C87 C34 1.588 . S
C76 C51 1.593 . S
C4 C75 1.445 . S
C13 C86 1.447 . S
C97 C38 1.445 . S
C47 C108 1.447 . S
