# Generated by pormake.
# Topology bcu-b, (8,8)-cn, num edge types: 1
# Building blocks:
#     Node 0, Type 0, BuildingBlock: VETTIZ_charged_sbu_0, # of connection points: 8
#     Node 1, Type 1, BuildingBlock: TAGTUT_clean_sbu_1, # of connection points: 8
#     Edge 2, Type (0, 1), BuildingBlock: XIVTED_clean_linker_0, # of connection points: 2
#     Edge 3, Type (0, 1), BuildingBlock: XIVTED_clean_linker_0, # of connection points: 2
#     Edge 4, Type (0, 1), BuildingBlock: XIVTED_clean_linker_0, # of connection points: 2
#     Edge 5, Type (0, 1), BuildingBlock: XIVTED_clean_linker_0, # of connection points: 2
#     Edge 6, Type (0, 1), BuildingBlock: XIVTED_clean_linker_0, # of connection points: 2
#     Edge 7, Type (0, 1), BuildingBlock: XIVTED_clean_linker_0, # of connection points: 2
#     Edge 8, Type (0, 1), BuildingBlock: XIVTED_clean_linker_0, # of connection points: 2
#     Edge 9, Type (0, 1), BuildingBlock: XIVTED_clean_linker_0, # of connection points: 2
# Relax obj value: 0.027
# Max RMSD: 0.119
# Mean RMSD: 0.086
data_MOF--net-bcu-b--node1-VETTIZ_charged_sbu_0--node2-TAGTUT_clean_sbu_1--edge1-XIVTED_clean_linker_0
_symmetry_space_group_name_H-M    P1
_symmetry_Int_Tables_number       1
_symmetry_cell_setting            triclinic
loop_
_symmetry_equiv_pos_as_xyz
'x, y, z'
_cell_length_a     19.896208
_cell_length_b     19.563672
_cell_length_c     20.528243
_cell_angle_alpha  88.684368
_cell_angle_beta   92.018026
_cell_angle_gamma 99.16605
loop_
_atom_site_label
_atom_site_type_symbol
_atom_site_fract_x
_atom_site_fract_y
_atom_site_fract_z
_atom_type_partial_charge
Fe0 Fe 0.9857 0.91784 0.98952 0.0
O1 O 0.95385 0.98769 0.04547 0.0
Fe2 Fe 0.05939 0.02076 0.86219 0.0
Fe3 Fe 0.94467 0.973 0.14003 0.0
O4 O 0.04712 0.00054 0.95496 0.0
O5 O 0.04975 0.00752 0.95668 0.0
O6 O 0.95649 0.99511 0.0472 0.0
Fe7 Fe 0.02011 0.07737 0.01427 0.0
C8 C 0.86473 0.84835 0.07311 0.0
O9 O 0.06109 0.90342 0.05702 0.0
O10 O 1.00021 0.89129 0.14637 0.0
O11 O 0.09312 0.15402 0.97069 0.0
O12 O 0.13947 0.09356 0.89287 0.0
O13 O 0.10787 0.9355 0.87058 0.0
O14 O 0.03019 0.85611 0.92588 0.0
O15 O 0.03013 0.03936 0.16966 0.0
O16 O 0.09459 0.06339 0.08303 0.0
C17 C 0.08299 0.87301 0.88954 0.0
O18 O 0.9463 0.09724 0.94767 0.0
O19 O 1.00071 0.09956 0.85411 0.0
O20 O 0.91389 0.8404 0.03461 0.0
O21 O 0.86385 0.90214 0.10854 0.0
C22 C 0.052 0.8814 0.11515 0.0
C23 C 0.08649 0.06359 0.14424 0.0
C24 C 0.92481 0.12247 0.11568 0.0
O25 O 0.89857 0.06001 0.13359 0.0
O26 O 0.97784 0.13895 0.0796 0.0
C27 C 0.14064 0.14607 0.93046 0.0
O28 O 0.97515 0.95235 0.83324 0.0
O29 O 0.9106 0.92747 0.91992 0.0
C30 C 0.9524 0.11418 0.88784 0.0
C31 C 0.91887 0.92773 0.85867 0.0
C32 C 0.31463 0.64233 0.56394 0.0
C33 C 0.37001 0.62239 0.36549 0.0
C34 C 0.40247 0.35858 0.4463 0.0
Mg35 Mg 0.45254 0.65137 0.49417 0.0
O36 O 0.43537 0.55821 0.51866 0.0
Mg37 Mg 0.34791 0.50138 0.48823 0.0
Mg38 Mg 0.50191 0.49611 0.50186 0.0
O39 O 0.56819 0.43409 0.48485 0.0
Mg40 Mg 0.55013 0.34044 0.50601 0.0
Mg41 Mg 0.65532 0.48949 0.51762 0.0
C42 C 0.60044 0.63356 0.55649 0.0
C43 C 0.602 0.56425 0.3866 0.0
O44 O 0.29454 0.58141 0.54125 0.0
O45 O 0.37333 0.67717 0.55227 0.0
O46 O 0.34231 0.56569 0.39255 0.0
O47 O 0.41968 0.66179 0.39333 0.0
O48 O 0.55798 0.67177 0.53293 0.0
O49 O 0.58719 0.56689 0.55703 0.0
C50 C 0.40351 0.42766 0.61835 0.0
O51 O 0.46489 0.43872 0.59861 0.0
O52 O 0.35414 0.44465 0.58368 0.0
O53 O 0.70952 0.40973 0.46479 0.0
O54 O 0.63005 0.31538 0.44902 0.0
O55 O 0.65837 0.42299 0.6138 0.0
C56 C 0.68951 0.34977 0.44 0.0
O57 O 0.58026 0.32756 0.60611 0.0
O58 O 0.4451 0.31973 0.46785 0.0
C59 C 0.62884 0.36497 0.63727 0.0
O60 O 0.41603 0.42514 0.44723 0.0
O61 O 0.54012 0.55343 0.40524 0.0
O62 O 0.65073 0.54703 0.42216 0.0
H63 H 0.17896 0.17812 0.11262 0.0
H64 H 0.32487 0.23605 0.47698 0.0
H65 H 0.10928 0.04303 0.27388 0.0
H66 H 0.34709 0.39932 0.33097 0.0
H67 H 0.24764 0.16325 0.40263 0.0
H68 H 0.24851 0.25622 0.18965 0.0
C69 C 0.1795 0.16416 0.164 0.0
C70 C 0.13864 0.1039 0.18699 0.0
C71 C 0.26837 0.21539 0.38708 0.0
C72 C 0.21648 0.19339 0.2751 0.0
C73 C 0.31188 0.25714 0.42977 0.0
C74 C 0.34201 0.32372 0.41005 0.0
C75 C 0.25603 0.23983 0.32365 0.0
C76 C 0.32421 0.34847 0.34817 0.0
C77 C 0.21822 0.20925 0.20797 0.0
C78 C 0.14013 0.08895 0.25415 0.0
N79 N 0.28319 0.30599 0.30656 0.0
N80 N 0.17833 0.13334 0.29577 0.0
H81 H 0.79171 0.13334 0.11324 0.0
H82 H 0.81863 0.40539 0.39998 0.0
H83 H 0.98792 0.23255 0.18647 0.0
H84 H 0.65593 0.23355 0.36825 0.0
H85 H 0.87915 0.36495 0.30922 0.0
H86 H 0.73679 0.19999 0.18842 0.0
C87 C 0.82308 0.1709 0.14398 0.0
C88 C 0.89408 0.17752 0.14428 0.0
C89 C 0.83022 0.33649 0.32265 0.0
C90 C 0.83205 0.25163 0.23209 0.0
C91 C 0.79593 0.35905 0.37458 0.0
C92 C 0.732 0.32286 0.39195 0.0
C93 C 0.79948 0.27842 0.28752 0.0
C94 C 0.7049 0.26338 0.35702 0.0
C95 C 0.79189 0.20826 0.18736 0.0
C96 C 0.93283 0.22658 0.18496 0.0
N97 N 0.73847 0.24354 0.30639 0.0
N98 N 0.90122 0.26116 0.22852 0.0
H99 H 0.8717 0.70981 0.08778 0.0
H100 H 0.55031 0.66648 0.3139 0.0
H101 H 0.73214 0.85693 0.09217 0.0
H102 H 0.69517 0.52456 0.30966 0.0
H103 H 0.59902 0.7228 0.21374 0.0
H104 H 0.78987 0.62611 0.14694 0.0
C105 C 0.82277 0.7235 0.09895 0.0
C106 C 0.80905 0.79058 0.08608 0.0
C107 C 0.61923 0.67849 0.2342 0.0
C108 C 0.71622 0.69645 0.15566 0.0
C109 C 0.59129 0.64641 0.29119 0.0
C110 C 0.61993 0.59208 0.3208 0.0
C111 C 0.67569 0.65553 0.20694 0.0
C112 C 0.67276 0.5676 0.28927 0.0
C113 C 0.77629 0.67612 0.13353 0.0
C114 C 0.74502 0.8059 0.10223 0.0
N115 N 0.69939 0.59993 0.23473 0.0
N116 N 0.70163 0.75987 0.13741 0.0
H117 H 0.02783 0.77944 0.20861 0.0
H118 H 0.40856 0.74086 0.29124 0.0
H119 H 0.18758 0.88795 0.09082 0.0
H120 H 0.24348 0.57076 0.31498 0.0
H121 H 0.33241 0.80113 0.22225 0.0
H122 H 0.10904 0.70963 0.25723 0.0
C123 C 0.08006 0.78876 0.19318 0.0
C124 C 0.101 0.83964 0.1457 0.0
C125 C 0.31352 0.75001 0.24169 0.0
C126 C 0.19429 0.76023 0.20143 0.0
C127 C 0.35701 0.71536 0.28078 0.0
C128 C 0.33245 0.65078 0.30979 0.0
C129 C 0.24477 0.72055 0.23279 0.0
C130 C 0.26494 0.62052 0.2943 0.0
C131 C 0.12621 0.74851 0.22049 0.0
C132 C 0.16931 0.84908 0.12717 0.0
N133 N 0.22318 0.65626 0.2582 0.0
N134 N 0.21381 0.81033 0.15564 0.0
H135 H 0.21701 0.86632 0.88848 0.0
H136 H 0.18681 0.58715 0.60734 0.0
H137 H 0.02088 0.75946 0.82282 0.0
H138 H 0.34973 0.75984 0.63377 0.0
H139 H 0.12826 0.62906 0.69861 0.0
H140 H 0.2717 0.79968 0.81313 0.0
C141 C 0.18569 0.82713 0.8594 0.0
C142 C 0.11465 0.81832 0.86129 0.0
C143 C 0.17679 0.65741 0.68394 0.0
C144 C 0.17634 0.74405 0.77321 0.0
C145 C 0.20997 0.634 0.63171 0.0
C146 C 0.27335 0.67003 0.61261 0.0
C147 C 0.20803 0.71627 0.71767 0.0
C148 C 0.30109 0.73016 0.64629 0.0
C149 C 0.21672 0.78976 0.81588 0.0
C150 C 0.076 0.76718 0.82268 0.0
N151 N 0.26854 0.75091 0.69724 0.0
N152 N 0.10738 0.73254 0.77897 0.0
H153 H 0.27406 0.13434 0.92527 0.0
H154 H 0.46164 0.32992 0.69123 0.0
H155 H 0.13675 0.28339 0.90579 0.0
H156 H 0.30742 0.46145 0.69552 0.0
H157 H 0.4173 0.27218 0.79132 0.0
H158 H 0.35959 0.2131 0.86766 0.0
C159 C 0.26298 0.18504 0.91057 0.0
C160 C 0.1981 0.20222 0.91957 0.0
C161 C 0.39329 0.31408 0.77128 0.0
C162 C 0.29483 0.29222 0.85028 0.0
C163 C 0.41915 0.34723 0.71395 0.0
C164 C 0.38693 0.39898 0.68415 0.0
C165 C 0.33495 0.33335 0.79871 0.0
C166 C 0.33256 0.42021 0.71586 0.0
C167 C 0.31172 0.22998 0.87661 0.0
C168 C 0.18616 0.26821 0.89985 0.0
N169 N 0.30793 0.38687 0.77065 0.0
N170 N 0.23351 0.31015 0.86481 0.0
H171 H 0.89114 0.09374 0.76755 0.0
H172 H 0.72691 0.42548 0.72612 0.0
H173 H 0.89718 0.22072 0.93724 0.0
H174 H 0.61211 0.22772 0.67123 0.0
H175 H 0.8027 0.36412 0.79506 0.0
H176 H 0.80353 0.15545 0.71741 0.0
C177 C 0.87435 0.13497 0.79392 0.0
C178 C 0.90124 0.15236 0.85643 0.0
C179 C 0.75994 0.33466 0.76875 0.0
C180 C 0.80241 0.22349 0.79923 0.0
C181 C 0.71649 0.36949 0.72973 0.0
C182 C 0.66308 0.3319 0.69234 0.0
C183 C 0.75099 0.26204 0.76864 0.0
C184 C 0.65245 0.2592 0.69885 0.0
C185 C 0.82419 0.16967 0.76563 0.0
C186 C 0.87737 0.20581 0.88894 0.0
N187 N 0.69702 0.22671 0.73473 0.0
N188 N 0.82986 0.24034 0.85958 0.0
H189 H 0.891 0.95632 0.73159 0.0
H190 H 0.6615 0.58843 0.66752 0.0
H191 H 0.83122 0.80843 0.88618 0.0
H192 H 0.67121 0.76183 0.53265 0.0
H193 H 0.73871 0.66126 0.74311 0.0
H194 H 0.82067 0.88058 0.65433 0.0
C195 C 0.86204 0.9083 0.74938 0.0
C196 C 0.86639 0.88879 0.81536 0.0
C197 C 0.72452 0.68295 0.69658 0.0
C198 C 0.78748 0.80078 0.72688 0.0
C199 C 0.68144 0.64116 0.65303 0.0
C200 C 0.65992 0.66933 0.59387 0.0
C201 C 0.74663 0.75289 0.68027 0.0
C202 C 0.68642 0.73823 0.5779 0.0
C203 C 0.82233 0.86487 0.70522 0.0
C204 C 0.82836 0.82579 0.83583 0.0
N205 N 0.72805 0.77772 0.62097 0.0
N206 N 0.79092 0.78356 0.79154 0.0
loop_
_geom_bond_atom_site_label_1
_geom_bond_atom_site_label_2
_geom_bond_distance
_geom_bond_site_symmetry_2
_ccdc_geom_bond_type
Fe0 O1 1.895 . S
Fe0 O4 1.706 1_554 S
Fe0 O9 2.085 1_655 S
Fe0 O14 1.928 1_654 S
Fe0 O20 2.086 . S
Fe0 O29 1.928 1_554 S
O1 Fe0 1.895 . S
O1 Fe3 1.715 1_665 S
Fe2 O4 1.886 . S
Fe2 O5 1.715 1_665 S
Fe2 O12 1.935 1_665 S
Fe2 O13 2.077 1_655 S
Fe2 O19 1.935 1_565 S
Fe2 O28 2.077 . S
Fe3 O1 1.715 1_445 S
Fe3 O6 1.886 . S
Fe3 O10 1.935 1_545 S
Fe3 O15 2.077 . S
Fe3 O21 1.935 1_445 S
Fe3 O25 2.077 1_455 S
O4 Fe0 1.706 1_556 S
O4 Fe2 1.886 . S
O5 Fe2 1.715 1_445 S
O5 Fe7 1.892 . S
O6 Fe3 1.886 . S
O6 Fe7 1.709 1_554 S
Fe7 O5 1.892 . S
Fe7 O6 1.709 1_556 S
Fe7 O11 2.083 . S
Fe7 O16 1.931 1_556 S
Fe7 O18 2.082 1_455 S
Fe7 O26 1.930 1_456 S
C8 O20 1.381 . S
C8 O21 1.421 . S
O9 Fe0 2.085 1_455 S
O9 C22 1.381 . S
O10 Fe3 1.935 1_565 S
O10 C22 1.421 . S
O11 Fe7 2.083 . S
O11 C27 1.381 . S
O12 Fe2 1.935 1_445 S
O12 C27 1.421 . S
O13 Fe2 2.077 1_455 S
O13 C17 1.381 . S
O14 Fe0 1.928 1_456 S
O14 C17 1.421 . S
O15 Fe3 2.077 . S
O15 C23 1.381 . S
O16 Fe7 1.931 1_554 S
O16 C23 1.421 . S
C17 O13 1.381 . S
C17 O14 1.421 . S
O18 Fe7 2.082 1_655 S
O18 C30 1.381 . S
O19 Fe2 1.935 1_545 S
O19 C30 1.421 . S
O20 Fe0 2.086 . S
O20 C8 1.381 . S
O21 Fe3 1.935 1_665 S
O21 C8 1.421 . S
C22 O9 1.381 . S
C22 O10 1.421 . S
C23 O15 1.381 . S
C23 O16 1.421 . S
C24 O25 1.381 . S
C24 O26 1.421 . S
O25 Fe3 2.077 1_655 S
O25 C24 1.381 . S
O26 Fe7 1.930 1_654 S
O26 C24 1.421 . S
C27 O11 1.381 . S
C27 O12 1.421 . S
O28 Fe2 2.077 . S
O28 C31 1.381 . S
O29 Fe0 1.928 1_556 S
O29 C31 1.421 . S
C30 O18 1.381 . S
C30 O19 1.421 . S
C31 O28 1.381 . S
C31 O29 1.421 . S
C32 O44 1.241 . S
C32 O45 1.280 . S
C33 O46 1.277 . S
C33 O47 1.245 . S
C34 O58 1.247 . S
C34 O60 1.289 . S
Mg35 O36 1.926 . S
Mg35 O45 1.984 . S
Mg35 O47 1.988 . S
Mg35 O48 2.061 . S
O36 Mg35 1.926 . S
O36 Mg37 1.986 . S
O36 Mg38 1.917 . S
Mg37 O36 1.986 . S
Mg37 O44 2.042 . S
Mg37 O46 2.041 . S
Mg37 O52 2.038 . S
Mg37 O60 2.238 . S
Mg38 O36 1.917 . S
Mg38 O39 1.917 . S
Mg38 O49 2.106 . S
Mg38 O51 2.079 . S
Mg38 O60 2.106 . S
Mg38 O61 2.079 . S
O39 Mg38 1.917 . S
O39 Mg40 1.926 . S
O39 Mg41 1.986 . S
Mg40 O39 1.926 . S
Mg40 O54 1.984 . S
Mg40 O57 1.988 . S
Mg40 O58 2.061 . S
Mg41 O39 1.986 . S
Mg41 O49 2.238 . S
Mg41 O53 2.042 . S
Mg41 O55 2.041 . S
Mg41 O62 2.038 . S
C42 O48 1.247 . S
C42 O49 1.289 . S
C43 O61 1.245 . S
C43 O62 1.274 . S
O44 C32 1.241 . S
O44 Mg37 2.042 . S
O45 C32 1.280 . S
O45 Mg35 1.984 . S
O46 C33 1.277 . S
O46 Mg37 2.041 . S
O47 C33 1.245 . S
O47 Mg35 1.988 . S
O48 Mg35 2.061 . S
O48 C42 1.247 . S
O49 Mg38 2.106 . S
O49 Mg41 2.238 . S
O49 C42 1.289 . S
C50 O51 1.245 . S
C50 O52 1.274 . S
O51 Mg38 2.079 . S
O51 C50 1.245 . S
O52 Mg37 2.038 . S
O52 C50 1.274 . S
O53 Mg41 2.042 . S
O53 C56 1.241 . S
O54 Mg40 1.984 . S
O54 C56 1.280 . S
O55 Mg41 2.041 . S
O55 C59 1.277 . S
C56 O53 1.241 . S
C56 O54 1.280 . S
O57 Mg40 1.988 . S
O57 C59 1.245 . S
O58 C34 1.247 . S
O58 Mg40 2.061 . S
C59 O55 1.277 . S
C59 O57 1.245 . S
O60 C34 1.289 . S
O60 Mg37 2.238 . S
O60 Mg38 2.106 . S
O61 Mg38 2.079 . S
O61 C43 1.245 . S
O62 Mg41 2.038 . S
O62 C43 1.274 . S
H63 C69 0.930 . S
H64 C73 0.930 . S
H65 C78 0.929 . S
H66 C76 0.929 . S
H67 C71 0.929 . S
H68 C77 0.929 . S
C69 H63 0.930 . S
C69 C70 1.367 . S
C69 C77 1.378 . S
C70 C69 1.367 . S
C70 C78 1.433 . S
C71 H67 0.929 . S
C71 C73 1.378 . S
C71 C75 1.350 . S
C72 C75 1.463 . S
C72 C77 1.350 . S
C72 N80 1.427 . S
C73 H64 0.930 . S
C73 C71 1.378 . S
C73 C74 1.367 . S
C74 C73 1.367 . S
C74 C76 1.433 . S
C75 C71 1.350 . S
C75 C72 1.463 . S
C75 N79 1.427 . S
C76 H66 0.929 . S
C76 C74 1.433 . S
C76 N79 1.384 . S
C77 H68 0.929 . S
C77 C69 1.378 . S
C77 C72 1.350 . S
C78 H65 0.929 . S
C78 C70 1.433 . S
C78 N80 1.384 . S
N79 C75 1.427 . S
N79 C76 1.384 . S
N80 C72 1.427 . S
N80 C78 1.384 . S
H81 C87 0.930 . S
H82 C91 0.930 . S
H83 C96 0.929 . S
H84 C94 0.929 . S
H85 C89 0.929 . S
H86 C95 0.929 . S
C87 H81 0.930 . S
C87 C88 1.367 . S
C87 C95 1.378 . S
C88 C87 1.367 . S
C88 C96 1.433 . S
C89 H85 0.929 . S
C89 C91 1.378 . S
C89 C93 1.350 . S
C90 C93 1.463 . S
C90 C95 1.350 . S
C90 N98 1.427 . S
C91 H82 0.930 . S
C91 C89 1.378 . S
C91 C92 1.367 . S
C92 C91 1.367 . S
C92 C94 1.433 . S
C93 C89 1.350 . S
C93 C90 1.463 . S
C93 N97 1.427 . S
C94 H84 0.929 . S
C94 C92 1.433 . S
C94 N97 1.384 . S
C95 H86 0.929 . S
C95 C87 1.378 . S
C95 C90 1.350 . S
C96 H83 0.929 . S
C96 C88 1.433 . S
C96 N98 1.384 . S
N97 C93 1.427 . S
N97 C94 1.384 . S
N98 C90 1.427 . S
N98 C96 1.384 . S
H99 C105 0.930 . S
H100 C109 0.930 . S
H101 C114 0.929 . S
H102 C112 0.929 . S
H103 C107 0.929 . S
H104 C113 0.929 . S
C105 H99 0.930 . S
C105 C106 1.367 . S
C105 C113 1.378 . S
C106 C105 1.367 . S
C106 C114 1.433 . S
C107 H103 0.929 . S
C107 C109 1.378 . S
C107 C111 1.350 . S
C108 C111 1.463 . S
C108 C113 1.350 . S
C108 N116 1.427 . S
C109 H100 0.930 . S
C109 C107 1.378 . S
C109 C110 1.367 . S
C110 C109 1.367 . S
C110 C112 1.433 . S
C111 C107 1.350 . S
C111 C108 1.463 . S
C111 N115 1.427 . S
C112 H102 0.929 . S
C112 C110 1.433 . S
C112 N115 1.384 . S
C113 H104 0.929 . S
C113 C105 1.378 . S
C113 C108 1.350 . S
C114 H101 0.929 . S
C114 C106 1.433 . S
C114 N116 1.384 . S
N115 C111 1.427 . S
N115 C112 1.384 . S
N116 C108 1.427 . S
N116 C114 1.384 . S
H117 C123 0.930 . S
H118 C127 0.930 . S
H119 C132 0.929 . S
H120 C130 0.929 . S
H121 C125 0.929 . S
H122 C131 0.929 . S
C123 H117 0.930 . S
C123 C124 1.367 . S
C123 C131 1.378 . S
C124 C123 1.367 . S
C124 C132 1.433 . S
C125 H121 0.929 . S
C125 C127 1.378 . S
C125 C129 1.350 . S
C126 C129 1.463 . S
C126 C131 1.350 . S
C126 N134 1.427 . S
C127 H118 0.930 . S
C127 C125 1.378 . S
C127 C128 1.367 . S
C128 C127 1.367 . S
C128 C130 1.433 . S
C129 C125 1.350 . S
C129 C126 1.463 . S
C129 N133 1.427 . S
C130 H120 0.929 . S
C130 C128 1.433 . S
C130 N133 1.384 . S
C131 H122 0.929 . S
C131 C123 1.378 . S
C131 C126 1.350 . S
C132 H119 0.929 . S
C132 C124 1.433 . S
C132 N134 1.384 . S
N133 C129 1.427 . S
N133 C130 1.384 . S
N134 C126 1.427 . S
N134 C132 1.384 . S
H135 C141 0.930 . S
H136 C145 0.930 . S
H137 C150 0.929 . S
H138 C148 0.929 . S
H139 C143 0.929 . S
H140 C149 0.929 . S
C141 H135 0.930 . S
C141 C142 1.367 . S
C141 C149 1.378 . S
C142 C141 1.367 . S
C142 C150 1.433 . S
C143 H139 0.929 . S
C143 C145 1.378 . S
C143 C147 1.350 . S
C144 C147 1.463 . S
C144 C149 1.350 . S
C144 N152 1.427 . S
C145 H136 0.930 . S
C145 C143 1.378 . S
C145 C146 1.367 . S
C146 C145 1.367 . S
C146 C148 1.433 . S
C147 C143 1.350 . S
C147 C144 1.463 . S
C147 N151 1.427 . S
C148 H138 0.929 . S
C148 C146 1.433 . S
C148 N151 1.384 . S
C149 H140 0.929 . S
C149 C141 1.378 . S
C149 C144 1.350 . S
C150 H137 0.929 . S
C150 C142 1.433 . S
C150 N152 1.384 . S
N151 C147 1.427 . S
N151 C148 1.384 . S
N152 C144 1.427 . S
N152 C150 1.384 . S
H153 C159 0.930 . S
H154 C163 0.930 . S
H155 C168 0.929 . S
H156 C166 0.929 . S
H157 C161 0.929 . S
H158 C167 0.929 . S
C159 H153 0.930 . S
C159 C160 1.367 . S
C159 C167 1.378 . S
C160 C159 1.367 . S
C160 C168 1.433 . S
C161 H157 0.929 . S
C161 C163 1.378 . S
C161 C165 1.350 . S
C162 C165 1.463 . S
C162 C167 1.350 . S
C162 N170 1.427 . S
C163 H154 0.930 . S
C163 C161 1.378 . S
C163 C164 1.367 . S
C164 C163 1.367 . S
C164 C166 1.433 . S
C165 C161 1.350 . S
C165 C162 1.463 . S
C165 N169 1.427 . S
C166 H156 0.929 . S
C166 C164 1.433 . S
C166 N169 1.384 . S
C167 H158 0.929 . S
C167 C159 1.378 . S
C167 C162 1.350 . S
C168 H155 0.929 . S
C168 C160 1.433 . S
C168 N170 1.384 . S
N169 C165 1.427 . S
N169 C166 1.384 . S
N170 C162 1.427 . S
N170 C168 1.384 . S
H171 C177 0.930 . S
H172 C181 0.930 . S
H173 C186 0.929 . S
H174 C184 0.929 . S
H175 C179 0.929 . S
H176 C185 0.929 . S
C177 H171 0.930 . S
C177 C178 1.367 . S
C177 C185 1.378 . S
C178 C177 1.367 . S
C178 C186 1.433 . S
C179 H175 0.929 . S
C179 C181 1.378 . S
C179 C183 1.350 . S
C180 C183 1.463 . S
C180 C185 1.350 . S
C180 N188 1.427 . S
C181 H172 0.930 . S
C181 C179 1.378 . S
C181 C182 1.367 . S
C182 C181 1.367 . S
C182 C184 1.433 . S
C183 C179 1.350 . S
C183 C180 1.463 . S
C183 N187 1.427 . S
C184 H174 0.929 . S
C184 C182 1.433 . S
C184 N187 1.384 . S
C185 H176 0.929 . S
C185 C177 1.378 . S
C185 C180 1.350 . S
C186 H173 0.929 . S
C186 C178 1.433 . S
C186 N188 1.384 . S
N187 C183 1.427 . S
N187 C184 1.384 . S
N188 C180 1.427 . S
N188 C186 1.384 . S
H189 C195 0.930 . S
H190 C199 0.930 . S
H191 C204 0.929 . S
H192 C202 0.929 . S
H193 C197 0.929 . S
H194 C203 0.929 . S
C195 H189 0.930 . S
C195 C196 1.367 . S
C195 C203 1.378 . S
C196 C195 1.367 . S
C196 C204 1.433 . S
C197 H193 0.929 . S
C197 C199 1.378 . S
C197 C201 1.350 . S
C198 C201 1.463 . S
C198 C203 1.350 . S
C198 N206 1.427 . S
C199 H190 0.930 . S
C199 C197 1.378 . S
C199 C200 1.367 . S
C200 C199 1.367 . S
C200 C202 1.433 . S
C201 C197 1.350 . S
C201 C198 1.463 . S
C201 N205 1.427 . S
C202 H192 0.929 . S
C202 C200 1.433 . S
C202 N205 1.384 . S
C203 H194 0.929 . S
C203 C195 1.378 . S
C203 C198 1.350 . S
C204 H191 0.929 . S
C204 C196 1.433 . S
C204 N206 1.384 . S
N205 C201 1.427 . S
N205 C202 1.384 . S
N206 C198 1.427 . S
N206 C204 1.384 . S
C70 C23 1.176 . S
C74 C34 1.166 . S
C88 C24 1.519 . S
C92 C56 1.527 . S
C106 C8 1.502 . S
C110 C43 1.499 . S
C124 C22 1.589 . S
C128 C33 1.597 . S
C142 C17 1.520 . S
C146 C32 1.527 . S
C164 C50 1.487 . S
C160 C27 1.510 . S
C178 C30 1.593 . S
C182 C59 1.602 . S
C200 C42 1.187 . S
C196 C31 1.189 . S
