# Generated by pormake.
# Topology nia, (6,6)-cn, num edge types: 1
# Building blocks:
#     Node 0, Type 0, BuildingBlock: CUKXOW_clean_sbu_0, # of connection points: 6
#     Node 1, Type 0, BuildingBlock: CUKXOW_clean_sbu_0, # of connection points: 6
#     Node 2, Type 1, BuildingBlock: MIDCAF_clean_sbu_0, # of connection points: 6
#     Node 3, Type 1, BuildingBlock: MIDCAF_clean_sbu_0, # of connection points: 6
#     Edge 4, Type (0, 1), BuildingBlock: AJUNOK_clean_linker_0, # of connection points: 2
#     Edge 5, Type (0, 1), BuildingBlock: AJUNOK_clean_linker_0, # of connection points: 2
#     Edge 6, Type (0, 1), BuildingBlock: AJUNOK_clean_linker_0, # of connection points: 2
#     Edge 7, Type (0, 1), BuildingBlock: AJUNOK_clean_linker_0, # of connection points: 2
#     Edge 8, Type (0, 1), BuildingBlock: AJUNOK_clean_linker_0, # of connection points: 2
#     Edge 9, Type (0, 1), BuildingBlock: AJUNOK_clean_linker_0, # of connection points: 2
#     Edge 10, Type (0, 1), BuildingBlock: AJUNOK_clean_linker_0, # of connection points: 2
#     Edge 11, Type (0, 1), BuildingBlock: AJUNOK_clean_linker_0, # of connection points: 2
#     Edge 12, Type (0, 1), BuildingBlock: AJUNOK_clean_linker_0, # of connection points: 2
#     Edge 13, Type (0, 1), BuildingBlock: AJUNOK_clean_linker_0, # of connection points: 2
#     Edge 14, Type (0, 1), BuildingBlock: AJUNOK_clean_linker_0, # of connection points: 2
#     Edge 15, Type (0, 1), BuildingBlock: AJUNOK_clean_linker_0, # of connection points: 2
# Relax obj value: 0.206
# Max RMSD: 0.253
# Mean RMSD: 0.212
data_MOF--net-nia--node1-CUKXOW_clean_sbu_0--node2-MIDCAF_clean_sbu_0--edge1-AJUNOK_clean_linker_0
_symmetry_space_group_name_H-M    P1
_symmetry_Int_Tables_number       1
_symmetry_cell_setting            triclinic
loop_
_symmetry_equiv_pos_as_xyz
'x, y, z'
_cell_length_a     18.677316
_cell_length_b     18.62146
_cell_length_c     20.859105
_cell_angle_alpha  85.097994
_cell_angle_beta   85.381481
_cell_angle_gamma 123.34633
loop_
_atom_site_label
_atom_site_type_symbol
_atom_site_fract_x
_atom_site_fract_y
_atom_site_fract_z
_atom_type_partial_charge
Tb0 Tb 0.00997 0.07911 0.10712 0.0
C1 C 0.13233 0.07014 0.99985 0.0
Tb2 Tb 0.94315 0.91553 1.04985 0.0
O3 O 0.11104 0.0743 0.14592 0.0
O4 O -0.00561 0.95784 0.13784 0.0
O5 O 0.11024 0.1211 1.02256 0.0
C6 C 0.8821 0.76027 1.01302 0.0
O7 O 0.07964 -0.01535 1.01295 0.0
C8 C 0.93232 0.03719 0.98224 0.0
C9 C 0.81979 0.91691 0.16213 0.0
O10 O 0.9498 0.80244 1.0418 0.0
O11 O 0.84728 0.80402 1.00751 0.0
O12 O 0.94711 -0.01529 0.95672 0.0
O13 O 0.92166 0.01627 1.04264 0.0
O14 O 0.83489 0.86841 0.12761 0.0
O15 O 0.87759 0.00172 0.15925 0.0
C16 C 0.04566 0.22726 0.1436 0.0
O17 O 0.02159 0.15741 0.18301 0.0
O18 O 0.04804 0.21295 0.0838 0.0
C19 C 0.07026 -0.00934 0.15157 0.0
Tb20 Tb 0.89149 0.95808 0.55482 0.0
C21 C 0.88951 0.8347 0.66502 0.0
Tb22 Tb 0.05584 0.02288 0.6066 0.0
O23 O 0.89418 0.85232 0.52167 0.0
O24 O 0.01084 -0.02694 0.51991 0.0
O25 O 0.84111 0.85732 0.6387 0.0
C26 C 0.19625 0.05225 0.65461 0.0
O27 O -0.02452 0.88639 0.65351 0.0
C28 C -0.03019 0.08516 0.65215 0.0
C29 C 0.05466 0.14751 0.49793 0.0
O30 O 0.1338 0.05322 0.68506 0.0
O31 O 0.18002 0.0347 0.59644 0.0
O32 O 0.05354 0.12827 0.64113 0.0
O33 O 0.93693 0.008 0.64136 0.0
O34 O 0.10484 0.12722 0.5245 0.0
O35 O -0.03099 0.09388 0.50902 0.0
C36 C 0.75069 0.92357 0.50497 0.0
O37 O 0.81457 0.92381 0.47591 0.0
O38 O 0.76617 0.94417 0.56262 0.0
C39 C -0.0222 0.89568 0.50951 0.0
Zn40 Zn 0.30868 0.74152 0.2115 0.0
Zn41 Zn 0.23716 0.66094 0.4527 0.0
Zn42 Zn 0.27201 0.69625 0.32915 0.0
C43 C 0.4136 0.77458 0.42627 0.0
C44 C 0.18834 0.50569 0.40889 0.0
O45 O 0.21493 0.77033 0.29684 0.0
O46 O 0.28619 0.83144 0.19714 0.0
C47 C 0.46274 0.7874 0.24492 0.0
O48 O 0.39567 0.75817 0.36866 0.0
O49 O 0.35359 0.74661 0.47346 0.0
O50 O 0.20207 0.53886 0.46048 0.0
O51 O 0.20321 0.55238 0.35384 0.0
O52 O 0.42841 0.77607 0.19403 0.0
O53 O 0.41658 0.7685 0.30095 0.0
O54 O 0.20867 0.57402 0.28621 0.0
O55 O 0.22499 0.63043 0.18454 0.0
C56 C 0.1955 0.5644 0.22684 0.0
O57 O 0.19746 0.75028 0.36619 0.0
O58 O 0.14851 0.68612 0.46876 0.0
C59 C 0.23246 0.82145 0.24353 0.0
C60 C 0.15182 0.7355 0.42161 0.0
Zn61 Zn 0.6532 0.25176 0.95278 0.0
Zn62 Zn 0.70876 0.32014 0.70531 0.0
Zn63 Zn 0.67556 0.28563 0.82856 0.0
C64 C 0.75586 0.47502 0.74563 0.0
C65 C 0.53146 0.19886 0.73547 0.0
O66 O 0.73723 0.21525 0.85817 0.0
O67 O 0.68508 0.16655 0.96273 0.0
C68 C 0.75691 0.42979 0.92481 0.0
O69 O 0.7421 0.42899 0.8007 0.0
O70 O 0.74111 0.44102 0.69443 0.0
O71 O 0.59195 0.23075 0.68804 0.0
O72 O 0.54894 0.2167 0.79291 0.0
O73 O 0.73746 0.3708 0.97101 0.0
O74 O 0.7357 0.41019 0.86837 0.0
O75 O 0.53291 0.21217 0.86079 0.0
O76 O 0.52971 0.21311 0.96694 0.0
C77 C 0.49101 0.19739 0.9179 0.0
O78 O 0.75074 0.23329 0.78927 0.0
O79 O 0.79856 0.29729 0.68659 0.0
C80 C 0.72957 0.17031 0.9121 0.0
C81 C 0.79555 0.24778 0.73346 0.0
C82 C 0.19752 -0.01112 0.17083 0.0
C83 C 0.1068 0.94459 0.17974 0.0
C84 C 0.23749 0.95022 0.19611 0.0
C85 C 0.18851 0.86613 0.23229 0.0
H86 H 0.23827 0.0534 0.14236 0.0
H87 H 0.3075 -0.01454 0.18533 0.0
S88 S 0.94905 0.72566 0.27519 0.0
N89 N -0.03126 0.81441 0.23094 0.0
N90 N 0.04458 0.74133 0.27946 0.0
C91 C 0.09778 0.8224 0.24453 0.0
C92 C 0.05664 0.86157 0.2177 0.0
C93 C 0.29933 0.12635 0.73202 0.0
C94 C 0.27736 0.07864 0.6798 0.0
C95 C 0.38061 0.16196 0.75201 0.0
C96 C 0.44154 0.14887 0.72176 0.0
H97 H 0.25517 0.14005 0.75557 0.0
H98 H 0.39736 0.20361 0.78907 0.0
S99 S 0.41148 0.02023 0.58777 0.0
N100 N 0.32027 0.01508 0.60115 0.0
N101 N 0.4721 0.07932 0.64029 0.0
C102 C 0.41849 0.09738 0.67175 0.0
C103 C 0.33641 0.06257 0.65055 0.0
C104 C 0.05766 0.31973 0.22774 0.0
C105 C 0.07867 0.31296 0.16322 0.0
C106 C 0.09411 0.40138 0.24802 0.0
C107 C 0.15382 0.47844 0.20491 0.0
H108 H 0.01295 0.26167 0.26276 0.0
H109 H 0.07509 0.40438 0.29739 0.0
S110 S 0.23282 0.49477 1.03129 0.0
N111 N 0.16307 0.38955 1.05647 0.0
N112 N 0.23361 0.54224 0.09471 0.0
C113 C 0.17494 0.47207 0.14009 0.0
C114 C 0.13691 0.38943 0.11928 0.0
C115 C -0.03611 0.21336 0.66109 0.0
C116 C 0.92322 0.123 0.67645 0.0
C117 C 0.92327 0.2534 0.68238 0.0
C118 C 0.84126 0.20499 0.7212 0.0
H119 H 0.02695 0.25343 0.63088 0.0
H120 H 0.95579 0.32281 0.66737 0.0
S121 S 0.70923 -0.03301 0.77815 0.0
N122 N 0.79765 -0.01376 0.73459 0.0
N123 N 0.72134 0.06209 0.77571 0.0
C124 C 0.80076 0.11485 0.73874 0.0
C125 C 0.84166 0.07361 0.71593 0.0
C126 C 0.66265 0.79698 0.18314 0.0
C127 C 0.73056 0.87752 0.19686 0.0
C128 C 0.57598 0.76635 0.20274 0.0
C129 C 0.55345 0.81397 0.23785 0.0
H130 H 0.67594 0.75943 0.1535 0.0
H131 H 0.52593 0.7064 0.18785 0.0
S132 S 0.70474 0.02151 0.2952 0.0
N133 N 0.76847 -0.0005 0.25473 0.0
N134 N 0.60436 0.94095 0.29106 0.0
C135 C 0.61974 0.89116 0.25623 0.0
C136 C 0.70863 0.92301 0.23601 0.0
C137 C 0.89766 0.72004 0.73025 0.0
C138 C 0.84767 0.74438 0.69961 0.0
C139 C 0.86521 0.6321 0.75068 0.0
C140 C 0.7821 0.56591 0.74062 0.0
H141 H -0.03603 0.76886 0.73547 0.0
H142 H 0.90727 0.61572 0.77043 0.0
S143 S 0.62002 0.59339 0.67251 0.0
N144 N 0.70607 0.69357 0.66834 0.0
N145 N 0.64691 0.52925 0.70536 0.0
C146 C 0.72929 0.58914 0.71477 0.0
C147 C 0.76148 0.67821 0.69481 0.0
C148 C -0.01773 0.76777 0.49444 0.0
C149 C 0.02389 0.85854 0.48234 0.0
C150 C 0.02267 0.72836 0.47119 0.0
C151 C 0.10551 0.77783 0.43356 0.0
H152 H 0.91873 0.72677 0.52389 0.0
H153 H -0.01041 0.65856 0.48419 0.0
S154 S 0.23978 0.01727 0.3839 0.0
N155 N 0.15101 -0.00315 0.42775 0.0
N156 N 0.2267 0.92211 0.38277 0.0
C157 C 0.14663 0.86837 0.41861 0.0
C158 C 0.10598 0.90897 0.44352 0.0
C159 C 0.29046 0.1896 0.97931 0.0
C160 C 0.22233 0.10816 0.96728 0.0
C161 C 0.37733 0.21923 0.96036 0.0
C162 C 0.39951 0.16941 0.92774 0.0
H163 H 0.27693 0.2287 1.00681 0.0
H164 H 0.42776 0.28061 0.9732 0.0
S165 S 0.24673 0.95578 0.8789 0.0
N166 N 0.18368 -0.01886 0.91583 0.0
N167 N 0.34735 0.03729 0.88119 0.0
C168 C 0.33264 0.09015 0.9124 0.0
C169 C 0.24396 0.05956 0.93179 0.0
C170 C 0.03701 0.26209 0.44596 0.0
C171 C 0.09279 0.23655 0.46205 0.0
C172 C 0.06903 0.34915 0.42356 0.0
C173 C 0.15814 0.41364 0.41428 0.0
H174 H -0.03268 0.21562 0.45439 0.0
H175 H 0.02338 0.3668 0.41681 0.0
S176 S 0.33301 0.3822 0.44276 0.0
N177 N 0.24295 0.28375 0.46252 0.0
N178 N 0.30248 0.44711 0.41923 0.0
C179 C 0.21515 0.38895 0.4263 0.0
C180 C 0.18273 0.30042 0.45003 0.0
C181 C 0.91447 0.13866 0.90811 0.0
C182 C 0.87798 0.06282 0.9539 0.0
C183 C 0.86428 0.1704 0.89029 0.0
C184 C 0.77648 0.12721 0.91806 0.0
H185 H -0.01709 0.17596 0.88867 0.0
H186 H 0.89574 0.23178 0.85795 0.0
S187 S 0.64833 0.91912 1.03274 0.0
N188 N 0.747 0.94029 1.02058 0.0
N189 N 0.65356 -0.0002 0.98786 0.0
C190 C 0.73843 0.04822 0.96033 0.0
C191 C 0.78899 0.01604 0.97807 0.0
C192 C 0.6131 0.91553 0.50327 0.0
C193 C 0.66859 0.89174 0.47983 0.0
C194 C 0.5317 0.88003 0.48331 0.0
C195 C 0.50326 0.81924 0.43978 0.0
H196 H 0.63221 0.9609 0.5378 0.0
H197 H 0.48996 0.89885 0.5031 0.0
S198 S 0.6209 0.72904 0.37004 0.0
N199 N 0.68859 0.80172 0.41263 0.0
N200 N 0.53367 0.73154 0.37836 0.0
C201 C 0.55785 0.79442 0.41658 0.0
C202 C 0.64124 0.83176 0.43574 0.0
C203 C 0.88862 0.63129 1.00268 0.0
C204 C 0.85292 0.67881 0.98656 0.0
C205 C 0.85982 0.55232 0.97995 0.0
C206 C 0.79566 0.51909 0.93922 0.0
H207 H 0.93765 0.65411 1.03437 0.0
H208 H 0.88677 0.51609 0.99536 0.0
S209 S 0.68257 0.61932 0.88181 0.0
N210 N 0.75129 0.68798 0.92616 0.0
N211 N 0.69693 0.53926 0.88403 0.0
C212 C 0.76103 0.56701 0.92138 0.0
C213 C 0.78972 0.647 0.94495 0.0
loop_
_geom_bond_atom_site_label_1
_geom_bond_atom_site_label_2
_geom_bond_distance
_geom_bond_site_symmetry_2
_ccdc_geom_bond_type
Tb0 O3 2.453 1_545 S
Tb0 O4 2.596 1_545 S
Tb0 O5 2.374 1_554 S
Tb0 O13 2.335 1_454 S
Tb0 O15 2.353 1_445 S
Tb0 O17 2.427 . S
Tb0 O18 2.513 . S
C1 O5 1.251 . S
C1 O7 1.263 . S
Tb2 O4 2.343 1_656 S
Tb2 O7 2.353 1_665 S
Tb2 O10 2.427 . S
Tb2 O11 2.513 . S
Tb2 O12 2.453 1_565 S
Tb2 O13 2.592 1_565 S
Tb2 O14 2.374 1_556 S
O3 Tb0 2.453 1_565 S
O3 C19 1.245 . S
O4 Tb0 2.596 1_565 S
O4 Tb2 2.343 1_454 S
O4 C19 1.259 . S
O5 Tb0 2.374 1_556 S
O5 C1 1.251 . S
C6 O10 1.275 . S
C6 O11 1.246 . S
O7 C1 1.263 . S
O7 Tb2 2.353 1_445 S
C8 O12 1.245 . S
C8 O13 1.269 . S
C9 O14 1.250 . S
C9 O15 1.263 . S
O10 Tb2 2.427 . S
O10 C6 1.275 . S
O11 Tb2 2.513 . S
O11 C6 1.246 . S
O12 Tb2 2.453 1_545 S
O12 C8 1.245 . S
O13 Tb0 2.335 1_656 S
O13 Tb2 2.592 1_545 S
O13 C8 1.269 . S
O14 Tb2 2.374 1_554 S
O14 C9 1.250 . S
O15 Tb0 2.353 1_665 S
O15 C9 1.263 . S
C16 O17 1.275 . S
C16 O18 1.246 . S
O17 Tb0 2.427 . S
O17 C16 1.275 . S
O18 Tb0 2.513 . S
O18 C16 1.246 . S
C19 O3 1.245 . S
C19 O4 1.259 . S
Tb20 O23 2.453 1_655 S
Tb20 O24 2.596 1_665 S
Tb20 O25 2.374 . S
Tb20 O33 2.343 1_565 S
Tb20 O35 2.353 1_665 S
Tb20 O37 2.427 1_565 S
Tb20 O38 2.513 . S
C21 O25 1.251 . S
C21 O27 1.263 . S
Tb22 O24 2.343 . S
Tb22 O27 2.353 1_445 S
Tb22 O30 2.427 . S
Tb22 O31 2.513 . S
Tb22 O32 2.453 1_455 S
Tb22 O33 2.596 1_455 S
Tb22 O34 2.374 . S
O23 Tb20 2.453 1_455 S
O23 C39 1.245 . S
O24 Tb20 2.596 1_445 S
O24 Tb22 2.343 . S
O24 C39 1.259 1_545 S
O25 Tb20 2.374 . S
O25 C21 1.251 . S
C26 O30 1.275 . S
C26 O31 1.246 . S
O27 C21 1.263 . S
O27 Tb22 2.353 1_665 S
C28 O32 1.245 . S
C28 O33 1.259 . S
C29 O34 1.250 . S
C29 O35 1.263 . S
O30 Tb22 2.427 . S
O30 C26 1.275 . S
O31 Tb22 2.513 . S
O31 C26 1.246 . S
O32 Tb22 2.453 1_655 S
O32 C28 1.245 . S
O33 Tb20 2.343 1_545 S
O33 Tb22 2.596 1_655 S
O33 C28 1.259 . S
O34 Tb22 2.374 . S
O34 C29 1.250 . S
O35 Tb20 2.353 1_445 S
O35 C29 1.263 . S
C36 O37 1.275 1_565 S
C36 O38 1.246 . S
O37 Tb20 2.427 1_545 S
O37 C36 1.275 1_545 S
O38 Tb20 2.513 . S
O38 C36 1.246 . S
C39 O23 1.245 . S
C39 O24 1.259 1_565 S
Zn40 O46 1.920 . S
Zn40 O52 1.898 . S
Zn40 O55 1.905 . S
Zn41 O49 1.905 . S
Zn41 O50 1.898 . S
Zn41 O58 1.920 . S
Zn42 O45 2.080 . S
Zn42 O48 2.114 . S
Zn42 O51 2.120 . S
Zn42 O53 2.120 . S
Zn42 O54 2.114 . S
Zn42 O57 2.080 . S
C43 O48 1.166 . S
C43 O49 1.182 . S
C44 O50 1.167 . S
C44 O51 1.299 . S
O45 Zn42 2.080 . S
O45 C59 1.305 . S
O46 Zn40 1.920 . S
O46 C59 1.234 . S
C47 O52 1.167 . S
C47 O53 1.299 . S
O48 Zn42 2.114 . S
O48 C43 1.166 . S
O49 Zn41 1.905 . S
O49 C43 1.182 . S
O50 Zn41 1.898 . S
O50 C44 1.167 . S
O51 Zn42 2.120 . S
O51 C44 1.299 . S
O52 Zn40 1.898 . S
O52 C47 1.167 . S
O53 Zn42 2.120 . S
O53 C47 1.299 . S
O54 Zn42 2.114 . S
O54 C56 1.166 . S
O55 Zn40 1.905 . S
O55 C56 1.182 . S
C56 O54 1.166 . S
C56 O55 1.182 . S
O57 Zn42 2.080 . S
O57 C60 1.305 . S
O58 Zn41 1.920 . S
O58 C60 1.234 . S
C59 O45 1.305 . S
C59 O46 1.234 . S
C60 O57 1.305 . S
C60 O58 1.234 . S
Zn61 O67 1.920 . S
Zn61 O73 1.898 . S
Zn61 O76 1.905 . S
Zn62 O70 1.905 . S
Zn62 O71 1.898 . S
Zn62 O79 1.920 . S
Zn63 O66 2.080 . S
Zn63 O69 2.114 . S
Zn63 O72 2.120 . S
Zn63 O74 2.120 . S
Zn63 O75 2.114 . S
Zn63 O78 2.080 . S
C64 O69 1.166 . S
C64 O70 1.182 . S
C65 O71 1.167 . S
C65 O72 1.299 . S
O66 Zn63 2.080 . S
O66 C80 1.305 . S
O67 Zn61 1.920 . S
O67 C80 1.234 . S
C68 O73 1.167 . S
C68 O74 1.299 . S
O69 Zn63 2.114 . S
O69 C64 1.166 . S
O70 Zn62 1.905 . S
O70 C64 1.182 . S
O71 Zn62 1.898 . S
O71 C65 1.167 . S
O72 Zn63 2.120 . S
O72 C65 1.299 . S
O73 Zn61 1.898 . S
O73 C68 1.167 . S
O74 Zn63 2.120 . S
O74 C68 1.299 . S
O75 Zn63 2.114 . S
O75 C77 1.166 . S
O76 Zn61 1.905 . S
O76 C77 1.182 . S
C77 O75 1.166 . S
C77 O76 1.182 . S
O78 Zn63 2.080 . S
O78 C81 1.305 . S
O79 Zn62 1.920 . S
O79 C81 1.234 . S
C80 O66 1.305 . S
C80 O67 1.234 . S
C81 O78 1.305 . S
C81 O79 1.234 . S
C82 C83 1.369 . S
C82 C84 1.419 . S
C82 H86 0.930 . S
C83 C82 1.369 . S
C83 C92 1.429 . S
C84 C82 1.419 . S
C84 C85 1.363 . S
C84 H87 0.929 . S
C85 C84 1.363 . S
C85 C91 1.428 . S
H86 C82 0.930 . S
H87 C84 0.929 . S
S88 N89 1.613 1_655 S
S88 N90 1.610 1_655 S
N89 S88 1.613 1_455 S
N89 C92 1.350 . S
N90 S88 1.610 1_455 S
N90 C91 1.351 . S
C91 C85 1.428 . S
C91 N90 1.351 . S
C91 C92 1.434 . S
C92 C83 1.429 . S
C92 N89 1.350 . S
C92 C91 1.434 . S
C93 C94 1.369 . S
C93 C95 1.419 . S
C93 H97 0.930 . S
C94 C93 1.369 . S
C94 C103 1.429 . S
C95 C93 1.419 . S
C95 C96 1.363 . S
C95 H98 0.929 . S
C96 C95 1.363 . S
C96 C102 1.428 . S
H97 C93 0.930 . S
H98 C95 0.929 . S
S99 N100 1.613 . S
S99 N101 1.610 . S
N100 S99 1.613 . S
N100 C103 1.350 . S
N101 S99 1.610 . S
N101 C102 1.351 . S
C102 C96 1.428 . S
C102 N101 1.351 . S
C102 C103 1.434 . S
C103 C94 1.429 . S
C103 N100 1.350 . S
C103 C102 1.434 . S
C104 C105 1.369 . S
C104 C106 1.419 . S
C104 H108 0.930 . S
C105 C104 1.369 . S
C105 C114 1.429 . S
C106 C104 1.419 . S
C106 C107 1.363 . S
C106 H109 0.929 . S
C107 C106 1.363 . S
C107 C113 1.428 . S
H108 C104 0.930 . S
H109 C106 0.929 . S
S110 N111 1.613 . S
S110 N112 1.610 . S
N111 S110 1.613 . S
N111 C114 1.350 . S
N112 S110 1.610 . S
N112 C113 1.351 . S
C113 C107 1.428 . S
C113 N112 1.351 . S
C113 C114 1.434 . S
C114 C105 1.429 . S
C114 N111 1.350 . S
C114 C113 1.434 . S
C115 C116 1.369 . S
C115 C117 1.419 . S
C115 H119 0.930 . S
C116 C115 1.369 . S
C116 C125 1.429 . S
C117 C115 1.419 . S
C117 C118 1.363 . S
C117 H120 0.929 . S
C118 C117 1.363 . S
C118 C124 1.428 . S
H119 C115 0.930 . S
H120 C117 0.929 . S
S121 N122 1.613 . S
S121 N123 1.610 . S
N122 S121 1.613 . S
N122 C125 1.350 . S
N123 S121 1.610 . S
N123 C124 1.351 . S
C124 C118 1.428 . S
C124 N123 1.351 . S
C124 C125 1.434 . S
C125 C116 1.429 . S
C125 N122 1.350 . S
C125 C124 1.434 . S
C126 C127 1.369 . S
C126 C128 1.419 . S
C126 H130 0.930 . S
C127 C126 1.369 . S
C127 C136 1.429 . S
C128 C126 1.419 . S
C128 C129 1.363 . S
C128 H131 0.929 . S
C129 C128 1.363 . S
C129 C135 1.428 . S
H130 C126 0.930 . S
H131 C128 0.929 . S
S132 N133 1.613 . S
S132 N134 1.610 . S
N133 S132 1.613 . S
N133 C136 1.350 . S
N134 S132 1.610 . S
N134 C135 1.351 . S
C135 C129 1.428 . S
C135 N134 1.351 . S
C135 C136 1.434 . S
C136 C127 1.429 . S
C136 N133 1.350 . S
C136 C135 1.434 . S
C137 C138 1.369 . S
C137 C139 1.419 . S
C137 H141 0.930 . S
C138 C137 1.369 . S
C138 C147 1.429 . S
C139 C137 1.419 . S
C139 C140 1.363 . S
C139 H142 0.929 . S
C140 C139 1.363 . S
C140 C146 1.428 . S
H141 C137 0.930 . S
H142 C139 0.929 . S
S143 N144 1.613 . S
S143 N145 1.610 . S
N144 S143 1.613 . S
N144 C147 1.350 . S
N145 S143 1.610 . S
N145 C146 1.351 . S
C146 C140 1.428 . S
C146 N145 1.351 . S
C146 C147 1.434 . S
C147 C138 1.429 . S
C147 N144 1.350 . S
C147 C146 1.434 . S
C148 C149 1.369 . S
C148 C150 1.419 . S
C148 H152 0.930 . S
C149 C148 1.369 . S
C149 C158 1.429 . S
C150 C148 1.419 . S
C150 C151 1.363 . S
C150 H153 0.929 . S
C151 C150 1.363 . S
C151 C157 1.428 . S
H152 C148 0.930 . S
H153 C150 0.929 . S
S154 N155 1.613 . S
S154 N156 1.610 1_545 S
N155 S154 1.613 . S
N155 C158 1.350 1_545 S
N156 S154 1.610 1_565 S
N156 C157 1.351 . S
C157 C151 1.428 . S
C157 N156 1.351 . S
C157 C158 1.434 . S
C158 C149 1.429 . S
C158 N155 1.350 1_565 S
C158 C157 1.434 . S
C159 C160 1.369 . S
C159 C161 1.419 . S
C159 H163 0.930 . S
C160 C159 1.369 . S
C160 C169 1.429 . S
C161 C159 1.419 . S
C161 C162 1.363 . S
C161 H164 0.929 . S
C162 C161 1.363 . S
C162 C168 1.428 . S
H163 C159 0.930 . S
H164 C161 0.929 . S
S165 N166 1.613 . S
S165 N167 1.610 1_554 S
N166 S165 1.613 . S
N166 C169 1.350 1_554 S
N167 S165 1.610 1_556 S
N167 C168 1.351 . S
C168 C162 1.428 . S
C168 N167 1.351 . S
C168 C169 1.434 . S
C169 C160 1.429 . S
C169 N166 1.350 1_556 S
C169 C168 1.434 . S
C170 C171 1.369 . S
C170 C172 1.419 . S
C170 H174 0.930 . S
C171 C170 1.369 . S
C171 C180 1.429 . S
C172 C170 1.419 . S
C172 C173 1.363 . S
C172 H175 0.929 . S
C173 C172 1.363 . S
C173 C179 1.428 . S
H174 C170 0.930 . S
H175 C172 0.929 . S
S176 N177 1.613 . S
S176 N178 1.610 . S
N177 S176 1.613 . S
N177 C180 1.350 . S
N178 S176 1.610 . S
N178 C179 1.351 . S
C179 C173 1.428 . S
C179 N178 1.351 . S
C179 C180 1.434 . S
C180 C171 1.429 . S
C180 N177 1.350 . S
C180 C179 1.434 . S
C181 C182 1.369 . S
C181 C183 1.419 . S
C181 H185 0.930 . S
C182 C181 1.369 . S
C182 C191 1.429 . S
C183 C181 1.419 . S
C183 C184 1.363 . S
C183 H186 0.929 . S
C184 C183 1.363 . S
C184 C190 1.428 . S
H185 C181 0.930 . S
H186 C183 0.929 . S
S187 N188 1.613 1_565 S
S187 N189 1.610 1_565 S
N188 S187 1.613 1_545 S
N188 C191 1.350 . S
N189 S187 1.610 1_545 S
N189 C190 1.351 . S
C190 C184 1.428 . S
C190 N189 1.351 . S
C190 C191 1.434 . S
C191 C182 1.429 . S
C191 N188 1.350 . S
C191 C190 1.434 . S
C192 C193 1.369 . S
C192 C194 1.419 . S
C192 H196 0.930 . S
C193 C192 1.369 . S
C193 C202 1.429 . S
C194 C192 1.419 . S
C194 C195 1.363 . S
C194 H197 0.929 . S
C195 C194 1.363 . S
C195 C201 1.428 . S
H196 C192 0.930 . S
H197 C194 0.929 . S
S198 N199 1.613 . S
S198 N200 1.610 . S
N199 S198 1.613 . S
N199 C202 1.350 . S
N200 S198 1.610 . S
N200 C201 1.351 . S
C201 C195 1.428 . S
C201 N200 1.351 . S
C201 C202 1.434 . S
C202 C193 1.429 . S
C202 N199 1.350 . S
C202 C201 1.434 . S
C203 C204 1.369 . S
C203 C205 1.419 . S
C203 H207 0.930 1_655 S
C204 C203 1.369 . S
C204 C213 1.429 . S
C205 C203 1.419 . S
C205 C206 1.363 . S
C205 H208 0.929 . S
C206 C205 1.363 . S
C206 C212 1.428 . S
H207 C203 0.930 1_455 S
H208 C205 0.929 . S
S209 N210 1.613 . S
S209 N211 1.610 . S
N210 S209 1.613 . S
N210 C213 1.350 . S
N211 S209 1.610 . S
N211 C212 1.351 . S
C212 C206 1.428 . S
C212 N211 1.351 . S
C212 C213 1.434 . S
C213 C204 1.429 . S
C213 N210 1.350 . S
C213 C212 1.434 . S
C83 C19 1.486 . S
C85 C59 1.453 . S
C94 C26 1.329 . S
C96 C65 1.222 . S
C105 C16 1.260 . S
C107 C56 1.245 . S
C116 C28 1.563 . S
C118 C81 1.540 . S
C127 C9 1.858 . S
C129 C47 1.689 . S
C140 C64 1.583 . S
C138 C21 1.649 . S
C149 C39 1.485 . S
C151 C60 1.452 . S
C162 C77 1.576 . S
C160 C1 1.652 . S
C173 C44 1.681 . S
C171 C29 1.858 . S
C184 C80 1.542 . S
C182 C8 1.559 . S
C195 C43 1.249 . S
C193 C36 1.260 . S
C206 C68 1.221 . S
C204 C6 1.323 . S
