# Generated by pormake.
# Topology pth, (4,4)-cn, num edge types: 1
# Building blocks:
#     Node 0, Type 0, BuildingBlock: CEKHIL_clean_sbu_0, # of connection points: 4
#     Node 1, Type 0, BuildingBlock: CEKHIL_clean_sbu_0, # of connection points: 4
#     Node 2, Type 0, BuildingBlock: CEKHIL_clean_sbu_0, # of connection points: 4
#     Node 3, Type 1, BuildingBlock: MUDLON_clean_sbu_0, # of connection points: 4
#     Node 4, Type 1, BuildingBlock: MUDLON_clean_sbu_0, # of connection points: 4
#     Node 5, Type 1, BuildingBlock: MUDLON_clean_sbu_0, # of connection points: 4
#     Edge 6, Type (0, 1), BuildingBlock: EYOCIG_clean_linker_4, # of connection points: 2
#     Edge 7, Type (0, 1), BuildingBlock: EYOCIG_clean_linker_4, # of connection points: 2
#     Edge 8, Type (0, 1), BuildingBlock: EYOCIG_clean_linker_4, # of connection points: 2
#     Edge 9, Type (0, 1), BuildingBlock: EYOCIG_clean_linker_4, # of connection points: 2
#     Edge 10, Type (0, 1), BuildingBlock: EYOCIG_clean_linker_4, # of connection points: 2
#     Edge 11, Type (0, 1), BuildingBlock: EYOCIG_clean_linker_4, # of connection points: 2
#     Edge 12, Type (0, 1), BuildingBlock: EYOCIG_clean_linker_4, # of connection points: 2
#     Edge 13, Type (0, 1), BuildingBlock: EYOCIG_clean_linker_4, # of connection points: 2
#     Edge 14, Type (0, 1), BuildingBlock: EYOCIG_clean_linker_4, # of connection points: 2
#     Edge 15, Type (0, 1), BuildingBlock: EYOCIG_clean_linker_4, # of connection points: 2
#     Edge 16, Type (0, 1), BuildingBlock: EYOCIG_clean_linker_4, # of connection points: 2
#     Edge 17, Type (0, 1), BuildingBlock: EYOCIG_clean_linker_4, # of connection points: 2
# Relax obj value: 0.014
# Max RMSD: 0.063
# Mean RMSD: 0.051
data_MOF--net-pth--node1-CEKHIL_clean_sbu_0--node2-MUDLON_clean_sbu_0--edge1-EYOCIG_clean_linker_4
_symmetry_space_group_name_H-M    P1
_symmetry_Int_Tables_number       1
_symmetry_cell_setting            triclinic
loop_
_symmetry_equiv_pos_as_xyz
'x, y, z'
_cell_length_a     18.069591
_cell_length_b     18.093108
_cell_length_c     48.296704
_cell_angle_alpha  91.222582
_cell_angle_beta   89.968516
_cell_angle_gamma 120.08621
loop_
_atom_site_label
_atom_site_type_symbol
_atom_site_fract_x
_atom_site_fract_y
_atom_site_fract_z
_atom_type_partial_charge
Co0 Co 0.04233 0.04437 0.09224 0.0
O1 O 0.98562 0.96027 0.12023 0.0
O2 O 0.0986 0.97803 0.09667 0.0
C3 C 0.04666 0.1526 0.11735 0.0
O4 O 0.12068 0.12611 0.06292 0.0
Co5 Co 0.95706 0.13779 0.06551 0.0
O6 O 0.06992 0.21002 0.04853 0.0
C7 C 0.90272 0.9604 0.04823 0.0
C8 C 0.04291 0.93844 0.11586 0.0
C9 C 0.12691 0.18849 0.0488 0.0
O10 O 0.96313 0.96185 0.06273 0.0
O11 O 0.88606 0.02118 0.04806 0.0
O12 O 0.10457 0.13126 0.12094 0.0
O13 O 0.98529 0.10541 0.10021 0.0
Co14 Co 0.05901 0.06843 0.40535 0.0
O15 O 0.00023 0.09304 0.37691 0.0
O16 O 0.11525 0.1904 0.40012 0.0
C17 C 0.06126 0.9616 0.38135 0.0
O18 O 0.13984 0.06852 0.43491 0.0
Co19 Co 0.97552 0.89361 0.43376 0.0
O20 O 0.09005 0.93573 0.45059 0.0
C21 C 0.92291 0.01871 0.44938 0.0
C22 C 0.05793 0.17257 0.38095 0.0
C23 C 0.14728 0.01413 0.44961 0.0
O24 O 0.98247 0.07554 0.43451 0.0
O25 O 0.90577 0.94117 0.45037 0.0
O26 O 0.11877 0.04045 0.37716 0.0
O27 O 0.00111 0.94932 0.39833 0.0
Co28 Co 0.03896 0.02815 0.73962 0.0
O29 O 0.12556 0.08528 0.71215 0.0
O30 O 0.10527 0.97157 0.73497 0.0
C31 C 0.93352 0.02581 0.71421 0.0
O32 O 0.95444 0.94936 0.76837 0.0
Co33 Co 0.94385 0.11326 0.76667 0.0
O34 O 0.87013 0.00054 0.78313 0.0
C35 C 0.12082 0.1679 0.78384 0.0
C36 C 0.14687 0.02787 0.71626 0.0
C37 C 0.89125 0.94328 0.7825 0.0
O38 O 0.11949 0.10643 0.76959 0.0
O39 O 0.06033 0.1851 0.78383 0.0
O40 O 0.95421 0.96729 0.71038 0.0
O41 O 0.9794 0.08615 0.73191 0.0
Mg42 Mg 0.03346 0.54816 0.249 0.0
C43 C 0.01784 0.42933 0.29289 0.0
O44 O 0.93783 0.40916 0.28933 0.0
C45 C 0.01107 0.65216 0.20675 0.0
O46 O 0.93155 0.60014 0.21374 0.0
C47 C 0.00667 0.41655 0.20625 0.0
O48 O 0.92753 0.38988 0.21368 0.0
O49 O 0.06741 0.4831 0.21774 0.0
O50 O 0.07577 0.48782 0.27858 0.0
O51 O 0.07308 0.65041 0.27976 0.0
C52 C 0.01504 0.64891 0.29496 0.0
O53 O 0.93561 0.58706 0.29159 0.0
O54 O 0.07111 0.64677 0.21842 0.0
Mg55 Mg 0.54953 0.0485 0.58304 0.0
C56 C 0.43323 0.03629 0.53849 0.0
O57 O 0.4146 0.95671 0.54095 0.0
C58 C 0.65216 0.02002 0.62393 0.0
O59 O 0.59963 0.94246 0.61436 0.0
C60 C 0.41389 0.00949 0.62461 0.0
O61 O 0.38914 0.93266 0.61445 0.0
O62 O 0.48044 0.07323 0.61527 0.0
O63 O 0.49077 0.09416 0.55399 0.0
O64 O 0.6516 0.08609 0.55333 0.0
C65 C 0.64979 0.02749 0.53794 0.0
O66 O 0.58766 0.94835 0.54046 0.0
O67 O 0.64798 0.08271 0.6144 0.0
Mg68 Mg 0.51665 0.55953 0.91588 0.0
C69 C 0.42146 0.43249 0.87352 0.0
O70 O 0.48424 0.41937 0.88021 0.0
C71 C 0.6471 0.6607 0.95639 0.0
O72 O 0.66623 0.60341 0.94741 0.0
C73 C 0.42577 0.42059 0.95693 0.0
O74 O 0.4794 0.39818 0.94698 0.0
O75 O 0.4262 0.48601 0.94779 0.0
O76 O 0.4157 0.49253 0.88554 0.0
O77 O 0.59182 0.65042 0.88443 0.0
C78 C 0.65038 0.64325 0.87237 0.0
O79 O 0.66453 0.58148 0.879 0.0
O80 O 0.5821 0.66087 0.94645 0.0
C81 C 0.04144 0.26995 0.1493 0.0
C82 C 0.04362 0.21631 0.13467 0.0
C83 C 0.03416 0.32606 0.16837 0.0
C84 C 0.024 0.36894 0.18572 0.0
C85 C 0.82715 0.05333 0.48218 0.0
C86 C 0.87362 0.04303 0.46665 0.0
C87 C 0.769 0.05431 0.50151 0.0
C88 C 0.71664 0.04627 0.51847 0.0
C89 C 0.79971 0.81436 0.81524 0.0
C90 C 0.84421 0.87097 0.79982 0.0
C91 C 0.74679 0.75336 0.83468 0.0
C92 C 0.70242 0.70345 0.85191 0.0
C93 C 0.04482 0.82439 0.14865 0.0
C94 C 0.04708 0.87672 0.13305 0.0
C95 C 0.03858 0.76516 0.16848 0.0
C96 C 0.02911 0.71468 0.18602 0.0
C97 C 0.27997 0.05696 0.48242 0.0
C98 C 0.22186 0.04289 0.46689 0.0
C99 C 0.34065 0.06184 0.50191 0.0
C100 C 0.38581 0.05578 0.51902 0.0
C101 C 0.24892 0.26891 0.81706 0.0
C102 C 0.19306 0.22009 0.80143 0.0
C103 C 0.30914 0.32781 0.83635 0.0
C104 C 0.35908 0.37695 0.8534 0.0
C105 C 0.82048 0.0334 0.68164 0.0
C106 C 0.87226 0.0307 0.69666 0.0
C107 C 0.76302 0.03548 0.66233 0.0
C108 C 0.71397 0.03258 0.64486 0.0
C109 C 0.80447 0.83217 0.01438 0.0
C110 C 0.85192 0.8881 0.03032 0.0
C111 C 0.7477 0.77206 0.99459 0.0
C112 C 0.7003 0.72228 0.97715 0.0
C113 C 0.05455 0.83608 0.3505 0.0
C114 C 0.05711 0.89299 0.36468 0.0
C115 C 0.04647 0.7712 0.33185 0.0
C116 C 0.03472 0.71661 0.31481 0.0
C117 C 0.26318 0.02518 0.68379 0.0
C118 C 0.2098 0.02382 0.69912 0.0
C119 C 0.32042 0.02478 0.66392 0.0
C120 C 0.36491 0.02068 0.64602 0.0
C121 C 0.25571 0.27681 0.01532 0.0
C122 C 0.19904 0.23387 0.03105 0.0
C123 C 0.31665 0.32772 0.99549 0.0
C124 C 0.36625 0.37046 0.97789 0.0
C125 C 0.05707 0.28762 0.34843 0.0
C126 C 0.06004 0.23742 0.36378 0.0
C127 C 0.0496 0.34155 0.32927 0.0
C128 C 0.03842 0.38343 0.31244 0.0
loop_
_geom_bond_atom_site_label_1
_geom_bond_atom_site_label_2
_geom_bond_distance
_geom_bond_site_symmetry_2
_ccdc_geom_bond_type
Co0 O1 2.216 1_445 S
Co0 O2 2.091 1_545 S
Co0 O4 2.004 . S
Co0 O10 2.021 1_445 S
Co0 O12 2.137 . S
Co0 O13 2.244 1_455 S
O1 Co0 2.216 1_665 S
O1 C8 1.247 1_655 S
O2 Co0 2.091 1_565 S
O2 C8 1.261 . S
C3 O12 1.247 . S
C3 O13 1.272 1_455 S
O4 Co0 2.004 . S
O4 C9 1.259 . S
Co5 O6 2.061 1_655 S
Co5 O11 2.052 . S
Co5 O13 2.135 . S
O6 Co5 2.061 1_455 S
O6 C9 1.235 . S
C7 O10 1.238 . S
C7 O11 1.241 1_565 S
C8 O1 1.247 1_455 S
C8 O2 1.261 . S
C9 O4 1.259 . S
C9 O6 1.235 . S
O10 Co0 2.021 1_665 S
O10 C7 1.238 . S
O11 Co5 2.052 . S
O11 C7 1.241 1_545 S
O12 Co0 2.137 . S
O12 C3 1.247 . S
O13 Co0 2.244 1_655 S
O13 C3 1.272 1_655 S
O13 Co5 2.135 . S
Co14 O15 2.216 1_455 S
Co14 O16 2.091 . S
Co14 O18 2.004 . S
Co14 O24 2.024 . S
Co14 O26 2.137 . S
Co14 O27 2.244 1_545 S
O15 Co14 2.216 1_655 S
O15 C22 1.247 1_655 S
O16 Co14 2.091 . S
O16 C22 1.261 . S
C17 O26 1.247 1_565 S
C17 O27 1.277 . S
O18 Co14 2.004 . S
O18 C23 1.259 . S
Co19 O20 2.061 1_655 S
Co19 O25 2.052 . S
Co19 O27 2.135 1_655 S
O20 Co19 2.061 1_455 S
O20 C23 1.235 1_565 S
C21 O24 1.235 1_655 S
C21 O25 1.241 1_545 S
C22 O15 1.247 1_455 S
C22 O16 1.261 . S
C23 O18 1.259 . S
C23 O20 1.235 1_545 S
O24 Co14 2.024 . S
O24 C21 1.235 1_455 S
O25 Co19 2.052 . S
O25 C21 1.241 1_565 S
O26 Co14 2.137 . S
O26 C17 1.247 1_545 S
O27 Co14 2.244 1_565 S
O27 C17 1.277 . S
O27 Co19 2.135 1_455 S
Co28 O29 2.216 . S
Co28 O30 2.091 1_545 S
Co28 O32 2.004 1_445 S
Co28 O38 2.021 . S
Co28 O40 2.137 1_445 S
Co28 O41 2.244 1_455 S
O29 Co28 2.216 . S
O29 C36 1.247 . S
O30 Co28 2.091 1_565 S
O30 C36 1.261 1_565 S
C31 O40 1.247 1_545 S
C31 O41 1.272 . S
O32 Co28 2.004 1_665 S
O32 C37 1.259 . S
Co33 O34 2.061 1_545 S
Co33 O39 2.052 1_655 S
Co33 O41 2.135 . S
O34 Co33 2.061 1_565 S
O34 C37 1.235 . S
C35 O38 1.238 . S
C35 O39 1.241 . S
C36 O29 1.247 . S
C36 O30 1.261 1_545 S
C37 O32 1.259 . S
C37 O34 1.235 . S
O38 Co28 2.021 . S
O38 C35 1.238 . S
O39 Co33 2.052 1_455 S
O39 C35 1.241 . S
O40 Co28 2.137 1_665 S
O40 C31 1.247 1_565 S
O41 Co28 2.244 1_655 S
O41 C31 1.272 . S
O41 Co33 2.135 . S
Mg42 O49 2.141 . S
Mg42 O50 2.048 . S
Mg42 O51 2.048 . S
Mg42 O54 2.141 . S
C43 O44 1.313 1_455 S
C43 O50 1.195 . S
O44 C43 1.313 1_655 S
C45 O46 1.245 1_455 S
C45 O54 1.289 . S
O46 C45 1.245 1_655 S
C47 O48 1.245 1_455 S
C47 O49 1.289 . S
O48 C47 1.245 1_655 S
O49 Mg42 2.141 . S
O49 C47 1.289 . S
O50 Mg42 2.048 . S
O50 C43 1.195 . S
O51 Mg42 2.048 . S
O51 C52 1.195 . S
C52 O51 1.195 . S
C52 O53 1.313 1_455 S
O53 C52 1.313 1_655 S
O54 Mg42 2.141 . S
O54 C45 1.289 . S
Mg55 O62 2.141 . S
Mg55 O63 2.048 . S
Mg55 O64 2.048 . S
Mg55 O67 2.141 . S
C56 O57 1.313 1_545 S
C56 O63 1.195 . S
O57 C56 1.313 1_565 S
C58 O59 1.245 1_545 S
C58 O67 1.289 . S
O59 C58 1.245 1_565 S
C60 O61 1.245 1_545 S
C60 O62 1.289 . S
O61 C60 1.245 1_565 S
O62 Mg55 2.141 . S
O62 C60 1.289 . S
O63 Mg55 2.048 . S
O63 C56 1.195 . S
O64 Mg55 2.048 . S
O64 C65 1.195 . S
C65 O64 1.195 . S
C65 O66 1.313 1_545 S
O66 C65 1.313 1_565 S
O67 Mg55 2.141 . S
O67 C58 1.289 . S
Mg68 O75 2.141 . S
Mg68 O76 2.048 . S
Mg68 O77 2.048 . S
Mg68 O80 2.141 . S
C69 O70 1.313 . S
C69 O76 1.195 . S
O70 C69 1.313 . S
C71 O72 1.245 . S
C71 O80 1.289 . S
O72 C71 1.245 . S
C73 O74 1.245 . S
C73 O75 1.289 . S
O74 C73 1.245 . S
O75 Mg68 2.141 . S
O75 C73 1.289 . S
O76 Mg68 2.048 . S
O76 C69 1.195 . S
O77 Mg68 2.048 . S
O77 C78 1.195 . S
C78 O77 1.195 . S
C78 O79 1.313 . S
O79 C78 1.313 . S
O80 Mg68 2.141 . S
O80 C71 1.289 . S
C81 C82 1.170 . S
C81 C83 1.380 . S
C82 C81 1.170 . S
C83 C81 1.380 . S
C83 C84 1.170 . S
C84 C83 1.170 . S
C85 C86 1.170 . S
C85 C87 1.380 . S
C86 C85 1.170 . S
C87 C85 1.380 . S
C87 C88 1.170 . S
C88 C87 1.170 . S
C89 C90 1.170 . S
C89 C91 1.380 . S
C90 C89 1.170 . S
C91 C89 1.380 . S
C91 C92 1.170 . S
C92 C91 1.170 . S
C93 C94 1.170 . S
C93 C95 1.380 . S
C94 C93 1.170 . S
C95 C93 1.380 . S
C95 C96 1.170 . S
C96 C95 1.170 . S
C97 C98 1.170 . S
C97 C99 1.380 . S
C98 C97 1.170 . S
C99 C97 1.380 . S
C99 C100 1.170 . S
C100 C99 1.170 . S
C101 C102 1.170 . S
C101 C103 1.380 . S
C102 C101 1.170 . S
C103 C101 1.380 . S
C103 C104 1.170 . S
C104 C103 1.170 . S
C105 C106 1.170 . S
C105 C107 1.380 . S
C106 C105 1.170 . S
C107 C105 1.380 . S
C107 C108 1.170 . S
C108 C107 1.170 . S
C109 C110 1.170 . S
C109 C111 1.380 1_554 S
C110 C109 1.170 . S
C111 C109 1.380 1_556 S
C111 C112 1.170 . S
C112 C111 1.170 . S
C113 C114 1.170 . S
C113 C115 1.380 . S
C114 C113 1.170 . S
C115 C113 1.380 . S
C115 C116 1.170 . S
C116 C115 1.170 . S
C117 C118 1.170 . S
C117 C119 1.380 . S
C118 C117 1.170 . S
C119 C117 1.380 . S
C119 C120 1.170 . S
C120 C119 1.170 . S
C121 C122 1.170 . S
C121 C123 1.380 1_554 S
C122 C121 1.170 . S
C123 C121 1.380 1_556 S
C123 C124 1.170 . S
C124 C123 1.170 . S
C125 C126 1.170 . S
C125 C127 1.380 . S
C126 C125 1.170 . S
C127 C125 1.380 . S
C127 C128 1.170 . S
C128 C127 1.170 . S
C84 C47 1.421 . S
C82 C3 1.434 . S
C86 C21 1.500 . S
C88 C65 1.519 . S
C90 C37 1.476 . S
C92 C78 1.492 . S
C94 C8 1.442 . S
C96 C45 1.427 . S
C100 C56 1.490 . S
C98 C23 1.459 . S
C102 C35 1.471 . S
C104 C69 1.499 . S
C108 C58 1.444 . S
C106 C31 1.433 . S
C110 C7 1.421 . S
C112 C71 1.429 . S
C116 C52 1.498 . S
C114 C17 1.493 . S
C120 C60 1.389 . S
C118 C36 1.404 . S
C124 C73 1.420 . S
C122 C9 1.434 . S
C126 C22 1.492 . S
C128 C43 1.497 . S
