# Generated by pormake.
# Topology scu, (8,4)-cn, num edge types: 1
# Building blocks:
#     Node 0, Type 0, BuildingBlock: VETTIZ_charged_sbu_0, # of connection points: 8
#     Node 1, Type 1, BuildingBlock: MUDLON_clean_sbu_0, # of connection points: 4
#     Node 2, Type 1, BuildingBlock: MUDLON_clean_sbu_0, # of connection points: 4
#     Edge 3, Type (0, 1), BuildingBlock: EZIPEK_clean_linker_0, # of connection points: 2
#     Edge 4, Type (0, 1), BuildingBlock: EZIPEK_clean_linker_0, # of connection points: 2
#     Edge 5, Type (0, 1), BuildingBlock: EZIPEK_clean_linker_0, # of connection points: 2
#     Edge 6, Type (0, 1), BuildingBlock: EZIPEK_clean_linker_0, # of connection points: 2
#     Edge 7, Type (0, 1), BuildingBlock: EZIPEK_clean_linker_0, # of connection points: 2
#     Edge 8, Type (0, 1), BuildingBlock: EZIPEK_clean_linker_0, # of connection points: 2
#     Edge 9, Type (0, 1), BuildingBlock: EZIPEK_clean_linker_0, # of connection points: 2
#     Edge 10, Type (0, 1), BuildingBlock: EZIPEK_clean_linker_0, # of connection points: 2
# Relax obj value: 0.036
# Max RMSD: 0.093
# Mean RMSD: 0.083
data_MOF--net-scu--node1-VETTIZ_charged_sbu_0--node2-MUDLON_clean_sbu_0--edge1-EZIPEK_clean_linker_0
_symmetry_space_group_name_H-M    P1
_symmetry_Int_Tables_number       1
_symmetry_cell_setting            triclinic
loop_
_symmetry_equiv_pos_as_xyz
'x, y, z'
_cell_length_a     18.507445
_cell_length_b     18.458831
_cell_length_c     15.525126
_cell_angle_alpha  90.420459
_cell_angle_beta   89.282524
_cell_angle_gamma 86.45219
loop_
_atom_site_label
_atom_site_type_symbol
_atom_site_fract_x
_atom_site_fract_y
_atom_site_fract_z
_atom_type_partial_charge
Fe0 Fe 0.0202 1.02082 0.13233 0.0
O1 O 0.94456 0.04137 0.04358 0.0
Fe2 Fe 0.1517 0.91164 0.02679 0.0
Fe3 Fe 0.88093 0.13154 0.04783 0.0
O4 O 0.08679 0.99986 0.03202 0.0
O5 O 0.0864 1.00003 0.02391 0.0
O6 O 0.94467 0.04269 0.03546 0.0
Fe7 Fe 1.01096 1.02094 0.93458 0.0
C8 C 0.86761 0.04969 0.21523 0.0
O9 O 0.04849 0.12663 0.13244 0.0
O10 O 0.93942 0.18244 0.14246 0.0
O11 O 0.09255 0.99457 0.84042 0.0
O12 O 0.19403 0.9565 0.91747 0.0
O13 O 0.20495 0.96972 0.11816 0.0
O14 O 0.11038 1.00294 0.21179 0.0
O15 O 0.93242 0.18651 0.95096 0.0
O16 O 0.0396 0.12693 0.92864 0.0
C17 C 0.17877 0.99884 0.18964 0.0
O18 O 0.98128 0.91552 0.93415 0.0
O19 O 0.08898 0.85431 0.9426 0.0
O20 O 0.93741 0.04162 0.22536 0.0
O21 O 0.8356 0.07672 0.14781 0.0
C22 C 1.00681 0.17929 0.15865 0.0
C23 C 0.99589 0.18201 0.91769 0.0
C24 C 0.85309 0.06206 0.87413 0.0
O25 O 0.82809 0.08428 0.94874 0.0
O26 O 0.92097 0.0452 0.85467 0.0
C27 C 0.16153 0.97622 0.84717 0.0
O28 O 0.10587 0.8629 0.13131 0.0
O29 O 0.99436 0.9135 0.13985 0.0
C30 C 0.02289 0.85947 0.91905 0.0
C31 C 0.04087 0.86247 0.15807 0.0
Mg32 Mg 0.03745 0.51971 0.53711 0.0
C33 C 0.0718 0.40676 0.3983 0.0
O34 O 0.13755 0.42566 0.41449 0.0
C35 C 0.02488 0.61783 0.69359 0.0
O36 O 0.08653 0.58179 0.70968 0.0
C37 C 0.06686 0.4053 0.67361 0.0
O38 O 0.13366 0.4219 0.65757 0.0
O39 O 1.01489 0.43804 0.63367 0.0
O40 O 1.01836 0.43724 0.43991 0.0
O41 O 0.99518 0.59467 0.43908 0.0
C42 C 0.03842 0.64056 0.41204 0.0
O43 O 0.10391 0.64004 0.44361 0.0
O44 O 0.9907 0.60296 0.62579 0.0
Mg45 Mg 0.50874 0.03572 0.52504 0.0
C46 C 0.41438 0.08266 0.38095 0.0
O47 O 0.46198 0.03652 0.34363 0.0
C48 C 0.58896 0.0654 0.68683 0.0
O49 O 0.53672 0.0304 0.7223 0.0
C50 C 0.38151 0.95629 0.5805 0.0
O51 O 0.367 0.96138 0.49829 0.0
O52 O 0.44497 0.96753 0.60562 0.0
O53 O 0.4251 0.10155 0.4584 0.0
O54 O 0.58783 0.99229 0.43071 0.0
C55 C 0.64958 0.96736 0.45565 0.0
O56 O 0.65777 0.947 0.53586 0.0
O57 O 0.58248 0.08724 0.60969 0.0
C58 C 0.06864 0.29467 0.18981 0.0
C59 C 0.03508 0.23278 0.22011 0.0
C60 C 0.03415 0.28079 0.36788 0.0
C61 C 0.0611 0.34623 0.33687 0.0
N62 N 0.10454 0.41679 0.2188 0.0
N63 N 0.01961 0.15356 0.34003 0.0
C64 C 0.07966 0.35313 0.24804 0.0
C65 C 0.02701 0.22197 0.30985 0.0
N66 N 0.09398 0.29513 0.10681 0.0
N67 N 1.01511 0.2746 0.45279 0.0
H68 H 0.02401 0.10844 0.29946 0.0
H69 H 0.01967 0.14021 0.40506 0.0
H70 H 0.02419 0.31395 0.4992 0.0
H71 H 0.98631 0.23215 0.47652 0.0
H72 H 0.12471 0.33537 0.0814 0.0
H73 H 0.08953 0.25124 0.06487 0.0
H74 H 0.11078 0.42906 0.15395 0.0
H75 H 0.11547 0.45973 0.25955 0.0
C76 C 0.80679 0.06359 0.35982 0.0
C77 C 0.82021 0.0226 0.2834 0.0
C78 C 0.72687 0.94002 0.3242 0.0
C79 C 0.71391 0.98041 0.40141 0.0
N80 N 0.75161 0.07154 0.50175 0.0
N81 N 0.80572 0.91377 0.20032 0.0
C82 C 0.75756 0.03888 0.42246 0.0
C83 C 0.78418 0.95814 0.26801 0.0
N84 N 0.83769 0.12848 0.37012 0.0
N85 N 0.68326 0.88544 0.30376 0.0
H86 H 0.84708 0.92582 0.15749 0.0
H87 H 0.78699 0.86237 0.19051 0.0
H88 H 0.6434 0.86819 0.34567 0.0
H89 H 0.68393 0.85972 0.24383 0.0
H90 H 0.82366 0.16536 0.41947 0.0
H91 H 0.87361 0.14842 0.32516 0.0
H92 H 0.78781 0.10808 0.52424 0.0
H93 H 0.71405 0.05828 0.54838 0.0
C94 C 0.03758 0.7299 0.19447 0.0
C95 C 0.02285 0.804 0.21928 0.0
C96 C 0.99562 0.76545 0.36721 0.0
C97 C 1.01767 0.69333 0.34381 0.0
N98 N 0.03758 0.60246 0.23378 0.0
N99 N 0.99639 0.89286 0.33267 0.0
C100 C 0.03162 0.67422 0.25671 0.0
C101 C 1.00223 0.82195 0.30615 0.0
N102 N 0.06162 0.71309 0.11267 0.0
N103 N 0.96768 0.77939 0.44797 0.0
H104 H 1.00512 0.93595 0.29206 0.0
H105 H 0.98956 0.90929 0.39666 0.0
H106 H 0.96162 0.73832 0.49287 0.0
H107 H 0.94386 0.82945 0.46761 0.0
H108 H 0.08185 0.6617 0.09304 0.0
H109 H 0.06499 0.75159 0.06437 0.0
H110 H 0.04139 0.58355 0.1705 0.0
H111 H 0.03144 0.56133 0.27851 0.0
C112 C 0.23007 0.03145 0.33532 0.0
C113 C 0.22985 0.03769 0.24413 0.0
C114 C 0.33991 0.10484 0.24985 0.0
C115 C 0.34231 0.09414 0.33986 0.0
N116 N 0.26906 0.08507 0.46833 0.0
N117 N 0.26575 0.10914 0.12248 0.0
C118 C 0.28034 0.07025 0.38294 0.0
C119 C 0.27886 0.08369 0.2036 0.0
N120 N 0.18627 0.98552 0.37649 0.0
N121 N 0.39686 0.13368 0.20859 0.0
H122 H 0.21885 0.09892 0.08902 0.0
H123 H 0.29687 0.14718 0.09279 0.0
H124 H 0.43967 0.15428 0.2423 0.0
H125 H 0.4025 0.13466 0.14174 0.0
H126 H 0.19002 0.97493 0.44223 0.0
H127 H 0.15163 0.95251 0.34423 0.0
H128 H 0.2222 0.07223 0.50135 0.0
H129 H 0.30202 0.11858 0.50244 0.0
C130 C 1.01319 0.81416 0.76839 0.0
C131 C 0.99885 0.80443 0.85709 0.0
C132 C 0.97089 0.67895 0.82673 0.0
C133 C 1.00437 0.6843 0.74444 0.0
N134 N 0.05884 0.7577 0.63618 0.0
N135 N 0.94858 0.73335 0.96892 0.0
C136 C 0.02495 0.75239 0.71436 0.0
C137 C 0.97249 0.73841 0.88586 0.0
N138 N 1.01373 0.88244 0.73562 0.0
N139 N 0.93629 0.618 0.84667 0.0
H140 H 0.94382 0.77848 0.01003 0.0
H141 H 0.93503 0.68507 0.99737 0.0
H142 H 0.93025 0.57694 0.8013 0.0
H143 H 0.90778 0.61118 0.90391 0.0
H144 H 0.01951 0.89293 0.67012 0.0
H145 H 0.99806 0.92804 0.77277 0.0
H146 H 0.08229 0.80465 0.61581 0.0
H147 H 0.06792 0.71373 0.59412 0.0
C148 C 0.24334 0.03682 0.74513 0.0
C149 C 0.20805 0.97401 0.7687 0.0
C150 C 0.27807 0.90274 0.65828 0.0
C151 C 0.32053 0.96272 0.64359 0.0
N152 N 0.34512 0.08777 0.67314 0.0
N153 N 0.19517 0.84526 0.7538 0.0
C154 C 0.30338 0.03021 0.68675 0.0
C155 C 0.22578 0.90656 0.72629 0.0
N156 N 0.21897 0.10284 0.77831 0.0
N157 N 0.28775 0.84207 0.60738 0.0
H158 H 0.15577 0.8461 0.80209 0.0
H159 H 0.21192 0.79311 0.73289 0.0
H160 H 0.32766 0.83615 0.55937 0.0
H161 H 0.25283 0.79995 0.6082 0.0
H162 H 0.23668 0.1521 0.75691 0.0
H163 H 0.17621 0.10891 0.82272 0.0
H164 H 0.34148 0.13488 0.71056 0.0
H165 H 0.38626 0.08766 0.62676 0.0
C166 C 0.04401 0.22043 0.77304 0.0
C167 C 1.01651 0.23989 0.85682 0.0
C168 C 0.01983 0.36898 0.81889 0.0
C169 C 0.05234 0.34883 0.73824 0.0
N170 N 0.10935 0.25595 0.6457 0.0
N171 N 0.9853 0.33351 0.96299 0.0
C172 C 0.06927 0.27477 0.71794 0.0
C173 C 1.00602 0.3145 0.88059 0.0
N174 N 0.04073 0.15098 0.74282 0.0
N175 N 1.00246 0.44055 0.83661 0.0
H176 H 0.97356 0.296 0.01007 0.0
H177 H 0.98508 0.38615 0.98745 0.0
H178 H 1.01809 0.48193 0.79658 0.0
H179 H 0.97005 0.45893 0.88851 0.0
H180 H 0.05266 0.1357 0.67925 0.0
H181 H 1.01838 0.11001 0.77786 0.0
H182 H 0.13071 0.20328 0.63334 0.0
H183 H 0.1266 0.29375 0.6016 0.0
C184 C 0.77111 0.12238 0.76778 0.0
C185 C 0.79776 0.05741 0.80722 0.0
C186 C 0.69483 0.99469 0.753 0.0
C187 C 0.66165 0.06273 0.72684 0.0
N188 N 0.66651 0.19262 0.7139 0.0
N189 N 0.78621 0.93163 0.84028 0.0
C190 C 0.69981 0.1269 0.73425 0.0
C191 C 0.76032 0.9933 0.79984 0.0
N192 N 0.81427 0.17969 0.76301 0.0
N193 N 0.6656 0.93111 0.73034 0.0
H194 H 0.83632 0.9277 0.87056 0.0
H195 H 0.75663 0.88582 0.84758 0.0
H196 H 0.61868 0.92856 0.69446 0.0
H197 H 0.69175 0.88023 0.73956 0.0
H198 H 0.80097 0.22668 0.72848 0.0
H199 H 0.86691 0.17695 0.78668 0.0
H200 H 0.68879 0.24201 0.7262 0.0
H201 H 0.61367 0.19847 0.69133 0.0
loop_
_geom_bond_atom_site_label_1
_geom_bond_atom_site_label_2
_geom_bond_distance
_geom_bond_site_symmetry_2
_ccdc_geom_bond_type
Fe0 O1 1.886 . S
Fe0 O4 1.715 1_645 S
Fe0 O9 2.077 1_655 S
Fe0 O14 1.935 1_655 S
Fe0 O20 2.077 1_545 S
Fe0 O29 1.935 1_545 S
O1 Fe0 1.886 . S
O1 Fe3 1.715 . S
Fe2 O4 1.886 . S
Fe2 O5 1.715 1_554 S
Fe2 O12 1.935 1_554 S
Fe2 O13 2.077 . S
Fe2 O19 1.935 1_554 S
Fe2 O28 2.077 . S
Fe3 O1 1.715 . S
Fe3 O6 1.886 1_554 S
Fe3 O10 1.935 . S
Fe3 O15 2.077 1_554 S
Fe3 O21 1.935 . S
Fe3 O25 2.077 1_554 S
O4 Fe0 1.715 1_465 S
O4 Fe2 1.886 . S
O5 Fe2 1.715 1_556 S
O5 Fe7 1.886 . S
O6 Fe3 1.886 1_556 S
O6 Fe7 1.715 1_645 S
Fe7 O5 1.886 . S
Fe7 O6 1.715 1_465 S
Fe7 O11 2.077 1_565 S
Fe7 O16 1.935 1_565 S
Fe7 O18 2.077 1_455 S
Fe7 O26 1.935 1_455 S
C8 O20 1.381 1_545 S
C8 O21 1.421 . S
O9 Fe0 2.077 1_455 S
O9 C22 1.381 1_455 S
O10 Fe3 1.935 . S
O10 C22 1.421 . S
O11 Fe7 2.077 1_545 S
O11 C27 1.381 1_545 S
O12 Fe2 1.935 1_556 S
O12 C27 1.421 . S
O13 Fe2 2.077 . S
O13 C17 1.381 . S
O14 Fe0 1.935 1_455 S
O14 C17 1.421 1_545 S
O15 Fe3 2.077 1_556 S
O15 C23 1.381 . S
O16 Fe7 1.935 1_545 S
O16 C23 1.421 1_455 S
C17 O13 1.381 . S
C17 O14 1.421 1_565 S
O18 Fe7 2.077 1_655 S
O18 C30 1.381 1_655 S
O19 Fe2 1.935 1_556 S
O19 C30 1.421 . S
O20 Fe0 2.077 1_565 S
O20 C8 1.381 1_565 S
O21 Fe3 1.935 . S
O21 C8 1.421 . S
C22 O9 1.381 1_655 S
C22 O10 1.421 . S
C23 O15 1.381 . S
C23 O16 1.421 1_655 S
C24 O25 1.381 . S
C24 O26 1.421 1_545 S
O25 Fe3 2.077 1_556 S
O25 C24 1.381 . S
O26 Fe7 1.935 1_655 S
O26 C24 1.421 1_565 S
C27 O11 1.381 1_565 S
C27 O12 1.421 . S
O28 Fe2 2.077 . S
O28 C31 1.381 . S
O29 Fe0 1.935 1_565 S
O29 C31 1.421 1_655 S
C30 O18 1.381 1_455 S
C30 O19 1.421 . S
C31 O28 1.381 . S
C31 O29 1.421 1_455 S
Mg32 O39 2.141 . S
Mg32 O40 2.048 . S
Mg32 O41 2.048 . S
Mg32 O44 2.141 . S
C33 O34 1.313 . S
C33 O40 1.195 1_455 S
O34 C33 1.313 . S
C35 O36 1.245 . S
C35 O44 1.289 1_455 S
O36 C35 1.245 . S
C37 O38 1.245 . S
C37 O39 1.289 1_455 S
O38 C37 1.245 . S
O39 Mg32 2.141 . S
O39 C37 1.289 1_655 S
O40 Mg32 2.048 . S
O40 C33 1.195 1_655 S
O41 Mg32 2.048 . S
O41 C42 1.195 1_655 S
C42 O41 1.195 1_455 S
C42 O43 1.313 . S
O43 C42 1.313 . S
O44 Mg32 2.141 . S
O44 C35 1.289 1_655 S
Mg45 O52 2.141 . S
Mg45 O53 2.048 . S
Mg45 O54 2.048 . S
Mg45 O57 2.141 . S
C46 O47 1.313 . S
C46 O53 1.195 1_565 S
O47 C46 1.313 . S
C48 O49 1.245 . S
C48 O57 1.289 1_565 S
O49 C48 1.245 . S
C50 O51 1.245 . S
C50 O52 1.289 1_565 S
O51 C50 1.245 . S
O52 Mg45 2.141 . S
O52 C50 1.289 1_545 S
O53 Mg45 2.048 . S
O53 C46 1.195 1_545 S
O54 Mg45 2.048 . S
O54 C55 1.195 1_545 S
C55 O54 1.195 1_565 S
C55 O56 1.313 . S
O56 C55 1.313 . S
O57 Mg45 2.141 . S
O57 C48 1.289 1_545 S
C58 C59 1.365 . S
C58 C64 1.379 . S
C58 N66 1.356 . S
C59 C58 1.365 . S
C59 C65 1.361 1_455 S
C60 C61 1.363 1_655 S
C60 C65 1.379 . S
C60 N67 1.356 . S
C61 C60 1.363 1_455 S
C61 C64 1.364 . S
N62 C64 1.356 . S
N62 H74 0.984 . S
N62 H75 0.985 . S
N63 C65 1.356 . S
N63 H68 0.984 . S
N63 H69 0.985 . S
C64 C58 1.379 . S
C64 C61 1.364 . S
C64 N62 1.356 . S
C65 C59 1.361 1_655 S
C65 C60 1.379 . S
C65 N63 1.356 . S
N66 C58 1.356 . S
N66 H72 0.984 . S
N66 H73 0.984 . S
N67 C60 1.356 . S
N67 H70 0.984 . S
N67 H71 0.985 . S
H68 N63 0.984 . S
H69 N63 0.985 . S
H70 N67 0.984 . S
H71 N67 0.985 . S
H72 N66 0.984 . S
H73 N66 0.984 . S
H74 N62 0.984 . S
H75 N62 0.985 . S
C76 C77 1.363 1_545 S
C76 C82 1.379 . S
C76 N84 1.356 . S
C77 C76 1.363 1_565 S
C77 C83 1.363 . S
C78 C79 1.364 1_565 S
C78 C83 1.379 . S
C78 N85 1.356 . S
C79 C78 1.364 1_545 S
C79 C82 1.362 . S
N80 C82 1.356 . S
N80 H92 0.984 . S
N80 H93 0.985 . S
N81 C83 1.356 . S
N81 H86 0.984 . S
N81 H87 0.985 . S
C82 C76 1.379 . S
C82 C79 1.362 . S
C82 N80 1.356 . S
C83 C77 1.363 . S
C83 C78 1.379 . S
C83 N81 1.356 . S
N84 C76 1.356 . S
N84 H90 0.984 . S
N84 H91 0.984 . S
N85 C78 1.356 . S
N85 H88 0.984 . S
N85 H89 0.985 . S
H86 N81 0.984 . S
H87 N81 0.985 . S
H88 N85 0.984 . S
H89 N85 0.985 . S
H90 N84 0.984 . S
H91 N84 0.984 . S
H92 N80 0.984 . S
H93 N80 0.985 . S
C94 C95 1.363 1_455 S
C94 C100 1.379 . S
C94 N102 1.356 . S
C95 C94 1.363 1_655 S
C95 C101 1.363 . S
C96 C97 1.363 1_655 S
C96 C101 1.379 . S
C96 N103 1.356 . S
C97 C96 1.363 1_455 S
C97 C100 1.363 . S
N98 C100 1.356 . S
N98 H110 0.984 . S
N98 H111 0.985 . S
N99 C101 1.356 . S
N99 H104 0.984 . S
N99 H105 0.985 . S
C100 C94 1.379 . S
C100 C97 1.363 . S
C100 N98 1.356 . S
C101 C95 1.363 . S
C101 C96 1.379 . S
C101 N99 1.356 . S
N102 C94 1.356 . S
N102 H108 0.984 . S
N102 H109 0.984 . S
N103 C96 1.356 . S
N103 H106 0.984 . S
N103 H107 0.985 . S
H104 N99 0.984 . S
H105 N99 0.985 . S
H106 N103 0.984 . S
H107 N103 0.985 . S
H108 N102 0.984 . S
H109 N102 0.984 . S
H110 N98 0.984 . S
H111 N98 0.985 . S
C112 C113 1.360 1_565 S
C112 C118 1.379 . S
C112 N120 1.356 . S
C113 C112 1.360 1_545 S
C113 C119 1.366 . S
C114 C115 1.364 . S
C114 C119 1.379 . S
C114 N121 1.356 . S
C115 C114 1.364 . S
C115 C118 1.362 1_545 S
N116 C118 1.356 . S
N116 H128 0.984 . S
N116 H129 0.985 . S
N117 C119 1.356 . S
N117 H122 0.984 . S
N117 H123 0.985 . S
C118 C112 1.379 . S
C118 C115 1.362 1_565 S
C118 N116 1.356 . S
C119 C113 1.366 . S
C119 C114 1.379 . S
C119 N117 1.356 . S
N120 C112 1.356 . S
N120 H126 0.984 . S
N120 H127 0.984 . S
N121 C114 1.356 . S
N121 H124 0.984 . S
N121 H125 0.985 . S
H122 N117 0.984 . S
H123 N117 0.985 . S
H124 N121 0.984 . S
H125 N121 0.985 . S
H126 N120 0.984 . S
H127 N120 0.984 . S
H128 N116 0.984 . S
H129 N116 0.985 . S
C130 C131 1.363 1_455 S
C130 C136 1.379 . S
C130 N138 1.356 . S
C131 C130 1.363 1_655 S
C131 C137 1.363 . S
C132 C133 1.363 1_655 S
C132 C137 1.379 . S
C132 N139 1.356 . S
C133 C132 1.363 1_455 S
C133 C136 1.363 . S
N134 C136 1.356 . S
N134 H146 0.984 . S
N134 H147 0.985 . S
N135 C137 1.356 . S
N135 H140 0.984 . S
N135 H141 0.985 . S
C136 C130 1.379 . S
C136 C133 1.363 . S
C136 N134 1.356 . S
C137 C131 1.363 . S
C137 C132 1.379 . S
C137 N135 1.356 . S
N138 C130 1.356 . S
N138 H144 0.984 . S
N138 H145 0.984 . S
N139 C132 1.356 . S
N139 H142 0.984 . S
N139 H143 0.985 . S
H140 N135 0.984 . S
H141 N135 0.985 . S
H142 N139 0.984 . S
H143 N139 0.985 . S
H144 N138 0.984 . S
H145 N138 0.984 . S
H146 N134 0.984 . S
H147 N134 0.985 . S
C148 C149 1.366 . S
C148 C154 1.379 . S
C148 N156 1.356 . S
C149 C148 1.366 . S
C149 C155 1.360 1_545 S
C150 C151 1.362 1_565 S
C150 C155 1.379 . S
C150 N157 1.356 . S
C151 C150 1.362 1_545 S
C151 C154 1.364 . S
N152 C154 1.356 . S
N152 H164 0.984 . S
N152 H165 0.985 . S
N153 C155 1.356 . S
N153 H158 0.984 . S
N153 H159 0.985 . S
C154 C148 1.379 . S
C154 C151 1.364 . S
C154 N152 1.356 . S
C155 C149 1.360 1_565 S
C155 C150 1.379 . S
C155 N153 1.356 . S
N156 C148 1.356 . S
N156 H162 0.984 . S
N156 H163 0.984 . S
N157 C150 1.356 . S
N157 H160 0.984 . S
N157 H161 0.985 . S
H158 N153 0.984 . S
H159 N153 0.985 . S
H160 N157 0.984 . S
H161 N157 0.985 . S
H162 N156 0.984 . S
H163 N156 0.984 . S
H164 N152 0.984 . S
H165 N152 0.985 . S
C166 C167 1.364 . S
C166 C172 1.379 . S
C166 N174 1.356 . S
C167 C166 1.364 . S
C167 C173 1.362 1_455 S
C168 C169 1.363 1_655 S
C168 C173 1.379 . S
C168 N175 1.356 . S
C169 C168 1.363 1_455 S
C169 C172 1.363 . S
N170 C172 1.356 . S
N170 H182 0.984 . S
N170 H183 0.985 . S
N171 C173 1.356 . S
N171 H176 0.984 . S
N171 H177 0.985 . S
C172 C166 1.379 . S
C172 C169 1.363 . S
C172 N170 1.356 . S
C173 C167 1.362 1_655 S
C173 C168 1.379 . S
C173 N171 1.356 . S
N174 C166 1.356 . S
N174 H180 0.984 . S
N174 H181 0.984 . S
N175 C168 1.356 . S
N175 H178 0.984 . S
N175 H179 0.985 . S
H176 N171 0.984 . S
H177 N171 0.985 . S
H178 N175 0.984 . S
H179 N175 0.985 . S
H180 N174 0.984 . S
H181 N174 0.984 . S
H182 N170 0.984 . S
H183 N170 0.985 . S
C184 C185 1.363 1_545 S
C184 C190 1.379 . S
C184 N192 1.356 . S
C185 C184 1.363 1_565 S
C185 C191 1.363 . S
C186 C187 1.364 1_565 S
C186 C191 1.379 . S
C186 N193 1.356 . S
C187 C186 1.364 1_545 S
C187 C190 1.363 . S
N188 C190 1.356 . S
N188 H200 0.984 . S
N188 H201 0.985 . S
N189 C191 1.356 . S
N189 H194 0.984 . S
N189 H195 0.985 . S
C190 C184 1.379 . S
C190 C187 1.363 . S
C190 N188 1.356 . S
C191 C185 1.363 . S
C191 C186 1.379 . S
C191 N189 1.356 . S
N192 C184 1.356 . S
N192 H198 0.984 . S
N192 H199 0.984 . S
N193 C186 1.356 . S
N193 H196 0.984 . S
N193 H197 0.985 . S
H194 N189 0.984 . S
H195 N189 0.985 . S
H196 N193 0.984 . S
H197 N193 0.985 . S
H198 N192 0.984 . S
H199 N192 0.984 . S
H200 N188 0.984 . S
H201 N188 0.985 . S
C59 C22 1.435 1_455 S
C61 C33 1.480 . S
C77 C8 1.436 1_565 S
C79 C55 1.483 1_545 S
C95 C31 1.434 1_655 S
C97 C42 1.483 . S
C113 C17 1.433 1_545 S
C115 C46 1.480 1_545 S
C131 C30 1.373 1_655 S
C133 C35 1.416 . S
C149 C27 1.372 1_545 S
C151 C50 1.414 1_545 S
C169 C37 1.415 . S
C167 C23 1.367 1_455 S
C185 C24 1.369 1_565 S
C187 C48 1.416 1_545 S
