# Generated by pormake.
# Topology pts, (4,4)-cn, num edge types: 1
# Building blocks:
#     Node 0, Type 0, BuildingBlock: ESEHIV_clean_sbu_0, # of connection points: 4
#     Node 1, Type 0, BuildingBlock: ESEHIV_clean_sbu_0, # of connection points: 4
#     Node 2, Type 1, BuildingBlock: QUQFOY_clean_sbu_1, # of connection points: 4
#     Node 3, Type 1, BuildingBlock: QUQFOY_clean_sbu_1, # of connection points: 4
#     Edge 4, Type (0, 1), BuildingBlock: KIFKEQ_clean_linker_1, # of connection points: 2
#     Edge 5, Type (0, 1), BuildingBlock: KIFKEQ_clean_linker_1, # of connection points: 2
#     Edge 6, Type (0, 1), BuildingBlock: KIFKEQ_clean_linker_1, # of connection points: 2
#     Edge 7, Type (0, 1), BuildingBlock: KIFKEQ_clean_linker_1, # of connection points: 2
#     Edge 8, Type (0, 1), BuildingBlock: KIFKEQ_clean_linker_1, # of connection points: 2
#     Edge 9, Type (0, 1), BuildingBlock: KIFKEQ_clean_linker_1, # of connection points: 2
#     Edge 10, Type (0, 1), BuildingBlock: KIFKEQ_clean_linker_1, # of connection points: 2
#     Edge 11, Type (0, 1), BuildingBlock: KIFKEQ_clean_linker_1, # of connection points: 2
# Relax obj value: 0.097
# Max RMSD: 0.250
# Mean RMSD: 0.176
data_MOF--net-pts--node1-ESEHIV_clean_sbu_0--node2-QUQFOY_clean_sbu_1--edge1-KIFKEQ_clean_linker_1
_symmetry_space_group_name_H-M    P1
_symmetry_Int_Tables_number       1
_symmetry_cell_setting            triclinic
loop_
_symmetry_equiv_pos_as_xyz
'x, y, z'
_cell_length_a     24.286952
_cell_length_b     25.796016
_cell_length_c     39.519008
_cell_angle_alpha  93.332613
_cell_angle_beta   93.479366
_cell_angle_gamma 90.317935
loop_
_atom_site_label
_atom_site_type_symbol
_atom_site_fract_x
_atom_site_fract_y
_atom_site_fract_z
_atom_type_partial_charge
Cu0 Cu 0.52488 0.10097 0.03419 0.0
N1 N 0.56209 0.08714 0.99449 0.0
N2 N 0.61771 0.0628 0.9536 0.0
C3 C 0.60523 0.05705 0.98616 0.0
C4 C 0.58213 0.09805 0.94153 0.0
C5 C 0.54876 0.1133 0.9667 0.0
O6 O 0.57165 0.14075 0.06806 0.0
C7 C 0.42928 0.1028 0.99635 0.0
O8 O 0.44629 0.05481 0.99158 0.0
H9 H 0.62771 0.03284 1.0036 0.0
H10 H 0.51807 0.14336 0.96524 0.0
N11 N 0.50376 0.04261 0.05622 0.0
N12 N 0.45163 1.00443 0.09251 0.0
C13 C 0.45286 0.03731 0.06734 0.0
C14 C 0.53616 1.01177 0.07511 0.0
C15 C 0.50401 0.9882 0.09766 0.0
C16 C 0.6192 0.15811 0.06246 0.0
O17 O 0.63312 0.16056 0.031 0.0
H18 H 0.41881 0.06216 0.06028 0.0
H19 H 0.58069 1.01102 0.07514 0.0
O20 O 0.45707 0.13361 1.01742 0.0
H21 H 0.58249 0.11403 0.9168 0.0
H22 H 0.51869 0.96442 0.11797 0.0
Cu23 Cu 0.07745 0.5886 0.52634 0.0
N24 N 0.11846 0.55042 0.55762 0.0
N25 N 0.13225 0.48791 0.5941 0.0
C26 C 0.09865 0.5065 0.56931 0.0
C27 C 0.17523 0.52165 0.59818 0.0
C28 C 0.16668 0.56019 0.57552 0.0
O29 O 0.04287 0.53676 0.49376 0.0
C30 C 0.05926 0.67227 0.56794 0.0
O31 O 0.11314 0.67164 0.56668 0.0
H32 H 0.05879 0.48993 0.5608 0.0
H33 H 0.19282 0.59367 0.5731 0.0
N34 N 0.11747 0.63252 0.50054 0.0
N35 N 0.12715 0.69626 0.46523 0.0
C36 C 0.09163 0.66558 0.47998 0.0
C37 C 0.17171 0.64231 0.49891 0.0
C38 C 0.17781 0.68183 0.47711 0.0
C39 C 0.07951 0.51248 0.47743 0.0
O40 O 0.13158 0.52499 0.48469 0.0
H41 H 0.04715 0.66807 0.47694 0.0
H42 H 0.20431 0.62281 0.5129 0.0
O43 O 0.03072 0.63575 0.55212 0.0
H44 H 0.20987 0.51919 0.61656 0.0
H45 H 0.21645 0.6985 0.47056 0.0
O46 O 0.94589 0.06099 0.24085 0.0
Cd47 Cd 0.01989 0.03448 0.26217 0.0
Cd48 Cd 0.04933 0.13707 0.26598 0.0
O49 O 0.97952 0.13876 0.2335 0.0
O50 O 0.00838 0.96139 0.27416 0.0
O51 O 0.03572 1.02417 0.31203 0.0
C52 C 0.02511 0.97544 0.30494 0.0
C53 C 0.05264 0.20606 0.30741 0.0
C54 C 0.94081 0.10534 0.22854 0.0
C55 C 0.12554 0.06283 0.23201 0.0
O56 O 0.12157 0.10742 0.24718 0.0
O57 O 0.08647 0.02993 0.23218 0.0
O58 O 0.06435 0.21243 0.27656 0.0
O59 O 0.04143 0.15948 0.31542 0.0
O60 O 0.94433 0.11617 0.79927 0.0
Cd61 Cd 0.01876 0.13981 0.78193 0.0
Cd62 Cd 0.04024 0.0364 0.77894 0.0
O63 O 0.97458 0.03772 0.80931 0.0
O64 O 0.01253 0.21453 0.77172 0.0
O65 O 0.03276 0.15304 0.73329 0.0
C66 C 0.02642 0.20183 0.74139 0.0
C67 C 0.03429 0.97107 0.73507 0.0
C68 C 0.9385 0.07278 0.81249 0.0
C69 C 0.12174 0.10399 0.81931 0.0
O70 O 0.11476 0.06043 0.80273 0.0
O71 O 0.08578 0.13927 0.81646 0.0
O72 O 0.04742 0.96088 0.76605 0.0
O73 O 0.02685 1.01914 0.72858 0.0
H74 H 0.34448 0.99178 0.07286 0.0
H75 H 0.45726 1.01119 0.16126 0.0
H76 H 0.26629 1.00083 0.1089 0.0
H77 H 0.37901 1.02069 0.19756 0.0
H78 H 0.22504 0.11437 0.23503 0.0
H79 H 0.30596 0.09204 0.20337 0.0
H80 H 0.2197 0.95762 0.15583 0.0
H81 H 0.13902 0.97953 0.18746 0.0
C82 C 0.35231 0.99686 0.10013 0.0
C83 C 0.40668 1.00048 0.11433 0.0
C84 C 0.30772 1.00203 0.12075 0.0
C85 C 0.31659 1.01179 0.15602 0.0
C86 C 0.37103 1.01355 0.17042 0.0
C87 C 0.41571 1.0075 0.14976 0.0
C88 C 0.22342 0.07993 0.21796 0.0
C89 C 0.17542 0.04893 0.21366 0.0
C90 C 0.26991 0.06692 0.20006 0.0
C91 C 0.26911 1.02304 0.17717 0.0
C92 C 0.22139 0.99178 0.17317 0.0
C93 C 0.17523 1.00436 0.19136 0.0
H94 H 0.07353 0.40111 0.57318 0.0
H95 H 0.1646 0.4755 0.66006 0.0
H96 H 0.04699 0.33079 0.60781 0.0
H97 H 0.13901 0.40464 0.69458 0.0
H98 H 0.02534 0.30687 0.75418 0.0
H99 H 0.05316 0.37407 0.71779 0.0
H100 H 0.08506 0.25687 0.63907 0.0
H101 H 0.05684 0.18923 0.67556 0.0
C102 C 0.08811 0.40232 0.59964 0.0
C103 C 0.12088 0.44417 0.6139 0.0
C104 C 0.07327 0.36178 0.61942 0.0
C105 C 0.09049 0.36227 0.65403 0.0
C106 C 0.12441 0.40345 0.66809 0.0
C107 C 0.13963 0.44379 0.64824 0.0
C108 C 0.03784 0.29529 0.72902 0.0
C109 C 0.03881 0.24255 0.71781 0.0
C110 C 0.05432 0.33388 0.70827 0.0
C111 C 0.07193 0.32086 0.67565 0.0
C112 C 0.07154 0.26822 0.66402 0.0
C113 C 0.05539 0.22946 0.68493 0.0
H114 H 0.72562 0.19227 0.06013 0.0
H115 H 0.61155 0.13226 0.12833 0.0
H116 H 0.80104 0.1837 0.10292 0.0
H117 H 0.68708 0.12416 0.17123 0.0
H118 H 0.84764 0.04559 0.21322 0.0
H119 H 0.76745 0.06579 0.17616 0.0
H120 H 0.83975 0.21474 0.1594 0.0
H121 H 0.92001 0.19454 0.19607 0.0
C122 C 0.71637 0.17834 0.0845 0.0
C123 C 0.66253 0.1627 0.09065 0.0
C124 C 0.75966 0.17347 0.10909 0.0
C125 C 0.75017 0.15264 0.14035 0.0
C126 C 0.69587 0.13953 0.14718 0.0
C127 C 0.65249 0.14472 0.12268 0.0
C128 C 0.8463 0.08277 0.20182 0.0
C129 C 0.89051 0.11824 0.20751 0.0
C130 C 0.80014 0.09452 0.18075 0.0
C131 C 0.79724 0.14189 0.16478 0.0
C132 C 0.84095 0.17772 0.17101 0.0
C133 C 0.88691 0.16612 0.19217 0.0
H134 H 0.08192 0.77224 0.55946 0.0
H135 H 0.98533 0.67356 0.61787 0.0
H136 H 0.06424 0.84636 0.59798 0.0
H137 H 0.96701 0.74838 0.65692 0.0
H138 H 0.03988 0.86685 0.74296 0.0
H139 H 0.02995 0.79637 0.69932 0.0
H140 H -0.00016 0.90765 0.62291 0.0
H141 H 0.01048 0.97858 0.66672 0.0
C142 C 0.05522 0.76696 0.58003 0.0
C143 C 0.03484 0.71741 0.58576 0.0
C144 C 0.04498 0.80948 0.6021 0.0
C145 C 0.01468 0.80329 0.63077 0.0
C146 C 0.99103 0.75424 0.63523 0.0
C147 C 0.00084 0.71158 0.61274 0.0
C148 C 0.03091 0.87641 0.71688 0.0
C149 C 0.02671 0.92846 0.70828 0.0
C150 C 0.02447 0.83586 0.69189 0.0
C151 C 0.01386 0.84626 0.6576 0.0
C152 C 0.00831 0.89831 0.64908 0.0
C153 C 0.01452 0.93896 0.67415 0.0
H154 H 0.32792 0.14614 1.00574 0.0
H155 H 0.43965 0.09823 0.92934 0.0
H156 H 0.25399 0.15461 0.961 0.0
H157 H 0.36739 0.10802 0.88501 0.0
H158 H 0.21013 0.04052 0.82909 0.0
H159 H 0.2863 0.05168 0.87175 0.0
H160 H 0.21922 0.19796 0.90786 0.0
H161 H 0.14226 0.18669 0.86516 0.0
C162 C 0.33708 0.13948 0.97936 0.0
C163 C 0.38915 0.12172 0.9708 0.0
C164 C 0.29496 0.14411 0.95379 0.0
C165 C 0.30478 0.13097 0.91957 0.0
C166 C 0.35828 0.11734 0.91115 0.0
C167 C 0.39981 0.11233 0.9365 0.0
C168 C 0.21174 0.07531 0.84587 0.0
C169 C 0.17013 0.11268 0.84364 0.0
C170 C 0.25558 0.08187 0.87024 0.0
C171 C 0.25886 0.1259 0.89305 0.0
C172 C 0.21759 0.16358 0.89072 0.0
C173 C 0.17378 0.15719 0.86612 0.0
H174 H 0.99015 0.44482 0.47003 0.0
H175 H 0.14094 0.48547 0.42497 0.0
H176 H 0.97754 0.37016 0.42831 0.0
H177 H 0.1288 0.41203 0.38417 0.0
H178 H 0.0704 0.30739 0.29562 0.0
H179 H 0.06765 0.38274 0.33523 0.0
H180 H 0.02689 0.28413 0.41488 0.0
H181 H 0.02873 0.20795 0.37476 0.0
C182 C 0.01999 0.43829 0.45098 0.0
C183 C 0.06647 0.47092 0.45072 0.0
C184 C 0.01313 0.39541 0.42738 0.0
C185 C 0.05218 0.38527 0.40292 0.0
C186 C 0.0976 0.41898 0.40233 0.0
C187 C 0.10469 0.46103 0.4259 0.0
C188 C 0.06076 0.30151 0.32153 0.0
C189 C 0.05056 0.25146 0.33211 0.0
C190 C 0.05911 0.34483 0.34425 0.0
C191 C 0.04738 0.33941 0.37825 0.0
C192 C 0.03561 0.28958 0.38876 0.0
C193 C 0.03726 0.24595 0.36589 0.0
H194 H 0.72372 0.05546 0.97836 0.0
H195 H 0.61616 0.03081 0.88791 0.0
H196 H 0.80426 0.04962 0.94354 0.0
H197 H 0.69596 1.02607 0.85321 0.0
H198 H 0.83918 0.12223 0.81125 0.0
H199 H 0.76201 0.10713 0.84656 0.0
H200 H 0.85452 0.98821 0.89664 0.0
H201 H 0.93145 1.00238 0.86093 0.0
C202 C 0.7175 0.04678 0.95126 0.0
C203 C 0.66397 0.04409 0.93567 0.0
C204 C 0.76335 0.04389 0.93134 0.0
C205 C 0.75591 0.03857 0.89572 0.0
C206 C 0.70259 0.0311 0.88057 0.0
C207 C 0.65712 0.03348 0.90039 0.0
C208 C 0.84293 0.0927 0.82963 0.0
C209 C 0.89118 0.06336 0.83319 0.0
C210 C 0.7988 0.0839 0.84971 0.0
C211 C 0.80249 0.04632 0.87412 0.0
C212 C 0.85082 1.01732 0.87797 0.0
C213 C 0.89456 1.02536 0.85742 0.0
H214 H 0.18695 0.78274 0.45439 0.0
H215 H 0.03407 0.7018 0.42426 0.0
H216 H 0.16062 0.85152 0.41666 0.0
H217 H 0.00691 0.77105 0.38794 0.0
H218 H 0.00538 0.87125 0.29666 0.0
H219 H 0.03091 0.80474 0.33559 0.0
H220 H 0.0952 0.92282 0.40977 0.0
H221 H 0.07057 0.98975 0.37025 0.0
C222 C 0.14784 0.77951 0.43974 0.0
C223 C 0.11267 0.73665 0.44249 0.0
C224 C 0.13239 0.81928 0.41844 0.0
C225 C 0.08154 0.81695 0.39928 0.0
C226 C 0.04659 0.77399 0.40202 0.0
C227 C 0.06197 0.73442 0.42322 0.0
C228 C 0.02449 0.88323 0.32137 0.0
C229 C 0.03579 0.93592 0.33033 0.0
C230 C 0.03903 0.84499 0.3438 0.0
C231 C 0.06522 0.85831 0.37587 0.0
C232 C 0.07574 0.91113 0.38511 0.0
C233 C 0.0611 0.94954 0.3626 0.0
loop_
_geom_bond_atom_site_label_1
_geom_bond_atom_site_label_2
_geom_bond_distance
_geom_bond_site_symmetry_2
_ccdc_geom_bond_type
Cu0 N1 1.999 1_554 S
Cu0 O6 1.974 . S
Cu0 N11 1.985 . S
Cu0 O20 1.959 1_554 S
N1 Cu0 1.999 1_556 S
N1 C3 1.263 . S
N1 C5 1.389 . S
N2 C3 1.358 . S
N2 C4 1.400 . S
C3 N1 1.263 . S
C3 N2 1.358 . S
C3 H9 0.930 . S
C4 N2 1.400 . S
C4 C5 1.351 . S
C4 H21 0.930 . S
C5 N1 1.389 . S
C5 C4 1.351 . S
C5 H10 0.930 . S
O6 Cu0 1.974 . S
O6 C16 1.282 . S
C7 O8 1.261 . S
C7 O20 1.251 . S
O8 C7 1.261 . S
H9 C3 0.930 . S
H10 C5 0.930 . S
N11 Cu0 1.985 . S
N11 C13 1.335 . S
N11 C14 1.390 . S
N12 C13 1.345 . S
N12 C15 1.336 . S
C13 N11 1.335 . S
C13 N12 1.345 . S
C13 H18 0.930 . S
C14 N11 1.390 . S
C14 C15 1.346 . S
C14 H19 0.930 . S
C15 N12 1.336 . S
C15 C14 1.346 . S
C15 H22 0.929 . S
C16 O6 1.282 . S
C16 O17 1.216 . S
O17 C16 1.216 . S
H18 C13 0.930 . S
H19 C14 0.930 . S
O20 Cu0 1.959 1_556 S
O20 C7 1.251 . S
H21 C4 0.930 . S
H22 C15 0.929 . S
Cu23 N24 1.999 . S
Cu23 O29 1.974 . S
Cu23 N34 1.985 . S
Cu23 O43 1.959 . S
N24 Cu23 1.999 . S
N24 C26 1.263 . S
N24 C28 1.389 1_455 S
N25 C26 1.358 . S
N25 C27 1.400 1_455 S
C26 N24 1.263 . S
C26 N25 1.358 . S
C26 H32 0.930 . S
C27 N25 1.400 1_655 S
C27 C28 1.351 . S
C27 H44 0.930 . S
C28 N24 1.389 1_655 S
C28 C27 1.351 . S
C28 H33 0.930 . S
O29 Cu23 1.974 . S
O29 C39 1.282 . S
C30 O31 1.261 . S
C30 O43 1.251 . S
O31 C30 1.261 . S
H32 C26 0.930 . S
H33 C28 0.930 . S
N34 Cu23 1.985 . S
N34 C36 1.335 . S
N34 C37 1.390 . S
N35 C36 1.345 . S
N35 C38 1.336 . S
C36 N34 1.335 . S
C36 N35 1.345 . S
C36 H41 0.924 1_455 S
C37 N34 1.390 . S
C37 C38 1.346 . S
C37 H42 0.930 . S
C38 N35 1.336 . S
C38 C37 1.346 . S
C38 H45 0.929 . S
C39 O29 1.282 . S
C39 O40 1.216 . S
O40 C39 1.216 . S
H41 C36 0.924 1_655 S
H42 C37 0.930 . S
O43 Cu23 1.959 . S
O43 C30 1.251 . S
H44 C27 0.930 . S
H45 C38 0.929 . S
O46 Cd47 2.223 . S
O46 C54 1.315 1_465 S
Cd47 O46 2.223 . S
Cd47 O50 2.297 . S
Cd47 O51 2.439 . S
Cd47 O57 2.240 1_565 S
Cd48 O49 2.240 1_455 S
Cd48 O56 2.223 . S
Cd48 O58 2.297 . S
Cd48 O59 2.439 . S
O49 Cd48 2.240 1_655 S
O49 C54 1.279 . S
O50 Cd47 2.297 . S
O50 C52 1.247 . S
O51 Cd47 2.439 . S
O51 C52 1.209 . S
C52 O50 1.247 . S
C52 O51 1.209 . S
C53 O58 1.247 . S
C53 O59 1.208 . S
C54 O46 1.315 1_645 S
C54 O49 1.279 . S
C55 O56 1.315 . S
C55 O57 1.279 . S
O56 Cd48 2.223 . S
O56 C55 1.315 . S
O57 Cd47 2.240 1_545 S
O57 C55 1.279 . S
O58 Cd48 2.297 . S
O58 C53 1.247 . S
O59 Cd48 2.439 . S
O59 C53 1.208 . S
O60 Cd61 2.223 . S
O60 C68 1.315 . S
Cd61 O60 2.223 . S
Cd61 O64 2.297 . S
Cd61 O65 2.439 . S
Cd61 O71 2.240 . S
Cd62 O63 2.240 1_565 S
Cd62 O70 2.223 . S
Cd62 O72 2.297 . S
Cd62 O73 2.439 . S
O63 Cd62 2.240 1_545 S
O63 C68 1.279 . S
O64 Cd61 2.297 . S
O64 C66 1.247 . S
O65 Cd61 2.439 . S
O65 C66 1.208 . S
C66 O64 1.247 . S
C66 O65 1.208 . S
C67 O72 1.247 . S
C67 O73 1.208 . S
C68 O60 1.315 . S
C68 O63 1.279 . S
C69 O70 1.315 1_545 S
C69 O71 1.279 . S
O70 Cd62 2.223 . S
O70 C69 1.315 1_565 S
O71 Cd61 2.240 . S
O71 C69 1.279 . S
O72 Cd62 2.297 . S
O72 C67 1.247 . S
O73 Cd62 2.439 . S
O73 C67 1.208 . S
H74 C82 0.950 . S
H75 C87 0.950 . S
H76 C84 0.950 . S
H77 C86 0.950 . S
H78 C88 0.950 . S
H79 C90 0.950 . S
H80 C92 0.950 . S
H81 C93 0.950 . S
C82 H74 0.950 . S
C82 C83 1.386 . S
C82 C84 1.391 . S
C83 C82 1.386 . S
C83 C87 1.393 . S
C84 H76 0.950 . S
C84 C82 1.391 . S
C84 C85 1.400 . S
C85 C84 1.400 . S
C85 C86 1.398 . S
C85 C91 1.491 . S
C86 H77 0.950 . S
C86 C85 1.398 . S
C86 C87 1.391 . S
C87 H75 0.950 . S
C87 C83 1.393 . S
C87 C86 1.391 . S
C88 H78 0.950 . S
C88 C89 1.386 . S
C88 C90 1.391 . S
C89 C88 1.386 . S
C89 C93 1.393 . S
C90 H79 0.950 . S
C90 C88 1.391 . S
C90 C91 1.400 . S
C91 C85 1.491 . S
C91 C90 1.400 . S
C91 C92 1.398 . S
C92 H80 0.950 . S
C92 C91 1.398 . S
C92 C93 1.391 . S
C93 H81 0.950 . S
C93 C89 1.393 . S
C93 C92 1.391 . S
H94 C102 0.950 . S
H95 C107 0.950 . S
H96 C104 0.950 . S
H97 C106 0.950 . S
H98 C108 0.950 . S
H99 C110 0.950 . S
H100 C112 0.950 . S
H101 C113 0.950 . S
C102 H94 0.950 . S
C102 C103 1.386 1_655 S
C102 C104 1.391 . S
C103 C102 1.386 1_455 S
C103 C107 1.393 . S
C104 H96 0.950 . S
C104 C102 1.391 . S
C104 C105 1.400 1_655 S
C105 C104 1.400 1_455 S
C105 C106 1.398 . S
C105 C111 1.491 . S
C106 H97 0.950 . S
C106 C105 1.398 . S
C106 C107 1.391 . S
C107 H95 0.950 . S
C107 C103 1.393 . S
C107 C106 1.391 . S
C108 H98 0.950 . S
C108 C109 1.386 . S
C108 C110 1.391 . S
C109 C108 1.386 . S
C109 C113 1.393 1_455 S
C110 H99 0.950 . S
C110 C108 1.391 . S
C110 C111 1.400 . S
C111 C105 1.491 . S
C111 C110 1.400 . S
C111 C112 1.398 1_455 S
C112 H100 0.950 . S
C112 C111 1.398 1_655 S
C112 C113 1.391 . S
C113 H101 0.950 . S
C113 C109 1.393 1_655 S
C113 C112 1.391 . S
H114 C122 0.950 . S
H115 C127 0.950 . S
H116 C124 0.950 . S
H117 C126 0.950 . S
H118 C128 0.950 . S
H119 C130 0.950 . S
H120 C132 0.950 . S
H121 C133 0.950 . S
C122 H114 0.950 . S
C122 C123 1.386 . S
C122 C124 1.391 . S
C123 C122 1.386 . S
C123 C127 1.393 . S
C124 H116 0.950 . S
C124 C122 1.391 . S
C124 C125 1.400 . S
C125 C124 1.400 . S
C125 C126 1.398 . S
C125 C131 1.491 . S
C126 H117 0.950 . S
C126 C125 1.398 . S
C126 C127 1.391 . S
C127 H115 0.950 . S
C127 C123 1.393 . S
C127 C126 1.391 . S
C128 H118 0.950 . S
C128 C129 1.386 . S
C128 C130 1.391 . S
C129 C128 1.386 . S
C129 C133 1.393 . S
C130 H119 0.950 . S
C130 C128 1.391 . S
C130 C131 1.400 . S
C131 C125 1.491 . S
C131 C130 1.400 . S
C131 C132 1.398 . S
C132 H120 0.950 . S
C132 C131 1.398 . S
C132 C133 1.391 . S
C133 H121 0.950 . S
C133 C129 1.393 . S
C133 C132 1.391 . S
H134 C142 0.950 . S
H135 C147 0.950 . S
H136 C144 0.950 . S
H137 C146 0.950 . S
H138 C148 0.950 . S
H139 C150 0.950 . S
H140 C152 0.950 . S
H141 C153 0.950 . S
C142 H134 0.950 . S
C142 C143 1.386 . S
C142 C144 1.391 . S
C143 C142 1.386 . S
C143 C147 1.393 . S
C144 H136 0.950 . S
C144 C142 1.391 . S
C144 C145 1.400 . S
C145 C144 1.400 . S
C145 C146 1.398 . S
C145 C151 1.491 . S
C146 H137 0.950 . S
C146 C145 1.398 . S
C146 C147 1.391 . S
C147 H135 0.950 . S
C147 C143 1.393 . S
C147 C146 1.391 . S
C148 H138 0.950 . S
C148 C149 1.386 . S
C148 C150 1.391 . S
C149 C148 1.386 . S
C149 C153 1.393 . S
C150 H139 0.950 . S
C150 C148 1.391 . S
C150 C151 1.400 . S
C151 C145 1.491 . S
C151 C150 1.400 . S
C151 C152 1.398 . S
C152 H140 0.950 . S
C152 C151 1.398 . S
C152 C153 1.391 . S
C153 H141 0.950 . S
C153 C149 1.393 . S
C153 C152 1.391 . S
H154 C162 0.950 . S
H155 C167 0.950 . S
H156 C164 0.950 . S
H157 C166 0.950 1_565 S
H158 C168 0.950 . S
H159 C170 0.950 1_565 S
H160 C172 0.950 . S
H161 C173 0.950 . S
C162 H154 0.950 . S
C162 C163 1.386 . S
C162 C164 1.391 . S
C163 C162 1.386 . S
C163 C167 1.393 . S
C164 H156 0.950 . S
C164 C162 1.391 . S
C164 C165 1.400 . S
C165 C164 1.400 . S
C165 C166 1.398 . S
C165 C171 1.491 . S
C166 H157 0.950 1_545 S
C166 C165 1.398 . S
C166 C167 1.391 . S
C167 H155 0.950 . S
C167 C163 1.393 . S
C167 C166 1.391 . S
C168 H158 0.950 . S
C168 C169 1.386 1_565 S
C168 C170 1.391 1_565 S
C169 C168 1.386 1_545 S
C169 C173 1.393 . S
C170 H159 0.950 1_545 S
C170 C168 1.391 1_545 S
C170 C171 1.400 . S
C171 C165 1.491 . S
C171 C170 1.400 . S
C171 C172 1.398 . S
C172 H160 0.950 . S
C172 C171 1.398 . S
C172 C173 1.391 . S
C173 H161 0.950 . S
C173 C169 1.393 . S
C173 C172 1.391 . S
H174 C182 0.950 1_655 S
H175 C187 0.950 . S
H176 C184 0.950 . S
H177 C186 0.950 . S
H178 C188 0.950 . S
H179 C190 0.950 . S
H180 C192 0.950 . S
H181 C193 0.950 . S
C182 H174 0.950 1_455 S
C182 C183 1.386 . S
C182 C184 1.391 . S
C183 C182 1.386 . S
C183 C187 1.393 . S
C184 H176 0.950 . S
C184 C182 1.391 . S
C184 C185 1.400 . S
C185 C184 1.400 . S
C185 C186 1.398 . S
C185 C191 1.491 . S
C186 H177 0.950 . S
C186 C185 1.398 . S
C186 C187 1.391 . S
C187 H175 0.950 . S
C187 C183 1.393 . S
C187 C186 1.391 . S
C188 H178 0.950 . S
C188 C189 1.386 . S
C188 C190 1.391 . S
C189 C188 1.386 . S
C189 C193 1.393 . S
C190 H179 0.950 . S
C190 C188 1.391 . S
C190 C191 1.400 . S
C191 C185 1.491 . S
C191 C190 1.400 . S
C191 C192 1.398 . S
C192 H180 0.950 . S
C192 C191 1.398 . S
C192 C193 1.391 . S
C193 H181 0.950 . S
C193 C189 1.393 . S
C193 C192 1.391 . S
H194 C202 0.950 . S
H195 C207 0.950 . S
H196 C204 0.950 . S
H197 C206 0.950 . S
H198 C208 0.950 . S
H199 C210 0.950 . S
H200 C212 0.950 . S
H201 C213 0.945 1_455 S
C202 H194 0.950 . S
C202 C203 1.386 . S
C202 C204 1.391 . S
C203 C202 1.386 . S
C203 C207 1.393 . S
C204 H196 0.950 . S
C204 C202 1.391 . S
C204 C205 1.400 . S
C205 C204 1.400 . S
C205 C206 1.398 . S
C205 C211 1.491 . S
C206 H197 0.950 . S
C206 C205 1.398 . S
C206 C207 1.391 . S
C207 H195 0.950 . S
C207 C203 1.393 . S
C207 C206 1.391 . S
C208 H198 0.950 . S
C208 C209 1.386 . S
C208 C210 1.391 . S
C209 C208 1.386 . S
C209 C213 1.393 . S
C210 H199 0.950 . S
C210 C208 1.391 . S
C210 C211 1.400 . S
C211 C205 1.491 . S
C211 C210 1.400 . S
C211 C212 1.398 . S
C212 H200 0.950 . S
C212 C211 1.398 . S
C212 C213 1.391 . S
C213 H201 0.945 1_655 S
C213 C209 1.393 . S
C213 C212 1.391 . S
H214 C222 0.950 . S
H215 C227 0.950 1_655 S
H216 C224 0.950 . S
H217 C226 0.950 1_655 S
H218 C228 0.950 . S
H219 C230 0.950 . S
H220 C232 0.950 . S
H221 C233 0.950 . S
C222 H214 0.950 . S
C222 C223 1.386 . S
C222 C224 1.391 . S
C223 C222 1.386 . S
C223 C227 1.393 . S
C224 H216 0.950 . S
C224 C222 1.391 . S
C224 C225 1.400 . S
C225 C224 1.400 . S
C225 C226 1.398 . S
C225 C231 1.491 . S
C226 H217 0.950 1_455 S
C226 C225 1.398 . S
C226 C227 1.391 . S
C227 H215 0.950 1_455 S
C227 C223 1.393 . S
C227 C226 1.391 . S
C228 H218 0.950 . S
C228 C229 1.386 1_655 S
C228 C230 1.391 . S
C229 C228 1.386 1_455 S
C229 C233 1.393 . S
C230 H219 0.950 . S
C230 C228 1.391 . S
C230 C231 1.400 1_655 S
C231 C225 1.491 . S
C231 C230 1.400 1_455 S
C231 C232 1.398 . S
C232 H220 0.950 . S
C232 C231 1.398 . S
C232 C233 1.391 . S
C233 H221 0.950 . S
C233 C229 1.393 . S
C233 C232 1.391 . S
C89 C55 1.549 . S
C83 N12 1.497 . S
C109 C66 1.523 . S
C103 N25 1.551 . S
C129 C54 1.553 . S
C123 C16 1.544 . S
C149 C67 1.537 . S
C143 C30 1.597 . S
C169 C69 1.594 . S
C163 C7 1.592 . S
C189 C53 1.497 . S
C183 C39 1.534 . S
C209 C68 1.581 1_655 S
C203 N2 1.543 . S
C223 N35 1.502 . S
C229 C52 1.505 . S
