# Generated by pormake.
# Topology pts, (4,4)-cn, num edge types: 1
# Building blocks:
#     Node 0, Type 0, BuildingBlock: MUDLON_clean_sbu_0, # of connection points: 4
#     Node 1, Type 0, BuildingBlock: MUDLON_clean_sbu_0, # of connection points: 4
#     Node 2, Type 1, BuildingBlock: AZAVOO_clean_sbu_0, # of connection points: 4
#     Node 3, Type 1, BuildingBlock: AZAVOO_clean_sbu_0, # of connection points: 4
#     Edge 4, Type (0, 1), BuildingBlock: AJUNOK_clean_linker_0, # of connection points: 2
#     Edge 5, Type (0, 1), BuildingBlock: AJUNOK_clean_linker_0, # of connection points: 2
#     Edge 6, Type (0, 1), BuildingBlock: AJUNOK_clean_linker_0, # of connection points: 2
#     Edge 7, Type (0, 1), BuildingBlock: AJUNOK_clean_linker_0, # of connection points: 2
#     Edge 8, Type (0, 1), BuildingBlock: AJUNOK_clean_linker_0, # of connection points: 2
#     Edge 9, Type (0, 1), BuildingBlock: AJUNOK_clean_linker_0, # of connection points: 2
#     Edge 10, Type (0, 1), BuildingBlock: AJUNOK_clean_linker_0, # of connection points: 2
#     Edge 11, Type (0, 1), BuildingBlock: AJUNOK_clean_linker_0, # of connection points: 2
# Relax obj value: 0.032
# Max RMSD: 0.087
# Mean RMSD: 0.073
data_MOF--net-pts--node1-MUDLON_clean_sbu_0--node2-AZAVOO_clean_sbu_0--edge1-AJUNOK_clean_linker_0
_symmetry_space_group_name_H-M    P1
_symmetry_Int_Tables_number       1
_symmetry_cell_setting            triclinic
loop_
_symmetry_equiv_pos_as_xyz
'x, y, z'
_cell_length_a     16.6704
_cell_length_b     18.269525
_cell_length_c     27.85984
_cell_angle_alpha  90.35424
_cell_angle_beta   96.109614
_cell_angle_gamma 90.379781
loop_
_atom_site_label
_atom_site_type_symbol
_atom_site_fract_x
_atom_site_fract_y
_atom_site_fract_z
_atom_type_partial_charge
Mg0 Mg 0.58919 0.04046 0.04816 0.0
C1 C 0.50938 -0.01376 0.95165 0.0
O2 O 0.57506 0.01495 0.93724 0.0
C3 C 0.73071 0.94995 0.10002 0.0
O4 O 0.75525 0.93996 0.0572 0.0
C5 C 0.45754 0.04713 0.10524 0.0
O6 O 0.46092 -0.01936 0.08744 0.0
O7 O 0.50855 0.0947 0.09394 0.0
O8 O 0.50411 -0.01897 0.99669 0.0
O9 O 0.66769 0.09955 1.00287 0.0
C10 C 0.7441 0.10404 1.01194 0.0
O11 O 0.7767 0.09254 0.05621 0.0
O12 O 0.66336 -0.01932 0.10322 0.0
Mg13 Mg 0.0418 0.49839 0.54228 0.0
C14 C 0.08016 0.58777 0.62838 0.0
O15 O 1.01567 0.54982 0.63599 0.0
C16 C 0.14219 0.39447 0.47104 0.0
O17 O 0.21523 0.42148 0.48141 0.0
C18 C 0.97935 0.57842 0.45291 0.0
O19 O 1.00291 0.51794 0.43314 0.0
O20 O 0.97128 0.57811 0.49788 0.0
O21 O 0.11403 0.5745 0.59028 0.0
O22 O 0.99897 0.41915 0.5923 0.0
C23 C 0.06273 0.39279 0.61495 0.0
O24 O 0.13264 0.41876 0.60476 0.0
O25 O 0.08394 0.41992 0.49169 0.0
Mg26 Mg 0.14111 0.96128 0.33017 0.0
O27 O 0.02676 0.96203 0.27635 0.0
O28 O 0.91935 0.96224 0.31755 0.0
Mg29 Mg 0.9647 0.96553 0.39806 0.0
C30 C 0.95051 0.96045 0.27764 0.0
C31 C 0.26517 0.04177 0.26589 0.0
O32 O 0.28296 0.08281 0.30449 0.0
O33 O 0.13043 0.08213 0.35007 0.0
O34 O 0.02459 0.07905 0.39292 0.0
O35 O 0.13135 0.83896 0.33112 0.0
O36 O 0.07668 0.91044 0.38244 0.0
C37 C 0.08153 0.11387 0.37552 0.0
C38 C 0.08653 0.84542 0.36613 0.0
O39 O 0.2138 -0.01 0.26704 0.0
Mg40 Mg 0.03119 0.97732 0.77575 0.0
O41 O 0.15945 -0.02144 0.81647 0.0
O42 O 0.24722 0.96997 0.76167 0.0
Mg43 Mg 0.17844 0.96657 0.68666 0.0
C44 C 0.23177 0.97407 0.80547 0.0
C45 C 0.91709 0.05582 0.84329 0.0
O46 O 0.88429 0.07732 0.80078 0.0
O47 O 0.04181 0.09576 0.75066 0.0
O48 O 0.12976 0.08199 0.69597 0.0
O49 O 0.03206 0.85439 0.77624 0.0
O50 O 0.07339 0.9199 0.71754 0.0
C51 C 0.08305 0.12155 0.71851 0.0
C52 C 0.06352 0.85641 0.73569 0.0
O53 O 0.97856 0.01445 0.84528 0.0
C54 C 0.42689 0.09662 0.18549 0.0
C55 C 0.4012 0.06033 0.14189 0.0
C56 C 0.38087 0.093 0.22499 0.0
C57 C 0.30782 0.05286 0.22215 0.0
H58 H 0.48511 0.12392 0.19017 0.0
H59 H 0.40474 0.11889 0.25863 0.0
S60 S 0.2084 0.95942 0.11262 0.0
N61 N 0.29401 -0.00879 0.09602 0.0
N62 N 0.20746 -0.01542 0.16958 0.0
C63 C 0.27903 0.0211 0.1774 0.0
C64 C 0.32575 0.02484 0.13747 0.0
C65 C 0.13692 0.30445 0.67051 0.0
C66 C 0.06224 0.33059 0.64899 0.0
C67 C 0.14225 0.23918 0.69639 0.0
C68 C 0.07309 0.19806 0.70287 0.0
H69 H 0.19279 0.33251 0.6654 0.0
H70 H 0.20147 0.2189 0.7095 0.0
S71 S 0.86211 0.24577 0.65957 0.0
N72 N 0.91655 0.31292 0.63981 0.0
N73 N 0.92689 0.1902 0.68964 0.0
C74 C 0.99737 0.22588 0.68503 0.0
C75 C 0.99185 0.29223 0.65781 0.0
C76 C 0.75932 0.95718 0.18992 0.0
C77 C 0.78731 0.94297 0.14482 0.0
C78 C 0.81236 0.96231 0.23232 0.0
C79 C 0.89608 0.9536 0.23174 0.0
H80 H 0.6958 0.96638 0.19254 0.0
H81 H 0.78724 0.97454 0.26573 0.0
S82 S 1.00002 0.90886 0.12373 0.0
N83 N 0.90408 0.91555 0.10265 0.0
N84 N 1.00399 0.92494 0.1823 0.0
C85 C 0.92483 0.93669 0.18714 0.0
C86 C 0.87048 0.93122 0.14383 0.0
C87 C 0.07942 0.65437 0.70626 0.0
C88 C 0.09838 0.65417 0.65823 0.0
C89 C 0.07312 0.7199 0.73194 0.0
C90 C 0.08438 0.78812 0.71039 0.0
H91 H 0.06496 0.6035 0.72333 0.0
H92 H 0.05518 0.71695 0.76812 0.0
S93 S 0.1431 0.81665 0.58659 0.0
N94 N 0.13591 0.72695 0.5915 0.0
N95 N 0.12147 0.85047 0.63871 0.0
C96 C 0.1084 0.78831 0.66323 0.0
C97 C 0.11624 0.72123 0.63745 0.0
C98 C 0.44702 0.97543 0.86643 0.0
C99 C 0.43758 0.97406 0.91597 0.0
C100 C 0.38031 0.97455 0.8314 0.0
C101 C 0.30076 0.9726 0.84417 0.0
H102 H 0.50662 -0.0211 0.85441 0.0
H103 H 0.39168 0.97682 0.79388 0.0
S104 S 0.24257 0.96409 0.96916 0.0
N105 N 0.34213 0.96728 0.97622 0.0
N106 N 0.21659 0.96569 0.91032 0.0
C107 C 0.29024 0.96893 0.89366 0.0
C108 C 0.35856 0.96945 0.92949 0.0
C109 C 0.19049 0.28507 0.42669 0.0
C110 C 0.12657 0.32895 0.43912 0.0
C111 C 0.17559 0.21742 0.40279 0.0
C112 C 0.09629 0.19111 0.3908 0.0
H113 H 0.25244 0.30127 0.43746 0.0
H114 H 0.22656 0.18363 0.39631 0.0
S115 S 0.90779 0.2901 0.40739 0.0
N116 N 0.98056 0.34495 0.43127 0.0
N117 N 0.95352 0.21785 0.38756 0.0
C118 C 0.03212 0.23659 0.39993 0.0
C119 C 0.047 0.30546 0.42373 0.0
C120 C 0.75954 0.11846 0.92388 0.0
C121 C 0.79471 0.10261 0.97084 0.0
C122 C 0.80073 0.10554 0.88327 0.0
C123 C 0.87874 0.07541 0.88764 0.0
H124 H 0.69844 0.13889 0.91815 0.0
H125 H 0.76965 0.11697 0.848 0.0
S126 S 1.0014 0.0301 1.00269 0.0
N127 N 0.91531 0.05996 1.01947 0.0
N128 N 0.9921 0.0352 0.94322 0.0
C129 C 0.91626 0.06235 0.9345 0.0
C130 C 0.87455 0.07619 0.97601 0.0
C131 C 0.02086 0.64831 0.38246 0.0
C132 C 0.9901 0.64908 0.4277 0.0
C133 C 0.04919 0.71234 0.36224 0.0
C134 C 0.04745 0.78032 0.38606 0.0
H135 H 0.02702 0.59721 0.36332 0.0
H136 H 0.07493 0.70791 0.32825 0.0
S137 S 0.96188 0.81451 0.50198 0.0
N138 N 0.95138 0.7254 0.49316 0.0
N139 N 1.00503 0.84559 0.45542 0.0
C140 C 1.01184 0.78289 0.42976 0.0
C141 C 0.98294 0.71745 0.45042 0.0
loop_
_geom_bond_atom_site_label_1
_geom_bond_atom_site_label_2
_geom_bond_distance
_geom_bond_site_symmetry_2
_ccdc_geom_bond_type
Mg0 O7 2.141 . S
Mg0 O8 2.048 1_554 S
Mg0 O9 2.048 1_554 S
Mg0 O12 2.141 . S
C1 O2 1.313 . S
C1 O8 1.195 1_565 S
O2 C1 1.313 . S
C3 O4 1.245 . S
C3 O12 1.289 1_565 S
O4 C3 1.245 . S
C5 O6 1.245 . S
C5 O7 1.289 1_565 S
O6 C5 1.245 . S
O7 Mg0 2.141 . S
O7 C5 1.289 1_545 S
O8 Mg0 2.048 1_556 S
O8 C1 1.195 1_545 S
O9 Mg0 2.048 1_556 S
O9 C10 1.195 1_545 S
C10 O9 1.195 1_565 S
C10 O11 1.313 . S
O11 C10 1.313 . S
O12 Mg0 2.141 . S
O12 C3 1.289 1_545 S
Mg13 O20 2.141 . S
Mg13 O21 2.048 . S
Mg13 O22 2.048 . S
Mg13 O25 2.141 . S
C14 O15 1.313 . S
C14 O21 1.195 . S
O15 C14 1.313 . S
C16 O17 1.245 . S
C16 O25 1.289 . S
O17 C16 1.245 . S
C18 O19 1.245 . S
C18 O20 1.289 . S
O19 C18 1.245 . S
O20 Mg13 2.141 . S
O20 C18 1.289 . S
O21 Mg13 2.048 . S
O21 C14 1.195 . S
O22 Mg13 2.048 . S
O22 C23 1.195 . S
C23 O22 1.195 . S
C23 O24 1.313 . S
O24 C23 1.313 . S
O25 Mg13 2.141 . S
O25 C16 1.289 . S
Mg26 O27 2.028 . S
Mg26 O33 1.986 . S
Mg26 O35 2.114 1_545 S
Mg26 O36 2.251 1_545 S
Mg26 O39 2.010 . S
O27 Mg26 2.028 . S
O27 C30 1.250 1_455 S
O28 Mg29 2.028 . S
O28 C30 1.248 . S
Mg29 O28 2.028 . S
Mg29 O34 2.032 1_655 S
Mg29 O36 2.079 1_645 S
C30 O27 1.250 1_655 S
C30 O28 1.248 . S
C31 O32 1.264 . S
C31 O39 1.249 . S
O32 C31 1.264 . S
O33 Mg26 1.986 . S
O33 C37 1.246 . S
O34 Mg29 2.032 1_455 S
O34 C37 1.259 . S
O35 Mg26 2.114 1_565 S
O35 C38 1.252 . S
O36 Mg26 2.251 1_565 S
O36 Mg29 2.079 1_465 S
O36 C38 1.273 . S
C37 O33 1.246 . S
C37 O34 1.259 . S
C38 O35 1.252 . S
C38 O36 1.273 . S
O39 Mg26 2.010 . S
O39 C31 1.249 . S
Mg40 O41 2.028 . S
Mg40 O47 1.986 . S
Mg40 O49 2.114 1_545 S
Mg40 O50 2.251 1_545 S
Mg40 O53 2.010 1_455 S
O41 Mg40 2.028 . S
O41 C44 1.250 . S
O42 Mg43 2.028 . S
O42 C44 1.248 . S
Mg43 O42 2.028 . S
Mg43 O48 2.032 . S
Mg43 O50 2.079 1_545 S
C44 O41 1.250 . S
C44 O42 1.248 . S
C45 O46 1.264 . S
C45 O53 1.249 . S
O46 C45 1.264 . S
O47 Mg40 1.986 . S
O47 C51 1.246 . S
O48 Mg43 2.032 . S
O48 C51 1.259 . S
O49 Mg40 2.114 1_565 S
O49 C52 1.252 . S
O50 Mg40 2.251 1_565 S
O50 Mg43 2.079 1_565 S
O50 C52 1.273 . S
C51 O47 1.246 . S
C51 O48 1.259 . S
C52 O49 1.252 . S
C52 O50 1.273 . S
O53 Mg40 2.010 1_655 S
O53 C45 1.249 . S
C54 C55 1.369 1_565 S
C54 C56 1.419 . S
C54 H58 0.930 . S
C55 C54 1.369 1_545 S
C55 C64 1.429 . S
C56 C54 1.419 . S
C56 C57 1.363 1_565 S
C56 H59 0.929 . S
C57 C56 1.363 1_545 S
C57 C63 1.428 . S
H58 C54 0.930 . S
H59 C56 0.929 . S
S60 N61 1.613 . S
S60 N62 1.610 . S
N61 S60 1.613 . S
N61 C64 1.350 . S
N62 S60 1.610 . S
N62 C63 1.351 . S
C63 C57 1.428 . S
C63 N62 1.351 . S
C63 C64 1.434 . S
C64 C55 1.429 . S
C64 N61 1.350 . S
C64 C63 1.434 . S
C65 C66 1.369 . S
C65 C67 1.419 . S
C65 H69 0.930 . S
C66 C65 1.369 . S
C66 C75 1.429 1_455 S
C67 C65 1.419 . S
C67 C68 1.363 . S
C67 H70 0.929 . S
C68 C67 1.363 . S
C68 C74 1.428 1_455 S
H69 C65 0.930 . S
H70 C67 0.929 . S
S71 N72 1.613 . S
S71 N73 1.610 . S
N72 S71 1.613 . S
N72 C75 1.350 . S
N73 S71 1.610 . S
N73 C74 1.351 . S
C74 C68 1.428 1_655 S
C74 N73 1.351 . S
C74 C75 1.434 . S
C75 C66 1.429 1_655 S
C75 N72 1.350 . S
C75 C74 1.434 . S
C76 C77 1.369 . S
C76 C78 1.419 . S
C76 H80 0.930 . S
C77 C76 1.369 . S
C77 C86 1.429 1_545 S
C78 C76 1.419 . S
C78 C79 1.363 . S
C78 H81 0.929 . S
C79 C78 1.363 . S
C79 C85 1.428 1_545 S
H80 C76 0.930 . S
H81 C78 0.929 . S
S82 N83 1.613 . S
S82 N84 1.610 . S
N83 S82 1.613 . S
N83 C86 1.350 . S
N84 S82 1.610 . S
N84 C85 1.351 . S
C85 C79 1.428 1_565 S
C85 N84 1.351 . S
C85 C86 1.434 . S
C86 C77 1.429 1_565 S
C86 N83 1.350 . S
C86 C85 1.434 . S
C87 C88 1.369 . S
C87 C89 1.419 . S
C87 H91 0.930 . S
C88 C87 1.369 . S
C88 C97 1.434 . S
C89 C87 1.419 . S
C89 C90 1.363 . S
C89 H92 0.929 . S
C90 C89 1.363 . S
C90 C96 1.428 1_455 S
H91 C87 0.930 . S
H92 C89 0.929 . S
S93 N94 1.613 . S
S93 N95 1.610 . S
N94 S93 1.613 . S
N94 C97 1.345 1_655 S
N95 S93 1.610 . S
N95 C96 1.351 . S
C96 C90 1.428 1_655 S
C96 N95 1.351 . S
C96 C97 1.433 1_655 S
C97 C88 1.434 . S
C97 N94 1.345 1_455 S
C97 C96 1.433 1_455 S
C98 C99 1.369 1_565 S
C98 C100 1.419 . S
C98 H102 0.930 . S
C99 C98 1.369 1_545 S
C99 C108 1.429 . S
C100 C98 1.419 . S
C100 C101 1.363 1_565 S
C100 H103 0.929 . S
C101 C100 1.363 1_545 S
C101 C107 1.428 . S
H102 C98 0.930 . S
H103 C100 0.929 . S
S104 N105 1.613 . S
S104 N106 1.610 . S
N105 S104 1.613 . S
N105 C108 1.350 . S
N106 S104 1.610 . S
N106 C107 1.351 . S
C107 C101 1.428 . S
C107 N106 1.351 . S
C107 C108 1.434 . S
C108 C99 1.429 . S
C108 N105 1.350 . S
C108 C107 1.434 . S
C109 C110 1.369 . S
C109 C111 1.419 . S
C109 H113 0.930 . S
C110 C109 1.369 . S
C110 C119 1.429 . S
C111 C109 1.419 . S
C111 C112 1.363 . S
C111 H114 0.929 . S
C112 C111 1.363 . S
C112 C118 1.428 . S
H113 C109 0.930 . S
H114 C111 0.929 . S
S115 N116 1.613 1_655 S
S115 N117 1.610 1_655 S
N116 S115 1.613 1_455 S
N116 C119 1.350 . S
N117 S115 1.610 1_455 S
N117 C118 1.351 . S
C118 C112 1.428 . S
C118 N117 1.351 . S
C118 C119 1.434 . S
C119 C110 1.429 . S
C119 N116 1.350 . S
C119 C118 1.434 . S
C120 C121 1.369 . S
C120 C122 1.419 . S
C120 H124 0.930 . S
C121 C120 1.369 . S
C121 C130 1.429 1_545 S
C122 C120 1.419 . S
C122 C123 1.363 . S
C122 H125 0.929 . S
C123 C122 1.363 . S
C123 C129 1.428 1_545 S
H124 C120 0.930 . S
H125 C122 0.929 . S
S126 N127 1.613 . S
S126 N128 1.610 . S
N127 S126 1.613 . S
N127 C130 1.350 . S
N128 S126 1.610 . S
N128 C129 1.351 . S
C129 C123 1.428 1_565 S
C129 N128 1.351 . S
C129 C130 1.434 . S
C130 C121 1.429 1_565 S
C130 N127 1.350 . S
C130 C129 1.434 . S
C131 C132 1.369 . S
C131 C133 1.419 . S
C131 H135 0.930 . S
C132 C131 1.369 . S
C132 C141 1.429 . S
C133 C131 1.419 . S
C133 C134 1.363 . S
C133 H136 0.929 . S
C134 C133 1.363 . S
C134 C140 1.428 . S
H135 C131 0.930 . S
H136 C133 0.929 . S
S137 N138 1.613 . S
S137 N139 1.610 . S
N138 S137 1.613 . S
N138 C141 1.350 . S
N139 S137 1.610 . S
N139 C140 1.351 . S
C140 C134 1.428 . S
C140 N139 1.351 . S
C140 C141 1.434 . S
C141 C132 1.429 . S
C141 N138 1.350 . S
C141 C140 1.434 . S
C57 C31 1.253 . S
C55 C5 1.429 1_545 S
C68 C51 1.457 . S
C66 C23 1.485 . S
C79 C30 1.420 . S
C77 C3 1.435 1_545 S
C90 C52 1.506 . S
C88 C14 1.503 . S
C101 C44 1.475 . S
C99 C1 1.501 1_545 S
C112 C37 1.394 . S
C110 C16 1.423 . S
C123 C45 1.290 . S
C121 C10 1.485 1_545 S
C132 C18 1.440 . S
C134 C38 1.447 . S
