# Generated by pormake.
# Topology scu, (8,4)-cn, num edge types: 1
# Building blocks:
#     Node 0, Type 0, BuildingBlock: TAGTUT_clean_sbu_3, # of connection points: 8
#     Node 1, Type 1, BuildingBlock: NAWXER_clean_sbu_0, # of connection points: 4
#     Node 2, Type 1, BuildingBlock: NAWXER_clean_sbu_0, # of connection points: 4
#     Edge 3, Type (0, 1), BuildingBlock: EZIPEK_clean_linker_0, # of connection points: 2
#     Edge 4, Type (0, 1), BuildingBlock: EZIPEK_clean_linker_0, # of connection points: 2
#     Edge 5, Type (0, 1), BuildingBlock: EZIPEK_clean_linker_0, # of connection points: 2
#     Edge 6, Type (0, 1), BuildingBlock: EZIPEK_clean_linker_0, # of connection points: 2
#     Edge 7, Type (0, 1), BuildingBlock: EZIPEK_clean_linker_0, # of connection points: 2
#     Edge 8, Type (0, 1), BuildingBlock: EZIPEK_clean_linker_0, # of connection points: 2
#     Edge 9, Type (0, 1), BuildingBlock: EZIPEK_clean_linker_0, # of connection points: 2
#     Edge 10, Type (0, 1), BuildingBlock: EZIPEK_clean_linker_0, # of connection points: 2
# Relax obj value: 0.033
# Max RMSD: 0.098
# Mean RMSD: 0.068
data_MOF--net-scu--node1-TAGTUT_clean_sbu_3--node2-NAWXER_clean_sbu_0--edge1-EZIPEK_clean_linker_0
_symmetry_space_group_name_H-M    P1
_symmetry_Int_Tables_number       1
_symmetry_cell_setting            triclinic
loop_
_symmetry_equiv_pos_as_xyz
'x, y, z'
_cell_length_a     20.884028
_cell_length_b     16.553982
_cell_length_c     15.135797
_cell_angle_alpha  89.729668
_cell_angle_beta   92.168029
_cell_angle_gamma 90.070393
loop_
_atom_site_label
_atom_site_type_symbol
_atom_site_fract_x
_atom_site_fract_y
_atom_site_fract_z
_atom_type_partial_charge
C0 C 0.00398 0.84977 0.11659 0.0
C1 C 0.76678 0.94079 0.1248 0.0
C2 C 0.79651 0.03805 0.86421 0.0
Mg3 Mg 0.12023 0.9065 0.00135 0.0
Mg4 Mg 0.14175 0.09812 0.95857 0.0
O5 O 0.08628 0.01078 0.94862 0.0
Mg6 Mg 0.99773 0.01382 -0.00347 0.0
O7 O 0.90943 3e-05 0.04447 0.0
Mg8 Mg 0.88094 0.89682 0.98413 0.0
Mg9 Mg 0.84796 0.08072 0.04736 0.0
C10 C 0.01566 0.17755 0.87395 0.0
O11 O 0.01279 0.11828 0.10043 0.0
O12 O 0.20451 0.91521 0.90768 0.0
O13 O 0.91156 0.16809 0.10793 0.0
O14 O 0.18409 0.97257 0.10649 0.0
O15 O 0.2153 0.04835 0.87963 0.0
O16 O 0.1802 0.10669 0.09038 0.0
O17 O 0.96849 0.91532 0.89896 0.0
O18 O 0.05735 0.84221 0.89235 0.0
C19 C 0.99942 0.857 0.8668 0.0
C20 C 0.23229 0.97463 0.87012 0.0
O21 O 0.97788 0.1192 0.89536 0.0
O22 O 0.79655 0.88967 0.0781 0.0
O23 O 0.07468 0.18267 0.90025 0.0
O24 O 0.81578 0.9659 0.88066 0.0
O25 O 0.77917 0.01658 0.12458 0.0
O26 O 0.80971 0.09664 0.91606 0.0
O27 O 0.0321 0.91275 0.08901 0.0
O28 O 0.94697 0.83167 0.08931 0.0
C29 C 0.20016 0.04372 0.13138 0.0
C30 C 0.97186 0.17064 0.12732 0.0
C31 C 0.93803 0.64268 0.58989 0.0
C32 C 0.96439 0.42992 0.37012 0.0
O33 O 0.9954 0.61747 0.58267 0.0
Zn34 Zn 0.0479 0.53333 0.50974 0.0
O35 O 0.89256 0.61342 0.54147 0.0
Zn36 Zn 0.94527 0.53708 0.47782 0.0
O37 O 0.97283 0.45427 0.57903 0.0
O38 O 0.07814 0.45888 0.60173 0.0
O39 O 0.91143 0.46366 0.38695 0.0
O40 O 0.01616 0.45115 0.41119 0.0
O41 O 0.10467 0.60333 0.44364 0.0
O42 O 0.00219 0.6151 0.4024 0.0
C43 C 0.02373 0.42967 0.62011 0.0
C44 C 0.06077 0.63529 0.39437 0.0
C45 C 0.60209 0.0509 0.58689 0.0
C46 C 0.41738 0.03619 0.37951 0.0
O47 O 0.58006 0.97917 0.57627 0.0
Zn48 Zn 0.50582 0.91935 0.49982 0.0
O49 O 0.57652 0.11009 0.54486 0.0
Zn50 Zn 0.51089 0.04798 0.48288 0.0
O51 O 0.45333 0.01002 0.58705 0.0
O52 O 0.44926 0.87691 0.58798 0.0
O53 O 0.44632 0.09968 0.40645 0.0
O54 O 0.43717 0.9671 0.40668 0.0
O55 O 0.55446 0.84859 0.42613 0.0
O56 O 0.56613 0.97872 0.39532 0.0
C57 C 0.43103 0.94439 0.61813 0.0
C58 C 0.57934 0.90458 0.38077 0.0
C59 C 0.99696 0.3139 0.16077 0.0
C60 C 0.99074 0.23369 0.19173 0.0
C61 C 0.96579 0.28221 0.3391 0.0
C62 C 0.96811 0.36274 0.30677 0.0
N63 N 0.98239 0.45737 0.18786 0.0
N64 N 0.98471 0.13957 0.31194 0.0
C65 C 0.98344 0.37932 0.21792 0.0
C66 C 0.98026 0.21743 0.28185 0.0
N67 N 0.01694 0.32638 0.07692 0.0
N68 N 0.94673 0.26792 0.42324 0.0
H69 H 0.99642 0.09196 0.27063 0.0
H70 H 0.9825 0.12272 0.37803 0.0
H71 H 0.93507 0.31413 0.46642 0.0
H72 H 0.9384 0.21071 0.44909 0.0
H73 H 0.02603 0.38278 0.04958 0.0
H74 H 0.02932 0.27834 0.03658 0.0
H75 H 0.98831 0.47411 0.12239 0.0
H76 H 0.97179 0.50617 0.22816 0.0
C77 C 0.73723 0.88789 0.27263 0.0
C78 C 0.71819 0.91093 0.18511 0.0
C79 C 0.60527 0.90527 0.22178 0.0
C80 C 0.62437 0.88724 0.31063 0.0
N81 N 0.70515 0.84277 0.41756 0.0
N82 N 0.63632 0.92213 0.06958 0.0
C83 C 0.6894 0.87156 0.33476 0.0
C84 C 0.6527 0.91292 0.15738 0.0
N85 N 0.80098 0.88564 0.29704 0.0
N86 N 0.5419 0.91832 0.20037 0.0
H87 H 0.67044 0.92788 0.0213 0.0
H88 H 0.58965 0.91784 0.04346 0.0
H89 H 0.50587 0.90829 0.24514 0.0
H90 H 0.52497 0.94137 0.13984 0.0
H91 H 0.81843 0.87855 0.36189 0.0
H92 H 0.83716 0.89441 0.25226 0.0
H93 H 0.75094 0.82403 0.43781 0.0
H94 H 0.67104 0.83177 0.46471 0.0
C95 C 0.06157 0.72357 0.16663 0.0
C96 C 0.03619 0.80042 0.18699 0.0
C97 C 0.06277 0.77725 0.34415 0.0
C98 C 0.07431 0.6953 0.32525 0.0
N99 N 0.09335 0.59031 0.22083 0.0
N100 N 0.01494 0.90359 0.29436 0.0
C101 C 0.07755 0.6688 0.2368 0.0
C102 C 0.0389 0.82907 0.27546 0.0
N103 N 0.07063 0.70378 0.08052 0.0
N104 N 0.0739 0.80445 0.42835 0.0
H105 H 0.9973 0.94343 0.24579 0.0
H106 H 0.00904 0.92434 0.35835 0.0
H107 H 0.09098 0.7663 0.47909 0.0
H108 H 0.07222 0.86514 0.44585 0.0
H109 H 0.0927 0.65092 0.0607 0.0
H110 H 0.06077 0.74409 0.02874 0.0
H111 H 0.09084 0.56387 0.15859 0.0
H112 H 0.10783 0.5507 0.27162 0.0
C113 C 0.3141 0.07951 0.17163 0.0
C114 C 0.25332 0.05125 0.19796 0.0
C115 C 0.30141 0.00425 0.33846 0.0
C116 C 0.36087 0.04097 0.31687 0.0
N117 N 0.4226 0.11831 0.2139 0.0
N118 N 0.1862 0.00103 0.31146 0.0
C119 C 0.36648 0.08118 0.23434 0.0
C120 C 0.24615 0.01819 0.28306 0.0
N121 N 0.32338 0.09863 0.08494 0.0
N122 N 0.29746 0.95333 0.40943 0.0
H123 H 0.14472 0.01082 0.27222 0.0
H124 H 0.17717 0.98489 0.37644 0.0
H125 H 0.33565 0.93924 0.45258 0.0
H126 H 0.25706 0.91849 0.42118 0.0
H127 H 0.36833 0.10945 0.05975 0.0
H128 H 0.28728 0.09657 0.03561 0.0
H129 H 0.42629 0.15818 0.16087 0.0
H130 H 0.4651 0.11231 0.25162 0.0
C131 C 0.94316 0.73031 0.81497 0.0
C132 C 0.96814 0.80794 0.79561 0.0
C133 C 0.94642 0.78596 0.637 0.0
C134 C 0.92775 0.70583 0.6564 0.0
N135 N 0.88788 0.6101 0.75984 0.0
N136 N 0.97943 0.91796 0.69214 0.0
C137 C 0.9191 0.68102 0.74449 0.0
C138 C 0.96447 0.83883 0.70769 0.0
N139 N 0.94448 0.70292 0.90026 0.0
N140 N 0.94928 0.80955 0.55057 0.0
H141 H 0.99455 0.95741 0.74219 0.0
H142 H 0.97348 0.94641 0.631 0.0
H143 H 0.93346 0.77236 0.49862 0.0
H144 H 0.96754 0.86459 0.52975 0.0
H145 H 0.93411 0.6437 0.91821 0.0
H146 H 0.95858 0.73925 0.95347 0.0
H147 H 0.87511 0.59049 0.82218 0.0
H148 H 0.86993 0.57392 0.70826 0.0
C149 C 0.34124 0.92289 0.83226 0.0
C150 C 0.28163 0.95805 0.80569 0.0
C151 C 0.32219 0.9913 0.66137 0.0
C152 C 0.38009 0.94896 0.68357 0.0
N153 N 0.44303 0.86849 0.78836 0.0
N154 N 0.20945 0.00385 0.68802 0.0
C155 C 0.38879 0.91197 0.76822 0.0
C156 C 0.27034 0.98537 0.71808 0.0
N157 N 0.35367 0.90421 0.9193 0.0
N158 N 0.31647 0.0398 0.58814 0.0
H159 H 0.16958 -0.00158 0.72719 0.0
H160 H 0.19764 0.01578 0.6217 0.0
H161 H 0.35192 0.04787 0.54277 0.0
H162 H 0.27776 0.07859 0.57637 0.0
H163 H 0.39865 0.88699 0.94472 0.0
H164 H 0.32005 0.91177 0.96782 0.0
H165 H 0.44865 0.83255 0.84477 0.0
H166 H 0.48145 0.86497 0.74655 0.0
C167 C 0.0258 0.21825 0.71812 0.0
C168 C 0.99809 0.23305 0.80074 0.0
C169 C 0.98865 0.37677 0.76565 0.0
C170 C 0.01771 0.36257 0.68378 0.0
N171 N 0.05324 0.26927 0.57388 0.0
N172 N 0.93833 0.31884 0.89394 0.0
C173 C 0.03287 0.28297 0.65735 0.0
C174 C 0.97435 0.31012 0.8212 0.0
N175 N 0.04832 0.14272 0.70026 0.0
N176 N 0.97779 0.45425 0.79196 0.0
H177 H 0.92698 0.26961 0.93386 0.0
H178 H 0.91523 0.37217 0.91004 0.0
H179 H 0.98951 0.50434 0.75369 0.0
H180 H 0.96223 0.46933 0.85428 0.0
H181 H 0.07668 0.12937 0.6472 0.0
H182 H 0.04044 0.09322 0.74139 0.0
H183 H 0.05831 0.21199 0.54702 0.0
H184 H 0.06129 0.31552 0.52859 0.0
C185 C 0.68599 0.07535 0.80918 0.0
C186 C 0.74943 0.05159 0.7902 0.0
C187 C 0.71785 0.03666 0.63351 0.0
C188 C 0.65524 0.06323 0.65244 0.0
N189 N 0.58284 0.12394 0.75304 0.0
N190 N 0.82933 0.02375 0.68383 0.0
C191 C 0.64061 0.08855 0.73851 0.0
C192 C 0.76651 0.03652 0.702 0.0
N193 N 0.66756 0.07941 0.89491 0.0
N194 N 0.73017 0.00982 0.55057 0.0
H195 H 0.86593 0.02388 0.73273 0.0
H196 H 0.846 0.0195 0.62008 0.0
H197 H 0.69657 0.01345 0.49786 0.0
H198 H 0.77232 0.9806 0.53481 0.0
H199 H 0.62017 0.08666 0.91237 0.0
H200 H 0.6983 0.06789 0.94934 0.0
H201 H 0.57215 0.15155 0.81238 0.0
H202 H 0.54746 0.13221 0.70337 0.0
loop_
_geom_bond_atom_site_label_1
_geom_bond_atom_site_label_2
_geom_bond_distance
_geom_bond_site_symmetry_2
_ccdc_geom_bond_type
C0 O27 1.312 1_655 S
C0 O28 1.208 . S
C1 O22 1.331 . S
C1 O25 1.244 1_565 S
C2 O24 1.264 1_545 S
C2 O26 1.273 . S
Mg3 O5 1.936 1_565 S
Mg3 O12 2.081 . S
Mg3 O14 2.023 1_556 S
Mg3 O18 2.031 . S
Mg3 O27 2.291 1_556 S
Mg4 O5 1.963 . S
Mg4 O15 1.942 . S
Mg4 O16 1.955 1_556 S
Mg4 O23 1.986 . S
O5 Mg3 1.936 1_545 S
O5 Mg4 1.963 . S
O5 Mg6 1.915 1_556 S
Mg6 O5 1.915 1_554 S
Mg6 O7 1.915 1_455 S
Mg6 O11 2.013 . S
Mg6 O17 2.114 1_444 S
Mg6 O21 2.013 1_454 S
Mg6 O27 2.114 1_545 S
O7 Mg6 1.915 1_655 S
O7 Mg8 1.936 1_545 S
O7 Mg9 1.963 . S
Mg8 O7 1.936 1_565 S
Mg8 O17 2.291 1_554 S
Mg8 O22 2.081 . S
Mg8 O24 2.023 1_554 S
Mg8 O28 2.031 . S
Mg9 O7 1.963 . S
Mg9 O13 1.986 . S
Mg9 O25 1.942 . S
Mg9 O26 1.955 1_554 S
C10 O21 1.191 1_455 S
C10 O23 1.307 . S
O11 Mg6 2.013 . S
O11 C30 1.191 1_455 S
O12 Mg3 2.081 . S
O12 C20 1.331 . S
O13 Mg9 1.986 . S
O13 C30 1.307 . S
O14 Mg3 2.023 1_554 S
O14 C29 1.264 1_565 S
O15 Mg4 1.942 . S
O15 C20 1.244 1_545 S
O16 Mg4 1.955 1_554 S
O16 C29 1.273 . S
O17 Mg6 2.114 1_666 S
O17 Mg8 2.291 1_556 S
O17 C19 1.312 1_655 S
O18 Mg3 2.031 . S
O18 C19 1.208 . S
C19 O17 1.312 1_455 S
C19 O18 1.208 . S
C20 O12 1.331 . S
C20 O15 1.244 1_565 S
O21 Mg6 2.013 1_656 S
O21 C10 1.191 1_655 S
O22 C1 1.331 . S
O22 Mg8 2.081 . S
O23 Mg4 1.986 . S
O23 C10 1.307 . S
O24 C2 1.264 1_565 S
O24 Mg8 2.023 1_556 S
O25 C1 1.244 1_545 S
O25 Mg9 1.942 . S
O26 C2 1.273 . S
O26 Mg9 1.955 1_556 S
O27 C0 1.312 1_455 S
O27 Mg3 2.291 1_554 S
O27 Mg6 2.114 1_565 S
O28 C0 1.208 . S
O28 Mg8 2.031 . S
C29 O14 1.264 1_545 S
C29 O16 1.273 . S
C30 O11 1.191 1_655 S
C30 O13 1.307 . S
C31 O33 1.251 . S
C31 O35 1.254 1_455 S
C32 O39 1.247 . S
C32 O40 1.258 1_655 S
O33 C31 1.251 . S
O33 Zn34 2.028 . S
Zn34 O33 2.028 . S
Zn34 O38 2.035 . S
Zn34 O40 2.035 . S
Zn34 O41 2.028 . S
O35 C31 1.254 1_655 S
O35 Zn36 2.035 . S
Zn36 O35 2.035 . S
Zn36 O37 2.028 . S
Zn36 O39 2.028 . S
Zn36 O42 2.035 . S
O37 Zn36 2.028 . S
O37 C43 1.247 . S
O38 Zn34 2.035 . S
O38 C43 1.258 1_455 S
O39 C32 1.247 . S
O39 Zn36 2.028 . S
O40 C32 1.258 1_455 S
O40 Zn34 2.035 . S
O41 Zn34 2.028 . S
O41 C44 1.251 . S
O42 Zn36 2.035 . S
O42 C44 1.254 1_655 S
C43 O37 1.247 . S
C43 O38 1.258 1_655 S
C44 O41 1.251 . S
C44 O42 1.254 1_455 S
C45 O47 1.247 1_545 S
C45 O49 1.258 . S
C46 O53 1.247 . S
C46 O54 1.258 1_545 S
O47 C45 1.247 1_565 S
O47 Zn48 2.028 . S
Zn48 O47 2.028 . S
Zn48 O52 2.035 . S
Zn48 O54 2.035 . S
Zn48 O55 2.028 . S
O49 C45 1.258 . S
O49 Zn50 2.035 . S
Zn50 O49 2.035 . S
Zn50 O51 2.028 . S
Zn50 O53 2.028 . S
Zn50 O56 2.035 . S
O51 Zn50 2.028 . S
O51 C57 1.247 . S
O52 Zn48 2.035 . S
O52 C57 1.258 1_565 S
O53 C46 1.247 . S
O53 Zn50 2.028 . S
O54 C46 1.258 1_565 S
O54 Zn48 2.035 . S
O55 Zn48 2.028 . S
O55 C58 1.247 1_565 S
O56 Zn50 2.035 . S
O56 C58 1.258 . S
C57 O51 1.247 . S
C57 O52 1.258 1_545 S
C58 O55 1.247 1_545 S
C58 O56 1.258 . S
C59 C60 1.354 1_455 S
C59 C65 1.379 . S
C59 N67 1.356 . S
C60 C59 1.354 1_655 S
C60 C66 1.372 . S
C61 C62 1.363 . S
C61 C66 1.379 . S
C61 N68 1.356 . S
C62 C61 1.363 . S
C62 C65 1.363 1_655 S
N63 C65 1.356 . S
N63 H75 0.984 . S
N63 H76 0.985 . S
N64 C66 1.356 . S
N64 H69 0.984 . S
N64 H70 0.985 . S
C65 C59 1.379 . S
C65 C62 1.363 1_455 S
C65 N63 1.356 . S
C66 C60 1.372 . S
C66 C61 1.379 . S
C66 N64 1.356 . S
N67 C59 1.356 . S
N67 H73 0.984 . S
N67 H74 0.984 . S
N68 C61 1.356 . S
N68 H71 0.984 . S
N68 H72 0.985 . S
H69 N64 0.984 . S
H70 N64 0.985 . S
H71 N68 0.984 . S
H72 N68 0.985 . S
H73 N67 0.984 . S
H74 N67 0.984 . S
H75 N63 0.984 . S
H76 N63 0.985 . S
C77 C78 1.363 1_545 S
C77 C83 1.379 . S
C77 N85 1.356 . S
C78 C77 1.363 1_565 S
C78 C84 1.363 . S
C79 C80 1.363 1_565 S
C79 C84 1.379 . S
C79 N86 1.356 . S
C80 C79 1.363 1_545 S
C80 C83 1.363 . S
N81 C83 1.356 . S
N81 H93 0.984 . S
N81 H94 0.985 . S
N82 C84 1.356 . S
N82 H87 0.984 . S
N82 H88 0.985 . S
C83 C77 1.379 . S
C83 C80 1.363 . S
C83 N81 1.356 . S
C84 C78 1.363 . S
C84 C79 1.379 . S
C84 N82 1.356 . S
N85 C77 1.356 . S
N85 H91 0.984 . S
N85 H92 0.984 . S
N86 C79 1.356 . S
N86 H89 0.984 . S
N86 H90 0.985 . S
H87 N82 0.984 . S
H88 N82 0.985 . S
H89 N86 0.984 . S
H90 N86 0.985 . S
H91 N85 0.984 . S
H92 N85 0.984 . S
H93 N81 0.984 . S
H94 N81 0.985 . S
C95 C96 1.363 . S
C95 C101 1.379 . S
C95 N103 1.356 . S
C96 C95 1.363 . S
C96 C102 1.363 1_455 S
C97 C98 1.349 1_655 S
C97 C102 1.379 . S
C97 N104 1.356 . S
C98 C97 1.349 1_455 S
C98 C101 1.378 . S
N99 C101 1.356 . S
N99 H111 0.984 . S
N99 H112 0.985 . S
N100 C102 1.356 . S
N100 H105 0.984 . S
N100 H106 0.985 . S
C101 C95 1.379 . S
C101 C98 1.378 . S
C101 N99 1.356 . S
C102 C96 1.363 1_655 S
C102 C97 1.379 . S
C102 N100 1.356 . S
N103 C95 1.356 . S
N103 H109 0.984 . S
N103 H110 0.984 . S
N104 C97 1.356 . S
N104 H107 0.984 . S
N104 H108 0.985 . S
H105 N100 0.984 . S
H106 N100 0.985 . S
H107 N104 0.984 . S
H108 N104 0.985 . S
H109 N103 0.984 . S
H110 N103 0.984 . S
H111 N99 0.984 . S
H112 N99 0.985 . S
C113 C114 1.363 . S
C113 C119 1.379 . S
C113 N121 1.356 . S
C114 C113 1.363 . S
C114 C120 1.363 1_545 S
C115 C116 1.363 1_565 S
C115 C120 1.379 . S
C115 N122 1.356 . S
C116 C115 1.363 1_545 S
C116 C119 1.363 . S
N117 C119 1.356 . S
N117 H129 0.984 . S
N117 H130 0.985 . S
N118 C120 1.356 . S
N118 H123 0.984 . S
N118 H124 0.985 . S
C119 C113 1.379 . S
C119 C116 1.363 . S
C119 N117 1.356 . S
C120 C114 1.363 1_565 S
C120 C115 1.379 . S
C120 N118 1.356 . S
N121 C113 1.356 . S
N121 H127 0.984 . S
N121 H128 0.984 . S
N122 C115 1.356 . S
N122 H125 0.984 . S
N122 H126 0.985 . S
H123 N118 0.984 . S
H124 N118 0.985 . S
H125 N122 0.984 . S
H126 N122 0.985 . S
H127 N121 0.984 . S
H128 N121 0.984 . S
H129 N117 0.984 . S
H130 N117 0.985 . S
C131 C132 1.363 1_455 S
C131 C137 1.379 . S
C131 N139 1.356 . S
C132 C131 1.363 1_655 S
C132 C138 1.363 . S
C133 C134 1.370 . S
C133 C138 1.379 . S
C133 N140 1.356 . S
C134 C133 1.370 . S
C134 C137 1.357 1_655 S
N135 C137 1.356 . S
N135 H147 0.984 . S
N135 H148 0.985 . S
N136 C138 1.356 . S
N136 H141 0.984 . S
N136 H142 0.985 . S
C137 C131 1.379 . S
C137 C134 1.357 1_455 S
C137 N135 1.356 . S
C138 C132 1.363 . S
C138 C133 1.379 . S
C138 N136 1.356 . S
N139 C131 1.356 . S
N139 H145 0.984 . S
N139 H146 0.984 . S
N140 C133 1.356 . S
N140 H143 0.984 . S
N140 H144 0.985 . S
H141 N136 0.984 . S
H142 N136 0.985 . S
H143 N140 0.984 . S
H144 N140 0.985 . S
H145 N139 0.984 . S
H146 N139 0.984 . S
H147 N135 0.984 . S
H148 N135 0.985 . S
C149 C150 1.363 . S
C149 C155 1.379 . S
C149 N157 1.356 . S
C150 C149 1.363 . S
C150 C156 1.363 1_565 S
C151 C152 1.363 . S
C151 C156 1.379 . S
C151 N158 1.356 . S
C152 C151 1.363 . S
C152 C155 1.363 1_545 S
N153 C155 1.356 . S
N153 H165 0.984 . S
N153 H166 0.985 . S
N154 C156 1.356 . S
N154 H159 0.984 . S
N154 H160 0.985 . S
C155 C149 1.379 . S
C155 C152 1.363 1_565 S
C155 N153 1.356 . S
C156 C150 1.363 1_545 S
C156 C151 1.379 . S
C156 N154 1.356 . S
N157 C149 1.356 . S
N157 H163 0.984 . S
N157 H164 0.984 . S
N158 C151 1.356 . S
N158 H161 0.984 . S
N158 H162 0.985 . S
H159 N154 0.984 . S
H160 N154 0.985 . S
H161 N158 0.984 . S
H162 N158 0.985 . S
H163 N157 0.984 . S
H164 N157 0.984 . S
H165 N153 0.984 . S
H166 N153 0.985 . S
C167 C168 1.363 . S
C167 C173 1.379 . S
C167 N175 1.356 . S
C168 C167 1.363 . S
C168 C174 1.363 1_455 S
C169 C170 1.361 1_655 S
C169 C174 1.379 . S
C169 N176 1.356 . S
C170 C169 1.361 1_455 S
C170 C173 1.365 . S
N171 C173 1.356 . S
N171 H183 0.984 . S
N171 H184 0.985 . S
N172 C174 1.356 . S
N172 H177 0.984 . S
N172 H178 0.985 . S
C173 C167 1.379 . S
C173 C170 1.365 . S
C173 N171 1.356 . S
C174 C168 1.363 1_655 S
C174 C169 1.379 . S
C174 N172 1.356 . S
N175 C167 1.356 . S
N175 H181 0.984 . S
N175 H182 0.984 . S
N176 C169 1.356 . S
N176 H179 0.984 . S
N176 H180 0.985 . S
H177 N172 0.984 . S
H178 N172 0.985 . S
H179 N176 0.984 . S
H180 N176 0.985 . S
H181 N175 0.984 . S
H182 N175 0.984 . S
H183 N171 0.984 . S
H184 N171 0.985 . S
C185 C186 1.363 1_565 S
C185 C191 1.379 . S
C185 N193 1.356 . S
C186 C185 1.363 1_545 S
C186 C192 1.363 . S
C187 C188 1.363 . S
C187 C192 1.379 . S
C187 N194 1.356 . S
C188 C187 1.363 . S
C188 C191 1.363 1_545 S
N189 C191 1.356 . S
N189 H201 0.984 . S
N189 H202 0.985 . S
N190 C192 1.356 . S
N190 H195 0.984 . S
N190 H196 0.985 . S
C191 C185 1.379 . S
C191 C188 1.363 1_565 S
C191 N189 1.356 . S
C192 C186 1.363 . S
C192 C187 1.379 . S
C192 N190 1.356 . S
N193 C185 1.356 . S
N193 H199 0.984 . S
N193 H200 0.984 . S
N194 C187 1.356 . S
N194 H197 0.984 . S
N194 H198 0.985 . S
H195 N190 0.984 . S
H196 N190 0.985 . S
H197 N194 0.984 . S
H198 N194 0.985 . S
H199 N193 0.984 . S
H200 N193 0.984 . S
H201 N189 0.984 . S
H202 N189 0.985 . S
C60 C30 1.406 . S
C62 C32 1.439 . S
C78 C1 1.468 . S
C80 C58 1.494 . S
C96 C0 1.397 1_455 S
C98 C44 1.454 . S
C114 C29 1.502 . S
C116 C46 1.533 . S
C132 C19 1.397 1_655 S
C134 C31 1.455 1_655 S
C150 C20 1.468 . S
C152 C57 1.496 . S
C170 C43 1.440 1_455 S
C168 C10 1.405 . S
C186 C2 1.502 . S
C188 C45 1.536 . S
