# Generated by pormake.
# Topology rtl, (3,6)-cn, num edge types: 1
# Building blocks:
#     Node 0, Type 0, BuildingBlock: OLANEW_clean_sbu_2, # of connection points: 3
#     Node 1, Type 0, BuildingBlock: OLANEW_clean_sbu_2, # of connection points: 3
#     Node 2, Type 0, BuildingBlock: OLANEW_clean_sbu_2, # of connection points: 3
#     Node 3, Type 0, BuildingBlock: OLANEW_clean_sbu_2, # of connection points: 3
#     Node 4, Type 1, BuildingBlock: CIFDUS_clean_sbu_1, # of connection points: 6
#     Node 5, Type 1, BuildingBlock: CIFDUS_clean_sbu_1, # of connection points: 6
#     Edge 6, Type (0, 1), None
#     Edge 7, Type (0, 1), None
#     Edge 8, Type (0, 1), None
#     Edge 9, Type (0, 1), None
#     Edge 10, Type (0, 1), None
#     Edge 11, Type (0, 1), None
#     Edge 12, Type (0, 1), None
#     Edge 13, Type (0, 1), None
#     Edge 14, Type (0, 1), None
#     Edge 15, Type (0, 1), None
#     Edge 16, Type (0, 1), None
#     Edge 17, Type (0, 1), None
# Relax obj value: 0.022
# Max RMSD: 0.108
# Mean RMSD: 0.065
data_MOF--net-rtl--node1-OLANEW_clean_sbu_2--node2-CIFDUS_clean_sbu_1--edge1-none
_symmetry_space_group_name_H-M    P1
_symmetry_Int_Tables_number       1
_symmetry_cell_setting            triclinic
loop_
_symmetry_equiv_pos_as_xyz
'x, y, z'
_cell_length_a     17.644421
_cell_length_b     18.029415
_cell_length_c     11.22219
_cell_angle_alpha  83.726572
_cell_angle_beta   105.42601
_cell_angle_gamma 92.655594
loop_
_atom_site_label
_atom_site_type_symbol
_atom_site_fract_x
_atom_site_fract_y
_atom_site_fract_z
_atom_type_partial_charge
O0 O 0.19277 0.83578 0.89907 0.0
Cd1 Cd 0.2698 0.73741 0.04539 0.0
O2 O 0.235 0.89805 0.06063 0.0
Cd3 Cd 0.2391 0.9869 0.18 0.0
O4 O 0.18617 0.99879 0.33227 0.0
C5 C 0.14084 0.94387 0.34821 0.0
O6 O 0.13329 0.88929 0.27701 0.0
C7 C 0.1954 0.89629 0.94829 0.0
C8 C 0.38814 0.68837 0.95178 0.0
O9 O 0.32301 0.65192 0.9407 0.0
O10 O 0.39794 0.74738 0.00844 0.0
O11 O 0.76433 0.69471 0.96051 0.0
Cd12 Cd 0.88827 0.77017 0.96142 0.0
O13 O 0.76982 0.67875 0.77502 0.0
Cd14 Cd 0.72901 0.64878 0.59051 0.0
O15 O 0.71344 0.59704 0.42476 0.0
C16 C 0.67233 0.6225 0.3188 0.0
O17 O 0.63805 0.68718 0.30429 0.0
C18 C 0.73556 0.6645 0.86082 0.0
C19 C 0.91142 0.84837 0.73935 0.0
O20 O 0.90079 0.88513 0.82474 0.0
O21 O 0.90878 0.77706 0.75691 0.0
O22 O 0.81874 0.12385 0.19136 0.0
Cd23 Cd 0.75782 0.19698 0.98698 0.0
O24 O 0.91774 0.19862 0.26445 0.0
Cd25 Cd 0.88995 0.24159 0.06948 0.0
O26 O 0.93474 0.20291 0.92367 0.0
C27 C 0.92057 0.14311 0.86952 0.0
O28 O 0.86415 0.09686 0.88781 0.0
C29 C 0.87739 0.14021 0.2799 0.0
C30 C 0.67078 0.31728 0.01526 0.0
O31 O 0.64019 0.25191 1.00168 0.0
O32 O 0.74266 0.32665 0.01223 0.0
O33 O 0.40995 0.36792 0.6667 0.0
Cd34 Cd 0.32679 0.29115 0.50571 0.0
O35 O 0.36234 0.4533 0.51738 0.0
Cd36 Cd 0.33889 0.55489 0.39113 0.0
O37 O 0.3727 0.54487 0.22008 0.0
C38 C 0.38044 0.47816 0.19846 0.0
O39 O 0.35698 0.42339 0.26817 0.0
C40 C 0.40782 0.43635 0.6246 0.0
C41 C 0.21589 0.19937 0.59086 0.0
O42 O 0.28359 0.17517 0.59413 0.0
O43 O 0.20007 0.26687 0.54546 0.0
O44 O 0.96831 0.09584 0.47366 0.0
Mn45 Mn 0.03712 0.02865 0.62806 0.0
O46 O 0.87987 0.0169 0.36434 0.0
Mn47 Mn 0.9301 0.9298 0.4391 0.0
O48 O 0.10429 0.9566 0.77265 0.0
O49 O 0.12239 0.11223 0.6632 0.0
Mn50 Mn 0.13586 0.11371 0.82643 0.0
O51 O 0.9708 0.06753 0.74222 0.0
O52 O 0.17637 0.02584 0.91616 0.0
O53 O 0.09865 0.99316 0.50841 0.0
O54 O 0.0198 0.91235 0.39029 0.0
O55 O 0.204 0.18398 0.79424 0.0
O56 O 0.04875 0.14908 0.85627 0.0
C57 C 0.91648 0.88453 0.61732 0.0
C58 C 0.9081 0.08232 0.38284 0.0
C59 C 0.15536 0.96299 0.87635 0.0
C60 C 0.17657 0.16538 0.68236 0.0
C61 C 0.98208 0.11909 0.81663 0.0
C62 C 0.08455 0.94847 0.42291 0.0
O63 O 0.95916 0.94271 0.59774 0.0
O64 O 0.88116 0.85421 0.51756 0.0
O65 O 0.59571 0.58672 0.12491 0.0
Mn66 Mn 0.54555 0.5292 0.96976 0.0
O67 O 0.66718 0.50282 0.26429 0.0
Mn68 Mn 0.60186 0.42844 0.19788 0.0
O69 O 0.49127 0.4743 0.81301 0.0
O70 O 0.48629 0.62128 0.88953 0.0
Mn71 Mn 0.495 0.64361 0.73628 0.0
O72 O 0.64349 0.5698 0.90504 0.0
O73 O 0.45069 0.56164 0.65144 0.0
O74 O 0.45062 0.49976 0.0441 0.0
O75 O 0.50236 0.42849 0.2208 0.0
O76 O 0.42849 0.71299 0.76427 0.0
O77 O 0.60123 0.66631 0.75969 0.0
C78 C 0.6389 0.36535 0.08587 0.0
C79 C 0.64734 0.56943 0.22712 0.0
C80 C 0.45405 0.49389 0.69957 0.0
C81 C 0.43855 0.67559 0.87196 0.0
C82 C 0.65621 0.62922 0.83673 0.0
C83 C 0.44556 0.46421 0.147 0.0
O84 O 0.60274 0.42883 0.04077 0.0
O85 O 0.64664 0.34177 0.20176 0.0
loop_
_geom_bond_atom_site_label_1
_geom_bond_atom_site_label_2
_geom_bond_distance
_geom_bond_site_symmetry_2
_ccdc_geom_bond_type
O0 Cd1 2.300 1_556 S
O0 C7 1.275 . S
Cd1 O0 2.300 1_554 S
Cd1 O9 2.381 1_554 S
Cd1 O10 2.378 . S
O2 Cd3 2.385 1_565 S
O2 C7 1.255 1_554 S
Cd3 O2 2.385 1_545 S
Cd3 O4 2.317 1_545 S
O4 Cd3 2.317 1_565 S
O4 C5 1.232 . S
C5 O4 1.232 . S
C5 O6 1.218 1_565 S
O6 C5 1.218 1_545 S
C7 O0 1.275 . S
C7 O2 1.255 1_556 S
C8 O9 1.258 1_554 S
C8 O10 1.256 . S
O9 Cd1 2.381 1_556 S
O9 C8 1.258 1_556 S
O10 Cd1 2.378 . S
O10 C8 1.256 . S
O11 Cd12 2.300 . S
O11 C18 1.275 . S
Cd12 O11 2.300 . S
Cd12 O20 2.381 . S
Cd12 O21 2.378 . S
O13 Cd14 2.385 . S
O13 C18 1.255 . S
Cd14 O13 2.385 . S
Cd14 O15 2.317 . S
O15 Cd14 2.317 . S
O15 C16 1.232 . S
C16 O15 1.232 . S
C16 O17 1.218 . S
O17 C16 1.218 . S
C18 O11 1.275 . S
C18 O13 1.255 . S
C19 O20 1.258 . S
C19 O21 1.256 . S
O20 Cd12 2.381 . S
O20 C19 1.258 . S
O21 Cd12 2.378 . S
O21 C19 1.256 . S
O22 Cd23 2.300 . S
O22 C29 1.275 . S
Cd23 O22 2.300 . S
Cd23 O31 2.381 . S
Cd23 O32 2.378 1_554 S
O24 Cd25 2.385 1_655 S
O24 C29 1.255 . S
Cd25 O24 2.385 1_455 S
Cd25 O26 2.317 1_454 S
O26 Cd25 2.317 1_656 S
O26 C27 1.232 . S
C27 O26 1.232 . S
C27 O28 1.218 1_655 S
O28 C27 1.218 1_455 S
C29 O22 1.275 . S
C29 O24 1.255 . S
C30 O31 1.258 . S
C30 O32 1.256 1_554 S
O31 Cd23 2.381 . S
O31 C30 1.258 . S
O32 Cd23 2.378 1_556 S
O32 C30 1.256 1_556 S
O33 Cd34 2.300 . S
O33 C40 1.275 . S
Cd34 O33 2.300 . S
Cd34 O42 2.381 . S
Cd34 O43 2.378 . S
O35 Cd36 2.385 . S
O35 C40 1.255 . S
Cd36 O35 2.385 . S
Cd36 O37 2.317 . S
O37 Cd36 2.317 . S
O37 C38 1.232 . S
C38 O37 1.232 . S
C38 O39 1.218 . S
O39 C38 1.218 . S
C40 O33 1.275 . S
C40 O35 1.255 . S
C41 O42 1.258 . S
C41 O43 1.256 . S
O42 Cd34 2.381 . S
O42 C41 1.258 . S
O43 Cd34 2.378 . S
O43 C41 1.256 . S
O44 Mn45 2.163 1_655 S
O44 C58 1.244 . S
Mn45 O44 2.163 1_455 S
Mn45 O48 2.160 1_545 S
Mn45 O49 2.221 . S
Mn45 O51 2.163 1_455 S
Mn45 O53 2.160 1_545 S
Mn45 O63 2.221 1_445 S
O46 Mn47 2.087 1_545 S
O46 C58 1.256 . S
Mn47 O46 2.087 1_565 S
Mn47 O54 2.089 1_655 S
Mn47 O63 2.290 . S
Mn47 O64 2.251 . S
O48 Mn45 2.160 1_565 S
O48 C59 1.239 . S
O49 Mn45 2.221 . S
O49 Mn50 2.290 . S
O49 C60 1.278 . S
Mn50 O49 2.290 . S
Mn50 O52 2.089 . S
Mn50 O55 2.251 . S
Mn50 O56 2.087 . S
O51 Mn45 2.163 1_655 S
O51 C61 1.244 . S
O52 Mn50 2.089 . S
O52 C59 1.256 1_545 S
O53 Mn45 2.160 1_565 S
O53 C62 1.239 . S
O54 Mn47 2.089 1_455 S
O54 C62 1.256 . S
O55 Mn50 2.251 . S
O55 C60 1.241 . S
O56 Mn50 2.087 . S
O56 C61 1.256 1_455 S
C57 O63 1.278 . S
C57 O64 1.241 . S
C58 O44 1.244 . S
C58 O46 1.256 . S
C59 O48 1.239 . S
C59 O52 1.256 1_565 S
C60 O49 1.278 . S
C60 O55 1.241 . S
C61 O51 1.244 . S
C61 O56 1.256 1_655 S
C62 O53 1.239 . S
C62 O54 1.256 . S
O63 Mn45 2.221 1_665 S
O63 Mn47 2.290 . S
O63 C57 1.278 . S
O64 Mn47 2.251 . S
O64 C57 1.241 . S
O65 Mn66 2.163 . S
O65 C79 1.244 . S
Mn66 O65 2.163 . S
Mn66 O69 2.160 1_554 S
Mn66 O70 2.221 1_554 S
Mn66 O72 2.163 1_554 S
Mn66 O74 2.160 . S
Mn66 O84 2.221 . S
O67 Mn68 2.087 . S
O67 C79 1.256 . S
Mn68 O67 2.087 . S
Mn68 O75 2.089 . S
Mn68 O84 2.290 . S
Mn68 O85 2.251 . S
O69 Mn66 2.160 1_556 S
O69 C80 1.239 . S
O70 Mn66 2.221 1_556 S
O70 Mn71 2.290 . S
O70 C81 1.278 . S
Mn71 O70 2.290 . S
Mn71 O73 2.089 . S
Mn71 O76 2.251 . S
Mn71 O77 2.087 . S
O72 Mn66 2.163 1_556 S
O72 C82 1.244 . S
O73 Mn71 2.089 . S
O73 C80 1.256 . S
O74 Mn66 2.160 . S
O74 C83 1.239 . S
O75 Mn68 2.089 . S
O75 C83 1.256 . S
O76 Mn71 2.251 . S
O76 C81 1.241 . S
O77 Mn71 2.087 . S
O77 C82 1.256 . S
C78 O84 1.278 . S
C78 O85 1.241 . S
C79 O65 1.244 . S
C79 O67 1.256 . S
C80 O69 1.239 . S
C80 O73 1.256 . S
C81 O70 1.278 . S
C81 O76 1.241 . S
C82 O72 1.244 . S
C82 O77 1.256 . S
C83 O74 1.239 . S
C83 O75 1.256 . S
O84 Mn66 2.221 . S
O84 Mn68 2.290 . S
O84 C78 1.278 . S
O85 Mn68 2.251 . S
O85 C78 1.241 . S
C60 C41 1.185 . S
C8 C81 1.455 1_554 S
C19 C57 1.882 . S
C30 C78 1.219 . S
C62 C5 1.670 . S
C82 C18 1.917 . S
C29 C58 1.617 . S
C40 C80 1.640 . S
C79 C16 1.266 . S
C61 C27 1.069 . S
C83 C38 1.627 . S
C7 C59 1.301 . S
