# Generated by pormake.
# Topology pth, (4,4)-cn, num edge types: 1
# Building blocks:
#     Node 0, Type 0, BuildingBlock: CEKHIL_clean_sbu_0, # of connection points: 4
#     Node 1, Type 0, BuildingBlock: CEKHIL_clean_sbu_0, # of connection points: 4
#     Node 2, Type 0, BuildingBlock: CEKHIL_clean_sbu_0, # of connection points: 4
#     Node 3, Type 1, BuildingBlock: NAWXER_clean_sbu_0, # of connection points: 4
#     Node 4, Type 1, BuildingBlock: NAWXER_clean_sbu_0, # of connection points: 4
#     Node 5, Type 1, BuildingBlock: NAWXER_clean_sbu_0, # of connection points: 4
#     Edge 6, Type (0, 1), BuildingBlock: OJICUG_clean_linker_0, # of connection points: 2
#     Edge 7, Type (0, 1), BuildingBlock: OJICUG_clean_linker_0, # of connection points: 2
#     Edge 8, Type (0, 1), BuildingBlock: OJICUG_clean_linker_0, # of connection points: 2
#     Edge 9, Type (0, 1), BuildingBlock: OJICUG_clean_linker_0, # of connection points: 2
#     Edge 10, Type (0, 1), BuildingBlock: OJICUG_clean_linker_0, # of connection points: 2
#     Edge 11, Type (0, 1), BuildingBlock: OJICUG_clean_linker_0, # of connection points: 2
#     Edge 12, Type (0, 1), BuildingBlock: OJICUG_clean_linker_0, # of connection points: 2
#     Edge 13, Type (0, 1), BuildingBlock: OJICUG_clean_linker_0, # of connection points: 2
#     Edge 14, Type (0, 1), BuildingBlock: OJICUG_clean_linker_0, # of connection points: 2
#     Edge 15, Type (0, 1), BuildingBlock: OJICUG_clean_linker_0, # of connection points: 2
#     Edge 16, Type (0, 1), BuildingBlock: OJICUG_clean_linker_0, # of connection points: 2
#     Edge 17, Type (0, 1), BuildingBlock: OJICUG_clean_linker_0, # of connection points: 2
# Relax obj value: 0.003
# Max RMSD: 0.042
# Mean RMSD: 0.026
data_MOF--net-pth--node1-CEKHIL_clean_sbu_0--node2-NAWXER_clean_sbu_0--edge1-OJICUG_clean_linker_0
_symmetry_space_group_name_H-M    P1
_symmetry_Int_Tables_number       1
_symmetry_cell_setting            triclinic
loop_
_symmetry_equiv_pos_as_xyz
'x, y, z'
_cell_length_a     16.479518
_cell_length_b     16.468726
_cell_length_c     41.359627
_cell_angle_alpha  90.726001
_cell_angle_beta   90.137666
_cell_angle_gamma 120.15243
loop_
_atom_site_label
_atom_site_type_symbol
_atom_site_fract_x
_atom_site_fract_y
_atom_site_fract_z
_atom_type_partial_charge
Co0 Co 0.06671 0.06316 0.10448 0.0
O1 O 1.00421 0.96367 0.13552 0.0
O2 O 0.13043 0.99178 0.10824 0.0
C3 C 0.06023 0.17124 0.13734 0.0
O4 O 0.15983 0.15689 0.07252 0.0
Co5 Co 1.0004 0.19244 0.07558 0.0
O6 O 0.13191 0.27333 0.0618 0.0
C7 C 0.91371 0.99143 0.05437 0.0
C8 C 0.07121 0.94486 0.13069 0.0
C9 C 0.18378 0.23667 0.06007 0.0
O10 O 0.97885 0.98163 0.0683 0.0
O11 O 0.90833 0.06615 0.05707 0.0
O12 O 0.12722 0.15185 0.14094 0.0
O13 O 1.0025 0.12795 0.11397 0.0
Co14 Co 0.03319 0.05924 0.41789 0.0
O15 O 0.97047 0.10135 0.38839 0.0
O16 O 0.0978 0.19488 0.41702 0.0
C17 C 0.02583 0.94897 0.3826 0.0
O18 O 0.12756 0.05489 0.44869 0.0
Co19 Co 0.96767 0.86051 0.44315 0.0
O20 O 0.10007 0.90944 0.45656 0.0
C21 C 0.88267 0.97164 0.46804 0.0
C22 C 0.03839 0.1864 0.39485 0.0
C23 C 0.15242 0.99802 0.45954 0.0
O24 O 0.94669 0.04791 0.45466 0.0
O25 O 0.87701 0.89171 0.464 0.0
O26 O 0.09243 0.03625 0.38041 0.0
O27 O 0.96842 0.93106 0.40596 0.0
Co28 Co 0.0404 0.06379 0.75014 0.0
O29 O 0.13762 0.12576 0.71814 0.0
O30 O 0.11119 1.00023 0.74531 0.0
C31 C 0.92859 0.06753 0.719 0.0
O32 O 0.94964 0.97133 0.78284 0.0
Co33 Co 0.91953 0.13526 0.78226 0.0
O34 O 0.85459 0.01519 0.80566 0.0
C35 C 0.12112 0.22046 0.79956 0.0
C36 C 0.15727 0.05939 0.7228 0.0
C37 C 0.88357 0.95712 0.80232 0.0
O38 O 0.12575 0.15203 0.78564 0.0
O39 O 0.04861 0.22963 0.79767 0.0
O40 O 0.94905 1.0013 0.71494 0.0
O41 O 0.97428 0.12767 0.74169 0.0
C42 C 0.98769 0.64951 0.29803 0.0
C43 C 1.00452 0.42264 0.22139 0.0
O44 O 0.06754 0.66024 0.29079 0.0
Zn45 Zn 0.13564 0.60597 0.26394 0.0
O46 O 0.91284 0.57838 0.28685 0.0
Zn47 Zn 0.97497 0.52475 0.25951 0.0
O48 O 0.0287 0.47699 0.29459 0.0
O49 O 0.18261 0.5561 0.29954 0.0
O50 O 0.92589 0.41581 0.22866 0.0
O51 O 0.08035 0.49004 0.2332 0.0
O52 O 0.19659 0.71159 0.23177 0.0
O53 O 0.04218 0.6349 0.22833 0.0
C54 C 0.10293 0.48831 0.30832 0.0
C55 C 0.12096 0.70166 0.21915 0.0
C56 C 0.67931 0.1145 0.63231 0.0
C57 C 0.46333 0.106 0.54605 0.0
O58 O 0.60952 0.03589 0.62363 0.0
Zn59 Zn 0.49293 0.97216 0.59392 0.0
O60 O 0.68845 0.19038 0.62079 0.0
Zn61 Zn 0.5769 0.1309 0.59069 0.0
O62 O 0.46582 0.07989 0.62274 0.0
O63 O 0.38841 0.9254 0.62551 0.0
O64 O 0.52983 0.18449 0.55703 0.0
O65 O 0.44803 0.02961 0.5588 0.0
O66 O 0.53612 0.90403 0.56528 0.0
O67 O 0.62055 0.05811 0.56042 0.0
C68 C 0.39909 1.00477 0.63446 0.0
C69 C 0.60398 0.97626 0.55219 0.0
C70 C 0.4841 0.43448 0.9716 0.0
C71 C 0.6939 0.64407 0.88592 0.0
O72 O 0.47126 0.49938 0.96094 0.0
Zn73 Zn 0.51666 0.60517 0.92763 0.0
O74 O 0.54599 0.41977 0.95859 0.0
Zn75 Zn 0.59282 0.52491 0.92669 0.0
O76 O 0.64701 0.64098 0.95926 0.0
O77 O 0.56455 0.71318 0.95728 0.0
O78 O 0.70086 0.57445 0.89571 0.0
O79 O 0.62842 0.65646 0.89649 0.0
O80 O 0.40907 0.55882 0.89823 0.0
O81 O 0.47721 0.47297 0.89477 0.0
C82 C 0.63302 0.70689 0.96901 0.0
C83 C 0.41271 0.48948 0.88576 0.0
C84 C 0.9627 0.24005 0.15637 0.0
C85 C 0.04546 0.23474 0.15908 0.0
H86 H 0.88328 0.30219 0.17422 0.0
C87 C 0.11116 0.28807 0.18315 0.0
H88 H 0.91 0.19888 0.13817 0.0
C89 C 0.09566 0.34695 0.20359 0.0
C90 C 0.01369 0.35354 0.20069 0.0
H91 H 0.17485 0.2849 0.18607 0.0
H92 H 0.14865 0.38786 0.22176 0.0
C93 C 0.94665 0.29846 0.17713 0.0
C94 C 0.80515 0.05456 0.49347 0.0
C95 C 0.80971 0.97264 0.48886 0.0
H96 H 0.73568 0.11903 0.51638 0.0
C97 C 0.7419 0.8894 0.50398 0.0
H98 H 0.85516 0.11941 0.48205 0.0
C99 C 0.67268 0.88873 0.52373 0.0
C100 C 0.66964 0.97125 0.52886 0.0
H101 H 0.74254 0.82434 0.50088 0.0
H102 H 0.6232 0.82435 0.53552 0.0
C103 C 0.73601 0.05382 0.51315 0.0
C104 C 0.82492 0.78534 0.81308 0.0
C105 C 0.84672 0.87561 0.82407 0.0
H106 H 0.75854 0.63799 0.82444 0.0
C107 C 0.83359 0.88883 0.85671 0.0
H108 H 0.83562 0.77374 0.78801 0.0
C109 C 0.79435 0.81306 0.87755 0.0
C110 C 0.76467 0.72133 0.86622 0.0
H111 H 0.8519 0.9578 0.86606 0.0
H112 H 0.78085 0.82531 0.90227 0.0
C113 C 0.78262 0.70808 0.83397 0.0
C114 C 0.16777 0.87447 0.15089 0.0
C115 C 0.0858 0.88164 0.15229 0.0
H116 H 0.2455 0.81325 0.17125 0.0
C117 C 0.02044 0.8333 0.17644 0.0
H118 H 0.22036 0.91215 0.13277 0.0
C119 C 0.03537 0.77844 0.19831 0.0
C120 C 0.11613 0.7695 0.19689 0.0
H121 H 0.95746 0.83806 0.17865 0.0
H122 H 0.98247 0.74229 0.21652 0.0
C123 C 0.18305 0.81902 0.17312 0.0
C124 C 0.28859 0.98487 0.47901 0.0
C125 C 0.24253 0.03668 0.47766 0.0
H126 H 0.39806 0.97012 0.50048 0.0
C127 C 0.2809 0.12265 0.49509 0.0
H128 H 0.2622 0.91962 0.46542 0.0
C129 C 0.35929 0.15175 0.51566 0.0
C130 C 0.40074 0.09572 0.51862 0.0
H131 H 0.24705 0.16447 0.49433 0.0
H132 H 0.383 0.21396 0.53077 0.0
C133 C 0.36701 0.01446 0.49895 0.0
C134 C 0.1972 0.37133 0.83157 0.0
C135 C 0.20024 0.29213 0.81965 0.0
H136 H 0.26118 0.49536 0.86152 0.0
C137 C 0.27668 0.28158 0.82832 0.0
H138 H 0.13992 0.3827 0.82522 0.0
C139 C 0.34662 0.347 0.84924 0.0
C140 C 0.34173 0.42446 0.8619 0.0
H141 H 0.28147 0.22186 0.81959 0.0
H142 H 0.40373 0.33571 0.85594 0.0
C143 C 0.26692 0.4365 0.85242 0.0
C144 C 0.85896 0.16348 0.69888 0.0
C145 C 0.86594 0.08142 0.69681 0.0
H146 H 0.7959 0.24036 0.67969 0.0
C147 C 0.81591 0.01513 0.67241 0.0
H148 H 0.89772 0.2166 0.7173 0.0
C149 C 0.75859 0.02911 0.65108 0.0
C150 C 0.74981 0.10997 0.65337 0.0
H151 H 0.82052 0.95202 0.66987 0.0
H152 H 0.7201 0.97547 0.63276 0.0
C153 C 0.80172 0.17794 0.6772 0.0
C154 C 0.76457 0.92452 0.02194 0.0
C155 C 0.83974 0.91505 0.03398 0.0
H156 H 0.64056 0.86681 0.99231 0.0
C157 C 0.843 0.83397 0.02577 0.0
H158 H 0.75872 0.98557 0.02794 0.0
C159 C 0.77433 0.76553 1.00527 0.0
C160 C 0.70077 0.77653 0.9926 0.0
H161 H 0.89926 0.82407 0.03466 0.0
H162 H 0.77994 0.70451 0.99897 0.0
C163 C 0.69607 0.85621 1.00153 0.0
C164 C 0.07904 0.89008 0.33585 0.0
C165 C 0.01313 0.87309 0.35988 0.0
H166 H 0.12078 0.8327 0.29716 0.0
C167 C 0.93313 0.78244 0.36187 0.0
H168 H 0.14054 0.95901 0.33342 0.0
C169 C 0.92088 0.70957 0.34078 0.0
C170 C 0.98901 0.72604 0.31761 0.0
H171 H 0.88029 0.76739 0.38 0.0
H172 H 0.86046 0.64003 0.34342 0.0
C173 C 0.06724 0.81746 0.31506 0.0
C174 C 0.27793 0.11512 0.67947 0.0
C175 C 0.22161 0.04564 0.70141 0.0
H176 H 0.37671 0.15605 0.64132 0.0
C177 C 0.22266 0.96042 0.70115 0.0
H178 H 0.27827 0.18103 0.67884 0.0
C179 C 0.27859 0.94504 0.67912 0.0
C180 C 0.33538 0.0152 0.65732 0.0
H181 H 0.17905 0.90492 0.7176 0.0
H182 H 0.27816 0.87908 0.6794 0.0
C183 C 0.33429 0.10034 0.65788 0.0
C184 C 0.32225 0.38375 0.04132 0.0
C185 C 0.27217 0.28556 0.04159 0.0
H186 H 0.43234 0.50714 0.02019 0.0
C187 C 0.30396 0.23572 0.02242 0.0
H188 H 0.30068 0.42406 0.05622 0.0
C189 C 0.37962 0.28367 1.00113 0.0
C190 C 0.42491 0.38191 0.99929 0.0
H191 H 0.26661 0.15967 0.02233 0.0
H192 H 0.39799 0.24389 0.98468 0.0
C193 C 0.39815 0.43119 0.02077 0.0
C194 C 0.14269 0.35178 0.37496 0.0
C195 C 0.05457 0.26794 0.37509 0.0
H196 H 0.22893 0.48752 0.35352 0.0
C197 C 0.98442 0.25942 0.35392 0.0
H198 H 0.1988 0.36008 0.39083 0.0
C199 C 1.00154 0.33176 0.33294 0.0
C200 C 0.08988 0.4152 0.33206 0.0
H201 H 0.91626 0.196 0.35318 0.0
H202 H 0.9449 0.3208 0.31682 0.0
C203 C 0.16046 0.42458 0.35345 0.0
loop_
_geom_bond_atom_site_label_1
_geom_bond_atom_site_label_2
_geom_bond_distance
_geom_bond_site_symmetry_2
_ccdc_geom_bond_type
Co0 O1 2.216 1_445 S
Co0 O2 2.091 1_545 S
Co0 O4 2.004 . S
Co0 O10 2.021 1_445 S
Co0 O12 2.137 . S
Co0 O13 2.244 1_455 S
O1 Co0 2.216 1_665 S
O1 C8 1.247 1_655 S
O2 Co0 2.091 1_565 S
O2 C8 1.261 . S
C3 O12 1.247 . S
C3 O13 1.272 1_455 S
O4 Co0 2.004 . S
O4 C9 1.259 . S
Co5 O6 2.061 1_655 S
Co5 O11 2.052 . S
Co5 O13 2.135 . S
O6 Co5 2.061 1_455 S
O6 C9 1.235 . S
C7 O10 1.238 . S
C7 O11 1.241 1_565 S
C8 O1 1.247 1_455 S
C8 O2 1.261 . S
C9 O4 1.259 . S
C9 O6 1.235 . S
O10 Co0 2.021 1_665 S
O10 C7 1.238 . S
O11 Co5 2.052 . S
O11 C7 1.241 1_545 S
O12 Co0 2.137 . S
O12 C3 1.247 . S
O13 Co0 2.244 1_655 S
O13 C3 1.272 1_655 S
O13 Co5 2.135 . S
Co14 O15 2.216 1_455 S
Co14 O16 2.091 . S
Co14 O18 2.004 . S
Co14 O24 2.021 1_455 S
Co14 O26 2.137 . S
Co14 O27 2.244 1_445 S
O15 Co14 2.216 1_655 S
O15 C22 1.247 1_655 S
O16 Co14 2.091 . S
O16 C22 1.261 . S
C17 O26 1.247 1_565 S
C17 O27 1.272 1_455 S
O18 Co14 2.004 . S
O18 C23 1.259 . S
Co19 O20 2.061 1_655 S
Co19 O25 2.052 . S
Co19 O27 2.135 . S
O20 Co19 2.061 1_455 S
O20 C23 1.235 1_565 S
C21 O24 1.238 . S
C21 O25 1.241 1_545 S
C22 O15 1.247 1_455 S
C22 O16 1.261 . S
C23 O18 1.259 . S
C23 O20 1.235 1_545 S
O24 Co14 2.021 1_655 S
O24 C21 1.238 . S
O25 Co19 2.052 . S
O25 C21 1.241 1_565 S
O26 Co14 2.137 . S
O26 C17 1.247 1_545 S
O27 Co14 2.244 1_665 S
O27 C17 1.272 1_655 S
O27 Co19 2.135 . S
Co28 O29 2.216 . S
Co28 O30 2.091 1_545 S
Co28 O32 2.004 1_445 S
Co28 O38 2.021 . S
Co28 O40 2.137 1_445 S
Co28 O41 2.244 1_455 S
O29 Co28 2.216 . S
O29 C36 1.247 . S
O30 Co28 2.091 1_565 S
O30 C36 1.261 1_565 S
C31 O40 1.247 1_545 S
C31 O41 1.272 . S
O32 Co28 2.004 1_665 S
O32 C37 1.259 . S
Co33 O34 2.061 . S
Co33 O39 2.052 1_655 S
Co33 O41 2.135 . S
O34 Co33 2.061 . S
O34 C37 1.235 1_545 S
C35 O38 1.238 . S
C35 O39 1.241 . S
C36 O29 1.247 . S
C36 O30 1.261 1_545 S
C37 O32 1.259 . S
C37 O34 1.235 1_565 S
O38 Co28 2.021 . S
O38 C35 1.238 . S
O39 Co33 2.052 1_455 S
O39 C35 1.241 . S
O40 Co28 2.137 1_665 S
O40 C31 1.247 1_565 S
O41 Co28 2.244 1_655 S
O41 C31 1.272 . S
O41 Co33 2.135 . S
C42 O44 1.247 . S
C42 O46 1.258 1_455 S
C43 O50 1.247 1_455 S
C43 O51 1.258 . S
O44 C42 1.247 . S
O44 Zn45 2.028 . S
Zn45 O44 2.028 . S
Zn45 O49 2.035 . S
Zn45 O51 2.035 . S
Zn45 O52 2.028 . S
O46 C42 1.258 1_655 S
O46 Zn47 2.035 . S
Zn47 O46 2.035 . S
Zn47 O48 2.028 . S
Zn47 O50 2.028 . S
Zn47 O53 2.035 . S
O48 Zn47 2.028 . S
O48 C54 1.247 1_655 S
O49 Zn45 2.035 . S
O49 C54 1.258 . S
O50 C43 1.247 1_655 S
O50 Zn47 2.028 . S
O51 C43 1.258 . S
O51 Zn45 2.035 . S
O52 Zn45 2.028 . S
O52 C55 1.247 . S
O53 Zn47 2.035 . S
O53 C55 1.258 1_655 S
C54 O48 1.247 1_455 S
C54 O49 1.258 . S
C55 O52 1.247 . S
C55 O53 1.258 1_455 S
C56 O58 1.247 1_545 S
C56 O60 1.258 . S
C57 O64 1.247 . S
C57 O65 1.258 1_545 S
O58 C56 1.247 1_565 S
O58 Zn59 2.028 . S
Zn59 O58 2.028 . S
Zn59 O63 2.035 . S
Zn59 O65 2.035 . S
Zn59 O66 2.028 . S
O60 C56 1.258 . S
O60 Zn61 2.035 . S
Zn61 O60 2.035 . S
Zn61 O62 2.028 . S
Zn61 O64 2.028 . S
Zn61 O67 2.035 . S
O62 Zn61 2.028 . S
O62 C68 1.247 . S
O63 Zn59 2.035 . S
O63 C68 1.258 1_565 S
O64 C57 1.247 . S
O64 Zn61 2.028 . S
O65 C57 1.258 1_565 S
O65 Zn59 2.035 . S
O66 Zn59 2.028 . S
O66 C69 1.247 1_565 S
O67 Zn61 2.035 . S
O67 C69 1.258 . S
C68 O62 1.247 . S
C68 O63 1.258 1_545 S
C69 O66 1.247 1_545 S
C69 O67 1.258 . S
C70 O72 1.247 . S
C70 O74 1.258 . S
C71 O78 1.247 . S
C71 O79 1.258 . S
O72 C70 1.247 . S
O72 Zn73 2.028 . S
Zn73 O72 2.028 . S
Zn73 O77 2.035 . S
Zn73 O79 2.035 . S
Zn73 O80 2.028 . S
O74 C70 1.258 . S
O74 Zn75 2.035 . S
Zn75 O74 2.035 . S
Zn75 O76 2.028 . S
Zn75 O78 2.028 . S
Zn75 O81 2.035 . S
O76 Zn75 2.028 . S
O76 C82 1.247 . S
O77 Zn73 2.035 . S
O77 C82 1.258 . S
O78 C71 1.247 . S
O78 Zn75 2.028 . S
O79 C71 1.258 . S
O79 Zn73 2.035 . S
O80 Zn73 2.028 . S
O80 C83 1.247 . S
O81 Zn75 2.035 . S
O81 C83 1.258 . S
C82 O76 1.247 . S
C82 O77 1.258 . S
C83 O80 1.247 . S
C83 O81 1.258 . S
C84 C85 1.387 1_655 S
C84 H88 0.950 . S
C84 C93 1.390 . S
C85 C84 1.387 1_455 S
C85 C87 1.387 . S
H86 C93 0.950 . S
C87 C85 1.387 . S
C87 C89 1.390 . S
C87 H91 0.950 . S
H88 C84 0.950 . S
C89 C87 1.390 . S
C89 C90 1.387 . S
C89 H92 0.950 . S
C90 C89 1.387 . S
C90 C93 1.387 1_455 S
H91 C87 0.950 . S
H92 C89 0.950 . S
C93 C84 1.390 . S
C93 H86 0.950 . S
C93 C90 1.387 1_655 S
C94 C95 1.387 . S
C94 H98 0.950 . S
C94 C103 1.390 . S
C95 C94 1.387 . S
C95 C97 1.387 1_545 S
H96 C103 0.950 . S
C97 C95 1.387 1_565 S
C97 C99 1.390 . S
C97 H101 0.950 . S
H98 C94 0.950 . S
C99 C97 1.390 . S
C99 C100 1.387 1_565 S
C99 H102 0.950 . S
C100 C99 1.387 1_545 S
C100 C103 1.387 . S
H101 C97 0.950 . S
H102 C99 0.950 . S
C103 C94 1.390 . S
C103 H96 0.950 . S
C103 C100 1.387 . S
C104 C105 1.387 . S
C104 H108 0.950 . S
C104 C113 1.390 . S
C105 C104 1.387 . S
C105 C107 1.387 . S
H106 C113 0.950 . S
C107 C105 1.387 . S
C107 C109 1.390 . S
C107 H111 0.950 . S
H108 C104 0.950 . S
C109 C107 1.390 . S
C109 C110 1.387 . S
C109 H112 0.950 . S
C110 C109 1.387 . S
C110 C113 1.387 . S
H111 C107 0.950 . S
H112 C109 0.950 . S
C113 C104 1.390 . S
C113 H106 0.950 . S
C113 C110 1.387 . S
C114 C115 1.387 . S
C114 H118 0.950 . S
C114 C123 1.390 . S
C115 C114 1.387 . S
C115 C117 1.387 1_455 S
H116 C123 0.950 . S
C117 C115 1.387 1_655 S
C117 C119 1.390 . S
C117 H121 0.950 . S
H118 C114 0.950 . S
C119 C117 1.390 . S
C119 C120 1.387 1_655 S
C119 H122 0.950 . S
C120 C119 1.387 1_455 S
C120 C123 1.387 . S
H121 C117 0.950 . S
H122 C119 0.950 . S
C123 C114 1.390 . S
C123 H116 0.950 . S
C123 C120 1.387 . S
C124 C125 1.387 1_565 S
C124 H128 0.950 . S
C124 C133 1.390 . S
C125 C124 1.387 1_545 S
C125 C127 1.387 . S
H126 C133 0.950 . S
C127 C125 1.387 . S
C127 C129 1.390 . S
C127 H131 0.950 . S
H128 C124 0.950 . S
C129 C127 1.390 . S
C129 C130 1.387 . S
C129 H132 0.950 . S
C130 C129 1.387 . S
C130 C133 1.387 1_545 S
H131 C127 0.950 . S
H132 C129 0.950 . S
C133 C124 1.390 . S
C133 H126 0.950 . S
C133 C130 1.387 1_565 S
C134 C135 1.387 . S
C134 H138 0.950 . S
C134 C143 1.390 . S
C135 C134 1.387 . S
C135 C137 1.387 . S
H136 C143 0.950 . S
C137 C135 1.387 . S
C137 C139 1.390 . S
C137 H141 0.950 . S
H138 C134 0.950 . S
C139 C137 1.390 . S
C139 C140 1.387 . S
C139 H142 0.950 . S
C140 C139 1.387 . S
C140 C143 1.387 . S
H141 C137 0.950 . S
H142 C139 0.950 . S
C143 C134 1.390 . S
C143 H136 0.950 . S
C143 C140 1.387 . S
C144 C145 1.387 . S
C144 H148 0.950 . S
C144 C153 1.390 . S
C145 C144 1.387 . S
C145 C147 1.387 1_545 S
H146 C153 0.950 . S
C147 C145 1.387 1_565 S
C147 C149 1.390 . S
C147 H151 0.950 . S
H148 C144 0.950 . S
C149 C147 1.390 . S
C149 C150 1.387 1_565 S
C149 H152 0.950 . S
C150 C149 1.387 1_545 S
C150 C153 1.387 . S
H151 C147 0.950 . S
H152 C149 0.950 . S
C153 C144 1.390 . S
C153 H146 0.950 . S
C153 C150 1.387 . S
C154 C155 1.387 1_556 S
C154 H158 0.950 . S
C154 C163 1.390 . S
C155 C154 1.387 1_554 S
C155 C157 1.387 . S
H156 C163 0.950 . S
C157 C155 1.387 . S
C157 C159 1.390 . S
C157 H161 0.950 . S
H158 C154 0.950 . S
C159 C157 1.390 . S
C159 C160 1.387 1_554 S
C159 H162 0.950 . S
C160 C159 1.387 1_556 S
C160 C163 1.387 . S
H161 C157 0.950 . S
H162 C159 0.950 . S
C163 C154 1.390 . S
C163 H156 0.950 . S
C163 C160 1.387 . S
C164 C165 1.387 . S
C164 H168 0.950 . S
C164 C173 1.390 . S
C165 C164 1.387 . S
C165 C167 1.387 1_455 S
H166 C173 0.950 . S
C167 C165 1.387 1_655 S
C167 C169 1.390 . S
C167 H171 0.950 . S
H168 C164 0.950 . S
C169 C167 1.390 . S
C169 C170 1.387 1_655 S
C169 H172 0.950 . S
C170 C169 1.387 1_455 S
C170 C173 1.387 . S
H171 C167 0.950 . S
H172 C169 0.950 . S
C173 C164 1.390 . S
C173 H166 0.950 . S
C173 C170 1.387 . S
C174 C175 1.387 . S
C174 H178 0.950 . S
C174 C183 1.390 . S
C175 C174 1.387 . S
C175 C177 1.387 1_545 S
H176 C183 0.950 . S
C177 C175 1.387 1_565 S
C177 C179 1.390 . S
C177 H181 0.950 . S
H178 C174 0.950 . S
C179 C177 1.390 . S
C179 C180 1.387 1_565 S
C179 H182 0.950 . S
C180 C179 1.387 1_545 S
C180 C183 1.387 . S
H181 C177 0.950 . S
H182 C179 0.950 . S
C183 C174 1.390 . S
C183 H176 0.950 . S
C183 C180 1.387 . S
C184 C185 1.387 . S
C184 H188 0.950 . S
C184 C193 1.390 . S
C185 C184 1.387 . S
C185 C187 1.387 1_554 S
H186 C193 0.950 . S
C187 C185 1.387 1_556 S
C187 C189 1.390 . S
C187 H191 0.950 . S
H188 C184 0.950 . S
C189 C187 1.390 . S
C189 C190 1.387 . S
C189 H192 0.950 . S
C190 C189 1.387 . S
C190 C193 1.387 1_556 S
H191 C187 0.950 . S
H192 C189 0.950 . S
C193 C184 1.390 . S
C193 H186 0.950 . S
C193 C190 1.387 1_554 S
C194 C195 1.387 . S
C194 H198 0.950 . S
C194 C203 1.390 . S
C195 C194 1.387 . S
C195 C197 1.387 1_455 S
H196 C203 0.950 . S
C197 C195 1.387 1_655 S
C197 C199 1.390 . S
C197 H201 0.950 . S
H198 C194 0.950 . S
C199 C197 1.390 . S
C199 C200 1.387 1_655 S
C199 H202 0.950 . S
C200 C199 1.387 1_455 S
C200 C203 1.387 . S
H201 C197 0.950 . S
H202 C199 0.950 . S
C203 C194 1.390 . S
C203 H196 0.950 . S
C203 C200 1.387 . S
C90 C43 1.480 . S
C85 C3 1.476 . S
C95 C21 1.487 . S
C100 C69 1.509 . S
C105 C37 1.465 . S
C110 C71 1.488 . S
C115 C8 1.482 . S
C120 C55 1.481 . S
C130 C57 1.485 . S
C125 C23 1.462 . S
C135 C35 1.462 . S
C140 C83 1.486 . S
C150 C56 1.482 . S
C145 C31 1.478 . S
C155 C7 1.462 . S
C160 C82 1.486 . S
C170 C42 1.480 . S
C165 C17 1.476 . S
C180 C68 1.455 . S
C175 C36 1.455 . S
C190 C70 1.488 . S
C185 C9 1.464 . S
C195 C22 1.483 . S
C200 C54 1.482 . S
