# Generated by pormake.
# Topology bcu-b, (8,8)-cn, num edge types: 1
# Building blocks:
#     Node 0, Type 0, BuildingBlock: VETTIZ_charged_sbu_0, # of connection points: 8
#     Node 1, Type 1, BuildingBlock: TAGTUT_clean_sbu_3, # of connection points: 8
#     Edge 2, Type (0, 1), BuildingBlock: AJUNOK_clean_linker_0, # of connection points: 2
#     Edge 3, Type (0, 1), BuildingBlock: AJUNOK_clean_linker_0, # of connection points: 2
#     Edge 4, Type (0, 1), BuildingBlock: AJUNOK_clean_linker_0, # of connection points: 2
#     Edge 5, Type (0, 1), BuildingBlock: AJUNOK_clean_linker_0, # of connection points: 2
#     Edge 6, Type (0, 1), BuildingBlock: AJUNOK_clean_linker_0, # of connection points: 2
#     Edge 7, Type (0, 1), BuildingBlock: AJUNOK_clean_linker_0, # of connection points: 2
#     Edge 8, Type (0, 1), BuildingBlock: AJUNOK_clean_linker_0, # of connection points: 2
#     Edge 9, Type (0, 1), BuildingBlock: AJUNOK_clean_linker_0, # of connection points: 2
# Relax obj value: 0.019
# Max RMSD: 0.093
# Mean RMSD: 0.074
data_MOF--net-bcu-b--node1-VETTIZ_charged_sbu_0--node2-TAGTUT_clean_sbu_3--edge1-AJUNOK_clean_linker_0
_symmetry_space_group_name_H-M    P1
_symmetry_Int_Tables_number       1
_symmetry_cell_setting            triclinic
loop_
_symmetry_equiv_pos_as_xyz
'x, y, z'
_cell_length_a     15.007025
_cell_length_b     14.61592
_cell_length_c     16.438029
_cell_angle_alpha  89.497404
_cell_angle_beta   90.999512
_cell_angle_gamma 103.53359
loop_
_atom_site_label
_atom_site_type_symbol
_atom_site_fract_x
_atom_site_fract_y
_atom_site_fract_z
_atom_type_partial_charge
Fe0 Fe 0.03046 0.82956 0.00362 0.0
O1 O 0.05461 0.96657 -0.00422 0.0
Fe2 Fe 0.02459 1.02903 0.88649 0.0
Fe3 Fe 1.00443 0.04492 0.07347 0.0
O4 O 0.05594 0.96627 -0.01208 0.0
O5 O 0.97343 0.10772 0.96411 0.0
O6 O 0.97033 0.10712 0.97253 0.0
Fe7 Fe 1.00257 0.24598 0.96132 0.0
C8 C 0.86884 0.86524 0.10096 0.0
O9 O 0.11684 0.86411 0.10339 0.0
O10 O 0.05351 0.97275 0.16909 0.0
O11 O 0.11251 0.25823 0.88506 0.0
O12 O 0.15173 0.12091 0.88847 0.0
O13 O 0.08301 0.93546 0.81939 0.0
O14 O 0.12914 0.84189 0.918 0.0
O15 O 0.13088 0.13603 0.07814 0.0
O16 O 0.08861 0.26995 0.06304 0.0
C17 C 0.12889 0.87466 0.84481 0.0
O18 O 0.92631 0.22089 0.85598 0.0
O19 O 0.98479 0.1083 0.79052 0.0
O20 O 0.92683 0.81743 0.08514 0.0
O21 O 0.87887 0.94972 0.07569 0.0
C22 C 0.10914 0.91645 0.16528 0.0
C23 C 0.14313 0.2229 0.0921 0.0
C24 C 0.8908 0.19168 0.11318 0.0
O25 O 0.9419 0.13619 0.14027 0.0
O26 O 0.89743 0.23122 0.04194 0.0
C27 C 0.16596 0.20645 0.86534 0.0
O28 O 0.89821 0.93711 0.87733 0.0
O29 O 0.93516 0.80142 0.90765 0.0
C30 C 0.94295 0.17718 0.79164 0.0
C31 C 0.8836 0.84802 0.87143 0.0
C32 C 0.67058 0.6671 0.59653 0.0
C33 C 0.76783 0.34788 0.5452 0.0
C34 C 0.65654 0.34853 0.31855 0.0
Mg35 Mg 0.4961 0.73935 0.5149 0.0
Mg36 Mg 0.30556 0.58227 0.47182 0.0
O37 O 0.43148 0.62309 0.45586 0.0
Mg38 Mg 0.51305 0.5368 0.4805 0.0
O39 O 0.60226 0.45842 0.50464 0.0
Mg40 Mg 0.71422 0.5327 0.44968 0.0
Mg41 Mg 0.56786 0.32951 0.48178 0.0
C42 C 0.34119 0.41377 0.36769 0.0
O43 O 0.41842 0.44235 0.5755 0.0
O44 O 0.39799 0.81512 0.44112 0.0
O45 O 0.44377 0.29832 0.55383 0.0
O46 O 0.39022 0.71848 0.61575 0.0
O47 O 0.27044 0.70113 0.41569 0.0
O48 O 0.27206 0.59571 0.59582 0.0
O49 O 0.61702 0.61867 0.38711 0.0
O50 O 0.5965 0.7616 0.4118 0.0
C51 C 0.63479 0.7074 0.37178 0.0
C52 C 0.31614 0.78668 0.41148 0.0
O53 O 0.42851 0.43725 0.38147 0.0
O54 O 0.79198 0.43377 0.51979 0.0
O55 O 0.28424 0.45236 0.40392 0.0
O56 O 0.70287 0.42715 0.34579 0.0
O57 O 0.68601 0.29776 0.53713 0.0
O58 O 0.58598 0.30163 0.35524 0.0
O59 O 0.58451 0.64433 0.57902 0.0
O60 O 0.72769 0.63217 0.55763 0.0
C61 C 0.31351 0.66661 0.63742 0.0
C62 C 0.40228 0.35314 0.59087 0.0
C63 C 0.16532 0.24664 0.2405 0.0
C64 C 0.20193 0.26114 0.16217 0.0
C65 C 0.21464 0.29042 0.30827 0.0
C66 C 0.30285 0.34931 0.30028 0.0
H67 H 0.09644 0.20434 0.24896 0.0
H68 H 0.18172 0.28166 0.36691 0.0
S69 S 0.43165 0.40292 0.10832 0.0
N70 N 0.3329 0.33283 0.0802 0.0
N71 N 0.42694 0.41468 0.20799 0.0
C72 C 0.34248 0.35944 0.22271 0.0
C73 C 0.29146 0.31564 0.15338 0.0
C74 C 0.84836 0.24303 0.24842 0.0
C75 C 0.82369 0.21811 0.16761 0.0
C76 C 0.79149 0.28277 0.29676 0.0
C77 C 0.70747 0.29771 0.26649 0.0
H78 H 0.91382 0.236 0.27322 0.0
H79 H 0.81448 0.3041 0.35809 0.0
S80 S 0.60647 0.23379 0.06235 0.0
N81 N 0.70611 0.20394 0.06124 0.0
N82 N 0.59871 0.2772 0.15377 0.0
C83 C 0.67932 0.26807 0.18768 0.0
C84 C 0.73779 0.22877 0.13776 0.0
C85 C 0.78303 0.72898 0.18351 0.0
C86 C 0.79934 0.82556 0.1632 0.0
C87 C 0.73049 0.6913 0.25092 0.0
C88 C 0.69205 0.74857 0.30127 0.0
H89 H 0.81294 0.68199 0.14804 0.0
H90 H 0.72074 0.61685 0.26388 0.0
S91 S 0.71026 1.00561 0.27268 0.0
N92 N 0.76942 0.97682 0.1974 0.0
N93 N 0.67135 0.90728 0.32389 0.0
C94 C 0.70582 0.84507 0.28038 0.0
C95 C 0.75886 0.88311 0.21137 0.0
C96 C 0.26046 0.9091 0.22458 0.0
C97 C 0.16765 0.90855 0.2364 0.0
C98 C 0.31343 0.88106 0.28676 0.0
C99 C 0.27437 0.84985 0.36186 0.0
H100 H 0.29073 0.92606 0.16533 0.0
H101 H 0.38229 0.87511 0.2733 0.0
S102 S 0.03831 0.84698 0.42644 0.0
N103 N 0.04237 0.88557 0.3315 0.0
N104 N 0.14108 0.82946 0.44789 0.0
C105 C 0.18405 0.85638 0.37654 0.0
C106 C 0.13072 0.88675 0.31377 0.0
C107 C 0.26549 0.81847 0.80694 0.0
C108 C 0.17695 0.82884 0.78674 0.0
C109 C 0.30752 0.76065 0.76118 0.0
C110 C 0.26131 0.709 0.69516 0.0
H111 H 0.3023 0.85513 0.85889 0.0
H112 H 0.37716 0.75732 0.77677 0.0
S113 S 0.02687 0.71056 0.61925 0.0
N114 N 0.0435 0.78226 0.69799 0.0
N115 N 0.12197 0.67295 0.61126 0.0
C116 C 0.17199 0.71798 0.675 0.0
C117 C 0.13001 0.77832 0.72086 0.0
C118 C 0.25222 0.3385 0.77794 0.0
C119 C 0.23386 0.24255 0.80039 0.0
C120 C 0.30468 0.37297 0.70957 0.0
C121 C 0.34116 0.31319 0.65985 0.0
H122 H 0.22458 0.38773 0.81281 0.0
H123 H 0.31681 0.44745 0.69597 0.0
S124 S 0.3132 0.05532 0.69123 0.0
N125 N 0.25727 0.08815 0.76698 0.0
N126 N 0.35476 0.15204 0.63855 0.0
C127 C 0.32385 0.21691 0.68183 0.0
C128 C 0.27092 0.18198 0.75198 0.0
C129 C 0.85789 0.16281 0.65943 0.0
C130 C 0.91934 0.21755 0.7147 0.0
C131 C 0.81496 0.20617 0.59899 0.0
C132 C 0.83246 0.30527 0.59236 0.0
H133 H 0.83739 0.08709 0.66695 0.0
H134 H 0.76315 0.16185 0.56073 0.0
S135 S 1.00243 0.47716 0.71409 0.0
N136 N 1.00712 0.37354 0.75215 0.0
N137 N 0.92581 0.45536 0.63913 0.0
C138 C 0.90141 0.35979 0.64195 0.0
C139 C 0.9449 0.31563 0.70329 0.0
C140 C 0.77523 0.85208 0.75272 0.0
C141 C 0.81313 0.79925 0.81083 0.0
C142 C 0.72205 0.80867 0.68598 0.0
C143 C 0.70406 0.71087 0.67546 0.0
H144 H 0.79095 0.92816 0.75599 0.0
H145 H 0.69966 0.85231 0.64001 0.0
S146 S 0.77664 0.53882 0.8134 0.0
N147 N 0.8203 0.64188 0.85587 0.0
N148 N 0.72123 0.56153 0.73085 0.0
C149 C 0.73624 0.6568 0.73534 0.0
C150 C 0.79032 0.70055 0.80296 0.0
loop_
_geom_bond_atom_site_label_1
_geom_bond_atom_site_label_2
_geom_bond_distance
_geom_bond_site_symmetry_2
_ccdc_geom_bond_type
Fe0 O1 1.892 . S
Fe0 O4 1.709 1_554 S
Fe0 O9 2.083 1_655 S
Fe0 O14 1.931 1_654 S
Fe0 O20 2.083 . S
Fe0 O29 1.930 1_554 S
O1 Fe0 1.892 . S
O1 Fe3 1.715 1_665 S
Fe2 O4 1.886 1_445 S
Fe2 O5 1.715 . S
Fe2 O12 1.935 . S
Fe2 O13 2.077 1_545 S
Fe2 O19 1.935 1_455 S
Fe2 O28 2.077 1_445 S
Fe3 O1 1.715 1_445 S
Fe3 O6 1.886 . S
Fe3 O10 1.935 1_545 S
Fe3 O15 2.077 . S
Fe3 O21 1.935 1_445 S
Fe3 O25 2.077 1_455 S
O4 Fe0 1.709 1_556 S
O4 Fe2 1.886 1_665 S
O5 Fe2 1.715 . S
O5 Fe7 1.885 . S
O6 Fe3 1.886 . S
O6 Fe7 1.716 1_554 S
Fe7 O5 1.885 . S
Fe7 O6 1.716 1_556 S
Fe7 O11 2.077 . S
Fe7 O16 1.936 1_556 S
Fe7 O18 2.077 1_455 S
Fe7 O26 1.936 1_456 S
C8 O20 1.381 . S
C8 O21 1.421 . S
O9 Fe0 2.083 1_455 S
O9 C22 1.381 . S
O10 Fe3 1.935 1_565 S
O10 C22 1.421 . S
O11 Fe7 2.077 . S
O11 C27 1.381 . S
O12 Fe2 1.935 . S
O12 C27 1.421 . S
O13 Fe2 2.077 1_565 S
O13 C17 1.381 . S
O14 Fe0 1.931 1_456 S
O14 C17 1.421 . S
O15 Fe3 2.077 . S
O15 C23 1.381 . S
O16 Fe7 1.936 1_554 S
O16 C23 1.421 . S
C17 O13 1.381 . S
C17 O14 1.421 . S
O18 Fe7 2.077 1_655 S
O18 C30 1.381 . S
O19 Fe2 1.935 1_655 S
O19 C30 1.421 . S
O20 Fe0 2.083 . S
O20 C8 1.381 . S
O21 Fe3 1.935 1_665 S
O21 C8 1.421 . S
C22 O9 1.381 . S
C22 O10 1.421 . S
C23 O15 1.381 . S
C23 O16 1.421 . S
C24 O25 1.381 . S
C24 O26 1.421 . S
O25 Fe3 2.077 1_655 S
O25 C24 1.381 . S
O26 Fe7 1.936 1_654 S
O26 C24 1.421 . S
C27 O11 1.381 . S
C27 O12 1.421 . S
O28 Fe2 2.077 1_665 S
O28 C31 1.381 . S
O29 Fe0 1.930 1_556 S
O29 C31 1.421 . S
C30 O18 1.381 . S
C30 O19 1.421 . S
C31 O28 1.381 . S
C31 O29 1.421 . S
C32 O59 1.312 . S
C32 O60 1.208 . S
C33 O54 1.331 . S
C33 O57 1.244 . S
C34 O56 1.264 . S
C34 O58 1.273 . S
Mg35 O37 1.936 . S
Mg35 O44 2.081 . S
Mg35 O46 2.023 . S
Mg35 O50 2.031 . S
Mg35 O59 2.291 . S
Mg36 O37 1.963 . S
Mg36 O47 1.942 . S
Mg36 O48 1.955 . S
Mg36 O55 1.986 . S
O37 Mg35 1.936 . S
O37 Mg36 1.963 . S
O37 Mg38 1.915 . S
Mg38 O37 1.915 . S
Mg38 O39 1.915 . S
Mg38 O43 2.013 . S
Mg38 O49 2.114 . S
Mg38 O53 2.013 . S
Mg38 O59 2.114 . S
O39 Mg38 1.915 . S
O39 Mg40 1.936 . S
O39 Mg41 1.963 . S
Mg40 O39 1.936 . S
Mg40 O49 2.291 . S
Mg40 O54 2.081 . S
Mg40 O56 2.023 . S
Mg40 O60 2.031 . S
Mg41 O39 1.963 . S
Mg41 O45 1.986 . S
Mg41 O57 1.942 . S
Mg41 O58 1.955 . S
C42 O53 1.191 . S
C42 O55 1.307 . S
O43 Mg38 2.013 . S
O43 C62 1.191 . S
O44 Mg35 2.081 . S
O44 C52 1.331 . S
O45 Mg41 1.986 . S
O45 C62 1.307 . S
O46 Mg35 2.023 . S
O46 C61 1.264 . S
O47 Mg36 1.942 . S
O47 C52 1.244 . S
O48 Mg36 1.955 . S
O48 C61 1.273 . S
O49 Mg38 2.114 . S
O49 Mg40 2.291 . S
O49 C51 1.312 . S
O50 Mg35 2.031 . S
O50 C51 1.208 . S
C51 O49 1.312 . S
C51 O50 1.208 . S
C52 O44 1.331 . S
C52 O47 1.244 . S
O53 Mg38 2.013 . S
O53 C42 1.191 . S
O54 C33 1.331 . S
O54 Mg40 2.081 . S
O55 Mg36 1.986 . S
O55 C42 1.307 . S
O56 C34 1.264 . S
O56 Mg40 2.023 . S
O57 C33 1.244 . S
O57 Mg41 1.942 . S
O58 C34 1.273 . S
O58 Mg41 1.955 . S
O59 C32 1.312 . S
O59 Mg35 2.291 . S
O59 Mg38 2.114 . S
O60 C32 1.208 . S
O60 Mg40 2.031 . S
C61 O46 1.264 . S
C61 O48 1.273 . S
C62 O43 1.191 . S
C62 O45 1.307 . S
C63 C64 1.369 . S
C63 C65 1.419 . S
C63 H67 0.930 . S
C64 C63 1.369 . S
C64 C73 1.429 . S
C65 C63 1.419 . S
C65 C66 1.363 . S
C65 H68 0.929 . S
C66 C65 1.363 . S
C66 C72 1.428 . S
H67 C63 0.930 . S
H68 C65 0.929 . S
S69 N70 1.613 . S
S69 N71 1.610 . S
N70 S69 1.613 . S
N70 C73 1.350 . S
N71 S69 1.610 . S
N71 C72 1.351 . S
C72 C66 1.428 . S
C72 N71 1.351 . S
C72 C73 1.434 . S
C73 C64 1.429 . S
C73 N70 1.350 . S
C73 C72 1.434 . S
C74 C75 1.369 . S
C74 C76 1.419 . S
C74 H78 0.930 . S
C75 C74 1.369 . S
C75 C84 1.429 . S
C76 C74 1.419 . S
C76 C77 1.363 . S
C76 H79 0.929 . S
C77 C76 1.363 . S
C77 C83 1.428 . S
H78 C74 0.930 . S
H79 C76 0.929 . S
S80 N81 1.613 . S
S80 N82 1.610 . S
N81 S80 1.613 . S
N81 C84 1.350 . S
N82 S80 1.610 . S
N82 C83 1.351 . S
C83 C77 1.428 . S
C83 N82 1.351 . S
C83 C84 1.434 . S
C84 C75 1.429 . S
C84 N81 1.350 . S
C84 C83 1.434 . S
C85 C86 1.369 . S
C85 C87 1.419 . S
C85 H89 0.930 . S
C86 C85 1.369 . S
C86 C95 1.429 . S
C87 C85 1.419 . S
C87 C88 1.363 . S
C87 H90 0.929 . S
C88 C87 1.363 . S
C88 C94 1.428 . S
H89 C85 0.930 . S
H90 C87 0.929 . S
S91 N92 1.613 . S
S91 N93 1.610 . S
N92 S91 1.613 . S
N92 C95 1.350 . S
N93 S91 1.610 . S
N93 C94 1.351 . S
C94 C88 1.428 . S
C94 N93 1.351 . S
C94 C95 1.434 . S
C95 C86 1.429 . S
C95 N92 1.350 . S
C95 C94 1.434 . S
C96 C97 1.369 . S
C96 C98 1.419 . S
C96 H100 0.930 . S
C97 C96 1.369 . S
C97 C106 1.429 . S
C98 C96 1.419 . S
C98 C99 1.363 . S
C98 H101 0.929 . S
C99 C98 1.363 . S
C99 C105 1.428 . S
H100 C96 0.930 . S
H101 C98 0.929 . S
S102 N103 1.613 . S
S102 N104 1.610 . S
N103 S102 1.613 . S
N103 C106 1.350 . S
N104 S102 1.610 . S
N104 C105 1.351 . S
C105 C99 1.428 . S
C105 N104 1.351 . S
C105 C106 1.434 . S
C106 C97 1.429 . S
C106 N103 1.350 . S
C106 C105 1.434 . S
C107 C108 1.369 . S
C107 C109 1.419 . S
C107 H111 0.930 . S
C108 C107 1.369 . S
C108 C117 1.429 . S
C109 C107 1.419 . S
C109 C110 1.363 . S
C109 H112 0.929 . S
C110 C109 1.363 . S
C110 C116 1.428 . S
H111 C107 0.930 . S
H112 C109 0.929 . S
S113 N114 1.613 . S
S113 N115 1.610 . S
N114 S113 1.613 . S
N114 C117 1.350 . S
N115 S113 1.610 . S
N115 C116 1.351 . S
C116 C110 1.428 . S
C116 N115 1.351 . S
C116 C117 1.434 . S
C117 C108 1.429 . S
C117 N114 1.350 . S
C117 C116 1.434 . S
C118 C119 1.369 . S
C118 C120 1.419 . S
C118 H122 0.930 . S
C119 C118 1.369 . S
C119 C128 1.429 . S
C120 C118 1.419 . S
C120 C121 1.363 . S
C120 H123 0.929 . S
C121 C120 1.363 . S
C121 C127 1.428 . S
H122 C118 0.930 . S
H123 C120 0.929 . S
S124 N125 1.613 . S
S124 N126 1.610 . S
N125 S124 1.613 . S
N125 C128 1.350 . S
N126 S124 1.610 . S
N126 C127 1.351 . S
C127 C121 1.428 . S
C127 N126 1.351 . S
C127 C128 1.434 . S
C128 C119 1.429 . S
C128 N125 1.350 . S
C128 C127 1.434 . S
C129 C130 1.369 . S
C129 C131 1.419 . S
C129 H133 0.930 . S
C130 C129 1.369 . S
C130 C139 1.429 . S
C131 C129 1.419 . S
C131 C132 1.363 . S
C131 H134 0.929 . S
C132 C131 1.363 . S
C132 C138 1.428 . S
H133 C129 0.930 . S
H134 C131 0.929 . S
S135 N136 1.613 . S
S135 N137 1.610 . S
N136 S135 1.613 . S
N136 C139 1.350 . S
N137 S135 1.610 . S
N137 C138 1.351 . S
C138 C132 1.428 . S
C138 N137 1.351 . S
C138 C139 1.434 . S
C139 C130 1.429 . S
C139 N136 1.350 . S
C139 C138 1.434 . S
C140 C141 1.369 . S
C140 C142 1.419 . S
C140 H144 0.930 . S
C141 C140 1.369 . S
C141 C150 1.429 . S
C142 C140 1.419 . S
C142 C143 1.363 . S
C142 H145 0.929 . S
C143 C142 1.363 . S
C143 C149 1.428 . S
H144 C140 0.930 . S
H145 C142 0.929 . S
S146 N147 1.613 . S
S146 N148 1.610 . S
N147 S146 1.613 . S
N147 C150 1.350 . S
N148 S146 1.610 . S
N148 C149 1.351 . S
C149 C143 1.428 . S
C149 N148 1.351 . S
C149 C150 1.434 . S
C150 C141 1.429 . S
C150 N147 1.350 . S
C150 C149 1.434 . S
C64 C23 1.384 . S
C66 C42 1.391 . S
C75 C24 1.551 . S
C77 C34 1.552 . S
C86 C8 1.411 . S
C88 C51 1.407 . S
C97 C22 1.475 . S
C99 C52 1.484 . S
C108 C17 1.524 . S
C110 C61 1.548 . S
C121 C62 1.384 . S
C119 C27 1.373 . S
C130 C30 1.457 . S
C132 C33 1.490 . S
C143 C32 1.413 . S
C141 C31 1.435 . S
