# Generated by pormake.
# Topology nia, (6,6)-cn, num edge types: 1
# Building blocks:
#     Node 0, Type 0, BuildingBlock: VOLQOD_clean_sbu_1, # of connection points: 6
#     Node 1, Type 0, BuildingBlock: VOLQOD_clean_sbu_1, # of connection points: 6
#     Node 2, Type 1, BuildingBlock: MIDCAF_clean_sbu_0, # of connection points: 6
#     Node 3, Type 1, BuildingBlock: MIDCAF_clean_sbu_0, # of connection points: 6
#     Edge 4, Type (0, 1), None
#     Edge 5, Type (0, 1), None
#     Edge 6, Type (0, 1), None
#     Edge 7, Type (0, 1), None
#     Edge 8, Type (0, 1), None
#     Edge 9, Type (0, 1), None
#     Edge 10, Type (0, 1), None
#     Edge 11, Type (0, 1), None
#     Edge 12, Type (0, 1), None
#     Edge 13, Type (0, 1), None
#     Edge 14, Type (0, 1), None
#     Edge 15, Type (0, 1), None
# Relax obj value: 0.144
# Max RMSD: 0.235
# Mean RMSD: 0.189
data_MOF--net-nia--node1-VOLQOD_clean_sbu_1--node2-MIDCAF_clean_sbu_0--edge1-none
_symmetry_space_group_name_H-M    P1
_symmetry_Int_Tables_number       1
_symmetry_cell_setting            triclinic
loop_
_symmetry_equiv_pos_as_xyz
'x, y, z'
_cell_length_a     11.231955
_cell_length_b     11.23203
_cell_length_c     18.974287
_cell_angle_alpha  90.009577
_cell_angle_beta   90.008541
_cell_angle_gamma 120.01825
loop_
_atom_site_label
_atom_site_type_symbol
_atom_site_fract_x
_atom_site_fract_y
_atom_site_fract_z
_atom_type_partial_charge
O0 O 0.20479 0.10828 0.83001 0.0
Zn1 Zn -0.00023 0.00336 0.86478 0.0
O2 O -0.00023 0.00333 -0.03144 0.0
Zn3 Zn 0.87991 0.81831 0.00526 0.0
Zn4 Zn 0.18481 0.06854 0.00527 0.0
Zn5 Zn 0.93458 0.12312 0.00527 0.0
O6 O 0.73071 0.81043 0.0649 0.0
O7 O 0.77555 0.02625 0.06864 0.0
O8 O 0.89968 0.79834 0.82999 0.0
O9 O 0.80682 0.67703 0.92785 0.0
O10 O 0.9768 0.75613 0.06861 0.0
O11 O 0.19266 0.92716 0.06484 0.0
O12 O 0.24698 0.22756 0.06869 0.0
O13 O 0.89486 0.10343 0.83001 0.0
O14 O 0.07594 0.2723 0.06492 0.0
O15 O 0.8664 0.19623 0.9279 0.0
C16 C 0.32041 0.15188 0.86174 0.0
C17 C 0.7071 0.90244 0.08846 0.0
C18 C 0.10065 0.81151 0.0884 0.0
C19 C 0.82766 0.68272 0.8617 0.0
C20 C 0.19158 0.29596 0.0885 0.0
C21 C 0.85128 0.17544 0.86174 0.0
O22 O 0.32612 0.13679 0.92789 0.0
O23 O 0.19268 0.32968 0.42792 0.0
Zn24 Zn 0.11962 0.18834 0.50529 0.0
O25 O -0.00025 0.0033 0.46856 0.0
Zn26 Zn 0.81475 0.93804 0.50529 0.0
Zn27 Zn -0.00027 0.00332 0.36478 0.0
Zn28 Zn 0.06488 0.88344 0.50521 0.0
O29 O 0.75256 0.77895 0.56864 0.0
O30 O 0.92356 0.73418 0.5648 0.0
O31 O 0.02276 0.25047 0.5687 0.0
O32 O 0.80693 0.07936 0.56495 0.0
O33 O 0.67343 0.8699 0.42791 0.0
O34 O 0.79469 0.89841 0.33002 0.0
O35 O 0.10463 0.90326 0.32996 0.0
O36 O 0.26884 0.19614 0.5649 0.0
O37 O 0.13308 0.81042 0.42782 0.0
O38 O 0.22392 0.98027 0.56861 0.0
C39 C 0.17183 0.32397 0.36177 0.0
C40 C 0.80795 0.71051 0.5884 0.0
C41 C 0.67909 0.85482 0.36174 0.0
C42 C 0.89894 0.19504 0.58852 0.0
C43 C 0.14821 0.83124 0.36167 0.0
C44 C 0.29242 0.10409 0.58844 0.0
O45 O 0.09979 0.20834 0.33003 0.0
Zn46 Zn 0.33308 0.66997 0.10085 0.0
Zn47 Zn 0.33306 0.67022 0.45544 0.0
Zn48 Zn 0.33303 0.66999 0.21511 0.0
C49 C 0.54716 0.78254 0.3224 0.0
C50 C 0.23137 0.45589 0.32243 0.0
O51 O 0.22427 0.77123 0.17681 0.0
O52 O 0.14319 0.6322 0.08567 0.0
C53 C 0.57723 0.85751 0.12265 0.0
O54 O 0.54342 0.77659 0.25522 0.0
O55 O 0.43072 0.72149 0.35417 0.0
O56 O 0.28668 0.57235 0.35421 0.0
O57 O 0.22919 0.4596 0.25525 0.0
O58 O 0.48527 0.85987 0.08575 0.0
O59 O 0.54314 0.77878 0.17687 0.0
O60 O 0.23176 0.4599 0.17689 0.0
O61 O 0.3709 0.51784 0.08585 0.0
C62 C 0.27653 0.42586 0.1227 0.0
O63 O 0.22645 0.7738 0.25516 0.0
O64 O 0.28167 0.7164 0.35414 0.0
C65 C 0.14557 0.72655 0.12256 0.0
C66 C 0.22054 0.77167 0.32235 0.0
Zn67 Zn 0.66658 0.3368 0.95544 0.0
Zn68 Zn 0.66642 0.33648 0.60085 0.0
Zn69 Zn 0.66647 0.3366 0.71511 0.0
C70 C 0.72302 0.58062 0.62258 0.0
C71 C 0.42227 0.14898 0.62266 0.0
O72 O 0.77303 0.23283 0.75523 0.0
O73 O 0.71791 0.29038 0.85419 0.0
C74 C 0.76811 0.55079 0.82236 0.0
O75 O 0.76774 0.54665 0.67682 0.0
O76 O 0.62866 0.48859 0.5857 0.0
O77 O 0.5142 0.14653 0.58579 0.0
O78 O 0.45639 0.22779 0.67687 0.0
O79 O 0.71283 0.43437 0.85415 0.0
O80 O 0.77029 0.54703 0.75518 0.0
O81 O 0.45606 0.23003 0.75522 0.0
O82 O 0.56879 0.2853 0.85419 0.0
C83 C 0.45234 0.22417 0.8224 0.0
O84 O 0.77525 0.23532 0.67689 0.0
O85 O 0.85635 0.37429 0.58578 0.0
C86 C 0.77897 0.23503 0.82241 0.0
C87 C 0.85399 0.27999 0.62267 0.0
loop_
_geom_bond_atom_site_label_1
_geom_bond_atom_site_label_2
_geom_bond_distance
_geom_bond_site_symmetry_2
_ccdc_geom_bond_type
O0 Zn1 1.953 1_545 S
O0 C16 1.225 . S
Zn1 O0 1.953 1_565 S
Zn1 O2 1.949 1_566 S
Zn1 O8 1.919 1_455 S
Zn1 O13 1.924 1_465 S
O2 Zn1 1.949 1_544 S
O2 Zn3 1.923 1_445 S
O2 Zn4 1.950 . S
O2 Zn5 1.945 1_455 S
Zn3 O2 1.923 1_665 S
Zn3 O6 1.933 . S
Zn3 O9 1.941 1_554 S
Zn3 O10 1.965 1_655 S
Zn4 O2 1.950 . S
Zn4 O11 1.938 . S
Zn4 O12 1.906 . S
Zn4 O22 1.953 1_554 S
Zn5 O2 1.945 1_655 S
Zn5 O7 1.932 1_545 S
Zn5 O14 1.977 1_655 S
Zn5 O15 1.910 1_554 S
O6 Zn3 1.933 . S
O6 C17 1.226 . S
O7 Zn5 1.932 1_565 S
O7 C17 1.307 . S
O8 Zn1 1.919 1_655 S
O8 C19 1.253 . S
O9 Zn3 1.941 1_556 S
O9 C19 1.283 . S
O10 Zn3 1.965 1_455 S
O10 C18 1.303 . S
O11 Zn4 1.938 . S
O11 C18 1.247 1_545 S
O12 Zn4 1.906 . S
O12 C20 1.304 . S
O13 Zn1 1.924 1_645 S
O13 C21 1.311 . S
O14 Zn5 1.977 1_455 S
O14 C20 1.272 . S
O15 Zn5 1.910 1_556 S
O15 C21 1.231 . S
C16 O0 1.225 . S
C16 O22 1.298 . S
C17 O6 1.226 . S
C17 O7 1.307 . S
C18 O10 1.303 . S
C18 O11 1.247 1_565 S
C19 O8 1.253 . S
C19 O9 1.283 . S
C20 O12 1.304 . S
C20 O14 1.272 . S
C21 O13 1.311 . S
C21 O15 1.231 . S
O22 Zn4 1.953 1_556 S
O22 C16 1.298 . S
O23 Zn24 1.953 . S
O23 C39 1.225 . S
Zn24 O23 1.953 . S
Zn24 O25 1.949 . S
Zn24 O31 1.919 1_455 S
Zn24 O36 1.924 . S
O25 Zn24 1.949 . S
O25 Zn26 1.923 1_445 S
O25 Zn27 1.950 . S
O25 Zn28 1.945 1_545 S
Zn26 O25 1.923 1_665 S
Zn26 O29 1.933 . S
Zn26 O32 1.941 1_565 S
Zn26 O33 1.965 . S
Zn27 O25 1.950 . S
Zn27 O34 1.938 1_445 S
Zn27 O35 1.906 1_545 S
Zn27 O45 1.953 . S
Zn28 O25 1.945 1_565 S
Zn28 O30 1.932 1_455 S
Zn28 O37 1.977 . S
Zn28 O38 1.910 1_565 S
O29 Zn26 1.933 . S
O29 C40 1.226 . S
O30 Zn28 1.932 1_655 S
O30 C40 1.307 . S
O31 Zn24 1.919 1_655 S
O31 C42 1.253 . S
O32 Zn26 1.941 1_545 S
O32 C42 1.283 . S
O33 Zn26 1.965 . S
O33 C41 1.303 . S
O34 Zn27 1.938 1_665 S
O34 C41 1.247 . S
O35 Zn27 1.906 1_565 S
O35 C43 1.304 . S
O36 Zn24 1.924 . S
O36 C44 1.311 . S
O37 Zn28 1.977 . S
O37 C43 1.272 . S
O38 Zn28 1.910 1_545 S
O38 C44 1.231 . S
C39 O23 1.225 . S
C39 O45 1.298 . S
C40 O29 1.226 . S
C40 O30 1.307 . S
C41 O33 1.303 . S
C41 O34 1.247 . S
C42 O31 1.253 . S
C42 O32 1.283 . S
C43 O35 1.304 . S
C43 O37 1.272 . S
C44 O36 1.311 . S
C44 O38 1.231 . S
O45 Zn27 1.953 . S
O45 C39 1.298 . S
Zn46 O52 1.920 . S
Zn46 O58 1.898 . S
Zn46 O61 1.905 . S
Zn47 O55 1.905 . S
Zn47 O56 1.898 . S
Zn47 O64 1.920 . S
Zn48 O51 2.080 . S
Zn48 O54 2.114 . S
Zn48 O57 2.120 . S
Zn48 O59 2.120 . S
Zn48 O60 2.114 . S
Zn48 O63 2.080 . S
C49 O54 1.166 . S
C49 O55 1.182 . S
C50 O56 1.167 . S
C50 O57 1.299 . S
O51 Zn48 2.080 . S
O51 C65 1.305 . S
O52 Zn46 1.920 . S
O52 C65 1.234 . S
C53 O58 1.167 . S
C53 O59 1.299 . S
O54 Zn48 2.114 . S
O54 C49 1.166 . S
O55 Zn47 1.905 . S
O55 C49 1.182 . S
O56 Zn47 1.898 . S
O56 C50 1.167 . S
O57 Zn48 2.120 . S
O57 C50 1.299 . S
O58 Zn46 1.898 . S
O58 C53 1.167 . S
O59 Zn48 2.120 . S
O59 C53 1.299 . S
O60 Zn48 2.114 . S
O60 C62 1.166 . S
O61 Zn46 1.905 . S
O61 C62 1.182 . S
C62 O60 1.166 . S
C62 O61 1.182 . S
O63 Zn48 2.080 . S
O63 C66 1.305 . S
O64 Zn47 1.920 . S
O64 C66 1.234 . S
C65 O51 1.305 . S
C65 O52 1.234 . S
C66 O63 1.305 . S
C66 O64 1.234 . S
Zn67 O73 1.920 . S
Zn67 O79 1.898 . S
Zn67 O82 1.905 . S
Zn68 O76 1.905 . S
Zn68 O77 1.898 . S
Zn68 O85 1.920 . S
Zn69 O72 2.080 . S
Zn69 O75 2.114 . S
Zn69 O78 2.120 . S
Zn69 O80 2.120 . S
Zn69 O81 2.114 . S
Zn69 O84 2.080 . S
C70 O75 1.166 . S
C70 O76 1.182 . S
C71 O77 1.167 . S
C71 O78 1.299 . S
O72 Zn69 2.080 . S
O72 C86 1.305 . S
O73 Zn67 1.920 . S
O73 C86 1.234 . S
C74 O79 1.167 . S
C74 O80 1.299 . S
O75 Zn69 2.114 . S
O75 C70 1.166 . S
O76 Zn68 1.905 . S
O76 C70 1.182 . S
O77 Zn68 1.898 . S
O77 C71 1.167 . S
O78 Zn69 2.120 . S
O78 C71 1.299 . S
O79 Zn67 1.898 . S
O79 C74 1.167 . S
O80 Zn69 2.120 . S
O80 C74 1.299 . S
O81 Zn69 2.114 . S
O81 C83 1.166 . S
O82 Zn67 1.905 . S
O82 C83 1.182 . S
C83 O81 1.166 . S
C83 O82 1.182 . S
O84 Zn69 2.080 . S
O84 C87 1.305 . S
O85 Zn68 1.920 . S
O85 C87 1.234 . S
C86 O72 1.305 . S
C86 O73 1.234 . S
C87 O84 1.305 . S
C87 O85 1.234 . S
C18 C65 1.735 . S
C44 C71 1.628 . S
C20 C62 1.764 . S
C42 C87 1.784 . S
C17 C53 1.473 . S
C70 C40 1.522 . S
C43 C66 1.548 . S
C83 C16 1.580 . S
C50 C39 1.466 . S
C86 C21 1.772 . S
C49 C41 1.839 . S
C74 C19 1.465 . S
