# Generated by pormake.
# Topology scu, (8,4)-cn, num edge types: 1
# Building blocks:
#     Node 0, Type 0, BuildingBlock: VETTIZ_charged_sbu_0, # of connection points: 8
#     Node 1, Type 1, BuildingBlock: MUDLON_clean_sbu_0, # of connection points: 4
#     Node 2, Type 1, BuildingBlock: MUDLON_clean_sbu_0, # of connection points: 4
#     Edge 3, Type (0, 1), BuildingBlock: CIFDUS_clean_linker_0, # of connection points: 2
#     Edge 4, Type (0, 1), BuildingBlock: CIFDUS_clean_linker_0, # of connection points: 2
#     Edge 5, Type (0, 1), BuildingBlock: CIFDUS_clean_linker_0, # of connection points: 2
#     Edge 6, Type (0, 1), BuildingBlock: CIFDUS_clean_linker_0, # of connection points: 2
#     Edge 7, Type (0, 1), BuildingBlock: CIFDUS_clean_linker_0, # of connection points: 2
#     Edge 8, Type (0, 1), BuildingBlock: CIFDUS_clean_linker_0, # of connection points: 2
#     Edge 9, Type (0, 1), BuildingBlock: CIFDUS_clean_linker_0, # of connection points: 2
#     Edge 10, Type (0, 1), BuildingBlock: CIFDUS_clean_linker_0, # of connection points: 2
# Relax obj value: 0.036
# Max RMSD: 0.093
# Mean RMSD: 0.083
data_MOF--net-scu--node1-VETTIZ_charged_sbu_0--node2-MUDLON_clean_sbu_0--edge1-CIFDUS_clean_linker_0
_symmetry_space_group_name_H-M    P1
_symmetry_Int_Tables_number       1
_symmetry_cell_setting            triclinic
loop_
_symmetry_equiv_pos_as_xyz
'x, y, z'
_cell_length_a     22.36187
_cell_length_b     21.52053
_cell_length_c     18.313441
_cell_angle_alpha  90.305511
_cell_angle_beta   90.613629
_cell_angle_gamma 89.884609
loop_
_atom_site_label
_atom_site_type_symbol
_atom_site_fract_x
_atom_site_fract_y
_atom_site_fract_z
_atom_type_partial_charge
Fe0 Fe 0.00678 0.03264 0.08781 0.0
O1 O 0.94185 0.03657 0.01213 0.0
Fe2 Fe 0.12068 0.95551 0.99545 0.0
Fe3 Fe 0.88001 0.10151 0.00997 0.0
O4 O 0.06008 1.02155 1.00191 0.0
O5 O 0.05952 1.02147 0.99433 0.0
O6 O 0.94132 0.03633 0.00461 0.0
Fe7 Fe 0.99451 0.02555 0.91826 0.0
C8 C 0.88263 0.04739 0.16246 0.0
O9 O 0.01915 0.12757 0.08459 0.0
O10 O 0.92438 0.15961 0.08197 0.0
O11 O 0.06136 1.01545 0.83832 0.0
O12 O 0.14873 1.00451 0.90607 0.0
O13 O 0.16111 1.00793 0.0759 0.0
O14 O 0.08363 0.02741 0.15559 0.0
O15 O 0.91332 0.15171 0.92379 0.0
O16 O 0.00718 0.12023 0.90854 0.0
C17 C 0.14026 1.02277 0.13956 0.0
O18 O 0.98133 0.9311 0.92121 0.0
O19 O 0.07589 0.89916 0.92149 0.0
O20 O 0.9408 0.04421 0.16798 0.0
O21 O 0.85254 0.0562 0.10228 0.0
C22 C 0.97913 0.16796 0.09891 0.0
C23 C 0.96613 0.16072 0.90077 0.0
C24 C 0.86074 0.02599 0.87009 0.0
O25 O 0.84038 0.04523 0.93246 0.0
O26 O 0.91689 0.02823 0.85085 0.0
C27 C 0.11949 1.01775 0.84644 0.0
O28 O 0.08712 0.90372 0.08073 0.0
O29 O 0.9943 0.9381 0.09706 0.0
C30 C 0.02078 0.89054 0.90652 0.0
C31 C 0.03527 0.89787 0.10784 0.0
Mg32 Mg 0.02375 0.52732 0.50869 0.0
C33 C 0.01064 0.44281 0.39156 0.0
O34 O 0.06769 0.45365 0.40403 0.0
C35 C 0.03122 0.60209 0.63633 0.0
O36 O 0.0833 0.57606 0.62343 0.0
C37 C 0.02184 0.43446 0.61843 0.0
O38 O 0.96911 0.4612 0.61262 0.0
O39 O 0.06326 0.45305 0.5764 0.0
O40 O 0.9725 0.47105 0.43116 0.0
O41 O 0.06832 0.59123 0.43394 0.0
C42 C 0.02774 0.62414 0.40324 0.0
O43 O 0.97196 0.61468 0.42215 0.0
O44 O 0.98819 0.59082 0.59198 0.0
Mg45 Mg 0.51158 1.016 0.52059 0.0
C46 C 0.42312 0.02567 0.40678 0.0
O47 O 0.4299 0.08164 0.43466 0.0
C48 C 0.55937 0.9564 0.65823 0.0
O49 O 0.5127 0.98443 0.68637 0.0
C50 C 0.39752 0.03192 0.5925 0.0
O51 O 0.3939 0.97855 0.55765 0.0
O52 O 0.44616 0.06256 0.58971 0.0
O53 O 0.4565 0.98191 0.43038 0.0
O54 O 0.58101 0.06962 0.46766 0.0
C55 C 0.62657 0.03608 0.4537 0.0
O56 O 0.62635 0.97759 0.47355 0.0
O57 O 0.56351 0.9529 0.58923 0.0
H58 H 0.9027 0.24642 0.16885 0.0
H59 H 0.09072 0.21176 0.1344 0.0
H60 H 0.1161 0.29562 0.21955 0.0
H61 H 0.08531 0.37463 0.30774 0.0
H62 H 0.89776 0.40716 0.34692 0.0
H63 H 0.87177 0.32786 0.2554 0.0
C64 C 0.94932 0.25762 0.17909 0.0
C65 C 0.99479 0.22276 0.14484 0.0
C66 C 0.96361 0.30506 0.22932 0.0
C67 C 0.05484 0.23771 0.15969 0.0
C68 C 0.06938 0.28557 0.20858 0.0
C69 C 0.0386 0.36478 0.29626 0.0
C70 C 0.99348 0.3968 0.33446 0.0
C71 C 0.02416 0.31887 0.2444 0.0
C72 C 0.93333 0.3832 0.31855 0.0
C73 C 0.91852 0.33787 0.26621 0.0
H74 H 0.78654 0.11741 0.19334 0.0
H75 H 0.90006 0.97351 0.28191 0.0
H76 H 0.83345 0.96334 0.38682 0.0
H77 H 0.7376 0.98774 0.44495 0.0
H78 H 0.62409 0.13149 0.35554 0.0
H79 H 0.69712 0.1507 0.25969 0.0
C80 C 0.79678 0.08404 0.23592 0.0
C81 C 0.84715 0.04519 0.22957 0.0
C82 C 0.75857 0.07875 0.2956 0.0
C83 C 0.86116 1.00341 0.2857 0.0
C84 C 0.82309 0.99759 0.34537 0.0
C85 C 0.72929 1.02397 0.4051 0.0
C86 C 0.67519 0.05754 0.40639 0.0
C87 C 0.7709 0.0339 0.34974 0.0
C88 C 0.66536 0.10504 0.35548 0.0
C89 C 0.70683 0.1156 0.30038 0.0
H90 H 0.1171 0.81764 0.16806 0.0
H91 H 0.92837 0.86112 0.16423 0.0
H92 H 0.91039 0.78035 0.25417 0.0
H93 H 0.94779 0.69962 0.3358 0.0
H94 H 0.13623 0.65608 0.34344 0.0
H95 H 0.15473 0.73498 0.25008 0.0
C96 C 0.0719 0.8091 0.18627 0.0
C97 C 0.02409 0.84552 0.15878 0.0
C98 C 0.06187 0.76292 0.23907 0.0
C99 C 0.96601 0.83398 0.18395 0.0
C100 C 0.95567 0.78781 0.23564 0.0
C101 C 0.99309 0.70708 0.31723 0.0
C102 C 0.04062 0.6718 0.34691 0.0
C103 C 1.00326 0.75241 0.26393 0.0
C104 C 0.09884 0.68252 0.32182 0.0
C105 C 0.10937 0.72759 0.26832 0.0
H106 H 0.23965 0.95398 0.15728 0.0
H107 H 0.14121 0.10546 0.25396 0.0
H108 H 0.2207 0.11903 0.34626 0.0
H109 H 0.31971 0.08999 0.39559 0.0
H110 H 0.41536 0.93504 0.30205 0.0
H111 H 0.33491 0.92029 0.21172 0.0
C112 C 0.23566 0.99006 0.19857 0.0
C113 C 0.1853 0.02942 0.19844 0.0
C114 C 0.28088 0.99685 0.25149 0.0
C115 C 0.17975 0.07488 0.25309 0.0
C116 C 0.2252 0.08269 0.30549 0.0
C117 C 0.32295 0.05303 0.3553 0.0
C118 C 0.37371 1.01415 0.3545 0.0
C119 C 0.27623 0.04437 0.30458 0.0
C120 C 0.37682 0.9656 0.30333 0.0
C121 C 0.33096 0.95731 0.25175 0.0
H122 H 0.07838 0.78039 0.90221 0.0
H123 H 0.92676 0.87719 0.80986 0.0
H124 H 0.91169 0.79279 0.72113 0.0
H125 H 0.9498 0.69662 0.66058 0.0
H126 H 0.10243 0.6028 0.75577 0.0
H127 H 0.10839 0.68021 0.85233 0.0
C128 C 0.04146 0.78263 0.86336 0.0
C129 C 1.00429 0.83524 0.86212 0.0
C130 C 0.03352 0.7345 0.81228 0.0
C131 C 0.95611 0.8371 0.81206 0.0
C132 C 0.94773 0.78902 0.76091 0.0
C133 C 0.98352 0.69265 0.70329 0.0
C134 C 0.02622 0.6445 0.70008 0.0
C135 C 0.9873 0.73821 0.75906 0.0
C136 C 0.06961 0.63991 0.75601 0.0
C137 C 0.07314 0.68418 0.81151 0.0
H138 H 0.22132 0.0842 0.84783 0.0
H139 H 0.10212 0.98304 0.70398 0.0
H140 H 0.1768 0.98649 0.60707 0.0
H141 H 0.28125 1.00366 0.57155 0.0
H142 H 0.40095 0.10316 0.71652 0.0
H143 H 0.32032 0.11592 0.80487 0.0
C144 C 0.21132 0.06399 0.79468 0.0
C145 C 0.15695 0.0324 0.78313 0.0
C146 C 0.25469 0.06533 0.74009 0.0
C147 C 0.14377 1.00743 0.71395 0.0
C148 C 0.18664 1.00896 0.65891 0.0
C149 C 0.28934 0.02906 0.62203 0.0
C150 C 0.34708 0.05141 0.63847 0.0
C151 C 0.24309 0.03547 0.67259 0.0
C152 C 0.3569 0.08535 0.70305 0.0
C153 C 0.31094 0.09226 0.75364 0.0
H154 H 0.05349 0.18554 0.79912 0.0
H155 H 0.90451 0.26834 0.91251 0.0
H156 H 0.91314 0.36169 0.83962 0.0
H157 H 0.9563 0.4167 0.73801 0.0
H158 H 0.10349 0.33725 0.61936 0.0
H159 H 0.10305 0.2464 0.70061 0.0
C160 C 0.02354 0.22441 0.80841 0.0
C161 C 0.97782 0.21938 0.86078 0.0
C162 C 0.0282 0.27847 0.76516 0.0
C163 C 0.93944 0.2703 0.87205 0.0
C164 C 0.94437 0.32393 0.83042 0.0
C165 C 0.98874 0.37979 0.72999 0.0
C166 C 0.0294 0.38343 0.67213 0.0
C167 C 0.9875 0.32791 0.77583 0.0
C168 C 0.07171 0.33562 0.6635 0.0
C169 C 0.07113 0.28352 0.7097 0.0
H170 H 0.75334 0.97784 0.90418 0.0
H171 H 0.86557 1.0168 0.71981 0.0
H172 H 0.7835 0.9879 0.63633 0.0
H173 H 0.67604 0.96507 0.61713 0.0
H174 H 0.564 0.93289 0.80358 0.0
H175 H 0.65037 0.94469 0.88508 0.0
C176 C 0.76021 0.97981 0.84568 0.0
C177 C 0.81516 1.00095 0.81828 0.0
C178 C 0.7128 0.96423 0.79851 0.0
C179 C 0.82361 1.00136 0.74237 0.0
C180 C 0.7766 0.98498 0.69469 0.0
C181 C 0.67085 0.95888 0.67543 0.0
C182 C 0.61353 0.94826 0.7044 0.0
C183 C 0.72043 0.96813 0.72225 0.0
C184 C 0.60751 0.94114 0.78008 0.0
C185 C 0.65681 0.94831 0.82668 0.0
loop_
_geom_bond_atom_site_label_1
_geom_bond_atom_site_label_2
_geom_bond_distance
_geom_bond_site_symmetry_2
_ccdc_geom_bond_type
Fe0 O1 1.895 . S
Fe0 O4 1.706 1_645 S
Fe0 O9 2.077 1_655 S
Fe0 O14 1.918 1_655 S
Fe0 O20 2.094 1_545 S
Fe0 O29 1.938 1_545 S
O1 Fe0 1.895 . S
O1 Fe3 1.715 . S
Fe2 O4 1.886 . S
Fe2 O5 1.715 1_554 S
Fe2 O12 1.935 1_554 S
Fe2 O13 2.077 . S
Fe2 O19 1.935 1_554 S
Fe2 O28 2.077 . S
Fe3 O1 1.715 . S
Fe3 O6 1.886 1_554 S
Fe3 O10 1.935 . S
Fe3 O15 2.077 1_554 S
Fe3 O21 1.935 . S
Fe3 O25 2.077 1_554 S
O4 Fe0 1.706 1_465 S
O4 Fe2 1.886 . S
O5 Fe2 1.715 1_556 S
O5 Fe7 1.895 . S
O6 Fe3 1.886 1_556 S
O6 Fe7 1.706 1_645 S
Fe7 O5 1.895 . S
Fe7 O6 1.706 1_465 S
Fe7 O11 2.077 1_565 S
Fe7 O16 1.918 1_565 S
Fe7 O18 2.094 1_455 S
Fe7 O26 1.938 1_455 S
C8 O20 1.381 1_545 S
C8 O21 1.421 . S
O9 Fe0 2.077 1_455 S
O9 C22 1.381 1_455 S
O10 Fe3 1.935 . S
O10 C22 1.421 . S
O11 Fe7 2.077 1_545 S
O11 C27 1.381 1_545 S
O12 Fe2 1.935 1_556 S
O12 C27 1.421 . S
O13 Fe2 2.077 . S
O13 C17 1.381 . S
O14 Fe0 1.918 1_455 S
O14 C17 1.421 1_545 S
O15 Fe3 2.077 1_556 S
O15 C23 1.381 . S
O16 Fe7 1.918 1_545 S
O16 C23 1.421 1_455 S
C17 O13 1.381 . S
C17 O14 1.421 1_565 S
O18 Fe7 2.094 1_655 S
O18 C30 1.381 1_655 S
O19 Fe2 1.935 1_556 S
O19 C30 1.421 . S
O20 Fe0 2.094 1_565 S
O20 C8 1.381 1_565 S
O21 Fe3 1.935 . S
O21 C8 1.421 . S
C22 O9 1.381 1_655 S
C22 O10 1.421 . S
C23 O15 1.381 . S
C23 O16 1.421 1_655 S
C24 O25 1.381 . S
C24 O26 1.421 1_545 S
O25 Fe3 2.077 1_556 S
O25 C24 1.381 . S
O26 Fe7 1.938 1_655 S
O26 C24 1.421 1_565 S
C27 O11 1.381 1_565 S
C27 O12 1.421 . S
O28 Fe2 2.077 . S
O28 C31 1.381 . S
O29 Fe0 1.938 1_565 S
O29 C31 1.421 1_655 S
C30 O18 1.381 1_455 S
C30 O19 1.421 . S
C31 O28 1.381 . S
C31 O29 1.421 1_455 S
Mg32 O39 2.141 . S
Mg32 O40 2.048 . S
Mg32 O41 2.048 . S
Mg32 O44 2.141 . S
C33 O34 1.313 . S
C33 O40 1.195 1_455 S
O34 C33 1.313 . S
C35 O36 1.245 . S
C35 O44 1.289 1_455 S
O36 C35 1.245 . S
C37 O38 1.245 . S
C37 O39 1.289 1_455 S
O38 C37 1.245 . S
O39 Mg32 2.141 . S
O39 C37 1.289 1_655 S
O40 Mg32 2.048 . S
O40 C33 1.195 1_655 S
O41 Mg32 2.048 . S
O41 C42 1.195 1_655 S
C42 O41 1.195 1_455 S
C42 O43 1.313 . S
O43 C42 1.313 . S
O44 Mg32 2.141 . S
O44 C35 1.289 1_655 S
Mg45 O52 2.141 . S
Mg45 O53 2.048 . S
Mg45 O54 2.048 . S
Mg45 O57 2.141 . S
C46 O47 1.313 . S
C46 O53 1.195 1_565 S
O47 C46 1.313 . S
C48 O49 1.245 . S
C48 O57 1.289 1_565 S
O49 C48 1.245 . S
C50 O51 1.245 . S
C50 O52 1.289 1_565 S
O51 C50 1.245 . S
O52 Mg45 2.141 . S
O52 C50 1.289 1_545 S
O53 Mg45 2.048 . S
O53 C46 1.195 1_545 S
O54 Mg45 2.048 . S
O54 C55 1.195 1_545 S
C55 O54 1.195 1_565 S
C55 O56 1.313 . S
O56 C55 1.313 . S
O57 Mg45 2.141 . S
O57 C48 1.289 1_545 S
H58 C64 0.930 . S
H59 C67 0.930 . S
H60 C68 0.930 . S
H61 C69 0.930 . S
H62 C72 0.930 . S
H63 C73 0.930 . S
C64 H58 0.930 . S
C64 C65 1.355 1_655 S
C64 C66 1.415 . S
C65 C64 1.355 1_455 S
C65 C67 1.419 . S
C66 C64 1.415 . S
C66 C71 1.425 1_655 S
C66 C73 1.409 . S
C67 H59 0.930 . S
C67 C65 1.419 . S
C67 C68 1.362 . S
C68 H60 0.930 . S
C68 C67 1.362 . S
C68 C71 1.409 . S
C69 H61 0.930 . S
C69 C70 1.355 1_455 S
C69 C71 1.415 . S
C70 C69 1.355 1_655 S
C70 C72 1.419 . S
C71 C66 1.425 1_455 S
C71 C68 1.409 . S
C71 C69 1.415 . S
C72 H62 0.930 . S
C72 C70 1.419 . S
C72 C73 1.362 . S
C73 H63 0.930 . S
C73 C66 1.409 . S
C73 C72 1.362 . S
H74 C80 0.930 . S
H75 C83 0.930 . S
H76 C84 0.930 . S
H77 C85 0.930 . S
H78 C88 0.930 . S
H79 C89 0.930 . S
C80 H74 0.930 . S
C80 C81 1.356 . S
C80 C82 1.415 . S
C81 C80 1.356 . S
C81 C83 1.418 1_545 S
C82 C80 1.415 . S
C82 C87 1.425 1_545 S
C82 C89 1.409 . S
C83 H75 0.930 . S
C83 C81 1.418 1_565 S
C83 C84 1.362 . S
C84 H76 0.930 . S
C84 C83 1.362 . S
C84 C87 1.409 . S
C85 H77 0.930 . S
C85 C86 1.356 . S
C85 C87 1.415 . S
C86 C85 1.356 . S
C86 C88 1.417 1_565 S
C87 C82 1.425 1_565 S
C87 C84 1.409 . S
C87 C85 1.415 . S
C88 H78 0.930 . S
C88 C86 1.417 1_545 S
C88 C89 1.362 . S
C89 H79 0.930 . S
C89 C82 1.409 . S
C89 C88 1.362 . S
H90 C96 0.930 . S
H91 C99 0.930 . S
H92 C100 0.930 . S
H93 C101 0.930 . S
H94 C104 0.930 . S
H95 C105 0.930 . S
C96 H90 0.930 . S
C96 C97 1.355 . S
C96 C98 1.415 . S
C97 C96 1.355 . S
C97 C99 1.419 1_655 S
C98 C96 1.415 . S
C98 C103 1.425 1_655 S
C98 C105 1.409 . S
C99 H91 0.930 . S
C99 C97 1.419 1_455 S
C99 C100 1.362 . S
C100 H92 0.930 . S
C100 C99 1.362 . S
C100 C103 1.409 . S
C101 H93 0.930 . S
C101 C102 1.355 . S
C101 C103 1.415 . S
C102 C101 1.355 . S
C102 C104 1.419 1_455 S
C103 C98 1.425 1_455 S
C103 C100 1.409 . S
C103 C101 1.415 . S
C104 H94 0.930 . S
C104 C102 1.419 1_655 S
C104 C105 1.362 . S
C105 H95 0.930 . S
C105 C98 1.409 . S
C105 C104 1.362 . S
H106 C112 0.930 . S
H107 C115 0.930 . S
H108 C116 0.930 . S
H109 C117 0.930 . S
H110 C120 0.930 . S
H111 C121 0.930 . S
C112 H106 0.930 . S
C112 C113 1.355 . S
C112 C114 1.415 . S
C113 C112 1.355 . S
C113 C115 1.419 1_565 S
C114 C112 1.415 . S
C114 C119 1.425 1_565 S
C114 C121 1.409 . S
C115 H107 0.930 . S
C115 C113 1.419 1_545 S
C115 C116 1.362 . S
C116 H108 0.930 . S
C116 C115 1.362 . S
C116 C119 1.409 . S
C117 H109 0.930 . S
C117 C118 1.355 . S
C117 C119 1.415 . S
C118 C117 1.355 . S
C118 C120 1.419 1_545 S
C119 C114 1.425 1_545 S
C119 C116 1.409 . S
C119 C117 1.415 . S
C120 H110 0.930 . S
C120 C118 1.419 1_565 S
C120 C121 1.362 . S
C121 H111 0.930 . S
C121 C114 1.409 . S
C121 C120 1.362 . S
H122 C128 0.930 . S
H123 C131 0.930 . S
H124 C132 0.930 . S
H125 C133 0.930 . S
H126 C136 0.930 . S
H127 C137 0.930 . S
C128 H122 0.930 . S
C128 C129 1.355 1_455 S
C128 C130 1.415 . S
C129 C128 1.355 1_655 S
C129 C131 1.419 . S
C130 C128 1.415 . S
C130 C135 1.425 1_455 S
C130 C137 1.409 . S
C131 H123 0.930 . S
C131 C129 1.419 . S
C131 C132 1.362 . S
C132 H124 0.930 . S
C132 C131 1.362 . S
C132 C135 1.409 . S
C133 H125 0.930 . S
C133 C134 1.355 1_655 S
C133 C135 1.415 . S
C134 C133 1.355 1_455 S
C134 C136 1.419 . S
C135 C130 1.425 1_655 S
C135 C132 1.409 . S
C135 C133 1.415 . S
C136 H126 0.930 . S
C136 C134 1.419 . S
C136 C137 1.362 . S
C137 H127 0.930 . S
C137 C130 1.409 . S
C137 C136 1.362 . S
H138 C144 0.930 . S
H139 C147 0.930 . S
H140 C148 0.930 . S
H141 C149 0.930 . S
H142 C152 0.930 . S
H143 C153 0.930 . S
C144 H138 0.930 . S
C144 C145 1.355 1_565 S
C144 C146 1.415 . S
C145 C144 1.355 1_545 S
C145 C147 1.419 . S
C146 C144 1.415 . S
C146 C151 1.425 1_565 S
C146 C153 1.409 . S
C147 H139 0.930 . S
C147 C145 1.419 . S
C147 C148 1.362 . S
C148 H140 0.930 . S
C148 C147 1.362 . S
C148 C151 1.409 . S
C149 H141 0.930 . S
C149 C150 1.355 1_545 S
C149 C151 1.415 . S
C150 C149 1.355 1_565 S
C150 C152 1.419 . S
C151 C146 1.425 1_545 S
C151 C148 1.409 . S
C151 C149 1.415 . S
C152 H142 0.930 . S
C152 C150 1.419 . S
C152 C153 1.362 . S
C153 H143 0.930 . S
C153 C146 1.409 . S
C153 C152 1.362 . S
H154 C160 0.930 . S
H155 C163 0.930 . S
H156 C164 0.930 . S
H157 C165 0.930 . S
H158 C168 0.930 . S
H159 C169 0.930 . S
C160 H154 0.930 . S
C160 C161 1.355 1_655 S
C160 C162 1.415 . S
C161 C160 1.355 1_455 S
C161 C163 1.419 . S
C162 C160 1.415 . S
C162 C167 1.425 1_655 S
C162 C169 1.409 . S
C163 H155 0.930 . S
C163 C161 1.419 . S
C163 C164 1.362 . S
C164 H156 0.930 . S
C164 C163 1.362 . S
C164 C167 1.409 . S
C165 H157 0.930 . S
C165 C166 1.355 1_455 S
C165 C167 1.415 . S
C166 C165 1.355 1_655 S
C166 C168 1.419 . S
C167 C162 1.425 1_455 S
C167 C164 1.409 . S
C167 C165 1.415 . S
C168 H158 0.930 . S
C168 C166 1.419 . S
C168 C169 1.362 . S
C169 H159 0.930 . S
C169 C162 1.409 . S
C169 C168 1.362 . S
H170 C176 0.930 . S
H171 C179 0.930 . S
H172 C180 0.930 . S
H173 C181 0.930 . S
H174 C184 0.930 . S
H175 C185 0.930 . S
C176 H170 0.930 . S
C176 C177 1.355 1_565 S
C176 C178 1.415 . S
C177 C176 1.355 1_545 S
C177 C179 1.419 . S
C178 C176 1.415 . S
C178 C183 1.425 1_565 S
C178 C185 1.409 . S
C179 H171 0.930 . S
C179 C177 1.419 . S
C179 C180 1.362 . S
C180 H172 0.930 . S
C180 C179 1.362 . S
C180 C183 1.409 . S
C181 H173 0.930 . S
C181 C182 1.355 1_545 S
C181 C183 1.415 . S
C182 C181 1.355 1_565 S
C182 C184 1.419 . S
C183 C178 1.425 1_545 S
C183 C180 1.409 . S
C183 C181 1.415 . S
C184 H174 0.930 . S
C184 C182 1.419 . S
C184 C185 1.362 . S
C185 H175 0.930 . S
C185 C178 1.409 . S
C185 C184 1.362 . S
C65 C22 1.449 1_455 S
C70 C33 1.468 1_655 S
C81 C8 1.407 . S
C86 C55 1.472 . S
C97 C31 1.398 1_655 S
C102 C42 1.471 . S
C113 C17 1.387 . S
C118 C46 1.473 1_545 S
C129 C30 1.387 1_655 S
C134 C35 1.382 . S
C145 C27 1.367 1_545 S
C150 C50 1.387 . S
C166 C37 1.413 1_655 S
C161 C23 1.384 1_455 S
C177 C24 1.322 . S
C182 C48 1.381 . S
