# Generated by pormake.
# Topology scu, (8,4)-cn, num edge types: 1
# Building blocks:
#     Node 0, Type 0, BuildingBlock: VETTIZ_charged_sbu_0, # of connection points: 8
#     Node 1, Type 1, BuildingBlock: NAWXER_clean_sbu_0, # of connection points: 4
#     Node 2, Type 1, BuildingBlock: NAWXER_clean_sbu_0, # of connection points: 4
#     Edge 3, Type (0, 1), None
#     Edge 4, Type (0, 1), None
#     Edge 5, Type (0, 1), None
#     Edge 6, Type (0, 1), None
#     Edge 7, Type (0, 1), None
#     Edge 8, Type (0, 1), None
#     Edge 9, Type (0, 1), None
#     Edge 10, Type (0, 1), None
# Relax obj value: 0.013
# Max RMSD: 0.059
# Mean RMSD: 0.052
data_MOF--net-scu--node1-VETTIZ_charged_sbu_0--node2-NAWXER_clean_sbu_0--edge1-none
_symmetry_space_group_name_H-M    P1
_symmetry_Int_Tables_number       1
_symmetry_cell_setting            triclinic
loop_
_symmetry_equiv_pos_as_xyz
'x, y, z'
_cell_length_a     11.212944
_cell_length_b     10.814585
_cell_length_c     10.322921
_cell_angle_alpha  89.999285
_cell_angle_beta   90.001767
_cell_angle_gamma 73.575806
loop_
_atom_site_label
_atom_site_type_symbol
_atom_site_fract_x
_atom_site_fract_y
_atom_site_fract_z
_atom_type_partial_charge
Fe0 Fe 0.02508 0.09542 0.10535 0.0
O1 O 0.90084 0.1487 0.96282 0.0
Fe2 Fe 0.27573 0.87467 -0.02234 0.0
Fe3 Fe 0.77445 0.31618 -0.02235 0.0
O4 O 0.14933 1.04215 0.96283 0.0
O5 O 0.15073 1.04637 0.95042 0.0
O6 O 0.89945 0.14448 0.95041 0.0
Fe7 Fe 0.02509 0.09544 0.80695 0.0
C8 C 0.76921 0.14343 0.20607 0.0
O9 O 0.05745 0.27143 0.11199 0.0
O10 O 0.8623 0.38382 0.13165 0.0
O11 O 0.18864 1.03439 0.68619 0.0
O12 O 0.35491 0.93419 0.82235 0.0
O13 O 0.34231 0.97626 0.11382 0.0
O14 O 0.16876 1.04986 0.23765 0.0
O15 O 0.84574 0.41117 0.83647 0.0
O16 O 0.03703 0.28344 0.7972 0.0
C17 C 0.28095 1.04743 0.20607 0.0
O18 O 1.01316 0.90743 0.79716 0.0
O19 O 0.20444 0.77969 0.83647 0.0
O20 O 0.88141 0.14095 0.23764 0.0
O21 O 0.70787 0.21458 0.11379 0.0
C22 C 0.97625 0.36235 0.16416 0.0
C23 C 0.94634 0.38331 0.7717 0.0
C24 C 0.74228 0.21172 0.71196 0.0
O25 O 0.69527 0.25668 0.82232 0.0
O26 O 0.86155 0.15651 0.68617 0.0
C27 C 0.30791 0.97919 0.712 0.0
O28 O 0.18787 0.80701 0.13165 0.0
O29 O 0.99272 0.9194 0.11196 0.0
C30 C 0.10384 0.80756 0.77168 0.0
C31 C 0.07392 0.82848 0.16414 0.0
C32 C 0.0932 0.72403 0.6602 0.0
C33 C 1.00992 0.43367 0.27539 0.0
O34 O 0.18541 0.63495 0.61587 0.0
Zn35 Zn 0.13328 0.53538 0.46641 0.0
O36 O 0.98883 0.74647 0.60417 0.0
Zn37 Zn 0.9169 0.65547 0.4664 0.0
O38 O 0.86477 0.55591 0.61587 0.0
O39 O 0.06135 0.44439 0.60419 0.0
O40 O 0.9234 0.51933 0.32952 0.0
O41 O 0.12062 0.4112 0.31944 0.0
O42 O 0.12678 0.67151 0.32951 0.0
O43 O 0.92956 0.77964 0.31941 0.0
C44 C 0.95698 0.46683 0.66021 0.0
C45 C 0.04025 0.75717 0.27538 0.0
C46 C 0.64931 0.19863 0.6189 0.0
C47 C 0.35477 0.09712 0.29636 0.0
O48 O 0.66256 1.08583 0.5788 0.0
Zn49 Zn 0.58871 0.98351 0.46268 0.0
O50 O 0.55028 0.2887 0.59196 0.0
Zn51 Zn 0.46147 0.20736 0.46266 0.0
O52 O 0.38762 0.10506 0.57881 0.0
O53 O 0.4999 0.9022 0.59201 0.0
O54 O 0.32745 0.21442 0.33483 0.0
O55 O 0.45096 1.0149 0.33672 0.0
O56 O 0.72273 0.97643 0.33485 0.0
O57 O 0.5992 0.17594 0.3367 0.0
C58 C 0.40087 0.99226 0.61893 0.0
C59 C 0.6954 1.09372 0.29636 0.0
loop_
_geom_bond_atom_site_label_1
_geom_bond_atom_site_label_2
_geom_bond_distance
_geom_bond_site_symmetry_2
_ccdc_geom_bond_type
Fe0 O1 1.886 . S
Fe0 O4 1.715 1_645 S
Fe0 O9 2.077 1_655 S
Fe0 O14 1.935 1_655 S
Fe0 O20 2.077 1_545 S
Fe0 O29 1.935 1_545 S
O1 Fe0 1.886 . S
O1 Fe3 1.715 1_554 S
Fe2 O4 1.886 . S
Fe2 O5 1.715 1_554 S
Fe2 O12 1.935 1_554 S
Fe2 O13 2.077 . S
Fe2 O19 1.935 1_554 S
Fe2 O28 2.077 . S
Fe3 O1 1.715 1_556 S
Fe3 O6 1.886 . S
Fe3 O10 1.935 1_556 S
Fe3 O15 2.077 . S
Fe3 O21 1.935 1_556 S
Fe3 O25 2.077 . S
O4 Fe0 1.715 1_465 S
O4 Fe2 1.886 . S
O5 Fe2 1.715 1_556 S
O5 Fe7 1.886 . S
O6 Fe3 1.886 . S
O6 Fe7 1.715 1_645 S
Fe7 O5 1.886 . S
Fe7 O6 1.715 1_465 S
Fe7 O11 2.077 1_565 S
Fe7 O16 1.935 1_565 S
Fe7 O18 2.077 1_455 S
Fe7 O26 1.935 1_455 S
C8 O20 1.381 1_545 S
C8 O21 1.421 . S
O9 Fe0 2.077 1_455 S
O9 C22 1.381 1_455 S
O10 Fe3 1.935 1_554 S
O10 C22 1.421 . S
O11 Fe7 2.077 1_545 S
O11 C27 1.381 1_545 S
O12 Fe2 1.935 1_556 S
O12 C27 1.421 . S
O13 Fe2 2.077 . S
O13 C17 1.381 . S
O14 Fe0 1.935 1_455 S
O14 C17 1.421 1_545 S
O15 Fe3 2.077 . S
O15 C23 1.381 . S
O16 Fe7 1.935 1_545 S
O16 C23 1.421 1_455 S
C17 O13 1.381 . S
C17 O14 1.421 1_565 S
O18 Fe7 2.077 1_655 S
O18 C30 1.381 1_655 S
O19 Fe2 1.935 1_556 S
O19 C30 1.421 . S
O20 Fe0 2.077 1_565 S
O20 C8 1.381 1_565 S
O21 Fe3 1.935 1_554 S
O21 C8 1.421 . S
C22 O9 1.381 1_655 S
C22 O10 1.421 . S
C23 O15 1.381 . S
C23 O16 1.421 1_655 S
C24 O25 1.381 . S
C24 O26 1.421 1_545 S
O25 Fe3 2.077 . S
O25 C24 1.381 . S
O26 Fe7 1.935 1_655 S
O26 C24 1.421 1_565 S
C27 O11 1.381 1_565 S
C27 O12 1.421 . S
O28 Fe2 2.077 . S
O28 C31 1.381 . S
O29 Fe0 1.935 1_565 S
O29 C31 1.421 1_655 S
C30 O18 1.381 1_455 S
C30 O19 1.421 . S
C31 O28 1.381 . S
C31 O29 1.421 1_455 S
C32 O34 1.254 . S
C32 O36 1.251 1_455 S
C33 O40 1.246 . S
C33 O41 1.259 1_655 S
O34 C32 1.254 . S
O34 Zn35 2.028 . S
Zn35 O34 2.028 . S
Zn35 O39 2.035 . S
Zn35 O41 2.035 . S
Zn35 O42 2.028 . S
O36 C32 1.251 1_655 S
O36 Zn37 2.035 . S
Zn37 O36 2.035 . S
Zn37 O38 2.028 . S
Zn37 O40 2.028 . S
Zn37 O43 2.035 . S
O38 Zn37 2.028 . S
O38 C44 1.246 . S
O39 Zn35 2.035 . S
O39 C44 1.259 1_455 S
O40 C33 1.246 . S
O40 Zn37 2.028 . S
O41 C33 1.259 1_455 S
O41 Zn35 2.035 . S
O42 Zn35 2.028 . S
O42 C45 1.254 . S
O43 Zn37 2.035 . S
O43 C45 1.251 1_655 S
C44 O38 1.246 . S
C44 O39 1.259 1_655 S
C45 O42 1.254 . S
C45 O43 1.251 1_455 S
C46 O48 1.246 . S
C46 O50 1.259 1_565 S
C47 O54 1.254 . S
C47 O55 1.251 1_545 S
O48 C46 1.246 . S
O48 Zn49 2.028 . S
Zn49 O48 2.028 . S
Zn49 O53 2.035 . S
Zn49 O55 2.035 . S
Zn49 O56 2.028 . S
O50 C46 1.259 1_545 S
O50 Zn51 2.035 . S
Zn51 O50 2.035 . S
Zn51 O52 2.028 . S
Zn51 O54 2.028 . S
Zn51 O57 2.035 . S
O52 Zn51 2.028 . S
O52 C58 1.254 . S
O53 Zn49 2.035 . S
O53 C58 1.251 1_565 S
O54 C47 1.254 . S
O54 Zn51 2.028 . S
O55 C47 1.251 1_565 S
O55 Zn49 2.035 . S
O56 Zn49 2.028 . S
O56 C59 1.246 . S
O57 Zn51 2.035 . S
O57 C59 1.259 1_545 S
C58 O52 1.254 . S
C58 O53 1.251 1_545 S
C59 O56 1.246 . S
C59 O57 1.259 1_565 S
C22 C33 1.415 . S
C8 C59 1.418 1_545 S
C31 C45 1.418 . S
C17 C47 1.417 1_565 S
C30 C32 1.418 . S
C27 C58 1.417 1_565 S
C44 C23 1.417 . S
C24 C46 1.420 1_545 S
