# Generated by pormake.
# Topology bcu-b, (8,8)-cn, num edge types: 1
# Building blocks:
#     Node 0, Type 0, BuildingBlock: TAGTUT_clean_sbu_3, # of connection points: 8
#     Node 1, Type 1, BuildingBlock: VETTIZ_charged_sbu_0, # of connection points: 8
#     Edge 2, Type (0, 1), BuildingBlock: OJICUG_clean_linker_0, # of connection points: 2
#     Edge 3, Type (0, 1), BuildingBlock: OJICUG_clean_linker_0, # of connection points: 2
#     Edge 4, Type (0, 1), BuildingBlock: OJICUG_clean_linker_0, # of connection points: 2
#     Edge 5, Type (0, 1), BuildingBlock: OJICUG_clean_linker_0, # of connection points: 2
#     Edge 6, Type (0, 1), BuildingBlock: OJICUG_clean_linker_0, # of connection points: 2
#     Edge 7, Type (0, 1), BuildingBlock: OJICUG_clean_linker_0, # of connection points: 2
#     Edge 8, Type (0, 1), BuildingBlock: OJICUG_clean_linker_0, # of connection points: 2
#     Edge 9, Type (0, 1), BuildingBlock: OJICUG_clean_linker_0, # of connection points: 2
# Relax obj value: 0.019
# Max RMSD: 0.095
# Mean RMSD: 0.076
data_MOF--net-bcu-b--node1-TAGTUT_clean_sbu_3--node2-VETTIZ_charged_sbu_0--edge1-OJICUG_clean_linker_0
_symmetry_space_group_name_H-M    P1
_symmetry_Int_Tables_number       1
_symmetry_cell_setting            triclinic
loop_
_symmetry_equiv_pos_as_xyz
'x, y, z'
_cell_length_a     14.17451
_cell_length_b     16.03958
_cell_length_c     15.456955
_cell_angle_alpha  89.735595
_cell_angle_beta   90.984288
_cell_angle_gamma 101.27581
loop_
_atom_site_label
_atom_site_type_symbol
_atom_site_fract_x
_atom_site_fract_y
_atom_site_fract_z
_atom_type_partial_charge
C0 C 0.20881 0.0832 0.12847 0.0
C1 C 0.23199 0.7512 0.10797 0.0
C2 C 0.17117 0.79228 0.83952 0.0
Mg3 Mg 0.05068 0.1722 0.02148 0.0
Mg4 Mg 0.83946 0.05063 0.97837 0.0
O5 O 0.97371 0.07176 0.95868 0.0
Mg6 Mg 0.04006 -0.01957 0.00065 0.0
O7 O 0.11021 0.89201 0.04236 0.0
Mg8 Mg 0.24207 0.93526 0.99678 0.0
Mg9 Mg 0.05212 0.78269 0.00293 0.0
C10 C 0.85926 0.88166 0.87871 0.0
O11 O 0.91911 0.92088 0.09181 0.0
O12 O 0.96153 0.25136 0.93237 0.0
O13 O 0.90918 0.78317 0.05537 0.0
O14 O 0.94035 0.17117 0.12633 0.0
O15 O 0.8186 0.16216 0.91087 0.0
O16 O 0.8066 0.07346 0.11266 0.0
O17 O 0.16875 0.03007 0.91469 0.0
O18 O 0.16521 0.16874 0.92114 0.0
C19 C 0.20318 0.1074 0.89482 0.0
C20 C 0.87513 0.23409 0.89995 0.0
O21 O 0.94993 0.89404 0.8974 0.0
O22 O 0.28199 0.82423 0.08492 0.0
O23 O 0.8034 0.92781 0.91044 0.0
O24 O 0.22865 0.84873 0.88161 0.0
O25 O 0.14518 0.72446 0.08173 0.0
O26 O 0.08816 0.76047 0.86901 0.0
O27 O 0.12217 0.07522 0.09934 0.0
O28 O 0.26187 0.03123 0.10637 0.0
C29 C 0.85934 0.13382 0.1551 0.0
C30 C 0.87746 0.84218 0.09543 0.0
Fe31 Fe 0.53294 0.57401 0.49663 0.0
O32 O 0.46034 0.4676 0.55072 0.0
Fe33 Fe 0.76033 0.52675 0.46691 0.0
Fe34 Fe 0.31966 0.43045 0.53412 0.0
O35 O 0.62016 0.49821 0.45688 0.0
O36 O 0.62003 0.4899 0.45522 0.0
O37 O 0.46032 0.45872 0.54948 0.0
Fe38 Fe 0.54615 0.38309 0.5065 0.0
C39 C 0.3543 0.60991 0.59871 0.0
O40 O 0.45669 0.5487 0.38388 0.0
O41 O 0.30836 0.51529 0.43353 0.0
O42 O 0.64454 0.31678 0.45276 0.0
O43 O 0.75829 0.42108 0.38941 0.0
O44 O 0.73966 0.61207 0.37219 0.0
O45 O 0.61925 0.67439 0.42795 0.0
O46 O 0.31954 0.33627 0.44626 0.0
O47 O 0.46655 0.35754 0.39267 0.0
C48 C 0.68662 0.66965 0.37254 0.0
O49 O 0.62693 0.40303 0.61969 0.0
O50 O 0.775 0.44755 0.56958 0.0
O51 O 0.42751 0.63831 0.54853 0.0
O52 O 0.3198 0.53052 0.61391 0.0
C53 C 0.36771 0.54795 0.37575 0.0
C54 C 0.37649 0.32824 0.38611 0.0
C55 C 0.38869 0.28256 0.62278 0.0
O56 O 0.33627 0.34053 0.62566 0.0
O57 O 0.45859 0.2812 0.56965 0.0
C58 C 0.716 0.34225 0.40109 0.0
O59 O 0.76035 0.62445 0.55384 0.0
O60 O 0.61298 0.60496 0.60859 0.0
C61 C 0.7182 0.41502 0.629 0.0
C62 C 0.70274 0.63651 0.61295 0.0
C63 C 0.35242 0.17512 0.19831 0.0
C64 C 0.25165 0.15379 0.1868 0.0
H65 H 0.47137 0.24846 0.26895 0.0
C66 C 0.19364 0.19742 0.23454 0.0
H67 H 0.39939 0.14362 0.16128 0.0
C68 C 0.23519 0.25718 0.29654 0.0
C69 C 0.33562 0.27504 0.31147 0.0
H70 H 0.1161 0.1829 0.22666 0.0
H71 H 0.18813 0.28758 0.3347 0.0
C72 C 0.39402 0.23555 0.25963 0.0
C73 C 0.88646 0.23693 0.27714 0.0
C74 C 0.8234 0.17202 0.23226 0.0
H75 H 0.90145 0.34176 0.36446 0.0
C76 C 0.72532 0.1556 0.25337 0.0
H77 H 0.96276 0.25078 0.26397 0.0
C78 C 0.6904 0.20763 0.31305 0.0
C79 C 0.7528 0.27751 0.35091 0.0
H80 H 0.67488 0.10611 0.22022 0.0
H81 H 0.614 0.19647 0.32536 0.0
C82 C 0.85145 0.28956 0.33473 0.0
C83 C 0.73589 0.7378 0.14611 0.0
C84 C 0.80086 0.81492 0.15893 0.0
H85 H 0.64491 0.63205 0.20612 0.0
C86 C 0.80626 0.85439 0.24058 0.0
H87 H 0.72968 0.70642 0.08374 0.0
C88 C 0.75789 0.81129 0.31104 0.0
C89 C 0.70259 0.72939 0.29969 0.0
H90 H 0.85601 0.91386 0.25225 0.0
H91 H 0.77181 0.83793 0.37535 0.0
C92 C 0.68705 0.69546 0.21599 0.0
C93 C 0.36817 0.70977 0.19523 0.0
C94 C 0.27021 0.69667 0.17233 0.0
H95 H 0.47612 0.6718 0.27662 0.0
C96 C 0.2057 0.63115 0.21407 0.0
H97 H 0.41966 0.75937 0.16444 0.0
C98 C 0.23755 0.58173 0.27859 0.0
C99 C 0.33501 0.59546 0.30241 0.0
H100 H 0.12942 0.61906 0.19863 0.0
H101 H 0.18554 0.53333 0.31047 0.0
C102 C 0.40037 0.65915 0.25917 0.0
C103 C 0.30441 0.79075 0.73492 0.0
C104 C 0.20947 0.75727 0.76174 0.0
H105 H 0.42563 0.77054 0.66169 0.0
C106 C 0.15845 0.68391 0.72132 0.0
H107 H 0.34559 0.84824 0.76369 0.0
C108 C 0.20439 0.64037 0.66226 0.0
C109 C 0.30243 0.6689 0.6426 0.0
H110 H 0.0852 0.65709 0.73923 0.0
H111 H 0.16443 0.58122 0.63576 0.0
C112 C 0.35059 0.74681 0.67597 0.0
C113 C 0.35134 0.19949 0.84506 0.0
C114 C 0.27823 0.12826 0.83018 0.0
H115 H 0.446 0.30448 0.78784 0.0
C116 C 0.26098 0.0956 0.74602 0.0
H117 H 0.36502 0.22578 0.90959 0.0
C118 C 0.30698 0.1412 0.67606 0.0
C119 C 0.37114 0.21836 0.69079 0.0
H120 H 0.20378 0.04128 0.73338 0.0
H121 H 0.28494 0.12111 0.61073 0.0
C122 C 0.39757 0.24439 0.7756 0.0
C123 C 0.73833 0.29002 0.83428 0.0
C124 C 0.83837 0.29525 0.84264 0.0
H125 H 0.62218 0.32398 0.76139 0.0
C126 C 0.8994 0.34956 0.78707 0.0
H127 H 0.68931 0.24936 0.87679 0.0
C128 C 0.86051 0.39231 0.72003 0.0
C129 C 0.75995 0.38184 0.70782 0.0
H130 H 0.97667 0.35472 0.79181 0.0
H131 H 0.90929 0.43042 0.67548 0.0
C132 C 0.69965 0.33289 0.76797 0.0
C133 C 0.87954 0.78051 0.7604 0.0
C134 C 0.81848 0.81418 0.81533 0.0
H135 H 0.89142 0.69816 0.65466 0.0
C136 C 0.71838 0.78566 0.80594 0.0
H137 H 0.95675 0.8019 0.76461 0.0
C138 C 0.68041 0.72611 0.74201 0.0
C139 C 0.74172 0.69424 0.68561 0.0
H140 H 0.66919 0.81012 0.84728 0.0
H141 H 0.60301 0.70674 0.73546 0.0
C142 C 0.84179 0.7214 0.69655 0.0
loop_
_geom_bond_atom_site_label_1
_geom_bond_atom_site_label_2
_geom_bond_distance
_geom_bond_site_symmetry_2
_ccdc_geom_bond_type
C0 O27 1.312 . S
C0 O28 1.208 . S
C1 O22 1.331 . S
C1 O25 1.244 . S
C2 O24 1.264 . S
C2 O26 1.273 . S
Mg3 O5 1.936 . S
Mg3 O12 2.081 . S
Mg3 O14 2.023 1_556 S
Mg3 O18 2.031 1_655 S
Mg3 O27 2.291 1_656 S
Mg4 O5 1.963 . S
Mg4 O15 1.942 . S
Mg4 O16 1.955 1_556 S
Mg4 O23 1.986 1_545 S
O5 Mg3 1.936 . S
O5 Mg4 1.963 . S
O5 Mg6 1.916 1_656 S
Mg6 O5 1.916 1_454 S
Mg6 O7 1.916 1_545 S
Mg6 O11 2.005 1_445 S
Mg6 O17 2.123 1_554 S
Mg6 O21 2.005 1_444 S
Mg6 O27 2.123 . S
O7 Mg6 1.916 1_565 S
O7 Mg8 1.936 . S
O7 Mg9 1.963 . S
Mg8 O7 1.936 . S
Mg8 O17 2.291 1_564 S
Mg8 O22 2.081 . S
Mg8 O24 2.023 1_554 S
Mg8 O28 2.031 1_565 S
Mg9 O7 1.963 . S
Mg9 O13 1.986 1_455 S
Mg9 O25 1.942 . S
Mg9 O26 1.955 1_554 S
C10 O21 1.191 . S
C10 O23 1.307 . S
O11 Mg6 2.005 1_665 S
O11 C30 1.191 . S
O12 Mg3 2.081 . S
O12 C20 1.331 . S
O13 Mg9 1.986 1_655 S
O13 C30 1.307 . S
O14 Mg3 2.023 1_554 S
O14 C29 1.264 . S
O15 Mg4 1.942 . S
O15 C20 1.244 . S
O16 Mg4 1.955 1_554 S
O16 C29 1.273 . S
O17 Mg6 2.123 1_556 S
O17 Mg8 2.291 1_546 S
O17 C19 1.312 . S
O18 Mg3 2.031 1_455 S
O18 C19 1.208 . S
C19 O17 1.312 . S
C19 O18 1.208 . S
C20 O12 1.331 . S
C20 O15 1.244 . S
O21 Mg6 2.005 1_666 S
O21 C10 1.191 . S
O22 C1 1.331 . S
O22 Mg8 2.081 . S
O23 Mg4 1.986 1_565 S
O23 C10 1.307 . S
O24 C2 1.264 . S
O24 Mg8 2.023 1_556 S
O25 C1 1.244 . S
O25 Mg9 1.942 . S
O26 C2 1.273 . S
O26 Mg9 1.955 1_556 S
O27 C0 1.312 . S
O27 Mg3 2.291 1_454 S
O27 Mg6 2.123 . S
O28 C0 1.208 . S
O28 Mg8 2.031 1_545 S
C29 O14 1.264 . S
C29 O16 1.273 . S
C30 O11 1.191 . S
C30 O13 1.307 . S
Fe31 O32 1.886 . S
Fe31 O35 1.715 . S
Fe31 O40 2.077 . S
Fe31 O45 1.935 . S
Fe31 O51 2.077 . S
Fe31 O60 1.935 . S
O32 Fe31 1.886 . S
O32 Fe34 1.715 . S
Fe33 O35 1.886 . S
Fe33 O36 1.715 . S
Fe33 O43 1.935 . S
Fe33 O44 2.077 . S
Fe33 O50 1.935 . S
Fe33 O59 2.077 . S
Fe34 O32 1.715 . S
Fe34 O37 1.886 . S
Fe34 O41 1.935 . S
Fe34 O46 2.077 . S
Fe34 O52 1.935 . S
Fe34 O56 2.077 . S
O35 Fe31 1.715 . S
O35 Fe33 1.886 . S
O36 Fe33 1.715 . S
O36 Fe38 1.886 . S
O37 Fe34 1.886 . S
O37 Fe38 1.715 . S
Fe38 O36 1.886 . S
Fe38 O37 1.715 . S
Fe38 O42 2.077 . S
Fe38 O47 1.935 . S
Fe38 O49 2.077 . S
Fe38 O57 1.935 . S
C39 O51 1.381 . S
C39 O52 1.421 . S
O40 Fe31 2.077 . S
O40 C53 1.381 . S
O41 Fe34 1.935 . S
O41 C53 1.421 . S
O42 Fe38 2.077 . S
O42 C58 1.381 . S
O43 Fe33 1.935 . S
O43 C58 1.421 . S
O44 Fe33 2.077 . S
O44 C48 1.381 . S
O45 Fe31 1.935 . S
O45 C48 1.421 . S
O46 Fe34 2.077 . S
O46 C54 1.381 . S
O47 Fe38 1.935 . S
O47 C54 1.421 . S
C48 O44 1.381 . S
C48 O45 1.421 . S
O49 Fe38 2.077 . S
O49 C61 1.381 . S
O50 Fe33 1.935 . S
O50 C61 1.421 . S
O51 Fe31 2.077 . S
O51 C39 1.381 . S
O52 Fe34 1.935 . S
O52 C39 1.421 . S
C53 O40 1.381 . S
C53 O41 1.421 . S
C54 O46 1.381 . S
C54 O47 1.421 . S
C55 O56 1.381 . S
C55 O57 1.421 . S
O56 Fe34 2.077 . S
O56 C55 1.381 . S
O57 Fe38 1.935 . S
O57 C55 1.421 . S
C58 O42 1.381 . S
C58 O43 1.421 . S
O59 Fe33 2.077 . S
O59 C62 1.381 . S
O60 Fe31 1.935 . S
O60 C62 1.421 . S
C61 O49 1.381 . S
C61 O50 1.421 . S
C62 O59 1.381 . S
C62 O60 1.421 . S
C63 C64 1.387 . S
C63 H67 0.950 . S
C63 C72 1.390 . S
C64 C63 1.387 . S
C64 C66 1.387 . S
H65 C72 0.950 . S
C66 C64 1.387 . S
C66 C68 1.390 . S
C66 H70 0.950 . S
H67 C63 0.950 . S
C68 C66 1.390 . S
C68 C69 1.387 . S
C68 H71 0.950 . S
C69 C68 1.387 . S
C69 C72 1.387 . S
H70 C66 0.950 . S
H71 C68 0.950 . S
C72 C63 1.390 . S
C72 H65 0.950 . S
C72 C69 1.387 . S
C73 C74 1.387 . S
C73 H77 0.950 . S
C73 C82 1.390 . S
C74 C73 1.387 . S
C74 C76 1.387 . S
H75 C82 0.950 . S
C76 C74 1.387 . S
C76 C78 1.390 . S
C76 H80 0.950 . S
H77 C73 0.950 . S
C78 C76 1.390 . S
C78 C79 1.387 . S
C78 H81 0.950 . S
C79 C78 1.387 . S
C79 C82 1.387 . S
H80 C76 0.950 . S
H81 C78 0.950 . S
C82 C73 1.390 . S
C82 H75 0.950 . S
C82 C79 1.387 . S
C83 C84 1.387 . S
C83 H87 0.950 . S
C83 C92 1.390 . S
C84 C83 1.387 . S
C84 C86 1.387 . S
H85 C92 0.950 . S
C86 C84 1.387 . S
C86 C88 1.390 . S
C86 H90 0.950 . S
H87 C83 0.950 . S
C88 C86 1.390 . S
C88 C89 1.387 . S
C88 H91 0.950 . S
C89 C88 1.387 . S
C89 C92 1.387 . S
H90 C86 0.950 . S
H91 C88 0.950 . S
C92 C83 1.390 . S
C92 H85 0.950 . S
C92 C89 1.387 . S
C93 C94 1.387 . S
C93 H97 0.950 . S
C93 C102 1.390 . S
C94 C93 1.387 . S
C94 C96 1.387 . S
H95 C102 0.950 . S
C96 C94 1.387 . S
C96 C98 1.390 . S
C96 H100 0.950 . S
H97 C93 0.950 . S
C98 C96 1.390 . S
C98 C99 1.387 . S
C98 H101 0.950 . S
C99 C98 1.387 . S
C99 C102 1.387 . S
H100 C96 0.950 . S
H101 C98 0.950 . S
C102 C93 1.390 . S
C102 H95 0.950 . S
C102 C99 1.387 . S
C103 C104 1.387 . S
C103 H107 0.950 . S
C103 C112 1.390 . S
C104 C103 1.387 . S
C104 C106 1.387 . S
H105 C112 0.950 . S
C106 C104 1.387 . S
C106 C108 1.390 . S
C106 H110 0.950 . S
H107 C103 0.950 . S
C108 C106 1.390 . S
C108 C109 1.387 . S
C108 H111 0.950 . S
C109 C108 1.387 . S
C109 C112 1.387 . S
H110 C106 0.950 . S
H111 C108 0.950 . S
C112 C103 1.390 . S
C112 H105 0.950 . S
C112 C109 1.387 . S
C113 C114 1.387 . S
C113 H117 0.950 . S
C113 C122 1.390 . S
C114 C113 1.387 . S
C114 C116 1.387 . S
H115 C122 0.950 . S
C116 C114 1.387 . S
C116 C118 1.390 . S
C116 H120 0.950 . S
H117 C113 0.950 . S
C118 C116 1.390 . S
C118 C119 1.387 . S
C118 H121 0.950 . S
C119 C118 1.387 . S
C119 C122 1.387 . S
H120 C116 0.950 . S
H121 C118 0.950 . S
C122 C113 1.390 . S
C122 H115 0.950 . S
C122 C119 1.387 . S
C123 C124 1.387 . S
C123 H127 0.950 . S
C123 C132 1.390 . S
C124 C123 1.387 . S
C124 C126 1.387 . S
H125 C132 0.950 . S
C126 C124 1.387 . S
C126 C128 1.390 . S
C126 H130 0.950 . S
H127 C123 0.950 . S
C128 C126 1.390 . S
C128 C129 1.387 . S
C128 H131 0.950 . S
C129 C128 1.387 . S
C129 C132 1.387 . S
H130 C126 0.950 . S
H131 C128 0.950 . S
C132 C123 1.390 . S
C132 H125 0.950 . S
C132 C129 1.387 . S
C133 C134 1.387 . S
C133 H137 0.950 . S
C133 C142 1.390 . S
C134 C133 1.387 . S
C134 C136 1.387 . S
H135 C142 0.950 . S
C136 C134 1.387 . S
C136 C138 1.390 . S
C136 H140 0.950 . S
H137 C133 0.950 . S
C138 C136 1.390 . S
C138 C139 1.387 . S
C138 H141 0.950 . S
C139 C138 1.387 . S
C139 C142 1.387 . S
H140 C136 0.950 . S
H141 C138 0.950 . S
C142 C133 1.390 . S
C142 H135 0.950 . S
C142 C139 1.387 . S
C64 C0 1.408 . S
C69 C54 1.441 . S
C74 C29 1.548 . S
C79 C58 1.535 . S
C84 C30 1.388 . S
C89 C48 1.390 . S
C94 C1 1.484 . S
C99 C53 1.477 . S
C104 C2 1.548 . S
C109 C39 1.533 . S
C119 C55 1.440 . S
C114 C19 1.411 . S
C124 C20 1.486 . S
C129 C61 1.475 . S
C139 C62 1.392 . S
C134 C10 1.388 . S
