# Generated by pormake.
# Topology bcu-b, (8,8)-cn, num edge types: 1
# Building blocks:
#     Node 0, Type 0, BuildingBlock: TAGTUT_clean_sbu_3, # of connection points: 8
#     Node 1, Type 1, BuildingBlock: TAGTUT_clean_sbu_3, # of connection points: 8
#     Edge 2, Type (0, 1), BuildingBlock: AJUNOK_clean_linker_0, # of connection points: 2
#     Edge 3, Type (0, 1), BuildingBlock: AJUNOK_clean_linker_0, # of connection points: 2
#     Edge 4, Type (0, 1), BuildingBlock: AJUNOK_clean_linker_0, # of connection points: 2
#     Edge 5, Type (0, 1), BuildingBlock: AJUNOK_clean_linker_0, # of connection points: 2
#     Edge 6, Type (0, 1), BuildingBlock: AJUNOK_clean_linker_0, # of connection points: 2
#     Edge 7, Type (0, 1), BuildingBlock: AJUNOK_clean_linker_0, # of connection points: 2
#     Edge 8, Type (0, 1), BuildingBlock: AJUNOK_clean_linker_0, # of connection points: 2
#     Edge 9, Type (0, 1), BuildingBlock: AJUNOK_clean_linker_0, # of connection points: 2
# Relax obj value: 0.008
# Max RMSD: 0.054
# Mean RMSD: 0.054
data_MOF--net-bcu-b--node1-TAGTUT_clean_sbu_3--node2-TAGTUT_clean_sbu_3--edge1-AJUNOK_clean_linker_0
_symmetry_space_group_name_H-M    P1
_symmetry_Int_Tables_number       1
_symmetry_cell_setting            triclinic
loop_
_symmetry_equiv_pos_as_xyz
'x, y, z'
_cell_length_a     15.448705
_cell_length_b     15.435651
_cell_length_c     16.718781
_cell_angle_alpha  89.602906
_cell_angle_beta   90.541413
_cell_angle_gamma 111.93492
loop_
_atom_site_label
_atom_site_type_symbol
_atom_site_fract_x
_atom_site_fract_y
_atom_site_fract_z
_atom_type_partial_charge
C0 C 0.14972 0.13049 0.08409 0.0
C1 C 0.23026 0.84526 0.08094 0.0
C2 C 0.12805 0.79353 0.84195 0.0
Mg3 Mg -0.00869 0.18582 -0.00712 0.0
Mg4 Mg 0.78587 0.02603 0.94532 0.0
O5 O 0.91456 0.06127 0.94684 0.0
Mg6 Mg 0.98546 0.98204 -0.0235 0.0
O7 O 0.06819 0.91409 0.00615 0.0
Mg8 Mg 0.18778 -0.00784 0.95365 0.0
Mg9 Mg 0.03459 0.78477 0.00046 0.0
C10 C 0.80498 0.84838 0.86804 0.0
O11 O 0.88179 0.8874 0.07041 0.0
O12 O 0.91868 0.25148 0.90064 0.0
O13 O 0.90199 0.74967 0.05892 0.0
O14 O 0.87754 0.17436 0.08649 0.0
O15 O 0.79095 0.1303 0.86034 0.0
O16 O 0.74095 0.06171 0.05703 0.0
O17 O 0.09738 0.05829 0.88169 0.0
O18 O 0.09748 0.20091 0.89717 0.0
C19 C 0.1269 0.14455 0.86189 0.0
C20 C 0.84867 0.21462 0.85324 0.0
O21 O 0.89303 0.87532 0.88421 0.0
O22 O 0.25953 0.92179 0.04074 0.0
O23 O 0.75229 0.88824 0.8963 0.0
O24 O 0.17396 0.87847 0.8611 0.0
O25 O 0.14753 0.78393 0.07449 0.0
O26 O 0.05855 0.74201 0.88306 0.0
O27 O 0.06216 0.0996 0.06823 0.0
O28 O 0.20393 0.09913 0.04794 0.0
C29 C 0.79099 0.12911 0.10131 0.0
C30 C 0.85982 0.80001 0.0879 0.0
C31 C 0.65064 0.62853 0.58583 0.0
C32 C 0.73735 0.34835 0.57085 0.0
C33 C 0.62663 0.30166 0.33333 0.0
Mg34 Mg 0.49113 0.68424 0.4969 0.0
Mg35 Mg 0.28416 0.52479 0.45144 0.0
O36 O 0.41353 0.56118 0.44921 0.0
Mg37 Mg 0.48673 0.48313 0.47619 0.0
O38 O 0.57167 0.41682 0.50315 0.0
Mg39 Mg 0.69038 0.49719 0.44959 0.0
Mg40 Mg 0.53818 0.28822 0.49534 0.0
C41 C 0.30607 0.3528 0.36558 0.0
O42 O 0.38596 0.38754 0.57065 0.0
O43 O 0.41566 0.75126 0.40983 0.0
O44 O 0.40715 0.25081 0.55771 0.0
O45 O 0.38045 0.668 0.59247 0.0
O46 O 0.28569 0.63211 0.3702 0.0
O47 O 0.24267 0.5554 0.56755 0.0
O48 O 0.59626 0.56155 0.3808 0.0
O49 O 0.59372 0.70302 0.39791 0.0
C50 C 0.62219 0.64739 0.36063 0.0
C51 C 0.34366 0.71645 0.36433 0.0
O52 O 0.39357 0.37873 0.38355 0.0
O53 O 0.76543 0.42639 0.53284 0.0
O54 O 0.25204 0.3899 0.39604 0.0
O55 O 0.67594 0.38568 0.35337 0.0
O56 O 0.65467 0.28681 0.56407 0.0
O57 O 0.55766 0.25075 0.37534 0.0
O58 O 0.56366 0.59739 0.56834 0.0
O59 O 0.7072 0.60185 0.54769 0.0
C60 C 0.29541 0.62224 0.61119 0.0
C61 C 0.36482 0.30029 0.58794 0.0
C62 C 0.13225 0.19546 0.21705 0.0
C63 C 0.18945 0.19188 0.15338 0.0
C64 C 0.171 0.24383 0.28742 0.0
C65 C 0.26831 0.28996 0.29682 0.0
H66 H 0.05725 0.15929 0.21323 0.0
H67 H 0.12417 0.24577 0.3346 0.0
S68 S 0.4481 0.30713 0.14522 0.0
N69 N 0.34824 0.24273 0.10255 0.0
N70 N 0.42056 0.33212 0.23487 0.0
C71 C 0.3262 0.2872 0.23337 0.0
C72 C 0.28686 0.23896 0.16157 0.0
C73 C 0.8009 0.24577 0.20729 0.0
C74 C 0.74584 0.16647 0.16344 0.0
C75 C 0.76076 0.29059 0.25912 0.0
C76 C 0.66369 0.25741 0.27092 0.0
H77 H 0.87606 0.27493 0.20088 0.0
H78 H 0.807 0.35076 0.29172 0.0
S79 S 0.48706 0.05409 0.17019 0.0
N80 N 0.58754 0.05867 0.1336 0.0
N81 N 0.51296 0.14055 0.2349 0.0
C82 C 0.6074 0.1777 0.22861 0.0
C83 C 0.64817 0.13287 0.17409 0.0
C84 C 0.80052 0.68305 0.19775 0.0
C85 C 0.79198 0.75691 0.15213 0.0
C86 C 0.74423 0.64632 0.26433 0.0
C87 C 0.67779 0.68251 0.28794 0.0
H88 H 0.8533 0.65512 0.18369 0.0
H89 H 0.75475 0.59132 0.29881 0.0
S90 S 0.61655 0.8641 0.18134 0.0
N91 N 0.70456 0.85709 0.13017 0.0
N92 N 0.5982 0.78812 0.25528 0.0
C93 C 0.66513 0.75298 0.24063 0.0
C94 C 0.72243 0.79027 0.1728 0.0
C95 C 0.285 0.8756 0.22065 0.0
C96 C 0.28661 0.83239 0.14706 0.0
C97 C 0.31095 0.84297 0.29195 0.0
C98 C 0.33797 0.76589 0.29077 0.0
H99 H 0.25707 0.9303 0.22378 0.0
H100 H 0.30341 0.87355 0.34831 0.0
S101 S 0.36463 0.63681 0.11246 0.0
N102 N 0.32548 0.71537 0.07642 0.0
N103 N 0.37477 0.65386 0.21011 0.0
C104 C 0.3465 0.727 0.2169 0.0
C105 C 0.32036 0.76022 0.14483 0.0
C106 C 0.11585 0.6676 0.74216 0.0
C107 C 0.16993 0.75008 0.78244 0.0
C108 C 0.1571 0.62366 0.68956 0.0
C109 C 0.25427 0.65986 0.67621 0.0
H110 H 0.04106 0.63752 0.75051 0.0
H111 H 0.11209 0.56212 0.65787 0.0
S112 S 0.42825 0.86921 0.77435 0.0
N113 N 0.32677 0.86242 0.80981 0.0
N114 N 0.40381 0.78043 0.71254 0.0
C115 C 0.30931 0.74049 0.71879 0.0
C116 C 0.26734 0.78554 0.77121 0.0
C117 C 0.22469 0.27765 0.77653 0.0
C118 C 0.18883 0.18074 0.79215 0.0
C119 C 0.27767 0.31504 0.70851 0.0
C120 C 0.29791 0.25734 0.65319 0.0
H121 H 0.21193 0.32579 0.81725 0.0
H122 H 0.305 0.3902 0.70063 0.0
S123 S 0.21694 -0.00179 0.66346 0.0
N124 N 0.17432 0.02739 0.74459 0.0
N125 N 0.27492 0.0974 0.61687 0.0
C126 C 0.2615 0.15999 0.66723 0.0
C127 C 0.20708 0.12184 0.73668 0.0
C128 C 0.82546 0.20939 0.70746 0.0
C129 C 0.84274 0.26219 0.77821 0.0
C130 C 0.80211 0.24325 0.63643 0.0
C131 C 0.79589 0.33138 0.63352 0.0
H132 H 0.82495 0.13896 0.70802 0.0
H133 H 0.7818 0.19736 0.58505 0.0
S134 S 0.84613 0.50189 0.79935 0.0
N135 N 0.86227 0.4107 0.83929 0.0
N136 N 0.81754 0.47509 0.70462 0.0
C137 C 0.8215 0.3887 0.70167 0.0
C138 C 0.84528 0.35385 0.77461 0.0
C139 C 0.8222 0.77987 0.73815 0.0
C140 C 0.76512 0.78154 0.80248 0.0
C141 C 0.78371 0.73249 0.66767 0.0
C142 C 0.68668 0.68437 0.65876 0.0
H143 H 0.89685 0.81878 0.74072 0.0
H144 H 0.83071 0.7343 0.61942 0.0
S145 S 0.50832 0.65703 0.81417 0.0
N146 N 0.60767 0.72467 0.85595 0.0
N147 N 0.53522 0.63433 0.72339 0.0
C148 C 0.62901 0.68253 0.72382 0.0
C149 C 0.66832 0.73107 0.79575 0.0
loop_
_geom_bond_atom_site_label_1
_geom_bond_atom_site_label_2
_geom_bond_distance
_geom_bond_site_symmetry_2
_ccdc_geom_bond_type
C0 O27 1.312 . S
C0 O28 1.208 . S
C1 O22 1.331 . S
C1 O25 1.244 . S
C2 O24 1.264 . S
C2 O26 1.273 . S
Mg3 O5 1.937 1_455 S
Mg3 O12 2.085 1_455 S
Mg3 O14 2.019 1_456 S
Mg3 O18 2.034 . S
Mg3 O27 2.288 1_556 S
Mg4 O5 1.963 . S
Mg4 O15 1.942 . S
Mg4 O16 1.955 1_556 S
Mg4 O23 1.986 1_545 S
O5 Mg3 1.937 1_655 S
O5 Mg4 1.963 . S
O5 Mg6 1.915 1_546 S
Mg6 O5 1.915 1_564 S
Mg6 O7 1.915 1_655 S
Mg6 O11 2.013 . S
Mg6 O17 2.114 1_664 S
Mg6 O21 2.013 1_554 S
Mg6 O27 2.114 1_665 S
O7 Mg6 1.915 1_455 S
O7 Mg8 1.938 1_565 S
O7 Mg9 1.963 . S
Mg8 O7 1.938 1_545 S
Mg8 O17 2.286 1_554 S
Mg8 O22 2.087 1_545 S
Mg8 O24 2.017 1_544 S
Mg8 O28 2.036 . S
Mg9 O7 1.963 . S
Mg9 O13 1.986 1_455 S
Mg9 O25 1.942 . S
Mg9 O26 1.955 1_554 S
C10 O21 1.191 . S
C10 O23 1.307 . S
O11 Mg6 2.013 . S
O11 C30 1.191 . S
O12 Mg3 2.085 1_655 S
O12 C20 1.331 . S
O13 Mg9 1.986 1_655 S
O13 C30 1.307 . S
O14 Mg3 2.019 1_654 S
O14 C29 1.264 . S
O15 Mg4 1.942 . S
O15 C20 1.244 . S
O16 Mg4 1.955 1_554 S
O16 C29 1.273 . S
O17 Mg6 2.114 1_446 S
O17 Mg8 2.286 1_556 S
O17 C19 1.312 . S
O18 Mg3 2.034 . S
O18 C19 1.208 . S
C19 O17 1.312 . S
C19 O18 1.208 . S
C20 O12 1.331 . S
C20 O15 1.244 . S
O21 Mg6 2.013 1_556 S
O21 C10 1.191 . S
O22 C1 1.331 . S
O22 Mg8 2.087 1_565 S
O23 Mg4 1.986 1_565 S
O23 C10 1.307 . S
O24 C2 1.264 . S
O24 Mg8 2.017 1_566 S
O25 C1 1.244 . S
O25 Mg9 1.942 . S
O26 C2 1.273 . S
O26 Mg9 1.955 1_556 S
O27 C0 1.312 . S
O27 Mg3 2.288 1_554 S
O27 Mg6 2.114 1_445 S
O28 C0 1.208 . S
O28 Mg8 2.036 . S
C29 O14 1.264 . S
C29 O16 1.273 . S
C30 O11 1.191 . S
C30 O13 1.307 . S
C31 O58 1.312 . S
C31 O59 1.208 . S
C32 O53 1.331 . S
C32 O56 1.244 . S
C33 O55 1.264 . S
C33 O57 1.273 . S
Mg34 O36 1.936 . S
Mg34 O43 2.081 . S
Mg34 O45 2.023 . S
Mg34 O49 2.031 . S
Mg34 O58 2.291 . S
Mg35 O36 1.963 . S
Mg35 O46 1.942 . S
Mg35 O47 1.955 . S
Mg35 O54 1.986 . S
O36 Mg34 1.936 . S
O36 Mg35 1.963 . S
O36 Mg37 1.915 . S
Mg37 O36 1.915 . S
Mg37 O38 1.915 . S
Mg37 O42 2.013 . S
Mg37 O48 2.114 . S
Mg37 O52 2.013 . S
Mg37 O58 2.114 . S
O38 Mg37 1.915 . S
O38 Mg39 1.936 . S
O38 Mg40 1.963 . S
Mg39 O38 1.936 . S
Mg39 O48 2.291 . S
Mg39 O53 2.081 . S
Mg39 O55 2.023 . S
Mg39 O59 2.031 . S
Mg40 O38 1.963 . S
Mg40 O44 1.986 . S
Mg40 O56 1.942 . S
Mg40 O57 1.955 . S
C41 O52 1.191 . S
C41 O54 1.307 . S
O42 Mg37 2.013 . S
O42 C61 1.191 . S
O43 Mg34 2.081 . S
O43 C51 1.331 . S
O44 Mg40 1.986 . S
O44 C61 1.307 . S
O45 Mg34 2.023 . S
O45 C60 1.264 . S
O46 Mg35 1.942 . S
O46 C51 1.244 . S
O47 Mg35 1.955 . S
O47 C60 1.273 . S
O48 Mg37 2.114 . S
O48 Mg39 2.291 . S
O48 C50 1.312 . S
O49 Mg34 2.031 . S
O49 C50 1.208 . S
C50 O48 1.312 . S
C50 O49 1.208 . S
C51 O43 1.331 . S
C51 O46 1.244 . S
O52 Mg37 2.013 . S
O52 C41 1.191 . S
O53 C32 1.331 . S
O53 Mg39 2.081 . S
O54 Mg35 1.986 . S
O54 C41 1.307 . S
O55 C33 1.264 . S
O55 Mg39 2.023 . S
O56 C32 1.244 . S
O56 Mg40 1.942 . S
O57 C33 1.273 . S
O57 Mg40 1.955 . S
O58 C31 1.312 . S
O58 Mg34 2.291 . S
O58 Mg37 2.114 . S
O59 C31 1.208 . S
O59 Mg39 2.031 . S
C60 O45 1.264 . S
C60 O47 1.273 . S
C61 O42 1.191 . S
C61 O44 1.307 . S
C62 C63 1.369 . S
C62 C64 1.419 . S
C62 H66 0.930 . S
C63 C62 1.369 . S
C63 C72 1.429 . S
C64 C62 1.419 . S
C64 C65 1.363 . S
C64 H67 0.929 . S
C65 C64 1.363 . S
C65 C71 1.428 . S
H66 C62 0.930 . S
H67 C64 0.929 . S
S68 N69 1.613 . S
S68 N70 1.610 . S
N69 S68 1.613 . S
N69 C72 1.350 . S
N70 S68 1.610 . S
N70 C71 1.351 . S
C71 C65 1.428 . S
C71 N70 1.351 . S
C71 C72 1.434 . S
C72 C63 1.429 . S
C72 N69 1.350 . S
C72 C71 1.434 . S
C73 C74 1.369 . S
C73 C75 1.419 . S
C73 H77 0.930 . S
C74 C73 1.369 . S
C74 C83 1.429 . S
C75 C73 1.419 . S
C75 C76 1.363 . S
C75 H78 0.929 . S
C76 C75 1.363 . S
C76 C82 1.428 . S
H77 C73 0.930 . S
H78 C75 0.929 . S
S79 N80 1.613 . S
S79 N81 1.610 . S
N80 S79 1.613 . S
N80 C83 1.350 . S
N81 S79 1.610 . S
N81 C82 1.351 . S
C82 C76 1.428 . S
C82 N81 1.351 . S
C82 C83 1.434 . S
C83 C74 1.429 . S
C83 N80 1.350 . S
C83 C82 1.434 . S
C84 C85 1.369 . S
C84 C86 1.419 . S
C84 H88 0.930 . S
C85 C84 1.369 . S
C85 C94 1.429 . S
C86 C84 1.419 . S
C86 C87 1.363 . S
C86 H89 0.929 . S
C87 C86 1.363 . S
C87 C93 1.428 . S
H88 C84 0.930 . S
H89 C86 0.929 . S
S90 N91 1.613 . S
S90 N92 1.610 . S
N91 S90 1.613 . S
N91 C94 1.350 . S
N92 S90 1.610 . S
N92 C93 1.351 . S
C93 C87 1.428 . S
C93 N92 1.351 . S
C93 C94 1.434 . S
C94 C85 1.429 . S
C94 N91 1.350 . S
C94 C93 1.434 . S
C95 C96 1.369 . S
C95 C97 1.419 . S
C95 H99 0.930 . S
C96 C95 1.369 . S
C96 C105 1.429 . S
C97 C95 1.419 . S
C97 C98 1.363 . S
C97 H100 0.929 . S
C98 C97 1.363 . S
C98 C104 1.428 . S
H99 C95 0.930 . S
H100 C97 0.929 . S
S101 N102 1.613 . S
S101 N103 1.610 . S
N102 S101 1.613 . S
N102 C105 1.350 . S
N103 S101 1.610 . S
N103 C104 1.351 . S
C104 C98 1.428 . S
C104 N103 1.351 . S
C104 C105 1.434 . S
C105 C96 1.429 . S
C105 N102 1.350 . S
C105 C104 1.434 . S
C106 C107 1.369 . S
C106 C108 1.419 . S
C106 H110 0.930 . S
C107 C106 1.369 . S
C107 C116 1.429 . S
C108 C106 1.419 . S
C108 C109 1.363 . S
C108 H111 0.929 . S
C109 C108 1.363 . S
C109 C115 1.428 . S
H110 C106 0.930 . S
H111 C108 0.929 . S
S112 N113 1.613 . S
S112 N114 1.610 . S
N113 S112 1.613 . S
N113 C116 1.350 . S
N114 S112 1.610 . S
N114 C115 1.351 . S
C115 C109 1.428 . S
C115 N114 1.351 . S
C115 C116 1.434 . S
C116 C107 1.429 . S
C116 N113 1.350 . S
C116 C115 1.434 . S
C117 C118 1.369 . S
C117 C119 1.419 . S
C117 H121 0.930 . S
C118 C117 1.369 . S
C118 C127 1.429 . S
C119 C117 1.419 . S
C119 C120 1.363 . S
C119 H122 0.929 . S
C120 C119 1.363 . S
C120 C126 1.428 . S
H121 C117 0.930 . S
H122 C119 0.929 . S
S123 N124 1.613 . S
S123 N125 1.610 . S
N124 S123 1.613 . S
N124 C127 1.350 . S
N125 S123 1.610 . S
N125 C126 1.351 . S
C126 C120 1.428 . S
C126 N125 1.351 . S
C126 C127 1.434 . S
C127 C118 1.429 . S
C127 N124 1.350 . S
C127 C126 1.434 . S
C128 C129 1.369 . S
C128 C130 1.419 . S
C128 H132 0.930 . S
C129 C128 1.369 . S
C129 C138 1.429 . S
C130 C128 1.419 . S
C130 C131 1.363 . S
C130 H133 0.929 . S
C131 C130 1.363 . S
C131 C137 1.428 . S
H132 C128 0.930 . S
H133 C130 0.929 . S
S134 N135 1.613 . S
S134 N136 1.610 . S
N135 S134 1.613 . S
N135 C138 1.350 . S
N136 S134 1.610 . S
N136 C137 1.351 . S
C137 C131 1.428 . S
C137 N136 1.351 . S
C137 C138 1.434 . S
C138 C129 1.429 . S
C138 N135 1.350 . S
C138 C137 1.434 . S
C139 C140 1.369 . S
C139 C141 1.419 . S
C139 H143 0.930 . S
C140 C139 1.369 . S
C140 C149 1.429 . S
C141 C139 1.419 . S
C141 C142 1.363 . S
C141 H144 0.929 . S
C142 C141 1.363 . S
C142 C148 1.428 . S
H143 C139 0.930 . S
H144 C141 0.929 . S
S145 N146 1.613 . S
S145 N147 1.610 . S
N146 S145 1.613 . S
N146 C149 1.350 . S
N147 S145 1.610 . S
N147 C148 1.351 . S
C148 C142 1.428 . S
C148 N147 1.351 . S
C148 C149 1.434 . S
C149 C140 1.429 . S
C149 N146 1.350 . S
C149 C148 1.434 . S
C63 C0 1.334 . S
C65 C41 1.360 . S
C74 C29 1.616 . S
C76 C33 1.609 . S
C85 C30 1.362 . S
C87 C50 1.335 . S
C96 C1 1.480 . S
C98 C51 1.483 . S
C107 C2 1.614 . S
C109 C60 1.612 . S
C120 C61 1.357 . S
C118 C19 1.340 . S
C129 C20 1.480 . S
C131 C32 1.487 . S
C142 C31 1.343 . S
C140 C10 1.357 . S
