# Generated by pormake.
# Topology pth, (4,4)-cn, num edge types: 1
# Building blocks:
#     Node 0, Type 0, BuildingBlock: QUQFOY_clean_sbu_1, # of connection points: 4
#     Node 1, Type 0, BuildingBlock: QUQFOY_clean_sbu_1, # of connection points: 4
#     Node 2, Type 0, BuildingBlock: QUQFOY_clean_sbu_1, # of connection points: 4
#     Node 3, Type 1, BuildingBlock: MUDLON_clean_sbu_0, # of connection points: 4
#     Node 4, Type 1, BuildingBlock: MUDLON_clean_sbu_0, # of connection points: 4
#     Node 5, Type 1, BuildingBlock: MUDLON_clean_sbu_0, # of connection points: 4
#     Edge 6, Type (0, 1), BuildingBlock: EYOCIG_clean_linker_4, # of connection points: 2
#     Edge 7, Type (0, 1), BuildingBlock: EYOCIG_clean_linker_4, # of connection points: 2
#     Edge 8, Type (0, 1), BuildingBlock: EYOCIG_clean_linker_4, # of connection points: 2
#     Edge 9, Type (0, 1), BuildingBlock: EYOCIG_clean_linker_4, # of connection points: 2
#     Edge 10, Type (0, 1), BuildingBlock: EYOCIG_clean_linker_4, # of connection points: 2
#     Edge 11, Type (0, 1), BuildingBlock: EYOCIG_clean_linker_4, # of connection points: 2
#     Edge 12, Type (0, 1), BuildingBlock: EYOCIG_clean_linker_4, # of connection points: 2
#     Edge 13, Type (0, 1), BuildingBlock: EYOCIG_clean_linker_4, # of connection points: 2
#     Edge 14, Type (0, 1), BuildingBlock: EYOCIG_clean_linker_4, # of connection points: 2
#     Edge 15, Type (0, 1), BuildingBlock: EYOCIG_clean_linker_4, # of connection points: 2
#     Edge 16, Type (0, 1), BuildingBlock: EYOCIG_clean_linker_4, # of connection points: 2
#     Edge 17, Type (0, 1), BuildingBlock: EYOCIG_clean_linker_4, # of connection points: 2
# Relax obj value: 0.040
# Max RMSD: 0.130
# Mean RMSD: 0.076
data_MOF--net-pth--node1-QUQFOY_clean_sbu_1--node2-MUDLON_clean_sbu_0--edge1-EYOCIG_clean_linker_4
_symmetry_space_group_name_H-M    P1
_symmetry_Int_Tables_number       1
_symmetry_cell_setting            triclinic
loop_
_symmetry_equiv_pos_as_xyz
'x, y, z'
_cell_length_a     18.232624
_cell_length_b     18.86133
_cell_length_c     49.547467
_cell_angle_alpha  90.049648
_cell_angle_beta   89.94623
_cell_angle_gamma 119.93997
loop_
_atom_site_label
_atom_site_type_symbol
_atom_site_fract_x
_atom_site_fract_y
_atom_site_fract_z
_atom_type_partial_charge
O0 O 0.05212 0.13588 0.04129 0.0
Cd1 Cd 0.95424 0.06677 0.06734 0.0
Cd2 Cd 0.02424 0.97253 0.06661 0.0
O3 O 0.12551 0.07375 0.04917 0.0
O4 O 0.91973 0.1435 0.08251 0.0
O5 O 0.97857 0.08634 0.10694 0.0
C6 C 0.94979 0.13633 0.10523 0.0
C7 C 0.03713 0.90451 0.10372 0.0
C8 C 0.1186 0.13113 0.0383 0.0
C9 C 0.85505 0.90813 0.03987 0.0
O10 O 0.92158 0.90294 0.04202 0.0
O11 O 0.84978 0.96603 0.05107 0.0
O12 O 0.06245 0.8966 0.0802 0.0
O13 O 0.00796 0.95391 0.10656 0.0
O14 O 0.92666 0.07575 0.43658 0.0
Cd15 Cd 0.02783 0.10564 0.41119 0.0
Cd16 Cd 0.9637 0.94476 0.41208 0.0
O17 O 0.85891 0.94257 0.42897 0.0
O18 O 0.06121 0.2168 0.39724 0.0
O19 O 0.00854 0.10614 0.37129 0.0
C20 C 0.03525 0.18333 0.37392 0.0
C21 C 0.95717 0.86712 0.37499 0.0
C22 C 0.86214 1.00536 0.43961 0.0
C23 C 0.12989 0.04697 0.43952 0.0
O24 O 0.06503 0.97649 0.4373 0.0
O25 O 0.13309 0.10876 0.42814 0.0
O26 O 0.9311 0.83366 0.39832 0.0
O27 O 0.98338 0.94418 0.37228 0.0
O28 O 0.87024 0.97117 0.70753 0.0
Cd29 Cd 0.94011 0.94285 0.73327 0.0
Cd30 Cd 0.03834 0.10386 0.73413 0.0
O31 O 0.93482 0.10335 0.71681 0.0
O32 O 0.85995 0.83207 0.74775 0.0
O33 O 0.91935 0.94465 0.77291 0.0
C34 C 0.86745 0.8671 0.77074 0.0
C35 C 0.1083 0.18105 0.77183 0.0
C36 C 0.87588 0.04067 0.70522 0.0
C37 C 0.10525 1.00734 0.70607 0.0
O38 O 0.11104 0.07681 0.70891 0.0
O39 O 0.04483 0.9438 0.71679 0.0
O40 O 0.11694 0.21523 0.74864 0.0
O41 O 0.05689 0.10343 0.77405 0.0
Mg42 Mg -0.00116 0.52621 0.23882 0.0
C43 C 0.98898 0.412 0.28033 0.0
O44 O 0.90926 0.38976 0.27607 0.0
C45 C -0.00604 0.63856 0.19958 0.0
O46 O 0.91418 0.59159 0.20629 0.0
C47 C 0.94211 0.38184 0.2007 0.0
O48 O 0.86773 0.35934 0.21127 0.0
O49 O 0.00599 0.44842 0.20793 0.0
O50 O 0.04682 0.47247 0.26744 0.0
O51 O 0.00812 0.61311 0.26917 0.0
C52 C 0.94386 0.60826 0.28073 0.0
O53 O 0.86806 0.54808 0.27484 0.0
O54 O 0.05025 0.62647 0.21027 0.0
Mg55 Mg 0.49701 0.03281 0.57238 0.0
C56 C 0.38705 0.02704 0.52976 0.0
O57 O 0.36311 0.95005 0.53461 0.0
C58 C 0.60116 0.02156 0.61359 0.0
O59 O 0.54646 0.94532 0.60737 0.0
C60 C 0.35229 0.97223 0.61381 0.0
O61 O 0.32958 0.89937 0.60421 0.0
O62 O 0.41616 0.03463 0.60419 0.0
O63 O 0.44697 0.08312 0.54346 0.0
O64 O 0.58222 0.03138 0.5421 0.0
C65 C 0.57063 0.96895 0.52904 0.0
O66 O 0.50432 0.89735 0.53404 0.0
O67 O 0.59889 0.07954 0.60122 0.0
Mg68 Mg 0.48748 0.52432 0.90931 0.0
C69 C 0.38254 0.40881 0.86749 0.0
O70 O 0.44252 0.39054 0.87117 0.0
C71 C 0.60328 0.63231 0.9504 0.0
O72 O 0.63606 0.58682 0.94341 0.0
C73 C 0.40324 0.38592 0.94938 0.0
O74 O 0.45755 0.36654 0.9394 0.0
O75 O 0.40175 0.44822 0.94066 0.0
O76 O 0.38353 0.46671 0.88098 0.0
O77 O 0.56227 0.61595 0.8794 0.0
C78 C 0.62203 0.61345 0.86725 0.0
O79 O 0.63847 0.55477 0.87266 0.0
O80 O 0.53629 0.6218 0.93885 0.0
C81 C 0.95678 0.23125 0.14543 0.0
C82 C 0.95494 0.18664 0.12768 0.0
C83 C 0.95612 0.28528 0.16501 0.0
C84 C 0.95145 0.33046 0.18126 0.0
C85 C 0.74067 0.99078 0.47219 0.0
C86 C 0.79546 0.99619 0.45724 0.0
C87 C 0.68032 0.98415 0.49141 0.0
C88 C 0.63028 0.97726 0.50859 0.0
C89 C 0.77065 0.77817 0.81103 0.0
C90 C 0.81589 0.82077 0.79312 0.0
C91 C 0.71667 0.72422 0.83108 0.0
C92 C 0.67207 0.67484 0.8477 0.0
C93 C 0.03469 0.81074 0.1437 0.0
C94 C 0.03524 0.85416 0.12575 0.0
C95 C 0.02757 0.7542 0.16368 0.0
C96 C 0.01598 0.70252 0.18014 0.0
C97 C 0.24953 0.05876 0.47218 0.0
C98 C 0.19705 0.05712 0.45702 0.0
C99 C 0.30355 0.05488 0.49176 0.0
C100 C 0.34405 0.04612 0.5093 0.0
C101 C 0.20488 0.27022 0.81219 0.0
C102 C 0.15991 0.22789 0.79416 0.0
C103 C 0.26319 0.3204 0.83211 0.0
C104 C 0.31626 0.36239 0.84845 0.0
C105 C 0.7681 0.04942 0.67192 0.0
C106 C 0.81882 0.04889 0.68736 0.0
C107 C 0.71077 0.04543 0.65208 0.0
C108 C 0.6621 0.03785 0.63439 0.0
C109 C 0.73651 0.8007 1.00764 0.0
C110 C 0.78829 0.85135 0.0226 0.0
C111 C 0.68352 0.74273 0.98828 0.0
C112 C 0.64411 0.69345 0.97091 0.0
C113 C 0.96117 0.77556 0.33539 0.0
C114 C 0.96044 0.81965 0.35288 0.0
C115 C 0.95942 0.71996 0.31597 0.0
C116 C 0.95401 0.66976 0.29982 0.0
C117 C 0.21224 0.99556 0.67298 0.0
C118 C 0.16281 0.99973 0.68816 0.0
C119 C 0.26429 0.98927 0.65311 0.0
C120 C 0.30473 0.98192 0.63517 0.0
C121 C 0.23698 0.23801 1.00591 0.0
C122 C 0.18399 0.1884 0.0208 0.0
C123 C 0.29558 0.29244 0.98689 0.0
C124 C 0.34433 0.33572 0.96977 0.0
C125 C 0.02802 0.27334 0.33435 0.0
C126 C 0.03043 0.23037 0.35193 0.0
C127 C 0.02023 0.32414 0.31499 0.0
C128 C 0.00924 0.36612 0.29899 0.0
loop_
_geom_bond_atom_site_label_1
_geom_bond_atom_site_label_2
_geom_bond_distance
_geom_bond_site_symmetry_2
_ccdc_geom_bond_type
O0 Cd1 2.223 1_455 S
O0 C8 1.315 . S
Cd1 O0 2.223 1_655 S
Cd1 O4 2.297 . S
Cd1 O5 2.439 . S
Cd1 O11 2.240 1_545 S
Cd2 O3 2.240 1_565 S
Cd2 O10 2.223 1_455 S
Cd2 O12 2.297 . S
Cd2 O13 2.439 . S
O3 Cd2 2.240 1_545 S
O3 C8 1.279 . S
O4 Cd1 2.297 . S
O4 C6 1.247 . S
O5 Cd1 2.439 . S
O5 C6 1.208 . S
C6 O4 1.247 . S
C6 O5 1.208 . S
C7 O12 1.247 . S
C7 O13 1.208 . S
C8 O0 1.315 . S
C8 O3 1.279 . S
C9 O10 1.315 . S
C9 O11 1.279 . S
O10 Cd2 2.223 1_655 S
O10 C9 1.315 . S
O11 Cd1 2.240 1_565 S
O11 C9 1.279 . S
O12 Cd2 2.297 . S
O12 C7 1.247 . S
O13 Cd2 2.439 . S
O13 C7 1.208 . S
O14 Cd15 2.223 1_655 S
O14 C22 1.315 . S
Cd15 O14 2.223 1_455 S
Cd15 O18 2.297 . S
Cd15 O19 2.439 . S
Cd15 O25 2.240 . S
Cd16 O17 2.240 . S
Cd16 O24 2.223 1_655 S
Cd16 O26 2.297 . S
Cd16 O27 2.439 . S
O17 Cd16 2.240 . S
O17 C22 1.279 1_565 S
O18 Cd15 2.297 . S
O18 C20 1.247 . S
O19 Cd15 2.439 . S
O19 C20 1.208 . S
C20 O18 1.247 . S
C20 O19 1.208 . S
C21 O26 1.247 . S
C21 O27 1.208 . S
C22 O14 1.315 . S
C22 O17 1.279 1_545 S
C23 O24 1.315 . S
C23 O25 1.279 1_565 S
O24 Cd16 2.223 1_455 S
O24 C23 1.315 . S
O25 Cd15 2.240 . S
O25 C23 1.279 1_545 S
O26 Cd16 2.297 . S
O26 C21 1.247 . S
O27 Cd16 2.439 . S
O27 C21 1.208 . S
O28 Cd29 2.223 . S
O28 C36 1.315 . S
Cd29 O28 2.223 . S
Cd29 O32 2.297 . S
Cd29 O33 2.439 . S
Cd29 O39 2.240 1_655 S
Cd30 O31 2.240 1_455 S
Cd30 O38 2.223 . S
Cd30 O40 2.297 . S
Cd30 O41 2.439 . S
O31 Cd30 2.240 1_655 S
O31 C36 1.279 1_545 S
O32 Cd29 2.297 . S
O32 C34 1.247 . S
O33 Cd29 2.439 . S
O33 C34 1.208 . S
C34 O32 1.247 . S
C34 O33 1.208 . S
C35 O40 1.247 . S
C35 O41 1.208 . S
C36 O28 1.315 . S
C36 O31 1.279 1_565 S
C37 O38 1.315 . S
C37 O39 1.279 1_545 S
O38 Cd30 2.223 . S
O38 C37 1.315 . S
O39 Cd29 2.240 1_455 S
O39 C37 1.279 1_565 S
O40 Cd30 2.297 . S
O40 C35 1.247 . S
O41 Cd30 2.439 . S
O41 C35 1.208 . S
Mg42 O49 2.141 . S
Mg42 O50 2.048 . S
Mg42 O51 2.048 . S
Mg42 O54 2.141 . S
C43 O44 1.313 . S
C43 O50 1.195 1_655 S
O44 C43 1.313 . S
C45 O46 1.245 . S
C45 O54 1.289 1_655 S
O46 C45 1.245 . S
C47 O48 1.245 . S
C47 O49 1.289 1_655 S
O48 C47 1.245 . S
O49 Mg42 2.141 . S
O49 C47 1.289 1_455 S
O50 Mg42 2.048 . S
O50 C43 1.195 1_455 S
O51 Mg42 2.048 . S
O51 C52 1.195 1_455 S
C52 O51 1.195 1_655 S
C52 O53 1.313 . S
O53 C52 1.313 . S
O54 Mg42 2.141 . S
O54 C45 1.289 1_455 S
Mg55 O62 2.141 . S
Mg55 O63 2.048 . S
Mg55 O64 2.048 . S
Mg55 O67 2.141 . S
C56 O57 1.313 . S
C56 O63 1.195 1_565 S
O57 C56 1.313 . S
C58 O59 1.245 . S
C58 O67 1.289 1_565 S
O59 C58 1.245 . S
C60 O61 1.245 . S
C60 O62 1.289 1_565 S
O61 C60 1.245 . S
O62 Mg55 2.141 . S
O62 C60 1.289 1_545 S
O63 Mg55 2.048 . S
O63 C56 1.195 1_545 S
O64 Mg55 2.048 . S
O64 C65 1.195 1_545 S
C65 O64 1.195 1_565 S
C65 O66 1.313 . S
O66 C65 1.313 . S
O67 Mg55 2.141 . S
O67 C58 1.289 1_545 S
Mg68 O75 2.141 . S
Mg68 O76 2.048 . S
Mg68 O77 2.048 . S
Mg68 O80 2.141 . S
C69 O70 1.313 . S
C69 O76 1.195 . S
O70 C69 1.313 . S
C71 O72 1.245 . S
C71 O80 1.289 . S
O72 C71 1.245 . S
C73 O74 1.245 . S
C73 O75 1.289 . S
O74 C73 1.245 . S
O75 Mg68 2.141 . S
O75 C73 1.289 . S
O76 Mg68 2.048 . S
O76 C69 1.195 . S
O77 Mg68 2.048 . S
O77 C78 1.195 . S
C78 O77 1.195 . S
C78 O79 1.313 . S
O79 C78 1.313 . S
O80 Mg68 2.141 . S
O80 C71 1.289 . S
C81 C82 1.170 . S
C81 C83 1.380 . S
C82 C81 1.170 . S
C83 C81 1.380 . S
C83 C84 1.170 . S
C84 C83 1.170 . S
C85 C86 1.168 . S
C85 C87 1.383 1_545 S
C86 C85 1.168 . S
C87 C85 1.383 1_565 S
C87 C88 1.170 . S
C88 C87 1.170 . S
C89 C90 1.170 . S
C89 C91 1.380 . S
C90 C89 1.170 . S
C91 C89 1.380 . S
C91 C92 1.170 . S
C92 C91 1.170 . S
C93 C94 1.170 . S
C93 C95 1.380 . S
C94 C93 1.170 . S
C95 C93 1.380 . S
C95 C96 1.170 . S
C96 C95 1.170 . S
C97 C98 1.174 1_545 S
C97 C99 1.380 . S
C98 C97 1.174 1_565 S
C99 C97 1.380 . S
C99 C100 1.170 . S
C100 C99 1.170 . S
C101 C102 1.170 . S
C101 C103 1.380 . S
C102 C101 1.170 . S
C103 C101 1.380 . S
C103 C104 1.170 . S
C104 C103 1.170 . S
C105 C106 1.170 . S
C105 C107 1.380 . S
C106 C105 1.170 . S
C107 C105 1.380 . S
C107 C108 1.170 . S
C108 C107 1.170 . S
C109 C110 1.170 1_556 S
C109 C111 1.380 . S
C110 C109 1.170 1_554 S
C111 C109 1.380 . S
C111 C112 1.170 . S
C112 C111 1.170 . S
C113 C114 1.170 . S
C113 C115 1.379 . S
C114 C113 1.170 . S
C115 C113 1.379 . S
C115 C116 1.171 1_455 S
C116 C115 1.171 1_655 S
C117 C118 1.170 . S
C117 C119 1.380 . S
C118 C117 1.170 . S
C119 C117 1.380 . S
C119 C120 1.170 . S
C120 C119 1.170 . S
C121 C122 1.170 1_556 S
C121 C123 1.380 . S
C122 C121 1.170 1_554 S
C123 C121 1.380 . S
C123 C124 1.170 . S
C124 C123 1.170 . S
C125 C126 1.170 . S
C125 C127 1.380 . S
C126 C125 1.170 . S
C127 C125 1.380 . S
C127 C128 1.170 . S
C128 C127 1.170 . S
C84 C47 1.433 . S
C82 C6 1.439 . S
C86 C22 1.542 . S
C88 C65 1.550 . S
C90 C34 1.327 . S
C92 C78 1.349 . S
C94 C7 1.438 . S
C96 C45 1.445 1_455 S
C100 C56 1.555 1_545 S
C98 C23 1.543 . S
C102 C35 1.321 . S
C104 C69 1.343 . S
C108 C58 1.478 . S
C106 C36 1.484 . S
C110 C9 1.640 . S
C112 C71 1.668 . S
C116 C52 1.495 . S
C114 C21 1.490 1_455 S
C120 C60 1.495 1_545 S
C118 C37 1.491 . S
C124 C73 1.664 . S
C122 C8 1.659 . S
C126 C20 1.485 1_655 S
C128 C43 1.485 . S
