# Generated by pormake.
# Topology anh, (6,3)-cn, num edge types: 1
# Building blocks:
#     Node 0, Type 0, BuildingBlock: BETDEL_clean_sbu_0, # of connection points: 6
#     Node 1, Type 0, BuildingBlock: BETDEL_clean_sbu_0, # of connection points: 6
#     Node 2, Type 0, BuildingBlock: BETDEL_clean_sbu_0, # of connection points: 6
#     Node 3, Type 1, BuildingBlock: OLANEW_clean_sbu_2, # of connection points: 3
#     Node 4, Type 1, BuildingBlock: OLANEW_clean_sbu_2, # of connection points: 3
#     Node 5, Type 1, BuildingBlock: OLANEW_clean_sbu_2, # of connection points: 3
#     Node 6, Type 1, BuildingBlock: OLANEW_clean_sbu_2, # of connection points: 3
#     Node 7, Type 1, BuildingBlock: OLANEW_clean_sbu_2, # of connection points: 3
#     Node 8, Type 1, BuildingBlock: OLANEW_clean_sbu_2, # of connection points: 3
#     Edge 9, Type (0, 1), None
#     Edge 10, Type (0, 1), None
#     Edge 11, Type (0, 1), None
#     Edge 12, Type (0, 1), None
#     Edge 13, Type (0, 1), None
#     Edge 14, Type (0, 1), None
#     Edge 15, Type (0, 1), None
#     Edge 16, Type (0, 1), None
#     Edge 17, Type (0, 1), None
#     Edge 18, Type (0, 1), None
#     Edge 19, Type (0, 1), None
#     Edge 20, Type (0, 1), None
#     Edge 21, Type (0, 1), None
#     Edge 22, Type (0, 1), None
#     Edge 23, Type (0, 1), None
#     Edge 24, Type (0, 1), None
#     Edge 25, Type (0, 1), None
#     Edge 26, Type (0, 1), None
# Relax obj value: 0.144
# Max RMSD: 0.117
# Mean RMSD: 0.111
data_MOF--net-anh--node1-BETDEL_clean_sbu_0--node2-OLANEW_clean_sbu_2--edge1-none
_symmetry_space_group_name_H-M    P1
_symmetry_Int_Tables_number       1
_symmetry_cell_setting            triclinic
loop_
_symmetry_equiv_pos_as_xyz
'x, y, z'
_cell_length_a     17.417876
_cell_length_b     17.099258
_cell_length_c     21.605751
_cell_angle_alpha  90.766247
_cell_angle_beta   89.431054
_cell_angle_gamma 121.68867
loop_
_atom_site_label
_atom_site_type_symbol
_atom_site_fract_x
_atom_site_fract_y
_atom_site_fract_z
_atom_type_partial_charge
Dy0 Dy 0.07824 0.49398 0.15009 0.0
C1 C 0.76687 0.51687 0.17854 0.0
C2 C 0.23823 0.51516 0.11616 0.0
Dy3 Dy 0.92735 0.53392 0.15034 0.0
O4 O 0.22298 0.54316 0.16819 0.0
O5 O 0.16445 0.46957 0.08412 0.0
O6 O 0.05056 0.44481 0.24684 0.0
O7 O 0.02469 0.5474 0.21953 0.0
C8 C 0.016 0.49381 0.26261 0.0
C9 C 0.98617 0.51933 0.0377 0.0
O10 O 0.04201 0.67364 0.17673 0.0
O11 O 0.14665 0.64635 0.1321 0.0
O12 O 0.82654 0.57766 0.14084 0.0
O13 O 0.79668 0.46863 0.202 0.0
O14 O 0.95297 0.57086 0.04805 0.0
O15 O 0.97704 0.47435 0.08514 0.0
O16 O 0.96406 0.34594 0.14763 0.0
O17 O 0.85247 0.38093 0.16187 0.0
C18 C 0.12509 0.70346 0.15707 0.0
C19 C 0.87843 0.3209 0.15668 0.0
Dy20 Dy 0.43142 0.97772 0.50016 0.0
C21 C 0.7865 0.27763 0.51936 0.0
C22 C 0.27588 0.81716 0.47204 0.0
Dy23 Dy 0.62278 0.11948 0.50475 0.0
O24 O 0.28036 0.8815 0.50723 0.0
O25 O 0.35502 0.84222 0.45054 0.0
O26 O 0.40417 0.009 0.59542 0.0
O27 O 0.53075 0.02802 0.57585 0.0
C28 C 0.48482 0.03988 0.61598 0.0
C29 C 0.56646 0.0505 0.39044 0.0
O30 O 0.63506 0.00489 0.54149 0.0
O31 O 0.4979 0.89423 0.5011 0.0
O32 O 0.77338 0.20261 0.49374 0.0
O33 O 0.71057 0.26468 0.53975 0.0
O34 O 0.64592 0.07794 0.41142 0.0
O35 O 0.52286 0.06847 0.42894 0.0
O36 O 0.41668 0.09752 0.47839 0.0
O37 O 0.55959 0.20395 0.51358 0.0
C38 C 0.57705 0.91855 0.52517 0.0
C39 C 0.4786 0.18243 0.49559 0.0
Dy40 Dy 0.50882 0.6018 0.85246 0.0
C41 C 0.4834 0.25799 0.8715 0.0
C42 C 0.4988 0.75242 0.82854 0.0
Dy43 Dy 0.47674 0.41206 0.85407 0.0
O44 O 0.56576 0.75487 0.85625 0.0
O45 O 0.43928 0.66891 0.81257 0.0
O46 O 0.55098 0.62753 0.95252 0.0
O47 O 0.45841 0.49373 0.92267 0.0
C48 C 0.50826 0.54131 0.96656 0.0
C49 C 0.47505 0.46991 0.73951 0.0
O50 O 0.33834 0.38058 0.88001 0.0
O51 O 0.3606 0.51254 0.83504 0.0
O52 O 0.41206 0.25851 0.85577 0.0
O53 O 0.55025 0.34142 0.87944 0.0
O54 O 0.42954 0.38492 0.75609 0.0
O55 O 0.52752 0.51932 0.78237 0.0
O56 O 0.64924 0.63601 0.83317 0.0
O57 O 0.62214 0.50334 0.88015 0.0
C58 C 0.30646 0.42982 0.85775 0.0
C59 C 0.67851 0.58722 0.85959 0.0
O60 O 0.60597 0.04139 0.28761 0.0
Cd61 Cd 0.65778 0.04487 0.1809 0.0
O62 O 0.46178 0.9933 0.30747 0.0
Cd63 Cd 0.39365 0.93456 0.21838 0.0
O64 O 0.28032 0.81694 0.16918 0.0
C65 C 0.19888 0.79665 0.1742 0.0
O66 O 0.18103 0.85114 0.20614 0.0
C67 C 0.54285 0.02653 0.32512 0.0
C68 C 0.80573 0.22361 0.16096 0.0
O69 O 0.72377 0.20174 0.15424 0.0
O70 O 0.82034 0.16017 0.17543 0.0
O71 O 0.44657 0.43374 0.63357 0.0
Cd72 Cd 0.43149 0.40262 0.52119 0.0
O73 O 0.52732 0.58181 0.66083 0.0
Cd74 Cd 0.54167 0.65011 0.57279 0.0
O75 O 0.53471 0.76226 0.53057 0.0
C76 C 0.59387 0.84598 0.54222 0.0
O77 O 0.66386 0.86597 0.57646 0.0
C78 C 0.48324 0.49703 0.67465 0.0
C79 C 0.4591 0.25647 0.49856 0.0
O80 O 0.5244 0.34021 0.50299 0.0
O81 O 0.3785 0.23994 0.50277 0.0
O82 O 0.02586 0.43208 0.97544 0.0
Cd83 Cd 0.03523 0.35522 0.882 0.0
O84 O -0.00664 0.52303 0.92687 0.0
Cd85 Cd 0.93272 0.60614 0.91963 0.0
O86 O 0.79875 0.58023 0.9011 0.0
C87 C 0.77508 0.62501 0.86821 0.0
O88 O 0.83597 0.70181 0.84165 0.0
C89 C 0.00552 0.49344 0.97717 0.0
C90 C 0.21102 0.39906 0.86388 0.0
O91 O 0.18232 0.4481 0.84158 0.0
O92 O 0.15604 0.32697 0.8944 0.0
O93 O 0.03447 0.48022 0.36862 0.0
Cd94 Cd 0.06338 0.53916 0.4744 0.0
O95 O 0.97217 0.55857 0.34357 0.0
Cd96 Cd 0.93684 0.54997 0.44164 0.0
O97 O 0.85395 0.43645 0.50456 0.0
C98 C 0.86379 0.36779 0.5041 0.0
O99 O 0.92971 0.37147 0.4718 0.0
C100 C 0.0053 0.51055 0.32763 0.0
C101 C 0.20044 0.72219 0.47065 0.0
O102 O 0.21623 0.65737 0.46468 0.0
O103 O 0.1191 0.70144 0.47967 0.0
O104 O 0.43573 0.00824 0.71956 0.0
Cd105 Cd 0.44882 0.96908 0.82547 0.0
O106 O 0.58142 0.07486 0.70249 0.0
Cd107 Cd 0.59853 0.10249 0.80194 0.0
O108 O 0.5736 0.19413 0.85807 0.0
C109 C 0.49436 0.18018 0.86038 0.0
O110 O 0.42712 0.10518 0.83563 0.0
C111 C 0.50207 0.04296 0.68225 0.0
C112 C 0.48393 0.82866 0.82525 0.0
O113 O 0.40404 0.81225 0.81728 0.0
O114 O 0.54848 0.91192 0.8337 0.0
O115 O 0.4862 0.42254 0.03463 0.0
Cd116 Cd 0.49165 0.4114 0.14706 0.0
O117 O 0.53139 0.55715 0.07477 0.0
Cd118 Cd 0.52903 0.68153 0.07398 0.0
O119 O 0.39448 0.62434 0.11311 0.0
C120 C 0.32841 0.55004 0.09123 0.0
O121 O 0.33932 0.51207 0.04149 0.0
C122 C 0.51064 0.50591 0.02725 0.0
C123 C 0.67103 0.48352 0.17569 0.0
O124 O 0.61378 0.3968 0.17668 0.0
O125 O 0.64334 0.53769 0.16388 0.0
loop_
_geom_bond_atom_site_label_1
_geom_bond_atom_site_label_2
_geom_bond_distance
_geom_bond_site_symmetry_2
_ccdc_geom_bond_type
Dy0 O4 2.398 . S
Dy0 O5 2.491 . S
Dy0 O6 2.403 . S
Dy0 O7 2.664 1_455 S
Dy0 O11 2.326 . S
Dy0 O15 2.310 . S
Dy0 O16 2.351 1_455 S
C1 O12 1.185 . S
C1 O13 1.355 . S
C2 O4 1.185 . S
C2 O5 1.355 . S
Dy3 O7 2.310 . S
Dy3 O10 2.351 1_655 S
Dy3 O12 2.398 . S
Dy3 O13 2.491 . S
Dy3 O14 2.403 . S
Dy3 O15 2.664 1_655 S
Dy3 O17 2.326 . S
O4 Dy0 2.398 . S
O4 C2 1.185 . S
O5 Dy0 2.491 . S
O5 C2 1.355 . S
O6 Dy0 2.403 . S
O6 C8 1.254 . S
O7 Dy0 2.664 1_655 S
O7 Dy3 2.310 . S
O7 C8 1.268 1_655 S
C8 O6 1.254 . S
C8 O7 1.268 1_455 S
C9 O14 1.254 1_455 S
C9 O15 1.268 . S
O10 Dy3 2.351 1_455 S
O10 C18 1.249 . S
O11 Dy0 2.326 . S
O11 C18 1.267 . S
O12 C1 1.185 . S
O12 Dy3 2.398 . S
O13 C1 1.355 . S
O13 Dy3 2.491 . S
O14 Dy3 2.403 . S
O14 C9 1.254 1_655 S
O15 Dy0 2.310 . S
O15 Dy3 2.664 1_455 S
O15 C9 1.268 . S
O16 Dy0 2.351 1_655 S
O16 C19 1.249 . S
O17 Dy3 2.326 . S
O17 C19 1.267 . S
C18 O10 1.249 . S
C18 O11 1.267 . S
C19 O16 1.249 . S
C19 O17 1.267 . S
Dy20 O24 2.398 . S
Dy20 O25 2.491 . S
Dy20 O26 2.403 . S
Dy20 O27 2.664 1_565 S
Dy20 O31 2.326 . S
Dy20 O35 2.310 . S
Dy20 O36 2.351 1_565 S
C21 O32 1.185 . S
C21 O33 1.355 . S
C22 O24 1.185 . S
C22 O25 1.355 . S
Dy23 O27 2.310 . S
Dy23 O30 2.351 1_545 S
Dy23 O32 2.398 . S
Dy23 O33 2.491 . S
Dy23 O34 2.403 . S
Dy23 O35 2.664 1_545 S
Dy23 O37 2.326 . S
O24 Dy20 2.398 . S
O24 C22 1.185 . S
O25 Dy20 2.491 . S
O25 C22 1.355 . S
O26 Dy20 2.403 . S
O26 C28 1.254 1_565 S
O27 Dy20 2.664 1_545 S
O27 Dy23 2.310 . S
O27 C28 1.268 . S
C28 O26 1.254 1_545 S
C28 O27 1.268 . S
C29 O34 1.254 . S
C29 O35 1.268 1_545 S
O30 Dy23 2.351 1_565 S
O30 C38 1.249 . S
O31 Dy20 2.326 . S
O31 C38 1.267 . S
O32 C21 1.185 . S
O32 Dy23 2.398 . S
O33 C21 1.355 . S
O33 Dy23 2.491 . S
O34 Dy23 2.403 . S
O34 C29 1.254 . S
O35 Dy20 2.310 . S
O35 Dy23 2.664 1_565 S
O35 C29 1.268 1_565 S
O36 Dy20 2.351 1_545 S
O36 C39 1.249 . S
O37 Dy23 2.326 . S
O37 C39 1.267 . S
C38 O30 1.249 . S
C38 O31 1.267 . S
C39 O36 1.249 . S
C39 O37 1.267 . S
Dy40 O44 2.398 . S
Dy40 O45 2.491 . S
Dy40 O46 2.403 . S
Dy40 O47 2.664 . S
Dy40 O51 2.326 . S
Dy40 O55 2.310 . S
Dy40 O56 2.351 . S
C41 O52 1.185 . S
C41 O53 1.355 . S
C42 O44 1.185 . S
C42 O45 1.355 . S
Dy43 O47 2.310 . S
Dy43 O50 2.351 . S
Dy43 O52 2.398 . S
Dy43 O53 2.491 . S
Dy43 O54 2.403 . S
Dy43 O55 2.664 . S
Dy43 O57 2.326 . S
O44 Dy40 2.398 . S
O44 C42 1.185 . S
O45 Dy40 2.491 . S
O45 C42 1.355 . S
O46 Dy40 2.403 . S
O46 C48 1.254 . S
O47 Dy40 2.664 . S
O47 Dy43 2.310 . S
O47 C48 1.268 . S
C48 O46 1.254 . S
C48 O47 1.268 . S
C49 O54 1.254 . S
C49 O55 1.268 . S
O50 Dy43 2.351 . S
O50 C58 1.249 . S
O51 Dy40 2.326 . S
O51 C58 1.267 . S
O52 C41 1.185 . S
O52 Dy43 2.398 . S
O53 C41 1.355 . S
O53 Dy43 2.491 . S
O54 Dy43 2.403 . S
O54 C49 1.254 . S
O55 Dy40 2.310 . S
O55 Dy43 2.664 . S
O55 C49 1.268 . S
O56 Dy40 2.351 . S
O56 C59 1.249 . S
O57 Dy43 2.326 . S
O57 C59 1.267 . S
C58 O50 1.249 . S
C58 O51 1.267 . S
C59 O56 1.249 . S
C59 O57 1.267 . S
O60 Cd61 2.300 . S
O60 C67 1.275 1_545 S
Cd61 O60 2.300 . S
Cd61 O69 2.381 . S
Cd61 O70 2.378 . S
O62 Cd63 2.385 . S
O62 C67 1.255 . S
Cd63 O62 2.385 . S
Cd63 O64 2.317 . S
O64 Cd63 2.317 . S
O64 C65 1.232 . S
C65 O64 1.232 . S
C65 O66 1.218 . S
O66 C65 1.218 . S
C67 O60 1.275 1_565 S
C67 O62 1.255 . S
C68 O69 1.258 . S
C68 O70 1.256 . S
O69 Cd61 2.381 . S
O69 C68 1.258 . S
O70 Cd61 2.378 . S
O70 C68 1.256 . S
O71 Cd72 2.300 . S
O71 C78 1.275 . S
Cd72 O71 2.300 . S
Cd72 O80 2.381 . S
Cd72 O81 2.378 . S
O73 Cd74 2.385 . S
O73 C78 1.255 . S
Cd74 O73 2.385 . S
Cd74 O75 2.317 . S
O75 Cd74 2.317 . S
O75 C76 1.232 . S
C76 O75 1.232 . S
C76 O77 1.218 . S
O77 C76 1.218 . S
C78 O71 1.275 . S
C78 O73 1.255 . S
C79 O80 1.258 . S
C79 O81 1.256 . S
O80 Cd72 2.381 . S
O80 C79 1.258 . S
O81 Cd72 2.378 . S
O81 C79 1.256 . S
O82 Cd83 2.300 . S
O82 C89 1.275 . S
Cd83 O82 2.300 . S
Cd83 O91 2.381 . S
Cd83 O92 2.378 . S
O84 Cd85 2.385 . S
O84 C89 1.255 1_655 S
Cd85 O84 2.385 . S
Cd85 O86 2.317 . S
O86 Cd85 2.317 . S
O86 C87 1.232 . S
C87 O86 1.232 . S
C87 O88 1.218 . S
O88 C87 1.218 . S
C89 O82 1.275 . S
C89 O84 1.255 1_455 S
C90 O91 1.258 . S
C90 O92 1.256 . S
O91 Cd83 2.381 . S
O91 C90 1.258 . S
O92 Cd83 2.378 . S
O92 C90 1.256 . S
O93 Cd94 2.300 . S
O93 C100 1.275 1_455 S
Cd94 O93 2.300 . S
Cd94 O102 2.381 . S
Cd94 O103 2.378 . S
O95 Cd96 2.385 . S
O95 C100 1.255 . S
Cd96 O95 2.385 . S
Cd96 O97 2.317 . S
O97 Cd96 2.317 . S
O97 C98 1.232 . S
C98 O97 1.232 . S
C98 O99 1.218 . S
O99 C98 1.218 . S
C100 O93 1.275 1_655 S
C100 O95 1.255 . S
C101 O102 1.258 . S
C101 O103 1.256 . S
O102 Cd94 2.381 . S
O102 C101 1.258 . S
O103 Cd94 2.378 . S
O103 C101 1.256 . S
O104 Cd105 2.300 . S
O104 C111 1.275 1_565 S
Cd105 O104 2.300 . S
Cd105 O113 2.381 . S
Cd105 O114 2.378 . S
O106 Cd107 2.385 . S
O106 C111 1.255 . S
Cd107 O106 2.385 . S
Cd107 O108 2.317 . S
O108 Cd107 2.317 . S
O108 C109 1.232 . S
C109 O108 1.232 . S
C109 O110 1.218 . S
O110 C109 1.218 . S
C111 O104 1.275 1_545 S
C111 O106 1.255 . S
C112 O113 1.258 . S
C112 O114 1.256 . S
O113 Cd105 2.381 . S
O113 C112 1.258 . S
O114 Cd105 2.378 . S
O114 C112 1.256 . S
O115 Cd116 2.300 . S
O115 C122 1.275 . S
Cd116 O115 2.300 . S
Cd116 O124 2.381 . S
Cd116 O125 2.378 . S
O117 Cd118 2.385 . S
O117 C122 1.255 . S
Cd118 O117 2.385 . S
Cd118 O119 2.317 . S
O119 Cd118 2.317 . S
O119 C120 1.232 . S
C120 O119 1.232 . S
C120 O121 1.218 . S
O121 C120 1.218 . S
C122 O115 1.275 . S
C122 O117 1.255 . S
C123 O124 1.258 . S
C123 O125 1.256 . S
O124 Cd116 2.381 . S
O124 C123 1.258 . S
O125 Cd116 2.378 . S
O125 C123 1.256 . S
C2 C120 0.846 . S
C21 C98 1.046 . S
C42 C112 0.595 . S
C1 C123 0.616 . S
C101 C22 0.597 . S
C109 C41 1.030 . S
C38 C76 2.204 . S
C59 C87 2.274 . S
C18 C65 2.200 . S
C79 C39 2.357 . S
C90 C58 2.360 . S
C19 C68 2.355 . S
C89 C9 1.477 1_556 S
C29 C67 1.511 1_545 S
C49 C78 1.514 . S
C111 C28 1.316 . S
C122 C48 1.206 1_554 S
C8 C100 1.359 1_455 S
