# Generated by pormake.
# Topology bcu-b, (8,8)-cn, num edge types: 1
# Building blocks:
#     Node 0, Type 0, BuildingBlock: VETTIZ_charged_sbu_0, # of connection points: 8
#     Node 1, Type 1, BuildingBlock: VETTIZ_charged_sbu_0, # of connection points: 8
#     Edge 2, Type (0, 1), BuildingBlock: EZIPEK_clean_linker_0, # of connection points: 2
#     Edge 3, Type (0, 1), BuildingBlock: EZIPEK_clean_linker_0, # of connection points: 2
#     Edge 4, Type (0, 1), BuildingBlock: EZIPEK_clean_linker_0, # of connection points: 2
#     Edge 5, Type (0, 1), BuildingBlock: EZIPEK_clean_linker_0, # of connection points: 2
#     Edge 6, Type (0, 1), BuildingBlock: EZIPEK_clean_linker_0, # of connection points: 2
#     Edge 7, Type (0, 1), BuildingBlock: EZIPEK_clean_linker_0, # of connection points: 2
#     Edge 8, Type (0, 1), BuildingBlock: EZIPEK_clean_linker_0, # of connection points: 2
#     Edge 9, Type (0, 1), BuildingBlock: EZIPEK_clean_linker_0, # of connection points: 2
# Relax obj value: 0.000
# Max RMSD: 0.009
# Mean RMSD: 0.009
data_MOF--net-bcu-b--node1-VETTIZ_charged_sbu_0--node2-VETTIZ_charged_sbu_0--edge1-EZIPEK_clean_linker_0
_symmetry_space_group_name_H-M    P1
_symmetry_Int_Tables_number       1
_symmetry_cell_setting            triclinic
loop_
_symmetry_equiv_pos_as_xyz
'x, y, z'
_cell_length_a     14.403873
_cell_length_b     14.930313
_cell_length_c     15.667962
_cell_angle_alpha  89.587504
_cell_angle_beta   90.315924
_cell_angle_gamma 87.237107
loop_
_atom_site_label
_atom_site_type_symbol
_atom_site_fract_x
_atom_site_fract_y
_atom_site_fract_z
_atom_type_partial_charge
Fe0 Fe 1.01 0.82055 0.00857 0.0
O1 O 0.99101 0.95132 0.00609 0.0
Fe2 Fe 1.02921 1.0183 0.89593 0.0
Fe3 Fe 0.0385 0.03639 0.09307 0.0
O4 O 0.9873 0.95144 -0.00228 0.0
O5 O 0.08029 0.10174 0.98187 0.0
O6 O 0.08809 0.10005 0.99127 0.0
Fe7 Fe 0.06024 0.23167 0.97112 0.0
C8 C 0.91883 0.89215 0.17522 0.0
O9 O 0.11373 0.82115 0.09537 0.0
O10 O 0.16109 0.95828 0.11936 0.0
O11 O 0.1539 0.21094 0.87328 0.0
O12 O 0.08684 0.09631 0.80124 0.0
O13 O 0.15497 0.94899 0.89784 0.0
O14 O 0.10865 0.81029 0.91091 0.0
O15 O 0.10108 0.13725 0.16741 0.0
O16 O 0.15283 0.23875 0.06876 0.0
C17 C 0.16499 0.86635 0.8818 0.0
O18 O 0.95883 0.22604 0.87788 0.0
O19 O 0.90306 0.09037 0.88613 0.0
O20 O 0.92141 0.83708 0.11095 0.0
O21 O 0.9699 0.96148 0.18435 0.0
C22 C 0.16741 0.8732 0.13241 0.0
C23 C 0.15307 0.20334 0.14431 0.0
C24 C 0.89874 0.19273 0.09009 0.0
O25 O 0.91406 0.10921 0.08099 0.0
O26 O 0.959 0.2468 0.06532 0.0
C27 C 0.14804 0.15677 0.80909 0.0
O28 O 0.96752 0.92003 0.81895 0.0
O29 O 0.91108 0.8195 0.91534 0.0
C30 C 0.89677 0.17142 0.86017 0.0
C31 C 0.91588 0.85399 0.83993 0.0
Fe32 Fe 0.54467 0.62756 0.50688 0.0
O33 O 0.46662 0.52828 0.54596 0.0
Fe34 Fe 0.75426 0.51326 0.45938 0.0
Fe35 Fe 0.33044 0.53456 0.53652 0.0
O36 O 0.61822 0.52782 0.4498 0.0
O37 O 0.61719 0.51785 0.44718 0.0
O38 O 0.4664 0.51878 0.54473 0.0
Fe39 Fe 0.53875 0.41852 0.48743 0.0
C40 C 0.39068 0.7005 0.62946 0.0
O41 O 0.46679 0.64888 0.39665 0.0
O42 O 0.32444 0.6397 0.44902 0.0
O43 O 0.62625 0.32994 0.41315 0.0
O44 O 0.74161 0.42064 0.36592 0.0
O45 O 0.74543 0.62699 0.38433 0.0
O46 O 0.63626 0.71763 0.45527 0.0
O47 O 0.31876 0.44176 0.43907 0.0
O48 O 0.45689 0.42582 0.3787 0.0
C49 C 0.7036 0.70381 0.40128 0.0
O50 O 0.61791 0.39897 0.59632 0.0
O51 O 0.76091 0.40588 0.54486 0.0
O52 O 0.45686 0.71782 0.57621 0.0
O53 O 0.34331 0.62922 0.62883 0.0
C54 C 0.38005 0.66856 0.39319 0.0
C55 C 0.371 0.4095 0.38061 0.0
C56 C 0.37664 0.34761 0.5989 0.0
O57 O 0.33989 0.42608 0.61618 0.0
O58 O 0.44449 0.3311 0.54466 0.0
C59 C 0.69245 0.35054 0.36007 0.0
O60 O 0.76434 0.60205 0.55748 0.0
O61 O 0.6247 0.61675 0.61661 0.0
C62 C 0.70444 0.37915 0.60086 0.0
C63 C 0.7112 0.6306 0.61663 0.0
C64 C 0.20004 0.24806 0.29511 0.0
C65 C 0.21766 0.24541 0.20642 0.0
C66 C 0.34242 0.35134 0.22902 0.0
C67 C 0.32904 0.34632 0.31829 0.0
N68 N 0.28432 0.24121 0.42614 0.0
N69 N 0.3366 0.26604 0.09898 0.0
C70 C 0.26874 0.28106 0.34915 0.0
C71 C 0.2983 0.28858 0.17587 0.0
N72 N 0.11871 0.22198 0.32943 0.0
N73 N 0.395 0.41561 0.19416 0.0
H74 H 0.31479 0.21229 0.06306 0.0
H75 H 0.39828 0.29206 0.07753 0.0
H76 H 0.42681 0.46373 0.23053 0.0
H77 H 0.39972 0.42534 0.12837 0.0
H78 H 0.10564 0.22734 0.39475 0.0
H79 H 0.06093 0.20664 0.29323 0.0
H80 H 0.24549 0.18837 0.4478 0.0
H81 H 0.34563 0.25019 0.45899 0.0
C82 C 0.78351 0.31818 0.13926 0.0
C83 C 0.81552 0.22647 0.14172 0.0
C84 C 0.73346 0.20665 0.27775 0.0
C85 C 0.71056 0.29966 0.27954 0.0
N86 N 0.67348 0.43149 0.19447 0.0
N87 N 0.76475 0.08089 0.18536 0.0
C88 C 0.72226 0.3512 0.20403 0.0
C89 C 0.77381 0.16924 0.20248 0.0
N90 N 0.81095 0.37414 0.0759 0.0
N91 N 0.71825 0.1537 0.347 0.0
H92 H 0.77662 0.05517 0.1247 0.0
H93 H 0.72907 0.03865 0.22545 0.0
H94 H 0.68139 0.17659 0.40005 0.0
H95 H 0.74495 0.08764 0.35191 0.0
H96 H 0.80066 0.44362 0.07837 0.0
H97 H 0.84476 0.35157 0.02103 0.0
H98 H 0.67249 0.46917 0.13823 0.0
H99 H 0.6258 0.45512 0.24004 0.0
C100 C 0.87595 0.86385 0.32971 0.0
C101 C 0.85037 0.87168 0.24185 0.0
C102 C 0.70749 0.79395 0.26878 0.0
C103 C 0.7368 0.78068 0.35406 0.0
N104 N 0.82754 0.8266 0.47342 0.0
N105 N 0.72785 0.87176 0.13512 0.0
C106 C 0.81347 0.82479 0.38718 0.0
C107 C 0.76095 0.84641 0.21411 0.0
N108 N 0.96209 0.88573 0.35745 0.0
N109 N 0.63189 0.75157 0.23891 0.0
H110 H 0.7656 0.90897 0.09212 0.0
H111 H 0.65981 0.86321 0.11513 0.0
H112 H 0.58949 0.71514 0.2787 0.0
H113 H 0.61372 0.74879 0.17461 0.0
H114 H 0.98774 0.8699 0.41824 0.0
H115 H 1.01157 0.91406 0.31907 0.0
H116 H 0.87722 0.86465 0.50272 0.0
H117 H 0.78272 0.79689 0.516 0.0
C118 C 0.19345 0.7509 0.24236 0.0
C119 C 0.22772 0.82847 0.20147 0.0
C120 C 0.36904 0.80515 0.29071 0.0
C121 C 0.33804 0.72044 0.31896 0.0
N122 N 0.23493 0.60175 0.29041 0.0
N123 N 0.36032 0.91898 0.17845 0.0
C124 C 0.25533 0.68975 0.28406 0.0
C125 C 0.31937 0.85296 0.22306 0.0
N126 N 0.10069 0.73721 0.24683 0.0
N127 N 0.44252 0.84204 0.33018 0.0
H128 H 0.32758 0.95338 0.12772 0.0
H129 H 0.42985 0.93338 0.18693 0.0
H130 H 0.47871 0.81064 0.38073 0.0
H131 H 0.46227 0.90696 0.3172 0.0
H132 H 0.07409 0.68425 0.28133 0.0
H133 H 0.05062 0.78527 0.22773 0.0
H134 H 0.17711 0.57599 0.26056 0.0
H135 H 0.28216 0.55369 0.31553 0.0
C136 C 0.23515 0.86938 0.73398 0.0
C137 C 0.23845 0.83672 0.81997 0.0
C138 C 0.371 0.73529 0.78351 0.0
C139 C 0.36338 0.76476 0.69727 0.0
N140 N 0.31193 0.87862 0.59677 0.0
N141 N 0.32459 0.75708 0.93128 0.0
C142 C 0.30411 0.83905 0.67513 0.0
C143 C 0.31156 0.77555 0.84636 0.0
N144 N 0.16202 0.92353 0.70622 0.0
N145 N 0.43289 0.66612 0.80393 0.0
H146 H 0.28231 0.78606 0.97847 0.0
H147 H 0.38123 0.71902 0.95565 0.0
H148 H 0.48092 0.63988 0.75989 0.0
H149 H 0.43503 0.63332 0.8628 0.0
H150 H 0.15019 0.94103 0.6425 0.0
H151 H 0.10806 0.94459 0.74559 0.0
H152 H 0.27673 0.93864 0.57945 0.0
H153 H 0.36129 0.85637 0.5523 0.0
C154 C 0.17908 0.2028 0.66115 0.0
C155 C 0.21415 0.16886 0.739 0.0
C156 C 0.36883 0.21791 0.70119 0.0
C157 C 0.32625 0.27319 0.63658 0.0
N158 N 0.18279 0.32642 0.56465 0.0
N159 N 0.34487 0.12951 0.82982 0.0
C160 C 0.22936 0.26732 0.6184 0.0
C161 C 0.3106 0.17051 0.75728 0.0
N162 N 0.09743 0.17504 0.62857 0.0
N163 N 0.46321 0.21418 0.71124 0.0
H164 H 0.3038 0.09019 0.86835 0.0
H165 H 0.41219 0.1359 0.85266 0.0
H166 H 0.50688 0.25074 0.67293 0.0
H167 H 0.49877 0.17039 0.75337 0.0
H168 H 0.07227 0.19475 0.56842 0.0
H169 H 0.06301 0.12235 0.65559 0.0
H170 H 0.11052 0.33026 0.55896 0.0
H171 H 0.21446 0.3755 0.53007 0.0
C172 C 0.76196 0.27501 0.82057 0.0
C173 C 0.82379 0.20308 0.79732 0.0
C174 C 0.78502 0.23238 0.64635 0.0
C175 C 0.73958 0.31553 0.66927 0.0
N176 N 0.68454 0.41666 0.77977 0.0
N177 N 0.88572 0.1044 0.68879 0.0
C178 C 0.72634 0.33633 0.75695 0.0
C179 C 0.83155 0.17822 0.71034 0.0
N180 N 0.73566 0.28266 0.90376 0.0
N181 N 0.78187 0.20449 0.56355 0.0
H182 H 0.91643 0.06111 0.73412 0.0
H183 H 0.90282 0.08694 0.62649 0.0
H184 H 0.74889 0.24254 0.51544 0.0
H185 H 0.8049 0.14114 0.54317 0.0
H186 H 0.68441 0.32875 0.92488 0.0
H187 H 0.75854 0.23555 0.94976 0.0
H188 H 0.68235 0.4395 0.84241 0.0
H189 H 0.65838 0.46399 0.73554 0.0
C190 C 0.90136 0.71833 0.75203 0.0
C191 C 0.86601 0.80526 0.7735 0.0
C192 C 0.72296 0.7787 0.6944 0.0
C193 C 0.75431 0.68749 0.68208 0.0
N194 N 0.86508 0.56648 0.71758 0.0
N195 N 0.73844 0.91534 0.77543 0.0
C196 C 0.84096 0.65615 0.71697 0.0
C197 C 0.77517 0.8346 0.74795 0.0
N198 N 0.99374 0.6961 0.76269 0.0
N199 N 0.64731 0.81407 0.65095 0.0
H200 H 0.77675 0.9597 0.81092 0.0
H201 H 0.66871 0.93568 0.76733 0.0
H202 H 0.60889 0.77711 0.60897 0.0
H203 H 0.62788 0.88218 0.6504 0.0
H204 H 1.02505 0.63595 0.74164 0.0
H205 H 0.04067 0.74268 0.78257 0.0
H206 H 0.92375 0.53916 0.74924 0.0
H207 H 0.82124 0.51863 0.6942 0.0
loop_
_geom_bond_atom_site_label_1
_geom_bond_atom_site_label_2
_geom_bond_distance
_geom_bond_site_symmetry_2
_ccdc_geom_bond_type
Fe0 O1 1.886 . S
Fe0 O4 1.715 1_554 S
Fe0 O9 2.077 . S
Fe0 O14 1.935 1_554 S
Fe0 O20 2.077 1_455 S
Fe0 O29 1.935 1_454 S
O1 Fe0 1.886 . S
O1 Fe3 1.715 1_565 S
Fe2 O4 1.886 . S
Fe2 O5 1.715 1_565 S
Fe2 O12 1.935 1_565 S
Fe2 O13 2.077 . S
Fe2 O19 1.935 1_465 S
Fe2 O28 2.077 1_455 S
Fe3 O1 1.715 1_545 S
Fe3 O6 1.886 . S
Fe3 O10 1.935 1_545 S
Fe3 O15 2.077 . S
Fe3 O21 1.935 1_445 S
Fe3 O25 2.077 1_455 S
O4 Fe0 1.715 1_556 S
O4 Fe2 1.886 . S
O5 Fe2 1.715 1_545 S
O5 Fe7 1.886 . S
O6 Fe3 1.886 . S
O6 Fe7 1.715 1_554 S
Fe7 O5 1.886 . S
Fe7 O6 1.715 1_556 S
Fe7 O11 2.077 . S
Fe7 O16 1.935 1_556 S
Fe7 O18 2.077 1_455 S
Fe7 O26 1.935 1_456 S
C8 O20 1.381 . S
C8 O21 1.421 . S
O9 Fe0 2.077 . S
O9 C22 1.381 . S
O10 Fe3 1.935 1_565 S
O10 C22 1.421 . S
O11 Fe7 2.077 . S
O11 C27 1.381 . S
O12 Fe2 1.935 1_545 S
O12 C27 1.421 . S
O13 Fe2 2.077 . S
O13 C17 1.381 . S
O14 Fe0 1.935 1_556 S
O14 C17 1.421 . S
O15 Fe3 2.077 . S
O15 C23 1.381 . S
O16 Fe7 1.935 1_554 S
O16 C23 1.421 . S
C17 O13 1.381 . S
C17 O14 1.421 . S
O18 Fe7 2.077 1_655 S
O18 C30 1.381 . S
O19 Fe2 1.935 1_645 S
O19 C30 1.421 . S
O20 Fe0 2.077 1_655 S
O20 C8 1.381 . S
O21 Fe3 1.935 1_665 S
O21 C8 1.421 . S
C22 O9 1.381 . S
C22 O10 1.421 . S
C23 O15 1.381 . S
C23 O16 1.421 . S
C24 O25 1.381 . S
C24 O26 1.421 . S
O25 Fe3 2.077 1_655 S
O25 C24 1.381 . S
O26 Fe7 1.935 1_654 S
O26 C24 1.421 . S
C27 O11 1.381 . S
C27 O12 1.421 . S
O28 Fe2 2.077 1_655 S
O28 C31 1.381 . S
O29 Fe0 1.935 1_656 S
O29 C31 1.421 . S
C30 O18 1.381 . S
C30 O19 1.421 . S
C31 O28 1.381 . S
C31 O29 1.421 . S
Fe32 O33 1.886 . S
Fe32 O36 1.715 . S
Fe32 O41 2.077 . S
Fe32 O46 1.935 . S
Fe32 O52 2.077 . S
Fe32 O61 1.935 . S
O33 Fe32 1.886 . S
O33 Fe35 1.715 . S
Fe34 O36 1.886 . S
Fe34 O37 1.715 . S
Fe34 O44 1.935 . S
Fe34 O45 2.077 . S
Fe34 O51 1.935 . S
Fe34 O60 2.077 . S
Fe35 O33 1.715 . S
Fe35 O38 1.886 . S
Fe35 O42 1.935 . S
Fe35 O47 2.077 . S
Fe35 O53 1.935 . S
Fe35 O57 2.077 . S
O36 Fe32 1.715 . S
O36 Fe34 1.886 . S
O37 Fe34 1.715 . S
O37 Fe39 1.886 . S
O38 Fe35 1.886 . S
O38 Fe39 1.715 . S
Fe39 O37 1.886 . S
Fe39 O38 1.715 . S
Fe39 O43 2.077 . S
Fe39 O48 1.935 . S
Fe39 O50 2.077 . S
Fe39 O58 1.935 . S
C40 O52 1.381 . S
C40 O53 1.421 . S
O41 Fe32 2.077 . S
O41 C54 1.381 . S
O42 Fe35 1.935 . S
O42 C54 1.421 . S
O43 Fe39 2.077 . S
O43 C59 1.381 . S
O44 Fe34 1.935 . S
O44 C59 1.421 . S
O45 Fe34 2.077 . S
O45 C49 1.381 . S
O46 Fe32 1.935 . S
O46 C49 1.421 . S
O47 Fe35 2.077 . S
O47 C55 1.381 . S
O48 Fe39 1.935 . S
O48 C55 1.421 . S
C49 O45 1.381 . S
C49 O46 1.421 . S
O50 Fe39 2.077 . S
O50 C62 1.381 . S
O51 Fe34 1.935 . S
O51 C62 1.421 . S
O52 Fe32 2.077 . S
O52 C40 1.381 . S
O53 Fe35 1.935 . S
O53 C40 1.421 . S
C54 O41 1.381 . S
C54 O42 1.421 . S
C55 O47 1.381 . S
C55 O48 1.421 . S
C56 O57 1.381 . S
C56 O58 1.421 . S
O57 Fe35 2.077 . S
O57 C56 1.381 . S
O58 Fe39 1.935 . S
O58 C56 1.421 . S
C59 O43 1.381 . S
C59 O44 1.421 . S
O60 Fe34 2.077 . S
O60 C63 1.381 . S
O61 Fe32 1.935 . S
O61 C63 1.421 . S
C62 O50 1.381 . S
C62 O51 1.421 . S
C63 O60 1.381 . S
C63 O61 1.421 . S
C64 C65 1.363 . S
C64 C70 1.379 . S
C64 N72 1.356 . S
C65 C64 1.363 . S
C65 C71 1.363 . S
C66 C67 1.363 . S
C66 C71 1.379 . S
C66 N73 1.356 . S
C67 C66 1.363 . S
C67 C70 1.363 . S
N68 C70 1.356 . S
N68 H80 0.984 . S
N68 H81 0.985 . S
N69 C71 1.356 . S
N69 H74 0.984 . S
N69 H75 0.985 . S
C70 C64 1.379 . S
C70 C67 1.363 . S
C70 N68 1.356 . S
C71 C65 1.363 . S
C71 C66 1.379 . S
C71 N69 1.356 . S
N72 C64 1.356 . S
N72 H78 0.984 . S
N72 H79 0.984 . S
N73 C66 1.356 . S
N73 H76 0.984 . S
N73 H77 0.985 . S
H74 N69 0.984 . S
H75 N69 0.985 . S
H76 N73 0.984 . S
H77 N73 0.985 . S
H78 N72 0.984 . S
H79 N72 0.984 . S
H80 N68 0.984 . S
H81 N68 0.985 . S
C82 C83 1.363 . S
C82 C88 1.379 . S
C82 N90 1.356 . S
C83 C82 1.363 . S
C83 C89 1.363 . S
C84 C85 1.363 . S
C84 C89 1.379 . S
C84 N91 1.356 . S
C85 C84 1.363 . S
C85 C88 1.363 . S
N86 C88 1.356 . S
N86 H98 0.984 . S
N86 H99 0.985 . S
N87 C89 1.356 . S
N87 H92 0.984 . S
N87 H93 0.985 . S
C88 C82 1.379 . S
C88 C85 1.363 . S
C88 N86 1.356 . S
C89 C83 1.363 . S
C89 C84 1.379 . S
C89 N87 1.356 . S
N90 C82 1.356 . S
N90 H96 0.984 . S
N90 H97 0.984 . S
N91 C84 1.356 . S
N91 H94 0.984 . S
N91 H95 0.985 . S
H92 N87 0.984 . S
H93 N87 0.985 . S
H94 N91 0.984 . S
H95 N91 0.985 . S
H96 N90 0.984 . S
H97 N90 0.984 . S
H98 N86 0.984 . S
H99 N86 0.985 . S
C100 C101 1.363 . S
C100 C106 1.379 . S
C100 N108 1.356 . S
C101 C100 1.363 . S
C101 C107 1.363 . S
C102 C103 1.363 . S
C102 C107 1.379 . S
C102 N109 1.356 . S
C103 C102 1.363 . S
C103 C106 1.363 . S
N104 C106 1.356 . S
N104 H116 0.984 . S
N104 H117 0.985 . S
N105 C107 1.356 . S
N105 H110 0.984 . S
N105 H111 0.985 . S
C106 C100 1.379 . S
C106 C103 1.363 . S
C106 N104 1.356 . S
C107 C101 1.363 . S
C107 C102 1.379 . S
C107 N105 1.356 . S
N108 C100 1.356 . S
N108 H114 0.984 . S
N108 H115 0.984 . S
N109 C102 1.356 . S
N109 H112 0.984 . S
N109 H113 0.985 . S
H110 N105 0.984 . S
H111 N105 0.985 . S
H112 N109 0.984 . S
H113 N109 0.985 . S
H114 N108 0.984 . S
H115 N108 0.984 . S
H116 N104 0.984 . S
H117 N104 0.985 . S
C118 C119 1.363 . S
C118 C124 1.379 . S
C118 N126 1.356 . S
C119 C118 1.363 . S
C119 C125 1.363 . S
C120 C121 1.363 . S
C120 C125 1.379 . S
C120 N127 1.356 . S
C121 C120 1.363 . S
C121 C124 1.363 . S
N122 C124 1.356 . S
N122 H134 0.984 . S
N122 H135 0.985 . S
N123 C125 1.356 . S
N123 H128 0.984 . S
N123 H129 0.985 . S
C124 C118 1.379 . S
C124 C121 1.363 . S
C124 N122 1.356 . S
C125 C119 1.363 . S
C125 C120 1.379 . S
C125 N123 1.356 . S
N126 C118 1.356 . S
N126 H132 0.984 . S
N126 H133 0.984 . S
N127 C120 1.356 . S
N127 H130 0.984 . S
N127 H131 0.985 . S
H128 N123 0.984 . S
H129 N123 0.985 . S
H130 N127 0.984 . S
H131 N127 0.985 . S
H132 N126 0.984 . S
H133 N126 0.984 . S
H134 N122 0.984 . S
H135 N122 0.985 . S
C136 C137 1.363 . S
C136 C142 1.379 . S
C136 N144 1.356 . S
C137 C136 1.363 . S
C137 C143 1.363 . S
C138 C139 1.363 . S
C138 C143 1.379 . S
C138 N145 1.356 . S
C139 C138 1.363 . S
C139 C142 1.363 . S
N140 C142 1.356 . S
N140 H152 0.984 . S
N140 H153 0.985 . S
N141 C143 1.356 . S
N141 H146 0.984 . S
N141 H147 0.985 . S
C142 C136 1.379 . S
C142 C139 1.363 . S
C142 N140 1.356 . S
C143 C137 1.363 . S
C143 C138 1.379 . S
C143 N141 1.356 . S
N144 C136 1.356 . S
N144 H150 0.984 . S
N144 H151 0.984 . S
N145 C138 1.356 . S
N145 H148 0.984 . S
N145 H149 0.985 . S
H146 N141 0.984 . S
H147 N141 0.985 . S
H148 N145 0.984 . S
H149 N145 0.985 . S
H150 N144 0.984 . S
H151 N144 0.984 . S
H152 N140 0.984 . S
H153 N140 0.985 . S
C154 C155 1.363 . S
C154 C160 1.379 . S
C154 N162 1.356 . S
C155 C154 1.363 . S
C155 C161 1.363 . S
C156 C157 1.363 . S
C156 C161 1.379 . S
C156 N163 1.356 . S
C157 C156 1.363 . S
C157 C160 1.363 . S
N158 C160 1.356 . S
N158 H170 0.984 . S
N158 H171 0.985 . S
N159 C161 1.356 . S
N159 H164 0.984 . S
N159 H165 0.985 . S
C160 C154 1.379 . S
C160 C157 1.363 . S
C160 N158 1.356 . S
C161 C155 1.363 . S
C161 C156 1.379 . S
C161 N159 1.356 . S
N162 C154 1.356 . S
N162 H168 0.984 . S
N162 H169 0.984 . S
N163 C156 1.356 . S
N163 H166 0.984 . S
N163 H167 0.985 . S
H164 N159 0.984 . S
H165 N159 0.985 . S
H166 N163 0.984 . S
H167 N163 0.985 . S
H168 N162 0.984 . S
H169 N162 0.984 . S
H170 N158 0.984 . S
H171 N158 0.985 . S
C172 C173 1.363 . S
C172 C178 1.379 . S
C172 N180 1.356 . S
C173 C172 1.363 . S
C173 C179 1.363 . S
C174 C175 1.363 . S
C174 C179 1.379 . S
C174 N181 1.356 . S
C175 C174 1.363 . S
C175 C178 1.363 . S
N176 C178 1.356 . S
N176 H188 0.984 . S
N176 H189 0.985 . S
N177 C179 1.356 . S
N177 H182 0.984 . S
N177 H183 0.985 . S
C178 C172 1.379 . S
C178 C175 1.363 . S
C178 N176 1.356 . S
C179 C173 1.363 . S
C179 C174 1.379 . S
C179 N177 1.356 . S
N180 C172 1.356 . S
N180 H186 0.984 . S
N180 H187 0.984 . S
N181 C174 1.356 . S
N181 H184 0.984 . S
N181 H185 0.985 . S
H182 N177 0.984 . S
H183 N177 0.985 . S
H184 N181 0.984 . S
H185 N181 0.985 . S
H186 N180 0.984 . S
H187 N180 0.984 . S
H188 N176 0.984 . S
H189 N176 0.985 . S
C190 C191 1.363 . S
C190 C196 1.379 . S
C190 N198 1.356 . S
C191 C190 1.363 . S
C191 C197 1.363 . S
C192 C193 1.363 . S
C192 C197 1.379 . S
C192 N199 1.356 . S
C193 C192 1.363 . S
C193 C196 1.363 . S
N194 C196 1.356 . S
N194 H206 0.984 . S
N194 H207 0.985 . S
N195 C197 1.356 . S
N195 H200 0.984 . S
N195 H201 0.985 . S
C196 C190 1.379 . S
C196 C193 1.363 . S
C196 N194 1.356 . S
C197 C191 1.363 . S
C197 C192 1.379 . S
C197 N195 1.356 . S
N198 C190 1.356 . S
N198 H204 0.984 . S
N198 H205 0.984 . S
N199 C192 1.356 . S
N199 H202 0.984 . S
N199 H203 0.985 . S
H200 N195 0.984 . S
H201 N195 0.985 . S
H202 N199 0.984 . S
H203 N199 0.985 . S
H204 N198 0.984 . S
H205 N198 0.984 . S
H206 N194 0.984 . S
H207 N194 0.985 . S
C65 C23 1.452 . S
C67 C55 1.449 . S
C83 C24 1.452 . S
C85 C59 1.451 . S
C101 C8 1.452 . S
C103 C49 1.452 . S
C119 C22 1.452 . S
C121 C54 1.451 . S
C137 C17 1.452 . S
C139 C40 1.453 . S
C157 C56 1.452 . S
C155 C27 1.451 . S
C173 C30 1.452 . S
C175 C62 1.453 . S
C193 C63 1.452 . S
C191 C31 1.454 . S
