# Generated by pormake.
# Topology anh, (6,3)-cn, num edge types: 1
# Building blocks:
#     Node 0, Type 0, BuildingBlock: BETDAH_clean_sbu_0, # of connection points: 6
#     Node 1, Type 0, BuildingBlock: BETDAH_clean_sbu_0, # of connection points: 6
#     Node 2, Type 0, BuildingBlock: BETDAH_clean_sbu_0, # of connection points: 6
#     Node 3, Type 1, BuildingBlock: OLANEW_clean_sbu_2, # of connection points: 3
#     Node 4, Type 1, BuildingBlock: OLANEW_clean_sbu_2, # of connection points: 3
#     Node 5, Type 1, BuildingBlock: OLANEW_clean_sbu_2, # of connection points: 3
#     Node 6, Type 1, BuildingBlock: OLANEW_clean_sbu_2, # of connection points: 3
#     Node 7, Type 1, BuildingBlock: OLANEW_clean_sbu_2, # of connection points: 3
#     Node 8, Type 1, BuildingBlock: OLANEW_clean_sbu_2, # of connection points: 3
#     Edge 9, Type (0, 1), None
#     Edge 10, Type (0, 1), None
#     Edge 11, Type (0, 1), None
#     Edge 12, Type (0, 1), None
#     Edge 13, Type (0, 1), None
#     Edge 14, Type (0, 1), None
#     Edge 15, Type (0, 1), None
#     Edge 16, Type (0, 1), None
#     Edge 17, Type (0, 1), None
#     Edge 18, Type (0, 1), None
#     Edge 19, Type (0, 1), None
#     Edge 20, Type (0, 1), None
#     Edge 21, Type (0, 1), None
#     Edge 22, Type (0, 1), None
#     Edge 23, Type (0, 1), None
#     Edge 24, Type (0, 1), None
#     Edge 25, Type (0, 1), None
#     Edge 26, Type (0, 1), None
# Relax obj value: 0.341
# Max RMSD: 0.264
# Mean RMSD: 0.150
data_MOF--net-anh--node1-BETDAH_clean_sbu_0--node2-OLANEW_clean_sbu_2--edge1-none
_symmetry_space_group_name_H-M    P1
_symmetry_Int_Tables_number       1
_symmetry_cell_setting            triclinic
loop_
_symmetry_equiv_pos_as_xyz
'x, y, z'
_cell_length_a     20.730313
_cell_length_b     24.75661
_cell_length_c     22.864726
_cell_angle_alpha  92.17365
_cell_angle_beta   89.8477
_cell_angle_gamma 137.00678
loop_
_atom_site_label
_atom_site_type_symbol
_atom_site_fract_x
_atom_site_fract_y
_atom_site_fract_z
_atom_type_partial_charge
Ho0 Ho 0.11682 0.51222 0.15427 0.0
Ho1 Ho 0.02965 0.5718 0.17283 0.0
C2 C 0.25538 0.69991 0.1806 0.0
C3 C 0.22159 0.49926 0.11455 0.0
C4 C 0.32379 0.55093 0.12102 0.0
C5 C 0.37637 0.57228 0.07116 0.0
C6 C 0.47207 0.61727 0.07683 0.0
C7 C 0.51646 0.6409 0.13269 0.0
C8 C 0.46504 0.62355 0.18238 0.0
C9 C 0.3697 0.57928 0.17662 0.0
C10 C 0.07383 0.51121 0.26502 0.0
C11 C 0.89608 0.38573 0.1686 0.0
C12 C 0.96427 0.62198 0.2136 0.0
C13 C 0.86586 0.5791 0.21772 0.0
C14 C 0.84307 0.61556 0.24315 0.0
C15 C 0.74814 0.57264 0.24743 0.0
C16 C 0.67533 0.49266 0.22674 0.0
C17 C 0.6991 0.45619 0.20269 0.0
C18 C 0.79347 0.49917 0.19795 0.0
C19 C 1.0139 0.51956 0.06215 0.0
O20 O 0.24582 0.64089 0.18154 0.0
O21 O 0.183 0.68831 0.17126 0.0
O22 O 0.17271 0.46586 0.16171 0.0
O23 O 0.19782 0.52642 0.0839 0.0
O24 O 0.06718 0.45838 0.2421 0.0
O25 O 0.10769 0.56372 0.22937 0.0
O26 O 0.91179 0.44394 0.1928 0.0
O27 O 0.96166 0.39871 0.13972 0.0
O28 O 0.995 0.63461 0.16033 0.0
O29 O 0.98643 0.59495 0.24647 0.0
O30 O 0.94978 0.51122 0.08489 0.0
O31 O 0.08333 0.55861 0.09777 0.0
H32 H 0.3428 0.55245 0.02789 0.0
H33 H 0.5096 0.62966 0.03757 0.0
H34 H 0.49732 0.64125 0.22595 0.0
H35 H 0.33145 0.5654 0.21587 0.0
H36 H 0.89841 0.67711 0.25909 0.0
H37 H 0.73192 0.60249 0.26569 0.0
H38 H 0.64494 0.39502 0.18582 0.0
H39 H 0.80999 0.47011 0.17831 0.0
Ho40 Ho 0.60872 0.00381 0.49442 0.0
Ho41 Ho 0.51139 0.05248 0.48675 0.0
C42 C 0.38217 0.8706 0.47275 0.0
C43 C 0.66954 0.94536 0.51863 0.0
C44 C 0.63899 0.87415 0.53944 0.0
C45 C 0.54401 0.79926 0.53524 0.0
C46 C 0.5183 0.73271 0.55478 0.0
C47 C 0.58714 0.74031 0.57911 0.0
C48 C 0.68203 0.8156 0.58305 0.0
C49 C 0.70758 0.88171 0.56329 0.0
C50 C 0.61042 0.04818 0.38798 0.0
C51 C 0.74161 0.18863 0.50296 0.0
C52 C 0.45682 0.11683 0.46622 0.0
C53 C 0.47959 0.18531 0.49122 0.0
C54 C 0.5679 0.25092 0.51907 0.0
C55 C 0.58693 0.31413 0.54422 0.0
C56 C 0.51775 0.31264 0.54242 0.0
C57 C 0.42942 0.24671 0.51446 0.0
C58 C 0.41067 0.18378 0.48909 0.0
C59 C 0.51491 0.01331 0.59501 0.0
O60 O 0.45297 0.88823 0.49893 0.0
O61 O 0.39344 0.92631 0.45272 0.0
O62 O 0.63815 0.93933 0.46661 0.0
O63 O 0.67061 0.98684 0.55669 0.0
O64 O 0.67967 0.06303 0.41026 0.0
O65 O 0.541 0.00641 0.42117 0.0
O66 O 0.66556 0.17092 0.49009 0.0
O67 O 0.7373 0.13388 0.51273 0.0
O68 O 0.41301 0.05816 0.50053 0.0
O69 O 0.52331 0.13245 0.43761 0.0
O70 O 0.44752 0.00132 0.57355 0.0
O71 O 0.58171 0.05226 0.55994 0.0
H72 H 0.48999 0.79232 0.51696 0.0
H73 H 0.4445 0.67564 0.55148 0.0
H74 H 0.73686 0.82364 0.60143 0.0
H75 H 0.78129 0.93902 0.56665 0.0
H76 H 0.62193 0.2531 0.52177 0.0
H77 H 0.65557 0.36379 0.56555 0.0
H78 H 0.37451 0.24352 0.51226 0.0
H79 H 0.34188 0.13348 0.46815 0.0
Ho80 Ho 0.55813 0.56284 0.90968 0.0
Ho81 Ho 0.41368 0.38499 0.92136 0.0
C82 C 0.33318 0.45616 0.92119 0.0
C83 C 0.65471 0.70272 0.87382 0.0
C84 C 0.64103 0.75091 0.85732 0.0
C85 C 0.55046 0.71829 0.85129 0.0
C86 C 0.53982 0.7656 0.83509 0.0
C87 C 0.61961 0.84634 0.82469 0.0
C88 C 0.71005 0.87841 0.83067 0.0
C89 C 0.72051 0.83113 0.8468 0.0
C90 C 0.52804 0.51625 0.01975 0.0
C91 C 0.64225 0.49567 0.92384 0.0
C92 C 0.32276 0.24262 0.94493 0.0
C93 C 0.33639 0.19328 0.92794 0.0
C94 C 0.42665 0.22457 0.93009 0.0
C95 C 0.43997 0.18022 0.90684 0.0
C96 C 0.36348 0.10393 0.88061 0.0
C97 C 0.27271 0.0717 0.88067 0.0
C98 C 0.25939 0.11591 0.90412 0.0
C99 C 0.44786 0.43249 0.81085 0.0
O100 O 0.41642 0.52017 0.90043 0.0
O101 O 0.31825 0.39809 0.94097 0.0
O102 O 0.646 0.68727 0.9291 0.0
O103 O 0.61521 0.64139 0.83871 0.0
O104 O 0.61031 0.58059 1.00193 0.0
O105 O 0.46553 0.48251 0.97978 0.0
O106 O 0.55484 0.42718 0.93551 0.0
O107 O 0.66048 0.55588 0.90599 0.0
O108 O 0.29769 0.25825 0.90203 0.0
O109 O 0.3868 0.30454 0.9807 0.0
O110 O 0.36476 0.36983 0.82836 0.0
O111 O 0.50882 0.46502 0.85168 0.0
H112 H 0.48812 0.65643 0.85909 0.0
H113 H 0.46916 0.73898 0.83099 0.0
H114 H 0.77302 0.94024 0.82308 0.0
H115 H 0.791 0.85735 0.85111 0.0
H116 H 0.48757 0.28416 0.94806 0.0
H117 H 0.5108 0.2069 0.90756 0.0
H118 H 0.21211 0.01306 0.86103 0.0
H119 H 0.18925 0.09059 0.90183 0.0
O120 O 0.64876 0.13908 0.32153 0.0
Cd121 Cd 0.64064 0.15655 0.21728 0.0
O122 O 0.57825 0.02359 0.28476 0.0
Cd123 Cd 0.51225 0.90399 0.27901 0.0
O124 O 0.40105 0.78752 0.23475 0.0
C125 C 0.34521 0.77929 0.2013 0.0
O126 O 0.35958 0.83995 0.19516 0.0
C127 C 0.61056 0.07033 0.32939 0.0
C128 C 0.80609 0.30489 0.181 0.0
O129 O 0.74085 0.29302 0.20493 0.0
O130 O 0.7937 0.24622 0.17343 0.0
O131 O 0.5448 0.48711 0.72847 0.0
Cd132 Cd 0.57307 0.50382 0.62311 0.0
O133 O 0.40886 0.44732 0.72027 0.0
Cd134 Cd 0.44221 0.50578 0.6386 0.0
O135 O 0.47762 0.60125 0.59368 0.0
C136 C 0.5607 0.67121 0.6022 0.0
O137 O 0.62213 0.68196 0.63436 0.0
C138 C 0.46846 0.45716 0.75049 0.0
C139 C 0.53712 0.37894 0.56997 0.0
O140 O 0.61901 0.44144 0.5925 0.0
O141 O 0.47234 0.37544 0.57232 0.0
O142 O 0.06394 0.48203 0.99474 0.0
Cd143 Cd 0.10477 0.43589 0.91565 0.0
O144 O 0.94661 0.46446 0.96474 0.0
Cd145 Cd 0.83913 0.46811 0.96478 0.0
O146 O 0.71539 0.45499 0.95199 0.0
C147 C 0.72336 0.50702 0.93072 0.0
O148 O 0.71129 0.4522 0.95258 0.0
C149 C 1.00708 0.48691 0.00436 0.0
C150 C 0.25631 0.45057 0.92241 0.0
O151 O 0.26917 0.50582 0.90326 0.0
O152 O 0.17431 0.39007 0.94149 0.0
O153 O 0.09545 0.58213 0.34903 0.0
Cd154 Cd 0.11202 0.62815 0.44984 0.0
O155 O 1.01902 0.45788 0.35789 0.0
Cd156 Cd 0.97045 0.43414 0.44764 0.0
O157 O 0.84009 0.32307 0.48324 0.0
C158 C 0.83491 0.27124 0.49884 0.0
O159 O 0.91149 0.28812 0.49965 0.0
C160 C 0.06148 0.51724 0.32702 0.0
C161 C 0.28911 0.78716 0.46549 0.0
O162 O 0.27798 0.731 0.47879 0.0
O163 O 0.21693 0.76874 0.44576 0.0
O164 O 0.5796 0.00903 0.67876 0.0
Cd165 Cd 0.59136 0.99668 0.7837 0.0
O166 O 0.48028 0.01646 0.69211 0.0
Cd167 Cd 0.48234 0.03322 0.78719 0.0
O168 O 0.46036 0.08869 0.84899 0.0
C169 C 0.3788 0.06052 0.8493 0.0
O170 O 0.31016 0.99638 0.81625 0.0
C171 C 0.52573 0.01251 0.6583 0.0
C172 C 0.60922 0.89748 0.80894 0.0
O173 O 0.52754 0.8696 0.80355 0.0
O174 O 0.68199 0.97153 0.80136 0.0
O175 O 0.42555 0.42314 0.0913 0.0
Cd176 Cd 0.40016 0.38152 0.1912 0.0
O177 O 0.57712 0.52371 0.11613 0.0
Cd178 Cd 0.71812 0.64341 0.10171 0.0
O179 O 0.65237 0.68181 0.09427 0.0
C180 C 0.60907 0.67055 0.13963 0.0
O181 O 0.63055 0.66051 0.18914 0.0
C182 C 0.50975 0.48597 0.07799 0.0
C183 C 0.57609 0.45006 0.22316 0.0
O184 O 0.51165 0.37943 0.1998 0.0
O185 O 0.55423 0.48576 0.23645 0.0
loop_
_geom_bond_atom_site_label_1
_geom_bond_atom_site_label_2
_geom_bond_distance
_geom_bond_site_symmetry_2
_ccdc_geom_bond_type
Ho0 C3 2.811 . S
Ho0 O20 2.322 . S
Ho0 O22 2.378 . S
Ho0 O23 2.524 . S
Ho0 O24 2.381 . S
Ho0 O25 2.669 . S
Ho0 O27 2.346 1_455 S
Ho0 O31 2.305 . S
Ho1 C12 2.811 . S
Ho1 O21 2.346 1_655 S
Ho1 O25 2.305 1_655 S
Ho1 O26 2.322 . S
Ho1 O28 2.378 . S
Ho1 O29 2.524 . S
Ho1 O30 2.381 . S
Ho1 O31 2.669 1_655 S
C2 O20 1.259 . S
C2 O21 1.268 . S
C3 Ho0 2.811 . S
C3 C4 1.488 . S
C3 O22 1.215 . S
C3 O23 1.289 . S
C4 C3 1.488 . S
C4 C5 1.348 . S
C4 C9 1.413 . S
C5 C4 1.348 . S
C5 C6 1.442 . S
C5 H32 0.930 . S
C6 C5 1.442 . S
C6 C7 1.381 . S
C6 H33 0.931 . S
C7 C6 1.381 . S
C7 C8 1.321 . S
C8 C7 1.321 . S
C8 C9 1.403 . S
C8 H34 0.934 . S
C9 C4 1.413 . S
C9 C8 1.403 . S
C9 H35 0.930 . S
C10 O24 1.275 . S
C10 O25 1.256 . S
C11 O26 1.259 . S
C11 O27 1.268 . S
C12 Ho1 2.811 . S
C12 C13 1.488 . S
C12 O28 1.215 . S
C12 O29 1.289 . S
C13 C12 1.488 . S
C13 C14 1.348 . S
C13 C18 1.413 . S
C14 C13 1.348 . S
C14 C15 1.442 . S
C14 H36 0.930 . S
C15 C14 1.442 . S
C15 C16 1.381 . S
C15 H37 0.931 . S
C16 C15 1.381 . S
C16 C17 1.321 . S
C17 C16 1.321 . S
C17 C18 1.403 . S
C17 H38 0.934 . S
C18 C13 1.413 . S
C18 C17 1.403 . S
C18 H39 0.930 . S
C19 O30 1.275 1_455 S
C19 O31 1.256 . S
O20 Ho0 2.322 . S
O20 C2 1.259 . S
O21 Ho1 2.346 1_455 S
O21 C2 1.268 . S
O22 Ho0 2.378 . S
O22 C3 1.215 . S
O23 Ho0 2.524 . S
O23 C3 1.289 . S
O24 Ho0 2.381 . S
O24 C10 1.275 . S
O25 Ho0 2.669 . S
O25 Ho1 2.305 1_455 S
O25 C10 1.256 . S
O26 Ho1 2.322 . S
O26 C11 1.259 . S
O27 Ho0 2.346 1_655 S
O27 C11 1.268 . S
O28 Ho1 2.378 . S
O28 C12 1.215 . S
O29 Ho1 2.524 . S
O29 C12 1.289 . S
O30 Ho1 2.381 . S
O30 C19 1.275 1_655 S
O31 Ho0 2.305 . S
O31 Ho1 2.669 1_455 S
O31 C19 1.256 . S
H32 C5 0.930 . S
H33 C6 0.931 . S
H34 C8 0.934 . S
H35 C9 0.930 . S
H36 C14 0.930 . S
H37 C15 0.931 . S
H38 C17 0.934 . S
H39 C18 0.930 . S
Ho40 C43 2.811 . S
Ho40 O60 2.322 . S
Ho40 O62 2.378 . S
Ho40 O63 2.524 . S
Ho40 O64 2.381 . S
Ho40 O65 2.669 1_565 S
Ho40 O67 2.346 1_565 S
Ho40 O71 2.300 1_565 S
Ho41 C52 2.811 . S
Ho41 O61 2.346 1_545 S
Ho41 O65 2.305 . S
Ho41 O66 2.322 . S
Ho41 O68 2.378 . S
Ho41 O69 2.524 . S
Ho41 O70 2.381 . S
Ho41 O71 2.676 . S
C42 O60 1.259 . S
C42 O61 1.268 . S
C43 Ho40 2.811 . S
C43 C44 1.488 . S
C43 O62 1.215 . S
C43 O63 1.289 . S
C44 C43 1.488 . S
C44 C45 1.348 . S
C44 C49 1.413 . S
C45 C44 1.348 . S
C45 C46 1.442 . S
C45 H72 0.930 . S
C46 C45 1.442 . S
C46 C47 1.381 . S
C46 H73 0.931 . S
C47 C46 1.381 . S
C47 C48 1.321 . S
C48 C47 1.321 . S
C48 C49 1.403 . S
C48 H74 0.934 . S
C49 C44 1.413 . S
C49 C48 1.403 . S
C49 H75 0.930 . S
C50 O64 1.275 1_545 S
C50 O65 1.256 . S
C51 O66 1.259 . S
C51 O67 1.268 . S
C52 Ho41 2.811 . S
C52 C53 1.488 . S
C52 O68 1.215 . S
C52 O69 1.289 . S
C53 C52 1.488 . S
C53 C54 1.348 . S
C53 C58 1.413 . S
C54 C53 1.348 . S
C54 C55 1.442 . S
C54 H76 0.930 . S
C55 C54 1.442 . S
C55 C56 1.381 . S
C55 H77 0.931 . S
C56 C55 1.381 . S
C56 C57 1.321 . S
C57 C56 1.321 . S
C57 C58 1.403 . S
C57 H78 0.934 . S
C58 C53 1.413 . S
C58 C57 1.403 . S
C58 H79 0.930 . S
C59 O70 1.275 . S
C59 O71 1.260 . S
O60 Ho40 2.322 . S
O60 C42 1.259 . S
O61 Ho41 2.346 1_565 S
O61 C42 1.268 . S
O62 Ho40 2.378 . S
O62 C43 1.215 . S
O63 Ho40 2.524 . S
O63 C43 1.289 . S
O64 Ho40 2.381 . S
O64 C50 1.275 1_565 S
O65 Ho40 2.669 1_545 S
O65 Ho41 2.305 . S
O65 C50 1.256 . S
O66 Ho41 2.322 . S
O66 C51 1.259 . S
O67 Ho40 2.346 1_545 S
O67 C51 1.268 . S
O68 Ho41 2.378 . S
O68 C52 1.215 . S
O69 Ho41 2.524 . S
O69 C52 1.289 . S
O70 Ho41 2.381 . S
O70 C59 1.275 . S
O71 Ho40 2.300 1_545 S
O71 Ho41 2.676 . S
O71 C59 1.260 . S
H72 C45 0.930 . S
H73 C46 0.931 . S
H74 C48 0.934 . S
H75 C49 0.930 . S
H76 C54 0.930 . S
H77 C55 0.931 . S
H78 C57 0.934 . S
H79 C58 0.930 . S
Ho80 C83 2.811 . S
Ho80 O100 2.322 . S
Ho80 O102 2.378 . S
Ho80 O103 2.524 . S
Ho80 O104 2.381 . S
Ho80 O105 2.669 . S
Ho80 O107 2.346 . S
Ho80 O111 2.305 . S
Ho81 C92 2.811 . S
Ho81 O101 2.346 . S
Ho81 O105 2.305 . S
Ho81 O106 2.322 . S
Ho81 O108 2.378 . S
Ho81 O109 2.524 . S
Ho81 O110 2.381 . S
Ho81 O111 2.669 . S
C82 O100 1.259 . S
C82 O101 1.268 . S
C83 Ho80 2.811 . S
C83 C84 1.488 . S
C83 O102 1.215 . S
C83 O103 1.289 . S
C84 C83 1.488 . S
C84 C85 1.348 . S
C84 C89 1.413 . S
C85 C84 1.348 . S
C85 C86 1.442 . S
C85 H112 0.930 . S
C86 C85 1.442 . S
C86 C87 1.381 . S
C86 H113 0.931 . S
C87 C86 1.381 . S
C87 C88 1.321 . S
C88 C87 1.321 . S
C88 C89 1.403 . S
C88 H114 0.934 . S
C89 C84 1.413 . S
C89 C88 1.403 . S
C89 H115 0.930 . S
C90 O104 1.275 . S
C90 O105 1.256 . S
C91 O106 1.259 . S
C91 O107 1.268 . S
C92 Ho81 2.811 . S
C92 C93 1.488 . S
C92 O108 1.215 . S
C92 O109 1.289 . S
C93 C92 1.488 . S
C93 C94 1.348 . S
C93 C98 1.413 . S
C94 C93 1.348 . S
C94 C95 1.442 . S
C94 H116 0.930 . S
C95 C94 1.442 . S
C95 C96 1.381 . S
C95 H117 0.931 . S
C96 C95 1.381 . S
C96 C97 1.321 . S
C97 C96 1.321 . S
C97 C98 1.403 . S
C97 H118 0.934 . S
C98 C93 1.413 . S
C98 C97 1.403 . S
C98 H119 0.930 . S
C99 O110 1.275 . S
C99 O111 1.256 . S
O100 Ho80 2.322 . S
O100 C82 1.259 . S
O101 Ho81 2.346 . S
O101 C82 1.268 . S
O102 Ho80 2.378 . S
O102 C83 1.215 . S
O103 Ho80 2.524 . S
O103 C83 1.289 . S
O104 Ho80 2.381 . S
O104 C90 1.275 . S
O105 Ho80 2.669 . S
O105 Ho81 2.305 . S
O105 C90 1.256 . S
O106 Ho81 2.322 . S
O106 C91 1.259 . S
O107 Ho80 2.346 . S
O107 C91 1.268 . S
O108 Ho81 2.378 . S
O108 C92 1.215 . S
O109 Ho81 2.524 . S
O109 C92 1.289 . S
O110 Ho81 2.381 . S
O110 C99 1.275 . S
O111 Ho80 2.305 . S
O111 Ho81 2.669 . S
O111 C99 1.256 . S
H112 C85 0.930 . S
H113 C86 0.931 . S
H114 C88 0.934 . S
H115 C89 0.930 . S
H116 C94 0.930 . S
H117 C95 0.931 . S
H118 C97 0.934 . S
H119 C98 0.930 . S
O120 Cd121 2.300 . S
O120 C127 1.275 . S
Cd121 O120 2.300 . S
Cd121 O129 2.381 . S
Cd121 O130 2.378 . S
O122 Cd123 2.385 . S
O122 C127 1.255 1_565 S
Cd123 O122 2.385 . S
Cd123 O124 2.317 . S
O124 Cd123 2.317 . S
O124 C125 1.232 . S
C125 O124 1.232 . S
C125 O126 1.218 . S
O126 C125 1.218 . S
C127 O120 1.275 . S
C127 O122 1.255 1_545 S
C128 O129 1.258 . S
C128 O130 1.256 . S
O129 Cd121 2.381 . S
O129 C128 1.258 . S
O130 Cd121 2.378 . S
O130 C128 1.256 . S
O131 Cd132 2.300 . S
O131 C138 1.275 . S
Cd132 O131 2.300 . S
Cd132 O140 2.381 . S
Cd132 O141 2.378 . S
O133 Cd134 2.385 . S
O133 C138 1.255 . S
Cd134 O133 2.385 . S
Cd134 O135 2.317 . S
O135 Cd134 2.317 . S
O135 C136 1.232 . S
C136 O135 1.232 . S
C136 O137 1.218 . S
O137 C136 1.218 . S
C138 O131 1.275 . S
C138 O133 1.255 . S
C139 O140 1.258 . S
C139 O141 1.256 . S
O140 Cd132 2.381 . S
O140 C139 1.258 . S
O141 Cd132 2.378 . S
O141 C139 1.256 . S
O142 Cd143 2.300 1_554 S
O142 C149 1.275 . S
Cd143 O142 2.300 1_556 S
Cd143 O151 2.381 . S
Cd143 O152 2.378 . S
O144 Cd145 2.385 . S
O144 C149 1.255 1_656 S
Cd145 O144 2.385 . S
Cd145 O146 2.317 . S
O146 Cd145 2.317 . S
O146 C147 1.232 . S
C147 O146 1.232 . S
C147 O148 1.218 . S
O148 C147 1.218 . S
C149 O142 1.275 . S
C149 O144 1.255 1_454 S
C150 O151 1.258 . S
C150 O152 1.256 . S
O151 Cd143 2.381 . S
O151 C150 1.258 . S
O152 Cd143 2.378 . S
O152 C150 1.256 . S
O153 Cd154 2.300 . S
O153 C160 1.275 1_455 S
Cd154 O153 2.300 . S
Cd154 O162 2.381 . S
Cd154 O163 2.378 . S
O155 Cd156 2.385 . S
O155 C160 1.255 . S
Cd156 O155 2.385 . S
Cd156 O157 2.317 . S
O157 Cd156 2.317 . S
O157 C158 1.232 . S
C158 O157 1.232 . S
C158 O159 1.218 . S
O159 C158 1.218 . S
C160 O153 1.275 1_655 S
C160 O155 1.255 . S
C161 O162 1.258 . S
C161 O163 1.256 . S
O162 Cd154 2.381 . S
O162 C161 1.258 . S
O163 Cd154 2.378 . S
O163 C161 1.256 . S
O164 Cd165 2.300 . S
O164 C171 1.275 1_565 S
Cd165 O164 2.300 . S
Cd165 O173 2.381 . S
Cd165 O174 2.378 . S
O166 Cd167 2.385 . S
O166 C171 1.255 . S
Cd167 O166 2.385 . S
Cd167 O168 2.317 . S
O168 Cd167 2.317 . S
O168 C169 1.232 . S
C169 O168 1.232 . S
C169 O170 1.218 . S
O170 C169 1.218 . S
C171 O164 1.275 1_545 S
C171 O166 1.255 . S
C172 O173 1.258 . S
C172 O174 1.256 . S
O173 Cd165 2.381 . S
O173 C172 1.258 . S
O174 Cd165 2.378 . S
O174 C172 1.256 . S
O175 Cd176 2.300 1_556 S
O175 C182 1.275 . S
Cd176 O175 2.300 1_554 S
Cd176 O184 2.381 . S
Cd176 O185 2.378 . S
O177 Cd178 2.385 . S
O177 C182 1.255 1_554 S
Cd178 O177 2.385 . S
Cd178 O179 2.317 . S
O179 Cd178 2.317 . S
O179 C180 1.232 . S
C180 O179 1.232 . S
C180 O181 1.218 . S
O181 C180 1.218 . S
C182 O175 1.275 . S
C182 O177 1.255 1_556 S
C183 O184 1.258 . S
C183 O185 1.256 . S
O184 Cd176 2.381 . S
O184 C183 1.258 . S
O185 Cd176 2.378 . S
O185 C183 1.256 . S
C7 C180 3.632 . S
C51 C158 2.250 . S
C87 C172 2.284 . S
C16 C183 2.583 . S
C161 C42 2.623 . S
C169 C96 2.119 . S
C47 C136 1.862 . S
C91 C147 4.665 . S
C2 C125 2.343 . S
C139 C56 1.618 . S
C150 C82 4.607 . S
C11 C128 2.468 . S
C149 C19 1.895 . S
C50 C127 1.056 . S
C99 C138 1.362 . S
C171 C59 1.219 . S
C182 C90 1.118 . S
C10 C160 1.168 1_455 S
