# Generated by pormake.
# Topology nia, (6,6)-cn, num edge types: 1
# Building blocks:
#     Node 0, Type 0, BuildingBlock: MIFKUJ_clean_sbu_0, # of connection points: 6
#     Node 1, Type 0, BuildingBlock: MIFKUJ_clean_sbu_0, # of connection points: 6
#     Node 2, Type 1, BuildingBlock: MIDCAF_clean_sbu_0, # of connection points: 6
#     Node 3, Type 1, BuildingBlock: MIDCAF_clean_sbu_0, # of connection points: 6
#     Edge 4, Type (0, 1), BuildingBlock: EYOCIG_clean_linker_4, # of connection points: 2
#     Edge 5, Type (0, 1), BuildingBlock: EYOCIG_clean_linker_4, # of connection points: 2
#     Edge 6, Type (0, 1), BuildingBlock: EYOCIG_clean_linker_4, # of connection points: 2
#     Edge 7, Type (0, 1), BuildingBlock: EYOCIG_clean_linker_4, # of connection points: 2
#     Edge 8, Type (0, 1), BuildingBlock: EYOCIG_clean_linker_4, # of connection points: 2
#     Edge 9, Type (0, 1), BuildingBlock: EYOCIG_clean_linker_4, # of connection points: 2
#     Edge 10, Type (0, 1), BuildingBlock: EYOCIG_clean_linker_4, # of connection points: 2
#     Edge 11, Type (0, 1), BuildingBlock: EYOCIG_clean_linker_4, # of connection points: 2
#     Edge 12, Type (0, 1), BuildingBlock: EYOCIG_clean_linker_4, # of connection points: 2
#     Edge 13, Type (0, 1), BuildingBlock: EYOCIG_clean_linker_4, # of connection points: 2
#     Edge 14, Type (0, 1), BuildingBlock: EYOCIG_clean_linker_4, # of connection points: 2
#     Edge 15, Type (0, 1), BuildingBlock: EYOCIG_clean_linker_4, # of connection points: 2
# Relax obj value: 0.180
# Max RMSD: 0.253
# Mean RMSD: 0.187
data_MOF--net-nia--node1-MIFKUJ_clean_sbu_0--node2-MIDCAF_clean_sbu_0--edge1-EYOCIG_clean_linker_4
_symmetry_space_group_name_H-M    P1
_symmetry_Int_Tables_number       1
_symmetry_cell_setting            triclinic
loop_
_symmetry_equiv_pos_as_xyz
'x, y, z'
_cell_length_a     21.230164
_cell_length_b     21.23773
_cell_length_c     23.805251
_cell_angle_alpha  86.163492
_cell_angle_beta   86.091962
_cell_angle_gamma 127.39735
loop_
_atom_site_label
_atom_site_type_symbol
_atom_site_fract_x
_atom_site_fract_y
_atom_site_fract_z
_atom_type_partial_charge
Zn0 Zn -0.02655 0.87779 0.07764 0.0
Zn1 Zn -0.03312 0.04897 1.04004 0.0
C2 C 0.89043 0.73966 1.01852 0.0
O3 O 0.86657 0.70072 0.07013 0.0
C4 C 0.05476 0.18168 0.10087 0.0
O5 O 0.07886 0.21942 1.04881 0.0
O6 O 0.00074 0.82018 0.12934 0.0
O7 O 0.08011 -0.01713 1.04457 0.0
O8 O 0.06333 0.0669 1.00017 0.0
C9 C 0.04982 0.80834 0.11075 0.0
O10 O 0.08309 0.83315 0.05743 0.0
O11 O 0.93227 0.81533 1.01111 0.0
C12 C 0.88309 0.10688 1.00699 0.0
O13 O 0.85888 0.09088 0.06185 0.0
O14 O 0.93521 0.0998 0.9874 0.0
O15 O 0.8662 0.93573 0.0574 0.0
O16 O 0.88725 0.87557 0.12374 0.0
O17 O 0.00203 0.10604 0.10965 0.0
C18 C 0.10548 0.04459 1.01013 0.0
C19 C 0.84639 0.89631 0.10607 0.0
Zn20 Zn 0.05927 -0.03587 0.53791 0.0
Zn21 Zn 0.88791 -0.02979 0.57668 0.0
C22 C 0.19778 0.04475 0.59669 0.0
O23 O 0.23636 0.07114 0.54483 0.0
C24 C 0.7557 0.88251 0.5149 0.0
O25 O 0.71717 0.85771 0.56676 0.0
O26 O 0.11589 0.9368 0.48513 0.0
O27 O -0.04653 0.85737 0.56977 0.0
O28 O 0.86998 0.87343 0.61627 0.0
C29 C 0.12775 0.88759 0.5032 0.0
O30 O 0.10391 0.85464 0.55658 0.0
O31 O 0.12205 0.00265 0.60459 0.0
C32 C 0.83256 0.05608 0.60973 0.0
O33 O 0.84849 0.07982 0.55481 0.0
O34 O 0.83771 0.00263 0.62942 0.0
O35 O 0.00117 0.07096 0.55976 0.0
O36 O 0.06245 0.05168 0.49296 0.0
O37 O 0.83135 0.93552 0.50671 0.0
C38 C 0.89193 0.83136 0.60475 0.0
C39 C 0.04093 0.09172 0.51108 0.0
Zn40 Zn 0.32777 0.64397 0.18901 0.0
Zn41 Zn 0.29402 0.61135 0.42744 0.0
Zn42 Zn 0.31068 0.62582 0.30818 0.0
C43 C 0.45594 0.68726 0.37994 0.0
C44 C 0.19744 0.45741 0.39437 0.0
O45 O 0.24702 0.67267 0.27975 0.0
O46 O 0.25132 0.6686 0.18665 0.0
C47 C 0.48056 0.73896 0.22277 0.0
O48 O 0.43127 0.68696 0.33198 0.0
O49 O 0.40812 0.65466 0.42578 0.0
O50 O 0.20796 0.49322 0.43714 0.0
O51 O 0.23362 0.49692 0.34448 0.0
O52 O 0.4458 0.72969 0.17963 0.0
O53 O 0.43997 0.70231 0.27235 0.0
O54 O 0.24954 0.50543 0.2847 0.0
O55 O 0.28426 0.52985 0.19107 0.0
C56 C 0.25044 0.48148 0.23662 0.0
O57 O 0.26322 0.6892 0.33546 0.0
O58 O 0.26916 0.68783 0.4283 0.0
C59 C 0.22609 0.67963 0.23153 0.0
C60 C 0.25676 0.71126 0.38328 0.0
Zn61 Zn 0.62183 0.28023 0.92841 0.0
Zn62 Zn 0.6572 0.31367 0.68781 0.0
Zn63 Zn 0.63895 0.29823 0.80763 0.0
C64 C 0.7147 0.46213 0.72401 0.0
C65 C 0.49285 0.19793 0.7365 0.0
O66 O 0.68813 0.23855 0.83811 0.0
O67 O 0.65023 0.20667 0.93147 0.0
C68 C 0.73534 0.44465 0.87867 0.0
O69 O 0.70283 0.42572 0.7737 0.0
O70 O 0.69677 0.4261 0.68088 0.0
O71 O 0.54064 0.22535 0.69091 0.0
O72 O 0.51804 0.22251 0.78394 0.0
O73 O 0.709 0.39726 0.92434 0.0
O74 O 0.71132 0.41894 0.83126 0.0
O75 O 0.51097 0.23265 0.84099 0.0
O76 O 0.50913 0.23972 0.93376 0.0
C77 C 0.47377 0.22101 0.89031 0.0
O78 O 0.70207 0.25173 0.77818 0.0
O79 O 0.73217 0.28707 0.68461 0.0
C80 C 0.68345 0.20424 0.88656 0.0
C81 C 0.73652 0.25615 0.72983 0.0
C82 C 0.09717 0.74535 0.17877 0.0
C83 C 0.07407 0.77381 0.14903 0.0
C84 C 0.13419 0.71917 0.20903 0.0
C85 C 0.17448 0.70156 0.2263 0.0
C86 C 0.28446 0.07401 0.67969 0.0
C87 C 0.24115 0.05837 0.64398 0.0
C88 C 0.34612 0.10444 0.71399 0.0
C89 C 0.40914 0.14454 0.73222 0.0
C90 C 0.12754 0.27149 0.18083 0.0
C91 C 0.09155 0.22631 0.14688 0.0
C92 C 0.17036 0.33478 0.21356 0.0
C93 C 0.20432 0.39798 0.23164 0.0
C94 C 0.81279 0.13742 0.67763 0.0
C95 C 0.82163 0.09903 0.64784 0.0
C96 C 0.79564 0.18152 0.70736 0.0
C97 C 0.76851 0.21366 0.72436 0.0
C98 C 0.71202 0.84942 0.16688 0.0
C99 C 0.77351 0.87024 0.13977 0.0
C100 C 0.63569 0.81805 0.19533 0.0
C101 C 0.56578 0.78167 0.21335 0.0
C102 C 0.81514 0.68873 0.66438 0.0
C103 C 0.85027 0.75386 0.63712 0.0
C104 C 0.77886 0.61283 0.69535 0.0
C105 C 0.75043 0.54553 0.71506 0.0
C106 C 0.18904 0.83918 0.4345 0.0
C107 C 0.16138 0.86294 0.46438 0.0
C108 C 0.21519 0.80185 0.4046 0.0
C109 C 0.23356 0.7619 0.38791 0.0
C110 C 0.24704 0.12039 0.94905 0.0
C111 C 0.18229 0.08625 0.9767 0.0
C112 C 0.32276 0.15614 0.91796 0.0
C113 C 0.39022 0.18475 0.89851 0.0
C114 C 0.0864 0.22604 0.45118 0.0
C115 C 0.06622 0.16461 0.47789 0.0
C116 C 0.1174 0.30231 0.42291 0.0
C117 C 0.15411 0.37215 0.4046 0.0
C118 C 0.80512 0.13114 0.93886 0.0
C119 C 0.84199 0.12023 0.96873 0.0
C120 C 0.76132 0.14879 0.90932 0.0
C121 C 0.72792 0.17456 0.89255 0.0
C122 C 0.66687 0.81032 0.43435 0.0
C123 C 0.71187 0.84623 0.46843 0.0
C124 C 0.60328 0.76733 0.40185 0.0
C125 C 0.5397 0.7332 0.38425 0.0
C126 C 0.85743 0.65362 0.93468 0.0
C127 C 0.87477 0.69685 0.97068 0.0
C128 C 0.82642 0.59175 0.90056 0.0
C129 C 0.78718 0.52842 0.88273 0.0
loop_
_geom_bond_atom_site_label_1
_geom_bond_atom_site_label_2
_geom_bond_distance
_geom_bond_site_symmetry_2
_ccdc_geom_bond_type
Zn0 O6 1.969 . S
Zn0 O7 1.965 1_565 S
Zn0 O11 2.024 1_454 S
Zn0 O16 1.969 1_455 S
Zn1 O8 1.969 . S
Zn1 O14 1.969 . S
Zn1 O15 1.965 1_446 S
Zn1 O17 2.024 1_556 S
C2 O3 1.220 1_556 S
C2 O11 1.058 . S
O3 C2 1.220 1_554 S
C4 O5 1.229 . S
C4 O17 1.058 . S
O5 C4 1.229 . S
O6 Zn0 1.969 . S
O6 C9 1.267 . S
O7 Zn0 1.965 1_545 S
O7 C18 1.260 1_554 S
O8 Zn1 1.969 . S
O8 C18 1.258 . S
C9 O6 1.267 . S
C9 O10 1.228 . S
O10 C9 1.228 . S
O11 Zn0 2.024 1_656 S
O11 C2 1.058 . S
C12 O13 1.228 . S
C12 O14 1.267 1_655 S
O13 C12 1.228 . S
O14 Zn1 1.969 . S
O14 C12 1.267 1_455 S
O15 Zn1 1.965 1_664 S
O15 C19 1.260 . S
O16 Zn0 1.969 1_655 S
O16 C19 1.258 . S
O17 Zn1 2.024 1_554 S
O17 C4 1.058 . S
C18 O7 1.260 1_556 S
C18 O8 1.258 . S
C19 O15 1.260 . S
C19 O16 1.258 . S
Zn20 O26 1.969 1_545 S
Zn20 O27 1.965 1_545 S
Zn20 O31 2.024 . S
Zn20 O36 1.969 . S
Zn21 O28 1.969 . S
Zn21 O34 1.969 1_565 S
Zn21 O35 1.965 1_665 S
Zn21 O37 2.024 . S
C22 O23 1.229 . S
C22 O31 1.058 . S
O23 C22 1.229 . S
C24 O25 1.229 . S
C24 O37 1.058 . S
O25 C24 1.229 . S
O26 Zn20 1.969 1_565 S
O26 C29 1.267 . S
O27 Zn20 1.965 1_565 S
O27 C38 1.260 1_455 S
O28 Zn21 1.969 . S
O28 C38 1.258 . S
C29 O26 1.267 . S
C29 O30 1.228 . S
O30 C29 1.228 . S
O31 Zn20 2.024 . S
O31 C22 1.058 . S
C32 O33 1.228 . S
C32 O34 1.267 . S
O33 C32 1.228 . S
O34 Zn21 1.969 1_545 S
O34 C32 1.267 . S
O35 Zn21 1.965 1_445 S
O35 C39 1.260 . S
O36 Zn20 1.969 . S
O36 C39 1.258 . S
O37 Zn21 2.024 . S
O37 C24 1.058 . S
C38 O27 1.260 1_655 S
C38 O28 1.258 . S
C39 O35 1.260 . S
C39 O36 1.258 . S
Zn40 O46 1.920 . S
Zn40 O52 1.898 . S
Zn40 O55 1.905 . S
Zn41 O49 1.905 . S
Zn41 O50 1.898 . S
Zn41 O58 1.920 . S
Zn42 O45 2.080 . S
Zn42 O48 2.114 . S
Zn42 O51 2.120 . S
Zn42 O53 2.120 . S
Zn42 O54 2.114 . S
Zn42 O57 2.080 . S
C43 O48 1.166 . S
C43 O49 1.182 . S
C44 O50 1.167 . S
C44 O51 1.299 . S
O45 Zn42 2.080 . S
O45 C59 1.305 . S
O46 Zn40 1.920 . S
O46 C59 1.234 . S
C47 O52 1.167 . S
C47 O53 1.299 . S
O48 Zn42 2.114 . S
O48 C43 1.166 . S
O49 Zn41 1.905 . S
O49 C43 1.182 . S
O50 Zn41 1.898 . S
O50 C44 1.167 . S
O51 Zn42 2.120 . S
O51 C44 1.299 . S
O52 Zn40 1.898 . S
O52 C47 1.167 . S
O53 Zn42 2.120 . S
O53 C47 1.299 . S
O54 Zn42 2.114 . S
O54 C56 1.166 . S
O55 Zn40 1.905 . S
O55 C56 1.182 . S
C56 O54 1.166 . S
C56 O55 1.182 . S
O57 Zn42 2.080 . S
O57 C60 1.305 . S
O58 Zn41 1.920 . S
O58 C60 1.234 . S
C59 O45 1.305 . S
C59 O46 1.234 . S
C60 O57 1.305 . S
C60 O58 1.234 . S
Zn61 O67 1.920 . S
Zn61 O73 1.898 . S
Zn61 O76 1.905 . S
Zn62 O70 1.905 . S
Zn62 O71 1.898 . S
Zn62 O79 1.920 . S
Zn63 O66 2.080 . S
Zn63 O69 2.114 . S
Zn63 O72 2.120 . S
Zn63 O74 2.120 . S
Zn63 O75 2.114 . S
Zn63 O78 2.080 . S
C64 O69 1.166 . S
C64 O70 1.182 . S
C65 O71 1.167 . S
C65 O72 1.299 . S
O66 Zn63 2.080 . S
O66 C80 1.305 . S
O67 Zn61 1.920 . S
O67 C80 1.234 . S
C68 O73 1.167 . S
C68 O74 1.299 . S
O69 Zn63 2.114 . S
O69 C64 1.166 . S
O70 Zn62 1.905 . S
O70 C64 1.182 . S
O71 Zn62 1.898 . S
O71 C65 1.167 . S
O72 Zn63 2.120 . S
O72 C65 1.299 . S
O73 Zn61 1.898 . S
O73 C68 1.167 . S
O74 Zn63 2.120 . S
O74 C68 1.299 . S
O75 Zn63 2.114 . S
O75 C77 1.166 . S
O76 Zn61 1.905 . S
O76 C77 1.182 . S
C77 O75 1.166 . S
C77 O76 1.182 . S
O78 Zn63 2.080 . S
O78 C81 1.305 . S
O79 Zn62 1.920 . S
O79 C81 1.234 . S
C80 O66 1.305 . S
C80 O67 1.234 . S
C81 O78 1.305 . S
C81 O79 1.234 . S
C82 C83 1.170 . S
C82 C84 1.380 . S
C83 C82 1.170 . S
C84 C82 1.380 . S
C84 C85 1.170 . S
C85 C84 1.170 . S
C86 C87 1.170 . S
C86 C88 1.380 . S
C87 C86 1.170 . S
C88 C86 1.380 . S
C88 C89 1.170 . S
C89 C88 1.170 . S
C90 C91 1.170 . S
C90 C92 1.380 . S
C91 C90 1.170 . S
C92 C90 1.380 . S
C92 C93 1.170 . S
C93 C92 1.170 . S
C94 C95 1.170 . S
C94 C96 1.380 . S
C95 C94 1.170 . S
C96 C94 1.380 . S
C96 C97 1.170 . S
C97 C96 1.170 . S
C98 C99 1.170 . S
C98 C100 1.380 . S
C99 C98 1.170 . S
C100 C98 1.380 . S
C100 C101 1.170 . S
C101 C100 1.170 . S
C102 C103 1.170 . S
C102 C104 1.380 . S
C103 C102 1.170 . S
C104 C102 1.380 . S
C104 C105 1.170 . S
C105 C104 1.170 . S
C106 C107 1.170 . S
C106 C108 1.380 . S
C107 C106 1.170 . S
C108 C106 1.380 . S
C108 C109 1.170 . S
C109 C108 1.170 . S
C110 C111 1.170 . S
C110 C112 1.380 . S
C111 C110 1.170 . S
C112 C110 1.380 . S
C112 C113 1.170 . S
C113 C112 1.170 . S
C114 C115 1.170 . S
C114 C116 1.380 . S
C115 C114 1.170 . S
C116 C114 1.380 . S
C116 C117 1.170 . S
C117 C116 1.170 . S
C118 C119 1.170 . S
C118 C120 1.380 . S
C119 C118 1.170 . S
C120 C118 1.380 . S
C120 C121 1.170 . S
C121 C120 1.170 . S
C122 C123 1.170 . S
C122 C124 1.380 . S
C123 C122 1.170 . S
C124 C122 1.380 . S
C124 C125 1.170 . S
C125 C124 1.170 . S
C126 C127 1.170 . S
C126 C128 1.380 . S
C127 C126 1.170 . S
C128 C126 1.380 . S
C128 C129 1.170 . S
C129 C128 1.170 . S
C83 C9 1.429 . S
C85 C59 1.308 . S
C87 C22 1.242 . S
C89 C65 1.144 . S
C91 C4 1.364 . S
C93 C56 1.204 . S
C95 C32 1.578 . S
C97 C81 1.467 . S
C99 C19 1.852 . S
C101 C47 1.696 . S
C105 C64 1.635 . S
C103 C38 1.735 . S
C107 C29 1.448 . S
C109 C60 1.336 . S
C113 C77 1.672 . S
C111 C18 1.740 . S
C117 C44 1.699 . S
C115 C39 1.845 . S
C121 C80 1.414 . S
C119 C12 1.593 . S
C125 C43 1.227 . S
C123 C24 1.375 . S
C129 C68 1.135 . S
C127 C2 1.280 . S
