# Generated by pormake.
# Topology scu, (8,4)-cn, num edge types: 1
# Building blocks:
#     Node 0, Type 0, BuildingBlock: VETTIZ_charged_sbu_0, # of connection points: 8
#     Node 1, Type 1, BuildingBlock: NAWXER_clean_sbu_0, # of connection points: 4
#     Node 2, Type 1, BuildingBlock: NAWXER_clean_sbu_0, # of connection points: 4
#     Edge 3, Type (0, 1), BuildingBlock: OJICUG_clean_linker_0, # of connection points: 2
#     Edge 4, Type (0, 1), BuildingBlock: OJICUG_clean_linker_0, # of connection points: 2
#     Edge 5, Type (0, 1), BuildingBlock: OJICUG_clean_linker_0, # of connection points: 2
#     Edge 6, Type (0, 1), BuildingBlock: OJICUG_clean_linker_0, # of connection points: 2
#     Edge 7, Type (0, 1), BuildingBlock: OJICUG_clean_linker_0, # of connection points: 2
#     Edge 8, Type (0, 1), BuildingBlock: OJICUG_clean_linker_0, # of connection points: 2
#     Edge 9, Type (0, 1), BuildingBlock: OJICUG_clean_linker_0, # of connection points: 2
#     Edge 10, Type (0, 1), BuildingBlock: OJICUG_clean_linker_0, # of connection points: 2
# Relax obj value: 0.013
# Max RMSD: 0.059
# Mean RMSD: 0.052
data_MOF--net-scu--node1-VETTIZ_charged_sbu_0--node2-NAWXER_clean_sbu_0--edge1-OJICUG_clean_linker_0
_symmetry_space_group_name_H-M    P1
_symmetry_Int_Tables_number       1
_symmetry_cell_setting            triclinic
loop_
_symmetry_equiv_pos_as_xyz
'x, y, z'
_cell_length_a     18.900003
_cell_length_b     18.895678
_cell_length_c     13.520392
_cell_angle_alpha  92.247251
_cell_angle_beta   92.308175
_cell_angle_gamma 92.263241
loop_
_atom_site_label
_atom_site_type_symbol
_atom_site_fract_x
_atom_site_fract_y
_atom_site_fract_z
_atom_type_partial_charge
Fe0 Fe 0.97321 0.97318 0.26009 0.0
O1 O 0.97428 0.97994 0.11609 0.0
Fe2 Fe 0.06841 0.95416 1.04605 0.0
Fe3 Fe 0.95396 0.06884 1.04636 0.0
O4 O 0.97969 0.97449 0.11605 0.0
O5 O 0.04528 0.04082 0.97322 0.0
O6 O 0.04044 0.04572 0.97326 0.0
Fe7 Fe 0.04258 0.04319 0.82742 0.0
C8 C 0.83479 0.03608 0.19111 0.0
O9 O 0.97296 0.0815 0.28675 0.0
O10 O 0.0127 0.13037 0.15153 0.0
O11 O 0.14927 0.03879 0.85309 0.0
O12 O 0.16098 0.94834 0.96205 0.0
O13 O 0.13013 0.01272 0.15118 0.0
O14 O 0.08155 0.97272 0.28645 0.0
O15 O 0.94809 0.16157 0.96257 0.0
O16 O 0.03823 0.14987 0.85327 0.0
C17 C 0.13552 0.99394 0.24062 0.0
O18 O 0.03885 0.93424 0.80303 0.0
O19 O 0.00798 0.89063 0.94578 0.0
O20 O 0.86546 0.98285 0.23086 0.0
O21 O 0.86414 0.07996 0.13149 0.0
C22 C 0.99406 0.13559 0.24102 0.0
C23 C 0.99488 0.18712 0.90313 0.0
C24 C 0.88569 0.00947 0.85236 0.0
O25 O 0.89024 0.00863 0.94615 0.0
O26 O 0.93363 0.03943 0.80323 0.0
C27 C 0.18651 0.99523 0.9027 0.0
O28 O 0.07956 0.86416 0.13095 0.0
O29 O 0.98265 0.86545 0.23052 0.0
C30 C 0.00887 0.8862 0.852 0.0
C31 C 0.03572 0.83474 0.19053 0.0
C32 C 0.93232 0.62586 0.64208 0.0
C33 C 0.94949 0.40756 0.4319 0.0
O34 O 0.9942 0.60228 0.63361 0.0
Zn35 Zn 0.04725 0.51934 0.56484 0.0
O36 O 0.87869 0.5927 0.59936 0.0
Zn37 Zn 0.93106 0.51493 0.53818 0.0
O38 O 0.96546 0.46001 0.66115 0.0
O39 O 0.08193 0.46771 0.67938 0.0
O40 O 0.8911 0.43516 0.45297 0.0
O41 O 0.00801 0.43488 0.46891 0.0
O42 O 0.10481 0.57451 0.47379 0.0
O43 O 0.98975 0.57186 0.43716 0.0
C44 C 0.02219 0.44456 0.70842 0.0
C45 C 0.05284 0.592 0.41782 0.0
C46 C 0.62546 0.93253 0.64261 0.0
C47 C 0.40765 0.94982 0.43142 0.0
O48 O 0.59244 0.87894 0.59961 0.0
Zn49 Zn 0.51479 0.93138 0.53817 0.0
O50 O 0.60186 0.99443 0.63412 0.0
Zn51 Zn 0.51912 0.04755 0.56492 0.0
O52 O 0.46724 0.08211 0.67916 0.0
O53 O 0.45956 0.96562 0.66086 0.0
O54 O 0.43487 0.00835 0.46856 0.0
O55 O 0.43525 0.89143 0.4526 0.0
O56 O 0.57191 0.9902 0.43746 0.0
O57 O 0.57452 0.10524 0.47425 0.0
C58 C 0.44399 0.02233 0.70803 0.0
C59 C 0.5921 0.05334 0.4183 0.0
C60 C 0.93199 0.21305 0.36153 0.0
C61 C 0.9817 0.20654 0.28688 0.0
H62 H 0.88003 0.28249 0.46225 0.0
C63 C 0.01538 0.26834 0.254 0.0
H64 H 0.9045 0.16666 0.38827 0.0
C65 C 1.00193 0.33462 0.298 0.0
C66 C 0.95254 0.34064 0.37278 0.0
H67 H 0.05336 0.26528 0.19623 0.0
H68 H 0.03117 0.38122 0.275 0.0
C69 C 0.91683 0.27944 0.40296 0.0
C70 C 0.75217 0.11357 0.28032 0.0
C71 C 0.76384 0.05076 0.22508 0.0
H72 H 0.68738 0.16439 0.38701 0.0
C73 C 0.71136 0.99647 0.21837 0.0
H74 H 0.79218 0.15627 0.28577 0.0
C75 C 0.65088 1.00197 0.27305 0.0
C76 C 0.64289 0.0608 0.33848 0.0
H77 H 0.71917 0.9479 0.17557 0.0
H78 H 0.61317 0.95715 0.27016 0.0
C79 C 0.69213 0.1184 0.33771 0.0
C80 C 0.9957 0.71146 0.21804 0.0
C81 C 0.05027 0.76365 0.22421 0.0
H82 H 0.9561 0.61351 0.27035 0.0
C83 C 0.11328 0.75159 0.27884 0.0
H84 H 0.94697 0.71956 0.17569 0.0
C85 C 0.11805 0.69154 0.33633 0.0
C86 C 0.06019 0.64267 0.33777 0.0
H87 H 0.15622 0.79134 0.28379 0.0
H88 H 0.16425 0.68653 0.38521 0.0
C89 C 1.00113 0.65095 0.27277 0.0
C90 C 0.26807 0.01621 0.25422 0.0
C91 C 0.20653 0.98163 0.28629 0.0
H92 H 0.3808 0.03286 0.27594 0.0
C93 C 0.21336 0.93121 0.36002 0.0
H94 H 0.26474 0.05477 0.19718 0.0
C95 C 0.27983 0.91623 0.40139 0.0
C96 C 0.34076 0.95286 0.37214 0.0
H97 H 0.16714 0.90306 0.3861 0.0
H98 H 0.28313 0.87884 0.45999 0.0
C99 C 0.33442 1.00294 0.29822 0.0
C100 C 0.95897 0.76066 0.85063 0.0
C101 C 0.97663 0.82167 0.79875 0.0
H102 H 0.92865 0.64982 0.84035 0.0
C103 C 0.96482 0.81961 0.69521 0.0
H104 H 0.96688 0.76036 0.93042 0.0
C105 C 0.94094 0.75664 0.64425 0.0
C106 C 0.92817 0.69463 0.69569 0.0
H107 H 0.97676 0.86584 0.65302 0.0
H108 H 0.93777 0.75502 0.56397 0.0
C109 C 0.93578 0.69758 0.79941 0.0
C110 C 0.30048 0.94091 0.85941 0.0
C111 C 0.26293 1.00086 0.88441 0.0
H112 H 0.38907 0.90102 0.78483 0.0
C113 C 0.29399 0.06862 0.87028 0.0
H114 H 0.27778 0.88826 0.8694 0.0
C115 C 0.3571 0.07634 0.82081 0.0
C116 C 0.39041 0.01629 0.78477 0.0
H117 H 0.26626 0.1159 0.89027 0.0
H118 H 0.37637 0.12906 0.80389 0.0
C119 C 0.36393 0.94859 0.81007 0.0
C120 C 0.06845 0.29449 0.87081 0.0
C121 C 1.00065 0.26358 0.88507 0.0
H122 H 0.12893 0.37675 0.80419 0.0
C123 C 0.94078 0.30134 0.8603 0.0
H124 H 0.11567 0.2666 0.89064 0.0
C125 C 0.94852 0.36481 0.81095 0.0
C126 C 0.0162 0.39111 0.78541 0.0
H127 H 0.88811 0.27876 0.87043 0.0
H128 H 0.90098 0.39012 0.78585 0.0
C129 C 0.07622 0.35763 0.82131 0.0
C130 C 0.76005 0.96007 0.85126 0.0
C131 C 0.82115 0.97712 0.79932 0.0
H132 H 0.64916 0.93013 0.84101 0.0
C133 C 0.81919 0.96452 0.69594 0.0
H134 H 0.75969 0.96859 0.93094 0.0
C135 C 0.75622 0.94047 0.64509 0.0
C136 C 0.69412 0.92836 0.69651 0.0
H137 H 0.86551 0.97596 0.65376 0.0
H138 H 0.75467 0.93669 0.56483 0.0
C139 C 0.69698 0.93674 0.80015 0.0
loop_
_geom_bond_atom_site_label_1
_geom_bond_atom_site_label_2
_geom_bond_distance
_geom_bond_site_symmetry_2
_ccdc_geom_bond_type
Fe0 O1 1.886 . S
Fe0 O4 1.715 1_645 S
Fe0 O9 2.077 1_655 S
Fe0 O14 1.935 1_655 S
Fe0 O20 2.077 1_545 S
Fe0 O29 1.935 1_545 S
O1 Fe0 1.886 . S
O1 Fe3 1.715 1_554 S
Fe2 O4 1.886 . S
Fe2 O5 1.715 1_554 S
Fe2 O12 1.935 1_554 S
Fe2 O13 2.077 . S
Fe2 O19 1.935 1_554 S
Fe2 O28 2.077 . S
Fe3 O1 1.715 1_556 S
Fe3 O6 1.886 . S
Fe3 O10 1.935 1_556 S
Fe3 O15 2.077 . S
Fe3 O21 1.935 1_556 S
Fe3 O25 2.077 . S
O4 Fe0 1.715 1_465 S
O4 Fe2 1.886 . S
O5 Fe2 1.715 1_556 S
O5 Fe7 1.886 . S
O6 Fe3 1.886 . S
O6 Fe7 1.715 1_645 S
Fe7 O5 1.886 . S
Fe7 O6 1.715 1_465 S
Fe7 O11 2.077 1_565 S
Fe7 O16 1.935 1_565 S
Fe7 O18 2.077 1_455 S
Fe7 O26 1.935 1_455 S
C8 O20 1.381 1_545 S
C8 O21 1.421 . S
O9 Fe0 2.077 1_455 S
O9 C22 1.381 1_455 S
O10 Fe3 1.935 1_554 S
O10 C22 1.421 . S
O11 Fe7 2.077 1_545 S
O11 C27 1.381 1_545 S
O12 Fe2 1.935 1_556 S
O12 C27 1.421 . S
O13 Fe2 2.077 . S
O13 C17 1.381 . S
O14 Fe0 1.935 1_455 S
O14 C17 1.421 1_545 S
O15 Fe3 2.077 . S
O15 C23 1.381 . S
O16 Fe7 1.935 1_545 S
O16 C23 1.421 1_455 S
C17 O13 1.381 . S
C17 O14 1.421 1_565 S
O18 Fe7 2.077 1_655 S
O18 C30 1.381 1_655 S
O19 Fe2 1.935 1_556 S
O19 C30 1.421 . S
O20 Fe0 2.077 1_565 S
O20 C8 1.381 1_565 S
O21 Fe3 1.935 1_554 S
O21 C8 1.421 . S
C22 O9 1.381 1_655 S
C22 O10 1.421 . S
C23 O15 1.381 . S
C23 O16 1.421 1_655 S
C24 O25 1.381 . S
C24 O26 1.421 1_545 S
O25 Fe3 2.077 . S
O25 C24 1.381 . S
O26 Fe7 1.935 1_655 S
O26 C24 1.421 1_565 S
C27 O11 1.381 1_565 S
C27 O12 1.421 . S
O28 Fe2 2.077 . S
O28 C31 1.381 . S
O29 Fe0 1.935 1_565 S
O29 C31 1.421 1_655 S
C30 O18 1.381 1_455 S
C30 O19 1.421 . S
C31 O28 1.381 . S
C31 O29 1.421 1_455 S
C32 O34 1.251 . S
C32 O36 1.253 1_455 S
C33 O40 1.247 . S
C33 O41 1.258 1_655 S
O34 C32 1.251 . S
O34 Zn35 2.028 . S
Zn35 O34 2.028 . S
Zn35 O39 2.035 . S
Zn35 O41 2.035 . S
Zn35 O42 2.028 . S
O36 C32 1.253 1_655 S
O36 Zn37 2.035 . S
Zn37 O36 2.035 . S
Zn37 O38 2.028 . S
Zn37 O40 2.028 . S
Zn37 O43 2.035 . S
O38 Zn37 2.028 . S
O38 C44 1.247 . S
O39 Zn35 2.035 . S
O39 C44 1.258 1_455 S
O40 C33 1.247 . S
O40 Zn37 2.028 . S
O41 C33 1.258 1_455 S
O41 Zn35 2.035 . S
O42 Zn35 2.028 . S
O42 C45 1.251 . S
O43 Zn37 2.035 . S
O43 C45 1.253 1_655 S
C44 O38 1.247 . S
C44 O39 1.258 1_655 S
C45 O42 1.251 . S
C45 O43 1.253 1_455 S
C46 O48 1.247 . S
C46 O50 1.258 1_565 S
C47 O54 1.251 . S
C47 O55 1.253 1_545 S
O48 C46 1.247 . S
O48 Zn49 2.028 . S
Zn49 O48 2.028 . S
Zn49 O53 2.035 . S
Zn49 O55 2.035 . S
Zn49 O56 2.028 . S
O50 C46 1.258 1_545 S
O50 Zn51 2.035 . S
Zn51 O50 2.035 . S
Zn51 O52 2.028 . S
Zn51 O54 2.028 . S
Zn51 O57 2.035 . S
O52 Zn51 2.028 . S
O52 C58 1.251 . S
O53 Zn49 2.035 . S
O53 C58 1.253 1_565 S
O54 C47 1.251 . S
O54 Zn51 2.028 . S
O55 C47 1.253 1_565 S
O55 Zn49 2.035 . S
O56 Zn49 2.028 . S
O56 C59 1.247 . S
O57 Zn51 2.035 . S
O57 C59 1.258 1_545 S
C58 O52 1.251 . S
C58 O53 1.253 1_545 S
C59 O56 1.247 . S
C59 O57 1.258 1_565 S
C60 C61 1.390 . S
C60 H64 0.950 . S
C60 C69 1.390 . S
C61 C60 1.390 . S
C61 C63 1.385 1_455 S
H62 C69 0.950 . S
C63 C61 1.385 1_655 S
C63 C65 1.390 . S
C63 H67 0.950 . S
H64 C60 0.950 . S
C65 C63 1.390 . S
C65 C66 1.386 1_655 S
C65 H68 0.950 . S
C66 C65 1.386 1_455 S
C66 C69 1.389 . S
H67 C63 0.950 . S
H68 C65 0.950 . S
C69 C60 1.390 . S
C69 H62 0.950 . S
C69 C66 1.389 . S
C70 C71 1.387 . S
C70 H74 0.950 . S
C70 C79 1.390 . S
C71 C70 1.387 . S
C71 C73 1.388 1_545 S
H72 C79 0.950 . S
C73 C71 1.388 1_565 S
C73 C75 1.390 . S
C73 H77 0.950 . S
H74 C70 0.950 . S
C75 C73 1.390 . S
C75 C76 1.389 1_565 S
C75 H78 0.950 . S
C76 C75 1.389 1_545 S
C76 C79 1.386 . S
H77 C73 0.950 . S
H78 C75 0.950 . S
C79 C70 1.390 . S
C79 H72 0.950 . S
C79 C76 1.386 . S
C80 C81 1.388 1_655 S
C80 H84 0.950 . S
C80 C89 1.390 . S
C81 C80 1.388 1_455 S
C81 C83 1.387 . S
H82 C89 0.950 . S
C83 C81 1.387 . S
C83 C85 1.390 . S
C83 H87 0.950 . S
H84 C80 0.950 . S
C85 C83 1.390 . S
C85 C86 1.387 . S
C85 H88 0.950 . S
C86 C85 1.387 . S
C86 C89 1.388 1_455 S
H87 C83 0.950 . S
H88 C85 0.950 . S
C89 C80 1.390 . S
C89 H82 0.950 . S
C89 C86 1.388 1_655 S
C90 C91 1.390 . S
C90 H94 0.950 . S
C90 C99 1.390 . S
C91 C90 1.390 . S
C91 C93 1.385 1_545 S
H92 C99 0.950 . S
C93 C91 1.385 1_565 S
C93 C95 1.390 . S
C93 H97 0.950 . S
H94 C90 0.950 . S
C95 C93 1.390 . S
C95 C96 1.387 1_565 S
C95 H98 0.950 . S
C96 C95 1.387 1_545 S
C96 C99 1.388 . S
H97 C93 0.950 . S
H98 C95 0.950 . S
C99 C90 1.390 . S
C99 H92 0.950 . S
C99 C96 1.388 . S
C100 C101 1.389 1_655 S
C100 H104 0.950 . S
C100 C109 1.390 . S
C101 C100 1.389 1_455 S
C101 C103 1.386 . S
H102 C109 0.950 . S
C103 C101 1.386 . S
C103 C105 1.390 . S
C103 H107 0.950 . S
H104 C100 0.950 . S
C105 C103 1.390 . S
C105 C106 1.387 . S
C105 H108 0.950 . S
C106 C105 1.387 . S
C106 C109 1.388 1_455 S
H107 C103 0.950 . S
H108 C105 0.950 . S
C109 C100 1.390 . S
C109 H102 0.950 . S
C109 C106 1.388 1_655 S
C110 C111 1.385 1_565 S
C110 H114 0.950 . S
C110 C119 1.390 . S
C111 C110 1.385 1_545 S
C111 C113 1.390 . S
H112 C119 0.950 . S
C113 C111 1.390 . S
C113 C115 1.390 . S
C113 H117 0.950 . S
H114 C110 0.950 . S
C115 C113 1.390 . S
C115 C116 1.388 . S
C115 H118 0.950 . S
C116 C115 1.388 . S
C116 C119 1.387 1_545 S
H117 C113 0.950 . S
H118 C115 0.950 . S
C119 C110 1.390 . S
C119 H112 0.950 . S
C119 C116 1.387 1_565 S
C120 C121 1.390 . S
C120 H124 0.950 . S
C120 C129 1.390 . S
C121 C120 1.390 . S
C121 C123 1.385 1_455 S
H122 C129 0.950 . S
C123 C121 1.385 1_655 S
C123 C125 1.390 . S
C123 H127 0.950 . S
H124 C120 0.950 . S
C125 C123 1.390 . S
C125 C126 1.387 1_655 S
C125 H128 0.950 . S
C126 C125 1.387 1_455 S
C126 C129 1.388 . S
H127 C123 0.950 . S
H128 C125 0.950 . S
C129 C120 1.390 . S
C129 H122 0.950 . S
C129 C126 1.388 . S
C130 C131 1.389 1_545 S
C130 H134 0.950 . S
C130 C139 1.390 . S
C131 C130 1.389 1_565 S
C131 C133 1.386 . S
H132 C139 0.950 . S
C133 C131 1.386 . S
C133 C135 1.390 . S
C133 H137 0.950 . S
H134 C130 0.950 . S
C135 C133 1.390 . S
C135 C136 1.387 1_565 S
C135 H138 0.950 . S
C136 C135 1.387 1_545 S
C136 C139 1.388 . S
H137 C133 0.950 . S
H138 C135 0.950 . S
C139 C130 1.390 . S
C139 H132 0.950 . S
C139 C136 1.388 . S
C61 C22 1.418 1_455 S
C66 C33 1.469 1_455 S
C71 C8 1.418 . S
C76 C59 1.469 1_545 S
C81 C31 1.415 . S
C86 C45 1.469 . S
C91 C17 1.418 1_545 S
C96 C47 1.470 . S
C101 C30 1.419 . S
C106 C32 1.471 . S
C111 C27 1.419 1_545 S
C116 C58 1.471 . S
C126 C44 1.470 1_455 S
C121 C23 1.418 1_455 S
C131 C24 1.418 1_565 S
C136 C46 1.471 1_545 S
