# Generated by pormake.
# Topology bcu-b, (8,8)-cn, num edge types: 1
# Building blocks:
#     Node 0, Type 0, BuildingBlock: TAGTUT_clean_sbu_3, # of connection points: 8
#     Node 1, Type 1, BuildingBlock: TAGTUT_clean_sbu_1, # of connection points: 8
#     Edge 2, Type (0, 1), BuildingBlock: XIVTED_clean_linker_0, # of connection points: 2
#     Edge 3, Type (0, 1), BuildingBlock: XIVTED_clean_linker_0, # of connection points: 2
#     Edge 4, Type (0, 1), BuildingBlock: XIVTED_clean_linker_0, # of connection points: 2
#     Edge 5, Type (0, 1), BuildingBlock: XIVTED_clean_linker_0, # of connection points: 2
#     Edge 6, Type (0, 1), BuildingBlock: XIVTED_clean_linker_0, # of connection points: 2
#     Edge 7, Type (0, 1), BuildingBlock: XIVTED_clean_linker_0, # of connection points: 2
#     Edge 8, Type (0, 1), BuildingBlock: XIVTED_clean_linker_0, # of connection points: 2
#     Edge 9, Type (0, 1), BuildingBlock: XIVTED_clean_linker_0, # of connection points: 2
# Relax obj value: 0.017
# Max RMSD: 0.085
# Mean RMSD: 0.074
data_MOF--net-bcu-b--node1-TAGTUT_clean_sbu_3--node2-TAGTUT_clean_sbu_1--edge1-XIVTED_clean_linker_0
_symmetry_space_group_name_H-M    P1
_symmetry_Int_Tables_number       1
_symmetry_cell_setting            triclinic
loop_
_symmetry_equiv_pos_as_xyz
'x, y, z'
_cell_length_a     19.77786
_cell_length_b     18.983955
_cell_length_c     21.243723
_cell_angle_alpha  91.343309
_cell_angle_beta   90.773081
_cell_angle_gamma 108.4224
loop_
_atom_site_label
_atom_site_type_symbol
_atom_site_fract_x
_atom_site_fract_y
_atom_site_fract_z
_atom_type_partial_charge
C0 C 0.10977 0.12029 0.0948 0.0
C1 C 0.22011 0.89531 0.04901 0.0
C2 C 0.14234 0.91261 0.86302 0.0
Mg3 Mg 0.97484 0.14744 0.02153 0.0
Mg4 Mg 0.84556 -0.00059 0.97136 0.0
O5 O 0.9422 0.05727 0.96391 0.0
Mg6 Mg 0.01243 0.00688 -0.0099 0.0
O7 O 0.08565 0.96118 0.01773 0.0
Mg8 Mg 0.17413 0.0364 -0.01391 0.0
Mg9 Mg 0.06927 0.86423 -0.01452 0.0
C10 C 0.90709 0.891 0.88975 0.0
O11 O 0.93098 0.91752 0.04533 0.0
O12 O 0.89106 0.18802 0.96461 0.0
O13 O 0.96222 0.81594 0.02046 0.0
O14 O 0.89137 0.10132 0.0949 0.0
O15 O 0.80574 0.08215 0.93276 0.0
O16 O 0.81189 0.99226 0.06866 0.0
O17 O 0.09837 0.09091 0.93663 0.0
O18 O 0.06411 0.19136 0.95099 0.0
C19 C 0.10746 0.15985 0.92833 0.0
C20 C 0.83125 0.15327 0.93603 0.0
O21 O 0.97158 0.92715 0.90644 0.0
O22 O 0.23637 0.96552 0.03866 0.0
O23 O 0.85257 0.90438 0.91347 0.0
O24 O 0.17826 0.97092 0.89438 0.0
O25 O 0.15971 0.84866 0.03216 0.0
O26 O 0.08871 0.8649 0.88648 0.0
O27 O 0.04763 0.0895 0.07071 0.0
O28 O 0.16474 0.10533 0.07451 0.0
C29 C 0.8382 0.04582 0.10834 0.0
C30 C 0.91962 0.84697 0.04555 0.0
C31 C 0.38988 0.70507 0.54534 0.0
C32 C 0.44993 0.66132 0.36031 0.0
C33 C 0.37044 0.37245 0.43896 0.0
Mg34 Mg 0.52722 0.6846 0.49046 0.0
O35 O 0.47892 0.58486 0.50729 0.0
Mg36 Mg 0.37866 0.53998 0.47534 0.0
Mg37 Mg 0.51522 0.5012 0.48291 0.0
O38 O 0.55032 0.4165 0.45987 0.0
Mg39 Mg 0.50111 0.32331 0.4928 0.0
Mg40 Mg 0.65276 0.46184 0.48603 0.0
C41 C 0.65874 0.63115 0.53641 0.0
C42 C 0.62071 0.54874 0.36518 0.0
O43 O 0.35567 0.64052 0.52183 0.0
O44 O 0.458 0.7327 0.54272 0.0
O45 O 0.40235 0.60495 0.38226 0.0
O46 O 0.50509 0.69822 0.39286 0.0
O47 O 0.63313 0.6843 0.52493 0.0
O48 O 0.62193 0.56251 0.52754 0.0
C49 C 0.40458 0.4494 0.59659 0.0
O50 O 0.46452 0.44873 0.5746 0.0
O51 O 0.36419 0.48003 0.56794 0.0
O52 O 0.66732 0.35337 0.4407 0.0
O53 O 0.56046 0.26392 0.44174 0.0
O54 O 0.63924 0.40841 0.58197 0.0
C55 C 0.62651 0.28664 0.42738 0.0
O56 O 0.53228 0.32445 0.59167 0.0
O57 O 0.39377 0.32093 0.45982 0.0
C58 C 0.59353 0.36176 0.6147 0.0
O59 O 0.41021 0.44036 0.43687 0.0
O60 O 0.56382 0.55291 0.39093 0.0
O61 O 0.66116 0.51637 0.39129 0.0
H62 H 0.03808 0.09599 0.20454 0.0
H63 H 0.31849 0.45585 0.36023 0.0
H64 H 0.20195 0.25984 0.10711 0.0
H65 H 0.26213 0.23986 0.44312 0.0
H66 H 0.22374 0.40653 0.28121 0.0
H67 H 0.07258 0.17234 0.30228 0.0
C68 C 0.07969 0.1492 0.2035 0.0
C69 C 0.11851 0.17168 0.14877 0.0
C70 C 0.23059 0.37087 0.3182 0.0
C71 C 0.15608 0.25897 0.25828 0.0
C72 C 0.28464 0.39879 0.3634 0.0
C73 C 0.30002 0.35095 0.40679 0.0
C74 C 0.19152 0.29512 0.31704 0.0
C75 C 0.25349 0.27794 0.40914 0.0
C76 C 0.09907 0.19246 0.25888 0.0
C77 C 0.17185 0.24058 0.14902 0.0
N78 N 0.20211 0.25158 0.36373 0.0
N79 N 0.18956 0.28174 0.20328 0.0
H80 H 0.69589 0.99111 0.1357 0.0
H81 H 0.55467 0.14546 0.38235 0.0
H82 H 0.90106 0.11656 0.21648 0.0
H83 H 0.76414 0.30889 0.39034 0.0
H84 H 0.6007 0.06509 0.31627 0.0
H85 H 0.63847 0.03454 0.2229 0.0
C86 C 0.7288 0.02543 0.17311 0.0
C87 C 0.80321 0.05103 0.1685 0.0
C88 C 0.63658 0.11861 0.332 0.0
C89 C 0.73833 0.10165 0.26837 0.0
C90 C 0.61045 0.16456 0.37032 0.0
C91 C 0.65531 0.23489 0.39131 0.0
C92 C 0.70821 0.14316 0.31429 0.0
C93 C 0.72723 0.25578 0.37476 0.0
C94 C 0.69602 0.05066 0.223 0.0
C95 C 0.8434 0.09632 0.2178 0.0
N96 N 0.75122 0.21032 0.33707 0.0
N97 N 0.81049 0.12126 0.2649 0.0
H98 H 0.86005 0.69625 0.03445 0.0
H99 H 0.60147 0.67604 0.32286 0.0
H100 H 0.83822 0.88926 0.13278 0.0
H101 H 0.69217 0.50438 0.27203 0.0
H102 H 0.65651 0.74535 0.23096 0.0
H103 H 0.76749 0.6172 0.09989 0.0
C104 C 0.83506 0.72213 0.0691 0.0
C105 C 0.85726 0.79955 0.07853 0.0
C106 C 0.66311 0.69182 0.23939 0.0
C107 C 0.75128 0.70949 0.15294 0.0
C108 C 0.63135 0.65211 0.29147 0.0
C109 C 0.64304 0.58501 0.30519 0.0
C110 C 0.70604 0.6635 0.20079 0.0
C111 C 0.6829 0.55662 0.26346 0.0
C112 C 0.78216 0.67697 0.10619 0.0
C113 C 0.82229 0.83002 0.12345 0.0
N114 N 0.71351 0.59633 0.2133 0.0
N115 N 0.77145 0.78482 0.15955 0.0
H116 H 0.33855 0.96904 0.12399 0.0
H117 H 0.35324 0.59092 0.26737 0.0
H118 H 0.21634 0.75101 0.05119 0.0
H119 H 0.509 0.80241 0.31737 0.0
H120 H 0.31022 0.64926 0.18129 0.0
H121 H 0.40911 0.91125 0.18928 0.0
C122 C 0.32719 0.90938 0.12101 0.0
C123 C 0.27051 0.86486 0.08286 0.0
C124 C 0.35457 0.68288 0.21041 0.0
C125 C 0.3505 0.79848 0.15734 0.0
C126 C 0.3793 0.64937 0.25955 0.0
C127 C 0.43429 0.69185 0.30017 0.0
C128 C 0.38404 0.75984 0.20233 0.0
C129 C 0.46624 0.76745 0.28741 0.0
C130 C 0.36738 0.87638 0.15829 0.0
C131 C 0.25843 0.78772 0.08076 0.0
N132 N 0.43977 0.79937 0.24037 0.0
N133 N 0.29736 0.75717 0.11785 0.0
H134 H 0.26418 0.99314 0.80515 0.0
H135 H 0.24537 0.66433 0.55826 0.0
H136 H 0.08354 0.79366 0.78161 0.0
H137 H 0.43953 0.8398 0.60973 0.0
H138 H 0.17859 0.72551 0.62282 0.0
H139 H 0.32038 0.95237 0.71607 0.0
C140 C 0.23569 0.94132 0.78067 0.0
C141 C 0.16963 0.89588 0.80187 0.0
C142 C 0.23571 0.75099 0.61957 0.0
C143 C 0.23408 0.849 0.69997 0.0
C144 C 0.27409 0.71608 0.58271 0.0
C145 C 0.34859 0.74629 0.57929 0.0
C146 C 0.27183 0.81669 0.65342 0.0
C147 C 0.38237 0.81401 0.61148 0.0
C148 C 0.26807 0.91802 0.72993 0.0
C149 C 0.13502 0.82987 0.76766 0.0
N150 N 0.34378 0.84659 0.64773 0.0
N151 N 0.16809 0.80796 0.71887 0.0
H152 H 0.19612 0.11098 0.85223 0.0
H153 H 0.34047 0.50127 0.69017 0.0
H154 H 0.15484 0.31015 0.91795 0.0
H155 H 0.40906 0.31475 0.63649 0.0
H156 H 0.28285 0.43448 0.78151 0.0
H157 H 0.28473 0.18586 0.78066 0.0
C158 C 0.20634 0.17046 0.85228 0.0
C159 C 0.16711 0.20417 0.89034 0.0
C160 C 0.31141 0.40829 0.7505 0.0
C161 C 0.26791 0.28987 0.80865 0.0
C162 C 0.34422 0.44648 0.69836 0.0
C163 C 0.37948 0.41329 0.65609 0.0
C164 C 0.31237 0.33555 0.75965 0.0
C165 C 0.38318 0.34244 0.66865 0.0
C166 C 0.2569 0.21316 0.81141 0.0
C167 C 0.18277 0.28149 0.88865 0.0
N168 N 0.34891 0.30521 0.71892 0.0
N169 N 0.23132 0.32147 0.84803 0.0
H170 H 0.68976 0.10405 0.90509 0.0
H171 H 0.71287 0.44116 0.68255 0.0
H172 H 0.87658 0.29696 0.89398 0.0
H173 H 0.52951 0.24407 0.68999 0.0
H174 H 0.76473 0.40045 0.77376 0.0
H175 H 0.62338 0.16485 0.84067 0.0
C176 C 0.71683 0.1596 0.88944 0.0
C177 C 0.7894 0.19494 0.90405 0.0
C178 C 0.7127 0.36658 0.75612 0.0
C179 C 0.71316 0.26499 0.82965 0.0
C180 C 0.68275 0.38986 0.70399 0.0
C181 C 0.6171 0.34525 0.67764 0.0
C182 C 0.67712 0.29788 0.78211 0.0
C183 C 0.58049 0.27989 0.70817 0.0
C184 C 0.67864 0.19437 0.85272 0.0
C185 C 0.82096 0.26743 0.88346 0.0
N186 N 0.61154 0.25759 0.75816 0.0
N187 N 0.78289 0.29968 0.84648 0.0
H188 H 0.98528 0.89888 0.78403 0.0
H189 H 0.69303 0.54832 0.62633 0.0
H190 H 0.80136 0.75838 0.8776 0.0
H191 H 0.77368 0.75775 0.5345 0.0
H192 H 0.77967 0.59681 0.71235 0.0
H193 H 0.95032 0.81809 0.68906 0.0
C194 C 0.93872 0.84986 0.78508 0.0
C195 C 0.895 0.83572 0.83784 0.0
C196 C 0.78022 0.63092 0.67204 0.0
C197 C 0.85659 0.74304 0.73109 0.0
C198 C 0.73129 0.60316 0.62264 0.0
C199 C 0.72554 0.64963 0.57385 0.0
C200 C 0.82401 0.70509 0.6719 0.0
C201 C 0.77579 0.72071 0.57194 0.0
C202 C 0.91907 0.80406 0.73113 0.0
C203 C 0.83548 0.77169 0.83722 0.0
N204 N 0.82232 0.74695 0.62108 0.0
N205 N 0.81762 0.72785 0.78432 0.0
loop_
_geom_bond_atom_site_label_1
_geom_bond_atom_site_label_2
_geom_bond_distance
_geom_bond_site_symmetry_2
_ccdc_geom_bond_type
C0 O27 1.312 . S
C0 O28 1.208 . S
C1 O22 1.331 . S
C1 O25 1.244 . S
C2 O24 1.264 . S
C2 O26 1.273 . S
Mg3 O5 1.932 1_454 S
Mg3 O12 2.071 1_454 S
Mg3 O14 2.013 1_455 S
Mg3 O18 2.043 1_554 S
Mg3 O27 2.301 . S
Mg4 O5 1.963 . S
Mg4 O15 1.942 . S
Mg4 O16 1.955 1_556 S
Mg4 O23 1.986 1_545 S
O5 Mg3 1.932 1_656 S
O5 Mg4 1.963 . S
O5 Mg6 1.915 1_546 S
Mg6 O5 1.915 1_564 S
Mg6 O7 1.915 1_655 S
Mg6 O11 2.013 . S
Mg6 O17 2.114 1_664 S
Mg6 O21 2.013 1_554 S
Mg6 O27 2.114 1_665 S
O7 Mg6 1.915 1_455 S
O7 Mg8 1.938 . S
O7 Mg9 1.963 . S
Mg8 O7 1.938 . S
Mg8 O17 2.283 1_564 S
Mg8 O22 2.090 . S
Mg8 O24 2.032 1_554 S
Mg8 O28 2.022 1_565 S
Mg9 O7 1.963 . S
Mg9 O13 1.986 1_455 S
Mg9 O25 1.942 . S
Mg9 O26 1.955 1_554 S
C10 O21 1.191 . S
C10 O23 1.307 . S
O11 Mg6 2.013 . S
O11 C30 1.191 . S
O12 Mg3 2.071 1_656 S
O12 C20 1.331 . S
O13 Mg9 1.986 1_655 S
O13 C30 1.307 . S
O14 Mg3 2.013 1_655 S
O14 C29 1.264 . S
O15 Mg4 1.942 . S
O15 C20 1.244 . S
O16 Mg4 1.955 1_554 S
O16 C29 1.273 . S
O17 Mg6 2.114 1_446 S
O17 Mg8 2.283 1_546 S
O17 C19 1.312 . S
O18 Mg3 2.043 1_556 S
O18 C19 1.208 . S
C19 O17 1.312 . S
C19 O18 1.208 . S
C20 O12 1.331 . S
C20 O15 1.244 . S
O21 Mg6 2.013 1_556 S
O21 C10 1.191 . S
O22 C1 1.331 . S
O22 Mg8 2.090 . S
O23 Mg4 1.986 1_565 S
O23 C10 1.307 . S
O24 C2 1.264 . S
O24 Mg8 2.032 1_556 S
O25 C1 1.244 . S
O25 Mg9 1.942 . S
O26 C2 1.273 . S
O26 Mg9 1.955 1_556 S
O27 C0 1.312 . S
O27 Mg3 2.301 . S
O27 Mg6 2.114 1_445 S
O28 C0 1.208 . S
O28 Mg8 2.022 1_545 S
C29 O14 1.264 . S
C29 O16 1.273 . S
C30 O11 1.191 . S
C30 O13 1.307 . S
C31 O43 1.241 . S
C31 O44 1.280 . S
C32 O45 1.277 . S
C32 O46 1.245 . S
C33 O57 1.247 . S
C33 O59 1.289 . S
Mg34 O35 1.926 . S
Mg34 O44 1.984 . S
Mg34 O46 1.988 . S
Mg34 O47 2.061 . S
O35 Mg34 1.926 . S
O35 Mg36 1.986 . S
O35 Mg37 1.917 . S
Mg36 O35 1.986 . S
Mg36 O43 2.042 . S
Mg36 O45 2.041 . S
Mg36 O51 2.038 . S
Mg36 O59 2.238 . S
Mg37 O35 1.917 . S
Mg37 O38 1.917 . S
Mg37 O48 2.106 . S
Mg37 O50 2.079 . S
Mg37 O59 2.106 . S
Mg37 O60 2.079 . S
O38 Mg37 1.917 . S
O38 Mg39 1.926 . S
O38 Mg40 1.986 . S
Mg39 O38 1.926 . S
Mg39 O53 1.984 . S
Mg39 O56 1.988 . S
Mg39 O57 2.061 . S
Mg40 O38 1.986 . S
Mg40 O48 2.238 . S
Mg40 O52 2.042 . S
Mg40 O54 2.041 . S
Mg40 O61 2.038 . S
C41 O47 1.247 . S
C41 O48 1.289 . S
C42 O60 1.245 . S
C42 O61 1.274 . S
O43 C31 1.241 . S
O43 Mg36 2.042 . S
O44 C31 1.280 . S
O44 Mg34 1.984 . S
O45 C32 1.277 . S
O45 Mg36 2.041 . S
O46 C32 1.245 . S
O46 Mg34 1.988 . S
O47 Mg34 2.061 . S
O47 C41 1.247 . S
O48 Mg37 2.106 . S
O48 Mg40 2.238 . S
O48 C41 1.289 . S
C49 O50 1.245 . S
C49 O51 1.274 . S
O50 Mg37 2.079 . S
O50 C49 1.245 . S
O51 Mg36 2.038 . S
O51 C49 1.274 . S
O52 Mg40 2.042 . S
O52 C55 1.241 . S
O53 Mg39 1.984 . S
O53 C55 1.280 . S
O54 Mg40 2.041 . S
O54 C58 1.277 . S
C55 O52 1.241 . S
C55 O53 1.280 . S
O56 Mg39 1.988 . S
O56 C58 1.245 . S
O57 C33 1.247 . S
O57 Mg39 2.061 . S
C58 O54 1.277 . S
C58 O56 1.245 . S
O59 C33 1.289 . S
O59 Mg36 2.238 . S
O59 Mg37 2.106 . S
O60 Mg37 2.079 . S
O60 C42 1.245 . S
O61 Mg40 2.038 . S
O61 C42 1.274 . S
H62 C68 0.930 . S
H63 C72 0.930 . S
H64 C77 0.929 . S
H65 C75 0.929 . S
H66 C70 0.929 . S
H67 C76 0.929 . S
C68 H62 0.930 . S
C68 C69 1.367 . S
C68 C76 1.378 . S
C69 C68 1.367 . S
C69 C77 1.433 . S
C70 H66 0.929 . S
C70 C72 1.378 . S
C70 C74 1.350 . S
C71 C74 1.463 . S
C71 C76 1.350 . S
C71 N79 1.427 . S
C72 H63 0.930 . S
C72 C70 1.378 . S
C72 C73 1.367 . S
C73 C72 1.367 . S
C73 C75 1.433 . S
C74 C70 1.350 . S
C74 C71 1.463 . S
C74 N78 1.427 . S
C75 H65 0.929 . S
C75 C73 1.433 . S
C75 N78 1.384 . S
C76 H67 0.929 . S
C76 C68 1.378 . S
C76 C71 1.350 . S
C77 H64 0.929 . S
C77 C69 1.433 . S
C77 N79 1.384 . S
N78 C74 1.427 . S
N78 C75 1.384 . S
N79 C71 1.427 . S
N79 C77 1.384 . S
H80 C86 0.930 . S
H81 C90 0.930 . S
H82 C95 0.929 . S
H83 C93 0.929 . S
H84 C88 0.929 . S
H85 C94 0.929 . S
C86 H80 0.930 . S
C86 C87 1.367 . S
C86 C94 1.378 . S
C87 C86 1.367 . S
C87 C95 1.433 . S
C88 H84 0.929 . S
C88 C90 1.378 . S
C88 C92 1.350 . S
C89 C92 1.463 . S
C89 C94 1.350 . S
C89 N97 1.427 . S
C90 H81 0.930 . S
C90 C88 1.378 . S
C90 C91 1.367 . S
C91 C90 1.367 . S
C91 C93 1.433 . S
C92 C88 1.350 . S
C92 C89 1.463 . S
C92 N96 1.427 . S
C93 H83 0.929 . S
C93 C91 1.433 . S
C93 N96 1.384 . S
C94 H85 0.929 . S
C94 C86 1.378 . S
C94 C89 1.350 . S
C95 H82 0.929 . S
C95 C87 1.433 . S
C95 N97 1.384 . S
N96 C92 1.427 . S
N96 C93 1.384 . S
N97 C89 1.427 . S
N97 C95 1.384 . S
H98 C104 0.930 . S
H99 C108 0.930 . S
H100 C113 0.929 . S
H101 C111 0.929 . S
H102 C106 0.929 . S
H103 C112 0.929 . S
C104 H98 0.930 . S
C104 C105 1.367 . S
C104 C112 1.378 . S
C105 C104 1.367 . S
C105 C113 1.433 . S
C106 H102 0.929 . S
C106 C108 1.378 . S
C106 C110 1.350 . S
C107 C110 1.463 . S
C107 C112 1.350 . S
C107 N115 1.427 . S
C108 H99 0.930 . S
C108 C106 1.378 . S
C108 C109 1.367 . S
C109 C108 1.367 . S
C109 C111 1.433 . S
C110 C106 1.350 . S
C110 C107 1.463 . S
C110 N114 1.427 . S
C111 H101 0.929 . S
C111 C109 1.433 . S
C111 N114 1.384 . S
C112 H103 0.929 . S
C112 C104 1.378 . S
C112 C107 1.350 . S
C113 H100 0.929 . S
C113 C105 1.433 . S
C113 N115 1.384 . S
N114 C110 1.427 . S
N114 C111 1.384 . S
N115 C107 1.427 . S
N115 C113 1.384 . S
H116 C122 0.930 . S
H117 C126 0.930 . S
H118 C131 0.929 . S
H119 C129 0.929 . S
H120 C124 0.929 . S
H121 C130 0.929 . S
C122 H116 0.930 . S
C122 C123 1.367 . S
C122 C130 1.378 . S
C123 C122 1.367 . S
C123 C131 1.433 . S
C124 H120 0.929 . S
C124 C126 1.378 . S
C124 C128 1.350 . S
C125 C128 1.463 . S
C125 C130 1.350 . S
C125 N133 1.427 . S
C126 H117 0.930 . S
C126 C124 1.378 . S
C126 C127 1.367 . S
C127 C126 1.367 . S
C127 C129 1.433 . S
C128 C124 1.350 . S
C128 C125 1.463 . S
C128 N132 1.427 . S
C129 H119 0.929 . S
C129 C127 1.433 . S
C129 N132 1.384 . S
C130 H121 0.929 . S
C130 C122 1.378 . S
C130 C125 1.350 . S
C131 H118 0.929 . S
C131 C123 1.433 . S
C131 N133 1.384 . S
N132 C128 1.427 . S
N132 C129 1.384 . S
N133 C125 1.427 . S
N133 C131 1.384 . S
H134 C140 0.930 . S
H135 C144 0.930 . S
H136 C149 0.929 . S
H137 C147 0.929 . S
H138 C142 0.929 . S
H139 C148 0.929 . S
C140 H134 0.930 . S
C140 C141 1.367 . S
C140 C148 1.378 . S
C141 C140 1.367 . S
C141 C149 1.433 . S
C142 H138 0.929 . S
C142 C144 1.378 . S
C142 C146 1.350 . S
C143 C146 1.463 . S
C143 C148 1.350 . S
C143 N151 1.427 . S
C144 H135 0.930 . S
C144 C142 1.378 . S
C144 C145 1.367 . S
C145 C144 1.367 . S
C145 C147 1.433 . S
C146 C142 1.350 . S
C146 C143 1.463 . S
C146 N150 1.427 . S
C147 H137 0.929 . S
C147 C145 1.433 . S
C147 N150 1.384 . S
C148 H139 0.929 . S
C148 C140 1.378 . S
C148 C143 1.350 . S
C149 H136 0.929 . S
C149 C141 1.433 . S
C149 N151 1.384 . S
N150 C146 1.427 . S
N150 C147 1.384 . S
N151 C143 1.427 . S
N151 C149 1.384 . S
H152 C158 0.930 . S
H153 C162 0.930 . S
H154 C167 0.929 . S
H155 C165 0.929 . S
H156 C160 0.929 . S
H157 C166 0.929 . S
C158 H152 0.930 . S
C158 C159 1.367 . S
C158 C166 1.378 . S
C159 C158 1.367 . S
C159 C167 1.433 . S
C160 H156 0.929 . S
C160 C162 1.378 . S
C160 C164 1.350 . S
C161 C164 1.463 . S
C161 C166 1.350 . S
C161 N169 1.427 . S
C162 H153 0.930 . S
C162 C160 1.378 . S
C162 C163 1.367 . S
C163 C162 1.367 . S
C163 C165 1.433 . S
C164 C160 1.350 . S
C164 C161 1.463 . S
C164 N168 1.427 . S
C165 H155 0.929 . S
C165 C163 1.433 . S
C165 N168 1.384 . S
C166 H157 0.929 . S
C166 C158 1.378 . S
C166 C161 1.350 . S
C167 H154 0.929 . S
C167 C159 1.433 . S
C167 N169 1.384 . S
N168 C164 1.427 . S
N168 C165 1.384 . S
N169 C161 1.427 . S
N169 C167 1.384 . S
H170 C176 0.930 . S
H171 C180 0.930 . S
H172 C185 0.929 . S
H173 C183 0.929 . S
H174 C178 0.929 . S
H175 C184 0.929 . S
C176 H170 0.930 . S
C176 C177 1.367 . S
C176 C184 1.378 . S
C177 C176 1.367 . S
C177 C185 1.433 . S
C178 H174 0.929 . S
C178 C180 1.378 . S
C178 C182 1.350 . S
C179 C182 1.463 . S
C179 C184 1.350 . S
C179 N187 1.427 . S
C180 H171 0.930 . S
C180 C178 1.378 . S
C180 C181 1.367 . S
C181 C180 1.367 . S
C181 C183 1.433 . S
C182 C178 1.350 . S
C182 C179 1.463 . S
C182 N186 1.427 . S
C183 H173 0.929 . S
C183 C181 1.433 . S
C183 N186 1.384 . S
C184 H175 0.929 . S
C184 C176 1.378 . S
C184 C179 1.350 . S
C185 H172 0.929 . S
C185 C177 1.433 . S
C185 N187 1.384 . S
N186 C182 1.427 . S
N186 C183 1.384 . S
N187 C179 1.427 . S
N187 C185 1.384 . S
H188 C194 0.930 . S
H189 C198 0.930 . S
H190 C203 0.929 . S
H191 C201 0.929 . S
H192 C196 0.929 . S
H193 C202 0.929 . S
C194 H188 0.930 . S
C194 C195 1.367 . S
C194 C202 1.378 . S
C195 C194 1.367 . S
C195 C203 1.433 . S
C196 H192 0.929 . S
C196 C198 1.378 . S
C196 C200 1.350 . S
C197 C200 1.463 . S
C197 C202 1.350 . S
C197 N205 1.427 . S
C198 H189 0.930 . S
C198 C196 1.378 . S
C198 C199 1.367 . S
C199 C198 1.367 . S
C199 C201 1.433 . S
C200 C196 1.350 . S
C200 C197 1.463 . S
C200 N204 1.427 . S
C201 H191 0.929 . S
C201 C199 1.433 . S
C201 N204 1.384 . S
C202 H193 0.929 . S
C202 C194 1.378 . S
C202 C197 1.350 . S
C203 H190 0.929 . S
C203 C195 1.433 . S
C203 N205 1.384 . S
N204 C200 1.427 . S
N204 C201 1.384 . S
N205 C197 1.427 . S
N205 C203 1.384 . S
C69 C0 1.095 . S
C73 C33 1.109 . S
C87 C29 1.644 . S
C91 C55 1.622 . S
C105 C30 1.385 . S
C109 C42 1.369 . S
C123 C1 1.636 . S
C127 C32 1.629 . S
C141 C2 1.646 . S
C145 C31 1.632 . S
C163 C49 1.415 . S
C159 C19 1.421 . S
C177 C20 1.646 . S
C181 C58 1.643 . S
C199 C41 1.054 . S
C195 C10 1.065 . S
