# Generated by pormake.
# Topology zzz, (3,6)-cn, num edge types: 1
# Building blocks:
#     Node 0, Type 0, BuildingBlock: OLANEW_clean_sbu_2, # of connection points: 3
#     Node 1, Type 0, BuildingBlock: OLANEW_clean_sbu_2, # of connection points: 3
#     Node 2, Type 0, BuildingBlock: OLANEW_clean_sbu_2, # of connection points: 3
#     Node 3, Type 0, BuildingBlock: OLANEW_clean_sbu_2, # of connection points: 3
#     Node 4, Type 0, BuildingBlock: OLANEW_clean_sbu_2, # of connection points: 3
#     Node 5, Type 0, BuildingBlock: OLANEW_clean_sbu_2, # of connection points: 3
#     Node 6, Type 0, BuildingBlock: OLANEW_clean_sbu_2, # of connection points: 3
#     Node 7, Type 0, BuildingBlock: OLANEW_clean_sbu_2, # of connection points: 3
#     Node 8, Type 1, BuildingBlock: LEVNOQ01_clean_sbu_1, # of connection points: 6
#     Node 9, Type 1, BuildingBlock: LEVNOQ01_clean_sbu_1, # of connection points: 6
#     Node 10, Type 1, BuildingBlock: LEVNOQ01_clean_sbu_1, # of connection points: 6
#     Node 11, Type 1, BuildingBlock: LEVNOQ01_clean_sbu_1, # of connection points: 6
#     Edge 12, Type (0, 1), None
#     Edge 13, Type (0, 1), None
#     Edge 14, Type (0, 1), None
#     Edge 15, Type (0, 1), None
#     Edge 16, Type (0, 1), None
#     Edge 17, Type (0, 1), None
#     Edge 18, Type (0, 1), None
#     Edge 19, Type (0, 1), None
#     Edge 20, Type (0, 1), None
#     Edge 21, Type (0, 1), None
#     Edge 22, Type (0, 1), None
#     Edge 23, Type (0, 1), None
#     Edge 24, Type (0, 1), None
#     Edge 25, Type (0, 1), None
#     Edge 26, Type (0, 1), None
#     Edge 27, Type (0, 1), None
#     Edge 28, Type (0, 1), None
#     Edge 29, Type (0, 1), None
#     Edge 30, Type (0, 1), None
#     Edge 31, Type (0, 1), None
#     Edge 32, Type (0, 1), None
#     Edge 33, Type (0, 1), None
#     Edge 34, Type (0, 1), None
#     Edge 35, Type (0, 1), None
# Relax obj value: 0.106
# Max RMSD: 0.164
# Mean RMSD: 0.109
data_MOF--net-zzz--node1-OLANEW_clean_sbu_2--node2-LEVNOQ01_clean_sbu_1--edge1-none
_symmetry_space_group_name_H-M    P1
_symmetry_Int_Tables_number       1
_symmetry_cell_setting            triclinic
loop_
_symmetry_equiv_pos_as_xyz
'x, y, z'
_cell_length_a     25.429972
_cell_length_b     25.424317
_cell_length_c     8.365368
_cell_angle_alpha  90.005833
_cell_angle_beta   89.990326
_cell_angle_gamma 90.021677
loop_
_atom_site_label
_atom_site_type_symbol
_atom_site_fract_x
_atom_site_fract_y
_atom_site_fract_z
_atom_type_partial_charge
O0 O 0.81968 0.50807 0.90035 0.0
Cd1 Cd 0.74254 0.53207 0.04828 0.0
O2 O 0.8664 0.55602 0.06454 0.0
Cd3 Cd 0.93329 0.60053 0.15505 0.0
O4 O 0.98199 0.65637 0.28827 0.0
C5 C 0.00805 0.64372 0.4119 0.0
O6 O 0.03697 0.67936 0.48403 0.0
C7 C 0.86407 0.52589 0.94349 0.0
C8 C 0.66266 0.45912 0.01574 0.0
O9 O 0.66215 0.50112 0.93112 0.0
O10 O 0.70172 0.45082 0.10896 0.0
O11 O 0.00343 0.81893 0.90116 0.0
Cd12 Cd 0.97968 0.74161 0.0487 0.0
O13 O 0.9555 0.86564 0.06545 0.0
Cd14 Cd 0.91101 0.93254 0.15599 0.0
O15 O 0.85522 0.98132 0.28912 0.0
C16 C 0.86788 0.00738 0.4128 0.0
O17 O 0.83228 0.03633 0.48487 0.0
C18 C 0.9856 0.86331 0.94435 0.0
C19 C 0.05284 0.66197 0.01548 0.0
O20 O 0.01078 0.66131 0.93118 0.0
O21 O 0.06109 0.70107 0.10867 0.0
O22 O 0.69265 0.00323 0.9016 0.0
Cd23 Cd 0.76982 0.97934 0.04952 0.0
O24 O 0.64592 0.95517 0.06548 0.0
Cd25 Cd 0.57907 0.9105 0.15575 0.0
O26 O 0.53046 0.8546 0.28914 0.0
C27 C 0.50443 0.86723 0.4129 0.0
O28 O 0.47555 0.83158 0.48511 0.0
C29 C 0.64827 0.98533 0.94454 0.0
C30 C 0.84968 0.05231 0.01666 0.0
O31 O 0.85022 0.01027 0.93221 0.0
O32 O 0.81061 0.06063 0.10985 0.0
O33 O 0.50856 0.6923 0.90101 0.0
Cd34 Cd 0.53236 0.76944 0.04939 0.0
O35 O 0.55668 0.64561 0.06468 0.0
Cd36 Cd 0.60143 0.57881 0.15471 0.0
O37 O 0.65736 0.53028 0.28808 0.0
C38 C 0.64475 0.50425 0.41187 0.0
O39 O 0.6804 0.47541 0.48406 0.0
C40 C 0.52652 0.64794 0.94375 0.0
C41 C 0.45941 0.84928 0.01671 0.0
O42 O 0.50145 0.84985 0.93226 0.0
O43 O 0.45108 0.81017 0.1098 0.0
O44 O 0.23822 0.42603 0.72941 0.0
Cd45 Cd 0.30213 0.37829 0.577 0.0
O46 O 0.18757 0.43646 0.51776 0.0
Cd47 Cd 0.21124 0.36995 0.36782 0.0
O48 O 0.14219 0.40661 0.2596 0.0
C49 C 0.10579 0.39577 0.1604 0.0
O50 O 0.10524 0.35035 0.08569 0.0
C51 C 0.20074 0.44934 0.65898 0.0
C52 C 0.37779 0.45515 0.53903 0.0
O53 O 0.38205 0.42109 0.651 0.0
O54 O 0.33916 0.45145 0.4416 0.0
O55 O 0.08602 0.23736 0.7309 0.0
Cd56 Cd 0.13379 0.30128 0.57856 0.0
O57 O 0.07518 0.18695 0.5188 0.0
Cd58 Cd 0.14167 0.21056 0.36872 0.0
O59 O 0.10504 0.14143 0.26055 0.0
C60 C 0.11589 0.10508 0.1612 0.0
O61 O 0.16128 0.10464 0.08632 0.0
C62 C 0.0625 0.20001 0.66028 0.0
C63 C 0.05694 0.37685 0.54013 0.0
O64 O 0.09089 0.38116 0.65234 0.0
O65 O 0.06073 0.33822 0.44269 0.0
O66 O 0.27436 0.08536 0.73076 0.0
Cd67 Cd 0.21037 0.13306 0.57867 0.0
O68 O 0.32469 0.07448 0.51853 0.0
Cd69 Cd 0.30106 0.14092 0.36834 0.0
O70 O 0.37027 0.1045 0.26009 0.0
C71 C 0.40654 0.11546 0.16057 0.0
O72 O 0.40681 0.16082 0.08553 0.0
C73 C 0.31168 0.06184 0.66009 0.0
C74 C 0.13474 0.05616 0.54075 0.0
O75 O 0.1305 0.09017 0.65288 0.0
O76 O 0.17335 0.05991 0.44319 0.0
O77 O 0.42655 0.27398 0.7296 0.0
Cd78 Cd 0.37886 0.20995 0.57744 0.0
O79 O 0.43759 0.32422 0.51725 0.0
Cd80 Cd 0.37113 0.30057 0.36711 0.0
O81 O 0.4075 0.36984 0.25889 0.0
C82 C 0.39653 0.4061 0.15935 0.0
O83 O 0.35119 0.40628 0.08427 0.0
C84 C 0.45015 0.31125 0.65889 0.0
C85 C 0.45567 0.13427 0.53997 0.0
O86 O 0.42158 0.13004 0.65187 0.0
O87 O 0.45203 0.17288 0.44241 0.0
O88 O 0.01628 0.89912 0.7062 0.0
Mg89 Mg 0.02796 0.94706 0.50126 0.0
O90 O 0.98622 0.9558 0.89141 0.0
Mg91 Mg -0.00097 0.04063 0.78818 0.0
O92 O 0.05557 0.01064 0.61142 0.0
O93 O 0.10255 0.97712 0.41931 0.0
O94 O 0.0153 0.12156 0.68616 0.0
O95 O 0.06947 0.05896 0.9622 0.0
Mg96 Mg 0.97849 0.12988 0.07754 0.0
O97 O 0.9386 0.07561 0.95209 0.0
O98 O 0.01779 0.17601 0.89636 0.0
O99 O 0.03016 0.07675 0.19004 0.0
O100 O 0.89695 0.1245 0.12714 0.0
C101 C 0.92083 0.00303 0.47978 0.0
C102 C -0.00325 0.90899 0.84344 0.0
C103 C 0.09676 0.01344 0.52471 0.0
C104 C 0.02737 0.16547 0.75015 0.0
C105 C 0.07205 0.07149 0.10992 0.0
C106 C 0.89597 0.0859 0.02778 0.0
O107 O 0.95417 0.97359 0.40992 0.0
O108 O 0.93102 0.02674 0.61075 0.0
O109 O 0.43511 0.02983 0.18954 0.0
Mg110 Mg 0.38189 0.97808 0.07755 0.0
O111 O 0.4527 0.06908 0.9615 0.0
Mg112 Mg 0.47104 -0.00146 0.78781 0.0
O113 O 0.43607 0.93816 0.95197 0.0
O114 O 0.38728 0.89654 0.12737 0.0
O115 O 0.48497 0.93042 0.61065 0.0
O116 O 0.55583 0.98585 0.89122 0.0
Mg117 Mg 0.56468 0.02745 0.50116 0.0
O118 O 0.50095 0.05499 0.6106 0.0
O119 O 0.53821 0.95357 0.41002 0.0
O120 O 0.61256 0.01596 0.70624 0.0
O121 O 0.53474 0.10203 0.419 0.0
C122 C 0.34625 0.02678 0.74995 0.0
C123 C 0.44025 0.07171 0.10927 0.0
C124 C 0.42584 0.89555 0.02787 0.0
C125 C 0.50874 0.92022 0.47981 0.0
C126 C 0.60264 -0.00356 0.84345 0.0
C127 C 0.49833 0.09624 0.52412 0.0
O128 O 0.33576 0.01727 0.89626 0.0
O129 O 0.39011 0.01466 0.68583 0.0
O130 O 0.48211 0.4348 0.18839 0.0
Mg131 Mg 0.53384 0.38157 0.07647 0.0
O132 O 0.4429 0.45227 0.96028 0.0
Mg133 Mg 0.51345 0.47067 0.78669 0.0
O134 O 0.5738 0.43575 0.95091 0.0
O135 O 0.61535 0.38698 0.1264 0.0
O136 O 0.58157 0.48469 0.60959 0.0
O137 O 0.52609 0.55548 0.8902 0.0
Mg138 Mg 0.48453 0.56432 0.50012 0.0
O139 O 0.45704 0.50055 0.60949 0.0
O140 O 0.55842 0.53794 0.40903 0.0
O141 O 0.49597 0.61221 0.70531 0.0
O142 O 0.40998 0.53425 0.41794 0.0
C143 C 0.48521 0.34585 0.74877 0.0
C144 C 0.44025 0.43986 0.10807 0.0
C145 C 0.61638 0.42553 0.02687 0.0
C146 C 0.59177 0.50849 0.47879 0.0
C147 C 0.51548 0.6023 0.84251 0.0
C148 C 0.41579 0.49786 0.52305 0.0
O149 O 0.49466 0.33539 0.89513 0.0
O150 O 0.49737 0.38971 0.68462 0.0
O151 O 0.89987 0.49518 0.70537 0.0
Mg152 Mg 0.9478 0.48352 0.50038 0.0
O153 O 0.95654 0.52533 0.89049 0.0
Mg154 Mg 0.04134 0.51259 0.78722 0.0
O155 O 0.01137 0.456 0.61059 0.0
O156 O 0.97792 0.40894 0.41853 0.0
O157 O 0.12224 0.49638 0.68508 0.0
O158 O 0.05971 0.4422 0.96138 0.0
Mg159 Mg 0.13066 0.53336 0.07623 0.0
O160 O 0.0763 0.5731 0.95093 0.0
O161 O 0.17679 0.49412 0.89498 0.0
O162 O 0.07767 0.48157 0.18905 0.0
O163 O 0.12516 0.61492 0.1257 0.0
C164 C 0.00373 0.59074 0.47881 0.0
C165 C 0.90974 0.51474 0.84258 0.0
C166 C 0.01421 0.4148 0.52394 0.0
C167 C 0.16619 0.48443 0.74887 0.0
C168 C 0.07231 0.43966 0.10905 0.0
C169 C 0.08653 0.61578 0.0265 0.0
O170 O 0.97431 0.55736 0.40897 0.0
O171 O 0.02743 0.58058 0.60975 0.0
loop_
_geom_bond_atom_site_label_1
_geom_bond_atom_site_label_2
_geom_bond_distance
_geom_bond_site_symmetry_2
_ccdc_geom_bond_type
O0 Cd1 2.300 1_556 S
O0 C7 1.275 . S
Cd1 O0 2.300 1_554 S
Cd1 O9 2.381 1_554 S
Cd1 O10 2.378 . S
O2 Cd3 2.385 . S
O2 C7 1.255 1_554 S
Cd3 O2 2.385 . S
Cd3 O4 2.317 . S
O4 Cd3 2.317 . S
O4 C5 1.232 . S
C5 O4 1.232 . S
C5 O6 1.218 . S
O6 C5 1.218 . S
C7 O0 1.275 . S
C7 O2 1.255 1_556 S
C8 O9 1.258 . S
C8 O10 1.256 1_556 S
O9 Cd1 2.381 1_556 S
O9 C8 1.258 . S
O10 Cd1 2.378 . S
O10 C8 1.256 1_554 S
O11 Cd12 2.300 1_656 S
O11 C18 1.275 . S
Cd12 O11 2.300 1_454 S
Cd12 O20 2.381 1_454 S
Cd12 O21 2.378 . S
O13 Cd14 2.385 . S
O13 C18 1.255 1_454 S
Cd14 O13 2.385 . S
Cd14 O15 2.317 . S
O15 Cd14 2.317 . S
O15 C16 1.232 1_455 S
C16 O15 1.232 1_655 S
C16 O17 1.218 1_655 S
O17 C16 1.218 1_455 S
C18 O11 1.275 . S
C18 O13 1.255 1_656 S
C19 O20 1.258 . S
C19 O21 1.256 1_656 S
O20 Cd12 2.381 1_656 S
O20 C19 1.258 . S
O21 Cd12 2.378 . S
O21 C19 1.256 1_454 S
O22 Cd23 2.300 1_566 S
O22 C29 1.275 . S
Cd23 O22 2.300 1_544 S
Cd23 O31 2.381 1_544 S
Cd23 O32 2.378 . S
O24 Cd25 2.385 . S
O24 C29 1.255 1_544 S
Cd25 O24 2.385 . S
Cd25 O26 2.317 . S
O26 Cd25 2.317 . S
O26 C27 1.232 1_545 S
C27 O26 1.232 1_565 S
C27 O28 1.218 1_565 S
O28 C27 1.218 1_545 S
C29 O22 1.275 . S
C29 O24 1.255 1_566 S
C30 O31 1.258 . S
C30 O32 1.256 1_566 S
O31 Cd23 2.381 1_566 S
O31 C30 1.258 . S
O32 Cd23 2.378 . S
O32 C30 1.256 1_544 S
O33 Cd34 2.300 1_556 S
O33 C40 1.275 . S
Cd34 O33 2.300 1_554 S
Cd34 O42 2.381 1_554 S
Cd34 O43 2.378 . S
O35 Cd36 2.385 . S
O35 C40 1.255 1_554 S
Cd36 O35 2.385 . S
Cd36 O37 2.317 . S
O37 Cd36 2.317 . S
O37 C38 1.232 . S
C38 O37 1.232 . S
C38 O39 1.218 . S
O39 C38 1.218 . S
C40 O33 1.275 . S
C40 O35 1.255 1_556 S
C41 O42 1.258 . S
C41 O43 1.256 1_556 S
O42 Cd34 2.381 1_556 S
O42 C41 1.258 . S
O43 Cd34 2.378 . S
O43 C41 1.256 1_554 S
O44 Cd45 2.300 . S
O44 C51 1.275 . S
Cd45 O44 2.300 . S
Cd45 O53 2.381 . S
Cd45 O54 2.378 . S
O46 Cd47 2.385 . S
O46 C51 1.255 . S
Cd47 O46 2.385 . S
Cd47 O48 2.317 . S
O48 Cd47 2.317 . S
O48 C49 1.232 . S
C49 O48 1.232 . S
C49 O50 1.218 . S
O50 C49 1.218 . S
C51 O44 1.275 . S
C51 O46 1.255 . S
C52 O53 1.258 . S
C52 O54 1.256 . S
O53 Cd45 2.381 . S
O53 C52 1.258 . S
O54 Cd45 2.378 . S
O54 C52 1.256 . S
O55 Cd56 2.300 . S
O55 C62 1.275 . S
Cd56 O55 2.300 . S
Cd56 O64 2.381 . S
Cd56 O65 2.378 . S
O57 Cd58 2.385 . S
O57 C62 1.255 . S
Cd58 O57 2.385 . S
Cd58 O59 2.317 . S
O59 Cd58 2.317 . S
O59 C60 1.232 . S
C60 O59 1.232 . S
C60 O61 1.218 . S
O61 C60 1.218 . S
C62 O55 1.275 . S
C62 O57 1.255 . S
C63 O64 1.258 . S
C63 O65 1.256 . S
O64 Cd56 2.381 . S
O64 C63 1.258 . S
O65 Cd56 2.378 . S
O65 C63 1.256 . S
O66 Cd67 2.300 . S
O66 C73 1.275 . S
Cd67 O66 2.300 . S
Cd67 O75 2.381 . S
Cd67 O76 2.378 . S
O68 Cd69 2.385 . S
O68 C73 1.255 . S
Cd69 O68 2.385 . S
Cd69 O70 2.317 . S
O70 Cd69 2.317 . S
O70 C71 1.232 . S
C71 O70 1.232 . S
C71 O72 1.218 . S
O72 C71 1.218 . S
C73 O66 1.275 . S
C73 O68 1.255 . S
C74 O75 1.258 . S
C74 O76 1.256 . S
O75 Cd67 2.381 . S
O75 C74 1.258 . S
O76 Cd67 2.378 . S
O76 C74 1.256 . S
O77 Cd78 2.300 . S
O77 C84 1.275 . S
Cd78 O77 2.300 . S
Cd78 O86 2.381 . S
Cd78 O87 2.378 . S
O79 Cd80 2.385 . S
O79 C84 1.255 . S
Cd80 O79 2.385 . S
Cd80 O81 2.317 . S
O81 Cd80 2.317 . S
O81 C82 1.232 . S
C82 O81 1.232 . S
C82 O83 1.218 . S
O83 C82 1.218 . S
C84 O77 1.275 . S
C84 O79 1.255 . S
C85 O86 1.258 . S
C85 O87 1.256 . S
O86 Cd78 2.381 . S
O86 C85 1.258 . S
O87 Cd78 2.378 . S
O87 C85 1.256 . S
O88 Mg89 1.990 . S
O88 C102 1.253 . S
Mg89 O88 1.990 . S
Mg89 O92 2.180 . S
Mg89 O93 2.117 . S
Mg89 O107 2.030 . S
O90 Mg91 2.072 1_665 S
O90 C102 1.260 1_655 S
Mg91 O90 2.072 1_445 S
Mg91 O92 2.099 1_545 S
Mg91 O94 2.079 . S
Mg91 O95 2.072 . S
Mg91 O97 2.099 1_455 S
Mg91 O108 2.079 1_445 S
O92 Mg89 2.180 . S
O92 Mg91 2.099 1_565 S
O92 C103 1.279 . S
O93 Mg89 2.117 . S
O93 C103 1.250 . S
O94 Mg91 2.079 . S
O94 C104 1.264 . S
O95 Mg91 2.072 . S
O95 C105 1.260 1_556 S
Mg96 O97 2.180 . S
Mg96 O98 2.030 . S
Mg96 O99 1.990 1_556 S
Mg96 O100 2.117 . S
O97 Mg91 2.099 1_655 S
O97 Mg96 2.180 . S
O97 C106 1.279 . S
O98 Mg96 2.030 . S
O98 C104 1.248 1_655 S
O99 Mg96 1.990 1_554 S
O99 C105 1.253 1_655 S
O100 Mg96 2.117 . S
O100 C106 1.251 . S
C101 O107 1.248 1_655 S
C101 O108 1.264 . S
C102 O88 1.253 . S
C102 O90 1.260 1_455 S
C103 O92 1.279 . S
C103 O93 1.250 . S
C104 O94 1.264 . S
C104 O98 1.248 1_455 S
C105 O95 1.260 1_554 S
C105 O99 1.253 1_455 S
C106 O97 1.279 . S
C106 O100 1.251 . S
O107 Mg89 2.030 . S
O107 C101 1.248 1_455 S
O108 Mg91 2.079 1_665 S
O108 C101 1.264 . S
O109 Mg110 1.990 1_554 S
O109 C123 1.253 1_565 S
Mg110 O109 1.990 1_556 S
Mg110 O113 2.180 . S
Mg110 O114 2.117 . S
Mg110 O128 2.030 . S
O111 Mg112 2.072 . S
O111 C123 1.260 1_556 S
Mg112 O111 2.072 . S
Mg112 O113 2.099 1_545 S
Mg112 O115 2.079 1_545 S
Mg112 O116 2.072 1_545 S
Mg112 O118 2.099 . S
Mg112 O129 2.079 . S
O113 Mg110 2.180 . S
O113 Mg112 2.099 1_565 S
O113 C124 1.279 . S
O114 Mg110 2.117 . S
O114 C124 1.251 . S
O115 Mg112 2.079 1_565 S
O115 C125 1.264 . S
O116 Mg112 2.072 1_565 S
O116 C126 1.260 1_565 S
Mg117 O118 2.180 . S
Mg117 O119 2.030 . S
Mg117 O120 1.990 . S
Mg117 O121 2.117 . S
O118 Mg112 2.099 . S
O118 Mg117 2.180 . S
O118 C127 1.279 . S
O119 Mg117 2.030 . S
O119 C125 1.248 1_545 S
O120 Mg117 1.990 . S
O120 C126 1.253 . S
O121 Mg117 2.117 . S
O121 C127 1.250 . S
C122 O128 1.248 1_545 S
C122 O129 1.264 . S
C123 O109 1.253 1_545 S
C123 O111 1.260 1_554 S
C124 O113 1.279 . S
C124 O114 1.251 . S
C125 O115 1.264 . S
C125 O119 1.248 1_565 S
C126 O116 1.260 1_545 S
C126 O120 1.253 . S
C127 O118 1.279 . S
C127 O121 1.250 . S
O128 Mg110 2.030 . S
O128 C122 1.248 1_565 S
O129 Mg112 2.079 . S
O129 C122 1.264 . S
O130 Mg131 1.990 1_554 S
O130 C144 1.253 . S
Mg131 O130 1.990 1_556 S
Mg131 O134 2.180 . S
Mg131 O135 2.117 . S
Mg131 O149 2.030 . S
O132 Mg133 2.072 . S
O132 C144 1.260 1_556 S
Mg133 O132 2.072 . S
Mg133 O134 2.099 . S
Mg133 O136 2.079 . S
Mg133 O137 2.072 . S
Mg133 O139 2.099 . S
Mg133 O150 2.079 . S
O134 Mg131 2.180 . S
O134 Mg133 2.099 . S
O134 C145 1.279 . S
O135 Mg131 2.117 . S
O135 C145 1.251 . S
O136 Mg133 2.079 . S
O136 C146 1.264 . S
O137 Mg133 2.072 . S
O137 C147 1.260 . S
Mg138 O139 2.180 . S
Mg138 O140 2.030 . S
Mg138 O141 1.990 . S
Mg138 O142 2.117 . S
O139 Mg133 2.099 . S
O139 Mg138 2.180 . S
O139 C148 1.279 . S
O140 Mg138 2.030 . S
O140 C146 1.248 . S
O141 Mg138 1.990 . S
O141 C147 1.253 . S
O142 Mg138 2.117 . S
O142 C148 1.250 . S
C143 O149 1.248 . S
C143 O150 1.264 . S
C144 O130 1.253 . S
C144 O132 1.260 1_554 S
C145 O134 1.279 . S
C145 O135 1.251 . S
C146 O136 1.264 . S
C146 O140 1.248 . S
C147 O137 1.260 . S
C147 O141 1.253 . S
C148 O139 1.279 . S
C148 O142 1.250 . S
O149 Mg131 2.030 . S
O149 C143 1.248 . S
O150 Mg133 2.079 . S
O150 C143 1.264 . S
O151 Mg152 1.990 . S
O151 C165 1.253 . S
Mg152 O151 1.990 . S
Mg152 O155 2.180 . S
Mg152 O156 2.117 . S
Mg152 O170 2.030 . S
O153 Mg154 2.072 1_655 S
O153 C165 1.260 . S
Mg154 O153 2.072 1_455 S
Mg154 O155 2.099 1_455 S
Mg154 O157 2.079 . S
Mg154 O158 2.072 . S
Mg154 O160 2.099 . S
Mg154 O171 2.079 1_455 S
O155 Mg152 2.180 . S
O155 Mg154 2.099 1_655 S
O155 C166 1.279 . S
O156 Mg152 2.117 . S
O156 C166 1.250 . S
O157 Mg154 2.079 . S
O157 C167 1.264 . S
O158 Mg154 2.072 . S
O158 C168 1.260 1_556 S
Mg159 O160 2.180 . S
Mg159 O161 2.030 . S
Mg159 O162 1.990 1_556 S
Mg159 O163 2.117 . S
O160 Mg154 2.099 . S
O160 Mg159 2.180 . S
O160 C169 1.279 . S
O161 Mg159 2.030 . S
O161 C167 1.248 . S
O162 Mg159 1.990 1_554 S
O162 C168 1.253 . S
O163 Mg159 2.117 . S
O163 C169 1.251 . S
C164 O170 1.248 . S
C164 O171 1.264 . S
C165 O151 1.253 . S
C165 O153 1.260 . S
C166 O155 1.279 . S
C166 O156 1.250 . S
C167 O157 1.264 . S
C167 O161 1.248 . S
C168 O158 1.260 1_554 S
C168 O162 1.253 . S
C169 O160 1.279 . S
C169 O163 1.251 . S
O170 Mg152 2.030 . S
O170 C164 1.248 . S
O171 Mg154 2.079 1_655 S
O171 C164 1.264 . S
C74 C103 2.152 1_545 S
C127 C85 2.156 . S
C148 C52 2.152 . S
C166 C63 2.156 1_655 S
C106 C30 1.575 1_545 S
C41 C124 1.579 . S
C8 C145 1.575 . S
C19 C169 1.579 1_655 S
C104 C62 1.708 . S
C122 C73 1.706 . S
C143 C84 1.708 . S
C51 C167 1.706 . S
C18 C102 1.370 1_655 S
C126 C29 1.368 1_545 S
C147 C40 1.370 . S
C7 C165 1.368 . S
C60 C105 1.705 . S
C71 C123 1.701 . S
C144 C82 1.705 . S
C168 C49 1.701 . S
C16 C101 0.890 . S
C125 C27 0.891 . S
C146 C38 0.890 . S
C5 C164 0.891 . S
