# Generated by pormake.
# Topology bcu-b, (8,8)-cn, num edge types: 1
# Building blocks:
#     Node 0, Type 0, BuildingBlock: TAGTUT_clean_sbu_3, # of connection points: 8
#     Node 1, Type 1, BuildingBlock: GIZVER_clean_sbu_0, # of connection points: 8
#     Edge 2, Type (0, 1), BuildingBlock: CIFDUS_clean_linker_0, # of connection points: 2
#     Edge 3, Type (0, 1), BuildingBlock: CIFDUS_clean_linker_0, # of connection points: 2
#     Edge 4, Type (0, 1), BuildingBlock: CIFDUS_clean_linker_0, # of connection points: 2
#     Edge 5, Type (0, 1), BuildingBlock: CIFDUS_clean_linker_0, # of connection points: 2
#     Edge 6, Type (0, 1), BuildingBlock: CIFDUS_clean_linker_0, # of connection points: 2
#     Edge 7, Type (0, 1), BuildingBlock: CIFDUS_clean_linker_0, # of connection points: 2
#     Edge 8, Type (0, 1), BuildingBlock: CIFDUS_clean_linker_0, # of connection points: 2
#     Edge 9, Type (0, 1), BuildingBlock: CIFDUS_clean_linker_0, # of connection points: 2
# Relax obj value: 0.087
# Max RMSD: 0.157
# Mean RMSD: 0.154
data_MOF--net-bcu-b--node1-TAGTUT_clean_sbu_3--node2-GIZVER_clean_sbu_0--edge1-CIFDUS_clean_linker_0
_symmetry_space_group_name_H-M    P1
_symmetry_Int_Tables_number       1
_symmetry_cell_setting            triclinic
loop_
_symmetry_equiv_pos_as_xyz
'x, y, z'
_cell_length_a     18.718927
_cell_length_b     20.233337
_cell_length_c     15.828974
_cell_angle_alpha  90.630069
_cell_angle_beta   89.675685
_cell_angle_gamma 111.00933
loop_
_atom_site_label
_atom_site_type_symbol
_atom_site_fract_x
_atom_site_fract_y
_atom_site_fract_z
_atom_type_partial_charge
C0 C 0.13279 0.1126 0.13321 0.0
C1 C 0.15034 0.85804 0.09165 0.0
C2 C 0.11383 0.88021 0.83219 0.0
Mg3 Mg 0.01594 0.17511 0.03139 0.0
Mg4 Mg 0.85308 0.06097 0.96501 0.0
O5 O 0.95975 0.09028 0.96036 0.0
Mg6 Mg 0.00768 0.02157 -0.00477 0.0
O7 O 0.05973 0.95712 0.02994 0.0
Mg8 Mg 0.16669 1.00728 -0.01003 0.0
Mg9 Mg 0.01421 0.8651 0.98626 0.0
C10 C 0.87352 0.93278 0.86368 0.0
O11 O 0.90241 0.95099 0.07422 0.0
O12 O 0.95746 0.23538 0.943 0.0
O13 O 0.89842 0.84361 0.02832 0.0
O14 O 0.91824 0.15895 0.12583 0.0
O15 O 0.84939 0.14971 0.89783 0.0
O16 O 0.81216 0.06947 0.09147 0.0
O17 O 0.11689 0.08217 0.91672 0.0
O18 O 0.11194 0.18976 0.9404 0.0
C19 C 0.14407 0.1497 0.90711 0.0
C20 C 0.89596 0.21395 0.89769 0.0
O21 O 0.94367 0.94885 0.88605 0.0
O22 O 0.1928 0.922 0.07205 0.0
O23 O 0.82969 0.96406 0.89304 0.0
O24 O 0.15985 0.93384 0.87212 0.0
O25 O 0.08224 0.82798 0.06365 0.0
O26 O 0.04584 0.84889 0.85903 0.0
O27 O 0.06544 0.10006 0.10338 0.0
O28 O 0.17559 0.08033 0.10424 0.0
C29 C 0.84916 0.11991 0.14151 0.0
C30 C 0.8691 0.88306 0.06875 0.0
Co31 Co 0.59089 0.39863 0.45702 0.0
Co32 Co 0.61914 0.46847 0.59717 0.0
Co33 Co 0.51117 0.52498 0.4923 0.0
O34 O 0.60015 0.4927 0.48925 0.0
H35 H 0.64551 0.52819 0.4663 0.0
O36 O 0.42287 0.55851 0.49675 0.0
Co37 Co 0.43871 0.65651 0.52108 0.0
Co38 Co 0.40078 0.57512 0.38733 0.0
H39 H 0.37814 0.52568 0.52414 0.0
O40 O 0.71551 0.47764 0.62733 0.0
O41 O 0.62229 0.38057 0.57339 0.0
O42 O 0.54104 0.4489 0.68176 0.0
O43 O 0.45908 0.46454 0.59039 0.0
O44 O 0.57173 0.60356 0.56876 0.0
O45 O 0.44465 0.744 0.54731 0.0
O46 O 0.34034 0.64453 0.55205 0.0
O47 O 0.54353 0.68302 0.49609 0.0
O48 O 0.56158 0.58623 0.39258 0.0
O49 O 0.4692 0.56858 0.29828 0.0
O50 O 0.41812 0.67082 0.40196 0.0
O51 O 0.3098 0.58435 0.35897 0.0
C52 C 0.66094 0.35049 0.40589 0.0
C53 C 0.43879 0.38032 0.43537 0.0
C54 C 0.47368 0.44151 0.66028 0.0
C55 C 0.68893 0.41018 0.61043 0.0
C56 C 0.37258 0.71277 0.56573 0.0
C57 C 0.58628 0.66772 0.54835 0.0
C58 C 0.53948 0.59124 0.31753 0.0
C59 C 0.35044 0.65117 0.36856 0.0
O60 O 0.58972 0.31433 0.42319 0.0
O61 O 0.68848 0.41852 0.42215 0.0
O62 O 0.45053 0.44473 0.41681 0.0
O63 O 0.48468 0.36538 0.48461 0.0
H64 H 0.21481 0.10091 0.26589 0.0
H65 H 0.13041 0.24763 0.14419 0.0
H66 H 0.21506 0.34471 0.23242 0.0
H67 H 0.32483 0.38915 0.33199 0.0
H68 H 0.40732 0.2389 0.45075 0.0
H69 H 0.31163 0.1421 0.37606 0.0
C70 C 0.21369 0.15395 0.26011 0.0
C71 C 0.16684 0.16736 0.19869 0.0
C72 C 0.26321 0.20905 0.30957 0.0
C73 C 0.1655 0.23601 0.19172 0.0
C74 C 0.21461 0.29155 0.24144 0.0
C75 C 0.32131 0.33516 0.34219 0.0
C76 C 0.37438 0.32175 0.39608 0.0
C77 C 0.26567 0.27904 0.29861 0.0
C78 C 0.36812 0.25124 0.40922 0.0
C79 C 0.31325 0.19559 0.36649 0.0
H80 H 0.90271 0.24262 0.2319 0.0
H81 H 0.70168 0.05423 0.19867 0.0
H82 H 0.627 0.108 0.28373 0.0
H83 H 0.61583 0.21327 0.35296 0.0
H84 H 0.81541 0.40408 0.37692 0.0
H85 H 0.89361 0.34445 0.30903 0.0
C86 C 0.84288 0.21242 0.24439 0.0
C87 C 0.80785 0.14439 0.20816 0.0
C88 C 0.7997 0.24474 0.2902 0.0
C89 C 0.7302 0.10657 0.22544 0.0
C90 C 0.68732 0.13758 0.27353 0.0
C91 C 0.67657 0.24181 0.34395 0.0
C92 C 0.70953 0.31349 0.36911 0.0
C93 C 0.72093 0.2075 0.30371 0.0
C94 C 0.78838 0.3493 0.35732 0.0
C95 C 0.83316 0.31511 0.31873 0.0
H96 H 0.75657 0.7604 0.02662 0.0
H97 H 0.82721 0.92027 0.22269 0.0
H98 H 0.73097 0.84233 0.31836 0.0
H99 H 0.63591 0.72416 0.34988 0.0
H100 H 0.56148 0.56663 0.15182 0.0
H101 H 0.65151 0.64779 0.05304 0.0
C102 C 0.74984 0.77868 0.08984 0.0
C103 C 0.7993 0.84563 0.11802 0.0
C104 C 0.69537 0.73333 0.14445 0.0
C105 C 0.78952 0.86915 0.19951 0.0
C106 C 0.73527 0.8242 0.25449 0.0
C107 C 0.6399 0.70768 0.28513 0.0
C108 C 0.59417 0.63907 0.25824 0.0
C109 C 0.68978 0.75537 0.22843 0.0
C110 C 0.59745 0.61881 0.17379 0.0
C111 C 0.64842 0.66528 0.11748 0.0
H112 H 0.29221 0.89224 0.16512 0.0
H113 H 0.06688 0.72897 0.15364 0.0
H114 H 0.10718 0.65515 0.24583 0.0
H115 H 0.20699 0.63153 0.32099 0.0
H116 H 0.43389 0.79008 0.33412 0.0
H117 H 0.39178 0.87131 0.25211 0.0
C118 C 0.25209 0.84067 0.18307 0.0
C119 C 0.17722 0.8161 0.15082 0.0
C120 C 0.27553 0.79738 0.23676 0.0
C121 C 0.12547 0.74932 0.17584 0.0
C122 C 0.14811 0.70673 0.22915 0.0
C123 C 0.24715 0.68408 0.30658 0.0
C124 C 0.32341 0.70437 0.33203 0.0
C125 C 0.22317 0.72957 0.25854 0.0
C126 C 0.37462 0.77313 0.31454 0.0
C127 C 0.35078 0.81941 0.26721 0.0
H128 H 0.25585 0.92953 0.75974 0.0
H129 H 0.04267 0.75123 0.75422 0.0
H130 H 0.10199 0.6842 0.66773 0.0
H131 H 0.21872 0.67165 0.60536 0.0
H132 H 0.43068 0.85163 0.61208 0.0
H133 H 0.36762 0.92152 0.68568 0.0
C134 C 0.22171 0.8765 0.73843 0.0
C135 C 0.14483 0.84569 0.76453 0.0
C136 C 0.25648 0.83764 0.68958 0.0
C137 C 0.10191 0.77677 0.7355 0.0
C138 C 0.13605 0.73795 0.6864 0.0
C139 C 0.2509 0.72631 0.62225 0.0
C140 C 0.32985 0.7556 0.60379 0.0
C141 C 0.214 0.76704 0.66505 0.0
C142 C 0.37015 0.82699 0.62565 0.0
C143 C 0.33409 0.86736 0.66799 0.0
H144 H 0.15497 0.25477 0.80417 0.0
H145 H 0.28168 0.12829 0.89187 0.0
H146 H 0.39887 0.21144 0.82616 0.0
H147 H 0.46525 0.32499 0.7511 0.0
H148 H 0.33416 0.45108 0.67277 0.0
H149 H 0.21845 0.36432 0.73136 0.0
C150 C 0.20815 0.24486 0.80825 0.0
C151 C 0.21021 0.18593 0.85273 0.0
C152 C 0.27456 0.29403 0.77459 0.0
C153 C 0.27886 0.17301 0.85689 0.0
C154 C 0.34581 0.22117 0.82071 0.0
C155 C 0.41155 0.33396 0.74866 0.0
C156 C 0.4082 0.39484 0.7089 0.0
C157 C 0.34461 0.28297 0.78141 0.0
C158 C 0.3381 0.40506 0.70387 0.0
C159 C 0.27191 0.3552 0.73649 0.0
H160 H 0.79726 0.17825 0.76669 0.0
H161 H 0.94956 0.35996 0.9025 0.0
H162 H 0.90375 0.43778 0.81824 0.0
H163 H 0.81208 0.45209 0.71572 0.0
H164 H 0.6571 0.26861 0.5847 0.0
H165 H 0.71324 0.19324 0.65756 0.0
C166 C 0.82085 0.23495 0.77807 0.0
C167 C 0.87588 0.26317 0.84207 0.0
C168 C 0.79359 0.27881 0.73048 0.0
C169 C 0.90689 0.33685 0.85417 0.0
C170 C 0.88049 0.38122 0.80618 0.0
C171 C 0.79104 0.39571 0.70218 0.0
C172 C 0.72958 0.36589 0.64549 0.0
C173 C 0.82259 0.35251 0.74556 0.0
C174 C 0.70362 0.29285 0.62854 0.0
C175 C 0.73564 0.24972 0.67031 0.0
H176 H 0.79912 0.94526 0.72606 0.0
H177 H 0.87348 0.79752 0.86027 0.0
H178 H 0.79457 0.70069 0.76796 0.0
H179 H 0.69229 0.65736 0.66041 0.0
H180 H 0.62128 0.80876 0.52708 0.0
H181 H 0.71191 0.90517 0.60713 0.0
C182 C 0.79897 0.89195 0.73384 0.0
C183 C 0.84058 0.87765 0.79976 0.0
C184 C 0.75361 0.83737 0.68139 0.0
C185 C 0.84141 0.80914 0.80947 0.0
C186 C 0.79599 0.75396 0.75723 0.0
C187 C 0.69737 0.71152 0.64829 0.0
C188 C 0.64879 0.72563 0.58934 0.0
C189 C 0.74984 0.7672 0.69477 0.0
C190 C 0.657 0.79617 0.57307 0.0
C191 C 0.70885 0.85152 0.61876 0.0
loop_
_geom_bond_atom_site_label_1
_geom_bond_atom_site_label_2
_geom_bond_distance
_geom_bond_site_symmetry_2
_ccdc_geom_bond_type
C0 O27 1.312 . S
C0 O28 1.208 . S
C1 O22 1.331 . S
C1 O25 1.244 . S
C2 O24 1.264 . S
C2 O26 1.273 . S
Mg3 O5 1.938 . S
Mg3 O12 2.090 . S
Mg3 O14 2.032 1_556 S
Mg3 O18 2.021 1_655 S
Mg3 O27 2.283 1_656 S
Mg4 O5 1.963 . S
Mg4 O15 1.942 . S
Mg4 O16 1.955 1_556 S
Mg4 O23 1.986 1_545 S
O5 Mg3 1.938 . S
O5 Mg4 1.963 . S
O5 Mg6 1.913 1_556 S
Mg6 O5 1.913 1_554 S
Mg6 O7 1.918 1_645 S
Mg6 O11 2.019 1_545 S
Mg6 O17 2.108 1_654 S
Mg6 O21 2.006 1_544 S
Mg6 O27 2.119 1_655 S
O7 Mg6 1.918 1_465 S
O7 Mg8 1.936 1_565 S
O7 Mg9 1.963 . S
Mg8 O7 1.936 1_545 S
Mg8 O17 2.291 1_554 S
Mg8 O22 2.081 1_545 S
Mg8 O24 2.023 1_544 S
Mg8 O28 2.031 . S
Mg9 O7 1.963 . S
Mg9 O13 1.986 1_455 S
Mg9 O25 1.942 . S
Mg9 O26 1.955 1_554 S
C10 O21 1.191 . S
C10 O23 1.307 . S
O11 Mg6 2.019 1_565 S
O11 C30 1.191 . S
O12 Mg3 2.090 . S
O12 C20 1.331 . S
O13 Mg9 1.986 1_655 S
O13 C30 1.307 . S
O14 Mg3 2.032 1_554 S
O14 C29 1.264 . S
O15 Mg4 1.942 . S
O15 C20 1.244 . S
O16 Mg4 1.955 1_554 S
O16 C29 1.273 . S
O17 Mg6 2.108 1_456 S
O17 Mg8 2.291 1_556 S
O17 C19 1.312 . S
O18 Mg3 2.021 1_455 S
O18 C19 1.208 . S
C19 O17 1.312 . S
C19 O18 1.208 . S
C20 O12 1.331 . S
C20 O15 1.244 . S
O21 Mg6 2.006 1_566 S
O21 C10 1.191 . S
O22 C1 1.331 . S
O22 Mg8 2.081 1_565 S
O23 Mg4 1.986 1_565 S
O23 C10 1.307 . S
O24 C2 1.264 . S
O24 Mg8 2.023 1_566 S
O25 C1 1.244 . S
O25 Mg9 1.942 . S
O26 C2 1.273 . S
O26 Mg9 1.955 1_556 S
O27 C0 1.312 . S
O27 Mg3 2.283 1_454 S
O27 Mg6 2.119 1_455 S
O28 C0 1.208 . S
O28 Mg8 2.031 . S
C29 O14 1.264 . S
C29 O16 1.273 . S
C30 O11 1.191 . S
C30 O13 1.307 . S
Co31 O34 2.042 . S
Co31 O41 2.264 . S
Co31 O60 2.286 . S
Co31 O61 2.069 . S
Co31 O63 2.015 . S
Co32 O34 2.122 . S
Co32 O40 2.073 . S
Co32 O41 2.327 . S
Co32 O42 1.976 . S
Co33 O34 2.087 . S
Co33 O36 2.087 . S
Co33 O43 2.111 . S
Co33 O44 2.143 . S
Co33 O48 2.111 . S
Co33 O62 2.143 . S
O34 Co31 2.042 . S
O34 Co32 2.122 . S
O34 Co33 2.087 . S
O34 H35 0.980 . S
H35 O34 0.980 . S
O36 Co33 2.087 . S
O36 Co37 2.042 . S
O36 Co38 2.122 . S
O36 H39 0.980 . S
Co37 O36 2.042 . S
Co37 O45 2.286 . S
Co37 O46 2.069 . S
Co37 O47 2.015 . S
Co37 O50 2.264 . S
Co38 O36 2.122 . S
Co38 O49 1.976 . S
Co38 O50 2.327 . S
Co38 O51 2.073 . S
H39 O36 0.980 . S
O40 Co32 2.073 . S
O40 C55 1.245 . S
O41 Co31 2.264 . S
O41 Co32 2.327 . S
O41 C55 1.257 . S
O42 Co32 1.976 . S
O42 C54 1.251 . S
O43 Co33 2.111 . S
O43 C54 1.274 . S
O44 Co33 2.143 . S
O44 C57 1.246 . S
O45 Co37 2.286 . S
O45 C56 1.259 . S
O46 Co37 2.069 . S
O46 C56 1.289 . S
O47 Co37 2.015 . S
O47 C57 1.257 . S
O48 Co33 2.111 . S
O48 C58 1.274 . S
O49 Co38 1.976 . S
O49 C58 1.251 . S
O50 Co37 2.264 . S
O50 Co38 2.327 . S
O50 C59 1.257 . S
O51 Co38 2.073 . S
O51 C59 1.245 . S
C52 O60 1.259 . S
C52 O61 1.289 . S
C53 O62 1.246 . S
C53 O63 1.257 . S
C54 O42 1.251 . S
C54 O43 1.274 . S
C55 O40 1.245 . S
C55 O41 1.257 . S
C56 O45 1.259 . S
C56 O46 1.289 . S
C57 O44 1.246 . S
C57 O47 1.257 . S
C58 O48 1.274 . S
C58 O49 1.251 . S
C59 O50 1.257 . S
C59 O51 1.245 . S
O60 Co31 2.286 . S
O60 C52 1.259 . S
O61 Co31 2.069 . S
O61 C52 1.289 . S
O62 Co33 2.143 . S
O62 C53 1.246 . S
O63 Co31 2.015 . S
O63 C53 1.257 . S
H64 C70 0.930 . S
H65 C73 0.930 . S
H66 C74 0.930 . S
H67 C75 0.930 . S
H68 C78 0.930 . S
H69 C79 0.930 . S
C70 H64 0.930 . S
C70 C71 1.355 . S
C70 C72 1.415 . S
C71 C70 1.355 . S
C71 C73 1.419 . S
C72 C70 1.415 . S
C72 C77 1.425 . S
C72 C79 1.409 . S
C73 H65 0.930 . S
C73 C71 1.419 . S
C73 C74 1.362 . S
C74 H66 0.930 . S
C74 C73 1.362 . S
C74 C77 1.409 . S
C75 H67 0.930 . S
C75 C76 1.355 . S
C75 C77 1.415 . S
C76 C75 1.355 . S
C76 C78 1.419 . S
C77 C72 1.425 . S
C77 C74 1.409 . S
C77 C75 1.415 . S
C78 H68 0.930 . S
C78 C76 1.419 . S
C78 C79 1.362 . S
C79 H69 0.930 . S
C79 C72 1.409 . S
C79 C78 1.362 . S
H80 C86 0.930 . S
H81 C89 0.930 . S
H82 C90 0.930 . S
H83 C91 0.930 . S
H84 C94 0.930 . S
H85 C95 0.930 . S
C86 H80 0.930 . S
C86 C87 1.355 . S
C86 C88 1.415 . S
C87 C86 1.355 . S
C87 C89 1.419 . S
C88 C86 1.415 . S
C88 C93 1.425 . S
C88 C95 1.409 . S
C89 H81 0.930 . S
C89 C87 1.419 . S
C89 C90 1.362 . S
C90 H82 0.930 . S
C90 C89 1.362 . S
C90 C93 1.409 . S
C91 H83 0.930 . S
C91 C92 1.355 . S
C91 C93 1.415 . S
C92 C91 1.355 . S
C92 C94 1.419 . S
C93 C88 1.425 . S
C93 C90 1.409 . S
C93 C91 1.415 . S
C94 H84 0.930 . S
C94 C92 1.419 . S
C94 C95 1.362 . S
C95 H85 0.930 . S
C95 C88 1.409 . S
C95 C94 1.362 . S
H96 C102 0.930 . S
H97 C105 0.930 . S
H98 C106 0.930 . S
H99 C107 0.930 . S
H100 C110 0.930 . S
H101 C111 0.930 . S
C102 H96 0.930 . S
C102 C103 1.355 . S
C102 C104 1.415 . S
C103 C102 1.355 . S
C103 C105 1.419 . S
C104 C102 1.415 . S
C104 C109 1.425 . S
C104 C111 1.409 . S
C105 H97 0.930 . S
C105 C103 1.419 . S
C105 C106 1.362 . S
C106 H98 0.930 . S
C106 C105 1.362 . S
C106 C109 1.409 . S
C107 H99 0.930 . S
C107 C108 1.355 . S
C107 C109 1.415 . S
C108 C107 1.355 . S
C108 C110 1.419 . S
C109 C104 1.425 . S
C109 C106 1.409 . S
C109 C107 1.415 . S
C110 H100 0.930 . S
C110 C108 1.419 . S
C110 C111 1.362 . S
C111 H101 0.930 . S
C111 C104 1.409 . S
C111 C110 1.362 . S
H112 C118 0.930 . S
H113 C121 0.930 . S
H114 C122 0.930 . S
H115 C123 0.930 . S
H116 C126 0.930 . S
H117 C127 0.930 . S
C118 H112 0.930 . S
C118 C119 1.355 . S
C118 C120 1.415 . S
C119 C118 1.355 . S
C119 C121 1.419 . S
C120 C118 1.415 . S
C120 C125 1.425 . S
C120 C127 1.409 . S
C121 H113 0.930 . S
C121 C119 1.419 . S
C121 C122 1.362 . S
C122 H114 0.930 . S
C122 C121 1.362 . S
C122 C125 1.409 . S
C123 H115 0.930 . S
C123 C124 1.355 . S
C123 C125 1.415 . S
C124 C123 1.355 . S
C124 C126 1.419 . S
C125 C120 1.425 . S
C125 C122 1.409 . S
C125 C123 1.415 . S
C126 H116 0.930 . S
C126 C124 1.419 . S
C126 C127 1.362 . S
C127 H117 0.930 . S
C127 C120 1.409 . S
C127 C126 1.362 . S
H128 C134 0.930 . S
H129 C137 0.930 . S
H130 C138 0.930 . S
H131 C139 0.930 . S
H132 C142 0.930 . S
H133 C143 0.930 . S
C134 H128 0.930 . S
C134 C135 1.355 . S
C134 C136 1.415 . S
C135 C134 1.355 . S
C135 C137 1.419 . S
C136 C134 1.415 . S
C136 C141 1.425 . S
C136 C143 1.409 . S
C137 H129 0.930 . S
C137 C135 1.419 . S
C137 C138 1.362 . S
C138 H130 0.930 . S
C138 C137 1.362 . S
C138 C141 1.409 . S
C139 H131 0.930 . S
C139 C140 1.355 . S
C139 C141 1.415 . S
C140 C139 1.355 . S
C140 C142 1.419 . S
C141 C136 1.425 . S
C141 C138 1.409 . S
C141 C139 1.415 . S
C142 H132 0.930 . S
C142 C140 1.419 . S
C142 C143 1.362 . S
C143 H133 0.930 . S
C143 C136 1.409 . S
C143 C142 1.362 . S
H144 C150 0.930 . S
H145 C153 0.930 . S
H146 C154 0.930 . S
H147 C155 0.930 . S
H148 C158 0.930 . S
H149 C159 0.930 . S
C150 H144 0.930 . S
C150 C151 1.355 . S
C150 C152 1.415 . S
C151 C150 1.355 . S
C151 C153 1.419 . S
C152 C150 1.415 . S
C152 C157 1.425 . S
C152 C159 1.409 . S
C153 H145 0.930 . S
C153 C151 1.419 . S
C153 C154 1.362 . S
C154 H146 0.930 . S
C154 C153 1.362 . S
C154 C157 1.409 . S
C155 H147 0.930 . S
C155 C156 1.355 . S
C155 C157 1.415 . S
C156 C155 1.355 . S
C156 C158 1.419 . S
C157 C152 1.425 . S
C157 C154 1.409 . S
C157 C155 1.415 . S
C158 H148 0.930 . S
C158 C156 1.419 . S
C158 C159 1.362 . S
C159 H149 0.930 . S
C159 C152 1.409 . S
C159 C158 1.362 . S
H160 C166 0.930 . S
H161 C169 0.930 . S
H162 C170 0.930 . S
H163 C171 0.930 . S
H164 C174 0.930 . S
H165 C175 0.930 . S
C166 H160 0.930 . S
C166 C167 1.355 . S
C166 C168 1.415 . S
C167 C166 1.355 . S
C167 C169 1.419 . S
C168 C166 1.415 . S
C168 C173 1.425 . S
C168 C175 1.409 . S
C169 H161 0.930 . S
C169 C167 1.419 . S
C169 C170 1.362 . S
C170 H162 0.930 . S
C170 C169 1.362 . S
C170 C173 1.409 . S
C171 H163 0.930 . S
C171 C172 1.355 . S
C171 C173 1.415 . S
C172 C171 1.355 . S
C172 C174 1.419 . S
C173 C168 1.425 . S
C173 C170 1.409 . S
C173 C171 1.415 . S
C174 H164 0.930 . S
C174 C172 1.419 . S
C174 C175 1.362 . S
C175 H165 0.930 . S
C175 C168 1.409 . S
C175 C174 1.362 . S
H176 C182 0.930 . S
H177 C185 0.930 . S
H178 C186 0.930 . S
H179 C187 0.930 . S
H180 C190 0.930 . S
H181 C191 0.930 . S
C182 H176 0.930 . S
C182 C183 1.355 . S
C182 C184 1.415 . S
C183 C182 1.355 . S
C183 C185 1.419 . S
C184 C182 1.415 . S
C184 C189 1.425 . S
C184 C191 1.409 . S
C185 H177 0.930 . S
C185 C183 1.419 . S
C185 C186 1.362 . S
C186 H178 0.930 . S
C186 C185 1.362 . S
C186 C189 1.409 . S
C187 H179 0.930 . S
C187 C188 1.355 . S
C187 C189 1.415 . S
C188 C187 1.355 . S
C188 C190 1.419 . S
C189 C184 1.425 . S
C189 C186 1.409 . S
C189 C187 1.415 . S
C190 H180 0.930 . S
C190 C188 1.419 . S
C190 C191 1.362 . S
C191 H181 0.930 . S
C191 C184 1.409 . S
C191 C190 1.362 . S
C71 C0 1.349 . S
C76 C53 1.420 . S
C87 C29 1.664 . S
C92 C52 1.713 . S
C103 C30 1.338 . S
C108 C58 1.244 . S
C119 C1 1.480 . S
C124 C59 1.463 . S
C135 C2 1.635 . S
C140 C56 1.698 . S
C156 C54 1.374 . S
C151 C19 1.324 . S
C167 C20 1.521 . S
C172 C55 1.415 . S
C188 C57 1.350 . S
C183 C10 1.368 . S
