# Generated by pormake.
# Topology pts, (4,4)-cn, num edge types: 1
# Building blocks:
#     Node 0, Type 0, BuildingBlock: MUDLON_clean_sbu_0, # of connection points: 4
#     Node 1, Type 0, BuildingBlock: MUDLON_clean_sbu_0, # of connection points: 4
#     Node 2, Type 1, BuildingBlock: QUQFOY_clean_sbu_1, # of connection points: 4
#     Node 3, Type 1, BuildingBlock: QUQFOY_clean_sbu_1, # of connection points: 4
#     Edge 4, Type (0, 1), BuildingBlock: AJUNOK_clean_linker_0, # of connection points: 2
#     Edge 5, Type (0, 1), BuildingBlock: AJUNOK_clean_linker_0, # of connection points: 2
#     Edge 6, Type (0, 1), BuildingBlock: AJUNOK_clean_linker_0, # of connection points: 2
#     Edge 7, Type (0, 1), BuildingBlock: AJUNOK_clean_linker_0, # of connection points: 2
#     Edge 8, Type (0, 1), BuildingBlock: AJUNOK_clean_linker_0, # of connection points: 2
#     Edge 9, Type (0, 1), BuildingBlock: AJUNOK_clean_linker_0, # of connection points: 2
#     Edge 10, Type (0, 1), BuildingBlock: AJUNOK_clean_linker_0, # of connection points: 2
#     Edge 11, Type (0, 1), BuildingBlock: AJUNOK_clean_linker_0, # of connection points: 2
# Relax obj value: 0.129
# Max RMSD: 0.243
# Mean RMSD: 0.143
data_MOF--net-pts--node1-MUDLON_clean_sbu_0--node2-QUQFOY_clean_sbu_1--edge1-AJUNOK_clean_linker_0
_symmetry_space_group_name_H-M    P1
_symmetry_Int_Tables_number       1
_symmetry_cell_setting            triclinic
loop_
_symmetry_equiv_pos_as_xyz
'x, y, z'
_cell_length_a     17.020124
_cell_length_b     17.695886
_cell_length_c     30.102516
_cell_angle_alpha  90.298853
_cell_angle_beta   90.059599
_cell_angle_gamma 89.873123
loop_
_atom_site_label
_atom_site_type_symbol
_atom_site_fract_x
_atom_site_fract_y
_atom_site_fract_z
_atom_type_partial_charge
Mg0 Mg 0.46096 1.02444 0.03291 0.0
C1 C 0.36584 0.02599 0.95732 0.0
O2 O 0.39214 0.09422 0.96607 0.0
C3 C 0.55811 0.02559 0.10743 0.0
O4 O 0.53138 0.09377 0.09907 0.0
C5 C 0.34607 1.01427 0.09719 0.0
O6 O 0.37169 0.94724 0.08492 0.0
O7 O 0.37321 0.0721 0.07731 0.0
O8 O 0.38611 0.97235 0.98307 0.0
O9 O 0.54862 0.07543 0.99021 0.0
C10 C 0.57967 1.0186 0.97072 0.0
O11 O 0.55484 0.95085 0.98159 0.0
O12 O 0.53756 0.97179 0.08159 0.0
Mg13 Mg -0.02854 0.51221 0.53068 0.0
C14 C -0.03109 0.63036 0.59514 0.0
O15 O 0.89839 0.62536 0.57763 0.0
C16 C 0.03155 0.44372 0.44473 0.0
O17 O 0.0072 0.50873 0.42906 0.0
C18 C 0.9562 0.65079 0.47912 0.0
O19 O 0.02325 0.65699 0.50042 0.0
O20 O 0.91394 0.59246 0.4858 0.0
O21 O 0.02249 0.58533 0.58158 0.0
O22 O 0.9072 0.43391 0.57314 0.0
C23 C 0.94748 0.37486 0.58168 0.0
O24 O 0.01577 0.36574 0.56226 0.0
O25 O 0.03707 0.43603 0.4866 0.0
O26 O 0.85947 0.95361 0.23455 0.0
Cd27 Cd 0.95908 0.94111 0.27219 0.0
Cd28 Cd 0.95578 0.09529 0.27138 0.0
O29 O 0.84431 0.07589 0.24613 0.0
O30 O 0.95367 0.8346 0.29311 0.0
O31 O 0.95023 0.93332 0.33854 0.0
C32 C 0.9471 0.86089 0.33296 0.0
C33 C -0.02119 0.19038 0.32428 0.0
C34 C 0.81928 1.01358 0.23029 0.0
C35 C 0.08823 1.01853 0.22326 0.0
O36 O 0.0491 0.07886 0.22912 0.0
O37 O 0.06545 0.957 0.24068 0.0
O38 O 0.96198 0.20587 0.2836 0.0
O39 O -0.0211 0.12009 0.33569 0.0
O40 O 0.87362 0.08363 0.8341 0.0
Cd41 Cd 0.9682 0.09374 0.79216 0.0
Cd42 Cd 0.96329 0.93997 0.7945 0.0
O43 O 0.85885 0.96042 0.82739 0.0
O44 O 0.96246 0.20024 0.77078 0.0
O45 O 0.94932 0.10115 0.7264 0.0
C46 C 0.94914 0.17374 0.73152 0.0
C47 C -0.02773 0.85322 0.73612 0.0
C48 C 0.83571 1.02383 0.84276 0.0
C49 C 0.10424 1.01383 0.83481 0.0
O50 O 0.06442 0.95376 0.83052 0.0
O51 O 0.07883 0.07591 0.81907 0.0
O52 O 0.9668 0.83122 0.77675 0.0
O53 O -0.03063 0.92497 0.7284 0.0
C54 C 0.2338 0.08066 0.13486 0.0
C55 C 0.28606 1.01928 0.1326 0.0
C56 C 0.17112 0.08089 0.16515 0.0
C57 C 0.15861 1.0198 0.19426 0.0
H58 H 0.23955 0.12744 0.11203 0.0
H59 H 0.13082 0.12835 0.16473 0.0
S60 S 0.28624 0.85074 0.20582 0.0
N61 N 0.32639 0.89965 0.16527 0.0
N62 N 0.20878 0.90006 0.22176 0.0
C63 C 0.21299 0.95999 0.19378 0.0
C64 C 0.27667 0.9598 0.16309 0.0
C65 C 0.94095 0.24588 0.61309 0.0
C66 C 0.92843 0.3239 0.61865 0.0
C67 C 0.94377 0.19721 0.64965 0.0
C68 C 0.93631 0.22514 0.6933 0.0
H69 H 0.95215 0.22276 0.58028 0.0
H70 H 0.95584 0.13791 0.64369 0.0
S71 S 0.89887 0.4252 0.72531 0.0
N72 N 0.90456 0.4267 0.67056 0.0
N73 N 0.91105 0.33594 0.73964 0.0
C74 C 0.9204 0.30286 0.69913 0.0
C75 C 0.91609 0.35211 0.6617 0.0
C76 C 0.67103 0.95616 0.14203 0.0
C77 C 0.61663 1.01592 0.14335 0.0
C78 C 0.73466 0.95401 0.1717 0.0
C79 C 0.74618 1.01167 0.20358 0.0
H80 H 0.66671 0.91281 0.11661 0.0
H81 H 0.77706 0.90862 0.16821 0.0
S82 S 0.61239 0.17319 0.22567 0.0
N83 N 0.57249 0.12862 0.18299 0.0
N84 N 0.69238 0.12485 0.23814 0.0
C85 C 0.68925 0.06889 0.20708 0.0
C86 C 0.62437 0.07086 0.17714 0.0
C87 C 0.95235 0.76169 0.62262 0.0
C88 C -0.01725 0.68865 0.6293 0.0
C89 C 0.9521 0.81558 0.65688 0.0
C90 C -0.01987 0.79757 0.69946 0.0
H91 H 0.92674 0.7767 0.59087 0.0
H92 H 0.92669 0.87064 0.65043 0.0
S93 S 0.06894 0.61471 0.73331 0.0
N94 N 0.045 0.60191 0.68061 0.0
N95 N 0.04292 0.70233 0.74573 0.0
C96 C 0.0128 0.72521 0.70619 0.0
C97 C 0.01462 0.67093 0.67088 0.0
C98 C 0.25286 0.9568 0.92268 0.0
C99 C 0.30736 1.0162 0.92138 0.0
C100 C 0.18904 0.95472 0.89316 0.0
C101 C 0.17742 1.01211 0.86144 0.0
H102 H 0.25721 0.91371 0.948 0.0
H103 H 0.14661 0.90961 0.89665 0.0
S104 S 0.31145 0.17244 0.83937 0.0
N105 N 0.35153 0.12814 0.88188 0.0
N106 N 0.23122 0.12451 0.82697 0.0
C107 C 0.23442 0.06892 0.85793 0.0
C108 C 0.29952 0.07082 0.88772 0.0
C109 C 0.02203 0.38711 0.36883 0.0
C110 C 0.03091 0.37639 0.41485 0.0
C111 C 0.00636 0.32651 0.34011 0.0
C112 C -0.00107 0.25217 0.35599 0.0
H113 H 0.02454 0.44333 0.35482 0.0
H114 H -0.00136 0.33863 0.30515 0.0
S115 S 0.02298 0.19189 0.47319 0.0
N116 N 0.03583 0.2843 0.47467 0.0
N117 N 0.00642 0.1704 0.42057 0.0
C118 C 0.01111 0.2398 0.40164 0.0
C119 C 0.02725 0.30178 0.43104 0.0
C120 C 0.66632 0.95876 0.91419 0.0
C121 C 0.64184 0.02491 0.93649 0.0
C122 C 0.72726 0.95974 0.88325 0.0
C123 C 0.76688 0.02697 0.87304 0.0
H124 H 0.63891 0.90485 0.92094 0.0
H125 H 0.74416 0.90669 0.86783 0.0
S126 S 0.72254 0.21716 0.92003 0.0
N127 N 0.65946 0.16048 0.94476 0.0
N128 N 0.77466 0.16286 0.88633 0.0
C129 C 0.74159 0.09433 0.89404 0.0
C130 C 0.679 0.09323 0.92578 0.0
C131 C 0.96573 0.78088 0.44899 0.0
C132 C 0.93859 0.70623 0.44392 0.0
C133 C 0.96486 0.83167 0.41344 0.0
C134 C 0.93857 0.80912 0.37116 0.0
H135 H -0.00961 0.7995 0.48038 0.0
H136 H -0.0115 0.88782 0.41865 0.0
S137 S 0.85473 0.62192 0.34142 0.0
N138 N 0.8785 0.61416 0.39441 0.0
N139 N 0.87869 0.70885 0.32708 0.0
C140 C 0.90779 0.73568 0.36613 0.0
C141 C 0.90715 0.68445 0.40268 0.0
loop_
_geom_bond_atom_site_label_1
_geom_bond_atom_site_label_2
_geom_bond_distance
_geom_bond_site_symmetry_2
_ccdc_geom_bond_type
Mg0 O7 2.141 . S
Mg0 O8 2.048 1_554 S
Mg0 O9 2.048 1_554 S
Mg0 O12 2.141 . S
C1 O2 1.313 . S
C1 O8 1.195 1_565 S
O2 C1 1.313 . S
C3 O4 1.245 . S
C3 O12 1.289 1_565 S
O4 C3 1.245 . S
C5 O6 1.245 . S
C5 O7 1.289 1_565 S
O6 C5 1.245 . S
O7 Mg0 2.141 . S
O7 C5 1.289 1_545 S
O8 Mg0 2.048 1_556 S
O8 C1 1.195 1_545 S
O9 Mg0 2.048 1_556 S
O9 C10 1.195 1_545 S
C10 O9 1.195 1_565 S
C10 O11 1.313 . S
O11 C10 1.313 . S
O12 Mg0 2.141 . S
O12 C3 1.289 1_545 S
Mg13 O20 2.141 . S
Mg13 O21 2.048 . S
Mg13 O22 2.048 . S
Mg13 O25 2.141 . S
C14 O15 1.313 . S
C14 O21 1.195 1_455 S
O15 C14 1.313 . S
C16 O17 1.245 . S
C16 O25 1.289 1_455 S
O17 C16 1.245 . S
C18 O19 1.245 . S
C18 O20 1.289 1_455 S
O19 C18 1.245 . S
O20 Mg13 2.141 . S
O20 C18 1.289 1_655 S
O21 Mg13 2.048 . S
O21 C14 1.195 1_655 S
O22 Mg13 2.048 . S
O22 C23 1.195 1_655 S
C23 O22 1.195 1_455 S
C23 O24 1.313 . S
O24 C23 1.313 . S
O25 Mg13 2.141 . S
O25 C16 1.289 1_655 S
O26 Cd27 2.223 1_655 S
O26 C34 1.315 . S
Cd27 O26 2.223 1_455 S
Cd27 O30 2.297 1_455 S
Cd27 O31 2.439 1_455 S
Cd27 O37 2.240 1_565 S
Cd28 O29 2.240 1_545 S
Cd28 O36 2.223 1_655 S
Cd28 O38 2.297 1_655 S
Cd28 O39 2.439 1_655 S
O29 Cd28 2.240 1_565 S
O29 C34 1.279 . S
O30 Cd27 2.297 1_655 S
O30 C32 1.247 . S
O31 Cd27 2.439 1_655 S
O31 C32 1.208 . S
C32 O30 1.247 . S
C32 O31 1.208 . S
C33 O38 1.247 . S
C33 O39 1.208 . S
C34 O26 1.315 . S
C34 O29 1.279 . S
C35 O36 1.315 . S
C35 O37 1.279 . S
O36 Cd28 2.223 1_455 S
O36 C35 1.315 . S
O37 Cd27 2.240 1_545 S
O37 C35 1.279 . S
O38 Cd28 2.297 1_455 S
O38 C33 1.247 . S
O39 Cd28 2.439 1_455 S
O39 C33 1.208 . S
O40 Cd41 2.223 1_655 S
O40 C48 1.315 . S
Cd41 O40 2.223 1_455 S
Cd41 O44 2.297 1_455 S
Cd41 O45 2.439 1_455 S
Cd41 O51 2.240 1_545 S
Cd42 O43 2.240 1_565 S
Cd42 O50 2.223 1_655 S
Cd42 O52 2.297 1_655 S
Cd42 O53 2.439 1_655 S
O43 Cd42 2.240 1_545 S
O43 C48 1.279 . S
O44 Cd41 2.297 1_655 S
O44 C46 1.247 . S
O45 Cd41 2.439 1_655 S
O45 C46 1.208 . S
C46 O44 1.247 . S
C46 O45 1.208 . S
C47 O52 1.247 . S
C47 O53 1.208 . S
C48 O40 1.315 . S
C48 O43 1.279 . S
C49 O50 1.315 . S
C49 O51 1.279 . S
O50 Cd42 2.223 1_455 S
O50 C49 1.315 . S
O51 Cd41 2.240 1_565 S
O51 C49 1.279 . S
O52 Cd42 2.297 1_455 S
O52 C47 1.247 . S
O53 Cd42 2.439 1_455 S
O53 C47 1.208 . S
C54 C55 1.369 . S
C54 C56 1.419 . S
C54 H58 0.930 . S
C55 C54 1.369 . S
C55 C64 1.429 1_545 S
C56 C54 1.419 . S
C56 C57 1.363 . S
C56 H59 0.929 . S
C57 C56 1.363 . S
C57 C63 1.428 1_545 S
H58 C54 0.930 . S
H59 C56 0.929 . S
S60 N61 1.613 . S
S60 N62 1.610 . S
N61 S60 1.613 . S
N61 C64 1.350 . S
N62 S60 1.610 . S
N62 C63 1.351 . S
C63 C57 1.428 1_565 S
C63 N62 1.351 . S
C63 C64 1.434 . S
C64 C55 1.429 1_565 S
C64 N61 1.350 . S
C64 C63 1.434 . S
C65 C66 1.369 . S
C65 C67 1.419 . S
C65 H69 0.930 . S
C66 C65 1.369 . S
C66 C75 1.429 1_655 S
C67 C65 1.419 . S
C67 C68 1.363 . S
C67 H70 0.929 . S
C68 C67 1.363 . S
C68 C74 1.428 . S
H69 C65 0.930 . S
H70 C67 0.929 . S
S71 N72 1.613 . S
S71 N73 1.610 . S
N72 S71 1.613 . S
N72 C75 1.350 . S
N73 S71 1.610 . S
N73 C74 1.351 1_455 S
C74 C68 1.428 . S
C74 N73 1.351 1_655 S
C74 C75 1.434 1_655 S
C75 C66 1.429 1_455 S
C75 N72 1.350 . S
C75 C74 1.434 1_455 S
C76 C77 1.369 . S
C76 C78 1.419 . S
C76 H80 0.930 . S
C77 C76 1.369 . S
C77 C86 1.429 . S
C78 C76 1.419 . S
C78 C79 1.363 . S
C78 H81 0.929 . S
C79 C78 1.363 . S
C79 C85 1.428 . S
H80 C76 0.930 . S
H81 C78 0.929 . S
S82 N83 1.613 . S
S82 N84 1.610 . S
N83 S82 1.613 . S
N83 C86 1.350 . S
N84 S82 1.610 . S
N84 C85 1.351 . S
C85 C79 1.428 . S
C85 N84 1.351 . S
C85 C86 1.434 . S
C86 C77 1.429 . S
C86 N83 1.350 . S
C86 C85 1.434 . S
C87 C88 1.369 . S
C87 C89 1.419 . S
C87 H91 0.930 . S
C88 C87 1.369 . S
C88 C97 1.429 1_455 S
C89 C87 1.419 . S
C89 C90 1.363 . S
C89 H92 0.929 . S
C90 C89 1.363 . S
C90 C96 1.428 1_455 S
H91 C87 0.930 . S
H92 C89 0.929 . S
S93 N94 1.613 . S
S93 N95 1.610 . S
N94 S93 1.613 . S
N94 C97 1.350 . S
N95 S93 1.610 . S
N95 C96 1.351 . S
C96 C90 1.428 1_655 S
C96 N95 1.351 . S
C96 C97 1.434 . S
C97 C88 1.429 1_655 S
C97 N94 1.350 . S
C97 C96 1.434 . S
C98 C99 1.369 . S
C98 C100 1.419 . S
C98 H102 0.930 . S
C99 C98 1.369 . S
C99 C108 1.429 . S
C100 C98 1.419 . S
C100 C101 1.363 . S
C100 H103 0.929 . S
C101 C100 1.363 . S
C101 C107 1.428 . S
H102 C98 0.930 . S
H103 C100 0.929 . S
S104 N105 1.613 . S
S104 N106 1.610 1_545 S
N105 S104 1.613 . S
N105 C108 1.350 1_545 S
N106 S104 1.610 1_565 S
N106 C107 1.351 . S
C107 C101 1.428 . S
C107 N106 1.351 . S
C107 C108 1.434 . S
C108 C99 1.429 . S
C108 N105 1.350 1_565 S
C108 C107 1.434 . S
C109 C110 1.369 . S
C109 C111 1.419 . S
C109 H113 0.930 . S
C110 C109 1.369 . S
C110 C119 1.429 1_455 S
C111 C109 1.419 . S
C111 C112 1.363 . S
C111 H114 0.929 . S
C112 C111 1.363 . S
C112 C118 1.428 1_455 S
H113 C109 0.930 . S
H114 C111 0.929 . S
S115 N116 1.613 . S
S115 N117 1.610 . S
N116 S115 1.613 . S
N116 C119 1.350 . S
N117 S115 1.610 . S
N117 C118 1.351 . S
C118 C112 1.428 1_655 S
C118 N117 1.351 . S
C118 C119 1.434 . S
C119 C110 1.429 1_655 S
C119 N116 1.350 . S
C119 C118 1.434 . S
C120 C121 1.368 1_565 S
C120 C122 1.416 1_565 S
C120 H124 0.935 . S
C121 C120 1.368 1_545 S
C121 C130 1.429 . S
C122 C120 1.416 1_545 S
C122 C123 1.363 . S
C122 H125 0.929 . S
C123 C122 1.363 . S
C123 C129 1.428 . S
H124 C120 0.935 . S
H125 C122 0.929 . S
S126 N127 1.613 . S
S126 N128 1.610 . S
N127 S126 1.613 . S
N127 C130 1.350 . S
N128 S126 1.610 . S
N128 C129 1.351 . S
C129 C123 1.428 . S
C129 N128 1.351 . S
C129 C130 1.434 . S
C130 C121 1.429 . S
C130 N127 1.350 . S
C130 C129 1.434 . S
C131 C132 1.369 . S
C131 C133 1.419 . S
C131 H135 0.930 . S
C132 C131 1.369 . S
C132 C141 1.429 1_655 S
C133 C131 1.419 . S
C133 C134 1.363 . S
C133 H136 0.929 . S
C134 C133 1.363 . S
C134 C140 1.428 . S
H135 C131 0.930 . S
H136 C133 0.929 . S
S137 N138 1.613 . S
S137 N139 1.610 . S
N138 S137 1.613 . S
N138 C141 1.350 . S
N139 S137 1.610 . S
N139 C140 1.351 1_455 S
C140 C134 1.428 . S
C140 N139 1.351 1_655 S
C140 C141 1.434 1_655 S
C141 C132 1.429 1_455 S
C141 N138 1.350 . S
C141 C140 1.434 1_455 S
C57 C35 1.524 . S
C55 C5 1.522 1_545 S
C68 C46 1.533 . S
C66 C23 1.614 1_655 S
C79 C34 1.524 . S
C77 C3 1.495 . S
C90 C47 1.532 . S
C88 C14 1.591 . S
C101 C49 1.577 . S
C99 C1 1.555 . S
C112 C33 1.479 . S
C110 C16 1.518 . S
C123 C48 1.577 . S
C121 C10 1.579 1_545 S
C132 C18 1.553 1_655 S
C134 C32 1.478 . S
