# Generated by pormake.
# Topology tsx, (6,3)-cn, num edge types: 1
# Building blocks:
#     Node 0, Type 0, BuildingBlock: MIDCAF_clean_sbu_0, # of connection points: 6
#     Node 1, Type 0, BuildingBlock: MIDCAF_clean_sbu_0, # of connection points: 6
#     Node 2, Type 1, BuildingBlock: WUSLED_clean_sbu_0, # of connection points: 3
#     Node 3, Type 1, BuildingBlock: WUSLED_clean_sbu_0, # of connection points: 3
#     Node 4, Type 1, BuildingBlock: WUSLED_clean_sbu_0, # of connection points: 3
#     Node 5, Type 1, BuildingBlock: WUSLED_clean_sbu_0, # of connection points: 3
#     Edge 6, Type (0, 1), None
#     Edge 7, Type (0, 1), None
#     Edge 8, Type (0, 1), None
#     Edge 9, Type (0, 1), None
#     Edge 10, Type (0, 1), None
#     Edge 11, Type (0, 1), None
#     Edge 12, Type (0, 1), None
#     Edge 13, Type (0, 1), None
#     Edge 14, Type (0, 1), None
#     Edge 15, Type (0, 1), None
#     Edge 16, Type (0, 1), None
#     Edge 17, Type (0, 1), None
# Relax obj value: 0.113
# Max RMSD: 0.179
# Mean RMSD: 0.110
data_MOF--net-tsx--node1-MIDCAF_clean_sbu_0--node2-WUSLED_clean_sbu_0--edge1-none
_symmetry_space_group_name_H-M    P1
_symmetry_Int_Tables_number       1
_symmetry_cell_setting            triclinic
loop_
_symmetry_equiv_pos_as_xyz
'x, y, z'
_cell_length_a     13.328712
_cell_length_b     15.169618
_cell_length_c     28.938277
_cell_angle_alpha  89.577391
_cell_angle_beta   103.2034
_cell_angle_gamma 91.020132
loop_
_atom_site_label
_atom_site_type_symbol
_atom_site_fract_x
_atom_site_fract_y
_atom_site_fract_z
_atom_type_partial_charge
Zn0 Zn 0.92983 0.99667 0.95904 0.0
Zn1 Zn 0.22533 0.96843 0.0705 0.0
Zn2 Zn 0.09618 0.045 0.01438 0.0
C3 C 0.30399 0.13162 0.04866 0.0
C4 C 0.2152 0.8678 1.00151 0.0
O5 O 1.02095 0.9467 0.05115 0.0
O6 O 0.91178 0.88391 0.99159 0.0
C7 C 0.90472 0.16541 0.96892 0.0
O8 O 0.20816 0.145 0.04644 0.0
O9 O 0.33484 0.05277 0.05245 0.0
O10 O 0.20652 0.84827 0.04293 0.0
O11 O 0.19097 0.94595 0.98537 0.0
O12 O 0.84439 0.1 0.96788 0.0
O13 O 1.00187 0.15274 0.97877 0.0
O14 O 0.14678 0.01272 0.94957 0.0
O15 O 0.99191 1.00015 0.9017 0.0
C16 C 0.08868 1.00647 0.90742 0.0
O17 O 0.1381 0.11623 0.08317 0.0
O18 O 0.1794 0.99972 0.12883 0.0
C19 C 0.95591 0.88491 0.03512 0.0
C20 C 0.1535 0.07964 0.12439 0.0
Zn21 Zn 0.7249 0.46846 0.57041 0.0
Zn22 Zn 0.4293 0.49691 0.45903 0.0
Zn23 Zn 0.59575 0.54516 0.51436 0.0
C24 C 0.58808 0.50678 0.40737 0.0
C25 C 0.40426 0.66563 0.46897 0.0
O26 O 0.63782 0.6163 0.58317 0.0
O27 O 0.67906 0.49971 0.62877 0.0
C28 C 0.71463 0.36795 0.50137 0.0
O29 O 0.64623 0.51297 0.44951 0.0
O30 O 0.49131 0.50045 0.40168 0.0
O31 O 0.34391 0.60023 0.46793 0.0
O32 O 0.50141 0.65293 0.47879 0.0
O33 O 0.70596 0.34835 0.54278 0.0
O34 O 0.69044 0.44613 0.48528 0.0
O35 O 0.70786 0.64507 0.54643 0.0
O36 O 0.83446 0.55278 0.55239 0.0
C37 C 0.80367 0.63164 0.54864 0.0
O38 O 0.52056 0.4468 0.55112 0.0
O39 O 0.41126 0.38412 0.49156 0.0
C40 C 0.65324 0.57966 0.62438 0.0
C41 C 0.45548 0.38505 0.53509 0.0
C42 C 0.90914 0.19293 0.44797 0.0
C43 C 0.89851 0.28027 0.43113 0.0
C44 C 0.76944 0.30593 0.4769 0.0
C45 C 0.82905 0.33651 0.44557 0.0
C46 C 0.77588 0.21686 0.491 0.0
C47 C 0.84511 0.16106 0.47672 0.0
U48 U 0.08891 0.10887 0.37166 0.0
O49 O 0.12703 0.97315 0.35754 0.0
O50 O 0.2497 0.06375 0.39388 0.0
C51 C 0.22473 0.98289 0.379 0.0
C52 C 0.98991 0.13501 0.43877 0.0
C53 C 0.27174 0.90974 0.41014 0.0
C54 C 0.25543 0.76888 0.4487 0.0
C55 C 0.21113 0.84635 0.42734 0.0
C56 C 0.42286 0.81973 0.43929 0.0
C57 C 0.36121 0.75342 0.45351 0.0
C58 C 0.37834 0.89691 0.41757 0.0
C59 C 0.09095 0.18819 0.25016 0.0
C60 C 0.1984 0.10102 0.21154 0.0
C61 C 1.06353 0.19017 0.16411 0.0
C62 C 1.03782 0.21974 0.20572 0.0
C63 C 0.14121 0.12761 0.1668 0.0
C64 C 0.1737 0.13119 0.2528 0.0
C65 C 1.05057 0.20085 0.29276 0.0
O66 O 0.95997 0.07641 0.405 0.0
O67 O 0.07939 0.1728 0.43837 0.0
O68 O 0.11862 0.22621 0.33103 0.0
O69 O 0.99161 0.13501 0.30091 0.0
H70 H 0.94673 0.30593 0.40849 0.0
H71 H 0.82657 0.40494 0.43449 0.0
H72 H 0.73076 0.19121 0.51501 0.0
H73 H 0.85157 0.09374 0.48975 0.0
H74 H 0.20595 0.71963 0.45987 0.0
H75 H 0.12881 0.85468 0.42241 0.0
H76 H 0.50454 0.81009 0.44261 0.0
H77 H 0.42657 0.94479 0.4045 0.0
H78 H 0.25904 0.0532 0.21461 0.0
H79 H 1.01795 0.21111 0.12998 0.0
H80 H 0.97292 0.263 0.20306 0.0
H81 H 0.21504 0.10544 0.28672 0.0
C82 C 1.02257 0.84807 0.55784 0.0
C83 C 0.91684 0.86396 0.5531 0.0
C84 C 0.87826 0.70619 0.5504 0.0
C85 C 0.84567 0.7939 0.54954 0.0
C86 C 0.98312 0.69033 0.55298 0.0
C87 C 1.05432 0.76037 0.5565 0.0
U88 U 0.18906 0.99517 0.64879 0.0
O89 O 0.34626 0.05117 0.65921 0.0
O90 O 0.21453 0.13857 0.6536 0.0
C91 C 0.31427 0.13295 0.65701 0.0
C92 C 0.09986 0.92166 0.56794 0.0
C93 C 0.3563 0.1927 0.62575 0.0
C94 C 0.35835 0.24725 0.54709 0.0
C95 C 0.3236 0.18594 0.57637 0.0
C96 C 0.46126 0.32151 0.61623 0.0
C97 C 0.42641 0.31658 0.56667 0.0
C98 C 0.4262 0.26001 0.64553 0.0
C99 C 0.15494 0.94861 0.77522 0.0
C100 C 0.15338 0.05498 0.83739 0.0
C101 C 0.13025 0.89901 0.85161 0.0
C102 C 0.14205 0.88003 0.8061 0.0
C103 C 0.13208 0.9867 0.86675 0.0
C104 C 0.16531 0.036 0.79175 0.0
C105 C 0.13931 0.92898 0.72452 0.0
O106 O 0.06747 0.99511 0.58307 0.0
O107 O 0.19294 0.90063 0.59172 0.0
O108 O 0.21965 0.90252 0.70948 0.0
O109 O 0.08253 0.98575 0.69594 0.0
H110 H 0.88908 0.93059 0.55336 0.0
H111 H 0.76532 0.80856 0.54692 0.0
H112 H 1.01072 0.6236 0.55299 0.0
H113 H 0.13476 0.7456 0.55944 0.0
H114 H 0.33016 0.24109 0.50904 0.0
H115 H 0.26963 0.13434 0.56053 0.0
H116 H 0.51344 0.37396 0.6324 0.0
H117 H 0.45206 0.26606 0.68371 0.0
H118 H 0.15324 0.1231 0.84839 0.0
H119 H 0.11235 0.84574 0.87373 0.0
H120 H 0.13351 0.81237 0.79386 0.0
H121 H 0.17513 0.08985 0.76829 0.0
C122 C 0.40973 0.69271 0.94816 0.0
C123 C 0.399 0.78001 0.93126 0.0
C124 C 0.27004 0.80574 0.97708 0.0
C125 C 0.32955 0.83626 0.94568 0.0
C126 C 0.2766 0.71671 0.99125 0.0
C127 C 0.34582 0.6609 0.97698 0.0
U128 U 0.58931 0.60868 0.87176 0.0
O129 O 0.62737 0.47297 0.85758 0.0
O130 O 0.7501 0.56353 0.8939 0.0
C131 C 0.72508 0.48269 0.87901 0.0
C132 C 0.49046 0.63478 0.93893 0.0
C133 C 0.77213 0.40952 0.91012 0.0
C134 C 0.75585 0.26862 0.94867 0.0
C135 C 0.71154 0.3461 0.92732 0.0
C136 C 0.92327 0.31952 0.93925 0.0
C137 C 0.86164 0.25319 0.95347 0.0
C138 C 0.87872 0.3967 0.91755 0.0
C139 C 0.59107 0.6881 0.75025 0.0
C140 C 0.69835 0.60093 0.71153 0.0
C141 C 0.56345 0.69018 0.66419 0.0
C142 C 0.53787 0.71971 0.70584 0.0
C143 C 0.64108 0.62758 0.66683 0.0
C144 C 0.67377 0.63107 0.75283 0.0
C145 C 0.55081 0.70073 0.79288 0.0
O146 O 0.46046 0.57619 0.90516 0.0
O147 O 0.57993 0.67256 0.9385 0.0
O148 O 0.61894 0.72605 0.83113 0.0
O149 O 0.49187 0.63488 0.80105 0.0
H150 H 0.44712 0.80562 0.90856 0.0
H151 H 0.32699 0.90466 0.93456 0.0
H152 H 0.23157 0.69111 0.0153 0.0
H153 H 0.35236 0.59361 0.99006 0.0
H154 H 0.7064 0.21935 0.95983 0.0
H155 H 0.62921 0.35441 0.9224 0.0
H156 H 1.00495 0.3099 0.94256 0.0
H157 H 0.92694 0.4446 0.90448 0.0
H158 H 0.75895 0.55308 0.71456 0.0
H159 H 0.51782 0.71116 0.63008 0.0
H160 H 0.47301 0.763 0.70322 0.0
H161 H 0.71517 0.60527 0.78673 0.0
C162 C 0.52275 0.34814 0.05782 0.0
C163 C 0.41701 0.36399 0.05311 0.0
C164 C 0.37853 0.20621 0.05041 0.0
C165 C 0.34589 0.2939 0.04956 0.0
C166 C 0.48339 0.19039 0.05296 0.0
C167 C 0.55454 0.26046 0.05647 0.0
U168 U 0.68895 0.49538 0.14879 0.0
O169 O 0.84619 0.55133 0.15931 0.0
O170 O 0.71446 0.63878 0.15355 0.0
C171 C 0.81422 0.63312 0.15705 0.0
C172 C 0.60001 0.42176 0.06794 0.0
C173 C 0.8564 0.69278 0.1258 0.0
C174 C 0.85876 0.74713 0.04713 0.0
C175 C 0.82389 0.6859 0.07642 0.0
C176 C 0.96142 0.82156 0.11628 0.0
C177 C 0.92675 0.81651 0.06671 0.0
C178 C 0.92624 0.76013 0.14558 0.0
C179 C 0.65438 0.44898 0.27517 0.0
C180 C 0.65261 0.55536 0.33731 0.0
C181 C 0.62973 0.39936 0.35156 0.0
C182 C 0.64158 0.3804 0.30606 0.0
C183 C 0.63142 0.48705 0.36668 0.0
C184 C 0.66459 0.53638 0.29167 0.0
C185 C 0.63889 0.42931 0.22447 0.0
O186 O 0.56755 0.49524 0.083 0.0
O187 O 0.69305 0.40075 0.09179 0.0
O188 O 0.71929 0.40279 0.20951 0.0
O189 O 0.58222 0.48607 0.19585 0.0
H190 H 0.38922 0.4306 0.05339 0.0
H191 H 0.26554 0.30852 0.04697 0.0
H192 H 0.51102 0.12368 0.05296 0.0
H193 H 0.63498 0.24573 0.05939 0.0
H194 H 0.83072 0.74088 0.00908 0.0
H195 H 0.76997 0.63427 0.06057 0.0
H196 H 1.01353 0.87404 0.13245 0.0
H197 H 0.95194 0.76628 0.18376 0.0
H198 H 0.65236 0.62347 0.34829 0.0
H199 H 0.61192 0.34608 0.37369 0.0
H200 H 0.63316 0.31272 0.29383 0.0
H201 H 0.67434 0.59024 0.2682 0.0
loop_
_geom_bond_atom_site_label_1
_geom_bond_atom_site_label_2
_geom_bond_distance
_geom_bond_site_symmetry_2
_ccdc_geom_bond_type
Zn0 O6 1.920 1_545 S
Zn0 O12 1.898 . S
Zn0 O15 1.905 1_545 S
Zn1 O9 1.905 . S
Zn1 O10 1.898 1_545 S
Zn1 O18 1.920 1_545 S
Zn2 O5 2.080 1_445 S
Zn2 O8 2.114 . S
Zn2 O11 2.120 1_545 S
Zn2 O13 2.120 1_455 S
Zn2 O14 2.114 1_554 S
Zn2 O17 2.080 . S
C3 O8 1.166 . S
C3 O9 1.182 . S
C4 O10 1.167 . S
C4 O11 1.299 . S
O5 Zn2 2.080 1_665 S
O5 C19 1.305 . S
O6 Zn0 1.920 1_565 S
O6 C19 1.234 1_556 S
C7 O12 1.167 . S
C7 O13 1.299 1_556 S
O8 Zn2 2.114 . S
O8 C3 1.166 . S
O9 Zn1 1.905 . S
O9 C3 1.182 . S
O10 Zn1 1.898 1_565 S
O10 C4 1.167 . S
O11 Zn2 2.120 1_565 S
O11 C4 1.299 . S
O12 Zn0 1.898 . S
O12 C7 1.167 . S
O13 Zn2 2.120 1_655 S
O13 C7 1.299 1_554 S
O14 Zn2 2.114 1_556 S
O14 C16 1.166 1_445 S
O15 Zn0 1.905 1_565 S
O15 C16 1.182 . S
C16 O14 1.166 1_665 S
C16 O15 1.182 . S
O17 Zn2 2.080 . S
O17 C20 1.305 1_545 S
O18 Zn1 1.920 1_565 S
O18 C20 1.234 . S
C19 O5 1.305 . S
C19 O6 1.234 1_554 S
C20 O17 1.305 1_565 S
C20 O18 1.234 . S
Zn21 O27 1.920 . S
Zn21 O33 1.898 . S
Zn21 O36 1.905 . S
Zn22 O30 1.905 . S
Zn22 O31 1.898 . S
Zn22 O39 1.920 . S
Zn23 O26 2.080 . S
Zn23 O29 2.114 . S
Zn23 O32 2.120 . S
Zn23 O34 2.120 . S
Zn23 O35 2.114 . S
Zn23 O38 2.080 . S
C24 O29 1.166 . S
C24 O30 1.182 . S
C25 O31 1.167 . S
C25 O32 1.299 . S
O26 Zn23 2.080 . S
O26 C40 1.305 . S
O27 Zn21 1.920 . S
O27 C40 1.234 . S
C28 O33 1.167 . S
C28 O34 1.299 . S
O29 Zn23 2.114 . S
O29 C24 1.166 . S
O30 Zn22 1.905 . S
O30 C24 1.182 . S
O31 Zn22 1.898 . S
O31 C25 1.167 . S
O32 Zn23 2.120 . S
O32 C25 1.299 . S
O33 Zn21 1.898 . S
O33 C28 1.167 . S
O34 Zn23 2.120 . S
O34 C28 1.299 . S
O35 Zn23 2.114 . S
O35 C37 1.166 . S
O36 Zn21 1.905 . S
O36 C37 1.182 . S
C37 O35 1.166 . S
C37 O36 1.182 . S
O38 Zn23 2.080 . S
O38 C41 1.305 . S
O39 Zn22 1.920 . S
O39 C41 1.234 . S
C40 O26 1.305 . S
C40 O27 1.234 . S
C41 O38 1.305 . S
C41 O39 1.234 . S
C42 C43 1.264 . S
C42 C47 1.479 . S
C42 C52 1.465 1_655 S
C43 C42 1.264 . S
C43 C45 1.339 . S
C43 H70 0.931 . S
C44 C45 1.395 . S
C44 C46 1.320 . S
C45 C43 1.339 . S
C45 C44 1.395 . S
C45 H71 0.929 . S
C46 C44 1.320 . S
C46 C47 1.405 . S
C46 H72 0.930 . S
C47 C42 1.479 . S
C47 C46 1.405 . S
C47 H73 0.931 . S
U48 O49 2.454 1_545 S
U48 O50 2.458 1_545 S
U48 C51 2.984 1_545 S
U48 C52 2.847 . S
U48 C65 2.882 . S
U48 O66 2.441 . S
U48 O67 2.420 . S
U48 O68 2.455 . S
U48 O69 2.449 . S
O49 U48 2.454 1_565 S
O49 C51 1.353 . S
O50 U48 2.458 1_565 S
O50 C51 1.286 . S
C51 U48 2.984 1_565 S
C51 O49 1.353 . S
C51 O50 1.286 . S
C51 C53 1.363 . S
C52 C42 1.465 1_455 S
C52 U48 2.847 . S
C52 O66 1.249 . S
C52 O67 1.202 . S
C53 C51 1.363 . S
C53 C55 1.408 . S
C53 C58 1.342 . S
C54 C55 1.310 . S
C54 C57 1.461 . S
C54 H74 0.932 . S
C55 C53 1.408 . S
C55 C54 1.310 . S
C55 H75 0.930 . S
C56 C57 1.474 . S
C56 C58 1.285 . S
C56 H76 0.929 . S
C57 C54 1.461 . S
C57 C56 1.474 . S
C58 C53 1.342 . S
C58 C56 1.285 . S
C58 H77 0.930 . S
C59 C62 1.424 . S
C59 C64 1.245 . S
C59 C65 1.428 . S
C60 C63 1.260 . S
C60 C64 1.477 . S
C60 H78 0.932 1_545 S
C61 C62 1.384 . S
C61 C63 1.479 . S
C61 H79 0.929 1_455 S
C62 C59 1.424 . S
C62 C61 1.384 . S
C62 H80 0.928 . S
C63 C60 1.260 . S
C63 C61 1.479 . S
C64 C59 1.245 . S
C64 C60 1.477 . S
C64 H81 0.932 1_545 S
C65 U48 2.882 . S
C65 C59 1.428 . S
C65 O68 1.301 . S
C65 O69 1.282 . S
O66 U48 2.441 . S
O66 C52 1.249 . S
O67 U48 2.420 . S
O67 C52 1.202 . S
O68 U48 2.455 . S
O68 C65 1.301 . S
O69 U48 2.449 . S
O69 C65 1.282 . S
H70 C43 0.931 . S
H71 C45 0.929 . S
H72 C46 0.930 . S
H73 C47 0.931 . S
H74 C54 0.932 . S
H75 C55 0.930 . S
H76 C56 0.929 . S
H77 C58 0.930 . S
H78 C60 0.932 1_565 S
H79 C61 0.929 1_655 S
H80 C62 0.928 . S
H81 C64 0.932 1_565 S
C82 C83 1.264 . S
C82 C87 1.479 . S
C82 C92 1.465 . S
C83 C82 1.264 . S
C83 C85 1.339 . S
C83 H110 0.931 . S
C84 C85 1.395 . S
C84 C86 1.320 . S
C85 C83 1.339 . S
C85 C84 1.395 . S
C85 H111 0.929 . S
C86 C84 1.320 . S
C86 C87 1.405 . S
C86 H112 0.930 . S
C87 C82 1.479 . S
C87 C86 1.405 . S
C87 H113 0.931 . S
U88 O89 2.454 1_565 S
U88 O90 2.458 1_565 S
U88 C91 2.984 1_565 S
U88 C92 2.847 1_455 S
U88 C105 2.882 . S
U88 O106 2.441 1_455 S
U88 O107 2.420 1_455 S
U88 O108 2.455 1_565 S
U88 O109 2.449 . S
O89 U88 2.454 1_545 S
O89 C91 1.353 . S
O90 U88 2.458 1_545 S
O90 C91 1.286 . S
C91 U88 2.984 1_545 S
C91 O89 1.353 . S
C91 O90 1.286 . S
C91 C93 1.363 . S
C92 C82 1.465 . S
C92 U88 2.847 1_655 S
C92 O106 1.249 . S
C92 O107 1.202 . S
C93 C91 1.363 . S
C93 C95 1.408 . S
C93 C98 1.342 . S
C94 C95 1.310 . S
C94 C97 1.461 . S
C94 H114 0.932 . S
C95 C93 1.408 . S
C95 C94 1.310 . S
C95 H115 0.930 . S
C96 C97 1.474 . S
C96 C98 1.285 . S
C96 H116 0.929 . S
C97 C94 1.461 . S
C97 C96 1.474 . S
C98 C93 1.342 . S
C98 C96 1.285 . S
C98 H117 0.930 . S
C99 C102 1.424 1_445 S
C99 C104 1.245 . S
C99 C105 1.428 1_545 S
C100 C103 1.260 . S
C100 C104 1.477 . S
C100 H118 0.932 . S
C101 C102 1.384 . S
C101 C103 1.479 1_665 S
C101 H119 0.929 . S
C102 C99 1.424 1_665 S
C102 C101 1.384 . S
C102 H120 0.928 . S
C103 C100 1.260 . S
C103 C101 1.479 1_445 S
C104 C99 1.245 . S
C104 C100 1.477 . S
C104 H121 0.932 . S
C105 U88 2.882 . S
C105 C99 1.428 1_565 S
C105 O108 1.301 1_565 S
C105 O109 1.282 . S
O106 U88 2.441 1_655 S
O106 C92 1.249 . S
O107 U88 2.420 1_655 S
O107 C92 1.202 . S
O108 U88 2.455 1_545 S
O108 C105 1.301 1_545 S
O109 U88 2.449 . S
O109 C105 1.282 . S
H110 C83 0.931 . S
H111 C85 0.929 . S
H112 C86 0.930 . S
H113 C87 0.931 . S
H114 C94 0.932 . S
H115 C95 0.930 . S
H116 C96 0.929 . S
H117 C98 0.930 . S
H118 C100 0.932 . S
H119 C101 0.929 . S
H120 C102 0.928 . S
H121 C104 0.932 . S
C122 C123 1.264 . S
C122 C127 1.479 1_556 S
C122 C132 1.465 . S
C123 C122 1.264 . S
C123 C125 1.339 . S
C123 H150 0.931 . S
C124 C125 1.395 1_554 S
C124 C126 1.320 . S
C125 C123 1.339 . S
C125 C124 1.395 1_556 S
C125 H151 0.929 . S
C126 C124 1.320 . S
C126 C127 1.405 . S
C126 H152 0.930 . S
C127 C122 1.479 1_554 S
C127 C126 1.405 . S
C127 H153 0.931 . S
U128 O129 2.454 . S
U128 O130 2.458 . S
U128 C131 2.984 . S
U128 C132 2.847 . S
U128 C145 2.882 . S
U128 O146 2.441 . S
U128 O147 2.420 . S
U128 O148 2.455 . S
U128 O149 2.449 . S
O129 U128 2.454 . S
O129 C131 1.353 . S
O130 U128 2.458 . S
O130 C131 1.286 . S
C131 U128 2.984 . S
C131 O129 1.353 . S
C131 O130 1.286 . S
C131 C133 1.363 . S
C132 C122 1.465 . S
C132 U128 2.847 . S
C132 O146 1.249 . S
C132 O147 1.202 . S
C133 C131 1.363 . S
C133 C135 1.408 1_556 S
C133 C138 1.342 . S
C134 C135 1.310 . S
C134 C137 1.461 . S
C134 H154 0.932 . S
C135 C133 1.408 1_554 S
C135 C134 1.310 . S
C135 H155 0.930 . S
C136 C137 1.474 1_556 S
C136 C138 1.285 . S
C136 H156 0.929 . S
C137 C134 1.461 . S
C137 C136 1.474 1_554 S
C138 C133 1.342 . S
C138 C136 1.285 . S
C138 H157 0.930 . S
C139 C142 1.424 . S
C139 C144 1.245 . S
C139 C145 1.428 . S
C140 C143 1.260 . S
C140 C144 1.477 . S
C140 H158 0.932 . S
C141 C142 1.384 . S
C141 C143 1.479 . S
C141 H159 0.929 . S
C142 C139 1.424 . S
C142 C141 1.384 . S
C142 H160 0.928 . S
C143 C140 1.260 . S
C143 C141 1.479 . S
C144 C139 1.245 . S
C144 C140 1.477 . S
C144 H161 0.932 . S
C145 U128 2.882 . S
C145 C139 1.428 . S
C145 O148 1.301 . S
C145 O149 1.282 . S
O146 U128 2.441 . S
O146 C132 1.249 . S
O147 U128 2.420 . S
O147 C132 1.202 . S
O148 U128 2.455 . S
O148 C145 1.301 . S
O149 U128 2.449 . S
O149 C145 1.282 . S
H150 C123 0.931 . S
H151 C125 0.929 . S
H152 C126 0.930 . S
H153 C127 0.931 . S
H154 C134 0.932 . S
H155 C135 0.930 . S
H156 C136 0.929 . S
H157 C138 0.930 . S
H158 C140 0.932 . S
H159 C141 0.929 . S
H160 C142 0.928 . S
H161 C144 0.932 . S
C162 C163 1.264 . S
C162 C167 1.479 1_554 S
C162 C172 1.465 . S
C163 C162 1.264 . S
C163 C165 1.339 . S
C163 H190 0.931 . S
C164 C165 1.395 1_556 S
C164 C166 1.320 . S
C165 C163 1.339 . S
C165 C164 1.395 1_554 S
C165 H191 0.929 . S
C166 C164 1.320 . S
C166 C167 1.405 . S
C166 H192 0.930 . S
C167 C162 1.479 1_556 S
C167 C166 1.405 . S
C167 H193 0.931 . S
U168 O169 2.454 . S
U168 O170 2.458 . S
U168 C171 2.984 . S
U168 C172 2.847 . S
U168 C185 2.882 . S
U168 O186 2.441 . S
U168 O187 2.420 . S
U168 O188 2.455 . S
U168 O189 2.449 . S
O169 U168 2.454 . S
O169 C171 1.353 . S
O170 U168 2.458 . S
O170 C171 1.286 . S
C171 U168 2.984 . S
C171 O169 1.353 . S
C171 O170 1.286 . S
C171 C173 1.363 . S
C172 C162 1.465 . S
C172 U168 2.847 . S
C172 O186 1.249 . S
C172 O187 1.202 . S
C173 C171 1.363 . S
C173 C175 1.408 1_554 S
C173 C178 1.342 . S
C174 C175 1.310 . S
C174 C177 1.455 1_556 S
C174 H194 0.932 . S
C175 C173 1.408 1_556 S
C175 C174 1.310 . S
C175 H195 0.930 . S
C176 C177 1.485 . S
C176 C178 1.285 . S
C176 H196 0.929 . S
C177 C174 1.455 1_554 S
C177 C176 1.485 . S
C178 C173 1.342 . S
C178 C176 1.285 . S
C178 H197 0.930 . S
C179 C182 1.424 . S
C179 C184 1.245 . S
C179 C185 1.428 . S
C180 C183 1.260 . S
C180 C184 1.477 . S
C180 H198 0.932 . S
C181 C182 1.384 . S
C181 C183 1.479 . S
C181 H199 0.929 . S
C182 C179 1.424 . S
C182 C181 1.384 . S
C182 H200 0.928 . S
C183 C180 1.260 . S
C183 C181 1.479 . S
C184 C179 1.245 . S
C184 C180 1.477 . S
C184 H201 0.932 . S
C185 U168 2.882 . S
C185 C179 1.428 . S
C185 O188 1.301 . S
C185 O189 1.282 . S
O186 U168 2.441 . S
O186 C172 1.249 . S
O187 U168 2.420 . S
O187 C172 1.202 . S
O188 U168 2.455 . S
O188 C185 1.301 . S
O189 U168 2.449 . S
O189 C185 1.282 . S
H190 C163 0.931 . S
H191 C165 0.929 . S
H192 C166 0.930 . S
H193 C167 0.931 . S
H194 C174 0.932 . S
H195 C175 0.930 . S
H196 C176 0.929 . S
H197 C178 0.930 . S
H198 C180 0.932 . S
H199 C181 0.929 . S
H200 C182 0.928 . S
H201 C184 0.932 . S
C164 C3 1.771 1_556 S
C4 C124 1.708 . S
C19 C177 1.721 . S
C7 C137 1.824 1_556 S
C37 C84 1.771 . S
C28 C44 1.708 . S
C97 C41 1.720 . S
C57 C25 1.824 . S
C20 C63 1.619 1_565 S
C16 C103 1.473 1_665 S
C143 C40 1.619 . S
C24 C183 1.473 . S
