# Generated by pormake.
# Topology pth, (4,4)-cn, num edge types: 1
# Building blocks:
#     Node 0, Type 0, BuildingBlock: QUQFOY_clean_sbu_3, # of connection points: 4
#     Node 1, Type 0, BuildingBlock: QUQFOY_clean_sbu_3, # of connection points: 4
#     Node 2, Type 0, BuildingBlock: QUQFOY_clean_sbu_3, # of connection points: 4
#     Node 3, Type 1, BuildingBlock: MUDLON_clean_sbu_0, # of connection points: 4
#     Node 4, Type 1, BuildingBlock: MUDLON_clean_sbu_0, # of connection points: 4
#     Node 5, Type 1, BuildingBlock: MUDLON_clean_sbu_0, # of connection points: 4
#     Edge 6, Type (0, 1), None
#     Edge 7, Type (0, 1), None
#     Edge 8, Type (0, 1), None
#     Edge 9, Type (0, 1), None
#     Edge 10, Type (0, 1), None
#     Edge 11, Type (0, 1), None
#     Edge 12, Type (0, 1), None
#     Edge 13, Type (0, 1), None
#     Edge 14, Type (0, 1), None
#     Edge 15, Type (0, 1), None
#     Edge 16, Type (0, 1), None
#     Edge 17, Type (0, 1), None
# Relax obj value: 0.016
# Max RMSD: 0.069
# Mean RMSD: 0.054
data_MOF--net-pth--node1-QUQFOY_clean_sbu_3--node2-MUDLON_clean_sbu_0--edge1-none
_symmetry_space_group_name_H-M    P1
_symmetry_Int_Tables_number       1
_symmetry_cell_setting            triclinic
loop_
_symmetry_equiv_pos_as_xyz
'x, y, z'
_cell_length_a     10.659501
_cell_length_b     10.708486
_cell_length_c     28.446387
_cell_angle_alpha  90.296188
_cell_angle_beta   90.950258
_cell_angle_gamma 119.38455
loop_
_atom_site_label
_atom_site_type_symbol
_atom_site_fract_x
_atom_site_fract_y
_atom_site_fract_z
_atom_type_partial_charge
C0 C 0.82524 0.23065 0.1372 0.0
O1 O 0.75716 0.21583 0.09873 0.0
Cd2 Cd 0.79439 0.09977 0.03171 0.0
O3 O 0.90688 0.17545 0.1421 0.0
Cd4 Cd 0.98574 0.02392 0.09802 0.0
C5 C 0.15966 0.31047 0.02746 0.0
O6 O 0.77866 0.87096 0.04891 0.0
O7 O 0.98382 0.8992 0.0258 0.0
O8 O 0.90808 0.86754 0.16312 0.0
C9 C 0.84777 0.83299 0.0216 0.0
O10 O 0.03775 0.27485 0.00824 0.0
C11 C 0.01859 0.85328 0.16866 0.0
O12 O 0.17143 0.24228 0.06244 0.0
O13 O 0.1249 0.92669 0.14237 0.0
C14 C 0.31368 0.13157 0.4908 0.0
O15 O 0.40055 0.22017 0.4619 0.0
Cd16 Cd 0.30096 0.21713 0.3851 0.0
O17 O 0.17949 0.06006 0.48079 0.0
Cd18 Cd 0.98981 0.03162 0.42312 0.0
C19 C 0.09207 0.85274 0.35478 0.0
O20 O 0.11395 0.27904 0.38917 0.0
O21 O 0.92722 0.11101 0.35261 0.0
O22 O 0.87287 0.04166 0.49463 0.0
C23 C 0.02406 0.24121 0.35498 0.0
O24 O 0.20474 0.97499 0.35187 0.0
C25 C 0.74526 0.95332 0.48119 0.0
O26 O 0.98888 0.83423 0.38079 0.0
O27 O 0.72865 0.90008 0.44013 0.0
C28 C 0.88509 0.13252 0.70474 0.0
O29 O 0.89757 0.22732 0.73423 0.0
Cd30 Cd -0.00801 0.216 0.81127 0.0
O31 O 0.93818 0.05152 0.71392 0.0
Cd32 Cd 0.08265 -0.00408 0.76974 0.0
C33 C 0.7735 0.85562 0.82943 0.0
O34 O 0.22441 0.22393 0.80984 0.0
O35 O 0.19408 0.03596 0.84769 0.0
O36 O 0.2206 0.01753 0.70091 0.0
C37 C 0.25522 0.17126 0.84538 0.0
O38 O 0.80409 -0.01672 0.84023 0.0
C39 C 0.24749 0.91726 0.71024 0.0
O40 O 0.85344 0.83021 0.80262 0.0
O41 O 0.19455 0.84742 0.74754 0.0
Mg42 Mg 0.02227 0.53107 0.2562 0.0
C43 C 0.01312 0.34319 0.32364 0.0
O44 O 0.88335 0.31985 0.31229 0.0
C45 C 0.01306 0.74807 0.20268 0.0
O46 O 0.89385 0.67786 0.2262 0.0
C47 C 0.83181 0.33344 0.17309 0.0
O48 O 0.81323 0.44075 0.16008 0.0
O49 O 0.89292 0.3397 0.21245 0.0
O50 O 0.12106 0.44257 0.30294 0.0
O51 O 0.96287 0.63041 0.31184 0.0
C52 C 0.08295 0.73573 0.32566 0.0
O53 O 0.20213 0.75161 0.3073 0.0
O54 O 0.10939 0.7106 0.20696 0.0
Mg55 Mg 0.556 0.05155 0.59868 0.0
C56 C 0.36688 0.09643 0.53375 0.0
O57 O 0.28059 0.97629 0.55467 0.0
C58 C 0.79357 0.09961 0.66229 0.0
O59 O 0.76298 -0.01755 0.63851 0.0
C60 C 0.35051 0.89865 0.68154 0.0
O61 O 0.45871 0.89383 0.70246 0.0
O62 O 0.36035 0.93642 0.6389 0.0
O63 O 0.49867 0.16647 0.54709 0.0
O64 O 0.64584 0.95044 0.55428 0.0
C65 C 0.62334 0.92947 0.51022 0.0
O66 O 0.51212 0.93111 0.49043 0.0
O67 O 0.72556 0.16642 0.65214 0.0
Mg68 Mg 0.48329 0.56702 0.92913 0.0
C69 C 0.33413 0.26168 0.88599 0.0
O70 O 0.29178 0.21634 0.92865 0.0
C71 C 0.77497 0.73738 0.98146 0.0
O72 O 0.83275 0.77084 0.93987 0.0
C73 C 0.29116 0.41774 1.0052 0.0
O74 O 0.41255 0.42183 0.01709 0.0
O75 O 0.28646 0.48489 0.96883 0.0
O76 O 0.42383 0.39223 0.87926 0.0
O77 O 0.57792 0.75048 0.88289 0.0
C78 C 0.65722 0.73414 0.85312 0.0
O79 O 0.65611 0.61126 0.85092 0.0
O80 O 0.6441 0.64251 0.98539 0.0
loop_
_geom_bond_atom_site_label_1
_geom_bond_atom_site_label_2
_geom_bond_distance
_geom_bond_site_symmetry_2
_ccdc_geom_bond_type
C0 O1 1.306 1_455 S
C0 O3 1.160 . S
O1 C0 1.306 1_655 S
O1 Cd2 2.228 . S
Cd2 O1 2.228 . S
Cd2 O6 2.273 1_545 S
Cd2 O10 2.277 1_655 S
O3 C0 1.160 . S
O3 Cd4 2.203 . S
Cd4 O3 2.203 . S
Cd4 O6 2.411 1_445 S
Cd4 O7 2.333 1_445 S
Cd4 O8 2.352 1_445 S
Cd4 O12 2.277 . S
Cd4 O13 2.356 1_545 S
C5 O10 1.209 . S
C5 O12 1.226 . S
O6 Cd2 2.273 1_565 S
O6 Cd4 2.411 1_665 S
O6 C9 1.320 . S
O7 Cd4 2.333 1_665 S
O7 C9 1.214 . S
O8 Cd4 2.352 1_665 S
O8 C11 1.258 1_655 S
C9 O6 1.320 . S
C9 O7 1.214 . S
O10 Cd2 2.277 1_455 S
O10 C5 1.209 . S
C11 O8 1.258 1_455 S
C11 O13 1.282 . S
O12 Cd4 2.277 . S
O12 C5 1.226 . S
O13 Cd4 2.356 1_565 S
O13 C11 1.282 . S
C14 O15 1.306 . S
C14 O17 1.160 1_545 S
O15 C14 1.306 . S
O15 Cd16 2.228 . S
Cd16 O15 2.228 . S
Cd16 O20 2.273 . S
Cd16 O24 2.277 1_545 S
O17 C14 1.160 1_565 S
O17 Cd18 2.203 1_465 S
Cd18 O17 2.203 1_645 S
Cd18 O20 2.411 1_655 S
Cd18 O21 2.333 . S
Cd18 O22 2.352 . S
Cd18 O26 2.277 1_545 S
Cd18 O27 2.356 1_545 S
C19 O24 1.209 . S
C19 O26 1.226 1_455 S
O20 Cd16 2.273 . S
O20 Cd18 2.411 1_455 S
O20 C23 1.320 . S
O21 Cd18 2.333 . S
O21 C23 1.214 1_655 S
O22 Cd18 2.352 . S
O22 C25 1.258 . S
C23 O20 1.320 . S
C23 O21 1.214 1_455 S
O24 Cd16 2.277 1_565 S
O24 C19 1.209 . S
C25 O22 1.258 . S
C25 O27 1.282 1_545 S
O26 Cd18 2.277 1_565 S
O26 C19 1.226 1_655 S
O27 Cd18 2.356 1_565 S
O27 C25 1.282 1_565 S
C28 O29 1.306 . S
C28 O31 1.160 . S
O29 C28 1.306 . S
O29 Cd30 2.228 . S
Cd30 O29 2.228 . S
Cd30 O34 2.273 1_655 S
Cd30 O38 2.277 1_545 S
O31 C28 1.160 . S
O31 Cd32 2.203 1_655 S
Cd32 O31 2.203 1_455 S
Cd32 O34 2.411 . S
Cd32 O35 2.333 . S
Cd32 O36 2.352 . S
Cd32 O40 2.277 1_445 S
Cd32 O41 2.356 1_545 S
C33 O38 1.209 . S
C33 O40 1.226 . S
O34 Cd30 2.273 1_455 S
O34 Cd32 2.411 . S
O34 C37 1.320 . S
O35 Cd32 2.333 . S
O35 C37 1.214 . S
O36 Cd32 2.352 . S
O36 C39 1.258 . S
C37 O34 1.320 . S
C37 O35 1.214 . S
O38 Cd30 2.277 1_565 S
O38 C33 1.209 . S
C39 O36 1.258 . S
C39 O41 1.282 1_545 S
O40 Cd32 2.277 1_665 S
O40 C33 1.226 . S
O41 Cd32 2.356 1_565 S
O41 C39 1.282 1_565 S
Mg42 O49 2.141 . S
Mg42 O50 2.048 . S
Mg42 O51 2.048 . S
Mg42 O54 2.141 . S
C43 O44 1.313 1_455 S
C43 O50 1.195 . S
O44 C43 1.313 1_655 S
C45 O46 1.245 1_455 S
C45 O54 1.289 . S
O46 C45 1.245 1_655 S
C47 O48 1.245 1_455 S
C47 O49 1.289 . S
O48 C47 1.245 1_655 S
O49 Mg42 2.141 . S
O49 C47 1.289 . S
O50 Mg42 2.048 . S
O50 C43 1.195 . S
O51 Mg42 2.048 . S
O51 C52 1.195 . S
C52 O51 1.195 . S
C52 O53 1.313 1_455 S
O53 C52 1.313 1_655 S
O54 Mg42 2.141 . S
O54 C45 1.289 . S
Mg55 O62 2.141 . S
Mg55 O63 2.048 . S
Mg55 O64 2.048 . S
Mg55 O67 2.141 . S
C56 O57 1.313 1_545 S
C56 O63 1.195 . S
O57 C56 1.313 1_565 S
C58 O59 1.245 1_545 S
C58 O67 1.289 . S
O59 C58 1.245 1_565 S
C60 O61 1.245 1_545 S
C60 O62 1.289 . S
O61 C60 1.245 1_565 S
O62 Mg55 2.141 . S
O62 C60 1.289 . S
O63 Mg55 2.048 . S
O63 C56 1.195 . S
O64 Mg55 2.048 . S
O64 C65 1.195 . S
C65 O64 1.195 . S
C65 O66 1.313 1_545 S
O66 C65 1.313 1_565 S
O67 Mg55 2.141 . S
O67 C58 1.289 . S
Mg68 O75 2.141 . S
Mg68 O76 2.048 . S
Mg68 O77 2.048 . S
Mg68 O80 2.141 . S
C69 O70 1.313 . S
C69 O76 1.195 . S
O70 C69 1.313 . S
C71 O72 1.245 . S
C71 O80 1.289 . S
O72 C71 1.245 . S
C73 O74 1.245 . S
C73 O75 1.289 . S
O74 C73 1.245 . S
O75 Mg68 2.141 . S
O75 C73 1.289 . S
O76 Mg68 2.048 . S
O76 C69 1.195 . S
O77 Mg68 2.048 . S
O77 C78 1.195 . S
C78 O77 1.195 . S
C78 O79 1.313 . S
O79 C78 1.313 . S
O80 Mg68 2.141 . S
O80 C71 1.289 . S
C47 C0 1.410 . S
C25 C65 1.497 . S
C33 C78 1.517 . S
C11 C45 1.365 . S
C56 C14 1.521 . S
C37 C69 1.497 . S
C58 C28 1.443 . S
C9 C71 1.393 1_554 S
C52 C19 1.544 . S
C60 C39 1.404 . S
C73 C5 1.406 1_556 S
C23 C43 1.570 . S
