# Generated by pormake.
# Topology rtl, (3,6)-cn, num edge types: 1
# Building blocks:
#     Node 0, Type 0, BuildingBlock: OLANEW_clean_sbu_2, # of connection points: 3
#     Node 1, Type 0, BuildingBlock: OLANEW_clean_sbu_2, # of connection points: 3
#     Node 2, Type 0, BuildingBlock: OLANEW_clean_sbu_2, # of connection points: 3
#     Node 3, Type 0, BuildingBlock: OLANEW_clean_sbu_2, # of connection points: 3
#     Node 4, Type 1, BuildingBlock: FUNLAD_clean_sbu_0, # of connection points: 6
#     Node 5, Type 1, BuildingBlock: FUNLAD_clean_sbu_0, # of connection points: 6
#     Edge 6, Type (0, 1), None
#     Edge 7, Type (0, 1), None
#     Edge 8, Type (0, 1), None
#     Edge 9, Type (0, 1), None
#     Edge 10, Type (0, 1), None
#     Edge 11, Type (0, 1), None
#     Edge 12, Type (0, 1), None
#     Edge 13, Type (0, 1), None
#     Edge 14, Type (0, 1), None
#     Edge 15, Type (0, 1), None
#     Edge 16, Type (0, 1), None
#     Edge 17, Type (0, 1), None
# Relax obj value: 0.020
# Max RMSD: 0.109
# Mean RMSD: 0.076
data_MOF--net-rtl--node1-OLANEW_clean_sbu_2--node2-FUNLAD_clean_sbu_0--edge1-none
_symmetry_space_group_name_H-M    P1
_symmetry_Int_Tables_number       1
_symmetry_cell_setting            triclinic
loop_
_symmetry_equiv_pos_as_xyz
'x, y, z'
_cell_length_a     22.774571
_cell_length_b     22.310761
_cell_length_c     10.620257
_cell_angle_alpha  83.622391
_cell_angle_beta   97.427629
_cell_angle_gamma 92.889431
loop_
_atom_site_label
_atom_site_type_symbol
_atom_site_fract_x
_atom_site_fract_y
_atom_site_fract_z
_atom_type_partial_charge
O0 O 0.09055 0.82474 0.77811 0.0
Cd1 Cd 0.12188 0.73314 0.91261 0.0
O2 O 0.10888 0.867 0.95613 0.0
Cd3 Cd 0.10012 0.93784 0.07764 0.0
O4 O 0.08515 0.97851 0.2478 0.0
C5 C 0.03641 0.9673 0.2935 0.0
O6 O 0.99496 0.93368 0.23464 0.0
C7 C 0.09085 0.87113 0.83745 0.0
C8 C 0.2276 0.68576 0.87048 0.0
O9 O 0.17762 0.66529 0.81913 0.0
O10 O 0.2276 0.72984 0.93828 0.0
O11 O 0.58381 0.70881 0.77739 0.0
Cd12 Cd 0.61031 0.80223 0.64495 0.0
O13 O 0.62426 0.66 0.647 0.0
Cd14 Cd 0.62897 0.58808 0.53402 0.0
O15 O 0.60353 0.57788 0.336 0.0
C16 C 0.56246 0.60663 0.26546 0.0
O17 O 0.53164 0.6449 0.31293 0.0
C18 C 0.59335 0.65887 0.73789 0.0
C19 C 0.72358 0.85805 0.66135 0.0
O20 O 0.68392 0.87439 0.72465 0.0
O21 O 0.71088 0.81304 0.59611 0.0
O22 O 0.89059 0.20807 0.44745 0.0
Cd23 Cd 0.87475 0.28177 0.25541 0.0
O24 O 0.95656 0.19658 0.32191 0.0
Cd25 Cd 0.02034 0.14811 0.24014 0.0
O26 O 0.03666 0.115 0.06266 0.0
C27 C 0.99396 0.08725 0.00152 0.0
O28 O 0.94379 0.07689 0.05013 0.0
C29 C 0.93496 0.18042 0.42526 0.0
C30 C 0.77041 0.34294 0.17781 0.0
O31 O 0.77399 0.28789 0.15628 0.0
O32 O 0.81481 0.36771 0.24226 0.0
O33 O 0.45214 0.3346 0.75461 0.0
Cd34 Cd 0.41422 0.25459 0.61945 0.0
O35 O 0.39985 0.39072 0.60616 0.0
Cd36 Cd 0.37074 0.46584 0.47414 0.0
O37 O 0.3873 0.46814 0.27745 0.0
C38 C 0.42405 0.4333 0.24483 0.0
O39 O 0.45162 0.39422 0.33117 0.0
C40 C 0.43676 0.38704 0.70641 0.0
C41 C 0.3053 0.19452 0.65097 0.0
O42 O 0.35424 0.16993 0.69698 0.0
O43 O 0.30763 0.24834 0.59475 0.0
C44 C 0.02772 0.98913 0.41468 0.0
N45 N 0.13912 0.09751 0.6525 0.0
C46 C 0.18947 0.06695 0.65326 0.0
C47 C 0.24464 0.09773 0.65706 0.0
C48 C 0.24794 0.16075 0.65651 0.0
C49 C 0.19547 0.19123 0.65515 0.0
C50 C 0.14144 0.15853 0.65512 0.0
Zn51 Zn 0.05795 0.05145 0.64889 0.0
C52 C 0.95947 0.12915 0.51106 0.0
N53 N 0.88727 0.95898 0.64205 0.0
C54 C 0.88069 0.90352 0.59871 0.0
C55 C 0.84259 0.98235 0.69269 0.0
C56 C 0.78911 0.94948 0.70231 0.0
C57 C 0.78107 0.89224 0.65795 0.0
C58 C 0.82764 0.86947 0.60493 0.0
Zn59 Zn 0.96784 1.0056 0.64126 0.0
O60 O 0.06992 0.01727 0.47651 0.0
C61 C 0.06521 0.92667 0.77257 0.0
O62 O 0.9786 0.97872 0.45964 0.0
H63 H 0.84852 0.02645 0.72666 0.0
H64 H 0.18699 0.01862 0.65011 0.0
H65 H 0.91687 0.88529 0.5602 0.0
O66 O 0.09737 0.97443 0.7568 0.0
O67 O 0.01041 0.92681 0.73098 0.0
H68 H 0.10131 0.18214 0.65675 0.0
O69 O 0.96027 0.03367 0.82338 0.0
O70 O 0.04537 0.0847 0.82194 0.0
O71 O 0.92604 0.08523 0.54878 0.0
O72 O 0.01539 0.12629 0.53793 0.0
C73 C 1.00015 0.06766 0.87688 0.0
H74 H 0.2841 0.07264 0.65663 0.0
H75 H 0.19622 0.23982 0.65509 0.0
H76 H 0.75418 0.96911 0.74265 0.0
H77 H 0.82333 0.82563 0.56925 0.0
C78 C 0.46294 0.44037 0.76691 0.0
N79 N 0.61957 0.44457 0.02192 0.0
C80 C 0.6142 0.3832 0.03804 0.0
C81 C 0.66317 0.34881 0.08799 0.0
C82 C 0.71779 0.37794 0.12447 0.0
C83 C 0.72224 0.44119 0.10569 0.0
C84 C 0.67257 0.47372 0.05285 0.0
Zn85 Zn 0.54519 0.49436 0.96833 0.0
C86 C 0.56165 0.60344 0.7865 0.0
N87 N 0.38753 0.59464 0.87828 0.0
C88 C 0.33483 0.5661 0.84188 0.0
C89 C 0.39024 0.65378 0.89991 0.0
C90 C 0.33834 0.68544 0.89284 0.0
C91 C 0.28326 0.65624 0.86096 0.0
C92 C 0.28196 0.59641 0.83124 0.0
Zn93 Zn 0.46238 0.5453 0.92126 0.0
O94 O 0.51251 0.43461 0.83574 0.0
C95 C 0.44712 0.45033 0.12339 0.0
O96 O 0.4333 0.48723 0.76967 0.0
H97 H 0.43253 0.67583 0.92796 0.0
H98 H 0.57158 0.36082 0.01474 0.0
H99 H 0.33339 0.51891 0.82674 0.0
O100 O 0.50077 0.44096 0.11174 0.0
O101 O 0.4183 0.48788 0.04423 0.0
H102 H 0.67611 0.52246 0.03937 0.0
O103 O 0.49229 0.59625 0.0807 0.0
O104 O 0.57591 0.54928 0.10385 0.0
O105 O 0.50814 0.60799 0.80447 0.0
O106 O 0.58885 0.55541 0.83112 0.0
C107 C 0.5436 0.58647 0.14044 0.0
H108 H 0.658 0.30007 0.10056 0.0
H109 H 0.76381 0.46536 0.1308 0.0
H110 H 0.34123 0.7317 0.91571 0.0
H111 H 0.24035 0.57216 0.80695 0.0
loop_
_geom_bond_atom_site_label_1
_geom_bond_atom_site_label_2
_geom_bond_distance
_geom_bond_site_symmetry_2
_ccdc_geom_bond_type
O0 Cd1 2.300 1_556 S
O0 C7 1.275 . S
Cd1 O0 2.300 1_554 S
Cd1 O9 2.381 1_554 S
Cd1 O10 2.378 . S
O2 Cd3 2.385 1_566 S
O2 C7 1.255 . S
Cd3 O2 2.385 1_544 S
Cd3 O4 2.317 1_545 S
O4 Cd3 2.317 1_565 S
O4 C5 1.232 . S
C5 O4 1.232 . S
C5 O6 1.218 1_565 S
O6 C5 1.218 1_545 S
C7 O0 1.275 . S
C7 O2 1.255 . S
C8 O9 1.258 1_554 S
C8 O10 1.256 . S
O9 Cd1 2.381 1_556 S
O9 C8 1.258 1_556 S
O10 Cd1 2.378 . S
O10 C8 1.256 . S
O11 Cd12 2.300 . S
O11 C18 1.275 . S
Cd12 O11 2.300 . S
Cd12 O20 2.381 . S
Cd12 O21 2.378 . S
O13 Cd14 2.385 . S
O13 C18 1.255 . S
Cd14 O13 2.385 . S
Cd14 O15 2.317 . S
O15 Cd14 2.317 . S
O15 C16 1.232 . S
C16 O15 1.232 . S
C16 O17 1.218 . S
O17 C16 1.218 . S
C18 O11 1.275 . S
C18 O13 1.255 . S
C19 O20 1.258 . S
C19 O21 1.256 . S
O20 Cd12 2.381 . S
O20 C19 1.258 . S
O21 Cd12 2.378 . S
O21 C19 1.256 . S
O22 Cd23 2.300 . S
O22 C29 1.275 . S
Cd23 O22 2.300 . S
Cd23 O31 2.381 . S
Cd23 O32 2.378 . S
O24 Cd25 2.385 1_655 S
O24 C29 1.255 . S
Cd25 O24 2.385 1_455 S
Cd25 O26 2.317 1_454 S
O26 Cd25 2.317 1_656 S
O26 C27 1.232 . S
C27 O26 1.232 . S
C27 O28 1.218 1_655 S
O28 C27 1.218 1_455 S
C29 O22 1.275 . S
C29 O24 1.255 . S
C30 O31 1.258 . S
C30 O32 1.256 . S
O31 Cd23 2.381 . S
O31 C30 1.258 . S
O32 Cd23 2.378 . S
O32 C30 1.256 . S
O33 Cd34 2.300 . S
O33 C40 1.275 . S
Cd34 O33 2.300 . S
Cd34 O42 2.381 . S
Cd34 O43 2.378 . S
O35 Cd36 2.385 . S
O35 C40 1.255 . S
Cd36 O35 2.385 . S
Cd36 O37 2.317 . S
O37 Cd36 2.317 . S
O37 C38 1.232 . S
C38 O37 1.232 . S
C38 O39 1.218 . S
O39 C38 1.218 . S
C40 O33 1.275 . S
C40 O35 1.255 . S
C41 O42 1.258 . S
C41 O43 1.256 . S
O42 Cd34 2.381 . S
O42 C41 1.258 . S
O43 Cd34 2.378 . S
O43 C41 1.256 . S
C44 O60 1.251 1_565 S
C44 O62 1.254 . S
N45 C46 1.333 . S
N45 C50 1.307 . S
N45 Zn51 2.020 . S
C46 N45 1.333 . S
C46 C47 1.379 . S
C46 H64 0.952 . S
C47 C46 1.379 . S
C47 C48 1.390 . S
C47 H74 0.949 . S
C48 C47 1.390 . S
C48 C49 1.357 . S
C49 C48 1.357 . S
C49 C50 1.370 . S
C49 H75 0.950 . S
C50 N45 1.307 . S
C50 C49 1.370 . S
C50 H68 0.948 . S
Zn51 N45 2.020 . S
Zn51 O60 2.039 . S
Zn51 O66 2.034 1_545 S
Zn51 O70 2.025 1_455 S
Zn51 O72 2.024 1_455 S
C52 O71 1.246 . S
C52 O72 1.249 . S
N53 C54 1.307 . S
N53 C55 1.333 . S
N53 Zn59 2.020 . S
C54 N53 1.307 . S
C54 C58 1.370 . S
C54 H65 0.948 . S
C55 N53 1.333 . S
C55 C56 1.379 . S
C55 H63 0.952 . S
C56 C55 1.379 . S
C56 C57 1.390 . S
C56 H76 0.949 . S
C57 C56 1.390 . S
C57 C58 1.357 . S
C58 C54 1.370 . S
C58 C57 1.357 . S
C58 H77 0.950 . S
Zn59 N53 2.020 . S
Zn59 O62 2.025 1_655 S
Zn59 O67 2.024 1_655 S
Zn59 O69 2.039 1_565 S
Zn59 O71 2.034 1_565 S
O60 C44 1.251 1_545 S
O60 Zn51 2.039 . S
C61 O66 1.246 . S
C61 O67 1.249 . S
O62 C44 1.254 . S
O62 Zn59 2.025 1_455 S
H63 C55 0.952 . S
H64 C46 0.952 . S
H65 C54 0.948 . S
O66 Zn51 2.034 1_565 S
O66 C61 1.246 . S
O67 Zn59 2.024 1_455 S
O67 C61 1.249 . S
H68 C50 0.948 . S
O69 Zn59 2.039 1_545 S
O69 C73 1.251 . S
O70 Zn51 2.025 1_655 S
O70 C73 1.254 . S
O71 C52 1.246 . S
O71 Zn59 2.034 1_545 S
O72 Zn51 2.024 1_655 S
O72 C52 1.249 . S
C73 O69 1.251 . S
C73 O70 1.254 . S
H74 C47 0.949 . S
H75 C49 0.950 . S
H76 C56 0.949 . S
H77 C58 0.950 . S
C78 O94 1.251 . S
C78 O96 1.254 . S
N79 C80 1.333 . S
N79 C84 1.307 . S
N79 Zn85 2.020 . S
C80 N79 1.333 . S
C80 C81 1.379 . S
C80 H98 0.952 1_554 S
C81 C80 1.379 . S
C81 C82 1.390 . S
C81 H108 0.949 . S
C82 C81 1.390 . S
C82 C83 1.357 . S
C83 C82 1.357 . S
C83 C84 1.370 . S
C83 H109 0.950 . S
C84 N79 1.307 . S
C84 C83 1.370 . S
C84 H102 0.948 . S
Zn85 N79 2.020 . S
Zn85 O94 2.039 1_554 S
Zn85 O100 2.034 . S
Zn85 O104 2.025 . S
Zn85 O106 2.024 1_554 S
C86 O105 1.246 . S
C86 O106 1.249 . S
N87 C88 1.307 1_554 S
N87 C89 1.333 . S
N87 Zn93 2.020 . S
C88 N87 1.307 1_556 S
C88 C92 1.370 . S
C88 H99 0.948 . S
C89 N87 1.333 . S
C89 C90 1.379 . S
C89 H97 0.952 . S
C90 C89 1.379 . S
C90 C91 1.390 . S
C90 H110 0.949 . S
C91 C90 1.390 . S
C91 C92 1.357 1_554 S
C92 C88 1.370 . S
C92 C91 1.357 1_556 S
C92 H111 0.950 . S
Zn93 N87 2.020 . S
Zn93 O96 2.025 1_554 S
Zn93 O101 2.024 . S
Zn93 O103 2.039 . S
Zn93 O105 2.034 1_554 S
O94 C78 1.251 . S
O94 Zn85 2.039 1_556 S
C95 O100 1.246 . S
C95 O101 1.249 . S
O96 C78 1.254 . S
O96 Zn93 2.025 1_556 S
H97 C89 0.952 . S
H98 C80 0.952 1_556 S
H99 C88 0.948 . S
O100 Zn85 2.034 . S
O100 C95 1.246 . S
O101 Zn93 2.024 . S
O101 C95 1.249 . S
H102 C84 0.948 . S
O103 Zn93 2.039 . S
O103 C107 1.251 . S
O104 Zn85 2.025 . S
O104 C107 1.254 . S
O105 C86 1.246 . S
O105 Zn93 2.034 1_556 S
O106 Zn85 2.024 1_556 S
O106 C86 1.249 . S
C107 O103 1.251 . S
C107 O104 1.254 . S
H108 C81 0.949 . S
H109 C83 0.950 . S
H110 C90 0.949 . S
H111 C92 0.950 . S
C48 C41 1.528 . S
C8 C91 1.565 . S
C19 C57 1.570 . S
C30 C82 1.601 . S
C44 C5 1.465 . S
C86 C18 1.736 . S
C29 C52 1.593 . S
C40 C78 1.725 . S
C107 C16 1.160 . S
C73 C27 1.221 . S
C95 C38 1.167 . S
C7 C61 1.338 . S
