# Generated by pormake.
# Topology bcu-b, (8,8)-cn, num edge types: 1
# Building blocks:
#     Node 0, Type 0, BuildingBlock: TAGTUT_clean_sbu_1, # of connection points: 8
#     Node 1, Type 1, BuildingBlock: TAGTUT_clean_sbu_1, # of connection points: 8
#     Edge 2, Type (0, 1), BuildingBlock: EYOCIG_clean_linker_4, # of connection points: 2
#     Edge 3, Type (0, 1), BuildingBlock: EYOCIG_clean_linker_4, # of connection points: 2
#     Edge 4, Type (0, 1), BuildingBlock: EYOCIG_clean_linker_4, # of connection points: 2
#     Edge 5, Type (0, 1), BuildingBlock: EYOCIG_clean_linker_4, # of connection points: 2
#     Edge 6, Type (0, 1), BuildingBlock: EYOCIG_clean_linker_4, # of connection points: 2
#     Edge 7, Type (0, 1), BuildingBlock: EYOCIG_clean_linker_4, # of connection points: 2
#     Edge 8, Type (0, 1), BuildingBlock: EYOCIG_clean_linker_4, # of connection points: 2
#     Edge 9, Type (0, 1), BuildingBlock: EYOCIG_clean_linker_4, # of connection points: 2
# Relax obj value: 0.014
# Max RMSD: 0.072
# Mean RMSD: 0.072
data_MOF--net-bcu-b--node1-TAGTUT_clean_sbu_1--node2-TAGTUT_clean_sbu_1--edge1-EYOCIG_clean_linker_4
_symmetry_space_group_name_H-M    P1
_symmetry_Int_Tables_number       1
_symmetry_cell_setting            triclinic
loop_
_symmetry_equiv_pos_as_xyz
'x, y, z'
_cell_length_a     16.513114
_cell_length_b     16.131248
_cell_length_c     17.928038
_cell_angle_alpha  89.912353
_cell_angle_beta   92.084385
_cell_angle_gamma 110.3708
loop_
_atom_site_label
_atom_site_type_symbol
_atom_site_fract_x
_atom_site_fract_y
_atom_site_fract_z
_atom_type_partial_charge
C0 C 0.80392 0.13384 0.06893 0.0
C1 C 0.86193 0.14441 0.83949 0.0
C2 C 0.85258 0.80492 0.87375 0.0
Mg3 Mg 0.97062 0.15953 -0.01603 0.0
O4 O 0.92618 0.03757 -0.00018 0.0
Mg5 Mg 0.80895 -0.03083 0.95597 0.0
Mg6 Mg -0.00494 -0.03283 0.96684 0.0
O7 O 0.06375 0.89667 0.93379 0.0
Mg8 Mg 0.01919 0.77459 0.94923 0.0
Mg9 Mg 0.18098 0.96491 -0.02245 0.0
C10 C 0.13733 0.12944 0.05972 0.0
C11 C 0.13888 0.08928 0.85226 0.0
O12 O 0.76401 0.05897 0.03587 0.0
O13 O 0.88196 0.18186 0.05697 0.0
O14 O 0.81616 0.06842 0.86261 0.0
O15 O 0.93259 0.19125 0.87312 0.0
O16 O 0.09872 0.18176 0.03587 0.0
O17 O 0.11005 0.0462 0.04389 0.0
C18 C 0.85119 0.84506 0.08142 0.0
O19 O 0.93023 0.86852 0.06237 0.0
O20 O 0.79708 0.87391 0.04866 0.0
O21 O 0.2258 0.8752 0.89744 0.0
O22 O 0.10781 0.75241 0.87612 0.0
O23 O 0.17366 0.86542 0.07074 0.0
C24 C 0.18587 0.80043 0.86424 0.0
O25 O 0.05725 0.74256 0.05997 0.0
O26 O 0.89107 0.75235 0.89727 0.0
C27 C 0.12788 0.78935 0.0937 0.0
O28 O 0.88019 0.88805 0.88993 0.0
O29 O 0.05985 0.06582 0.87132 0.0
O30 O 0.19296 0.06036 0.88499 0.0
C31 C 0.30138 0.63107 0.56871 0.0
C32 C 0.35966 0.64245 0.33929 0.0
C33 C 0.35375 0.30387 0.37384 0.0
Mg34 Mg 0.4685 0.65862 0.48386 0.0
O35 O 0.42518 0.53663 0.49958 0.0
Mg36 Mg 0.30824 0.46719 0.45575 0.0
Mg37 Mg 0.49506 0.46717 0.46684 0.0
O38 O 0.56476 0.39762 0.43402 0.0
Mg39 Mg 0.52131 0.2755 0.44933 0.0
Mg40 Mg 0.68169 0.4669 0.47776 0.0
C41 C 0.63616 0.63049 0.55963 0.0
C42 C 0.63821 0.59008 0.35216 0.0
O43 O 0.2621 0.55614 0.53556 0.0
O44 O 0.37923 0.67976 0.55686 0.0
O45 O 0.31451 0.56617 0.3623 0.0
O46 O 0.43002 0.68987 0.37304 0.0
O47 O 0.59682 0.68217 0.53579 0.0
O48 O 0.60963 0.54726 0.54388 0.0
C49 C 0.35186 0.34426 0.58153 0.0
O50 O 0.43097 0.36845 0.56254 0.0
O51 O 0.29727 0.37229 0.54857 0.0
O52 O 0.72771 0.37804 0.39775 0.0
O53 O 0.61054 0.25452 0.37623 0.0
O54 O 0.67531 0.36767 0.57105 0.0
C55 C 0.68842 0.3032 0.36445 0.0
O56 O 0.55983 0.24394 0.56005 0.0
O57 O 0.39298 0.25195 0.39734 0.0
C58 C 0.63015 0.29131 0.59389 0.0
O59 O 0.3806 0.387 0.38994 0.0
O60 O 0.55911 0.5659 0.37114 0.0
O61 O 0.69277 0.56198 0.38508 0.0
C62 C 0.22713 0.19487 0.18298 0.0
C63 C 0.18832 0.15853 0.12719 0.0
C64 C 0.26348 0.23816 0.25088 0.0
C65 C 0.30241 0.27465 0.30657 0.0
C66 C 0.75104 0.19682 0.18417 0.0
C67 C 0.76632 0.16083 0.13058 0.0
C68 C 0.74202 0.24129 0.24906 0.0
C69 C 0.72651 0.27694 0.30275 0.0
C70 C 0.77395 0.74215 0.19015 0.0
C71 C 0.81901 0.78705 0.14295 0.0
C72 C 0.71486 0.69282 0.24317 0.0
C73 C 0.66995 0.64792 0.29044 0.0
C74 C 0.21395 0.7273 0.19271 0.0
C75 C 0.16887 0.74938 0.14802 0.0
C76 C 0.27289 0.70373 0.24027 0.0
C77 C 0.3181 0.68187 0.285 0.0
C78 C 0.23879 0.7376 0.74894 0.0
C79 C 0.22351 0.77353 0.80256 0.0
C80 C 0.24781 0.69314 0.68405 0.0
C81 C 0.26333 0.65743 0.6304 0.0
C82 C 0.21616 0.19226 0.74359 0.0
C83 C 0.17109 0.14734 0.79077 0.0
C84 C 0.27525 0.2416 0.69058 0.0
C85 C 0.32014 0.28647 0.64328 0.0
C86 C 0.77579 0.20626 0.74038 0.0
C87 C 0.82089 0.18426 0.78511 0.0
C88 C 0.71685 0.22984 0.69283 0.0
C89 C 0.67166 0.25176 0.64813 0.0
C90 C 0.76248 0.74008 0.75053 0.0
C91 C 0.80138 0.77628 0.80633 0.0
C92 C 0.72612 0.6968 0.68263 0.0
C93 C 0.68729 0.66016 0.62696 0.0
loop_
_geom_bond_atom_site_label_1
_geom_bond_atom_site_label_2
_geom_bond_distance
_geom_bond_site_symmetry_2
_ccdc_geom_bond_type
C0 O12 1.241 . S
C0 O13 1.280 . S
C1 O14 1.277 . S
C1 O15 1.245 . S
C2 O26 1.247 . S
C2 O28 1.289 . S
Mg3 O4 1.926 . S
Mg3 O13 1.984 . S
Mg3 O15 1.988 1_554 S
Mg3 O16 2.061 1_655 S
O4 Mg3 1.926 . S
O4 Mg5 1.986 1_544 S
O4 Mg6 1.917 1_655 S
Mg5 O4 1.986 1_566 S
Mg5 O12 2.042 1_566 S
Mg5 O14 2.041 1_565 S
Mg5 O20 2.038 1_556 S
Mg5 O28 2.238 . S
Mg6 O4 1.917 1_455 S
Mg6 O7 1.917 1_544 S
Mg6 O17 2.106 . S
Mg6 O19 2.079 1_445 S
Mg6 O28 2.106 1_444 S
Mg6 O29 2.079 1_554 S
O7 Mg6 1.917 1_566 S
O7 Mg8 1.926 . S
O7 Mg9 1.986 1_566 S
Mg8 O7 1.926 . S
Mg8 O22 1.984 . S
Mg8 O25 1.988 1_556 S
Mg8 O26 2.061 1_455 S
Mg9 O7 1.986 1_544 S
Mg9 O17 2.238 . S
Mg9 O21 2.042 1_544 S
Mg9 O23 2.041 1_545 S
Mg9 O30 2.038 1_554 S
C10 O16 1.247 . S
C10 O17 1.289 . S
C11 O29 1.245 . S
C11 O30 1.274 . S
O12 C0 1.241 . S
O12 Mg5 2.042 1_544 S
O13 C0 1.280 . S
O13 Mg3 1.984 . S
O14 C1 1.277 . S
O14 Mg5 2.041 1_545 S
O15 C1 1.245 . S
O15 Mg3 1.988 1_556 S
O16 Mg3 2.061 1_455 S
O16 C10 1.247 . S
O17 Mg6 2.106 . S
O17 Mg9 2.238 . S
O17 C10 1.289 . S
C18 O19 1.245 . S
C18 O20 1.274 . S
O19 Mg6 2.079 1_665 S
O19 C18 1.245 . S
O20 Mg5 2.038 1_554 S
O20 C18 1.274 . S
O21 Mg9 2.042 1_566 S
O21 C24 1.241 . S
O22 Mg8 1.984 . S
O22 C24 1.280 . S
O23 Mg9 2.041 1_565 S
O23 C27 1.277 . S
C24 O21 1.241 . S
C24 O22 1.280 . S
O25 Mg8 1.988 1_554 S
O25 C27 1.245 . S
O26 C2 1.247 . S
O26 Mg8 2.061 1_655 S
C27 O23 1.277 . S
C27 O25 1.245 . S
O28 C2 1.289 . S
O28 Mg5 2.238 . S
O28 Mg6 2.106 1_666 S
O29 Mg6 2.079 1_556 S
O29 C11 1.245 . S
O30 Mg9 2.038 1_556 S
O30 C11 1.274 . S
C31 O43 1.241 . S
C31 O44 1.280 . S
C32 O45 1.277 . S
C32 O46 1.245 . S
C33 O57 1.247 . S
C33 O59 1.289 . S
Mg34 O35 1.926 . S
Mg34 O44 1.984 . S
Mg34 O46 1.988 . S
Mg34 O47 2.061 . S
O35 Mg34 1.926 . S
O35 Mg36 1.986 . S
O35 Mg37 1.917 . S
Mg36 O35 1.986 . S
Mg36 O43 2.042 . S
Mg36 O45 2.041 . S
Mg36 O51 2.038 . S
Mg36 O59 2.238 . S
Mg37 O35 1.917 . S
Mg37 O38 1.917 . S
Mg37 O48 2.106 . S
Mg37 O50 2.079 . S
Mg37 O59 2.106 . S
Mg37 O60 2.079 . S
O38 Mg37 1.917 . S
O38 Mg39 1.926 . S
O38 Mg40 1.986 . S
Mg39 O38 1.926 . S
Mg39 O53 1.984 . S
Mg39 O56 1.988 . S
Mg39 O57 2.061 . S
Mg40 O38 1.986 . S
Mg40 O48 2.238 . S
Mg40 O52 2.042 . S
Mg40 O54 2.041 . S
Mg40 O61 2.038 . S
C41 O47 1.247 . S
C41 O48 1.289 . S
C42 O60 1.245 . S
C42 O61 1.274 . S
O43 C31 1.241 . S
O43 Mg36 2.042 . S
O44 C31 1.280 . S
O44 Mg34 1.984 . S
O45 C32 1.277 . S
O45 Mg36 2.041 . S
O46 C32 1.245 . S
O46 Mg34 1.988 . S
O47 Mg34 2.061 . S
O47 C41 1.247 . S
O48 Mg37 2.106 . S
O48 Mg40 2.238 . S
O48 C41 1.289 . S
C49 O50 1.245 . S
C49 O51 1.274 . S
O50 Mg37 2.079 . S
O50 C49 1.245 . S
O51 Mg36 2.038 . S
O51 C49 1.274 . S
O52 Mg40 2.042 . S
O52 C55 1.241 . S
O53 Mg39 1.984 . S
O53 C55 1.280 . S
O54 Mg40 2.041 . S
O54 C58 1.277 . S
C55 O52 1.241 . S
C55 O53 1.280 . S
O56 Mg39 1.988 . S
O56 C58 1.245 . S
O57 C33 1.247 . S
O57 Mg39 2.061 . S
C58 O54 1.277 . S
C58 O56 1.245 . S
O59 C33 1.289 . S
O59 Mg36 2.238 . S
O59 Mg37 2.106 . S
O60 Mg37 2.079 . S
O60 C42 1.245 . S
O61 Mg40 2.038 . S
O61 C42 1.274 . S
C62 C63 1.170 . S
C62 C64 1.380 . S
C63 C62 1.170 . S
C64 C62 1.380 . S
C64 C65 1.170 . S
C65 C64 1.170 . S
C66 C67 1.170 . S
C66 C68 1.380 . S
C67 C66 1.170 . S
C68 C66 1.380 . S
C68 C69 1.170 . S
C69 C68 1.170 . S
C70 C71 1.170 . S
C70 C72 1.380 . S
C71 C70 1.170 . S
C72 C70 1.380 . S
C72 C73 1.170 . S
C73 C72 1.170 . S
C74 C75 1.170 . S
C74 C76 1.380 . S
C75 C74 1.170 . S
C76 C74 1.380 . S
C76 C77 1.170 . S
C77 C76 1.170 . S
C78 C79 1.170 . S
C78 C80 1.380 . S
C79 C78 1.170 . S
C80 C78 1.380 . S
C80 C81 1.170 . S
C81 C80 1.170 . S
C82 C83 1.170 . S
C82 C84 1.380 . S
C83 C82 1.170 . S
C84 C82 1.380 . S
C84 C85 1.170 . S
C85 C84 1.170 . S
C86 C87 1.170 . S
C86 C88 1.380 . S
C87 C86 1.170 . S
C88 C86 1.380 . S
C88 C89 1.170 . S
C89 C88 1.170 . S
C90 C91 1.170 . S
C90 C92 1.380 . S
C91 C90 1.170 . S
C92 C90 1.380 . S
C92 C93 1.170 . S
C93 C92 1.170 . S
C63 C10 1.022 . S
C65 C33 1.046 . S
C67 C0 1.492 . S
C69 C55 1.521 . S
C71 C18 1.590 . S
C73 C42 1.568 . S
C75 C27 1.673 . S
C77 C32 1.640 . S
C79 C24 1.525 . S
C81 C31 1.505 . S
C85 C49 1.585 . S
C83 C11 1.555 . S
C87 C1 1.673 . S
C89 C58 1.648 . S
C93 C41 1.016 . S
C91 C2 1.062 . S
