# Generated by pormake.
# Topology pth, (4,4)-cn, num edge types: 1
# Building blocks:
#     Node 0, Type 0, BuildingBlock: QUQFOY_clean_sbu_1, # of connection points: 4
#     Node 1, Type 0, BuildingBlock: QUQFOY_clean_sbu_1, # of connection points: 4
#     Node 2, Type 0, BuildingBlock: QUQFOY_clean_sbu_1, # of connection points: 4
#     Node 3, Type 1, BuildingBlock: NAWXER_clean_sbu_0, # of connection points: 4
#     Node 4, Type 1, BuildingBlock: NAWXER_clean_sbu_0, # of connection points: 4
#     Node 5, Type 1, BuildingBlock: NAWXER_clean_sbu_0, # of connection points: 4
#     Edge 6, Type (0, 1), BuildingBlock: OJICUG_clean_linker_0, # of connection points: 2
#     Edge 7, Type (0, 1), BuildingBlock: OJICUG_clean_linker_0, # of connection points: 2
#     Edge 8, Type (0, 1), BuildingBlock: OJICUG_clean_linker_0, # of connection points: 2
#     Edge 9, Type (0, 1), BuildingBlock: OJICUG_clean_linker_0, # of connection points: 2
#     Edge 10, Type (0, 1), BuildingBlock: OJICUG_clean_linker_0, # of connection points: 2
#     Edge 11, Type (0, 1), BuildingBlock: OJICUG_clean_linker_0, # of connection points: 2
#     Edge 12, Type (0, 1), BuildingBlock: OJICUG_clean_linker_0, # of connection points: 2
#     Edge 13, Type (0, 1), BuildingBlock: OJICUG_clean_linker_0, # of connection points: 2
#     Edge 14, Type (0, 1), BuildingBlock: OJICUG_clean_linker_0, # of connection points: 2
#     Edge 15, Type (0, 1), BuildingBlock: OJICUG_clean_linker_0, # of connection points: 2
#     Edge 16, Type (0, 1), BuildingBlock: OJICUG_clean_linker_0, # of connection points: 2
#     Edge 17, Type (0, 1), BuildingBlock: OJICUG_clean_linker_0, # of connection points: 2
# Relax obj value: 0.027
# Max RMSD: 0.123
# Mean RMSD: 0.063
data_MOF--net-pth--node1-QUQFOY_clean_sbu_1--node2-NAWXER_clean_sbu_0--edge1-OJICUG_clean_linker_0
_symmetry_space_group_name_H-M    P1
_symmetry_Int_Tables_number       1
_symmetry_cell_setting            triclinic
loop_
_symmetry_equiv_pos_as_xyz
'x, y, z'
_cell_length_a     16.174802
_cell_length_b     17.055157
_cell_length_c     42.586822
_cell_angle_alpha  90.020082
_cell_angle_beta   89.964115
_cell_angle_gamma 118.86588
loop_
_atom_site_label
_atom_site_type_symbol
_atom_site_fract_x
_atom_site_fract_y
_atom_site_fract_z
_atom_type_partial_charge
O0 O 0.03701 0.1372 0.04783 0.0
Cd1 Cd 0.95439 0.05495 0.08248 0.0
Cd2 Cd 0.06773 0.99691 0.0825 0.0
O3 O 0.15678 0.13023 0.06934 0.0
O4 O 0.89831 0.11988 0.10563 0.0
O5 O 0.01787 0.10403 0.12376 0.0
C6 C 0.96435 0.14041 0.12629 0.0
C7 C 0.05836 0.91155 0.12625 0.0
C8 C 0.12539 0.16941 0.05112 0.0
C9 C 0.89671 0.88232 0.0512 0.0
O10 O 0.9851 0.91452 0.0479 0.0
O11 O 0.86529 0.92157 0.06939 0.0
O12 O 0.1242 0.93217 0.10549 0.0
O13 O 1.00468 0.94779 0.12386 0.0
O14 O 0.91639 0.05202 0.45243 0.0
Cd15 Cd 0.03106 0.11458 0.42379 0.0
Cd16 Cd 0.99786 0.94069 0.4235 0.0
O17 O 0.86674 0.909 0.44267 0.0
O18 O 0.02682 0.22661 0.41333 0.0
O19 O 0.99995 0.121 0.37837 0.0
C20 C 1.00002 0.19478 0.38547 0.0
C21 C 0.02906 0.86077 0.38506 0.0
C22 C 0.85444 0.97036 0.45521 0.0
C23 C 0.17415 0.08426 0.4553 0.0
O24 O 0.11227 1.00267 0.45224 0.0
O25 O 0.16198 0.14593 0.44299 0.0
O26 O 1.00213 0.82874 0.4129 0.0
O27 O 0.02921 0.93462 0.37805 0.0
O28 O 0.88559 0.98915 0.72076 0.0
Cd29 Cd 0.94862 0.93894 0.74997 0.0
Cd30 Cd 0.07644 0.11006 0.75009 0.0
O31 O 0.97359 0.1336 0.72979 0.0
O32 O 0.84105 0.82308 0.76362 0.0
O33 O 0.91778 0.93745 0.7959 0.0
C34 C 0.84801 0.85819 0.79099 0.0
C35 C 0.17683 0.19119 0.79108 0.0
C36 C 0.90156 0.06914 0.71717 0.0
C37 C 0.1238 0.98 0.71722 0.0
O38 O 0.1398 0.05997 0.72092 0.0
O39 O 0.05158 0.91541 0.72971 0.0
O40 O 0.18381 0.22609 0.76368 0.0
O41 O 0.10721 0.11188 0.79604 0.0
C42 C 0.10296 0.65667 0.29507 0.0
C43 C 0.0478 0.42874 0.214 0.0
O44 O 0.1694 0.64511 0.28374 0.0
Zn45 Zn 0.08986 0.5477 0.25426 0.0
O46 O 0.01831 0.60868 0.28568 0.0
Zn47 Zn 0.93625 0.50593 0.25456 0.0
O48 O 0.85777 0.40926 0.28444 0.0
O49 O 1.00891 0.44574 0.28581 0.0
O50 O 0.97628 0.43548 0.22319 0.0
O51 O 0.12912 0.48059 0.22556 0.0
O52 O 0.04875 0.61746 0.223 0.0
O53 O 0.89601 0.57242 0.22596 0.0
C54 C 0.92459 0.398 0.29555 0.0
C55 C 0.97695 0.62402 0.21407 0.0
C56 C 0.65248 0.08879 0.62534 0.0
C57 C 0.448 0.09928 0.54296 0.0
O58 O 0.58718 1.01178 0.61651 0.0
Zn59 Zn 0.47375 0.9533 0.58383 0.0
O60 O 0.66139 0.15911 0.61192 0.0
Zn61 Zn 0.55279 0.0983 0.58403 0.0
O62 O 0.43906 0.03914 0.6166 0.0
O63 O 0.36486 0.89191 0.61161 0.0
O64 O 0.51395 0.16661 0.55673 0.0
O65 O 0.42837 1.01983 0.55121 0.0
O66 O 0.51292 0.88558 0.55633 0.0
O67 O 0.59858 0.03248 0.55121 0.0
C68 C 0.37366 0.96194 0.62524 0.0
C69 C 0.57907 0.95321 0.54274 0.0
C70 C 0.37364 0.4531 0.96897 0.0
C71 C 0.57825 0.65743 0.88665 0.0
O72 O 0.35964 0.51335 0.95618 0.0
Zn73 Zn 0.46888 0.56012 0.92763 0.0
O74 O 0.44215 0.44153 0.9598 0.0
Zn75 Zn 0.55444 0.49087 0.92777 0.0
O76 O 0.66328 0.53782 0.95645 0.0
O77 O 0.58077 0.60971 0.95978 0.0
O78 O 0.59785 0.59674 0.89547 0.0
O79 O 0.50996 0.66344 0.89924 0.0
O80 O 0.42591 0.45403 0.89543 0.0
O81 O 0.51369 0.3873 0.89951 0.0
C82 C 0.64915 0.59818 0.9691 0.0
C83 C 0.4456 0.39325 0.88676 0.0
C84 C 0.92308 0.24638 0.15363 0.0
C85 C 0.98472 0.21098 0.15004 0.0
H86 H 0.89573 0.34325 0.17601 0.0
C87 C 0.06993 0.24952 0.16718 0.0
H88 H 0.8575 0.2191 0.1406 0.0
C89 C 0.09292 0.32229 0.18739 0.0
C90 C 0.03064 0.35717 0.19099 0.0
H91 H 0.11963 0.22444 0.16461 0.0
H92 H 0.15839 0.35018 0.20048 0.0
C93 C 0.94556 0.31817 0.17386 0.0
C94 C 0.73814 1.01541 0.47263 0.0
C95 C 0.76868 0.95113 0.47319 0.0
H96 H 0.65352 0.06515 0.49394 0.0
C97 C 0.7254 0.8784 0.49403 0.0
H98 H 0.76908 0.0714 0.45646 0.0
C99 C 0.65811 0.87475 0.51581 0.0
C100 C 0.63433 0.94396 0.51682 0.0
H101 H 0.74798 0.82811 0.4949 0.0
H102 H 0.62952 0.82137 0.53301 0.0
C103 C 0.67207 1.01198 0.49417 0.0
C104 C 0.70462 0.72131 0.80966 0.0
C105 C 0.77493 0.80995 0.81521 0.0
H106 H 0.58561 0.60461 0.82804 0.0
C107 C 0.77217 0.85189 0.8434 0.0
H108 H 0.70399 0.6871 0.78816 0.0
C109 C 0.70231 0.80475 0.86601 0.0
C110 C 0.63457 0.71522 0.86069 0.0
H111 H 0.8248 0.92044 0.84822 0.0
H112 H 0.70424 0.83656 0.88823 0.0
C113 C 0.63584 0.67437 0.83226 0.0
C114 C 0.09999 0.8055 0.15329 0.0
C115 C 0.03845 0.84109 0.15 0.0
H116 H 0.12771 0.70865 0.17546 0.0
C117 C 0.95374 0.80286 0.16745 0.0
H118 H 0.16517 0.83252 0.14002 0.0
C119 C 0.9312 0.73026 0.18768 0.0
C120 C 0.99342 0.69523 0.19099 0.0
H121 H 0.90412 0.82809 0.16511 0.0
H122 H 0.86616 0.70265 0.20103 0.0
C123 C 0.07795 0.73386 0.17354 0.0
C124 C 0.30256 0.17528 0.49439 0.0
C125 C 0.25959 0.10302 0.47335 0.0
H126 H 0.39779 0.2314 0.53356 0.0
C127 C 0.29008 0.03871 0.47264 0.0
H128 H 0.28002 0.22559 0.49539 0.0
C129 C 0.35574 0.0416 0.49422 0.0
C130 C 0.39315 0.10911 0.51705 0.0
H131 H 0.25939 0.98308 0.45632 0.0
H132 H 0.37425 0.98841 0.49385 0.0
C133 C 0.36946 0.1784 0.51621 0.0
C134 C 0.25286 0.19798 0.84347 0.0
C135 C 0.2497 0.23979 0.81531 0.0
H136 H 0.32089 0.21372 0.88827 0.0
C137 C 0.31938 0.32869 0.8098 0.0
H138 H 0.20072 0.12923 0.84825 0.0
C139 C 0.3879 0.376 0.8324 0.0
C140 C 0.38957 0.33527 0.86081 0.0
H141 H 0.31967 0.36283 0.78832 0.0
H142 H 0.43762 0.44592 0.82821 0.0
C143 C 0.32251 0.24548 0.86609 0.0
C144 C 0.86486 0.16213 0.67928 0.0
C145 C 0.83568 0.08386 0.69722 0.0
H146 H 0.82931 0.2256 0.64189 0.0
C147 C 0.74359 1.01297 0.69347 0.0
H148 H 0.93565 0.21773 0.68173 0.0
C149 C 0.6839 1.0172 0.67095 0.0
C150 C 0.7144 0.0925 0.65146 0.0
H151 H 0.71838 0.95234 0.70729 0.0
H152 H 0.61428 0.95985 0.66828 0.0
C153 C 0.80433 0.16645 0.65646 0.0
C154 C 0.73465 0.7715 0.03325 0.0
C155 C 0.83199 0.80162 0.03315 0.0
H156 H 0.60061 0.68208 1.0134 0.0
C157 C 0.86756 0.7562 1.01448 0.0
H158 H 0.70481 0.80415 0.04756 0.0
C159 C 0.80749 0.68536 0.99495 0.0
C160 C 0.71114 0.65941 0.99364 0.0
H161 H 0.94233 0.77718 1.01418 0.0
H162 H 0.83714 0.65437 0.97973 0.0
C163 C 0.67502 0.70139 1.01367 0.0
C164 C 0.08832 0.84757 0.33169 0.0
C165 C 0.06274 0.81577 0.36256 0.0
H166 H 0.12581 0.82256 0.28584 0.0
C167 C 0.07061 0.74051 0.372 0.0
H168 H 0.08403 0.90582 0.32374 0.0
C169 C 0.09715 0.69461 0.35051 0.0
C170 C 0.11706 0.72329 0.31923 0.0
H171 H 0.05265 0.71479 0.3957 0.0
H172 H 0.09485 0.63264 0.35772 0.0
C173 C 0.1145 0.80128 0.31017 0.0
C174 C 0.16071 0.88765 0.67906 0.0
C175 C 0.18987 0.96547 0.69725 0.0
H176 H 0.19646 0.82498 0.64141 0.0
C177 C 0.28213 0.03626 0.69373 0.0
H178 H 0.08977 0.83215 0.68132 0.0
C179 C 0.34201 0.03243 0.67117 0.0
C180 C 0.31154 0.95766 0.65141 0.0
H181 H 0.30731 0.09653 0.70775 0.0
H182 H 0.41176 0.08972 0.66867 0.0
C183 C 0.22143 0.88374 0.65619 0.0
C184 C 0.28758 0.28037 0.03329 0.0
C185 C 0.19021 0.25002 0.03304 0.0
H186 H 0.42184 0.36987 1.01356 0.0
C187 C 0.15472 0.29513 1.0142 0.0
H188 H 0.31736 0.24796 0.04774 0.0
C189 C 0.21496 0.3659 0.99466 0.0
C190 C 0.31138 0.39205 0.99351 0.0
H191 H 0.07992 0.27398 1.01377 0.0
H192 H 0.18541 0.39663 0.9793 0.0
C193 C 0.34738 0.35039 1.0137 0.0
C194 C 0.95936 0.31563 0.37244 0.0
C195 C 0.96628 0.23983 0.36304 0.0
H196 H 0.9355 0.42369 0.35816 0.0
C197 C 0.93952 0.20742 0.33229 0.0
H198 H 0.97828 0.34186 0.39605 0.0
C199 C 0.91299 0.25353 0.31084 0.0
C200 C 0.91127 0.33197 0.31985 0.0
H201 H 0.94304 0.14875 0.32437 0.0
H202 H 0.90063 0.23166 0.28658 0.0
C203 C 0.93251 0.36137 0.35101 0.0
loop_
_geom_bond_atom_site_label_1
_geom_bond_atom_site_label_2
_geom_bond_distance
_geom_bond_site_symmetry_2
_ccdc_geom_bond_type
O0 Cd1 2.223 1_455 S
O0 C8 1.315 . S
Cd1 O0 2.223 1_655 S
Cd1 O4 2.297 . S
Cd1 O5 2.439 . S
Cd1 O11 2.240 1_545 S
Cd2 O3 2.240 1_565 S
Cd2 O10 2.223 1_455 S
Cd2 O12 2.297 . S
Cd2 O13 2.439 . S
O3 Cd2 2.240 1_545 S
O3 C8 1.279 . S
O4 Cd1 2.297 . S
O4 C6 1.247 . S
O5 Cd1 2.439 . S
O5 C6 1.208 . S
C6 O4 1.247 . S
C6 O5 1.208 . S
C7 O12 1.247 . S
C7 O13 1.208 . S
C8 O0 1.315 . S
C8 O3 1.279 . S
C9 O10 1.315 . S
C9 O11 1.279 . S
O10 Cd2 2.223 1_655 S
O10 C9 1.315 . S
O11 Cd1 2.240 1_565 S
O11 C9 1.279 . S
O12 Cd2 2.297 . S
O12 C7 1.247 . S
O13 Cd2 2.439 . S
O13 C7 1.208 . S
O14 Cd15 2.223 1_655 S
O14 C22 1.315 . S
Cd15 O14 2.223 1_455 S
Cd15 O18 2.297 . S
Cd15 O19 2.439 . S
Cd15 O25 2.240 . S
Cd16 O17 2.240 . S
Cd16 O24 2.223 1_655 S
Cd16 O26 2.297 . S
Cd16 O27 2.439 . S
O17 Cd16 2.240 . S
O17 C22 1.279 1_565 S
O18 Cd15 2.297 . S
O18 C20 1.247 . S
O19 Cd15 2.439 . S
O19 C20 1.208 . S
C20 O18 1.247 . S
C20 O19 1.208 . S
C21 O26 1.247 . S
C21 O27 1.208 . S
C22 O14 1.315 . S
C22 O17 1.279 1_545 S
C23 O24 1.315 . S
C23 O25 1.279 1_565 S
O24 Cd16 2.223 1_455 S
O24 C23 1.315 . S
O25 Cd15 2.240 . S
O25 C23 1.279 1_545 S
O26 Cd16 2.297 . S
O26 C21 1.247 . S
O27 Cd16 2.439 . S
O27 C21 1.208 . S
O28 Cd29 2.223 . S
O28 C36 1.315 . S
Cd29 O28 2.223 . S
Cd29 O32 2.297 . S
Cd29 O33 2.439 . S
Cd29 O39 2.240 1_655 S
Cd30 O31 2.240 1_455 S
Cd30 O38 2.223 . S
Cd30 O40 2.297 . S
Cd30 O41 2.439 . S
O31 Cd30 2.240 1_655 S
O31 C36 1.279 1_545 S
O32 Cd29 2.297 . S
O32 C34 1.247 . S
O33 Cd29 2.439 . S
O33 C34 1.208 . S
C34 O32 1.247 . S
C34 O33 1.208 . S
C35 O40 1.247 . S
C35 O41 1.208 . S
C36 O28 1.315 . S
C36 O31 1.279 1_565 S
C37 O38 1.315 . S
C37 O39 1.279 1_545 S
O38 Cd30 2.223 . S
O38 C37 1.315 . S
O39 Cd29 2.240 1_455 S
O39 C37 1.279 1_565 S
O40 Cd30 2.297 . S
O40 C35 1.247 . S
O41 Cd30 2.439 . S
O41 C35 1.208 . S
C42 O44 1.252 . S
C42 O46 1.255 1_455 S
C43 O50 1.249 . S
C43 O51 1.257 1_655 S
O44 C42 1.252 . S
O44 Zn45 2.028 . S
Zn45 O44 2.028 . S
Zn45 O49 2.035 . S
Zn45 O51 2.035 . S
Zn45 O52 2.028 . S
O46 C42 1.255 1_655 S
O46 Zn47 2.035 . S
Zn47 O46 2.035 . S
Zn47 O48 2.028 . S
Zn47 O50 2.028 . S
Zn47 O53 2.035 . S
O48 Zn47 2.028 . S
O48 C54 1.249 . S
O49 Zn45 2.035 . S
O49 C54 1.257 1_455 S
O50 C43 1.249 . S
O50 Zn47 2.028 . S
O51 C43 1.257 1_455 S
O51 Zn45 2.035 . S
O52 Zn45 2.028 . S
O52 C55 1.252 . S
O53 Zn47 2.035 . S
O53 C55 1.255 1_655 S
C54 O48 1.249 . S
C54 O49 1.257 1_655 S
C55 O52 1.252 . S
C55 O53 1.255 1_455 S
C56 O58 1.248 . S
C56 O60 1.256 1_565 S
C57 O64 1.250 . S
C57 O65 1.253 1_545 S
O58 C56 1.248 . S
O58 Zn59 2.028 . S
Zn59 O58 2.028 . S
Zn59 O63 2.035 . S
Zn59 O65 2.035 . S
Zn59 O66 2.028 . S
O60 C56 1.256 1_545 S
O60 Zn61 2.035 . S
Zn61 O60 2.035 . S
Zn61 O62 2.028 . S
Zn61 O64 2.028 . S
Zn61 O67 2.035 . S
O62 Zn61 2.028 . S
O62 C68 1.250 . S
O63 Zn59 2.035 . S
O63 C68 1.253 1_565 S
O64 C57 1.250 . S
O64 Zn61 2.028 . S
O65 C57 1.253 1_565 S
O65 Zn59 2.035 . S
O66 Zn59 2.028 . S
O66 C69 1.248 . S
O67 Zn61 2.035 . S
O67 C69 1.256 1_545 S
C68 O62 1.250 . S
C68 O63 1.253 1_545 S
C69 O66 1.248 . S
C69 O67 1.256 1_565 S
C70 O72 1.247 . S
C70 O74 1.258 . S
C71 O78 1.247 . S
C71 O79 1.258 . S
O72 C70 1.247 . S
O72 Zn73 2.028 . S
Zn73 O72 2.028 . S
Zn73 O77 2.035 . S
Zn73 O79 2.035 . S
Zn73 O80 2.028 . S
O74 C70 1.258 . S
O74 Zn75 2.035 . S
Zn75 O74 2.035 . S
Zn75 O76 2.028 . S
Zn75 O78 2.028 . S
Zn75 O81 2.035 . S
O76 Zn75 2.028 . S
O76 C82 1.247 . S
O77 Zn73 2.035 . S
O77 C82 1.258 . S
O78 C71 1.247 . S
O78 Zn75 2.028 . S
O79 C71 1.258 . S
O79 Zn73 2.035 . S
O80 Zn73 2.028 . S
O80 C83 1.247 . S
O81 Zn75 2.035 . S
O81 C83 1.258 . S
C82 O76 1.247 . S
C82 O77 1.258 . S
C83 O80 1.247 . S
C83 O81 1.258 . S
C84 C85 1.387 . S
C84 H88 0.950 . S
C84 C93 1.390 . S
C85 C84 1.387 . S
C85 C87 1.387 1_655 S
H86 C93 0.950 . S
C87 C85 1.387 1_455 S
C87 C89 1.390 . S
C87 H91 0.950 . S
H88 C84 0.950 . S
C89 C87 1.390 . S
C89 C90 1.387 1_455 S
C89 H92 0.950 . S
C90 C89 1.387 1_655 S
C90 C93 1.388 . S
H91 C87 0.950 . S
H92 C89 0.950 . S
C93 C84 1.390 . S
C93 H86 0.950 . S
C93 C90 1.388 . S
C94 C95 1.387 . S
C94 H98 0.950 . S
C94 C103 1.390 . S
C95 C94 1.387 . S
C95 C97 1.387 1_545 S
H96 C103 0.950 . S
C97 C95 1.387 1_565 S
C97 C99 1.390 . S
C97 H101 0.950 . S
H98 C94 0.950 . S
C99 C97 1.390 . S
C99 C100 1.387 1_565 S
C99 H102 0.950 . S
C100 C99 1.387 1_545 S
C100 C103 1.387 . S
H101 C97 0.950 . S
H102 C99 0.950 . S
C103 C94 1.390 . S
C103 H96 0.950 . S
C103 C100 1.387 . S
C104 C105 1.387 . S
C104 H108 0.950 . S
C104 C113 1.390 . S
C105 C104 1.387 . S
C105 C107 1.387 . S
H106 C113 0.950 . S
C107 C105 1.387 . S
C107 C109 1.390 . S
C107 H111 0.950 . S
H108 C104 0.950 . S
C109 C107 1.390 . S
C109 C110 1.387 . S
C109 H112 0.950 . S
C110 C109 1.387 . S
C110 C113 1.387 . S
H111 C107 0.950 . S
H112 C109 0.950 . S
C113 C104 1.390 . S
C113 H106 0.950 . S
C113 C110 1.387 . S
C114 C115 1.387 1_655 S
C114 H118 0.950 . S
C114 C123 1.390 . S
C115 C114 1.387 1_455 S
C115 C117 1.387 . S
H116 C123 0.950 . S
C117 C115 1.387 . S
C117 C119 1.390 . S
C117 H121 0.950 . S
H118 C114 0.950 . S
C119 C117 1.390 . S
C119 C120 1.387 . S
C119 H122 0.950 . S
C120 C119 1.387 . S
C120 C123 1.384 1_455 S
H121 C117 0.950 . S
H122 C119 0.950 . S
C123 C114 1.390 . S
C123 H116 0.950 . S
C123 C120 1.384 1_655 S
C124 C125 1.387 1_545 S
C124 H128 0.950 . S
C124 C133 1.390 . S
C125 C124 1.387 1_565 S
C125 C127 1.387 . S
H126 C133 0.950 . S
C127 C125 1.387 . S
C127 C129 1.390 . S
C127 H131 0.950 . S
H128 C124 0.950 . S
C129 C127 1.390 . S
C129 C130 1.387 . S
C129 H132 0.950 . S
C130 C129 1.387 . S
C130 C133 1.387 1_565 S
H131 C127 0.950 . S
H132 C129 0.950 . S
C133 C124 1.390 . S
C133 H126 0.950 . S
C133 C130 1.387 1_545 S
C134 C135 1.387 . S
C134 H138 0.950 . S
C134 C143 1.390 . S
C135 C134 1.387 . S
C135 C137 1.387 . S
H136 C143 0.950 . S
C137 C135 1.387 . S
C137 C139 1.390 . S
C137 H141 0.950 . S
H138 C134 0.950 . S
C139 C137 1.390 . S
C139 C140 1.387 . S
C139 H142 0.950 . S
C140 C139 1.387 . S
C140 C143 1.387 . S
H141 C137 0.950 . S
H142 C139 0.950 . S
C143 C134 1.390 . S
C143 H136 0.950 . S
C143 C140 1.387 . S
C144 C145 1.387 1_545 S
C144 H148 0.950 . S
C144 C153 1.390 . S
C145 C144 1.387 1_565 S
C145 C147 1.387 . S
H146 C153 0.950 . S
C147 C145 1.387 . S
C147 C149 1.390 . S
C147 H151 0.950 . S
H148 C144 0.950 . S
C149 C147 1.390 . S
C149 C150 1.387 . S
C149 H152 0.950 . S
C150 C149 1.387 . S
C150 C153 1.387 1_565 S
H151 C147 0.950 . S
H152 C149 0.950 . S
C153 C144 1.390 . S
C153 H146 0.950 . S
C153 C150 1.387 1_545 S
C154 C155 1.387 . S
C154 H158 0.950 . S
C154 C163 1.390 1_554 S
C155 C154 1.387 . S
C155 C157 1.387 1_554 S
H156 C163 0.950 . S
C157 C155 1.387 1_556 S
C157 C159 1.390 . S
C157 H161 0.950 . S
H158 C154 0.950 . S
C159 C157 1.390 . S
C159 C160 1.387 . S
C159 H162 0.950 . S
C160 C159 1.387 . S
C160 C163 1.387 . S
H161 C157 0.950 . S
H162 C159 0.950 . S
C163 C154 1.390 1_556 S
C163 H156 0.950 . S
C163 C160 1.387 . S
C164 C165 1.387 1_655 S
C164 H168 0.950 . S
C164 C173 1.390 . S
C165 C164 1.387 1_455 S
C165 C167 1.387 . S
H166 C173 0.950 . S
C167 C165 1.387 . S
C167 C169 1.390 . S
C167 H171 0.950 . S
H168 C164 0.950 . S
C169 C167 1.390 . S
C169 C170 1.387 . S
C169 H172 0.950 . S
C170 C169 1.387 . S
C170 C173 1.387 1_455 S
H171 C167 0.950 . S
H172 C169 0.950 . S
C173 C164 1.390 . S
C173 H166 0.950 . S
C173 C170 1.387 1_655 S
C174 C175 1.387 1_565 S
C174 H178 0.950 . S
C174 C183 1.390 . S
C175 C174 1.387 1_545 S
C175 C177 1.387 . S
H176 C183 0.950 . S
C177 C175 1.387 . S
C177 C179 1.390 . S
C177 H181 0.950 . S
H178 C174 0.950 . S
C179 C177 1.390 . S
C179 C180 1.387 . S
C179 H182 0.950 . S
C180 C179 1.387 . S
C180 C183 1.387 1_545 S
H181 C177 0.950 . S
H182 C179 0.950 . S
C183 C174 1.390 . S
C183 H176 0.950 . S
C183 C180 1.387 1_565 S
C184 C185 1.387 . S
C184 H188 0.950 . S
C184 C193 1.407 . S
C185 C184 1.387 . S
C185 C187 1.387 1_554 S
H186 C193 0.962 . S
C187 C185 1.387 1_556 S
C187 C189 1.390 . S
C187 H191 0.950 . S
H188 C184 0.950 . S
C189 C187 1.390 . S
C189 C190 1.387 . S
C189 H192 0.950 . S
C190 C189 1.387 . S
C190 C193 1.358 1_556 S
H191 C187 0.950 . S
H192 C189 0.950 . S
C193 C184 1.407 . S
C193 H186 0.962 . S
C193 C190 1.358 1_554 S
C194 C195 1.387 1_455 S
C194 H198 0.950 . S
C194 C203 1.390 . S
C195 C194 1.387 1_655 S
C195 C197 1.387 . S
H196 C203 0.950 . S
C197 C195 1.387 . S
C197 C199 1.390 . S
C197 H201 0.950 . S
H198 C194 0.950 . S
C199 C197 1.390 . S
C199 C200 1.387 . S
C199 H202 0.950 . S
C200 C199 1.387 . S
C200 C203 1.387 1_655 S
H201 C197 0.950 . S
H202 C199 0.950 . S
C203 C194 1.390 . S
C203 H196 0.950 . S
C203 C200 1.387 1_455 S
C90 C43 1.478 . S
C85 C6 1.466 . S
C95 C22 1.530 . S
C100 C69 1.553 1_545 S
C105 C34 1.321 . S
C110 C71 1.337 . S
C115 C7 1.468 . S
C120 C55 1.481 . S
C130 C57 1.553 1_565 S
C125 C23 1.528 . S
C135 C35 1.322 . S
C140 C83 1.333 . S
C150 C56 1.553 . S
C145 C36 1.540 . S
C155 C9 1.689 . S
C160 C82 1.731 . S
C170 C42 1.473 . S
C165 C21 1.459 1_455 S
C180 C68 1.555 . S
C175 C37 1.538 . S
C190 C70 1.730 . S
C185 C8 1.687 . S
C195 C20 1.458 1_655 S
C200 C54 1.473 . S
