# Generated by pormake.
# Topology bcu-b, (8,8)-cn, num edge types: 1
# Building blocks:
#     Node 0, Type 0, BuildingBlock: TAGTUT_clean_sbu_3, # of connection points: 8
#     Node 1, Type 1, BuildingBlock: TAGTUT_clean_sbu_1, # of connection points: 8
#     Edge 2, Type (0, 1), BuildingBlock: OJICUG_clean_linker_0, # of connection points: 2
#     Edge 3, Type (0, 1), BuildingBlock: OJICUG_clean_linker_0, # of connection points: 2
#     Edge 4, Type (0, 1), BuildingBlock: OJICUG_clean_linker_0, # of connection points: 2
#     Edge 5, Type (0, 1), BuildingBlock: OJICUG_clean_linker_0, # of connection points: 2
#     Edge 6, Type (0, 1), BuildingBlock: OJICUG_clean_linker_0, # of connection points: 2
#     Edge 7, Type (0, 1), BuildingBlock: OJICUG_clean_linker_0, # of connection points: 2
#     Edge 8, Type (0, 1), BuildingBlock: OJICUG_clean_linker_0, # of connection points: 2
#     Edge 9, Type (0, 1), BuildingBlock: OJICUG_clean_linker_0, # of connection points: 2
# Relax obj value: 0.012
# Max RMSD: 0.078
# Mean RMSD: 0.066
data_MOF--net-bcu-b--node1-TAGTUT_clean_sbu_3--node2-TAGTUT_clean_sbu_1--edge1-OJICUG_clean_linker_0
_symmetry_space_group_name_H-M    P1
_symmetry_Int_Tables_number       1
_symmetry_cell_setting            triclinic
loop_
_symmetry_equiv_pos_as_xyz
'x, y, z'
_cell_length_a     15.361635
_cell_length_b     14.584612
_cell_length_c     16.097726
_cell_angle_alpha  90.534385
_cell_angle_beta   90.362233
_cell_angle_gamma 110.50499
loop_
_atom_site_label
_atom_site_type_symbol
_atom_site_fract_x
_atom_site_fract_y
_atom_site_fract_z
_atom_type_partial_charge
C0 C 0.1451 0.15792 0.1129 0.0
C1 C 0.27668 0.86485 0.05295 0.0
C2 C 0.16097 0.8766 0.81083 0.0
Mg3 Mg 0.96325 0.18711 0.02446 0.0
Mg4 Mg 0.78852 0.9832 -0.01601 0.0
O5 O 0.91187 0.06263 0.95839 0.0
Mg6 Mg 0.00578 0.00169 -0.0135 0.0
O7 O 0.10272 0.94565 0.01636 0.0
Mg8 Mg 0.21528 0.04504 0.96621 0.0
Mg9 Mg 0.07635 0.81619 0.97914 0.0
C10 C 0.8551 0.84257 0.86742 0.0
O11 O 0.90677 0.88573 0.07208 0.0
O12 O 0.84533 0.22782 0.9543 0.0
O13 O 0.94287 0.7524 0.04073 0.0
O14 O 0.86788 0.13551 0.13239 0.0
O15 O 0.7303 0.08253 0.93125 0.0
O16 O 0.76041 0.98791 0.11661 0.0
O17 O 0.1129 0.11082 0.9034 0.0
O18 O 0.06819 0.23948 0.91965 0.0
C19 C 0.12225 0.19961 0.887 0.0
C20 C 0.76355 0.17601 0.92591 0.0
O21 O 0.94104 0.89265 0.88177 0.0
O22 O 0.29783 0.95654 0.03562 0.0
O23 O 0.78812 0.85646 0.90736 0.0
O24 O 0.21103 0.955 0.84821 0.0
O25 O 0.19715 0.80071 0.03483 0.0
O26 O 0.09252 0.8134 0.84669 0.0
O27 O 0.06173 0.11652 0.08691 0.0
O28 O 0.21269 0.13738 0.0816 0.0
C29 C 0.8016 0.06404 0.16111 0.0
C30 C 0.89237 0.79364 0.07829 0.0
C31 C 0.33327 0.74382 0.54739 0.0
C32 C 0.43771 0.70698 0.3081 0.0
C33 C 0.33069 0.32365 0.40268 0.0
Mg34 Mg 0.52116 0.73235 0.48516 0.0
O35 O 0.45527 0.59961 0.50579 0.0
Mg36 Mg 0.33008 0.53631 0.45288 0.0
Mg37 Mg 0.5079 0.49558 0.48099 0.0
O38 O 0.55796 0.38959 0.45758 0.0
Mg39 Mg 0.4875 0.26539 0.4996 0.0
Mg40 Mg 0.68647 0.45307 0.50307 0.0
C41 C 0.68133 0.66863 0.57159 0.0
C42 C 0.66679 0.57296 0.34008 0.0
O43 O 0.29066 0.65969 0.51375 0.0
O44 O 0.42218 0.78452 0.54661 0.0
O45 O 0.37339 0.63021 0.33411 0.0
O46 O 0.50676 0.75587 0.3542 0.0
O47 O 0.65083 0.73648 0.54857 0.0
O48 O 0.63717 0.57782 0.55494 0.0
C49 C 0.34254 0.4098 0.6154 0.0
O50 O 0.42505 0.41561 0.59537 0.0
O51 O 0.29534 0.44892 0.57163 0.0
O52 O 0.71052 0.31468 0.44507 0.0
O53 O 0.57055 0.19322 0.43938 0.0
O54 O 0.65538 0.37845 0.62666 0.0
C55 C 0.65796 0.22661 0.42465 0.0
O56 O 0.51461 0.26443 0.6334 0.0
O57 O 0.35547 0.25748 0.43816 0.0
C58 C 0.59228 0.31524 0.6675 0.0
O59 O 0.38146 0.41453 0.40543 0.0
O60 O 0.58862 0.57431 0.36627 0.0
O61 O 0.71387 0.53047 0.37983 0.0
C62 C 0.14564 0.15417 0.26541 0.0
C63 C 0.16196 0.20953 0.19265 0.0
H64 H 0.18678 0.14826 0.39195 0.0
C65 C 0.2155 0.30919 0.19608 0.0
H66 H 0.10468 0.07669 0.26329 0.0
C67 C 0.26062 0.35084 0.26993 0.0
C68 C 0.25547 0.29189 0.3399 0.0
H69 H 0.22901 0.35252 0.14014 0.0
H70 H 0.30795 0.42603 0.26882 0.0
C71 C 0.19273 0.195 0.33878 0.0
C72 C 0.67133 0.04644 0.25882 0.0
C73 C 0.7668 0.08021 0.24329 0.0
H74 H 0.56158 0.06637 0.32928 0.0
C75 C 0.82738 0.14939 0.29839 0.0
H76 H 0.62353 -0.00533 0.21647 0.0
C77 C 0.79248 0.19225 0.36181 0.0
C78 C 0.69625 0.16589 0.3721 0.0
H79 H 0.90175 0.17625 0.28829 0.0
H80 H 0.84066 0.25023 0.3993 0.0
C81 C 0.63623 0.08863 0.32295 0.0
C82 C 0.80302 0.63283 0.14276 0.0
C83 C 0.82079 0.73389 0.13646 0.0
H84 H 0.73982 0.50266 0.21302 0.0
C85 C 0.7768 0.77818 0.19224 0.0
H86 H 0.83527 0.59589 0.10095 0.0
C87 C 0.71947 0.7237 0.25479 0.0
C88 C 0.70762 0.62468 0.26409 0.0
H89 H 0.7911 0.85595 0.19117 0.0
H90 H 0.69032 0.7606 0.29951 0.0
C91 C 0.74802 0.57915 0.20663 0.0
C92 C 0.40077 0.89198 0.16287 0.0
C93 C 0.33998 0.83031 0.10373 0.0
H94 H 0.47833 0.8997 0.27546 0.0
C95 C 0.32702 0.72969 0.10381 0.0
H96 H 0.41151 0.96944 0.16517 0.0
C97 C 0.36618 0.69019 0.16637 0.0
C98 C 0.42001 0.75049 0.22987 0.0
H99 H 0.28123 0.68011 0.05864 0.0
H100 H 0.34928 0.61159 0.16812 0.0
C101 C 0.43989 0.85215 0.22569 0.0
C102 C 0.1464 0.76284 0.68983 0.0
C103 C 0.1928 0.85304 0.72959 0.0
H104 H 0.15405 0.65795 0.59945 0.0
C105 C 0.27801 0.91481 0.69746 0.0
H106 H 0.08007 0.71425 0.7122 0.0
C107 C 0.32093 0.88228 0.63333 0.0
C108 C 0.27895 0.7879 0.59937 0.0
H109 H 0.31503 0.98571 0.72561 0.0
H110 H 0.38944 0.92884 0.61392 0.0
C111 C 0.18895 0.7307 0.62501 0.0
C112 C 0.19479 0.35195 0.80611 0.0
C113 C 0.18998 0.25615 0.82436 0.0
H114 H 0.24707 0.47475 0.72607 0.0
C115 C 0.24497 0.21477 0.77825 0.0
H116 H 0.15453 0.38705 0.84057 0.0
C117 C 0.2997 0.26661 0.71256 0.0
C118 C 0.2993 0.35988 0.69187 0.0
H119 H 0.2431 0.14133 0.79077 0.0
H120 H 0.33785 0.23167 0.67528 0.0
C121 C 0.24802 0.40262 0.74042 0.0
C122 C 0.74696 0.319 0.85029 0.0
C123 C 0.7079 0.22208 0.87702 0.0
H124 H 0.73827 0.42621 0.7644 0.0
C125 C 0.6185 0.16444 0.84733 0.0
H126 H 0.81462 0.366 0.87284 0.0
C127 C 0.57472 0.19858 0.78461 0.0
C128 C 0.61941 0.29114 0.75067 0.0
H129 H 0.58494 0.09001 0.86812 0.0
H130 H 0.51009 0.1493 0.75805 0.0
C131 C 0.70288 0.35335 0.78799 0.0
C132 C 0.75978 0.6899 0.79197 0.0
C133 C 0.83122 0.78148 0.79165 0.0
H134 H 0.65976 0.57812 0.71927 0.0
C135 C 0.86766 0.82354 0.71544 0.0
H136 H 0.73076 0.65639 0.85009 0.0
C137 C 0.825 0.78083 0.64072 0.0
C138 C 0.74807 0.6935 0.64136 0.0
H139 H 0.92259 0.89459 0.71388 0.0
H140 H 0.84715 0.81994 0.58327 0.0
C141 C 0.71983 0.64502 0.71706 0.0
loop_
_geom_bond_atom_site_label_1
_geom_bond_atom_site_label_2
_geom_bond_distance
_geom_bond_site_symmetry_2
_ccdc_geom_bond_type
C0 O27 1.312 . S
C0 O28 1.208 . S
C1 O22 1.331 . S
C1 O25 1.244 . S
C2 O24 1.264 . S
C2 O26 1.273 . S
Mg3 O5 1.934 1_454 S
Mg3 O12 2.075 1_454 S
Mg3 O14 2.030 1_455 S
Mg3 O18 2.025 1_554 S
Mg3 O27 2.296 . S
Mg4 O5 1.963 . S
Mg4 O15 1.942 . S
Mg4 O16 1.955 1_556 S
Mg4 O23 1.986 1_545 S
O5 Mg3 1.934 1_656 S
O5 Mg4 1.963 . S
O5 Mg6 1.915 1_546 S
Mg6 O5 1.915 1_564 S
Mg6 O7 1.915 1_655 S
Mg6 O11 2.013 . S
Mg6 O17 2.114 1_664 S
Mg6 O21 2.013 1_554 S
Mg6 O27 2.114 1_665 S
O7 Mg6 1.915 1_455 S
O7 Mg8 1.936 1_565 S
O7 Mg9 1.963 . S
Mg8 O7 1.936 1_545 S
Mg8 O17 2.291 1_554 S
Mg8 O22 2.081 1_545 S
Mg8 O24 2.023 1_544 S
Mg8 O28 2.031 . S
Mg9 O7 1.963 . S
Mg9 O13 1.986 1_455 S
Mg9 O25 1.942 . S
Mg9 O26 1.955 1_554 S
C10 O21 1.191 . S
C10 O23 1.307 . S
O11 Mg6 2.013 . S
O11 C30 1.191 . S
O12 Mg3 2.075 1_656 S
O12 C20 1.331 . S
O13 Mg9 1.986 1_655 S
O13 C30 1.307 . S
O14 Mg3 2.030 1_655 S
O14 C29 1.264 . S
O15 Mg4 1.942 . S
O15 C20 1.244 . S
O16 Mg4 1.955 1_554 S
O16 C29 1.273 . S
O17 Mg6 2.114 1_446 S
O17 Mg8 2.291 1_556 S
O17 C19 1.312 . S
O18 Mg3 2.025 1_556 S
O18 C19 1.208 . S
C19 O17 1.312 . S
C19 O18 1.208 . S
C20 O12 1.331 . S
C20 O15 1.244 . S
O21 Mg6 2.013 1_556 S
O21 C10 1.191 . S
O22 C1 1.331 . S
O22 Mg8 2.081 1_565 S
O23 Mg4 1.986 1_565 S
O23 C10 1.307 . S
O24 C2 1.264 . S
O24 Mg8 2.023 1_566 S
O25 C1 1.244 . S
O25 Mg9 1.942 . S
O26 C2 1.273 . S
O26 Mg9 1.955 1_556 S
O27 C0 1.312 . S
O27 Mg3 2.296 . S
O27 Mg6 2.114 1_445 S
O28 C0 1.208 . S
O28 Mg8 2.031 . S
C29 O14 1.264 . S
C29 O16 1.273 . S
C30 O11 1.191 . S
C30 O13 1.307 . S
C31 O43 1.241 . S
C31 O44 1.280 . S
C32 O45 1.277 . S
C32 O46 1.245 . S
C33 O57 1.247 . S
C33 O59 1.289 . S
Mg34 O35 1.926 . S
Mg34 O44 1.984 . S
Mg34 O46 1.988 . S
Mg34 O47 2.061 . S
O35 Mg34 1.926 . S
O35 Mg36 1.986 . S
O35 Mg37 1.917 . S
Mg36 O35 1.986 . S
Mg36 O43 2.042 . S
Mg36 O45 2.041 . S
Mg36 O51 2.038 . S
Mg36 O59 2.238 . S
Mg37 O35 1.917 . S
Mg37 O38 1.917 . S
Mg37 O48 2.106 . S
Mg37 O50 2.079 . S
Mg37 O59 2.106 . S
Mg37 O60 2.079 . S
O38 Mg37 1.917 . S
O38 Mg39 1.926 . S
O38 Mg40 1.986 . S
Mg39 O38 1.926 . S
Mg39 O53 1.984 . S
Mg39 O56 1.988 . S
Mg39 O57 2.061 . S
Mg40 O38 1.986 . S
Mg40 O48 2.238 . S
Mg40 O52 2.042 . S
Mg40 O54 2.041 . S
Mg40 O61 2.038 . S
C41 O47 1.247 . S
C41 O48 1.289 . S
C42 O60 1.245 . S
C42 O61 1.274 . S
O43 C31 1.241 . S
O43 Mg36 2.042 . S
O44 C31 1.280 . S
O44 Mg34 1.984 . S
O45 C32 1.277 . S
O45 Mg36 2.041 . S
O46 C32 1.245 . S
O46 Mg34 1.988 . S
O47 Mg34 2.061 . S
O47 C41 1.247 . S
O48 Mg37 2.106 . S
O48 Mg40 2.238 . S
O48 C41 1.289 . S
C49 O50 1.245 . S
C49 O51 1.274 . S
O50 Mg37 2.079 . S
O50 C49 1.245 . S
O51 Mg36 2.038 . S
O51 C49 1.274 . S
O52 Mg40 2.042 . S
O52 C55 1.241 . S
O53 Mg39 1.984 . S
O53 C55 1.280 . S
O54 Mg40 2.041 . S
O54 C58 1.277 . S
C55 O52 1.241 . S
C55 O53 1.280 . S
O56 Mg39 1.988 . S
O56 C58 1.245 . S
O57 C33 1.247 . S
O57 Mg39 2.061 . S
C58 O54 1.277 . S
C58 O56 1.245 . S
O59 C33 1.289 . S
O59 Mg36 2.238 . S
O59 Mg37 2.106 . S
O60 Mg37 2.079 . S
O60 C42 1.245 . S
O61 Mg40 2.038 . S
O61 C42 1.274 . S
C62 C63 1.387 . S
C62 H66 0.950 . S
C62 C71 1.390 . S
C63 C62 1.387 . S
C63 C65 1.387 . S
H64 C71 0.950 . S
C65 C63 1.387 . S
C65 C67 1.390 . S
C65 H69 0.950 . S
H66 C62 0.950 . S
C67 C65 1.390 . S
C67 C68 1.387 . S
C67 H70 0.950 . S
C68 C67 1.387 . S
C68 C71 1.387 . S
H69 C65 0.950 . S
H70 C67 0.950 . S
C71 C62 1.390 . S
C71 H64 0.950 . S
C71 C68 1.387 . S
C72 C73 1.387 . S
C72 H76 0.950 . S
C72 C81 1.390 . S
C73 C72 1.387 . S
C73 C75 1.387 . S
H74 C81 0.950 . S
C75 C73 1.387 . S
C75 C77 1.390 . S
C75 H79 0.950 . S
H76 C72 0.950 . S
C77 C75 1.390 . S
C77 C78 1.387 . S
C77 H80 0.950 . S
C78 C77 1.387 . S
C78 C81 1.387 . S
H79 C75 0.950 . S
H80 C77 0.950 . S
C81 C72 1.390 . S
C81 H74 0.950 . S
C81 C78 1.387 . S
C82 C83 1.387 . S
C82 H86 0.950 . S
C82 C91 1.390 . S
C83 C82 1.387 . S
C83 C85 1.387 . S
H84 C91 0.950 . S
C85 C83 1.387 . S
C85 C87 1.390 . S
C85 H89 0.950 . S
H86 C82 0.950 . S
C87 C85 1.390 . S
C87 C88 1.387 . S
C87 H90 0.950 . S
C88 C87 1.387 . S
C88 C91 1.387 . S
H89 C85 0.950 . S
H90 C87 0.950 . S
C91 C82 1.390 . S
C91 H84 0.950 . S
C91 C88 1.387 . S
C92 C93 1.387 . S
C92 H96 0.950 . S
C92 C101 1.390 . S
C93 C92 1.387 . S
C93 C95 1.387 . S
H94 C101 0.950 . S
C95 C93 1.387 . S
C95 C97 1.390 . S
C95 H99 0.950 . S
H96 C92 0.950 . S
C97 C95 1.390 . S
C97 C98 1.387 . S
C97 H100 0.950 . S
C98 C97 1.387 . S
C98 C101 1.387 . S
H99 C95 0.950 . S
H100 C97 0.950 . S
C101 C92 1.390 . S
C101 H94 0.950 . S
C101 C98 1.387 . S
C102 C103 1.387 . S
C102 H106 0.950 . S
C102 C111 1.390 . S
C103 C102 1.387 . S
C103 C105 1.387 . S
H104 C111 0.950 . S
C105 C103 1.387 . S
C105 C107 1.390 . S
C105 H109 0.950 . S
H106 C102 0.950 . S
C107 C105 1.390 . S
C107 C108 1.387 . S
C107 H110 0.950 . S
C108 C107 1.387 . S
C108 C111 1.387 . S
H109 C105 0.950 . S
H110 C107 0.950 . S
C111 C102 1.390 . S
C111 H104 0.950 . S
C111 C108 1.387 . S
C112 C113 1.387 . S
C112 H116 0.950 . S
C112 C121 1.390 . S
C113 C112 1.387 . S
C113 C115 1.387 . S
H114 C121 0.950 . S
C115 C113 1.387 . S
C115 C117 1.390 . S
C115 H119 0.950 . S
H116 C112 0.950 . S
C117 C115 1.390 . S
C117 C118 1.387 . S
C117 H120 0.950 . S
C118 C117 1.387 . S
C118 C121 1.387 . S
H119 C115 0.950 . S
H120 C117 0.950 . S
C121 C112 1.390 . S
C121 H114 0.950 . S
C121 C118 1.387 . S
C122 C123 1.387 . S
C122 H126 0.950 . S
C122 C131 1.390 . S
C123 C122 1.387 . S
C123 C125 1.387 . S
H124 C131 0.950 . S
C125 C123 1.387 . S
C125 C127 1.390 . S
C125 H129 0.950 . S
H126 C122 0.950 . S
C127 C125 1.390 . S
C127 C128 1.387 . S
C127 H130 0.950 . S
C128 C127 1.387 . S
C128 C131 1.387 . S
H129 C125 0.950 . S
H130 C127 0.950 . S
C131 C122 1.390 . S
C131 H124 0.950 . S
C131 C128 1.387 . S
C132 C133 1.387 . S
C132 H136 0.950 . S
C132 C141 1.390 . S
C133 C132 1.387 . S
C133 C135 1.387 . S
H134 C141 0.950 . S
C135 C133 1.387 . S
C135 C137 1.390 . S
C135 H139 0.950 . S
H136 C132 0.950 . S
C137 C135 1.390 . S
C137 C138 1.387 . S
C137 H140 0.950 . S
C138 C137 1.387 . S
C138 C141 1.387 . S
H139 C135 0.950 . S
H140 C137 0.950 . S
C141 C132 1.390 . S
C141 H134 0.950 . S
C141 C138 1.387 . S
C63 C0 1.239 . S
C68 C33 1.249 . S
C73 C29 1.568 . S
C78 C55 1.543 . S
C83 C30 1.471 . S
C88 C42 1.444 . S
C93 C1 1.550 . S
C98 C32 1.544 . S
C103 C2 1.557 . S
C108 C31 1.538 . S
C118 C49 1.494 . S
C113 C19 1.486 . S
C123 C20 1.567 . S
C128 C58 1.567 . S
C138 C41 1.196 . S
C133 C10 1.210 . S
