# Generated by pormake.
# Topology pts, (4,4)-cn, num edge types: 1
# Building blocks:
#     Node 0, Type 0, BuildingBlock: ESEHIV_clean_sbu_0, # of connection points: 4
#     Node 1, Type 0, BuildingBlock: ESEHIV_clean_sbu_0, # of connection points: 4
#     Node 2, Type 1, BuildingBlock: QUQFOY_clean_sbu_1, # of connection points: 4
#     Node 3, Type 1, BuildingBlock: QUQFOY_clean_sbu_1, # of connection points: 4
#     Edge 4, Type (0, 1), BuildingBlock: CIFDUS_clean_linker_0, # of connection points: 2
#     Edge 5, Type (0, 1), BuildingBlock: CIFDUS_clean_linker_0, # of connection points: 2
#     Edge 6, Type (0, 1), BuildingBlock: CIFDUS_clean_linker_0, # of connection points: 2
#     Edge 7, Type (0, 1), BuildingBlock: CIFDUS_clean_linker_0, # of connection points: 2
#     Edge 8, Type (0, 1), BuildingBlock: CIFDUS_clean_linker_0, # of connection points: 2
#     Edge 9, Type (0, 1), BuildingBlock: CIFDUS_clean_linker_0, # of connection points: 2
#     Edge 10, Type (0, 1), BuildingBlock: CIFDUS_clean_linker_0, # of connection points: 2
#     Edge 11, Type (0, 1), BuildingBlock: CIFDUS_clean_linker_0, # of connection points: 2
# Relax obj value: 0.096
# Max RMSD: 0.249
# Mean RMSD: 0.176
data_MOF--net-pts--node1-ESEHIV_clean_sbu_0--node2-QUQFOY_clean_sbu_1--edge1-CIFDUS_clean_linker_0
_symmetry_space_group_name_H-M    P1
_symmetry_Int_Tables_number       1
_symmetry_cell_setting            triclinic
loop_
_symmetry_equiv_pos_as_xyz
'x, y, z'
_cell_length_a     21.006202
_cell_length_b     22.867652
_cell_length_c     34.429593
_cell_angle_alpha  94.671284
_cell_angle_beta   94.105684
_cell_angle_gamma 89.536048
loop_
_atom_site_label
_atom_site_type_symbol
_atom_site_fract_x
_atom_site_fract_y
_atom_site_fract_z
_atom_type_partial_charge
Cu0 Cu 0.57816 0.07733 0.02401 0.0
N1 N 0.62888 0.02611 0.99409 0.0
N2 N 0.70324 1.00037 0.95242 0.0
C3 C 0.67745 0.04443 0.97477 0.0
C4 C 0.66963 0.95213 0.95829 0.0
C5 C 0.62369 0.96816 0.98391 0.0
O6 O 0.63664 0.12444 0.05996 0.0
C7 C 0.49141 0.08581 0.96308 0.0
O8 O 0.4987 0.02895 0.96475 0.0
H9 H 0.69279 0.08968 0.97688 0.0
H10 H 0.58751 0.93996 0.99303 0.0
N11 N 0.52336 0.03995 0.05462 0.0
N12 N 0.44971 0.03454 0.09814 0.0
C13 C 0.47773 0.06869 0.07405 0.0
C14 C 0.52426 0.98528 0.06643 0.0
C15 C 0.47885 0.98178 0.09319 0.0
C16 C 0.66612 0.09331 0.08454 0.0
O17 O 0.65509 0.03663 0.08191 0.0
H18 H 0.46671 0.11443 0.07101 0.0
H19 H 0.55768 0.95128 0.05792 0.0
O20 O 0.52356 0.12011 0.98798 0.0
H21 H 0.67597 0.90878 0.94398 0.0
H22 H 0.47029 0.94395 0.10899 0.0
Cu23 Cu 0.01756 0.59919 0.52684 0.0
N24 N 0.97304 0.55326 0.55857 0.0
N25 N 0.95803 0.48221 0.59812 0.0
C26 C 0.9846 0.49676 0.56562 0.0
C27 C 0.92746 0.53104 0.61152 0.0
C28 C 0.93727 0.57467 0.5874 0.0
O29 O 0.05507 0.54984 0.48572 0.0
C30 C 0.09995 0.69406 0.55588 0.0
O31 O 0.09721 0.70912 0.51985 0.0
H32 H 0.01661 0.46845 0.54957 0.0
H33 H 0.92471 0.62029 0.59303 0.0
N34 N 0.96365 0.65341 0.50269 0.0
N35 N 0.94171 0.73167 0.46898 0.0
C36 C 0.97989 0.68453 0.47331 0.0
C37 C 0.91167 0.68054 0.51635 0.0
C38 C 0.89816 0.72886 0.49571 0.0
C39 C 0.09497 0.50836 0.49025 0.0
O40 O 0.11966 0.49936 0.52541 0.0
H41 H 0.0229 0.67624 0.45818 0.0
H42 H 0.88782 0.66896 0.54134 0.0
O43 O 0.07724 0.64484 0.56284 0.0
H44 H 0.90361 0.53622 0.63844 0.0
H45 H 0.86148 0.76128 0.5015 0.0
O46 O 0.97266 0.06931 0.25894 0.0
Cd47 Cd 0.05688 0.04385 0.28718 0.0
Cd48 Cd 0.07831 0.16631 0.2775 0.0
O49 O 0.98889 0.16171 0.24801 0.0
O50 O 0.04097 0.95808 0.28893 0.0
O51 O 0.05328 1.01836 0.34218 0.0
C52 C 0.04236 0.96596 0.32635 0.0
C53 C 0.09552 0.23447 0.33149 0.0
C54 C 0.95344 0.11659 0.24489 0.0
C55 C 0.17068 0.07941 0.24314 0.0
O56 O 0.1546 0.13312 0.24798 0.0
O57 O 0.13901 0.03994 0.2572 0.0
O58 O 0.09517 0.25004 0.29626 0.0
O59 O 0.08662 0.17961 0.33607 0.0
O60 O 0.99609 0.1334 0.81324 0.0
Cd61 Cd 0.07187 0.16042 0.78417 0.0
Cd62 Cd 0.08037 0.03673 0.76697 0.0
O63 O 0.00064 0.03754 0.79917 0.0
O64 O 0.05817 0.24653 0.78332 0.0
O65 O 0.0556 0.18666 0.72955 0.0
C66 C 0.04986 0.23922 0.7458 0.0
C67 C 0.08509 0.96894 0.71241 0.0
C68 C 0.97447 0.08221 0.8159 0.0
C69 C 0.19343 0.10253 0.81092 0.0
O70 O 0.16788 0.05505 0.79582 0.0
O71 O 0.16339 0.1509 0.80978 0.0
O72 O 0.09069 0.95285 0.74747 0.0
O73 O 0.07469 0.02387 0.70809 0.0
H74 H 0.37417 0.96354 0.13424 0.0
H75 H 0.41714 0.14591 0.12408 0.0
H76 H 0.3358 0.17557 0.16832 0.0
H77 H 0.25107 0.15044 0.20954 0.0
H78 H 0.21061 0.96818 0.22155 0.0
H79 H 0.2933 0.93829 0.17785 0.0
C80 C 0.36651 1.00978 0.14189 0.0
C81 C 0.40198 0.05207 0.12517 0.0
C82 C 0.32006 0.02686 0.16804 0.0
C83 C 0.39023 0.11192 0.1355 0.0
C84 C 0.34382 0.12916 0.16122 0.0
C85 C 0.26054 0.10416 0.20282 0.0
C86 C 0.22432 0.06177 0.21882 0.0
C87 C 0.30822 0.08706 0.17754 0.0
C88 C 0.23757 1.00196 0.20976 0.0
C89 C 0.28482 0.9847 0.18461 0.0
H90 H 0.97229 0.47813 0.67604 0.0
H91 H 0.97867 0.37132 0.56735 0.0
H92 H 0.00816 0.28553 0.60324 0.0
H93 H 0.03277 0.24139 0.66609 0.0
H94 H 0.02753 0.35127 0.77399 0.0
H95 H 0.99656 0.43513 0.7378 0.0
C96 C 0.97901 0.43595 0.66013 0.0
C97 C 0.97244 0.43099 0.61906 0.0
C98 C 0.99657 0.38735 0.68088 0.0
C99 C 0.98336 0.37622 0.59896 0.0
C100 C 0.00018 0.32723 0.61949 0.0
C101 C 0.02491 0.28371 0.68163 0.0
C102 C 0.03254 0.28983 0.72277 0.0
C103 C 0.00718 0.33232 0.66053 0.0
C104 C 0.02221 0.34508 0.7424 0.0
C105 C 0.00431 0.39322 0.72174 0.0
H106 H 0.69155 0.0528 0.15443 0.0
H107 H 0.74756 0.187 0.08295 0.0
H108 H 0.83943 0.2118 0.12965 0.0
H109 H 0.91097 0.18533 0.1865 0.0
H110 H 0.85343 0.0473 0.25493 0.0
H111 H 0.75476 0.03425 0.21387 0.0
C112 C 0.72338 0.0881 0.14931 0.0
C113 C 0.7136 0.1175 0.11517 0.0
C114 C 0.77614 0.10096 0.1756 0.0
C115 C 0.75433 0.16378 0.10913 0.0
C116 C 0.80704 0.17755 0.13566 0.0
C117 C 0.87616 0.15327 0.19278 0.0
C118 C 0.88995 0.11671 0.22337 0.0
C119 C 0.81959 0.14503 0.16837 0.0
C120 C 0.84446 0.07534 0.23122 0.0
C121 C 0.78795 0.06782 0.20778 0.0
H122 H 0.09469 0.81239 0.55305 0.0
H123 H 0.12885 0.67745 0.63276 0.0
H124 H 0.12946 0.75135 0.68823 0.0
H125 H 0.11201 0.85282 0.71408 0.0
H126 H 0.07343 0.98741 0.63459 0.0
H127 H 0.08239 0.91489 0.57896 0.0
C128 C 0.10367 0.79923 0.58251 0.0
C129 C 0.11197 0.73943 0.58875 0.0
C130 C 0.10195 0.84173 0.6143 0.0
C131 C 0.12251 0.72315 0.62717 0.0
C132 C 0.12244 0.76534 0.65889 0.0
C133 C 0.10568 0.86644 0.6846 0.0
C134 C 0.09148 0.92545 0.67854 0.0
C135 C 0.11065 0.82452 0.65281 0.0
C136 C 0.08394 0.94226 0.64012 0.0
C137 C 0.08925 0.90083 0.60829 0.0
H138 H 0.45276 0.02943 0.89453 0.0
H139 H 0.42179 0.18869 0.96665 0.0
H140 H 0.32903 0.21203 0.92286 0.0
H141 H 0.2495 0.17997 0.86827 0.0
H142 H 0.28195 1.01774 0.79902 0.0
H143 H 0.3815 1.00293 0.83741 0.0
C144 C 0.4262 0.0697 0.90046 0.0
C145 C 0.44337 0.1069 0.93396 0.0
C146 C 0.37279 0.08194 0.87582 0.0
C147 C 0.40933 0.15937 0.94097 0.0
C148 C 0.35608 0.17241 0.9161 0.0
C149 C 0.27901 0.14199 0.86124 0.0
C150 C 0.25781 0.09958 0.83116 0.0
C151 C 0.3362 0.13302 0.88405 0.0
C152 C 0.29658 0.05058 0.82236 0.0
C153 C 0.35362 0.04204 0.84426 0.0
H154 H 0.11913 0.3915 0.4919 0.0
H155 H 0.08951 0.52832 0.41332 0.0
H156 H 0.09137 0.45579 0.35719 0.0
H157 H 0.09368 0.35314 0.33053 0.0
H158 H 0.11588 0.21524 0.40887 0.0
H159 H 0.1246 0.28837 0.46493 0.0
C160 C 0.1143 0.40546 0.46247 0.0
C161 C 0.1046 0.46522 0.45673 0.0
C162 C 0.11325 0.36322 0.4303 0.0
C163 C 0.09714 0.48259 0.41845 0.0
C164 C 0.09797 0.44112 0.38636 0.0
C165 C 0.10096 0.339 0.35983 0.0
C166 C 0.10398 0.27872 0.36545 0.0
C167 C 0.10471 0.38123 0.39194 0.0
C168 C 0.11309 0.2613 0.40369 0.0
C169 C 0.11817 0.30313 0.43578 0.0
H170 H 0.73942 0.09768 0.92026 0.0
H171 H 0.78096 0.91315 0.92503 0.0
H172 H 0.86659 0.92127 0.8814 0.0
H173 H 0.93222 0.98172 0.84352 0.0
H174 H 0.89246 0.16711 0.8418 0.0
H175 H 0.80419 0.15764 0.88302 0.0
C176 C 0.76748 0.05922 0.91229 0.0
C177 C 0.75365 1.00493 0.92633 0.0
C178 C 0.81723 0.06436 0.88767 0.0
C179 C 0.78994 0.95544 0.91457 0.0
C180 C 0.83925 0.9601 0.88972 0.0
C181 C 0.90399 1.01997 0.85197 0.0
C182 C 0.91915 0.07506 0.83956 0.0
C183 C 0.85356 1.01444 0.87624 0.0
C184 C 0.8822 0.12421 0.85101 0.0
C185 C 0.8316 0.11887 0.87461 0.0
H186 H 0.99138 0.72749 0.39905 0.0
H187 H 0.92192 0.84673 0.49001 0.0
H188 H 0.9498 0.93042 0.45487 0.0
H189 H 0.99475 0.97002 0.39813 0.0
H190 H 0.06026 0.85019 0.30604 0.0
H191 H 0.03431 0.76675 0.34191 0.0
C192 C 0.98235 0.77183 0.41107 0.0
C193 C 0.95432 0.78078 0.44694 0.0
C194 C 0.99844 0.81976 0.39066 0.0
C195 C 0.94241 0.83851 0.46212 0.0
C196 C 0.95893 0.88646 0.44221 0.0
C197 C 0.00381 0.92563 0.38616 0.0
C198 C 0.02979 0.91628 0.34965 0.0
C199 C 0.98721 0.87766 0.40651 0.0
C200 C 0.04035 0.85852 0.33414 0.0
C201 C 0.02541 0.81076 0.35458 0.0
loop_
_geom_bond_atom_site_label_1
_geom_bond_atom_site_label_2
_geom_bond_distance
_geom_bond_site_symmetry_2
_ccdc_geom_bond_type
Cu0 N1 1.999 1_554 S
Cu0 O6 1.974 . S
Cu0 N11 1.985 . S
Cu0 O20 1.959 1_554 S
N1 Cu0 1.999 1_556 S
N1 C3 1.263 . S
N1 C5 1.389 . S
N2 C3 1.358 . S
N2 C4 1.400 . S
C3 N1 1.263 . S
C3 N2 1.358 . S
C3 H9 0.930 . S
C4 N2 1.400 . S
C4 C5 1.351 . S
C4 H21 0.930 . S
C5 N1 1.389 . S
C5 C4 1.351 . S
C5 H10 0.930 . S
O6 Cu0 1.974 . S
O6 C16 1.282 . S
C7 O8 1.261 . S
C7 O20 1.251 . S
O8 C7 1.261 . S
H9 C3 0.930 . S
H10 C5 0.930 . S
N11 Cu0 1.985 . S
N11 C13 1.335 . S
N11 C14 1.390 . S
N12 C13 1.345 . S
N12 C15 1.336 . S
C13 N11 1.335 . S
C13 N12 1.345 . S
C13 H18 0.930 . S
C14 N11 1.390 . S
C14 C15 1.346 . S
C14 H19 0.930 . S
C15 N12 1.336 . S
C15 C14 1.346 . S
C15 H22 0.929 . S
C16 O6 1.282 . S
C16 O17 1.216 . S
O17 C16 1.216 . S
H18 C13 0.930 . S
H19 C14 0.930 . S
O20 Cu0 1.959 1_556 S
O20 C7 1.251 . S
H21 C4 0.930 . S
H22 C15 0.929 . S
Cu23 N24 1.999 . S
Cu23 O29 1.974 . S
Cu23 N34 1.985 . S
Cu23 O43 1.959 . S
N24 Cu23 1.999 . S
N24 C26 1.263 . S
N24 C28 1.389 1_455 S
N25 C26 1.358 . S
N25 C27 1.400 1_455 S
C26 N24 1.263 . S
C26 N25 1.358 . S
C26 H32 0.930 . S
C27 N25 1.400 1_655 S
C27 C28 1.351 . S
C27 H44 0.930 . S
C28 N24 1.389 1_655 S
C28 C27 1.351 . S
C28 H33 0.930 . S
O29 Cu23 1.974 . S
O29 C39 1.282 . S
C30 O31 1.261 . S
C30 O43 1.251 . S
O31 C30 1.261 . S
H32 C26 0.930 . S
H33 C28 0.930 . S
N34 Cu23 1.985 . S
N34 C36 1.335 . S
N34 C37 1.390 . S
N35 C36 1.345 . S
N35 C38 1.336 . S
C36 N34 1.335 . S
C36 N35 1.345 . S
C36 H41 0.930 1_455 S
C37 N34 1.390 . S
C37 C38 1.346 . S
C37 H42 0.930 . S
C38 N35 1.336 . S
C38 C37 1.346 . S
C38 H45 0.929 . S
C39 O29 1.282 . S
C39 O40 1.216 . S
O40 C39 1.216 . S
H41 C36 0.930 1_655 S
H42 C37 0.930 . S
O43 Cu23 1.959 . S
O43 C30 1.251 . S
H44 C27 0.930 . S
H45 C38 0.929 . S
O46 Cd47 2.223 . S
O46 C54 1.315 1_465 S
Cd47 O46 2.223 . S
Cd47 O50 2.297 . S
Cd47 O51 2.439 . S
Cd47 O57 2.240 1_565 S
Cd48 O49 2.240 1_455 S
Cd48 O56 2.223 . S
Cd48 O58 2.297 . S
Cd48 O59 2.439 . S
O49 Cd48 2.240 1_655 S
O49 C54 1.279 . S
O50 Cd47 2.297 . S
O50 C52 1.247 . S
O51 Cd47 2.439 . S
O51 C52 1.208 . S
C52 O50 1.247 . S
C52 O51 1.208 . S
C53 O58 1.247 . S
C53 O59 1.208 . S
C54 O46 1.315 1_645 S
C54 O49 1.279 . S
C55 O56 1.315 . S
C55 O57 1.279 . S
O56 Cd48 2.223 . S
O56 C55 1.315 . S
O57 Cd47 2.240 1_545 S
O57 C55 1.279 . S
O58 Cd48 2.297 . S
O58 C53 1.247 . S
O59 Cd48 2.439 . S
O59 C53 1.208 . S
O60 Cd61 2.223 . S
O60 C68 1.315 . S
Cd61 O60 2.223 . S
Cd61 O64 2.297 . S
Cd61 O65 2.439 . S
Cd61 O71 2.240 . S
Cd62 O63 2.240 1_565 S
Cd62 O70 2.223 . S
Cd62 O72 2.297 . S
Cd62 O73 2.439 . S
O63 Cd62 2.240 1_545 S
O63 C68 1.279 . S
O64 Cd61 2.297 . S
O64 C66 1.247 . S
O65 Cd61 2.439 . S
O65 C66 1.208 . S
C66 O64 1.247 . S
C66 O65 1.208 . S
C67 O72 1.247 . S
C67 O73 1.208 . S
C68 O60 1.315 . S
C68 O63 1.279 . S
C69 O70 1.315 1_545 S
C69 O71 1.279 . S
O70 Cd62 2.223 . S
O70 C69 1.315 1_565 S
O71 Cd61 2.240 . S
O71 C69 1.279 . S
O72 Cd62 2.297 . S
O72 C67 1.247 . S
O73 Cd62 2.439 . S
O73 C67 1.208 . S
H74 C80 0.930 . S
H75 C83 0.930 . S
H76 C84 0.930 . S
H77 C85 0.930 . S
H78 C88 0.930 . S
H79 C89 0.930 . S
C80 H74 0.930 . S
C80 C81 1.355 . S
C80 C82 1.415 . S
C81 C80 1.355 . S
C81 C83 1.419 . S
C82 C80 1.415 . S
C82 C87 1.425 . S
C82 C89 1.409 . S
C83 H75 0.930 . S
C83 C81 1.419 . S
C83 C84 1.362 . S
C84 H76 0.930 . S
C84 C83 1.362 . S
C84 C87 1.409 . S
C85 H77 0.930 . S
C85 C86 1.355 . S
C85 C87 1.415 . S
C86 C85 1.355 . S
C86 C88 1.419 . S
C87 C82 1.425 . S
C87 C84 1.409 . S
C87 C85 1.415 . S
C88 H78 0.930 . S
C88 C86 1.419 . S
C88 C89 1.362 . S
C89 H79 0.930 . S
C89 C82 1.409 . S
C89 C88 1.362 . S
H90 C96 0.930 . S
H91 C99 0.930 . S
H92 C100 0.930 . S
H93 C101 0.930 . S
H94 C104 0.930 1_655 S
H95 C105 0.930 1_655 S
C96 H90 0.930 . S
C96 C97 1.355 . S
C96 C98 1.415 . S
C97 C96 1.355 . S
C97 C99 1.419 . S
C98 C96 1.415 . S
C98 C103 1.425 . S
C98 C105 1.409 . S
C99 H91 0.930 . S
C99 C97 1.419 . S
C99 C100 1.362 . S
C100 H92 0.930 . S
C100 C99 1.362 . S
C100 C103 1.409 . S
C101 H93 0.930 . S
C101 C102 1.355 . S
C101 C103 1.415 . S
C102 C101 1.355 . S
C102 C104 1.419 . S
C103 C98 1.425 . S
C103 C100 1.409 . S
C103 C101 1.415 . S
C104 H94 0.930 1_455 S
C104 C102 1.419 . S
C104 C105 1.362 . S
C105 H95 0.930 1_455 S
C105 C98 1.409 . S
C105 C104 1.362 . S
H106 C112 0.930 . S
H107 C115 0.930 . S
H108 C116 0.930 . S
H109 C117 0.930 . S
H110 C120 0.930 . S
H111 C121 0.930 . S
C112 H106 0.930 . S
C112 C113 1.355 . S
C112 C114 1.415 . S
C113 C112 1.355 . S
C113 C115 1.419 . S
C114 C112 1.415 . S
C114 C119 1.425 . S
C114 C121 1.409 . S
C115 H107 0.930 . S
C115 C113 1.419 . S
C115 C116 1.362 . S
C116 H108 0.930 . S
C116 C115 1.362 . S
C116 C119 1.409 . S
C117 H109 0.930 . S
C117 C118 1.355 . S
C117 C119 1.415 . S
C118 C117 1.355 . S
C118 C120 1.419 . S
C119 C114 1.425 . S
C119 C116 1.409 . S
C119 C117 1.415 . S
C120 H110 0.930 . S
C120 C118 1.419 . S
C120 C121 1.362 . S
C121 H111 0.930 . S
C121 C114 1.409 . S
C121 C120 1.362 . S
H122 C128 0.930 . S
H123 C131 0.930 1_655 S
H124 C132 0.930 1_655 S
H125 C133 0.930 . S
H126 C136 0.930 . S
H127 C137 0.930 . S
C128 H122 0.930 . S
C128 C129 1.355 . S
C128 C130 1.415 . S
C129 C128 1.355 . S
C129 C131 1.419 . S
C130 C128 1.415 . S
C130 C135 1.425 . S
C130 C137 1.409 . S
C131 H123 0.930 1_455 S
C131 C129 1.419 . S
C131 C132 1.362 . S
C132 H124 0.930 1_455 S
C132 C131 1.362 . S
C132 C135 1.409 . S
C133 H125 0.930 . S
C133 C134 1.355 . S
C133 C135 1.415 . S
C134 C133 1.355 . S
C134 C136 1.419 . S
C135 C130 1.425 . S
C135 C132 1.409 . S
C135 C133 1.415 . S
C136 H126 0.930 . S
C136 C134 1.419 . S
C136 C137 1.362 . S
C137 H127 0.930 . S
C137 C130 1.409 . S
C137 C136 1.362 . S
H138 C144 0.930 . S
H139 C147 0.930 . S
H140 C148 0.930 . S
H141 C149 0.930 . S
H142 C152 0.930 1_565 S
H143 C153 0.930 1_565 S
C144 H138 0.930 . S
C144 C145 1.355 . S
C144 C146 1.415 . S
C145 C144 1.355 . S
C145 C147 1.419 . S
C146 C144 1.415 . S
C146 C151 1.425 . S
C146 C153 1.409 . S
C147 H139 0.930 . S
C147 C145 1.419 . S
C147 C148 1.362 . S
C148 H140 0.930 . S
C148 C147 1.362 . S
C148 C151 1.409 . S
C149 H141 0.930 . S
C149 C150 1.355 . S
C149 C151 1.415 . S
C150 C149 1.355 . S
C150 C152 1.419 . S
C151 C146 1.425 . S
C151 C148 1.409 . S
C151 C149 1.415 . S
C152 H142 0.930 1_545 S
C152 C150 1.419 . S
C152 C153 1.362 . S
C153 H143 0.930 1_545 S
C153 C146 1.409 . S
C153 C152 1.362 . S
H154 C160 0.930 . S
H155 C163 0.930 1_655 S
H156 C164 0.930 1_655 S
H157 C165 0.930 . S
H158 C168 0.930 . S
H159 C169 0.930 . S
C160 H154 0.930 . S
C160 C161 1.355 . S
C160 C162 1.415 . S
C161 C160 1.355 . S
C161 C163 1.419 . S
C162 C160 1.415 . S
C162 C167 1.425 . S
C162 C169 1.409 . S
C163 H155 0.930 1_455 S
C163 C161 1.419 . S
C163 C164 1.362 . S
C164 H156 0.930 1_455 S
C164 C163 1.362 . S
C164 C167 1.409 . S
C165 H157 0.930 . S
C165 C166 1.355 . S
C165 C167 1.415 . S
C166 C165 1.355 . S
C166 C168 1.419 . S
C167 C162 1.425 . S
C167 C164 1.409 . S
C167 C165 1.415 . S
C168 H158 0.930 . S
C168 C166 1.419 . S
C168 C169 1.362 . S
C169 H159 0.930 . S
C169 C162 1.409 . S
C169 C168 1.362 . S
H170 C176 0.930 . S
H171 C179 0.930 . S
H172 C180 0.930 . S
H173 C181 0.930 . S
H174 C184 0.930 1_455 S
H175 C185 0.930 . S
C176 H170 0.930 . S
C176 C177 1.355 . S
C176 C178 1.415 . S
C177 C176 1.355 . S
C177 C179 1.419 . S
C178 C176 1.415 . S
C178 C183 1.425 . S
C178 C185 1.409 . S
C179 H171 0.930 . S
C179 C177 1.419 . S
C179 C180 1.362 . S
C180 H172 0.930 . S
C180 C179 1.362 . S
C180 C183 1.409 . S
C181 H173 0.930 . S
C181 C182 1.355 . S
C181 C183 1.415 . S
C182 C181 1.355 . S
C182 C184 1.419 . S
C183 C178 1.425 . S
C183 C180 1.409 . S
C183 C181 1.415 . S
C184 H174 0.930 1_655 S
C184 C182 1.419 . S
C184 C185 1.362 . S
C185 H175 0.930 . S
C185 C178 1.409 . S
C185 C184 1.362 . S
H186 C192 0.930 . S
H187 C195 0.930 . S
H188 C196 0.930 . S
H189 C197 0.930 . S
H190 C200 0.930 . S
H191 C201 0.930 . S
C192 H186 0.930 . S
C192 C193 1.355 1_655 S
C192 C194 1.415 . S
C193 C192 1.355 1_455 S
C193 C195 1.419 . S
C194 C192 1.415 . S
C194 C199 1.425 1_655 S
C194 C201 1.409 . S
C195 H187 0.930 . S
C195 C193 1.419 . S
C195 C196 1.362 . S
C196 H188 0.930 . S
C196 C195 1.362 . S
C196 C199 1.409 . S
C197 H189 0.930 . S
C197 C198 1.355 . S
C197 C199 1.415 . S
C198 C197 1.355 . S
C198 C200 1.419 1_455 S
C199 C194 1.425 1_455 S
C199 C196 1.409 . S
C199 C197 1.415 . S
C200 H190 0.930 . S
C200 C198 1.419 1_655 S
C200 C201 1.362 . S
C201 H191 0.930 . S
C201 C194 1.409 . S
C201 C200 1.362 . S
C86 C55 1.552 . S
C81 N12 1.484 . S
C102 C66 1.521 . S
C97 N25 1.564 . S
C118 C54 1.561 . S
C113 C16 1.523 . S
C134 C67 1.560 . S
C129 C30 1.599 . S
C150 C69 1.598 . S
C145 C7 1.585 . S
C166 C53 1.519 . S
C161 C39 1.542 . S
C182 C68 1.581 1_655 S
C177 N2 1.521 . S
C193 N35 1.500 . S
C198 C52 1.516 . S
