# Generated by pormake.
# Topology scu, (8,4)-cn, num edge types: 1
# Building blocks:
#     Node 0, Type 0, BuildingBlock: VETTIZ_charged_sbu_0, # of connection points: 8
#     Node 1, Type 1, BuildingBlock: MUDLON_clean_sbu_0, # of connection points: 4
#     Node 2, Type 1, BuildingBlock: MUDLON_clean_sbu_0, # of connection points: 4
#     Edge 3, Type (0, 1), None
#     Edge 4, Type (0, 1), None
#     Edge 5, Type (0, 1), None
#     Edge 6, Type (0, 1), None
#     Edge 7, Type (0, 1), None
#     Edge 8, Type (0, 1), None
#     Edge 9, Type (0, 1), None
#     Edge 10, Type (0, 1), None
# Relax obj value: 0.036
# Max RMSD: 0.093
# Mean RMSD: 0.083
data_MOF--net-scu--node1-VETTIZ_charged_sbu_0--node2-MUDLON_clean_sbu_0--edge1-none
_symmetry_space_group_name_H-M    P1
_symmetry_Int_Tables_number       1
_symmetry_cell_setting            triclinic
loop_
_symmetry_equiv_pos_as_xyz
'x, y, z'
_cell_length_a     11.86085
_cell_length_b     11.287717
_cell_length_c     10.589699
_cell_angle_alpha  89.033772
_cell_angle_beta   90.114018
_cell_angle_gamma 81.125899
loop_
_atom_site_label
_atom_site_type_symbol
_atom_site_fract_x
_atom_site_fract_y
_atom_site_fract_z
_atom_type_partial_charge
Fe0 Fe 0.03823 1.06503 0.19323 0.0
O1 O 0.91074 0.0983 0.0671 0.0
Fe2 Fe 0.24475 0.86592 0.03633 0.0
Fe3 Fe 0.8049 0.25225 0.06831 0.0
O4 O 0.13665 1.01606 0.04389 0.0
O5 O 0.13656 1.01775 0.03294 0.0
O6 O 0.90964 0.09792 0.05517 0.0
Fe7 Fe 1.01074 1.05612 0.90666 0.0
C8 C 0.80485 0.12948 0.32292 0.0
O9 O 0.07436 0.23529 0.17176 0.0
O10 O 0.9007 0.33322 0.19855 0.0
O11 O 0.13669 1.01178 0.7679 0.0
O12 O 0.30407 0.9418 0.87779 0.0
O13 O 0.32919 0.9523 0.1677 0.0
O14 O 0.18663 1.03275 0.3043 0.0
O15 O 0.87084 0.33601 0.91506 0.0
O16 O 0.04275 0.22963 0.88895 0.0
C17 C 0.29286 1.00768 0.26946 0.0
O18 O 0.97954 0.88178 0.91327 0.0
O19 O 0.15513 0.77961 0.90708 0.0
O20 O 0.91572 0.11549 0.33417 0.0
O21 O 0.74719 0.16961 0.22307 0.0
C22 C 1.0079 0.32123 0.21874 0.0
C23 C 0.96794 0.31995 0.86223 0.0
C24 C 0.75502 0.1295 0.82692 0.0
O25 O 0.71743 0.17527 0.93297 0.0
O26 O 0.86204 0.09788 0.79598 0.0
C27 C 0.24769 0.98368 0.77747 0.0
O28 O 0.1739 0.78783 0.19007 0.0
O29 O 1.00315 0.89448 0.22612 0.0
C30 C 0.05071 0.79402 0.87436 0.0
C31 C 0.07801 0.80324 0.24694 0.0
Mg32 Mg 0.99391 0.57279 0.55262 0.0
C33 C 0.05275 0.39349 0.31653 0.0
O34 O 0.16233 0.39907 0.3229 0.0
C35 C 1.01334 0.71729 0.77603 0.0
O36 O 0.90344 0.72234 0.75553 0.0
C37 C 0.99405 0.40394 0.76203 0.0
O38 O 0.10045 0.39838 0.72536 0.0
O39 O 0.91617 0.47353 0.70122 0.0
O40 O 0.98494 0.44392 0.39951 0.0
O41 O 0.97006 0.72388 0.4153 0.0
C42 C 0.06098 0.71696 0.34909 0.0
O43 O 0.14775 0.63486 0.38033 0.0
O44 O 0.08377 0.65847 0.69951 0.0
Mg45 Mg 0.51312 0.09119 0.55035 0.0
C46 C 0.3813 1.02865 0.35762 0.0
O47 O 0.46011 0.93786 0.38881 0.0
C48 C 0.67015 0.10041 0.73898 0.0
O49 O 0.68662 0.99374 0.6884 0.0
C50 C 0.31529 1.02077 0.67406 0.0
O51 O 0.2739 0.11949 0.61203 0.0
O52 O 0.42084 0.97727 0.66344 0.0
O53 O 0.38454 0.13099 0.40554 0.0
O54 O 0.66506 1.04603 0.4351 0.0
C55 C 0.73616 0.12029 0.43422 0.0
O56 O 0.7184 0.21464 0.50616 0.0
O57 O 0.58588 0.17785 0.70245 0.0
loop_
_geom_bond_atom_site_label_1
_geom_bond_atom_site_label_2
_geom_bond_distance
_geom_bond_site_symmetry_2
_ccdc_geom_bond_type
Fe0 O1 1.886 . S
Fe0 O4 1.715 1_645 S
Fe0 O9 2.077 1_655 S
Fe0 O14 1.935 1_655 S
Fe0 O20 2.077 1_545 S
Fe0 O29 1.935 1_545 S
O1 Fe0 1.886 . S
O1 Fe3 1.715 . S
Fe2 O4 1.886 . S
Fe2 O5 1.715 1_554 S
Fe2 O12 1.935 1_554 S
Fe2 O13 2.077 . S
Fe2 O19 1.935 1_554 S
Fe2 O28 2.077 . S
Fe3 O1 1.715 . S
Fe3 O6 1.886 1_554 S
Fe3 O10 1.935 . S
Fe3 O15 2.077 1_554 S
Fe3 O21 1.935 . S
Fe3 O25 2.077 1_554 S
O4 Fe0 1.715 1_465 S
O4 Fe2 1.886 . S
O5 Fe2 1.715 1_556 S
O5 Fe7 1.886 . S
O6 Fe3 1.886 1_556 S
O6 Fe7 1.715 1_645 S
Fe7 O5 1.886 . S
Fe7 O6 1.715 1_465 S
Fe7 O11 2.077 1_565 S
Fe7 O16 1.935 1_565 S
Fe7 O18 2.077 1_455 S
Fe7 O26 1.935 1_455 S
C8 O20 1.381 1_545 S
C8 O21 1.421 . S
O9 Fe0 2.077 1_455 S
O9 C22 1.381 1_455 S
O10 Fe3 1.935 . S
O10 C22 1.421 . S
O11 Fe7 2.077 1_545 S
O11 C27 1.381 1_545 S
O12 Fe2 1.935 1_556 S
O12 C27 1.421 . S
O13 Fe2 2.077 . S
O13 C17 1.381 . S
O14 Fe0 1.935 1_455 S
O14 C17 1.421 1_545 S
O15 Fe3 2.077 1_556 S
O15 C23 1.381 . S
O16 Fe7 1.935 1_545 S
O16 C23 1.421 1_455 S
C17 O13 1.381 . S
C17 O14 1.421 1_565 S
O18 Fe7 2.077 1_655 S
O18 C30 1.381 1_655 S
O19 Fe2 1.935 1_556 S
O19 C30 1.421 . S
O20 Fe0 2.077 1_565 S
O20 C8 1.381 1_565 S
O21 Fe3 1.935 . S
O21 C8 1.421 . S
C22 O9 1.381 1_655 S
C22 O10 1.421 . S
C23 O15 1.381 . S
C23 O16 1.421 1_655 S
C24 O25 1.381 . S
C24 O26 1.421 1_545 S
O25 Fe3 2.077 1_556 S
O25 C24 1.381 . S
O26 Fe7 1.935 1_655 S
O26 C24 1.421 1_565 S
C27 O11 1.381 1_565 S
C27 O12 1.421 . S
O28 Fe2 2.077 . S
O28 C31 1.381 . S
O29 Fe0 1.935 1_565 S
O29 C31 1.421 1_655 S
C30 O18 1.381 1_455 S
C30 O19 1.421 . S
C31 O28 1.381 . S
C31 O29 1.421 1_455 S
Mg32 O39 2.141 . S
Mg32 O40 2.048 . S
Mg32 O41 2.048 . S
Mg32 O44 2.141 . S
C33 O34 1.313 . S
C33 O40 1.195 1_455 S
O34 C33 1.313 . S
C35 O36 1.245 . S
C35 O44 1.289 1_455 S
O36 C35 1.245 . S
C37 O38 1.245 . S
C37 O39 1.289 1_455 S
O38 C37 1.245 . S
O39 Mg32 2.141 . S
O39 C37 1.289 1_655 S
O40 Mg32 2.048 . S
O40 C33 1.195 1_655 S
O41 Mg32 2.048 . S
O41 C42 1.195 1_655 S
C42 O41 1.195 1_455 S
C42 O43 1.313 . S
O43 C42 1.313 . S
O44 Mg32 2.141 . S
O44 C35 1.289 1_655 S
Mg45 O52 2.141 . S
Mg45 O53 2.048 . S
Mg45 O54 2.048 . S
Mg45 O57 2.141 . S
C46 O47 1.313 . S
C46 O53 1.195 1_565 S
O47 C46 1.313 . S
C48 O49 1.245 . S
C48 O57 1.289 1_565 S
O49 C48 1.245 . S
C50 O51 1.245 . S
C50 O52 1.289 1_565 S
O51 C50 1.245 . S
O52 Mg45 2.141 . S
O52 C50 1.289 1_545 S
O53 Mg45 2.048 . S
O53 C46 1.195 1_545 S
O54 Mg45 2.048 . S
O54 C55 1.195 1_545 S
C55 O54 1.195 1_565 S
C55 O56 1.313 . S
O56 C55 1.313 . S
O57 Mg45 2.141 . S
O57 C48 1.289 1_545 S
C22 C33 1.488 1_655 S
C8 C55 1.489 1_545 S
C31 C42 1.437 . S
C17 C46 1.437 . S
C30 C35 1.285 . S
C27 C50 1.284 . S
C37 C23 1.358 1_455 S
C24 C48 1.359 1_545 S
