# Generated by pormake.
# Topology nia, (6,6)-cn, num edge types: 1
# Building blocks:
#     Node 0, Type 0, BuildingBlock: CUKXOW_clean_sbu_0, # of connection points: 6
#     Node 1, Type 0, BuildingBlock: CUKXOW_clean_sbu_0, # of connection points: 6
#     Node 2, Type 1, BuildingBlock: MIDCAF_clean_sbu_0, # of connection points: 6
#     Node 3, Type 1, BuildingBlock: MIDCAF_clean_sbu_0, # of connection points: 6
#     Edge 4, Type (0, 1), BuildingBlock: EYOCIG_clean_linker_4, # of connection points: 2
#     Edge 5, Type (0, 1), BuildingBlock: EYOCIG_clean_linker_4, # of connection points: 2
#     Edge 6, Type (0, 1), BuildingBlock: EYOCIG_clean_linker_4, # of connection points: 2
#     Edge 7, Type (0, 1), BuildingBlock: EYOCIG_clean_linker_4, # of connection points: 2
#     Edge 8, Type (0, 1), BuildingBlock: EYOCIG_clean_linker_4, # of connection points: 2
#     Edge 9, Type (0, 1), BuildingBlock: EYOCIG_clean_linker_4, # of connection points: 2
#     Edge 10, Type (0, 1), BuildingBlock: EYOCIG_clean_linker_4, # of connection points: 2
#     Edge 11, Type (0, 1), BuildingBlock: EYOCIG_clean_linker_4, # of connection points: 2
#     Edge 12, Type (0, 1), BuildingBlock: EYOCIG_clean_linker_4, # of connection points: 2
#     Edge 13, Type (0, 1), BuildingBlock: EYOCIG_clean_linker_4, # of connection points: 2
#     Edge 14, Type (0, 1), BuildingBlock: EYOCIG_clean_linker_4, # of connection points: 2
#     Edge 15, Type (0, 1), BuildingBlock: EYOCIG_clean_linker_4, # of connection points: 2
# Relax obj value: 0.204
# Max RMSD: 0.253
# Mean RMSD: 0.211
data_MOF--net-nia--node1-CUKXOW_clean_sbu_0--node2-MIDCAF_clean_sbu_0--edge1-EYOCIG_clean_linker_4
_symmetry_space_group_name_H-M    P1
_symmetry_Int_Tables_number       1
_symmetry_cell_setting            triclinic
loop_
_symmetry_equiv_pos_as_xyz
'x, y, z'
_cell_length_a     19.980048
_cell_length_b     19.986808
_cell_length_c     23.250073
_cell_angle_alpha  86.221633
_cell_angle_beta   86.202649
_cell_angle_gamma 123.88529
loop_
_atom_site_label
_atom_site_type_symbol
_atom_site_fract_x
_atom_site_fract_y
_atom_site_fract_z
_atom_type_partial_charge
Tb0 Tb 0.01623 0.06592 0.08457 0.0
C1 C 0.12909 0.06881 0.98287 0.0
Tb2 Tb 0.93787 0.92183 1.00329 0.0
O3 O 0.06135 0.00998 0.14295 0.0
O4 O -0.00682 0.95215 0.07862 0.0
O5 O 0.12074 0.11067 1.02107 0.0
C6 C 0.90226 0.78467 0.96677 0.0
O7 O 0.06944 -0.00513 0.97258 0.0
C8 C 0.91848 0.03772 0.97111 0.0
C9 C 0.82521 0.93134 0.10166 0.0
O10 O 0.94845 0.8558 0.93682 0.0
O11 O 0.87301 0.78947 1.01679 0.0
O12 O 0.8882 -0.02817 0.94606 0.0
O13 O 0.96086 0.03587 1.00799 0.0
O14 O 0.83115 0.88609 0.0645 0.0
O15 O 0.88705 0.00269 0.11316 0.0
C16 C 0.06528 0.20762 0.11812 0.0
O17 O 0.00565 0.13845 0.14544 0.0
O18 O 0.09835 0.19747 0.0728 0.0
C19 C 0.03079 0.94511 0.11664 0.0
Tb20 Tb 0.90861 0.95954 0.50431 0.0
C21 C 0.90659 0.84618 0.60512 0.0
Tb22 Tb 0.05458 0.03698 0.58401 0.0
O23 O 0.96258 0.91351 0.44496 0.0
O24 O 0.02255 -0.01782 0.50851 0.0
O25 O 0.86397 0.85504 0.56784 0.0
C26 C 0.19267 0.07187 0.61843 0.0
O27 O -0.0188 0.90541 0.6146 0.0
C28 C 0.9401 0.05776 0.61788 0.0
C29 C 0.04404 0.15031 0.48704 0.0
O30 O 0.12213 0.02658 0.64933 0.0
O31 O 0.18681 0.10071 0.56866 0.0
O32 O 0.0066 0.08759 0.64213 0.0
O33 O 0.9404 0.01457 0.58101 0.0
O34 O 0.0898 0.14409 0.52354 0.0
O35 O -0.02766 0.0887 0.47594 0.0
C36 C 0.76807 0.91453 0.47028 0.0
O37 O 0.83792 -0.02577 0.44398 0.0
O38 O 0.77682 0.87884 0.51476 0.0
C39 C 0.02819 0.94392 0.47037 0.0
Zn40 Zn 0.30271 0.72018 0.16885 0.0
Zn41 Zn 0.2544 0.67275 0.41926 0.0
Zn42 Zn 0.27598 0.6986 0.29387 0.0
C43 C 0.41882 0.74965 0.36871 0.0
C44 C 0.16667 0.52215 0.37955 0.0
O45 O 0.20635 0.74726 0.26174 0.0
O46 O 0.21979 0.74424 0.16613 0.0
C47 C 0.45297 0.80817 0.20879 0.0
O48 O 0.39572 0.75641 0.31968 0.0
O49 O 0.36952 0.71187 0.41424 0.0
O50 O 0.1713 0.5545 0.42521 0.0
O51 O 0.20337 0.56613 0.33007 0.0
O52 O 0.42093 0.80335 0.16294 0.0
O53 O 0.40866 0.77181 0.25821 0.0
O54 O 0.22163 0.57887 0.26904 0.0
O55 O 0.26495 0.60556 0.17425 0.0
C56 C 0.22927 0.5563 0.21999 0.0
O57 O 0.22506 0.76649 0.32477 0.0
O58 O 0.22966 0.75534 0.42029 0.0
C59 C 0.18754 0.75391 0.21047 0.0
C60 C 0.21872 0.7861 0.37577 0.0
Zn61 Zn 0.66187 0.28243 0.91872 0.0
Zn62 Zn 0.69438 0.31371 0.66935 0.0
Zn63 Zn 0.68011 0.29438 0.79382 0.0
C64 C 0.74917 0.46418 0.71195 0.0
C65 C 0.53088 0.19365 0.71815 0.0
O66 O 0.7363 0.2333 0.82699 0.0
O67 O 0.69475 0.20605 0.92206 0.0
C68 C 0.7801 0.44523 0.86822 0.0
O69 O 0.74074 0.42539 0.76148 0.0
O70 O 0.72987 0.42873 0.66695 0.0
O71 O 0.57871 0.22485 0.67149 0.0
O72 O 0.55583 0.21702 0.76747 0.0
O73 O 0.75053 0.39841 0.91534 0.0
O74 O 0.75575 0.41886 0.81944 0.0
O75 O 0.54899 0.23265 0.82567 0.0
O76 O 0.54677 0.24658 0.91978 0.0
C77 C 0.51076 0.22564 0.87509 0.0
O78 O 0.7433 0.23974 0.76194 0.0
O79 O 0.77132 0.28145 0.66691 0.0
C80 C 0.73221 0.20146 0.87828 0.0
C81 C 0.77616 0.2445 0.71088 0.0
C82 C 0.05934 0.83526 0.14853 0.0
C83 C 0.04134 0.88011 0.12924 0.0
C84 C 0.09244 0.79748 0.17753 0.0
C85 C 0.13293 0.77747 0.19949 0.0
C86 C 0.31987 0.08803 0.65877 0.0
C87 C 0.26507 0.08386 0.63678 0.0
C88 C 0.38456 0.10551 0.69013 0.0
C89 C 0.44652 0.14101 0.71199 0.0
C90 C 0.12803 0.34269 0.16399 0.0
C91 C 0.10079 0.28188 0.14182 0.0
C92 C 0.16135 0.41056 0.19365 0.0
C93 C 0.18896 0.47317 0.21341 0.0
C94 C 0.858 0.11827 0.64643 0.0
C95 C 0.88696 0.08403 0.62706 0.0
C96 C 0.83245 0.16109 0.67637 0.0
C97 C 0.80654 0.19609 0.69909 0.0
C98 C 0.68367 0.88911 0.15566 0.0
C99 C 0.74642 0.90504 0.12981 0.0
C100 C 0.60825 0.86835 0.184 0.0
C101 C 0.53835 0.8407 0.20188 0.0
C102 C 0.84025 0.69915 0.6617 0.0
C103 C 0.87046 0.7662 0.63587 0.0
C104 C 0.80798 0.61952 0.68874 0.0
C105 C 0.78219 0.54969 0.70534 0.0
C106 C 0.13659 0.91396 0.43703 0.0
C107 C 0.09246 0.93255 0.45684 0.0
C108 C 0.17394 0.88049 0.40795 0.0
C109 C 0.19432 0.84013 0.38628 0.0
C110 C 0.27604 0.13519 0.92608 0.0
C111 C 0.20903 0.10496 0.95201 0.0
C112 C 0.35553 0.16716 0.89886 0.0
C113 C 0.42522 0.1926 0.88203 0.0
C114 C 0.08574 0.29173 0.43338 0.0
C115 C 0.0702 0.22909 0.45909 0.0
C116 C 0.1063 0.36698 0.40496 0.0
C117 C 0.13407 0.4368 0.38686 0.0
C118 C 0.8605 0.12222 0.94311 0.0
C119 C 0.89375 0.09217 0.9624 0.0
C120 C 0.81773 0.14782 0.9132 0.0
C121 C 0.7818 0.17258 0.89042 0.0
C122 C 0.63349 0.85701 0.42437 0.0
C123 C 0.69425 0.8821 0.44631 0.0
C124 C 0.56524 0.82355 0.39507 0.0
C125 C 0.50216 0.79338 0.37556 0.0
C126 C 0.88486 0.65788 0.92481 0.0
C127 C 0.88973 0.71267 0.94727 0.0
C128 C 0.86705 0.59278 0.89392 0.0
C129 C 0.83172 0.52998 0.87314 0.0
loop_
_geom_bond_atom_site_label_1
_geom_bond_atom_site_label_2
_geom_bond_distance
_geom_bond_site_symmetry_2
_ccdc_geom_bond_type
Tb0 O3 2.453 1_545 S
Tb0 O4 2.596 1_545 S
Tb0 O5 2.374 1_554 S
Tb0 O13 2.348 1_554 S
Tb0 O15 2.353 1_455 S
Tb0 O17 2.427 . S
Tb0 O18 2.513 . S
C1 O5 1.251 . S
C1 O7 1.263 . S
Tb2 O4 2.343 1_656 S
Tb2 O7 2.353 1_665 S
Tb2 O10 2.427 . S
Tb2 O11 2.513 . S
Tb2 O12 2.453 1_565 S
Tb2 O13 2.598 1_665 S
Tb2 O14 2.374 1_556 S
O3 Tb0 2.453 1_565 S
O3 C19 1.245 . S
O4 Tb0 2.596 1_565 S
O4 Tb2 2.343 1_454 S
O4 C19 1.259 . S
O5 Tb0 2.374 1_556 S
O5 C1 1.251 . S
C6 O10 1.275 . S
C6 O11 1.246 . S
O7 C1 1.263 . S
O7 Tb2 2.353 1_445 S
C8 O12 1.245 . S
C8 O13 1.254 1_655 S
C9 O14 1.250 . S
C9 O15 1.263 1_565 S
O10 Tb2 2.427 . S
O10 C6 1.275 . S
O11 Tb2 2.513 . S
O11 C6 1.246 . S
O12 Tb2 2.453 1_545 S
O12 C8 1.245 . S
O13 Tb0 2.348 1_556 S
O13 Tb2 2.598 1_445 S
O13 C8 1.254 1_455 S
O14 Tb2 2.374 1_554 S
O14 C9 1.250 . S
O15 Tb0 2.353 1_655 S
O15 C9 1.263 1_545 S
C16 O17 1.275 . S
C16 O18 1.246 . S
O17 Tb0 2.427 . S
O17 C16 1.275 . S
O18 Tb0 2.513 . S
O18 C16 1.246 . S
C19 O3 1.245 . S
C19 O4 1.259 . S
Tb20 O23 2.453 1_655 S
Tb20 O24 2.596 1_665 S
Tb20 O25 2.374 . S
Tb20 O33 2.343 1_565 S
Tb20 O35 2.353 1_665 S
Tb20 O37 2.427 1_565 S
Tb20 O38 2.513 . S
C21 O25 1.251 . S
C21 O27 1.263 . S
Tb22 O24 2.343 . S
Tb22 O27 2.353 1_445 S
Tb22 O30 2.427 . S
Tb22 O31 2.513 . S
Tb22 O32 2.453 1_455 S
Tb22 O33 2.596 1_455 S
Tb22 O34 2.374 . S
O23 Tb20 2.453 1_455 S
O23 C39 1.245 . S
O24 Tb20 2.596 1_445 S
O24 Tb22 2.343 . S
O24 C39 1.259 1_545 S
O25 Tb20 2.374 . S
O25 C21 1.251 . S
C26 O30 1.275 . S
C26 O31 1.246 . S
O27 C21 1.263 . S
O27 Tb22 2.353 1_665 S
C28 O32 1.245 . S
C28 O33 1.259 . S
C29 O34 1.250 . S
C29 O35 1.263 . S
O30 Tb22 2.427 . S
O30 C26 1.275 . S
O31 Tb22 2.513 . S
O31 C26 1.246 . S
O32 Tb22 2.453 1_655 S
O32 C28 1.245 . S
O33 Tb20 2.343 1_545 S
O33 Tb22 2.596 1_655 S
O33 C28 1.259 . S
O34 Tb22 2.374 . S
O34 C29 1.250 . S
O35 Tb20 2.353 1_445 S
O35 C29 1.263 . S
C36 O37 1.275 1_565 S
C36 O38 1.246 . S
O37 Tb20 2.427 1_545 S
O37 C36 1.275 1_545 S
O38 Tb20 2.513 . S
O38 C36 1.246 . S
C39 O23 1.245 . S
C39 O24 1.259 1_565 S
Zn40 O46 1.920 . S
Zn40 O52 1.898 . S
Zn40 O55 1.905 . S
Zn41 O49 1.905 . S
Zn41 O50 1.898 . S
Zn41 O58 1.920 . S
Zn42 O45 2.080 . S
Zn42 O48 2.114 . S
Zn42 O51 2.120 . S
Zn42 O53 2.120 . S
Zn42 O54 2.114 . S
Zn42 O57 2.080 . S
C43 O48 1.166 . S
C43 O49 1.182 . S
C44 O50 1.167 . S
C44 O51 1.299 . S
O45 Zn42 2.080 . S
O45 C59 1.305 . S
O46 Zn40 1.920 . S
O46 C59 1.234 . S
C47 O52 1.167 . S
C47 O53 1.299 . S
O48 Zn42 2.114 . S
O48 C43 1.166 . S
O49 Zn41 1.905 . S
O49 C43 1.182 . S
O50 Zn41 1.898 . S
O50 C44 1.167 . S
O51 Zn42 2.120 . S
O51 C44 1.299 . S
O52 Zn40 1.898 . S
O52 C47 1.167 . S
O53 Zn42 2.120 . S
O53 C47 1.299 . S
O54 Zn42 2.114 . S
O54 C56 1.166 . S
O55 Zn40 1.905 . S
O55 C56 1.182 . S
C56 O54 1.166 . S
C56 O55 1.182 . S
O57 Zn42 2.080 . S
O57 C60 1.305 . S
O58 Zn41 1.920 . S
O58 C60 1.234 . S
C59 O45 1.305 . S
C59 O46 1.234 . S
C60 O57 1.305 . S
C60 O58 1.234 . S
Zn61 O67 1.920 . S
Zn61 O73 1.898 . S
Zn61 O76 1.905 . S
Zn62 O70 1.905 . S
Zn62 O71 1.898 . S
Zn62 O79 1.920 . S
Zn63 O66 2.080 . S
Zn63 O69 2.114 . S
Zn63 O72 2.120 . S
Zn63 O74 2.120 . S
Zn63 O75 2.114 . S
Zn63 O78 2.080 . S
C64 O69 1.166 . S
C64 O70 1.182 . S
C65 O71 1.167 . S
C65 O72 1.299 . S
O66 Zn63 2.080 . S
O66 C80 1.305 . S
O67 Zn61 1.920 . S
O67 C80 1.234 . S
C68 O73 1.167 . S
C68 O74 1.299 . S
O69 Zn63 2.114 . S
O69 C64 1.166 . S
O70 Zn62 1.905 . S
O70 C64 1.182 . S
O71 Zn62 1.898 . S
O71 C65 1.167 . S
O72 Zn63 2.120 . S
O72 C65 1.299 . S
O73 Zn61 1.898 . S
O73 C68 1.167 . S
O74 Zn63 2.120 . S
O74 C68 1.299 . S
O75 Zn63 2.114 . S
O75 C77 1.166 . S
O76 Zn61 1.905 . S
O76 C77 1.182 . S
C77 O75 1.166 . S
C77 O76 1.182 . S
O78 Zn63 2.080 . S
O78 C81 1.305 . S
O79 Zn62 1.920 . S
O79 C81 1.234 . S
C80 O66 1.305 . S
C80 O67 1.234 . S
C81 O78 1.305 . S
C81 O79 1.234 . S
C82 C83 1.170 . S
C82 C84 1.380 . S
C83 C82 1.170 . S
C84 C82 1.380 . S
C84 C85 1.170 . S
C85 C84 1.170 . S
C86 C87 1.170 . S
C86 C88 1.380 . S
C87 C86 1.170 . S
C88 C86 1.380 . S
C88 C89 1.170 . S
C89 C88 1.170 . S
C90 C91 1.170 . S
C90 C92 1.380 . S
C91 C90 1.170 . S
C92 C90 1.380 . S
C92 C93 1.170 . S
C93 C92 1.170 . S
C94 C95 1.170 . S
C94 C96 1.380 . S
C95 C94 1.170 . S
C96 C94 1.380 . S
C96 C97 1.170 . S
C97 C96 1.170 . S
C98 C99 1.170 . S
C98 C100 1.380 . S
C99 C98 1.170 . S
C100 C98 1.380 . S
C100 C101 1.170 . S
C101 C100 1.170 . S
C102 C103 1.170 . S
C102 C104 1.380 . S
C103 C102 1.170 . S
C104 C102 1.380 . S
C104 C105 1.170 . S
C105 C104 1.170 . S
C106 C107 1.170 . S
C106 C108 1.380 . S
C107 C106 1.170 . S
C108 C106 1.380 . S
C108 C109 1.170 . S
C109 C108 1.170 . S
C110 C111 1.170 . S
C110 C112 1.380 . S
C111 C110 1.170 . S
C112 C110 1.380 . S
C112 C113 1.170 . S
C113 C112 1.170 . S
C114 C115 1.170 . S
C114 C116 1.380 . S
C115 C114 1.170 . S
C116 C114 1.380 . S
C116 C117 1.170 . S
C117 C116 1.170 . S
C118 C119 1.170 . S
C118 C120 1.380 . S
C119 C118 1.170 . S
C120 C118 1.380 . S
C120 C121 1.170 . S
C121 C120 1.170 . S
C122 C123 1.170 . S
C122 C124 1.380 . S
C123 C122 1.170 . S
C124 C122 1.380 . S
C124 C125 1.170 . S
C125 C124 1.170 . S
C126 C127 1.170 . S
C126 C128 1.380 . S
C127 C126 1.170 . S
C128 C126 1.380 . S
C128 C129 1.170 . S
C129 C128 1.170 . S
C83 C19 1.513 . S
C85 C59 1.429 . S
C87 C26 1.327 . S
C89 C65 1.200 . S
C91 C16 1.241 . S
C93 C56 1.239 . S
C95 C28 1.526 . S
C97 C81 1.557 . S
C99 C9 1.845 . S
C101 C47 1.701 . S
C105 C64 1.572 . S
C103 C21 1.659 . S
C107 C39 1.463 . S
C109 C60 1.450 . S
C113 C77 1.579 . S
C111 C1 1.656 . S
C117 C44 1.703 . S
C115 C29 1.846 . S
C121 C80 1.510 . S
C119 C8 1.562 . S
C125 C43 1.191 . S
C123 C36 1.282 . S
C129 C68 1.223 . S
C127 C6 1.288 . S
