# Generated by pormake.
# Topology pyr, (3,6)-cn, num edge types: 1
# Building blocks:
#     Node 0, Type 0, BuildingBlock: OLANEW_clean_sbu_2, # of connection points: 3
#     Node 1, Type 0, BuildingBlock: OLANEW_clean_sbu_2, # of connection points: 3
#     Node 2, Type 0, BuildingBlock: OLANEW_clean_sbu_2, # of connection points: 3
#     Node 3, Type 0, BuildingBlock: OLANEW_clean_sbu_2, # of connection points: 3
#     Node 4, Type 0, BuildingBlock: OLANEW_clean_sbu_2, # of connection points: 3
#     Node 5, Type 0, BuildingBlock: OLANEW_clean_sbu_2, # of connection points: 3
#     Node 6, Type 0, BuildingBlock: OLANEW_clean_sbu_2, # of connection points: 3
#     Node 7, Type 0, BuildingBlock: OLANEW_clean_sbu_2, # of connection points: 3
#     Node 8, Type 1, BuildingBlock: JUFBIX_clean_sbu_0, # of connection points: 6
#     Node 9, Type 1, BuildingBlock: JUFBIX_clean_sbu_0, # of connection points: 6
#     Node 10, Type 1, BuildingBlock: JUFBIX_clean_sbu_0, # of connection points: 6
#     Node 11, Type 1, BuildingBlock: JUFBIX_clean_sbu_0, # of connection points: 6
#     Edge 12, Type (0, 1), None
#     Edge 13, Type (0, 1), None
#     Edge 14, Type (0, 1), None
#     Edge 15, Type (0, 1), None
#     Edge 16, Type (0, 1), None
#     Edge 17, Type (0, 1), None
#     Edge 18, Type (0, 1), None
#     Edge 19, Type (0, 1), None
#     Edge 20, Type (0, 1), None
#     Edge 21, Type (0, 1), None
#     Edge 22, Type (0, 1), None
#     Edge 23, Type (0, 1), None
#     Edge 24, Type (0, 1), None
#     Edge 25, Type (0, 1), None
#     Edge 26, Type (0, 1), None
#     Edge 27, Type (0, 1), None
#     Edge 28, Type (0, 1), None
#     Edge 29, Type (0, 1), None
#     Edge 30, Type (0, 1), None
#     Edge 31, Type (0, 1), None
#     Edge 32, Type (0, 1), None
#     Edge 33, Type (0, 1), None
#     Edge 34, Type (0, 1), None
#     Edge 35, Type (0, 1), None
# Relax obj value: 0.282
# Max RMSD: 0.185
# Mean RMSD: 0.126
data_MOF--net-pry--node1-OLANEW_clean_sbu_2--node2-JUFBIX_clean_sbu_0--edge1-none
_symmetry_space_group_name_H-M    P1
_symmetry_Int_Tables_number       1
_symmetry_cell_setting            triclinic
loop_
_symmetry_equiv_pos_as_xyz
'x, y, z'
_cell_length_a     19.892923
_cell_length_b     17.857287
_cell_length_c     18.961174
_cell_angle_alpha  87.298927
_cell_angle_beta   89.14624
_cell_angle_gamma 97.763285
loop_
_atom_site_label
_atom_site_type_symbol
_atom_site_fract_x
_atom_site_fract_y
_atom_site_fract_z
_atom_type_partial_charge
O0 O 0.2921 0.15853 0.13254 0.0
Cd1 Cd 0.17489 0.20023 0.12241 0.0
O2 O 0.3114 0.11394 0.24209 0.0
Cd3 Cd 0.2263 0.11577 0.32015 0.0
O4 O 0.17438 0.08395 0.42548 0.0
C5 C 0.11085 0.08295 0.43611 0.0
O6 O 0.07346 0.10256 0.38366 0.0
C7 C 0.33009 0.12944 0.17755 0.0
C8 C 0.13635 0.34142 0.0697 0.0
O9 O 0.14718 0.29125 0.02624 0.0
O10 O 0.14785 0.32727 0.13506 0.0
O11 O 0.53822 0.86246 0.88835 0.0
Cd12 Cd 0.59549 0.75494 0.87553 0.0
O13 O 0.44053 0.79785 0.86357 0.0
Cd14 Cd 0.3323 0.78325 0.84337 0.0
O15 O 0.25487 0.84179 0.79517 0.0
C16 C 0.27868 0.90825 0.77238 0.0
O17 O 0.34347 0.93203 0.78026 0.0
C18 C 0.47431 0.85888 0.88312 0.0
C19 C 0.58147 0.69795 0.74383 0.0
O20 O 0.63032 0.74969 0.75668 0.0
O21 O 0.53746 0.6751 0.79288 0.0
O22 O 0.84183 0.42788 0.94767 0.0
Cd23 Cd 0.72011 0.40589 0.91456 0.0
O24 O 0.81939 0.43112 0.06147 0.0
Cd25 Cd 0.71211 0.38868 0.04476 0.0
O26 O 0.62355 0.30278 0.06403 0.0
C27 C 0.58478 0.26341 1.02277 0.0
O28 O 0.59225 0.275 0.95404 0.0
C29 C 0.86235 0.4378 1.01056 0.0
C30 C 0.68118 0.45892 0.78069 0.0
O31 O 0.70472 0.50443 0.82732 0.0
O32 O 0.67743 0.38777 0.79552 0.0
O33 O 0.97417 0.79015 0.49567 0.0
Cd34 Cd 0.9288 0.66097 0.46622 0.0
O35 O 1.02209 0.74318 0.58788 0.0
Cd36 Cd 0.04204 0.73733 0.7015 0.0
O37 O 0.937 0.68395 0.69366 0.0
C38 C 0.89841 0.73282 0.67753 0.0
O39 O 0.91943 0.80406 0.68861 0.0
C40 C 1.0062 0.8004 0.55268 0.0
C41 C 0.98834 0.60348 0.3506 0.0
O42 O 1.01198 0.59668 0.41281 0.0
O43 O 0.93693 0.63905 0.34241 0.0
O44 O 0.94786 0.90883 0.85839 0.0
Cd45 Cd 0.89957 0.84808 0.96892 0.0
O46 O 0.86219 0.96837 0.82283 0.0
Cd47 Cd 0.78848 0.96468 0.91703 0.0
O48 O 0.69435 0.98462 0.98072 0.0
C49 C 0.68979 1.00882 0.04305 0.0
O50 O 0.74509 0.02433 0.0795 0.0
C51 C 0.9203 0.94683 0.81134 0.0
C52 C 0.96759 0.72372 1.00038 0.0
O53 O 0.92432 0.72276 0.9511 0.0
O54 O 0.97833 0.78272 0.03662 0.0
O55 O 0.55027 0.07601 0.45802 0.0
Cd56 Cd 0.57158 0.03393 0.57781 0.0
O57 O 0.6408 0.15892 0.46796 0.0
Cd58 Cd 0.71977 0.25654 0.44596 0.0
O59 O 0.7296 0.37341 0.47892 0.0
C60 C 0.67007 0.3901 0.48704 0.0
O61 O 0.6185 0.34056 0.47027 0.0
C62 C 0.59523 0.12587 0.42915 0.0
C63 C 0.70765 0.01776 0.56479 0.0
O64 O 0.66134 0.97353 0.5357 0.0
O65 O 0.68975 0.06738 0.6053 0.0
O66 O 0.51018 0.83931 0.25619 0.0
Cd67 Cd 0.51136 0.70459 0.29302 0.0
O68 O 0.4297 0.80071 0.18389 0.0
Cd69 Cd 0.347 0.77815 0.108 0.0
O70 O 0.2523 0.70083 0.08956 0.0
C71 C 0.23793 0.66311 0.03508 0.0
O72 O 0.28036 0.67078 0.9807 0.0
C73 C 0.47058 0.85492 0.20699 0.0
C74 C 0.55842 0.65934 0.4252 0.0
O75 O 0.60023 0.68427 0.37472 0.0
O76 O 0.49489 0.65923 0.41475 0.0
O77 O 0.12736 0.53976 0.6441 0.0
Cd78 Cd 0.18127 0.49233 0.54308 0.0
O79 O 0.15488 0.43873 0.69907 0.0
Cd80 Cd 0.12374 0.34322 0.77162 0.0
O81 O 0.08531 0.2313 0.73792 0.0
C82 C 0.038 0.21824 0.69377 0.0
O83 O 1.00519 0.27303 0.67018 0.0
C84 C 0.12778 0.49885 0.70068 0.0
C85 C 0.30852 0.46217 0.58389 0.0
O86 O 0.25869 0.40844 0.58563 0.0
O87 O 0.29796 0.52843 0.56171 0.0
Co88 Co 0.96976 0.01985 0.60016 0.0
C89 C 1.01301 0.87542 0.5824 0.0
Co90 Co 0.06669 0.99968 0.64723 0.0
C91 C 0.82852 0.04124 0.58717 0.0
C92 C 0.86701 0.98526 0.50073 0.0
N93 N 0.88638 0.02246 0.55903 0.0
N94 N 0.77388 0.01373 0.55032 0.0
C95 C 0.79782 0.97852 0.49604 0.0
H96 H 0.82588 0.06836 0.63686 0.0
H97 H 0.90053 0.95978 0.46649 0.0
C98 C 1.02618 0.14324 0.66482 0.0
N99 N 0.1501 0.9949 0.6865 0.0
C100 C 0.17274 0.93705 0.7231 0.0
C101 C 0.20386 0.04981 0.68012 0.0
N102 N 0.23875 0.9538 0.73904 0.0
C103 C 0.25849 0.02471 0.71246 0.0
C104 C 0.07793 0.05757 0.50546 0.0
O105 O 0.97426 0.12151 0.62879 0.0
O106 O 0.07023 0.09933 0.6762 0.0
O107 O 0.11169 0.03612 0.5575 0.0
O108 O 1.01417 0.05544 0.51295 0.0
O109 O 0.06354 0.8989 0.6189 0.0
H110 H 0.20368 0.10414 0.65241 0.0
H111 H 0.14194 0.88326 0.73614 0.0
O112 O 0.96742 0.91767 0.57125 0.0
O113 O 0.92454 0.98561 0.68864 0.0
O114 O 1.02051 0.96441 0.73599 0.0
C115 C 0.95674 0.96622 0.74237 0.0
H116 H 0.76736 0.94921 0.45631 0.0
H117 H 0.30904 0.05567 0.71517 0.0
Co118 Co 0.48522 0.0464 0.06466 0.0
C119 C 0.47741 0.9334 0.17626 0.0
Co120 Co 0.53272 0.08286 0.16363 0.0
C121 C 0.47806 0.97953 0.93208 0.0
C122 C 0.38152 0.96633 0.98498 0.0
N123 N 0.44373 1.00744 0.98424 0.0
N124 N 0.44341 0.91661 0.90687 0.0
C125 C 0.38119 0.91019 0.93754 0.0
H126 H 0.5316 0.99675 0.92113 0.0
H127 H 0.34348 0.96725 0.02617 0.0
C128 C 0.5462 0.19334 0.05361 0.0
N129 N 0.57281 0.1204 0.24449 0.0
C130 C 0.55309 0.10308 0.31227 0.0
C131 C 0.62972 0.1705 0.24795 0.0
N132 N 0.59589 0.13958 0.35799 0.0
C133 C 0.64403 0.18246 0.31761 0.0
C134 C 0.62349 0.02552 0.07224 0.0
O135 O 0.51572 0.14247 1.01601 0.0
O136 O 0.55363 0.17882 0.11881 0.0
O137 O 0.61977 0.05718 0.13077 0.0
O138 O 0.56983 0.01214 0.03712 0.0
O139 O 0.51266 0.98536 0.20823 0.0
H140 H 0.65998 0.19521 0.2027 0.0
H141 H 0.50942 0.06225 0.32779 0.0
O142 O 0.45686 0.94843 0.11455 0.0
O143 O 0.40225 0.08275 0.0925 0.0
O144 O 0.44581 0.10884 0.19541 0.0
C145 C 0.39596 0.10745 0.15372 0.0
H146 H 0.3429 0.86125 0.93706 0.0
H147 H 0.68831 0.21687 0.33625 0.0
Co148 Co 0.67154 0.58812 0.59215 0.0
C149 C 0.58216 0.62599 0.49128 0.0
Co150 Co 0.56955 0.52546 0.61133 0.0
C151 C 0.80936 0.64567 0.62715 0.0
C152 C 0.75901 0.72417 0.56571 0.0
N153 N 0.75486 0.64995 0.58596 0.0
N154 N 0.84389 0.71473 0.63668 0.0
C155 C 0.81289 0.76406 0.59757 0.0
H156 H 0.81917 0.59465 0.65602 0.0
H157 H 0.72051 0.74962 0.53719 0.0
C158 C 0.65889 0.48869 0.71255 0.0
N159 N 0.4834 0.47193 0.61892 0.0
C160 C 0.42659 0.50217 0.60353 0.0
C161 C 0.46257 0.39725 0.63113 0.0
N162 N 0.37146 0.44961 0.60358 0.0
C163 C 0.39322 0.3833 0.622 0.0
C164 C 0.65628 0.4556 0.52586 0.0
O165 O 0.69733 0.54092 0.67838 0.0
O166 O 0.59934 0.46825 0.69069 0.0
O167 O 0.59621 0.45503 0.54982 0.0
O168 O 0.70244 0.50966 0.53941 0.0
O169 O 0.54076 0.58326 0.53181 0.0
H170 H 0.49591 0.35543 0.64292 0.0
H171 H 0.426 0.56168 0.58999 0.0
O172 O 0.64457 0.63475 0.50599 0.0
O173 O 0.64042 0.66392 0.64563 0.0
O174 O 0.54363 0.59529 0.67418 0.0
C175 C 0.58555 0.65416 0.68147 0.0
H176 H 0.82676 0.82495 0.59421 0.0
H177 H 0.36198 0.32863 0.62574 0.0
Co178 Co 0.06251 0.52956 0.97191 0.0
C179 C 0.93475 0.46493 1.02229 0.0
Co180 Co 0.04728 0.54161 0.08697 0.0
C181 C 0.10567 0.49614 0.82779 0.0
C182 C 0.02874 0.56884 0.82984 0.0
N183 N 0.06673 0.52941 0.87277 0.0
N184 N 0.09476 0.51612 0.7595 0.0
C185 C 0.04708 0.56237 0.76088 0.0
H186 H 0.14364 0.46149 0.8448 0.0
H187 H 0.98966 0.60096 0.84672 0.0
C188 C 0.17259 0.61315 0.03246 0.0
N189 N 0.04185 0.54424 0.18491 0.0
C190 C 0.99943 0.57676 0.22655 0.0
C191 C 0.08755 0.51996 0.22957 0.0
N192 N 1.01745 0.57388 0.295 0.0
C193 C 0.07247 0.53763 0.29715 0.0
C194 C 0.10725 0.41163 0.04828 0.0
O195 O 0.15103 0.58716 0.97432 0.0
O196 O 0.13612 0.59799 0.08834 0.0
O197 O 0.08507 0.44878 0.097 0.0
O198 O 0.10233 0.43524 0.98401 0.0
O199 O 0.95612 0.4867 0.08231 0.0
H200 H 0.13085 0.49353 0.2138 0.0
H201 H 0.95753 0.60401 0.20683 0.0
O202 O 0.97485 0.47473 0.96908 0.0
O203 O 1.02262 0.62209 0.96399 0.0
O204 O 1.01042 0.63369 0.07752 0.0
C205 C 1.00301 0.65805 1.01483 0.0
H206 H 1.02612 0.58832 0.715 0.0
H207 H 0.10091 0.52661 0.34391 0.0
loop_
_geom_bond_atom_site_label_1
_geom_bond_atom_site_label_2
_geom_bond_distance
_geom_bond_site_symmetry_2
_ccdc_geom_bond_type
O0 Cd1 2.300 . S
O0 C7 1.275 . S
Cd1 O0 2.300 . S
Cd1 O9 2.381 . S
Cd1 O10 2.378 . S
O2 Cd3 2.385 1_545 S
O2 C7 1.255 . S
Cd3 O2 2.385 1_565 S
Cd3 O4 2.317 1_565 S
O4 Cd3 2.317 1_545 S
O4 C5 1.232 1_545 S
C5 O4 1.232 1_565 S
C5 O6 1.218 . S
O6 C5 1.218 . S
C7 O0 1.275 . S
C7 O2 1.255 . S
C8 O9 1.258 . S
C8 O10 1.256 . S
O9 Cd1 2.381 . S
O9 C8 1.258 . S
O10 Cd1 2.378 . S
O10 C8 1.256 . S
O11 Cd12 2.300 . S
O11 C18 1.275 . S
Cd12 O11 2.300 . S
Cd12 O20 2.381 . S
Cd12 O21 2.378 . S
O13 Cd14 2.385 . S
O13 C18 1.255 . S
Cd14 O13 2.385 . S
Cd14 O15 2.317 . S
O15 Cd14 2.317 . S
O15 C16 1.232 . S
C16 O15 1.232 . S
C16 O17 1.218 . S
O17 C16 1.218 . S
C18 O11 1.275 . S
C18 O13 1.255 . S
C19 O20 1.258 . S
C19 O21 1.256 . S
O20 Cd12 2.381 . S
O20 C19 1.258 . S
O21 Cd12 2.378 . S
O21 C19 1.256 . S
O22 Cd23 2.300 . S
O22 C29 1.275 . S
Cd23 O22 2.300 . S
Cd23 O31 2.381 . S
Cd23 O32 2.378 . S
O24 Cd25 2.385 . S
O24 C29 1.255 . S
Cd25 O24 2.385 . S
Cd25 O26 2.317 . S
O26 Cd25 2.317 . S
O26 C27 1.232 1_556 S
C27 O26 1.232 1_554 S
C27 O28 1.218 . S
O28 C27 1.218 . S
C29 O22 1.275 . S
C29 O24 1.255 . S
C30 O31 1.258 . S
C30 O32 1.256 . S
O31 Cd23 2.381 . S
O31 C30 1.258 . S
O32 Cd23 2.378 . S
O32 C30 1.256 . S
O33 Cd34 2.300 . S
O33 C40 1.275 . S
Cd34 O33 2.300 . S
Cd34 O42 2.381 . S
Cd34 O43 2.378 . S
O35 Cd36 2.385 1_455 S
O35 C40 1.255 . S
Cd36 O35 2.385 1_655 S
Cd36 O37 2.317 . S
O37 Cd36 2.317 . S
O37 C38 1.232 . S
C38 O37 1.232 . S
C38 O39 1.218 . S
O39 C38 1.218 . S
C40 O33 1.275 . S
C40 O35 1.255 . S
C41 O42 1.258 . S
C41 O43 1.256 . S
O42 Cd34 2.381 . S
O42 C41 1.258 . S
O43 Cd34 2.378 . S
O43 C41 1.256 . S
O44 Cd45 2.300 . S
O44 C51 1.275 . S
Cd45 O44 2.300 . S
Cd45 O53 2.381 . S
Cd45 O54 2.378 1_556 S
O46 Cd47 2.385 1_556 S
O46 C51 1.255 1_545 S
Cd47 O46 2.385 1_554 S
Cd47 O48 2.317 1_545 S
O48 Cd47 2.317 1_565 S
O48 C49 1.232 1_564 S
C49 O48 1.232 1_546 S
C49 O50 1.218 . S
O50 C49 1.218 . S
C51 O44 1.275 . S
C51 O46 1.255 1_565 S
C52 O53 1.258 1_554 S
C52 O54 1.256 . S
O53 Cd45 2.381 . S
O53 C52 1.258 1_556 S
O54 Cd45 2.378 1_554 S
O54 C52 1.256 . S
O55 Cd56 2.300 . S
O55 C62 1.275 . S
Cd56 O55 2.300 . S
Cd56 O64 2.381 . S
Cd56 O65 2.378 . S
O57 Cd58 2.385 . S
O57 C62 1.255 . S
Cd58 O57 2.385 . S
Cd58 O59 2.317 . S
O59 Cd58 2.317 . S
O59 C60 1.232 . S
C60 O59 1.232 . S
C60 O61 1.218 . S
O61 C60 1.218 . S
C62 O55 1.275 . S
C62 O57 1.255 . S
C63 O64 1.258 . S
C63 O65 1.256 . S
O64 Cd56 2.381 . S
O64 C63 1.258 . S
O65 Cd56 2.378 . S
O65 C63 1.256 . S
O66 Cd67 2.300 . S
O66 C73 1.275 . S
Cd67 O66 2.300 . S
Cd67 O75 2.381 . S
Cd67 O76 2.378 . S
O68 Cd69 2.385 . S
O68 C73 1.255 . S
Cd69 O68 2.385 . S
Cd69 O70 2.317 . S
O70 Cd69 2.317 . S
O70 C71 1.232 . S
C71 O70 1.232 . S
C71 O72 1.218 . S
O72 C71 1.218 . S
C73 O66 1.275 . S
C73 O68 1.255 . S
C74 O75 1.258 . S
C74 O76 1.256 . S
O75 Cd67 2.381 . S
O75 C74 1.258 . S
O76 Cd67 2.378 . S
O76 C74 1.256 . S
O77 Cd78 2.300 . S
O77 C84 1.275 . S
Cd78 O77 2.300 . S
Cd78 O86 2.381 . S
Cd78 O87 2.378 . S
O79 Cd80 2.385 . S
O79 C84 1.255 . S
Cd80 O79 2.385 . S
Cd80 O81 2.317 . S
O81 Cd80 2.317 . S
O81 C82 1.232 1_455 S
C82 O81 1.232 1_655 S
C82 O83 1.218 . S
O83 C82 1.218 . S
C84 O77 1.275 . S
C84 O79 1.255 . S
C85 O86 1.258 . S
C85 O87 1.256 . S
O86 Cd78 2.381 . S
O86 C85 1.258 . S
O87 Cd78 2.378 . S
O87 C85 1.256 . S
Co88 N93 2.057 . S
Co88 O105 2.021 . S
Co88 O108 2.062 . S
Co88 O112 2.117 1_545 S
Co88 O113 2.020 1_545 S
C89 O109 1.259 1_655 S
C89 O112 1.258 . S
Co90 N99 2.057 . S
Co90 O106 2.117 1_565 S
Co90 O107 2.020 1_565 S
Co90 O109 2.021 . S
Co90 O114 2.062 . S
C91 N93 1.316 . S
C91 N94 1.347 . S
C91 H96 0.931 . S
C92 N93 1.375 1_565 S
C92 C95 1.350 . S
C92 H97 0.930 . S
N93 Co88 2.057 . S
N93 C91 1.316 . S
N93 C92 1.375 1_545 S
N94 C91 1.347 . S
N94 C95 1.373 1_545 S
C95 C92 1.350 . S
C95 N94 1.373 1_565 S
C95 H116 0.931 . S
H96 C91 0.931 . S
H97 C92 0.930 . S
C98 O105 1.259 1_455 S
C98 O106 1.258 . S
N99 Co90 2.057 . S
N99 C100 1.316 . S
N99 C101 1.375 1_565 S
C100 N99 1.316 . S
C100 N102 1.347 . S
C100 H111 0.931 . S
C101 N99 1.375 1_545 S
C101 C103 1.350 . S
C101 H110 0.930 . S
N102 C100 1.347 . S
N102 C103 1.373 1_565 S
C103 C101 1.350 . S
C103 N102 1.373 1_545 S
C103 H117 0.931 . S
C104 O107 1.256 . S
C104 O108 1.255 1_455 S
O105 Co88 2.021 . S
O105 C98 1.259 1_655 S
O106 Co90 2.117 1_545 S
O106 C98 1.258 . S
O107 Co90 2.020 1_545 S
O107 C104 1.256 . S
O108 Co88 2.062 . S
O108 C104 1.255 1_655 S
O109 C89 1.259 1_455 S
O109 Co90 2.021 . S
H110 C101 0.930 . S
H111 C100 0.931 . S
O112 Co88 2.117 1_565 S
O112 C89 1.258 . S
O113 Co88 2.020 1_565 S
O113 C115 1.256 . S
O114 Co90 2.062 . S
O114 C115 1.255 1_455 S
C115 O113 1.256 . S
C115 O114 1.255 1_655 S
H116 C95 0.931 . S
H117 C103 0.931 . S
Co118 N123 2.057 1_544 S
Co118 O135 2.021 1_554 S
Co118 O138 2.062 1_545 S
Co118 O142 2.117 1_545 S
Co118 O143 2.020 . S
C119 O139 1.259 . S
C119 O142 1.258 . S
Co120 N129 2.057 . S
Co120 O136 2.117 . S
Co120 O137 2.020 . S
Co120 O139 2.021 1_545 S
Co120 O144 2.062 . S
C121 N123 1.316 . S
C121 N124 1.347 . S
C121 H126 0.931 1_565 S
C122 N123 1.375 . S
C122 C125 1.350 . S
C122 H127 0.930 . S
N123 Co118 2.057 1_566 S
N123 C121 1.316 . S
N123 C122 1.375 . S
N124 C121 1.347 . S
N124 C125 1.373 . S
C125 C122 1.350 . S
C125 N124 1.373 . S
C125 H146 0.931 . S
H126 C121 0.931 1_545 S
H127 C122 0.930 . S
C128 O135 1.259 1_554 S
C128 O136 1.258 . S
N129 Co120 2.057 . S
N129 C130 1.316 . S
N129 C131 1.375 . S
C130 N129 1.316 . S
C130 N132 1.347 . S
C130 H141 0.931 . S
C131 N129 1.375 . S
C131 C133 1.350 . S
C131 H140 0.930 . S
N132 C130 1.347 . S
N132 C133 1.373 . S
C133 C131 1.350 . S
C133 N132 1.373 . S
C133 H147 0.931 . S
C134 O137 1.257 . S
C134 O138 1.255 1_545 S
O135 Co118 2.021 1_556 S
O135 C128 1.259 1_556 S
O136 Co120 2.117 . S
O136 C128 1.258 . S
O137 Co120 2.020 . S
O137 C134 1.257 . S
O138 Co118 2.062 1_565 S
O138 C134 1.255 1_565 S
O139 C119 1.259 . S
O139 Co120 2.021 1_565 S
H140 C131 0.930 . S
H141 C130 0.931 . S
O142 Co118 2.117 1_565 S
O142 C119 1.258 . S
O143 Co118 2.020 . S
O143 C145 1.256 . S
O144 Co120 2.062 . S
O144 C145 1.255 . S
C145 O143 1.256 . S
C145 O144 1.255 . S
H146 C125 0.931 . S
H147 C133 0.931 . S
Co148 N153 2.057 . S
Co148 O165 2.021 . S
Co148 O168 2.062 . S
Co148 O172 2.117 . S
Co148 O173 2.020 . S
C149 O169 1.259 . S
C149 O172 1.258 . S
Co150 N159 2.057 . S
Co150 O166 2.117 . S
Co150 O167 2.020 . S
Co150 O169 2.021 . S
Co150 O174 2.062 . S
C151 N153 1.316 . S
C151 N154 1.347 . S
C151 H156 0.931 . S
C152 N153 1.375 . S
C152 C155 1.350 . S
C152 H157 0.930 . S
N153 Co148 2.057 . S
N153 C151 1.316 . S
N153 C152 1.375 . S
N154 C151 1.347 . S
N154 C155 1.373 . S
C155 C152 1.350 . S
C155 N154 1.373 . S
C155 H176 0.931 . S
H156 C151 0.931 . S
H157 C152 0.930 . S
C158 O165 1.259 . S
C158 O166 1.258 . S
N159 Co150 2.057 . S
N159 C160 1.316 . S
N159 C161 1.375 . S
C160 N159 1.316 . S
C160 N162 1.347 . S
C160 H171 0.931 . S
C161 N159 1.375 . S
C161 C163 1.350 . S
C161 H170 0.930 . S
N162 C160 1.347 . S
N162 C163 1.373 . S
C163 C161 1.350 . S
C163 N162 1.373 . S
C163 H177 0.931 . S
C164 O167 1.256 . S
C164 O168 1.255 . S
O165 Co148 2.021 . S
O165 C158 1.259 . S
O166 Co150 2.117 . S
O166 C158 1.258 . S
O167 Co150 2.020 . S
O167 C164 1.256 . S
O168 Co148 2.062 . S
O168 C164 1.255 . S
O169 C149 1.259 . S
O169 Co150 2.021 . S
H170 C161 0.930 . S
H171 C160 0.931 . S
O172 Co148 2.117 . S
O172 C149 1.258 . S
O173 Co148 2.020 . S
O173 C175 1.256 . S
O174 Co150 2.062 . S
O174 C175 1.255 . S
C175 O173 1.256 . S
C175 O174 1.255 . S
H176 C155 0.931 . S
H177 C163 0.931 . S
Co178 N183 2.057 . S
Co178 O195 2.021 . S
Co178 O198 2.062 1_556 S
Co178 O202 2.117 1_455 S
Co178 O203 2.020 . S
C179 O199 1.259 . S
C179 O202 1.258 1_554 S
Co180 N189 2.057 . S
Co180 O196 2.117 . S
Co180 O197 2.020 . S
Co180 O199 2.021 1_455 S
Co180 O204 2.062 1_455 S
C181 N183 1.316 . S
C181 N184 1.347 . S
C181 H186 0.931 . S
C182 N183 1.375 . S
C182 C185 1.350 . S
C182 H187 0.930 1_455 S
N183 Co178 2.057 . S
N183 C181 1.316 . S
N183 C182 1.375 . S
N184 C181 1.347 . S
N184 C185 1.373 . S
C185 C182 1.350 . S
C185 N184 1.373 . S
C185 H206 0.931 1_455 S
H186 C181 0.931 . S
H187 C182 0.930 1_655 S
C188 O195 1.259 1_554 S
C188 O196 1.258 . S
N189 Co180 2.057 . S
N189 C190 1.316 1_455 S
N189 C191 1.375 . S
C190 N189 1.316 1_655 S
C190 N192 1.347 . S
C190 H201 0.931 . S
C191 N189 1.375 . S
C191 C193 1.350 . S
C191 H200 0.930 . S
N192 C190 1.347 . S
N192 C193 1.373 1_655 S
C193 C191 1.350 . S
C193 N192 1.373 1_455 S
C193 H207 0.931 . S
C194 O197 1.256 . S
C194 O198 1.255 . S
O195 Co178 2.021 . S
O195 C188 1.259 1_556 S
O196 Co180 2.117 . S
O196 C188 1.258 . S
O197 Co180 2.020 . S
O197 C194 1.256 . S
O198 Co178 2.062 1_554 S
O198 C194 1.255 . S
O199 C179 1.259 . S
O199 Co180 2.021 1_655 S
H200 C191 0.930 . S
H201 C190 0.931 . S
O202 Co178 2.117 1_655 S
O202 C179 1.258 1_556 S
O203 Co178 2.020 . S
O203 C205 1.256 . S
O204 Co180 2.062 1_655 S
O204 C205 1.255 1_654 S
C205 O203 1.256 . S
C205 O204 1.255 1_456 S
H206 C185 0.931 1_655 S
H207 C193 0.931 . S
C5 C104 3.459 1_565 S
C18 N124 1.093 . S
C158 C30 2.161 . S
C41 N192 1.992 1_455 S
C145 C7 3.527 . S
N102 C16 0.565 . S
C179 C29 2.752 1_554 S
N154 C38 2.226 . S
C8 C194 2.311 . S
C128 C27 2.299 . S
C40 C89 1.563 1_455 S
C19 C175 0.850 . S
C115 C51 2.961 . S
C62 N132 0.919 . S
C74 C149 2.292 . S
C84 N184 1.115 . S
C49 C134 3.407 1_556 S
N94 C63 0.987 . S
C188 C71 2.143 . S
N162 C85 1.030 . S
C52 C205 2.188 1_654 S
C119 C73 2.206 . S
C98 C82 1.299 1_455 S
C60 C164 1.510 . S
