# Generated by pormake.
# Topology pyr, (3,6)-cn, num edge types: 1
# Building blocks:
#     Node 0, Type 0, BuildingBlock: OLANEW_clean_sbu_2, # of connection points: 3
#     Node 1, Type 0, BuildingBlock: OLANEW_clean_sbu_2, # of connection points: 3
#     Node 2, Type 0, BuildingBlock: OLANEW_clean_sbu_2, # of connection points: 3
#     Node 3, Type 0, BuildingBlock: OLANEW_clean_sbu_2, # of connection points: 3
#     Node 4, Type 0, BuildingBlock: OLANEW_clean_sbu_2, # of connection points: 3
#     Node 5, Type 0, BuildingBlock: OLANEW_clean_sbu_2, # of connection points: 3
#     Node 6, Type 0, BuildingBlock: OLANEW_clean_sbu_2, # of connection points: 3
#     Node 7, Type 0, BuildingBlock: OLANEW_clean_sbu_2, # of connection points: 3
#     Node 8, Type 1, BuildingBlock: CIFDUS_clean_sbu_1, # of connection points: 6
#     Node 9, Type 1, BuildingBlock: CIFDUS_clean_sbu_1, # of connection points: 6
#     Node 10, Type 1, BuildingBlock: CIFDUS_clean_sbu_1, # of connection points: 6
#     Node 11, Type 1, BuildingBlock: CIFDUS_clean_sbu_1, # of connection points: 6
#     Edge 12, Type (0, 1), None
#     Edge 13, Type (0, 1), None
#     Edge 14, Type (0, 1), None
#     Edge 15, Type (0, 1), None
#     Edge 16, Type (0, 1), None
#     Edge 17, Type (0, 1), None
#     Edge 18, Type (0, 1), None
#     Edge 19, Type (0, 1), None
#     Edge 20, Type (0, 1), None
#     Edge 21, Type (0, 1), None
#     Edge 22, Type (0, 1), None
#     Edge 23, Type (0, 1), None
#     Edge 24, Type (0, 1), None
#     Edge 25, Type (0, 1), None
#     Edge 26, Type (0, 1), None
#     Edge 27, Type (0, 1), None
#     Edge 28, Type (0, 1), None
#     Edge 29, Type (0, 1), None
#     Edge 30, Type (0, 1), None
#     Edge 31, Type (0, 1), None
#     Edge 32, Type (0, 1), None
#     Edge 33, Type (0, 1), None
#     Edge 34, Type (0, 1), None
#     Edge 35, Type (0, 1), None
# Relax obj value: 0.084
# Max RMSD: 0.146
# Mean RMSD: 0.112
data_MOF--net-pry--node1-OLANEW_clean_sbu_2--node2-CIFDUS_clean_sbu_1--edge1-none
_symmetry_space_group_name_H-M    P1
_symmetry_Int_Tables_number       1
_symmetry_cell_setting            triclinic
loop_
_symmetry_equiv_pos_as_xyz
'x, y, z'
_cell_length_a     19.030841
_cell_length_b     18.632278
_cell_length_c     17.042871
_cell_angle_alpha  96.948038
_cell_angle_beta   92.220275
_cell_angle_gamma 100.29586
loop_
_atom_site_label
_atom_site_type_symbol
_atom_site_fract_x
_atom_site_fract_y
_atom_site_fract_z
_atom_type_partial_charge
O0 O 0.27695 0.14479 0.08085 0.0
Cd1 Cd 0.14852 0.14974 0.0499 0.0
O2 O 0.26876 0.06222 0.16533 0.0
Cd3 Cd 0.15772 0.05886 0.19514 0.0
O4 O 0.07571 0.02686 0.27742 0.0
C5 C 0.08335 0.0469 0.35191 0.0
O6 O 0.14114 0.09284 0.38246 0.0
C7 C 0.30575 0.1038 0.12237 0.0
C8 C 0.11766 0.29242 0.04994 0.0
O9 O 0.12199 0.25402 0.9833 0.0
O10 O 0.12776 0.26378 0.11313 0.0
O11 O 0.53369 0.01817 0.81968 0.0
Cd12 Cd 0.53156 0.97849 0.67862 0.0
O13 O 0.42472 0.96015 0.78878 0.0
Cd14 Cd 0.31357 0.90286 0.7806 0.0
O15 O 0.21295 0.91876 0.72407 0.0
C16 C 0.21346 0.95209 0.66301 0.0
O17 O 0.27464 0.97334 0.63213 0.0
C18 C 0.47397 0.98809 0.84205 0.0
C19 C 0.53081 0.82865 0.67561 0.0
O20 O 0.58815 0.87233 0.66323 0.0
O21 O 0.47325 0.8544 0.68399 0.0
O22 O 0.77269 0.46084 0.97686 0.0
Cd23 Cd 0.76815 0.48261 0.83574 0.0
O24 O 0.75262 0.34266 0.96884 0.0
Cd25 Cd 0.75966 0.22708 0.9356 0.0
O26 O 0.66191 0.17167 0.98236 0.0
C27 C 0.66351 0.19809 0.05469 0.0
O28 O 0.72221 0.24151 0.08668 0.0
C29 C 0.7973 0.40265 0.98374 0.0
C30 C 0.65163 0.54213 0.78651 0.0
O31 O 0.71257 0.58325 0.80675 0.0
O32 O 0.64493 0.47307 0.79052 0.0
O33 O 0.93223 0.68334 0.46851 0.0
Cd34 Cd 0.88692 0.56697 0.3797 0.0
O35 O 0.97578 0.74471 0.58302 0.0
Cd36 Cd 0.94617 0.63216 0.60851 0.0
O37 O 0.83621 0.59868 0.55764 0.0
C38 C 0.79185 0.63694 0.5858 0.0
O39 O 0.81187 0.68669 0.64768 0.0
C40 C 0.9548 0.74471 0.51155 0.0
C41 C 0.98263 0.53379 0.26603 0.0
O42 O 0.99074 0.52434 0.33885 0.0
O43 O 0.92767 0.55887 0.24423 0.0
O44 O 0.93935 0.87593 0.83025 0.0
Cd45 Cd 0.90767 0.8303 0.9575 0.0
O46 O 0.92058 0.98493 0.88024 0.0
Cd47 Cd 0.85947 0.94523 0.97594 0.0
O48 O 0.7516 0.91884 1.01381 0.0
C49 C 0.72263 0.97215 0.04101 0.0
O50 O 0.76033 0.03927 0.05065 0.0
C51 C 0.94109 0.94357 0.8243 0.0
C52 C 0.933 0.68838 0.96473 0.0
O53 O 0.87622 0.70093 0.93033 0.0
O54 O 0.97921 0.7434 0.99785 0.0
O55 O 0.57879 0.00902 0.37188 0.0
Cd56 Cd 0.63105 0.03017 0.51084 0.0
O57 O 0.60454 0.12501 0.4132 0.0
Cd58 Cd 0.61422 0.23892 0.40833 0.0
O59 O 0.60547 0.35017 0.43622 0.0
C60 C 0.56809 0.37513 0.48939 0.0
O61 O 0.53081 0.33143 0.53379 0.0
C62 C 0.5782 0.07421 0.35847 0.0
C63 C 0.77096 0.00526 0.52262 0.0
O64 O 0.71597 0.95398 0.52009 0.0
O65 O 0.76117 0.07129 0.52045 0.0
O66 O 0.47904 0.87344 0.2703 0.0
Cd67 Cd 0.43274 0.82691 0.3914 0.0
O68 O 0.36893 0.85379 0.21844 0.0
Cd69 Cd 0.30347 0.8231 0.10789 0.0
O70 O 0.2478 0.71038 0.08983 0.0
C71 C 0.22302 0.66278 0.03104 0.0
O72 O 0.22631 0.67962 0.95849 0.0
C73 C 0.43546 0.87101 0.2112 0.0
C74 C 0.49785 0.7083 0.41953 0.0
O75 O 0.44718 0.70127 0.36603 0.0
O76 O 0.51748 0.77097 0.46163 0.0
O77 O 0.1441 0.52257 0.76427 0.0
Cd78 Cd 0.18045 0.48395 0.62957 0.0
O79 O 0.1178 0.4043 0.75315 0.0
Cd80 Cd 0.02705 0.31523 0.7274 0.0
O81 O 0.97149 0.25288 0.61928 0.0
C82 C 0.98291 0.18904 0.59526 0.0
O83 O 0.95153 0.15383 0.52817 0.0
C84 C 0.10943 0.46566 0.78851 0.0
C85 C 0.32603 0.52287 0.61885 0.0
O86 O 0.28442 0.56342 0.59418 0.0
O87 O 0.29827 0.46363 0.64579 0.0
O88 O 0.89595 0.01212 0.55845 0.0
Mn89 Mn -0.00196 0.98429 0.57963 0.0
O90 O 0.84196 0.93401 0.4551 0.0
Mn91 Mn 0.92452 0.90178 0.43131 0.0
O92 O 0.09792 0.95768 0.60826 0.0
O93 O 0.02961 0.08528 0.63471 0.0
Mn94 Mn 0.08161 0.09471 0.72273 0.0
O95 O 0.96341 0.94902 0.68716 0.0
O96 O 0.15963 0.05336 0.69272 0.0
O97 O 0.04117 0.02605 0.47886 0.0
O98 O 0.98582 0.95634 0.37129 0.0
O99 O 0.06659 0.18862 0.70593 0.0
O100 O 0.02052 0.03856 0.78321 0.0
C101 C 0.94716 0.81224 0.47955 0.0
C102 C 0.84077 0.98436 0.51132 0.0
C103 C 0.15477 0.99112 0.65031 0.0
C104 C 0.02835 0.15401 0.64402 0.0
C105 C 0.97715 0.97816 0.76042 0.0
C106 C 0.03305 0.00918 0.4035 0.0
O107 O 0.96694 0.87889 0.5185 0.0
O108 O 0.91549 0.80487 0.40954 0.0
O109 O 0.49619 0.02518 0.97926 0.0
Mn110 Mn 0.51709 0.03348 0.10183 0.0
O111 O 0.46178 0.90455 0.93373 0.0
Mn112 Mn 0.50787 0.87187 0.01745 0.0
O113 O 0.54042 0.03963 0.22282 0.0
O114 O 0.55274 0.14085 0.10673 0.0
Mn115 Mn 0.51701 0.19312 0.18281 0.0
O116 O 0.41224 0.05248 0.11889 0.0
O117 O 0.54326 0.15696 0.27563 0.0
O118 O 0.61922 0.01515 0.08187 0.0
O119 O 0.60786 0.89777 0.02273 0.0
O120 O 0.58786 0.25679 0.13984 0.0
O121 O 0.42052 0.17529 0.14954 0.0
C122 C 0.46095 0.86981 0.1316 0.0
C123 C 0.47039 0.97249 0.924 0.0
C124 C 0.55142 0.09106 0.28151 0.0
C125 C 0.59808 0.19811 0.09664 0.0
C126 C 0.38403 0.11085 0.12867 0.0
C127 C 0.64555 0.96037 0.0507 0.0
O128 O 0.48413 0.92675 0.09905 0.0
O129 O 0.46322 0.80932 0.08684 0.0
O130 O 0.66866 0.62795 0.60159 0.0
Mn131 Mn 0.558 0.6029 0.59466 0.0
O132 O 0.70549 0.60475 0.47828 0.0
Mn133 Mn 0.61485 0.57601 0.42583 0.0
O134 O 0.44515 0.57416 0.58905 0.0
O135 O 0.56391 0.59038 0.7098 0.0
Mn136 Mn 0.49708 0.62663 0.76105 0.0
O137 O 0.55395 0.71296 0.62405 0.0
O138 O 0.41577 0.56566 0.7153 0.0
O139 O 0.562 0.49134 0.56178 0.0
O140 O 0.57675 0.47959 0.43003 0.0
O141 O 0.55343 0.59446 0.83603 0.0
O142 O 0.50602 0.72476 0.74275 0.0
C143 C 0.54134 0.65121 0.42054 0.0
C144 C 0.71781 0.6229 0.55299 0.0
C145 C 0.40059 0.55418 0.64105 0.0
C146 C 0.58834 0.57497 0.77599 0.0
C147 C 0.53078 0.75112 0.68147 0.0
C148 C 0.56502 0.4526 0.49438 0.0
O149 O 0.55649 0.62136 0.48165 0.0
O150 O 0.57398 0.63113 0.35884 0.0
O151 O 0.9211 0.44111 0.01468 0.0
Mn152 Mn 0.02864 0.49491 1.0102 0.0
O153 O 0.87971 0.40063 0.89004 0.0
Mn154 Mn 0.93589 0.47945 0.85454 0.0
O155 O 0.13101 0.55674 0.99934 0.0
O156 O 0.03298 0.51163 0.13508 0.0
Mn157 Mn 0.12491 0.50304 0.14964 0.0
O158 O 0.06501 0.39307 1.01053 0.0
O159 O 0.18461 0.58124 0.11972 0.0
O160 O 0.99095 0.59361 1.0055 0.0
O161 O 0.91893 0.57204 0.89298 0.0
O162 O 0.10057 0.51761 0.24847 0.0
O163 O 0.1402 0.41004 0.11793 0.0
C164 C 0.03889 0.47006 0.81675 0.0
C165 C 0.87157 0.40494 0.96362 0.0
C166 C 0.17949 0.59456 0.04927 0.0
C167 C 0.03992 0.52153 0.21354 0.0
C168 C 0.10807 0.36972 0.05758 0.0
C169 C 0.94788 0.61335 0.95539 0.0
O170 O 0.02349 0.47885 0.89027 0.0
O171 O 0.98588 0.46643 0.76574 0.0
loop_
_geom_bond_atom_site_label_1
_geom_bond_atom_site_label_2
_geom_bond_distance
_geom_bond_site_symmetry_2
_ccdc_geom_bond_type
O0 Cd1 2.300 . S
O0 C7 1.275 . S
Cd1 O0 2.300 . S
Cd1 O9 2.381 . S
Cd1 O10 2.378 . S
O2 Cd3 2.385 1_545 S
O2 C7 1.255 . S
Cd3 O2 2.385 1_565 S
Cd3 O4 2.317 1_565 S
O4 Cd3 2.317 1_545 S
O4 C5 1.232 . S
C5 O4 1.232 . S
C5 O6 1.218 1_545 S
O6 C5 1.218 1_565 S
C7 O0 1.275 . S
C7 O2 1.255 . S
C8 O9 1.258 . S
C8 O10 1.256 . S
O9 Cd1 2.381 . S
O9 C8 1.258 . S
O10 Cd1 2.378 . S
O10 C8 1.256 . S
O11 Cd12 2.300 . S
O11 C18 1.275 . S
Cd12 O11 2.300 . S
Cd12 O20 2.381 . S
Cd12 O21 2.378 . S
O13 Cd14 2.385 . S
O13 C18 1.255 . S
Cd14 O13 2.385 . S
Cd14 O15 2.317 . S
O15 Cd14 2.317 . S
O15 C16 1.232 . S
C16 O15 1.232 . S
C16 O17 1.218 1_565 S
O17 C16 1.218 1_545 S
C18 O11 1.275 . S
C18 O13 1.255 . S
C19 O20 1.258 . S
C19 O21 1.256 . S
O20 Cd12 2.381 . S
O20 C19 1.258 . S
O21 Cd12 2.378 . S
O21 C19 1.256 . S
O22 Cd23 2.300 . S
O22 C29 1.275 . S
Cd23 O22 2.300 . S
Cd23 O31 2.381 . S
Cd23 O32 2.378 . S
O24 Cd25 2.385 . S
O24 C29 1.255 . S
Cd25 O24 2.385 . S
Cd25 O26 2.317 . S
O26 Cd25 2.317 . S
O26 C27 1.232 1_556 S
C27 O26 1.232 1_554 S
C27 O28 1.218 . S
O28 C27 1.218 . S
C29 O22 1.275 . S
C29 O24 1.255 . S
C30 O31 1.258 . S
C30 O32 1.256 . S
O31 Cd23 2.381 . S
O31 C30 1.258 . S
O32 Cd23 2.378 . S
O32 C30 1.256 . S
O33 Cd34 2.300 . S
O33 C40 1.275 . S
Cd34 O33 2.300 . S
Cd34 O42 2.381 1_655 S
Cd34 O43 2.375 1_655 S
O35 Cd36 2.385 . S
O35 C40 1.255 . S
Cd36 O35 2.385 . S
Cd36 O37 2.317 . S
O37 Cd36 2.317 . S
O37 C38 1.232 . S
C38 O37 1.232 . S
C38 O39 1.218 . S
O39 C38 1.218 . S
C40 O33 1.275 . S
C40 O35 1.255 . S
C41 O42 1.258 . S
C41 O43 1.258 . S
O42 Cd34 2.381 1_455 S
O42 C41 1.258 . S
O43 Cd34 2.375 1_455 S
O43 C41 1.258 . S
O44 Cd45 2.300 . S
O44 C51 1.275 . S
Cd45 O44 2.300 . S
Cd45 O53 2.381 . S
Cd45 O54 2.378 1_556 S
O46 Cd47 2.385 1_556 S
O46 C51 1.255 1_545 S
Cd47 O46 2.385 1_554 S
Cd47 O48 2.317 . S
O48 Cd47 2.317 . S
O48 C49 1.232 1_554 S
C49 O48 1.232 1_556 S
C49 O50 1.218 . S
O50 C49 1.218 . S
C51 O44 1.275 . S
C51 O46 1.255 1_565 S
C52 O53 1.258 . S
C52 O54 1.256 1_556 S
O53 Cd45 2.381 . S
O53 C52 1.258 . S
O54 Cd45 2.378 1_554 S
O54 C52 1.256 1_554 S
O55 Cd56 2.300 . S
O55 C62 1.275 . S
Cd56 O55 2.300 . S
Cd56 O64 2.381 . S
Cd56 O65 2.378 . S
O57 Cd58 2.385 . S
O57 C62 1.255 . S
Cd58 O57 2.385 . S
Cd58 O59 2.317 . S
O59 Cd58 2.317 . S
O59 C60 1.232 . S
C60 O59 1.232 . S
C60 O61 1.218 . S
O61 C60 1.218 . S
C62 O55 1.275 . S
C62 O57 1.255 . S
C63 O64 1.258 . S
C63 O65 1.256 . S
O64 Cd56 2.381 . S
O64 C63 1.258 . S
O65 Cd56 2.378 . S
O65 C63 1.256 . S
O66 Cd67 2.300 . S
O66 C73 1.275 . S
Cd67 O66 2.300 . S
Cd67 O75 2.381 . S
Cd67 O76 2.378 . S
O68 Cd69 2.385 . S
O68 C73 1.255 . S
Cd69 O68 2.385 . S
Cd69 O70 2.317 . S
O70 Cd69 2.317 . S
O70 C71 1.232 . S
C71 O70 1.232 . S
C71 O72 1.218 . S
O72 C71 1.218 . S
C73 O66 1.275 . S
C73 O68 1.255 . S
C74 O75 1.258 . S
C74 O76 1.256 . S
O75 Cd67 2.381 . S
O75 C74 1.258 . S
O76 Cd67 2.378 . S
O76 C74 1.256 . S
O77 Cd78 2.300 . S
O77 C84 1.275 . S
Cd78 O77 2.300 . S
Cd78 O86 2.381 . S
Cd78 O87 2.378 . S
O79 Cd80 2.385 . S
O79 C84 1.255 . S
Cd80 O79 2.385 . S
Cd80 O81 2.317 . S
O81 Cd80 2.317 . S
O81 C82 1.232 . S
C82 O81 1.232 . S
C82 O83 1.218 1_455 S
O83 C82 1.218 1_655 S
C84 O77 1.275 . S
C84 O79 1.255 . S
C85 O86 1.258 . S
C85 O87 1.256 . S
O86 Cd78 2.381 . S
O86 C85 1.258 . S
O87 Cd78 2.378 . S
O87 C85 1.256 . S
O88 Mn89 2.163 1_655 S
O88 C102 1.244 . S
Mn89 O88 2.163 1_455 S
Mn89 O92 2.160 1_545 S
Mn89 O93 2.221 . S
Mn89 O95 2.163 1_445 S
Mn89 O97 2.160 . S
Mn89 O107 2.221 1_445 S
O90 Mn91 2.087 . S
O90 C102 1.256 1_565 S
Mn91 O90 2.087 . S
Mn91 O98 2.089 1_565 S
Mn91 O107 2.290 . S
Mn91 O108 2.251 . S
O92 Mn89 2.160 1_565 S
O92 C103 1.239 . S
O93 Mn89 2.221 . S
O93 Mn94 2.290 . S
O93 C104 1.278 . S
Mn94 O93 2.290 . S
Mn94 O96 2.089 . S
Mn94 O99 2.251 . S
Mn94 O100 2.087 . S
O95 Mn89 2.163 1_665 S
O95 C105 1.244 . S
O96 Mn94 2.089 . S
O96 C103 1.256 1_545 S
O97 Mn89 2.160 . S
O97 C106 1.239 . S
O98 Mn91 2.089 1_545 S
O98 C106 1.256 1_655 S
O99 Mn94 2.251 . S
O99 C104 1.241 . S
O100 Mn94 2.087 . S
O100 C105 1.256 1_445 S
C101 O107 1.278 . S
C101 O108 1.241 . S
C102 O88 1.244 . S
C102 O90 1.256 1_545 S
C103 O92 1.239 . S
C103 O96 1.256 1_565 S
C104 O93 1.278 . S
C104 O99 1.241 . S
C105 O95 1.244 . S
C105 O100 1.256 1_665 S
C106 O97 1.239 . S
C106 O98 1.256 1_455 S
O107 Mn89 2.221 1_665 S
O107 Mn91 2.290 . S
O107 C101 1.278 . S
O108 Mn91 2.251 . S
O108 C101 1.241 . S
O109 Mn110 2.163 1_556 S
O109 C123 1.244 1_545 S
Mn110 O109 2.163 1_554 S
Mn110 O113 2.160 . S
Mn110 O114 2.221 . S
Mn110 O116 2.163 . S
Mn110 O118 2.160 . S
Mn110 O128 2.221 1_545 S
O111 Mn112 2.087 . S
O111 C123 1.256 . S
Mn112 O111 2.087 . S
Mn112 O119 2.089 . S
Mn112 O128 2.290 1_556 S
Mn112 O129 2.251 1_556 S
O113 Mn110 2.160 . S
O113 C124 1.239 . S
O114 Mn110 2.221 . S
O114 Mn115 2.290 . S
O114 C125 1.278 . S
Mn115 O114 2.290 . S
Mn115 O117 2.089 . S
Mn115 O120 2.251 . S
Mn115 O121 2.087 . S
O116 Mn110 2.163 . S
O116 C126 1.244 . S
O117 Mn115 2.089 . S
O117 C124 1.256 . S
O118 Mn110 2.160 . S
O118 C127 1.239 1_544 S
O119 Mn112 2.089 . S
O119 C127 1.256 . S
O120 Mn115 2.251 . S
O120 C125 1.241 . S
O121 Mn115 2.087 . S
O121 C126 1.256 . S
C122 O128 1.278 . S
C122 O129 1.241 . S
C123 O109 1.244 1_565 S
C123 O111 1.256 . S
C124 O113 1.239 . S
C124 O117 1.256 . S
C125 O114 1.278 . S
C125 O120 1.241 . S
C126 O116 1.244 . S
C126 O121 1.256 . S
C127 O118 1.239 1_566 S
C127 O119 1.256 . S
O128 Mn110 2.221 1_565 S
O128 Mn112 2.290 1_554 S
O128 C122 1.278 . S
O129 Mn112 2.251 1_554 S
O129 C122 1.241 . S
O130 Mn131 2.163 . S
O130 C144 1.244 . S
Mn131 O130 2.163 . S
Mn131 O134 2.160 . S
Mn131 O135 2.221 . S
Mn131 O137 2.163 . S
Mn131 O139 2.160 . S
Mn131 O149 2.221 . S
O132 Mn133 2.087 . S
O132 C144 1.256 . S
Mn133 O132 2.087 . S
Mn133 O140 2.089 . S
Mn133 O149 2.290 . S
Mn133 O150 2.251 . S
O134 Mn131 2.160 . S
O134 C145 1.239 . S
O135 Mn131 2.221 . S
O135 Mn136 2.290 . S
O135 C146 1.278 . S
Mn136 O135 2.290 . S
Mn136 O138 2.089 . S
Mn136 O141 2.251 . S
Mn136 O142 2.087 . S
O137 Mn131 2.163 . S
O137 C147 1.244 . S
O138 Mn136 2.089 . S
O138 C145 1.256 . S
O139 Mn131 2.160 . S
O139 C148 1.239 . S
O140 Mn133 2.089 . S
O140 C148 1.256 . S
O141 Mn136 2.251 . S
O141 C146 1.241 . S
O142 Mn136 2.087 . S
O142 C147 1.256 . S
C143 O149 1.278 . S
C143 O150 1.241 . S
C144 O130 1.244 . S
C144 O132 1.256 . S
C145 O134 1.239 . S
C145 O138 1.256 . S
C146 O135 1.278 . S
C146 O141 1.241 . S
C147 O137 1.244 . S
C147 O142 1.256 . S
C148 O139 1.239 . S
C148 O140 1.256 . S
O149 Mn131 2.221 . S
O149 Mn133 2.290 . S
O149 C143 1.278 . S
O150 Mn133 2.251 . S
O150 C143 1.241 . S
O151 Mn152 2.163 1_655 S
O151 C165 1.244 1_554 S
Mn152 O151 2.163 1_455 S
Mn152 O155 2.160 . S
Mn152 O156 2.221 . S
Mn152 O158 2.163 . S
Mn152 O160 2.160 1_554 S
Mn152 O170 2.221 1_554 S
O153 Mn154 2.087 . S
O153 C165 1.256 . S
Mn154 O153 2.087 . S
Mn154 O161 2.089 . S
Mn154 O170 2.290 1_655 S
Mn154 O171 2.251 1_655 S
O155 Mn152 2.160 . S
O155 C166 1.239 . S
O156 Mn152 2.221 . S
O156 Mn157 2.290 . S
O156 C167 1.278 1_455 S
Mn157 O156 2.290 . S
Mn157 O159 2.089 . S
Mn157 O162 2.253 . S
Mn157 O163 2.087 . S
O158 Mn152 2.163 . S
O158 C168 1.244 . S
O159 Mn157 2.089 . S
O159 C166 1.256 . S
O160 Mn152 2.160 1_556 S
O160 C169 1.239 1_455 S
O161 Mn154 2.089 . S
O161 C169 1.256 . S
O162 Mn157 2.253 . S
O162 C167 1.240 1_455 S
O163 Mn157 2.087 . S
O163 C168 1.256 . S
C164 O170 1.278 . S
C164 O171 1.241 . S
C165 O151 1.244 1_556 S
C165 O153 1.256 . S
C166 O155 1.239 . S
C166 O159 1.256 . S
C167 O156 1.278 1_655 S
C167 O162 1.240 1_655 S
C168 O158 1.244 . S
C168 O163 1.256 . S
C169 O160 1.239 1_655 S
C169 O161 1.256 . S
O170 Mn152 2.221 1_556 S
O170 Mn154 2.290 1_455 S
O170 C164 1.278 . S
O171 Mn154 2.251 1_455 S
O171 C164 1.241 . S
C5 C106 2.022 . S
C18 C123 1.474 . S
C146 C30 1.028 . S
C41 C167 1.468 1_455 S
C126 C7 2.384 . S
C103 C16 1.589 . S
C165 C29 1.421 . S
C144 C38 1.887 . S
C8 C168 1.929 . S
C125 C27 1.764 . S
C40 C101 1.945 . S
C19 C147 1.225 . S
C105 C51 1.635 . S
C62 C124 1.473 . S
C74 C143 1.252 . S
C84 C164 1.086 . S
C49 C127 2.290 1_545 S
C102 C63 1.626 . S
C166 C71 1.376 . S
C145 C85 1.432 . S
C52 C169 1.741 . S
C122 C73 1.517 . S
C104 C82 1.174 . S
C60 C148 1.219 . S
