# Generated by pormake.
# Topology pth, (4,4)-cn, num edge types: 1
# Building blocks:
#     Node 0, Type 0, BuildingBlock: NAHDIM_clean_sbu_0, # of connection points: 4
#     Node 1, Type 0, BuildingBlock: NAHDIM_clean_sbu_0, # of connection points: 4
#     Node 2, Type 0, BuildingBlock: NAHDIM_clean_sbu_0, # of connection points: 4
#     Node 3, Type 1, BuildingBlock: MUDLON_clean_sbu_0, # of connection points: 4
#     Node 4, Type 1, BuildingBlock: MUDLON_clean_sbu_0, # of connection points: 4
#     Node 5, Type 1, BuildingBlock: MUDLON_clean_sbu_0, # of connection points: 4
#     Edge 6, Type (0, 1), BuildingBlock: AJUNOK_clean_linker_0, # of connection points: 2
#     Edge 7, Type (0, 1), BuildingBlock: AJUNOK_clean_linker_0, # of connection points: 2
#     Edge 8, Type (0, 1), BuildingBlock: AJUNOK_clean_linker_0, # of connection points: 2
#     Edge 9, Type (0, 1), BuildingBlock: AJUNOK_clean_linker_0, # of connection points: 2
#     Edge 10, Type (0, 1), BuildingBlock: AJUNOK_clean_linker_0, # of connection points: 2
#     Edge 11, Type (0, 1), BuildingBlock: AJUNOK_clean_linker_0, # of connection points: 2
#     Edge 12, Type (0, 1), BuildingBlock: AJUNOK_clean_linker_0, # of connection points: 2
#     Edge 13, Type (0, 1), BuildingBlock: AJUNOK_clean_linker_0, # of connection points: 2
#     Edge 14, Type (0, 1), BuildingBlock: AJUNOK_clean_linker_0, # of connection points: 2
#     Edge 15, Type (0, 1), BuildingBlock: AJUNOK_clean_linker_0, # of connection points: 2
#     Edge 16, Type (0, 1), BuildingBlock: AJUNOK_clean_linker_0, # of connection points: 2
#     Edge 17, Type (0, 1), BuildingBlock: AJUNOK_clean_linker_0, # of connection points: 2
# Relax obj value: 0.076
# Max RMSD: 0.190
# Mean RMSD: 0.122
data_MOF--net-pth--node1-NAHDIM_clean_sbu_0--node2-MUDLON_clean_sbu_0--edge1-AJUNOK_clean_linker_0
_symmetry_space_group_name_H-M    P1
_symmetry_Int_Tables_number       1
_symmetry_cell_setting            triclinic
loop_
_symmetry_equiv_pos_as_xyz
'x, y, z'
_cell_length_a     16.743656
_cell_length_b     16.763167
_cell_length_c     43.676774
_cell_angle_alpha  92.187583
_cell_angle_beta   89.850506
_cell_angle_gamma 120.38574
loop_
_atom_site_label
_atom_site_type_symbol
_atom_site_fract_x
_atom_site_fract_y
_atom_site_fract_z
_atom_type_partial_charge
C0 C 0.19208 0.06409 0.13586 0.0
O1 O 0.21265 0.14696 0.14635 0.0
O2 O 0.07298 0.1855 0.11542 0.0
Zn3 Zn 0.09453 0.09894 0.08723 0.0
O4 O 0.97163 1.00201 0.06808 0.0
C5 C 0.26366 0.19349 0.04925 0.0
O6 O 0.30737 0.17541 0.07035 0.0
O7 O 0.14491 0.03163 0.11106 0.0
C8 C 0.93954 0.01425 0.04345 0.0
O9 O 0.98721 0.09326 0.03 0.0
C10 C 0.05049 0.24076 0.10437 0.0
O11 O 0.04305 0.2417 0.07449 0.0
O12 O 0.17906 0.16928 0.05285 0.0
C13 C 0.05544 0.23185 0.37928 0.0
O14 O 0.9698 0.17027 0.38574 0.0
O15 O 0.05677 0.9995 0.38616 0.0
Zn16 Zn 0.08177 0.10833 0.41431 0.0
O17 O 0.96807 0.08242 0.43795 0.0
C18 C 0.25913 0.14252 0.43651 0.0
O19 O 0.27368 0.13804 0.40708 0.0
O20 O 0.12064 0.22057 0.38872 0.0
C21 C 0.92902 0.02219 0.45807 0.0
O22 O 0.96278 0.96896 0.46455 0.0
C23 C 0.97763 0.93415 0.37687 0.0
O24 O 0.90289 0.9339 0.38621 0.0
O25 O 0.18226 0.13304 0.44493 0.0
C26 C 0.10031 0.98685 0.68951 0.0
O27 O 0.01955 0.97213 0.6798 0.0
O28 O 0.99436 0.11726 0.71274 0.0
Zn29 Zn 0.06787 0.08309 0.74065 0.0
O30 O 0.16542 0.19767 0.76397 0.0
C31 C 0.98548 0.92458 0.78166 0.0
O32 O 0.05072 0.90813 0.77246 0.0
O33 O 0.13293 0.03036 0.7151 0.0
C34 C 0.15024 0.22842 0.78906 0.0
O35 O 0.06681 0.18475 0.80045 0.0
C36 C 0.93644 0.13858 0.72333 0.0
O37 O 0.92528 0.13931 0.7531 0.0
O38 O 0.98139 0.99189 0.77085 0.0
Mg39 Mg 0.11071 0.62083 0.24729 0.0
C40 C 0.08986 0.50282 0.29408 0.0
O41 O 1.00917 0.49021 0.28526 0.0
C42 C 0.16133 0.78789 0.21508 0.0
O43 O 0.07895 0.76025 0.22618 0.0
C44 C 0.03642 0.51383 0.18692 0.0
O45 O 0.07626 0.5983 0.17719 0.0
O46 O 0.02923 0.50268 0.21564 0.0
O47 O 0.16167 0.56101 0.28007 0.0
O48 O 0.04988 0.67798 0.27892 0.0
C49 C 0.97098 0.66147 0.28794 0.0
O50 O 0.89553 0.58883 0.27661 0.0
O51 O 0.20033 0.74085 0.21998 0.0
Mg52 Mg 0.55267 0.06175 0.58353 0.0
C53 C 0.48421 0.09489 0.52564 0.0
O54 O 0.48716 0.01949 0.51882 0.0
C55 C 0.6628 0.14082 0.64269 0.0
O56 O 0.57919 0.10093 0.65395 0.0
C57 C 0.35361 0.9643 0.60371 0.0
O58 O 0.34115 0.97714 0.57505 0.0
O59 O 0.43376 0.98246 0.6124 0.0
O60 O 0.51101 0.13362 0.55224 0.0
O61 O 0.60805 0.99304 0.55465 0.0
C62 C 0.67258 0.05476 0.53904 0.0
O63 O 0.69289 0.14112 0.54322 0.0
O64 O 0.67147 0.14587 0.6138 0.0
Mg65 Mg 0.58473 0.59001 0.91582 0.0
C66 C 0.46883 0.50339 0.86082 0.0
O67 O 0.5432 0.49771 0.85574 0.0
C68 C 0.64669 0.69951 0.97509 0.0
O69 O 0.63239 0.61865 0.98304 0.0
C70 C 0.45617 0.43779 0.95098 0.0
O71 O 0.41334 0.48014 0.94162 0.0
O72 O 0.53977 0.46852 0.94314 0.0
O73 O 0.4671 0.54789 0.88483 0.0
O74 O 0.70361 0.64081 0.88591 0.0
C75 C 0.71322 0.71259 0.87346 0.0
O76 O 0.65495 0.74061 0.8809 0.0
O77 O 0.62421 0.70712 0.94799 0.0
C78 C 0.03453 0.29736 0.15684 0.0
C79 C 0.0362 0.30547 0.12483 0.0
C80 C 0.02801 0.36147 0.17678 0.0
C81 C 0.02388 0.437 0.16555 0.0
H82 H 0.04051 0.24226 0.16672 0.0
H83 H 0.03086 0.3541 0.20122 0.0
S84 S 0.01631 0.48501 0.08369 0.0
N85 N 0.02543 0.39141 0.08284 0.0
N86 N 0.01428 0.51195 0.12031 0.0
C87 C 0.02093 0.44346 0.13361 0.0
C88 C 0.02684 0.37781 0.11327 0.0
C89 C 0.8227 0.96869 0.50303 0.0
C90 C 0.85238 0.01937 0.47616 0.0
C91 C 0.75919 0.97518 0.5226 0.0
C92 C 0.72394 0.03297 0.51598 0.0
H93 H 0.85154 0.92676 0.50973 0.0
H94 H 0.74173 0.93897 0.54381 0.0
S95 S 0.76684 0.16804 0.4464 0.0
N96 N 0.83158 0.12007 0.44232 0.0
N97 N 0.71407 0.13299 0.4793 0.0
C98 C 0.7482 0.07909 0.48835 0.0
C99 C 0.81191 0.07206 0.46836 0.0
C100 C 0.85883 0.89678 0.81762 0.0
C101 C 0.91821 0.868 0.80521 0.0
C102 C 0.79427 0.8463 0.83975 0.0
C103 C 0.78549 0.76425 0.8506 0.0
H104 H 0.86202 0.95933 0.81027 0.0
H105 H 0.75063 0.87234 0.84831 0.0
S106 S 0.92392 0.65775 0.82566 0.0
N107 N 0.9642 0.75148 0.8055 0.0
N108 N 0.84201 0.65616 0.84723 0.0
C109 C 0.84455 0.7344 0.8386 0.0
C110 C 0.91096 0.78628 0.81592 0.0
C111 C 0.21355 0.01767 0.18749 0.0
C112 C 0.20794 1.00267 0.15544 0.0
C113 C 0.20825 0.95069 0.20698 0.0
C114 C 0.20012 0.86766 0.19521 0.0
H115 H 0.21475 0.07817 0.19771 0.0
H116 H 0.20419 0.96119 0.23145 0.0
S117 S 0.19759 0.80103 0.11325 0.0
N118 N 0.20405 0.90267 0.11286 0.0
N119 N 0.19695 0.77828 0.14975 0.0
C120 C 0.20324 0.8555 0.16337 0.0
C121 C 0.20648 0.92273 0.1434 0.0
C122 C 0.39131 0.12084 0.4504 0.0
C123 C 0.32588 0.14573 0.45951 0.0
C124 C 0.44611 0.10975 0.47203 0.0
C125 C 0.43909 0.1249 0.50355 0.0
H126 H 0.39718 0.10517 0.4265 0.0
H127 H 0.49222 0.086 0.46406 0.0
S128 S 0.28627 0.20095 0.53929 0.0
N129 N 0.26254 0.19239 0.50222 0.0
N130 N 0.36706 0.17281 0.54279 0.0
C131 C 0.37859 0.15571 0.51293 0.0
C132 C 0.3215 0.16567 0.49092 0.0
C133 C 0.31841 0.34734 0.79487 0.0
C134 C 0.2282 0.30758 0.80638 0.0
C135 C 0.39509 0.41458 0.81204 0.0
C136 C 0.38505 0.44569 0.84137 0.0
H137 H 0.33072 0.32418 0.77281 0.0
H138 H 0.4633 0.44022 0.80259 0.0
S139 S 0.16346 0.37073 0.88108 0.0
N140 N 0.13274 0.30959 0.84828 0.0
N141 N 0.2773 0.43641 0.88045 0.0
C142 C 0.295 0.4107 0.85254 0.0
C143 C 0.21655 0.34149 0.8351 0.0
C144 C 0.79773 0.15455 0.71415 0.0
C145 C 0.87541 0.15313 0.70241 0.0
C146 C 0.73233 0.15652 0.69472 0.0
C147 C 0.74215 0.15806 0.6627 0.0
H148 H 0.78488 0.15014 0.73852 0.0
H149 H 0.67165 0.15318 0.70487 0.0
S150 S 0.93943 0.1671 0.62047 0.0
N151 N 0.96297 0.16219 0.65679 0.0
N152 N 0.84061 0.16662 0.62028 0.0
C153 C 0.82276 0.16296 0.65074 0.0
C154 C 0.88908 0.16013 0.67056 0.0
C155 C 0.83161 0.94518 0.99797 0.0
C156 C 0.85475 0.93719 0.02825 0.0
C157 C 0.75945 0.8696 0.98152 0.0
C158 C 0.70765 0.78297 0.9947 0.0
H159 H 0.87207 1.0091 0.98628 0.0
H160 H 0.74787 0.878 0.95777 0.0
S161 S 0.72933 0.72973 0.07495 0.0
N162 N 0.81185 0.83865 0.07198 0.0
N163 N 0.67653 0.69686 0.04109 0.0
C164 C 0.72545 0.77593 0.02566 0.0
C165 C 0.7989 0.85287 0.04242 0.0
C166 C 0.05331 0.87223 0.3419 0.0
C167 C 0.97155 0.8616 0.3547 0.0
C168 C 0.05147 0.80712 0.32056 0.0
C169 C 0.96775 0.72766 0.31092 0.0
H170 H 0.11997 0.93199 0.34817 0.0
H171 H 0.11705 0.82003 0.31149 0.0
S172 S 0.73363 0.66497 0.33805 0.0
N173 N 0.80381 0.76416 0.35661 0.0
N174 N 0.8005 0.64113 0.31638 0.0
C175 C 0.88513 0.71534 0.32366 0.0
C176 C 0.88699 0.78231 0.34552 0.0
C177 C 0.13748 0.94914 0.63731 0.0
C178 C 0.15833 0.96519 0.66893 0.0
C179 C 0.19829 0.94266 0.61661 0.0
C180 C 0.28235 0.9513 0.62662 0.0
H181 H 0.07592 0.94619 0.62817 0.0
H182 H 0.18097 0.93511 0.59239 0.0
S183 S 0.36155 0.97746 0.70772 0.0
N184 N 0.26339 0.97808 0.7097 0.0
N185 N 0.37709 0.96466 0.67092 0.0
C186 C 0.30041 0.95985 0.65845 0.0
C187 C 0.23872 0.96728 0.67954 0.0
C188 C 0.41073 0.29851 0.02199 0.0
C189 C 0.31315 0.24591 0.02204 0.0
C190 C 0.45801 0.35647 0.99783 0.0
C191 C 0.40915 0.36363 0.97297 0.0
H192 H 0.45083 0.29806 0.04133 0.0
H193 H 0.53271 0.39956 0.99946 0.0
S194 S 0.15486 0.22914 0.95942 0.0
N195 N 0.1706 0.19657 0.99297 0.0
N196 N 0.25924 0.30544 0.94798 0.0
C197 C 0.31228 0.30695 0.97177 0.0
C198 C 0.26431 0.24812 0.9962 0.0
C199 C 0.14704 0.34877 0.33991 0.0
C200 C 0.07362 0.31125 0.36071 0.0
C201 C 0.15619 0.41549 0.31929 0.0
C202 C 0.09239 0.44669 0.31904 0.0
H203 H 0.19481 0.32316 0.33851 0.0
H204 H 0.21034 0.43898 0.30249 0.0
S205 S 0.89933 0.38315 0.37297 0.0
N206 N 0.94416 0.31944 0.38247 0.0
N207 N 0.96163 0.44458 0.34429 0.0
C208 C 0.02323 0.41463 0.34133 0.0
C209 C 0.01371 0.34689 0.36201 0.0
loop_
_geom_bond_atom_site_label_1
_geom_bond_atom_site_label_2
_geom_bond_distance
_geom_bond_site_symmetry_2
_ccdc_geom_bond_type
C0 O1 1.160 . S
C0 O7 1.185 1_565 S
O1 C0 1.160 . S
O2 Zn3 1.899 . S
O2 C10 1.284 . S
Zn3 O2 1.899 . S
Zn3 O4 2.032 1_445 S
Zn3 O7 2.086 . S
Zn3 O12 1.977 . S
O4 Zn3 2.032 1_665 S
O4 C8 1.278 . S
C5 O6 1.203 . S
C5 O12 1.267 . S
O6 C5 1.203 . S
O7 C0 1.185 1_545 S
O7 Zn3 2.086 . S
C8 O4 1.278 . S
C8 O9 1.211 1_565 S
O9 C8 1.211 1_545 S
C10 O2 1.284 . S
C10 O11 1.273 1_455 S
O11 C10 1.273 1_655 S
O12 Zn3 1.977 . S
O12 C5 1.267 . S
C13 O14 1.160 . S
C13 O20 1.185 . S
O14 C13 1.160 . S
O15 Zn16 1.899 . S
O15 C23 1.284 1_545 S
Zn16 O15 1.899 . S
Zn16 O17 2.032 1_455 S
Zn16 O20 2.086 . S
Zn16 O25 1.977 . S
O17 Zn16 2.032 1_655 S
O17 C21 1.278 . S
C18 O19 1.203 . S
C18 O25 1.267 . S
O19 C18 1.203 . S
O20 C13 1.185 . S
O20 Zn16 2.086 . S
C21 O17 1.278 . S
C21 O22 1.211 . S
O22 C21 1.211 . S
C23 O15 1.284 1_565 S
C23 O24 1.273 1_455 S
O24 C23 1.273 1_655 S
O25 Zn16 1.977 . S
O25 C18 1.267 . S
C26 O27 1.160 . S
C26 O33 1.185 1_545 S
O27 C26 1.160 . S
O28 Zn29 1.899 1_655 S
O28 C36 1.284 . S
Zn29 O28 1.899 1_455 S
Zn29 O30 2.032 . S
Zn29 O33 2.086 1_545 S
Zn29 O38 1.977 1_445 S
O30 Zn29 2.032 . S
O30 C34 1.278 . S
C31 O32 1.203 . S
C31 O38 1.267 . S
O32 C31 1.203 . S
O33 C26 1.185 1_565 S
O33 Zn29 2.086 1_565 S
C34 O30 1.278 . S
C34 O35 1.211 . S
O35 C34 1.211 . S
C36 O28 1.284 . S
C36 O37 1.273 . S
O37 C36 1.273 . S
O38 Zn29 1.977 1_665 S
O38 C31 1.267 . S
Mg39 O46 2.141 . S
Mg39 O47 2.048 . S
Mg39 O48 2.048 . S
Mg39 O51 2.141 . S
C40 O41 1.313 1_455 S
C40 O47 1.195 . S
O41 C40 1.313 1_655 S
C42 O43 1.245 1_455 S
C42 O51 1.289 . S
O43 C42 1.245 1_655 S
C44 O45 1.245 1_455 S
C44 O46 1.289 . S
O45 C44 1.245 1_655 S
O46 Mg39 2.141 . S
O46 C44 1.289 . S
O47 Mg39 2.048 . S
O47 C40 1.195 . S
O48 Mg39 2.048 . S
O48 C49 1.195 . S
C49 O48 1.195 . S
C49 O50 1.313 1_455 S
O50 C49 1.313 1_655 S
O51 Mg39 2.141 . S
O51 C42 1.289 . S
Mg52 O59 2.141 . S
Mg52 O60 2.048 . S
Mg52 O61 2.048 . S
Mg52 O64 2.141 . S
C53 O54 1.313 1_545 S
C53 O60 1.195 . S
O54 C53 1.313 1_565 S
C55 O56 1.245 1_545 S
C55 O64 1.289 . S
O56 C55 1.245 1_565 S
C57 O58 1.245 1_545 S
C57 O59 1.289 . S
O58 C57 1.245 1_565 S
O59 Mg52 2.141 . S
O59 C57 1.289 . S
O60 Mg52 2.048 . S
O60 C53 1.195 . S
O61 Mg52 2.048 . S
O61 C62 1.195 . S
C62 O61 1.195 . S
C62 O63 1.313 1_545 S
O63 C62 1.313 1_565 S
O64 Mg52 2.141 . S
O64 C55 1.289 . S
Mg65 O72 2.141 . S
Mg65 O73 2.048 . S
Mg65 O74 2.048 . S
Mg65 O77 2.141 . S
C66 O67 1.313 . S
C66 O73 1.195 . S
O67 C66 1.313 . S
C68 O69 1.245 . S
C68 O77 1.289 . S
O69 C68 1.245 . S
C70 O71 1.245 . S
C70 O72 1.289 . S
O71 C70 1.245 . S
O72 Mg65 2.141 . S
O72 C70 1.289 . S
O73 Mg65 2.048 . S
O73 C66 1.195 . S
O74 Mg65 2.048 . S
O74 C75 1.195 . S
C75 O74 1.195 . S
C75 O76 1.313 . S
O76 C75 1.313 . S
O77 Mg65 2.141 . S
O77 C68 1.289 . S
C78 C79 1.369 . S
C78 C80 1.419 . S
C78 H82 0.930 . S
C79 C78 1.369 . S
C79 C88 1.429 1_455 S
C80 C78 1.419 . S
C80 C81 1.363 . S
C80 H83 0.929 . S
C81 C80 1.363 . S
C81 C87 1.428 1_455 S
H82 C78 0.930 . S
H83 C80 0.929 . S
S84 N85 1.613 . S
S84 N86 1.610 . S
N85 S84 1.613 . S
N85 C88 1.350 . S
N86 S84 1.610 . S
N86 C87 1.351 . S
C87 C81 1.428 1_655 S
C87 N86 1.351 . S
C87 C88 1.434 . S
C88 C79 1.429 1_655 S
C88 N85 1.350 . S
C88 C87 1.434 . S
C89 C90 1.369 . S
C89 C91 1.419 . S
C89 H93 0.930 . S
C90 C89 1.369 . S
C90 C99 1.429 . S
C91 C89 1.419 . S
C91 C92 1.363 . S
C91 H94 0.929 . S
C92 C91 1.363 . S
C92 C98 1.428 . S
H93 C89 0.930 . S
H94 C91 0.929 . S
S95 N96 1.613 . S
S95 N97 1.610 . S
N96 S95 1.613 . S
N96 C99 1.350 . S
N97 S95 1.610 . S
N97 C98 1.351 . S
C98 C92 1.428 . S
C98 N97 1.351 . S
C98 C99 1.434 . S
C99 C90 1.429 . S
C99 N96 1.350 . S
C99 C98 1.434 . S
C100 C101 1.369 . S
C100 C102 1.419 . S
C100 H104 0.930 . S
C101 C100 1.369 . S
C101 C110 1.429 . S
C102 C100 1.419 . S
C102 C103 1.363 . S
C102 H105 0.929 . S
C103 C102 1.363 . S
C103 C109 1.428 . S
H104 C100 0.930 . S
H105 C102 0.929 . S
S106 N107 1.613 . S
S106 N108 1.610 . S
N107 S106 1.613 . S
N107 C110 1.350 . S
N108 S106 1.610 . S
N108 C109 1.351 . S
C109 C103 1.428 . S
C109 N108 1.351 . S
C109 C110 1.434 . S
C110 C101 1.429 . S
C110 N107 1.350 . S
C110 C109 1.434 . S
C111 C112 1.369 . S
C111 C113 1.419 . S
C111 H115 0.930 . S
C112 C111 1.369 . S
C112 C121 1.429 . S
C113 C111 1.419 . S
C113 C114 1.363 . S
C113 H116 0.929 1_455 S
C114 C113 1.363 . S
C114 C120 1.428 . S
H115 C111 0.930 . S
H116 C113 0.929 1_655 S
S117 N118 1.613 . S
S117 N119 1.610 . S
N118 S117 1.613 . S
N118 C121 1.350 . S
N119 S117 1.610 . S
N119 C120 1.351 . S
C120 C114 1.428 . S
C120 N119 1.351 . S
C120 C121 1.434 . S
C121 C112 1.429 . S
C121 N118 1.350 . S
C121 C120 1.434 . S
C122 C123 1.369 . S
C122 C124 1.419 . S
C122 H126 0.930 . S
C123 C122 1.369 . S
C123 C132 1.429 . S
C124 C122 1.419 . S
C124 C125 1.363 . S
C124 H127 0.929 . S
C125 C124 1.363 . S
C125 C131 1.428 . S
H126 C122 0.930 . S
H127 C124 0.929 . S
S128 N129 1.613 . S
S128 N130 1.610 . S
N129 S128 1.613 . S
N129 C132 1.350 . S
N130 S128 1.610 . S
N130 C131 1.351 . S
C131 C125 1.428 . S
C131 N130 1.351 . S
C131 C132 1.434 . S
C132 C123 1.429 . S
C132 N129 1.350 . S
C132 C131 1.434 . S
C133 C134 1.369 . S
C133 C135 1.419 . S
C133 H137 0.930 . S
C134 C133 1.369 . S
C134 C143 1.429 . S
C135 C133 1.419 . S
C135 C136 1.363 . S
C135 H138 0.929 . S
C136 C135 1.363 . S
C136 C142 1.428 . S
H137 C133 0.930 . S
H138 C135 0.929 . S
S139 N140 1.613 . S
S139 N141 1.610 . S
N140 S139 1.613 . S
N140 C143 1.350 . S
N141 S139 1.610 . S
N141 C142 1.351 . S
C142 C136 1.428 . S
C142 N141 1.351 . S
C142 C143 1.434 . S
C143 C134 1.429 . S
C143 N140 1.350 . S
C143 C142 1.434 . S
C144 C145 1.369 . S
C144 C146 1.419 . S
C144 H148 0.930 . S
C145 C144 1.369 . S
C145 C154 1.429 . S
C146 C144 1.419 . S
C146 C147 1.363 . S
C146 H149 0.929 . S
C147 C146 1.363 . S
C147 C153 1.428 . S
H148 C144 0.930 . S
H149 C146 0.929 . S
S150 N151 1.611 1_655 S
S150 N152 1.610 . S
N151 S150 1.611 1_455 S
N151 C154 1.339 1_455 S
N152 S150 1.610 . S
N152 C153 1.351 . S
C153 C147 1.428 . S
C153 N152 1.351 . S
C153 C154 1.434 . S
C154 C145 1.429 . S
C154 N151 1.339 1_655 S
C154 C153 1.434 . S
C155 C156 1.369 1_556 S
C155 C157 1.419 . S
C155 H159 0.930 . S
C156 C155 1.369 1_554 S
C156 C165 1.429 . S
C157 C155 1.419 . S
C157 C158 1.363 . S
C157 H160 0.929 . S
C158 C157 1.363 . S
C158 C164 1.428 1_556 S
H159 C155 0.930 . S
H160 C157 0.929 . S
S161 N162 1.613 . S
S161 N163 1.610 . S
N162 S161 1.613 . S
N162 C165 1.350 . S
N163 S161 1.610 . S
N163 C164 1.351 . S
C164 C158 1.428 1_554 S
C164 N163 1.351 . S
C164 C165 1.434 . S
C165 C156 1.429 . S
C165 N162 1.350 . S
C165 C164 1.434 . S
C166 C167 1.369 . S
C166 C168 1.419 . S
C166 H170 0.930 . S
C167 C166 1.369 . S
C167 C176 1.429 1_455 S
C168 C166 1.419 . S
C168 C169 1.363 . S
C168 H171 0.929 . S
C169 C168 1.363 . S
C169 C175 1.428 1_455 S
H170 C166 0.930 . S
H171 C168 0.929 . S
S172 N173 1.613 . S
S172 N174 1.610 . S
N173 S172 1.613 . S
N173 C176 1.350 . S
N174 S172 1.610 . S
N174 C175 1.351 . S
C175 C169 1.428 1_655 S
C175 N174 1.351 . S
C175 C176 1.434 . S
C176 C167 1.429 1_655 S
C176 N173 1.350 . S
C176 C175 1.434 . S
C177 C178 1.369 . S
C177 C179 1.419 . S
C177 H181 0.930 1_545 S
C178 C177 1.369 . S
C178 C187 1.429 . S
C179 C177 1.419 . S
C179 C180 1.363 . S
C179 H182 0.929 . S
C180 C179 1.363 . S
C180 C186 1.428 . S
H181 C177 0.930 1_565 S
H182 C179 0.929 . S
S183 N184 1.613 . S
S183 N185 1.610 . S
N184 S183 1.613 . S
N184 C187 1.350 . S
N185 S183 1.610 . S
N185 C186 1.351 . S
C186 C180 1.428 . S
C186 N185 1.351 . S
C186 C187 1.434 . S
C187 C178 1.429 . S
C187 N184 1.350 . S
C187 C186 1.434 . S
C188 C189 1.369 . S
C188 C190 1.394 1_554 S
C188 H192 0.930 . S
C189 C188 1.369 . S
C189 C198 1.429 1_554 S
C190 C188 1.394 1_556 S
C190 C191 1.397 . S
C190 H193 0.920 1_556 S
C191 C190 1.397 . S
C191 C197 1.428 . S
H192 C188 0.930 . S
H193 C190 0.920 1_554 S
S194 N195 1.613 . S
S194 N196 1.610 . S
N195 S194 1.613 . S
N195 C198 1.350 . S
N196 S194 1.610 . S
N196 C197 1.351 . S
C197 C191 1.428 . S
C197 N196 1.351 . S
C197 C198 1.434 . S
C198 C189 1.429 1_556 S
C198 N195 1.350 . S
C198 C197 1.434 . S
C199 C200 1.369 . S
C199 C201 1.419 . S
C199 H203 0.930 . S
C200 C199 1.369 . S
C200 C209 1.429 . S
C201 C199 1.419 . S
C201 C202 1.363 . S
C201 H204 0.929 . S
C202 C201 1.363 . S
C202 C208 1.428 1_455 S
H203 C199 0.930 . S
H204 C201 0.929 . S
S205 N206 1.613 . S
S205 N207 1.610 . S
N206 S205 1.613 . S
N206 C209 1.350 1_655 S
N207 S205 1.610 . S
N207 C208 1.351 . S
C208 C202 1.428 1_655 S
C208 N207 1.351 . S
C208 C209 1.434 1_655 S
C209 C200 1.429 . S
C209 N206 1.350 1_455 S
C209 C208 1.434 1_455 S
C81 C44 1.393 . S
C79 C10 1.410 . S
C90 C21 1.471 . S
C92 C62 1.505 . S
C101 C31 1.406 . S
C103 C75 1.476 . S
C112 C0 1.361 . S
C114 C42 1.431 . S
C125 C53 1.489 . S
C123 C18 1.398 . S
C134 C34 1.422 . S
C136 C66 1.463 . S
C147 C55 1.417 . S
C145 C36 1.417 . S
C156 C8 1.364 . S
C158 C68 1.401 . S
C169 C49 1.459 . S
C167 C23 1.471 . S
C180 C57 1.354 . S
C178 C26 1.305 . S
C191 C70 1.406 . S
C189 C5 1.361 . S
C200 C13 1.411 . S
C202 C40 1.497 . S
