# Generated by pormake.
# Topology pth, (4,4)-cn, num edge types: 1
# Building blocks:
#     Node 0, Type 0, BuildingBlock: NAHDIM_clean_sbu_0, # of connection points: 4
#     Node 1, Type 0, BuildingBlock: NAHDIM_clean_sbu_0, # of connection points: 4
#     Node 2, Type 0, BuildingBlock: NAHDIM_clean_sbu_0, # of connection points: 4
#     Node 3, Type 1, BuildingBlock: MUDLON_clean_sbu_0, # of connection points: 4
#     Node 4, Type 1, BuildingBlock: MUDLON_clean_sbu_0, # of connection points: 4
#     Node 5, Type 1, BuildingBlock: MUDLON_clean_sbu_0, # of connection points: 4
#     Edge 6, Type (0, 1), None
#     Edge 7, Type (0, 1), None
#     Edge 8, Type (0, 1), None
#     Edge 9, Type (0, 1), None
#     Edge 10, Type (0, 1), None
#     Edge 11, Type (0, 1), None
#     Edge 12, Type (0, 1), None
#     Edge 13, Type (0, 1), None
#     Edge 14, Type (0, 1), None
#     Edge 15, Type (0, 1), None
#     Edge 16, Type (0, 1), None
#     Edge 17, Type (0, 1), None
# Relax obj value: 0.077
# Max RMSD: 0.189
# Mean RMSD: 0.122
data_MOF--net-pth--node1-NAHDIM_clean_sbu_0--node2-MUDLON_clean_sbu_0--edge1-none
_symmetry_space_group_name_H-M    P1
_symmetry_Int_Tables_number       1
_symmetry_cell_setting            triclinic
loop_
_symmetry_equiv_pos_as_xyz
'x, y, z'
_cell_length_a     10.479578
_cell_length_b     10.098697
_cell_length_c     26.568542
_cell_angle_alpha  92.658234
_cell_angle_beta   88.593774
_cell_angle_gamma 122.04607
loop_
_atom_site_label
_atom_site_type_symbol
_atom_site_fract_x
_atom_site_fract_y
_atom_site_fract_z
_atom_type_partial_charge
C0 C 0.2717 0.93568 0.15234 0.0
O1 O 0.29032 0.92334 0.10367 0.0
O2 O 0.07457 0.23895 0.15888 0.0
Zn3 Zn 0.17162 0.1371 0.12041 0.0
O4 O 0.02682 0.97678 0.06985 0.0
C5 C 0.40392 0.3044 0.04139 0.0
O6 O 0.35664 0.16859 1.01813 0.0
O7 O 0.23019 1.02754 0.16867 0.0
C8 C 0.91964 0.97881 0.04937 0.0
O9 O 0.89631 0.09211 0.06089 0.0
C10 C 0.96513 0.17496 0.18962 0.0
O11 O 0.90167 1.02605 0.19842 0.0
O12 O 0.3474 0.31108 0.08365 0.0
C13 C 0.12875 0.39915 0.40326 0.0
O14 O 0.12655 0.41793 0.45244 0.0
O15 O 0.9744 0.89187 0.37701 0.0
Zn16 Zn 0.03667 0.0787 0.42486 0.0
O17 O 0.86502 1.02894 0.47306 0.0
C18 C 0.23865 1.01658 0.47113 0.0
O19 O 0.14297 0.87888 0.45035 0.0
O20 O 0.09301 0.26635 0.38386 0.0
C21 C 0.84776 0.96341 0.51468 0.0
O22 O 0.94306 0.92417 0.52759 0.0
C23 C 0.91021 0.86943 0.33472 0.0
O24 O 0.87638 0.96971 0.32029 0.0
O25 O 0.21938 0.12877 0.46545 0.0
C26 C 0.23934 0.07601 0.69432 0.0
O27 O 0.17533 0.94975 0.72079 0.0
O28 O 0.91884 0.20925 0.72702 0.0
Zn29 Zn 0.10147 0.22904 0.75841 0.0
O30 O 0.24611 0.44703 0.78662 0.0
C31 C 0.94061 0.93834 0.81694 0.0
O32 O 0.88227 0.85892 0.7744 0.0
O33 O 0.21772 0.1867 0.70518 0.0
C34 C 0.24101 0.48909 0.8321 0.0
O35 O 0.12575 0.39573 0.86038 0.0
C36 C 0.91248 0.28962 0.69278 0.0
O37 O 0.03684 0.40707 0.67447 0.0
O38 O 0.03395 0.08513 0.81674 0.0
Mg39 Mg 0.08027 0.6013 0.26981 0.0
C40 C 0.14271 0.51958 0.37064 0.0
O41 O 0.09878 0.61312 0.38763 0.0
C42 C 0.25759 0.815 0.18514 0.0
O43 O 0.23673 0.68449 0.16431 0.0
C44 C 0.93662 0.27608 0.22322 0.0
O45 O 0.89636 0.23696 0.27001 0.0
O46 O 0.99153 0.41699 0.2116 0.0
O47 O 0.16526 0.5108 0.32369 0.0
O48 O 0.93611 0.65596 0.31352 0.0
C49 C 0.91106 0.75704 0.2979 0.0
O50 O 0.93356 0.79153 0.25019 0.0
O51 O 0.2253 0.81867 0.23143 0.0
Mg52 Mg 0.55718 0.10506 0.58441 0.0
C53 C 0.35135 1.03061 0.50603 0.0
O54 O 0.34414 0.90227 0.51824 0.0
C55 C 0.76729 0.22851 0.6678 0.0
O56 O 0.65114 0.09719 0.68331 0.0
C57 C 0.3465 0.09975 0.65388 0.0
O58 O 0.41778 0.2352 0.63228 0.0
O59 O 0.379 0.9982 0.64062 0.0
O60 O 0.44715 0.1597 0.5282 0.0
O61 O 0.64087 0.98495 0.53785 0.0
C62 C 0.74224 0.96242 0.55217 0.0
O63 O 0.77501 0.97657 0.60023 0.0
O64 O 0.75851 0.27906 0.62579 0.0
Mg65 Mg 0.61281 0.66594 0.93223 0.0
C66 C 0.38207 0.61204 0.85596 0.0
O67 O 0.5031 0.68543 0.82786 0.0
C68 C 0.82655 0.85616 1.01167 0.0
O69 O 0.85677 0.74806 0.99952 0.0
C70 C 0.49518 0.45016 1.01466 0.0
O71 O 0.50203 0.57657 0.0332 0.0
O72 O 0.54585 0.45163 0.97048 0.0
O73 O 0.39681 0.61025 0.90324 0.0
O74 O 0.76305 0.72815 0.86699 0.0
C75 C 0.87373 0.86879 0.86534 0.0
O76 O 0.9067 0.96214 0.9054 0.0
O77 O 0.72057 0.85507 0.98896 0.0
loop_
_geom_bond_atom_site_label_1
_geom_bond_atom_site_label_2
_geom_bond_distance
_geom_bond_site_symmetry_2
_ccdc_geom_bond_type
C0 O1 1.160 . S
C0 O7 1.185 . S
O1 C0 1.160 . S
O2 Zn3 1.899 . S
O2 C10 1.284 1_455 S
Zn3 O2 1.899 . S
Zn3 O4 2.032 1_445 S
Zn3 O7 2.086 1_545 S
Zn3 O12 1.977 . S
O4 Zn3 2.032 1_665 S
O4 C8 1.278 . S
C5 O6 1.203 . S
C5 O12 1.267 . S
O6 C5 1.203 . S
O7 C0 1.185 . S
O7 Zn3 2.086 1_565 S
C8 O4 1.278 . S
C8 O9 1.211 1_564 S
O9 C8 1.211 1_546 S
C10 O2 1.284 1_655 S
C10 O11 1.273 . S
O11 C10 1.273 . S
O12 Zn3 1.977 . S
O12 C5 1.267 . S
C13 O14 1.160 . S
C13 O20 1.185 . S
O14 C13 1.160 . S
O15 Zn16 1.899 . S
O15 C23 1.284 1_545 S
Zn16 O15 1.899 . S
Zn16 O17 2.032 1_455 S
Zn16 O20 2.086 . S
Zn16 O25 1.977 . S
O17 Zn16 2.032 1_655 S
O17 C21 1.278 . S
C18 O19 1.203 1_545 S
C18 O25 1.267 . S
O19 C18 1.203 1_565 S
O20 C13 1.185 . S
O20 Zn16 2.086 . S
C21 O17 1.278 . S
C21 O22 1.211 . S
O22 C21 1.211 . S
C23 O15 1.284 1_565 S
C23 O24 1.273 1_455 S
O24 C23 1.273 1_655 S
O25 Zn16 1.977 . S
O25 C18 1.267 . S
C26 O27 1.160 . S
C26 O33 1.185 1_545 S
O27 C26 1.160 . S
O28 Zn29 1.899 1_655 S
O28 C36 1.284 . S
Zn29 O28 1.899 1_455 S
Zn29 O30 2.032 . S
Zn29 O33 2.086 1_545 S
Zn29 O38 1.977 1_445 S
O30 Zn29 2.032 . S
O30 C34 1.278 . S
C31 O32 1.203 . S
C31 O38 1.267 . S
O32 C31 1.203 . S
O33 C26 1.185 1_565 S
O33 Zn29 2.086 1_565 S
C34 O30 1.278 . S
C34 O35 1.211 . S
O35 C34 1.211 . S
C36 O28 1.284 . S
C36 O37 1.273 . S
O37 C36 1.273 . S
O38 Zn29 1.977 1_665 S
O38 C31 1.267 . S
Mg39 O46 2.141 . S
Mg39 O47 2.048 . S
Mg39 O48 2.048 . S
Mg39 O51 2.141 . S
C40 O41 1.313 1_455 S
C40 O47 1.195 . S
O41 C40 1.313 1_655 S
C42 O43 1.245 1_455 S
C42 O51 1.289 . S
O43 C42 1.245 1_655 S
C44 O45 1.245 1_455 S
C44 O46 1.289 . S
O45 C44 1.245 1_655 S
O46 Mg39 2.141 . S
O46 C44 1.289 . S
O47 Mg39 2.048 . S
O47 C40 1.195 . S
O48 Mg39 2.048 . S
O48 C49 1.195 . S
C49 O48 1.195 . S
C49 O50 1.313 1_455 S
O50 C49 1.313 1_655 S
O51 Mg39 2.141 . S
O51 C42 1.289 . S
Mg52 O59 2.141 . S
Mg52 O60 2.048 . S
Mg52 O61 2.048 . S
Mg52 O64 2.141 . S
C53 O54 1.313 1_545 S
C53 O60 1.195 . S
O54 C53 1.313 1_565 S
C55 O56 1.245 1_545 S
C55 O64 1.289 . S
O56 C55 1.245 1_565 S
C57 O58 1.245 1_545 S
C57 O59 1.289 . S
O58 C57 1.245 1_565 S
O59 Mg52 2.141 . S
O59 C57 1.289 . S
O60 Mg52 2.048 . S
O60 C53 1.195 . S
O61 Mg52 2.048 . S
O61 C62 1.195 . S
C62 O61 1.195 . S
C62 O63 1.313 1_545 S
O63 C62 1.313 1_565 S
O64 Mg52 2.141 . S
O64 C55 1.289 . S
Mg65 O72 2.141 . S
Mg65 O73 2.048 . S
Mg65 O74 2.048 . S
Mg65 O77 2.141 . S
C66 O67 1.313 . S
C66 O73 1.195 . S
O67 C66 1.313 . S
C68 O69 1.245 . S
C68 O77 1.289 . S
O69 C68 1.245 . S
C70 O71 1.245 . S
C70 O72 1.289 . S
O71 C70 1.245 . S
O72 Mg65 2.141 . S
O72 C70 1.289 . S
O73 Mg65 2.048 . S
O73 C66 1.195 . S
O74 Mg65 2.048 . S
O74 C75 1.195 . S
C75 O74 1.195 . S
C75 O76 1.313 . S
O76 C75 1.313 . S
O77 Mg65 2.141 . S
O77 C68 1.289 . S
C44 C10 1.429 1_455 S
C21 C62 1.533 . S
C31 C75 1.393 . S
C0 C42 1.442 . S
C53 C18 1.432 . S
C34 C66 1.476 . S
C55 C36 1.598 . S
C8 C68 1.363 1_554 S
C49 C23 1.527 . S
C57 C26 1.213 . S
C70 C5 1.295 1_556 S
C13 C40 1.559 . S
