# Generated by pormake.
# Topology pth, (4,4)-cn, num edge types: 1
# Building blocks:
#     Node 0, Type 0, BuildingBlock: TATPOV_clean_sbu_0, # of connection points: 4
#     Node 1, Type 0, BuildingBlock: TATPOV_clean_sbu_0, # of connection points: 4
#     Node 2, Type 0, BuildingBlock: TATPOV_clean_sbu_0, # of connection points: 4
#     Node 3, Type 1, BuildingBlock: KOZSID_clean_sbu_0, # of connection points: 4
#     Node 4, Type 1, BuildingBlock: KOZSID_clean_sbu_0, # of connection points: 4
#     Node 5, Type 1, BuildingBlock: KOZSID_clean_sbu_0, # of connection points: 4
#     Edge 6, Type (0, 1), BuildingBlock: EYOCIG_clean_linker_4, # of connection points: 2
#     Edge 7, Type (0, 1), BuildingBlock: EYOCIG_clean_linker_4, # of connection points: 2
#     Edge 8, Type (0, 1), BuildingBlock: EYOCIG_clean_linker_4, # of connection points: 2
#     Edge 9, Type (0, 1), BuildingBlock: EYOCIG_clean_linker_4, # of connection points: 2
#     Edge 10, Type (0, 1), BuildingBlock: EYOCIG_clean_linker_4, # of connection points: 2
#     Edge 11, Type (0, 1), BuildingBlock: EYOCIG_clean_linker_4, # of connection points: 2
#     Edge 12, Type (0, 1), BuildingBlock: EYOCIG_clean_linker_4, # of connection points: 2
#     Edge 13, Type (0, 1), BuildingBlock: EYOCIG_clean_linker_4, # of connection points: 2
#     Edge 14, Type (0, 1), BuildingBlock: EYOCIG_clean_linker_4, # of connection points: 2
#     Edge 15, Type (0, 1), BuildingBlock: EYOCIG_clean_linker_4, # of connection points: 2
#     Edge 16, Type (0, 1), BuildingBlock: EYOCIG_clean_linker_4, # of connection points: 2
#     Edge 17, Type (0, 1), BuildingBlock: EYOCIG_clean_linker_4, # of connection points: 2
# Relax obj value: 0.036
# Max RMSD: 0.168
# Mean RMSD: 0.081
data_MOF--net-pth--node1-TATPOV_clean_sbu_0--node2-KOZSID_clean_sbu_0--edge1-EYOCIG_clean_linker_4
_symmetry_space_group_name_H-M    P1
_symmetry_Int_Tables_number       1
_symmetry_cell_setting            triclinic
loop_
_symmetry_equiv_pos_as_xyz
'x, y, z'
_cell_length_a     21.698844
_cell_length_b     21.54016
_cell_length_c     49.5348
_cell_angle_alpha  89.941437
_cell_angle_beta   89.847356
_cell_angle_gamma 120.61032
loop_
_atom_site_label
_atom_site_type_symbol
_atom_site_fract_x
_atom_site_fract_y
_atom_site_fract_z
_atom_type_partial_charge
Zn0 Zn 0.19689 0.01952 0.00257 0.0
Zn1 Zn 0.15061 0.10454 0.02484 0.0
O2 O 0.15263 0.04299 0.05627 0.0
O3 O 0.19341 0.97644 0.03876 0.0
O4 O 0.13626 0.18079 0.04304 0.0
O5 O 0.28458 0.10256 -0.01375 0.0
O6 O 0.24044 0.16778 0.00197 0.0
C7 C 0.16909 0.99433 0.0586 0.0
C8 C 0.05559 0.99087 -0.01457 0.0
O9 O 0.06339 0.0408 0.00135 0.0
O10 O 0.10413 0.97539 0.9824 0.0
C11 C 0.09474 0.16899 0.06297 0.0
O12 O 0.05423 0.10308 0.07217 0.0
C13 C 0.28728 0.16227 -0.01159 0.0
Zn14 Zn 0.17434 0.1724 0.32942 0.0
Zn15 Zn 0.05435 0.13057 0.35882 0.0
O16 O 0.13036 0.14457 0.38722 0.0
O17 O 0.22939 0.1823 0.36343 0.0
O18 O 0.97236 0.12309 0.38106 0.0
O19 O 0.1725 0.25529 0.31129 0.0
O20 O 0.0707 0.21319 0.33344 0.0
C21 C 0.19649 0.16422 0.38578 0.0
C22 C 0.05526 0.02425 0.32003 0.0
O23 O 0.02033 0.03604 0.33804 0.0
O24 O 0.11785 0.07268 0.31313 0.0
C25 C 0.94199 0.0822 0.4012 0.0
O26 O 0.96004 0.03516 0.40866 0.0
C27 C 0.11633 0.25691 0.3165 0.0
Zn28 Zn 0.15966 0.9811 0.71268 0.0
Zn29 Zn 0.07829 0.02928 0.69024 0.0
O30 O 0.14092 0.02737 0.65911 0.0
O31 O 0.20433 0.9839 0.67708 0.0
O32 O 0.0031 0.04418 0.67169 0.0
O33 O 0.07772 0.89277 0.72881 0.0
O34 O 0.01393 0.93794 0.71284 0.0
C35 C 0.18848 0.00959 0.65713 0.0
C36 C 0.1895 0.12329 0.73042 0.0
O37 O 0.14098 0.11684 0.71424 0.0
O38 O 0.20377 0.07363 0.73327 0.0
C39 C 0.01406 0.08675 0.6521 0.0
O40 O 0.07929 0.12906 0.64295 0.0
C41 C 0.01866 0.89031 0.7264 0.0
C42 C 0.15419 0.73898 0.15662 0.0
C43 C 0.22221 0.79715 0.1513 0.0
C44 C 0.26865 0.78718 0.16651 0.0
C45 C 0.2266 0.72373 0.18009 0.0
N46 N 0.15605 0.69198 0.17429 0.0
Co47 Co 0.07533 0.60266 0.19117 0.0
N48 N 0.14298 0.5941 0.21636 0.0
C49 C 0.21476 0.63881 0.21801 0.0
C50 C 0.2471 0.61838 0.23684 0.0
C51 C 0.19295 0.55638 0.24775 0.0
C52 C 0.13041 0.54258 0.23482 0.0
N53 N 0.99483 0.51304 0.20803 0.0
C54 C 0.99675 0.46806 0.22678 0.0
C55 C 0.92919 0.40898 0.2317 0.0
C56 C 0.8829 0.41658 0.21533 0.0
C57 C 0.92466 0.47958 0.20137 0.0
N58 N 0.0079 0.61228 0.16612 0.0
C59 C 0.93621 0.56734 0.16418 0.0
C60 C 0.90416 0.59014 0.14607 0.0
C61 C 0.95833 0.65428 0.13629 0.0
C62 C 0.02047 0.66683 0.14907 0.0
N63 N 0.08793 0.54089 0.16429 0.0
C64 C 0.09972 0.44058 0.13146 0.0
C65 C 0.03504 0.4387 0.13384 0.0
C66 C 0.03035 0.48891 0.15017 0.0
C67 C 0.15954 0.49511 0.14467 0.0
C68 C 0.15269 0.54505 0.16067 0.0
N69 N 0.06179 0.66352 0.21792 0.0
C70 C 0.9846 0.70085 0.23851 0.0
C71 C 0.04262 0.75753 0.25145 0.0
C72 C 0.1102 0.76569 0.24826 0.0
C73 C 0.11865 0.71841 0.23136 0.0
C74 C 0.9951 0.65408 0.22229 0.0
H75 H 0.17171 0.72806 0.22908 0.0
H76 H 0.94846 0.6112 0.21324 0.0
H77 H 0.97892 0.48306 0.1514 0.0
H78 H 0.20009 0.58571 0.17028 0.0
C79 C 0.25084 0.69736 0.20057 0.0
C80 C 0.08938 0.7329 0.14556 0.0
C81 C 0.06132 0.47817 0.23986 0.0
C82 C 0.9002 0.50674 0.181 0.0
H83 H 0.23658 0.84325 0.13843 0.0
H84 H 0.32582 0.82354 0.16839 0.0
H85 H 0.30355 0.64444 0.24156 0.0
H86 H 0.19912 0.5241 0.26306 0.0
H87 H 0.91514 0.36444 0.24538 0.0
H88 H 0.82587 0.37967 0.21337 0.0
H89 H 0.84779 0.56449 0.14126 0.0
H90 H 0.95257 0.68899 0.12198 0.0
H91 H 0.98762 0.39758 0.12361 0.0
H92 H 0.21102 0.49863 0.143 0.0
H93 H 0.9313 0.69279 0.24074 0.0
H94 H 0.15642 0.80901 0.2583 0.0
C95 C 0.4456 0.02294 0.56008 0.0
C96 C 0.38811 0.9542 0.56529 0.0
C97 C 0.3985 0.90779 0.55 0.0
C98 C 0.46151 0.95054 0.53648 0.0
N99 N 0.49251 0.02155 0.54237 0.0
Co100 Co 0.58043 0.10337 0.52532 0.0
N101 N 0.58989 0.03568 0.50006 0.0
C102 C 0.54603 0.96328 0.4984 0.0
C103 C 0.56689 0.93106 0.47959 0.0
C104 C 0.62846 0.98592 0.46878 0.0
C105 C 0.6416 0.04871 0.48174 0.0
N106 N 0.66873 0.18495 0.50826 0.0
C107 C 0.7144 0.18337 0.48982 0.0
C108 C 0.77259 0.25174 0.48494 0.0
C109 C 0.7638 0.29814 0.50102 0.0
C110 C 0.70099 0.2557 0.51477 0.0
N111 N 0.57017 0.17096 0.55041 0.0
C112 C 0.61392 0.24335 0.55216 0.0
C113 C 0.59102 0.27534 0.57034 0.0
C114 C 0.52797 0.22033 0.58036 0.0
C115 C 0.51617 0.1578 0.56765 0.0
N116 N 0.64253 0.09181 0.55207 0.0
C117 C 0.74266 0.08121 0.5849 0.0
C118 C 0.74355 0.14594 0.58266 0.0
C119 C 0.69347 0.15006 0.56629 0.0
C120 C 0.68907 0.02071 0.57164 0.0
C121 C 0.63917 0.02695 0.55566 0.0
N122 N 0.51857 0.11553 0.49881 0.0
C123 C 0.47483 0.18987 0.48025 0.0
C124 C 0.41741 0.12993 0.46836 0.0
C125 C 0.41308 0.06336 0.47053 0.0
C126 C 0.46395 0.05733 0.48582 0.0
C127 C 0.52525 0.18175 0.49489 0.0
H128 H 0.45691 0.00479 0.48739 0.0
H129 H 0.56841 0.22962 0.50329 0.0
H130 H 0.69857 0.20161 0.56505 0.0
H131 H 0.59923 0.979 0.54602 0.0
C132 C 0.48807 0.92655 0.51592 0.0
C133 C 0.4512 0.08794 0.57135 0.0
C134 C 0.70592 0.11839 0.47707 0.0
C135 C 0.67361 0.27994 0.53516 0.0
H136 H 0.34218 0.93934 0.57813 0.0
H137 H 0.36269 0.85017 0.54802 0.0
H138 H 0.5415 0.87421 0.47488 0.0
H139 H 0.66103 0.98006 0.45357 0.0
H140 H 0.81745 0.26623 0.47154 0.0
H141 H 0.8 0.35568 0.50304 0.0
H142 H 0.61587 0.33216 0.57503 0.0
H143 H 0.49346 0.22578 0.59478 0.0
H144 H 0.78389 0.19385 0.59296 0.0
H145 H 0.68631 0.96918 0.57322 0.0
H146 H 0.48058 0.24273 0.47845 0.0
H147 H 0.36994 0.01593 0.46095 0.0
C148 C 0.7721 0.59723 0.82016 0.0
C149 C 0.8284 0.58721 0.81309 0.0
C150 C 0.81865 0.52833 0.82707 0.0
C151 C 0.75729 0.50589 0.8418 0.0
N152 N 0.72739 0.54714 0.83825 0.0
Co153 Co 0.64166 0.53774 0.8575 0.0
N154 N 0.6311 0.45461 0.87967 0.0
C155 C 0.67316 0.42509 0.87882 0.0
C156 C 0.65158 0.3674 0.89585 0.0
C157 C 0.59193 0.35932 0.90835 0.0
C158 C 0.58065 0.41284 0.89811 0.0
N159 N 0.55507 0.5274 0.87639 0.0
C160 C 0.51089 0.4775 0.89467 0.0
C161 C 0.45365 0.48628 0.90136 0.0
C162 C 0.46182 0.5437 0.88674 0.0
C163 C 0.52316 0.56651 0.87194 0.0
N164 N 0.65359 0.62232 0.8358 0.0
C165 C 0.61267 0.65321 0.83713 0.0
C166 C 0.63492 0.7112 0.8202 0.0
C167 C 0.69415 0.71853 0.80754 0.0
C168 C 0.70439 0.66412 0.81746 0.0
N169 N 0.57715 0.46955 0.82956 0.0
C170 C 0.4658 0.3653 0.79789 0.0
C171 C 0.47518 0.4334 0.80061 0.0
C172 C 0.53083 0.48434 0.8162 0.0
C173 C 0.51564 0.35058 0.80944 0.0
C174 C 0.5717 0.40403 0.82494 0.0
N175 N 0.70501 0.60628 0.8854 0.0
C176 C 0.74533 0.71851 0.90885 0.0
C177 C 0.80409 0.71686 0.9187 0.0
C178 C 0.81145 0.65749 0.91307 0.0
C179 C 0.76126 0.60274 0.89627 0.0
C180 C 0.69597 0.66233 0.8929 0.0
H181 H 0.76964 0.55903 0.89189 0.0
H182 H 0.65151 0.66628 0.88657 0.0
H183 H 0.53309 0.53436 0.81768 0.0
H184 H 0.60878 0.3908 0.83349 0.0
C185 C 0.73009 0.45023 0.8607 0.0
C186 C 0.76355 0.65498 0.80911 0.0
C187 C 0.52044 0.42061 0.90603 0.0
C188 C 0.55202 0.62443 0.85378 0.0
H189 H 0.87242 0.61965 0.79946 0.0
H190 H 0.8532 0.5057 0.82703 0.0
H191 H 0.67549 0.33428 0.89845 0.0
H192 H 0.55971 0.31801 0.92303 0.0
H193 H 0.41018 0.45404 0.91522 0.0
H194 H 0.42684 0.56582 0.88672 0.0
H195 H 0.6109 0.74414 0.81738 0.0
H196 H 0.7264 0.75947 0.79274 0.0
H197 H 0.4382 0.44689 0.79137 0.0
H198 H 0.51056 0.29817 0.80706 0.0
H199 H 0.73767 0.76345 0.91326 0.0
H200 H 0.8562 0.65416 0.92098 0.0
C201 C 0.099 0.27912 0.08856 0.0
C202 C 0.09699 0.22882 0.07691 0.0
C203 C 0.10225 0.3374 0.10309 0.0
C204 C 0.1032 0.38527 0.11617 0.0
C205 C 0.85212 0.10335 0.43049 0.0
C206 C 0.89301 0.09302 0.41734 0.0
C207 C 0.80495 0.11548 0.44636 0.0
C208 C 0.76227 0.12125 0.46023 0.0
C209 C 0.91005 0.79345 0.75521 0.0
C210 C 0.95859 0.83835 0.74179 0.0
C211 C 0.85724 0.74423 0.77307 0.0
C212 C 0.81418 0.70349 0.78926 0.0
C213 C 0.13074 0.90513 0.09975 0.0
C214 C 0.14671 0.94895 0.082 0.0
C215 C 0.10935 0.8456 0.11705 0.0
C216 C 0.09544 0.79302 0.13024 0.0
C217 C 0.27066 0.15228 0.4254 0.0
C218 C 0.23248 0.15628 0.40867 0.0
C219 C 0.31954 0.1442 0.44172 0.0
C220 C 0.36386 0.13719 0.45381 0.0
C221 C 0.28496 0.23349 0.75713 0.0
C222 C 0.23585 0.18947 0.74385 0.0
C223 C 0.34847 0.27559 0.77175 0.0
C224 C 0.40326 0.31207 0.7839 0.0
C225 C 0.90402 0.0824 0.6271 0.0
C226 C 0.9541 0.08425 0.63855 0.0
C227 C 0.84602 0.07943 0.61282 0.0
C228 C 0.79821 0.07842 0.59997 0.0
C229 C 0.94181 0.8951 0.9603 0.0
C230 C 0.98869 0.94406 0.9728 0.0
C231 C 0.89499 0.8316 0.94628 0.0
C232 C 0.85613 0.77748 0.93396 0.0
C233 C 0.01941 0.90237 0.29597 0.0
C234 C 0.0278 0.95413 0.30842 0.0
C235 C 0.02356 0.84912 0.2808 0.0
C236 C 0.03245 0.80751 0.26745 0.0
C237 C 0.27927 0.04709 0.61671 0.0
C238 C 0.23481 0.03168 0.63406 0.0
C239 C 0.33898 0.06773 0.59979 0.0
C240 C 0.39133 0.08138 0.58674 0.0
C241 C 0.38151 0.27184 0.95915 0.0
C242 C 0.33819 0.2222 0.97262 0.0
C243 C 0.42899 0.32647 0.94143 0.0
C244 C 0.46957 0.3706 0.92548 0.0
C245 C 0.08432 0.34037 0.2882 0.0
C246 C 0.09949 0.30249 0.301 0.0
C247 C 0.06714 0.38316 0.27196 0.0
C248 C 0.05886 0.42323 0.25746 0.0
loop_
_geom_bond_atom_site_label_1
_geom_bond_atom_site_label_2
_geom_bond_distance
_geom_bond_site_symmetry_2
_ccdc_geom_bond_type
Zn0 O3 2.031 1_545 S
Zn0 O5 2.049 1_554 S
Zn0 O10 2.067 1_554 S
Zn1 O2 1.962 . S
Zn1 O4 1.986 . S
Zn1 O6 1.996 . S
Zn1 O9 1.943 . S
O2 Zn1 1.962 . S
O2 C7 1.254 1_545 S
O3 Zn0 2.031 1_565 S
O3 C7 1.269 . S
O4 Zn1 1.986 . S
O4 C11 1.262 . S
O5 Zn0 2.049 1_556 S
O5 C13 1.260 1_556 S
O6 Zn1 1.996 . S
O6 C13 1.257 . S
C7 O2 1.254 1_565 S
C7 O3 1.269 . S
C8 O9 1.249 . S
C8 O10 1.270 1_554 S
O9 Zn1 1.943 . S
O9 C8 1.249 . S
O10 Zn0 2.067 1_556 S
O10 C8 1.270 1_556 S
C11 O4 1.262 . S
C11 O12 1.232 . S
O12 C11 1.232 . S
C13 O5 1.260 1_554 S
C13 O6 1.257 . S
Zn14 O17 2.031 . S
Zn14 O19 2.049 . S
Zn14 O24 2.067 . S
Zn15 O16 1.962 . S
Zn15 O18 1.986 1_455 S
Zn15 O20 1.996 . S
Zn15 O23 1.943 . S
O16 Zn15 1.962 . S
O16 C21 1.254 . S
O17 Zn14 2.031 . S
O17 C21 1.269 . S
O18 Zn15 1.986 1_655 S
O18 C25 1.262 . S
O19 Zn14 2.049 . S
O19 C27 1.260 . S
O20 Zn15 1.996 . S
O20 C27 1.257 . S
C21 O16 1.254 . S
C21 O17 1.269 . S
C22 O23 1.249 . S
C22 O24 1.270 . S
O23 Zn15 1.943 . S
O23 C22 1.249 . S
O24 Zn14 2.067 . S
O24 C22 1.270 . S
C25 O18 1.262 . S
C25 O26 1.232 . S
O26 C25 1.232 . S
C27 O19 1.260 . S
C27 O20 1.257 . S
Zn28 O31 2.031 1_565 S
Zn28 O33 2.049 . S
Zn28 O38 2.067 1_565 S
Zn29 O30 1.962 . S
Zn29 O32 1.986 1_455 S
Zn29 O34 1.996 1_545 S
Zn29 O37 1.943 . S
O30 Zn29 1.962 . S
O30 C35 1.254 . S
O31 Zn28 2.031 1_545 S
O31 C35 1.269 . S
O32 Zn29 1.986 1_655 S
O32 C39 1.261 . S
O33 Zn28 2.049 . S
O33 C41 1.260 . S
O34 Zn29 1.996 1_565 S
O34 C41 1.257 . S
C35 O30 1.254 . S
C35 O31 1.269 . S
C36 O37 1.249 . S
C36 O38 1.270 . S
O37 Zn29 1.943 . S
O37 C36 1.249 . S
O38 Zn28 2.067 1_545 S
O38 C36 1.270 . S
C39 O32 1.261 . S
C39 O40 1.227 1_655 S
O40 C39 1.227 1_455 S
C41 O33 1.260 . S
C41 O34 1.257 . S
C42 C43 1.443 . S
C42 N46 1.376 . S
C42 C80 1.389 . S
C43 C42 1.443 . S
C43 C44 1.340 . S
C43 H83 0.951 . S
C44 C43 1.340 . S
C44 C45 1.439 . S
C44 H84 0.950 . S
C45 C44 1.439 . S
C45 N46 1.374 . S
C45 C79 1.395 . S
N46 C42 1.376 . S
N46 C45 1.374 . S
N46 Co47 2.008 . S
Co47 N46 2.008 . S
Co47 N48 1.995 . S
Co47 N53 2.008 1_455 S
Co47 N58 1.995 . S
Co47 N63 2.282 . S
Co47 N69 2.282 . S
N48 Co47 1.995 . S
N48 C49 1.376 . S
N48 C52 1.383 . S
C49 N48 1.376 . S
C49 C50 1.446 . S
C49 C79 1.391 . S
C50 C49 1.446 . S
C50 C51 1.339 . S
C50 H85 0.949 . S
C51 C50 1.339 . S
C51 C52 1.439 . S
C51 H86 0.950 . S
C52 N48 1.383 . S
C52 C51 1.439 . S
C52 C81 1.392 . S
N53 Co47 2.008 1_655 S
N53 C54 1.376 . S
N53 C57 1.374 . S
C54 N53 1.376 . S
C54 C55 1.443 . S
C54 C81 1.389 1_655 S
C55 C54 1.443 . S
C55 C56 1.340 . S
C55 H87 0.951 . S
C56 C55 1.340 . S
C56 C57 1.439 . S
C56 H88 0.950 . S
C57 N53 1.374 . S
C57 C56 1.439 . S
C57 C82 1.395 . S
N58 Co47 1.995 . S
N58 C59 1.376 1_455 S
N58 C62 1.383 . S
C59 N58 1.376 1_655 S
C59 C60 1.446 . S
C59 C82 1.391 . S
C60 C59 1.446 . S
C60 C61 1.339 . S
C60 H89 0.949 . S
C61 C60 1.339 . S
C61 C62 1.439 1_655 S
C61 H90 0.950 . S
C62 N58 1.383 . S
C62 C61 1.439 1_455 S
C62 C80 1.392 . S
N63 Co47 2.282 . S
N63 C66 1.332 . S
N63 C68 1.332 . S
C64 C65 1.386 . S
C64 C67 1.388 . S
C65 C64 1.386 . S
C65 C66 1.382 . S
C65 H91 0.950 1_455 S
C66 N63 1.332 . S
C66 C65 1.382 . S
C66 H77 0.952 1_455 S
C67 C64 1.388 . S
C67 C68 1.382 . S
C67 H92 0.950 . S
C68 N63 1.332 . S
C68 C67 1.382 . S
C68 H78 0.948 . S
N69 Co47 2.282 . S
N69 C73 1.332 . S
N69 C74 1.332 . S
C70 C71 1.388 1_655 S
C70 C74 1.382 1_655 S
C70 H93 0.950 . S
C71 C70 1.388 1_455 S
C71 C72 1.386 . S
C72 C71 1.386 . S
C72 C73 1.382 . S
C72 H94 0.950 . S
C73 N69 1.332 . S
C73 C72 1.382 . S
C73 H75 0.952 . S
C74 N69 1.332 . S
C74 C70 1.382 1_455 S
C74 H76 0.948 1_455 S
H75 C73 0.952 . S
H76 C74 0.948 1_655 S
H77 C66 0.952 1_655 S
H78 C68 0.948 . S
C79 C45 1.395 . S
C79 C49 1.391 . S
C80 C42 1.389 . S
C80 C62 1.392 . S
C81 C52 1.392 . S
C81 C54 1.389 1_455 S
C82 C57 1.395 . S
C82 C59 1.391 . S
H83 C43 0.951 . S
H84 C44 0.950 . S
H85 C50 0.949 . S
H86 C51 0.950 . S
H87 C55 0.951 . S
H88 C56 0.950 . S
H89 C60 0.949 . S
H90 C61 0.950 . S
H91 C65 0.950 1_655 S
H92 C67 0.950 . S
H93 C70 0.950 . S
H94 C72 0.950 . S
C95 C96 1.443 1_545 S
C95 N99 1.376 . S
C95 C133 1.389 . S
C96 C95 1.443 1_565 S
C96 C97 1.340 . S
C96 H136 0.951 . S
C97 C96 1.340 . S
C97 C98 1.439 . S
C97 H137 0.950 . S
C98 C97 1.439 . S
C98 N99 1.374 1_565 S
C98 C132 1.395 . S
N99 C95 1.376 . S
N99 C98 1.374 1_545 S
N99 Co100 2.008 . S
Co100 N99 2.008 . S
Co100 N101 1.995 . S
Co100 N106 2.008 . S
Co100 N111 1.995 . S
Co100 N116 2.282 . S
Co100 N122 2.282 . S
N101 Co100 1.995 . S
N101 C102 1.376 1_545 S
N101 C105 1.383 . S
C102 N101 1.376 1_565 S
C102 C103 1.446 . S
C102 C132 1.391 . S
C103 C102 1.446 . S
C103 C104 1.339 . S
C103 H138 0.949 . S
C104 C103 1.339 . S
C104 C105 1.439 1_565 S
C104 H139 0.950 . S
C105 N101 1.383 . S
C105 C104 1.439 1_545 S
C105 C134 1.392 . S
N106 Co100 2.008 . S
N106 C107 1.376 . S
N106 C110 1.374 . S
C107 N106 1.376 . S
C107 C108 1.443 . S
C107 C134 1.389 . S
C108 C107 1.443 . S
C108 C109 1.340 . S
C108 H140 0.951 . S
C109 C108 1.340 . S
C109 C110 1.439 . S
C109 H141 0.950 . S
C110 N106 1.374 . S
C110 C109 1.439 . S
C110 C135 1.395 . S
N111 Co100 1.995 . S
N111 C112 1.376 . S
N111 C115 1.383 . S
C112 N111 1.376 . S
C112 C113 1.446 . S
C112 C135 1.391 . S
C113 C112 1.446 . S
C113 C114 1.339 . S
C113 H142 0.949 . S
C114 C113 1.339 . S
C114 C115 1.439 . S
C114 H143 0.950 . S
C115 N111 1.383 . S
C115 C114 1.439 . S
C115 C133 1.392 . S
N116 Co100 2.282 . S
N116 C119 1.332 . S
N116 C121 1.332 . S
C117 C118 1.386 . S
C117 C120 1.388 . S
C118 C117 1.386 . S
C118 C119 1.382 . S
C118 H144 0.950 . S
C119 N116 1.332 . S
C119 C118 1.382 . S
C119 H130 0.952 . S
C120 C117 1.388 . S
C120 C121 1.382 . S
C120 H145 0.950 1_545 S
C121 N116 1.332 . S
C121 C120 1.382 . S
C121 H131 0.948 1_545 S
N122 Co100 2.282 . S
N122 C126 1.332 . S
N122 C127 1.332 . S
C123 C124 1.388 . S
C123 C127 1.382 . S
C123 H146 0.950 . S
C124 C123 1.388 . S
C124 C125 1.386 . S
C125 C124 1.386 . S
C125 C126 1.382 . S
C125 H147 0.950 . S
C126 N122 1.332 . S
C126 C125 1.382 . S
C126 H128 0.952 . S
C127 N122 1.332 . S
C127 C123 1.382 . S
C127 H129 0.948 . S
H128 C126 0.952 . S
H129 C127 0.948 . S
H130 C119 0.952 . S
H131 C121 0.948 1_565 S
C132 C98 1.395 . S
C132 C102 1.391 . S
C133 C95 1.389 . S
C133 C115 1.392 . S
C134 C105 1.392 . S
C134 C107 1.389 . S
C135 C110 1.395 . S
C135 C112 1.391 . S
H136 C96 0.951 . S
H137 C97 0.950 . S
H138 C103 0.949 . S
H139 C104 0.950 . S
H140 C108 0.951 . S
H141 C109 0.950 . S
H142 C113 0.949 . S
H143 C114 0.950 . S
H144 C118 0.950 . S
H145 C120 0.950 1_565 S
H146 C123 0.950 . S
H147 C125 0.950 . S
C148 C149 1.443 . S
C148 N152 1.376 . S
C148 C186 1.389 . S
C149 C148 1.443 . S
C149 C150 1.340 . S
C149 H189 0.951 . S
C150 C149 1.340 . S
C150 C151 1.439 . S
C150 H190 0.950 . S
C151 C150 1.439 . S
C151 N152 1.374 . S
C151 C185 1.395 . S
N152 C148 1.376 . S
N152 C151 1.374 . S
N152 Co153 2.008 . S
Co153 N152 2.008 . S
Co153 N154 1.995 . S
Co153 N159 2.008 . S
Co153 N164 1.995 . S
Co153 N169 2.282 . S
Co153 N175 2.282 . S
N154 Co153 1.995 . S
N154 C155 1.376 . S
N154 C158 1.383 . S
C155 N154 1.376 . S
C155 C156 1.446 . S
C155 C185 1.391 . S
C156 C155 1.446 . S
C156 C157 1.339 . S
C156 H191 0.949 . S
C157 C156 1.339 . S
C157 C158 1.439 . S
C157 H192 0.950 . S
C158 N154 1.383 . S
C158 C157 1.439 . S
C158 C187 1.392 . S
N159 Co153 2.008 . S
N159 C160 1.376 . S
N159 C163 1.374 . S
C160 N159 1.376 . S
C160 C161 1.443 . S
C160 C187 1.389 . S
C161 C160 1.443 . S
C161 C162 1.340 . S
C161 H193 0.951 . S
C162 C161 1.340 . S
C162 C163 1.439 . S
C162 H194 0.950 . S
C163 N159 1.374 . S
C163 C162 1.439 . S
C163 C188 1.395 . S
N164 Co153 1.995 . S
N164 C165 1.376 . S
N164 C168 1.383 . S
C165 N164 1.376 . S
C165 C166 1.446 . S
C165 C188 1.391 . S
C166 C165 1.446 . S
C166 C167 1.339 . S
C166 H195 0.949 . S
C167 C166 1.339 . S
C167 C168 1.439 . S
C167 H196 0.950 . S
C168 N164 1.383 . S
C168 C167 1.439 . S
C168 C186 1.392 . S
N169 Co153 2.282 . S
N169 C172 1.332 . S
N169 C174 1.332 . S
C170 C171 1.386 . S
C170 C173 1.388 . S
C171 C170 1.386 . S
C171 C172 1.382 . S
C171 H197 0.950 . S
C172 N169 1.332 . S
C172 C171 1.382 . S
C172 H183 0.952 . S
C173 C170 1.388 . S
C173 C174 1.382 . S
C173 H198 0.950 . S
C174 N169 1.332 . S
C174 C173 1.382 . S
C174 H184 0.948 . S
N175 Co153 2.282 . S
N175 C179 1.332 . S
N175 C180 1.332 . S
C176 C177 1.388 . S
C176 C180 1.382 . S
C176 H199 0.950 . S
C177 C176 1.388 . S
C177 C178 1.386 . S
C178 C177 1.386 . S
C178 C179 1.382 . S
C178 H200 0.950 . S
C179 N175 1.332 . S
C179 C178 1.382 . S
C179 H181 0.952 . S
C180 N175 1.332 . S
C180 C176 1.382 . S
C180 H182 0.948 . S
H181 C179 0.952 . S
H182 C180 0.948 . S
H183 C172 0.952 . S
H184 C174 0.948 . S
C185 C151 1.395 . S
C185 C155 1.391 . S
C186 C148 1.389 . S
C186 C168 1.392 . S
C187 C158 1.392 . S
C187 C160 1.389 . S
C188 C163 1.395 . S
C188 C165 1.391 . S
H189 C149 0.951 . S
H190 C150 0.950 . S
H191 C156 0.949 . S
H192 C157 0.950 . S
H193 C161 0.951 . S
H194 C162 0.950 . S
H195 C166 0.949 . S
H196 C167 0.950 . S
H197 C171 0.950 . S
H198 C173 0.950 . S
H199 C176 0.950 . S
H200 C178 0.950 . S
C201 C202 1.170 . S
C201 C203 1.380 . S
C202 C201 1.170 . S
C203 C201 1.380 . S
C203 C204 1.170 . S
C204 C203 1.170 . S
C205 C206 1.170 . S
C205 C207 1.380 . S
C206 C205 1.170 . S
C207 C205 1.380 . S
C207 C208 1.170 . S
C208 C207 1.170 . S
C209 C210 1.170 . S
C209 C211 1.380 . S
C210 C209 1.170 . S
C211 C209 1.380 . S
C211 C212 1.170 . S
C212 C211 1.170 . S
C213 C214 1.170 . S
C213 C215 1.380 . S
C214 C213 1.170 . S
C215 C213 1.380 . S
C215 C216 1.170 . S
C216 C215 1.170 . S
C217 C218 1.170 . S
C217 C219 1.380 . S
C218 C217 1.170 . S
C219 C217 1.380 . S
C219 C220 1.170 . S
C220 C219 1.170 . S
C221 C222 1.170 . S
C221 C223 1.380 . S
C222 C221 1.170 . S
C223 C221 1.380 . S
C223 C224 1.170 . S
C224 C223 1.170 . S
C225 C226 1.170 . S
C225 C227 1.380 . S
C226 C225 1.170 . S
C227 C225 1.380 . S
C227 C228 1.170 . S
C228 C227 1.170 . S
C229 C230 1.170 1_655 S
C229 C231 1.380 . S
C230 C229 1.170 1_455 S
C231 C229 1.380 . S
C231 C232 1.170 . S
C232 C231 1.170 . S
C233 C234 1.170 . S
C233 C235 1.380 . S
C234 C233 1.170 . S
C235 C233 1.380 . S
C235 C236 1.170 . S
C236 C235 1.170 . S
C237 C238 1.170 . S
C237 C239 1.380 . S
C238 C237 1.170 . S
C239 C237 1.380 . S
C239 C240 1.170 . S
C240 C239 1.170 . S
C241 C242 1.170 . S
C241 C243 1.380 . S
C242 C241 1.170 . S
C243 C241 1.380 . S
C243 C244 1.170 . S
C244 C243 1.170 . S
C245 C246 1.170 . S
C245 C247 1.380 . S
C246 C245 1.170 . S
C247 C245 1.380 . S
C247 C248 1.170 . S
C248 C247 1.170 . S
C204 C64 1.372 . S
C202 C11 1.371 . S
C206 C25 1.428 . S
C208 C134 1.435 . S
C210 C41 1.422 1_655 S
C212 C186 1.457 . S
C214 C7 1.401 . S
C216 C80 1.415 . S
C220 C124 1.453 . S
C218 C21 1.455 . S
C222 C36 1.426 . S
C224 C170 1.473 . S
C228 C117 1.423 . S
C226 C39 1.427 . S
C230 C8 1.398 1_566 S
C232 C177 1.471 . S
C236 C71 1.516 . S
C234 C22 1.479 1_565 S
C240 C133 1.453 . S
C238 C35 1.463 . S
C244 C187 1.452 . S
C242 C13 1.416 1_556 S
C246 C27 1.458 . S
C248 C81 1.503 . S
