# Generated by pormake.
# Topology pth, (4,4)-cn, num edge types: 1
# Building blocks:
#     Node 0, Type 0, BuildingBlock: AZAVOO_clean_sbu_0, # of connection points: 4
#     Node 1, Type 0, BuildingBlock: AZAVOO_clean_sbu_0, # of connection points: 4
#     Node 2, Type 0, BuildingBlock: AZAVOO_clean_sbu_0, # of connection points: 4
#     Node 3, Type 1, BuildingBlock: NAWXER_clean_sbu_0, # of connection points: 4
#     Node 4, Type 1, BuildingBlock: NAWXER_clean_sbu_0, # of connection points: 4
#     Node 5, Type 1, BuildingBlock: NAWXER_clean_sbu_0, # of connection points: 4
#     Edge 6, Type (0, 1), None
#     Edge 7, Type (0, 1), None
#     Edge 8, Type (0, 1), None
#     Edge 9, Type (0, 1), None
#     Edge 10, Type (0, 1), None
#     Edge 11, Type (0, 1), None
#     Edge 12, Type (0, 1), None
#     Edge 13, Type (0, 1), None
#     Edge 14, Type (0, 1), None
#     Edge 15, Type (0, 1), None
#     Edge 16, Type (0, 1), None
#     Edge 17, Type (0, 1), None
# Relax obj value: 0.083
# Max RMSD: 0.228
# Mean RMSD: 0.117
data_MOF--net-pth--node1-AZAVOO_clean_sbu_0--node2-NAWXER_clean_sbu_0--edge1-none
_symmetry_space_group_name_H-M    P1
_symmetry_Int_Tables_number       1
_symmetry_cell_setting            triclinic
loop_
_symmetry_equiv_pos_as_xyz
'x, y, z'
_cell_length_a     9.5946846
_cell_length_b     9.913646
_cell_length_c     27.656886
_cell_angle_alpha  92.426582
_cell_angle_beta   96.812132
_cell_angle_gamma 124.12045
loop_
_atom_site_label
_atom_site_type_symbol
_atom_site_fract_x
_atom_site_fract_y
_atom_site_fract_z
_atom_type_partial_charge
Mg0 Mg 0.30715 0.18371 0.0464 0.0
O1 O 0.05381 1.0113 -0.00956 0.0
O2 O 0.9883 0.1643 0.94952 0.0
Mg3 Mg 0.2131 0.43233 -0.02614 0.0
C4 C 0.95358 0.0251 0.95929 0.0
C5 C 0.35774 1.00638 0.13053 0.0
O6 O 0.50466 0.15025 0.14242 0.0
O7 O 0.17301 0.25399 0.09391 0.0
O8 O 0.13021 0.41433 0.04913 0.0
O9 O 0.46822 0.19072 -0.00853 0.0
O10 O 0.38504 0.35703 -0.00047 0.0
C11 C 0.11861 0.34448 0.0876 0.0
C12 C 0.46515 0.31171 -0.02294 0.0
O13 O 0.2537 0.98052 0.09228 0.0
Mg14 Mg 0.92064 0.02292 0.35213 0.0
O15 O 0.15528 0.09368 0.40923 0.0
O16 O 0.24978 0.32519 0.45751 0.0
Mg17 Mg 0.05349 0.38568 0.43586 0.0
C18 C 0.26274 0.20875 0.44387 0.0
C19 C 0.86011 0.75214 0.26852 0.0
O20 O 0.70419 0.71419 0.25737 0.0
O21 O 0.08088 0.23874 0.31151 0.0
O22 O 0.14307 0.45583 0.36136 0.0
O23 O 0.73865 0.86135 0.40038 0.0
O24 O 0.85088 0.12728 0.40206 0.0
C25 C 0.14798 0.39207 0.32103 0.0
C26 C 0.75241 0.99123 0.41903 0.0
O27 O 0.96488 0.86328 0.30397 0.0
Mg28 Mg 1.01083 0.94002 0.69 0.0
O29 O 0.19501 0.18115 0.74563 0.0
O30 O 0.03206 0.23261 0.78367 0.0
Mg31 Mg 0.75503 1.01662 0.75872 0.0
C32 C 0.17763 0.27139 0.7757 0.0
C33 C 0.165 0.86177 0.61055 0.0
O34 O 1.02208 0.71588 0.60839 0.0
O35 O 0.93647 0.07803 0.64173 0.0
O36 O 0.76622 0.10683 0.68271 0.0
O37 O 1.01842 0.78132 0.7443 0.0
O38 O 0.84264 0.86047 0.73764 0.0
C39 C 0.84134 0.12827 0.64574 0.0
C40 C 0.89654 0.78175 0.75973 0.0
O41 O 0.20214 0.97954 0.64217 0.0
C42 C 0.9206 0.67512 0.23889 0.0
C43 C 0.07895 0.40261 0.12962 0.0
O44 O 0.07895 0.73015 0.24814 0.0
Zn45 Zn 0.25162 0.68563 0.2221 0.0
O46 O 0.82094 0.55864 0.20422 0.0
Zn47 Zn 0.99181 0.53035 0.18418 0.0
O48 O 0.05368 0.44029 0.24603 0.0
O49 O 0.32402 0.6223 0.28022 0.0
O50 O 0.93058 0.37075 0.12895 0.0
O51 O 0.20461 0.51312 0.16218 0.0
O52 O 0.40983 0.89329 0.19932 0.0
O53 O 0.15111 0.7523 0.15436 0.0
C54 C 0.18147 0.48612 0.27961 0.0
C55 C 0.30593 0.87875 0.16286 0.0
C56 C 0.76404 0.14846 0.60042 0.0
C57 C 0.38924 0.19175 0.47343 0.0
O58 O 0.649 1.0156 0.57266 0.0
Zn59 Zn 0.45049 0.9267 0.51242 0.0
O60 O 0.78409 0.28371 0.59262 0.0
Zn61 Zn 0.59943 0.19022 0.53522 0.0
O62 O 0.39484 0.04564 0.57288 0.0
O63 O 0.25725 0.7819 0.54482 0.0
O64 O 0.51776 0.31163 0.50266 0.0
O65 O 0.35696 0.04782 0.47335 0.0
O66 O 0.52478 0.84554 0.46399 0.0
O67 O 0.69035 0.11703 0.47978 0.0
C68 C 0.27635 0.89557 0.57438 0.0
C69 C 0.65307 0.98313 0.45656 0.0
C70 C 0.54275 0.39486 0.93557 0.0
C71 C 0.82089 0.69847 0.80127 0.0
O72 O 0.5072 0.49379 0.9207 0.0
Zn73 Zn 0.556 0.65309 0.86844 0.0
O74 O 0.64687 0.37795 0.91595 0.0
Zn75 Zn 0.69493 0.5365 0.86849 0.0
O76 O 0.82442 0.76124 0.91606 0.0
O77 O 0.67333 0.86677 0.90949 0.0
O78 O 0.85227 0.60197 0.82095 0.0
O79 O 0.71383 0.72062 0.81616 0.0
O80 O 0.3303 0.53238 0.8266 0.0
O81 O 0.45717 0.40456 0.82023 0.0
C82 C 0.80719 0.87623 0.92824 0.0
C83 C 0.32995 0.41259 0.80752 0.0
loop_
_geom_bond_atom_site_label_1
_geom_bond_atom_site_label_2
_geom_bond_distance
_geom_bond_site_symmetry_2
_ccdc_geom_bond_type
Mg0 O1 2.028 1_445 S
Mg0 O7 1.986 . S
Mg0 O9 2.114 . S
Mg0 O10 2.251 . S
Mg0 O13 2.010 1_545 S
O1 Mg0 2.028 1_665 S
O1 C4 1.250 . S
O2 Mg3 2.028 1_655 S
O2 C4 1.248 1_546 S
Mg3 O2 2.028 1_455 S
Mg3 O8 2.032 1_456 S
Mg3 O10 2.079 1_556 S
C4 O1 1.250 . S
C4 O2 1.248 1_564 S
C5 O6 1.264 . S
C5 O13 1.249 . S
O6 C5 1.264 . S
O7 Mg0 1.986 . S
O7 C11 1.246 . S
O8 Mg3 2.032 1_654 S
O8 C11 1.259 1_655 S
O9 Mg0 2.114 . S
O9 C12 1.252 . S
O10 Mg0 2.251 . S
O10 Mg3 2.079 1_554 S
O10 C12 1.273 . S
C11 O7 1.246 . S
C11 O8 1.259 1_455 S
C12 O9 1.252 . S
C12 O10 1.273 . S
O13 Mg0 2.010 1_565 S
O13 C5 1.249 . S
Mg14 O15 2.028 1_655 S
Mg14 O21 1.986 1_655 S
Mg14 O23 2.114 1_545 S
Mg14 O24 2.251 . S
Mg14 O27 2.010 1_545 S
O15 Mg14 2.028 1_455 S
O15 C18 1.250 . S
O16 Mg17 2.028 . S
O16 C18 1.248 . S
Mg17 O16 2.028 . S
Mg17 O22 2.032 . S
Mg17 O24 2.079 1_455 S
C18 O15 1.250 . S
C18 O16 1.248 . S
C19 O20 1.264 . S
C19 O27 1.249 . S
O20 C19 1.264 . S
O21 Mg14 1.986 1_455 S
O21 C25 1.246 . S
O22 Mg17 2.032 . S
O22 C25 1.259 . S
O23 Mg14 2.114 1_565 S
O23 C26 1.252 1_565 S
O24 Mg14 2.251 . S
O24 Mg17 2.079 1_655 S
O24 C26 1.273 . S
C25 O21 1.246 . S
C25 O22 1.259 . S
C26 O23 1.252 1_545 S
C26 O24 1.273 . S
O27 Mg14 2.010 1_565 S
O27 C19 1.249 . S
Mg28 O29 2.028 1_565 S
Mg28 O35 1.986 1_465 S
Mg28 O37 2.114 1_455 S
Mg28 O38 2.251 1_455 S
Mg28 O41 2.010 . S
O29 Mg28 2.028 1_545 S
O29 C32 1.250 . S
O30 Mg31 2.028 1_455 S
O30 C32 1.248 . S
Mg31 O30 2.028 1_655 S
Mg31 O36 2.032 . S
Mg31 O38 2.079 1_545 S
C32 O29 1.250 . S
C32 O30 1.248 . S
C33 O34 1.264 . S
C33 O41 1.249 . S
O34 C33 1.264 . S
O35 Mg28 1.986 1_645 S
O35 C39 1.246 . S
O36 Mg31 2.032 . S
O36 C39 1.259 . S
O37 Mg28 2.114 1_655 S
O37 C40 1.252 . S
O38 Mg28 2.251 1_655 S
O38 Mg31 2.079 1_565 S
O38 C40 1.273 . S
C39 O35 1.246 . S
C39 O36 1.259 . S
C40 O37 1.252 . S
C40 O38 1.273 . S
O41 Mg28 2.010 . S
O41 C33 1.249 . S
C42 O44 1.247 . S
C42 O46 1.258 1_455 S
C43 O50 1.247 1_455 S
C43 O51 1.258 . S
O44 C42 1.247 . S
O44 Zn45 2.028 . S
Zn45 O44 2.028 . S
Zn45 O49 2.035 . S
Zn45 O51 2.035 . S
Zn45 O52 2.028 . S
O46 C42 1.258 1_655 S
O46 Zn47 2.035 . S
Zn47 O46 2.035 . S
Zn47 O48 2.028 . S
Zn47 O50 2.028 . S
Zn47 O53 2.035 . S
O48 Zn47 2.028 . S
O48 C54 1.247 1_655 S
O49 Zn45 2.035 . S
O49 C54 1.258 . S
O50 C43 1.247 1_655 S
O50 Zn47 2.028 . S
O51 C43 1.258 . S
O51 Zn45 2.035 . S
O52 Zn45 2.028 . S
O52 C55 1.247 . S
O53 Zn47 2.035 . S
O53 C55 1.258 1_655 S
C54 O48 1.247 1_455 S
C54 O49 1.258 . S
C55 O52 1.247 . S
C55 O53 1.258 1_455 S
C56 O58 1.247 1_545 S
C56 O60 1.258 . S
C57 O64 1.247 . S
C57 O65 1.258 1_545 S
O58 C56 1.247 1_565 S
O58 Zn59 2.028 . S
Zn59 O58 2.028 . S
Zn59 O63 2.035 . S
Zn59 O65 2.035 . S
Zn59 O66 2.028 . S
O60 C56 1.258 . S
O60 Zn61 2.035 . S
Zn61 O60 2.035 . S
Zn61 O62 2.028 . S
Zn61 O64 2.028 . S
Zn61 O67 2.035 . S
O62 Zn61 2.028 . S
O62 C68 1.247 . S
O63 Zn59 2.035 . S
O63 C68 1.258 1_565 S
O64 C57 1.247 . S
O64 Zn61 2.028 . S
O65 C57 1.258 1_565 S
O65 Zn59 2.035 . S
O66 Zn59 2.028 . S
O66 C69 1.247 1_565 S
O67 Zn61 2.035 . S
O67 C69 1.258 . S
C68 O62 1.247 . S
C68 O63 1.258 1_545 S
C69 O66 1.247 1_545 S
C69 O67 1.258 . S
C70 O72 1.247 . S
C70 O74 1.258 . S
C71 O78 1.247 . S
C71 O79 1.258 . S
O72 C70 1.247 . S
O72 Zn73 2.028 . S
Zn73 O72 2.028 . S
Zn73 O77 2.035 . S
Zn73 O79 2.035 . S
Zn73 O80 2.028 . S
O74 C70 1.258 . S
O74 Zn75 2.035 . S
Zn75 O74 2.035 . S
Zn75 O76 2.028 . S
Zn75 O78 2.028 . S
Zn75 O81 2.035 . S
O76 Zn75 2.028 . S
O76 C82 1.247 . S
O77 Zn73 2.035 . S
O77 C82 1.258 . S
O78 C71 1.247 . S
O78 Zn75 2.028 . S
O79 C71 1.258 . S
O79 Zn73 2.035 . S
O80 Zn73 2.028 . S
O80 C83 1.247 . S
O81 Zn75 2.035 . S
O81 C83 1.258 . S
C82 O76 1.247 . S
C82 O77 1.258 . S
C83 O80 1.247 . S
C83 O81 1.258 . S
C43 C11 1.579 . S
C26 C69 1.732 . S
C40 C71 1.502 . S
C5 C55 1.610 . S
C57 C18 1.753 . S
C32 C83 1.533 . S
C56 C39 1.428 . S
C4 C82 1.584 1_554 S
C42 C19 1.703 1_455 S
C68 C33 1.508 1_545 S
C70 C12 1.557 1_556 S
C25 C54 1.635 . S
