# Generated by pormake.
# Topology pts, (4,4)-cn, num edge types: 1
# Building blocks:
#     Node 0, Type 0, BuildingBlock: NAWXER_clean_sbu_0, # of connection points: 4
#     Node 1, Type 0, BuildingBlock: NAWXER_clean_sbu_0, # of connection points: 4
#     Node 2, Type 1, BuildingBlock: AZAVOO_clean_sbu_0, # of connection points: 4
#     Node 3, Type 1, BuildingBlock: AZAVOO_clean_sbu_0, # of connection points: 4
#     Edge 4, Type (0, 1), None
#     Edge 5, Type (0, 1), None
#     Edge 6, Type (0, 1), None
#     Edge 7, Type (0, 1), None
#     Edge 8, Type (0, 1), None
#     Edge 9, Type (0, 1), None
#     Edge 10, Type (0, 1), None
#     Edge 11, Type (0, 1), None
# Relax obj value: 0.010
# Max RMSD: 0.053
# Mean RMSD: 0.044
data_MOF--net-pts--node1-NAWXER_clean_sbu_0--node2-AZAVOO_clean_sbu_0--edge1-none
_symmetry_space_group_name_H-M    P1
_symmetry_Int_Tables_number       1
_symmetry_cell_setting            triclinic
loop_
_symmetry_equiv_pos_as_xyz
'x, y, z'
_cell_length_a     9.9148915
_cell_length_b     10.636539
_cell_length_c     16.63576
_cell_angle_alpha  89.997844
_cell_angle_beta   98.159267
_cell_angle_gamma 89.992801
loop_
_atom_site_label
_atom_site_type_symbol
_atom_site_fract_x
_atom_site_fract_y
_atom_site_fract_z
_atom_type_partial_charge
C0 C 0.40119 0.95292 0.90302 0.0
C1 C 0.75884 0.95295 0.13327 0.0
O2 O 0.45981 0.85922 0.93994 0.0
Zn3 Zn 0.58002 0.95464 0.01815 0.0
O4 O 0.4356 0.06521 0.92566 0.0
Zn5 Zn 0.57998 0.15447 0.01813 0.0
O6 O 0.69517 0.24883 0.9543 0.0
O7 O 0.71378 0.04262 0.94367 0.0
O8 O 0.72439 0.06524 0.11062 0.0
O9 O 0.70025 0.85925 0.09637 0.0
O10 O 0.44623 0.04263 0.09262 0.0
O11 O 0.46475 0.24883 0.08195 0.0
C12 C 0.74749 0.1539 0.92424 0.0
C13 C 0.41246 0.15391 0.11202 0.0
C14 C 0.15746 0.67144 0.41702 0.0
C15 C 0.18858 0.33454 0.62258 0.0
O16 O 0.04422 0.63846 0.4389 0.0
Zn17 Zn 0.96928 0.50479 0.51602 0.0
O18 O 0.26771 0.61571 0.44591 0.0
Zn19 Zn 0.19071 0.50475 0.52026 0.0
O20 O 0.09 0.37757 0.43773 0.0
O21 O 0.86891 0.38105 0.44171 0.0
O22 O 0.29106 0.38094 0.59454 0.0
O23 O 0.06995 0.37753 0.59852 0.0
O24 O 0.8923 0.61574 0.59039 0.0
O25 O 0.11579 0.63841 0.59739 0.0
C26 C 0.97137 0.33465 0.41364 0.0
C27 C 1.00256 0.67143 0.61928 0.0
Mg28 Mg 0.16343 -0.00079 0.3039 0.0
O29 O 0.97871 0.96077 0.20778 0.0
O30 O 0.80217 0.91657 0.27313 0.0
Mg31 Mg 0.87686 0.90819 0.40909 0.0
C32 C 0.85313 0.93544 0.20805 0.0
C33 C 0.31989 0.16779 0.17303 0.0
O34 O 0.29003 0.27854 0.20054 0.0
O35 O 0.06238 0.18529 0.33242 0.0
O36 O 0.90262 0.12411 0.40732 0.0
O37 O 0.23761 0.79969 0.31446 0.0
O38 O 0.08919 0.88278 0.38663 0.0
C39 C 0.9681 0.21018 0.37556 0.0
C40 C 0.16026 0.78725 0.3702 0.0
O41 O 0.28011 0.06794 0.20414 0.0
Mg42 Mg 0.99659 -0.00082 0.73239 0.0
O43 O 0.18132 0.96073 0.82852 0.0
O44 O 0.35786 0.91649 0.76317 0.0
Mg45 Mg 0.28317 0.90809 0.62722 0.0
C46 C 0.30691 0.93539 0.82825 0.0
C47 C 0.84007 0.16778 0.86324 0.0
O48 O 0.86987 0.27853 0.8357 0.0
O49 O 0.09762 0.18523 0.70385 0.0
O50 O 0.25738 0.12401 0.62896 0.0
O51 O 0.92243 0.79967 0.72185 0.0
O52 O 0.07085 0.88273 0.64968 0.0
C53 C 0.19189 0.2101 0.6607 0.0
C54 C 0.99978 0.78722 0.6661 0.0
O55 O 0.8799 0.06794 0.83215 0.0
loop_
_geom_bond_atom_site_label_1
_geom_bond_atom_site_label_2
_geom_bond_distance
_geom_bond_site_symmetry_2
_ccdc_geom_bond_type
C0 O2 1.247 1_545 S
C0 O4 1.258 . S
C1 O8 1.247 . S
C1 O9 1.258 1_545 S
O2 C0 1.247 1_565 S
O2 Zn3 2.028 1_556 S
Zn3 O2 2.028 1_554 S
Zn3 O7 2.035 1_554 S
Zn3 O9 2.035 . S
Zn3 O10 2.028 . S
O4 C0 1.258 . S
O4 Zn5 2.035 1_556 S
Zn5 O4 2.035 1_554 S
Zn5 O6 2.028 1_554 S
Zn5 O8 2.028 . S
Zn5 O11 2.035 . S
O6 Zn5 2.028 1_556 S
O6 C12 1.247 . S
O7 Zn3 2.035 1_556 S
O7 C12 1.258 1_565 S
O8 C1 1.247 . S
O8 Zn5 2.028 . S
O9 C1 1.258 1_565 S
O9 Zn3 2.035 . S
O10 Zn3 2.028 . S
O10 C13 1.247 1_565 S
O11 Zn5 2.035 . S
O11 C13 1.258 . S
C12 O6 1.247 . S
C12 O7 1.258 1_545 S
C13 O10 1.247 1_545 S
C13 O11 1.258 . S
C14 O16 1.247 1_455 S
C14 O18 1.258 . S
C15 O22 1.247 . S
C15 O23 1.258 1_455 S
O16 C14 1.247 1_655 S
O16 Zn17 2.028 . S
Zn17 O16 2.028 . S
Zn17 O21 2.035 . S
Zn17 O23 2.035 . S
Zn17 O24 2.028 . S
O18 C14 1.258 . S
O18 Zn19 2.035 . S
Zn19 O18 2.035 . S
Zn19 O20 2.028 . S
Zn19 O22 2.028 . S
Zn19 O25 2.035 . S
O20 Zn19 2.028 . S
O20 C26 1.247 . S
O21 Zn17 2.035 . S
O21 C26 1.258 1_655 S
O22 C15 1.247 . S
O22 Zn19 2.028 . S
O23 C15 1.258 1_655 S
O23 Zn17 2.035 . S
O24 Zn17 2.028 . S
O24 C27 1.247 1_655 S
O25 Zn19 2.035 . S
O25 C27 1.258 . S
C26 O20 1.247 . S
C26 O21 1.258 1_455 S
C27 O24 1.247 1_455 S
C27 O25 1.258 . S
Mg28 O29 2.028 1_455 S
Mg28 O35 1.986 . S
Mg28 O37 2.114 1_545 S
Mg28 O38 2.251 1_545 S
Mg28 O41 2.010 . S
O29 Mg28 2.028 1_655 S
O29 C32 1.250 . S
O30 Mg31 2.028 . S
O30 C32 1.248 . S
Mg31 O30 2.028 . S
Mg31 O36 2.032 . S
Mg31 O38 2.079 1_645 S
C32 O29 1.250 . S
C32 O30 1.248 . S
C33 O34 1.264 . S
C33 O41 1.249 . S
O34 C33 1.264 . S
O35 Mg28 1.986 . S
O35 C39 1.246 . S
O36 Mg31 2.032 . S
O36 C39 1.259 1_655 S
O37 Mg28 2.114 1_565 S
O37 C40 1.252 . S
O38 Mg28 2.251 1_565 S
O38 Mg31 2.079 1_465 S
O38 C40 1.273 . S
C39 O35 1.246 . S
C39 O36 1.259 1_455 S
C40 O37 1.252 . S
C40 O38 1.273 . S
O41 Mg28 2.010 . S
O41 C33 1.249 . S
Mg42 O43 2.028 1_655 S
Mg42 O49 1.986 . S
Mg42 O51 2.114 1_545 S
Mg42 O52 2.251 1_645 S
Mg42 O55 2.010 . S
O43 Mg42 2.028 1_455 S
O43 C46 1.250 . S
O44 Mg45 2.028 . S
O44 C46 1.248 . S
Mg45 O44 2.028 . S
Mg45 O50 2.032 . S
Mg45 O52 2.079 1_545 S
C46 O43 1.250 . S
C46 O44 1.248 . S
C47 O48 1.264 . S
C47 O55 1.249 . S
O48 C47 1.264 . S
O49 Mg42 1.986 . S
O49 C53 1.246 1_655 S
O50 Mg45 2.032 . S
O50 C53 1.259 . S
O51 Mg42 2.114 1_565 S
O51 C54 1.252 1_655 S
O52 Mg42 2.251 1_465 S
O52 Mg45 2.079 1_565 S
O52 C54 1.273 . S
C53 O49 1.246 1_455 S
C53 O50 1.259 . S
C54 O51 1.252 1_455 S
C54 O52 1.273 . S
O55 Mg42 2.010 . S
O55 C47 1.249 . S
C33 C13 1.254 . S
C53 C15 1.430 . S
C32 C1 1.437 . S
C54 C27 1.492 . S
C46 C0 1.438 . S
C39 C26 1.432 . S
C47 C12 1.254 . S
C14 C40 1.492 . S
